
#######################################################################
#
#                 Cambridge Crystallographic Data Centre
#                                CCDC 
#
#######################################################################
#
# If this CIF has been generated from an entry in the Cambridge 
# Structural Database, then it will include bibliographic, chemical, 
# crystal, experimental, refinement or atomic coordinate data resulting 
# from the CCDC's data processing and validation procedures.
#
#######################################################################

data_IWIRIP
_symmetry_cell_setting           trigonal
_symmetry_space_group_name_H-M   'P -3 m 1'
_symmetry_Int_Tables_number      164
_space_group_name_Hall           '-P 3 2"'
loop_
_symmetry_equiv_pos_site_id
_symmetry_equiv_pos_as_xyz
1 x,y,z
2 -y,x-y,z
3 -x+y,-x,z
4 y,x,-z
5 -x,-x+y,-z
6 x-y,-y,-z
7 -x,-y,-z
8 y,-x+y,-z
9 x-y,x,-z
10 -y,-x,z
11 x,x-y,z
12 -x+y,y,z
_cell_length_a                   9.853(7)
_cell_length_b                   9.853(7)
_cell_length_c                   10.421(8)
_cell_angle_alpha                90
_cell_angle_beta                 90
_cell_angle_gamma                120
_cell_volume                     876.147
loop_
_atom_site_label
_atom_site_type_symbol
_atom_site_fract_x
_atom_site_fract_y
_atom_site_fract_z
Nd1 Nd 0.6667 0.3333 0.10084(6)
O1 O 0.6667 0.3333 0.3256(9)
O2 O 0.4004(5) 0.0932(6) 0.1535(7)
C1 C 0.3295(8) 0.1647(4) 0.1559(7)
C2 C 0.0790(4) 0.1580(7) 0.1662(6)
H1 H 0.1335 0.2670 0.1644
C3 C 0.1589(7) 0.0795(4) 0.1676(6)
O3 O 0.8470(7) 0.4235(4) -0.0818(7)
O2J O 0.4004(5) 0.3072(8) 0.1535(7)
C3A C -0.0795(4) 0.0794(8) 0.1676(6)
C1A C -0.1647(4) 0.1648(9) 0.1559(7)
O2A O -0.0932(6) 0.3072(8) 0.1535(7)
O2K O -0.3072(8) 0.0932(6) 0.1535(7)
C2A C -0.1580(7) -0.0790(8) 0.1662(6)
H1A H -0.2670 -0.1335 0.1644
C3B C -0.0794(8) -0.1589(7) 0.1676(6)
C1B C -0.1648(9) -0.3295(8) 0.1559(7)
O2B O -0.3072(8) -0.4004(5) 0.1535(7)
O2I O -0.0932(6) -0.4004(5) 0.1535(7)
C2B C 0.0790(8) -0.0790(4) 0.1662(6)
H1B H 0.1335 -0.1335 0.1644
O2A_2 O 0.9068(6) 0.3072(8) 0.1535(7)
C1A_2 C 0.8353(4) 0.1648(9) 0.1559(7)
C2A_2 C 0.8420(7) -0.0790(8) 0.1662(6)
H1A_2 H 0.7330 -0.1335 0.1644
C3A_2 C 0.9205(4) 0.0794(8) 0.1676(6)
O2K_2 O 0.6928(8) 0.0932(6) 0.1535(7)
C3B_2 C 0.9206(8) -0.1589(7) 0.1676(6)
C1B_2 C 0.8352(9) -0.3295(8) 0.1559(7)
O2B_2 O 0.6928(8) -0.4004(5) 0.1535(7)
O2I_2 O 0.9068(6) -0.4004(5) 0.1535(7)
C2B_2 C 1.0790(8) -0.0790(4) 0.1662(6)
H1B_2 H 1.1335 -0.1335 0.1644
C3_2 C 1.1589(7) 0.0795(4) 0.1676(6)
C1_2 C 1.3295(8) 0.1647(4) 0.1559(7)
O2_2 O 1.4004(5) 0.0932(6) 0.1535(7)
O2J_2 O 1.4004(5) 0.3072(8) 0.1535(7)
C2_2 C 1.0790(4) 0.1580(7) 0.1662(6)
H1_2 H 1.1335 0.2670 0.1644
O3A O 0.5765(4) 0.4235(8) -0.0818(7)
O3B O 0.5765(8) 0.1530(7) -0.0818(7)
Nd1A Nd -0.3333 0.3334 0.10084(6)
O1A O -0.3333 0.3334 0.3256(9)
O3A_2 O -0.4235(4) 0.4235(8) -0.0818(7)
O3B_2 O -0.4235(8) 0.1530(7) -0.0818(7)
O3_2 O -0.1530(7) 0.4235(4) -0.0818(7)
O2B_3 O 0.6928(8) 0.5996(5) 0.1535(7)
O2I_3 O 0.9068(6) 0.5996(5) 0.1535(7)
Nd1_2 Nd -0.3333 -0.6667 0.10084(6)
Nd1_3 Nd 0.6667 -0.6667 0.10084(6)
Nd1_4 Nd 1.6667 0.3333 0.10084(6)
O2_3 O -0.5996(5) 0.0932(6) 0.1535(7)
O2B_4 O -0.3072(8) 0.5996(5) 0.1535(7)
O2J_3 O -0.5996(5) 0.3072(8) 0.1535(7)
O2I_4 O -0.0932(6) 0.5996(5) 0.1535(7)
O4 O 0.0000 0.0000 0.5000
O5 O 0.6667 0.3333 0.539(3)
loop_
_geom_bond_atom_site_label_1
_geom_bond_atom_site_label_2
_geom_bond_site_symmetry_1
_geom_bond_site_symmetry_2
Nd1 O1 1_555 1_555
O2 Nd1 1_555 1_555
C1 O2 1_555 1_555
C2 H1 1_555 1_555
C3 C1 1_555 1_555
O3 Nd1 1_555 1_555
O2J Nd1 1_555 1_555
C3A C2 1_555 1_555
C1A C3A 1_555 1_555
O2A C1A 1_555 1_555
O2K C1A 1_555 1_555
C2A C3A 1_555 1_555
H1A C2A 1_555 1_555
C3B C2A 1_555 1_555
C1B C3B 1_555 1_555
O2B C1B 1_555 1_555
O2I C1B 1_555 1_555
C2B C3 1_555 1_555
H1B C2B 1_555 1_555
O2A_2 Nd1 1_555 1_555
C1A_2 O2A_2 1_555 1_555
C2A_2 H1A_2 1_555 1_555
C3A_2 C1A_2 1_555 1_555
O2K_2 Nd1 1_555 1_555
C3B_2 C2A_2 1_555 1_555
C1B_2 C3B_2 1_555 1_555
O2B_2 C1B_2 1_555 1_555
O2I_2 C1B_2 1_555 1_555
C2B_2 C3B_2 1_555 1_555
H1B_2 C2B_2 1_555 1_555
C3_2 C2B_2 1_555 1_555
C1_2 C3_2 1_555 1_555
O2_2 C1_2 1_555 1_555
O2J_2 C1_2 1_555 1_555
C2_2 C3A_2 1_555 1_555
H1_2 C2_2 1_555 1_555
O3A Nd1 1_555 1_555
O3B Nd1 1_555 1_555
Nd1A O2A 1_555 1_555
O1A Nd1A 1_555 1_555
O3A_2 Nd1A 1_555 1_555
O3B_2 Nd1A 1_555 1_555
O3_2 Nd1A 1_555 1_555
O2B_3 Nd1 1_555 1_555
O2I_3 Nd1 1_555 1_555
Nd1_2 O2B 1_555 1_555
Nd1_3 O2B_2 1_555 1_555
Nd1_4 O2_2 1_555 1_555
O2_3 Nd1A 1_555 1_555
O2B_4 Nd1A 1_555 1_555
O2J_3 Nd1A 1_555 1_555
O2I_4 Nd1A 1_555 1_555
C1 O2J 1_555 1_555
C2 C3 1_555 1_555
O2K Nd1A 1_555 1_555
C3B C2B 1_555 1_555
O2I Nd1_2 1_555 1_555
C1A_2 O2K_2 1_555 1_555
C2A_2 C3A_2 1_555 1_555
O2I_2 Nd1_3 1_555 1_555
C3_2 C2_2 1_555 1_555
O2J_2 Nd1_4 1_555 1_555

#END
