
#######################################################################
#
#                 Cambridge Crystallographic Data Centre
#                                CCDC 
#
#######################################################################
#
# If this CIF has been generated from an entry in the Cambridge 
# Structural Database, then it will include bibliographic, chemical, 
# crystal, experimental, refinement or atomic coordinate data resulting 
# from the CCDC's data processing and validation procedures.
#
#######################################################################

data_IWIZAP
_symmetry_cell_setting           monoclinic
_symmetry_space_group_name_H-M   'P 21/c'
_symmetry_Int_Tables_number      14
_space_group_name_Hall           '-P 2ybc'
loop_
_symmetry_equiv_pos_site_id
_symmetry_equiv_pos_as_xyz
1 x,y,z
2 x,1/2-y,1/2+z
3 -x,-y,-z
4 -x,1/2+y,1/2-z
_cell_length_a                   8.7364(5)
_cell_length_b                   36.575(2)
_cell_length_c                   18.1407(12)
_cell_angle_alpha                90
_cell_angle_beta                 95.073(3)
_cell_angle_gamma                90
_cell_volume                     5773.86
loop_
_atom_site_label
_atom_site_type_symbol
_atom_site_fract_x
_atom_site_fract_y
_atom_site_fract_z
Ag1 Ag 0.7692(2) 0.57024(3) 0.50068(7)
Ag2 Ag 1.1873(1) 0.54060(3) 0.54242(6)
Ag3 Ag 0.4758(1) 0.49195(3) 0.60447(6)
S1 S 1.0265(4) 0.59799(11) 0.5308(2)
S2 S 0.7344(4) 0.50477(9) 0.5513(2)
S3 S 1.3601(4) 0.54541(9) 0.6636(2)
S4 S 0.6189(4) 0.57081(10) 0.3744(2)
N1 N 1.123(2) 0.6615(3) 0.8395(7)
N2 N 1.147(1) 0.4954(3) 0.8374(6)
N3 N 1.672(2) 0.6884(4) 0.5927(7)
N4 N 0.070(1) 0.6735(3) 0.3458(6)
C1 C 1.0532(12) 0.6161(3) 0.6236(6)
C2 C 1.159(2) 0.6410(4) 0.6388(8)
C3 C 1.184(2) 0.6569(4) 0.7074(7)
C4 C 1.093(2) 0.6453(4) 0.7637(8)
C5 C 0.985(2) 0.6198(4) 0.7473(9)
C6 C 0.959(2) 0.6042(4) 0.6774(8)
C7 C 1.118(2) 0.7045(5) 0.8305(11)
C8 C 1.273(2) 0.6508(5) 0.8751(9)
C9 C 1.004(2) 0.6515(5) 0.8905(10)
C10 C 0.8618(13) 0.5012(3) 0.6337(6)
C11 C 0.813(2) 0.5174(4) 0.7006(7)
C12 C 0.911(2) 0.5140(4) 0.7629(8)
C13 C 1.051(2) 0.4969(4) 0.7650(8)
C14 C 1.092(2) 0.4795(4) 0.7016(7)
C15 C 0.996(2) 0.4832(3) 0.6365(7)
C16 C 1.182(2) 0.5337(6) 0.8645(11)
C17 C 1.069(2) 0.4740(5) 0.8919(10)
C18 C 1.302(2) 0.4762(5) 0.8294(9)
C19 C 1.461(2) 0.5835(4) 0.6393(7)
C20 C 1.487(1) 0.5956(3) 0.5697(7)
C21 C 1.553(2) 0.6283(4) 0.5539(8)
C22 C 1.607(2) 0.6506(4) 0.6125(7)
C23 C 1.592(2) 0.6400(4) 0.6823(8)
C24 C 1.525(2) 0.6079(4) 0.6995(9)
C25 C 1.546(3) 0.7137(7) 0.575(1)
C26 C 1.763(2) 0.6863(6) 0.5282(11)
C27 C 1.781(3) 0.7014(6) 0.6527(12)
C28 C 0.455(1) 0.5999(3) 0.3655(6)
C29 C 0.473(2) 0.6366(3) 0.3557(7)
C30 C 0.348(2) 0.6604(4) 0.3474(8)
C31 C 0.2024(13) 0.6469(3) 0.3514(6)
C32 C 0.181(2) 0.6110(3) 0.3598(7)
C33 C 0.309(2) 0.5867(4) 0.3659(8)
C34 C -0.079(2) 0.6542(4) 0.3485(9)
C35 C 0.072(2) 0.6927(5) 0.2756(9)
C36 C 0.090(2) 0.6986(4) 0.4090(8)
H1 H 1.218(2) 0.6491(4) 0.6003(8)
H2 H 1.261(2) 0.6750(4) 0.7184(7)
H3 H 0.923(2) 0.6121(4) 0.7851(9)
H4 H 0.879(2) 0.5868(4) 0.6667(8)
H5 H 1.134(2) 0.7156(5) 0.8779(11)
H6 H 1.196(2) 0.7120(5) 0.8005(11)
H7 H 1.020(2) 0.7118(5) 0.8078(11)
H8 H 1.274(2) 0.6250(5) 0.8812(9)
H9 H 1.351(2) 0.6576(5) 0.8445(9)
H10 H 1.292(2) 0.6622(5) 0.9221(9)
H11 H 1.025(2) 0.6630(5) 0.9372(10)
H12 H 0.905(2) 0.6585(5) 0.8696(10)
H13 H 1.007(2) 0.6257(5) 0.8966(10)
H14 H 0.716(2) 0.5291(4) 0.7008(7)
H15 H 0.885(2) 0.5257(4) 0.8068(8)
H16 H 1.184(2) 0.4657(4) 0.7028(7)
H17 H 1.026(2) 0.4727(3) 0.5923(7)
H18 H 1.243(2) 0.5333(6) 0.9104(11)
H19 H 1.236(2) 0.5459(6) 0.8285(11)
H20 H 1.089(2) 0.5464(6) 0.8704(11)
H21 H 0.973(2) 0.4852(5) 0.8990(10)
H22 H 1.052(2) 0.4498(5) 0.8740(10)
H23 H 1.131(2) 0.4733(5) 0.9377(10)
H24 H 1.283(2) 0.4519(5) 0.8121(9)
H25 H 1.356(2) 0.4892(5) 0.7948(9)
H26 H 1.361(2) 0.4755(5) 0.8759(9)
H27 H 1.453(1) 0.5796(3) 0.5302(7)
H28 H 1.562(2) 0.6351(4) 0.5040(8)
H29 H 1.631(2) 0.6554(4) 0.7216(8)
H30 H 1.519(2) 0.6007(4) 0.7494(9)
H31 H 1.585(3) 0.7370(7) 0.562(1)
H32 H 1.486(3) 0.7161(7) 0.616(1)
H33 H 1.485(3) 0.7040(7) 0.534(1)
H34 H 1.703(2) 0.6774(6) 0.4857(11)
H35 H 1.846(2) 0.6701(6) 0.5407(11)
H36 H 1.802(2) 0.7099(6) 0.5181(11)
H37 H 1.864(3) 0.6848(6) 0.6613(12)
H38 H 1.730(3) 0.7039(6) 0.6965(12)
H39 H 1.819(3) 0.7246(6) 0.6391(12)
H40 H 0.574(2) 0.6462(3) 0.3532(7)
H41 H 0.363(2) 0.6858(4) 0.3395(8)
H42 H 0.081(2) 0.6011(3) 0.3590(7)
H43 H 0.294(2) 0.5613(4) 0.3735(8)
H44 H -0.159(2) 0.6717(4) 0.3434(9)
H45 H -0.091(2) 0.6371(4) 0.3091(9)
H46 H -0.081(2) 0.6418(4) 0.3944(9)
H47 H 0.164(2) 0.7063(5) 0.2751(9)
H48 H 0.063(2) 0.6764(5) 0.2348(9)
H49 H -0.013(2) 0.7090(5) 0.2722(9)
H50 H 0.086(2) 0.6857(4) 0.4543(8)
H51 H 0.185(2) 0.7111(4) 0.4092(8)
H52 H 0.008(2) 0.7158(4) 0.4036(8)
S2B S 1.2656(4) 0.49523(9) 0.4487(2)
S3_2 S 0.3601(4) 0.54541(9) 0.6636(2)
S4B S 0.3811(4) 0.42919(10) 0.6256(2)
Ag2B Ag 0.8127(1) 0.45940(3) 0.45758(6)
Ag3_2 Ag 1.4758(1) 0.49195(3) 0.60447(6)
Ag3B Ag 0.5242(1) 0.50805(3) 0.39553(6)
P1 P 0.3456(6) 0.43788(13) 0.0801(3)
F1 F 0.436(3) 0.4619(7) 0.0282(13)
F2 F 0.289(3) 0.4189(6) 0.0091(12)
F3 F 0.480(2) 0.4127(4) 0.0954(9)
F4 F 0.248(2) 0.4176(5) 0.1355(10)
F5 F 0.410(2) 0.4623(5) 0.1521(9)
F6 F 0.210(2) 0.4668(4) 0.0678(8)
P2 P 0.1447(5) 0.76736(12) 0.5798(2)
F7 F 0.004(2) 0.7616(4) 0.5182(8)
F8 F 0.254(2) 0.7714(5) 0.5195(10)
F9 F 0.171(2) 0.7248(4) 0.5743(9)
F10 F 0.278(2) 0.7740(4) 0.6374(8)
F11 F 0.033(2) 0.7618(5) 0.6414(10)
F12 F 0.117(2) 0.8081(6) 0.5816(11)
P3 P 0.6168(5) 0.75838(12) 0.3484(2)
F13 F 0.612(2) 0.8007(5) 0.3306(9)
F14 F 0.760(2) 0.7554(4) 0.3028(9)
F15 F 0.727(2) 0.7657(5) 0.4194(9)
F16 F 0.631(2) 0.7162(4) 0.3678(8)
F17 F 0.482(2) 0.7637(5) 0.3957(10)
F18 F 0.518(2) 0.7527(5) 0.2786(10)
O1 O 0.182(2) 0.5903(6) 0.0003(11)
N5 N 0.280(2) 0.5831(5) 0.1194(11)
C37 C 0.339(3) 0.5587(8) 0.177(2)
C38 C 0.215(4) 0.6138(10) 0.149(2)
C39 C 0.255(4) 0.5739(10) 0.053(2)
H53 H 0.273(3) 0.5382(8) 0.179(2)
H54 H 0.437(3) 0.5510(8) 0.165(2)
H55 H 0.348(3) 0.5706(8) 0.224(2)
H56 H 0.293(4) 0.6263(10) 0.178(2)
H57 H 0.175(4) 0.6292(10) 0.110(2)
H58 H 0.135(4) 0.6071(10) 0.178(2)
H59 H 0.297(4) 0.5509(10) 0.041(2)
O2 O 0.825(2) 0.6151(6) 0.1850(12)
N6 N 0.681(2) 0.6546(6) 0.1134(11)
C40 C 0.656(4) 0.6701(9) 0.040(2)
C41 C 0.631(4) 0.6784(10) 0.171(2)
C42 C 0.792(4) 0.6304(9) 0.121(2)
H60 H 0.746(4) 0.6828(9) 0.030(2)
H61 H 0.635(4) 0.6512(9) 0.004(2)
H62 H 0.572(4) 0.6866(9) 0.037(2)
H63 H 0.692(4) 0.6998(10) 0.172(2)
H64 H 0.526(4) 0.6848(10) 0.163(2)
H65 H 0.649(4) 0.6659(10) 0.217(2)
H66 H 0.850(4) 0.6254(9) 0.080(2)
loop_
_geom_bond_atom_site_label_1
_geom_bond_atom_site_label_2
_geom_bond_site_symmetry_1
_geom_bond_site_symmetry_2
Ag1 S1 1_555 1_555
Ag2 S1 1_555 1_555
Ag3 S2 1_555 1_555
S1 C1 1_555 1_555
S2 Ag1 1_555 1_555
S3 Ag2 1_555 1_555
S4 Ag1 1_555 1_555
P1 F1 1_555 1_555
P2 F7 1_555 1_555
P3 F13 1_555 1_555
F2 P1 1_555 1_555
F3 P1 1_555 1_555
F4 P1 1_555 1_555
F5 P1 1_555 1_555
F6 P1 1_555 1_555
F8 P2 1_555 1_555
F9 P2 1_555 1_555
F10 P2 1_555 1_555
F11 P2 1_555 1_555
F12 P2 1_555 1_555
F14 P3 1_555 1_555
F15 P3 1_555 1_555
F16 P3 1_555 1_555
F17 P3 1_555 1_555
F18 P3 1_555 1_555
O1 C39 1_555 1_555
O2 C42 1_555 1_555
N1 C4 1_555 1_555
N2 C13 1_555 1_555
N3 C22 1_555 1_555
N4 C31 1_555 1_555
N5 C37 1_555 1_555
N6 C40 1_555 1_555
C1 C2 1_555 1_555
C2 C3 1_555 1_555
C3 C4 1_555 1_555
C4 C5 1_555 1_555
C5 C6 1_555 1_555
C6 C1 1_555 1_555
C7 N1 1_555 1_555
C8 N1 1_555 1_555
C9 N1 1_555 1_555
C10 S2 1_555 1_555
C11 C10 1_555 1_555
C12 C11 1_555 1_555
C13 C12 1_555 1_555
C14 C13 1_555 1_555
C15 C10 1_555 1_555
C16 N2 1_555 1_555
C17 N2 1_555 1_555
C18 N2 1_555 1_555
C19 S3 1_555 1_555
C20 C19 1_555 1_555
C21 C20 1_555 1_555
C22 C21 1_555 1_555
C23 C22 1_555 1_555
C24 C19 1_555 1_555
C25 N3 1_555 1_555
C26 N3 1_555 1_555
C27 N3 1_555 1_555
C28 S4 1_555 1_555
C29 C28 1_555 1_555
C30 C29 1_555 1_555
C31 C30 1_555 1_555
C32 C31 1_555 1_555
C33 C28 1_555 1_555
C34 N4 1_555 1_555
C35 N4 1_555 1_555
C36 N4 1_555 1_555
C37 H53 1_555 1_555
C38 N5 1_555 1_555
C39 N5 1_555 1_555
C40 H60 1_555 1_555
C41 N6 1_555 1_555
C42 N6 1_555 1_555
H1 C2 1_555 1_555
H2 C3 1_555 1_555
H3 C5 1_555 1_555
H4 C6 1_555 1_555
H5 C7 1_555 1_555
H6 C7 1_555 1_555
H7 C7 1_555 1_555
H8 C8 1_555 1_555
H9 C8 1_555 1_555
H10 C8 1_555 1_555
H11 C9 1_555 1_555
H12 C9 1_555 1_555
H13 C9 1_555 1_555
H14 C11 1_555 1_555
H15 C12 1_555 1_555
H16 C14 1_555 1_555
H17 C15 1_555 1_555
H18 C16 1_555 1_555
H19 C16 1_555 1_555
H20 C16 1_555 1_555
H21 C17 1_555 1_555
H22 C17 1_555 1_555
H23 C17 1_555 1_555
H24 C18 1_555 1_555
H25 C18 1_555 1_555
H26 C18 1_555 1_555
H27 C20 1_555 1_555
H28 C21 1_555 1_555
H29 C23 1_555 1_555
H30 C24 1_555 1_555
H31 C25 1_555 1_555
H32 C25 1_555 1_555
H33 C25 1_555 1_555
H34 C26 1_555 1_555
H35 C26 1_555 1_555
H36 C26 1_555 1_555
H37 C27 1_555 1_555
H38 C27 1_555 1_555
H39 C27 1_555 1_555
H40 C29 1_555 1_555
H41 C30 1_555 1_555
H42 C32 1_555 1_555
H43 C33 1_555 1_555
H44 C34 1_555 1_555
H45 C34 1_555 1_555
H46 C34 1_555 1_555
H47 C35 1_555 1_555
H48 C35 1_555 1_555
H49 C35 1_555 1_555
H50 C36 1_555 1_555
H51 C36 1_555 1_555
H52 C36 1_555 1_555
H54 C37 1_555 1_555
H55 C37 1_555 1_555
H56 C38 1_555 1_555
H57 C38 1_555 1_555
H58 C38 1_555 1_555
H59 C39 1_555 1_555
H61 C40 1_555 1_555
H62 C40 1_555 1_555
H63 C41 1_555 1_555
H64 C41 1_555 1_555
H65 C41 1_555 1_555
H66 C42 1_555 1_555
S2B Ag2 1_555 1_555
S3_2 Ag3 1_555 1_555
S4B Ag3 1_555 1_555
Ag2B S2 1_555 1_555
Ag3_2 S3 1_555 1_555
Ag3B S4 1_555 1_555
C14 C15 1_555 1_555
C23 C24 1_555 1_555
C32 C33 1_555 1_555

#END
