
#######################################################################
#
#                 Cambridge Crystallographic Data Centre
#                                CCDC 
#
#######################################################################
#
# If this CIF has been generated from an entry in the Cambridge 
# Structural Database, then it will include bibliographic, chemical, 
# crystal, experimental, refinement or atomic coordinate data resulting 
# from the CCDC's data processing and validation procedures.
#
#######################################################################

data_IWOLOV
_symmetry_cell_setting           triclinic
_symmetry_space_group_name_H-M   'P -1'
_symmetry_Int_Tables_number      2
_space_group_name_Hall           '-P 1'
loop_
_symmetry_equiv_pos_site_id
_symmetry_equiv_pos_as_xyz
1 x,y,z
2 -x,-y,-z
_cell_length_a                   5.782(5)
_cell_length_b                   6.171(8)
_cell_length_c                   6.588(7)
_cell_angle_alpha                67.990(10)
_cell_angle_beta                 71.930(10)
_cell_angle_gamma                86.890(10)
_cell_volume                     206.671
loop_
_atom_site_label
_atom_site_type_symbol
_atom_site_fract_x
_atom_site_fract_y
_atom_site_fract_z
Ag1 Ag 0.05880(10) 0.07865(9) 0.72922(10)
N1 N -0.2101(13) -0.1803(13) 0.7437(14)
N2 N -0.4274(11) -0.1828(11) 0.8243(10)
N3 N -0.6425(12) -0.1931(13) 0.8999(13)
N4 N 0.1743(10) 0.4311(11) 0.7049(11)
H1 H 0.0452 0.5193 0.7044
H2 H 0.2105 0.4109 0.8339
C1 C 0.3852(12) 0.5675(12) 0.5034(13)
H3 H 0.4147 0.7160 0.5131
H4 H 0.3464 0.6002 0.3621
C1A C 0.6148(12) 0.4325(12) 0.4966(13)
N4A N 0.8257(10) 0.5689(11) 0.2951(11)
H1A H 0.9548 0.4807 0.2956
H2A H 0.7895 0.5891 0.1661
H3A H 0.5853 0.2840 0.4869
H4A H 0.6536 0.3998 0.6379
N3_2 N 0.3575(12) -0.1931(13) 0.8999(13)
Ag1_2 Ag -0.94120(10) 0.07865(9) 0.72922(10)
Ag1A Ag 0.94120(10) 0.92135(9) 0.27078(10)
N1A N 1.2101(13) 1.1803(13) 0.2563(14)
N2A N 1.4274(11) 1.1828(11) 0.1757(10)
N3A N 1.6425(12) 1.1931(13) 0.1001(13)
N3A_2 N 0.6425(12) 1.1931(13) 0.1001(13)
Ag1A_2 Ag 1.94120(10) 0.92135(9) 0.27078(10)
loop_
_geom_bond_atom_site_label_1
_geom_bond_atom_site_label_2
_geom_bond_site_symmetry_1
_geom_bond_site_symmetry_2
Ag1 N1 1_555 1_555
N1 N2 1_555 1_555
N2 N3 1_555 1_555
N3 Ag1_2 1_555 1_555
N4 Ag1 1_555 1_555
H1 N4 1_555 1_555
H2 N4 1_555 1_555
C1 N4 1_555 1_555
H3 C1 1_555 1_555
H4 C1 1_555 1_555
C1A C1 1_555 1_555
N4A C1A 1_555 1_555
H1A N4A 1_555 1_555
H2A N4A 1_555 1_555
H3A C1A 1_555 1_555
H4A C1A 1_555 1_555
N3_2 Ag1 1_555 1_555
Ag1A N4A 1_555 1_555
N1A Ag1A 1_555 1_555
N2A N1A 1_555 1_555
N3A N2A 1_555 1_555
N3A_2 Ag1A 1_555 1_555
Ag1A_2 N3A 1_555 1_555

#END
