
#######################################################################
#
#                 Cambridge Crystallographic Data Centre
#                                CCDC 
#
#######################################################################
#
# If this CIF has been generated from an entry in the Cambridge 
# Structural Database, then it will include bibliographic, chemical, 
# crystal, experimental, refinement or atomic coordinate data resulting 
# from the CCDC's data processing and validation procedures.
#
#######################################################################

data_IWOLEL
_symmetry_cell_setting           triclinic
_symmetry_space_group_name_H-M   'P -1'
_symmetry_Int_Tables_number      2
_space_group_name_Hall           '-P 1'
loop_
_symmetry_equiv_pos_site_id
_symmetry_equiv_pos_as_xyz
1 x,y,z
2 -x,-y,-z
_cell_length_a                   6.289(2)
_cell_length_b                   7.679(3)
_cell_length_c                   12.686(5)
_cell_angle_alpha                76.147(7)
_cell_angle_beta                 88.002(7)
_cell_angle_gamma                70.902(7)
_cell_volume                     561.457
loop_
_atom_site_label
_atom_site_type_symbol
_atom_site_fract_x
_atom_site_fract_y
_atom_site_fract_z
Cu1 Cu 0.0000 1.0000 1.0000
O1 O 0.0967(11) 1.2188(8) 0.9691(6)
O2 O 0.3452(11) 1.3350(9) 0.8725(6)
O3 O -0.4297(13) 1.2231(11) 0.6681(5)
H1 H -0.3600 1.2951 0.6411
O4 O -0.1718(12) 1.1286(10) 0.8050(6)
N1 N 0.2692(11) 0.8911(9) 0.9220(5)
N2 N 0.6376(14) 0.8056(11) 0.7955(7)
C1 C 0.2624(14) 1.2102(11) 0.9069(7)
C2 C 0.3676(13) 1.0197(10) 0.8793(6)
C3 C 0.5489(14) 0.9786(12) 0.8145(7)
C4 C -0.3355(15) 1.1206(12) 0.7632(7)
C5 C 0.3548(15) 0.7167(11) 0.9025(7)
H2 H 0.2886 0.6243 0.9305
C6 C 0.5396(16) 0.6772(13) 0.8411(8)
H3 H 0.6001 0.5551 0.8305
O1A O -0.0967(11) 0.7812(8) 1.0309(6)
O4A O 0.1718(12) 0.8714(10) 1.1950(6)
N1A N -0.2692(11) 1.1089(9) 1.0780(5)
C4_2 C 0.6645(15) 1.1206(12) 0.7632(7)
C3_2 C -0.4511(14) 0.9786(12) 0.8145(7)
N2_2 N -0.3624(14) 0.8056(11) 0.7955(7)
C2_2 C -0.6324(13) 1.0197(10) 0.8793(6)
O3_2 O 0.5703(13) 1.2231(11) 0.6681(5)
O4_2 O 0.8282(12) 1.1286(10) 0.8050(6)
C6_2 C -0.4604(16) 0.6772(13) 0.8411(8)
C5_2 C -0.6452(15) 0.7167(11) 0.9025(7)
H3_2 H -0.3999 0.5551 0.8305
N1_2 N -0.7308(11) 0.8911(9) 0.9220(5)
C1_2 C -0.7376(14) 1.2102(11) 0.9069(7)
Cu1_2 Cu -1.0000 1.0000 1.0000
O1_2 O -0.9033(11) 1.2188(8) 0.9691(6)
O2_2 O -0.6548(11) 1.3350(9) 0.8725(6)
Cu1_3 Cu 1.0000 1.0000 1.0000
H1_2 H 0.6400 1.2951 0.6411
H2_2 H -0.7114 0.6243 0.9305
O5 O 0.7090(13) 0.4977(11) 0.5917(6)
N3 N 0.9427(12) 0.6665(11) 0.5937(6)
C7 C 0.8138(19) 0.8239(15) 0.5074(10)
H4 H 0.7033 0.7880 0.4755
H5 H 0.9132 0.8565 0.4529
H6 H 0.7396 0.9315 0.5368
C8 C 1.130(2) 0.6860(18) 0.6458(11)
H7 H 1.1839 0.5825 0.7087
H8 H 1.0831 0.8039 0.6675
H9 H 1.2489 0.6845 0.5960
C9 C 0.8722(17) 0.5201(14) 0.6298(8)
H10 H 0.9525 0.4263 0.6889
loop_
_geom_bond_atom_site_label_1
_geom_bond_atom_site_label_2
_geom_bond_site_symmetry_1
_geom_bond_site_symmetry_2
Cu1 O1 1_555 1_555
O1 C1 1_555 1_555
O2 C1 1_555 1_555
O3 H1 1_555 1_555
O4 Cu1 1_555 1_555
O5 C9 1_555 1_555
N1 Cu1 1_555 1_555
N2 C3 1_555 1_555
N3 C7 1_555 1_555
C1 C2 1_555 1_555
C2 N1 1_555 1_555
C3 C2 1_555 1_555
C4 O3 1_555 1_555
C5 N1 1_555 1_555
H2 C5 1_555 1_555
C6 N2 1_555 1_555
H3 C6 1_555 1_555
C7 H4 1_555 1_555
H5 C7 1_555 1_555
H6 C7 1_555 1_555
C8 N3 1_555 1_555
H7 C8 1_555 1_555
H8 C8 1_555 1_555
H9 C8 1_555 1_555
C9 N3 1_555 1_555
H10 C9 1_555 1_555
O1A Cu1 1_555 1_555
O4A Cu1 1_555 1_555
N1A Cu1 1_555 1_555
C4_2 C3 1_555 1_555
C3_2 C4 1_555 1_555
N2_2 C3_2 1_555 1_555
C2_2 C3_2 1_555 1_555
O3_2 C4_2 1_555 1_555
O4_2 C4_2 1_555 1_555
C6_2 N2_2 1_555 1_555
C5_2 C6_2 1_555 1_555
H3_2 C6_2 1_555 1_555
N1_2 C2_2 1_555 1_555
C1_2 C2_2 1_555 1_555
Cu1_2 N1_2 1_555 1_555
O1_2 C1_2 1_555 1_555
O2_2 C1_2 1_555 1_555
Cu1_3 O4_2 1_555 1_555
H1_2 O3_2 1_555 1_555
H2_2 C5_2 1_555 1_555
O4 C4 1_555 1_555
C5 C6 1_555 1_555
C5_2 N1_2 1_555 1_555
Cu1_2 O1_2 1_555 1_555

#END
