
#######################################################################
#
#                 Cambridge Crystallographic Data Centre
#                                CCDC 
#
#######################################################################
#
# If this CIF has been generated from an entry in the Cambridge 
# Structural Database, then it will include bibliographic, chemical, 
# crystal, experimental, refinement or atomic coordinate data resulting 
# from the CCDC's data processing and validation procedures.
#
#######################################################################

data_IWOMEM
_symmetry_cell_setting           monoclinic
_symmetry_space_group_name_H-M   'C 2/c'
_symmetry_Int_Tables_number      15
_space_group_name_Hall           '-C 2yn'
loop_
_symmetry_equiv_pos_site_id
_symmetry_equiv_pos_as_xyz
1 x,y,z
2 1/2+x,1/2+y,z
3 x,-y,1/2+z
4 1/2+x,1/2-y,1/2+z
5 -x,-y,-z
6 1/2-x,1/2-y,-z
7 -x,y,1/2-z
8 1/2-x,1/2+y,1/2-z
_cell_length_a                   16.949(3)
_cell_length_b                   7.3680(10)
_cell_length_c                   13.540(3)
_cell_angle_alpha                90
_cell_angle_beta                 128.09(3)
_cell_angle_gamma                90
_cell_volume                     1330.79
loop_
_atom_site_label
_atom_site_type_symbol
_atom_site_fract_x
_atom_site_fract_y
_atom_site_fract_z
Cs1 Cs 0.152950(9) 0.684790(16) 0.608850(10)
Co1 Co 0.0000 0.33315(4) 0.2500
C1 C 0.12908(12) 0.1857(2) 0.49770(15)
C2 C 0.15826(11) 0.0875(2) 0.42282(14)
O1 O 0.06240(10) 0.30724(17) 0.43929(12)
O2 O 0.17079(11) 0.1360(3) 0.60733(12)
O3 O 0.22512(11) -0.0284(2) 0.47609(13)
O4 O 0.10792(10) 0.13303(18) 0.30847(11)
O5 O 0.10313(10) 0.5237(2) 0.28168(14)
O6 O -0.03449(12) 0.8360(2) 0.34797(15)
H1 H 0.090(3) 0.627(5) 0.258(3)
H2 H 0.159(2) 0.534(4) 0.356(3)
H3 H -0.072(2) 0.836(4) 0.365(3)
H4 H -0.054(3) 0.918(5) 0.304(3)
C1F C -0.12908(12) 0.1857(2) 0.00230(15)
C2F C -0.15826(11) 0.0875(2) 0.07718(14)
O1F O -0.06240(10) 0.30724(17) 0.06071(12)
O2F O -0.17079(11) 0.1360(3) -0.10733(12)
O3F O -0.22512(11) -0.0284(2) 0.02391(13)
O4F O -0.10792(10) 0.13303(18) 0.19153(11)
O5F O -0.10313(10) 0.5237(2) 0.21832(14)
H1F H -0.090(3) 0.627(5) 0.242(3)
H2F H -0.159(2) 0.534(4) 0.144(3)
Cs1F Cs -0.152950(9) 0.684790(16) -0.108850(10)
O6F O 0.03449(12) 0.8360(2) 0.15203(15)
H3F H 0.072(2) 0.836(4) 0.135(3)
H4F H 0.054(3) 0.918(5) 0.196(3)
O1D O -0.06240(10) 0.69276(17) 0.56071(12)
O2_2 O 0.17079(11) 1.1360(3) 0.60733(12)
O2G O 0.32921(11) 0.6360(3) 0.89267(12)
O3_2 O 0.22512(11) 0.9716(2) 0.47609(13)
O3E O 0.27488(11) 0.5284(2) 0.52391(13)
O4B O 0.10792(10) 0.86697(18) 0.80847(11)
O5B O 0.10313(10) 0.4763(2) 0.78168(14)
Cs1D Cs -0.152950(9) 0.315210(16) 0.391150(10)
Cs1_2 Cs 0.152950(9) -0.315210(16) 0.608850(10)
Cs1G Cs 0.347050(9) 0.184790(16) 0.891150(10)
Cs1E Cs 0.347050(9) -0.184790(16) 0.391150(10)
Cs1B Cs 0.152950(9) 0.315210(16) 0.108850(10)
Cs1A Cs -0.347050(9) 0.184790(16) -0.391150(10)
Cs1F_2 Cs -0.152950(9) -0.315210(16) -0.108850(10)
Cs1C Cs -0.347050(9) -0.184790(16) 0.108850(10)
O1B O 0.06240(10) 0.69276(17) -0.06071(12)
O2A O -0.32921(11) 0.6360(3) -0.39267(12)
O2F_2 O -0.17079(11) 1.1360(3) -0.10733(12)
O3C O -0.27488(11) 0.5284(2) -0.02391(13)
O3F_2 O -0.22512(11) 0.9716(2) 0.02391(13)
O4D O -0.10792(10) 0.86697(18) -0.30847(11)
O5D O -0.10313(10) 0.4763(2) -0.28168(14)
H1B H 0.090(3) 0.373(5) 0.758(3)
H2B H 0.159(2) 0.466(4) 0.856(3)
H1D H -0.090(3) 0.373(5) -0.258(3)
H2D H -0.159(2) 0.466(4) -0.356(3)
loop_
_geom_bond_atom_site_label_1
_geom_bond_atom_site_label_2
_geom_bond_site_symmetry_1
_geom_bond_site_symmetry_2
Cs1 O1 1_555 1_555
Co1 O1 1_555 1_555
C1 C2 1_555 1_555
C2 O3 1_555 1_555
O1 C1 1_555 1_555
O2 C1 1_555 1_555
O3 Cs1_2 1_555 1_555
O4 Co1 1_555 1_555
O5 Co1 1_555 1_555
O6 Cs1 1_555 1_555
H1 O5 1_555 1_555
H2 O5 1_555 1_555
H3 O6 1_555 1_555
H4 O6 1_555 1_555
C1F C2F 1_555 1_555
C2F O3F 1_555 1_555
O1F Co1 1_555 1_555
O2F C1F 1_555 1_555
O3F Cs1F_2 1_555 1_555
O4F Co1 1_555 1_555
O5F Co1 1_555 1_555
H1F O5F 1_555 1_555
H2F O5F 1_555 1_555
Cs1F O1F 1_555 1_555
O6F Cs1F 1_555 1_555
H3F O6F 1_555 1_555
H4F O6F 1_555 1_555
O1D Cs1 1_555 1_555
O2_2 Cs1 1_555 1_555
O2G Cs1 1_555 1_555
O3_2 Cs1 1_555 1_555
O3E Cs1 1_555 1_555
O4B Cs1 1_555 1_555
O5B Cs1 1_555 1_555
Cs1D O1 1_555 1_555
Cs1_2 O2 1_555 1_555
Cs1G O2 1_555 1_555
Cs1E O3 1_555 1_555
Cs1B O4 1_555 1_555
Cs1A O2F 1_555 1_555
Cs1F_2 O2F 1_555 1_555
Cs1C O3F 1_555 1_555
O1B Cs1F 1_555 1_555
O2A Cs1F 1_555 1_555
O2F_2 Cs1F 1_555 1_555
O3C Cs1F 1_555 1_555
O3F_2 Cs1F 1_555 1_555
O4D Cs1F 1_555 1_555
O5D Cs1F 1_555 1_555
H1B O5B 1_555 1_555
H2B O5B 1_555 1_555
H1D O5D 1_555 1_555
H2D O5D 1_555 1_555
C2 O4 1_555 1_555
O5 Cs1B 1_555 1_555
C1F O1F 1_555 1_555
C2F O4F 1_555 1_555
O1F Cs1B 1_555 1_555
O4F Cs1D 1_555 1_555
O5F Cs1D 1_555 1_555
O1D Cs1D 1_555 1_555
O2G Cs1G 1_555 1_555
Cs1B O1B 1_555 1_555
Cs1A O2A 1_555 1_555

#END
