
#######################################################################
#
#                 Cambridge Crystallographic Data Centre
#                                CCDC 
#
#######################################################################
#
# If this CIF has been generated from an entry in the Cambridge 
# Structural Database, then it will include bibliographic, chemical, 
# crystal, experimental, refinement or atomic coordinate data resulting 
# from the CCDC's data processing and validation procedures.
#
#######################################################################

data_IWONAJ
_symmetry_cell_setting           monoclinic
_symmetry_space_group_name_H-M   'P 21/c'
_symmetry_Int_Tables_number      14
_space_group_name_Hall           '-P 2ybc'
loop_
_symmetry_equiv_pos_site_id
_symmetry_equiv_pos_as_xyz
1 x,y,z
2 x,1/2-y,1/2+z
3 -x,-y,-z
4 -x,1/2+y,1/2-z
_cell_length_a                   9.238(2)
_cell_length_b                   10.435(2)
_cell_length_c                   19.120(4)
_cell_angle_alpha                90
_cell_angle_beta                 91.456(11)
_cell_angle_gamma                90
_cell_volume                     1842.54
loop_
_atom_site_label
_atom_site_type_symbol
_atom_site_fract_x
_atom_site_fract_y
_atom_site_fract_z
Sn1 Sn 0.47380(2) -0.214130(14) 0.235513(7)
Cl1 Cl 0.18559(10) 0.62174(6) 0.00670(4)
Cl2 Cl -0.06983(8) 0.01151(9) -0.23734(4)
O1 O 0.4102(2) -0.08748(16) 0.15140(9)
O2 O 0.4556(2) 0.11393(16) 0.18300(9)
C1 C 0.4081(3) -0.1056(2) 0.32321(12)
H1 H 0.4833 -0.1100 0.3602
H2 H 0.3174 -0.1407 0.3406
H3 H 0.3932 -0.0161 0.3092
C2 C 0.3269(3) -0.3494(2) 0.19145(13)
H4 H 0.3569 -0.3720 0.1442
H5 H 0.2295 -0.3123 0.1891
H6 H 0.3264 -0.4266 0.2206
C3 C 0.6923(3) -0.2171(3) 0.20542(15)
H7 H 0.6980 -0.1924 0.1561
H8 H 0.7316 -0.3037 0.2118
H9 H 0.7486 -0.1567 0.2344
C4 C 0.4059(3) 0.0336(2) 0.14166(11)
C5 C 0.3319(2) 0.0754(2) 0.07413(11)
C6 C 0.2905(3) -0.0139(2) 0.02733(11)
H10 H 0.3217 -0.0987 0.0378
C7 C 0.3075(3) 0.2146(2) 0.06228(11)
C8 C 0.2123(3) 0.2832(2) 0.10348(12)
H11 H 0.1722 0.2434 0.1433
C9 C 0.1752(3) 0.4089(2) 0.08712(13)
H12 H 0.1087 0.4547 0.1148
C10 C 0.2367(3) 0.4661(2) 0.02985(13)
C11 C 0.3355(3) 0.4027(2) -0.01040(13)
H13 H 0.3789 0.4446 -0.0487
C12 C 0.3710(3) 0.2762(2) 0.00587(13)
H14 H 0.4389 0.2315 -0.0216
C13 C 0.2038(3) 0.0003(2) -0.03787(11)
C14 C 0.1008(3) 0.0970(2) -0.04908(12)
H15 H 0.0887 0.1612 -0.0145
C15 C 0.0161(3) 0.1001(3) -0.11026(13)
H16 H -0.0530 0.1664 -0.1178
C16 C 0.0338(3) 0.0055(3) -0.15982(12)
C17 C 0.1318(3) -0.0922(3) -0.14996(13)
H17 H 0.1414 -0.1572 -0.1843
C18 C 0.2167(3) -0.0943(2) -0.08892(12)
H18 H 0.2849 -0.1614 -0.0818
O2C O 0.5444(2) -0.38607(16) 0.31700(9)
Sn1C Sn 0.52620(2) 0.285870(14) 0.264487(7)
loop_
_geom_bond_atom_site_label_1
_geom_bond_atom_site_label_2
_geom_bond_site_symmetry_1
_geom_bond_site_symmetry_2
Sn1 O1 1_555 1_555
Cl1 C10 1_555 1_555
Cl2 C16 1_555 1_555
O1 C4 1_555 1_555
O2 C4 1_555 1_555
C1 Sn1 1_555 1_555
H1 C1 1_555 1_555
H2 C1 1_555 1_555
H3 C1 1_555 1_555
C2 Sn1 1_555 1_555
H4 C2 1_555 1_555
H5 C2 1_555 1_555
H6 C2 1_555 1_555
C3 Sn1 1_555 1_555
H7 C3 1_555 1_555
H8 C3 1_555 1_555
H9 C3 1_555 1_555
C4 C5 1_555 1_555
C5 C6 1_555 1_555
C6 H10 1_555 1_555
C7 C5 1_555 1_555
C8 C7 1_555 1_555
H11 C8 1_555 1_555
C9 C8 1_555 1_555
H12 C9 1_555 1_555
C10 C9 1_555 1_555
C11 C10 1_555 1_555
H13 C11 1_555 1_555
C12 C7 1_555 1_555
H14 C12 1_555 1_555
C13 C6 1_555 1_555
C14 C13 1_555 1_555
H15 C14 1_555 1_555
C15 C14 1_555 1_555
H16 C15 1_555 1_555
C16 C15 1_555 1_555
C17 C16 1_555 1_555
H17 C17 1_555 1_555
C18 C13 1_555 1_555
H18 C18 1_555 1_555
O2C Sn1 1_555 1_555
Sn1C O2 1_555 1_555
C11 C12 1_555 1_555
C17 C18 1_555 1_555

#END
