
#######################################################################
#
#                 Cambridge Crystallographic Data Centre
#                                CCDC 
#
#######################################################################
#
# If this CIF has been generated from an entry in the Cambridge 
# Structural Database, then it will include bibliographic, chemical, 
# crystal, experimental, refinement or atomic coordinate data resulting 
# from the CCDC's data processing and validation procedures.
#
#######################################################################

data_IWONUD
_symmetry_cell_setting           orthorhombic
_symmetry_space_group_name_H-M   'P 21 21 21'
_symmetry_Int_Tables_number      19
_space_group_name_Hall           'P 2ac 2ab'
loop_
_symmetry_equiv_pos_site_id
_symmetry_equiv_pos_as_xyz
1 x,y,z
2 1/2-x,-y,1/2+z
3 -x,1/2+y,1/2-z
4 1/2+x,1/2-y,-z
_cell_length_a                   8.364(4)
_cell_length_b                   9.463(5)
_cell_length_c                   22.411(12)
_cell_angle_alpha                90
_cell_angle_beta                 90
_cell_angle_gamma                90
_cell_volume                     1773.8
loop_
_atom_site_label
_atom_site_type_symbol
_atom_site_fract_x
_atom_site_fract_y
_atom_site_fract_z
Ni1 Ni 0.15427(9) 1.05133(7) 0.04285(3)
O1 O 0.1729(6) 0.7680(5) 0.23888(18)
N1 N 0.2774(8) 1.1720(7) -0.0115(2)
C1 C 0.3610(8) 1.2080(6) -0.0494(3)
S1 S 0.4775(3) 1.2596(2) -0.10256(8)
N2 N 0.0244(7) 0.9884(6) -0.0239(2)
C2 C -0.0171(7) 0.9556(7) -0.0711(3)
S2 S -0.0745(3) 0.9064(3) -0.13603(9)
N3 N 0.0796(5) 0.9020(5) 0.1008(2)
N4 N 0.1093(5) 0.7992(5) 0.1893(2)
N5 N 0.3227(5) 1.0720(5) 0.10788(19)
C3 C 0.4414(8) 1.1700(7) 0.1088(3)
H1 H 0.4548 1.2297 0.0763
C4 C 0.5425(8) 1.1826(7) 0.1572(3)
H2 H 0.6236 1.2499 0.1568
C5 C 0.5237(7) 1.0967(7) 0.2053(3)
H3 H 0.5907 1.1058 0.2382
C6 C 0.4045(7) 0.9961(7) 0.2050(3)
H4 H 0.3912 0.9351 0.2371
C7 C 0.3049(6) 0.9880(6) 0.1555(2)
C8 C 0.1647(7) 0.8931(5) 0.1480(2)
C9 C -0.0544(7) 0.7508(6) 0.1706(3)
C10 C -0.1709(9) 0.8325(8) 0.2099(3)
H5 H -0.1483 0.8132 0.2511
H6 H -0.2783 0.8038 0.2008
H7 H -0.1595 0.9319 0.2024
C11 C -0.0699(9) 0.5917(7) 0.1829(3)
H8 H 0.0192 0.5428 0.1655
H9 H -0.1675 0.5571 0.1658
H10 H -0.0710 0.5757 0.2252
C12 C -0.0541(7) 0.7943(6) 0.1035(3)
C13 C -0.0052(10) 0.6773(7) 0.0610(3)
H11 H 0.0150 0.7167 0.0222
H12 H -0.0898 0.6090 0.0582
H13 H 0.0899 0.6323 0.0755
C14 C -0.2102(7) 0.8622(8) 0.0830(3)
H14 H -0.2081 0.8740 0.0404
H15 H -0.2223 0.9527 0.1018
H16 H -0.2984 0.8025 0.0938
S1C S -0.0225(3) 1.2404(2) 0.10256(8)
Ni1C Ni 0.65427(9) 1.44867(7) -0.04285(3)
loop_
_geom_bond_atom_site_label_1
_geom_bond_atom_site_label_2
_geom_bond_site_symmetry_1
_geom_bond_site_symmetry_2
Ni1 N1 1_555 1_555
O1 N4 1_555 1_555
N1 C1 1_555 1_555
C1 S1 1_555 1_555
S1 Ni1C 1_555 1_555
N2 Ni1 1_555 1_555
C2 N2 1_555 1_555
S2 C2 1_555 1_555
N3 Ni1 1_555 1_555
N4 C8 1_555 1_555
N5 Ni1 1_555 1_555
C3 N5 1_555 1_555
H1 C3 1_555 1_555
C4 C3 1_555 1_555
H2 C4 1_555 1_555
C5 C4 1_555 1_555
H3 C5 1_555 1_555
C6 C5 1_555 1_555
H4 C6 1_555 1_555
C7 N5 1_555 1_555
C8 N3 1_555 1_555
C9 N4 1_555 1_555
C10 C9 1_555 1_555
H5 C10 1_555 1_555
H6 C10 1_555 1_555
H7 C10 1_555 1_555
C11 C9 1_555 1_555
H8 C11 1_555 1_555
H9 C11 1_555 1_555
H10 C11 1_555 1_555
C12 N3 1_555 1_555
C13 C12 1_555 1_555
H11 C13 1_555 1_555
H12 C13 1_555 1_555
H13 C13 1_555 1_555
C14 C12 1_555 1_555
H14 C14 1_555 1_555
H15 C14 1_555 1_555
H16 C14 1_555 1_555
S1C Ni1 1_555 1_555
C6 C7 1_555 1_555
C7 C8 1_555 1_555
C9 C12 1_555 1_555

#END
