
#######################################################################
#
#                 Cambridge Crystallographic Data Centre
#                                CCDC 
#
#######################################################################
#
# If this CIF has been generated from an entry in the Cambridge 
# Structural Database, then it will include bibliographic, chemical, 
# crystal, experimental, refinement or atomic coordinate data resulting 
# from the CCDC's data processing and validation procedures.
#
#######################################################################

data_IWOQER
_symmetry_cell_setting           monoclinic
_symmetry_space_group_name_H-M   'C 2'
_symmetry_Int_Tables_number      5
_space_group_name_Hall           'C 2y'
loop_
_symmetry_equiv_pos_site_id
_symmetry_equiv_pos_as_xyz
1 x,y,z
2 -x,y,-z
3 1/2+x,1/2+y,z
4 1/2-x,1/2+y,-z
_cell_length_a                   28.9533(7)
_cell_length_b                   13.0045(3)
_cell_length_c                   26.7340(8)
_cell_angle_alpha                90
_cell_angle_beta                 90.526(2)
_cell_angle_gamma                90
_cell_volume                     10065.5
loop_
_atom_site_label
_atom_site_type_symbol
_atom_site_fract_x
_atom_site_fract_y
_atom_site_fract_z
N1 N 0.30418(14) 0.4663(3) 0.18962(17)
C1 C 0.27354(17) 0.4060(4) 0.2130(2)
H1 H 0.2630 0.3459 0.1963
C2 C 0.25660(17) 0.4266(4) 0.2598(2)
H2 H 0.2353 0.3801 0.2744
N2 N 0.26943(14) 0.5112(3) 0.28553(17)
C3 C 0.30023(17) 0.5712(4) 0.2625(2)
H3 H 0.3104 0.6321 0.2788
C4 C 0.31790(17) 0.5483(4) 0.2159(2)
H4 H 0.3406 0.5924 0.2021
Fe1 Fe 0.24478(2) 0.55093(5) 0.36360(3)
O1 O 0.26593(11) 0.6962(3) 0.35614(14)
C5 C 0.30326(17) 0.7451(5) 0.3690(2)
C6 C 0.30479(19) 0.8532(5) 0.3631(2)
H5 H 0.2785 0.8884 0.3502
C7 C 0.34449(18) 0.9091(5) 0.3759(2)
H6 H 0.3446 0.9816 0.3718
C8 C 0.3839(2) 0.8601(5) 0.3947(2)
H7 H 0.4109 0.8980 0.4032
C9 C 0.38237(18) 0.7572(5) 0.4002(2)
H8 H 0.4092 0.7233 0.4126
C10 C 0.34346(18) 0.6971(5) 0.3887(2)
C11 C 0.34612(18) 0.5862(4) 0.3979(2)
H9 H 0.3747 0.5604 0.4103
N3 N 0.31349(14) 0.5205(4) 0.39093(17)
C12 C 0.32286(18) 0.4101(4) 0.4036(2)
H10 H 0.2942 0.3821 0.4192
C13 C 0.36306(18) 0.3896(5) 0.4408(2)
H11 H 0.3617 0.3180 0.4522
H12 H 0.3604 0.4358 0.4695
H13 H 0.3925 0.4018 0.4241
C14 C 0.33038(18) 0.3503(5) 0.3553(2)
C15 C 0.30708(18) 0.2582(5) 0.3466(2)
H14 H 0.2856 0.2338 0.3705
C16 C 0.31469(19) 0.2016(5) 0.3036(2)
H15 H 0.2990 0.1382 0.2986
C17 C 0.34541(18) 0.2373(5) 0.2674(2)
H16 H 0.3497 0.2000 0.2373
C18 C 0.36944(18) 0.3277(4) 0.2762(2)
H17 H 0.3909 0.3516 0.2521
C19 C 0.36254(18) 0.3842(5) 0.3201(2)
H18 H 0.3796 0.4454 0.3260
O2 O 0.21696(11) 0.4115(3) 0.36157(14)
C20 C 0.19496(17) 0.3544(4) 0.3934(2)
C21 C 0.17728(17) 0.2582(4) 0.3782(2)
H19 H 0.1812 0.2365 0.3446
C22 C 0.15434(18) 0.1945(4) 0.4113(2)
H20 H 0.1424 0.1306 0.3999
C23 C 0.14856(18) 0.2225(4) 0.4607(2)
H21 H 0.1336 0.1772 0.4832
C24 C 0.16476(18) 0.3176(4) 0.4772(2)
H22 H 0.1607 0.3372 0.5111
C25 C 0.18720(17) 0.3850(4) 0.4439(2)
C26 C 0.20080(16) 0.4842(4) 0.4644(2)
H23 H 0.1957 0.4943 0.4991
N4 N 0.21883(13) 0.5586(4) 0.44083(16)
C27 C 0.22857(18) 0.6558(4) 0.4683(2)
H24 H 0.2599 0.6790 0.4578
C28 C 0.22979(19) 0.6487(4) 0.5249(2)
H25 H 0.2501 0.5920 0.5352
H26 H 0.1985 0.6362 0.5373
H27 H 0.2416 0.7134 0.5389
C29 C 0.19480(17) 0.7376(4) 0.4509(2)
C30 C 0.21013(19) 0.8370(4) 0.4401(2)
H28 H 0.2420 0.8527 0.4437
C31 C 0.18013(19) 0.9124(5) 0.4244(2)
H29 H 0.1914 0.9791 0.4167
C32 C 0.13307(19) 0.8911(4) 0.4197(2)
H30 H 0.1122 0.9427 0.4084
C33 C 0.11713(19) 0.7944(4) 0.4319(2)
H31 H 0.0850 0.7800 0.4301
C34 C 0.14750(18) 0.7184(4) 0.4466(2)
H32 H 0.1360 0.6517 0.4540
N5 N 0.17897(14) 0.6098(3) 0.32619(17)
C35 C 0.15091(16) 0.5466(5) 0.3007(2)
H33 H 0.1567 0.4747 0.3013
C36 C 0.11365(17) 0.5836(4) 0.2735(2)
H34 H 0.0952 0.5362 0.2551
N6 N 0.10251(14) 0.6834(4) 0.27186(18)
C37 C 0.13018(16) 0.7468(5) 0.2983(2)
H35 H 0.1234 0.8182 0.2990
C38 C 0.16816(17) 0.7104(4) 0.3245(2)
H36 H 0.1873 0.7580 0.3418
Fe2 Fe 0.03920(3) 0.74277(7) 0.23211(3)
O3 O 0.02039(13) 0.6025(3) 0.21388(16)
C39 C 0.0279(2) 0.5410(5) 0.1760(3)
C40 C 0.0078(2) 0.4440(5) 0.1746(3)
H37 H -0.0119 0.4241 0.2011
C41 C 0.0153(3) 0.3763(6) 0.1367(3)
H38 H 0.0002 0.3115 0.1364
C42 C 0.0455(3) 0.4031(6) 0.0980(3)
H39 H 0.0517 0.3546 0.0723
C43 C 0.0662(3) 0.4972(6) 0.0965(3)
H40 H 0.0860 0.5144 0.0697
C44 C 0.0579(2) 0.5709(6) 0.1358(3)
C45 C 0.0791(2) 0.6693(5) 0.1303(3)
H41 H 0.0974 0.6780 0.1013
N7 N 0.07675(16) 0.7476(4) 0.15949(19)
C46 C 0.1027(2) 0.8411(5) 0.1424(3)
H42 H 0.1190 0.8211 0.1110
C47 C 0.1398(2) 0.8725(6) 0.1798(3)
H43 H 0.1607 0.8145 0.1858
H44 H 0.1253 0.8926 0.2113
H45 H 0.1573 0.9307 0.1665
C48 C 0.06927(19) 0.9285(5) 0.1282(2)
C49 C 0.03608(18) 0.9122(5) 0.0916(2)
H46 H 0.0331 0.8461 0.0768
C50 C 0.0068(2) 0.9919(5) 0.0760(2)
H47 H -0.0159 0.9800 0.0509
C51 C 0.0114(2) 1.0881(5) 0.0976(2)
H48 H -0.0087 1.1427 0.0881
C52 C 0.0456(2) 1.1034(5) 0.1332(3)
H49 H 0.0496 1.1700 0.1472
C53 C 0.0740(2) 1.0253(5) 0.1489(3)
H50 H 0.0969 1.0376 0.1739
O4 O 0.05629(13) 0.8838(3) 0.25267(16)
C54 C 0.0456(2) 0.9416(5) 0.2901(3)
C55 C 0.0683(2) 1.0385(5) 0.2957(3)
H51 H 0.0916 1.0585 0.2729
C56 C 0.0560(3) 1.1048(6) 0.3355(3)
H52 H 0.0716 1.1687 0.3391
C57 C 0.0253(3) 1.0821(5) 0.3661(3)
H53 H 0.0177 1.1295 0.3918
C58 C 0.0013(3) 0.9866(5) 0.3633(3)
H54 H -0.0226 0.9712 0.3863
C59 C 0.0131(2) 0.9164(5) 0.3265(3)
C60 C -0.0088(2) 0.8145(5) 0.3299(2)
H55 H -0.0308 0.8058 0.3556
N8 N -0.00148(15) 0.7366(4) 0.30203(18)
C61 C -0.02665(19) 0.6402(5) 0.3140(2)
H56 H -0.0402 0.6143 0.2818
C62 C -0.06602(19) 0.6468(5) 0.3510(3)
H57 H -0.0890 0.6965 0.3390
H58 H -0.0539 0.6690 0.3837
H59 H -0.0805 0.5791 0.3544
C63 C 0.00679(19) 0.5583(5) 0.3325(2)
C64 C -0.0013(2) 0.4569(5) 0.3204(3)
H60 H -0.0257 0.4408 0.2977
C65 C 0.0251(2) 0.3779(5) 0.3402(3)
H61 H 0.0188 0.3087 0.3309
C66 C 0.0611(2) 0.4000(5) 0.3737(3)
H62 H 0.0792 0.3465 0.3879
C67 C 0.0695(2) 0.5021(5) 0.3857(2)
H63 H 0.0940 0.5188 0.4083
C68 C 0.04284(19) 0.5797(5) 0.3653(2)
H64 H 0.0493 0.6491 0.3739
N9 N -0.02512(14) 0.8027(4) 0.19362(18)
C69 C -0.03388(17) 0.9034(4) 0.1889(2)
H65 H -0.0125 0.9520 0.2021
C70 C -0.07357(16) 0.9373(5) 0.1651(2)
H66 H -0.0790 1.0093 0.1633
N10 N -0.10470(14) 0.8739(3) 0.14454(17)
C71 C -0.09535(17) 0.7740(4) 0.1488(2)
H67 H -0.1164 0.7258 0.1348
C72 C -0.05618(16) 0.7379(5) 0.1729(2)
H68 H -0.0510 0.6658 0.1748
Fe3 Fe 0.32834(2) 0.43339(6) 0.10881(3)
O5 O 0.35335(12) 0.5736(3) 0.11670(14)
C73 C 0.37829(18) 0.6373(4) 0.0896(2)
C74 C 0.38940(18) 0.7340(4) 0.1102(2)
H69 H 0.3797 0.7508 0.1430
C75 C 0.41429(19) 0.8047(5) 0.0827(2)
H70 H 0.4211 0.8700 0.0970
C76 C 0.4298(2) 0.7822(5) 0.0340(2)
H71 H 0.4471 0.8311 0.0155
C77 C 0.41913(19) 0.6871(4) 0.0141(2)
H72 H 0.4291 0.6708 -0.0188
C78 C 0.39377(18) 0.6132(4) 0.0413(2)
C79 C 0.38603(17) 0.5148(4) 0.0173(2)
H73 H 0.3992 0.5062 -0.0148
N11 N 0.36342(14) 0.4379(4) 0.03451(17)
C80 C 0.36176(18) 0.3490(4) -0.0012(2)
H74 H 0.3792 0.3701 -0.0317
C81 C 0.31129(18) 0.3315(5) -0.0178(2)
H75 H 0.2991 0.3946 -0.0330
H76 H 0.2927 0.3134 0.0114
H77 H 0.3099 0.2755 -0.0423
C82 C 0.38572(18) 0.2538(5) 0.0199(2)
C83 C 0.3635(2) 0.1614(5) 0.0289(2)
H78 H 0.3311 0.1560 0.0230
C84 C 0.3878(2) 0.0768(5) 0.0462(2)
H79 H 0.3720 0.0141 0.0522
C85 C 0.4349(2) 0.0822(5) 0.0549(2)
H80 H 0.4514 0.0239 0.0669
C86 C 0.4577(2) 0.1745(5) 0.0459(2)
H81 H 0.4900 0.1796 0.0519
C87 C 0.43298(19) 0.2599(5) 0.0280(2)
H82 H 0.4488 0.3224 0.0213
O6 O 0.30837(11) 0.2874(3) 0.11448(15)
N12 N 0.25549(15) 0.4619(4) 0.08418(18)
C88 C 0.27024(17) 0.2359(5) 0.1077(2)
C89 C 0.26965(19) 0.1285(5) 0.1167(2)
H83 H 0.2974 0.0956 0.1273
C90 C 0.23040(18) 0.0704(5) 0.1106(2)
H84 H 0.2311 -0.0012 0.1177
C91 C 0.1889(2) 0.1173(5) 0.0939(2)
H85 H 0.1616 0.0777 0.0890
C92 C 0.18885(18) 0.2212(5) 0.0848(2)
H86 H 0.1611 0.2527 0.0735
C93 C 0.22824(18) 0.2828(5) 0.0917(2)
C94 C 0.22441(18) 0.3906(5) 0.0811(2)
H87 H 0.1947 0.4130 0.0703
C95 C 0.24035(18) 0.5676(5) 0.0705(2)
H88 H 0.2071 0.5629 0.0603
C96 C 0.26645(19) 0.6019(5) 0.0253(2)
H89 H 0.2617 0.5523 -0.0019
H90 H 0.2994 0.6063 0.0335
H91 H 0.2552 0.6696 0.0146
C97 C 0.24266(19) 0.6368(5) 0.1159(2)
C98 C 0.2164(2) 0.6131(5) 0.1578(2)
H92 H 0.1965 0.5550 0.1573
C99 C 0.2193(2) 0.6737(5) 0.1999(3)
H93 H 0.2018 0.6556 0.2284
C100 C 0.2467(2) 0.7596(5) 0.2019(3)
H94 H 0.2485 0.8002 0.2314
C101 C 0.2717(2) 0.7857(5) 0.1599(3)
H95 H 0.2900 0.8463 0.1601
C102 C 0.27034(19) 0.7250(5) 0.1177(3)
H96 H 0.2884 0.7431 0.0895
N10B N 0.39530(14) 0.3739(3) 0.14454(17)
Fe3B Fe -0.17166(2) 0.93339(6) 0.10881(3)
C103 C 0.1071(3) 1.2984(6) 0.2334(3)
H97 H 0.1012 1.3568 0.2111
H98 H 0.1106 1.3231 0.2679
H99 H 0.0810 1.2503 0.2315
C104 C 0.1510(2) 1.2440(6) 0.2177(3)
H100 H 0.1463 1.2111 0.1846
H101 H 0.1765 1.2942 0.2150
O7 O 0.16220(16) 1.1680(4) 0.25425(19)
C105 C 0.1999(3) 1.1101(6) 0.2456(3)
H102 H 0.2274 1.1553 0.2443
H103 H 0.1965 1.0764 0.2126
C106 C 0.2076(2) 1.0303(6) 0.2842(3)
H104 H 0.2350 0.9897 0.2758
H105 H 0.1806 0.9851 0.2857
H106 H 0.2124 1.0633 0.3168
C107 C -0.1305(3) 0.4685(7) 0.2101(3)
H107 H -0.1600 0.5025 0.2167
H108 H -0.1297 0.4461 0.1751
H109 H -0.1051 0.5168 0.2165
C108 C -0.1253(3) 0.3769(7) 0.2438(3)
H110 H -0.1237 0.3997 0.2791
H111 H -0.1523 0.3310 0.2397
O8 O -0.08413(17) 0.3226(4) 0.2314(2)
C109 C -0.0777(3) 0.2336(7) 0.2609(3)
H112 H -0.1048 0.1875 0.2576
H113 H -0.0738 0.2524 0.2966
C110 C -0.0352(3) 0.1813(6) 0.2420(3)
H114 H -0.0283 0.1212 0.2629
H115 H -0.0091 0.2293 0.2435
H116 H -0.0403 0.1593 0.2074
loop_
_geom_bond_atom_site_label_1
_geom_bond_atom_site_label_2
_geom_bond_site_symmetry_1
_geom_bond_site_symmetry_2
N1 C1 1_555 1_555
C1 H1 1_555 1_555
C2 C1 1_555 1_555
H2 C2 1_555 1_555
N2 C2 1_555 1_555
C3 N2 1_555 1_555
H3 C3 1_555 1_555
C4 N1 1_555 1_555
H4 C4 1_555 1_555
Fe1 N2 1_555 1_555
O1 Fe1 1_555 1_555
C5 O1 1_555 1_555
C6 C5 1_555 1_555
H5 C6 1_555 1_555
C7 C6 1_555 1_555
H6 C7 1_555 1_555
C8 C7 1_555 1_555
H7 C8 1_555 1_555
C9 C8 1_555 1_555
H8 C9 1_555 1_555
C10 C5 1_555 1_555
C11 C10 1_555 1_555
H9 C11 1_555 1_555
N3 Fe1 1_555 1_555
C12 N3 1_555 1_555
H10 C12 1_555 1_555
C13 C12 1_555 1_555
H11 C13 1_555 1_555
H12 C13 1_555 1_555
H13 C13 1_555 1_555
C14 C12 1_555 1_555
C15 C14 1_555 1_555
H14 C15 1_555 1_555
C16 C15 1_555 1_555
H15 C16 1_555 1_555
C17 C16 1_555 1_555
H16 C17 1_555 1_555
C18 C17 1_555 1_555
H17 C18 1_555 1_555
C19 C14 1_555 1_555
H18 C19 1_555 1_555
O2 Fe1 1_555 1_555
C20 O2 1_555 1_555
C21 C20 1_555 1_555
H19 C21 1_555 1_555
C22 C21 1_555 1_555
H20 C22 1_555 1_555
C23 C22 1_555 1_555
H21 C23 1_555 1_555
C24 C23 1_555 1_555
H22 C24 1_555 1_555
C25 C20 1_555 1_555
C26 C25 1_555 1_555
H23 C26 1_555 1_555
N4 Fe1 1_555 1_555
C27 N4 1_555 1_555
H24 C27 1_555 1_555
C28 C27 1_555 1_555
H25 C28 1_555 1_555
H26 C28 1_555 1_555
H27 C28 1_555 1_555
C29 C27 1_555 1_555
C30 C29 1_555 1_555
H28 C30 1_555 1_555
C31 C30 1_555 1_555
H29 C31 1_555 1_555
C32 C31 1_555 1_555
H30 C32 1_555 1_555
C33 C32 1_555 1_555
H31 C33 1_555 1_555
C34 C29 1_555 1_555
H32 C34 1_555 1_555
N5 Fe1 1_555 1_555
C35 N5 1_555 1_555
H33 C35 1_555 1_555
C36 C35 1_555 1_555
H34 C36 1_555 1_555
N6 C36 1_555 1_555
C37 N6 1_555 1_555
H35 C37 1_555 1_555
C38 N5 1_555 1_555
H36 C38 1_555 1_555
Fe2 N6 1_555 1_555
O3 Fe2 1_555 1_555
C39 O3 1_555 1_555
C40 C39 1_555 1_555
H37 C40 1_555 1_555
C41 C40 1_555 1_555
H38 C41 1_555 1_555
C42 C41 1_555 1_555
H39 C42 1_555 1_555
C43 C42 1_555 1_555
H40 C43 1_555 1_555
C44 C39 1_555 1_555
C45 C44 1_555 1_555
H41 C45 1_555 1_555
N7 Fe2 1_555 1_555
C46 N7 1_555 1_555
H42 C46 1_555 1_555
C47 C46 1_555 1_555
H43 C47 1_555 1_555
H44 C47 1_555 1_555
H45 C47 1_555 1_555
C48 C46 1_555 1_555
C49 C48 1_555 1_555
H46 C49 1_555 1_555
C50 C49 1_555 1_555
H47 C50 1_555 1_555
C51 C50 1_555 1_555
H48 C51 1_555 1_555
C52 C51 1_555 1_555
H49 C52 1_555 1_555
C53 C48 1_555 1_555
H50 C53 1_555 1_555
O4 Fe2 1_555 1_555
C54 O4 1_555 1_555
C55 C54 1_555 1_555
H51 C55 1_555 1_555
C56 C55 1_555 1_555
H52 C56 1_555 1_555
C57 C56 1_555 1_555
H53 C57 1_555 1_555
C58 C57 1_555 1_555
H54 C58 1_555 1_555
C59 C54 1_555 1_555
C60 C59 1_555 1_555
H55 C60 1_555 1_555
N8 Fe2 1_555 1_555
C61 N8 1_555 1_555
H56 C61 1_555 1_555
C62 C61 1_555 1_555
H57 C62 1_555 1_555
H58 C62 1_555 1_555
H59 C62 1_555 1_555
C63 C61 1_555 1_555
C64 C63 1_555 1_555
H60 C64 1_555 1_555
C65 C64 1_555 1_555
H61 C65 1_555 1_555
C66 C65 1_555 1_555
H62 C66 1_555 1_555
C67 C66 1_555 1_555
H63 C67 1_555 1_555
C68 C63 1_555 1_555
H64 C68 1_555 1_555
N9 Fe2 1_555 1_555
C69 N9 1_555 1_555
H65 C69 1_555 1_555
C70 C69 1_555 1_555
H66 C70 1_555 1_555
N10 C70 1_555 1_555
C71 N10 1_555 1_555
H67 C71 1_555 1_555
C72 N9 1_555 1_555
H68 C72 1_555 1_555
Fe3 N1 1_555 1_555
O5 Fe3 1_555 1_555
C73 O5 1_555 1_555
C74 C73 1_555 1_555
H69 C74 1_555 1_555
C75 C74 1_555 1_555
H70 C75 1_555 1_555
C76 C75 1_555 1_555
H71 C76 1_555 1_555
C77 C76 1_555 1_555
H72 C77 1_555 1_555
C78 C73 1_555 1_555
C79 C78 1_555 1_555
H73 C79 1_555 1_555
N11 Fe3 1_555 1_555
C80 N11 1_555 1_555
H74 C80 1_555 1_555
C81 C80 1_555 1_555
H75 C81 1_555 1_555
H76 C81 1_555 1_555
H77 C81 1_555 1_555
C82 C80 1_555 1_555
C83 C82 1_555 1_555
H78 C83 1_555 1_555
C84 C83 1_555 1_555
H79 C84 1_555 1_555
C85 C84 1_555 1_555
H80 C85 1_555 1_555
C86 C85 1_555 1_555
H81 C86 1_555 1_555
C87 C82 1_555 1_555
H82 C87 1_555 1_555
O6 Fe3 1_555 1_555
N12 Fe3 1_555 1_555
C88 O6 1_555 1_555
C89 C88 1_555 1_555
H83 C89 1_555 1_555
C90 C89 1_555 1_555
H84 C90 1_555 1_555
C91 C90 1_555 1_555
H85 C91 1_555 1_555
C92 C91 1_555 1_555
H86 C92 1_555 1_555
C93 C88 1_555 1_555
C94 N12 1_555 1_555
H87 C94 1_555 1_555
C95 N12 1_555 1_555
H88 C95 1_555 1_555
C96 C95 1_555 1_555
H89 C96 1_555 1_555
H90 C96 1_555 1_555
H91 C96 1_555 1_555
C97 C95 1_555 1_555
C98 C97 1_555 1_555
H92 C98 1_555 1_555
C99 C98 1_555 1_555
H93 C99 1_555 1_555
C100 C99 1_555 1_555
H94 C100 1_555 1_555
C101 C100 1_555 1_555
H95 C101 1_555 1_555
C102 C97 1_555 1_555
H96 C102 1_555 1_555
C103 H97 1_555 1_555
H98 C103 1_555 1_555
H99 C103 1_555 1_555
C104 C103 1_555 1_555
H100 C104 1_555 1_555
H101 C104 1_555 1_555
O7 C104 1_555 1_555
C105 O7 1_555 1_555
H102 C105 1_555 1_555
H103 C105 1_555 1_555
C106 C105 1_555 1_555
H104 C106 1_555 1_555
H105 C106 1_555 1_555
H106 C106 1_555 1_555
C107 H107 1_555 1_555
H108 C107 1_555 1_555
H109 C107 1_555 1_555
C108 C107 1_555 1_555
H110 C108 1_555 1_555
H111 C108 1_555 1_555
O8 C108 1_555 1_555
C109 O8 1_555 1_555
H112 C109 1_555 1_555
H113 C109 1_555 1_555
C110 C109 1_555 1_555
H114 C110 1_555 1_555
H115 C110 1_555 1_555
H116 C110 1_555 1_555
N10B Fe3 1_555 1_555
Fe3B N10 1_555 1_555
C3 C4 1_555 1_555
C9 C10 1_555 1_555
C11 N3 1_555 1_555
C18 C19 1_555 1_555
C24 C25 1_555 1_555
C26 N4 1_555 1_555
C33 C34 1_555 1_555
C37 C38 1_555 1_555
C43 C44 1_555 1_555
C45 N7 1_555 1_555
C52 C53 1_555 1_555
C58 C59 1_555 1_555
C60 N8 1_555 1_555
C67 C68 1_555 1_555
C71 C72 1_555 1_555
C77 C78 1_555 1_555
C79 N11 1_555 1_555
C86 C87 1_555 1_555
C92 C93 1_555 1_555
C93 C94 1_555 1_555
C101 C102 1_555 1_555

#END
