
#######################################################################
#
#                 Cambridge Crystallographic Data Centre
#                                CCDC 
#
#######################################################################
#
# If this CIF has been generated from an entry in the Cambridge 
# Structural Database, then it will include bibliographic, chemical, 
# crystal, experimental, refinement or atomic coordinate data resulting 
# from the CCDC's data processing and validation procedures.
#
#######################################################################

data_IWOQUH
_symmetry_cell_setting           monoclinic
_symmetry_space_group_name_H-M   'P 21'
_symmetry_Int_Tables_number      4
_space_group_name_Hall           'P 2yb'
loop_
_symmetry_equiv_pos_site_id
_symmetry_equiv_pos_as_xyz
1 x,y,z
2 -x,1/2+y,-z
_cell_length_a                   7.3694(6)
_cell_length_b                   19.797(3)
_cell_length_c                   12.1347(18)
_cell_angle_alpha                90
_cell_angle_beta                 102.388(12)
_cell_angle_gamma                90
_cell_volume                     1729.14
loop_
_atom_site_label
_atom_site_type_symbol
_atom_site_fract_x
_atom_site_fract_y
_atom_site_fract_z
Fe1 Fe 0.70039(14) 0.85307(8) 0.11531(10)
O1 O 0.6565(7) 0.9126(3) -0.0214(5)
C1 C 0.6025(11) 0.9008(5) -0.1277(8)
C2 C 0.5648(10) 0.9574(5) -0.2021(7)
H1 H 0.5841 1.0009 -0.1730
C3 C 0.4994(10) 0.9483(5) -0.3179(7)
H2 H 0.4746 0.9857 -0.3652
C4 C 0.4711(12) 0.8830(5) -0.3632(7)
N1 N 0.3954(13) 0.8734(5) -0.4847(7)
O2 O 0.3530(11) 0.9252(4) -0.5409(7)
O3 O 0.3746(11) 0.8156(4) -0.5212(6)
C5 C 0.5066(10) 0.8304(5) -0.2950(7)
H3 H 0.4880 0.7874 -0.3263
C6 C 0.5706(10) 0.8359(5) -0.1782(7)
C7 C 0.5968(11) 0.7748(5) -0.1133(9)
H4 H 0.5795 0.7349 -0.1547
N2 N 0.6414(8) 0.7677(4) -0.0047(6)
C8 C 0.6431(10) 0.6970(4) 0.0434(7)
H5 H 0.7506 0.6935 0.1067
C9 C 0.6566(10) 0.6395(4) -0.0386(7)
H6 H 0.7578 0.6480 -0.0750
H7 H 0.5428 0.6367 -0.0945
H8 H 0.6777 0.5976 0.0020
C10 C 0.4700(10) 0.6882(4) 0.0899(7)
C11 C 0.4859(12) 0.6631(4) 0.2009(7)
H9 H 0.6019 0.6518 0.2442
C12 C 0.3272(15) 0.6554(5) 0.2451(8)
H10 H 0.3360 0.6387 0.3177
C13 C 0.1555(12) 0.6732(5) 0.1785(10)
H11 H 0.0495 0.6698 0.2082
C14 C 0.1399(12) 0.6955(5) 0.0710(9)
H12 H 0.0239 0.7065 0.0273
C15 C 0.2963(11) 0.7019(4) 0.0269(7)
H13 H 0.2838 0.7158 -0.0476
O4 O 0.7573(7) 0.7903(3) 0.2465(5)
C16 C 0.8103(10) 0.7982(5) 0.3561(8)
C17 C 0.8546(10) 0.7395(4) 0.4278(7)
H14 H 0.8438 0.6967 0.3952
C18 C 0.9105(10) 0.7450(5) 0.5398(8)
H15 H 0.9326 0.7062 0.5838
C19 C 0.9356(11) 0.8067(6) 0.5900(7)
N3 N 1.0018(13) 0.8136(5) 0.7113(8)
O5 O 1.0266(10) 0.7612(4) 0.7645(6)
O6 O 1.0337(10) 0.8704(4) 0.7522(5)
C20 C 0.8977(9) 0.8673(5) 0.5262(6)
H16 H 0.9145 0.9092 0.5617
C21 C 0.8345(8) 0.8628(6) 0.4087(6)
C22 C 0.7943(12) 0.9267(5) 0.3470(9)
H17 H 0.8074 0.9663 0.3893
N4 N 0.7434(9) 0.9324(4) 0.2410(6)
C23 C 0.7090(10) 1.0060(4) 0.1968(7)
H18 H 0.6104 1.0032 0.1285
C24 C 0.8816(11) 1.0290(4) 0.1584(7)
H19 H 0.9064 0.9986 0.1017
H20 H 0.9854 1.0293 0.2215
H21 H 0.8622 1.0737 0.1274
C25 C 0.6365(12) 1.0514(4) 0.2759(6)
C26 C 0.7316(11) 1.1070(5) 0.3264(8)
H22 H 0.8463 1.1174 0.3104
C27 C 0.6622(14) 1.1482(5) 0.4005(8)
H23 H 0.7349 1.1833 0.4373
C28 C 0.4894(15) 1.1379(5) 0.4196(8)
H24 H 0.4386 1.1674 0.4645
C29 C 0.3912(13) 1.0822(6) 0.3701(9)
H25 H 0.2766 1.0726 0.3868
C30 C 0.4579(13) 1.0403(5) 0.2966(8)
H26 H 0.3851 1.0049 0.2610
N5 N 1.0134(6) 0.8550(4) 0.1175(4)
C31 C 1.1455(8) 0.8468(6) 0.2092(5)
H27 H 1.1110 0.8402 0.2777
C32 C 1.3292(7) 0.8474(5) 0.2079(5)
H28 H 1.4145 0.8410 0.2756
N6 N 1.3932(6) 0.8567(4) 0.1143(4)
C33 C 1.2612(8) 0.8687(4) 0.0213(5)
H29 H 1.2976 0.8782 -0.0458
C34 C 1.0742(9) 0.8674(5) 0.0210(6)
H30 H 0.9883 0.8751 -0.0460
Fe1_2 Fe 1.70039(14) 0.85307(8) 0.11531(10)
N6_2 N 0.3932(6) 0.8567(4) 0.1143(4)
N7 N 1.067(2) 1.0569(9) 0.6023(13)
C35 C 1.074(2) 1.0403(9) 0.6899(15)
C36 C 1.0659(17) 1.0187(7) 0.7994(11)
H31 H 1.1879 1.0204 0.8471
H32 H 1.0198 0.9733 0.7963
H33 H 0.9842 1.0479 0.8295
loop_
_geom_bond_atom_site_label_1
_geom_bond_atom_site_label_2
_geom_bond_site_symmetry_1
_geom_bond_site_symmetry_2
Fe1 O1 1_555 1_555
O1 C1 1_555 1_555
C1 C2 1_555 1_555
C2 H1 1_555 1_555
C3 C2 1_555 1_555
H2 C3 1_555 1_555
C4 C3 1_555 1_555
N1 C4 1_555 1_555
O2 N1 1_555 1_555
O3 N1 1_555 1_555
C5 C4 1_555 1_555
H3 C5 1_555 1_555
C6 C1 1_555 1_555
C7 C6 1_555 1_555
H4 C7 1_555 1_555
N2 Fe1 1_555 1_555
C8 N2 1_555 1_555
H5 C8 1_555 1_555
C9 C8 1_555 1_555
H6 C9 1_555 1_555
H7 C9 1_555 1_555
H8 C9 1_555 1_555
C10 C8 1_555 1_555
C11 C10 1_555 1_555
H9 C11 1_555 1_555
C12 C11 1_555 1_555
H10 C12 1_555 1_555
C13 C12 1_555 1_555
H11 C13 1_555 1_555
C14 C13 1_555 1_555
H12 C14 1_555 1_555
C15 C10 1_555 1_555
H13 C15 1_555 1_555
O4 Fe1 1_555 1_555
C16 O4 1_555 1_555
C17 C16 1_555 1_555
H14 C17 1_555 1_555
C18 C17 1_555 1_555
H15 C18 1_555 1_555
C19 C18 1_555 1_555
N3 C19 1_555 1_555
O5 N3 1_555 1_555
O6 N3 1_555 1_555
C20 C19 1_555 1_555
H16 C20 1_555 1_555
C21 C16 1_555 1_555
C22 C21 1_555 1_555
H17 C22 1_555 1_555
N4 Fe1 1_555 1_555
C23 N4 1_555 1_555
H18 C23 1_555 1_555
C24 C23 1_555 1_555
H19 C24 1_555 1_555
H20 C24 1_555 1_555
H21 C24 1_555 1_555
C25 C23 1_555 1_555
C26 C25 1_555 1_555
H22 C26 1_555 1_555
C27 C26 1_555 1_555
H23 C27 1_555 1_555
C28 C27 1_555 1_555
H24 C28 1_555 1_555
C29 C28 1_555 1_555
H25 C29 1_555 1_555
C30 C25 1_555 1_555
H26 C30 1_555 1_555
N5 Fe1 1_555 1_555
C31 N5 1_555 1_555
H27 C31 1_555 1_555
C32 C31 1_555 1_555
H28 C32 1_555 1_555
N6 C32 1_555 1_555
C33 N6 1_555 1_555
H29 C33 1_555 1_555
C34 N5 1_555 1_555
H30 C34 1_555 1_555
N7 C35 1_555 1_555
C35 C36 1_555 1_555
C36 H31 1_555 1_555
H32 C36 1_555 1_555
H33 C36 1_555 1_555
Fe1_2 N6 1_555 1_555
N6_2 Fe1 1_555 1_555
C5 C6 1_555 1_555
C7 N2 1_555 1_555
C14 C15 1_555 1_555
C20 C21 1_555 1_555
C22 N4 1_555 1_555
C29 C30 1_555 1_555
C33 C34 1_555 1_555

#END
