
#######################################################################
#
#                 Cambridge Crystallographic Data Centre
#                                CCDC 
#
#######################################################################
#
# If this CIF has been generated from an entry in the Cambridge 
# Structural Database, then it will include bibliographic, chemical, 
# crystal, experimental, refinement or atomic coordinate data resulting 
# from the CCDC's data processing and validation procedures.
#
#######################################################################

data_IWOQOB
_symmetry_cell_setting           monoclinic
_symmetry_space_group_name_H-M   'C 2'
_symmetry_Int_Tables_number      5
_space_group_name_Hall           'C 2y'
loop_
_symmetry_equiv_pos_site_id
_symmetry_equiv_pos_as_xyz
1 x,y,z
2 -x,y,-z
3 1/2+x,1/2+y,z
4 1/2-x,1/2+y,-z
_cell_length_a                   25.4871(8)
_cell_length_b                   21.9537(8)
_cell_length_c                   24.8107(11)
_cell_angle_alpha                90
_cell_angle_beta                 116.882(5)
_cell_angle_gamma                90
_cell_volume                     12382.3
loop_
_atom_site_label
_atom_site_type_symbol
_atom_site_fract_x
_atom_site_fract_y
_atom_site_fract_z
N1 N 1.5000 0.9398(4) 0.5000
C1 C 1.5495(3) 0.9715(4) 0.5260(4)
H1 H 1.5860 0.9504 0.5442
C2 C 1.5497(3) 1.0339(4) 0.5272(4)
H2 H 1.5860 1.0549 0.5479
N2 N 1.5000 1.0658(4) 0.5000
Fe1 Fe 1.5000 1.16958(7) 0.5000
O1 O 1.58427(19) 1.1697(2) 0.5619(3)
C3 C 1.6112(3) 1.1642(4) 0.6181(4)
C4 C 1.6750(3) 1.1613(3) 0.6489(4)
H3 H 1.6962 1.1642 0.6259
C5 C 1.7053(3) 1.1546(3) 0.7101(4)
H4 H 1.7470 1.1518 0.7276
C6 C 1.6785(3) 1.1515(4) 0.7487(4)
C7 C 1.6178(3) 1.1516(3) 0.7229(4)
H5 H 1.5978 1.1478 0.7471
C8 C 1.5835(3) 1.1582(4) 0.6540(4)
C9 C 1.5215(3) 1.1584(3) 0.6345(4)
H6 H 1.5101 1.1528 0.6657
N3 N 1.4811(2) 1.1647(3) 0.5839(3)
C10 C 1.4210(3) 1.1669(4) 0.5809(4)
H7 H 1.4256 1.1598 0.6227
C11 C 1.3800(3) 1.1167(3) 0.5396(3)
H8 H 1.3989 1.0768 0.5526
H9 H 1.3724 1.1242 0.4977
H10 H 1.3427 1.1171 0.5421
C12 C 1.3957(3) 1.2300(4) 0.5617(4)
C13 C 1.3388(3) 1.2452(4) 0.5210(4)
H11 H 1.3134 1.2138 0.4968
C14 C 1.3174(3) 1.3034(4) 0.5140(4)
H12 H 1.2775 1.3116 0.4867
C15 C 1.3555(3) 1.3514(4) 0.5482(4)
H13 H 1.3409 1.3920 0.5421
C16 C 1.4129(3) 1.3407(4) 0.5898(4)
H14 H 1.4387 1.3728 0.6118
C17 C 1.4316(3) 1.2778(4) 0.5980(4)
H15 H 1.4696 1.2681 0.6291
C18 C 1.7105(3) 1.1470(5) 0.8188(4)
C19 C 1.6951(3) 1.2054(4) 0.8461(5)
H16 H 1.7104 1.2005 0.8899
H17 H 1.6523 1.2105 0.8277
H18 H 1.7129 1.2414 0.8377
C20 C 1.6892(3) 1.0974(4) 0.8410(4)
H19 H 1.7069 1.0994 0.8852
H20 H 1.6999 1.0588 0.8288
H21 H 1.6463 1.1001 0.8241
C21 C 1.7755(3) 1.1450(4) 0.8434(4)
H22 H 1.7937 1.1488 0.8875
H23 H 1.7886 1.1788 0.8265
H24 H 1.7872 1.1063 0.8324
N4 N 1.5000 1.2741(4) 0.5000
C22 C 1.5478(3) 1.3058(3) 0.5251(4)
H25 H 1.5841 1.2847 0.5457
C23 C 1.5490(3) 1.3659(4) 0.5238(4)
H26 H 1.5858 1.3863 0.5404
N5 N 1.5000 1.3983(4) 0.5000
Fe2 Fe 1.5000 1.50410(7) 0.5000
O2 O 1.41358(16) 1.5026(2) 0.4734(2)
C24 C 1.3831(2) 1.5036(3) 0.5042(3)
C25 C 1.3204(2) 1.5008(3) 0.4719(3)
H27 H 1.3019 1.4999 0.4290
C26 C 1.2857(2) 1.4993(3) 0.5027(3)
H28 H 1.2441 1.4981 0.4798
C27 C 1.3097(2) 1.4994(3) 0.5644(3)
C28 C 1.3694(2) 1.5052(3) 0.5951(3)
H29 H 1.3870 1.5078 0.6379
C29 C 1.4057(3) 1.5075(3) 0.5669(3)
C30 C 1.4704(2) 1.5137(3) 0.6079(3)
H30 H 1.4819 1.5201 0.6497
N6 N 1.5109(2) 1.5112(3) 0.5918(3)
C31 C 1.5726(2) 1.5181(3) 0.6404(3)
H31 H 1.5958 1.5339 0.6200
C32 C 1.5974(2) 1.4555(3) 0.6641(3)
H32 H 1.5944 1.4298 0.6306
H33 H 1.5750 1.4369 0.6832
H34 H 1.6387 1.4592 0.6940
C33 C 1.5788(3) 1.5654(3) 0.6877(4)
C34 C 1.5915(2) 1.5478(3) 0.7460(3)
H35 H 1.5940 1.5057 0.7557
C35 C 1.6006(2) 1.5919(3) 0.7917(3)
H36 H 1.6093 1.5798 0.8316
C36 C 1.5965(2) 1.6539(3) 0.7757(3)
H37 H 1.6029 1.6846 0.8050
C37 C 1.5833(3) 1.6693(3) 0.7180(3)
H38 H 1.5799 1.7110 0.7070
C38 C 1.5744(2) 1.6245(3) 0.6742(3)
H39 H 1.5651 1.6367 0.6341
C39 C 1.2721(3) 1.4965(4) 0.5987(3)
C40 C 1.2091(2) 1.4827(3) 0.5584(3)
H40 H 1.2062 1.4445 0.5367
H41 H 1.1918 1.5159 0.5292
H42 H 1.1879 1.4786 0.5827
C41 C 1.2776(3) 1.5610(4) 0.6299(4)
H43 H 1.3183 1.5755 0.6462
H44 H 1.2666 1.5570 0.6629
H45 H 1.2513 1.5902 0.6001
C42 C 1.2976(3) 1.4475(3) 0.6486(4)
H46 H 1.3052 1.4101 0.6317
H47 H 1.2693 1.4390 0.6643
H48 H 1.3344 1.4623 0.6815
N7 N 1.5000 1.6070(4) 0.5000
C43 C 1.5486(3) 1.6403(3) 0.5172(3)
H49 H 1.5850 1.6193 0.5307
C44 C 1.5500(3) 1.7047(3) 0.5167(3)
H50 H 1.5862 1.7254 0.5282
N8 N 1.5000 1.7367(4) 0.5000
Fe3 Fe 1.5000 0.83667(7) 0.5000
O3 O 1.5861(2) 0.8369(3) 0.5570(3)
C45 C 1.6151(3) 0.8380(4) 0.6162(4)
C46 C 1.6774(3) 0.8403(4) 0.6417(4)
H51 H 1.6964 0.8414 0.6164
C47 C 1.7101(3) 0.8411(4) 0.7039(4)
H52 H 1.7517 0.8422 0.7201
C48 C 1.6854(3) 0.8402(4) 0.7448(4)
C49 C 1.6223(3) 0.8418(3) 0.7126(4)
H53 H 1.6028 0.8441 0.7374
C50 C 1.5880(3) 0.8407(4) 0.6553(4)
C51 C 1.5249(3) 0.8448(3) 0.6358(4)
H54 H 1.5120 0.8509 0.6658
N9 N 1.4847(2) 0.8405(3) 0.5788(3)
C52 C 1.4223(3) 0.8465(4) 0.5682(4)
H55 H 1.4006 0.8689 0.5292
C53 C 1.4117(3) 0.8808(3) 0.6158(4)
H56 H 1.4219 0.9238 0.6158
H57 H 1.4361 0.8632 0.6557
H58 H 1.3701 0.8774 0.6066
C54 C 1.3956(3) 0.7816(3) 0.5590(4)
C55 C 1.4227(3) 0.7350(3) 0.5962(4)
H59 H 1.4598 0.7413 0.6302
C56 C 1.3967(3) 0.6768(4) 0.5855(4)
H60 H 1.4177 0.6432 0.6097
C57 C 1.3413(3) 0.6693(4) 0.5402(4)
H61 H 1.3225 0.6309 0.5350
C58 C 1.3126(3) 0.7159(4) 0.5023(4)
H62 H 1.2753 0.7095 0.4687
C59 C 1.3389(3) 0.7738(4) 0.5137(4)
H63 H 1.3177 0.8077 0.4901
C60 C 1.7199(3) 0.8384(4) 0.8140(4)
C61 C 1.7091(3) 0.8973(4) 0.8382(4)
H64 H 1.7252 0.8946 0.8822
H65 H 1.6667 0.9051 0.8203
H66 H 1.7284 0.9307 0.8277
C62 C 1.6984(3) 0.7838(3) 0.8355(4)
H67 H 1.7206 0.7805 0.8795
H68 H 1.7041 0.7468 0.8167
H69 H 1.6565 0.7888 0.8242
C63 C 1.7844(3) 0.8314(4) 0.8320(4)
H70 H 1.8066 0.8321 0.8762
H71 H 1.7975 0.8649 0.8149
H72 H 1.7911 0.7925 0.8167
C1A C 1.4505(3) 0.9715(4) 0.4740(4)
H1A H 1.4140 0.9504 0.4558
C2A C 1.4503(3) 1.0339(4) 0.4728(4)
H2A H 1.4140 1.0549 0.4521
O1A O 1.41573(19) 1.1697(2) 0.4381(3)
C3A C 1.3888(3) 1.1642(4) 0.3819(4)
C4A C 1.3250(3) 1.1613(3) 0.3511(4)
H3A H 1.3038 1.1642 0.3741
C5A C 1.2947(3) 1.1546(3) 0.2899(4)
H4A H 1.2530 1.1518 0.2724
C6A C 1.3215(3) 1.1515(4) 0.2513(4)
C7A C 1.3822(3) 1.1516(3) 0.2771(4)
H5A H 1.4022 1.1478 0.2529
C8A C 1.4165(3) 1.1582(4) 0.3460(4)
C9A C 1.4785(3) 1.1584(3) 0.3655(4)
H6A H 1.4899 1.1528 0.3343
N3A N 1.5189(2) 1.1647(3) 0.4161(3)
C10A C 1.5790(3) 1.1669(4) 0.4191(4)
H7A H 1.5744 1.1598 0.3773
C11A C 1.6200(3) 1.1167(3) 0.4604(3)
H8A H 1.6011 1.0768 0.4474
H9A H 1.6276 1.1242 0.5023
H10A H 1.6573 1.1171 0.4579
C12A C 1.6043(3) 1.2300(4) 0.4383(4)
C13A C 1.6612(3) 1.2452(4) 0.4790(4)
H11A H 1.6866 1.2138 0.5032
C14A C 1.6826(3) 1.3034(4) 0.4860(4)
H12A H 1.7225 1.3116 0.5133
C15A C 1.6445(3) 1.3514(4) 0.4518(4)
H13A H 1.6591 1.3920 0.4579
C16A C 1.5871(3) 1.3407(4) 0.4102(4)
H14A H 1.5613 1.3728 0.3882
C17A C 1.5684(3) 1.2778(4) 0.4020(4)
H15A H 1.5304 1.2681 0.3709
C18A C 1.2895(3) 1.1470(5) 0.1812(4)
C19A C 1.3049(3) 1.2054(4) 0.1539(5)
H16A H 1.2896 1.2005 0.1101
H17A H 1.3477 1.2105 0.1723
H18A H 1.2871 1.2414 0.1623
C20A C 1.3108(3) 1.0974(4) 0.1590(4)
H19A H 1.2931 1.0994 0.1148
H20A H 1.3001 1.0588 0.1712
H21A H 1.3537 1.1001 0.1759
C21A C 1.2245(3) 1.1450(4) 0.1566(4)
H22A H 1.2063 1.1488 0.1125
H23A H 1.2114 1.1788 0.1735
H24A H 1.2128 1.1063 0.1676
C22A C 1.4522(3) 1.3058(3) 0.4749(4)
H25A H 1.4159 1.2847 0.4543
C23A C 1.4510(3) 1.3659(4) 0.4762(4)
H26A H 1.4142 1.3863 0.4596
O2A O 1.58642(16) 1.5026(2) 0.5266(2)
C24A C 1.6169(2) 1.5036(3) 0.4958(3)
C25A C 1.6796(2) 1.5008(3) 0.5281(3)
H27A H 1.6981 1.4999 0.5710
C26A C 1.7143(2) 1.4993(3) 0.4973(3)
H28A H 1.7559 1.4981 0.5202
C27A C 1.6903(2) 1.4994(3) 0.4356(3)
C28A C 1.6306(2) 1.5052(3) 0.4049(3)
H29A H 1.6130 1.5078 0.3621
C29A C 1.5943(3) 1.5075(3) 0.4331(3)
C30A C 1.5296(2) 1.5137(3) 0.3921(3)
H30A H 1.5181 1.5201 0.3503
N6A N 1.4891(2) 1.5112(3) 0.4082(3)
C31A C 1.4274(2) 1.5181(3) 0.3596(3)
H31A H 1.4042 1.5339 0.3800
C32A C 1.4026(2) 1.4555(3) 0.3359(3)
H32A H 1.4056 1.4298 0.3694
H33A H 1.4250 1.4369 0.3168
H34A H 1.3613 1.4592 0.3060
C33A C 1.4212(3) 1.5654(3) 0.3123(4)
C34A C 1.4085(2) 1.5478(3) 0.2540(3)
H35A H 1.4060 1.5057 0.2443
C35A C 1.3994(2) 1.5919(3) 0.2083(3)
H36A H 1.3907 1.5798 0.1684
C36A C 1.4035(2) 1.6539(3) 0.2243(3)
H37A H 1.3971 1.6846 0.1950
C37A C 1.4167(3) 1.6693(3) 0.2820(3)
H38A H 1.4201 1.7110 0.2930
C38A C 1.4256(2) 1.6245(3) 0.3258(3)
H39A H 1.4349 1.6367 0.3659
C39A C 1.7279(3) 1.4965(4) 0.4013(3)
C40A C 1.7909(2) 1.4827(3) 0.4416(3)
H40A H 1.7938 1.4445 0.4633
H41A H 1.8082 1.5159 0.4708
H42A H 1.8121 1.4786 0.4173
C41A C 1.7224(3) 1.5610(4) 0.3701(4)
H43A H 1.6817 1.5755 0.3538
H44A H 1.7334 1.5570 0.3371
H45A H 1.7487 1.5902 0.3999
C42A C 1.7024(3) 1.4475(3) 0.3514(4)
H46A H 1.6948 1.4101 0.3683
H47A H 1.7307 1.4390 0.3357
H48A H 1.6656 1.4623 0.3185
C43A C 1.4514(3) 1.6403(3) 0.4828(3)
H49A H 1.4150 1.6193 0.4693
C44A C 1.4500(3) 1.7047(3) 0.4833(3)
H50A H 1.4138 1.7254 0.4718
N8_2 N 1.5000 0.7367(4) 0.5000
Fe3_2 Fe 1.5000 1.83667(7) 0.5000
O3A O 1.4139(2) 0.8369(3) 0.4430(3)
C45A C 1.3849(3) 0.8380(4) 0.3838(4)
C46A C 1.3226(3) 0.8403(4) 0.3583(4)
H51A H 1.3036 0.8414 0.3836
C47A C 1.2899(3) 0.8411(4) 0.2961(4)
H52A H 1.2483 0.8422 0.2799
C48A C 1.3146(3) 0.8402(4) 0.2552(4)
C49A C 1.3777(3) 0.8418(3) 0.2874(4)
H53A H 1.3972 0.8441 0.2626
C50A C 1.4120(3) 0.8407(4) 0.3447(4)
C51A C 1.4751(3) 0.8448(3) 0.3642(4)
H54A H 1.4880 0.8509 0.3342
N9A N 1.5153(2) 0.8405(3) 0.4212(3)
C52A C 1.5777(3) 0.8465(4) 0.4318(4)
H55A H 1.5994 0.8689 0.4708
C53A C 1.5883(3) 0.8808(3) 0.3842(4)
H56A H 1.5781 0.9238 0.3842
H57A H 1.5639 0.8632 0.3443
H58A H 1.6299 0.8774 0.3934
C54A C 1.6044(3) 0.7816(3) 0.4410(4)
C55A C 1.5773(3) 0.7350(3) 0.4038(4)
H59A H 1.5402 0.7413 0.3698
C56A C 1.6033(3) 0.6768(4) 0.4145(4)
H60A H 1.5823 0.6432 0.3903
C57A C 1.6587(3) 0.6693(4) 0.4598(4)
H61A H 1.6775 0.6309 0.4650
C58A C 1.6874(3) 0.7159(4) 0.4977(4)
H62A H 1.7247 0.7095 0.5313
C59A C 1.6611(3) 0.7738(4) 0.4863(4)
H63A H 1.6823 0.8077 0.5099
C60A C 1.2801(3) 0.8384(4) 0.1860(4)
C61A C 1.2909(3) 0.8973(4) 0.1618(4)
H64A H 1.2748 0.8946 0.1178
H65A H 1.3333 0.9051 0.1797
H66A H 1.2716 0.9307 0.1723
C62A C 1.3016(3) 0.7838(3) 0.1645(4)
H67A H 1.2794 0.7805 0.1205
H68A H 1.2959 0.7468 0.1833
H69A H 1.3435 0.7888 0.1758
C63A C 1.2156(3) 0.8314(4) 0.1680(4)
H70A H 1.1934 0.8321 0.1238
H71A H 1.2025 0.8649 0.1851
H72A H 1.2089 0.7925 0.1833
N10 N 1.5000 -0.0760(4) 1.0000
C64 C 1.4549(3) -0.0420(4) 0.9623(4)
H73 H 1.4202 -0.0624 0.9348
C65 C 1.4553(3) 0.0203(3) 0.9606(4)
H74 H 1.4228 0.0415 0.9306
N11 N 1.5000 0.0504(4) 1.0000
Fe4 Fe 1.5000 0.15564(7) 1.0000
O4 O 1.41408(18) 0.1566(2) 0.9466(2)
C66 C 1.3803(3) 0.1526(3) 0.8883(4)
C67 C 1.3197(3) 0.1542(3) 0.8664(3)
H75 H 1.3034 0.1594 0.8938
C68 C 1.2827(3) 0.1483(3) 0.8055(3)
H76 H 1.2415 0.1518 0.7921
C69 C 1.3034(3) 0.1370(3) 0.7614(3)
C70 C 1.3620(2) 0.1382(3) 0.7824(3)
H77 H 1.3781 0.1349 0.7547
C71 C 1.4024(3) 0.1447(3) 0.8481(3)
C72 C 1.4642(3) 0.1427(3) 0.8616(4)
H78 H 1.4726 0.1358 0.8285
N12 N 1.5079(2) 0.1493(3) 0.9130(3)
C73 C 1.5673(2) 0.1478(3) 0.9107(4)
H79 H 1.5586 0.1420 0.8675
C74 C 1.6026(3) 0.0901(3) 0.9468(4)
H80 H 1.5768 0.0543 0.9340
H81 H 1.6165 0.0968 0.9902
H82 H 1.6363 0.0833 0.9386
C75 C 1.5984(3) 0.2070(4) 0.9309(4)
C76 C 1.5672(3) 0.2612(4) 0.9025(4)
H83 H 1.5268 0.2589 0.8744
C77 C 1.5948(3) 0.3165(4) 0.9151(4)
H84 H 1.5744 0.3511 0.8922
C78 C 1.6529(3) 0.3236(4) 0.9613(4)
H85 H 1.6710 0.3624 0.9728
C79 C 1.6817(3) 0.2707(4) 0.9887(4)
H86 H 1.7218 0.2732 1.0178
C80 C 1.6552(3) 0.2144(4) 0.9761(4)
H87 H 1.6763 0.1800 0.9988
C81 C 1.2614(3) 0.1260(3) 0.6940(3)
C82 C 1.2226(3) 0.0702(3) 0.6892(3)
H88 H 1.2473 0.0338 0.7037
H89 H 1.1937 0.0643 0.6469
H90 H 1.2020 0.0771 0.7138
C83 C 1.2192(3) 0.1843(3) 0.6690(4)
H91 H 1.1914 0.1779 0.6265
H92 H 1.2430 0.2206 0.6727
H93 H 1.1974 0.1901 0.6926
C84 C 1.2913(3) 0.1180(4) 0.6554(4)
H94 H 1.3174 0.0825 0.6692
H95 H 1.3145 0.1545 0.6579
H96 H 1.2619 0.1117 0.6134
N13 N 1.5000 0.2596(4) 1.0000
C85 C 1.4503(3) 0.2934(3) 0.9729(4)
H97 H 1.4138 0.2728 0.9521
C86 C 1.4499(3) 0.3549(3) 0.9741(4)
H98 H 1.4135 0.3760 0.9561
N14 N 1.5000 0.3865(4) 1.0000
Fe5 Fe 1.5000 0.49132(7) 1.0000
O5 O 1.58742(16) 0.4921(2) 1.0311(2)
C87 C 1.6214(2) 0.4886(3) 1.0050(3)
C88 C 1.6829(2) 0.4928(3) 1.0388(3)
H99 H 1.6992 0.5006 1.0810
C89 C 1.7195(3) 0.4861(3) 1.0134(3)
H100 H 1.7606 0.4889 1.0389
C90 C 1.7000(2) 0.4749(3) 0.9492(3)
C91 C 1.6397(2) 0.4743(3) 0.9160(3)
H101 H 1.6241 0.4681 0.8736
C92 C 1.5984(3) 0.4824(3) 0.9405(3)
C93 C 1.5367(3) 0.4831(3) 0.8973(3)
H102 H 1.5279 0.4781 0.8560
N15 N 1.4921(2) 0.4898(3) 0.9088(3)
C94 C 1.4345(2) 0.4935(3) 0.8551(3)
H103 H 1.4051 0.5006 0.8708
C95 C 1.4183(3) 0.4331(3) 0.8226(4)
H104 H 1.4219 0.4008 0.8514
H105 H 1.4447 0.4245 0.8047
H106 H 1.3776 0.4347 0.7907
C96 C 1.4295(2) 0.5472(3) 0.8157(3)
C97 C 1.4059(2) 0.6016(3) 0.8260(3)
H107 H 1.3917 0.6025 0.8554
C98 C 1.4035(2) 0.6536(3) 0.7936(3)
H108 H 1.3866 0.6894 0.8005
C99 C 1.4251(2) 0.6552(3) 0.7508(3)
H109 H 1.4240 0.6916 0.7295
C100 C 1.4486(2) 0.6007(3) 0.7405(3)
H110 H 1.4632 0.5999 0.7115
C101 C 1.4504(2) 0.5471(3) 0.7734(3)
H111 H 1.4663 0.5107 0.7661
C102 C 1.7406(3) 0.4674(3) 0.9223(3)
C103 C 1.7137(3) 0.4384(4) 0.8630(4)
H112 H 1.6793 0.4621 0.8356
H113 H 1.7013 0.3970 0.8668
H114 H 1.7423 0.4366 0.8468
C104 C 1.7951(3) 0.4318(3) 0.9650(3)
H115 H 1.7832 0.3926 0.9749
H116 H 1.8168 0.4553 1.0022
H117 H 1.8204 0.4247 0.9454
C105 C 1.7621(3) 0.5305(3) 0.9127(4)
H118 H 1.7281 0.5559 0.8878
H119 H 1.7869 0.5253 0.8922
H120 H 1.7849 0.5501 0.9519
N16 N 1.5000 0.5932(4) 1.0000
C106 C 1.4496(3) 0.6247(4) 0.9757(3)
H121 H 1.4133 0.6031 0.9578
C107 C 1.4487(3) 0.6905(3) 0.9761(4)
H122 H 1.4120 0.7112 0.9595
N17 N 1.5000 0.7239(4) 1.0000
Fe6 Fe 1.5000 -0.17741(6) 1.0000
O6 O 1.4141(2) -0.1777(2) 0.9448(3)
C108 C 1.3842(3) -0.1768(4) 0.8850(4)
C109 C 1.3224(3) -0.1819(3) 0.8571(4)
H123 H 1.3026 -0.1878 0.8812
C110 C 1.2887(3) -0.1783(3) 0.7921(4)
H124 H 1.2470 -0.1807 0.7749
C111 C 1.3134(3) -0.1717(4) 0.7552(4)
C112 C 1.3749(3) -0.1681(3) 0.7808(4)
H125 H 1.3931 -0.1635 0.7550
C113 C 1.4098(3) -0.1712(4) 0.8431(4)
C114 C 1.4727(3) -0.1689(3) 0.8658(4)
H126 H 1.4861 -0.1641 0.8360
N18 N 1.5149(2) -0.1727(3) 0.9226(3)
C115 C 1.5760(3) -0.1730(3) 0.9324(4)
H127 H 1.6006 -0.1549 0.9731
C116 C 1.5891(3) -0.1374(3) 0.8866(4)
H128 H 1.5760 -0.0952 0.8847
H129 H 1.5683 -0.1563 0.8466
H130 H 1.6315 -0.1381 0.8993
C117 C 1.5962(3) -0.2389(3) 0.9341(4)
C118 C 1.5604(3) -0.2867(3) 0.9012(4)
H131 H 1.5205 -0.2788 0.8737
C119 C 1.5814(3) -0.3448(4) 0.9075(4)
H132 H 1.5554 -0.3763 0.8842
C120 C 1.6388(3) -0.3595(4) 0.9463(4)
H133 H 1.6530 -0.4000 0.9494
C121 C 1.6744(3) -0.3134(4) 0.9801(4)
H134 H 1.7139 -0.3226 1.0081
C122 C 1.6547(3) -0.2521(4) 0.9751(4)
H135 H 1.6804 -0.2209 0.9990
C123 C 1.2780(3) -0.1690(3) 0.6880(4)
C124 C 1.2125(3) -0.1762(3) 0.6653(4)
H136 H 1.1983 -0.1456 0.6843
H137 H 1.2041 -0.2170 0.6754
H138 H 1.1925 -0.1707 0.6213
C125 C 1.2889(3) -0.1075(4) 0.6626(4)
H139 H 1.2781 -0.0734 0.6811
H140 H 1.2648 -0.1064 0.6187
H141 H 1.3305 -0.1043 0.6722
C126 C 1.2965(3) -0.2236(4) 0.6569(4)
H142 H 1.3380 -0.2193 0.6663
H143 H 1.2722 -0.2221 0.6130
H144 H 1.2906 -0.2627 0.6724
C64A C 1.5451(3) -0.0420(4) 1.0377(4)
H73A H 1.5798 -0.0624 1.0652
C65A C 1.5447(3) 0.0203(3) 1.0394(4)
H74A H 1.5772 0.0415 1.0694
O4A O 1.58592(18) 0.1566(2) 1.0534(2)
C66A C 1.6197(3) 0.1526(3) 1.1117(4)
C67A C 1.6803(3) 0.1542(3) 1.1336(3)
H75A H 1.6966 0.1594 1.1062
C68A C 1.7173(3) 0.1483(3) 1.1945(3)
H76A H 1.7585 0.1518 1.2079
C69A C 1.6966(3) 0.1370(3) 1.2386(3)
C70A C 1.6380(2) 0.1382(3) 1.2176(3)
H77A H 1.6219 0.1349 1.2453
C71A C 1.5976(3) 0.1447(3) 1.1519(3)
C72A C 1.5358(3) 0.1427(3) 1.1384(4)
H78A H 1.5274 0.1358 1.1715
N12A N 1.4921(2) 0.1493(3) 1.0870(3)
C73A C 1.4327(2) 0.1478(3) 1.0893(4)
H79A H 1.4414 0.1420 1.1325
C74A C 1.3974(3) 0.0901(3) 1.0532(4)
H80A H 1.4232 0.0543 1.0660
H81A H 1.3835 0.0968 1.0098
H82A H 1.3637 0.0833 1.0614
C75A C 1.4016(3) 0.2070(4) 1.0691(4)
C76A C 1.4328(3) 0.2612(4) 1.0975(4)
H83A H 1.4732 0.2589 1.1256
C77A C 1.4052(3) 0.3165(4) 1.0849(4)
H84A H 1.4256 0.3511 1.1078
C78A C 1.3471(3) 0.3236(4) 1.0387(4)
H85A H 1.3290 0.3624 1.0272
C79A C 1.3183(3) 0.2707(4) 1.0113(4)
H86A H 1.2782 0.2732 0.9822
C80A C 1.3448(3) 0.2144(4) 1.0239(4)
H87A H 1.3237 0.1800 1.0012
C81A C 1.7386(3) 0.1260(3) 1.3060(3)
C82A C 1.7774(3) 0.0702(3) 1.3108(3)
H88A H 1.7527 0.0338 1.2963
H89A H 1.8063 0.0643 1.3531
H90A H 1.7980 0.0771 1.2862
C83A C 1.7808(3) 0.1843(3) 1.3310(4)
H91A H 1.8086 0.1779 1.3735
H92A H 1.7570 0.2206 1.3273
H93A H 1.8026 0.1901 1.3074
C84A C 1.7087(3) 0.1180(4) 1.3446(4)
H94A H 1.6826 0.0825 1.3308
H95A H 1.6855 0.1545 1.3421
H96A H 1.7381 0.1117 1.3866
C85A C 1.5497(3) 0.2934(3) 1.0271(4)
H97A H 1.5862 0.2728 1.0479
C86A C 1.5501(3) 0.3549(3) 1.0259(4)
H98A H 1.5865 0.3760 1.0439
O5A O 1.41258(16) 0.4921(2) 0.9689(2)
C87A C 1.3786(2) 0.4886(3) 0.9950(3)
C88A C 1.3171(2) 0.4928(3) 0.9612(3)
H99A H 1.3008 0.5006 0.9190
C89A C 1.2805(3) 0.4861(3) 0.9866(3)
H100A H 1.2394 0.4889 0.9611
C90A C 1.3000(2) 0.4749(3) 1.0508(3)
C91A C 1.3603(2) 0.4743(3) 1.0840(3)
H101A H 1.3759 0.4681 1.1264
C92A C 1.4016(3) 0.4824(3) 1.0595(3)
C93A C 1.4633(3) 0.4831(3) 1.1027(3)
H102A H 1.4721 0.4781 1.1440
N15A N 1.5079(2) 0.4898(3) 1.0912(3)
C94A C 1.5655(2) 0.4935(3) 1.1449(3)
H103A H 1.5949 0.5006 1.1292
C95A C 1.5817(3) 0.4331(3) 1.1774(4)
H104A H 1.5781 0.4008 1.1486
H105A H 1.5553 0.4245 1.1953
H106A H 1.6224 0.4347 1.2093
C96A C 1.5705(2) 0.5472(3) 1.1843(3)
C97A C 1.5941(2) 0.6016(3) 1.1740(3)
H107A H 1.6083 0.6025 1.1446
C98A C 1.5965(2) 0.6536(3) 1.2064(3)
H108A H 1.6134 0.6894 1.1995
C99A C 1.5749(2) 0.6552(3) 1.2492(3)
H109A H 1.5760 0.6916 1.2705
C100A C 1.5514(2) 0.6007(3) 1.2595(3)
H110A H 1.5368 0.5999 1.2885
C101A C 1.5496(2) 0.5471(3) 1.2266(3)
H111A H 1.5337 0.5107 1.2339
C102A C 1.2594(3) 0.4674(3) 1.0777(3)
C103A C 1.2863(3) 0.4384(4) 1.1370(4)
H112A H 1.3207 0.4621 1.1644
H113A H 1.2987 0.3970 1.1332
H114A H 1.2577 0.4366 1.1532
C104A C 1.2049(3) 0.4318(3) 1.0350(3)
H115A H 1.2168 0.3926 1.0251
H116A H 1.1832 0.4553 0.9978
H117A H 1.1796 0.4247 1.0546
C105A C 1.2379(3) 0.5305(3) 1.0873(4)
H118A H 1.2719 0.5559 1.1122
H119A H 1.2131 0.5253 1.1078
H120A H 1.2151 0.5501 1.0481
C106A C 1.5504(3) 0.6247(4) 1.0243(3)
H121A H 1.5867 0.6031 1.0422
C107A C 1.5513(3) 0.6905(3) 1.0239(4)
H122A H 1.5880 0.7112 1.0405
N17_2 N 1.5000 -0.2761(4) 1.0000
Fe6_2 Fe 1.5000 0.82259(6) 1.0000
O6A O 1.5859(2) -0.1777(2) 1.0552(3)
C108A C 1.6158(3) -0.1768(4) 1.1150(4)
C109A C 1.6776(3) -0.1819(3) 1.1429(4)
H123A H 1.6974 -0.1878 1.1188
C110A C 1.7113(3) -0.1783(3) 1.2079(4)
H124A H 1.7530 -0.1807 1.2251
C111A C 1.6866(3) -0.1717(4) 1.2448(4)
C112A C 1.6251(3) -0.1681(3) 1.2192(4)
H125A H 1.6069 -0.1635 1.2450
C113A C 1.5902(3) -0.1712(4) 1.1569(4)
C114A C 1.5273(3) -0.1689(3) 1.1342(4)
H126A H 1.5139 -0.1641 1.1640
N18A N 1.4851(2) -0.1727(3) 1.0774(3)
C115A C 1.4240(3) -0.1730(3) 1.0676(4)
H127A H 1.3994 -0.1549 1.0269
C116A C 1.4109(3) -0.1374(3) 1.1134(4)
H128A H 1.4240 -0.0952 1.1153
H129A H 1.4317 -0.1563 1.1534
H130A H 1.3685 -0.1381 1.1007
C117A C 1.4038(3) -0.2389(3) 1.0659(4)
C118A C 1.4396(3) -0.2867(3) 1.0988(4)
H131A H 1.4795 -0.2788 1.1263
C119A C 1.4186(3) -0.3448(4) 1.0925(4)
H132A H 1.4446 -0.3763 1.1158
C120A C 1.3612(3) -0.3595(4) 1.0537(4)
H133A H 1.3470 -0.4000 1.0506
C121A C 1.3256(3) -0.3134(4) 1.0199(4)
H134A H 1.2861 -0.3226 0.9919
C122A C 1.3453(3) -0.2521(4) 1.0249(4)
H135A H 1.3196 -0.2209 1.0010
C123A C 1.7220(3) -0.1690(3) 1.3120(4)
C124A C 1.7875(3) -0.1762(3) 1.3347(4)
H136A H 1.8017 -0.1456 1.3157
H137A H 1.7959 -0.2170 1.3246
H138A H 1.8075 -0.1707 1.3787
C125A C 1.7111(3) -0.1075(4) 1.3374(4)
H139A H 1.7219 -0.0734 1.3189
H140A H 1.7352 -0.1064 1.3813
H141A H 1.6695 -0.1043 1.3278
C126A C 1.7035(3) -0.2236(4) 1.3431(4)
H142A H 1.6620 -0.2193 1.3337
H143A H 1.7278 -0.2221 1.3870
H144A H 1.7094 -0.2627 1.3276
N19 N 1.4698(3) 0.2195(3) 0.7426(3)
C127 C 1.4318(3) 0.2476(4) 0.7306(4)
C128 C 1.37878(18) 0.2862(2) 0.7144(2)
H145 H 1.3842 0.3253 0.6985
H146 H 1.3731 0.2932 0.7504
H147 H 1.3442 0.2655 0.6835
N20 N 1.51266(18) 0.3967(2) 0.7505(2)
C129 C 1.54592(18) 0.3617(2) 0.7560(2)
C130 C 1.58580(18) 0.3106(2) 0.7593(2)
H148 H 1.6062 0.3207 0.7351
H149 H 1.5626 0.2734 0.7434
H150 H 1.6148 0.3042 0.8014
N21 N 1.5185(3) 1.0050(4) 0.6485(4)
C131 C 1.5683(4) 1.0021(6) 0.6684(5)
C132 C 1.6360(3) 0.9998(5) 0.6861(5)
H151 H 1.6586 0.9937 0.7298
H152 H 1.6479 1.0382 0.6747
H153 H 1.6437 0.9660 0.6648
loop_
_geom_bond_atom_site_label_1
_geom_bond_atom_site_label_2
_geom_bond_site_symmetry_1
_geom_bond_site_symmetry_2
N1 C1 1_555 1_555
C1 H1 1_555 1_555
C2 C1 1_555 1_555
H2 C2 1_555 1_555
N2 C2 1_555 1_555
Fe1 N2 1_555 1_555
O1 Fe1 1_555 1_555
C3 O1 1_555 1_555
C4 C3 1_555 1_555
H3 C4 1_555 1_555
C5 C4 1_555 1_555
H4 C5 1_555 1_555
C6 C5 1_555 1_555
C7 C6 1_555 1_555
H5 C7 1_555 1_555
C8 C3 1_555 1_555
C9 C8 1_555 1_555
H6 C9 1_555 1_555
N3 Fe1 1_555 1_555
C10 N3 1_555 1_555
H7 C10 1_555 1_555
C11 C10 1_555 1_555
H8 C11 1_555 1_555
H9 C11 1_555 1_555
H10 C11 1_555 1_555
C12 C10 1_555 1_555
C13 C12 1_555 1_555
H11 C13 1_555 1_555
C14 C13 1_555 1_555
H12 C14 1_555 1_555
C15 C14 1_555 1_555
H13 C15 1_555 1_555
C16 C15 1_555 1_555
H14 C16 1_555 1_555
C17 C12 1_555 1_555
H15 C17 1_555 1_555
C18 C6 1_555 1_555
C19 C18 1_555 1_555
H16 C19 1_555 1_555
H17 C19 1_555 1_555
H18 C19 1_555 1_555
C20 C18 1_555 1_555
H19 C20 1_555 1_555
H20 C20 1_555 1_555
H21 C20 1_555 1_555
C21 C18 1_555 1_555
H22 C21 1_555 1_555
H23 C21 1_555 1_555
H24 C21 1_555 1_555
N4 Fe1 1_555 1_555
C22 N4 1_555 1_555
H25 C22 1_555 1_555
C23 C22 1_555 1_555
H26 C23 1_555 1_555
N5 C23 1_555 1_555
Fe2 N5 1_555 1_555
O2 Fe2 1_555 1_555
C24 O2 1_555 1_555
C25 C24 1_555 1_555
H27 C25 1_555 1_555
C26 C25 1_555 1_555
H28 C26 1_555 1_555
C27 C26 1_555 1_555
C28 C27 1_555 1_555
H29 C28 1_555 1_555
C29 C24 1_555 1_555
C30 C29 1_555 1_555
H30 C30 1_555 1_555
N6 Fe2 1_555 1_555
C31 N6 1_555 1_555
H31 C31 1_555 1_555
C32 C31 1_555 1_555
H32 C32 1_555 1_555
H33 C32 1_555 1_555
H34 C32 1_555 1_555
C33 C31 1_555 1_555
C34 C33 1_555 1_555
H35 C34 1_555 1_555
C35 C34 1_555 1_555
H36 C35 1_555 1_555
C36 C35 1_555 1_555
H37 C36 1_555 1_555
C37 C36 1_555 1_555
H38 C37 1_555 1_555
C38 C33 1_555 1_555
H39 C38 1_555 1_555
C39 C27 1_555 1_555
C40 C39 1_555 1_555
H40 C40 1_555 1_555
H41 C40 1_555 1_555
H42 C40 1_555 1_555
C41 C39 1_555 1_555
H43 C41 1_555 1_555
H44 C41 1_555 1_555
H45 C41 1_555 1_555
C42 C39 1_555 1_555
H46 C42 1_555 1_555
H47 C42 1_555 1_555
H48 C42 1_555 1_555
N7 Fe2 1_555 1_555
C43 N7 1_555 1_555
H49 C43 1_555 1_555
C44 C43 1_555 1_555
H50 C44 1_555 1_555
N8 C44 1_555 1_555
Fe3 N1 1_555 1_555
O3 Fe3 1_555 1_555
C45 O3 1_555 1_555
C46 C45 1_555 1_555
H51 C46 1_555 1_555
C47 C46 1_555 1_555
H52 C47 1_555 1_555
C48 C47 1_555 1_555
C49 C48 1_555 1_555
H53 C49 1_555 1_555
C50 C45 1_555 1_555
C51 C50 1_555 1_555
H54 C51 1_555 1_555
N9 Fe3 1_555 1_555
C52 N9 1_555 1_555
H55 C52 1_555 1_555
C53 C52 1_555 1_555
H56 C53 1_555 1_555
H57 C53 1_555 1_555
H58 C53 1_555 1_555
C54 C52 1_555 1_555
C55 C54 1_555 1_555
H59 C55 1_555 1_555
C56 C55 1_555 1_555
H60 C56 1_555 1_555
C57 C56 1_555 1_555
H61 C57 1_555 1_555
C58 C57 1_555 1_555
H62 C58 1_555 1_555
C59 C54 1_555 1_555
H63 C59 1_555 1_555
C60 C48 1_555 1_555
C61 C60 1_555 1_555
H64 C61 1_555 1_555
H65 C61 1_555 1_555
H66 C61 1_555 1_555
C62 C60 1_555 1_555
H67 C62 1_555 1_555
H68 C62 1_555 1_555
H69 C62 1_555 1_555
C63 C60 1_555 1_555
H70 C63 1_555 1_555
H71 C63 1_555 1_555
H72 C63 1_555 1_555
N10 C64 1_555 1_555
C64 H73 1_555 1_555
C65 C64 1_555 1_555
H74 C65 1_555 1_555
N11 C65 1_555 1_555
Fe4 N11 1_555 1_555
O4 Fe4 1_555 1_555
C66 O4 1_555 1_555
C67 C66 1_555 1_555
H75 C67 1_555 1_555
C68 C67 1_555 1_555
H76 C68 1_555 1_555
C69 C68 1_555 1_555
C70 C69 1_555 1_555
H77 C70 1_555 1_555
C71 C66 1_555 1_555
C72 C71 1_555 1_555
H78 C72 1_555 1_555
N12 Fe4 1_555 1_555
C73 N12 1_555 1_555
H79 C73 1_555 1_555
C74 C73 1_555 1_555
H80 C74 1_555 1_555
H81 C74 1_555 1_555
H82 C74 1_555 1_555
C75 C73 1_555 1_555
C76 C75 1_555 1_555
H83 C76 1_555 1_555
C77 C76 1_555 1_555
H84 C77 1_555 1_555
C78 C77 1_555 1_555
H85 C78 1_555 1_555
C79 C78 1_555 1_555
H86 C79 1_555 1_555
C80 C75 1_555 1_555
H87 C80 1_555 1_555
C81 C69 1_555 1_555
C82 C81 1_555 1_555
H88 C82 1_555 1_555
H89 C82 1_555 1_555
H90 C82 1_555 1_555
C83 C81 1_555 1_555
H91 C83 1_555 1_555
H92 C83 1_555 1_555
H93 C83 1_555 1_555
C84 C81 1_555 1_555
H94 C84 1_555 1_555
H95 C84 1_555 1_555
H96 C84 1_555 1_555
N13 Fe4 1_555 1_555
C85 N13 1_555 1_555
H97 C85 1_555 1_555
C86 C85 1_555 1_555
H98 C86 1_555 1_555
N14 C86 1_555 1_555
Fe5 N14 1_555 1_555
O5 Fe5 1_555 1_555
C87 O5 1_555 1_555
C88 C87 1_555 1_555
H99 C88 1_555 1_555
C89 C88 1_555 1_555
H100 C89 1_555 1_555
C90 C89 1_555 1_555
C91 C90 1_555 1_555
H101 C91 1_555 1_555
C92 C87 1_555 1_555
C93 C92 1_555 1_555
H102 C93 1_555 1_555
N15 Fe5 1_555 1_555
C94 N15 1_555 1_555
H103 C94 1_555 1_555
C95 C94 1_555 1_555
H104 C95 1_555 1_555
H105 C95 1_555 1_555
H106 C95 1_555 1_555
C96 C94 1_555 1_555
C97 C96 1_555 1_555
H107 C97 1_555 1_555
C98 C97 1_555 1_555
H108 C98 1_555 1_555
C99 C98 1_555 1_555
H109 C99 1_555 1_555
C100 C99 1_555 1_555
H110 C100 1_555 1_555
C101 C96 1_555 1_555
H111 C101 1_555 1_555
C102 C90 1_555 1_555
C103 C102 1_555 1_555
H112 C103 1_555 1_555
H113 C103 1_555 1_555
H114 C103 1_555 1_555
C104 C102 1_555 1_555
H115 C104 1_555 1_555
H116 C104 1_555 1_555
H117 C104 1_555 1_555
C105 C102 1_555 1_555
H118 C105 1_555 1_555
H119 C105 1_555 1_555
H120 C105 1_555 1_555
N16 Fe5 1_555 1_555
C106 N16 1_555 1_555
H121 C106 1_555 1_555
C107 C106 1_555 1_555
H122 C107 1_555 1_555
N17 C107 1_555 1_555
Fe6 N10 1_555 1_555
O6 Fe6 1_555 1_555
C108 O6 1_555 1_555
C109 C108 1_555 1_555
H123 C109 1_555 1_555
C110 C109 1_555 1_555
H124 C110 1_555 1_555
C111 C110 1_555 1_555
C112 C111 1_555 1_555
H125 C112 1_555 1_555
C113 C108 1_555 1_555
C114 C113 1_555 1_555
H126 C114 1_555 1_555
N18 Fe6 1_555 1_555
C115 N18 1_555 1_555
H127 C115 1_555 1_555
C116 C115 1_555 1_555
H128 C116 1_555 1_555
H129 C116 1_555 1_555
H130 C116 1_555 1_555
C117 C115 1_555 1_555
C118 C117 1_555 1_555
H131 C118 1_555 1_555
C119 C118 1_555 1_555
H132 C119 1_555 1_555
C120 C119 1_555 1_555
H133 C120 1_555 1_555
C121 C120 1_555 1_555
H134 C121 1_555 1_555
C122 C117 1_555 1_555
H135 C122 1_555 1_555
C123 C111 1_555 1_555
C124 C123 1_555 1_555
H136 C124 1_555 1_555
H137 C124 1_555 1_555
H138 C124 1_555 1_555
C125 C123 1_555 1_555
H139 C125 1_555 1_555
H140 C125 1_555 1_555
H141 C125 1_555 1_555
C126 C123 1_555 1_555
H142 C126 1_555 1_555
H143 C126 1_555 1_555
H144 C126 1_555 1_555
N19 C127 1_555 1_555
C127 C128 1_555 1_555
C128 H145 1_555 1_555
H146 C128 1_555 1_555
H147 C128 1_555 1_555
N20 C129 1_555 1_555
C129 C130 1_555 1_555
C130 H148 1_555 1_555
H149 C130 1_555 1_555
H150 C130 1_555 1_555
N21 C131 1_555 1_555
C131 C132 1_555 1_555
C132 H151 1_555 1_555
H152 C132 1_555 1_555
H153 C132 1_555 1_555
C1A N1 1_555 1_555
H1A C1A 1_555 1_555
C2A N2 1_555 1_555
H2A C2A 1_555 1_555
O1A Fe1 1_555 1_555
C3A O1A 1_555 1_555
C4A C3A 1_555 1_555
H3A C4A 1_555 1_555
C5A C4A 1_555 1_555
H4A C5A 1_555 1_555
C6A C5A 1_555 1_555
C7A C6A 1_555 1_555
H5A C7A 1_555 1_555
C8A C3A 1_555 1_555
C9A C8A 1_555 1_555
H6A C9A 1_555 1_555
N3A Fe1 1_555 1_555
C10A N3A 1_555 1_555
H7A C10A 1_555 1_555
C11A C10A 1_555 1_555
H8A C11A 1_555 1_555
H9A C11A 1_555 1_555
H10A C11A 1_555 1_555
C12A C10A 1_555 1_555
C13A C12A 1_555 1_555
H11A C13A 1_555 1_555
C14A C13A 1_555 1_555
H12A C14A 1_555 1_555
C15A C14A 1_555 1_555
H13A C15A 1_555 1_555
C16A C15A 1_555 1_555
H14A C16A 1_555 1_555
C17A C12A 1_555 1_555
H15A C17A 1_555 1_555
C18A C6A 1_555 1_555
C19A C18A 1_555 1_555
H16A C19A 1_555 1_555
H17A C19A 1_555 1_555
H18A C19A 1_555 1_555
C20A C18A 1_555 1_555
H19A C20A 1_555 1_555
H20A C20A 1_555 1_555
H21A C20A 1_555 1_555
C21A C18A 1_555 1_555
H22A C21A 1_555 1_555
H23A C21A 1_555 1_555
H24A C21A 1_555 1_555
C22A N4 1_555 1_555
H25A C22A 1_555 1_555
C23A N5 1_555 1_555
H26A C23A 1_555 1_555
O2A Fe2 1_555 1_555
C24A O2A 1_555 1_555
C25A C24A 1_555 1_555
H27A C25A 1_555 1_555
C26A C25A 1_555 1_555
H28A C26A 1_555 1_555
C27A C26A 1_555 1_555
C28A C27A 1_555 1_555
H29A C28A 1_555 1_555
C29A C24A 1_555 1_555
C30A C29A 1_555 1_555
H30A C30A 1_555 1_555
N6A Fe2 1_555 1_555
C31A N6A 1_555 1_555
H31A C31A 1_555 1_555
C32A C31A 1_555 1_555
H32A C32A 1_555 1_555
H33A C32A 1_555 1_555
H34A C32A 1_555 1_555
C33A C31A 1_555 1_555
C34A C33A 1_555 1_555
H35A C34A 1_555 1_555
C35A C34A 1_555 1_555
H36A C35A 1_555 1_555
C36A C35A 1_555 1_555
H37A C36A 1_555 1_555
C37A C36A 1_555 1_555
H38A C37A 1_555 1_555
C38A C33A 1_555 1_555
H39A C38A 1_555 1_555
C39A C27A 1_555 1_555
C40A C39A 1_555 1_555
H40A C40A 1_555 1_555
H41A C40A 1_555 1_555
H42A C40A 1_555 1_555
C41A C39A 1_555 1_555
H43A C41A 1_555 1_555
H44A C41A 1_555 1_555
H45A C41A 1_555 1_555
C42A C39A 1_555 1_555
H46A C42A 1_555 1_555
H47A C42A 1_555 1_555
H48A C42A 1_555 1_555
C43A N7 1_555 1_555
H49A C43A 1_555 1_555
C44A N8 1_555 1_555
H50A C44A 1_555 1_555
N8_2 Fe3 1_555 1_555
Fe3_2 N8 1_555 1_555
O3A Fe3 1_555 1_555
C45A O3A 1_555 1_555
C46A C45A 1_555 1_555
H51A C46A 1_555 1_555
C47A C46A 1_555 1_555
H52A C47A 1_555 1_555
C48A C47A 1_555 1_555
C49A C48A 1_555 1_555
H53A C49A 1_555 1_555
C50A C45A 1_555 1_555
C51A C50A 1_555 1_555
H54A C51A 1_555 1_555
N9A Fe3 1_555 1_555
C52A N9A 1_555 1_555
H55A C52A 1_555 1_555
C53A C52A 1_555 1_555
H56A C53A 1_555 1_555
H57A C53A 1_555 1_555
H58A C53A 1_555 1_555
C54A C52A 1_555 1_555
C55A C54A 1_555 1_555
H59A C55A 1_555 1_555
C56A C55A 1_555 1_555
H60A C56A 1_555 1_555
C57A C56A 1_555 1_555
H61A C57A 1_555 1_555
C58A C57A 1_555 1_555
H62A C58A 1_555 1_555
C59A C54A 1_555 1_555
H63A C59A 1_555 1_555
C60A C48A 1_555 1_555
C61A C60A 1_555 1_555
H64A C61A 1_555 1_555
H65A C61A 1_555 1_555
H66A C61A 1_555 1_555
C62A C60A 1_555 1_555
H67A C62A 1_555 1_555
H68A C62A 1_555 1_555
H69A C62A 1_555 1_555
C63A C60A 1_555 1_555
H70A C63A 1_555 1_555
H71A C63A 1_555 1_555
H72A C63A 1_555 1_555
C64A N10 1_555 1_555
H73A C64A 1_555 1_555
C65A N11 1_555 1_555
H74A C65A 1_555 1_555
O4A Fe4 1_555 1_555
C66A O4A 1_555 1_555
C67A C66A 1_555 1_555
H75A C67A 1_555 1_555
C68A C67A 1_555 1_555
H76A C68A 1_555 1_555
C69A C68A 1_555 1_555
C70A C69A 1_555 1_555
H77A C70A 1_555 1_555
C71A C66A 1_555 1_555
C72A C71A 1_555 1_555
H78A C72A 1_555 1_555
N12A Fe4 1_555 1_555
C73A N12A 1_555 1_555
H79A C73A 1_555 1_555
C74A C73A 1_555 1_555
H80A C74A 1_555 1_555
H81A C74A 1_555 1_555
H82A C74A 1_555 1_555
C75A C73A 1_555 1_555
C76A C75A 1_555 1_555
H83A C76A 1_555 1_555
C77A C76A 1_555 1_555
H84A C77A 1_555 1_555
C78A C77A 1_555 1_555
H85A C78A 1_555 1_555
C79A C78A 1_555 1_555
H86A C79A 1_555 1_555
C80A C75A 1_555 1_555
H87A C80A 1_555 1_555
C81A C69A 1_555 1_555
C82A C81A 1_555 1_555
H88A C82A 1_555 1_555
H89A C82A 1_555 1_555
H90A C82A 1_555 1_555
C83A C81A 1_555 1_555
H91A C83A 1_555 1_555
H92A C83A 1_555 1_555
H93A C83A 1_555 1_555
C84A C81A 1_555 1_555
H94A C84A 1_555 1_555
H95A C84A 1_555 1_555
H96A C84A 1_555 1_555
C85A N13 1_555 1_555
H97A C85A 1_555 1_555
C86A N14 1_555 1_555
H98A C86A 1_555 1_555
O5A Fe5 1_555 1_555
C87A O5A 1_555 1_555
C88A C87A 1_555 1_555
H99A C88A 1_555 1_555
C89A C88A 1_555 1_555
H100A C89A 1_555 1_555
C90A C89A 1_555 1_555
C91A C90A 1_555 1_555
H101A C91A 1_555 1_555
C92A C87A 1_555 1_555
C93A C92A 1_555 1_555
H102A C93A 1_555 1_555
N15A Fe5 1_555 1_555
C94A N15A 1_555 1_555
H103A C94A 1_555 1_555
C95A C94A 1_555 1_555
H104A C95A 1_555 1_555
H105A C95A 1_555 1_555
H106A C95A 1_555 1_555
C96A C94A 1_555 1_555
C97A C96A 1_555 1_555
H107A C97A 1_555 1_555
C98A C97A 1_555 1_555
H108A C98A 1_555 1_555
C99A C98A 1_555 1_555
H109A C99A 1_555 1_555
C100A C99A 1_555 1_555
H110A C100A 1_555 1_555
C101A C96A 1_555 1_555
H111A C101A 1_555 1_555
C102A C90A 1_555 1_555
C103A C102A 1_555 1_555
H112A C103A 1_555 1_555
H113A C103A 1_555 1_555
H114A C103A 1_555 1_555
C104A C102A 1_555 1_555
H115A C104A 1_555 1_555
H116A C104A 1_555 1_555
H117A C104A 1_555 1_555
C105A C102A 1_555 1_555
H118A C105A 1_555 1_555
H119A C105A 1_555 1_555
H120A C105A 1_555 1_555
C106A N16 1_555 1_555
H121A C106A 1_555 1_555
C107A N17 1_555 1_555
H122A C107A 1_555 1_555
N17_2 Fe6 1_555 1_555
Fe6_2 N17 1_555 1_555
O6A Fe6 1_555 1_555
C108A O6A 1_555 1_555
C109A C108A 1_555 1_555
H123A C109A 1_555 1_555
C110A C109A 1_555 1_555
H124A C110A 1_555 1_555
C111A C110A 1_555 1_555
C112A C111A 1_555 1_555
H125A C112A 1_555 1_555
C113A C108A 1_555 1_555
C114A C113A 1_555 1_555
H126A C114A 1_555 1_555
N18A Fe6 1_555 1_555
C115A N18A 1_555 1_555
H127A C115A 1_555 1_555
C116A C115A 1_555 1_555
H128A C116A 1_555 1_555
H129A C116A 1_555 1_555
H130A C116A 1_555 1_555
C117A C115A 1_555 1_555
C118A C117A 1_555 1_555
H131A C118A 1_555 1_555
C119A C118A 1_555 1_555
H132A C119A 1_555 1_555
C120A C119A 1_555 1_555
H133A C120A 1_555 1_555
C121A C120A 1_555 1_555
H134A C121A 1_555 1_555
C122A C117A 1_555 1_555
H135A C122A 1_555 1_555
C123A C111A 1_555 1_555
C124A C123A 1_555 1_555
H136A C124A 1_555 1_555
H137A C124A 1_555 1_555
H138A C124A 1_555 1_555
C125A C123A 1_555 1_555
H139A C125A 1_555 1_555
H140A C125A 1_555 1_555
H141A C125A 1_555 1_555
C126A C123A 1_555 1_555
H142A C126A 1_555 1_555
H143A C126A 1_555 1_555
H144A C126A 1_555 1_555
C7 C8 1_555 1_555
C9 N3 1_555 1_555
C16 C17 1_555 1_555
C28 C29 1_555 1_555
C30 N6 1_555 1_555
C37 C38 1_555 1_555
C49 C50 1_555 1_555
C51 N9 1_555 1_555
C58 C59 1_555 1_555
C70 C71 1_555 1_555
C72 N12 1_555 1_555
C79 C80 1_555 1_555
C91 C92 1_555 1_555
C93 N15 1_555 1_555
C100 C101 1_555 1_555
C112 C113 1_555 1_555
C114 N18 1_555 1_555
C121 C122 1_555 1_555
C1A C2A 1_555 1_555
C7A C8A 1_555 1_555
C9A N3A 1_555 1_555
C16A C17A 1_555 1_555
C22A C23A 1_555 1_555
C28A C29A 1_555 1_555
C30A N6A 1_555 1_555
C37A C38A 1_555 1_555
C43A C44A 1_555 1_555
C49A C50A 1_555 1_555
C51A N9A 1_555 1_555
C58A C59A 1_555 1_555
C64A C65A 1_555 1_555
C70A C71A 1_555 1_555
C72A N12A 1_555 1_555
C79A C80A 1_555 1_555
C85A C86A 1_555 1_555
C91A C92A 1_555 1_555
C93A N15A 1_555 1_555
C100A C101A 1_555 1_555
C106A C107A 1_555 1_555
C112A C113A 1_555 1_555
C114A N18A 1_555 1_555
C121A C122A 1_555 1_555

#END
