
#######################################################################
#
#                 Cambridge Crystallographic Data Centre
#                                CCDC 
#
#######################################################################
#
# If this CIF has been generated from an entry in the Cambridge 
# Structural Database, then it will include bibliographic, chemical, 
# crystal, experimental, refinement or atomic coordinate data resulting 
# from the CCDC's data processing and validation procedures.
#
#######################################################################

data_IWORES
_symmetry_cell_setting           orthorhombic
_symmetry_space_group_name_H-M   'P 21 21 2'
_symmetry_Int_Tables_number      18
_space_group_name_Hall           'P 2 2ab'
loop_
_symmetry_equiv_pos_site_id
_symmetry_equiv_pos_as_xyz
1 x,y,z
2 -x,-y,z
3 1/2-x,1/2+y,-z
4 1/2+x,1/2-y,-z
_cell_length_a                   21.05493(13)
_cell_length_b                   16.11390(10)
_cell_length_c                   11.55863(8)
_cell_angle_alpha                90
_cell_angle_beta                 90
_cell_angle_gamma                90
_cell_volume                     3921.58
loop_
_atom_site_label
_atom_site_type_symbol
_atom_site_fract_x
_atom_site_fract_y
_atom_site_fract_z
Fe1 Fe 1.0000 0.5000 0.36103(4)
O1 O 0.90724(8) 0.46768(9) 0.36811(14)
N1 N 0.96746(9) 0.62880(11) 0.37455(16)
N2 N 0.67008(13) 0.65049(17) 0.6604(3)
N3 N 1.0000 0.5000 0.5593(2)
N4 N 1.0000 0.5000 1.1730(2)
C1 C 0.86203(11) 0.50455(15) 0.42392(18)
C2 C 0.80738(12) 0.45881(14) 0.4572(2)
H1 H 0.8044 0.4020 0.4358
C3 C 0.75871(11) 0.49403(16) 0.5193(2)
H2 H 0.7230 0.4615 0.5408
C4 C 0.76165(12) 0.57765(15) 0.5510(2)
C5 C 0.81382(12) 0.62480(15) 0.5184(2)
H3 H 0.8155 0.6817 0.5396
C6 C 0.86409(11) 0.59059(14) 0.4548(2)
C7 C 0.91452(12) 0.64758(14) 0.4223(2)
H4 H 0.9075 0.7047 0.4382
C8 C 1.01208(12) 0.69698(13) 0.3419(2)
H5 H 1.0555 0.6789 0.3660
C9 C 1.00012(14) 0.78080(14) 0.3987(2)
H6 H 0.9974 0.7737 0.4828
H7 H 0.9602 0.8040 0.3697
H8 H 1.0351 0.8186 0.3803
C10 C 1.01337(12) 0.70680(13) 0.2112(2)
C11 C 1.07013(13) 0.72875(15) 0.1568(2)
H9 H 1.1078 0.7347 0.2012
C12 C 1.07174(15) 0.74210(14) 0.0371(2)
H10 H 1.1105 0.7572 0.0007
C13 C 1.01747(14) 0.73341(15) -0.0281(2)
H11 H 1.0187 0.7422 -0.1093
C14 C 0.96114(14) 0.71188(16) 0.0253(2)
H12 H 0.9236 0.7058 -0.0195
C15 C 0.95905(13) 0.69910(15) 0.1443(2)
H13 H 0.9199 0.6849 0.1802
C16 C 0.71059(13) 0.61788(18) 0.6120(3)
C17 C 0.96623(12) 0.44540(14) 0.6200(2)
H14 H 0.9422 0.4052 0.5787
C18 C 0.96399(12) 0.44361(14) 0.7392(2)
H15 H 0.9380 0.4042 0.7779
C19 C 1.0000 0.5000 0.8023(3)
C20 C 1.0000 0.5000 0.9300(3)
C21 C 0.94570(12) 0.47917(14) 0.9929(2)
H16 H 0.9076 0.4645 0.9541
C22 C 0.94809(12) 0.48019(14) 1.1123(2)
H17 H 0.9107 0.4660 1.1538
Fe1_2 Fe 1.0000 0.5000 1.36103(4)
O1A O 1.09276(8) 0.53232(9) 0.36811(14)
N1A N 1.03254(9) 0.37120(11) 0.37455(16)
N2A N 1.32992(13) 0.34951(17) 0.6604(3)
N4_2 N 1.0000 0.5000 0.1730(2)
C1A C 1.13797(11) 0.49545(15) 0.42392(18)
C2A C 1.19262(12) 0.54119(14) 0.4572(2)
H1A H 1.1956 0.5980 0.4358
C3A C 1.24129(11) 0.50597(16) 0.5193(2)
H2A H 1.2770 0.5385 0.5408
C4A C 1.23835(12) 0.42235(15) 0.5510(2)
C5A C 1.18618(12) 0.37520(15) 0.5184(2)
H3A H 1.1845 0.3183 0.5396
C6A C 1.13591(11) 0.40941(14) 0.4548(2)
C7A C 1.08548(12) 0.35242(14) 0.4223(2)
H4A H 1.0925 0.2953 0.4382
C8A C 0.98792(12) 0.30302(13) 0.3419(2)
H5A H 0.9445 0.3211 0.3660
C9A C 0.99988(14) 0.21920(14) 0.3987(2)
H6A H 1.0026 0.2263 0.4828
H7A H 1.0398 0.1960 0.3697
H8A H 0.9649 0.1814 0.3803
C10A C 0.98663(12) 0.29320(13) 0.2112(2)
C11A C 0.92987(13) 0.27125(15) 0.1568(2)
H9A H 0.8922 0.2653 0.2012
C12A C 0.92826(15) 0.25790(14) 0.0371(2)
H10A H 0.8895 0.2428 0.0007
C13A C 0.98253(14) 0.26659(15) -0.0281(2)
H11A H 0.9813 0.2578 -0.1093
C14A C 1.03886(14) 0.28812(16) 0.0253(2)
H12A H 1.0764 0.2942 -0.0195
C15A C 1.04095(13) 0.30090(15) 0.1443(2)
H13A H 1.0801 0.3151 0.1802
C16A C 1.28941(13) 0.38212(18) 0.6120(3)
C17A C 1.03377(12) 0.55460(14) 0.6200(2)
H14A H 1.0578 0.5948 0.5787
C18A C 1.03601(12) 0.55639(14) 0.7392(2)
H15A H 1.0620 0.5958 0.7779
C21A C 1.05430(12) 0.52083(14) 0.9929(2)
H16A H 1.0924 0.5355 0.9541
C22A C 1.05191(12) 0.51981(14) 1.1123(2)
H17A H 1.0893 0.5340 1.1538
Fe2 Fe 1.0000 1.0000 -0.26460(4)
O2 O 0.97035(7) 1.11910(9) -0.27221(14)
N5 N 0.89998(10) 0.96850(11) -0.24903(16)
C23 C 0.91579(11) 1.15205(14) -0.2917(2)
C24 C 0.91152(12) 1.23736(14) -0.3202(2)
H18 H 0.9496 1.2687 -0.3267
N6 N 0.69171(11) 1.30944(13) -0.3676(2)
C25 C 0.85498(12) 1.27634(14) -0.3385(2)
H19 H 0.8544 1.3337 -0.3576
N7 N 1.0000 1.0000 -0.0719(2)
C26 C 0.79733(12) 1.23219(15) -0.3295(2)
N8 N 1.0000 1.0000 0.5405(2)
C27 C 0.79937(12) 1.14890(14) -0.3018(2)
H20 H 0.7607 1.1190 -0.2952
C28 C 0.85689(11) 1.10708(14) -0.28324(19)
C29 C 0.85316(12) 1.01951(14) -0.25444(19)
H21 H 0.8122 0.9978 -0.2380
C30 C 0.88545(12) 0.87971(14) -0.2185(2)
H22 H 0.9252 0.8562 -0.1845
C31 C 0.87353(16) 0.83233(16) -0.3291(3)
H23 H 0.9092 0.8408 -0.3823
H24 H 0.8343 0.8524 -0.3651
H25 H 0.8694 0.7731 -0.3116
C32 C 0.83491(12) 0.87115(15) -0.1271(2)
C33 C 0.77052(13) 0.86199(18) -0.1521(3)
H26 H 0.7571 0.8578 -0.2304
C34 C 0.72570(16) 0.8588(2) -0.0637(3)
H27 H 0.6818 0.8558 -0.0819
C35 C 0.74494(19) 0.8601(3) 0.0501(4)
H28 H 0.7146 0.8551 0.1104
C36 C 0.80887(18) 0.8686(3) 0.0762(3)
H29 H 0.8223 0.8704 0.1547
C37 C 0.85259(14) 0.87463(19) -0.0109(2)
H30 H 0.8962 0.8813 0.0083
C38 C 0.73809(13) 1.27461(15) -0.3500(2)
C39 C 0.96116(12) 1.04996(14) -0.0117(2)
H31 H 0.9336 1.0858 -0.0532
C40 C 0.95933(11) 1.05177(14) 0.1081(2)
H32 H 0.9308 1.0877 0.1474
C41 C 1.0000 1.0000 0.1699(3)
C42 C 1.0000 1.0000 0.2986(3)
C43 C 0.94363(11) 1.00377(16) 0.36057(19)
H33 H 0.9040 1.0065 0.3215
C44 C 0.94600(11) 1.00348(16) 0.48029(19)
H34 H 0.9071 1.0059 0.5218
Fe2_2 Fe 1.0000 1.0000 0.73540(4)
O2A O 1.02965(7) 0.88090(9) -0.27221(14)
N5A N 1.10002(10) 1.03150(11) -0.24903(16)
C23A C 1.08421(11) 0.84795(14) -0.2917(2)
C24A C 1.08848(12) 0.76264(14) -0.3202(2)
H18A H 1.0504 0.7313 -0.3267
N6A N 1.30829(11) 0.69056(13) -0.3676(2)
C25A C 1.14502(12) 0.72366(14) -0.3385(2)
H19A H 1.1456 0.6663 -0.3576
C26A C 1.20267(12) 0.76781(15) -0.3295(2)
N8_2 N 1.0000 1.0000 -0.4595(2)
C27A C 1.20063(12) 0.85110(14) -0.3018(2)
H20A H 1.2393 0.8810 -0.2952
C28A C 1.14311(11) 0.89292(14) -0.28324(19)
C29A C 1.14684(12) 0.98049(14) -0.25444(19)
H21A H 1.1878 1.0022 -0.2380
C30A C 1.11455(12) 1.12029(14) -0.2185(2)
H22A H 1.0748 1.1438 -0.1845
C31A C 1.12647(16) 1.16767(16) -0.3291(3)
H23A H 1.0908 1.1592 -0.3823
H24A H 1.1657 1.1476 -0.3651
H25A H 1.1306 1.2269 -0.3116
C32A C 1.16509(12) 1.12885(15) -0.1271(2)
C33A C 1.22948(13) 1.13801(18) -0.1521(3)
H26A H 1.2429 1.1422 -0.2304
C34A C 1.27430(16) 1.1412(2) -0.0637(3)
H27A H 1.3182 1.1442 -0.0819
C35A C 1.25506(19) 1.1399(3) 0.0501(4)
H28A H 1.2854 1.1449 0.1104
C36A C 1.19113(18) 1.1314(3) 0.0762(3)
H29A H 1.1777 1.1296 0.1547
C37A C 1.14741(14) 1.12537(19) -0.0109(2)
H30A H 1.1038 1.1187 0.0083
C38A C 1.26191(13) 0.72539(15) -0.3500(2)
C39A C 1.03884(12) 0.95004(14) -0.0117(2)
H31A H 1.0664 0.9142 -0.0532
C40A C 1.04067(11) 0.94823(14) 0.1081(2)
H32A H 1.0692 0.9123 0.1474
C43A C 1.05637(11) 0.99623(16) 0.36057(19)
H33A H 1.0960 0.9935 0.3215
C44A C 1.05400(11) 0.99652(16) 0.48029(19)
H34A H 1.0929 0.9941 0.5218
C45 C 0.7768(3) 0.6353(3) -0.0447(5)
H35 H 0.7754 0.6973 -0.0406
Cl1 Cl 0.81318(5) 0.59766(9) 0.08333(9)
Cl2 Cl 0.69983(6) 0.59904(13) -0.05158(12)
Cl3 Cl 0.82361(6) 0.60646(9) -0.16623(9)
C46? C 0.7625(9) 0.6312(12) -0.0792(15)
Cl4? Cl 0.7864(2) 0.6797(3) 0.0465(5)
Cl5? Cl 0.7184(4) 0.5474(5) -0.0569(6)
Cl6? Cl 0.8262(7) 0.6012(10) -0.1603(12)
H36? H 0.7370 0.6716 -0.1255
loop_
_geom_bond_atom_site_label_1
_geom_bond_atom_site_label_2
_geom_bond_site_symmetry_1
_geom_bond_site_symmetry_2
Fe1 O1 1_555 1_555
O1 C1 1_555 1_555
N1 Fe1 1_555 1_555
N2 C16 1_555 1_555
N3 Fe1 1_555 1_555
N4 C22 1_555 1_555
C1 C2 1_555 1_555
C2 H1 1_555 1_555
C3 C2 1_555 1_555
H2 C3 1_555 1_555
C4 C3 1_555 1_555
C5 C4 1_555 1_555
H3 C5 1_555 1_555
C6 C1 1_555 1_555
C7 N1 1_555 1_555
H4 C7 1_555 1_555
C8 N1 1_555 1_555
H5 C8 1_555 1_555
C9 C8 1_555 1_555
H6 C9 1_555 1_555
H7 C9 1_555 1_555
H8 C9 1_555 1_555
C10 C8 1_555 1_555
C11 C10 1_555 1_555
H9 C11 1_555 1_555
C12 C11 1_555 1_555
H10 C12 1_555 1_555
C13 C12 1_555 1_555
H11 C13 1_555 1_555
C14 C13 1_555 1_555
H12 C14 1_555 1_555
C15 C10 1_555 1_555
H13 C15 1_555 1_555
C16 C4 1_555 1_555
C17 N3 1_555 1_555
H14 C17 1_555 1_555
C18 C17 1_555 1_555
H15 C18 1_555 1_555
C19 C18 1_555 1_555
C20 C19 1_555 1_555
C21 C20 1_555 1_555
H16 C21 1_555 1_555
C22 C21 1_555 1_555
H17 C22 1_555 1_555
Fe2 O2 1_555 1_555
O2 C23 1_555 1_555
N5 Fe2 1_555 1_555
C23 C24 1_555 1_555
C24 H18 1_555 1_555
N6 C38 1_555 1_555
C25 C24 1_555 1_555
H19 C25 1_555 1_555
N7 Fe2 1_555 1_555
C26 C25 1_555 1_555
N8 C44 1_555 1_555
C27 C26 1_555 1_555
H20 C27 1_555 1_555
C28 C23 1_555 1_555
C29 N5 1_555 1_555
H21 C29 1_555 1_555
C30 N5 1_555 1_555
H22 C30 1_555 1_555
C31 C30 1_555 1_555
H23 C31 1_555 1_555
H24 C31 1_555 1_555
H25 C31 1_555 1_555
C32 C30 1_555 1_555
C33 C32 1_555 1_555
H26 C33 1_555 1_555
C34 C33 1_555 1_555
H27 C34 1_555 1_555
C35 C34 1_555 1_555
H28 C35 1_555 1_555
C36 C35 1_555 1_555
H29 C36 1_555 1_555
C37 C32 1_555 1_555
H30 C37 1_555 1_555
C38 C26 1_555 1_555
C39 N7 1_555 1_555
H31 C39 1_555 1_555
C40 C39 1_555 1_555
H32 C40 1_555 1_555
C41 C40 1_555 1_555
C42 C41 1_555 1_555
C43 C42 1_555 1_555
H33 C43 1_555 1_555
C44 C43 1_555 1_555
H34 C44 1_555 1_555
C45 H35 1_555 1_555
Cl1 C45 1_555 1_555
Cl2 C45 1_555 1_555
Cl3 C45 1_555 1_555
Fe1_2 N4 1_555 1_555
O1A Fe1 1_555 1_555
N1A Fe1 1_555 1_555
N2A C16A 1_555 1_555
N4_2 Fe1 1_555 1_555
C1A O1A 1_555 1_555
C2A C1A 1_555 1_555
H1A C2A 1_555 1_555
C3A C2A 1_555 1_555
H2A C3A 1_555 1_555
C4A C3A 1_555 1_555
C5A C4A 1_555 1_555
H3A C5A 1_555 1_555
C6A C1A 1_555 1_555
C7A N1A 1_555 1_555
H4A C7A 1_555 1_555
C8A N1A 1_555 1_555
H5A C8A 1_555 1_555
C9A C8A 1_555 1_555
H6A C9A 1_555 1_555
H7A C9A 1_555 1_555
H8A C9A 1_555 1_555
C10A C8A 1_555 1_555
C11A C10A 1_555 1_555
H9A C11A 1_555 1_555
C12A C11A 1_555 1_555
H10A C12A 1_555 1_555
C13A C12A 1_555 1_555
H11A C13A 1_555 1_555
C14A C13A 1_555 1_555
H12A C14A 1_555 1_555
C15A C10A 1_555 1_555
H13A C15A 1_555 1_555
C16A C4A 1_555 1_555
C17A N3 1_555 1_555
H14A C17A 1_555 1_555
C18A C19 1_555 1_555
H15A C18A 1_555 1_555
C21A C20 1_555 1_555
H16A C21A 1_555 1_555
C22A N4 1_555 1_555
H17A C22A 1_555 1_555
Fe2_2 N8 1_555 1_555
O2A Fe2 1_555 1_555
N5A Fe2 1_555 1_555
C23A O2A 1_555 1_555
C24A C23A 1_555 1_555
H18A C24A 1_555 1_555
N6A C38A 1_555 1_555
C25A C24A 1_555 1_555
H19A C25A 1_555 1_555
C26A C25A 1_555 1_555
N8_2 Fe2 1_555 1_555
C27A C26A 1_555 1_555
H20A C27A 1_555 1_555
C28A C23A 1_555 1_555
C29A N5A 1_555 1_555
H21A C29A 1_555 1_555
C30A N5A 1_555 1_555
H22A C30A 1_555 1_555
C31A C30A 1_555 1_555
H23A C31A 1_555 1_555
H24A C31A 1_555 1_555
H25A C31A 1_555 1_555
C32A C30A 1_555 1_555
C33A C32A 1_555 1_555
H26A C33A 1_555 1_555
C34A C33A 1_555 1_555
H27A C34A 1_555 1_555
C35A C34A 1_555 1_555
H28A C35A 1_555 1_555
C36A C35A 1_555 1_555
H29A C36A 1_555 1_555
C37A C32A 1_555 1_555
H30A C37A 1_555 1_555
C38A C26A 1_555 1_555
C39A N7 1_555 1_555
H31A C39A 1_555 1_555
C40A C41 1_555 1_555
H32A C40A 1_555 1_555
C43A C42 1_555 1_555
H33A C43A 1_555 1_555
C44A N8 1_555 1_555
H34A C44A 1_555 1_555
C5 C6 1_555 1_555
C6 C7 1_555 1_555
C14 C15 1_555 1_555
C27 C28 1_555 1_555
C28 C29 1_555 1_555
C36 C37 1_555 1_555
C5A C6A 1_555 1_555
C6A C7A 1_555 1_555
C14A C15A 1_555 1_555
C17A C18A 1_555 1_555
C21A C22A 1_555 1_555
C27A C28A 1_555 1_555
C28A C29A 1_555 1_555
C36A C37A 1_555 1_555
C39A C40A 1_555 1_555
C43A C44A 1_555 1_555

#END
