
#######################################################################
#
#                 Cambridge Crystallographic Data Centre
#                                CCDC 
#
#######################################################################
#
# If this CIF has been generated from an entry in the Cambridge 
# Structural Database, then it will include bibliographic, chemical, 
# crystal, experimental, refinement or atomic coordinate data resulting 
# from the CCDC's data processing and validation procedures.
#
#######################################################################

data_IWORIW
_symmetry_cell_setting           triclinic
_symmetry_space_group_name_H-M   'P 1'
_symmetry_Int_Tables_number      1
_space_group_name_Hall           'P 1'
loop_
_symmetry_equiv_pos_site_id
_symmetry_equiv_pos_as_xyz
1 x,y,z
_cell_length_a                   8.7967(2)
_cell_length_b                   8.9245(2)
_cell_length_c                   14.7428(4)
_cell_angle_alpha                102.135(2)
_cell_angle_beta                 106.334(2)
_cell_angle_gamma                97.4319(19)
_cell_volume                     1063.73
loop_
_atom_site_label
_atom_site_type_symbol
_atom_site_fract_x
_atom_site_fract_y
_atom_site_fract_z
Fe1 Fe 0.33322(2) 0.51344(2) 0.564854(18)
N1 N 0.3777(2) 0.6485(2) 0.71261(13)
C1 C 0.5661(2) 0.3893(2) 0.71216(13)
O1 O 0.49651(17) 0.39507(16) 0.62150(10)
C2 C 0.6576(2) 0.2733(2) 0.72909(14)
H1 H 0.6642 0.1990 0.6745
O2 O 0.8153(2) 0.3582(2) 0.99456(13)
H2 H 0.7839 0.4117 1.0373
N2 N 0.3046(2) 0.39158(19) 0.41680(13)
C3 C 0.7379(2) 0.2641(2) 0.82240(15)
H3 H 0.7989 0.1847 0.8308
N3 N 0.1350(2) 0.3207(2) 0.57054(13)
O3 O 0.15724(17) 0.62199(16) 0.50890(11)
C4 C 0.7301(3) 0.3703(3) 0.90401(15)
N4 N -0.4762(2) -0.2993(2) 0.55643(13)
O4 O -0.2766(2) 0.5297(3) 0.13905(12)
H4 H -0.3720 0.4985 0.1371
C5 C 0.6392(3) 0.4837(3) 0.89054(14)
H5 H 0.6329 0.5559 0.9461
C6 C 0.5556(2) 0.4950(2) 0.79631(14)
C7 C 0.4674(3) 0.6224(2) 0.79121(15)
H6 H 0.4769 0.6928 0.8515
C8 C 0.3119(2) 0.7943(2) 0.72607(14)
H7 H 0.2489 0.7993 0.6592
C9 C 0.4507(3) 0.9383(2) 0.76666(19)
H8 H 0.5247 0.9289 0.7279
H9 H 0.5094 0.9450 0.8350
H10 H 0.4064 1.0330 0.7629
C10 C 0.1937(2) 0.7919(2) 0.78375(14)
C11 C 0.0897(3) 0.6520(2) 0.77305(16)
H11 H 0.1007 0.5572 0.7341
C12 C -0.0285(2) 0.6488(3) 0.81777(16)
H12 H -0.0961 0.5521 0.8106
C13 C -0.0492(3) 0.7864(3) 0.87319(16)
H13 H -0.1319 0.7847 0.9030
C14 C 0.0517(3) 0.9257(3) 0.88442(16)
H14 H 0.0383 1.0201 0.9225
C15 C 0.1731(2) 0.9295(2) 0.84055(15)
H15 H 0.2420 1.0262 0.8494
C16 C 0.0544(2) 0.5939(2) 0.42125(13)
C17 C -0.0835(2) 0.6629(2) 0.40615(14)
H16 H -0.1008 0.7268 0.4612
C18 C -0.1942(2) 0.6411(3) 0.31467(16)
H17 H -0.2855 0.6894 0.3078
C19 C -0.1724(2) 0.5491(3) 0.23304(15)
C20 C -0.0412(3) 0.4766(3) 0.24434(15)
H18 H -0.0268 0.4128 0.1883
C21 C 0.0719(2) 0.4952(2) 0.33727(14)
C22 C 0.1974(3) 0.4049(2) 0.33978(15)
H19 H 0.2017 0.3493 0.2784
C23 C 0.4179(2) 0.2867(2) 0.39761(14)
H20 H 0.4688 0.2602 0.4604
C24 C 0.5539(3) 0.3782(3) 0.37320(19)
H21 H 0.6078 0.4723 0.4267
H22 H 0.5085 0.4086 0.3126
H23 H 0.6324 0.3125 0.3646
C25 C 0.3285(3) 0.1335(2) 0.32276(15)
C26 C 0.2445(3) 0.0211(3) 0.35190(17)
H24 H 0.2485 0.0395 0.4185
C27 C 0.1538(4) -0.1192(3) 0.2854(2)
H25 H 0.0984 -0.1961 0.3070
C28 C 0.1450(4) -0.1457(3) 0.1884(2)
H26 H 0.0806 -0.2395 0.1425
C29 C 0.2304(4) -0.0351(3) 0.1582(2)
H27 H 0.2268 -0.0547 0.0917
C30 C 0.3216(3) 0.1048(3) 0.22456(17)
H28 H 0.3790 0.1805 0.2031
C31 C -0.0223(2) 0.3315(2) 0.54625(15)
H29 H -0.0501 0.4249 0.5312
C32 C -0.1459(2) 0.2132(2) 0.54202(15)
H30 H -0.2549 0.2263 0.5240
C33 C -0.1087(2) 0.0752(2) 0.56440(14)
C34 C -0.2362(2) -0.0537(2) 0.56119(14)
C35 C -0.3934(2) -0.0844(2) 0.49529(15)
H31 H -0.4216 -0.0222 0.4506
C36 C -0.5072(2) -0.2066(2) 0.49609(15)
H32 H -0.6133 -0.2253 0.4512
C37 C -0.3259(2) -0.2708(2) 0.61927(14)
H33 H -0.3017 -0.3358 0.6627
C38 C -0.2037(2) -0.1510(2) 0.62414(14)
H34 H -0.0989 -0.1354 0.6699
C39 C 0.0542(2) 0.0645(2) 0.59027(15)
H35 H 0.0860 -0.0268 0.6065
C40 C 0.1696(2) 0.1882(2) 0.59210(15)
H36 H 0.2795 0.1780 0.6097
Fe1_2 Fe -0.66678(2) -0.48656(2) 0.564854(18)
N4_2 N 0.5238(2) 0.7007(2) 0.55643(13)
O5 O 0.4125(3) 0.4283(3) 1.11339(15)
C41 C 0.3175(4) 0.5465(5) 1.1188(2)
H37 H 0.3870 0.6499 1.1563
H38 H 0.2359 0.5214 1.1507
C42 C 0.2364(6) 0.5461(6) 1.0132(3)
H39 H 0.1247 0.5635 1.0037
H40 H 0.2975 0.6298 0.9951
C43 C 0.2348(5) 0.3951(5) 0.9544(3)
H41 H 0.2710 0.4068 0.8980
H42 H 0.1240 0.3308 0.9291
C44 C 0.3485(4) 0.3165(4) 1.0183(2)
H43 H 0.2894 0.2176 1.0229
H44 H 0.4367 0.2934 0.9915
O6 O -0.3419(5) -0.1143(4) 0.0191(2)
C45 C -0.2207(13) 0.0429(8) 0.0639(7)
H45 H -0.1099 0.0302 0.0655
H46 H -0.2525 0.1211 0.0273
C46 C -0.2330(14) 0.0887(8) 0.1668(8)
H47 H -0.1243 0.1252 0.2163
H48 H -0.2957 0.1727 0.1732
C47 C -0.3194(10) -0.0599(10) 0.1789(5)
H49 H -0.2427 -0.1221 0.2077
H50 H -0.3913 -0.0385 0.2189
C48 C -0.4129(10) -0.1378(9) 0.0739(6)
H51 H -0.4404 -0.2520 0.0658
H52 H -0.5156 -0.0999 0.0565
C49? C -0.2074(10) -0.0988(11) 0.0821(7)
C50? C -0.1787(10) 0.0114(12) 0.1776(7)
C51? C -0.3364(11) 0.0754(11) 0.1594(7)
C52? C -0.4258(10) 0.0073(10) 0.0571(7)
H53? H -0.1221 -0.0644 0.0549
H54? H -0.1948 -0.2029 0.0931
H55? H -0.0829 0.0957 0.1939
H56? H -0.1647 -0.0427 0.2307
H57? H -0.3990 0.0442 0.2011
H58? H -0.3123 0.1910 0.1739
H59? H -0.4288 0.0887 0.0205
H60? H -0.5383 -0.0404 0.0492
loop_
_geom_bond_atom_site_label_1
_geom_bond_atom_site_label_2
_geom_bond_site_symmetry_1
_geom_bond_site_symmetry_2
Fe1 N1 1_555 1_555
N1 C7 1_555 1_555
C1 O1 1_555 1_555
O1 Fe1 1_555 1_555
C2 C1 1_555 1_555
H1 C2 1_555 1_555
O2 H2 1_555 1_555
N2 Fe1 1_555 1_555
C3 C2 1_555 1_555
H3 C3 1_555 1_555
N3 Fe1 1_555 1_555
O3 Fe1 1_555 1_555
C4 O2 1_555 1_555
N4 C36 1_555 1_555
O4 H4 1_555 1_555
C5 C4 1_555 1_555
H5 C5 1_555 1_555
C6 C1 1_555 1_555
C7 C6 1_555 1_555
H6 C7 1_555 1_555
C8 N1 1_555 1_555
H7 C8 1_555 1_555
C9 C8 1_555 1_555
H8 C9 1_555 1_555
H9 C9 1_555 1_555
H10 C9 1_555 1_555
C10 C8 1_555 1_555
C11 C10 1_555 1_555
H11 C11 1_555 1_555
C12 C11 1_555 1_555
H12 C12 1_555 1_555
C13 C12 1_555 1_555
H13 C13 1_555 1_555
C14 C13 1_555 1_555
H14 C14 1_555 1_555
C15 C10 1_555 1_555
H15 C15 1_555 1_555
C16 O3 1_555 1_555
C17 C16 1_555 1_555
H16 C17 1_555 1_555
C18 C17 1_555 1_555
H17 C18 1_555 1_555
C19 O4 1_555 1_555
C20 C19 1_555 1_555
H18 C20 1_555 1_555
C21 C16 1_555 1_555
C22 N2 1_555 1_555
H19 C22 1_555 1_555
C23 N2 1_555 1_555
H20 C23 1_555 1_555
C24 C23 1_555 1_555
H21 C24 1_555 1_555
H22 C24 1_555 1_555
H23 C24 1_555 1_555
C25 C23 1_555 1_555
C26 C25 1_555 1_555
H24 C26 1_555 1_555
C27 C26 1_555 1_555
H25 C27 1_555 1_555
C28 C27 1_555 1_555
H26 C28 1_555 1_555
C29 C28 1_555 1_555
H27 C29 1_555 1_555
C30 C25 1_555 1_555
H28 C30 1_555 1_555
C31 N3 1_555 1_555
H29 C31 1_555 1_555
C32 C31 1_555 1_555
H30 C32 1_555 1_555
C33 C32 1_555 1_555
C34 C33 1_555 1_555
C35 C34 1_555 1_555
H31 C35 1_555 1_555
C36 C35 1_555 1_555
H32 C36 1_555 1_555
C37 N4 1_555 1_555
H33 C37 1_555 1_555
C38 C34 1_555 1_555
H34 C38 1_555 1_555
C39 C33 1_555 1_555
H35 C39 1_555 1_555
C40 N3 1_555 1_555
H36 C40 1_555 1_555
O5 C41 1_555 1_555
C41 H37 1_555 1_555
H38 C41 1_555 1_555
C42 C41 1_555 1_555
H39 C42 1_555 1_555
H40 C42 1_555 1_555
C43 C42 1_555 1_555
H41 C43 1_555 1_555
H42 C43 1_555 1_555
C44 O5 1_555 1_555
H43 C44 1_555 1_555
H44 C44 1_555 1_555
O6 C45 1_555 1_555
C45 H45 1_555 1_555
H46 C45 1_555 1_555
C46 C45 1_555 1_555
H47 C46 1_555 1_555
H48 C46 1_555 1_555
C47 C46 1_555 1_555
H49 C47 1_555 1_555
H50 C47 1_555 1_555
C48 O6 1_555 1_555
H51 C48 1_555 1_555
H52 C48 1_555 1_555
Fe1_2 N4 1_555 1_555
N4_2 Fe1 1_555 1_555
C3 C4 1_555 1_555
C5 C6 1_555 1_555
C14 C15 1_555 1_555
C18 C19 1_555 1_555
C20 C21 1_555 1_555
C21 C22 1_555 1_555
C29 C30 1_555 1_555
C37 C38 1_555 1_555
C39 C40 1_555 1_555
C43 C44 1_555 1_555
C47 C48 1_555 1_555

#END
