
#######################################################################
#
#                 Cambridge Crystallographic Data Centre
#                                CCDC 
#
#######################################################################
#
# If this CIF has been generated from an entry in the Cambridge 
# Structural Database, then it will include bibliographic, chemical, 
# crystal, experimental, refinement or atomic coordinate data resulting 
# from the CCDC's data processing and validation procedures.
#
#######################################################################

data_IWOSUJ
_symmetry_cell_setting           monoclinic
_symmetry_space_group_name_H-M   'C 2/c'
_symmetry_Int_Tables_number      15
_space_group_name_Hall           '-C 2yn'
loop_
_symmetry_equiv_pos_site_id
_symmetry_equiv_pos_as_xyz
1 x,y,z
2 -x,y,1/2-z
3 1/2+x,1/2+y,z
4 1/2-x,1/2+y,1/2-z
5 -x,-y,-z
6 x,-y,1/2+z
7 1/2-x,1/2-y,-z
8 1/2+x,1/2-y,1/2+z
_cell_length_a                   9.9481(3)
_cell_length_b                   9.9421(3)
_cell_length_c                   12.5953(4)
_cell_angle_alpha                90
_cell_angle_beta                 81.610(3)
_cell_angle_gamma                90
_cell_volume                     1232.41
loop_
_atom_site_label
_atom_site_type_symbol
_atom_site_fract_x
_atom_site_fract_y
_atom_site_fract_z
P1 P 0.00000 -0.04633 0.25000
F1 F 0.16109(62) -0.04423(56) 0.23603(53)
F2 F 0.00000 0.11734(88) 0.25000
F3 F -0.01543(57) -0.04240(54) 0.37911(46)
F4 F 0.00000 -0.20386(93) 0.25000
F1A F -0.16109(62) -0.04423(56) 0.26397(53)
F3A F 0.01543(57) -0.04240(54) 0.12089(46)
C1 C 0.338192 0.250040 0.571629
C2 C 0.243318 0.347243 0.575064
N1 N 0.345987 0.151657 0.496524
H1 H 0.397113 0.250067 0.619484
H2 H 0.238854 0.412212 0.625215
C3 C 0.713627 0.199776 0.409011
C4 C 0.810318 0.295368 0.403970
N2 N 0.652174 0.153287 0.505101
H3 H 0.689326 0.166221 0.348221
H4 H 0.850617 0.325678 0.339811
Ni1 Ni 0.50000 0.00000 0.50000
H5 H 0.500 0.007751 0.750
F5 F 0.469944 0.006858 0.662615
C1F C 0.161808 0.249960 0.428371
C2F C 0.256682 0.152757 0.424936
N1F N 0.154013 0.348343 0.503476
N1D N 0.654013 -0.151657 0.503476
H1F H 0.102887 0.249933 0.380516
H2F H 0.261146 0.087788 0.374785
C3F C 0.786373 0.300224 0.590989
C4F C 0.689682 0.204632 0.596030
N2F N 0.847826 0.346713 0.494899
N2D N 0.347826 -0.153287 0.494899
H3F H 0.810674 0.333779 0.651779
H4F H 0.649383 0.174322 0.660189
Ni1A Ni 0.50000 0.00000 1.00000
Ni1B Ni 0.00000 0.50000 0.50000
Ni1B_2 Ni 1.00000 0.50000 0.50000
F5A F 0.530056 0.006858 0.837385
F5D F 0.530056 -0.006858 0.337385
loop_
_geom_bond_atom_site_label_1
_geom_bond_atom_site_label_2
_geom_bond_site_symmetry_1
_geom_bond_site_symmetry_2
P1 F1 1_555 1_555
F2 P1 1_555 1_555
F3 P1 1_555 1_555
F4 P1 1_555 1_555
C1 C2 1_555 1_555
C2 H2 1_555 1_555
N1 C1 1_555 1_555
H1 C1 1_555 1_555
C3 C4 1_555 1_555
C4 H4 1_555 1_555
N2 C3 1_555 1_555
H3 C3 1_555 1_555
Ni1 N1 1_555 1_555
H5 F5 1_555 1_555
F5 Ni1 1_555 1_555
F1A P1 1_555 1_555
F3A P1 1_555 1_555
C1F C2F 1_555 1_555
C2F N1 1_555 1_555
N1F C2 1_555 1_555
N1D Ni1 1_555 1_555
H1F C1F 1_555 1_555
H2F C2F 1_555 1_555
C3F C4F 1_555 1_555
C4F N2 1_555 1_555
N2F C4 1_555 1_555
N2D Ni1 1_555 1_555
H3F C3F 1_555 1_555
H4F C4F 1_555 1_555
Ni1A F5A 1_555 1_555
Ni1B N1F 1_555 1_555
Ni1B_2 N2F 1_555 1_555
F5A H5 1_555 1_555
F5D Ni1 1_555 1_555
N2 Ni1 1_555 1_555
C1F N1F 1_555 1_555
C3F N2F 1_555 1_555

#END
