
#######################################################################
#
#                 Cambridge Crystallographic Data Centre
#                                CCDC 
#
#######################################################################
#
# If this CIF has been generated from an entry in the Cambridge 
# Structural Database, then it will include bibliographic, chemical, 
# crystal, experimental, refinement or atomic coordinate data resulting 
# from the CCDC's data processing and validation procedures.
#
#######################################################################

data_IWOTIX
_symmetry_cell_setting           triclinic
_symmetry_space_group_name_H-M   'P -1'
_symmetry_Int_Tables_number      2
_space_group_name_Hall           '-P 1'
loop_
_symmetry_equiv_pos_site_id
_symmetry_equiv_pos_as_xyz
1 x,y,z
2 -x,-y,-z
_cell_length_a                   6.9084(2)
_cell_length_b                   8.7738(4)
_cell_length_c                   8.8162(4)
_cell_angle_alpha                99.552(2)
_cell_angle_beta                 110.209(2)
_cell_angle_gamma                104.461(2)
_cell_volume                     466.513
loop_
_atom_site_label
_atom_site_type_symbol
_atom_site_fract_x
_atom_site_fract_y
_atom_site_fract_z
Ce1 Ce 0.02449(2) 0.876953(16) 0.199738(17)
C1 C 0.2152(5) 0.6816(4) 0.6189(4)
H1 H 0.0956 0.5950 0.6180
H2 H 0.2354 0.6468 0.5167
C2 C 0.4245(5) 0.7016(4) 0.7706(4)
H3 H 0.4044 0.7374 0.8738
C3 C 0.4664(6) 0.5372(4) 0.7658(5)
H4 H 0.6153 0.5583 0.8442
H5 H 0.4552 0.4905 0.6541
C4 C 0.1505(5) 0.8336(4) 0.6157(4)
O1 O 0.1194(5) 0.8835(3) 0.4889(3)
O2 O 0.1279(4) 0.9015(3) 0.7440(3)
C5 C 0.6234(5) 0.8283(4) 0.7758(4)
O3 O 0.7802(3) 0.9060(3) 0.9179(3)
O4 O 0.6356(4) 0.8570(3) 0.6445(3)
C6 C 0.3142(6) 0.4112(4) 0.8078(4)
O5 O 0.1532(4) 0.4364(3) 0.8332(3)
O6 O 0.3486(4) 0.2780(3) 0.8149(3)
O7 O 0.0587(5) 0.7143(3) -0.0477(3)
H6 H 0.091(8) 0.628(6) -0.077(6)
H7 H 0.107(7) 0.764(5) -0.100(5)
O8 O 0.3613(5) 0.7979(4) 0.3020(4)
H8 H 0.434(8) 0.827(6) 0.414(7)
H9 H 0.436(8) 0.777(6) 0.250(6)
O2A O -0.1279(4) 1.0985(3) 0.2560(3)
O3_2 O -0.2198(3) 0.9060(3) -0.0821(3)
O3A O 0.2198(3) 1.0940(3) 0.0821(3)
O4A O 0.3644(4) 1.1430(3) 0.3555(3)
O5A O -0.1532(4) 0.5636(3) 0.1668(3)
O6A O -0.3486(4) 0.7220(3) 0.1851(3)
Ce1A Ce -0.02449(2) 1.123047(16) 0.800262(17)
Ce1_2 Ce 1.02449(2) 0.876953(16) 1.199738(17)
Ce1A_2 Ce 0.97551(2) 1.123047(16) 0.800262(17)
Ce1A_3 Ce -0.02449(2) 0.123047(16) 0.800262(17)
loop_
_geom_bond_atom_site_label_1
_geom_bond_atom_site_label_2
_geom_bond_site_symmetry_1
_geom_bond_site_symmetry_2
Ce1 O1 1_555 1_555
C1 H1 1_555 1_555
H2 C1 1_555 1_555
C2 C1 1_555 1_555
H3 C2 1_555 1_555
C3 C2 1_555 1_555
H4 C3 1_555 1_555
H5 C3 1_555 1_555
C4 C1 1_555 1_555
O1 C4 1_555 1_555
O2 C4 1_555 1_555
C5 C2 1_555 1_555
O3 C5 1_555 1_555
O4 C5 1_555 1_555
C6 C3 1_555 1_555
O5 C6 1_555 1_555
O6 C6 1_555 1_555
O7 Ce1 1_555 1_555
H6 O7 1_555 1_555
H7 O7 1_555 1_555
O8 Ce1 1_555 1_555
H8 O8 1_555 1_555
H9 O8 1_555 1_555
O2A Ce1 1_555 1_555
O3_2 Ce1 1_555 1_555
O3A Ce1 1_555 1_555
O4A Ce1 1_555 1_555
O5A Ce1 1_555 1_555
O6A Ce1 1_555 1_555
Ce1A O2 1_555 1_555
Ce1_2 O3 1_555 1_555
Ce1A_2 O3 1_555 1_555
Ce1A_3 O5 1_555 1_555
O4 Ce1A_2 1_555 1_555
O6 Ce1A_3 1_555 1_555

#END
