
#######################################################################
#
#                 Cambridge Crystallographic Data Centre
#                                CCDC 
#
#######################################################################
#
# If this CIF has been generated from an entry in the Cambridge 
# Structural Database, then it will include bibliographic, chemical, 
# crystal, experimental, refinement or atomic coordinate data resulting 
# from the CCDC's data processing and validation procedures.
#
#######################################################################

data_IWOXOH01
_symmetry_cell_setting           monoclinic
_symmetry_space_group_name_H-M   'P 21/c'
_symmetry_Int_Tables_number      14
_space_group_name_Hall           '-P 2ybc'
loop_
_symmetry_equiv_pos_site_id
_symmetry_equiv_pos_as_xyz
1 x,y,z
2 -x,1/2+y,1/2-z
3 -x,-y,-z
4 x,1/2-y,1/2+z
_cell_length_a                   14.0939(6)
_cell_length_b                   4.9227(2)
_cell_length_c                   11.3731(5)
_cell_angle_alpha                90
_cell_angle_beta                 97.321(3)
_cell_angle_gamma                90
_cell_volume                     782.634
loop_
_atom_site_label
_atom_site_type_symbol
_atom_site_fract_x
_atom_site_fract_y
_atom_site_fract_z
Na1 Na 0.55368(8) -0.0167(2) 0.13363(9)
C1 C 0.7394(2) 0.0020(6) 0.3915(3)
C2 C 0.7549(2) -0.1705(6) 0.2972(3)
C3 C 0.8452(2) -0.1649(7) 0.2579(3)
H1 H 0.8572 -0.2766 0.1933
C4 C 0.9166(2) 0.0003(8) 0.3117(4)
H2 H 0.9772 0.0023 0.2833
C5 C 0.9015(3) 0.1644(8) 0.4072(4)
H3 H 0.9518 0.2737 0.4452
C6 C 0.8126(2) 0.1671(7) 0.4460(3)
H4 H 0.8013 0.2815 0.5100
N1 N 0.68171(17) -0.3289(5) 0.2410(2)
H5 H 0.6914 -0.4287 0.1794
H6 H 0.6255 -0.3300 0.2668
O1 O 0.63435(16) 0.1941(4) 0.54069(17)
O2 O 0.56581(14) 0.1652(4) 0.33339(16)
O3 O 0.58876(15) -0.2442(4) 0.45187(17)
S1 S 0.62342(5) 0.03062(14) 0.43344(6)
Na1A Na 0.44632(8) -0.5167(2) 0.36637(9)
Na1A_2 Na 0.44632(8) 0.4833(2) 0.36637(9)
Na1C Na 0.55368(8) -0.4833(2) 0.63363(9)
Na1C_2 Na 0.55368(8) 0.5167(2) 0.63363(9)
O1C O 0.63435(16) 0.3059(4) 0.04069(17)
O2A O 0.43419(14) -0.3348(4) 0.16661(16)
O3A O 0.41124(15) 0.2558(4) 0.04813(17)
O3C O 0.58876(15) -0.2558(4) -0.04813(17)
loop_
_geom_bond_atom_site_label_1
_geom_bond_atom_site_label_2
_geom_bond_site_symmetry_1
_geom_bond_site_symmetry_2
Na1 N1 1_555 1_555
C1 C2 1_555 1_555
C2 C3 1_555 1_555
C3 H1 1_555 1_555
C4 C3 1_555 1_555
H2 C4 1_555 1_555
C5 C4 1_555 1_555
H3 C5 1_555 1_555
C6 C1 1_555 1_555
H4 C6 1_555 1_555
N1 C2 1_555 1_555
H5 N1 1_555 1_555
H6 N1 1_555 1_555
O1 S1 1_555 1_555
O2 Na1 1_555 1_555
O3 S1 1_555 1_555
S1 C1 1_555 1_555
Na1A O3 1_555 1_555
Na1A_2 O2 1_555 1_555
Na1C O3 1_555 1_555
Na1C_2 O1 1_555 1_555
O1C Na1 1_555 1_555
O2A Na1 1_555 1_555
O3A Na1 1_555 1_555
O3C Na1 1_555 1_555
C5 C6 1_555 1_555
O2 S1 1_555 1_555
Na1A O2A 1_555 1_555

#END
