
#######################################################################
#
#                 Cambridge Crystallographic Data Centre
#                                CCDC 
#
#######################################################################
#
# If this CIF has been generated from an entry in the Cambridge 
# Structural Database, then it will include bibliographic, chemical, 
# crystal, experimental, refinement or atomic coordinate data resulting 
# from the CCDC's data processing and validation procedures.
#
#######################################################################

data_IWOXOH
_symmetry_cell_setting           monoclinic
_symmetry_space_group_name_H-M   'P 21/c'
_symmetry_Int_Tables_number      14
_space_group_name_Hall           '-P 2ybc'
loop_
_symmetry_equiv_pos_site_id
_symmetry_equiv_pos_as_xyz
1 x,y,z
2 -x,1/2+y,1/2-z
3 -x,-y,-z
4 x,1/2-y,1/2+z
_cell_length_a                   14.213(4)
_cell_length_b                   4.9447(12)
_cell_length_c                   11.401(2)
_cell_angle_alpha                90
_cell_angle_beta                 97.284(19)
_cell_angle_gamma                90
_cell_volume                     794.785
loop_
_atom_site_label
_atom_site_type_symbol
_atom_site_fract_x
_atom_site_fract_y
_atom_site_fract_z
S1 S 0.62254(5) 0.02872(13) -0.06610(5)
Na1 Na 0.55349(9) 0.5169(2) 0.13394(10)
O1 O 0.63139(19) 0.1895(4) 0.04111(18)
O2 O 0.59038(16) -0.2463(4) -0.04878(19)
O3 O 0.56555(15) 0.1611(4) -0.16569(17)
N1 N 0.6837(2) -0.3212(6) -0.2585(2)
C1 C 0.7381(2) 0.0071(6) -0.1071(3)
C2 C 0.7560(2) -0.1617(7) -0.2011(3)
C3 C 0.8445(3) -0.1521(9) -0.2392(4)
C4 C 0.9140(3) 0.0134(12) -0.1841(6)
C5 C 0.8987(3) 0.1747(11) -0.0893(6)
C6 C 0.8098(3) 0.1730(8) -0.0518(4)
H1 H 0.638(3) -0.395(9) -0.215(4)
H2 H 0.705(3) -0.435(10) -0.305(4)
H3 H 0.8569 -0.2643 -0.3049
H4 H 0.9751 0.0183 -0.2125
H5 H 0.9482 0.2876 -0.0502
H6 H 0.7975 0.2861 0.0141
O2_2 O 0.59038(16) 0.7537(4) -0.04878(19)
O2B O 0.40962(16) 0.2463(4) 0.04878(19)
O3C O 0.56555(15) 0.3389(4) 0.33431(17)
O3B O 0.43445(15) 0.8389(4) 0.16569(17)
N1C N 0.6837(2) 0.8212(6) 0.2415(2)
Na1_2 Na 0.55349(9) -0.4831(2) 0.13394(10)
Na1B Na 0.44651(9) -0.5169(2) -0.13394(10)
Na1C Na 0.55349(9) -0.0169(2) -0.36606(10)
Na1B_2 Na 0.44651(9) 0.4831(2) -0.13394(10)
H1C H 0.638(3) 0.895(9) 0.285(4)
H2C H 0.705(3) 0.935(10) 0.195(4)
loop_
_geom_bond_atom_site_label_1
_geom_bond_atom_site_label_2
_geom_bond_site_symmetry_1
_geom_bond_site_symmetry_2
S1 O1 1_555 1_555
Na1 O1 1_555 1_555
O2 S1 1_555 1_555
O3 S1 1_555 1_555
N1 C2 1_555 1_555
C1 S1 1_555 1_555
C2 C1 1_555 1_555
C3 C2 1_555 1_555
C4 C3 1_555 1_555
C5 C4 1_555 1_555
C6 C1 1_555 1_555
H1 N1 1_555 1_555
H2 N1 1_555 1_555
H3 C3 1_555 1_555
H4 C4 1_555 1_555
H5 C5 1_555 1_555
H6 C6 1_555 1_555
O2_2 Na1 1_555 1_555
O2B Na1 1_555 1_555
O3C Na1 1_555 1_555
O3B Na1 1_555 1_555
N1C Na1 1_555 1_555
Na1_2 O2 1_555 1_555
Na1B O2 1_555 1_555
Na1C O3 1_555 1_555
Na1B_2 O3 1_555 1_555
H1C N1C 1_555 1_555
H2C N1C 1_555 1_555
N1 Na1C 1_555 1_555
C5 C6 1_555 1_555
O2_2 Na1B_2 1_555 1_555
O2B Na1B_2 1_555 1_555

#END
