
#######################################################################
#
#                 Cambridge Crystallographic Data Centre
#                                CCDC 
#
#######################################################################
#
# If this CIF has been generated from an entry in the Cambridge 
# Structural Database, then it will include bibliographic, chemical, 
# crystal, experimental, refinement or atomic coordinate data resulting 
# from the CCDC's data processing and validation procedures.
#
#######################################################################

data_IWUBAD
_symmetry_cell_setting           monoclinic
_symmetry_space_group_name_H-M   'C 2/c'
_symmetry_Int_Tables_number      15
_space_group_name_Hall           '-C 2yn'
loop_
_symmetry_equiv_pos_site_id
_symmetry_equiv_pos_as_xyz
1 x,y,z
2 x,-y,1/2+z
3 1/2+x,1/2+y,z
4 1/2+x,1/2-y,1/2+z
5 -x,-y,-z
6 -x,y,1/2-z
7 1/2-x,1/2-y,-z
8 1/2-x,1/2+y,1/2-z
_cell_length_a                   8.7480(10)
_cell_length_b                   19.503(2)
_cell_length_c                   17.247(2)
_cell_angle_alpha                90
_cell_angle_beta                 94.842(5)
_cell_angle_gamma                90
_cell_volume                     2932.05
loop_
_atom_site_label
_atom_site_type_symbol
_atom_site_fract_x
_atom_site_fract_y
_atom_site_fract_z
Ag1 Ag 1.0000 0.456360(10) 0.7500
S1 S 0.77210(6) 0.49623(3) 0.66707(3)
N1 N 0.9114(4) 0.37080(10) 0.8316(2)
C1 C 0.5153(2) 0.42800(10) 0.60120(10)
C2 C 0.5003(3) 0.39670(10) 0.52930(10)
C3 C 0.3821(3) 0.41440(10) 0.47420(10)
C4 C 0.2769(2) 0.46430(10) 0.48990(10)
C5 C 0.2855(3) 0.49210(10) 0.56400(10)
C6 C 0.4033(3) 0.47380(10) 0.61910(10)
C7 C 0.6592(3) 0.41700(10) 0.6548(2)
C8 C 0.8431(3) 0.50970(10) 0.57160(10)
C12 C 0.8942(3) 0.3270(2) 0.8709(2)
C13 C 0.8718(4) 0.2711(2) 0.9223(2)
H1 H 0.570(4) 0.3660(10) 0.516(2)
H2 H 0.380(3) 0.3950(10) 0.424(2)
H3 H 0.215(3) 0.526(2) 0.575(2)
H4 H 0.409(3) 0.4950(10) 0.668(2)
H5 H 0.720(3) 0.383(2) 0.636(2)
H6 H 0.637(3) 0.4090(10) 0.710(2)
H7 H 0.889(3) 0.468(2) 0.555(2)
H8 H 0.923(3) 0.544(2) 0.582(2)
H9 H 0.7666 0.2567 0.9159
H10 H 0.8967 0.2855 0.9750
H11 H 0.9371 0.2336 0.9104
C8D C 0.1569(3) 0.49030(10) 0.42840(10)
S1D S 0.22790(6) 0.50377(3) 0.33293(3)
C7D C 0.3408(3) 0.58300(10) 0.3452(2)
C1D C 0.4847(2) 0.57200(10) 0.39880(10)
C2D C 0.4997(3) 0.60330(10) 0.47070(10)
C3D C 0.6179(3) 0.58560(10) 0.52580(10)
C4D C 0.7231(2) 0.53570(10) 0.51010(10)
C5D C 0.7145(3) 0.50790(10) 0.43600(10)
C6D C 0.5967(3) 0.52620(10) 0.38090(10)
H4D H 0.591(3) 0.5050(10) 0.332(2)
H3D H 0.785(3) 0.474(2) 0.425(2)
H2D H 0.620(3) 0.6050(10) 0.576(2)
H1D H 0.430(4) 0.6340(10) 0.484(2)
H5D H 0.280(3) 0.617(2) 0.364(2)
H6D H 0.363(3) 0.5910(10) 0.290(2)
H7D H 0.111(3) 0.532(2) 0.445(2)
H8D H 0.077(3) 0.456(2) 0.418(2)
N1E N 1.0886(4) 0.37080(10) 0.6684(2)
C12E C 1.1058(3) 0.3270(2) 0.6291(2)
C13E C 1.1282(4) 0.2711(2) 0.5777(2)
H9E H 1.2334 0.2567 0.5841
H10E H 1.1033 0.2855 0.5250
H11E H 1.0629 0.2336 0.5896
S1E S 1.22790(6) 0.49623(3) 0.83293(3)
Ag1A Ag 0.0000 0.543640(10) 0.2500
F1 F 0.7320(2) 0.72386(9) 0.78062(8)
F2 F 0.8006(2) 0.61744(8) 0.80364(8)
F3 F 1.0345(2) 0.76246(7) 0.82251(7)
F4 F 1.0958(2) 0.65452(8) 0.82779(8)
O1 O 0.7551(2) 0.74470(10) 0.92958(9)
O2 O 0.8954(2) 0.64960(10) 0.95230(10)
C9 C 0.8299(3) 0.69260(10) 0.91060(10)
C10 C 0.8348(3) 0.68360(10) 0.82170(10)
C11 C 0.9938(3) 0.69990(10) 0.79460(10)
C11E C 1.0062(3) 0.69990(10) 0.70540(10)
F3E F 0.9655(2) 0.76246(7) 0.67749(7)
F4E F 0.9042(2) 0.65452(8) 0.67221(8)
C10E C 1.1652(3) 0.68360(10) 0.67830(10)
F1E F 1.2680(2) 0.72386(9) 0.71938(8)
F2E F 1.1994(2) 0.61744(8) 0.69636(8)
C9E C 1.1701(3) 0.69260(10) 0.58940(10)
O1E O 1.2449(2) 0.74470(10) 0.57042(9)
O2E O 1.1046(2) 0.64960(10) 0.54770(10)
H12? H 0.757(9) 0.749(4) 0.975(3)
loop_
_geom_bond_atom_site_label_1
_geom_bond_atom_site_label_2
_geom_bond_site_symmetry_1
_geom_bond_site_symmetry_2
Ag1 S1 1_555 1_555
S1 C7 1_555 1_555
F1 C10 1_555 1_555
F2 C10 1_555 1_555
F3 C11 1_555 1_555
F4 C11 1_555 1_555
O1 C9 1_555 1_555
O2 C9 1_555 1_555
N1 Ag1 1_555 1_555
C1 C2 1_555 1_555
C2 C3 1_555 1_555
C3 C4 1_555 1_555
C4 C5 1_555 1_555
C5 C6 1_555 1_555
C6 C1 1_555 1_555
C7 C1 1_555 1_555
C8 S1 1_555 1_555
C9 C10 1_555 1_555
C10 C11 1_555 1_555
C11 C11E 1_555 1_555
C12 N1 1_555 1_555
C13 C12 1_555 1_555
H1 C2 1_555 1_555
H2 C3 1_555 1_555
H3 C5 1_555 1_555
H4 C6 1_555 1_555
H5 C7 1_555 1_555
H6 C7 1_555 1_555
H7 C8 1_555 1_555
H8 C8 1_555 1_555
H9 C13 1_555 1_555
H10 C13 1_555 1_555
H11 C13 1_555 1_555
C8D C4 1_555 1_555
S1D C8D 1_555 1_555
C7D S1D 1_555 1_555
C1D C7D 1_555 1_555
C2D C1D 1_555 1_555
C3D C2D 1_555 1_555
C4D C8 1_555 1_555
C5D C4D 1_555 1_555
C6D C1D 1_555 1_555
H4D C6D 1_555 1_555
H3D C5D 1_555 1_555
H2D C3D 1_555 1_555
H1D C2D 1_555 1_555
H5D C7D 1_555 1_555
H6D C7D 1_555 1_555
H7D C8D 1_555 1_555
H8D C8D 1_555 1_555
C11E F3E 1_555 1_555
F4E C11E 1_555 1_555
C10E C11E 1_555 1_555
F1E C10E 1_555 1_555
F2E C10E 1_555 1_555
C9E C10E 1_555 1_555
O1E C9E 1_555 1_555
O2E C9E 1_555 1_555
N1E Ag1 1_555 1_555
C12E N1E 1_555 1_555
C13E C12E 1_555 1_555
H9E C13E 1_555 1_555
H10E C13E 1_555 1_555
H11E C13E 1_555 1_555
S1E Ag1 1_555 1_555
Ag1A S1D 1_555 1_555
C3D C4D 1_555 1_555
C5D C6D 1_555 1_555

#END
