
#######################################################################
#
#                 Cambridge Crystallographic Data Centre
#                                CCDC 
#
#######################################################################
#
# If this CIF has been generated from an entry in the Cambridge 
# Structural Database, then it will include bibliographic, chemical, 
# crystal, experimental, refinement or atomic coordinate data resulting 
# from the CCDC's data processing and validation procedures.
#
#######################################################################

data_IWUTAV
_symmetry_cell_setting           monoclinic
_symmetry_space_group_name_H-M   'C 2/m'
_symmetry_Int_Tables_number      12
_space_group_name_Hall           '-C 2y'
loop_
_symmetry_equiv_pos_site_id
_symmetry_equiv_pos_as_xyz
1 x,y,z
2 1/2+x,1/2+y,z
3 x,-y,z
4 1/2+x,1/2-y,z
5 -x,-y,-z
6 1/2-x,1/2-y,-z
7 -x,y,-z
8 1/2-x,1/2+y,-z
_cell_length_a                   13.574(3)
_cell_length_b                   11.345(2)
_cell_length_c                   8.430(1)
_cell_angle_alpha                90
_cell_angle_beta                 107.84(1)
_cell_angle_gamma                90
_cell_volume                     1235.77
loop_
_atom_site_label
_atom_site_type_symbol
_atom_site_fract_x
_atom_site_fract_y
_atom_site_fract_z
Ag1 Ag 0.10042(2) 0.0000 0.41423(4)
N1 N 0.1072(2) 0.1875(2) 0.4154(2)
C1 C 0.1141(2) 0.4347(2) 0.4134(3)
C2 C 0.1311(2) 0.2493(2) 0.5566(3)
H1 H 0.1505(2) 0.1992(2) 0.6632(3)
C3 C 0.1359(2) 0.3707(2) 0.5605(3)
H2 H 0.1498(2) 0.4125(2) 0.6665(3)
C4 C 0.0878(2) 0.2482(2) 0.2720(3)
H3 H 0.0708(2) 0.2036(2) 0.1633(3)
C5 C 0.0915(2) 0.3693(2) 0.2669(3)
H4 H 0.0898(2) 0.4159(2) 0.1562(3)
C1B C 0.1141(2) 0.5653(2) 0.4134(3)
C3B C 0.1359(2) 0.6293(2) 0.5605(3)
C2B C 0.1311(2) 0.7507(2) 0.5566(3)
N1B N 0.1072(2) 0.8125(2) 0.4154(2)
C4B C 0.0878(2) 0.7518(2) 0.2720(3)
H3B H 0.0708(2) 0.7964(2) 0.1633(3)
C5B C 0.0915(2) 0.6307(2) 0.2669(3)
H4B H 0.0898(2) 0.5841(2) 0.1562(3)
H1B H 0.1505(2) 0.8008(2) 0.6632(3)
H2B H 0.1498(2) 0.5875(2) 0.6665(3)
N1B_2 N 0.1072(2) -0.1875(2) 0.4154(2)
Ag1_2 Ag 0.10042(2) 1.0000 0.41423(4)
P1 P -0.18978(8) 0.0000 0.04364(11)
F1 F -0.1774(2) 0.0000 -0.1383(3)
F2 F -0.2034(3) 0.0000 0.2256(3)
F4 F -0.2341(11) -0.1257(7) 0.0190(12)
F5 F -0.1497(9) -0.1273(6) 0.0665(9)
F4B F -0.2341(11) 0.1257(7) 0.0190(12)
F5B F -0.1497(9) 0.1273(6) 0.0665(9)
F3? F -0.3014(4) -0.0456(7) -0.0299(7)
F6? F -0.0796(5) -0.0503(9) 0.1189(7)
loop_
_geom_bond_atom_site_label_1
_geom_bond_atom_site_label_2
_geom_bond_site_symmetry_1
_geom_bond_site_symmetry_2
Ag1 N1 1_555 1_555
P1 F1 1_555 1_555
N1 C2 1_555 1_555
C1 C3 1_555 1_555
C2 H1 1_555 1_555
C3 C2 1_555 1_555
H2 C3 1_555 1_555
C4 N1 1_555 1_555
H3 C4 1_555 1_555
C5 C1 1_555 1_555
H4 C5 1_555 1_555
F2 P1 1_555 1_555
F4 P1 1_555 1_555
F5 P1 1_555 1_555
F4B P1 1_555 1_555
F5B P1 1_555 1_555
C1B C1 1_555 1_555
C3B C1B 1_555 1_555
C2B C3B 1_555 1_555
N1B C2B 1_555 1_555
C4B N1B 1_555 1_555
H3B C4B 1_555 1_555
C5B C1B 1_555 1_555
H4B C5B 1_555 1_555
H1B C2B 1_555 1_555
H2B C3B 1_555 1_555
N1B_2 Ag1 1_555 1_555
Ag1_2 N1B 1_555 1_555
C4 C5 1_555 1_555
C4B C5B 1_555 1_555

#END
