
#######################################################################
#
#                 Cambridge Crystallographic Data Centre
#                                CCDC 
#
#######################################################################
#
# If this CIF has been generated from an entry in the Cambridge 
# Structural Database, then it will include bibliographic, chemical, 
# crystal, experimental, refinement or atomic coordinate data resulting 
# from the CCDC's data processing and validation procedures.
#
#######################################################################

data_IWUYOO
_symmetry_cell_setting           orthorhombic
_symmetry_space_group_name_H-M   'P b c a'
_symmetry_Int_Tables_number      61
_space_group_name_Hall           '-P 2ac 2ab'
loop_
_symmetry_equiv_pos_site_id
_symmetry_equiv_pos_as_xyz
1 x,y,z
2 1/2+x,y,1/2-z
3 x,1/2-y,1/2+z
4 1/2-x,1/2+y,z
5 -x,-y,-z
6 1/2-x,-y,1/2+z
7 -x,1/2+y,1/2-z
8 1/2+x,1/2-y,-z
_cell_length_a                   16.6884(7)
_cell_length_b                   10.9585(5)
_cell_length_c                   22.0082(9)
_cell_angle_alpha                90
_cell_angle_beta                 90
_cell_angle_gamma                90
_cell_volume                     4024.86
loop_
_atom_site_label
_atom_site_type_symbol
_atom_site_fract_x
_atom_site_fract_y
_atom_site_fract_z
Cu1 Cu 0.41822(2) 0.26190(4) 0.399121(18)
O1 O 0.49952(16) 0.1445(2) 0.33070(12)
O2 O 0.46905(15) 0.3403(2) 0.32717(11)
O3 O 0.81839(15) 0.2244(2) 0.14099(11)
O4 O 0.78026(17) 0.4072(3) 0.10991(13)
N1 N 0.39766(17) 0.1511(3) 0.46937(12)
N2 N 0.50492(17) 0.3196(3) 0.45545(13)
C1 C 0.3451(2) 0.0591(3) 0.46880(16)
H1 H 0.3092 0.0531 0.4366
C2 C 0.3424(2) -0.0272(4) 0.51434(18)
H2 H 0.3058 -0.0910 0.5128
C3 C 0.3949(3) -0.0170(4) 0.56199(18)
H3 H 0.3938 -0.0738 0.5934
C4 C 0.4490(2) 0.0771(4) 0.56332(16)
H4 H 0.4848 0.0846 0.5955
C5 C 0.4496(2) 0.1611(3) 0.51598(15)
C6 C 0.5068(2) 0.2631(3) 0.50989(17)
C7 C 0.5598(3) 0.2992(4) 0.5550(2)
H5 H 0.5600 0.2603 0.5926
C8 C 0.6120(3) 0.3928(4) 0.5434(2)
H6 H 0.6479 0.4182 0.5731
C9 C 0.6109(3) 0.4488(4) 0.4879(2)
H7 H 0.6463 0.5120 0.4793
C10 C 0.5563(2) 0.4100(4) 0.4447(2)
H8 H 0.5555 0.4482 0.4070
C11 C 0.5075(2) 0.2476(3) 0.30768(16)
C12 C 0.5669(2) 0.2654(3) 0.25712(16)
C13 C 0.6115(2) 0.1661(3) 0.23774(17)
H9 H 0.5983 0.0884 0.2514
C14 C 0.6754(2) 0.1809(3) 0.19830(17)
H10 H 0.7057 0.1136 0.1867
C15 C 0.6943(2) 0.2956(3) 0.17616(14)
C16 C 0.6462(2) 0.3940(3) 0.19151(15)
H11 H 0.6560 0.4701 0.1744
C17 C 0.5831(2) 0.3797(3) 0.23249(16)
H12 H 0.5519 0.4465 0.2433
C18 C 0.7692(2) 0.3120(3) 0.13845(14)
O3A O 0.31839(15) 0.2244(2) 0.35901(11)
Cu1A Cu 0.91822(2) 0.26190(4) 0.100879(18)
O5 O 0.7164(9) 0.8487(14) 0.9027(5)
N3 N 0.6871(3) 0.7273(4) 0.8336(2)
C19 C 0.6692(5) 0.6229(6) 0.7967(3)
H13 H 0.7067 0.5589 0.8056
H14 H 0.6732 0.6448 0.7546
H15 H 0.6158 0.5952 0.8053
C20 C 0.6421(7) 0.8327(10) 0.8190(6)
H16 H 0.6609 0.9003 0.8428
H17 H 0.5865 0.8184 0.8277
H18 H 0.6484 0.8511 0.7766
C21 C 0.7364(8) 0.7261(10) 0.8771(5)
H19 H 0.7733 0.6676 0.8894
loop_
_geom_bond_atom_site_label_1
_geom_bond_atom_site_label_2
_geom_bond_site_symmetry_1
_geom_bond_site_symmetry_2
Cu1 O1 1_555 1_555
O1 C11 1_555 1_555
O2 Cu1 1_555 1_555
O3 C18 1_555 1_555
O4 C18 1_555 1_555
O5 C21 1_555 1_555
N1 Cu1 1_555 1_555
N2 Cu1 1_555 1_555
N3 C19 1_555 1_555
C1 N1 1_555 1_555
H1 C1 1_555 1_555
C2 C1 1_555 1_555
H2 C2 1_555 1_555
C3 C2 1_555 1_555
H3 C3 1_555 1_555
C4 C3 1_555 1_555
H4 C4 1_555 1_555
C5 N1 1_555 1_555
C6 N2 1_555 1_555
C7 C6 1_555 1_555
H5 C7 1_555 1_555
C8 C7 1_555 1_555
H6 C8 1_555 1_555
C9 C8 1_555 1_555
H7 C9 1_555 1_555
C10 N2 1_555 1_555
H8 C10 1_555 1_555
C11 O2 1_555 1_555
C12 C11 1_555 1_555
C13 C12 1_555 1_555
H9 C13 1_555 1_555
C14 C13 1_555 1_555
H10 C14 1_555 1_555
C15 C14 1_555 1_555
C16 C15 1_555 1_555
H11 C16 1_555 1_555
C17 C12 1_555 1_555
H12 C17 1_555 1_555
C18 C15 1_555 1_555
C19 H13 1_555 1_555
H14 C19 1_555 1_555
H15 C19 1_555 1_555
C20 N3 1_555 1_555
H16 C20 1_555 1_555
H17 C20 1_555 1_555
H18 C20 1_555 1_555
C21 N3 1_555 1_555
H19 C21 1_555 1_555
O3A Cu1 1_555 1_555
Cu1A O3 1_555 1_555
C4 C5 1_555 1_555
C5 C6 1_555 1_555
C9 C10 1_555 1_555
C16 C17 1_555 1_555

#END
