
#######################################################################
#
#                 Cambridge Crystallographic Data Centre
#                                CCDC 
#
#######################################################################
#
# If this CIF has been generated from an entry in the Cambridge 
# Structural Database, then it will include bibliographic, chemical, 
# crystal, experimental, refinement or atomic coordinate data resulting 
# from the CCDC's data processing and validation procedures.
#
#######################################################################

data_IWUYUV
_symmetry_cell_setting           orthorhombic
_symmetry_space_group_name_H-M   'P b c n'
_symmetry_Int_Tables_number      60
_space_group_name_Hall           '-P 2n 2ab'
loop_
_symmetry_equiv_pos_site_id
_symmetry_equiv_pos_as_xyz
1 x,y,z
2 1/2-x,1/2-y,1/2+z
3 -x,y,1/2-z
4 1/2+x,1/2-y,-z
5 -x,-y,-z
6 1/2+x,1/2+y,1/2-z
7 x,-y,1/2+z
8 1/2-x,1/2+y,z
_cell_length_a                   16.6586(8)
_cell_length_b                   13.2244(6)
_cell_length_c                   7.3795(4)
_cell_angle_alpha                90
_cell_angle_beta                 90
_cell_angle_gamma                90
_cell_volume                     1625.7
loop_
_atom_site_label
_atom_site_type_symbol
_atom_site_fract_x
_atom_site_fract_y
_atom_site_fract_z
Zn1 Zn 0.5000 0.5000 0.0000
C1 C 0.38657(12) 0.18667(15) 0.3421(3)
H1 H 0.4319 0.1972 0.4132
C2 C 0.35692(11) 0.26491(14) 0.2359(2)
C3 C 0.39853(11) 0.36646(14) 0.2417(2)
C4 C 0.25173(13) 0.15353(18) 0.1330(3)
H2 H 0.2061 0.1426 0.0631
C5 C 0.28932(12) 0.24757(16) 0.1295(3)
H3 H 0.2692 0.2988 0.0560
C6 C 0.34926(15) 0.09291(15) 0.3430(4)
H4 H 0.3699 0.0409 0.4139
C7 C 0.28162(16) 0.07659(17) 0.2390(3)
H5 H 0.2563 0.0139 0.2405
C8 C 0.56610(13) 0.73283(15) 0.1952(3)
H6 H 0.6112 0.6968 0.1586
C9 C 0.56672(15) 0.83711(16) 0.1935(4)
H7 H 0.6122 0.8716 0.1542
C10 C 0.5000 0.8904(2) 0.2500
H8 H 0.5000 0.9608 0.2500
O1 O 0.39825(8) 0.41934(10) 0.1000(2)
O2 O 0.43088(8) 0.38793(10) 0.39118(19)
O3 O 0.5000 0.58256(13) 0.2500
N1 N 0.5000 0.68374(16) 0.2500
Zn1B Zn 0.5000 0.5000 0.5000
C1B C 0.61343(12) 0.18667(15) 0.1579(3)
H1B H 0.5681 0.1972 0.0868
C2B C 0.64308(11) 0.26491(14) 0.2641(2)
C3B C 0.60147(11) 0.36646(14) 0.2583(2)
C4B C 0.74827(13) 0.15353(18) 0.3670(3)
H2B H 0.7939 0.1426 0.4369
C5B C 0.71068(12) 0.24757(16) 0.3705(3)
H3B H 0.7308 0.2988 0.4440
C6B C 0.65074(15) 0.09291(15) 0.1570(4)
H4B H 0.6301 0.0409 0.0861
C7B C 0.71838(16) 0.07659(17) 0.2610(3)
H5B H 0.7437 0.0139 0.2595
C8B C 0.43390(13) 0.73283(15) 0.3048(3)
H6B H 0.3888 0.6968 0.3414
C9B C 0.43328(15) 0.83711(16) 0.3065(4)
H7B H 0.3878 0.8716 0.3458
O1B O 0.60175(8) 0.41934(10) 0.4000(2)
O1D O 0.60175(8) 0.58066(10) -0.1000(2)
O2B O 0.56912(8) 0.38793(10) 0.10882(19)
O2F O 0.43088(8) 0.61207(10) -0.10882(19)
O3D O 0.5000 0.41744(13) -0.2500
loop_
_geom_bond_atom_site_label_1
_geom_bond_atom_site_label_2
_geom_bond_site_symmetry_1
_geom_bond_site_symmetry_2
Zn1 O1 1_555 1_555
C1 H1 1_555 1_555
C2 C1 1_555 1_555
C3 C2 1_555 1_555
C4 H2 1_555 1_555
C5 C2 1_555 1_555
H3 C5 1_555 1_555
C6 C1 1_555 1_555
H4 C6 1_555 1_555
C7 C4 1_555 1_555
H5 C7 1_555 1_555
C8 H6 1_555 1_555
C9 C8 1_555 1_555
H7 C9 1_555 1_555
C10 C9 1_555 1_555
H8 C10 1_555 1_555
O1 C3 1_555 1_555
O2 C3 1_555 1_555
O3 Zn1 1_555 1_555
N1 C8 1_555 1_555
Zn1B O2 1_555 1_555
C1B H1B 1_555 1_555
C2B C1B 1_555 1_555
C3B C2B 1_555 1_555
C4B H2B 1_555 1_555
C5B C2B 1_555 1_555
H3B C5B 1_555 1_555
C6B C1B 1_555 1_555
H4B C6B 1_555 1_555
C7B C4B 1_555 1_555
H5B C7B 1_555 1_555
C8B N1 1_555 1_555
H6B C8B 1_555 1_555
C9B C10 1_555 1_555
H7B C9B 1_555 1_555
O1B Zn1B 1_555 1_555
O1D Zn1 1_555 1_555
O2B Zn1 1_555 1_555
O2F Zn1 1_555 1_555
O3D Zn1 1_555 1_555
C4 C5 1_555 1_555
C6 C7 1_555 1_555
O3 N1 1_555 1_555
O3 Zn1B 1_555 1_555
C3B O1B 1_555 1_555
C3B O2B 1_555 1_555
C4B C5B 1_555 1_555
C6B C7B 1_555 1_555
C8B C9B 1_555 1_555

#END
