
#######################################################################
#
#                 Cambridge Crystallographic Data Centre
#                                CCDC 
#
#######################################################################
#
# If this CIF has been generated from an entry in the Cambridge 
# Structural Database, then it will include bibliographic, chemical, 
# crystal, experimental, refinement or atomic coordinate data resulting 
# from the CCDC's data processing and validation procedures.
#
#######################################################################

data_IWUZIK
_symmetry_cell_setting           monoclinic
_symmetry_space_group_name_H-M   'C 2/c'
_symmetry_Int_Tables_number      15
_space_group_name_Hall           '-C 2yn'
loop_
_symmetry_equiv_pos_site_id
_symmetry_equiv_pos_as_xyz
1 x,y,z
2 -x,y,1/2-z
3 1/2+x,1/2+y,z
4 1/2-x,1/2+y,1/2-z
5 -x,-y,-z
6 x,-y,1/2+z
7 1/2-x,1/2-y,-z
8 1/2+x,1/2-y,1/2+z
_cell_length_a                   30.0366(10)
_cell_length_b                   10.5820(3)
_cell_length_c                   13.8463(4)
_cell_angle_alpha                90
_cell_angle_beta                 101.925(2)
_cell_angle_gamma                90
_cell_volume                     4306.03
loop_
_atom_site_label
_atom_site_type_symbol
_atom_site_fract_x
_atom_site_fract_y
_atom_site_fract_z
Hg1 Hg 0.109828(5) 0.248466(12) 0.272468(11)
O1 O 0.05045(9) 0.1810(2) 0.1340(2)
O2 O -0.06432(9) -0.6778(2) 0.1090(2)
O3 O 0.15975(10) 0.0314(2) 0.2573(2)
O4 O 0.11770(9) 0.0856(2) 0.36442(19)
O5 O 0.17902(12) 0.3880(3) 0.2850(3)
O6 O 0.11294(11) 0.4232(2) 0.1900(2)
N1 N -0.04871(10) -0.5601(2) 0.1117(2)
N2 N 0.03459(10) 0.0634(2) 0.13042(19)
C1 C -0.01005(13) 0.0429(3) 0.1231(2)
H1 H -0.0297 0.1111 0.1219
C2 C -0.02696(12) -0.0773(3) 0.1173(2)
H2 H -0.0580 -0.0893 0.1124
C3 C 0.00137(11) -0.1831(3) 0.1187(2)
C4 C 0.04678(13) -0.1568(3) 0.1257(3)
H3 H 0.0671 -0.2235 0.1268
C5 C 0.06323(13) -0.0343(3) 0.1311(3)
H4 H 0.0941 -0.0196 0.1353
C6 C -0.01649(11) -0.3136(3) 0.1148(2)
C7 C 0.01272(12) -0.4185(3) 0.1295(2)
H5 H 0.0440 -0.4059 0.1409
C8 C -0.00394(13) -0.5393(3) 0.1274(2)
H6 H 0.0161 -0.6073 0.1369
C9 C -0.07828(14) -0.4627(3) 0.0971(3)
H7 H -0.1094 -0.4781 0.0868
C10 C -0.06249(13) -0.3400(3) 0.0974(3)
H8 H -0.0833 -0.2738 0.0856
C11 C 0.14674(12) 0.0124(3) 0.3338(3)
C12 C 0.16236(12) -0.0988(3) 0.3986(2)
C13 C 0.17871(14) -0.2046(3) 0.3584(3)
H9 H 0.1796 -0.2064 0.2917
C14 C 0.16176(15) -0.0974(3) 0.4982(3)
H10 H 0.1503 -0.0274 0.5255
C15 C 0.14641(14) 0.6324(3) 0.1025(3)
H11 H 0.1154 0.6153 0.0844
C16 C 0.16478(18) 0.7325(4) 0.0606(3)
H12 H 0.1462 0.7825 0.0135
C17 C 0.20978(19) 0.7585(4) 0.0875(4)
H13 H 0.2216 0.8281 0.0604
C18 C 0.17417(13) 0.5572(3) 0.1718(2)
C19 C 0.22008(14) 0.5818(4) 0.1975(3)
H14 H 0.2388 0.5309 0.2435
C20 C 0.17806(16) -0.1995(4) 0.5574(3)
H15 H 0.1783 -0.1973 0.6247
C21 C 0.19371(15) -0.3072(4) 0.4177(3)
H16 H 0.2038 -0.3791 0.3902
C22 C 0.19385(15) -0.3042(4) 0.5164(3)
H17 H 0.2047 -0.3733 0.5559
C23 C 0.15464(15) 0.4492(3) 0.2196(3)
C24 C 0.23836(16) 0.6827(4) 0.1548(3)
H18 H 0.2694 0.6993 0.1711
Hg1A Hg -0.109828(5) -0.751534(12) 0.227532(11)
O2A O 0.06432(9) 0.3222(2) 0.3910(2)
loop_
_geom_bond_atom_site_label_1
_geom_bond_atom_site_label_2
_geom_bond_site_symmetry_1
_geom_bond_site_symmetry_2
Hg1 O1 1_555 1_555
O1 N2 1_555 1_555
O2 N1 1_555 1_555
O3 Hg1 1_555 1_555
O4 Hg1 1_555 1_555
O5 Hg1 1_555 1_555
O6 Hg1 1_555 1_555
N1 C8 1_555 1_555
N2 C1 1_555 1_555
C1 H1 1_555 1_555
C2 C1 1_555 1_555
H2 C2 1_555 1_555
C3 C2 1_555 1_555
C4 C3 1_555 1_555
H3 C4 1_555 1_555
C5 N2 1_555 1_555
H4 C5 1_555 1_555
C6 C3 1_555 1_555
C7 C6 1_555 1_555
H5 C7 1_555 1_555
C8 C7 1_555 1_555
H6 C8 1_555 1_555
C9 N1 1_555 1_555
H7 C9 1_555 1_555
C10 C6 1_555 1_555
H8 C10 1_555 1_555
C11 O3 1_555 1_555
C12 C11 1_555 1_555
C13 C12 1_555 1_555
H9 C13 1_555 1_555
C14 C12 1_555 1_555
H10 C14 1_555 1_555
C15 H11 1_555 1_555
C16 C15 1_555 1_555
H12 C16 1_555 1_555
C17 C16 1_555 1_555
H13 C17 1_555 1_555
C18 C15 1_555 1_555
C19 C18 1_555 1_555
H14 C19 1_555 1_555
C20 C14 1_555 1_555
H15 C20 1_555 1_555
C21 C13 1_555 1_555
H16 C21 1_555 1_555
C22 C20 1_555 1_555
H17 C22 1_555 1_555
C23 O5 1_555 1_555
C24 C17 1_555 1_555
H18 C24 1_555 1_555
Hg1A O2 1_555 1_555
O2A Hg1 1_555 1_555
O4 C11 1_555 1_555
O6 C23 1_555 1_555
C4 C5 1_555 1_555
C9 C10 1_555 1_555
C18 C23 1_555 1_555
C19 C24 1_555 1_555
C21 C22 1_555 1_555

#END
