
#######################################################################
#
#                 Cambridge Crystallographic Data Centre
#                                CCDC 
#
#######################################################################
#
# If this CIF has been generated from an entry in the Cambridge 
# Structural Database, then it will include bibliographic, chemical, 
# crystal, experimental, refinement or atomic coordinate data resulting 
# from the CCDC's data processing and validation procedures.
#
#######################################################################

data_IXACEP01
_symmetry_cell_setting           monoclinic
_symmetry_space_group_name_H-M   'P 21/c'
_symmetry_Int_Tables_number      14
_space_group_name_Hall           '-P 2ybc'
loop_
_symmetry_equiv_pos_site_id
_symmetry_equiv_pos_as_xyz
1 x,y,z
2 -x,1/2+y,1/2-z
3 -x,-y,-z
4 x,1/2-y,1/2+z
_cell_length_a                   17.0671(18)
_cell_length_b                   5.8110(6)
_cell_length_c                   15.9001(17)
_cell_angle_alpha                90
_cell_angle_beta                 97.672(2)
_cell_angle_gamma                90
_cell_volume                     1562.81
loop_
_atom_site_label
_atom_site_type_symbol
_atom_site_fract_x
_atom_site_fract_y
_atom_site_fract_z
Ni1 Ni 0.5000 0.0000 0.0000
Ni2 Ni 0.0000 0.0000 0.0000
S1 S 0.34656(3) 0.21594(12) 0.23263(4)
S2 S 0.82664(3) 0.57501(10) 0.12601(4)
N1 N 0.11393(10) 0.0728(3) 0.06442(11)
N2 N 0.59984(10) 0.1843(3) 0.04206(11)
O1 O 0.43386(9) 0.1623(3) 0.08500(9)
O2 O 0.49952(8) -0.1543(3) 0.12287(9)
O3 O 0.05077(8) -0.2306(3) -0.07887(9)
O4 O 0.06045(10) -0.0056(3) -0.19140(10)
O5 O -0.00011(9) -0.2739(3) 0.08385(10)
C1 C 0.45245(12) 0.0027(4) 0.13739(13)
C2 C 0.41610(13) -0.0070(4) 0.21943(14)
H1 H 0.4584 -0.0001 0.2666
H2 H 0.3899 -0.1543 0.2223
C3 C 0.26107(13) 0.1483(4) 0.16359(13)
C4 C 0.24620(13) -0.0498(4) 0.11573(14)
H3 H 0.2852 -0.1614 0.1154
C5 C 0.17305(13) -0.0803(4) 0.06856(14)
H4 H 0.1642 -0.2159 0.0376
C6 C 0.12970(13) 0.2663(4) 0.10959(15)
H5 H 0.0904 0.3780 0.1073
C7 C 0.20047(14) 0.3088(4) 0.15892(15)
H6 H 0.2078 0.4456 0.1893
C8 C 0.07136(12) -0.1886(4) -0.15108(14)
C9 C 0.11035(12) -0.3850(4) -0.19409(13)
H7 H 0.0689 -0.4766 -0.2257
H8 H 0.1414 -0.3185 -0.2348
C10 C 0.74294(12) 0.4094(4) 0.09382(13)
C11 C 0.68430(13) 0.5081(4) 0.03543(14)
H9 H 0.6925 0.6517 0.0124
C12 C 0.61481(13) 0.3939(4) 0.01209(14)
H10 H 0.5762 0.4642 -0.0262
C13 C 0.65713(13) 0.0877(4) 0.09639(14)
H11 H 0.6480 -0.0580 0.1173
C14 C 0.72832(13) 0.1906(4) 0.12305(14)
H12 H 0.7664 0.1147 0.1603
H13 H -0.0175(17) -0.202(5) 0.1246(14)
H14 H -0.0264(16) -0.397(3) 0.074(2)
Ni2_2 Ni 1.0000 0.0000 0.0000
S1B S 0.65344(3) -0.21594(12) -0.23263(4)
S2B S 0.17336(3) -0.57501(10) -0.12601(4)
N1B N -0.11393(10) -0.0728(3) -0.06442(11)
N1B_2 N 0.88607(10) -0.0728(3) -0.06442(11)
N2B N 0.40016(10) -0.1843(3) -0.04206(11)
O1B O 0.56614(9) -0.1623(3) -0.08500(9)
O2B O 0.50048(8) 0.1543(3) -0.12287(9)
O3B O -0.05077(8) 0.2306(3) 0.07887(9)
O3B_2 O 0.94923(8) 0.2306(3) 0.07887(9)
O4B O 0.93955(10) 0.0056(3) 0.19140(10)
O5B O 0.00011(9) 0.2739(3) -0.08385(10)
C1B C 0.54755(12) -0.0027(4) -0.13739(13)
C2B C 0.58390(13) 0.0070(4) -0.21943(14)
H1B H 0.5416 0.0001 -0.2666
H2B H 0.6101 0.1543 -0.2223
C3B C 0.73893(13) -0.1483(4) -0.16359(13)
C4B C 0.75380(13) 0.0498(4) -0.11573(14)
H3B H 0.7148 0.1614 -0.1154
C5B C 0.82695(13) 0.0803(4) -0.06856(14)
H4B H 0.8358 0.2159 -0.0376
C6B C 0.87030(13) -0.2663(4) -0.10959(15)
H5B H 0.9096 -0.3780 -0.1073
C7B C 0.79953(14) -0.3088(4) -0.15892(15)
H6B H 0.7922 -0.4456 -0.1893
C8B C 0.92864(12) 0.1886(4) 0.15108(14)
C9B C 0.88965(12) 0.3850(4) 0.19409(13)
H7B H 0.9311 0.4766 0.2257
H8B H 0.8586 0.3185 0.2348
C10B C 0.25706(12) -0.4094(4) -0.09382(13)
C11B C 0.31570(13) -0.5081(4) -0.03543(14)
H9B H 0.3075 -0.6517 -0.0124
C12B C 0.38519(13) -0.3939(4) -0.01209(14)
H10B H 0.4238 -0.4642 0.0262
C13B C 0.34287(13) -0.0877(4) -0.09639(14)
H11B H 0.3520 0.0580 -0.1173
C14B C 0.27168(13) -0.1906(4) -0.12305(14)
H12B H 0.2336 -0.1147 -0.1603
H13B H 0.0175(17) 0.202(5) -0.1246(14)
H14B H 0.0264(16) 0.397(3) -0.074(2)
loop_
_geom_bond_atom_site_label_1
_geom_bond_atom_site_label_2
_geom_bond_site_symmetry_1
_geom_bond_site_symmetry_2
Ni1 N2 1_555 1_555
Ni2 N1 1_555 1_555
S1 C2 1_555 1_555
S2 C10 1_555 1_555
N1 C5 1_555 1_555
N2 C12 1_555 1_555
O1 Ni1 1_555 1_555
O2 Ni1 1_555 1_555
O3 Ni2 1_555 1_555
O4 C8 1_555 1_555
O5 Ni2 1_555 1_555
C1 O1 1_555 1_555
C2 C1 1_555 1_555
H1 C2 1_555 1_555
H2 C2 1_555 1_555
C3 S1 1_555 1_555
C4 C3 1_555 1_555
H3 C4 1_555 1_555
C5 C4 1_555 1_555
H4 C5 1_555 1_555
C6 N1 1_555 1_555
H5 C6 1_555 1_555
C7 C3 1_555 1_555
H6 C7 1_555 1_555
C8 O3 1_555 1_555
C9 C8 1_555 1_555
H7 C9 1_555 1_555
H8 C9 1_555 1_555
C10 C11 1_555 1_555
C11 H9 1_555 1_555
C12 C11 1_555 1_555
H10 C12 1_555 1_555
C13 N2 1_555 1_555
H11 C13 1_555 1_555
C14 C10 1_555 1_555
H12 C14 1_555 1_555
H13 O5 1_555 1_555
H14 O5 1_555 1_555
Ni2_2 N1B_2 1_555 1_555
S1B C2B 1_555 1_555
S2B C9 1_555 1_555
N1B Ni2 1_555 1_555
N1B_2 C5B 1_555 1_555
N2B Ni1 1_555 1_555
O1B Ni1 1_555 1_555
O2B Ni1 1_555 1_555
O3B Ni2 1_555 1_555
O3B_2 Ni2_2 1_555 1_555
O4B C8B 1_555 1_555
O5B Ni2 1_555 1_555
C1B O1B 1_555 1_555
C2B C1B 1_555 1_555
H1B C2B 1_555 1_555
H2B C2B 1_555 1_555
C3B S1B 1_555 1_555
C4B C3B 1_555 1_555
H3B C4B 1_555 1_555
C5B C4B 1_555 1_555
H4B C5B 1_555 1_555
C6B N1B_2 1_555 1_555
H5B C6B 1_555 1_555
C7B C3B 1_555 1_555
H6B C7B 1_555 1_555
C8B O3B_2 1_555 1_555
C9B S2 1_555 1_555
H7B C9B 1_555 1_555
H8B C9B 1_555 1_555
C10B S2B 1_555 1_555
C11B C10B 1_555 1_555
H9B C11B 1_555 1_555
C12B N2B 1_555 1_555
H10B C12B 1_555 1_555
C13B N2B 1_555 1_555
H11B C13B 1_555 1_555
C14B C10B 1_555 1_555
H12B C14B 1_555 1_555
H13B O5B 1_555 1_555
H14B O5B 1_555 1_555
O2 C1 1_555 1_555
C6 C7 1_555 1_555
C13 C14 1_555 1_555
O2B C1B 1_555 1_555
C6B C7B 1_555 1_555
C8B C9B 1_555 1_555
C11B C12B 1_555 1_555
C13B C14B 1_555 1_555

#END
