
#######################################################################
#
#                 Cambridge Crystallographic Data Centre
#                                CCDC 
#
#######################################################################
#
# If this CIF has been generated from an entry in the Cambridge 
# Structural Database, then it will include bibliographic, chemical, 
# crystal, experimental, refinement or atomic coordinate data resulting 
# from the CCDC's data processing and validation procedures.
#
#######################################################################

data_IXACOZ02
_symmetry_cell_setting           monoclinic
_symmetry_space_group_name_H-M   'P 21/n'
_symmetry_Int_Tables_number      14
_space_group_name_Hall           '-P 2yn'
loop_
_symmetry_equiv_pos_site_id
_symmetry_equiv_pos_as_xyz
1 x,y,z
2 1/2-x,1/2+y,1/2-z
3 -x,-y,-z
4 1/2+x,1/2-y,1/2+z
_cell_length_a                   12.440(2)
_cell_length_b                   12.605(3)
_cell_length_c                   12.646(3)
_cell_angle_alpha                90
_cell_angle_beta                 95.95(3)
_cell_angle_gamma                90
_cell_volume                     1972.29
loop_
_atom_site_label
_atom_site_type_symbol
_atom_site_fract_x
_atom_site_fract_y
_atom_site_fract_z
Ag1 Ag 0.22947(4) 0.26170(4) 0.39532(4)
Ag2 Ag 0.10174(5) 0.25371(4) 0.77018(4)
O1 O -0.0311(4) 0.2260(5) 0.6213(4)
O2 O 0.1082(5) 0.2344(5) 0.5265(5)
O3 O 0.3786(4) 0.2799(6) 0.5297(4)
O4 O 0.4719(5) 0.2774(6) 0.3909(4)
N1 N 0.1825(5) 0.4144(4) 0.7599(4)
N2 N 0.2283(4) 0.4155(4) 0.3016(4)
N3 N 0.2996(5) 0.5991(4) 0.7384(5)
N4 N 0.2484(4) 0.6009(4) 0.1861(4)
C1 C 0.1812(5) 0.5937(5) 0.2601(6)
H1 H 0.1388(5) 0.6547(5) 0.2741(6)
C2 C 0.1700(5) 0.5017(5) 0.3178(5)
C3 C 0.2976(6) 0.4241(5) 0.2273(6)
H2 H 0.3421(6) 0.3643(5) 0.2141(6)
C4 C 0.3063(6) 0.5162(5) 0.1696(6)
H3 H 0.3566(6) 0.5202(5) 0.1171(6)
C5 C 0.1709(5) 0.4981(5) 0.8223(5)
C6 C 0.2288(6) 0.5889(5) 0.8098(6)
H4 H 0.2182(6) 0.6481(5) 0.8553(6)
C7 C 0.3134(7) 0.5144(5) 0.6798(6)
H5 H 0.3661(7) 0.5168(5) 0.6296(6)
C8 C 0.2540(7) 0.4229(5) 0.6887(6)
H6 H 0.2650(7) 0.3635(5) 0.6435(6)
C9 C 0.0147(5) 0.2202(5) 0.5384(5)
C10 C 0.4619(5) 0.2878(6) 0.4867(5)
C11 C 0.0927(8) 0.4896(7) 0.9040(8)
H7 H 0.0598(8) 0.4206(7) 0.8992(8)
H8 H 0.1302(8) 0.4990(7) 0.9736(8)
H9 H 0.0378(8) 0.5430(7) 0.8915(8)
C12 C 0.0933(8) 0.4959(7) 0.4006(8)
H10 H 0.0965(8) 0.4255(7) 0.4297(8)
H11 H 0.1162(8) 0.5460(7) 0.4556(8)
H12 H 0.0204(8) 0.5116(7) 0.3723(8)
C13 C -0.0610(7) 0.1908(9) 0.4409(7)
F1 F -0.0246(9) 0.2011(13) 0.3541(6)
F2 F -0.0889(12) 0.0956(9) 0.4351(9)
F3 F -0.1486(9) 0.2325(15) 0.4338(10)
F4 F 0.5737(8) 0.2496(10) 0.6410(8)
F5 F 0.5622(8) 0.4029(9) 0.5988(11)
F6 F 0.6510(5) 0.3028(10) 0.5194(7)
C14 C 0.5628(7) 0.3099(9) 0.5606(7)
Ag1A Ag 0.27053(4) 0.76170(4) 0.10468(4)
Ag2C Ag 0.60174(5) 0.24629(4) 0.27018(4)
Ag2A Ag 0.39826(5) 0.75371(4) 0.72982(4)
O4C O -0.0281(5) 0.2226(6) 0.8909(4)
N3A N 0.2004(5) 0.0991(4) 0.7616(5)
N4A N 0.2516(4) 0.1009(4) 0.3139(4)
loop_
_geom_bond_atom_site_label_1
_geom_bond_atom_site_label_2
_geom_bond_site_symmetry_1
_geom_bond_site_symmetry_2
Ag1 O2 1_555 1_555
Ag2 O1 1_555 1_555
O1 C9 1_555 1_555
O2 C9 1_555 1_555
O3 Ag1 1_555 1_555
O4 C10 1_555 1_555
N1 Ag2 1_555 1_555
N2 Ag1 1_555 1_555
N3 C6 1_555 1_555
N4 C1 1_555 1_555
C1 H1 1_555 1_555
C2 N2 1_555 1_555
C3 N2 1_555 1_555
H2 C3 1_555 1_555
C4 N4 1_555 1_555
H3 C4 1_555 1_555
C5 N1 1_555 1_555
C6 C5 1_555 1_555
H4 C6 1_555 1_555
C7 N3 1_555 1_555
H5 C7 1_555 1_555
C8 N1 1_555 1_555
H6 C8 1_555 1_555
C9 C13 1_555 1_555
C10 O3 1_555 1_555
C11 C5 1_555 1_555
H7 C11 1_555 1_555
H8 C11 1_555 1_555
H9 C11 1_555 1_555
C12 C2 1_555 1_555
H10 C12 1_555 1_555
H11 C12 1_555 1_555
H12 C12 1_555 1_555
C13 F1 1_555 1_555
F2 C13 1_555 1_555
F3 C13 1_555 1_555
F4 C14 1_555 1_555
F5 C14 1_555 1_555
F6 C14 1_555 1_555
C14 C10 1_555 1_555
Ag1A N4 1_555 1_555
Ag2C O4 1_555 1_555
Ag2A N3 1_555 1_555
O4C Ag2 1_555 1_555
N3A Ag2 1_555 1_555
N4A Ag1 1_555 1_555
C1 C2 1_555 1_555
C3 C4 1_555 1_555
C7 C8 1_555 1_555

#END
