
#######################################################################
#
#                 Cambridge Crystallographic Data Centre
#                                CCDC 
#
#######################################################################
#
# If this CIF has been generated from an entry in the Cambridge 
# Structural Database, then it will include bibliographic, chemical, 
# crystal, experimental, refinement or atomic coordinate data resulting 
# from the CCDC's data processing and validation procedures.
#
#######################################################################

data_IXACAL
_symmetry_cell_setting           triclinic
_symmetry_space_group_name_H-M   'P -1'
_symmetry_Int_Tables_number      2
_space_group_name_Hall           '-P 1'
loop_
_symmetry_equiv_pos_site_id
_symmetry_equiv_pos_as_xyz
1 x,y,z
2 -x,-y,-z
_cell_length_a                   8.1693(4)
_cell_length_b                   10.3430(5)
_cell_length_c                   10.6876(5)
_cell_angle_alpha                67.3710(10)
_cell_angle_beta                 73.1760(10)
_cell_angle_gamma                86.8250(10)
_cell_volume                     796.249
loop_
_atom_site_label
_atom_site_type_symbol
_atom_site_fract_x
_atom_site_fract_y
_atom_site_fract_z
Ni1 Ni 0.50718(3) 0.71247(3) 0.78110(3)
S1 S 0.87796(9) 0.76461(7) 1.06171(8)
S2 S 0.07987(7) 0.77873(6) 0.41886(6)
O1 O 0.6400(2) 0.6852(2) 0.9294(2)
O2 O 0.7493(2) 0.8390(2) 0.7145(2)
O3 O 0.4218(2) 0.7779(2) 0.6082(2)
O4 O 0.1770(2) 0.6469(2) 0.6941(2)
O5 O 0.2967(2) 0.5799(2) 0.9134(2)
N1 N 0.6162(2) 1.1238(2) 1.1669(2)
N2 N 0.3642(2) 0.4463(2) 0.2762(2)
C1 C 0.7555(3) 0.7773(2) 0.8382(2)
C2 C 0.9081(3) 0.8081(3) 0.8771(3)
C3 C 0.7725(3) 0.9048(2) 1.0942(2)
C4 C 0.7327(3) 1.0240(2) 0.9941(2)
C5 C 0.6569(3) 1.1294(2) 1.0348(2)
C6 C 0.6526(3) 1.0068(2) 1.2639(2)
C7 C 0.7296(3) 0.8973(2) 1.2329(2)
C8 C 0.2769(3) 0.7468(2) 0.6042(2)
C9 C 0.2249(3) 0.8486(2) 0.4777(2)
C10 C 0.1975(3) 0.6541(2) 0.3642(2)
C11 C 0.1141(3) 0.5710(2) 0.3235(2)
C12 C 0.2002(3) 0.4707(2) 0.2810(2)
C13 C 0.4442(3) 0.5272(2) 0.3149(3)
C14 C 0.3678(3) 0.6307(2) 0.3585(2)
H1 H 0.240(3) 0.583(3) 0.857(3)
H2 H 0.320(4) 0.498(2) 0.959(3)
H3 H 0.9418 0.9074 0.8268
H4 H 1.0026 0.7572 0.8436
H5 H 0.7568 1.0328 0.9005
H6 H 0.6326 1.2094 0.9658
H7 H 0.6239 0.9996 1.3572
H8 H 0.7530 0.8187 1.3039
H9 H 0.3279 0.8868 0.3992
H10 H 0.1728 0.9260 0.5013
H11 H 0.0000 0.5832 0.3250
H12 H 0.1414 0.4164 0.2539
H13 H 0.5584 0.5127 0.3123
H14 H 0.4297 0.6844 0.3840
N1A N 0.3838(2) 0.8762(2) 0.8331(2)
N2A N 0.6358(2) 0.5537(2) 0.7238(2)
Ni1A Ni 0.49282(3) 1.28753(3) 1.21890(3)
Ni1A_2 Ni 0.49282(3) 0.28753(3) 0.21890(3)
loop_
_geom_bond_atom_site_label_1
_geom_bond_atom_site_label_2
_geom_bond_site_symmetry_1
_geom_bond_site_symmetry_2
Ni1 O1 1_555 1_555
S1 C2 1_555 1_555
S2 C9 1_555 1_555
O1 C1 1_555 1_555
O2 Ni1 1_555 1_555
O3 Ni1 1_555 1_555
O4 C8 1_555 1_555
O5 Ni1 1_555 1_555
N1 C5 1_555 1_555
N2 C12 1_555 1_555
C1 O2 1_555 1_555
C2 C1 1_555 1_555
C3 S1 1_555 1_555
C4 C3 1_555 1_555
C5 C4 1_555 1_555
C6 N1 1_555 1_555
C7 C3 1_555 1_555
C8 O3 1_555 1_555
C9 C8 1_555 1_555
C10 S2 1_555 1_555
C11 C10 1_555 1_555
C12 C11 1_555 1_555
C13 N2 1_555 1_555
C14 C10 1_555 1_555
H1 O5 1_555 1_555
H2 O5 1_555 1_555
H3 C2 1_555 1_555
H4 C2 1_555 1_555
H5 C4 1_555 1_555
H6 C5 1_555 1_555
H7 C6 1_555 1_555
H8 C7 1_555 1_555
H9 C9 1_555 1_555
H10 C9 1_555 1_555
H11 C11 1_555 1_555
H12 C12 1_555 1_555
H13 C13 1_555 1_555
H14 C14 1_555 1_555
N1A Ni1 1_555 1_555
N2A Ni1 1_555 1_555
Ni1A N1 1_555 1_555
Ni1A_2 N2 1_555 1_555
C6 C7 1_555 1_555
C13 C14 1_555 1_555

#END
