
#######################################################################
#
#                 Cambridge Crystallographic Data Centre
#                                CCDC 
#
#######################################################################
#
# If this CIF has been generated from an entry in the Cambridge 
# Structural Database, then it will include bibliographic, chemical, 
# crystal, experimental, refinement or atomic coordinate data resulting 
# from the CCDC's data processing and validation procedures.
#
#######################################################################

data_IXACEP
_symmetry_cell_setting           monoclinic
_symmetry_space_group_name_H-M   'P 21/a'
_symmetry_Int_Tables_number      14
_space_group_name_Hall           '-P 2yab'
loop_
_symmetry_equiv_pos_site_id
_symmetry_equiv_pos_as_xyz
1 x,y,z
2 1/2+x,1/2-y,z
3 -x,-y,-z
4 1/2-x,1/2+y,-z
_cell_length_a                   15.7750(10)
_cell_length_b                   5.7314(4)
_cell_length_c                   16.9500(10)
_cell_angle_alpha                90
_cell_angle_beta                 97.7260(10)
_cell_angle_gamma                90
_cell_volume                     1518.59
loop_
_atom_site_label
_atom_site_type_symbol
_atom_site_fract_x
_atom_site_fract_y
_atom_site_fract_z
Ni1 Ni 0.5000 0.5000 0.5000
Ni2 Ni 0.5000 0.5000 1.0000
S1 S 0.26539(5) 0.2913(2) 0.65254(5)
S2 S 0.62588(5) 1.08210(10) 0.82686(4)
O1 O 0.41360(10) 0.3410(4) 0.56610(10)
O2 O 0.37750(10) 0.6599(4) 0.49930(10)
O3 O 0.57900(10) 0.7346(4) 0.94970(10)
O4 O 0.6920(2) 0.5073(4) 0.93990(10)
O5 O 0.4158(2) 0.7740(4) 0.99940(10)
N1 N 0.4356(2) 0.4287(5) 0.88550(10)
N2 N 0.5423(2) 0.6867(4) 0.5996(2)
C1 C 0.3620(2) 0.5023(5) 0.5469(2)
C2 C 0.2792(2) 0.5177(6) 0.5830(2)
C3 C 0.3355(2) 0.3564(5) 0.7382(2)
C4 C 0.3838(2) 0.5570(6) 0.7535(2)
C5 C 0.4321(2) 0.5854(6) 0.8266(2)
C6 C 0.3901(2) 0.2322(5) 0.8698(2)
C7 C 0.3401(2) 0.1916(6) 0.7986(2)
C8 C 0.6512(2) 0.6922(5) 0.9292(2)
C9 C 0.6951(2) 0.8906(6) 0.8899(2)
C10 C 0.5936(2) 0.9147(5) 0.7429(2)
C11 C 0.5346(2) 1.0146(5) 0.6843(2)
C12 C 0.5112(2) 0.8971(5) 0.6144(2)
C13 C 0.5964(2) 0.5885(6) 0.6573(2)
C14 C 0.6230(2) 0.6933(6) 0.7288(2)
H1 H 0.374(2) 0.707(6) 1.018(2)
H2 H 0.429(2) 0.899(4) 1.025(2)
H3 H 0.2316 0.5130 0.5404
H4 H 0.2774 0.6671 0.6097
H5 H 0.3836 0.6715 0.7146
H6 H 0.4642 0.7213 0.8356
H7 H 0.3926 0.1183 0.9091
H8 H 0.3093 0.0534 0.7907
H9 H 0.7359 0.8227 0.8585
H10 H 0.7272 0.9834 0.9316
H11 H 0.5111 1.1601 0.6924
H12 H 0.4720 0.9666 0.5755
H13 H 0.6172 0.4403 0.6485
H14 H 0.6604 0.6168 0.7674
S1B S 0.73461(5) 0.7087(2) 0.34746(5)
O1B O 0.58640(10) 0.6590(4) 0.43390(10)
O2B O 0.62250(10) 0.3401(4) 0.50070(10)
N1B N 0.5644(2) 0.5713(5) 0.11450(10)
C1B C 0.6380(2) 0.4977(5) 0.4531(2)
C2B C 0.7208(2) 0.4823(6) 0.4170(2)
C3B C 0.6645(2) 0.6436(5) 0.2618(2)
C4B C 0.6162(2) 0.4430(6) 0.2465(2)
C5B C 0.5679(2) 0.4146(6) 0.1734(2)
C6B C 0.6099(2) 0.7678(5) 0.1302(2)
C7B C 0.6599(2) 0.8084(6) 0.2014(2)
H3B H 0.7684 0.4870 0.4596
H4B H 0.7226 0.3329 0.3903
H5B H 0.6164 0.3285 0.2854
H6B H 0.5358 0.2787 0.1644
H7B H 0.6074 0.8817 0.0909
H8B H 0.6907 0.9466 0.2093
S2B S 0.37412(5) -0.08210(10) 0.17314(4)
O3B O 0.42100(10) 0.2654(4) 0.05030(10)
O4B O 0.3080(2) 0.4927(4) 0.06010(10)
N2B N 0.4577(2) 0.3133(4) 0.4004(2)
C8B C 0.3488(2) 0.3078(5) 0.0708(2)
C9B C 0.3049(2) 0.1094(6) 0.1101(2)
C10B C 0.4064(2) 0.0853(5) 0.2571(2)
C11B C 0.4654(2) -0.0146(5) 0.3157(2)
C12B C 0.4888(2) 0.1029(5) 0.3856(2)
C13B C 0.4036(2) 0.4115(6) 0.3427(2)
C14B C 0.3770(2) 0.3067(6) 0.2712(2)
H9B H 0.2641 0.1773 0.1415
H10B H 0.2728 0.0166 0.0684
H11B H 0.4889 -0.1601 0.3076
H12B H 0.5280 0.0334 0.4245
H13B H 0.3828 0.5597 0.3515
H14B H 0.3396 0.3832 0.2326
O5B O 0.5842(2) 0.2260(4) 1.00060(10)
H1B H 0.626(2) 0.293(6) 0.982(2)
H2B H 0.571(2) 0.101(4) 0.975(2)
O3B_2 O 0.42100(10) 0.2654(4) 1.05030(10)
N1B_2 N 0.5644(2) 0.5713(5) 1.11450(10)
Ni2_2 Ni 0.5000 0.5000 0.0000
loop_
_geom_bond_atom_site_label_1
_geom_bond_atom_site_label_2
_geom_bond_site_symmetry_1
_geom_bond_site_symmetry_2
Ni1 O1 1_555 1_555
Ni2 O3 1_555 1_555
S1 C2 1_555 1_555
S2 C9 1_555 1_555
O1 C1 1_555 1_555
O2 Ni1 1_555 1_555
O3 C8 1_555 1_555
O4 C8 1_555 1_555
O5 Ni2 1_555 1_555
N1 Ni2 1_555 1_555
N2 Ni1 1_555 1_555
C1 O2 1_555 1_555
C2 C1 1_555 1_555
C3 S1 1_555 1_555
C4 C3 1_555 1_555
C5 N1 1_555 1_555
C6 N1 1_555 1_555
C7 C3 1_555 1_555
C8 C9 1_555 1_555
C9 H9 1_555 1_555
C10 S2 1_555 1_555
C11 C10 1_555 1_555
C12 N2 1_555 1_555
C13 N2 1_555 1_555
C14 C10 1_555 1_555
H1 O5 1_555 1_555
H2 O5 1_555 1_555
H3 C2 1_555 1_555
H4 C2 1_555 1_555
H5 C4 1_555 1_555
H6 C5 1_555 1_555
H7 C6 1_555 1_555
H8 C7 1_555 1_555
H10 C9 1_555 1_555
H11 C11 1_555 1_555
H12 C12 1_555 1_555
H13 C13 1_555 1_555
H14 C14 1_555 1_555
S1B C2B 1_555 1_555
O1B Ni1 1_555 1_555
O2B Ni1 1_555 1_555
N1B C5B 1_555 1_555
C1B O1B 1_555 1_555
C2B C1B 1_555 1_555
C3B S1B 1_555 1_555
C4B C3B 1_555 1_555
C5B C4B 1_555 1_555
C6B N1B 1_555 1_555
C7B C3B 1_555 1_555
H3B C2B 1_555 1_555
H4B C2B 1_555 1_555
H5B C4B 1_555 1_555
H6B C5B 1_555 1_555
H7B C6B 1_555 1_555
H8B C7B 1_555 1_555
S2B C9B 1_555 1_555
O3B C8B 1_555 1_555
O4B C8B 1_555 1_555
N2B Ni1 1_555 1_555
C8B C9B 1_555 1_555
C9B H9B 1_555 1_555
C10B S2B 1_555 1_555
C11B C10B 1_555 1_555
C12B N2B 1_555 1_555
C13B N2B 1_555 1_555
C14B C10B 1_555 1_555
H10B C9B 1_555 1_555
H11B C11B 1_555 1_555
H12B C12B 1_555 1_555
H13B C13B 1_555 1_555
H14B C14B 1_555 1_555
O5B Ni2 1_555 1_555
H1B O5B 1_555 1_555
H2B O5B 1_555 1_555
O3B_2 Ni2 1_555 1_555
N1B_2 Ni2 1_555 1_555
Ni2_2 N1B 1_555 1_555
C4 C5 1_555 1_555
C6 C7 1_555 1_555
C11 C12 1_555 1_555
C13 C14 1_555 1_555
O2B C1B 1_555 1_555
C6B C7B 1_555 1_555
O3B Ni2_2 1_555 1_555
C11B C12B 1_555 1_555
C13B C14B 1_555 1_555

#END
