
#######################################################################
#
#                 Cambridge Crystallographic Data Centre
#                                CCDC 
#
#######################################################################
#
# If this CIF has been generated from an entry in the Cambridge 
# Structural Database, then it will include bibliographic, chemical, 
# crystal, experimental, refinement or atomic coordinate data resulting 
# from the CCDC's data processing and validation procedures.
#
#######################################################################

data_IXAKEY
_symmetry_cell_setting           triclinic
_symmetry_space_group_name_H-M   'P -1'
_symmetry_Int_Tables_number      2
_space_group_name_Hall           '-P 1'
loop_
_symmetry_equiv_pos_site_id
_symmetry_equiv_pos_as_xyz
1 x,y,z
2 -x,-y,-z
_cell_length_a                   9.8567(3)
_cell_length_b                   16.1182(5)
_cell_length_c                   17.1430(5)
_cell_angle_alpha                64.3460(10)
_cell_angle_beta                 74.7280(10)
_cell_angle_gamma                83.2070(10)
_cell_volume                     2368.35
loop_
_atom_site_label
_atom_site_type_symbol
_atom_site_fract_x
_atom_site_fract_y
_atom_site_fract_z
Fe1 Fe 0.587181(18) 0.646642(12) 0.655649(11)
C1 C 0.63118(15) 0.61287(10) 0.76941(9)
N1 N 0.65631(16) 0.59170(11) 0.83754(9)
C2 C 0.78130(14) 0.62515(9) 0.60621(8)
N2 N 0.89229(12) 0.60756(8) 0.57424(8)
C3 C 0.61577(14) 0.77592(9) 0.62246(8)
N3 N 0.62696(14) 0.85367(8) 0.60119(8)
C4 C 0.38910(14) 0.66215(9) 0.70643(8)
N4 N 0.27274(13) 0.67012(8) 0.73809(8)
C5 C 0.55964(13) 0.68318(8) 0.53682(9)
N5 N 0.55241(13) 0.70628(8) 0.46427(8)
C6 C 0.55418(13) 0.51818(9) 0.68644(8)
N6 N 0.53865(13) 0.44236(8) 0.70221(8)
Cu1 Cu 0.5000 0.5000 1.0000
N7 N 0.66845(11) 0.47210(8) 1.05408(7)
H1 H 0.6347 0.4434 1.1141
N8 N 0.49373(12) 0.37337(8) 1.00147(7)
H2 H 0.4450 0.3386 1.0578
C7 C 0.88109(15) 0.64695(10) 1.07141(9)
H3 H 0.9473 0.6398 1.1070
H4 H 0.9286 0.6786 1.0091
C8 C 0.83403(15) 0.55235(10) 1.08922(9)
H5 H 0.7924 0.5190 1.1523
H6 H 0.9149 0.5176 1.0728
C9 C 0.72668(14) 0.56162(9) 1.03572(9)
H7 H 0.7727 0.5914 0.9722
C10 C 0.77632(14) 0.40983(10) 1.02941(10)
H8 H 0.8497 0.3989 1.0610
H9 H 0.8188 0.4391 0.9661
C11 C 0.71302(15) 0.31848(10) 1.05174(10)
H10 H 0.6541 0.2966 1.1118
H11 H 0.7890 0.2743 1.0517
C12 C 0.62561(15) 0.31911(10) 0.99012(9)
H12 H 0.5986 0.2555 1.0088
C13 C 0.70668(16) 0.35500(12) 0.89363(10)
H13 H 0.6540 0.3438 0.8594
H14 H 0.7959 0.3240 0.8896
H15 H 0.7215 0.4199 0.8708
C14 C 0.60250(14) 0.62083(9) 1.05512(9)
H16 H 0.5529 0.5890 1.1177
C15 C 0.64933(16) 0.71466(10) 1.04011(10)
H17 H 0.6908 0.7495 0.9773
H18 H 0.5681 0.7486 1.0575
C16 C 0.75645(16) 0.70413(10) 1.09401(10)
H19 H 0.7124 0.6746 1.1571
H20 H 0.7885 0.7644 1.0810
Cu2 Cu 1.0000 0.5000 0.5000
N9 N 1.15173(11) 0.59479(7) 0.42099(7)
H21 H 1.2101 0.5729 0.3832
N10 N 0.88195(11) 0.58102(7) 0.41146(7)
H22 H 0.8279 0.6149 0.4391
C17 C 1.31313(13) 0.52848(9) 0.52377(9)
H23 H 1.3900 0.5477 0.5376
H24 H 1.3540 0.4964 0.4864
C18 C 1.23866(13) 0.61401(9) 0.47023(9)
H25 H 1.1788 0.6387 0.5101
H26 H 1.3081 0.6603 0.4281
C19 C 1.08201(14) 0.67939(8) 0.36635(8)
H27 H 1.0302 0.7080 0.4057
C20 C 1.18320(15) 0.75120(9) 0.28900(9)
H28 H 1.2495 0.7693 0.3117
H29 H 1.2359 0.7249 0.2486
C21 C 1.10089(17) 0.83556(10) 0.23897(11)
H30 H 1.0532 0.8640 0.2785
H31 H 1.1656 0.8802 0.1893
C22 C 0.99335(17) 0.80888(11) 0.20458(10)
H32 H 1.0419 0.7869 0.1600
H33 H 0.9387 0.8627 0.1764
C23 C 0.89482(15) 0.73417(10) 0.27966(10)
H34 H 0.8337 0.7147 0.2547
H35 H 0.8362 0.7594 0.3195
C24 C 0.97542(13) 0.65064(9) 0.33277(8)
H36 H 1.0259 0.6216 0.2935
C25 C 1.22361(14) 0.46070(9) 0.61009(9)
H37 H 1.2857 0.4111 0.6390
C26 C 1.15413(16) 0.50306(10) 0.67465(9)
H38 H 1.1153 0.4552 0.7319
H39 H 1.2228 0.5367 0.6800
H40 H 1.0803 0.5441 0.6528
Cu3 Cu 0.5000 1.0000 0.5000
N11 N 0.70123(13) 1.01860(8) 0.42346(8)
H41 H 0.7478 0.9685 0.4557
N12 N 0.44298(13) 0.91755(8) 0.45287(8)
H42 H 0.4722 0.8599 0.4851
C27 C 0.92199(16) 1.10283(11) 0.39567(11)
H43 H 0.9489 1.1148 0.3331
H44 H 0.9633 1.0444 0.4286
C28 C 0.76284(15) 1.09663(9) 0.42758(9)
H45 H 0.7230 1.1541 0.3898
C29 C 0.73662(17) 1.01797(10) 0.33360(10)
H46 H 0.8387 1.0100 0.3166
C30 C 0.66661(17) 0.93519(10) 0.33906(10)
H47 H 0.7029 0.9298 0.2831
H48 H 0.6948 0.8801 0.3852
C31 C 0.50710(17) 0.93736(10) 0.35817(10)
H49 H 0.4763 0.9976 0.3206
H50 H 0.4754 0.8922 0.3437
C32 C 0.71388(16) 1.08564(9) 0.52358(10)
H51 H 0.7488 1.0264 0.5619
C33 C 0.77268(17) 1.16169(11) 0.53540(12)
H52 H 0.7329 1.2204 0.5017
H53 H 0.7455 1.1506 0.5978
C34 C 0.93284(17) 1.16598(11) 0.50395(12)
H54 H 0.9732 1.1095 0.5413
H55 H 0.9669 1.2167 0.5096
C35 C 0.97923(17) 1.17895(12) 0.40828(12)
H56 H 0.9461 1.2382 0.3704
H57 H 1.0812 1.1787 0.3906
C36 C 0.69715(18) 1.10852(10) 0.26382(10)
H58 H 0.6016 1.1241 0.2847
H59 H 0.7065 1.1025 0.2093
H60 H 0.7584 1.1562 0.2534
Fe1A Fe 0.412819(18) 0.353358(12) 1.344351(11)
C1A C 0.36882(15) 0.38713(10) 1.23059(9)
N1A N 0.34369(16) 0.40830(11) 1.16246(9)
C2A C 0.21870(14) 0.37485(9) 1.39379(8)
N2A N 0.10771(12) 0.39244(8) 1.42576(8)
N2A_2 N 1.10771(12) 0.39244(8) 0.42576(8)
C3A C 0.38423(14) 0.22408(9) 1.37754(8)
N3A N 0.37304(14) 0.14633(8) 1.39881(8)
N3A_2 N 0.37304(14) 1.14633(8) 0.39881(8)
C4A C 0.61090(14) 0.33785(9) 1.29357(8)
N4A N 0.72726(13) 0.32988(8) 1.26191(8)
C5A C 0.44036(13) 0.31682(8) 1.46318(9)
N5A N 0.44759(13) 0.29372(8) 1.53573(8)
C6A C 0.44582(13) 0.48182(9) 1.31356(8)
N6A N 0.46135(13) 0.55764(8) 1.29779(8)
N7A N 0.33155(11) 0.52790(8) 0.94592(7)
H1A H 0.3653 0.5566 0.8859
N8A N 0.50627(12) 0.62663(8) 0.99853(7)
H2A H 0.5550 0.6614 0.9422
C7A C 0.11891(15) 0.35305(10) 0.92859(9)
H3A H 0.0527 0.3602 0.8930
H4A H 0.0714 0.3214 0.9909
C8A C 0.16597(15) 0.44765(10) 0.91078(9)
H5A H 0.2076 0.4810 0.8477
H6A H 0.0851 0.4824 0.9272
C9A C 0.27332(14) 0.43838(9) 0.96428(9)
H7A H 0.2273 0.4086 1.0278
C10A C 0.22368(14) 0.59017(10) 0.97059(10)
H8A H 0.1503 0.6011 0.9390
H9A H 0.1812 0.5609 1.0339
C11A C 0.28698(15) 0.68152(10) 0.94826(10)
H10A H 0.3459 0.7034 0.8882
H11A H 0.2110 0.7257 0.9483
C12A C 0.37439(15) 0.68089(10) 1.00988(9)
H12A H 0.4014 0.7445 0.9912
C13A C 0.29332(16) 0.64500(12) 1.10637(10)
H13A H 0.3460 0.6562 1.1406
H14A H 0.2041 0.6760 1.1104
H15A H 0.2785 0.5801 1.1292
C14A C 0.39750(14) 0.37917(9) 0.94488(9)
H16A H 0.4471 0.4110 0.8823
C15A C 0.35067(16) 0.28534(10) 0.95989(10)
H17A H 0.3092 0.2505 1.0227
H18A H 0.4319 0.2514 0.9425
C16A C 0.24355(16) 0.29587(10) 0.90599(10)
H19A H 0.2876 0.3254 0.8429
H20A H 0.2115 0.2356 0.9190
Cu2_2 Cu 0.0000 0.5000 1.5000
N9A N 0.84827(11) 0.40521(7) 0.57901(7)
H21A H 0.7899 0.4271 0.6168
N10A N 1.11805(11) 0.41898(7) 0.58854(7)
H22A H 1.1721 0.3851 0.5609
C17A C 0.68687(13) 0.47152(9) 0.47623(9)
H23A H 0.6100 0.4523 0.4624
H24A H 0.6460 0.5036 0.5136
C18A C 0.76134(13) 0.38599(9) 0.52977(9)
H25A H 0.8212 0.3613 0.4899
H26A H 0.6919 0.3397 0.5719
C19A C 0.91799(14) 0.32061(8) 0.63365(8)
H27A H 0.9698 0.2920 0.5943
C20A C 0.81680(15) 0.24880(9) 0.71100(9)
H28A H 0.7505 0.2307 0.6883
H29A H 0.7641 0.2751 0.7514
C21A C 0.89911(17) 0.16444(10) 0.76103(11)
H30A H 0.9468 0.1360 0.7215
H31A H 0.8344 0.1198 0.8107
C22A C 1.00665(17) 0.19112(11) 0.79542(10)
H32A H 0.9581 0.2131 0.8400
H33A H 1.0613 0.1373 0.8236
C23A C 1.10518(15) 0.26583(10) 0.72034(10)
H34A H 1.1663 0.2853 0.7453
H35A H 1.1638 0.2406 0.6805
C24A C 1.02458(13) 0.34936(9) 0.66723(8)
H36A H 0.9741 0.3784 0.7065
C25A C 0.77639(14) 0.53930(9) 0.38991(9)
H37A H 0.7143 0.5889 0.3610
C26A C 0.84587(16) 0.49694(10) 0.32535(9)
H38A H 0.8847 0.5448 0.2681
H39A H 0.7772 0.4633 0.3200
H40A H 0.9197 0.4559 0.3472
Cu3_2 Cu 0.5000 0.0000 1.5000
N11A N 0.29877(13) 0.98140(8) 0.57654(8)
H41A H 0.2522 1.0315 0.5443
N12A N 0.55702(13) 1.08245(8) 0.54713(8)
H42A H 0.5278 1.1401 0.5149
C27A C 0.07801(16) 0.89717(11) 0.60433(11)
H43A H 0.0511 0.8852 0.6669
H44A H 0.0367 0.9556 0.5714
C28A C 0.23716(15) 0.90337(9) 0.57242(9)
H45A H 0.2770 0.8459 0.6102
C29A C 0.26338(17) 0.98203(10) 0.66640(10)
H46A H 0.1613 0.9900 0.6834
C30A C 0.33339(17) 1.06481(10) 0.66094(10)
H47A H 0.2971 1.0702 0.7169
H48A H 0.3052 1.1199 0.6148
C31A C 0.49290(17) 1.06264(10) 0.64183(10)
H49A H 0.5237 1.0024 0.6794
H50A H 0.5246 1.1078 0.6563
C32A C 0.28612(16) 0.91436(9) 0.47642(10)
H51A H 0.2512 0.9736 0.4381
C33A C 0.22732(17) 0.83831(11) 0.46460(12)
H52A H 0.2671 0.7796 0.4983
H53A H 0.2545 0.8494 0.4022
C34A C 0.06716(17) 0.83402(11) 0.49605(12)
H54A H 0.0268 0.8905 0.4587
H55A H 0.0331 0.7833 0.4904
C35A C 0.02077(17) 0.82105(12) 0.59172(12)
H56A H 0.0539 0.7618 0.6296
H57A H -0.0812 0.8213 0.6094
C36A C 0.30285(18) 0.89148(10) 0.73618(10)
H58A H 0.3984 0.8759 0.7153
H59A H 0.2935 0.8975 0.7907
H60A H 0.2416 0.8438 0.7466
loop_
_geom_bond_atom_site_label_1
_geom_bond_atom_site_label_2
_geom_bond_site_symmetry_1
_geom_bond_site_symmetry_2
Fe1 C1 1_555 1_555
C1 N1 1_555 1_555
N1 Cu1 1_555 1_555
C2 Fe1 1_555 1_555
N2 C2 1_555 1_555
C3 Fe1 1_555 1_555
N3 C3 1_555 1_555
C4 Fe1 1_555 1_555
N4 C4 1_555 1_555
C5 Fe1 1_555 1_555
N5 C5 1_555 1_555
C6 Fe1 1_555 1_555
N6 C6 1_555 1_555
Cu1 N7 1_555 1_555
N7 H1 1_555 1_555
N8 Cu1 1_555 1_555
H2 N8 1_555 1_555
C7 H3 1_555 1_555
H4 C7 1_555 1_555
C8 C7 1_555 1_555
H5 C8 1_555 1_555
H6 C8 1_555 1_555
C9 N7 1_555 1_555
H7 C9 1_555 1_555
C10 N7 1_555 1_555
H8 C10 1_555 1_555
H9 C10 1_555 1_555
C11 C10 1_555 1_555
H10 C11 1_555 1_555
H11 C11 1_555 1_555
C12 N8 1_555 1_555
H12 C12 1_555 1_555
C13 C12 1_555 1_555
H13 C13 1_555 1_555
H14 C13 1_555 1_555
H15 C13 1_555 1_555
C14 C9 1_555 1_555
H16 C14 1_555 1_555
C15 C14 1_555 1_555
H17 C15 1_555 1_555
H18 C15 1_555 1_555
C16 C7 1_555 1_555
H19 C16 1_555 1_555
H20 C16 1_555 1_555
Cu2 N2 1_555 1_555
N9 Cu2 1_555 1_555
H21 N9 1_555 1_555
N10 Cu2 1_555 1_555
H22 N10 1_555 1_555
C17 H23 1_555 1_555
H24 C17 1_555 1_555
C18 N9 1_555 1_555
H25 C18 1_555 1_555
H26 C18 1_555 1_555
C19 N9 1_555 1_555
H27 C19 1_555 1_555
C20 C19 1_555 1_555
H28 C20 1_555 1_555
H29 C20 1_555 1_555
C21 C20 1_555 1_555
H30 C21 1_555 1_555
H31 C21 1_555 1_555
C22 C21 1_555 1_555
H32 C22 1_555 1_555
H33 C22 1_555 1_555
C23 C22 1_555 1_555
H34 C23 1_555 1_555
H35 C23 1_555 1_555
C24 N10 1_555 1_555
H36 C24 1_555 1_555
C25 C17 1_555 1_555
H37 C25 1_555 1_555
C26 C25 1_555 1_555
H38 C26 1_555 1_555
H39 C26 1_555 1_555
H40 C26 1_555 1_555
Cu3 N3 1_555 1_555
N11 Cu3 1_555 1_555
H41 N11 1_555 1_555
N12 Cu3 1_555 1_555
H42 N12 1_555 1_555
C27 H43 1_555 1_555
H44 C27 1_555 1_555
C28 N11 1_555 1_555
H45 C28 1_555 1_555
C29 N11 1_555 1_555
H46 C29 1_555 1_555
C30 C29 1_555 1_555
H47 C30 1_555 1_555
H48 C30 1_555 1_555
C31 N12 1_555 1_555
H49 C31 1_555 1_555
H50 C31 1_555 1_555
C32 C28 1_555 1_555
H51 C32 1_555 1_555
C33 C32 1_555 1_555
H52 C33 1_555 1_555
H53 C33 1_555 1_555
C34 C33 1_555 1_555
H54 C34 1_555 1_555
H55 C34 1_555 1_555
C35 C27 1_555 1_555
H56 C35 1_555 1_555
H57 C35 1_555 1_555
C36 C29 1_555 1_555
H58 C36 1_555 1_555
H59 C36 1_555 1_555
H60 C36 1_555 1_555
Fe1A C1A 1_555 1_555
C1A N1A 1_555 1_555
N1A Cu1 1_555 1_555
C2A Fe1A 1_555 1_555
N2A C2A 1_555 1_555
N2A_2 Cu2 1_555 1_555
C3A Fe1A 1_555 1_555
N3A C3A 1_555 1_555
N3A_2 Cu3 1_555 1_555
C4A Fe1A 1_555 1_555
N4A C4A 1_555 1_555
C5A Fe1A 1_555 1_555
N5A C5A 1_555 1_555
C6A Fe1A 1_555 1_555
N6A C6A 1_555 1_555
N7A Cu1 1_555 1_555
H1A N7A 1_555 1_555
N8A Cu1 1_555 1_555
H2A N8A 1_555 1_555
C7A H3A 1_555 1_555
H4A C7A 1_555 1_555
C8A C7A 1_555 1_555
H5A C8A 1_555 1_555
H6A C8A 1_555 1_555
C9A N7A 1_555 1_555
H7A C9A 1_555 1_555
C10A N7A 1_555 1_555
H8A C10A 1_555 1_555
H9A C10A 1_555 1_555
C11A C10A 1_555 1_555
H10A C11A 1_555 1_555
H11A C11A 1_555 1_555
C12A N8A 1_555 1_555
H12A C12A 1_555 1_555
C13A C12A 1_555 1_555
H13A C13A 1_555 1_555
H14A C13A 1_555 1_555
H15A C13A 1_555 1_555
C14A N8 1_555 1_555
H16A C14A 1_555 1_555
C15A C14A 1_555 1_555
H17A C15A 1_555 1_555
H18A C15A 1_555 1_555
C16A C7A 1_555 1_555
H19A C16A 1_555 1_555
H20A C16A 1_555 1_555
Cu2_2 N2A 1_555 1_555
N9A Cu2 1_555 1_555
H21A N9A 1_555 1_555
N10A Cu2 1_555 1_555
H22A N10A 1_555 1_555
C17A H23A 1_555 1_555
H24A C17A 1_555 1_555
C18A N9A 1_555 1_555
H25A C18A 1_555 1_555
H26A C18A 1_555 1_555
C19A N9A 1_555 1_555
H27A C19A 1_555 1_555
C20A C19A 1_555 1_555
H28A C20A 1_555 1_555
H29A C20A 1_555 1_555
C21A C20A 1_555 1_555
H30A C21A 1_555 1_555
H31A C21A 1_555 1_555
C22A C21A 1_555 1_555
H32A C22A 1_555 1_555
H33A C22A 1_555 1_555
C23A C22A 1_555 1_555
H34A C23A 1_555 1_555
H35A C23A 1_555 1_555
C24A N10A 1_555 1_555
H36A C24A 1_555 1_555
C25A N10 1_555 1_555
H37A C25A 1_555 1_555
C26A C25A 1_555 1_555
H38A C26A 1_555 1_555
H39A C26A 1_555 1_555
H40A C26A 1_555 1_555
Cu3_2 N3A 1_555 1_555
N11A Cu3 1_555 1_555
H41A N11A 1_555 1_555
N12A Cu3 1_555 1_555
H42A N12A 1_555 1_555
C27A H43A 1_555 1_555
H44A C27A 1_555 1_555
C28A N11A 1_555 1_555
H45A C28A 1_555 1_555
C29A N11A 1_555 1_555
H46A C29A 1_555 1_555
C30A C29A 1_555 1_555
H47A C30A 1_555 1_555
H48A C30A 1_555 1_555
C31A N12A 1_555 1_555
H49A C31A 1_555 1_555
H50A C31A 1_555 1_555
C32A N12 1_555 1_555
H51A C32A 1_555 1_555
C33A C32A 1_555 1_555
H52A C33A 1_555 1_555
H53A C33A 1_555 1_555
C34A C33A 1_555 1_555
H54A C34A 1_555 1_555
H55A C34A 1_555 1_555
C35A C27A 1_555 1_555
H56A C35A 1_555 1_555
H57A C35A 1_555 1_555
C36A C29A 1_555 1_555
H58A C36A 1_555 1_555
H59A C36A 1_555 1_555
H60A C36A 1_555 1_555
C8 C9 1_555 1_555
C11 C12 1_555 1_555
C14 N8A 1_555 1_555
C15 C16 1_555 1_555
C17 C18 1_555 1_555
C19 C24 1_555 1_555
C23 C24 1_555 1_555
C25 N10A 1_555 1_555
C27 C28 1_555 1_555
C30 C31 1_555 1_555
C32 N12A 1_555 1_555
C34 C35 1_555 1_555
C8A C9A 1_555 1_555
C9A C14A 1_555 1_555
C11A C12A 1_555 1_555
C15A C16A 1_555 1_555
C17A C18A 1_555 1_555
C17A C25A 1_555 1_555
C19A C24A 1_555 1_555
C23A C24A 1_555 1_555
C27A C28A 1_555 1_555
C28A C32A 1_555 1_555
C30A C31A 1_555 1_555
C34A C35A 1_555 1_555

#END
