
#######################################################################
#
#                 Cambridge Crystallographic Data Centre
#                                CCDC 
#
#######################################################################
#
# If this CIF has been generated from an entry in the Cambridge 
# Structural Database, then it will include bibliographic, chemical, 
# crystal, experimental, refinement or atomic coordinate data resulting 
# from the CCDC's data processing and validation procedures.
#
#######################################################################

data_IXAKOI
_symmetry_cell_setting           triclinic
_symmetry_space_group_name_H-M   'P -1'
_symmetry_Int_Tables_number      2
_space_group_name_Hall           '-P 1'
loop_
_symmetry_equiv_pos_site_id
_symmetry_equiv_pos_as_xyz
1 x,y,z
2 -x,-y,-z
_cell_length_a                   10.1330(3)
_cell_length_b                   16.2955(4)
_cell_length_c                   17.4383(5)
_cell_angle_alpha                65.0090(10)
_cell_angle_beta                 76.1640(10)
_cell_angle_gamma                81.9440(10)
_cell_volume                     2531.63
loop_
_atom_site_label
_atom_site_type_symbol
_atom_site_fract_x
_atom_site_fract_y
_atom_site_fract_z
Cr1 Cr 0.58941(4) 0.64417(3) 0.15730(3)
C1 C 0.6300(3) 0.6090(2) 0.2786(2)
N1 N 0.6465(3) 0.5865(2) 0.34747(18)
C2 C 0.7906(3) 0.62062(18) 0.10934(17)
N2 N 0.8978(2) 0.60485(17) 0.07638(16)
C3 C 0.6209(3) 0.7804(2) 0.12094(18)
N3 N 0.6338(3) 0.85634(19) 0.09685(18)
C4 C 0.5587(3) 0.68096(17) 0.0328(2)
N4 N 0.5510(2) 0.70379(16) -0.03797(17)
C5 C 0.3858(3) 0.66406(18) 0.20693(19)
N5 N 0.2753(3) 0.67394(18) 0.23833(18)
C6 C 0.5573(3) 0.5099(2) 0.18988(17)
N6 N 0.5439(3) 0.43439(18) 0.20697(16)
Cu1 Cu 0.5000 1.0000 0.0000
N7 N 0.3067(2) 0.98205(15) 0.07093(16)
H1 H 0.2595 1.0319 0.0395
N8 N 0.5488(3) 1.08271(15) 0.04795(17)
H2 H 0.5188 1.1395 0.0158
C7 C 0.9100(4) 1.1576(3) 0.0177(3)
H3 H 0.9419 1.2067 0.0252
H4 H 0.9483 1.1011 0.0553
C8 C 0.7556(4) 1.1574(2) 0.0432(3)
H5 H 0.7175 1.2161 0.0092
H6 H 0.7278 1.1475 0.1036
C9 C 0.7003(3) 1.0839(2) 0.0290(2)
H7 H 0.7351 1.0250 0.0669
C10 C 0.4865(4) 1.0650(2) 0.1392(2)
H8 H 0.5129 1.1108 0.1537
H9 H 0.5204 1.0065 0.1765
C11 C 0.3331(4) 1.0658(2) 0.1551(2)
H10 H 0.3022 1.1190 0.1096
H11 H 0.2964 1.0720 0.2091
C12 C 0.2735(4) 0.9832(2) 0.1590(2)
H12 H 0.1743 0.9903 0.1746
C13 C 0.3170(4) 0.8950(2) 0.2267(2)
H13 H 0.2618 0.8475 0.2350
H14 H 0.3062 0.9013 0.2802
H15 H 0.4108 0.8801 0.2079
C14 C 0.2501(3) 0.9062(2) 0.0639(2)
H16 H 0.2890 0.8490 0.1016
C15 C 0.0973(3) 0.9033(2) 0.0903(3)
H17 H 0.0572 0.9621 0.0581
H18 H 0.0704 0.8912 0.1512
C16 C 0.9576(4) 1.1689(3) -0.0740(3)
H19 H 0.9277 1.2284 -0.1120
H20 H 1.0563 1.1650 -0.0874
Cu2 Cu 0.5000 0.5000 0.5000
N9 N 0.4972(2) 0.37615(16) 0.49911(15)
H21 H 0.4511 0.3431 0.5532
N10 N 0.3376(2) 0.53012(17) 0.44322(15)
H22 H 0.3705 0.5577 0.3854
C17 C 0.4028(3) 0.3820(2) 0.44288(18)
H23 H 0.4501 0.4106 0.3826
C18 C 0.3570(3) 0.2903(2) 0.4579(2)
H24 H 0.3165 0.2585 0.5184
H25 H 0.4353 0.2540 0.4434
C19 C 0.2531(4) 0.3025(3) 0.4023(2)
H26 H 0.2966 0.3288 0.3417
H27 H 0.2215 0.2438 0.4149
C20 C 0.1330(4) 0.3631(3) 0.4193(2)
H28 H 0.0851 0.3345 0.4786
H29 H 0.0707 0.3713 0.3819
C21 C 0.1787(3) 0.4548(2) 0.4031(2)
H30 H 0.1005 0.4913 0.4172
H31 H 0.2189 0.4860 0.3424
C22 C 0.2831(3) 0.4440(2) 0.45802(18)
H32 H 0.2380 0.4161 0.5189
C23 C 0.2327(3) 0.5938(2) 0.4651(2)
H33 H 0.1916 0.5660 0.5260
H34 H 0.1619 0.6054 0.4325
C24 C 0.6255(3) 0.3199(2) 0.4911(2)
H35 H 0.5993 0.2579 0.5085
C25 C 0.7035(3) 0.3515(3) 0.3992(2)
H36 H 0.6527 0.3407 0.3647
H37 H 0.7899 0.3189 0.3975
H38 H 0.7176 0.4152 0.3768
C26 C 0.2904(3) 0.6833(2) 0.4459(2)
H39 H 0.3467 0.7046 0.3883
H40 H 0.2154 0.7275 0.4455
Cu3 Cu 1.0000 0.5000 0.0000
N11 N 1.12596(18) 0.42267(13) 0.08278(13)
H41 H 1.1761 0.3880 0.0558
N12 N 0.86133(19) 0.40759(13) 0.07898(13)
H42 H 0.8080 0.4308 0.1158
C27 C 1.0429(2) 0.35571(17) 0.16074(16)
H43 H 0.9963 0.3868 0.1978
C28 C 1.1257(3) 0.27487(19) 0.21357(19)
H44 H 1.1785 0.2460 0.1768
H45 H 1.1887 0.2960 0.2346
C29 C 1.0363(3) 0.2064(2) 0.2892(2)
H46 H 0.9926 0.2328 0.3300
H47 H 1.0920 0.1540 0.3183
C30 C 0.9286(3) 0.1765(2) 0.2607(2)
H48 H 0.8690 0.1358 0.3111
H49 H 0.9718 0.1436 0.2255
C31 C 0.8448(3) 0.25738(19) 0.20921(19)
H50 H 0.7798 0.2366 0.1892
H51 H 0.7943 0.2867 0.2462
C32 C 0.9351(2) 0.32499(16) 0.13238(16)
H52 H 0.9820 0.2943 0.0951
C33 C 0.7688(2) 0.38676(18) 0.03510(18)
H53 H 0.7056 0.3421 0.0781
H54 H 0.8223 0.3606 -0.0039
C34 C 1.2323(2) 0.46430(18) 0.10081(17)
H55 H 1.2966 0.4154 0.1273
C35 C 0.6896(2) 0.47026(18) -0.01521(18)
H56 H 0.6127 0.4508 -0.0265
H57 H 0.6534 0.5031 0.0211
C36 C 1.1727(3) 0.5078(2) 0.16356(19)
H58 H 1.1000 0.5502 0.1431
H59 H 1.2420 0.5391 0.1682
H60 H 1.1381 0.4619 0.2192
Cr1A Cr 0.41059(4) 1.35583(3) -0.15730(3)
C1A C 0.3700(3) 1.3910(2) -0.2786(2)
N1A N 0.3535(3) 1.4135(2) -0.34747(18)
N1A_2 N 0.3535(3) 0.4135(2) 0.65253(18)
C2A C 0.2094(3) 1.37938(18) -0.10934(17)
N2A N 0.1022(2) 1.39515(17) -0.07638(16)
N2A_2 N 1.1022(2) 0.39515(17) -0.07638(16)
C3A C 0.3791(3) 1.2196(2) -0.12094(18)
N3A N 0.3662(3) 1.14366(19) -0.09685(18)
C4A C 0.4413(3) 1.31904(17) -0.0328(2)
N4A N 0.4490(2) 1.29621(16) 0.03797(17)
C5A C 0.6142(3) 1.33594(18) -0.20693(19)
N5A N 0.7247(3) 1.32606(18) -0.23833(18)
C6A C 0.4427(3) 1.4901(2) -0.18988(17)
N6A N 0.4561(3) 1.56561(18) -0.20697(16)
N7A N 0.6933(2) 1.01795(15) -0.07093(16)
H1A H 0.7405 0.9681 -0.0395
N8A N 0.4512(3) 0.91729(15) -0.04795(17)
H2A H 0.4812 0.8605 -0.0158
C7A C 0.0900(4) 0.8424(3) -0.0177(3)
H3A H 0.0581 0.7933 -0.0252
H4A H 0.0517 0.8989 -0.0553
C8A C 0.2444(4) 0.8426(2) -0.0432(3)
H5A H 0.2825 0.7839 -0.0092
H6A H 0.2722 0.8525 -0.1036
C9A C 0.2997(3) 0.9161(2) -0.0290(2)
H7A H 0.2649 0.9750 -0.0669
C10A C 0.5135(4) 0.9350(2) -0.1392(2)
H8A H 0.4871 0.8892 -0.1537
H9A H 0.4796 0.9935 -0.1765
C11A C 0.6669(4) 0.9342(2) -0.1551(2)
H10A H 0.6978 0.8810 -0.1096
H11A H 0.7036 0.9280 -0.2091
C12A C 0.7265(4) 1.0168(2) -0.1590(2)
H12A H 0.8257 1.0097 -0.1746
C13A C 0.6830(4) 1.1050(2) -0.2267(2)
H13A H 0.7382 1.1525 -0.2350
H14A H 0.6938 1.0987 -0.2802
H15A H 0.5892 1.1199 -0.2079
C14A C 0.7499(3) 1.0938(2) -0.0639(2)
H16A H 0.7110 1.1510 -0.1016
C15A C 0.9027(3) 1.0967(2) -0.0903(3)
H17A H 0.9428 1.0379 -0.0581
H18A H 0.9296 1.1088 -0.1512
C16A C 0.0424(4) 0.8311(3) 0.0740(3)
H19A H 0.0723 0.7716 0.1120
H20A H -0.0563 0.8350 0.0874
Cu2_2 Cu 0.5000 1.5000 -0.5000
N9A N 0.5028(2) 0.62385(16) 0.50089(15)
H21A H 0.5489 0.6569 0.4468
N10A N 0.6624(2) 0.46988(17) 0.55678(15)
H22A H 0.6295 0.4423 0.6146
C17A C 0.5972(3) 0.6180(2) 0.55712(18)
H23A H 0.5499 0.5894 0.6174
C18A C 0.6430(3) 0.7097(2) 0.5421(2)
H24A H 0.6835 0.7415 0.4816
H25A H 0.5647 0.7460 0.5566
C19A C 0.7469(4) 0.6975(3) 0.5977(2)
H26A H 0.7034 0.6712 0.6583
H27A H 0.7785 0.7562 0.5851
C20A C 0.8670(4) 0.6369(3) 0.5807(2)
H28A H 0.9149 0.6655 0.5214
H29A H 0.9293 0.6287 0.6181
C21A C 0.8213(3) 0.5452(2) 0.5969(2)
H30A H 0.8995 0.5087 0.5828
H31A H 0.7811 0.5140 0.6576
C22A C 0.7169(3) 0.5560(2) 0.54198(18)
H32A H 0.7620 0.5839 0.4811
C23A C 0.7673(3) 0.4062(2) 0.5349(2)
H33A H 0.8084 0.4340 0.4740
H34A H 0.8381 0.3946 0.5675
C24A C 0.3745(3) 0.6801(2) 0.5089(2)
H35A H 0.4007 0.7421 0.4915
C25A C 0.2965(3) 0.6485(3) 0.6008(2)
H36A H 0.3473 0.6593 0.6353
H37A H 0.2101 0.6811 0.6025
H38A H 0.2824 0.5848 0.6232
C26A C 0.7096(3) 0.3167(2) 0.5541(2)
H39A H 0.6533 0.2954 0.6117
H40A H 0.7846 0.2725 0.5545
Cu3_2 Cu 0.0000 1.5000 0.0000
N11A N 0.87404(18) 0.57733(13) -0.08278(13)
H41A H 0.8239 0.6120 -0.0558
N12A N 1.13867(19) 0.59241(13) -0.07898(13)
H42A H 1.1920 0.5692 -0.1158
C27A C 0.9571(2) 0.64429(17) -0.16074(16)
H43A H 1.0037 0.6132 -0.1978
C28A C 0.8743(3) 0.72513(19) -0.21357(19)
H44A H 0.8215 0.7540 -0.1768
H45A H 0.8113 0.7040 -0.2346
C29A C 0.9637(3) 0.7936(2) -0.2892(2)
H46A H 1.0074 0.7672 -0.3300
H47A H 0.9080 0.8460 -0.3183
C30A C 1.0714(3) 0.8235(2) -0.2607(2)
H48A H 1.1310 0.8642 -0.3111
H49A H 1.0282 0.8564 -0.2255
C31A C 1.1552(3) 0.74262(19) -0.20921(19)
H50A H 1.2202 0.7634 -0.1892
H51A H 1.2057 0.7133 -0.2462
C32A C 1.0649(2) 0.67501(16) -0.13238(16)
H52A H 1.0180 0.7057 -0.0951
C33A C 1.2312(2) 0.61324(18) -0.03510(18)
H53A H 1.2944 0.6579 -0.0781
H54A H 1.1777 0.6394 0.0039
C34A C 0.7677(2) 0.53570(18) -0.10081(17)
H55A H 0.7034 0.5846 -0.1273
C35A C 1.3104(2) 0.52974(18) 0.01521(18)
H56A H 1.3873 0.5492 0.0265
H57A H 1.3466 0.4969 -0.0211
C36A C 0.8273(3) 0.4922(2) -0.16356(19)
H58A H 0.9000 0.4498 -0.1431
H59A H 0.7580 0.4609 -0.1682
H60A H 0.8619 0.5381 -0.2192
loop_
_geom_bond_atom_site_label_1
_geom_bond_atom_site_label_2
_geom_bond_site_symmetry_1
_geom_bond_site_symmetry_2
Cr1 C1 1_555 1_555
C1 N1 1_555 1_555
N1 Cu2 1_555 1_555
C2 Cr1 1_555 1_555
N2 C2 1_555 1_555
C3 Cr1 1_555 1_555
N3 C3 1_555 1_555
C4 Cr1 1_555 1_555
N4 C4 1_555 1_555
C5 Cr1 1_555 1_555
N5 C5 1_555 1_555
C6 Cr1 1_555 1_555
N6 C6 1_555 1_555
Cu1 N3 1_555 1_555
N7 Cu1 1_555 1_555
H1 N7 1_555 1_555
N8 Cu1 1_555 1_555
H2 N8 1_555 1_555
C7 H3 1_555 1_555
H4 C7 1_555 1_555
C8 C7 1_555 1_555
H5 C8 1_555 1_555
H6 C8 1_555 1_555
C9 N8 1_555 1_555
H7 C9 1_555 1_555
C10 N8 1_555 1_555
H8 C10 1_555 1_555
H9 C10 1_555 1_555
C11 C10 1_555 1_555
H10 C11 1_555 1_555
H11 C11 1_555 1_555
C12 N7 1_555 1_555
H12 C12 1_555 1_555
C13 C12 1_555 1_555
H13 C13 1_555 1_555
H14 C13 1_555 1_555
H15 C13 1_555 1_555
C14 N7 1_555 1_555
H16 C14 1_555 1_555
C15 C14 1_555 1_555
H17 C15 1_555 1_555
H18 C15 1_555 1_555
C16 C7 1_555 1_555
H19 C16 1_555 1_555
H20 C16 1_555 1_555
Cu2 N9 1_555 1_555
N9 H21 1_555 1_555
N10 Cu2 1_555 1_555
H22 N10 1_555 1_555
C17 N9 1_555 1_555
H23 C17 1_555 1_555
C18 C17 1_555 1_555
H24 C18 1_555 1_555
H25 C18 1_555 1_555
C19 C18 1_555 1_555
H26 C19 1_555 1_555
H27 C19 1_555 1_555
C20 C19 1_555 1_555
H28 C20 1_555 1_555
H29 C20 1_555 1_555
C21 C20 1_555 1_555
H30 C21 1_555 1_555
H31 C21 1_555 1_555
C22 N10 1_555 1_555
H32 C22 1_555 1_555
C23 N10 1_555 1_555
H33 C23 1_555 1_555
H34 C23 1_555 1_555
C24 N9 1_555 1_555
H35 C24 1_555 1_555
C25 C24 1_555 1_555
H36 C25 1_555 1_555
H37 C25 1_555 1_555
H38 C25 1_555 1_555
C26 C23 1_555 1_555
H39 C26 1_555 1_555
H40 C26 1_555 1_555
Cu3 N2 1_555 1_555
N11 Cu3 1_555 1_555
H41 N11 1_555 1_555
N12 Cu3 1_555 1_555
H42 N12 1_555 1_555
C27 N11 1_555 1_555
H43 C27 1_555 1_555
C28 C27 1_555 1_555
H44 C28 1_555 1_555
H45 C28 1_555 1_555
C29 C28 1_555 1_555
H46 C29 1_555 1_555
H47 C29 1_555 1_555
C30 C29 1_555 1_555
H48 C30 1_555 1_555
H49 C30 1_555 1_555
C31 C30 1_555 1_555
H50 C31 1_555 1_555
H51 C31 1_555 1_555
C32 N12 1_555 1_555
H52 C32 1_555 1_555
C33 N12 1_555 1_555
H53 C33 1_555 1_555
H54 C33 1_555 1_555
C34 N11 1_555 1_555
H55 C34 1_555 1_555
C35 C33 1_555 1_555
H56 C35 1_555 1_555
H57 C35 1_555 1_555
C36 C34 1_555 1_555
H58 C36 1_555 1_555
H59 C36 1_555 1_555
H60 C36 1_555 1_555
Cr1A C1A 1_555 1_555
C1A N1A 1_555 1_555
N1A Cu2_2 1_555 1_555
N1A_2 Cu2 1_555 1_555
C2A Cr1A 1_555 1_555
N2A C2A 1_555 1_555
N2A_2 Cu3 1_555 1_555
C3A Cr1A 1_555 1_555
N3A Cu1 1_555 1_555
C4A Cr1A 1_555 1_555
N4A C4A 1_555 1_555
C5A Cr1A 1_555 1_555
N5A C5A 1_555 1_555
C6A Cr1A 1_555 1_555
N6A C6A 1_555 1_555
N7A Cu1 1_555 1_555
H1A N7A 1_555 1_555
N8A Cu1 1_555 1_555
H2A N8A 1_555 1_555
C7A H3A 1_555 1_555
H4A C7A 1_555 1_555
C8A C7A 1_555 1_555
H5A C8A 1_555 1_555
H6A C8A 1_555 1_555
C9A C14 1_555 1_555
H7A C9A 1_555 1_555
C10A N8A 1_555 1_555
H8A C10A 1_555 1_555
H9A C10A 1_555 1_555
C11A C10A 1_555 1_555
H10A C11A 1_555 1_555
H11A C11A 1_555 1_555
C12A N7A 1_555 1_555
H12A C12A 1_555 1_555
C13A C12A 1_555 1_555
H13A C13A 1_555 1_555
H14A C13A 1_555 1_555
H15A C13A 1_555 1_555
C14A C9 1_555 1_555
H16A C14A 1_555 1_555
C15A C16 1_555 1_555
H17A C15A 1_555 1_555
H18A C15A 1_555 1_555
C16A C15 1_555 1_555
H19A C16A 1_555 1_555
H20A C16A 1_555 1_555
N9A Cu2 1_555 1_555
H21A N9A 1_555 1_555
N10A Cu2 1_555 1_555
H22A N10A 1_555 1_555
C17A N9A 1_555 1_555
H23A C17A 1_555 1_555
C18A C17A 1_555 1_555
H24A C18A 1_555 1_555
H25A C18A 1_555 1_555
C19A C18A 1_555 1_555
H26A C19A 1_555 1_555
H27A C19A 1_555 1_555
C20A C19A 1_555 1_555
H28A C20A 1_555 1_555
H29A C20A 1_555 1_555
C21A C20A 1_555 1_555
H30A C21A 1_555 1_555
H31A C21A 1_555 1_555
C22A N10A 1_555 1_555
H32A C22A 1_555 1_555
C23A N10A 1_555 1_555
H33A C23A 1_555 1_555
H34A C23A 1_555 1_555
C24A C26 1_555 1_555
H35A C24A 1_555 1_555
C25A C24A 1_555 1_555
H36A C25A 1_555 1_555
H37A C25A 1_555 1_555
H38A C25A 1_555 1_555
C26A C24 1_555 1_555
H39A C26A 1_555 1_555
H40A C26A 1_555 1_555
Cu3_2 N2A 1_555 1_555
N11A Cu3 1_555 1_555
H41A N11A 1_555 1_555
N12A Cu3 1_555 1_555
H42A N12A 1_555 1_555
C27A N11A 1_555 1_555
H43A C27A 1_555 1_555
C28A C27A 1_555 1_555
H44A C28A 1_555 1_555
H45A C28A 1_555 1_555
C29A C28A 1_555 1_555
H46A C29A 1_555 1_555
H47A C29A 1_555 1_555
C30A C29A 1_555 1_555
H48A C30A 1_555 1_555
H49A C30A 1_555 1_555
C31A C30A 1_555 1_555
H50A C31A 1_555 1_555
H51A C31A 1_555 1_555
C32A N12A 1_555 1_555
H52A C32A 1_555 1_555
C33A N12A 1_555 1_555
H53A C33A 1_555 1_555
H54A C33A 1_555 1_555
C34A C35 1_555 1_555
H55A C34A 1_555 1_555
C35A C34 1_555 1_555
H56A C35A 1_555 1_555
H57A C35A 1_555 1_555
C36A C34A 1_555 1_555
H58A C36A 1_555 1_555
H59A C36A 1_555 1_555
H60A C36A 1_555 1_555
C8 C9 1_555 1_555
C11 C12 1_555 1_555
C17 C22 1_555 1_555
C21 C22 1_555 1_555
C27 C32 1_555 1_555
C31 C32 1_555 1_555
C3A N3A 1_555 1_555
N7A C14A 1_555 1_555
N8A C9A 1_555 1_555
C7A C16A 1_555 1_555
C8A C9A 1_555 1_555
C11A C12A 1_555 1_555
C14A C15A 1_555 1_555
N9A C24A 1_555 1_555
C17A C22A 1_555 1_555
C21A C22A 1_555 1_555
C23A C26A 1_555 1_555
N11A C34A 1_555 1_555
C27A C32A 1_555 1_555
C31A C32A 1_555 1_555
C33A C35A 1_555 1_555

#END
