
#######################################################################
#
#                 Cambridge Crystallographic Data Centre
#                                CCDC 
#
#######################################################################
#
# If this CIF has been generated from an entry in the Cambridge 
# Structural Database, then it will include bibliographic, chemical, 
# crystal, experimental, refinement or atomic coordinate data resulting 
# from the CCDC's data processing and validation procedures.
#
#######################################################################

data_IXEBIW
_symmetry_cell_setting           monoclinic
_symmetry_space_group_name_H-M   'P 21'
_symmetry_Int_Tables_number      4
_space_group_name_Hall           'P 2yb'
loop_
_symmetry_equiv_pos_site_id
_symmetry_equiv_pos_as_xyz
1 x,y,z
2 -x,1/2+y,-z
_cell_length_a                   10.3670(9)
_cell_length_b                   7.5199(8)
_cell_length_c                   18.5409(12)
_cell_angle_alpha                90
_cell_angle_beta                 95.913(6)
_cell_angle_gamma                90
_cell_volume                     1437.74
loop_
_atom_site_label
_atom_site_type_symbol
_atom_site_fract_x
_atom_site_fract_y
_atom_site_fract_z
Zn1 Zn 0.94754(4) 0.11628(5) 0.26392(2)
N1 N 0.8047(3) -0.4977(4) 0.03508(15)
C1 C 0.7748(3) -0.3263(5) 0.0533(2)
N2 N 0.7907(3) -0.1847(4) 0.0134(2)
C2 C 0.8475(4) -0.2055(5) -0.0481(2)
C3 C 0.8850(3) -0.3788(6) -0.07254(14)
C4 C 0.8611(4) -0.5329(5) -0.0285(2)
C5 C 0.7686(5) -0.6491(6) 0.0792(2)
H1 H 0.7971(5) -0.7578(6) 0.0589(2)
H2 H 0.6761(5) -0.6519(6) 0.0797(2)
H3 H 0.8090(5) -0.6362(6) 0.1279(2)
N3 N 0.7205(3) -0.3072(5) 0.11541(14)
H4 H 0.7240(3) -0.3960(5) 0.14480(14)
C6 C 0.6562(4) -0.1460(6) 0.1364(2)
H5 H 0.6368(4) -0.0753(6) 0.0922(2)
C7 C 0.7384(4) -0.0284(5) 0.1907(2)
O1 O 0.8470(2) -0.0876(4) 0.21955(13)
O2 O 0.6956(3) 0.1197(6) 0.2021(2)
C8 C 0.5249(4) -0.1932(9) 0.1640(3)
H6 H 0.4855(4) -0.0828(9) 0.1792(3)
C9 C 0.5417(5) -0.3167(12) 0.2287(3)
H7 H 0.5989(5) -0.2630(12) 0.2666(3)
H8 H 0.5779(5) -0.4274(12) 0.2147(3)
H9 H 0.4589(5) -0.3381(12) 0.2460(3)
C10 C 0.4375(6) -0.2714(18) 0.1054(5)
H10 H 0.4275(6) -0.1908(18) 0.0651(5)
H11 H 0.3544(6) -0.2930(18) 0.1223(5)
H12 H 0.4732(6) -0.3816(18) 0.0905(5)
N4 N 0.8675(3) -0.0627(5) -0.0859(2)
H13 H 0.8445(3) 0.0398(5) -0.0711(2)
H14 H 0.9036(3) -0.0715(5) -0.1255(2)
N5 N 0.9420(3) -0.4193(4) -0.13164(15)
O3 O 0.9703(3) -0.2890(4) -0.17306(13)
O4 O 0.8844(3) -0.6859(4) -0.04453(15)
N6 N 1.1761(3) -0.2561(4) 0.52575(14)
C11 C 1.2134(3) -0.0927(5) 0.4997(2)
N7 N 1.2106(3) 0.0576(4) 0.53709(14)
C12 C 1.1796(4) 0.0525(5) 0.6060(2)
C13 C 1.1567(4) -0.1140(5) 0.6397(2)
C14 C 1.1533(4) -0.2756(5) 0.5973(2)
C15 C 1.1674(5) -0.4147(5) 0.4797(2)
H15 H 1.1853(5) -0.3831(5) 0.4316(2)
H16 H 1.0816(5) -0.4638(5) 0.4780(2)
H17 H 1.2294(5) -0.5014(5) 0.4993(2)
N8 N 1.2538(3) -0.0898(4) 0.43483(15)
H18 H 1.2585(3) -0.1880(4) 0.41142(15)
C16 C 1.2914(3) 0.0777(4) 0.4011(2)
H19 H 1.3143(3) 0.1654(4) 0.4394(2)
C17 C 1.1737(4) 0.1464(5) 0.3520(2)
O5 O 1.1090(3) 0.0286(4) 0.31538(15)
O6 O 1.1489(3) 0.3052(5) 0.3515(2)
C18 C 1.4099(4) 0.0474(7) 0.3588(2)
H20 H 1.3877(4) -0.0429(7) 0.3215(2)
C19 C 1.4460(7) 0.2152(10) 0.3228(4)
H21 H 1.3733(7) 0.2571(10) 0.2911(4)
H22 H 1.5176(7) 0.1926(10) 0.2951(4)
H23 H 1.4705(7) 0.3037(10) 0.3589(4)
C20 C 1.5228(5) -0.0166(15) 0.4079(4)
H24 H 1.5007(5) -0.1263(15) 0.4301(4)
H25 H 1.5454(5) 0.0707(15) 0.4448(4)
H26 H 1.5952(5) -0.0357(15) 0.3805(4)
N9 N 1.1686(4) 0.2032(5) 0.6402(2)
H27 H 1.1811(4) 0.3021(5) 0.6187(2)
H28 H 1.1490(4) 0.2032(5) 0.6842(2)
N10 N 1.1253(3) -0.1375(4) 0.70798(14)
O7 O 1.1296(3) -0.0062(4) 0.75071(13)
O8 O 1.1306(3) -0.4219(3) 0.62178(14)
O3A O 1.0297(3) 0.2110(4) 0.17306(13)
N10A N 0.8747(3) 0.3625(4) 0.29202(14)
O8A O 0.8694(3) 0.0781(3) 0.37822(14)
Zn1A Zn 1.05246(4) -0.38372(5) -0.26392(2)
Zn1A_2 Zn 1.05246(4) -0.38372(5) 0.73608(2)
O9 O 0.9231(4) 0.1985(5) 0.8078(2)
O10 O 0.7572(3) 0.1478(5) 0.6776(2)
loop_
_geom_bond_atom_site_label_1
_geom_bond_atom_site_label_2
_geom_bond_site_symmetry_1
_geom_bond_site_symmetry_2
Zn1 O1 1_555 1_555
N1 C1 1_555 1_555
C1 N2 1_555 1_555
N2 C2 1_555 1_555
C2 C3 1_555 1_555
C3 C4 1_555 1_555
C4 N1 1_555 1_555
C5 N1 1_555 1_555
H1 C5 1_555 1_555
H2 C5 1_555 1_555
H3 C5 1_555 1_555
N3 C1 1_555 1_555
H4 N3 1_555 1_555
C6 N3 1_555 1_555
H5 C6 1_555 1_555
C7 C6 1_555 1_555
O1 C7 1_555 1_555
O2 C7 1_555 1_555
C8 C6 1_555 1_555
H6 C8 1_555 1_555
C9 C8 1_555 1_555
H7 C9 1_555 1_555
H8 C9 1_555 1_555
H9 C9 1_555 1_555
C10 C8 1_555 1_555
H10 C10 1_555 1_555
H11 C10 1_555 1_555
H12 C10 1_555 1_555
N4 C2 1_555 1_555
H13 N4 1_555 1_555
H14 N4 1_555 1_555
N5 C3 1_555 1_555
O3 N5 1_555 1_555
O4 C4 1_555 1_555
N6 C11 1_555 1_555
C11 N7 1_555 1_555
N7 C12 1_555 1_555
C12 C13 1_555 1_555
C13 C14 1_555 1_555
C14 N6 1_555 1_555
C15 N6 1_555 1_555
H15 C15 1_555 1_555
H16 C15 1_555 1_555
H17 C15 1_555 1_555
N8 C11 1_555 1_555
H18 N8 1_555 1_555
C16 N8 1_555 1_555
H19 C16 1_555 1_555
C17 C16 1_555 1_555
O5 Zn1 1_555 1_555
O6 C17 1_555 1_555
C18 C16 1_555 1_555
H20 C18 1_555 1_555
C19 C18 1_555 1_555
H21 C19 1_555 1_555
H22 C19 1_555 1_555
H23 C19 1_555 1_555
C20 C18 1_555 1_555
H24 C20 1_555 1_555
H25 C20 1_555 1_555
H26 C20 1_555 1_555
N9 C12 1_555 1_555
H27 N9 1_555 1_555
H28 N9 1_555 1_555
N10 C13 1_555 1_555
O7 N10 1_555 1_555
O8 C14 1_555 1_555
O3A Zn1 1_555 1_555
N10A Zn1 1_555 1_555
O8A Zn1 1_555 1_555
Zn1A O3 1_555 1_555
Zn1A_2 N10 1_555 1_555
C17 O5 1_555 1_555
O8 Zn1A_2 1_555 1_555

#END
