
#######################################################################
#
#                 Cambridge Crystallographic Data Centre
#                                CCDC 
#
#######################################################################
#
# If this CIF has been generated from an entry in the Cambridge 
# Structural Database, then it will include bibliographic, chemical, 
# crystal, experimental, refinement or atomic coordinate data resulting 
# from the CCDC's data processing and validation procedures.
#
#######################################################################

data_IXEDUK
_symmetry_cell_setting           triclinic
_symmetry_space_group_name_H-M   'P -1'
_symmetry_Int_Tables_number      2
_space_group_name_Hall           '-P 1'
loop_
_symmetry_equiv_pos_site_id
_symmetry_equiv_pos_as_xyz
1 x,y,z
2 -x,-y,-z
_cell_length_a                   24.0460(9)
_cell_length_b                   24.1573(9)
_cell_length_c                   24.3834(9)
_cell_angle_alpha                83.861(1)
_cell_angle_beta                 61.837(1)
_cell_angle_gamma                61.701(1)
_cell_volume                     10869.5
loop_
_atom_site_label
_atom_site_type_symbol
_atom_site_fract_x
_atom_site_fract_y
_atom_site_fract_z
F4 F 1.1270(9) 0.6219(8) 0.5607(8)
O4 O 0.9963(9) 0.6725(9) 0.5607(7)
F5 F 1.1785(11) 0.5744(12) 0.4610(8)
O5 O 1.0850(14) 0.6889(10) 0.4611(10)
S2 S 1.0620(5) 0.6436(4) 0.4987(4)
C2 C 1.1265(8) 0.5824(8) 0.5233(7)
O6 O 1.0636(13) 0.5973(10) 0.4616(9)
F6 F 1.0697(7) 0.5709(7) 0.5367(6)
Yb1 Yb 0.65862(3) 0.78008(2) 0.63653(2)
Yb2 Yb 0.75340(3) 0.22031(2) 0.76956(2)
Yb3 Yb 0.14750(3) 0.64732(2) 0.79108(2)
O7 O 0.6302(5) 0.8809(4) 0.6121(4)
O8 O 0.5669(5) 0.8100(4) 0.6110(4)
O9 O 0.5654(5) 0.7741(4) 0.7209(4)
O10 O 0.6270(5) 0.8415(4) 0.7234(4)
O11 O 0.6793(5) 0.6832(4) 0.6033(4)
O12 O 0.7140(5) 0.7048(4) 0.6878(4)
O13 O 0.7642(5) 0.7802(5) 0.6081(4)
O14 O 0.7215(5) 0.7635(4) 0.5259(4)
O15 O 0.7786(5) 0.2963(4) 0.7887(4)
O16 O 0.8288(5) 0.2270(4) 0.6690(4)
O17 O 0.6775(4) 0.3170(4) 0.7533(4)
O18 O 0.7245(5) 1.1908(4) 0.7033(4)
O19 O 0.3641(4) 0.7604(4) 1.1657(4)
O20 O 0.7690(5) 0.1197(4) 0.7857(4)
O21 O 0.7417(5) 0.2133(4) 0.8684(4)
O22 O 1.1273(4) 0.8404(5) 0.2475(4)
O23 O 0.2122(5) 0.5354(4) 0.7749(4)
O24 O 0.8706(5) 0.3773(4) 1.1086(4)
O25 O 0.2525(5) 0.6240(4) 0.7872(4)
O26 O 1.1094(4) -0.2606(4) 0.8524(4)
O27 O 0.8034(4) 0.2971(4) 0.2826(4)
O28 O 1.0502(5) 0.7270(4) 0.7823(4)
O29 O 0.8328(5) 0.3883(4) 0.3036(4)
O30 O 0.0613(5) 0.6165(4) 0.8275(4)
N1 N 0.5937(6) 0.9129(5) 0.5805(5)
N2 N 0.5211(6) 0.7878(5) 0.6324(5)
N3 N 0.5438(6) 0.7767(5) 0.7830(5)
N4 N 0.6381(6) 0.8920(5) 0.7222(5)
N5 N 0.6925(6) 0.6304(5) 0.6316(5)
N6 N 0.7594(6) 0.7040(5) 0.7043(5)
N7 N 0.8083(6) 0.7911(6) 0.5553(5)
N8 N 0.7379(6) 0.7155(5) 0.4886(5)
N9 N 0.7661(6) 0.3510(5) 0.7651(5)
N10 N 0.8207(6) 0.2354(5) 0.6176(5)
N11 N 0.6124(6) 0.3402(5) 0.7605(5)
N12 N 0.7095(7) 1.1432(5) 0.7073(5)
N13 N 0.3942(5) 0.7659(5) 1.1052(5)
N14 N 0.8191(6) 0.0729(5) 0.7982(5)
N15 N 0.7636(5) 0.2368(5) 0.8957(5)
N16 N 1.0716(6) 0.8351(6) 0.2928(5)
N17 N 0.2757(6) 0.4988(5) 0.7742(5)
N18 N 0.8567(6) 0.3545(5) 1.0719(5)
N19 N 0.2922(6) 0.6529(5) 0.7622(5)
N20 N 1.0652(6) -0.2023(5) 0.8480(5)
N21 N 0.8047(6) 0.2856(5) 0.3369(5)
N22 N 1.0034(6) 0.7199(5) 0.7724(5)
N23 N 0.8167(6) 0.4433(5) 0.3283(5)
N24 N 0.0447(6) 0.5850(5) 0.8753(5)
C3 C 0.7600(8) 0.5860(7) 0.6105(7)
H1 H 0.7972 0.5917 0.5765
C4 C 0.7775(8) 0.5302(7) 0.6378(7)
H2 H 0.8263 0.4984 0.6232
C5 C 0.7224(8) 0.5226(6) 0.6862(6)
C6 C 0.8008(8) 0.4053(7) 0.6816(6)
H3 H 0.8340 0.4049 0.6399
C7 C 0.6382(8) 0.6241(6) 0.6782(6)
H4 H 0.5900 0.6568 0.6919
C8 C 0.6517(8) 0.5713(6) 0.7063(6)
H5 H 0.6127 0.5672 0.7400
C9 C 0.7390(8) 0.4631(7) 0.7159(7)
C10 C 0.6915(8) 0.4613(6) 0.7774(6)
H6 H 0.6491 0.4994 0.8026
C11 C 0.8149(7) 0.3502(7) 0.7055(6)
H7 H 0.8577 0.3118 0.6815
C12 C 0.7053(7) 0.4061(6) 0.8013(6)
H8 H 0.6730 0.4054 0.8431
C13 C 0.8665(7) 0.4637(7) 0.3052(6)
H9 H 0.9116 0.4394 0.2691
C14 C 0.8534(7) 0.5175(7) 0.3322(6)
H10 H 0.8898 0.5297 0.3163
C15 C 0.7514(8) 0.4785(7) 0.3776(6)
H11 H 0.7169 0.4640 0.3932
C16 C 0.7337(8) 0.5345(7) 0.4058(7)
H12 H 0.6867 0.5593 0.4398
C17 C 0.7846(8) 0.5559(6) 0.3847(7)
C18 C 0.7677(7) 0.6134(6) 0.4175(6)
C19 C 0.7050(7) 0.6695(7) 0.4355(6)
H13 H 0.6706 0.6739 0.4240
C20 C 0.8192(7) 0.6123(6) 0.4327(6)
H14 H 0.8652 0.5756 0.4178
C21 C 0.8030(8) 0.6627(6) 0.4680(7)
H15 H 0.8373 0.6611 0.4782
C22 C 0.6917(8) 0.7205(7) 0.4712(6)
H16 H 0.6483 0.7595 0.4832
C23 C 0.8620(7) 0.2244(6) 0.3941(6)
H17 H 0.9022 0.1886 0.3947
C24 C 0.8606(7) 0.2359(6) 0.3389(6)
H18 H 0.9002 0.2080 0.3012
C25 C 0.7469(7) 0.3147(6) 0.4468(6)
H19 H 0.7065 0.3426 0.4841
C26 C 0.7475(7) 0.3240(6) 0.3905(6)
H20 H 0.7067 0.3581 0.3891
C27 C 0.8087(7) 0.2544(6) 0.5094(6)
C28 C 0.8058(7) 0.2642(6) 0.4489(6)
C29 C 0.7695(7) 0.3036(6) 0.5589(6)
H21 H 0.7381 0.3449 0.5553
C30 C 0.7751(7) 0.2937(6) 0.6122(6)
H22 H 0.7471 0.3277 0.6459
C31 C 0.8587(8) 0.1861(7) 0.5725(6)
H23 H 0.8885 0.1452 0.5782
C32 C 0.8548(9) 0.1943(7) 0.5192(7)
H24 H 0.8837 0.1590 0.4867
C33 C 0.7880(7) 0.3801(7) 1.0827(6)
H25 H 0.7499 0.4128 1.1173
C34 C 0.7736(8) 0.3588(7) 1.0439(7)
H26 H 0.7257 0.3792 1.0502
C35 C 0.8260(7) 0.3089(7) 0.9962(6)
C36 C 0.8973(8) 0.2831(8) 0.9844(7)
H27 H 0.9357 0.2503 0.9499
C37 C 0.9111(7) 0.3061(7) 1.0239(6)
H28 H 0.9589 0.2878 1.0173
C38 C -0.0101(8) 0.6153(7) 0.9319(6)
H29 H -0.0371 0.6604 0.9382
C39 C -0.0290(9) 0.5833(7) 0.9818(7)
H30 H -0.0687 0.6063 1.0217
C40 C 0.0100(7) 0.5169(7) 0.9739(6)
C41 C 0.0649(8) 0.4877(7) 0.9159(7)
H31 H 0.0922 0.4426 0.9091
C42 C 0.0842(9) 0.5208(7) 0.8640(7)
H32 H 0.1230 0.4988 0.8235
C43 C 0.3506(8) 0.6278(7) 0.7069(7)
H33 H 0.3623 0.5902 0.6854
C44 C 0.3949(8) 0.6540(8) 0.6796(8)
H34 H 0.4374 0.6340 0.6403
C45 C 0.3769(7) 0.7122(7) 0.7106(7)
C46 C 0.3136(8) 0.7372(7) 0.7693(8)
H35 H 0.2994 0.7751 0.7923
C47 C 0.2729(7) 0.7082(7) 0.7933(7)
H36 H 0.2300 0.7264 0.8326
C48 C 0.2756(7) 0.4832(6) 0.8273(7)
H37 H 0.2312 0.4957 0.8649
C49 C 0.3412(7) 0.4479(7) 0.8291(7)
H38 H 0.3415 0.4359 0.8674
C50 C 0.4064(7) 0.4308(7) 0.7726(6)
C51 C 0.4029(7) 0.4465(7) 0.7172(7)
H39 H 0.4458 0.4332 0.6780
C52 C 0.3366(7) 0.4814(6) 0.7200(6)
H40 H 0.3342 0.4933 0.6824
C53 C 0.9395(7) 0.7314(7) 0.8206(6)
H41 H 0.9286 0.7422 0.8620
C54 C 0.8888(8) 0.7278(7) 0.8115(7)
H42 H 0.8427 0.7379 0.8460
C55 C 0.9067(7) 0.7088(7) 0.7497(7)
C56 C 0.9753(8) 0.6941(7) 0.7000(7)
H43 H 0.9894 0.6791 0.6587
C57 C 1.0226(7) 0.7018(6) 0.7121(6)
H44 H 1.0681 0.6946 0.6784
C58 C 1.0915(7) -0.1693(6) 0.8054(6)
H45 H 1.1420 -0.1856 0.7800
C59 C 1.0435(7) -0.1108(6) 0.7992(6)
H46 H 1.0614 -0.0866 0.7697
C60 C 0.9707(7) -0.0877(6) 0.8352(6)
C61 C 0.9460(7) -0.1205(7) 0.8827(6)
H47 H 0.8960 -0.1027 0.9116
C62 C 0.9924(7) -0.1768(6) 0.8876(6)
H48 H 0.9749 -0.1999 0.9191
C63 C 1.0306(8) 0.8760(8) 0.3478(7)
H49 H 1.0416 0.9075 0.3525
C64 C 0.9733(8) 0.8715(8) 0.3963(7)
H50 H 0.9424 0.9023 0.4332
C65 C 0.9602(8) 0.8221(8) 0.3920(7)
C66 C 1.0003(8) 0.7851(9) 0.3355(7)
H51 H 0.9896 0.7539 0.3291
C67 C 1.0568(8) 0.7915(8) 0.2863(7)
H52 H 1.0850 0.7638 0.2475
C68 C 0.8042(8) 0.0652(7) 0.8588(6)
H53 H 0.7601 0.0957 0.8922
C69 C 0.8512(7) 0.0149(6) 0.8717(6)
H54 H 0.8391 0.0087 0.9142
C70 C 0.9177(8) -0.0284(6) 0.8229(7)
C71 C 0.9323(8) -0.0187(7) 0.7624(7)
H55 H 0.9774 -0.0469 0.7283
C72 C 0.8817(8) 0.0316(6) 0.7507(6)
H56 H 0.8914 0.0371 0.7086
C73 C 0.7602(8) 1.0883(7) 0.6721(7)
H57 H 0.8075 1.0822 0.6454
C74 C 0.7461(9) 1.0390(7) 0.6730(7)
H58 H 0.7831 0.9999 0.6461
C75 C 0.6787(8) 1.0467(7) 0.7129(7)
C76 C 0.6257(9) 1.1061(7) 0.7493(7)
H59 H 0.5776 1.1141 0.7760
C77 C 0.6434(8) 1.1531(6) 0.7462(6)
H60 H 0.6080 1.1931 0.7722
C78 C 0.8318(7) 0.2004(7) 0.8904(6)
H61 H 0.8635 0.1597 0.8651
C79 C 0.8527(8) 0.2228(7) 0.9209(7)
H62 H 0.8989 0.1974 0.9179
C80 C 0.8056(7) 0.2853(7) 0.9583(6)
C81 C 0.7411(7) 0.3197(7) 0.9596(6)
H63 H 0.7094 0.3616 0.9824
C82 C 0.7214(7) 0.2953(7) 0.9289(6)
H64 H 0.6757 0.3207 0.9310
C83 C 0.6031(7) 0.3197(6) 0.7177(6)
H65 H 0.6427 0.2858 0.6847
C84 C 0.5368(7) 0.3477(6) 0.7220(7)
H66 H 0.5306 0.3339 0.6912
C85 C 0.4767(7) 0.3971(7) 0.7718(6)
C86 C 0.4878(8) 0.4142(7) 0.8148(7)
H67 H 0.4483 0.4463 0.8495
C87 C 0.5546(8) 0.3863(7) 0.8094(7)
H68 H 0.5610 0.3992 0.8404
C88 C 0.3872(8) 0.8225(7) 1.0882(6)
H69 H 0.3597 0.8587 1.1195
C89 C 0.4200(8) 0.8281(7) 1.0251(7)
H70 H 0.4175 0.8675 1.0130
C90 C 0.4576(7) 0.7742(7) 0.9786(6)
C91 C 0.4636(7) 0.7159(7) 0.9994(6)
H71 H 0.4903 0.6785 0.9697
C92 C 0.4307(7) 0.7133(7) 1.0625(6)
H72 H 0.4334 0.6743 1.0764
C93 C 0.8722(8) 0.7415(8) 0.5155(7)
H73 H 0.8831 0.6997 0.5256
C94 C 0.9210(8) 0.7493(9) 0.4621(7)
H74 H 0.9655 0.7137 0.4350
C95 C 0.9046(8) 0.8112(9) 0.4472(7)
C96 C 0.8396(7) 0.8619(8) 0.4891(7)
H75 H 0.8284 0.9044 0.4818
C97 C 0.7930(8) 0.8500(8) 0.5401(7)
H76 H 0.7471 0.8846 0.5666
C98 C 0.7052(8) 0.8801(7) 0.7081(7)
H77 H 0.7430 0.8379 0.7005
C99 C 0.7160(9) 0.9322(7) 0.7054(7)
H78 H 0.7628 0.9248 0.6941
C100 C 0.6623(9) 0.9934(7) 0.7182(7)
C101 C 0.5934(8) 1.0028(7) 0.7352(7)
H79 H 0.5539 1.0446 0.7459
C102 C 0.5839(8) 0.9508(7) 0.7361(7)
H80 H 0.5376 0.9571 0.7469
C103 C 0.5391(8) 0.7322(7) 0.6061(6)
H81 H 0.5848 0.7089 0.5702
C104 C 0.4923(8) 0.7084(7) 0.6303(7)
H82 H 0.5061 0.6688 0.6106
C105 C 0.4243(7) 0.7406(7) 0.6837(6)
C106 C 0.4075(7) 0.7980(7) 0.7092(8)
H83 H 0.3618 0.8217 0.7450
C107 C 0.4536(8) 0.8222(7) 0.6853(8)
H84 H 0.4403 0.8620 0.7042
C108 C 0.8313(8) 0.6673(7) 0.6658(7)
H85 H 0.8481 0.6422 0.6283
C109 C 0.8795(7) 0.6666(7) 0.6813(7)
H86 H 0.9297 0.6405 0.6547
C110 C 0.7808(8) 0.7391(7) 0.7764(7)
H87 H 0.7627 0.7627 0.8152
C111 C 0.8553(8) 0.7043(7) 0.7368(7)
C112 C 0.7327(7) 0.7393(7) 0.7592(6)
H88 H 0.6821 0.7638 0.7856
C113 C 0.6280(8) 0.9030(6) 0.5175(6)
H89 H 0.6780 0.8735 0.4949
C114 C 0.5249(8) 0.9542(8) 0.6130(7)
H90 H 0.5011 0.9608 0.6577
C115 C 0.4875(8) 0.9882(8) 0.5802(7)
H91 H 0.4373 1.0169 0.6031
C116 C 0.5208(7) 0.9810(6) 0.5174(6)
C117 C 0.5910(8) 0.9356(7) 0.4856(7)
H92 H 0.6144 0.9264 0.4411
C118 C 0.5767(7) 0.7246(6) 0.8060(6)
H93 H 0.6178 0.6875 0.7778
C119 C 0.5515(7) 0.7251(6) 0.8682(6)
H94 H 0.5763 0.6890 0.8834
C120 C 0.4902(7) 0.7772(7) 0.9104(6)
C121 C 0.4613(8) 0.8293(7) 0.8861(7)
H95 H 0.4210 0.8670 0.9139
C122 C 0.4885(8) 0.8295(7) 0.8217(6)
H96 H 0.4676 0.8669 0.8056
C116A C 0.4792(7) 1.0190(6) 0.4826(6)
C115A C 0.5125(8) 1.0118(8) 0.4198(7)
C114A C 0.4751(8) 1.0458(8) 0.3870(7)
N1A N 0.4063(6) 1.0871(5) 0.4195(5)
O7A O 0.3698(5) 1.1191(4) 0.3879(4)
C113A C 0.3720(8) 1.0970(6) 0.4825(6)
H89A H 0.3220 1.1265 0.5051
C117A C 0.4090(8) 1.0644(7) 0.5144(7)
H92A H 0.3856 1.0736 0.5589
H90A H 0.4989 1.0392 0.3423
H91A H 0.5627 0.9831 0.3969
C40A C -0.0100(7) 0.4831(7) 1.0261(6)
C39A C 0.0290(9) 0.4167(7) 1.0182(7)
C38A C 0.0101(8) 0.3847(7) 1.0681(6)
N24A N -0.0447(6) 0.4150(5) 1.1247(5)
O30A O -0.0613(5) 0.3835(4) 1.1725(4)
C42A C -0.0842(9) 0.4792(7) 1.1360(7)
C41A C -0.0649(8) 0.5123(7) 1.0841(7)
H31A H -0.0922 0.5574 1.0909
H32A H -0.1230 0.5012 1.1765
H29A H 0.0371 0.3396 1.0618
H30A H 0.0687 0.3937 0.9783
Yb1A Yb 0.34138(3) 1.21992(2) 0.36347(2)
Yb2_2 Yb 0.75340(3) 1.22031(2) 0.76956(2)
Yb3_2 Yb 1.14750(3) 0.64732(2) 0.79108(2)
O10_2 O 0.6270(5) -0.1585(4) 0.7234(4)
O18_2 O 0.7245(5) 0.1908(4) 0.7033(4)
N4_2 N 0.6381(6) -0.1080(5) 0.7222(5)
N12_2 N 0.7095(7) 0.1432(5) 0.7073(5)
C73_2 C 0.7602(8) 0.0883(7) 0.6721(7)
H57_2 H 0.8075 0.0822 0.6454
C74_2 C 0.7461(9) 0.0390(7) 0.6730(7)
H58_2 H 0.7831 -0.0001 0.6461
C75_2 C 0.6787(8) 0.0467(7) 0.7129(7)
C76_2 C 0.6257(9) 0.1061(7) 0.7493(7)
H59_2 H 0.5776 0.1141 0.7760
C77_2 C 0.6434(8) 0.1531(6) 0.7462(6)
H60_2 H 0.6080 0.1931 0.7722
C98_2 C 0.7052(8) -0.1199(7) 0.7081(7)
H77_2 H 0.7430 -0.1621 0.7005
C99_2 C 0.7160(9) -0.0678(7) 0.7054(7)
H78_2 H 0.7628 -0.0752 0.6941
C100_2 C 0.6623(9) -0.0066(7) 0.7182(7)
C101_2 C 0.5934(8) 0.0028(7) 0.7352(7)
H79_2 H 0.5539 0.0446 0.7459
C102_2 C 0.5839(8) -0.0492(7) 0.7361(7)
H80_2 H 0.5376 -0.0429 0.7469
O9A O 0.4346(5) 0.2259(4) 1.2791(4)
O19A O 0.6359(4) 0.2396(4) 0.8343(4)
N3A N 0.4562(6) 0.2233(5) 1.2170(5)
N13A N 0.6058(5) 0.2341(5) 0.8948(5)
C88A C 0.6128(8) 0.1775(7) 0.9118(6)
H69A H 0.6403 0.1413 0.8805
C89A C 0.5800(8) 0.1719(7) 0.9749(7)
H70A H 0.5825 0.1325 0.9870
C90A C 0.5424(7) 0.2258(7) 1.0214(6)
C91A C 0.5364(7) 0.2841(7) 1.0006(6)
H71A H 0.5097 0.3215 1.0303
C92A C 0.5693(7) 0.2867(7) 0.9375(6)
H72A H 0.5666 0.3257 0.9236
C118A C 0.4233(7) 0.2754(6) 1.1940(6)
H93A H 0.3822 0.3125 1.2222
C119A C 0.4485(7) 0.2749(6) 1.1318(6)
H94A H 0.4237 0.3110 1.1166
C120A C 0.5098(7) 0.2228(7) 1.0896(6)
C121A C 0.5387(8) 0.1707(7) 1.1139(7)
H95A H 0.5790 0.1330 1.0861
C122A C 0.5115(8) 0.1705(7) 1.1783(6)
H96A H 0.5324 0.1331 1.1944
O13A O 1.2358(5) 0.2198(5) 0.3919(4)
O22A O 0.8727(4) 0.1596(5) 0.7525(4)
N7A N 1.1917(6) 0.2089(6) 0.4447(5)
N16A N 0.9284(6) 0.1649(6) 0.7072(5)
C63A C 0.9694(8) 0.1240(8) 0.6522(7)
H49A H 0.9584 0.0925 0.6475
C64A C 1.0267(8) 0.1285(8) 0.6037(7)
H50A H 1.0576 0.0977 0.5668
C65A C 1.0398(8) 0.1779(8) 0.6080(7)
C66A C 0.9997(8) 0.2149(9) 0.6645(7)
H51A H 1.0104 0.2461 0.6709
C67A C 0.9432(8) 0.2085(8) 0.7137(7)
H52A H 0.9150 0.2362 0.7525
C93A C 1.1278(8) 0.2585(8) 0.4845(7)
H73A H 1.1169 0.3003 0.4744
C94A C 1.0790(8) 0.2507(9) 0.5379(7)
H74A H 1.0345 0.2863 0.5650
C95A C 1.0954(8) 0.1888(9) 0.5528(7)
C96A C 1.1604(7) 0.1381(8) 0.5109(7)
H75A H 1.1716 0.0956 0.5182
C97A C 1.2070(8) 0.1500(8) 0.4599(7)
H76A H 1.2529 0.1154 0.4334
O21A O 0.2583(5) 0.7867(4) 1.1316(4)
O24A O 0.1294(5) 0.6227(4) 0.8914(4)
N15A N 0.2364(5) 0.7632(5) 1.1043(5)
N18A N 0.1433(6) 0.6455(5) 0.9281(5)
C33A C 0.2120(7) 0.6199(7) 0.9173(6)
H25A H 0.2501 0.5872 0.8827
C34A C 0.2264(8) 0.6412(7) 0.9561(7)
H26A H 0.2743 0.6208 0.9498
C35A C 0.1740(7) 0.6911(7) 1.0038(6)
C36A C 0.1027(8) 0.7169(8) 1.0156(7)
H27A H 0.0643 0.7497 1.0501
C37A C 0.0889(7) 0.6939(7) 0.9761(6)
H28A H 0.0411 0.7122 0.9827
C78A C 0.1682(7) 0.7996(7) 1.1096(6)
H61A H 0.1365 0.8403 1.1349
C79A C 0.1473(8) 0.7772(7) 1.0791(7)
H62A H 0.1011 0.8026 1.0821
C80A C 0.1944(7) 0.7147(7) 1.0417(6)
C81A C 0.2589(7) 0.6803(7) 1.0404(6)
H63A H 0.2906 0.6384 1.0176
C82A C 0.2786(7) 0.7047(7) 1.0711(6)
H64A H 0.3243 0.6793 1.0690
O20_2 O -0.2310(5) 1.1197(4) 0.7857(4)
O26_2 O 0.1094(4) 0.7394(4) 0.8524(4)
N14_2 N -0.1809(6) 1.0729(5) 0.7982(5)
N20_2 N 0.0652(6) 0.7977(5) 0.8480(5)
C58_2 C 0.0915(7) 0.8307(6) 0.8054(6)
H45_2 H 0.1420 0.8144 0.7800
C59_2 C 0.0435(7) 0.8892(6) 0.7992(6)
H46_2 H 0.0614 0.9134 0.7697
C60_2 C -0.0293(7) 0.9123(6) 0.8352(6)
C61_2 C -0.0540(7) 0.8795(7) 0.8827(6)
H47_2 H -0.1040 0.8973 0.9116
C62_2 C -0.0076(7) 0.8232(6) 0.8876(6)
H48_2 H -0.0251 0.8001 0.9191
C68_2 C -0.1958(8) 1.0652(7) 0.8588(6)
H53_2 H -0.2399 1.0957 0.8922
C69_2 C -0.1488(7) 1.0149(6) 0.8717(6)
H54_2 H -0.1609 1.0087 0.9142
C70_2 C -0.0823(8) 0.9716(6) 0.8229(7)
C71_2 C -0.0677(8) 0.9813(7) 0.7624(7)
H55_2 H -0.0226 0.9531 0.7283
C72_2 C -0.1183(8) 1.0316(6) 0.7507(6)
H56_2 H -0.1086 1.0371 0.7086
O16A O 0.1712(5) 0.7730(4) 0.3310(4)
O27A O 0.1966(4) 0.7029(4) 0.7174(4)
N10A N 0.1793(6) 0.7646(5) 0.3824(5)
N21A N 0.1953(6) 0.7144(5) 0.6631(5)
C23A C 0.1380(7) 0.7756(6) 0.6059(6)
H17A H 0.0978 0.8114 0.6053
C24A C 0.1394(7) 0.7641(6) 0.6611(6)
H18A H 0.0998 0.7920 0.6988
C25A C 0.2531(7) 0.6853(6) 0.5532(6)
H19A H 0.2935 0.6574 0.5159
C26A C 0.2525(7) 0.6760(6) 0.6095(6)
H20A H 0.2933 0.6419 0.6109
C27A C 0.1913(7) 0.7456(6) 0.4906(6)
C28A C 0.1942(7) 0.7358(6) 0.5511(6)
C29A C 0.2305(7) 0.6964(6) 0.4411(6)
H21A H 0.2619 0.6551 0.4447
C30A C 0.2249(7) 0.7063(6) 0.3878(6)
H22A H 0.2529 0.6723 0.3541
C31A C 0.1413(8) 0.8139(7) 0.4275(6)
H23A H 0.1115 0.8548 0.4218
C32A C 0.1452(9) 0.8057(7) 0.4808(7)
H24A H 0.1163 0.8410 0.5133
O12_2 O -0.2860(5) 0.7048(4) 0.6878(4)
O28_2 O 0.0502(5) 0.7270(4) 0.7823(4)
N6_2 N -0.2406(6) 0.7040(5) 0.7043(5)
N22_2 N 0.0034(6) 0.7199(5) 0.7724(5)
C53_2 C -0.0605(7) 0.7314(7) 0.8206(6)
H41_2 H -0.0714 0.7422 0.8620
C54_2 C -0.1112(8) 0.7278(7) 0.8115(7)
H42_2 H -0.1573 0.7379 0.8460
C55_2 C -0.0933(7) 0.7088(7) 0.7497(7)
C56_2 C -0.0247(8) 0.6941(7) 0.7000(7)
H43_2 H -0.0106 0.6791 0.6587
C57_2 C 0.0226(7) 0.7018(6) 0.7121(6)
H44_2 H 0.0681 0.6946 0.6784
C108_2 C -0.1687(8) 0.6673(7) 0.6658(7)
H85_2 H -0.1519 0.6422 0.6283
C109_2 C -0.1205(7) 0.6666(7) 0.6813(7)
H86_2 H -0.0703 0.6405 0.6547
C110_2 C -0.2192(8) 0.7391(7) 0.7764(7)
H87_2 H -0.2373 0.7627 0.8152
C111_2 C -0.1447(8) 0.7043(7) 0.7368(7)
C112_2 C -0.2673(7) 0.7393(7) 0.7592(6)
H88_2 H -0.3179 0.7638 0.7856
O14A O 0.2785(5) 0.2365(4) 0.4741(4)
O29A O 0.1672(5) 0.6117(4) 0.6964(4)
N8A N 0.2621(6) 0.2845(5) 0.5114(5)
N23A N 0.1833(6) 0.5567(5) 0.6717(5)
C13A C 0.1335(7) 0.5363(7) 0.6948(6)
H9A H 0.0884 0.5606 0.7309
C14A C 0.1466(7) 0.4825(7) 0.6678(6)
H10A H 0.1102 0.4703 0.6837
C15A C 0.2486(8) 0.5215(7) 0.6224(6)
H11A H 0.2831 0.5360 0.6068
C16A C 0.2663(8) 0.4655(7) 0.5942(7)
H12A H 0.3133 0.4407 0.5602
C17A C 0.2154(8) 0.4441(6) 0.6153(7)
C18A C 0.2323(7) 0.3866(6) 0.5825(6)
C19A C 0.2950(7) 0.3305(7) 0.5645(6)
H13A H 0.3294 0.3261 0.5760
C20A C 0.1808(7) 0.3877(6) 0.5673(6)
H14A H 0.1348 0.4244 0.5822
C21A C 0.1970(8) 0.3373(6) 0.5320(7)
H15A H 0.1627 0.3389 0.5218
C22A C 0.3083(8) 0.2795(7) 0.5288(6)
H16A H 0.3517 0.2405 0.5168
O8A O 0.4331(5) 1.1900(4) 0.3890(4)
O25A O 0.7475(5) 1.3760(4) 0.2128(4)
N2A N 0.4789(6) 1.2122(5) 0.3676(5)
N19A N 0.7078(6) 1.3471(5) 0.2378(5)
C43A C 0.6494(8) 1.3722(7) 0.2931(7)
H33A H 0.6377 1.4098 0.3146
C44A C 0.6051(8) 1.3460(8) 0.3204(8)
H34A H 0.5626 1.3660 0.3597
C45A C 0.6231(7) 1.2878(7) 0.2894(7)
C46A C 0.6864(8) 1.2628(7) 0.2307(8)
H35A H 0.7006 1.2249 0.2077
C47A C 0.7271(7) 1.2918(7) 0.2067(7)
H36A H 0.7700 1.2736 0.1674
C103A C 0.4609(8) 1.2678(7) 0.3939(6)
H81A H 0.4152 1.2911 0.4298
C104A C 0.5077(8) 1.2916(7) 0.3697(7)
H82A H 0.4939 1.3312 0.3894
C105A C 0.5757(7) 1.2594(7) 0.3163(6)
C106A C 0.5925(7) 1.2020(7) 0.2908(8)
H83A H 0.6382 1.1783 0.2550
C107A C 0.5464(8) 1.1778(7) 0.3147(8)
H84A H 0.5597 1.1380 0.2958
O11A O 0.3207(5) 1.3168(4) 0.3967(4)
O15A O 0.2214(5) 1.7037(4) 0.2113(4)
N5A N 0.3075(6) 1.3696(5) 0.3684(5)
N9A N 0.2339(6) 1.6490(5) 0.2349(5)
C3A C 0.2400(8) 1.4140(7) 0.3895(7)
H1A H 0.2028 1.4083 0.4235
C4A C 0.2225(8) 1.4698(7) 0.3622(7)
H2A H 0.1737 1.5016 0.3768
C5A C 0.2776(8) 1.4774(6) 0.3138(6)
C6A C 0.1992(8) 1.5947(7) 0.3184(6)
H3A H 0.1660 1.5951 0.3601
C7A C 0.3618(8) 1.3759(6) 0.3218(6)
H4A H 0.4100 1.3432 0.3081
C8A C 0.3483(8) 1.4287(6) 0.2937(6)
H5A H 0.3873 1.4328 0.2600
C9A C 0.2610(8) 1.5369(7) 0.2841(7)
C10A C 0.3085(8) 1.5387(6) 0.2226(6)
H6A H 0.3509 1.5006 0.1974
C11A C 0.1851(7) 1.6498(7) 0.2945(6)
H7A H 0.1423 1.6882 0.3185
C12A C 0.2947(7) 1.5939(6) 0.1987(6)
H8A H 0.3270 1.5946 0.1569
O17_2 O 0.6775(4) 1.3170(4) 0.7533(4)
O23_2 O 0.2122(5) 1.5354(4) 0.7749(4)
N11_2 N 0.6124(6) 1.3402(5) 0.7605(5)
N17_2 N 0.2757(6) 1.4988(5) 0.7742(5)
C48_2 C 0.2756(7) 1.4832(6) 0.8273(7)
H37_2 H 0.2312 1.4957 0.8649
C49_2 C 0.3412(7) 1.4479(7) 0.8291(7)
H38_2 H 0.3415 1.4359 0.8674
C50_2 C 0.4064(7) 1.4308(7) 0.7726(6)
C51_2 C 0.4029(7) 1.4465(7) 0.7172(7)
H39_2 H 0.4458 1.4332 0.6780
C52_2 C 0.3366(7) 1.4814(6) 0.7200(6)
H40_2 H 0.3342 1.4933 0.6824
C83_2 C 0.6031(7) 1.3197(6) 0.7177(6)
H65_2 H 0.6427 1.2858 0.6847
C84_2 C 0.5368(7) 1.3477(6) 0.7220(7)
H66_2 H 0.5306 1.3339 0.6912
C85_2 C 0.4767(7) 1.3971(7) 0.7718(6)
C86_2 C 0.4878(8) 1.4142(7) 0.8148(7)
H67_2 H 0.4483 1.4463 0.8495
C87_2 C 0.5546(8) 1.3863(7) 0.8094(7)
H68_2 H 0.5610 1.3992 0.8404
Yb2A Yb 0.24660(3) 0.77969(2) 1.23044(2)
Yb2A_2 Yb 1.24660(3) 0.77969(2) 0.23044(2)
Yb3A Yb 0.85250(3) 0.35268(2) 1.20892(2)
Yb3_3 Yb 1.14750(3) -0.35268(2) 0.79108(2)
Yb3A_2 Yb 0.85250(3) 0.35268(2) 0.20892(2)
Yb3A_3 Yb -0.14750(3) 0.35268(2) 1.20892(2)
O9A_2 O 0.4346(5) 1.2259(4) 0.2791(4)
O10A O 0.3730(5) 1.1585(4) 0.2766(4)
O12A O 0.2860(5) 1.2952(4) 0.3122(4)
O13A_2 O 0.2358(5) 1.2198(5) 0.3919(4)
O14A_2 O 0.2785(5) 1.2365(4) 0.4741(4)
O15_2 O 0.7786(5) 1.2963(4) 0.7887(4)
O16_2 O 0.8288(5) 1.2270(4) 0.6690(4)
O19A_2 O 0.6359(4) 1.2396(4) 0.8343(4)
O20_3 O 0.7690(5) 1.1197(4) 0.7857(4)
O21_2 O 0.7417(5) 1.2133(4) 0.8684(4)
O22A_2 O 0.8727(4) 1.1596(5) 0.7525(4)
O23_3 O 1.2122(5) 0.5354(4) 0.7749(4)
O24A_2 O 1.1294(5) 0.6227(4) 0.8914(4)
O25_2 O 1.2525(5) 0.6240(4) 0.7872(4)
O26_3 O 1.1094(4) 0.7394(4) 0.8524(4)
O27A_2 O 1.1966(4) 0.7029(4) 0.7174(4)
O29A_2 O 1.1672(5) 0.6117(4) 0.6964(4)
O30_2 O 1.0613(5) 0.6165(4) 0.8275(4)
Yb1_2 Yb 0.65862(3) -0.21992(2) 0.63653(2)
Yb1A_2 Yb 0.34138(3) 0.21992(2) 1.36347(2)
Yb1A_3 Yb 1.34138(3) 0.21992(2) 0.36347(2)
Yb2_3 Yb -0.24660(3) 1.22031(2) 0.76956(2)
Yb2A_3 Yb 0.24660(3) 0.77969(2) 0.23044(2)
Yb1_3 Yb -0.34138(3) 0.78008(2) 0.63653(2)
Yb1A_4 Yb 0.34138(3) 0.21992(2) 0.36347(2)
Yb3A_4 Yb 0.85250(3) 1.35268(2) 0.20892(2)
Yb2A_4 Yb 0.24660(3) 1.77969(2) 0.23044(2)
Yb3_4 Yb 0.14750(3) 1.64732(2) 0.79108(2)
O1 O 1.0377(7) 0.1633(6) 0.3031(6)
F1 F 1.1060(7) 0.1968(7) 0.3671(6)
O2 O 1.0091(6) 0.1017(7) 0.3912(6)
F2 F 0.9840(7) 0.2278(7) 0.4268(8)
S1 S 1.0601(3) 0.1230(3) 0.3465(3)
O3 O 1.1371(5) 0.0731(6) 0.3172(7)
F3 F 1.0686(10) 0.1422(8) 0.4472(9)
C1 C 1.0547(7) 0.1761(7) 0.4005(6)
O31? O 0.3591(7) 0.5392(9) 0.4821(7)
F7? F 0.3970(6) 0.4859(6) 0.4332(5)
F8? F 0.3346(9) 0.5465(9) 0.3761(8)
O32? O 0.4145(12) 0.5641(13) 0.3700(9)
C123? C 0.3985(8) 0.5051(8) 0.3764(6)
F9? F 0.4593(10) 0.4794(12) 0.3185(8)
S3? S 0.4230(4) 0.5336(4) 0.4234(4)
O33? O 0.4945(7) 0.4790(8) 0.4080(9)
F10? F 0.5183(15) 0.5189(8) 0.8676(14)
O34? O 0.3638(11) 0.6867(11) 0.8755(12)
F11? F 0.5299(10) 0.6093(10) 0.8656(10)
O35? O 0.465(2) 0.5844(14) 0.871(2)
S4? S 0.4433(11) 0.6475(8) 0.8478(10)
C124? C 0.4820(6) 0.5842(5) 0.8887(5)
F12? F 0.4366(13) 0.6029(13) 0.9540(7)
O36? O 0.7126(12) 0.7960(12) 0.9242(12)
F13? F 0.6278(16) 0.8658(16) 0.8640(17)
C125? C 0.577(2) 0.880(2) 0.9280(16)
O37? O 1.0622(9) -0.0326(7) 0.4020(8)
S5? S 0.9972(8) 0.0310(8) 0.4267(8)
O38? O 0.9937(18) 0.0734(11) 0.3776(13)
O39? O 1.3182(17) -0.0499(16) 0.835(2)
F14? F 1.328(2) 0.064(2) 0.727(2)
S6? S 1.3477(8) -0.0077(7) 0.7994(7)
O40? O 1.4264(8) -0.0399(9) 0.7586(8)
C126? C 0.3256(10) 0.4203(9) 1.0249(9)
F15? F 0.3481(16) 0.3685(12) 1.0548(13)
O41? O 0.4338(13) 0.4292(14) 0.9828(14)
S7? S 0.3578(12) 0.4785(10) 1.0118(11)
S8? S 0.4782(10) 0.3169(10) 0.5646(9)
loop_
_geom_bond_atom_site_label_1
_geom_bond_atom_site_label_2
_geom_bond_site_symmetry_1
_geom_bond_site_symmetry_2
O1 S1 1_555 1_555
F1 C1 1_555 1_555
O2 S1 1_555 1_555
F2 C1 1_555 1_555
S1 O3 1_555 1_555
F3 C1 1_555 1_555
C1 S1 1_555 1_555
F4 C2 1_555 1_555
O4 S2 1_555 1_555
F5 C2 1_555 1_555
O5 S2 1_555 1_555
S2 C2 1_555 1_555
C2 F6 1_555 1_555
O6 S2 1_555 1_555
Yb1 O7 1_555 1_555
Yb2 O15 1_555 1_555
Yb3 O23 1_555 1_555
O7 N1 1_555 1_555
O8 Yb1 1_555 1_555
O9 Yb1 1_555 1_555
O10 Yb1 1_555 1_555
O11 Yb1 1_555 1_555
O12 Yb1 1_555 1_555
O13 Yb1 1_555 1_555
O14 Yb1 1_555 1_555
O15 N9 1_555 1_555
O16 Yb2 1_555 1_555
O17 Yb2 1_555 1_555
O18 N12 1_555 1_555
O19 N13 1_555 1_555
O20 Yb2 1_555 1_555
O21 Yb2 1_555 1_555
O22 N16 1_555 1_555
O23 N17 1_555 1_555
O24 N18 1_555 1_555
O25 Yb3 1_555 1_555
O26 N20 1_555 1_555
O27 N21 1_555 1_555
O28 N22 1_555 1_555
O29 N23 1_555 1_555
O30 Yb3 1_555 1_555
N1 C113 1_555 1_555
N2 O8 1_555 1_555
N3 O9 1_555 1_555
N4 O10 1_555 1_555
N5 O11 1_555 1_555
N6 O12 1_555 1_555
N7 O13 1_555 1_555
N8 O14 1_555 1_555
N9 C11 1_555 1_555
N10 O16 1_555 1_555
N11 O17 1_555 1_555
N12 C73 1_555 1_555
N13 C88 1_555 1_555
N14 O20 1_555 1_555
N15 O21 1_555 1_555
N16 C63 1_555 1_555
N17 C48 1_555 1_555
N18 C33 1_555 1_555
N19 O25 1_555 1_555
N20 C58 1_555 1_555
N21 C24 1_555 1_555
N22 C53 1_555 1_555
N23 C13 1_555 1_555
N24 O30 1_555 1_555
C3 N5 1_555 1_555
H1 C3 1_555 1_555
C4 C3 1_555 1_555
H2 C4 1_555 1_555
C5 C4 1_555 1_555
C6 H3 1_555 1_555
C7 N5 1_555 1_555
H4 C7 1_555 1_555
C8 C5 1_555 1_555
H5 C8 1_555 1_555
C9 C5 1_555 1_555
C10 C9 1_555 1_555
H6 C10 1_555 1_555
C11 C6 1_555 1_555
H7 C11 1_555 1_555
C12 N9 1_555 1_555
H8 C12 1_555 1_555
C13 H9 1_555 1_555
C14 C13 1_555 1_555
H10 C14 1_555 1_555
C15 N23 1_555 1_555
H11 C15 1_555 1_555
C16 C15 1_555 1_555
H12 C16 1_555 1_555
C17 C14 1_555 1_555
C18 C17 1_555 1_555
C19 C18 1_555 1_555
H13 C19 1_555 1_555
C20 C18 1_555 1_555
H14 C20 1_555 1_555
C21 N8 1_555 1_555
H15 C21 1_555 1_555
C22 N8 1_555 1_555
H16 C22 1_555 1_555
C23 H17 1_555 1_555
C24 C23 1_555 1_555
H18 C24 1_555 1_555
C25 H19 1_555 1_555
C26 N21 1_555 1_555
H20 C26 1_555 1_555
C27 C28 1_555 1_555
C28 C23 1_555 1_555
C29 C27 1_555 1_555
H21 C29 1_555 1_555
C30 N10 1_555 1_555
H22 C30 1_555 1_555
C31 N10 1_555 1_555
H23 C31 1_555 1_555
C32 C27 1_555 1_555
H24 C32 1_555 1_555
C33 H25 1_555 1_555
C34 C33 1_555 1_555
H26 C34 1_555 1_555
C35 C34 1_555 1_555
C36 C35 1_555 1_555
H27 C36 1_555 1_555
C37 N18 1_555 1_555
H28 C37 1_555 1_555
C38 N24 1_555 1_555
H29 C38 1_555 1_555
C39 C38 1_555 1_555
H30 C39 1_555 1_555
C40 C39 1_555 1_555
C41 C40 1_555 1_555
H31 C41 1_555 1_555
C42 N24 1_555 1_555
H32 C42 1_555 1_555
C43 N19 1_555 1_555
H33 C43 1_555 1_555
C44 C43 1_555 1_555
H34 C44 1_555 1_555
C45 C44 1_555 1_555
C46 C45 1_555 1_555
H35 C46 1_555 1_555
C47 N19 1_555 1_555
H36 C47 1_555 1_555
C48 H37 1_555 1_555
C49 C48 1_555 1_555
H38 C49 1_555 1_555
C50 C49 1_555 1_555
C51 C50 1_555 1_555
H39 C51 1_555 1_555
C52 N17 1_555 1_555
H40 C52 1_555 1_555
C53 H41 1_555 1_555
C54 C53 1_555 1_555
H42 C54 1_555 1_555
C55 C54 1_555 1_555
C56 C55 1_555 1_555
H43 C56 1_555 1_555
C57 N22 1_555 1_555
H44 C57 1_555 1_555
C58 H45 1_555 1_555
C59 C58 1_555 1_555
H46 C59 1_555 1_555
C60 C59 1_555 1_555
C61 C60 1_555 1_555
H47 C61 1_555 1_555
C62 N20 1_555 1_555
H48 C62 1_555 1_555
C63 H49 1_555 1_555
C64 C63 1_555 1_555
H50 C64 1_555 1_555
C65 C64 1_555 1_555
C66 C65 1_555 1_555
H51 C66 1_555 1_555
C67 N16 1_555 1_555
H52 C67 1_555 1_555
C68 N14 1_555 1_555
H53 C68 1_555 1_555
C69 C68 1_555 1_555
H54 C69 1_555 1_555
C70 C60 1_555 1_555
C71 C70 1_555 1_555
H55 C71 1_555 1_555
C72 N14 1_555 1_555
H56 C72 1_555 1_555
C73 H57 1_555 1_555
C74 C73 1_555 1_555
H58 C74 1_555 1_555
C75 C74 1_555 1_555
C76 C75 1_555 1_555
H59 C76 1_555 1_555
C77 N12 1_555 1_555
H60 C77 1_555 1_555
C78 N15 1_555 1_555
H61 C78 1_555 1_555
C79 C78 1_555 1_555
H62 C79 1_555 1_555
C80 C35 1_555 1_555
C81 C80 1_555 1_555
H63 C81 1_555 1_555
C82 N15 1_555 1_555
H64 C82 1_555 1_555
C83 N11 1_555 1_555
H65 C83 1_555 1_555
C84 C83 1_555 1_555
H66 C84 1_555 1_555
C85 C50 1_555 1_555
C86 C85 1_555 1_555
H67 C86 1_555 1_555
C87 N11 1_555 1_555
H68 C87 1_555 1_555
C88 H69 1_555 1_555
C89 C88 1_555 1_555
H70 C89 1_555 1_555
C90 C89 1_555 1_555
C91 C90 1_555 1_555
H71 C91 1_555 1_555
C92 N13 1_555 1_555
H72 C92 1_555 1_555
C93 N7 1_555 1_555
H73 C93 1_555 1_555
C94 C93 1_555 1_555
H74 C94 1_555 1_555
C95 C65 1_555 1_555
C96 C95 1_555 1_555
H75 C96 1_555 1_555
C97 N7 1_555 1_555
H76 C97 1_555 1_555
C98 N4 1_555 1_555
H77 C98 1_555 1_555
C99 C98 1_555 1_555
H78 C99 1_555 1_555
C100 C75 1_555 1_555
C101 C100 1_555 1_555
H79 C101 1_555 1_555
C102 N4 1_555 1_555
H80 C102 1_555 1_555
C103 N2 1_555 1_555
H81 C103 1_555 1_555
C104 C103 1_555 1_555
H82 C104 1_555 1_555
C105 C45 1_555 1_555
C106 C105 1_555 1_555
H83 C106 1_555 1_555
C107 N2 1_555 1_555
H84 C107 1_555 1_555
C108 N6 1_555 1_555
H85 C108 1_555 1_555
C109 C108 1_555 1_555
H86 C109 1_555 1_555
C110 H87 1_555 1_555
C111 C55 1_555 1_555
C112 N6 1_555 1_555
H88 C112 1_555 1_555
C113 H89 1_555 1_555
C114 N1 1_555 1_555
H90 C114 1_555 1_555
C115 C114 1_555 1_555
H91 C115 1_555 1_555
C116 C115 1_555 1_555
C117 C113 1_555 1_555
H92 C117 1_555 1_555
C118 N3 1_555 1_555
H93 C118 1_555 1_555
C119 C118 1_555 1_555
H94 C119 1_555 1_555
C120 C90 1_555 1_555
C121 C120 1_555 1_555
H95 C121 1_555 1_555
C122 N3 1_555 1_555
H96 C122 1_555 1_555
C116A C116 1_555 1_555
C115A C116A 1_555 1_555
C114A C115A 1_555 1_555
N1A C114A 1_555 1_555
O7A N1A 1_555 1_555
C113A N1A 1_555 1_555
H89A C113A 1_555 1_555
C117A C116A 1_555 1_555
H92A C117A 1_555 1_555
H90A C114A 1_555 1_555
H91A C115A 1_555 1_555
C40A C40 1_555 1_555
C39A C40A 1_555 1_555
C38A C39A 1_555 1_555
N24A C38A 1_555 1_555
O30A N24A 1_555 1_555
C42A N24A 1_555 1_555
C41A C40A 1_555 1_555
H31A C41A 1_555 1_555
H32A C42A 1_555 1_555
H29A C38A 1_555 1_555
H30A C39A 1_555 1_555
Yb1A O7A 1_555 1_555
Yb2_2 O18 1_555 1_555
Yb3_2 O28 1_555 1_555
O10_2 N4_2 1_555 1_555
O18_2 Yb2 1_555 1_555
N4_2 C98_2 1_555 1_555
N12_2 O18_2 1_555 1_555
C73_2 N12_2 1_555 1_555
H57_2 C73_2 1_555 1_555
C74_2 C73_2 1_555 1_555
H58_2 C74_2 1_555 1_555
C75_2 C74_2 1_555 1_555
C76_2 C75_2 1_555 1_555
H59_2 C76_2 1_555 1_555
C77_2 N12_2 1_555 1_555
H60_2 C77_2 1_555 1_555
C98_2 H77_2 1_555 1_555
C99_2 C98_2 1_555 1_555
H78_2 C99_2 1_555 1_555
C100_2 C75_2 1_555 1_555
C101_2 C100_2 1_555 1_555
H79_2 C101_2 1_555 1_555
C102_2 N4_2 1_555 1_555
H80_2 C102_2 1_555 1_555
O9A N3A 1_555 1_555
O19A Yb2 1_555 1_555
N3A C118A 1_555 1_555
N13A O19A 1_555 1_555
C88A N13A 1_555 1_555
H69A C88A 1_555 1_555
C89A C88A 1_555 1_555
H70A C89A 1_555 1_555
C90A C89A 1_555 1_555
C91A C90A 1_555 1_555
H71A C91A 1_555 1_555
C92A N13A 1_555 1_555
H72A C92A 1_555 1_555
C118A H93A 1_555 1_555
C119A C118A 1_555 1_555
H94A C119A 1_555 1_555
C120A C90A 1_555 1_555
C121A C120A 1_555 1_555
H95A C121A 1_555 1_555
C122A N3A 1_555 1_555
H96A C122A 1_555 1_555
O13A N7A 1_555 1_555
O22A Yb2 1_555 1_555
N7A C93A 1_555 1_555
N16A O22A 1_555 1_555
C63A N16A 1_555 1_555
H49A C63A 1_555 1_555
C64A C63A 1_555 1_555
H50A C64A 1_555 1_555
C65A C64A 1_555 1_555
C66A C65A 1_555 1_555
H51A C66A 1_555 1_555
C67A N16A 1_555 1_555
H52A C67A 1_555 1_555
C93A H73A 1_555 1_555
C94A C93A 1_555 1_555
H74A C94A 1_555 1_555
C95A C65A 1_555 1_555
C96A C95A 1_555 1_555
H75A C96A 1_555 1_555
C97A N7A 1_555 1_555
H76A C97A 1_555 1_555
O21A N15A 1_555 1_555
O24A Yb3 1_555 1_555
N15A C78A 1_555 1_555
N18A O24A 1_555 1_555
C33A N18A 1_555 1_555
H25A C33A 1_555 1_555
C34A C33A 1_555 1_555
H26A C34A 1_555 1_555
C35A C34A 1_555 1_555
C36A C35A 1_555 1_555
H27A C36A 1_555 1_555
C37A N18A 1_555 1_555
H28A C37A 1_555 1_555
C78A H61A 1_555 1_555
C79A C78A 1_555 1_555
H62A C79A 1_555 1_555
C80A C35A 1_555 1_555
C81A C80A 1_555 1_555
H63A C81A 1_555 1_555
C82A N15A 1_555 1_555
H64A C82A 1_555 1_555
O20_2 N14_2 1_555 1_555
O26_2 Yb3 1_555 1_555
N14_2 C68_2 1_555 1_555
N20_2 O26_2 1_555 1_555
C58_2 N20_2 1_555 1_555
H45_2 C58_2 1_555 1_555
C59_2 C58_2 1_555 1_555
H46_2 C59_2 1_555 1_555
C60_2 C59_2 1_555 1_555
C61_2 C60_2 1_555 1_555
H47_2 C61_2 1_555 1_555
C62_2 N20_2 1_555 1_555
H48_2 C62_2 1_555 1_555
C68_2 H53_2 1_555 1_555
C69_2 C68_2 1_555 1_555
H54_2 C69_2 1_555 1_555
C70_2 C60_2 1_555 1_555
C71_2 C70_2 1_555 1_555
H55_2 C71_2 1_555 1_555
C72_2 N14_2 1_555 1_555
H56_2 C72_2 1_555 1_555
O16A N10A 1_555 1_555
O27A Yb3 1_555 1_555
N10A C30A 1_555 1_555
N21A O27A 1_555 1_555
C23A H17A 1_555 1_555
C24A N21A 1_555 1_555
H18A C24A 1_555 1_555
C25A H19A 1_555 1_555
C26A N21A 1_555 1_555
H20A C26A 1_555 1_555
C27A C28A 1_555 1_555
C28A C23A 1_555 1_555
C29A C27A 1_555 1_555
H21A C29A 1_555 1_555
C30A C29A 1_555 1_555
H22A C30A 1_555 1_555
C31A N10A 1_555 1_555
H23A C31A 1_555 1_555
C32A C27A 1_555 1_555
H24A C32A 1_555 1_555
O12_2 N6_2 1_555 1_555
O28_2 Yb3 1_555 1_555
N6_2 C108_2 1_555 1_555
N22_2 O28_2 1_555 1_555
C53_2 N22_2 1_555 1_555
H41_2 C53_2 1_555 1_555
C54_2 C53_2 1_555 1_555
H42_2 C54_2 1_555 1_555
C55_2 C54_2 1_555 1_555
C56_2 C55_2 1_555 1_555
H43_2 C56_2 1_555 1_555
C57_2 N22_2 1_555 1_555
H44_2 C57_2 1_555 1_555
C108_2 H85_2 1_555 1_555
C109_2 C108_2 1_555 1_555
H86_2 C109_2 1_555 1_555
C110_2 H87_2 1_555 1_555
C111_2 C55_2 1_555 1_555
C112_2 N6_2 1_555 1_555
H88_2 C112_2 1_555 1_555
O14A N8A 1_555 1_555
O29A Yb3 1_555 1_555
N8A C21A 1_555 1_555
N23A O29A 1_555 1_555
C13A N23A 1_555 1_555
H9A C13A 1_555 1_555
C14A C13A 1_555 1_555
H10A C14A 1_555 1_555
C15A N23A 1_555 1_555
H11A C15A 1_555 1_555
C16A C15A 1_555 1_555
H12A C16A 1_555 1_555
C17A C14A 1_555 1_555
C18A C17A 1_555 1_555
C19A C18A 1_555 1_555
H13A C19A 1_555 1_555
C20A C18A 1_555 1_555
H14A C20A 1_555 1_555
C21A C20A 1_555 1_555
H15A C21A 1_555 1_555
C22A N8A 1_555 1_555
H16A C22A 1_555 1_555
O8A Yb1A 1_555 1_555
O25A N19A 1_555 1_555
N2A O8A 1_555 1_555
N19A C43A 1_555 1_555
C43A H33A 1_555 1_555
C44A C43A 1_555 1_555
H34A C44A 1_555 1_555
C45A C44A 1_555 1_555
C46A C45A 1_555 1_555
H35A C46A 1_555 1_555
C47A N19A 1_555 1_555
H36A C47A 1_555 1_555
C103A N2A 1_555 1_555
H81A C103A 1_555 1_555
C104A C103A 1_555 1_555
H82A C104A 1_555 1_555
C105A C45A 1_555 1_555
C106A C105A 1_555 1_555
H83A C106A 1_555 1_555
C107A N2A 1_555 1_555
H84A C107A 1_555 1_555
O11A Yb1A 1_555 1_555
O15A N9A 1_555 1_555
N5A O11A 1_555 1_555
N9A C11A 1_555 1_555
C3A N5A 1_555 1_555
H1A C3A 1_555 1_555
C4A C3A 1_555 1_555
H2A C4A 1_555 1_555
C5A C4A 1_555 1_555
C6A H3A 1_555 1_555
C7A N5A 1_555 1_555
H4A C7A 1_555 1_555
C8A C5A 1_555 1_555
H5A C8A 1_555 1_555
C9A C5A 1_555 1_555
C10A C9A 1_555 1_555
H6A C10A 1_555 1_555
C11A C6A 1_555 1_555
H7A C11A 1_555 1_555
C12A N9A 1_555 1_555
H8A C12A 1_555 1_555
O17_2 Yb2_2 1_555 1_555
O23_2 N17_2 1_555 1_555
N11_2 O17_2 1_555 1_555
N17_2 C48_2 1_555 1_555
C48_2 H37_2 1_555 1_555
C49_2 C48_2 1_555 1_555
H38_2 C49_2 1_555 1_555
C50_2 C49_2 1_555 1_555
C51_2 C50_2 1_555 1_555
H39_2 C51_2 1_555 1_555
C52_2 N17_2 1_555 1_555
H40_2 C52_2 1_555 1_555
C83_2 N11_2 1_555 1_555
H65_2 C83_2 1_555 1_555
C84_2 C83_2 1_555 1_555
H66_2 C84_2 1_555 1_555
C85_2 C50_2 1_555 1_555
C86_2 C85_2 1_555 1_555
H67_2 C86_2 1_555 1_555
C87_2 N11_2 1_555 1_555
H68_2 C87_2 1_555 1_555
Yb2A O19 1_555 1_555
Yb2A_2 O22 1_555 1_555
Yb3A O24 1_555 1_555
Yb3_3 O26 1_555 1_555
Yb3A_2 O27 1_555 1_555
Yb3A_3 O30A 1_555 1_555
O9A_2 Yb1A 1_555 1_555
O10A Yb1A 1_555 1_555
O12A Yb1A 1_555 1_555
O13A_2 Yb1A 1_555 1_555
O14A_2 Yb1A 1_555 1_555
O15_2 Yb2_2 1_555 1_555
O16_2 Yb2_2 1_555 1_555
O19A_2 Yb2_2 1_555 1_555
O20_3 Yb2_2 1_555 1_555
O21_2 Yb2_2 1_555 1_555
O22A_2 Yb2_2 1_555 1_555
O23_3 Yb3_2 1_555 1_555
O24A_2 Yb3_2 1_555 1_555
O25_2 Yb3_2 1_555 1_555
O26_3 Yb3_2 1_555 1_555
O27A_2 Yb3_2 1_555 1_555
O29A_2 Yb3_2 1_555 1_555
O30_2 Yb3_2 1_555 1_555
Yb1_2 O10_2 1_555 1_555
Yb1A_2 O9A 1_555 1_555
Yb1A_3 O13A 1_555 1_555
Yb2_3 O20_2 1_555 1_555
Yb2A_3 O16A 1_555 1_555
Yb1_3 O12_2 1_555 1_555
Yb1A_4 O14A 1_555 1_555
Yb3A_4 O25A 1_555 1_555
Yb2A_4 O15A 1_555 1_555
Yb3_4 O23_2 1_555 1_555
O29 Yb3A_2 1_555 1_555
C6 C9 1_555 1_555
C7 C8 1_555 1_555
C10 C12 1_555 1_555
C16 C17 1_555 1_555
C19 C22 1_555 1_555
C20 C21 1_555 1_555
C25 C26 1_555 1_555
C25 C28 1_555 1_555
C29 C30 1_555 1_555
C31 C32 1_555 1_555
C36 C37 1_555 1_555
C41 C42 1_555 1_555
C46 C47 1_555 1_555
C51 C52 1_555 1_555
C56 C57 1_555 1_555
C61 C62 1_555 1_555
C66 C67 1_555 1_555
C69 C70 1_555 1_555
C71 C72 1_555 1_555
C76 C77 1_555 1_555
C79 C80 1_555 1_555
C81 C82 1_555 1_555
C84 C85 1_555 1_555
C86 C87 1_555 1_555
C91 C92 1_555 1_555
C94 C95 1_555 1_555
C96 C97 1_555 1_555
C99 C100 1_555 1_555
C101 C102 1_555 1_555
C104 C105 1_555 1_555
C106 C107 1_555 1_555
C109 C111 1_555 1_555
C110 C111 1_555 1_555
C110 C112 1_555 1_555
C116 C117 1_555 1_555
C119 C120 1_555 1_555
C121 C122 1_555 1_555
C113A C117A 1_555 1_555
C42A C41A 1_555 1_555
C76_2 C77_2 1_555 1_555
C99_2 C100_2 1_555 1_555
C101_2 C102_2 1_555 1_555
C91A C92A 1_555 1_555
C119A C120A 1_555 1_555
C121A C122A 1_555 1_555
C66A C67A 1_555 1_555
C94A C95A 1_555 1_555
C96A C97A 1_555 1_555
O21A Yb2A 1_555 1_555
C36A C37A 1_555 1_555
C79A C80A 1_555 1_555
C81A C82A 1_555 1_555
C61_2 C62_2 1_555 1_555
C69_2 C70_2 1_555 1_555
C71_2 C72_2 1_555 1_555
C23A C24A 1_555 1_555
C25A C26A 1_555 1_555
C25A C28A 1_555 1_555
C31A C32A 1_555 1_555
C56_2 C57_2 1_555 1_555
C109_2 C111_2 1_555 1_555
C110_2 C111_2 1_555 1_555
C110_2 C112_2 1_555 1_555
C16A C17A 1_555 1_555
C19A C22A 1_555 1_555
C46A C47A 1_555 1_555
C104A C105A 1_555 1_555
C106A C107A 1_555 1_555
C6A C9A 1_555 1_555
C7A C8A 1_555 1_555
C10A C12A 1_555 1_555
C51_2 C52_2 1_555 1_555
C84_2 C85_2 1_555 1_555
C86_2 C87_2 1_555 1_555

#END
