
#######################################################################
#
#                 Cambridge Crystallographic Data Centre
#                                CCDC 
#
#######################################################################
#
# If this CIF has been generated from an entry in the Cambridge 
# Structural Database, then it will include bibliographic, chemical, 
# crystal, experimental, refinement or atomic coordinate data resulting 
# from the CCDC's data processing and validation procedures.
#
#######################################################################

data_IXEFAT
_symmetry_cell_setting           monoclinic
_symmetry_space_group_name_H-M   'P 21/c'
_symmetry_Int_Tables_number      14
_space_group_name_Hall           '-P 2ybc'
loop_
_symmetry_equiv_pos_site_id
_symmetry_equiv_pos_as_xyz
1 x,y,z
2 -x,1/2+y,1/2-z
3 -x,-y,-z
4 x,1/2-y,1/2+z
_cell_length_a                   9.5557(4)
_cell_length_b                   9.7096(8)
_cell_length_c                   15.2138(10)
_cell_angle_alpha                90
_cell_angle_beta                 102.172(6)
_cell_angle_gamma                90
_cell_volume                     1379.83
loop_
_atom_site_label
_atom_site_type_symbol
_atom_site_fract_x
_atom_site_fract_y
_atom_site_fract_z
Sn1 Sn 0.083563(14) 0.111735(15) 0.766896(11)
O1 O 0.24473(14) 0.27533(15) 0.80965(11)
O2 O 0.06834(14) 0.42418(18) 0.77563(12)
O3 O 0.26857(15) 0.52215(17) 0.97019(11)
O4 O 0.60426(15) 0.81172(17) 0.89179(11)
N1 N 0.43595(17) 0.66907(19) 0.93176(12)
C1 C 0.2460(2) -0.0390(2) 0.80425(18)
H1 H 0.34 0.0059 0.8165
H2 H 0.241 -0.1053 0.7551
H3 H 0.2322 -0.0872 0.8584
C2 C 0.0365(2) 0.1797(3) 0.63207(17)
H4 H -0.0434 0.2451 0.6234
H5 H 0.0102 0.1006 0.592
H6 H 0.1209 0.2251 0.6182
C3 C -0.0345(2) 0.1563(3) 0.86639(18)
H7 H 0.0194 0.2213 0.91
H8 H -0.0509 0.071 0.8972
H9 H -0.1268 0.1971 0.838
C4 C 0.1985(2) 0.3976(2) 0.80193(15)
C5 C 0.3064(2) 0.5101(2) 0.82351(15)
C6 C 0.3391(2) 0.5701(2) 0.90794(15)
C7 C 0.5039(2) 0.7118(2) 0.86962(16)
C8 C 0.4808(2) 0.6618(3) 0.78302(16)
H10 H 0.5317 0.697 0.7405
C9 C 0.3807(2) 0.5584(2) 0.76070(16)
H11 H 0.3624 0.52 0.7019
C10 C 0.2947(3) 0.5918(3) 1.05497(17)
H12 H 0.3968 0.586 1.083
H13 H 0.2385 0.5484 1.0943
H14 H 0.2668 0.6887 1.0457
C11 C 0.6402(3) 0.8506(3) 0.98420(18)
H15 H 0.5541 0.883 1.0032
H16 H 0.7115 0.9246 0.9922
H17 H 0.6797 0.771 1.0207
Sn1A Sn -0.083563(14) 0.611735(15) 0.733104(11)
O2A O -0.06834(14) -0.07582(18) 0.72437(12)
loop_
_geom_bond_atom_site_label_1
_geom_bond_atom_site_label_2
_geom_bond_site_symmetry_1
_geom_bond_site_symmetry_2
Sn1 O1 1_555 1_555
O1 C4 1_555 1_555
O2 C4 1_555 1_555
O3 C6 1_555 1_555
O4 C7 1_555 1_555
N1 C6 1_555 1_555
C1 Sn1 1_555 1_555
H1 C1 1_555 1_555
H2 C1 1_555 1_555
H3 C1 1_555 1_555
C2 Sn1 1_555 1_555
H4 C2 1_555 1_555
H5 C2 1_555 1_555
H6 C2 1_555 1_555
C3 Sn1 1_555 1_555
H7 C3 1_555 1_555
H8 C3 1_555 1_555
H9 C3 1_555 1_555
C4 C5 1_555 1_555
C5 C6 1_555 1_555
C7 N1 1_555 1_555
C8 C7 1_555 1_555
H10 C8 1_555 1_555
C9 C5 1_555 1_555
H11 C9 1_555 1_555
C10 O3 1_555 1_555
H12 C10 1_555 1_555
H13 C10 1_555 1_555
H14 C10 1_555 1_555
C11 O4 1_555 1_555
H15 C11 1_555 1_555
H16 C11 1_555 1_555
H17 C11 1_555 1_555
Sn1A O2 1_555 1_555
O2A Sn1 1_555 1_555
C8 C9 1_555 1_555

#END
