
#######################################################################
#
#                 Cambridge Crystallographic Data Centre
#                                CCDC 
#
#######################################################################
#
# If this CIF has been generated from an entry in the Cambridge 
# Structural Database, then it will include bibliographic, chemical, 
# crystal, experimental, refinement or atomic coordinate data resulting 
# from the CCDC's data processing and validation procedures.
#
#######################################################################

data_IXEKUS01
_symmetry_cell_setting           triclinic
_symmetry_space_group_name_H-M   'P -1'
_symmetry_Int_Tables_number      2
_space_group_name_Hall           '-P 1'
loop_
_symmetry_equiv_pos_site_id
_symmetry_equiv_pos_as_xyz
1 x,y,z
2 -x,-y,-z
_cell_length_a                   9.389(5)
_cell_length_b                   10.442(6)
_cell_length_c                   15.507(5)
_cell_angle_alpha                77.828(4)
_cell_angle_beta                 75.570(5)
_cell_angle_gamma                84.742(5)
_cell_volume                     1438.02
loop_
_atom_site_label
_atom_site_type_symbol
_atom_site_fract_x
_atom_site_fract_y
_atom_site_fract_z
Cd1 Cd 0.5000 -0.5000 0.0000
N1 N 0.1778(6) -0.3171(5) 0.2105(3)
N2 N 0.7354(6) -0.6317(5) 0.2222(3)
N3 N 0.6230(5) -0.5990(5) 0.1107(3)
N4 N 0.3135(6) -0.4099(5) 0.1019(3)
C1 C 0.6735(6) -0.5422(6) 0.1647(4)
H1 H 0.6673 -0.4524 0.1633
C2 C 0.3142(7) -0.3483(6) 0.1662(4)
H2 H 0.3994 -0.3282 0.1800
O1 O 0.3492(6) -0.6757(5) 0.0210(4)
C3 C 0.1398(8) -0.2415(6) 0.2827(4)
C4 C 0.7245(8) -0.7539(6) 0.2017(5)
H3 H 0.7582 -0.8347 0.2296
C5 C 0.8028(7) -0.6053(7) 0.2895(4)
N5 N 1.0263(8) -0.5481(7) 0.4849(5)
C6 C 0.6555(8) -0.7308(6) 0.1338(5)
H4 H 0.6328 -0.7948 0.1063
C7 C 0.0855(8) -0.3635(8) 0.1711(5)
H5 H -0.0168 -0.3583 0.1873
C8 C 0.7521(9) -0.5081(8) 0.3314(5)
H6 H 0.6709 -0.4567 0.3186
C9 C 0.1685(8) -0.4175(8) 0.1055(5)
H7 H 0.1326 -0.4559 0.0667
C10 C 0.0080(9) -0.1734(7) 0.2948(5)
H8 H -0.0562 -0.1741 0.2579
N6 N 0.2225(9) -0.8580(8) 0.0561(5)
C11 C 0.0684(14) -0.0994(8) 0.4187(6)
C12 C 0.9405(9) -0.5619(10) 0.4157(5)
C13 C 0.2341(10) -0.2406(8) 0.3367(5)
H9 H 0.3233 -0.2882 0.3267
N7 N 0.0565(8) -0.0246(10) 0.4991(7)
C14 C -0.0276(12) -0.1014(8) 0.3657(6)
H10 H -0.1175 -0.0548 0.3763
C15 C 0.8230(11) -0.4815(10) 0.3973(5)
H11 H 0.7903 -0.4117 0.4268
C16 C 0.2006(12) -0.1715(9) 0.4047(6)
H12 H 0.2655 -0.1727 0.4414
C17 C 0.9847(11) -0.6587(11) 0.3752(6)
H13 H 1.0633 -0.7133 0.3889
C18 C 0.9172(10) -0.6817(8) 0.3124(5)
H14 H 0.9509 -0.7525 0.2841
C19 C 0.3376(10) -0.7879(10) 0.0379(6)
H15 H 0.4256 -0.8363 0.0386
C20 C 0.2286(19) -0.9992(12) 0.0737(10)
H16 H 0.1308 -1.0302 0.0875
H17 H 0.2722 -1.0320 0.1243
H18 H 0.2869 -1.0295 0.0210
C22 C 0.0822(14) -0.7907(17) 0.0471(15)
H20 H 0.0065 -0.8534 0.0648
H21 H 0.0896 -0.7476 -0.0149
H22 H 0.0583 -0.7270 0.0855
Cd1_2 Cd -0.5000 0.5000 1.0000
Cd1_3 Cd 1.5000 -0.5000 1.0000
N1A N -0.1778(6) 0.3171(5) 0.7895(3)
N2A N 1.2646(6) -0.3683(5) 0.7778(3)
N3A N 1.3770(5) -0.4010(5) 0.8893(3)
N3A_2 N 0.3770(5) -0.4010(5) -0.1107(3)
N4A N -0.3135(6) 0.4099(5) 0.8981(3)
N4A_2 N 0.6865(6) -0.5901(5) -0.1019(3)
C1A C 1.3265(6) -0.4578(6) 0.8353(4)
H1A H 1.3327 -0.5476 0.8367
C2A C -0.3142(7) 0.3483(6) 0.8338(4)
H2A H -0.3994 0.3282 0.8200
O1A O 0.6508(6) -0.3243(5) -0.0210(4)
C3A C -0.1398(8) 0.2415(6) 0.7173(4)
C4A C 1.2755(8) -0.2461(6) 0.7983(5)
H3A H 1.2418 -0.1653 0.7704
C5A C 1.1972(7) -0.3947(7) 0.7105(4)
N5A N 0.9737(8) -0.4519(7) 0.5151(5)
C6A C 1.3445(8) -0.2692(6) 0.8662(5)
H4A H 1.3672 -0.2052 0.8937
C7A C -0.0855(8) 0.3635(8) 0.8289(5)
H5A H 0.0168 0.3583 0.8127
C8A C 1.2479(9) -0.4919(8) 0.6686(5)
H6A H 1.3291 -0.5433 0.6814
C9A C -0.1685(8) 0.4175(8) 0.8945(5)
H7A H -0.1326 0.4559 0.9333
C10A C -0.0080(9) 0.1734(7) 0.7052(5)
H8A H 0.0562 0.1741 0.7421
N6A N 0.7775(9) -0.1420(8) -0.0561(5)
C11A C -0.0684(14) 0.0994(8) 0.5813(6)
C12A C 1.0595(9) -0.4381(10) 0.5843(5)
C13A C -0.2341(10) 0.2406(8) 0.6633(5)
H9A H -0.3233 0.2882 0.6733
N7A N -0.0565(8) 0.0246(10) 0.5009(7)
C14A C 0.0276(12) 0.1014(8) 0.6343(6)
H10A H 0.1175 0.0548 0.6237
C15A C 1.1770(11) -0.5185(10) 0.6027(5)
H11A H 1.2097 -0.5883 0.5732
C16A C -0.2006(12) 0.1715(9) 0.5953(6)
H12A H -0.2655 0.1727 0.5586
C17A C 1.0153(11) -0.3413(11) 0.6248(6)
H13A H 0.9367 -0.2867 0.6111
C18A C 1.0828(10) -0.3183(8) 0.6876(5)
H14A H 1.0491 -0.2475 0.7159
C19A C 0.6624(10) -0.2121(10) -0.0379(6)
H15A H 0.5744 -0.1637 -0.0386
C20A C 0.7714(19) -0.0008(12) -0.0737(10)
H16A H 0.8692 0.0302 -0.0875
H17A H 0.7278 0.0320 -0.1243
H18A H 0.7131 0.0295 -0.0210
C22A C 0.9178(14) -0.2093(17) -0.0471(15)
H20A H 0.9935 -0.1466 -0.0648
H21A H 0.9104 -0.2524 0.0149
H22A H 0.9417 -0.2730 -0.0855
Cl1 Cl 0.6445(2) -0.11659(19) 0.20121(16)
O2 O 0.6615(15) -0.2419(7) 0.1932(8)
O3 O 0.7763(10) -0.0496(9) 0.1542(8)
O4 O 0.5318(12) -0.0478(10) 0.1622(8)
O5 O 0.6212(13) -0.0986(12) 0.2907(7)
O6 O 0.4020(10) -0.5379(11) 0.3472(8)
N8 N 0.391(2) -0.7462(18) 0.3797(12)
C21 C 0.3754(17) -0.6272(14) 0.3330(15)
H19 H 0.3369 -0.6203 0.2824
C23 C 0.345(4) -0.848(3) 0.344(2)
H23 H 0.3647 -0.9320 0.3791
H24 H 0.3990 -0.8435 0.2818
H25 H 0.2420 -0.8360 0.3463
C24 C 0.4475(18) -0.767(2) 0.4569(14)
H26 H 0.4539 -0.8589 0.4810
H27 H 0.3834 -0.7233 0.5016
H28 H 0.5437 -0.7316 0.4412
loop_
_geom_bond_atom_site_label_1
_geom_bond_atom_site_label_2
_geom_bond_site_symmetry_1
_geom_bond_site_symmetry_2
Cd1 N3 1_555 1_555
Cl1 O2 1_555 1_555
N1 C2 1_555 1_555
N2 C1 1_555 1_555
N3 C1 1_555 1_555
N4 Cd1 1_555 1_555
C1 H1 1_555 1_555
C2 N4 1_555 1_555
H2 C2 1_555 1_555
O1 Cd1 1_555 1_555
C3 N1 1_555 1_555
C4 N2 1_555 1_555
H3 C4 1_555 1_555
C5 N2 1_555 1_555
N5 C12 1_555 1_555
C6 N3 1_555 1_555
H4 C6 1_555 1_555
C7 N1 1_555 1_555
H5 C7 1_555 1_555
C8 C5 1_555 1_555
H6 C8 1_555 1_555
C9 N4 1_555 1_555
H7 C9 1_555 1_555
C10 C3 1_555 1_555
H8 C10 1_555 1_555
N6 C19 1_555 1_555
C11 N7 1_555 1_555
O3 Cl1 1_555 1_555
C12 C15 1_555 1_555
C13 C3 1_555 1_555
H9 C13 1_555 1_555
N7 N7A 1_555 1_555
C14 C10 1_555 1_555
H10 C14 1_555 1_555
C15 C8 1_555 1_555
H11 C15 1_555 1_555
C16 C11 1_555 1_555
H12 C16 1_555 1_555
C17 C12 1_555 1_555
H13 C17 1_555 1_555
C18 C5 1_555 1_555
H14 C18 1_555 1_555
O4 Cl1 1_555 1_555
O5 Cl1 1_555 1_555
C19 O1 1_555 1_555
H15 C19 1_555 1_555
O6 C21 1_555 1_555
N8 C21 1_555 1_555
C20 N6 1_555 1_555
H16 C20 1_555 1_555
H17 C20 1_555 1_555
H18 C20 1_555 1_555
C21 H19 1_555 1_555
C22 N6 1_555 1_555
H20 C22 1_555 1_555
H21 C22 1_555 1_555
H22 C22 1_555 1_555
C23 N8 1_555 1_555
H23 C23 1_555 1_555
H24 C23 1_555 1_555
H25 C23 1_555 1_555
C24 N8 1_555 1_555
H26 C24 1_555 1_555
H27 C24 1_555 1_555
H28 C24 1_555 1_555
Cd1_2 N4A 1_555 1_555
Cd1_3 N3A 1_555 1_555
N1A C2A 1_555 1_555
N2A C1A 1_555 1_555
N3A C1A 1_555 1_555
N3A_2 Cd1 1_555 1_555
N4A C2A 1_555 1_555
N4A_2 Cd1 1_555 1_555
C1A H1A 1_555 1_555
C2A H2A 1_555 1_555
O1A Cd1 1_555 1_555
C3A N1A 1_555 1_555
C4A N2A 1_555 1_555
H3A C4A 1_555 1_555
C5A N2A 1_555 1_555
N5A N5 1_555 1_555
C6A N3A 1_555 1_555
H4A C6A 1_555 1_555
C7A N1A 1_555 1_555
H5A C7A 1_555 1_555
C8A C5A 1_555 1_555
H6A C8A 1_555 1_555
C9A N4A 1_555 1_555
H7A C9A 1_555 1_555
C10A C3A 1_555 1_555
H8A C10A 1_555 1_555
N6A C19A 1_555 1_555
C11A N7A 1_555 1_555
C12A N5A 1_555 1_555
C13A C3A 1_555 1_555
H9A C13A 1_555 1_555
C14A C10A 1_555 1_555
H10A C14A 1_555 1_555
C15A C8A 1_555 1_555
H11A C15A 1_555 1_555
C16A C11A 1_555 1_555
H12A C16A 1_555 1_555
C17A C12A 1_555 1_555
H13A C17A 1_555 1_555
C18A C5A 1_555 1_555
H14A C18A 1_555 1_555
C19A O1A 1_555 1_555
H15A C19A 1_555 1_555
C20A N6A 1_555 1_555
H16A C20A 1_555 1_555
H17A C20A 1_555 1_555
H18A C20A 1_555 1_555
C22A N6A 1_555 1_555
H20A C22A 1_555 1_555
H21A C22A 1_555 1_555
H22A C22A 1_555 1_555
C4 C6 1_555 1_555
C7 C9 1_555 1_555
C11 C14 1_555 1_555
C13 C16 1_555 1_555
C17 C18 1_555 1_555
C4A C6A 1_555 1_555
C7A C9A 1_555 1_555
C11A C14A 1_555 1_555
C12A C15A 1_555 1_555
C13A C16A 1_555 1_555
C17A C18A 1_555 1_555

#END
