
#######################################################################
#
#                 Cambridge Crystallographic Data Centre
#                                CCDC 
#
#######################################################################
#
# If this CIF has been generated from an entry in the Cambridge 
# Structural Database, then it will include bibliographic, chemical, 
# crystal, experimental, refinement or atomic coordinate data resulting 
# from the CCDC's data processing and validation procedures.
#
#######################################################################

data_IXEKUS
_symmetry_cell_setting           triclinic
_symmetry_space_group_name_H-M   'P -1'
_symmetry_Int_Tables_number      2
_space_group_name_Hall           '-P 1'
loop_
_symmetry_equiv_pos_site_id
_symmetry_equiv_pos_as_xyz
1 x,y,z
2 -x,-y,-z
_cell_length_a                   9.233(5)
_cell_length_b                   10.375(6)
_cell_length_c                   15.393(4)
_cell_angle_alpha                76.162(5)
_cell_angle_beta                 75.294(3)
_cell_angle_gamma                84.377(5)
_cell_volume                     1383.74
loop_
_atom_site_label
_atom_site_type_symbol
_atom_site_fract_x
_atom_site_fract_y
_atom_site_fract_z
Cd1 Cd 0.5000 0.5000 0.5000
O1 O 0.3384(4) 0.3291(3) 0.5176(2)
N1 N 0.2611(4) 0.6466(4) 0.2756(3)
N2 N 0.3149(5) 0.5883(4) 0.6039(3)
N3 N 0.1791(5) 0.6822(4) 0.7141(3)
N4 N 0.0613(6) 0.9775(6) 0.9948(5)
N5 N 0.3757(4) 0.6090(4) 0.3892(3)
N6 N -0.0231(5) 0.5505(5) 0.0150(3)
N7 N 0.2163(5) 0.1402(4) 0.5458(3)
C1 C 0.3195(6) 0.6553(5) 0.6651(3)
H1 H 0.4073 0.6811 0.6741
C2 C 0.1657(6) 0.5722(6) 0.6128(4)
H2 H 0.1285 0.5283 0.5774
C3 C 0.0808(6) 0.6287(6) 0.6798(4)
H3 H -0.0232 0.6311 0.6990
C4 C 0.1419(6) 0.7543(5) 0.7853(3)
C5 C 0.2445(7) 0.7595(6) 0.8359(4)
H4 H 0.3362 0.7130 0.8253
C6 C 0.2104(9) 0.8336(7) 0.9019(4)
H5 H 0.2801 0.8383 0.9353
C7 C 0.0740(10) 0.9010(6) 0.9192(4)
C8 C -0.0287(9) 0.8943(6) 0.8697(4)
H6 H -0.1214 0.9390 0.8821
C9 C 0.0036(7) 0.8217(6) 0.8009(4)
H7 H -0.0654 0.8186 0.7668
C10 C 0.3255(5) 0.5537(5) 0.3344(3)
H8 H 0.3332 0.4632 0.3358
C11 C 0.3415(6) 0.7435(5) 0.3645(3)
H9 H 0.3638 0.8077 0.3917
C12 C 0.2705(6) 0.7678(5) 0.2948(4)
H10 H 0.2353 0.8498 0.2659
C13 C 0.1930(5) 0.6210(5) 0.2074(3)
C14 C 0.2527(6) 0.5198(6) 0.1625(4)
H11 H 0.3380 0.4708 0.1746
C15 C 0.1829(7) 0.4927(6) 0.0991(4)
H12 H 0.2203 0.4240 0.0694
C16 C 0.0578(6) 0.5683(6) 0.0802(4)
C17 C 0.0039(7) 0.6716(6) 0.1229(4)
H13 H -0.0776 0.7242 0.1080
C18 C 0.0698(7) 0.6978(5) 0.1874(4)
H14 H 0.0318 0.7665 0.2171
C19 C 0.3328(6) 0.2074(5) 0.5380(4)
H15 H 0.4192 0.1590 0.5487
C20 C 0.0790(7) 0.2095(8) 0.5239(6)
H16 H 0.0047 0.1458 0.5331
H17 H 0.1009 0.2578 0.4609
H18 H 0.0416 0.2702 0.5635
C21 C 0.2193(9) -0.0054(6) 0.5686(5)
H19 H 0.1230 -0.0353 0.5707
H20 H 0.2424 -0.0378 0.6276
H21 H 0.2943 -0.0385 0.5225
Cd1_2 Cd -0.5000 0.5000 -0.5000
Cd1_3 Cd -0.5000 1.5000 1.5000
O1A O 0.6616(4) 0.6709(3) 0.4824(2)
N1A N -0.2611(4) 0.3534(4) -0.2756(3)
N2A N -0.3149(5) 1.4117(4) 1.3961(3)
N2A_2 N 0.6851(5) 0.4117(4) 0.3961(3)
N3A N -0.1791(5) 1.3178(4) 1.2859(3)
N4A N -0.0613(6) 1.0225(6) 1.0052(5)
N5A N -0.3757(4) 0.3910(4) -0.3892(3)
N5A_2 N 0.6243(4) 0.3910(4) 0.6108(3)
N6A N 0.0231(5) 0.4495(5) -0.0150(3)
N7A N 0.7837(5) 0.8598(4) 0.4542(3)
C1A C -0.3195(6) 1.3447(5) 1.3349(3)
H1A H -0.4073 1.3189 1.3259
C2A C -0.1657(6) 1.4278(6) 1.3872(4)
H2A H -0.1285 1.4717 1.4226
C3A C -0.0808(6) 1.3713(6) 1.3202(4)
H3A H 0.0232 1.3689 1.3010
C4A C -0.1419(6) 1.2457(5) 1.2147(3)
C5A C -0.2445(7) 1.2405(6) 1.1641(4)
H4A H -0.3362 1.2870 1.1747
C6A C -0.2104(9) 1.1664(7) 1.0981(4)
H5A H -0.2801 1.1617 1.0647
C7A C -0.0740(10) 1.0990(6) 1.0808(4)
C8A C 0.0287(9) 1.1057(6) 1.1303(4)
H6A H 0.1214 1.0610 1.1179
C9A C -0.0036(7) 1.1783(6) 1.1991(4)
H7A H 0.0654 1.1814 1.2332
C10A C -0.3255(5) 0.4463(5) -0.3344(3)
H8A H -0.3332 0.5368 -0.3358
C11A C -0.3415(6) 0.2565(5) -0.3645(3)
H9A H -0.3638 0.1923 -0.3917
C12A C -0.2705(6) 0.2322(5) -0.2948(4)
H10A H -0.2353 0.1502 -0.2659
C13A C -0.1930(5) 0.3790(5) -0.2074(3)
C14A C -0.2527(6) 0.4802(6) -0.1625(4)
H11A H -0.3380 0.5292 -0.1746
C15A C -0.1829(7) 0.5073(6) -0.0991(4)
H12A H -0.2203 0.5760 -0.0694
C16A C -0.0578(6) 0.4317(6) -0.0802(4)
C17A C -0.0039(7) 0.3284(6) -0.1229(4)
H13A H 0.0776 0.2758 -0.1080
C18A C -0.0698(7) 0.3022(5) -0.1874(4)
H14A H -0.0318 0.2335 -0.2171
C19A C 0.6672(6) 0.7926(5) 0.4620(4)
H15A H 0.5808 0.8410 0.4513
C20A C 0.9210(7) 0.7905(8) 0.4761(6)
H16A H 0.9953 0.8542 0.4669
H17A H 0.8991 0.7422 0.5391
H18A H 0.9584 0.7298 0.4365
C21A C 0.7807(9) 1.0054(6) 0.4314(5)
H19A H 0.8770 1.0353 0.4293
H20A H 0.7576 1.0378 0.3724
H21A H 0.7057 1.0385 0.4775
Cl1 Cl 0.35461(14) 0.11761(11) 0.30033(9)
O2 O 0.3407(5) 0.2538(4) 0.3055(3)
O3 O 0.3903(6) 0.1078(6) 0.2066(3)
O4 O 0.2148(5) 0.0549(4) 0.3467(3)
O5 O 0.4698(5) 0.0522(4) 0.3450(4)
O6 O 0.6039(6) -0.4669(6) 0.1532(4)
N8 N 0.6118(15) -0.2436(13) 0.1369(9)
C22 C 0.6248(11) -0.3769(9) 0.1692(9)
H22 H 0.6638 -0.3954 0.2212
C23 C 0.555(3) -0.215(2) 0.0589(14)
H23 H 0.5445 -0.1204 0.0380
H24 H 0.4587 -0.2531 0.0736
H25 H 0.6221 -0.2515 0.0113
C24 C 0.661(2) -0.166(2) 0.1911(14)
H26 H 0.6476 -0.0733 0.1653
H27 H 0.7646 -0.1875 0.1902
H28 H 0.6021 -0.1873 0.2535
loop_
_geom_bond_atom_site_label_1
_geom_bond_atom_site_label_2
_geom_bond_site_symmetry_1
_geom_bond_site_symmetry_2
Cd1 O1 1_555 1_555
Cl1 O2 1_555 1_555
O1 C19 1_555 1_555
O3 Cl1 1_555 1_555
O4 Cl1 1_555 1_555
O5 Cl1 1_555 1_555
O6 C22 1_555 1_555
N1 C10 1_555 1_555
N2 Cd1 1_555 1_555
N3 C1 1_555 1_555
N4 C7 1_555 1_555
N5 Cd1 1_555 1_555
N6 C16 1_555 1_555
N7 C19 1_555 1_555
N8 C22 1_555 1_555
C1 N2 1_555 1_555
H1 C1 1_555 1_555
C2 N2 1_555 1_555
H2 C2 1_555 1_555
C3 N3 1_555 1_555
H3 C3 1_555 1_555
C4 N3 1_555 1_555
C5 C4 1_555 1_555
H4 C5 1_555 1_555
C6 C5 1_555 1_555
H5 C6 1_555 1_555
C7 C6 1_555 1_555
C8 C7 1_555 1_555
H6 C8 1_555 1_555
C9 C4 1_555 1_555
H7 C9 1_555 1_555
C10 N5 1_555 1_555
H8 C10 1_555 1_555
C11 N5 1_555 1_555
H9 C11 1_555 1_555
C12 N1 1_555 1_555
H10 C12 1_555 1_555
C13 N1 1_555 1_555
C14 C13 1_555 1_555
H11 C14 1_555 1_555
C15 C14 1_555 1_555
H12 C15 1_555 1_555
C16 C15 1_555 1_555
C17 C16 1_555 1_555
H13 C17 1_555 1_555
C18 C13 1_555 1_555
H14 C18 1_555 1_555
C19 H15 1_555 1_555
C20 N7 1_555 1_555
H16 C20 1_555 1_555
H17 C20 1_555 1_555
H18 C20 1_555 1_555
C21 N7 1_555 1_555
H19 C21 1_555 1_555
H20 C21 1_555 1_555
H21 C21 1_555 1_555
C22 H22 1_555 1_555
C23 N8 1_555 1_555
H23 C23 1_555 1_555
H24 C23 1_555 1_555
H25 C23 1_555 1_555
C24 N8 1_555 1_555
H26 C24 1_555 1_555
H27 C24 1_555 1_555
H28 C24 1_555 1_555
Cd1_2 N5A 1_555 1_555
Cd1_3 N2A 1_555 1_555
O1A Cd1 1_555 1_555
N1A C10A 1_555 1_555
N2A C1A 1_555 1_555
N2A_2 Cd1 1_555 1_555
N3A C1A 1_555 1_555
N4A N4 1_555 1_555
N5A C10A 1_555 1_555
N5A_2 Cd1 1_555 1_555
N6A N6 1_555 1_555
N7A C19A 1_555 1_555
C1A H1A 1_555 1_555
C2A N2A 1_555 1_555
H2A C2A 1_555 1_555
C3A N3A 1_555 1_555
H3A C3A 1_555 1_555
C4A N3A 1_555 1_555
C5A C4A 1_555 1_555
H4A C5A 1_555 1_555
C6A C5A 1_555 1_555
H5A C6A 1_555 1_555
C7A N4A 1_555 1_555
C8A C7A 1_555 1_555
H6A C8A 1_555 1_555
C9A C4A 1_555 1_555
H7A C9A 1_555 1_555
C10A H8A 1_555 1_555
C11A N5A 1_555 1_555
H9A C11A 1_555 1_555
C12A N1A 1_555 1_555
H10A C12A 1_555 1_555
C13A N1A 1_555 1_555
C14A C13A 1_555 1_555
H11A C14A 1_555 1_555
C15A C14A 1_555 1_555
H12A C15A 1_555 1_555
C16A N6A 1_555 1_555
C17A C16A 1_555 1_555
H13A C17A 1_555 1_555
C18A C13A 1_555 1_555
H14A C18A 1_555 1_555
C19A O1A 1_555 1_555
H15A C19A 1_555 1_555
C20A N7A 1_555 1_555
H16A C20A 1_555 1_555
H17A C20A 1_555 1_555
H18A C20A 1_555 1_555
C21A N7A 1_555 1_555
H19A C21A 1_555 1_555
H20A C21A 1_555 1_555
H21A C21A 1_555 1_555
C2 C3 1_555 1_555
C8 C9 1_555 1_555
C11 C12 1_555 1_555
C17 C18 1_555 1_555
C2A C3A 1_555 1_555
C6A C7A 1_555 1_555
C8A C9A 1_555 1_555
C11A C12A 1_555 1_555
C15A C16A 1_555 1_555
C17A C18A 1_555 1_555

#END
