
#######################################################################
#
#                 Cambridge Crystallographic Data Centre
#                                CCDC 
#
#######################################################################
#
# If this CIF has been generated from an entry in the Cambridge 
# Structural Database, then it will include bibliographic, chemical, 
# crystal, experimental, refinement or atomic coordinate data resulting 
# from the CCDC's data processing and validation procedures.
#
#######################################################################

data_IXELUT
_symmetry_cell_setting           triclinic
_symmetry_space_group_name_H-M   'P -1'
_symmetry_Int_Tables_number      2
_space_group_name_Hall           '-P 1'
loop_
_symmetry_equiv_pos_site_id
_symmetry_equiv_pos_as_xyz
1 x,y,z
2 -x,-y,-z
_cell_length_a                   10.203(3)
_cell_length_b                   10.415(5)
_cell_length_c                   15.118(6)
_cell_angle_alpha                76.404(5)
_cell_angle_beta                 77.217(5)
_cell_angle_gamma                82.000(4)
_cell_volume                     1516.33
loop_
_atom_site_label
_atom_site_type_symbol
_atom_site_fract_x
_atom_site_fract_y
_atom_site_fract_z
Cd1 Cd 0.5000 0.5000 0.0000
O1 O 0.3628(3) 0.3282(3) 0.0260(2)
N1 N 0.3218(4) 0.5844(4) 0.1074(3)
N2 N 0.1793(4) 0.6732(4) 0.2142(3)
N3 N -0.0373(4) 0.9911(4) 0.4748(3)
N4 N 0.3775(4) 0.6016(4) -0.1123(3)
N5 N 0.2614(4) 0.6338(4) -0.2230(3)
N6 N -0.0248(5) 0.5479(5) -0.4843(4)
N7 N 0.2566(4) 0.1410(4) 0.0747(3)
C1 C 0.3106(5) 0.6539(5) 0.1716(3)
H1 H 0.3826 0.6855 0.1858
C2 C 0.1921(5) 0.5606(5) 0.1075(3)
H2 H 0.1691 0.5139 0.0686
C3 C 0.1030(5) 0.6148(5) 0.1725(3)
H3 H 0.0098 0.6131 0.1862
C4 C 0.1271(5) 0.7531(5) 0.2821(3)
C5 C 0.2055(5) 0.7632(5) 0.3443(3)
H4 H 0.2911 0.7181 0.3422
C6 C 0.1550(5) 0.8412(5) 0.4092(4)
H5 H 0.2064 0.8486 0.4512
C7 C 0.0266(5) 0.9084(5) 0.4112(3)
C8 C -0.0518(5) 0.8962(5) 0.3494(3)
H6 H -0.1379 0.9402 0.3519
C9 C -0.0019(5) 0.8187(5) 0.2841(3)
H7 H -0.0536 0.8106 0.2425
C10 C 0.3247(5) 0.5430(5) -0.1623(3)
H8 H 0.3301 0.4517 -0.1569
C11 C 0.3471(5) 0.7372(5) -0.1422(3)
H9 H 0.3726 0.8033 -0.1192
C12 C 0.2748(5) 0.7576(5) -0.2099(3)
H10 H 0.2408 0.8389 -0.2414
C13 C 0.1924(5) 0.6057(5) -0.2885(3)
C14 C 0.2315(6) 0.4900(6) -0.3218(4)
H11 H 0.3011 0.4301 -0.3021
C15 C 0.1624(7) 0.4661(7) -0.3862(4)
H12 H 0.1864 0.3895 -0.4098
C16 C 0.0574(6) 0.5571(7) -0.4153(4)
C17 C 0.0215(6) 0.6693(7) -0.3810(4)
H13 H -0.0483 0.7293 -0.4002
C18 C 0.0884(6) 0.6945(6) -0.3178(4)
H14 H 0.0635 0.7715 -0.2947
C19 C 0.3627(5) 0.2077(5) 0.0346(3)
H15 H 0.4423 0.1608 0.0114
C20 C 0.1303(5) 0.2107(5) 0.1133(4)
H16 H 0.1503 0.2730 0.1461
H17 H 0.0749 0.1470 0.1579
C21 C 0.0502(5) 0.2860(5) 0.0394(4)
H18 H -0.0315 0.3295 0.0686
H19 H 0.0285 0.2247 0.0074
H20 H 0.1035 0.3509 -0.0042
C22 C 0.2646(5) -0.0027(5) 0.0849(4)
H21 H 0.2483 -0.0441 0.1504
H22 H 0.3551 -0.0341 0.0574
C23 C 0.1631(6) -0.0453(5) 0.0391(4)
H23 H 0.1727 -0.1402 0.0474
H24 H 0.1797 -0.0059 -0.0260
H25 H 0.0732 -0.0166 0.0671
Cd1_2 Cd -0.5000 0.5000 -1.0000
Cd1_3 Cd -0.5000 1.5000 1.0000
O1A O 0.6372(3) 0.6718(3) -0.0260(2)
N1A N -0.3218(4) 1.4156(4) 0.8926(3)
N1A_2 N 0.6782(4) 0.4156(4) -0.1074(3)
N2A N -0.1793(4) 1.3268(4) 0.7858(3)
N3A N 0.0373(4) 1.0089(4) 0.5252(3)
N4A N -0.3775(4) 0.3984(4) -0.8877(3)
N4A_2 N 0.6225(4) 0.3984(4) 0.1123(3)
N5A N -0.2614(4) 0.3662(4) -0.7770(3)
N6A N 0.0248(5) 0.4521(5) -0.5157(4)
N7A N 0.7434(4) 0.8590(4) -0.0747(3)
C1A C -0.3106(5) 1.3461(5) 0.8284(3)
H1A H -0.3826 1.3145 0.8142
C2A C -0.1921(5) 1.4394(5) 0.8925(3)
H2A H -0.1691 1.4861 0.9314
C3A C -0.1030(5) 1.3852(5) 0.8275(3)
H3A H -0.0098 1.3869 0.8138
C4A C -0.1271(5) 1.2469(5) 0.7179(3)
C5A C -0.2055(5) 1.2368(5) 0.6557(3)
H4A H -0.2911 1.2819 0.6578
C6A C -0.1550(5) 1.1588(5) 0.5908(4)
H5A H -0.2064 1.1514 0.5488
C7A C -0.0266(5) 1.0916(5) 0.5888(3)
C8A C 0.0518(5) 1.1038(5) 0.6506(3)
H6A H 0.1379 1.0598 0.6481
C9A C 0.0019(5) 1.1813(5) 0.7159(3)
H7A H 0.0536 1.1894 0.7575
C10A C -0.3247(5) 0.4570(5) -0.8377(3)
H8A H -0.3301 0.5483 -0.8431
C11A C -0.3471(5) 0.2628(5) -0.8578(3)
H9A H -0.3726 0.1967 -0.8808
C12A C -0.2748(5) 0.2424(5) -0.7901(3)
H10A H -0.2408 0.1611 -0.7586
C13A C -0.1924(5) 0.3943(5) -0.7115(3)
C14A C -0.2315(6) 0.5100(6) -0.6782(4)
H11A H -0.3011 0.5699 -0.6979
C15A C -0.1624(7) 0.5339(7) -0.6138(4)
H12A H -0.1864 0.6105 -0.5902
C16A C -0.0574(6) 0.4429(7) -0.5847(4)
C17A C -0.0215(6) 0.3307(7) -0.6190(4)
H13A H 0.0483 0.2707 -0.5998
C18A C -0.0884(6) 0.3055(6) -0.6822(4)
H14A H -0.0635 0.2285 -0.7053
C19A C 0.6373(5) 0.7923(5) -0.0346(3)
H15A H 0.5577 0.8392 -0.0114
C20A C 0.8697(5) 0.7893(5) -0.1133(4)
H16A H 0.8497 0.7270 -0.1461
H17A H 0.9251 0.8530 -0.1579
C21A C 0.9498(5) 0.7140(5) -0.0394(4)
H18A H 1.0315 0.6705 -0.0686
H19A H 0.9715 0.7753 -0.0074
H20A H 0.8965 0.6491 0.0042
C22A C 0.7354(5) 1.0027(5) -0.0849(4)
H21A H 0.7517 1.0441 -0.1504
H22A H 0.6449 1.0341 -0.0574
C23A C 0.8369(6) 1.0453(5) -0.0391(4)
H23A H 0.8273 1.1402 -0.0474
H24A H 0.8203 1.0059 0.0260
H25A H 0.9268 1.0166 -0.0671
Cl1 Cl 0.36890(13) 0.14402(12) -0.20255(9)
O2 O 0.4622(5) 0.2365(5) -0.2564(4)
O3 O 0.3188(5) 0.0796(5) -0.2579(4)
O4 O 0.4319(5) 0.0473(5) -0.1371(3)
O5 O 0.2550(5) 0.2182(4) -0.1543(3)
O6 O 0.3466(8) -0.1503(15) -0.4351(5)
N8 N 0.5532(6) -0.1727(6) -0.4188(4)
C24 C 0.4363(6) -0.1155(7) -0.4144(4)
H26 H 0.4200 -0.0375 -0.3923
C25 C 0.6529(14) -0.111(2) -0.3922(9)
H27 H 0.6247 -0.0169 -0.3996
H28 H 0.7373 -0.1204 -0.4357
C26 C 0.6809(9) -0.1609(13) -0.2959(6)
H29 H 0.7493 -0.1127 -0.2875
H30 H 0.7115 -0.2536 -0.2874
H31 H 0.5997 -0.1484 -0.2513
C27 C 0.602(3) -0.2823(12) -0.4552(8)
H32 H 0.6957 -0.2727 -0.4841
H33 H 0.5540 -0.2799 -0.5045
C28 C 0.5949(12) -0.4189(10) -0.3934(8)
H34 H 0.6306 -0.4844 -0.4299
H35 H 0.5026 -0.4323 -0.3646
H36 H 0.6470 -0.4268 -0.3464
loop_
_geom_bond_atom_site_label_1
_geom_bond_atom_site_label_2
_geom_bond_site_symmetry_1
_geom_bond_site_symmetry_2
Cd1 O1 1_555 1_555
Cl1 O2 1_555 1_555
O1 C19 1_555 1_555
O3 Cl1 1_555 1_555
O4 Cl1 1_555 1_555
O5 Cl1 1_555 1_555
O6 C24 1_555 1_555
N1 Cd1 1_555 1_555
N2 C1 1_555 1_555
N3 C7 1_555 1_555
N4 Cd1 1_555 1_555
N5 C10 1_555 1_555
N6 C16 1_555 1_555
N7 C19 1_555 1_555
N8 C24 1_555 1_555
C1 N1 1_555 1_555
H1 C1 1_555 1_555
C2 N1 1_555 1_555
H2 C2 1_555 1_555
C3 N2 1_555 1_555
H3 C3 1_555 1_555
C4 N2 1_555 1_555
C5 C4 1_555 1_555
H4 C5 1_555 1_555
C6 C5 1_555 1_555
H5 C6 1_555 1_555
C7 C6 1_555 1_555
C8 C7 1_555 1_555
H6 C8 1_555 1_555
C9 C4 1_555 1_555
H7 C9 1_555 1_555
C10 N4 1_555 1_555
H8 C10 1_555 1_555
C11 N4 1_555 1_555
H9 C11 1_555 1_555
C12 N5 1_555 1_555
H10 C12 1_555 1_555
C13 N5 1_555 1_555
C14 C13 1_555 1_555
H11 C14 1_555 1_555
C15 C14 1_555 1_555
H12 C15 1_555 1_555
C16 C15 1_555 1_555
C17 C16 1_555 1_555
H13 C17 1_555 1_555
C18 C13 1_555 1_555
H14 C18 1_555 1_555
C19 H15 1_555 1_555
C20 N7 1_555 1_555
H16 C20 1_555 1_555
H17 C20 1_555 1_555
C21 C20 1_555 1_555
H18 C21 1_555 1_555
H19 C21 1_555 1_555
H20 C21 1_555 1_555
C22 N7 1_555 1_555
H21 C22 1_555 1_555
H22 C22 1_555 1_555
C23 C22 1_555 1_555
H23 C23 1_555 1_555
H24 C23 1_555 1_555
H25 C23 1_555 1_555
C24 H26 1_555 1_555
C25 N8 1_555 1_555
H27 C25 1_555 1_555
H28 C25 1_555 1_555
C26 C25 1_555 1_555
H29 C26 1_555 1_555
H30 C26 1_555 1_555
H31 C26 1_555 1_555
C27 N8 1_555 1_555
H32 C27 1_555 1_555
H33 C27 1_555 1_555
C28 C27 1_555 1_555
H34 C28 1_555 1_555
H35 C28 1_555 1_555
H36 C28 1_555 1_555
Cd1_2 N4A 1_555 1_555
Cd1_3 N1A 1_555 1_555
O1A Cd1 1_555 1_555
N1A C1A 1_555 1_555
N1A_2 Cd1 1_555 1_555
N2A C1A 1_555 1_555
N3A N3 1_555 1_555
N4A C10A 1_555 1_555
N4A_2 Cd1 1_555 1_555
N5A C10A 1_555 1_555
N6A N6 1_555 1_555
N7A C19A 1_555 1_555
C1A H1A 1_555 1_555
C2A N1A 1_555 1_555
H2A C2A 1_555 1_555
C3A N2A 1_555 1_555
H3A C3A 1_555 1_555
C4A N2A 1_555 1_555
C5A C4A 1_555 1_555
H4A C5A 1_555 1_555
C6A C5A 1_555 1_555
H5A C6A 1_555 1_555
C7A N3A 1_555 1_555
C8A C7A 1_555 1_555
H6A C8A 1_555 1_555
C9A C4A 1_555 1_555
H7A C9A 1_555 1_555
C10A H8A 1_555 1_555
C11A N4A 1_555 1_555
H9A C11A 1_555 1_555
C12A N5A 1_555 1_555
H10A C12A 1_555 1_555
C13A N5A 1_555 1_555
C14A C13A 1_555 1_555
H11A C14A 1_555 1_555
C15A C14A 1_555 1_555
H12A C15A 1_555 1_555
C16A N6A 1_555 1_555
C17A C16A 1_555 1_555
H13A C17A 1_555 1_555
C18A C13A 1_555 1_555
H14A C18A 1_555 1_555
C19A O1A 1_555 1_555
H15A C19A 1_555 1_555
C20A N7A 1_555 1_555
H16A C20A 1_555 1_555
H17A C20A 1_555 1_555
C21A C20A 1_555 1_555
H18A C21A 1_555 1_555
H19A C21A 1_555 1_555
H20A C21A 1_555 1_555
C22A N7A 1_555 1_555
H21A C22A 1_555 1_555
H22A C22A 1_555 1_555
C23A C22A 1_555 1_555
H23A C23A 1_555 1_555
H24A C23A 1_555 1_555
H25A C23A 1_555 1_555
C2 C3 1_555 1_555
C8 C9 1_555 1_555
C11 C12 1_555 1_555
C17 C18 1_555 1_555
C2A C3A 1_555 1_555
C6A C7A 1_555 1_555
C8A C9A 1_555 1_555
C11A C12A 1_555 1_555
C15A C16A 1_555 1_555
C17A C18A 1_555 1_555

#END
