
#######################################################################
#
#                 Cambridge Crystallographic Data Centre
#                                CCDC 
#
#######################################################################
#
# If this CIF has been generated from an entry in the Cambridge 
# Structural Database, then it will include bibliographic, chemical, 
# crystal, experimental, refinement or atomic coordinate data resulting 
# from the CCDC's data processing and validation procedures.
#
#######################################################################

data_IXELED
_symmetry_cell_setting           triclinic
_symmetry_space_group_name_H-M   'P -1'
_symmetry_Int_Tables_number      2
_space_group_name_Hall           '-P 1'
loop_
_symmetry_equiv_pos_site_id
_symmetry_equiv_pos_as_xyz
1 x,y,z
2 -x,-y,-z
_cell_length_a                   10.453(2)
_cell_length_b                   15.212(5)
_cell_length_c                   17.753(3)
_cell_angle_alpha                72.53(3)
_cell_angle_beta                 84.76(2)
_cell_angle_gamma                74.64(3)
_cell_volume                     2596.32
loop_
_atom_site_label
_atom_site_type_symbol
_atom_site_fract_x
_atom_site_fract_y
_atom_site_fract_z
Cd1 Cd 0.0000 0.0000 0.0000
Cd2 Cd 0.0000 1.0000 0.5000
O3 O -0.1715(6) 0.0323(4) -0.0898(4)
N1 N 0.0988(7) 1.0874(5) 0.3934(4)
C1 C 0.1541(9) 1.1575(6) 0.3909(6)
H1 H 0.1603 1.1794 0.4337
N2 N 0.9210(7) 1.8846(5) 0.0979(4)
N3 N 0.8425(6) 1.7648(5) 0.1679(4)
C2 C -0.2923(8) 0.0394(6) -0.0915(5)
H2 H -0.3336 0.0137 -0.0444
O8 O -0.1596(6) 1.0004(4) 0.4173(4)
C3 C 0.8547(8) 1.8233(5) 0.0964(5)
H3 H 0.8202 1.8209 0.0508
N4 N -0.1144(7) 0.1110(5) 0.0631(4)
N5 N 0.2003(7) 1.1926(5) 0.3170(4)
C4 C -0.2788(10) 1.0258(6) 0.4096(6)
H4 H -0.3291 1.0434 0.4512
N6 N -0.1574(7) 0.2119(5) 0.1339(4)
N7 N 0.1113(7) 0.8598(5) 0.4679(4)
N8 N 0.0321(8) 0.4768(6) 0.2864(6)
N9 N -0.0541(8) 0.4325(5) 0.3155(6)
N10 N 0.1432(7) 0.7283(5) 0.4328(4)
C5 C -0.0622(9) 0.1598(6) 0.0967(5)
H5 H 0.0275 0.1586 0.0949
C6 C -0.0324(9) 0.3910(6) 0.1872(6)
H6 H 0.0170 0.4353 0.1645
C7 C 0.7692(8) 1.6929(5) 0.1897(5)
C8 C -0.1356(9) 0.2717(6) 0.1786(6)
N11 N -0.3658(7) 0.0799(5) -0.1540(5)
C9 C 0.4088(11) 1.3532(7) 0.3249(8)
H7 H 0.4489 1.3684 0.3624
C10 C -0.0794(9) 0.3809(6) 0.2643(6)
C11 C 0.3726(10) 1.3692(7) 0.1911(7)
H8 H 0.3870 1.3963 0.1376
C12 C -0.0260(10) 0.5635(6) 0.3893(6)
H9 H -0.1023 0.5417 0.4042
C13 C 0.0039(9) 0.6252(6) 0.4264(5)
H10 H -0.0499 0.6432 0.4667
N12 N 0.5389(10) 1.4917(6) 0.2635(6)
N13 N 0.5138(10) 1.4603(6) 0.2132(7)
C14 C -0.1590(9) 0.3184(6) 0.2971(6)
H11 H -0.1938 0.3137 0.3478
C15 C 0.9526(9) 1.8633(6) 0.1755(5)
H12 H 1.0009 1.8950 0.1948
C16 C 0.2737(8) 1.2661(6) 0.2919(6)
C17 C 0.4291(9) 1.3931(7) 0.2459(7)
C18 C 0.0563(11) 0.5347(7) 0.3313(6)
C19 C -0.0582(9) 0.3363(6) 0.1444(6)
H13 H -0.0247 0.3421 0.0932
N14 N -0.3441(8) 1.0308(6) 0.3475(5)
C20 C 0.6229(10) 1.5600(7) 0.2342(7)
C21 C 0.9049(10) 1.7909(6) 0.2198(5)
H14 H 0.9122 1.7638 0.2742
C22 C 0.1737(9) 1.1413(7) 0.2713(5)
H15 H 0.1945 1.1489 0.2180
C23 C 0.2945(10) 1.3056(6) 0.2137(6)
H16 H 0.2563 1.2897 0.1759
C24 C 0.6375(10) 1.6058(7) 0.2858(7)
H17 H 0.5992 1.5918 0.3360
C25 C -0.2470(8) 0.1345(6) 0.0792(5)
H18 H -0.3089 0.1105 0.0625
C26 C 0.2421(10) 0.8135(7) 0.4741(6)
H19 H 0.3069 0.8342 0.4916
C27 C -0.5069(9) 0.0843(8) -0.1531(6)
H20 H -0.5418 0.1163 -0.2051
H21 H -0.5526 0.1185 -0.1170
H22 H -0.5192 0.0209 -0.1365
C28 C 0.6840(10) 1.5767(7) 0.1596(7)
H23 H 0.6728 1.5440 0.1250
C29 C 0.2658(9) 0.7322(7) 0.4512(6)
H24 H 0.3470 0.6893 0.4487
C30 C 0.3271(12) 1.2896(7) 0.3491(7)
H25 H 0.3094 1.2639 0.4023
C31 C 0.1160(9) 0.6582(6) 0.4007(6)
C32 C 0.0525(8) 0.8064(6) 0.4426(5)
H26 H -0.0378 0.8206 0.4330
C33 C 0.7628(10) 1.6434(6) 0.1364(6)
H27 H 0.8079 1.6535 0.0882
C34 C -0.2774(9) 0.1970(6) 0.1223(6)
H28 H -0.3607 0.2239 0.1402
C35 C -0.1863(10) 0.2634(7) 0.2544(6)
H29 H -0.2386 0.2210 0.2765
C36 C 0.1698(11) 0.5678(8) 0.3082(7)
H30 H 0.2257 0.5492 0.2689
C37 C 0.1117(9) 1.0779(7) 0.3184(5)
H31 H 0.0818 1.0339 0.3026
C38 C 0.7097(9) 1.6735(7) 0.2635(6)
H32 H 0.7184 1.7064 0.2984
C39 C -0.4867(12) 1.0622(9) 0.3397(7)
H33 H -0.5109 1.0589 0.2899
H34 H -0.5164 1.1266 0.3422
H35 H -0.5274 1.0218 0.3818
C40 C -0.2670(13) 0.9950(9) 0.2842(6)
H36 H -0.3256 1.0020 0.2431
H37 H -0.2230 0.9290 0.3054
H38 H -0.2022 1.0307 0.2630
C41 C 0.1978(11) 0.6287(7) 0.3447(6)
H39 H 0.2746 0.6500 0.3304
C43 C -0.3126(12) 0.1250(10) -0.2292(7)
H43 H -0.3813 0.1498 -0.2679
H44 H -0.2419 0.0791 -0.2453
H45 H -0.2790 0.1760 -0.2245
Cd1_2 Cd 1.0000 2.0000 0.0000
Cd2_2 Cd 0.0000 -1.0000 -0.5000
Cd2_3 Cd 1.0000 1.0000 -0.5000
O3A O 0.1715(6) -0.0323(4) 0.0898(4)
N1A N 0.9012(7) 0.9126(5) -0.3934(4)
N1A_2 N -0.0988(7) 0.9126(5) 0.6066(4)
C1A C 0.8459(9) 0.8425(6) -0.3909(6)
H1A H 0.8397 0.8206 -0.4337
N2A N 0.0790(7) 0.1154(5) -0.0979(4)
N2_2 N -0.0790(7) -0.1154(5) 0.0979(4)
N3A N 0.1575(6) 0.2352(5) -0.1679(4)
C2A C 0.2923(8) -0.0394(6) 0.0915(5)
H2A H 0.3336 -0.0137 0.0444
O8A O 0.1596(6) 0.9996(4) 0.5827(4)
C3A C 0.1453(8) 0.1767(5) -0.0964(5)
H3A H 0.1798 0.1791 -0.0508
N4A N 0.1144(7) -0.1110(5) -0.0631(4)
N5A N 0.7997(7) 0.8074(5) -0.3170(4)
C4A C 0.2788(10) 0.9742(6) 0.5904(6)
H4A H 0.3291 0.9566 0.5488
N6A N 0.1574(7) -0.2119(5) -0.1339(4)
N7A N -0.1113(7) -0.8598(5) -0.4679(4)
N7A_2 N -0.1113(7) 1.1402(5) 0.5321(4)
N8A N -0.0321(8) -0.4768(6) -0.2864(6)
N9A N 0.0541(8) -0.4325(5) -0.3155(6)
N10A N -0.1432(7) -0.7283(5) -0.4328(4)
C5A C 0.0622(9) -0.1598(6) -0.0967(5)
H5A H -0.0275 -0.1586 -0.0949
C6A C 0.0324(9) -0.3910(6) -0.1872(6)
H6A H -0.0170 -0.4353 -0.1645
C7A C 0.2308(8) 0.3071(5) -0.1897(5)
C8A C 0.1356(9) -0.2717(6) -0.1786(6)
N11A N 0.3658(7) -0.0799(5) 0.1540(5)
C9A C 0.5912(11) 0.6468(7) -0.3249(8)
H7A H 0.5511 0.6316 -0.3624
C10A C 0.0794(9) -0.3809(6) -0.2643(6)
C11A C 0.6274(10) 0.6308(7) -0.1911(7)
H8A H 0.6130 0.6037 -0.1376
C12A C 0.0260(10) -0.5635(6) -0.3893(6)
H9A H 0.1023 -0.5417 -0.4042
C13A C -0.0039(9) -0.6252(6) -0.4264(5)
H10A H 0.0499 -0.6432 -0.4667
N12A N 0.4611(10) 0.5083(6) -0.2635(6)
N13A N 0.4862(10) 0.5397(6) -0.2132(7)
C14A C 0.1590(9) -0.3184(6) -0.2971(6)
H11A H 0.1938 -0.3137 -0.3478
C15A C 0.0474(9) 0.1367(6) -0.1755(5)
H12A H -0.0009 0.1050 -0.1948
C16A C 0.7263(8) 0.7339(6) -0.2919(6)
C17A C 0.5709(9) 0.6069(7) -0.2459(7)
C18A C -0.0563(11) -0.5347(7) -0.3313(6)
C19A C 0.0582(9) -0.3363(6) -0.1444(6)
H13A H 0.0247 -0.3421 -0.0932
N14A N 0.3441(8) 0.9692(6) 0.6525(5)
C20A C 0.3771(10) 0.4400(7) -0.2342(7)
C21A C 0.0951(10) 0.2091(6) -0.2198(5)
H14A H 0.0878 0.2362 -0.2742
C22A C 0.8263(9) 0.8587(7) -0.2713(5)
H15A H 0.8055 0.8511 -0.2180
C23A C 0.7055(10) 0.6944(6) -0.2137(6)
H16A H 0.7437 0.7103 -0.1759
C24A C 0.3625(10) 0.3942(7) -0.2858(7)
H17A H 0.4008 0.4082 -0.3360
C25A C 0.2470(8) -0.1345(6) -0.0792(5)
H18A H 0.3089 -0.1105 -0.0625
C26A C -0.2421(10) -0.8135(7) -0.4741(6)
H19A H -0.3069 -0.8342 -0.4916
C27A C 0.5069(9) -0.0843(8) 0.1531(6)
H20A H 0.5418 -0.1163 0.2051
H21A H 0.5526 -0.1185 0.1170
H22A H 0.5192 -0.0209 0.1365
C28A C 0.3160(10) 0.4233(7) -0.1596(7)
H23A H 0.3272 0.4560 -0.1250
C29A C -0.2658(9) -0.7322(7) -0.4512(6)
H24A H -0.3470 -0.6893 -0.4487
C30A C 0.6729(12) 0.7104(7) -0.3491(7)
H25A H 0.6906 0.7361 -0.4023
C31A C -0.1160(9) -0.6582(6) -0.4007(6)
C32A C -0.0525(8) -0.8064(6) -0.4426(5)
H26A H 0.0378 -0.8206 -0.4330
C33A C 0.2372(10) 0.3566(6) -0.1364(6)
H27A H 0.1921 0.3465 -0.0882
C34A C 0.2774(9) -0.1970(6) -0.1223(6)
H28A H 0.3607 -0.2239 -0.1402
C35A C 0.1863(10) -0.2634(7) -0.2544(6)
H29A H 0.2386 -0.2210 -0.2765
C36A C -0.1698(11) -0.5678(8) -0.3082(7)
H30A H -0.2257 -0.5492 -0.2689
C37A C 0.8883(9) 0.9221(7) -0.3184(5)
H31A H 0.9182 0.9661 -0.3026
C38A C 0.2903(9) 0.3265(7) -0.2635(6)
H32A H 0.2816 0.2936 -0.2984
C39A C 0.4867(12) 0.9378(9) 0.6603(7)
H33A H 0.5109 0.9411 0.7101
H34A H 0.5164 0.8734 0.6578
H35A H 0.5274 0.9782 0.6182
C40A C 0.2670(13) 1.0050(9) 0.7158(6)
H36A H 0.3256 0.9980 0.7569
H37A H 0.2230 1.0710 0.6946
H38A H 0.2022 0.9693 0.7370
C41A C -0.1978(11) -0.6287(7) -0.3447(6)
H39A H -0.2746 -0.6500 -0.3304
C43A C 0.3126(12) -0.1250(10) 0.2292(7)
H43A H 0.3813 -0.1498 0.2679
H44A H 0.2419 -0.0791 0.2453
H45A H 0.2790 -0.1760 0.2245
Cl1 Cl -0.3840(2) 0.81064(17) -0.06324(14)
O2 O -0.2440(6) 0.8034(5) -0.0688(4)
O4 O -0.4072(7) 0.7179(5) -0.0395(4)
O5 O -0.4426(7) 0.8641(5) -0.1392(4)
O7 O -0.4420(7) 0.8593(5) -0.0061(4)
Cl2 Cl -0.3919(2) 0.79540(19) 0.43560(15)
O1 O -0.2540(7) 0.7924(5) 0.4355(5)
O6 O -0.4604(8) 0.8584(6) 0.4809(4)
O9 O -0.4113(8) 0.7044(6) 0.4685(5)
O10 O -0.4394(8) 0.8317(6) 0.3572(5)
N15 N 0.2700(8) 0.6426(6) 0.0733(5)
C42 C 0.1313(12) 0.6383(10) 0.0829(8)
H40 H 0.0863 0.6753 0.1172
H41 H 0.1269 0.5733 0.1056
H42 H 0.0894 0.6633 0.0323
C44 C 0.3539(14) 0.5939(8) 0.0264(8)
H46 H 0.4428 0.5954 0.0209
C45 C 0.3289(11) 0.6993(8) 0.1082(7)
H47 H 0.2630 0.7304 0.1395
H48 H 0.3600 0.7463 0.0668
H49 H 0.4019 0.6582 0.1409
O11 O 0.3121(17) 0.5492(12) -0.0078(11)
loop_
_geom_bond_atom_site_label_1
_geom_bond_atom_site_label_2
_geom_bond_site_symmetry_1
_geom_bond_site_symmetry_2
Cd1 O3 1_555 1_555
Cd2 N1 1_555 1_555
Cl1 O2 1_555 1_555
Cl2 O1 1_555 1_555
O3 C2 1_555 1_555
N1 C1 1_555 1_555
O4 Cl1 1_555 1_555
O5 Cl1 1_555 1_555
O6 Cl2 1_555 1_555
C1 H1 1_555 1_555
O7 Cl1 1_555 1_555
N2 C3 1_555 1_555
N3 C3 1_555 1_555
C2 H2 1_555 1_555
O8 Cd2 1_555 1_555
C3 H3 1_555 1_555
O9 Cl2 1_555 1_555
N4 Cd1 1_555 1_555
N5 C1 1_555 1_555
C4 O8 1_555 1_555
H4 C4 1_555 1_555
N6 C5 1_555 1_555
N7 Cd2 1_555 1_555
O10 Cl2 1_555 1_555
N8 N9 1_555 1_555
N9 C10 1_555 1_555
N10 C29 1_555 1_555
C5 N4 1_555 1_555
H5 C5 1_555 1_555
C6 H6 1_555 1_555
C7 N3 1_555 1_555
C8 N6 1_555 1_555
N11 C2 1_555 1_555
C9 H7 1_555 1_555
C10 C6 1_555 1_555
C11 H8 1_555 1_555
C12 H9 1_555 1_555
C13 C12 1_555 1_555
H10 C13 1_555 1_555
N12 N13 1_555 1_555
N13 C17 1_555 1_555
C14 C10 1_555 1_555
H11 C14 1_555 1_555
C15 N2 1_555 1_555
H12 C15 1_555 1_555
C16 N5 1_555 1_555
C17 C9 1_555 1_555
C18 N8 1_555 1_555
C19 C6 1_555 1_555
H13 C19 1_555 1_555
N14 C4 1_555 1_555
C20 N12 1_555 1_555
C21 N3 1_555 1_555
H14 C21 1_555 1_555
C22 N5 1_555 1_555
H15 C22 1_555 1_555
C23 C11 1_555 1_555
H16 C23 1_555 1_555
C24 C20 1_555 1_555
H17 C24 1_555 1_555
C25 N4 1_555 1_555
H18 C25 1_555 1_555
C26 N7 1_555 1_555
H19 C26 1_555 1_555
C27 N11 1_555 1_555
H20 C27 1_555 1_555
H21 C27 1_555 1_555
H22 C27 1_555 1_555
C28 C20 1_555 1_555
H23 C28 1_555 1_555
N15 C42 1_555 1_555
C29 C26 1_555 1_555
H24 C29 1_555 1_555
C30 C9 1_555 1_555
H25 C30 1_555 1_555
C31 N10 1_555 1_555
C32 N7 1_555 1_555
H26 C32 1_555 1_555
C33 C7 1_555 1_555
H27 C33 1_555 1_555
C34 N6 1_555 1_555
H28 C34 1_555 1_555
C35 C8 1_555 1_555
H29 C35 1_555 1_555
C36 C18 1_555 1_555
H30 C36 1_555 1_555
C37 N1 1_555 1_555
H31 C37 1_555 1_555
C38 C7 1_555 1_555
H32 C38 1_555 1_555
C39 N14 1_555 1_555
H33 C39 1_555 1_555
H34 C39 1_555 1_555
H35 C39 1_555 1_555
C40 N14 1_555 1_555
H36 C40 1_555 1_555
H37 C40 1_555 1_555
H38 C40 1_555 1_555
C41 C31 1_555 1_555
H39 C41 1_555 1_555
C42 H40 1_555 1_555
H41 C42 1_555 1_555
H42 C42 1_555 1_555
C43 N11 1_555 1_555
H43 C43 1_555 1_555
H44 C43 1_555 1_555
H45 C43 1_555 1_555
C44 N15 1_555 1_555
H46 C44 1_555 1_555
C45 N15 1_555 1_555
H47 C45 1_555 1_555
H48 C45 1_555 1_555
H49 C45 1_555 1_555
O11 C44 1_555 1_555
Cd1_2 N2 1_555 1_555
Cd2_2 N7A 1_555 1_555
Cd2_3 N1A 1_555 1_555
O3A Cd1 1_555 1_555
N1A C1A 1_555 1_555
N1A_2 Cd2 1_555 1_555
C1A H1A 1_555 1_555
N2A Cd1 1_555 1_555
N2_2 Cd1 1_555 1_555
N3A C3A 1_555 1_555
C2A O3A 1_555 1_555
H2A C2A 1_555 1_555
O8A Cd2 1_555 1_555
C3A N2A 1_555 1_555
H3A C3A 1_555 1_555
N4A Cd1 1_555 1_555
N5A C1A 1_555 1_555
C4A O8A 1_555 1_555
H4A C4A 1_555 1_555
N6A C5A 1_555 1_555
N7A C26A 1_555 1_555
N7A_2 Cd2 1_555 1_555
N8A N9A 1_555 1_555
N9A C10A 1_555 1_555
N10A C29A 1_555 1_555
C5A N4A 1_555 1_555
H5A C5A 1_555 1_555
C6A H6A 1_555 1_555
C7A N3A 1_555 1_555
C8A N6A 1_555 1_555
N11A C2A 1_555 1_555
C9A H7A 1_555 1_555
C10A C6A 1_555 1_555
C11A H8A 1_555 1_555
C12A H9A 1_555 1_555
C13A C12A 1_555 1_555
H10A C13A 1_555 1_555
N12A N13A 1_555 1_555
N13A C17A 1_555 1_555
C14A C10A 1_555 1_555
H11A C14A 1_555 1_555
C15A N2A 1_555 1_555
H12A C15A 1_555 1_555
C16A N5A 1_555 1_555
C17A C9A 1_555 1_555
C18A N8A 1_555 1_555
C19A C6A 1_555 1_555
H13A C19A 1_555 1_555
N14A C4A 1_555 1_555
C20A N12A 1_555 1_555
C21A N3A 1_555 1_555
H14A C21A 1_555 1_555
C22A N5A 1_555 1_555
H15A C22A 1_555 1_555
C23A C11A 1_555 1_555
H16A C23A 1_555 1_555
C24A C20A 1_555 1_555
H17A C24A 1_555 1_555
C25A N4A 1_555 1_555
H18A C25A 1_555 1_555
C26A H19A 1_555 1_555
C27A N11A 1_555 1_555
H20A C27A 1_555 1_555
H21A C27A 1_555 1_555
H22A C27A 1_555 1_555
C28A C20A 1_555 1_555
H23A C28A 1_555 1_555
C29A C26A 1_555 1_555
H24A C29A 1_555 1_555
C30A C9A 1_555 1_555
H25A C30A 1_555 1_555
C31A N10A 1_555 1_555
C32A N7A 1_555 1_555
H26A C32A 1_555 1_555
C33A C7A 1_555 1_555
H27A C33A 1_555 1_555
C34A N6A 1_555 1_555
H28A C34A 1_555 1_555
C35A C8A 1_555 1_555
H29A C35A 1_555 1_555
C36A C18A 1_555 1_555
H30A C36A 1_555 1_555
C37A N1A 1_555 1_555
H31A C37A 1_555 1_555
C38A C7A 1_555 1_555
H32A C38A 1_555 1_555
C39A N14A 1_555 1_555
H33A C39A 1_555 1_555
H34A C39A 1_555 1_555
H35A C39A 1_555 1_555
C40A N14A 1_555 1_555
H36A C40A 1_555 1_555
H37A C40A 1_555 1_555
H38A C40A 1_555 1_555
C41A C31A 1_555 1_555
H39A C41A 1_555 1_555
C43A N11A 1_555 1_555
H43A C43A 1_555 1_555
H44A C43A 1_555 1_555
H45A C43A 1_555 1_555
N10 C32 1_555 1_555
C8 C19 1_555 1_555
C11 C17 1_555 1_555
C12 C18 1_555 1_555
C13 C31 1_555 1_555
C14 C35 1_555 1_555
C15 C21 1_555 1_555
C16 C23 1_555 1_555
C16 C30 1_555 1_555
C22 C37 1_555 1_555
C24 C38 1_555 1_555
C25 C34 1_555 1_555
C28 C33 1_555 1_555
C36 C41 1_555 1_555
N10A C32A 1_555 1_555
C8A C19A 1_555 1_555
C11A C17A 1_555 1_555
C12A C18A 1_555 1_555
C13A C31A 1_555 1_555
C14A C35A 1_555 1_555
C15A C21A 1_555 1_555
C16A C23A 1_555 1_555
C16A C30A 1_555 1_555
C22A C37A 1_555 1_555
C24A C38A 1_555 1_555
C25A C34A 1_555 1_555
C28A C33A 1_555 1_555
C36A C41A 1_555 1_555

#END
