
#######################################################################
#
#                 Cambridge Crystallographic Data Centre
#                                CCDC 
#
#######################################################################
#
# If this CIF has been generated from an entry in the Cambridge 
# Structural Database, then it will include bibliographic, chemical, 
# crystal, experimental, refinement or atomic coordinate data resulting 
# from the CCDC's data processing and validation procedures.
#
#######################################################################

data_IXEMAA
_symmetry_cell_setting           triclinic
_symmetry_space_group_name_H-M   'P -1'
_symmetry_Int_Tables_number      2
_space_group_name_Hall           '-P 1'
loop_
_symmetry_equiv_pos_site_id
_symmetry_equiv_pos_as_xyz
1 x,y,z
2 -x,-y,-z
_cell_length_a                   9.304(3)
_cell_length_b                   10.370(5)
_cell_length_c                   15.502(2)
_cell_angle_alpha                77.703(6)
_cell_angle_beta                 75.330(5)
_cell_angle_gamma                84.982(5)
_cell_volume                     1412.83
loop_
_atom_site_label
_atom_site_type_symbol
_atom_site_fract_x
_atom_site_fract_y
_atom_site_fract_z
Cd1 Cd 0.5000 0.0000 0.5000
N1 N 0.6881(7) -0.0900(6) 0.3979(4)
N2 N 0.2724(7) 0.1295(6) 0.2751(4)
N3 N 0.3764(6) 0.0997(6) 0.3897(4)
N4 N 0.8236(7) -0.1815(6) 0.2871(4)
C1 C 0.3338(8) 0.0411(7) 0.3343(5)
H1 H 0.3442 -0.0492 0.3354
C2 C 0.6850(9) -0.1502(8) 0.3321(5)
H2 H 0.5985 -0.1689 0.3182
O1 O 0.3456(7) -0.1759(6) 0.5197(4)
C3 C 0.2774(10) 0.2508(8) 0.2935(6)
H3 H 0.2439 0.3308 0.2636
C4 C 0.2138(9) 0.0971(8) 0.2033(5)
C5 C 0.8598(9) -0.2531(8) 0.2140(5)
C6 C 0.8359(9) -0.0827(9) 0.3948(7)
H4 H 0.8737 -0.0463 0.4340
C7 C 0.9230(11) -0.3929(9) 0.0758(6)
C8 C 0.3416(9) 0.2306(7) 0.3647(5)
H5 H 0.3594 0.2965 0.3926
N5 N 0.2204(10) -0.3622(8) 0.5537(6)
N6 N 0.9421(9) -0.4679(9) 0.0045(5)
C9 C 0.9896(10) -0.3245(9) 0.2000(6)
H6 H 1.0547 -0.3248 0.2368
C10 C 0.2844(13) 0.0018(10) 0.1590(6)
H7 H 0.3713 -0.0398 0.1720
N7 N 0.0501(10) -0.0298(10) 0.0043(7)
C11 C 0.9183(10) -0.1379(10) 0.3246(6)
H8 H 1.0214 -0.1438 0.3065
C12 C 0.7931(11) -0.3202(10) 0.0905(7)
H9 H 0.7255 -0.3178 0.0550
C13 C 1.0261(11) -0.3964(9) 0.1323(6)
H10 H 1.1149 -0.4461 0.1229
C14 C 0.1013(14) 0.0262(12) 0.0760(6)
C15 C 0.0312(13) 0.1221(14) 0.1186(8)
H11 H -0.0540 0.1642 0.1033
C16 C 0.7643(11) -0.2478(10) 0.1621(6)
H12 H 0.6773 -0.1960 0.1727
C17 C 0.0873(11) 0.1608(11) 0.1880(7)
H13 H 0.0393 0.2251 0.2199
C18 C 0.2256(14) -0.0326(12) 0.0947(7)
H14 H 0.2735 -0.0980 0.0638
C20 C 0.3378(11) -0.2950(11) 0.5374(7)
H15 H 0.4263 -0.3434 0.5395
C22 C 0.0856(16) -0.300(2) 0.5474(17)
H19 H 0.0107 -0.3647 0.5628
H20 H 0.0925 -0.2519 0.4864
H21 H 0.0595 -0.2400 0.5888
C24 C 0.228(2) -0.5065(13) 0.5755(12)
H25 H 0.1311 -0.5397 0.5860
H26 H 0.2653 -0.5354 0.6293
H27 H 0.2942 -0.5391 0.5257
Cd1_2 Cd -0.5000 0.0000 -0.5000
Cd1_3 Cd 1.5000 -1.0000 -0.5000
N1A N 1.3119(7) -0.9100(6) -0.3979(4)
N1A_2 N 0.3119(7) 0.0900(6) 0.6021(4)
N2A N -0.2724(7) -0.1295(6) -0.2751(4)
N3A N -0.3764(6) -0.0997(6) -0.3897(4)
N3A_2 N 0.6236(6) -0.0997(6) 0.6103(4)
N4A N 1.1764(7) -0.8185(6) -0.2871(4)
C1A C -0.3338(8) -0.0411(7) -0.3343(5)
H1A H -0.3442 0.0492 -0.3354
C2A C 1.3150(9) -0.8498(8) -0.3321(5)
H2A H 1.4015 -0.8311 -0.3182
O1A O 0.6544(7) 0.1759(6) 0.4803(4)
C3A C -0.2774(10) -0.2508(8) -0.2935(6)
H3A H -0.2439 -0.3308 -0.2636
C4A C -0.2138(9) -0.0971(8) -0.2033(5)
C5A C 1.1402(9) -0.7469(8) -0.2140(5)
C6A C 1.1641(9) -0.9173(9) -0.3948(7)
H4A H 1.1263 -0.9537 -0.4340
C7A C 1.0770(11) -0.6071(9) -0.0758(6)
C8A C -0.3416(9) -0.2306(7) -0.3647(5)
H5A H -0.3594 -0.2965 -0.3926
N5A N 0.7796(10) 0.3622(8) 0.4463(6)
N6A N 1.0579(9) -0.5321(9) -0.0045(5)
C9A C 1.0104(10) -0.6755(9) -0.2000(6)
H6A H 0.9453 -0.6752 -0.2368
C10A C -0.2844(13) -0.0018(10) -0.1590(6)
H7A H -0.3713 0.0398 -0.1720
N7A N -0.0501(10) 0.0298(10) -0.0043(7)
C11A C 1.0817(10) -0.8621(10) -0.3246(6)
H8A H 0.9786 -0.8562 -0.3065
C12A C 1.2069(11) -0.6798(10) -0.0905(7)
H9A H 1.2745 -0.6822 -0.0550
C13A C 0.9739(11) -0.6036(9) -0.1323(6)
H10A H 0.8851 -0.5539 -0.1229
C14A C -0.1013(14) -0.0262(12) -0.0760(6)
C15A C -0.0312(13) -0.1221(14) -0.1186(8)
H11A H 0.0540 -0.1642 -0.1033
C16A C 1.2357(11) -0.7522(10) -0.1621(6)
H12A H 1.3227 -0.8040 -0.1727
C17A C -0.0873(11) -0.1608(11) -0.1880(7)
H13A H -0.0393 -0.2251 -0.2199
C18A C -0.2256(14) 0.0326(12) -0.0947(7)
H14A H -0.2735 0.0980 -0.0638
C20A C 0.6622(11) 0.2950(11) 0.4626(7)
H15A H 0.5737 0.3434 0.4605
C22A C 0.9144(16) 0.300(2) 0.4526(17)
H19A H 0.9893 0.3647 0.4372
H20A H 0.9075 0.2519 0.5136
H21A H 0.9405 0.2400 0.4112
C24A C 0.772(2) 0.5065(13) 0.4245(12)
H25A H 0.8689 0.5397 0.4140
H26A H 0.7347 0.5354 0.3707
H27A H 0.7058 0.5391 0.4743
Cl1 Cl 0.3557(3) -0.3857(2) 0.29779(19)
O2 O 0.4645(12) -0.4512(10) 0.3424(8)
O3 O 0.2202(11) -0.4480(10) 0.3414(9)
O4 O 0.3434(16) -0.2581(8) 0.3059(8)
O5 O 0.3793(14) -0.4047(14) 0.2076(8)
C19 C 0.6270(15) 0.228(3) 0.1494(13)
C21 C 0.688(2) 0.303(2) 0.2020(15)
H16 H 0.7215 0.2431 0.2498
H17 H 0.6121 0.3624 0.2279
H18 H 0.7700 0.3531 0.1626
C23 C 0.581(3) 0.335(2) 0.0846(16)
H22 H 0.5394 0.2999 0.0440
H23 H 0.6646 0.3868 0.0503
H24 H 0.5066 0.3904 0.1164
O6 O 0.6182(16) 0.1001(16) 0.1653(10)
loop_
_geom_bond_atom_site_label_1
_geom_bond_atom_site_label_2
_geom_bond_site_symmetry_1
_geom_bond_site_symmetry_2
Cd1 N1 1_555 1_555
Cl1 O2 1_555 1_555
N1 C2 1_555 1_555
N2 C1 1_555 1_555
N3 Cd1 1_555 1_555
N4 C2 1_555 1_555
C1 N3 1_555 1_555
H1 C1 1_555 1_555
C2 H2 1_555 1_555
O1 Cd1 1_555 1_555
C3 N2 1_555 1_555
H3 C3 1_555 1_555
C4 N2 1_555 1_555
C5 N4 1_555 1_555
C6 N1 1_555 1_555
H4 C6 1_555 1_555
C7 N6 1_555 1_555
C8 N3 1_555 1_555
H5 C8 1_555 1_555
N5 C20 1_555 1_555
N6 N6A 1_555 1_555
C9 C5 1_555 1_555
H6 C9 1_555 1_555
C10 C4 1_555 1_555
H7 C10 1_555 1_555
N7 C14 1_555 1_555
C11 N4 1_555 1_555
H8 C11 1_555 1_555
O3 Cl1 1_555 1_555
C12 C7 1_555 1_555
H9 C12 1_555 1_555
C13 C7 1_555 1_555
H10 C13 1_555 1_555
C14 C15 1_555 1_555
C15 H11 1_555 1_555
C16 C5 1_555 1_555
H12 C16 1_555 1_555
C17 C4 1_555 1_555
H13 C17 1_555 1_555
C18 C10 1_555 1_555
H14 C18 1_555 1_555
C19 C21 1_555 1_555
C20 O1 1_555 1_555
H15 C20 1_555 1_555
O4 Cl1 1_555 1_555
C21 H16 1_555 1_555
H17 C21 1_555 1_555
H18 C21 1_555 1_555
O5 Cl1 1_555 1_555
C22 N5 1_555 1_555
H19 C22 1_555 1_555
H20 C22 1_555 1_555
H21 C22 1_555 1_555
C23 C19 1_555 1_555
H22 C23 1_555 1_555
H23 C23 1_555 1_555
H24 C23 1_555 1_555
C24 N5 1_555 1_555
H25 C24 1_555 1_555
H26 C24 1_555 1_555
H27 C24 1_555 1_555
O6 C19 1_555 1_555
Cd1_2 N3A 1_555 1_555
Cd1_3 N1A 1_555 1_555
N1A C2A 1_555 1_555
N1A_2 Cd1 1_555 1_555
N2A C1A 1_555 1_555
N3A C1A 1_555 1_555
N3A_2 Cd1 1_555 1_555
N4A C2A 1_555 1_555
C1A H1A 1_555 1_555
C2A H2A 1_555 1_555
O1A Cd1 1_555 1_555
C3A N2A 1_555 1_555
H3A C3A 1_555 1_555
C4A N2A 1_555 1_555
C5A N4A 1_555 1_555
C6A N1A 1_555 1_555
H4A C6A 1_555 1_555
C7A N6A 1_555 1_555
C8A N3A 1_555 1_555
H5A C8A 1_555 1_555
N5A C20A 1_555 1_555
C9A C5A 1_555 1_555
H6A C9A 1_555 1_555
C10A C4A 1_555 1_555
H7A C10A 1_555 1_555
N7A N7 1_555 1_555
C11A N4A 1_555 1_555
H8A C11A 1_555 1_555
C12A C7A 1_555 1_555
H9A C12A 1_555 1_555
C13A C7A 1_555 1_555
H10A C13A 1_555 1_555
C14A N7A 1_555 1_555
C15A C14A 1_555 1_555
H11A C15A 1_555 1_555
C16A C5A 1_555 1_555
H12A C16A 1_555 1_555
C17A C4A 1_555 1_555
H13A C17A 1_555 1_555
C18A C10A 1_555 1_555
H14A C18A 1_555 1_555
C20A O1A 1_555 1_555
H15A C20A 1_555 1_555
C22A N5A 1_555 1_555
H19A C22A 1_555 1_555
H20A C22A 1_555 1_555
H21A C22A 1_555 1_555
C24A N5A 1_555 1_555
H25A C24A 1_555 1_555
H26A C24A 1_555 1_555
H27A C24A 1_555 1_555
C3 C8 1_555 1_555
C6 C11 1_555 1_555
C9 C13 1_555 1_555
C12 C16 1_555 1_555
C14 C18 1_555 1_555
C15 C17 1_555 1_555
C3A C8A 1_555 1_555
C6A C11A 1_555 1_555
C9A C13A 1_555 1_555
C12A C16A 1_555 1_555
C14A C18A 1_555 1_555
C15A C17A 1_555 1_555

#END
