
#######################################################################
#
#                 Cambridge Crystallographic Data Centre
#                                CCDC 
#
#######################################################################
#
# If this CIF has been generated from an entry in the Cambridge 
# Structural Database, then it will include bibliographic, chemical, 
# crystal, experimental, refinement or atomic coordinate data resulting 
# from the CCDC's data processing and validation procedures.
#
#######################################################################

data_IXESOU
_symmetry_cell_setting           monoclinic
_symmetry_space_group_name_H-M   'C 2/c'
_symmetry_Int_Tables_number      15
_space_group_name_Hall           '-C 2yn'
loop_
_symmetry_equiv_pos_site_id
_symmetry_equiv_pos_as_xyz
1 x,y,z
2 -x,y,1/2-z
3 1/2+x,1/2+y,z
4 1/2-x,1/2+y,1/2-z
5 -x,-y,-z
6 x,-y,1/2+z
7 1/2-x,1/2-y,-z
8 1/2+x,1/2-y,1/2+z
_cell_length_a                   35.762(4)
_cell_length_b                   11.6091(10)
_cell_length_c                   13.2764(12)
_cell_angle_alpha                90
_cell_angle_beta                 104.951(8)
_cell_angle_gamma                90
_cell_volume                     5325.3
loop_
_atom_site_label
_atom_site_type_symbol
_atom_site_fract_x
_atom_site_fract_y
_atom_site_fract_z
Mn1 Mn 0.0000 0.23704(2) 0.2500
O1 O 0.04920(3) 0.22691(10) 0.06182(10)
O2 O -0.02355(3) 0.23281(9) 0.07835(9)
H1 H -0.0383(5) 0.1801(14) 0.0553(15)
H2 H -0.0032(4) 0.2208(16) 0.0587(15)
O3 O 0.05760(3) 0.24658(9) 0.23217(9)
N1 N 0.0000 0.04051(13) 0.2500
N2 N 0.0000 -0.56732(13) 0.2500
C1 C 0.01698(5) -0.01915(12) 0.18788(13)
H4 H 0.0290 0.0212 0.1444
C2 C 0.01751(5) -0.13784(12) 0.18549(12)
H5 H 0.0295 -0.1762 0.1409
C3 C 0.0000 -0.19950(16) 0.2500
C4 C 0.0000 -0.32737(16) 0.2500
C5 C -0.01051(5) -0.38883(12) 0.15829(13)
H6 H -0.0175 -0.3507 0.0946
C6 C -0.01050(5) -0.50759(13) 0.16188(13)
H7 H -0.0182 -0.5479 0.0994
C7 C 0.12201(4) 0.40389(13) 0.16132(12)
C8 C 0.16594(5) 0.41535(15) 0.17752(16)
H8 H 0.1792 0.3830 0.2446
H9 H 0.1738 0.3724 0.1238
C9 C 0.17737(5) 0.54158(16) 0.17315(18)
H10 H 0.2055 0.5471 0.1838
C10 C 0.16553(6) 0.60888(19) 0.25764(19)
H11 H 0.1731 0.6889 0.2555
H12 H 0.1785 0.5778 0.3255
C11 C 0.12153(6) 0.60057(18) 0.24054(18)
H13 H 0.1136 0.6444 0.2947
C12 C 0.10142(6) 0.64864(16) 0.1337(2)
H14 H 0.0736 0.6430 0.1226
H15 H 0.1080 0.7293 0.1301
C13 C 0.11377(6) 0.58214(17) 0.05018(17)
H16 H 0.1009 0.6138 -0.0184
C14 C 0.10209(5) 0.45539(14) 0.05573(14)
H17 H 0.0743 0.4501 0.0446
H18 H 0.1092 0.4120 0.0011
C15 C 0.11041(6) 0.47318(16) 0.24600(15)
H19 H 0.1233 0.4421 0.3139
H20 H 0.0827 0.4669 0.2371
C16 C 0.15734(7) 0.59009(18) 0.06742(19)
H21 H 0.1651 0.5473 0.0135
H22 H 0.1648 0.6699 0.0633
C17 C 0.11260(5) 0.27471(13) 0.16615(15)
H23 H 0.1214 0.2348 0.1123
H24 H 0.1271 0.2446 0.2329
C18 C 0.07022(5) 0.24723(12) 0.15249(14)
Mn1_2 Mn 0.0000 -0.76296(2) 0.2500
O1A O -0.04920(3) 0.22691(10) 0.43818(10)
O2A O 0.02355(3) 0.23281(9) 0.42165(9)
H1A H 0.0383(5) 0.1801(14) 0.4447(15)
H2A H 0.0032(4) 0.2208(16) 0.4413(15)
O3A O -0.05760(3) 0.24658(9) 0.26783(9)
N2_2 N 0.0000 0.43268(13) 0.2500
C1A C -0.01698(5) -0.01915(12) 0.31212(13)
H4A H -0.0290 0.0212 0.3556
C2A C -0.01751(5) -0.13784(12) 0.31451(12)
H5A H -0.0295 -0.1762 0.3591
C5A C 0.01051(5) -0.38883(12) 0.34171(13)
H6A H 0.0175 -0.3507 0.4054
C6A C 0.01050(5) -0.50759(13) 0.33812(13)
H7A H 0.0182 -0.5479 0.4006
C7A C -0.12201(4) 0.40389(13) 0.33868(12)
C8A C -0.16594(5) 0.41535(15) 0.32248(16)
H8A H -0.1792 0.3830 0.2554
H9A H -0.1738 0.3724 0.3762
C9A C -0.17737(5) 0.54158(16) 0.32685(18)
H10A H -0.2055 0.5471 0.3162
C10A C -0.16553(6) 0.60888(19) 0.24236(19)
H11A H -0.1731 0.6889 0.2445
H12A H -0.1785 0.5778 0.1745
C11A C -0.12153(6) 0.60057(18) 0.25946(18)
H13A H -0.1136 0.6444 0.2053
C12A C -0.10142(6) 0.64864(16) 0.3663(2)
H14A H -0.0736 0.6430 0.3774
H15A H -0.1080 0.7293 0.3699
C13A C -0.11377(6) 0.58214(17) 0.44982(17)
H16A H -0.1009 0.6138 0.5184
C14A C -0.10209(5) 0.45539(14) 0.44427(14)
H17A H -0.0743 0.4501 0.4554
H18A H -0.1092 0.4120 0.4989
C15A C -0.11041(6) 0.47318(16) 0.25400(15)
H19A H -0.1233 0.4421 0.1861
H20A H -0.0827 0.4669 0.2629
C16A C -0.15734(7) 0.59009(18) 0.43258(19)
H21A H -0.1651 0.5473 0.4865
H22A H -0.1648 0.6699 0.4367
C17A C -0.11260(5) 0.27471(13) 0.33385(15)
H23A H -0.1214 0.2348 0.3877
H24A H -0.1271 0.2446 0.2671
C18A C -0.07022(5) 0.24723(12) 0.34751(14)
O4 O 0.08283(4) 0.13055(13) -0.06692(11)
H3 H 0.0699(7) 0.162(2) -0.0236(19)
O5 O 0.06869(4) -0.03716(12) -0.00587(12)
C19 C 0.15676(5) -0.00975(14) -0.05751(14)
C20 C 0.18196(6) -0.08464(19) -0.10882(19)
H25 H 0.1757 -0.1652 -0.1027
H26 H 0.1765 -0.0660 -0.1824
C21 C 0.22494(6) -0.0652(2) -0.0574(2)
H27 H 0.2405 -0.1142 -0.0910
C22 C 0.23323(8) -0.0952(2) 0.0573(2)
H28 H 0.2606 -0.0848 0.0904
H29 H 0.2267 -0.1752 0.0653
C23 C 0.20923(7) -0.0170(2) 0.10891(18)
H30 H 0.2149 -0.0351 0.1834
C24 C 0.21865(6) 0.1078(2) 0.09532(19)
H31 H 0.2032 0.1567 0.1281
H32 H 0.2457 0.1221 0.1286
C25 C 0.21039(5) 0.13500(17) -0.01715(19)
H33 H 0.2166 0.2161 -0.0253
C26 C 0.16774(5) 0.11540(15) -0.06830(16)
H34 H 0.1622 0.1355 -0.1416
H35 H 0.1523 0.1649 -0.0359
C27 C 0.16600(6) -0.03898(18) 0.05785(17)
H36 H 0.1599 -0.1192 0.0665
H37 H 0.1503 0.0081 0.0915
C28 C 0.23512(6) 0.0605(2) -0.06809(19)
H38 H 0.2623 0.0732 -0.0347
H39 H 0.2305 0.0805 -0.1412
C29 C 0.11378(5) -0.03371(18) -0.11183(17)
H40 H 0.1080 -0.0031 -0.1821
H41 H 0.1098 -0.1164 -0.1170
C30 C 0.08606(5) 0.01768(18) -0.05636(15)
loop_
_geom_bond_atom_site_label_1
_geom_bond_atom_site_label_2
_geom_bond_site_symmetry_1
_geom_bond_site_symmetry_2
Mn1 O2 1_555 1_555
O1 C18 1_555 1_555
O2 H1 1_555 1_555
H2 O2 1_555 1_555
O3 Mn1 1_555 1_555
O4 H3 1_555 1_555
O5 C30 1_555 1_555
N1 Mn1 1_555 1_555
N2 C6 1_555 1_555
C1 N1 1_555 1_555
H4 C1 1_555 1_555
C2 C1 1_555 1_555
H5 C2 1_555 1_555
C3 C2 1_555 1_555
C4 C3 1_555 1_555
C5 C4 1_555 1_555
H6 C5 1_555 1_555
C6 C5 1_555 1_555
H7 C6 1_555 1_555
C7 C8 1_555 1_555
C8 H8 1_555 1_555
H9 C8 1_555 1_555
C9 C8 1_555 1_555
H10 C9 1_555 1_555
C10 C9 1_555 1_555
H11 C10 1_555 1_555
H12 C10 1_555 1_555
C11 C10 1_555 1_555
H13 C11 1_555 1_555
C12 C11 1_555 1_555
H14 C12 1_555 1_555
H15 C12 1_555 1_555
C13 C12 1_555 1_555
H16 C13 1_555 1_555
C14 C7 1_555 1_555
H17 C14 1_555 1_555
H18 C14 1_555 1_555
C15 C7 1_555 1_555
H19 C15 1_555 1_555
H20 C15 1_555 1_555
C16 C9 1_555 1_555
H21 C16 1_555 1_555
H22 C16 1_555 1_555
C17 C7 1_555 1_555
H23 C17 1_555 1_555
H24 C17 1_555 1_555
C18 O3 1_555 1_555
C19 C20 1_555 1_555
C20 H25 1_555 1_555
H26 C20 1_555 1_555
C21 C20 1_555 1_555
H27 C21 1_555 1_555
C22 C21 1_555 1_555
H28 C22 1_555 1_555
H29 C22 1_555 1_555
C23 C22 1_555 1_555
H30 C23 1_555 1_555
C24 C23 1_555 1_555
H31 C24 1_555 1_555
H32 C24 1_555 1_555
C25 C24 1_555 1_555
H33 C25 1_555 1_555
C26 C19 1_555 1_555
H34 C26 1_555 1_555
H35 C26 1_555 1_555
C27 C19 1_555 1_555
H36 C27 1_555 1_555
H37 C27 1_555 1_555
C28 C21 1_555 1_555
H38 C28 1_555 1_555
H39 C28 1_555 1_555
C29 C19 1_555 1_555
H40 C29 1_555 1_555
H41 C29 1_555 1_555
C30 O4 1_555 1_555
Mn1_2 N2 1_555 1_555
O1A C18A 1_555 1_555
O2A Mn1 1_555 1_555
H1A O2A 1_555 1_555
H2A O2A 1_555 1_555
O3A Mn1 1_555 1_555
N2_2 Mn1 1_555 1_555
C1A N1 1_555 1_555
H4A C1A 1_555 1_555
C2A C3 1_555 1_555
H5A C2A 1_555 1_555
C5A C4 1_555 1_555
H6A C5A 1_555 1_555
C6A N2 1_555 1_555
H7A C6A 1_555 1_555
C7A C8A 1_555 1_555
C8A H8A 1_555 1_555
H9A C8A 1_555 1_555
C9A C8A 1_555 1_555
H10A C9A 1_555 1_555
C10A C9A 1_555 1_555
H11A C10A 1_555 1_555
H12A C10A 1_555 1_555
C11A C10A 1_555 1_555
H13A C11A 1_555 1_555
C12A C11A 1_555 1_555
H14A C12A 1_555 1_555
H15A C12A 1_555 1_555
C13A C12A 1_555 1_555
H16A C13A 1_555 1_555
C14A C7A 1_555 1_555
H17A C14A 1_555 1_555
H18A C14A 1_555 1_555
C15A C7A 1_555 1_555
H19A C15A 1_555 1_555
H20A C15A 1_555 1_555
C16A C9A 1_555 1_555
H21A C16A 1_555 1_555
H22A C16A 1_555 1_555
C17A C7A 1_555 1_555
H23A C17A 1_555 1_555
H24A C17A 1_555 1_555
C18A O3A 1_555 1_555
C11 C15 1_555 1_555
C13 C14 1_555 1_555
C13 C16 1_555 1_555
C17 C18 1_555 1_555
C23 C27 1_555 1_555
C25 C26 1_555 1_555
C25 C28 1_555 1_555
C29 C30 1_555 1_555
C1A C2A 1_555 1_555
C5A C6A 1_555 1_555
C11A C15A 1_555 1_555
C13A C14A 1_555 1_555
C13A C16A 1_555 1_555
C17A C18A 1_555 1_555

#END
