
#######################################################################
#
#                 Cambridge Crystallographic Data Centre
#                                CCDC 
#
#######################################################################
#
# If this CIF has been generated from an entry in the Cambridge 
# Structural Database, then it will include bibliographic, chemical, 
# crystal, experimental, refinement or atomic coordinate data resulting 
# from the CCDC's data processing and validation procedures.
#
#######################################################################

data_IXIDEY
_symmetry_cell_setting           monoclinic
_symmetry_space_group_name_H-M   'P 21/c'
_symmetry_Int_Tables_number      14
_space_group_name_Hall           '-P 2ybc'
loop_
_symmetry_equiv_pos_site_id
_symmetry_equiv_pos_as_xyz
1 x,y,z
2 x,1/2-y,1/2+z
3 -x,-y,-z
4 -x,1/2+y,1/2-z
_cell_length_a                   11.441(2)
_cell_length_b                   16.553(5)
_cell_length_c                   11.019(2)
_cell_angle_alpha                90
_cell_angle_beta                 108.07(2)
_cell_angle_gamma                90
_cell_volume                     1983.88
loop_
_atom_site_label
_atom_site_type_symbol
_atom_site_fract_x
_atom_site_fract_y
_atom_site_fract_z
Ni1 Ni 0.22980(3) 0.22612(2) 0.10560(3)
S1 S 0.42493(5) 0.20900(3) 0.04391(5)
S2 S 0.03004(5) 0.23921(3) 0.16173(5)
N1 N 0.34061(17) 0.26259(10) -0.20938(18)
N2 N 0.12072(17) 0.28182(11) 0.42019(17)
N3 N 0.21739(17) 0.47786(10) 0.12872(17)
N4 N 0.23186(19) 0.47596(11) 0.01060(18)
N5 N 0.23252(17) 0.35043(10) 0.08742(17)
N6 N 0.26712(17) -0.02209(10) 0.18432(19)
N7 N 0.14882(18) -0.02283(11) 0.1087(2)
N8 N 0.22348(17) 0.10304(10) 0.12893(17)
C1 C 0.37650(18) 0.24016(12) -0.1047(2)
C2 C 0.08234(19) 0.26397(12) 0.3134(2)
C3 C 0.2398(2) 0.39791(12) -0.0093(2)
C4 C 0.2182(2) 0.40280(13) 0.1719(2)
C5 C 0.2007(2) 0.55618(13) 0.1874(2)
C6 C 0.3198(3) 0.60334(17) 0.2135(3)
C7 C 0.1718(4) 0.53846(17) 0.3094(3)
C8 C 0.0959(3) 0.60075(16) 0.0941(3)
C9 C 0.1268(2) 0.05374(13) 0.0782(2)
C10 C 0.3098(2) 0.05294(13) 0.1946(2)
C11 C 0.3293(2) -0.09942(13) 0.2383(3)
C12 C 0.3447(4) -0.1483(2) 0.1296(4)
C13 C 0.2489(3) -0.14323(15) 0.3013(3)
C14 C 0.4504(3) -0.0779(2) 0.3375(5)
H1 H 0.24960 0.37730 -0.08400
H2 H 0.20980 0.38910 0.25060
H3 H 0.38560 0.57330 0.27120
H4 H 0.31160 0.65450 0.25100
H5 H 0.33740 0.61200 0.13480
H6 H 0.09980 0.50500 0.29090
H7 H 0.15720 0.58820 0.34700
H8 H 0.24000 0.51080 0.36780
H9 H 0.11350 0.60800 0.01510
H10 H 0.08590 0.65260 0.12880
H11 H 0.02150 0.57010 0.07900
H12 H 0.05110 0.07230 0.02610
H13 H 0.38930 0.06810 0.24140
H14 H 0.26550 -0.15890 0.06920
H15 H 0.38440 -0.19850 0.16160
H16 H 0.39400 -0.11870 0.08860
H17 H 0.23180 -0.10860 0.36370
H18 H 0.29030 -0.19100 0.34250
H19 H 0.17320 -0.15810 0.23810
H20 H 0.50740 -0.05920 0.29560
H21 H 0.48340 -0.12480 0.38770
H22 H 0.43700 -0.03610 0.39210
N1A N 0.34061(17) 0.23741(10) 0.29062(18)
N2A N 0.12072(17) 0.21818(11) -0.07981(17)
Ni1A Ni 0.22980(3) 0.27388(2) -0.39440(3)
Ni1A_2 Ni 0.22980(3) 0.27388(2) 0.60560(3)
loop_
_geom_bond_atom_site_label_1
_geom_bond_atom_site_label_2
_geom_bond_site_symmetry_1
_geom_bond_site_symmetry_2
Ni1 S1 1_555 1_555
S1 C1 1_555 1_555
S2 Ni1 1_555 1_555
N1 C1 1_555 1_555
N2 C2 1_555 1_555
N3 N4 1_555 1_555
N4 C3 1_555 1_555
N5 Ni1 1_555 1_555
N6 N7 1_555 1_555
N7 C9 1_555 1_555
N8 Ni1 1_555 1_555
C2 S2 1_555 1_555
C3 N5 1_555 1_555
C4 N3 1_555 1_555
C5 N3 1_555 1_555
C6 C5 1_555 1_555
C7 C5 1_555 1_555
C8 C5 1_555 1_555
C9 N8 1_555 1_555
C10 N6 1_555 1_555
C11 N6 1_555 1_555
C12 C11 1_555 1_555
C13 C11 1_555 1_555
C14 C11 1_555 1_555
H1 C3 1_555 1_555
H2 C4 1_555 1_555
H3 C6 1_555 1_555
H4 C6 1_555 1_555
H5 C6 1_555 1_555
H6 C7 1_555 1_555
H7 C7 1_555 1_555
H8 C7 1_555 1_555
H9 C8 1_555 1_555
H10 C8 1_555 1_555
H11 C8 1_555 1_555
H12 C9 1_555 1_555
H13 C10 1_555 1_555
H14 C12 1_555 1_555
H15 C12 1_555 1_555
H16 C12 1_555 1_555
H17 C13 1_555 1_555
H18 C13 1_555 1_555
H19 C13 1_555 1_555
H20 C14 1_555 1_555
H21 C14 1_555 1_555
H22 C14 1_555 1_555
N1A Ni1 1_555 1_555
N2A Ni1 1_555 1_555
Ni1A N1 1_555 1_555
Ni1A_2 N2 1_555 1_555
N5 C4 1_555 1_555
N8 C10 1_555 1_555

#END
