
#######################################################################
#
#                 Cambridge Crystallographic Data Centre
#                                CCDC 
#
#######################################################################
#
# If this CIF has been generated from an entry in the Cambridge 
# Structural Database, then it will include bibliographic, chemical, 
# crystal, experimental, refinement or atomic coordinate data resulting 
# from the CCDC's data processing and validation procedures.
#
#######################################################################

data_IXIHUS01
_symmetry_cell_setting           tetragonal
_symmetry_space_group_name_H-M   'P -4 21 c'
_symmetry_Int_Tables_number      114
_space_group_name_Hall           'P -4 2n'
loop_
_symmetry_equiv_pos_site_id
_symmetry_equiv_pos_as_xyz
1 x,y,z
2 -x,-y,z
3 y,-x,-z
4 -y,x,-z
5 1/2-x,1/2+y,1/2-z
6 1/2+x,1/2-y,1/2-z
7 1/2-y,1/2-x,1/2+z
8 1/2+y,1/2+x,1/2+z
_cell_length_a                   10.9513(15)
_cell_length_b                   10.9513(15)
_cell_length_c                   6.3063(13)
_cell_angle_alpha                90
_cell_angle_beta                 90
_cell_angle_gamma                90
_cell_volume                     756.321
loop_
_atom_site_label
_atom_site_type_symbol
_atom_site_fract_x
_atom_site_fract_y
_atom_site_fract_z
Co1 Co 0.5000 0.5000 0.0000
Cu1 Cu 0.5000 0.0000 -0.33199(19)
N1 N 0.4733(4) 0.1684(4) -0.3211(10)
N2 N 0.4670(4) 0.3549(4) -0.1813(10)
C1 C 0.5224(6) 0.2450(5) -0.1802(13)
H1 H 0.2250 0.4127 0.0917
C2 C 0.3459(6) 0.6201(6) 0.3353(12)
H2 H 0.4080 0.6728 0.3770
C3 C 0.2326(6) 0.6173(6) 0.4167(11)
H3 H 0.2030 0.6690 0.5217
N1A N 0.5267(4) -0.1684(4) -0.3211(10)
N2A N 0.5330(4) 0.6451(4) -0.1813(10)
N2B N 0.3549(4) 0.5330(4) 0.1813(10)
C1B C 0.2450(5) 0.4776(6) 0.1802(13)
N1B N 0.1684(4) 0.5267(4) 0.3211(10)
Cu1B Cu 0.0000 0.5000 0.33199(19)
N1C N -0.1684(4) 0.4733(4) 0.3211(10)
N2C N 0.6451(4) 0.4670(4) 0.1813(10)
C2C C 0.3799(6) 0.3459(6) -0.3353(12)
H2C H 0.3272 0.4080 -0.3770
C3C C 0.3827(6) 0.2326(6) -0.4167(11)
H3C H 0.3310 0.2030 -0.5217
H1C H 0.5873 0.2250 -0.0917
C1A C 0.4776(6) 0.7550(5) -0.1802(13)
C2B C 0.6201(6) 0.6541(6) -0.3353(12)
C1C C 0.7550(5) 0.5224(6) 0.1802(13)
C2A C 0.6541(6) 0.3799(6) 0.3353(12)
N1A_2 N 0.5267(4) 0.8316(4) -0.3211(10)
H1B H 0.4127 0.7750 -0.0917
H2B H 0.6728 0.5920 -0.3770
C3B C 0.6173(6) 0.7674(6) -0.4167(11)
N1C_2 N 0.8316(4) 0.4733(4) 0.3211(10)
H1A H 0.7750 0.5873 0.0917
H2A H 0.5920 0.3272 0.3770
C3A C 0.7674(6) 0.3827(6) 0.4167(11)
Cu1_2 Cu 0.5000 1.0000 -0.33199(19)
H3B H 0.6690 0.7970 -0.5217
Cu1B_2 Cu 1.0000 0.5000 0.33199(19)
H3A H 0.7970 0.3310 0.5217
loop_
_geom_bond_atom_site_label_1
_geom_bond_atom_site_label_2
_geom_bond_site_symmetry_1
_geom_bond_site_symmetry_2
Co1 N2 1_555 1_555
Cu1 N1 1_555 1_555
N1 C1 1_555 1_555
N2 C1 1_555 1_555
C1 H1C 1_555 1_555
H1 C1B 1_555 1_555
C2 H2 1_555 1_555
C3 C2 1_555 1_555
H3 C3 1_555 1_555
N1A Cu1 1_555 1_555
N2A Co1 1_555 1_555
N2B Co1 1_555 1_555
C1B N2B 1_555 1_555
N1B C3 1_555 1_555
Cu1B N1B 1_555 1_555
N1C Cu1B 1_555 1_555
N2C Co1 1_555 1_555
C2C N2 1_555 1_555
H2C C2C 1_555 1_555
C3C N1 1_555 1_555
H3C C3C 1_555 1_555
C1A N2A 1_555 1_555
C2B N2A 1_555 1_555
C1C N2C 1_555 1_555
C2A N2C 1_555 1_555
N1A_2 C1A 1_555 1_555
H1B C1A 1_555 1_555
H2B C2B 1_555 1_555
C3B C2B 1_555 1_555
N1C_2 C1C 1_555 1_555
H1A C1C 1_555 1_555
H2A C2A 1_555 1_555
C3A C2A 1_555 1_555
Cu1_2 N1A_2 1_555 1_555
H3B C3B 1_555 1_555
Cu1B_2 N1C_2 1_555 1_555
H3A C3A 1_555 1_555
C2 N2B 1_555 1_555
C1B N1B 1_555 1_555
C2C C3C 1_555 1_555
N1A_2 C3B 1_555 1_555
N1C_2 C3A 1_555 1_555

#END
