
#######################################################################
#
#                 Cambridge Crystallographic Data Centre
#                                CCDC 
#
#######################################################################
#
# If this CIF has been generated from an entry in the Cambridge 
# Structural Database, then it will include bibliographic, chemical, 
# crystal, experimental, refinement or atomic coordinate data resulting 
# from the CCDC's data processing and validation procedures.
#
#######################################################################

data_IXIHOM01
_symmetry_cell_setting           monoclinic
_symmetry_space_group_name_H-M   'C 2/c'
_symmetry_Int_Tables_number      15
_space_group_name_Hall           '-C 2yn'
loop_
_symmetry_equiv_pos_site_id
_symmetry_equiv_pos_as_xyz
1 x,y,z
2 1/2+x,1/2+y,z
3 -x,y,1/2-z
4 1/2-x,1/2+y,1/2-z
5 -x,-y,-z
6 1/2-x,1/2-y,-z
7 x,-y,1/2+z
8 1/2+x,1/2-y,1/2+z
_cell_length_a                   16.1207(17)
_cell_length_b                   16.1229(17)
_cell_length_c                   13.1021(14)
_cell_angle_alpha                90
_cell_angle_beta                 99.850(2)
_cell_angle_gamma                90
_cell_volume                     3355.2
loop_
_atom_site_label
_atom_site_type_symbol
_atom_site_fract_x
_atom_site_fract_y
_atom_site_fract_z
Cu1 Cu 0.51055(4) 0.58753(4) 0.85789(5)
Cu2 Cu 0.76663(4) 0.34398(4) 0.85480(5)
Cu3 Cu 0.73945(4) 0.34023(4) 0.64671(5)
Cu4 Cu 0.98361(4) 0.59533(4) 0.64227(5)
N1 N 0.6165(3) 0.5399(2) 0.8666(3)
N2 N 0.7186(3) 0.4478(2) 0.8592(3)
N3 N 0.3128(3) 0.7384(2) 0.8615(3)
N4 N 0.4082(2) 0.6381(2) 0.8628(3)
N5 N 0.8432(3) 0.3888(2) 0.6429(3)
N6 N 0.9347(3) 0.4910(2) 0.6356(3)
N7 N 0.5327(3) 0.1989(2) 0.6364(3)
N8 N 0.6330(3) 0.2942(2) 0.6398(3)
C1 C 0.6361(4) 0.4627(3) 0.8415(4)
H1 H 0.5953 0.4226 0.8137
C2 C 0.7550(3) 0.5210(3) 0.8979(4)
H2 H 0.8136 0.5310 0.9182
C3 C 0.6923(3) 0.5765(3) 0.9018(4)
H3 H 0.7001 0.6321 0.9254
C4 C 0.3888(3) 0.7176(3) 0.8417(4)
H4 H 0.4251 0.7553 0.8153
C5 C 0.3396(3) 0.6062(3) 0.8985(4)
H5 H 0.3335 0.5506 0.9198
C6 C 0.2822(3) 0.6672(3) 0.8982(4)
H6 H 0.2291 0.6616 0.9199
C7 C 0.8599(4) 0.4691(3) 0.6593(4)
H7 H 0.8230 0.5066 0.6850
C8 C 0.9668(3) 0.4198(3) 0.6004(4)
H8 H 1.0192 0.4150 0.5770
C9 C 0.9111(3) 0.3574(3) 0.6048(4)
H9 H 0.9179 0.3015 0.5849
C10 C 0.6158(3) 0.2153(3) 0.6583(4)
H10 H 0.6574 0.1752 0.6839
C11 C 0.5561(3) 0.3303(3) 0.6027(4)
H11 H 0.5471 0.3864 0.5817
C12 C 0.4957(3) 0.2718(3) 0.6016(4)
H12 H 0.4370 0.2803 0.5800
Cu1B Cu 0.48945(4) 0.58753(4) 0.64211(5)
Cu2A Cu 0.26663(4) 0.84398(4) 0.85480(5)
Cu4B Cu 1.01639(4) 0.59533(4) 0.85773(5)
Cu4A Cu 0.48361(4) 0.09533(4) 0.64227(5)
N3A N 0.8128(3) 0.2384(2) 0.8615(3)
N7A N 1.0327(3) 0.6989(2) 0.6364(3)
loop_
_geom_bond_atom_site_label_1
_geom_bond_atom_site_label_2
_geom_bond_site_symmetry_1
_geom_bond_site_symmetry_2
Cu1 N1 1_555 1_555
Cu2 Cu3 1_555 1_555
Cu3 N5 1_555 1_555
Cu4 N6 1_555 1_555
N1 C1 1_555 1_555
N2 Cu2 1_555 1_555
N3 C4 1_555 1_555
N4 Cu1 1_555 1_555
N5 C7 1_555 1_555
N6 C7 1_555 1_555
N7 C10 1_555 1_555
N8 Cu3 1_555 1_555
C1 N2 1_555 1_555
H1 C1 1_555 1_555
C2 N2 1_555 1_555
H2 C2 1_555 1_555
C3 N1 1_555 1_555
H3 C3 1_555 1_555
C4 N4 1_555 1_555
H4 C4 1_555 1_555
C5 N4 1_555 1_555
H5 C5 1_555 1_555
C6 N3 1_555 1_555
H6 C6 1_555 1_555
C7 H7 1_555 1_555
C8 N6 1_555 1_555
H8 C8 1_555 1_555
C9 N5 1_555 1_555
H9 C9 1_555 1_555
C10 N8 1_555 1_555
H10 C10 1_555 1_555
C11 N8 1_555 1_555
H11 C11 1_555 1_555
C12 N7 1_555 1_555
H12 C12 1_555 1_555
Cu1B Cu1 1_555 1_555
Cu2A N3 1_555 1_555
Cu4B Cu4 1_555 1_555
Cu4A N7 1_555 1_555
N3A Cu2 1_555 1_555
N7A Cu4 1_555 1_555
C2 C3 1_555 1_555
C5 C6 1_555 1_555
C8 C9 1_555 1_555
C11 C12 1_555 1_555

#END
