
#######################################################################
#
#                 Cambridge Crystallographic Data Centre
#                                CCDC 
#
#######################################################################
#
# If this CIF has been generated from an entry in the Cambridge 
# Structural Database, then it will include bibliographic, chemical, 
# crystal, experimental, refinement or atomic coordinate data resulting 
# from the CCDC's data processing and validation procedures.
#
#######################################################################

data_IXIHOM03
_symmetry_cell_setting           monoclinic
_symmetry_space_group_name_H-M   'P 21/c'
_symmetry_Int_Tables_number      14
_space_group_name_Hall           '-P 2ybc'
loop_
_symmetry_equiv_pos_site_id
_symmetry_equiv_pos_as_xyz
1 x,y,z
2 -x,1/2+y,1/2-z
3 -x,-y,-z
4 x,1/2-y,1/2+z
_cell_length_a                   5.410(2)
_cell_length_b                   6.943(3)
_cell_length_c                   33.058(12)
_cell_angle_alpha                90
_cell_angle_beta                 97.647(8)
_cell_angle_gamma                90
_cell_volume                     1230.67
loop_
_atom_site_label
_atom_site_type_symbol
_atom_site_fract_x
_atom_site_fract_y
_atom_site_fract_z
Cu1 Cu 0.71411(15) -0.77092(11) -0.00649(2)
Cu2 Cu 0.11612(14) -0.73640(12) -0.16430(2)
Cu3 Cu 0.81669(16) -0.74809(12) 0.16765(2)
N1 N -0.2281(10) -0.7110(7) -0.27855(14)
N2 N -0.1122(9) -0.7057(7) -0.21109(13)
N3 N 0.3749(10) -0.7827(7) -0.12233(14)
N4 N 0.6018(9) -0.8052(7) -0.06136(13)
N5 N 0.8440(9) -0.7227(7) 0.04723(13)
N6 N 0.8856(10) -0.7077(7) 0.11471(13)
C1 C -0.0555(11) -0.7571(9) -0.24737(16)
H1 H 0.0921 -0.8200 -0.2508
C2 C -0.3402(11) -0.6187(8) -0.21934(17)
H2 H -0.4311 -0.5657 -0.2001
C3 C -0.4108(11) -0.6228(9) -0.25996(17)
H3 H -0.5596 -0.5738 -0.2733
C4 C 0.3901(11) -0.7425(9) -0.08262(16)
H4 H 0.2666 -0.6777 -0.0710
C5 C 0.7294(11) -0.8917(8) -0.08907(17)
H5 H 0.8849 -0.9500 -0.0835
C6 C 0.5915(12) -0.8784(9) -0.12605(17)
H6 H 0.6366 -0.9267 -0.1503
C7 C 0.7452(11) -0.7652(8) 0.08052(15)
H7 H 0.5935 -0.8286 0.0802
C8 C 1.0903(12) -0.6223(9) 0.10162(18)
H8 H 1.2232 -0.5669 0.1183
C9 C 1.0668(12) -0.6323(8) 0.06064(18)
H9 H 1.1807 -0.5862 0.0442
Cu3C Cu -0.18331(16) -0.75191(12) -0.33235(2)
N1C N 0.7719(10) -0.7890(7) 0.22145(14)
loop_
_geom_bond_atom_site_label_1
_geom_bond_atom_site_label_2
_geom_bond_site_symmetry_1
_geom_bond_site_symmetry_2
Cu1 N4 1_555 1_555
Cu2 N2 1_555 1_555
Cu3 N6 1_555 1_555
N1 C1 1_555 1_555
N2 C1 1_555 1_555
N3 Cu2 1_555 1_555
N4 C4 1_555 1_555
N5 Cu1 1_555 1_555
N6 C7 1_555 1_555
C1 H1 1_555 1_555
C2 N2 1_555 1_555
H2 C2 1_555 1_555
C3 N1 1_555 1_555
H3 C3 1_555 1_555
C4 N3 1_555 1_555
H4 C4 1_555 1_555
C5 N4 1_555 1_555
H5 C5 1_555 1_555
C6 N3 1_555 1_555
H6 C6 1_555 1_555
C7 N5 1_555 1_555
H7 C7 1_555 1_555
C8 N6 1_555 1_555
H8 C8 1_555 1_555
C9 N5 1_555 1_555
H9 C9 1_555 1_555
Cu3C N1 1_555 1_555
N1C Cu3 1_555 1_555
C2 C3 1_555 1_555
C5 C6 1_555 1_555
C8 C9 1_555 1_555

#END
