
#######################################################################
#
#                 Cambridge Crystallographic Data Centre
#                                CCDC 
#
#######################################################################
#
# If this CIF has been generated from an entry in the Cambridge 
# Structural Database, then it will include bibliographic, chemical, 
# crystal, experimental, refinement or atomic coordinate data resulting 
# from the CCDC's data processing and validation procedures.
#
#######################################################################

data_IXIKOQ
_symmetry_cell_setting           monoclinic
_symmetry_space_group_name_H-M   'C 2/c'
_symmetry_Int_Tables_number      15
_space_group_name_Hall           '-C 2yn'
loop_
_symmetry_equiv_pos_site_id
_symmetry_equiv_pos_as_xyz
1 x,y,z
2 -x,y,1/2-z
3 1/2+x,1/2+y,z
4 1/2-x,1/2+y,1/2-z
5 -x,-y,-z
6 x,-y,1/2+z
7 1/2-x,1/2-y,-z
8 1/2+x,1/2-y,1/2+z
_cell_length_a                   23.5558(8)
_cell_length_b                   29.1748(10)
_cell_length_c                   23.9342(8)
_cell_angle_alpha                90
_cell_angle_beta                 110.287(2)
_cell_angle_gamma                90
_cell_volume                     15428.1
loop_
_atom_site_label
_atom_site_type_symbol
_atom_site_fract_x
_atom_site_fract_y
_atom_site_fract_z
C1 C 0.7389(4) 0.3607(2) 0.5282(3)
C3 C 0.7872(5) 0.3822(3) 0.5754(5)
H2 H 0.8246 0.3666 0.5923
C4 C 0.7808(5) 0.4238(3) 0.5962(4)
H3 H 0.8115 0.4359 0.6303
C5 C 0.7309(4) 0.4483(2) 0.5687(3)
C6 C 0.7237(3) 0.4968(3) 0.5847(3)
C7 C 0.6737(4) 0.5218(2) 0.5335(3)
H4 H 0.6695 0.5533 0.5456
H5 H 0.6351 0.5056 0.5248
H6 H 0.6850 0.5222 0.4977
C8 C 0.7821(4) 0.5227(3) 0.5984(5)
H7 H 0.7764 0.5544 0.6090
H8 H 0.7946 0.5225 0.5634
H9 H 0.8135 0.5080 0.6319
C9 C 0.7066(5) 0.4988(5) 0.6414(4)
H10 H 0.7013 0.5309 0.6509
H11 H 0.7390 0.4849 0.6747
H12 H 0.6688 0.4820 0.6346
C10 C 0.5921(3) 0.35430(17) 0.3473(2)
C11 C 0.5996(3) 0.3651(2) 0.2922(3)
H13 H 0.5721 0.3530 0.2560
C12 C 0.6452(3) 0.3922(2) 0.2910(3)
H14 H 0.6490 0.4001 0.2539
C13 C 0.6878(3) 0.4093(2) 0.3451(3)
C14 C 0.7399(3) 0.4413(2) 0.3479(3)
C15 C 0.7755(5) 0.4184(4) 0.3089(5)
H15 H 0.7927 0.3890 0.3267
H16 H 0.8082 0.4388 0.3079
H17 H 0.7475 0.4133 0.2682
C16 C 0.7147(5) 0.4862(3) 0.3167(5)
H18 H 0.6883 0.4799 0.2757
H19 H 0.7482 0.5060 0.3162
H20 H 0.6915 0.5017 0.3381
C17 C 0.7820(4) 0.4483(3) 0.4098(3)
H21 H 0.7967 0.4186 0.4281
H22 H 0.7608 0.4641 0.4329
H23 H 0.8165 0.4670 0.4093
C18 C 0.5350(4) 0.3810(2) 0.4858(3)
C19 C 0.4783(4) 0.4053(3) 0.4696(3)
H24 H 0.4484 0.3963 0.4857
C20 C 0.4677(5) 0.4415(3) 0.4310(4)
H25 H 0.4302 0.4574 0.4195
C21 C 0.5142(4) 0.4550(2) 0.4081(3)
C22 C 0.5060(4) 0.4946(3) 0.3672(3)
C23 C 0.5630(5) 0.5027(3) 0.3510(3)
H26 H 0.5562 0.5288 0.3238
H27 H 0.5715 0.4752 0.3317
H28 H 0.5974 0.5091 0.3873
C24 C 0.4913(5) 0.5387(3) 0.3992(3)
H29 H 0.4864 0.5654 0.3730
H30 H 0.5247 0.5443 0.4366
H31 H 0.4539 0.5336 0.4074
C25 C 0.4484(4) 0.4847(3) 0.3096(3)
H32 H 0.4424 0.5101 0.2814
H33 H 0.4125 0.4815 0.3212
H34 H 0.4546 0.4562 0.2908
C26 C 0.5543(4) 0.2225(3) 0.1177(3)
C27 C 0.5492(5) 0.2625(4) 0.0815(4)
H35 H 0.5117 0.2701 0.0516
C28 C 0.5986(6) 0.2894(3) 0.0906(3)
H36 H 0.5960 0.3158 0.0667
C29 C 0.6542(4) 0.2780(3) 0.1357(3)
C30 C 0.7099(6) 0.3049(3) 0.1485(5)
C31 C 0.7391(8) 0.2955(11) 0.1059(11)
H37 H 0.7765 0.3135 0.1160
H38 H 0.7120 0.3039 0.0659
H39 H 0.7488 0.2628 0.1068
C32 C 0.7551(8) 0.2962(5) 0.2131(7)
H40 H 0.7920 0.3141 0.2196
H41 H 0.7653 0.2635 0.2181
H42 H 0.7363 0.3054 0.2420
C33 C 0.6921(7) 0.3541(3) 0.1396(5)
H43 H 0.7283 0.3730 0.1469
H44 H 0.6717 0.3628 0.1674
H45 H 0.6645 0.3587 0.0986
C34 C 0.6910(6) 0.1996(5) 0.3019(4)
C35 C 0.7505(6) 0.2029(5) 0.3420(4)
H46 H 0.7580 0.2205 0.3772
C36 C 0.7976(4) 0.1822(3) 0.3326(3)
H47 H 0.8370 0.1821 0.3619
C37 C 0.7850(4) 0.1603(2) 0.2764(3)
C38 C 0.8347(4) 0.1399(4) 0.2608(5)
C39 C 0.8137(4) 0.1247(4) 0.1951(4)
H48 H 0.8015 0.1516 0.1692
H49 H 0.7792 0.1038 0.1870
H50 H 0.8469 0.1089 0.1873
C40 C 0.8573(8) 0.0983(5) 0.2997(5)
H51 H 0.8895 0.0835 0.2890
H52 H 0.8239 0.0767 0.2937
H53 H 0.8733 0.1077 0.3416
C41 C 0.8896(8) 0.1704(7) 0.2788(8)
H54 H 0.8809 0.1979 0.2539
H55 H 0.9236 0.1539 0.2735
H56 H 0.9000 0.1792 0.3207
C42 C 0.6224(3) 0.0875(4) 0.1782(4)
C43 C 0.6228(4) 0.0533(4) 0.1368(6)
H57 H 0.6171 0.0224 0.1463
C44 C 0.6301(5) 0.0611(3) 0.0884(6)
H58 H 0.6293 0.0371 0.0612
C45 C 0.6401(4) 0.1105(4) 0.0749(4)
C46 C 0.6542(6) 0.1252(4) 0.0194(5)
C47 C 0.7226(7) 0.1007(6) 0.0319(7)
H59 H 0.7182 0.0673 0.0298
H60 H 0.7502 0.1096 0.0715
H61 H 0.7389 0.1112 0.0016
C48 C 0.6129(7) 0.1034(8) -0.0324(5)
H62 H 0.6130 0.0703 -0.0257
H63 H 0.6255 0.1096 -0.0667
H64 H 0.5721 0.1156 -0.0403
C49 C 0.6670(9) 0.1764(5) 0.0217(7)
H65 H 0.6980 0.1841 0.0601
H66 H 0.6298 0.1934 0.0173
H67 H 0.6815 0.1847 -0.0107
N1 N 0.6885(2) 0.38603(16) 0.5088(2)
N2 N 0.6829(3) 0.42937(18) 0.5263(2)
N3 N 0.6355(2) 0.37229(16) 0.3969(2)
N4 N 0.6827(2) 0.39985(16) 0.3967(2)
N5 N 0.5750(3) 0.39535(18) 0.4584(2)
N6 N 0.5636(3) 0.43187(17) 0.4217(2)
N7 N 0.6101(3) 0.2154(2) 0.1599(2)
N8 N 0.6586(3) 0.2410(2) 0.1682(3)
N9 N 0.6834(3) 0.1757(2) 0.2514(2)
N10 N 0.7308(3) 0.15788(18) 0.2398(2)
N11 N 0.6254(3) 0.1294(2) 0.1621(3)
N12 N 0.6383(3) 0.1424(2) 0.1124(3)
S1 S 0.74753(9) 0.31003(6) 0.49891(11)
S2 S 0.53464(7) 0.32275(5) 0.35170(7)
S3 S 0.55159(10) 0.33865(8) 0.53729(8)
S4 S 0.49580(12) 0.18944(11) 0.10851(16)
S5 S 0.6356(2) 0.2284(3) 0.31273(15)
S6 S 0.61603(10) 0.07172(9) 0.24585(11)
K1 K 0.63041(6) 0.24745(5) 0.43769(7)
K2 K 0.5000 0.24668(7) 0.2500
B1 B 0.6295(3) 0.3662(2) 0.4601(3)
B2 B 0.6206(4) 0.1698(3) 0.2014(4)
H68 H 0.645(3) 0.3315(12) 0.478(3)
H69 H 0.591(3) 0.159(3) 0.226(3)
C1A C 0.2611(4) 0.3607(2) -0.0282(3)
C3A C 0.2128(5) 0.3822(3) -0.0754(5)
H2A H 0.1754 0.3666 -0.0923
C4A C 0.2192(5) 0.4238(3) -0.0962(4)
H3A H 0.1885 0.4359 -0.1303
C5A C 0.2691(4) 0.4483(2) -0.0687(3)
C6A C 0.2763(3) 0.4968(3) -0.0847(3)
C7A C 0.3263(4) 0.5218(2) -0.0335(3)
H4A H 0.3305 0.5533 -0.0456
H5A H 0.3649 0.5056 -0.0248
H6A H 0.3150 0.5222 0.0023
C8A C 0.2179(4) 0.5227(3) -0.0984(5)
H7A H 0.2236 0.5544 -0.1090
H8A H 0.2054 0.5225 -0.0634
H9A H 0.1865 0.5080 -0.1319
C9A C 0.2934(5) 0.4988(5) -0.1414(4)
H10A H 0.2987 0.5309 -0.1509
H11A H 0.2610 0.4849 -0.1747
H12A H 0.3312 0.4820 -0.1346
C10A C 0.4079(3) 0.35430(17) 0.1527(2)
C11A C 0.4004(3) 0.3651(2) 0.2078(3)
H13A H 0.4279 0.3530 0.2440
C12A C 0.3548(3) 0.3922(2) 0.2090(3)
H14A H 0.3510 0.4001 0.2461
C13A C 0.3122(3) 0.4093(2) 0.1549(3)
C14A C 0.2601(3) 0.4413(2) 0.1521(3)
C15A C 0.2245(5) 0.4184(4) 0.1911(5)
H15A H 0.2073 0.3890 0.1733
H16A H 0.1918 0.4388 0.1921
H17A H 0.2525 0.4133 0.2318
C16A C 0.2853(5) 0.4862(3) 0.1833(5)
H18A H 0.3117 0.4799 0.2243
H19A H 0.2518 0.5060 0.1838
H20A H 0.3085 0.5017 0.1619
C17A C 0.2180(4) 0.4483(3) 0.0902(3)
H21A H 0.2033 0.4186 0.0719
H22A H 0.2392 0.4641 0.0671
H23A H 0.1835 0.4670 0.0907
C18A C 0.4650(4) 0.3810(2) 0.0142(3)
C19A C 0.5217(4) 0.4053(3) 0.0304(3)
H24A H 0.5516 0.3963 0.0143
C20A C 0.5323(5) 0.4415(3) 0.0690(4)
H25A H 0.5698 0.4574 0.0805
C21A C 0.4858(4) 0.4550(2) 0.0919(3)
C22A C 0.4940(4) 0.4946(3) 0.1328(3)
C23A C 0.4370(5) 0.5027(3) 0.1490(3)
H26A H 0.4438 0.5288 0.1762
H27A H 0.4285 0.4752 0.1683
H28A H 0.4026 0.5091 0.1127
C24A C 0.5087(5) 0.5387(3) 0.1008(3)
H29A H 0.5136 0.5654 0.1270
H30A H 0.4753 0.5443 0.0634
H31A H 0.5461 0.5336 0.0926
C25A C 0.5516(4) 0.4847(3) 0.1904(3)
H32A H 0.5576 0.5101 0.2186
H33A H 0.5875 0.4815 0.1788
H34A H 0.5454 0.4562 0.2092
C26A C 0.4457(4) 0.2225(3) 0.3823(3)
C27A C 0.4508(5) 0.2625(4) 0.4185(4)
H35A H 0.4883 0.2701 0.4484
C28A C 0.4014(6) 0.2894(3) 0.4094(3)
H36A H 0.4040 0.3158 0.4333
C29A C 0.3458(4) 0.2780(3) 0.3643(3)
C30A C 0.2901(6) 0.3049(3) 0.3515(5)
C31A C 0.2609(8) 0.2955(11) 0.3941(11)
H37A H 0.2235 0.3135 0.3840
H38A H 0.2880 0.3039 0.4341
H39A H 0.2512 0.2628 0.3932
C32A C 0.2449(8) 0.2962(5) 0.2869(7)
H40A H 0.2080 0.3141 0.2804
H41A H 0.2347 0.2635 0.2819
H42A H 0.2637 0.3054 0.2580
C33A C 0.3079(7) 0.3541(3) 0.3604(5)
H43A H 0.2717 0.3730 0.3531
H44A H 0.3283 0.3628 0.3326
H45A H 0.3355 0.3587 0.4014
C34A C 0.3090(6) 0.1996(5) 0.1981(4)
C35A C 0.2495(6) 0.2029(5) 0.1580(4)
H46A H 0.2420 0.2205 0.1228
C36A C 0.2024(4) 0.1822(3) 0.1674(3)
H47A H 0.1630 0.1821 0.1381
C37A C 0.2150(4) 0.1603(2) 0.2236(3)
C38A C 0.1653(4) 0.1399(4) 0.2392(5)
C39A C 0.1863(4) 0.1247(4) 0.3049(4)
H48A H 0.1985 0.1516 0.3308
H49A H 0.2208 0.1038 0.3130
H50A H 0.1531 0.1089 0.3127
C40A C 0.1427(8) 0.0983(5) 0.2003(5)
H51A H 0.1105 0.0835 0.2110
H52A H 0.1761 0.0767 0.2063
H53A H 0.1267 0.1077 0.1584
C41A C 0.1104(8) 0.1704(7) 0.2212(8)
H54A H 0.1191 0.1979 0.2461
H55A H 0.0764 0.1539 0.2265
H56A H 0.1000 0.1792 0.1793
C42A C 0.3776(3) 0.0875(4) 0.3218(4)
C43A C 0.3772(4) 0.0533(4) 0.3632(6)
H57A H 0.3829 0.0224 0.3537
C44A C 0.3699(5) 0.0611(3) 0.4116(6)
H58A H 0.3707 0.0371 0.4388
C45A C 0.3599(4) 0.1105(4) 0.4251(4)
C46A C 0.3458(6) 0.1252(4) 0.4806(5)
C47A C 0.2774(7) 0.1007(6) 0.4681(7)
H59A H 0.2818 0.0673 0.4702
H60A H 0.2498 0.1096 0.4285
H61A H 0.2611 0.1112 0.4984
C48A C 0.3871(7) 0.1034(8) 0.5324(5)
H62A H 0.3870 0.0703 0.5257
H63A H 0.3745 0.1096 0.5667
H64A H 0.4279 0.1156 0.5403
C49A C 0.3330(9) 0.1764(5) 0.4783(7)
H65A H 0.3020 0.1841 0.4399
H66A H 0.3702 0.1934 0.4827
H67A H 0.3185 0.1847 0.5107
N1A N 0.3115(2) 0.38603(16) -0.0088(2)
N2A N 0.3171(3) 0.42937(18) -0.0263(2)
N3A N 0.3645(2) 0.37229(16) 0.1031(2)
N4A N 0.3173(2) 0.39985(16) 0.1033(2)
N5A N 0.4250(3) 0.39535(18) 0.0416(2)
N6A N 0.4364(3) 0.43187(17) 0.0783(2)
N7A N 0.3899(3) 0.2154(2) 0.3401(2)
N8A N 0.3414(3) 0.2410(2) 0.3318(3)
N9A N 0.3166(3) 0.1757(2) 0.2486(2)
N10A N 0.2692(3) 0.15788(18) 0.2602(2)
N11A N 0.3746(3) 0.1294(2) 0.3379(3)
N12A N 0.3617(3) 0.1424(2) 0.3876(3)
S1A S 0.25247(9) 0.31003(6) 0.00109(11)
S1F S 0.75247(9) 0.18997(6) 0.50109(11)
S1G S 0.24753(9) 0.18997(6) -0.00109(11)
S2A S 0.46536(7) 0.32275(5) 0.14830(7)
S3A S 0.44841(10) 0.33865(8) -0.03729(8)
S4A S 0.50420(12) 0.18944(11) 0.39149(16)
S5A S 0.3644(2) 0.2284(3) 0.18727(15)
S6A S 0.38397(10) 0.07172(9) 0.25415(11)
K1A K 0.36959(6) 0.24745(5) 0.06231(7)
K1F K 0.86959(6) 0.25255(5) 0.56231(7)
K1G K 0.13041(6) 0.25255(5) -0.06231(7)
B1A B 0.3705(3) 0.3662(2) 0.0399(3)
B2A B 0.3794(4) 0.1698(3) 0.2986(4)
H68A H 0.355(3) 0.3315(12) 0.022(3)
H69A H 0.409(3) 0.159(3) 0.274(3)
C2 C 0.0712(7) 0.1770(6) 0.4096(6)
H1 H 0.0376 0.1748 0.4260
Cl1 Cl 0.0408(3) 0.1717(6) 0.3333(2)
Cl2 Cl 0.1226(2) 0.1315(2) 0.4398(2)
Cl3 Cl 0.1094(6) 0.2290(3) 0.4332(4)
Cl4? Cl 0.0705(16) 0.1315(11) 0.3766(17)
Cl5? Cl 0.1314(9) 0.2011(18) 0.4530(10)
Cl6? Cl 0.0503(12) 0.2181(6) 0.3607(18)
loop_
_geom_bond_atom_site_label_1
_geom_bond_atom_site_label_2
_geom_bond_site_symmetry_1
_geom_bond_site_symmetry_2
C1 C3 1_555 1_555
C2 H1 1_555 1_555
C3 H2 1_555 1_555
C4 C3 1_555 1_555
H3 C4 1_555 1_555
C5 C4 1_555 1_555
C6 C5 1_555 1_555
C7 C6 1_555 1_555
H4 C7 1_555 1_555
H5 C7 1_555 1_555
H6 C7 1_555 1_555
C8 C6 1_555 1_555
H7 C8 1_555 1_555
H8 C8 1_555 1_555
H9 C8 1_555 1_555
C9 C6 1_555 1_555
H10 C9 1_555 1_555
H11 C9 1_555 1_555
H12 C9 1_555 1_555
C10 C11 1_555 1_555
C11 H13 1_555 1_555
C12 C11 1_555 1_555
H14 C12 1_555 1_555
C13 C12 1_555 1_555
C14 C13 1_555 1_555
C15 C14 1_555 1_555
H15 C15 1_555 1_555
H16 C15 1_555 1_555
H17 C15 1_555 1_555
C16 C14 1_555 1_555
H18 C16 1_555 1_555
H19 C16 1_555 1_555
H20 C16 1_555 1_555
C17 C14 1_555 1_555
H21 C17 1_555 1_555
H22 C17 1_555 1_555
H23 C17 1_555 1_555
C18 C19 1_555 1_555
C19 H24 1_555 1_555
C20 C19 1_555 1_555
H25 C20 1_555 1_555
C21 C20 1_555 1_555
C22 C21 1_555 1_555
C23 C22 1_555 1_555
H26 C23 1_555 1_555
H27 C23 1_555 1_555
H28 C23 1_555 1_555
C24 C22 1_555 1_555
H29 C24 1_555 1_555
H30 C24 1_555 1_555
H31 C24 1_555 1_555
C25 C22 1_555 1_555
H32 C25 1_555 1_555
H33 C25 1_555 1_555
H34 C25 1_555 1_555
C26 C27 1_555 1_555
C27 H35 1_555 1_555
C28 C27 1_555 1_555
H36 C28 1_555 1_555
C29 C28 1_555 1_555
C30 C29 1_555 1_555
C31 C30 1_555 1_555
H37 C31 1_555 1_555
H38 C31 1_555 1_555
H39 C31 1_555 1_555
C32 C30 1_555 1_555
H40 C32 1_555 1_555
H41 C32 1_555 1_555
H42 C32 1_555 1_555
C33 C30 1_555 1_555
H43 C33 1_555 1_555
H44 C33 1_555 1_555
H45 C33 1_555 1_555
C34 C35 1_555 1_555
C35 H46 1_555 1_555
C36 C35 1_555 1_555
H47 C36 1_555 1_555
C37 C36 1_555 1_555
C38 C37 1_555 1_555
C39 C38 1_555 1_555
H48 C39 1_555 1_555
H49 C39 1_555 1_555
H50 C39 1_555 1_555
C40 C38 1_555 1_555
H51 C40 1_555 1_555
H52 C40 1_555 1_555
H53 C40 1_555 1_555
C41 C38 1_555 1_555
H54 C41 1_555 1_555
H55 C41 1_555 1_555
H56 C41 1_555 1_555
C42 C43 1_555 1_555
C43 H57 1_555 1_555
C44 C43 1_555 1_555
H58 C44 1_555 1_555
C45 C44 1_555 1_555
C46 C45 1_555 1_555
C47 C46 1_555 1_555
H59 C47 1_555 1_555
H60 C47 1_555 1_555
H61 C47 1_555 1_555
C48 C46 1_555 1_555
H62 C48 1_555 1_555
H63 C48 1_555 1_555
H64 C48 1_555 1_555
C49 C46 1_555 1_555
H65 C49 1_555 1_555
H66 C49 1_555 1_555
H67 C49 1_555 1_555
N1 C1 1_555 1_555
N2 C5 1_555 1_555
N3 C10 1_555 1_555
N4 C13 1_555 1_555
N5 C18 1_555 1_555
N6 C21 1_555 1_555
N7 C26 1_555 1_555
N8 C29 1_555 1_555
N9 C34 1_555 1_555
N10 C37 1_555 1_555
N11 C42 1_555 1_555
N12 C45 1_555 1_555
S1 C1 1_555 1_555
S2 C10 1_555 1_555
S3 C18 1_555 1_555
S4 C26 1_555 1_555
S5 C34 1_555 1_555
S6 C42 1_555 1_555
K1 S1 1_555 1_555
K2 S2 1_555 1_555
B1 N1 1_555 1_555
B2 N7 1_555 1_555
Cl1 C2 1_555 1_555
Cl2 C2 1_555 1_555
Cl3 C2 1_555 1_555
H68 K1 1_555 1_555
H69 B2 1_555 1_555
C1A C3A 1_555 1_555
C3A H2A 1_555 1_555
C4A C3A 1_555 1_555
H3A C4A 1_555 1_555
C5A C4A 1_555 1_555
C6A C5A 1_555 1_555
C7A C6A 1_555 1_555
H4A C7A 1_555 1_555
H5A C7A 1_555 1_555
H6A C7A 1_555 1_555
C8A C6A 1_555 1_555
H7A C8A 1_555 1_555
H8A C8A 1_555 1_555
H9A C8A 1_555 1_555
C9A C6A 1_555 1_555
H10A C9A 1_555 1_555
H11A C9A 1_555 1_555
H12A C9A 1_555 1_555
C10A C11A 1_555 1_555
C11A H13A 1_555 1_555
C12A C11A 1_555 1_555
H14A C12A 1_555 1_555
C13A C12A 1_555 1_555
C14A C13A 1_555 1_555
C15A C14A 1_555 1_555
H15A C15A 1_555 1_555
H16A C15A 1_555 1_555
H17A C15A 1_555 1_555
C16A C14A 1_555 1_555
H18A C16A 1_555 1_555
H19A C16A 1_555 1_555
H20A C16A 1_555 1_555
C17A C14A 1_555 1_555
H21A C17A 1_555 1_555
H22A C17A 1_555 1_555
H23A C17A 1_555 1_555
C18A C19A 1_555 1_555
C19A H24A 1_555 1_555
C20A C19A 1_555 1_555
H25A C20A 1_555 1_555
C21A C20A 1_555 1_555
C22A C21A 1_555 1_555
C23A C22A 1_555 1_555
H26A C23A 1_555 1_555
H27A C23A 1_555 1_555
H28A C23A 1_555 1_555
C24A C22A 1_555 1_555
H29A C24A 1_555 1_555
H30A C24A 1_555 1_555
H31A C24A 1_555 1_555
C25A C22A 1_555 1_555
H32A C25A 1_555 1_555
H33A C25A 1_555 1_555
H34A C25A 1_555 1_555
C26A C27A 1_555 1_555
C27A H35A 1_555 1_555
C28A C27A 1_555 1_555
H36A C28A 1_555 1_555
C29A C28A 1_555 1_555
C30A C29A 1_555 1_555
C31A C30A 1_555 1_555
H37A C31A 1_555 1_555
H38A C31A 1_555 1_555
H39A C31A 1_555 1_555
C32A C30A 1_555 1_555
H40A C32A 1_555 1_555
H41A C32A 1_555 1_555
H42A C32A 1_555 1_555
C33A C30A 1_555 1_555
H43A C33A 1_555 1_555
H44A C33A 1_555 1_555
H45A C33A 1_555 1_555
C34A C35A 1_555 1_555
C35A H46A 1_555 1_555
C36A C35A 1_555 1_555
H47A C36A 1_555 1_555
C37A C36A 1_555 1_555
C38A C37A 1_555 1_555
C39A C38A 1_555 1_555
H48A C39A 1_555 1_555
H49A C39A 1_555 1_555
H50A C39A 1_555 1_555
C40A C38A 1_555 1_555
H51A C40A 1_555 1_555
H52A C40A 1_555 1_555
H53A C40A 1_555 1_555
C41A C38A 1_555 1_555
H54A C41A 1_555 1_555
H55A C41A 1_555 1_555
H56A C41A 1_555 1_555
C42A C43A 1_555 1_555
C43A H57A 1_555 1_555
C44A C43A 1_555 1_555
H58A C44A 1_555 1_555
C45A C44A 1_555 1_555
C46A C45A 1_555 1_555
C47A C46A 1_555 1_555
H59A C47A 1_555 1_555
H60A C47A 1_555 1_555
H61A C47A 1_555 1_555
C48A C46A 1_555 1_555
H62A C48A 1_555 1_555
H63A C48A 1_555 1_555
H64A C48A 1_555 1_555
C49A C46A 1_555 1_555
H65A C49A 1_555 1_555
H66A C49A 1_555 1_555
H67A C49A 1_555 1_555
N1A C1A 1_555 1_555
N2A C5A 1_555 1_555
N3A C10A 1_555 1_555
N4A C13A 1_555 1_555
N5A C18A 1_555 1_555
N6A C21A 1_555 1_555
N7A C26A 1_555 1_555
N8A C29A 1_555 1_555
N9A C34A 1_555 1_555
N10A C37A 1_555 1_555
N11A C42A 1_555 1_555
N12A C45A 1_555 1_555
S1A C1A 1_555 1_555
S1F K1 1_555 1_555
S1G K1A 1_555 1_555
S2A K2 1_555 1_555
S3A C18A 1_555 1_555
S4A K1 1_555 1_555
S5A K2 1_555 1_555
S6A C42A 1_555 1_555
K1A S4 1_555 1_555
K1F S1 1_555 1_555
K1G S1A 1_555 1_555
B1A N1A 1_555 1_555
B2A N7A 1_555 1_555
H68A K1A 1_555 1_555
H69A B2A 1_555 1_555
N1 N2 1_555 1_555
N3 N4 1_555 1_555
N3 B1 1_555 1_555
N5 N6 1_555 1_555
N5 B1 1_555 1_555
N7 N8 1_555 1_555
N9 N10 1_555 1_555
N9 B2 1_555 1_555
N11 N12 1_555 1_555
N11 B2 1_555 1_555
S2 K1 1_555 1_555
S4 K2 1_555 1_555
S5 K1 1_555 1_555
S5 K2 1_555 1_555
K2 S4A 1_555 1_555
B1 H68 1_555 1_555
C10A S2A 1_555 1_555
C26A S4A 1_555 1_555
C34A S5A 1_555 1_555
N1A N2A 1_555 1_555
N3A N4A 1_555 1_555
N3A B1A 1_555 1_555
N5A N6A 1_555 1_555
N5A B1A 1_555 1_555
N7A N8A 1_555 1_555
N9A N10A 1_555 1_555
N9A B2A 1_555 1_555
N11A N12A 1_555 1_555
N11A B2A 1_555 1_555
S1A K1A 1_555 1_555
S1F K1F 1_555 1_555
S1G K1G 1_555 1_555
S2A K1A 1_555 1_555
S5A K1A 1_555 1_555
B1A H68A 1_555 1_555

#END
