
#######################################################################
#
#                 Cambridge Crystallographic Data Centre
#                                CCDC 
#
#######################################################################
#
# If this CIF has been generated from an entry in the Cambridge 
# Structural Database, then it will include bibliographic, chemical, 
# crystal, experimental, refinement or atomic coordinate data resulting 
# from the CCDC's data processing and validation procedures.
#
#######################################################################

data_IXILOR
_symmetry_cell_setting           triclinic
_symmetry_space_group_name_H-M   'P -1'
_symmetry_Int_Tables_number      2
_space_group_name_Hall           '-P 1'
loop_
_symmetry_equiv_pos_site_id
_symmetry_equiv_pos_as_xyz
1 x,y,z
2 -x,-y,-z
_cell_length_a                   6.4671(3)
_cell_length_b                   11.7923(6)
_cell_length_c                   12.1807(9)
_cell_angle_alpha                112.285(2)
_cell_angle_beta                 90.944(2)
_cell_angle_gamma                105.8300(10)
_cell_volume                     819.407
loop_
_atom_site_label
_atom_site_type_symbol
_atom_site_fract_x
_atom_site_fract_y
_atom_site_fract_z
Co1 Co 1.0000 0.0000 0.5000
Co2 Co 1.5000 0.0000 0.5000
N1 N 1.0029(3) 0.48279(15) 0.30154(14)
N2 N 1.3117(3) 0.11846(15) 0.60972(15)
N3 N 1.3573(3) 0.23062(16) 0.63501(17)
N4 N 1.3987(4) 0.34034(19) 0.6620(3)
N5 N 0.7897(3) 0.06812(16) 0.62637(15)
N6 N 0.8047(3) 0.0559(2) 0.71842(18)
N7 N 0.8228(6) 0.0467(5) 0.8075(3)
O1 O 0.6443(2) 0.14258(13) 0.43920(13)
O2 O 0.9923(2) 0.14226(13) 0.44166(13)
C1 C 0.8370(3) 0.18037(16) 0.42503(16)
C2 C 0.8950(3) 0.28841(17) 0.38082(16)
C3 C 0.7356(3) 0.31667(19) 0.32736(18)
H1 H 0.5904 0.2703 0.3190
C4 C 0.7936(3) 0.4135(2) 0.28693(19)
H2 H 0.6877 0.4313 0.2493
C5 C 1.1593(3) 0.4570(2) 0.35272(19)
H3 H 1.3031 0.5056 0.3613
C6 C 1.1089(3) 0.3592(2) 0.39275(19)
H4 H 1.2182 0.3412 0.4275
C7 C 1.0599(4) 0.5899(2) 0.2593(2)
H5 H 1.2104 0.6403 0.2889
H6 H 0.9709 0.6459 0.2921
C8 C 1.0266(4) 0.5411(2) 0.1245(2)
C9 C 1.1351(5) 0.4608(3) 0.0554(2)
C10 C 0.8919(5) 0.5804(3) 0.0686(2)
H13 H 1.226(6) 0.425(3) 0.091(3)
H14 H 0.815(6) 0.638(3) 0.116(3)
Co1_2 Co 1.0000 1.0000 -0.5000
Co2_2 Co 0.5000 0.0000 0.5000
Co2_3 Co 1.5000 1.0000 -0.5000
N1A N 0.9971(3) 0.51721(15) -0.30154(14)
N2A N 0.6883(3) -0.11846(15) 0.39028(15)
N2A_2 N 1.6883(3) -0.11846(15) 0.39028(15)
N3A N 0.6427(3) -0.23062(16) 0.36499(17)
N4A N 0.6013(4) -0.34034(19) 0.3380(3)
N5A N 1.2103(3) -0.06812(16) 0.37363(15)
N5_2 N 1.7897(3) 0.06812(16) 0.62637(15)
N6A N 1.1953(3) -0.0559(2) 0.28158(18)
N7A N 1.1772(6) -0.0467(5) 0.1925(3)
O1A O 1.3557(2) 0.85742(13) -0.43920(13)
O1_2 O 1.6443(2) 0.14258(13) 0.43920(13)
O1A_2 O 1.3557(2) -0.14258(13) 0.56080(13)
O2A O 1.0077(2) 0.85774(13) -0.44166(13)
O2A_2 O 1.0077(2) -0.14226(13) 0.55834(13)
C1A C 1.1630(3) 0.81963(16) -0.42503(16)
C2A C 1.1050(3) 0.71159(17) -0.38082(16)
C3A C 1.2644(3) 0.68333(19) -0.32736(18)
H1A H 1.4096 0.7297 -0.3190
C4A C 1.2064(3) 0.5865(2) -0.28693(19)
H2A H 1.3123 0.5687 -0.2493
C5A C 0.8407(3) 0.5430(2) -0.35272(19)
H3A H 0.6969 0.4944 -0.3613
C6A C 0.8911(3) 0.6408(2) -0.39275(19)
H4A H 0.7818 0.6588 -0.4275
C7A C 0.9401(4) 0.4101(2) -0.2593(2)
H5A H 0.7896 0.3597 -0.2889
H6A H 1.0291 0.3541 -0.2921
C8A C 0.9734(4) 0.4589(2) -0.1245(2)
C9A C 0.8649(5) 0.5392(3) -0.0554(2)
C10A C 1.1081(5) 0.4196(3) -0.0686(2)
H13A H 0.774(6) 0.575(3) -0.091(3)
H14A H 1.185(6) 0.362(3) -0.116(3)
N8 N 0.3630(4) 0.1408(2) -0.0281(2)
O3 O 0.3404(4) 0.2874(2) 0.15153(18)
C11 C 0.5043(8) 0.2336(4) -0.0642(4)
H7 H 0.5344 0.3177 -0.0013
H8 H 0.4356 0.2321 -0.1354
H9 H 0.6376 0.2132 -0.0799
C12 C 0.2988(7) 0.0066(4) -0.1112(4)
H10 H 0.2045 -0.0448 -0.0763
H11 H 0.4254 -0.0213 -0.1278
H12 H 0.2239 -0.0028 -0.1843
C13 C 0.2946(5) 0.1780(3) 0.0768(3)
H15 H 0.187(6) 0.112(4) 0.095(3)
loop_
_geom_bond_atom_site_label_1
_geom_bond_atom_site_label_2
_geom_bond_site_symmetry_1
_geom_bond_site_symmetry_2
Co1 N2 1_555 1_555
Co2 N2 1_555 1_555
N1 C4 1_555 1_555
N2 N3 1_555 1_555
N3 N4 1_555 1_555
N5 Co1 1_555 1_555
N6 N5 1_555 1_555
N7 N6 1_555 1_555
N8 C11 1_555 1_555
O1 C1 1_555 1_555
O2 Co1 1_555 1_555
O3 C13 1_555 1_555
C1 O2 1_555 1_555
C2 C1 1_555 1_555
C3 C2 1_555 1_555
H1 C3 1_555 1_555
C4 C3 1_555 1_555
H2 C4 1_555 1_555
C5 N1 1_555 1_555
H3 C5 1_555 1_555
C6 C2 1_555 1_555
H4 C6 1_555 1_555
C7 N1 1_555 1_555
H5 C7 1_555 1_555
H6 C7 1_555 1_555
C8 C7 1_555 1_555
C9 C8 1_555 1_555
C10 C8 1_555 1_555
C11 H7 1_555 1_555
H8 C11 1_555 1_555
H9 C11 1_555 1_555
C12 N8 1_555 1_555
H10 C12 1_555 1_555
H11 C12 1_555 1_555
H12 C12 1_555 1_555
C13 N8 1_555 1_555
H13 C9 1_555 1_555
H14 C10 1_555 1_555
H15 C13 1_555 1_555
Co1_2 O2A 1_555 1_555
Co2_2 N5 1_555 1_555
Co2_3 O1A 1_555 1_555
N1A C4A 1_555 1_555
N2A Co1 1_555 1_555
N2A_2 Co2 1_555 1_555
N3A N2A 1_555 1_555
N4A N3A 1_555 1_555
N5A Co1 1_555 1_555
N5_2 Co2 1_555 1_555
N6A N5A 1_555 1_555
N7A N6A 1_555 1_555
O1A C1A 1_555 1_555
O1_2 Co2 1_555 1_555
O1A_2 Co2 1_555 1_555
O2A C1A 1_555 1_555
O2A_2 Co1 1_555 1_555
C1A C2A 1_555 1_555
C2A C3A 1_555 1_555
C3A H1A 1_555 1_555
C4A C3A 1_555 1_555
H2A C4A 1_555 1_555
C5A N1A 1_555 1_555
H3A C5A 1_555 1_555
C6A C2A 1_555 1_555
H4A C6A 1_555 1_555
C7A N1A 1_555 1_555
H5A C7A 1_555 1_555
H6A C7A 1_555 1_555
C8A C7A 1_555 1_555
C9A C10 1_555 1_555
C10A C9 1_555 1_555
H13A C9A 1_555 1_555
H14A C10A 1_555 1_555
Co2 N5A 1_555 1_555
O1 Co2_2 1_555 1_555
C5 C6 1_555 1_555
Co2_2 N2A 1_555 1_555
C5A C6A 1_555 1_555
C8A C9A 1_555 1_555
C8A C10A 1_555 1_555

#END
