
#######################################################################
#
#                 Cambridge Crystallographic Data Centre
#                                CCDC 
#
#######################################################################
#
# If this CIF has been generated from an entry in the Cambridge 
# Structural Database, then it will include bibliographic, chemical, 
# crystal, experimental, refinement or atomic coordinate data resulting 
# from the CCDC's data processing and validation procedures.
#
#######################################################################

data_IXIMUX
_symmetry_cell_setting           triclinic
_symmetry_space_group_name_H-M   'P -1'
_symmetry_Int_Tables_number      2
_space_group_name_Hall           '-P 1'
loop_
_symmetry_equiv_pos_site_id
_symmetry_equiv_pos_as_xyz
1 x,y,z
2 -x,-y,-z
_cell_length_a                   13.396(17)
_cell_length_b                   9.647(10)
_cell_length_c                   6.659(6)
_cell_angle_alpha                101.79(9)
_cell_angle_beta                 107.89(10)
_cell_angle_gamma                106.91(18)
_cell_volume                     741.656
loop_
_atom_site_label
_atom_site_type_symbol
_atom_site_fract_x
_atom_site_fract_y
_atom_site_fract_z
Na1 Na 0.09710(14) -0.03090(19) -0.0950(3)
P1 P 0.17415(8) 0.11328(11) 0.46383(16)
P2 P 0.11637(8) -0.21741(11) 0.43403(17)
O1 O 0.0959(3) 0.1019(3) 0.2431(5)
O2 O 0.1348(2) 0.1158(3) 0.6516(5)
H1 H 0.0965 0.1686 0.6492
O3 O 0.2857(3) 0.2622(3) 0.5508(5)
O4 O -0.0011(2) -0.2367(3) 0.2677(5)
O5 O 0.1229(2) -0.2159(3) 0.6598(5)
O6 O 0.1430(3) -0.3520(3) 0.3112(5)
O7 O 0.2227(2) -0.0793(3) 0.2078(4)
H2 H 0.2648 -0.1244 0.1948
C1 C 0.2254(3) -0.0497(4) 0.4305(6)
C2 C 0.3479(3) -0.0032(5) 0.6028(7)
H3 H 0.3957 0.0804 0.5705
C3 C 0.3930(4) -0.1305(6) 0.5694(9)
H4 H 0.3806 -0.1685 0.4153
H5 H 0.3541 -0.2121 0.6127
H6 H 0.4728 -0.0909 0.6594
C4 C 0.0754(5) -0.5094(5) 0.2755(10)
H7 H 0.1028 -0.5766 0.2005
H8 H -0.0024 -0.5324 0.1858
H9 H 0.0812 -0.5235 0.4167
C5 C 0.3663(4) 0.0605(6) 0.8425(8)
H10 H 0.3381 0.1411 0.8589
H11 H 0.4459 0.1002 0.9338
H12 H 0.3267 -0.0193 0.8879
C6 C 0.3295(5) 0.3213(7) 0.4021(11)
H13 H 0.3976 0.4107 0.4865
H14 H 0.2742 0.3479 0.3041
H15 H 0.3460 0.2450 0.3158
Na1A Na -0.09710(14) 0.03090(19) 0.0950(3)
O1A O -0.0959(3) -0.1019(3) -0.2431(5)
O2_2 O 0.1348(2) 0.1158(3) -0.3484(5)
O5_2 O 0.1229(2) -0.2159(3) -0.3402(5)
Na1_2 Na 0.09710(14) -0.03090(19) 0.9050(3)
H1_2 H 0.0965 0.1686 -0.3508
O8 O 0.2750(4) -0.2879(4) -0.0364(6)
H16 H 0.2236 -0.2845 -0.1385
C7 C 0.2749(6) -0.4376(7) -0.0839(14)
H17 H 0.2596 -0.4773 -0.2410
H18 H 0.2140 -0.5029 -0.0557
C8 C 0.3807(6) -0.4452(7) 0.0465(13)
H19 H 0.3754 -0.5492 0.0064
H20 H 0.3954 -0.4088 0.2022
H21 H 0.4413 -0.3825 0.0173
loop_
_geom_bond_atom_site_label_1
_geom_bond_atom_site_label_2
_geom_bond_site_symmetry_1
_geom_bond_site_symmetry_2
Na1 O1 1_555 1_555
P1 O1 1_555 1_555
P2 O4 1_555 1_555
O1 Na1A 1_555 1_555
O2 P1 1_555 1_555
H1 O2 1_555 1_555
O3 P1 1_555 1_555
O5 P2 1_555 1_555
O6 P2 1_555 1_555
O7 Na1 1_555 1_555
H2 O7 1_555 1_555
C1 P1 1_555 1_555
C2 C1 1_555 1_555
H3 C2 1_555 1_555
C3 C2 1_555 1_555
H4 C3 1_555 1_555
H5 C3 1_555 1_555
H6 C3 1_555 1_555
C4 O6 1_555 1_555
H7 C4 1_555 1_555
H8 C4 1_555 1_555
H9 C4 1_555 1_555
C5 C2 1_555 1_555
H10 C5 1_555 1_555
H11 C5 1_555 1_555
H12 C5 1_555 1_555
C6 O3 1_555 1_555
H13 C6 1_555 1_555
H14 C6 1_555 1_555
H15 C6 1_555 1_555
O8 H16 1_555 1_555
C7 O8 1_555 1_555
H17 C7 1_555 1_555
H18 C7 1_555 1_555
C8 C7 1_555 1_555
H19 C8 1_555 1_555
H20 C8 1_555 1_555
H21 C8 1_555 1_555
Na1A O1A 1_555 1_555
O1A Na1 1_555 1_555
O2_2 Na1 1_555 1_555
O5_2 Na1 1_555 1_555
Na1_2 O2 1_555 1_555
H1_2 O2_2 1_555 1_555
P2 C1 1_555 1_555
O5 Na1_2 1_555 1_555
O7 C1 1_555 1_555

#END
