
#######################################################################
#
#                 Cambridge Crystallographic Data Centre
#                                CCDC 
#
#######################################################################
#
# If this CIF has been generated from an entry in the Cambridge 
# Structural Database, then it will include bibliographic, chemical, 
# crystal, experimental, refinement or atomic coordinate data resulting 
# from the CCDC's data processing and validation procedures.
#
#######################################################################

data_IXIQIQ
_symmetry_cell_setting           triclinic
_symmetry_space_group_name_H-M   'P -1'
_symmetry_Int_Tables_number      2
_space_group_name_Hall           '-P 1'
loop_
_symmetry_equiv_pos_site_id
_symmetry_equiv_pos_as_xyz
1 x,y,z
2 -x,-y,-z
_cell_length_a                   7.3934(3)
_cell_length_b                   13.3296(5)
_cell_length_c                   15.4432(5)
_cell_angle_alpha                111.865(2)
_cell_angle_beta                 90.637(2)
_cell_angle_gamma                104.867(2)
_cell_volume                     1355.49
loop_
_atom_site_label
_atom_site_type_symbol
_atom_site_fract_x
_atom_site_fract_y
_atom_site_fract_z
U1 U 0.896078(19) 0.824832(10) 0.449627(9)
U2 U 0.79528(2) 0.638637(11) 0.127465(9)
U3 U 0.972176(19) 0.952377(11) 0.256739(9)
U4 U 0.383470(18) 0.128910(11) -0.064710(9)
O1 O 0.7959(4) 0.7901(2) 0.28979(18)
O2 O 0.9245(4) 1.0073(2) 0.42126(18)
O3 O 0.8269(4) 0.8100(2) 0.12527(19)
O4 O 0.5945(4) 0.1547(2) 0.0614(2)
O5 O 0.5139(4) 0.0364(2) 0.1336(2)
O6 O 0.6580(5) 0.7125(3) 0.9416(2)
O7 O 0.8433(5) 0.6146(3) 0.9651(2)
O8 O 0.6810(5) 0.8476(3) 0.4901(2)
O9 O 0.5780(4) 0.2046(3) -0.1032(2)
O10 O 0.7663(4) 0.9936(3) 0.2330(2)
O11 O 0.7332(6) 0.6311(3) 0.3860(2)
O12 O 0.1972(4) 0.0465(3) -0.0268(2)
O13 O 0.8681(5) 0.8581(3) 0.6874(2)
O14 O 1.1783(4) 0.9202(3) 0.2836(2)
O15 O 0.5486(5) 0.6021(3) 0.1001(2)
O16 O 1.0410(5) 0.6688(3) 0.1532(2)
O17 O 0.7475(8) 0.5547(3) 0.2341(3)
O18 O 1.1126(5) 0.8016(3) 0.4111(2)
O19 O 0.8018(5) 0.4410(3) 0.0381(2)
O20 O 0.9457(5) 0.7423(3) 0.5586(2)
O21 O 1.1393(5) 0.9845(4) 0.1305(3)
C1 C 0.5707(5) 0.1359(3) 0.1350(3)
C2 C 0.7165(6) 0.5481(3) 0.3109(3)
C3 C 0.8996(6) 0.7652(3) 0.6402(3)
C4 C 0.7698(6) 0.6532(3) 0.9139(3)
C5 C 0.6626(6) 0.4324(3) 0.3117(3)
C6 C 0.6013(6) 0.2326(3) 0.2268(3)
C7 C 0.8743(6) 0.6789(3) 0.6822(3)
C8 C 0.8134(6) 0.6255(3) 0.8144(3)
C9 C 0.6473(6) 0.3409(3) 0.2277(3)
H1 H 0.6679 0.3521 0.1723
C10 C 0.8356(6) 0.7056(3) 0.7754(3)
H2 H 0.8248 0.7770 0.8111
C11 C 0.6305(7) 0.4155(4) 0.3944(3)
H3 H 0.6373 0.4768 0.4501
C12 C 0.8863(7) 0.5717(4) 0.6285(3)
H4 H 0.9130 0.5540 0.5667
C13 C 0.5750(7) 0.2157(4) 0.3108(3)
H5 H 0.5490 0.1436 0.3107
C14 C 0.8236(7) 0.5174(4) 0.7599(3)
H6 H 0.8072 0.4631 0.7856
C15 C 0.8583(8) 0.4911(4) 0.6669(3)
H7 H 0.8629 0.4187 0.6302
C16 C 0.5886(7) 0.3082(4) 0.3943(3)
H8 H 0.5694 0.2977 0.4501
U1A U 1.103922(19) 1.175168(10) 0.550373(9)
U2_2 U 0.79528(2) 0.638637(11) 1.127465(9)
U3A U 1.027824(19) 1.047623(11) 0.743261(9)
U4A U 0.616530(18) 0.871090(11) 0.064710(9)
U4A_2 U 0.616530(18) -0.128910(11) 0.064710(9)
U4A_3 U 0.616530(18) 0.871090(11) 1.064710(9)
O2A O 1.0755(4) 0.9927(2) 0.57874(18)
O3A O 0.1731(4) 0.1900(2) -0.12527(19)
O5A O 0.4861(4) -0.0364(2) -0.1336(2)
O6A O 0.3420(5) 0.2875(3) 0.0584(2)
O7_2 O 0.8433(5) 0.6146(3) -0.0349(2)
O10A O 0.2337(4) 0.0064(3) -0.2330(2)
O13A O 1.1319(5) 1.1419(3) 0.3126(2)
O22 O 0.4216(6) 0.7733(4) 0.2870(3)
O23 O 0.5680(6) 0.0169(4) 0.4137(3)
loop_
_geom_bond_atom_site_label_1
_geom_bond_atom_site_label_2
_geom_bond_site_symmetry_1
_geom_bond_site_symmetry_2
U1 O1 1_555 1_555
U2 O1 1_555 1_555
U3 O1 1_555 1_555
U4 O4 1_555 1_555
O2 U1 1_555 1_555
O3 U2 1_555 1_555
O4 C1 1_555 1_555
O5 C1 1_555 1_555
O6 C4 1_555 1_555
O7 C4 1_555 1_555
O8 U1 1_555 1_555
O9 U4 1_555 1_555
O10 U3 1_555 1_555
O11 U1 1_555 1_555
O12 U4 1_555 1_555
O13 C3 1_555 1_555
O14 U3 1_555 1_555
O15 U2 1_555 1_555
O16 U2 1_555 1_555
O17 U2 1_555 1_555
O18 U1 1_555 1_555
O19 U2 1_555 1_555
O20 U1 1_555 1_555
O21 U3 1_555 1_555
C1 C6 1_555 1_555
C2 O11 1_555 1_555
C3 O20 1_555 1_555
C4 C8 1_555 1_555
C5 C2 1_555 1_555
C6 C9 1_555 1_555
C7 C3 1_555 1_555
C8 C10 1_555 1_555
C9 C5 1_555 1_555
H1 C9 1_555 1_555
C10 C7 1_555 1_555
H2 C10 1_555 1_555
C11 C5 1_555 1_555
H3 C11 1_555 1_555
C12 C7 1_555 1_555
H4 C12 1_555 1_555
C13 C6 1_555 1_555
H5 C13 1_555 1_555
C14 C8 1_555 1_555
H6 C14 1_555 1_555
C15 C12 1_555 1_555
H7 C15 1_555 1_555
C16 C11 1_555 1_555
H8 C16 1_555 1_555
U1A O2 1_555 1_555
U2_2 O7 1_555 1_555
U3A O13 1_555 1_555
U4A O3 1_555 1_555
U4A_2 O5 1_555 1_555
U4A_3 O6 1_555 1_555
O2A U1 1_555 1_555
O3A U4 1_555 1_555
O5A U4 1_555 1_555
O6A U4 1_555 1_555
O7_2 U2 1_555 1_555
O10A U4 1_555 1_555
O13A U3 1_555 1_555
U3 O2 1_555 1_555
U3 O3 1_555 1_555
O10 U4A 1_555 1_555
O17 C2 1_555 1_555
C13 C16 1_555 1_555
C14 C15 1_555 1_555
U1A O2A 1_555 1_555
U3A O2A 1_555 1_555

#END
