
#######################################################################
#
#                 Cambridge Crystallographic Data Centre
#                                CCDC 
#
#######################################################################
#
# If this CIF has been generated from an entry in the Cambridge 
# Structural Database, then it will include bibliographic, chemical, 
# crystal, experimental, refinement or atomic coordinate data resulting 
# from the CCDC's data processing and validation procedures.
#
#######################################################################

data_IXIQIP01
_symmetry_cell_setting           orthorhombic
_symmetry_space_group_name_H-M   'P 21 21 21'
_symmetry_Int_Tables_number      19
_space_group_name_Hall           'P 2ac 2ab'
loop_
_symmetry_equiv_pos_site_id
_symmetry_equiv_pos_as_xyz
1 x,y,z
2 1/2-x,-y,1/2+z
3 1/2+x,1/2-y,-z
4 -x,1/2+y,1/2-z
_cell_length_a                   18.0875(8)
_cell_length_b                   18.3897(8)
_cell_length_c                   19.7700(8)
_cell_angle_alpha                90
_cell_angle_beta                 90
_cell_angle_gamma                90
_cell_volume                     6575.97
loop_
_atom_site_label
_atom_site_type_symbol
_atom_site_fract_x
_atom_site_fract_y
_atom_site_fract_z
I1 I 0.54484(5) 0.75110(4) -0.01281(4)
I2 I -0.02581(5) 0.95197(5) 0.38555(4)
I3 I 0.52048(5) 0.55344(4) -0.13849(4)
I4 I -0.04221(5) 0.76574(5) 0.52495(4)
Zn1 Zn 0.02877(7) 0.83707(7) 0.43442(6)
Zn2 Zn 0.46704(7) 0.66898(7) -0.08930(6)
N1 N 0.3750(5) 0.6441(5) -0.0329(5)
N2 N 0.0593(5) 0.7699(5) 0.3565(4)
N3 N 0.4231(5) 0.7283(6) 0.8331(5)
N4 N 0.1273(5) 0.8619(5) 0.4790(5)
C1 C 0.0958(6) 0.6782(6) 0.2491(7)
C2 C 0.3838(7) 0.6155(6) 0.0294(7)
H1 H 0.4312 0.6078 0.0461
C3 C 0.0800(6) 0.7969(6) 0.2978(7)
H2 H 0.0821 0.8472 0.2932
C4 C 0.0987(6) 0.7549(6) 0.2431(6)
H3 H 0.1130 0.7764 0.2026
C5 C 0.2435(7) 0.6378(6) -0.0184(7)
H4 H 0.1965 0.6462 -0.0357
C6 C 0.3249(8) 0.5978(6) 0.0680(6)
H5 H 0.3329 0.5780 0.1106
C7 C 0.2593(8) 0.9038(7) 0.5387(7)
C8 C 0.0733(6) 0.6523(7) 0.3114(7)
H6 H 0.0699 0.6025 0.3187
C9 C 0.3287(7) 0.9291(7) 0.5722(7)
H7 H 0.3180 0.9730 0.5975
H8 H 0.3645 0.9415 0.5374
C10 C 0.1889(7) 0.5919(6) 0.0891(6)
H9 H 0.1936 0.5431 0.1071
H10 H 0.1447 0.5935 0.0615
C11 C 0.1270(7) 0.9079(7) 0.5306(7)
H11 H 0.0819 0.9245 0.5472
C12 C 0.3650(7) 0.7343(8) 0.7223(6)
H12 H 0.3519 0.7097 0.6830
C13 C 0.1903(9) 0.9318(6) 0.5602(6)
H13 H 0.1882 0.9664 0.5945
C14 C 0.1938(8) 0.8378(7) 0.4581(6)
H14 H 0.1946 0.8058 0.4216
C15 C 0.2540(8) 0.6082(6) 0.0463(7)
C16 C 0.3636(7) 0.8731(7) 0.6202(6)
H15 H 0.3785 0.8307 0.5945
H16 H 0.4077 0.8940 0.6404
C17 C 0.4001(7) 0.6965(7) 0.7773(8)
H17 H 0.4069 0.6466 0.7731
C18 C 0.3058(8) 0.6539(6) -0.0546(6)
H18 H 0.2995 0.6731 -0.0978
C19 C 0.3788(8) 0.8395(7) 0.7855(8)
H19 H 0.3745 0.8896 0.7901
C20 C 0.4137(7) 0.7991(8) 0.8373(7)
H20 H 0.4306 0.8233 0.8756
C21 C 0.3136(7) 0.8510(7) 0.6734(6)
H21 H 0.2741 0.8222 0.6538
H22 H 0.2915 0.8940 0.6934
C22 C 0.1808(6) 0.6461(6) 0.1482(6)
H23 H 0.2236 0.6427 0.1776
H24 H 0.1785 0.6953 0.1306
C23 C 0.0559(7) 0.6993(7) 0.3625(6)
H25 H 0.0409 0.6800 0.4038
C24 C 0.1123(6) 0.6304(6) 0.1881(6)
H26 H 0.1151 0.5805 0.2036
H27 H 0.0704 0.6336 0.1575
C25 C 0.3513(7) 0.8068(8) 0.7288(7)
C26 C 0.2587(8) 0.8561(8) 0.4856(7)
H28 H 0.3026 0.8369 0.4689
Zn2_2 Zn 0.46704(7) 0.66898(7) 0.91070(6)
N3_2 N 0.4231(5) 0.7283(6) -0.1669(5)
I5 I 0.44843(5) 0.46671(5) 1.37972(5)
I6 I 0.24863(5) 0.45615(5) 1.25309(4)
I7 I 0.05762(5) 1.02127(5) 0.88958(5)
I8 I 0.27252(5) 1.04619(5) 0.78541(4)
Zn3 Zn 0.18334(7) 0.97158(7) 0.85712(6)
Zn4 Zn 0.32928(7) 0.52413(7) 1.33866(6)
N5 N 0.2386(6) 0.9305(5) 0.9384(5)
N6 N 0.3556(6) 0.6231(5) 1.2954(5)
N7 N 0.2654(6) 0.5525(5) 0.4193(4)
N8 N 0.1570(5) 0.8792(5) 0.8021(5)
C27 C 0.1477(6) 0.5638(6) 0.4726(7)
H29 H 0.0971 0.5551 0.4709
C28 C 0.3993(8) 0.7551(9) 1.2354(8)
C29 C 0.1291(6) 0.6145(6) 0.5889(5)
H30 H 0.0788 0.6190 0.5723
H31 H 0.1299 0.5740 0.6203
C30 C 0.1198(6) 0.8869(7) 0.7456(6)
H32 H 0.1080 0.9337 0.7315
C31 C 0.3159(9) 0.8544(7) 1.0417(7)
C32 C 0.1136(6) 0.7585(7) 0.7265(6)
C33 C 0.2961(6) 0.5801(6) 0.4742(7)
H33 H 0.3472 0.5846 0.4765
C34 C 0.1474(6) 0.6824(5) 0.6277(5)
H34 H 0.1459 0.7241 0.5977
H35 H 0.1969 0.6786 0.6462
C35 C 0.0974(6) 0.8299(7) 0.7062(6)
H36 H 0.0716 0.8383 0.6662
C36 C 0.4066(7) 0.6255(7) 1.2469(7)
H37 H 0.4288 0.5825 1.2328
C37 C 0.1787(7) 0.5955(6) 0.5291(6)
C38 C 0.2387(9) 0.8569(7) 1.0398(7)
H38 H 0.2108 0.8334 1.0727
C39 C 0.3256(7) 0.6880(8) 1.3113(6)
H39 H 0.2887 0.6885 1.3440
C40 C 0.1503(7) 0.7518(6) 0.7859(7)
H40 H 0.1606 0.7057 0.8029
C41 C 0.3683(7) 0.8594(7) 1.1569(7)
H41 H 0.3211 0.8668 1.1793
H42 H 0.3864 0.9066 1.1426
C42 C 0.3517(7) 0.8937(7) 0.9935(8)
H43 H 0.4030 0.8960 0.9940
C43 C 0.3451(10) 0.7530(7) 1.2833(8)
H44 H 0.3217 0.7956 1.2968
C44 C 0.2529(8) 0.6026(6) 0.5289(6)
H45 H 0.2760 0.6231 0.5664
C45 C 0.0917(6) 0.6929(6) 0.6853(6)
H46 H 0.0425 0.6999 0.6668
H47 H 0.0909 0.6501 0.7139
C46 C 0.4229(8) 0.8265(7) 1.2074(7)
H48 H 0.4703 0.8205 1.1852
H49 H 0.4297 0.8604 1.2445
C47 C 0.2039(7) 0.8954(7) 0.9871(8)
H50 H 0.1525 0.8961 0.9866
C48 C 0.1724(7) 0.8121(7) 0.8213(6)
H51 H 0.1997 0.8055 0.8607
C49 C 0.1919(7) 0.5453(6) 0.4188(6)
H52 H 0.1695 0.5269 0.3801
C50 C 0.4273(7) 0.6903(9) 1.2166(7)
H53 H 0.4621 0.6890 1.1820
C51 C 0.3129(9) 0.9303(6) 0.9436(6)
H54 H 0.3398 0.9564 0.9117
C52 C 0.3572(8) 0.8148(7) 1.0984(7)
H55 H 0.3293 0.7719 1.1113
H56 H 0.4049 0.7988 1.0816
Zn4_2 Zn 0.32928(7) 0.52413(7) 0.33866(6)
N7_2 N 0.2654(6) 0.5525(5) 1.4193(4)
loop_
_geom_bond_atom_site_label_1
_geom_bond_atom_site_label_2
_geom_bond_site_symmetry_1
_geom_bond_site_symmetry_2
I1 Zn2 1_555 1_555
I2 Zn1 1_555 1_555
I3 Zn2 1_555 1_555
I4 Zn1 1_555 1_555
Zn1 N2 1_555 1_555
Zn2 N1 1_555 1_555
N1 C2 1_555 1_555
N2 C3 1_555 1_555
N3 C17 1_555 1_555
N4 Zn1 1_555 1_555
C1 C4 1_555 1_555
C2 H1 1_555 1_555
C3 H2 1_555 1_555
C4 C3 1_555 1_555
H3 C4 1_555 1_555
C5 H4 1_555 1_555
C6 C2 1_555 1_555
H5 C6 1_555 1_555
C7 C9 1_555 1_555
C8 C1 1_555 1_555
H6 C8 1_555 1_555
C9 H7 1_555 1_555
H8 C9 1_555 1_555
C10 H9 1_555 1_555
H10 C10 1_555 1_555
C11 N4 1_555 1_555
H11 C11 1_555 1_555
C12 H12 1_555 1_555
C13 C7 1_555 1_555
H13 C13 1_555 1_555
C14 N4 1_555 1_555
H14 C14 1_555 1_555
C15 C5 1_555 1_555
C16 C9 1_555 1_555
H15 C16 1_555 1_555
H16 C16 1_555 1_555
C17 C12 1_555 1_555
H17 C17 1_555 1_555
C18 N1 1_555 1_555
H18 C18 1_555 1_555
C19 H19 1_555 1_555
C20 N3 1_555 1_555
H20 C20 1_555 1_555
C21 C16 1_555 1_555
H21 C21 1_555 1_555
H22 C21 1_555 1_555
C22 C10 1_555 1_555
H23 C22 1_555 1_555
H24 C22 1_555 1_555
C23 N2 1_555 1_555
H25 C23 1_555 1_555
C24 C1 1_555 1_555
H26 C24 1_555 1_555
H27 C24 1_555 1_555
C25 C12 1_555 1_555
C26 C7 1_555 1_555
H28 C26 1_555 1_555
I5 Zn4 1_555 1_555
I6 Zn4 1_555 1_555
I7 Zn3 1_555 1_555
I8 Zn3 1_555 1_555
Zn3 N5 1_555 1_555
Zn4 N6 1_555 1_555
N5 C47 1_555 1_555
N6 C36 1_555 1_555
N7 C33 1_555 1_555
N8 Zn3 1_555 1_555
C27 H29 1_555 1_555
C28 C43 1_555 1_555
C29 H30 1_555 1_555
H31 C29 1_555 1_555
C30 N8 1_555 1_555
H32 C30 1_555 1_555
C31 C38 1_555 1_555
C32 C35 1_555 1_555
C33 H33 1_555 1_555
C34 C29 1_555 1_555
H34 C34 1_555 1_555
H35 C34 1_555 1_555
C35 C30 1_555 1_555
H36 C35 1_555 1_555
C36 H37 1_555 1_555
C37 C27 1_555 1_555
C38 H38 1_555 1_555
C39 N6 1_555 1_555
H39 C39 1_555 1_555
C40 C32 1_555 1_555
H40 C40 1_555 1_555
C41 H41 1_555 1_555
H42 C41 1_555 1_555
C42 C31 1_555 1_555
H43 C42 1_555 1_555
C43 C39 1_555 1_555
H44 C43 1_555 1_555
C44 C33 1_555 1_555
H45 C44 1_555 1_555
C45 C32 1_555 1_555
H46 C45 1_555 1_555
H47 C45 1_555 1_555
C46 C28 1_555 1_555
H48 C46 1_555 1_555
H49 C46 1_555 1_555
C47 C38 1_555 1_555
H50 C47 1_555 1_555
C48 N8 1_555 1_555
H51 C48 1_555 1_555
C49 N7 1_555 1_555
H52 C49 1_555 1_555
C50 C28 1_555 1_555
H53 C50 1_555 1_555
C51 N5 1_555 1_555
H54 C51 1_555 1_555
C52 C31 1_555 1_555
H55 C52 1_555 1_555
H56 C52 1_555 1_555
Zn2_2 N3 1_555 1_555
N3_2 Zn2 1_555 1_555
Zn4_2 N7 1_555 1_555
N7_2 Zn4 1_555 1_555
C5 C18 1_555 1_555
C6 C15 1_555 1_555
C8 C23 1_555 1_555
C10 C15 1_555 1_555
C11 C13 1_555 1_555
C14 C26 1_555 1_555
C19 C20 1_555 1_555
C19 C25 1_555 1_555
C21 C25 1_555 1_555
C22 C24 1_555 1_555
C27 C49 1_555 1_555
C29 C37 1_555 1_555
C34 C45 1_555 1_555
C36 C50 1_555 1_555
C37 C44 1_555 1_555
C40 C48 1_555 1_555
C41 C46 1_555 1_555
C41 C52 1_555 1_555
C42 C51 1_555 1_555

#END
