
#######################################################################
#
#                 Cambridge Crystallographic Data Centre
#                                CCDC 
#
#######################################################################
#
# If this CIF has been generated from an entry in the Cambridge 
# Structural Database, then it will include bibliographic, chemical, 
# crystal, experimental, refinement or atomic coordinate data resulting 
# from the CCDC's data processing and validation procedures.
#
#######################################################################

data_IXIQAH
_symmetry_cell_setting           monoclinic
_symmetry_space_group_name_H-M   'P 21'
_symmetry_Int_Tables_number      4
_space_group_name_Hall           'P 2yb'
loop_
_symmetry_equiv_pos_site_id
_symmetry_equiv_pos_as_xyz
1 x,y,z
2 -x,1/2+y,-z
_cell_length_a                   5.1809(10)
_cell_length_b                   13.432(3)
_cell_length_c                   11.931(2)
_cell_angle_alpha                90
_cell_angle_beta                 90.16(3)
_cell_angle_gamma                90
_cell_volume                     830.273
loop_
_atom_site_label
_atom_site_type_symbol
_atom_site_fract_x
_atom_site_fract_y
_atom_site_fract_z
Cd1 Cd 0.0509(3) -0.2505(2) 0.22322(9)
I1 I -0.0739(3) -0.2523(2) 0.00133(9)
I2 I -0.2435(2) -0.2476(2) 0.41351(9)
C1 C 0.2507(58) -0.0481(18) 0.3238(19)
H1 H 0.1077(58) -0.0627(18) 0.3678(19)
C2 C 0.4088(42) 0.0277(15) 0.3649(19)
H2 H 0.4068(42) 0.0508(15) 0.4384(19)
C3 C 0.5793(72) 0.0662(19) 0.2763(33)
C4 C 0.5853(41) 0.0105(14) 0.1696(15)
H3 H 0.6660(41) 0.0388(14) 0.1078(15)
C5 C 0.5050(72) -0.0566(40) 0.1623(29)
H4 H 0.5745(72) -0.0978(40) 0.1074(29)
C6 C 0.7471(48) 0.1574(16) 0.2907(17)
C7 C 0.5997(42) 0.2596(22) 0.2762(13)
H5 H 0.5302(42) 0.2628(22) 0.2007(13)
H6 H 0.4549(42) 0.2607(22) 0.3276(13)
C8 C 0.7541(69) 0.3470(26) 0.2955(32)
H7 H 0.8138(69) 0.3480(26) 0.3727(32)
H8 H 0.9039(69) 0.3461(26) 0.2470(32)
C9 C 0.2683(47) 0.5520(18) 0.3474(22)
H9 H 0.1615(47) 0.5660(18) 0.4079(22)
C10 C 0.4397(93) 0.4622(20) 0.3395(23)
H10 H 0.4170(93) 0.4181(20) 0.3988(23)
C11 C 0.6015(39) 0.4341(16) 0.2730(15)
C12 C 0.670(13) 0.4905(41) 0.1743(82)
H11 H 0.812(13) 0.4825(41) 0.1275(82)
C13 C 0.4289(37) 0.5742(13) 0.1654(19)
H12 H 0.3866(37) 0.5976(13) 0.0944(19)
N1 N 0.2733(46) -0.1020(14) 0.2324(17)
N2 N 0.2897(45) 0.6108(17) 0.2538(19)
N2_2 N 0.2897(45) -0.3892(17) 0.2538(19)
Cd1_2 Cd 0.0509(3) 0.7495(2) 0.22322(9)
loop_
_geom_bond_atom_site_label_1
_geom_bond_atom_site_label_2
_geom_bond_site_symmetry_1
_geom_bond_site_symmetry_2
Cd1 I1 1_555 1_555
I2 Cd1 1_555 1_555
C1 H1 1_555 1_555
C2 C1 1_555 1_555
H2 C2 1_555 1_555
C3 C2 1_555 1_555
C4 C3 1_555 1_555
H3 C4 1_555 1_555
C5 C4 1_555 1_555
H4 C5 1_555 1_555
C6 C3 1_555 1_555
C7 C6 1_555 1_555
H5 C7 1_555 1_555
H6 C7 1_555 1_555
C8 C7 1_555 1_555
H7 C8 1_555 1_555
H8 C8 1_555 1_555
C9 H9 1_555 1_555
C10 C9 1_555 1_555
H10 C10 1_555 1_555
C11 C8 1_555 1_555
C12 C11 1_555 1_555
H11 C12 1_555 1_555
C13 C12 1_555 1_555
H12 C13 1_555 1_555
N1 Cd1 1_555 1_555
N2 C9 1_555 1_555
N2_2 Cd1 1_555 1_555
Cd1_2 N2 1_555 1_555
C1 N1 1_555 1_555
C5 N1 1_555 1_555
C10 C11 1_555 1_555
C13 N2 1_555 1_555

#END
