
#######################################################################
#
#                 Cambridge Crystallographic Data Centre
#                                CCDC 
#
#######################################################################
#
# If this CIF has been generated from an entry in the Cambridge 
# Structural Database, then it will include bibliographic, chemical, 
# crystal, experimental, refinement or atomic coordinate data resulting 
# from the CCDC's data processing and validation procedures.
#
#######################################################################

data_IXIQIP
_symmetry_cell_setting           monoclinic
_symmetry_space_group_name_H-M   'P 21'
_symmetry_Int_Tables_number      4
_space_group_name_Hall           'P 2yb'
loop_
_symmetry_equiv_pos_site_id
_symmetry_equiv_pos_as_xyz
1 x,y,z
2 -x,1/2+y,-z
_cell_length_a                   5.6867(11)
_cell_length_b                   12.846(3)
_cell_length_c                   11.272(2)
_cell_angle_alpha                90
_cell_angle_beta                 90.61(3)
_cell_angle_gamma                90
_cell_volume                     823.388
loop_
_atom_site_label
_atom_site_type_symbol
_atom_site_fract_x
_atom_site_fract_y
_atom_site_fract_z
Zn1 Zn -0.0684(3) 0.2809(4) -0.21941(14)
I1 I 0.2175(2) 0.28657(12) -0.39726(8)
I2 I 0.0684(2) 0.2819(2) -0.00186(8)
N1 N -0.2708(44) 0.1573(18) -0.2408(26)
N2 N -0.2648(35) -0.5800(14) -0.2365(21)
C1 C -0.2277(29) 0.0931(14) -0.3426(18)
H1 H -0.1011(29) 0.1011(14) -0.3933(18)
C2 C -0.4420(72) -0.0010(22) -0.3579(35)
H2 H -0.4517(72) -0.0386(22) -0.4283(35)
C3 C -0.5786(34) -0.0192(18) -0.2807(24)
C4 C -0.5979(45) 0.0445(21) -0.1863(22)
H3 H -0.7165(45) 0.0369(21) -0.1308(22)
C5 C -0.4257(46) 0.1238(20) -0.1773(26)
H4 H -0.4324(46) 0.1589(20) -0.1053(26)
C6 C -0.6941(49) -0.1109(24) -0.2764(27)
H5 H -0.7937(49) -0.1134(24) -0.3468(27)
H6 H -0.7988(49) -0.1065(24) -0.2093(27)
C7 C -0.5795(29) -0.2128(23) -0.2681(11)
H7 H -0.5333(29) -0.2225(23) -0.1857(11)
H8 H -0.4356(29) -0.2084(23) -0.3133(11)
C8 C -0.7012(39) -0.3084(16) -0.3060(21)
H9 H -0.7207(39) -0.3089(16) -0.3916(21)
H10 H -0.8557(39) -0.3117(16) -0.2705(21)
C9 C -0.2850(41) -0.5142(34) -0.3260(28)
H11 H -0.2060(41) -0.5387(34) -0.3921(28)
C10 C -0.3730(30) -0.4344(14) -0.3458(17)
H12 H -0.3313(30) -0.3931(14) -0.4100(17)
C11 C -0.5479(51) -0.4051(22) -0.2649(28)
C12 C -0.5752(37) -0.4722(19) -0.1642(25)
H13 H -0.6812(37) -0.4537(19) -0.1056(25)
C13 C -0.4560(34) -0.5584(18) -0.1523(19)
H14 H -0.4907(34) -0.6053(18) -0.0921(19)
N2_2 N -0.2648(35) 0.4200(14) -0.2365(21)
Zn1_2 Zn -0.0684(3) -0.7191(4) -0.21941(14)
loop_
_geom_bond_atom_site_label_1
_geom_bond_atom_site_label_2
_geom_bond_site_symmetry_1
_geom_bond_site_symmetry_2
Zn1 I1 1_555 1_555
I2 Zn1 1_555 1_555
N1 Zn1 1_555 1_555
N2 C9 1_555 1_555
C1 N1 1_555 1_555
H1 C1 1_555 1_555
C2 C1 1_555 1_555
H2 C2 1_555 1_555
C3 C2 1_555 1_555
C4 C3 1_555 1_555
H3 C4 1_555 1_555
C5 N1 1_555 1_555
H4 C5 1_555 1_555
C6 C3 1_555 1_555
H5 C6 1_555 1_555
H6 C6 1_555 1_555
C7 C6 1_555 1_555
H7 C7 1_555 1_555
H8 C7 1_555 1_555
C8 C7 1_555 1_555
H9 C8 1_555 1_555
H10 C8 1_555 1_555
C9 H11 1_555 1_555
C10 C9 1_555 1_555
H12 C10 1_555 1_555
C11 C8 1_555 1_555
C12 C11 1_555 1_555
H13 C12 1_555 1_555
C13 N2 1_555 1_555
H14 C13 1_555 1_555
N2_2 Zn1 1_555 1_555
Zn1_2 N2 1_555 1_555
C4 C5 1_555 1_555
C10 C11 1_555 1_555
C12 C13 1_555 1_555

#END
