
#######################################################################
#
#                 Cambridge Crystallographic Data Centre
#                                CCDC 
#
#######################################################################
#
# If this CIF has been generated from an entry in the Cambridge 
# Structural Database, then it will include bibliographic, chemical, 
# crystal, experimental, refinement or atomic coordinate data resulting 
# from the CCDC's data processing and validation procedures.
#
#######################################################################

data_IXISIR
_symmetry_cell_setting           tetragonal
_symmetry_space_group_name_H-M   'I 41 2 2'
_symmetry_Int_Tables_number      98
_space_group_name_Hall           'I 4bw 2bw'
loop_
_symmetry_equiv_pos_site_id
_symmetry_equiv_pos_as_xyz
1 x,y,z
2 1/2-x,1/2-y,1/2+z
3 -y,1/2+x,1/4+z
4 1/2+y,-x,3/4+z
5 1/2-x,y,3/4-z
6 x,1/2-y,1/4-z
7 1/2+y,1/2+x,1/2-z
8 -y,-x,-z
9 1/2+x,1/2+y,1/2+z
10 -x,-y,z
11 1/2-y,x,3/4+z
12 y,1/2-x,1/4+z
13 -x,1/2+y,1/4-z
14 1/2+x,-y,3/4-z
15 y,x,-z
16 1/2-y,1/2-x,1/2-z
_cell_length_a                   12.3475(10)
_cell_length_b                   12.3475(10)
_cell_length_c                   13.2122(12)
_cell_angle_alpha                90
_cell_angle_beta                 90
_cell_angle_gamma                90
_cell_volume                     2014.34
loop_
_atom_site_label
_atom_site_type_symbol
_atom_site_fract_x
_atom_site_fract_y
_atom_site_fract_z
I1 I 0.860631(19) 0.860631(19) 0.0000
Cu1 Cu 0.7500 0.73492(6) -0.1250
N1 N 0.8604(3) 0.6345(3) -0.1976(2)
C1 C 0.9246(4) 0.5676(4) -0.1470(3)
C2 C 1.0000 0.5000 -0.1979(4)
C3 C 0.9183(5) 0.5622(5) -0.0333(3)
C4 C 1.0259(9) 0.5340(8) 0.0104(7)
N1O N 0.8655(3) 0.6396(3) -0.3024(2)
C1O C 0.9324(4) 0.5754(4) -0.3530(3)
C2O C 1.0000 0.5000 -0.3021(4)
C1F C 1.0676(4) 0.4246(4) -0.3530(3)
N1F N 1.1345(3) 0.3604(3) -0.3024(2)
N1I N 1.1396(3) 0.3655(3) -0.1976(2)
C1I C 1.0754(4) 0.4324(4) -0.1470(3)
C3I C 1.0817(5) 0.4378(5) -0.0333(3)
C4I C 0.9741(9) 0.4660(8) 0.0104(7)
C3F C 1.0622(5) 0.4183(5) -0.4667(3)
C4F C 1.0340(8) 0.5259(9) -0.5104(7)
C3O C 0.9378(5) 0.5817(5) -0.4667(3)
C4O C 0.9660(8) 0.4741(9) -0.5104(7)
I1D I 0.639369(19) 0.860631(19) -0.2500
Cu1K Cu 0.73492(6) 0.7500 0.1250
N1D N 0.6396(3) 0.6345(3) -0.0524(2)
Cu1J Cu 0.76508(6) 0.7500 -0.3750
Cu1C Cu 1.23492(6) 0.2500 -0.3750
Cu1I Cu 1.2500 0.26508(6) -0.1250
I1E I 0.860631(19) 0.639369(19) 0.2500
N1K N 0.6345(3) 0.6396(3) 0.0524(2)
N1N N 0.6345(3) 0.8604(3) 0.1976(2)
loop_
_geom_bond_atom_site_label_1
_geom_bond_atom_site_label_2
_geom_bond_site_symmetry_1
_geom_bond_site_symmetry_2
I1 Cu1 1_555 1_555
Cu1 N1 1_555 1_555
N1 C1 1_555 1_555
C1 C2 1_555 1_555
C2 C2O 1_555 1_555
C3 C1 1_555 1_555
C4 C3 1_555 1_555
N1O N1 1_555 1_555
C1O N1O 1_555 1_555
C2O C1O 1_555 1_555
C1F C2O 1_555 1_555
N1F C1F 1_555 1_555
N1I N1F 1_555 1_555
C1I C2 1_555 1_555
C3I C4 1_555 1_555
C4I C3 1_555 1_555
C3F C1F 1_555 1_555
C4F C3F 1_555 1_555
C3O C1O 1_555 1_555
C4O C3F 1_555 1_555
I1D Cu1 1_555 1_555
Cu1K I1 1_555 1_555
N1D Cu1 1_555 1_555
Cu1J N1O 1_555 1_555
Cu1C N1F 1_555 1_555
Cu1I N1I 1_555 1_555
I1E Cu1K 1_555 1_555
N1K Cu1K 1_555 1_555
N1N Cu1K 1_555 1_555
C4 C4I 1_555 1_555
N1I C1I 1_555 1_555
C1I C3I 1_555 1_555
C3I C4I 1_555 1_555
C4F C3O 1_555 1_555
C4F C4O 1_555 1_555
C3O C4O 1_555 1_555
I1D Cu1J 1_555 1_555
N1D N1K 1_555 1_555

#END
