
#######################################################################
#
#                 Cambridge Crystallographic Data Centre
#                                CCDC 
#
#######################################################################
#
# If this CIF has been generated from an entry in the Cambridge 
# Structural Database, then it will include bibliographic, chemical, 
# crystal, experimental, refinement or atomic coordinate data resulting 
# from the CCDC's data processing and validation procedures.
#
#######################################################################

data_IXISEN
_symmetry_cell_setting           tetragonal
_symmetry_space_group_name_H-M   'I 41 2 2'
_symmetry_Int_Tables_number      98
_space_group_name_Hall           'I 4bw 2bw'
loop_
_symmetry_equiv_pos_site_id
_symmetry_equiv_pos_as_xyz
1 x,y,z
2 1/2-x,1/2-y,1/2+z
3 -y,1/2+x,1/4+z
4 1/2+y,-x,3/4+z
5 1/2-x,y,3/4-z
6 x,1/2-y,1/4-z
7 1/2+y,1/2+x,1/2-z
8 -y,-x,-z
9 1/2+x,1/2+y,1/2+z
10 -x,-y,z
11 1/2-y,x,3/4+z
12 y,1/2-x,1/4+z
13 -x,1/2+y,1/4-z
14 1/2+x,-y,3/4-z
15 y,x,-z
16 1/2-y,1/2-x,1/2-z
_cell_length_a                   12.3176(11)
_cell_length_b                   12.3176(11)
_cell_length_c                   12.772(2)
_cell_angle_alpha                90
_cell_angle_beta                 90
_cell_angle_gamma                90
_cell_volume                     1937.81
loop_
_atom_site_label
_atom_site_type_symbol
_atom_site_fract_x
_atom_site_fract_y
_atom_site_fract_z
Br1 Br 0.85149(3) 0.85149(3) 0.0000
Cu1 Cu 0.7500 0.73539(5) -0.1250
N1 N 0.8614(3) 0.6357(3) -0.1956(2)
C1 C 0.9260(4) 0.5695(4) -0.1433(3)
C2 C 1.0000 0.5000 -0.1959(3)
C3 C 0.9210(6) 0.5660(5) -0.0255(3)
C4 C 1.0232(10) 0.5303(8) 0.0189(5)
N1O N 0.8643(3) 0.6386(3) -0.3044(2)
C1O C 0.9305(4) 0.5740(4) -0.3567(3)
C2O C 1.0000 0.5000 -0.3041(3)
C1F C 1.0695(4) 0.4260(4) -0.3567(3)
N1F N 1.1357(3) 0.3614(3) -0.3044(2)
N1I N 1.1386(3) 0.3643(3) -0.1956(2)
C1I C 1.0740(4) 0.4305(4) -0.1433(3)
C3I C 1.0790(6) 0.4340(5) -0.0255(3)
C4I C 0.9768(10) 0.4697(8) 0.0189(5)
C3F C 1.0660(5) 0.4210(6) -0.4745(3)
C4F C 1.0303(8) 0.5232(10) -0.5189(5)
C3O C 0.9340(5) 0.5790(6) -0.4745(3)
C4O C 0.9697(8) 0.4768(10) -0.5189(5)
Br1D Br 0.64851(3) 0.85149(3) -0.2500
Cu1K Cu 0.73539(5) 0.7500 0.1250
N1D N 0.6386(3) 0.6357(3) -0.0544(2)
Cu1J Cu 0.76461(5) 0.7500 -0.3750
Cu1C Cu 1.23539(5) 0.2500 -0.3750
Cu1I Cu 1.2500 0.26461(5) -0.1250
Br1E Br 0.85149(3) 0.64851(3) 0.2500
N1K N 0.6357(3) 0.6386(3) 0.0544(2)
N1N N 0.6357(3) 0.8614(3) 0.1956(2)
loop_
_geom_bond_atom_site_label_1
_geom_bond_atom_site_label_2
_geom_bond_site_symmetry_1
_geom_bond_site_symmetry_2
Br1 Cu1 1_555 1_555
Cu1 N1 1_555 1_555
N1 C1 1_555 1_555
C1 C2 1_555 1_555
C2 C2O 1_555 1_555
C3 C1 1_555 1_555
C4 C3 1_555 1_555
N1O N1 1_555 1_555
C1O N1O 1_555 1_555
C2O C1O 1_555 1_555
C1F C2O 1_555 1_555
N1F C1F 1_555 1_555
N1I N1F 1_555 1_555
C1I C2 1_555 1_555
C3I C4 1_555 1_555
C4I C3 1_555 1_555
C3F C1F 1_555 1_555
C4F C3F 1_555 1_555
C3O C1O 1_555 1_555
C4O C3F 1_555 1_555
Br1D Cu1 1_555 1_555
Cu1K Br1 1_555 1_555
N1D Cu1 1_555 1_555
Cu1J N1O 1_555 1_555
Cu1C N1F 1_555 1_555
Cu1I N1I 1_555 1_555
Br1E Cu1K 1_555 1_555
N1K Cu1K 1_555 1_555
N1N Cu1K 1_555 1_555
C4 C4I 1_555 1_555
N1I C1I 1_555 1_555
C1I C3I 1_555 1_555
C3I C4I 1_555 1_555
C4F C3O 1_555 1_555
C4F C4O 1_555 1_555
C3O C4O 1_555 1_555
Br1D Cu1J 1_555 1_555
N1D N1K 1_555 1_555

#END
