
#######################################################################
#
#                 Cambridge Crystallographic Data Centre
#                                CCDC 
#
#######################################################################
#
# If this CIF has been generated from an entry in the Cambridge 
# Structural Database, then it will include bibliographic, chemical, 
# crystal, experimental, refinement or atomic coordinate data resulting 
# from the CCDC's data processing and validation procedures.
#
#######################################################################

data_IXITEO
_symmetry_cell_setting           orthorhombic
_symmetry_space_group_name_H-M   'P n m a'
_symmetry_Int_Tables_number      62
_space_group_name_Hall           '-P 2ac 2n'
loop_
_symmetry_equiv_pos_site_id
_symmetry_equiv_pos_as_xyz
1 x,y,z
2 1/2+x,y,1/2-z
3 x,1/2-y,z
4 1/2-x,1/2+y,1/2+z
5 -x,-y,-z
6 1/2-x,-y,1/2+z
7 -x,1/2+y,-z
8 1/2+x,1/2-y,1/2-z
_cell_length_a                   24.063(3)
_cell_length_b                   13.5575(16)
_cell_length_c                   6.8122(8)
_cell_angle_alpha                90
_cell_angle_beta                 90
_cell_angle_gamma                90
_cell_volume                     2222.37
loop_
_atom_site_label
_atom_site_type_symbol
_atom_site_fract_x
_atom_site_fract_y
_atom_site_fract_z
Cu1 Cu 0.070869(18) 0.2500 -0.12038(6)
Cu2 Cu -0.051450(18) 0.2500 -0.09274(6)
I1 I 0.009807(10) 0.2500 0.21843(3)
I2 I 0.173341(10) 0.2500 -0.00540(4)
N1 N 0.03471(8) 0.36440(14) -0.2863(3)
N2 N -0.02247(9) 0.36903(15) -0.2579(3)
N3 N -0.13173(13) 0.2500 -0.0315(4)
C1 C -0.05896(9) 0.57749(16) -0.5840(3)
C2 C -0.02799(9) 0.50431(16) -0.4816(3)
C3 C -0.05238(10) 0.43676(17) -0.3480(3)
C4 C 0.11362(10) 0.5560(2) -0.6898(4)
H1 H 0.1279 0.6204 -0.7191
H2 H 0.1196 0.5151 -0.8029
C5 C 0.14583(10) 0.51245(17) -0.5155(4)
C6 C 0.11974(10) 0.41294(17) -0.4572(4)
H3 H 0.1382 0.3882 -0.3423
H4 H 0.1251 0.3660 -0.5610
C7 C 0.20600(11) 0.4967(2) -0.5803(4)
H5 H 0.2227 0.5584 -0.6167
H6 H 0.2265 0.4669 -0.4752
H7 H 0.2064 0.4521 -0.6897
C8 C 0.14461(13) 0.5836(2) -0.3409(5)
H8 H 0.1591 0.6465 -0.3805
H9 H 0.1071 0.5914 -0.2955
H10 H 0.1665 0.5579 -0.2348
C9 C -0.17819(15) 0.2500 -0.0074(5)
C10 C -0.23813(17) 0.2500 0.0210(8)
H11 H -0.2555 0.2500 -0.1058
H12 H -0.2494 0.1914 0.0893
N1B N 0.03471(8) 0.13560(14) -0.2863(3)
N2B N -0.02247(9) 0.13097(15) -0.2579(3)
H12B H -0.2494 0.3086 0.0893
N1D N -0.03471(8) 0.63560(14) -0.7137(3)
Cu1F Cu -0.070869(18) 0.7500 -0.87962(6)
Cu2F Cu 0.051450(18) 0.7500 -0.90726(6)
N2D N 0.02247(9) 0.63097(15) -0.7421(3)
C3D C 0.05238(10) 0.56324(17) -0.6520(3)
C2D C 0.02799(9) 0.49569(16) -0.5184(3)
C1D C 0.05896(9) 0.42251(16) -0.4160(3)
C6D C -0.11974(10) 0.58706(17) -0.5428(4)
C5D C -0.14583(10) 0.48755(17) -0.4845(4)
C4D C -0.11362(10) 0.4440(2) -0.3102(4)
H1D H -0.1279 0.3796 -0.2809
H2D H -0.1196 0.4849 -0.1971
C7D C -0.20600(11) 0.5033(2) -0.4197(4)
H5D H -0.2227 0.4416 -0.3833
H6D H -0.2265 0.5331 -0.5248
H7D H -0.2064 0.5479 -0.3103
C8D C -0.14461(13) 0.4164(2) -0.6591(5)
H8D H -0.1591 0.3535 -0.6195
H9D H -0.1071 0.4086 -0.7045
H10D H -0.1665 0.4421 -0.7652
H3D H -0.1382 0.6118 -0.6577
H4D H -0.1251 0.6340 -0.4390
loop_
_geom_bond_atom_site_label_1
_geom_bond_atom_site_label_2
_geom_bond_site_symmetry_1
_geom_bond_site_symmetry_2
Cu1 I1 1_555 1_555
Cu2 I1 1_555 1_555
I2 Cu1 1_555 1_555
N1 Cu1 1_555 1_555
N2 Cu2 1_555 1_555
N3 Cu2 1_555 1_555
C1 C2 1_555 1_555
C2 C3 1_555 1_555
C3 N2 1_555 1_555
C4 H1 1_555 1_555
H2 C4 1_555 1_555
C5 C4 1_555 1_555
C6 C5 1_555 1_555
H3 C6 1_555 1_555
H4 C6 1_555 1_555
C7 C5 1_555 1_555
H5 C7 1_555 1_555
H6 C7 1_555 1_555
H7 C7 1_555 1_555
C8 C5 1_555 1_555
H8 C8 1_555 1_555
H9 C8 1_555 1_555
H10 C8 1_555 1_555
C9 N3 1_555 1_555
C10 C9 1_555 1_555
H11 C10 1_555 1_555
H12 C10 1_555 1_555
N1B Cu1 1_555 1_555
N2B Cu2 1_555 1_555
H12B C10 1_555 1_555
N1D C1 1_555 1_555
Cu1F N1D 1_555 1_555
Cu2F N2D 1_555 1_555
N2D N1D 1_555 1_555
C3D C4 1_555 1_555
C2D C2 1_555 1_555
C1D N1 1_555 1_555
C6D C1 1_555 1_555
C5D C6D 1_555 1_555
C4D C3 1_555 1_555
H1D C4D 1_555 1_555
H2D C4D 1_555 1_555
C7D C5D 1_555 1_555
H5D C7D 1_555 1_555
H6D C7D 1_555 1_555
H7D C7D 1_555 1_555
C8D C5D 1_555 1_555
H8D C8D 1_555 1_555
H9D C8D 1_555 1_555
H10D C8D 1_555 1_555
H3D C6D 1_555 1_555
H4D C6D 1_555 1_555
N1 N2 1_555 1_555
C6 C1D 1_555 1_555
N1B N2B 1_555 1_555
N2D C3D 1_555 1_555
C3D C2D 1_555 1_555
C2D C1D 1_555 1_555
C5D C4D 1_555 1_555

#END
