
#######################################################################
#
#                 Cambridge Crystallographic Data Centre
#                                CCDC 
#
#######################################################################
#
# If this CIF has been generated from an entry in the Cambridge 
# Structural Database, then it will include bibliographic, chemical, 
# crystal, experimental, refinement or atomic coordinate data resulting 
# from the CCDC's data processing and validation procedures.
#
#######################################################################

data_IXITIS
_symmetry_cell_setting           triclinic
_symmetry_space_group_name_H-M   'P -1'
_symmetry_Int_Tables_number      2
_space_group_name_Hall           '-P 1'
loop_
_symmetry_equiv_pos_site_id
_symmetry_equiv_pos_as_xyz
1 x,y,z
2 -x,-y,-z
_cell_length_a                   7.6797(9)
_cell_length_b                   7.7125(9)
_cell_length_c                   11.3151(10)
_cell_angle_alpha                104.415(2)
_cell_angle_beta                 104.170(2)
_cell_angle_gamma                96.141(2)
_cell_volume                     619.198
loop_
_atom_site_label
_atom_site_type_symbol
_atom_site_fract_x
_atom_site_fract_y
_atom_site_fract_z
I1 I -0.23093(6) -0.95772(6) 0.80965(4)
I2 I 0.71073(5) -0.17140(5) 0.42622(4)
Cu1 Cu 0.37056(11) -0.29256(11) 0.29034(7)
Cu2 Cu 0.48616(11) 0.08553(11) 0.41045(7)
N1 N 0.2228(7) -0.3748(6) 0.4031(5)
N2 N 0.2925(7) -0.2942(6) 0.5332(5)
N3 N 0.3628(8) -0.4984(8) 0.1370(5)
C1 C 0.0694(8) -0.4916(7) 0.3560(5)
C2 C -0.0325(8) -0.5404(7) 0.4355(5)
C3 C 0.1977(8) -0.3328(7) 0.6103(5)
C4 C 0.2673(9) -0.2380(10) 0.7501(6)
H1 H 0.3979 -0.2055 0.7742
H2 H 0.2180 -0.1285 0.7691
C5 C 0.2104(8) -0.3629(10) 0.8246(6)
H3 H 0.2687 -0.4673 0.8107
H4 H 0.2516 -0.2995 0.9138
C6 C -0.0040(8) -0.5735(8) 0.2145(5)
H5 H 0.0535 -0.6752 0.1880
H6 H 0.0247 -0.4848 0.1726
C7 C 0.3437(9) -0.6215(9) 0.0518(6)
C8 C 0.3181(10) -0.7835(9) -0.0548(7)
H7 H 0.3647 -0.7568 -0.1209
H8 H 0.1897 -0.8323 -0.0846
H9 H 0.3770 -0.8714 -0.0209
C2A C 0.0325(8) -0.4596(7) 0.5645(5)
C1A C -0.0694(8) -0.5084(7) 0.6440(5)
N1A N -0.2228(7) -0.6252(6) 0.5969(5)
N2A N -0.2925(7) -0.7058(6) 0.4668(5)
C3A C -0.1977(8) -0.6672(7) 0.3897(5)
C5A C -0.2104(8) -0.6371(10) 0.1754(6)
C4A C -0.2673(9) -0.7620(10) 0.2499(6)
H1A H -0.3979 -0.7945 0.2258
H2A H -0.2180 -0.8715 0.2309
H3A H -0.2687 -0.5327 0.1893
H4A H -0.2516 -0.7005 0.0862
C6A C 0.0040(8) -0.4265(8) 0.7855(5)
H5A H -0.0535 -0.3248 0.8120
H6A H -0.0247 -0.5152 0.8274
Cu1A Cu -0.37056(11) -0.70744(11) 0.70966(7)
Cu2A Cu 0.51384(11) -0.08553(11) 0.58955(7)
I2A I 0.28927(5) 0.17140(5) 0.57378(4)
I1A I 0.23093(6) -0.04228(6) 0.19035(4)
N3A N -0.3628(8) -0.5016(8) 0.8630(5)
C7A C -0.3437(9) -0.3785(9) 0.9482(6)
C8A C -0.3181(10) -0.2165(9) 1.0548(7)
H7A H -0.3647 -0.2432 1.1209
H8A H -0.1897 -0.1677 1.0846
H9A H -0.3770 -0.1286 1.0209
N2A_2 N 0.7075(7) 0.2942(6) 0.4668(5)
Cu2_2 Cu -0.51384(11) -0.91447(11) 0.41045(7)
I2A_2 I -0.71073(5) -0.82860(5) 0.57378(4)
I1_2 I 0.76907(6) 0.04228(6) 0.80965(4)
Cu1A_2 Cu 0.62944(11) 0.29256(11) 0.70966(7)
Cu2A_2 Cu -0.48616(11) -1.08553(11) 0.58955(7)
loop_
_geom_bond_atom_site_label_1
_geom_bond_atom_site_label_2
_geom_bond_site_symmetry_1
_geom_bond_site_symmetry_2
I1 Cu1A 1_555 1_555
I2 Cu1 1_555 1_555
Cu1 N1 1_555 1_555
Cu2 I2 1_555 1_555
N1 N2 1_555 1_555
N2 C3 1_555 1_555
N3 Cu1 1_555 1_555
C1 N1 1_555 1_555
C2 C1 1_555 1_555
C3 C4 1_555 1_555
C4 H1 1_555 1_555
H2 C4 1_555 1_555
C5 C4 1_555 1_555
H3 C5 1_555 1_555
H4 C5 1_555 1_555
C6 C1 1_555 1_555
H5 C6 1_555 1_555
H6 C6 1_555 1_555
C7 N3 1_555 1_555
C8 C7 1_555 1_555
H7 C8 1_555 1_555
H8 C8 1_555 1_555
H9 C8 1_555 1_555
C2A C2 1_555 1_555
C1A C2A 1_555 1_555
N1A C1A 1_555 1_555
N2A N1A 1_555 1_555
C3A C2 1_555 1_555
C5A C6 1_555 1_555
C4A C3A 1_555 1_555
H1A C4A 1_555 1_555
H2A C4A 1_555 1_555
H3A C5A 1_555 1_555
H4A C5A 1_555 1_555
C6A C5 1_555 1_555
H5A C6A 1_555 1_555
H6A C6A 1_555 1_555
Cu1A N1A 1_555 1_555
Cu2A I2 1_555 1_555
I2A Cu2 1_555 1_555
I1A Cu1 1_555 1_555
N3A Cu1A 1_555 1_555
C7A N3A 1_555 1_555
C8A C7A 1_555 1_555
H7A C8A 1_555 1_555
H8A C8A 1_555 1_555
H9A C8A 1_555 1_555
N2A_2 Cu2 1_555 1_555
Cu2_2 N2A 1_555 1_555
I2A_2 Cu1A 1_555 1_555
I1_2 Cu2A 1_555 1_555
Cu1A_2 I2A 1_555 1_555
Cu2A_2 I1 1_555 1_555
Cu2 I1A 1_555 1_555
N2 Cu2A 1_555 1_555
C3 C2A 1_555 1_555
C1A C6A 1_555 1_555
N2A C3A 1_555 1_555
C5A C4A 1_555 1_555
Cu2A I2A 1_555 1_555
Cu2_2 I2A_2 1_555 1_555
I2A_2 Cu2A_2 1_555 1_555
I1_2 Cu1A_2 1_555 1_555

#END
