
#######################################################################
#
#                 Cambridge Crystallographic Data Centre
#                                CCDC 
#
#######################################################################
#
# If this CIF has been generated from an entry in the Cambridge 
# Structural Database, then it will include bibliographic, chemical, 
# crystal, experimental, refinement or atomic coordinate data resulting 
# from the CCDC's data processing and validation procedures.
#
#######################################################################

data_IXOBOM
_symmetry_cell_setting           triclinic
_symmetry_space_group_name_H-M   'P -1'
_symmetry_Int_Tables_number      2
_space_group_name_Hall           '-P 1'
loop_
_symmetry_equiv_pos_site_id
_symmetry_equiv_pos_as_xyz
1 x,y,z
2 -x,-y,-z
_cell_length_a                   7.7323(4)
_cell_length_b                   11.3366(6)
_cell_length_c                   12.2080(7)
_cell_angle_alpha                94.8340(10)
_cell_angle_beta                 101.6270(10)
_cell_angle_gamma                102.3810(10)
_cell_volume                     1014.66
loop_
_atom_site_label
_atom_site_type_symbol
_atom_site_fract_x
_atom_site_fract_y
_atom_site_fract_z
Eu1 Eu -0.80084(3) 0.220240(19) 0.231800(17)
Cl1 Cl -1.10844(14) 0.04347(10) 0.15964(9)
Cl2 Cl -0.67693(13) 0.11644(10) 0.41074(8)
Cl3 Cl -0.87328(13) 0.37081(9) 0.07799(8)
C1 C -0.3946(6) 0.1714(4) -0.0643(4)
H1 H -0.3439 0.1499 0.0067
C2 C -0.4355(5) 0.2842(4) -0.0661(3)
C3 C -0.5126(6) 0.3121(4) -0.1706(4)
H2 H -0.5437 0.3884 -0.1761
C4 C -0.5444(6) 0.2297(4) -0.2666(4)
H3 H -0.5976 0.2482 -0.3384
C5 C -0.4971(6) 0.1200(4) -0.2558(4)
H4 H -0.5187 0.0632 -0.3217
C6 C -0.3983(5) 0.3735(4) 0.0386(3)
H5 H -0.3434 0.4555 0.0225
H6 H -0.5150 0.3766 0.0589
C7 C -0.3338(5) 0.3006(4) 0.2210(3)
C8 C -0.1886(5) 0.2669(4) 0.3088(3)
C9 C -0.1391(6) 0.1604(4) 0.4730(3)
H7 H -0.0185 0.1652 0.4553
H8 H -0.1951 0.0736 0.4746
C10 C -0.1603(5) 0.3409(4) 0.6008(3)
H9 H -0.2104 0.3747 0.5366
C11 C -0.1142(5) 0.2305(4) 0.5878(3)
C12 C -0.0398(5) 0.1854(4) 0.6832(3)
H10 H -0.0080 0.1091 0.6761
C13 C -0.0111(6) 0.2498(4) 0.7886(3)
H11 H 0.0427 0.2196 0.8541
C14 C -0.0619(5) 0.3585(4) 0.7974(3)
H12 H -0.0456 0.4039 0.8693
N1 N -0.4221(5) 0.0902(3) -0.1566(3)
N2 N -0.2775(5) 0.3432(3) 0.1345(3)
H13 H -0.163(7) 0.350(5) 0.139(4)
N3 N -0.2524(5) 0.2062(3) 0.3845(3)
H14 H -0.363(6) 0.194(4) 0.381(4)
N4 N -0.1341(5) 0.3997(3) 0.7042(3)
H15 H -0.162(5) 0.463(2) 0.713(3)
O1 O -0.4915(4) 0.2834(3) 0.2336(2)
O2 O -0.0265(3) 0.2949(3) 0.3039(2)
O3 O -0.7238(5) 0.0928(3) 0.0947(3)
H16 H -0.678(7) 0.045(4) 0.122(4)
H17 H -0.782(6) 0.067(4) 0.035(2)
O4 O -0.6749(4) 0.4114(3) 0.3567(3)
H18 H -0.698(6) 0.405(5) 0.415(3)
H19 H -0.573(3) 0.432(4) 0.360(3)
O2_2 O -1.0265(3) 0.2949(3) 0.3039(2)
Eu1_2 Eu 0.19916(3) 0.220240(19) 0.231800(17)
Cl4 Cl -0.72703(14) 0.45983(10) 0.59612(8)
loop_
_geom_bond_atom_site_label_1
_geom_bond_atom_site_label_2
_geom_bond_site_symmetry_1
_geom_bond_site_symmetry_2
Eu1 Cl1 1_555 1_555
Cl2 Eu1 1_555 1_555
Cl3 Eu1 1_555 1_555
C1 H1 1_555 1_555
C2 C1 1_555 1_555
C3 C2 1_555 1_555
H2 C3 1_555 1_555
C4 C3 1_555 1_555
H3 C4 1_555 1_555
C5 C4 1_555 1_555
H4 C5 1_555 1_555
C6 C2 1_555 1_555
H5 C6 1_555 1_555
H6 C6 1_555 1_555
C7 C8 1_555 1_555
C8 N3 1_555 1_555
C9 H7 1_555 1_555
H8 C9 1_555 1_555
C10 H9 1_555 1_555
C11 C9 1_555 1_555
C12 C11 1_555 1_555
H10 C12 1_555 1_555
C13 C12 1_555 1_555
H11 C13 1_555 1_555
C14 C13 1_555 1_555
H12 C14 1_555 1_555
N1 C1 1_555 1_555
N2 C6 1_555 1_555
H13 N2 1_555 1_555
N3 C9 1_555 1_555
H14 N3 1_555 1_555
N4 C10 1_555 1_555
H15 N4 1_555 1_555
O1 Eu1 1_555 1_555
O2 C8 1_555 1_555
O3 Eu1 1_555 1_555
H16 O3 1_555 1_555
H17 O3 1_555 1_555
O4 Eu1 1_555 1_555
H18 O4 1_555 1_555
H19 O4 1_555 1_555
O2_2 Eu1 1_555 1_555
Eu1_2 O2 1_555 1_555
C5 N1 1_555 1_555
C7 O1 1_555 1_555
C7 N2 1_555 1_555
C10 C11 1_555 1_555
C14 N4 1_555 1_555

#END
