
#######################################################################
#
#                 Cambridge Crystallographic Data Centre
#                                CCDC 
#
#######################################################################
#
# If this CIF has been generated from an entry in the Cambridge 
# Structural Database, then it will include bibliographic, chemical, 
# crystal, experimental, refinement or atomic coordinate data resulting 
# from the CCDC's data processing and validation procedures.
#
#######################################################################

data_IXOFEH
_symmetry_cell_setting           orthorhombic
_symmetry_space_group_name_H-M   'P 21 21 21'
_symmetry_Int_Tables_number      19
_space_group_name_Hall           'P 2ac 2ab'
loop_
_symmetry_equiv_pos_site_id
_symmetry_equiv_pos_as_xyz
1 x,y,z
2 1/2-x,-y,1/2+z
3 -x,1/2+y,1/2-z
4 1/2+x,1/2-y,-z
_cell_length_a                   6.7884(7)
_cell_length_b                   13.2305(13)
_cell_length_c                   16.6357(16)
_cell_angle_alpha                90
_cell_angle_beta                 90
_cell_angle_gamma                90
_cell_volume                     1494.12
loop_
_atom_site_label
_atom_site_type_symbol
_atom_site_fract_x
_atom_site_fract_y
_atom_site_fract_z
C1 C 0.7272(4) 1.1220(2) 0.10668(15)
C2 C 0.7394(4) 1.0511(2) 0.17590(15)
C3 C 0.5715(5) 1.0055(2) 0.20587(19)
H1 H 0.4505 1.0167 0.1812
C4 C 0.5829(5) 0.9435(3) 0.27208(18)
H2 H 0.4693 0.9130 0.2918
C5 C 0.9198(5) 1.0340(3) 0.21286(19)
H3 H 1.0331 1.0644 0.1928
C6 C 0.9309(5) 0.9719(3) 0.27946(19)
H4 H 1.0517 0.9607 0.3043
C7 C 0.7616(4) 0.9260(2) 0.30959(15)
C8 C 0.7731(4) 0.8616(2) 0.38247(14)
O1 O 0.78031(16) 0.68808(9) 0.50309(11)
O2 O 0.6123(3) 0.82882(15) 0.41019(11)
O3 O 0.5579(3) 1.14215(14) 0.07933(12)
O4 O 0.9403(3) 0.84363(14) 0.41084(11)
O5 O 0.8878(3) 1.15727(15) 0.08038(12)
V1 V 0.56123(4) 0.735390(19) 0.50055(3)
O1C O 0.28031(16) 0.81192(9) 0.49691(11)
O3B O 0.4421(3) 0.64215(14) 0.42067(12)
O4C O 0.4403(3) 0.65637(14) 0.58916(11)
O5A O 0.6122(3) 0.84273(15) 0.58038(12)
V1C V 1.06123(4) 0.764610(19) 0.49945(3)
V1B V 0.43877(4) 1.235390(19) -0.00055(3)
V1A V 0.93877(4) 1.264610(19) 0.00055(3)
C9 C 0.642(2) 0.2719(6) 0.6310(4)
H5 H 0.6230 0.2190 0.6670
C10 C 0.8197(17) 0.3242(11) 0.6305(5)
H6 H 0.9193 0.3064 0.6662
C11 C 0.8483(14) 0.4033(9) 0.5767(8)
H7 H 0.9671 0.4383 0.5764
C12 C 0.699(2) 0.4300(4) 0.5234(6)
H8 H 0.7186 0.4828 0.4874
C13 C 0.5219(16) 0.3776(9) 0.5239(4)
H9 H 0.4223 0.3955 0.4883
C14 C 0.4933(14) 0.2985(8) 0.5777(6)
H10 H 0.3745 0.2635 0.5780
loop_
_geom_bond_atom_site_label_1
_geom_bond_atom_site_label_2
_geom_bond_site_symmetry_1
_geom_bond_site_symmetry_2
C1 C2 1_555 1_555
C2 C3 1_555 1_555
C3 H1 1_555 1_555
C4 C3 1_555 1_555
H2 C4 1_555 1_555
C5 C2 1_555 1_555
H3 C5 1_555 1_555
C6 C5 1_555 1_555
H4 C6 1_555 1_555
C7 C4 1_555 1_555
C8 C7 1_555 1_555
O1 V1 1_555 1_555
O2 C8 1_555 1_555
O3 C1 1_555 1_555
O4 C8 1_555 1_555
O5 C1 1_555 1_555
V1 O2 1_555 1_555
C9 H5 1_555 1_555
C10 C9 1_555 1_555
H6 C10 1_555 1_555
C11 C10 1_555 1_555
H7 C11 1_555 1_555
C12 C11 1_555 1_555
H8 C12 1_555 1_555
C13 C12 1_555 1_555
H9 C13 1_555 1_555
C14 C9 1_555 1_555
H10 C14 1_555 1_555
O1C V1 1_555 1_555
O3B V1 1_555 1_555
O4C V1 1_555 1_555
O5A V1 1_555 1_555
V1C O1 1_555 1_555
V1B O3 1_555 1_555
V1A O5 1_555 1_555
C6 C7 1_555 1_555
O4 V1C 1_555 1_555
C13 C14 1_555 1_555

#END
