
#######################################################################
#
#                 Cambridge Crystallographic Data Centre
#                                CCDC 
#
#######################################################################
#
# If this CIF has been generated from an entry in the Cambridge 
# Structural Database, then it will include bibliographic, chemical, 
# crystal, experimental, refinement or atomic coordinate data resulting 
# from the CCDC's data processing and validation procedures.
#
#######################################################################

data_IXOHUZ
_symmetry_cell_setting           monoclinic
_symmetry_space_group_name_H-M   'C 2/c'
_symmetry_Int_Tables_number      15
_space_group_name_Hall           '-C 2yn'
loop_
_symmetry_equiv_pos_site_id
_symmetry_equiv_pos_as_xyz
1 x,y,z
2 -x,y,1/2-z
3 1/2+x,1/2+y,z
4 1/2-x,1/2+y,1/2-z
5 -x,-y,-z
6 x,-y,1/2+z
7 1/2-x,1/2-y,-z
8 1/2+x,1/2-y,1/2+z
_cell_length_a                   26.548(2)
_cell_length_b                   10.1451(8)
_cell_length_c                   30.495(2)
_cell_angle_alpha                90
_cell_angle_beta                 102.028(2)
_cell_angle_gamma                90
_cell_volume                     8032.97
loop_
_atom_site_label
_atom_site_type_symbol
_atom_site_fract_x
_atom_site_fract_y
_atom_site_fract_z
O1 O 0.30201(10) 0.4673(3) 0.29890(7)
C1 C 0.32954(15) 0.4932(3) 0.33751(11)
C2 C -0.03606(15) -0.1684(4) -0.01259(11)
H1 H -0.0621 -0.1307 -0.0005
C3 C -0.02242(14) -0.1125(4) -0.04971(11)
H2 H -0.0388 -0.0364 -0.0625
N1 N 0.17967(11) -0.1146(3) 0.36628(8)
C4 C 0.16437(15) -0.1548(4) 0.40275(11)
H3 H 0.1402 -0.1109 0.4155
C5 C 0.21533(14) -0.2065(4) 0.36004(11)
H4 H 0.2334 -0.2046 0.3370
C6 C 0.22050(15) -0.2993(4) 0.39175(11)
H5 H 0.2421 -0.3723 0.3946
N2 N 0.18805(12) -0.2666(3) 0.41903(9)
C7 C 0.17880(14) -0.3391(4) 0.45731(11)
C8 C 0.17051(15) -0.4722(4) 0.45393(11)
H6 H 0.1711 -0.5156 0.4272
C9 C 0.17770(16) -0.2742(4) 0.49659(11)
H7 H 0.1838 -0.1839 0.4987
C10 C 0.16137(15) -0.5414(4) 0.49025(11)
H8 H 0.1565 -0.6322 0.4884
N3 N 0.11115(11) -0.1276(3) 0.27739(8)
C11 C 0.10290(15) -0.2544(4) 0.29004(11)
H9 H 0.1109 -0.2855 0.3194
C12 C 0.08160(16) -0.3272(4) 0.25411(11)
H10 H 0.0723 -0.4156 0.2541
C13 C 0.09453(13) -0.1271(3) 0.23334(10)
H11 H 0.0953 -0.0535 0.2153
N4 N 0.07636(11) -0.2464(3) 0.21783(8)
C14 C 0.05235(14) -0.2772(3) 0.17236(11)
C15 C 0.07468(14) -0.2385(3) 0.13800(11)
H12 H 0.1072 -0.2000 0.1442
C16 C 0.00538(15) -0.3400(4) 0.16344(11)
H13 H -0.0090 -0.3691 0.1870
Ni1 Ni 0.145477(17) 0.02821(4) 0.320645(13)
O2 O 0.18584(9) 0.1792(2) 0.35925(7)
O3 O 0.37003(10) 0.5570(2) 0.34417(8)
O4 O 0.20893(9) 0.0151(2) 0.28957(7)
H14 H 0.1986 -0.0079 0.2623
H15 H 0.2236 0.0899 0.2906
N5 N 0.08025(11) -0.0442(3) -0.15082(8)
C17 C 0.07862(13) -0.1099(3) -0.11427(10)
H16 H 0.1071 -0.1496 -0.0961
C18 C 0.03071(14) -0.0021(3) -0.16708(11)
H17 H 0.0203 0.0477 -0.1930
C19 C -0.00116(14) -0.0431(3) -0.14012(11)
H18 H -0.0363 -0.0276 -0.1438
N6 N 0.03034(11) -0.1131(3) -0.10609(8)
O5 O -0.02749(10) -0.3356(3) 0.04243(7)
O6 O 0.34604(10) 0.4450(2) 0.49913(7)
H19 H 0.3320 0.4060 0.5182
C20 C 0.13779(14) -0.2291(3) 0.74283(10)
H20 H 0.1722 -0.2157 0.7417
N7 N 0.10584(11) -0.3085(3) 0.71465(8)
O7 O 0.19142(10) 0.1636(3) 0.43311(7)
C21 C 0.15942(14) -0.4758(4) 0.52937(11)
C22 C 0.31962(14) 0.4133(3) 0.45681(11)
O8 O 0.14912(11) -0.5531(2) 0.56385(7)
C23 C 0.25206(13) 0.2971(3) 0.40695(10)
C24 C 0.03977(14) -0.2830(4) -0.04961(11)
H21 H 0.0646 -0.3235 -0.0625
C25 C 0.01595(13) -0.1708(3) -0.06772(10)
C26 C 0.33629(13) 0.4667(3) 0.42059(10)
H22 H 0.3646 0.5228 0.4253
C27 C 0.11722(14) -0.3737(3) 0.67634(10)
C28 C 0.13872(15) -0.4887(3) 0.60159(11)
C29 C -0.01158(15) -0.2782(4) 0.00627(11)
C30 C 0.02639(15) -0.3357(4) -0.01173(12)
H23 H 0.0432 -0.4105 0.0016
C31 C 0.27768(13) 0.3294(3) 0.44991(10)
H24 H 0.2666 0.2942 0.4744
C32 C 0.09191(16) -0.4293(4) 0.59905(11)
H25 H 0.0677 -0.4286 0.5722
C33 C 0.06546(15) -0.2192(4) 0.76234(12)
H26 H 0.0399 -0.1975 0.7778
C34 C 0.08104(15) -0.3703(4) 0.63704(11)
H27 H 0.0495 -0.3289 0.6359
N8 N 0.11495(11) -0.1724(3) 0.77220(8)
C35 C 0.20645(13) 0.2052(3) 0.39967(11)
C36 C 0.31073(13) 0.4364(3) 0.37713(10)
C37 C -0.02051(15) -0.3599(4) 0.11979(11)
H28 H -0.0522 -0.4027 0.1137
C38 C 0.04898(14) -0.2563(3) 0.09370(11)
H29 H 0.0639 -0.2286 0.0702
C39 C 0.26905(13) 0.3508(3) 0.37071(10)
H30 H 0.2522 0.3291 0.3417
C40 C 0.16762(16) -0.3421(4) 0.53304(11)
H31 H 0.1664 -0.2982 0.5596
C41 C 0.00150(14) -0.3152(3) 0.08506(10)
C42 C 0.17452(15) -0.4939(4) 0.64035(12)
H32 H 0.2060 -0.5354 0.6414
C43 C 0.05918(15) -0.3015(4) 0.72689(12)
H33 H 0.0291 -0.3449 0.7134
C44 C 0.16329(15) -0.4356(4) 0.67864(11)
H34 H 0.1872 -0.4389 0.7057
Ni1E Ni 0.145477(17) -0.02821(4) -0.179355(13)
Ni1E_2 Ni 0.145477(17) -0.02821(4) 0.820645(13)
N5E N 0.08025(11) 0.0442(3) 0.34918(8)
N8E N 0.11495(11) 0.1724(3) 0.27220(8)
O9 O 0.27052(12) 0.2189(3) 0.26803(9)
H35 H 0.2663 0.2179 0.2396
H36 H 0.2778 0.2967 0.2776
O10 O 0.1981(2) 0.5313(5) 0.28667(15)
H37 H 0.1740 0.4747 0.2821
H38 H 0.2161 0.5219 0.3130
O11 O 0.12354(18) 0.4313(5) 0.33988(13)
H39 H 0.1473 0.3786 0.3519
H40 H 0.1364 0.5066 0.3368
loop_
_geom_bond_atom_site_label_1
_geom_bond_atom_site_label_2
_geom_bond_site_symmetry_1
_geom_bond_site_symmetry_2
O1 C1 1_555 1_555
C1 O3 1_555 1_555
C2 H1 1_555 1_555
C3 C2 1_555 1_555
H2 C3 1_555 1_555
N1 C4 1_555 1_555
C4 H3 1_555 1_555
C5 N1 1_555 1_555
H4 C5 1_555 1_555
C6 C5 1_555 1_555
H5 C6 1_555 1_555
N2 C4 1_555 1_555
C7 N2 1_555 1_555
C8 C7 1_555 1_555
H6 C8 1_555 1_555
C9 C7 1_555 1_555
H7 C9 1_555 1_555
C10 C8 1_555 1_555
H8 C10 1_555 1_555
N3 C11 1_555 1_555
C11 H9 1_555 1_555
C12 C11 1_555 1_555
H10 C12 1_555 1_555
C13 N3 1_555 1_555
H11 C13 1_555 1_555
N4 C12 1_555 1_555
C14 N4 1_555 1_555
C15 C14 1_555 1_555
H12 C15 1_555 1_555
C16 C14 1_555 1_555
H13 C16 1_555 1_555
Ni1 N1 1_555 1_555
O2 Ni1 1_555 1_555
O4 Ni1 1_555 1_555
H14 O4 1_555 1_555
H15 O4 1_555 1_555
N5 C17 1_555 1_555
C17 H16 1_555 1_555
C18 N5 1_555 1_555
H17 C18 1_555 1_555
C19 C18 1_555 1_555
H18 C19 1_555 1_555
N6 C17 1_555 1_555
O5 C29 1_555 1_555
O6 H19 1_555 1_555
C20 H20 1_555 1_555
N7 C20 1_555 1_555
O7 C35 1_555 1_555
C21 C10 1_555 1_555
C22 O6 1_555 1_555
O8 C21 1_555 1_555
C23 C31 1_555 1_555
C24 H21 1_555 1_555
C25 C3 1_555 1_555
C26 C22 1_555 1_555
H22 C26 1_555 1_555
C27 N7 1_555 1_555
C28 O8 1_555 1_555
C29 C2 1_555 1_555
C30 C24 1_555 1_555
H23 C30 1_555 1_555
C31 C22 1_555 1_555
H24 C31 1_555 1_555
C32 C28 1_555 1_555
H25 C32 1_555 1_555
C33 H26 1_555 1_555
C34 C27 1_555 1_555
H27 C34 1_555 1_555
N8 C20 1_555 1_555
C35 O2 1_555 1_555
C36 C1 1_555 1_555
C37 C16 1_555 1_555
H28 C37 1_555 1_555
C38 C15 1_555 1_555
H29 C38 1_555 1_555
C39 C23 1_555 1_555
H30 C39 1_555 1_555
C40 C9 1_555 1_555
H31 C40 1_555 1_555
C41 O5 1_555 1_555
C42 C28 1_555 1_555
H32 C42 1_555 1_555
C43 N7 1_555 1_555
H33 C43 1_555 1_555
C44 C27 1_555 1_555
H34 C44 1_555 1_555
O9 H35 1_555 1_555
H36 O9 1_555 1_555
O10 H37 1_555 1_555
H38 O10 1_555 1_555
O11 H39 1_555 1_555
H40 O11 1_555 1_555
Ni1E N5 1_555 1_555
Ni1E_2 N8 1_555 1_555
N5E Ni1 1_555 1_555
N8E Ni1 1_555 1_555
C6 N2 1_555 1_555
N3 Ni1 1_555 1_555
C13 N4 1_555 1_555
C19 N6 1_555 1_555
N6 C25 1_555 1_555
C21 C40 1_555 1_555
C23 C35 1_555 1_555
C24 C25 1_555 1_555
C26 C36 1_555 1_555
C29 C30 1_555 1_555
C32 C34 1_555 1_555
C33 N8 1_555 1_555
C33 C43 1_555 1_555
C36 C39 1_555 1_555
C37 C41 1_555 1_555
C38 C41 1_555 1_555
C42 C44 1_555 1_555

#END
