
#######################################################################
#
#                 Cambridge Crystallographic Data Centre
#                                CCDC 
#
#######################################################################
#
# If this CIF has been generated from an entry in the Cambridge 
# Structural Database, then it will include bibliographic, chemical, 
# crystal, experimental, refinement or atomic coordinate data resulting 
# from the CCDC's data processing and validation procedures.
#
#######################################################################

data_IXOHOT
_symmetry_cell_setting           orthorhombic
_symmetry_space_group_name_H-M   'F d d 2'
_symmetry_Int_Tables_number      43
_space_group_name_Hall           'F 2 -2d'
loop_
_symmetry_equiv_pos_site_id
_symmetry_equiv_pos_as_xyz
1 x,y,z
2 -x,-y,z
3 1/4+x,1/4-y,1/4+z
4 1/4-x,1/4+y,1/4+z
5 x,1/2+y,1/2+z
6 -x,1/2-y,1/2+z
7 1/4+x,3/4-y,3/4+z
8 1/4-x,3/4+y,3/4+z
9 1/2+x,y,1/2+z
10 1/2-x,-y,1/2+z
11 3/4+x,1/4-y,3/4+z
12 3/4-x,1/4+y,3/4+z
13 1/2+x,1/2+y,z
14 1/2-x,1/2-y,z
15 3/4+x,3/4-y,1/4+z
16 3/4-x,3/4+y,1/4+z
_cell_length_a                   25.498(5)
_cell_length_b                   30.011(6)
_cell_length_c                   44.331(9)
_cell_angle_alpha                90
_cell_angle_beta                 90
_cell_angle_gamma                90
_cell_volume                     33923
loop_
_atom_site_label
_atom_site_type_symbol
_atom_site_fract_x
_atom_site_fract_y
_atom_site_fract_z
C1 C 0.2513(3) 0.4927(2) 0.43845(18)
H1 H 0.2468 0.5232 0.4363
C2 C 0.2762(3) 0.4658(2) 0.41864(18)
H2 H 0.2920 0.4741 0.4006
C3 C 0.2486(3) 0.4269(2) 0.45645(17)
H3 H 0.2421 0.4031 0.4694
C4 C 0.2765(3) 0.3427(3) 0.4242(2)
H4 H 0.2501 0.3395 0.4385
C5 C 0.3343(3) 0.3887(2) 0.39754(19)
H5 H 0.3482 0.4168 0.3936
C6 C 0.3549(3) 0.3505(3) 0.3827(2)
H6 H 0.3810 0.3531 0.3681
C7 C 0.2952(3) 0.3839(2) 0.41708(17)
C8 C 0.2975(3) 0.3053(2) 0.41000(19)
H7 H 0.2844 0.2772 0.4145
C9 C 0.3351(3) 0.3096(2) 0.3906(2)
C10 C 0.3144(3) 0.1444(2) 0.36630(18)
C11 C 0.3097(3) 0.2200(3) 0.3501(2)
H8 H 0.2984 0.2413 0.3363
C12 C 0.3392(3) 0.2329(3) 0.3742(2)
C13 C 0.3423(4) 0.1581(3) 0.3916(2)
H9 H 0.3522 0.1373 0.4061
C14 C 0.3553(4) 0.2022(3) 0.3952(3)
H10 H 0.3750 0.2113 0.4118
C15 C 0.2964(3) 0.1757(2) 0.34601(19)
H11 H 0.2755 0.1672 0.3298
C16 C 0.2664(3) 0.0781(2) 0.34782(18)
H12 H 0.2379 0.0930 0.3394
C17 C 0.3391(3) 0.0645(3) 0.3704(2)
H13 H 0.3705 0.0676 0.3809
C18 C 0.3178(3) 0.0264(3) 0.3610(2)
H14 H 0.3323 -0.0018 0.3635
C19 C 0.0669(3) 0.1703(2) 0.28270(19)
C20 C 0.0218(3) 0.1386(3) 0.3273(2)
H15 H -0.0025 0.1616 0.3264
C21 C 0.0615(3) 0.1363(2) 0.30636(17)
C22 C 0.0988(3) 0.1028(2) 0.30839(18)
H16 H 0.1258 0.1016 0.2943
C23 C 0.0965(3) 0.0719(2) 0.3305(2)
C24 C 0.1395(4) 0.0366(3) 0.3342(3)
C25 C 0.0561(4) 0.0735(3) 0.3513(2)
H17 H 0.0543 0.0521 0.3665
C26 C 0.0182(3) 0.1065(3) 0.34973(19)
C27 C 0.1219(3) -0.7005(2) 0.23772(19)
C28 C 0.2122(3) -0.6958(2) 0.26123(19)
H18 H 0.2038 -0.7199 0.2735
C29 C 0.1754(3) -0.6789(2) 0.24021(17)
C30 C 0.1870(3) -0.6428(2) 0.22226(16)
H19 H 0.1624 -0.6320 0.2086
C31 C 0.2362(3) -0.6226(2) 0.22494(17)
C32 C 0.2514(3) -0.5845(2) 0.20514(18)
C33 C 0.2720(3) -0.6388(2) 0.24542(18)
H20 H 0.3043 -0.6248 0.2476
C34 C 0.2603(3) -0.6760(2) 0.26298(18)
C35 C 0.2788(3) -0.5074(2) 0.10589(18)
H21 H 0.2761 -0.4765 0.1054
C36 C 0.2991(3) -0.5320(2) 0.08362(18)
H22 H 0.3135 -0.5221 0.0655
C37 C 0.2713(3) -0.5751(2) 0.12059(16)
H23 H 0.2627 -0.6004 0.1317
C38 C 0.2846(3) -0.6537(2) 0.08084(18)
H24 H 0.2579 -0.6560 0.0951
C39 C 0.3100(3) -0.6140(2) 0.07663(16)
C40 C 0.3501(3) -0.6102(2) 0.05625(17)
H25 H 0.3673 -0.5831 0.0541
C41 C 0.3651(3) -0.6459(2) 0.03901(18)
H26 H 0.3928 -0.6438 0.0255
C42 C 0.3372(3) -0.6851(2) 0.0425(2)
C43 C 0.2989(3) -0.6905(2) 0.06374(17)
H27 H 0.2828 -0.7180 0.0666
C44 C 0.3366(4) -0.7619(3) 0.0256(3)
C45 C 0.3077(3) -0.7786(2) 0.0017(2)
H28 H 0.2966 -0.7601 -0.0139
C46 C 0.2960(3) -0.8230(2) 0.0016(2)
H29 H 0.2775 -0.8353 -0.0145
C47 C 0.3383(4) -0.8321(3) 0.0489(2)
H30 H 0.3480 -0.8500 0.0651
C48 C 0.3513(4) -0.7870(3) 0.0486(2)
H31 H 0.3703 -0.7747 0.0645
C49 C 0.3115(3) -0.8497(2) 0.02538(19)
C50 C 0.3272(4) -0.9303(3) 0.0387(2)
H32 H 0.3572 -0.9272 0.0505
C51 C 0.2613(3) -0.9156(2) 0.01017(17)
H33 H 0.2373 -0.9001 -0.0016
C52 C 0.3028(3) -0.9679(3) 0.0322(2)
H34 H 0.3130 -0.9959 0.0390
C53 C 0.1595(3) -0.4515(2) 0.14940(17)
C54 C 0.1044(3) -0.4300(2) 0.14869(17)
C55 C 0.0661(3) -0.4471(2) 0.16803(18)
H35 H 0.0737 -0.4715 0.1802
C56 C 0.0172(3) -0.4277(3) 0.1691(2)
C57 C 0.0079(3) -0.3903(3) 0.1520(2)
H36 H -0.0244 -0.3760 0.1532
C58 C 0.0463(3) -0.3738(2) 0.13302(18)
C59 C 0.0325(5) -0.3340(3) 0.1140(2)
C60 C 0.0939(3) -0.3934(2) 0.13164(16)
H37 H 0.1196 -0.3818 0.1190
C61 C 0.2809(3) -0.4226(2) 0.18465(18)
H38 H 0.2577 -0.4082 0.1717
C62 C 0.3205(3) -0.4738(3) 0.2079(2)
H39 H 0.3314 -0.5018 0.2142
C63 C 0.3401(4) -0.4344(3) 0.2183(2)
H40 H 0.3654 -0.4307 0.2332
C64 C 0.3039(5) -0.3273(3) 0.1856(3)
H41 H 0.2783 -0.3384 0.1726
C65 C 0.3251(3) -0.3554(3) 0.2036(2)
C66 C 0.3570(5) -0.3380(4) 0.2254(3)
H42 H 0.3689 -0.3566 0.2407
C67 C 0.3147(5) -0.2822(3) 0.1832(3)
H43 H 0.2987 -0.2639 0.1690
C68 C 0.3516(5) -0.2666(3) 0.2038(3)
C69 C 0.3720(5) -0.2939(4) 0.2255(3)
H44 H 0.3953 -0.2830 0.2399
C70 C 0.3451(4) -0.1895(3) 0.2141(2)
C71 C 0.3077(4) -0.1928(3) 0.2366(2)
H45 H 0.2962 -0.2209 0.2425
C72 C 0.3634(3) -0.1470(2) 0.20649(18)
H46 H 0.3885 -0.1439 0.1914
C73 C 0.3449(3) -0.1107(2) 0.22089(18)
H47 H 0.3582 -0.0828 0.2161
C74 C 0.3062(3) -0.1145(2) 0.24276(16)
C75 C 0.2870(3) -0.1554(3) 0.2503(2)
H48 H 0.2602 -0.1581 0.2644
C76 C 0.2654(3) -0.0749(2) 0.28425(19)
H49 H 0.2590 -0.1000 0.2960
C77 C 0.2927(3) -0.0315(2) 0.24796(18)
H50 H 0.3077 -0.0217 0.2300
C78 C 0.2716(3) -0.0063(2) 0.26995(19)
H51 H 0.2699 0.0246 0.2697
N1 N 0.2342(2) 0.46830(19) 0.46171(14)
N2 N 0.2733(2) 0.42368(18) 0.43067(13)
N3 N 0.3060(2) 0.09868(19) 0.36160(14)
N4 N 0.2715(3) 0.03558(18) 0.34730(15)
N5 N 0.2627(2) -0.53324(17) 0.12950(13)
N6 N 0.2940(2) -0.57543(16) 0.09354(13)
N7 N 0.2999(2) -0.89686(18) 0.02476(14)
N8 N 0.2602(2) -0.95950(17) 0.01406(14)
N9 N 0.2840(2) -0.46621(19) 0.18776(14)
N10 N 0.3156(3) -0.4016(2) 0.20257(15)
N11 N 0.2870(2) -0.07543(17) 0.25777(13)
N12 N 0.2534(2) -0.03242(18) 0.29233(15)
O1 O 0.0308(2) 0.19943(17) 0.28106(13)
O2 O 0.1020(2) 0.16842(17) 0.26397(13)
O3 O -0.0190(3) 0.1068(2) 0.37201(14)
H52 H -0.0397 0.1286 0.3689
O4 O 0.1657(3) 0.0283(2) 0.31244(18)
O5 O 0.1480(3) 0.0197(2) 0.35779(18)
O6 O 0.0919(2) -0.6903(2) 0.21716(15)
O7 O 0.1116(2) -0.72906(16) 0.25757(13)
O8 O 0.2948(2) -0.6925(2) 0.28366(15)
H53 H 0.3247 -0.6846 0.2792
O9 O 0.2140(2) -0.56196(16) 0.19337(12)
O10 O 0.2968(2) -0.57552(19) 0.20077(15)
O11 O 0.16574(19) -0.48226(15) 0.16771(13)
O12 O 0.1930(2) -0.43792(18) 0.13211(15)
O13 O -0.0074(2) -0.31376(17) 0.11814(12)
O14 O 0.0643(2) -0.32217(17) 0.09473(11)
O15 O -0.0173(2) -0.4441(2) 0.18891(16)
H54 H -0.0455 -0.4292 0.1874
O16 O 0.3579(2) 0.27573(16) 0.37366(13)
O17 O 0.3547(3) -0.71786(17) 0.02341(14)
O18 O 0.3700(2) -0.22389(16) 0.20044(13)
Zn1 Zn 0.23614(3) -0.51087(2) 0.168310(18)
Zn2 Zn 0.22066(4) -0.01163(2) 0.331000(19)
Zn3 Zn 0.20782(3) -1.00521(2) -0.00005(2)
N1D N 0.2342(2) -1.03170(19) -0.03829(14)
O1G O 0.2192(2) -1.05057(17) 0.03106(13)
O7G O 0.1384(2) -0.97906(16) 0.00757(13)
O13C O 0.2574(2) -0.06376(17) 0.36814(12)
O14C O 0.1857(2) -0.07217(17) 0.34473(11)
Zn2G Zn 0.02934(4) -0.26163(2) 0.081000(19)
Zn3D Zn 0.20782(3) 0.49479(2) 0.49995(2)
Zn3C Zn 0.04218(3) 0.24479(2) 0.24995(2)
Zn3C_2 Zn 0.04218(3) -0.75521(2) 0.24995(2)
O19 O 0.8831(3) 0.5779(3) 0.1647(2)
H55 H 0.8509 0.5830 0.1683
H56 H 0.8879 0.5500 0.1630
O20 O 0.8919(6) 0.6763(4) 0.1557(3)
H57 H 0.9063 0.6968 0.1454
H58 H 0.9073 0.6742 0.1727
O21 O 0.0991(6) 0.0973(5) 0.2202(3)
H59 H 0.0893 0.1233 0.2252
H60 H 0.1149 0.0983 0.2033
loop_
_geom_bond_atom_site_label_1
_geom_bond_atom_site_label_2
_geom_bond_site_symmetry_1
_geom_bond_site_symmetry_2
C1 H1 1_555 1_555
C2 C1 1_555 1_555
H2 C2 1_555 1_555
C3 H3 1_555 1_555
C4 H4 1_555 1_555
C5 H5 1_555 1_555
C6 C5 1_555 1_555
H6 C6 1_555 1_555
C7 C4 1_555 1_555
C8 C4 1_555 1_555
H7 C8 1_555 1_555
C9 C6 1_555 1_555
C10 C13 1_555 1_555
C11 H8 1_555 1_555
C12 C11 1_555 1_555
C13 H9 1_555 1_555
C14 C12 1_555 1_555
H10 C14 1_555 1_555
C15 C10 1_555 1_555
H11 C15 1_555 1_555
C16 H12 1_555 1_555
C17 H13 1_555 1_555
C18 C17 1_555 1_555
H14 C18 1_555 1_555
C19 C21 1_555 1_555
C20 H15 1_555 1_555
C21 C20 1_555 1_555
C22 C21 1_555 1_555
H16 C22 1_555 1_555
C23 C22 1_555 1_555
C24 C23 1_555 1_555
C25 C23 1_555 1_555
H17 C25 1_555 1_555
C26 C20 1_555 1_555
C27 C29 1_555 1_555
C28 H18 1_555 1_555
C29 C28 1_555 1_555
C30 C29 1_555 1_555
H19 C30 1_555 1_555
C31 C30 1_555 1_555
C32 C31 1_555 1_555
C33 C31 1_555 1_555
H20 C33 1_555 1_555
C34 C28 1_555 1_555
C35 H21 1_555 1_555
C36 C35 1_555 1_555
H22 C36 1_555 1_555
C37 H23 1_555 1_555
C38 H24 1_555 1_555
C39 C38 1_555 1_555
C40 C39 1_555 1_555
H25 C40 1_555 1_555
C41 C40 1_555 1_555
H26 C41 1_555 1_555
C42 C41 1_555 1_555
C43 C38 1_555 1_555
H27 C43 1_555 1_555
C44 C45 1_555 1_555
C45 H28 1_555 1_555
C46 C45 1_555 1_555
H29 C46 1_555 1_555
C47 H30 1_555 1_555
C48 C44 1_555 1_555
H31 C48 1_555 1_555
C49 C46 1_555 1_555
C50 H32 1_555 1_555
C51 H33 1_555 1_555
C52 C50 1_555 1_555
H34 C52 1_555 1_555
C53 C54 1_555 1_555
C54 C55 1_555 1_555
C55 H35 1_555 1_555
C56 C55 1_555 1_555
C57 C56 1_555 1_555
H36 C57 1_555 1_555
C58 C57 1_555 1_555
C59 C58 1_555 1_555
C60 C54 1_555 1_555
H37 C60 1_555 1_555
C61 H38 1_555 1_555
C62 H39 1_555 1_555
C63 C62 1_555 1_555
H40 C63 1_555 1_555
C64 H41 1_555 1_555
C65 C64 1_555 1_555
C66 C65 1_555 1_555
H42 C66 1_555 1_555
C67 C64 1_555 1_555
H43 C67 1_555 1_555
C68 C67 1_555 1_555
C69 C66 1_555 1_555
H44 C69 1_555 1_555
C70 C71 1_555 1_555
C71 H45 1_555 1_555
C72 C70 1_555 1_555
H46 C72 1_555 1_555
C73 C72 1_555 1_555
H47 C73 1_555 1_555
C74 C73 1_555 1_555
C75 C71 1_555 1_555
H48 C75 1_555 1_555
C76 H49 1_555 1_555
C77 H50 1_555 1_555
C78 C77 1_555 1_555
H51 C78 1_555 1_555
N1 C1 1_555 1_555
N2 C2 1_555 1_555
N3 C10 1_555 1_555
N4 C16 1_555 1_555
N5 C35 1_555 1_555
N6 C36 1_555 1_555
N7 C49 1_555 1_555
N8 C51 1_555 1_555
N9 C61 1_555 1_555
N10 C61 1_555 1_555
N11 C74 1_555 1_555
N12 C76 1_555 1_555
O1 C19 1_555 1_555
O2 C19 1_555 1_555
O3 C26 1_555 1_555
H52 O3 1_555 1_555
O4 C24 1_555 1_555
O5 C24 1_555 1_555
O6 C27 1_555 1_555
O7 C27 1_555 1_555
O8 C34 1_555 1_555
H53 O8 1_555 1_555
O9 C32 1_555 1_555
O10 C32 1_555 1_555
O11 C53 1_555 1_555
O12 C53 1_555 1_555
O13 C59 1_555 1_555
O14 C59 1_555 1_555
O15 C56 1_555 1_555
H54 O15 1_555 1_555
O16 C9 1_555 1_555
O17 C42 1_555 1_555
O18 C68 1_555 1_555
O19 H55 1_555 1_555
H56 O19 1_555 1_555
O20 H57 1_555 1_555
H58 O20 1_555 1_555
O21 H59 1_555 1_555
H60 O21 1_555 1_555
Zn1 N5 1_555 1_555
Zn2 N4 1_555 1_555
Zn3 N8 1_555 1_555
N1D Zn3 1_555 1_555
O1G Zn3 1_555 1_555
O7G Zn3 1_555 1_555
O13C Zn2 1_555 1_555
O14C Zn2 1_555 1_555
Zn2G O13 1_555 1_555
Zn3D N1 1_555 1_555
Zn3C O1 1_555 1_555
Zn3C_2 O7 1_555 1_555
C3 N1 1_555 1_555
C3 N2 1_555 1_555
C5 C7 1_555 1_555
C7 N2 1_555 1_555
C8 C9 1_555 1_555
C11 C15 1_555 1_555
C12 O16 1_555 1_555
C13 C14 1_555 1_555
C16 N3 1_555 1_555
C17 N3 1_555 1_555
C18 N4 1_555 1_555
C25 C26 1_555 1_555
C33 C34 1_555 1_555
C37 N5 1_555 1_555
C37 N6 1_555 1_555
C39 N6 1_555 1_555
C42 C43 1_555 1_555
C44 O17 1_555 1_555
C47 C48 1_555 1_555
C47 C49 1_555 1_555
C50 N7 1_555 1_555
C51 N7 1_555 1_555
C52 N8 1_555 1_555
C58 C60 1_555 1_555
C62 N9 1_555 1_555
C63 N10 1_555 1_555
C65 N10 1_555 1_555
C68 C69 1_555 1_555
C70 O18 1_555 1_555
C74 C75 1_555 1_555
C76 N11 1_555 1_555
C77 N11 1_555 1_555
C78 N12 1_555 1_555
N9 Zn1 1_555 1_555
N12 Zn2 1_555 1_555
O4 Zn2 1_555 1_555
O5 Zn2 1_555 1_555
O9 Zn1 1_555 1_555
O11 Zn1 1_555 1_555
O14 Zn2G 1_555 1_555

#END
