
#######################################################################
#
#                 Cambridge Crystallographic Data Centre
#                                CCDC 
#
#######################################################################
#
# If this CIF has been generated from an entry in the Cambridge 
# Structural Database, then it will include bibliographic, chemical, 
# crystal, experimental, refinement or atomic coordinate data resulting 
# from the CCDC's data processing and validation procedures.
#
#######################################################################

data_IXORUJ
_symmetry_cell_setting           monoclinic
_symmetry_space_group_name_H-M   'C 2/c'
_symmetry_Int_Tables_number      15
_space_group_name_Hall           '-C 2yn'
loop_
_symmetry_equiv_pos_site_id
_symmetry_equiv_pos_as_xyz
1 x,y,z
2 -x,y,1/2-z
3 1/2+x,1/2+y,z
4 1/2-x,1/2+y,1/2-z
5 -x,-y,-z
6 x,-y,1/2+z
7 1/2-x,1/2-y,-z
8 1/2+x,1/2-y,1/2+z
_cell_length_a                   20.588(4)
_cell_length_b                   14.782(5)
_cell_length_c                   20.559(8)
_cell_angle_alpha                90
_cell_angle_beta                 91.167(16)
_cell_angle_gamma                90
_cell_volume                     6255.46
loop_
_atom_site_label
_atom_site_type_symbol
_atom_site_fract_x
_atom_site_fract_y
_atom_site_fract_z
Co1 Co 0.5000 0.5000 0.5000
C1 C 0.4459(2) 0.7208(3) 0.6453(2)
C2 C 0.4179(3) 0.7125(4) 0.7054(3)
H1 H 0.4247 0.6604 0.7299
C3 C 0.3792(4) 0.7820(6) 0.7296(4)
H2 H 0.3605 0.7764 0.7702
C4 C 0.3692(4) 0.8583(6) 0.6931(5)
H3 H 0.3433 0.9043 0.7092
C5 C 0.3963(4) 0.8681(4) 0.6336(4)
H4 H 0.3884 0.9200 0.6091
C6 C 0.4359(3) 0.8000(3) 0.6099(3)
C7 C 0.4545(3) 0.8593(4) 0.5023(4)
H5 H 0.4409 0.9181 0.5180
H6 H 0.4173 0.8314 0.4806
C8 C 0.5041(3) 0.8717(3) 0.4563(3)
H7 H 0.4845 0.8903 0.4151
H8 H 0.5327 0.9199 0.4712
C9 C 0.6027(3) 0.7993(3) 0.4271(2)
C10 C 0.6254(3) 0.8715(4) 0.3919(3)
H9 H 0.5982 0.9191 0.3799
C11 C 0.6896(4) 0.8710(4) 0.3751(3)
H10 H 0.7060 0.9195 0.3518
C12 C 0.7296(3) 0.8016(4) 0.3915(3)
H11 H 0.7731 0.8032 0.3805
C13 C 0.7046(3) 0.7272(3) 0.4255(2)
H12 H 0.7315 0.6784 0.4355
C14 C 0.6407(2) 0.7258(3) 0.4439(2)
C15 C 0.4848(2) 0.6447(3) 0.61616(19)
H13 H 0.5247 0.6693 0.5992
H14 H 0.4965 0.6020 0.6503
C16 C 0.3934(2) 0.5445(3) 0.5871(2)
H15 H 0.3609 0.5386 0.5525
H16 H 0.3740 0.5765 0.6230
C17 C 0.4152(2) 0.4523(3) 0.6092(2)
H17 H 0.4493 0.4580 0.6422
H18 H 0.3792 0.4200 0.6279
C18 C 0.59879(19) 0.4165(3) 0.59234(18)
C19 C 0.63894(18) 0.4239(3) 0.65417(17)
C20 C 0.6508(2) 0.5083(3) 0.68081(19)
H19 H 0.6341 0.5591 0.6596
C21 C 0.6866(2) 0.5200(3) 0.7376(2)
H20 H 0.6942 0.5777 0.7542
C22 C 0.7106(2) 0.4457(4) 0.7692(2)
H21 H 0.7350 0.4529 0.8074
C23 C 0.6991(2) 0.3603(3) 0.7453(2)
H22 H 0.7149 0.3104 0.7682
C24 C 0.6642(2) 0.3471(3) 0.68700(19)
C25 C 0.6882(3) 0.1828(3) 0.6874(3)
H23 H 0.6748 0.1675 0.7310
H24 H 0.7341 0.1974 0.6891
C26 C 0.6767(3) 0.1033(3) 0.6428(3)
C27 C 0.6375(4) 0.0319(4) 0.6604(4)
H25 H 0.6165 0.0333 0.7000
C28 C 0.6295(5) -0.0423(5) 0.6192(5)
H26 H 0.6031 -0.0906 0.6309
C29 C 0.6613(5) -0.0429(6) 0.5605(5)
H27 H 0.6567 -0.0929 0.5334
C30 C 0.6996(4) 0.0278(5) 0.5409(4)
H28 H 0.7205 0.0270 0.5013
C31 C 0.7053(3) 0.0996(4) 0.5828(3)
C32 C 0.7444(4) 0.2002(4) 0.5002(4)
H29 H 0.7041 0.1854 0.4775
H30 H 0.7797 0.1690 0.4792
C33 C 0.6119(2) 0.6488(3) 0.48227(19)
H31 H 0.5945 0.6729 0.5221
H32 H 0.6464 0.6069 0.4943
O1 O 0.4723(2) 0.8085(3) 0.5529(2)
O2 O 0.5406(2) 0.7936(2) 0.4467(2)
O3 O 0.57236(13) 0.48799(16) 0.57172(12)
O4 O 0.59279(19) 0.34148(19) 0.56493(15)
O5 O 0.7414(2) 0.1747(3) 0.5672(2)
N1 N 0.44971(16) 0.5960(2) 0.56345(15)
H33 H 0.4364(19) 0.634(2) 0.5350(15)
N2 N 0.56014(16) 0.5983(2) 0.44747(15)
H34 H 0.5336(16) 0.639(2) 0.4354(19)
N3 N 0.6514(2) 0.2609(3) 0.66391(18)
H35 H 0.642(2) 0.263(3) 0.6228(11)
Co1B Co 1.0000 0.0000 0.5000
C1D C 0.5541(2) 0.2792(3) 0.3547(2)
C2D C 0.5821(3) 0.2875(4) 0.2946(3)
H1D H 0.5753 0.3396 0.2701
C3D C 0.6208(4) 0.2180(6) 0.2704(4)
H2D H 0.6395 0.2236 0.2298
C4D C 0.6308(4) 0.1417(6) 0.3069(5)
H3D H 0.6567 0.0957 0.2908
C5D C 0.6037(4) 0.1319(4) 0.3664(4)
H4D H 0.6116 0.0800 0.3909
C6D C 0.5641(3) 0.2000(3) 0.3901(3)
C7D C 0.5455(3) 0.1407(4) 0.4977(4)
H5D H 0.5591 0.0819 0.4820
H6D H 0.5827 0.1686 0.5194
C8D C 0.4959(3) 0.1283(3) 0.5437(3)
H7D H 0.5155 0.1097 0.5849
H8D H 0.4673 0.0801 0.5288
C9D C 0.3973(3) 0.2007(3) 0.5729(2)
C10D C 0.3746(3) 0.1285(4) 0.6081(3)
H9D H 0.4018 0.0809 0.6201
C11D C 0.3104(4) 0.1290(4) 0.6249(3)
H10D H 0.2940 0.0805 0.6482
C12D C 0.2704(3) 0.1984(4) 0.6085(3)
H11D H 0.2269 0.1968 0.6195
C13D C 0.2954(3) 0.2728(3) 0.5745(2)
H12D H 0.2685 0.3216 0.5645
C14D C 0.3593(2) 0.2742(3) 0.5561(2)
C15D C 0.5152(2) 0.3553(3) 0.38384(19)
H13D H 0.4753 0.3307 0.4008
H14D H 0.5035 0.3980 0.3497
C16D C 0.6066(2) 0.4555(3) 0.4129(2)
H15D H 0.6391 0.4614 0.4475
H16D H 0.6260 0.4235 0.3770
C17D C 0.5848(2) 0.5477(3) 0.3908(2)
H17D H 0.5507 0.5420 0.3578
H18D H 0.6208 0.5800 0.3721
C18F C 0.90121(19) 0.0835(3) 0.40766(18)
C19F C 0.86106(18) 0.0761(3) 0.34583(17)
C20F C 0.8492(2) -0.0083(3) 0.31919(19)
H19F H 0.8659 -0.0591 0.3404
C21F C 0.8134(2) -0.0200(3) 0.2624(2)
H20F H 0.8058 -0.0777 0.2458
C22F C 0.7894(2) 0.0543(4) 0.2308(2)
H21F H 0.7650 0.0471 0.1926
C23F C 0.8009(2) 0.1397(3) 0.2547(2)
H22F H 0.7851 0.1896 0.2318
C24F C 0.8358(2) 0.1529(3) 0.31300(19)
C25F C 0.8118(3) 0.3172(3) 0.3126(3)
H23F H 0.8252 0.3325 0.2690
H24F H 0.7659 0.3026 0.3109
C26F C 0.8233(3) 0.3967(3) 0.3572(3)
C27F C 0.8625(4) 0.4681(4) 0.3396(4)
H25F H 0.8835 0.4667 0.3000
C28F C 0.8705(5) 0.5423(5) 0.3808(5)
H26F H 0.8969 0.5906 0.3691
C29F C 0.8387(5) 0.5429(6) 0.4395(5)
H27F H 0.8433 0.5929 0.4666
C30F C 0.8004(4) 0.4722(5) 0.4591(4)
H28F H 0.7795 0.4730 0.4987
C31F C 0.7947(3) 0.4004(4) 0.4172(3)
C32F C 0.7556(4) 0.2998(4) 0.4998(4)
H29F H 0.7959 0.3146 0.5225
H30F H 0.7203 0.3310 0.5208
C33D C 0.3881(2) 0.3512(3) 0.51773(19)
H31D H 0.4055 0.3271 0.4779
H32D H 0.3536 0.3931 0.5057
O1D O 0.5277(2) 0.1915(3) 0.4471(2)
O2D O 0.4594(2) 0.2064(2) 0.5533(2)
O3F O 0.92764(13) 0.01201(16) 0.42828(12)
O3D O 0.42764(13) 0.51201(16) 0.42828(12)
O4F O 0.90721(19) 0.15852(19) 0.43507(15)
O5F O 0.7586(2) 0.3253(3) 0.4328(2)
N1D N 0.55029(16) 0.4040(2) 0.43655(15)
H33D H 0.5636(19) 0.366(2) 0.4650(15)
N2D N 0.43986(16) 0.4017(2) 0.55253(15)
H34D H 0.4664(16) 0.361(2) 0.5646(19)
N3F N 0.8486(2) 0.2391(3) 0.33609(18)
H35F H 0.858(2) 0.237(3) 0.3772(11)
O6 O 0.5000 0.2974(14) 0.7500
C34 C 0.5000 0.2004(15) 0.7500
loop_
_geom_bond_atom_site_label_1
_geom_bond_atom_site_label_2
_geom_bond_site_symmetry_1
_geom_bond_site_symmetry_2
Co1 O3 1_555 1_555
C1 C2 1_555 1_555
C2 H1 1_555 1_555
C3 C2 1_555 1_555
H2 C3 1_555 1_555
C4 C3 1_555 1_555
H3 C4 1_555 1_555
C5 C4 1_555 1_555
H4 C5 1_555 1_555
C6 C1 1_555 1_555
C7 H5 1_555 1_555
H6 C7 1_555 1_555
C8 C7 1_555 1_555
H7 C8 1_555 1_555
H8 C8 1_555 1_555
C9 C10 1_555 1_555
C10 H9 1_555 1_555
C11 C10 1_555 1_555
H10 C11 1_555 1_555
C12 C11 1_555 1_555
H11 C12 1_555 1_555
C13 C12 1_555 1_555
H12 C13 1_555 1_555
C14 C9 1_555 1_555
C15 C1 1_555 1_555
H13 C15 1_555 1_555
H14 C15 1_555 1_555
C16 H15 1_555 1_555
H16 C16 1_555 1_555
C17 C16 1_555 1_555
H17 C17 1_555 1_555
H18 C17 1_555 1_555
C18 C19 1_555 1_555
C19 C20 1_555 1_555
C20 H19 1_555 1_555
C21 C20 1_555 1_555
H20 C21 1_555 1_555
C22 C21 1_555 1_555
H21 C22 1_555 1_555
C23 C22 1_555 1_555
H22 C23 1_555 1_555
C24 C19 1_555 1_555
C25 H23 1_555 1_555
H24 C25 1_555 1_555
C26 C25 1_555 1_555
C27 C26 1_555 1_555
H25 C27 1_555 1_555
C28 C27 1_555 1_555
H26 C28 1_555 1_555
C29 C28 1_555 1_555
H27 C29 1_555 1_555
C30 C29 1_555 1_555
H28 C30 1_555 1_555
C31 C26 1_555 1_555
C32 H29 1_555 1_555
H30 C32 1_555 1_555
C33 C14 1_555 1_555
H31 C33 1_555 1_555
H32 C33 1_555 1_555
O1 C6 1_555 1_555
O2 C8 1_555 1_555
O3 C18 1_555 1_555
O4 C18 1_555 1_555
O5 C31 1_555 1_555
O6 C34 1_555 1_555
N1 Co1 1_555 1_555
H33 N1 1_555 1_555
N2 Co1 1_555 1_555
H34 N2 1_555 1_555
N3 C24 1_555 1_555
H35 N3 1_555 1_555
Co1B O3F 1_555 1_555
C1D C2D 1_555 1_555
C2D H1D 1_555 1_555
C3D C2D 1_555 1_555
H2D C3D 1_555 1_555
C4D C3D 1_555 1_555
H3D C4D 1_555 1_555
C5D C4D 1_555 1_555
H4D C5D 1_555 1_555
C6D C1D 1_555 1_555
C7D H5D 1_555 1_555
H6D C7D 1_555 1_555
C8D C7D 1_555 1_555
H7D C8D 1_555 1_555
H8D C8D 1_555 1_555
C9D C10D 1_555 1_555
C10D H9D 1_555 1_555
C11D C10D 1_555 1_555
H10D C11D 1_555 1_555
C12D C11D 1_555 1_555
H11D C12D 1_555 1_555
C13D C12D 1_555 1_555
H12D C13D 1_555 1_555
C14D C9D 1_555 1_555
C15D C1D 1_555 1_555
H13D C15D 1_555 1_555
H14D C15D 1_555 1_555
C16D H15D 1_555 1_555
H16D C16D 1_555 1_555
C17D N2 1_555 1_555
H17D C17D 1_555 1_555
H18D C17D 1_555 1_555
C18F C19F 1_555 1_555
C19F C20F 1_555 1_555
C20F H19F 1_555 1_555
C21F C20F 1_555 1_555
H20F C21F 1_555 1_555
C22F C21F 1_555 1_555
H21F C22F 1_555 1_555
C23F C22F 1_555 1_555
H22F C23F 1_555 1_555
C24F C19F 1_555 1_555
C25F H23F 1_555 1_555
H24F C25F 1_555 1_555
C26F C25F 1_555 1_555
C27F C26F 1_555 1_555
H25F C27F 1_555 1_555
C28F C27F 1_555 1_555
H26F C28F 1_555 1_555
C29F C28F 1_555 1_555
H27F C29F 1_555 1_555
C30F C29F 1_555 1_555
H28F C30F 1_555 1_555
C31F C26F 1_555 1_555
C32F C32 1_555 1_555
H29F C32F 1_555 1_555
H30F C32F 1_555 1_555
C33D C14D 1_555 1_555
H31D C33D 1_555 1_555
H32D C33D 1_555 1_555
O1D C6D 1_555 1_555
O2D C8D 1_555 1_555
O3F C18F 1_555 1_555
O3D Co1 1_555 1_555
O4F C18F 1_555 1_555
O5F C31F 1_555 1_555
N1D Co1 1_555 1_555
H33D N1D 1_555 1_555
N2D Co1 1_555 1_555
H34D N2D 1_555 1_555
N3F C24F 1_555 1_555
H35F N3F 1_555 1_555
C5 C6 1_555 1_555
C7 O1 1_555 1_555
C9 O2 1_555 1_555
C13 C14 1_555 1_555
C15 N1 1_555 1_555
C16 N1 1_555 1_555
C17 N2D 1_555 1_555
C23 C24 1_555 1_555
C25 N3 1_555 1_555
C30 C31 1_555 1_555
C32 O5 1_555 1_555
C33 N2 1_555 1_555
C5D C6D 1_555 1_555
C7D O1D 1_555 1_555
C9D O2D 1_555 1_555
C13D C14D 1_555 1_555
C15D N1D 1_555 1_555
C16D C17D 1_555 1_555
C16D N1D 1_555 1_555
C23F C24F 1_555 1_555
C25F N3F 1_555 1_555
C30F C31F 1_555 1_555
C32F O5F 1_555 1_555
C33D N2D 1_555 1_555

#END
