
#######################################################################
#
#                 Cambridge Crystallographic Data Centre
#                                CCDC 
#
#######################################################################
#
# If this CIF has been generated from an entry in the Cambridge 
# Structural Database, then it will include bibliographic, chemical, 
# crystal, experimental, refinement or atomic coordinate data resulting 
# from the CCDC's data processing and validation procedures.
#
#######################################################################

data_IXOSOE
_symmetry_cell_setting           monoclinic
_symmetry_space_group_name_H-M   'P 21/n'
_symmetry_Int_Tables_number      14
_space_group_name_Hall           '-P 2yn'
loop_
_symmetry_equiv_pos_site_id
_symmetry_equiv_pos_as_xyz
1 x,y,z
2 1/2-x,1/2+y,1/2-z
3 -x,-y,-z
4 1/2+x,1/2-y,1/2+z
_cell_length_a                   11.719(4)
_cell_length_b                   16.680(7)
_cell_length_c                   13.377(4)
_cell_angle_alpha                90
_cell_angle_beta                 96.587(11)
_cell_angle_gamma                90
_cell_volume                     2597.58
loop_
_atom_site_label
_atom_site_type_symbol
_atom_site_fract_x
_atom_site_fract_y
_atom_site_fract_z
Zn1 Zn 0.25436(4) 0.66915(3) 0.93006(3)
C1 C 0.2083(5) 0.4882(4) 0.9168(4)
H1 H 0.1511 0.4988 0.8644
C2 C 0.2308(6) 0.4075(4) 0.9479(6)
H2 H 0.1887 0.3658 0.9155
C3 C 0.3127(7) 0.3914(4) 1.0237(6)
H3 H 0.3268 0.3386 1.0438
C4 C 0.3762(4) 0.4523(3) 1.0723(4)
C5 C 0.4670(5) 0.4429(4) 1.1547(5)
H4 H 0.4869 0.3916 1.1776
C6 C 0.5225(5) 0.5053(4) 1.1984(4)
H5 H 0.5793 0.4964 1.2517
C7 C 0.4980(4) 0.5840(3) 1.1667(3)
C8 C 0.5513(4) 0.6503(4) 1.2126(4)
H6 H 0.6064 0.6441 1.2679
C9 C 0.5235(4) 0.7232(5) 1.1775(4)
H7 H 0.5582 0.7680 1.2091
C10 C 0.4421(4) 0.7325(3) 1.0931(4)
H8 H 0.4263 0.7837 1.0676
C11 C 0.4125(3) 0.5976(3) 1.0857(3)
C12 C 0.3495(3) 0.5310(2) 1.0379(3)
C13 C 0.2995(4) 0.6875(3) 0.7514(3)
C14 C 0.3337(3) 0.6996(2) 0.6475(3)
C15 C 0.2601(3) 0.6724(2) 0.5662(3)
H9 H 0.1904 0.6495 0.5777
C16 C 0.2873(3) 0.6783(2) 0.4685(3)
C17 C 0.3940(3) 0.7115(2) 0.4543(3)
H10 H 0.4160 0.7145 0.3898
C18 C 0.2406(3) 0.6236(3) 0.2948(3)
H11 H 0.3201 0.6372 0.2891
H12 H 0.1936 0.6496 0.2398
C19 C 0.2261(3) 0.5341(3) 0.2842(3)
C20 C 0.1405(4) 0.5009(3) 0.2168(3)
H13 H 0.0903 0.5345 0.1776
C21 C 0.1280(4) 0.4182(3) 0.2066(4)
H14 H 0.0697 0.3968 0.1614
C22 C 0.2029(4) 0.3687(3) 0.2642(4)
H15 H 0.1955 0.3134 0.2575
C23 C 0.2892(4) 0.4003(3) 0.3321(3)
H16 H 0.3392 0.3664 0.3710
C24 C 0.3008(3) 0.4820(2) 0.3419(3)
C25 C 0.4622(4) 0.4714(3) 0.4682(3)
H17 H 0.5075 0.4383 0.4280
H18 H 0.4213 0.4367 0.5102
C26 C 0.5779(3) 0.7787(2) 0.5160(3)
C27 C 0.4670(3) 0.7398(2) 0.5348(3)
C28 C 0.4370(3) 0.7344(2) 0.6319(3)
H19 H 0.4861 0.7540 0.6860
N1 N 0.3874(3) 0.6708(2) 1.0488(2)
N2 N 0.2676(3) 0.5482(2) 0.9616(3)
O1 O 0.3513(3) 0.7250(2) 0.8235(2)
O2 O 0.2218(3) 0.6398(2) 0.7654(2)
O3 O 0.3842(2) 0.51942(17) 0.4057(2)
O4 O 0.6162(3) 0.7668(2) 0.4341(2)
O5 O 0.6273(4) 0.8206(3) 0.5790(3)
N3 N 0.2095(3) 0.6549(2) 0.3896(3)
H26 H 0.146(2) 0.638(3) 0.406(3)
Zn1B Zn 0.74564(4) 0.33085(3) 0.06994(3)
Zn1A Zn 0.24564(4) 0.16915(3) 0.56994(3)
Zn1C Zn 0.75436(4) 0.83085(3) 0.43006(3)
C1B C 0.7917(5) 0.5118(4) 0.0832(4)
H1B H 0.8489 0.5012 0.1356
C2B C 0.7692(6) 0.5925(4) 0.0521(6)
H2B H 0.8113 0.6342 0.0845
C3B C 0.6873(7) 0.6086(4) -0.0237(6)
H3B H 0.6732 0.6614 -0.0438
C4B C 0.6238(4) 0.5477(3) -0.0723(4)
C5B C 0.5330(5) 0.5571(4) -0.1547(5)
H4B H 0.5131 0.6084 -0.1776
C6B C 0.4775(5) 0.4947(4) -0.1984(4)
H5B H 0.4207 0.5036 -0.2517
C7B C 0.5020(4) 0.4160(3) -0.1667(3)
C8B C 0.4487(4) 0.3497(4) -0.2126(4)
H6B H 0.3936 0.3559 -0.2679
C9B C 0.4765(4) 0.2768(5) -0.1775(4)
H7B H 0.4418 0.2320 -0.2091
C10B C 0.5579(4) 0.2675(3) -0.0931(4)
H8B H 0.5737 0.2163 -0.0676
C11B C 0.5875(3) 0.4024(3) -0.0857(3)
C12B C 0.6505(3) 0.4690(2) -0.0379(3)
C13B C 0.7005(4) 0.3125(3) 0.2486(3)
C14B C 0.6663(3) 0.3004(2) 0.3525(3)
C15B C 0.7399(3) 0.3276(2) 0.4338(3)
H9B H 0.8096 0.3505 0.4223
C16B C 0.7127(3) 0.3217(2) 0.5315(3)
C17B C 0.6060(3) 0.2885(2) 0.5457(3)
H10B H 0.5840 0.2855 0.6102
C18B C 0.7594(3) 0.3764(3) 0.7052(3)
H11B H 0.6799 0.3628 0.7109
H12B H 0.8064 0.3504 0.7602
C19B C 0.7739(3) 0.4659(3) 0.7158(3)
C20B C 0.8595(4) 0.4991(3) 0.7832(3)
H13B H 0.9097 0.4655 0.8224
C21B C 0.8720(4) 0.5818(3) 0.7934(4)
H14B H 0.9303 0.6032 0.8386
C22B C 0.7971(4) 0.6313(3) 0.7358(4)
H15B H 0.8045 0.6866 0.7425
C23B C 0.7108(4) 0.5997(3) 0.6679(3)
H16B H 0.6608 0.6336 0.6290
C24B C 0.6992(3) 0.5180(2) 0.6581(3)
C25B C 0.5378(4) 0.5286(3) 0.5318(3)
H17B H 0.4925 0.5617 0.5720
H18B H 0.5787 0.5633 0.4898
C26B C 0.4221(3) 0.2213(2) 0.4840(3)
C27B C 0.5330(3) 0.2602(2) 0.4652(3)
C28B C 0.5630(3) 0.2656(2) 0.3681(3)
H19B H 0.5139 0.2460 0.3140
N1B N 0.6126(3) 0.3292(2) -0.0488(2)
N2B N 0.7324(3) 0.4518(2) 0.0384(3)
O1B O 0.6487(3) 0.2750(2) 0.1765(2)
O2B O 0.7782(3) 0.3602(2) 0.2346(2)
O3B O 0.6158(2) 0.48058(17) 0.5943(2)
O4B O 0.3838(3) 0.2332(2) 0.5659(2)
O4A O 0.8838(3) 0.2668(2) 0.0659(2)
O4C O 0.1162(3) 0.7332(2) 0.9341(2)
O5B O 0.3727(4) 0.1794(3) 0.4210(3)
N3B N 0.7905(3) 0.3451(2) 0.6104(3)
H26B H 0.854(2) 0.362(3) 0.594(3)
C29 C -0.2003(13) 0.5409(11) 0.4133(13)
H20 H -0.2362 0.4946 0.3808
H21 H -0.2545 0.5842 0.4103
H22 H -0.1749 0.5285 0.4824
C30 C -0.1011(13) 0.5646(10) 0.3619(15)
H23 H -0.0476 0.5200 0.3672
H24 H -0.1281 0.5709 0.2911
O6 O -0.0384(4) 0.6342(4) 0.3931(6)
H25 H -0.085(5) 0.6749(15) 0.378(9)
loop_
_geom_bond_atom_site_label_1
_geom_bond_atom_site_label_2
_geom_bond_site_symmetry_1
_geom_bond_site_symmetry_2
Zn1 N1 1_555 1_555
C1 H1 1_555 1_555
C2 C1 1_555 1_555
H2 C2 1_555 1_555
C3 C2 1_555 1_555
H3 C3 1_555 1_555
C4 C3 1_555 1_555
C5 C4 1_555 1_555
H4 C5 1_555 1_555
C6 C5 1_555 1_555
H5 C6 1_555 1_555
C7 C6 1_555 1_555
C8 C7 1_555 1_555
H6 C8 1_555 1_555
C9 C8 1_555 1_555
H7 C9 1_555 1_555
C10 C9 1_555 1_555
H8 C10 1_555 1_555
C11 C7 1_555 1_555
C12 C4 1_555 1_555
C13 C14 1_555 1_555
C14 C15 1_555 1_555
C15 H9 1_555 1_555
C16 C15 1_555 1_555
C17 C16 1_555 1_555
H10 C17 1_555 1_555
C18 H11 1_555 1_555
H12 C18 1_555 1_555
C19 C18 1_555 1_555
C20 C19 1_555 1_555
H13 C20 1_555 1_555
C21 C20 1_555 1_555
H14 C21 1_555 1_555
C22 C21 1_555 1_555
H15 C22 1_555 1_555
C23 C22 1_555 1_555
H16 C23 1_555 1_555
C24 C19 1_555 1_555
C25 H17 1_555 1_555
H18 C25 1_555 1_555
C26 C27 1_555 1_555
C27 C17 1_555 1_555
C28 C14 1_555 1_555
H19 C28 1_555 1_555
N1 C10 1_555 1_555
N2 Zn1 1_555 1_555
O1 Zn1 1_555 1_555
O2 Zn1 1_555 1_555
O3 C24 1_555 1_555
O4 C26 1_555 1_555
O5 C26 1_555 1_555
C29 H20 1_555 1_555
H21 C29 1_555 1_555
H22 C29 1_555 1_555
C30 C29 1_555 1_555
H23 C30 1_555 1_555
H24 C30 1_555 1_555
O6 C30 1_555 1_555
H25 O6 1_555 1_555
N3 C16 1_555 1_555
H26 N3 1_555 1_555
Zn1B N1B 1_555 1_555
Zn1A O4B 1_555 1_555
Zn1C O4 1_555 1_555
C1B H1B 1_555 1_555
C2B C1B 1_555 1_555
H2B C2B 1_555 1_555
C3B C2B 1_555 1_555
H3B C3B 1_555 1_555
C4B C3B 1_555 1_555
C5B C4B 1_555 1_555
H4B C5B 1_555 1_555
C6B C5B 1_555 1_555
H5B C6B 1_555 1_555
C7B C6B 1_555 1_555
C8B C7B 1_555 1_555
H6B C8B 1_555 1_555
C9B C8B 1_555 1_555
H7B C9B 1_555 1_555
C10B C9B 1_555 1_555
H8B C10B 1_555 1_555
C11B C7B 1_555 1_555
C12B C4B 1_555 1_555
C13B C14B 1_555 1_555
C14B C15B 1_555 1_555
C15B H9B 1_555 1_555
C16B C15B 1_555 1_555
C17B C16B 1_555 1_555
H10B C17B 1_555 1_555
C18B H11B 1_555 1_555
H12B C18B 1_555 1_555
C19B C18B 1_555 1_555
C20B C19B 1_555 1_555
H13B C20B 1_555 1_555
C21B C20B 1_555 1_555
H14B C21B 1_555 1_555
C22B C21B 1_555 1_555
H15B C22B 1_555 1_555
C23B C22B 1_555 1_555
H16B C23B 1_555 1_555
C24B C19B 1_555 1_555
C25B C25 1_555 1_555
H17B C25B 1_555 1_555
H18B C25B 1_555 1_555
C26B C27B 1_555 1_555
C27B C17B 1_555 1_555
C28B C14B 1_555 1_555
H19B C28B 1_555 1_555
N1B C10B 1_555 1_555
N2B Zn1B 1_555 1_555
O1B Zn1B 1_555 1_555
O2B Zn1B 1_555 1_555
O3B C24B 1_555 1_555
O4B C26B 1_555 1_555
O4A Zn1B 1_555 1_555
O4C Zn1 1_555 1_555
O5B C26B 1_555 1_555
N3B C16B 1_555 1_555
H26B N3B 1_555 1_555
C1 N2 1_555 1_555
C11 C12 1_555 1_555
C11 N1 1_555 1_555
C12 N2 1_555 1_555
C13 O1 1_555 1_555
C13 O2 1_555 1_555
C18 N3 1_555 1_555
C23 C24 1_555 1_555
C25 O3 1_555 1_555
C27 C28 1_555 1_555
C1B N2B 1_555 1_555
C11B C12B 1_555 1_555
C11B N1B 1_555 1_555
C12B N2B 1_555 1_555
C13B O1B 1_555 1_555
C13B O2B 1_555 1_555
C18B N3B 1_555 1_555
C23B C24B 1_555 1_555
C25B O3B 1_555 1_555
C27B C28B 1_555 1_555

#END
