
#######################################################################
#
#                 Cambridge Crystallographic Data Centre
#                                CCDC 
#
#######################################################################
#
# If this CIF has been generated from an entry in the Cambridge 
# Structural Database, then it will include bibliographic, chemical, 
# crystal, experimental, refinement or atomic coordinate data resulting 
# from the CCDC's data processing and validation procedures.
#
#######################################################################

data_IXOSAQ
_symmetry_cell_setting           monoclinic
_symmetry_space_group_name_H-M   'C 2/c'
_symmetry_Int_Tables_number      15
_space_group_name_Hall           '-C 2yn'
loop_
_symmetry_equiv_pos_site_id
_symmetry_equiv_pos_as_xyz
1 x,y,z
2 -x,y,1/2-z
3 1/2+x,1/2+y,z
4 1/2-x,1/2+y,1/2-z
5 -x,-y,-z
6 x,-y,1/2+z
7 1/2-x,1/2-y,-z
8 1/2+x,1/2-y,1/2+z
_cell_length_a                   20.596(6)
_cell_length_b                   14.692(6)
_cell_length_c                   20.506(7)
_cell_angle_alpha                90
_cell_angle_beta                 90.981(14)
_cell_angle_gamma                90
_cell_volume                     6204.13
loop_
_atom_site_label
_atom_site_type_symbol
_atom_site_fract_x
_atom_site_fract_y
_atom_site_fract_z
Ni1 Ni 0.5000 0.5000 0.5000
C1 C 0.6098(2) 0.3507(3) 0.48336(19)
H1 H 0.5918 0.3250 0.5227
H2 H 0.6438 0.3929 0.4965
C2 C 0.6395(2) 0.2752(3) 0.44448(19)
C3 C 0.7042(3) 0.2744(4) 0.4268(2)
H3 H 0.7306 0.3236 0.4376
C4 C 0.7302(3) 0.2012(5) 0.3930(3)
H4 H 0.7740 0.2008 0.3829
C5 C 0.6920(4) 0.1308(4) 0.3750(3)
H5 H 0.7096 0.0827 0.3517
C6 C 0.6269(4) 0.1291(4) 0.3905(3)
H6 H 0.6004 0.0810 0.3775
C7 C 0.6022(3) 0.2008(3) 0.4260(2)
C8 C 0.5041(3) 0.1267(4) 0.4560(3)
H7 H 0.5334 0.0801 0.4725
H8 H 0.4855 0.1051 0.4150
C9 C 0.4534(3) 0.1402(4) 0.5013(4)
H9 H 0.4171 0.1697 0.4793
H10 H 0.4387 0.0815 0.5169
C10 C 0.4357(3) 0.2003(4) 0.6092(3)
C11 C 0.3961(4) 0.1324(4) 0.6324(4)
H11 H 0.3882 0.0802 0.6079
C12 C 0.3683(4) 0.1435(6) 0.6931(5)
H12 H 0.3423 0.0975 0.7096
C13 C 0.3783(4) 0.2194(6) 0.7285(4)
H13 H 0.3586 0.2260 0.7687
C14 C 0.4182(3) 0.2882(4) 0.7049(3)
H14 H 0.4261 0.3400 0.7299
C15 C 0.4460(2) 0.2797(3) 0.6445(2)
C16 C 0.4855(2) 0.3554(3) 0.61512(18)
H15 H 0.4973 0.3984 0.6492
H16 H 0.5254 0.3300 0.5984
C17 C 0.3946(2) 0.4555(3) 0.5855(2)
H17 H 0.3750 0.4230 0.6214
H18 H 0.3624 0.4617 0.5508
C18 C 0.5829(2) 0.4520(3) 0.39198(19)
H19 H 0.5489 0.4583 0.3590
H20 H 0.6188 0.4190 0.3731
C19 C 0.40202(19) 0.4162(3) 0.40756(18)
C20 C 0.36172(18) 0.4232(3) 0.34605(17)
C21 C 0.3497(2) 0.5075(3) 0.31934(19)
H21 H 0.3664 0.5585 0.3407
C22 C 0.3141(2) 0.5202(3) 0.2626(2)
H22 H 0.3067 0.5784 0.2462
C23 C 0.2900(2) 0.4455(4) 0.2310(2)
H23 H 0.2653 0.4528 0.1930
C24 C 0.3016(2) 0.3602(3) 0.2545(2)
H24 H 0.2861 0.3101 0.2313
C25 C 0.3365(2) 0.3465(3) 0.31299(18)
C26 C 0.3122(3) 0.1816(3) 0.3127(2)
H25 H 0.3256 0.1664 0.2689
H26 H 0.2663 0.1962 0.3110
C27 C 0.3234(3) 0.1014(4) 0.3569(3)
C28 C 0.3627(4) 0.0304(5) 0.3390(4)
H27 H 0.3837 0.0315 0.2992
C29 C 0.3709(5) -0.0449(5) 0.3820(5)
H28 H 0.3978 -0.0933 0.3713
C30 C 0.3379(5) -0.0443(6) 0.4401(5)
H29 H 0.3420 -0.0945 0.4675
C31 C 0.2994(4) 0.0266(5) 0.4595(4)
H30 H 0.2779 0.0264 0.4990
C32 C 0.2947(3) 0.0976(4) 0.4165(4)
C33 C 0.2545(4) 0.1992(5) 0.5003(4)
H31 H 0.2941 0.1828 0.5239
H32 H 0.2181 0.1694 0.5208
O1 O 0.53902(19) 0.2055(2) 0.4448(2)
O2 O 0.4725(2) 0.1910(3) 0.5523(2)
O3 O 0.40851(17) 0.34033(19) 0.43478(14)
O4 O 0.42826(13) 0.48807(17) 0.42844(12)
O5 O 0.2584(2) 0.1735(4) 0.4326(2)
N1 N 0.45124(16) 0.4045(2) 0.56187(15)
H33 H 0.4406(19) 0.363(2) 0.5348(16)
N2 N 0.55821(16) 0.4019(2) 0.44870(15)
H34 H 0.5300(16) 0.362(2) 0.4378(18)
N3 N 0.3486(2) 0.2602(3) 0.33604(18)
H35 H 0.361(2) 0.258(3) 0.3764(11)
Ni1B Ni 0.0000 0.0000 0.5000
C1D C 0.3902(2) 0.6493(3) 0.51664(19)
H1D H 0.4082 0.6750 0.4773
H2D H 0.3562 0.6071 0.5035
C2D C 0.3605(2) 0.7248(3) 0.55552(19)
C3D C 0.2958(3) 0.7256(4) 0.5732(2)
H3D H 0.2694 0.6764 0.5624
C4D C 0.2698(3) 0.7988(5) 0.6070(3)
H4D H 0.2260 0.7992 0.6171
C5D C 0.3080(4) 0.8692(4) 0.6250(3)
H5D H 0.2904 0.9173 0.6483
C6D C 0.3731(4) 0.8709(4) 0.6095(3)
H6D H 0.3996 0.9190 0.6225
C7D C 0.3978(3) 0.7992(3) 0.5740(2)
C8D C 0.4959(3) 0.8733(4) 0.5440(3)
H7D H 0.4666 0.9199 0.5275
H8D H 0.5145 0.8949 0.5850
C9D C 0.5466(3) 0.8598(4) 0.4987(4)
H9D H 0.5829 0.8303 0.5207
H10D H 0.5613 0.9185 0.4831
C10D C 0.5643(3) 0.7997(4) 0.3908(3)
C11D C 0.6039(4) 0.8676(4) 0.3676(4)
H11D H 0.6118 0.9198 0.3921
C12D C 0.6317(4) 0.8565(6) 0.3069(5)
H12D H 0.6577 0.9025 0.2904
C13D C 0.6217(4) 0.7806(6) 0.2715(4)
H13D H 0.6414 0.7740 0.2313
C14D C 0.5818(3) 0.7118(4) 0.2951(3)
H14D H 0.5739 0.6600 0.2701
C15D C 0.5540(2) 0.7203(3) 0.3555(2)
C16D C 0.5145(2) 0.6446(3) 0.38488(18)
H15D H 0.5027 0.6016 0.3508
H16D H 0.4746 0.6700 0.4016
C17D C 0.6054(2) 0.5445(3) 0.4145(2)
H17D H 0.6250 0.5770 0.3786
H18D H 0.6376 0.5383 0.4492
C18D C 0.4171(2) 0.5480(3) 0.60802(19)
H19D H 0.4511 0.5417 0.6410
H20D H 0.3812 0.5810 0.6269
C19F C 0.09798(19) 0.0838(3) 0.59244(18)
C20F C 0.13828(18) 0.0768(3) 0.65395(17)
C21F C 0.1503(2) -0.0075(3) 0.68066(19)
H21F H 0.1336 -0.0585 0.6593
C22F C 0.1859(2) -0.0202(3) 0.7374(2)
H22F H 0.1933 -0.0784 0.7538
C23F C 0.2100(2) 0.0545(4) 0.7690(2)
H23F H 0.2347 0.0472 0.8070
C24F C 0.1984(2) 0.1398(3) 0.7455(2)
H24F H 0.2139 0.1899 0.7687
C25F C 0.1635(2) 0.1535(3) 0.68701(18)
C26F C 0.1878(3) 0.3184(3) 0.6873(2)
H25F H 0.1744 0.3336 0.7311
H26F H 0.2337 0.3038 0.6890
C27F C 0.1766(3) 0.3986(4) 0.6431(3)
C28F C 0.1373(4) 0.4696(5) 0.6610(4)
H27F H 0.1163 0.4685 0.7008
C29F C 0.1291(5) 0.5449(5) 0.6180(5)
H28F H 0.1022 0.5933 0.6287
C30F C 0.1621(5) 0.5443(6) 0.5599(5)
H29F H 0.1580 0.5945 0.5325
C31F C 0.2006(4) 0.4734(5) 0.5405(4)
H30F H 0.2221 0.4736 0.5010
C32F C 0.2053(3) 0.4024(4) 0.5835(4)
C33F C 0.2455(4) 0.3008(5) 0.4997(4)
H31F H 0.2059 0.3172 0.4761
H32F H 0.2819 0.3306 0.4792
O1D O 0.46098(19) 0.7945(2) 0.5552(2)
O2D O 0.5275(2) 0.8090(3) 0.4477(2)
O3F O 0.09149(17) 0.15967(19) 0.56522(14)
O4F O 0.07174(13) 0.01193(17) 0.57156(12)
O4D O 0.57174(13) 0.51193(17) 0.57156(12)
O5F O 0.2416(2) 0.3265(4) 0.5674(2)
N1D N 0.54876(16) 0.5955(2) 0.43813(15)
H33D H 0.5594(19) 0.637(2) 0.4652(16)
N2D N 0.44179(16) 0.5981(2) 0.55130(15)
H34D H 0.4700(16) 0.638(2) 0.5622(18)
N3F N 0.1514(2) 0.2398(3) 0.66396(18)
H35F H 0.139(2) 0.242(3) 0.6236(11)
C34 C 0.5000 0.3047(12) 0.2500
O6 O 0.5000 0.2073(13) 0.2500
loop_
_geom_bond_atom_site_label_1
_geom_bond_atom_site_label_2
_geom_bond_site_symmetry_1
_geom_bond_site_symmetry_2
Ni1 O4 1_555 1_555
C1 H1 1_555 1_555
H2 C1 1_555 1_555
C2 C1 1_555 1_555
C3 C2 1_555 1_555
H3 C3 1_555 1_555
C4 C3 1_555 1_555
H4 C4 1_555 1_555
C5 C4 1_555 1_555
H5 C5 1_555 1_555
C6 C5 1_555 1_555
H6 C6 1_555 1_555
C7 C2 1_555 1_555
C8 H7 1_555 1_555
H8 C8 1_555 1_555
C9 C8 1_555 1_555
H9 C9 1_555 1_555
H10 C9 1_555 1_555
C10 C11 1_555 1_555
C11 H11 1_555 1_555
C12 C11 1_555 1_555
H12 C12 1_555 1_555
C13 C12 1_555 1_555
H13 C13 1_555 1_555
C14 C13 1_555 1_555
H14 C14 1_555 1_555
C15 C10 1_555 1_555
C16 C15 1_555 1_555
H15 C16 1_555 1_555
H16 C16 1_555 1_555
C17 H17 1_555 1_555
H18 C17 1_555 1_555
C18 H19 1_555 1_555
H20 C18 1_555 1_555
C19 C20 1_555 1_555
C20 C21 1_555 1_555
C21 H21 1_555 1_555
C22 C21 1_555 1_555
H22 C22 1_555 1_555
C23 C22 1_555 1_555
H23 C23 1_555 1_555
C24 C23 1_555 1_555
H24 C24 1_555 1_555
C25 C20 1_555 1_555
C26 H25 1_555 1_555
H26 C26 1_555 1_555
C27 C26 1_555 1_555
C28 C27 1_555 1_555
H27 C28 1_555 1_555
C29 C28 1_555 1_555
H28 C29 1_555 1_555
C30 C29 1_555 1_555
H29 C30 1_555 1_555
C31 C30 1_555 1_555
H30 C31 1_555 1_555
C32 C27 1_555 1_555
C33 H31 1_555 1_555
H32 C33 1_555 1_555
O1 C7 1_555 1_555
O2 C9 1_555 1_555
O3 C19 1_555 1_555
O4 C19 1_555 1_555
O5 C32 1_555 1_555
N1 Ni1 1_555 1_555
H33 N1 1_555 1_555
N2 Ni1 1_555 1_555
H34 N2 1_555 1_555
N3 C25 1_555 1_555
H35 N3 1_555 1_555
C34 O6 1_555 1_555
Ni1B O4F 1_555 1_555
C1D H1D 1_555 1_555
H2D C1D 1_555 1_555
C2D C1D 1_555 1_555
C3D C2D 1_555 1_555
H3D C3D 1_555 1_555
C4D C3D 1_555 1_555
H4D C4D 1_555 1_555
C5D C4D 1_555 1_555
H5D C5D 1_555 1_555
C6D C5D 1_555 1_555
H6D C6D 1_555 1_555
C7D C2D 1_555 1_555
C8D H7D 1_555 1_555
H8D C8D 1_555 1_555
C9D C8D 1_555 1_555
H9D C9D 1_555 1_555
H10D C9D 1_555 1_555
C10D C11D 1_555 1_555
C11D H11D 1_555 1_555
C12D C11D 1_555 1_555
H12D C12D 1_555 1_555
C13D C12D 1_555 1_555
H13D C13D 1_555 1_555
C14D C13D 1_555 1_555
H14D C14D 1_555 1_555
C15D C10D 1_555 1_555
C16D C15D 1_555 1_555
H15D C16D 1_555 1_555
H16D C16D 1_555 1_555
C17D C18 1_555 1_555
H17D C17D 1_555 1_555
H18D C17D 1_555 1_555
C18D C17 1_555 1_555
H19D C18D 1_555 1_555
H20D C18D 1_555 1_555
C19F C20F 1_555 1_555
C20F C21F 1_555 1_555
C21F H21F 1_555 1_555
C22F C21F 1_555 1_555
H22F C22F 1_555 1_555
C23F C22F 1_555 1_555
H23F C23F 1_555 1_555
C24F C23F 1_555 1_555
H24F C24F 1_555 1_555
C25F C20F 1_555 1_555
C26F H25F 1_555 1_555
H26F C26F 1_555 1_555
C27F C26F 1_555 1_555
C28F C27F 1_555 1_555
H27F C28F 1_555 1_555
C29F C28F 1_555 1_555
H28F C29F 1_555 1_555
C30F C29F 1_555 1_555
H29F C30F 1_555 1_555
C31F C30F 1_555 1_555
H30F C31F 1_555 1_555
C32F C27F 1_555 1_555
C33F C33 1_555 1_555
H31F C33F 1_555 1_555
H32F C33F 1_555 1_555
O1D C7D 1_555 1_555
O2D C9D 1_555 1_555
O3F C19F 1_555 1_555
O4F C19F 1_555 1_555
O4D Ni1 1_555 1_555
O5F C32F 1_555 1_555
N1D Ni1 1_555 1_555
H33D N1D 1_555 1_555
N2D Ni1 1_555 1_555
H34D N2D 1_555 1_555
N3F C25F 1_555 1_555
H35F N3F 1_555 1_555
C1 N2 1_555 1_555
C6 C7 1_555 1_555
C8 O1 1_555 1_555
C10 O2 1_555 1_555
C14 C15 1_555 1_555
C16 N1 1_555 1_555
C17 N1 1_555 1_555
C18 N2 1_555 1_555
C24 C25 1_555 1_555
C26 N3 1_555 1_555
C31 C32 1_555 1_555
C33 O5 1_555 1_555
C1D N2D 1_555 1_555
C6D C7D 1_555 1_555
C8D O1D 1_555 1_555
C10D O2D 1_555 1_555
C14D C15D 1_555 1_555
C16D N1D 1_555 1_555
C17D N1D 1_555 1_555
C18D N2D 1_555 1_555
C24F C25F 1_555 1_555
C26F N3F 1_555 1_555
C31F C32F 1_555 1_555
C33F O5F 1_555 1_555

#END
