
#######################################################################
#
#                 Cambridge Crystallographic Data Centre
#                                CCDC 
#
#######################################################################
#
# If this CIF has been generated from an entry in the Cambridge 
# Structural Database, then it will include bibliographic, chemical, 
# crystal, experimental, refinement or atomic coordinate data resulting 
# from the CCDC's data processing and validation procedures.
#
#######################################################################

data_IXOTIZ
_symmetry_cell_setting           monoclinic
_symmetry_space_group_name_H-M   'C 2/c'
_symmetry_Int_Tables_number      15
_space_group_name_Hall           '-C 2yn'
loop_
_symmetry_equiv_pos_site_id
_symmetry_equiv_pos_as_xyz
1 x,y,z
2 -x,y,1/2-z
3 1/2+x,1/2+y,z
4 1/2-x,1/2+y,1/2-z
5 -x,-y,-z
6 x,-y,1/2+z
7 1/2-x,1/2-y,-z
8 1/2+x,1/2-y,1/2+z
_cell_length_a                   10.1515(2)
_cell_length_b                   18.4750(3)
_cell_length_c                   16.1624(3)
_cell_angle_alpha                90
_cell_angle_beta                 100.441(2)
_cell_angle_gamma                90
_cell_volume                     2981.05
loop_
_atom_site_label
_atom_site_type_symbol
_atom_site_fract_x
_atom_site_fract_y
_atom_site_fract_z
Cd1 Cd 0.21353(2) 0.383136(10) 0.026390(11)
C1 C 0.1210(3) 0.50570(14) 0.14555(15)
H1 H 0.0800 0.5308 0.0979
C2 C 0.2379(3) 0.43421(19) 0.22771(17)
H2 H 0.2974 0.3971 0.2473
C3 C 0.0000 0.5632(2) 0.2500
H3 H 0.0416 0.5940 0.2960
C4 C 0.6137(3) 0.30632(13) 0.09878(15)
C5 C 0.6362(3) 0.24989(13) 0.15678(15)
H4 H 0.5658 0.2318 0.1803
C6 C 0.7631(3) 0.22070(14) 0.17943(15)
C7 C 0.8687(3) 0.24757(14) 0.14430(15)
H5 H 0.9538 0.2276 0.1590
C8 C 0.8462(3) 0.30471(13) 0.08676(15)
C9 C 0.7193(3) 0.33378(14) 0.06368(15)
H6 H 0.7044 0.3715 0.0250
C10 C 0.4752(3) 0.33623(14) 0.07472(15)
C11 C 0.9642(3) 0.33477(14) 0.05287(15)
N1 N 0.2076(2) 0.45270(12) 0.14537(12)
N2 N 0.1768(3) 0.47265(15) 0.27794(14)
N3 N 0.1004(2) 0.51830(12) 0.22276(12)
O1 O 0.4544(2) 0.39153(9) 0.02719(12)
O2 O 0.37990(19) 0.30796(9) 0.10368(11)
O3 O 0.9534(2) 0.39608(9) 0.01637(11)
O4 O 1.07146(19) 0.29909(10) 0.06427(11)
O5 O 0.7785(2) 0.16493(10) 0.23688(11)
H7 H 0.8410 0.1391 0.2295
O6 O 0.1850(2) 0.33130(9) -0.10538(11)
H8 H 0.2559 0.3376 -0.1246
H9 H 0.1636 0.2872 -0.1029
O7 O 0.1982(2) 0.49016(10) -0.04501(11)
H10 H 0.1542 0.5267 -0.0348
H11 H 0.2288 0.4939 -0.0900
Cd1A Cd -0.21353(2) 0.383136(10) 0.473610(11)
Cd1_2 Cd 1.21353(2) 0.383136(10) 0.026390(11)
Cd1_3 Cd -0.78647(2) 0.383136(10) 0.026390(11)
C1A C -0.1210(3) 0.50570(14) 0.35445(15)
H1A H -0.0800 0.5308 0.4021
C2A C -0.2379(3) 0.43421(19) 0.27229(17)
H2A H -0.2974 0.3971 0.2527
H3A H -0.0416 0.5940 0.2040
C4_2 C -0.3863(3) 0.30632(13) 0.09878(15)
C5_2 C -0.3638(3) 0.24989(13) 0.15678(15)
H4_2 H -0.4342 0.2318 0.1803
C6_2 C -0.2369(3) 0.22070(14) 0.17943(15)
C7_2 C -0.1313(3) 0.24757(14) 0.14430(15)
H5_2 H -0.0462 0.2276 0.1590
C8_2 C -0.1538(3) 0.30471(13) 0.08676(15)
C9_2 C -0.2807(3) 0.33378(14) 0.06368(15)
H6_2 H -0.2956 0.3715 0.0250
C10_2 C -0.5248(3) 0.33623(14) 0.07472(15)
C11_2 C -0.0358(3) 0.33477(14) 0.05287(15)
N1A N -0.2076(2) 0.45270(12) 0.35463(12)
N2A N -0.1768(3) 0.47265(15) 0.22206(14)
N3A N -0.1004(2) 0.51830(12) 0.27724(12)
O1_2 O -0.5456(2) 0.39153(9) 0.02719(12)
O1A O -0.4544(2) 0.39153(9) 0.47281(12)
O2_2 O -0.62010(19) 0.30796(9) 0.10368(11)
O2A O -0.37990(19) 0.30796(9) 0.39632(11)
O3_2 O -0.0466(2) 0.39608(9) 0.01637(11)
O3A O 0.0466(2) 0.39608(9) 0.48363(11)
O4_2 O 0.07146(19) 0.29909(10) 0.06427(11)
O4A O -0.07146(19) 0.29909(10) 0.43573(11)
O5_2 O -0.2215(2) 0.16493(10) 0.23688(11)
H7_2 H -0.1590 0.1391 0.2295
O6A O -0.1850(2) 0.33130(9) 0.60538(11)
H8A H -0.2559 0.3376 0.6246
H9A H -0.1636 0.2872 0.6029
O7A O -0.1982(2) 0.49016(10) 0.54501(11)
H10A H -0.1542 0.5267 0.5348
H11A H -0.2288 0.4939 0.5900
O8 O 1.0000 0.08846(14) 0.2500
H12 H 1.0021 0.0581 0.2107
H12A H 0.9979 0.0581 0.2893
O9 O 0.4807(3) 0.47455(11) 0.89154(12)
H14 H 0.4936 0.4424 0.9298
H15 H 0.5075 0.5157 0.9101
H13? H 0.9232 0.1092 0.2454
loop_
_geom_bond_atom_site_label_1
_geom_bond_atom_site_label_2
_geom_bond_site_symmetry_1
_geom_bond_site_symmetry_2
Cd1 N1 1_555 1_555
C1 H1 1_555 1_555
C2 H2 1_555 1_555
C3 H3 1_555 1_555
C4 C5 1_555 1_555
C5 H4 1_555 1_555
C6 C5 1_555 1_555
C7 C6 1_555 1_555
H5 C7 1_555 1_555
C8 C7 1_555 1_555
C9 C4 1_555 1_555
H6 C9 1_555 1_555
C10 C4 1_555 1_555
C11 C8 1_555 1_555
N1 C1 1_555 1_555
N2 C2 1_555 1_555
N3 C1 1_555 1_555
O1 Cd1 1_555 1_555
O2 Cd1 1_555 1_555
O3 C11 1_555 1_555
O4 C11 1_555 1_555
O5 C6 1_555 1_555
H7 O5 1_555 1_555
O6 Cd1 1_555 1_555
H8 O6 1_555 1_555
H9 O6 1_555 1_555
O7 Cd1 1_555 1_555
H10 O7 1_555 1_555
H11 O7 1_555 1_555
O8 H12 1_555 1_555
O9 H14 1_555 1_555
H15 O9 1_555 1_555
Cd1A N1A 1_555 1_555
Cd1_2 O3 1_555 1_555
Cd1_3 O1_2 1_555 1_555
C1A H1A 1_555 1_555
C2A H2A 1_555 1_555
H3A C3 1_555 1_555
C4_2 C5_2 1_555 1_555
C5_2 H4_2 1_555 1_555
C6_2 C5_2 1_555 1_555
C7_2 C6_2 1_555 1_555
H5_2 C7_2 1_555 1_555
C8_2 C7_2 1_555 1_555
C9_2 C4_2 1_555 1_555
H6_2 C9_2 1_555 1_555
C10_2 C4_2 1_555 1_555
C11_2 C8_2 1_555 1_555
N1A C1A 1_555 1_555
N2A C2A 1_555 1_555
N3A C3 1_555 1_555
O1_2 C10_2 1_555 1_555
O1A Cd1A 1_555 1_555
O2_2 Cd1_3 1_555 1_555
O2A Cd1A 1_555 1_555
O3_2 Cd1 1_555 1_555
O3A Cd1A 1_555 1_555
O4_2 Cd1 1_555 1_555
O4A Cd1A 1_555 1_555
O5_2 C6_2 1_555 1_555
H7_2 O5_2 1_555 1_555
O6A Cd1A 1_555 1_555
H8A O6A 1_555 1_555
H9A O6A 1_555 1_555
O7A Cd1A 1_555 1_555
H10A O7A 1_555 1_555
H11A O7A 1_555 1_555
H12A O8 1_555 1_555
C2 N1 1_555 1_555
C3 N3 1_555 1_555
C8 C9 1_555 1_555
C10 O1 1_555 1_555
C10 O2 1_555 1_555
N2 N3 1_555 1_555
O4 Cd1_2 1_555 1_555
C1A N3A 1_555 1_555
C2A N1A 1_555 1_555
C8_2 C9_2 1_555 1_555
C10_2 O2_2 1_555 1_555
C11_2 O3_2 1_555 1_555
C11_2 O4_2 1_555 1_555
N2A N3A 1_555 1_555

#END
