
#######################################################################
#
#                 Cambridge Crystallographic Data Centre
#                                CCDC 
#
#######################################################################
#
# If this CIF has been generated from an entry in the Cambridge 
# Structural Database, then it will include bibliographic, chemical, 
# crystal, experimental, refinement or atomic coordinate data resulting 
# from the CCDC's data processing and validation procedures.
#
#######################################################################

data_IXOVUM
_symmetry_cell_setting           monoclinic
_symmetry_space_group_name_H-M   'P 21/c'
_symmetry_Int_Tables_number      14
_space_group_name_Hall           '-P 2ybc'
loop_
_symmetry_equiv_pos_site_id
_symmetry_equiv_pos_as_xyz
1 x,y,z
2 x,1/2-y,1/2+z
3 -x,-y,-z
4 -x,1/2+y,1/2-z
_cell_length_a                   10.192(3)
_cell_length_b                   16.512(5)
_cell_length_c                   10.833(3)
_cell_angle_alpha                90
_cell_angle_beta                 99.621(9)
_cell_angle_gamma                90
_cell_volume                     1797.45
loop_
_atom_site_label
_atom_site_type_symbol
_atom_site_fract_x
_atom_site_fract_y
_atom_site_fract_z
Br1 Br 0.55421(8) 0.00802(4) 0.33193(6)
Cu1 Cu 0.57336(8) 0.07502(5) 0.53717(8)
P1 P 0.48585(18) 0.19703(10) 0.51309(16)
P2 P -0.22246(17) 0.45230(10) 0.13507(16)
O1 O 0.5831(5) 0.2678(3) 0.5742(5)
O2 O 0.3541(5) 0.2154(3) 0.5708(5)
O3 O 0.4444(5) 0.2288(3) 0.3735(4)
O4 O 0.2043(5) 0.4318(3) 0.4029(5)
O5 O -0.0986(5) 0.4066(3) 0.0919(5)
O6 O -0.1744(5) 0.5449(3) 0.1339(5)
O7 O -0.1998(5) 0.4331(3) 0.2810(4)
C1 C 0.5350(8) 0.3501(5) 0.5504(10)
H1 H 0.5887 0.3777 0.4975
H2 H 0.5426 0.3794 0.6289
C2 C 0.3074(9) 0.2988(5) 0.5654(8)
H3 H 0.3178 0.3212 0.6492
H4 H 0.2138 0.3007 0.5290
C3 C 0.3805(9) 0.3087(4) 0.3590(6)
H5 H 0.2880 0.3028 0.3204
H6 H 0.4245 0.3424 0.3050
C4 C 0.3885(6) 0.3486(4) 0.4855(6)
C5 C 0.3364(6) 0.4358(4) 0.4693(7)
H7 H 0.3375 0.4610 0.5504
H8 H 0.3917 0.4676 0.4228
C6 C 0.1572(6) 0.5045(4) 0.3390(6)
H9 H 0.2174 0.5215 0.2835
H10 H 0.1511 0.5476 0.3987
C7 C 0.0216(6) 0.4861(4) 0.2650(6)
C8 C 0.0289(7) 0.4167(5) 0.1735(7)
H11 H 0.0973 0.4280 0.1235
H12 H 0.0524 0.3670 0.2196
C9 C -0.0371(8) 0.5607(4) 0.1907(7)
H13 H -0.0336 0.6070 0.2462
H14 H 0.0150 0.5732 0.1260
C10 C -0.0750(7) 0.4631(5) 0.3528(7)
H15 H -0.0354 0.4215 0.4105
H16 H -0.0927 0.5100 0.4013
Cu1B Cu 0.42664(8) -0.07502(5) 0.46283(8)
Br1B Br 0.44579(8) -0.00802(4) 0.66807(6)
P2A P 0.77754(17) 0.04770(10) 0.63507(16)
Cu1A Cu -0.42664(8) 0.42498(5) 0.03717(8)
N1 N 0.9369(11) 0.2926(6) 0.5490(10)
C11 C 0.8741(10) 0.2654(6) 0.4668(11)
C12 C 0.7939(11) 0.2292(6) 0.3507(10)
H17 H 0.8486 0.2238 0.2872
H18 H 0.7197 0.2639 0.3209
H19 H 0.7619 0.1769 0.3704
loop_
_geom_bond_atom_site_label_1
_geom_bond_atom_site_label_2
_geom_bond_site_symmetry_1
_geom_bond_site_symmetry_2
Br1 Cu1 1_555 1_555
Cu1 P1 1_555 1_555
P1 O1 1_555 1_555
P2 O5 1_555 1_555
O1 C1 1_555 1_555
O2 P1 1_555 1_555
O3 P1 1_555 1_555
O4 C5 1_555 1_555
O5 C8 1_555 1_555
O6 P2 1_555 1_555
O7 P2 1_555 1_555
N1 C11 1_555 1_555
C1 H1 1_555 1_555
H2 C1 1_555 1_555
C2 O2 1_555 1_555
H3 C2 1_555 1_555
H4 C2 1_555 1_555
C3 O3 1_555 1_555
H5 C3 1_555 1_555
H6 C3 1_555 1_555
C4 C1 1_555 1_555
C5 C4 1_555 1_555
H7 C5 1_555 1_555
H8 C5 1_555 1_555
C6 O4 1_555 1_555
H9 C6 1_555 1_555
H10 C6 1_555 1_555
C7 C6 1_555 1_555
C8 C7 1_555 1_555
H11 C8 1_555 1_555
H12 C8 1_555 1_555
C9 O6 1_555 1_555
H13 C9 1_555 1_555
H14 C9 1_555 1_555
C10 O7 1_555 1_555
H15 C10 1_555 1_555
H16 C10 1_555 1_555
C11 C12 1_555 1_555
C12 H17 1_555 1_555
H18 C12 1_555 1_555
H19 C12 1_555 1_555
Cu1B Br1 1_555 1_555
Br1B Cu1 1_555 1_555
P2A Cu1 1_555 1_555
Cu1A P2 1_555 1_555
C2 C4 1_555 1_555
C3 C4 1_555 1_555
C7 C10 1_555 1_555
C7 C9 1_555 1_555
Cu1B Br1B 1_555 1_555

#END
