
#######################################################################
#
#                 Cambridge Crystallographic Data Centre
#                                CCDC 
#
#######################################################################
#
# If this CIF has been generated from an entry in the Cambridge 
# Structural Database, then it will include bibliographic, chemical, 
# crystal, experimental, refinement or atomic coordinate data resulting 
# from the CCDC's data processing and validation procedures.
#
#######################################################################

data_IXUCOT
_symmetry_cell_setting           monoclinic
_symmetry_space_group_name_H-M   'C c'
_symmetry_Int_Tables_number      9
_space_group_name_Hall           'C -2yc'
loop_
_symmetry_equiv_pos_site_id
_symmetry_equiv_pos_as_xyz
1 x,y,z
2 x,-y,1/2+z
3 1/2+x,1/2+y,z
4 1/2+x,1/2-y,1/2+z
_cell_length_a                   9.9464(13)
_cell_length_b                   23.685(5)
_cell_length_c                   7.9491(16)
_cell_angle_alpha                90
_cell_angle_beta                 117.677(13)
_cell_angle_gamma                90
_cell_volume                     1658.38
loop_
_atom_site_label
_atom_site_type_symbol
_atom_site_fract_x
_atom_site_fract_y
_atom_site_fract_z
Co1 Co 0.45567(6) 0.389008(14) 0.28928(6)
C1 C 0.3248(5) 0.37422(17) -0.1494(6)
C2 C 0.2711(6) 0.3454(2) -0.3212(6)
C3 C 0.2671(6) 0.2883(2) -0.3170(7)
C4 C 0.3163(5) 0.26026(17) -0.1466(6)
C5 C 0.3688(5) 0.29155(18) 0.0195(7)
C6 C 0.4274(4) 0.26625(15) 0.2104(6)
C7 C 0.4315(6) 0.20813(16) 0.2405(7)
C8 C 0.4925(7) 0.1882(2) 0.4229(9)
C9 C 0.5435(6) 0.2248(2) 0.5718(7)
C10 C 0.5368(6) 0.2828(2) 0.5335(7)
C11 C -0.2942(4) 0.41860(15) 0.2129(5)
C12 C -0.1897(4) 0.45639(14) 0.1837(5)
C13 C -0.0497(4) 0.43611(14) 0.2067(5)
C14 C 0.0528(4) 0.47228(16) 0.1921(5)
C15 C 0.0160(4) 0.52985(16) 0.1544(6)
C16 C -0.1205(4) 0.55034(14) 0.1334(5)
C17 C -0.2243(4) 0.51379(14) 0.1471(5)
C18 C 0.2050(4) 0.4533(2) 0.2145(5)
C19 C -0.3725(4) 0.53431(14) 0.1194(4)
O1 O 0.2898(4) 0.48829(19) 0.1963(6)
O2 O 0.2391(4) 0.40124(16) 0.2532(5)
O3 O -0.4195(3) 0.58426(10) 0.0710(4)
O4 O -0.2636(4) 0.36775(12) 0.2601(5)
N1 N 0.4786(3) 0.30305(13) 0.3577(4)
N2 N 0.3691(3) 0.34840(12) 0.0177(5)
N3 N -0.4553(3) 0.49665(13) 0.1522(4)
N4 N -0.4220(3) 0.44022(13) 0.2017(4)
H1 H 0.587(6) 0.2089(19) 0.709(6)
H2 H 0.338(8) 0.216(3) -0.108(10)
H3 H -0.031(5) 0.3932(16) 0.240(5)
H4 H 0.073(5) 0.5531(17) 0.138(6)
H5 H 0.551(6) 0.314(2) 0.612(7)
H6 H -0.140(6) 0.590(2) 0.119(7)
H7 H 0.340(6) 0.417(2) -0.134(8)
H8 H 0.250(7) 0.361(3) -0.424(9)
H9 H -0.533(6) 0.5047(19) 0.151(6)
H10 H 0.235(9) 0.272(3) -0.438(11)
H11 H 0.514(9) 0.145(3) 0.477(11)
H12 H 0.391(9) 0.185(3) 0.101(10)
O3A O 0.5805(3) 0.41574(10) 0.5710(4)
N4_2 N 0.5780(3) 0.44022(13) 0.2017(4)
Co1A Co -0.54433(6) 0.610992(14) -0.21072(6)
Co1_2 Co -0.54433(6) 0.389008(14) 0.28928(6)
loop_
_geom_bond_atom_site_label_1
_geom_bond_atom_site_label_2
_geom_bond_site_symmetry_1
_geom_bond_site_symmetry_2
Co1 O2 1_555 1_555
C1 C2 1_555 1_555
C2 C3 1_555 1_555
C3 C4 1_555 1_555
C4 C5 1_555 1_555
C5 C6 1_555 1_555
C6 C7 1_555 1_555
C7 C8 1_555 1_555
C8 C9 1_555 1_555
C9 C10 1_555 1_555
C10 N1 1_555 1_555
C11 C12 1_555 1_555
C12 C13 1_555 1_555
C13 C14 1_555 1_555
C14 C15 1_555 1_555
C15 C16 1_555 1_555
C16 C17 1_555 1_555
C17 C12 1_555 1_555
C18 C14 1_555 1_555
C19 C17 1_555 1_555
O1 C18 1_555 1_555
O2 C18 1_555 1_555
O3 C19 1_555 1_555
O4 C11 1_555 1_555
N1 Co1 1_555 1_555
N2 Co1 1_555 1_555
N3 C19 1_555 1_555
N4 C11 1_555 1_555
H1 C9 1_555 1_555
H2 C4 1_555 1_555
H3 C13 1_555 1_555
H4 C15 1_555 1_555
H5 C10 1_555 1_555
H6 C16 1_555 1_555
H7 C1 1_555 1_555
H8 C2 1_555 1_555
H9 N3 1_555 1_555
H10 C3 1_555 1_555
H11 C8 1_555 1_555
H12 C7 1_555 1_555
O3A Co1 1_555 1_555
N4_2 Co1 1_555 1_555
Co1A O3 1_555 1_555
Co1_2 N4 1_555 1_555
C1 N2 1_555 1_555
C5 N2 1_555 1_555
C6 N1 1_555 1_555
N3 N4 1_555 1_555

#END
