
#######################################################################
#
#                 Cambridge Crystallographic Data Centre
#                                CCDC 
#
#######################################################################
#
# If this CIF has been generated from an entry in the Cambridge 
# Structural Database, then it will include bibliographic, chemical, 
# crystal, experimental, refinement or atomic coordinate data resulting 
# from the CCDC's data processing and validation procedures.
#
#######################################################################

data_IXUHUE
_symmetry_cell_setting           monoclinic
_symmetry_space_group_name_H-M   'C 2/c'
_symmetry_Int_Tables_number      15
_space_group_name_Hall           '-C 2yn'
loop_
_symmetry_equiv_pos_site_id
_symmetry_equiv_pos_as_xyz
1 x,y,z
2 1/2+x,1/2+y,z
3 x,-y,1/2+z
4 1/2+x,1/2-y,1/2+z
5 -x,-y,-z
6 1/2-x,1/2-y,-z
7 -x,y,1/2-z
8 1/2-x,1/2+y,1/2-z
_cell_length_a                   26.6782(10)
_cell_length_b                   10.8981(4)
_cell_length_c                   25.4109(9)
_cell_angle_alpha                90
_cell_angle_beta                 116.8550(10)
_cell_angle_gamma                90
_cell_volume                     6591.23
loop_
_atom_site_label
_atom_site_type_symbol
_atom_site_fract_x
_atom_site_fract_y
_atom_site_fract_z
Cu1 Cu 0.044970(17) -0.40038(4) -0.102500(18)
Cu2 Cu -0.038740(18) -0.61646(5) -0.13886(2)
Mo1 Mo 0.242440(12) -0.10017(3) 0.021860(12)
Mo2 Mo 0.239500(12) -0.13685(3) -0.134850(12)
Mo3 Mo 0.134140(13) -0.15179(3) -0.104090(12)
Mo4 Mo 0.143790(12) -0.25320(3) 0.035590(12)
O1 O 0.25325(11) 0.0434(2) 0.05038(11)
O2 O 0.30823(11) -0.1657(2) 0.04004(11)
O3 O 0.21826(11) -0.0843(2) -0.05915(10)
O4 O 0.10336(12) -0.0168(3) -0.13533(11)
O5 O 0.07916(11) -0.2545(2) -0.12629(11)
O6 O 0.15048(10) -0.1298(2) -0.01922(10)
O7 O 0.08471(10) -0.3257(2) -0.01660(11)
O8 O 0.12097(12) -0.1744(2) 0.07823(11)
O9 O 0.18147(10) -0.3929(2) 0.07885(10)
O10 O 0.22200(11) 0.0089(2) -0.16104(11)
O11 O 0.24796(11) -0.2113(3) -0.18922(11)
O12 O 0.16656(11) -0.2066(2) -0.15208(10)
O13 O 0.22804(10) -0.1986(2) 0.07500(10)
C1 C 0.12639(14) -0.5877(3) -0.03498(15)
C2 C 0.15920(15) -0.6918(3) -0.02341(16)
C3 C 0.15545(16) -0.7632(3) -0.07025(16)
C4 C 0.11857(15) -0.7262(3) -0.12721(15)
C5 C 0.08640(13) -0.6222(3) -0.13496(14)
C6 C 0.04277(13) -0.5887(3) -0.19471(14)
C7 C 0.05281(13) -0.5741(3) -0.24419(14)
C8 C 0.10907(13) -0.5559(3) -0.24118(14)
C9 C 0.15464(14) -0.5052(3) -0.19295(15)
C10 C 0.20525(15) -0.4916(4) -0.19513(16)
C11 C 0.20916(16) -0.5282(4) -0.24535(18)
C12 C 0.16142(17) -0.5727(5) -0.29251(19)
C13 C -0.05861(16) -0.2678(3) -0.18176(15)
C14 C -0.11409(18) -0.2319(4) -0.20500(17)
C15 C -0.14505(19) -0.2620(5) -0.17546(19)
C16 C -0.11868(18) -0.3256(6) -0.1226(2)
C17 C -0.06290(15) -0.3568(4) -0.10224(16)
C18 C -0.03071(14) -0.4276(4) -0.04679(16)
C19 C -0.01154(14) -0.3824(4) 0.01080(16)
C20 C -0.01899(15) -0.2569(4) 0.02868(18)
C21 C -0.0438(2) -0.1591(5) -0.0091(2)
C22 C -0.0481(2) -0.0461(5) 0.0131(2)
C23 C -0.02694(19) -0.0301(5) 0.0729(2)
C24 C -0.00185(17) -0.1308(4) 0.1092(2)
H1 H 0.1294(16) -0.536(4) -0.0050(18)
H2 H 0.1846(16) -0.714(4) 0.0129(18)
H3 H 0.1771(15) -0.833(4) -0.0635(17)
H4 H 0.1110(18) -0.775(4) -0.1555(19)
H5 H 0.1521(18) -0.476(4) -0.164(2)
H6 H 0.2332(18) -0.463(4) -0.1658(19)
H7 H 0.2431(18) -0.523(4) -0.2482(19)
H8 H 0.163(2) -0.596(5) -0.326(2)
H9 H -0.0347(19) -0.250(4) -0.199(2)
H10 H -0.129(2) -0.201(5) -0.240(2)
H11 H -0.188(2) -0.254(5) -0.194(2)
H12 H -0.135(2) -0.336(6) -0.102(3)
H13 H -0.056(2) -0.160(5) -0.048(3)
H14 H -0.066(2) 0.020(6) -0.013(3)
H15 H -0.029(3) 0.044(6) 0.093(3)
H16 H 0.0151(19) -0.121(4) 0.152(2)
N1 N 0.08970(11) -0.5519(3) -0.08971(12)
N2 N 0.11180(13) -0.5865(3) -0.29150(14)
N3 N -0.00991(12) -0.5807(3) -0.20128(12)
N4 N -0.03297(12) -0.3319(3) -0.13151(12)
N5 N -0.01920(12) -0.5418(3) -0.05643(14)
N6 N 0.00204(13) -0.2404(3) 0.08791(15)
N3F N 0.00991(12) -0.5807(3) -0.29872(12)
C6F C -0.04277(13) -0.5887(3) -0.30529(14)
C5F C -0.08640(13) -0.6222(3) -0.36504(14)
C4F C -0.11857(15) -0.7262(3) -0.37279(15)
C3F C -0.15545(16) -0.7632(3) -0.42975(16)
C2F C -0.15920(15) -0.6918(3) -0.47659(16)
C1F C -0.12639(14) -0.5877(3) -0.46502(15)
H1F H -0.1294(16) -0.536(4) -0.4950(18)
N1F N -0.08970(11) -0.5519(3) -0.41029(12)
H2F H -0.1846(16) -0.714(4) -0.5129(18)
H3F H -0.1771(15) -0.833(4) -0.4365(17)
H4F H -0.1110(18) -0.775(4) -0.3445(19)
C7F C -0.05281(13) -0.5741(3) -0.25581(14)
C8F C -0.10907(13) -0.5559(3) -0.25882(14)
C9F C -0.15464(14) -0.5052(3) -0.30705(15)
C10F C -0.20525(15) -0.4916(4) -0.30487(16)
C11F C -0.20916(16) -0.5282(4) -0.25465(18)
C12F C -0.16142(17) -0.5727(5) -0.20749(19)
H8F H -0.163(2) -0.596(5) -0.174(2)
N2F N -0.11180(13) -0.5865(3) -0.20850(14)
H7F H -0.2431(18) -0.523(4) -0.2518(19)
H6F H -0.2332(18) -0.463(4) -0.3342(19)
H5F H -0.1521(18) -0.476(4) -0.336(2)
N5D N 0.01920(12) -0.4582(3) 0.05643(14)
C18D C 0.03071(14) -0.5724(4) 0.04679(16)
C17D C 0.06290(15) -0.6432(4) 0.10224(16)
C16D C 0.11868(18) -0.6744(6) 0.1226(2)
C15D C 0.14505(19) -0.7380(5) 0.17546(19)
C14D C 0.11409(18) -0.7681(4) 0.20500(17)
C13D C 0.05861(16) -0.7322(3) 0.18176(15)
H9D H 0.0347(19) -0.750(4) 0.199(2)
N4D N 0.03297(12) -0.6681(3) 0.13151(12)
H10D H 0.129(2) -0.799(5) 0.240(2)
H11D H 0.188(2) -0.746(5) 0.194(2)
H12D H 0.135(2) -0.664(6) 0.102(3)
C19D C 0.01154(14) -0.6176(4) -0.01080(16)
C20D C 0.01899(15) -0.7431(4) -0.02868(18)
C21D C 0.0438(2) -0.8409(5) 0.0091(2)
C22D C 0.0481(2) -0.9539(5) -0.0131(2)
C23D C 0.02694(19) -0.9699(5) -0.0729(2)
C24D C 0.00185(17) -0.8692(4) -0.1092(2)
H16D H -0.0151(19) -0.879(4) -0.152(2)
N6D N -0.00204(13) -0.7596(3) -0.08791(15)
H15D H 0.029(3) -1.044(6) -0.093(3)
H14D H 0.066(2) -1.020(6) 0.013(3)
H13D H 0.056(2) -0.840(5) 0.048(3)
Cu1F Cu -0.044970(17) -0.40038(4) -0.397500(18)
Cu2F Cu 0.038740(18) -0.61646(5) -0.36114(2)
Mo2E Mo 0.260500(12) -0.36315(3) 0.134850(12)
O9E O 0.31853(10) -0.1071(2) -0.07885(10)
O13E O 0.27196(10) -0.3014(2) -0.07500(10)
O3E O 0.28174(11) -0.4157(2) 0.05915(10)
O10E O 0.27800(11) -0.5089(2) 0.16104(11)
O11E O 0.25204(11) -0.2887(3) 0.18922(11)
O12E O 0.33344(11) -0.2934(2) 0.15208(10)
Mo1E Mo 0.257560(12) -0.39983(3) -0.021860(12)
O1E O 0.24675(11) -0.5434(2) -0.05038(11)
O2E O 0.19177(11) -0.3343(2) -0.04004(11)
Cu2D Cu 0.038740(18) -0.38354(5) 0.13886(2)
Cu1D Cu -0.044970(17) -0.59962(4) 0.102500(18)
Mo4E Mo 0.356210(12) -0.24680(3) -0.035590(12)
Mo3E Mo 0.365860(13) -0.34821(3) 0.104090(12)
O6E O 0.34952(10) -0.3702(2) 0.01922(10)
N2B N 0.11180(13) -0.4135(3) 0.20850(14)
N3D N 0.00991(12) -0.4193(3) 0.20128(12)
O5D O -0.07916(11) -0.7455(2) 0.12629(11)
O7D O -0.08471(10) -0.6743(2) 0.01660(11)
N1D N -0.08970(11) -0.4481(3) 0.08971(12)
O7E O 0.41529(10) -0.1743(2) 0.01660(11)
O8E O 0.37903(12) -0.3256(2) -0.07823(11)
O4E O 0.39664(12) -0.4832(3) 0.13533(11)
O5E O 0.42084(11) -0.2455(2) 0.12629(11)
Cu1E Cu 0.455030(17) -0.09962(4) 0.102500(18)
O14 O 0.2359(3) -0.7505(5) -0.8784(3)
O15 O 0.1642(3) -0.1154(6) -0.8010(3)
O16 O 0.0000 -0.8631(5) -0.2500
O17 O 0.0959(3) -0.9225(7) -0.2463(3)
loop_
_geom_bond_atom_site_label_1
_geom_bond_atom_site_label_2
_geom_bond_site_symmetry_1
_geom_bond_site_symmetry_2
Cu1 O5 1_555 1_555
Cu2 N3 1_555 1_555
Mo1 O1 1_555 1_555
Mo2 O3 1_555 1_555
Mo3 O3 1_555 1_555
Mo4 O6 1_555 1_555
O2 Mo1 1_555 1_555
O3 Mo1 1_555 1_555
O4 Mo3 1_555 1_555
O5 Mo3 1_555 1_555
O6 Mo1 1_555 1_555
O7 Cu1 1_555 1_555
O8 Mo4 1_555 1_555
O9 Mo4 1_555 1_555
O10 Mo2 1_555 1_555
O11 Mo2 1_555 1_555
O12 Mo2 1_555 1_555
O13 Mo1 1_555 1_555
C1 C2 1_555 1_555
C2 C3 1_555 1_555
C3 C4 1_555 1_555
C4 C5 1_555 1_555
C5 C6 1_555 1_555
C6 C7 1_555 1_555
C7 C8 1_555 1_555
C8 C9 1_555 1_555
C9 C10 1_555 1_555
C10 C11 1_555 1_555
C11 C12 1_555 1_555
C12 H8 1_555 1_555
C13 C14 1_555 1_555
C14 C15 1_555 1_555
C15 C16 1_555 1_555
C16 C17 1_555 1_555
C17 C18 1_555 1_555
C18 C19 1_555 1_555
C19 C20 1_555 1_555
C20 C21 1_555 1_555
C21 C22 1_555 1_555
C22 C23 1_555 1_555
C23 C24 1_555 1_555
C24 H16 1_555 1_555
H1 C1 1_555 1_555
H2 C2 1_555 1_555
H3 C3 1_555 1_555
H4 C4 1_555 1_555
H5 C9 1_555 1_555
H6 C10 1_555 1_555
H7 C11 1_555 1_555
H9 C13 1_555 1_555
H10 C14 1_555 1_555
H11 C15 1_555 1_555
H12 C16 1_555 1_555
H13 C21 1_555 1_555
H14 C22 1_555 1_555
H15 C23 1_555 1_555
N1 Cu1 1_555 1_555
N2 C8 1_555 1_555
N3 C6 1_555 1_555
N4 Cu1 1_555 1_555
N5 Cu2 1_555 1_555
N6 C20 1_555 1_555
N3F C7 1_555 1_555
C6F N3F 1_555 1_555
C5F C6F 1_555 1_555
C4F C5F 1_555 1_555
C3F C4F 1_555 1_555
C2F C3F 1_555 1_555
C1F C2F 1_555 1_555
H1F C1F 1_555 1_555
N1F C5F 1_555 1_555
H2F C2F 1_555 1_555
H3F C3F 1_555 1_555
H4F C4F 1_555 1_555
C7F N3 1_555 1_555
C8F C7F 1_555 1_555
C9F C8F 1_555 1_555
C10F C9F 1_555 1_555
C11F C10F 1_555 1_555
C12F C11F 1_555 1_555
H8F C12F 1_555 1_555
N2F Cu2 1_555 1_555
H7F C11F 1_555 1_555
H6F C10F 1_555 1_555
H5F C9F 1_555 1_555
N5D C19 1_555 1_555
C18D N5D 1_555 1_555
C17D C18D 1_555 1_555
C16D C17D 1_555 1_555
C15D C16D 1_555 1_555
C14D C15D 1_555 1_555
C13D C14D 1_555 1_555
H9D C13D 1_555 1_555
N4D C17D 1_555 1_555
H10D C14D 1_555 1_555
H11D C15D 1_555 1_555
H12D C16D 1_555 1_555
C19D N5 1_555 1_555
C20D C19D 1_555 1_555
C21D C20D 1_555 1_555
C22D C21D 1_555 1_555
C23D C22D 1_555 1_555
C24D C23D 1_555 1_555
H16D C24D 1_555 1_555
N6D Cu2 1_555 1_555
H15D C23D 1_555 1_555
H14D C22D 1_555 1_555
H13D C21D 1_555 1_555
Cu1F N1F 1_555 1_555
Cu2F N2 1_555 1_555
Mo2E O9 1_555 1_555
O9E Mo2 1_555 1_555
O13E Mo2 1_555 1_555
O3E Mo2E 1_555 1_555
O10E Mo2E 1_555 1_555
O11E Mo2E 1_555 1_555
O12E Mo2E 1_555 1_555
Mo1E O13E 1_555 1_555
O1E Mo1E 1_555 1_555
O2E Mo1E 1_555 1_555
Cu2D N6 1_555 1_555
Cu1D N4D 1_555 1_555
Mo4E O9E 1_555 1_555
Mo3E O3E 1_555 1_555
O6E Mo1E 1_555 1_555
N2B Cu2D 1_555 1_555
N3D Cu2D 1_555 1_555
O5D Cu1D 1_555 1_555
O7D Cu1D 1_555 1_555
N1D Cu1D 1_555 1_555
O7E Mo4E 1_555 1_555
O8E Mo4E 1_555 1_555
O4E Mo3E 1_555 1_555
O5E Mo3E 1_555 1_555
Cu1E O7E 1_555 1_555
Mo3 O6 1_555 1_555
Mo3 O12 1_555 1_555
Mo4 O7 1_555 1_555
Mo4 O13 1_555 1_555
O13 Mo2E 1_555 1_555
C1 N1 1_555 1_555
C5 N1 1_555 1_555
C12 N2 1_555 1_555
C13 N4 1_555 1_555
C17 N4 1_555 1_555
C18 N5 1_555 1_555
C24 N6 1_555 1_555
N3F Cu2F 1_555 1_555
C6F C7F 1_555 1_555
C1F N1F 1_555 1_555
C8F N2F 1_555 1_555
C12F N2F 1_555 1_555
N5D Cu2D 1_555 1_555
C18D C19D 1_555 1_555
C13D N4D 1_555 1_555
C20D N6D 1_555 1_555
C24D N6D 1_555 1_555
O13E Mo4E 1_555 1_555
O3E Mo1E 1_555 1_555
O12E Mo3E 1_555 1_555
Mo4E O6E 1_555 1_555
Mo3E O6E 1_555 1_555
O5E Cu1E 1_555 1_555

#END
