
#######################################################################
#
#                 Cambridge Crystallographic Data Centre
#                                CCDC 
#
#######################################################################
#
# If this CIF has been generated from an entry in the Cambridge 
# Structural Database, then it will include bibliographic, chemical, 
# crystal, experimental, refinement or atomic coordinate data resulting 
# from the CCDC's data processing and validation procedures.
#
#######################################################################

data_IXUPUN
_symmetry_cell_setting           monoclinic
_symmetry_space_group_name_H-M   'P 21/c'
_symmetry_Int_Tables_number      14
_space_group_name_Hall           '-P 2ybc'
loop_
_symmetry_equiv_pos_site_id
_symmetry_equiv_pos_as_xyz
1 x,y,z
2 -x,1/2+y,1/2-z
3 -x,-y,-z
4 x,1/2-y,1/2+z
_cell_length_a                   9.5348(5)
_cell_length_b                   13.7828(6)
_cell_length_c                   12.7311(6)
_cell_angle_alpha                90
_cell_angle_beta                 101.3780(10)
_cell_angle_gamma                90
_cell_volume                     1640.19
loop_
_atom_site_label
_atom_site_type_symbol
_atom_site_fract_x
_atom_site_fract_y
_atom_site_fract_z
Mn1 Mn 1.0000 0.0000 0.0000
Mn2 Mn 1.03215(3) 0.245727(19) -0.07111(2)
O1 O 0.89501(13) 0.11328(9) -0.11046(10)
O2 O 0.77129(15) 0.24614(9) -0.09604(12)
O3 O 0.24199(14) 0.18858(10) -0.06607(11)
O4 O 0.17934(14) 0.03293(10) -0.06427(11)
O5 O 0.46162(18) -0.22103(12) -0.17010(15)
O6 O 0.64686(18) -0.18725(12) -0.23720(15)
N1 N 1.02453(17) 0.11639(11) 0.12768(12)
N2 N 1.03227(17) 0.21052(12) 0.09897(12)
N3 N 1.02351(18) 0.26752(12) 0.17944(12)
N4 N 1.00878(17) 0.21164(11) 0.26255(12)
N5 N 1.13550(18) 0.10812(12) 0.46460(13)
N6 N 0.54772(19) -0.16372(13) -0.19485(15)
C1 C 1.0102(2) 0.11960(13) 0.22969(14)
C2 C 0.9975(2) 0.03464(15) 0.30127(16)
H1 H 0.9967 -0.0261 0.2597
H2 H 0.9055 0.0390 0.3259
C3 C 1.1190(2) 0.03062(14) 0.39795(16)
C4 C 1.2467(2) 0.10624(16) 0.54935(16)
H3 H 1.2610 0.1608 0.5959
C5 C 1.3393(2) 0.02970(17) 0.57118(18)
H4 H 1.4164 0.0317 0.6311
C6 C 1.3190(3) -0.05048(17) 0.5048(2)
H5 H 1.3807 -0.1050 0.5192
C7 C 1.2069(2) -0.04994(15) 0.41654(19)
H6 H 1.1909 -0.1042 0.3696
C8 C 0.6422(2) 0.09612(14) -0.13156(15)
C9 C 0.5143(2) 0.13035(14) -0.10823(14)
H7 H 0.5061 0.1966 -0.0896
C10 C 0.3982(2) 0.06803(14) -0.11209(14)
C11 C 0.4088(2) -0.02875(14) -0.14035(15)
H8 H 0.3314 -0.0723 -0.1408
C12 C 0.5343(2) -0.06020(14) -0.16777(15)
C13 C 0.6507(2) -0.00002(14) -0.16440(15)
H9 H 0.7355 -0.0236 -0.1841
C14 C 0.7750(2) 0.15776(14) -0.11258(14)
C15 C 0.2628(2) 0.10021(14) -0.07852(14)
Mn1_2 Mn 0.0000 0.0000 0.0000
Mn1_3 Mn 2.0000 0.0000 0.0000
Mn2B Mn 0.96785(3) -0.245727(19) 0.07111(2)
Mn2_2 Mn 0.03215(3) 0.245727(19) -0.07111(2)
Mn2C Mn 1.03215(3) 0.254273(19) 0.42889(2)
Mn2B_2 Mn 1.96785(3) -0.245727(19) 0.07111(2)
Mn2A Mn 0.96785(3) -0.254273(19) -0.42889(2)
O1B O 1.10499(13) -0.11328(9) 0.11046(10)
O2B O 1.22871(15) -0.24614(9) 0.09604(12)
O3B O 1.75801(14) -0.18858(10) 0.06607(11)
O3_2 O 1.24199(14) 0.18858(10) -0.06607(11)
O3B_2 O 0.75801(14) -0.18858(10) 0.06607(11)
O4B O 1.82066(14) -0.03293(10) 0.06427(11)
O4_2 O 1.17934(14) 0.03293(10) -0.06427(11)
O4B_2 O 0.82066(14) -0.03293(10) 0.06427(11)
O5B O 1.53838(18) 0.22103(12) 0.17010(15)
O6B O 1.35314(18) 0.18725(12) 0.23720(15)
N1B N 0.97547(17) -0.11639(11) -0.12768(12)
N2B N 0.96773(17) -0.21052(12) -0.09897(12)
N3B N 0.97649(18) -0.26752(12) -0.17944(12)
N4B N 0.99122(17) -0.21164(11) -0.26255(12)
N4C N 1.00878(17) 0.28836(11) -0.23745(12)
N4A N 0.99122(17) -0.28836(11) 0.23745(12)
N5B N 0.86450(18) -0.10812(12) -0.46460(13)
N5C N 1.13550(18) 0.39188(12) -0.03540(13)
N5A N 0.86450(18) -0.39188(12) 0.03540(13)
N6B N 1.45228(19) 0.16372(13) 0.19485(15)
C1B C 0.9898(2) -0.11960(13) -0.22969(14)
C2B C 1.0025(2) -0.03464(15) -0.30127(16)
H1B H 1.0033 0.0261 -0.2597
H2B H 1.0945 -0.0390 -0.3259
C3B C 0.8810(2) -0.03062(14) -0.39795(16)
C4B C 0.7533(2) -0.10624(16) -0.54935(16)
H3B H 0.7390 -0.1608 -0.5959
C5B C 0.6607(2) -0.02970(17) -0.57118(18)
H4B H 0.5836 -0.0317 -0.6311
C6B C 0.6810(3) 0.05048(17) -0.5048(2)
H5B H 0.6193 0.1050 -0.5192
C7B C 0.7931(2) 0.04994(15) -0.41654(19)
H6B H 0.8091 0.1042 -0.3696
C8B C 1.3578(2) -0.09612(14) 0.13156(15)
C9B C 1.4857(2) -0.13035(14) 0.10823(14)
H7B H 1.4939 -0.1966 0.0896
C10B C 1.6018(2) -0.06803(14) 0.11209(14)
C11B C 1.5912(2) 0.02875(14) 0.14035(15)
H8B H 1.6686 0.0723 0.1408
C12B C 1.4657(2) 0.06020(14) 0.16777(15)
C13B C 1.3493(2) 0.00002(14) 0.16440(15)
H9B H 1.2645 0.0236 0.1841
C14B C 1.2250(2) -0.15776(14) 0.11258(14)
C15B C 1.7372(2) -0.10021(14) 0.07852(14)
loop_
_geom_bond_atom_site_label_1
_geom_bond_atom_site_label_2
_geom_bond_site_symmetry_1
_geom_bond_site_symmetry_2
Mn1 O1 1_555 1_555
Mn2 O1 1_555 1_555
O1 C14 1_555 1_555
O2 Mn2 1_555 1_555
O3 C15 1_555 1_555
O4 C15 1_555 1_555
O5 N6 1_555 1_555
O6 N6 1_555 1_555
N1 Mn1 1_555 1_555
N2 Mn2 1_555 1_555
N3 N2 1_555 1_555
N4 N3 1_555 1_555
N5 C3 1_555 1_555
N6 C12 1_555 1_555
C1 N1 1_555 1_555
C2 C1 1_555 1_555
H1 C2 1_555 1_555
H2 C2 1_555 1_555
C3 C2 1_555 1_555
C4 N5 1_555 1_555
H3 C4 1_555 1_555
C5 C4 1_555 1_555
H4 C5 1_555 1_555
C6 C5 1_555 1_555
H5 C6 1_555 1_555
C7 C3 1_555 1_555
H6 C7 1_555 1_555
C8 C9 1_555 1_555
C9 H7 1_555 1_555
C10 C9 1_555 1_555
C11 C10 1_555 1_555
H8 C11 1_555 1_555
C12 C11 1_555 1_555
C13 C8 1_555 1_555
H9 C13 1_555 1_555
C14 O2 1_555 1_555
C15 C10 1_555 1_555
Mn1_2 O4 1_555 1_555
Mn1_3 O4B 1_555 1_555
Mn2B O1B 1_555 1_555
Mn2_2 O3 1_555 1_555
Mn2C N4 1_555 1_555
Mn2B_2 O3B 1_555 1_555
Mn2A N4B 1_555 1_555
O1B Mn1 1_555 1_555
O2B Mn2B 1_555 1_555
O3B C15B 1_555 1_555
O3_2 Mn2 1_555 1_555
O3B_2 Mn2B 1_555 1_555
O4B C15B 1_555 1_555
O4_2 Mn1 1_555 1_555
O4B_2 Mn1 1_555 1_555
O5B N6B 1_555 1_555
O6B N6B 1_555 1_555
N1B Mn1 1_555 1_555
N2B Mn2B 1_555 1_555
N3B N2B 1_555 1_555
N4B N3B 1_555 1_555
N4C Mn2 1_555 1_555
N4A Mn2B 1_555 1_555
N5B Mn2A 1_555 1_555
N5C Mn2 1_555 1_555
N5A Mn2B 1_555 1_555
N6B C12B 1_555 1_555
C1B N1B 1_555 1_555
C2B C1B 1_555 1_555
H1B C2B 1_555 1_555
H2B C2B 1_555 1_555
C3B N5B 1_555 1_555
C4B N5B 1_555 1_555
H3B C4B 1_555 1_555
C5B C4B 1_555 1_555
H4B C5B 1_555 1_555
C6B C5B 1_555 1_555
H5B C6B 1_555 1_555
C7B C3B 1_555 1_555
H6B C7B 1_555 1_555
C8B C9B 1_555 1_555
C9B H7B 1_555 1_555
C10B C9B 1_555 1_555
C11B C10B 1_555 1_555
H8B C11B 1_555 1_555
C12B C11B 1_555 1_555
C13B C8B 1_555 1_555
H9B C13B 1_555 1_555
C14B O1B 1_555 1_555
C15B C10B 1_555 1_555
N1 N2 1_555 1_555
N4 C1 1_555 1_555
N5 Mn2C 1_555 1_555
C6 C7 1_555 1_555
C8 C14 1_555 1_555
C12 C13 1_555 1_555
O2B C14B 1_555 1_555
N1B N2B 1_555 1_555
N4B C1B 1_555 1_555
C2B C3B 1_555 1_555
C6B C7B 1_555 1_555
C8B C14B 1_555 1_555
C12B C13B 1_555 1_555

#END
