
#######################################################################
#
#                 Cambridge Crystallographic Data Centre
#                                CCDC 
#
#######################################################################
#
# If this CIF has been generated from an entry in the Cambridge 
# Structural Database, then it will include bibliographic, chemical, 
# crystal, experimental, refinement or atomic coordinate data resulting 
# from the CCDC's data processing and validation procedures.
#
#######################################################################

data_IXUWOO
_symmetry_cell_setting           monoclinic
_symmetry_space_group_name_H-M   'C 2/c'
_symmetry_Int_Tables_number      15
_space_group_name_Hall           '-C 2yn'
loop_
_symmetry_equiv_pos_site_id
_symmetry_equiv_pos_as_xyz
1 x,y,z
2 -x,y,1/2-z
3 1/2+x,1/2+y,z
4 1/2-x,1/2+y,1/2-z
5 -x,-y,-z
6 x,-y,1/2+z
7 1/2-x,1/2-y,-z
8 1/2+x,1/2-y,1/2+z
_cell_length_a                   22.162(2)
_cell_length_b                   20.532(2)
_cell_length_c                   16.1364(15)
_cell_angle_alpha                90
_cell_angle_beta                 95.937(2)
_cell_angle_gamma                90
_cell_volume                     7303.17
loop_
_atom_site_label
_atom_site_type_symbol
_atom_site_fract_x
_atom_site_fract_y
_atom_site_fract_z
Co1 Co 0.21323(4) 1.01443(4) 0.75473(5)
N1 N 0.1893(2) 0.9232(3) 0.7039(3)
N2 N 0.1677(3) 0.7381(3) 0.5990(4)
H1 H 0.1988 0.7257 0.5755
N3 N -0.1948(2) 0.5088(3) 0.2867(3)
N4 N -0.0200(3) 0.5581(3) 0.3901(4)
H2 H -0.0162 0.5984 0.4046
O1 O 0.1186(2) 1.0321(3) 0.7820(3)
O2 O 0.1885(2) 0.9951(3) 0.8738(3)
O3 O 0.2314(2) 1.1181(2) 0.7474(3)
O4 O 0.2239(2) 1.0569(2) 0.6377(3)
O5 O 0.0758(3) 0.7034(4) 0.6326(5)
O6 O 0.0315(2) 0.4648(3) 0.3826(4)
C1 C 0.1342(3) 1.0125(4) 0.8538(4)
C2 C 0.0743(3) 0.9889(4) 1.0625(5)
H3 H 0.0893 0.9820 1.1178
C3 C 0.1131(3) 0.9940(4) 1.0029(5)
H4 H 0.1546 0.9892 1.0172
C4 C 0.0904(3) 1.0068(4) 0.9187(4)
C5 C 0.0307(3) 1.0132(4) 0.8965(5)
H5 H 0.0166 1.0221 0.8414
C6 C -0.0123(3) 1.0060(4) 0.9593(4)
C7 C 0.2312(3) 1.1119(3) 0.6694(4)
C8 C 0.2665(3) 1.2822(3) 0.6072(4)
H6 H 0.2783 1.3212 0.6333
C9 C 0.2577(3) 1.2294(3) 0.6546(4)
H7 H 0.2629 1.2326 0.7124
C10 C 0.2408(3) 1.1698(3) 0.6163(4)
C11 C 0.2336(3) 1.1652(3) 0.5322(4)
H8 H 0.2231 1.1253 0.5073
C12 C 0.2419(3) 1.2202(3) 0.4814(4)
C13 C 0.1219(4) 0.6945(4) 0.5966(5)
C14 C 0.0298(3) 0.5211(4) 0.4067(5)
C15 C 0.1311(3) 0.6330(4) 0.5479(5)
C16 C 0.0795(3) 0.6066(4) 0.5029(5)
H9 H 0.0421 0.6267 0.5051
C17 C 0.0832(3) 0.5519(4) 0.4562(4)
C18 C 0.1375(3) 0.5203(4) 0.4572(4)
H10 H 0.1403 0.4821 0.4268
C19 C 0.1890(3) 0.5458(4) 0.5044(5)
H11 H 0.2258 0.5238 0.5067
C20 C 0.1850(3) 0.6035(4) 0.5472(5)
H12 H 0.2195 0.6218 0.5755
C21 C 0.1440(3) 0.8859(4) 0.7198(5)
H13 H 0.1171 0.9019 0.7554
C22 C 0.1339(3) 0.8245(4) 0.6871(5)
H14 H 0.1013 0.7999 0.7014
C23 C 0.1721(3) 0.7998(4) 0.6334(4)
C24 C 0.2169(4) 0.8401(4) 0.6142(5)
H15 H 0.2430 0.8265 0.5760
C25 C 0.2244(3) 0.8996(4) 0.6493(4)
H16 H 0.2559 0.9256 0.6343
C26 C -0.1817(3) 0.5627(4) 0.3300(5)
H17 H -0.2135 0.5904 0.3391
C27 C -0.1248(3) 0.5803(4) 0.3622(5)
H18 H -0.1185 0.6196 0.3905
C28 C -0.0770(3) 0.5396(3) 0.3524(4)
C29 C -0.0889(3) 0.4851(4) 0.3063(5)
H19 H -0.0576 0.4573 0.2955
C30 C -0.1483(3) 0.4711(3) 0.2754(4)
H20 H -0.1557 0.4330 0.2450
Co1D Co -0.21323(4) 0.98557(4) 1.24527(5)
Co1C Co 0.28677(4) 1.51443(4) 1.74527(5)
Co1F Co 0.28677(4) 1.48557(4) 0.24527(5)
Co1G Co -0.28677(4) 0.48557(4) 0.25473(5)
N1D N -0.1893(2) 1.0768(3) 1.2961(3)
N2D N -0.1677(3) 1.2619(3) 1.4010(4)
H1D H -0.1988 1.2743 1.4245
N3D N 0.1948(2) 1.4912(3) 1.7133(3)
N3C N -0.3052(2) 1.0088(3) 1.2133(3)
N3G N 0.3052(2) 0.9912(3) 0.7867(3)
N4D N 0.0200(3) 1.4419(3) 1.6099(4)
H2D H 0.0162 1.4016 1.5954
O1D O -0.1186(2) 0.9679(3) 1.2180(3)
O2D O -0.1885(2) 1.0049(3) 1.1262(3)
O3F O 0.2686(2) 1.3819(2) 0.2526(3)
O3D O -0.2314(2) 0.8819(2) 1.2526(3)
O4F O 0.2761(2) 1.4431(2) 0.3623(3)
O4D O -0.2239(2) 0.9431(2) 1.3623(3)
O5D O -0.0758(3) 1.2966(4) 1.3674(5)
O6D O -0.0315(2) 1.5352(3) 1.6174(4)
C1D C -0.1342(3) 0.9875(4) 1.1462(4)
C2D C -0.0743(3) 1.0111(4) 0.9375(5)
H3D H -0.0893 1.0180 0.8822
C3D C -0.1131(3) 1.0060(4) 0.9971(5)
H4D H -0.1546 1.0108 0.9828
C4D C -0.0904(3) 0.9932(4) 1.0813(4)
C5D C -0.0307(3) 0.9868(4) 1.1035(5)
H5D H -0.0166 0.9779 1.1586
C6D C 0.0123(3) 0.9940(4) 1.0407(4)
C7F C 0.2688(3) 1.3881(3) 0.3306(4)
C8F C 0.2335(3) 1.2178(3) 0.3928(4)
H6F H 0.2217 1.1788 0.3667
C9F C 0.2423(3) 1.2706(3) 0.3454(4)
H7F H 0.2371 1.2674 0.2876
C10F C 0.2592(3) 1.3302(3) 0.3837(4)
C11F C 0.2664(3) 1.3348(3) 0.4678(4)
H8F H 0.2769 1.3747 0.4927
C12F C 0.2581(3) 1.2798(3) 0.5186(4)
C13D C -0.1219(4) 1.3055(4) 1.4034(5)
C14D C -0.0298(3) 1.4789(4) 1.5933(5)
C15D C -0.1311(3) 1.3670(4) 1.4521(5)
C16D C -0.0795(3) 1.3934(4) 1.4971(5)
H9D H -0.0421 1.3733 1.4949
C17D C -0.0832(3) 1.4481(4) 1.5438(4)
C18D C -0.1375(3) 1.4797(4) 1.5428(4)
H10D H -0.1403 1.5179 1.5732
C19D C -0.1890(3) 1.4542(4) 1.4956(5)
H11D H -0.2258 1.4762 1.4933
C20D C -0.1850(3) 1.3965(4) 1.4528(5)
H12D H -0.2195 1.3782 1.4245
C21D C -0.1440(3) 1.1141(4) 1.2802(5)
H13D H -0.1171 1.0981 1.2446
C22D C -0.1339(3) 1.1755(4) 1.3129(5)
H14D H -0.1013 1.2001 1.2986
C23D C -0.1721(3) 1.2002(4) 1.3666(4)
C24D C -0.2169(4) 1.1599(4) 1.3858(5)
H15D H -0.2430 1.1735 1.4240
C25D C -0.2244(3) 1.1004(4) 1.3507(4)
H16D H -0.2559 1.0744 1.3657
C26D C 0.1817(3) 1.4373(4) 1.6700(5)
H17D H 0.2135 1.4096 1.6609
C27D C 0.1248(3) 1.4197(4) 1.6378(5)
H18D H 0.1185 1.3804 1.6095
C28D C 0.0770(3) 1.4604(3) 1.6476(4)
C29D C 0.0889(3) 1.5149(4) 1.6937(5)
H19D H 0.0576 1.5427 1.7045
C30D C 0.1483(3) 1.5289(3) 1.7246(4)
H20D H 0.1557 1.5670 1.7550
N5 N 0.1234(4) 0.7728(6) 0.3141(7)
O7 O 0.1971(3) 0.7748(4) 0.4257(4)
C31 C 0.1654(5) 0.7981(6) 0.3689(8)
H21 H 0.1714 0.8425 0.3619
C32 C 0.1137(7) 0.7002(8) 0.3135(10)
H22 H 0.1343 0.6816 0.3632
H23 H 0.1294 0.6816 0.2656
H24 H 0.0711 0.6910 0.3115
C33 C 0.0933(6) 0.8051(8) 0.2411(9)
H25 H 0.0564 0.7825 0.2228
H26 H 0.1195 0.8050 0.1973
H27 H 0.0841 0.8492 0.2549
N6 N 0.4629(10) 0.7191(13) 0.0149(17)
O8 O 0.4627(6) 0.8023(5) -0.0678(9)
C34 C 0.4450(10) 0.7758(15) -0.014(2)
H28 H 0.4151 0.7966 0.0129
C35 C 0.4425(9) 0.6836(11) 0.0866(16)
H29 H 0.4369 0.7138 0.1305
H30 H 0.4725 0.6519 0.1061
H31 H 0.4048 0.6620 0.0697
C36 C 0.5139(14) 0.6846(12) -0.0216(18)
H32 H 0.4977 0.6497 -0.0567
H33 H 0.5417 0.6674 0.0225
H34 H 0.5348 0.7148 -0.0540
loop_
_geom_bond_atom_site_label_1
_geom_bond_atom_site_label_2
_geom_bond_site_symmetry_1
_geom_bond_site_symmetry_2
Co1 N1 1_555 1_555
N1 C21 1_555 1_555
N2 H1 1_555 1_555
N3 C26 1_555 1_555
N4 H2 1_555 1_555
N5 C31 1_555 1_555
N6 C34 1_555 1_555
O1 Co1 1_555 1_555
O2 Co1 1_555 1_555
O3 Co1 1_555 1_555
O4 Co1 1_555 1_555
O5 C13 1_555 1_555
O6 C14 1_555 1_555
O7 C31 1_555 1_555
O8 C34 1_555 1_555
C1 O1 1_555 1_555
C2 H3 1_555 1_555
C3 C2 1_555 1_555
H4 C3 1_555 1_555
C4 C1 1_555 1_555
C5 C4 1_555 1_555
H5 C5 1_555 1_555
C6 C5 1_555 1_555
C7 O3 1_555 1_555
C8 H6 1_555 1_555
C9 C8 1_555 1_555
H7 C9 1_555 1_555
C10 C7 1_555 1_555
C11 C10 1_555 1_555
H8 C11 1_555 1_555
C12 C11 1_555 1_555
C13 N2 1_555 1_555
C14 N4 1_555 1_555
C15 C13 1_555 1_555
C16 C15 1_555 1_555
H9 C16 1_555 1_555
C17 C14 1_555 1_555
C18 C17 1_555 1_555
H10 C18 1_555 1_555
C19 C18 1_555 1_555
H11 C19 1_555 1_555
C20 C15 1_555 1_555
H12 C20 1_555 1_555
C21 H13 1_555 1_555
C22 C21 1_555 1_555
H14 C22 1_555 1_555
C23 N2 1_555 1_555
C24 C23 1_555 1_555
H15 C24 1_555 1_555
C25 N1 1_555 1_555
H16 C25 1_555 1_555
C26 H17 1_555 1_555
C27 C26 1_555 1_555
H18 C27 1_555 1_555
C28 N4 1_555 1_555
C29 C28 1_555 1_555
H19 C29 1_555 1_555
C30 N3 1_555 1_555
H20 C30 1_555 1_555
C31 H21 1_555 1_555
C32 N5 1_555 1_555
H22 C32 1_555 1_555
H23 C32 1_555 1_555
H24 C32 1_555 1_555
C33 N5 1_555 1_555
H25 C33 1_555 1_555
H26 C33 1_555 1_555
H27 C33 1_555 1_555
C34 H28 1_555 1_555
C35 N6 1_555 1_555
H29 C35 1_555 1_555
H30 C35 1_555 1_555
H31 C35 1_555 1_555
C36 N6 1_555 1_555
H32 C36 1_555 1_555
H33 C36 1_555 1_555
H34 C36 1_555 1_555
Co1D N1D 1_555 1_555
Co1C N3D 1_555 1_555
Co1F O3F 1_555 1_555
Co1G N3 1_555 1_555
N1D C21D 1_555 1_555
N2D H1D 1_555 1_555
N3D C26D 1_555 1_555
N3C Co1D 1_555 1_555
N3G Co1 1_555 1_555
N4D H2D 1_555 1_555
O1D Co1D 1_555 1_555
O2D Co1D 1_555 1_555
O3F C7F 1_555 1_555
O3D Co1D 1_555 1_555
O4F Co1F 1_555 1_555
O4D Co1D 1_555 1_555
O5D C13D 1_555 1_555
O6D C14D 1_555 1_555
C1D O1D 1_555 1_555
C2D C6 1_555 1_555
H3D C2D 1_555 1_555
C3D C2D 1_555 1_555
H4D C3D 1_555 1_555
C4D C1D 1_555 1_555
C5D C4D 1_555 1_555
H5D C5D 1_555 1_555
C6D C2 1_555 1_555
C7F O4F 1_555 1_555
C8F C12 1_555 1_555
H6F C8F 1_555 1_555
C9F C8F 1_555 1_555
H7F C9F 1_555 1_555
C10F C7F 1_555 1_555
C11F C10F 1_555 1_555
H8F C11F 1_555 1_555
C12F C8 1_555 1_555
C13D N2D 1_555 1_555
C14D N4D 1_555 1_555
C15D C13D 1_555 1_555
C16D C15D 1_555 1_555
H9D C16D 1_555 1_555
C17D C14D 1_555 1_555
C18D C17D 1_555 1_555
H10D C18D 1_555 1_555
C19D C18D 1_555 1_555
H11D C19D 1_555 1_555
C20D C15D 1_555 1_555
H12D C20D 1_555 1_555
C21D H13D 1_555 1_555
C22D C21D 1_555 1_555
H14D C22D 1_555 1_555
C23D N2D 1_555 1_555
C24D C23D 1_555 1_555
H15D C24D 1_555 1_555
C25D N1D 1_555 1_555
H16D C25D 1_555 1_555
C26D H17D 1_555 1_555
C27D C26D 1_555 1_555
H18D C27D 1_555 1_555
C28D N4D 1_555 1_555
C29D C28D 1_555 1_555
H19D C29D 1_555 1_555
C30D N3D 1_555 1_555
H20D C30D 1_555 1_555
O2 C1 1_555 1_555
O4 C7 1_555 1_555
C3 C4 1_555 1_555
C6 C6D 1_555 1_555
C9 C10 1_555 1_555
C12 C12F 1_555 1_555
C16 C17 1_555 1_555
C19 C20 1_555 1_555
C22 C23 1_555 1_555
C24 C25 1_555 1_555
C27 C28 1_555 1_555
C29 C30 1_555 1_555
O2D C1D 1_555 1_555
C3D C4D 1_555 1_555
C5D C6D 1_555 1_555
C9F C10F 1_555 1_555
C11F C12F 1_555 1_555
C16D C17D 1_555 1_555
C19D C20D 1_555 1_555
C22D C23D 1_555 1_555
C24D C25D 1_555 1_555
C27D C28D 1_555 1_555
C29D C30D 1_555 1_555

#END
