
#######################################################################
#
#                 Cambridge Crystallographic Data Centre
#                                CCDC 
#
#######################################################################
#
# If this CIF has been generated from an entry in the Cambridge 
# Structural Database, then it will include bibliographic, chemical, 
# crystal, experimental, refinement or atomic coordinate data resulting 
# from the CCDC's data processing and validation procedures.
#
#######################################################################

data_IXUWUU
_symmetry_cell_setting           monoclinic
_symmetry_space_group_name_H-M   'C 2/c'
_symmetry_Int_Tables_number      15
_space_group_name_Hall           '-C 2yn'
loop_
_symmetry_equiv_pos_site_id
_symmetry_equiv_pos_as_xyz
1 x,y,z
2 -x,y,1/2-z
3 1/2+x,1/2+y,z
4 1/2-x,1/2+y,1/2-z
5 -x,-y,-z
6 x,-y,1/2+z
7 1/2-x,1/2-y,-z
8 1/2+x,1/2-y,1/2+z
_cell_length_a                   7.601(2)
_cell_length_b                   29.239(8)
_cell_length_c                   14.315(4)
_cell_angle_alpha                90
_cell_angle_beta                 96.331(5)
_cell_angle_gamma                90
_cell_volume                     3162.04
loop_
_atom_site_label
_atom_site_type_symbol
_atom_site_fract_x
_atom_site_fract_y
_atom_site_fract_z
Co1 Co 0.5000 0.07069(2) 0.2500
O1 O 0.7609(3) 0.05232(8) 0.28872(15)
O2 O 0.5617(3) 0.02068(8) 0.36892(17)
O3 O 0.4784(4) 0.28102(9) -0.00283(18)
N1 N 0.5189(3) 0.11971(9) 0.14311(18)
N2 N 0.5636(4) 0.21557(10) -0.0711(2)
C1 C 0.7204(4) 0.02887(10) 0.3581(2)
C2 C 0.8654(4) 0.01302(10) 0.4305(2)
C3 C 1.0422(4) 0.01781(11) 0.4156(2)
H1 H 1.0718 0.0302 0.3580
C4 C 0.5174(5) 0.26099(11) -0.0725(2)
C5 C 0.8240(4) -0.00456(11) 0.5157(2)
H2 H 0.7037 -0.0075 0.5269
C6 C 0.5483(5) 0.18515(12) 0.0019(2)
C7 C 0.5000 0.26089(16) -0.2500
H3 H 0.5000 0.2284 -0.2500
C8 C 0.6126(5) 0.11188(12) 0.0711(2)
H4 H 0.6704 0.0832 0.0686
C9 C 0.6308(5) 0.14276(12) 0.0005(2)
H5 H 0.6993 0.1352 -0.0490
C10 C 0.5000 0.35584(16) -0.2500
H6 H 0.5000 0.3883 -0.2500
C11 C 0.4485(5) 0.19350(13) 0.0757(3)
H7 H 0.3895 0.2219 0.0800
C12 C 0.5119(5) 0.28440(11) -0.1651(2)
C13 C 0.5100(5) 0.33211(11) -0.1662(3)
H8 H 0.5156 0.3485 -0.1086
C14 C 0.4359(5) 0.16032(13) 0.1423(3)
H9 H 0.3638 0.1664 0.1910
H16 H 0.620(6) 0.2061(14) -0.120(3)
Co1_2 Co 0.5000 0.07069(2) -0.7500
Co1D Co 1.5000 -0.07069(2) 0.7500
O1D O 1.2391(3) -0.05232(8) 0.71128(15)
O1A O 0.2391(3) 0.05232(8) 0.21128(15)
O2D O 1.4383(3) -0.02068(8) 0.63108(17)
O2A O 0.4383(3) 0.02068(8) 0.13108(17)
O3A O 0.5216(4) 0.28102(9) -0.49717(18)
N1A N 0.4811(3) 0.11971(9) -0.64311(18)
N1A_2 N 0.4811(3) 0.11971(9) 0.35689(18)
N2A N 0.4364(4) 0.21557(10) -0.4289(2)
C1D C 1.2796(4) -0.02887(10) 0.6419(2)
C2D C 1.1346(4) -0.01302(10) 0.5695(2)
C3D C 0.9578(4) -0.01781(11) 0.5844(2)
H1D H 0.9282 -0.0302 0.6420
C4A C 0.4826(5) 0.26099(11) -0.4275(2)
C5D C 1.1760(4) 0.00456(11) 0.4843(2)
H2D H 1.2963 0.0075 0.4731
C6A C 0.4517(5) 0.18515(12) -0.5019(2)
C8A C 0.3874(5) 0.11188(12) -0.5711(2)
H4A H 0.3296 0.0832 -0.5686
C9A C 0.3692(5) 0.14276(12) -0.5005(2)
H5A H 0.3007 0.1352 -0.4510
C11A C 0.5515(5) 0.19350(13) -0.5757(3)
H7A H 0.6105 0.2219 -0.5800
C12A C 0.4881(5) 0.28440(11) -0.3349(2)
C13A C 0.4900(5) 0.33211(11) -0.3338(3)
H8A H 0.4844 0.3485 -0.3914
C14A C 0.5641(5) 0.16032(13) -0.6423(3)
H9A H 0.6362 0.1664 -0.6910
H16A H 0.380(6) 0.2061(14) -0.380(3)
O4 O 0.2267(5) 0.33586(13) 0.2892(2)
N3 N 0.2921(5) 0.38197(11) 0.1713(2)
C15 C 0.2343(10) 0.42385(19) 0.2128(5)
H10 H 0.1972 0.4172 0.2748
H11 H 0.1345 0.4368 0.1722
H12 H 0.3322 0.4458 0.2195
C16 C 0.2820(7) 0.34235(16) 0.2130(3)
C17 C 0.3640(7) 0.38615(16) 0.0820(3)
H13 H 0.3979 0.3558 0.0609
H14 H 0.4683 0.4061 0.0894
H15 H 0.2743 0.3994 0.0353
H17 H 0.328(6) 0.3173(16) 0.176(3)
loop_
_geom_bond_atom_site_label_1
_geom_bond_atom_site_label_2
_geom_bond_site_symmetry_1
_geom_bond_site_symmetry_2
Co1 O1 1_555 1_555
O1 C1 1_555 1_555
O2 Co1 1_555 1_555
O3 C4 1_555 1_555
N1 Co1 1_555 1_555
N2 C4 1_555 1_555
C1 O2 1_555 1_555
C2 C1 1_555 1_555
C3 C2 1_555 1_555
H1 C3 1_555 1_555
C4 C12 1_555 1_555
C5 C2 1_555 1_555
H2 C5 1_555 1_555
C6 N2 1_555 1_555
C7 H3 1_555 1_555
C8 N1 1_555 1_555
H4 C8 1_555 1_555
C9 C6 1_555 1_555
H5 C9 1_555 1_555
C10 H6 1_555 1_555
C11 C6 1_555 1_555
H7 C11 1_555 1_555
C12 C7 1_555 1_555
C13 C10 1_555 1_555
H8 C13 1_555 1_555
C14 N1 1_555 1_555
H9 C14 1_555 1_555
O4 C16 1_555 1_555
N3 C15 1_555 1_555
C15 H10 1_555 1_555
H11 C15 1_555 1_555
H12 C15 1_555 1_555
C16 N3 1_555 1_555
C17 N3 1_555 1_555
H13 C17 1_555 1_555
H14 C17 1_555 1_555
H15 C17 1_555 1_555
H16 N2 1_555 1_555
H17 C16 1_555 1_555
Co1_2 N1A 1_555 1_555
Co1D O1D 1_555 1_555
O1D C1D 1_555 1_555
O1A Co1 1_555 1_555
O2D Co1D 1_555 1_555
O2A Co1 1_555 1_555
O3A C4A 1_555 1_555
N1A C8A 1_555 1_555
N1A_2 Co1 1_555 1_555
N2A C4A 1_555 1_555
C1D O2D 1_555 1_555
C2D C1D 1_555 1_555
C3D C5 1_555 1_555
H1D C3D 1_555 1_555
C4A C12A 1_555 1_555
C5D C3 1_555 1_555
H2D C5D 1_555 1_555
C6A N2A 1_555 1_555
C8A H4A 1_555 1_555
C9A C6A 1_555 1_555
H5A C9A 1_555 1_555
C11A C6A 1_555 1_555
H7A C11A 1_555 1_555
C12A C7 1_555 1_555
C13A C10 1_555 1_555
H8A C13A 1_555 1_555
C14A N1A 1_555 1_555
H9A C14A 1_555 1_555
H16A N2A 1_555 1_555
C8 C9 1_555 1_555
C11 C14 1_555 1_555
C12 C13 1_555 1_555
C2D C3D 1_555 1_555
C2D C5D 1_555 1_555
C8A C9A 1_555 1_555
C11A C14A 1_555 1_555
C12A C13A 1_555 1_555

#END
