
#######################################################################
#
#                 Cambridge Crystallographic Data Centre
#                                CCDC 
#
#######################################################################
#
# If this CIF has been generated from an entry in the Cambridge 
# Structural Database, then it will include bibliographic, chemical, 
# crystal, experimental, refinement or atomic coordinate data resulting 
# from the CCDC's data processing and validation procedures.
#
#######################################################################

data_IXUZUW
_symmetry_cell_setting           orthorhombic
_symmetry_space_group_name_H-M   'P n a 21'
_symmetry_Int_Tables_number      33
_space_group_name_Hall           'P 2c -2n'
loop_
_symmetry_equiv_pos_site_id
_symmetry_equiv_pos_as_xyz
1 x,y,z
2 -x,-y,1/2+z
3 1/2+x,1/2-y,z
4 1/2-x,1/2+y,1/2+z
_cell_length_a                   16.069(3)
_cell_length_b                   16.859(3)
_cell_length_c                   6.9970(14)
_cell_angle_alpha                90
_cell_angle_beta                 90
_cell_angle_gamma                90
_cell_volume                     1895.54
loop_
_atom_site_label
_atom_site_type_symbol
_atom_site_fract_x
_atom_site_fract_y
_atom_site_fract_z
Cu1 Cu 0.36239(3) 0.35438(3) 0.32420(13)
O1 O 0.3163(2) 0.3313(3) 0.6262(6)
H1 H 0.3543 0.3127 0.6904
O2 O 0.3493(2) 0.2419(2) 0.2617(4)
O3 O 0.3859(2) 0.27277(18) -0.0362(5)
O4 O 0.34060(14) 0.12528(18) -0.1652(9)
O5 O 0.6421(2) 0.1089(2) -0.1921(9)
O6 O 0.7847(2) 0.0712(2) -0.0356(6)
O7 O 0.74859(17) 0.1250(2) 0.2453(4)
N1 N 0.39403(18) 0.46984(19) 0.3535(8)
N2 N 0.48602(19) 0.3428(2) 0.3722(6)
C1 C 0.3607(3) 0.2262(3) 0.0856(7)
C2 C 0.3413(3) 0.1410(3) 0.0312(7)
H2 H 0.3822 0.1067 0.0911
H3 H 0.2873 0.1272 0.0834
C3 C 0.4157(3) 0.1116(3) -0.2572(7)
C4 C 0.4112(3) 0.0842(3) -0.4443(7)
H4 H 0.3597 0.0772 -0.5026
C5 C 0.4831(3) 0.0676(3) -0.5430(7)
H5 H 0.4799 0.0500 -0.6687
C6 C 0.5597(3) 0.0768(3) -0.4579(7)
H6 H 0.6082 0.0650 -0.5247
C7 C 0.5635(3) 0.1043(3) -0.2681(7)
C8 C 0.4923(2) 0.1245(2) -0.1729(12)
H7 H 0.4954 0.1469 -0.0517
C9 C 0.6486(3) 0.1259(3) 0.0023(7)
H8 H 0.6077 0.0955 0.0733
H9 H 0.6381 0.1818 0.0242
C10 C 0.7357(3) 0.1047(3) 0.0702(8)
C11 C 0.3421(2) 0.5307(3) 0.3478(12)
H10 H 0.2854 0.5207 0.3354
C12 C 0.3685(3) 0.6081(3) 0.3594(9)
H11 H 0.3306 0.6498 0.3566
C13 C 0.4531(3) 0.6221(3) 0.3753(7)
H12 H 0.4728 0.6739 0.3825
C14 C 0.5077(3) 0.5601(3) 0.3805(7)
H13 H 0.5645 0.5691 0.3923
C15 C 0.4774(2) 0.4841(3) 0.3682(7)
C16 C 0.5283(3) 0.4119(3) 0.3730(7)
C17 C 0.6145(3) 0.4127(3) 0.3826(7)
H14 H 0.6436 0.4604 0.3809
C18 C 0.6564(3) 0.3413(3) 0.3947(7)
H15 H 0.7142 0.3405 0.4007
C19 C 0.6123(3) 0.2714(3) 0.3980(8)
H16 H 0.6394 0.2228 0.4083
C20 C 0.5272(3) 0.2754(3) 0.3857(8)
H17 H 0.4971 0.2283 0.3869
H18 H 0.280(3) 0.364(3) 0.719(7)
O7B O 0.24859(17) 0.3750(2) 0.2453(4)
Cu1B Cu 0.86239(3) 0.14562(3) 0.32420(13)
loop_
_geom_bond_atom_site_label_1
_geom_bond_atom_site_label_2
_geom_bond_site_symmetry_1
_geom_bond_site_symmetry_2
Cu1 O1 1_555 1_555
O1 H1 1_555 1_555
O2 Cu1 1_555 1_555
O3 C1 1_555 1_555
O4 C2 1_555 1_555
O5 C7 1_555 1_555
O6 C10 1_555 1_555
O7 C10 1_555 1_555
N1 Cu1 1_555 1_555
N2 Cu1 1_555 1_555
C1 O2 1_555 1_555
C2 C1 1_555 1_555
H2 C2 1_555 1_555
H3 C2 1_555 1_555
C3 O4 1_555 1_555
C4 C3 1_555 1_555
H4 C4 1_555 1_555
C5 C4 1_555 1_555
H5 C5 1_555 1_555
C6 C5 1_555 1_555
H6 C6 1_555 1_555
C7 C6 1_555 1_555
C8 C3 1_555 1_555
H7 C8 1_555 1_555
C9 O5 1_555 1_555
H8 C9 1_555 1_555
H9 C9 1_555 1_555
C10 C9 1_555 1_555
C11 N1 1_555 1_555
H10 C11 1_555 1_555
C12 C11 1_555 1_555
H11 C12 1_555 1_555
C13 C12 1_555 1_555
H12 C13 1_555 1_555
C14 C13 1_555 1_555
H13 C14 1_555 1_555
C15 N1 1_555 1_555
C16 N2 1_555 1_555
C17 C16 1_555 1_555
H14 C17 1_555 1_555
C18 C17 1_555 1_555
H15 C18 1_555 1_555
C19 C18 1_555 1_555
H16 C19 1_555 1_555
C20 N2 1_555 1_555
H17 C20 1_555 1_555
H18 O1 1_555 1_555
O7B Cu1 1_555 1_555
Cu1B O7 1_555 1_555
C7 C8 1_555 1_555
C14 C15 1_555 1_555
C15 C16 1_555 1_555
C19 C20 1_555 1_555

#END
