
#######################################################################
#
#                 Cambridge Crystallographic Data Centre
#                                CCDC 
#
#######################################################################
#
# If this CIF has been generated from an entry in the Cambridge 
# Structural Database, then it will include bibliographic, chemical, 
# crystal, experimental, refinement or atomic coordinate data resulting 
# from the CCDC's data processing and validation procedures.
#
#######################################################################

data_IYAGUK
_symmetry_cell_setting           orthorhombic
_symmetry_space_group_name_H-M   'P n m a'
_symmetry_Int_Tables_number      62
_space_group_name_Hall           '-P 2ac 2n'
loop_
_symmetry_equiv_pos_site_id
_symmetry_equiv_pos_as_xyz
1 x,y,z
2 1/2+x,y,1/2-z
3 x,1/2-y,z
4 1/2-x,1/2+y,1/2+z
5 -x,-y,-z
6 1/2-x,-y,1/2+z
7 -x,1/2+y,-z
8 1/2+x,1/2-y,1/2-z
_cell_length_a                   15.872(3)
_cell_length_b                   12.222(2)
_cell_length_c                   7.3917(12)
_cell_angle_alpha                90
_cell_angle_beta                 90
_cell_angle_gamma                90
_cell_volume                     1433.9
loop_
_atom_site_label
_atom_site_type_symbol
_atom_site_fract_x
_atom_site_fract_y
_atom_site_fract_z
Ni1 Ni 0.38415(2) 0.2500 0.67882(5)
N1 N 0.27205(19) 0.2500 0.8205(4)
N2 N 0.15067(18) 0.2500 1.0214(4)
N3 N 0.00258(19) 0.2500 0.9389(4)
N4 N 0.42812(18) 0.1263(3) 0.8486(3)
N5 N 0.5487(3) 0.0616(5) 1.0289(9)
N6 N 0.33738(12) 0.13244(15) 0.4827(3)
C1 C 0.2127(2) 0.2500 0.9071(5)
C2 C 0.0724(2) 0.2500 0.9669(5)
C3 C 0.4849(5) 0.0953(7) 0.9343(8)
C4 C 0.4414(5) 0.0371(8) 0.9087(8)
C5 C 0.3062(4) 0.1958(3) 0.3352(5)
H1 H 0.3375 0.1732 0.2290
H2 H 0.2483 0.1732 0.3160
C6 C 0.2722(3) 0.0612(3) 0.5555(5)
H3 H 0.2241 0.1043 0.5895
H4 H 0.2935 0.0235 0.6599
H5 H 0.2558 0.0089 0.4653
C7 C 0.4026(2) 0.0593(4) 0.4137(7)
H6 H 0.3778 0.0073 0.3322
H7 H 0.4285 0.0212 0.5128
H8 H 0.4445 0.1013 0.3506
C4D C 0.5586(5) -0.0371(8) 1.0913(8)
N4D N 0.57188(18) -0.1263(3) 1.1514(3)
C3D C 0.5151(5) -0.0953(7) 1.0657(8)
N5D N 0.4513(3) -0.0616(5) 0.9711(9)
C5B C 0.3062(4) 0.3042(3) 0.3352(5)
N6B N 0.33738(12) 0.36756(15) 0.4827(3)
C6B C 0.2722(3) 0.4388(3) 0.5555(5)
H3B H 0.2241 0.3957 0.5895
H4B H 0.2935 0.4765 0.6599
H5B H 0.2558 0.4911 0.4653
C7B C 0.4026(2) 0.4407(4) 0.4137(7)
H6B H 0.3778 0.4927 0.3322
H7B H 0.4285 0.4788 0.5128
H8B H 0.4445 0.3987 0.3506
H1B H 0.3375 0.3268 0.2290
H2B H 0.2483 0.3268 0.3160
N3A N 0.50258(19) 0.2500 0.5611(4)
N4B N 0.42812(18) 0.3737(3) 0.8486(3)
Ni1A Ni -0.11585(2) 0.2500 0.82118(5)
Ni1D Ni 0.61585(2) -0.2500 1.32118(5)
loop_
_geom_bond_atom_site_label_1
_geom_bond_atom_site_label_2
_geom_bond_site_symmetry_1
_geom_bond_site_symmetry_2
Ni1 N1 1_555 1_555
N1 C1 1_555 1_555
N2 C1 1_555 1_555
N3 C2 1_555 1_555
N4 Ni1 1_555 1_555
N5 C3 1_555 1_555
N6 Ni1 1_555 1_555
C2 N2 1_555 1_555
C3 N4 1_555 1_555
C4 N4 1_555 1_555
C5 N6 1_555 1_555
H1 C5 1_555 1_555
H2 C5 1_555 1_555
C6 N6 1_555 1_555
H3 C6 1_555 1_555
H4 C6 1_555 1_555
H5 C6 1_555 1_555
C7 N6 1_555 1_555
H6 C7 1_555 1_555
H7 C7 1_555 1_555
H8 C7 1_555 1_555
C4D N5 1_555 1_555
N4D C4D 1_555 1_555
C3D C4D 1_555 1_555
N5D C4 1_555 1_555
C5B C5 1_555 1_555
N6B Ni1 1_555 1_555
C6B N6B 1_555 1_555
H3B C6B 1_555 1_555
H4B C6B 1_555 1_555
H5B C6B 1_555 1_555
C7B N6B 1_555 1_555
H6B C7B 1_555 1_555
H7B C7B 1_555 1_555
H8B C7B 1_555 1_555
H1B C5B 1_555 1_555
H2B C5B 1_555 1_555
N3A Ni1 1_555 1_555
N4B Ni1 1_555 1_555
Ni1A N3 1_555 1_555
Ni1D N4D 1_555 1_555
C3 C4 1_555 1_555
N4D C3D 1_555 1_555
C3D N5D 1_555 1_555
C5B N6B 1_555 1_555

#END
