
#######################################################################
#
#                 Cambridge Crystallographic Data Centre
#                                CCDC 
#
#######################################################################
#
# If this CIF has been generated from an entry in the Cambridge 
# Structural Database, then it will include bibliographic, chemical, 
# crystal, experimental, refinement or atomic coordinate data resulting 
# from the CCDC's data processing and validation procedures.
#
#######################################################################

data_IYAQII
_symmetry_cell_setting           triclinic
_symmetry_space_group_name_H-M   'P -1'
_symmetry_Int_Tables_number      2
_space_group_name_Hall           '-P 1'
loop_
_symmetry_equiv_pos_site_id
_symmetry_equiv_pos_as_xyz
1 x,y,z
2 -x,-y,-z
_cell_length_a                   11.7610(7)
_cell_length_b                   13.2753(8)
_cell_length_c                   15.3422(9)
_cell_angle_alpha                67.0090(10)
_cell_angle_beta                 82.504(2)
_cell_angle_gamma                68.8990(10)
_cell_volume                     2057.11
loop_
_atom_site_label
_atom_site_type_symbol
_atom_site_fract_x
_atom_site_fract_y
_atom_site_fract_z
Ag1 Ag 0.34835(5) 0.77678(5) 0.16585(3)
Ag2 Ag 0.61477(7) 0.56446(8) 0.46976(4)
Fe1 Fe 0.0000 1.0000 0.0000
Fe2 Fe 1.0000 0.5000 0.5000
P1 P 0.27939(12) 0.79052(12) 0.02229(10)
P2 P 0.73413(13) 0.67542(14) 0.37922(10)
S1 S 0.28401(16) 0.77527(16) 0.38439(12)
S2 S 0.49649(13) 0.49567(13) 0.31524(10)
F1 F 0.0523(5) 0.8328(8) 0.4140(7)
F2 F 0.1564(6) 0.7887(6) 0.5325(4)
F3 F 0.1305(6) 0.9497(5) 0.4235(5)
F4 F 0.6214(5) 0.4330(6) 0.1827(4)
F5 F 0.7308(4) 0.4172(5) 0.2907(4)
F6 F 0.6416(5) 0.2940(4) 0.3178(5)
O1 O 0.2582(6) 0.8418(5) 0.2850(4)
O2 O 0.3802(6) 0.7881(7) 0.4206(5)
O3 O 0.2848(6) 0.6578(5) 0.4142(5)
O4 O 0.4996(4) 0.6105(4) 0.2587(4)
O5 O 0.5265(4) 0.4607(4) 0.4137(3)
O6 O 0.3969(4) 0.4678(5) 0.2999(4)
C1 C 0.1479(7) 0.8420(7) 0.4395(6)
C2 C 0.6303(6) 0.4043(7) 0.2749(5)
C3 C 0.1672(5) 0.9263(5) -0.0442(4)
C4 C 0.1588(6) 1.0344(5) -0.0410(5)
H1 H 0.2078 1.0458 -0.0043
C5 C 0.0622(7) 1.1223(6) -0.1037(6)
H2 H 0.0362 1.2023 -0.1156
C6 C 0.0121(6) 1.0691(7) -0.1451(5)
H3 H -0.0532 1.1073 -0.1887
C7 C 0.0766(6) 0.9492(6) -0.1096(4)
H4 H 0.0627 0.8934 -0.1260
C8 C 0.8917(5) 0.5891(5) 0.3821(4)
C9 C 1.0001(5) 0.6203(6) 0.3666(4)
H5 H 1.0028 0.6953 0.3508
C10 C 1.1021(6) 0.5171(7) 0.3796(5)
H6 H 1.1843 0.5120 0.3744
C11 C 1.0594(7) 0.4244(7) 0.4013(5)
H7 H 1.1083 0.3468 0.4125
C12 C 0.9311(7) 0.4664(6) 0.4036(4)
H8 H 0.8801 0.4216 0.4170
C13 C 0.2124(5) 0.6813(5) 0.0388(4)
C14 C 0.1769(5) 0.6220(5) 0.1278(4)
H9 H 0.1900 0.6372 0.1799
C15 C 0.1219(6) 0.5397(6) 0.1413(4)
H10 H 0.0966 0.5010 0.2020
C16 C 0.1046(7) 0.5152(6) 0.0651(5)
H11 H 0.0680 0.4597 0.0738
C17 C 0.1420(7) 0.5736(6) -0.0245(5)
H12 H 0.1307 0.5571 -0.0764
C18 C 0.1957(6) 0.6556(5) -0.0377(4)
H13 H 0.2210 0.6942 -0.0984
C19 C 0.3984(5) 0.7683(5) -0.0631(4)
C20 C 0.4008(6) 0.8546(6) -0.1496(5)
H14 H 0.3400 0.9283 -0.1653
C21 C 0.4920(7) 0.8336(8) -0.2136(6)
H15 H 0.4946 0.8932 -0.2718
C22 C 0.5793(7) 0.7242(7) -0.1910(6)
H16 H 0.6396 0.7083 -0.2351
C23 C 0.5782(7) 0.6402(7) -0.1060(6)
H17 H 0.6387 0.5663 -0.0907
C24 C 0.4897(6) 0.6613(6) -0.0416(5)
H18 H 0.4911 0.6024 0.0180
C25 C 0.6885(5) 0.7412(5) 0.2545(4)
C26 C 0.7467(6) 0.6884(6) 0.1917(4)
H19 H 0.8191 0.6243 0.2102
C27 C 0.6995(8) 0.7289(7) 0.1015(5)
H20 H 0.7384 0.6911 0.0597
C28 C 0.5949(7) 0.8253(7) 0.0732(5)
H21 H 0.5634 0.8538 0.0116
C29 C 0.5370(7) 0.8793(6) 0.1346(5)
H22 H 0.4665 0.9454 0.1148
C30 C 0.5821(6) 0.8368(6) 0.2260(5)
H23 H 0.5407 0.8727 0.2685
C31 C 0.7237(6) 0.7975(6) 0.4096(5)
C32 C 0.6613(7) 0.8070(8) 0.4911(5)
H24 H 0.6272 0.7503 0.5294
C33 C 0.6497(9) 0.8989(10) 0.5153(7)
H25 H 0.6072 0.9049 0.5704
C34 C 0.6985(10) 0.9817(9) 0.4613(9)
H26 H 0.6903 1.0438 0.4796
C35 C 0.7622(8) 0.9750(7) 0.3769(7)
H27 H 0.7959 1.0321 0.3386
C36 C 0.7726(6) 0.8828(6) 0.3537(5)
H28 H 0.8140 0.8769 0.2983
P1A P -0.27939(12) 1.20948(12) -0.02229(10)
C3A C -0.1672(5) 1.0737(5) 0.0442(4)
C4A C -0.1588(6) 0.9656(5) 0.0410(5)
H1A H -0.2078 0.9542 0.0043
C5A C -0.0622(7) 0.8777(6) 0.1037(6)
H2A H -0.0362 0.7977 0.1156
C6A C -0.0121(6) 0.9309(7) 0.1451(5)
H3A H 0.0532 0.8927 0.1887
C7A C -0.0766(6) 1.0508(6) 0.1096(4)
H4A H -0.0627 1.1066 0.1260
C13A C -0.2124(5) 1.3187(5) -0.0388(4)
C14A C -0.1769(5) 1.3780(5) -0.1278(4)
H9A H -0.1900 1.3628 -0.1799
C15A C -0.1219(6) 1.4603(6) -0.1413(4)
H10A H -0.0966 1.4990 -0.2020
C16A C -0.1046(7) 1.4848(6) -0.0651(5)
H11A H -0.0680 1.5403 -0.0738
C17A C -0.1420(7) 1.4264(6) 0.0245(5)
H12A H -0.1307 1.4429 0.0764
C18A C -0.1957(6) 1.3444(5) 0.0377(4)
H13A H -0.2210 1.3058 0.0984
C19A C -0.3984(5) 1.2317(5) 0.0631(4)
C20A C -0.4008(6) 1.1454(6) 0.1496(5)
H14A H -0.3400 1.0717 0.1653
C21A C -0.4920(7) 1.1664(8) 0.2136(6)
H15A H -0.4946 1.1068 0.2718
C22A C -0.5793(7) 1.2758(7) 0.1910(6)
H16A H -0.6396 1.2917 0.2351
C23A C -0.5782(7) 1.3598(7) 0.1060(6)
H17A H -0.6387 1.4337 0.0907
C24A C -0.4897(6) 1.3387(6) 0.0416(5)
H18A H -0.4911 1.3976 -0.0180
Ag1A Ag -0.34835(5) 1.22322(5) -0.16585(3)
S1A S -0.28401(16) 1.22473(16) -0.38439(12)
F1A F -0.0523(5) 1.1672(8) -0.4140(7)
F2A F -0.1564(6) 1.2113(6) -0.5325(4)
F3A F -0.1305(6) 1.0503(5) -0.4235(5)
O1A O -0.2582(6) 1.1582(5) -0.2850(4)
O2A O -0.3802(6) 1.2119(7) -0.4206(5)
O3A O -0.2848(6) 1.3422(5) -0.4142(5)
C1A C -0.1479(7) 1.1580(7) -0.4395(6)
S2A S -0.49649(13) 1.50433(13) -0.31524(10)
F4A F -0.6214(5) 1.5670(6) -0.1827(4)
F5A F -0.7308(4) 1.5828(5) -0.2907(4)
F6A F -0.6416(5) 1.7060(4) -0.3178(5)
O4A O -0.4996(4) 1.3895(4) -0.2587(4)
O5A O -0.5265(4) 1.5393(4) -0.4137(3)
O6A O -0.3969(4) 1.5322(5) -0.2999(4)
C2A C -0.6303(6) 1.5957(7) -0.2749(5)
Ag2A Ag -0.61477(7) 1.43554(8) -0.46976(4)
P2A P -0.73413(13) 1.32458(14) -0.37922(10)
O5A_2 O 0.4735(4) 0.5393(4) 0.5863(3)
C8A C 1.1083(5) 0.4109(5) 0.6179(4)
C9A C 0.9999(5) 0.3797(6) 0.6334(4)
C10A C 0.8979(6) 0.4829(7) 0.6204(5)
C11A C 0.9406(7) 0.5756(7) 0.5987(5)
C12A C 1.0689(7) 0.5336(6) 0.5964(4)
Ag2A_2 Ag 0.38523(7) 0.43554(8) 0.53024(4)
Ag2_2 Ag -0.38523(7) 1.56446(8) -0.53024(4)
O5_2 O -0.4735(4) 1.4607(4) -0.5863(3)
H5A H 0.9972 0.3047 0.6492
H6A H 0.8157 0.4880 0.6256
H7A H 0.8917 0.6532 0.5875
H8A H 1.1199 0.5784 0.5830
P2A_2 P 1.26587(13) 0.32458(14) 0.62078(10)
Ag2A_3 Ag 1.38523(7) 0.43554(8) 0.53024(4)
C25A C 1.3115(5) 0.2588(5) 0.7455(4)
C31A C 1.2763(6) 0.2025(6) 0.5904(5)
C32A C 1.3387(7) 0.1930(8) 0.5089(5)
C36A C 1.2274(6) 0.1172(6) 0.6463(5)
C26A C 1.2533(6) 0.3116(6) 0.8083(4)
C30A C 1.4179(6) 0.1632(6) 0.7740(5)
H24A H 1.3728 0.2497 0.4706
C33A C 1.3503(9) 0.1011(10) 0.4847(7)
C35A C 1.2378(8) 0.0250(7) 0.6231(7)
H28A H 1.1860 0.1231 0.7017
C29A C 1.4630(7) 0.1207(6) 0.8654(5)
H23A H 1.4593 0.1273 0.7315
H19A H 1.1809 0.3757 0.7898
C27A C 1.3005(8) 0.2711(7) 0.8985(5)
H25A H 1.3928 0.0951 0.4296
C34A C 1.3015(10) 0.0183(9) 0.5387(9)
H27A H 1.2041 -0.0321 0.6614
C28A C 1.4051(7) 0.1747(7) 0.9268(5)
H22A H 1.5335 0.0546 0.8852
H20A H 1.2616 0.3089 0.9403
H26A H 1.3097 -0.0438 0.5204
H21A H 1.4366 0.1462 0.9884
C37 C 0.8569(19) 0.8672(19) 0.7610(13)
H29 H 0.8675 0.9423 0.7449
H30 H 0.7934 0.8797 0.7188
Cl1 Cl 0.9915(7) 0.7739(7) 0.7358(5)
Cl2 Cl 0.8039(8) 0.8269(10) 0.8743(6)
C38? C 0.8326(19) 0.833(2) 0.7654(12)
H31? H 0.7645 0.8133 0.7548
H32? H 0.8171 0.9161 0.7276
Cl3? Cl 0.9650(8) 0.7522(7) 0.7296(5)
Cl4? Cl 0.8408(8) 0.8091(8) 0.8847(5)
C39? C 0.805(4) 0.871(3) 0.7538(19)
H33? H 0.8079 0.9484 0.7126
H34? H 0.7243 0.8698 0.7456
Cl5? Cl 0.8226(19) 0.8513(16) 0.8691(11)
Cl6? Cl 0.9146(16) 0.7676(13) 0.7190(10)
loop_
_geom_bond_atom_site_label_1
_geom_bond_atom_site_label_2
_geom_bond_site_symmetry_1
_geom_bond_site_symmetry_2
Ag1 P1 1_555 1_555
Ag2 P2 1_555 1_555
Fe1 C3 1_555 1_555
Fe2 C8 1_555 1_555
P1 C3 1_555 1_555
P2 C8 1_555 1_555
S1 O1 1_555 1_555
S2 O4 1_555 1_555
F1 C1 1_555 1_555
F2 C1 1_555 1_555
F3 C1 1_555 1_555
F4 C2 1_555 1_555
F5 C2 1_555 1_555
F6 C2 1_555 1_555
O1 Ag1 1_555 1_555
O2 S1 1_555 1_555
O3 S1 1_555 1_555
O4 Ag1 1_555 1_555
O5 Ag2 1_555 1_555
O6 S2 1_555 1_555
C1 S1 1_555 1_555
C2 S2 1_555 1_555
C3 C4 1_555 1_555
C4 Fe1 1_555 1_555
H1 C4 1_555 1_555
C5 Fe1 1_555 1_555
H2 C5 1_555 1_555
C6 Fe1 1_555 1_555
H3 C6 1_555 1_555
C7 Fe1 1_555 1_555
H4 C7 1_555 1_555
C8 C9 1_555 1_555
C9 Fe2 1_555 1_555
H5 C9 1_555 1_555
C10 Fe2 1_555 1_555
H6 C10 1_555 1_555
C11 Fe2 1_555 1_555
H7 C11 1_555 1_555
C12 Fe2 1_555 1_555
H8 C12 1_555 1_555
C13 P1 1_555 1_555
C14 C13 1_555 1_555
H9 C14 1_555 1_555
C15 C14 1_555 1_555
H10 C15 1_555 1_555
C16 C15 1_555 1_555
H11 C16 1_555 1_555
C17 C16 1_555 1_555
H12 C17 1_555 1_555
C18 C13 1_555 1_555
H13 C18 1_555 1_555
C19 P1 1_555 1_555
C20 C19 1_555 1_555
H14 C20 1_555 1_555
C21 C20 1_555 1_555
H15 C21 1_555 1_555
C22 C21 1_555 1_555
H16 C22 1_555 1_555
C23 C22 1_555 1_555
H17 C23 1_555 1_555
C24 C19 1_555 1_555
H18 C24 1_555 1_555
C25 P2 1_555 1_555
C26 C25 1_555 1_555
H19 C26 1_555 1_555
C27 C26 1_555 1_555
H20 C27 1_555 1_555
C28 C27 1_555 1_555
H21 C28 1_555 1_555
C29 C28 1_555 1_555
H22 C29 1_555 1_555
C30 C25 1_555 1_555
H23 C30 1_555 1_555
C31 P2 1_555 1_555
C32 C31 1_555 1_555
H24 C32 1_555 1_555
C33 C32 1_555 1_555
H25 C33 1_555 1_555
C34 C33 1_555 1_555
H26 C34 1_555 1_555
C35 C34 1_555 1_555
H27 C35 1_555 1_555
C36 C31 1_555 1_555
H28 C36 1_555 1_555
C37 H29 1_555 1_555
H30 C37 1_555 1_555
Cl1 C37 1_555 1_555
Cl2 C37 1_555 1_555
P1A C3A 1_555 1_555
C3A Fe1 1_555 1_555
C4A Fe1 1_555 1_555
H1A C4A 1_555 1_555
C5A Fe1 1_555 1_555
H2A C5A 1_555 1_555
C6A Fe1 1_555 1_555
H3A C6A 1_555 1_555
C7A Fe1 1_555 1_555
H4A C7A 1_555 1_555
C13A P1A 1_555 1_555
C14A C13A 1_555 1_555
H9A C14A 1_555 1_555
C15A C14A 1_555 1_555
H10A C15A 1_555 1_555
C16A C15A 1_555 1_555
H11A C16A 1_555 1_555
C17A C16A 1_555 1_555
H12A C17A 1_555 1_555
C18A C13A 1_555 1_555
H13A C18A 1_555 1_555
C19A P1A 1_555 1_555
C20A C19A 1_555 1_555
H14A C20A 1_555 1_555
C21A C20A 1_555 1_555
H15A C21A 1_555 1_555
C22A C21A 1_555 1_555
H16A C22A 1_555 1_555
C23A C22A 1_555 1_555
H17A C23A 1_555 1_555
C24A C19A 1_555 1_555
H18A C24A 1_555 1_555
Ag1A P1A 1_555 1_555
S1A O1A 1_555 1_555
F1A C1A 1_555 1_555
F2A C1A 1_555 1_555
F3A C1A 1_555 1_555
O1A Ag1A 1_555 1_555
O2A S1A 1_555 1_555
O3A S1A 1_555 1_555
C1A S1A 1_555 1_555
S2A O4A 1_555 1_555
F4A C2A 1_555 1_555
F5A C2A 1_555 1_555
F6A C2A 1_555 1_555
O4A Ag1A 1_555 1_555
O5A S2A 1_555 1_555
O6A S2A 1_555 1_555
C2A S2A 1_555 1_555
Ag2A O5A 1_555 1_555
P2A Ag2A 1_555 1_555
O5A_2 Ag2 1_555 1_555
C8A Fe2 1_555 1_555
C9A Fe2 1_555 1_555
C10A Fe2 1_555 1_555
C11A Fe2 1_555 1_555
C12A Fe2 1_555 1_555
Ag2A_2 O5 1_555 1_555
Ag2_2 O5A 1_555 1_555
O5_2 Ag2A 1_555 1_555
H5A C9A 1_555 1_555
H6A C10A 1_555 1_555
H7A C11A 1_555 1_555
H8A C12A 1_555 1_555
P2A_2 C8A 1_555 1_555
Ag2A_3 P2A_2 1_555 1_555
C25A P2A_2 1_555 1_555
C31A P2A_2 1_555 1_555
C32A C31A 1_555 1_555
C36A C31A 1_555 1_555
C26A C25A 1_555 1_555
C30A C25A 1_555 1_555
H24A C32A 1_555 1_555
C33A C32A 1_555 1_555
C35A C36A 1_555 1_555
H28A C36A 1_555 1_555
C29A C30A 1_555 1_555
H23A C30A 1_555 1_555
H19A C26A 1_555 1_555
C27A C26A 1_555 1_555
H25A C33A 1_555 1_555
C34A C33A 1_555 1_555
H27A C35A 1_555 1_555
C28A C29A 1_555 1_555
H22A C29A 1_555 1_555
H20A C27A 1_555 1_555
H26A C34A 1_555 1_555
H21A C28A 1_555 1_555
S2 O5 1_555 1_555
C3 C7 1_555 1_555
C4 C5 1_555 1_555
C5 C6 1_555 1_555
C6 C7 1_555 1_555
C8 C12 1_555 1_555
C9 C10 1_555 1_555
C10 C11 1_555 1_555
C11 C12 1_555 1_555
C17 C18 1_555 1_555
C23 C24 1_555 1_555
C29 C30 1_555 1_555
C35 C36 1_555 1_555
C3A C4A 1_555 1_555
C3A C7A 1_555 1_555
C4A C5A 1_555 1_555
C5A C6A 1_555 1_555
C6A C7A 1_555 1_555
C17A C18A 1_555 1_555
C23A C24A 1_555 1_555
O5A_2 Ag2A_2 1_555 1_555
C8A C9A 1_555 1_555
C8A C12A 1_555 1_555
C9A C10A 1_555 1_555
C10A C11A 1_555 1_555
C11A C12A 1_555 1_555
Ag2_2 O5_2 1_555 1_555
C35A C34A 1_555 1_555
C27A C28A 1_555 1_555

#END
