
#######################################################################
#
#                 Cambridge Crystallographic Data Centre
#                                CCDC 
#
#######################################################################
#
# If this CIF has been generated from an entry in the Cambridge 
# Structural Database, then it will include bibliographic, chemical, 
# crystal, experimental, refinement or atomic coordinate data resulting 
# from the CCDC's data processing and validation procedures.
#
#######################################################################

data_IYASEG
_symmetry_cell_setting           triclinic
_symmetry_space_group_name_H-M   'P -1'
_symmetry_Int_Tables_number      2
_space_group_name_Hall           '-P 1'
loop_
_symmetry_equiv_pos_site_id
_symmetry_equiv_pos_as_xyz
1 x,y,z
2 -x,-y,-z
_cell_length_a                   11.2582(15)
_cell_length_b                   15.983(2)
_cell_length_c                   21.623(3)
_cell_angle_alpha                94.621(2)
_cell_angle_beta                 100.902(3)
_cell_angle_gamma                105.256(2)
_cell_volume                     3650.93
loop_
_atom_site_label
_atom_site_type_symbol
_atom_site_fract_x
_atom_site_fract_y
_atom_site_fract_z
Ni1 Ni 1.07824(10) 0.86360(7) 0.35139(5)
Ni2 Ni 0.75750(11) 0.97827(7) 0.16947(5)
Ni3 Ni 0.59672(12) 0.39863(8) 0.35742(6)
Ni4 Ni 1.24110(11) 1.42069(8) 0.14720(6)
O4 O 0.9666(6) 0.9048(4) 0.2770(3)
O5 O 0.7649(5) 0.8819(4) 0.2291(3)
O6 O 1.4025(6) 1.3509(4) 0.3140(3)
O7 O 1.3768(5) 1.4097(4) 0.2245(3)
N1 N 1.1935(8) 0.8245(6) 0.4259(4)
H1 H 1.1724 0.8360 0.4631
H2 H 1.1847 0.7668 0.4183
N2 N 1.1703(8) 0.8267(6) 0.2804(4)
H3 H 1.1963 0.7794 0.2892
H4 H 1.1174 0.8136 0.2419
N3 N 1.0128(8) 0.9354(5) 0.4165(4)
H5 H 0.9344 0.9371 0.3991
H6 H 1.0095 0.9091 0.4517
N4 N 1.2258(7) 0.9778(5) 0.3673(3)
N5 N 0.7247(13) 1.0611(7) 0.1019(5)
H7 H 0.6789 1.0947 0.1150
H8 H 0.7988 1.0967 0.0981
N6 N 0.5788(7) 0.9597(5) 0.1930(4)
H9 H 0.5822 0.9436 0.2321
H10 H 0.5574 1.0102 0.1931
N7 N 0.9159(10) 0.9528(9) 0.1409(5)
H11 H 0.9634 1.0015 0.1296
H12 H 0.9636 0.9361 0.1731
N8 N 0.6529(9) 0.8789(6) 0.0946(4)
N9 N 0.9225(8) 0.7563(5) 0.3273(4)
H13 H 0.9328 0.7181 0.2973
H14 H 0.9117 0.7293 0.3616
N10 N 0.5709(10) 0.6511(6) 0.3434(5)
H15 H 0.5458 0.6960 0.3526
N11 N 0.5987(7) 0.5250(5) 0.3442(4)
N12 N 0.5252(9) 0.3932(6) 0.4411(4)
H16 H 0.5746 0.4373 0.4710
H17 H 0.4471 0.3999 0.4328
N13 N 0.6305(9) 0.3594(6) 0.2678(4)
H18 H 0.5656 0.3600 0.2365
H19 H 0.7012 0.3965 0.2614
N14 N 0.7867(9) 0.4370(6) 0.4059(5)
H20 H 0.8336 0.4725 0.3838
H21 H 0.7947 0.4669 0.4443
N15 N 0.6082(8) 0.2721(6) 0.3740(5)
N16 N 1.1243(9) 1.3397(9) 0.1969(5)
H22 H 1.0732 1.3684 0.2106
H23 H 1.0756 1.2915 0.1704
N17 N 0.8645(7) 1.0836(5) 0.2369(4)
N18 N 1.2929(14) 1.3230(6) 0.0942(6)
H24 H 1.3271 1.2909 0.1209
H25 H 1.2238 1.2869 0.0676
N19 N 0.9628(8) 1.1755(5) 0.3251(5)
H26 H 0.9810 1.1996 0.3640
N20 N 1.1052(8) 1.4305(7) 0.0689(4)
H27 H 1.0834 1.3823 0.0400
H28 H 1.0355 1.4360 0.0815
N21 N 1.2459(11) 1.5420(8) 0.1999(5)
H29 H 1.1692 1.5509 0.1918
H30 H 1.2692 1.5407 0.2419
N22 N 1.3671(7) 1.5041(5) 0.1050(3)
C1 C 1.3196(16) 0.8736(12) 0.4276(11)
H31 H 1.3498 0.8476 0.3939
H32 H 1.3732 0.8712 0.4678
C3 C 1.3294(10) 0.9691(8) 0.4197(5)
H35 H 1.3250 0.9999 0.4594
H36 H 1.4105 0.9965 0.4104
C4 C 1.2692(10) 0.9866(8) 0.3089(5)
H37 H 1.3510 1.0299 0.3172
H38 H 1.2107 1.0068 0.2789
C5 C 1.2792(11) 0.9021(10) 0.2811(5)
H39 H 1.2892 0.9063 0.2377
H40 H 1.3546 0.8914 0.3049
C6 C 1.0971(10) 1.0243(7) 0.4335(5)
H41 H 1.1548 1.0285 0.4738
H42 H 1.0479 1.0649 0.4385
C7 C 1.1703(10) 1.0490(7) 0.3843(5)
H43 H 1.2370 1.1029 0.4003
H44 H 1.1156 1.0586 0.3469
C8 C 0.664(2) 1.0152(10) 0.0457(7)
H45 H 0.7189 1.0302 0.0164
H46 H 0.5915 1.0367 0.0315
C9 C 0.6172(15) 0.9209(11) 0.0372(5)
H47 H 0.6487 0.8977 0.0028
H48 H 0.5259 0.9042 0.0243
C10 C 0.4834(10) 0.8909(8) 0.1457(6)
H49 H 0.4413 0.9179 0.1129
H50 H 0.4203 0.8580 0.1663
C11 C 0.5456(12) 0.8293(7) 0.1155(5)
H51 H 0.5719 0.7931 0.1462
H52 H 0.4856 0.7911 0.0795
C12 C 0.8686(19) 0.8822(15) 0.0861(8)
H53 H 0.9257 0.8459 0.0878
H54 H 0.8671 0.9079 0.0469
C13 C 0.7399(17) 0.8268(10) 0.0859(7)
H55 H 0.7065 0.7882 0.0458
H56 H 0.7449 0.7906 0.1197
C14 C 0.8532(9) 0.8643(5) 0.2671(4)
C15 C 0.8126(8) 0.7861(6) 0.3033(5)
H57 H 0.7878 0.8092 0.3408
C16 C 0.6988(11) 0.7205(7) 0.2651(6)
H58 H 0.7190 0.6956 0.2273
H59 H 0.6341 0.7490 0.2514
C17 C 0.6469(11) 0.6460(7) 0.3030(5)
C18 C 0.6650(9) 0.5711(6) 0.3049(5)
H60 H 0.7166 0.5503 0.2826
C19 C 0.5405(12) 0.5759(7) 0.3671(6)
H61 H 0.4870 0.5624 0.3950
C20 C 0.5207(13) 0.3089(10) 0.4651(7)
H62 H 0.4475 0.2909 0.4836
H63 H 0.5955 0.3156 0.4980
C21 C 0.5139(12) 0.2401(8) 0.4120(6)
H64 H 0.5283 0.1888 0.4295
H65 H 0.4301 0.2231 0.3846
C22 C 0.6448(13) 0.2679(8) 0.2673(7)
H66 H 0.6124 0.2363 0.2246
H67 H 0.7335 0.2711 0.2796
C23 C 0.5762(13) 0.2205(8) 0.3112(6)
H68 H 0.4862 0.2070 0.2942
H69 H 0.5970 0.1657 0.3150
C24 C 0.8305(14) 0.3620(10) 0.4136(10)
H70 H 0.8795 0.3568 0.3818
H71 H 0.8877 0.3726 0.4549
C25 C 0.7401(12) 0.2811(9) 0.4092(7)
H72 H 0.7367 0.2683 0.4520
H73 H 0.7696 0.2364 0.3889
C26 C 1.3353(9) 1.3632(6) 0.2643(5)
C27 C 1.1957(9) 1.3149(7) 0.2493(5)
H74 H 1.2036 1.2623 0.2258
C28 C 1.1458(15) 1.2728(13) 0.2953(6)
H75 H 1.1344 1.3175 0.3249
H76 H 1.2102 1.2499 0.3184
C29 C 1.0265(12) 1.2006(7) 0.2804(5)
C30 C 0.9666(12) 1.1441(9) 0.2282(6)
H77 H 0.9925 1.1460 0.1899
C31 C 0.8634(10) 1.1043(6) 0.2976(6)
H78 H 0.8034 1.0746 0.3185
C32 C 1.3826(19) 1.3637(13) 0.0584(7)
H79 H 1.3385 1.3672 0.0160
H80 H 1.4398 1.3285 0.0544
C33 C 1.4570(11) 1.4548(10) 0.0914(6)
H81 H 1.5120 1.4510 0.1308
H82 H 1.5089 1.4850 0.0644
C34 C 1.1615(10) 1.5078(8) 0.0414(5)
H83 H 1.1467 1.5584 0.0630
H84 H 1.1188 1.5007 -0.0029
C35 C 1.2990(10) 1.5257(8) 0.0450(5)
H85 H 1.3343 1.5871 0.0419
H86 H 1.3121 1.4916 0.0090
C36 C 1.3389(15) 1.6129(8) 0.1796(6)
H87 H 1.3835 1.6571 0.2159
H88 H 1.2947 1.6405 0.1481
C37 C 1.4314(11) 1.5789(7) 0.1523(5)
H89 H 1.4819 1.6244 0.1333
H90 H 1.4875 1.5624 0.1859
O6_2 O 0.4025(6) 0.3509(4) 0.3140(3)
Ni3_2 Ni 1.59672(12) 1.39863(8) 0.35742(6)
O1 O 0.6918(13) 0.5284(8) 0.5452(6)
O2 O 0.9007(15) 0.4428(10) 0.2373(8)
O3 O 1.0162(18) 1.1521(19) 0.0731(10)
Cl1 Cl 0.8847(3) 0.7303(2) 0.50094(13)
O8 O 1.0098(7) 0.7915(6) 0.5252(5)
O9 O 0.8943(12) 0.6595(6) 0.4605(5)
O10 O 0.8345(13) 0.7060(8) 0.5533(5)
O11 O 0.8102(9) 0.7763(7) 0.4637(5)
Cl2 Cl 0.3095(14) 1.0923(10) 0.1411(5)
O12 O 0.4264(17) 1.0881(15) 0.1260(10)
O13 O 0.323(2) 1.1656(13) 0.1877(8)
O14 O 0.243(2) 1.0112(11) 0.1585(10)
O15 O 0.236(2) 1.1097(16) 0.0833(6)
Cl4 Cl 0.1692(10) 0.6018(8) 0.3501(7)
O20 O 0.095(2) 0.6233(14) 0.2948(7)
O21 O 0.112(2) 0.6086(13) 0.4032(9)
O22 O 0.186(3) 0.5180(11) 0.3375(13)
O23 O 0.2915(11) 0.6680(10) 0.3665(10)
Cl6 Cl 0.6325(8) 0.9278(8) 0.3777(6)
O28 O 0.5769(11) 0.8476(7) 0.3343(6)
O29 O 0.5905(12) 0.9150(9) 0.4360(5)
O30 O 0.5894(11) 0.9980(8) 0.3517(6)
O31 O 0.7673(7) 0.9537(9) 0.3895(6)
Cl8 Cl 0.2671(15) 0.7041(7) 0.9193(8)
O36 O 0.1550(19) 0.7271(14) 0.8909(12)
O37 O 0.3692(18) 0.7611(12) 0.8981(11)
O38 O 0.289(3) 0.7245(14) 0.9876(8)
O39 O 0.262(2) 0.6150(8) 0.9020(10)
Cl10 Cl 0.0936(13) 1.3601(8) 0.8607(6)
O44 O 0.175(2) 1.4149(14) 0.8255(13)
O45 O 0.176(3) 1.3595(19) 0.9199(9)
O46 O -0.001(2) 1.4018(17) 0.8691(16)
O47 O 0.044(2) 1.2759(11) 0.8225(10)
C2? C 1.282(2) 0.9017(13) 0.4616(8)
H33? H 1.3530 0.8863 0.4858
H34? H 1.2426 0.9271 0.4915
Cl3? Cl 0.3086(15) 1.1003(11) 0.1442(5)
O16? O 0.374(3) 1.1926(12) 0.1569(19)
O17? O 0.220(3) 1.079(3) 0.1849(16)
O18? O 0.400(3) 1.052(2) 0.1572(17)
O19? O 0.242(4) 1.078(2) 0.0791(12)
Cl5? Cl 0.1717(11) 0.6017(9) 0.3558(8)
O24? O 0.255(2) 0.6753(14) 0.3343(14)
O25? O 0.198(3) 0.5225(14) 0.3361(17)
O26? O 0.199(3) 0.6174(16) 0.4243(8)
O27? O 0.0442(18) 0.6004(16) 0.3321(14)
Cl7? Cl 0.6418(8) 0.9536(11) 0.3911(6)
O32? O 0.616(3) 0.925(3) 0.3241(8)
O33? O 0.7749(14) 0.969(3) 0.4158(15)
O34? O 0.569(3) 0.892(2) 0.4232(16)
O35? O 0.617(4) 1.038(2) 0.3994(18)
Cl9? Cl 0.2350(16) 0.6951(7) 0.9201(9)
O40? O 0.174(3) 0.742(2) 0.8772(19)
O41? O 0.174(3) 0.6035(11) 0.908(2)
O42? O 0.3678(17) 0.724(3) 0.931(2)
O43? O 0.198(4) 0.721(3) 0.9846(15)
Cl11? Cl 0.0337(13) 1.3333(8) 0.8726(6)
O48? O 0.082(2) 1.2962(15) 0.8229(8)
O49? O -0.0913(14) 1.2741(12) 0.8681(9)
O50? O 0.021(2) 1.4168(9) 0.8577(11)
O51? O 0.1043(19) 1.3439(19) 0.9320(8)
loop_
_geom_bond_atom_site_label_1
_geom_bond_atom_site_label_2
_geom_bond_site_symmetry_1
_geom_bond_site_symmetry_2
Ni1 O4 1_555 1_555
Ni2 O5 1_555 1_555
Ni3 N11 1_555 1_555
Ni4 O7 1_555 1_555
O4 C14 1_555 1_555
O5 C14 1_555 1_555
O6 C26 1_555 1_555
O7 C26 1_555 1_555
N1 Ni1 1_555 1_555
H1 N1 1_555 1_555
H2 N1 1_555 1_555
N2 Ni1 1_555 1_555
H3 N2 1_555 1_555
H4 N2 1_555 1_555
N3 Ni1 1_555 1_555
H5 N3 1_555 1_555
H6 N3 1_555 1_555
N4 Ni1 1_555 1_555
N5 Ni2 1_555 1_555
H7 N5 1_555 1_555
H8 N5 1_555 1_555
N6 Ni2 1_555 1_555
H9 N6 1_555 1_555
H10 N6 1_555 1_555
N7 Ni2 1_555 1_555
H11 N7 1_555 1_555
H12 N7 1_555 1_555
N8 Ni2 1_555 1_555
N9 Ni1 1_555 1_555
H13 N9 1_555 1_555
H14 N9 1_555 1_555
N10 H15 1_555 1_555
N11 C18 1_555 1_555
N12 Ni3 1_555 1_555
H16 N12 1_555 1_555
H17 N12 1_555 1_555
N13 Ni3 1_555 1_555
H18 N13 1_555 1_555
H19 N13 1_555 1_555
N14 Ni3 1_555 1_555
H20 N14 1_555 1_555
H21 N14 1_555 1_555
N15 Ni3 1_555 1_555
N16 Ni4 1_555 1_555
H22 N16 1_555 1_555
H23 N16 1_555 1_555
N17 Ni2 1_555 1_555
N18 Ni4 1_555 1_555
H24 N18 1_555 1_555
H25 N18 1_555 1_555
N19 H26 1_555 1_555
N20 Ni4 1_555 1_555
H27 N20 1_555 1_555
H28 N20 1_555 1_555
N21 Ni4 1_555 1_555
H29 N21 1_555 1_555
H30 N21 1_555 1_555
N22 Ni4 1_555 1_555
C1 N1 1_555 1_555
H31 C1 1_555 1_555
H32 C1 1_555 1_555
C3 N4 1_555 1_555
H35 C3 1_555 1_555
H36 C3 1_555 1_555
C4 N4 1_555 1_555
H37 C4 1_555 1_555
H38 C4 1_555 1_555
C5 N2 1_555 1_555
H39 C5 1_555 1_555
H40 C5 1_555 1_555
C6 N3 1_555 1_555
H41 C6 1_555 1_555
H42 C6 1_555 1_555
C7 N4 1_555 1_555
H43 C7 1_555 1_555
H44 C7 1_555 1_555
C8 N5 1_555 1_555
H45 C8 1_555 1_555
H46 C8 1_555 1_555
C9 N8 1_555 1_555
H47 C9 1_555 1_555
H48 C9 1_555 1_555
C10 N6 1_555 1_555
H49 C10 1_555 1_555
H50 C10 1_555 1_555
C11 N8 1_555 1_555
H51 C11 1_555 1_555
H52 C11 1_555 1_555
C12 N7 1_555 1_555
H53 C12 1_555 1_555
H54 C12 1_555 1_555
C13 N8 1_555 1_555
H55 C13 1_555 1_555
H56 C13 1_555 1_555
C14 C15 1_555 1_555
C15 N9 1_555 1_555
H57 C15 1_555 1_555
C16 C15 1_555 1_555
H58 C16 1_555 1_555
H59 C16 1_555 1_555
C17 N10 1_555 1_555
C18 C17 1_555 1_555
H60 C18 1_555 1_555
C19 N10 1_555 1_555
H61 C19 1_555 1_555
C20 N12 1_555 1_555
H62 C20 1_555 1_555
H63 C20 1_555 1_555
C21 N15 1_555 1_555
H64 C21 1_555 1_555
H65 C21 1_555 1_555
C22 N13 1_555 1_555
H66 C22 1_555 1_555
H67 C22 1_555 1_555
C23 N15 1_555 1_555
H68 C23 1_555 1_555
H69 C23 1_555 1_555
C24 N14 1_555 1_555
H70 C24 1_555 1_555
H71 C24 1_555 1_555
C25 N15 1_555 1_555
H72 C25 1_555 1_555
H73 C25 1_555 1_555
C26 C27 1_555 1_555
C27 N16 1_555 1_555
H74 C27 1_555 1_555
C28 C27 1_555 1_555
H75 C28 1_555 1_555
H76 C28 1_555 1_555
C29 N19 1_555 1_555
C30 N17 1_555 1_555
H77 C30 1_555 1_555
C31 N17 1_555 1_555
H78 C31 1_555 1_555
C32 N18 1_555 1_555
H79 C32 1_555 1_555
H80 C32 1_555 1_555
C33 N22 1_555 1_555
H81 C33 1_555 1_555
H82 C33 1_555 1_555
C34 N20 1_555 1_555
H83 C34 1_555 1_555
H84 C34 1_555 1_555
C35 N22 1_555 1_555
H85 C35 1_555 1_555
H86 C35 1_555 1_555
C36 N21 1_555 1_555
H87 C36 1_555 1_555
H88 C36 1_555 1_555
C37 N22 1_555 1_555
H89 C37 1_555 1_555
H90 C37 1_555 1_555
Cl1 O8 1_555 1_555
O9 Cl1 1_555 1_555
O10 Cl1 1_555 1_555
O11 Cl1 1_555 1_555
Cl2 O12 1_555 1_555
O13 Cl2 1_555 1_555
O14 Cl2 1_555 1_555
O15 Cl2 1_555 1_555
Cl4 O20 1_555 1_555
O21 Cl4 1_555 1_555
O22 Cl4 1_555 1_555
O23 Cl4 1_555 1_555
Cl6 O28 1_555 1_555
O29 Cl6 1_555 1_555
O30 Cl6 1_555 1_555
O31 Cl6 1_555 1_555
Cl8 O36 1_555 1_555
O37 Cl8 1_555 1_555
O38 Cl8 1_555 1_555
O39 Cl8 1_555 1_555
Cl10 O44 1_555 1_555
O45 Cl10 1_555 1_555
O46 Cl10 1_555 1_555
O47 Cl10 1_555 1_555
O6_2 Ni3 1_555 1_555
Ni3_2 O6 1_555 1_555
N11 C19 1_555 1_555
N19 C31 1_555 1_555
C1 C3 1_555 1_555
C4 C5 1_555 1_555
C6 C7 1_555 1_555
C8 C9 1_555 1_555
C10 C11 1_555 1_555
C12 C13 1_555 1_555
C16 C17 1_555 1_555
C20 C21 1_555 1_555
C22 C23 1_555 1_555
C24 C25 1_555 1_555
C28 C29 1_555 1_555
C29 C30 1_555 1_555
C32 C33 1_555 1_555
C34 C35 1_555 1_555
C36 C37 1_555 1_555

#END
