
#######################################################################
#
#                 Cambridge Crystallographic Data Centre
#                                CCDC 
#
#######################################################################
#
# If this CIF has been generated from an entry in the Cambridge 
# Structural Database, then it will include bibliographic, chemical, 
# crystal, experimental, refinement or atomic coordinate data resulting 
# from the CCDC's data processing and validation procedures.
#
#######################################################################

data_IYECOF
_symmetry_cell_setting           tetragonal
_symmetry_space_group_name_H-M   'P 41 21 2'
_symmetry_Int_Tables_number      92
_space_group_name_Hall           'P 4abw 2nw'
loop_
_symmetry_equiv_pos_site_id
_symmetry_equiv_pos_as_xyz
1 x,y,z
2 1/2+x,1/2-y,3/4-z
3 -x,-y,1/2+z
4 1/2-x,1/2+y,1/4-z
5 y,x,-z
6 1/2+y,1/2-x,3/4+z
7 1/2-y,1/2+x,1/4+z
8 -y,-x,1/2-z
_cell_length_a                   12.737(5)
_cell_length_b                   12.737(5)
_cell_length_c                   18.288(7)
_cell_angle_alpha                90
_cell_angle_beta                 90
_cell_angle_gamma                90
_cell_volume                     2966.88
loop_
_atom_site_label
_atom_site_type_symbol
_atom_site_fract_x
_atom_site_fract_y
_atom_site_fract_z
Cd1 Cd 0.567259(18) 0.567259(18) 0.0000
Cd2 Cd 0.48366(2) 0.51634(2) 0.2500
O1 O 0.4921(2) 0.5817(2) 0.11834(12)
O2 O 0.4813(3) 0.6887(3) 0.21064(14)
O3 O 0.3954(2) 0.5489(3) -0.04872(15)
H1 H 0.393(4) 0.505(4) -0.088(3)
O4 O 0.6499(3) 0.7095(3) -0.08015(16)
N1 N 0.4752(3) 0.7359(3) 0.01615(16)
O5 O 0.4645(3) 0.3712(3) 0.18719(14)
C1 C 0.4873(3) 0.6724(3) 0.1432(2)
C2 C 0.4930(4) 0.7660(4) 0.0929(2)
C3 C 0.3630(3) 0.7159(4) 0.0028(3)
C4 C 0.3459(4) 0.6474(5) -0.0622(2)
C5 C 0.5130(5) 0.8204(4) -0.0330(3)
C6 C 0.6277(4) 0.8091(3) -0.0489(2)
H2 H 0.6495 0.8640 -0.0824
H3 H 0.6673 0.8173 -0.0040
O6 O 0.4627(3) 0.2893(3) 0.29283(15)
C7 C 0.4460(3) 0.2916(3) 0.2264(2)
C8 C 0.4023(3) 0.1978(3) 0.18889(19)
C9 C 0.3966(4) 0.1017(4) 0.2225(3)
C10 C 0.3496(5) 0.0177(4) 0.1876(4)
C11 C 0.3073(5) 0.0290(5) 0.1197(3)
H4 H 0.2748 -0.0275 0.0968
C12 C 0.3130(4) 0.1223(5) 0.0864(3)
C13 C 0.3598(4) 0.2078(4) 0.1186(2)
H5 H 0.615(4) 0.702(4) -0.113(2)
H6 H 0.448(4) 0.813(4) 0.104(3)
H7 H 0.566(4) 0.796(4) 0.100(3)
H8 H 0.319(4) 0.783(4) -0.009(3)
H9 H 0.348(3) 0.689(3) 0.036(2)
H10 H 0.376(4) 0.680(4) -0.106(2)
H11 H 0.268(4) 0.642(4) -0.066(3)
H12 H 0.472(4) 0.800(4) -0.076(3)
H13 H 0.502(4) 0.892(5) -0.010(3)
H14 H 0.423(4) 0.099(4) 0.263(2)
H15 H 0.346(5) -0.047(5) 0.209(3)
H16 H 0.281(4) 0.137(4) 0.038(3)
H17 H 0.365(3) 0.272(3) 0.0993(19)
Cd2B Cd 0.51634(2) 0.48366(2) -0.2500
O1D O 0.5817(2) 0.4921(2) -0.11834(12)
O1G O 0.4183(2) 0.5079(2) 0.38166(12)
O2D O 0.6887(3) 0.4813(3) -0.21064(14)
O2G O 0.3113(3) 0.5187(3) 0.28936(14)
O3D O 0.5489(3) 0.3954(2) 0.04872(15)
H1D H 0.505(4) 0.393(4) 0.088(3)
O4D O 0.7095(3) 0.6499(3) 0.08015(16)
N1D N 0.7359(3) 0.4752(3) -0.01615(16)
O5G O 0.6288(3) 0.5355(3) 0.31281(14)
C1D C 0.6724(3) 0.4873(3) -0.1432(2)
C2D C 0.7660(4) 0.4930(4) -0.0929(2)
C3D C 0.7159(4) 0.3630(3) -0.0028(3)
C4D C 0.6474(5) 0.3459(4) 0.0622(2)
C5D C 0.8204(4) 0.5130(5) 0.0330(3)
C6D C 0.8091(3) 0.6277(4) 0.0489(2)
H2D H 0.8640 0.6495 0.0824
H3D H 0.8173 0.6673 0.0040
O6G O 0.7107(3) 0.5373(3) 0.20717(15)
C7G C 0.7084(3) 0.5540(3) 0.2736(2)
C8G C 0.8022(3) 0.5977(3) 0.31111(19)
C9G C 0.8983(4) 0.6034(4) 0.2775(3)
C10G C 0.9823(4) 0.6504(5) 0.3124(4)
C11G C 0.9710(5) 0.6927(5) 0.3803(3)
H4G H 1.0275 0.7252 0.4032
C12G C 0.8777(5) 0.6870(4) 0.4136(3)
C13G C 0.7922(4) 0.6402(4) 0.3814(2)
H5D H 0.702(4) 0.615(4) 0.113(2)
H6D H 0.813(4) 0.448(4) -0.104(3)
H7D H 0.796(4) 0.566(4) -0.100(3)
H8D H 0.783(4) 0.319(4) 0.009(3)
H9D H 0.689(3) 0.348(3) -0.036(2)
H10D H 0.680(4) 0.376(4) 0.106(2)
H11D H 0.642(4) 0.268(4) 0.066(3)
H12D H 0.800(4) 0.472(4) 0.076(3)
H13D H 0.892(5) 0.502(4) 0.010(3)
H14G H 0.901(4) 0.577(4) 0.237(2)
H15G H 1.047(5) 0.654(5) 0.291(3)
H16G H 0.863(4) 0.719(4) 0.462(3)
H17G H 0.728(3) 0.635(3) 0.4007(19)
loop_
_geom_bond_atom_site_label_1
_geom_bond_atom_site_label_2
_geom_bond_site_symmetry_1
_geom_bond_site_symmetry_2
Cd1 O1 1_555 1_555
Cd2 O1 1_555 1_555
O1 C1 1_555 1_555
O2 Cd2 1_555 1_555
O3 Cd1 1_555 1_555
H1 O3 1_555 1_555
O4 Cd1 1_555 1_555
N1 Cd1 1_555 1_555
O5 Cd2 1_555 1_555
C1 O2 1_555 1_555
C2 N1 1_555 1_555
C3 N1 1_555 1_555
C4 O3 1_555 1_555
C5 N1 1_555 1_555
C6 O4 1_555 1_555
H2 C6 1_555 1_555
H3 C6 1_555 1_555
O6 C7 1_555 1_555
C7 O5 1_555 1_555
C8 C7 1_555 1_555
C9 C8 1_555 1_555
C10 C9 1_555 1_555
C11 C10 1_555 1_555
H4 C11 1_555 1_555
C12 C11 1_555 1_555
C13 C8 1_555 1_555
H5 O4 1_555 1_555
H6 C2 1_555 1_555
H7 C2 1_555 1_555
H8 C3 1_555 1_555
H9 C3 1_555 1_555
H10 C4 1_555 1_555
H11 C4 1_555 1_555
H12 C5 1_555 1_555
H13 C5 1_555 1_555
H14 C9 1_555 1_555
H15 C10 1_555 1_555
H16 C12 1_555 1_555
H17 C13 1_555 1_555
Cd2B O1D 1_555 1_555
O1D Cd1 1_555 1_555
O1G Cd2 1_555 1_555
O2D Cd2B 1_555 1_555
O2G Cd2 1_555 1_555
O3D Cd1 1_555 1_555
H1D O3D 1_555 1_555
O4D Cd1 1_555 1_555
N1D Cd1 1_555 1_555
O5G Cd2 1_555 1_555
C1D O1D 1_555 1_555
C2D N1D 1_555 1_555
C3D N1D 1_555 1_555
C4D O3D 1_555 1_555
C5D N1D 1_555 1_555
C6D O4D 1_555 1_555
H2D C6D 1_555 1_555
H3D C6D 1_555 1_555
O6G C7G 1_555 1_555
C7G O5G 1_555 1_555
C8G C7G 1_555 1_555
C9G C8G 1_555 1_555
C10G C9G 1_555 1_555
C11G C10G 1_555 1_555
H4G C11G 1_555 1_555
C12G C11G 1_555 1_555
C13G C8G 1_555 1_555
H5D O4D 1_555 1_555
H6D C2D 1_555 1_555
H7D C2D 1_555 1_555
H8D C3D 1_555 1_555
H9D C3D 1_555 1_555
H10D C4D 1_555 1_555
H11D C4D 1_555 1_555
H12D C5D 1_555 1_555
H13D C5D 1_555 1_555
H14G C9G 1_555 1_555
H15G C10G 1_555 1_555
H16G C12G 1_555 1_555
H17G C13G 1_555 1_555
C1 C2 1_555 1_555
C3 C4 1_555 1_555
C5 C6 1_555 1_555
C12 C13 1_555 1_555
O2D C1D 1_555 1_555
C1D C2D 1_555 1_555
C3D C4D 1_555 1_555
C5D C6D 1_555 1_555
C12G C13G 1_555 1_555

#END
