
#######################################################################
#
#                 Cambridge Crystallographic Data Centre
#                                CCDC 
#
#######################################################################
#
# If this CIF has been generated from an entry in the Cambridge 
# Structural Database, then it will include bibliographic, chemical, 
# crystal, experimental, refinement or atomic coordinate data resulting 
# from the CCDC's data processing and validation procedures.
#
#######################################################################

data_IYERUZ
_symmetry_cell_setting           orthorhombic
_symmetry_space_group_name_H-M   'P 21 21 21'
_symmetry_Int_Tables_number      19
_space_group_name_Hall           'P 2ac 2ab'
loop_
_symmetry_equiv_pos_site_id
_symmetry_equiv_pos_as_xyz
1 x,y,z
2 1/2-x,-y,1/2+z
3 -x,1/2+y,1/2-z
4 1/2+x,1/2-y,-z
_cell_length_a                   9.488(3)
_cell_length_b                   14.094(3)
_cell_length_c                   31.354(4)
_cell_angle_alpha                90
_cell_angle_beta                 90
_cell_angle_gamma                90
_cell_volume                     4192.78
loop_
_atom_site_label
_atom_site_type_symbol
_atom_site_fract_x
_atom_site_fract_y
_atom_site_fract_z
Ag1 Ag 0.39632(13) 0.26979(6) 0.871087(18)
Ag2 Ag 0.10609(10) -0.23457(5) 0.882467(19)
N1 N 0.3531(9) 0.2503(5) 0.8058(2)
N2 N 0.1321(7) 0.0872(5) 0.61646(19)
H1 H 0.0420 0.0877 0.6134
N3 N 0.3290(7) -0.0742(5) 0.62146(19)
H2 H 0.4193 -0.0718 0.6192
N4 N 0.1133(9) -0.2043(5) 0.8167(2)
N5 N 0.1374(9) 0.7387(5) 0.9474(2)
N6 N 0.3377(7) 0.5569(5) 1.13566(18)
H3 H 0.4276 0.5510 1.1379
N7 N 0.1424(7) 0.3954(5) 1.13349(19)
H4 H 0.0522 0.3922 1.1359
N8 N 0.3756(10) 0.2892(5) 0.9373(2)
C1 C 0.3210(9) 0.2197(6) 0.7742(2)
C2 C 0.2782(10) 0.1829(6) 0.7338(2)
C3 C 0.3647(9) 0.1899(6) 0.6981(2)
H5 H 0.4535 0.2171 0.7005
C4 C 0.3192(10) 0.1565(6) 0.6591(3)
H6 H 0.3782 0.1608 0.6355
C5 C 0.1854(8) 0.1164(6) 0.6548(2)
C6 C 0.1011(9) 0.1100(6) 0.6910(2)
H7 H 0.0118 0.0833 0.6885
C7 C 0.1445(8) 0.1415(6) 0.7300(3)
H8 H 0.0863 0.1357 0.7537
C8 C 0.2170(8) 0.0551(6) 0.5803(2)
H9 H 0.3069 0.0893 0.5808
C9 C 0.1416(9) 0.0789(6) 0.5386(2)
H10 H 0.1307 0.1471 0.5365
H11 H 0.0482 0.0509 0.5390
C10 C 0.2206(11) 0.0431(7) 0.5000(2)
H12 H 0.3089 0.0772 0.4973
H13 H 0.1653 0.0555 0.4745
C11 C 0.2502(10) -0.0625(7) 0.5032(2)
H14 H 0.1618 -0.0970 0.5024
H15 H 0.3062 -0.0822 0.4789
C12 C 0.3275(8) -0.0867(6) 0.5436(2)
H16 H 0.4201 -0.0577 0.5430
H17 H 0.3401 -0.1549 0.5452
C13 C 0.2486(8) -0.0529(6) 0.5832(2)
H18 H 0.1587 -0.0869 0.5848
C14 C 0.2761(9) -0.0977(5) 0.6607(2)
C15 C 0.3640(9) -0.0880(6) 0.6962(2)
H19 H 0.4550 -0.0649 0.6923
C16 C 0.3200(9) -0.1115(6) 0.7364(2)
H20 H 0.3782 -0.1011 0.7598
C17 C 0.1869(9) -0.1510(5) 0.7416(2)
C18 C 0.0986(10) -0.1629(5) 0.7072(2)
H21 H 0.0096 -0.1890 0.7111
C19 C 0.1423(9) -0.1360(6) 0.6668(2)
H22 H 0.0820 -0.1435 0.6437
C20 C 0.1428(9) -0.1798(5) 0.7835(2)
C21 C 0.1663(9) 0.7077(6) 0.9797(2)
C22 C 0.2038(9) 0.6676(5) 1.0197(2)
C23 C 0.1144(10) 0.6698(5) 1.0549(2)
H23 H 0.0259 0.6976 1.0524
C24 C 0.1551(9) 0.6316(6) 1.0930(2)
H24 H 0.0923 0.6316 1.1157
C25 C 0.2892(8) 0.5926(5) 1.0984(2)
C26 C 0.3780(9) 0.5912(6) 1.0629(2)
H25 H 0.4673 0.5647 1.0656
C27 C 0.3385(9) 0.6275(6) 1.0243(2)
H26 H 0.4002 0.6257 1.0013
C28 C 0.2533(8) 0.5271(6) 1.1729(2)
H27 H 0.1634 0.5613 1.1722
C29 C 0.3322(8) 0.5553(6) 1.2134(2)
H28 H 0.3443 0.6237 1.2140
H29 H 0.4250 0.5264 1.2134
C30 C 0.2515(9) 0.5236(7) 1.2531(2)
H30 H 0.3065 0.5383 1.2783
H31 H 0.1634 0.5584 1.2549
C31 C 0.2211(10) 0.4187(7) 1.2520(2)
H32 H 0.1632 0.4019 1.2763
H33 H 0.3090 0.3839 1.2541
C32 C 0.1458(9) 0.3903(6) 1.2114(2)
H34 H 0.1349 0.3219 1.2110
H35 H 0.0524 0.4182 1.2114
C33 C 0.2226(8) 0.4208(6) 1.1719(2)
H36 H 0.3129 0.3870 1.1710
C34 C 0.1985(9) 0.3764(6) 1.0943(2)
C35 C 0.3341(9) 0.3418(6) 1.0880(2)
H37 H 0.3929 0.3327 1.1114
C36 C 0.3823(10) 0.3209(5) 1.0478(2)
H38 H 0.4733 0.2974 1.0444
C37 C 0.2995(9) 0.3337(5) 1.0128(2)
C38 C 0.1602(9) 0.3706(6) 1.0179(2)
H39 H 0.1019 0.3810 0.9945
C39 C 0.1159(9) 0.3899(6) 1.0583(2)
H40 H 0.0251 0.4134 1.0619
C40 C 0.3439(9) 0.3088(6) 0.9707(2)
N5_2 N 0.1374(9) -0.2613(5) 0.9474(2)
Ag2_2 Ag 0.10609(10) 0.76543(5) 0.882467(19)
Cl1 Cl 0.2404(3) 0.0237(2) 0.86408(7)
O1 O 0.2967(13) 0.0962(7) 0.8895(3)
O2 O 0.3504(11) -0.0094(10) 0.8380(3)
O3 O 0.1844(12) -0.0466(7) 0.8907(3)
O7 O 0.1330(11) 0.0505(9) 0.8372(3)
Cl2 Cl 0.2799(3) -0.4721(2) 0.88781(7)
O4 O 0.1720(14) -0.5113(12) 0.9110(5)
O5 O 0.2201(14) -0.4012(8) 0.8636(3)
O6 O 0.3555(9) -0.5357(6) 0.8624(2)
O8 O 0.3707(13) -0.4434(10) 0.9195(4)
loop_
_geom_bond_atom_site_label_1
_geom_bond_atom_site_label_2
_geom_bond_site_symmetry_1
_geom_bond_site_symmetry_2
Ag1 N1 1_555 1_555
Ag2 N4 1_555 1_555
Cl1 O1 1_555 1_555
Cl2 O4 1_555 1_555
O2 Cl1 1_555 1_555
O3 Cl1 1_555 1_555
O5 Cl2 1_555 1_555
O6 Cl2 1_555 1_555
O7 Cl1 1_555 1_555
O8 Cl2 1_555 1_555
N1 C1 1_555 1_555
N2 H1 1_555 1_555
N3 H2 1_555 1_555
N4 C20 1_555 1_555
N5 C21 1_555 1_555
N6 H3 1_555 1_555
N7 H4 1_555 1_555
N8 Ag1 1_555 1_555
C1 C2 1_555 1_555
C2 C3 1_555 1_555
C3 H5 1_555 1_555
C4 C3 1_555 1_555
H6 C4 1_555 1_555
C5 N2 1_555 1_555
C6 C5 1_555 1_555
H7 C6 1_555 1_555
C7 C2 1_555 1_555
H8 C7 1_555 1_555
C8 N2 1_555 1_555
H9 C8 1_555 1_555
C9 C8 1_555 1_555
H10 C9 1_555 1_555
H11 C9 1_555 1_555
C10 C9 1_555 1_555
H12 C10 1_555 1_555
H13 C10 1_555 1_555
C11 C10 1_555 1_555
H14 C11 1_555 1_555
H15 C11 1_555 1_555
C12 C11 1_555 1_555
H16 C12 1_555 1_555
H17 C12 1_555 1_555
C13 N3 1_555 1_555
H18 C13 1_555 1_555
C14 N3 1_555 1_555
C15 C14 1_555 1_555
H19 C15 1_555 1_555
C16 C15 1_555 1_555
H20 C16 1_555 1_555
C17 C16 1_555 1_555
C18 C17 1_555 1_555
H21 C18 1_555 1_555
C19 C14 1_555 1_555
H22 C19 1_555 1_555
C20 C17 1_555 1_555
C21 C22 1_555 1_555
C22 C23 1_555 1_555
C23 H23 1_555 1_555
C24 C23 1_555 1_555
H24 C24 1_555 1_555
C25 N6 1_555 1_555
C26 C25 1_555 1_555
H25 C26 1_555 1_555
C27 C22 1_555 1_555
H26 C27 1_555 1_555
C28 N6 1_555 1_555
H27 C28 1_555 1_555
C29 C28 1_555 1_555
H28 C29 1_555 1_555
H29 C29 1_555 1_555
C30 C29 1_555 1_555
H30 C30 1_555 1_555
H31 C30 1_555 1_555
C31 C30 1_555 1_555
H32 C31 1_555 1_555
H33 C31 1_555 1_555
C32 C31 1_555 1_555
H34 C32 1_555 1_555
H35 C32 1_555 1_555
C33 N7 1_555 1_555
H36 C33 1_555 1_555
C34 N7 1_555 1_555
C35 C34 1_555 1_555
H37 C35 1_555 1_555
C36 C35 1_555 1_555
H38 C36 1_555 1_555
C37 C36 1_555 1_555
C38 C37 1_555 1_555
H39 C38 1_555 1_555
C39 C34 1_555 1_555
H40 C39 1_555 1_555
C40 N8 1_555 1_555
N5_2 Ag2 1_555 1_555
Ag2_2 N5 1_555 1_555
C4 C5 1_555 1_555
C6 C7 1_555 1_555
C8 C13 1_555 1_555
C12 C13 1_555 1_555
C18 C19 1_555 1_555
C24 C25 1_555 1_555
C26 C27 1_555 1_555
C28 C33 1_555 1_555
C32 C33 1_555 1_555
C37 C40 1_555 1_555
C38 C39 1_555 1_555

#END
