
#######################################################################
#
#                 Cambridge Crystallographic Data Centre
#                                CCDC 
#
#######################################################################
#
# If this CIF has been generated from an entry in the Cambridge 
# Structural Database, then it will include bibliographic, chemical, 
# crystal, experimental, refinement or atomic coordinate data resulting 
# from the CCDC's data processing and validation procedures.
#
#######################################################################

data_IYEXIT
_symmetry_cell_setting           monoclinic
_symmetry_space_group_name_H-M   'C 2/c'
_symmetry_Int_Tables_number      15
_space_group_name_Hall           '-C 2yn'
loop_
_symmetry_equiv_pos_site_id
_symmetry_equiv_pos_as_xyz
1 x,y,z
2 1/2+x,1/2+y,z
3 x,-y,1/2+z
4 1/2+x,1/2-y,1/2+z
5 -x,-y,-z
6 1/2-x,1/2-y,-z
7 -x,y,1/2-z
8 1/2-x,1/2+y,1/2-z
_cell_length_a                   35.220(4)
_cell_length_b                   6.2658(8)
_cell_length_c                   14.8888(17)
_cell_angle_alpha                90
_cell_angle_beta                 112.580(4)
_cell_angle_gamma                90
_cell_volume                     3033.82
loop_
_atom_site_label
_atom_site_type_symbol
_atom_site_fract_x
_atom_site_fract_y
_atom_site_fract_z
Zn1 Zn 0.202000(18) 1.13847(9) 0.39193(4)
Zn2 Zn 0.211780(18) 1.64869(9) 0.42130(4)
Zn3 Zn 0.250119(15) 0.93374(10) 0.24790(4)
O1 O 0.19362(11) 1.3861(5) 0.4631(3)
O2 O 0.24571(11) 1.1781(5) 0.3438(3)
O3 O 0.22520(11) 0.9222(6) 0.4966(3)
O4 O 0.22212(12) 1.6895(5) 0.2999(3)
O5 O -0.19247(11) 0.9853(5) -0.1418(3)
O6 O -0.18903(12) 0.6304(6) -0.1625(3)
O7 O 0.14683(11) 1.0613(6) 0.3013(3)
O8 O 0.14808(12) 0.7170(6) 0.3420(3)
C1 C -0.04442(18) 0.8192(8) 0.0622(4)
C2 C -0.06956(16) 0.9998(9) 0.0528(4)
H1 H -0.0585 1.1231 0.0879
C3 C -0.11107(15) 0.9937(9) -0.0092(4)
H2 H -0.1273 1.1145 -0.0160
C4 C -0.12856(16) 0.8089(8) -0.0609(4)
C5 C -0.10373(17) 0.6295(8) -0.0495(4)
H3 H -0.1152 0.5045 -0.0825
C6 C -0.06239(17) 0.6342(8) 0.0099(4)
H4 H -0.0463 0.5134 0.0153
C7 C 0.00066(18) 0.8322(8) 0.1224(4)
C8 C 0.02244(16) 0.6527(8) 0.1696(4)
H5 H 0.0091 0.5221 0.1629
C9 C 0.06472(18) 0.6683(8) 0.2274(5)
H6 H 0.0791 0.5485 0.2598
C10 C 0.08518(16) 0.8627(8) 0.2364(4)
C11 C 0.06324(17) 1.0417(8) 0.1887(4)
H7 H 0.0766 1.1722 0.1946
C12 C 0.02163(17) 1.0261(8) 0.1326(4)
H8 H 0.0073 1.1468 0.1011
C13 C -0.17337(16) 0.8083(8) -0.1279(4)
C14 C 0.13037(16) 0.8790(8) 0.2983(4)
H9 H 0.1647(4) 1.402(10) 0.441(5)
H10 H 0.269(2) 1.156(10) 0.383(6)
H11 H 0.217(2) 0.944(12) 0.529(5)
H12 H 0.1969(11) 1.689(10) 0.245(3)
O3_2 O 0.22520(11) 1.9222(6) 0.4966(3)
O3E O 0.27480(11) 1.5778(6) 0.5034(3)
O8_2 O 0.14808(12) 1.7170(6) 0.3420(3)
O2G O 0.25429(11) 0.6781(5) 0.1562(3)
O4_2 O 0.22212(12) 0.6895(5) 0.2999(3)
O4G O 0.27788(12) 1.1895(5) 0.2001(3)
O5D O 0.19247(11) 1.0147(5) 0.1418(3)
O6C O 0.31097(12) 0.8696(6) 0.3375(3)
Zn3G Zn 0.249881(15) 1.43374(10) 0.25210(4)
Zn2_2 Zn 0.211780(18) 0.64869(9) 0.42130(4)
Zn2E Zn 0.288220(18) 0.85131(9) 0.57870(4)
Zn3_2 Zn 0.250119(15) 1.93374(10) 0.24790(4)
Zn3D Zn -0.250119(15) 1.06626(10) -0.24790(4)
Zn3C Zn -0.249881(15) 0.56626(10) -0.25210(4)
H11_2 H 0.217(2) 1.944(12) 0.529(5)
H11E H 0.283(2) 1.556(12) 0.471(5)
H10G H 0.231(2) 0.656(10) 0.117(6)
H12_2 H 0.1969(11) 0.689(10) 0.245(3)
H12G H 0.3031(11) 1.189(10) 0.255(3)
loop_
_geom_bond_atom_site_label_1
_geom_bond_atom_site_label_2
_geom_bond_site_symmetry_1
_geom_bond_site_symmetry_2
Zn1 O1 1_555 1_555
Zn2 O1 1_555 1_555
Zn3 O2 1_555 1_555
O1 H9 1_555 1_555
O2 Zn1 1_555 1_555
O3 Zn1 1_555 1_555
O4 Zn2 1_555 1_555
O5 C13 1_555 1_555
O6 C13 1_555 1_555
O7 Zn1 1_555 1_555
O8 C14 1_555 1_555
C1 C2 1_555 1_555
C2 H1 1_555 1_555
C3 C2 1_555 1_555
H2 C3 1_555 1_555
C4 C3 1_555 1_555
C5 C4 1_555 1_555
H3 C5 1_555 1_555
C6 C1 1_555 1_555
H4 C6 1_555 1_555
C7 C1 1_555 1_555
C8 C7 1_555 1_555
H5 C8 1_555 1_555
C9 C8 1_555 1_555
H6 C9 1_555 1_555
C10 C9 1_555 1_555
C11 C10 1_555 1_555
H7 C11 1_555 1_555
C12 C7 1_555 1_555
H8 C12 1_555 1_555
C13 C4 1_555 1_555
C14 O7 1_555 1_555
H10 O2 1_555 1_555
H11 O3 1_555 1_555
H12 O4 1_555 1_555
O3_2 Zn2 1_555 1_555
O3E Zn2 1_555 1_555
O8_2 Zn2 1_555 1_555
O2G Zn3 1_555 1_555
O4_2 Zn3 1_555 1_555
O4G Zn3 1_555 1_555
O5D Zn3 1_555 1_555
O6C Zn3 1_555 1_555
Zn3G O2 1_555 1_555
Zn2_2 O3 1_555 1_555
Zn2E O3 1_555 1_555
Zn3_2 O4 1_555 1_555
Zn3D O5 1_555 1_555
Zn3C O6 1_555 1_555
H11_2 O3_2 1_555 1_555
H11E O3E 1_555 1_555
H10G O2G 1_555 1_555
H12_2 O4_2 1_555 1_555
H12G O4G 1_555 1_555
O4 Zn3G 1_555 1_555
O8 Zn2_2 1_555 1_555
C5 C6 1_555 1_555
C10 C14 1_555 1_555
C11 C12 1_555 1_555
O4_2 Zn2_2 1_555 1_555
O4G Zn3G 1_555 1_555

#END
