
#######################################################################
#
#                 Cambridge Crystallographic Data Centre
#                                CCDC 
#
#######################################################################
#
# If this CIF has been generated from an entry in the Cambridge 
# Structural Database, then it will include bibliographic, chemical, 
# crystal, experimental, refinement or atomic coordinate data resulting 
# from the CCDC's data processing and validation procedures.
#
#######################################################################

data_IYEXEP
_symmetry_cell_setting           monoclinic
_symmetry_space_group_name_H-M   'P 21/c'
_symmetry_Int_Tables_number      14
_space_group_name_Hall           '-P 2ybc'
loop_
_symmetry_equiv_pos_site_id
_symmetry_equiv_pos_as_xyz
1 x,y,z
2 x,1/2-y,1/2+z
3 -x,-y,-z
4 -x,1/2+y,1/2-z
_cell_length_a                   11.9703(7)
_cell_length_b                   7.8154(5)
_cell_length_c                   6.2428(4)
_cell_angle_alpha                90
_cell_angle_beta                 90.816(2)
_cell_angle_gamma                90
_cell_volume                     583.971
loop_
_atom_site_label
_atom_site_type_symbol
_atom_site_fract_x
_atom_site_fract_y
_atom_site_fract_z
Zn1 Zn 0.48180(2) 0.33455(3) 0.23459(4)
O1 O 0.39986(14) 0.5582(2) 0.1387(3)
O2 O 0.36017(14) 0.5947(2) -0.2086(3)
O3 O 0.42339(17) 0.1860(2) 0.0166(3)
C1 C 0.1320(2) 0.5674(3) -0.1337(4)
H1 H 0.1546 0.6160 -0.2619
C2 C 0.2105(2) 0.5244(3) 0.0197(4)
C3 C 0.1773(2) 0.4487(4) 0.2154(4)
H2 H 0.2309 0.4202 0.3187
C4 C 0.0669(2) 0.4177(3) 0.2527(4)
H3 H 0.0461 0.3669 0.3809
C5 C 0.0167(2) 0.5382(3) -0.0982(4)
C6 C 0.3318(2) 0.5603(3) -0.0185(4)
H4 H 0.394(3) 0.107(5) 0.055(6)
C4B C -0.0669(2) 0.5823(3) -0.2527(4)
C3B C -0.1773(2) 0.5513(4) -0.2154(4)
C2B C -0.2105(2) 0.4756(3) -0.0197(4)
C1B C -0.1320(2) 0.4326(3) 0.1337(4)
H1B H -0.1546 0.3840 0.2619
C5B C -0.0167(2) 0.4618(3) 0.0982(4)
C6B C -0.3318(2) 0.4397(3) 0.0185(4)
O1B O -0.39986(14) 0.4418(2) -0.1387(3)
O2B O -0.36017(14) 0.4053(2) 0.2086(3)
H2B H -0.2309 0.5798 -0.3187
H3B H -0.0461 0.6331 -0.3809
O3A O 0.42339(17) 0.3140(2) 0.5166(3)
H4A H 0.394(3) 0.393(5) 0.555(6)
Zn1B Zn -0.48180(2) 0.66545(3) -0.23459(4)
O2B_2 O 0.63983(14) 0.4053(2) 0.2086(3)
Zn1B_2 Zn 0.51820(2) 0.66545(3) -0.23459(4)
Zn1A Zn 0.48180(2) 0.16545(3) -0.26541(4)
Zn1_2 Zn -0.51820(2) 0.33455(3) 0.23459(4)
Zn1A_2 Zn 0.48180(2) 0.16545(3) 0.73459(4)
O2_2 O -0.63983(14) 0.5947(2) -0.2086(3)
O3B O -0.42339(17) 0.8140(2) -0.0166(3)
O3C O -0.42339(17) 0.6860(2) -0.5166(3)
H4B H -0.394(3) 0.893(5) -0.055(6)
H4C H -0.394(3) 0.607(5) -0.555(6)
loop_
_geom_bond_atom_site_label_1
_geom_bond_atom_site_label_2
_geom_bond_site_symmetry_1
_geom_bond_site_symmetry_2
Zn1 O1 1_555 1_555
O1 C6 1_555 1_555
O2 C6 1_555 1_555
O3 Zn1 1_555 1_555
C1 H1 1_555 1_555
C2 C1 1_555 1_555
C3 C2 1_555 1_555
H2 C3 1_555 1_555
C4 C3 1_555 1_555
H3 C4 1_555 1_555
C5 C1 1_555 1_555
C6 C2 1_555 1_555
H4 O3 1_555 1_555
C4B C5 1_555 1_555
C3B C4B 1_555 1_555
C2B C3B 1_555 1_555
C1B C2B 1_555 1_555
H1B C1B 1_555 1_555
C5B C4 1_555 1_555
C6B C2B 1_555 1_555
O1B C6B 1_555 1_555
O2B C6B 1_555 1_555
H2B C3B 1_555 1_555
H3B C4B 1_555 1_555
O3A Zn1 1_555 1_555
H4A O3A 1_555 1_555
Zn1B O1B 1_555 1_555
O2B_2 Zn1 1_555 1_555
Zn1B_2 O2 1_555 1_555
Zn1A O3 1_555 1_555
Zn1_2 O2B 1_555 1_555
Zn1A_2 O3A 1_555 1_555
O2_2 Zn1B 1_555 1_555
O3B Zn1B 1_555 1_555
O3C Zn1B 1_555 1_555
H4B O3B 1_555 1_555
H4C O3C 1_555 1_555
C5 C5B 1_555 1_555
C1B C5B 1_555 1_555

#END
