
#######################################################################
#
#                 Cambridge Crystallographic Data Centre
#                                CCDC 
#
#######################################################################
#
# If this CIF has been generated from an entry in the Cambridge 
# Structural Database, then it will include bibliographic, chemical, 
# crystal, experimental, refinement or atomic coordinate data resulting 
# from the CCDC's data processing and validation procedures.
#
#######################################################################

data_IYEYOA01
_symmetry_cell_setting           triclinic
_symmetry_space_group_name_H-M   'P -1'
_symmetry_Int_Tables_number      2
_space_group_name_Hall           '-P 1'
loop_
_symmetry_equiv_pos_site_id
_symmetry_equiv_pos_as_xyz
1 x,y,z
2 -x,-y,-z
_cell_length_a                   6.2543(9)
_cell_length_b                   12.7228(18)
_cell_length_c                   15.635(2)
_cell_angle_alpha                112.093(2)
_cell_angle_beta                 90.608(2)
_cell_angle_gamma                94.739(2)
_cell_volume                     1147.65
loop_
_atom_site_label
_atom_site_type_symbol
_atom_site_fract_x
_atom_site_fract_y
_atom_site_fract_z
Nd1 Nd 0.24544(2) 0.471636(12) 0.576807(9)
C1 C -0.0776(5) 0.2868(2) 0.4740(2)
O1 O 0.0754(3) 0.26989(18) 0.51861(15)
O2 O -0.0861(3) 0.38446(16) 0.46786(13)
C2 C -0.2511(5) 0.1960(3) 0.4280(2)
H1 H -0.3670 0.2135 0.3974
C3 C -0.2532(5) 0.0917(3) 0.4272(2)
H2 H -0.1314 0.0745 0.4546
C4 C -0.4268(5) 0.0002(3) 0.3879(2)
C5 C -0.4026(5) -0.1083(3) 0.3850(2)
H3 H -0.2687 -0.1223 0.4058
N1 N -0.5578(5) -0.1945(2) 0.3544(2)
C6 C -0.7439(6) -0.1756(3) 0.3252(2)
H4 H -0.8549 -0.2363 0.3043
C7 C -0.7840(6) -0.0712(3) 0.3237(3)
H5 H -0.9188 -0.0609 0.3008
C8 C -0.6246(6) 0.0179(3) 0.3560(3)
H6 H -0.6494 0.0908 0.3565
C9 C 0.0229(5) 0.4865(2) 0.7399(2)
O3 O 0.1966(3) 0.4413(2) 0.72716(15)
O4 O -0.0686(3) 0.50670(17) 0.67446(14)
C10 C -0.0723(5) 0.5214(3) 0.8317(2)
H7 H 0.0001 0.5087 0.8802
C11 C -0.2555(5) 0.5699(3) 0.8485(2)
H8 H -0.3250 0.5790 0.7977
C12 C -0.3624(5) 0.6107(3) 0.9360(2)
C13 C -0.5672(5) 0.6469(3) 0.9364(2)
H9 H -0.6267 0.6464 0.8801
N2 N -0.6851(5) 0.6825(3) 1.0114(2)
C14 C -0.5964(6) 0.6828(3) 1.0890(2)
H10 H -0.6779 0.7069 1.1429
C15 C -0.3938(6) 0.6505(3) 1.0970(2)
H11 H -0.3380 0.6532 1.1547
C16 C -0.2744(5) 0.6141(3) 1.0190(2)
H12 H -0.1343 0.5917 1.0222
C17 C 0.5811(5) 0.6569(2) 0.66075(19)
O5 O 0.4121(3) 0.64846(18) 0.70156(14)
O6 O 0.5961(3) 0.59332(16) 0.57552(13)
C18 C 0.7640(5) 0.7398(3) 0.7091(2)
H13 H 0.9013 0.7302 0.6833
C19 C 0.7430(5) 0.8278(3) 0.7879(2)
H14 H 0.6051 0.8348 0.8133
C20 C 0.9163(5) 0.9143(3) 0.8380(2)
C21 C 1.1315(5) 0.8930(3) 0.8302(2)
H15 H 1.1648 0.8192 0.7910
N3 N 1.2940(4) 0.9702(3) 0.8743(2)
C22 C 1.2418(6) 1.0740(3) 0.9279(3)
H16 H 1.3553 1.1304 0.9592
C23 C 1.0358(6) 1.1042(3) 0.9405(3)
H17 H 1.0082 1.1792 0.9793
C24 C 0.8693(5) 1.0231(3) 0.8956(2)
H18 H 0.7246 1.0411 0.9038
O7 O 0.5482(3) 0.38338(18) 0.60428(16)
H19 H 0.538(6) 0.334(2) 0.618(2)
H20 H 0.652(4) 0.418(3) 0.618(2)
Nd1A Nd -0.24544(2) 0.528364(12) 0.423193(9)
Nd1A_2 Nd 0.75456(2) 0.528364(12) 0.423193(9)
O2A O 0.0861(3) 0.61554(16) 0.53214(13)
O6A O 0.4039(3) 0.40668(16) 0.42448(13)
loop_
_geom_bond_atom_site_label_1
_geom_bond_atom_site_label_2
_geom_bond_site_symmetry_1
_geom_bond_site_symmetry_2
Nd1 O1 1_555 1_555
C1 O1 1_555 1_555
O2 Nd1 1_555 1_555
C2 C1 1_555 1_555
H1 C2 1_555 1_555
C3 C2 1_555 1_555
H2 C3 1_555 1_555
C4 C3 1_555 1_555
C5 C4 1_555 1_555
H3 C5 1_555 1_555
N1 C5 1_555 1_555
C6 N1 1_555 1_555
H4 C6 1_555 1_555
C7 C6 1_555 1_555
H5 C7 1_555 1_555
C8 C4 1_555 1_555
H6 C8 1_555 1_555
C9 O3 1_555 1_555
O3 Nd1 1_555 1_555
O4 Nd1 1_555 1_555
C10 C9 1_555 1_555
H7 C10 1_555 1_555
C11 C10 1_555 1_555
H8 C11 1_555 1_555
C12 C11 1_555 1_555
C13 C12 1_555 1_555
H9 C13 1_555 1_555
N2 C13 1_555 1_555
C14 N2 1_555 1_555
H10 C14 1_555 1_555
C15 C14 1_555 1_555
H11 C15 1_555 1_555
C16 C12 1_555 1_555
H12 C16 1_555 1_555
C17 O5 1_555 1_555
O5 Nd1 1_555 1_555
O6 Nd1 1_555 1_555
C18 C17 1_555 1_555
H13 C18 1_555 1_555
C19 C18 1_555 1_555
H14 C19 1_555 1_555
C20 C19 1_555 1_555
C21 C20 1_555 1_555
H15 C21 1_555 1_555
N3 C21 1_555 1_555
C22 N3 1_555 1_555
H16 C22 1_555 1_555
C23 C22 1_555 1_555
H17 C23 1_555 1_555
C24 C20 1_555 1_555
H18 C24 1_555 1_555
O7 Nd1 1_555 1_555
H19 O7 1_555 1_555
H20 O7 1_555 1_555
Nd1A O2 1_555 1_555
Nd1A_2 O6 1_555 1_555
O2A Nd1 1_555 1_555
O6A Nd1 1_555 1_555
C1 O2 1_555 1_555
C7 C8 1_555 1_555
C9 O4 1_555 1_555
C15 C16 1_555 1_555
C17 O6 1_555 1_555
C23 C24 1_555 1_555
Nd1A O2A 1_555 1_555
Nd1A_2 O6A 1_555 1_555

#END
