
#######################################################################
#
#                 Cambridge Crystallographic Data Centre
#                                CCDC 
#
#######################################################################
#
# If this CIF has been generated from an entry in the Cambridge 
# Structural Database, then it will include bibliographic, chemical, 
# crystal, experimental, refinement or atomic coordinate data resulting 
# from the CCDC's data processing and validation procedures.
#
#######################################################################

data_IYEYOA
_symmetry_cell_setting           triclinic
_symmetry_space_group_name_H-M   'P -1'
_symmetry_Int_Tables_number      2
_space_group_name_Hall           '-P 1'
loop_
_symmetry_equiv_pos_site_id
_symmetry_equiv_pos_as_xyz
1 x,y,z
2 -x,-y,-z
_cell_length_a                   6.275(2)
_cell_length_b                   12.757(4)
_cell_length_c                   15.714(5)
_cell_angle_alpha                111.966(5)
_cell_angle_beta                 90.338(6)
_cell_angle_gamma                94.960(6)
_cell_volume                     1161.23
loop_
_atom_site_label
_atom_site_type_symbol
_atom_site_fract_x
_atom_site_fract_y
_atom_site_fract_z
Nd1 Nd 0.25578(5) 0.02796(3) 0.42326(2)
N1 N 1.1776(10) -0.1836(6) -0.0117(5)
O1 O 0.3055(7) 0.0573(4) 0.2732(3)
O2 O 0.5703(6) -0.0060(4) 0.3261(3)
C1 C 1.0623(10) -0.1487(6) 0.0634(5)
H1 H 1.1195 -0.1495 0.1179
C2 C 0.8593(10) -0.1111(5) 0.0637(4)
C3 C 0.7728(11) -0.1152(6) -0.0182(5)
H2 H 0.6354 -0.0942 -0.0210
C4 C 0.8885(13) -0.1501(7) -0.0953(5)
H3 H 0.8344 -0.1513 -0.1510
C5 C 1.0905(14) -0.1839(7) -0.0878(6)
H4 H 1.1692 -0.2084 -0.1405
C6 C 0.7551(9) -0.0705(5) 0.1518(4)
H5 H 0.8241 -0.0793 0.2009
C7 C 0.5722(10) -0.0223(6) 0.1690(4)
H6 H 0.5006 -0.0103 0.1219
C8 C 0.4792(9) 0.0126(5) 0.2607(4)
N2 N -0.0498(9) -0.6939(4) 0.3553(4)
O3 O 0.4122(6) -0.1158(3) 0.4686(3)
O4 O 0.5744(6) -0.2289(3) 0.5183(3)
C9 C 0.1024(11) -0.6072(5) 0.3857(5)
H7 H 0.2327 -0.6198 0.4069
C10 C 0.0785(10) -0.4996(5) 0.3874(4)
C11 C -0.1163(12) -0.4833(6) 0.3553(6)
H8 H -0.1402 -0.4126 0.3549
C12 C -0.2759(12) -0.5725(6) 0.3236(6)
H9 H -0.4077 -0.5627 0.3017
C13 C -0.2352(11) -0.6749(6) 0.3254(5)
H10 H -0.3429 -0.7346 0.3046
C14 C 0.2503(10) -0.4078(5) 0.4260(4)
H11 H 0.3704 -0.4249 0.4514
C15 C 0.2516(10) -0.3042(5) 0.4284(4)
H12 H 0.1379 -0.2870 0.3993
C16 C 0.4232(9) -0.2129(5) 0.4746(4)
N3 N 0.7902(9) 0.4684(5) 0.8723(5)
O5 O 0.0961(6) 0.0935(3) 0.5751(3)
O6 O -0.0892(6) 0.1487(3) 0.6996(3)
C17 C 0.6280(11) 0.3924(6) 0.8286(5)
H13 H 0.6606 0.3205 0.7904
C18 C 0.4138(9) 0.4126(5) 0.8361(4)
C19 C 0.3690(11) 0.5201(5) 0.8932(5)
H14 H 0.2279 0.5378 0.9010
C20 C 0.5339(12) 0.6009(6) 0.9387(5)
H15 H 0.5068 0.6739 0.9765
C21 C 0.7393(12) 0.5704(7) 0.9264(6)
H16 H 0.8501 0.6247 0.9580
C22 C 0.2430(9) 0.3267(5) 0.7856(4)
H17 H 0.1082 0.3338 0.8104
C23 C 0.2611(9) 0.2401(5) 0.7084(4)
H18 H 0.3952 0.2307 0.6833
C24 C 0.0804(9) 0.1572(4) 0.6596(4)
O7 O -0.0448(6) 0.1168(3) 0.3951(3)
H19 H -0.0249 0.1699 0.3739
H20 H -0.1617 0.0826 0.3893
O3A O 0.5878(6) 0.1158(3) 0.5314(3)
O5A O -0.0961(6) -0.0935(3) 0.4249(3)
Nd1A Nd 0.74422(5) -0.02796(3) 0.57674(2)
O4A O 0.4256(6) 0.2289(3) 0.4817(3)
Nd1A_2 Nd -0.25578(5) -0.02796(3) 0.57674(2)
O6A O 0.0892(6) -0.1487(3) 0.3004(3)
loop_
_geom_bond_atom_site_label_1
_geom_bond_atom_site_label_2
_geom_bond_site_symmetry_1
_geom_bond_site_symmetry_2
Nd1 O1 1_555 1_555
N1 C1 1_555 1_555
O1 C8 1_555 1_555
O2 Nd1 1_555 1_555
C1 H1 1_555 1_555
C2 C1 1_555 1_555
C3 C2 1_555 1_555
H2 C3 1_555 1_555
C4 C3 1_555 1_555
H3 C4 1_555 1_555
C5 N1 1_555 1_555
H4 C5 1_555 1_555
C6 C2 1_555 1_555
H5 C6 1_555 1_555
C7 C6 1_555 1_555
H6 C7 1_555 1_555
C8 O2 1_555 1_555
N2 C9 1_555 1_555
O3 Nd1 1_555 1_555
O4 C16 1_555 1_555
C9 H7 1_555 1_555
C10 C9 1_555 1_555
C11 C10 1_555 1_555
H8 C11 1_555 1_555
C12 C11 1_555 1_555
H9 C12 1_555 1_555
C13 N2 1_555 1_555
H10 C13 1_555 1_555
C14 C10 1_555 1_555
H11 C14 1_555 1_555
C15 C14 1_555 1_555
H12 C15 1_555 1_555
C16 O3 1_555 1_555
N3 C17 1_555 1_555
O5 Nd1 1_555 1_555
O6 C24 1_555 1_555
C17 H13 1_555 1_555
C18 C17 1_555 1_555
C19 C18 1_555 1_555
H14 C19 1_555 1_555
C20 C19 1_555 1_555
H15 C20 1_555 1_555
C21 N3 1_555 1_555
H16 C21 1_555 1_555
C22 C18 1_555 1_555
H17 C22 1_555 1_555
C23 C22 1_555 1_555
H18 C23 1_555 1_555
C24 O5 1_555 1_555
O7 Nd1 1_555 1_555
H19 O7 1_555 1_555
H20 O7 1_555 1_555
O3A Nd1 1_555 1_555
O5A Nd1 1_555 1_555
Nd1A O3 1_555 1_555
O4A Nd1 1_555 1_555
Nd1A_2 O5 1_555 1_555
O6A Nd1 1_555 1_555
C4 C5 1_555 1_555
C7 C8 1_555 1_555
O4 Nd1A 1_555 1_555
C12 C13 1_555 1_555
C15 C16 1_555 1_555
O6 Nd1A_2 1_555 1_555
C20 C21 1_555 1_555
C23 C24 1_555 1_555
O3A Nd1A 1_555 1_555
O5A Nd1A_2 1_555 1_555

#END
