
#######################################################################
#
#                 Cambridge Crystallographic Data Centre
#                                CCDC 
#
#######################################################################
#
# If this CIF has been generated from an entry in the Cambridge 
# Structural Database, then it will include bibliographic, chemical, 
# crystal, experimental, refinement or atomic coordinate data resulting 
# from the CCDC's data processing and validation procedures.
#
#######################################################################

data_IYICEZ
_symmetry_cell_setting           triclinic
_symmetry_space_group_name_H-M   'P -1'
_symmetry_Int_Tables_number      2
_space_group_name_Hall           '-P 1'
loop_
_symmetry_equiv_pos_site_id
_symmetry_equiv_pos_as_xyz
1 x,y,z
2 -x,-y,-z
_cell_length_a                   9.8093(16)
_cell_length_b                   13.043(2)
_cell_length_c                   14.578(2)
_cell_angle_alpha                91.584(11)
_cell_angle_beta                 99.842(10)
_cell_angle_gamma                103.601(9)
_cell_volume                     1781.68
loop_
_atom_site_label
_atom_site_type_symbol
_atom_site_fract_x
_atom_site_fract_y
_atom_site_fract_z
Br1 Br 0.62101(11) 0.91215(7) 0.61054(8)
Br2 Br -0.10782(9) -0.37069(7) 0.09534(7)
Co1 Co 0.0000 0.5000 0.5000
Co2 Co 0.5000 0.0000 0.0000
F1 F -0.1093(9) 0.1218(4) 0.4793(5)
F2 F -0.2463(5) 0.1688(3) 0.5583(4)
F3 F -0.0796(5) 0.1140(3) 0.6263(4)
F4 F 0.3495(4) 0.3205(3) 0.7461(3)
F5 F 0.4627(4) 0.4360(3) 0.6679(3)
F6 F 0.3648(4) 0.4841(3) 0.7772(3)
F7 F 0.5378(4) 0.1813(3) -0.3217(3)
F8 F 0.7207(4) 0.1420(3) -0.2404(3)
F9 F 0.6419(5) 0.2697(3) -0.1919(3)
F10 F 0.1067(4) -0.0124(3) -0.3194(3)
F11 F 0.0860(5) -0.1612(3) -0.2593(3)
F12 F 0.0197(4) -0.0364(4) -0.1944(3)
O1 O -0.0757(4) 0.3445(3) 0.5148(3)
O2 O 0.5747(4) 0.0882(3) -0.0998(3)
N1 N 0.4266(6) 0.1318(4) 0.0548(4)
N2 N 0.3270(6) 0.4821(4) 0.1094(4)
N3 N 0.3573(7) 0.5543(4) 0.0687(4)
N4 N 0.0886(5) 0.4576(4) 0.3808(4)
N5 N 0.1911(5) 0.4878(4) 0.5933(3)
N6 N 0.2966(5) -0.0554(4) -0.0945(4)
C1 C 0.3399(7) 0.1239(5) 0.1178(4)
C2 C 0.2902(7) 0.2053(5) 0.1514(4)
C3 C 0.3362(6) 0.3036(5) 0.1240(5)
C4 C 0.4264(8) 0.3140(5) 0.0602(5)
C5 C 0.4672(8) 0.2277(5) 0.0259(5)
C6 C 0.2918(7) 0.3962(5) 0.1549(5)
C7 C 0.1501(7) 0.3769(5) 0.3806(5)
C8 C 0.2166(7) 0.3533(5) 0.3089(5)
C9 C 0.2194(6) 0.4142(5) 0.2324(4)
C10 C 0.1506(7) 0.4967(5) 0.2337(5)
C11 C 0.0881(7) 0.5135(6) 0.3070(5)
C12 C -0.1117(9) 0.1691(6) 0.5558(7)
C13 C -0.0211(7) 0.2834(5) 0.5653(5)
C14 C 0.1092(7) 0.3052(5) 0.6247(5)
C15 C 0.2089(7) 0.4063(5) 0.6364(5)
C16 C 0.2990(7) 0.5847(5) 0.6033(5)
C17 C 0.3908(7) 0.6032(5) 0.5382(5)
C18 C 0.4845(7) 0.7016(6) 0.5413(6)
C19 C 0.4903(7) 0.7791(5) 0.6078(6)
C20 C 0.3999(8) 0.7633(5) 0.6716(5)
C21 C 0.3036(7) 0.6651(5) 0.6699(5)
C22 C 0.6020(8) 0.1721(6) -0.2340(6)
C23 C 0.5075(7) 0.0957(5) -0.1803(5)
C24 C 0.3690(8) 0.0500(5) -0.2207(5)
C25 C 0.2690(7) -0.0217(5) -0.1775(5)
C26 C 0.1179(9) -0.0594(7) -0.2389(6)
C27 C 0.1919(7) -0.1309(5) -0.0590(5)
C28 C 0.1786(7) -0.2372(5) -0.0726(5)
C29 C 0.0874(8) -0.3097(5) -0.0287(5)
C30 C 0.0126(7) -0.2720(6) 0.0308(5)
C31 C 0.0200(7) -0.1665(6) 0.0440(5)
C32 C 0.1113(7) -0.0958(5) 0.0002(5)
C33 C 0.3472(8) 0.4111(6) 0.7068(6)
H1 H 0.3104 0.0564 0.1411
H2 H 0.2246 0.1925 0.1932
H3 H 0.4616 0.3818 0.0393
H4 H 0.5263 0.2377 -0.0199
H5 H 0.1484 0.3336 0.4319
H6 H 0.2602 0.2954 0.3122
H7 H 0.1477 0.5411 0.1831
H8 H 0.0407 0.5693 0.3049
H9 H 0.1342 0.2500 0.6599
H10 H 0.3887 0.5491 0.4926
H11 H 0.5454 0.7153 0.4966
H12 H 0.4030 0.8186 0.7163
H13 H 0.2414 0.6531 0.7139
H14 H 0.3368 0.0673 -0.2823
H15 H 0.2327 -0.2620 -0.1126
H16 H 0.0770 -0.3836 -0.0396
H17 H -0.0365 -0.1424 0.0826
H18 H 0.1196 -0.0221 0.0103
Br1A Br -0.62101(11) 0.08785(7) 0.38946(8)
Br2A Br 1.10782(9) 0.37069(7) -0.09534(7)
Co2_2 Co -0.5000 1.0000 1.0000
F1A F 0.1093(9) 0.8782(4) 0.5207(5)
F2A F 0.2463(5) 0.8312(3) 0.4417(4)
F3A F 0.0796(5) 0.8860(3) 0.3737(4)
F4A F -0.3495(4) 0.6795(3) 0.2539(3)
F5A F -0.4627(4) 0.5640(3) 0.3321(3)
F6A F -0.3648(4) 0.5159(3) 0.2228(3)
F7A F 0.4622(4) -0.1813(3) 0.3217(3)
F8A F 0.2793(4) -0.1420(3) 0.2404(3)
F9A F 0.3581(5) -0.2697(3) 0.1919(3)
F10A F 0.8933(4) 0.0124(3) 0.3194(3)
F11A F 0.9140(5) 0.1612(3) 0.2593(3)
F12A F 0.9803(4) 0.0364(4) 0.1944(3)
O1A O 0.0757(4) 0.6555(3) 0.4852(3)
O2A O 0.4253(4) -0.0882(3) 0.0998(3)
N1A N -0.4266(6) 0.8682(4) 0.9452(4)
N1A_2 N 0.5734(6) -0.1318(4) -0.0548(4)
N2A N -0.3270(6) 0.5179(4) 0.8906(4)
N3A N -0.3573(7) 0.4457(4) 0.9313(4)
N4A N -0.0886(5) 0.5424(4) 0.6192(4)
N5A N -0.1911(5) 0.5122(4) 0.4067(3)
N6A N 0.7034(5) 0.0554(4) 0.0945(4)
C1A C -0.3399(7) 0.8761(5) 0.8822(4)
C2A C -0.2902(7) 0.7947(5) 0.8486(4)
C3A C -0.3362(6) 0.6964(5) 0.8760(5)
C4A C -0.4264(8) 0.6860(5) 0.9398(5)
C5A C -0.4672(8) 0.7723(5) 0.9741(5)
C6A C -0.2918(7) 0.6038(5) 0.8451(5)
C7A C -0.1501(7) 0.6231(5) 0.6194(5)
C8A C -0.2166(7) 0.6467(5) 0.6911(5)
C9A C -0.2194(6) 0.5858(5) 0.7676(4)
C10A C -0.1506(7) 0.5033(5) 0.7663(5)
C11A C -0.0881(7) 0.4865(6) 0.6930(5)
C12A C 0.1117(9) 0.8309(6) 0.4442(7)
C13A C 0.0211(7) 0.7166(5) 0.4347(5)
C14A C -0.1092(7) 0.6948(5) 0.3753(5)
C15A C -0.2089(7) 0.5937(5) 0.3636(5)
C16A C -0.2990(7) 0.4153(5) 0.3967(5)
C17A C -0.3908(7) 0.3968(5) 0.4618(5)
C18A C -0.4845(7) 0.2984(6) 0.4587(6)
C19A C -0.4903(7) 0.2209(5) 0.3922(6)
C20A C -0.3999(8) 0.2367(5) 0.3284(5)
C21A C -0.3036(7) 0.3349(5) 0.3301(5)
C22A C 0.3980(8) -0.1721(6) 0.2340(6)
C23A C 0.4925(7) -0.0957(5) 0.1803(5)
C24A C 0.6310(8) -0.0500(5) 0.2207(5)
C25A C 0.7310(7) 0.0217(5) 0.1775(5)
C26A C 0.8821(9) 0.0594(7) 0.2389(6)
C27A C 0.8081(7) 0.1309(5) 0.0590(5)
C28A C 0.8214(7) 0.2372(5) 0.0726(5)
C29A C 0.9126(8) 0.3097(5) 0.0287(5)
C30A C 0.9874(7) 0.2720(6) -0.0308(5)
C31A C 0.9800(7) 0.1665(6) -0.0440(5)
C32A C 0.8887(7) 0.0958(5) -0.0002(5)
C33A C -0.3472(8) 0.5889(6) 0.2932(6)
H1A H -0.3104 0.9436 0.8589
H2A H -0.2246 0.8075 0.8068
H3A H -0.4616 0.6182 0.9607
H4A H -0.5263 0.7623 1.0199
H5A H -0.1484 0.6664 0.5681
H6A H -0.2602 0.7046 0.6878
H7A H -0.1477 0.4589 0.8169
H8A H -0.0407 0.4307 0.6951
H9A H -0.1342 0.7500 0.3401
H10A H -0.3887 0.4509 0.5074
H11A H -0.5454 0.2847 0.5034
H12A H -0.4030 0.1814 0.2837
H13A H -0.2414 0.3469 0.2861
H14A H 0.6632 -0.0673 0.2823
H15A H 0.7673 0.2620 0.1126
H16A H 0.9230 0.3836 0.0396
H17A H 1.0365 0.1424 -0.0826
H18A H 0.8804 0.0221 -0.0103
loop_
_geom_bond_atom_site_label_1
_geom_bond_atom_site_label_2
_geom_bond_site_symmetry_1
_geom_bond_site_symmetry_2
Br1 C19 1_555 1_555
Br2 C30 1_555 1_555
Co1 O1 1_555 1_555
Co2 O2 1_555 1_555
F1 C12 1_555 1_555
F2 C12 1_555 1_555
F3 C12 1_555 1_555
F4 C33 1_555 1_555
F5 C33 1_555 1_555
F6 C33 1_555 1_555
F7 C22 1_555 1_555
F8 C22 1_555 1_555
F9 C22 1_555 1_555
F10 C26 1_555 1_555
F11 C26 1_555 1_555
F12 C26 1_555 1_555
O1 C13 1_555 1_555
O2 C23 1_555 1_555
N1 Co2 1_555 1_555
N2 N3 1_555 1_555
N4 Co1 1_555 1_555
N5 Co1 1_555 1_555
N6 Co2 1_555 1_555
C1 N1 1_555 1_555
C2 C1 1_555 1_555
C3 C2 1_555 1_555
C4 C3 1_555 1_555
C5 N1 1_555 1_555
C6 N2 1_555 1_555
C7 N4 1_555 1_555
C8 C7 1_555 1_555
C9 C6 1_555 1_555
C10 C9 1_555 1_555
C11 N4 1_555 1_555
C12 C13 1_555 1_555
C13 C14 1_555 1_555
C14 C15 1_555 1_555
C15 N5 1_555 1_555
C16 N5 1_555 1_555
C17 C16 1_555 1_555
C18 C17 1_555 1_555
C19 C18 1_555 1_555
C20 C19 1_555 1_555
C21 C16 1_555 1_555
C22 C23 1_555 1_555
C23 C24 1_555 1_555
C24 C25 1_555 1_555
C25 N6 1_555 1_555
C26 C25 1_555 1_555
C27 N6 1_555 1_555
C28 C27 1_555 1_555
C29 C28 1_555 1_555
C30 C29 1_555 1_555
C31 C30 1_555 1_555
C32 C27 1_555 1_555
C33 C15 1_555 1_555
H1 C1 1_555 1_555
H2 C2 1_555 1_555
H3 C4 1_555 1_555
H4 C5 1_555 1_555
H5 C7 1_555 1_555
H6 C8 1_555 1_555
H7 C10 1_555 1_555
H8 C11 1_555 1_555
H9 C14 1_555 1_555
H10 C17 1_555 1_555
H11 C18 1_555 1_555
H12 C20 1_555 1_555
H13 C21 1_555 1_555
H14 C24 1_555 1_555
H15 C28 1_555 1_555
H16 C29 1_555 1_555
H17 C31 1_555 1_555
H18 C32 1_555 1_555
Br1A C19A 1_555 1_555
Br2A C30A 1_555 1_555
Co2_2 N1A 1_555 1_555
F1A C12A 1_555 1_555
F2A C12A 1_555 1_555
F3A C12A 1_555 1_555
F4A C33A 1_555 1_555
F5A C33A 1_555 1_555
F6A C33A 1_555 1_555
F7A C22A 1_555 1_555
F8A C22A 1_555 1_555
F9A C22A 1_555 1_555
F10A C26A 1_555 1_555
F11A C26A 1_555 1_555
F12A C26A 1_555 1_555
O1A Co1 1_555 1_555
O2A Co2 1_555 1_555
N1A C1A 1_555 1_555
N1A_2 Co2 1_555 1_555
N2A N3A 1_555 1_555
N4A Co1 1_555 1_555
N5A Co1 1_555 1_555
N6A Co2 1_555 1_555
C1A C2A 1_555 1_555
C2A C3A 1_555 1_555
C3A C4A 1_555 1_555
C4A C5A 1_555 1_555
C5A N1A 1_555 1_555
C6A N2A 1_555 1_555
C7A N4A 1_555 1_555
C8A C7A 1_555 1_555
C9A C6A 1_555 1_555
C10A C9A 1_555 1_555
C11A N4A 1_555 1_555
C12A C13A 1_555 1_555
C13A O1A 1_555 1_555
C14A C13A 1_555 1_555
C15A N5A 1_555 1_555
C16A N5A 1_555 1_555
C17A C16A 1_555 1_555
C18A C17A 1_555 1_555
C19A C18A 1_555 1_555
C20A C19A 1_555 1_555
C21A C16A 1_555 1_555
C22A C23A 1_555 1_555
C23A O2A 1_555 1_555
C24A C23A 1_555 1_555
C25A N6A 1_555 1_555
C26A C25A 1_555 1_555
C27A N6A 1_555 1_555
C28A C27A 1_555 1_555
C29A C28A 1_555 1_555
C30A C29A 1_555 1_555
C31A C30A 1_555 1_555
C32A C27A 1_555 1_555
C33A C15A 1_555 1_555
H1A C1A 1_555 1_555
H2A C2A 1_555 1_555
H3A C4A 1_555 1_555
H4A C5A 1_555 1_555
H5A C7A 1_555 1_555
H6A C8A 1_555 1_555
H7A C10A 1_555 1_555
H8A C11A 1_555 1_555
H9A C14A 1_555 1_555
H10A C17A 1_555 1_555
H11A C18A 1_555 1_555
H12A C20A 1_555 1_555
H13A C21A 1_555 1_555
H14A C24A 1_555 1_555
H15A C28A 1_555 1_555
H16A C29A 1_555 1_555
H17A C31A 1_555 1_555
H18A C32A 1_555 1_555
C3 C6 1_555 1_555
C4 C5 1_555 1_555
C8 C9 1_555 1_555
C10 C11 1_555 1_555
C20 C21 1_555 1_555
C31 C32 1_555 1_555
C3A C6A 1_555 1_555
C8A C9A 1_555 1_555
C10A C11A 1_555 1_555
C14A C15A 1_555 1_555
C20A C21A 1_555 1_555
C24A C25A 1_555 1_555
C31A C32A 1_555 1_555

#END
