
#######################################################################
#
#                 Cambridge Crystallographic Data Centre
#                                CCDC 
#
#######################################################################
#
# If this CIF has been generated from an entry in the Cambridge 
# Structural Database, then it will include bibliographic, chemical, 
# crystal, experimental, refinement or atomic coordinate data resulting 
# from the CCDC's data processing and validation procedures.
#
#######################################################################

data_IYIGIG
_symmetry_cell_setting           monoclinic
_symmetry_space_group_name_H-M   'P 21/n'
_symmetry_Int_Tables_number      14
_space_group_name_Hall           '-P 2yn'
loop_
_symmetry_equiv_pos_site_id
_symmetry_equiv_pos_as_xyz
1 x,y,z
2 1/2+x,1/2-y,1/2+z
3 -x,-y,-z
4 1/2-x,1/2+y,1/2-z
_cell_length_a                   9.4059(10)
_cell_length_b                   17.3134(17)
_cell_length_c                   15.1957(16)
_cell_angle_alpha                90
_cell_angle_beta                 104.316(2)
_cell_angle_gamma                90
_cell_volume                     2397.75
loop_
_atom_site_label
_atom_site_type_symbol
_atom_site_fract_x
_atom_site_fract_y
_atom_site_fract_z
N1 N 1.3770(8) -0.5451(5) 0.0183(5)
S1 S 1.0288(3) -0.62615(17) 0.02960(19)
P1 P 1.1241(3) -0.50843(16) -0.27373(17)
Ag1 Ag 1.19647(9) -0.52279(5) -0.11357(6)
O1 O 1.0279(9) -0.6095(5) -0.0643(5)
O2 O 0.8982(8) -0.5973(5) 0.0539(6)
O3 O 1.0566(9) -0.7067(5) 0.0516(6)
C1 C 1.1784(11) -0.5740(7) 0.0987(7)
H1 H 1.1818 -0.5835 0.1621
H2 H 1.1626 -0.5192 0.0875
C2 C 1.3272(11) -0.5972(7) 0.0803(7)
H3 H 1.3187 -0.6489 0.0549
H4 H 1.4009 -0.5986 0.1375
C3 C 1.5067(11) -0.5812(7) -0.0039(7)
H5 H 1.5800 -0.5920 0.0519
H6 H 1.4780 -0.6298 -0.0348
C4 C 1.5728(11) -0.5289(7) -0.0638(7)
H7 H 1.3448 -0.4450 0.0787
H8 H 1.5000 -0.4811 0.1201
C5 C 0.9261(11) -0.4982(6) -0.3132(6)
C6 C 0.8567(12) -0.4446(7) -0.3752(8)
H9 H 0.9129 -0.4101 -0.3992
C7 C 0.7074(14) -0.4402(9) -0.4029(10)
H10 H 0.6626 -0.4025 -0.4439
C8 C 0.6239(14) -0.4928(9) -0.3690(9)
H11 H 0.5221 -0.4918 -0.3885
C9 C 0.6918(14) -0.5458(9) -0.3070(9)
H12 H 0.6357 -0.5809 -0.2839
C10 C 0.8415(12) -0.5484(7) -0.2780(8)
H13 H 0.8861 -0.5843 -0.2344
C11 C 1.1628(11) -0.5903(6) -0.3387(7)
C12 C 1.3057(14) -0.6158(7) -0.3230(9)
H14 H 1.3785 -0.5899 -0.2807
C13 C 1.3441(14) -0.6789(8) -0.3683(10)
H15 H 1.4414 -0.6950 -0.3566
C14 C 1.2376(15) -0.7172(7) -0.4304(9)
H16 H 1.2613 -0.7597 -0.4612
C15 C 1.0955(15) -0.6922(7) -0.4466(8)
H17 H 1.0229 -0.7183 -0.4888
C16 C 1.0578(13) -0.6294(6) -0.4019(7)
H18 H 0.9606 -0.6133 -0.4144
C17 C 1.2014(11) -0.4253(7) -0.3173(7)
C18 C 1.2340(11) -0.4247(7) -0.4031(7)
H19 H 1.2144 -0.4680 -0.4402
C19 C 1.2951(13) -0.3594(8) -0.4322(9)
H20 H 1.3164 -0.3592 -0.4888
C20 C 1.3241(15) -0.2955(8) -0.3776(10)
H21 H 1.3681 -0.2524 -0.3962
C21 C 1.2880(19) -0.2952(9) -0.2959(10)
H22 H 1.3026 -0.2505 -0.2609
C22 C 1.2306(15) -0.3596(7) -0.2640(9)
H23 H 1.2115 -0.3590 -0.2068
O2B O 1.1018(8) -0.4027(5) -0.0539(6)
Ag1B Ag 0.80353(9) -0.47721(5) 0.11357(6)
N1B N 1.6230(8) -0.4549(5) -0.0183(5)
Ag1B_2 Ag 1.80353(9) -0.47721(5) 0.11357(6)
C2B C 1.6728(11) -0.4028(7) -0.0803(7)
C1B C 1.8216(11) -0.4260(7) -0.0987(7)
S1B S 1.9712(3) -0.37385(17) -0.02960(19)
O1B O 1.9721(9) -0.3905(5) 0.0643(5)
O2B_2 O 2.1018(8) -0.4027(5) -0.0539(6)
O3B O 1.9434(9) -0.2933(5) -0.0516(6)
H1B H 1.8182 -0.4165 -0.1621
H2B H 1.8374 -0.4808 -0.0875
H3B H 1.6813 -0.3511 -0.0549
H4B H 1.5991 -0.4014 -0.1375
C3B C 1.4933(11) -0.4188(7) 0.0039(7)
H5B H 1.4200 -0.4080 -0.0519
H6B H 1.5220 -0.3702 0.0348
C4B C 1.4272(11) -0.4711(7) 0.0638(7)
H7B H 1.6552 -0.5550 -0.0787
H8B H 1.5000 -0.5189 -0.1201
P1B P 1.8759(3) -0.49157(16) 0.27373(17)
O2_2 O 1.8982(8) -0.5973(5) 0.0539(6)
Ag1_2 Ag 2.19647(9) -0.52279(5) -0.11357(6)
C5B C 2.0739(11) -0.5018(6) 0.3132(6)
C11B C 1.8372(11) -0.4097(6) 0.3387(7)
C17B C 1.7986(11) -0.5747(7) 0.3173(7)
C6B C 2.1433(12) -0.5554(7) 0.3752(8)
C10B C 2.1585(12) -0.4516(7) 0.2780(8)
C12B C 1.6943(14) -0.3842(7) 0.3230(9)
C16B C 1.9422(13) -0.3706(6) 0.4019(7)
C18B C 1.7660(11) -0.5753(7) 0.4031(7)
C22B C 1.7694(15) -0.6404(7) 0.2640(9)
H9B H 2.0871 -0.5899 0.3992
C7B C 2.2926(14) -0.5598(9) 0.4029(10)
C9B C 2.3082(14) -0.4542(9) 0.3070(9)
H13B H 2.1139 -0.4157 0.2344
H14B H 1.6215 -0.4101 0.2807
C13B C 1.6559(14) -0.3211(8) 0.3683(10)
C15B C 1.9045(15) -0.3078(7) 0.4466(8)
H18B H 2.0394 -0.3867 0.4144
H19B H 1.7856 -0.5320 0.4402
C19B C 1.7049(13) -0.6406(8) 0.4322(9)
C21B C 1.7120(19) -0.7048(9) 0.2959(10)
H23B H 1.7885 -0.6410 0.2068
H10B H 2.3374 -0.5975 0.4439
C8B C 2.3761(14) -0.5072(9) 0.3690(9)
H12B H 2.3643 -0.4191 0.2839
H15B H 1.5586 -0.3050 0.3566
C14B C 1.7624(15) -0.2828(7) 0.4304(9)
H17B H 1.9771 -0.2817 0.4888
H20B H 1.6836 -0.6408 0.4888
C20B C 1.6759(15) -0.7045(8) 0.3776(10)
H22B H 1.6974 -0.7495 0.2609
H11B H 2.4779 -0.5082 0.3885
H16B H 1.7387 -0.2403 0.4612
H21B H 1.6319 -0.7476 0.3962
C23 C 1.276(3) -0.3051(17) 0.1545(15)
O4 O 1.248(3) -0.2493(11) 0.234(2)
loop_
_geom_bond_atom_site_label_1
_geom_bond_atom_site_label_2
_geom_bond_site_symmetry_1
_geom_bond_site_symmetry_2
N1 Ag1 1_555 1_555
S1 O1 1_555 1_555
P1 Ag1 1_555 1_555
Ag1 O1 1_555 1_555
O2 S1 1_555 1_555
O3 S1 1_555 1_555
C1 S1 1_555 1_555
H1 C1 1_555 1_555
H2 C1 1_555 1_555
C2 N1 1_555 1_555
H3 C2 1_555 1_555
H4 C2 1_555 1_555
C3 N1 1_555 1_555
H5 C3 1_555 1_555
H6 C3 1_555 1_555
C4 C3 1_555 1_555
H7 C4B 1_555 1_555
H8 C4B 1_555 1_555
C5 P1 1_555 1_555
C6 C5 1_555 1_555
H9 C6 1_555 1_555
C7 C6 1_555 1_555
H10 C7 1_555 1_555
C8 C7 1_555 1_555
H11 C8 1_555 1_555
C9 C8 1_555 1_555
H12 C9 1_555 1_555
C10 C5 1_555 1_555
H13 C10 1_555 1_555
C11 P1 1_555 1_555
C12 C11 1_555 1_555
H14 C12 1_555 1_555
C13 C12 1_555 1_555
H15 C13 1_555 1_555
C14 C13 1_555 1_555
H16 C14 1_555 1_555
C15 C14 1_555 1_555
H17 C15 1_555 1_555
C16 C11 1_555 1_555
H18 C16 1_555 1_555
C17 P1 1_555 1_555
C18 C17 1_555 1_555
H19 C18 1_555 1_555
C19 C18 1_555 1_555
H20 C19 1_555 1_555
C20 C19 1_555 1_555
H21 C20 1_555 1_555
C21 C20 1_555 1_555
H22 C21 1_555 1_555
C22 C17 1_555 1_555
H23 C22 1_555 1_555
C23 O4 1_555 1_555
O2B Ag1 1_555 1_555
Ag1B O2 1_555 1_555
N1B C4 1_555 1_555
Ag1B_2 N1B 1_555 1_555
C2B N1B 1_555 1_555
C1B C2B 1_555 1_555
S1B C1B 1_555 1_555
O1B Ag1B_2 1_555 1_555
O2B_2 S1B 1_555 1_555
O3B S1B 1_555 1_555
H1B C1B 1_555 1_555
H2B C1B 1_555 1_555
H3B C2B 1_555 1_555
H4B C2B 1_555 1_555
C3B N1B 1_555 1_555
H5B C3B 1_555 1_555
H6B C3B 1_555 1_555
C4B N1 1_555 1_555
H7B C4 1_555 1_555
H8B C4 1_555 1_555
P1B Ag1B_2 1_555 1_555
O2_2 Ag1B_2 1_555 1_555
Ag1_2 O2B_2 1_555 1_555
C5B P1B 1_555 1_555
C11B P1B 1_555 1_555
C17B P1B 1_555 1_555
C6B C5B 1_555 1_555
C10B C5B 1_555 1_555
C12B C11B 1_555 1_555
C16B C11B 1_555 1_555
C18B C17B 1_555 1_555
C22B C17B 1_555 1_555
H9B C6B 1_555 1_555
C7B C6B 1_555 1_555
C9B C10B 1_555 1_555
H13B C10B 1_555 1_555
H14B C12B 1_555 1_555
C13B C12B 1_555 1_555
C15B C16B 1_555 1_555
H18B C16B 1_555 1_555
H19B C18B 1_555 1_555
C19B C18B 1_555 1_555
C21B C22B 1_555 1_555
H23B C22B 1_555 1_555
H10B C7B 1_555 1_555
C8B C7B 1_555 1_555
H12B C9B 1_555 1_555
H15B C13B 1_555 1_555
C14B C13B 1_555 1_555
H17B C15B 1_555 1_555
H20B C19B 1_555 1_555
C20B C19B 1_555 1_555
H22B C21B 1_555 1_555
H11B C8B 1_555 1_555
H16B C14B 1_555 1_555
H21B C20B 1_555 1_555
C1 C2 1_555 1_555
C9 C10 1_555 1_555
C15 C16 1_555 1_555
C21 C22 1_555 1_555
S1B O1B 1_555 1_555
C3B C4B 1_555 1_555
C9B C8B 1_555 1_555
C15B C14B 1_555 1_555
C21B C20B 1_555 1_555

#END
