
#######################################################################
#
#                 Cambridge Crystallographic Data Centre
#                                CCDC 
#
#######################################################################
#
# If this CIF has been generated from an entry in the Cambridge 
# Structural Database, then it will include bibliographic, chemical, 
# crystal, experimental, refinement or atomic coordinate data resulting 
# from the CCDC's data processing and validation procedures.
#
#######################################################################

data_IYIMAF
_symmetry_cell_setting           monoclinic
_symmetry_space_group_name_H-M   'P 21/n'
_symmetry_Int_Tables_number      14
_space_group_name_Hall           '-P 2yn'
loop_
_symmetry_equiv_pos_site_id
_symmetry_equiv_pos_as_xyz
1 x,y,z
2 1/2-x,1/2+y,1/2-z
3 -x,-y,-z
4 1/2+x,1/2-y,1/2+z
_cell_length_a                   14.760(5)
_cell_length_b                   10.519(3)
_cell_length_c                   17.152(6)
_cell_angle_alpha                90
_cell_angle_beta                 97.265(5)
_cell_angle_gamma                90
_cell_volume                     2641.65
loop_
_atom_site_label
_atom_site_type_symbol
_atom_site_fract_x
_atom_site_fract_y
_atom_site_fract_z
Ru1 Ru 0.93240(2) 0.46344(3) 0.518428(18)
F1 F 1.03441(19) 0.5355(2) 0.78451(15)
F2 F 1.1221(2) 0.4659(2) 0.92420(15)
F3 F 1.3182(2) 0.2056(2) 0.79734(17)
F4 F 1.23142(18) 0.2748(2) 0.65780(15)
F5 F 0.90871(17) 0.0792(2) 0.40658(15)
F6 F 0.95070(18) -0.1534(2) 0.36857(15)
F7 F 1.26420(18) -0.0529(2) 0.41486(16)
F8 F 1.22437(17) 0.1811(2) 0.45479(16)
O1 O 0.99661(19) 0.4247(2) 0.62729(15)
O2 O 1.12967(18) 0.4913(2) 0.59054(15)
O3 O 0.96559(19) 0.2879(2) 0.48178(16)
O4 O 1.09709(18) 0.3599(2) 0.44577(16)
N1 N 0.8026(2) 0.3846(3) 0.5453(2)
N2 N 0.6408(2) 0.3276(3) 0.5264(2)
C1 C 1.0816(2) 0.4447(3) 0.6398(2)
C2 C 1.1309(2) 0.4064(3) 0.7181(2)
C3 C 1.1037(3) 0.4527(4) 0.7876(2)
C4 C 1.1490(3) 0.4168(4) 0.8591(2)
C5 C 1.2211(3) 0.3335(4) 0.8641(2)
C6 C 1.2478(3) 0.2868(4) 0.7957(2)
C7 C 1.2036(3) 0.3231(3) 0.7234(2)
C8 C 1.0410(2) 0.2722(3) 0.4547(2)
C9 C 1.0652(2) 0.1406(3) 0.4320(2)
C10 C 0.9971(2) 0.0501(3) 0.4095(2)
C11 C 1.0196(3) -0.0714(3) 0.3896(2)
C12 C 1.1088(3) -0.1097(3) 0.3906(2)
C13 C 1.1759(2) -0.0209(3) 0.4128(2)
C14 C 1.1547(2) 0.1019(3) 0.4326(2)
C15 C 0.7252(3) 0.3643(3) 0.5354(2)
C16 C 0.5726(2) 0.4139(3) 0.5136(2)
C17 C 0.5884(2) 0.5466(3) 0.5053(2)
C18 C 0.4806(2) 0.3671(3) 0.5081(2)
C19 C 0.4639(3) 0.2281(4) 0.5184(3)
H1 H 1.2519 0.3086 0.9138
H2 H 1.1237 -0.1938 0.3766
H3 H 0.6497 0.5762 0.5093
H4 H 0.4069 0.2164 0.5413
H5 H 0.4590 0.1857 0.4672
H6 H 0.5147 0.1912 0.5534
Ru1B Ru 1.06760(2) 0.53656(3) 0.481572(18)
Ru1B_2 Ru 0.06760(2) 0.53656(3) 0.481572(18)
F1B F 0.96559(19) 0.4645(2) 0.21549(15)
F2B F 0.8779(2) 0.5341(2) 0.07580(15)
F3B F 0.6818(2) 0.7944(2) 0.20266(17)
F4B F 0.76858(18) 0.7252(2) 0.34220(15)
F5B F 1.09129(17) 0.9208(2) 0.59342(15)
F6B F 1.04930(18) 1.1534(2) 0.63143(15)
F7B F 0.73580(18) 1.0529(2) 0.58514(16)
F8B F 0.77563(17) 0.8189(2) 0.54521(16)
O1B O 1.00339(19) 0.5753(2) 0.37271(15)
O2B O 0.87033(18) 0.5087(2) 0.40946(15)
O3B O 1.03441(19) 0.7121(2) 0.51822(16)
O4B O 0.90291(18) 0.6401(2) 0.55423(16)
N1B N 0.1974(2) 0.6154(3) 0.4547(2)
N1B_2 N 1.1974(2) 0.6154(3) 0.4547(2)
N2B N 0.3592(2) 0.6724(3) 0.4736(2)
C1B C 0.9184(2) 0.5553(3) 0.3602(2)
C2B C 0.8691(2) 0.5936(3) 0.2819(2)
C3B C 0.8963(3) 0.5473(4) 0.2124(2)
C4B C 0.8510(3) 0.5832(4) 0.1409(2)
C5B C 0.7789(3) 0.6665(4) 0.1359(2)
C6B C 0.7522(3) 0.7132(4) 0.2043(2)
C7B C 0.7964(3) 0.6769(3) 0.2766(2)
C8B C 0.9590(2) 0.7278(3) 0.5453(2)
C9B C 0.9348(2) 0.8594(3) 0.5680(2)
C10B C 1.0029(2) 0.9499(3) 0.5905(2)
C11B C 0.9804(3) 1.0714(3) 0.6104(2)
C12B C 0.8912(3) 1.1097(3) 0.6094(2)
C13B C 0.8241(2) 1.0209(3) 0.5872(2)
C14B C 0.8453(2) 0.8981(3) 0.5674(2)
C15B C 0.2748(3) 0.6357(3) 0.4646(2)
C16B C 0.4274(2) 0.5861(3) 0.4864(2)
C17B C 0.4116(2) 0.4534(3) 0.4947(2)
C18B C 0.5194(2) 0.6329(3) 0.4919(2)
C19B C 0.5361(3) 0.7719(4) 0.4816(3)
H1B H 0.7481 0.6914 0.0862
H2B H 0.8763 1.1938 0.6234
H3B H 0.3503 0.4238 0.4907
H4B H 0.5931 0.7836 0.4587
H5B H 0.5410 0.8143 0.5328
H6B H 0.4853 0.8088 0.4466
C20 C 0.7963(3) 0.5976(5) 0.7168(3)
C21 C 0.6943(3) 0.5722(4) 0.7098(2)
C22 C 0.6615(3) 0.4486(4) 0.7161(2)
C23 C 0.5692(3) 0.4243(4) 0.7110(2)
C24 C 0.5053(3) 0.5218(4) 0.6994(2)
C25 C 0.4041(3) 0.4937(5) 0.6943(3)
C26 C 0.5386(3) 0.6444(4) 0.6932(2)
C27 C 0.6309(3) 0.6693(4) 0.6980(2)
H7 H 0.8164 0.5944 0.6645
H8 H 0.8289 0.5329 0.7506
H9 H 0.8093 0.6819 0.7399
H10 H 0.7036 0.3801 0.7241
H11 H 0.5489 0.3392 0.7155
H12 H 0.3794 0.4772 0.6395
H13 H 0.3726 0.5669 0.7139
H14 H 0.3947 0.4188 0.7263
H15 H 0.4966 0.7131 0.6855
H16 H 0.6512 0.7543 0.6932
loop_
_geom_bond_atom_site_label_1
_geom_bond_atom_site_label_2
_geom_bond_site_symmetry_1
_geom_bond_site_symmetry_2
Ru1 O1 1_555 1_555
F1 C3 1_555 1_555
F2 C4 1_555 1_555
F3 C6 1_555 1_555
F4 C7 1_555 1_555
F5 C10 1_555 1_555
F6 C11 1_555 1_555
F7 C13 1_555 1_555
F8 C14 1_555 1_555
O1 C1 1_555 1_555
O2 C1 1_555 1_555
O3 Ru1 1_555 1_555
O4 C8 1_555 1_555
N1 Ru1 1_555 1_555
N2 C15 1_555 1_555
C1 C2 1_555 1_555
C2 C3 1_555 1_555
C3 C4 1_555 1_555
C4 C5 1_555 1_555
C5 C6 1_555 1_555
C6 C7 1_555 1_555
C7 C2 1_555 1_555
C8 O3 1_555 1_555
C9 C8 1_555 1_555
C10 C9 1_555 1_555
C11 C10 1_555 1_555
C12 C11 1_555 1_555
C13 C12 1_555 1_555
C14 C9 1_555 1_555
C15 N1 1_555 1_555
C16 N2 1_555 1_555
C17 C16 1_555 1_555
C18 C16 1_555 1_555
C19 C18 1_555 1_555
H1 C5 1_555 1_555
H2 C12 1_555 1_555
H3 C17 1_555 1_555
H4 C19 1_555 1_555
H5 C19 1_555 1_555
H6 C19 1_555 1_555
C20 C21 1_555 1_555
C21 C22 1_555 1_555
C22 C23 1_555 1_555
C23 C24 1_555 1_555
C24 C25 1_555 1_555
C25 H12 1_555 1_555
C26 C24 1_555 1_555
C27 C21 1_555 1_555
H7 C20 1_555 1_555
H8 C20 1_555 1_555
H9 C20 1_555 1_555
H10 C22 1_555 1_555
H11 C23 1_555 1_555
H13 C25 1_555 1_555
H14 C25 1_555 1_555
H15 C26 1_555 1_555
H16 C27 1_555 1_555
Ru1B Ru1 1_555 1_555
Ru1B_2 N1B 1_555 1_555
F1B C3B 1_555 1_555
F2B C4B 1_555 1_555
F3B C6B 1_555 1_555
F4B C7B 1_555 1_555
F5B C10B 1_555 1_555
F6B C11B 1_555 1_555
F7B C13B 1_555 1_555
F8B C14B 1_555 1_555
O1B Ru1B 1_555 1_555
O2B Ru1 1_555 1_555
O3B Ru1B 1_555 1_555
O4B Ru1 1_555 1_555
N1B C15B 1_555 1_555
N1B_2 Ru1B 1_555 1_555
N2B C15B 1_555 1_555
C1B O1B 1_555 1_555
C2B C1B 1_555 1_555
C3B C2B 1_555 1_555
C4B C3B 1_555 1_555
C5B C4B 1_555 1_555
C6B C5B 1_555 1_555
C7B C2B 1_555 1_555
C8B O3B 1_555 1_555
C9B C8B 1_555 1_555
C10B C9B 1_555 1_555
C11B C10B 1_555 1_555
C12B C11B 1_555 1_555
C13B C12B 1_555 1_555
C14B C9B 1_555 1_555
C16B N2B 1_555 1_555
C17B C18 1_555 1_555
C18B C17 1_555 1_555
C19B C18B 1_555 1_555
H1B C5B 1_555 1_555
H2B C12B 1_555 1_555
H3B C17B 1_555 1_555
H4B C19B 1_555 1_555
H5B C19B 1_555 1_555
H6B C19B 1_555 1_555
O2 Ru1B 1_555 1_555
O4 Ru1B 1_555 1_555
C13 C14 1_555 1_555
C26 C27 1_555 1_555
O2B C1B 1_555 1_555
O4B C8B 1_555 1_555
C6B C7B 1_555 1_555
C13B C14B 1_555 1_555
C16B C17B 1_555 1_555
C16B C18B 1_555 1_555

#END
