
#######################################################################
#
#                 Cambridge Crystallographic Data Centre
#                                CCDC 
#
#######################################################################
#
# If this CIF has been generated from an entry in the Cambridge 
# Structural Database, then it will include bibliographic, chemical, 
# crystal, experimental, refinement or atomic coordinate data resulting 
# from the CCDC's data processing and validation procedures.
#
#######################################################################

data_IYIMAF01
_symmetry_cell_setting           triclinic
_symmetry_space_group_name_H-M   'P -1'
_symmetry_Int_Tables_number      2
_space_group_name_Hall           '-P 1'
loop_
_symmetry_equiv_pos_site_id
_symmetry_equiv_pos_as_xyz
1 x,y,z
2 -x,-y,-z
_cell_length_a                   14.803(2)
_cell_length_b                   21.2201(4)
_cell_length_c                   20.4174(9)
_cell_angle_alpha                121.201(2)
_cell_angle_beta                 96.222(10)
_cell_angle_gamma                90.121(4)
_cell_volume                     5440.72
loop_
_atom_site_label
_atom_site_type_symbol
_atom_site_fract_x
_atom_site_fract_y
_atom_site_fract_z
Ru1 Ru 0.93183(3) 0.49135(3) 1.01749(3)
F1 F 1.0324(3) 0.6591(3) 1.2778(2)
F2 F 1.1154(4) 0.6935(3) 1.4169(3)
F3 F 1.2235(3) 0.4640(3) 1.1590(3)
F4 F 1.3061(3) 0.4986(3) 1.2972(3)
F5 F 1.2193(2) 0.3173(2) 0.9580(3)
F6 F 1.2550(3) 0.1808(3) 0.9187(3)
F7 F 0.9036(2) 0.2477(2) 0.9076(2)
F8 F 0.9409(3) 0.1131(2) 0.8698(3)
O1 O 0.9635(2) 0.3863(2) 0.9826(2)
O2 O 0.9946(2) 0.5256(2) 1.1244(2)
O3 O 1.0956(2) 0.4037(2) 0.9484(2)
O4 O 1.1284(2) 0.5395(2) 1.0900(2)
N1 N 0.6408(3) 0.4295(3) 1.0281(3)
N2 N 0.8015(3) 0.4666(3) 1.0434(3)
C1 C 0.5884(4) 0.5250(4) 1.0049(4)
C2 C 1.0389(4) 0.3637(4) 0.9558(3)
C3 C 0.9915(4) 0.2330(5) 0.9110(3)
C4 C 0.7242(4) 0.4517(4) 1.0353(4)
C5 C 0.4803(4) 0.4386(4) 1.0100(4)
C6 C 0.5729(4) 0.4659(4) 1.0145(4)
C7 C 1.0598(4) 0.2888(4) 0.9346(3)
C8 C 1.1255(4) 0.5607(4) 1.2151(4)
C9 C 1.1494(4) 0.2674(5) 0.9354(4)
C10 C 1.0992(5) 0.6185(4) 1.2820(4)
C11 C 1.1966(4) 0.5219(4) 1.2222(4)
C12 C 1.2116(6) 0.5987(5) 1.3620(5)
C13 C 1.0983(5) 0.1415(4) 0.8924(4)
C14 C 0.4630(4) 0.3764(5) 1.0211(6)
C15 C 1.2386(5) 0.5391(5) 1.2944(5)
C16 C 1.1661(5) 0.1970(5) 0.9155(4)
C17 C 1.0111(4) 0.1635(5) 0.8914(4)
C18 C 1.1428(6) 0.6359(5) 1.3532(4)
C19 C 1.0797(4) 0.5408(4) 1.1376(3)
Ru1A Ru 1.06817(3) 0.50865(3) 0.98251(3)
Ru1A_2 Ru 0.06817(3) 0.50865(3) 0.98251(3)
F1A F 0.9676(3) 0.3409(3) 0.7222(2)
F2A F 0.8846(4) 0.3065(3) 0.5831(3)
F3A F 0.7765(3) 0.5360(3) 0.8410(3)
F4A F 0.6939(3) 0.5014(3) 0.7028(3)
F5A F 0.7807(2) 0.6827(2) 1.0420(3)
F6A F 0.7450(3) 0.8192(3) 1.0813(3)
F7A F 1.0964(2) 0.7523(2) 1.0924(2)
F8A F 1.0591(3) 0.8869(2) 1.1302(3)
O1A O 1.0365(2) 0.6137(2) 1.0174(2)
O2A O 1.0054(2) 0.4744(2) 0.8756(2)
O3A O 0.9044(2) 0.5963(2) 1.0516(2)
O4A O 0.8716(2) 0.4605(2) 0.9100(2)
N1A N 0.3592(3) 0.5705(3) 0.9719(3)
N2A N 0.1985(3) 0.5334(3) 0.9566(3)
N2A_2 N 1.1985(3) 0.5334(3) 0.9566(3)
C1A C 0.4116(4) 0.4750(4) 0.9951(4)
C2A C 0.9611(4) 0.6363(4) 1.0442(3)
C3A C 1.0085(4) 0.7670(5) 1.0890(3)
C4A C 0.2758(4) 0.5483(4) 0.9647(4)
C5A C 0.5197(4) 0.5614(4) 0.9900(4)
C6A C 0.4271(4) 0.5341(4) 0.9855(4)
C7A C 0.9402(4) 0.7112(4) 1.0654(3)
C8A C 0.8745(4) 0.4393(4) 0.7849(4)
C9A C 0.8506(4) 0.7326(5) 1.0646(4)
C10A C 0.9008(5) 0.3815(4) 0.7180(4)
C11A C 0.8034(4) 0.4781(4) 0.7778(4)
C12A C 0.7884(6) 0.4013(5) 0.6380(5)
C13A C 0.9017(5) 0.8585(4) 1.1076(4)
C14A C 0.5370(4) 0.6236(5) 0.9789(6)
C15A C 0.7614(5) 0.4609(5) 0.7056(5)
C16A C 0.8339(5) 0.8030(5) 1.0845(4)
C17A C 0.9889(4) 0.8365(5) 1.1086(4)
C18A C 0.8572(6) 0.3641(5) 0.6468(4)
C19A C 0.9203(4) 0.4592(4) 0.8624(3)
Ru2 Ru 0.06601(3) 1.01089(3) 0.98228(3)
F9 F -0.0831(2) 0.7404(2) 0.9020(2)
F10 F -0.0359(3) 0.6090(2) 0.8681(3)
F11 F 0.2284(2) 0.8245(2) 0.9574(3)
F12 F 0.2732(3) 0.6902(3) 0.9206(3)
F13 F 0.0373(3) 1.1455(3) 1.2841(3)
F14 F 0.1303(5) 1.1766(4) 1.4175(3)
F15 F 0.2400(3) 0.9658(3) 1.1483(3)
F16 F 0.3331(4) 0.9963(4) 1.2815(4)
O5 O 0.0982(3) 0.9045(2) 0.9450(2)
O6 O 0.1312(2) 1.0412(2) 1.0898(2)
O7 O -0.0313(2) 0.8828(2) 0.9797(2)
O8 O 0.0007(3) 1.0218(2) 1.1252(2)
N3 N 0.3663(3) 1.0690(3) 0.9676(4)
N4 N 0.2026(3) 1.0385(3) 0.9565(3)
C20 C 0.4094(4) 0.9759(4) 0.9955(4)
C21 C 0.0440(4) 0.8640(4) 0.9531(3)
C22 C 0.0061(4) 0.7315(4) 0.9083(3)
C23 C 0.5241(4) 1.0590(4) 0.9872(4)
C24 C 0.4289(4) 1.0341(4) 0.9828(4)
C25 C 0.2790(4) 1.0500(4) 0.9626(4)
C26 C 0.0698(4) 0.7899(4) 0.9318(3)
C27 C 0.1361(4) 1.0554(4) 1.2124(4)
C28 C 0.1608(4) 0.7716(5) 0.9344(4)
C29 C 0.1090(5) 1.1080(5) 1.2818(4)
C30 C 0.2117(5) 1.0173(5) 1.2135(5)
C31 C 0.2329(7) 1.0873(7) 1.3534(6)
C32 C 0.1198(5) 0.6441(4) 0.8929(4)
C33 C 0.5410(5) 1.1194(6) 0.9727(6)
C34 C 0.2604(6) 1.0332(5) 1.2833(6)
C35 C 0.0307(5) 0.6634(5) 0.8907(4)
C36 C 0.1828(5) 0.7020(5) 0.9161(4)
C37 C 0.1581(7) 1.1239(6) 1.3514(5)
C38 C 0.0846(4) 1.0389(4) 1.1364(3)
Ru2A Ru -0.06601(3) 0.98911(3) 1.01772(3)
Ru2A_2 Ru 0.93399(3) 0.98911(3) 1.01772(3)
F9A F 0.0831(2) 1.2596(2) 1.0980(2)
F10A F 0.0359(3) 1.3910(2) 1.1319(3)
F11A F -0.2284(2) 1.1755(2) 1.0426(3)
F12A F -0.2732(3) 1.3098(3) 1.0794(3)
F13A F -0.0373(3) 0.8545(3) 0.7159(3)
F14A F -0.1303(5) 0.8234(4) 0.5825(3)
F15A F -0.2400(3) 1.0342(3) 0.8517(3)
F16A F -0.3331(4) 1.0037(4) 0.7185(4)
O5A O -0.0982(3) 1.0955(2) 1.0550(2)
O6A O -0.1312(2) 0.9588(2) 0.9102(2)
O7A O 0.0313(2) 1.1172(2) 1.0203(2)
O8A O -0.0007(3) 0.9782(2) 0.8748(2)
N3A N 0.6337(3) 0.9310(3) 1.0324(4)
N4A N 0.7974(3) 0.9615(3) 1.0435(3)
N4A_2 N -0.2026(3) 0.9615(3) 1.0435(3)
C20A C 0.5906(4) 1.0241(4) 1.0045(4)
C21A C -0.0440(4) 1.1360(4) 1.0469(3)
C22A C -0.0061(4) 1.2685(4) 1.0917(3)
C23A C 0.4759(4) 0.9410(4) 1.0128(4)
C24A C 0.5711(4) 0.9659(4) 1.0172(4)
C25A C 0.7210(4) 0.9500(4) 1.0374(4)
C26A C -0.0698(4) 1.2101(4) 1.0682(3)
C27A C -0.1361(4) 0.9446(4) 0.7876(4)
C28A C -0.1608(4) 1.2284(5) 1.0656(4)
C29A C -0.1090(5) 0.8920(5) 0.7182(4)
C30A C -0.2117(5) 0.9827(5) 0.7865(5)
C31A C -0.2329(7) 0.9127(7) 0.6466(6)
C32A C -0.1198(5) 1.3559(4) 1.1071(4)
C33A C 0.4590(5) 0.8806(6) 1.0273(6)
C34A C -0.2604(6) 0.9668(5) 0.7167(6)
C35A C -0.0307(5) 1.3366(5) 1.1093(4)
C36A C -0.1828(5) 1.2980(5) 1.0839(4)
C37A C -0.1581(7) 0.8761(6) 0.6486(5)
C38A C -0.0846(4) 0.9611(4) 0.8636(3)
Ru3 Ru 0.56710(3) 0.47307(3) 0.48091(3)
F17 F 0.5416(4) 0.6307(4) 0.7819(3)
F18 F 0.6331(5) 0.7343(4) 0.9154(3)
F19 F 0.7336(3) 0.6852(3) 0.6465(3)
F20 F 0.8277(4) 0.7875(3) 0.7795(4)
F21 F 0.5967(2) 0.3407(2) 0.5935(2)
F22 F 0.5584(3) 0.2427(3) 0.6300(3)
F23 F 0.2814(2) 0.3601(3) 0.5444(3)
F24 F 0.2453(3) 0.2617(3) 0.5825(3)
O9 O 0.5362(2) 0.4039(2) 0.5170(2)
O10 O 0.6307(2) 0.5492(2) 0.5875(2)
O11 O 0.4063(3) 0.4568(2) 0.5543(2)
O12 O 0.4996(2) 0.6002(2) 0.6252(2)
N5 N 0.6966(3) 0.4217(3) 0.4545(3)
N6 N 0.8581(3) 0.4024(3) 0.4734(3)
C39 C 0.4618(4) 0.4083(4) 0.5450(3)
C40 C 0.9120(4) 0.5208(5) 0.4946(4)
C41 C 0.4393(4) 0.3550(4) 0.5673(3)
C42 C 0.5087(4) 0.3222(4) 0.5894(3)
C43 C 1.0177(4) 0.4292(5) 0.4912(4)
C44 C 0.7738(4) 0.4170(4) 0.4651(4)
C45 C 0.9267(4) 0.4519(5) 0.4866(4)
C46 C 0.6348(4) 0.6550(4) 0.7104(4)
C47 C 0.3510(4) 0.3321(4) 0.5663(4)
C48 C 0.7081(5) 0.6962(4) 0.7129(5)
C49 C 0.7320(7) 0.7633(6) 0.8515(6)
C50 C 0.3331(5) 0.2823(4) 0.5859(4)
C51 C 0.6106(5) 0.6691(5) 0.7807(4)
C52 C 0.4009(5) 0.2488(4) 0.6075(4)
C53 C 0.4879(5) 0.2725(4) 0.6099(4)
C54 C 0.7560(6) 0.7497(5) 0.7821(6)
C55 C 0.6589(7) 0.7226(6) 0.8487(5)
C56 C 1.0342(5) 0.3552(5) 0.4804(6)
C57 C 0.5842(4) 0.5975(4) 0.6359(3)
Ru3A Ru 0.43290(3) 0.52693(3) 0.51909(3)
Ru3A_2 Ru 1.43290(3) 0.52693(3) 0.51909(3)
F17A F 0.4584(4) 0.3693(4) 0.2181(3)
F18A F 0.3669(5) 0.2657(4) 0.0846(3)
F19A F 0.2664(3) 0.3148(3) 0.3535(3)
F20A F 0.1723(4) 0.2125(3) 0.2205(4)
F21A F 0.4033(2) 0.6593(2) 0.4065(2)
F22A F 0.4416(3) 0.7573(3) 0.3700(3)
F23A F 0.7186(2) 0.6399(3) 0.4556(3)
F24A F 0.7547(3) 0.7383(3) 0.4175(3)
O9A O 0.4638(2) 0.5961(2) 0.4830(2)
O10A O 0.3693(2) 0.4508(2) 0.4125(2)
O11A O 0.5937(3) 0.5432(2) 0.4457(2)
O12A O 0.5004(2) 0.3998(2) 0.3748(2)
N5A N 1.3034(3) 0.5783(3) 0.5455(3)
N5A_2 N 0.3034(3) 0.5783(3) 0.5455(3)
N6A N 1.1419(3) 0.5976(3) 0.5266(3)
C39A C 0.5382(4) 0.5917(4) 0.4550(3)
C40A C 1.0880(4) 0.4792(5) 0.5054(4)
C41A C 0.5607(4) 0.6450(4) 0.4327(3)
C42A C 0.4913(4) 0.6778(4) 0.4106(3)
C43A C 0.9823(4) 0.5708(5) 0.5088(4)
C44A C 1.2262(4) 0.5830(4) 0.5349(4)
C45A C 1.0733(4) 0.5481(5) 0.5134(4)
C46A C 0.3652(4) 0.3450(4) 0.2896(4)
C47A C 0.6490(4) 0.6679(4) 0.4337(4)
C48A C 0.2919(5) 0.3038(4) 0.2871(5)
C49A C 0.2680(7) 0.2367(6) 0.1485(6)
C50A C 0.6669(5) 0.7177(4) 0.4141(4)
C51A C 0.3894(5) 0.3309(5) 0.2193(4)
C52A C 0.5991(5) 0.7512(4) 0.3925(4)
C53A C 0.5121(5) 0.7275(4) 0.3901(4)
C54A C 0.2440(6) 0.2503(5) 0.2179(6)
C55A C 0.3411(7) 0.2774(6) 0.1513(5)
C56A C 0.9658(5) 0.6448(5) 0.5196(6)
C57A C 0.4158(4) 0.4025(4) 0.3641(3)
Ru4 Ru 0.43314(3) 1.02718(3) 0.51618(3)
F25 F 0.7315(3) 1.1912(3) 0.6602(2)
F26 F 0.8137(4) 1.2952(3) 0.7981(3)
F27 F 0.5282(3) 1.1257(3) 0.7802(2)
F28 F 0.6100(4) 1.2289(3) 0.9180(3)
F29 F 0.2706(2) 0.8643(3) 0.5418(3)
F30 F 0.2262(3) 0.7678(3) 0.5795(3)
F31 F 0.5817(3) 0.8371(2) 0.5962(2)
F32 F 0.5351(3) 0.7406(3) 0.6320(3)
O13 O 0.4002(2) 0.9572(3) 0.5524(2)
O14 O 0.4966(2) 1.1020(2) 0.6251(2)
O15 O 0.5307(2) 0.9037(2) 0.5207(2)
O16 O 0.6289(2) 1.0498(2) 0.5931(2)
N7 N 0.2980(3) 1.0810(3) 0.5416(3)
N8 N 0.1349(3) 1.1019(3) 0.5317(4)
C58 C 0.4544(4) 0.9099(4) 0.5455(3)
C59 C 0.0897(4) 0.9804(5) 0.5048(4)
C60 C 0.4281(4) 0.8561(4) 0.5676(3)
C61 C 0.4927(4) 0.8211(4) 0.5910(4)
C62 C -0.0232(4) 1.0719(5) 0.5121(4)
C63 C 0.0717(4) 1.0515(5) 0.5166(4)
C64 C 0.6274(4) 1.1558(4) 0.7162(3)
C65 C 0.7010(4) 1.1996(4) 0.7232(4)
C66 C 0.3381(4) 0.8356(4) 0.5649(4)
C67 C 0.7147(6) 1.2650(4) 0.8615(5)
C68 C 0.3154(5) 0.7850(4) 0.5838(4)
C69 C 0.5985(4) 1.1671(4) 0.7836(4)
C70 C 0.4675(6) 0.7713(5) 0.6102(4)
C71 C 0.6416(6) 1.2207(5) 0.8543(4)
C72 C -0.0401(5) 1.1465(5) 0.5258(7)
C73 C 0.7434(5) 1.2529(4) 0.7942(5)
C74 C 0.5808(4) 1.0979(4) 0.6392(3)
C75 C 0.3784(5) 0.7504(4) 0.6067(4)
C76 C 0.2213(4) 1.0860(4) 0.5355(4)
Ru4A Ru 0.56686(3) 0.97282(3) 0.48382(3)
Ru4A_2 Ru -0.43314(3) 0.97282(3) 0.48382(3)
F25A F 0.2685(3) 0.8088(3) 0.3398(2)
F26A F 0.1863(4) 0.7048(3) 0.2019(3)
F27A F 0.4718(3) 0.8743(3) 0.2198(2)
F28A F 0.3900(4) 0.7711(3) 0.0820(3)
F29A F 0.7294(2) 1.1357(3) 0.4582(3)
F30A F 0.7738(3) 1.2322(3) 0.4205(3)
F31A F 0.4183(3) 1.1629(2) 0.4038(2)
F32A F 0.4649(3) 1.2594(3) 0.3680(3)
O13A O 0.5998(2) 1.0428(3) 0.4476(2)
O14A O 0.5034(2) 0.8980(2) 0.3749(2)
O15A O 0.4693(2) 1.0963(2) 0.4793(2)
O16A O 0.3711(2) 0.9502(2) 0.4069(2)
N7A N -0.2980(3) 0.9190(3) 0.4584(3)
N7A_2 N 0.7020(3) 0.9190(3) 0.4584(3)
N8A N -0.1349(3) 0.8981(3) 0.4683(4)
C58A C 0.5456(4) 1.0901(4) 0.4545(3)
C59A C -0.0897(4) 1.0196(5) 0.4952(4)
C60A C 0.5719(4) 1.1439(4) 0.4324(3)
C61A C 0.5073(4) 1.1789(4) 0.4090(4)
C62A C 0.0232(4) 0.9281(5) 0.4879(4)
C63A C -0.0717(4) 0.9485(5) 0.4834(4)
C64A C 0.3726(4) 0.8442(4) 0.2838(3)
C65A C 0.2990(4) 0.8004(4) 0.2768(4)
C66A C 0.6619(4) 1.1644(4) 0.4351(4)
C67A C 0.2853(6) 0.7350(4) 0.1385(5)
C68A C 0.6846(5) 1.2150(4) 0.4162(4)
C69A C 0.4015(4) 0.8329(4) 0.2164(4)
C70A C 0.5325(6) 1.2287(5) 0.3898(4)
C71A C 0.3584(6) 0.7793(5) 0.1457(4)
C72A C 0.0401(5) 0.8535(5) 0.4742(7)
C73A C 0.2566(5) 0.7471(4) 0.2058(5)
C74A C 0.4192(4) 0.9021(4) 0.3608(3)
C75A C 0.6216(5) 1.2496(4) 0.3933(4)
C76A C -0.2213(4) 0.9140(4) 0.4645(4)
C77 C 0.3423(7) 0.4228(6) 0.7815(5)
C78 C 0.3697(7) 0.3229(6) 0.8020(5)
C79 C 0.3086(6) 0.3675(6) 0.7900(5)
C80 C 0.4337(6) 0.4371(5) 0.7855(5)
C81 C 0.5985(6) 0.4122(6) 0.8047(6)
C82 C 0.4635(8) 0.3381(6) 0.8068(5)
C83 C 0.4969(6) 0.3949(6) 0.7987(5)
C84 C 0.2058(6) 0.3532(6) 0.7838(6)
C85 C 0.3380(7) 0.9224(6) 0.7801(5)
C86 C 0.2976(7) 0.8680(6) 0.7894(5)
C87 C 0.3573(9) 0.8237(7) 0.8043(5)
C88 C 0.4308(6) 0.9330(5) 0.7857(5)
C89 C 0.4882(6) 0.8880(6) 0.8002(5)
C90 C 0.5895(6) 0.8976(6) 0.8049(6)
C91 C 0.4509(8) 0.8346(6) 0.8106(5)
C92 C 0.1937(7) 0.8574(7) 0.7816(6)
C93 C 0.1383(7) 0.5200(6) 0.6990(5)
C94 C 0.2008(6) 0.5786(7) 0.7118(5)
C95 C 0.0113(6) 0.5929(6) 0.7002(4)
C96 C 0.0714(6) 0.6491(6) 0.7118(5)
C97 C 0.1647(7) 0.6409(6) 0.7176(5)
C98 C -0.0912(6) 0.6005(6) 0.6946(5)
C99 C 0.3038(7) 0.5717(7) 0.7192(6)
C100 C 0.0467(7) 0.5283(7) 0.6937(5)
C101 C 0.8661(8) 0.9782(7) 0.3031(6)
C102 C 0.8052(7) 0.9185(7) 0.2891(5)
C103 C 0.9948(6) 0.9054(7) 0.2986(5)
C104 C 0.8400(7) 0.8560(7) 0.2798(5)
C105 C 0.9341(7) 0.8469(6) 0.2838(5)
C106 C 1.0983(7) 0.8963(7) 0.3024(6)
C107 C 0.7023(7) 0.9254(8) 0.2821(6)
C108 C 0.9601(8) 0.9701(6) 0.3080(5)
loop_
_geom_bond_atom_site_label_1
_geom_bond_atom_site_label_2
_geom_bond_site_symmetry_1
_geom_bond_site_symmetry_2
Ru1 O1 1_555 1_555
F1 C10 1_555 1_555
F2 C18 1_555 1_555
F3 C11 1_555 1_555
F4 C15 1_555 1_555
F5 C9 1_555 1_555
F6 C16 1_555 1_555
F7 C3 1_555 1_555
F8 C17 1_555 1_555
O1 C2 1_555 1_555
O2 Ru1 1_555 1_555
O3 C2 1_555 1_555
O4 C19 1_555 1_555
N1 C4 1_555 1_555
N2 Ru1 1_555 1_555
C1 C6 1_555 1_555
C2 C7 1_555 1_555
C3 C7 1_555 1_555
C4 N2 1_555 1_555
C5 C6 1_555 1_555
C6 N1 1_555 1_555
C7 C9 1_555 1_555
C8 C10 1_555 1_555
C9 C16 1_555 1_555
C10 C18 1_555 1_555
C11 C8 1_555 1_555
C12 C15 1_555 1_555
C13 C16 1_555 1_555
C14 C5 1_555 1_555
C15 C11 1_555 1_555
C17 C3 1_555 1_555
C18 C12 1_555 1_555
C19 O2 1_555 1_555
Ru2 O5 1_555 1_555
F9 C22 1_555 1_555
F10 C35 1_555 1_555
F11 C28 1_555 1_555
F12 C36 1_555 1_555
F13 C29 1_555 1_555
F14 C37 1_555 1_555
F15 C30 1_555 1_555
F16 C34 1_555 1_555
O5 C21 1_555 1_555
O6 Ru2 1_555 1_555
O7 C21 1_555 1_555
O8 C38 1_555 1_555
N3 C24 1_555 1_555
N4 Ru2 1_555 1_555
C20 C24 1_555 1_555
C21 C26 1_555 1_555
C22 C26 1_555 1_555
C23 C24 1_555 1_555
C25 N3 1_555 1_555
C26 C28 1_555 1_555
C27 C29 1_555 1_555
C28 C36 1_555 1_555
C29 C37 1_555 1_555
C30 C27 1_555 1_555
C31 C34 1_555 1_555
C32 C35 1_555 1_555
C33 C23 1_555 1_555
C34 C30 1_555 1_555
C35 C22 1_555 1_555
C36 C32 1_555 1_555
C37 C31 1_555 1_555
C38 O6 1_555 1_555
Ru3 O9 1_555 1_555
F17 C51 1_555 1_555
F18 C55 1_555 1_555
F19 C48 1_555 1_555
F20 C54 1_555 1_555
F21 C42 1_555 1_555
F22 C53 1_555 1_555
F23 C47 1_555 1_555
F24 C50 1_555 1_555
O9 C39 1_555 1_555
O10 Ru3 1_555 1_555
O11 C39 1_555 1_555
O12 C57 1_555 1_555
N5 Ru3 1_555 1_555
N6 C44 1_555 1_555
C39 C41 1_555 1_555
C40 C45 1_555 1_555
C41 C42 1_555 1_555
C42 C53 1_555 1_555
C43 C45 1_555 1_555
C44 N5 1_555 1_555
C45 N6 1_555 1_555
C46 C48 1_555 1_555
C47 C41 1_555 1_555
C48 C54 1_555 1_555
C49 C54 1_555 1_555
C50 C47 1_555 1_555
C51 C46 1_555 1_555
C52 C50 1_555 1_555
C53 C52 1_555 1_555
C55 C49 1_555 1_555
C56 C43 1_555 1_555
C57 O10 1_555 1_555
Ru4 O13 1_555 1_555
F25 C65 1_555 1_555
F26 C73 1_555 1_555
F27 C69 1_555 1_555
F28 C71 1_555 1_555
F29 C66 1_555 1_555
F30 C68 1_555 1_555
F31 C61 1_555 1_555
F32 C70 1_555 1_555
O13 C58 1_555 1_555
O14 Ru4 1_555 1_555
O15 C58 1_555 1_555
O16 C74 1_555 1_555
N7 Ru4 1_555 1_555
N8 C63 1_555 1_555
C58 C60 1_555 1_555
C59 C63 1_555 1_555
C60 C61 1_555 1_555
C61 C70 1_555 1_555
C62 C63 1_555 1_555
C64 C65 1_555 1_555
C65 C73 1_555 1_555
C66 C60 1_555 1_555
C67 C71 1_555 1_555
C68 C66 1_555 1_555
C69 C64 1_555 1_555
C70 C75 1_555 1_555
C71 C69 1_555 1_555
C72 C62 1_555 1_555
C73 C67 1_555 1_555
C74 O14 1_555 1_555
C75 C68 1_555 1_555
C76 N7 1_555 1_555
C77 C79 1_555 1_555
C78 C79 1_555 1_555
C79 C84 1_555 1_555
C80 C77 1_555 1_555
C81 C83 1_555 1_555
C82 C78 1_555 1_555
C83 C80 1_555 1_555
C85 C86 1_555 1_555
C86 C87 1_555 1_555
C87 C91 1_555 1_555
C88 C85 1_555 1_555
C89 C88 1_555 1_555
C90 C89 1_555 1_555
C91 C89 1_555 1_555
C92 C86 1_555 1_555
C93 C94 1_555 1_555
C94 C97 1_555 1_555
C95 C96 1_555 1_555
C96 C97 1_555 1_555
C98 C95 1_555 1_555
C99 C94 1_555 1_555
C100 C93 1_555 1_555
C101 C102 1_555 1_555
C102 C104 1_555 1_555
C103 C105 1_555 1_555
C104 C105 1_555 1_555
C106 C103 1_555 1_555
C107 C102 1_555 1_555
C108 C101 1_555 1_555
Ru1A Ru1 1_555 1_555
Ru1A_2 N2A 1_555 1_555
F1A C10A 1_555 1_555
F2A C18A 1_555 1_555
F3A C11A 1_555 1_555
F4A C15A 1_555 1_555
F5A C9A 1_555 1_555
F6A C16A 1_555 1_555
F7A C3A 1_555 1_555
F8A C17A 1_555 1_555
O1A Ru1A 1_555 1_555
O2A Ru1A 1_555 1_555
O3A Ru1 1_555 1_555
O4A Ru1 1_555 1_555
N1A C4A 1_555 1_555
N2A C4A 1_555 1_555
N2A_2 Ru1A 1_555 1_555
C1A C5 1_555 1_555
C2A O1A 1_555 1_555
C3A C7A 1_555 1_555
C5A C1 1_555 1_555
C6A N1A 1_555 1_555
C7A C2A 1_555 1_555
C8A C10A 1_555 1_555
C9A C7A 1_555 1_555
C10A C18A 1_555 1_555
C11A C8A 1_555 1_555
C12A C15A 1_555 1_555
C13A C16A 1_555 1_555
C14A C5A 1_555 1_555
C15A C11A 1_555 1_555
C16A C9A 1_555 1_555
C17A C3A 1_555 1_555
C18A C12A 1_555 1_555
C19A O2A 1_555 1_555
Ru2A Ru2 1_555 1_555
Ru2A_2 N4A 1_555 1_555
F9A C22A 1_555 1_555
F10A C35A 1_555 1_555
F11A C28A 1_555 1_555
F12A C36A 1_555 1_555
F13A C29A 1_555 1_555
F14A C37A 1_555 1_555
F15A C30A 1_555 1_555
F16A C34A 1_555 1_555
O5A Ru2A 1_555 1_555
O6A Ru2A 1_555 1_555
O7A Ru2 1_555 1_555
O8A Ru2 1_555 1_555
N3A C24A 1_555 1_555
N4A C25A 1_555 1_555
N4A_2 Ru2A 1_555 1_555
C20A C23 1_555 1_555
C21A O5A 1_555 1_555
C22A C26A 1_555 1_555
C23A C20 1_555 1_555
C24A C20A 1_555 1_555
C25A N3A 1_555 1_555
C26A C21A 1_555 1_555
C27A C29A 1_555 1_555
C28A C26A 1_555 1_555
C29A C37A 1_555 1_555
C30A C27A 1_555 1_555
C31A C34A 1_555 1_555
C32A C35A 1_555 1_555
C33A C23A 1_555 1_555
C34A C30A 1_555 1_555
C35A C22A 1_555 1_555
C36A C28A 1_555 1_555
C37A C31A 1_555 1_555
C38A O6A 1_555 1_555
Ru3A Ru3 1_555 1_555
Ru3A_2 N5A 1_555 1_555
F17A C51A 1_555 1_555
F18A C55A 1_555 1_555
F19A C48A 1_555 1_555
F20A C54A 1_555 1_555
F21A C42A 1_555 1_555
F22A C53A 1_555 1_555
F23A C47A 1_555 1_555
F24A C50A 1_555 1_555
O9A Ru3A 1_555 1_555
O10A Ru3A 1_555 1_555
O11A Ru3 1_555 1_555
O12A Ru3 1_555 1_555
N5A C44A 1_555 1_555
N5A_2 Ru3A 1_555 1_555
N6A C44A 1_555 1_555
C39A O9A 1_555 1_555
C40A C43 1_555 1_555
C41A C39A 1_555 1_555
C42A C41A 1_555 1_555
C43A C40 1_555 1_555
C45A N6A 1_555 1_555
C46A C48A 1_555 1_555
C47A C41A 1_555 1_555
C48A C54A 1_555 1_555
C49A C54A 1_555 1_555
C50A C47A 1_555 1_555
C51A C46A 1_555 1_555
C52A C50A 1_555 1_555
C53A C42A 1_555 1_555
C55A C49A 1_555 1_555
C56A C43A 1_555 1_555
C57A O10A 1_555 1_555
Ru4A Ru4 1_555 1_555
Ru4A_2 N7A 1_555 1_555
F25A C65A 1_555 1_555
F26A C73A 1_555 1_555
F27A C69A 1_555 1_555
F28A C71A 1_555 1_555
F29A C66A 1_555 1_555
F30A C68A 1_555 1_555
F31A C61A 1_555 1_555
F32A C70A 1_555 1_555
O13A Ru4A 1_555 1_555
O14A Ru4A 1_555 1_555
O15A Ru4 1_555 1_555
O16A Ru4 1_555 1_555
N7A C76A 1_555 1_555
N7A_2 Ru4A 1_555 1_555
N8A C63A 1_555 1_555
C58A O13A 1_555 1_555
C59A C62 1_555 1_555
C60A C58A 1_555 1_555
C61A C60A 1_555 1_555
C62A C59 1_555 1_555
C63A C59A 1_555 1_555
C64A C65A 1_555 1_555
C65A C73A 1_555 1_555
C66A C60A 1_555 1_555
C67A C71A 1_555 1_555
C68A C66A 1_555 1_555
C69A C64A 1_555 1_555
C70A C61A 1_555 1_555
C71A C69A 1_555 1_555
C72A C62A 1_555 1_555
C73A C67A 1_555 1_555
C74A O14A 1_555 1_555
C75A C68A 1_555 1_555
C76A N8A 1_555 1_555
O3 Ru1A 1_555 1_555
O4 Ru1A 1_555 1_555
C8 C19 1_555 1_555
C13 C17 1_555 1_555
O7 Ru2A 1_555 1_555
O8 Ru2A 1_555 1_555
N4 C25 1_555 1_555
C27 C38 1_555 1_555
O11 Ru3A 1_555 1_555
O12 Ru3A 1_555 1_555
C46 C57 1_555 1_555
C51 C55 1_555 1_555
O15 Ru4A 1_555 1_555
O16 Ru4A 1_555 1_555
N8 C76 1_555 1_555
C64 C74 1_555 1_555
C82 C83 1_555 1_555
C95 C100 1_555 1_555
C103 C108 1_555 1_555
O3A C2A 1_555 1_555
O4A C19A 1_555 1_555
C1A C6A 1_555 1_555
C5A C6A 1_555 1_555
C8A C19A 1_555 1_555
C13A C17A 1_555 1_555
O7A C21A 1_555 1_555
O8A C38A 1_555 1_555
C23A C24A 1_555 1_555
C27A C38A 1_555 1_555
C32A C36A 1_555 1_555
O11A C39A 1_555 1_555
O12A C57A 1_555 1_555
C40A C45A 1_555 1_555
C43A C45A 1_555 1_555
C46A C57A 1_555 1_555
C51A C55A 1_555 1_555
C52A C53A 1_555 1_555
O15A C58A 1_555 1_555
O16A C74A 1_555 1_555
C62A C63A 1_555 1_555
C64A C74A 1_555 1_555
C70A C75A 1_555 1_555

#END
