
#######################################################################
#
#                 Cambridge Crystallographic Data Centre
#                                CCDC 
#
#######################################################################
#
# If this CIF has been generated from an entry in the Cambridge 
# Structural Database, then it will include bibliographic, chemical, 
# crystal, experimental, refinement or atomic coordinate data resulting 
# from the CCDC's data processing and validation procedures.
#
#######################################################################

data_IYIRUE
_symmetry_cell_setting           orthorhombic
_symmetry_space_group_name_H-M   'P 21 21 21'
_symmetry_Int_Tables_number      19
_space_group_name_Hall           'P 2ac 2ab'
loop_
_symmetry_equiv_pos_site_id
_symmetry_equiv_pos_as_xyz
1 x,y,z
2 1/2-x,-y,1/2+z
3 -x,1/2+y,1/2-z
4 1/2+x,1/2-y,-z
_cell_length_a                   14.2443(3)
_cell_length_b                   19.9051(4)
_cell_length_c                   35.7460(8)
_cell_angle_alpha                90
_cell_angle_beta                 90
_cell_angle_gamma                90
_cell_volume                     10135.2
loop_
_atom_site_label
_atom_site_type_symbol
_atom_site_fract_x
_atom_site_fract_y
_atom_site_fract_z
I1 I -0.55446(4) -0.84495(3) 0.106420(13)
I2 I -0.38412(4) -0.67397(3) 0.121999(14)
I3 I -0.05976(4) -0.34394(3) 0.137977(15)
I4 I 0.11346(4) -0.17355(2) 0.133856(14)
Si1 Si 0.43530(17) -0.06043(9) 0.15943(5)
Si2 Si -0.06987(15) -0.56247(9) 0.08748(5)
Si3 Si 0.40011(16) -0.09819(10) 0.08013(5)
Si4 Si 0.14208(15) 0.06477(9) 0.08596(5)
Si5 Si -0.09703(15) -0.59144(9) 0.16905(5)
Si6 Si 0.13231(15) 0.04733(10) 0.16867(5)
Si7 Si -0.35736(15) -0.42988(10) 0.16728(5)
Si8 Si -0.37197(16) -0.45173(10) 0.08510(5)
N1 N 0.3698(4) -0.0565(3) 0.11983(13)
N2 N 0.1862(4) 0.0357(2) 0.12656(14)
N3 N -0.3157(4) -0.4624(3) 0.12657(14)
N4 N -0.1286(4) -0.5533(2) 0.12838(13)
N5 N -0.5360(4) -0.7403(3) 0.20829(15)
N6 N -0.0485(5) -0.2326(3) 0.04285(15)
N7 N -0.1610(4) -0.1654(3) 0.09738(14)
N8 N -0.2767(5) -0.8589(3) 0.08252(15)
N9 N -0.6674(4) -0.6828(3) 0.15685(15)
C1 C 0.4553(6) -0.1831(4) 0.08903(19)
H1 H 0.4629 -0.2069 0.0652
H2 H 0.4148 -0.2093 0.1057
H3 H 0.5169 -0.1769 0.1008
C2 C 0.0845(5) 0.1506(3) 0.08939(18)
H4 H 0.0603 0.1637 0.0648
H5 H 0.1308 0.1837 0.0978
H6 H 0.0326 0.1487 0.1074
C3 C -0.1396(6) -0.2035(4) 0.03127(18)
H7 H -0.1879 -0.2394 0.0346
C4 C -0.0490(6) -0.6798(4) 0.16351(19)
H8 H -0.0359 -0.6988 0.1882
H9 H 0.0090 -0.6784 0.1488
H10 H -0.0954 -0.7078 0.1506
N10 N -0.3617(4) -0.7775(3) 0.02632(14)
C5 C -0.5533(6) -0.8120(3) 0.21532(19)
H11 H -0.5500 -0.8208 0.2423
H12 H -0.5057 -0.8389 0.2024
H13 H -0.6158 -0.8241 0.2060
C6 C 0.0538(6) 0.0065(4) 0.06489(19)
H14 H 0.0403 0.0205 0.0392
H15 H -0.0041 0.0077 0.0797
H16 H 0.0789 -0.0394 0.0648
C7 C -0.2020(6) -0.6012(4) 0.20030(18)
H17 H -0.1813 -0.6142 0.2254
H18 H -0.2435 -0.6360 0.1902
H19 H -0.2360 -0.5585 0.2016
C8 C -0.4192(6) -0.3468(4) 0.16254(19)
H20 H -0.4503 -0.3357 0.1862
H21 H -0.4662 -0.3498 0.1426
H22 H -0.3734 -0.3118 0.1564
C9 C 0.1631(6) 0.1306(3) 0.1904(2)
H23 H 0.1463 0.1300 0.2169
H24 H 0.1284 0.1664 0.1777
H25 H 0.2307 0.1386 0.1878
C10 C -0.7398(6) -0.7075(4) 0.1312(2)
H26 H -0.7990 -0.6840 0.1361
H27 H -0.7487 -0.7558 0.1350
H28 H -0.7202 -0.6992 0.1053
C11 C -0.2022(6) -0.8253(5) 0.1041(2)
H29 H -0.1489 -0.8559 0.1071
H30 H -0.2264 -0.8126 0.1287
H31 H -0.1816 -0.7849 0.0907
C12 C -0.6111(5) -0.6957(3) 0.22258(17)
H32 H -0.5853 -0.6490 0.2227
C13 C -0.2617(5) -0.4123(4) 0.20223(18)
H33 H -0.2895 -0.4051 0.2270
H34 H -0.2270 -0.3720 0.1947
H35 H -0.2186 -0.4507 0.2033
C14 C 0.5668(6) -0.0648(4) 0.1525(2)
H36 H 0.5985 -0.0533 0.1760
H37 H 0.5856 -0.0329 0.1330
H38 H 0.5845 -0.1104 0.1449
C15 C -0.1130(6) -0.6364(4) 0.0597(2)
H39 H -0.0943 -0.6312 0.0335
H40 H -0.1816 -0.6389 0.0614
H41 H -0.0856 -0.6778 0.0698
C16 C 0.4211(6) 0.0182(4) 0.1882(2)
H42 H 0.4469 0.0107 0.2133
H43 H 0.3543 0.0294 0.1902
H44 H 0.4547 0.0553 0.1761
C17 C -0.0384(6) -0.3028(4) 0.0303(2)
H45 H -0.0351 -0.3041 0.0029
H46 H -0.0926 -0.3290 0.0387
H47 H 0.0192 -0.3220 0.0408
C18 C -0.4345(5) -0.8141(4) 0.00615(19)
H48 H -0.4292 -0.8045 -0.0207
H49 H -0.4964 -0.7998 0.0151
H50 H -0.4268 -0.8624 0.0104
C19 C -0.2406(5) -0.2083(4) 0.1099(2)
H51 H -0.2975 -0.1808 0.1121
H52 H -0.2257 -0.2280 0.1343
H53 H -0.2511 -0.2442 0.0916
C20 C 0.2380(5) 0.0751(4) 0.05018(18)
H54 H 0.2103 0.0869 0.0260
H55 H 0.2730 0.0330 0.0478
H56 H 0.2807 0.1110 0.0581
C21 C 0.0004(6) 0.0433(4) 0.1676(2)
H57 H -0.0241 0.0460 0.1932
H58 H -0.0195 0.0008 0.1562
H59 H -0.0241 0.0809 0.1529
C22 C -0.4419(6) -0.4891(4) 0.1910(2)
H60 H -0.4671 -0.4678 0.2136
H61 H -0.4090 -0.5306 0.1978
H62 H -0.4935 -0.4997 0.1738
C23 C 0.0335(5) -0.1941(4) 0.0291(2)
H63 H 0.0390 -0.1997 0.0019
H64 H 0.0907 -0.2107 0.0412
H65 H 0.0251 -0.1464 0.0350
C24 C 0.2950(6) -0.1151(4) 0.0502(2)
H66 H 0.3153 -0.1348 0.0263
H67 H 0.2617 -0.0730 0.0454
H68 H 0.2531 -0.1466 0.0630
C25 C -0.2527(6) -0.8693(4) 0.0424(2)
H69 H -0.2988 -0.9027 0.0325
C26 C -0.6967(5) -0.6955(3) 0.19650(18)
H70 H -0.7236 -0.7419 0.1972
C27 C 0.0616(6) -0.5722(4) 0.0914(2)
H71 H 0.0763 -0.6167 0.1017
H72 H 0.0866 -0.5375 0.1081
H73 H 0.0901 -0.5676 0.0666
C28 C -0.5050(6) -0.4555(5) 0.0871(2)
H74 H -0.5294 -0.4128 0.0968
H75 H -0.5243 -0.4922 0.1037
H76 H -0.5299 -0.4634 0.0620
C29 C -0.0842(7) -0.4856(4) 0.0571(2)
H77 H -0.0696 -0.4972 0.0311
H78 H -0.0414 -0.4503 0.0657
H79 H -0.1491 -0.4695 0.0587
C30 C -0.4432(6) -0.7226(4) 0.2231(2)
H80 H -0.4417 -0.7313 0.2501
H81 H -0.4309 -0.6749 0.2185
H82 H -0.3951 -0.7498 0.2107
C31 C 0.4029(7) -0.1324(4) 0.1899(2)
H83 H 0.4349 -0.1281 0.2140
H84 H 0.4218 -0.1745 0.1778
H85 H 0.3348 -0.1325 0.1939
C32 C -0.7190(6) -0.6636(5) 0.27653(19)
H86 H -0.7382 -0.6760 0.3022
H87 H -0.6943 -0.6171 0.2771
C33 C -0.0064(6) -0.5419(4) 0.1960(2)
H88 H 0.0011 -0.5614 0.2210
H89 H -0.0271 -0.4952 0.1983
H90 H 0.0537 -0.5435 0.1827
C34 C 0.1654(6) -0.0184(4) 0.2038(2)
H91 H 0.1490 -0.0028 0.2290
H92 H 0.2332 -0.0268 0.2025
H93 H 0.1315 -0.0601 0.1984
C35 C -0.3434(6) -0.5203(4) 0.0508(2)
H94 H -0.3623 -0.5063 0.0256
H95 H -0.3773 -0.5614 0.0577
H96 H -0.2757 -0.5291 0.0511
C36 C -0.7725(6) -0.6486(4) 0.2108(2)
H97 H -0.8277 -0.6509 0.1941
H98 H -0.7487 -0.6019 0.2105
C37 C -0.1672(6) -0.1454(4) 0.05726(18)
H99 H -0.1198 -0.1090 0.0533
C38 C 0.4843(6) -0.0496(4) 0.05077(19)
H100 H 0.4984 -0.0749 0.0279
H101 H 0.5424 -0.0420 0.0649
H102 H 0.4563 -0.0062 0.0441
C39 C -0.3394(7) -0.3710(4) 0.0613(2)
H103 H -0.3619 -0.3718 0.0354
H104 H -0.2710 -0.3657 0.0615
H105 H -0.3684 -0.3332 0.0746
C40 C -0.8024(6) -0.6671(5) 0.2509(2)
H106 H -0.8516 -0.6356 0.2596
H107 H -0.8289 -0.7131 0.2512
C41 C -0.2662(5) -0.8056(4) 0.01999(18)
H108 H -0.2209 -0.7720 0.0303
C42 C -0.1534(7) -0.1067(4) 0.1220(2)
H109 H -0.2116 -0.0805 0.1207
H110 H -0.1006 -0.0786 0.1139
H111 H -0.1428 -0.1216 0.1478
Li1 Li -0.1736(9) -0.4567(6) 0.1293(3)
C43 C -0.3002(7) -0.9227(4) 0.1013(3)
H112 H -0.2448 -0.9519 0.1017
H113 H -0.3511 -0.9451 0.0877
H114 H -0.3204 -0.9135 0.1270
C44 C -0.3656(6) -0.7063(3) 0.0157(2)
H115 H -0.3585 -0.7022 -0.0115
H116 H -0.3146 -0.6819 0.0281
H117 H -0.4261 -0.6873 0.0233
N11 N 0.1149(4) -0.3072(3) 0.22341(15)
N12 N 0.2231(4) -0.3573(3) 0.16269(16)
C45 C 0.2997(6) -0.3271(5) 0.1418(2)
H118 H 0.3521 -0.3589 0.1404
H119 H 0.3204 -0.2861 0.1545
H120 H 0.2783 -0.3160 0.1165
C46 C 0.2518(5) -0.3726(4) 0.2020(2)
H121 H 0.2965 -0.3363 0.2096
C47 C -0.6416(6) -0.7120(4) 0.26288(19)
H122 H -0.5866 -0.7086 0.2797
H123 H -0.6653 -0.7587 0.2640
C48 C -0.1413(7) -0.8407(5) -0.0258(2)
H124 H -0.1266 -0.8465 -0.0527
H125 H -0.0966 -0.8078 -0.0152
C49 C 0.1908(6) -0.4163(4) 0.1417(2)
H126 H 0.2433 -0.4475 0.1381
H127 H 0.1670 -0.4020 0.1172
H128 H 0.1406 -0.4388 0.1556
C50 C -0.2631(7) -0.1161(4) 0.0462(2)
H129 H -0.3123 -0.1504 0.0505
H130 H -0.2773 -0.0771 0.0625
C51 C 0.1637(6) -0.2467(4) 0.2375(2)
H131 H 0.1711 -0.2499 0.2647
H132 H 0.1266 -0.2067 0.2313
H133 H 0.2256 -0.2433 0.2257
C52 C -0.2405(6) -0.8150(4) -0.0214(2)
H134 H -0.2847 -0.8472 -0.0331
H135 H -0.2468 -0.7715 -0.0347
C53 C -0.1443(7) -0.1817(4) -0.00953(19)
H136 H -0.0960 -0.1469 -0.0142
H137 H -0.1302 -0.2206 -0.0258
C54 C 0.3052(6) -0.4391(4) 0.2061(2)
H138 H 0.2638 -0.4765 0.1982
H139 H 0.3603 -0.4386 0.1892
C55 C 0.2047(6) -0.3818(4) 0.2692(2)
H140 H 0.2473 -0.3450 0.2769
H141 H 0.1503 -0.3819 0.2865
Li2 Li 0.2295(10) -0.0607(6) 0.1266(3)
Li3 Li -0.2708(9) -0.5587(6) 0.1267(3)
C56 C 0.0227(6) -0.3117(4) 0.2415(2)
H142 H 0.0305 -0.3101 0.2687
H143 H -0.0076 -0.3540 0.2344
H144 H -0.0164 -0.2739 0.2334
C57 C 0.1701(5) -0.3689(3) 0.22891(19)
H145 H 0.1276 -0.4072 0.2224
Li4 Li -0.3869(9) -0.7912(6) 0.0822(3)
C58 C 0.2564(6) -0.4485(4) 0.2724(2)
H146 H 0.2793 -0.4544 0.2983
H147 H 0.2124 -0.4857 0.2668
C59 C -0.1316(7) -0.9068(5) -0.0059(2)
H148 H -0.0667 -0.9238 -0.0089
H149 H -0.1749 -0.9400 -0.0172
Li5 Li 0.1064(10) -0.2959(6) 0.1669(3)
C60 C 0.3381(7) -0.4517(5) 0.2458(2)
H150 H 0.3682 -0.4964 0.2473
H151 H 0.3853 -0.4174 0.2528
C61 C -0.1540(7) -0.8989(5) 0.0353(2)
H152 H -0.1065 -0.8691 0.0469
H153 H -0.1496 -0.9433 0.0476
C62 C -0.6475(7) -0.6114(4) 0.1489(2)
H154 H -0.7063 -0.5859 0.1490
H155 H -0.6176 -0.6075 0.1243
H156 H -0.6052 -0.5935 0.1681
C63 C -0.2660(8) -0.0940(6) 0.0058(3)
H157 H -0.2213 -0.0566 0.0018
H158 H -0.3298 -0.0779 -0.0006
Li6 Li -0.5433(9) -0.7316(5) 0.1505(3)
Li7 Li -0.0447(9) -0.2247(7) 0.1000(3)
C64 C -0.2395(8) -0.1540(6) -0.0195(2)
H159 H -0.2872 -0.1898 -0.0168
H160 H -0.2392 -0.1393 -0.0460
Li8 Li -0.6723(9) -0.9592(5) 0.1186(3)
N1_2 N -0.6302(4) -1.0565(3) 0.11983(13)
N2_2 N -0.8138(4) -0.9643(2) 0.12656(14)
Li8_2 Li 0.3277(9) 0.0408(5) 0.1186(3)
loop_
_geom_bond_atom_site_label_1
_geom_bond_atom_site_label_2
_geom_bond_site_symmetry_1
_geom_bond_site_symmetry_2
I1 Li4 1_555 1_555
I2 Li3 1_555 1_555
I3 Li1 1_555 1_555
I4 Li2 1_555 1_555
Si1 N1 1_555 1_555
Si2 N4 1_555 1_555
Si3 N1 1_555 1_555
Si4 N2 1_555 1_555
Si5 N4 1_555 1_555
Si6 N2 1_555 1_555
Si7 N3 1_555 1_555
Si8 N3 1_555 1_555
N1 Li2 1_555 1_555
N2 Li2 1_555 1_555
N3 Li1 1_555 1_555
N4 Li1 1_555 1_555
N5 C5 1_555 1_555
N6 C3 1_555 1_555
N7 C19 1_555 1_555
N8 C11 1_555 1_555
N9 C10 1_555 1_555
C1 Si3 1_555 1_555
H1 C1 1_555 1_555
H2 C1 1_555 1_555
H3 C1 1_555 1_555
C2 Si4 1_555 1_555
H4 C2 1_555 1_555
H5 C2 1_555 1_555
H6 C2 1_555 1_555
C3 H7 1_555 1_555
C4 Si5 1_555 1_555
H8 C4 1_555 1_555
H9 C4 1_555 1_555
H10 C4 1_555 1_555
N10 C18 1_555 1_555
C5 H11 1_555 1_555
H12 C5 1_555 1_555
H13 C5 1_555 1_555
C6 Si4 1_555 1_555
H14 C6 1_555 1_555
H15 C6 1_555 1_555
H16 C6 1_555 1_555
C7 Si5 1_555 1_555
H17 C7 1_555 1_555
H18 C7 1_555 1_555
H19 C7 1_555 1_555
C8 Si7 1_555 1_555
H20 C8 1_555 1_555
H21 C8 1_555 1_555
H22 C8 1_555 1_555
C9 Si6 1_555 1_555
H23 C9 1_555 1_555
H24 C9 1_555 1_555
H25 C9 1_555 1_555
C10 H26 1_555 1_555
H27 C10 1_555 1_555
H28 C10 1_555 1_555
C11 H29 1_555 1_555
H30 C11 1_555 1_555
H31 C11 1_555 1_555
C12 N5 1_555 1_555
H32 C12 1_555 1_555
C13 Si7 1_555 1_555
H33 C13 1_555 1_555
H34 C13 1_555 1_555
H35 C13 1_555 1_555
C14 Si1 1_555 1_555
H36 C14 1_555 1_555
H37 C14 1_555 1_555
H38 C14 1_555 1_555
C15 Si2 1_555 1_555
H39 C15 1_555 1_555
H40 C15 1_555 1_555
H41 C15 1_555 1_555
C16 Si1 1_555 1_555
H42 C16 1_555 1_555
H43 C16 1_555 1_555
H44 C16 1_555 1_555
C17 N6 1_555 1_555
H45 C17 1_555 1_555
H46 C17 1_555 1_555
H47 C17 1_555 1_555
C18 H48 1_555 1_555
H49 C18 1_555 1_555
H50 C18 1_555 1_555
C19 H51 1_555 1_555
H52 C19 1_555 1_555
H53 C19 1_555 1_555
C20 Si4 1_555 1_555
H54 C20 1_555 1_555
H55 C20 1_555 1_555
H56 C20 1_555 1_555
C21 Si6 1_555 1_555
H57 C21 1_555 1_555
H58 C21 1_555 1_555
H59 C21 1_555 1_555
C22 Si7 1_555 1_555
H60 C22 1_555 1_555
H61 C22 1_555 1_555
H62 C22 1_555 1_555
C23 N6 1_555 1_555
H63 C23 1_555 1_555
H64 C23 1_555 1_555
H65 C23 1_555 1_555
C24 Si3 1_555 1_555
H66 C24 1_555 1_555
H67 C24 1_555 1_555
H68 C24 1_555 1_555
C25 N8 1_555 1_555
H69 C25 1_555 1_555
C26 N9 1_555 1_555
H70 C26 1_555 1_555
C27 Si2 1_555 1_555
H71 C27 1_555 1_555
H72 C27 1_555 1_555
H73 C27 1_555 1_555
C28 Si8 1_555 1_555
H74 C28 1_555 1_555
H75 C28 1_555 1_555
H76 C28 1_555 1_555
C29 Si2 1_555 1_555
H77 C29 1_555 1_555
H78 C29 1_555 1_555
H79 C29 1_555 1_555
C30 N5 1_555 1_555
H80 C30 1_555 1_555
H81 C30 1_555 1_555
H82 C30 1_555 1_555
C31 Si1 1_555 1_555
H83 C31 1_555 1_555
H84 C31 1_555 1_555
H85 C31 1_555 1_555
C32 H86 1_555 1_555
H87 C32 1_555 1_555
C33 Si5 1_555 1_555
H88 C33 1_555 1_555
H89 C33 1_555 1_555
H90 C33 1_555 1_555
C34 Si6 1_555 1_555
H91 C34 1_555 1_555
H92 C34 1_555 1_555
H93 C34 1_555 1_555
C35 Si8 1_555 1_555
H94 C35 1_555 1_555
H95 C35 1_555 1_555
H96 C35 1_555 1_555
C36 C26 1_555 1_555
H97 C36 1_555 1_555
H98 C36 1_555 1_555
C37 N7 1_555 1_555
H99 C37 1_555 1_555
C38 Si3 1_555 1_555
H100 C38 1_555 1_555
H101 C38 1_555 1_555
H102 C38 1_555 1_555
C39 Si8 1_555 1_555
H103 C39 1_555 1_555
H104 C39 1_555 1_555
H105 C39 1_555 1_555
C40 C32 1_555 1_555
H106 C40 1_555 1_555
H107 C40 1_555 1_555
C41 N10 1_555 1_555
H108 C41 1_555 1_555
C42 N7 1_555 1_555
H109 C42 1_555 1_555
H110 C42 1_555 1_555
H111 C42 1_555 1_555
C43 N8 1_555 1_555
H112 C43 1_555 1_555
H113 C43 1_555 1_555
H114 C43 1_555 1_555
C44 N10 1_555 1_555
H115 C44 1_555 1_555
H116 C44 1_555 1_555
H117 C44 1_555 1_555
N11 C51 1_555 1_555
N12 C45 1_555 1_555
C45 H118 1_555 1_555
H119 C45 1_555 1_555
H120 C45 1_555 1_555
C46 N12 1_555 1_555
H121 C46 1_555 1_555
C47 C12 1_555 1_555
H122 C47 1_555 1_555
H123 C47 1_555 1_555
C48 H124 1_555 1_555
H125 C48 1_555 1_555
C49 N12 1_555 1_555
H126 C49 1_555 1_555
H127 C49 1_555 1_555
H128 C49 1_555 1_555
C50 C37 1_555 1_555
H129 C50 1_555 1_555
H130 C50 1_555 1_555
C51 H131 1_555 1_555
H132 C51 1_555 1_555
H133 C51 1_555 1_555
C52 C41 1_555 1_555
H134 C52 1_555 1_555
H135 C52 1_555 1_555
C53 C3 1_555 1_555
H136 C53 1_555 1_555
H137 C53 1_555 1_555
C54 C46 1_555 1_555
H138 C54 1_555 1_555
H139 C54 1_555 1_555
C55 H140 1_555 1_555
H141 C55 1_555 1_555
Li3 N3 1_555 1_555
C56 N11 1_555 1_555
H142 C56 1_555 1_555
H143 C56 1_555 1_555
H144 C56 1_555 1_555
C57 N11 1_555 1_555
H145 C57 1_555 1_555
Li4 I2 1_555 1_555
C58 C55 1_555 1_555
H146 C58 1_555 1_555
H147 C58 1_555 1_555
C59 C48 1_555 1_555
H148 C59 1_555 1_555
H149 C59 1_555 1_555
Li5 I3 1_555 1_555
C60 C54 1_555 1_555
H150 C60 1_555 1_555
H151 C60 1_555 1_555
C61 C25 1_555 1_555
H152 C61 1_555 1_555
H153 C61 1_555 1_555
C62 N9 1_555 1_555
H154 C62 1_555 1_555
H155 C62 1_555 1_555
H156 C62 1_555 1_555
C63 C50 1_555 1_555
H157 C63 1_555 1_555
H158 C63 1_555 1_555
Li6 I1 1_555 1_555
Li7 I3 1_555 1_555
C64 C53 1_555 1_555
H159 C64 1_555 1_555
H160 C64 1_555 1_555
Li8 I1 1_555 1_555
N1_2 Li8 1_555 1_555
N2_2 Li8 1_555 1_555
Li8_2 N1 1_555 1_555
I2 Li6 1_555 1_555
I4 Li5 1_555 1_555
I4 Li7 1_555 1_555
N2 Li8_2 1_555 1_555
N4 Li3 1_555 1_555
N5 Li6 1_555 1_555
N6 Li7 1_555 1_555
N7 Li7 1_555 1_555
N8 Li4 1_555 1_555
N9 Li6 1_555 1_555
C3 C37 1_555 1_555
N10 Li4 1_555 1_555
C12 C26 1_555 1_555
C25 C41 1_555 1_555
C32 C47 1_555 1_555
C36 C40 1_555 1_555
N11 Li5 1_555 1_555
N12 Li5 1_555 1_555
C46 C57 1_555 1_555
C48 C52 1_555 1_555
C55 C57 1_555 1_555
C58 C60 1_555 1_555
C59 C61 1_555 1_555
C63 C64 1_555 1_555

#END
