
#######################################################################
#
#                 Cambridge Crystallographic Data Centre
#                                CCDC 
#
#######################################################################
#
# If this CIF has been generated from an entry in the Cambridge 
# Structural Database, then it will include bibliographic, chemical, 
# crystal, experimental, refinement or atomic coordinate data resulting 
# from the CCDC's data processing and validation procedures.
#
#######################################################################

data_IYIXIX
_symmetry_cell_setting           orthorhombic
_symmetry_space_group_name_H-M   'P c a 21'
_symmetry_Int_Tables_number      29
_space_group_name_Hall           'P 2c -2ac'
loop_
_symmetry_equiv_pos_site_id
_symmetry_equiv_pos_as_xyz
1 x,y,z
2 -x,-y,1/2+z
3 1/2+x,-y,z
4 1/2-x,y,1/2+z
_cell_length_a                   9.4320(6)
_cell_length_b                   14.8633(10)
_cell_length_c                   16.2002(11)
_cell_angle_alpha                90
_cell_angle_beta                 90
_cell_angle_gamma                90
_cell_volume                     2271.12
loop_
_atom_site_label
_atom_site_type_symbol
_atom_site_fract_x
_atom_site_fract_y
_atom_site_fract_z
C1 C 0.8872(6) 0.1065(4) 0.2028(4)
C2 C 0.8267(6) 0.0219(4) 0.2142(4)
H1 H 0.8192 -0.0184 0.1697
C3 C 0.7777(7) -0.0023(4) 0.2919(4)
H2 H 0.7390 -0.0599 0.2999
C4 C 0.7846(7) 0.0559(4) 0.3566(4)
H3 H 0.7508 0.0381 0.4087
C5 C 0.8407(6) 0.1402(4) 0.3463(4)
H4 H 0.8431 0.1806 0.3910
C6 C 0.8939(6) 0.1661(4) 0.2701(3)
C7 C 1.0124(6) 0.3120(4) 0.2970(4)
C8 C 1.0363(6) 0.4001(4) 0.2714(4)
H5 H 1.0935 0.4345 0.3069
C9 C 0.9884(6) 0.4455(4) 0.2009(4)
C10 C 0.8552(5) 0.4387(3) 0.0693(3)
C11 C 0.7848(6) 0.5202(4) 0.0643(4)
H6 H 0.7859 0.5593 0.1099
C12 C 0.7134(6) 0.5452(4) -0.0058(4)
H7 H 0.6679 0.6013 -0.0087
C13 C 0.7091(6) 0.4868(4) -0.0722(4)
H8 H 0.6609 0.5042 -0.1204
C14 C 0.7743(6) 0.4029(4) -0.0694(4)
H9 H 0.7673 0.3630 -0.1142
C15 C 0.8511(5) 0.3789(4) 0.0018(3)
C16 C 0.9664(6) 0.2356(4) -0.0376(4)
C17 C 1.0018(6) 0.1474(4) -0.0151(4)
H10 H 1.0480 0.1135 -0.0560
C18 C 0.9781(6) 0.1025(4) 0.0598(4)
C19 C 1.0680(7) 0.2835(4) 0.3793(4)
H11 H 0.9949 0.2916 0.4207
H12 H 1.1499 0.3199 0.3934
H13 H 1.0954 0.2207 0.3771
C20 C 1.0194(7) 0.5452(4) 0.1953(4)
H14 H 1.0276 0.5625 0.1378
H15 H 1.1075 0.5582 0.2237
H16 H 0.9428 0.5787 0.2209
C21 C 0.9946(7) 0.2610(4) -0.1261(4)
H17 H 0.9147 0.2431 -0.1601
H18 H 1.0796 0.2307 -0.1452
H19 H 1.0077 0.3256 -0.1300
C22 C 1.0166(8) 0.0035(4) 0.0616(5)
H20 H 1.0430 -0.0136 0.1173
H21 H 1.0957 -0.0073 0.0246
H22 H 0.9357 -0.0319 0.0439
C23 C 0.6289(6) 0.2300(4) 0.1028(4)
C24 C 0.4867(6) 0.2212(4) 0.1445(4)
H23 H 0.4846 0.2018 0.1997
C25 C 0.2292(6) 0.2337(3) 0.1532(3)
C26 C 0.3667(6) 0.2391(4) 0.1085(4)
H24 H 0.3669 0.2559 0.0525
Ge1 Ge 0.92552(5) 0.27320(3) 0.13342(5)
N1 N 0.9400(5) 0.2552(3) 0.2506(4)
N2 N 0.9199(4) 0.4023(3) 0.1416(4)
N3 N 0.9122(5) 0.2927(3) 0.0161(3)
N4 N 0.9296(4) 0.1436(3) 0.1266(5)
O1 O 0.7214(4) 0.2709(2) 0.1482(2)
O2 O 0.6478(5) 0.1995(3) 0.0347(3)
O3 O 0.1291(4) 0.2807(2) 0.1173(3)
O4 O 0.2171(5) 0.1898(4) 0.2154(4)
O3_2 O 1.1291(4) 0.2807(2) 0.1173(3)
Ge1_2 Ge -0.07448(5) 0.27320(3) 0.13342(5)
loop_
_geom_bond_atom_site_label_1
_geom_bond_atom_site_label_2
_geom_bond_site_symmetry_1
_geom_bond_site_symmetry_2
C1 C2 1_555 1_555
C2 H1 1_555 1_555
C3 C2 1_555 1_555
H2 C3 1_555 1_555
C4 C3 1_555 1_555
H3 C4 1_555 1_555
C5 C4 1_555 1_555
H4 C5 1_555 1_555
C6 C1 1_555 1_555
C7 C8 1_555 1_555
C8 H5 1_555 1_555
C9 C8 1_555 1_555
C10 C11 1_555 1_555
C11 H6 1_555 1_555
C12 C11 1_555 1_555
H7 C12 1_555 1_555
C13 C12 1_555 1_555
H8 C13 1_555 1_555
C14 C13 1_555 1_555
H9 C14 1_555 1_555
C15 C10 1_555 1_555
C16 C17 1_555 1_555
C17 H10 1_555 1_555
C18 C17 1_555 1_555
C19 C7 1_555 1_555
H11 C19 1_555 1_555
H12 C19 1_555 1_555
H13 C19 1_555 1_555
C20 C9 1_555 1_555
H14 C20 1_555 1_555
H15 C20 1_555 1_555
H16 C20 1_555 1_555
C21 C16 1_555 1_555
H17 C21 1_555 1_555
H18 C21 1_555 1_555
H19 C21 1_555 1_555
C22 C18 1_555 1_555
H20 C22 1_555 1_555
H21 C22 1_555 1_555
H22 C22 1_555 1_555
C23 C24 1_555 1_555
C24 H23 1_555 1_555
C25 C26 1_555 1_555
C26 C24 1_555 1_555
H24 C26 1_555 1_555
Ge1 N1 1_555 1_555
N1 C6 1_555 1_555
N2 C9 1_555 1_555
N3 C15 1_555 1_555
N4 C1 1_555 1_555
O1 C23 1_555 1_555
O2 C23 1_555 1_555
O3 C25 1_555 1_555
O4 C25 1_555 1_555
O3_2 Ge1 1_555 1_555
Ge1_2 O3 1_555 1_555
C5 C6 1_555 1_555
C7 N1 1_555 1_555
C10 N2 1_555 1_555
C14 C15 1_555 1_555
C16 N3 1_555 1_555
C18 N4 1_555 1_555
Ge1 O1 1_555 1_555
Ge1 N2 1_555 1_555
Ge1 N3 1_555 1_555
Ge1 N4 1_555 1_555

#END
