
#######################################################################
#
#                 Cambridge Crystallographic Data Centre
#                                CCDC 
#
#######################################################################
#
# If this CIF has been generated from an entry in the Cambridge 
# Structural Database, then it will include bibliographic, chemical, 
# crystal, experimental, refinement or atomic coordinate data resulting 
# from the CCDC's data processing and validation procedures.
#
#######################################################################

data_IYIZUM
_symmetry_cell_setting           triclinic
_symmetry_space_group_name_H-M   'P -1'
_symmetry_Int_Tables_number      2
_space_group_name_Hall           '-P 1'
loop_
_symmetry_equiv_pos_site_id
_symmetry_equiv_pos_as_xyz
1 x,y,z
2 -x,-y,-z
_cell_length_a                   12.004(5)
_cell_length_b                   12.215(5)
_cell_length_c                   16.157(7)
_cell_angle_alpha                74.739(6)
_cell_angle_beta                 76.360(5)
_cell_angle_gamma                80.407(5)
_cell_volume                     2207.22
loop_
_atom_site_label
_atom_site_type_symbol
_atom_site_fract_x
_atom_site_fract_y
_atom_site_fract_z
C1 C 0.6427(7) 0.3908(7) 0.6178(5)
H1 H 0.6365 0.4698 0.5978
C2 C 0.6472(7) 0.3284(6) 0.7034(5)
H2 H 0.6421 0.3607 0.7504
C3 C 0.6607(5) 0.1979(6) 0.6239(4)
H3 H 0.6671 0.1288 0.6082
C4 C 0.6614(7) 0.1357(6) 0.7846(4)
C5 C 0.7210(6) 0.1468(6) 0.8433(4)
H4 H 0.7642 0.2079 0.8297
C6 C 0.7183(5) 0.0699(6) 0.9216(4)
H5 H 0.7578 0.0802 0.9615
C7 C 0.6549(5) -0.0273(5) 0.9431(4)
C8 C 0.5927(5) -0.0394(6) 0.8843(4)
H6 H 0.5496 -0.1006 0.8980
C9 C 0.5952(5) 0.0405(5) 0.8048(4)
H7 H 0.5544 0.0324 0.7649
C10 C 0.6492(5) -0.1121(5) 1.0309(4)
C11 C 0.6970(5) -0.0930(7) 1.0963(4)
H8 H 0.7315 -0.0265 1.0850
C12 C 0.6952(5) -0.1689(5) 1.1770(4)
H9 H 0.7252 -0.1529 1.2201
C13 C 0.6474(5) -0.2691(6) 1.1913(5)
C14 C 0.5977(6) -0.2907(6) 1.1294(4)
H10 H 0.5628 -0.3572 1.1415
C15 C 0.5997(6) -0.2135(5) 1.0489(4)
H11 H 0.5678 -0.2294 1.0068
C16 C 0.6484(5) -0.3228(5) 1.3485(4)
H12 H 0.6443 -0.2498 1.3572
C17 C 0.6526(6) -0.4264(5) 1.4137(4)
H13 H 0.6522 -0.4338 1.4725
C18 C 0.6557(6) -0.4668(5) 1.2839(5)
H14 H 0.6571 -0.5067 1.2419
C19 C 0.9879(7) 0.0855(7) 0.1334(5)
H15 H 1.0377 0.0407 0.1685
C20 C 1.0183(6) 0.1327(5) 0.0485(5)
H16 H 1.0914 0.1245 0.0136
C21 C 0.8361(6) 0.1899(6) 0.0950(4)
H17 H 0.7642 0.2327 0.0987
C22 C 0.9143(6) 0.2758(6) -0.0617(4)
C23 C 1.0099(6) 0.2685(6) -0.1272(5)
H18 H 1.0718 0.2134 -0.1173
C24 C 1.0130(6) 0.3426(6) -0.2067(5)
H19 H 1.0789 0.3382 -0.2501
C25 C 0.9195(7) 0.4266(6) -0.2261(5)
C26 C 0.8241(7) 0.4292(6) -0.1583(4)
H20 H 0.7604 0.4819 -0.1681
C27 C 0.8209(6) 0.3555(5) -0.0763(4)
H21 H 0.7564 0.3598 -0.0316
C28 C 0.9226(6) 0.5051(6) -0.3126(5)
C29 C 1.0264(6) 0.5307(6) -0.3640(5)
H22 H 1.0934 0.4938 -0.3450
C30 C 1.0359(6) 0.6113(6) -0.4451(4)
H23 H 1.1078 0.6267 -0.4798
C31 C 0.9368(7) 0.6662(6) -0.4714(5)
C32 C 0.8292(6) 0.6435(6) -0.4223(5)
H24 H 0.7625 0.6810 -0.4414
C33 C 0.8236(6) 0.5621(5) -0.3427(4)
H25 H 0.7517 0.5454 -0.3087
C34 C 1.0414(6) 0.7876(6) -0.6032(5)
H26 H 1.1147 0.7502 -0.5992
C35 C 1.0183(6) 0.8830(6) -0.6665(4)
H27 H 1.0724 0.9230 -0.7101
C36 C 0.8589(5) 0.8367(6) -0.5808(4)
H28 H 0.7819 0.8377 -0.5523
C37 C 0.2054(6) 0.1127(6) 0.3534(5)
H29 H 0.1956 0.0585 0.4064
C38 C 0.1220(6) 0.1536(6) 0.3098(4)
H30 H 0.0470 0.1340 0.3253
C39 C 0.2808(6) 0.2302(4) 0.2431(4)
H31 H 0.3331 0.2759 0.2026
C40 C 0.1219(5) 0.2990(5) 0.1683(4)
C41 C 0.0063(5) 0.3425(5) 0.1838(4)
H32 H -0.0405 0.3195 0.2386
C42 C -0.0389(6) 0.4201(5) 0.1174(4)
H33 H -0.1166 0.4479 0.1288
C43 C 0.0262(5) 0.4580(5) 0.0349(4)
C44 C 0.1436(5) 0.4104(5) 0.0193(5)
H34 H 0.1898 0.4313 -0.0360
C45 C 0.1899(6) 0.3335(6) 0.0854(4)
H35 H 0.2673 0.3044 0.0745
Cu1 Cu 0.64961(7) 0.31879(6) 0.42709(5)
Cu2 Cu 0.44812(7) 0.13777(7) 0.35632(5)
Cu3 Cu 0.79048(7) 0.07283(7) 0.28695(5)
Mo1 Mo 0.63090(5) 0.10544(4) 0.42535(4)
N1 N 0.6496(4) 0.3077(5) 0.5666(3)
N2 N 0.6605(5) 0.2104(5) 0.7087(3)
N3 N 0.6517(5) -0.3497(4) 1.2685(4)
N4 N 0.6572(5) -0.5165(4) 1.3725(4)
N5 N 0.8703(5) 0.1133(4) 0.1619(4)
N6 N 0.9181(5) 0.1982(5) 0.0208(4)
N7 N 0.9454(5) 0.7560(4) -0.5489(4)
N8 N 0.8940(5) 0.9102(5) -0.6529(4)
N9 N 0.3088(5) 0.1570(4) 0.3138(3)
N10 N 0.1702(5) 0.2339(4) 0.2341(3)
O1 O 0.3654(4) -0.0056(4) 0.4786(3)
S1 S 0.48110(15) 0.24183(14) 0.44385(12)
S2 S 0.60799(14) 0.01959(14) 0.32190(11)
S3 S 0.79468(14) 0.19004(14) 0.37745(11)
C1_2 C 0.6427(7) 1.3908(7) -0.3822(5)
H1_2 H 0.6365 1.4698 -0.4022
C2_2 C 0.6472(7) 1.3284(6) -0.2966(5)
H2_2 H 0.6421 1.3607 -0.2496
C3_2 C 0.6607(5) 1.1979(6) -0.3761(4)
H3_2 H 0.6671 1.1288 -0.3918
C4_2 C 0.6614(7) 1.1357(6) -0.2154(4)
C5_2 C 0.7210(6) 1.1468(6) -0.1567(4)
H4_2 H 0.7642 1.2079 -0.1703
C6_2 C 0.7183(5) 1.0699(6) -0.0784(4)
H5_2 H 0.7578 1.0802 -0.0385
C7_2 C 0.6549(5) 0.9727(5) -0.0569(4)
C8_2 C 0.5927(5) 0.9606(6) -0.1157(4)
H6_2 H 0.5496 0.8994 -0.1020
C9_2 C 0.5952(5) 1.0405(5) -0.1952(4)
H7_2 H 0.5544 1.0324 -0.2351
C10_2 C 0.6492(5) 0.8879(5) 0.0309(4)
C11_2 C 0.6970(5) 0.9070(7) 0.0963(4)
H8_2 H 0.7315 0.9735 0.0850
C12_2 C 0.6952(5) 0.8311(5) 0.1770(4)
H9_2 H 0.7252 0.8471 0.2201
C13_2 C 0.6474(5) 0.7309(6) 0.1913(5)
C14_2 C 0.5977(6) 0.7093(6) 0.1294(4)
H10_2 H 0.5628 0.6428 0.1415
C15_2 C 0.5997(6) 0.7865(5) 0.0489(4)
H11_2 H 0.5678 0.7706 0.0068
C16_2 C 0.6484(5) 0.6772(5) 0.3485(4)
H12_2 H 0.6443 0.7502 0.3572
C17_2 C 0.6526(6) 0.5736(5) 0.4137(4)
H13_2 H 0.6522 0.5662 0.4725
C18_2 C 0.6557(6) 0.5332(5) 0.2839(5)
H14_2 H 0.6571 0.4933 0.2419
C19_2 C 0.9879(7) -0.9145(7) 1.1334(5)
H15_2 H 1.0377 -0.9593 1.1685
C20_2 C 1.0183(6) -0.8673(5) 1.0485(5)
H16_2 H 1.0914 -0.8755 1.0136
C21_2 C 0.8361(6) -0.8101(6) 1.0950(4)
H17_2 H 0.7642 -0.7673 1.0987
C22_2 C 0.9143(6) -0.7242(6) 0.9383(4)
C23_2 C 1.0099(6) -0.7315(6) 0.8728(5)
H18_2 H 1.0718 -0.7866 0.8827
C24_2 C 1.0130(6) -0.6574(6) 0.7933(5)
H19_2 H 1.0789 -0.6618 0.7499
C25_2 C 0.9195(7) -0.5734(6) 0.7739(5)
C26_2 C 0.8241(7) -0.5708(6) 0.8417(4)
H20_2 H 0.7604 -0.5181 0.8319
C27_2 C 0.8209(6) -0.6445(5) 0.9237(4)
H21_2 H 0.7564 -0.6402 0.9684
C28_2 C 0.9226(6) -0.4949(6) 0.6874(5)
C29_2 C 1.0264(6) -0.4693(6) 0.6360(5)
H22_2 H 1.0934 -0.5062 0.6550
C30_2 C 1.0359(6) -0.3887(6) 0.5549(4)
H23_2 H 1.1078 -0.3733 0.5202
C31_2 C 0.9368(7) -0.3338(6) 0.5286(5)
C32_2 C 0.8292(6) -0.3565(6) 0.5777(5)
H24_2 H 0.7625 -0.3190 0.5586
C33_2 C 0.8236(6) -0.4379(5) 0.6573(4)
H25_2 H 0.7517 -0.4546 0.6913
C34_2 C 1.0414(6) -0.2124(6) 0.3968(5)
H26_2 H 1.1147 -0.2498 0.4008
C35_2 C 1.0183(6) -0.1170(6) 0.3335(4)
H27_2 H 1.0724 -0.0770 0.2899
C36_2 C 0.8589(5) -0.1633(6) 0.4192(4)
H28_2 H 0.7819 -0.1623 0.4477
C37A C -0.2054(6) 0.8873(6) -0.3534(5)
H29A H -0.1956 0.9415 -0.4064
C38A C -0.1220(6) 0.8464(6) -0.3098(4)
H30A H -0.0470 0.8660 -0.3253
C39A C -0.2808(6) 0.7698(4) -0.2431(4)
H31A H -0.3331 0.7241 -0.2026
C40A C -0.1219(5) 0.7010(5) -0.1683(4)
C41A C -0.0063(5) 0.6575(5) -0.1838(4)
H32A H 0.0405 0.6805 -0.2386
C42A C 0.0389(6) 0.5799(5) -0.1174(4)
H33A H 0.1166 0.5521 -0.1288
C43A C -0.0262(5) 0.5420(5) -0.0349(4)
C44A C -0.1436(5) 0.5896(5) -0.0193(5)
H34A H -0.1898 0.5687 0.0360
C45A C -0.1899(6) 0.6665(6) -0.0854(4)
H35A H -0.2673 0.6956 -0.0745
Cu1_2 Cu 0.64961(7) 1.31879(6) -0.57291(5)
Cu1_3 Cu 0.64961(7) -0.68121(6) 1.42709(5)
Cu2A Cu -0.44812(7) 0.86223(7) -0.35632(5)
Cu2A_2 Cu 0.55188(7) -0.13777(7) 0.64368(5)
Cu2_2 Cu 0.44812(7) 1.13777(7) -0.64368(5)
Cu3_2 Cu 0.79048(7) -0.92717(7) 1.28695(5)
Cu3_3 Cu 0.79048(7) 1.07283(7) -0.71305(5)
Cu3A Cu -0.79048(7) 0.92717(7) -0.28695(5)
Mo1A Mo 0.36910(5) -0.10544(4) 0.57465(4)
Mo1_2 Mo 0.63090(5) 1.10544(4) -0.57465(4)
Mo1A_2 Mo -0.63090(5) 0.89456(4) -0.42535(4)
N1_2 N 0.6496(4) 1.3077(5) -0.4334(3)
N2_2 N 0.6605(5) 1.2104(5) -0.2913(3)
N3_2 N 0.6517(5) 0.6503(4) 0.2685(4)
N4_2 N 0.6572(5) 0.4835(4) 0.3725(4)
N4_3 N 0.6572(5) 1.4835(4) -0.6275(4)
N5_2 N 0.8703(5) -0.8867(4) 1.1619(4)
N6_2 N 0.9181(5) -0.8018(5) 1.0208(4)
N7_2 N 0.9454(5) -0.2440(4) 0.4511(4)
N8_2 N 0.8940(5) -0.0898(5) 0.3471(4)
N8_3 N 0.8940(5) -1.0898(5) 1.3471(4)
N9A N -0.3088(5) 0.8430(4) -0.3138(3)
N10A N -0.1702(5) 0.7661(4) -0.2341(3)
O1A O 0.6346(4) 0.0056(4) 0.5214(3)
O1A_2 O -0.3654(4) 1.0056(4) -0.4786(3)
S1_2 S 0.48110(15) 1.24183(14) -0.55615(12)
S1A S -0.48110(15) 0.75817(14) -0.44385(12)
S1A_2 S 0.51890(15) -0.24183(14) 0.55615(12)
S2A S -0.60799(14) 0.98041(14) -0.32190(11)
S2_2 S 0.60799(14) -0.98041(14) 1.32190(11)
S2A_2 S 0.39201(14) -0.01959(14) 0.67810(11)
S3_2 S 0.79468(14) 1.19004(14) -0.62255(11)
S3_3 S 0.79468(14) -0.80996(14) 1.37745(11)
S3A S 0.20532(14) -0.19004(14) 0.62255(11)
I1 I 0.53504(4) 0.40887(4) 0.10667(3)
loop_
_geom_bond_atom_site_label_1
_geom_bond_atom_site_label_2
_geom_bond_site_symmetry_1
_geom_bond_site_symmetry_2
C1 H1 1_555 1_555
C2 C1 1_555 1_555
H2 C2 1_555 1_555
C3 H3 1_555 1_555
C4 C5 1_555 1_555
C5 H4 1_555 1_555
C6 C5 1_555 1_555
H5 C6 1_555 1_555
C7 C6 1_555 1_555
C8 C7 1_555 1_555
H6 C8 1_555 1_555
C9 C4 1_555 1_555
H7 C9 1_555 1_555
C10 C7 1_555 1_555
C11 C10 1_555 1_555
H8 C11 1_555 1_555
C12 C11 1_555 1_555
H9 C12 1_555 1_555
C13 C12 1_555 1_555
C14 C13 1_555 1_555
H10 C14 1_555 1_555
C15 C10 1_555 1_555
H11 C15 1_555 1_555
C16 H12 1_555 1_555
C17 C16 1_555 1_555
H13 C17 1_555 1_555
C18 H14 1_555 1_555
C19 H15 1_555 1_555
C20 C19 1_555 1_555
H16 C20 1_555 1_555
C21 H17 1_555 1_555
C22 C23 1_555 1_555
C23 H18 1_555 1_555
C24 C23 1_555 1_555
H19 C24 1_555 1_555
C25 C24 1_555 1_555
C26 C25 1_555 1_555
H20 C26 1_555 1_555
C27 C22 1_555 1_555
H21 C27 1_555 1_555
C28 C25 1_555 1_555
C29 C28 1_555 1_555
H22 C29 1_555 1_555
C30 C29 1_555 1_555
H23 C30 1_555 1_555
C31 C30 1_555 1_555
C32 C31 1_555 1_555
H24 C32 1_555 1_555
C33 C28 1_555 1_555
H25 C33 1_555 1_555
C34 H26 1_555 1_555
C35 C34 1_555 1_555
H27 C35 1_555 1_555
C36 H28 1_555 1_555
C37 H29 1_555 1_555
C38 C37 1_555 1_555
H30 C38 1_555 1_555
C39 H31 1_555 1_555
C40 C41 1_555 1_555
C41 H32 1_555 1_555
C42 C41 1_555 1_555
H33 C42 1_555 1_555
C43 C42 1_555 1_555
C44 C43 1_555 1_555
H34 C44 1_555 1_555
C45 C40 1_555 1_555
H35 C45 1_555 1_555
Cu1 N1 1_555 1_555
Cu2 N9 1_555 1_555
Cu3 N5 1_555 1_555
Mo1 S1 1_555 1_555
N1 C1 1_555 1_555
N2 C2 1_555 1_555
N3 C13 1_555 1_555
N4 C17 1_555 1_555
N5 C19 1_555 1_555
N6 C20 1_555 1_555
N7 C31 1_555 1_555
N8 C35 1_555 1_555
N9 C37 1_555 1_555
N10 C38 1_555 1_555
O1 Cu2 1_555 1_555
S1 Cu1 1_555 1_555
S2 Cu2 1_555 1_555
S3 Cu1 1_555 1_555
C1_2 H1_2 1_555 1_555
C2_2 C1_2 1_555 1_555
H2_2 C2_2 1_555 1_555
C3_2 H3_2 1_555 1_555
C4_2 C5_2 1_555 1_555
C5_2 H4_2 1_555 1_555
C6_2 C5_2 1_555 1_555
H5_2 C6_2 1_555 1_555
C7_2 C6_2 1_555 1_555
C8_2 C7_2 1_555 1_555
H6_2 C8_2 1_555 1_555
C9_2 C4_2 1_555 1_555
H7_2 C9_2 1_555 1_555
C10_2 C7_2 1_555 1_555
C11_2 C10_2 1_555 1_555
H8_2 C11_2 1_555 1_555
C12_2 C11_2 1_555 1_555
H9_2 C12_2 1_555 1_555
C13_2 C12_2 1_555 1_555
C14_2 C13_2 1_555 1_555
H10_2 C14_2 1_555 1_555
C15_2 C10_2 1_555 1_555
H11_2 C15_2 1_555 1_555
C16_2 H12_2 1_555 1_555
C17_2 C16_2 1_555 1_555
H13_2 C17_2 1_555 1_555
C18_2 H14_2 1_555 1_555
C19_2 H15_2 1_555 1_555
C20_2 C19_2 1_555 1_555
H16_2 C20_2 1_555 1_555
C21_2 H17_2 1_555 1_555
C22_2 C23_2 1_555 1_555
C23_2 H18_2 1_555 1_555
C24_2 C23_2 1_555 1_555
H19_2 C24_2 1_555 1_555
C25_2 C24_2 1_555 1_555
C26_2 C25_2 1_555 1_555
H20_2 C26_2 1_555 1_555
C27_2 C22_2 1_555 1_555
H21_2 C27_2 1_555 1_555
C28_2 C25_2 1_555 1_555
C29_2 C28_2 1_555 1_555
H22_2 C29_2 1_555 1_555
C30_2 C29_2 1_555 1_555
H23_2 C30_2 1_555 1_555
C31_2 C30_2 1_555 1_555
C32_2 C31_2 1_555 1_555
H24_2 C32_2 1_555 1_555
C33_2 C28_2 1_555 1_555
H25_2 C33_2 1_555 1_555
C34_2 H26_2 1_555 1_555
C35_2 C34_2 1_555 1_555
H27_2 C35_2 1_555 1_555
C36_2 H28_2 1_555 1_555
C37A H29A 1_555 1_555
C38A C37A 1_555 1_555
H30A C38A 1_555 1_555
C39A H31A 1_555 1_555
C40A C41A 1_555 1_555
C41A H32A 1_555 1_555
C42A C41A 1_555 1_555
H33A C42A 1_555 1_555
C43A C43 1_555 1_555
C44A C43A 1_555 1_555
H34A C44A 1_555 1_555
C45A C40A 1_555 1_555
H35A C45A 1_555 1_555
Cu1_2 N1_2 1_555 1_555
Cu1_3 N4 1_555 1_555
Cu2A N9A 1_555 1_555
Cu2A_2 O1A 1_555 1_555
Cu2_2 S1_2 1_555 1_555
Cu3_2 N5_2 1_555 1_555
Cu3_3 N8 1_555 1_555
Cu3A S2A 1_555 1_555
Mo1A O1 1_555 1_555
Mo1_2 S1_2 1_555 1_555
Mo1A_2 S1A 1_555 1_555
N1_2 C1_2 1_555 1_555
N2_2 C2_2 1_555 1_555
N3_2 C13_2 1_555 1_555
N4_2 Cu1 1_555 1_555
N4_3 Cu1_2 1_555 1_555
N5_2 C19_2 1_555 1_555
N6_2 C20_2 1_555 1_555
N7_2 C31_2 1_555 1_555
N8_2 Cu3 1_555 1_555
N8_3 Cu3_2 1_555 1_555
N9A C37A 1_555 1_555
N10A C38A 1_555 1_555
O1A Mo1 1_555 1_555
O1A_2 Cu2A 1_555 1_555
S1_2 Cu1_2 1_555 1_555
S1A Cu2A 1_555 1_555
S1A_2 Cu2A_2 1_555 1_555
S2A Cu2A 1_555 1_555
S2_2 Cu3_2 1_555 1_555
S2A_2 Cu2A_2 1_555 1_555
S3_2 Cu1_2 1_555 1_555
S3_3 Cu1_3 1_555 1_555
S3A Mo1A 1_555 1_555
C3 N1 1_555 1_555
C3 N2 1_555 1_555
C4 N2 1_555 1_555
C8 C9 1_555 1_555
C14 C15 1_555 1_555
C16 N3 1_555 1_555
C18 N3 1_555 1_555
C18 N4 1_555 1_555
C21 N5 1_555 1_555
C21 N6 1_555 1_555
C22 N6 1_555 1_555
C26 C27 1_555 1_555
C32 C33 1_555 1_555
C34 N7 1_555 1_555
C36 N7 1_555 1_555
C36 N8 1_555 1_555
C39 N9 1_555 1_555
C39 N10 1_555 1_555
C40 N10 1_555 1_555
C44 C45 1_555 1_555
Cu2 S1 1_555 1_555
Cu3 S2 1_555 1_555
Cu3 S3 1_555 1_555
Mo1 S2 1_555 1_555
Mo1 S3 1_555 1_555
C3_2 N1_2 1_555 1_555
C3_2 N2_2 1_555 1_555
C4_2 N2_2 1_555 1_555
C8_2 C9_2 1_555 1_555
C14_2 C15_2 1_555 1_555
C16_2 N3_2 1_555 1_555
C17_2 N4_2 1_555 1_555
C18_2 N3_2 1_555 1_555
C18_2 N4_2 1_555 1_555
C21_2 N5_2 1_555 1_555
C21_2 N6_2 1_555 1_555
C22_2 N6_2 1_555 1_555
C26_2 C27_2 1_555 1_555
C32_2 C33_2 1_555 1_555
C34_2 N7_2 1_555 1_555
C35_2 N8_2 1_555 1_555
C36_2 N7_2 1_555 1_555
C36_2 N8_2 1_555 1_555
C39A N9A 1_555 1_555
C39A N10A 1_555 1_555
C40A N10A 1_555 1_555
C42A C43A 1_555 1_555
C44A C45A 1_555 1_555
Cu3_2 S3_3 1_555 1_555
Cu3_3 S3_2 1_555 1_555
Mo1A S1A_2 1_555 1_555
Mo1A S2A_2 1_555 1_555
Mo1_2 S3_2 1_555 1_555
Mo1A_2 S2A 1_555 1_555

#END
