
#######################################################################
#
#                 Cambridge Crystallographic Data Centre
#                                CCDC 
#
#######################################################################
#
# If this CIF has been generated from an entry in the Cambridge 
# Structural Database, then it will include bibliographic, chemical, 
# crystal, experimental, refinement or atomic coordinate data resulting 
# from the CCDC's data processing and validation procedures.
#
#######################################################################

data_IYOFOR
_symmetry_cell_setting           monoclinic
_symmetry_space_group_name_H-M   'P 21/c'
_symmetry_Int_Tables_number      14
_space_group_name_Hall           '-P 2ybc'
loop_
_symmetry_equiv_pos_site_id
_symmetry_equiv_pos_as_xyz
1 x,y,z
2 x,1/2-y,1/2+z
3 -x,-y,-z
4 -x,1/2+y,1/2-z
_cell_length_a                   10.5840(13)
_cell_length_b                   10.2882(12)
_cell_length_c                   13.6775(17)
_cell_angle_alpha                90
_cell_angle_beta                 91.9330(10)
_cell_angle_gamma                90
_cell_volume                     1488.5
loop_
_atom_site_label
_atom_site_type_symbol
_atom_site_fract_x
_atom_site_fract_y
_atom_site_fract_z
Mn1 Mn 0.32617(9) 0.11470(9) 0.18301(7)
O1 O 0.2742(4) 0.0995(4) 0.3430(3)
O2 O 0.3205(4) -0.0126(4) 0.4795(3)
O3 O 0.4490(4) -0.2022(5) 0.5277(3)
O4 O 0.5851(5) -0.3380(4) 0.4587(3)
N1 N 0.1321(5) 0.1890(5) 0.1379(4)
N2 N 0.1976(5) -0.0643(5) 0.1534(4)
N3 N 0.4626(4) -0.0243(5) 0.2433(4)
N4 N 0.5792(5) -0.1969(5) 0.2889(4)
H1 H 0.6319 -0.2603 0.2858
C1 C 0.1025(7) 0.3133(7) 0.1250(5)
H2 H 0.1664 0.3753 0.1294
C2 C -0.0214(8) 0.3536(7) 0.1052(6)
H3 H -0.0395 0.4414 0.0971
C3 C -0.1165(7) 0.2636(7) 0.0976(5)
H4 H -0.1996 0.2901 0.0859
C4 C -0.0881(6) 0.1323(7) 0.1074(4)
C5 C -0.1817(7) 0.0322(8) 0.0989(5)
H5 H -0.2656 0.0547 0.0858
C6 C -0.1506(6) -0.0932(7) 0.1095(5)
H6 H -0.2132 -0.1565 0.1040
C7 C -0.0226(6) -0.1309(6) 0.1291(5)
C8 C 0.0168(7) -0.2612(7) 0.1383(5)
H7 H -0.0427 -0.3276 0.1337
C9 C 0.1393(7) -0.2901(7) 0.1535(5)
H8 H 0.1656 -0.3761 0.1594
C10 C 0.2270(6) -0.1887(6) 0.1604(5)
H9 H 0.3117 -0.2103 0.1706
C11 C 0.0740(6) -0.0361(6) 0.1380(4)
C12 C 0.0385(6) 0.0986(6) 0.1279(4)
C13 C 0.3391(6) 0.0169(6) 0.3890(5)
C14 C 0.4368(6) -0.0551(6) 0.3390(4)
C15 C 0.5086(5) -0.1614(6) 0.3663(4)
C16 C 0.5170(6) -0.2397(6) 0.4563(5)
C17 C 0.5481(5) -0.1103(6) 0.2185(4)
H10 H 0.5839 -0.1110 0.1574
O4C O 0.4149(5) 0.1620(4) 0.0413(3)
N4C N 0.4208(5) 0.3031(5) 0.2111(4)
H1C H 0.3681 0.2397 0.2142
Mn1C Mn 0.67383(9) -0.38530(9) 0.31699(7)
loop_
_geom_bond_atom_site_label_1
_geom_bond_atom_site_label_2
_geom_bond_site_symmetry_1
_geom_bond_site_symmetry_2
Mn1 O1 1_555 1_555
O1 C13 1_555 1_555
O2 C13 1_555 1_555
O3 C16 1_555 1_555
O4 C16 1_555 1_555
N1 Mn1 1_555 1_555
N2 Mn1 1_555 1_555
N3 Mn1 1_555 1_555
N4 H1 1_555 1_555
C1 N1 1_555 1_555
H2 C1 1_555 1_555
C2 C1 1_555 1_555
H3 C2 1_555 1_555
C3 C2 1_555 1_555
H4 C3 1_555 1_555
C4 C3 1_555 1_555
C5 C4 1_555 1_555
H5 C5 1_555 1_555
C6 C5 1_555 1_555
H6 C6 1_555 1_555
C7 C6 1_555 1_555
C8 C7 1_555 1_555
H7 C8 1_555 1_555
C9 C8 1_555 1_555
H8 C9 1_555 1_555
C10 N2 1_555 1_555
H9 C10 1_555 1_555
C11 N2 1_555 1_555
C12 N1 1_555 1_555
C13 C14 1_555 1_555
C14 N3 1_555 1_555
C15 N4 1_555 1_555
C16 C15 1_555 1_555
C17 N3 1_555 1_555
H10 C17 1_555 1_555
O4C Mn1 1_555 1_555
N4C Mn1 1_555 1_555
H1C N4C 1_555 1_555
Mn1C O4 1_555 1_555
N4 C17 1_555 1_555
N4 Mn1C 1_555 1_555
C4 C12 1_555 1_555
C7 C11 1_555 1_555
C9 C10 1_555 1_555
C11 C12 1_555 1_555
C14 C15 1_555 1_555

#END
