
#######################################################################
#
#                 Cambridge Crystallographic Data Centre
#                                CCDC 
#
#######################################################################
#
# If this CIF has been generated from an entry in the Cambridge 
# Structural Database, then it will include bibliographic, chemical, 
# crystal, experimental, refinement or atomic coordinate data resulting 
# from the CCDC's data processing and validation procedures.
#
#######################################################################

data_IYOGIN
_symmetry_cell_setting           triclinic
_symmetry_space_group_name_H-M   'P -1'
_symmetry_Int_Tables_number      2
_space_group_name_Hall           '-P 1'
loop_
_symmetry_equiv_pos_site_id
_symmetry_equiv_pos_as_xyz
1 x,y,z
2 -x,-y,-z
_cell_length_a                   7.0412(4)
_cell_length_b                   10.3913(7)
_cell_length_c                   40.539(3)
_cell_angle_alpha                97.167(2)
_cell_angle_beta                 90.431(2)
_cell_angle_gamma                109.311(1)
_cell_volume                     2773.6
loop_
_atom_site_label
_atom_site_type_symbol
_atom_site_fract_x
_atom_site_fract_y
_atom_site_fract_z
K1 K 0.80599(7) 0.42360(5) 0.215767(14)
K2 K 1.16266(7) 0.14735(5) 0.196890(14)
K3 K 1.66569(7) 1.14870(5) 0.288190(14)
K4 K 1.30017(7) 0.42521(5) 0.304760(14)
F1 F 1.16227(19) 0.42488(13) 0.19102(4)
F2 F 1.1983(2) 0.47541(14) 0.24627(4)
F3 F 1.4301(2) 0.40557(13) 0.21784(5)
F4 F 1.80964(19) 1.17270(12) 0.22566(3)
F5 F 1.80481(18) 1.11876(12) 0.17000(3)
F6 F 1.53157(18) 1.14971(12) 0.19383(4)
F7 F 0.6889(2) 0.40874(13) 0.27716(4)
F8 F 0.67397(19) 0.49525(13) 0.33003(3)
F9 F 0.92906(19) 0.41524(13) 0.31529(4)
F10 F 1.33089(18) 1.17432(12) 0.31269(3)
F11 F 1.2828(2) 1.12811(13) 0.25735(3)
F12 F 1.03043(18) 1.15269(12) 0.28870(4)
N1 N 1.7297(3) 0.62903(17) 0.18318(5)
N2 N 1.8738(3) 0.72682(17) 0.17086(5)
N3 N 1.8606(3) 0.85192(17) 0.17495(5)
N4 N 1.2663(3) 0.69194(18) 0.32795(5)
N5 N 1.4195(3) 0.80924(17) 0.33374(5)
N6 N 1.3986(3) 0.91683(17) 0.32161(4)
C1 C 1.6080(3) 0.6963(2) 0.19695(5)
C2 C 1.4283(3) 0.6450(2) 0.21374(5)
C3 C 1.3476(3) 0.7444(2) 0.22507(6)
H1 H 1.2296 0.7183 0.2374
C4 C 1.4288(3) 0.8833(2) 0.21966(6)
H2 H 1.3615 0.9447 0.2284
C5 C 1.5984(3) 0.9349(2) 0.20260(5)
C6 C 1.6893(3) 0.8350(2) 0.19175(5)
C7 C 2.0303(3) 0.6917(2) 0.15085(6)
H3 H 2.1168 0.6626 0.1660
C8 C 1.9244(3) 0.5696(2) 0.12469(6)
H4 H 2.0279 0.5432 0.1118
H5 H 1.8495 0.4907 0.1362
C9 C 1.7792(4) 0.5946(2) 0.10055(6)
H6 H 1.6774 0.6234 0.1133
H7 H 1.8544 0.6713 0.0884
C10 C 1.6724(4) 0.4703(3) 0.07562(6)
H8 H 1.6223 0.3888 0.0875
H9 H 1.7705 0.4538 0.0597
C11 C 1.4970(4) 0.4844(3) 0.05632(6)
H10 H 1.5478 0.5642 0.0439
H11 H 1.4010 0.5038 0.0723
C12 C 1.3855(4) 0.3583(3) 0.03203(6)
H12 H 1.4760 0.3468 0.0142
H13 H 1.3521 0.2763 0.0438
C13 C 1.1941(4) 0.3641(3) 0.01635(6)
H14 H 1.2282 0.4437 0.0037
H15 H 1.1061 0.3798 0.0342
C14 C 1.0782(4) 0.2356(3) -0.00676(7)
H16 H 1.1626 0.2237 -0.0255
H17 H 1.0528 0.1552 0.0054
C15 C 0.8798(5) 0.2372(4) -0.02055(9)
H18 H 0.8125 0.1506 -0.0350
H19 H 0.9037 0.3143 -0.0334
H20 H 0.7942 0.2476 -0.0022
C16 C 2.1621(3) 0.8189(2) 0.13715(6)
H21 H 2.2266 0.8911 0.1560
H22 H 2.0756 0.8538 0.1239
C17 C 2.3261(3) 0.7947(2) 0.11535(6)
H23 H 2.4133 0.7596 0.1284
H24 H 2.2629 0.7241 0.0961
C18 C 2.4533(4) 0.9256(2) 0.10284(6)
H25 H 2.3630 0.9683 0.0932
H26 H 2.5318 0.9907 0.1220
C19 C 2.5969(4) 0.9046(3) 0.07699(7)
H27 H 2.5212 0.8300 0.0593
H28 H 2.6993 0.8743 0.0875
C20 C 2.7040(4) 1.0335(3) 0.06105(7)
H29 H 2.7773 1.0076 0.0420
H30 H 2.6010 1.0675 0.0521
C21 C 2.8511(4) 1.1495(3) 0.08405(7)
H31 H 2.9017 1.2307 0.0721
H32 H 2.7787 1.1749 0.1033
C22 C 3.0282(4) 1.1164(3) 0.09686(8)
H33 H 3.0917 1.0810 0.0777
H34 H 2.9790 1.0423 0.1110
C23 C 3.1855(5) 1.2373(3) 0.11668(8)
H35 H 3.2961 1.2086 0.1242
H36 H 3.1251 1.2716 0.1361
H37 H 3.2376 1.3106 0.1027
C24 C 1.1293(3) 0.7257(2) 0.31031(5)
C25 C 0.9341(3) 0.6421(2) 0.29750(6)
C26 C 0.8400(3) 0.7104(2) 0.27974(6)
H38 H 0.7109 0.6595 0.2694
C27 C 0.9223(3) 0.8509(2) 0.27585(6)
H39 H 0.8462 0.8889 0.2630
C28 C 1.1068(3) 0.9355(2) 0.28969(5)
C29 C 1.2116(3) 0.8657(2) 0.30641(5)
C30 C 1.6016(3) 0.8172(2) 0.35357(6)
H40 H 1.6701 0.7589 0.3404
C31 C 1.5398(4) 0.7572(3) 0.38578(6)
H41 H 1.4458 0.6618 0.3801
H42 H 1.6613 0.7521 0.3972
C32 C 1.4409(4) 0.8349(3) 0.40986(6)
H43 H 1.3083 0.8280 0.4000
H44 H 1.5252 0.9333 0.4134
C33 C 1.4112(5) 0.7807(3) 0.44313(7)
H45 H 1.3439 0.6797 0.4392
H46 H 1.5448 0.7994 0.4544
C34 C 1.2878(5) 0.8434(4) 0.46578(7)
H47 H 1.1550 0.8259 0.4544
H48 H 1.3561 0.9443 0.4699
C35 C 1.2548(6) 0.7875(4) 0.49913(8)
H49 H 1.1905 0.6862 0.4949
H50 H 1.3876 0.8074 0.5108
C36 C 1.1267(7) 0.8463(5) 0.52154(9)
H51 H 1.1847 0.9479 0.5240
H52 H 1.1342 0.8183 0.5439
C37 C 0.9066(7) 0.8037(5) 0.50996(10)
H53 H 0.8415 0.8581 0.5247
H54 H 0.8994 0.8281 0.4873
C38 C 0.7876(8) 0.6538(6) 0.50933(12)
H55 H 0.6479 0.6366 0.5017
H56 H 0.7903 0.6283 0.5318
H57 H 0.8470 0.5985 0.4941
C39 C 1.7458(3) 0.9646(2) 0.35839(6)
H58 H 1.6764 1.0248 0.3699
H59 H 1.7803 0.9939 0.3363
C40 C 1.9398(3) 0.9849(3) 0.37838(6)
H60 H 1.9070 0.9568 0.4007
H61 H 2.0110 0.9256 0.3670
C41 C 2.0760(4) 1.1332(3) 0.38218(6)
H62 H 2.0847 1.1659 0.3601
H63 H 2.0140 1.1892 0.3971
C42 C 2.2862(4) 1.1575(3) 0.39585(7)
H64 H 2.2781 1.1256 0.4180
H65 H 2.3486 1.1015 0.3810
C43 C 2.4190(4) 1.3053(3) 0.39926(7)
H66 H 2.4180 1.3391 0.3775
H67 H 2.3616 1.3600 0.4154
C44 C 2.6328(5) 1.3302(4) 0.41040(12)
H68 H 2.6918 1.2767 0.3941
H69 H 2.6348 1.2964 0.4321
C45 C 2.7620(6) 1.4813(4) 0.41380(14)
H70 H 2.7144 1.5243 0.3965
H71 H 2.7403 1.5268 0.4357
C46 C 2.9628(8) 1.5070(6) 0.41122(19)
H72 H 3.0322 1.6065 0.4129
H73 H 2.9870 1.4622 0.3897
H74 H 3.0143 1.4707 0.4292
B1 B 1.3090(4) 0.4880(3) 0.21726(7)
B2 B 1.6851(3) 1.0923(2) 0.19731(6)
B3 B 0.8107(4) 0.4904(3) 0.30550(7)
B4 B 1.1868(4) 1.0965(2) 0.28713(6)
K1_2 K 1.80599(7) 0.42360(5) 0.215767(14)
K1_3 K 1.80599(7) 1.42360(5) 0.215767(14)
K2_2 K 2.16266(7) 1.14735(5) 0.196890(14)
K2_3 K 1.16266(7) 1.14735(5) 0.196890(14)
K3_2 K 0.66569(7) 0.14870(5) 0.288190(14)
K3_3 K 0.66569(7) 1.14870(5) 0.288190(14)
K4_2 K 0.30017(7) 0.42521(5) 0.304760(14)
K4_3 K 1.30017(7) 1.42521(5) 0.304760(14)
F3_2 F 0.4301(2) 0.40557(13) 0.21784(5)
F4_2 F 0.80964(19) 0.17270(12) 0.22566(3)
F5_2 F 0.80481(18) 0.11876(12) 0.17000(3)
F6_2 F 0.53157(18) 0.14971(12) 0.19383(4)
F6_3 F 1.53157(18) 0.14971(12) 0.19383(4)
F7_2 F 1.6889(2) 1.40874(13) 0.27716(4)
F8_2 F 1.67397(19) 0.49525(13) 0.33003(3)
F9_2 F 1.92906(19) 1.41524(13) 0.31529(4)
F10_2 F 1.33089(18) 0.17432(12) 0.31269(3)
F11_2 F 1.2828(2) 0.12811(13) 0.25735(3)
F12_2 F 2.03043(18) 1.15269(12) 0.28870(4)
F12_3 F 1.03043(18) 0.15269(12) 0.28870(4)
N1_2 N 0.7297(3) 0.62903(17) 0.18318(5)
loop_
_geom_bond_atom_site_label_1
_geom_bond_atom_site_label_2
_geom_bond_site_symmetry_1
_geom_bond_site_symmetry_2
K1 F1 1_555 1_555
K2 F1 1_555 1_555
K3 F4 1_555 1_555
K4 F2 1_555 1_555
F1 B1 1_555 1_555
F2 K1 1_555 1_555
F3 K2 1_555 1_555
F4 B2 1_555 1_555
F5 B2 1_555 1_555
F6 B2 1_555 1_555
F7 K1 1_555 1_555
F8 B3 1_555 1_555
F9 K4 1_555 1_555
F10 K3 1_555 1_555
F11 K3 1_555 1_555
F12 B4 1_555 1_555
N1 N2 1_555 1_555
N2 N3 1_555 1_555
N3 C6 1_555 1_555
N4 K4 1_555 1_555
N5 N4 1_555 1_555
N6 N5 1_555 1_555
C1 N1 1_555 1_555
C2 C1 1_555 1_555
C3 C2 1_555 1_555
H1 C3 1_555 1_555
C4 C3 1_555 1_555
H2 C4 1_555 1_555
C5 C4 1_555 1_555
C6 C1 1_555 1_555
C7 N2 1_555 1_555
H3 C7 1_555 1_555
C8 C7 1_555 1_555
H4 C8 1_555 1_555
H5 C8 1_555 1_555
C9 C8 1_555 1_555
H6 C9 1_555 1_555
H7 C9 1_555 1_555
C10 C9 1_555 1_555
H8 C10 1_555 1_555
H9 C10 1_555 1_555
C11 C10 1_555 1_555
H10 C11 1_555 1_555
H11 C11 1_555 1_555
C12 C11 1_555 1_555
H12 C12 1_555 1_555
H13 C12 1_555 1_555
C13 C12 1_555 1_555
H14 C13 1_555 1_555
H15 C13 1_555 1_555
C14 C13 1_555 1_555
H16 C14 1_555 1_555
H17 C14 1_555 1_555
C15 C14 1_555 1_555
H18 C15 1_555 1_555
H19 C15 1_555 1_555
H20 C15 1_555 1_555
C16 C7 1_555 1_555
H21 C16 1_555 1_555
H22 C16 1_555 1_555
C17 C16 1_555 1_555
H23 C17 1_555 1_555
H24 C17 1_555 1_555
C18 C17 1_555 1_555
H25 C18 1_555 1_555
H26 C18 1_555 1_555
C19 C18 1_555 1_555
H27 C19 1_555 1_555
H28 C19 1_555 1_555
C20 C19 1_555 1_555
H29 C20 1_555 1_555
H30 C20 1_555 1_555
C21 C20 1_555 1_555
H31 C21 1_555 1_555
H32 C21 1_555 1_555
C22 C21 1_555 1_555
H33 C22 1_555 1_555
H34 C22 1_555 1_555
C23 C22 1_555 1_555
H35 C23 1_555 1_555
H36 C23 1_555 1_555
H37 C23 1_555 1_555
C24 N4 1_555 1_555
C25 C24 1_555 1_555
C26 C25 1_555 1_555
H38 C26 1_555 1_555
C27 C26 1_555 1_555
H39 C27 1_555 1_555
C28 C27 1_555 1_555
C29 N6 1_555 1_555
C30 N5 1_555 1_555
H40 C30 1_555 1_555
C31 C30 1_555 1_555
H41 C31 1_555 1_555
H42 C31 1_555 1_555
C32 C31 1_555 1_555
H43 C32 1_555 1_555
H44 C32 1_555 1_555
C33 C32 1_555 1_555
H45 C33 1_555 1_555
H46 C33 1_555 1_555
C34 C33 1_555 1_555
H47 C34 1_555 1_555
H48 C34 1_555 1_555
C35 C34 1_555 1_555
H49 C35 1_555 1_555
H50 C35 1_555 1_555
C36 C35 1_555 1_555
H51 C36 1_555 1_555
H52 C36 1_555 1_555
C37 C36 1_555 1_555
H53 C37 1_555 1_555
H54 C37 1_555 1_555
C38 C37 1_555 1_555
H55 C38 1_555 1_555
H56 C38 1_555 1_555
H57 C38 1_555 1_555
C39 C30 1_555 1_555
H58 C39 1_555 1_555
H59 C39 1_555 1_555
C40 C39 1_555 1_555
H60 C40 1_555 1_555
H61 C40 1_555 1_555
C41 C40 1_555 1_555
H62 C41 1_555 1_555
H63 C41 1_555 1_555
C42 C41 1_555 1_555
H64 C42 1_555 1_555
H65 C42 1_555 1_555
C43 C42 1_555 1_555
H66 C43 1_555 1_555
H67 C43 1_555 1_555
C44 C43 1_555 1_555
H68 C44 1_555 1_555
H69 C44 1_555 1_555
C45 C44 1_555 1_555
H70 C45 1_555 1_555
H71 C45 1_555 1_555
C46 C45 1_555 1_555
H72 C46 1_555 1_555
H73 C46 1_555 1_555
H74 C46 1_555 1_555
B1 F2 1_555 1_555
B2 C5 1_555 1_555
B3 F7 1_555 1_555
B4 F10 1_555 1_555
K1_2 F3 1_555 1_555
K1_3 F4 1_555 1_555
K2_2 F4 1_555 1_555
K2_3 F6 1_555 1_555
K3_2 F7 1_555 1_555
K3_3 F12 1_555 1_555
K4_2 F8 1_555 1_555
K4_3 F10 1_555 1_555
F3_2 K1 1_555 1_555
F4_2 K1 1_555 1_555
F5_2 K2 1_555 1_555
F6_2 K1 1_555 1_555
F6_3 K2 1_555 1_555
F7_2 K3 1_555 1_555
F8_2 K4 1_555 1_555
F9_2 K3 1_555 1_555
F10_2 K4 1_555 1_555
F11_2 K2 1_555 1_555
F12_2 K3 1_555 1_555
F12_3 K4 1_555 1_555
N1_2 K1 1_555 1_555
K2 F4_2 1_555 1_555
F3 B1 1_555 1_555
F5 K2_2 1_555 1_555
F6 K1_3 1_555 1_555
F9 B3 1_555 1_555
F9 K3_2 1_555 1_555
F11 B4 1_555 1_555
F11 K2_3 1_555 1_555
F12 K4_3 1_555 1_555
N1 K1_2 1_555 1_555
C2 B1 1_555 1_555
C5 C6 1_555 1_555
C24 C29 1_555 1_555
C25 B3 1_555 1_555
C28 C29 1_555 1_555
C28 B4 1_555 1_555
K1_2 F6_3 1_555 1_555
K1_3 F7_2 1_555 1_555
K3_2 F4_2 1_555 1_555
K3_2 F12_3 1_555 1_555

#END
