
#######################################################################
#
#                 Cambridge Crystallographic Data Centre
#                                CCDC 
#
#######################################################################
#
# If this CIF has been generated from an entry in the Cambridge 
# Structural Database, then it will include bibliographic, chemical, 
# crystal, experimental, refinement or atomic coordinate data resulting 
# from the CCDC's data processing and validation procedures.
#
#######################################################################

data_IYOHOU
_symmetry_cell_setting           monoclinic
_symmetry_space_group_name_H-M   'C 2/c'
_symmetry_Int_Tables_number      15
_space_group_name_Hall           '-C 2yn'
loop_
_symmetry_equiv_pos_site_id
_symmetry_equiv_pos_as_xyz
1 x,y,z
2 -x,y,1/2-z
3 1/2+x,1/2+y,z
4 1/2-x,1/2+y,1/2-z
5 -x,-y,-z
6 x,-y,1/2+z
7 1/2-x,1/2-y,-z
8 1/2+x,1/2-y,1/2+z
_cell_length_a                   32.668(3)
_cell_length_b                   14.4026(7)
_cell_length_c                   31.108(3)
_cell_angle_alpha                90
_cell_angle_beta                 100.533(7)
_cell_angle_gamma                90
_cell_volume                     14389.8
loop_
_atom_site_label
_atom_site_type_symbol
_atom_site_fract_x
_atom_site_fract_y
_atom_site_fract_z
C1 C 0.30961(17) 0.1040(3) 0.36964(18)
H1 H 0.3106 0.1685 0.3692
C2 C 0.27994(17) 0.0616(3) 0.33979(18)
H2 H 0.2624 0.0968 0.3192
C3 C 0.27592(17) -0.0333(3) 0.34011(18)
C4 C 0.30374(17) -0.0823(3) 0.37213(18)
H3 H 0.3024 -0.1467 0.3734
C5 C 0.33216(18) -0.0356(3) 0.4008(2)
H4 H 0.3492 -0.0691 0.4225
C6 C 0.24413(17) -0.0812(3) 0.30880(19)
C7 C 0.20981(16) -0.2128(3) 0.28693(17)
C8 C 0.19206(18) -0.0797(3) 0.25183(17)
C9 C 0.20755(15) -0.3181(3) 0.28957(16)
C10 C 0.23294(17) -0.3655(3) 0.3192(2)
H5 H 0.2520 -0.3349 0.3403
C11 C 0.2310(2) -0.4631(3) 0.3187(3)
H6 H 0.2505 -0.4968 0.3381
C12 C 0.1761(2) -0.4597(3) 0.2607(2)
H7 H 0.1575 -0.4922 0.2399
C13 C 0.17618(17) -0.3619(3) 0.25872(17)
H8 H 0.1571 -0.3286 0.2387
C14 C 0.16567(16) -0.0307(3) 0.21501(17)
C15 C 0.1389(2) -0.0785(3) 0.1837(2)
H9 H 0.1375 -0.1429 0.1849
C16 C 0.1139(2) -0.0305(3) 0.1504(2)
H10 H 0.0969 -0.0641 0.1285
C17 C 0.13958(19) 0.1087(3) 0.17883(19)
H11 H 0.1404 0.1731 0.1773
C18 C 0.16512(18) 0.0665(3) 0.21184(17)
H12 H 0.1825 0.1018 0.2326
C19 C 0.0859(2) 0.0280(4) 0.0249(3)
H13 H 0.1059 0.0735 0.0238
C20 C 0.08375(19) -0.0454(3) -0.0030(2)
H14 H 0.1023 -0.0506 -0.0223
C21 C 0.0530(2) -0.1132(3) -0.0019(2)
C22 C 0.02726(19) -0.1029(3) 0.02735(19)
H15 H 0.0071 -0.1474 0.0296
C23 C 0.03147(18) -0.0252(3) 0.05384(17)
H16 H 0.0128 -0.0172 0.0728
C24 C 0.0524(2) -0.1955(3) -0.0315(2)
C25 C 0.0741(2) -0.2775(4) -0.0843(2)
C26 C 0.02071(18) -0.3331(3) -0.0529(2)
C27 C -0.0115(2) -0.4068(3) -0.0506(2)
C28 C -0.01429(18) -0.4832(4) -0.0791(2)
H17 H 0.0036 -0.4906 -0.0989
C29 C -0.0458(2) -0.5475(4) -0.0758(3)
H18 H -0.0488 -0.5979 -0.0948
C30 C -0.06731(18) -0.4715(3) -0.01974(18)
H19 H -0.0846 -0.4683 0.0009
C31 C -0.0371(2) -0.4026(3) -0.0212(2)
H20 H -0.0348 -0.3533 -0.0016
C32 C 0.1022(3) -0.2905(4) -0.1130(3)
C33 C 0.1414(3) -0.2543(4) -0.1048(3)
H21 H 0.1504 -0.2168 -0.0806
C34 C 0.1664(3) -0.2754(4) -0.1332(3)
H22 H 0.1936 -0.2542 -0.1255
C35 C 0.1174(4) -0.3457(5) -0.1779(3)
H23 H 0.1076 -0.3729 -0.2049
C36 C 0.0876(3) -0.3361(5) -0.1511(3)
H24 H 0.0606 -0.3586 -0.1585
Cl1 Cl 0.10888(7) 0.25096(8) 0.07883(7)
Cl2 Cl 0.01532(7) 0.15533(12) 0.12851(6)
Cl3 Cl 0.35670(6) 0.12011(11) 0.50757(6)
Cl4 Cl 0.39367(5) 0.25756(8) 0.41215(6)
Cl5 Cl 0.16805(9) -0.68391(10) 0.22321(7)
Cl6 Cl 0.25968(7) -0.70188(9) 0.32237(8)
N1 N 0.33745(14) 0.0599(2) 0.39958(14)
N2 N 0.23915(13) -0.1735(2) 0.31681(13)
N3 N 0.18353(14) -0.1713(2) 0.25484(13)
N4 N 0.22089(15) -0.0331(2) 0.27816(14)
N5 N 0.20181(17) -0.5078(3) 0.29116(17)
N6 N 0.11309(16) 0.0638(3) 0.14816(14)
N7 N 0.06022(19) 0.0375(3) 0.05376(19)
N8 N 0.07804(17) -0.2029(3) -0.05830(19)
N9 N 0.04422(16) -0.3434(3) -0.08225(17)
N10 N 0.02188(14) -0.2610(3) -0.02450(15)
N11 N -0.07099(17) -0.5423(3) -0.04844(19)
N12 N 0.1582(2) -0.3219(3) -0.1710(2)
Zn1 Zn 0.07311(3) 0.13740(4) 0.10186(2)
Zn2 Zn 0.37874(2) 0.12896(3) 0.44525(2)
Zn3 Zn 0.19828(3) -0.65026(4) 0.28987(3)
N11G N 0.42901(17) 0.0423(3) 0.45156(19)
N12E N 0.1582(2) -0.6781(3) 0.3290(2)
Zn2G Zn -0.12126(2) -0.62896(3) -0.05475(2)
Zn3E Zn 0.19828(3) -0.34974(4) -0.21013(3)
loop_
_geom_bond_atom_site_label_1
_geom_bond_atom_site_label_2
_geom_bond_site_symmetry_1
_geom_bond_site_symmetry_2
C1 H1 1_555 1_555
C2 C1 1_555 1_555
H2 C2 1_555 1_555
C3 C2 1_555 1_555
C4 C3 1_555 1_555
H3 C4 1_555 1_555
C5 C4 1_555 1_555
H4 C5 1_555 1_555
C6 C3 1_555 1_555
C7 C9 1_555 1_555
C8 C14 1_555 1_555
C9 C10 1_555 1_555
C10 H5 1_555 1_555
C11 C10 1_555 1_555
H6 C11 1_555 1_555
C12 H7 1_555 1_555
C13 C9 1_555 1_555
H8 C13 1_555 1_555
C14 C15 1_555 1_555
C15 H9 1_555 1_555
C16 C15 1_555 1_555
H10 C16 1_555 1_555
C17 H11 1_555 1_555
C18 C14 1_555 1_555
H12 C18 1_555 1_555
C19 H13 1_555 1_555
C20 C19 1_555 1_555
H14 C20 1_555 1_555
C21 C20 1_555 1_555
C22 C21 1_555 1_555
H15 C22 1_555 1_555
C23 C22 1_555 1_555
H16 C23 1_555 1_555
C24 C21 1_555 1_555
C25 C32 1_555 1_555
C26 C27 1_555 1_555
C27 C28 1_555 1_555
C28 H17 1_555 1_555
C29 C28 1_555 1_555
H18 C29 1_555 1_555
C30 H19 1_555 1_555
C31 C27 1_555 1_555
H20 C31 1_555 1_555
C32 C33 1_555 1_555
C33 H21 1_555 1_555
C34 C33 1_555 1_555
H22 C34 1_555 1_555
C35 H23 1_555 1_555
C36 C32 1_555 1_555
H24 C36 1_555 1_555
Cl1 Zn1 1_555 1_555
Cl2 Zn1 1_555 1_555
Cl3 Zn2 1_555 1_555
Cl4 Zn2 1_555 1_555
Cl5 Zn3 1_555 1_555
Cl6 Zn3 1_555 1_555
N1 C1 1_555 1_555
N2 C6 1_555 1_555
N3 C7 1_555 1_555
N4 C6 1_555 1_555
N5 C11 1_555 1_555
N6 C16 1_555 1_555
N7 C19 1_555 1_555
N8 C24 1_555 1_555
N9 C25 1_555 1_555
N10 C24 1_555 1_555
N11 C29 1_555 1_555
N12 C34 1_555 1_555
Zn1 N6 1_555 1_555
Zn2 N1 1_555 1_555
Zn3 N5 1_555 1_555
N11G Zn2 1_555 1_555
N12E Zn3 1_555 1_555
Zn2G N11 1_555 1_555
Zn3E N12 1_555 1_555
C5 N1 1_555 1_555
C7 N2 1_555 1_555
C8 N3 1_555 1_555
C8 N4 1_555 1_555
C12 C13 1_555 1_555
C12 N5 1_555 1_555
C17 C18 1_555 1_555
C17 N6 1_555 1_555
C23 N7 1_555 1_555
C25 N8 1_555 1_555
C26 N9 1_555 1_555
C26 N10 1_555 1_555
C30 C31 1_555 1_555
C30 N11 1_555 1_555
C35 C36 1_555 1_555
C35 N12 1_555 1_555
N7 Zn1 1_555 1_555

#END
