
#######################################################################
#
#                 Cambridge Crystallographic Data Centre
#                                CCDC 
#
#######################################################################
#
# If this CIF has been generated from an entry in the Cambridge 
# Structural Database, then it will include bibliographic, chemical, 
# crystal, experimental, refinement or atomic coordinate data resulting 
# from the CCDC's data processing and validation procedures.
#
#######################################################################

data_IYOKOX
_symmetry_cell_setting           monoclinic
_symmetry_space_group_name_H-M   'C 2/c'
_symmetry_Int_Tables_number      15
_space_group_name_Hall           '-C 2yn'
loop_
_symmetry_equiv_pos_site_id
_symmetry_equiv_pos_as_xyz
1 x,y,z
2 -x,y,1/2-z
3 1/2+x,1/2+y,z
4 1/2-x,1/2+y,1/2-z
5 -x,-y,-z
6 x,-y,1/2+z
7 1/2-x,1/2-y,-z
8 1/2+x,1/2-y,1/2+z
_cell_length_a                   26.0742(13)
_cell_length_b                   9.0076(5)
_cell_length_c                   24.0854(12)
_cell_angle_alpha                90
_cell_angle_beta                 111.493(1)
_cell_angle_gamma                90
_cell_volume                     5263.48
loop_
_atom_site_label
_atom_site_type_symbol
_atom_site_fract_x
_atom_site_fract_y
_atom_site_fract_z
Au1 Au 0.144816(8) 0.46176(2) 0.533664(9)
Br1 Br 0.11380(2) 0.46547(6) 0.40985(2)
P1 P 0.22215(5) 0.31375(15) 0.57331(5)
P2 P 0.07982(5) 0.61941(15) 0.54573(6)
C1 C 0.2809(2) 0.4336(5) 0.6117(2)
C2 C 0.3294(2) 0.3779(7) 0.6518(2)
H1 H 0.3328 0.2748 0.6606
C3 C 0.3738(2) 0.4730(8) 0.6797(2)
H2 H 0.4071 0.4345 0.7078
C4 C 0.3694(2) 0.6205(8) 0.6666(3)
H3 H 0.3997 0.6846 0.6859
C5 C 0.3214(2) 0.6779(7) 0.6254(3)
H4 H 0.3189 0.7804 0.6154
C6 C 0.2766(2) 0.5846(6) 0.5988(3)
H5 H 0.2430 0.6240 0.5716
C7 C 0.2178(2) 0.1805(6) 0.6287(2)
C8 C 0.2317(2) 0.0323(7) 0.6277(2)
H6 H 0.2455 -0.0026 0.5987
C9 C 0.2252(2) -0.0662(6) 0.6698(3)
H7 H 0.2341 -0.1682 0.6690
C10 C 0.2060(2) -0.0154(7) 0.7119(3)
H8 H 0.2017 -0.0823 0.7404
C11 C 0.1929(3) 0.1313(7) 0.7136(2)
H9 H 0.1802 0.1661 0.7435
C12 C 0.1982(2) 0.2287(6) 0.6716(2)
H10 H 0.1881 0.3299 0.6723
C13 C 0.2447(2) 0.2019(5) 0.5234(2)
H11 H 0.2790 0.1484 0.5470
H12 H 0.2161 0.1272 0.5032
C14 C 0.0802(2) 0.6204(6) 0.6213(2)
C15 C 0.1304(2) 0.6028(6) 0.6688(2)
H13 H 0.1634 0.5916 0.6609
C16 C 0.1328(2) 0.6015(7) 0.7266(2)
H14 H 0.1672 0.5880 0.7584
C17 C 0.0855(3) 0.6197(8) 0.7389(3)
H15 H 0.0872 0.6183 0.7790
C18 C 0.0352(3) 0.6400(9) 0.6921(3)
H16 H 0.0026 0.6544 0.7002
C19 C 0.0328(2) 0.6391(8) 0.6341(3)
H17 H -0.0017 0.6515 0.6024
C20 C 0.0875(2) 0.8112(6) 0.5287(2)
C21 C 0.0779(2) 0.9289(6) 0.5611(3)
H18 H 0.0698 0.9090 0.5957
C22 C 0.0799(2) 1.0738(6) 0.5435(3)
H19 H 0.0729 1.1528 0.5659
C23 C 0.0916(2) 1.1034(6) 0.4949(3)
H20 H 0.0923 1.2034 0.4826
C24 C 0.1027(3) 0.9916(6) 0.4629(3)
H21 H 0.1117 1.0147 0.4291
C25 C 0.1010(3) 0.8437(6) 0.4791(3)
H22 H 0.1089 0.7662 0.4567
C26 C 0.00862(19) 0.5789(5) 0.4965(2)
H23 H -0.0165 0.6490 0.5055
H24 H 0.0049 0.5950 0.4546
Au1F Au 0.355184(8) 0.03824(2) 0.466336(9)
Au1D Au -0.144816(8) 0.53824(2) 0.466336(9)
Br1F Br 0.38620(2) 0.03453(6) 0.59015(2)
P1F P 0.27785(5) 0.18625(15) 0.42669(5)
P2D P -0.07982(5) 0.38059(15) 0.45427(6)
P2F P 0.42018(5) -0.11941(15) 0.45427(6)
C1F C 0.2191(2) 0.0664(5) 0.3883(2)
C2F C 0.1706(2) 0.1221(7) 0.3482(2)
H1F H 0.1672 0.2252 0.3394
C3F C 0.1262(2) 0.0270(8) 0.3203(2)
H2F H 0.0929 0.0655 0.2922
C4F C 0.1306(2) -0.1205(8) 0.3334(3)
H3F H 0.1003 -0.1846 0.3141
C5F C 0.1786(2) -0.1779(7) 0.3746(3)
H4F H 0.1811 -0.2804 0.3846
C6F C 0.2234(2) -0.0846(6) 0.4012(3)
H5F H 0.2570 -0.1240 0.4284
C7F C 0.2822(2) 0.3195(6) 0.3713(2)
C8F C 0.2683(2) 0.4677(7) 0.3723(2)
H6F H 0.2545 0.5026 0.4013
C9F C 0.2748(2) 0.5662(6) 0.3302(3)
H7F H 0.2659 0.6682 0.3310
C10F C 0.2940(2) 0.5154(7) 0.2881(3)
H8F H 0.2983 0.5823 0.2596
C11F C 0.3071(3) 0.3687(7) 0.2864(2)
H9F H 0.3198 0.3339 0.2565
C12F C 0.3018(2) 0.2713(6) 0.3284(2)
H10F H 0.3119 0.1701 0.3277
C13F C 0.2553(2) 0.2981(5) 0.4766(2)
H11F H 0.2210 0.3516 0.4530
H12F H 0.2839 0.3728 0.4968
C14D C -0.0802(2) 0.3796(6) 0.3787(2)
C15D C -0.1304(2) 0.3972(6) 0.3312(2)
H13D H -0.1634 0.4084 0.3391
C16D C -0.1328(2) 0.3985(7) 0.2734(2)
H14D H -0.1672 0.4120 0.2416
C17D C -0.0855(3) 0.3803(8) 0.2611(3)
H15D H -0.0872 0.3817 0.2210
C18D C -0.0352(3) 0.3600(9) 0.3079(3)
H16D H -0.0026 0.3456 0.2998
C19D C -0.0328(2) 0.3609(8) 0.3659(3)
H17D H 0.0017 0.3485 0.3976
C20D C -0.0875(2) 0.1888(6) 0.4713(2)
C21D C -0.0779(2) 0.0711(6) 0.4389(3)
H18D H -0.0698 0.0910 0.4043
C22D C -0.0799(2) -0.0738(6) 0.4565(3)
H19D H -0.0729 -0.1528 0.4341
C23D C -0.0916(2) -0.1034(6) 0.5051(3)
H20D H -0.0923 -0.2034 0.5174
C24D C -0.1027(3) 0.0084(6) 0.5371(3)
H21D H -0.1117 -0.0147 0.5709
C25D C -0.1010(3) 0.1563(6) 0.5209(3)
H22D H -0.1089 0.2338 0.5433
C26D C -0.00862(19) 0.4211(5) 0.5035(2)
H23D H 0.0165 0.3510 0.4945
H24D H -0.0049 0.4050 0.5454
O1 O 0.5000 0.6689(7) 0.7500
C29 C 0.5121(7) 0.7212(18) 0.6931(8)
C30 C 0.5209(6) 0.5863(17) 0.6651(6)
H30 H 0.4803 0.7774 0.6655
H31 H 0.5452 0.7853 0.7050
H32 H 0.5291 0.6117 0.6296
H33 H 0.4877 0.5246 0.6533
H34 H 0.5520 0.5313 0.6933
C29A C 0.4879(7) 0.7212(18) 0.8069(8)
C30A C 0.4791(6) 0.5863(17) 0.8349(6)
H30A H 0.5197 0.7774 0.8345
H31A H 0.4548 0.7853 0.7950
H32A H 0.4709 0.6117 0.8704
H33A H 0.5123 0.5246 0.8467
H34A H 0.4480 0.5313 0.8067
C27? C 0.5117(5) 0.7931(17) 0.7247(7)
H25? H 0.5414 0.8519 0.7542
H26? H 0.4787 0.8564 0.7070
C28? C 0.5321(8) 0.724(3) 0.6728(7)
H27? H 0.5424 0.8054 0.6519
H28? H 0.5020 0.6667 0.6443
H29? H 0.5640 0.6594 0.6914
loop_
_geom_bond_atom_site_label_1
_geom_bond_atom_site_label_2
_geom_bond_site_symmetry_1
_geom_bond_site_symmetry_2
Au1 Br1 1_555 1_555
P1 Au1 1_555 1_555
P2 Au1 1_555 1_555
C1 P1 1_555 1_555
C2 C1 1_555 1_555
H1 C2 1_555 1_555
C3 C2 1_555 1_555
H2 C3 1_555 1_555
C4 C3 1_555 1_555
H3 C4 1_555 1_555
C5 C4 1_555 1_555
H4 C5 1_555 1_555
C6 C1 1_555 1_555
H5 C6 1_555 1_555
C7 P1 1_555 1_555
C8 C7 1_555 1_555
H6 C8 1_555 1_555
C9 C8 1_555 1_555
H7 C9 1_555 1_555
C10 C9 1_555 1_555
H8 C10 1_555 1_555
C11 C10 1_555 1_555
H9 C11 1_555 1_555
C12 C7 1_555 1_555
H10 C12 1_555 1_555
C13 P1 1_555 1_555
H11 C13 1_555 1_555
H12 C13 1_555 1_555
C14 P2 1_555 1_555
C15 C14 1_555 1_555
H13 C15 1_555 1_555
C16 C15 1_555 1_555
H14 C16 1_555 1_555
C17 C16 1_555 1_555
H15 C17 1_555 1_555
C18 C17 1_555 1_555
H16 C18 1_555 1_555
C19 C14 1_555 1_555
H17 C19 1_555 1_555
C20 P2 1_555 1_555
C21 C20 1_555 1_555
H18 C21 1_555 1_555
C22 C21 1_555 1_555
H19 C22 1_555 1_555
C23 C22 1_555 1_555
H20 C23 1_555 1_555
C24 C23 1_555 1_555
H21 C24 1_555 1_555
C25 C20 1_555 1_555
H22 C25 1_555 1_555
C26 P2 1_555 1_555
H23 C26 1_555 1_555
H24 C26 1_555 1_555
O1 C29 1_555 1_555
C29 C30 1_555 1_555
C30 H32 1_555 1_555
H30 C29 1_555 1_555
H31 C29 1_555 1_555
H33 C30 1_555 1_555
H34 C30 1_555 1_555
Au1F Br1F 1_555 1_555
Au1D P2D 1_555 1_555
P1F Au1F 1_555 1_555
P2D C14D 1_555 1_555
P2F Au1F 1_555 1_555
C1F P1F 1_555 1_555
C2F C1F 1_555 1_555
H1F C2F 1_555 1_555
C3F C2F 1_555 1_555
H2F C3F 1_555 1_555
C4F C3F 1_555 1_555
H3F C4F 1_555 1_555
C5F C4F 1_555 1_555
H4F C5F 1_555 1_555
C6F C1F 1_555 1_555
H5F C6F 1_555 1_555
C7F P1F 1_555 1_555
C8F C7F 1_555 1_555
H6F C8F 1_555 1_555
C9F C8F 1_555 1_555
H7F C9F 1_555 1_555
C10F C9F 1_555 1_555
H8F C10F 1_555 1_555
C11F C10F 1_555 1_555
H9F C11F 1_555 1_555
C12F C7F 1_555 1_555
H10F C12F 1_555 1_555
C13F C13 1_555 1_555
H11F C13F 1_555 1_555
H12F C13F 1_555 1_555
C14D C15D 1_555 1_555
C15D H13D 1_555 1_555
C16D C15D 1_555 1_555
H14D C16D 1_555 1_555
C17D C16D 1_555 1_555
H15D C17D 1_555 1_555
C18D C17D 1_555 1_555
H16D C18D 1_555 1_555
C19D C14D 1_555 1_555
H17D C19D 1_555 1_555
C20D P2D 1_555 1_555
C21D C20D 1_555 1_555
H18D C21D 1_555 1_555
C22D C21D 1_555 1_555
H19D C22D 1_555 1_555
C23D C22D 1_555 1_555
H20D C23D 1_555 1_555
C24D C23D 1_555 1_555
H21D C24D 1_555 1_555
C25D C20D 1_555 1_555
H22D C25D 1_555 1_555
C26D C26 1_555 1_555
H23D C26D 1_555 1_555
H24D C26D 1_555 1_555
C29A O1 1_555 1_555
C30A C29A 1_555 1_555
H30A C29A 1_555 1_555
H31A C29A 1_555 1_555
H32A C30A 1_555 1_555
H33A C30A 1_555 1_555
H34A C30A 1_555 1_555
C5 C6 1_555 1_555
C11 C12 1_555 1_555
C18 C19 1_555 1_555
C24 C25 1_555 1_555
P1F C13F 1_555 1_555
P2D C26D 1_555 1_555
C5F C6F 1_555 1_555
C11F C12F 1_555 1_555
C18D C19D 1_555 1_555
C24D C25D 1_555 1_555

#END
