
#######################################################################
#
#                 Cambridge Crystallographic Data Centre
#                                CCDC 
#
#######################################################################
#
# If this CIF has been generated from an entry in the Cambridge 
# Structural Database, then it will include bibliographic, chemical, 
# crystal, experimental, refinement or atomic coordinate data resulting 
# from the CCDC's data processing and validation procedures.
#
#######################################################################

data_IYOLEO
_symmetry_cell_setting           triclinic
_symmetry_space_group_name_H-M   'P -1'
_symmetry_Int_Tables_number      2
_space_group_name_Hall           '-P 1'
loop_
_symmetry_equiv_pos_site_id
_symmetry_equiv_pos_as_xyz
1 x,y,z
2 -x,-y,-z
_cell_length_a                   9.1275(4)
_cell_length_b                   12.0795(5)
_cell_length_c                   13.7259(6)
_cell_angle_alpha                67.432(3)
_cell_angle_beta                 71.848(3)
_cell_angle_gamma                83.965(4)
_cell_volume                     1327.75
loop_
_atom_site_label
_atom_site_type_symbol
_atom_site_fract_x
_atom_site_fract_y
_atom_site_fract_z
Au1 Au 0.592961(17) 0.575207(13) 0.710073(12)
Br1 Br 0.61114(5) 0.32417(3) 0.77434(3)
P1 P 0.68374(11) 0.59610(8) 0.84180(8)
P2 P 0.50925(11) 0.64895(8) 0.55473(8)
C1 C 0.6686(4) 0.7472(3) 0.8425(3)
C2 C 0.6400(5) 0.7706(4) 0.9385(4)
H1 H 0.6267 0.7075 1.0062
C3 C 0.6311(6) 0.8894(4) 0.9329(4)
H2 H 0.6101 0.9047 0.9973
C4 C 0.6532(6) 0.9836(4) 0.8328(4)
H3 H 0.6480 1.0621 0.8299
C5 C 0.6836(5) 0.9614(4) 0.7357(4)
H4 H 0.6995 1.0249 0.6680
C6 C 0.6898(5) 0.8436(4) 0.7410(3)
H5 H 0.7082 0.8287 0.6766
C7 C 0.8860(4) 0.5583(3) 0.8256(3)
C8 C 0.9809(5) 0.6141(4) 0.8554(4)
H6 H 0.9431 0.6758 0.8806
C9 C 1.1329(5) 0.5777(4) 0.8475(4)
H7 H 1.1967 0.6164 0.8661
C10 C 1.1894(5) 0.4839(4) 0.8121(4)
H8 H 1.2892 0.4573 0.8102
C11 C 1.0967(5) 0.4307(4) 0.7798(4)
H9 H 1.1354 0.3695 0.7540
C12 C 0.9454(5) 0.4676(4) 0.7854(4)
H10 H 0.8840 0.4319 0.7624
C13 C 0.5882(4) 0.4948(3) 0.9831(3)
H11 H 0.6146 0.4128 0.9895
H12 H 0.6273 0.5120 1.0340
C14 C 0.3561(5) 0.7569(3) 0.5623(3)
C15 C 0.3818(5) 0.8566(4) 0.5835(4)
H13 H 0.4775 0.8682 0.5891
C16 C 0.2654(6) 0.9381(4) 0.5961(4)
H14 H 0.2843 1.0048 0.6088
C17 C 0.1217(5) 0.9209(4) 0.5900(4)
H15 H 0.0432 0.9747 0.6003
C18 C 0.0956(5) 0.8227(4) 0.5686(4)
H16 H -0.0007 0.8111 0.5638
C19 C 0.2116(5) 0.7414(4) 0.5540(4)
H17 H 0.1930 0.6764 0.5388
C20 C 0.6664(5) 0.7298(3) 0.4356(3)
C21 C 0.6407(5) 0.8006(4) 0.3349(4)
H18 H 0.5418 0.8052 0.3281
C22 C 0.7605(6) 0.8638(4) 0.2453(4)
H19 H 0.7424 0.9111 0.1786
C23 C 0.9097(6) 0.8561(4) 0.2558(4)
H20 H 0.9903 0.8997 0.1961
C24 C 0.9380(6) 0.7848(5) 0.3533(4)
H21 H 1.0377 0.7785 0.3590
C25 C 0.8159(5) 0.7218(4) 0.4440(4)
H22 H 0.8346 0.6742 0.5104
C26 C 0.4378(4) 0.5440(3) 0.5126(3)
H23 H 0.3491 0.5001 0.5711
H24 H 0.4051 0.5883 0.4474
Au1A Au 0.407039(17) 0.424793(13) 1.289927(12)
Au1A_2 Au 0.407039(17) 0.424793(13) 0.289927(12)
Br1A Br 0.38886(5) 0.67583(3) 1.22566(3)
P1A P 0.31626(11) 0.40390(8) 1.15820(8)
P2A P 0.49075(11) 0.35105(8) 0.44527(8)
P2A_2 P 0.49075(11) 0.35105(8) 1.44527(8)
C1A C 0.3314(4) 0.2528(3) 1.1575(3)
C2A C 0.3600(5) 0.2294(4) 1.0615(4)
H1A H 0.3733 0.2925 0.9938
C3A C 0.3689(6) 0.1106(4) 1.0671(4)
H2A H 0.3899 0.0953 1.0027
C4A C 0.3468(6) 0.0164(4) 1.1672(4)
H3A H 0.3520 -0.0621 1.1701
C5A C 0.3164(5) 0.0386(4) 1.2643(4)
H4A H 0.3005 -0.0249 1.3320
C6A C 0.3102(5) 0.1564(4) 1.2590(3)
H5A H 0.2918 0.1713 1.3234
C7A C 0.1140(4) 0.4417(3) 1.1744(3)
C8A C 0.0191(5) 0.3859(4) 1.1446(4)
H6A H 0.0569 0.3242 1.1194
C9A C -0.1329(5) 0.4223(4) 1.1525(4)
H7A H -0.1967 0.3836 1.1339
C10A C -0.1894(5) 0.5161(4) 1.1879(4)
H8A H -0.2892 0.5427 1.1898
C11A C -0.0967(5) 0.5693(4) 1.2202(4)
H9A H -0.1354 0.6305 1.2460
C12A C 0.0546(5) 0.5324(4) 1.2146(4)
H10A H 0.1160 0.5681 1.2376
C13A C 0.4118(4) 0.5052(3) 1.0169(3)
H11A H 0.3854 0.5872 1.0105
H12A H 0.3727 0.4880 0.9660
C14A C 0.6439(5) 0.2431(3) 0.4377(3)
C15A C 0.6182(5) 0.1434(4) 0.4165(4)
H13A H 0.5225 0.1318 0.4109
C16A C 0.7346(6) 0.0619(4) 0.4039(4)
H14A H 0.7157 -0.0048 0.3912
C17A C 0.8783(5) 0.0791(4) 0.4100(4)
H15A H 0.9568 0.0253 0.3997
C18A C 0.9044(5) 0.1773(4) 0.4314(4)
H16A H 1.0007 0.1889 0.4362
C19A C 0.7884(5) 0.2586(4) 0.4460(4)
H17A H 0.8070 0.3236 0.4612
C20A C 0.3336(5) 0.2702(3) 0.5644(3)
C21A C 0.3593(5) 0.1994(4) 0.6651(4)
H18A H 0.4582 0.1948 0.6719
C22A C 0.2395(6) 0.1362(4) 0.7547(4)
H19A H 0.2576 0.0889 0.8214
C23A C 0.0903(6) 0.1439(4) 0.7442(4)
H20A H 0.0097 0.1003 0.8039
C24A C 0.0620(6) 0.2152(5) 0.6467(4)
H21A H -0.0377 0.2215 0.6410
C25A C 0.1841(5) 0.2782(4) 0.5560(4)
H22A H 0.1654 0.3258 0.4896
C26A C 0.5622(4) 0.4560(3) 0.4874(3)
H23A H 0.6509 0.4999 0.4289
H24A H 0.5949 0.4117 0.5526
C27 C 0.8414(7) 0.1639(5) 1.0030(5)
H25 H 0.8377 0.2353 0.9394
H26 H 0.8158 0.0953 0.9909
Cl1 Cl 1.03176(15) 0.14815(12) 1.01673(11)
Cl2 Cl 0.70688(16) 0.17464(12) 1.12056(13)
loop_
_geom_bond_atom_site_label_1
_geom_bond_atom_site_label_2
_geom_bond_site_symmetry_1
_geom_bond_site_symmetry_2
Au1 Br1 1_555 1_555
P1 Au1 1_555 1_555
P2 Au1 1_555 1_555
C1 P1 1_555 1_555
C2 C1 1_555 1_555
H1 C2 1_555 1_555
C3 C2 1_555 1_555
H2 C3 1_555 1_555
C4 C3 1_555 1_555
H3 C4 1_555 1_555
C5 C4 1_555 1_555
H4 C5 1_555 1_555
C6 C1 1_555 1_555
H5 C6 1_555 1_555
C7 P1 1_555 1_555
C8 C7 1_555 1_555
H6 C8 1_555 1_555
C9 C8 1_555 1_555
H7 C9 1_555 1_555
C10 C9 1_555 1_555
H8 C10 1_555 1_555
C11 C10 1_555 1_555
H9 C11 1_555 1_555
C12 C7 1_555 1_555
H10 C12 1_555 1_555
C13 P1 1_555 1_555
H11 C13 1_555 1_555
H12 C13 1_555 1_555
C14 P2 1_555 1_555
C15 C14 1_555 1_555
H13 C15 1_555 1_555
C16 C15 1_555 1_555
H14 C16 1_555 1_555
C17 C16 1_555 1_555
H15 C17 1_555 1_555
C18 C17 1_555 1_555
H16 C18 1_555 1_555
C19 C14 1_555 1_555
H17 C19 1_555 1_555
C20 P2 1_555 1_555
C21 C20 1_555 1_555
H18 C21 1_555 1_555
C22 C21 1_555 1_555
H19 C22 1_555 1_555
C23 C22 1_555 1_555
H20 C23 1_555 1_555
C24 C23 1_555 1_555
H21 C24 1_555 1_555
C25 C20 1_555 1_555
H22 C25 1_555 1_555
C26 P2 1_555 1_555
H23 C26 1_555 1_555
H24 C26 1_555 1_555
C27 H25 1_555 1_555
H26 C27 1_555 1_555
Cl1 C27 1_555 1_555
Cl2 C27 1_555 1_555
Au1A Br1A 1_555 1_555
Au1A_2 P2A 1_555 1_555
P1A Au1A 1_555 1_555
P2A C14A 1_555 1_555
P2A_2 Au1A 1_555 1_555
C1A P1A 1_555 1_555
C2A C1A 1_555 1_555
H1A C2A 1_555 1_555
C3A C2A 1_555 1_555
H2A C3A 1_555 1_555
C4A C3A 1_555 1_555
H3A C4A 1_555 1_555
C5A C4A 1_555 1_555
H4A C5A 1_555 1_555
C6A C1A 1_555 1_555
H5A C6A 1_555 1_555
C7A P1A 1_555 1_555
C8A C7A 1_555 1_555
H6A C8A 1_555 1_555
C9A C8A 1_555 1_555
H7A C9A 1_555 1_555
C10A C9A 1_555 1_555
H8A C10A 1_555 1_555
C11A C10A 1_555 1_555
H9A C11A 1_555 1_555
C12A C7A 1_555 1_555
H10A C12A 1_555 1_555
C13A C13 1_555 1_555
H11A C13A 1_555 1_555
H12A C13A 1_555 1_555
C14A C15A 1_555 1_555
C15A H13A 1_555 1_555
C16A C15A 1_555 1_555
H14A C16A 1_555 1_555
C17A C16A 1_555 1_555
H15A C17A 1_555 1_555
C18A C17A 1_555 1_555
H16A C18A 1_555 1_555
C19A C14A 1_555 1_555
H17A C19A 1_555 1_555
C20A P2A 1_555 1_555
C21A C20A 1_555 1_555
H18A C21A 1_555 1_555
C22A C21A 1_555 1_555
H19A C22A 1_555 1_555
C23A C22A 1_555 1_555
H20A C23A 1_555 1_555
C24A C23A 1_555 1_555
H21A C24A 1_555 1_555
C25A C20A 1_555 1_555
H22A C25A 1_555 1_555
C26A C26 1_555 1_555
H23A C26A 1_555 1_555
H24A C26A 1_555 1_555
C5 C6 1_555 1_555
C11 C12 1_555 1_555
C18 C19 1_555 1_555
C24 C25 1_555 1_555
P1A C13A 1_555 1_555
P2A C26A 1_555 1_555
C5A C6A 1_555 1_555
C11A C12A 1_555 1_555
C18A C19A 1_555 1_555
C24A C25A 1_555 1_555

#END
