
#######################################################################
#
#                 Cambridge Crystallographic Data Centre
#                                CCDC 
#
#######################################################################
#
# If this CIF has been generated from an entry in the Cambridge 
# Structural Database, then it will include bibliographic, chemical, 
# crystal, experimental, refinement or atomic coordinate data resulting 
# from the CCDC's data processing and validation procedures.
#
#######################################################################

data_IYOYUR
_symmetry_cell_setting           orthorhombic
_symmetry_space_group_name_H-M   'C 2 2 21'
_symmetry_Int_Tables_number      20
_space_group_name_Hall           'C 2n 2'
loop_
_symmetry_equiv_pos_site_id
_symmetry_equiv_pos_as_xyz
1 x,y,z
2 -x,-y,1/2+z
3 x,-y,-z
4 -x,y,1/2-z
5 1/2+x,1/2+y,z
6 1/2-x,1/2-y,1/2+z
7 1/2+x,1/2-y,-z
8 1/2-x,1/2+y,1/2-z
_cell_length_a                   4.8026(1)
_cell_length_b                   20.3040(5)
_cell_length_c                   15.9930(5)
_cell_angle_alpha                90
_cell_angle_beta                 90
_cell_angle_gamma                90
_cell_volume                     1559.51
loop_
_atom_site_label
_atom_site_type_symbol
_atom_site_fract_x
_atom_site_fract_y
_atom_site_fract_z
Cu1 Cu 1.28650(7) 1.0000 0.5000
N1 N 0.8240(7) 1.22380(13) 0.35783(18)
N2 N 1.0377(4) 1.02339(10) 0.40570(11)
N3 N 0.5000 0.89240(17) 0.2500
N4 N 1.5165(5) 0.92217(9) 0.47009(12)
C1 C 0.6028(5) 1.12599(10) 0.28123(13)
C2 C 0.6666(4) 1.05959(10) 0.30028(11)
C3 C 0.5000 1.01902(15) 0.2500
C4 C 0.7238(6) 1.18129(11) 0.32202(16)
C5 C 0.8711(5) 1.03919(10) 0.35856(12)
C6 C 0.5000 0.94895(17) 0.2500
C7 C 1.8503(7) 0.83082(14) 0.4186(2)
H1 H 1.9413 0.8098 0.4665
H2 H 1.9917 0.8508 0.3824
H3 H 1.7458 0.7977 0.3870
C8 C 1.6607(5) 0.88158(11) 0.44813(15)
Cu1A Cu -0.28650(7) 1.0000 0.0000
N1C N 0.1760(7) 1.22380(13) 0.14217(18)
N2C N -0.0377(4) 1.02339(10) 0.09430(11)
N2B N 1.0377(4) 0.97661(10) 0.59430(11)
N4B N 1.5165(5) 1.07783(9) 0.52991(12)
C1C C 0.3972(5) 1.12599(10) 0.21877(13)
C2C C 0.3334(4) 1.05959(10) 0.19972(11)
C4C C 0.2762(6) 1.18129(11) 0.17798(16)
C5C C 0.1289(5) 1.03919(10) 0.14144(12)
C7B C 1.8503(7) 1.16918(14) 0.5814(2)
H1B H 1.9413 1.1902 0.5335
H2B H 1.9917 1.1492 0.6176
H3B H 1.7458 1.2023 0.6130
C8B C 1.6607(5) 1.11842(11) 0.55187(15)
loop_
_geom_bond_atom_site_label_1
_geom_bond_atom_site_label_2
_geom_bond_site_symmetry_1
_geom_bond_site_symmetry_2
Cu1 N2 1_555 1_555
N1 C4 1_555 1_555
N2 C5 1_555 1_555
N3 C6 1_555 1_555
N4 Cu1 1_555 1_555
C1 C2 1_555 1_555
C2 C3 1_555 1_555
C3 C6 1_555 1_555
C4 C1 1_555 1_555
C5 C2 1_555 1_555
C7 H1 1_555 1_555
H2 C7 1_555 1_555
H3 C7 1_555 1_555
C8 N4 1_555 1_555
Cu1A N2C 1_555 1_555
N1C C4C 1_555 1_555
N2C C5C 1_555 1_555
N2B Cu1 1_555 1_555
N4B Cu1 1_555 1_555
C1C C1 1_555 1_555
C2C C3 1_555 1_555
C4C C1C 1_555 1_555
C5C C2C 1_555 1_555
C7B H1B 1_555 1_555
H2B C7B 1_555 1_555
H3B C7B 1_555 1_555
C8B N4B 1_555 1_555
C7 C8 1_555 1_555
C1C C2C 1_555 1_555
C7B C8B 1_555 1_555

#END
