
#######################################################################
#
#                 Cambridge Crystallographic Data Centre
#                                CCDC 
#
#######################################################################
#
# If this CIF has been generated from an entry in the Cambridge 
# Structural Database, then it will include bibliographic, chemical, 
# crystal, experimental, refinement or atomic coordinate data resulting 
# from the CCDC's data processing and validation procedures.
#
#######################################################################

data_IYOYIE
_symmetry_cell_setting           triclinic
_symmetry_space_group_name_H-M   'P -1'
_symmetry_Int_Tables_number      2
_space_group_name_Hall           '-P 1'
loop_
_symmetry_equiv_pos_site_id
_symmetry_equiv_pos_as_xyz
1 x,y,z
2 -x,-y,-z
_cell_length_a                   9.006(2)
_cell_length_b                   9.127(2)
_cell_length_c                   9.129(2)
_cell_angle_alpha                78.57(3)
_cell_angle_beta                 88.99(3)
_cell_angle_gamma                88.98(3)
_cell_volume                     735.309
loop_
_atom_site_label
_atom_site_type_symbol
_atom_site_fract_x
_atom_site_fract_y
_atom_site_fract_z
N1 N 0.8362(4) 0.8791(3) 0.1576(3)
C1 C 0.7494(4) 0.7718(4) 0.1244(4)
H1 H 0.7464(4) 0.7598(4) 0.0257(4)
C2 C 0.6638(4) 0.6780(4) 0.2309(4)
H2 H 0.6049(4) 0.6060(4) 0.2025(4)
C3 C 0.6663(4) 0.6920(3) 0.3792(4)
C4 C 0.7520(4) 0.8055(4) 0.4129(4)
H3 H 0.7539(4) 0.8218(4) 0.5102(4)
C5 C 0.8342(4) 0.8937(4) 0.3020(4)
H4 H 0.8919(4) 0.9679(4) 0.3280(4)
C6 C 0.5812(3) 0.5904(3) 0.5022(3)
H5 H 0.6091(3) 0.6104(3) 0.5996(3)
C7 C 0.5933(3) 0.4206(3) 0.5048(3)
H6 H 0.6368(3) 0.4055(3) 0.4096(3)
C8 C 0.6754(3) 0.3231(4) 0.6307(4)
C9 C 0.6701(4) 0.1687(4) 0.6502(4)
H7 H 0.6106(4) 0.1251(4) 0.5890(4)
C10 C 0.7530(4) 0.0791(4) 0.7605(4)
H8 H 0.7480(4) -0.0241(4) 0.7707(4)
N2 N 0.8395(4) 0.1343(3) 0.8525(3)
C11 C 0.8431(4) 0.2839(4) 0.8340(4)
H9 H 0.9028(4) 0.3247(4) 0.8973(4)
C12 C 0.7644(4) 0.3805(4) 0.7277(4)
H10 H 0.7706(4) 0.4832(4) 0.7208(4)
O1 O 0.9984(2) 1.1635(2) 0.1279(2)
C13 C 1.0494(3) 1.2525(3) 0.2022(3)
O2 O 1.1830(2) 1.2796(3) 0.2150(3)
C14 C 0.9372(4) 1.3329(6) 0.2849(6)
H11 H 0.9883(5) 1.3873(37) 0.3481(35)
H12 H 0.8731(30) 1.2612(7) 0.3449(37)
H13 H 0.8790(30) 1.4012(35) 0.2141(6)
Co1 Co 1.0000 1.0000 0.0000
C6A C 0.4188(3) 0.4096(3) 0.4978(3)
C3A C 0.3337(4) 0.3080(3) 0.6208(4)
C2A C 0.3362(4) 0.3220(4) 0.7691(4)
C1A C 0.2506(4) 0.2282(4) 0.8756(4)
N1A N 0.1638(4) 0.1209(3) 0.8424(3)
C5A C 0.1658(4) 0.1063(4) 0.6980(4)
C4A C 0.2480(4) 0.1945(4) 0.5871(4)
H3A H 0.2461(4) 0.1782(4) 0.4898(4)
H4A H 0.1081(4) 0.0321(4) 0.6720(4)
H1A H 0.2536(4) 0.2402(4) 0.9743(4)
H2A H 0.3951(4) 0.3940(4) 0.7975(4)
H5A H 0.3909(3) 0.3896(3) 0.4004(3)
C7A C 0.4067(3) 0.5794(3) 0.4952(3)
H6A H 0.3632(3) 0.5945(3) 0.5904(3)
C8A C 0.3246(3) 0.6769(4) 0.3693(4)
C9A C 0.3299(4) 0.8313(4) 0.3498(4)
H7A H 0.3894(4) 0.8749(4) 0.4110(4)
C10A C 0.2470(4) 0.9209(4) 0.2395(4)
H8A H 0.2520(4) 1.0241(4) 0.2293(4)
N2A N 0.1605(4) 0.8657(3) 0.1475(3)
C11A C 0.1569(4) 0.7161(4) 0.1660(4)
H9A H 0.0972(4) 0.6753(4) 0.1027(4)
C12A C 0.2356(4) 0.6195(4) 0.2723(4)
H10A H 0.2294(4) 0.5168(4) 0.2792(4)
O1A O 1.0016(2) 0.8365(2) -0.1279(2)
C13A C 0.9506(3) 0.7475(3) -0.2022(3)
O2A O 0.8170(2) 0.7204(3) -0.2150(3)
C14A C 1.0628(4) 0.6671(6) -0.2849(6)
H11A H 1.0117(5) 0.6127(37) -0.3481(35)
H12A H 1.1269(30) 0.7388(7) -0.3449(37)
H13A H 1.1210(30) 0.5988(35) -0.2141(6)
Co1_2 Co 1.0000 0.0000 1.0000
N1A_2 N 1.1638(4) 1.1209(3) -0.1576(3)
N2_2 N 0.8395(4) 1.1343(3) -0.1475(3)
N2A_2 N 1.1605(4) 0.8657(3) 0.1475(3)
Co1_3 Co 0.0000 0.0000 1.0000
Co1_4 Co 0.0000 1.0000 0.0000
O3 O 0.4879(8) 0.3334(6) 0.1474(8)
H14 H 0.4046(6) 0.3085(11) 0.1866(11)
C15 C 0.5659(5) 0.1938(5) 0.1438(6)
H15 H 0.6659(7) 0.2149(11) 0.0986(12)
H16 H 0.5758(12) 0.1354(8) 0.2469(8)
H17 H 0.5095(10) 0.1354(9) 0.0836(10)
O4? O 0.4940(7) 0.2296(8) 0.2402(6)
H18? H 0.4250(5) 0.2879(9) 0.2036(10)
C16? C 0.5694(7) 0.1868(6) 0.1131(7)
H19? H 0.6528(9) 0.1174(10) 0.1483(12)
H20? H 0.4987(11) 0.1367(11) 0.0580(11)
H21? H 0.6083(12) 0.2771(9) 0.0458(9)
loop_
_geom_bond_atom_site_label_1
_geom_bond_atom_site_label_2
_geom_bond_site_symmetry_1
_geom_bond_site_symmetry_2
N1 C1 1_555 1_555
C1 H1 1_555 1_555
C2 C1 1_555 1_555
H2 C2 1_555 1_555
C3 C2 1_555 1_555
C4 C3 1_555 1_555
H3 C4 1_555 1_555
C5 N1 1_555 1_555
H4 C5 1_555 1_555
C6 C3 1_555 1_555
H5 C6 1_555 1_555
C7 C6 1_555 1_555
H6 C7 1_555 1_555
C8 C7 1_555 1_555
C9 C8 1_555 1_555
H7 C9 1_555 1_555
C10 C9 1_555 1_555
H8 C10 1_555 1_555
N2 C10 1_555 1_555
C11 N2 1_555 1_555
H9 C11 1_555 1_555
C12 C8 1_555 1_555
H10 C12 1_555 1_555
O1 C13 1_555 1_555
C13 O2 1_555 1_555
C14 C13 1_555 1_555
H11 C14 1_555 1_555
H12 C14 1_555 1_555
H13 C14 1_555 1_555
Co1 N1 1_555 1_555
O3 H14 1_555 1_555
C15 O3 1_555 1_555
H15 C15 1_555 1_555
H16 C15 1_555 1_555
H17 C15 1_555 1_555
C6A C7 1_555 1_555
C3A C6A 1_555 1_555
C2A C3A 1_555 1_555
C1A C2A 1_555 1_555
N1A C1A 1_555 1_555
C5A N1A 1_555 1_555
C4A C3A 1_555 1_555
H3A C4A 1_555 1_555
H4A C5A 1_555 1_555
H1A C1A 1_555 1_555
H2A C2A 1_555 1_555
H5A C6A 1_555 1_555
C7A C6 1_555 1_555
H6A C7A 1_555 1_555
C8A C7A 1_555 1_555
C9A C8A 1_555 1_555
H7A C9A 1_555 1_555
C10A C9A 1_555 1_555
H8A C10A 1_555 1_555
N2A C10A 1_555 1_555
C11A N2A 1_555 1_555
H9A C11A 1_555 1_555
C12A C8A 1_555 1_555
H10A C12A 1_555 1_555
O1A Co1 1_555 1_555
C13A O1A 1_555 1_555
O2A C13A 1_555 1_555
C14A C13A 1_555 1_555
H11A C14A 1_555 1_555
H12A C14A 1_555 1_555
H13A C14A 1_555 1_555
Co1_2 N2 1_555 1_555
N1A_2 Co1 1_555 1_555
N2_2 Co1 1_555 1_555
N2A_2 Co1 1_555 1_555
Co1_3 N1A 1_555 1_555
Co1_4 N2A 1_555 1_555
C4 C5 1_555 1_555
C11 C12 1_555 1_555
O1 Co1 1_555 1_555
C6A C7A 1_555 1_555
C5A C4A 1_555 1_555
C11A C12A 1_555 1_555

#END
