
#######################################################################
#
#                 Cambridge Crystallographic Data Centre
#                                CCDC 
#
#######################################################################
#
# If this CIF has been generated from an entry in the Cambridge 
# Structural Database, then it will include bibliographic, chemical, 
# crystal, experimental, refinement or atomic coordinate data resulting 
# from the CCDC's data processing and validation procedures.
#
#######################################################################

data_IYUBAG
_symmetry_cell_setting           monoclinic
_symmetry_space_group_name_H-M   'P 21/n'
_symmetry_Int_Tables_number      14
_space_group_name_Hall           '-P 2yn'
loop_
_symmetry_equiv_pos_site_id
_symmetry_equiv_pos_as_xyz
1 x,y,z
2 1/2-x,1/2+y,1/2-z
3 -x,-y,-z
4 1/2+x,1/2-y,1/2+z
_cell_length_a                   14.008(2)
_cell_length_b                   12.380(2)
_cell_length_c                   18.237(3)
_cell_angle_alpha                90
_cell_angle_beta                 107.59(2)
_cell_angle_gamma                90
_cell_volume                     3014.77
loop_
_atom_site_label
_atom_site_type_symbol
_atom_site_fract_x
_atom_site_fract_y
_atom_site_fract_z
Co1 Co 0.26225(3) 0.67046(3) 0.02387(2)
Cl1 Cl 0.29465(5) 0.58045(7) 0.13623(4)
Cl2 Cl 0.22989(7) 0.84492(7) 0.03680(5)
N1 N 0.37291(18) 0.6475(2) -0.02245(14)
C1 C 0.3635(2) 0.6035(2) -0.09043(17)
H1 H 0.3021 0.5767 -0.1236
N2 N 0.45096(18) 0.6009(2) -0.10744(14)
C2 C 0.6254(2) 0.6664(3) -0.0323(2)
H2 H 0.6586 0.6465 -0.0687
C3 C 0.6752(3) 0.7157(4) 0.0357(2)
H3 H 0.7447 0.7302 0.0468
C4 C 0.6260(3) 0.7457(4) 0.0900(2)
H4 H 0.6629 0.7804 0.1364
C5 C 0.5256(3) 0.7253(3) 0.0767(2)
H5 H 0.4927 0.7444 0.1133
C6 C 0.4742(2) 0.6755(3) 0.00755(17)
C7 C 0.5239(2) 0.6470(3) -0.04550(17)
C8 C 0.4651(2) 0.5596(2) -0.17862(17)
H6 H 0.4045 0.5189 -0.2075
H7 H 0.5222 0.5087 -0.1655
C9 C 0.4846(2) 0.6480(2) -0.22987(16)
C10 C 0.4097(2) 0.7214(3) -0.26581(19)
H8 H 0.3473 0.7192 -0.2553
C11 C 0.5763(2) 0.6556(3) -0.2442(2)
H9 H 0.6292 0.6083 -0.2185
N3 N 0.35806(18) 1.0987(2) -0.44902(13)
C12 C 0.3916(2) 1.0020(2) -0.45811(16)
H10 H 0.3588 0.9547 -0.4990
N4 N 0.47773(18) 0.9770(2) -0.40324(14)
C13 C 0.5846(2) 1.0838(3) -0.28949(18)
H11 H 0.6365 1.0321 -0.2714
C14 C 0.5862(3) 1.1814(3) -0.25302(19)
H12 H 0.6406 1.1977 -0.2087
C15 C 0.5093(3) 1.2574(3) -0.27991(19)
H13 H 0.5125 1.3233 -0.2526
C16 C 0.4288(3) 1.2396(3) -0.34500(19)
H14 H 0.3776 1.2921 -0.3631
C17 C 0.4266(2) 1.1410(2) -0.38272(16)
C18 C 0.5030(2) 1.0646(3) -0.35414(17)
C19 C 0.5324(2) 0.8748(3) -0.39524(18)
H15 H 0.6049 0.8903 -0.3828
H16 H 0.5114 0.8362 -0.4451
C20 C 0.5156(2) 0.8015(2) -0.33344(17)
C21 C 0.4253(2) 0.7976(3) -0.31682(19)
H17 H 0.3738 0.8476 -0.3405
C22 C 0.5915(2) 0.7316(3) -0.2955(2)
H18 H 0.6546 0.7355 -0.3047
Co1A Co 0.23775(3) 1.17046(3) -0.52387(2)
N3A N 0.14194(18) 0.5987(2) -0.05098(13)
O1 O -0.1370(3) 0.7219(3) -0.0424(2)
C23 C -0.0829(4) 0.8055(4) -0.0493(3)
H19 H -0.0139 0.8075 -0.0205
N5 N -0.1208(3) 0.8841(3) -0.0936(2)
C24 C -0.2171(6) 0.8935(6) -0.1439(4)
H20 H -0.2567 0.8304 -0.1385
H21 H -0.2142 0.8974 -0.1969
H22 H -0.2485 0.9592 -0.1319
C25 C -0.0531(6) 0.9714(5) -0.1066(5)
H23 H 0.0141 0.9624 -0.0703
H24 H -0.0798 1.0422 -0.0986
H25 H -0.0495 0.9667 -0.1593
O2 O 0.2185(2) 0.5371(3) -0.24861(17)
C26 C 0.1308(3) 0.5237(3) -0.2849(2)
H26 H 0.0823 0.5556 -0.2648
N6 N 0.0973(2) 0.4690(3) -0.34938(18)
C27 C 0.1670(5) 0.4202(6) -0.3838(4)
H27 H 0.2346 0.4229 -0.3474
H28 H 0.1657 0.4598 -0.4306
H29 H 0.1479 0.3448 -0.3968
C28 C -0.0101(4) 0.4545(5) -0.3865(3)
H30 H -0.0474 0.4879 -0.3548
H31 H -0.0256 0.3772 -0.3922
H32 H -0.0292 0.4887 -0.4373
loop_
_geom_bond_atom_site_label_1
_geom_bond_atom_site_label_2
_geom_bond_site_symmetry_1
_geom_bond_site_symmetry_2
Co1 Cl1 1_555 1_555
Cl2 Co1 1_555 1_555
N1 Co1 1_555 1_555
C1 N1 1_555 1_555
H1 C1 1_555 1_555
N2 C1 1_555 1_555
C2 H2 1_555 1_555
C3 C2 1_555 1_555
H3 C3 1_555 1_555
C4 C3 1_555 1_555
H4 C4 1_555 1_555
C5 C4 1_555 1_555
H5 C5 1_555 1_555
C6 N1 1_555 1_555
C7 N2 1_555 1_555
C8 N2 1_555 1_555
H6 C8 1_555 1_555
H7 C8 1_555 1_555
C9 C8 1_555 1_555
C10 C9 1_555 1_555
H8 C10 1_555 1_555
C11 C9 1_555 1_555
H9 C11 1_555 1_555
N3 C12 1_555 1_555
C12 H10 1_555 1_555
N4 C12 1_555 1_555
C13 H11 1_555 1_555
C14 C13 1_555 1_555
H12 C14 1_555 1_555
C15 C14 1_555 1_555
H13 C15 1_555 1_555
C16 C15 1_555 1_555
H14 C16 1_555 1_555
C17 N3 1_555 1_555
C18 N4 1_555 1_555
C19 N4 1_555 1_555
H15 C19 1_555 1_555
H16 C19 1_555 1_555
C20 C19 1_555 1_555
C21 C10 1_555 1_555
H17 C21 1_555 1_555
C22 C11 1_555 1_555
H18 C22 1_555 1_555
O1 C23 1_555 1_555
C23 H19 1_555 1_555
N5 C23 1_555 1_555
C24 N5 1_555 1_555
H20 C24 1_555 1_555
H21 C24 1_555 1_555
H22 C24 1_555 1_555
C25 N5 1_555 1_555
H23 C25 1_555 1_555
H24 C25 1_555 1_555
H25 C25 1_555 1_555
O2 C26 1_555 1_555
C26 H26 1_555 1_555
N6 C26 1_555 1_555
C27 N6 1_555 1_555
H27 C27 1_555 1_555
H28 C27 1_555 1_555
H29 C27 1_555 1_555
C28 N6 1_555 1_555
H30 C28 1_555 1_555
H31 C28 1_555 1_555
H32 C28 1_555 1_555
Co1A N3 1_555 1_555
N3A Co1 1_555 1_555
C2 C7 1_555 1_555
C5 C6 1_555 1_555
C6 C7 1_555 1_555
C13 C18 1_555 1_555
C16 C17 1_555 1_555
C17 C18 1_555 1_555
C20 C21 1_555 1_555
C20 C22 1_555 1_555

#END
