
#######################################################################
#
#                 Cambridge Crystallographic Data Centre
#                                CCDC 
#
#######################################################################
#
# If this CIF has been generated from an entry in the Cambridge 
# Structural Database, then it will include bibliographic, chemical, 
# crystal, experimental, refinement or atomic coordinate data resulting 
# from the CCDC's data processing and validation procedures.
#
#######################################################################

data_IYUCAH
_symmetry_cell_setting           monoclinic
_symmetry_space_group_name_H-M   'C 2/c'
_symmetry_Int_Tables_number      15
_space_group_name_Hall           '-C 2yn'
loop_
_symmetry_equiv_pos_site_id
_symmetry_equiv_pos_as_xyz
1 x,y,z
2 -x,y,1/2-z
3 1/2+x,1/2+y,z
4 1/2-x,1/2+y,1/2-z
5 -x,-y,-z
6 x,-y,1/2+z
7 1/2-x,1/2-y,-z
8 1/2+x,1/2-y,1/2+z
_cell_length_a                   15.322(2)
_cell_length_b                   13.5730(10)
_cell_length_c                   26.285(3)
_cell_angle_alpha                90
_cell_angle_beta                 90.370(10)
_cell_angle_gamma                90
_cell_volume                     5466.26
loop_
_atom_site_label
_atom_site_type_symbol
_atom_site_fract_x
_atom_site_fract_y
_atom_site_fract_z
O1 O -0.1387(4) 0.5174(5) 0.4640(2)
C23 C -0.0746(4) 0.5753(6) 0.4518(3)
H17 H -0.0747 0.6438 0.4593
N5 N -0.0107(3) 0.5325(3) 0.42857(14)
C24 C 0.0701(4) 0.5837(7) 0.4184(3)
H18 H 0.0616 0.6546 0.4231
H19 H 0.0880 0.5708 0.3833
H20 H 0.1155 0.5603 0.4419
C25 C -0.0099(7) 0.4329(7) 0.4145(4)
H21 H 0.0447 0.4025 0.4261
H22 H -0.0143 0.4276 0.3774
H23 H -0.0594 0.3990 0.4301
Zn1 Zn 0.15427(2) 1.13448(3) -0.136066(12)
Cl1 Cl 0.01715(6) 1.18342(7) -0.15345(4)
Cl2 Cl 0.25499(7) 1.24649(7) -0.11339(4)
N1 N 0.18707(18) 1.0577(2) -0.19822(9)
C1 C 0.1474(2) 1.0636(3) -0.24313(11)
H1 H 0.0972 1.1027 -0.2496
N2 N 0.18701(18) 1.0075(2) -0.27839(10)
C2 C 0.3178(3) 0.8938(3) -0.27346(15)
H2 H 0.3182 0.8726 -0.3079
C3 C 0.3777(3) 0.8599(3) -0.23819(18)
H3 H 0.4203 0.8134 -0.2487
C4 C 0.3779(3) 0.8915(4) -0.18755(18)
H4 H 0.4202 0.8655 -0.1647
C5 C 0.3186(3) 0.9590(3) -0.16996(15)
H5 H 0.3198 0.9815 -0.1357
C6 C 0.2562(2) 0.9930(3) -0.20483(12)
C7 C 0.2568(2) 0.9610(2) -0.25529(12)
C8 C 0.1647(2) 1.0045(3) -0.33244(11)
H6 H 0.1783 0.9383 -0.3460
H7 H 0.1012 1.0157 -0.3367
C9 C 0.2144(2) 1.0818(2) -0.36287(12)
C10 C 0.2144(2) 1.0751(2) -0.41603(11)
C11 C 0.2575(3) 1.1470(3) -0.44408(13)
H8 H 0.2590 1.1419 -0.4801
C12 C 0.2977(3) 1.2251(3) -0.42055(14)
H9 H 0.3259 1.2741 -0.4403
C13 C 0.2972(3) 1.2325(3) -0.36799(16)
H10 H 0.3246 1.2867 -0.3515
C14 C 0.2562(3) 1.1598(3) -0.33950(14)
H11 H 0.2569 1.1639 -0.3034
N3 N 0.15009(18) 1.0407(2) -0.07660(9)
C15 C 0.1831(2) 1.0604(3) -0.03128(12)
H12 H 0.2243 1.1113 -0.0250
N4 N 0.1521(2) 1.0004(2) 0.00515(9)
C16 C 0.0406(3) 0.8619(3) 0.00166(15)
H13 H 0.0395 0.8466 0.0369
C17 C -0.0103(3) 0.8118(3) -0.03326(18)
H14 H -0.0479 0.7611 -0.0216
C18 C -0.0081(3) 0.8333(3) -0.08520(17)
H15 H -0.0426 0.7951 -0.1080
C19 C 0.0430(2) 0.9087(3) -0.10454(14)
H16 H 0.0433 0.9240 -0.1398
C20 C 0.0939(2) 0.9612(2) -0.06960(12)
C21 C 0.0937(2) 0.9364(3) -0.01761(12)
C22 C 0.1680(3) 0.9889(3) -0.44001(12)
N4E N 0.1521(2) 0.9996(2) -0.49485(9)
C22E C 0.1680(3) 1.0111(3) 0.05999(12)
O2? O 0.0000 1.1048(4) 0.2500
C26? C 0.0377(3) 1.1851(4) 0.2377(3)
H24? H 0.0923 1.1835 0.2205
N6? N 0.0000(6) 1.2729(4) 0.2500(4)
C27? C -0.0861(6) 1.2695(5) 0.2741(5)
H25? H -0.1039 1.2026 0.2780
H26? H -0.0821 1.2999 0.3068
H27? H -0.1279 1.3039 0.2538
C28? C 0.0386(9) 1.3720(4) 0.2401(7)
H28? H 0.0939 1.3649 0.2240
H29? H 0.0004 1.4093 0.2187
H30? H 0.0462 1.4054 0.2717
loop_
_geom_bond_atom_site_label_1
_geom_bond_atom_site_label_2
_geom_bond_site_symmetry_1
_geom_bond_site_symmetry_2
Zn1 Cl1 1_555 1_555
Cl2 Zn1 1_555 1_555
N1 Zn1 1_555 1_555
C1 N1 1_555 1_555
H1 C1 1_555 1_555
N2 C1 1_555 1_555
C2 H2 1_555 1_555
C3 C2 1_555 1_555
H3 C3 1_555 1_555
C4 C3 1_555 1_555
H4 C4 1_555 1_555
C5 C4 1_555 1_555
H5 C5 1_555 1_555
C6 N1 1_555 1_555
C7 N2 1_555 1_555
C8 N2 1_555 1_555
H6 C8 1_555 1_555
H7 C8 1_555 1_555
C9 C8 1_555 1_555
C10 C9 1_555 1_555
C11 C10 1_555 1_555
H8 C11 1_555 1_555
C12 C11 1_555 1_555
H9 C12 1_555 1_555
C13 C12 1_555 1_555
H10 C13 1_555 1_555
C14 C9 1_555 1_555
H11 C14 1_555 1_555
N3 Zn1 1_555 1_555
C15 N3 1_555 1_555
H12 C15 1_555 1_555
N4 C15 1_555 1_555
C16 H13 1_555 1_555
C17 C16 1_555 1_555
H14 C17 1_555 1_555
C18 C17 1_555 1_555
H15 C18 1_555 1_555
C19 C18 1_555 1_555
H16 C19 1_555 1_555
C20 N3 1_555 1_555
C21 N4 1_555 1_555
C22 C10 1_555 1_555
O1 C23 1_555 1_555
C23 H17 1_555 1_555
N5 C23 1_555 1_555
C24 N5 1_555 1_555
H18 C24 1_555 1_555
H19 C24 1_555 1_555
H20 C24 1_555 1_555
C25 N5 1_555 1_555
H21 C25 1_555 1_555
H22 C25 1_555 1_555
H23 C25 1_555 1_555
N4E C22 1_555 1_555
C22E N4 1_555 1_555
C2 C7 1_555 1_555
C5 C6 1_555 1_555
C6 C7 1_555 1_555
C13 C14 1_555 1_555
C16 C21 1_555 1_555
C19 C20 1_555 1_555
C20 C21 1_555 1_555

#END
