
#######################################################################
#
#                 Cambridge Crystallographic Data Centre
#                                CCDC 
#
#######################################################################
#
# If this CIF has been generated from an entry in the Cambridge 
# Structural Database, then it will include bibliographic, chemical, 
# crystal, experimental, refinement or atomic coordinate data resulting 
# from the CCDC's data processing and validation procedures.
#
#######################################################################

data_IYUCUB
_symmetry_cell_setting           monoclinic
_symmetry_space_group_name_H-M   'P 21/c'
_symmetry_Int_Tables_number      14
_space_group_name_Hall           '-P 2ybc'
loop_
_symmetry_equiv_pos_site_id
_symmetry_equiv_pos_as_xyz
1 x,y,z
2 -x,1/2+y,1/2-z
3 -x,-y,-z
4 x,1/2-y,1/2+z
_cell_length_a                   10.019(2)
_cell_length_b                   10.264(2)
_cell_length_c                   13.495(5)
_cell_angle_alpha                90
_cell_angle_beta                 115.60(2)
_cell_angle_gamma                90
_cell_volume                     1251.53
loop_
_atom_site_label
_atom_site_type_symbol
_atom_site_fract_x
_atom_site_fract_y
_atom_site_fract_z
I1 I 0.407292(17) 0.571363(15) 0.331591(13)
I2 I 0.201893(17) 0.685163(15) 0.543191(12)
Cu1 Cu 0.14990(4) 0.57255(3) 0.35806(3)
Cu2 Cu 0.54247(4) 0.37307(3) 0.46154(3)
N1 N 0.0913(2) 0.38313(19) 0.34011(16)
C1 C 0.0127(3) 0.3165(2) 0.2494(2)
H1 H -0.0289 0.3564 0.1789
N2 N -0.0046(2) 0.18856(19) 0.26322(16)
C2 C 0.0710(2) 0.1713(2) 0.37215(19)
N3 N 0.0941(2) 0.0611(2) 0.43045(17)
C3 C 0.1748(3) 0.0739(2) 0.5380(2)
H2 H 0.1934 -0.0020 0.5822
C4 C 0.2348(3) 0.1927(2) 0.5910(2)
H3 H 0.2911 0.1959 0.6685
C5 C 0.2106(3) 0.3034(2) 0.5291(2)
H4 H 0.2489 0.3856 0.5612
N4 N 0.1290(2) 0.28923(18) 0.41962(16)
N5 N 0.4302(3) 0.2038(2) 0.4078(2)
C6 C 0.3945(3) 0.1007(3) 0.3755(2)
C7 C 0.3502(4) -0.0314(3) 0.3340(3)
H5 H 0.3335 -0.0828 0.3888
H6 H 0.4286 -0.0720 0.3196
H7 H 0.2587 -0.0280 0.2657
I1B I 0.592708(17) 0.428637(15) 0.668409(13)
I2B I 0.798107(17) 0.314837(15) 0.456809(12)
Cu1B Cu 0.85010(4) 0.42745(3) 0.64194(3)
Cu1A Cu -0.14990(4) 0.07255(3) 0.14194(3)
Cu1C Cu 1.14990(4) 0.92745(3) 0.85806(3)
Cu2B Cu 0.45753(4) 0.62693(3) 0.53846(3)
N1B N 0.9087(2) 0.61687(19) 0.65989(16)
C1B C 0.9873(3) 0.6835(2) 0.7506(2)
H1B H 1.0289 0.6436 0.8211
N2B N 1.0046(2) 0.81144(19) 0.73678(16)
N2A N 0.0046(2) 0.68856(19) 0.23678(16)
N2C N 0.9954(2) 0.31144(19) 0.76322(16)
C2B C 0.9290(2) 0.8287(2) 0.62785(19)
N3B N 0.9059(2) 0.9389(2) 0.56955(17)
C3B C 0.8252(3) 0.9261(2) 0.4620(2)
H2B H 0.8066 1.0020 0.4178
C4B C 0.7652(3) 0.8073(2) 0.4090(2)
H3B H 0.7089 0.8041 0.3315
C5B C 0.7894(3) 0.6966(2) 0.4709(2)
H4B H 0.7511 0.6144 0.4388
N4B N 0.8710(2) 0.71077(18) 0.58038(16)
N5B N 0.5698(3) 0.7962(2) 0.5922(2)
C6B C 0.6055(3) 0.8993(3) 0.6245(2)
C7B C 0.6498(4) 1.0314(3) 0.6660(3)
H5B H 0.6665 1.0828 0.6112
H6B H 0.5714 1.0720 0.6804
H7B H 0.7413 1.0280 0.7343
loop_
_geom_bond_atom_site_label_1
_geom_bond_atom_site_label_2
_geom_bond_site_symmetry_1
_geom_bond_site_symmetry_2
I1 Cu1 1_555 1_555
I2 Cu1 1_555 1_555
Cu1 N1 1_555 1_555
Cu2 I1 1_555 1_555
N1 C1 1_555 1_555
C1 H1 1_555 1_555
N2 C1 1_555 1_555
C2 N2 1_555 1_555
N3 C2 1_555 1_555
C3 N3 1_555 1_555
H2 C3 1_555 1_555
C4 C3 1_555 1_555
H3 C4 1_555 1_555
C5 C4 1_555 1_555
H4 C5 1_555 1_555
N4 N1 1_555 1_555
N5 Cu2 1_555 1_555
C6 N5 1_555 1_555
C7 C6 1_555 1_555
H5 C7 1_555 1_555
H6 C7 1_555 1_555
H7 C7 1_555 1_555
I1B Cu2 1_555 1_555
I2B Cu2 1_555 1_555
Cu1B I1B 1_555 1_555
Cu1A N2 1_555 1_555
Cu1C N2B 1_555 1_555
Cu2B I1 1_555 1_555
N1B Cu1B 1_555 1_555
C1B N1B 1_555 1_555
H1B C1B 1_555 1_555
N2B C1B 1_555 1_555
N2A Cu1 1_555 1_555
N2C Cu1B 1_555 1_555
C2B N2B 1_555 1_555
N3B C2B 1_555 1_555
C3B N3B 1_555 1_555
H2B C3B 1_555 1_555
C4B C3B 1_555 1_555
H3B C4B 1_555 1_555
C5B C4B 1_555 1_555
H4B C5B 1_555 1_555
N4B N1B 1_555 1_555
N5B Cu2B 1_555 1_555
C6B N5B 1_555 1_555
C7B C6B 1_555 1_555
H5B C7B 1_555 1_555
H6B C7B 1_555 1_555
H7B C7B 1_555 1_555
I2 Cu2B 1_555 1_555
C2 N4 1_555 1_555
C5 N4 1_555 1_555
I1B Cu2B 1_555 1_555
I2B Cu1B 1_555 1_555
C2B N4B 1_555 1_555
C5B N4B 1_555 1_555

#END
