
#######################################################################
#
#                 Cambridge Crystallographic Data Centre
#                                CCDC 
#
#######################################################################
#
# If this CIF has been generated from an entry in the Cambridge 
# Structural Database, then it will include bibliographic, chemical, 
# crystal, experimental, refinement or atomic coordinate data resulting 
# from the CCDC's data processing and validation procedures.
#
#######################################################################

data_IYUCOV
_symmetry_cell_setting           orthorhombic
_symmetry_space_group_name_H-M   'P m n 21'
_symmetry_Int_Tables_number      31
_space_group_name_Hall           'P 2ac -2'
loop_
_symmetry_equiv_pos_site_id
_symmetry_equiv_pos_as_xyz
1 x,y,z
2 1/2-x,-y,1/2+z
3 1/2+x,-y,1/2+z
4 -x,y,z
_cell_length_a                   14.4309(5)
_cell_length_b                   8.0575(3)
_cell_length_c                   7.9092(2)
_cell_angle_alpha                90
_cell_angle_beta                 90
_cell_angle_gamma                90
_cell_volume                     919.658
loop_
_atom_site_label
_atom_site_type_symbol
_atom_site_fract_x
_atom_site_fract_y
_atom_site_fract_z
Zn1 Zn 0.5000 0.28248(19) -0.4358(2)
I1 I 0.5000 0.60158(16) -0.42150(16)
I2 I 0.5000 0.12934(12) -0.14901(11)
C1 C 0.1928(6) 0.2632(10) -0.5768(11)
H1 H 0.1669 0.3417 -0.6607
H2 H 0.1630 0.1538 -0.5938
C2 C 0.2980(6) 0.2481(11) -0.6006(10)
C3 C 0.1831(7) 0.1911(12) -0.2759(11)
H3 H 0.2226 0.1011 -0.3212
H4 H 0.1212 0.1440 -0.2512
C4 C 0.2253(6) 0.2580(11) -0.1148(10)
C5 C 0.0850(5) 0.4217(11) -0.3912(12)
H5 H 0.0876 0.5181 -0.4686
H6 H 0.0771 0.4637 -0.2745
C6 C 0.0000 0.3075(17) -0.440(2)
H7 H 0.0000 0.2033 -0.3735
H8 H 0.0000 0.2805 -0.5619
N1 N 0.1741(4) 0.3239(8) -0.4035(10)
H9 H 0.220(5) 0.391(10) -0.401(16)
O1 O 0.5000 0.1457(12) -0.6530(16)
H10 H 0.4481 0.1537 -0.7002
O2 O 0.3465(4) 0.2741(8) -0.4734(7)
O3 O 0.3265(4) 0.2152(9) -0.7450(8)
O4 O 0.2503(5) 0.4002(8) -0.1006(8)
O5 O 0.2326(6) 0.1422(8) -0.0005(9)
H11 H 0.258(8) 0.182(14) 0.087(9)
Zn1_2 Zn -0.5000 0.28248(19) -0.4358(2)
C1C C -0.1928(6) 0.2632(10) -0.5768(11)
H1C H -0.1669 0.3417 -0.6607
H2C H -0.1630 0.1538 -0.5938
C2C C -0.2980(6) 0.2481(11) -0.6006(10)
C3C C -0.1831(7) 0.1911(12) -0.2759(11)
H3C H -0.2226 0.1011 -0.3212
H4C H -0.1212 0.1440 -0.2512
C4C C -0.2253(6) 0.2580(11) -0.1148(10)
C5C C -0.0850(5) 0.4217(11) -0.3912(12)
H5C H -0.0876 0.5181 -0.4686
H6C H -0.0771 0.4637 -0.2745
N1C N -0.1741(4) 0.3239(8) -0.4035(10)
H9C H -0.220(5) 0.391(10) -0.401(16)
H10C H 0.5519 0.1537 -0.7002
O2C O -0.3465(4) 0.2741(8) -0.4734(7)
O2C_2 O 0.6535(4) 0.2741(8) -0.4734(7)
O3C O -0.3265(4) 0.2152(9) -0.7450(8)
O4C O -0.2503(5) 0.4002(8) -0.1006(8)
O5C O -0.2326(6) 0.1422(8) -0.0005(9)
H11C H -0.258(8) 0.182(14) 0.087(9)
loop_
_geom_bond_atom_site_label_1
_geom_bond_atom_site_label_2
_geom_bond_site_symmetry_1
_geom_bond_site_symmetry_2
Zn1 I1 1_555 1_555
I2 Zn1 1_555 1_555
C1 H1 1_555 1_555
H2 C1 1_555 1_555
C2 C1 1_555 1_555
C3 H3 1_555 1_555
H4 C3 1_555 1_555
C4 C3 1_555 1_555
C5 H5 1_555 1_555
H6 C5 1_555 1_555
C6 C5 1_555 1_555
H7 C6 1_555 1_555
H8 C6 1_555 1_555
N1 C1 1_555 1_555
H9 N1 1_555 1_555
O1 Zn1 1_555 1_555
H10 O1 1_555 1_555
O2 Zn1 1_555 1_555
O3 C2 1_555 1_555
O4 C4 1_555 1_555
O5 C4 1_555 1_555
H11 O5 1_555 1_555
Zn1_2 O2C 1_555 1_555
C1C H1C 1_555 1_555
H2C C1C 1_555 1_555
C2C C1C 1_555 1_555
C3C H3C 1_555 1_555
H4C C3C 1_555 1_555
C4C C3C 1_555 1_555
C5C C6 1_555 1_555
H5C C5C 1_555 1_555
H6C C5C 1_555 1_555
N1C C1C 1_555 1_555
H9C N1C 1_555 1_555
H10C O1 1_555 1_555
O2C C2C 1_555 1_555
O2C_2 Zn1 1_555 1_555
O3C C2C 1_555 1_555
O4C C4C 1_555 1_555
O5C C4C 1_555 1_555
H11C O5C 1_555 1_555
C2 O2 1_555 1_555
C3 N1 1_555 1_555
C5 N1 1_555 1_555
C3C N1C 1_555 1_555
C5C N1C 1_555 1_555

#END
