
#######################################################################
#
#                 Cambridge Crystallographic Data Centre
#                                CCDC 
#
#######################################################################
#
# If this CIF has been generated from an entry in the Cambridge 
# Structural Database, then it will include bibliographic, chemical, 
# crystal, experimental, refinement or atomic coordinate data resulting 
# from the CCDC's data processing and validation procedures.
#
#######################################################################

data_IYUFIS
_symmetry_cell_setting           monoclinic
_symmetry_space_group_name_H-M   'P 21/n'
_symmetry_Int_Tables_number      14
_space_group_name_Hall           '-P 2yn'
loop_
_symmetry_equiv_pos_site_id
_symmetry_equiv_pos_as_xyz
1 x,y,z
2 1/2-x,1/2+y,1/2-z
3 -x,-y,-z
4 1/2+x,1/2-y,1/2+z
_cell_length_a                   15.1955(11)
_cell_length_b                   8.5636(6)
_cell_length_c                   16.7327(12)
_cell_angle_alpha                90
_cell_angle_beta                 113.2710(10)
_cell_angle_gamma                90
_cell_volume                     2000.26
loop_
_atom_site_label
_atom_site_type_symbol
_atom_site_fract_x
_atom_site_fract_y
_atom_site_fract_z
Ag1 Ag 0.137335(18) 0.17199(3) 0.214455(14)
S1 S -0.22488(5) -0.08114(9) 0.19143(4)
S2 S -0.26153(5) -0.12764(9) 0.29257(5)
N1 N -0.10155(15) -0.2014(2) 0.13904(12)
N2 N -0.09115(17) -0.2966(3) 0.27659(13)
C1 C -0.0589(2) 0.1605(3) 0.43384(15)
C2 C 0.02504(19) 0.2339(3) 0.42523(15)
C3 C -0.12755(17) -0.2096(3) 0.20590(15)
C4 C 0.0886(2) 0.3321(3) 0.48678(17)
H1 H 0.0811 0.3535 0.5382
C5 C -0.0234(2) -0.3954(3) 0.27662(17)
H2 H 0.0032 -0.4629 0.3236
C6 C -0.03026(18) -0.2991(3) 0.14258(15)
N3 N 0.11505(16) 0.2650(3) 0.33567(13)
C7 C 0.0093(2) -0.4028(3) 0.21095(16)
H3 H 0.0559 -0.4745 0.2124
N4 N -0.02947(18) -0.2174(3) -0.07732(14)
C8 C -0.0547(2) -0.2271(3) -0.00912(17)
H4 H -0.1146 -0.1895 -0.0158
C9 C 0.1187(2) -0.3385(4) 0.0101(2)
H5 H 0.1778 -0.3770 0.0148
C10 C 0.0431(2) 0.2031(3) 0.35133(16)
H6 H 0.0022 0.1347 0.3102
C11 C 0.00311(18) -0.2897(3) 0.07034(16)
C12 C 0.0573(2) -0.2729(4) -0.0658(2)
H7 H 0.0766 -0.2664 -0.1120
C13 C 0.0919(2) -0.3469(4) 0.0795(2)
H8 H 0.1329 -0.3903 0.1320
C14 C 0.1739(2) 0.3634(3) 0.39500(18)
H9 H 0.2236 0.4101 0.3846
C15 C 0.1629(2) 0.3978(4) 0.47130(19)
H10 H 0.2055 0.4651 0.5119
N5 N -0.11255(15) 0.0673(2) 0.36818(12)
C16 C -0.0844(3) 0.1839(3) 0.50436(18)
H11 H -0.0479 0.2469 0.5510
C17 C -0.1652(3) 0.1106(4) 0.5021(2)
H12 H -0.1832 0.1264 0.5486
N6 N -0.2196(2) 0.0185(3) 0.43815(16)
C18 C -0.1882(2) 0.0029(3) 0.37421(16)
O1 O 0.11823(17) -0.0870(3) 0.29072(15)
O2 O 0.23644(18) -0.0834(3) 0.25250(16)
N7 N 0.19308(18) -0.1477(3) 0.29199(15)
O3 O 0.22235(17) -0.2723(3) 0.33091(16)
Ag1B Ag -0.137335(18) -0.17199(3) -0.214455(14)
Ag1A Ag 0.362665(18) -0.32801(3) 0.285545(14)
N4B N 0.02947(18) 0.2174(3) 0.07732(14)
O3A O 0.27765(17) 0.2277(3) 0.16909(16)
loop_
_geom_bond_atom_site_label_1
_geom_bond_atom_site_label_2
_geom_bond_site_symmetry_1
_geom_bond_site_symmetry_2
Ag1 N3 1_555 1_555
S1 S2 1_555 1_555
S2 C18 1_555 1_555
N1 C3 1_555 1_555
N2 C3 1_555 1_555
C1 C2 1_555 1_555
C2 C4 1_555 1_555
C3 S1 1_555 1_555
C4 H1 1_555 1_555
C5 N2 1_555 1_555
H2 C5 1_555 1_555
C6 N1 1_555 1_555
N3 C10 1_555 1_555
C7 C5 1_555 1_555
H3 C7 1_555 1_555
N4 C8 1_555 1_555
C8 H4 1_555 1_555
C9 H5 1_555 1_555
C10 C2 1_555 1_555
H6 C10 1_555 1_555
C11 C6 1_555 1_555
C12 N4 1_555 1_555
H7 C12 1_555 1_555
C13 C9 1_555 1_555
H8 C13 1_555 1_555
C14 N3 1_555 1_555
H9 C14 1_555 1_555
C15 C4 1_555 1_555
H10 C15 1_555 1_555
N5 C1 1_555 1_555
C16 C1 1_555 1_555
H11 C16 1_555 1_555
C17 C16 1_555 1_555
H12 C17 1_555 1_555
N6 C17 1_555 1_555
C18 N5 1_555 1_555
O1 N7 1_555 1_555
O2 Ag1 1_555 1_555
N7 O2 1_555 1_555
O3 N7 1_555 1_555
Ag1B N4 1_555 1_555
Ag1A O3 1_555 1_555
N4B Ag1 1_555 1_555
O3A Ag1 1_555 1_555
C6 C7 1_555 1_555
C8 C11 1_555 1_555
C9 C12 1_555 1_555
C11 C13 1_555 1_555
C14 C15 1_555 1_555
N6 C18 1_555 1_555

#END
