
#######################################################################
#
#                 Cambridge Crystallographic Data Centre
#                                CCDC 
#
#######################################################################
#
# If this CIF has been generated from an entry in the Cambridge 
# Structural Database, then it will include bibliographic, chemical, 
# crystal, experimental, refinement or atomic coordinate data resulting 
# from the CCDC's data processing and validation procedures.
#
#######################################################################

data_IYUFOY
_symmetry_cell_setting           monoclinic
_symmetry_space_group_name_H-M   'P 21/c'
_symmetry_Int_Tables_number      14
_space_group_name_Hall           '-P 2ybc'
loop_
_symmetry_equiv_pos_site_id
_symmetry_equiv_pos_as_xyz
1 x,y,z
2 -x,1/2+y,1/2-z
3 -x,-y,-z
4 x,1/2-y,1/2+z
_cell_length_a                   14.204(8)
_cell_length_b                   15.139(9)
_cell_length_c                   9.541(5)
_cell_angle_alpha                90
_cell_angle_beta                 94.263(5)
_cell_angle_gamma                90
_cell_volume                     2045.97
loop_
_atom_site_label
_atom_site_type_symbol
_atom_site_fract_x
_atom_site_fract_y
_atom_site_fract_z
Ag1 Ag -0.21956(7) 0.85352(6) 0.57966(10)
S1 S -0.2157(2) 0.6838(2) 0.4767(3)
S2 S -0.1210(2) 0.6828(2) 0.3295(3)
N1 N -0.3418(6) 0.6570(6) 0.2513(10)
N2 N -0.3934(7) 0.6791(7) 0.4785(11)
N3 N -0.1637(6) 0.9974(6) 0.5409(10)
N4 N -0.1198(6) 0.8616(6) 0.3744(9)
N5 N -0.0305(7) 0.7981(7) 0.1971(10)
C1 C -0.4321(7) 0.6463(7) 0.1975(12)
C2 C -0.3288(8) 0.6723(7) 0.3867(13)
C3 C -0.0891(7) 0.7955(8) 0.2988(12)
C4 C -0.0024(9) 0.8794(10) 0.1676(13)
H1 H 0.0381 0.8863 0.0962
C5 C -0.0296(8) 0.9533(9) 0.2364(13)
H2 H -0.0083 1.0090 0.2125
C6 C -0.1944(9) 1.0637(10) 0.6188(15)
H3 H -0.2241 1.0499 0.6996
C7 C -0.0896(8) 0.9426(8) 0.3423(12)
C8 C -0.1217(8) 1.0173(7) 0.4259(12)
C9 C -0.1084(10) 1.1044(9) 0.3867(15)
H4 H -0.0772 1.1175 0.3070
C10 C -0.1839(10) 1.1499(10) 0.5850(17)
H5 H -0.2054 1.1942 0.6421
N6 N -0.3721(7) 0.6102(6) -0.0241(11)
C11 C -0.5030(9) 0.6527(9) 0.2854(14)
H6 H -0.5656 0.6458 0.2510
C12 C -0.4812(10) 0.6691(8) 0.4237(16)
H7 H -0.5301 0.6735 0.4829
C13 C -0.1417(12) 1.1704(10) 0.466(2)
H8 H -0.1355 1.2291 0.4394
C14 C -0.5376(9) 0.6162(9) -0.0177(15)
H9 H -0.5900 0.6256 0.0332
C15 C -0.4478(8) 0.6242(7) 0.0473(13)
C16 C -0.3846(10) 0.5882(9) -0.1590(14)
H10 H -0.3315 0.5790 -0.2085
C17 C -0.4704(12) 0.5786(10) -0.2278(15)
H11 H -0.4760 0.5615 -0.3217
C18 C -0.5491(12) 0.5944(11) -0.1574(17)
H12 H -0.6091 0.5904 -0.2032
Ag1C Ag -0.21956(7) 0.64648(6) 0.07966(10)
S2C S -0.1210(2) 0.8172(2) 0.8295(3)
N1C N -0.3418(6) 0.8430(6) 0.7513(10)
N6C N -0.3721(7) 0.8898(6) 0.4759(11)
Cl1 Cl -0.7348(3) 0.5846(3) 0.4778(4)
O1 O -0.7077(11) 0.6600(10) 0.549(2)
O2 O -0.8252(9) 0.5664(13) 0.4916(17)
O3 O -0.7185(11) 0.590(2) 0.3496(17)
O4 O -0.6711(11) 0.5244(9) 0.537(2)
loop_
_geom_bond_atom_site_label_1
_geom_bond_atom_site_label_2
_geom_bond_site_symmetry_1
_geom_bond_site_symmetry_2
Ag1 S1 1_555 1_555
S1 S2 1_555 1_555
S2 C3 1_555 1_555
N1 C1 1_555 1_555
N2 C2 1_555 1_555
N3 Ag1 1_555 1_555
N4 Ag1 1_555 1_555
N5 C3 1_555 1_555
C1 C11 1_555 1_555
C2 S1 1_555 1_555
C3 N4 1_555 1_555
C4 N5 1_555 1_555
H1 C4 1_555 1_555
C5 C4 1_555 1_555
H2 C5 1_555 1_555
C6 N3 1_555 1_555
H3 C6 1_555 1_555
C7 N4 1_555 1_555
C8 N3 1_555 1_555
C9 C8 1_555 1_555
H4 C9 1_555 1_555
C10 C6 1_555 1_555
H5 C10 1_555 1_555
Cl1 O1 1_555 1_555
O2 Cl1 1_555 1_555
O3 Cl1 1_555 1_555
O4 Cl1 1_555 1_555
N6 C15 1_555 1_555
C11 H6 1_555 1_555
C12 N2 1_555 1_555
H7 C12 1_555 1_555
C13 C9 1_555 1_555
H8 C13 1_555 1_555
C14 H9 1_555 1_555
C15 C1 1_555 1_555
C16 N6 1_555 1_555
H10 C16 1_555 1_555
C17 C16 1_555 1_555
H11 C17 1_555 1_555
C18 C14 1_555 1_555
H12 C18 1_555 1_555
Ag1C S2 1_555 1_555
S2C Ag1 1_555 1_555
N1C Ag1 1_555 1_555
N6C Ag1 1_555 1_555
N1 C2 1_555 1_555
N1 Ag1C 1_555 1_555
C5 C7 1_555 1_555
C7 C8 1_555 1_555
C10 C13 1_555 1_555
N6 Ag1C 1_555 1_555
C11 C12 1_555 1_555
C14 C15 1_555 1_555
C17 C18 1_555 1_555

#END
