
#######################################################################
#
#                 Cambridge Crystallographic Data Centre
#                                CCDC 
#
#######################################################################
#
# If this CIF has been generated from an entry in the Cambridge 
# Structural Database, then it will include bibliographic, chemical, 
# crystal, experimental, refinement or atomic coordinate data resulting 
# from the CCDC's data processing and validation procedures.
#
#######################################################################

data_IYUKUI
_symmetry_cell_setting           triclinic
_symmetry_space_group_name_H-M   'P -1'
_symmetry_Int_Tables_number      2
_space_group_name_Hall           '-P 1'
loop_
_symmetry_equiv_pos_site_id
_symmetry_equiv_pos_as_xyz
1 x,y,z
2 -x,-y,-z
_cell_length_a                   10.359(6)
_cell_length_b                   14.284(8)
_cell_length_c                   18.376(10)
_cell_angle_alpha                112.192(10)
_cell_angle_beta                 96.142(9)
_cell_angle_gamma                97.112(10)
_cell_volume                     2463.04
loop_
_atom_site_label
_atom_site_type_symbol
_atom_site_fract_x
_atom_site_fract_y
_atom_site_fract_z
C1 C 0.2792(7) 0.1381(6) 0.0862(5)
H1 H 0.2391 0.1565 0.1313
C2 C 0.1997(8) 0.0884(6) 0.0105(5)
H2 H 0.1084 0.0739 0.0055
C3 C 0.2590(9) 0.0622(6) -0.0550(5)
H3 H 0.2087 0.0295 -0.1057
C4 C 0.3946(8) 0.0844(6) -0.0455(4)
H4 H 0.4361 0.0665 -0.0901
C5 C 0.4693(7) 0.1331(5) 0.0297(4)
C6 C 0.6147(7) 0.1604(5) 0.0461(4)
C7 C 0.6931(8) 0.1412(6) -0.0109(5)
H5 H 0.6559 0.1084 -0.0645
C8 C 0.8272(9) 0.1705(7) 0.0112(5)
H6 H 0.8815 0.1600 -0.0273
C9 C 0.8811(8) 0.2160(7) 0.0916(5)
H7 H 0.9720 0.2353 0.1081
C10 C 0.7977(7) 0.2315(6) 0.1456(5)
H8 H 0.8333 0.2636 0.1995
C11 C 0.6214(7) 0.3138(5) 0.3604(4)
C12 C 0.4774(7) 0.3100(8) 0.3548(4)
C13 C 0.4159(11) 0.3426(14) 0.4206(6)
H9 H 0.4592 0.4131 0.4517
H10 H 0.4418 0.3036 0.4512
C14 C 0.2766(9) 0.3431(9) 0.4233(5)
H11 H 0.2480 0.3855 0.3963
H12 H 0.2294 0.2735 0.3925
C15 C 0.2355(9) 0.3781(9) 0.4998(5)
H13 H 0.2802 0.4482 0.5309
H14 H 0.2631 0.3361 0.5275
C16 C 0.0371(8) 0.4178(7) 0.5572(5)
C17 C 0.2520(9) -0.3463(7) 0.1170(5)
H15 H 0.2187 -0.3265 0.1646
C18 C 0.1659(10) -0.3940(8) 0.0468(6)
H16 H 0.0755 -0.4068 0.0464
C19 C 0.2158(12) -0.4230(8) -0.0243(6)
H17 H 0.1591 -0.4552 -0.0729
C20 C 0.3494(11) -0.4035(7) -0.0219(6)
H18 H 0.3849 -0.4223 -0.0687
C21 C 0.4303(8) -0.3554(6) 0.0514(5)
C22 C 0.5766(9) -0.3295(6) 0.0596(4)
C23 C 0.6470(9) -0.3527(7) -0.0027(5)
H19 H 0.6040 -0.3880 -0.0551
C24 C 0.7818(10) -0.3226(8) 0.0142(6)
H20 H 0.8317 -0.3418 -0.0265
C25 C 0.8428(10) -0.2641(8) 0.0914(6)
H21 H 0.9333 -0.2400 0.1031
C26 C 0.7675(8) -0.2418(7) 0.1510(5)
H22 H 0.8087 -0.2033 0.2034
C27 C 0.6376(7) -0.1954(6) 0.3740(4)
C28 C 0.4937(8) -0.2095(9) 0.3806(5)
C29 C 0.4462(12) -0.1793(19) 0.4421(7)
H23 H 0.4698 -0.1051 0.4619
H24 H 0.5016 -0.1987 0.4782
C30 C 0.3123(10) -0.1955(10) 0.4632(7)
H25 H 0.2525 -0.2481 0.4181
H26 H 0.3168 -0.2169 0.5075
C31 C 0.2681(13) -0.1005(16) 0.4845(11)
H27 H 0.2864 -0.0721 0.4456
H28 H 0.3182 -0.0533 0.5358
C32 C 0.0601(17) -0.1029(10) 0.5365(10)
Cl1 Cl 0.5207(2) 0.00096(15) 0.25845(12)
Cl2 Cl 0.5940(2) 0.49695(15) 0.23064(11)
Cu1 Cu 0.53408(8) 0.22617(6) 0.19874(5)
Cu2 Cu 0.52195(9) -0.26333(7) 0.21796(5)
N1 N 0.4089(6) 0.1594(4) 0.0948(3)
N2 N 0.6661(6) 0.2027(4) 0.1247(3)
N3 N 0.4068(6) 0.2628(5) 0.2750(3)
H29 H 0.3590 0.3064 0.2649
H30 H 0.3510 0.2058 0.2689
N4 N 0.0941(7) 0.3745(6) 0.4961(4)
H31 H 0.0445 0.3415 0.4504
N5 N -0.0895(7) 0.4135(6) 0.5488(4)
H32 H -0.1373 0.3818 0.5024
H33 H -0.1258 0.4424 0.5897
N6 N 0.1080(7) 0.4710(8) 0.6298(4)
H34 H 0.0693 0.5011 0.6693
H35 H 0.1922 0.4751 0.6371
N7 N 0.3831(7) -0.3268(5) 0.1198(4)
N8 N 0.6369(6) -0.2737(5) 0.1361(4)
N9 N 0.4120(6) -0.2634(5) 0.3011(3)
H36 H 0.3433 -0.2317 0.2972
H37 H 0.3801 -0.3284 0.2937
N10 N 0.1258 -0.1072 0.4895
H38 H 0.0798 -0.1170 0.4446
N11 N 0.1565(13) -0.0738(14) 0.5920(18)
H39 H 0.2355 -0.0657 0.5822
H40 H 0.1436 -0.0620 0.6399
N12 N -0.0562(8) -0.1071(7) 0.5591(5)
H41 H -0.1267 -0.1190 0.5254
H42 H -0.0616 -0.0981 0.6076
O1 O 0.6653(5) 0.2787(4) 0.2934(3)
O2 O 0.6917(6) 0.3481(5) 0.4243(3)
O4 O 0.6674(5) -0.2109(4) 0.3059(3)
O6 O 0.7190(5) -0.1689(5) 0.4350(3)
O8 O 0.4495(9) -0.0998(5) 0.2285(5)
O10 O 0.5109(11) 0.0544(8) 0.3364(4)
O11 O 0.4766(8) 0.0508(5) 0.2103(4)
O12 O 0.6553(8) -0.0055(9) 0.2530(8)
O13 O 0.5234(8) 0.3956(5) 0.1936(4)
O14 O 0.5348(9) 0.5533(5) 0.1919(4)
O15 O 0.5895(7) 0.5369(6) 0.3120(4)
O16 O 0.7266(7) 0.4967(9) 0.2195(5)
O14_2 O 0.5348(9) -0.4467(5) 0.1919(4)
Cu2_2 Cu 0.52195(9) 0.73667(7) 0.21796(5)
Cl3 Cl 0.1575(2) 0.45177(18) 0.23056(14)
O17 O 0.147(3) 0.4843(14) 0.1737(10)
O18 O 0.2353(12) 0.5246(10) 0.2973(7)
O19 O 0.0396(11) 0.4328(11) 0.2489(8)
O20 O 0.2068(11) 0.3607(8) 0.1992(7)
Cl4 Cl 0.0733(2) 0.0331(2) 0.21793(14)
O21 O 0.0905(17) -0.0283(13) 0.1521(9)
O22 O -0.0341(12) 0.0075(12) 0.2446(6)
O23 O 0.039(3) 0.109(3) 0.202(2)
O24 O 0.1729(11) 0.0889(14) 0.2720(8)
O3 O 0.9251(9) 0.2589(9) 0.3472(5)
H43 H 0.8721 0.2620 0.3804
H49 H 0.9547 0.2161 0.3071
O5 O 1.1666(11) 0.8247(9) 0.2842(8)
H44 H 1.2131 0.8292 0.3271
H50 H 1.0930 0.8048 0.3009
O7 O -0.0591(14) 0.762(3) 0.3301(12)
H45 H -0.1383 0.7814 0.3322
H46 H -0.0401 0.7538 0.3721
O9 O 0.971(3) 0.651(3) 0.2334(19)
H47 H 0.9579 0.5925 0.2397
H48 H 1.0221 0.7002 0.2526
loop_
_geom_bond_atom_site_label_1
_geom_bond_atom_site_label_2
_geom_bond_site_symmetry_1
_geom_bond_site_symmetry_2
C1 H1 1_555 1_555
C2 C1 1_555 1_555
H2 C2 1_555 1_555
C3 C2 1_555 1_555
H3 C3 1_555 1_555
C4 C3 1_555 1_555
H4 C4 1_555 1_555
C5 C4 1_555 1_555
C6 C5 1_555 1_555
C7 C6 1_555 1_555
H5 C7 1_555 1_555
C8 C7 1_555 1_555
H6 C8 1_555 1_555
C9 C8 1_555 1_555
H7 C9 1_555 1_555
C10 C9 1_555 1_555
H8 C10 1_555 1_555
C11 C12 1_555 1_555
C12 C13 1_555 1_555
C13 H9 1_555 1_555
H10 C13 1_555 1_555
C14 C13 1_555 1_555
H11 C14 1_555 1_555
H12 C14 1_555 1_555
C15 C14 1_555 1_555
H13 C15 1_555 1_555
H14 C15 1_555 1_555
C16 N4 1_555 1_555
C17 H15 1_555 1_555
C18 C17 1_555 1_555
H16 C18 1_555 1_555
C19 C18 1_555 1_555
H17 C19 1_555 1_555
C20 C19 1_555 1_555
H18 C20 1_555 1_555
C21 C20 1_555 1_555
C22 C21 1_555 1_555
C23 C22 1_555 1_555
H19 C23 1_555 1_555
C24 C23 1_555 1_555
H20 C24 1_555 1_555
C25 C24 1_555 1_555
H21 C25 1_555 1_555
C26 C25 1_555 1_555
H22 C26 1_555 1_555
C27 C28 1_555 1_555
C28 C29 1_555 1_555
C29 H23 1_555 1_555
H24 C29 1_555 1_555
C30 C29 1_555 1_555
H25 C30 1_555 1_555
H26 C30 1_555 1_555
C31 C30 1_555 1_555
H27 C31 1_555 1_555
H28 C31 1_555 1_555
C32 N10 1_555 1_555
Cl1 O8 1_555 1_555
Cl2 O13 1_555 1_555
Cl3 O17 1_555 1_555
Cl4 O21 1_555 1_555
Cu1 N1 1_555 1_555
Cu2 N7 1_555 1_555
N1 C1 1_555 1_555
N2 C6 1_555 1_555
N3 C12 1_555 1_555
H29 N3 1_555 1_555
H30 N3 1_555 1_555
N4 C15 1_555 1_555
H31 N4 1_555 1_555
N5 C16 1_555 1_555
H32 N5 1_555 1_555
H33 N5 1_555 1_555
N6 C16 1_555 1_555
H34 N6 1_555 1_555
H35 N6 1_555 1_555
N7 C17 1_555 1_555
N8 C22 1_555 1_555
N9 C28 1_555 1_555
H36 N9 1_555 1_555
H37 N9 1_555 1_555
N10 C31 1_555 1_555
H38 N10 1_555 1_555
N11 C32 1_555 1_555
H39 N11 1_555 1_555
H40 N11 1_555 1_555
N12 C32 1_555 1_555
H41 N12 1_555 1_555
H42 N12 1_555 1_555
O1 C11 1_555 1_555
O2 C11 1_555 1_555
O3 H43 1_555 1_555
O4 C27 1_555 1_555
O5 H44 1_555 1_555
O6 C27 1_555 1_555
O7 H45 1_555 1_555
O8 Cu2 1_555 1_555
O9 H47 1_555 1_555
O10 Cl1 1_555 1_555
O11 Cl1 1_555 1_555
O12 Cl1 1_555 1_555
O13 Cu1 1_555 1_555
O14 Cl2 1_555 1_555
O15 Cl2 1_555 1_555
O16 Cl2 1_555 1_555
O18 Cl3 1_555 1_555
O19 Cl3 1_555 1_555
O20 Cl3 1_555 1_555
O22 Cl4 1_555 1_555
O23 Cl4 1_555 1_555
O24 Cl4 1_555 1_555
H46 O7 1_555 1_555
H48 O9 1_555 1_555
H49 O3 1_555 1_555
H50 O5 1_555 1_555
O14_2 Cu2 1_555 1_555
Cu2_2 O14 1_555 1_555
C5 N1 1_555 1_555
C10 N2 1_555 1_555
C21 N7 1_555 1_555
C26 N8 1_555 1_555
Cu1 N3 1_555 1_555
Cu1 O11 1_555 1_555
Cu1 N2 1_555 1_555
Cu1 O1 1_555 1_555
Cu2 N9 1_555 1_555
Cu2 N8 1_555 1_555
Cu2 O4 1_555 1_555

#END
