
#######################################################################
#
#                 Cambridge Crystallographic Data Centre
#                                CCDC 
#
#######################################################################
#
# If this CIF has been generated from an entry in the Cambridge 
# Structural Database, then it will include bibliographic, chemical, 
# crystal, experimental, refinement or atomic coordinate data resulting 
# from the CCDC's data processing and validation procedures.
#
#######################################################################

data_IYUMEU
_symmetry_cell_setting           triclinic
_symmetry_space_group_name_H-M   'P -1'
_symmetry_Int_Tables_number      2
_space_group_name_Hall           '-P 1'
loop_
_symmetry_equiv_pos_site_id
_symmetry_equiv_pos_as_xyz
1 x,y,z
2 -x,-y,-z
_cell_length_a                   7.6893(5)
_cell_length_b                   11.0169(7)
_cell_length_c                   11.2369(7)
_cell_angle_alpha                66.2610(10)
_cell_angle_beta                 74.4160(10)
_cell_angle_gamma                74.6740(10)
_cell_volume                     826.06
loop_
_atom_site_label
_atom_site_type_symbol
_atom_site_fract_x
_atom_site_fract_y
_atom_site_fract_z
Co1 Co 0.0000 0.0000 0.0000
C1 C 0.1840(3) -0.2083(2) 0.2367(2)
H1 H 0.2920 -0.1858 0.1739
C2 C 0.2032(3) -0.3065(2) 0.3614(2)
C3 C 0.0454(4) -0.3362(2) 0.4527(2)
H2 H 0.0530 -0.4018 0.5386
C4 C -0.1223(4) -0.2707(2) 0.4189(2)
H3 H -0.2322 -0.2896 0.4808
C5 C -0.1283(4) -0.1761(2) 0.2925(2)
H4 H -0.2450 -0.1316 0.2694
C6 C 0.3865(4) -0.3748(2) 0.3882(2)
H5 H 0.4913 -0.3455 0.3251
C7 C -0.0768(3) 0.2468(2) 0.1045(2)
C8 C 0.0092(3) 0.3355(2) 0.1341(2)
C9 C -0.0769(4) 0.4377(2) 0.1836(2)
H6 H -0.2067 0.4570 0.2071
C10 C 0.0334(4) 0.5106(2) 0.1975(2)
H7 H -0.0219 0.5820 0.2299
C11 C 0.2237(4) 0.4811(2) 0.1650(3)
H8 H 0.2958 0.5325 0.1760
C12 C 0.3101(4) 0.3786(2) 0.1169(2)
H9 H 0.4399 0.3571 0.0955
C13 C 0.1969(3) 0.3093(2) 0.1018(2)
N1 N 0.0216(3) -0.14444(17) 0.20147(18)
N2 N 0.4068(3) -0.4737(2) 0.4961(2)
N3 N 0.0463(3) 0.15986(17) 0.05258(18)
O1 O -0.2721(2) 0.06054(16) 0.06276(17)
H10 H -0.289(4) 0.123(2) 0.091(3)
H11 H -0.377(3) 0.044(2) 0.072(2)
O2 O -0.2459(2) 0.25416(16) 0.12707(18)
O3 O 0.3564(2) 0.05925(15) 0.11820(17)
O4 O 0.3409(2) 0.22794(16) -0.10039(16)
S1 S 0.25425(8) 0.17993(5) 0.03613(6)
N2A N 0.5932(3) -0.5263(2) 0.5039(2)
C6A C 0.6135(4) -0.6252(2) 0.6118(2)
C2A C 0.7968(3) -0.6935(2) 0.6386(2)
C1A C 0.8160(3) -0.7917(2) 0.7633(2)
H1A H 0.7080 -0.8142 0.8261
N1A N 0.9784(3) -0.85556(17) 0.79853(18)
C5A C 1.1283(4) -0.8239(2) 0.7075(2)
C4A C 1.1223(4) -0.7293(2) 0.5811(2)
C3A C 0.9546(4) -0.6638(2) 0.5473(2)
H2A H 0.9470 -0.5982 0.4614
H3A H 1.2322 -0.7104 0.5192
H4A H 1.2450 -0.8684 0.7306
H5A H 0.5087 -0.6545 0.6749
C7A C 0.0768(3) -0.2468(2) -0.1045(2)
C8A C -0.0092(3) -0.3355(2) -0.1341(2)
C9A C 0.0769(4) -0.4377(2) -0.1836(2)
H6A H 0.2067 -0.4570 -0.2071
C10A C -0.0334(4) -0.5106(2) -0.1975(2)
H7A H 0.0219 -0.5820 -0.2299
C11A C -0.2237(4) -0.4811(2) -0.1650(3)
H8A H -0.2958 -0.5325 -0.1760
C12A C -0.3101(4) -0.3786(2) -0.1169(2)
H9A H -0.4399 -0.3571 -0.0955
C13A C -0.1969(3) -0.3093(2) -0.1018(2)
N3A N -0.0463(3) -0.15986(17) -0.05258(18)
O2A O 0.2459(2) -0.25416(16) -0.12707(18)
O3A O -0.3564(2) -0.05925(15) -0.11820(17)
O4A O -0.3409(2) -0.22794(16) 0.10039(16)
S1A S -0.25425(8) -0.17993(5) -0.03613(6)
O1A O 0.2721(2) -0.06054(16) -0.06276(17)
H10A H 0.289(4) -0.123(2) -0.091(3)
H11A H 0.377(3) -0.044(2) -0.072(2)
N1A_2 N -0.0216(3) 0.14444(17) -0.20147(18)
Co1_2 Co 1.0000 -1.0000 1.0000
loop_
_geom_bond_atom_site_label_1
_geom_bond_atom_site_label_2
_geom_bond_site_symmetry_1
_geom_bond_site_symmetry_2
Co1 N1 1_555 1_555
C1 H1 1_555 1_555
C2 C1 1_555 1_555
C3 C2 1_555 1_555
H2 C3 1_555 1_555
C4 C3 1_555 1_555
H3 C4 1_555 1_555
C5 C4 1_555 1_555
H4 C5 1_555 1_555
C6 C2 1_555 1_555
H5 C6 1_555 1_555
C7 C8 1_555 1_555
C8 C9 1_555 1_555
C9 H6 1_555 1_555
C10 C9 1_555 1_555
H7 C10 1_555 1_555
C11 C10 1_555 1_555
H8 C11 1_555 1_555
C12 C11 1_555 1_555
H9 C12 1_555 1_555
C13 C8 1_555 1_555
N1 C1 1_555 1_555
N2 C6 1_555 1_555
N3 Co1 1_555 1_555
O1 Co1 1_555 1_555
H10 O1 1_555 1_555
H11 O1 1_555 1_555
O2 C7 1_555 1_555
O3 S1 1_555 1_555
O4 S1 1_555 1_555
S1 C13 1_555 1_555
N2A N2 1_555 1_555
C6A N2A 1_555 1_555
C2A C6A 1_555 1_555
C1A C2A 1_555 1_555
H1A C1A 1_555 1_555
N1A C1A 1_555 1_555
C5A N1A 1_555 1_555
C4A C5A 1_555 1_555
C3A C2A 1_555 1_555
H2A C3A 1_555 1_555
H3A C4A 1_555 1_555
H4A C5A 1_555 1_555
H5A C6A 1_555 1_555
C7A C8A 1_555 1_555
C8A C9A 1_555 1_555
C9A H6A 1_555 1_555
C10A C9A 1_555 1_555
H7A C10A 1_555 1_555
C11A C10A 1_555 1_555
H8A C11A 1_555 1_555
C12A C11A 1_555 1_555
H9A C12A 1_555 1_555
C13A C8A 1_555 1_555
N3A Co1 1_555 1_555
O2A C7A 1_555 1_555
O3A S1A 1_555 1_555
O4A S1A 1_555 1_555
S1A C13A 1_555 1_555
O1A Co1 1_555 1_555
H10A O1A 1_555 1_555
H11A O1A 1_555 1_555
N1A_2 Co1 1_555 1_555
Co1_2 N1A 1_555 1_555
C5 N1 1_555 1_555
C7 N3 1_555 1_555
C12 C13 1_555 1_555
N3 S1 1_555 1_555
C4A C3A 1_555 1_555
C7A N3A 1_555 1_555
C12A C13A 1_555 1_555
N3A S1A 1_555 1_555

#END
