
#######################################################################
#
#                 Cambridge Crystallographic Data Centre
#                                CCDC 
#
#######################################################################
#
# If this CIF has been generated from an entry in the Cambridge 
# Structural Database, then it will include bibliographic, chemical, 
# crystal, experimental, refinement or atomic coordinate data resulting 
# from the CCDC's data processing and validation procedures.
#
#######################################################################

data_IYUQAV
_symmetry_cell_setting           monoclinic
_symmetry_space_group_name_H-M   'C 2/c'
_symmetry_Int_Tables_number      15
_space_group_name_Hall           '-C 2yn'
loop_
_symmetry_equiv_pos_site_id
_symmetry_equiv_pos_as_xyz
1 x,y,z
2 -x,y,1/2-z
3 1/2+x,1/2+y,z
4 1/2-x,1/2+y,1/2-z
5 -x,-y,-z
6 x,-y,1/2+z
7 1/2-x,1/2-y,-z
8 1/2+x,1/2-y,1/2+z
_cell_length_a                   9.4453(5)
_cell_length_b                   10.2788(5)
_cell_length_c                   9.6495(5)
_cell_angle_alpha                90
_cell_angle_beta                 101.913(3)
_cell_angle_gamma                90
_cell_volume                     916.657
loop_
_atom_site_label
_atom_site_type_symbol
_atom_site_fract_x
_atom_site_fract_y
_atom_site_fract_z
Na1 Na 0.0000 0.5000 0.0000
C1 C 0.0000 0.74492(12) -0.2500
N1 N 0.0000 0.63314(12) -0.2500
C2 C -0.18896(9) 0.92721(8) -0.10116(9)
N2 N -0.27549(9) 0.90466(8) -0.03680(9)
C3 C -0.10218(9) 1.20884(8) -0.15034(9)
N3 N -0.13419(9) 1.30531(9) -0.10418(9)
C4 C 0.0000 0.88322(11) -0.2500
C5 C -0.08439(9) 0.96445(8) -0.18058(9)
C6 C -0.05142(9) 1.09429(8) -0.20667(9)
Na1A Na 0.0000 0.5000 -0.5000
Na1B Na -0.5000 1.0000 0.0000
Na1_2 Na 0.0000 1.5000 0.0000
Na1A_2 Na 0.0000 1.5000 -0.5000
Na1C Na 0.5000 1.0000 -0.5000
N1D N 0.0000 0.36686(12) 0.2500
C2A C 0.18896(9) 0.92721(8) -0.39884(9)
N2A N 0.27549(9) 0.90466(8) -0.46320(9)
N2B N 0.22451(9) 0.40466(8) -0.03680(9)
N2F N -0.22451(9) 0.59534(8) 0.03680(9)
C3A C 0.10218(9) 1.20884(8) -0.34966(9)
N3A N 0.13419(9) 1.30531(9) -0.39582(9)
N3_2 N -0.13419(9) 0.30531(9) -0.10418(9)
N3D N 0.13419(9) 0.69469(9) 0.10418(9)
C5A C 0.08439(9) 0.96445(8) -0.31942(9)
C6A C 0.05142(9) 1.09429(8) -0.29333(9)
loop_
_geom_bond_atom_site_label_1
_geom_bond_atom_site_label_2
_geom_bond_site_symmetry_1
_geom_bond_site_symmetry_2
Na1 N1 1_555 1_555
C1 N1 1_555 1_555
N1 Na1A 1_555 1_555
C2 N2 1_555 1_555
N2 Na1B 1_555 1_555
C3 N3 1_555 1_555
N3 Na1_2 1_555 1_555
C4 C1 1_555 1_555
C5 C2 1_555 1_555
C6 C3 1_555 1_555
Na1A_2 N3A 1_555 1_555
Na1C N2A 1_555 1_555
N1D Na1 1_555 1_555
C2A N2A 1_555 1_555
N2B Na1 1_555 1_555
N2F Na1 1_555 1_555
C3A N3A 1_555 1_555
N3_2 Na1 1_555 1_555
N3D Na1 1_555 1_555
C5A C4 1_555 1_555
C6A C6 1_555 1_555
C4 C5 1_555 1_555
C5 C6 1_555 1_555
C2A C5A 1_555 1_555
C3A C6A 1_555 1_555
C5A C6A 1_555 1_555

#END
