
#######################################################################
#
#                 Cambridge Crystallographic Data Centre
#                                CCDC 
#
#######################################################################
#
# If this CIF has been generated from an entry in the Cambridge 
# Structural Database, then it will include bibliographic, chemical, 
# crystal, experimental, refinement or atomic coordinate data resulting 
# from the CCDC's data processing and validation procedures.
#
#######################################################################

data_IYUWUV
_symmetry_cell_setting           rhombohedral
_symmetry_space_group_name_H-M   'R 3'
_symmetry_Int_Tables_number      146
_space_group_name_Hall           'R 3'
loop_
_symmetry_equiv_pos_site_id
_symmetry_equiv_pos_as_xyz
1 x,y,z
2 -y,x-y,z
3 -x+y,-x,z
4 2/3+x,1/3+y,1/3+z
5 2/3-y,1/3+x-y,1/3+z
6 2/3-x+y,1/3-x,1/3+z
7 1/3+x,2/3+y,2/3+z
8 1/3-y,2/3+x-y,2/3+z
9 1/3-x+y,2/3-x,2/3+z
_cell_length_a                   29.7243(3)
_cell_length_b                   29.7243(3)
_cell_length_c                   72.861(2)
_cell_angle_alpha                90
_cell_angle_beta                 90
_cell_angle_gamma                120
_cell_volume                     55750.5
loop_
_atom_site_label
_atom_site_type_symbol
_atom_site_fract_x
_atom_site_fract_y
_atom_site_fract_z
C1 C 0.4847(10) 0.7439(6) 0.1493(4)
C2 C 0.5371(11) 0.7714(11) 0.1540(4)
C3 C 0.5746(9) 0.7928(12) 0.1403(4)
C4 C 0.5597(11) 0.7868(11) 0.1219(4)
C5 C 0.5074(11) 0.7593(13) 0.1173(4)
C6 C 0.4699(9) 0.7379(10) 0.1310(4)
C7 C 0.4415(8) 0.7190(6) 0.1640(2)
C8 C 0.8415(9) 0.9212(7) 0.0623(4)
C9 C 0.8362(10) 0.9185(12) 0.0813(4)
C10 C 0.7871(11) 0.8932(14) 0.0892(4)
C11 C 0.7432(10) 0.8706(12) 0.0781(4)
C12 C 0.7485(10) 0.8734(13) 0.0591(4)
C13 C 0.7976(11) 0.8987(12) 0.0512(4)
C14 C 0.4913(19) 0.754(2) 0.0967(5)
C15 C 0.5773(12) 0.3990(12) 0.3170(2)
C16 C 0.5998(11) 0.4454(11) 0.3072(4)
C17 C 0.5699(13) 0.4556(11) 0.2951(4)
C18 C 0.5176(13) 0.4194(12) 0.2927(4)
C19 C 0.4951(11) 0.3731(12) 0.3025(4)
C20 C 0.5250(12) 0.3628(11) 0.3146(3)
C21 C 0.8957(8) 0.9491(6) 0.0529(3)
C22 C 0.4009(11) 0.5751(11) 0.2296(2)
C23 C 0.4482(11) 0.5970(10) 0.2387(3)
C24 C 0.4616(11) 0.5656(12) 0.2488(4)
C25 C 0.4276(12) 0.5123(11) 0.2497(4)
C26 C 0.3802(12) 0.4904(10) 0.2405(4)
C27 C 0.3669(10) 0.5218(12) 0.2305(3)
C28 C 0.5136(17) 0.803(2) 0.0886(9)
C29 C 0.510(4) 0.725(4) 0.0874(8)
C30 C 0.4372(19) 0.728(3) 0.0952(10)
C31 C 0.6252(10) 0.8194(19) 0.1469(5)
C32 C 0.6983(14) 0.848(2) 0.0472(6)
C33 C 0.709(3) 0.857(4) 0.0284(6)
C34 C 0.671(3) 0.794(2) 0.0507(13)
C35 C 0.667(2) 0.869(3) 0.0518(6)
C36 C 0.7880(12) 0.894(2) 0.1085(4)
C37 C 0.7075(14) 0.8945(18) 0.1454(4)
C38 C 0.716(2) 0.907(3) 0.1666(5)
C39 C 0.758(3) 0.958(3) 0.1719(8)
C40 C 0.799(3) 0.986(2) 0.1585(9)
C41 C 0.8087(15) 0.957(3) 0.1430(9)
C42 C 0.7528(12) 0.9104(13) 0.1356(4)
C43 C 0.6087(7) 0.3861(6) 0.3305(2)
C44 C 0.4364(13) 0.3330(16) 0.3001(6)
C45 C 0.424(3) 0.288(2) 0.3103(10)
C46 C 0.427(3) 0.3220(13) 0.2814(7)
C47 C 0.409(2) 0.356(3) 0.3072(13)
C48 C 0.5966(13) 0.5043(14) 0.2862(7)
C49 C 0.3857(6) 0.6086(7) 0.2185(2)
C50 C 0.3427(17) 0.4311(12) 0.2419(6)
C51 C 0.299(2) 0.419(3) 0.2313(9)
C52 C 0.3303(13) 0.422(3) 0.2607(7)
C53 C 0.368(3) 0.406(2) 0.2352(14)
C54 C 0.5102(13) 0.5953(12) 0.2567(5)
C55 C 0.6006(11) 0.5858(11) 0.2850(6)
C56 C 0.639(3) 0.613(2) 0.3019(11)
C57 C 0.660(3) 0.6690(19) 0.3044(11)
C58 C 0.632(4) 0.6926(17) 0.2964(12)
C59 C 0.597(3) 0.6696(10) 0.2798(11)
C60 C 0.5677(15) 0.6056(9) 0.2816(6)
N1 N 0.6720(14) 0.9087(9) 0.1071(3)
C61 C 0.6276(15) 0.9104(13) 0.1119(7)
C62 C 0.627(2) 0.9563(17) 0.1099(8)
C63 C 0.670(2) 1.0006(12) 0.1033(6)
C64 C 0.7143(19) 0.9989(11) 0.0985(7)
C65 C 0.7154(15) 0.9529(13) 0.1005(6)
N2 N 0.6718(11) 0.8458(13) 0.1383(3)
N3 N 0.6758(12) 0.7843(10) 0.1155(4)
C66 C 0.7065(18) 0.7850(15) 0.1300(6)
C67 C 0.709(2) 0.741(2) 0.1343(7)
C68 C 0.680(3) 0.6954(15) 0.1241(8)
C69 C 0.649(3) 0.6947(13) 0.1096(9)
C70 C 0.647(2) 0.7392(14) 0.1053(7)
N4 N 0.7469(9) 0.8785(15) 0.1199(4)
N5 N 0.5194(10) 0.4783(14) 0.2494(3)
C71 C 0.540(3) 0.514(2) 0.2350(6)
C72 C 0.553(3) 0.499(3) 0.2186(5)
C73 C 0.545(2) 0.449(4) 0.2165(6)
C74 C 0.524(3) 0.414(3) 0.2309(9)
C75 C 0.512(3) 0.4284(17) 0.2473(7)
N6 N 0.5718(11) 0.5328(11) 0.2849(6)
N7 N 0.4798(11) 0.5158(8) 0.2940(3)
C76 C 0.4996(15) 0.5102(14) 0.3106(4)
C77 C 0.4841(18) 0.5225(17) 0.3269(3)
C78 C 0.4489(18) 0.5403(17) 0.3267(4)
C79 C 0.4291(19) 0.546(2) 0.3101(5)
C80 C 0.4446(16) 0.5337(18) 0.2938(4)
N8 N 0.5334(12) 0.5749(9) 0.2667(5)
O1 O 0.5985(8) 0.8107(13) 0.1079(4)
O2 O 0.6925(11) 0.8447(13) 0.0858(3)
O3 O 0.4872(13) 0.4302(10) 0.2802(4)
O4 O 0.4387(10) 0.4795(12) 0.2604(4)
Ru1 Ru 0.5021(7) 0.4985(7) 0.2717(2)
O5 O 0.3333 0.6667 0.1872
Zn1 Zn 0.3333 0.6667 0.1661
Zn2 Zn 0.4037 0.7012 0.2011
O6 O 0.4496 0.7343 0.1819
O7 O 0.3974 0.6819 0.1558
O8 O 0.4142 0.6608 0.2194
O9 O 0.4214 0.7636 0.2088
Ru2 Ru 0.6734(6) 0.8456(6) 0.1098(2)
O10 O 1.0000 1.0000 0.0215
Zn3 Zn 0.9296 0.9645 0.0171
Zn4 Zn 1.0000 1.0000 0.0526
O11 O 0.9384 0.9595 0.0634
O12 O 0.8851 0.9563 0.0351
O13 O 0.6618 0.4133 0.3306
O14 O 0.5795 0.3457 0.3417
C49A C 0.3914(7) 0.7771(9) 0.2185(2)
Zn2B Zn 0.2975 0.5963 0.2011
Zn2A Zn 0.2988 0.7025 0.2011
O7A O 0.3181 0.7155 0.1558
O7B O 0.2845 0.6026 0.1558
O9B O 0.3422 0.5786 0.2088
Zn3A Zn 1.0355 0.9651 0.0171
Zn3B Zn 1.0349 1.0704 0.0171
Zn3E Zn 0.7016 0.4037 0.3504
Zn3C Zn 0.5963 0.2978 0.3504
O11A O 1.0405 0.9789 0.0634
O11B O 1.0211 1.0616 0.0634
O13G O 0.9200 0.9152 -0.0027
O14F O 0.9128 1.0124 0.0084
loop_
_geom_bond_atom_site_label_1
_geom_bond_atom_site_label_2
_geom_bond_site_symmetry_1
_geom_bond_site_symmetry_2
C1 C2 1_555 1_555
C2 C3 1_555 1_555
C3 C4 1_555 1_555
C4 C5 1_555 1_555
C5 C6 1_555 1_555
C6 C1 1_555 1_555
C7 C1 1_555 1_555
C8 C9 1_555 1_555
C9 C10 1_555 1_555
C10 C11 1_555 1_555
C11 C12 1_555 1_555
C12 C13 1_555 1_555
C13 C8 1_555 1_555
C14 C5 1_555 1_555
C15 C16 1_555 1_555
C16 C17 1_555 1_555
C17 C18 1_555 1_555
C18 C19 1_555 1_555
C19 C20 1_555 1_555
C20 C15 1_555 1_555
C21 C8 1_555 1_555
C22 C23 1_555 1_555
C23 C24 1_555 1_555
C24 C25 1_555 1_555
C25 C26 1_555 1_555
C26 C27 1_555 1_555
C27 C22 1_555 1_555
C28 C14 1_555 1_555
C29 C14 1_555 1_555
C30 C14 1_555 1_555
C31 C3 1_555 1_555
C32 C12 1_555 1_555
C33 C32 1_555 1_555
C34 C32 1_555 1_555
C35 C32 1_555 1_555
C36 C10 1_555 1_555
C37 C38 1_555 1_555
C38 C39 1_555 1_555
C39 C40 1_555 1_555
C40 C41 1_555 1_555
C41 C42 1_555 1_555
C42 C37 1_555 1_555
C43 C15 1_555 1_555
C44 C19 1_555 1_555
C45 C44 1_555 1_555
C46 C44 1_555 1_555
C47 C44 1_555 1_555
C48 C17 1_555 1_555
C49 C22 1_555 1_555
C50 C26 1_555 1_555
C51 C50 1_555 1_555
C52 C50 1_555 1_555
C53 C50 1_555 1_555
C54 C24 1_555 1_555
C55 C56 1_555 1_555
C56 C57 1_555 1_555
C57 C58 1_555 1_555
C58 C59 1_555 1_555
C59 C60 1_555 1_555
C60 C55 1_555 1_555
N1 C61 1_555 1_555
C61 C62 1_555 1_555
C62 C63 1_555 1_555
C63 C64 1_555 1_555
C64 C65 1_555 1_555
C65 N1 1_555 1_555
N2 C31 1_555 1_555
N3 C66 1_555 1_555
C66 C67 1_555 1_555
C67 C68 1_555 1_555
C68 C69 1_555 1_555
C69 C70 1_555 1_555
C70 N3 1_555 1_555
N4 C36 1_555 1_555
N5 C71 1_555 1_555
C71 C72 1_555 1_555
C72 C73 1_555 1_555
C73 C74 1_555 1_555
C74 C75 1_555 1_555
C75 N5 1_555 1_555
N6 C48 1_555 1_555
N7 C76 1_555 1_555
C76 C77 1_555 1_555
C77 C78 1_555 1_555
C78 C79 1_555 1_555
C79 C80 1_555 1_555
C80 N7 1_555 1_555
N8 C54 1_555 1_555
O1 C4 1_555 1_555
O2 C11 1_555 1_555
O3 C18 1_555 1_555
O4 C25 1_555 1_555
Ru1 N5 1_555 1_555
O5 Zn1 1_555 1_555
Zn1 O7 1_555 1_555
Zn2 O5 1_555 1_555
O6 C7 1_555 1_555
O7 C7 1_555 1_555
O8 C49 1_555 1_555
O9 Zn2 1_555 1_555
Ru2 N1 1_555 1_555
O10 Zn3 1_555 1_555
Zn3 O12 1_555 1_555
Zn4 O10 1_555 1_555
O11 C21 1_555 1_555
O12 C21 1_555 1_555
O13 C43 1_555 1_555
O14 C43 1_555 1_555
C49A O9 1_555 1_555
Zn2B O5 1_555 1_555
Zn2A O5 1_555 1_555
O7A Zn1 1_555 1_555
O7B Zn1 1_555 1_555
O9B C49 1_555 1_555
Zn3A O10 1_555 1_555
Zn3B O10 1_555 1_555
Zn3E O13 1_555 1_555
Zn3C O14 1_555 1_555
O11A Zn4 1_555 1_555
O11B Zn4 1_555 1_555
O13G Zn3 1_555 1_555
O14F Zn3 1_555 1_555
C37 N2 1_555 1_555
C42 N4 1_555 1_555
C55 N6 1_555 1_555
C60 N8 1_555 1_555
N2 Ru2 1_555 1_555
N3 Ru2 1_555 1_555
N4 Ru2 1_555 1_555
N6 Ru1 1_555 1_555
N7 Ru1 1_555 1_555
N8 Ru1 1_555 1_555
O1 Ru2 1_555 1_555
O2 Ru2 1_555 1_555
O3 Ru1 1_555 1_555
O4 Ru1 1_555 1_555
Zn2 O6 1_555 1_555
Zn2 O8 1_555 1_555
Zn4 O11 1_555 1_555
Zn2B O9B 1_555 1_555

#END
