
#######################################################################
#
#                 Cambridge Crystallographic Data Centre
#                                CCDC 
#
#######################################################################
#
# If this CIF has been generated from an entry in the Cambridge 
# Structural Database, then it will include bibliographic, chemical, 
# crystal, experimental, refinement or atomic coordinate data resulting 
# from the CCDC's data processing and validation procedures.
#
#######################################################################

data_IYUWIJ
_symmetry_cell_setting           rhombohedral
_symmetry_space_group_name_H-M   'R 3 2'
_symmetry_Int_Tables_number      155
_space_group_name_Hall           'R 3 2"'
loop_
_symmetry_equiv_pos_site_id
_symmetry_equiv_pos_as_xyz
1 x,y,z
2 -y,x-y,z
3 -x+y,-x,z
4 y,x,-z
5 x-y,-y,-z
6 -x,-x+y,-z
7 2/3+x,1/3+y,1/3+z
8 2/3-y,1/3+x-y,1/3+z
9 2/3-x+y,1/3-x,1/3+z
10 2/3+y,1/3+x,1/3-z
11 2/3+x-y,1/3-y,1/3-z
12 2/3-x,1/3-x+y,1/3-z
13 1/3+x,2/3+y,2/3+z
14 1/3-y,2/3+x-y,2/3+z
15 1/3-x+y,2/3-x,2/3+z
16 1/3+y,2/3+x,2/3-z
17 1/3+x-y,2/3-y,2/3-z
18 1/3-x,2/3-x+y,2/3-z
_cell_length_a                   29.7977(5)
_cell_length_b                   29.7977(5)
_cell_length_c                   73.0266(11)
_cell_angle_alpha                90
_cell_angle_beta                 90
_cell_angle_gamma                120
_cell_volume                     56153.5
loop_
_atom_site_label
_atom_site_type_symbol
_atom_site_fract_x
_atom_site_fract_y
_atom_site_fract_z
C1 C 0.4117(15) 0.5866(12) 0.0805(3)
C2 C 0.4623(13) 0.5990(12) 0.0844(4)
C3 C 0.4716(12) 0.5678(14) 0.0961(4)
C4 C 0.4303(13) 0.5240(12) 0.1039(3)
C5 C 0.3797(12) 0.5116(12) 0.1000(4)
C6 C 0.3704(12) 0.5429(13) 0.0883(4)
C7 C 0.3940(15) 0.6159(12) 0.0680(3)
C8 C 0.5515(16) 0.3815(14) 0.1708(3)
C9 C 0.5791(13) 0.4276(14) 0.1611(5)
C10 C 0.5529(14) 0.4463(13) 0.1508(5)
C11 C 0.4991(14) 0.4191(13) 0.1501(4)
C12 C 0.4714(13) 0.3730(13) 0.1598(5)
C13 C 0.4976(16) 0.3543(13) 0.1702(4)
C14 C 0.3335(16) 0.4637(16) 0.1094(6)
C15 C 0.8357(10) 0.9170(11) -0.0900(5)
C16 C 0.8310(13) 0.9051(11) -0.0714(5)
C17 C 0.7826(14) 0.8824(12) -0.0631(4)
C18 C 0.7390(12) 0.8717(11) -0.0733(4)
C19 C 0.7437(12) 0.8836(12) -0.0918(4)
C20 C 0.7921(12) 0.9063(13) -0.1002(4)
C21 C 0.5831(15) 0.3632(15) 0.1819(3)
C22 C 0.4802(13) 0.7325(13) -0.0063(5)
C23 C 0.5312(16) 0.7535(14) -0.0005(5)
C24 C 0.5708(16) 0.7687(12) -0.0132(5)
C25 C 0.5594(14) 0.7629(12) -0.0319(5)
C26 C 0.5084(15) 0.7419(13) -0.0377(5)
C27 C 0.4688(14) 0.7267(12) -0.0249(6)
C28 C 0.351(3) 0.433(3) 0.1182(14)
C29 C 0.295(3) 0.434(3) 0.0966(9)
C30 C 0.315(3) 0.483(3) 0.1234(10)
C31 C 0.5241(13) 0.5836(19) 0.0996(5)
C32 C 0.4109(15) 0.3407(19) 0.1597(8)
C33 C 0.394(3) 0.302(4) 0.1734(14)
C34 C 0.393(3) 0.317(5) 0.1427(11)
C35 C 0.391(3) 0.373(3) 0.1629(19)
C36 C 0.5872(14) 0.4933(17) 0.1420(8)
C37 C 0.5942(13) 0.6049(13) 0.1208(8)
C38 C 0.6343(16) 0.656(2) 0.1100(12)
C39 C 0.6893(18) 0.671(3) 0.1105(11)
C40 C 0.7035(18) 0.654(2) 0.1272(12)
C41 C 0.6721(13) 0.597(2) 0.1326(12)
C42 C 0.6126(11) 0.5704(16) 0.1239(7)
C43 C 0.8891(10) 0.9422(12) -0.0994(5)
C44 C 0.6925(17) 0.8697(15) -0.1022(6)
C45 C 0.667(2) 0.893(3) -0.0934(12)
C46 C 0.660(3) 0.816(3) -0.1015(15)
C47 C 0.703(4) 0.887(3) -0.1204(7)
C48 C 0.783(2) 0.8723(13) -0.0442(4)
C49 C 0.4377(16) 0.7163(15) 0.0082(6)
C50 C 0.497(2) 0.7360(19) -0.0586(5)
C51 C 0.507(5) 0.783(5) -0.0659(10)
C52 C 0.444(6) 0.698(2) -0.0611(11)
C53 C 0.528(3) 0.718(5) -0.0663(10)
C54 C 0.621(3) 0.7889(12) -0.0053(5)
C55 C 0.752(3) 0.8874(12) -0.0154(5)
C56 C 0.806(4) 0.9197(14) -0.0060(7)
C57 C 0.810(4) 0.920(2) 0.0141(7)
C58 C 0.763(4) 0.910(2) 0.0236(6)
C59 C 0.711(5) 0.864(2) 0.0175(4)
C60 C 0.706(2) 0.8657(14) -0.0051(4)
N1 N 0.5038(16) 0.4681(17) 0.1054(4)
C61 C 0.4603(17) 0.443(3) 0.0942(8)
C62 C 0.464(3) 0.425(3) 0.0770(7)
C63 C 0.512(4) 0.433(3) 0.0710(5)
C64 C 0.556(3) 0.459(4) 0.0821(9)
C65 C 0.5514(18) 0.476(3) 0.0993(8)
N2 N 0.5418(12) 0.5785(12) 0.1167(5)
N3 N 0.4962(16) 0.5364(17) 0.1480(4)
C66 C 0.4467(17) 0.526(3) 0.1524(8)
C67 C 0.438(3) 0.543(3) 0.1692(9)
C68 C 0.478(4) 0.569(3) 0.1815(6)
C69 C 0.528(3) 0.579(3) 0.1771(6)
C70 C 0.5366(19) 0.563(2) 0.1604(7)
N4 N 0.5750(11) 0.5285(14) 0.1355(6)
N5 N 0.6529(11) 0.8794(18) -0.0399(6)
C71 C 0.678(2) 0.924(3) -0.0511(10)
C72 C 0.660(2) 0.959(4) -0.0519(13)
C73 C 0.6173(12) 0.950(3) -0.0417(13)
C74 C 0.5923(16) 0.906(3) -0.0306(13)
C75 C 0.6103(18) 0.871(3) -0.0297(10)
N6 N 0.7445(19) 0.8617(9) -0.0321(4)
N7 N 0.6783(13) 0.767(2) -0.0427(5)
C76 C 0.668(2) 0.744(4) -0.0597(6)
C77 C 0.663(3) 0.695(4) -0.0614(11)
C78 C 0.667(2) 0.670(4) -0.0461(13)
C79 C 0.678(2) 0.694(4) -0.0291(11)
C80 C 0.683(2) 0.743(4) -0.0274(7)
N8 N 0.6677(19) 0.8148(12) -0.0136(3)
O1 O 0.4247(15) 0.6571(13) 0.0576(4)
O2 O 0.3417(14) 0.5949(14) 0.0687(5)
O3 O 0.4363(12) 0.4910(14) 0.1164(4)
O4 O 0.6337(15) 0.3957(17) 0.1867(6)
O5 O 0.561(2) 0.3132(16) 0.1875(7)
O6 O 0.4739(14) 0.4402(12) 0.1395(5)
O7 O 0.9323(15) 0.9747(12) -0.0900(4)
O8 O 0.8904(14) 0.9300(13) -0.1173(5)
O9 O 0.6874(14) 0.8480(12) -0.0664(3)
O10 O 0.450(3) 0.723(2) 0.0263(6)
O11 O 0.386(4) 0.6958(16) 0.0042(8)
O12 O 0.5989(17) 0.7781(10) -0.0453(5)
Ru1 Ru 0.5021(9) 0.5043(9) 0.1267(2)
Ru2 Ru 0.6705(8) 0.8266(6) -0.0409(2)
Zn1 Zn 0.4064 0.6987 0.0497
Zn2 Zn 0.9337 0.9741 -0.1344
Zn3 Zn 1.0000 1.0000 -0.1005
Zn4 Zn 0.3333 0.6667 0.0177
O13 O 1.0000 1.0000 -0.1253
O14 O 0.3334 0.6666 0.0494
C1A C 0.4134(12) 0.8251(19) 0.0805(3)
C1M C 0.7467(12) 0.4918(19) -0.2528(3)
C2A C 0.4010(12) 0.8633(18) 0.0844(4)
C2M C 0.7343(12) 0.5300(18) -0.2489(4)
C3A C 0.4322(14) 0.9038(18) 0.0961(4)
C3M C 0.7655(14) 0.5705(18) -0.2372(4)
C4A C 0.4760(12) 0.9063(18) 0.1039(3)
C4M C 0.8093(12) 0.5730(18) -0.2294(3)
C5A C 0.4884(12) 0.8681(17) 0.1000(4)
C5M C 0.8217(12) 0.5348(17) -0.2333(4)
C6A C 0.4571(13) 0.8275(18) 0.0883(4)
C6M C 0.7904(13) 0.4942(18) -0.2450(4)
C7A C 0.3841(12) 0.7781(19) 0.0680(3)
C7M C 0.7174(12) 0.4448(19) -0.2653(3)
C8A C 0.6185(14) 1.1700(21) 0.1708(3)
C8M C 0.9518(14) 0.8367(21) -0.1625(3)
C9A C 0.5724(14) 1.1515(19) 0.1611(5)
C9M C 0.9057(14) 0.8182(19) -0.1722(5)
C10A C 0.5537(13) 1.1066(19) 0.1508(5)
C10M C 0.8870(13) 0.7733(19) -0.1825(5)
C11A C 0.5809(13) 1.0800(19) 0.1501(4)
C11M C 0.9142(13) 0.7467(19) -0.1832(4)
C12A C 0.6270(13) 1.0984(18) 0.1598(5)
C12M C 0.9603(13) 0.7651(18) -0.1735(5)
C13A C 0.6457(13) 1.1433(21) 0.1702(4)
C13M C 0.9790(13) 0.8100(21) -0.1631(4)
C14A C 0.5363(16) 0.8698(23) 0.1094(6)
C14M C 0.8696(16) 0.5365(23) -0.2239(6)
C15B C 1.0813(15) 1.1643(10) -0.0900(5)
C15A C 1.0830(11) 0.9187(15) -0.0900(5)
C16B C 1.0741(17) 1.1690(13) -0.0714(5)
C16A C 1.0949(11) 0.9259(17) -0.0714(5)
C17B C 1.0998(18) 1.2174(14) -0.0631(4)
C17A C 1.1176(12) 0.9002(18) -0.0631(4)
C18B C 1.1327(16) 1.2610(12) -0.0733(4)
C18A C 1.1283(11) 0.8673(16) -0.0733(4)
C19B C 1.1399(17) 1.2563(12) -0.0918(4)
C19A C 1.1164(12) 0.8601(17) -0.0918(4)
C20B C 1.1142(18) 1.2079(12) -0.1002(4)
C20A C 1.0937(13) 0.8858(18) -0.1002(4)
C21A C 0.6368(15) 1.2199(21) 0.1819(3)
C21M C 0.9701(15) 0.8866(21) -0.1514(3)
C22B C 1.2523(18) 1.5198(13) -0.0063(5)
C22A C 1.2675(13) 0.7477(18) -0.0063(5)
C23B C 1.2223(21) 1.4688(16) -0.0005(5)
C23A C 1.2465(14) 0.7777(21) -0.0005(5)
C24B C 1.1979(20) 1.4292(16) -0.0132(5)
C24A C 1.2313(12) 0.8021(20) -0.0132(5)
C25B C 1.2035(18) 1.4406(14) -0.0319(5)
C25A C 1.2371(12) 0.7965(18) -0.0319(5)
C26B C 1.2335(20) 1.4916(15) -0.0377(5)
C26A C 1.2581(13) 0.7665(20) -0.0377(5)
C27B C 1.2579(18) 1.5312(14) -0.0249(6)
C27A C 1.2733(12) 0.7421(18) -0.0249(6)
C28A C 0.567(3) 0.918(4) 0.1182(14)
C28M C 0.900(3) 0.585(4) -0.2151(14)
C29A C 0.566(3) 0.861(4) 0.0966(9)
C29M C 0.899(3) 0.528(4) -0.2367(9)
C30A C 0.517(3) 0.832(4) 0.1234(10)
C30M C 0.850(3) 0.499(4) -0.2099(10)
C31A C 0.4164(19) 0.9405(23) 0.0996(5)
C31M C 0.7497(19) 0.6072(23) -0.2337(5)
C32A C 0.6593(19) 1.0702(24) 0.1597(8)
C32M C 0.9926(19) 0.7369(24) -0.1736(8)
C33A C 0.698(4) 1.092(5) 0.1734(14)
C33M C 1.031(4) 0.759(5) -0.1599(14)
C34A C 0.683(5) 1.076(6) 0.1427(11)
C34M C 1.016(5) 0.743(6) -0.1906(11)
C35A C 0.627(3) 1.018(4) 0.1629(19)
C35M C 0.960(3) 0.685(4) -0.1704(19)
C36A C 0.5067(17) 1.0939(22) 0.1420(8)
C36M C 0.8400(17) 0.7606(22) -0.1913(8)
C37A C 0.3951(13) 0.9893(18) 0.1208(8)
C37M C 0.7284(13) 0.6560(18) -0.2125(8)
C38A C 0.344(2) 0.9783(26) 0.1100(12)
C38M C 0.677(2) 0.6450(26) -0.2233(12)
C39A C 0.329(3) 1.0183(35) 0.1105(11)
C39M C 0.662(3) 0.6850(35) -0.2228(11)
C40A C 0.346(2) 1.0495(27) 0.1272(12)
C40M C 0.679(2) 0.7162(27) -0.2061(12)
C41A C 0.403(2) 1.0751(24) 0.1326(12)
C41M C 0.736(2) 0.7418(24) -0.2007(12)
C42A C 0.4296(16) 1.0422(19) 0.1239(7)
C42M C 0.7629(16) 0.7089(19) -0.2094(7)
C43B C 1.0531(16) 1.1109(10) -0.0994(5)
C43A C 1.0578(12) 0.9469(16) -0.0994(5)
C44B C 1.1772(23) 1.3075(17) -0.1022(6)
C44A C 1.1303(15) 0.8228(23) -0.1022(6)
C45B C 1.226(4) 1.333(2) -0.0934(12)
C45A C 1.107(3) 0.774(4) -0.0934(12)
C46B C 1.156(4) 1.340(3) -0.1015(15)
C46A C 1.184(3) 0.844(4) -0.1015(15)
C47B C 1.184(5) 1.297(4) -0.1204(7)
C47A C 1.113(3) 0.816(5) -0.1204(7)
C48B C 1.0893(24) 1.217(2) -0.0442(4)
C48A C 1.1277(13) 0.9107(24) -0.0442(4)
C49B C 1.2786(22) 1.5623(16) 0.0082(6)
C49A C 1.2837(15) 0.7214(22) 0.0082(6)
C50B C 1.2390(28) 1.503(2) -0.0586(5)
C50A C 1.2640(19) 0.7610(28) -0.0586(5)
C51B C 1.276(7) 1.493(5) -0.0659(10)
C51A C 1.217(5) 0.724(7) -0.0659(10)
C52B C 1.254(6) 1.556(6) -0.0611(11)
C52A C 1.302(2) 0.746(6) -0.0611(11)
C53B C 1.190(6) 1.472(3) -0.0663(10)
C53A C 1.282(5) 0.810(6) -0.0663(10)
C54B C 1.1679(32) 1.379(3) -0.0053(5)
C54A C 1.2111(12) 0.8321(32) -0.0053(5)
C55B C 1.1354(32) 1.248(3) -0.0154(5)
C55A C 1.1126(12) 0.8646(32) -0.0154(5)
C56B C 1.1137(42) 1.194(4) -0.0060(7)
C56A C 1.0803(14) 0.8863(42) -0.0060(7)
C57B C 1.110(4) 1.190(4) 0.0141(7)
C57A C 1.080(2) 0.890(4) 0.0141(7)
C58B C 1.147(4) 1.237(4) 0.0236(6)
C58A C 1.090(2) 0.853(4) 0.0236(6)
C59B C 1.153(5) 1.289(5) 0.0175(4)
C59A C 1.136(2) 0.847(5) 0.0175(4)
C60B C 1.1597(24) 1.294(2) -0.0051(4)
C60A C 1.1343(14) 0.8403(24) -0.0051(4)
N1A N 0.5319(17) 1.0357(23) 0.1054(4)
N1M N 0.8652(17) 0.7024(23) -0.2279(4)
C61A C 0.557(3) 1.0173(34) 0.0942(8)
C61M C 0.890(3) 0.6840(34) -0.2391(8)
C62A C 0.575(3) 1.039(4) 0.0770(7)
C62M C 0.908(3) 0.706(4) -0.2563(7)
C63A C 0.567(3) 1.079(5) 0.0710(5)
C63M C 0.900(3) 0.746(5) -0.2623(5)
C64A C 0.541(4) 1.097(5) 0.0821(9)
C64M C 0.874(4) 0.764(5) -0.2512(9)
C65A C 0.524(3) 1.0754(35) 0.0993(8)
C65M C 0.857(3) 0.7421(35) -0.2340(8)
N2A N 0.4215(12) 0.9633(17) 0.1167(5)
N2M N 0.7548(12) 0.6300(17) -0.2166(5)
N3A N 0.4636(17) 0.9598(23) 0.1480(4)
N3M N 0.7969(17) 0.6265(23) -0.1853(4)
C66A C 0.474(3) 0.9207(34) 0.1524(8)
C66M C 0.807(3) 0.5874(34) -0.1809(8)
C67A C 0.457(3) 0.895(4) 0.1692(9)
C67M C 0.790(3) 0.562(4) -0.1641(9)
C68A C 0.431(3) 0.909(5) 0.1815(6)
C68M C 0.764(3) 0.576(5) -0.1518(6)
C69A C 0.421(3) 0.949(4) 0.1771(6)
C69M C 0.754(3) 0.616(4) -0.1562(6)
C70A C 0.437(2) 0.9736(28) 0.1604(7)
C70M C 0.770(2) 0.6403(28) -0.1729(7)
N4A N 0.4715(14) 1.0465(18) 0.1355(6)
N4M N 0.8048(14) 0.7132(18) -0.1978(6)
N5B N 1.2265(21) 1.3471(11) -0.0399(6)
N5A N 1.1206(18) 0.7735(21) -0.0399(6)
C71B C 1.246(4) 1.322(2) -0.0511(10)
C71A C 1.076(3) 0.754(4) -0.0511(10)
C72B C 1.299(4) 1.340(2) -0.0519(13)
C72A C 1.041(4) 0.701(4) -0.0519(13)
C73B C 1.3327(32) 1.3827(12) -0.0417(13)
C73A C 1.050(3) 0.6673(32) -0.0417(13)
C74B C 1.3137(34) 1.4077(16) -0.0306(13)
C74A C 1.094(3) 0.6863(34) -0.0306(13)
C75B C 1.2607(35) 1.3897(18) -0.0297(10)
C75A C 1.129(3) 0.7393(35) -0.0297(10)
N6B N 1.1172(21) 1.2555(19) -0.0321(4)
N6A N 1.1383(9) 0.8828(21) -0.0321(4)
N7B N 1.0887(24) 1.3217(13) -0.0427(5)
N7A N 1.233(2) 0.9113(24) -0.0427(5)
C76B C 1.076(4) 1.332(2) -0.0597(6)
C76A C 1.256(4) 0.924(4) -0.0597(6)
C77B C 1.032(5) 1.337(3) -0.0614(11)
C77A C 1.305(4) 0.968(5) -0.0614(11)
C78B C 1.003(4) 1.333(2) -0.0461(13)
C78A C 1.330(4) 0.997(4) -0.0461(13)
C79B C 1.016(4) 1.322(2) -0.0291(11)
C79A C 1.306(4) 0.984(4) -0.0291(11)
C80B C 1.060(4) 1.317(2) -0.0274(7)
C80A C 1.257(4) 0.940(4) -0.0274(7)
N8B N 1.1471(22) 1.3323(19) -0.0136(3)
N8A N 1.1852(12) 0.8529(22) -0.0136(3)
O1A O 0.3429(13) 0.7676(20) 0.0576(4)
O1M O 0.6762(13) 0.4343(20) -0.2757(4)
O1B O 1.2324(20) 1.5753(15) 0.0576(4)
O1A_2 O 1.3429(13) 0.7676(20) 0.0576(4)
O2A O 0.4051(14) 0.7468(20) 0.0687(5)
O2M O 0.7384(14) 0.4135(20) -0.2646(5)
O2_2 O 1.3417(14) 1.5949(14) 0.0687(5)
O2B O 1.2532(20) 0.6583(14) 0.0687(5)
O3A O 0.5090(14) 0.9453(18) 0.1164(4)
O3M O 0.8423(14) 0.6120(18) -0.2169(4)
O4A O 0.6043(17) 1.2380(23) 0.1867(6)
O4M O 0.9376(17) 0.9047(23) -0.1466(6)
O4L O 0.9670(15) 1.0624(17) -0.1466(6)
O4N O 1.0953(23) 1.0330(15) -0.1466(6)
O5A O 0.6868(16) 1.2478(26) 0.1875(7)
O5M O 1.0201(16) 0.9145(26) -0.1458(7)
O5L O 0.894(2) 0.9799(16) -0.1458(7)
O5N O 1.0855(26) 1.106(2) -0.1458(7)
O6A O 0.5598(12) 1.0337(18) 0.1395(5)
O6M O 0.8931(12) 0.7004(18) -0.1938(5)
O7B O 1.0424(19) 1.0677(15) -0.0900(4)
O7A O 1.0253(12) 0.9576(19) -0.0900(4)
O8B O 1.0396(19) 1.1096(14) -0.1173(5)
O8A O 1.0700(13) 0.9604(19) -0.1173(5)
O9B O 1.1606(18) 1.3126(14) -0.0664(3)
O9A O 1.1520(12) 0.8394(18) -0.0664(3)
O10B O 1.273(4) 1.550(3) 0.0263(6)
O10A O 1.277(2) 0.727(4) 0.0263(6)
O11B O 1.3098(43) 1.614(4) 0.0042(8)
O11A O 1.3042(16) 0.6902(43) 0.0042(8)
O11B_2 O 0.3098(43) 0.614(4) 0.0042(8)
O11A_2 O 0.3042(16) 0.6902(43) 0.0042(8)
O11A_3 O 1.3042(16) 1.6902(43) 0.0042(8)
O11_2 O 1.386(4) 1.6958(16) 0.0042(8)
O11_3 O 1.386(4) 0.6958(16) 0.0042(8)
O11B_3 O 1.3098(43) 0.614(4) 0.0042(8)
O12B O 1.1792(20) 1.4011(17) -0.0453(5)
O12A O 1.2219(10) 0.8208(20) -0.0453(5)
Ru1A Ru 0.4957(9) 0.9978(13) 0.1267(2)
Ru1M Ru 0.8290(9) 0.6645(13) -0.2066(2)
Ru2B Ru 1.1561(10) 1.3295(8) -0.0409(2)
Ru2A Ru 1.1734(6) 0.8439(10) -0.0409(2)
Zn1B Zn 1.2923 1.5936 0.0497
Zn1A Zn 1.3013 0.7077 0.0497
Zn1B_2 Zn 0.2923 0.5936 0.0497
Zn1A_2 Zn 0.3013 0.7077 0.0497
Zn1M Zn 0.6346 0.3744 -0.2836
Zn1L Zn 0.7397 0.3654 -0.2836
Zn1A_3 Zn 1.3013 1.7077 0.0497
Zn1_2 Zn 1.4064 1.6987 0.0497
Zn1_3 Zn 1.4064 0.6987 0.0497
Zn1B_3 Zn 1.2923 0.5936 0.0497
Zn2B Zn 1.0404 1.0663 -0.1344
Zn2A Zn 1.0259 0.9596 -0.1344
Zn2H Zn 0.7071 0.3996 0.1989
Zn2F Zn 0.6004 0.3074 0.1989
Zn2F_2 Zn 0.6004 1.3074 0.1989
Zn2G Zn 0.6926 1.2929 0.1989
Zn4B Zn 1.3334 1.6667 0.0177
Zn4A Zn 1.3333 0.6666 0.0177
O14B O 1.3332 1.6666 0.0494
O14A O 1.3334 0.6668 0.0494
loop_
_geom_bond_atom_site_label_1
_geom_bond_atom_site_label_2
_geom_bond_site_symmetry_1
_geom_bond_site_symmetry_2
C1 C2 1_555 1_555
C2 C3 1_555 1_555
C3 C4 1_555 1_555
C4 C5 1_555 1_555
C5 C6 1_555 1_555
C6 C1 1_555 1_555
C7 C1 1_555 1_555
C8 C9 1_555 1_555
C9 C10 1_555 1_555
C10 C11 1_555 1_555
C11 C12 1_555 1_555
C12 C13 1_555 1_555
C13 C8 1_555 1_555
C14 C5 1_555 1_555
C15 C16 1_555 1_555
C16 C17 1_555 1_555
C17 C18 1_555 1_555
C18 C19 1_555 1_555
C19 C20 1_555 1_555
C20 C15 1_555 1_555
C21 C8 1_555 1_555
C22 C23 1_555 1_555
C23 C24 1_555 1_555
C24 C25 1_555 1_555
C25 C26 1_555 1_555
C26 C27 1_555 1_555
C27 C22 1_555 1_555
C28 C14 1_555 1_555
C29 C14 1_555 1_555
C30 C14 1_555 1_555
C31 C3 1_555 1_555
C32 C12 1_555 1_555
C33 C32 1_555 1_555
C34 C32 1_555 1_555
C35 C32 1_555 1_555
C36 C10 1_555 1_555
C37 C38 1_555 1_555
C38 C39 1_555 1_555
C39 C40 1_555 1_555
C40 C41 1_555 1_555
C41 C42 1_555 1_555
C42 C37 1_555 1_555
C43 C15 1_555 1_555
C44 C19 1_555 1_555
C45 C44 1_555 1_555
C46 C44 1_555 1_555
C47 C44 1_555 1_555
C48 C17 1_555 1_555
C49 C22 1_555 1_555
C50 C26 1_555 1_555
C51 C50 1_555 1_555
C52 C50 1_555 1_555
C53 C50 1_555 1_555
C54 C24 1_555 1_555
C55 C56 1_555 1_555
C56 C57 1_555 1_555
C57 C58 1_555 1_555
C58 C59 1_555 1_555
C59 C60 1_555 1_555
C60 C55 1_555 1_555
N1 C61 1_555 1_555
C61 C62 1_555 1_555
C62 C63 1_555 1_555
C63 C64 1_555 1_555
C64 C65 1_555 1_555
C65 N1 1_555 1_555
N2 C31 1_555 1_555
N3 C66 1_555 1_555
C66 C67 1_555 1_555
C67 C68 1_555 1_555
C68 C69 1_555 1_555
C69 C70 1_555 1_555
C70 N3 1_555 1_555
N4 C36 1_555 1_555
N5 C71 1_555 1_555
C71 C72 1_555 1_555
C72 C73 1_555 1_555
C73 C74 1_555 1_555
C74 C75 1_555 1_555
C75 N5 1_555 1_555
N6 C48 1_555 1_555
N7 C76 1_555 1_555
C76 C77 1_555 1_555
C77 C78 1_555 1_555
C78 C79 1_555 1_555
C79 C80 1_555 1_555
C80 N7 1_555 1_555
N8 C54 1_555 1_555
O1 C7 1_555 1_555
O2 C7 1_555 1_555
O3 C4 1_555 1_555
O4 C21 1_555 1_555
O5 C21 1_555 1_555
O6 C11 1_555 1_555
O7 C43 1_555 1_555
O8 C43 1_555 1_555
O9 C18 1_555 1_555
O10 C49 1_555 1_555
O11 C49 1_555 1_555
O12 C25 1_555 1_555
Ru1 N1 1_555 1_555
Ru2 N5 1_555 1_555
Zn1 O1 1_555 1_555
Zn2 O8 1_555 1_555
Zn3 O7 1_555 1_555
Zn4 O11 1_555 1_555
O13 Zn2 1_555 1_555
O14 Zn1 1_555 1_555
C1A C2A 1_555 1_555
C1M C2M 1_555 1_555
C2A C3A 1_555 1_555
C2M C3M 1_555 1_555
C3A C4A 1_555 1_555
C3M C4M 1_555 1_555
C4A C5A 1_555 1_555
C4M C5M 1_555 1_555
C5A C6A 1_555 1_555
C5M C6M 1_555 1_555
C6A C1A 1_555 1_555
C6M C1M 1_555 1_555
C7A C1A 1_555 1_555
C7M C1M 1_555 1_555
C8A C9A 1_555 1_555
C8M C9M 1_555 1_555
C9A C10A 1_555 1_555
C9M C10M 1_555 1_555
C10A C11A 1_555 1_555
C10M C11M 1_555 1_555
C11A C12A 1_555 1_555
C11M C12M 1_555 1_555
C12A C13A 1_555 1_555
C12M C13M 1_555 1_555
C13A C8A 1_555 1_555
C13M C8M 1_555 1_555
C14A C5A 1_555 1_555
C14M C5M 1_555 1_555
C15B C16B 1_555 1_555
C15A C16A 1_555 1_555
C16B C17B 1_555 1_555
C16A C17A 1_555 1_555
C17B C18B 1_555 1_555
C17A C18A 1_555 1_555
C18B C19B 1_555 1_555
C18A C19A 1_555 1_555
C19B C20B 1_555 1_555
C19A C20A 1_555 1_555
C20B C15B 1_555 1_555
C20A C15A 1_555 1_555
C21A C8A 1_555 1_555
C21M C8M 1_555 1_555
C22B C23B 1_555 1_555
C22A C23A 1_555 1_555
C23B C24B 1_555 1_555
C23A C24A 1_555 1_555
C24B C25B 1_555 1_555
C24A C25A 1_555 1_555
C25B C26B 1_555 1_555
C25A C26A 1_555 1_555
C26B C27B 1_555 1_555
C26A C27A 1_555 1_555
C27B C22B 1_555 1_555
C27A C22A 1_555 1_555
C28A C14A 1_555 1_555
C28M C14M 1_555 1_555
C29A C14A 1_555 1_555
C29M C14M 1_555 1_555
C30A C14A 1_555 1_555
C30M C14M 1_555 1_555
C31A C3A 1_555 1_555
C31M C3M 1_555 1_555
C32A C12A 1_555 1_555
C32M C12M 1_555 1_555
C33A C32A 1_555 1_555
C33M C32M 1_555 1_555
C34A C32A 1_555 1_555
C34M C32M 1_555 1_555
C35A C32A 1_555 1_555
C35M C32M 1_555 1_555
C36A C10A 1_555 1_555
C36M C10M 1_555 1_555
C37A C38A 1_555 1_555
C37M C38M 1_555 1_555
C38A C39A 1_555 1_555
C38M C39M 1_555 1_555
C39A C40A 1_555 1_555
C39M C40M 1_555 1_555
C40A C41A 1_555 1_555
C40M C41M 1_555 1_555
C41A C42A 1_555 1_555
C41M C42M 1_555 1_555
C42A C37A 1_555 1_555
C42M C37M 1_555 1_555
C43B C15B 1_555 1_555
C43A C15A 1_555 1_555
C44B C19B 1_555 1_555
C44A C19A 1_555 1_555
C45B C44B 1_555 1_555
C45A C44A 1_555 1_555
C46B C44B 1_555 1_555
C46A C44A 1_555 1_555
C47B C44B 1_555 1_555
C47A C44A 1_555 1_555
C48B C17B 1_555 1_555
C48A C17A 1_555 1_555
C49B C22B 1_555 1_555
C49A C22A 1_555 1_555
C50B C26B 1_555 1_555
C50A C26A 1_555 1_555
C51B C50B 1_555 1_555
C51A C50A 1_555 1_555
C52B C50B 1_555 1_555
C52A C50A 1_555 1_555
C53B C50B 1_555 1_555
C53A C50A 1_555 1_555
C54B C24B 1_555 1_555
C54A C24A 1_555 1_555
C55B C56B 1_555 1_555
C55A C56A 1_555 1_555
C56B C57B 1_555 1_555
C56A C57A 1_555 1_555
C57B C58B 1_555 1_555
C57A C58A 1_555 1_555
C58B C59B 1_555 1_555
C58A C59A 1_555 1_555
C59B C60B 1_555 1_555
C59A C60A 1_555 1_555
C60B C55B 1_555 1_555
C60A C55A 1_555 1_555
N1A C61A 1_555 1_555
N1M C61M 1_555 1_555
C61A C62A 1_555 1_555
C61M C62M 1_555 1_555
C62A C63A 1_555 1_555
C62M C63M 1_555 1_555
C63A C64A 1_555 1_555
C63M C64M 1_555 1_555
C64A C65A 1_555 1_555
C64M C65M 1_555 1_555
C65A N1A 1_555 1_555
C65M N1M 1_555 1_555
N2A C31A 1_555 1_555
N2M C31M 1_555 1_555
N3A C66A 1_555 1_555
N3M C66M 1_555 1_555
C66A C67A 1_555 1_555
C66M C67M 1_555 1_555
C67A C68A 1_555 1_555
C67M C68M 1_555 1_555
C68A C69A 1_555 1_555
C68M C69M 1_555 1_555
C69A C70A 1_555 1_555
C69M C70M 1_555 1_555
C70A N3A 1_555 1_555
C70M N3M 1_555 1_555
N4A C36A 1_555 1_555
N4M C36M 1_555 1_555
N5B C71B 1_555 1_555
N5A C71A 1_555 1_555
C71B C72B 1_555 1_555
C71A C72A 1_555 1_555
C72B C73B 1_555 1_555
C72A C73A 1_555 1_555
C73B C74B 1_555 1_555
C73A C74A 1_555 1_555
C74B C75B 1_555 1_555
C74A C75A 1_555 1_555
C75B N5B 1_555 1_555
C75A N5A 1_555 1_555
N6B C48B 1_555 1_555
N6A C48A 1_555 1_555
N7B C76B 1_555 1_555
N7A C76A 1_555 1_555
C76B C77B 1_555 1_555
C76A C77A 1_555 1_555
C77B C78B 1_555 1_555
C77A C78A 1_555 1_555
C78B C79B 1_555 1_555
C78A C79A 1_555 1_555
C79B C80B 1_555 1_555
C79A C80A 1_555 1_555
C80B N7B 1_555 1_555
C80A N7A 1_555 1_555
N8B C54B 1_555 1_555
N8A C54A 1_555 1_555
O1A C7A 1_555 1_555
O1M C7M 1_555 1_555
O1B Zn1B 1_555 1_555
O1A_2 Zn1A 1_555 1_555
O2A Zn1 1_555 1_555
O2M C7M 1_555 1_555
O2_2 Zn1B 1_555 1_555
O2B Zn1A 1_555 1_555
O3A C4A 1_555 1_555
O3M C4M 1_555 1_555
O4A C21A 1_555 1_555
O4M Zn2 1_555 1_555
O4L Zn2B 1_555 1_555
O4N Zn2A 1_555 1_555
O5A C21A 1_555 1_555
O5M C21M 1_555 1_555
O5L Zn2 1_555 1_555
O5N Zn2B 1_555 1_555
O6A C11A 1_555 1_555
O6M C11M 1_555 1_555
O7B Zn3 1_555 1_555
O7A Zn3 1_555 1_555
O8B C43B 1_555 1_555
O8A C43A 1_555 1_555
O9B C18B 1_555 1_555
O9A C18A 1_555 1_555
O10B C49B 1_555 1_555
O10A C49A 1_555 1_555
O11B C49B 1_555 1_555
O11A C49A 1_555 1_555
O11B_2 Zn4 1_555 1_555
O11A_2 Zn4 1_555 1_555
O11A_3 Zn4B 1_555 1_555
O11_2 Zn4B 1_555 1_555
O11_3 Zn4A 1_555 1_555
O11B_3 Zn4A 1_555 1_555
O12B C25B 1_555 1_555
O12A C25A 1_555 1_555
Ru1A N1A 1_555 1_555
Ru1M N1M 1_555 1_555
Ru2B N5B 1_555 1_555
Ru2A N5A 1_555 1_555
Zn1B O10B 1_555 1_555
Zn1A O10A 1_555 1_555
Zn1B_2 O2 1_555 1_555
Zn1A_2 O14 1_555 1_555
Zn1M O1M 1_555 1_555
Zn1L O2M 1_555 1_555
Zn1A_3 O14B 1_555 1_555
Zn1_2 O14B 1_555 1_555
Zn1_3 O14A 1_555 1_555
Zn1B_3 O14A 1_555 1_555
Zn2B O13 1_555 1_555
Zn2A O13 1_555 1_555
Zn2H O4 1_555 1_555
Zn2F O5 1_555 1_555
Zn2F_2 O4A 1_555 1_555
Zn2G O5A 1_555 1_555
Zn4B O11B 1_555 1_555
Zn4A O11A 1_555 1_555
O14B Zn1B 1_555 1_555
O14A Zn1A 1_555 1_555
C37 N2 1_555 1_555
C42 N4 1_555 1_555
C55 N6 1_555 1_555
C60 N8 1_555 1_555
N2 Ru1 1_555 1_555
N3 Ru1 1_555 1_555
N4 Ru1 1_555 1_555
N6 Ru2 1_555 1_555
N7 Ru2 1_555 1_555
N8 Ru2 1_555 1_555
O3 Ru1 1_555 1_555
O6 Ru1 1_555 1_555
O9 Ru2 1_555 1_555
O10 Zn1 1_555 1_555
O12 Ru2 1_555 1_555
Zn3 O13 1_555 1_555
Zn4 O14 1_555 1_555
O14 Zn1B_2 1_555 1_555
C7A O2A 1_555 1_555
C21M O4M 1_555 1_555
C37A N2A 1_555 1_555
C37M N2M 1_555 1_555
C42A N4A 1_555 1_555
C42M N4M 1_555 1_555
C43B O7B 1_555 1_555
C43A O7A 1_555 1_555
C55B N6B 1_555 1_555
C55A N6A 1_555 1_555
C60B N8B 1_555 1_555
C60A N8A 1_555 1_555
N2A Ru1A 1_555 1_555
N2M Ru1M 1_555 1_555
N3A Ru1A 1_555 1_555
N3M Ru1M 1_555 1_555
N4A Ru1A 1_555 1_555
N4M Ru1M 1_555 1_555
N6B Ru2B 1_555 1_555
N6A Ru2A 1_555 1_555
N7B Ru2B 1_555 1_555
N7A Ru2A 1_555 1_555
N8B Ru2B 1_555 1_555
N8A Ru2A 1_555 1_555
O1A Zn1A_2 1_555 1_555
O3A Ru1A 1_555 1_555
O3M Ru1M 1_555 1_555
O5M Zn2A 1_555 1_555
O6A Ru1A 1_555 1_555
O6M Ru1M 1_555 1_555
O8B Zn2B 1_555 1_555
O8A Zn2A 1_555 1_555
O9B Ru2B 1_555 1_555
O9A Ru2A 1_555 1_555
O12B Ru2B 1_555 1_555
O12A Ru2A 1_555 1_555
Zn4B O14B 1_555 1_555
Zn4A O14A 1_555 1_555

#END
