
#######################################################################
#
#                 Cambridge Crystallographic Data Centre
#                                CCDC 
#
#######################################################################
#
# If this CIF has been generated from an entry in the Cambridge 
# Structural Database, then it will include bibliographic, chemical, 
# crystal, experimental, refinement or atomic coordinate data resulting 
# from the CCDC's data processing and validation procedures.
#
#######################################################################

data_IYUZAD
_symmetry_cell_setting           monoclinic
_symmetry_space_group_name_H-M   'P 21/c'
_symmetry_Int_Tables_number      14
_space_group_name_Hall           '-P 2ybc'
loop_
_symmetry_equiv_pos_site_id
_symmetry_equiv_pos_as_xyz
1 x,y,z
2 x,1/2-y,1/2+z
3 -x,-y,-z
4 -x,1/2+y,1/2-z
_cell_length_a                   9.512(2)
_cell_length_b                   10.424(2)
_cell_length_c                   19.421(4)
_cell_angle_alpha                90
_cell_angle_beta                 101.118(14)
_cell_angle_gamma                90
_cell_volume                     1889.51
loop_
_atom_site_label
_atom_site_type_symbol
_atom_site_fract_x
_atom_site_fract_y
_atom_site_fract_z
Sn1 Sn 0.483173(18) 0.284904(16) 0.236351(8)
Cl1 Cl 0.22030(9) 1.11811(7) -0.01816(4)
O1 O 0.4141(2) 0.41074(18) 0.14861(9)
O2 O 0.4456(2) 0.61528(18) 0.17821(9)
O3 O -0.0766(2) 0.5040(2) -0.25098(10)
C1 C 0.3453(3) 0.1467(3) 0.17871(14)
H1 H 0.3854 0.1181 0.1384
H2 H 0.2508 0.1850 0.1620
H3 H 0.3361 0.0732 0.2090
C2 C 0.4088(3) 0.3880(3) 0.31636(13)
H4 H 0.4823 0.3866 0.3593
H5 H 0.3209 0.3480 0.3254
H6 H 0.3889 0.4770 0.3013
C3 C 0.7004(3) 0.2891(3) 0.22600(16)
H7 H 0.7441 0.2050 0.2384
H8 H 0.7517 0.3546 0.2574
H9 H 0.7062 0.3096 0.1774
C4 C 0.4012(3) 0.5302(2) 0.13597(12)
C5 C 0.3235(3) 0.5649(2) 0.06277(12)
C6 C 0.3006(3) 0.7036(2) 0.04537(12)
C7 C 0.3706(3) 0.7601(3) -0.00363(14)
H10 H 0.4356 0.7105 -0.0241
C8 C 0.3471(3) 0.8876(3) -0.02305(14)
H11 H 0.3952 0.9254 -0.0565
C9 C 0.2531(3) 0.9580(2) 0.00707(13)
C10 C 0.1819(3) 0.9051(3) 0.05580(13)
H12 H 0.1162 0.9551 0.0756
C11 C 0.2075(3) 0.7782(2) 0.07555(14)
H13 H 0.1610 0.7418 0.1100
C12 C 0.2818(3) 0.4715(2) 0.01621(12)
H14 H 0.3140 0.3875 0.0302
C13 C 0.1916(3) 0.4834(2) -0.05431(12)
C14 C 0.0741(3) 0.5665(3) -0.06851(13)
H15 H 0.0546 0.6221 -0.0327
C15 C -0.0138(3) 0.5687(3) -0.13400(14)
H16 H -0.0949 0.6237 -0.1425
C16 C 0.0158(3) 0.4910(3) -0.18743(13)
C17 C 0.1297(3) 0.4074(3) -0.17468(13)
H17 H 0.1496 0.3533 -0.2110
C18 C 0.2159(3) 0.4028(3) -0.10791(13)
H18 H 0.2929 0.3433 -0.0988
C19 C -0.0401(4) 0.4399(4) -0.30948(14)
H19 H 0.0555 0.4671 -0.3154
H20 H -0.1102 0.4613 -0.3518
H21 H -0.0403 0.3470 -0.3017
O2C O 0.5544(2) 0.11528(18) 0.32179(9)
Sn1C Sn 0.516827(18) 0.784904(16) 0.263649(8)
loop_
_geom_bond_atom_site_label_1
_geom_bond_atom_site_label_2
_geom_bond_site_symmetry_1
_geom_bond_site_symmetry_2
Sn1 O1 1_555 1_555
Cl1 C9 1_555 1_555
O1 C4 1_555 1_555
O2 C4 1_555 1_555
O3 C16 1_555 1_555
C1 Sn1 1_555 1_555
H1 C1 1_555 1_555
H2 C1 1_555 1_555
H3 C1 1_555 1_555
C2 Sn1 1_555 1_555
H4 C2 1_555 1_555
H5 C2 1_555 1_555
H6 C2 1_555 1_555
C3 Sn1 1_555 1_555
H7 C3 1_555 1_555
H8 C3 1_555 1_555
H9 C3 1_555 1_555
C4 C5 1_555 1_555
C5 C6 1_555 1_555
C6 C7 1_555 1_555
C7 H10 1_555 1_555
C8 C7 1_555 1_555
H11 C8 1_555 1_555
C9 C8 1_555 1_555
C10 C9 1_555 1_555
H12 C10 1_555 1_555
C11 C6 1_555 1_555
H13 C11 1_555 1_555
C12 C5 1_555 1_555
H14 C12 1_555 1_555
C13 C12 1_555 1_555
C14 C13 1_555 1_555
H15 C14 1_555 1_555
C15 C14 1_555 1_555
H16 C15 1_555 1_555
C16 C15 1_555 1_555
C17 C16 1_555 1_555
H17 C17 1_555 1_555
C18 C13 1_555 1_555
H18 C18 1_555 1_555
C19 O3 1_555 1_555
H19 C19 1_555 1_555
H20 C19 1_555 1_555
H21 C19 1_555 1_555
O2C Sn1 1_555 1_555
Sn1C O2 1_555 1_555
C10 C11 1_555 1_555
C17 C18 1_555 1_555

#END
