
#######################################################################
#
#                 Cambridge Crystallographic Data Centre
#                                CCDC 
#
#######################################################################
#
# If this CIF has been generated from an entry in the Cambridge 
# Structural Database, then it will include bibliographic, chemical, 
# crystal, experimental, refinement or atomic coordinate data resulting 
# from the CCDC's data processing and validation procedures.
#
#######################################################################

data_IZABIU
_symmetry_cell_setting           orthorhombic
_symmetry_space_group_name_H-M   'P n m a'
_symmetry_Int_Tables_number      62
_space_group_name_Hall           '-P 2ac 2n'
loop_
_symmetry_equiv_pos_site_id
_symmetry_equiv_pos_as_xyz
1 x,y,z
2 1/2+x,y,1/2-z
3 x,1/2-y,z
4 1/2-x,1/2+y,1/2+z
5 -x,-y,-z
6 1/2-x,-y,1/2+z
7 -x,1/2+y,-z
8 1/2+x,1/2-y,1/2-z
_cell_length_a                   12.699(4)
_cell_length_b                   13.885(4)
_cell_length_c                   7.252(2)
_cell_angle_alpha                90
_cell_angle_beta                 90
_cell_angle_gamma                90
_cell_volume                     1278.71
loop_
_atom_site_label
_atom_site_type_symbol
_atom_site_fract_x
_atom_site_fract_y
_atom_site_fract_z
Cu1 Cu 0.16264(15) 0.7500 0.1047(2)
Cl1 Cl -0.0124(3) 0.7500 0.0559(6)
N1 N 0.2263(7) 0.6203(5) 0.1150(11)
C1 C 0.3300(8) 0.6070(6) 0.1326(13)
H1 H 0.3728 0.6609 0.1457
C2 C 0.3762(8) 0.5182(6) 0.1325(13)
H2 H 0.4489 0.5132 0.1463
C3 C 0.3163(7) 0.4352(5) 0.1119(12)
C4 C 0.2086(7) 0.4482(6) 0.0989(14)
H3 H 0.1639 0.3954 0.0894
C5 C 0.1687(7) 0.5396(6) 0.0999(13)
H4 H 0.0961 0.5464 0.0895
C6 C 0.3701(8) 0.3392(5) 0.1023(15)
H5 H 0.4205 0.3360 0.2026
H6 H 0.4098 0.3369 -0.0118
C7 C 0.3022(10) 0.2500 0.111(2)
H7 H 0.253(8) 0.2500 0.214(11)
H8 H 0.249(7) 0.2500 0.015(12)
C6B C 0.3701(8) 0.1608(5) 0.1023(15)
C3B C 0.3163(7) 0.0648(5) 0.1119(12)
C2B C 0.3762(8) -0.0182(6) 0.1325(13)
C1B C 0.3300(8) -0.1070(6) 0.1326(13)
N1B N 0.2263(7) -0.1203(5) 0.1150(11)
C5B C 0.1687(7) -0.0396(6) 0.0999(13)
C4B C 0.2086(7) 0.0518(6) 0.0989(14)
H3B H 0.1639 0.1046 0.0894
H4B H 0.0961 -0.0464 0.0895
H1B H 0.3728 -0.1609 0.1457
H2B H 0.4489 -0.0132 0.1463
H5B H 0.4205 0.1640 0.2026
H6B H 0.4098 0.1631 -0.0118
N1B_2 N 0.2263(7) 0.8797(5) 0.1150(11)
Cu1B Cu 0.16264(15) -0.2500 0.1047(2)
loop_
_geom_bond_atom_site_label_1
_geom_bond_atom_site_label_2
_geom_bond_site_symmetry_1
_geom_bond_site_symmetry_2
Cu1 Cl1 1_555 1_555
N1 Cu1 1_555 1_555
C1 N1 1_555 1_555
H1 C1 1_555 1_555
C2 C1 1_555 1_555
H2 C2 1_555 1_555
C3 C2 1_555 1_555
C4 C3 1_555 1_555
H3 C4 1_555 1_555
C5 N1 1_555 1_555
H4 C5 1_555 1_555
C6 C3 1_555 1_555
H5 C6 1_555 1_555
H6 C6 1_555 1_555
C7 C6 1_555 1_555
H7 C7 1_555 1_555
H8 C7 1_555 1_555
C6B C7 1_555 1_555
C3B C6B 1_555 1_555
C2B C3B 1_555 1_555
C1B C2B 1_555 1_555
N1B C1B 1_555 1_555
C5B N1B 1_555 1_555
C4B C3B 1_555 1_555
H3B C4B 1_555 1_555
H4B C5B 1_555 1_555
H1B C1B 1_555 1_555
H2B C2B 1_555 1_555
H5B C6B 1_555 1_555
H6B C6B 1_555 1_555
N1B_2 Cu1 1_555 1_555
Cu1B N1B 1_555 1_555
C4 C5 1_555 1_555
C5B C4B 1_555 1_555

#END
