
#######################################################################
#
#                 Cambridge Crystallographic Data Centre
#                                CCDC 
#
#######################################################################
#
# If this CIF has been generated from an entry in the Cambridge 
# Structural Database, then it will include bibliographic, chemical, 
# crystal, experimental, refinement or atomic coordinate data resulting 
# from the CCDC's data processing and validation procedures.
#
#######################################################################

data_IZADUJ
_symmetry_cell_setting           monoclinic
_symmetry_space_group_name_H-M   'P 21/n'
_symmetry_Int_Tables_number      14
_space_group_name_Hall           '-P 2yn'
loop_
_symmetry_equiv_pos_site_id
_symmetry_equiv_pos_as_xyz
1 x,y,z
2 1/2-x,1/2+y,1/2-z
3 -x,-y,-z
4 1/2+x,1/2-y,1/2+z
_cell_length_a                   13.0008(8)
_cell_length_b                   7.8631(4)
_cell_length_c                   14.9166(7)
_cell_angle_alpha                90
_cell_angle_beta                 98.301(4)
_cell_angle_gamma                90
_cell_volume                     1508.9
loop_
_atom_site_label
_atom_site_type_symbol
_atom_site_fract_x
_atom_site_fract_y
_atom_site_fract_z
Ag1 Ag 0.67096(3) 0.66648(6) 0.25036(2)
C1 C 0.6547(3) 0.3238(7) 0.5691(3)
O1 O 0.6571(3) 0.1907(4) 0.5290(2)
O2 O 0.6716(3) 0.3399(5) 0.65893(19)
C2 C 0.6982(5) 0.1900(7) 0.7136(3)
H1 H 0.7706 0.1991 0.7448
H2 H 0.6931 0.0877 0.6745
C3 C 0.6246(4) 0.1747(7) 0.7821(3)
H3 H 0.5527 0.1574 0.7512
H4 H 0.6441 0.0765 0.8226
O3 O 0.6314(3) 0.3319(5) 0.8343(2)
C4 C 0.6330(3) 0.3203(6) 0.9239(3)
O4 O 0.6395(3) 0.1900(4) 0.9656(2)
C5 C 0.6359(4) 0.4934(7) 0.5248(3)
C6 C 0.6486(4) 0.5085(6) 0.4351(3)
H5 H 0.6664 0.4097 0.4041
N1 N 0.6370(3) 0.6556(6) 0.3894(2)
C7 C 0.6096(4) 0.7946(6) 0.4349(3)
H6 H 0.6017 0.9005 0.4040
C8 C 0.5927(4) 0.7880(6) 0.5240(3)
H7 H 0.5718 0.8869 0.5532
C9 C 0.6065(4) 0.6356(6) 0.5704(3)
H8 H 0.5961 0.6281 0.6320
C10 C 0.6242(4) 0.4924(7) 0.9645(3)
C11 C 0.6480(4) 0.5070(6) 1.0581(3)
H9 H 0.6697 0.4087 1.0928
N2 N 0.6412(3) 0.6563(6) 1.1012(2)
C12 C 0.6111(4) 0.7948(6) 1.0510(3)
H10 H 0.6083 0.9011 1.0808
C13 C 0.5841(4) 0.7887(6) 0.9576(3)
H11 H 0.5609 0.8882 0.9246
C14 C 0.5916(3) 0.6346(6) 0.9131(3)
H12 H 0.5748 0.6270 0.8491
N3 N 0.9084(3) 0.6605(5) 0.2433(2)
O5 O 0.8616(3) 0.7963(4) 0.2545(3)
O6 O 0.9980(3) 0.6626(6) 0.2216(3)
O7 O 0.8635(3) 0.5228(5) 0.2523(3)
Ag1_2 Ag 0.67096(3) 0.66648(6) 1.25036(2)
N2_2 N 0.6412(3) 0.6563(6) 0.1012(2)
loop_
_geom_bond_atom_site_label_1
_geom_bond_atom_site_label_2
_geom_bond_site_symmetry_1
_geom_bond_site_symmetry_2
Ag1 N1 1_555 1_555
C1 O1 1_555 1_555
O2 C1 1_555 1_555
C2 O2 1_555 1_555
H1 C2 1_555 1_555
H2 C2 1_555 1_555
C3 C2 1_555 1_555
H3 C3 1_555 1_555
H4 C3 1_555 1_555
O3 C3 1_555 1_555
C4 O3 1_555 1_555
O4 C4 1_555 1_555
C5 C1 1_555 1_555
C6 C5 1_555 1_555
H5 C6 1_555 1_555
N1 C6 1_555 1_555
C7 N1 1_555 1_555
H6 C7 1_555 1_555
C8 C7 1_555 1_555
H7 C8 1_555 1_555
C9 C5 1_555 1_555
H8 C9 1_555 1_555
C10 C4 1_555 1_555
C11 C10 1_555 1_555
H9 C11 1_555 1_555
N2 C11 1_555 1_555
C12 N2 1_555 1_555
H10 C12 1_555 1_555
C13 C12 1_555 1_555
H11 C13 1_555 1_555
C14 C10 1_555 1_555
H12 C14 1_555 1_555
N3 O5 1_555 1_555
O5 Ag1 1_555 1_555
O6 N3 1_555 1_555
O7 N3 1_555 1_555
Ag1_2 N2 1_555 1_555
N2_2 Ag1 1_555 1_555
C8 C9 1_555 1_555
C13 C14 1_555 1_555

#END
