
#######################################################################
#
#                 Cambridge Crystallographic Data Centre
#                                CCDC 
#
#######################################################################
#
# If this CIF has been generated from an entry in the Cambridge 
# Structural Database, then it will include bibliographic, chemical, 
# crystal, experimental, refinement or atomic coordinate data resulting 
# from the CCDC's data processing and validation procedures.
#
#######################################################################

data_IZAHIA
_symmetry_cell_setting           monoclinic
_symmetry_space_group_name_H-M   'P 21/a'
_symmetry_Int_Tables_number      14
_space_group_name_Hall           '-P 2yab'
loop_
_symmetry_equiv_pos_site_id
_symmetry_equiv_pos_as_xyz
1 x,y,z
2 1/2+x,1/2-y,z
3 -x,-y,-z
4 1/2-x,1/2+y,-z
_cell_length_a                   7.763(6)
_cell_length_b                   9.152(4)
_cell_length_c                   8.619(6)
_cell_angle_alpha                90
_cell_angle_beta                 98.08(6)
_cell_angle_gamma                90
_cell_volume                     606.275
loop_
_atom_site_label
_atom_site_type_symbol
_atom_site_fract_x
_atom_site_fract_y
_atom_site_fract_z
Ag1 Ag 0.54980(10) 0.83606(7) 0.77040(10)
O1 O 0.6150(10) 0.6068(7) 0.8111(8)
O2 O 0.3630(10) 0.5960(7) 0.6527(9)
N1 N 0.5130(10) 0.0688(8) 0.7666(8)
C1 C 0.4870(10) 0.5390(10) 0.7340(10)
C2 C 0.4970(10) 0.3737(9) 0.7460(9)
C3 C 0.4070(10) 0.2863(9) 0.6320(10)
C4 C 0.4180(10) 0.1372(9) 0.6460(10)
C5 C 0.5990(10) 0.1556(9) 0.8790(10)
C6 C 0.5960(10) 0.3036(9) 0.8730(10)
H1 H 0.3388 0.3283 0.5456
H2 H 0.3563 0.0803 0.5670
H3 H 0.6638 0.1111 0.9650
H4 H 0.6585 0.3582 0.9526
N1_2 N 0.5130(10) 1.0688(8) 0.7666(8)
Ag1_2 Ag 0.54980(10) -0.16394(7) 0.77040(10)
loop_
_geom_bond_atom_site_label_1
_geom_bond_atom_site_label_2
_geom_bond_site_symmetry_1
_geom_bond_site_symmetry_2
Ag1 O1 1_555 1_555
O1 C1 1_555 1_555
O2 C1 1_555 1_555
N1 C4 1_555 1_555
C1 C2 1_555 1_555
C2 C3 1_555 1_555
C3 C4 1_555 1_555
C4 H2 1_555 1_555
C5 N1 1_555 1_555
C6 C2 1_555 1_555
H1 C3 1_555 1_555
H3 C5 1_555 1_555
H4 C6 1_555 1_555
N1_2 Ag1 1_555 1_555
Ag1_2 N1 1_555 1_555
C5 C6 1_555 1_555

#END
