
#######################################################################
#
#                 Cambridge Crystallographic Data Centre
#                                CCDC 
#
#######################################################################
#
# If this CIF has been generated from an entry in the Cambridge 
# Structural Database, then it will include bibliographic, chemical, 
# crystal, experimental, refinement or atomic coordinate data resulting 
# from the CCDC's data processing and validation procedures.
#
#######################################################################

data_IZANUT
_symmetry_cell_setting           orthorhombic
_symmetry_space_group_name_H-M   'P n m a'
_symmetry_Int_Tables_number      62
_space_group_name_Hall           '-P 2ac 2n'
loop_
_symmetry_equiv_pos_site_id
_symmetry_equiv_pos_as_xyz
1 x,y,z
2 1/2-x,-y,1/2+z
3 -x,1/2+y,-z
4 1/2+x,1/2-y,1/2-z
5 -x,-y,-z
6 1/2+x,y,1/2-z
7 x,1/2-y,z
8 1/2-x,1/2+y,1/2+z
_cell_length_a                   8.4498(17)
_cell_length_b                   31.165(6)
_cell_length_c                   21.534(4)
_cell_angle_alpha                90
_cell_angle_beta                 90
_cell_angle_gamma                90
_cell_volume                     5670.72
loop_
_atom_site_label
_atom_site_type_symbol
_atom_site_fract_x
_atom_site_fract_y
_atom_site_fract_z
Bi1 Bi 0.56011(7) -0.060181(17) 0.93098(3)
I1 I 0.57530(12) -0.12076(3) 1.03721(5)
I2 I 0.25437(11) -0.01354(3) 0.99319(5)
I3 I 0.85541(13) -0.09397(4) 0.87823(6)
I4 I 0.34737(15) -0.11299(4) 0.85338(6)
N1 N 0.5536(17) -0.0095(4) 0.8324(7)
N2 N 0.3981(16) 0.1194(5) 0.5741(5)
C1 C 0.3471(18) 0.1006(4) 0.6788(7)
H1 H 0.2885 0.1045 0.7160
C2 C 0.4565(18) 0.0693(5) 0.6756(8)
C3 C 0.4928(17) 0.0417(4) 0.7310(6)
C4 C 0.468(2) 0.0569(5) 0.7898(7)
H2 H 0.4306 0.0854 0.7962
C5 C 0.552(2) 0.0004(5) 0.7230(8)
H3 H 0.5702 -0.0107 0.6825
C6 C 0.3183(19) 0.1275(5) 0.6281(8)
H4 H 0.2456 0.1506 0.6311
C7 C 0.535(2) 0.0628(5) 0.6192(7)
H5 H 0.6115 0.0406 0.6159
C8 C 0.502(2) 0.0879(6) 0.5689(8)
H6 H 0.5539 0.0828 0.5304
C9 C 0.583(2) -0.0245(6) 0.7752(7)
H7 H 0.6254 -0.0526 0.7703
C10 C 0.4977(19) 0.0302(4) 0.8396(7)
H8 H 0.4777 0.0405 0.8804
C11 C 0.368(3) 0.1489(7) 0.5193(9)
H9 H 0.3656 0.1319 0.4805
H10 H 0.2638 0.1630 0.5242
C12 C 0.492(3) 0.1819(7) 0.5147(10)
H11 H 0.4911 0.1997 0.5521
H12 H 0.4727 0.1999 0.4782
H13 H 0.5958 0.1680 0.5106
Bi1D Bi 0.43989(7) 0.060181(17) 1.06902(3)
I1D I 0.42470(12) 0.12076(3) 0.96279(5)
I2D I 0.74563(11) 0.01354(3) 1.00681(5)
I3D I 0.14459(13) 0.09397(4) 1.12177(6)
I4D I 0.65263(15) 0.11299(4) 1.14662(6)
N1D N 0.4464(17) 0.0095(4) 1.1676(7)
N2D N 0.6019(16) -0.1194(5) 1.4259(5)
C1D C 0.6529(18) -0.1006(4) 1.3212(7)
H1D H 0.7115 -0.1045 1.2840
C2D C 0.5435(18) -0.0693(5) 1.3244(8)
C3D C 0.5072(17) -0.0417(4) 1.2690(6)
C4D C 0.532(2) -0.0569(5) 1.2102(7)
H2D H 0.5694 -0.0854 1.2038
C5D C 0.448(2) -0.0004(5) 1.2770(8)
H3D H 0.4298 0.0107 1.3175
C6D C 0.6817(19) -0.1275(5) 1.3719(8)
H4D H 0.7544 -0.1506 1.3689
C7D C 0.465(2) -0.0628(5) 1.3808(7)
H5D H 0.3885 -0.0406 1.3841
C8D C 0.498(2) -0.0879(6) 1.4311(8)
H6D H 0.4461 -0.0828 1.4696
C9D C 0.417(2) 0.0245(6) 1.2248(7)
H7D H 0.3746 0.0526 1.2297
C10D C 0.5023(19) -0.0302(4) 1.1604(7)
H8D H 0.5223 -0.0405 1.1196
C11D C 0.632(3) -0.1489(7) 1.4807(9)
H9D H 0.6344 -0.1319 1.5195
H10D H 0.7362 -0.1630 1.4758
C12D C 0.508(3) -0.1819(7) 1.4853(10)
H11D H 0.5089 -0.1997 1.4479
H12D H 0.5273 -0.1999 1.5218
H13D H 0.4042 -0.1680 1.4894
Bi2 Bi 0.9566(4) 0.2500 0.74551(12)
I5 I 1.2079(12) 0.2500 0.6387(3)
I6 I 0.7045(7) 0.18114(8) 0.69023(17)
Bi2E Bi 1.4566(4) 0.2500 0.75449(12)
Bi2E_2 Bi 0.4566(4) 0.2500 0.75449(12)
I5E I 0.7079(12) 0.2500 0.8613(3)
I6E I 1.2045(7) 0.18114(8) 0.80977(17)
I6F I 0.7045(7) 0.31886(8) 0.69023(17)
I6C I 1.2045(7) 0.31886(8) 0.80977(17)
N3 N 0.856(4) 0.2500 0.4413(17)
N4 N 0.908(4) 0.2500 0.1116(18)
C13 C 0.873(5) 0.2500 0.309(2)
C14 C 0.836(5) 0.2500 0.516(2)
H14 H 0.7838 0.2761 0.5318
H15 H 0.7838 0.2239 0.5318
C15 C 0.858(4) 0.2134(11) 0.4081(15)
H16 H 0.8501 0.1870 0.4298
C16 C 0.872(3) 0.2122(11) 0.3431(14)
H17 H 0.8798 0.1854 0.3225
C17 C 0.899(2) 0.2133(11) 0.2131(15)
H18 H 0.9025 0.1868 0.2347
C18 C 0.885(5) 0.2500 0.243(2)
C19 C 1.007(6) 0.2500 0.525(2)
C20 C 0.910(2) 0.2153(13) 0.1493(16)
H19 H 0.9208 0.1884 0.1289
C15F C 0.858(4) 0.2866(11) 0.4081(15)
H16F H 0.8501 0.3130 0.4298
C16F C 0.872(3) 0.2878(11) 0.3431(14)
H17F H 0.8798 0.3146 0.3225
C17F C 0.899(2) 0.2867(11) 0.2131(15)
H18F H 0.9025 0.3132 0.2347
C20F C 0.910(2) 0.2847(13) 0.1493(16)
H19F H 0.9208 0.3116 0.1289
Bi3? Bi 1.0854(5) 0.2500 0.75301(14)
I7? I 1.3407(10) 0.2500 0.6453(3)
I8? I 0.8470(13) 0.18311(13) 0.6824(2)
H20? H 1.0433 0.2793 0.5338
H21? H 1.0596 0.2395 0.4872
H22? H 1.0343 0.2312 0.5598
loop_
_geom_bond_atom_site_label_1
_geom_bond_atom_site_label_2
_geom_bond_site_symmetry_1
_geom_bond_site_symmetry_2
Bi1 I1 1_555 1_555
I2 Bi1 1_555 1_555
I3 Bi1 1_555 1_555
I4 Bi1 1_555 1_555
N1 Bi1 1_555 1_555
N2 C6 1_555 1_555
C1 H1 1_555 1_555
C2 C1 1_555 1_555
C3 C2 1_555 1_555
C4 C3 1_555 1_555
H2 C4 1_555 1_555
C5 C3 1_555 1_555
H3 C5 1_555 1_555
C6 C1 1_555 1_555
H4 C6 1_555 1_555
C7 C2 1_555 1_555
H5 C7 1_555 1_555
C8 N2 1_555 1_555
H6 C8 1_555 1_555
C9 N1 1_555 1_555
H7 C9 1_555 1_555
C10 N1 1_555 1_555
H8 C10 1_555 1_555
C11 N2 1_555 1_555
H9 C11 1_555 1_555
H10 C11 1_555 1_555
C12 C11 1_555 1_555
H11 C12 1_555 1_555
H12 C12 1_555 1_555
H13 C12 1_555 1_555
Bi2 I5 1_555 1_555
I5 Bi2E 1_555 1_555
I6 Bi2 1_555 1_555
N3 C14 1_555 1_555
N4 C20 1_555 1_555
C13 C16 1_555 1_555
C14 H14 1_555 1_555
H15 C14 1_555 1_555
C15 N3 1_555 1_555
H16 C15 1_555 1_555
C16 C15 1_555 1_555
H17 C16 1_555 1_555
C17 H18 1_555 1_555
C18 C13 1_555 1_555
C19 C14 1_555 1_555
C20 C17 1_555 1_555
H19 C20 1_555 1_555
Bi1D I2 1_555 1_555
I1D Bi1D 1_555 1_555
I2D Bi1 1_555 1_555
I3D Bi1D 1_555 1_555
I4D Bi1D 1_555 1_555
N1D Bi1D 1_555 1_555
N2D C6D 1_555 1_555
C1D H1D 1_555 1_555
C2D C1D 1_555 1_555
C3D C2D 1_555 1_555
C4D C3D 1_555 1_555
H2D C4D 1_555 1_555
C5D C3D 1_555 1_555
H3D C5D 1_555 1_555
C6D C1D 1_555 1_555
H4D C6D 1_555 1_555
C7D C2D 1_555 1_555
H5D C7D 1_555 1_555
C8D N2D 1_555 1_555
H6D C8D 1_555 1_555
C9D N1D 1_555 1_555
H7D C9D 1_555 1_555
C10D N1D 1_555 1_555
H8D C10D 1_555 1_555
C11D N2D 1_555 1_555
H9D C11D 1_555 1_555
H10D C11D 1_555 1_555
C12D C11D 1_555 1_555
H11D C12D 1_555 1_555
H12D C12D 1_555 1_555
H13D C12D 1_555 1_555
Bi2E I6E 1_555 1_555
Bi2E_2 I6 1_555 1_555
I5E Bi2 1_555 1_555
I6E Bi2 1_555 1_555
I6F Bi2 1_555 1_555
I6C Bi2 1_555 1_555
C15F N3 1_555 1_555
H16F C15F 1_555 1_555
C16F C13 1_555 1_555
H17F C16F 1_555 1_555
C17F C18 1_555 1_555
H18F C17F 1_555 1_555
C20F N4 1_555 1_555
H19F C20F 1_555 1_555
C4 C10 1_555 1_555
C5 C9 1_555 1_555
C7 C8 1_555 1_555
C17 C18 1_555 1_555
Bi1D I2D 1_555 1_555
C4D C10D 1_555 1_555
C5D C9D 1_555 1_555
C7D C8D 1_555 1_555
Bi2E I6C 1_555 1_555
Bi2E_2 I5E 1_555 1_555
Bi2E_2 I6F 1_555 1_555
C15F C16F 1_555 1_555
C17F C20F 1_555 1_555

#END
