
#######################################################################
#
#                 Cambridge Crystallographic Data Centre
#                                CCDC 
#
#######################################################################
#
# If this CIF has been generated from an entry in the Cambridge 
# Structural Database, then it will include bibliographic, chemical, 
# crystal, experimental, refinement or atomic coordinate data resulting 
# from the CCDC's data processing and validation procedures.
#
#######################################################################

data_IZASUX
_symmetry_cell_setting           monoclinic
_symmetry_space_group_name_H-M   'P 21/n'
_symmetry_Int_Tables_number      14
_space_group_name_Hall           '-P 2yn'
loop_
_symmetry_equiv_pos_site_id
_symmetry_equiv_pos_as_xyz
1 x,y,z
2 1/2+x,1/2-y,1/2+z
3 -x,-y,-z
4 1/2-x,1/2+y,1/2-z
_cell_length_a                   8.5404(6)
_cell_length_b                   7.3459(5)
_cell_length_c                   18.3735(11)
_cell_angle_alpha                90
_cell_angle_beta                 103.045(2)
_cell_angle_gamma                90
_cell_volume                     1122.95
loop_
_atom_site_label
_atom_site_type_symbol
_atom_site_fract_x
_atom_site_fract_y
_atom_site_fract_z
Mo1 Mo 0.35759(7) 0.12365(9) 0.44005(3)
Mo2 Mo 0.66692(7) 0.37571(9) 0.53880(3)
O1 O 0.2951(6) 0.1656(8) 0.5503(3)
O3 O 0.4387(7) 0.0888(7) 0.3639(3)
O4 O 0.1590(7) 0.1258(8) 0.4016(3)
O5 O 0.6083(6) 0.1222(7) 0.5183(3)
O6 O 0.5002(6) 0.3275(7) 0.6193(3)
O7 O 0.7675(7) 0.4084(8) 0.4706(3)
O8 O 0.8135(7) 0.3678(8) 0.6176(3)
O9 O 0.4215(6) 0.3787(7) 0.4564(3)
N1 N 0.0791(9) 0.1644(11) 0.7295(4)
H3 H -0.0226 0.1474 0.7235
C1 C 0.3969(10) 0.2199(11) 0.7488(4)
H4 H 0.5062 0.2435 0.7555
C2 C 0.3018(9) 0.2097(11) 0.6776(4)
C3 C 0.1395(10) 0.1846(12) 0.6682(5)
H5 H 0.0725 0.1816 0.6206
C4 C 0.3310(11) 0.1952(13) 0.8111(5)
H6 H 0.3951 0.1962 0.8593
C5 C 0.1690(10) 0.1696(12) 0.7985(5)
H7 H 0.1209 0.1555 0.8388
C6 C 0.3709(9) 0.2375(10) 0.6099(4)
O5B O 0.3917(6) -0.1222(7) 0.4817(3)
O9B O 0.5785(6) 0.6213(7) 0.5436(3)
Mo1B Mo 0.64241(7) -0.12365(9) 0.55995(3)
Mo2B Mo 0.33308(7) 0.62429(9) 0.46120(3)
O2 O 0.7871(8) 0.0687(11) 0.7544(3)
H1 H 0.809(13) 0.028(14) 0.797(3)
H2 H 0.737(12) -0.010(11) 0.727(5)
loop_
_geom_bond_atom_site_label_1
_geom_bond_atom_site_label_2
_geom_bond_site_symmetry_1
_geom_bond_site_symmetry_2
Mo1 O1 1_555 1_555
Mo2 O5 1_555 1_555
O1 C6 1_555 1_555
O2 H1 1_555 1_555
H2 O2 1_555 1_555
O3 Mo1 1_555 1_555
O4 Mo1 1_555 1_555
O5 Mo1 1_555 1_555
O6 Mo2 1_555 1_555
O7 Mo2 1_555 1_555
O8 Mo2 1_555 1_555
O9 Mo1 1_555 1_555
N1 H3 1_555 1_555
C1 H4 1_555 1_555
C2 C1 1_555 1_555
C3 N1 1_555 1_555
H5 C3 1_555 1_555
C4 C1 1_555 1_555
H6 C4 1_555 1_555
C5 N1 1_555 1_555
H7 C5 1_555 1_555
C6 O6 1_555 1_555
O5B Mo1 1_555 1_555
O9B Mo2 1_555 1_555
Mo1B O5 1_555 1_555
Mo2B O9 1_555 1_555
Mo2 O9 1_555 1_555
C2 C6 1_555 1_555
C2 C3 1_555 1_555
C4 C5 1_555 1_555
O5B Mo1B 1_555 1_555
O9B Mo2B 1_555 1_555

#END
