
#######################################################################
#
#                 Cambridge Crystallographic Data Centre
#                                CCDC 
#
#######################################################################
#
# If this CIF has been generated from an entry in the Cambridge 
# Structural Database, then it will include bibliographic, chemical, 
# crystal, experimental, refinement or atomic coordinate data resulting 
# from the CCDC's data processing and validation procedures.
#
#######################################################################

data_IZAVUA01
_symmetry_cell_setting           monoclinic
_symmetry_space_group_name_H-M   'P 21/n'
_symmetry_Int_Tables_number      14
_space_group_name_Hall           '-P 2yn'
loop_
_symmetry_equiv_pos_site_id
_symmetry_equiv_pos_as_xyz
1 x,y,z
2 1/2-x,1/2+y,1/2-z
3 -x,-y,-z
4 1/2+x,1/2-y,1/2+z
_cell_length_a                   7.9076(2)
_cell_length_b                   15.2955(4)
_cell_length_c                   10.4404(3)
_cell_angle_alpha                90
_cell_angle_beta                 92.686(2)
_cell_angle_gamma                90
_cell_volume                     1261.39
loop_
_atom_site_label
_atom_site_type_symbol
_atom_site_fract_x
_atom_site_fract_y
_atom_site_fract_z
La1 La 0.00033(4) 0.33986(2) 0.95674(3)
S1 S 0.2042(2) -0.15945(10) 0.83014(14)
O1 O 0.0477(6) 0.1794(3) 0.8902(4)
O3 O 0.2300(7) 0.2287(3) 1.0332(5)
O4 O 0.4230(7) -0.1222(3) 1.3143(4)
O5 O 0.4595(7) 0.0178(3) 1.3484(4)
O6 O 0.1670(6) -0.2365(3) 0.9028(4)
O7 O 0.3581(6) -0.1700(3) 0.7622(4)
O8 O 0.0653(6) -0.1302(3) 0.7462(4)
O9 O -0.2502(6) 0.2846(3) 0.8141(4)
H3 H -0.3262 0.3211 0.8124
H4 H -0.266(9) 0.247(4) 0.759(5)
O10 O -0.2663(7) 0.4075(4) 1.0152(6)
H5 H -0.3213 0.3723 1.0553
H6 H -0.279(11) 0.4607(8) 1.012(9)
O11 O 0.2898(6) 0.4168(3) 0.9714(4)
H7 H 0.3516 0.3925 1.0257
H8 H 0.350(9) 0.406(6) 0.912(5)
C1 C 0.2270(8) 0.0762(4) 0.9952(6)
C2 C 0.3106(8) 0.0577(4) 1.1107(6)
H9 H 0.3394 0.1030 1.1668
C3 C 0.3522(8) -0.0269(4) 1.1442(6)
C4 C 0.3213(8) -0.0935(4) 1.0578(6)
H10 H 0.3536 -0.1505 1.0781
C5 C 0.2421(8) -0.0747(4) 0.9411(6)
C6 C 0.1912(9) 0.0088(4) 0.9095(6)
H11 H 0.1335 0.0199 0.8315
C7 C 0.1678(9) 0.1667(4) 0.9693(6)
C8 C 0.4192(8) -0.0458(4) 1.2788(6)
La1A La 0.49967(4) -0.16014(2) 1.54326(3)
La1C La 0.50033(4) 0.16014(2) 1.45674(3)
La1B La -0.00033(4) -0.33986(2) 1.04326(3)
La1A_2 La 0.49967(4) -0.16014(2) 0.54326(3)
O4A O 0.0770(7) 0.3778(3) 1.1857(4)
O5C O -0.0405(7) 0.4822(3) 0.8484(4)
O6B O -0.1670(6) 0.2365(3) 1.0972(4)
O7A O 0.1419(6) 0.3300(3) 0.7378(4)
O2 O 0.4842(7) 0.3379(4) 1.1451(5)
H1 H 0.535(11) 0.327(6) 1.214(5)
H2 H 0.468(12) 0.287(2) 1.124(9)
loop_
_geom_bond_atom_site_label_1
_geom_bond_atom_site_label_2
_geom_bond_site_symmetry_1
_geom_bond_site_symmetry_2
La1 O1 1_555 1_555
S1 O6 1_555 1_555
O1 C7 1_555 1_555
O2 H1 1_555 1_555
H2 O2 1_555 1_555
O3 La1 1_555 1_555
O4 C8 1_555 1_555
O5 C8 1_555 1_555
O6 La1B 1_555 1_555
O7 S1 1_555 1_555
O8 S1 1_555 1_555
O9 La1 1_555 1_555
H3 O9 1_555 1_555
H4 O9 1_555 1_555
O10 La1 1_555 1_555
H5 O10 1_555 1_555
H6 O10 1_555 1_555
O11 La1 1_555 1_555
H7 O11 1_555 1_555
H8 O11 1_555 1_555
C1 C2 1_555 1_555
C2 H9 1_555 1_555
C3 C2 1_555 1_555
C4 C3 1_555 1_555
H10 C4 1_555 1_555
C5 S1 1_555 1_555
C6 C1 1_555 1_555
H11 C6 1_555 1_555
C7 O3 1_555 1_555
C8 C3 1_555 1_555
La1A O4 1_555 1_555
La1C O5 1_555 1_555
La1A_2 O7 1_555 1_555
O4A La1 1_555 1_555
O5C La1 1_555 1_555
O6B La1 1_555 1_555
O7A La1 1_555 1_555
C1 C7 1_555 1_555
C4 C5 1_555 1_555
C5 C6 1_555 1_555

#END
