
#######################################################################
#
#                 Cambridge Crystallographic Data Centre
#                                CCDC 
#
#######################################################################
#
# If this CIF has been generated from an entry in the Cambridge 
# Structural Database, then it will include bibliographic, chemical, 
# crystal, experimental, refinement or atomic coordinate data resulting 
# from the CCDC's data processing and validation procedures.
#
#######################################################################

data_IZAXIR
_symmetry_cell_setting           triclinic
_symmetry_space_group_name_H-M   'P -1'
_symmetry_Int_Tables_number      2
_space_group_name_Hall           '-P 1'
loop_
_symmetry_equiv_pos_site_id
_symmetry_equiv_pos_as_xyz
1 x,y,z
2 -x,-y,-z
_cell_length_a                   10.8303(7)
_cell_length_b                   11.4692(7)
_cell_length_c                   11.5697(8)
_cell_angle_alpha                75.5480(10)
_cell_angle_beta                 62.6250(10)
_cell_angle_gamma                62.0940(10)
_cell_volume                     1126.71
loop_
_atom_site_label
_atom_site_type_symbol
_atom_site_fract_x
_atom_site_fract_y
_atom_site_fract_z
Cu1 Cu 0.87249(3) 0.30177(3) 0.21540(3)
Cu2 Cu -0.08370(3) 0.51285(3) 0.32911(3)
Cu3 Cu 1.0000 0.5000 0.0000
O1 O 1.01671(18) 0.15088(16) 0.26846(17)
O2 O 1.21570(18) 0.20263(16) 0.20327(17)
O3 O 1.01649(18) -0.27143(16) 0.46949(17)
O4 O 1.18694(18) -0.39872(15) 0.55751(15)
O5 O 1.67543(19) -0.35554(16) 0.32387(18)
O6 O 1.6752(2) -0.16166(18) 0.2676(2)
O7 O 0.69856(18) 0.43273(16) 0.18096(17)
O8 O 0.78295(18) 0.57914(16) 0.03816(16)
O9 O 0.21103(18) 0.44483(16) 0.27634(16)
O10 O 0.03741(17) 0.61874(16) 0.22013(15)
O11 O 0.1874(2) 0.98082(18) -0.0429(2)
O12 O 0.3649(2) 1.00155(17) -0.02210(18)
O13 O 0.97615(17) 0.42023(15) 0.17823(15)
H1 H 1.0808 0.3567 0.1646
O14 O 1.0278(2) 0.26992(17) -0.00982(17)
H2 H 1.1029 0.1948 -0.0239
H3 H 1.0078 0.2899 -0.0770
O15 O 0.7543(2) 0.19378(18) 0.2795(2)
H4 H 0.6932 0.2024 0.2479
H5 H 0.7955 0.1114 0.2964
O16 O -0.15338(18) 0.61743(16) 0.47349(15)
H6 H -0.0976 0.6537 0.4671
H7 H -0.1867 0.5922 0.5532
N1 N 1.6104(2) -0.23541(19) 0.30859(19)
N2 N 0.2965(2) 0.9373(2) -0.0129(2)
C1 C 1.2286(3) -0.0079(2) 0.3084(2)
C2 C 1.1513(3) -0.0891(2) 0.3719(2)
H8 H 1.0509 -0.0584 0.3822
C3 C 1.2206(3) -0.2154(2) 0.4203(2)
C4 C 1.3717(3) -0.2630(2) 0.4025(2)
H9 H 1.4206 -0.3470 0.4340
C5 C 1.4472(2) -0.1811(2) 0.3363(2)
C6 C 1.3803(3) -0.0541(2) 0.2901(2)
H10 H 1.4344 -0.0015 0.2483
C7 C 1.1510(3) 0.1272(2) 0.2546(2)
C8 C 1.1335(3) -0.3009(2) 0.4870(2)
C9 C 0.5292(2) 0.6110(2) 0.1011(2)
C10 C 0.4247(3) 0.5537(2) 0.1576(2)
H11 H 0.4514 0.4700 0.1981
C11 C 0.2805(3) 0.6202(2) 0.1544(2)
C12 C 0.2400(3) 0.7457(2) 0.0950(2)
H12 H 0.1447 0.7914 0.0912
C13 C 0.3454(3) 0.8010(2) 0.0415(2)
C14 C 0.4900(3) 0.7371(2) 0.0414(2)
H13 H 0.5584 0.7768 0.0031
C15 C 0.6833(3) 0.5352(2) 0.1070(2)
C16 C 0.1710(3) 0.5553(2) 0.2211(2)
Cu1A Cu 1.12751(3) 0.69823(3) -0.21540(3)
Cu1A_2 Cu 0.12751(3) -0.30177(3) 0.78460(3)
Cu2A Cu 2.08370(3) 0.48715(3) -0.32911(3)
Cu2A_2 Cu 1.08370(3) -0.51285(3) 0.67089(3)
Cu2_2 Cu 1.91630(3) -0.48715(3) 0.32911(3)
Cu2_3 Cu 0.91630(3) 0.51285(3) 0.32911(3)
Cu2A_3 Cu 1.08370(3) 0.48715(3) -0.32911(3)
Cu2A_4 Cu -0.91630(3) 0.48715(3) 0.67089(3)
O1A O -0.01671(18) -0.15088(16) 0.73154(17)
O1A_2 O 0.98329(18) 0.84912(16) -0.26846(17)
O2A O -0.21570(18) -0.20263(16) 0.79673(17)
O3A O -0.01649(18) 0.27143(16) 0.53051(17)
O4A O -0.18694(18) 0.39872(15) 0.44249(15)
O4_2 O 2.18694(18) 0.60128(15) -0.44249(15)
O5A O -0.67543(19) 0.35554(16) 0.67613(18)
O5_2 O -0.32457(19) 0.64446(16) 0.32387(18)
O5A_2 O 2.32457(19) 0.35554(16) -0.32387(18)
O6A O -0.6752(2) 0.16166(18) 0.7324(2)
O7A O 1.30144(18) 0.56727(16) -0.18096(17)
O8A O 1.21705(18) 0.42086(16) -0.03816(16)
O9A O 1.78897(18) 0.55517(16) -0.27634(16)
O10A O 1.96259(17) 0.38126(16) -0.22013(15)
O11A O 1.8126(2) 0.01918(18) 0.0429(2)
O12A O 1.6351(2) -0.00155(17) 0.02210(18)
O13A O 1.02385(17) 0.57977(15) -0.17823(15)
O13_2 O -0.02385(17) 0.42023(15) 0.17823(15)
O13A_2 O 2.02385(17) 0.57977(15) -0.17823(15)
H1A H 0.9192 0.6433 -0.1646
H1_2 H 0.0808 0.3567 0.1646
H1A_2 H 1.9192 0.6433 -0.1646
O14A O 0.9722(2) 0.73008(17) 0.00982(17)
H2A H 0.8971 0.8052 0.0239
H3A H 0.9922 0.7101 0.0770
O15A O 1.2457(2) 0.80622(18) -0.2795(2)
H4A H 1.3068 0.7976 -0.2479
H5A H 1.2045 0.8886 -0.2964
O16A O 2.15338(18) 0.38257(16) -0.47349(15)
H6A H 2.0976 0.3463 -0.4671
H7A H 2.1867 0.4078 -0.5532
N1A N -0.6104(2) 0.23541(19) 0.69141(19)
N2A N 1.7035(2) 0.0627(2) 0.0129(2)
C1A C -0.2286(3) 0.0079(2) 0.6916(2)
C2A C -0.1513(3) 0.0891(2) 0.6281(2)
H8A H -0.0509 0.0584 0.6178
C3A C -0.2206(3) 0.2154(2) 0.5797(2)
C4A C -0.3717(3) 0.2630(2) 0.5975(2)
H9A H -0.4206 0.3470 0.5660
C5A C -0.4472(2) 0.1811(2) 0.6637(2)
C6A C -0.3803(3) 0.0541(2) 0.7099(2)
H10A H -0.4344 0.0015 0.7517
C7A C -0.1510(3) -0.1272(2) 0.7454(2)
C8A C -0.1335(3) 0.3009(2) 0.5130(2)
C9A C 1.4708(2) 0.3890(2) -0.1011(2)
C10A C 1.5753(3) 0.4463(2) -0.1576(2)
H11A H 1.5486 0.5300 -0.1981
C11A C 1.7195(3) 0.3798(2) -0.1544(2)
C12A C 1.7600(3) 0.2543(2) -0.0950(2)
H12A H 1.8553 0.2086 -0.0912
C13A C 1.6546(3) 0.1990(2) -0.0415(2)
C14A C 1.5100(3) 0.2629(2) -0.0414(2)
H13A H 1.4416 0.2232 -0.0031
C15A C 1.3167(3) 0.4648(2) -0.1070(2)
C16A C 1.8290(3) 0.4447(2) -0.2211(2)
O17 O 0.4909(2) 0.20622(19) 0.2746(2)
H14 H 0.4071 0.2574 0.2674
H15 H 0.4661 0.1680 0.3496
O18 O 0.1639(3) 0.0722(2) 0.6569(3)
H16 H 0.1062 0.1283 0.6197
H17 H 0.1767 0.1177 0.6948
O19 O 0.5000 0.0000 0.5000
loop_
_geom_bond_atom_site_label_1
_geom_bond_atom_site_label_2
_geom_bond_site_symmetry_1
_geom_bond_site_symmetry_2
Cu1 O1 1_555 1_555
Cu2 O10 1_555 1_555
Cu3 O8 1_555 1_555
O1 C7 1_555 1_555
O2 C7 1_555 1_555
O3 C8 1_555 1_555
O4 C8 1_555 1_555
O5 N1 1_555 1_555
O6 N1 1_555 1_555
O7 Cu1 1_555 1_555
O8 C15 1_555 1_555
O9 C16 1_555 1_555
O10 C16 1_555 1_555
O11 N2 1_555 1_555
O12 N2 1_555 1_555
O13 Cu1 1_555 1_555
H1 O13 1_555 1_555
O14 Cu1 1_555 1_555
H2 O14 1_555 1_555
H3 O14 1_555 1_555
O15 Cu1 1_555 1_555
H4 O15 1_555 1_555
H5 O15 1_555 1_555
O16 Cu2 1_555 1_555
H6 O16 1_555 1_555
H7 O16 1_555 1_555
N1 C5 1_555 1_555
N2 C13 1_555 1_555
C1 C2 1_555 1_555
C2 H8 1_555 1_555
C3 C2 1_555 1_555
C4 C3 1_555 1_555
H9 C4 1_555 1_555
C5 C4 1_555 1_555
C6 C1 1_555 1_555
H10 C6 1_555 1_555
C7 C1 1_555 1_555
C8 C3 1_555 1_555
C9 C10 1_555 1_555
C10 H11 1_555 1_555
C11 C10 1_555 1_555
C12 C11 1_555 1_555
H12 C12 1_555 1_555
C13 C12 1_555 1_555
C14 C9 1_555 1_555
H13 C14 1_555 1_555
C15 O7 1_555 1_555
C16 C11 1_555 1_555
O17 H14 1_555 1_555
H15 O17 1_555 1_555
O18 H16 1_555 1_555
H17 O18 1_555 1_555
Cu1A O1A_2 1_555 1_555
Cu1A_2 O1A 1_555 1_555
Cu2A O4_2 1_555 1_555
Cu2A_2 O4 1_555 1_555
Cu2_2 O5 1_555 1_555
Cu2_3 O13 1_555 1_555
Cu2A_3 O13A 1_555 1_555
Cu2A_4 O5A 1_555 1_555
O1A C7A 1_555 1_555
O2A C7A 1_555 1_555
O3A C8A 1_555 1_555
O4A Cu2 1_555 1_555
O5A N1A 1_555 1_555
O5_2 Cu2 1_555 1_555
O5A_2 Cu2A 1_555 1_555
O6A N1A 1_555 1_555
O7A Cu1A 1_555 1_555
O8A Cu3 1_555 1_555
O9A C16A 1_555 1_555
O10A Cu2A 1_555 1_555
O11A N2A 1_555 1_555
O12A N2A 1_555 1_555
O13A Cu3 1_555 1_555
O13_2 Cu2 1_555 1_555
O13A_2 Cu2A 1_555 1_555
H1A O13A 1_555 1_555
H1_2 O13_2 1_555 1_555
H1A_2 O13A_2 1_555 1_555
O14A Cu3 1_555 1_555
H2A O14A 1_555 1_555
H3A O14A 1_555 1_555
O15A Cu1A 1_555 1_555
H4A O15A 1_555 1_555
H5A O15A 1_555 1_555
O16A Cu2A 1_555 1_555
H6A O16A 1_555 1_555
H7A O16A 1_555 1_555
N1A C5A 1_555 1_555
N2A C13A 1_555 1_555
C1A C2A 1_555 1_555
C2A H8A 1_555 1_555
C3A C2A 1_555 1_555
C4A C3A 1_555 1_555
H9A C4A 1_555 1_555
C5A C4A 1_555 1_555
C6A C1A 1_555 1_555
H10A C6A 1_555 1_555
C7A C1A 1_555 1_555
C8A O4A 1_555 1_555
C9A C10A 1_555 1_555
C10A H11A 1_555 1_555
C11A C10A 1_555 1_555
C12A C11A 1_555 1_555
H12A C12A 1_555 1_555
C13A C12A 1_555 1_555
C14A C9A 1_555 1_555
H13A C14A 1_555 1_555
C15A O7A 1_555 1_555
C16A O10A 1_555 1_555
Cu3 O13 1_555 1_555
Cu3 O14 1_555 1_555
C5 C6 1_555 1_555
C9 C15 1_555 1_555
C13 C14 1_555 1_555
Cu1A O13A 1_555 1_555
Cu1A O14A 1_555 1_555
O8A C15A 1_555 1_555
C3A C8A 1_555 1_555
C5A C6A 1_555 1_555
C9A C15A 1_555 1_555
C11A C16A 1_555 1_555
C13A C14A 1_555 1_555

#END
