
#######################################################################
#
#                 Cambridge Crystallographic Data Centre
#                                CCDC 
#
#######################################################################
#
# If this CIF has been generated from an entry in the Cambridge 
# Structural Database, then it will include bibliographic, chemical, 
# crystal, experimental, refinement or atomic coordinate data resulting 
# from the CCDC's data processing and validation procedures.
#
#######################################################################

data_IZAYOY
_symmetry_cell_setting           monoclinic
_symmetry_space_group_name_H-M   'P 21/n'
_symmetry_Int_Tables_number      14
_space_group_name_Hall           '-P 2yn'
loop_
_symmetry_equiv_pos_site_id
_symmetry_equiv_pos_as_xyz
1 x,y,z
2 1/2-x,1/2+y,1/2-z
3 -x,-y,-z
4 1/2+x,1/2-y,1/2+z
_cell_length_a                   16.2217(8)
_cell_length_b                   14.4577(7)
_cell_length_c                   23.2526(11)
_cell_angle_alpha                90
_cell_angle_beta                 109.3110(10)
_cell_angle_gamma                90
_cell_volume                     5146.57
loop_
_atom_site_label
_atom_site_type_symbol
_atom_site_fract_x
_atom_site_fract_y
_atom_site_fract_z
C1 C 0.1970(4) -0.0062(4) 0.8307(2)
C2 C 0.2378(4) 0.0773(4) 0.8683(2)
C3 C 0.2602(4) 0.1502(4) 0.8369(3)
C4 C 0.2998(4) 0.2313(4) 0.8657(2)
C5 C 0.3167(4) 0.3043(4) 0.8243(3)
C6 C 0.3190(4) 0.2414(4) 0.9290(3)
C7 C 0.3654(6) 0.3243(5) 0.9651(3)
H1 H 0.3763 0.3689 0.9379
H2 H 0.4198 0.3049 0.9942
H3 H 0.3294 0.3517 0.9860
C8 C 0.2954(4) 0.1675(4) 0.9579(3)
C9 C 0.2547(4) 0.0850(4) 0.9314(3)
C10 C 0.2293(6) 0.0131(5) 0.9698(3)
H4 H 0.2465 0.0338 1.0113
H5 H 0.2581 -0.0442 0.9678
H6 H 0.1672 0.0041 0.9546
C11 C 0.1295(4) -0.4321(4) 0.7721(2)
C12 C 0.0764(4) -0.5164(4) 0.7453(3)
C13 C 0.1169(4) -0.5850(4) 0.7229(3)
C14 C 0.0753(4) -0.6670(4) 0.6995(2)
C15 C 0.1293(4) -0.7403(4) 0.6823(3)
C16 C -0.0123(4) -0.6811(4) 0.6940(3)
C17 C -0.0629(5) -0.7692(4) 0.6688(3)
H7 H -0.0259 -0.8114 0.6568
H8 H -0.1128 -0.7543 0.6340
H9 H -0.0821 -0.7974 0.6996
C18 C -0.0523(4) -0.6085(4) 0.7141(3)
C19 C -0.0113(4) -0.5265(4) 0.7419(3)
C20 C -0.0590(5) -0.4589(5) 0.7690(4)
H10 H -0.0218 -0.4070 0.7855
H11 H -0.0747 -0.4887 0.8008
H12 H -0.1109 -0.4379 0.7378
C21 C -0.0309(4) -0.0025(4) 0.6215(3)
C22 C -0.1233(4) -0.0285(4) 0.5882(3)
C23 C -0.1395(4) -0.0563(4) 0.5284(3)
C24 C -0.2230(4) -0.0856(4) 0.4915(3)
C25 C -0.2312(4) -0.1173(4) 0.4284(3)
C26 C -0.2931(4) -0.0810(5) 0.5140(3)
C27 C -0.3857(4) -0.1090(7) 0.4751(4)
H13 H -0.3858 -0.1287 0.4357
H14 H -0.4242 -0.0570 0.4706
H15 H -0.4053 -0.1588 0.4947
C28 C -0.2727(4) -0.0496(5) 0.5733(3)
C29 C -0.1915(4) -0.0251(5) 0.6134(3)
C30 C -0.1804(5) 0.0049(6) 0.6771(3)
H16 H -0.1202 0.0199 0.6979
H17 H -0.1979 -0.0443 0.6983
H18 H -0.2159 0.0584 0.6761
C31 C 0.0294(5) -0.1498(6) 0.8849(4)
C32 C -0.0939(9) -0.0748(9) 0.8992(9)
H19 H -0.1508 -0.0905 0.9005
H20 H -0.0996 -0.0308 0.8672
H21 H -0.0595 -0.0484 0.9375
C33 C -0.1005(8) -0.2450(8) 0.8738(6)
H22 H -0.1565 -0.2365 0.8786
H23 H -0.0689 -0.2924 0.9011
H24 H -0.1084 -0.2630 0.8325
O1 O 0.1705(3) 0.0014(3) 0.77473(18)
O2 O 0.1921(3) -0.0807(3) 0.85682(19)
O3 O 0.3150(4) 0.2795(3) 0.7726(2)
O4 O 0.3293(3) 0.3853(3) 0.8432(2)
O5 O 0.2612(5) 0.2187(5) 1.0411(3)
O6 O 0.3774(5) 0.1387(4) 1.0575(2)
O7 O 0.0911(3) -0.3590(3) 0.7786(2)
O8 O 0.2104(3) -0.4364(3) 0.7841(2)
O9 O 0.1883(3) -0.7139(3) 0.6621(2)
O10 O 0.1148(3) -0.8221(3) 0.6922(2)
O11 O -0.1955(4) -0.5674(5) 0.6674(4)
O12 O -0.1676(5) -0.6703(6) 0.7369(5)
O13 O 0.0032(3) -0.0121(3) 0.67817(19)
O14 O 0.0142(3) 0.0288(3) 0.5912(2)
O15 O -0.1822(3) -0.0761(4) 0.40448(19)
O16 O -0.2821(3) -0.1816(3) 0.40489(19)
O17 O -0.3864(6) 0.0296(6) 0.5899(4)
O18 O -0.3670(6) -0.1096(7) 0.6203(4)
O19 O 0.0335(3) -0.1660(3) 0.7539(2)
O20 O 0.0688(4) -0.2168(3) 0.8735(2)
N1 N 0.3132(5) 0.1758(4) 1.0240(3)
N2 N -0.1468(4) -0.6157(5) 0.7053(4)
N3 N -0.3471(5) -0.0418(6) 0.5971(3)
N4 N -0.0511(4) -0.1579(5) 0.8876(4)
Er1 Er 0.145368(16) 0.032276(15) 0.675059(11)
Er2 Er 0.165013(17) -0.227804(16) 0.819021(11)
C1B C -0.1970(4) 0.0062(4) 0.1693(2)
C2B C -0.2378(4) -0.0773(4) 0.1317(2)
C3B C -0.2602(4) -0.1502(4) 0.1631(3)
C4B C -0.2998(4) -0.2313(4) 0.1343(2)
C5B C -0.3167(4) -0.3043(4) 0.1757(3)
C6B C -0.3190(4) -0.2414(4) 0.0710(3)
C7B C -0.3654(6) -0.3243(5) 0.0349(3)
H1B H -0.3763 -0.3689 0.0621
H2B H -0.4198 -0.3049 0.0058
H3B H -0.3294 -0.3517 0.0140
C8B C -0.2954(4) -0.1675(4) 0.0421(3)
C9B C -0.2547(4) -0.0850(4) 0.0686(3)
C10B C -0.2293(6) -0.0131(5) 0.0302(3)
H4B H -0.2465 -0.0338 -0.0113
H5B H -0.2581 0.0442 0.0322
H6B H -0.1672 -0.0041 0.0454
C11B C -0.1295(4) 0.4321(4) 0.2279(2)
C12B C -0.0764(4) 0.5164(4) 0.2547(3)
C13B C -0.1169(4) 0.5850(4) 0.2771(3)
C14B C -0.0753(4) 0.6670(4) 0.3005(2)
C15B C -0.1293(4) 0.7403(4) 0.3177(3)
C16B C 0.0123(4) 0.6811(4) 0.3060(3)
C17B C 0.0629(5) 0.7692(4) 0.3312(3)
H7B H 0.0259 0.8114 0.3432
H8B H 0.1128 0.7543 0.3660
H9B H 0.0821 0.7974 0.3004
C18B C 0.0523(4) 0.6085(4) 0.2859(3)
C19B C 0.0113(4) 0.5265(4) 0.2581(3)
C20B C 0.0590(5) 0.4589(5) 0.2310(4)
H10B H 0.0218 0.4070 0.2145
H11B H 0.0747 0.4887 0.1992
H12B H 0.1109 0.4379 0.2622
C21B C 0.0309(4) 0.0025(4) 0.3785(3)
C22B C 0.1233(4) 0.0285(4) 0.4118(3)
C23B C 0.1395(4) 0.0563(4) 0.4716(3)
C24B C 0.2230(4) 0.0856(4) 0.5085(3)
C25B C 0.2312(4) 0.1173(4) 0.5716(3)
C26B C 0.2931(4) 0.0810(5) 0.4860(3)
C27B C 0.3857(4) 0.1090(7) 0.5249(4)
H13B H 0.3858 0.1287 0.5643
H14B H 0.4242 0.0570 0.5294
H15B H 0.4053 0.1588 0.5053
C28B C 0.2727(4) 0.0496(5) 0.4267(3)
C29B C 0.1915(4) 0.0251(5) 0.3866(3)
C30B C 0.1804(5) -0.0049(6) 0.3229(3)
H16B H 0.1202 -0.0199 0.3021
H17B H 0.1979 0.0443 0.3017
H18B H 0.2159 -0.0584 0.3239
C31B C -0.0294(5) 0.1498(6) 0.1151(4)
C32B C 0.0939(9) 0.0748(9) 0.1008(9)
H19B H 0.1508 0.0905 0.0995
H20B H 0.0996 0.0308 0.1328
H21B H 0.0595 0.0484 0.0625
C33B C 0.1005(8) 0.2450(8) 0.1262(6)
H22B H 0.1565 0.2365 0.1214
H23B H 0.0689 0.2924 0.0989
H24B H 0.1084 0.2630 0.1675
O1B O -0.1705(3) -0.0014(3) 0.22527(18)
O2B O -0.1921(3) 0.0807(3) 0.14318(19)
O3B O -0.3150(4) -0.2795(3) 0.2274(2)
O3A O 0.1850(4) -0.2205(3) 0.7274(2)
O3C O -0.1850(4) 0.2205(3) 0.2726(2)
O4B O -0.3293(3) -0.3853(3) 0.1568(2)
O4A O 0.1707(3) -0.1147(3) 0.6568(2)
O4C O -0.1707(3) 0.1147(3) 0.3432(2)
O5B O -0.2612(5) -0.2187(5) -0.0411(3)
O6B O -0.3774(5) -0.1387(4) -0.0575(2)
O7B O -0.0911(3) 0.3590(3) 0.2214(2)
O8B O -0.2104(3) 0.4364(3) 0.2159(2)
O8A O 0.2896(3) 0.0636(3) 0.7159(2)
O8C O -0.2896(3) -0.0636(3) 0.2841(2)
O9B O -0.1883(3) 0.7139(3) 0.3379(2)
O9A O 0.3117(3) -0.2139(3) 0.8379(2)
O9C O -0.3117(3) 0.2139(3) 0.1621(2)
O10B O -0.1148(3) 0.8221(3) 0.3078(2)
O10_2 O 0.1148(3) 0.1779(3) 0.6922(2)
O10B_2 O -0.1148(3) -0.1779(3) 0.3078(2)
O11B O 0.1955(4) 0.5674(5) 0.3326(4)
O12B O 0.1676(5) 0.6703(6) 0.2631(5)
O13B O -0.0032(3) 0.0121(3) 0.32183(19)
O14B O -0.0142(3) -0.0288(3) 0.4088(2)
O15B O 0.1822(3) 0.0761(4) 0.59552(19)
O16B O 0.2821(3) 0.1816(3) 0.59511(19)
O16A O -0.2179(3) 0.3184(3) 0.09511(19)
O16C O 0.2179(3) -0.3184(3) 0.90489(19)
O17B O 0.3864(6) -0.0296(6) 0.4101(4)
O18B O 0.3670(6) 0.1096(7) 0.3797(4)
O19B O -0.0335(3) 0.1660(3) 0.2461(2)
O20B O -0.0688(4) 0.2168(3) 0.1265(2)
N1B N -0.3132(5) -0.1758(4) -0.0240(3)
N2B N 0.1468(4) 0.6157(5) 0.2947(4)
N3B N 0.3471(5) 0.0418(6) 0.4029(3)
N4B N 0.0511(4) 0.1579(5) 0.1124(4)
Er1B Er -0.145368(16) -0.032276(15) 0.324941(11)
Er1_2 Er 0.145368(16) -0.967724(15) 0.675059(11)
Er1A Er 0.354632(16) -0.467724(15) 0.824941(11)
Er1A_2 Er 0.354632(16) 0.532276(15) 0.824941(11)
Er1B_2 Er -0.145368(16) 0.967724(15) 0.324941(11)
Er1C Er -0.354632(16) -0.532276(15) 0.175059(11)
Er1C_2 Er -0.354632(16) 0.467724(15) 0.175059(11)
Er2B Er -0.165013(17) 0.227804(16) 0.180979(11)
Er2A Er 0.334987(17) -0.727804(16) 0.680979(11)
Er2A_2 Er 0.334987(17) 0.272196(16) 0.680979(11)
Er2C Er -0.334987(17) -0.272196(16) 0.319021(11)
Er2C_2 Er -0.334987(17) 0.727804(16) 0.319021(11)
C34 C -0.0765(9) -0.3094(10) 0.5051(6)
H25 H -0.1089 -0.2638 0.4791
C35 C -0.0531(10) -0.3852(10) 0.4787(5)
H26 H -0.0663 -0.3874 0.4366
C36 C -0.0108(6) -0.4568(6) 0.5133(4)
C37 C 0.0101(7) -0.4439(8) 0.5742(5)
H27 H 0.0404 -0.4898 0.6009
C38 C -0.0133(8) -0.3627(9) 0.5972(5)
H28 H 0.0038 -0.3562 0.6393
N5 N -0.0572(7) -0.2954(7) 0.5640(5)
C34B C 0.0765(9) -0.6906(10) 0.4949(6)
H25B H 0.1089 -0.7362 0.5209
C35B C 0.0531(10) -0.6148(10) 0.5213(5)
H26B H 0.0663 -0.6126 0.5634
C36B C 0.0108(6) -0.5432(6) 0.4867(4)
C37B C -0.0101(7) -0.5561(8) 0.4258(5)
H27B H -0.0404 -0.5102 0.3991
C38B C 0.0133(8) -0.6373(9) 0.4028(5)
H28B H -0.0038 -0.6438 0.3607
N5B N 0.0572(7) -0.7046(7) 0.4360(5)
C39 C -0.1641(7) -0.2540(7) 0.6608(6)
C40 C -0.2798(7) -0.3373(8) 0.6874(6)
H29 H -0.3301 -0.3731 0.6653
H30 H -0.2979 -0.2852 0.7059
H31 H -0.2404 -0.3749 0.7185
C41 C -0.2724(9) -0.3295(10) 0.5843(6)
H32 H -0.3237 -0.3661 0.5792
H33 H -0.2309 -0.3648 0.5721
H34 H -0.2880 -0.2749 0.5596
O22 O -0.1304(5) -0.2344(5) 0.7156(4)
N6 N -0.2354(6) -0.3043(6) 0.6453(4)
O21 O -0.5613(9) -0.2464(18) 0.5944(10)
loop_
_geom_bond_atom_site_label_1
_geom_bond_atom_site_label_2
_geom_bond_site_symmetry_1
_geom_bond_site_symmetry_2
C1 C2 1_555 1_555
C2 C3 1_555 1_555
C3 C4 1_555 1_555
C4 C5 1_555 1_555
C5 O3 1_555 1_555
C6 C4 1_555 1_555
C7 C6 1_555 1_555
H1 C7 1_555 1_555
H2 C7 1_555 1_555
H3 C7 1_555 1_555
C8 C6 1_555 1_555
C9 C2 1_555 1_555
C10 C9 1_555 1_555
H4 C10 1_555 1_555
H5 C10 1_555 1_555
H6 C10 1_555 1_555
C11 C12 1_555 1_555
C12 C13 1_555 1_555
C13 C14 1_555 1_555
C14 C15 1_555 1_555
C15 O9 1_555 1_555
C16 C14 1_555 1_555
C17 C16 1_555 1_555
H7 C17 1_555 1_555
H8 C17 1_555 1_555
H9 C17 1_555 1_555
C18 C16 1_555 1_555
C19 C12 1_555 1_555
C20 C19 1_555 1_555
H10 C20 1_555 1_555
H11 C20 1_555 1_555
H12 C20 1_555 1_555
C21 C22 1_555 1_555
C22 C23 1_555 1_555
C23 C24 1_555 1_555
C24 C25 1_555 1_555
C25 O15 1_555 1_555
C26 C24 1_555 1_555
C27 C26 1_555 1_555
H13 C27 1_555 1_555
H14 C27 1_555 1_555
H15 C27 1_555 1_555
C28 C26 1_555 1_555
C29 C22 1_555 1_555
C30 C29 1_555 1_555
H16 C30 1_555 1_555
H17 C30 1_555 1_555
H18 C30 1_555 1_555
C31 O20 1_555 1_555
C32 H19 1_555 1_555
H20 C32 1_555 1_555
H21 C32 1_555 1_555
C33 H22 1_555 1_555
H23 C33 1_555 1_555
H24 C33 1_555 1_555
C34 H25 1_555 1_555
C35 C34 1_555 1_555
H26 C35 1_555 1_555
C36 C35 1_555 1_555
C37 C36 1_555 1_555
H27 C37 1_555 1_555
C38 C37 1_555 1_555
H28 C38 1_555 1_555
C39 O22 1_555 1_555
C40 H29 1_555 1_555
H30 C40 1_555 1_555
H31 C40 1_555 1_555
C41 H32 1_555 1_555
H33 C41 1_555 1_555
H34 C41 1_555 1_555
O1 C1 1_555 1_555
O2 C1 1_555 1_555
O3 Er2A_2 1_555 1_555
O4 C5 1_555 1_555
O5 N1 1_555 1_555
O6 N1 1_555 1_555
O7 C11 1_555 1_555
O8 C11 1_555 1_555
O9 Er2A 1_555 1_555
O10 C15 1_555 1_555
O11 N2 1_555 1_555
O12 N2 1_555 1_555
O13 C21 1_555 1_555
O14 C21 1_555 1_555
O15 Er1B 1_555 1_555
O16 C25 1_555 1_555
O17 N3 1_555 1_555
O18 N3 1_555 1_555
O19 Er2 1_555 1_555
O20 Er2 1_555 1_555
N1 C8 1_555 1_555
N2 C18 1_555 1_555
N3 C28 1_555 1_555
N4 C31 1_555 1_555
N5 C34 1_555 1_555
N6 C39 1_555 1_555
Er1 O1 1_555 1_555
Er2 O2 1_555 1_555
C1B C2B 1_555 1_555
C2B C3B 1_555 1_555
C3B C4B 1_555 1_555
C4B C5B 1_555 1_555
C5B O3B 1_555 1_555
C6B C4B 1_555 1_555
C7B C6B 1_555 1_555
H1B C7B 1_555 1_555
H2B C7B 1_555 1_555
H3B C7B 1_555 1_555
C8B C6B 1_555 1_555
C9B C2B 1_555 1_555
C10B C9B 1_555 1_555
H4B C10B 1_555 1_555
H5B C10B 1_555 1_555
H6B C10B 1_555 1_555
C11B C12B 1_555 1_555
C12B C13B 1_555 1_555
C13B C14B 1_555 1_555
C14B C15B 1_555 1_555
C15B O9B 1_555 1_555
C16B C14B 1_555 1_555
C17B C16B 1_555 1_555
H7B C17B 1_555 1_555
H8B C17B 1_555 1_555
H9B C17B 1_555 1_555
C18B C16B 1_555 1_555
C19B C12B 1_555 1_555
C20B C19B 1_555 1_555
H10B C20B 1_555 1_555
H11B C20B 1_555 1_555
H12B C20B 1_555 1_555
C21B C22B 1_555 1_555
C22B C23B 1_555 1_555
C23B C24B 1_555 1_555
C24B C25B 1_555 1_555
C25B O15B 1_555 1_555
C26B C24B 1_555 1_555
C27B C26B 1_555 1_555
H13B C27B 1_555 1_555
H14B C27B 1_555 1_555
H15B C27B 1_555 1_555
C28B C26B 1_555 1_555
C29B C22B 1_555 1_555
C30B C29B 1_555 1_555
H16B C30B 1_555 1_555
H17B C30B 1_555 1_555
H18B C30B 1_555 1_555
C31B O20B 1_555 1_555
C32B H19B 1_555 1_555
H20B C32B 1_555 1_555
H21B C32B 1_555 1_555
C33B H22B 1_555 1_555
H23B C33B 1_555 1_555
H24B C33B 1_555 1_555
C34B H25B 1_555 1_555
C35B C34B 1_555 1_555
H26B C35B 1_555 1_555
C36B C36 1_555 1_555
C37B C36B 1_555 1_555
H27B C37B 1_555 1_555
C38B C37B 1_555 1_555
H28B C38B 1_555 1_555
O1B C1B 1_555 1_555
O2B C1B 1_555 1_555
O3B Er2C 1_555 1_555
O3A Er2 1_555 1_555
O3C Er2B 1_555 1_555
O4B C5B 1_555 1_555
O4A Er1 1_555 1_555
O4C Er1B 1_555 1_555
O5B N1B 1_555 1_555
O6B N1B 1_555 1_555
O7B C11B 1_555 1_555
O8B C11B 1_555 1_555
O8A Er1 1_555 1_555
O8C Er1B 1_555 1_555
O9B Er2C_2 1_555 1_555
O9A Er2 1_555 1_555
O9C Er2B 1_555 1_555
O10B C15B 1_555 1_555
O10_2 Er1 1_555 1_555
O10B_2 Er1B 1_555 1_555
O11B N2B 1_555 1_555
O12B N2B 1_555 1_555
O13B C21B 1_555 1_555
O14B C21B 1_555 1_555
O15B Er1 1_555 1_555
O16B C25B 1_555 1_555
O16A Er2B 1_555 1_555
O16C Er2 1_555 1_555
O17B N3B 1_555 1_555
O18B N3B 1_555 1_555
O19B Er2B 1_555 1_555
O20B Er2B 1_555 1_555
N1B C8B 1_555 1_555
N2B C18B 1_555 1_555
N3B C28B 1_555 1_555
N4B C31B 1_555 1_555
N5B C34B 1_555 1_555
Er1B O1B 1_555 1_555
Er1_2 O10 1_555 1_555
Er1A O8 1_555 1_555
Er1A_2 O4 1_555 1_555
Er1B_2 O10B 1_555 1_555
Er1C O4B 1_555 1_555
Er1C_2 O8B 1_555 1_555
Er2B O2B 1_555 1_555
Er2A_2 O16B 1_555 1_555
Er2C O16 1_555 1_555
C8 C9 1_555 1_555
C18 C19 1_555 1_555
C28 C29 1_555 1_555
C32 N4 1_555 1_555
C33 N4 1_555 1_555
C38 N5 1_555 1_555
C40 N6 1_555 1_555
C41 N6 1_555 1_555
O7 Er2 1_555 1_555
O13 Er1 1_555 1_555
O14 Er1 1_555 1_555
C8B C9B 1_555 1_555
C18B C19B 1_555 1_555
C28B C29B 1_555 1_555
C32B N4B 1_555 1_555
C33B N4B 1_555 1_555
C35B C36B 1_555 1_555
C38B N5B 1_555 1_555
O7B Er2B 1_555 1_555
O13B Er1B 1_555 1_555
O14B Er1B 1_555 1_555

#END
