
#######################################################################
#
#                 Cambridge Crystallographic Data Centre
#                                CCDC 
#
#######################################################################
#
# If this CIF has been generated from an entry in the Cambridge 
# Structural Database, then it will include bibliographic, chemical, 
# crystal, experimental, refinement or atomic coordinate data resulting 
# from the CCDC's data processing and validation procedures.
#
#######################################################################

data_IZAYUE
_symmetry_cell_setting           rhombohedral
_symmetry_space_group_name_H-M   'R -3'
_symmetry_Int_Tables_number      148
_space_group_name_Hall           '-R 3'
loop_
_symmetry_equiv_pos_site_id
_symmetry_equiv_pos_as_xyz
1 x,y,z
2 -y,x-y,z
3 -x+y,-x,z
4 2/3+x,1/3+y,1/3+z
5 2/3-y,1/3+x-y,1/3+z
6 2/3-x+y,1/3-x,1/3+z
7 1/3+x,2/3+y,2/3+z
8 1/3-y,2/3+x-y,2/3+z
9 1/3-x+y,2/3-x,2/3+z
10 -x,-y,-z
11 y,-x+y,-z
12 x-y,x,-z
13 1/3-x,2/3-y,2/3-z
14 1/3+y,2/3-x+y,2/3-z
15 1/3+x-y,2/3+x,2/3-z
16 2/3-x,1/3-y,1/3-z
17 2/3+y,1/3-x+y,1/3-z
18 2/3+x-y,1/3+x,1/3-z
_cell_length_a                   24.897(5)
_cell_length_b                   24.897(5)
_cell_length_c                   10.629(5)
_cell_angle_alpha                90
_cell_angle_beta                 90
_cell_angle_gamma                120
_cell_volume                     5705.81
loop_
_atom_site_label
_atom_site_type_symbol
_atom_site_fract_x
_atom_site_fract_y
_atom_site_fract_z
Zn1 Zn 0.663354(8) 0.020709(8) 0.221302(17)
O1 O 0.67554(6) 0.06221(6) 0.05729(11)
O2 O 0.42392(6) 0.04206(6) 0.33888(12)
O3 O 0.39811(7) 0.03238(6) 0.13523(12)
O4 O 0.73284(6) 0.09522(6) -0.11085(13)
C1 C 0.52054(8) 0.07893(7) 0.06206(16)
H1 H 0.4905 0.0579 0.0010
C2 C 0.50327(7) 0.07682(7) 0.18753(15)
C3 C 0.54878(8) 0.10644(8) 0.27875(16)
H2 H 0.5377 0.1031 0.3632
C4 C 0.71237(7) 0.10632(7) -0.01225(15)
C5 C 0.62822(7) 0.14547(7) 0.11867(16)
C6 C 0.73207(7) 0.17192(7) 0.01889(15)
C7 C 0.69373(7) 0.18918(7) 0.08173(16)
C8 C 0.43639(7) 0.04768(7) 0.22339(16)
C9 C 0.77754(10) 0.29596(9) 0.0744(2)
H3 H 0.7924 0.3376 0.0932
C10 C 0.71780(9) 0.25219(9) 0.1076(2)
H4 H 0.6929 0.2649 0.1482
C11 C 0.61062(8) 0.14103(8) 0.24405(17)
H5 H 0.6407 0.1616 0.3055
C12 C 0.58262(8) 0.11260(8) 0.02851(16)
H6 H 0.5940 0.1133 -0.0550
C13 C 0.79231(9) 0.21657(8) -0.01524(18)
H7 H 0.8172 0.2046 -0.0579
C14 C 0.81537(10) 0.27855(9) 0.0137(2)
H8 H 0.8558 0.3080 -0.0075
Zn1M Zn 0.354042(8) 0.024022(11) 0.445365(17)
Zn1Q Zn 0.309312(11) -0.003313(8) 0.112031(17)
Zn1H Zn 0.690688(11) 0.003313(8) -0.112031(17)
O2N O 0.71519(8) 0.09059(6) 0.32779(12)
O3P O 0.69905(6) -0.03240(9) 0.19810(12)
O4D O 0.57145(6) -0.02905(8) 0.22248(13)
loop_
_geom_bond_atom_site_label_1
_geom_bond_atom_site_label_2
_geom_bond_site_symmetry_1
_geom_bond_site_symmetry_2
Zn1 O1 1_555 1_555
O1 C4 1_555 1_555
O2 C8 1_555 1_555
O3 C8 1_555 1_555
O4 C4 1_555 1_555
C1 H1 1_555 1_555
C2 C1 1_555 1_555
C3 C2 1_555 1_555
H2 C3 1_555 1_555
C4 C6 1_555 1_555
C5 C7 1_555 1_555
C6 C7 1_555 1_555
C7 C10 1_555 1_555
C8 C2 1_555 1_555
C9 H3 1_555 1_555
C10 C9 1_555 1_555
H4 C10 1_555 1_555
C11 C3 1_555 1_555
H5 C11 1_555 1_555
C12 C1 1_555 1_555
H6 C12 1_555 1_555
C13 C6 1_555 1_555
H7 C13 1_555 1_555
C14 C9 1_555 1_555
H8 C14 1_555 1_555
Zn1M O2 1_555 1_555
Zn1Q O3 1_555 1_555
Zn1H O4 1_555 1_555
O2N Zn1 1_555 1_555
O3P Zn1 1_555 1_555
O4D Zn1 1_555 1_555
C5 C11 1_555 1_555
C5 C12 1_555 1_555
C13 C14 1_555 1_555

#END
