
#######################################################################
#
#                 Cambridge Crystallographic Data Centre
#                                CCDC 
#
#######################################################################
#
# If this CIF has been generated from an entry in the Cambridge 
# Structural Database, then it will include bibliographic, chemical, 
# crystal, experimental, refinement or atomic coordinate data resulting 
# from the CCDC's data processing and validation procedures.
#
#######################################################################

data_IZAZAL
_symmetry_cell_setting           monoclinic
_symmetry_space_group_name_H-M   'C 2/c'
_symmetry_Int_Tables_number      15
_space_group_name_Hall           '-C 2yn'
loop_
_symmetry_equiv_pos_site_id
_symmetry_equiv_pos_as_xyz
1 x,y,z
2 -x,y,1/2-z
3 1/2+x,1/2+y,z
4 1/2-x,1/2+y,1/2-z
5 -x,-y,-z
6 x,-y,1/2+z
7 1/2-x,1/2-y,-z
8 1/2+x,1/2-y,1/2+z
_cell_length_a                   22.9254(13)
_cell_length_b                   16.7353(9)
_cell_length_c                   17.1035(10)
_cell_angle_alpha                90
_cell_angle_beta                 131.3150(10)
_cell_angle_gamma                90
_cell_volume                     4928.65
loop_
_atom_site_label
_atom_site_type_symbol
_atom_site_fract_x
_atom_site_fract_y
_atom_site_fract_z
Zn1 Zn 0.41716(2) 0.69387(2) 0.45423(3)
Zn2 Zn 0.26717(2) 0.82224(2) 0.31670(3)
O1 O 0.40437(14) 0.74174(15) 0.3318(2)
O2 O 0.32251(15) 0.84552(15) 0.2673(2)
O3 O 0.24216(14) 0.42464(15) 0.1387(2)
O4 O 0.31373(19) 0.37576(17) 0.1063(3)
O5 O 0.33033(14) 0.74528(15) 0.4252(2)
H1 H 0.3377 0.7595 0.4789
O6 O 0.43400(18) 0.64709(18) 0.6085(3)
H2 H 0.4039 0.6411 0.6208
H3 H 0.4587 0.6897 0.6408
N1 N 0.53003(15) 0.71783(16) 0.5696(2)
N2 N 0.66128(16) 0.71753(17) 0.6917(2)
N3 N 0.60217(15) 0.42280(16) 0.5938(2)
C1 C 0.36746(19) 0.7993(2) 0.2702(3)
C2 C 0.37872(19) 0.8176(2) 0.1947(3)
C3 C 0.3909(2) 0.8971(2) 0.1848(3)
H4 H 0.3862 0.9367 0.2185
C4 C 0.4098(2) 0.9183(2) 0.1261(3)
H5 H 0.4178 0.9716 0.1201
C5 C 0.4166(2) 0.8594(3) 0.0761(3)
H6 H 0.4314 0.8727 0.0385
C6 C 0.4016(2) 0.7808(2) 0.0817(3)
H7 H 0.4051 0.7419 0.0460
C7 C 0.38135(19) 0.7581(2) 0.1395(3)
C8 C 0.3577(2) 0.6743(2) 0.1342(3)
C9 C 0.2924(2) 0.6582(2) 0.1217(3)
H8 H 0.2636 0.7003 0.1168
C10 C 0.2697(2) 0.5804(2) 0.1166(3)
H9 H 0.2268 0.5707 0.1102
C11 C 0.3106(2) 0.5166(2) 0.1210(3)
C12 C 0.3746(2) 0.5329(2) 0.1310(3)
H10 H 0.4020 0.4910 0.1325
C13 C 0.3979(2) 0.6100(2) 0.1385(3)
H11 H 0.4416 0.6194 0.1467
C14 C 0.2872(2) 0.4327(2) 0.1206(3)
C15 C 0.55517(19) 0.79670(19) 0.6008(3)
C16 C 0.5132(2) 0.8678(2) 0.5692(3)
H12 H 0.4592 0.8682 0.5204
C17 C 0.5553(2) 0.9375(2) 0.6135(3)
H13 H 0.5290 0.9859 0.5946
C18 C 0.6367(2) 0.9374(2) 0.6864(3)
H14 H 0.6632 0.9857 0.7127
C19 C 0.6782(2) 0.8669(2) 0.7198(3)
H15 H 0.7322 0.8667 0.7698
C20 C 0.63612(19) 0.79614(19) 0.6756(3)
C21 C 0.59562(18) 0.67468(19) 0.6267(2)
C22 C 0.59887(17) 0.58722(19) 0.6181(2)
C23 C 0.64373(19) 0.5552(2) 0.5977(3)
H16 H 0.6740 0.5883 0.5931
C24 C 0.56339(19) 0.4538(2) 0.6203(3)
H17 H 0.5383 0.4189 0.6321
C25 C 0.64262(19) 0.4739(2) 0.5844(3)
H18 H 0.6712 0.4532 0.5682
C26 C 0.55878(18) 0.5345(2) 0.6311(3)
H19 H 0.5294 0.5536 0.6467
Zn1D Zn 0.58284(2) 0.30613(2) 0.54577(3)
Zn1C Zn 0.08284(2) 1.19387(2) 0.04577(3)
Zn2C Zn 0.23283(2) 0.32224(2) 0.18330(3)
Zn2G Zn 0.76717(2) 0.67776(2) 0.81670(3)
Zn2C_2 Zn 0.23283(2) 1.32224(2) 0.18330(3)
Zn2D Zn 0.73283(2) 0.17776(2) 0.68330(3)
O1C O 0.09563(14) 1.24174(15) 0.1682(2)
O1D O 0.59563(14) 0.25826(15) 0.6682(2)
O2C O 0.17749(15) 1.34552(15) 0.2327(2)
O2C_2 O 0.17749(15) 0.34552(15) 0.2327(2)
O3C O 0.25784(14) 0.92464(15) 0.3613(2)
O4C O 0.18627(19) 0.87576(17) 0.3937(3)
O5D O 0.66967(14) 0.25472(15) 0.5748(2)
O5C O 0.16967(14) 0.24528(15) 0.0748(2)
H1D H 0.6623 0.2405 0.5211
H1C H 0.1623 0.2595 0.0211
O6D O 0.56600(18) 0.35291(18) 0.3915(3)
H2D H 0.5961 0.3589 0.3792
H3D H 0.5413 0.3103 0.3592
N1D N 0.46997(15) 0.28217(16) 0.4304(2)
N2D N 0.33872(16) 0.28247(17) 0.3083(2)
N2G N 0.16128(16) 0.78247(17) 0.1917(2)
N3D N 0.39783(15) 0.57720(16) 0.4062(2)
C1C C 0.13254(19) 1.2993(2) 0.2298(3)
C2C C 0.12128(19) 1.3176(2) 0.3053(3)
C3C C 0.1091(2) 1.3971(2) 0.3152(3)
H4C H 0.1138 1.4367 0.2815
C4C C 0.0902(2) 1.4183(2) 0.3739(3)
H5C H 0.0822 1.4716 0.3799
C5C C 0.0834(2) 1.3594(3) 0.4239(3)
H6C H 0.0686 1.3727 0.4615
C6C C 0.0984(2) 1.2808(2) 0.4183(3)
H7C H 0.0949 1.2419 0.4540
C7C C 0.11865(19) 1.2581(2) 0.3605(3)
C8C C 0.1423(2) 1.1743(2) 0.3658(3)
C9C C 0.2076(2) 1.1582(2) 0.3783(3)
H8C H 0.2364 1.2003 0.3832
C10C C 0.2303(2) 1.0804(2) 0.3834(3)
H9C H 0.2732 1.0707 0.3898
C11C C 0.1894(2) 1.0166(2) 0.3790(3)
C12C C 0.1254(2) 1.0329(2) 0.3690(3)
H10C H 0.0980 0.9910 0.3675
C13C C 0.1021(2) 1.1100(2) 0.3615(3)
H11C H 0.0584 1.1194 0.3533
C14C C 0.2128(2) 0.9327(2) 0.3794(3)
C15D C 0.44483(19) 0.20330(19) 0.3992(3)
C16D C 0.4868(2) 0.1322(2) 0.4308(3)
H12D H 0.5408 0.1318 0.4796
C17D C 0.4447(2) 0.0625(2) 0.3865(3)
H13D H 0.4710 0.0141 0.4054
C18D C 0.3633(2) 0.0626(2) 0.3136(3)
H14D H 0.3368 0.0143 0.2873
C19D C 0.3218(2) 0.1331(2) 0.2802(3)
H15D H 0.2678 0.1333 0.2302
C20D C 0.36388(19) 0.20386(19) 0.3244(3)
C21D C 0.40438(18) 0.32532(19) 0.3733(2)
C22D C 0.40113(17) 0.41278(19) 0.3819(2)
C23D C 0.35627(19) 0.4448(2) 0.4023(3)
H16D H 0.3260 0.4117 0.4069
C24D C 0.43661(19) 0.5462(2) 0.3797(3)
H17D H 0.4617 0.5811 0.3679
C25D C 0.35738(19) 0.5261(2) 0.4156(3)
H18D H 0.3288 0.5468 0.4318
C26D C 0.44122(18) 0.4655(2) 0.3689(3)
H19D H 0.4706 0.4464 0.3533
O7 O 0.5000 0.2217(4) 0.2500
H21 H 0.4588 0.2058 0.2359
H21A H 0.5412 0.2058 0.2641
O8 O 0.3320(4) 0.2053(4) 0.0922(5)
H22 H 0.3269 0.2551 0.0962
H23 H 0.2852 0.1984 0.0367
H20? H 0.5491 0.2166 0.2959
loop_
_geom_bond_atom_site_label_1
_geom_bond_atom_site_label_2
_geom_bond_site_symmetry_1
_geom_bond_site_symmetry_2
Zn1 O1 1_555 1_555
Zn2 O2 1_555 1_555
O1 C1 1_555 1_555
O2 C1 1_555 1_555
O3 C14 1_555 1_555
O4 C14 1_555 1_555
O5 Zn1 1_555 1_555
H1 O5 1_555 1_555
O6 Zn1 1_555 1_555
H2 O6 1_555 1_555
H3 O6 1_555 1_555
N1 Zn1 1_555 1_555
N2 C20 1_555 1_555
N3 C24 1_555 1_555
C1 C2 1_555 1_555
C2 C3 1_555 1_555
C3 H4 1_555 1_555
C4 C3 1_555 1_555
H5 C4 1_555 1_555
C5 C4 1_555 1_555
H6 C5 1_555 1_555
C6 C5 1_555 1_555
H7 C6 1_555 1_555
C7 C2 1_555 1_555
C8 C7 1_555 1_555
C9 C8 1_555 1_555
H8 C9 1_555 1_555
C10 C9 1_555 1_555
H9 C10 1_555 1_555
C11 C10 1_555 1_555
C12 C11 1_555 1_555
H10 C12 1_555 1_555
C13 C8 1_555 1_555
H11 C13 1_555 1_555
C14 C11 1_555 1_555
C15 N1 1_555 1_555
C16 C15 1_555 1_555
H12 C16 1_555 1_555
C17 C16 1_555 1_555
H13 C17 1_555 1_555
C18 C17 1_555 1_555
H14 C18 1_555 1_555
C19 C18 1_555 1_555
H15 C19 1_555 1_555
C20 C15 1_555 1_555
C21 N1 1_555 1_555
C22 C21 1_555 1_555
C23 C22 1_555 1_555
H16 C23 1_555 1_555
C24 H17 1_555 1_555
C25 N3 1_555 1_555
H18 C25 1_555 1_555
C26 C22 1_555 1_555
H19 C26 1_555 1_555
O7 H21 1_555 1_555
O8 H22 1_555 1_555
H23 O8 1_555 1_555
Zn1D N3 1_555 1_555
Zn1C O1C 1_555 1_555
Zn2C O3 1_555 1_555
Zn2G N2 1_555 1_555
Zn2C_2 O2C 1_555 1_555
Zn2D O5D 1_555 1_555
O1C C1C 1_555 1_555
O1D Zn1D 1_555 1_555
O2C C1C 1_555 1_555
O2C_2 Zn2C 1_555 1_555
O3C Zn2 1_555 1_555
O4C C14C 1_555 1_555
O5D Zn1D 1_555 1_555
O5C Zn2C 1_555 1_555
H1D O5D 1_555 1_555
H1C O5C 1_555 1_555
O6D Zn1D 1_555 1_555
H2D O6D 1_555 1_555
H3D O6D 1_555 1_555
N1D Zn1D 1_555 1_555
N2D Zn2C 1_555 1_555
N2G Zn2 1_555 1_555
N3D Zn1 1_555 1_555
C1C C2C 1_555 1_555
C2C C3C 1_555 1_555
C3C H4C 1_555 1_555
C4C C3C 1_555 1_555
H5C C4C 1_555 1_555
C5C C4C 1_555 1_555
H6C C5C 1_555 1_555
C6C C5C 1_555 1_555
H7C C6C 1_555 1_555
C7C C2C 1_555 1_555
C8C C7C 1_555 1_555
C9C C8C 1_555 1_555
H8C C9C 1_555 1_555
C10C C9C 1_555 1_555
H9C C10C 1_555 1_555
C11C C10C 1_555 1_555
C12C C11C 1_555 1_555
H10C C12C 1_555 1_555
C13C C8C 1_555 1_555
H11C C13C 1_555 1_555
C14C O3C 1_555 1_555
C15D N1D 1_555 1_555
C16D C15D 1_555 1_555
H12D C16D 1_555 1_555
C17D C16D 1_555 1_555
H13D C17D 1_555 1_555
C18D C17D 1_555 1_555
H14D C18D 1_555 1_555
C19D C18D 1_555 1_555
H15D C19D 1_555 1_555
C20D N2D 1_555 1_555
C21D N1D 1_555 1_555
C22D C21D 1_555 1_555
C23D C22D 1_555 1_555
H16D C23D 1_555 1_555
C24D N3D 1_555 1_555
H17D C24D 1_555 1_555
C25D N3D 1_555 1_555
H18D C25D 1_555 1_555
C26D C22D 1_555 1_555
H19D C26D 1_555 1_555
H21A O7 1_555 1_555
Zn2 O5 1_555 1_555
N2 C21 1_555 1_555
C6 C7 1_555 1_555
C12 C13 1_555 1_555
C19 C20 1_555 1_555
C23 C25 1_555 1_555
C24 C26 1_555 1_555
N2D C21D 1_555 1_555
C6C C7C 1_555 1_555
C11C C14C 1_555 1_555
C12C C13C 1_555 1_555
C15D C20D 1_555 1_555
C19D C20D 1_555 1_555
C23D C25D 1_555 1_555
C24D C26D 1_555 1_555

#END
