
#######################################################################
#
#                 Cambridge Crystallographic Data Centre
#                                CCDC 
#
#######################################################################
#
# If this CIF has been generated from an entry in the Cambridge 
# Structural Database, then it will include bibliographic, chemical, 
# crystal, experimental, refinement or atomic coordinate data resulting 
# from the CCDC's data processing and validation procedures.
#
#######################################################################

data_IZEBUL
_symmetry_cell_setting           monoclinic
_symmetry_space_group_name_H-M   'C 2/c'
_symmetry_Int_Tables_number      15
_space_group_name_Hall           '-C 2yn'
loop_
_symmetry_equiv_pos_site_id
_symmetry_equiv_pos_as_xyz
1 x,y,z
2 -x,y,1/2-z
3 1/2+x,1/2+y,z
4 1/2-x,1/2+y,1/2-z
5 -x,-y,-z
6 x,-y,1/2+z
7 1/2-x,1/2-y,-z
8 1/2+x,1/2-y,1/2+z
_cell_length_a                   15.4388(16)
_cell_length_b                   10.4039(11)
_cell_length_c                   8.3360(8)
_cell_angle_alpha                90
_cell_angle_beta                 119.2070(10)
_cell_angle_gamma                90
_cell_volume                     1168.73
loop_
_atom_site_label
_atom_site_type_symbol
_atom_site_fract_x
_atom_site_fract_y
_atom_site_fract_z
Pb1 Pb 0.0000 0.03387(4) 0.2500
O1 O 0.1007(5) 0.2201(7) 0.4302(9)
O2 O -0.0114(4) 0.1629(6) 0.5094(8)
N1 N 0.1716(5) 0.4172(7) 0.6735(10)
N2 N 0.1532(8) 0.5372(7) 0.6034(17)
N3 N 0.2353(7) 0.5810(9) 0.6223(14)
N4 N 0.3089(7) 0.4911(9) 0.7014(15)
C1 C 0.0588(6) 0.2328(8) 0.5244(11)
C2 C 0.0925(6) 0.3372(9) 0.6690(12)
H1 H 0.0363 0.3914 0.6448
H2 H 0.1159 0.2979 0.7886
C3 C 0.2657(7) 0.3917(11) 0.7292(15)
H3 H 0.2969 0.3142 0.7808
Pb1F Pb 0.5000 0.46613(4) 0.7500
Pb1F_2 Pb -0.5000 0.46613(4) -0.2500
O1A O -0.1007(5) 0.2201(7) 0.0698(9)
O2A O 0.0114(4) 0.1629(6) -0.0094(8)
N1A N -0.1716(5) 0.4172(7) -0.1735(10)
N2A N -0.1532(8) 0.5372(7) -0.1034(17)
N3A N -0.2353(7) 0.5810(9) -0.1223(14)
N4A N -0.3089(7) 0.4911(9) -0.2014(15)
N4F N 0.1911(7) 0.0089(9) 0.2986(15)
N4G N -0.1911(7) 0.0089(9) 0.2014(15)
C1A C -0.0588(6) 0.2328(8) -0.0244(11)
C2A C -0.0925(6) 0.3372(9) -0.1690(12)
H1A H -0.0363 0.3914 -0.1448
H2A H -0.1159 0.2979 -0.2886
C3A C -0.2657(7) 0.3917(11) -0.2292(15)
H3A H -0.2969 0.3142 -0.2808
loop_
_geom_bond_atom_site_label_1
_geom_bond_atom_site_label_2
_geom_bond_site_symmetry_1
_geom_bond_site_symmetry_2
Pb1 O1 1_555 1_555
O1 C1 1_555 1_555
O2 Pb1 1_555 1_555
N1 N2 1_555 1_555
N2 N3 1_555 1_555
N3 N4 1_555 1_555
N4 C3 1_555 1_555
C1 O2 1_555 1_555
C2 N1 1_555 1_555
H1 C2 1_555 1_555
H2 C2 1_555 1_555
C3 N1 1_555 1_555
H3 C3 1_555 1_555
Pb1F N4 1_555 1_555
Pb1F_2 N4A 1_555 1_555
O1A Pb1 1_555 1_555
O2A Pb1 1_555 1_555
N1A N2A 1_555 1_555
N2A N3A 1_555 1_555
N3A N4A 1_555 1_555
N4A C3A 1_555 1_555
N4F Pb1 1_555 1_555
N4G Pb1 1_555 1_555
C1A O1A 1_555 1_555
C2A N1A 1_555 1_555
H1A C2A 1_555 1_555
H2A C2A 1_555 1_555
C3A N1A 1_555 1_555
H3A C3A 1_555 1_555
C1 C2 1_555 1_555
O2A C1A 1_555 1_555
C1A C2A 1_555 1_555

#END
