
#######################################################################
#
#                 Cambridge Crystallographic Data Centre
#                                CCDC 
#
#######################################################################
#
# If this CIF has been generated from an entry in the Cambridge 
# Structural Database, then it will include bibliographic, chemical, 
# crystal, experimental, refinement or atomic coordinate data resulting 
# from the CCDC's data processing and validation procedures.
#
#######################################################################

data_IZEBUL01
_symmetry_cell_setting           monoclinic
_symmetry_space_group_name_H-M   'C 2/c'
_symmetry_Int_Tables_number      15
_space_group_name_Hall           '-C 2yn'
loop_
_symmetry_equiv_pos_site_id
_symmetry_equiv_pos_as_xyz
1 x,y,z
2 -x,y,1/2-z
3 1/2+x,1/2+y,z
4 1/2-x,1/2+y,1/2-z
5 -x,-y,-z
6 x,-y,1/2+z
7 1/2-x,1/2-y,-z
8 1/2+x,1/2-y,1/2+z
_cell_length_a                   15.370(5)
_cell_length_b                   10.373(3)
_cell_length_c                   8.261(3)
_cell_angle_alpha                90
_cell_angle_beta                 119.415(4)
_cell_angle_gamma                90
_cell_volume                     1147.29
loop_
_atom_site_label
_atom_site_type_symbol
_atom_site_fract_x
_atom_site_fract_y
_atom_site_fract_z
Pb1 Pb -0.5000 -0.032500(14) -0.7500
O1 O -0.51278(14) -0.1637(2) -0.4929(2)
O2 O -0.60298(16) -0.2196(2) -0.9319(3)
N1 N -0.1912(2) -0.4938(3) -0.2945(4)
N2 N -0.26494(19) -0.5834(3) -0.3780(3)
N3 N -0.3484(2) -0.5385(3) -0.3968(4)
N4 N -0.32898(17) -0.4190(2) -0.3236(3)
C1 C -0.2330(2) -0.3930(3) -0.2632(4)
H1 H -0.2001 -0.3147 -0.2066
C2 C -0.4081(2) -0.3379(3) -0.3297(4)
H2 H -0.3842 -0.2977 -0.2063
H3 H -0.4663 -0.3926 -0.3558
C3 C -0.4412(2) -0.2326(3) -0.4758(4)
Pb1F Pb 0.0000 -0.467500(14) -0.2500
Pb1F_2 Pb -1.0000 -0.467500(14) -1.2500
O1A O -0.48722(14) -0.1637(2) -1.0071(2)
O2A O -0.39702(16) -0.2196(2) -0.5681(3)
N1F N -0.3088(2) -0.0062(3) -0.7055(4)
N1G N -0.6912(2) -0.0062(3) -0.7945(4)
N1A N -0.8088(2) -0.4938(3) -1.2055(4)
N2A N -0.73506(19) -0.5834(3) -1.1220(3)
N3A N -0.6516(2) -0.5385(3) -1.1032(4)
N4A N -0.67102(17) -0.4190(2) -1.1764(3)
C1A C -0.7670(2) -0.3930(3) -1.2368(4)
H1A H -0.7999 -0.3147 -1.2934
C2A C -0.5919(2) -0.3379(3) -1.1703(4)
H2A H -0.6158 -0.2977 -1.2937
H3A H -0.5337 -0.3926 -1.1442
C3A C -0.5588(2) -0.2326(3) -1.0242(4)
loop_
_geom_bond_atom_site_label_1
_geom_bond_atom_site_label_2
_geom_bond_site_symmetry_1
_geom_bond_site_symmetry_2
Pb1 O1 1_555 1_555
O1 C3 1_555 1_555
O2 Pb1 1_555 1_555
N1 N2 1_555 1_555
N2 N3 1_555 1_555
N3 N4 1_555 1_555
N4 C1 1_555 1_555
C1 N1 1_555 1_555
H1 C1 1_555 1_555
C2 N4 1_555 1_555
H2 C2 1_555 1_555
H3 C2 1_555 1_555
C3 C2 1_555 1_555
Pb1F N1 1_555 1_555
Pb1F_2 N1A 1_555 1_555
O1A Pb1 1_555 1_555
O2A Pb1 1_555 1_555
N1F Pb1 1_555 1_555
N1G Pb1 1_555 1_555
N1A N2A 1_555 1_555
N2A N3A 1_555 1_555
N3A N4A 1_555 1_555
N4A C1A 1_555 1_555
C1A N1A 1_555 1_555
H1A C1A 1_555 1_555
C2A N4A 1_555 1_555
H2A C2A 1_555 1_555
H3A C2A 1_555 1_555
C3A O2 1_555 1_555
C3 O2A 1_555 1_555
O1A C3A 1_555 1_555
C2A C3A 1_555 1_555

#END
