
#######################################################################
#
#                 Cambridge Crystallographic Data Centre
#                                CCDC 
#
#######################################################################
#
# If this CIF has been generated from an entry in the Cambridge 
# Structural Database, then it will include bibliographic, chemical, 
# crystal, experimental, refinement or atomic coordinate data resulting 
# from the CCDC's data processing and validation procedures.
#
#######################################################################

data_IZEBOF
_symmetry_cell_setting           monoclinic
_symmetry_space_group_name_H-M   'P 21/c'
_symmetry_Int_Tables_number      14
_space_group_name_Hall           '-P 2ybc'
loop_
_symmetry_equiv_pos_site_id
_symmetry_equiv_pos_as_xyz
1 x,y,z
2 -x,1/2+y,1/2-z
3 -x,-y,-z
4 x,1/2-y,1/2+z
_cell_length_a                   10.6643(8)
_cell_length_b                   6.9617(5)
_cell_length_c                   17.1924(13)
_cell_angle_alpha                90
_cell_angle_beta                 106.544(8)
_cell_angle_gamma                90
_cell_volume                     1223.55
loop_
_atom_site_label
_atom_site_type_symbol
_atom_site_fract_x
_atom_site_fract_y
_atom_site_fract_z
Zn1 Zn 0.30036(6) -0.30210(8) 0.10461(3)
O1 O 0.4677(3) -0.3327(4) 0.06769(17)
O2 O 0.4978(3) -0.4531(4) 0.18965(18)
O3 O 0.7636(3) -1.0699(4) 0.4388(2)
O4 O 0.9288(3) -1.2751(4) 0.45745(18)
O5 O 0.8761(3) -0.3775(4) 0.25243(19)
N1 N 0.7375(3) -0.6154(5) 0.1913(2)
N2 N 0.8383(3) -0.8560(5) 0.3282(2)
C1 C 0.5381(4) -0.4216(6) 0.1298(3)
C2 C 0.6700(4) -0.4893(6) 0.1257(3)
H1 H 0.6590 -0.5562 0.0747
H2 H 0.7246 -0.3779 0.1257
C3 C 0.8369(4) -0.5452(6) 0.2521(3)
C4 C 0.9083(4) -0.6757(6) 0.3187(3)
H3 H 0.9281 -0.6052 0.3694
H4 H 0.9909 -0.7104 0.3093
C5 C 0.6838(4) -0.8079(6) 0.1926(3)
H5 H 0.6575 -0.8592 0.1378
H6 H 0.6066 -0.8005 0.2116
C6 C 0.7818(4) -0.9416(6) 0.2467(3)
H7 H 0.7393 -1.0621 0.2521
H8 H 0.8513 -0.9687 0.2222
C7 C 0.9330(4) -0.9955(6) 0.3783(3)
H9 H 1.0048 -0.9258 0.4147
H10 H 0.9687 -1.0738 0.3430
C8 C 0.8706(5) -1.1252(7) 0.4276(3)
O6 O 0.3599(3) -0.0405(4) 0.15625(19)
H11 H 0.401(3) -0.023(6) 0.2059(7)
H12 H 0.394(4) 0.027(5) 0.1268(17)
O7 O 0.1887(3) -0.1637(5) 0.0019(2)
H13 H 0.1073(15) -0.185(6) -0.019(3)
H14 H 0.204(4) -0.045(2) -0.001(3)
Zn1A Zn 0.69964(6) -0.80210(8) 0.39539(3)
O3A O 0.2364(3) -0.5699(4) 0.0612(2)
N2A N 0.1617(3) -0.3560(5) 0.1718(2)
O8 O 0.3862(5) 0.1500(5) 0.0260(3)
H15 H 0.450(4) 0.193(6) 0.011(4)
H16 H 0.337(4) 0.241(5) 0.032(4)
loop_
_geom_bond_atom_site_label_1
_geom_bond_atom_site_label_2
_geom_bond_site_symmetry_1
_geom_bond_site_symmetry_2
Zn1 O1 1_555 1_555
O1 C1 1_555 1_555
O2 Zn1 1_555 1_555
O3 C8 1_555 1_555
O4 C8 1_555 1_555
O5 C3 1_555 1_555
N1 C2 1_555 1_555
N2 C4 1_555 1_555
C1 O2 1_555 1_555
C2 C1 1_555 1_555
H1 C2 1_555 1_555
H2 C2 1_555 1_555
C3 N1 1_555 1_555
C4 C3 1_555 1_555
H3 C4 1_555 1_555
H4 C4 1_555 1_555
C5 N1 1_555 1_555
H5 C5 1_555 1_555
H6 C5 1_555 1_555
C6 N2 1_555 1_555
H7 C6 1_555 1_555
H8 C6 1_555 1_555
C7 N2 1_555 1_555
H9 C7 1_555 1_555
H10 C7 1_555 1_555
C8 C7 1_555 1_555
O6 Zn1 1_555 1_555
H11 O6 1_555 1_555
H12 O6 1_555 1_555
O7 Zn1 1_555 1_555
H13 O7 1_555 1_555
H14 O7 1_555 1_555
O8 H15 1_555 1_555
H16 O8 1_555 1_555
Zn1A O3 1_555 1_555
O3A Zn1 1_555 1_555
N2A Zn1 1_555 1_555
N2 Zn1A 1_555 1_555
C5 C6 1_555 1_555

#END
