
#######################################################################
#
#                 Cambridge Crystallographic Data Centre
#                                CCDC 
#
#######################################################################
#
# If this CIF has been generated from an entry in the Cambridge 
# Structural Database, then it will include bibliographic, chemical, 
# crystal, experimental, refinement or atomic coordinate data resulting 
# from the CCDC's data processing and validation procedures.
#
#######################################################################

data_IZECAS
_symmetry_cell_setting           monoclinic
_symmetry_space_group_name_H-M   'P 21/c'
_symmetry_Int_Tables_number      14
_space_group_name_Hall           '-P 2ybc'
loop_
_symmetry_equiv_pos_site_id
_symmetry_equiv_pos_as_xyz
1 x,y,z
2 -x,1/2+y,1/2-z
3 -x,-y,-z
4 x,1/2-y,1/2+z
_cell_length_a                   22.344(5)
_cell_length_b                   6.8505(14)
_cell_length_c                   8.0101(17)
_cell_angle_alpha                90
_cell_angle_beta                 90.356(4)
_cell_angle_gamma                90
_cell_volume                     1226.06
loop_
_atom_site_label
_atom_site_type_symbol
_atom_site_fract_x
_atom_site_fract_y
_atom_site_fract_z
Ca1 Ca 0.032031(15) 0.63174(5) 0.17808(4)
P1 P 0.074449(18) 0.38629(6) 0.56592(5)
O1 O 0.18339(6) 0.44169(19) 0.7027(2)
N1 N 0.43063(10) 1.1165(3) 0.6146(4)
C1 C 0.14760(7) 0.2939(2) 0.6251(2)
H1 H 0.1429 0.1854 0.7016
H2 H 0.1679 0.2460 0.5265
O2 O 0.05378(5) 0.52590(17) 0.70421(15)
N2 N 0.45344(9) 0.7881(3) 0.5932(3)
C2 C 0.24120(8) 0.3618(3) 0.7419(3)
H3 H 0.2658 0.3634 0.6425
H4 H 0.2367 0.2271 0.7768
O3 O 0.03208(5) 0.20849(17) 0.55821(15)
N3 N 0.38943(9) 0.5295(3) 0.6954(3)
C3 C 0.27223(9) 0.4754(3) 0.8786(3)
H5 H 0.2434 0.5043 0.9653
H6 H 0.3032 0.3940 0.9277
O4 O 0.08150(5) 0.49036(19) 0.39975(15)
N4 N 0.31636(9) 0.9794(3) 0.7938(3)
C4 C 0.27997(10) 0.8444(3) 0.8505(3)
H7 H 0.2443 0.8734 0.9043
H8 H 0.4064(10) 1.208(3) 0.648(3)
H9 H 0.4617(9) 1.144(4) 0.556(3)
O5 O 0.12215(7) 0.6430(2) 0.0089(2)
N5 N 0.29923(7) 0.6576(3) 0.8235(2)
C5 C 0.43811(12) 0.6032(4) 0.6234(4)
H10 H 0.4659 0.5108 0.5887
H11 H 0.1233(13) 0.760(2) -0.030(4)
H12 H 0.1231(14) 0.579(4) -0.085(2)
C6 C 0.41614(10) 0.9308(3) 0.6438(3)
C7 C 0.36304(10) 0.8738(3) 0.7255(3)
C8 C 0.35328(9) 0.6752(3) 0.7435(3)
Ca1B Ca -0.032031(15) 0.36826(5) 0.82192(4)
Ca1A Ca -0.032031(15) 0.13174(5) 0.32192(4)
Ca1A_2 Ca -0.032031(15) 1.13174(5) 0.32192(4)
Ca1C Ca 0.032031(15) -0.13174(5) 0.67808(4)
Ca1C_2 Ca 0.032031(15) 0.86826(5) 0.67808(4)
P1B P -0.074449(18) 0.61371(6) 0.43408(5)
O1B O -0.18339(6) 0.55831(19) 0.2973(2)
N1B N -0.43063(10) -0.1165(3) 0.3854(4)
C1B C -0.14760(7) 0.7061(2) 0.3749(2)
H1B H -0.1429 0.8146 0.2984
H2B H -0.1679 0.7540 0.4735
O2B O -0.05378(5) 0.47410(17) 0.29579(15)
O2A O -0.05378(5) 0.02590(17) 0.79579(15)
O2C O 0.05378(5) 0.97410(17) 0.20421(15)
N2B N -0.45344(9) 0.2119(3) 0.4068(3)
C2B C -0.24120(8) 0.6382(3) 0.2581(3)
H3B H -0.2658 0.6366 0.3575
H4B H -0.2367 0.7729 0.2232
O3B O -0.03208(5) 0.79151(17) 0.44179(15)
O3A O -0.03208(5) 0.70849(17) -0.05821(15)
O3A_2 O -0.03208(5) 0.70849(17) 0.94179(15)
O3C O 0.03208(5) 0.29151(17) 0.05821(15)
O3C_2 O 0.03208(5) 0.29151(17) 1.05821(15)
N3B N -0.38943(9) 0.4705(3) 0.3046(3)
C3B C -0.27223(9) 0.5246(3) 0.1214(3)
H5B H -0.2434 0.4957 0.0347
H6B H -0.3032 0.6060 0.0723
O4B O -0.08150(5) 0.50964(19) 0.60025(15)
N4B N -0.31636(9) 0.0206(3) 0.2062(3)
C4B C -0.27997(10) 0.1556(3) 0.1495(3)
H7B H -0.2443 0.1266 0.0957
H8B H -0.4064(10) -0.208(3) 0.352(3)
H9B H -0.4617(9) -0.144(4) 0.444(3)
O5B O -0.12215(7) 0.3570(2) 0.9911(2)
N5B N -0.29923(7) 0.3424(3) 0.1765(2)
C5B C -0.43811(12) 0.3968(4) 0.3766(4)
H10B H -0.4659 0.4892 0.4113
H11B H -0.1233(13) 0.240(2) 1.030(4)
H12B H -0.1231(14) 0.421(4) 1.085(2)
C6B C -0.41614(10) 0.0692(3) 0.3562(3)
C7B C -0.36304(10) 0.1262(3) 0.2745(3)
C8B C -0.35328(9) 0.3248(3) 0.2565(3)
loop_
_geom_bond_atom_site_label_1
_geom_bond_atom_site_label_2
_geom_bond_site_symmetry_1
_geom_bond_site_symmetry_2
Ca1 O4 1_555 1_555
P1 C1 1_555 1_555
O1 C1 1_555 1_555
N1 H8 1_555 1_555
C1 H1 1_555 1_555
H2 C1 1_555 1_555
O2 P1 1_555 1_555
N2 C5 1_555 1_555
C2 O1 1_555 1_555
H3 C2 1_555 1_555
H4 C2 1_555 1_555
O3 P1 1_555 1_555
N3 C5 1_555 1_555
C3 C2 1_555 1_555
H5 C3 1_555 1_555
H6 C3 1_555 1_555
O4 P1 1_555 1_555
N4 C4 1_555 1_555
C4 H7 1_555 1_555
H9 N1 1_555 1_555
O5 Ca1 1_555 1_555
N5 C3 1_555 1_555
C5 H10 1_555 1_555
H11 O5 1_555 1_555
H12 O5 1_555 1_555
C6 N1 1_555 1_555
C7 N4 1_555 1_555
C8 N3 1_555 1_555
Ca1B O2 1_555 1_555
Ca1A O3 1_555 1_555
Ca1A_2 O2C 1_555 1_555
Ca1C O3 1_555 1_555
Ca1C_2 O2 1_555 1_555
P1B C1B 1_555 1_555
O1B C1B 1_555 1_555
N1B H8B 1_555 1_555
C1B H1B 1_555 1_555
H2B C1B 1_555 1_555
O2B Ca1 1_555 1_555
O2A Ca1B 1_555 1_555
O2C Ca1 1_555 1_555
N2B C5B 1_555 1_555
C2B O1B 1_555 1_555
H3B C2B 1_555 1_555
H4B C2B 1_555 1_555
O3B Ca1 1_555 1_555
O3A Ca1 1_555 1_555
O3A_2 Ca1B 1_555 1_555
O3C Ca1 1_555 1_555
O3C_2 Ca1B 1_555 1_555
N3B C5B 1_555 1_555
C3B C2B 1_555 1_555
H5B C3B 1_555 1_555
H6B C3B 1_555 1_555
O4B Ca1B 1_555 1_555
N4B C4B 1_555 1_555
C4B H7B 1_555 1_555
H9B N1B 1_555 1_555
O5B Ca1B 1_555 1_555
N5B C3B 1_555 1_555
C5B H10B 1_555 1_555
H11B O5B 1_555 1_555
H12B O5B 1_555 1_555
C6B N1B 1_555 1_555
C7B N4B 1_555 1_555
C8B N3B 1_555 1_555
N2 C6 1_555 1_555
O3 Ca1B 1_555 1_555
C4 N5 1_555 1_555
N5 C8 1_555 1_555
C6 C7 1_555 1_555
C7 C8 1_555 1_555
Ca1A O2B 1_555 1_555
Ca1A O3C 1_555 1_555
Ca1A_2 O3B 1_555 1_555
Ca1C O2A 1_555 1_555
Ca1C_2 O3B 1_555 1_555
Ca1C_2 O3A_2 1_555 1_555
P1B O2B 1_555 1_555
P1B O3B 1_555 1_555
P1B O4B 1_555 1_555
N2B C6B 1_555 1_555
C4B N5B 1_555 1_555
N5B C8B 1_555 1_555
C6B C7B 1_555 1_555
C7B C8B 1_555 1_555

#END
