
#######################################################################
#
#                 Cambridge Crystallographic Data Centre
#                                CCDC 
#
#######################################################################
#
# If this CIF has been generated from an entry in the Cambridge 
# Structural Database, then it will include bibliographic, chemical, 
# crystal, experimental, refinement or atomic coordinate data resulting 
# from the CCDC's data processing and validation procedures.
#
#######################################################################

data_IZEDEX
_symmetry_cell_setting           triclinic
_symmetry_space_group_name_H-M   'P -1'
_symmetry_Int_Tables_number      2
_space_group_name_Hall           '-P 1'
loop_
_symmetry_equiv_pos_site_id
_symmetry_equiv_pos_as_xyz
1 x,y,z
2 -x,-y,-z
_cell_length_a                   13.383(2)
_cell_length_b                   14.061(2)
_cell_length_c                   17.020(3)
_cell_angle_alpha                68.285(2)
_cell_angle_beta                 70.473(2)
_cell_angle_gamma                87.256(2)
_cell_volume                     2793.85
loop_
_atom_site_label
_atom_site_type_symbol
_atom_site_fract_x
_atom_site_fract_y
_atom_site_fract_z
W1 W 0.28173(4) 0.38414(4) -0.26316(4)
W2 W 0.25684(4) 0.26872(4) -0.42175(3)
W3 W 0.02840(4) 0.39509(4) -0.31346(4)
W4 W 0.13379(4) -0.17572(4) 0.22914(4)
W5 W 0.10793(4) -0.28323(4) 0.09021(3)
W6 W 0.14577(4) 0.27007(4) -0.04063(4)
W7 W 0.34838(4) 0.15638(4) -0.13913(4)
W8 W 0.32544(4) 0.04198(4) -0.29771(4)
W9 W 0.09387(4) 0.05126(4) -0.33570(3)
Ge1 Ge 0.10587(10) 0.15160(9) -0.17985(8)
O1 O 0.2238(19) 0.3978(19) -0.6719(18)
O7 O 0.3558(7) 0.5006(7) -0.3238(7)
O8 O 0.3873(7) 0.3010(7) -0.2263(6)
O9 O 0.2223(7) 0.3948(7) -0.1492(6)
O10 O 0.1466(7) 0.4184(6) -0.2798(6)
O11 O 0.1952(7) 0.2219(6) -0.1628(6)
O12 O 0.3030(7) 0.3268(7) -0.3526(6)
O13 O 0.3214(7) 0.3528(7) -0.5307(7)
O14 O 0.3582(7) 0.1707(6) -0.4066(6)
O15 O 0.1756(8) 0.1782(7) -0.4384(6)
O16 O 0.1750(6) 0.1349(6) -0.2799(6)
O17 O 0.1293(7) 0.3378(7) -0.3902(6)
O18 O 0.0248(7) 0.5149(7) -0.3914(6)
O19 O 0.0610(7) -0.4086(7) 0.2058(6)
O20 O -0.0036(6) -0.2300(6) 0.1982(6)
O21 O 0.0822(7) -0.3221(7) 0.3183(6)
O22 O 0.2424(8) -0.1615(7) 0.2584(7)
O23 O 0.0222(7) -0.1350(7) 0.3121(6)
O24 O 0.1421(7) -0.0567(7) 0.1372(6)
O25 O 0.1960(7) -0.2450(7) 0.1458(7)
O26 O 0.1950(8) -0.3439(7) 0.0269(7)
O27 O 0.1183(7) -0.1536(6) 0.0103(6)
O28 O -0.0213(7) -0.3158(6) 0.0747(6)
O29 O 0.1332(8) 0.3237(8) 0.0388(7)
O30 O 0.0770(7) 0.1444(7) 0.0272(6)
O31 O 0.2843(7) 0.2221(7) -0.0508(6)
O32 O 0.4662(7) 0.1278(8) -0.1161(7)
O33 O 0.2619(7) 0.0414(7) -0.0622(6)
O34 O 0.3695(7) 0.1165(7) -0.2379(6)
O35 O 0.4358(8) -0.0187(8) -0.3327(7)
O36 O 0.2451(7) -0.0527(7) -0.1858(7)
O37 O 0.2385(8) 0.0025(7) -0.3518(7)
O38 O 0.0557(8) -0.0034(7) -0.3999(7)
O39 O 0.0427(7) -0.0434(7) -0.2234(6)
O40 O -0.0570(6) -0.0357(6) 0.0910(5)
Co1 Co 0.33081(18) 0.48789(19) -0.65187(15)
Co2 Co 0.5000 0.0000 0.0000
Co3 Co 0.0000 0.0000 -0.5000
Co4 Co 0.08666(14) -0.10533(12) -0.11231(12)
Co5 Co 0.10779(13) -0.00458(12) 0.02103(11)
N1 N 0.2065(10) 0.5467(10) -0.5744(9)
H1 H 0.1646 0.5789 -0.6062
H2 H 0.1665 0.4951 -0.5246
N2 N 0.4237(10) 0.5695(11) -0.6183(10)
H3 H 0.4736 0.5299 -0.6018
H4 H 0.4575 0.6251 -0.6674
N3 N 0.3476(15) 0.6174(16) -0.7770(13)
H5 H 0.2879 0.6229 -0.7911
H6 H 0.3658 0.6771 -0.7749
N4 N 0.4551(16) 0.4345(14) -0.7272(10)
H7 H 0.5122 0.4398 -0.7119
H8 H 0.4391 0.3672 -0.7120
N5 N 0.3736(10) 0.0347(9) 0.0921(9)
H9 H 0.3184 0.0489 0.0719
H10 H 0.3525 -0.0193 0.1449
N6 N 0.5851(9) 0.1092(9) 0.0136(9)
H11 H 0.6466 0.0853 0.0203
H12 H 0.6007 0.1670 -0.0361
N7 N 0.1133(14) 0.1291(14) -0.5908(14)
H13 H 0.1032 0.1568 -0.6442
H14 H 0.1094 0.1778 -0.5676
N8 N 0.1325(13) -0.0838(11) -0.5508(10)
H15 H 0.1539 -0.1235 -0.5052
H16 H 0.1099 -0.1253 -0.5721
N9 N 0.1598(16) -0.3298(15) -0.3305(13)
H17 H 0.2050 -0.2755 -0.3699
H18 H 0.1839 -0.3859 -0.3403
H19 H 0.0963 -0.3206 -0.3369
N10 N 0.1121(12) -0.2486(10) -0.1318(9)
H20 H 0.0560 -0.2937 -0.0925
H21 H 0.1698 -0.2731 -0.1177
C1 C 0.2527(14) 0.6205(18) -0.5489(17)
H22 H 0.2051 0.6179 -0.4908
H23 H 0.2544 0.6892 -0.5922
C2 C 0.3616(16) 0.604(2) -0.544(2)
H24 H 0.3510 0.5429 -0.4889
C3 C 0.415(2) 0.680(2) -0.5316(19)
H25 H 0.3685 0.6969 -0.4830
H26 H 0.4361 0.7401 -0.5858
H27 H 0.4773 0.6531 -0.5178
C4 C 0.4359(17) 0.5854(16) -0.8400(15)
H28 H 0.4946 0.6367 -0.8612
H29 H 0.4134 0.5971 -0.8912
C5 C 0.4862(17) 0.4853(15) -0.8261(11)
H30 H 0.4395 0.4460 -0.8390
C6 C 0.5938(15) 0.480(2) -0.8905(16)
H31 H 0.6149 0.4110 -0.8704
H32 H 0.6452 0.5266 -0.8925
H33 H 0.5897 0.4976 -0.9494
C7 C 0.4081(11) 0.1238(15) 0.1044(16)
H34 H 0.3687 0.1197 0.1650
H35 H 0.3914 0.1858 0.0629
C8 C 0.5240(12) 0.1311(17) 0.0895(17)
H36 H 0.5310 0.0716 0.1399
C9 C 0.5630(15) 0.2182(15) 0.1024(14)
H37 H 0.5135 0.2258 0.1551
H38 H 0.5698 0.2799 0.0508
H39 H 0.6311 0.2058 0.1097
C10 C 0.1270(17) -0.2460(17) -0.2209(14)
H40 H 0.0631 -0.2230 -0.2346
H41 H 0.1848 -0.1943 -0.2635
C11 C 0.1501(19) -0.3420(18) -0.2373(13)
H42 H 0.2203 -0.3579 -0.2320
C12 C 0.0743(15) -0.4413(12) -0.1745(12)
H43 H 0.0686 -0.4564 -0.1133
H44 H 0.0052 -0.4311 -0.1800
H45 H 0.1024 -0.4977 -0.1914
C13 C 0.2176(18) 0.082(2) -0.600(2)
H46 H 0.2242 0.0590 -0.5403
C14 C 0.224(2) -0.014(2) -0.6233(19)
H47 H 0.2178 0.0026 -0.6819
H48 H 0.2908 -0.0438 -0.6230
C15 C 0.3200(19) 0.1555(19) -0.6657(19)
H49 H 0.3818 0.1186 -0.6635
H50 H 0.3226 0.2125 -0.6481
H51 H 0.3183 0.1805 -0.7259
W1A W 0.71827(4) -0.38414(4) 0.26316(4)
W2A W 0.74316(4) -0.26872(4) 0.42175(3)
W2A_2 W -0.25684(4) -0.26872(4) 0.42175(3)
W3A W 0.97160(4) -0.39509(4) 0.31346(4)
W3A_2 W -0.02840(4) -0.39509(4) 0.31346(4)
W4A W -0.13379(4) 0.17572(4) -0.22914(4)
W5A W -0.10793(4) 0.28323(4) -0.09021(3)
W6A W -0.14577(4) -0.27007(4) 0.04063(4)
W6A_2 W 0.85423(4) -0.27007(4) 0.04063(4)
W7A W 0.65162(4) -0.15638(4) 0.13913(4)
W7A_2 W -0.34838(4) -0.15638(4) 0.13913(4)
W8A W -0.32544(4) -0.04198(4) 0.29771(4)
W8A_2 W 0.67456(4) -0.04198(4) 0.29771(4)
W9A W -0.09387(4) -0.05126(4) 0.33570(3)
Ge1A Ge 0.89413(10) -0.15160(9) 0.17985(8)
Ge1A_2 Ge -0.10587(10) -0.15160(9) 0.17985(8)
O1A O 0.7762(19) -0.3978(19) 0.6719(18)
O7A O 0.6442(7) -0.5006(7) 0.3238(7)
O8A O 0.6127(7) -0.3010(7) 0.2263(6)
O9A O 0.7777(7) -0.3948(7) 0.1492(6)
O9A_2 O -0.2223(7) -0.3948(7) 0.1492(6)
O10A O 0.8534(7) -0.4184(6) 0.2798(6)
O11A O 0.8048(7) -0.2219(6) 0.1628(6)
O11A_2 O -0.1952(7) -0.2219(6) 0.1628(6)
O12A O 0.6970(7) -0.3268(7) 0.3526(6)
O13A O 0.6786(7) -0.3528(7) 0.5307(7)
O14A O -0.3582(7) -0.1707(6) 0.4066(6)
O14A_2 O 0.6418(7) -0.1707(6) 0.4066(6)
O15A O -0.1756(8) -0.1782(7) 0.4384(6)
O15A_2 O 0.8244(8) -0.1782(7) 0.4384(6)
O16A O -0.1750(6) -0.1349(6) 0.2799(6)
O16A_2 O 0.8250(6) -0.1349(6) 0.2799(6)
O17A O 0.8707(7) -0.3378(7) 0.3902(6)
O18A O 0.9752(7) -0.5149(7) 0.3914(6)
O19A O -0.0610(7) 0.4086(7) -0.2058(6)
O19_2 O 1.0610(7) -0.4086(7) 0.2058(6)
O20A O 0.0036(6) 0.2300(6) -0.1982(6)
O20_2 O 0.9964(6) -0.2300(6) 0.1982(6)
O21A O -0.0822(7) 0.3221(7) -0.3183(6)
O21_2 O 1.0822(7) -0.3221(7) 0.3183(6)
O22A O -0.2424(8) 0.1615(7) -0.2584(7)
O23A O -0.0222(7) 0.1350(7) -0.3121(6)
O24A O -0.1421(7) 0.0567(7) -0.1372(6)
O25A O -0.1960(7) 0.2450(7) -0.1458(7)
O26A O -0.1950(8) 0.3439(7) -0.0269(7)
O27A O -0.1183(7) 0.1536(6) -0.0103(6)
O28A O 0.0213(7) 0.3158(6) -0.0747(6)
O29A O -0.1332(8) -0.3237(8) -0.0388(7)
O30A O -0.0770(7) -0.1444(7) -0.0272(6)
O31A O 0.7157(7) -0.2221(7) 0.0508(6)
O31A_2 O -0.2843(7) -0.2221(7) 0.0508(6)
O32A O 0.5338(7) -0.1278(8) 0.1161(7)
O33A O -0.2619(7) -0.0414(7) 0.0622(6)
O33A_2 O 0.7381(7) -0.0414(7) 0.0622(6)
O34A O 0.6305(7) -0.1165(7) 0.2379(6)
O34A_2 O -0.3695(7) -0.1165(7) 0.2379(6)
O35A O -0.4358(8) 0.0187(8) 0.3327(7)
O36A O -0.2451(7) 0.0527(7) 0.1858(7)
O37A O -0.2385(8) -0.0025(7) 0.3518(7)
O38A O -0.0557(8) 0.0034(7) -0.6001(7)
O38A_2 O -0.0557(8) 0.0034(7) 0.3999(7)
O39A O -0.0427(7) 0.0434(7) 0.2234(6)
O40A O 0.0570(6) 0.0357(6) -0.0910(5)
O40_2 O 0.9430(6) -0.0357(6) 0.0910(5)
Co1A Co 0.66919(18) -0.48789(19) 0.65187(15)
Co4A Co -0.08666(14) 0.10533(12) 0.11231(12)
Co5A Co -0.10779(13) 0.00458(12) -0.02103(11)
N1A N 0.7935(10) -0.5467(10) 0.5744(9)
H1A H 0.8354 -0.5789 0.6062
H2A H 0.8335 -0.4951 0.5246
N2A N 0.5763(10) -0.5695(11) 0.6183(10)
H3A H 0.5264 -0.5299 0.6018
H4A H 0.5425 -0.6251 0.6674
N3A N 0.6524(15) -0.6174(16) 0.7770(13)
H5A H 0.7121 -0.6229 0.7911
H6A H 0.6342 -0.6771 0.7749
N4A N 0.5449(16) -0.4345(14) 0.7272(10)
H7A H 0.4878 -0.4398 0.7119
H8A H 0.5609 -0.3672 0.7120
N5A N 0.6264(10) -0.0347(9) -0.0921(9)
H9A H 0.6816 -0.0489 -0.0719
H10A H 0.6475 0.0193 -0.1449
N6A N 0.4149(9) -0.1092(9) -0.0136(9)
H11A H 0.3534 -0.0853 -0.0203
H12A H 0.3993 -0.1670 0.0361
N7A N -0.1133(14) -0.1291(14) -0.4092(14)
H13A H -0.1032 -0.1568 -0.3558
H14A H -0.1094 -0.1778 -0.4324
N8A N -0.1325(13) 0.0838(11) -0.4492(10)
H15A H -0.1539 0.1235 -0.4948
H16A H -0.1099 0.1253 -0.4279
N9A N -0.1598(16) 0.3298(15) 0.3305(13)
H17A H -0.2050 0.2755 0.3699
H18A H -0.1839 0.3859 0.3403
H19A H -0.0963 0.3206 0.3369
N10A N -0.1121(12) 0.2486(10) 0.1318(9)
H20A H -0.0560 0.2937 0.0925
H21A H -0.1698 0.2731 0.1177
C1A C 0.7473(14) -0.6205(18) 0.5489(17)
H22A H 0.7949 -0.6179 0.4908
H23A H 0.7456 -0.6892 0.5922
C2A C 0.6384(16) -0.604(2) 0.544(2)
H24A H 0.6490 -0.5429 0.4889
C3A C 0.585(2) -0.680(2) 0.5316(19)
H25A H 0.6315 -0.6969 0.4830
H26A H 0.5639 -0.7401 0.5858
H27A H 0.5227 -0.6531 0.5178
C4A C 0.5641(17) -0.5854(16) 0.8400(15)
H28A H 0.5054 -0.6367 0.8612
H29A H 0.5866 -0.5971 0.8912
C5A C 0.5138(17) -0.4853(15) 0.8261(11)
H30A H 0.5605 -0.4460 0.8390
C6A C 0.4062(15) -0.480(2) 0.8905(16)
H31A H 0.3851 -0.4110 0.8704
H32A H 0.3548 -0.5266 0.8925
H33A H 0.4103 -0.4976 0.9494
C7A C 0.5919(11) -0.1238(15) -0.1044(16)
H34A H 0.6313 -0.1197 -0.1650
H35A H 0.6086 -0.1858 -0.0629
C8A C 0.4760(12) -0.1311(17) -0.0895(17)
H36A H 0.4690 -0.0716 -0.1399
C9A C 0.4370(15) -0.2182(15) -0.1024(14)
H37A H 0.4865 -0.2258 -0.1551
H38A H 0.4302 -0.2799 -0.0508
H39A H 0.3689 -0.2058 -0.1097
C10A C -0.1270(17) 0.2460(17) 0.2209(14)
H40A H -0.0631 0.2230 0.2346
H41A H -0.1848 0.1943 0.2635
C11A C -0.1501(19) 0.3420(18) 0.2373(13)
H42A H -0.2203 0.3579 0.2320
C12A C -0.0743(15) 0.4413(12) 0.1745(12)
H43A H -0.0686 0.4564 0.1133
H44A H -0.0052 0.4311 0.1800
H45A H -0.1024 0.4977 0.1914
C13A C -0.2176(18) -0.082(2) -0.400(2)
H46A H -0.2242 -0.0590 -0.4597
C14A C -0.224(2) 0.014(2) -0.3767(19)
H47A H -0.2178 -0.0026 -0.3181
H48A H -0.2908 0.0438 -0.3770
C15A C -0.3200(19) -0.1555(19) -0.3343(19)
H49A H -0.3818 -0.1186 -0.3365
H50A H -0.3226 -0.2125 -0.3519
H51A H -0.3183 -0.1805 -0.2741
O2 O -0.1320(14) -0.1602(13) 0.7872(13)
O3 O -0.0197(12) 0.7076(9) 0.5161(10)
O4 O -0.098(2) 0.490(2) 0.002(2)
O5 O 0.502(3) -0.215(3) -0.392(3)
O6 O 0.161(3) 0.414(3) 0.188(3)
loop_
_geom_bond_atom_site_label_1
_geom_bond_atom_site_label_2
_geom_bond_site_symmetry_1
_geom_bond_site_symmetry_2
W1 O7 1_555 1_555
W2 O12 1_555 1_555
W3 O10 1_555 1_555
W4 O20 1_555 1_555
W5 O19 1_555 1_555
W6 O9 1_555 1_555
W7 O8 1_555 1_555
W8 O14 1_555 1_555
W9 O15 1_555 1_555
Ge1 O11 1_555 1_555
O1 Co1 1_555 1_555
O8 W1 1_555 1_555
O9 W1 1_555 1_555
O10 W1 1_555 1_555
O11 W1 1_555 1_555
O12 W1 1_555 1_555
O13 W2 1_555 1_555
O14 W2 1_555 1_555
O15 W2 1_555 1_555
O16 W2 1_555 1_555
O17 W2 1_555 1_555
O18 W3 1_555 1_555
O19 W3A_2 1_555 1_555
O20 W5 1_555 1_555
O21 W4 1_555 1_555
O22 W4 1_555 1_555
O23 W4 1_555 1_555
O24 W4 1_555 1_555
O25 W4 1_555 1_555
O26 W5 1_555 1_555
O27 W5 1_555 1_555
O28 W5 1_555 1_555
O29 W6 1_555 1_555
O30 W6 1_555 1_555
O31 W6 1_555 1_555
O32 W7 1_555 1_555
O33 W7 1_555 1_555
O34 W7 1_555 1_555
O35 W8 1_555 1_555
O36 W8 1_555 1_555
O37 W8 1_555 1_555
O38 W9 1_555 1_555
O39 W9 1_555 1_555
O40 Co5 1_555 1_555
Co1 O13 1_555 1_555
Co2 O32 1_555 1_555
Co3 O38 1_555 1_555
Co4 O27 1_555 1_555
Co5 O24 1_555 1_555
N1 Co1 1_555 1_555
H1 N1 1_555 1_555
H2 N1 1_555 1_555
N2 Co1 1_555 1_555
H3 N2 1_555 1_555
H4 N2 1_555 1_555
N3 Co1 1_555 1_555
H5 N3 1_555 1_555
H6 N3 1_555 1_555
N4 Co1 1_555 1_555
H7 N4 1_555 1_555
H8 N4 1_555 1_555
N5 Co2 1_555 1_555
H9 N5 1_555 1_555
H10 N5 1_555 1_555
N6 Co2 1_555 1_555
H11 N6 1_555 1_555
H12 N6 1_555 1_555
N7 Co3 1_555 1_555
H13 N7 1_555 1_555
H14 N7 1_555 1_555
N8 Co3 1_555 1_555
H15 N8 1_555 1_555
H16 N8 1_555 1_555
N9 H17 1_555 1_555
H18 N9 1_555 1_555
H19 N9 1_555 1_555
N10 Co4 1_555 1_555
H20 N10 1_555 1_555
H21 N10 1_555 1_555
C1 N1 1_555 1_555
H22 C1 1_555 1_555
H23 C1 1_555 1_555
C2 N2 1_555 1_555
H24 C2 1_555 1_555
C3 C2 1_555 1_555
H25 C3 1_555 1_555
H26 C3 1_555 1_555
H27 C3 1_555 1_555
C4 N3 1_555 1_555
H28 C4 1_555 1_555
H29 C4 1_555 1_555
C5 N4 1_555 1_555
H30 C5 1_555 1_555
C6 C5 1_555 1_555
H31 C6 1_555 1_555
H32 C6 1_555 1_555
H33 C6 1_555 1_555
C7 N5 1_555 1_555
H34 C7 1_555 1_555
H35 C7 1_555 1_555
C8 N6 1_555 1_555
H36 C8 1_555 1_555
C9 C8 1_555 1_555
H37 C9 1_555 1_555
H38 C9 1_555 1_555
H39 C9 1_555 1_555
C10 N10 1_555 1_555
H40 C10 1_555 1_555
H41 C10 1_555 1_555
C11 N9 1_555 1_555
H42 C11 1_555 1_555
C12 C11 1_555 1_555
H43 C12 1_555 1_555
H44 C12 1_555 1_555
H45 C12 1_555 1_555
C13 N7 1_555 1_555
H46 C13 1_555 1_555
C14 N8 1_555 1_555
H47 C14 1_555 1_555
H48 C14 1_555 1_555
C15 C13 1_555 1_555
H49 C15 1_555 1_555
H50 C15 1_555 1_555
H51 C15 1_555 1_555
W1A O7A 1_555 1_555
W2A O12A 1_555 1_555
W2A_2 O14A 1_555 1_555
W3A O10A 1_555 1_555
W3A_2 O20 1_555 1_555
W4A O20A 1_555 1_555
W5A O19A 1_555 1_555
W6A O28 1_555 1_555
W6A_2 O9A 1_555 1_555
W7A O8A 1_555 1_555
W7A_2 O11A_2 1_555 1_555
W8A O14A 1_555 1_555
W8A_2 O14A_2 1_555 1_555
W9A O23 1_555 1_555
Ge1A O11A 1_555 1_555
Ge1A_2 O20 1_555 1_555
O1A Co1A 1_555 1_555
O8A W1A 1_555 1_555
O9A W1A 1_555 1_555
O9A_2 W6A 1_555 1_555
O10A W1A 1_555 1_555
O11A W1A 1_555 1_555
O11A_2 W6A 1_555 1_555
O12A W1A 1_555 1_555
O13A W2A 1_555 1_555
O14A_2 W2A 1_555 1_555
O15A W2A_2 1_555 1_555
O15A_2 W2A 1_555 1_555
O16A W2A_2 1_555 1_555
O16A_2 W2A 1_555 1_555
O17A W2A 1_555 1_555
O18A W3A 1_555 1_555
O19A W3 1_555 1_555
O19_2 W3A 1_555 1_555
O20A W3 1_555 1_555
O20_2 W3A 1_555 1_555
O21A W3 1_555 1_555
O21_2 W3A 1_555 1_555
O22A W4A 1_555 1_555
O23A W9 1_555 1_555
O24A W4A 1_555 1_555
O25A W4A 1_555 1_555
O26A W5A 1_555 1_555
O27A W5A 1_555 1_555
O28A W6 1_555 1_555
O29A W6A 1_555 1_555
O30A Co4 1_555 1_555
O31A W6A_2 1_555 1_555
O31A_2 W6A 1_555 1_555
O32A Co2 1_555 1_555
O33A W7A_2 1_555 1_555
O33A_2 W7A 1_555 1_555
O34A W7A 1_555 1_555
O34A_2 W7A_2 1_555 1_555
O35A W8A 1_555 1_555
O36A W8A 1_555 1_555
O37A W8A 1_555 1_555
O38A Co3 1_555 1_555
O38A_2 W9A 1_555 1_555
O39A W9A 1_555 1_555
O40A Ge1 1_555 1_555
O40_2 Ge1A 1_555 1_555
Co1A O13A 1_555 1_555
Co4A O30 1_555 1_555
Co5A O40 1_555 1_555
N1A Co1A 1_555 1_555
H1A N1A 1_555 1_555
H2A N1A 1_555 1_555
N2A Co1A 1_555 1_555
H3A N2A 1_555 1_555
H4A N2A 1_555 1_555
N3A Co1A 1_555 1_555
H5A N3A 1_555 1_555
H6A N3A 1_555 1_555
N4A Co1A 1_555 1_555
H7A N4A 1_555 1_555
H8A N4A 1_555 1_555
N5A Co2 1_555 1_555
H9A N5A 1_555 1_555
H10A N5A 1_555 1_555
N6A Co2 1_555 1_555
H11A N6A 1_555 1_555
H12A N6A 1_555 1_555
N7A Co3 1_555 1_555
H13A N7A 1_555 1_555
H14A N7A 1_555 1_555
N8A Co3 1_555 1_555
H15A N8A 1_555 1_555
H16A N8A 1_555 1_555
N9A H17A 1_555 1_555
H18A N9A 1_555 1_555
H19A N9A 1_555 1_555
N10A Co4A 1_555 1_555
H20A N10A 1_555 1_555
H21A N10A 1_555 1_555
C1A N1A 1_555 1_555
H22A C1A 1_555 1_555
H23A C1A 1_555 1_555
C2A N2A 1_555 1_555
H24A C2A 1_555 1_555
C3A C2A 1_555 1_555
H25A C3A 1_555 1_555
H26A C3A 1_555 1_555
H27A C3A 1_555 1_555
C4A N3A 1_555 1_555
H28A C4A 1_555 1_555
H29A C4A 1_555 1_555
C5A N4A 1_555 1_555
H30A C5A 1_555 1_555
C6A C5A 1_555 1_555
H31A C6A 1_555 1_555
H32A C6A 1_555 1_555
H33A C6A 1_555 1_555
C7A N5A 1_555 1_555
H34A C7A 1_555 1_555
H35A C7A 1_555 1_555
C8A N6A 1_555 1_555
H36A C8A 1_555 1_555
C9A C8A 1_555 1_555
H37A C9A 1_555 1_555
H38A C9A 1_555 1_555
H39A C9A 1_555 1_555
C10A N10A 1_555 1_555
H40A C10A 1_555 1_555
H41A C10A 1_555 1_555
C11A N9A 1_555 1_555
H42A C11A 1_555 1_555
C12A C11A 1_555 1_555
H43A C12A 1_555 1_555
H44A C12A 1_555 1_555
H45A C12A 1_555 1_555
C13A N7A 1_555 1_555
H46A C13A 1_555 1_555
C14A N8A 1_555 1_555
H47A C14A 1_555 1_555
H48A C14A 1_555 1_555
C15A C13A 1_555 1_555
H49A C15A 1_555 1_555
H50A C15A 1_555 1_555
H51A C15A 1_555 1_555
W3 O17 1_555 1_555
W5 O25 1_555 1_555
W6 O11 1_555 1_555
W7 O11 1_555 1_555
W7 O31 1_555 1_555
W8 O16 1_555 1_555
W8 O34 1_555 1_555
W9 O16 1_555 1_555
W9 O37 1_555 1_555
Ge1 O16 1_555 1_555
Ge1 O20A 1_555 1_555
O21 W3A_2 1_555 1_555
O27 Co5 1_555 1_555
O30 Co5 1_555 1_555
O33 Co5 1_555 1_555
O36 Co4 1_555 1_555
O39 Co4 1_555 1_555
O40 Ge1A_2 1_555 1_555
O40 Co4A 1_555 1_555
Co4 O40A 1_555 1_555
Co5 O40A 1_555 1_555
C1 C2 1_555 1_555
C4 C5 1_555 1_555
C7 C8 1_555 1_555
C10 C11 1_555 1_555
C13 C14 1_555 1_555
W3A O17A 1_555 1_555
W4A O21A 1_555 1_555
W4A O23A 1_555 1_555
W5A O20A 1_555 1_555
W5A O25A 1_555 1_555
W5A O28A 1_555 1_555
W6A O30A 1_555 1_555
W6A_2 O11A 1_555 1_555
W7A O11A 1_555 1_555
W7A O31A 1_555 1_555
W7A O32A 1_555 1_555
W7A_2 O31A_2 1_555 1_555
W8A O16A 1_555 1_555
W8A O34A_2 1_555 1_555
W8A_2 O16A_2 1_555 1_555
W8A_2 O34A 1_555 1_555
W9A O15A 1_555 1_555
W9A O16A 1_555 1_555
W9A O37A 1_555 1_555
Ge1A O16A_2 1_555 1_555
Ge1A O20_2 1_555 1_555
Ge1A_2 O11A_2 1_555 1_555
Ge1A_2 O16A 1_555 1_555
O24A Co5A 1_555 1_555
O27A Co4A 1_555 1_555
O27A Co5A 1_555 1_555
O30A Co5A 1_555 1_555
O33A Co5A 1_555 1_555
O36A Co4A 1_555 1_555
O39A Co4A 1_555 1_555
O40A Co5A 1_555 1_555
C1A C2A 1_555 1_555
C4A C5A 1_555 1_555
C7A C8A 1_555 1_555
C10A C11A 1_555 1_555
C13A C14A 1_555 1_555

#END
