
#######################################################################
#
#                 Cambridge Crystallographic Data Centre
#                                CCDC 
#
#######################################################################
#
# If this CIF has been generated from an entry in the Cambridge 
# Structural Database, then it will include bibliographic, chemical, 
# crystal, experimental, refinement or atomic coordinate data resulting 
# from the CCDC's data processing and validation procedures.
#
#######################################################################

data_IZEGIE
_symmetry_cell_setting           monoclinic
_symmetry_space_group_name_H-M   'C m'
_symmetry_Int_Tables_number      8
_space_group_name_Hall           'C -2y'
loop_
_symmetry_equiv_pos_site_id
_symmetry_equiv_pos_as_xyz
1 x,y,z
2 x,-y,z
3 1/2+x,1/2+y,z
4 1/2+x,1/2-y,z
_cell_length_a                   14.268(3)
_cell_length_b                   12.075(2)
_cell_length_c                   8.6226(17)
_cell_angle_alpha                90
_cell_angle_beta                 121.64(3)
_cell_angle_gamma                90
_cell_volume                     1264.74
loop_
_atom_site_label
_atom_site_type_symbol
_atom_site_fract_x
_atom_site_fract_y
_atom_site_fract_z
Sm1 Sm 0.75408(4) 0.0000 0.23720(5)
Cu1 Cu 0.44642(10) 0.19590(10) 0.26004(15)
K1 K 0.5859(4) 0.5000 0.4038(7)
O1 O 0.6909(7) 0.1153(7) 0.3881(10)
O2 O 0.5983(7) 0.2442(6) 0.4364(11)
O3 O 1.2109(7) 0.3254(6) 1.0740(12)
O4 O 0.9696(7) 0.3190(6) 1.0606(10)
O5 O 0.8349(12) 0.0000 0.0518(18)
O6 O 1.2907(7) 0.1680(7) 1.0812(12)
O7 O 0.7575(16) 0.5000 0.356(3)
O8 O 0.5579(10) 0.0000 0.0154(15)
H1 H 0.5343 0.0000 -0.0978
H2 H 0.5126 0.0000 0.0514
O9 O 0.9116(7) 0.1149(6) 0.4222(9)
O10 O 0.9797(8) 0.1371(6) 1.0567(11)
O12 O 0.9181(7) 0.2975(6) 0.4556(11)
O13 O 0.7613(13) 0.5000 0.7975(19)
H5 H 0.8030 0.5547 0.8532
C1 C 1.1022(10) 0.1813(9) 0.8756(15)
H6 H 1.1045 0.1782 0.7653
H7 H 1.0987 0.1056 0.9099
C2 C 0.7910(10) 0.2456(10) 0.6245(15)
H8 H 0.7877 0.2419 0.7339
H9 H 0.7936 0.3232 0.5978
C3 C 1.2083(9) 0.2311(9) 1.0233(14)
C4 C 0.9978(9) 0.2387(8) 0.8315(13)
H10 H 1.0036 0.3173 0.8094
C5 C 0.9834(9) 0.2281(9) 0.9986(14)
C6 C 0.6894(10) 0.1963(9) 0.4722(15)
C7 C 0.8977(10) 0.1896(9) 0.6628(15)
H11 H 0.8935 0.1107 0.6853
C8 C 0.9091(9) 0.1995(8) 0.5060(15)
Sm1B Sm 1.25408(4) 0.5000 1.23720(5)
Sm1B_2 Sm 1.25408(4) -0.5000 1.23720(5)
Cu1A Cu 0.44642(10) -0.19590(10) 0.26004(15)
Cu1C Cu 0.94642(10) 0.30410(10) 1.26004(15)
Cu1_2 Cu 1.44642(10) 0.19590(10) 1.26004(15)
Cu1C_2 Cu 0.94642(10) 0.30410(10) 0.26004(15)
Cu1B Cu 0.94642(10) -0.30410(10) 1.26004(15)
Cu1A_2 Cu 1.44642(10) -0.19590(10) 1.26004(15)
Cu1B_2 Cu 0.94642(10) -0.30410(10) 0.26004(15)
K1B K 1.0859(4) 0.0000 0.4038(7)
K1B_2 K 1.0859(4) 0.0000 1.4038(7)
K1_2 K 0.5859(4) -0.5000 0.4038(7)
O1A O 0.6909(7) -0.1153(7) 0.3881(10)
O2A O 0.5983(7) -0.2442(6) 0.4364(11)
O2A_2 O 0.5983(7) 0.7558(6) 0.4364(11)
O3A O 1.2109(7) -0.3254(6) 1.0740(12)
O3B O 0.7109(7) -0.1746(6) 0.0740(12)
O3C O 0.7109(7) 0.1746(6) 0.0740(12)
O4A O 0.9696(7) -0.3190(6) 1.0606(10)
O4C O 0.4696(7) 0.1810(6) 0.0606(10)
O4B O 0.4696(7) -0.1810(6) 0.0606(10)
O5B O 0.3349(12) 0.5000 0.0518(18)
O6A O 1.2907(7) -0.1680(7) 1.0812(12)
O6_2 O 0.2907(7) 0.1680(7) 0.0812(12)
O6A_2 O 0.2907(7) -0.1680(7) 0.0812(12)
O9A O 0.9116(7) -0.1149(6) 0.4222(9)
O9B O 0.4116(7) 0.6149(6) 0.4222(9)
O9C O 0.4116(7) 0.3851(6) 0.4222(9)
O10A O 0.9797(8) -0.1371(6) 1.0567(11)
O10B O 0.4797(8) 0.6371(6) 0.0567(11)
O10C O 0.4797(8) 0.3629(6) 0.0567(11)
O12A O 0.9181(7) -0.2975(6) 0.4556(11)
O12C O 0.4181(7) 0.2025(6) 0.4556(11)
O12B O 0.4181(7) -0.2025(6) 0.4556(11)
H5A H 0.8030 0.4453 0.8532
C1A C 1.1022(10) -0.1813(9) 0.8756(15)
H6A H 1.1045 -0.1782 0.7653
H7A H 1.0987 -0.1056 0.9099
C2A C 0.7910(10) -0.2456(10) 0.6245(15)
H8A H 0.7877 -0.2419 0.7339
H9A H 0.7936 -0.3232 0.5978
C3A C 1.2083(9) -0.2311(9) 1.0233(14)
C4A C 0.9978(9) -0.2387(8) 0.8315(13)
H10A H 1.0036 -0.3173 0.8094
C5A C 0.9834(9) -0.2281(9) 0.9986(14)
C6A C 0.6894(10) -0.1963(9) 0.4722(15)
C7A C 0.8977(10) -0.1896(9) 0.6628(15)
H11A H 0.8935 -0.1107 0.6853
C8A C 0.9091(9) -0.1995(8) 0.5060(15)
O11 O 0.4891(10) 0.0000 0.3361(16)
H3 H 0.5545 0.0000 0.3578
H4 H 0.4437 0.0000 0.2217
O14 O 0.6037(17) 0.0000 0.700(3)
H12 H 0.6734 0.0000 0.7515
H13 H 0.5745 0.0000 0.5847
loop_
_geom_bond_atom_site_label_1
_geom_bond_atom_site_label_2
_geom_bond_site_symmetry_1
_geom_bond_site_symmetry_2
Sm1 O1 1_555 1_555
Cu1 O2 1_555 1_555
K1 O2 1_555 1_555
O1 C6 1_555 1_555
O2 C6 1_555 1_555
O3 C3 1_555 1_555
O4 C5 1_555 1_555
O5 Sm1 1_555 1_555
O6 C3 1_555 1_555
O7 K1 1_555 1_555
O8 Sm1 1_555 1_555
H1 O8 1_555 1_555
H2 O8 1_555 1_555
O9 Sm1 1_555 1_555
O10 C5 1_555 1_555
O11 H3 1_555 1_555
H4 O11 1_555 1_555
O12 C8 1_555 1_555
O13 K1 1_555 1_555
H5 O13 1_555 1_555
C1 H6 1_555 1_555
H7 C1 1_555 1_555
C2 H8 1_555 1_555
H9 C2 1_555 1_555
C3 C1 1_555 1_555
C4 C1 1_555 1_555
H10 C4 1_555 1_555
C5 C4 1_555 1_555
C6 C2 1_555 1_555
C7 C2 1_555 1_555
H11 C7 1_555 1_555
C8 O9 1_555 1_555
O14 H12 1_555 1_555
H13 O14 1_555 1_555
Sm1B O3 1_555 1_555
Sm1B_2 O3A 1_555 1_555
Cu1A O2A 1_555 1_555
Cu1C O4 1_555 1_555
Cu1_2 O6 1_555 1_555
Cu1C_2 O12 1_555 1_555
Cu1B O4A 1_555 1_555
Cu1A_2 O6A 1_555 1_555
Cu1B_2 O12A 1_555 1_555
K1B O5 1_555 1_555
K1B_2 O10 1_555 1_555
K1_2 O2A 1_555 1_555
O1A Sm1 1_555 1_555
O2A C6A 1_555 1_555
O2A_2 K1 1_555 1_555
O3A C3A 1_555 1_555
O3B Sm1 1_555 1_555
O3C Sm1 1_555 1_555
O4A C5A 1_555 1_555
O4C Cu1 1_555 1_555
O4B Cu1A 1_555 1_555
O5B K1 1_555 1_555
O6A C3A 1_555 1_555
O6_2 Cu1 1_555 1_555
O6A_2 Cu1A 1_555 1_555
O9A Sm1 1_555 1_555
O9B K1 1_555 1_555
O9C K1 1_555 1_555
O10A K1B_2 1_555 1_555
O10B K1 1_555 1_555
O10C K1 1_555 1_555
O12A C8A 1_555 1_555
O12C Cu1 1_555 1_555
O12B Cu1A 1_555 1_555
H5A O13 1_555 1_555
C1A H6A 1_555 1_555
H7A C1A 1_555 1_555
C2A H8A 1_555 1_555
H9A C2A 1_555 1_555
C3A C1A 1_555 1_555
C4A C1A 1_555 1_555
H10A C4A 1_555 1_555
C5A O10A 1_555 1_555
C6A O1A 1_555 1_555
C7A C2A 1_555 1_555
H11A C7A 1_555 1_555
C8A O9A 1_555 1_555
O9 K1B 1_555 1_555
C4 C7 1_555 1_555
C7 C8 1_555 1_555
K1B O9A 1_555 1_555
C2A C6A 1_555 1_555
C4A C5A 1_555 1_555
C4A C7A 1_555 1_555
C7A C8A 1_555 1_555

#END
