
#######################################################################
#
#                 Cambridge Crystallographic Data Centre
#                                CCDC 
#
#######################################################################
#
# If this CIF has been generated from an entry in the Cambridge 
# Structural Database, then it will include bibliographic, chemical, 
# crystal, experimental, refinement or atomic coordinate data resulting 
# from the CCDC's data processing and validation procedures.
#
#######################################################################

data_IZEGEA
_symmetry_cell_setting           monoclinic
_symmetry_space_group_name_H-M   'P 21/n'
_symmetry_Int_Tables_number      14
_space_group_name_Hall           '-P 2yn'
loop_
_symmetry_equiv_pos_site_id
_symmetry_equiv_pos_as_xyz
1 x,y,z
2 1/2-x,1/2+y,1/2-z
3 -x,-y,-z
4 1/2+x,1/2-y,1/2+z
_cell_length_a                   6.9862(14)
_cell_length_b                   13.892(3)
_cell_length_c                   8.9591(18)
_cell_angle_alpha                90
_cell_angle_beta                 100.63(3)
_cell_angle_gamma                90
_cell_volume                     854.58
loop_
_atom_site_label
_atom_site_type_symbol
_atom_site_fract_x
_atom_site_fract_y
_atom_site_fract_z
Cd1 Cd 0.87818(8) 0.18195(4) 0.56765(6)
O1 O 0.9135(8) 0.1633(4) 0.8577(6)
O2 O 0.7591(8) 0.0591(4) 0.6915(6)
O3 O 0.3950(9) 0.1920(4) 0.8813(6)
O4 O 0.5502(8) 0.1698(4) 1.1178(6)
O5 O 1.1840(8) 0.1114(4) 0.6259(6)
H1 H 1.2323 0.0972 0.7174
H2 H 1.2476 0.0997 0.5558
O6 O 0.8371(8) 0.0946(4) 0.3495(6)
H3 H 0.8297 0.0336 0.3529
H4 H 0.8294 0.1230 0.2645
O7 O 0.6218(8) 0.2754(4) 0.6233(6)
H5 H 0.6042 0.2803 0.7144
H6 H 0.5461 0.3045 0.5524
C1 C 0.8163(11) 0.0867(5) 0.8277(8)
C2 C 0.7590(11) 0.0249(5) 0.9515(9)
H7 H 0.8317 0.0455 1.0518
H8 H 0.7914 -0.0433 0.9357
C3 C 0.5378(11) 0.0354(5) 0.9468(8)
H9 H 0.4693 0.0217 0.8408
C4 C 0.4929(11) 0.1393(5) 0.9846(8)
Cd1B Cd 0.12182(8) -0.18195(4) 1.43235(6)
Cd1C Cd 0.37818(8) 0.31805(4) 1.06765(6)
Cd1A Cd 0.62182(8) -0.31805(4) 0.93235(6)
O1B O 0.0865(8) -0.1633(4) 1.1423(6)
O2B O 0.2409(8) -0.0591(4) 1.3085(6)
O3B O 0.6050(9) -0.1920(4) 1.1187(6)
O3C O 0.8950(9) 0.3080(4) 0.3813(6)
O3A O 0.1050(9) -0.3080(4) 1.6187(6)
O4B O 0.4498(8) -0.1698(4) 0.8822(6)
O4C O 1.0502(8) 0.3302(4) 0.6178(6)
O4A O -0.0502(8) -0.3302(4) 1.3822(6)
O5B O -0.1840(8) -0.1114(4) 1.3741(6)
H1B H -0.2323 -0.0972 1.2826
H2B H -0.2476 -0.0997 1.4442
O6B O 0.1629(8) -0.0946(4) 1.6505(6)
H3B H 0.1703 -0.0336 1.6471
H4B H 0.1706 -0.1230 1.7355
O7B O 0.3782(8) -0.2754(4) 1.3767(6)
H5B H 0.3958 -0.2803 1.2856
H6B H 0.4539 -0.3045 1.4476
C1B C 0.1837(11) -0.0867(5) 1.1723(8)
C2B C 0.2410(11) -0.0249(5) 1.0485(9)
H7B H 0.1683 -0.0455 0.9482
H8B H 0.2086 0.0433 1.0643
C3B C 0.4622(11) -0.0354(5) 1.0532(8)
H9B H 0.5307 -0.0217 1.1592
C4B C 0.5071(11) -0.1393(5) 1.0154(8)
O8 O 0.8894(9) 0.3828(4) 0.9061(6)
H10 H 0.8370 0.3358 0.8524
H11 H 0.8521 0.4390 0.8750
loop_
_geom_bond_atom_site_label_1
_geom_bond_atom_site_label_2
_geom_bond_site_symmetry_1
_geom_bond_site_symmetry_2
Cd1 O1 1_555 1_555
O1 C1 1_555 1_555
O2 Cd1 1_555 1_555
O3 C4 1_555 1_555
O4 C4 1_555 1_555
O5 Cd1 1_555 1_555
H1 O5 1_555 1_555
H2 O5 1_555 1_555
O6 Cd1 1_555 1_555
H3 O6 1_555 1_555
H4 O6 1_555 1_555
O7 Cd1 1_555 1_555
H5 O7 1_555 1_555
H6 O7 1_555 1_555
C1 O2 1_555 1_555
C2 C1 1_555 1_555
H7 C2 1_555 1_555
H8 C2 1_555 1_555
C3 C2 1_555 1_555
H9 C3 1_555 1_555
C4 C3 1_555 1_555
O8 H10 1_555 1_555
H11 O8 1_555 1_555
Cd1B O1B 1_555 1_555
Cd1C O3 1_555 1_555
Cd1A O3B 1_555 1_555
O1B C1B 1_555 1_555
O2B Cd1B 1_555 1_555
O3B C4B 1_555 1_555
O3C Cd1 1_555 1_555
O3A Cd1B 1_555 1_555
O4B Cd1A 1_555 1_555
O4C Cd1 1_555 1_555
O4A Cd1B 1_555 1_555
O5B Cd1B 1_555 1_555
H1B O5B 1_555 1_555
H2B O5B 1_555 1_555
O6B Cd1B 1_555 1_555
H3B O6B 1_555 1_555
H4B O6B 1_555 1_555
O7B Cd1B 1_555 1_555
H5B O7B 1_555 1_555
H6B O7B 1_555 1_555
C1B O2B 1_555 1_555
C2B C1B 1_555 1_555
H7B C2B 1_555 1_555
H8B C2B 1_555 1_555
C3B C3 1_555 1_555
H9B C3B 1_555 1_555
C4B O4B 1_555 1_555
O4 Cd1C 1_555 1_555
C2B C3B 1_555 1_555
C3B C4B 1_555 1_555

#END
