
#######################################################################
#
#                 Cambridge Crystallographic Data Centre
#                                CCDC 
#
#######################################################################
#
# If this CIF has been generated from an entry in the Cambridge 
# Structural Database, then it will include bibliographic, chemical, 
# crystal, experimental, refinement or atomic coordinate data resulting 
# from the CCDC's data processing and validation procedures.
#
#######################################################################

data_IZENIL
_symmetry_cell_setting           orthorhombic
_symmetry_space_group_name_H-M   'P b c a'
_symmetry_Int_Tables_number      61
_space_group_name_Hall           '-P 2ac 2ab'
loop_
_symmetry_equiv_pos_site_id
_symmetry_equiv_pos_as_xyz
1 x,y,z
2 1/2-x,-y,1/2+z
3 1/2+x,1/2-y,-z
4 -x,1/2+y,1/2-z
5 -x,-y,-z
6 1/2+x,y,1/2-z
7 1/2-x,1/2+y,z
8 x,1/2-y,1/2+z
_cell_length_a                   9.670(1)
_cell_length_b                   9.357(2)
_cell_length_c                   15.862(1)
_cell_angle_alpha                90
_cell_angle_beta                 90
_cell_angle_gamma                90
_cell_volume                     1435.23
loop_
_atom_site_label
_atom_site_type_symbol
_atom_site_fract_x
_atom_site_fract_y
_atom_site_fract_z
Ga1 Ga 0.695(2) 0.089(2) 0.451(17)
P1 P 0.623(5) -0.158(5) 0.564(5)
P2 P 0.653(5) -0.206(5) 0.311(5)
O1 O 0.660(9) -0.025(9) 0.495(7)
O2 O 0.813(9) 0.255(8) 0.516(7)
O3 O 0.641(9) -0.062(9) 0.357(8)
O4 O 0.737(9) 0.019(10) 0.437(9)
O5 O 0.548(9) 0.191(8) 0.446(9)
O6 O 0.875(7) -0.028(7) 0.392(9)
O7 O 0.531(9) -0.290(9) 0.343(8)
C1 C 0.61(18) -0.17(15) 0.24(12)
C2 C 0.66(13) -0.17(13) 0.67(13)
P1F P 0.877(5) 0.342(5) 0.564(5)
P1D P 0.377(5) 0.158(5) 0.436(5)
O2F O 0.687(9) -0.245(8) 0.516(7)
O5D O 0.452(9) -0.191(8) 0.554(9)
loop_
_geom_bond_atom_site_label_1
_geom_bond_atom_site_label_2
_geom_bond_site_symmetry_1
_geom_bond_site_symmetry_2
Ga1 O1 1_555 1_555
P1 O1 1_555 1_555
P2 O3 1_555 1_555
O2 Ga1 1_555 1_555
O3 Ga1 1_555 1_555
O4 Ga1 1_555 1_555
O5 Ga1 1_555 1_555
O6 Ga1 1_555 1_555
O7 P2 1_555 1_555
C1 P2 1_555 1_555
C2 P1 1_555 1_555
P1F O2 1_555 1_555
P1D O5 1_555 1_555
O2F P1 1_555 1_555
O5D P1 1_555 1_555

#END
