
#######################################################################
#
#                 Cambridge Crystallographic Data Centre
#                                CCDC 
#
#######################################################################
#
# If this CIF has been generated from an entry in the Cambridge 
# Structural Database, then it will include bibliographic, chemical, 
# crystal, experimental, refinement or atomic coordinate data resulting 
# from the CCDC's data processing and validation procedures.
#
#######################################################################

data_IZENEH
_symmetry_cell_setting           orthorhombic
_symmetry_space_group_name_H-M   'P b c a'
_symmetry_Int_Tables_number      61
_space_group_name_Hall           '-P 2ac 2ab'
loop_
_symmetry_equiv_pos_site_id
_symmetry_equiv_pos_as_xyz
1 x,y,z
2 1/2-x,-y,1/2+z
3 1/2+x,1/2-y,-z
4 -x,1/2+y,1/2-z
5 -x,-y,-z
6 1/2+x,y,1/2-z
7 1/2-x,1/2+y,z
8 x,1/2-y,1/2+z
_cell_length_a                   9.534(1)
_cell_length_b                   9.255(2)
_cell_length_c                   15.724(1)
_cell_angle_alpha                90
_cell_angle_beta                 90
_cell_angle_gamma                90
_cell_volume                     1387.44
loop_
_atom_site_label
_atom_site_type_symbol
_atom_site_fract_x
_atom_site_fract_y
_atom_site_fract_z
Al1 Al 0.702(4) 0.091(4) 0.454(2)
P1 P 0.636(3) -0.141(4) 0.56(2)
P2 P 0.620(4) -0.160(4) 0.335(2)
O1 O 0.663(7) -0.019(7) 0.534(4)
O2 O 0.681(6) -0.262(7) 0.565(4)
O3 O 0.680(7) -0.011(8) 0.379(4)
O4 O 0.781(7) 0.200(8) 0.382(4)
O5 O 0.527(6) 0.205(8) 0.467(4)
O6 O 0.885(6) 0.077(7) 0.425(4)
O7 O 0.608(8) -0.265(8) 0.347(4)
C1 C 0.59(10) -0.15(11) 0.225(6)
C2 C 0.647(9) -0.28(11) 0.176(6)
Al1D Al 0.298(4) -0.091(4) 0.546(2)
Al1F Al 0.798(4) -0.409(4) 0.454(2)
Al1B Al 1.202(4) -0.591(4) 0.546(2)
Al1_2 Al 0.702(4) -0.909(4) 0.454(2)
Al1D_2 Al 1.298(4) -0.091(4) 0.546(2)
Al1B_2 Al 1.202(4) 0.409(4) 0.546(2)
P1D P 0.364(3) 0.141(4) 0.44(2)
P1F P 0.864(3) -0.641(4) 0.56(2)
P1B P 1.136(3) -0.359(4) 0.44(2)
P2F P 0.880(4) -0.660(4) 0.335(2)
P2B P 1.120(4) -0.340(4) 0.665(2)
P2D P 1.380(4) 0.160(4) 0.665(2)
P2F_2 P 0.880(4) 0.340(4) 0.335(2)
P2D_2 P 1.380(4) -0.840(4) 0.665(2)
P2B_2 P 0.120(4) -0.340(4) 0.665(2)
O1D O 0.337(7) 0.019(7) 0.466(4)
O1F O 0.837(7) -0.519(7) 0.534(4)
O1B O 1.163(7) -0.481(7) 0.466(4)
O1_2 O 0.663(7) -1.019(7) 0.534(4)
O1D_2 O 1.337(7) 0.019(7) 0.466(4)
O1B_2 O 1.163(7) 0.519(7) 0.466(4)
O2D O 0.319(6) 0.262(7) 0.435(4)
O2F O 0.819(6) -0.762(7) 0.565(4)
O2B O 1.181(6) -0.238(7) 0.435(4)
O3F O 0.820(7) -0.511(8) 0.379(4)
O3_2 O 0.680(7) -1.011(8) 0.379(4)
O3B O 1.180(7) -0.489(8) 0.621(4)
O3D O 1.320(7) 0.011(8) 0.621(4)
O3B_2 O 1.180(7) 0.511(8) 0.621(4)
O3D_2 O 0.320(7) 0.011(8) 0.621(4)
O3F_2 O 0.820(7) 0.489(8) 0.379(4)
O3D_3 O 1.320(7) -0.989(8) 0.621(4)
O3B_3 O 0.180(7) -0.489(8) 0.621(4)
O4F O 0.719(7) -0.300(8) 0.382(4)
O4_2 O 0.781(7) -0.800(8) 0.382(4)
O4D O 1.219(7) -0.200(8) 0.618(4)
O4B O 1.281(7) 0.300(8) 0.618(4)
O4B_2 O 1.281(7) -0.700(8) 0.618(4)
O4D_2 O 0.219(7) -0.200(8) 0.618(4)
O5D O 0.473(6) -0.205(8) 0.533(4)
O5B O 1.027(6) -0.705(8) 0.533(4)
O5F O 0.973(6) -0.295(8) 0.467(4)
O5_2 O 0.527(6) -0.795(8) 0.467(4)
O5B_2 O 1.027(6) 0.295(8) 0.533(4)
O5D_2 O 1.473(6) -0.205(8) 0.533(4)
O6_2 O 0.885(6) -0.923(7) 0.425(4)
O6F O 0.615(6) -0.423(7) 0.425(4)
O6B O 1.385(6) 0.423(7) 0.575(4)
O6D O 1.115(6) -0.077(7) 0.575(4)
O6B_2 O 1.385(6) -0.577(7) 0.575(4)
O6D_2 O 0.115(6) -0.077(7) 0.575(4)
O7F O 0.892(8) -0.765(8) 0.347(4)
O7D O 1.392(8) 0.265(8) 0.653(4)
O7B O 1.108(8) -0.235(8) 0.653(4)
O7F_2 O 0.892(8) 0.235(8) 0.347(4)
O7D_2 O 1.392(8) -0.735(8) 0.653(4)
O7B_2 O 0.108(8) -0.235(8) 0.653(4)
C1F C 0.91(10) -0.65(11) 0.225(6)
C1D C 1.41(10) 0.15(11) 0.775(6)
C1B C 1.09(10) -0.35(11) 0.775(6)
C1F_2 C 0.91(10) 0.35(11) 0.225(6)
C1D_2 C 1.41(10) -0.85(11) 0.775(6)
C1B_2 C 0.09(10) -0.35(11) 0.775(6)
C2F C 0.853(9) -0.78(11) 0.176(6)
C2D C 1.353(9) 0.28(11) 0.824(6)
C2B C 1.147(9) -0.22(11) 0.824(6)
C2F_2 C 0.853(9) 0.22(11) 0.176(6)
C2D_2 C 1.353(9) -0.72(11) 0.824(6)
C2B_2 C 0.147(9) -0.22(11) 0.824(6)
loop_
_geom_bond_atom_site_label_1
_geom_bond_atom_site_label_2
_geom_bond_site_symmetry_1
_geom_bond_site_symmetry_2
Al1 O1 1_555 1_555
P1 O1 1_555 1_555
P2 O3 1_555 1_555
O2 P1 1_555 1_555
O3 Al1 1_555 1_555
O4 Al1 1_555 1_555
O5 Al1 1_555 1_555
O6 Al1 1_555 1_555
O7 P2 1_555 1_555
C1 P2 1_555 1_555
C2 C1 1_555 1_555
Al1D O1D 1_555 1_555
Al1F O1F 1_555 1_555
Al1B O1B 1_555 1_555
Al1_2 O1_2 1_555 1_555
Al1D_2 O1D_2 1_555 1_555
Al1B_2 O1B_2 1_555 1_555
P1D O5 1_555 1_555
P1F O1F 1_555 1_555
P1B O1B 1_555 1_555
P2F O3F 1_555 1_555
P2B O3B 1_555 1_555
P2D O3D 1_555 1_555
P2F_2 O4 1_555 1_555
P2D_2 O3D_3 1_555 1_555
P2B_2 O3B_3 1_555 1_555
O1D P1D 1_555 1_555
O2D P1D 1_555 1_555
O2F P1F 1_555 1_555
O2B P1B 1_555 1_555
O3F Al1F 1_555 1_555
O3_2 Al1_2 1_555 1_555
O3B Al1B 1_555 1_555
O3D Al1D_2 1_555 1_555
O3B_2 Al1B_2 1_555 1_555
O3D_2 Al1D 1_555 1_555
O3F_2 P2F_2 1_555 1_555
O4F P2 1_555 1_555
O4_2 Al1_2 1_555 1_555
O4D Al1D_2 1_555 1_555
O4B Al1B_2 1_555 1_555
O4B_2 Al1B 1_555 1_555
O4D_2 Al1D 1_555 1_555
O5D P1 1_555 1_555
O5B Al1B 1_555 1_555
O5F Al1F 1_555 1_555
O5_2 Al1_2 1_555 1_555
O5B_2 Al1B_2 1_555 1_555
O5D_2 Al1D_2 1_555 1_555
O6_2 Al1_2 1_555 1_555
O6F Al1F 1_555 1_555
O6B Al1B_2 1_555 1_555
O6D Al1D_2 1_555 1_555
O6B_2 Al1B 1_555 1_555
O6D_2 Al1D 1_555 1_555
O7F P2F 1_555 1_555
O7D P2D 1_555 1_555
O7B P2B 1_555 1_555
O7F_2 O4 1_555 1_555
O7D_2 P2D_2 1_555 1_555
O7B_2 P2B_2 1_555 1_555
C1F P2F 1_555 1_555
C1D P2D 1_555 1_555
C1B P2B 1_555 1_555
C1F_2 P2F_2 1_555 1_555
C1D_2 P2D_2 1_555 1_555
C1B_2 P2B_2 1_555 1_555
C2F C1F 1_555 1_555
C2D C1D 1_555 1_555
C2B C1B 1_555 1_555
C2F_2 C1F_2 1_555 1_555
C2D_2 C1D_2 1_555 1_555
C2B_2 C1B_2 1_555 1_555
O4 O6 1_555 1_555
O7 O4F 1_555 1_555
Al1D O5D 1_555 1_555
Al1F O4F 1_555 1_555
P1F O5B 1_555 1_555
P1B O5F 1_555 1_555
P2F O4_2 1_555 1_555
P2B O4D 1_555 1_555
P2D O4B 1_555 1_555
P2F_2 O7F_2 1_555 1_555
P2D_2 O4B_2 1_555 1_555
P2B_2 O4D_2 1_555 1_555
O4F O6F 1_555 1_555
O4_2 O6_2 1_555 1_555
O4_2 O7F 1_555 1_555
O4D O6D 1_555 1_555
O4D O7B 1_555 1_555
O4B O6B 1_555 1_555
O4B O7D 1_555 1_555
O4B_2 O6B_2 1_555 1_555
O4B_2 O7D_2 1_555 1_555
O4D_2 O6D_2 1_555 1_555
O4D_2 O7B_2 1_555 1_555

#END
