
#######################################################################
#
#                 Cambridge Crystallographic Data Centre
#                                CCDC 
#
#######################################################################
#
# If this CIF has been generated from an entry in the Cambridge 
# Structural Database, then it will include bibliographic, chemical, 
# crystal, experimental, refinement or atomic coordinate data resulting 
# from the CCDC's data processing and validation procedures.
#
#######################################################################

data_IZETEN
_symmetry_cell_setting           orthorhombic
_symmetry_space_group_name_H-M   'P b c a'
_symmetry_Int_Tables_number      61
_space_group_name_Hall           '-P 2ac 2ab'
loop_
_symmetry_equiv_pos_site_id
_symmetry_equiv_pos_as_xyz
1 x,y,z
2 1/2-x,-y,1/2+z
3 -x,1/2+y,1/2-z
4 1/2+x,1/2-y,-z
5 -x,-y,-z
6 1/2+x,y,1/2-z
7 x,1/2-y,1/2+z
8 1/2-x,1/2+y,z
_cell_length_a                   13.4242(4)
_cell_length_b                   8.3248(3)
_cell_length_c                   32.7107(10)
_cell_angle_alpha                90
_cell_angle_beta                 90
_cell_angle_gamma                90
_cell_volume                     3655.54
loop_
_atom_site_label
_atom_site_type_symbol
_atom_site_fract_x
_atom_site_fract_y
_atom_site_fract_z
Ag1 Ag 0.46935(3) 0.16541(5) -0.373790(11)
N1 N 0.4460(3) 0.1710(5) -0.30515(12)
N2 N 0.2853(3) 0.2979(4) -0.29437(11)
N3 N 0.1844(3) 0.4975(5) -0.45309(11)
N4 N 0.0388(3) 0.6652(5) -0.44229(11)
C1 C 0.5222(4) 0.1035(6) -0.28466(15)
H1 H 0.5768 0.0636 -0.3001
C2 C 0.5263(4) 0.0881(6) -0.24245(15)
H2 H 0.5830 0.0404 -0.2300
C3 C 0.4491(4) 0.1412(6) -0.21843(15)
H3 H 0.4509 0.1302 -0.1895
C4 C 0.3677(4) 0.2122(6) -0.23821(14)
C5 C 0.3720(3) 0.2239(6) -0.28164(14)
C6 C 0.2756(4) 0.2811(6) -0.22554(14)
H4 H 0.2519 0.2906 -0.1983
C7 C 0.2282(3) 0.3304(6) -0.25985(13)
H5 H 0.1645 0.3803 -0.2603
C8 C 0.2592(3) 0.3483(6) -0.33490(13)
C9 C 0.3302(3) 0.4220(5) -0.35938(13)
H6 H 0.3958 0.4386 -0.3494
C10 C 0.3048(3) 0.4712(5) -0.39839(14)
H7 H 0.3532 0.5203 -0.4155
C11 C 0.2079(3) 0.4486(5) -0.41258(13)
C12 C 0.1366(3) 0.3761(5) -0.38774(14)
H8 H 0.0705 0.3616 -0.3975
C13 C 0.1624(3) 0.3251(6) -0.34875(14)
H9 H 0.1143 0.2748 -0.3317
C14 C 0.2418(4) 0.4601(6) -0.48749(14)
H10 H 0.2997 0.3944 -0.4871
C15 C 0.2040(4) 0.5298(7) -0.52116(14)
H11 H 0.2297 0.5215 -0.5481
C16 C 0.1078(3) 0.5973(5) -0.46598(13)
C17 C 0.1185(4) 0.6183(6) -0.50894(14)
C18 C 0.0495(4) 0.7186(6) -0.52798(15)
H12 H 0.0530 0.7388 -0.5565
C19 C -0.0236(4) 0.7873(6) -0.50444(16)
H13 H -0.0720 0.8549 -0.5168
C20 C -0.0271(4) 0.7582(6) -0.46229(16)
H14 H -0.0790 0.8069 -0.4469
O1 O 0.6217(3) -0.0445(5) -0.37050(12)
H15 H 0.6696 0.0128 -0.3727
H16 H 0.6273 -0.1400 -0.3735
Ag1G Ag 0.03065(3) 0.66541(5) -0.373790(11)
N4G N 0.4612(3) 0.1652(5) -0.44229(11)
N5 N 0.6163(3) 0.5154(6) -0.37854(12)
O2 O 0.5310(3) 0.5686(5) -0.38493(12)
O3 O 0.6310(3) 0.3693(5) -0.37270(15)
O4 O 0.6881(3) 0.6115(5) -0.37794(15)
loop_
_geom_bond_atom_site_label_1
_geom_bond_atom_site_label_2
_geom_bond_site_symmetry_1
_geom_bond_site_symmetry_2
Ag1 N1 1_555 1_555
N1 C1 1_555 1_555
N2 C5 1_555 1_555
N3 C11 1_555 1_555
N4 C16 1_555 1_555
C1 H1 1_555 1_555
C2 C1 1_555 1_555
H2 C2 1_555 1_555
C3 C2 1_555 1_555
H3 C3 1_555 1_555
C4 C3 1_555 1_555
C5 N1 1_555 1_555
C6 C4 1_555 1_555
H4 C6 1_555 1_555
C7 N2 1_555 1_555
H5 C7 1_555 1_555
C8 N2 1_555 1_555
C9 C8 1_555 1_555
H6 C9 1_555 1_555
C10 C9 1_555 1_555
H7 C10 1_555 1_555
C11 C10 1_555 1_555
C12 C11 1_555 1_555
H8 C12 1_555 1_555
C13 C8 1_555 1_555
H9 C13 1_555 1_555
C14 N3 1_555 1_555
H10 C14 1_555 1_555
C15 C14 1_555 1_555
H11 C15 1_555 1_555
C16 N3 1_555 1_555
C17 C15 1_555 1_555
C18 C17 1_555 1_555
H12 C18 1_555 1_555
C19 C18 1_555 1_555
H13 C19 1_555 1_555
C20 N4 1_555 1_555
H14 C20 1_555 1_555
O1 Ag1 1_555 1_555
H15 O1 1_555 1_555
H16 O1 1_555 1_555
N5 O2 1_555 1_555
O3 N5 1_555 1_555
O4 N5 1_555 1_555
Ag1G N4 1_555 1_555
N4G Ag1 1_555 1_555
C4 C5 1_555 1_555
C6 C7 1_555 1_555
C12 C13 1_555 1_555
C16 C17 1_555 1_555
C19 C20 1_555 1_555

#END
