
#######################################################################
#
#                 Cambridge Crystallographic Data Centre
#                                CCDC 
#
#######################################################################
#
# If this CIF has been generated from an entry in the Cambridge 
# Structural Database, then it will include bibliographic, chemical, 
# crystal, experimental, refinement or atomic coordinate data resulting 
# from the CCDC's data processing and validation procedures.
#
#######################################################################

data_IZEWUF
_symmetry_cell_setting           monoclinic
_symmetry_space_group_name_H-M   'P 21/c'
_symmetry_Int_Tables_number      14
_space_group_name_Hall           '-P 2ybc'
loop_
_symmetry_equiv_pos_site_id
_symmetry_equiv_pos_as_xyz
1 x,y,z
2 x,1/2-y,1/2+z
3 -x,-y,-z
4 -x,1/2+y,1/2-z
_cell_length_a                   10.8341(3)
_cell_length_b                   10.2769(3)
_cell_length_c                   13.0558(4)
_cell_angle_alpha                90
_cell_angle_beta                 103.0765(9)
_cell_angle_gamma                90
_cell_volume                     1415.95
loop_
_atom_site_label
_atom_site_type_symbol
_atom_site_fract_x
_atom_site_fract_y
_atom_site_fract_z
Mn1 Mn 1.07796(3) 0.04312(3) 0.62609(3)
N1 N 1.19368(15) 0.19912(18) 0.56718(15)
N2 N 1.28789(16) 0.01420(18) 0.70388(15)
N3 N 1.3297(2) -0.0784(2) 0.77918(18)
N4 N 0.89975(16) 0.0806(2) 0.51217(16)
N5 N 0.81122(18) 0.1437(2) 0.52383(16)
N6 N 0.7252(2) 0.2036(3) 0.5341(2)
N7 N 1.04943(19) -0.1218(2) 0.7217(2)
N8 N 1.00854(16) -0.2199(2) 0.74262(15)
N9 N 0.96773(19) -0.3188(2) 0.76175(17)
C1 C 1.1458(2) 0.2955(2) 0.5016(2)
H1 H 1.0582 0.3045 0.4818
C2 C 1.2199(2) 0.3822(3) 0.4618(2)
H2 H 1.1832 0.4496 0.4178
C3 C 1.3493(2) 0.3673(3) 0.4885(2)
H3 H 1.4013 0.4238 0.4618
C4 C 1.4013(2) 0.2677(2) 0.55517(19)
H4 H 1.4886 0.2556 0.5733
C5 C 1.32175(19) 0.1856(2) 0.59486(18)
C6 C 1.37040(19) 0.0809(2) 0.66918(19)
C7 C 1.50962(19) 0.0553(2) 0.70334(19)
C8 C 1.5833(2) 0.1206(2) 0.7881(2)
H5 H 1.5465 0.1822 0.8240
C9 C 1.7114(2) 0.0947(3) 0.8195(2)
H6 H 1.7610 0.1406 0.8753
C10 C 1.7655(2) 0.0015(3) 0.7687(2)
H7 H 1.8515 -0.0166 0.7906
C11 C 1.6936(2) -0.0646(3) 0.6862(2)
H8 H 1.7307 -0.1276 0.6517
C12 C 1.5656(2) -0.0386(3) 0.6534(2)
H9 H 1.5169 -0.0846 0.5973
H10 H 1.269(2) -0.134(3) 0.783(2)
H11 H 1.420(3) -0.113(3) 0.787(2)
N4B N 1.10025(16) -0.0806(2) 0.48783(16)
N9C N 1.03227(19) 0.1812(2) 0.73825(17)
Mn1B Mn 0.92204(3) -0.04312(3) 0.37391(3)
Mn1C Mn 0.92204(3) -0.45688(3) 0.87391(3)
loop_
_geom_bond_atom_site_label_1
_geom_bond_atom_site_label_2
_geom_bond_site_symmetry_1
_geom_bond_site_symmetry_2
Mn1 N1 1_555 1_555
N1 C1 1_555 1_555
N2 Mn1 1_555 1_555
N3 N2 1_555 1_555
N4 Mn1 1_555 1_555
N5 N4 1_555 1_555
N6 N5 1_555 1_555
N7 Mn1 1_555 1_555
N8 N7 1_555 1_555
N9 N8 1_555 1_555
C1 H1 1_555 1_555
C2 C1 1_555 1_555
H2 C2 1_555 1_555
C3 C2 1_555 1_555
H3 C3 1_555 1_555
C4 C3 1_555 1_555
H4 C4 1_555 1_555
C5 N1 1_555 1_555
C6 N2 1_555 1_555
C7 C6 1_555 1_555
C8 C7 1_555 1_555
H5 C8 1_555 1_555
C9 C8 1_555 1_555
H6 C9 1_555 1_555
C10 C9 1_555 1_555
H7 C10 1_555 1_555
C11 C10 1_555 1_555
H8 C11 1_555 1_555
C12 C7 1_555 1_555
H9 C12 1_555 1_555
H10 N3 1_555 1_555
H11 N3 1_555 1_555
N4B Mn1 1_555 1_555
N9C Mn1 1_555 1_555
Mn1B N4 1_555 1_555
Mn1C N9 1_555 1_555
C4 C5 1_555 1_555
C5 C6 1_555 1_555
C11 C12 1_555 1_555
N4B Mn1B 1_555 1_555

#END
