
#######################################################################
#
#                 Cambridge Crystallographic Data Centre
#                                CCDC 
#
#######################################################################
#
# If this CIF has been generated from an entry in the Cambridge 
# Structural Database, then it will include bibliographic, chemical, 
# crystal, experimental, refinement or atomic coordinate data resulting 
# from the CCDC's data processing and validation procedures.
#
#######################################################################

data_IZINUA
_symmetry_cell_setting           monoclinic
_symmetry_space_group_name_H-M   'C 2/c'
_symmetry_Int_Tables_number      15
_space_group_name_Hall           '-C 2yn'
loop_
_symmetry_equiv_pos_site_id
_symmetry_equiv_pos_as_xyz
1 x,y,z
2 1/2+x,1/2+y,z
3 x,-y,1/2+z
4 1/2+x,1/2-y,1/2+z
5 -x,-y,-z
6 1/2-x,1/2-y,-z
7 -x,y,1/2-z
8 1/2-x,1/2+y,1/2-z
_cell_length_a                   22.0331(12)
_cell_length_b                   6.2986(3)
_cell_length_c                   16.0202(9)
_cell_angle_alpha                90.00
_cell_angle_beta                 121.0010(10)
_cell_angle_gamma                90.00
_cell_volume                     1905.67
loop_
_atom_site_label
_atom_site_type_symbol
_atom_site_fract_x
_atom_site_fract_y
_atom_site_fract_z
Cu1 Cu 0.248489(15) 0.22875(4) 0.744699(19)
V1 V 0.33503(2) -0.01221(6) 0.62939(3)
P1 P 0.28300(3) 0.49473(9) 0.60491(4)
O1 O 0.31349(9) 0.2849(3) 0.59753(12)
O2 O 0.34124(8) 0.6638(3) 0.63376(11)
O3 O 0.33374(9) 0.2963(3) 0.86769(12)
O4 O 0.26677(9) 0.4836(2) 0.68844(12)
O5 O 0.21662(9) 0.5569(3) 0.51017(11)
O6 O 0.33533(9) 0.6535(3) 0.88122(12)
O7 O 0.31399(11) -0.0164(3) 0.71464(13)
O8 O 0.42035(9) 0.0090(3) 0.68171(13)
N1 N 0.54470(12) 0.4031(4) 1.18698(15)
H1 H 0.582(2) 0.385(6) 1.245(3)
C1 C 0.35770(13) 0.4688(4) 0.91031(17)
C2 C 0.42395(13) 0.4480(4) 1.01015(17)
C3 C 0.45719(14) 0.2529(4) 1.03946(19)
H2 H 0.4385 0.1352 0.9989
C4 C 0.51825(14) 0.2341(4) 1.12915(19)
H3 H 0.5410 0.1035 1.1493
C5 C 0.45254(13) 0.6211(4) 1.07227(17)
H4 H 0.4306 0.7531 1.0540
C6 C 0.51380(14) 0.5949(5) 1.16141(18)
H5 H 0.5336 0.7095 1.2036
O4G O 0.23323(9) -0.0164(2) 0.81156(12)
O6G O 0.16467(9) 0.1535(3) 0.61878(12)
O7G O 0.18601(11) 0.4836(3) 0.78536(13)
O2_2 O 0.34124(8) -0.3362(3) 0.63376(11)
O5E O 0.28338(9) -0.0569(3) 0.48983(11)
V1_2 V 0.33503(2) 0.98779(6) 0.62939(3)
Cu1G Cu 0.251511(15) 0.72875(4) 0.755301(19)
V1E V 0.16497(2) 0.51221(6) 0.37061(3)
Cu1G_2 Cu 0.251511(15) -0.27125(4) 0.755301(19)
loop_
_geom_bond_atom_site_label_1
_geom_bond_atom_site_label_2
_geom_bond_site_symmetry_1
_geom_bond_site_symmetry_2
Cu1 O3 1_555 1_555
V1 O1 1_555 1_555
P1 O1 1_555 1_555
O2 P1 1_555 1_555
O3 C1 1_555 1_555
O4 Cu1 1_555 1_555
O5 P1 1_555 1_555
O6 C1 1_555 1_555
O7 Cu1 1_555 1_555
O8 V1 1_555 1_555
N1 H1 1_555 1_555
C1 C2 1_555 1_555
C2 C3 1_555 1_555
C3 H2 1_555 1_555
C4 N1 1_555 1_555
H3 C4 1_555 1_555
C5 C2 1_555 1_555
H4 C5 1_555 1_555
C6 N1 1_555 1_555
H5 C6 1_555 1_555
O4G Cu1 1_555 1_555
O6G Cu1 1_555 1_555
O7G Cu1 1_555 1_555
O2_2 V1 1_555 1_555
O5E V1 1_555 1_555
V1_2 O2 1_555 1_555
Cu1G O4 1_555 1_555
V1E O5 1_555 1_555
Cu1G_2 O7 1_555 1_555
V1 O7 1_555 1_555
P1 O4 1_555 1_555
O6 Cu1G 1_555 1_555
C3 C4 1_555 1_555
C5 C6 1_555 1_555
O4G Cu1G_2 1_555 1_555
O7G Cu1G 1_555 1_555

#END
