
#######################################################################
#
#                 Cambridge Crystallographic Data Centre
#                                CCDC 
#
#######################################################################
#
# If this CIF has been generated from an entry in the Cambridge 
# Structural Database, then it will include bibliographic, chemical, 
# crystal, experimental, refinement or atomic coordinate data resulting 
# from the CCDC's data processing and validation procedures.
#
#######################################################################

data_IZIQUD
_symmetry_cell_setting           triclinic
_symmetry_space_group_name_H-M   'P -1'
_symmetry_Int_Tables_number      2
_space_group_name_Hall           '-P 1'
loop_
_symmetry_equiv_pos_site_id
_symmetry_equiv_pos_as_xyz
1 x,y,z
2 -x,-y,-z
_cell_length_a                   9.458(4)
_cell_length_b                   10.143(4)
_cell_length_c                   10.547(4)
_cell_angle_alpha                92.54(3)
_cell_angle_beta                 99.39(3)
_cell_angle_gamma                108.47(3)
_cell_volume                     941.827
loop_
_atom_site_label
_atom_site_type_symbol
_atom_site_fract_x
_atom_site_fract_y
_atom_site_fract_z
Co1 Co 0.5000 0.0000 0.5000
S1 S 0.15769(7) -0.36672(7) 0.68596(6)
N1 N 0.38323(19) -0.15536(17) 0.60462(15)
N2 N 0.3020(2) 0.42878(19) 0.27703(17)
N3 N 0.32890(18) 0.10859(16) 0.51234(14)
N4 N 0.40621(19) 0.11663(17) 0.97705(15)
N5 N 0.63648(18) 0.12444(17) 0.67808(14)
C1 C 0.4593(3) 0.5042(2) 0.12029(19)
C2 C 0.2905(2) -0.2442(2) 0.63858(17)
C3 C 0.3510(3) 0.4376(2) 0.0122(2)
H1 H 0.2483 0.3950 0.0203
C4 C 0.6083(3) 0.5670(2) 0.1071(2)
H2 H 0.6830 0.6136 0.1807
C5 C 0.4221(3) 0.5095(2) 0.2508(2)
H3 H 0.4914 0.5762 0.3170
C6 C 0.2715(3) 0.4427(2) 0.40622(19)
H4 H 0.1793 0.4700 0.4022
H5 H 0.3574 0.5178 0.4598
C7 C 0.3383(2) 0.2259(2) 0.45495(18)
H6 H 0.4115 0.2542 0.4010
C8 C 0.2487(2) 0.3086(2) 0.46890(18)
C9 C 0.1419(2) 0.2668(2) 0.54756(19)
H7 H 0.0783 0.3205 0.5603
C10 C 0.1290(2) 0.1463(2) 0.6071(2)
H8 H 0.0563 0.1154 0.6611
C11 C 0.2235(2) 0.0715(2) 0.58677(19)
H9 H 0.2132 -0.0115 0.6281
C12 C 0.1579(2) 0.0606(2) 1.02723(18)
C13 C 0.0691(2) 0.0922(2) 1.10932(19)
H10 H 0.1165 0.1559 1.1845
C14 C 0.0861(2) -0.0324(2) 0.91716(19)
H11 H 0.1449 -0.0546 0.8599
C15 C 0.3229(2) 0.1269(2) 1.05629(18)
H12 H 0.3689 0.1795 1.1378
C16 C 0.5691(2) 0.1878(2) 1.01544(18)
H13 H 0.6124 0.1356 1.0793
H14 H 0.5875 0.2826 1.0573
C17 C 0.5733(2) 0.1221(2) 0.78322(18)
H15 H 0.4711 0.0637 0.7768
C18 C 0.6473(2) 0.19911(19) 0.90066(18)
C19 C 0.7973(2) 0.2824(2) 0.9094(2)
H16 H 0.8533 0.3357 0.9885
C20 C 0.8647(2) 0.2869(3) 0.8016(2)
H17 H 0.9668 0.3443 0.8052
C21 C 0.7809(2) 0.2066(2) 0.6892(2)
H18 H 0.8278 0.2096 0.6158
C4A C 0.3917(3) 0.4330(2) -0.1071(2)
C1A C 0.5407(3) 0.4958(2) -0.12029(19)
C3A C 0.6490(3) 0.5624(2) -0.0122(2)
H1A H 0.7517 0.6050 -0.0203
C5A C 0.5779(3) 0.4905(2) -0.2508(2)
N2A N 0.6980(2) 0.57122(19) -0.27703(17)
C6A C 0.7285(3) 0.5573(2) -0.40622(19)
H4A H 0.8207 0.5300 -0.4022
H5A H 0.6426 0.4822 -0.4598
C8A C 0.7513(2) 0.6914(2) -0.46890(18)
C7A C 0.6617(2) 0.7741(2) -0.45495(18)
N3A N 0.67110(18) 0.89141(16) -0.51234(14)
C11A C 0.7765(2) 0.9285(2) -0.58677(19)
C10A C 0.8710(2) 0.8537(2) -0.6071(2)
C9A C 0.8581(2) 0.7332(2) -0.54756(19)
H7A H 0.9217 0.6795 -0.5603
H8A H 0.9437 0.8846 -0.6611
H9A H 0.7868 1.0115 -0.6281
H6A H 0.5885 0.7458 -0.4010
H3A H 0.5086 0.4238 -0.3170
H2A H 0.3170 0.3864 -0.1807
C14A C -0.0861(2) 0.0324(2) 1.08284(19)
C12A C -0.1579(2) -0.0606(2) 0.97277(18)
C13A C -0.0691(2) -0.0922(2) 0.89068(19)
H10A H -0.1165 -0.1559 0.8155
C15A C -0.3229(2) -0.1269(2) 0.94371(18)
N4A N -0.40621(19) -0.11663(17) 1.02295(15)
C16A C -0.5691(2) -0.1878(2) 0.98456(18)
H13A H -0.6124 -0.1356 0.9207
H14A H -0.5875 -0.2826 0.9427
C18A C -0.6473(2) -0.19911(19) 1.09934(18)
C17A C -0.5733(2) -0.1221(2) 1.21678(18)
N5A N -0.63648(18) -0.12444(17) 1.32192(14)
C21A C -0.7809(2) -0.2066(2) 1.3108(2)
C20A C -0.8647(2) -0.2869(3) 1.1984(2)
C19A C -0.7973(2) -0.2824(2) 1.0906(2)
H16A H -0.8533 -0.3357 1.0115
H17A H -0.9668 -0.3443 1.1948
H18A H -0.8278 -0.2096 1.3842
H15A H -0.4711 -0.0637 1.2232
H12A H -0.3689 -0.1795 0.8622
H11A H -0.1449 0.0546 1.1401
S1A S 0.84231(7) 0.36672(7) 0.31404(6)
N1A N 0.61677(19) 0.15536(17) 0.39538(15)
C2A C 0.7095(2) 0.2442(2) 0.36142(17)
N3A_2 N 0.67110(18) -0.10859(16) 0.48766(14)
N5A_2 N 0.36352(18) -0.12444(17) 0.32192(14)
Co1_2 Co 0.5000 1.0000 -0.5000
Co1_3 Co -0.5000 0.0000 1.5000
loop_
_geom_bond_atom_site_label_1
_geom_bond_atom_site_label_2
_geom_bond_site_symmetry_1
_geom_bond_site_symmetry_2
Co1 N1 1_555 1_555
S1 C2 1_555 1_555
N1 C2 1_555 1_555
N2 C5 1_555 1_555
N3 Co1 1_555 1_555
N4 C15 1_555 1_555
N5 Co1 1_555 1_555
C1 C3 1_555 1_555
C3 H1 1_555 1_555
C4 C1 1_555 1_555
H2 C4 1_555 1_555
C5 C1 1_555 1_555
H3 C5 1_555 1_555
C6 N2 1_555 1_555
H4 C6 1_555 1_555
H5 C6 1_555 1_555
C7 N3 1_555 1_555
H6 C7 1_555 1_555
C8 C6 1_555 1_555
C9 C8 1_555 1_555
H7 C9 1_555 1_555
C10 C9 1_555 1_555
H8 C10 1_555 1_555
C11 N3 1_555 1_555
H9 C11 1_555 1_555
C12 C13 1_555 1_555
C13 H10 1_555 1_555
C14 C12 1_555 1_555
H11 C14 1_555 1_555
C15 C12 1_555 1_555
H12 C15 1_555 1_555
C16 N4 1_555 1_555
H13 C16 1_555 1_555
H14 C16 1_555 1_555
C17 N5 1_555 1_555
H15 C17 1_555 1_555
C18 C16 1_555 1_555
C19 C18 1_555 1_555
H16 C19 1_555 1_555
C20 C19 1_555 1_555
H17 C20 1_555 1_555
C21 N5 1_555 1_555
H18 C21 1_555 1_555
C4A C3 1_555 1_555
C1A C4A 1_555 1_555
C3A C4 1_555 1_555
H1A C3A 1_555 1_555
C5A C1A 1_555 1_555
N2A C5A 1_555 1_555
C6A N2A 1_555 1_555
H4A C6A 1_555 1_555
H5A C6A 1_555 1_555
C8A C6A 1_555 1_555
C7A C8A 1_555 1_555
N3A C7A 1_555 1_555
C11A N3A 1_555 1_555
C10A C11A 1_555 1_555
C9A C8A 1_555 1_555
H7A C9A 1_555 1_555
H8A C10A 1_555 1_555
H9A C11A 1_555 1_555
H6A C7A 1_555 1_555
H3A C5A 1_555 1_555
H2A C4A 1_555 1_555
C14A C13 1_555 1_555
C12A C14A 1_555 1_555
C13A C14 1_555 1_555
H10A C13A 1_555 1_555
C15A C12A 1_555 1_555
N4A C15A 1_555 1_555
C16A N4A 1_555 1_555
H13A C16A 1_555 1_555
H14A C16A 1_555 1_555
C18A C16A 1_555 1_555
C17A C18A 1_555 1_555
N5A C17A 1_555 1_555
C21A N5A 1_555 1_555
C20A C21A 1_555 1_555
C19A C18A 1_555 1_555
H16A C19A 1_555 1_555
H17A C20A 1_555 1_555
H18A C21A 1_555 1_555
H15A C17A 1_555 1_555
H12A C15A 1_555 1_555
H11A C14A 1_555 1_555
S1A C2A 1_555 1_555
N1A Co1 1_555 1_555
C2A N1A 1_555 1_555
N3A_2 Co1 1_555 1_555
N5A_2 Co1 1_555 1_555
Co1_2 N3A 1_555 1_555
Co1_3 N5A 1_555 1_555
C7 C8 1_555 1_555
C10 C11 1_555 1_555
C17 C18 1_555 1_555
C20 C21 1_555 1_555
C1A C3A 1_555 1_555
C10A C9A 1_555 1_555
C12A C13A 1_555 1_555
C20A C19A 1_555 1_555

#END
