
#######################################################################
#
#                 Cambridge Crystallographic Data Centre
#                                CCDC 
#
#######################################################################
#
# If this CIF has been generated from an entry in the Cambridge 
# Structural Database, then it will include bibliographic, chemical, 
# crystal, experimental, refinement or atomic coordinate data resulting 
# from the CCDC's data processing and validation procedures.
#
#######################################################################

data_IZIRIT
_symmetry_cell_setting           triclinic
_symmetry_space_group_name_H-M   'P -1'
_symmetry_Int_Tables_number      2
_space_group_name_Hall           '-P 1'
loop_
_symmetry_equiv_pos_site_id
_symmetry_equiv_pos_as_xyz
1 x,y,z
2 -x,-y,-z
_cell_length_a                   9.9439(3)
_cell_length_b                   12.2581(3)
_cell_length_c                   15.7746(5)
_cell_angle_alpha                111.4410(16)
_cell_angle_beta                 90.2750(16)
_cell_angle_gamma                111.2840(18)
_cell_volume                     1646.59
loop_
_atom_site_label
_atom_site_type_symbol
_atom_site_fract_x
_atom_site_fract_y
_atom_site_fract_z
Fe1 Fe 0.08628(4) 0.96152(3) 0.32078(2)
Zn1 Zn 0.0000 0.5000 0.0000
Zn2 Zn 0.5000 1.5000 0.5000
O1 O 0.07450(19) 0.63898(15) 0.14472(11)
O2 O 0.28684(19) 0.79608(16) 0.15425(12)
O3 O 0.31800(19) 1.31843(15) 0.41748(11)
O4 O 0.39487(19) 1.22972(15) 0.28618(11)
N1 N 0.1384(2) 0.41070(18) 0.01419(14)
H1 H 0.1958 0.4583 0.0721
N2 N -0.1545(2) 0.36616(18) 0.04161(14)
H2 H -0.2125 0.3029 -0.0134
N3 N 0.4156(2) 1.57664(18) 0.41972(14)
H3 H 0.3484 1.5051 0.3723
N4 N 0.6466(2) 1.45465(18) 0.41389(14)
H4 H 0.5948 1.3764 0.3659
C1 C 0.1614(3) 0.8182(2) 0.28378(16)
C2 C 0.0330(3) 0.7844(2) 0.32428(17)
H5 H -0.0603 0.7085 0.2937
C3 C 0.0593(3) 0.8785(2) 0.41484(18)
H6 H -0.0118 0.8802 0.4595
C4 C 0.2058(3) 0.9706(2) 0.43107(18)
H7 H 0.2548 1.0478 0.4891
C5 C 0.2689(3) 0.9339(2) 0.34984(17)
H8 H 0.3701 0.9800 0.3409
C6 C 0.1493(3) 1.1302(2) 0.30501(16)
C7 C 0.0930(3) 1.0253(2) 0.21696(17)
H9 H 0.1474 1.0076 0.1638
C8 C -0.0538(3) 0.9516(2) 0.21855(18)
H10 H -0.1202 0.8718 0.1669
C9 C -0.0895(3) 1.0080(2) 0.30637(19)
H11 H -0.1855 0.9758 0.3273
C10 C 0.0353(3) 1.1191(2) 0.35943(18)
H12 H 0.0421 1.1785 0.4243
C11 C 0.1768(3) 0.7468(2) 0.18691(17)
C12 C 0.0400(3) 0.2847(2) 0.01305(18)
H13 H -0.0116 0.2292 -0.0516
C13 C 0.1205(3) 0.2157(2) 0.04319(19)
H14 H 0.0505 0.1290 0.0335
H15 H 0.1971 0.2072 0.0045
C14 C 0.1904(3) 0.2877(3) 0.14438(19)
H16 H 0.2672 0.3714 0.1533
H17 H 0.2371 0.2389 0.1625
C15 C 0.0752(3) 0.3074(3) 0.20528(19)
H18 H 0.1235 0.3588 0.2702
H19 H 0.0052 0.2236 0.2017
C16 C -0.0086(3) 0.3746(2) 0.17648(17)
H20 H -0.0866 0.3798 0.2146
H21 H 0.0588 0.4625 0.1871
C17 C -0.0762(3) 0.3021(2) 0.07471(17)
H22 H -0.1485 0.2157 0.0664
C18 C -0.2610(3) 0.4055(2) 0.09854(17)
H23 H -0.2067 0.4706 0.1607
C19 C -0.3781(3) 0.2929(2) 0.1112(2)
H24 H -0.4316 0.2277 0.0507
H25 H -0.4462 0.3221 0.1486
H26 H -0.3316 0.2566 0.1424
C20 C -0.3333(3) 0.4664(2) 0.05291(18)
H27 H -0.3712 0.4074 -0.0124
H28 H -0.4184 0.4735 0.0832
C21 C -0.2374(3) 0.5976(2) 0.05529(18)
H29 H -0.3007 0.6387 0.0437
H30 H -0.1787 0.6516 0.1174
C22 C 0.2989(3) 1.2328(2) 0.33746(16)
C23 C 0.7542(3) 1.4380(2) 0.46825(17)
H31 H 0.8209 1.5245 0.5131
C24 C 0.7141(3) 1.5484(2) 0.37257(18)
H32 H 0.7804 1.5205 0.3313
H33 H 0.7737 1.6318 0.4223
C25 C 0.6008(3) 1.5648(2) 0.31743(18)
H34 H 0.5272 1.4789 0.2791
H35 H 0.6509 1.6025 0.2747
C26 C 0.5187(3) 1.6461(2) 0.37136(17)
H36 H 0.5919 1.7266 0.4190
C27 C 0.4438(4) 1.6812(3) 0.3066(2)
H37 H 0.3711 1.6034 0.2594
H38 H 0.5169 1.7266 0.2768
H39 H 0.3952 1.7360 0.3420
C28 C 0.3240(3) 1.6400(2) 0.47562(18)
H40 H 0.2478 1.6367 0.4322
C29 C 0.4122(3) 1.7790(2) 0.53752(17)
H41 H 0.4530 1.8273 0.4988
H42 H 0.4949 1.7850 0.5766
C30 C 0.3178(3) 1.8385(2) 0.59931(19)
H43 H 0.3801 1.9265 0.6419
H44 H 0.2432 1.8432 0.5605
C31 C 0.2420(3) 1.7623(2) 0.65506(19)
H45 H 0.1778 1.8006 0.6913
H46 H 0.3159 1.7644 0.6986
C32 C 0.1514(3) 1.6248(2) 0.59021(18)
H47 H 0.0745 1.6230 0.5491
H48 H 0.1026 1.5756 0.6269
Fe1A Fe -0.08628(4) 0.03848(3) -0.32078(2)
Zn2_2 Zn -0.5000 -0.5000 -0.5000
O1A O -0.07450(19) 0.36102(15) -0.14472(11)
O2A O -0.28684(19) 0.20392(16) -0.15425(12)
O3A O -0.31800(19) -0.31843(15) -0.41748(11)
O3A_2 O 0.68200(19) 1.68157(15) 0.58252(11)
O4A O -0.39487(19) -0.22972(15) -0.28618(11)
N1A N -0.1384(2) 0.58930(18) -0.01419(14)
H1A H -0.1958 0.5417 -0.0721
N2A N 0.1545(2) 0.63384(18) -0.04161(14)
H2A H 0.2125 0.6971 0.0134
N3A N 0.5844(2) 1.42336(18) 0.58028(14)
H3A H 0.6516 1.4949 0.6277
N4A N 0.3534(2) 1.54535(18) 0.58611(14)
H4A H 0.4052 1.6236 0.6341
C1A C -0.1614(3) 0.1818(2) -0.28378(16)
C2A C -0.0330(3) 0.2156(2) -0.32428(17)
H5A H 0.0603 0.2915 -0.2937
C3A C -0.0593(3) 0.1215(2) -0.41484(18)
H6A H 0.0118 0.1198 -0.4595
C4A C -0.2058(3) 0.0294(2) -0.43107(18)
H7A H -0.2548 -0.0478 -0.4891
C5A C -0.2689(3) 0.0661(2) -0.34984(17)
H8A H -0.3701 0.0200 -0.3409
C6A C -0.1493(3) -0.1302(2) -0.30501(16)
C7A C -0.0930(3) -0.0253(2) -0.21696(17)
H9A H -0.1474 -0.0076 -0.1638
C8A C 0.0538(3) 0.0484(2) -0.21855(18)
H10A H 0.1202 0.1282 -0.1669
C9A C 0.0895(3) -0.0080(2) -0.30637(19)
H11A H 0.1855 0.0242 -0.3273
C10A C -0.0353(3) -0.1191(2) -0.35943(18)
H12A H -0.0421 -0.1785 -0.4243
C11A C -0.1768(3) 0.2532(2) -0.18691(17)
C12A C -0.0400(3) 0.7153(2) -0.01305(18)
H13A H 0.0116 0.7708 0.0516
C13A C -0.1205(3) 0.7843(2) -0.04319(19)
H14A H -0.0505 0.8710 -0.0335
H15A H -0.1971 0.7928 -0.0045
C14A C -0.1904(3) 0.7123(3) -0.14438(19)
H16A H -0.2672 0.6286 -0.1533
H17A H -0.2371 0.7611 -0.1625
C15A C -0.0752(3) 0.6926(3) -0.20528(19)
H18A H -0.1235 0.6412 -0.2702
H19A H -0.0052 0.7764 -0.2017
C16A C 0.0086(3) 0.6254(2) -0.17648(17)
H20A H 0.0866 0.6202 -0.2146
H21A H -0.0588 0.5375 -0.1871
C17A C 0.0762(3) 0.6979(2) -0.07471(17)
H22A H 0.1485 0.7843 -0.0664
C18A C 0.2610(3) 0.5945(2) -0.09854(17)
H23A H 0.2067 0.5294 -0.1607
C19A C 0.3781(3) 0.7071(2) -0.1112(2)
H24A H 0.4316 0.7723 -0.0507
H25A H 0.4462 0.6779 -0.1486
H26A H 0.3316 0.7434 -0.1424
C20A C 0.3333(3) 0.5336(2) -0.05291(18)
H27A H 0.3712 0.5926 0.0124
H28A H 0.4184 0.5265 -0.0832
C21A C 0.2374(3) 0.4024(2) -0.05529(18)
H29A H 0.3007 0.3613 -0.0437
H30A H 0.1787 0.3484 -0.1174
C22A C -0.2989(3) -0.2328(2) -0.33746(16)
C23A C 0.2458(3) 1.5620(2) 0.53175(17)
H31A H 0.1791 1.4755 0.4869
C24A C 0.2859(3) 1.4516(2) 0.62743(18)
H32A H 0.2196 1.4795 0.6687
H33A H 0.2263 1.3682 0.5777
C25A C 0.3992(3) 1.4352(2) 0.68257(18)
H34A H 0.4728 1.5211 0.7209
H35A H 0.3491 1.3975 0.7253
C26A C 0.4813(3) 1.3539(2) 0.62864(17)
H36A H 0.4081 1.2734 0.5810
C27A C 0.5562(4) 1.3188(3) 0.6934(2)
H37A H 0.6289 1.3966 0.7406
H38A H 0.4831 1.2734 0.7232
H39A H 0.6048 1.2640 0.6580
C28A C 0.6760(3) 1.3600(2) 0.52438(18)
H40A H 0.7522 1.3633 0.5678
C29A C 0.5878(3) 1.2210(2) 0.46248(17)
H41A H 0.5470 1.1727 0.5012
H42A H 0.5051 1.2150 0.4234
C30A C 0.6822(3) 1.1615(2) 0.40069(19)
H43A H 0.6199 1.0735 0.3581
H44A H 0.7568 1.1568 0.4395
C31A C 0.7580(3) 1.2377(2) 0.34494(19)
H45A H 0.8222 1.1994 0.3087
H46A H 0.6841 1.2356 0.3014
C32A C 0.8486(3) 1.3752(2) 0.40979(18)
H47A H 0.9255 1.3770 0.4509
H48A H 0.8974 1.4244 0.3731
O5 O 0.4077(2) 1.02801(17) 0.13291(14)
H49 H 0.3718 0.9588 0.1397
H50 H 0.4040 1.0883 0.1792
O6 O 0.6619(2) 0.99643(18) 0.05946(15)
H51 H 0.5988 1.0218 0.0851
H52 H 0.6468 0.9802 0.0029
O7 O 0.5869(2) 0.8161(2) 0.15021(17)
H53 H 0.5001 0.8101 0.1515
H54 H 0.6087 0.8677 0.1242
loop_
_geom_bond_atom_site_label_1
_geom_bond_atom_site_label_2
_geom_bond_site_symmetry_1
_geom_bond_site_symmetry_2
Fe1 C1 1_555 1_555
Zn1 O1 1_555 1_555
Zn2 O3 1_555 1_555
O1 C11 1_555 1_555
O2 C11 1_555 1_555
O3 C22 1_555 1_555
O4 C22 1_555 1_555
N1 Zn1 1_555 1_555
H1 N1 1_555 1_555
N2 Zn1 1_555 1_555
H2 N2 1_555 1_555
N3 Zn2 1_555 1_555
H3 N3 1_555 1_555
N4 Zn2 1_555 1_555
H4 N4 1_555 1_555
C1 C2 1_555 1_555
C2 Fe1 1_555 1_555
H5 C2 1_555 1_555
C3 Fe1 1_555 1_555
H6 C3 1_555 1_555
C4 Fe1 1_555 1_555
H7 C4 1_555 1_555
C5 Fe1 1_555 1_555
H8 C5 1_555 1_555
C6 Fe1 1_555 1_555
C7 Fe1 1_555 1_555
H9 C7 1_555 1_555
C8 Fe1 1_555 1_555
H10 C8 1_555 1_555
C9 Fe1 1_555 1_555
H11 C9 1_555 1_555
C10 Fe1 1_555 1_555
H12 C10 1_555 1_555
C11 C1 1_555 1_555
C12 N1 1_555 1_555
H13 C12 1_555 1_555
C13 C12 1_555 1_555
H14 C13 1_555 1_555
H15 C13 1_555 1_555
C14 C13 1_555 1_555
H16 C14 1_555 1_555
H17 C14 1_555 1_555
C15 C14 1_555 1_555
H18 C15 1_555 1_555
H19 C15 1_555 1_555
C16 C15 1_555 1_555
H20 C16 1_555 1_555
H21 C16 1_555 1_555
C17 N2 1_555 1_555
H22 C17 1_555 1_555
C18 N2 1_555 1_555
H23 C18 1_555 1_555
C19 C18 1_555 1_555
H24 C19 1_555 1_555
H25 C19 1_555 1_555
H26 C19 1_555 1_555
C20 C18 1_555 1_555
H27 C20 1_555 1_555
H28 C20 1_555 1_555
C21 C20 1_555 1_555
H29 C21 1_555 1_555
H30 C21 1_555 1_555
C22 C6 1_555 1_555
C23 N4 1_555 1_555
H31 C23 1_555 1_555
C24 N4 1_555 1_555
H32 C24 1_555 1_555
H33 C24 1_555 1_555
C25 C24 1_555 1_555
H34 C25 1_555 1_555
H35 C25 1_555 1_555
C26 N3 1_555 1_555
H36 C26 1_555 1_555
C27 C26 1_555 1_555
H37 C27 1_555 1_555
H38 C27 1_555 1_555
H39 C27 1_555 1_555
C28 N3 1_555 1_555
H40 C28 1_555 1_555
C29 C28 1_555 1_555
H41 C29 1_555 1_555
H42 C29 1_555 1_555
C30 C29 1_555 1_555
H43 C30 1_555 1_555
H44 C30 1_555 1_555
C31 C30 1_555 1_555
H45 C31 1_555 1_555
H46 C31 1_555 1_555
C32 C31 1_555 1_555
H47 C32 1_555 1_555
H48 C32 1_555 1_555
O5 H49 1_555 1_555
H50 O5 1_555 1_555
O6 H51 1_555 1_555
H52 O6 1_555 1_555
O7 H53 1_555 1_555
H54 O7 1_555 1_555
Fe1A C1A 1_555 1_555
Zn2_2 O3A 1_555 1_555
O1A Zn1 1_555 1_555
O2A C11A 1_555 1_555
O3A C22A 1_555 1_555
O3A_2 Zn2 1_555 1_555
O4A C22A 1_555 1_555
N1A Zn1 1_555 1_555
H1A N1A 1_555 1_555
N2A Zn1 1_555 1_555
H2A N2A 1_555 1_555
N3A Zn2 1_555 1_555
H3A N3A 1_555 1_555
N4A Zn2 1_555 1_555
H4A N4A 1_555 1_555
C1A C2A 1_555 1_555
C2A Fe1A 1_555 1_555
H5A C2A 1_555 1_555
C3A Fe1A 1_555 1_555
H6A C3A 1_555 1_555
C4A Fe1A 1_555 1_555
H7A C4A 1_555 1_555
C5A Fe1A 1_555 1_555
H8A C5A 1_555 1_555
C6A Fe1A 1_555 1_555
C7A Fe1A 1_555 1_555
H9A C7A 1_555 1_555
C8A Fe1A 1_555 1_555
H10A C8A 1_555 1_555
C9A Fe1A 1_555 1_555
H11A C9A 1_555 1_555
C10A Fe1A 1_555 1_555
H12A C10A 1_555 1_555
C11A O1A 1_555 1_555
C12A N1A 1_555 1_555
H13A C12A 1_555 1_555
C13A C12A 1_555 1_555
H14A C13A 1_555 1_555
H15A C13A 1_555 1_555
C14A C13A 1_555 1_555
H16A C14A 1_555 1_555
H17A C14A 1_555 1_555
C15A C14A 1_555 1_555
H18A C15A 1_555 1_555
H19A C15A 1_555 1_555
C16A C15A 1_555 1_555
H20A C16A 1_555 1_555
H21A C16A 1_555 1_555
C17A N2A 1_555 1_555
H22A C17A 1_555 1_555
C18A N2A 1_555 1_555
H23A C18A 1_555 1_555
C19A C18A 1_555 1_555
H24A C19A 1_555 1_555
H25A C19A 1_555 1_555
H26A C19A 1_555 1_555
C20A C18A 1_555 1_555
H27A C20A 1_555 1_555
H28A C20A 1_555 1_555
C21A N1 1_555 1_555
H29A C21A 1_555 1_555
H30A C21A 1_555 1_555
C22A C6A 1_555 1_555
C23A C28 1_555 1_555
H31A C23A 1_555 1_555
C24A N4A 1_555 1_555
H32A C24A 1_555 1_555
H33A C24A 1_555 1_555
C25A C24A 1_555 1_555
H34A C25A 1_555 1_555
H35A C25A 1_555 1_555
C26A N3A 1_555 1_555
H36A C26A 1_555 1_555
C27A C26A 1_555 1_555
H37A C27A 1_555 1_555
H38A C27A 1_555 1_555
H39A C27A 1_555 1_555
C28A C23 1_555 1_555
H40A C28A 1_555 1_555
C29A C28A 1_555 1_555
H41A C29A 1_555 1_555
H42A C29A 1_555 1_555
C30A C29A 1_555 1_555
H43A C30A 1_555 1_555
H44A C30A 1_555 1_555
C31A C30A 1_555 1_555
H45A C31A 1_555 1_555
H46A C31A 1_555 1_555
C32A C23 1_555 1_555
H47A C32A 1_555 1_555
H48A C32A 1_555 1_555
C1 C5 1_555 1_555
C2 C3 1_555 1_555
C3 C4 1_555 1_555
C4 C5 1_555 1_555
C6 C7 1_555 1_555
C6 C10 1_555 1_555
C7 C8 1_555 1_555
C8 C9 1_555 1_555
C9 C10 1_555 1_555
C12 C17 1_555 1_555
C16 C17 1_555 1_555
C21 N1A 1_555 1_555
C25 C26 1_555 1_555
C32 C23A 1_555 1_555
N3A C28A 1_555 1_555
N4A C23A 1_555 1_555
C1A C5A 1_555 1_555
C1A C11A 1_555 1_555
C2A C3A 1_555 1_555
C3A C4A 1_555 1_555
C4A C5A 1_555 1_555
C6A C7A 1_555 1_555
C6A C10A 1_555 1_555
C7A C8A 1_555 1_555
C8A C9A 1_555 1_555
C9A C10A 1_555 1_555
C12A C17A 1_555 1_555
C16A C17A 1_555 1_555
C20A C21A 1_555 1_555
C25A C26A 1_555 1_555
C31A C32A 1_555 1_555

#END
