
#######################################################################
#
#                 Cambridge Crystallographic Data Centre
#                                CCDC 
#
#######################################################################
#
# If this CIF has been generated from an entry in the Cambridge 
# Structural Database, then it will include bibliographic, chemical, 
# crystal, experimental, refinement or atomic coordinate data resulting 
# from the CCDC's data processing and validation procedures.
#
#######################################################################

data_IZIROZ
_symmetry_cell_setting           monoclinic
_symmetry_space_group_name_H-M   'C 2/c'
_symmetry_Int_Tables_number      15
_space_group_name_Hall           '-C 2yn'
loop_
_symmetry_equiv_pos_site_id
_symmetry_equiv_pos_as_xyz
1 x,y,z
2 -x,y,1/2-z
3 1/2+x,1/2+y,z
4 1/2-x,1/2+y,1/2-z
5 -x,-y,-z
6 x,-y,1/2+z
7 1/2-x,1/2-y,-z
8 1/2+x,1/2-y,1/2+z
_cell_length_a                   17.5564(5)
_cell_length_b                   10.2621(3)
_cell_length_c                   18.3590(5)
_cell_angle_alpha                90
_cell_angle_beta                 102.2230(16)
_cell_angle_gamma                90
_cell_volume                     3232.68
loop_
_atom_site_label
_atom_site_type_symbol
_atom_site_fract_x
_atom_site_fract_y
_atom_site_fract_z
Fe1 Fe 0.5000 0.15810(6) 0.7500
Zn1 Zn 0.5000 0.5000 0.5000
O1 O 0.53846(12) 0.3756(2) 0.59880(11)
O3 O 0.53230(14) 0.1744(2) 0.55107(12)
N1 N 0.61440(13) 0.5638(3) 0.49588(13)
H1 H 0.6060 0.6312 0.4612
N2 N 0.48094(14) 0.6421(2) 0.57517(13)
H2 H 0.4661 0.7177 0.5479
C1 C 0.57346(15) 0.1998(3) 0.68129(16)
C2 C 0.59423(16) 0.2747(3) 0.74872(16)
H3 H 0.5956 0.3719 0.7525
C3 C 0.61183(17) 0.1857(3) 0.80901(17)
H4 H 0.6271 0.2097 0.8629
C4 C 0.60277(17) 0.0565(3) 0.78026(18)
H5 H 0.6108 -0.0256 0.8102
C5 C 0.57913(16) 0.0653(3) 0.70129(17)
H6 H 0.5680 -0.0099 0.6660
C6 C 0.54607(16) 0.2534(3) 0.60480(16)
C7 C 0.66531(17) 0.6235(3) 0.56298(17)
H7 H 0.7077 0.6719 0.5458
C8 C 0.61840(18) 0.7233(3) 0.59740(18)
H8 H 0.6554 0.7716 0.6363
H9 H 0.5960 0.7868 0.5581
C9 C 0.55212(17) 0.6740(3) 0.63235(17)
H10 H 0.5697 0.5953 0.6623
H11 H 0.5392 0.7416 0.6663
C10 C 0.70378(18) 0.5210(4) 0.6185(2)
H12 H 0.6644 0.4587 0.6273
H13 H 0.7280 0.5633 0.6655
H14 H 0.7437 0.4749 0.5984
C11 C 0.41293(17) 0.5989(3) 0.60555(16)
H15 H 0.4310 0.5279 0.6425
C12 C 0.35068(17) 0.5413(3) 0.54210(17)
H16 H 0.3335 0.6122 0.5049
C13 C 0.2792(2) 0.4972(3) 0.5711(2)
H17 H 0.2388 0.4651 0.5289
H18 H 0.2940 0.4243 0.6066
C14 C 0.2456(2) 0.6081(4) 0.6099(2)
H19 H 0.2265 0.6780 0.5735
H20 H 0.2009 0.5756 0.6296
C15 C 0.3068(2) 0.6631(4) 0.6733(2)
H21 H 0.3220 0.5957 0.7122
H22 H 0.2847 0.7379 0.6959
C16 C 0.3791(2) 0.7077(3) 0.64565(18)
H23 H 0.3649 0.7823 0.6112
H24 H 0.4192 0.7379 0.6886
Zn1A Zn 0.5000 0.5000 1.0000
O1A O 0.46154(12) 0.3756(2) 0.90120(11)
O1D O 0.46154(12) 0.6244(2) 0.40120(11)
O3A O 0.46770(14) 0.1744(2) 0.94893(12)
N1D N 0.38560(13) 0.4362(3) 0.50412(13)
H1D H 0.3940 0.3688 0.5388
N2D N 0.51906(14) 0.3579(2) 0.42483(13)
H2D H 0.5339 0.2823 0.4521
C1A C 0.42654(15) 0.1998(3) 0.81871(16)
C2A C 0.40577(16) 0.2747(3) 0.75128(16)
H3A H 0.4044 0.3719 0.7475
C3A C 0.38817(17) 0.1857(3) 0.69099(17)
H4A H 0.3729 0.2097 0.6371
C4A C 0.39723(17) 0.0565(3) 0.71974(18)
H5A H 0.3892 -0.0256 0.6898
C5A C 0.42087(16) 0.0653(3) 0.79871(17)
H6A H 0.4320 -0.0099 0.8340
C6A C 0.45393(16) 0.2534(3) 0.89520(16)
C7D C 0.33469(17) 0.3765(3) 0.43702(17)
H7D H 0.2923 0.3281 0.4542
C8D C 0.38160(18) 0.2767(3) 0.40260(18)
H8D H 0.3446 0.2284 0.3637
H9D H 0.4040 0.2132 0.4419
C9D C 0.44788(17) 0.3260(3) 0.36765(17)
H10D H 0.4303 0.4047 0.3377
H11D H 0.4608 0.2584 0.3337
C10D C 0.29622(18) 0.4790(4) 0.3815(2)
H12D H 0.3356 0.5413 0.3727
H13D H 0.2720 0.4367 0.3345
H14D H 0.2563 0.5251 0.4016
C11D C 0.58707(17) 0.4011(3) 0.39445(16)
H15D H 0.5690 0.4721 0.3575
C12D C 0.64932(17) 0.4587(3) 0.45790(17)
H16D H 0.6665 0.3878 0.4951
C13D C 0.7208(2) 0.5028(3) 0.4289(2)
H17D H 0.7612 0.5349 0.4711
H18D H 0.7060 0.5757 0.3934
C14D C 0.7544(2) 0.3919(4) 0.3901(2)
H19D H 0.7735 0.3220 0.4265
H20D H 0.7991 0.4244 0.3704
C15D C 0.6932(2) 0.3369(4) 0.3267(2)
H21D H 0.6780 0.4043 0.2878
H22D H 0.7153 0.2621 0.3041
C16D C 0.6209(2) 0.2923(3) 0.35435(18)
H23D H 0.6351 0.2177 0.3888
H24D H 0.5808 0.2621 0.3114
O2 O 0.59470(16) 0.0038(2) 0.45813(16)
H25 H 0.5859 0.0419 0.4921
H26 H 0.5530 -0.0389 0.4413
loop_
_geom_bond_atom_site_label_1
_geom_bond_atom_site_label_2
_geom_bond_site_symmetry_1
_geom_bond_site_symmetry_2
Fe1 C1 1_555 1_555
Zn1 O1 1_555 1_555
O1 C6 1_555 1_555
O2 H25 1_555 1_555
O3 C6 1_555 1_555
N1 Zn1 1_555 1_555
H1 N1 1_555 1_555
N2 Zn1 1_555 1_555
H2 N2 1_555 1_555
C1 C2 1_555 1_555
C2 Fe1 1_555 1_555
H3 C2 1_555 1_555
C3 Fe1 1_555 1_555
H4 C3 1_555 1_555
C4 Fe1 1_555 1_555
H5 C4 1_555 1_555
C5 Fe1 1_555 1_555
H6 C5 1_555 1_555
C6 C1 1_555 1_555
C7 N1 1_555 1_555
H7 C7 1_555 1_555
C8 C7 1_555 1_555
H8 C8 1_555 1_555
H9 C8 1_555 1_555
C9 N2 1_555 1_555
H10 C9 1_555 1_555
H11 C9 1_555 1_555
C10 C7 1_555 1_555
H12 C10 1_555 1_555
H13 C10 1_555 1_555
H14 C10 1_555 1_555
C11 N2 1_555 1_555
H15 C11 1_555 1_555
C12 C11 1_555 1_555
H16 C12 1_555 1_555
C13 C12 1_555 1_555
H17 C13 1_555 1_555
H18 C13 1_555 1_555
C14 C13 1_555 1_555
H19 C14 1_555 1_555
H20 C14 1_555 1_555
C15 C14 1_555 1_555
H21 C15 1_555 1_555
H22 C15 1_555 1_555
C16 C11 1_555 1_555
H23 C16 1_555 1_555
H24 C16 1_555 1_555
H26 O2 1_555 1_555
Zn1A O1A 1_555 1_555
O1A C6A 1_555 1_555
O1D Zn1 1_555 1_555
O3A C6A 1_555 1_555
N1D Zn1 1_555 1_555
H1D N1D 1_555 1_555
N2D Zn1 1_555 1_555
H2D N2D 1_555 1_555
C1A Fe1 1_555 1_555
C2A Fe1 1_555 1_555
H3A C2A 1_555 1_555
C3A Fe1 1_555 1_555
H4A C3A 1_555 1_555
C4A Fe1 1_555 1_555
H5A C4A 1_555 1_555
C5A Fe1 1_555 1_555
H6A C5A 1_555 1_555
C6A C1A 1_555 1_555
C7D N1D 1_555 1_555
H7D C7D 1_555 1_555
C8D C7D 1_555 1_555
H8D C8D 1_555 1_555
H9D C8D 1_555 1_555
C9D N2D 1_555 1_555
H10D C9D 1_555 1_555
H11D C9D 1_555 1_555
C10D C7D 1_555 1_555
H12D C10D 1_555 1_555
H13D C10D 1_555 1_555
H14D C10D 1_555 1_555
C11D N2D 1_555 1_555
H15D C11D 1_555 1_555
C12D N1 1_555 1_555
H16D C12D 1_555 1_555
C13D C12D 1_555 1_555
H17D C13D 1_555 1_555
H18D C13D 1_555 1_555
C14D C13D 1_555 1_555
H19D C14D 1_555 1_555
H20D C14D 1_555 1_555
C15D C14D 1_555 1_555
H21D C15D 1_555 1_555
H22D C15D 1_555 1_555
C16D C11D 1_555 1_555
H23D C16D 1_555 1_555
H24D C16D 1_555 1_555
C1 C5 1_555 1_555
C2 C3 1_555 1_555
C3 C4 1_555 1_555
C4 C5 1_555 1_555
C8 C9 1_555 1_555
C12 N1D 1_555 1_555
C15 C16 1_555 1_555
C1A C2A 1_555 1_555
C1A C5A 1_555 1_555
C2A C3A 1_555 1_555
C3A C4A 1_555 1_555
C4A C5A 1_555 1_555
C8D C9D 1_555 1_555
C11D C12D 1_555 1_555
C15D C16D 1_555 1_555

#END
