
#######################################################################
#
#                 Cambridge Crystallographic Data Centre
#                                CCDC 
#
#######################################################################
#
# If this CIF has been generated from an entry in the Cambridge 
# Structural Database, then it will include bibliographic, chemical, 
# crystal, experimental, refinement or atomic coordinate data resulting 
# from the CCDC's data processing and validation procedures.
#
#######################################################################

data_IZIREO
_symmetry_cell_setting           orthorhombic
_symmetry_space_group_name_H-M   'P b c a'
_symmetry_Int_Tables_number      61
_space_group_name_Hall           '-P 2ac 2ab'
loop_
_symmetry_equiv_pos_site_id
_symmetry_equiv_pos_as_xyz
1 x,y,z
2 1/2-x,1/2+y,z
3 x,1/2-y,1/2+z
4 1/2+x,y,1/2-z
5 -x,-y,-z
6 1/2+x,1/2-y,-z
7 -x,1/2+y,1/2-z
8 1/2-x,-y,1/2+z
_cell_length_a                   13.222(5)
_cell_length_b                   12.892(4)
_cell_length_c                   14.366(5)
_cell_angle_alpha                90
_cell_angle_beta                 90
_cell_angle_gamma                90
_cell_volume                     2448.8
loop_
_atom_site_label
_atom_site_type_symbol
_atom_site_fract_x
_atom_site_fract_y
_atom_site_fract_z
Cd1 Cd 0.002609(17) 0.131409(15) 0.253957(14)
Br1 Br -0.10987(3) 0.28070(2) 0.20396(2)
Br2 Br 0.09977(3) 0.12760(3) 0.40798(2)
N1 N -0.07133(17) -0.02876(17) 0.24701(15)
H1 H -0.0179 -0.0756 0.2455
N2 N -0.36001(17) 0.11603(19) 0.34063(15)
C1 C -0.0619(2) -0.0231(2) 0.07578(18)
C2 C 0.0199(2) -0.0862(2) 0.05413(19)
H2 H 0.0336 -0.1458 0.0909
C3 C -0.0816(2) 0.0628(2) 0.02069(19)
H3 H -0.1379 0.1059 0.0344
C4 C -0.1282(2) -0.0469(3) 0.15916(18)
H4 H -0.1890 -0.0021 0.1578
H5 H -0.1508 -0.1201 0.1564
C5 C -0.1310(2) -0.0570(2) 0.33188(19)
H6 H -0.0836 -0.0725 0.3835
H7 H -0.1703 -0.1207 0.3189
C6 C -0.2935(2) 0.0419(2) 0.31753(18)
H8 H -0.3103 -0.0033 0.2676
C7 C -0.2021(2) 0.0275(2) 0.36200(18)
C8 C -0.1798(2) 0.0937(2) 0.43627(19)
H9 H -0.1179 0.0867 0.4693
C9 C -0.2485(2) 0.1695(2) 0.4611(2)
H10 H -0.2344 0.2151 0.5114
C10 C -0.3376(2) 0.1782(2) 0.41218(19)
H11 H -0.3848 0.2302 0.4299
C3D C 0.0816(2) -0.0628(2) -0.02069(19)
C1D C 0.0619(2) 0.0231(2) -0.07578(18)
C2D C -0.0199(2) 0.0862(2) -0.05413(19)
H2D H -0.0336 0.1458 -0.0909
C4D C 0.1282(2) 0.0469(3) -0.15916(18)
N1D N 0.07133(17) 0.02876(17) -0.24701(15)
H1D H 0.0179 0.0756 -0.2455
C5D C 0.1310(2) 0.0570(2) -0.33188(19)
H6D H 0.0836 0.0725 -0.3835
H7D H 0.1703 0.1207 -0.3189
C7D C 0.2021(2) -0.0275(2) -0.36200(18)
C6D C 0.2935(2) -0.0419(2) -0.31753(18)
N2D N 0.36001(17) -0.11603(19) -0.34063(15)
C10D C 0.3376(2) -0.1782(2) -0.41218(19)
C9D C 0.2485(2) -0.1695(2) -0.4611(2)
C8D C 0.1798(2) -0.0937(2) -0.43627(19)
H9D H 0.1179 -0.0867 -0.4693
H10D H 0.2344 -0.2151 -0.5114
H11D H 0.3848 -0.2302 -0.4299
H8D H 0.3103 0.0033 -0.2676
H4D H 0.1890 0.0021 -0.1578
H5D H 0.1508 0.1201 -0.1564
H3D H 0.1379 -0.1059 -0.0344
Cd1D Cd -0.002609(17) -0.131409(15) -0.253957(14)
Br1D Br 0.10987(3) -0.28070(2) -0.20396(2)
Br2D Br -0.09977(3) -0.12760(3) -0.40798(2)
N2C N 0.13999(17) 0.11603(19) 0.15937(15)
Cd1C Cd -0.497391(17) 0.131409(15) 0.246043(14)
Cd1G Cd 0.497391(17) -0.131409(15) -0.246043(14)
N2G N -0.13999(17) -0.11603(19) -0.15937(15)
loop_
_geom_bond_atom_site_label_1
_geom_bond_atom_site_label_2
_geom_bond_site_symmetry_1
_geom_bond_site_symmetry_2
Cd1 Br1 1_555 1_555
Br2 Cd1 1_555 1_555
N1 Cd1 1_555 1_555
H1 N1 1_555 1_555
N2 C6 1_555 1_555
C1 C2 1_555 1_555
C2 H2 1_555 1_555
C3 C1 1_555 1_555
H3 C3 1_555 1_555
C4 N1 1_555 1_555
H4 C4 1_555 1_555
H5 C4 1_555 1_555
C5 N1 1_555 1_555
H6 C5 1_555 1_555
H7 C5 1_555 1_555
C6 H8 1_555 1_555
C7 C5 1_555 1_555
C8 C7 1_555 1_555
H9 C8 1_555 1_555
C9 C8 1_555 1_555
H10 C9 1_555 1_555
C10 N2 1_555 1_555
H11 C10 1_555 1_555
C3D C2 1_555 1_555
C1D C3D 1_555 1_555
C2D C3 1_555 1_555
H2D C2D 1_555 1_555
C4D C1D 1_555 1_555
N1D C4D 1_555 1_555
H1D N1D 1_555 1_555
C5D N1D 1_555 1_555
H6D C5D 1_555 1_555
H7D C5D 1_555 1_555
C7D C5D 1_555 1_555
C6D C7D 1_555 1_555
N2D C6D 1_555 1_555
C10D N2D 1_555 1_555
C9D C10D 1_555 1_555
C8D C7D 1_555 1_555
H9D C8D 1_555 1_555
H10D C9D 1_555 1_555
H11D C10D 1_555 1_555
H8D C6D 1_555 1_555
H4D C4D 1_555 1_555
H5D C4D 1_555 1_555
H3D C3D 1_555 1_555
Cd1D N1D 1_555 1_555
Br1D Cd1D 1_555 1_555
Br2D Cd1D 1_555 1_555
N2C Cd1 1_555 1_555
Cd1C N2 1_555 1_555
Cd1G N2D 1_555 1_555
N2G Cd1D 1_555 1_555
C1 C4 1_555 1_555
C6 C7 1_555 1_555
C9 C10 1_555 1_555
C1D C2D 1_555 1_555
C9D C8D 1_555 1_555

#END
