
#######################################################################
#
#                 Cambridge Crystallographic Data Centre
#                                CCDC 
#
#######################################################################
#
# If this CIF has been generated from an entry in the Cambridge 
# Structural Database, then it will include bibliographic, chemical, 
# crystal, experimental, refinement or atomic coordinate data resulting 
# from the CCDC's data processing and validation procedures.
#
#######################################################################

data_IZIRIS
_symmetry_cell_setting           orthorhombic
_symmetry_space_group_name_H-M   'P b c a'
_symmetry_Int_Tables_number      61
_space_group_name_Hall           '-P 2ac 2ab'
loop_
_symmetry_equiv_pos_site_id
_symmetry_equiv_pos_as_xyz
1 x,y,z
2 1/2-x,1/2+y,z
3 x,1/2-y,1/2+z
4 1/2+x,y,1/2-z
5 -x,-y,-z
6 1/2+x,1/2-y,-z
7 -x,1/2+y,1/2-z
8 1/2-x,-y,1/2+z
_cell_length_a                   13.605(6)
_cell_length_b                   13.129(6)
_cell_length_c                   14.887(6)
_cell_angle_alpha                90
_cell_angle_beta                 90
_cell_angle_gamma                90
_cell_volume                     2659.12
loop_
_atom_site_label
_atom_site_type_symbol
_atom_site_fract_x
_atom_site_fract_y
_atom_site_fract_z
Hg1 Hg 0.001102(19) 0.860014(18) 0.761259(13)
I1 I -0.11411(3) 0.71520(3) 0.69148(3)
I2 I 0.10123(3) 0.87532(4) 0.91721(3)
N1 N -0.0746(3) 1.0219(4) 0.7406(3)
H1 H -0.0230 1.0683 0.7377
N2 N -0.3600(3) 0.8862(4) 0.8316(3)
C1 C -0.0612(4) 1.0140(5) 0.5737(4)
C2 C 0.0192(4) 1.0800(5) 0.5576(4)
H2 H 0.0313 1.1355 0.5971
C3 C -0.0796(4) 0.9358(5) 0.5145(4)
H3 H -0.1346 0.8924 0.5239
C4 C -0.1271(4) 1.0320(5) 0.6539(4)
H4 H -0.1555 1.1013 0.6498
H5 H -0.1820 0.9826 0.6524
C5 C -0.1345(4) 1.0537(5) 0.8210(4)
H6 H -0.0895 1.0705 0.8711
H7 H -0.1719 1.1160 0.8059
C6 C -0.2942(4) 0.9582(4) 0.8077(4)
H8 H -0.3094 1.0014 0.7585
C7 C -0.2053(4) 0.9722(5) 0.8516(3)
C8 C -0.1856(4) 0.9102(5) 0.9252(4)
H9 H -0.1260 0.9182 0.9577
C9 C -0.2532(4) 0.8368(4) 0.9509(4)
H10 H -0.2404 0.7935 1.0007
C10 C -0.3398(4) 0.8279(5) 0.9026(4)
H11 H -0.3866 0.7783 0.9208
C3D C 0.0796(4) 1.0642(5) 0.4855(4)
C1D C 0.0612(4) 0.9860(5) 0.4263(4)
C2D C -0.0192(4) 0.9200(5) 0.4424(4)
H2D H -0.0313 0.8645 0.4029
C4D C 0.1271(4) 0.9680(5) 0.3461(4)
N1D N 0.0746(3) 0.9781(4) 0.2594(3)
H1D H 0.0230 0.9317 0.2623
C5D C 0.1345(4) 0.9463(5) 0.1790(4)
H6D H 0.0895 0.9295 0.1289
H7D H 0.1719 0.8840 0.1941
C7D C 0.2053(4) 1.0278(5) 0.1484(3)
C6D C 0.2942(4) 1.0418(4) 0.1923(4)
N2D N 0.3600(3) 1.1138(4) 0.1684(3)
C10D C 0.3398(4) 1.1721(5) 0.0974(4)
C9D C 0.2532(4) 1.1632(4) 0.0491(4)
C8D C 0.1856(4) 1.0898(5) 0.0748(4)
H9D H 0.1260 1.0818 0.0423
H10D H 0.2404 1.2065 -0.0007
H11D H 0.3866 1.2217 0.0792
H8D H 0.3094 0.9986 0.2415
H4D H 0.1555 0.8987 0.3502
H5D H 0.1820 1.0174 0.3476
H3D H 0.1346 1.1076 0.4761
Hg1D Hg -0.001102(19) 1.139986(18) 0.238741(13)
I1D I 0.11411(3) 1.28480(3) 0.30852(3)
I2D I -0.10123(3) 1.12468(4) 0.08279(3)
N2C N 0.1400(3) 0.8862(4) 0.6684(3)
Hg1C Hg -0.498898(19) 0.860014(18) 0.738741(13)
Hg1G Hg 0.498898(19) 1.139986(18) 0.261259(13)
N2G N -0.1400(3) 1.1138(4) 0.3316(3)
loop_
_geom_bond_atom_site_label_1
_geom_bond_atom_site_label_2
_geom_bond_site_symmetry_1
_geom_bond_site_symmetry_2
Hg1 I1 1_555 1_555
I2 Hg1 1_555 1_555
N1 Hg1 1_555 1_555
H1 N1 1_555 1_555
N2 C6 1_555 1_555
C1 C2 1_555 1_555
C2 H2 1_555 1_555
C3 C1 1_555 1_555
H3 C3 1_555 1_555
C4 N1 1_555 1_555
H4 C4 1_555 1_555
H5 C4 1_555 1_555
C5 N1 1_555 1_555
H6 C5 1_555 1_555
H7 C5 1_555 1_555
C6 H8 1_555 1_555
C7 C5 1_555 1_555
C8 C7 1_555 1_555
H9 C8 1_555 1_555
C9 C8 1_555 1_555
H10 C9 1_555 1_555
C10 N2 1_555 1_555
H11 C10 1_555 1_555
C3D C2 1_555 1_555
C1D C3D 1_555 1_555
C2D C3 1_555 1_555
H2D C2D 1_555 1_555
C4D C1D 1_555 1_555
N1D C4D 1_555 1_555
H1D N1D 1_555 1_555
C5D N1D 1_555 1_555
H6D C5D 1_555 1_555
H7D C5D 1_555 1_555
C7D C5D 1_555 1_555
C6D C7D 1_555 1_555
N2D C6D 1_555 1_555
C10D N2D 1_555 1_555
C9D C10D 1_555 1_555
C8D C7D 1_555 1_555
H9D C8D 1_555 1_555
H10D C9D 1_555 1_555
H11D C10D 1_555 1_555
H8D C6D 1_555 1_555
H4D C4D 1_555 1_555
H5D C4D 1_555 1_555
H3D C3D 1_555 1_555
Hg1D N1D 1_555 1_555
I1D Hg1D 1_555 1_555
I2D Hg1D 1_555 1_555
N2C Hg1 1_555 1_555
Hg1C N2 1_555 1_555
Hg1G N2D 1_555 1_555
N2G Hg1D 1_555 1_555
C1 C4 1_555 1_555
C6 C7 1_555 1_555
C9 C10 1_555 1_555
C1D C2D 1_555 1_555
C9D C8D 1_555 1_555

#END
