
#######################################################################
#
#                 Cambridge Crystallographic Data Centre
#                                CCDC 
#
#######################################################################
#
# If this CIF has been generated from an entry in the Cambridge 
# Structural Database, then it will include bibliographic, chemical, 
# crystal, experimental, refinement or atomic coordinate data resulting 
# from the CCDC's data processing and validation procedures.
#
#######################################################################

data_IZISEQ
_symmetry_cell_setting           tetragonal
_symmetry_space_group_name_H-M   'I 41/a c d'
_symmetry_Int_Tables_number      142
_space_group_name_Hall           '-I 4bd 2c'
loop_
_symmetry_equiv_pos_site_id
_symmetry_equiv_pos_as_xyz
1 x,y,z
2 1/2-x,-y,1/2+z
3 1/4-y,3/4+x,1/4+z
4 1/4+y,1/4-x,3/4+z
5 1/2-x,y,-z
6 x,-y,1/2-z
7 1/4+y,3/4+x,3/4-z
8 1/4-y,1/4-x,1/4-z
9 1/2+x,1/2+y,1/2+z
10 -x,1/2-y,z
11 3/4-y,1/4+x,3/4+z
12 3/4+y,3/4-x,1/4+z
13 -x,1/2+y,1/2-z
14 1/2+x,1/2-y,-z
15 3/4+y,1/4+x,1/4-z
16 3/4-y,3/4-x,3/4-z
17 -x,-y,-z
18 1/2+x,y,1/2-z
19 3/4+y,1/4-x,3/4-z
20 3/4-y,3/4+x,1/4-z
21 1/2+x,-y,z
22 -x,y,1/2+z
23 3/4-y,1/4-x,1/4+z
24 3/4+y,3/4+x,3/4+z
25 1/2-x,1/2-y,1/2-z
26 x,1/2+y,-z
27 1/4+y,3/4-x,1/4-z
28 1/4-y,1/4+x,3/4-z
29 x,1/2-y,1/2+z
30 1/2-x,1/2+y,z
31 1/4-y,3/4-x,3/4+z
32 1/4+y,1/4+x,1/4+z
_cell_length_a                   22.9094(12)
_cell_length_b                   22.9094(12)
_cell_length_c                   16.3322(18)
_cell_angle_alpha                90
_cell_angle_beta                 90
_cell_angle_gamma                90
_cell_volume                     8571.8
loop_
_atom_site_label
_atom_site_type_symbol
_atom_site_fract_x
_atom_site_fract_y
_atom_site_fract_z
O1 O 0.8037(8) 0.7897(6) 0.4741(8)
O2 O 0.8574(5) 0.8516(6) 0.4842(7)
O3 O 0.7590(15) 0.8528(12) 0.4763(14)
N2 N 0.8183(9) 0.8277(10) 0.4910(11)
O1D O 0.6963(8) 0.7897(6) 0.5259(8)
O2D O 0.6426(5) 0.8516(6) 0.5158(7)
O3D O 0.7410(15) 0.8528(12) 0.5237(14)
N2D N 0.6817(9) 0.8277(10) 0.5090(11)
Ni1 Ni 0.0000 0.7500 0.8750
Si1 Si 0.22091(7) 0.65497(7) 0.76654(13)
O4 O -0.06502(17) 0.68498(17) 0.8750
H1 H -0.0649 0.6675 0.8298
N1 N 0.04733(19) 0.70516(19) 0.7849(3)
C1 C 0.1051(2) 0.6975(2) 0.7944(3)
H2 H 0.1232 0.7156 0.8401
C2 C 0.1407(2) 0.6646(2) 0.7418(4)
C3 C 0.1125(3) 0.6402(2) 0.6741(4)
H3 H 0.1344 0.6184 0.6353
C4 C 0.0531(3) 0.6475(2) 0.6631(4)
H4 H 0.0340 0.6306 0.6172
C5 C 0.0220(3) 0.6797(2) 0.7200(3)
H5 H -0.0189 0.6840 0.7127
C6 C 0.2274(3) 0.6483(4) 0.8794(6)
H6 H 0.2685 0.6431 0.8943
H7 H 0.2122 0.6838 0.9054
H8 H 0.2048 0.6145 0.8982
C7 C 0.2475(4) 0.5878(3) 0.7152(8)
H9 H 0.2890 0.5822 0.7276
H10 H 0.2252 0.5541 0.7351
H11 H 0.2423 0.5916 0.6559
C8 C 0.2603(3) 0.7212(2) 0.7302(4)
H12 H 0.2554 0.7243 0.6701
H13 H 0.3025 0.7162 0.7414
Ni1Q Ni 0.5000 0.7500 0.6250
Ni1P Ni 0.0000 1.2500 1.1250
Si1X Si 0.27909(7) 0.84503(7) 0.73346(13)
Si1F Si -0.09503(7) 0.97091(7) 0.98346(13)
Si1V Si 0.09503(7) 1.02909(7) 1.01654(13)
O4I O 0.06502(17) 0.81502(17) 0.8750
H1F H -0.0825 0.6851 0.9202
H1I H 0.0649 0.8325 0.8298
H1O H 0.0825 0.8149 0.9202
N1X N 0.45267(19) 0.79484(19) 0.7151(3)
N1F N -0.04484(19) 0.79733(19) 0.9651(3)
N1V N 0.04484(19) 1.20267(19) 1.0349(3)
N1I N -0.04733(19) 0.79484(19) 0.7849(3)
N1O N 0.04484(19) 0.70267(19) 0.9651(3)
C1X C 0.3949(2) 0.8025(2) 0.7056(3)
C1F C -0.0525(2) 0.8551(2) 0.9556(3)
C1V C 0.0525(2) 1.1449(2) 1.0444(3)
H2X H 0.3768 0.7844 0.6599
H2F H -0.0344 0.8732 0.9099
H2V H 0.0344 1.1268 1.0901
C2X C 0.3593(2) 0.8354(2) 0.7582(4)
C2F C -0.0854(2) 0.8907(2) 1.0082(4)
C2V C 0.0854(2) 1.1093(2) 0.9918(4)
C3X C 0.3875(3) 0.8598(2) 0.8259(4)
C3F C -0.1098(2) 0.8625(3) 1.0759(4)
C3V C 0.1098(2) 1.1375(3) 0.9241(4)
H3X H 0.3656 0.8816 0.8647
H3F H -0.1316 0.8844 1.1147
H3V H 0.1316 1.1156 0.8853
C4X C 0.4469(3) 0.8525(2) 0.8369(4)
C4F C -0.1025(2) 0.8031(3) 1.0869(4)
C4V C 0.1025(2) 1.1969(3) 0.9131(4)
H4X H 0.4660 0.8694 0.8828
H4F H -0.1194 0.7840 1.1328
H4V H 0.1194 1.2160 0.8672
C5X C 0.4780(3) 0.8203(2) 0.7800(3)
C5F C -0.0703(2) 0.7720(3) 1.0300(3)
C5V C 0.0703(2) 1.2280(3) 0.9700(3)
H5X H 0.5189 0.8160 0.7873
H5F H -0.0660 0.7311 1.0373
H5V H 0.0660 1.2689 0.9627
C6X C 0.2726(3) 0.8517(4) 0.6206(6)
C6F C -0.1017(4) 0.9774(3) 0.8706(6)
C6V C 0.1017(4) 1.0226(3) 1.1294(6)
H6X H 0.2315 0.8569 0.6057
H6F H -0.1069 1.0185 0.8557
H6V H 0.1069 0.9815 1.1443
H7X H 0.2878 0.8162 0.5946
H7F H -0.0662 0.9622 0.8446
H7V H 0.0662 1.0378 1.1554
H8X H 0.2952 0.8855 0.6018
H8F H -0.1355 0.9548 0.8518
H8V H 0.1355 1.0452 1.1482
C7X C 0.2525(4) 0.9122(3) 0.7848(8)
C7F C -0.1622(3) 0.9975(4) 1.0348(8)
C7V C 0.1622(3) 1.0025(4) 0.9652(8)
H9X H 0.2110 0.9178 0.7724
H9F H -0.1678 1.0390 1.0224
H9V H 0.1678 0.9610 0.9776
H10X H 0.2748 0.9459 0.7649
H10F H -0.1959 0.9752 1.0149
H10V H 0.1959 1.0248 0.9851
H11X H 0.2577 0.9084 0.8441
H11F H -0.1584 0.9923 1.0941
H11V H 0.1584 1.0077 0.9059
C8X C 0.2397(3) 0.7788(2) 0.7698(4)
C8F C -0.0288(2) 1.0103(3) 1.0198(4)
C8V C 0.0288(2) 0.9897(3) 0.9802(4)
H12X H 0.2446 0.7757 0.8299
H12F H -0.0257 1.0054 1.0799
H12V H 0.0257 0.9946 0.9201
H13X H 0.1975 0.7838 0.7586
H13F H -0.0338 1.0525 1.0086
H13V H 0.0338 0.9475 0.9914
loop_
_geom_bond_atom_site_label_1
_geom_bond_atom_site_label_2
_geom_bond_site_symmetry_1
_geom_bond_site_symmetry_2
Ni1 O4 1_555 1_555
Si1 C2 1_555 1_555
O1 N2 1_555 1_555
O2 N2 1_555 1_555
O3 N2 1_555 1_555
O4 H1 1_555 1_555
N1 Ni1 1_555 1_555
C1 N1 1_555 1_555
H2 C1 1_555 1_555
C2 C1 1_555 1_555
C3 C2 1_555 1_555
H3 C3 1_555 1_555
C4 C3 1_555 1_555
H4 C4 1_555 1_555
C5 N1 1_555 1_555
H5 C5 1_555 1_555
C6 Si1 1_555 1_555
H6 C6 1_555 1_555
H7 C6 1_555 1_555
H8 C6 1_555 1_555
C7 Si1 1_555 1_555
H9 C7 1_555 1_555
H10 C7 1_555 1_555
H11 C7 1_555 1_555
C8 Si1 1_555 1_555
H12 C8 1_555 1_555
H13 C8 1_555 1_555
Ni1Q N1X 1_555 1_555
Ni1P N1V 1_555 1_555
Si1X C2X 1_555 1_555
Si1F C2F 1_555 1_555
Si1V C2V 1_555 1_555
O1D N2D 1_555 1_555
O2D N2D 1_555 1_555
O3D O3 1_555 1_555
O4I Ni1 1_555 1_555
H1F O4 1_555 1_555
H1I O4I 1_555 1_555
H1O O4I 1_555 1_555
N1X C1X 1_555 1_555
N1F Ni1 1_555 1_555
N1V C1V 1_555 1_555
N1I Ni1 1_555 1_555
N1O Ni1 1_555 1_555
N2D O3D 1_555 1_555
C1X H2X 1_555 1_555
C1F N1F 1_555 1_555
C1V H2V 1_555 1_555
H2F C1F 1_555 1_555
C2X C1X 1_555 1_555
C2F C1F 1_555 1_555
C2V C1V 1_555 1_555
C3X C2X 1_555 1_555
C3F C2F 1_555 1_555
C3V C2V 1_555 1_555
H3X C3X 1_555 1_555
H3F C3F 1_555 1_555
H3V C3V 1_555 1_555
C4X C3X 1_555 1_555
C4F C3F 1_555 1_555
C4V C3V 1_555 1_555
H4X C4X 1_555 1_555
H4F C4F 1_555 1_555
H4V C4V 1_555 1_555
C5X N1X 1_555 1_555
C5F N1F 1_555 1_555
C5V N1V 1_555 1_555
H5X C5X 1_555 1_555
H5F C5F 1_555 1_555
H5V C5V 1_555 1_555
C6X Si1X 1_555 1_555
C6F Si1F 1_555 1_555
C6V Si1V 1_555 1_555
H6X C6X 1_555 1_555
H6F C6F 1_555 1_555
H6V C6V 1_555 1_555
H7X C6X 1_555 1_555
H7F C6F 1_555 1_555
H7V C6V 1_555 1_555
H8X C6X 1_555 1_555
H8F C6F 1_555 1_555
H8V C6V 1_555 1_555
C7X Si1X 1_555 1_555
C7F Si1F 1_555 1_555
C7V Si1V 1_555 1_555
H9X C7X 1_555 1_555
H9F C7F 1_555 1_555
H9V C7V 1_555 1_555
H10X C7X 1_555 1_555
H10F C7F 1_555 1_555
H10V C7V 1_555 1_555
H11X C7X 1_555 1_555
H11F C7F 1_555 1_555
H11V C7V 1_555 1_555
C8X C8 1_555 1_555
C8F Si1F 1_555 1_555
C8V Si1V 1_555 1_555
H12X C8X 1_555 1_555
H12F C8F 1_555 1_555
H12V C8V 1_555 1_555
H13X C8X 1_555 1_555
H13F C8F 1_555 1_555
H13V C8V 1_555 1_555
C4 C5 1_555 1_555
Si1X C8X 1_555 1_555
C4X C5X 1_555 1_555
C4F C5F 1_555 1_555
C4V C5V 1_555 1_555
C8F C8V 1_555 1_555

#END
