
#######################################################################
#
#                 Cambridge Crystallographic Data Centre
#                                CCDC 
#
#######################################################################
#
# If this CIF has been generated from an entry in the Cambridge 
# Structural Database, then it will include bibliographic, chemical, 
# crystal, experimental, refinement or atomic coordinate data resulting 
# from the CCDC's data processing and validation procedures.
#
#######################################################################

data_IZISUG
_symmetry_cell_setting           triclinic
_symmetry_space_group_name_H-M   'P -1'
_symmetry_Int_Tables_number      2
_space_group_name_Hall           '-P 1'
loop_
_symmetry_equiv_pos_site_id
_symmetry_equiv_pos_as_xyz
1 x,y,z
2 -x,-y,-z
_cell_length_a                   9.9875(4)
_cell_length_b                   10.1139(4)
_cell_length_c                   16.4811(6)
_cell_angle_alpha                101.914(2)
_cell_angle_beta                 107.027(2)
_cell_angle_gamma                94.352(2)
_cell_volume                     1540.91
loop_
_atom_site_label
_atom_site_type_symbol
_atom_site_fract_x
_atom_site_fract_y
_atom_site_fract_z
Cd1 Cd 0.58053(3) 0.36734(3) 0.079807(19)
O1 O 0.5947(4) 0.1437(4) -0.0043(2)
O2 O 0.7632(4) 0.0716(4) -0.0456(3)
O3 O 0.7909(5) 0.2508(5) 0.0565(4)
O4 O 0.4599(3) 0.5676(3) 0.06160(19)
O5 O 0.4702(3) 0.5490(3) 0.1902(2)
O6 O 0.3636(8) 0.6975(6) 0.1362(4)
N1 N 0.5853(3) 0.2631(3) 0.1941(2)
N2 N 0.7161(4) 0.4783(4) 0.4543(2)
N3 N 1.0127(4) 0.9615(4) 0.7636(2)
N4 N 1.3413(3) 1.2653(3) 1.0165(2)
N5 N 0.7828(4) 0.5341(3) 0.1514(2)
N6 N 1.2387(3) 0.8128(3) 0.3655(2)
N7 N 0.7168(5) 0.1534(4) 0.0010(3)
N8 N 0.4305(5) 0.6071(4) 0.1314(3)
C1 C 0.5229(4) 0.1343(4) 0.1743(3)
H1 H 0.4895 0.0867 0.1159
C2 C 0.5059(5) 0.0696(4) 0.2360(3)
H2 H 0.4605 -0.0200 0.2200
C3 C 0.5570(5) 0.1387(4) 0.3226(3)
H3 H 0.5471 0.0961 0.3659
C4 C 0.6228(4) 0.2715(4) 0.3446(3)
C5 C 0.6342(4) 0.3280(4) 0.2785(3)
H4 H 0.6790 0.4176 0.2930
C6 C 0.6740(5) 0.3515(5) 0.4356(3)
H5 H 0.6754 0.3081 0.4804
C7 C 0.7524(4) 0.5535(4) 0.5424(3)
C8 C 0.6792(5) 0.5294(4) 0.5971(3)
H6 H 0.6063 0.4562 0.5781
C9 C 0.7117(5) 0.6122(5) 0.6806(3)
H7 H 0.6636 0.5908 0.7178
C10 C 0.8126(5) 0.7242(5) 0.7090(3)
H8 H 0.8312 0.7801 0.7646
C11 C 0.8888(4) 0.7553(4) 0.6541(3)
C12 C 0.9934(4) 0.8754(4) 0.6807(3)
C13 C 1.0617(4) 0.9032(5) 0.6245(3)
H9 H 1.1270 0.9823 0.6410
C14 C 1.0357(5) 0.8149(5) 0.5422(3)
H10 H 1.0851 0.8349 0.5054
C15 C 0.9383(4) 0.6994(4) 0.5156(3)
H11 H 0.9233 0.6406 0.4613
C16 C 0.8605(4) 0.6690(4) 0.5700(3)
C17 C 1.1370(5) 1.0166(4) 0.8100(3)
H12 H 1.2118 0.9977 0.7888
C18 C 1.1665(4) 1.1092(4) 0.8960(3)
C19 C 1.0677(4) 1.1284(4) 0.9391(3)
H13 H 0.9756 1.0831 0.9130
C20 C 1.1063(4) 1.2151(4) 1.0208(3)
H14 H 1.0412 1.2297 1.0509
C21 C 1.2446(4) 1.2799(4) 1.0569(3)
H15 H 1.2712 1.3370 1.1127
C22 C 1.3014(4) 1.1801(4) 0.9377(3)
H16 H 1.3684 1.1676 0.9088
C23 C 0.8843(5) 0.5364(4) 0.1139(3)
H17 H 0.8649 0.4839 0.0573
C24 C 1.0166(4) 0.6125(5) 0.1549(3)
H18 H 1.0835 0.6121 0.1257
C25 C 1.0487(4) 0.6890(4) 0.2393(3)
C26 C 0.9425(4) 0.6935(4) 0.2773(3)
H19 H 0.9580 0.7477 0.3330
C27 C 0.8131(5) 0.6157(4) 0.2307(3)
H20 H 0.7418 0.6206 0.2565
C28 C 1.1931(4) 0.7633(4) 0.2846(3)
H21 H 1.2528 0.7738 0.2517
C29 C 1.3849(4) 0.8626(4) 0.4053(2)
C30 C 1.4274(4) 0.9788(4) 0.4771(2)
C31 C 1.3272(4) 1.0534(4) 0.5039(3)
H22 H 1.2313 1.0272 0.4735
C32 C 1.3700(4) 1.1627(4) 0.5732(3)
H23 H 1.3031 1.2104 0.5905
C33 C 1.4857(4) 0.7953(4) 0.3810(3)
H24 H 1.4581 0.7205 0.3332
Cd1A Cd 0.41947(3) 0.63266(3) -0.079807(19)
Cd1_2 Cd 1.58053(3) 1.36734(3) 1.079807(19)
Cd1A_2 Cd 2.41947(3) 1.63266(3) 0.920193(19)
Cd1_3 Cd -0.41947(3) -0.63266(3) -0.920193(19)
O1A O 0.4053(4) 0.8563(4) 0.0043(2)
O2A O 0.2368(4) 0.9284(4) 0.0456(3)
O3A O 0.2091(5) 0.7492(5) -0.0565(4)
O4A O 0.5401(3) 0.4324(3) -0.06160(19)
O5A O 0.5298(3) 0.4510(3) -0.1902(2)
O6A O 0.6364(8) 0.3025(6) -0.1362(4)
N1_2 N -0.4147(3) -0.7369(3) -0.8059(2)
N1A N 0.4147(3) 0.7369(3) -0.1941(2)
N2_2 N -0.2839(4) -0.5217(4) -0.5457(2)
N3_2 N 0.0127(4) -0.0385(4) -0.2364(2)
N4_2 N 0.3413(3) 0.2653(3) 0.0165(2)
N4A N 0.6587(3) 0.7347(3) -0.0165(2)
N5A N 2.2172(4) 1.4659(3) 0.8486(2)
N5A_2 N 0.2172(4) 0.4659(3) -0.1514(2)
N6A N 1.7613(3) 1.1872(3) 0.6345(2)
N7A N 0.2832(5) 0.8466(4) -0.0010(3)
N8A N 0.5695(5) 0.3929(4) -0.1314(3)
C1_2 C -0.4771(4) -0.8657(4) -0.8257(3)
H1_2 H -0.5105 -0.9133 -0.8841
C2_2 C -0.4941(5) -0.9304(4) -0.7640(3)
H2_2 H -0.5395 -1.0200 -0.7800
C3_2 C -0.4430(5) -0.8613(4) -0.6774(3)
H3_2 H -0.4529 -0.9039 -0.6341
C4_2 C -0.3772(4) -0.7285(4) -0.6554(3)
C5_2 C -0.3658(4) -0.6720(4) -0.7215(3)
H4_2 H -0.3210 -0.5824 -0.7070
C6_2 C -0.3260(5) -0.6485(5) -0.5644(3)
H5_2 H -0.3246 -0.6919 -0.5196
C7_2 C -0.2476(4) -0.4465(4) -0.4576(3)
C8_2 C -0.3208(5) -0.4706(4) -0.4029(3)
H6_2 H -0.3937 -0.5438 -0.4219
C9_2 C -0.2883(5) -0.3878(5) -0.3194(3)
H7_2 H -0.3364 -0.4092 -0.2822
C10_2 C -0.1874(5) -0.2758(5) -0.2910(3)
H8_2 H -0.1688 -0.2199 -0.2354
C11_2 C -0.1112(4) -0.2447(4) -0.3459(3)
C12_2 C -0.0066(4) -0.1246(4) -0.3193(3)
C13_2 C 0.0617(4) -0.0968(5) -0.3755(3)
H9_2 H 0.1270 -0.0177 -0.3590
C14_2 C 0.0357(5) -0.1851(5) -0.4578(3)
H10_2 H 0.0851 -0.1651 -0.4946
C15_2 C -0.0617(4) -0.3006(4) -0.4844(3)
H11_2 H -0.0767 -0.3594 -0.5387
C16_2 C -0.1395(4) -0.3310(4) -0.4300(3)
C17_2 C 0.1370(5) 0.0166(4) -0.1900(3)
H12_2 H 0.2118 -0.0023 -0.2112
C18_2 C 0.1665(4) 0.1092(4) -0.1040(3)
C19_2 C 0.0677(4) 0.1284(4) -0.0609(3)
H13_2 H -0.0244 0.0831 -0.0870
C20_2 C 0.1063(4) 0.2151(4) 0.0208(3)
H14_2 H 0.0412 0.2297 0.0509
C21_2 C 0.2446(4) 0.2799(4) 0.0569(3)
H15_2 H 0.2712 0.3370 0.1127
C22_2 C 0.3014(4) 0.1801(4) -0.0623(3)
H16_2 H 0.3684 0.1676 -0.0912
C23A C 2.1157(5) 1.4636(4) 0.8861(3)
H17A H 2.1351 1.5161 0.9427
C24A C 1.9834(4) 1.3875(5) 0.8451(3)
H18A H 1.9165 1.3879 0.8743
C25A C 1.9513(4) 1.3110(4) 0.7607(3)
C26A C 2.0575(4) 1.3065(4) 0.7227(3)
H19A H 2.0420 1.2523 0.6670
C27A C 2.1869(5) 1.3843(4) 0.7693(3)
H20A H 2.2582 1.3794 0.7435
C28A C 1.8069(4) 1.2367(4) 0.7154(3)
H21A H 1.7472 1.2262 0.7483
C29A C 1.6151(4) 1.1374(4) 0.5947(2)
C30A C 1.5726(4) 1.0212(4) 0.5229(2)
C31A C 1.6728(4) 0.9466(4) 0.4961(3)
H22A H 1.7687 0.9728 0.5265
C32A C 1.6300(4) 0.8373(4) 0.4268(3)
H23A H 1.6969 0.7896 0.4095
C33A C 1.5143(4) 1.2047(4) 0.6190(3)
H24A H 1.5419 1.2795 0.6668
loop_
_geom_bond_atom_site_label_1
_geom_bond_atom_site_label_2
_geom_bond_site_symmetry_1
_geom_bond_site_symmetry_2
Cd1 O1 1_555 1_555
O1 N7 1_555 1_555
O2 N7 1_555 1_555
O3 Cd1 1_555 1_555
O4 Cd1 1_555 1_555
O5 N8 1_555 1_555
O6 N8 1_555 1_555
N1 Cd1 1_555 1_555
N2 C6 1_555 1_555
N3 C12 1_555 1_555
N4 C21 1_555 1_555
N5 Cd1 1_555 1_555
N6 C28 1_555 1_555
N7 O3 1_555 1_555
N8 O4 1_555 1_555
C1 N1 1_555 1_555
H1 C1 1_555 1_555
C2 C1 1_555 1_555
H2 C2 1_555 1_555
C3 C2 1_555 1_555
H3 C3 1_555 1_555
C4 C3 1_555 1_555
C5 N1 1_555 1_555
H4 C5 1_555 1_555
C6 C4 1_555 1_555
H5 C6 1_555 1_555
C7 N2 1_555 1_555
C8 C7 1_555 1_555
H6 C8 1_555 1_555
C9 C8 1_555 1_555
H7 C9 1_555 1_555
C10 C9 1_555 1_555
H8 C10 1_555 1_555
C11 C10 1_555 1_555
C12 C11 1_555 1_555
C13 C12 1_555 1_555
H9 C13 1_555 1_555
C14 C13 1_555 1_555
H10 C14 1_555 1_555
C15 C14 1_555 1_555
H11 C15 1_555 1_555
C16 C7 1_555 1_555
C17 N3 1_555 1_555
H12 C17 1_555 1_555
C18 C17 1_555 1_555
C19 C18 1_555 1_555
H13 C19 1_555 1_555
C20 C19 1_555 1_555
H14 C20 1_555 1_555
C21 C20 1_555 1_555
H15 C21 1_555 1_555
C22 N4 1_555 1_555
H16 C22 1_555 1_555
C23 N5 1_555 1_555
H17 C23 1_555 1_555
C24 C23 1_555 1_555
H18 C24 1_555 1_555
C25 C24 1_555 1_555
C26 C25 1_555 1_555
H19 C26 1_555 1_555
C27 N5 1_555 1_555
H20 C27 1_555 1_555
C28 C25 1_555 1_555
H21 C28 1_555 1_555
C29 N6 1_555 1_555
C30 C29 1_555 1_555
C31 C30 1_555 1_555
H22 C31 1_555 1_555
C32 C31 1_555 1_555
H23 C32 1_555 1_555
C33 C29 1_555 1_555
H24 C33 1_555 1_555
Cd1A O4 1_555 1_555
Cd1_2 N4 1_555 1_555
Cd1A_2 N5A 1_555 1_555
Cd1_3 N1_2 1_555 1_555
O1A Cd1A 1_555 1_555
O2A N7A 1_555 1_555
O3A Cd1A 1_555 1_555
O4A Cd1 1_555 1_555
O5A N8A 1_555 1_555
O6A N8A 1_555 1_555
N1_2 C1_2 1_555 1_555
N1A Cd1A 1_555 1_555
N2_2 C6_2 1_555 1_555
N3_2 C12_2 1_555 1_555
N4_2 Cd1 1_555 1_555
N4A Cd1A 1_555 1_555
N5A C23A 1_555 1_555
N5A_2 Cd1A 1_555 1_555
N6A C28A 1_555 1_555
N7A O1A 1_555 1_555
N8A O4A 1_555 1_555
C1_2 H1_2 1_555 1_555
C2_2 C1_2 1_555 1_555
H2_2 C2_2 1_555 1_555
C3_2 C2_2 1_555 1_555
H3_2 C3_2 1_555 1_555
C4_2 C3_2 1_555 1_555
C5_2 N1_2 1_555 1_555
H4_2 C5_2 1_555 1_555
C6_2 C4_2 1_555 1_555
H5_2 C6_2 1_555 1_555
C7_2 N2_2 1_555 1_555
C8_2 C7_2 1_555 1_555
H6_2 C8_2 1_555 1_555
C9_2 C8_2 1_555 1_555
H7_2 C9_2 1_555 1_555
C10_2 C9_2 1_555 1_555
H8_2 C10_2 1_555 1_555
C11_2 C10_2 1_555 1_555
C12_2 C11_2 1_555 1_555
C13_2 C12_2 1_555 1_555
H9_2 C13_2 1_555 1_555
C14_2 C13_2 1_555 1_555
H10_2 C14_2 1_555 1_555
C15_2 C14_2 1_555 1_555
H11_2 C15_2 1_555 1_555
C16_2 C7_2 1_555 1_555
C17_2 N3_2 1_555 1_555
H12_2 C17_2 1_555 1_555
C18_2 C17_2 1_555 1_555
C19_2 C18_2 1_555 1_555
H13_2 C19_2 1_555 1_555
C20_2 C19_2 1_555 1_555
H14_2 C20_2 1_555 1_555
C21_2 N4_2 1_555 1_555
H15_2 C21_2 1_555 1_555
C22_2 N4_2 1_555 1_555
H16_2 C22_2 1_555 1_555
C23A H17A 1_555 1_555
C24A C23A 1_555 1_555
H18A C24A 1_555 1_555
C25A C24A 1_555 1_555
C26A C25A 1_555 1_555
H19A C26A 1_555 1_555
C27A N5A 1_555 1_555
H20A C27A 1_555 1_555
C28A C25A 1_555 1_555
H21A C28A 1_555 1_555
C29A N6A 1_555 1_555
C30A C30 1_555 1_555
C31A C30A 1_555 1_555
H22A C31A 1_555 1_555
C32A C33 1_555 1_555
H23A C32A 1_555 1_555
C33A C32 1_555 1_555
H24A C33A 1_555 1_555
C4 C5 1_555 1_555
C11 C16 1_555 1_555
C15 C16 1_555 1_555
C18 C22 1_555 1_555
C26 C27 1_555 1_555
Cd1A O4A 1_555 1_555
O3A N7A 1_555 1_555
C4_2 C5_2 1_555 1_555
C11_2 C16_2 1_555 1_555
C15_2 C16_2 1_555 1_555
C18_2 C22_2 1_555 1_555
C20_2 C21_2 1_555 1_555
C26A C27A 1_555 1_555
C29A C30A 1_555 1_555
C29A C33A 1_555 1_555
C31A C32A 1_555 1_555

#END
