
#######################################################################
#
#                 Cambridge Crystallographic Data Centre
#                                CCDC 
#
#######################################################################
#
# If this CIF has been generated from an entry in the Cambridge 
# Structural Database, then it will include bibliographic, chemical, 
# crystal, experimental, refinement or atomic coordinate data resulting 
# from the CCDC's data processing and validation procedures.
#
#######################################################################

data_IZITUG
_symmetry_cell_setting           triclinic
_symmetry_space_group_name_H-M   'P -1'
_symmetry_Int_Tables_number      2
_space_group_name_Hall           '-P 1'
loop_
_symmetry_equiv_pos_site_id
_symmetry_equiv_pos_as_xyz
1 x,y,z
2 -x,-y,-z
_cell_length_a                   8.7056(4)
_cell_length_b                   15.8466(8)
_cell_length_c                   15.9357(8)
_cell_angle_alpha                115.262(1)
_cell_angle_beta                 94.060(1)
_cell_angle_gamma                90.000(1)
_cell_volume                     1982.05
loop_
_atom_site_label
_atom_site_type_symbol
_atom_site_fract_x
_atom_site_fract_y
_atom_site_fract_z
Cu1 Cu 0.38443(3) 0.941374(17) 0.344303(17)
Cu2 Cu 0.84561(3) 0.590290(17) -0.248680(17)
V1 V 0.39193(4) 0.60780(2) 0.24871(2)
P1 P 0.59539(6) 0.76651(3) 0.22866(4)
P2 P 0.53965(6) 0.61188(4) -0.16500(4)
P3 P 1.11625(6) 0.76415(4) -0.22800(4)
P4 P 0.93842(6) 0.91725(4) 0.13880(4)
O1 O 0.54777(18) 0.85760(10) 0.30413(10)
O2 O 0.55683(17) 0.68366(10) 0.25349(10)
O3 O 0.37435(18) 0.61736(11) 0.35253(11)
O4 O 0.23551(18) 0.64416(11) 0.21390(11)
O5 O 0.57832(18) 0.51431(10) -0.16631(11)
O6 O 0.41364(18) 0.60270(11) -0.23807(11)
O7 O 0.68868(17) 0.66012(10) -0.16930(10)
O8 O 0.98860(18) 0.69119(11) -0.26432(11)
O9 O 1.27051(18) 0.72582(11) -0.27491(11)
H1 H 1.3071 0.6876 -0.2558
O10 O 1.07953(18) 0.84897(10) -0.24565(11)
O11 O 0.8267(2) 0.82975(12) 0.10240(11)
H2 H 0.8188 0.8121 0.1447
O12 O 1.00539(18) 0.94461(11) 0.23631(10)
O13 O 0.84730(19) 0.99472(11) 0.12570(11)
H3 H 0.8796 1.0471 0.1667
O14 O 0.76567(17) 0.76503(10) 0.21594(10)
O15 O 0.1986(2) 0.83935(13) 0.27118(17)
N1 N 0.4075(2) 1.01415(12) 0.26477(12)
N2 N 0.2607(2) 1.04867(12) 0.40865(12)
N3 N 0.3499(2) 0.92427(12) 0.46183(13)
N4 N -0.2610(2) 1.56409(12) 0.62434(12)
N5 N -0.05153(19) 1.47732(12) 0.67383(12)
N6 N -0.0260(2) 1.56745(12) 0.85070(12)
C1 C 0.4979(2) 0.99592(14) 0.19492(15)
H4 H 0.5699 0.9478 0.1824
C2 C 0.4906(3) 1.04449(15) 0.14004(15)
H5 H 0.5567 1.0299 0.0911
C3 C 0.3856(3) 1.11440(15) 0.15769(15)
H6 H 0.3761 1.1470 0.1196
C4 C 0.2939(2) 1.13639(15) 0.23207(15)
H7 H 0.2221 1.1848 0.2462
C5 C 0.3097(2) 1.08620(14) 0.28486(14)
C6 C 0.2349(2) 1.10989(14) 0.37214(14)
C7 C 0.2155(2) 1.06394(14) 0.49266(14)
C8 C 0.2552(2) 0.98718(14) 0.51908(14)
C9 C 0.1992(2) 0.97818(15) 0.59439(14)
H8 H 0.1346 1.0238 0.6344
C10 C 0.2401(3) 0.90083(15) 0.60978(15)
H9 H 0.2023 0.8923 0.6602
C11 C 0.3365(3) 0.83614(15) 0.55092(16)
H10 H 0.3655 0.7829 0.5604
C12 C 0.3898(3) 0.85062(15) 0.47778(16)
H11 H 0.4568 0.8068 0.4379
C13 C 0.4868(2) 0.74476(14) 0.12060(14)
H12 H 0.3804 0.7252 0.1241
H13 H 0.4809 0.8043 0.1145
C14 C 0.4686(2) 0.67757(14) -0.05295(14)
H14 H 0.3592 0.6584 -0.0569
H15 H 0.4710 0.7442 -0.0412
C15 C 0.5497(2) 0.67085(14) 0.03195(14)
H16 H 0.5314 0.6078 0.0285
H17 H 0.6621 0.6814 0.0334
C16 C -0.0156(2) 1.62211(14) 0.94243(14)
H18 H -0.0796 1.6744 0.9659
C17 C 0.0854(2) 1.60502(14) 1.00436(14)
H19 H 0.0918 1.6456 1.0689
C18 C 0.1768(2) 1.52758(15) 0.97028(15)
H20 H 0.2466 1.5144 1.0114
C19 C 0.1653(2) 1.46939(15) 0.87518(15)
H21 H 0.2264 1.4158 0.8505
C20 C 0.0627(2) 1.49140(14) 0.81739(14)
C21 C 0.0378(2) 1.43536(14) 0.71512(14)
C22 C 0.0940(2) 1.34743(14) 0.66387(14)
H22 H 0.1570 1.3174 0.6933
C23 C 0.0554(2) 1.30429(14) 0.56750(14)
C24 C 0.1190(2) 1.21194(14) 0.51022(14)
C25 C 0.1603(2) 1.19227(14) 0.42091(14)
H23 H 0.1378 1.2344 0.3939
C26 C 0.1457(2) 1.14639(14) 0.54677(14)
H24 H 0.1169 1.1581 0.6071
C27 C -0.0381(2) 1.34971(14) 0.52576(14)
H25 H -0.0642 1.3217 0.4605
C28 C -0.0921(2) 1.43698(14) 0.58215(14)
C29 C -0.1997(2) 1.49322(13) 0.55252(14)
C30 C -0.2361(2) 1.47730(14) 0.46114(14)
H26 H -0.1919 1.4275 0.4119
C31 C -0.3393(2) 1.53575(14) 0.44239(15)
H27 H -0.3652 1.5268 0.3802
C32 C -0.4031(3) 1.60679(14) 0.51585(15)
H28 H -0.4745 1.6468 0.5046
C33 C -0.3616(2) 1.61894(14) 0.60624(14)
H29 H -0.4061 1.6676 0.6565
C34 C 1.1613(2) 0.80212(15) -0.10529(14)
H30 H 1.2527 0.8452 -0.0857
H31 H 1.1898 0.7471 -0.0941
C35 C 1.0320(2) 0.85110(14) -0.04377(14)
H32 H 1.0007 0.9058 -0.0547
H33 H 0.9413 0.8078 -0.0600
C36 C 1.0869(2) 0.88298(15) 0.05930(14)
H34 H 1.1429 0.8314 0.0658
H35 H 1.1612 0.9363 0.0778
N4_2 N 0.7390(2) 0.56409(12) -0.37566(12)
N5_2 N 0.94847(19) 0.47732(12) -0.32617(12)
N6_2 N 0.9740(2) 0.56745(12) -0.14930(12)
O5A O 0.42168(18) 0.48569(10) 0.16631(11)
V1A V 0.60807(4) 0.39220(2) -0.24871(2)
Cu2_2 Cu -0.15439(3) 1.590290(17) 0.751320(17)
loop_
_geom_bond_atom_site_label_1
_geom_bond_atom_site_label_2
_geom_bond_site_symmetry_1
_geom_bond_site_symmetry_2
Cu1 O1 1_555 1_555
Cu2 O7 1_555 1_555
V1 O2 1_555 1_555
P1 O1 1_555 1_555
P2 O5 1_555 1_555
P3 O8 1_555 1_555
P4 O11 1_555 1_555
O2 P1 1_555 1_555
O3 V1 1_555 1_555
O4 V1 1_555 1_555
O5 V1A 1_555 1_555
O6 P2 1_555 1_555
O7 P2 1_555 1_555
O8 Cu2 1_555 1_555
O9 P3 1_555 1_555
H1 O9 1_555 1_555
O10 P3 1_555 1_555
O11 H2 1_555 1_555
O12 P4 1_555 1_555
O13 P4 1_555 1_555
H3 O13 1_555 1_555
O14 P1 1_555 1_555
O15 Cu1 1_555 1_555
N1 Cu1 1_555 1_555
N2 Cu1 1_555 1_555
N3 Cu1 1_555 1_555
N4 C29 1_555 1_555
N5 C21 1_555 1_555
N6 C16 1_555 1_555
C1 N1 1_555 1_555
H4 C1 1_555 1_555
C2 C1 1_555 1_555
H5 C2 1_555 1_555
C3 C2 1_555 1_555
H6 C3 1_555 1_555
C4 C3 1_555 1_555
H7 C4 1_555 1_555
C5 N1 1_555 1_555
C6 N2 1_555 1_555
C7 N2 1_555 1_555
C8 N3 1_555 1_555
C9 C8 1_555 1_555
H8 C9 1_555 1_555
C10 C9 1_555 1_555
H9 C10 1_555 1_555
C11 C10 1_555 1_555
H10 C11 1_555 1_555
C12 N3 1_555 1_555
H11 C12 1_555 1_555
C13 P1 1_555 1_555
H12 C13 1_555 1_555
H13 C13 1_555 1_555
C14 P2 1_555 1_555
H14 C14 1_555 1_555
H15 C14 1_555 1_555
C15 C13 1_555 1_555
H16 C15 1_555 1_555
H17 C15 1_555 1_555
C16 H18 1_555 1_555
C17 C16 1_555 1_555
H19 C17 1_555 1_555
C18 C17 1_555 1_555
H20 C18 1_555 1_555
C19 C18 1_555 1_555
H21 C19 1_555 1_555
C20 N6 1_555 1_555
C21 C20 1_555 1_555
C22 C21 1_555 1_555
H22 C22 1_555 1_555
C23 C22 1_555 1_555
C24 C23 1_555 1_555
C25 C6 1_555 1_555
H23 C25 1_555 1_555
C26 C7 1_555 1_555
H24 C26 1_555 1_555
C27 C23 1_555 1_555
H25 C27 1_555 1_555
C28 N5 1_555 1_555
C29 C28 1_555 1_555
C30 C29 1_555 1_555
H26 C30 1_555 1_555
C31 C30 1_555 1_555
H27 C31 1_555 1_555
C32 C31 1_555 1_555
H28 C32 1_555 1_555
C33 N4 1_555 1_555
H29 C33 1_555 1_555
C34 P3 1_555 1_555
H30 C34 1_555 1_555
H31 C34 1_555 1_555
C35 C34 1_555 1_555
H32 C35 1_555 1_555
H33 C35 1_555 1_555
C36 P4 1_555 1_555
H34 C36 1_555 1_555
H35 C36 1_555 1_555
N4_2 Cu2 1_555 1_555
N5_2 Cu2 1_555 1_555
N6_2 Cu2 1_555 1_555
O5A V1 1_555 1_555
Cu2_2 N4 1_555 1_555
N5 Cu2_2 1_555 1_555
N6 Cu2_2 1_555 1_555
C4 C5 1_555 1_555
C5 C6 1_555 1_555
C7 C8 1_555 1_555
C11 C12 1_555 1_555
C14 C15 1_555 1_555
C19 C20 1_555 1_555
C24 C26 1_555 1_555
C24 C25 1_555 1_555
C27 C28 1_555 1_555
C32 C33 1_555 1_555
C35 C36 1_555 1_555

#END
