
#######################################################################
#
#                 Cambridge Crystallographic Data Centre
#                                CCDC 
#
#######################################################################
#
# If this CIF has been generated from an entry in the Cambridge 
# Structural Database, then it will include bibliographic, chemical, 
# crystal, experimental, refinement or atomic coordinate data resulting 
# from the CCDC's data processing and validation procedures.
#
#######################################################################

data_IZITOA
_symmetry_cell_setting           triclinic
_symmetry_space_group_name_H-M   'P -1'
_symmetry_Int_Tables_number      2
_space_group_name_Hall           '-P 1'
loop_
_symmetry_equiv_pos_site_id
_symmetry_equiv_pos_as_xyz
1 x,y,z
2 -x,-y,-z
_cell_length_a                   9.4256(5)
_cell_length_b                   11.3275(6)
_cell_length_c                   11.4321(6)
_cell_angle_alpha                80.291(1)
_cell_angle_beta                 82.879(1)
_cell_angle_gamma                73.855(1)
_cell_volume                     1151.82
loop_
_atom_site_label
_atom_site_type_symbol
_atom_site_fract_x
_atom_site_fract_y
_atom_site_fract_z
Cu1 Cu 0.56978(4) 0.30988(3) 0.11295(3)
V1 V 1.05822(6) 0.08899(5) 0.74476(4)
V2 V 1.39562(5) -0.16018(5) 0.59547(4)
P1 P 0.88077(8) 0.16414(7) 0.20721(7)
P2 P 1.29559(8) 0.13853(7) 0.52540(7)
O1 O 1.3371(2) 0.00342(19) 0.50305(18)
O2 O 1.2106(2) 0.1551(2) 0.64768(19)
O3 O 1.4309(2) 0.18902(19) 0.51929(18)
O4 O 0.5171(2) 0.1961(2) 0.28165(19)
O5 O 0.7789(2) 0.2623(2) 0.12695(18)
O6 O 0.9843(2) 0.0567(2) 0.14601(19)
O7 O 0.8006(2) 0.08672(19) 0.30593(19)
O8 O 0.9178(2) 0.1368(2) 0.6660(2)
O9 O 1.0325(3) 0.1812(2) 0.8450(2)
O10 O 1.3352(2) -0.2751(2) 0.57556(19)
N1 N 0.5147(3) 0.4670(2) 0.1903(2)
N2 N 0.3693(3) 0.3791(2) 0.0687(2)
N3 N 0.5637(3) 0.1973(2) -0.0054(2)
C1 C 0.5988(3) 0.5031(3) 0.2566(3)
H1 H 0.6977 0.4591 0.2610
C2 C 0.5442(4) 0.6027(3) 0.3183(3)
H2 H 0.6048 0.6245 0.3645
C3 C 0.3980(4) 0.6701(3) 0.3105(3)
H3 H 0.3595 0.7387 0.3504
C4 C 0.3092(4) 0.6338(3) 0.2423(3)
H4 H 0.2105 0.6776 0.2359
C5 C 0.3704(3) 0.5319(3) 0.1848(3)
C6 C 0.2870(3) 0.4826(3) 0.1111(3)
C7 C 0.1413(3) 0.5341(3) 0.0846(3)
H5 H 0.0856 0.6066 0.1132
C8 C 0.0790(3) 0.4747(3) 0.0138(3)
C9 C 0.1685(3) 0.3667(3) -0.0302(3)
H6 H 0.1300 0.3254 -0.0772
C10 C 0.3150(3) 0.3230(3) -0.0022(3)
C11 C 0.4288(3) 0.2175(3) -0.0469(3)
C12 C 0.4050(3) 0.1487(3) -0.1280(3)
H7 H 0.3114 0.1634 -0.1545
C13 C 0.5234(4) 0.0572(3) -0.1693(3)
H8 H 0.5102 0.0100 -0.2242
C14 C 0.6609(4) 0.0373(3) -0.1279(3)
H9 H 0.7412 -0.0237 -0.1545
C15 C 0.6780(3) 0.1089(3) -0.0465(3)
H10 H 0.7709 0.0957 -0.0194
C16 C 1.1821(3) 0.2272(3) 0.4097(3)
H11 H 1.2458 0.2461 0.3397
H12 H 1.1254 0.3053 0.4355
C17 C 1.0748(3) 0.1616(3) 0.3752(3)
H13 H 1.1299 0.0816 0.3528
H14 H 1.0059 0.1476 0.4431
C18 C 0.9890(3) 0.2401(3) 0.2712(3)
H15 H 1.0590 0.2658 0.2094
H16 H 0.9236 0.3145 0.2986
C8A C -0.0790(3) 0.5253(3) -0.0138(3)
C7A C -0.1413(3) 0.4659(3) -0.0846(3)
C6A C -0.2870(3) 0.5174(3) -0.1111(3)
N2A N -0.3693(3) 0.6209(2) -0.0687(2)
C10A C -0.3150(3) 0.6770(3) 0.0022(3)
C9A C -0.1685(3) 0.6333(3) 0.0302(3)
H6A H -0.1300 0.6746 0.0772
C11A C -0.4288(3) 0.7825(3) 0.0469(3)
N3A N -0.5637(3) 0.8027(2) 0.0054(2)
C15A C -0.6780(3) 0.8911(3) 0.0465(3)
C14A C -0.6609(4) 0.9627(3) 0.1279(3)
C13A C -0.5234(4) 0.9428(3) 0.1693(3)
C12A C -0.4050(3) 0.8513(3) 0.1280(3)
H7A H -0.3114 0.8366 0.1545
H8A H -0.5102 0.9900 0.2242
H9A H -0.7412 1.0237 0.1545
H10A H -0.7709 0.9043 0.0194
C5A C -0.3704(3) 0.4681(3) -0.1848(3)
N1A N -0.5147(3) 0.5330(2) -0.1903(2)
C1A C -0.5988(3) 0.4969(3) -0.2566(3)
H1A H -0.6977 0.5409 -0.2610
C2A C -0.5442(4) 0.3973(3) -0.3183(3)
H2A H -0.6048 0.3755 -0.3645
C3A C -0.3980(4) 0.3299(3) -0.3105(3)
H3A H -0.3595 0.2613 -0.3504
C4A C -0.3092(4) 0.3662(3) -0.2423(3)
H4A H -0.2105 0.3224 -0.2359
H5A H -0.0856 0.3934 -0.1132
Cu1A Cu -0.56978(4) 0.69012(3) -0.11295(3)
V1A V 0.94178(6) -0.08899(5) 0.25524(4)
V2A V 1.60438(5) 0.16018(5) 0.40453(4)
P1A P 1.11923(8) -0.16414(7) 0.79279(7)
P2A P 0.70441(8) -0.13853(7) 0.47460(7)
O1A O 0.6629(2) -0.00342(19) 0.49695(18)
O2A O 0.7894(2) -0.1551(2) 0.35232(19)
O3A O 0.5691(2) -0.18902(19) 0.48071(18)
O5A O 1.2211(2) -0.2623(2) 0.87305(18)
O6A O 1.0157(2) -0.0567(2) 0.85399(19)
O7A O 1.1994(2) -0.08672(19) 0.69407(19)
C16A C 0.8179(3) -0.2272(3) 0.5903(3)
H11A H 0.7542 -0.2461 0.6603
H12A H 0.8746 -0.3053 0.5645
C17A C 0.9252(3) -0.1616(3) 0.6248(3)
H13A H 0.8701 -0.0816 0.6472
H14A H 0.9941 -0.1476 0.5569
C18A C 1.0110(3) -0.2401(3) 0.7288(3)
H15A H 0.9410 -0.2658 0.7906
H16A H 1.0764 -0.3145 0.7014
O4A O 1.4829(2) -0.1961(2) 0.71835(19)
O8A O 1.0822(2) -0.1368(2) 0.3340(2)
O9A O 0.9675(3) -0.1812(2) 0.1550(2)
O10A O 1.6648(2) 0.2751(2) 0.42444(19)
O3A_2 O 1.5691(2) -0.18902(19) 0.48071(18)
V2A_2 V 0.60438(5) 0.16018(5) 0.40453(4)
O4A_2 O -0.5171(2) 0.8039(2) -0.28165(19)
O5A_2 O -0.7789(2) 0.7377(2) -0.12695(18)
O1A_2 O 1.6629(2) -0.00342(19) 0.49695(18)
O4_2 O 1.5171(2) 0.1961(2) 0.28165(19)
O7_2 O 1.8006(2) 0.08672(19) 0.30593(19)
V2_2 V 0.39562(5) -0.16018(5) 0.59547(4)
Cu1A_2 Cu 1.43022(4) -0.30988(3) 0.88705(3)
O11 O 0.8338(5) 0.4343(4) 0.4900(4)
O12 O 0.9659(5) 0.5857(4) 0.3325(4)
loop_
_geom_bond_atom_site_label_1
_geom_bond_atom_site_label_2
_geom_bond_site_symmetry_1
_geom_bond_site_symmetry_2
Cu1 O4 1_555 1_555
V1 O2 1_555 1_555
V2 O1 1_555 1_555
P1 O5 1_555 1_555
P2 O1 1_555 1_555
O2 P2 1_555 1_555
O3 P2 1_555 1_555
O4 V2A_2 1_555 1_555
O5 Cu1 1_555 1_555
O6 P1 1_555 1_555
O7 P1 1_555 1_555
O8 V1 1_555 1_555
O9 V1 1_555 1_555
O10 V2 1_555 1_555
N1 Cu1 1_555 1_555
N2 Cu1 1_555 1_555
N3 Cu1 1_555 1_555
C1 N1 1_555 1_555
H1 C1 1_555 1_555
C2 C1 1_555 1_555
H2 C2 1_555 1_555
C3 C2 1_555 1_555
H3 C3 1_555 1_555
C4 C3 1_555 1_555
H4 C4 1_555 1_555
C5 N1 1_555 1_555
C6 N2 1_555 1_555
C7 C6 1_555 1_555
H5 C7 1_555 1_555
C8 C7 1_555 1_555
C9 C8 1_555 1_555
H6 C9 1_555 1_555
C10 N2 1_555 1_555
C11 N3 1_555 1_555
C12 C11 1_555 1_555
H7 C12 1_555 1_555
C13 C12 1_555 1_555
H8 C13 1_555 1_555
C14 C13 1_555 1_555
H9 C14 1_555 1_555
C15 N3 1_555 1_555
H10 C15 1_555 1_555
C16 P2 1_555 1_555
H11 C16 1_555 1_555
H12 C16 1_555 1_555
C17 C16 1_555 1_555
H13 C17 1_555 1_555
H14 C17 1_555 1_555
C18 P1 1_555 1_555
H15 C18 1_555 1_555
H16 C18 1_555 1_555
C8A C8 1_555 1_555
C7A C8A 1_555 1_555
C6A C7A 1_555 1_555
N2A C6A 1_555 1_555
C10A N2A 1_555 1_555
C9A C8A 1_555 1_555
H6A C9A 1_555 1_555
C11A C10A 1_555 1_555
N3A C11A 1_555 1_555
C15A N3A 1_555 1_555
C14A C15A 1_555 1_555
C13A C14A 1_555 1_555
C12A C11A 1_555 1_555
H7A C12A 1_555 1_555
H8A C13A 1_555 1_555
H9A C14A 1_555 1_555
H10A C15A 1_555 1_555
C5A C6A 1_555 1_555
N1A C5A 1_555 1_555
C1A N1A 1_555 1_555
H1A C1A 1_555 1_555
C2A C1A 1_555 1_555
H2A C2A 1_555 1_555
C3A C2A 1_555 1_555
H3A C3A 1_555 1_555
C4A C5A 1_555 1_555
H4A C4A 1_555 1_555
H5A C7A 1_555 1_555
Cu1A N2A 1_555 1_555
V1A O6 1_555 1_555
V2A O3 1_555 1_555
P1A O5A 1_555 1_555
P2A O1A 1_555 1_555
O1A V2A_2 1_555 1_555
O2A V1A 1_555 1_555
O3A P2A 1_555 1_555
O5A Cu1A_2 1_555 1_555
O6A V1 1_555 1_555
O7A V1 1_555 1_555
C16A P2A 1_555 1_555
H11A C16A 1_555 1_555
H12A C16A 1_555 1_555
C17A C16A 1_555 1_555
H13A C17A 1_555 1_555
H14A C17A 1_555 1_555
C18A P1A 1_555 1_555
H15A C18A 1_555 1_555
H16A C18A 1_555 1_555
O4A V2 1_555 1_555
O8A V1A 1_555 1_555
O9A V1A 1_555 1_555
O10A V2A 1_555 1_555
O3A_2 V2 1_555 1_555
V2A_2 O7 1_555 1_555
O4A_2 Cu1A 1_555 1_555
O5A_2 Cu1A 1_555 1_555
O1A_2 V2A 1_555 1_555
O4_2 V2A 1_555 1_555
O7_2 V2A 1_555 1_555
V2_2 O3A 1_555 1_555
Cu1A_2 O4A 1_555 1_555
V2 O7A 1_555 1_555
O7 V1A 1_555 1_555
C4 C5 1_555 1_555
C5 C6 1_555 1_555
C9 C10 1_555 1_555
C10 C11 1_555 1_555
C14 C15 1_555 1_555
C17 C18 1_555 1_555
C10A C9A 1_555 1_555
N3A Cu1A 1_555 1_555
C13A C12A 1_555 1_555
N1A Cu1A 1_555 1_555
C3A C4A 1_555 1_555
P1A O6A 1_555 1_555
P1A O7A 1_555 1_555
P2A O2A 1_555 1_555
C17A C18A 1_555 1_555

#END
