
#######################################################################
#
#                 Cambridge Crystallographic Data Centre
#                                CCDC 
#
#######################################################################
#
# If this CIF has been generated from an entry in the Cambridge 
# Structural Database, then it will include bibliographic, chemical, 
# crystal, experimental, refinement or atomic coordinate data resulting 
# from the CCDC's data processing and validation procedures.
#
#######################################################################

data_IZITER
_symmetry_cell_setting           monoclinic
_symmetry_space_group_name_H-M   'P 21/c'
_symmetry_Int_Tables_number      14
_space_group_name_Hall           '-P 2ybc'
loop_
_symmetry_equiv_pos_site_id
_symmetry_equiv_pos_as_xyz
1 x,y,z
2 -x,1/2+y,1/2-z
3 -x,-y,-z
4 x,1/2-y,1/2+z
_cell_length_a                   13.0529(19)
_cell_length_b                   13.822(2)
_cell_length_c                   11.5345(18)
_cell_angle_alpha                90
_cell_angle_beta                 100.298(2)
_cell_angle_gamma                90
_cell_volume                     2047.5
loop_
_atom_site_label
_atom_site_type_symbol
_atom_site_fract_x
_atom_site_fract_y
_atom_site_fract_z
C1 C 0.6472(4) 0.8445(4) 0.8649(4)
C2 C 0.7213(4) 0.8337(4) 0.7958(4)
H1 H 0.7272 0.8804 0.7393
C3 C 0.7879(4) 0.7545(3) 0.8079(4)
H2 H 0.8388 0.7500 0.7611
C4 C 0.7794(4) 0.6828(3) 0.8885(4)
C5 C 0.7043(4) 0.6926(4) 0.9581(4)
H3 H 0.6978 0.6451 1.0135
C6 C 0.6389(4) 0.7713(4) 0.9469(4)
H4 H 0.5885 0.7761 0.9943
C7 C 0.5727(4) 0.9273(4) 0.8527(4)
C8 C 0.6012(4) 1.0236(4) 0.8371(4)
C9 C 0.5250(6) 1.0942(4) 0.8170(5)
H5 H 0.5434 1.1576 0.8031
C10 C 0.4213(6) 1.0718(6) 0.8173(6)
H6 H 0.3710 1.1203 0.8058
C11 C 0.3941(5) 0.9806(6) 0.8341(5)
H7 H 0.3248 0.9659 0.8352
C12 C 0.4679(5) 0.9074(4) 0.8499(5)
H8 H 0.4469 0.8439 0.8588
C13 C 0.7105(5) 1.0593(4) 0.8475(5)
C14 C 0.8517(5) 0.5963(4) 0.8970(4)
H9 H 0.8153 0.5420 0.8551
H10 H 0.9109 0.6117 0.8600
C15 C 0.8688(4) 0.4872(4) 1.0792(5)
C16 C 0.9605(4) 0.5817(4) 1.2062(5)
C17 C 0.9486(4) 0.6279(4) 1.1016(5)
H11 H 0.9758 0.6880 1.0869
C18 C 0.8038(4) 0.4049(3) 1.0238(5)
H12 H 0.8186 0.3485 1.0739
H13 H 0.8239 0.3900 0.9488
C19 C 0.6864(5) 0.4241(4) 1.0031(5)
H14 H 0.6673 0.4494 1.0747
H15 H 0.6689 0.4725 0.9418
C20 C 0.6250(6) 0.3324(6) 0.9670(7)
H16 H 0.6392 0.3104 0.8925
H17 H 0.5520 0.3455 0.9601
H18 H 0.6451 0.2833 1.0255
C21 C 1.0119(5) 0.6149(4) 1.3252(6)
N1 N 0.8890(3) 0.5691(3) 1.0217(4)
N2 N 0.9108(3) 0.4934(3) 1.1910(4)
O1 O 0.7847(3) 1.0168(2) 0.9179(3)
O2 O 0.7298(3) 1.1300(3) 0.7884(4)
O3 O 1.0081(3) 0.5530(3) 1.4081(3)
O4 O 1.0500(3) 0.6965(3) 1.3410(4)
Pb1 Pb 0.930210(18) 0.396140(15) 1.38002(2)
O1C O 0.7847(3) 0.4832(2) 1.4179(3)
O2C O 0.7298(3) 0.3700(3) 1.2884(4)
O3B O 0.9919(3) 0.4470(3) 1.5919(3)
Pb1C Pb 0.930210(18) 1.103860(15) 0.88002(2)
Pb1B Pb 1.069790(18) 0.603860(15) 1.61998(2)
O5 O 1.1537(3) 1.1125(3) 0.8995(4)
H19 H 1.1914 1.0889 0.9610
H20 H 1.1810 1.1174 0.8449
O6 O 0.7799(13) 0.3188(11) 0.7487(15)
H21 H 0.8201 0.3040 0.7169
H22 H 0.7766 0.2864 0.7952
loop_
_geom_bond_atom_site_label_1
_geom_bond_atom_site_label_2
_geom_bond_site_symmetry_1
_geom_bond_site_symmetry_2
C1 C2 1_555 1_555
C2 H1 1_555 1_555
C3 C2 1_555 1_555
H2 C3 1_555 1_555
C4 C3 1_555 1_555
C5 C4 1_555 1_555
H3 C5 1_555 1_555
C6 C1 1_555 1_555
H4 C6 1_555 1_555
C7 C1 1_555 1_555
C8 C7 1_555 1_555
C9 C8 1_555 1_555
H5 C9 1_555 1_555
C10 C9 1_555 1_555
H6 C10 1_555 1_555
C11 C10 1_555 1_555
H7 C11 1_555 1_555
C12 C7 1_555 1_555
H8 C12 1_555 1_555
C13 C8 1_555 1_555
C14 C4 1_555 1_555
H9 C14 1_555 1_555
H10 C14 1_555 1_555
C15 C18 1_555 1_555
C16 C17 1_555 1_555
C17 H11 1_555 1_555
C18 H12 1_555 1_555
H13 C18 1_555 1_555
C19 C18 1_555 1_555
H14 C19 1_555 1_555
H15 C19 1_555 1_555
C20 C19 1_555 1_555
H16 C20 1_555 1_555
H17 C20 1_555 1_555
H18 C20 1_555 1_555
C21 C16 1_555 1_555
N1 C14 1_555 1_555
N2 C15 1_555 1_555
O1 C13 1_555 1_555
O2 C13 1_555 1_555
O3 C21 1_555 1_555
O4 C21 1_555 1_555
O5 H19 1_555 1_555
H20 O5 1_555 1_555
Pb1 N2 1_555 1_555
O6 H21 1_555 1_555
H22 O6 1_555 1_555
O1C Pb1 1_555 1_555
O2C Pb1 1_555 1_555
O3B Pb1 1_555 1_555
Pb1C O1 1_555 1_555
Pb1B O3 1_555 1_555
C5 C6 1_555 1_555
C11 C12 1_555 1_555
C15 N1 1_555 1_555
C16 N2 1_555 1_555
C17 N1 1_555 1_555
O2 Pb1C 1_555 1_555
O3 Pb1 1_555 1_555
O3B Pb1B 1_555 1_555

#END
