
#######################################################################
#
#                 Cambridge Crystallographic Data Centre
#                                CCDC 
#
#######################################################################
#
# If this CIF has been generated from an entry in the Cambridge 
# Structural Database, then it will include bibliographic, chemical, 
# crystal, experimental, refinement or atomic coordinate data resulting 
# from the CCDC's data processing and validation procedures.
#
#######################################################################

data_IZITIU
_symmetry_cell_setting           triclinic
_symmetry_space_group_name_H-M   'P -1'
_symmetry_Int_Tables_number      2
_space_group_name_Hall           '-P 1'
loop_
_symmetry_equiv_pos_site_id
_symmetry_equiv_pos_as_xyz
1 x,y,z
2 -x,-y,-z
_cell_length_a                   10.3815(4)
_cell_length_b                   12.0768(5)
_cell_length_c                   18.0377(7)
_cell_angle_alpha                73.765(1)
_cell_angle_beta                 74.301(1)
_cell_angle_gamma                74.770(1)
_cell_volume                     2047.06
loop_
_atom_site_label
_atom_site_type_symbol
_atom_site_fract_x
_atom_site_fract_y
_atom_site_fract_z
Cu1 Cu 0.28825(3) 0.75503(3) 1.149393(19)
Cu2 Cu 1.20165(3) 0.25636(3) 1.359810(19)
V1 V 0.10863(5) 0.68885(4) 0.93119(3)
V2 V 0.40106(5) 1.30625(4) 0.57734(3)
P1 P 0.02863(7) 0.81962(6) 1.07587(4)
P2 P 0.08484(7) 0.88671(6) 0.76379(4)
P3 P 0.38065(7) 1.10863(6) 0.73666(4)
P4 P 1.48994(7) 0.18331(6) 1.42674(4)
O1 O -0.07988(19) 0.75491(17) 1.12914(11)
O2 O 0.12479(18) 0.84279(17) 1.11740(11)
O3 O 0.1177(2) 0.75509(18) 1.00993(12)
O4 O 0.2284(2) 0.57261(18) 0.93037(12)
O5 O -0.0353(2) 0.64917(19) 0.94989(13)
O6 O 0.1361(2) 0.79616(18) 0.83460(12)
O7 O -0.06596(19) 0.91689(17) 0.77181(12)
O8 O 0.15327(19) 0.83969(18) 0.68761(11)
H1 H 0.2384 0.8315 0.6797
O9 O 0.3243(2) 1.15952(18) 0.81215(11)
H2 H 0.2386 1.1771 0.8206
O10 O 0.53202(19) 1.07211(18) 0.72362(12)
O11 O 0.3276(2) 1.19858(17) 0.66604(11)
O12 O 0.5040(2) 1.36607(19) 0.59865(12)
O13 O 0.2765(2) 1.40903(18) 0.55037(12)
O14 O 1.49757(19) 0.23322(17) 1.49605(11)
O15 O 1.59005(19) 0.22647(17) 1.35317(11)
O16 O 1.34445(19) 0.21073(18) 1.41703(11)
O17 O 0.2789(2) 0.88780(19) 1.21223(13)
O18 O 1.2259(2) 0.08797(19) 1.32881(13)
N1 N 0.2058(2) 0.6479(2) 1.25139(13)
N2 N 0.4528(2) 0.65539(19) 1.17957(13)
N3 N 0.4314(2) 0.8053(2) 1.05049(13)
N4 N 1.0503(2) 0.2299(2) 1.45924(13)
N5 N 1.0404(2) 0.34112(19) 1.31739(13)
N6 N 1.2900(2) 0.3307(2) 1.24578(13)
C1 C 0.0731(3) 0.6539(2) 1.28588(16)
H3 H 0.0061 0.7018 1.2571
C2 C 0.0310(3) 0.5919(3) 1.36244(17)
H4 H -0.0635 0.5968 1.3856
C3 C 0.1281(3) 0.5230(3) 1.40450(16)
H5 H 0.1008 0.4804 1.4571
C4 C 0.2648(3) 0.5164(2) 1.36988(16)
H6 H 0.3329 0.4701 1.3983
C5 C 0.3009(3) 0.5783(2) 1.29317(16)
C6 C 0.4427(3) 0.5791(2) 1.24950(16)
C7 C 0.5586(3) 0.5111(2) 1.27537(16)
H7 H 0.5514 0.4536 1.3238
C8 C 0.6868(3) 0.5283(2) 1.22900(15)
C9 C 0.8112(3) 0.4644(2) 1.25944(16)
C10 C 0.6941(3) 0.6074(2) 1.15604(16)
H8 H 0.7800 0.6189 1.1230
C11 C 0.5740(3) 0.6689(2) 1.13238(16)
C12 C 0.5623(3) 0.7566(2) 1.05804(15)
C13 C 0.6729(3) 0.7859(3) 1.00007(16)
H9 H 0.7633 0.7505 1.0072
C14 C 0.6509(3) 0.8679(3) 0.93099(17)
H10 H 0.7256 0.8886 0.8898
C15 C 0.5176(3) 0.9186(3) 0.92351(17)
H11 H 0.4994 0.9761 0.8774
C16 C 0.4119(3) 0.8846(3) 0.98375(17)
H12 H 0.3208 0.9190 0.9777
C17 C 1.0639(3) 0.1615(3) 1.53079(16)
H13 H 1.1531 0.1268 1.5401
C18 C 0.9528(3) 0.1400(3) 1.59111(17)
H14 H 0.9657 0.0890 1.6404
C19 C 0.8225(3) 0.1931(3) 1.57934(17)
H15 H 0.7449 0.1806 1.6206
C20 C 0.8071(3) 0.2649(3) 1.50641(16)
H16 H 0.7188 0.3030 1.4969
C21 C 0.9224(3) 0.2803(2) 1.44758(16)
C22 C 0.9180(3) 0.3477(2) 1.36632(15)
C23 C 0.8015(3) 0.4115(2) 1.33944(16)
H17 H 0.7154 0.4192 1.3753
C24 C 0.9411(3) 0.4569(2) 1.20950(16)
H18 H 0.9514 0.4933 1.1548
C25 C 1.0546(3) 0.3954(2) 1.24103(15)
C26 C 1.1985(3) 0.3858(2) 1.19869(16)
C27 C 1.2386(3) 0.4316(3) 1.11848(16)
H19 H 1.1726 0.4694 1.0869
C28 C 1.3773(3) 0.4211(3) 1.08523(17)
H20 H 1.4079 0.4511 1.0303
C29 C 1.4703(3) 0.3665(3) 1.13303(17)
H21 H 1.5655 0.3602 1.1115
C30 C 1.4234(3) 0.3211(2) 1.21270(17)
H22 H 1.4880 0.2818 1.2449
C31 C -0.0510(3) 0.9619(2) 1.02546(16)
H23 H -0.1050 0.9506 0.9916
H24 H -0.1149 1.0039 1.0652
C32 C 0.1528(3) 1.0130(2) 0.75415(17)
H25 H 0.1373 1.0700 0.7044
H26 H 0.1026 1.0515 0.7984
C33 C 0.3052(3) 0.9837(2) 0.75384(16)
H27 H 0.3540 0.9390 0.7125
H28 H 0.3193 0.9316 0.8054
C34 C 1.5421(3) 0.0262(2) 1.46042(16)
H29 H 1.5365 -0.0127 1.4201
H30 H 1.6389 0.0082 1.4646
H31 H 0.216(4) 0.937(3) 1.214(2)
H32 H 0.337(4) 0.891(3) 1.235(2)
H33 H 1.174(3) 0.088(3) 1.302(2)
H34 H 1.298(3) 0.047(3) 1.3150(19)
C31A C 0.0510(3) 1.0381(2) 0.97454(16)
P1A P -0.02863(7) 1.18038(6) 0.92413(4)
O1A O 0.07988(19) 1.24509(17) 0.87086(11)
O2A O -0.12479(18) 1.15721(17) 0.88260(11)
O3A O -0.1177(2) 1.24491(18) 0.99007(12)
H23A H 0.1050 1.0494 1.0084
H24A H 0.1149 0.9961 0.9348
C34A C 1.4579(3) -0.0262(2) 1.53958(16)
P4A P 1.51006(7) -0.18331(6) 1.57326(4)
O14A O 1.50243(19) -0.23322(17) 1.50395(11)
O15A O 1.40995(19) -0.22647(17) 1.64683(11)
O16A O 1.65555(19) -0.21073(18) 1.58297(11)
H29A H 1.4635 0.0127 1.5799
H30A H 1.3611 -0.0082 1.5354
Cu1A Cu -0.28825(3) 1.24497(3) 0.850607(19)
V1A V -0.10863(5) 1.31115(4) 1.06881(3)
O17A O -0.2789(2) 1.11220(19) 0.78777(13)
H31A H -0.216(4) 1.063(3) 0.786(2)
H32A H -0.337(4) 1.109(3) 0.765(2)
N1A N -0.2058(2) 1.3521(2) 0.74861(13)
N2A N -0.4528(2) 1.34461(19) 0.82043(13)
N3A N -0.4314(2) 1.1947(2) 0.94951(13)
N4A N -1.0503(2) 1.7701(2) 0.54076(13)
N5A N -1.0404(2) 1.65888(19) 0.68261(13)
N6A N -1.2900(2) 1.6693(2) 0.75422(13)
C1A C -0.0731(3) 1.3461(2) 0.71412(16)
H3A H -0.0061 1.2982 0.7429
C2A C -0.0310(3) 1.4081(3) 0.63756(17)
H4A H 0.0635 1.4032 0.6144
C3A C -0.1281(3) 1.4770(3) 0.59550(16)
H5A H -0.1008 1.5196 0.5429
C4A C -0.2648(3) 1.4836(2) 0.63012(16)
H6A H -0.3329 1.5299 0.6017
C5A C -0.3009(3) 1.4217(2) 0.70683(16)
C6A C -0.4427(3) 1.4209(2) 0.75050(16)
C7A C -0.5586(3) 1.4889(2) 0.72463(16)
H7A H -0.5514 1.5464 0.6762
C8A C -0.6868(3) 1.4717(2) 0.77100(15)
C9A C -0.8112(3) 1.5356(2) 0.74056(16)
C10A C -0.6941(3) 1.3926(2) 0.84396(16)
H8A H -0.7800 1.3811 0.8770
C11A C -0.5740(3) 1.3311(2) 0.86762(16)
C12A C -0.5623(3) 1.2434(2) 0.94196(15)
C13A C -0.6729(3) 1.2141(3) 0.99993(16)
H9A H -0.7633 1.2495 0.9928
C14A C -0.6509(3) 1.1321(3) 1.06901(17)
H10A H -0.7256 1.1114 1.1102
C15A C -0.5176(3) 1.0814(3) 1.07649(17)
H11A H -0.4994 1.0239 1.1226
C16A C -0.4119(3) 1.1154(3) 1.01625(17)
H12A H -0.3208 1.0810 1.0223
C17A C -1.0639(3) 1.8385(3) 0.46921(16)
H13A H -1.1531 1.8732 0.4599
C18A C -0.9528(3) 1.8600(3) 0.40889(17)
H14A H -0.9657 1.9110 0.3596
C19A C -0.8225(3) 1.8069(3) 0.42066(17)
H15A H -0.7449 1.8194 0.3794
C20A C -0.8071(3) 1.7351(3) 0.49359(16)
H16A H -0.7188 1.6970 0.5031
C21A C -0.9224(3) 1.7197(2) 0.55242(16)
C22A C -0.9180(3) 1.6523(2) 0.63368(15)
C23A C -0.8015(3) 1.5885(2) 0.66056(16)
H17A H -0.7154 1.5808 0.6247
C24A C -0.9411(3) 1.5431(2) 0.79050(16)
H18A H -0.9514 1.5067 0.8452
C25A C -1.0546(3) 1.6046(2) 0.75897(15)
C26A C -1.1985(3) 1.6142(2) 0.80131(16)
C27A C -1.2386(3) 1.5684(3) 0.88152(16)
H19A H -1.1726 1.5306 0.9131
C28A C -1.3773(3) 1.5789(3) 0.91477(17)
H20A H -1.4079 1.5489 0.9697
C29A C -1.4703(3) 1.6335(3) 0.86697(17)
H21A H -1.5655 1.6398 0.8885
C30A C -1.4234(3) 1.6789(2) 0.78730(17)
H22A H -1.4880 1.7182 0.7551
O4A O -0.2284(2) 1.42739(18) 1.06963(12)
O5A O 0.0353(2) 1.35083(19) 1.05011(13)
P2A P -0.08484(7) 1.11329(6) 1.23621(4)
P3A P -0.38065(7) 0.89137(6) 1.26334(4)
O6A O -0.1361(2) 1.20384(18) 1.16540(12)
O7A O 0.06596(19) 1.08311(17) 1.22819(12)
O8A O -0.15327(19) 1.16031(18) 1.31239(11)
H1A H -0.2384 1.1685 1.3203
O9A O -0.3243(2) 0.84048(18) 1.18785(11)
H2A H -0.2386 0.8229 1.1794
O10A O -0.53202(19) 0.92789(18) 1.27638(12)
O11A O -0.3276(2) 0.80142(17) 1.33396(11)
C32A C -0.1528(3) 0.9870(2) 1.24585(17)
H25A H -0.1373 0.9300 1.2956
H26A H -0.1026 0.9485 1.2016
C33A C -0.3052(3) 1.0163(2) 1.24616(16)
H27A H -0.3540 1.0610 1.2875
H28A H -0.3193 1.0684 1.1946
Cu2A Cu 1.79835(3) -0.25636(3) 1.640190(19)
V2A V -0.40106(5) 0.69375(4) 1.42266(3)
O18A O 1.7741(2) -0.08797(19) 1.67119(13)
H33A H 1.826(3) -0.088(3) 1.698(2)
H34A H 1.702(3) -0.047(3) 1.6850(19)
O12A O -0.5040(2) 0.63393(19) 1.40135(12)
O13A O -0.2765(2) 0.59097(18) 1.44963(12)
O14_2 O 0.49757(19) 1.23322(17) 0.49605(11)
V2_2 V 1.40106(5) 0.30625(4) 1.57734(3)
V2A_2 V 1.59894(5) -0.30625(4) 1.42266(3)
Cu2A_2 Cu -1.20165(3) 1.74364(3) 0.640190(19)
N4A_2 N 1.9497(2) -0.2299(2) 1.54076(13)
N5A_2 N 1.9596(2) -0.34112(19) 1.68261(13)
N6A_2 N 1.7100(2) -0.3307(2) 1.75422(13)
O14A_2 O -0.49757(19) 0.76678(17) 1.50395(11)
loop_
_geom_bond_atom_site_label_1
_geom_bond_atom_site_label_2
_geom_bond_site_symmetry_1
_geom_bond_site_symmetry_2
Cu1 O2 1_555 1_555
Cu2 O16 1_555 1_555
V1 O3 1_555 1_555
V2 O11 1_555 1_555
P1 O1 1_555 1_555
P2 O6 1_555 1_555
P3 O9 1_555 1_555
P4 O14 1_555 1_555
O2 P1 1_555 1_555
O3 P1 1_555 1_555
O4 V1 1_555 1_555
O5 V1 1_555 1_555
O6 V1 1_555 1_555
O7 P2 1_555 1_555
O8 P2 1_555 1_555
H1 O8 1_555 1_555
O9 H2 1_555 1_555
O10 P3 1_555 1_555
O11 P3 1_555 1_555
O12 V2 1_555 1_555
O13 V2 1_555 1_555
O14 V2_2 1_555 1_555
O15 P4 1_555 1_555
O16 P4 1_555 1_555
O17 Cu1 1_555 1_555
O18 Cu2 1_555 1_555
N1 Cu1 1_555 1_555
N2 Cu1 1_555 1_555
N3 Cu1 1_555 1_555
N4 Cu2 1_555 1_555
N5 Cu2 1_555 1_555
N6 Cu2 1_555 1_555
C1 N1 1_555 1_555
H3 C1 1_555 1_555
C2 C1 1_555 1_555
H4 C2 1_555 1_555
C3 C2 1_555 1_555
H5 C3 1_555 1_555
C4 C3 1_555 1_555
H6 C4 1_555 1_555
C5 N1 1_555 1_555
C6 N2 1_555 1_555
C7 C6 1_555 1_555
H7 C7 1_555 1_555
C8 C7 1_555 1_555
C9 C8 1_555 1_555
C10 C8 1_555 1_555
H8 C10 1_555 1_555
C11 N2 1_555 1_555
C12 N3 1_555 1_555
C13 C12 1_555 1_555
H9 C13 1_555 1_555
C14 C13 1_555 1_555
H10 C14 1_555 1_555
C15 C14 1_555 1_555
H11 C15 1_555 1_555
C16 N3 1_555 1_555
H12 C16 1_555 1_555
C17 N4 1_555 1_555
H13 C17 1_555 1_555
C18 C17 1_555 1_555
H14 C18 1_555 1_555
C19 C18 1_555 1_555
H15 C19 1_555 1_555
C20 C19 1_555 1_555
H16 C20 1_555 1_555
C21 N4 1_555 1_555
C22 N5 1_555 1_555
C23 C9 1_555 1_555
H17 C23 1_555 1_555
C24 C9 1_555 1_555
H18 C24 1_555 1_555
C25 N5 1_555 1_555
C26 N6 1_555 1_555
C27 C26 1_555 1_555
H19 C27 1_555 1_555
C28 C27 1_555 1_555
H20 C28 1_555 1_555
C29 C28 1_555 1_555
H21 C29 1_555 1_555
C30 N6 1_555 1_555
H22 C30 1_555 1_555
C31 P1 1_555 1_555
H23 C31 1_555 1_555
H24 C31 1_555 1_555
C32 P2 1_555 1_555
H25 C32 1_555 1_555
H26 C32 1_555 1_555
C33 P3 1_555 1_555
H27 C33 1_555 1_555
H28 C33 1_555 1_555
C34 P4 1_555 1_555
H29 C34 1_555 1_555
H30 C34 1_555 1_555
H31 O17 1_555 1_555
H32 O17 1_555 1_555
H33 O18 1_555 1_555
H34 O18 1_555 1_555
C31A C31 1_555 1_555
P1A C31A 1_555 1_555
O1A P1A 1_555 1_555
O2A P1A 1_555 1_555
O3A P1A 1_555 1_555
H23A C31A 1_555 1_555
H24A C31A 1_555 1_555
C34A C34 1_555 1_555
P4A C34A 1_555 1_555
O14A P4A 1_555 1_555
O15A P4A 1_555 1_555
O16A P4A 1_555 1_555
H29A C34A 1_555 1_555
H30A C34A 1_555 1_555
Cu1A O2A 1_555 1_555
V1A O3A 1_555 1_555
O17A Cu1A 1_555 1_555
H31A O17A 1_555 1_555
H32A O17A 1_555 1_555
N1A Cu1A 1_555 1_555
N2A Cu1A 1_555 1_555
N3A Cu1A 1_555 1_555
N4A C17A 1_555 1_555
N5A C22A 1_555 1_555
N6A C26A 1_555 1_555
C1A N1A 1_555 1_555
H3A C1A 1_555 1_555
C2A C1A 1_555 1_555
H4A C2A 1_555 1_555
C3A C2A 1_555 1_555
H5A C3A 1_555 1_555
C4A C3A 1_555 1_555
H6A C4A 1_555 1_555
C5A N1A 1_555 1_555
C6A N2A 1_555 1_555
C7A C6A 1_555 1_555
H7A C7A 1_555 1_555
C8A C7A 1_555 1_555
C9A C8A 1_555 1_555
C10A C8A 1_555 1_555
H8A C10A 1_555 1_555
C11A N2A 1_555 1_555
C12A N3A 1_555 1_555
C13A C12A 1_555 1_555
H9A C13A 1_555 1_555
C14A C13A 1_555 1_555
H10A C14A 1_555 1_555
C15A C14A 1_555 1_555
H11A C15A 1_555 1_555
C16A N3A 1_555 1_555
H12A C16A 1_555 1_555
C17A H13A 1_555 1_555
C18A C17A 1_555 1_555
H14A C18A 1_555 1_555
C19A C18A 1_555 1_555
H15A C19A 1_555 1_555
C20A C19A 1_555 1_555
H16A C20A 1_555 1_555
C21A N4A 1_555 1_555
C22A C21A 1_555 1_555
C23A C9A 1_555 1_555
H17A C23A 1_555 1_555
C24A C9A 1_555 1_555
H18A C24A 1_555 1_555
C25A N5A 1_555 1_555
C26A C25A 1_555 1_555
C27A C26A 1_555 1_555
H19A C27A 1_555 1_555
C28A C27A 1_555 1_555
H20A C28A 1_555 1_555
C29A C28A 1_555 1_555
H21A C29A 1_555 1_555
C30A N6A 1_555 1_555
H22A C30A 1_555 1_555
O4A V1A 1_555 1_555
O5A V1A 1_555 1_555
P2A O6A 1_555 1_555
P3A O9A 1_555 1_555
O6A V1A 1_555 1_555
O7A P2A 1_555 1_555
O8A P2A 1_555 1_555
H1A O8A 1_555 1_555
O9A H2A 1_555 1_555
O10A P3A 1_555 1_555
O11A P3A 1_555 1_555
C32A P2A 1_555 1_555
H25A C32A 1_555 1_555
H26A C32A 1_555 1_555
C33A P3A 1_555 1_555
H27A C33A 1_555 1_555
H28A C33A 1_555 1_555
Cu2A O16A 1_555 1_555
V2A O11A 1_555 1_555
O18A Cu2A 1_555 1_555
H33A O18A 1_555 1_555
H34A O18A 1_555 1_555
O12A V2A 1_555 1_555
O13A V2A 1_555 1_555
O14_2 V2 1_555 1_555
V2A_2 O14A 1_555 1_555
Cu2A_2 N4A 1_555 1_555
N4A_2 Cu2A 1_555 1_555
N5A_2 Cu2A 1_555 1_555
N6A_2 Cu2A 1_555 1_555
O14A_2 V2A 1_555 1_555
C4 C5 1_555 1_555
C5 C6 1_555 1_555
C10 C11 1_555 1_555
C11 C12 1_555 1_555
C15 C16 1_555 1_555
C20 C21 1_555 1_555
C21 C22 1_555 1_555
C22 C23 1_555 1_555
C24 C25 1_555 1_555
C25 C26 1_555 1_555
C29 C30 1_555 1_555
C32 C33 1_555 1_555
N5A Cu2A_2 1_555 1_555
N6A Cu2A_2 1_555 1_555
C4A C5A 1_555 1_555
C5A C6A 1_555 1_555
C10A C11A 1_555 1_555
C11A C12A 1_555 1_555
C15A C16A 1_555 1_555
C20A C21A 1_555 1_555
C22A C23A 1_555 1_555
C24A C25A 1_555 1_555
C29A C30A 1_555 1_555
C32A C33A 1_555 1_555

#END
