
#######################################################################
#
#                 Cambridge Crystallographic Data Centre
#                                CCDC 
#
#######################################################################
#
# If this CIF has been generated from an entry in the Cambridge 
# Structural Database, then it will include bibliographic, chemical, 
# crystal, experimental, refinement or atomic coordinate data resulting 
# from the CCDC's data processing and validation procedures.
#
#######################################################################

data_IZIVIW
_symmetry_cell_setting           triclinic
_symmetry_space_group_name_H-M   'P -1'
_symmetry_Int_Tables_number      2
_space_group_name_Hall           '-P 1'
loop_
_symmetry_equiv_pos_site_id
_symmetry_equiv_pos_as_xyz
1 x,y,z
2 -x,-y,-z
_cell_length_a                   9.0548(5)
_cell_length_b                   15.4425(8)
_cell_length_c                   17.3746(9)
_cell_angle_alpha                96.1160(1)
_cell_angle_beta                 98.6860(1)
_cell_angle_gamma                95.3960(1)
_cell_volume                     2372.9
loop_
_atom_site_label
_atom_site_type_symbol
_atom_site_fract_x
_atom_site_fract_y
_atom_site_fract_z
Cu1 Cu 0.09406(4) 0.63743(2) 0.463401(18)
Cu2 Cu 0.41692(4) 0.35005(2) 0.997704(19)
V1 V 0.42749(5) 0.78575(3) 0.43077(3)
V2 V 0.11908(5) 0.27159(3) 1.11666(3)
P1 P 0.09773(8) 0.73581(5) 0.31847(4)
P2 P -0.35567(8) 1.20635(5) 0.42332(4)
P3 P 0.48185(8) 0.29284(4) 1.16232(4)
P4 P 0.91535(8) -0.21913(5) 1.03708(4)
O1 O 0.0131(2) 0.68123(12) 0.36915(11)
O2 O 0.0606(2) 0.68986(13) 0.23267(11)
H1 H 0.0176 0.7233 0.2037
O3 O 0.2675(2) 0.74155(13) 0.34248(11)
O4 O 0.5494(2) 0.71848(15) 0.41357(12)
O5 O 0.4757(3) 0.87759(14) 0.39828(13)
O6 O -0.4973(2) 1.16937(13) 0.45413(11)
O7 O -0.3792(2) 1.26805(13) 0.36340(12)
O8 O -0.2640(2) 1.24958(12) 0.50432(11)
O9 O 0.5377(2) 0.32989(13) 1.09279(11)
O10 O 0.5945(2) 0.33706(13) 1.23636(11)
H2 H 0.5982 0.3035 1.2714
O11 O 0.3240(2) 0.31352(12) 1.17217(11)
O12 O 0.0369(2) 0.35101(13) 1.15632(11)
O13 O 0.0886(2) 0.18513(13) 1.15953(12)
O14 O 1.0307(2) -0.24112(13) 0.98275(11)
O15 O 0.9312(2) -0.25632(14) 1.11373(11)
O16 O 0.7678(2) -0.25727(12) 0.97975(11)
N1 N 0.2127(3) 0.54199(15) 0.42116(13)
N2 N 0.1360(3) 0.57690(14) 0.55479(13)
N3 N -0.0321(3) 0.69831(15) 0.53491(13)
N4 N 0.5037(3) 0.26768(15) 0.92114(13)
N5 N 0.3414(3) 0.39137(15) 0.89964(13)
N6 N 0.3339(3) 0.46295(15) 1.03813(13)
C1 C 0.2396(3) 0.52475(19) 0.34744(16)
H3 H 0.2010 0.5599 0.3091
C2 C 0.3212(4) 0.45798(19) 0.32536(17)
H4 H 0.3364 0.4467 0.2725
C3 C 0.3806(3) 0.40770(19) 0.38096(17)
H5 H 0.4393 0.3624 0.3671
C4 C 0.3535(3) 0.42414(18) 0.45765(16)
H6 H 0.3933 0.3905 0.4970
C5 C 0.2670(3) 0.49071(17) 0.47529(15)
C6 C 0.2223(3) 0.51149(17) 0.55318(15)
C7 C 0.2596(3) 0.46911(17) 0.61872(15)
H7 H 0.3210 0.4225 0.6169
C8 C 0.2051(3) 0.49624(17) 0.68764(15)
C9 C 0.1133(3) 0.56456(18) 0.68758(15)
H8 H 0.0721 0.5829 0.7330
C10 C 0.0836(3) 0.60487(17) 0.61997(15)
C11 C -0.0066(3) 0.67870(18) 0.61007(16)
C12 C -0.0582(3) 0.72702(19) 0.67005(17)
H9 H -0.0383 0.7132 0.7223
C13 C -0.1399(3) 0.7964(2) 0.65253(17)
H10 H -0.1769 0.8305 0.6927
C14 C -0.1666(3) 0.81530(19) 0.57563(17)
H11 H -0.2221 0.8624 0.5624
C15 C -0.1110(3) 0.76417(18) 0.51855(16)
H12 H -0.1300 0.7767 0.4658
C16 C 0.5943(3) 0.20705(19) 0.93918(16)
H13 H 0.6276 0.2022 0.9929
C17 C 0.6421(3) 0.15068(19) 0.88241(17)
H14 H 0.7051 0.1073 0.8970
C18 C 0.5958(3) 0.15921(19) 0.80406(17)
H15 H 0.6269 0.1216 0.7641
C19 C 0.5035(3) 0.22325(18) 0.78448(16)
H16 H 0.4710 0.2302 0.7311
C20 C 0.4595(3) 0.27685(18) 0.84441(15)
C21 C 0.3682(3) 0.35011(17) 0.83191(15)
C22 C 0.3214(3) 0.38065(17) 0.76102(15)
H17 H 0.3392 0.3505 0.7133
C23 C 0.2476(3) 0.45659(17) 0.76047(15)
C24 C 0.2220(3) 0.49830(18) 0.83255(15)
H18 H 0.1728 0.5500 0.8344
C25 C 0.2695(3) 0.46296(17) 0.90038(15)
C26 C 0.2567(3) 0.50143(18) 0.98057(15)
C27 C 0.1784(3) 0.57219(18) 0.99674(16)
H19 H 0.1261 0.5987 0.9555
C28 C 0.1779(3) 0.60347(19) 1.07432(17)
H20 H 0.1220 0.6506 1.0870
C29 C 0.2591(3) 0.56582(19) 1.13310(16)
H21 H 0.2622 0.5877 1.1866
C30 C 0.3358(3) 0.49591(18) 1.11299(16)
H22 H 0.3918 0.4702 1.1536
C31 C 0.0384(3) 0.84364(18) 0.32285(16)
H23 H 0.0773 0.8753 0.3757
H24 H 0.0843 0.8757 0.2844
C32 C -0.1322(3) 0.84557(18) 0.30622(17)
H25 H -0.1794 0.8054 0.3386
H26 H -0.1687 0.8227 0.2505
C33 C -0.1856(3) 0.93638(19) 0.32249(17)
H27 H -0.1471 0.9753 0.2865
H28 H -0.2968 0.9305 0.3110
C34 C -0.1339(4) 0.97911(19) 0.40723(17)
H29 H -0.1292 0.9324 0.4421
H30 H -0.0309 1.0090 0.4116
C35 C -0.2623(3) 1.11764(19) 0.38442(16)
H31 H -0.1643 1.1425 0.3730
H32 H -0.3232 1.0906 0.3339
C36 C -0.2341(3) 1.04538(18) 0.43655(17)
H33 H -0.1870 1.0728 0.4898
H34 H -0.3321 1.0137 0.4410
C37 C 0.4888(3) 0.17767(18) 1.15615(17)
H35 H 0.4513 0.1561 1.2021
H36 H 0.4202 0.1493 1.1085
C38 C 0.6463(3) 0.14953(18) 1.15328(17)
H37 H 0.6949 0.1824 1.1162
H38 H 0.7086 0.1642 1.2059
C39 C 0.6396(3) 0.05177(19) 1.12772(18)
H39 H 0.6101 0.0194 1.1703
H40 H 0.5606 0.0354 1.0811
C40 C 0.7868(3) 0.02331(18) 1.10805(18)
H41 H 0.8149 0.0539 1.0642
H42 H 0.8667 0.0410 1.1541
C41 C 0.9168(3) -0.10253(18) 1.05400(17)
H43 H 0.9236 -0.0778 1.0042
H44 H 1.0074 -0.0778 1.0921
C42 C 0.7776(3) -0.07448(18) 1.08526(18)
H45 H 0.7643 -0.1046 1.1317
H46 H 0.6881 -0.0934 1.0446
O8A O 0.2640(2) 0.75042(12) 0.49568(11)
O16A O 0.2322(2) 0.25727(12) 1.02025(11)
O6A O 0.4973(2) 0.83063(13) 0.54587(11)
O14A O -0.0307(2) 0.24112(13) 1.01725(11)
V1A V -0.42749(5) 1.21425(3) 0.56923(3)
Cu1A Cu -0.09406(4) 1.36257(2) 0.536599(18)
V2A V 0.88092(5) -0.27159(3) 0.88334(3)
Cu2A Cu 0.58308(4) -0.35005(2) 1.002296(19)
O17 O 0.3463(3) 0.02475(16) 0.35261(15)
O18 O 0.1974(3) 0.01471(17) 0.19550(16)
loop_
_geom_bond_atom_site_label_1
_geom_bond_atom_site_label_2
_geom_bond_site_symmetry_1
_geom_bond_site_symmetry_2
Cu1 O1 1_555 1_555
Cu2 O9 1_555 1_555
V1 O3 1_555 1_555
V2 O11 1_555 1_555
P1 O1 1_555 1_555
P2 O6 1_555 1_555
P3 O9 1_555 1_555
P4 O14 1_555 1_555
O2 P1 1_555 1_555
H1 O2 1_555 1_555
O3 P1 1_555 1_555
O4 V1 1_555 1_555
O5 V1 1_555 1_555
O6 V1A 1_555 1_555
O7 P2 1_555 1_555
O8 P2 1_555 1_555
O10 P3 1_555 1_555
H2 O10 1_555 1_555
O11 P3 1_555 1_555
O12 V2 1_555 1_555
O13 V2 1_555 1_555
O14 V2A 1_555 1_555
O15 P4 1_555 1_555
O16 P4 1_555 1_555
N1 Cu1 1_555 1_555
N2 Cu1 1_555 1_555
N3 Cu1 1_555 1_555
N4 Cu2 1_555 1_555
N5 Cu2 1_555 1_555
N6 Cu2 1_555 1_555
C1 N1 1_555 1_555
H3 C1 1_555 1_555
C2 C1 1_555 1_555
H4 C2 1_555 1_555
C3 C2 1_555 1_555
H5 C3 1_555 1_555
C4 C3 1_555 1_555
H6 C4 1_555 1_555
C5 N1 1_555 1_555
C6 N2 1_555 1_555
C7 C6 1_555 1_555
H7 C7 1_555 1_555
C8 C7 1_555 1_555
C9 C8 1_555 1_555
H8 C9 1_555 1_555
C10 N2 1_555 1_555
C11 N3 1_555 1_555
C12 C11 1_555 1_555
H9 C12 1_555 1_555
C13 C12 1_555 1_555
H10 C13 1_555 1_555
C14 C13 1_555 1_555
H11 C14 1_555 1_555
C15 N3 1_555 1_555
H12 C15 1_555 1_555
C16 N4 1_555 1_555
H13 C16 1_555 1_555
C17 C16 1_555 1_555
H14 C17 1_555 1_555
C18 C17 1_555 1_555
H15 C18 1_555 1_555
C19 C18 1_555 1_555
H16 C19 1_555 1_555
C20 N4 1_555 1_555
C21 N5 1_555 1_555
C22 C21 1_555 1_555
H17 C22 1_555 1_555
C23 C8 1_555 1_555
C24 C23 1_555 1_555
H18 C24 1_555 1_555
C25 N5 1_555 1_555
C26 N6 1_555 1_555
C27 C26 1_555 1_555
H19 C27 1_555 1_555
C28 C27 1_555 1_555
H20 C28 1_555 1_555
C29 C28 1_555 1_555
H21 C29 1_555 1_555
C30 N6 1_555 1_555
H22 C30 1_555 1_555
C31 P1 1_555 1_555
H23 C31 1_555 1_555
H24 C31 1_555 1_555
C32 C31 1_555 1_555
H25 C32 1_555 1_555
H26 C32 1_555 1_555
C33 C32 1_555 1_555
H27 C33 1_555 1_555
H28 C33 1_555 1_555
C34 C33 1_555 1_555
H29 C34 1_555 1_555
H30 C34 1_555 1_555
C35 P2 1_555 1_555
H31 C35 1_555 1_555
H32 C35 1_555 1_555
C36 C34 1_555 1_555
H33 C36 1_555 1_555
H34 C36 1_555 1_555
C37 P3 1_555 1_555
H35 C37 1_555 1_555
H36 C37 1_555 1_555
C38 C37 1_555 1_555
H37 C38 1_555 1_555
H38 C38 1_555 1_555
C39 C38 1_555 1_555
H39 C39 1_555 1_555
H40 C39 1_555 1_555
C40 C39 1_555 1_555
H41 C40 1_555 1_555
H42 C40 1_555 1_555
C41 P4 1_555 1_555
H43 C41 1_555 1_555
H44 C41 1_555 1_555
C42 C40 1_555 1_555
H45 C42 1_555 1_555
H46 C42 1_555 1_555
O8A Cu1 1_555 1_555
O16A Cu2 1_555 1_555
O6A V1 1_555 1_555
O14A V2 1_555 1_555
V1A O8 1_555 1_555
Cu1A O8 1_555 1_555
V2A O16 1_555 1_555
Cu2A O16 1_555 1_555
V1 O8A 1_555 1_555
V2 O16A 1_555 1_555
C4 C5 1_555 1_555
C5 C6 1_555 1_555
C9 C10 1_555 1_555
C10 C11 1_555 1_555
C14 C15 1_555 1_555
C19 C20 1_555 1_555
C20 C21 1_555 1_555
C22 C23 1_555 1_555
C24 C25 1_555 1_555
C25 C26 1_555 1_555
C29 C30 1_555 1_555
C35 C36 1_555 1_555
C41 C42 1_555 1_555

#END
