
#######################################################################
#
#                 Cambridge Crystallographic Data Centre
#                                CCDC 
#
#######################################################################
#
# If this CIF has been generated from an entry in the Cambridge 
# Structural Database, then it will include bibliographic, chemical, 
# crystal, experimental, refinement or atomic coordinate data resulting 
# from the CCDC's data processing and validation procedures.
#
#######################################################################

data_IZIVUI
_symmetry_cell_setting           triclinic
_symmetry_space_group_name_H-M   'P -1'
_symmetry_Int_Tables_number      2
_space_group_name_Hall           '-P 1'
loop_
_symmetry_equiv_pos_site_id
_symmetry_equiv_pos_as_xyz
1 x,y,z
2 -x,-y,-z
_cell_length_a                   14.442(2)
_cell_length_b                   15.449(2)
_cell_length_c                   16.392(2)
_cell_angle_alpha                76.905(2)
_cell_angle_beta                 69.370(2)
_cell_angle_gamma                79.148(2)
_cell_volume                     3310.09
loop_
_atom_site_label
_atom_site_type_symbol
_atom_site_fract_x
_atom_site_fract_y
_atom_site_fract_z
Ru1 Ru 0.78519(5) 0.74765(5) 0.53325(4)
N1 N 0.9138(10) 0.8897(7) 0.5328(7)
N2 N 0.6596(8) 0.7462(7) 0.7364(6)
N3 N 0.6270(10) 0.9028(7) 0.4894(9)
N4 N 0.9103(11) 0.7563(10) 0.3289(7)
N5 N 0.8787(5) 0.6349(5) 0.5687(5)
N6 N 0.7136(5) 0.6413(4) 0.5320(4)
C1 C 0.8639(9) 0.8380(7) 0.5341(6)
C2 C 0.7086(8) 0.7465(6) 0.6633(6)
C3 C 0.6874(9) 0.8448(7) 0.5048(7)
C4 C 0.8630(9) 0.7521(8) 0.4022(7)
C5 C 0.9604(7) 0.6362(9) 0.5907(7)
H25 H 0.9818 0.6922 0.5860
C6 C 1.0134(8) 0.5587(11) 0.6195(8)
H26 H 1.0700 0.5620 0.6351
C7 C 0.9853(7) 0.4773(9) 0.6259(7)
H27 H 1.0221 0.4236 0.6451
C8 C 0.9015(6) 0.4746(7) 0.6038(6)
H28 H 0.8795 0.4190 0.6084
C9 C 0.8507(6) 0.5542(6) 0.5750(5)
C10 C 0.7604(6) 0.5582(5) 0.5498(5)
C11 C 0.7259(6) 0.4816(5) 0.5454(5)
H29 H 0.7614 0.4242 0.5563
C12 C 0.6390(7) 0.4904(6) 0.5249(6)
H30 H 0.6134 0.4394 0.5215
C13 C 0.5901(7) 0.5763(7) 0.5092(6)
H31 H 0.5300 0.5845 0.4956
C14 C 0.6290(6) 0.6485(6) 0.5136(6)
H32 H 0.5944 0.7065 0.5030
Ru2 Ru 0.93028(5) 0.27373(4) 0.16989(4)
Ru3 Ru 0.49925(5) -0.24345(4) 0.25229(4)
Yb1 Yb 1.14132(3) -0.04131(2) 0.25821(3)
Yb2 Yb 0.63108(3) 0.06823(3) 0.23555(3)
N7 N 0.7595(6) 0.1589(5) 0.2014(6)
N8 N 0.8432(6) 0.2862(7) 0.3759(6)
N9 N 1.0365(7) 0.2360(6) -0.0264(6)
N10 N 1.0616(6) 0.1004(5) 0.2252(6)
N11 N 0.8546(5) 0.3979(4) 0.1269(4)
N12 N 1.0292(5) 0.3661(5) 0.1534(5)
N13 N 0.5978(7) -0.0762(6) 0.2456(7)
N14 N 1.2987(6) -0.1251(5) 0.2488(5)
N15 N 0.4136(6) -0.2570(6) 0.4618(5)
N16 N 0.5937(7) -0.2255(7) 0.0431(6)
N17 N 0.6190(5) -0.3404(5) 0.2677(5)
N18 N 0.4484(5) -0.3635(4) 0.2537(4)
O1 O 0.5589(15) 0.0511(7) 0.3804(7)
H1 H 0.4960 0.0520 0.4031
H2 H 0.5947 0.0437 0.4135
O2 O 0.4625(12) 0.0788(11) 0.2427(11)
H3 H 0.4443 0.1074 0.1990
H4 H 0.4203 0.0540 0.2889
O3 O 0.6003(15) 0.1506(13) 0.1018(13)
H5 H 0.5425 0.1588 0.0969
H6 H 0.6485 0.1725 0.0595
O4 O 0.5522(5) 0.2101(5) 0.2646(5)
H7 H 0.5822 0.2534 0.2625
H8 H 0.4906 0.2229 0.2919
O5 O 0.7470(6) 0.0245(6) 0.1094(5)
H9 H 0.7279 0.0136 0.0696
H10 H 0.8088 0.0193 0.1025
O6 O 0.7520(7) -0.0209(7) 0.2899(7)
H11 H 0.7365 -0.0678 0.3279
H12 H 0.8106 -0.0065 0.2733
O7 O 0.9675(14) -0.0459(13) 0.3107(12)
H13 H 0.9269 -0.0098 0.3427
H14 H 0.9458 -0.0836 0.2936
O8 O 1.0942(9) -0.0458(6) 0.4079(6)
H15 H 1.0989 -0.0884 0.4499
H16 H 1.0841 0.0030 0.4272
O9 O 1.2340(6) 0.0506(6) 0.2892(6)
H17 H 1.2039 0.0905 0.3208
H18 H 1.2973 0.0438 0.2690
O10 O 1.2511(6) 0.0144(6) 0.1222(5)
H19 H 1.2914 0.0495 0.1192
H20 H 1.2508 -0.0002 0.0754
O11 O 1.1297(13) -0.0938(12) 0.1452(12)
H21 H 1.0890 -0.0647 0.1190
H22 H 1.1288 -0.1492 0.1476
O12 O 1.1099(5) -0.1883(4) 0.3239(4)
H23 H 1.1330 -0.2155 0.3651
H24 H 1.0754 -0.2146 0.3065
C15 C 0.8251(6) 0.1996(5) 0.1880(6)
C16 C 0.8725(6) 0.2850(6) 0.3009(6)
C17 C 0.9953(6) 0.2532(5) 0.0436(6)
C18 C 1.0117(6) 0.1651(6) 0.2061(6)
C19 C 0.7675(6) 0.4083(6) 0.1112(6)
H33 H 0.7351 0.3568 0.1217
C20 C 0.7228(7) 0.4907(6) 0.0804(6)
H34 H 0.6614 0.4955 0.0696
C21 C 0.7693(8) 0.5654(6) 0.0657(6)
H35 H 0.7406 0.6228 0.0444
C22 C 0.8584(8) 0.5558(6) 0.0824(6)
H36 H 0.8906 0.6069 0.0740
C23 C 0.9011(7) 0.4706(5) 0.1119(5)
C24 C 0.9956(7) 0.4543(6) 0.1298(5)
C25 C 1.0515(8) 0.5221(7) 0.1234(6)
H37 H 1.0279 0.5831 0.1078
C26 C 1.1405(9) 0.4994(8) 0.1401(7)
H38 H 1.1793 0.5448 0.1352
C27 C 1.1737(8) 0.4107(8) 0.1639(7)
H39 H 1.2351 0.3940 0.1757
C28 C 1.1157(7) 0.3472(7) 0.1700(6)
H40 H 1.1382 0.2862 0.1872
C29 C 0.5619(7) -0.1384(6) 0.2473(6)
C30 C 1.3746(7) -0.1662(6) 0.2467(6)
C31 C 0.4445(6) -0.2536(5) 0.3865(6)
C32 C 0.5584(7) -0.2315(6) 0.1184(6)
C33 C 0.7037(6) -0.3243(6) 0.2766(6)
H41 H 0.7143 -0.2641 0.2707
C34 C 0.7744(7) -0.3913(7) 0.2939(7)
H42 H 0.8345 -0.3778 0.2968
C35 C 0.7565(7) -0.4799(7) 0.3071(7)
H43 H 0.8031 -0.5276 0.3219
C36 C 0.6704(6) -0.4976(6) 0.2983(6)
H44 H 0.6573 -0.5576 0.3066
C37 C 0.6041(6) -0.4270(5) 0.2774(5)
C38 C 0.5126(6) -0.4399(5) 0.2626(5)
C39 C 0.4922(7) -0.5221(6) 0.2574(6)
H45 H 0.5365 -0.5746 0.2661
C40 C 0.4075(8) -0.5272(7) 0.2395(7)
H46 H 0.3937 -0.5828 0.2337
C41 C 0.3425(7) -0.4500(7) 0.2301(6)
H47 H 0.2832 -0.4524 0.2185
C42 C 0.3647(6) -0.3696(6) 0.2377(6)
H48 H 0.3196 -0.3171 0.2314
C30_2 C 0.3746(7) -0.1662(6) 0.2467(6)
Ru3_2 Ru 1.49925(5) -0.24345(4) 0.25229(4)
O13 O 0.4516(19) 0.0228(17) 0.0843(17)
O14 O 0.9524(9) 0.0383(8) 0.0763(8)
O15 O 0.8187(8) 0.0734(8) 0.3935(7)
O16 O 0.6281(5) 0.2853(4) 0.3541(4)
O17 O 0.7708(5) 0.8725(4) 0.0310(4)
O18 O 0.336(3) 0.837(2) 0.049(2)
O19 O 0.2025(5) 0.7311(4) 0.4407(4)
O20 O 0.3320(8) 0.9491(7) 0.4181(7)
O21 O 0.4177(16) 0.5800(15) 0.9922(14)
O23 O 0.5518(11) 0.7065(10) 0.9185(10)
O24 O 0.6449(15) 0.8295(14) 0.8593(13)
O25 O 0.8615(18) 0.3084(17) 0.7924(16)
O26 O 0.9680(16) 0.2362(15) 0.8418(14)
O22? O 0.3934(15) 0.6911(14) 0.9226(13)
loop_
_geom_bond_atom_site_label_1
_geom_bond_atom_site_label_2
_geom_bond_site_symmetry_1
_geom_bond_site_symmetry_2
Ru1 N5 1_555 1_555
Ru2 N11 1_555 1_555
Ru3 N17 1_555 1_555
Yb1 N10 1_555 1_555
Yb2 N7 1_555 1_555
N1 C1 1_555 1_555
N2 C2 1_555 1_555
N3 C3 1_555 1_555
N4 C4 1_555 1_555
N5 C5 1_555 1_555
N6 Ru1 1_555 1_555
N7 C15 1_555 1_555
N8 C16 1_555 1_555
N9 C17 1_555 1_555
N10 C18 1_555 1_555
N11 C19 1_555 1_555
N12 Ru2 1_555 1_555
N13 Yb2 1_555 1_555
N14 Yb1 1_555 1_555
N15 C31 1_555 1_555
N16 C32 1_555 1_555
N17 C33 1_555 1_555
N18 Ru3 1_555 1_555
O1 Yb2 1_555 1_555
H1 O1 1_555 1_555
H2 O1 1_555 1_555
O2 Yb2 1_555 1_555
H3 O2 1_555 1_555
H4 O2 1_555 1_555
O3 Yb2 1_555 1_555
H5 O3 1_555 1_555
H6 O3 1_555 1_555
O4 Yb2 1_555 1_555
H7 O4 1_555 1_555
H8 O4 1_555 1_555
O5 Yb2 1_555 1_555
H9 O5 1_555 1_555
H10 O5 1_555 1_555
O6 Yb2 1_555 1_555
H11 O6 1_555 1_555
H12 O6 1_555 1_555
O7 Yb1 1_555 1_555
H13 O7 1_555 1_555
H14 O7 1_555 1_555
O8 Yb1 1_555 1_555
H15 O8 1_555 1_555
H16 O8 1_555 1_555
O9 Yb1 1_555 1_555
H17 O9 1_555 1_555
H18 O9 1_555 1_555
O10 Yb1 1_555 1_555
H19 O10 1_555 1_555
H20 O10 1_555 1_555
O11 Yb1 1_555 1_555
H21 O11 1_555 1_555
H22 O11 1_555 1_555
O12 Yb1 1_555 1_555
H23 O12 1_555 1_555
H24 O12 1_555 1_555
C1 Ru1 1_555 1_555
C2 Ru1 1_555 1_555
C3 Ru1 1_555 1_555
C4 Ru1 1_555 1_555
C5 H25 1_555 1_555
C6 C5 1_555 1_555
H26 C6 1_555 1_555
C7 C6 1_555 1_555
H27 C7 1_555 1_555
C8 C7 1_555 1_555
H28 C8 1_555 1_555
C9 N5 1_555 1_555
C10 N6 1_555 1_555
C11 C10 1_555 1_555
H29 C11 1_555 1_555
C12 C11 1_555 1_555
H30 C12 1_555 1_555
C13 C12 1_555 1_555
H31 C13 1_555 1_555
C14 N6 1_555 1_555
H32 C14 1_555 1_555
C15 Ru2 1_555 1_555
C16 Ru2 1_555 1_555
C17 Ru2 1_555 1_555
C18 Ru2 1_555 1_555
C19 H33 1_555 1_555
C20 C19 1_555 1_555
H34 C20 1_555 1_555
C21 C20 1_555 1_555
H35 C21 1_555 1_555
C22 C21 1_555 1_555
H36 C22 1_555 1_555
C23 N11 1_555 1_555
C24 N12 1_555 1_555
C25 C24 1_555 1_555
H37 C25 1_555 1_555
C26 C25 1_555 1_555
H38 C26 1_555 1_555
C27 C26 1_555 1_555
H39 C27 1_555 1_555
C28 N12 1_555 1_555
H40 C28 1_555 1_555
C29 Ru3 1_555 1_555
C30 N14 1_555 1_555
C31 Ru3 1_555 1_555
C32 Ru3 1_555 1_555
C33 H41 1_555 1_555
C34 C33 1_555 1_555
H42 C34 1_555 1_555
C35 C34 1_555 1_555
H43 C35 1_555 1_555
C36 C35 1_555 1_555
H44 C36 1_555 1_555
C37 N17 1_555 1_555
C38 N18 1_555 1_555
C39 C38 1_555 1_555
H45 C39 1_555 1_555
C40 C39 1_555 1_555
H46 C40 1_555 1_555
C41 C40 1_555 1_555
H47 C41 1_555 1_555
C42 N18 1_555 1_555
H48 C42 1_555 1_555
C30_2 Ru3 1_555 1_555
Ru3_2 C30 1_555 1_555
N13 C29 1_555 1_555
C8 C9 1_555 1_555
C9 C10 1_555 1_555
C13 C14 1_555 1_555
C22 C23 1_555 1_555
C23 C24 1_555 1_555
C27 C28 1_555 1_555
C36 C37 1_555 1_555
C37 C38 1_555 1_555
C41 C42 1_555 1_555

#END
