
#######################################################################
#
#                 Cambridge Crystallographic Data Centre
#                                CCDC 
#
#######################################################################
#
# If this CIF has been generated from an entry in the Cambridge 
# Structural Database, then it will include bibliographic, chemical, 
# crystal, experimental, refinement or atomic coordinate data resulting 
# from the CCDC's data processing and validation procedures.
#
#######################################################################

data_IZOGEK
_symmetry_cell_setting           monoclinic
_symmetry_space_group_name_H-M   'C 2/c'
_symmetry_Int_Tables_number      15
_space_group_name_Hall           '-C 2yn'
loop_
_symmetry_equiv_pos_site_id
_symmetry_equiv_pos_as_xyz
1 x,y,z
2 -x,y,1/2-z
3 1/2+x,1/2+y,z
4 1/2-x,1/2+y,1/2-z
5 -x,-y,-z
6 x,-y,1/2+z
7 1/2-x,1/2-y,-z
8 1/2+x,1/2-y,1/2+z
_cell_length_a                   8.7137(2)
_cell_length_b                   24.5784(4)
_cell_length_c                   10.3873(2)
_cell_angle_alpha                90
_cell_angle_beta                 107.9380(10)
_cell_angle_gamma                90
_cell_volume                     2116.5
loop_
_atom_site_label
_atom_site_type_symbol
_atom_site_fract_x
_atom_site_fract_y
_atom_site_fract_z
Mn1 Mn 0.5000 0.128372(8) 0.2500
S1 S 0.5000 0.115942(14) 0.7500
O1 O 0.45233(11) 0.06553(3) 0.38119(8)
O2 O 0.48547(12) 0.14551(4) 0.48184(8)
N1 N 0.5000 0.21868(5) 0.2500
N2 N 0.24248(10) 0.15665(3) 0.16842(9)
N3 N 0.5000 0.50700(6) 0.2500
C1 C 0.46358(12) 0.09535(4) 0.48312(10)
C2 C 0.45174(13) 0.06780(4) 0.61089(10)
H1 H 0.5275 0.0367 0.6341
H2 H 0.3411 0.0536 0.5951
C3 C 0.36034(11) 0.24593(4) 0.20387(9)
C4 C 0.21408(11) 0.21083(4) 0.15563(9)
C5 C 0.05858(12) 0.23179(4) 0.10197(10)
H3 H 0.0410 0.2699 0.0926
C6 C -0.07048(13) 0.19545(4) 0.06248(11)
H4 H -0.1776 0.2086 0.0255
C7 C -0.04148(13) 0.14004(5) 0.07758(12)
H5 H -0.1280 0.1147 0.0521
C8 C 0.11712(13) 0.12233(4) 0.13085(11)
H6 H 0.1374 0.0843 0.1410
C9 C 0.35507(12) 0.30257(4) 0.20323(10)
H7 H 0.2549 0.3212 0.1716
C10 C 0.5000 0.33172(6) 0.2500
C11 C 0.5000 0.39201(6) 0.2500
C12 C 0.36898(13) 0.42176(4) 0.16922(12)
H8 H 0.2772 0.4035 0.1118
C13 C 0.37421(15) 0.47831(5) 0.17361(14)
H9 H 0.2831 0.4977 0.1191
Mn1_2 Mn 0.5000 0.128372(8) 1.2500
O1A O 0.54767(11) 0.06553(3) 1.11881(8)
O1A_2 O 0.54767(11) 0.06553(3) 0.11881(8)
O2A O 0.51453(12) 0.14551(4) 1.01816(8)
O2A_2 O 0.51453(12) 0.14551(4) 0.01816(8)
N2A N 0.75752(10) 0.15665(3) 0.33158(9)
C1A C 0.53642(12) 0.09535(4) 1.01688(10)
C2A C 0.54826(13) 0.06780(4) 0.88911(10)
H1A H 0.4725 0.0367 0.8659
H2A H 0.6589 0.0536 0.9049
C3A C 0.63966(11) 0.24593(4) 0.29613(9)
C4A C 0.78592(11) 0.21083(4) 0.34437(9)
C5A C 0.94142(12) 0.23179(4) 0.39803(10)
H3A H 0.9590 0.2699 0.4074
C6A C 1.07048(13) 0.19545(4) 0.43752(11)
H4A H 1.1776 0.2086 0.4745
C7A C 1.04148(13) 0.14004(5) 0.42242(12)
H5A H 1.1280 0.1147 0.4479
C8A C 0.88288(13) 0.12233(4) 0.36915(11)
H6A H 0.8626 0.0843 0.3590
C9A C 0.64493(12) 0.30257(4) 0.29677(10)
H7A H 0.7451 0.3212 0.3284
C12A C 0.63102(13) 0.42176(4) 0.33078(12)
H8A H 0.7228 0.4035 0.3882
C13A C 0.62579(15) 0.47831(5) 0.32639(14)
H9A H 0.7169 0.4977 0.3809
loop_
_geom_bond_atom_site_label_1
_geom_bond_atom_site_label_2
_geom_bond_site_symmetry_1
_geom_bond_site_symmetry_2
Mn1 O1 1_555 1_555
S1 C2 1_555 1_555
O1 C1 1_555 1_555
O2 Mn1 1_555 1_555
N1 Mn1 1_555 1_555
N2 Mn1 1_555 1_555
N3 C13 1_555 1_555
C1 O2 1_555 1_555
C2 C1 1_555 1_555
H1 C2 1_555 1_555
H2 C2 1_555 1_555
C3 N1 1_555 1_555
C4 N2 1_555 1_555
C5 C4 1_555 1_555
H3 C5 1_555 1_555
C6 C5 1_555 1_555
H4 C6 1_555 1_555
C7 C6 1_555 1_555
H5 C7 1_555 1_555
C8 N2 1_555 1_555
H6 C8 1_555 1_555
C9 C3 1_555 1_555
H7 C9 1_555 1_555
C10 C9 1_555 1_555
C11 C10 1_555 1_555
C12 C11 1_555 1_555
H8 C12 1_555 1_555
C13 C12 1_555 1_555
H9 C13 1_555 1_555
Mn1_2 O1A 1_555 1_555
O1A C1A 1_555 1_555
O1A_2 Mn1 1_555 1_555
O2A Mn1_2 1_555 1_555
O2A_2 Mn1 1_555 1_555
N2A Mn1 1_555 1_555
C1A O2A 1_555 1_555
C2A S1 1_555 1_555
H1A C2A 1_555 1_555
H2A C2A 1_555 1_555
C3A N1 1_555 1_555
C4A N2A 1_555 1_555
C5A C4A 1_555 1_555
H3A C5A 1_555 1_555
C6A C5A 1_555 1_555
H4A C6A 1_555 1_555
C7A C6A 1_555 1_555
H5A C7A 1_555 1_555
C8A N2A 1_555 1_555
H6A C8A 1_555 1_555
C9A C10 1_555 1_555
H7A C9A 1_555 1_555
C12A C11 1_555 1_555
H8A C12A 1_555 1_555
C13A N3 1_555 1_555
H9A C13A 1_555 1_555
C3 C4 1_555 1_555
C7 C8 1_555 1_555
C1A C2A 1_555 1_555
C3A C4A 1_555 1_555
C3A C9A 1_555 1_555
C7A C8A 1_555 1_555
C12A C13A 1_555 1_555

#END
