
#######################################################################
#
#                 Cambridge Crystallographic Data Centre
#                                CCDC 
#
#######################################################################
#
# If this CIF has been generated from an entry in the Cambridge 
# Structural Database, then it will include bibliographic, chemical, 
# crystal, experimental, refinement or atomic coordinate data resulting 
# from the CCDC's data processing and validation procedures.
#
#######################################################################

data_IZOSAR
_symmetry_cell_setting           orthorhombic
_symmetry_space_group_name_H-M   'P b c a'
_symmetry_Int_Tables_number      61
_space_group_name_Hall           '-P 2ac 2ab'
loop_
_symmetry_equiv_pos_site_id
_symmetry_equiv_pos_as_xyz
1 x,y,z
2 1/2+x,y,1/2-z
3 x,1/2-y,1/2+z
4 1/2-x,1/2+y,z
5 -x,-y,-z
6 1/2-x,-y,1/2+z
7 -x,1/2+y,1/2-z
8 1/2+x,1/2-y,-z
_cell_length_a                   14.6372(4)
_cell_length_b                   6.8642(2)
_cell_length_c                   15.5030(4)
_cell_angle_alpha                90
_cell_angle_beta                 90
_cell_angle_gamma                90
_cell_volume                     1557.63
loop_
_atom_site_label
_atom_site_type_symbol
_atom_site_fract_x
_atom_site_fract_y
_atom_site_fract_z
Ni1 Ni 0.5000 0.0000 0.5000
Na1 Na 0.10180(11) 0.0848(3) 0.53451(10)
Se1 Se 0.34746(3) 0.07917(6) 0.497485(19)
Se2 Se 0.49952(2) -0.03657(6) 0.64759(2)
N1 N 0.2256(2) 0.0994(4) 0.63544(18)
N2 N 0.3594(2) 0.0532(4) 0.76263(18)
C1 C 0.3131(2) 0.0728(5) 0.6153(2)
C2 C 0.3798(2) 0.0401(5) 0.6794(2)
C3 C 0.2716(3) 0.0884(5) 0.7824(2)
H1 H 0.2550 0.1025 0.8407
C4 C 0.2057(3) 0.1045(5) 0.7204(2)
H2 H 0.1445 0.1196 0.7374
O1 O 0.0280(2) 0.0557(4) 0.40140(18)
H3 H 0.016(3) 0.185(9) 0.381(3)
H4 H 0.056(4) 0.001(9) 0.364(3)
Se1D Se 0.65254(3) -0.07917(6) 0.502515(19)
Se2D Se 0.50048(2) 0.03657(6) 0.35241(2)
N1D N 0.7744(2) -0.0994(4) 0.36456(18)
N2D N 0.6406(2) -0.0532(4) 0.23737(18)
C1D C 0.6869(2) -0.0728(5) 0.3847(2)
C2D C 0.6202(2) -0.0401(5) 0.3206(2)
C3D C 0.7284(3) -0.0884(5) 0.2176(2)
H1D H 0.7450 -0.1025 0.1593
C4D C 0.7943(3) -0.1045(5) 0.2796(2)
H2D H 0.8555 -0.1196 0.2626
Na1D Na 0.89820(11) -0.0848(3) 0.46549(10)
O1D O -0.0280(2) -0.0557(4) 0.59860(18)
H3D H -0.016(3) -0.185(9) 0.619(3)
H4D H -0.056(4) -0.001(9) 0.636(3)
Na1D_2 Na -0.10180(11) -0.0848(3) 0.46549(10)
O1_2 O 1.0280(2) 0.0557(4) 0.40140(18)
O1D_2 O 0.9720(2) -0.0557(4) 0.59860(18)
H3_2 H 1.016(3) 0.185(9) 0.381(3)
H4_2 H 1.056(4) 0.001(9) 0.364(3)
H3D_2 H 0.984(3) -0.185(9) 0.619(3)
H4D_2 H 0.944(4) -0.001(9) 0.636(3)
loop_
_geom_bond_atom_site_label_1
_geom_bond_atom_site_label_2
_geom_bond_site_symmetry_1
_geom_bond_site_symmetry_2
Ni1 Se1 1_555 1_555
Na1 N1 1_555 1_555
Se1 C1 1_555 1_555
Se2 Ni1 1_555 1_555
N1 C1 1_555 1_555
N2 C2 1_555 1_555
C1 C2 1_555 1_555
C2 Se2 1_555 1_555
C3 N2 1_555 1_555
H1 C3 1_555 1_555
C4 N1 1_555 1_555
H2 C4 1_555 1_555
O1 Na1 1_555 1_555
H3 O1 1_555 1_555
H4 O1 1_555 1_555
Se1D Ni1 1_555 1_555
Se2D Ni1 1_555 1_555
N1D C1D 1_555 1_555
N2D C2D 1_555 1_555
C1D Se1D 1_555 1_555
C2D Se2D 1_555 1_555
C3D N2D 1_555 1_555
H1D C3D 1_555 1_555
C4D N1D 1_555 1_555
H2D C4D 1_555 1_555
Na1D N1D 1_555 1_555
O1D Na1 1_555 1_555
H3D O1D 1_555 1_555
H4D O1D 1_555 1_555
Na1D_2 O1 1_555 1_555
O1_2 Na1D 1_555 1_555
O1D_2 Na1D 1_555 1_555
H3_2 O1_2 1_555 1_555
H4_2 O1_2 1_555 1_555
H3D_2 O1D_2 1_555 1_555
H4D_2 O1D_2 1_555 1_555
C3 C4 1_555 1_555
C1D C2D 1_555 1_555
C3D C4D 1_555 1_555
O1D Na1D_2 1_555 1_555

#END
