
#######################################################################
#
#                 Cambridge Crystallographic Data Centre
#                                CCDC 
#
#######################################################################
#
# If this CIF has been generated from an entry in the Cambridge 
# Structural Database, then it will include bibliographic, chemical, 
# crystal, experimental, refinement or atomic coordinate data resulting 
# from the CCDC's data processing and validation procedures.
#
#######################################################################

data_IZOWIE
_symmetry_cell_setting           orthorhombic
_symmetry_space_group_name_H-M   'P m m a'
_symmetry_Int_Tables_number      51
_space_group_name_Hall           '-P 2a 2a'
loop_
_symmetry_equiv_pos_site_id
_symmetry_equiv_pos_as_xyz
1 x,y,z
2 1/2-x,-y,z
3 -x,y,-z
4 1/2+x,-y,-z
5 -x,-y,-z
6 1/2+x,y,-z
7 x,-y,z
8 1/2-x,y,z
_cell_length_a                   17.779(10)
_cell_length_b                   16.388(9)
_cell_length_c                   16.204(9)
_cell_angle_alpha                90
_cell_angle_beta                 90
_cell_angle_gamma                90
_cell_volume                     4721.23
loop_
_atom_site_label
_atom_site_type_symbol
_atom_site_fract_x
_atom_site_fract_y
_atom_site_fract_z
P1 P 0.7500 0.5000 0.0722(4)
O4 O 0.6767(9) 0.5000 0.1280(8)
O9 O 0.7500 0.5791(7) 0.0186(7)
O4A O 0.8233(9) 0.5000 0.1280(8)
O9A O 0.7500 0.4209(7) 0.0186(7)
Mo1 Mo 0.2500 0.40148(10) 0.14207(10)
Mo2 Mo 0.57244(7) 0.39150(7) 0.12996(7)
Mo3 Mo 0.35284(8) 0.30928(7) -0.01509(8)
Mo4 Mo 0.15897(11) 0.5000 -0.28814(10)
Zn1 Zn 0.41788(14) 0.5000 0.07306(14)
Zn2 Zn 0.2500 0.32237(13) -0.21439(14)
O1 O 0.5117(9) 0.5000 0.1292(8)
O2 O 0.3191(8) 0.5000 0.1320(8)
O3 O 0.4163(6) 0.4085(6) -0.0084(6)
O5 O 0.2500 0.4254(8) -0.2774(8)
O6 O 0.3373(6) 0.3206(5) -0.1359(6)
O7 O 0.2500 0.2461(8) -0.0210(8)
O8 O 0.4984(6) 0.3276(6) 0.1431(6)
O10 O 0.1438(14) 0.5000 -0.3915(11)
O11 O 0.2500 0.2221(9) -0.2774(8)
O12 O 0.4128(6) 0.2296(6) -0.0024(6)
O13 O 0.2500 0.3835(9) 0.2451(8)
O14 O 0.5980(6) 0.4163(6) 0.2509(6)
O15 O 0.3276(6) 0.3374(5) 0.1045(5)
O16 O 0.2500 0.1531(9) -0.1569(9)
O17 O 0.2500 -0.0686(12) -0.5429(10)
C1 C 0.2500 0.0743(12) -0.3722(12)
H1 H 0.2500 0.1232 -0.4013
C2 C 0.2500 0.0760(12) -0.2824(12)
C3 C 0.2500 0.0000 -0.2363(18)
H2 H 0.2500 0.0000 -0.1789
C4 C 0.2500 0.0000 -0.4155(14)
C5 C 0.2500 0.1560(12) -0.2324(13)
C6 C 0.2500 0.0000 -0.5072(15)
Mo1A Mo 0.2500 0.59852(10) 0.14207(10)
Mo2A Mo -0.07244(7) 0.60850(7) 0.12996(7)
Mo2F Mo 0.57244(7) 0.60850(7) 0.12996(7)
Mo2G Mo -0.07244(7) 0.39150(7) 0.12996(7)
Mo2B Mo 0.42756(7) 0.39150(7) -0.12996(7)
Mo2D Mo 0.42756(7) 0.60850(7) -0.12996(7)
Mo2C Mo 0.07244(7) 0.60850(7) -0.12996(7)
Mo2E Mo 0.07244(7) 0.39150(7) -0.12996(7)
Mo3G Mo 0.14716(8) 0.30928(7) -0.01509(8)
Mo3A Mo 0.14716(8) 0.69072(7) -0.01509(8)
Mo3F Mo 0.35284(8) 0.69072(7) -0.01509(8)
Mo3B Mo 0.64716(8) 0.30928(7) 0.01509(8)
Mo3C Mo -0.14716(8) 0.69072(7) 0.01509(8)
Mo4A Mo 0.34103(11) 0.5000 -0.28814(10)
Mo4C Mo 0.65897(11) 0.5000 0.28814(10)
Mo4B Mo -0.15897(11) 0.5000 0.28814(10)
Zn1A Zn 0.08212(14) 0.5000 0.07306(14)
Zn2B Zn 0.7500 0.32237(13) 0.21439(14)
Zn2A Zn 0.2500 -0.32237(13) -0.21439(14)
Zn2C Zn -0.2500 0.67763(13) 0.21439(14)
Zn2A_2 Zn 0.2500 0.67763(13) -0.21439(14)
O1A O -0.0117(9) 0.5000 0.1292(8)
O2A O 0.1809(8) 0.5000 0.1320(8)
O3F O 0.4163(6) 0.5915(6) -0.0084(6)
O3A O 0.0837(6) 0.5915(6) -0.0084(6)
O3G O 0.0837(6) 0.4085(6) -0.0084(6)
O3B O 0.5837(6) 0.4085(6) 0.0084(6)
O3C O -0.0837(6) 0.5915(6) 0.0084(6)
O3D O 0.5837(6) 0.5915(6) 0.0084(6)
O3E O -0.0837(6) 0.4085(6) 0.0084(6)
O5A O 0.2500 0.5746(8) -0.2774(8)
O5B O 0.7500 0.4254(8) 0.2774(8)
O6G O 0.1627(6) 0.3206(5) -0.1359(6)
O6B O 0.6627(6) 0.3206(5) 0.1359(6)
O6C O -0.1627(6) 0.6794(5) 0.1359(6)
O6D O 0.6627(6) 0.6794(5) 0.1359(6)
O6E O -0.1627(6) 0.3206(5) 0.1359(6)
O6A O 0.1627(6) 0.6794(5) -0.1359(6)
O6F O 0.3373(6) 0.6794(5) -0.1359(6)
O6E_2 O 0.8373(6) 0.3206(5) 0.1359(6)
O7A O 0.2500 0.7539(8) -0.0210(8)
O8A O 0.0016(6) 0.6724(6) 0.1431(6)
O8F O 0.4984(6) 0.6724(6) 0.1431(6)
O8G O 0.0016(6) 0.3276(6) 0.1431(6)
O10A O 0.3562(14) 0.5000 -0.3915(11)
O11A O 0.2500 -0.2221(9) -0.2774(8)
O11B O 0.7500 0.2221(9) 0.2774(8)
O12G O 0.0872(6) 0.2296(6) -0.0024(6)
O12A O 0.0872(6) 0.7704(6) -0.0024(6)
O12F O 0.4128(6) 0.7704(6) -0.0024(6)
O13A O 0.2500 0.6165(9) 0.2451(8)
O14A O -0.0980(6) 0.5837(6) 0.2509(6)
O14F O 0.5980(6) 0.5837(6) 0.2509(6)
O14G O -0.0980(6) 0.4163(6) 0.2509(6)
O14C O 0.0980(6) 0.5837(6) -0.2509(6)
O14E O 0.0980(6) 0.4163(6) -0.2509(6)
O14B O 0.4020(6) 0.4163(6) -0.2509(6)
O14D O 0.4020(6) 0.5837(6) -0.2509(6)
O15G O 0.1724(6) 0.3374(5) 0.1045(5)
O15A O 0.1724(6) 0.6626(5) 0.1045(5)
O15F O 0.3276(6) 0.6626(5) 0.1045(5)
O16A O 0.2500 -0.1531(9) -0.1569(9)
O17A O 0.2500 0.0686(12) -0.5429(10)
C1A C 0.2500 -0.0743(12) -0.3722(12)
H1A H 0.2500 -0.1232 -0.4013
C2A C 0.2500 -0.0760(12) -0.2824(12)
C5A C 0.2500 -0.1560(12) -0.2324(13)
loop_
_geom_bond_atom_site_label_1
_geom_bond_atom_site_label_2
_geom_bond_site_symmetry_1
_geom_bond_site_symmetry_2
Mo1 O2 1_555 1_555
Mo2 O1 1_555 1_555
Mo3 O3 1_555 1_555
Mo4 O5 1_555 1_555
Zn1 O1 1_555 1_555
Zn2 O5 1_555 1_555
P1 O4 1_555 1_555
O1 Mo2F 1_555 1_555
O2 Zn1 1_555 1_555
O3 Zn1 1_555 1_555
O5 Mo4A 1_555 1_555
O6 Mo3 1_555 1_555
O7 Mo3 1_555 1_555
O8 Mo2 1_555 1_555
O9 P1 1_555 1_555
O10 Mo4 1_555 1_555
O11 Zn2 1_555 1_555
O12 Mo3 1_555 1_555
O13 Mo1 1_555 1_555
O14 Mo2 1_555 1_555
O15 Mo1 1_555 1_555
O16 C5 1_555 1_555
O17 C6 1_555 1_555
C1 H1 1_555 1_555
C2 C1 1_555 1_555
C3 C2 1_555 1_555
H2 C3 1_555 1_555
C4 C1 1_555 1_555
C5 O11 1_555 1_555
C6 C4 1_555 1_555
Mo1A O2 1_555 1_555
Mo2A O1A 1_555 1_555
Mo2F O3D 1_555 1_555
Mo2G O1A 1_555 1_555
Mo2B O3 1_555 1_555
Mo2D O3F 1_555 1_555
Mo2C O3A 1_555 1_555
Mo2E O3G 1_555 1_555
Mo3G O7 1_555 1_555
Mo3A O3A 1_555 1_555
Mo3F O3F 1_555 1_555
Mo3B O3B 1_555 1_555
Mo3C O3C 1_555 1_555
Mo4A O5A 1_555 1_555
Mo4C O14 1_555 1_555
Mo4B O14A 1_555 1_555
Zn1A O1A 1_555 1_555
Zn2B O5B 1_555 1_555
Zn2A O11A 1_555 1_555
Zn2C O6C 1_555 1_555
Zn2A_2 O5A 1_555 1_555
O2A Mo1 1_555 1_555
O3F Zn1 1_555 1_555
O3A Zn1A 1_555 1_555
O3G Mo3G 1_555 1_555
O3B Mo2 1_555 1_555
O3C Mo2A 1_555 1_555
O3E Mo2G 1_555 1_555
O4A P1 1_555 1_555
O5A Mo4 1_555 1_555
O5B Mo4C 1_555 1_555
O6G Zn2 1_555 1_555
O6B Mo2 1_555 1_555
O6C Mo2A 1_555 1_555
O6D Mo2F 1_555 1_555
O6E Mo2G 1_555 1_555
O6A Mo2C 1_555 1_555
O6F Mo2D 1_555 1_555
O6E_2 Zn2B 1_555 1_555
O7A Mo3A 1_555 1_555
O8A Mo2A 1_555 1_555
O8F Mo2F 1_555 1_555
O8G Mo2G 1_555 1_555
O9A P1 1_555 1_555
O10A Mo4A 1_555 1_555
O11A C5A 1_555 1_555
O11B Zn2B 1_555 1_555
O12G Mo3G 1_555 1_555
O12A Mo3A 1_555 1_555
O12F Mo3F 1_555 1_555
O13A Mo1A 1_555 1_555
O14A Mo2A 1_555 1_555
O14F Mo2F 1_555 1_555
O14G Mo2G 1_555 1_555
O14C Mo4 1_555 1_555
O14E Mo4 1_555 1_555
O14B Mo2B 1_555 1_555
O14D Mo2D 1_555 1_555
O15G Mo1 1_555 1_555
O15A Mo1A 1_555 1_555
O15F Mo1A 1_555 1_555
O16A C5A 1_555 1_555
O17A C6 1_555 1_555
C1A C4 1_555 1_555
H1A C1A 1_555 1_555
C2A C3 1_555 1_555
C5A C2A 1_555 1_555
Mo3 O15 1_555 1_555
Zn2 O6 1_555 1_555
O6 Mo2B 1_555 1_555
C2 C5 1_555 1_555
Mo1A O2A 1_555 1_555
Mo2C O14C 1_555 1_555
Mo2E O6G 1_555 1_555
Mo2E O14E 1_555 1_555
Mo3G O6G 1_555 1_555
Mo3G O15G 1_555 1_555
Mo3A O6A 1_555 1_555
Mo3A O15A 1_555 1_555
Mo3F O6F 1_555 1_555
Mo3F O7A 1_555 1_555
Mo3F O15F 1_555 1_555
Mo3B O6B 1_555 1_555
Mo3C O6C 1_555 1_555
Mo4A O14B 1_555 1_555
Mo4A O14D 1_555 1_555
Mo4C O14F 1_555 1_555
Mo4B O14G 1_555 1_555
Zn1A O2A 1_555 1_555
Zn1A O3G 1_555 1_555
Zn2B O6B 1_555 1_555
Zn2A_2 O6A 1_555 1_555
Zn2A_2 O6F 1_555 1_555
C1A C2A 1_555 1_555

#END
