
#######################################################################
#
#                 Cambridge Crystallographic Data Centre
#                                CCDC 
#
#######################################################################
#
# If this CIF has been generated from an entry in the Cambridge 
# Structural Database, then it will include bibliographic, chemical, 
# crystal, experimental, refinement or atomic coordinate data resulting 
# from the CCDC's data processing and validation procedures.
#
#######################################################################

data_IZULIZ
_symmetry_cell_setting           triclinic
_symmetry_space_group_name_H-M   'P -1'
_symmetry_Int_Tables_number      2
_space_group_name_Hall           '-P 1'
loop_
_symmetry_equiv_pos_site_id
_symmetry_equiv_pos_as_xyz
1 x,y,z
2 -x,-y,-z
_cell_length_a                   10.0400(9)
_cell_length_b                   15.4490(12)
_cell_length_c                   16.0420(17)
_cell_angle_alpha                108.164(9)
_cell_angle_beta                 103.874(10)
_cell_angle_gamma                101.140(7)
_cell_volume                     2196.3
loop_
_atom_site_label
_atom_site_type_symbol
_atom_site_fract_x
_atom_site_fract_y
_atom_site_fract_z
Mn1 Mn 0.269971(13) 0.248573(9) 0.261428(9)
Mn2 Mn 0.071576(14) 0.413822(9) 0.406035(9)
Mn3 Mn 0.367109(13) 0.048695(9) 0.075111(9)
O1 O 0.37327(8) 0.23494(6) 0.36963(5)
O2 O -0.04928(8) 0.41695(6) 0.29673(5)
F1 F 0.5000 0.0000 0.0000
N1 N 0.54239(8) 0.08136(6) 0.18303(5)
O3 O -0.05568(7) 0.30140(5) 0.39958(5)
N2 N 0.21702(8) 0.41532(6) 0.51648(6)
O4 O 0.20596(8) 0.03204(5) -0.02452(5)
F2 F 0.20473(7) 0.36049(4) 0.33400(4)
F3 F 0.0000 0.5000 0.5000
O5 O 0.29728(7) -0.07370(5) 0.07799(5)
F4 F 0.28419(7) 0.12149(4) 0.17359(5)
O6 O 0.43428(7) 0.33053(5) 0.25626(5)
N3 N 0.21360(9) 0.53749(6) 0.43198(6)
C1 C 0.61644(9) 0.21093(7) 0.13540(7)
H1 H 0.6551 0.2831 0.1584
H2 H 0.6735 0.1838 0.1023
C2 C -0.04060(9) 0.17331(7) 0.18942(6)
H3 H -0.1168 0.1216 0.1722
H4 H -0.0640 0.2305 0.2210
C3 C 0.41765(10) 0.21428(7) 0.01957(6)
H5 H 0.4816 0.2729 0.0210
C4 C -0.01118(11) 0.46700(7) 0.24870(7)
N4 N 0.46655(8) 0.17366(5) 0.07394(5)
C5 C 0.11139(12) 0.54820(7) 0.28410(8)
C6 C 0.58726(10) 0.02234(7) 0.21513(7)
H6 H 0.6785 0.0414 0.2615
C7 C 0.36999(10) -0.11927(7) 0.11872(6)
C8 C 0.62310(9) 0.18248(7) 0.21884(6)
H7 H 0.5767 0.2194 0.2586
H8 H 0.7286 0.1940 0.2563
C9 C 0.27355(10) 0.18117(7) -0.04492(6)
C10 C 0.31473(11) 0.38744(7) 0.14306(7)
C11 C -0.05704(10) 0.27158(6) 0.46822(6)
N5 N 0.08352(8) 0.17064(6) 0.25832(5)
C12 C 0.32670(11) 0.18134(7) 0.41215(7)
C13 C 0.17372(10) 0.09417(7) -0.06044(6)
C14 C 0.03103(11) 0.07332(8) -0.11830(7)
H9 H -0.0402 0.0161 -0.1257
C15 C 0.30483(11) -0.21704(7) 0.09725(8)
H10 H 0.2056 -0.2479 0.0515
C16 C 0.33014(14) 0.45000(9) 0.09605(9)
H11 H 0.2556 0.4546 0.0606
C17 C 0.57244(11) 0.44604(7) 0.22039(7)
H12 H 0.6601 0.4448 0.2621
C18 C 0.35544(10) 0.48368(8) 0.53683(7)
H13 H 0.4008 0.4505 0.4906
H14 H 0.4165 0.4985 0.6005
C19 C 0.37413(13) -0.26946(8) 0.13853(9)
H15 H 0.3238 -0.3367 0.1203
C20 C 0.06665(10) 0.12863(7) 0.31392(7)
H16 H -0.0182 0.0981 0.3095
C21 C -0.18486(11) 0.20838(7) 0.46162(7)
H17 H -0.2642 0.1942 0.4134
C22 C 0.43763(10) 0.38588(6) 0.20854(6)
C23 C 0.18061(11) 0.12894(7) 0.38880(7)
C24 C -0.09895(12) 0.43999(9) 0.15617(8)
H18 H -0.1760 0.3865 0.1311
C25 C 0.57787(13) -0.13290(9) 0.22561(8)
H19 H 0.6841 -0.1018 0.2654
C26 C 0.23106(12) 0.24008(8) -0.09153(7)
H20 H 0.3041 0.2974 -0.0849
C27 C 0.32288(11) 0.57194(7) 0.52365(7)
H21 H 0.2752 0.6045 0.5690
H22 H 0.4125 0.6202 0.5306
C28 C -0.00757(12) 0.13355(9) -0.16164(8)
H23 H -0.1076 0.1153 -0.2001
C29 C 0.51040(11) -0.07732(7) 0.18489(7)
C30 C 0.21517(12) 0.58064(7) 0.37564(8)
H24 H 0.2943 0.6429 0.3972
C31 C 0.04573(15) 0.57385(10) 0.13896(10)
H25 H 0.0642 0.6205 0.1117
C32 C 0.46236(15) 0.50974(9) 0.11034(10)
H26 H 0.4720 0.5509 0.0818
C33 C 0.51183(14) -0.22813(9) 0.20310(9)
H27 H 0.5552 -0.2621 0.2276
C34 C -0.06944(14) 0.19112(9) 0.60423(9)
H28 H -0.0737 0.1706 0.6507
C35 C 0.05528(13) 0.25492(9) 0.61364(8)
H29 H 0.1391 0.2784 0.6685
C36 C 0.14275(15) 0.07651(10) 0.44170(9)
H30 H 0.0549 0.0435 0.4278
C37 C 0.13539(15) 0.60052(9) 0.22842(9)
H31 H 0.2288 0.6541 0.2598
C38 C 0.58383(14) 0.50625(8) 0.17233(9)
H32 H 0.6756 0.5433 0.1814
C39 C 0.09254(14) 0.21716(9) -0.14972(8)
H33 H 0.0581 0.2569 -0.1777
C40 C 0.24332(17) 0.07388(11) 0.51558(10)
H34 H 0.2142 0.0388 0.5448
C41 C 0.42784(13) 0.17614(9) 0.48719(9)
H35 H 0.5208 0.2072 0.5012
C42 C -0.19046(13) 0.16911(8) 0.52798(8)
H36 H -0.2773 0.1297 0.5256
C43 C -0.07162(14) 0.49222(10) 0.10286(9)
H37 H -0.1381 0.4715 0.0403
C44 C 0.06418(11) 0.29685(7) 0.54802(7)
N6 N 0.14573(8) 0.25554(6) 0.14769(5)
C45 C 0.00662(10) 0.18202(8) 0.10829(7)
H38 H -0.0618 0.2017 0.0681
H39 H 0.0235 0.1249 0.0766
C46 C 0.17544(11) 0.31923(8) 0.11409(7)
H40 H 0.1080 0.3165 0.0627
C47 C 0.19853(11) 0.36462(8) 0.56498(7)
H41 H 0.2722 0.3738 0.6210
C48 C 0.38755(17) 0.12403(11) 0.53785(10)
H42 H 0.4587 0.1215 0.5873
Mn1A Mn -0.269971(13) 0.751427(9) 0.738572(9)
Mn1A_2 Mn 0.730029(13) -0.248573(9) -0.261428(9)
Mn2A Mn -0.071576(14) 0.586178(9) 0.593965(9)
Mn3A Mn 0.632891(13) -0.048695(9) -0.075111(9)
O1A O -0.37327(8) 0.76506(6) 0.63037(5)
O2A O 0.04928(8) 0.58305(6) 0.70327(5)
N1A N 0.45761(8) -0.08136(6) -0.18303(5)
O3A O 0.05568(7) 0.69860(5) 0.60042(5)
N2A N -0.21702(8) 0.58468(6) 0.48352(6)
O4A O 0.79404(8) -0.03204(5) 0.02452(5)
F2A F -0.20473(7) 0.63951(4) 0.66600(4)
O5A O 0.70272(7) 0.07370(5) -0.07799(5)
F4A F 0.71581(7) -0.12149(4) -0.17359(5)
F4A_2 F -0.28419(7) 0.87851(4) 0.82641(5)
O6A O -0.43428(7) 0.66947(5) 0.74374(5)
N3A N -0.21360(9) 0.46251(6) 0.56802(6)
C1A C 0.38356(9) -0.21093(7) -0.13540(7)
H1A H 0.3449 -0.2831 -0.1584
H2A H 0.3265 -0.1838 -0.1023
C2A C 0.04060(9) 0.82669(7) 0.81058(6)
H3A H 0.1168 0.8784 0.8278
H4A H 0.0640 0.7695 0.7790
C3A C 0.58235(10) -0.21428(7) -0.01957(6)
H5A H 0.5184 -0.2729 -0.0210
C4A C 0.01118(11) 0.53300(7) 0.75130(7)
N4A N 0.53345(8) -0.17366(5) -0.07394(5)
C5A C -0.11139(12) 0.45180(7) 0.71590(8)
C6A C 0.41274(10) -0.02234(7) -0.21513(7)
H6A H 0.3215 -0.0414 -0.2615
C7A C 0.63001(10) 0.11927(7) -0.11872(6)
C8A C 0.37690(9) -0.18248(7) -0.21884(6)
H7A H 0.4233 -0.2194 -0.2586
H8A H 0.2714 -0.1940 -0.2563
C9A C 0.72645(10) -0.18117(7) 0.04492(6)
C10A C -0.31473(11) 0.61256(7) 0.85694(7)
C11A C 0.05704(10) 0.72842(6) 0.53178(6)
N5A N -0.08352(8) 0.82936(6) 0.74168(5)
C12A C -0.32670(11) 0.81866(7) 0.58785(7)
C13A C 0.82628(10) -0.09417(7) 0.06044(6)
C14A C 0.96897(11) -0.07332(8) 0.11830(7)
H9A H 1.0402 -0.0161 0.1257
C15A C 0.69517(11) 0.21704(7) -0.09725(8)
H10A H 0.7944 0.2479 -0.0515
C16A C -0.33014(14) 0.55000(9) 0.90395(9)
H11A H -0.2556 0.5454 0.9394
C17A C -0.57244(11) 0.55396(7) 0.77961(7)
H12A H -0.6601 0.5552 0.7379
C18A C -0.35544(10) 0.51632(8) 0.46317(7)
H13A H -0.4008 0.5495 0.5094
H14A H -0.4165 0.5015 0.3995
C19A C 0.62587(13) 0.26946(8) -0.13853(9)
H15A H 0.6762 0.3367 -0.1203
C20A C -0.06665(10) 0.87137(7) 0.68608(7)
H16A H 0.0182 0.9019 0.6905
C21A C 0.18486(11) 0.79162(7) 0.53838(7)
H17A H 0.2642 0.8058 0.5866
C22A C -0.43763(10) 0.61412(6) 0.79146(6)
C23A C -0.18061(11) 0.87106(7) 0.61120(7)
C24A C 0.09895(12) 0.56001(9) 0.84383(8)
H18A H 0.1760 0.6135 0.8689
C25A C 0.42213(13) 0.13290(9) -0.22561(8)
H19A H 0.3159 0.1018 -0.2654
C26A C 0.76894(12) -0.24008(8) 0.09153(7)
H20A H 0.6959 -0.2974 0.0849
C27A C -0.32288(11) 0.42806(7) 0.47635(7)
H21A H -0.2752 0.3955 0.4310
H22A H -0.4125 0.3798 0.4694
C28A C 1.00757(12) -0.13355(9) 0.16164(8)
H23A H 1.1076 -0.1153 0.2001
C29A C 0.48960(11) 0.07732(7) -0.18489(7)
C30A C -0.21517(12) 0.41936(7) 0.62436(8)
H24A H -0.2943 0.3571 0.6028
C31A C -0.04573(15) 0.42615(10) 0.86104(10)
H25A H -0.0642 0.3795 0.8883
C32A C -0.46236(15) 0.49026(9) 0.88966(10)
H26A H -0.4720 0.4491 0.9182
C33A C 0.48817(14) 0.22813(9) -0.20310(9)
H27A H 0.4448 0.2621 -0.2276
C34A C 0.06944(14) 0.80888(9) 0.39577(9)
H28A H 0.0737 0.8294 0.3493
C35A C -0.05528(13) 0.74508(9) 0.38636(8)
H29A H -0.1391 0.7216 0.3315
C36A C -0.14275(15) 0.92349(10) 0.55830(9)
H30A H -0.0549 0.9565 0.5722
C37A C -0.13539(15) 0.39948(9) 0.77158(9)
H31A H -0.2288 0.3459 0.7402
C38A C -0.58383(14) 0.49375(8) 0.82767(9)
H32A H -0.6756 0.4567 0.8186
C39A C 0.90746(14) -0.21716(9) 0.14972(8)
H33A H 0.9419 -0.2569 0.1777
C40A C -0.24332(17) 0.92612(11) 0.48442(10)
H34A H -0.2142 0.9612 0.4552
C41A C -0.42784(13) 0.82386(9) 0.51281(9)
H35A H -0.5208 0.7928 0.4988
C42A C 0.19046(13) 0.83089(8) 0.47202(8)
H36A H 0.2773 0.8703 0.4744
C43A C 0.07162(14) 0.50778(10) 0.89714(9)
H37A H 0.1381 0.5285 0.9597
C44A C -0.06418(11) 0.70315(7) 0.45198(7)
N6A N -0.14573(8) 0.74446(6) 0.85231(5)
C45A C -0.00662(10) 0.81798(8) 0.89171(7)
H38A H 0.0618 0.7983 0.9319
H39A H -0.0235 0.8751 0.9234
C46A C -0.17544(11) 0.68077(8) 0.88591(7)
H40A H -0.1080 0.6835 0.9373
C47A C -0.19853(11) 0.63538(8) 0.43502(7)
H41A H -0.2722 0.6262 0.3790
C48A C -0.38755(17) 0.87597(11) 0.46215(10)
H42A H -0.4587 0.8785 0.4127
loop_
_geom_bond_atom_site_label_1
_geom_bond_atom_site_label_2
_geom_bond_site_symmetry_1
_geom_bond_site_symmetry_2
Mn1 O1 1_555 1_555
Mn2 O2 1_555 1_555
Mn3 F1 1_555 1_555
O1 C12 1_555 1_555
O2 C4 1_555 1_555
F1 Mn3A 1_555 1_555
N1 Mn3 1_555 1_555
O3 Mn2 1_555 1_555
N2 Mn2 1_555 1_555
O4 Mn3 1_555 1_555
F2 Mn1 1_555 1_555
F3 Mn2 1_555 1_555
O5 Mn3 1_555 1_555
F4 Mn1 1_555 1_555
O6 Mn1 1_555 1_555
N3 Mn2 1_555 1_555
C1 H1 1_555 1_555
H2 C1 1_555 1_555
C2 H3 1_555 1_555
H4 C2 1_555 1_555
C3 H5 1_555 1_555
C4 C5 1_555 1_555
N4 Mn3 1_555 1_555
C5 C30 1_555 1_555
C6 N1 1_555 1_555
H6 C6 1_555 1_555
C7 O5 1_555 1_555
C8 N1 1_555 1_555
H7 C8 1_555 1_555
H8 C8 1_555 1_555
C9 C3 1_555 1_555
C10 C16 1_555 1_555
C11 O3 1_555 1_555
N5 Mn1 1_555 1_555
C12 C23 1_555 1_555
C13 O4 1_555 1_555
C14 C13 1_555 1_555
H9 C14 1_555 1_555
C15 C7 1_555 1_555
H10 C15 1_555 1_555
C16 H11 1_555 1_555
C17 H12 1_555 1_555
C18 N2 1_555 1_555
H13 C18 1_555 1_555
H14 C18 1_555 1_555
C19 C15 1_555 1_555
H15 C19 1_555 1_555
C20 N5 1_555 1_555
H16 C20 1_555 1_555
C21 C11 1_555 1_555
H17 C21 1_555 1_555
C22 O6 1_555 1_555
C23 C20 1_555 1_555
C24 C4 1_555 1_555
H18 C24 1_555 1_555
C25 H19 1_555 1_555
C26 C9 1_555 1_555
H20 C26 1_555 1_555
C27 N3 1_555 1_555
H21 C27 1_555 1_555
H22 C27 1_555 1_555
C28 C14 1_555 1_555
H23 C28 1_555 1_555
C29 C6 1_555 1_555
C30 N3 1_555 1_555
H24 C30 1_555 1_555
C31 H25 1_555 1_555
C32 C16 1_555 1_555
H26 C32 1_555 1_555
C33 C19 1_555 1_555
H27 C33 1_555 1_555
C34 H28 1_555 1_555
C35 C34 1_555 1_555
H29 C35 1_555 1_555
C36 C23 1_555 1_555
H30 C36 1_555 1_555
C37 C5 1_555 1_555
H31 C37 1_555 1_555
C38 C17 1_555 1_555
H32 C38 1_555 1_555
C39 C26 1_555 1_555
H33 C39 1_555 1_555
C40 C36 1_555 1_555
H34 C40 1_555 1_555
C41 C12 1_555 1_555
H35 C41 1_555 1_555
C42 C21 1_555 1_555
H36 C42 1_555 1_555
C43 C24 1_555 1_555
H37 C43 1_555 1_555
C44 C11 1_555 1_555
N6 Mn1 1_555 1_555
C45 C2 1_555 1_555
H38 C45 1_555 1_555
H39 C45 1_555 1_555
C46 C10 1_555 1_555
H40 C46 1_555 1_555
C47 N2 1_555 1_555
H41 C47 1_555 1_555
C48 C40 1_555 1_555
H42 C48 1_555 1_555
Mn1A O1A 1_555 1_555
Mn1A_2 F4A 1_555 1_555
Mn2A F3 1_555 1_555
Mn3A N1A 1_555 1_555
O1A C12A 1_555 1_555
O2A Mn2A 1_555 1_555
N1A C6A 1_555 1_555
O3A Mn2A 1_555 1_555
N2A Mn2A 1_555 1_555
O4A Mn3A 1_555 1_555
F2A Mn1A 1_555 1_555
O5A Mn3A 1_555 1_555
F4A Mn3A 1_555 1_555
F4A_2 Mn1A 1_555 1_555
O6A Mn1A 1_555 1_555
N3A Mn2A 1_555 1_555
C1A H1A 1_555 1_555
H2A C1A 1_555 1_555
C2A H3A 1_555 1_555
H4A C2A 1_555 1_555
C3A H5A 1_555 1_555
C4A O2A 1_555 1_555
N4A Mn3A 1_555 1_555
C5A C4A 1_555 1_555
C6A H6A 1_555 1_555
C7A O5A 1_555 1_555
C8A N1A 1_555 1_555
H7A C8A 1_555 1_555
H8A C8A 1_555 1_555
C9A C3A 1_555 1_555
C10A C16A 1_555 1_555
C11A O3A 1_555 1_555
N5A Mn1A 1_555 1_555
C12A C23A 1_555 1_555
C13A O4A 1_555 1_555
C14A C13A 1_555 1_555
H9A C14A 1_555 1_555
C15A C7A 1_555 1_555
H10A C15A 1_555 1_555
C16A H11A 1_555 1_555
C17A H12A 1_555 1_555
C18A N2A 1_555 1_555
H13A C18A 1_555 1_555
H14A C18A 1_555 1_555
C19A C15A 1_555 1_555
H15A C19A 1_555 1_555
C20A N5A 1_555 1_555
H16A C20A 1_555 1_555
C21A C11A 1_555 1_555
H17A C21A 1_555 1_555
C22A O6A 1_555 1_555
C23A C20A 1_555 1_555
C24A C4A 1_555 1_555
H18A C24A 1_555 1_555
C25A H19A 1_555 1_555
C26A C9A 1_555 1_555
H20A C26A 1_555 1_555
C27A N3A 1_555 1_555
H21A C27A 1_555 1_555
H22A C27A 1_555 1_555
C28A C14A 1_555 1_555
H23A C28A 1_555 1_555
C29A C6A 1_555 1_555
C30A N3A 1_555 1_555
H24A C30A 1_555 1_555
C31A H25A 1_555 1_555
C32A C16A 1_555 1_555
H26A C32A 1_555 1_555
C33A C19A 1_555 1_555
H27A C33A 1_555 1_555
C34A H28A 1_555 1_555
C35A C34A 1_555 1_555
H29A C35A 1_555 1_555
C36A C23A 1_555 1_555
H30A C36A 1_555 1_555
C37A C5A 1_555 1_555
H31A C37A 1_555 1_555
C38A C17A 1_555 1_555
H32A C38A 1_555 1_555
C39A C26A 1_555 1_555
H33A C39A 1_555 1_555
C40A C36A 1_555 1_555
H34A C40A 1_555 1_555
C41A C12A 1_555 1_555
H35A C41A 1_555 1_555
C42A C21A 1_555 1_555
H36A C42A 1_555 1_555
C43A C24A 1_555 1_555
H37A C43A 1_555 1_555
C44A C11A 1_555 1_555
N6A Mn1A 1_555 1_555
C45A C2A 1_555 1_555
H38A C45A 1_555 1_555
H39A C45A 1_555 1_555
C46A C10A 1_555 1_555
H40A C46A 1_555 1_555
C47A N2A 1_555 1_555
H41A C47A 1_555 1_555
C48A C40A 1_555 1_555
H42A C48A 1_555 1_555
Mn2 F2 1_555 1_555
Mn3 F4 1_555 1_555
C1 N4 1_555 1_555
C1 C8 1_555 1_555
C2 N5 1_555 1_555
C3 N4 1_555 1_555
C7 C29 1_555 1_555
C9 C13 1_555 1_555
C10 C22 1_555 1_555
C17 C22 1_555 1_555
C18 C27 1_555 1_555
C25 C29 1_555 1_555
C25 C33 1_555 1_555
C28 C39 1_555 1_555
C31 C37 1_555 1_555
C31 C43 1_555 1_555
C32 C38 1_555 1_555
C34 C42 1_555 1_555
C35 C44 1_555 1_555
C41 C48 1_555 1_555
C44 C47 1_555 1_555
N6 C45 1_555 1_555
N6 C46 1_555 1_555
Mn2A F2A 1_555 1_555
C1A N4A 1_555 1_555
C1A C8A 1_555 1_555
C2A N5A 1_555 1_555
C3A N4A 1_555 1_555
C5A C30A 1_555 1_555
C7A C29A 1_555 1_555
C9A C13A 1_555 1_555
C10A C22A 1_555 1_555
C17A C22A 1_555 1_555
C18A C27A 1_555 1_555
C25A C29A 1_555 1_555
C25A C33A 1_555 1_555
C28A C39A 1_555 1_555
C31A C37A 1_555 1_555
C31A C43A 1_555 1_555
C32A C38A 1_555 1_555
C34A C42A 1_555 1_555
C35A C44A 1_555 1_555
C41A C48A 1_555 1_555
C44A C47A 1_555 1_555
N6A C45A 1_555 1_555
N6A C46A 1_555 1_555

#END
