
#######################################################################
#
#                 Cambridge Crystallographic Data Centre
#                                CCDC 
#
#######################################################################
#
# If this CIF has been generated from an entry in the Cambridge 
# Structural Database, then it will include bibliographic, chemical, 
# crystal, experimental, refinement or atomic coordinate data resulting 
# from the CCDC's data processing and validation procedures.
#
#######################################################################

data_IZUMUM
_symmetry_cell_setting           tetragonal
_symmetry_space_group_name_H-M   'I 41/a'
_symmetry_Int_Tables_number      88
_space_group_name_Hall           '-I 4ad'
loop_
_symmetry_equiv_pos_site_id
_symmetry_equiv_pos_as_xyz
1 x,y,z
2 -x,1/2-y,z
3 3/4-y,1/4+x,1/4+z
4 1/4+y,1/4-x,1/4+z
5 1/2+x,1/2+y,1/2+z
6 1/2-x,-y,1/2+z
7 1/4-y,3/4+x,3/4+z
8 3/4+y,3/4-x,3/4+z
9 -x,-y,-z
10 x,1/2+y,-z
11 1/4+y,3/4-x,3/4-z
12 3/4-y,3/4+x,3/4-z
13 1/2-x,1/2-y,1/2-z
14 1/2+x,y,1/2-z
15 3/4+y,1/4-x,1/4-z
16 1/4-y,1/4+x,1/4-z
_cell_length_a                   15.298(1)
_cell_length_b                   15.298(1)
_cell_length_c                   22.517(3)
_cell_angle_alpha                90
_cell_angle_beta                 90
_cell_angle_gamma                90
_cell_volume                     5269.63
loop_
_atom_site_label
_atom_site_type_symbol
_atom_site_fract_x
_atom_site_fract_y
_atom_site_fract_z
Cu1 Cu 0.96010(7) 0.01854(7) 0.55583(5)
N1 N 0.7178(6) -0.1169(6) 0.5329(4)
C1 C 0.7831(7) -0.0718(8) 0.5543(5)
H1 H 0.7758 -0.0493 0.5923
N2 N 0.8589(5) -0.0546(5) 0.5278(4)
C2 C 0.8619(6) -0.0875(6) 0.4719(4)
C3 C 0.7938(7) -0.1319(6) 0.4420(4)
C4 C 0.7225(7) -0.1489(7) 0.4729(6)
N3 N 0.6516(6) -0.1914(7) 0.4503(4)
H2 H 0.6518 -0.2088 0.4140
H3 H 0.6067 -0.2009 0.4723
N4 N 0.8188(6) -0.1530(6) 0.3866(3)
C5 C 0.8992(7) -0.1196(7) 0.3837(4)
H4 H 0.9331 -0.1230 0.3495
N5 N 0.9279(5) -0.0808(5) 0.4334(3)
O1 O 1.0184(4) -0.0915(4) 0.5819(3)
O2 O 1.0854(4) -0.1173(4) 0.4966(3)
C6 C 1.0700(6) -0.1329(6) 0.5499(4)
C7 C 1.1158(7) -0.2128(6) 0.5752(5)
H5 H 1.0984 -0.2210 0.6158
H6 H 1.1001 -0.2635 0.5525
H7 H 1.1780 -0.2045 0.5734
Cu1G Cu 0.76854(7) -0.21010(7) 0.30583(5)
Cu1H Cu 1.03990(7) -0.01854(7) 0.44417(5)
Cu1O Cu 1.23146(7) 0.21010(7) 0.69417(5)
N1H N 1.2822(6) 0.1169(6) 0.4671(4)
C1H C 1.2169(7) 0.0718(8) 0.4457(5)
H1H H 1.2242 0.0493 0.4077
N2H N 1.1411(5) 0.0546(5) 0.4722(4)
C2H C 1.1381(6) 0.0875(6) 0.5281(4)
C3H C 1.2062(7) 0.1319(6) 0.5580(4)
C4H C 1.2775(7) 0.1489(7) 0.5271(6)
N3H N 1.3484(6) 0.1914(7) 0.5497(4)
H2H H 1.3482 0.2088 0.5860
H3H H 1.3933 0.2009 0.5277
N4B N 0.9030(6) 0.0688(6) 0.6366(3)
N4H N 1.1812(6) 0.1530(6) 0.6134(3)
N4J N 1.0970(6) -0.0688(6) 0.3634(3)
C5H C 1.1008(7) 0.1196(7) 0.6163(4)
H4H H 1.0669 0.1230 0.6505
N5H N 1.0721(5) 0.0808(5) 0.5666(3)
O1H O 0.9816(4) 0.0915(4) 0.4181(3)
O2H O 0.9146(4) 0.1173(4) 0.5034(3)
C6H C 0.9300(6) 0.1329(6) 0.4501(4)
C7H C 0.8842(7) 0.2128(6) 0.4248(5)
H5H H 0.9016 0.2210 0.3842
H6H H 0.8999 0.2635 0.4475
H7H H 0.8220 0.2045 0.4266
O3 O 1.3883(17) 0.1705(17) 0.3794(12)
O4 O 1.440(2) -0.090(3) 0.4986(17)
O5 O 1.295(3) -0.079(3) 0.535(2)
O6 O 1.5000 0.2500 0.4814(13)
loop_
_geom_bond_atom_site_label_1
_geom_bond_atom_site_label_2
_geom_bond_site_symmetry_1
_geom_bond_site_symmetry_2
Cu1 N2 1_555 1_555
N1 C1 1_555 1_555
C1 H1 1_555 1_555
N2 C1 1_555 1_555
C2 N2 1_555 1_555
C3 C2 1_555 1_555
C4 N1 1_555 1_555
N3 C4 1_555 1_555
H2 N3 1_555 1_555
H3 N3 1_555 1_555
N4 C3 1_555 1_555
C5 N4 1_555 1_555
H4 C5 1_555 1_555
N5 C2 1_555 1_555
O1 Cu1 1_555 1_555
O2 C6 1_555 1_555
C6 O1 1_555 1_555
C7 C6 1_555 1_555
H5 C7 1_555 1_555
H6 C7 1_555 1_555
H7 C7 1_555 1_555
Cu1G N4 1_555 1_555
Cu1H N5 1_555 1_555
Cu1O N4H 1_555 1_555
N1H C1H 1_555 1_555
C1H H1H 1_555 1_555
N2H Cu1H 1_555 1_555
C2H N2H 1_555 1_555
C3H C2H 1_555 1_555
C4H N1H 1_555 1_555
N3H C4H 1_555 1_555
H2H N3H 1_555 1_555
H3H N3H 1_555 1_555
N4B Cu1 1_555 1_555
N4H C3H 1_555 1_555
N4J Cu1H 1_555 1_555
C5H N4H 1_555 1_555
H4H C5H 1_555 1_555
N5H Cu1 1_555 1_555
O1H Cu1H 1_555 1_555
O2H Cu1 1_555 1_555
C6H O1H 1_555 1_555
C7H C6H 1_555 1_555
H5H C7H 1_555 1_555
H6H C7H 1_555 1_555
H7H C7H 1_555 1_555
C3 C4 1_555 1_555
C5 N5 1_555 1_555
O2 Cu1H 1_555 1_555
C1H N2H 1_555 1_555
C2H N5H 1_555 1_555
C3H C4H 1_555 1_555
C5H N5H 1_555 1_555
O2H C6H 1_555 1_555

#END
