
#######################################################################
#
#                 Cambridge Crystallographic Data Centre
#                                CCDC 
#
#######################################################################
#
# If this CIF has been generated from an entry in the Cambridge 
# Structural Database, then it will include bibliographic, chemical, 
# crystal, experimental, refinement or atomic coordinate data resulting 
# from the CCDC's data processing and validation procedures.
#
#######################################################################

data_IZUPUO
_symmetry_cell_setting           tetragonal
_symmetry_space_group_name_H-M   'P 42/n'
_symmetry_Int_Tables_number      86
_space_group_name_Hall           '-P 4bc'
loop_
_symmetry_equiv_pos_site_id
_symmetry_equiv_pos_as_xyz
1 x,y,z
2 -y,1/2+x,1/2+z
3 1/2+y,-x,1/2+z
4 1/2+x,1/2+y,-z
5 -x,-y,-z
6 y,1/2-x,1/2-z
7 1/2-y,x,1/2-z
8 1/2-x,1/2-y,z
_cell_length_a                   18.6763(3)
_cell_length_b                   18.6763(3)
_cell_length_c                   11.2643(4)
_cell_angle_alpha                90
_cell_angle_beta                 90
_cell_angle_gamma                90
_cell_volume                     3929.03
loop_
_atom_site_label
_atom_site_type_symbol
_atom_site_fract_x
_atom_site_fract_y
_atom_site_fract_z
Cu1 Cu 0.2500 0.7500 0.12009(6)
Cu2 Cu 0.2500 0.7500 0.35419(6)
N1 N 0.32068(18) 0.82534(17) 0.1047(3)
C1 C 0.3876(2) 0.8134(2) 0.0666(4)
H1 H 0.3994 0.7672 0.0397
C2 C 0.4394(3) 0.8650(3) 0.0648(4)
H2 H 0.4860 0.8543 0.0386
C3 C 0.4222(3) 0.9323(3) 0.1017(5)
H3 H 0.4567 0.9690 0.0993
C4 C 0.3543(3) 0.9462(2) 0.1423(4)
H4 H 0.3420 0.9925 0.1679
C5 C 0.3038(2) 0.8919(2) 0.1456(3)
N2 N 0.19919(18) 0.84246(17) 0.2347(3)
C6 C 0.2313(2) 0.9019(2) 0.1928(4)
C7 C 0.1967(3) 0.9678(2) 0.1924(4)
H5 H 0.2200 1.0091 0.1643
C8 C 0.1271(3) 0.9712(3) 0.2344(5)
H6 H 0.1026 1.0151 0.2345
C9 C 0.0935(3) 0.9104(3) 0.2762(4)
H7 H 0.0459 0.9121 0.3034
C10 C 0.1317(2) 0.8471(2) 0.2768(4)
N3 N 0.14828(18) 0.73063(18) 0.3648(3)
C11 C 0.1012(2) 0.7801(2) 0.3247(3)
C12 C 0.0282(2) 0.7657(3) 0.3224(4)
H8 H -0.0040 0.8005 0.2948
C13 C 0.0034(3) 0.7007(3) 0.3604(4)
H9 H -0.0459 0.6906 0.3583
C14 C 0.0509(2) 0.6502(3) 0.4017(4)
H10 H 0.0348 0.6053 0.4281
C15 C 0.1230(2) 0.6674(2) 0.4032(4)
H11 H 0.1557 0.6334 0.4325
N1G N 0.17932(18) 0.67466(17) 0.1047(3)
C1G C 0.1124(2) 0.6866(2) 0.0666(4)
H1G H 0.1006 0.7328 0.0397
C2G C 0.0606(3) 0.6350(3) 0.0648(4)
H2G H 0.0140 0.6457 0.0386
C3G C 0.0778(3) 0.5677(3) 0.1017(5)
H3G H 0.0433 0.5310 0.0993
C4G C 0.1457(3) 0.5538(2) 0.1423(4)
H4G H 0.1580 0.5075 0.1679
C5G C 0.1962(2) 0.6081(2) 0.1456(3)
N2G N 0.30081(18) 0.65754(17) 0.2347(3)
C6G C 0.2687(2) 0.5981(2) 0.1928(4)
C7G C 0.3033(3) 0.5322(2) 0.1924(4)
H5G H 0.2800 0.4909 0.1643
C8G C 0.3729(3) 0.5288(3) 0.2344(5)
H6G H 0.3974 0.4849 0.2345
C9G C 0.4065(3) 0.5896(3) 0.2762(4)
H7G H 0.4541 0.5879 0.3034
C10G C 0.3683(2) 0.6529(2) 0.2768(4)
N3G N 0.35172(18) 0.76937(18) 0.3648(3)
C11G C 0.3988(2) 0.7199(2) 0.3247(3)
C12G C 0.4718(2) 0.7343(3) 0.3224(4)
H8G H 0.5040 0.6995 0.2948
C13G C 0.4966(3) 0.7993(3) 0.3604(4)
H9G H 0.5459 0.8094 0.3583
C14G C 0.4491(2) 0.8498(3) 0.4017(4)
H10G H 0.4652 0.8947 0.4281
C15G C 0.3770(2) 0.8326(2) 0.4032(4)
H11G H 0.3443 0.8666 0.4325
Cu2A Cu 0.2500 0.7500 -0.14581(6)
Cu1A Cu 0.2500 0.7500 0.62009(6)
N4 N 0.3680(3) 0.3467(4) 0.5066(6)
O1 O 0.3386(4) 0.3159(4) 0.3870(7)
O2 O 0.4127(3) 0.3917(3) 0.5089(5)
O3 O 0.3354(4) 0.3134(4) 0.6199(7)
P1 P 0.1520(3) 0.4452(5) 0.4968(7)
F1 F 0.1605(6) 0.5273(4) 0.5259(9)
F2 F 0.1996(5) 0.4554(5) 0.3868(6)
F3 F 0.2209(4) 0.4310(4) 0.5696(7)
F4 F 0.1036(5) 0.4391(4) 0.6092(7)
F5 F 0.0855(4) 0.4645(4) 0.4204(9)
F6 F 0.1410(7) 0.3656(4) 0.4711(9)
P2? P 0.1513(8) 0.4432(9) 0.4871(14)
F7? F 0.1675(9) 0.4029(8) 0.6060(10)
F8? F 0.2290(7) 0.4325(9) 0.4505(16)
F9? F 0.1382(17) 0.3699(8) 0.4271(17)
F10? F 0.0728(6) 0.4515(10) 0.5272(18)
F11? F 0.1645(14) 0.5155(8) 0.5520(15)
F12? F 0.1345(11) 0.4824(8) 0.3716(10)
loop_
_geom_bond_atom_site_label_1
_geom_bond_atom_site_label_2
_geom_bond_site_symmetry_1
_geom_bond_site_symmetry_2
Cu1 Cu2 1_555 1_555
Cu2 N2 1_555 1_555
N1 Cu1 1_555 1_555
C1 N1 1_555 1_555
H1 C1 1_555 1_555
C2 C1 1_555 1_555
H2 C2 1_555 1_555
C3 C2 1_555 1_555
H3 C3 1_555 1_555
C4 C3 1_555 1_555
H4 C4 1_555 1_555
C5 N1 1_555 1_555
N2 Cu1 1_555 1_555
C6 C5 1_555 1_555
C7 C6 1_555 1_555
H5 C7 1_555 1_555
C8 C7 1_555 1_555
H6 C8 1_555 1_555
C9 C8 1_555 1_555
H7 C9 1_555 1_555
C10 N2 1_555 1_555
N3 Cu2 1_555 1_555
C11 C10 1_555 1_555
C12 C11 1_555 1_555
H8 C12 1_555 1_555
C13 C12 1_555 1_555
H9 C13 1_555 1_555
C14 C13 1_555 1_555
H10 C14 1_555 1_555
C15 N3 1_555 1_555
H11 C15 1_555 1_555
N4 O1 1_555 1_555
O2 N4 1_555 1_555
O3 N4 1_555 1_555
P1 F1 1_555 1_555
F2 P1 1_555 1_555
F3 P1 1_555 1_555
F4 P1 1_555 1_555
F5 P1 1_555 1_555
F6 P1 1_555 1_555
N1G Cu1 1_555 1_555
C1G N1G 1_555 1_555
H1G C1G 1_555 1_555
C2G C1G 1_555 1_555
H2G C2G 1_555 1_555
C3G C2G 1_555 1_555
H3G C3G 1_555 1_555
C4G C3G 1_555 1_555
H4G C4G 1_555 1_555
C5G N1G 1_555 1_555
N2G Cu1 1_555 1_555
C6G C5G 1_555 1_555
C7G C6G 1_555 1_555
H5G C7G 1_555 1_555
C8G C7G 1_555 1_555
H6G C8G 1_555 1_555
C9G C8G 1_555 1_555
H7G C9G 1_555 1_555
C10G N2G 1_555 1_555
N3G Cu2 1_555 1_555
C11G C10G 1_555 1_555
C12G C11G 1_555 1_555
H8G C12G 1_555 1_555
C13G C12G 1_555 1_555
H9G C13G 1_555 1_555
C14G C13G 1_555 1_555
H10G C14G 1_555 1_555
C15G N3G 1_555 1_555
H11G C15G 1_555 1_555
Cu2A Cu1 1_555 1_555
Cu1A Cu2 1_555 1_555
Cu2 N2G 1_555 1_555
C4 C5 1_555 1_555
N2 C6 1_555 1_555
C9 C10 1_555 1_555
N3 C11 1_555 1_555
C14 C15 1_555 1_555
C4G C5G 1_555 1_555
N2G C6G 1_555 1_555
C9G C10G 1_555 1_555
N3G C11G 1_555 1_555
C14G C15G 1_555 1_555

#END
