
#######################################################################
#
#                 Cambridge Crystallographic Data Centre
#                                CCDC 
#
#######################################################################
#
# If this CIF has been generated from an entry in the Cambridge 
# Structural Database, then it will include bibliographic, chemical, 
# crystal, experimental, refinement or atomic coordinate data resulting 
# from the CCDC's data processing and validation procedures.
#
#######################################################################

data_IZUPOI
_symmetry_cell_setting           tetragonal
_symmetry_space_group_name_H-M   'I -4'
_symmetry_Int_Tables_number      82
_space_group_name_Hall           'I -4'
loop_
_symmetry_equiv_pos_site_id
_symmetry_equiv_pos_as_xyz
1 x,y,z
2 -x,-y,z
3 y,-x,-z
4 -y,x,-z
5 1/2+x,1/2+y,1/2+z
6 1/2-x,1/2-y,1/2+z
7 1/2+y,1/2-x,1/2-z
8 1/2-y,1/2+x,1/2-z
_cell_length_a                   11.7108(2)
_cell_length_b                   11.7108(2)
_cell_length_c                   13.0325(5)
_cell_angle_alpha                90
_cell_angle_beta                 90
_cell_angle_gamma                90
_cell_volume                     1787.31
loop_
_atom_site_label
_atom_site_type_symbol
_atom_site_fract_x
_atom_site_fract_y
_atom_site_fract_z
Cu1 Cu 0.10928(4) 0.39097(3) 0.18489(3)
O1 O 0.1000(2) 0.5579(2) 0.1746(2)
O2 O 0.1137(3) 0.2262(2) 0.1798(3)
O3 O -0.0618(3) 0.1963(3) 0.2441(4)
N1 N 0.1437(3) 0.4059(3) 0.0361(3)
C1 C 0.1460(4) 0.3203(4) -0.0329(3)
H1 H 0.1352 0.2448 -0.0104
C2 C 0.1639(4) 0.3406(4) -0.1357(4)
H2 H 0.1661 0.2798 -0.1828
C3 C 0.1785(4) 0.4516(5) -0.1685(4)
H3 H 0.1896 0.4675 -0.2385
C4 C 0.1767(4) 0.5394(4) -0.0973(4)
H4 H 0.1867 0.6156 -0.1184
C5 C 0.1598(3) 0.5136(3) 0.0049(3)
C6 C 0.1588(4) 0.6011(3) 0.0900(3)
H5 H 0.2374 0.6199 0.1097
H6 H 0.1217 0.6712 0.0659
C7 C 0.0291(4) 0.1635(3) 0.2076(3)
C8 C 0.0533(4) 0.0361(3) 0.1958(6)
H7 H 0.111(7) 0.026(7) 0.251(6)
H8 H 0.082(7) 0.033(8) 0.135(7)
C8A C -0.0533(4) -0.0361(3) 0.1958(6)
C7A C -0.0291(4) -0.1635(3) 0.2076(3)
O2A O -0.1137(3) -0.2262(2) 0.1798(3)
O3A O 0.0618(3) -0.1963(3) 0.2441(4)
H7A H -0.111(7) -0.026(7) 0.251(6)
H8A H -0.082(7) -0.033(8) 0.135(7)
O1F O 0.0579(2) 0.4000(2) 0.3254(2)
N1F N -0.0941(3) 0.3563(3) 0.4639(3)
C1F C -0.1797(4) 0.3540(4) 0.5329(3)
H1F H -0.2552 0.3648 0.5104
C2F C -0.1594(4) 0.3361(4) 0.6357(4)
H2F H -0.2202 0.3339 0.6828
C3F C -0.0484(5) 0.3215(4) 0.6685(4)
H3F H -0.0325 0.3104 0.7385
C4F C 0.0394(4) 0.3233(4) 0.5973(4)
H4F H 0.1156 0.3133 0.6184
C5F C 0.0136(3) 0.3402(3) 0.4951(3)
C6F C 0.1011(3) 0.3412(4) 0.4100(3)
H5F H 0.1199 0.2626 0.3903
H6F H 0.1712 0.3783 0.4341
Cu1F Cu -0.10903(3) 0.39072(4) 0.31511(3)
Cu1G Cu 0.10903(3) 0.60928(4) 0.31511(3)
Cu1A Cu -0.10928(4) -0.39097(3) 0.18489(3)
O1A O -0.1000(2) 0.4421(2) 0.1746(2)
N1A N -0.1437(3) 0.5941(3) 0.0361(3)
C1A C -0.1460(4) 0.6797(4) -0.0329(3)
H1A H -0.1352 0.7552 -0.0104
C2A C -0.1639(4) 0.6594(4) -0.1357(4)
H2A H -0.1661 0.7202 -0.1828
C3A C -0.1785(4) 0.5484(5) -0.1685(4)
H3A H -0.1896 0.5325 -0.2385
C4A C -0.1767(4) 0.4606(4) -0.0973(4)
H4A H -0.1867 0.3844 -0.1184
C5A C -0.1598(3) 0.4864(3) 0.0049(3)
C6A C -0.1588(4) 0.3989(3) 0.0900(3)
H5A H -0.2374 0.3801 0.1097
H6A H -0.1217 0.3288 0.0659
O2F O -0.2738(2) 0.3863(3) 0.3202(3)
O3F O -0.3037(3) 0.5618(3) 0.2559(4)
C7F C -0.3365(3) 0.4709(4) 0.2924(3)
C8F C -0.4639(3) 0.4467(4) 0.3042(6)
H7F H -0.474(7) 0.389(7) 0.249(6)
H8F H -0.467(8) 0.418(7) 0.365(7)
C8G C -0.5361(3) 0.5533(4) 0.3042(6)
C7G C -0.6635(3) 0.5291(4) 0.2924(3)
O2G O -0.7262(2) 0.6137(3) 0.3202(3)
O3G O -0.6963(3) 0.4382(3) 0.2559(4)
H7G H -0.526(7) 0.611(7) 0.249(6)
H8G H -0.533(8) 0.582(7) 0.365(7)
O1G O -0.0579(2) 0.6000(2) 0.3254(2)
N1G N 0.0941(3) 0.6437(3) 0.4639(3)
C1G C 0.1797(4) 0.6460(4) 0.5329(3)
H1G H 0.2552 0.6352 0.5104
C2G C 0.1594(4) 0.6639(4) 0.6357(4)
H2G H 0.2202 0.6661 0.6828
C3G C 0.0484(5) 0.6785(4) 0.6685(4)
H3G H 0.0325 0.6896 0.7385
C4G C -0.0394(4) 0.6767(4) 0.5973(4)
H4G H -0.1156 0.6867 0.6184
C5G C -0.0136(3) 0.6598(3) 0.4951(3)
C6G C -0.1011(3) 0.6588(4) 0.4100(3)
H5G H -0.1199 0.7374 0.3903
H6G H -0.1712 0.6217 0.4341
O2G_2 O 0.2738(2) 0.6137(3) 0.3202(3)
O1A_2 O -0.1000(2) -0.5579(2) 0.1746(2)
O1G_2 O -0.0579(2) -0.4000(2) 0.3254(2)
N1A_2 N -0.1437(3) -0.4059(3) 0.0361(3)
Cu1A_2 Cu -0.10928(4) 0.60903(3) 0.18489(3)
Cu1G_2 Cu -0.89097(3) 0.60928(4) 0.31511(3)
O4 O 0.5000 0.5000 0.0000
loop_
_geom_bond_atom_site_label_1
_geom_bond_atom_site_label_2
_geom_bond_site_symmetry_1
_geom_bond_site_symmetry_2
Cu1 O1 1_555 1_555
O1 C6 1_555 1_555
O2 Cu1 1_555 1_555
O3 C7 1_555 1_555
N1 Cu1 1_555 1_555
C1 N1 1_555 1_555
H1 C1 1_555 1_555
C2 C1 1_555 1_555
H2 C2 1_555 1_555
C3 C2 1_555 1_555
H3 C3 1_555 1_555
C4 C3 1_555 1_555
H4 C4 1_555 1_555
C5 N1 1_555 1_555
C6 C5 1_555 1_555
H5 C6 1_555 1_555
H6 C6 1_555 1_555
C7 O2 1_555 1_555
C8 C7 1_555 1_555
H7 C8 1_555 1_555
H8 C8 1_555 1_555
C8A C8 1_555 1_555
C7A C8A 1_555 1_555
O2A C7A 1_555 1_555
O3A C7A 1_555 1_555
H7A C8A 1_555 1_555
H8A C8A 1_555 1_555
O1F Cu1 1_555 1_555
N1F C1F 1_555 1_555
C1F H1F 1_555 1_555
C2F C1F 1_555 1_555
H2F C2F 1_555 1_555
C3F C2F 1_555 1_555
H3F C3F 1_555 1_555
C4F C3F 1_555 1_555
H4F C4F 1_555 1_555
C5F N1F 1_555 1_555
C6F O1F 1_555 1_555
H5F C6F 1_555 1_555
H6F C6F 1_555 1_555
Cu1F O1F 1_555 1_555
Cu1G O1 1_555 1_555
Cu1A O2A 1_555 1_555
O1A Cu1F 1_555 1_555
N1A C1A 1_555 1_555
C1A H1A 1_555 1_555
C2A C1A 1_555 1_555
H2A C2A 1_555 1_555
C3A C2A 1_555 1_555
H3A C3A 1_555 1_555
C4A C3A 1_555 1_555
H4A C4A 1_555 1_555
C5A N1A 1_555 1_555
C6A O1A 1_555 1_555
H5A C6A 1_555 1_555
H6A C6A 1_555 1_555
O2F Cu1F 1_555 1_555
O3F C7F 1_555 1_555
C7F O2F 1_555 1_555
C8F C7F 1_555 1_555
H7F C8F 1_555 1_555
H8F C8F 1_555 1_555
C8G C8F 1_555 1_555
C7G C8G 1_555 1_555
O2G C7G 1_555 1_555
O3G C7G 1_555 1_555
H7G C8G 1_555 1_555
H8G C8G 1_555 1_555
O1G Cu1G 1_555 1_555
N1G Cu1G 1_555 1_555
C1G N1G 1_555 1_555
H1G C1G 1_555 1_555
C2G C1G 1_555 1_555
H2G C2G 1_555 1_555
C3G C2G 1_555 1_555
H3G C3G 1_555 1_555
C4G C3G 1_555 1_555
H4G C4G 1_555 1_555
C5G N1G 1_555 1_555
C6G O1G 1_555 1_555
H5G C6G 1_555 1_555
H6G C6G 1_555 1_555
O2G_2 Cu1G 1_555 1_555
O1A_2 Cu1A 1_555 1_555
O1G_2 Cu1A 1_555 1_555
N1A_2 Cu1A 1_555 1_555
Cu1A_2 O1A 1_555 1_555
Cu1G_2 O2G 1_555 1_555
C4 C5 1_555 1_555
N1F Cu1F 1_555 1_555
C4F C5F 1_555 1_555
C5F C6F 1_555 1_555
N1A Cu1A_2 1_555 1_555
C4A C5A 1_555 1_555
C5A C6A 1_555 1_555
O1G Cu1A_2 1_555 1_555
C4G C5G 1_555 1_555
C5G C6G 1_555 1_555

#END
