
#######################################################################
#
#                 Cambridge Crystallographic Data Centre
#                                CCDC 
#
#######################################################################
#
# If this CIF has been generated from an entry in the Cambridge 
# Structural Database, then it will include bibliographic, chemical, 
# crystal, experimental, refinement or atomic coordinate data resulting 
# from the CCDC's data processing and validation procedures.
#
#######################################################################

data_IZUVAB
_symmetry_cell_setting           monoclinic
_symmetry_space_group_name_H-M   'P 21'
_symmetry_Int_Tables_number      4
_space_group_name_Hall           'P 2yb'
loop_
_symmetry_equiv_pos_site_id
_symmetry_equiv_pos_as_xyz
1 x,y,z
2 -x,1/2+y,-z
_cell_length_a                   12.5882(9)
_cell_length_b                   29.285(2)
_cell_length_c                   6.5904(4)
_cell_angle_alpha                90
_cell_angle_beta                 92.885(2)
_cell_angle_gamma                90
_cell_volume                     2426.44
loop_
_atom_site_label
_atom_site_type_symbol
_atom_site_fract_x
_atom_site_fract_y
_atom_site_fract_z
I1 I 0.62777 0.93441 -0.64386
I2 I 0.81509 0.94242 -0.41612
Zn1 Zn 0.75142 0.44529 -0.73893
I3 I 0.56917 0.45185 -0.91473
I4 I 0.93389 0.44012 -0.89270
N1 N 0.75233 0.49375 -0.50212
N2 N 0.74861 0.39092 -0.50099
C1 C 0.83787 0.50762 -0.40971
C2 C 0.66412 0.50373 -0.43342
C3 C 0.84661 0.37847 -0.39155
C4 C 0.66737 0.38027 -0.43581
C5 C 0.84210 0.53540 -0.23380
C6 C 0.65214 0.52915 -0.26475
C7 C 0.85268 0.35453 -0.23209
C8 C 0.66597 0.35488 -0.25999
C9 C 0.75077 0.54756 -0.15869
C10 C 0.76385 0.34109 -0.15723
C11 C 0.74309 0.57615 0.02922
C12 C 0.75925 0.31444 0.02623
N3 N 0.82201 0.59323 0.09366
N4 N 0.65047 0.57462 0.11715
N5 N 0.83707 0.29603 0.09224
N6 N 0.67245 0.31113 0.09854
C13 C 0.81402 0.61303 0.29368
C14 C 0.65487 0.59423 0.30079
C15 C 0.82090 0.27159 0.24662
C16 C 0.67144 0.28484 0.24946
N7 N 0.73219 0.61371 0.38954
C17 C 0.92146 0.61759 0.42078
C18 C 0.54307 0.60517 0.39114
N8 N 0.74009 0.26498 0.32251
C19 C 0.91004 0.25917 0.36191
C20 C 0.57828 0.28435 0.35967
C21 C 1.02927 0.59982 0.34043
C22 C 0.92836 0.64123 0.59215
C23 C 0.53370 0.64562 0.52508
C24 C 0.44386 0.57129 0.35567
C25 C 1.00845 0.27435 0.30095
C26 C 0.90288 0.24083 0.54952
C27 C 0.57579 0.25537 0.54899
C28 C 0.48087 0.31328 0.29328
C29 C 1.12595 0.61265 0.45192
C30 C 1.02239 0.65002 0.68329
C31 C 0.44706 0.65189 0.61803
C32 C 0.34990 0.58190 0.46525
C33 C 1.09782 0.26911 0.43062
C34 C 0.99067 0.23790 0.66397
C35 C 0.49085 0.25548 0.66443
C36 C 0.38374 0.31036 0.43603
N9 N 1.12393 0.63590 0.60960
N10 N 0.34817 0.62028 0.59737
N11 N 1.09140 0.25095 0.60539
N12 N 0.39082 0.28310 0.61922
Zn2 Zn 1.24297 0.62199 0.81509
Zn3 Zn 1.25344 0.27230 0.80747
I5 I 1.27637 0.68559 1.05010
I6 I 1.21618 0.53857 0.95717
I7 I 1.28132 0.20310 1.05149
I8 I 1.19839 0.34449 0.94437
N10_2 N 1.34817 0.62028 0.59737
N12_2 N 1.39082 0.28310 0.61922
Zn2_2 Zn 0.24297 0.62199 0.81509
Zn3_2 Zn 0.25344 0.27230 0.80747
loop_
_geom_bond_atom_site_label_1
_geom_bond_atom_site_label_2
_geom_bond_site_symmetry_1
_geom_bond_site_symmetry_2
I1 I2 1_555 1_555
Zn1 I3 1_555 1_555
I4 Zn1 1_555 1_555
N1 Zn1 1_555 1_555
N2 Zn1 1_555 1_555
C1 N1 1_555 1_555
C2 N1 1_555 1_555
C3 N2 1_555 1_555
C4 N2 1_555 1_555
C5 C1 1_555 1_555
C6 C2 1_555 1_555
C7 C3 1_555 1_555
C8 C4 1_555 1_555
C9 C5 1_555 1_555
C10 C7 1_555 1_555
C11 C9 1_555 1_555
C12 C10 1_555 1_555
N3 C11 1_555 1_555
N4 C11 1_555 1_555
N5 C12 1_555 1_555
N6 C12 1_555 1_555
C13 N3 1_555 1_555
C14 N4 1_555 1_555
C15 N5 1_555 1_555
C16 N6 1_555 1_555
N7 C13 1_555 1_555
C17 C13 1_555 1_555
C18 C14 1_555 1_555
N8 C15 1_555 1_555
C19 C15 1_555 1_555
C20 C16 1_555 1_555
C21 C17 1_555 1_555
C22 C17 1_555 1_555
C23 C18 1_555 1_555
C24 C18 1_555 1_555
C25 C19 1_555 1_555
C26 C19 1_555 1_555
C27 C20 1_555 1_555
C28 C20 1_555 1_555
C29 C21 1_555 1_555
C30 C22 1_555 1_555
C31 C23 1_555 1_555
C32 C24 1_555 1_555
C33 C25 1_555 1_555
C34 C26 1_555 1_555
C35 C27 1_555 1_555
C36 C28 1_555 1_555
N9 C29 1_555 1_555
N10 C31 1_555 1_555
N11 C33 1_555 1_555
N12 C35 1_555 1_555
Zn2 N9 1_555 1_555
Zn3 N11 1_555 1_555
I5 Zn2 1_555 1_555
I6 Zn2 1_555 1_555
I7 Zn3 1_555 1_555
I8 Zn3 1_555 1_555
N10_2 Zn2 1_555 1_555
N12_2 Zn3 1_555 1_555
Zn2_2 N10 1_555 1_555
Zn3_2 N12 1_555 1_555
C6 C9 1_555 1_555
C8 C10 1_555 1_555
C14 N7 1_555 1_555
C16 N8 1_555 1_555
C30 N9 1_555 1_555
C32 N10 1_555 1_555
C34 N11 1_555 1_555
C36 N12 1_555 1_555

#END
