
#######################################################################
#
#                 Cambridge Crystallographic Data Centre
#                                CCDC 
#
#######################################################################
#
# If this CIF has been generated from an entry in the Cambridge 
# Structural Database, then it will include bibliographic, chemical, 
# crystal, experimental, refinement or atomic coordinate data resulting 
# from the CCDC's data processing and validation procedures.
#
#######################################################################

data_IZUVOP
_symmetry_cell_setting           monoclinic
_symmetry_space_group_name_H-M   'P 21/n'
_symmetry_Int_Tables_number      14
_space_group_name_Hall           '-P 2yn'
loop_
_symmetry_equiv_pos_site_id
_symmetry_equiv_pos_as_xyz
1 x,y,z
2 1/2-x,1/2+y,1/2-z
3 -x,-y,-z
4 1/2+x,1/2-y,1/2+z
_cell_length_a                   11.759(4)
_cell_length_b                   9.403(3)
_cell_length_c                   19.364(7)
_cell_angle_alpha                90
_cell_angle_beta                 100.515(4)
_cell_angle_gamma                90
_cell_volume                     2105.12
loop_
_atom_site_label
_atom_site_type_symbol
_atom_site_fract_x
_atom_site_fract_y
_atom_site_fract_z
Zn1 Zn 0.04394(4) -0.19164(5) 0.84227(2)
Zn2 Zn 1.01149(4) 0.39635(5) 0.80054(2)
Cl1 Cl 0.88062(10) 0.45295(14) 0.70824(5)
Cl2 Cl 1.12848(9) 0.58977(10) 0.84204(5)
Cl3 Cl -0.09435(9) -0.16499(11) 0.90239(5)
Cl4 Cl 1.13170(9) 0.21963(10) 0.79137(5)
N1 N 0.5087(3) 0.6196(3) 1.24215(15)
N2 N 0.5563(3) 0.1961(3) 0.95687(15)
N3 N 0.4405(3) 0.2792(3) 1.03687(15)
N4 N 0.6224(3) 0.3852(3) 1.03494(15)
N5 N 0.9166(3) 0.3534(3) 0.87745(16)
N6 N 0.1848(3) -0.0760(3) 0.88978(15)
C1 C 0.4253(3) 0.5261(4) 1.21859(19)
H1 H 0.3635 0.5158 1.2437
C2 C 0.2866(3) -0.0748(4) 0.86664(19)
H2 H 0.2957 -0.1363 0.8291
C3 C 0.4601(3) 0.1968(4) 0.98392(18)
C4 C 0.2619(3) 0.0968(4) 0.97565(19)
H3 H 0.2512 0.1554 1.0139
C5 C 0.3778(3) 0.0116(4) 0.89510(18)
H4 H 0.4475 0.0115 0.8768
C6 C 0.5146(3) 0.4602(4) 1.12238(18)
C7 C 0.8539(4) 0.2328(4) 0.8705(2)
H5 H 0.8724 0.1614 0.8397
C8 C 0.7376(3) 0.3114(4) 0.95045(18)
C9 C 0.5991(3) 0.5624(4) 1.14509(19)
H6 H 0.6603 0.5783 1.1201
C10 C 0.4245(3) 0.4439(4) 1.15970(19)
H7 H 0.3640 0.3777 1.1448
C11 C 0.7649(4) 0.2076(4) 0.9056(2)
H8 H 0.7229 0.1208 0.8992
C12 C 0.8921(3) 0.4506(4) 0.92316(19)
H9 H 0.9368 0.5354 0.9297
C13 C 0.3655(3) 0.0994(4) 0.95162(18)
C14 C 0.1741(4) 0.0087(4) 0.94376(19)
H10 H 0.1033 0.0081 0.9608
C15 C 0.8053(3) 0.4325(4) 0.96083(18)
H11 H 0.7917 0.5025 0.9938
C16 C 0.5919(3) 0.6395(4) 1.20425(19)
H12 H 0.6487 0.7105 1.2191
C17 C 0.6339(3) 0.2953(4) 0.98337(19)
C18 C 0.5260(3) 0.3690(4) 1.06133(18)
Zn1_2 Zn 1.04394(4) 0.80836(5) 0.84227(2)
Zn1C Zn 0.54394(4) 0.69164(5) 1.34227(2)
Cl2_2 Cl 0.12848(9) -0.41023(10) 0.84204(5)
N1C N 0.0087(3) -0.1196(3) 0.74215(15)
loop_
_geom_bond_atom_site_label_1
_geom_bond_atom_site_label_2
_geom_bond_site_symmetry_1
_geom_bond_site_symmetry_2
Zn1 Cl3 1_555 1_555
Zn2 Cl1 1_555 1_555
Cl2 Zn2 1_555 1_555
Cl4 Zn2 1_555 1_555
N1 C1 1_555 1_555
N2 C3 1_555 1_555
N3 C3 1_555 1_555
N4 C17 1_555 1_555
N5 Zn2 1_555 1_555
N6 Zn1 1_555 1_555
C1 H1 1_555 1_555
C2 N6 1_555 1_555
H2 C2 1_555 1_555
C3 C13 1_555 1_555
C4 H3 1_555 1_555
C5 C2 1_555 1_555
H4 C5 1_555 1_555
C6 C9 1_555 1_555
C7 N5 1_555 1_555
H5 C7 1_555 1_555
C8 C11 1_555 1_555
C9 H6 1_555 1_555
C10 C1 1_555 1_555
H7 C10 1_555 1_555
C11 C7 1_555 1_555
H8 C11 1_555 1_555
C12 N5 1_555 1_555
H9 C12 1_555 1_555
C13 C4 1_555 1_555
C14 N6 1_555 1_555
H10 C14 1_555 1_555
C15 C8 1_555 1_555
H11 C15 1_555 1_555
C16 N1 1_555 1_555
H12 C16 1_555 1_555
C17 N2 1_555 1_555
C18 N3 1_555 1_555
Zn1_2 Cl2 1_555 1_555
Zn1C N1 1_555 1_555
Cl2_2 Zn1 1_555 1_555
N1C Zn1 1_555 1_555
N4 C18 1_555 1_555
C4 C14 1_555 1_555
C5 C13 1_555 1_555
C6 C10 1_555 1_555
C6 C18 1_555 1_555
C8 C17 1_555 1_555
C9 C16 1_555 1_555
C12 C15 1_555 1_555

#END
