
#######################################################################
#
#                 Cambridge Crystallographic Data Centre
#                                CCDC 
#
#######################################################################
#
# If this CIF has been generated from an entry in the Cambridge 
# Structural Database, then it will include bibliographic, chemical, 
# crystal, experimental, refinement or atomic coordinate data resulting 
# from the CCDC's data processing and validation procedures.
#
#######################################################################

data_JABSIP
_symmetry_cell_setting           monoclinic
_symmetry_space_group_name_H-M   'P 21/c'
_symmetry_Int_Tables_number      14
_space_group_name_Hall           '-P 2ybc'
loop_
_symmetry_equiv_pos_site_id
_symmetry_equiv_pos_as_xyz
1 x,y,z
2 x,1/2-y,1/2+z
3 -x,-y,-z
4 -x,1/2+y,1/2-z
_cell_length_a                   12.238(4)
_cell_length_b                   17.342(6)
_cell_length_c                   17.749(3)
_cell_angle_alpha                90.00
_cell_angle_beta                 94.80(2)
_cell_angle_gamma                90.00
_cell_volume                     3753.68
loop_
_atom_site_label
_atom_site_type_symbol
_atom_site_fract_x
_atom_site_fract_y
_atom_site_fract_z
Ag1 Ag 0.00176(5) 0.55131(4) 0.13415(5)
Ag2 Ag 0.07617(6) 0.20369(4) 0.05045(4)
O1 O -0.0434(7) 0.3061(5) 0.0979(7)
O2 O -0.0492(7) 0.4078(4) 0.1538(4)
O3 O -0.0005(6) 0.4144(8) 0.0437(5)
O4 O 0.2287(7) 0.2792(5) 0.1108(4)
O5 O 0.3091(8) 0.1778(5) 0.0788(6)
O6 O 0.3833(7) 0.2485(7) 0.1676(5)
N1 N 0.1787(4) 0.5415(4) 0.1585(4)
N2 N -0.1706(5) 0.5832(4) 0.1249(4)
N3 N -0.0902(5) 0.7888(4) 0.0756(4)
N4 N 0.0406(5) 0.6225(4) 0.3934(4)
N5 N -0.0291(6) 0.3772(5) 0.0966(6)
N6 N 0.3091(7) 0.2361(7) 0.1201(5)
C1 C 0.2224(6) 0.4698(5) 0.1579(5)
H1 H 0.1763 0.4282 0.1459
C2 C 0.3323(7) 0.4564(5) 0.1744(5)
H2 H 0.3607 0.4067 0.1740
C3 C 0.3984(7) 0.5179(6) 0.1913(6)
H3 H 0.4734 0.5107 0.2021
C4 C 0.3548(6) 0.5907(5) 0.1925(5)
H4 H 0.3998 0.6330 0.2042
C5 C 0.2436(6) 0.6004(4) 0.1764(4)
C6 C 0.1918(7) 0.6794(4) 0.1763(5)
H5 H 0.2432 0.7153 0.2019
H6 H 0.1273 0.6773 0.2045
C7 C -0.2195(7) 0.5880(6) 0.0550(6)
H7 H -0.1771 0.5802 0.0146
C8 C -0.3286(7) 0.6039(7) 0.0395(6)
H8 H -0.3604 0.6058 -0.0099
C9 C -0.3895(7) 0.6169(6) 0.1006(6)
H9 H -0.4641 0.6277 0.0929
C10 C -0.3395(7) 0.6137(5) 0.1717(6)
H10 H -0.3803 0.6231 0.2126
C11 C -0.2292(6) 0.5968(4) 0.1844(5)
C12 C -0.1743(7) 0.5957(5) 0.2617(5)
H11 H -0.2159 0.6279 0.2936
H12 H -0.1024 0.6189 0.2602
C13 C -0.1929(8) 0.7896(5) 0.1005(6)
H13 H -0.2533 0.7882 0.0651
C14 C -0.2101(9) 0.7924(6) 0.1754(7)
H14 H -0.2812 0.7929 0.1904
C15 C -0.1222(11) 0.7945(5) 0.2283(6)
H15 H -0.1323 0.7961 0.2796
C16 C -0.0189(9) 0.7943(5) 0.2038(5)
H16 H 0.0418 0.7962 0.2389
C17 C -0.0039(7) 0.7912(4) 0.1282(4)
C18 C 0.1062(6) 0.7893(4) 0.0982(4)
H17 H 0.0997 0.8102 0.0473
H18 H 0.1550 0.8228 0.1291
C19 C 0.1587(6) 0.7095(4) 0.0961(4)
H19 H 0.1026 0.6743 0.0733
C20 C 0.2540(6) 0.7081(5) 0.0463(4)
C21 C 0.3280(7) 0.7674(7) 0.0451(6)
H20 H 0.3213 0.8104 0.0756
C22 C 0.4148(8) 0.7628(9) -0.0029(8)
H21 H 0.4647 0.8032 -0.0035
C23 C 0.4263(9) 0.7009(10) -0.0477(7)
H22 H 0.4834 0.6992 -0.0791
C24 C 0.3546(9) 0.6411(9) -0.0472(6)
H23 H 0.3617 0.5986 -0.0784
C25 C 0.2688(7) 0.6442(6) 0.0017(5)
H24 H 0.2215 0.6025 0.0038
C26 C 0.1452(7) 0.6465(6) 0.3909(5)
H25 H 0.1616 0.6979 0.4019
C27 C 0.2277(8) 0.5990(7) 0.3731(5)
H26 H 0.2991 0.6175 0.3736
C28 C 0.2055(8) 0.5258(7) 0.3550(6)
H27 H 0.2611 0.4927 0.3427
C29 C 0.0999(7) 0.4999(5) 0.3547(6)
H28 H 0.0828 0.4493 0.3409
C30 C 0.0182(6) 0.5497(5) 0.3752(5)
C31 C -0.0981(6) 0.5206(5) 0.3778(5)
H29 H -0.1374 0.5546 0.4095
H30 H -0.0964 0.4697 0.4005
C32 C -0.1600(7) 0.5164(5) 0.2990(5)
H31 H -0.1143 0.4859 0.2673
C33 C -0.2677(7) 0.4728(5) 0.3016(6)
C34 C -0.2900(8) 0.4114(6) 0.2543(6)
H32 H -0.2407 0.3977 0.2195
C35 C -0.3882(11) 0.3689(7) 0.2583(8)
H33 H -0.4045 0.3279 0.2256
C36 C -0.4586(11) 0.3889(10) 0.3110(10)
H34 H -0.5210 0.3593 0.3158
C37 C -0.4390(10) 0.4512(10) 0.3562(9)
H35 H -0.4892 0.4658 0.3901
C38 C -0.3424(9) 0.4932(7) 0.3514(7)
H36 H -0.3285 0.5358 0.3826
N3B N 0.0902(5) 0.2112(4) -0.0756(4)
N4C N -0.0406(5) 0.1225(4) 0.1066(4)
Ag2B Ag -0.07617(6) 0.79631(4) -0.05045(4)
Ag2C Ag -0.07617(6) 0.70369(4) 0.44955(4)
loop_
_geom_bond_atom_site_label_1
_geom_bond_atom_site_label_2
_geom_bond_site_symmetry_1
_geom_bond_site_symmetry_2
Ag1 O2 1_555 1_555
Ag2 O1 1_555 1_555
O1 N5 1_555 1_555
O2 N5 1_555 1_555
O3 N5 1_555 1_555
O4 Ag2 1_555 1_555
O5 N6 1_555 1_555
O6 N6 1_555 1_555
N1 Ag1 1_555 1_555
N2 Ag1 1_555 1_555
N3 C13 1_555 1_555
N4 C26 1_555 1_555
N6 O4 1_555 1_555
C1 N1 1_555 1_555
H1 C1 1_555 1_555
C2 C1 1_555 1_555
H2 C2 1_555 1_555
C3 C2 1_555 1_555
H3 C3 1_555 1_555
C4 C3 1_555 1_555
H4 C4 1_555 1_555
C5 N1 1_555 1_555
C6 C5 1_555 1_555
H5 C6 1_555 1_555
H6 C6 1_555 1_555
C7 N2 1_555 1_555
H7 C7 1_555 1_555
C8 C7 1_555 1_555
H8 C8 1_555 1_555
C9 C8 1_555 1_555
H9 C9 1_555 1_555
C10 C9 1_555 1_555
H10 C10 1_555 1_555
C11 N2 1_555 1_555
C12 C11 1_555 1_555
H11 C12 1_555 1_555
H12 C12 1_555 1_555
C13 H13 1_555 1_555
C14 C13 1_555 1_555
H14 C14 1_555 1_555
C15 C14 1_555 1_555
H15 C15 1_555 1_555
C16 C15 1_555 1_555
H16 C16 1_555 1_555
C17 N3 1_555 1_555
C18 C17 1_555 1_555
H17 C18 1_555 1_555
H18 C18 1_555 1_555
C19 C6 1_555 1_555
H19 C19 1_555 1_555
C20 C19 1_555 1_555
C21 C20 1_555 1_555
H20 C21 1_555 1_555
C22 C21 1_555 1_555
H21 C22 1_555 1_555
C23 C22 1_555 1_555
H22 C23 1_555 1_555
C24 C23 1_555 1_555
H23 C24 1_555 1_555
C25 C20 1_555 1_555
H24 C25 1_555 1_555
C26 H25 1_555 1_555
C27 C26 1_555 1_555
H26 C27 1_555 1_555
C28 C27 1_555 1_555
H27 C28 1_555 1_555
C29 C28 1_555 1_555
H28 C29 1_555 1_555
C30 N4 1_555 1_555
C31 C30 1_555 1_555
H29 C31 1_555 1_555
H30 C31 1_555 1_555
C32 C12 1_555 1_555
H31 C32 1_555 1_555
C33 C32 1_555 1_555
C34 C33 1_555 1_555
H32 C34 1_555 1_555
C35 C34 1_555 1_555
H33 C35 1_555 1_555
C36 C35 1_555 1_555
H34 C36 1_555 1_555
C37 C36 1_555 1_555
H35 C37 1_555 1_555
C38 C33 1_555 1_555
H36 C38 1_555 1_555
N3B Ag2 1_555 1_555
N4C Ag2 1_555 1_555
Ag2B N3 1_555 1_555
Ag2C N4 1_555 1_555
C4 C5 1_555 1_555
C10 C11 1_555 1_555
C16 C17 1_555 1_555
C18 C19 1_555 1_555
C24 C25 1_555 1_555
C29 C30 1_555 1_555
C31 C32 1_555 1_555
C37 C38 1_555 1_555

#END
