
#######################################################################
#
#                 Cambridge Crystallographic Data Centre
#                                CCDC 
#
#######################################################################
#
# If this CIF has been generated from an entry in the Cambridge 
# Structural Database, then it will include bibliographic, chemical, 
# crystal, experimental, refinement or atomic coordinate data resulting 
# from the CCDC's data processing and validation procedures.
#
#######################################################################

data_JABTAI
_symmetry_cell_setting           monoclinic
_symmetry_space_group_name_H-M   'P 2/c'
_symmetry_Int_Tables_number      13
_space_group_name_Hall           '-P 2yc'
loop_
_symmetry_equiv_pos_site_id
_symmetry_equiv_pos_as_xyz
1 x,y,z
2 x,-y,1/2+z
3 -x,-y,-z
4 -x,y,1/2-z
_cell_length_a                   9.979(2)
_cell_length_b                   9.886(2)
_cell_length_c                   15.298(3)
_cell_angle_alpha                90
_cell_angle_beta                 102.86(3)
_cell_angle_gamma                90
_cell_volume                     1471.33
loop_
_atom_site_label
_atom_site_type_symbol
_atom_site_fract_x
_atom_site_fract_y
_atom_site_fract_z
V1 V 0.78692(9) 0.58325(9) 0.04335(6)
V2 V 0.67425(9) 0.66620(9) 0.24366(6)
P1 P 1.09553(13) 0.46710(14) 0.13733(9)
O1 O 0.7091(4) 0.4463(3) 0.0080(3)
O2 O 0.6991(4) 0.6057(4) 0.1478(3)
O3 O 0.9519(4) 0.5259(4) 0.1337(3)
O4 O 1.1256(5) 0.3613(4) 0.2155(3)
H1 H 1.1087 0.3878 0.2733
O5 O 1.1077(4) 0.3963(3) 0.0519(2)
O6 O 1.2041(4) 0.5832(4) 0.1630(3)
O7 O 0.5000 0.6420(6) 0.2500
O8 O 0.7114(5) 0.8240(4) 0.2473(3)
N1 N 0.6326(4) 0.7052(4) -0.0397(3)
N2 N 0.8551(5) 0.8051(4) 0.0717(3)
C1 C 0.5227(6) 0.6546(6) -0.0952(4)
H2 H 0.5096 0.5614 -0.0961
C2 C 0.4262(7) 0.7346(7) -0.1522(4)
H3 H 0.3503 0.6946 -0.1896
C3 C 0.4427(7) 0.8704(8) -0.1531(4)
H4 H 0.3788 0.9246 -0.1910
C4 C 0.5574(6) 0.9275(6) -0.0959(4)
C5 C 0.5873(8) 1.0715(7) -0.0893(5)
H5 H 0.5259 1.1308 -0.1246
C6 C 0.6994(9) 1.1222(7) -0.0344(5)
H6 H 0.7159 1.2148 -0.0342
C7 C 0.7938(7) 1.0360(6) 0.0234(4)
C8 C 0.9166(8) 1.0814(6) 0.0823(5)
H7 H 0.9380 1.1730 0.0853
C9 C 1.0031(7) 0.9919(6) 0.1343(5)
H8 H 1.0830 1.0212 0.1734
C10 C 0.9678(7) 0.8526(6) 0.1272(4)
H9 H 1.0262 0.7913 0.1631
C11 C 0.7697(6) 0.8943(5) 0.0201(4)
C12 C 0.6510(6) 0.8421(5) -0.0395(4)
P1B P 0.90447(13) 0.53290(14) -0.13733(9)
O3B O 1.0481(4) 0.4741(4) -0.1337(3)
O4B O 0.8744(5) 0.6387(4) -0.2155(3)
H1B H 0.8913 0.6122 -0.2733
O5B O 0.8923(4) 0.6037(3) -0.0519(2)
O6B O 0.7959(4) 0.4168(4) -0.1630(3)
V1B V 1.21308(9) 0.41675(9) -0.04335(6)
V2C V 1.32575(9) 0.66620(9) 0.25634(6)
O1B O 1.2909(4) 0.5537(3) -0.0080(3)
O2B O 1.3009(4) 0.3943(4) -0.1478(3)
N1B N 1.3674(4) 0.2948(4) 0.0397(3)
N2B N 1.1449(5) 0.1949(4) -0.0717(3)
C1B C 1.4773(6) 0.3454(6) 0.0952(4)
H2B H 1.4904 0.4386 0.0961
C2B C 1.5738(7) 0.2654(7) 0.1522(4)
H3B H 1.6497 0.3054 0.1896
C3B C 1.5573(7) 0.1296(8) 0.1531(4)
H4B H 1.6212 0.0754 0.1910
C4B C 1.4426(6) 0.0725(6) 0.0959(4)
C5B C 1.4127(8) -0.0715(7) 0.0893(5)
H5B H 1.4741 -0.1308 0.1246
C6B C 1.3006(9) -0.1222(7) 0.0344(5)
H6B H 1.2841 -0.2148 0.0342
C7B C 1.2062(7) -0.0360(6) -0.0234(4)
C8B C 1.0834(8) -0.0814(6) -0.0823(5)
H7B H 1.0620 -0.1730 -0.0853
C9B C 0.9969(7) 0.0081(6) -0.1343(5)
H8B H 0.9170 -0.0212 -0.1734
C10B C 1.0322(7) 0.1474(6) -0.1272(4)
H9B H 0.9738 0.2087 -0.1631
C11B C 1.2303(6) 0.1057(5) -0.0201(4)
C12B C 1.3490(6) 0.1579(5) 0.0395(4)
O8C O 1.2886(5) 0.8240(4) 0.2527(3)
O6C O 0.7959(4) 0.5832(4) 0.3370(3)
V2C_2 V 0.32575(9) 0.66620(9) 0.25634(6)
V2A V 0.67425(9) 0.33380(9) -0.25634(6)
O2C O 1.3009(4) 0.6057(4) 0.3522(3)
O7_2 O 1.5000 0.6420(6) 0.2500
V2B V 1.32575(9) 0.33380(9) -0.24366(6)
loop_
_geom_bond_atom_site_label_1
_geom_bond_atom_site_label_2
_geom_bond_site_symmetry_1
_geom_bond_site_symmetry_2
V1 O1 1_555 1_555
V2 O2 1_555 1_555
P1 O3 1_555 1_555
O2 V1 1_555 1_555
O3 V1 1_555 1_555
O4 P1 1_555 1_555
H1 O4 1_555 1_555
O5 P1 1_555 1_555
O6 P1 1_555 1_555
O7 V2 1_555 1_555
O8 V2 1_555 1_555
N1 V1 1_555 1_555
N2 V1 1_555 1_555
C1 N1 1_555 1_555
H2 C1 1_555 1_555
C2 C1 1_555 1_555
H3 C2 1_555 1_555
C3 C2 1_555 1_555
H4 C3 1_555 1_555
C4 C3 1_555 1_555
C5 C4 1_555 1_555
H5 C5 1_555 1_555
C6 C5 1_555 1_555
H6 C6 1_555 1_555
C7 C6 1_555 1_555
C8 C7 1_555 1_555
H7 C8 1_555 1_555
C9 C8 1_555 1_555
H8 C9 1_555 1_555
C10 N2 1_555 1_555
H9 C10 1_555 1_555
C11 N2 1_555 1_555
C12 N1 1_555 1_555
P1B O3B 1_555 1_555
O3B V1B 1_555 1_555
O4B P1B 1_555 1_555
H1B O4B 1_555 1_555
O5B V1 1_555 1_555
O6B P1B 1_555 1_555
V1B O5 1_555 1_555
V2C O6 1_555 1_555
O1B V1B 1_555 1_555
O2B V1B 1_555 1_555
N1B V1B 1_555 1_555
N2B V1B 1_555 1_555
C1B N1B 1_555 1_555
H2B C1B 1_555 1_555
C2B C1B 1_555 1_555
H3B C2B 1_555 1_555
C3B C2B 1_555 1_555
H4B C3B 1_555 1_555
C4B C3B 1_555 1_555
C5B C4B 1_555 1_555
H5B C5B 1_555 1_555
C6B C5B 1_555 1_555
H6B C6B 1_555 1_555
C7B C6B 1_555 1_555
C8B C7B 1_555 1_555
H7B C8B 1_555 1_555
C9B C8B 1_555 1_555
H8B C9B 1_555 1_555
C10B N2B 1_555 1_555
H9B C10B 1_555 1_555
C11B N2B 1_555 1_555
C12B N1B 1_555 1_555
O8C V2C 1_555 1_555
O6C V2 1_555 1_555
V2C_2 O7 1_555 1_555
V2A O6B 1_555 1_555
O2C V2C 1_555 1_555
O7_2 V2C 1_555 1_555
V2B O2B 1_555 1_555
C4 C12 1_555 1_555
C7 C11 1_555 1_555
C9 C10 1_555 1_555
C11 C12 1_555 1_555
P1B O5B 1_555 1_555
C4B C12B 1_555 1_555
C7B C11B 1_555 1_555
C9B C10B 1_555 1_555
C11B C12B 1_555 1_555

#END
