
#######################################################################
#
#                 Cambridge Crystallographic Data Centre
#                                CCDC 
#
#######################################################################
#
# If this CIF has been generated from an entry in the Cambridge 
# Structural Database, then it will include bibliographic, chemical, 
# crystal, experimental, refinement or atomic coordinate data resulting 
# from the CCDC's data processing and validation procedures.
#
#######################################################################

data_JABYUH01
_symmetry_cell_setting           orthorhombic
_symmetry_space_group_name_H-M   'P 21 21 21'
_symmetry_Int_Tables_number      19
_space_group_name_Hall           'P 2ac 2ab'
loop_
_symmetry_equiv_pos_site_id
_symmetry_equiv_pos_as_xyz
1 x,y,z
2 1/2+x,1/2-y,-z
3 -x,1/2+y,1/2-z
4 1/2-x,-y,1/2+z
_cell_length_a                   8.7746(3)
_cell_length_b                   9.8369(3)
_cell_length_c                   10.6744(3)
_cell_angle_alpha                90
_cell_angle_beta                 90
_cell_angle_gamma                90
_cell_volume                     921.359
loop_
_atom_site_label
_atom_site_type_symbol
_atom_site_fract_x
_atom_site_fract_y
_atom_site_fract_z
Cu1 Cu 0.03487(4) 0.20033(4) 0.38842(4)
O1 O 0.0138(3) 0.3059(2) 0.1986(2)
O2 O 0.3751(3) 0.6330(2) -0.0417(2)
O3 O 0.1657(3) 0.7374(2) 0.0261(2)
N1 N -0.2161(4) 0.6147(3) 0.1986(3)
H1 H -0.2398 0.6643 0.2691
H2 H -0.2990 0.6168 0.1460
N2 N 0.0424(3) 0.5203(3) 0.1173(3)
C1 C -0.1836(4) 0.4716(3) 0.2350(3)
H3 H -0.1737 0.4697 0.3283
C2 C -0.0304(4) 0.4256(3) 0.1808(3)
C3 C -0.3134(4) 0.3740(4) 0.2001(3)
H4 H -0.2802 0.2800 0.2232
C4 C -0.3455(5) 0.3749(4) 0.0597(3)
H5 H -0.4194 0.3034 0.0396
H6 H -0.2506 0.3584 0.0138
H7 H -0.3873 0.4635 0.0356
C5 C -0.4563(5) 0.4063(5) 0.2756(4)
H8 H -0.4319 0.4048 0.3652
H9 H -0.5349 0.3383 0.2576
H10 H -0.4938 0.4968 0.2525
C6 C 0.1904(4) 0.4981(4) 0.0634(4)
H11 H 0.1836 0.4303 -0.0049
H12 H 0.2614 0.4632 0.1278
C7 C 0.2477(4) 0.6328(4) 0.0122(3)
Cu1C Cu 0.46513(4) 0.79967(4) -0.11158(4)
Cu1B Cu -0.03487(4) 0.70033(4) 0.11158(4)
O2C O 0.1249(3) 0.3670(2) 0.4583(2)
O3B O -0.1657(3) 0.2374(2) 0.4739(2)
N1B N 0.2161(4) 0.1147(3) 0.3014(3)
H1B H 0.2398 0.1643 0.2309
H2B H 0.2990 0.1168 0.3540
N2B N -0.0424(3) 0.0203(3) 0.3827(3)
loop_
_geom_bond_atom_site_label_1
_geom_bond_atom_site_label_2
_geom_bond_site_symmetry_1
_geom_bond_site_symmetry_2
Cu1 O1 1_555 1_555
O1 C2 1_555 1_555
O2 C7 1_555 1_555
O3 C7 1_555 1_555
N1 H1 1_555 1_555
H2 N1 1_555 1_555
N2 C2 1_555 1_555
C1 N1 1_555 1_555
H3 C1 1_555 1_555
C2 C1 1_555 1_555
C3 C1 1_555 1_555
H4 C3 1_555 1_555
C4 C3 1_555 1_555
H5 C4 1_555 1_555
H6 C4 1_555 1_555
H7 C4 1_555 1_555
C5 C3 1_555 1_555
H8 C5 1_555 1_555
H9 C5 1_555 1_555
H10 C5 1_555 1_555
C6 N2 1_555 1_555
H11 C6 1_555 1_555
H12 C6 1_555 1_555
C7 C6 1_555 1_555
Cu1C O2 1_555 1_555
Cu1B O3 1_555 1_555
O2C Cu1 1_555 1_555
O3B Cu1 1_555 1_555
N1B Cu1 1_555 1_555
H1B N1B 1_555 1_555
H2B N1B 1_555 1_555
N2B Cu1 1_555 1_555
N1 Cu1B 1_555 1_555
N2 Cu1B 1_555 1_555

#END
