
#######################################################################
#
#                 Cambridge Crystallographic Data Centre
#                                CCDC 
#
#######################################################################
#
# If this CIF has been generated from an entry in the Cambridge 
# Structural Database, then it will include bibliographic, chemical, 
# crystal, experimental, refinement or atomic coordinate data resulting 
# from the CCDC's data processing and validation procedures.
#
#######################################################################

data_JACJON
_symmetry_cell_setting           orthorhombic
_symmetry_space_group_name_H-M   'C m c a'
_symmetry_Int_Tables_number      64
_space_group_name_Hall           '-C 2ac 2'
loop_
_symmetry_equiv_pos_site_id
_symmetry_equiv_pos_as_xyz
1 x,y,z
2 -x,1/2-y,1/2+z
3 x,-y,-z
4 -x,1/2+y,1/2-z
5 1/2+x,1/2+y,z
6 1/2-x,-y,1/2+z
7 1/2+x,1/2-y,-z
8 1/2-x,y,1/2-z
9 -x,-y,-z
10 x,1/2+y,1/2-z
11 -x,y,z
12 x,1/2-y,1/2+z
13 1/2-x,1/2-y,-z
14 1/2+x,y,1/2-z
15 1/2-x,1/2+y,z
16 1/2+x,-y,1/2+z
_cell_length_a                   15.436(3)
_cell_length_b                   10.421(2)
_cell_length_c                   9.692(2)
_cell_angle_alpha                90
_cell_angle_beta                 90
_cell_angle_gamma                90
_cell_volume                     1559.04
loop_
_atom_site_label
_atom_site_type_symbol
_atom_site_fract_x
_atom_site_fract_y
_atom_site_fract_z
Ti1 Ti 0.3168(1) 0.1437(2) 0.6016(2)
C1 C 0.5000 0.098(2) 0.660(1)
C2 C 0.5000 0.181(1) 0.534(1)
O1 O 0.4300(4) 0.0773(6) 0.7239(8)
O2 O 0.4308(4) 0.1976(6) 0.4776(7)
O3 O 0.2500 0.1046(9) 0.7500
O4 O 0.2500 0.2500 0.5000
O5 O 0.3051(6) 0.0000 0.5000
O6 O 0.3594(4) 0.3200(7) 0.6998(6)
O2J O 0.5692(4) 0.1976(6) 0.4776(7)
O1J O 0.5700(4) 0.0773(6) 0.7239(8)
Ti1J Ti 0.6832(1) 0.1437(2) 0.6016(2)
O6J O 0.6406(4) 0.3200(7) 0.6998(6)
Ti1G Ti 0.1832(1) 0.1437(2) 0.8984(2)
Ti1L Ti 0.1832(1) 0.3563(2) 0.3984(2)
Ti1B Ti 0.3168(1) -0.1437(2) 0.3984(2)
O3J O 0.7500 0.1046(9) 0.7500
O4F O 0.7500 0.2500 0.5000
O5H O 0.6949(6) 0.0000 0.5000
loop_
_geom_bond_atom_site_label_1
_geom_bond_atom_site_label_2
_geom_bond_site_symmetry_1
_geom_bond_site_symmetry_2
Ti1 O1 1_555 1_555
C1 C2 1_555 1_555
C2 O2 1_555 1_555
O1 C1 1_555 1_555
O2 Ti1 1_555 1_555
O3 Ti1 1_555 1_555
O4 Ti1 1_555 1_555
O5 Ti1 1_555 1_555
O6 Ti1 1_555 1_555
O2J C2 1_555 1_555
O1J C1 1_555 1_555
Ti1J O2J 1_555 1_555
O6J Ti1J 1_555 1_555
Ti1G O3 1_555 1_555
Ti1L O4 1_555 1_555
Ti1B O5 1_555 1_555
O3J Ti1J 1_555 1_555
O4F Ti1J 1_555 1_555
O5H Ti1J 1_555 1_555
O1J Ti1J 1_555 1_555

#END
