
#######################################################################
#
#                 Cambridge Crystallographic Data Centre
#                                CCDC 
#
#######################################################################
#
# If this CIF has been generated from an entry in the Cambridge 
# Structural Database, then it will include bibliographic, chemical, 
# crystal, experimental, refinement or atomic coordinate data resulting 
# from the CCDC's data processing and validation procedures.
#
#######################################################################

data_JACJIH
_symmetry_cell_setting           orthorhombic
_symmetry_space_group_name_H-M   'C m c a'
_symmetry_Int_Tables_number      64
_space_group_name_Hall           '-C 2ac 2'
loop_
_symmetry_equiv_pos_site_id
_symmetry_equiv_pos_as_xyz
1 x,y,z
2 -x,1/2-y,1/2+z
3 x,-y,-z
4 -x,1/2+y,1/2-z
5 1/2+x,1/2+y,z
6 1/2-x,-y,1/2+z
7 1/2+x,1/2-y,-z
8 1/2-x,y,1/2-z
9 -x,-y,-z
10 x,1/2+y,1/2-z
11 -x,y,z
12 x,1/2-y,1/2+z
13 1/2-x,1/2-y,-z
14 1/2+x,y,1/2-z
15 1/2-x,1/2+y,z
16 1/2+x,-y,1/2+z
_cell_length_a                   15.494(2)
_cell_length_b                   10.491(1)
_cell_length_c                   9.700(1)
_cell_angle_alpha                90
_cell_angle_beta                 90
_cell_angle_gamma                90
_cell_volume                     1576.71
loop_
_atom_site_label
_atom_site_type_symbol
_atom_site_fract_x
_atom_site_fract_y
_atom_site_fract_z
Ti1 Ti 0.3165(2) 0.1449(2) 0.6016(3)
C1 C 0.5000 0.105(2) 0.661(2)
C2 C 0.5000 0.179(2) 0.523(2)
O1 O 0.4295(5) 0.0781(8) 0.7145(8)
O2 O 0.4307(5) 0.1995(7) 0.4670(7)
O3 O 0.2500 0.101(1) 0.7500
O4 O 0.2500 0.2500 0.5000
O5 O 0.3088(8) 0.0000 0.5000
O6 O 0.3559(5) 0.3194(9) 0.7042(9)
H1 H 0.407(3) 0.314(7) 0.761(6)
H2 H 0.372(3) 0.382(7) 0.633(6)
O2J O 0.5693(5) 0.1995(7) 0.4670(7)
O1J O 0.5705(5) 0.0781(8) 0.7145(8)
Ti1J Ti 0.6835(2) 0.1449(2) 0.6016(3)
O6J O 0.6441(5) 0.3194(9) 0.7042(9)
H1J H 0.593(3) 0.314(7) 0.761(6)
H2J H 0.628(3) 0.382(7) 0.633(6)
Ti1G Ti 0.1835(2) 0.1449(2) 0.8984(3)
Ti1L Ti 0.1835(2) 0.3551(2) 0.3984(3)
Ti1B Ti 0.3165(2) -0.1449(2) 0.3984(3)
O3J O 0.7500 0.101(1) 0.7500
O4F O 0.7500 0.2500 0.5000
O5H O 0.6912(8) 0.0000 0.5000
O7 O 0.4070(7) 0.0000 0.0000
H3 H 0.445(2) 0.006(7) -0.079(2)
H3B H 0.445(2) -0.006(7) 0.079(2)
loop_
_geom_bond_atom_site_label_1
_geom_bond_atom_site_label_2
_geom_bond_site_symmetry_1
_geom_bond_site_symmetry_2
Ti1 O1 1_555 1_555
C1 C2 1_555 1_555
C2 O2 1_555 1_555
O1 C1 1_555 1_555
O2 Ti1 1_555 1_555
O3 Ti1 1_555 1_555
O4 Ti1 1_555 1_555
O5 Ti1 1_555 1_555
O6 Ti1 1_555 1_555
O7 H3 1_555 1_555
H1 O6 1_555 1_555
H2 O6 1_555 1_555
O2J C2 1_555 1_555
O1J C1 1_555 1_555
H3B O7 1_555 1_555
Ti1J O2J 1_555 1_555
O6J Ti1J 1_555 1_555
H1J O6J 1_555 1_555
H2J O6J 1_555 1_555
Ti1G O3 1_555 1_555
Ti1L O4 1_555 1_555
Ti1B O5 1_555 1_555
O3J Ti1J 1_555 1_555
O4F Ti1J 1_555 1_555
O5H Ti1J 1_555 1_555
O1J Ti1J 1_555 1_555

#END
