
#######################################################################
#
#                 Cambridge Crystallographic Data Centre
#                                CCDC 
#
#######################################################################
#
# If this CIF has been generated from an entry in the Cambridge 
# Structural Database, then it will include bibliographic, chemical, 
# crystal, experimental, refinement or atomic coordinate data resulting 
# from the CCDC's data processing and validation procedures.
#
#######################################################################

data_JADFID
_symmetry_cell_setting           monoclinic
_symmetry_space_group_name_H-M   'C 2/c'
_symmetry_Int_Tables_number      15
_space_group_name_Hall           '-C 2yn'
loop_
_symmetry_equiv_pos_site_id
_symmetry_equiv_pos_as_xyz
1 x,y,z
2 1/2+x,1/2+y,z
3 -x,y,1/2-z
4 1/2-x,1/2+y,1/2-z
5 -x,-y,-z
6 1/2-x,1/2-y,-z
7 x,-y,1/2+z
8 1/2+x,1/2-y,1/2+z
_cell_length_a                   14.218(4)
_cell_length_b                   23.475(1)
_cell_length_c                   6.951(2)
_cell_angle_alpha                90
_cell_angle_beta                 105.13(4)
_cell_angle_gamma                90
_cell_volume                     2239.6
loop_
_atom_site_label
_atom_site_type_symbol
_atom_site_fract_x
_atom_site_fract_y
_atom_site_fract_z
Hg1 Hg 0.1681(1) 0.2118(1) 0.1723(1)
N1 N 0.1282(8) -0.0068(4) 0.1349(16)
N2 N 0.2932(9) -0.0121(4) 0.3221(17)
N3 N 0.0465(9) 0.0776(4) 0.0409(17)
N4 N 0.2461(9) 0.1355(4) 0.2724(17)
N5 N 0.3755(9) 0.0786(4) 0.4241(17)
C1 C 0.2091(11) -0.0356(5) 0.2272(22)
C2 C 0.3816(12) -0.0474(5) 0.4136(22)
C3 C 0.2970(10) 0.0470(5) 0.3308(20)
C4 C 0.2157(11) 0.0782(5) 0.2316(21)
C5 C 0.1284(11) 0.0520(5) 0.1361(21)
C6 C 0.3396(12) 0.1323(6) 0.3803(22)
C7 C 0.0886(13) 0.2836(7) 0.0659(24)
N6 N 0.3692(11) 0.3122(5) 0.3634(21)
O1 O 0.3408(9) 0.2623(4) 0.3894(17)
O2 O 0.4198(11) 0.3328(5) 0.5202(20)
O3 O 0.3336(11) 0.3359(5) 0.2054(21)
Hg1E Hg 0.3319(1) 0.2882(1) -0.1723(1)
O1E O 0.1592(9) 0.2377(4) 0.6106(17)
O2E O 0.0802(11) 0.1672(5) 0.4798(20)
O3E O 0.1664(11) 0.1641(5) -0.2054(21)
Hg1E_2 Hg 0.3319(1) 0.2882(1) 0.8277(1)
loop_
_geom_bond_atom_site_label_1
_geom_bond_atom_site_label_2
_geom_bond_site_symmetry_1
_geom_bond_site_symmetry_2
Hg1 N4 1_555 1_555
N1 C1 1_555 1_555
N2 C1 1_555 1_555
N3 C5 1_555 1_555
N4 C4 1_555 1_555
N5 C3 1_555 1_555
C2 N2 1_555 1_555
C3 N2 1_555 1_555
C4 C3 1_555 1_555
C5 N1 1_555 1_555
C6 N4 1_555 1_555
C7 Hg1 1_555 1_555
N6 O1 1_555 1_555
O1 Hg1 1_555 1_555
O2 N6 1_555 1_555
O3 N6 1_555 1_555
Hg1E O3 1_555 1_555
O1E Hg1 1_555 1_555
O2E Hg1 1_555 1_555
O3E Hg1 1_555 1_555
Hg1E_2 O1 1_555 1_555
N5 C6 1_555 1_555
C4 C5 1_555 1_555
O2 Hg1E_2 1_555 1_555
O1E Hg1E_2 1_555 1_555

#END
