
#######################################################################
#
#                 Cambridge Crystallographic Data Centre
#                                CCDC 
#
#######################################################################
#
# If this CIF has been generated from an entry in the Cambridge 
# Structural Database, then it will include bibliographic, chemical, 
# crystal, experimental, refinement or atomic coordinate data resulting 
# from the CCDC's data processing and validation procedures.
#
#######################################################################

data_JADGEB
_symmetry_cell_setting           orthorhombic
_symmetry_space_group_name_H-M   'P n a 21'
_symmetry_Int_Tables_number      33
_space_group_name_Hall           'P 2c -2n'
loop_
_symmetry_equiv_pos_site_id
_symmetry_equiv_pos_as_xyz
1 x,y,z
2 -x,-y,1/2+z
3 1/2+x,1/2-y,z
4 1/2-x,1/2+y,1/2+z
_cell_length_a                   14.2788(25)
_cell_length_b                   9.6160(13)
_cell_length_c                   19.6760(43)
_cell_angle_alpha                90
_cell_angle_beta                 90
_cell_angle_gamma                90
_cell_volume                     2701.61
loop_
_atom_site_label
_atom_site_type_symbol
_atom_site_fract_x
_atom_site_fract_y
_atom_site_fract_z
Ga1 Ga -0.00107(11) 0.5179(2) 0.23544(8)
N1 N -0.1003(9) 0.4818(15) 0.1588(6)
H1 H -0.0861(9) 0.5322(15) 0.1216(6)
H2 H -0.1004(9) 0.3913(15) 0.1472(6)
C1 C -0.1967(11) 0.5241(21) 0.1861(9)
H3 H -0.2050(11) 0.6239(21) 0.1825(9)
H4 H -0.2458(11) 0.4787(21) 0.1603(9)
C2 C -0.2005(11) 0.4796(19) 0.2590(9)
H5 H -0.2588(11) 0.5109(19) 0.2792(9)
H6 H -0.1986(11) 0.3789(19) 0.2617(9)
N2 N -0.1213(10) 0.5381(17) 0.2969(8)
H7 H -0.1133(10) 0.4920(17) 0.3362(8)
H8 H -0.1319(10) 0.6283(17) 0.3064(8)
N3 N 0.0023(8) 0.7269(12) 0.2089(6)
H9 H 0.0178(8) 0.7364(12) 0.1648(6)
H10 H -0.0543(8) 0.7659(12) 0.2155(6)
C3 C 0.0738(11) 0.7959(17) 0.2528(9)
H11 H 0.0603(11) 0.8945(17) 0.2561(9)
H12 H 0.1354(11) 0.7849(17) 0.2329(9)
C4 C 0.0722(13) 0.7314(17) 0.3228(8)
H13 H 0.1224(13) 0.7691(17) 0.3505(8)
H14 H 0.0130(13) 0.7504(17) 0.3451(8)
N4 N 0.0849(9) 0.5793(15) 0.3135(7)
H15 H 0.0697(9) 0.5339(15) 0.3519(7)
H16 H 0.1449(9) 0.5601(15) 0.3033(7)
N5 N 0.1130(9) 0.4715(18) 0.1713(8)
H17 H 0.1046(9) 0.5106(18) 0.1301(8)
H18 H 0.1666(9) 0.5044(18) 0.1892(8)
C5 C 0.1171(14) 0.3166(20) 0.1651(11)
H19 H 0.0692(14) 0.2842(20) 0.1340(11)
H20 H 0.1777(14) 0.2884(20) 0.1476(11)
C6 C 0.1020(13) 0.2564(23) 0.2329(12)
H21 H 0.1533(13) 0.2818(23) 0.2628(12)
H22 H 0.0998(13) 0.1558(23) 0.2298(12)
N6 N 0.0112(10) 0.3100(14) 0.2614(8)
H23 H 0.0107(10) 0.3005(14) 0.3069(8)
H24 H -0.0371(10) 0.2615(14) 0.2442(8)
O1 O 0.8767(14) 0.1645(16) 0.1760(8)
H25 H 0.8619(14) 0.0918(16) 0.2077(8)
H26 H 0.8398(14) 0.1388(16) 0.1372(8)
Ga2 Ga 0.52654(10) 0.3167(2) 0.49688(8)
Ga3 Ga 0.29009(10) 0.2065(2) 0.50117(9)
Ga4 Ga 0.36123(11) 0.4870(2) 0.37651(8)
Se1 Se 0.39154(9) 0.3527(2) 0.56731(8)
Se2 Se 0.53237(12) 0.0680(2) 0.46997(10)
Se3 Se 0.37883(11) -0.0127(2) 0.48913(9)
Se4 Se 0.65872(10) 0.3607(2) 0.56844(8)
Se5 Se 0.52441(10) 0.4453(2) 0.39322(8)
Se6 Se 0.25322(12) 0.3009(2) 0.39301(9)
Se7 Se 0.31701(10) 0.6059(2) 0.27792(8)
N7 N 0.3325(8) 0.6176(14) 0.4562(7)
H27 H 0.3420(8) 0.5702(14) 0.4951(7)
H28 H 0.3743(8) 0.6876(14) 0.4552(7)
C7 C 0.2352(11) 0.6804(19) 0.4590(9)
H29 H 0.2339(11) 0.7627(19) 0.4305(9)
H30 H 0.1910(11) 0.6142(19) 0.4402(9)
C8 C 0.2043(15) 0.7190(22) 0.5276(9)
H31 H 0.2111(15) 0.6386(22) 0.5570(9)
H32 H 0.2456(15) 0.7910(22) 0.5447(9)
N8 N 0.1089(12) 0.7681(19) 0.5322(9)
H33 H 0.0701(12) 0.7019(19) 0.5179(9)
H34 H 0.1021(12) 0.8435(19) 0.5064(9)
Se4B Se 0.15872(10) 0.1393(2) 0.56844(8)
Ga3B Ga 0.79009(10) 0.2935(2) 0.50117(9)
loop_
_geom_bond_atom_site_label_1
_geom_bond_atom_site_label_2
_geom_bond_site_symmetry_1
_geom_bond_site_symmetry_2
Ga1 N1 1_555 1_555
N1 H1 1_555 1_555
H2 N1 1_555 1_555
C1 N1 1_555 1_555
H3 C1 1_555 1_555
H4 C1 1_555 1_555
C2 C1 1_555 1_555
H5 C2 1_555 1_555
H6 C2 1_555 1_555
N2 Ga1 1_555 1_555
H7 N2 1_555 1_555
H8 N2 1_555 1_555
N3 Ga1 1_555 1_555
H9 N3 1_555 1_555
H10 N3 1_555 1_555
C3 N3 1_555 1_555
H11 C3 1_555 1_555
H12 C3 1_555 1_555
C4 C3 1_555 1_555
H13 C4 1_555 1_555
H14 C4 1_555 1_555
N4 Ga1 1_555 1_555
H15 N4 1_555 1_555
H16 N4 1_555 1_555
N5 Ga1 1_555 1_555
H17 N5 1_555 1_555
H18 N5 1_555 1_555
C5 N5 1_555 1_555
H19 C5 1_555 1_555
H20 C5 1_555 1_555
C6 C5 1_555 1_555
H21 C6 1_555 1_555
H22 C6 1_555 1_555
N6 Ga1 1_555 1_555
H23 N6 1_555 1_555
H24 N6 1_555 1_555
O1 H25 1_555 1_555
H26 O1 1_555 1_555
Ga2 Se1 1_555 1_555
Ga3 Se1 1_555 1_555
Ga4 Se5 1_555 1_555
Se2 Ga2 1_555 1_555
Se3 Ga3 1_555 1_555
Se4 Ga2 1_555 1_555
Se5 Ga2 1_555 1_555
Se6 Ga3 1_555 1_555
Se7 Ga4 1_555 1_555
N7 Ga4 1_555 1_555
H27 N7 1_555 1_555
H28 N7 1_555 1_555
C7 N7 1_555 1_555
H29 C7 1_555 1_555
H30 C7 1_555 1_555
C8 C7 1_555 1_555
H31 C8 1_555 1_555
H32 C8 1_555 1_555
N8 C8 1_555 1_555
H33 N8 1_555 1_555
H34 N8 1_555 1_555
Se4B Ga3 1_555 1_555
Ga3B Se4 1_555 1_555
C2 N2 1_555 1_555
C4 N4 1_555 1_555
C6 N6 1_555 1_555
Ga4 Se6 1_555 1_555
Se2 Se3 1_555 1_555

#END
