
#######################################################################
#
#                 Cambridge Crystallographic Data Centre
#                                CCDC 
#
#######################################################################
#
# If this CIF has been generated from an entry in the Cambridge 
# Structural Database, then it will include bibliographic, chemical, 
# crystal, experimental, refinement or atomic coordinate data resulting 
# from the CCDC's data processing and validation procedures.
#
#######################################################################

data_JADROW
_symmetry_cell_setting           monoclinic
_symmetry_space_group_name_H-M   'C 2/c'
_symmetry_Int_Tables_number      15
_space_group_name_Hall           '-C 2yn'
loop_
_symmetry_equiv_pos_site_id
_symmetry_equiv_pos_as_xyz
1 x,y,z
2 1/2+x,1/2+y,z
3 x,-y,1/2+z
4 1/2+x,1/2-y,1/2+z
5 -x,-y,-z
6 1/2-x,1/2-y,-z
7 -x,y,1/2-z
8 1/2-x,1/2+y,1/2-z
_cell_length_a                   12.2177(12)
_cell_length_b                   17.2361(12)
_cell_length_c                   11.8314(9)
_cell_angle_alpha                90
_cell_angle_beta                 101.4100(10)
_cell_angle_gamma                90
_cell_volume                     2442.28
loop_
_atom_site_label
_atom_site_type_symbol
_atom_site_fract_x
_atom_site_fract_y
_atom_site_fract_z
Cd1 Cd -0.33968(3) 0.08823(2) 0.09171(3)
Cd2 Cd -0.37934(3) 0.24879(2) -0.13236(3)
Na1 Na -0.1189(2) -0.07623(12) 0.1333(2)
Cl1 Cl -0.37425(10) 0.09687(6) -0.12596(9)
Cl2 Cl -0.12805(9) 0.09767(6) 0.13001(10)
Cl3 Cl -0.34314(9) 0.24643(6) 0.09817(9)
Cl4 Cl -0.40647(9) 0.24731(6) -0.35455(9)
C1 C -0.4501(3) 0.0902(2) 0.3031(4)
O1 O -0.3536(2) 0.0910(2) 0.2821(3)
O2 O -0.4732(2) 0.0903(2) 0.4013(2)
O3 O -0.3294(3) -0.0481(2) 0.1042(4)
H1 H -0.3430(41) -0.0631(27) 0.1427(40)
H2 H -0.3743(66) -0.0729(44) 0.0214(75)
O4 O -0.1460(4) -0.0693(2) -0.0694(3)
H3 H -0.1094(40) -0.1023(26) -0.0904(41)
H4 H -0.2022(39) -0.0757(25) -0.0998(40)
O5 O 0.0826(3) -0.0695(3) 0.1616(3)
H5 H 0.1025(59) -0.0248(40) 0.1318(59)
H6 H 0.0996(51) -0.1012(31) 0.1337(53)
O6 O -0.1264(5) -0.2108(3) 0.1275(5)
H7 H -0.1067(58) -0.2306(38) 0.0785(62)
H8 H -0.1660(78) -0.2255(49) 0.1573(81)
C1F C -0.5499(3) 0.0902(2) 0.1969(4)
O1F O -0.6464(2) 0.0910(2) 0.2179(3)
O2F O -0.5268(2) 0.0903(2) 0.0987(2)
Cd1F Cd -0.66032(3) 0.08823(2) 0.40829(3)
Cd2E Cd -0.12066(3) 0.25121(2) 0.13236(3)
Cl2E Cl -0.37195(9) 0.40233(6) -0.13001(10)
Cl3E Cl -0.15686(9) 0.25357(6) -0.09817(9)
Cl4F Cl -0.59353(9) 0.24731(6) -0.14545(9)
O5F O -0.0826(3) -0.0695(3) 0.3384(3)
H5F H -0.1025(59) -0.0248(40) 0.3682(59)
H6F H -0.0996(51) -0.1012(31) 0.3663(53)
Cl1F Cl -0.62575(10) 0.09687(6) 0.62596(9)
O3F O -0.6706(3) -0.0481(2) 0.3958(4)
H1F H -0.6570(41) -0.0631(27) 0.3573(40)
H2F H -0.6257(66) -0.0729(44) 0.4786(75)
Na1E Na -0.3811(2) 0.57623(12) -0.1333(2)
O4E O -0.3540(4) 0.5693(2) 0.0694(3)
H3E H -0.3906(40) 0.6023(26) 0.0904(41)
H4E H -0.2978(39) 0.5757(25) 0.0998(40)
O6E O -0.3736(5) 0.7108(3) -0.1275(5)
H7E H -0.3933(58) 0.7306(38) -0.0785(62)
H8E H -0.3340(78) 0.7255(49) -0.1573(81)
Cd2F Cd -0.62066(3) 0.24879(2) -0.36764(3)
Na1F Na 0.1189(2) -0.07623(12) 0.3667(2)
Cl2F Cl -0.87195(9) 0.09767(6) 0.36999(10)
Cl3F Cl -0.65686(9) 0.24643(6) 0.40183(9)
Cl1E Cl -0.12575(10) 0.40313(6) 0.12596(9)
Cl4C Cl 0.09353(9) 0.25269(6) 0.14545(9)
Cl4E Cl -0.09353(9) 0.25269(6) 0.35455(9)
Cd1E Cd -0.16032(3) 0.41177(2) -0.09171(3)
Cd2F_2 Cd -0.62066(3) 0.24879(2) 0.63236(3)
Na1F_2 Na -0.8811(2) -0.07623(12) 0.3667(2)
O3E O -0.1706(3) 0.5481(2) -0.1042(4)
O5E O -0.5826(3) 0.5695(3) -0.1616(3)
O5C O -0.4174(3) 0.5695(3) -0.3384(3)
H1E H -0.1570(41) 0.5631(27) -0.1427(40)
H2E H -0.1257(66) 0.5729(44) -0.0214(75)
H5E H -0.6025(59) 0.5248(40) -0.1318(59)
H6E H -0.5996(51) 0.6012(31) -0.1337(53)
H5C H -0.3975(59) 0.5248(40) -0.3682(59)
H6C H -0.4004(51) 0.6012(31) -0.3663(53)
loop_
_geom_bond_atom_site_label_1
_geom_bond_atom_site_label_2
_geom_bond_site_symmetry_1
_geom_bond_site_symmetry_2
Cd1 Cl1 1_555 1_555
Cd2 Cl1 1_555 1_555
Na1 Cl2 1_555 1_555
Cl2 Cd1 1_555 1_555
Cl3 Cd1 1_555 1_555
Cl4 Cd2 1_555 1_555
C1 O1 1_555 1_555
O1 Cd1 1_555 1_555
O2 C1 1_555 1_555
O3 Cd1 1_555 1_555
H1 O3 1_555 1_555
H2 O3 1_555 1_555
O4 Na1 1_555 1_555
H3 O4 1_555 1_555
H4 O4 1_555 1_555
O5 Na1 1_555 1_555
H5 O5 1_555 1_555
H6 O5 1_555 1_555
O6 Na1 1_555 1_555
H7 O6 1_555 1_555
H8 O6 1_555 1_555
C1F C1 1_555 1_555
O1F C1F 1_555 1_555
O2F Cd1 1_555 1_555
Cd1F O2 1_555 1_555
Cd2E Cl2 1_555 1_555
Cl2E Cd2 1_555 1_555
Cl3E Cd2 1_555 1_555
Cl4F Cd2 1_555 1_555
O5F Na1 1_555 1_555
H5F O5F 1_555 1_555
H6F O5F 1_555 1_555
Cl1F Cd1F 1_555 1_555
O3F Cd1F 1_555 1_555
H1F O3F 1_555 1_555
H2F O3F 1_555 1_555
Na1E Cl2E 1_555 1_555
O4E Na1E 1_555 1_555
H3E O4E 1_555 1_555
H4E O4E 1_555 1_555
O6E Na1E 1_555 1_555
H7E O6E 1_555 1_555
H8E O6E 1_555 1_555
Cd2F Cl4 1_555 1_555
Na1F O5 1_555 1_555
Cl2F Cd1F 1_555 1_555
Cl3F Cd1F 1_555 1_555
Cl1E Cd2E 1_555 1_555
Cl4C Cd2E 1_555 1_555
Cl4E Cd2E 1_555 1_555
Cd1E Cl2E 1_555 1_555
Cd2F_2 Cl1F 1_555 1_555
Na1F_2 O3F 1_555 1_555
O3E Na1E 1_555 1_555
O5E Na1E 1_555 1_555
O5C Na1E 1_555 1_555
H1E O3E 1_555 1_555
H2E O3E 1_555 1_555
H5E O5E 1_555 1_555
H6E O5E 1_555 1_555
H5C O5C 1_555 1_555
H6C O5C 1_555 1_555
Cd2 Cl3 1_555 1_555
Na1 O3 1_555 1_555
Cl3 Cd2E 1_555 1_555
C1F O2F 1_555 1_555
O1F Cd1F 1_555 1_555
Cd2E Cl3E 1_555 1_555
Cl3E Cd1E 1_555 1_555
Cl4F Cd2F 1_555 1_555
O5F Na1F 1_555 1_555
Cl2F Na1F_2 1_555 1_555
Cl3F Cd2F_2 1_555 1_555
Cl1E Cd1E 1_555 1_555
Cd1E O3E 1_555 1_555

#END
