
#######################################################################
#
#                 Cambridge Crystallographic Data Centre
#                                CCDC 
#
#######################################################################
#
# If this CIF has been generated from an entry in the Cambridge 
# Structural Database, then it will include bibliographic, chemical, 
# crystal, experimental, refinement or atomic coordinate data resulting 
# from the CCDC's data processing and validation procedures.
#
#######################################################################

data_JADRUC
_symmetry_cell_setting           monoclinic
_symmetry_space_group_name_H-M   'C 2/c'
_symmetry_Int_Tables_number      15
_space_group_name_Hall           '-C 2yn'
loop_
_symmetry_equiv_pos_site_id
_symmetry_equiv_pos_as_xyz
1 x,y,z
2 1/2+x,1/2+y,z
3 x,-y,1/2+z
4 1/2+x,1/2-y,1/2+z
5 -x,-y,-z
6 1/2-x,1/2-y,-z
7 -x,y,1/2-z
8 1/2-x,1/2+y,1/2-z
_cell_length_a                   9.5500(11)
_cell_length_b                   13.601(2)
_cell_length_c                   6.6499(8)
_cell_angle_alpha                90
_cell_angle_beta                 90.868(2)
_cell_angle_gamma                90
_cell_volume                     863.653
loop_
_atom_site_label
_atom_site_type_symbol
_atom_site_fract_x
_atom_site_fract_y
_atom_site_fract_z
Cd1 Cd 0.5000 0.42866(4) 0.2500
Cl1 Cl 0.6555(2) 0.42756(11) -0.0780(3)
N1 N 0.3481(6) 0.3275(4) 0.0623(9)
C1 C 0.2013(8) 0.3267(6) 0.1297(13)
H1 H 0.1625(70) 0.4060(50) 0.1287(97)
H2 H 0.1997(92) 0.2919(62) 0.227(14)
C2 C 0.3947(8) 0.2254(6) 0.0210(13)
H3 H 0.5031(81) 0.2303(47) -0.041(11)
H4 H 0.3942(83) 0.1889(51) 0.130(13)
C2E C 0.1053(8) 0.2746(6) -0.0210(13)
N1E N 0.1519(6) 0.1725(4) -0.0623(9)
C1E C 0.2987(8) 0.1733(6) -0.1297(13)
H1E H 0.3375(70) 0.0940(50) -0.1287(97)
H2E H 0.3003(92) 0.2081(62) -0.227(14)
H3E H -0.0031(81) 0.2697(47) 0.041(11)
H4E H 0.1058(83) 0.3111(51) -0.130(13)
Cl1B Cl 0.6555(2) 0.57244(11) 0.4220(3)
Cl1D Cl 0.3445(2) 0.57244(11) 0.0780(3)
Cl1F Cl 0.3445(2) 0.42756(11) 0.5780(3)
N1F N 0.6519(6) 0.3275(4) 0.4377(9)
Cd1B Cd 0.5000 0.57134(4) -0.2500
Cd1C Cd 0.0000 0.07134(4) -0.2500
Cd1B_2 Cd 0.5000 0.57134(4) 0.7500
loop_
_geom_bond_atom_site_label_1
_geom_bond_atom_site_label_2
_geom_bond_site_symmetry_1
_geom_bond_site_symmetry_2
Cd1 Cl1 1_555 1_555
Cl1 Cd1B 1_555 1_555
N1 Cd1 1_555 1_555
C1 N1 1_555 1_555
H1 C1 1_555 1_555
H2 C1 1_555 1_555
C2 N1 1_555 1_555
H3 C2 1_555 1_555
H4 C2 1_555 1_555
C2E C1 1_555 1_555
N1E C2E 1_555 1_555
C1E C2 1_555 1_555
H1E C1E 1_555 1_555
H2E C1E 1_555 1_555
H3E C2E 1_555 1_555
H4E C2E 1_555 1_555
Cl1B Cd1 1_555 1_555
Cl1D Cd1 1_555 1_555
Cl1F Cd1 1_555 1_555
N1F Cd1 1_555 1_555
Cd1B Cl1D 1_555 1_555
Cd1C N1E 1_555 1_555
Cd1B_2 Cl1B 1_555 1_555
N1E C1E 1_555 1_555
Cl1F Cd1B_2 1_555 1_555

#END
