
#######################################################################
#
#                 Cambridge Crystallographic Data Centre
#                                CCDC 
#
#######################################################################
#
# If this CIF has been generated from an entry in the Cambridge 
# Structural Database, then it will include bibliographic, chemical, 
# crystal, experimental, refinement or atomic coordinate data resulting 
# from the CCDC's data processing and validation procedures.
#
#######################################################################

data_JADVUG
_symmetry_cell_setting           monoclinic
_symmetry_space_group_name_H-M   'P 21/n'
_symmetry_Int_Tables_number      14
_space_group_name_Hall           '-P 2yn'
loop_
_symmetry_equiv_pos_site_id
_symmetry_equiv_pos_as_xyz
1 x,y,z
2 1/2-x,1/2+y,1/2-z
3 -x,-y,-z
4 1/2+x,1/2-y,1/2+z
_cell_length_a                   10.5699(3)
_cell_length_b                   11.5037(3)
_cell_length_c                   13.5194(4)
_cell_angle_alpha                90
_cell_angle_beta                 110.2779(10)
_cell_angle_gamma                90
_cell_volume                     1541.98
loop_
_atom_site_label
_atom_site_type_symbol
_atom_site_fract_x
_atom_site_fract_y
_atom_site_fract_z
Zn1 Zn 0.5000 0.0000 0.5000
O1 O 0.65471(14) 0.05159(13) 0.64865(11)
H1 H 0.723(2) 0.016(2) 0.6702(18)
H2 H 0.666(2) 0.116(2) 0.6663(17)
N1 N 0.64440(13) -0.34775(12) 0.50328(11)
N2 N 0.56056(14) -0.17805(12) 0.52479(11)
N3 N 0.78800(14) -0.47456(11) 0.21798(10)
N4 N 0.86534(14) -0.47413(11) 0.08612(11)
N5 N 0.93920(14) -0.68360(12) 0.54951(11)
N6 N 1.10093(15) -0.81666(14) 0.60600(12)
C1 C 0.71360(16) -0.43057(14) 0.46223(13)
C2 C 0.71066(16) -0.41589(14) 0.35925(13)
H3 H 0.6591 -0.3553 0.3161
C3 C 0.78458(15) -0.49150(15) 0.32138(12)
C4 C 0.85574(16) -0.58318(15) 0.38202(13)
H4 H 0.9019 -0.6372 0.3535
C5 C 0.85855(16) -0.59498(14) 0.48519(13)
C6 C 0.78722(16) -0.51882(14) 0.52660(13)
H5 H 0.7890 -0.5271 0.5970
C7 C 0.63460(17) -0.23297(15) 0.47893(13)
H6 H 0.6758 -0.1969 0.4346
C8 C 0.52138(18) -0.26194(16) 0.58162(14)
H7 H 0.4661 -0.2481 0.6228
C9 C 0.57317(18) -0.36660(16) 0.57011(13)
H8 H 0.5626 -0.4381 0.6015
C10 C 0.89199(16) -0.50211(15) 0.18576(13)
H9 H 0.9737 -0.5371 0.2294
C11 C 0.73715(17) -0.42674(15) 0.05254(14)
H10 H 0.6901 -0.3990 -0.0167
C12 C 0.68875(17) -0.42571(15) 0.13298(13)
H11 H 0.6037 -0.3971 0.1313
C13 C 1.03869(16) -0.74501(15) 0.52943(13)
H12 H 1.0600 -0.7366 0.4671
C14 C 1.03803(19) -0.80265(16) 0.67892(14)
H13 H 1.0609 -0.8445 0.7433
C15 C 0.93902(18) -0.72118(16) 0.64679(13)
H14 H 0.8819 -0.6955 0.6833
O1B O 0.34529(14) -0.05159(13) 0.35135(11)
H1B H 0.277(2) -0.016(2) 0.3298(18)
H2B H 0.334(2) -0.116(2) 0.3337(17)
N1B N 0.35560(13) 0.34775(12) 0.49672(11)
N2B N 0.43944(14) 0.17805(12) 0.47521(11)
N3B N 0.21200(14) 0.47456(11) 0.78202(10)
N4B N 0.13466(14) 0.47413(11) 0.91388(11)
N5B N 0.06080(14) 0.68360(12) 0.45049(11)
N6B N -0.10093(15) 0.81666(14) 0.39400(12)
C1B C 0.28640(16) 0.43057(14) 0.53777(13)
C2B C 0.28934(16) 0.41589(14) 0.64075(13)
H3B H 0.3409 0.3553 0.6839
C3B C 0.21542(15) 0.49150(15) 0.67862(12)
C4B C 0.14426(16) 0.58318(15) 0.61798(13)
H4B H 0.0981 0.6372 0.6465
C5B C 0.14145(16) 0.59498(14) 0.51481(13)
C6B C 0.21278(16) 0.51882(14) 0.47340(13)
H5B H 0.2110 0.5271 0.4030
C7B C 0.36540(17) 0.23297(15) 0.52107(13)
H6B H 0.3242 0.1969 0.5654
C8B C 0.47862(18) 0.26194(16) 0.41838(14)
H7B H 0.5339 0.2481 0.3772
C9B C 0.42683(18) 0.36660(16) 0.42989(13)
H8B H 0.4374 0.4381 0.3985
C10B C 0.10801(16) 0.50211(15) 0.81424(13)
H9B H 0.0263 0.5371 0.7706
C11B C 0.26285(17) 0.42674(15) 0.94746(14)
H10B H 0.3099 0.3990 1.0167
C12B C 0.31125(17) 0.42571(15) 0.86702(13)
H11B H 0.3963 0.3971 0.8687
C13B C -0.03869(16) 0.74501(15) 0.47057(13)
H12B H -0.0600 0.7366 0.5329
C14B C -0.03803(19) 0.80265(16) 0.32108(14)
H13B H -0.0609 0.8445 0.2567
C15B C 0.06098(18) 0.72118(16) 0.35321(13)
H14B H 0.1181 0.6955 0.3167
N4C N 0.36534(14) -0.02587(11) 0.58612(11)
N4A N 0.63466(14) 0.02587(11) 0.41388(11)
Zn1C Zn 1.0000 -0.5000 0.0000
Zn1C_2 Zn 0.0000 0.5000 1.0000
O2 O 0.55533(17) 0.23922(14) 0.78825(12)
O3 O 0.60883(15) 0.41981(14) 0.79793(16)
O4 O 0.67322(17) 0.30367(17) 0.69989(13)
N7 N 0.61394(14) 0.32113(14) 0.76263(12)
loop_
_geom_bond_atom_site_label_1
_geom_bond_atom_site_label_2
_geom_bond_site_symmetry_1
_geom_bond_site_symmetry_2
Zn1 O1 1_555 1_555
O1 H1 1_555 1_555
H2 O1 1_555 1_555
N1 C1 1_555 1_555
N2 Zn1 1_555 1_555
N3 C3 1_555 1_555
N4 C10 1_555 1_555
N5 C5 1_555 1_555
N6 C13 1_555 1_555
C1 C2 1_555 1_555
C2 H3 1_555 1_555
C3 C2 1_555 1_555
C4 C3 1_555 1_555
H4 C4 1_555 1_555
C5 C4 1_555 1_555
C6 C1 1_555 1_555
H5 C6 1_555 1_555
C7 N1 1_555 1_555
H6 C7 1_555 1_555
C8 N2 1_555 1_555
H7 C8 1_555 1_555
C9 N1 1_555 1_555
H8 C9 1_555 1_555
C10 N3 1_555 1_555
H9 C10 1_555 1_555
C11 N4 1_555 1_555
H10 C11 1_555 1_555
C12 N3 1_555 1_555
H11 C12 1_555 1_555
C13 N5 1_555 1_555
H12 C13 1_555 1_555
C14 N6 1_555 1_555
H13 C14 1_555 1_555
C15 N5 1_555 1_555
H14 C15 1_555 1_555
O2 N7 1_555 1_555
O3 N7 1_555 1_555
O4 N7 1_555 1_555
O1B Zn1 1_555 1_555
H1B O1B 1_555 1_555
H2B O1B 1_555 1_555
N1B C1B 1_555 1_555
N2B Zn1 1_555 1_555
N3B C3B 1_555 1_555
N4B C10B 1_555 1_555
N5B C5B 1_555 1_555
N6B C13B 1_555 1_555
C1B C2B 1_555 1_555
C2B H3B 1_555 1_555
C3B C2B 1_555 1_555
C4B C3B 1_555 1_555
H4B C4B 1_555 1_555
C5B C4B 1_555 1_555
C6B C1B 1_555 1_555
H5B C6B 1_555 1_555
C7B N1B 1_555 1_555
H6B C7B 1_555 1_555
C8B N2B 1_555 1_555
H7B C8B 1_555 1_555
C9B N1B 1_555 1_555
H8B C9B 1_555 1_555
C10B N3B 1_555 1_555
H9B C10B 1_555 1_555
C11B N4B 1_555 1_555
H10B C11B 1_555 1_555
C12B N3B 1_555 1_555
H11B C12B 1_555 1_555
C13B N5B 1_555 1_555
H12B C13B 1_555 1_555
C14B N6B 1_555 1_555
H13B C14B 1_555 1_555
C15B N5B 1_555 1_555
H14B C15B 1_555 1_555
N4C Zn1 1_555 1_555
N4A Zn1 1_555 1_555
Zn1C N4 1_555 1_555
Zn1C_2 N4B 1_555 1_555
N2 C7 1_555 1_555
C5 C6 1_555 1_555
C8 C9 1_555 1_555
C11 C12 1_555 1_555
C14 C15 1_555 1_555
N2B C7B 1_555 1_555
C5B C6B 1_555 1_555
C8B C9B 1_555 1_555
C11B C12B 1_555 1_555
C14B C15B 1_555 1_555

#END
