
#######################################################################
#
#                 Cambridge Crystallographic Data Centre
#                                CCDC 
#
#######################################################################
#
# If this CIF has been generated from an entry in the Cambridge 
# Structural Database, then it will include bibliographic, chemical, 
# crystal, experimental, refinement or atomic coordinate data resulting 
# from the CCDC's data processing and validation procedures.
#
#######################################################################

data_JADVOA
_symmetry_cell_setting           monoclinic
_symmetry_space_group_name_H-M   'P 21/n'
_symmetry_Int_Tables_number      14
_space_group_name_Hall           '-P 2yn'
loop_
_symmetry_equiv_pos_site_id
_symmetry_equiv_pos_as_xyz
1 x,y,z
2 1/2+x,1/2-y,1/2+z
3 -x,-y,-z
4 1/2-x,1/2+y,1/2-z
_cell_length_a                   8.2969(5)
_cell_length_b                   12.2834(5)
_cell_length_c                   17.4667(12)
_cell_angle_alpha                90
_cell_angle_beta                 96.5740(10)
_cell_angle_gamma                90
_cell_volume                     1768.4
loop_
_atom_site_label
_atom_site_type_symbol
_atom_site_fract_x
_atom_site_fract_y
_atom_site_fract_z
Cu1 Cu 1.0000 0.0000 0.5000
O4 O 0.76805(18) -0.00196(12) 0.57004(9)
H3 H 0.753(3) 0.0241(19) 0.6106(16)
H4 H 0.726(3) -0.058(2) 0.5646(15)
N1 N 1.23717(18) -0.01308(11) 0.72286(9)
N2 N 1.14847(18) -0.00388(10) 0.59954(9)
N3 N 1.39445(18) -0.17012(11) 0.97384(9)
N4 N 1.48707(18) -0.33461(12) 1.00389(9)
N5 N 1.07017(18) 0.16059(11) 0.95003(9)
N6 N 0.9029(2) 0.29896(13) 0.96037(10)
C1 C 1.2351(2) -0.00953(13) 0.80402(10)
C2 C 1.3188(2) -0.08923(13) 0.84902(11)
H5 H 1.3781 -0.1443 0.8262
C3 C 1.3134(2) -0.08621(13) 0.92781(11)
C4 C 1.2287(2) -0.00613(13) 0.96294(10)
H6 H 1.2240 -0.0062 1.0170
C5 C 1.1506(2) 0.07435(13) 0.91579(11)
C6 C 1.1530(2) 0.07341(14) 0.83653(11)
H7 H 1.0992 0.1286 0.8052
C9 C 1.1104(2) 0.01185(12) 0.66985(11)
H11 H 1.0080 0.0372 0.6818
C10 C 1.3068(2) -0.04048(16) 0.60736(11)
H12 H 1.3670 -0.0581 0.5660
C11 C 1.3629(2) -0.04744(17) 0.68301(11)
H13 H 1.4674 -0.0711 0.7045
C12 C 1.4163(2) -0.27277(14) 0.94861(11)
H14 H 1.3844 -0.2969 0.8975
C13 C 1.5124(2) -0.26775(14) 1.06805(11)
H15 H 1.5630 -0.2897 1.1172
C14 C 1.4545(2) -0.16680(14) 1.05066(11)
H16 H 1.4551 -0.1061 1.0844
C15 C 0.9460(2) 0.22200(15) 0.91518(12)
H17 H 0.8965 0.2103 0.8641
C16 C 1.0037(2) 0.28675(16) 1.02815(13)
H18 H 1.0009 0.3313 1.0724
C17 C 1.1070(3) 0.20283(16) 1.02304(12)
H19 H 1.1883 0.1780 1.0618
O4B O 1.23195(18) 0.00196(12) 0.42996(9)
H3B H 1.247(3) -0.0241(19) 0.3894(16)
H4B H 1.274(3) 0.058(2) 0.4354(15)
N1B N 0.76283(18) 0.01308(11) 0.27714(9)
N2B N 0.85153(18) 0.00388(10) 0.40046(9)
N3B N 0.60555(18) 0.17012(11) 0.02616(9)
N4B N 0.51293(18) 0.33461(12) -0.00389(9)
N5B N 0.92983(18) -0.16059(11) 0.04997(9)
N6B N 1.0971(2) -0.29896(13) 0.03963(10)
C1B C 0.7649(2) 0.00953(13) 0.19598(10)
C2B C 0.6812(2) 0.08923(13) 0.15098(11)
H5B H 0.6219 0.1443 0.1738
C3B C 0.6866(2) 0.08621(13) 0.07219(11)
C4B C 0.7713(2) 0.00613(13) 0.03706(10)
H6B H 0.7760 0.0062 -0.0170
C5B C 0.8494(2) -0.07435(13) 0.08421(11)
C6B C 0.8470(2) -0.07341(14) 0.16347(11)
H7B H 0.9008 -0.1286 0.1948
C9B C 0.8896(2) -0.01185(12) 0.33015(11)
H11B H 0.9920 -0.0372 0.3182
C10B C 0.6932(2) 0.04048(16) 0.39264(11)
H12B H 0.6330 0.0581 0.4340
C11B C 0.6371(2) 0.04744(17) 0.31699(11)
H13B H 0.5326 0.0711 0.2955
C12B C 0.5837(2) 0.27277(14) 0.05139(11)
H14B H 0.6156 0.2969 0.1025
C13B C 0.4876(2) 0.26775(14) -0.06805(11)
H15B H 0.4370 0.2897 -0.1172
C14B C 0.5455(2) 0.16680(14) -0.05066(11)
H16B H 0.5449 0.1061 -0.0844
C15B C 1.0540(2) -0.22200(15) 0.08482(12)
H17B H 1.1035 -0.2103 0.1359
C16B C 0.9963(2) -0.28675(16) -0.02815(13)
H18B H 0.9991 -0.3313 -0.0724
C17B C 0.8930(3) -0.20283(16) -0.02304(12)
H19B H 0.8117 -0.1780 -0.0618
N4A N 0.98707(18) -0.16539(12) 0.50389(9)
N4C N 1.01293(18) 0.16539(12) 0.49611(9)
Cu1A Cu 1.5000 -0.5000 1.0000
Cu1A_2 Cu 0.5000 0.5000 0.0000
O1 O 0.77327(19) 0.10606(11) 0.71382(9)
O2 O 0.87896(19) 0.26995(12) 0.70331(11)
C7 C 0.7668(2) 0.20816(16) 0.71574(11)
C8 C 0.6115(3) 0.2587(2) 0.73711(15)
H8 H 0.5361 0.2010 0.7483
H9 H 0.5619 0.3031 0.6941
H10 H 0.6361 0.3047 0.7828
O3 O 0.8004(2) 0.48455(14) 0.65807(10)
H1 H 0.817(3) 0.424(2) 0.6710(17)
H2 H 0.767(3) 0.519(2) 0.6924(18)
loop_
_geom_bond_atom_site_label_1
_geom_bond_atom_site_label_2
_geom_bond_site_symmetry_1
_geom_bond_site_symmetry_2
Cu1 O4 1_555 1_555
O1 C7 1_555 1_555
O2 C7 1_555 1_555
O3 H1 1_555 1_555
H2 O3 1_555 1_555
O4 H3 1_555 1_555
H4 O4 1_555 1_555
N1 C1 1_555 1_555
N2 Cu1 1_555 1_555
N3 C3 1_555 1_555
N4 C12 1_555 1_555
N5 C5 1_555 1_555
N6 C15 1_555 1_555
C1 C2 1_555 1_555
C2 H5 1_555 1_555
C3 C2 1_555 1_555
C4 C3 1_555 1_555
H6 C4 1_555 1_555
C5 C4 1_555 1_555
C6 C1 1_555 1_555
H7 C6 1_555 1_555
C7 C8 1_555 1_555
C8 H8 1_555 1_555
H9 C8 1_555 1_555
H10 C8 1_555 1_555
C9 N1 1_555 1_555
H11 C9 1_555 1_555
C10 N2 1_555 1_555
H12 C10 1_555 1_555
C11 N1 1_555 1_555
H13 C11 1_555 1_555
C12 N3 1_555 1_555
H14 C12 1_555 1_555
C13 N4 1_555 1_555
H15 C13 1_555 1_555
C14 N3 1_555 1_555
H16 C14 1_555 1_555
C15 N5 1_555 1_555
H17 C15 1_555 1_555
C16 N6 1_555 1_555
H18 C16 1_555 1_555
C17 N5 1_555 1_555
H19 C17 1_555 1_555
O4B Cu1 1_555 1_555
H3B O4B 1_555 1_555
H4B O4B 1_555 1_555
N1B C1B 1_555 1_555
N2B Cu1 1_555 1_555
N3B C3B 1_555 1_555
N4B C12B 1_555 1_555
N5B C5B 1_555 1_555
N6B C15B 1_555 1_555
C1B C2B 1_555 1_555
C2B H5B 1_555 1_555
C3B C2B 1_555 1_555
C4B C3B 1_555 1_555
H6B C4B 1_555 1_555
C5B C4B 1_555 1_555
C6B C1B 1_555 1_555
H7B C6B 1_555 1_555
C9B N1B 1_555 1_555
H11B C9B 1_555 1_555
C10B N2B 1_555 1_555
H12B C10B 1_555 1_555
C11B N1B 1_555 1_555
H13B C11B 1_555 1_555
C12B N3B 1_555 1_555
H14B C12B 1_555 1_555
C13B N4B 1_555 1_555
H15B C13B 1_555 1_555
C14B N3B 1_555 1_555
H16B C14B 1_555 1_555
C15B N5B 1_555 1_555
H17B C15B 1_555 1_555
C16B N6B 1_555 1_555
H18B C16B 1_555 1_555
C17B N5B 1_555 1_555
H19B C17B 1_555 1_555
N4A Cu1 1_555 1_555
N4C Cu1 1_555 1_555
Cu1A N4 1_555 1_555
Cu1A_2 N4B 1_555 1_555
N2 C9 1_555 1_555
C5 C6 1_555 1_555
C10 C11 1_555 1_555
C13 C14 1_555 1_555
C16 C17 1_555 1_555
N2B C9B 1_555 1_555
C5B C6B 1_555 1_555
C10B C11B 1_555 1_555
C13B C14B 1_555 1_555
C16B C17B 1_555 1_555

#END
