
#######################################################################
#
#                 Cambridge Crystallographic Data Centre
#                                CCDC 
#
#######################################################################
#
# If this CIF has been generated from an entry in the Cambridge 
# Structural Database, then it will include bibliographic, chemical, 
# crystal, experimental, refinement or atomic coordinate data resulting 
# from the CCDC's data processing and validation procedures.
#
#######################################################################

data_JADVUG01
_symmetry_cell_setting           monoclinic
_symmetry_space_group_name_H-M   'P 21/n'
_symmetry_Int_Tables_number      14
_space_group_name_Hall           '-P 2yn'
loop_
_symmetry_equiv_pos_site_id
_symmetry_equiv_pos_as_xyz
1 x,y,z
2 1/2-x,1/2+y,1/2-z
3 -x,-y,-z
4 1/2+x,1/2-y,1/2+z
_cell_length_a                   10.628(7)
_cell_length_b                   11.513(7)
_cell_length_c                   13.554(9)
_cell_angle_alpha                90
_cell_angle_beta                 109.744(8)
_cell_angle_gamma                90
_cell_volume                     1560.97
loop_
_atom_site_label
_atom_site_type_symbol
_atom_site_fract_x
_atom_site_fract_y
_atom_site_fract_z
C1 C 0.4654(2) 0.80201(19) -0.17650(17)
H1 H 0.4439 0.8430 -0.2392
C2 C 0.71361(19) 0.51861(15) -0.02589(14)
H2 H 0.7122 0.5265 -0.0945
C3 C 0.60777(19) 0.50229(15) 0.31374(14)
H3 H 0.5283 0.5359 0.2714
C4 C 0.71528(18) 0.49234(14) 0.17827(13)
C5 C 0.78673(18) 0.43079(15) 0.03801(14)
C6 C 0.78970(18) 0.41651(15) 0.14037(14)
H4 H 0.8402 0.3577 0.1825
C7 C 0.9268(2) 0.36637(17) -0.07002(15)
H5 H 0.9367 0.4361 -0.1012
C8 C 0.64216(18) 0.59486(15) 0.01519(14)
C9 C 0.4627(2) 0.74410(17) -0.02872(16)
H6 H 0.4412 0.7353 0.0319
C10 C 0.9787(2) 0.26198(17) -0.08105(16)
H7 H 1.0328 0.2485 -0.1213
C11 C 0.86652(19) 0.23345(15) 0.02147(15)
H8 H 0.8265 0.1983 0.0651
C12 C 0.64459(18) 0.58348(15) 0.11806(14)
H9 H 0.5994 0.6363 0.1459
C13 C 0.8098(2) 0.42729(17) 0.36577(15)
H10 H 0.8928 0.3999 0.3674
C14 C 0.5633(2) 0.72161(18) -0.14462(15)
H11 H 0.6197 0.6972 -0.1802
C15 C 0.7607(2) 0.42794(17) 0.44564(16)
H12 H 0.8060 0.4009 0.5130
N1 N 0.63381(16) 0.47453(13) 0.41291(12)
N2 N 0.71176(15) 0.47550(13) 0.28144(11)
N3 N 0.94021(16) 0.17820(13) -0.02413(12)
N4 N 0.85594(15) 0.34784(13) -0.00290(12)
N5 N 0.56253(15) 0.68329(13) -0.04857(12)
N6 N 0.40124(18) 0.81561(16) -0.10418(14)
O1 O 0.65497(15) 0.44920(14) 0.64747(11)
H13 H 0.6661 0.3743 0.6500
H14 H 0.7306 0.4819 0.6526
Zn1 Zn 0.5000 0.5000 0.5000
C1B C 0.5346(2) 0.19799(19) 1.17650(17)
H1B H 0.5561 0.1570 1.2392
C2B C 0.28639(19) 0.48139(15) 1.02589(14)
H2B H 0.2878 0.4735 1.0945
C3B C 0.39223(19) 0.49771(15) 0.68626(14)
H3B H 0.4717 0.4641 0.7286
C4B C 0.28472(18) 0.50766(14) 0.82173(13)
C5B C 0.21327(18) 0.56921(15) 0.96199(14)
C6B C 0.21030(18) 0.58349(15) 0.85963(14)
H4B H 0.1598 0.6423 0.8175
C7B C 0.0732(2) 0.63363(17) 1.07002(15)
H5B H 0.0633 0.5639 1.1012
C8B C 0.35784(18) 0.40514(15) 0.98481(14)
C9B C 0.5373(2) 0.25590(17) 1.02872(16)
H6B H 0.5588 0.2647 0.9681
C10B C 0.0213(2) 0.73802(17) 1.08105(16)
H7B H -0.0328 0.7515 1.1213
C11B C 0.13348(19) 0.76655(15) 0.97853(15)
H8B H 0.1735 0.8017 0.9349
C12B C 0.35541(18) 0.41652(15) 0.88194(14)
H9B H 0.4006 0.3637 0.8541
C13B C 0.1902(2) 0.57271(17) 0.63423(15)
H10B H 0.1072 0.6001 0.6326
C14B C 0.4367(2) 0.27839(18) 1.14462(15)
H11B H 0.3803 0.3028 1.1802
C15B C 0.2393(2) 0.57206(17) 0.55436(16)
H12B H 0.1940 0.5991 0.4870
N1B N 0.36619(16) 0.52547(13) 0.58709(12)
N2B N 0.28824(15) 0.52450(13) 0.71856(11)
N3B N 0.05979(16) 0.82180(13) 1.02413(12)
N4B N 0.14406(15) 0.65216(13) 1.00290(12)
N5B N 0.43747(15) 0.31671(13) 1.04857(12)
N6B N 0.59876(18) 0.18439(16) 1.10418(14)
O1B O 0.34503(15) 0.55080(14) 0.35253(11)
H13B H 0.3339 0.6257 0.3500
H14B H 0.2694 0.5181 0.3474
N3A N 0.55979(16) 0.67820(13) 0.52413(12)
N3C N 0.44021(16) 0.32180(13) 0.47587(12)
Zn1A Zn 0.0000 1.0000 1.0000
Zn1A_2 Zn 1.0000 0.0000 0.0000
N7 N 0.38450(17) 0.82177(16) 0.23635(14)
O2 O 0.3268(2) 0.8077(2) 0.29913(19)
O3 O 0.4423(2) 0.73877(18) 0.21373(17)
O4 O 0.3905(2) 0.91718(18) 0.1984(2)
loop_
_geom_bond_atom_site_label_1
_geom_bond_atom_site_label_2
_geom_bond_site_symmetry_1
_geom_bond_site_symmetry_2
C1 H1 1_555 1_555
C2 H2 1_555 1_555
C3 H3 1_555 1_555
C4 C6 1_555 1_555
C5 C2 1_555 1_555
C6 C5 1_555 1_555
H4 C6 1_555 1_555
C7 H5 1_555 1_555
C8 C2 1_555 1_555
C9 H6 1_555 1_555
C10 C7 1_555 1_555
H7 C10 1_555 1_555
C11 H8 1_555 1_555
C12 C4 1_555 1_555
H9 C12 1_555 1_555
C13 H10 1_555 1_555
C14 C1 1_555 1_555
H11 C14 1_555 1_555
C15 C13 1_555 1_555
H12 C15 1_555 1_555
N1 C3 1_555 1_555
N2 C3 1_555 1_555
N3 C10 1_555 1_555
N4 C5 1_555 1_555
N5 C8 1_555 1_555
N6 C1 1_555 1_555
O1 H13 1_555 1_555
H14 O1 1_555 1_555
Zn1 N1 1_555 1_555
N7 O2 1_555 1_555
O3 N7 1_555 1_555
O4 N7 1_555 1_555
C1B H1B 1_555 1_555
C2B H2B 1_555 1_555
C3B H3B 1_555 1_555
C4B C6B 1_555 1_555
C5B C2B 1_555 1_555
C6B C5B 1_555 1_555
H4B C6B 1_555 1_555
C7B H5B 1_555 1_555
C8B C2B 1_555 1_555
C9B H6B 1_555 1_555
C10B C7B 1_555 1_555
H7B C10B 1_555 1_555
C11B H8B 1_555 1_555
C12B C4B 1_555 1_555
H9B C12B 1_555 1_555
C13B H10B 1_555 1_555
C14B C1B 1_555 1_555
H11B C14B 1_555 1_555
C15B C13B 1_555 1_555
H12B C15B 1_555 1_555
N1B Zn1 1_555 1_555
N2B C3B 1_555 1_555
N3B C10B 1_555 1_555
N4B C5B 1_555 1_555
N5B C8B 1_555 1_555
N6B C1B 1_555 1_555
O1B Zn1 1_555 1_555
H13B O1B 1_555 1_555
H14B O1B 1_555 1_555
N3A Zn1 1_555 1_555
N3C Zn1 1_555 1_555
Zn1A N3B 1_555 1_555
Zn1A_2 N3 1_555 1_555
C4 N2 1_555 1_555
C7 N4 1_555 1_555
C8 C12 1_555 1_555
C9 N5 1_555 1_555
C9 N6 1_555 1_555
C11 N3 1_555 1_555
C11 N4 1_555 1_555
C13 N2 1_555 1_555
C14 N5 1_555 1_555
C15 N1 1_555 1_555
O1 Zn1 1_555 1_555
C3B N1B 1_555 1_555
C4B N2B 1_555 1_555
C7B N4B 1_555 1_555
C8B C12B 1_555 1_555
C9B N5B 1_555 1_555
C9B N6B 1_555 1_555
C11B N3B 1_555 1_555
C11B N4B 1_555 1_555
C13B N2B 1_555 1_555
C14B N5B 1_555 1_555
C15B N1B 1_555 1_555

#END
