
#######################################################################
#
#                 Cambridge Crystallographic Data Centre
#                                CCDC 
#
#######################################################################
#
# If this CIF has been generated from an entry in the Cambridge 
# Structural Database, then it will include bibliographic, chemical, 
# crystal, experimental, refinement or atomic coordinate data resulting 
# from the CCDC's data processing and validation procedures.
#
#######################################################################

data_JADVEQ
_symmetry_cell_setting           monoclinic
_symmetry_space_group_name_H-M   'C 2/c'
_symmetry_Int_Tables_number      15
_space_group_name_Hall           '-C 2yn'
loop_
_symmetry_equiv_pos_site_id
_symmetry_equiv_pos_as_xyz
1 x,y,z
2 1/2+x,1/2+y,z
3 x,-y,1/2+z
4 1/2+x,1/2-y,1/2+z
5 -x,-y,-z
6 1/2-x,1/2-y,-z
7 -x,y,1/2-z
8 1/2-x,1/2+y,1/2-z
_cell_length_a                   23.766(3)
_cell_length_b                   12.0475(10)
_cell_length_c                   13.5160(13)
_cell_angle_alpha                90
_cell_angle_beta                 117.827(3)
_cell_angle_gamma                90
_cell_volume                     3422.4
loop_
_atom_site_label
_atom_site_type_symbol
_atom_site_fract_x
_atom_site_fract_y
_atom_site_fract_z
Ag1 Ag 0.346836(10) 0.025825(17) 0.721043(18)
N1 N 0.20771(10) -0.23506(16) 0.58521(17)
N2 N 0.26481(10) -0.08263(17) 0.64953(18)
N3 N 0.27763(10) -0.61889(17) 0.62838(18)
N4 N 0.32581(11) -0.78191(18) 0.67674(19)
N5 N 0.05313(10) -0.53866(17) 0.43826(18)
N6 N -0.05067(10) -0.55098(18) 0.33262(18)
C1 C 0.19292(12) -0.3507(2) 0.5659(2)
C2 C 0.24248(12) -0.4268(2) 0.6095(2)
H1 H 0.2853 -0.4028 0.6514
C3 C 0.22789(12) -0.5385(2) 0.5901(2)
C4 C 0.16563(12) -0.5752(2) 0.5326(2)
H2 H 0.1565 -0.6523 0.5209
C5 C 0.11684(12) -0.4977(2) 0.4923(2)
C6 C 0.12966(12) -0.3846(2) 0.5062(2)
H3 H 0.0962 -0.3317 0.4758
C7 C 0.26738(12) -0.1904(2) 0.6389(2)
H4 H 0.3057 -0.2319 0.6650
C8 C 0.20124(13) -0.0554(2) 0.6010(2)
H5 H 0.1851 0.0176 0.5962
C9 C 0.16531(13) -0.1472(2) 0.5614(2)
H6 H 0.1202 -0.1512 0.5247
C10 C 0.27256(13) -0.7281(2) 0.6493(2)
H7 H 0.2351 -0.7612 0.6447
C11 C 0.36741(13) -0.7037(2) 0.6733(2)
H8 H 0.4101 -0.7185 0.6892
C12 C 0.33884(12) -0.6029(2) 0.6442(2)
H9 H 0.3571 -0.5355 0.6362
C13 C -0.00061(13) -0.4845(2) 0.3662(2)
H10 H -0.0021 -0.4096 0.3430
C14 C -0.02755(13) -0.6510(2) 0.3861(2)
H11 H -0.0528 -0.7148 0.3782
C15 C 0.03593(13) -0.6453(2) 0.4510(2)
H12 H 0.0632 -0.7026 0.4962
N1_2 N 0.20771(10) 0.76494(16) 0.58521(17)
N2_2 N 0.26481(10) 0.91737(17) 0.64953(18)
N3_2 N 0.27763(10) 0.38111(17) 0.62838(18)
N4_2 N 0.32581(11) 0.21809(18) 0.67674(19)
N5_2 N 0.05313(10) 0.46134(17) 0.43826(18)
N6_2 N -0.05067(10) 0.44902(18) 0.33262(18)
C1_2 C 0.19292(12) 0.6493(2) 0.5659(2)
C2_2 C 0.24248(12) 0.5732(2) 0.6095(2)
H1_2 H 0.2853 0.5972 0.6514
C3_2 C 0.22789(12) 0.4615(2) 0.5901(2)
C4_2 C 0.16563(12) 0.4248(2) 0.5326(2)
H2_2 H 0.1565 0.3477 0.5209
C5_2 C 0.11684(12) 0.5023(2) 0.4923(2)
C6_2 C 0.12966(12) 0.6154(2) 0.5062(2)
H3_2 H 0.0962 0.6683 0.4758
C7_2 C 0.26738(12) 0.8096(2) 0.6389(2)
H4_2 H 0.3057 0.7681 0.6650
C8_2 C 0.20124(13) 0.9446(2) 0.6010(2)
H5_2 H 0.1851 1.0176 0.5962
C9_2 C 0.16531(13) 0.8528(2) 0.5614(2)
H6_2 H 0.1202 0.8488 0.5247
C10_2 C 0.27256(13) 0.2719(2) 0.6493(2)
H7_2 H 0.2351 0.2388 0.6447
C11_2 C 0.36741(13) 0.2963(2) 0.6733(2)
H8_2 H 0.4101 0.2815 0.6892
C12_2 C 0.33884(12) 0.3971(2) 0.6442(2)
H9_2 H 0.3571 0.4645 0.6362
C13_2 C -0.00061(13) 0.5155(2) 0.3662(2)
H10_2 H -0.0021 0.5904 0.3430
C14_2 C -0.02755(13) 0.3490(2) 0.3861(2)
H11_2 H -0.0528 0.2852 0.3782
C15_2 C 0.03593(13) 0.3547(2) 0.4510(2)
H12_2 H 0.0632 0.2974 0.4962
Ag1_2 Ag 0.346836(10) 1.025825(17) 0.721043(18)
N6C N 0.44933(10) 0.05098(18) 0.83262(18)
Ag1_3 Ag 0.346836(10) -0.974175(17) 0.721043(18)
Ag1C Ag -0.153164(10) -0.525825(17) 0.221043(18)
Ag1C_2 Ag -0.153164(10) 0.474175(17) 0.221043(18)
N4_3 N 0.32581(11) 1.21809(18) 0.67674(19)
N6C_2 N 0.44933(10) 1.05098(18) 0.83262(18)
O1 O 0.10569(9) 0.15310(16) 0.75654(16)
O2 O 0.13957(9) 0.18225(15) 0.62888(16)
C16 C 0.04894(12) 0.0675(2) 0.5774(2)
C17 C 0.03824(14) 0.0586(2) 0.4663(2)
H13 H 0.0645 0.0985 0.4431
C18 C 0.01024(14) 0.0078(2) 0.6096(2)
H14 H 0.0171 0.0125 0.6846
C19 C 0.10244(12) 0.1410(2) 0.6608(2)
C18D C -0.01024(14) -0.0078(2) 0.3904(2)
C16D C -0.04894(12) -0.0675(2) 0.4226(2)
C17D C -0.03824(14) -0.0586(2) 0.5337(2)
H13D H -0.0645 -0.0985 0.5569
C19D C -0.10244(12) -0.1410(2) 0.3392(2)
O1D O -0.10569(9) -0.15310(16) 0.24346(16)
O2D O -0.13957(9) -0.18225(15) 0.37112(16)
H14D H -0.0171 -0.0125 0.3154
O3 O 0.5000 0.2451(3) 0.2500
loop_
_geom_bond_atom_site_label_1
_geom_bond_atom_site_label_2
_geom_bond_site_symmetry_1
_geom_bond_site_symmetry_2
Ag1 N2 1_555 1_555
O1 C19 1_555 1_555
O2 C19 1_555 1_555
N1 C1 1_555 1_555
N2 C7 1_555 1_555
N3 C3 1_555 1_555
N4 C10 1_555 1_555
N5 C5 1_555 1_555
N6 C13 1_555 1_555
C1 C2 1_555 1_555
C2 H1 1_555 1_555
C3 C2 1_555 1_555
C4 C3 1_555 1_555
H2 C4 1_555 1_555
C5 C4 1_555 1_555
C6 C1 1_555 1_555
H3 C6 1_555 1_555
C7 N1 1_555 1_555
H4 C7 1_555 1_555
C8 N2 1_555 1_555
H5 C8 1_555 1_555
C9 N1 1_555 1_555
H6 C9 1_555 1_555
C10 N3 1_555 1_555
H7 C10 1_555 1_555
C11 N4 1_555 1_555
H8 C11 1_555 1_555
C12 N3 1_555 1_555
H9 C12 1_555 1_555
C13 N5 1_555 1_555
H10 C13 1_555 1_555
C14 N6 1_555 1_555
H11 C14 1_555 1_555
C15 N5 1_555 1_555
H12 C15 1_555 1_555
C16 C17 1_555 1_555
C17 H13 1_555 1_555
C18 C16 1_555 1_555
H14 C18 1_555 1_555
C19 C16 1_555 1_555
C18D C17 1_555 1_555
C16D C18D 1_555 1_555
C17D C18 1_555 1_555
H13D C17D 1_555 1_555
C19D C16D 1_555 1_555
O1D C19D 1_555 1_555
O2D C19D 1_555 1_555
H14D C18D 1_555 1_555
N1_2 C1_2 1_555 1_555
N2_2 C7_2 1_555 1_555
N3_2 C3_2 1_555 1_555
N4_2 Ag1 1_555 1_555
N5_2 C5_2 1_555 1_555
N6_2 C13_2 1_555 1_555
C1_2 C2_2 1_555 1_555
C2_2 H1_2 1_555 1_555
C3_2 C2_2 1_555 1_555
C4_2 C3_2 1_555 1_555
H2_2 C4_2 1_555 1_555
C5_2 C4_2 1_555 1_555
C6_2 C1_2 1_555 1_555
H3_2 C6_2 1_555 1_555
C7_2 N1_2 1_555 1_555
H4_2 C7_2 1_555 1_555
C8_2 N2_2 1_555 1_555
H5_2 C8_2 1_555 1_555
C9_2 N1_2 1_555 1_555
H6_2 C9_2 1_555 1_555
C10_2 N3_2 1_555 1_555
H7_2 C10_2 1_555 1_555
C11_2 N4_2 1_555 1_555
H8_2 C11_2 1_555 1_555
C12_2 N3_2 1_555 1_555
H9_2 C12_2 1_555 1_555
C13_2 N5_2 1_555 1_555
H10_2 C13_2 1_555 1_555
C14_2 N6_2 1_555 1_555
H11_2 C14_2 1_555 1_555
C15_2 N5_2 1_555 1_555
H12_2 C15_2 1_555 1_555
Ag1_2 N2_2 1_555 1_555
N6C Ag1 1_555 1_555
Ag1_3 N4 1_555 1_555
Ag1C N6 1_555 1_555
Ag1C_2 N6_2 1_555 1_555
N4_3 Ag1_2 1_555 1_555
N6C_2 Ag1_2 1_555 1_555
C5 C6 1_555 1_555
C8 C9 1_555 1_555
C11 C12 1_555 1_555
C14 C15 1_555 1_555
C16D C17D 1_555 1_555
N4_2 C10_2 1_555 1_555
C5_2 C6_2 1_555 1_555
C8_2 C9_2 1_555 1_555
C11_2 C12_2 1_555 1_555
C14_2 C15_2 1_555 1_555

#END
