
#######################################################################
#
#                 Cambridge Crystallographic Data Centre
#                                CCDC 
#
#######################################################################
#
# If this CIF has been generated from an entry in the Cambridge 
# Structural Database, then it will include bibliographic, chemical, 
# crystal, experimental, refinement or atomic coordinate data resulting 
# from the CCDC's data processing and validation procedures.
#
#######################################################################

data_JADWAN
_symmetry_cell_setting           monoclinic
_symmetry_space_group_name_H-M   'P 21/n'
_symmetry_Int_Tables_number      14
_space_group_name_Hall           '-P 2yn'
loop_
_symmetry_equiv_pos_site_id
_symmetry_equiv_pos_as_xyz
1 x,y,z
2 1/2+x,1/2-y,1/2+z
3 -x,-y,-z
4 1/2-x,1/2+y,1/2-z
_cell_length_a                   9.8033(3)
_cell_length_b                   12.1369(5)
_cell_length_c                   13.5215(5)
_cell_angle_alpha                90
_cell_angle_beta                 107.3280(10)
_cell_angle_gamma                90
_cell_volume                     1535.8
loop_
_atom_site_label
_atom_site_type_symbol
_atom_site_fract_x
_atom_site_fract_y
_atom_site_fract_z
Ni1 Ni 0.0000 0.0000 0.0000
N1 N 0.15383(13) 0.04945(11) 0.14220(10)
N2 N 0.24945(14) -0.00753(11) 0.18798(10)
N3 N 0.34475(18) -0.06114(14) 0.23501(14)
N4 N -0.24132(13) -0.02083(9) 0.21297(9)
N5 N -0.15140(13) -0.01749(9) 0.08141(9)
N6 N -0.37307(13) -0.16582(10) 0.50480(9)
N7 N -0.44724(13) -0.33301(10) 0.52674(9)
N8 N -0.08789(13) 0.16929(10) 0.54202(9)
N9 N 0.08161(14) 0.29614(11) 0.59529(10)
C1 C -0.24471(15) -0.01040(11) 0.31707(11)
C2 C -0.31555(15) -0.08874(11) 0.35801(11)
H3 H -0.3675 -0.1467 0.3161
C3 C -0.30876(15) -0.08048(11) 0.46147(11)
C4 C -0.23460(15) 0.00378(12) 0.52460(11)
H4 H -0.2295 0.0073 0.5958
C5 C -0.16806(15) 0.08282(11) 0.48028(11)
C6 C -0.17357(15) 0.07728(12) 0.37622(11)
H5 H -0.1295 0.1325 0.3463
C7 C -0.12748(15) 0.00481(12) 0.18042(11)
H6 H -0.0409 0.0352 0.2237
C8 C -0.28860(16) -0.05943(12) 0.04835(12)
H7 H -0.3365 -0.0825 -0.0204
C9 C -0.34485(16) -0.06276(13) 0.12882(11)
H8 H -0.4369 -0.0887 0.1273
C10 C -0.37611(16) -0.27362(12) 0.47754(11)
H9 H -0.3324 -0.3024 0.4291
C11 C -0.49174(18) -0.25992(12) 0.58913(12)
H10 H -0.5466 -0.2792 0.6338
C12 C -0.44582(17) -0.15669(12) 0.57743(12)
H11 H -0.4607 -0.0917 0.6120
C13 C 0.02322(16) 0.22445(12) 0.52260(12)
H12 H 0.0543 0.2122 0.4633
C14 C 0.00324(18) 0.28783(13) 0.66492(12)
H13 H 0.0199 0.3307 0.7261
C15 C -0.10050(18) 0.21026(13) 0.63412(12)
H14 H -0.1676 0.1887 0.6687
N1B N -0.15383(13) -0.04945(11) -0.14220(10)
N2B N -0.24945(14) 0.00753(11) -0.18798(10)
N3B N -0.34475(18) 0.06114(14) -0.23501(14)
N4B N 0.24132(13) 0.02083(9) -0.21297(9)
N5B N 0.15140(13) 0.01749(9) -0.08141(9)
N6B N 0.37307(13) 0.16582(10) -0.50480(9)
N7B N 0.44724(13) 0.33301(10) -0.52674(9)
N8B N 0.08789(13) -0.16929(10) -0.54202(9)
N9B N -0.08161(14) -0.29614(11) -0.59529(10)
C1B C 0.24471(15) 0.01040(11) -0.31707(11)
C2B C 0.31555(15) 0.08874(11) -0.35801(11)
H3B H 0.3675 0.1467 -0.3161
C3B C 0.30876(15) 0.08048(11) -0.46147(11)
C4B C 0.23460(15) -0.00378(12) -0.52460(11)
H4B H 0.2295 -0.0073 -0.5958
C5B C 0.16806(15) -0.08282(11) -0.48028(11)
C6B C 0.17357(15) -0.07728(12) -0.37622(11)
H5B H 0.1295 -0.1325 -0.3463
C7B C 0.12748(15) -0.00481(12) -0.18042(11)
H6B H 0.0409 -0.0352 -0.2237
C8B C 0.28860(16) 0.05943(12) -0.04835(12)
H7B H 0.3365 0.0825 0.0204
C9B C 0.34485(16) 0.06276(13) -0.12882(11)
H8B H 0.4369 0.0887 -0.1273
C10B C 0.37611(16) 0.27362(12) -0.47754(11)
H9B H 0.3324 0.3024 -0.4291
C11B C 0.49174(18) 0.25992(12) -0.58913(12)
H10B H 0.5466 0.2792 -0.6338
C12B C 0.44582(17) 0.15669(12) -0.57743(12)
H11B H 0.4607 0.0917 -0.6120
C13B C -0.02322(16) -0.22445(12) -0.52260(12)
H12B H -0.0543 -0.2122 -0.4633
C14B C -0.00324(18) -0.28783(13) -0.66492(12)
H13B H -0.0199 -0.3307 -0.7261
C15B C 0.10050(18) -0.21026(13) -0.63412(12)
H14B H 0.1676 -0.1887 -0.6687
N7A N 0.05276(13) -0.16699(10) 0.02674(9)
N7C N -0.05276(13) 0.16699(10) -0.02674(9)
Ni1A Ni -0.5000 -0.5000 0.5000
Ni1A_2 Ni 0.5000 0.5000 -0.5000
O1 O 0.08013(15) 0.21218(12) 0.28304(11)
H1 H 0.110(2) 0.1767(19) 0.2402(18)
H2 H 0.112(2) 0.275(2) 0.2790(18)
loop_
_geom_bond_atom_site_label_1
_geom_bond_atom_site_label_2
_geom_bond_site_symmetry_1
_geom_bond_site_symmetry_2
Ni1 N1 1_555 1_555
O1 H1 1_555 1_555
H2 O1 1_555 1_555
N1 N2 1_555 1_555
N2 N3 1_555 1_555
N4 C1 1_555 1_555
N5 Ni1 1_555 1_555
N6 C3 1_555 1_555
N7 C10 1_555 1_555
N8 C5 1_555 1_555
N9 C13 1_555 1_555
C1 C2 1_555 1_555
C2 H3 1_555 1_555
C3 C2 1_555 1_555
C4 C3 1_555 1_555
H4 C4 1_555 1_555
C5 C4 1_555 1_555
C6 C1 1_555 1_555
H5 C6 1_555 1_555
C7 N4 1_555 1_555
H6 C7 1_555 1_555
C8 N5 1_555 1_555
H7 C8 1_555 1_555
C9 N4 1_555 1_555
H8 C9 1_555 1_555
C10 N6 1_555 1_555
H9 C10 1_555 1_555
C11 N7 1_555 1_555
H10 C11 1_555 1_555
C12 N6 1_555 1_555
H11 C12 1_555 1_555
C13 N8 1_555 1_555
H12 C13 1_555 1_555
C14 N9 1_555 1_555
H13 C14 1_555 1_555
C15 N8 1_555 1_555
H14 C15 1_555 1_555
N1B Ni1 1_555 1_555
N2B N1B 1_555 1_555
N3B N2B 1_555 1_555
N4B C1B 1_555 1_555
N5B Ni1 1_555 1_555
N6B C3B 1_555 1_555
N7B C10B 1_555 1_555
N8B C5B 1_555 1_555
N9B C13B 1_555 1_555
C1B C2B 1_555 1_555
C2B H3B 1_555 1_555
C3B C2B 1_555 1_555
C4B C3B 1_555 1_555
H4B C4B 1_555 1_555
C5B C4B 1_555 1_555
C6B C1B 1_555 1_555
H5B C6B 1_555 1_555
C7B N4B 1_555 1_555
H6B C7B 1_555 1_555
C8B N5B 1_555 1_555
H7B C8B 1_555 1_555
C9B N4B 1_555 1_555
H8B C9B 1_555 1_555
C10B N6B 1_555 1_555
H9B C10B 1_555 1_555
C11B N7B 1_555 1_555
H10B C11B 1_555 1_555
C12B N6B 1_555 1_555
H11B C12B 1_555 1_555
C13B N8B 1_555 1_555
H12B C13B 1_555 1_555
C14B N9B 1_555 1_555
H13B C14B 1_555 1_555
C15B N8B 1_555 1_555
H14B C15B 1_555 1_555
N7A Ni1 1_555 1_555
N7C Ni1 1_555 1_555
Ni1A N7 1_555 1_555
Ni1A_2 N7B 1_555 1_555
N5 C7 1_555 1_555
C5 C6 1_555 1_555
C8 C9 1_555 1_555
C11 C12 1_555 1_555
C14 C15 1_555 1_555
N5B C7B 1_555 1_555
C5B C6B 1_555 1_555
C8B C9B 1_555 1_555
C11B C12B 1_555 1_555
C14B C15B 1_555 1_555

#END
