
#######################################################################
#
#                 Cambridge Crystallographic Data Centre
#                                CCDC 
#
#######################################################################
#
# If this CIF has been generated from an entry in the Cambridge 
# Structural Database, then it will include bibliographic, chemical, 
# crystal, experimental, refinement or atomic coordinate data resulting 
# from the CCDC's data processing and validation procedures.
#
#######################################################################

data_JAFDAV
_symmetry_cell_setting           monoclinic
_symmetry_space_group_name_H-M   'P 21/n'
_symmetry_Int_Tables_number      14
_space_group_name_Hall           '-P 2yn'
loop_
_symmetry_equiv_pos_site_id
_symmetry_equiv_pos_as_xyz
1 x,y,z
2 1/2-x,1/2+y,1/2-z
3 -x,-y,-z
4 1/2+x,1/2-y,1/2+z
_cell_length_a                   9.582(1)
_cell_length_b                   16.838(2)
_cell_length_c                   13.275(2)
_cell_angle_alpha                90
_cell_angle_beta                 105.76(1)
_cell_angle_gamma                90
_cell_volume                     2061.3
loop_
_atom_site_label
_atom_site_type_symbol
_atom_site_fract_x
_atom_site_fract_y
_atom_site_fract_z
C13 C 0.0670(23) 0.2984(12) -0.0845(14)
C14 C 0.0861(23) 0.3074(10) 0.0240(14)
O1 O 0.1600(14) 0.3830(8) 0.0301(10)
C15 C 0.1269(23) 0.3765(10) 0.1309(13)
C16 C 0.1354(23) 0.4605(10) 0.1466(15)
Ni1 Ni 0.2062(2) 0.0184(1) -0.1150(1)
S1 S 0.2082(4) -0.1024(2) 0.0089(3)
C1 C 0.0725(13) -0.0785(7) 0.0565(10)
S2 S 0.3284(4) 0.1001(2) 0.0551(3)
C2 C 0.4870(13) 0.0581(7) 0.0929(9)
N1 N 0.0227(11) 0.0613(6) -0.0870(8)
N2 N 0.4012(11) -0.0277(7) -0.1188(8)
N3 N 0.2133(12) 0.1180(7) -0.2120(9)
C3 C 0.3202(20) 0.1651(11) -0.2158(14)
C4 C 0.3011(21) 0.2364(11) -0.2874(14)
C5 C 0.1739(23) 0.2506(13) -0.3387(16)
C6 C 0.0747(24) 0.2042(10) -0.3322(14)
C7 C 0.0920(20) 0.1447(10) -0.2771(11)
N4 N 0.4495(19) 0.1492(11) -0.1617(13)
N5 N 0.0845(12) -0.0503(7) -0.2428(8)
C8 C 0.1165(19) -0.0606(10) -0.3364(13)
C9 C 0.0211(22) -0.1039(14) -0.4169(17)
C10 C -0.1047(24) -0.1349(14) -0.4009(17)
C11 C -0.1320(20) -0.1284(11) -0.3038(14)
C12 C -0.0367(15) -0.0841(8) -0.2293(12)
N6 N 0.2293(14) -0.0296(8) -0.3500(10)
N1B N -0.0227(11) -0.0613(6) 0.0870(8)
N2B N 0.5988(11) 0.0277(7) 0.1188(8)
C1B C -0.0725(13) 0.0785(7) -0.0565(10)
C2B C 0.5130(13) -0.0581(7) -0.0929(9)
Ni1B Ni -0.2062(2) -0.0184(1) 0.1150(1)
Ni1B_2 Ni 0.7938(2) -0.0184(1) 0.1150(1)
S1B S -0.2082(4) 0.1024(2) -0.0089(3)
S2B S 0.6716(4) -0.1001(2) -0.0551(3)
S2B_2 S -0.3284(4) -0.1001(2) -0.0551(3)
N2B_2 N -0.4012(11) 0.0277(7) 0.1188(8)
N3B N -0.2133(12) -0.1180(7) 0.2120(9)
N5B N -0.0845(12) 0.0503(7) 0.2428(8)
C3B C -0.3202(20) -0.1651(11) 0.2158(14)
C7B C -0.0920(20) -0.1447(10) 0.2771(11)
C8B C -0.1165(19) 0.0606(10) 0.3364(13)
C12B C 0.0367(15) 0.0841(8) 0.2293(12)
C4B C -0.3011(21) -0.2364(11) 0.2874(14)
N4B N -0.4495(19) -0.1492(11) 0.1617(13)
C6B C -0.0747(24) -0.2042(10) 0.3322(14)
C9B C -0.0211(22) 0.1039(14) 0.4169(17)
N6B N -0.2293(14) 0.0296(8) 0.3500(10)
C11B C 0.1320(20) 0.1284(11) 0.3038(14)
C5B C -0.1739(23) -0.2506(13) 0.3387(16)
C10B C 0.1047(24) 0.1349(14) 0.4009(17)
loop_
_geom_bond_atom_site_label_1
_geom_bond_atom_site_label_2
_geom_bond_site_symmetry_1
_geom_bond_site_symmetry_2
Ni1 S1 1_555 1_555
S1 C1 1_555 1_555
C1 N1B 1_555 1_555
S2 Ni1 1_555 1_555
C2 S2 1_555 1_555
N1 Ni1 1_555 1_555
N2 Ni1 1_555 1_555
N3 Ni1 1_555 1_555
C3 N3 1_555 1_555
C4 C3 1_555 1_555
C5 C4 1_555 1_555
C6 C5 1_555 1_555
C7 N3 1_555 1_555
N4 C3 1_555 1_555
N5 Ni1 1_555 1_555
C8 N5 1_555 1_555
C9 C8 1_555 1_555
C10 C9 1_555 1_555
C11 C10 1_555 1_555
C12 N5 1_555 1_555
N6 C8 1_555 1_555
C13 C14 1_555 1_555
C14 O1 1_555 1_555
O1 C15 1_555 1_555
C15 C16 1_555 1_555
N1B Ni1B 1_555 1_555
N2B C2 1_555 1_555
C1B N1 1_555 1_555
C2B N2 1_555 1_555
Ni1B S1B 1_555 1_555
Ni1B_2 N2B 1_555 1_555
S1B C1B 1_555 1_555
S2B C2B 1_555 1_555
S2B_2 Ni1B 1_555 1_555
N2B_2 Ni1B 1_555 1_555
N3B Ni1B 1_555 1_555
N5B Ni1B 1_555 1_555
C3B N3B 1_555 1_555
C7B N3B 1_555 1_555
C8B N5B 1_555 1_555
C12B N5B 1_555 1_555
C4B C3B 1_555 1_555
N4B C3B 1_555 1_555
C6B C7B 1_555 1_555
C9B C8B 1_555 1_555
N6B C8B 1_555 1_555
C11B C12B 1_555 1_555
C5B C4B 1_555 1_555
C10B C9B 1_555 1_555
C6 C7 1_555 1_555
C11 C12 1_555 1_555
Ni1B_2 S2B 1_555 1_555
C6B C5B 1_555 1_555
C11B C10B 1_555 1_555

#END
