
#######################################################################
#
#                 Cambridge Crystallographic Data Centre
#                                CCDC 
#
#######################################################################
#
# If this CIF has been generated from an entry in the Cambridge 
# Structural Database, then it will include bibliographic, chemical, 
# crystal, experimental, refinement or atomic coordinate data resulting 
# from the CCDC's data processing and validation procedures.
#
#######################################################################

data_JAFMAF
_symmetry_cell_setting           orthorhombic
_symmetry_space_group_name_H-M   'P 21 21 21'
_symmetry_Int_Tables_number      19
_space_group_name_Hall           'P 2ac 2ab'
loop_
_symmetry_equiv_pos_site_id
_symmetry_equiv_pos_as_xyz
1 x,y,z
2 1/2-x,-y,1/2+z
3 -x,1/2+y,1/2-z
4 1/2+x,1/2-y,-z
_cell_length_a                   6.0429(1)
_cell_length_b                   13.9308(3)
_cell_length_c                   18.8836(3)
_cell_angle_alpha                90.00
_cell_angle_beta                 90.00
_cell_angle_gamma                90.00
_cell_volume                     1589.67
loop_
_atom_site_label
_atom_site_type_symbol
_atom_site_fract_x
_atom_site_fract_y
_atom_site_fract_z
Ag1 Ag -0.81624(3) -0.324797(12) -0.062592(9)
P1 P -0.98152(9) -0.47776(4) -0.07126(3)
S1 S -0.37412(9) -0.21309(4) -0.11892(3)
O1 O -0.6028(3) -0.20087(11) -0.09367(9)
O2 O -0.2215(3) -0.23270(12) -0.06073(9)
O3 O -0.3564(3) -0.28079(12) -0.17661(9)
C1 C -1.1399(4) -0.50431(18) 0.00832(14)
H1 H -1.2075 -0.5680 0.0039
H2 H -1.2561 -0.4559 0.0144
H3 H -1.0414 -0.5033 0.0495
C2 C -1.1876(4) -0.49515(18) -0.14052(13)
H4 H -1.2434 -0.5612 -0.1386
H5 H -1.1199 -0.4834 -0.1869
H6 H -1.3105 -0.4503 -0.1333
C3 C -0.3008(4) -0.09807(15) -0.15282(11)
C4 C -0.0924(4) -0.06024(18) -0.13992(13)
H7 H 0.0133 -0.0953 -0.1132
C5 C -0.0405(4) 0.03006(19) -0.16686(13)
H8 H 0.1022 0.0561 -0.1581
C6 C -0.1913(4) 0.08321(16) -0.20611(12)
C7 C -0.4005(4) 0.04313(17) -0.21937(13)
H9 H -0.5058 0.0779 -0.2465
C8 C -0.4547(4) -0.04743(17) -0.19290(13)
H10 H -0.5962 -0.0744 -0.2022
C9 C -0.1349(4) 0.18166(19) -0.23417(15)
H11 H 0.0163 0.1985 -0.2201
H12 H -0.2385 0.2289 -0.2146
H13 H -0.1459 0.1815 -0.2859
C10 C -0.8001(4) -0.58157(15) -0.07977(12)
C11 C -0.7760(4) -0.63075(18) -0.14376(12)
H14 H -0.8549 -0.6099 -0.1845
C12 C -0.6372(4) -0.71007(19) -0.14820(14)
H15 H -0.6221 -0.7432 -0.1919
C13 C -0.5206(4) -0.74116(18) -0.08934(14)
H16 H -0.4256 -0.7953 -0.0926
C14 C -0.5434(4) -0.69252(17) -0.02536(13)
H17 H -0.4653 -0.7141 0.0153
C15 C -0.6796(4) -0.61271(16) -0.02076(12)
H18 H -0.6912 -0.5789 0.0228
O2C O -0.7215(3) -0.26730(12) 0.06073(9)
Ag1C Ag -0.31624(3) -0.175203(12) 0.062592(9)
loop_
_geom_bond_atom_site_label_1
_geom_bond_atom_site_label_2
_geom_bond_site_symmetry_1
_geom_bond_site_symmetry_2
Ag1 P1 1_555 1_555
P1 C1 1_555 1_555
S1 O1 1_555 1_555
O1 Ag1 1_555 1_555
O2 S1 1_555 1_555
O3 S1 1_555 1_555
C1 H1 1_555 1_555
H2 C1 1_555 1_555
H3 C1 1_555 1_555
C2 P1 1_555 1_555
H4 C2 1_555 1_555
H5 C2 1_555 1_555
H6 C2 1_555 1_555
C3 S1 1_555 1_555
C4 C3 1_555 1_555
H7 C4 1_555 1_555
C5 C4 1_555 1_555
H8 C5 1_555 1_555
C6 C5 1_555 1_555
C7 C6 1_555 1_555
H9 C7 1_555 1_555
C8 C3 1_555 1_555
H10 C8 1_555 1_555
C9 C6 1_555 1_555
H11 C9 1_555 1_555
H12 C9 1_555 1_555
H13 C9 1_555 1_555
C10 P1 1_555 1_555
C11 C10 1_555 1_555
H14 C11 1_555 1_555
C12 C11 1_555 1_555
H15 C12 1_555 1_555
C13 C12 1_555 1_555
H16 C13 1_555 1_555
C14 C13 1_555 1_555
H17 C14 1_555 1_555
C15 C10 1_555 1_555
H18 C15 1_555 1_555
O2C Ag1 1_555 1_555
Ag1C O2 1_555 1_555
C7 C8 1_555 1_555
C14 C15 1_555 1_555

#END
