
#######################################################################
#
#                 Cambridge Crystallographic Data Centre
#                                CCDC 
#
#######################################################################
#
# If this CIF has been generated from an entry in the Cambridge 
# Structural Database, then it will include bibliographic, chemical, 
# crystal, experimental, refinement or atomic coordinate data resulting 
# from the CCDC's data processing and validation procedures.
#
#######################################################################

data_JAFPUC
_symmetry_cell_setting           triclinic
_symmetry_space_group_name_H-M   'P -1'
_symmetry_Int_Tables_number      2
_space_group_name_Hall           '-P 1'
loop_
_symmetry_equiv_pos_site_id
_symmetry_equiv_pos_as_xyz
1 x,y,z
2 -x,-y,-z
_cell_length_a                   7.8214(5)
_cell_length_b                   9.4574(8)
_cell_length_c                   11.5096(11)
_cell_angle_alpha                67.879(4)
_cell_angle_beta                 84.909(5)
_cell_angle_gamma                69.866(5)
_cell_volume                     739.682
loop_
_atom_site_label
_atom_site_type_symbol
_atom_site_fract_x
_atom_site_fract_y
_atom_site_fract_z
Mn1 Mn 0.0000 0.0000 0.0000
S1 S 0.27440(12) 0.38903(11) -0.30336(9)
S2 S 0.86209(12) -0.15891(11) -0.18771(9)
O1 O 0.2424(3) -0.1476(3) 0.0143(2)
O2 O 0.0925(3) 0.1606(3) -0.1139(2)
O3 O 0.0741(5) 0.7791(4) -0.6016(3)
H1 H 0.056(8) 0.834(7) -0.660(5)
H2 H -0.011(7) 0.738(6) -0.598(5)
O5 O 1.2928(5) -0.0763(4) -0.4017(4)
H5 H 1.302(7) -0.165(7) -0.339(5)
H6 H 1.333(7) 0.005(7) -0.417(5)
O6 O -0.3107(4) 0.4554(3) -0.1903(3)
H7 H -0.413(6) 0.548(6) -0.192(4)
H8 H -0.311(7) 0.387(6) -0.157(5)
O7 O 0.3411(5) 0.2344(4) -0.5487(4)
H9 H 0.286(8) 0.239(7) -0.594(5)
H10 H 0.427(7) 0.186(7) -0.556(6)
O8 O 0.1118(4) 0.4218(3) -0.3745(3)
O9 O 0.2312(4) 0.4542(3) -0.2039(3)
O10 O 0.4133(3) 0.4391(3) -0.3834(3)
O11 O 0.9195(3) -0.3226(3) -0.0927(2)
O12 O 0.8771(3) -0.1565(3) -0.3151(2)
O13 O 0.9599(3) -0.0594(3) -0.1708(2)
C1 C 0.3516(5) -0.0737(4) -0.0661(4)
C2 C 0.2684(5) 0.0928(4) -0.1372(4)
C3 C 0.3688(5) 0.1769(4) -0.2235(4)
C4 C 0.5503(5) 0.0971(4) -0.2395(4)
H11 H 0.621(5) 0.143(5) -0.296(4)
C5 C 0.6309(5) -0.0660(4) -0.1671(4)
C6 C 0.5328(5) -0.1524(5) -0.0787(4)
H12 H 0.587(5) -0.259(5) -0.032(4)
Na1 Na -0.0335(2) 0.43196(17) -0.11686(15)
Na2 Na 0.2965(3) 0.5121(2) -0.59110(16)
Na3 Na 1.0000 0.0000 -0.5000
S1A S -0.27440(12) -0.38903(11) 0.30336(9)
S2A S -0.86209(12) 0.15891(11) 0.18771(9)
O1A O -0.2424(3) 0.1476(3) -0.0143(2)
O2A O -0.0925(3) -0.1606(3) 0.1139(2)
O8A O -0.1118(4) -0.4218(3) 0.3745(3)
O9A O -0.2312(4) -0.4542(3) 0.2039(3)
O10A O -0.4133(3) -0.4391(3) 0.3834(3)
O11A O -0.9195(3) 0.3226(3) 0.0927(2)
O12A O -0.8771(3) 0.1565(3) 0.3151(2)
O13A O -0.9599(3) 0.0594(3) 0.1708(2)
C1A C -0.3516(5) 0.0737(4) 0.0661(4)
C2A C -0.2684(5) -0.0928(4) 0.1372(4)
C3A C -0.3688(5) -0.1769(4) 0.2235(4)
C4A C -0.5503(5) -0.0971(4) 0.2395(4)
H11A H -0.621(5) -0.143(5) 0.296(4)
C5A C -0.6309(5) 0.0660(4) 0.1671(4)
C6A C -0.5328(5) 0.1524(5) 0.0787(4)
H12A H -0.587(5) 0.259(5) 0.032(4)
Na1A Na 0.0335(2) -0.43196(17) 0.11686(15)
Na2A Na -0.2965(3) -0.5121(2) 0.59110(16)
O6A O 0.3107(4) 0.5446(3) -0.8097(3)
H7A H 0.413(6) 0.452(6) -0.808(4)
H8A H 0.311(7) 0.613(6) -0.843(5)
O3A O 0.9259(5) 0.2209(4) -0.3984(3)
H1A H 0.944(8) 0.166(7) -0.340(5)
H2A H 1.011(7) 0.262(6) -0.402(5)
O5A O 0.7072(5) 0.0763(4) -0.5983(4)
H5A H 0.698(7) 0.165(7) -0.661(5)
H6A H 0.667(7) -0.005(7) -0.583(5)
O7A O -0.3411(5) -0.2344(4) 0.5487(4)
H9A H -0.286(8) -0.239(7) 0.594(5)
H10A H -0.427(7) -0.186(7) 0.556(6)
O13_2 O -0.0401(3) -0.0594(3) -0.1708(2)
O13A_2 O 0.0401(3) 0.0594(3) 0.1708(2)
Na3_2 Na 0.0000 1.0000 -0.5000
Na2A_2 Na -0.2965(3) 0.4879(2) -0.40890(16)
Na2A_3 Na 0.7035(3) 0.4879(2) -0.40890(16)
Na1_2 Na 0.9665(2) -0.56804(17) -0.11686(15)
Na1A_2 Na 1.0335(2) -0.43196(17) 0.11686(15)
Mn1_2 Mn 1.0000 0.0000 0.0000
O11_2 O -0.0805(3) 0.6774(3) -0.0927(2)
O11A_2 O 0.0805(3) 0.3226(3) 0.0927(2)
O10A_2 O 0.5867(3) 0.5609(3) -0.6166(3)
O3_2 O 1.0741(5) -0.2209(4) -0.6016(3)
O12A_2 O 1.1229(3) 0.1565(3) -0.6849(2)
Na2_2 Na -0.7035(3) -0.4879(2) 0.40890(16)
Na1_3 Na -1.0335(2) 0.43196(17) -0.11686(15)
Na1A_3 Na -0.9665(2) 0.56804(17) 0.11686(15)
Na3_3 Na -1.0000 0.0000 0.5000
Mn1_3 Mn -1.0000 0.0000 0.0000
O6A_2 O 0.3107(4) -0.4554(3) 0.1903(3)
O11_3 O -0.0805(3) -0.3226(3) -0.0927(2)
O11A_3 O 0.0805(3) -0.6774(3) 0.0927(2)
O3A_2 O -0.0741(5) -0.7791(4) 0.6016(3)
O6_2 O -0.3107(4) -0.5446(3) 0.8097(3)
O10_2 O -0.5867(3) -0.5609(3) 0.6166(3)
Na1A_4 Na 0.0335(2) 0.56804(17) -0.88314(15)
H1_2 H 1.056(8) -0.166(7) -0.660(5)
H2_2 H 0.989(7) -0.262(6) -0.598(5)
H7A_2 H 0.413(6) -0.548(6) 0.192(4)
H8A_2 H 0.311(7) -0.387(6) 0.157(5)
H1A_2 H -0.056(8) -0.834(7) 0.660(5)
H2A_2 H 0.011(7) -0.738(6) 0.598(5)
H7_2 H -0.413(6) -0.452(6) 0.808(4)
H8_2 H -0.311(7) -0.613(6) 0.843(5)
O4 O 0.3472(4) 0.6685(4) -0.1678(3)
H3 H 0.296(7) 0.611(6) -0.204(5)
H4 H 0.310(7) 0.689(7) -0.109(5)
loop_
_geom_bond_atom_site_label_1
_geom_bond_atom_site_label_2
_geom_bond_site_symmetry_1
_geom_bond_site_symmetry_2
Mn1 O1 1_555 1_555
S1 O8 1_555 1_555
S2 O11 1_555 1_555
O1 C1 1_555 1_555
O2 Mn1 1_555 1_555
O3 H1 1_555 1_555
H2 O3 1_555 1_555
O4 H3 1_555 1_555
H4 O4 1_555 1_555
O5 H5 1_555 1_555
H6 O5 1_555 1_555
O6 H7 1_555 1_555
H8 O6 1_555 1_555
O7 H9 1_555 1_555
H10 O7 1_555 1_555
O8 Na2 1_555 1_555
O9 S1 1_555 1_555
O10 S1 1_555 1_555
O11 Na1_2 1_555 1_555
O12 S2 1_555 1_555
O13 S2 1_555 1_555
C1 C2 1_555 1_555
C2 O2 1_555 1_555
C3 S1 1_555 1_555
C4 C3 1_555 1_555
H11 C4 1_555 1_555
C5 S2 1_555 1_555
C6 C1 1_555 1_555
H12 C6 1_555 1_555
Na1 O2 1_555 1_555
Na2 O3 1_555 1_555
Na3 O5 1_555 1_555
S1A O8A 1_555 1_555
S2A O11A 1_555 1_555
O1A Mn1 1_555 1_555
O2A Mn1 1_555 1_555
O8A Na2A 1_555 1_555
O9A S1A 1_555 1_555
O10A S1A 1_555 1_555
O11A Na1_3 1_555 1_555
O12A S2A 1_555 1_555
O13A S2A 1_555 1_555
C1A O1A 1_555 1_555
C2A O2A 1_555 1_555
C3A S1A 1_555 1_555
C4A C3A 1_555 1_555
H11A C4A 1_555 1_555
C5A S2A 1_555 1_555
C6A C1A 1_555 1_555
H12A C6A 1_555 1_555
Na1A O2A 1_555 1_555
Na2A O10A 1_555 1_555
O6A Na2 1_555 1_555
H7A O6A 1_555 1_555
H8A O6A 1_555 1_555
O3A Na3 1_555 1_555
H1A O3A 1_555 1_555
H2A O3A 1_555 1_555
O5A Na3 1_555 1_555
H5A O5A 1_555 1_555
H6A O5A 1_555 1_555
O7A Na2A 1_555 1_555
H9A O7A 1_555 1_555
H10A O7A 1_555 1_555
O13_2 Mn1 1_555 1_555
O13A_2 Mn1 1_555 1_555
Na3_2 O3 1_555 1_555
Na2A_2 O6 1_555 1_555
Na2A_3 O10 1_555 1_555
Na1A_2 O11 1_555 1_555
Mn1_2 O13 1_555 1_555
O11_2 Na1 1_555 1_555
O11A_2 Na1 1_555 1_555
O10A_2 Na2 1_555 1_555
O3_2 Na3 1_555 1_555
O12A_2 Na3 1_555 1_555
Na2_2 O10A 1_555 1_555
Na1A_3 O11A 1_555 1_555
Na3_3 O12A 1_555 1_555
Mn1_3 O13A 1_555 1_555
O6A_2 Na1A 1_555 1_555
O11_3 Na1A 1_555 1_555
O11A_3 Na1A 1_555 1_555
O3A_2 Na2A 1_555 1_555
O6_2 Na2A 1_555 1_555
O10_2 Na2A 1_555 1_555
Na1A_4 O6A 1_555 1_555
H1_2 O3_2 1_555 1_555
H2_2 O3_2 1_555 1_555
H7A_2 O6A_2 1_555 1_555
H8A_2 O6A_2 1_555 1_555
H1A_2 O3A_2 1_555 1_555
H2A_2 O3A_2 1_555 1_555
H7_2 O6_2 1_555 1_555
H8_2 O6_2 1_555 1_555
O6 Na1 1_555 1_555
O7 Na2 1_555 1_555
O9 Na1 1_555 1_555
O10 Na2 1_555 1_555
O12 Na3 1_555 1_555
C2 C3 1_555 1_555
C4 C5 1_555 1_555
C5 C6 1_555 1_555
O9A Na1A 1_555 1_555
C1A C2A 1_555 1_555
C2A C3A 1_555 1_555
C4A C5A 1_555 1_555
C5A C6A 1_555 1_555
O3A Na2A_3 1_555 1_555
Na2A_3 O10A_2 1_555 1_555
Na2_2 O10_2 1_555 1_555

#END
