
#######################################################################
#
#                 Cambridge Crystallographic Data Centre
#                                CCDC 
#
#######################################################################
#
# If this CIF has been generated from an entry in the Cambridge 
# Structural Database, then it will include bibliographic, chemical, 
# crystal, experimental, refinement or atomic coordinate data resulting 
# from the CCDC's data processing and validation procedures.
#
#######################################################################

data_JAFPOW
_symmetry_cell_setting           monoclinic
_symmetry_space_group_name_H-M   'P 21/m'
_symmetry_Int_Tables_number      11
_space_group_name_Hall           '-P 2yb'
loop_
_symmetry_equiv_pos_site_id
_symmetry_equiv_pos_as_xyz
1 x,y,z
2 x,1/2-y,z
3 -x,-y,-z
4 -x,1/2+y,-z
_cell_length_a                   5.5570(10)
_cell_length_b                   11.6520(10)
_cell_length_c                   21.2600(10)
_cell_angle_alpha                90
_cell_angle_beta                 96.030(10)
_cell_angle_gamma                90
_cell_volume                     1368.97
loop_
_atom_site_label
_atom_site_type_symbol
_atom_site_fract_x
_atom_site_fract_y
_atom_site_fract_z
Ag1 Ag 0.31329(14) 0.2500 0.03815(4)
Ag2 Ag -0.72020(8) 0.49547(6) 0.46276(2)
C1 C -0.2802(10) 0.5060(6) 0.3886(3)
C2 C -0.1501(10) 0.5182(6) 0.3294(3)
H1 H -0.0946(10) 0.5967(6) 0.3262(3)
H2 H -0.0090(10) 0.4687(6) 0.3336(3)
C3 C -0.3174(10) 0.4920(6) 0.2697(3)
H3 H -0.3541(10) 0.4106(6) 0.2695(3)
H4 H -0.4685(10) 0.5341(6) 0.2676(3)
C4 C -0.3380(10) 0.4913(6) 0.1523(3)
H5 H -0.4924(10) 0.5300(6) 0.1527(3)
H6 H -0.3686(10) 0.4093(6) 0.1496(3)
C5 C -0.2149(11) 0.5308(6) 0.0962(3)
H7 H -0.3309(11) 0.5239(6) 0.0589(3)
H8 H -0.1712(11) 0.6111(6) 0.1010(3)
C6 C 0.0003(12) 0.4642(8) 0.0863(3)
N1 N -0.1822(8) 0.5151(5) 0.2133(2)
H9 H -0.0352(8) 0.4714(5) 0.2149(2)
H10 H -0.1407(8) 0.5951(5) 0.2146(2)
N2 N 0.1633(11) 0.4093(7) 0.0772(3)
N7 N 0.7520(14) 0.2500 -0.0258(4)
O1 O -0.4997(7) 0.4780(4) 0.3838(2)
O2 O -0.1535(7) 0.5274(4) 0.4409(2)
O13 O 0.6534(13) 0.3366(7) -0.0125(4)
O14 O 0.9477(12) 0.2500 -0.0486(3)
O13A O 0.6534(13) 0.1634(7) -0.0125(4)
C1A C -0.2802(10) -0.0060(6) 0.3886(3)
C2A C -0.1501(10) -0.0182(6) 0.3294(3)
H1A H -0.0946(10) -0.0967(6) 0.3262(3)
H2A H -0.0090(10) 0.0313(6) 0.3336(3)
C3A C -0.3174(10) 0.0080(6) 0.2697(3)
H3A H -0.3541(10) 0.0894(6) 0.2695(3)
H4A H -0.4685(10) -0.0341(6) 0.2676(3)
C4A C -0.3380(10) 0.0087(6) 0.1523(3)
H5A H -0.4924(10) -0.0300(6) 0.1527(3)
H6A H -0.3686(10) 0.0907(6) 0.1496(3)
C5A C -0.2149(11) -0.0308(6) 0.0962(3)
H7A H -0.3309(11) -0.0239(6) 0.0589(3)
H8A H -0.1712(11) -0.1111(6) 0.1010(3)
C6A C 0.0003(12) 0.0358(8) 0.0863(3)
N1A N -0.1822(8) -0.0151(5) 0.2133(2)
H9A H -0.0352(8) 0.0286(5) 0.2149(2)
H10A H -0.1407(8) -0.0951(5) 0.2146(2)
N2A N 0.1633(11) 0.0907(7) 0.0772(3)
O1A O -0.4997(7) 0.0220(4) 0.3838(2)
O2A O -0.1535(7) -0.0274(4) 0.4409(2)
Ag2A Ag -0.72020(8) 0.00453(6) 0.46276(2)
O14_2 O -0.0523(12) 0.2500 -0.0486(3)
Ag2B Ag -0.27980(8) 0.50453(6) 0.53724(2)
O2_2 O -1.1535(7) 0.5274(4) 0.4409(2)
O2B O -0.8465(7) 0.4726(4) 0.5591(2)
Ag2_2 Ag 0.27980(8) 0.49547(6) 0.46276(2)
Ag1_2 Ag 1.31329(14) 0.2500 0.03815(4)
Ag2A_2 Ag 0.27980(8) 0.00453(6) 0.46276(2)
Ag2C Ag -0.27980(8) -0.00453(6) 0.53724(2)
O2A_2 O -1.1535(7) -0.0274(4) 0.4409(2)
O2C O -0.8465(7) 0.0274(4) 0.5591(2)
Ag3 Ag 0.06588(13) 0.2500 0.55287(4)
Ag4 Ag -0.58458(12) 0.2500 0.34968(4)
N3 N -0.0733(15) 0.2500 0.4115(5)
N4 N -0.4135(13) 0.2500 0.6175(4)
N6 N -0.9053(13) 0.2500 0.2311(4)
O3 O -0.1406(11) 0.2500 0.3532(3)
O4 O 0.1525(10) 0.2500 0.4322(3)
O5 O -0.2234(10) 0.2500 0.4515(3)
O6 O -0.5783(12) 0.2500 0.6520(4)
O7 O -0.1999(11) 0.2500 0.6369(4)
O8 O -0.4719(14) 0.2500 0.5577(4)
O11 O -1.0918(11) 0.2500 0.1941(3)
O12 O -0.8107(7) 0.3435(4) 0.2506(2)
O12A O -0.8107(7) 0.1565(4) 0.2506(2)
O8_2 O 0.5281(14) 0.2500 0.5577(4)
O4_2 O -0.8475(10) 0.2500 0.4322(3)
Ag4_2 Ag 0.41542(12) 0.2500 0.34968(4)
Ag3_2 Ag -0.93412(13) 0.2500 0.55287(4)
N5 N -1.1554(14) 0.2500 0.7995(4)
O9 O -0.9278(11) 0.2500 0.7918(3)
O10 O -1.2555(8) 0.3430(4) 0.8033(2)
O10A O -1.2555(8) 0.1570(4) 0.8033(2)
loop_
_geom_bond_atom_site_label_1
_geom_bond_atom_site_label_2
_geom_bond_site_symmetry_1
_geom_bond_site_symmetry_2
Ag1 N2 1_555 1_555
Ag2 O1 1_555 1_555
Ag3 O5 1_555 1_555
Ag4 O3 1_555 1_555
C1 C2 1_555 1_555
C2 H1 1_555 1_555
H2 C2 1_555 1_555
C3 C2 1_555 1_555
H3 C3 1_555 1_555
H4 C3 1_555 1_555
C4 H5 1_555 1_555
H6 C4 1_555 1_555
C5 C4 1_555 1_555
H7 C5 1_555 1_555
H8 C5 1_555 1_555
C6 C5 1_555 1_555
N1 C3 1_555 1_555
H9 N1 1_555 1_555
H10 N1 1_555 1_555
N2 C6 1_555 1_555
N3 O3 1_555 1_555
N4 O6 1_555 1_555
N5 O9 1_555 1_555
N6 O11 1_555 1_555
N7 O13 1_555 1_555
O1 C1 1_555 1_555
O2 C1 1_555 1_555
O4 N3 1_555 1_555
O5 N3 1_555 1_555
O7 Ag3 1_555 1_555
O8 N4 1_555 1_555
O10 N5 1_555 1_555
O12 Ag4 1_555 1_555
O13 Ag1 1_555 1_555
O14 N7 1_555 1_555
O10A N5 1_555 1_555
O12A Ag4 1_555 1_555
O13A Ag1 1_555 1_555
C1A C2A 1_555 1_555
C2A H1A 1_555 1_555
H2A C2A 1_555 1_555
C3A C2A 1_555 1_555
H3A C3A 1_555 1_555
H4A C3A 1_555 1_555
C4A H5A 1_555 1_555
H6A C4A 1_555 1_555
C5A C4A 1_555 1_555
H7A C5A 1_555 1_555
H8A C5A 1_555 1_555
C6A C5A 1_555 1_555
N1A C3A 1_555 1_555
H9A N1A 1_555 1_555
H10A N1A 1_555 1_555
N2A Ag1 1_555 1_555
O1A C1A 1_555 1_555
O2A C1A 1_555 1_555
Ag2A O1A 1_555 1_555
O14_2 Ag1 1_555 1_555
Ag2B Ag2 1_555 1_555
O2_2 Ag2 1_555 1_555
O2B Ag2 1_555 1_555
O8_2 Ag3 1_555 1_555
O4_2 Ag4 1_555 1_555
Ag2_2 O2 1_555 1_555
Ag4_2 O4 1_555 1_555
Ag3_2 O8 1_555 1_555
Ag1_2 O14 1_555 1_555
Ag2A_2 O2A 1_555 1_555
Ag2C O2A 1_555 1_555
O2A_2 Ag2A 1_555 1_555
O2C Ag2A 1_555 1_555
C4 N1 1_555 1_555
N4 O7 1_555 1_555
N6 O12 1_555 1_555
N6 O12A 1_555 1_555
N7 O13A 1_555 1_555
O2 Ag2B 1_555 1_555
C4A N1A 1_555 1_555
C6A N2A 1_555 1_555
Ag2A Ag2C 1_555 1_555

#END
