
#######################################################################
#
#                 Cambridge Crystallographic Data Centre
#                                CCDC 
#
#######################################################################
#
# If this CIF has been generated from an entry in the Cambridge 
# Structural Database, then it will include bibliographic, chemical, 
# crystal, experimental, refinement or atomic coordinate data resulting 
# from the CCDC's data processing and validation procedures.
#
#######################################################################

data_JAFWUI01
_symmetry_cell_setting           orthorhombic
_symmetry_space_group_name_H-M   'P c a n'
_symmetry_Int_Tables_number      60
_space_group_name_Hall           '-P 2n 2c'
loop_
_symmetry_equiv_pos_site_id
_symmetry_equiv_pos_as_xyz
1 x,y,z
2 1/2-x,1/2-y,1/2+z
3 x,-y,1/2-z
4 1/2-x,1/2+y,-z
5 -x,-y,-z
6 1/2+x,1/2+y,1/2-z
7 -x,y,1/2+z
8 1/2+x,1/2-y,z
_cell_length_a                   7.3359(1)
_cell_length_b                   11.6296(3)
_cell_length_c                   15.0978(6)
_cell_angle_alpha                90
_cell_angle_beta                 90
_cell_angle_gamma                90
_cell_volume                     1288.05
loop_
_atom_site_label
_atom_site_type_symbol
_atom_site_fract_x
_atom_site_fract_y
_atom_site_fract_z
Ca1 Ca 0.0568(7) 0.0000 0.2500
O1 O 0.2609(5) 0.1436(5) 0.3068(5)
O2 O 0.3565(6) 0.2231(6) 0.4431(6)
O3 O 0.2222(6) -0.0640(6) 0.3812(6)
O4 O -0.0835(4) 0.0611(4) 0.3812(6)
O5 O -0.1448(4) -0.1617(4) 0.2873(4)
C1 C 0.2944(10) 0.1446(10) 0.3959(10)
C2 C 0.2254(9) 0.0255(9) 0.4347(9)
C3 C 0.0419(9) 0.0564(9) 0.4789(9)
O1B O 0.2609(5) -0.1436(5) 0.1932(5)
O3B O 0.2222(6) 0.0640(6) 0.1188(6)
C3D C -0.0419(9) -0.0564(9) 0.5211(9)
O4D O 0.0835(4) -0.0611(4) 0.6188(6)
Ca1D Ca -0.0568(7) 0.0000 0.7500
O1D O -0.2609(5) -0.1436(5) 0.6932(5)
C1D C -0.2944(10) -0.1446(10) 0.6041(10)
O2D O -0.3565(6) -0.2231(6) 0.5569(6)
C2D C -0.2254(9) -0.0255(9) 0.5653(9)
O3D O -0.2222(6) 0.0640(6) 0.6188(6)
O4B O -0.0835(4) -0.0611(4) 0.1188(6)
O5B O -0.1448(4) 0.1617(4) 0.2127(4)
O6 O 0.4528(4) 0.1760(4) 0.6096(4)
loop_
_geom_bond_atom_site_label_1
_geom_bond_atom_site_label_2
_geom_bond_site_symmetry_1
_geom_bond_site_symmetry_2
Ca1 O1 1_555 1_555
O1 C1 1_555 1_555
O2 C1 1_555 1_555
O3 Ca1 1_555 1_555
O4 Ca1 1_555 1_555
O5 Ca1 1_555 1_555
C1 C2 1_555 1_555
C2 O3 1_555 1_555
C3 O4 1_555 1_555
O1B Ca1 1_555 1_555
O3B Ca1 1_555 1_555
C3D C3 1_555 1_555
O4D C3D 1_555 1_555
Ca1D O4D 1_555 1_555
O1D Ca1D 1_555 1_555
C1D O1D 1_555 1_555
O2D C1D 1_555 1_555
C2D C3D 1_555 1_555
O3D Ca1D 1_555 1_555
O4B Ca1 1_555 1_555
O5B Ca1 1_555 1_555
C2 C3 1_555 1_555
C1D C2D 1_555 1_555
C2D O3D 1_555 1_555

#END
