
#######################################################################
#
#                 Cambridge Crystallographic Data Centre
#                                CCDC 
#
#######################################################################
#
# If this CIF has been generated from an entry in the Cambridge 
# Structural Database, then it will include bibliographic, chemical, 
# crystal, experimental, refinement or atomic coordinate data resulting 
# from the CCDC's data processing and validation procedures.
#
#######################################################################

data_JAFWUI
_symmetry_cell_setting           orthorhombic
_symmetry_space_group_name_H-M   'P c a n'
_symmetry_Int_Tables_number      60
_space_group_name_Hall           '-P 2n 2c'
loop_
_symmetry_equiv_pos_site_id
_symmetry_equiv_pos_as_xyz
1 x,y,z
2 -x,y,1/2+z
3 1/2+x,1/2-y,z
4 1/2-x,1/2-y,1/2+z
5 -x,-y,-z
6 x,-y,1/2-z
7 1/2-x,1/2+y,-z
8 1/2+x,1/2+y,1/2-z
_cell_length_a                   7.349(1)
_cell_length_b                   11.632(1)
_cell_length_c                   15.118(2)
_cell_angle_alpha                90
_cell_angle_beta                 90
_cell_angle_gamma                90
_cell_volume                     1292.34
loop_
_atom_site_label
_atom_site_type_symbol
_atom_site_fract_x
_atom_site_fract_y
_atom_site_fract_z
Ca1 Ca 0.05409(5) 0.00000 0.25000
O1 O 0.26274(16) 0.14539(10) 0.30858(8)
O2 O 0.35166(18) 0.21829(12) 0.43832(9)
O3 O 0.22016(14) -0.06605(9) 0.37912(7)
O4 O -0.07999(14) 0.06459(11) 0.39696(7)
O5 O -0.14196(17) 0.15886(11) 0.21554(9)
C1 C 0.28908(20) 0.13936(14) 0.39059(11)
C2 C 0.22917(20) 0.02929(14) 0.43851(10)
C3 C 0.03559(18) 0.05015(13) 0.47262(9)
H1 H -0.159(3) 0.204(2) 0.244(2)
H2 H -0.246(3) 0.149(2) 0.186(2)
H5 H 0.311(2) 0.014(2) 0.488(1)
H6 H 0.329(3) -0.097(2) 0.378(1)
H7 H 0.034(2) 0.121(2) 0.512(1)
H8 H -0.116(2) 0.139(2) 0.401(1)
C3D C -0.03559(18) -0.05015(13) 0.52738(9)
O4D O 0.07999(14) -0.06459(11) 0.60304(7)
H8D H 0.116(2) -0.139(2) 0.599(1)
C2D C -0.22917(20) -0.02929(14) 0.56149(10)
O3D O -0.22016(14) 0.06605(9) 0.62088(7)
H6D H -0.329(3) 0.097(2) 0.622(1)
C1D C -0.28908(20) -0.13936(14) 0.60941(11)
O1D O -0.26274(16) -0.14539(10) 0.69142(8)
O2D O -0.35166(18) -0.21829(12) 0.56168(9)
H5D H -0.311(2) -0.014(2) 0.512(1)
H7D H -0.034(2) -0.121(2) 0.488(1)
O5E O -0.14196(17) -0.15886(11) 0.28446(9)
H1E H -0.159(3) -0.204(2) 0.256(2)
H2E H -0.246(3) -0.149(2) 0.314(2)
O1E O 0.26274(16) -0.14539(10) 0.19142(8)
O3E O 0.22016(14) 0.06605(9) 0.12088(7)
O4E O -0.07999(14) -0.06459(11) 0.10304(7)
Ca1A Ca -0.05409(5) 0.00000 0.75000
H6E H 0.329(3) 0.097(2) 0.122(1)
H8E H -0.116(2) -0.139(2) 0.099(1)
O6 O 0.45191(16) 0.17515(13) 0.60874(9)
H3? H 0.428(2) 0.197(2) 0.626(2)
H4? H 0.483(3) 0.231(2) 0.626(2)
loop_
_geom_bond_atom_site_label_1
_geom_bond_atom_site_label_2
_geom_bond_site_symmetry_1
_geom_bond_site_symmetry_2
Ca1 O1 1_555 1_555
O1 C1 1_555 1_555
O2 C1 1_555 1_555
O3 Ca1 1_555 1_555
O4 Ca1 1_555 1_555
O5 Ca1 1_555 1_555
C1 C2 1_555 1_555
C2 O3 1_555 1_555
C3 O4 1_555 1_555
H1 O5 1_555 1_555
H2 O5 1_555 1_555
H5 C2 1_555 1_555
H6 O3 1_555 1_555
H7 C3 1_555 1_555
H8 O4 1_555 1_555
C3D C3 1_555 1_555
O4D C3D 1_555 1_555
H8D O4D 1_555 1_555
C2D C3D 1_555 1_555
O3D C2D 1_555 1_555
H6D O3D 1_555 1_555
C1D C2D 1_555 1_555
O1D C1D 1_555 1_555
O2D C1D 1_555 1_555
H5D C2D 1_555 1_555
H7D C3D 1_555 1_555
O5E Ca1 1_555 1_555
H1E O5E 1_555 1_555
H2E O5E 1_555 1_555
O1E Ca1 1_555 1_555
O3E Ca1 1_555 1_555
O4E Ca1 1_555 1_555
Ca1A O4D 1_555 1_555
H6E O3E 1_555 1_555
H8E O4E 1_555 1_555
C2 C3 1_555 1_555
O3D Ca1A 1_555 1_555
O1D Ca1A 1_555 1_555

#END
