
#######################################################################
#
#                 Cambridge Crystallographic Data Centre
#                                CCDC 
#
#######################################################################
#
# If this CIF has been generated from an entry in the Cambridge 
# Structural Database, then it will include bibliographic, chemical, 
# crystal, experimental, refinement or atomic coordinate data resulting 
# from the CCDC's data processing and validation procedures.
#
#######################################################################

data_JAFWOC
_symmetry_cell_setting           monoclinic
_symmetry_space_group_name_H-M   'P 21/a'
_symmetry_Int_Tables_number      14
_space_group_name_Hall           '-P 2yab'
loop_
_symmetry_equiv_pos_site_id
_symmetry_equiv_pos_as_xyz
1 x,y,z
2 1/2-x,1/2+y,-z
3 -x,-y,-z
4 1/2+x,1/2-y,z
_cell_length_a                   10.333(5)
_cell_length_b                   10.620(1)
_cell_length_c                   10.641(6)
_cell_angle_alpha                90
_cell_angle_beta                 117.61(5)
_cell_angle_gamma                90
_cell_volume                     1034.73
loop_
_atom_site_label
_atom_site_type_symbol
_atom_site_fract_x
_atom_site_fract_y
_atom_site_fract_z
O9 O 0.4315(9) -0.0314(11) 0.3407(11)
H9 H 0.350(12) -0.042(12) 0.242(12)
H10 H 0.408(12) -0.048(11) 0.421(12)
Ba1 Ba 0.01782(3) 0.15983(3) 0.14828(4)
O1 O 0.2555(5) 0.2179(4) 0.4017(5)
O2 O 0.2997(7) 0.2354(5) 0.6237(6)
O3 O 0.1656(4) -0.0146(4) 0.3749(5)
O4 O -0.0560(4) 0.1288(4) 0.3702(5)
O5 O 0.1313(5) 0.0434(4) -0.0129(6)
O6 O 0.2462(4) 0.2259(4) 0.0699(5)
O7 O -0.1258(5) 0.2901(4) -0.1020(5)
O8 O 0.0233(4) 0.4265(4) 0.1612(5)
C1 C 0.2523(6) 0.1776(6) 0.5100(7)
C2 C 0.1841(6) 0.0467(5) 0.5018(7)
C3 C 0.0348(6) 0.0630(5) 0.4982(7)
C4 C 0.2244(6) 0.1267(6) -0.0004(7)
C5 C -0.1818(6) 0.4038(5) -0.0741(7)
C6 C -0.0554(6) 0.4880(5) 0.0273(6)
H1 H 0.249(6) 0.002(6) 0.591(6)
H2 H 0.046(6) 0.109(6) 0.587(6)
H3 H -0.237(6) 0.461(6) -0.164(6)
H4 H -0.093(6) 0.577(6) 0.058(6)
H5 H 0.178(6) -0.111(6) 0.399(6)
H6 H -0.123(7) 0.186(6) 0.382(6)
H7 H -0.119(7) 0.293(6) -0.187(7)
H8 H 0.014(7) 0.441(7) 0.215(7)
O5B O -0.1313(5) -0.0434(4) 0.0129(6)
O6C O -0.2538(4) 0.2741(4) 0.0699(5)
Ba1B Ba -0.01782(3) -0.15983(3) -0.14828(4)
Ba1C Ba 0.51782(3) 0.34017(3) 0.14828(4)
C3B C -0.0348(6) -0.0630(5) 0.5018(7)
C5C C 0.3182(6) 0.0962(5) -0.0741(7)
C4C C -0.2756(6) 0.3733(6) -0.0004(7)
C6B C 0.0554(6) 0.5120(5) -0.0273(6)
C4B C -0.2244(6) -0.1267(6) 0.0004(7)
Ba1C_2 Ba -0.48218(3) 0.34017(3) 0.14828(4)
O1B O -0.2555(5) -0.2179(4) -0.4017(5)
O3B O -0.1656(4) 0.0146(4) -0.3749(5)
O4B O 0.0560(4) -0.1288(4) -0.3702(5)
O6B O -0.2462(4) -0.2259(4) -0.0699(5)
O6A O 0.2538(4) -0.2741(4) -0.0699(5)
O7B O 0.1258(5) -0.2901(4) 0.1020(5)
O8B O -0.0233(4) -0.4265(4) -0.1612(5)
O1C O 0.7555(5) 0.2821(4) 0.4017(5)
O3C O 0.6656(4) 0.5146(4) 0.3749(5)
O4C O 0.4440(4) 0.3712(4) 0.3702(5)
O5A O 0.3687(5) 0.5434(4) 0.0129(6)
O5C O 0.6313(5) 0.4566(4) -0.0129(6)
O6C_2 O 0.7462(4) 0.2741(4) 0.0699(5)
O7C O 0.3742(5) 0.2099(4) -0.1020(5)
O8C O 0.5233(4) 0.0735(4) 0.1612(5)
O4B_2 O 0.0560(4) -0.1288(4) 0.6298(5)
C2B C -0.1841(6) -0.0467(5) 0.4982(7)
H2B H -0.046(6) -0.109(6) 0.413(6)
C6C C 0.4446(6) 0.0120(5) 0.0273(6)
H3C H 0.263(6) 0.039(6) -0.164(6)
O5C_2 O -0.3687(5) 0.4566(4) -0.0129(6)
O8B_2 O -0.0233(4) 0.5735(4) -0.1612(5)
C5B C 0.1818(6) 0.5962(5) 0.0741(7)
H4B H 0.093(6) 0.423(6) -0.058(6)
C5A C -0.3182(6) -0.0962(5) 0.0741(7)
C1B C -0.2523(6) -0.1776(6) -0.5100(7)
C2B_2 C -0.1841(6) -0.0467(5) -0.5018(7)
H5B H -0.178(6) 0.111(6) -0.399(6)
C3B_2 C -0.0348(6) -0.0630(5) -0.4982(7)
H6B H 0.123(7) -0.186(6) -0.382(6)
Ba1A Ba -0.51782(3) -0.34017(3) -0.14828(4)
Ba1A_2 Ba 0.48218(3) -0.34017(3) -0.14828(4)
C4A C 0.2756(6) -0.3733(6) 0.0004(7)
C5B_2 C 0.1818(6) -0.4038(5) 0.0741(7)
H7B H 0.119(7) -0.293(6) 0.187(7)
C6B_2 C 0.0554(6) -0.4880(5) -0.0273(6)
H8B H -0.014(7) -0.441(7) -0.215(7)
C1C C 0.7523(6) 0.3224(6) 0.5100(7)
C2C C 0.6841(6) 0.4533(5) 0.5018(7)
H5C H 0.678(6) 0.611(6) 0.399(6)
C3C C 0.5348(6) 0.4370(5) 0.4982(7)
H6C H 0.377(7) 0.314(6) 0.382(6)
Ba1A_3 Ba 0.48218(3) 0.65983(3) -0.14828(4)
C4A_2 C 0.2756(6) 0.6267(6) 0.0004(7)
C4C_2 C 0.7244(6) 0.3733(6) -0.0004(7)
H7C H 0.381(7) 0.207(6) -0.187(7)
H8C H 0.514(7) 0.059(7) 0.215(7)
O3B_2 O -0.1656(4) 0.0146(4) 0.6251(5)
C1B_2 C -0.2523(6) -0.1776(6) 0.4900(7)
H1B H -0.249(6) -0.002(6) 0.409(6)
C6A C 0.5554(6) -0.0120(5) -0.0273(6)
H4C H 0.407(6) -0.077(6) 0.058(6)
O7B_2 O 0.1258(5) 0.7099(4) 0.1020(5)
H3B H 0.237(6) 0.539(6) 0.164(6)
O7A O -0.3742(5) -0.2099(4) 0.1020(5)
C6A_2 C -0.4446(6) -0.0120(5) -0.0273(6)
H3A H -0.263(6) -0.039(6) 0.164(6)
O2B O -0.2997(7) -0.2354(5) -0.6237(6)
O1A O -0.7555(5) -0.2821(4) -0.4017(5)
O3A O -0.6656(4) -0.5146(4) -0.3749(5)
O4A O -0.4440(4) -0.3712(4) -0.3702(5)
O5A_2 O -0.6313(5) -0.4566(4) 0.0129(6)
O5C_3 O -0.3687(5) -0.5434(4) -0.0129(6)
O6A_2 O -0.7462(4) -0.2741(4) -0.0699(5)
O8A O -0.5233(4) -0.0735(4) -0.1612(5)
O5A_3 O 0.3687(5) -0.4566(4) 0.0129(6)
O2C O 0.7997(7) 0.2646(5) 0.6237(6)
H1C H 0.749(6) 0.498(6) 0.591(6)
C3A C 0.4652(6) 0.5630(5) 0.5018(7)
H2C H 0.546(6) 0.391(6) 0.587(6)
O8A_2 O 0.4767(4) -0.0735(4) -0.1612(5)
C5A_2 C 0.6818(6) -0.0962(5) 0.0741(7)
H4A H 0.593(6) 0.077(6) -0.058(6)
H7A H -0.381(7) -0.207(6) 0.187(7)
C1A C -0.7523(6) -0.3224(6) -0.5100(7)
C2A C -0.6841(6) -0.4533(5) -0.5018(7)
H5A H -0.678(6) -0.611(6) -0.399(6)
C3A_2 C -0.5348(6) -0.4370(5) -0.4982(7)
H6A H -0.377(7) -0.314(6) -0.382(6)
H8A H -0.514(7) -0.059(7) -0.215(7)
O4A_2 O 0.5560(4) 0.6288(4) 0.6298(5)
C2A_2 C 0.3159(6) 0.5467(5) 0.4982(7)
H2A H 0.454(6) 0.609(6) 0.413(6)
O2A O -0.7997(7) -0.2646(5) -0.6237(6)
H1A H -0.749(6) -0.498(6) -0.591(6)
loop_
_geom_bond_atom_site_label_1
_geom_bond_atom_site_label_2
_geom_bond_site_symmetry_1
_geom_bond_site_symmetry_2
Ba1 O1 1_555 1_555
O1 C1 1_555 1_555
O2 C1 1_555 1_555
O3 Ba1 1_555 1_555
O4 Ba1 1_555 1_555
O5 Ba1 1_555 1_555
O6 Ba1 1_555 1_555
O7 Ba1 1_555 1_555
O8 Ba1 1_555 1_555
C1 C2 1_555 1_555
C2 O3 1_555 1_555
C3 O4 1_555 1_555
C4 O5 1_555 1_555
C5 O7 1_555 1_555
C6 O8 1_555 1_555
O9 H9 1_555 1_555
H1 C2 1_555 1_555
H2 C3 1_555 1_555
H3 C5 1_555 1_555
H4 C6 1_555 1_555
H5 O3 1_555 1_555
H6 O4 1_555 1_555
H7 O7 1_555 1_555
H8 O8 1_555 1_555
H10 O9 1_555 1_555
O5B Ba1 1_555 1_555
O6C Ba1 1_555 1_555
Ba1B O5 1_555 1_555
Ba1C O6 1_555 1_555
C3B C3 1_555 1_555
C5C C4 1_555 1_555
C4C C5 1_555 1_555
C6B C6 1_555 1_555
C4B O5B 1_555 1_555
Ba1C_2 O6C 1_555 1_555
O1B Ba1B 1_555 1_555
O3B Ba1B 1_555 1_555
O4B Ba1B 1_555 1_555
O6B Ba1B 1_555 1_555
O6A Ba1B 1_555 1_555
O7B Ba1B 1_555 1_555
O8B Ba1B 1_555 1_555
O1C Ba1C 1_555 1_555
O3C Ba1C 1_555 1_555
O4C Ba1C 1_555 1_555
O5A Ba1C 1_555 1_555
O5C Ba1C 1_555 1_555
O6C_2 Ba1C 1_555 1_555
O7C Ba1C 1_555 1_555
O8C Ba1C 1_555 1_555
O4B_2 C3B 1_555 1_555
C2B C3B 1_555 1_555
H2B C3B 1_555 1_555
C6C C5C 1_555 1_555
H3C C5C 1_555 1_555
O5C_2 C4C 1_555 1_555
O8B_2 C6B 1_555 1_555
C5B C6B 1_555 1_555
H4B C6B 1_555 1_555
C5A C4B 1_555 1_555
C1B O1B 1_555 1_555
C2B_2 O3B 1_555 1_555
H5B O3B 1_555 1_555
C3B_2 O4B 1_555 1_555
H6B O4B 1_555 1_555
Ba1A O6B 1_555 1_555
Ba1A_2 O6A 1_555 1_555
C4A O6A 1_555 1_555
C5B_2 O7B 1_555 1_555
H7B O7B 1_555 1_555
C6B_2 O8B 1_555 1_555
H8B O8B 1_555 1_555
C1C O1C 1_555 1_555
C2C O3C 1_555 1_555
H5C O3C 1_555 1_555
C3C O4C 1_555 1_555
H6C O4C 1_555 1_555
Ba1A_3 O5A 1_555 1_555
C4A_2 O5A 1_555 1_555
C4C_2 O5C 1_555 1_555
H7C O7C 1_555 1_555
H8C O8C 1_555 1_555
O3B_2 C2B 1_555 1_555
C1B_2 C2B 1_555 1_555
H1B C2B 1_555 1_555
C6A C6C 1_555 1_555
H4C C6C 1_555 1_555
O7B_2 C5B 1_555 1_555
H3B C5B 1_555 1_555
O7A C5A 1_555 1_555
C6A_2 C5A 1_555 1_555
H3A C5A 1_555 1_555
O2B C1B 1_555 1_555
O1A Ba1A 1_555 1_555
O3A Ba1A 1_555 1_555
O4A Ba1A 1_555 1_555
O5A_2 Ba1A 1_555 1_555
O5C_3 Ba1A 1_555 1_555
O6A_2 Ba1A 1_555 1_555
O8A Ba1A 1_555 1_555
O5A_3 C4A 1_555 1_555
O2C C1C 1_555 1_555
H1C C2C 1_555 1_555
C3A C3C 1_555 1_555
H2C C3C 1_555 1_555
O8A_2 C6A 1_555 1_555
C5A_2 C6A 1_555 1_555
H4A C6A 1_555 1_555
H7A O7A 1_555 1_555
C1A O1A 1_555 1_555
C2A O3A 1_555 1_555
H5A O3A 1_555 1_555
C3A_2 O4A 1_555 1_555
H6A O4A 1_555 1_555
H8A O8A 1_555 1_555
O4A_2 C3A 1_555 1_555
C2A_2 C3A 1_555 1_555
H2A C3A 1_555 1_555
O2A C1A 1_555 1_555
H1A C2A 1_555 1_555
O6 C4 1_555 1_555
C2 C3 1_555 1_555
C5 C6 1_555 1_555
O5B Ba1B 1_555 1_555
O6C C4C 1_555 1_555
C5C O7C 1_555 1_555
C4B O6B 1_555 1_555
O5C Ba1A_3 1_555 1_555
O8C C6C 1_555 1_555
C5B C4A_2 1_555 1_555
C1B C2B_2 1_555 1_555
Ba1A O7A 1_555 1_555
C4A C5B_2 1_555 1_555
C1C C2C 1_555 1_555
C2C C3C 1_555 1_555
C6A_2 O8A 1_555 1_555
C1A C2A 1_555 1_555
C2A C3A_2 1_555 1_555

#END
