
#######################################################################
#
#                 Cambridge Crystallographic Data Centre
#                                CCDC 
#
#######################################################################
#
# If this CIF has been generated from an entry in the Cambridge 
# Structural Database, then it will include bibliographic, chemical, 
# crystal, experimental, refinement or atomic coordinate data resulting 
# from the CCDC's data processing and validation procedures.
#
#######################################################################

data_JAFYUL
_symmetry_cell_setting           monoclinic
_symmetry_space_group_name_H-M   'P 21/c'
_symmetry_Int_Tables_number      14
_space_group_name_Hall           '-P 2ybc'
loop_
_symmetry_equiv_pos_site_id
_symmetry_equiv_pos_as_xyz
1 x,y,z
2 x,1/2-y,1/2+z
3 -x,-y,-z
4 -x,1/2+y,1/2-z
_cell_length_a                   21.0193(9)
_cell_length_b                   25.1798(11)
_cell_length_c                   21.7707(9)
_cell_angle_alpha                90
_cell_angle_beta                 118.6180(10)
_cell_angle_gamma                90
_cell_volume                     10114.7
loop_
_atom_site_label
_atom_site_type_symbol
_atom_site_fract_x
_atom_site_fract_y
_atom_site_fract_z
Cu1 Cu 0.00018(3) 0.44472(2) 1.00923(3)
Cu2 Cu 0.33271(3) 0.05511(2) 0.49790(3)
Cu3 Cu -0.33995(4) 0.05295(2) 1.48743(3)
Br1 Br 0.09809(3) 0.50245(2) 1.08957(3)
Br2 Br 0.22781(3) -0.00419(2) 0.42340(3)
Br3 Br 0.44571(3) 0.00696(2) 0.58514(3)
Be1 Be -0.2266(4) 0.2180(3) 1.1758(4)
Be2 Be 0.1689(4) 0.2413(3) 0.7617(4)
Be3 Be 0.4920(4) 0.2427(3) 0.2322(4)
O1 O -0.2207(2) 0.2809(2) 1.1884(2)
O2 O -0.2050(2) 0.2069(2) 1.1156(2)
O3 O -0.3055(2) 0.1942(2) 1.1525(2)
O4 O -0.1714(2) 0.1901(2) 1.2493(3)
O5 O 0.2143(2) 0.2585(2) 0.8428(2)
O6 O 0.0877(2) 0.2630(2) 0.7345(2)
O7 O 0.1727(2) 0.1777(2) 0.7573(2)
O8 O 0.2031(2) 0.2644(2) 0.7156(2)
O9 O 0.4932(2) 0.1792(2) 0.2400(2)
O10 O 0.4505(2) 0.2650(2) 0.2722(2)
O11 O -0.5462(2) 0.2419(2) 1.6506(2)
O12 O -0.4269(2) 0.2331(2) 1.7664(2)
N1 N -0.0476(2) 0.4018(2) 1.0541(2)
N2 N -0.3225(2) 0.0847(2) 1.4117(2)
N3 N 0.0377(2) 0.3975(2) 0.9572(2)
N4 N 0.3006(2) 0.0915(2) 0.5606(2)
N5 N 0.3611(2) 0.0895(2) 0.4312(2)
N6 N -0.3642(2) 0.0998(2) 1.5486(2)
C1 C -0.1864(3) 0.3115(2) 1.1676(3)
C2 C -0.1596(3) 0.2940(2) 1.1226(3)
C3 C -0.1742(3) 0.2423(2) 1.0957(3)
C4 C -0.1549(5) 0.2243(3) 1.0419(4)
H1 H -0.1685(5) 0.1878(3) 1.0302(4)
H2 H -0.1805(5) 0.2458(3) 1.0009(4)
H3 H -0.1037(5) 0.2280(3) 1.0591(4)
C5 C -0.1773(4) 0.3674(3) 1.1922(4)
H4 H -0.1983(4) 0.3718(3) 1.2225(4)
H5 H -0.1266(4) 0.3759(3) 1.2173(4)
H6 H -0.2010(4) 0.3907(3) 1.1527(4)
C6 C -0.0123(3) 0.3642(2) 1.1019(3)
H7 H 0.0392(3) 0.3616(2) 1.1205(3)
C7 C -0.0458(3) 0.3290(2) 1.1264(3)
H8 H -0.0178(3) 0.3032(2) 1.1615(3)
C8 C -0.1209(3) 0.3317(2) 1.0996(3)
C9 C -0.1564(3) 0.3710(2) 1.0513(3)
H9 H -0.2078(3) 0.3751(2) 1.0324(3)
C10 C -0.1190(3) 0.4049(2) 1.0296(3)
H10 H -0.1456(3) 0.4318(2) 0.9956(3)
C11 C -0.3213(3) 0.1688(2) 1.1947(3)
C12 C -0.2687(3) 0.1563(2) 1.2633(3)
C13 C -0.1949(3) 0.1680(2) 1.2883(3)
C14 C -0.1380(3) 0.1551(3) 1.3608(4)
H11 H -0.0918(3) 0.1665(3) 1.3670(4)
H12 H -0.1484(3) 0.1729(3) 1.3940(4)
H13 H -0.1371(3) 0.1174(3) 1.3680(4)
C15 C -0.3979(3) 0.1516(2) 1.1655(3)
H14 H -0.4249(3) 0.1640(2) 1.1181(3)
H15 H -0.4003(3) 0.1136(2) 1.1663(3)
H16 H -0.4180(3) 0.1664(2) 1.1931(3)
C16 C -0.2873(3) 0.0575(2) 1.3845(3)
H17 H -0.2722(3) 0.0218(2) 1.4005(3)
C17 C -0.2709(3) 0.0783(2) 1.3350(3)
H18 H -0.2467(3) 0.0569(2) 1.3161(3)
C18 C -0.2901(3) 0.1305(2) 1.3120(3)
C19 C -0.3287(3) 0.1582(2) 1.3391(3)
H19 H -0.3444(3) 0.1939(2) 1.3241(3)
C20 C -0.3437(3) 0.1343(2) 1.3872(3)
H20 H -0.3712(3) 0.1537(2) 1.4043(3)
C21 C 0.1877(3) 0.2845(2) 0.8755(3)
C22 C 0.1158(3) 0.3037(2) 0.8416(3)
C23 C 0.0688(3) 0.2915(2) 0.7716(3)
C24 C -0.0082(4) 0.3102(4) 0.7362(4)
H21 H -0.0315(4) 0.2982(4) 0.6885(4)
H22 H -0.0330(4) 0.2957(4) 0.7597(4)
H23 H -0.0098(4) 0.3483(4) 0.7372(4)
C25 C 0.2377(3) 0.2939(3) 0.9512(3)
H24 H 0.2837(3) 0.2779(3) 0.9637(3)
H25 H 0.2439(3) 0.3314(3) 0.9600(3)
H26 H 0.2177(3) 0.2784(3) 0.9786(3)
C26 C 0.0444(3) 0.3445(2) 0.9644(3)
H27 H 0.0311(3) 0.3278(2) 0.9963(3)
C27 C 0.0695(3) 0.3127(2) 0.9286(3)
H28 H 0.0732(3) 0.2750(2) 0.9356(3)
C28 C 0.0888(3) 0.3361(2) 0.8824(3)
C29 C 0.0828(3) 0.3910(2) 0.8747(3)
H29 H 0.0963(3) 0.4084(2) 0.8435(3)
C30 C 0.0569(3) 0.4205(2) 0.9127(3)
H30 H 0.0526(3) 0.4583(2) 0.9063(3)
C31 C 0.2014(3) 0.1531(2) 0.7248(3)
C32 C 0.2269(3) 0.1796(2) 0.6842(3)
C33 C 0.2251(3) 0.2358(2) 0.6806(3)
C34 C 0.2488(4) 0.2666(2) 0.6362(4)
H31 H 0.2433(4) 0.3039(2) 0.6413(4)
H32 H 0.2988(4) 0.2589(2) 0.6508(4)
H33 H 0.2197(4) 0.2566(2) 0.5880(4)
C35 C 0.2083(4) 0.0948(2) 0.7360(4)
H34 H 0.1876(4) 0.0844(2) 0.7650(4)
H35 H 0.1834(4) 0.0770(2) 0.6917(4)
H36 H 0.2587(4) 0.0852(2) 0.7585(4)
C36 C 0.2336(3) 0.0856(2) 0.5524(3)
H37 H 0.2012(3) 0.0612(2) 0.5175(3)
C37 C 0.2090(3) 0.1130(2) 0.5922(3)
H38 H 0.1607(3) 0.1071(2) 0.5848(3)
C38 C 0.2538(3) 0.1489(2) 0.6429(3)
C39 C 0.3237(3) 0.1541(2) 0.6524(3)
H39 H 0.3573(3) 0.1779(2) 0.6873(3)
C40 C 0.3449(3) 0.1250(2) 0.6113(3)
H40 H 0.3936(3) 0.1291(2) 0.6190(3)
C41 C 0.4650(3) 0.1538(2) 0.2722(3)
C42 C 0.4336(3) 0.1799(2) 0.3089(3)
C43 C 0.4289(3) 0.2356(2) 0.3070(3)
C44 C 0.3987(4) 0.2653(2) 0.3468(4)
H41 H 0.4000(4) 0.3027(2) 0.3389(4)
H42 H 0.3496(4) 0.2544(2) 0.3311(4)
H43 H 0.4273(4) 0.2579(2) 0.3959(4)
C45 C 0.4666(4) 0.0950(2) 0.2673(3)
H44 H 0.4900(4) 0.0854(2) 0.2403(3)
H45 H 0.4932(4) 0.0803(2) 0.3135(3)
H46 H 0.4181(4) 0.0812(2) 0.2451(3)
C46 C 0.3146(3) 0.1179(2) 0.3759(3)
H47 H 0.2644(3) 0.1180(2) 0.3642(3)
C47 C 0.3355(3) 0.1475(3) 0.3350(3)
H48 H 0.3001(3) 0.1676(3) 0.2961(3)
C48 C 0.4079(3) 0.1476(2) 0.3499(3)
C49 C 0.4549(3) 0.1168(2) 0.4054(3)
H49 H 0.5051(3) 0.1150(2) 0.4173(3)
C50 C 0.4303(3) 0.0885(2) 0.4443(3)
H50 H 0.4643(3) 0.0668(2) 0.4822(3)
C51 C -0.5140(3) 0.2171(2) 1.6221(3)
C52 C -0.4446(3) 0.1956(2) 1.6601(3)
C53 C -0.4031(3) 0.2053(2) 1.7324(3)
C54 C -0.3276(3) 0.1847(3) 1.7738(3)
H51 H -0.3085(3) 0.1953(3) 1.8217(3)
H52 H -0.2978(3) 0.1989(3) 1.7554(3)
H53 H -0.3279(3) 0.1466(3) 1.7710(3)
C55 C -0.5572(3) 0.2112(3) 1.5438(3)
H54 H -0.6031(3) 0.2287(3) 1.5275(3)
H55 H -0.5651(3) 0.1742(3) 1.5317(3)
H56 H -0.5314(3) 0.2270(3) 1.5221(3)
C56 C -0.3914(3) 0.0779(2) 1.5868(3)
H57 H -0.3931(3) 0.0399(2) 1.5888(3)
C57 C -0.4165(3) 0.1076(2) 1.6247(3)
H58 H -0.4359(3) 0.0901(2) 1.6513(3)
C58 C -0.4139(3) 0.1628(2) 1.6233(3)
C59 C -0.3837(3) 0.1854(2) 1.5849(3)
H59 H -0.3795(3) 0.2233(2) 1.5834(3)
C60 C -0.3598(3) 0.1528(2) 1.5490(3)
H60 H -0.3382(3) 0.1692(2) 1.5235(3)
Br1B Br -0.09809(3) 0.49755(2) 0.91043(3)
Br2B Br -0.22781(3) 0.00419(2) 1.57660(3)
Br3B Br -0.44571(3) -0.00696(2) 1.41486(3)
Cu1B Cu -0.00018(3) 0.55528(2) 0.99077(3)
Cu3B Cu 0.33995(4) -0.05295(2) 0.51257(3)
O11A O 0.4538(2) 0.2581(2) 0.1506(2)
O12A O 0.5731(2) 0.2669(2) 0.2664(2)
Be3A Be -0.5080(4) 0.2573(3) 1.7322(4)
C61 C 0.3580(6) 0.8360(4) 0.0148(5)
Cl1 Cl 0.3185(2) 0.87545(12) 0.0519(2)
Cl2 Cl 0.3769(2) 0.77287(13) 0.0539(2)
Cl3 Cl 0.4397(2) 0.8653(2) 0.0258(2)
C62 C 0.1788(7) 0.5785(4) 0.3387(6)
Cl4 Cl 0.1361(2) 0.55089(11) 0.2547(2)
Cl5 Cl 0.1299(3) 0.5646(2) 0.3839(3)
Cl6 Cl 0.2675(3) 0.5566(2) 0.3838(2)
C63 C 0.4827(7) 0.4596(5) 0.2744(7)
Cl7 Cl 0.5005(2) 0.38862(11) 0.27834(15)
Cl8 Cl 0.5352(4) 0.4912(2) 0.3520(3)
Cl9 Cl 0.3921(4) 0.4674(3) 0.2575(4)
C64 C 0.1310(12) 0.1438(7) 0.8807(13)
Cl10 Cl 0.1443(4) 0.0751(2) 0.8766(3)
Cl11 Cl 0.1594(3) 0.1677(2) 0.9609(3)
Cl12 Cl 0.0371(3) 0.1621(2) 0.8272(3)
C65 C 0.3539(10) 0.1075(6) 0.9951(7)
Cl16 Cl 0.3782(19) 0.1478(11) 1.0703(8)
Cl17 Cl 0.3264(14) 0.1475(10) 0.9231(8)
Cl18 Cl 0.2919(16) 0.0601(7) 0.9883(16)
C66 C -0.0545(10) 0.1571(7) 0.9363(10)
Cl19 Cl -0.1025(4) 0.1990(3) 0.8637(4)
Cl20 Cl -0.1205(9) 0.1221(3) 0.9487(7)
Cl21 Cl 0.0023(5) 0.1966(5) 1.0102(6)
C68 C 0.7560(11) 0.5147(6) 0.3250(9)
Cl25 Cl 0.7277(4) 0.5082(3) 0.2359(4)
Cl26 Cl 0.7043(9) 0.4709(6) 0.3467(9)
Cl27 Cl 0.7345(4) 0.5800(3) 0.3408(4)
C69 C 0.0993(10) 0.4981(6) 0.7462(9)
Cl28 Cl 0.0327(6) 0.5161(5) 0.7674(6)
Cl29 Cl 0.0975(12) 0.4302(6) 0.7285(12)
Cl30 Cl 0.1022(9) 0.5302(6) 0.6763(8)
Cl13? Cl 0.4023(7) 0.1374(5) 1.0750(5)
Cl14? Cl 0.3148(5) 0.1554(3) 0.9286(3)
Cl15? Cl 0.4073(6) 0.0622(4) 0.9786(7)
C67? C -0.0137(11) 0.1666(7) 0.9864(9)
Cl22? Cl 0.0380(8) 0.2092(6) 1.0560(9)
Cl23? Cl -0.0770(8) 0.2021(6) 0.9139(8)
Cl24? Cl -0.0538(7) 0.1187(5) 1.0143(8)
loop_
_geom_bond_atom_site_label_1
_geom_bond_atom_site_label_2
_geom_bond_site_symmetry_1
_geom_bond_site_symmetry_2
Cu1 Br1 1_555 1_555
Cu2 Br2 1_555 1_555
Cu3 N2 1_555 1_555
Br1 Cu1B 1_555 1_555
Br2 Cu3B 1_555 1_555
Br3 Cu2 1_555 1_555
Be1 O1 1_555 1_555
Be2 O5 1_555 1_555
Be3 O9 1_555 1_555
O1 C1 1_555 1_555
O2 Be1 1_555 1_555
O3 Be1 1_555 1_555
O4 Be1 1_555 1_555
O5 C21 1_555 1_555
O6 Be2 1_555 1_555
O7 Be2 1_555 1_555
O8 Be2 1_555 1_555
O9 C41 1_555 1_555
O10 Be3 1_555 1_555
O11 C51 1_555 1_555
O12 C53 1_555 1_555
N1 Cu1 1_555 1_555
N2 C16 1_555 1_555
N3 Cu1 1_555 1_555
N4 Cu2 1_555 1_555
N5 Cu2 1_555 1_555
N6 Cu3 1_555 1_555
C1 C2 1_555 1_555
C2 C3 1_555 1_555
C3 O2 1_555 1_555
C4 C3 1_555 1_555
H1 C4 1_555 1_555
H2 C4 1_555 1_555
H3 C4 1_555 1_555
C5 C1 1_555 1_555
H4 C5 1_555 1_555
H5 C5 1_555 1_555
H6 C5 1_555 1_555
C6 N1 1_555 1_555
H7 C6 1_555 1_555
C7 C6 1_555 1_555
H8 C7 1_555 1_555
C8 C2 1_555 1_555
C9 C8 1_555 1_555
H9 C9 1_555 1_555
C10 N1 1_555 1_555
H10 C10 1_555 1_555
C11 O3 1_555 1_555
C12 C11 1_555 1_555
C13 O4 1_555 1_555
C14 C13 1_555 1_555
H11 C14 1_555 1_555
H12 C14 1_555 1_555
H13 C14 1_555 1_555
C15 C11 1_555 1_555
H14 C15 1_555 1_555
H15 C15 1_555 1_555
H16 C15 1_555 1_555
C16 H17 1_555 1_555
C17 C16 1_555 1_555
H18 C17 1_555 1_555
C18 C12 1_555 1_555
C19 C18 1_555 1_555
H19 C19 1_555 1_555
C20 N2 1_555 1_555
H20 C20 1_555 1_555
C21 C22 1_555 1_555
C22 C23 1_555 1_555
C23 O6 1_555 1_555
C24 C23 1_555 1_555
H21 C24 1_555 1_555
H22 C24 1_555 1_555
H23 C24 1_555 1_555
C25 C21 1_555 1_555
H24 C25 1_555 1_555
H25 C25 1_555 1_555
H26 C25 1_555 1_555
C26 N3 1_555 1_555
H27 C26 1_555 1_555
C27 C26 1_555 1_555
H28 C27 1_555 1_555
C28 C22 1_555 1_555
C29 C28 1_555 1_555
H29 C29 1_555 1_555
C30 N3 1_555 1_555
H30 C30 1_555 1_555
C31 O7 1_555 1_555
C32 C31 1_555 1_555
C33 O8 1_555 1_555
C34 C33 1_555 1_555
H31 C34 1_555 1_555
H32 C34 1_555 1_555
H33 C34 1_555 1_555
C35 C31 1_555 1_555
H34 C35 1_555 1_555
H35 C35 1_555 1_555
H36 C35 1_555 1_555
C36 N4 1_555 1_555
H37 C36 1_555 1_555
C37 C36 1_555 1_555
H38 C37 1_555 1_555
C38 C32 1_555 1_555
C39 C38 1_555 1_555
H39 C39 1_555 1_555
C40 N4 1_555 1_555
H40 C40 1_555 1_555
C41 C42 1_555 1_555
C42 C43 1_555 1_555
C43 O10 1_555 1_555
C44 C43 1_555 1_555
H41 C44 1_555 1_555
H42 C44 1_555 1_555
H43 C44 1_555 1_555
C45 C41 1_555 1_555
H44 C45 1_555 1_555
H45 C45 1_555 1_555
H46 C45 1_555 1_555
C46 N5 1_555 1_555
H47 C46 1_555 1_555
C47 C46 1_555 1_555
H48 C47 1_555 1_555
C48 C42 1_555 1_555
C49 C48 1_555 1_555
H49 C49 1_555 1_555
C50 N5 1_555 1_555
H50 C50 1_555 1_555
C51 C52 1_555 1_555
C52 C53 1_555 1_555
C53 C54 1_555 1_555
C54 H51 1_555 1_555
H52 C54 1_555 1_555
H53 C54 1_555 1_555
C55 C51 1_555 1_555
H54 C55 1_555 1_555
H55 C55 1_555 1_555
H56 C55 1_555 1_555
C56 N6 1_555 1_555
H57 C56 1_555 1_555
C57 C56 1_555 1_555
H58 C57 1_555 1_555
C58 C52 1_555 1_555
C59 C58 1_555 1_555
H59 C59 1_555 1_555
C60 N6 1_555 1_555
H60 C60 1_555 1_555
C61 Cl1 1_555 1_555
Cl2 C61 1_555 1_555
Cl3 C61 1_555 1_555
C62 Cl4 1_555 1_555
Cl5 C62 1_555 1_555
Cl6 C62 1_555 1_555
C63 Cl7 1_555 1_555
Cl8 C63 1_555 1_555
Cl9 C63 1_555 1_555
C64 Cl10 1_555 1_555
Cl11 C64 1_555 1_555
Cl12 C64 1_555 1_555
C65 Cl16 1_555 1_555
Cl17 C65 1_555 1_555
Cl18 C65 1_555 1_555
C66 Cl19 1_555 1_555
Cl20 C66 1_555 1_555
Cl21 C66 1_555 1_555
C68 Cl25 1_555 1_555
Cl26 C68 1_555 1_555
Cl27 C68 1_555 1_555
C69 Cl28 1_555 1_555
Cl29 C69 1_555 1_555
Cl30 C69 1_555 1_555
Br1B Cu1 1_555 1_555
Br2B Cu3 1_555 1_555
Br3B Cu3 1_555 1_555
Cu1B Br1B 1_555 1_555
Cu3B Br3 1_555 1_555
O11A Be3 1_555 1_555
O12A Be3 1_555 1_555
Be3A O11 1_555 1_555
O12 Be3A 1_555 1_555
C7 C8 1_555 1_555
C9 C10 1_555 1_555
C12 C13 1_555 1_555
C17 C18 1_555 1_555
C19 C20 1_555 1_555
C27 C28 1_555 1_555
C29 C30 1_555 1_555
C32 C33 1_555 1_555
C37 C38 1_555 1_555
C39 C40 1_555 1_555
C47 C48 1_555 1_555
C49 C50 1_555 1_555
C57 C58 1_555 1_555
C59 C60 1_555 1_555

#END
