
#######################################################################
#
#                 Cambridge Crystallographic Data Centre
#                                CCDC 
#
#######################################################################
#
# If this CIF has been generated from an entry in the Cambridge 
# Structural Database, then it will include bibliographic, chemical, 
# crystal, experimental, refinement or atomic coordinate data resulting 
# from the CCDC's data processing and validation procedures.
#
#######################################################################

data_JAFYOF
_symmetry_cell_setting           monoclinic
_symmetry_space_group_name_H-M   'C 2/c'
_symmetry_Int_Tables_number      15
_space_group_name_Hall           '-C 2yn'
loop_
_symmetry_equiv_pos_site_id
_symmetry_equiv_pos_as_xyz
1 x,y,z
2 1/2+x,1/2+y,z
3 x,-y,1/2+z
4 1/2+x,1/2-y,1/2+z
5 -x,-y,-z
6 1/2-x,1/2-y,-z
7 -x,y,1/2-z
8 1/2-x,1/2+y,1/2-z
_cell_length_a                   27.199(3)
_cell_length_b                   11.0752(10)
_cell_length_c                   14.516(2)
_cell_angle_alpha                90
_cell_angle_beta                 102.649(2)
_cell_angle_gamma                90
_cell_volume                     4266.59
loop_
_atom_site_label
_atom_site_type_symbol
_atom_site_fract_x
_atom_site_fract_y
_atom_site_fract_z
Cu1 Cu 1.0000 -0.12722(6) 0.7500
Cu2 Cu 1.0000 0.18865(5) 0.7500
Be1 Be 1.19847(15) -0.5114(4) 0.4030(3)
Br1 Br 0.946678(11) 0.02355(3) 0.63669(2)
Br2 Br 1.0000 0.40760(5) 0.7500
O1 O 1.14441(8) -0.5631(2) 0.4127(2)
O2 O 1.19733(8) -0.3695(2) 0.4287(2)
O3 O 0.71157(8) 0.0320(2) 0.8032(2)
O4 O 0.74332(8) 0.0768(2) 0.97987(15)
N1 N 1.03995(10) -0.2150(2) 0.6720(2)
N2 N 0.93869(10) 0.1855(3) 0.8088(2)
C1 C 1.11741(12) -0.5107(3) 0.4631(2)
C2 C 1.12855(11) -0.3956(3) 0.5017(2)
C3 C 1.16770(11) -0.3268(3) 0.4776(2)
C4 C 1.17515(13) -0.1971(3) 0.5049(3)
H1 H 1.16893(13) -0.1848(3) 0.5668(3)
H2 H 1.15264(13) -0.1484(3) 0.4596(3)
H3 H 1.20900(13) -0.1739(3) 0.5037(3)
C5 C 1.07228(13) -0.5784(3) 0.4763(3)
H4 H 1.05986(13) -0.5420(3) 0.5268(3)
H5 H 1.08103(13) -0.6610(3) 0.4922(3)
H6 H 1.04623(13) -0.5770(3) 0.4198(3)
C6 C 1.02620(12) -0.2176(3) 0.5780(2)
H7 H 0.99634(12) -0.1741(3) 0.5485(2)
C7 C 1.05283(12) -0.2770(3) 0.5214(2)
H8 H 1.04062(12) -0.2774(3) 0.4541(2)
C8 C 1.09653(11) -0.3381(3) 0.5609(2)
C9 C 1.10995(14) -0.3399(4) 0.6586(3)
H9 H 1.13917(14) -0.3843(4) 0.6899(3)
C10 C 1.0813(2) -0.2791(4) 0.7110(3)
H10 H 1.0913(2) -0.2820(4) 0.7787(3)
C11 C 0.75497(12) 0.0690(3) 0.7932(2)
C12 C 0.79313(11) 0.1075(3) 0.8677(2)
C13 C 0.78485(11) 0.1114(3) 0.9611(2)
C14 C 0.82361(12) 0.1566(3) 1.0422(2)
H11 H 0.80764(12) 0.1841(3) 1.0911(2)
H12 H 0.84705(12) 0.0932(3) 1.0658(2)
H13 H 0.84196(12) 0.2217(3) 1.0217(2)
C15 C 0.7613(2) 0.0645(5) 0.6929(3)
H14 H 0.7940(2) 0.0326(5) 0.6919(3)
H15 H 0.7359(2) 0.0144(5) 0.6552(3)
H16 H 0.7582(2) 0.1444(5) 0.6665(3)
C16 C 0.89852(13) 0.2549(4) 0.7729(3)
H17 H 0.90296(13) 0.3213(4) 0.7330(3)
C17 C 0.85142(13) 0.2358(4) 0.7925(3)
H18 H 0.82384(13) 0.2878(4) 0.7652(3)
C18 C 0.84376(11) 0.1408(3) 0.8507(2)
C19 C 0.88647(12) 0.0734(3) 0.8898(2)
H19 H 0.88396(12) 0.0083(3) 0.9322(2)
C20 C 0.93202(12) 0.0978(3) 0.8679(2)
H20 H 0.96060(12) 0.0494(3) 0.8964(2)
Br1F Br 1.053322(11) 0.02355(3) 0.86331(2)
O1F O 0.85559(8) -0.5631(2) 1.0873(2)
O2F O 0.80267(8) -0.3695(2) 1.0713(2)
N1F N 0.96005(10) -0.2150(2) 0.8280(2)
C1F C 0.88259(12) -0.5107(3) 1.0369(2)
C2F C 0.87145(11) -0.3956(3) 0.9983(2)
C3F C 0.83230(11) -0.3268(3) 1.0224(2)
C4F C 0.82485(13) -0.1971(3) 0.9951(3)
H1F H 0.83107(13) -0.1848(3) 0.9332(3)
H2F H 0.84736(13) -0.1484(3) 1.0404(3)
H3F H 0.79100(13) -0.1739(3) 0.9963(3)
C5F C 0.92772(13) -0.5784(3) 1.0237(3)
H4F H 0.94014(13) -0.5420(3) 0.9732(3)
H5F H 0.91897(13) -0.6610(3) 1.0078(3)
H6F H 0.95377(13) -0.5770(3) 1.0802(3)
C6F C 0.97380(12) -0.2176(3) 0.9220(2)
H7F H 1.00366(12) -0.1741(3) 0.9515(2)
C7F C 0.94717(12) -0.2770(3) 0.9786(2)
H8F H 0.95938(12) -0.2774(3) 1.0459(2)
C8F C 0.90347(11) -0.3381(3) 0.9391(2)
C9F C 0.89005(14) -0.3399(4) 0.8414(3)
H9F H 0.86083(14) -0.3843(4) 0.8101(3)
C10F C 0.9187(2) -0.2791(4) 0.7890(3)
H10F H 0.9087(2) -0.2820(4) 0.7213(3)
Be1F Be 0.80153(15) -0.5114(4) 1.0970(3)
O3F O 1.28843(8) 0.0320(2) 0.6968(2)
O4F O 1.25668(8) 0.0768(2) 0.52013(15)
N2F N 1.06131(10) 0.1855(3) 0.6912(2)
C11F C 1.24503(12) 0.0690(3) 0.7068(2)
C12F C 1.20687(11) 0.1075(3) 0.6323(2)
C13F C 1.21515(11) 0.1114(3) 0.5389(2)
C14F C 1.17639(12) 0.1566(3) 0.4578(2)
H11F H 1.19236(12) 0.1841(3) 0.4089(2)
H12F H 1.15295(12) 0.0932(3) 0.4342(2)
H13F H 1.15804(12) 0.2217(3) 0.4783(2)
C15F C 1.2387(2) 0.0645(5) 0.8071(3)
H14F H 1.2060(2) 0.0326(5) 0.8081(3)
H15F H 1.2641(2) 0.0144(5) 0.8448(3)
H16F H 1.2418(2) 0.1444(5) 0.8335(3)
C16F C 1.10148(13) 0.2549(4) 0.7271(3)
H17F H 1.09704(13) 0.3213(4) 0.7670(3)
C17F C 1.14858(13) 0.2358(4) 0.7075(3)
H18F H 1.17616(13) 0.2878(4) 0.7348(3)
C18F C 1.15624(11) 0.1408(3) 0.6493(2)
C19F C 1.11353(12) 0.0734(3) 0.6102(2)
H19F H 1.11604(12) 0.0083(3) 0.5678(2)
C20F C 1.06798(12) 0.0978(3) 0.6321(2)
H20F H 1.03940(12) 0.0494(3) 0.6036(2)
O3C O 1.21157(8) -0.5320(2) 0.3032(2)
O4C O 1.24332(8) -0.5768(2) 0.47987(15)
Be1C Be 0.69847(15) 0.0114(4) 0.9030(3)
O3E O 0.78843(8) -0.5320(2) 1.1968(2)
O4E O 0.75668(8) -0.5768(2) 1.02013(15)
Be1E Be 1.30153(15) 0.0114(4) 0.5970(3)
loop_
_geom_bond_atom_site_label_1
_geom_bond_atom_site_label_2
_geom_bond_site_symmetry_1
_geom_bond_site_symmetry_2
Cu1 Br1 1_555 1_555
Cu2 Br1 1_555 1_555
Be1 O1 1_555 1_555
Br2 Cu2 1_555 1_555
O1 C1 1_555 1_555
O2 Be1 1_555 1_555
O3 C11 1_555 1_555
O4 C13 1_555 1_555
N1 Cu1 1_555 1_555
N2 Cu2 1_555 1_555
C1 C2 1_555 1_555
C2 C3 1_555 1_555
C3 O2 1_555 1_555
C4 C3 1_555 1_555
H1 C4 1_555 1_555
H2 C4 1_555 1_555
H3 C4 1_555 1_555
C5 C1 1_555 1_555
H4 C5 1_555 1_555
H5 C5 1_555 1_555
H6 C5 1_555 1_555
C6 N1 1_555 1_555
H7 C6 1_555 1_555
C7 C6 1_555 1_555
H8 C7 1_555 1_555
C8 C2 1_555 1_555
C9 C8 1_555 1_555
H9 C9 1_555 1_555
C10 N1 1_555 1_555
H10 C10 1_555 1_555
C11 C12 1_555 1_555
C12 C13 1_555 1_555
C13 C14 1_555 1_555
C14 H11 1_555 1_555
H12 C14 1_555 1_555
H13 C14 1_555 1_555
C15 C11 1_555 1_555
H14 C15 1_555 1_555
H15 C15 1_555 1_555
H16 C15 1_555 1_555
C16 N2 1_555 1_555
H17 C16 1_555 1_555
C17 C16 1_555 1_555
H18 C17 1_555 1_555
C18 C12 1_555 1_555
C19 C18 1_555 1_555
H19 C19 1_555 1_555
C20 N2 1_555 1_555
H20 C20 1_555 1_555
Br1F Cu1 1_555 1_555
O1F C1F 1_555 1_555
O2F C3F 1_555 1_555
N1F Cu1 1_555 1_555
C1F C2F 1_555 1_555
C2F C3F 1_555 1_555
C3F C4F 1_555 1_555
C4F H1F 1_555 1_555
H2F C4F 1_555 1_555
H3F C4F 1_555 1_555
C5F C1F 1_555 1_555
H4F C5F 1_555 1_555
H5F C5F 1_555 1_555
H6F C5F 1_555 1_555
C6F N1F 1_555 1_555
H7F C6F 1_555 1_555
C7F C6F 1_555 1_555
H8F C7F 1_555 1_555
C8F C2F 1_555 1_555
C9F C8F 1_555 1_555
H9F C9F 1_555 1_555
C10F N1F 1_555 1_555
H10F C10F 1_555 1_555
Be1F O1F 1_555 1_555
O3F C11F 1_555 1_555
O4F C13F 1_555 1_555
N2F Cu2 1_555 1_555
C11F C12F 1_555 1_555
C12F C13F 1_555 1_555
C13F C14F 1_555 1_555
C14F H11F 1_555 1_555
H12F C14F 1_555 1_555
H13F C14F 1_555 1_555
C15F C11F 1_555 1_555
H14F C15F 1_555 1_555
H15F C15F 1_555 1_555
H16F C15F 1_555 1_555
C16F N2F 1_555 1_555
H17F C16F 1_555 1_555
C17F C16F 1_555 1_555
H18F C17F 1_555 1_555
C18F C12F 1_555 1_555
C19F C18F 1_555 1_555
H19F C19F 1_555 1_555
C20F N2F 1_555 1_555
H20F C20F 1_555 1_555
O3C Be1 1_555 1_555
O4C Be1 1_555 1_555
Be1C O3 1_555 1_555
O3E Be1F 1_555 1_555
O4E Be1F 1_555 1_555
Be1E O3F 1_555 1_555
Cu2 Br1F 1_555 1_555
O4 Be1C 1_555 1_555
C7 C8 1_555 1_555
C9 C10 1_555 1_555
C17 C18 1_555 1_555
C19 C20 1_555 1_555
O2F Be1F 1_555 1_555
C7F C8F 1_555 1_555
C9F C10F 1_555 1_555
O4F Be1E 1_555 1_555
C17F C18F 1_555 1_555
C19F C20F 1_555 1_555

#END
