
#######################################################################
#
#                 Cambridge Crystallographic Data Centre
#                                CCDC 
#
#######################################################################
#
# If this CIF has been generated from an entry in the Cambridge 
# Structural Database, then it will include bibliographic, chemical, 
# crystal, experimental, refinement or atomic coordinate data resulting 
# from the CCDC's data processing and validation procedures.
#
#######################################################################

data_JAGBOJ
_symmetry_cell_setting           monoclinic
_symmetry_space_group_name_H-M   'P 21/c'
_symmetry_Int_Tables_number      14
_space_group_name_Hall           '-P 2ybc'
loop_
_symmetry_equiv_pos_site_id
_symmetry_equiv_pos_as_xyz
1 x,y,z
2 x,1/2-y,1/2+z
3 -x,-y,-z
4 -x,1/2+y,1/2-z
_cell_length_a                   13.7180(7)
_cell_length_b                   10.1127(7)
_cell_length_c                   19.0653(10)
_cell_angle_alpha                90
_cell_angle_beta                 108.971(3)
_cell_angle_gamma                90
_cell_volume                     2501.19
loop_
_atom_site_label
_atom_site_type_symbol
_atom_site_fract_x
_atom_site_fract_y
_atom_site_fract_z
Cu1 Cu 0.76404(4) 0.30916(4) 0.48526(2)
N1 N 0.6964(2) 0.4662(2) 0.51146(15)
N2 N 0.8103(3) 0.4624(3) 0.41004(18)
N3 N 0.3910(2) -0.0014(3) 0.65084(14)
N4 N 0.2898(2) -0.1490(2) 0.57692(14)
N5 N 1.0264(2) -0.1330(3) 0.33094(14)
N6 N 1.1135(2) -0.2468(3) 0.43023(14)
C1 C 0.7400(3) 0.5889(3) 0.49207(18)
H1 H 0.8085 0.6054 0.5292
H2 H 0.6947 0.6643 0.4936
C2 C 0.7506(3) 0.5802(4) 0.4166(2)
H3 H 0.6812 0.5759 0.3788
H4 H 0.7855 0.6606 0.4070
C3 C 0.6365(3) 0.4795(3) 0.54967(17)
H5 H 0.6176 0.5671 0.5579
C4 C 0.5940(3) 0.3722(3) 0.58200(18)
C5 C 0.5911(3) 0.2416(3) 0.56032(19)
H6 H 0.6148 0.2190 0.5202
C6 C 0.5549(3) 0.1434(3) 0.59541(19)
H7 H 0.5545 0.0541 0.5797
C7 C 0.5188(3) 0.1744(3) 0.65368(17)
C8 C 0.5200(3) 0.3036(4) 0.67454(16)
H8 H 0.4965 0.3260 0.7147
C9 C 0.5548(3) 0.4031(4) 0.63844(19)
H9 H 0.5517 0.4927 0.6525
C10 C 0.4850(3) 0.0652(3) 0.69585(18)
H10 H 0.5410 -0.0008 0.7131
H11 H 0.4733 0.1038 0.7402
C11 C 0.7957(3) 0.4183(3) 0.3463(2)
H12 H 0.7457 0.4614 0.3063
C12 C 0.8498(3) 0.3053(4) 0.32872(17)
C13 C 0.8072(3) 0.2399(3) 0.26166(19)
H13 H 0.7444 0.2702 0.2270
C14 C 0.8561(3) 0.1313(4) 0.24548(19)
H14 H 0.8253 0.0857 0.2001
C15 C 0.9482(3) 0.0873(3) 0.29328(18)
C16 C 0.9921(3) 0.1549(3) 0.35968(18)
H15 H 1.0567 0.1268 0.3929
C17 C 0.9432(3) 0.2624(3) 0.37791(18)
H16 H 0.9731 0.3066 0.4238
C18 C 1.0022(3) -0.0306(3) 0.27377(16)
H17 H 0.9577 -0.0689 0.2264
H18 H 1.0669 -0.0006 0.2664
C19 C 0.3852(3) -0.1192(3) 0.61642(17)
H19 H 0.4430 -0.1739 0.6203
C20 C 0.2318(3) -0.0446(4) 0.5866(2)
H20 H 0.1593 -0.0365 0.5645
C21 C 0.2936(3) 0.0452(3) 0.6326(2)
H21 H 0.2726 0.1258 0.6489
C22 C 1.1161(3) -0.1473(3) 0.38612(18)
H22 H 1.1745 -0.0923 0.3927
C23 C 1.0165(3) -0.2980(4) 0.40138(18)
H23 H 0.9910 -0.3719 0.4209
C24 C 0.9619(3) -0.2280(3) 0.3408(2)
H24 H 0.8923 -0.2423 0.3111
N4B N 0.7102(2) 0.1490(2) 0.42308(14)
N6B N 0.8865(2) 0.2468(3) 0.56977(14)
Cu1B Cu 0.23596(4) -0.30916(4) 0.51474(2)
Cu1B_2 Cu 1.23596(4) -0.30916(4) 0.51474(2)
Cl1 Cl 0.69957(7) -0.20196(10) 0.67280(5)
O1 O 0.7680(2) -0.3092(3) 0.67500(13)
O2 O 0.6642(3) -0.2088(4) 0.73335(17)
O3 O 0.7503(3) -0.0803(3) 0.67736(19)
O4 O 0.6154(2) -0.2044(3) 0.60652(15)
loop_
_geom_bond_atom_site_label_1
_geom_bond_atom_site_label_2
_geom_bond_site_symmetry_1
_geom_bond_site_symmetry_2
Cu1 N1 1_555 1_555
Cl1 O1 1_555 1_555
O2 Cl1 1_555 1_555
O3 Cl1 1_555 1_555
O4 Cl1 1_555 1_555
N1 C1 1_555 1_555
N2 Cu1 1_555 1_555
N3 C10 1_555 1_555
N4 C19 1_555 1_555
N5 C18 1_555 1_555
N6 C22 1_555 1_555
C1 H1 1_555 1_555
H2 C1 1_555 1_555
C2 N2 1_555 1_555
H3 C2 1_555 1_555
H4 C2 1_555 1_555
C3 N1 1_555 1_555
H5 C3 1_555 1_555
C4 C3 1_555 1_555
C5 C4 1_555 1_555
H6 C5 1_555 1_555
C6 C5 1_555 1_555
H7 C6 1_555 1_555
C7 C6 1_555 1_555
C8 C7 1_555 1_555
H8 C8 1_555 1_555
C9 C4 1_555 1_555
H9 C9 1_555 1_555
C10 C7 1_555 1_555
H10 C10 1_555 1_555
H11 C10 1_555 1_555
C11 N2 1_555 1_555
H12 C11 1_555 1_555
C12 C11 1_555 1_555
C13 C12 1_555 1_555
H13 C13 1_555 1_555
C14 C13 1_555 1_555
H14 C14 1_555 1_555
C15 C14 1_555 1_555
C16 C15 1_555 1_555
H15 C16 1_555 1_555
C17 C12 1_555 1_555
H16 C17 1_555 1_555
C18 C15 1_555 1_555
H17 C18 1_555 1_555
H18 C18 1_555 1_555
C19 N3 1_555 1_555
H19 C19 1_555 1_555
C20 N4 1_555 1_555
H20 C20 1_555 1_555
C21 N3 1_555 1_555
H21 C21 1_555 1_555
C22 N5 1_555 1_555
H22 C22 1_555 1_555
C23 N6 1_555 1_555
H23 C23 1_555 1_555
C24 N5 1_555 1_555
H24 C24 1_555 1_555
N4B Cu1 1_555 1_555
N6B Cu1 1_555 1_555
Cu1B N4 1_555 1_555
Cu1B_2 N6 1_555 1_555
C1 C2 1_555 1_555
C8 C9 1_555 1_555
C16 C17 1_555 1_555
C20 C21 1_555 1_555
C23 C24 1_555 1_555

#END
