
#######################################################################
#
#                 Cambridge Crystallographic Data Centre
#                                CCDC 
#
#######################################################################
#
# If this CIF has been generated from an entry in the Cambridge 
# Structural Database, then it will include bibliographic, chemical, 
# crystal, experimental, refinement or atomic coordinate data resulting 
# from the CCDC's data processing and validation procedures.
#
#######################################################################

data_JAGDOL
_symmetry_cell_setting           monoclinic
_symmetry_space_group_name_H-M   'P 2/c'
_symmetry_Int_Tables_number      13
_space_group_name_Hall           '-P 2yc'
loop_
_symmetry_equiv_pos_site_id
_symmetry_equiv_pos_as_xyz
1 x,y,z
2 x,-y,1/2+z
3 -x,-y,-z
4 -x,y,1/2-z
_cell_length_a                   9.4070(19)
_cell_length_b                   5.4910(11)
_cell_length_c                   11.317(2)
_cell_angle_alpha                90
_cell_angle_beta                 95.93(3)
_cell_angle_gamma                90
_cell_volume                     581.438
loop_
_atom_site_label
_atom_site_type_symbol
_atom_site_fract_x
_atom_site_fract_y
_atom_site_fract_z
Cd1 Cd 0.5000 0.35180(3) 0.2500
O1 O 0.60282(18) 0.2461(3) 0.43847(12)
O2 O 0.67230(17) 0.0449(3) 0.28943(12)
C1 C 0.6745(2) 0.0761(4) 0.39943(17)
C2 C 0.7607(2) -0.0879(4) 0.48608(19)
C3 C 0.8627(2) -0.2596(4) 0.43275(19)
C4 C 0.9505(2) -0.4097(4) 0.5265(2)
O3 O 0.3691(2) 0.6254(3) 0.33256(15)
H1 H 0.8154 0.0150 0.5503
H2 H 0.6920 -0.1812 0.5204
H3 H 0.9232 -0.1670 0.3887
H4 H 0.8146 -0.3752 0.3828
H5 H 0.8940 -0.4964 0.5746
H6 H 1.0118 -0.3042 0.5777
H7 H 0.3785 0.6606 0.4000
H8 H 0.3473 0.7378 0.3026
C4B C 1.0495(2) -0.5903(4) 0.4735(2)
C3B C 1.1373(2) -0.7404(4) 0.56725(19)
C2B C 1.2393(2) -0.9121(4) 0.51392(19)
C1B C 1.3255(2) -1.0761(4) 0.60057(17)
O1B O 1.39718(18) -1.2461(3) 0.56153(12)
O2B O 1.32770(17) -1.0449(3) 0.71057(12)
H1B H 1.1846 -1.0150 0.4497
H2B H 1.3080 -0.8188 0.4796
H3B H 1.0768 -0.8330 0.6113
H4B H 1.1854 -0.6248 0.6172
H5B H 1.1060 -0.5036 0.4254
H6B H 0.9882 -0.6958 0.4223
O3C O 0.6309(2) 0.6254(3) 0.16744(15)
H7C H 0.6215 0.6606 0.1000
H8C H 0.6527 0.7378 0.1974
O1C O 0.39718(18) 0.2461(3) 0.06153(12)
O2C O 0.32770(17) 0.0449(3) 0.21057(12)
Cd1A Cd 1.5000 -1.35180(3) 0.7500
loop_
_geom_bond_atom_site_label_1
_geom_bond_atom_site_label_2
_geom_bond_site_symmetry_1
_geom_bond_site_symmetry_2
Cd1 O1 1_555 1_555
O1 C1 1_555 1_555
O2 Cd1 1_555 1_555
C1 O2 1_555 1_555
C2 C1 1_555 1_555
C3 C2 1_555 1_555
C4 C3 1_555 1_555
O3 Cd1 1_555 1_555
H1 C2 1_555 1_555
H2 C2 1_555 1_555
H3 C3 1_555 1_555
H4 C3 1_555 1_555
H5 C4 1_555 1_555
H6 C4 1_555 1_555
H7 O3 1_555 1_555
H8 O3 1_555 1_555
C4B C4 1_555 1_555
C3B C4B 1_555 1_555
C2B C3B 1_555 1_555
C1B C2B 1_555 1_555
O1B C1B 1_555 1_555
O2B C1B 1_555 1_555
H1B C2B 1_555 1_555
H2B C2B 1_555 1_555
H3B C3B 1_555 1_555
H4B C3B 1_555 1_555
H5B C4B 1_555 1_555
H6B C4B 1_555 1_555
O3C Cd1 1_555 1_555
H7C O3C 1_555 1_555
H8C O3C 1_555 1_555
O1C Cd1 1_555 1_555
O2C Cd1 1_555 1_555
Cd1A O1B 1_555 1_555
O2B Cd1A 1_555 1_555

#END
