
#######################################################################
#
#                 Cambridge Crystallographic Data Centre
#                                CCDC 
#
#######################################################################
#
# If this CIF has been generated from an entry in the Cambridge 
# Structural Database, then it will include bibliographic, chemical, 
# crystal, experimental, refinement or atomic coordinate data resulting 
# from the CCDC's data processing and validation procedures.
#
#######################################################################

data_JAGPOX01
_symmetry_cell_setting           triclinic
_symmetry_space_group_name_H-M   'P -1'
_symmetry_Int_Tables_number      2
_space_group_name_Hall           '-P 1'
loop_
_symmetry_equiv_pos_site_id
_symmetry_equiv_pos_as_xyz
1 x,y,z
2 -x,-y,-z
_cell_length_a                   9.444(10)
_cell_length_b                   11.404(10)
_cell_length_c                   16.982(10)
_cell_angle_alpha                100.070(10)
_cell_angle_beta                 94.020(10)
_cell_angle_gamma                110.500(10)
_cell_volume                     1669.54
loop_
_atom_site_label
_atom_site_type_symbol
_atom_site_fract_x
_atom_site_fract_y
_atom_site_fract_z
Zn1 Zn 0.20753(8) 0.15461(6) 0.49174(4)
Zn2 Zn 0.22357(9) -0.52349(7) 0.14686(4)
N1 N 0.4695(7) -0.4638(5) 0.1708(3)
N2 N 0.2694(6) -0.6411(5) 0.0515(3)
N3 N 0.2458(6) 0.3514(4) 0.5465(3)
N4 N 0.4559(6) 0.2455(4) 0.5282(3)
O1 O 0.2625(5) 0.2049(4) 0.3598(3)
O2 O 0.2114(6) 0.0161(4) 0.3948(3)
O3 O 0.2158(6) -0.3610(4) 0.0695(3)
O4 O 0.2053(6) -0.3579(4) 0.1992(3)
O5 O -0.2063(5) -0.0705(4) 0.4116(2)
O6 O -0.0210(5) 0.1262(4) 0.4562(2)
O7 O 0.1380(5) 0.3636(4) 0.2283(3)
O8 O -0.0407(6) 0.3420(5) 0.1274(3)
C1 C 0.1359(8) 0.4009(6) 0.5508(4)
H1 H 0.0334 0.3461 0.5274
C2 C 0.1627(9) 0.5265(7) 0.5873(5)
H2 H 0.0801 0.5571 0.5892
C3 C 0.3120(10) 0.6081(6) 0.6215(4)
H3 H 0.3346 0.6956 0.6477
C4 C 0.4266(9) 0.5580(6) 0.6159(4)
H4 H 0.5304 0.6119 0.6374
C5 C 0.3915(7) 0.4286(5) 0.5788(3)
C6 C 0.5081(7) 0.3673(6) 0.5723(3)
C7 C 0.6584(8) 0.4279(7) 0.6122(4)
H5 H 0.6932 0.5144 0.6429
C8 C 0.7550(8) 0.3612(9) 0.6071(4)
H6 H 0.8574 0.4009 0.6352
C9 C 0.7049(9) 0.2368(9) 0.5611(5)
H7 H 0.7714 0.1894 0.5570
C10 C 0.5543(8) 0.1827(7) 0.5213(5)
H8 H 0.5197 0.0981 0.4878
C11 C 0.2353(7) 0.0865(6) 0.3418(4)
C12 C 0.2284(7) 0.0207(5) 0.2545(3)
C13 C 0.2354(8) 0.0894(6) 0.1931(4)
H9 H 0.2429 0.1770 0.2053
C14 C 0.2317(8) 0.0279(7) 0.1132(4)
H10 H 0.2331 0.0737 0.0708
C15 C 0.2252(8) -0.0982(6) 0.0946(4)
H11 H 0.2275 -0.1371 0.0400
C16 C 0.2158(7) -0.1671(5) 0.1561(4)
C17 C 0.2179(7) -0.1051(5) 0.2356(4)
H12 H 0.2116 -0.1517 0.2780
C18 C 0.2106(7) -0.3029(6) 0.1385(4)
C19 C -0.1306(7) 0.0444(5) 0.4052(3)
C20 C -0.1816(6) 0.0863(5) 0.3308(3)
C21 C -0.3328(7) 0.0269(6) 0.2907(4)
H13 H -0.4053 -0.0394 0.3110
C22 C -0.3787(8) 0.0631(6) 0.2222(4)
H14 H -0.4828 0.0240 0.1964
C23 C -0.2704(7) 0.1579(6) 0.1907(4)
H15 H -0.3014 0.1818 0.1428
C24 C -0.1190(7) 0.2170(5) 0.2282(4)
C25 C -0.0752(7) 0.1824(5) 0.3003(3)
H16 H 0.0273 0.2248 0.3281
C26 C -0.0022(7) 0.3134(6) 0.1920(4)
C27 C 0.5671(9) -0.3654(7) 0.2304(4)
H17 H 0.5259 -0.3116 0.2636
C28 C 0.7250(9) -0.3398(8) 0.2449(5)
H18 H 0.7905 -0.2711 0.2876
C29 C 0.7830(10) -0.4181(9) 0.1953(6)
H19 H 0.8894 -0.4051 0.2046
C30 C 0.6852(9) -0.5150(8) 0.1317(5)
H20 H 0.7248 -0.5668 0.0958
C31 C 0.5295(8) -0.5360(6) 0.1214(4)
C32 C 0.4147(9) -0.6345(6) 0.0526(4)
C33 C 0.4558(10) -0.7126(7) -0.0070(5)
H21 H 0.5597 -0.7072 -0.0055
C34 C 0.3408(13) -0.7993(8) -0.0693(5)
H22 H 0.3663 -0.8541 -0.1108
C35 C 0.1938(13) -0.8044(8) -0.0700(5)
H23 H 0.1150 -0.8627 -0.1122
C36 C 0.1615(10) -0.7247(7) -0.0090(4)
H24 H 0.0583 -0.7284 -0.0098
Zn1A Zn -0.20753(8) -0.15461(6) 0.50826(4)
O5A O 0.2063(5) 0.0705(4) 0.5884(2)
O7_2 O 0.1380(5) -0.6364(4) 0.2283(3)
Zn2_2 Zn 0.22357(9) 0.47651(7) 0.14686(4)
O8_2 O -0.0407(6) -0.6580(5) 0.1274(3)
loop_
_geom_bond_atom_site_label_1
_geom_bond_atom_site_label_2
_geom_bond_site_symmetry_1
_geom_bond_site_symmetry_2
Zn1 N3 1_555 1_555
Zn2 N1 1_555 1_555
N1 C27 1_555 1_555
N2 Zn2 1_555 1_555
N3 C1 1_555 1_555
N4 Zn1 1_555 1_555
O1 Zn1 1_555 1_555
O2 Zn1 1_555 1_555
O3 Zn2 1_555 1_555
O4 Zn2 1_555 1_555
O5 C19 1_555 1_555
O6 Zn1 1_555 1_555
O7 C26 1_555 1_555
O8 C26 1_555 1_555
C1 H1 1_555 1_555
C2 C1 1_555 1_555
H2 C2 1_555 1_555
C3 C2 1_555 1_555
H3 C3 1_555 1_555
C4 C3 1_555 1_555
H4 C4 1_555 1_555
C5 N3 1_555 1_555
C6 N4 1_555 1_555
C7 C6 1_555 1_555
H5 C7 1_555 1_555
C8 C7 1_555 1_555
H6 C8 1_555 1_555
C9 C8 1_555 1_555
H7 C9 1_555 1_555
C10 N4 1_555 1_555
H8 C10 1_555 1_555
C11 O1 1_555 1_555
C12 C11 1_555 1_555
C13 C12 1_555 1_555
H9 C13 1_555 1_555
C14 C13 1_555 1_555
H10 C14 1_555 1_555
C15 C14 1_555 1_555
H11 C15 1_555 1_555
C16 C15 1_555 1_555
C17 C12 1_555 1_555
H12 C17 1_555 1_555
C18 O3 1_555 1_555
C19 O6 1_555 1_555
C20 C19 1_555 1_555
C21 C20 1_555 1_555
H13 C21 1_555 1_555
C22 C21 1_555 1_555
H14 C22 1_555 1_555
C23 C22 1_555 1_555
H15 C23 1_555 1_555
C24 C23 1_555 1_555
C25 C20 1_555 1_555
H16 C25 1_555 1_555
C26 C24 1_555 1_555
C27 H17 1_555 1_555
C28 C27 1_555 1_555
H18 C28 1_555 1_555
C29 C28 1_555 1_555
H19 C29 1_555 1_555
C30 C29 1_555 1_555
H20 C30 1_555 1_555
C31 N1 1_555 1_555
C32 N2 1_555 1_555
C33 C32 1_555 1_555
H21 C33 1_555 1_555
C34 C33 1_555 1_555
H22 C34 1_555 1_555
C35 C34 1_555 1_555
H23 C35 1_555 1_555
C36 N2 1_555 1_555
H24 C36 1_555 1_555
Zn1A O5 1_555 1_555
O5A Zn1 1_555 1_555
O7_2 Zn2 1_555 1_555
Zn2_2 O7 1_555 1_555
O8_2 Zn2 1_555 1_555
O2 C11 1_555 1_555
O4 C18 1_555 1_555
O8 Zn2_2 1_555 1_555
C4 C5 1_555 1_555
C5 C6 1_555 1_555
C9 C10 1_555 1_555
C16 C17 1_555 1_555
C16 C18 1_555 1_555
C24 C25 1_555 1_555
C30 C31 1_555 1_555
C31 C32 1_555 1_555
C35 C36 1_555 1_555

#END
