
#######################################################################
#
#                 Cambridge Crystallographic Data Centre
#                                CCDC 
#
#######################################################################
#
# If this CIF has been generated from an entry in the Cambridge 
# Structural Database, then it will include bibliographic, chemical, 
# crystal, experimental, refinement or atomic coordinate data resulting 
# from the CCDC's data processing and validation procedures.
#
#######################################################################

data_JAGPOX
_symmetry_cell_setting           triclinic
_symmetry_space_group_name_H-M   'P -1'
_symmetry_Int_Tables_number      2
_space_group_name_Hall           '-P 1'
loop_
_symmetry_equiv_pos_site_id
_symmetry_equiv_pos_as_xyz
1 x,y,z
2 -x,-y,-z
_cell_length_a                   9.3302(3)
_cell_length_b                   11.2760(3)
_cell_length_c                   16.7809(5)
_cell_angle_alpha                100.118(2)
_cell_angle_beta                 93.907(2)
_cell_angle_gamma                110.630(2)
_cell_volume                     1610.29
loop_
_atom_site_label
_atom_site_type_symbol
_atom_site_fract_x
_atom_site_fract_y
_atom_site_fract_z
Zn1 Zn 0.70759(13) 0.15466(10) 0.49176(7)
N1 N 0.7451(9) 0.3497(7) 0.5468(5)
O1 O 0.7107(8) 0.0163(7) 0.3948(4)
C1 C 0.6321(14) 0.4005(10) 0.5512(7)
H1 H 0.534(13) 0.341(11) 0.528(7)
Zn2 Zn 0.72359(14) -0.52349(11) 0.14699(8)
N2 N 0.9560(9) 0.2462(8) 0.5281(5)
C2 C 0.6633(17) 0.5274(12) 0.5873(8)
H2 H 0.585(14) 0.561(12) 0.588(7)
O2 O 0.7628(7) 0.2047(7) 0.3598(4)
N3 N 0.9697(10) -0.4639(8) 0.1707(5)
C3 C 0.8123(17) 0.6079(12) 0.6222(8)
H3 H 0.845(13) 0.698(12) 0.645(7)
O3 O 0.7037(10) -0.3590(7) 0.1990(5)
C4 C 0.9277(14) 0.5588(10) 0.6169(7)
H4 H 1.031(12) 0.608(9) 0.642(6)
N4 N 0.7687(10) -0.6404(8) 0.0519(5)
O4 O 0.7148(10) -0.3600(8) 0.0689(5)
O5 O 0.4599(9) 0.3421(7) 0.1275(4)
C5 C 0.8923(11) 0.4291(9) 0.5792(6)
O6 O 0.6373(8) 0.3645(6) 0.2284(4)
C6 C 1.0087(10) 0.3671(9) 0.5724(6)
O7 O 0.4796(8) 0.1256(6) 0.4565(4)
C7 C 1.1587(12) 0.4305(12) 0.6122(6)
H5 H 1.1949 0.5164 0.6406
C8 C 1.2522(17) 0.3567(17) 0.6069(8)
O8 O 0.2935(8) -0.0712(6) 0.4118(4)
C9 C 1.2046(13) 0.2357(14) 0.5615(8)
H6 H 1.2693 0.1889 0.5572
C10 C 1.0555(17) 0.1846(14) 0.5217(10)
H7 H 1.023(9) 0.122(8) 0.502(5)
C11 C 1.0681(17) -0.3683(14) 0.2292(8)
H8 H 1.027(9) -0.332(7) 0.252(5)
C12 C 1.2259(14) -0.3429(14) 0.2426(9)
H9 H 1.2920 -0.2750 0.2836
C13 C 1.279(2) -0.4221(18) 0.1928(11)
H10 H 1.365(13) -0.420(10) 0.192(7)
C14 C 1.1829(14) -0.5170(13) 0.1312(9)
H11 H 1.224(12) -0.572(10) 0.098(6)
C15 C 1.0297(12) -0.5349(10) 0.1217(7)
C16 C 0.9173(14) -0.6334(10) 0.0547(6)
H12 H 1.329(9) 0.405(7) 0.631(5)
C17 C 0.9563(19) -0.7128(14) -0.0074(9)
H13 H 1.058(12) -0.696(10) 0.004(6)
C18 C 0.841(2) -0.7982(14) -0.0691(9)
H14 H 0.869(14) -0.846(12) -0.108(8)
C19 C 0.694(3) -0.8049(15) -0.0695(9)
H15 H 0.615(13) -0.864(11) -0.107(7)
C20 C 0.6636(18) -0.7256(13) -0.0089(8)
H16 H 0.574(11) -0.731(9) -0.006(6)
C21 C 0.7352(11) 0.0857(10) 0.3414(6)
C22 C 0.7291(11) 0.0211(9) 0.2548(6)
C23 C 0.7372(13) 0.0877(11) 0.1923(8)
H17 H 0.742(9) 0.164(8) 0.206(5)
C24 C 0.7345(14) 0.0284(12) 0.1122(7)
H18 H 0.729(13) 0.077(11) 0.074(7)
C25 C 0.7257(12) -0.0968(10) 0.0941(7)
H19 H 0.729(9) -0.143(8) 0.038(5)
C26 C 0.7171(11) -0.1673(9) 0.1561(6)
C27 C 0.7161(11) -0.1066(9) 0.2342(7)
H20 H 0.703(9) -0.157(8) 0.269(5)
C28 C 0.7105(12) -0.3041(10) 0.1377(8)
C29 C 0.3686(10) 0.0447(10) 0.4055(6)
C30 C 0.3197(11) 0.0860(9) 0.3306(6)
C31 C 0.1684(11) 0.0256(10) 0.2912(6)
H21 H 0.094(9) -0.043(8) 0.315(5)
C32 C 0.1192(13) 0.0621(10) 0.2212(6)
H22 H 0.003(14) 0.033(11) 0.202(7)
C33 C 0.2300(12) 0.1583(10) 0.1917(7)
H23 H 0.206(8) 0.178(7) 0.143(5)
C34 C 0.3822(10) 0.2165(8) 0.2300(6)
C35 C 0.4241(12) 0.1828(9) 0.2999(6)
H24 H 0.520(9) 0.222(7) 0.327(5)
C36 C 0.4982(12) 0.3137(9) 0.1913(6)
O8A O 0.7065(8) 0.0712(6) 0.5882(4)
O5_2 O 0.4599(9) -0.6579(7) 0.1275(4)
O6_2 O 0.6373(8) -0.6355(6) 0.2284(4)
Zn2_2 Zn 0.72359(14) 0.47651(11) 0.14699(8)
Zn1A Zn 0.29241(13) -0.15466(10) 0.50824(7)
loop_
_geom_bond_atom_site_label_1
_geom_bond_atom_site_label_2
_geom_bond_site_symmetry_1
_geom_bond_site_symmetry_2
Zn1 N1 1_555 1_555
N1 C1 1_555 1_555
O1 Zn1 1_555 1_555
C1 H1 1_555 1_555
Zn2 N3 1_555 1_555
N2 Zn1 1_555 1_555
C2 C1 1_555 1_555
H2 C2 1_555 1_555
O2 Zn1 1_555 1_555
N3 C11 1_555 1_555
C3 C2 1_555 1_555
H3 C3 1_555 1_555
O3 Zn2 1_555 1_555
C4 C3 1_555 1_555
H4 C4 1_555 1_555
N4 Zn2 1_555 1_555
O4 Zn2 1_555 1_555
O5 C36 1_555 1_555
C5 N1 1_555 1_555
O6 C36 1_555 1_555
C6 N2 1_555 1_555
O7 Zn1 1_555 1_555
C7 C6 1_555 1_555
H5 C7 1_555 1_555
C8 C7 1_555 1_555
O8 C29 1_555 1_555
C9 C8 1_555 1_555
H6 C9 1_555 1_555
C10 N2 1_555 1_555
H7 C10 1_555 1_555
C11 H8 1_555 1_555
C12 C11 1_555 1_555
H9 C12 1_555 1_555
C13 C12 1_555 1_555
H10 C13 1_555 1_555
C14 C13 1_555 1_555
H11 C14 1_555 1_555
C15 N3 1_555 1_555
C16 N4 1_555 1_555
H12 C8 1_555 1_555
C17 C16 1_555 1_555
H13 C17 1_555 1_555
C18 C17 1_555 1_555
H14 C18 1_555 1_555
C19 C18 1_555 1_555
H15 C19 1_555 1_555
C20 N4 1_555 1_555
H16 C20 1_555 1_555
C21 O1 1_555 1_555
C22 C21 1_555 1_555
C23 C22 1_555 1_555
H17 C23 1_555 1_555
C24 C23 1_555 1_555
H18 C24 1_555 1_555
C25 C24 1_555 1_555
H19 C25 1_555 1_555
C26 C25 1_555 1_555
C27 C22 1_555 1_555
H20 C27 1_555 1_555
C28 O3 1_555 1_555
C29 O7 1_555 1_555
C30 C29 1_555 1_555
C31 C30 1_555 1_555
H21 C31 1_555 1_555
C32 C31 1_555 1_555
H22 C32 1_555 1_555
C33 C32 1_555 1_555
H23 C33 1_555 1_555
C34 C33 1_555 1_555
C35 C30 1_555 1_555
H24 C35 1_555 1_555
C36 C34 1_555 1_555
O8A Zn1 1_555 1_555
O5_2 Zn2 1_555 1_555
O6_2 Zn2 1_555 1_555
Zn2_2 O5 1_555 1_555
Zn1A O8 1_555 1_555
O2 C21 1_555 1_555
C4 C5 1_555 1_555
O4 C28 1_555 1_555
C5 C6 1_555 1_555
O6 Zn2_2 1_555 1_555
C9 C10 1_555 1_555
C14 C15 1_555 1_555
C15 C16 1_555 1_555
C19 C20 1_555 1_555
C26 C27 1_555 1_555
C26 C28 1_555 1_555
C34 C35 1_555 1_555

#END
