
#######################################################################
#
#                 Cambridge Crystallographic Data Centre
#                                CCDC 
#
#######################################################################
#
# If this CIF has been generated from an entry in the Cambridge 
# Structural Database, then it will include bibliographic, chemical, 
# crystal, experimental, refinement or atomic coordinate data resulting 
# from the CCDC's data processing and validation procedures.
#
#######################################################################

data_JAGPAJ
_symmetry_cell_setting           triclinic
_symmetry_space_group_name_H-M   'P -1'
_symmetry_Int_Tables_number      2
_space_group_name_Hall           '-P 1'
loop_
_symmetry_equiv_pos_site_id
_symmetry_equiv_pos_as_xyz
1 x,y,z
2 -x,-y,-z
_cell_length_a                   10.3351(5)
_cell_length_b                   12.8235(7)
_cell_length_c                   14.4284(8)
_cell_angle_alpha                101.2400(10)
_cell_angle_beta                 99.7210(10)
_cell_angle_gamma                112.9830(10)
_cell_volume                     1661.92
loop_
_atom_site_label
_atom_site_type_symbol
_atom_site_fract_x
_atom_site_fract_y
_atom_site_fract_z
Cu1 Cu 0.22361(3) 0.97185(3) 0.74020(2)
P1 P 0.22887(7) 1.18020(6) 0.66013(5)
P2 P 0.24426(6) 0.77403(5) 0.82558(4)
O1 O 0.2517(2) 1.0700(2) 0.65202(13)
O2 O 0.0983(2) 1.0359(2) 0.79424(14)
O3 O 0.1925(2) 0.86869(15) 0.82549(12)
O4 O 0.3579(2) 0.9188(2) 0.68838(14)
N1 N 0.3270(2) 0.7520(2) 0.7417(2)
C1 C 0.3732(3) 0.8269(2) 0.6926(2)
C2 C -0.0261(3) 1.1691(2) 0.5502(2)
C3 C 0.1009(3) 1.1353(2) 0.7954(2)
N2 N 0.3665(2) 0.8031(2) 0.9285(2)
N3 N 0.1540(2) 1.2097(2) 0.7469(2)
N4 N 0.1038(2) 0.6529(2) 0.8209(2)
N5 N 0.3876(2) 1.2893(2) 0.6732(2)
C4 C 0.4747(3) 0.8046(3) 0.6303(2)
C5 C 0.3196(3) 0.8050(3) 1.0195(2)
C6 C 0.0270(3) 1.1794(3) 0.8704(2)
C7 C 0.1545(3) 1.1534(3) 0.4663(2)
C8 C 0.4042(3) 1.4085(3) 0.6736(3)
C9 C 0.4969(3) 0.7822(2) 0.9372(2)
N6 N 0.1229(2) 1.1808(2) 0.5620(2)
C10 C 0.1237(3) 0.5469(2) 0.8281(2)
O5 O -0.0262(2) 1.2118(2) 0.39347(14)
O6 O -0.0819(3) 0.4266(2) 0.6864(2)
O7 O 0.6161(3) 1.4948(2) 0.8129(2)
C11 C 0.6169(3) 0.8743(3) 1.0253(2)
C12 C 0.4444(3) 0.8951(3) 1.1060(2)
H1 H 0.4678(3) 0.9742(3) 1.1026(2)
C13 C -0.0506(3) 1.2449(3) 0.4879(2)
C14 C 0.1204(3) 1.2277(3) 0.4049(2)
C15 C 0.0686(4) 0.4585(3) 0.7284(3)
C16 C -0.0473(3) 0.6229(3) 0.7718(2)
C17 C -0.1002(4) 0.5290(3) 0.6749(3)
C18 C 0.4781(4) 1.4924(3) 0.7752(3)
C19 C 0.5279(3) 1.2913(3) 0.7173(3)
C20 C 0.5980(4) 1.3794(3) 0.8170(3)
Cl1 Cl -0.04850(11) 1.07559(9) 0.93321(7)
Cl2 Cl -0.11243(10) 1.20772(9) 0.80712(7)
Cl3 Cl 0.16005(12) 1.31332(9) 0.95861(7)
Cl4 Cl 0.48733(12) 0.87444(10) 0.53754(7)
Cl5 Cl 0.65053(11) 0.8659(2) 0.71506(8)
Cl6 Cl 0.4214(2) 0.65418(9) 0.57807(10)
O8 O 0.5705(2) 0.8720(2) 1.11416(13)
H2 H 0.3067 1.3935 0.6431
H3 H 0.4750 0.6989 0.9362
H4 H 0.4210 1.4547 0.8225
H5 H 0.5251 0.7755 0.8820
H6 H 0.0717 0.3741 0.7252
H7 H -0.0828 0.5947 0.8212
H8 H -0.0457 1.1731 0.6033
H9 H 0.5935 1.3137 0.6705
H10 H 0.5064 1.2140 0.7175
H11 H 0.2393 0.8200 1.0181
H12 H -0.2156 0.4937 0.6540
H13 H -0.0891 1.0927 0.5155
H14 H 0.2539 1.1670 0.4664
H15 H 0.4689 1.4334 0.6358
H16 H -0.0505 0.6975 0.7636
H17 H 0.0120 1.3172 0.5213
H18 H 0.2853 0.7200 1.0269
H19 H 0.1819 1.3027 0.4315
H20 H 0.0638 0.4979 0.8658
H21 H 0.2234 0.5578 0.8473
H22 H 0.5016 1.5776 0.7808
H23 H 0.1295 0.4975 0.6844
H24 H 0.6943 1.3778 0.8370
H25 H -0.0445 0.5573 0.6296
H26 H -0.1471 1.2428 0.4797
H27 H 0.5320 1.3578 0.8648
H28 H 0.1210 1.2026 0.3366
H29 H 0.6454 0.9600 1.0212
H30 H 0.7038 0.8600 1.0331
H31 H 0.4073 0.8822 1.1599
H32 H 0.0858 1.0627 0.4255
O5A O 0.0262(2) 0.7882(2) 0.60653(14)
O8A O 0.4295(2) 1.1280(2) 0.88584(13)
Cu1A Cu -0.22361(3) 1.02815(3) 0.25980(2)
Cu1A_2 Cu 0.77639(3) 1.02815(3) 1.25980(2)
loop_
_geom_bond_atom_site_label_1
_geom_bond_atom_site_label_2
_geom_bond_site_symmetry_1
_geom_bond_site_symmetry_2
Cu1 O1 1_555 1_555
P1 O1 1_555 1_555
P2 O3 1_555 1_555
O2 Cu1 1_555 1_555
O3 Cu1 1_555 1_555
O4 Cu1 1_555 1_555
N1 P2 1_555 1_555
C1 O4 1_555 1_555
C2 N6 1_555 1_555
C3 O2 1_555 1_555
N2 P2 1_555 1_555
N3 P1 1_555 1_555
N4 P2 1_555 1_555
N5 P1 1_555 1_555
C4 C1 1_555 1_555
C5 N2 1_555 1_555
C6 C3 1_555 1_555
C7 N6 1_555 1_555
C8 N5 1_555 1_555
C9 N2 1_555 1_555
N6 P1 1_555 1_555
C10 N4 1_555 1_555
O5 C13 1_555 1_555
O6 C15 1_555 1_555
O7 C18 1_555 1_555
C11 C9 1_555 1_555
C12 C5 1_555 1_555
H1 C12 1_555 1_555
C13 C2 1_555 1_555
C14 C7 1_555 1_555
C15 C10 1_555 1_555
C16 N4 1_555 1_555
C17 O6 1_555 1_555
C18 C8 1_555 1_555
C19 N5 1_555 1_555
C20 O7 1_555 1_555
Cl1 C6 1_555 1_555
Cl2 C6 1_555 1_555
Cl3 C6 1_555 1_555
Cl4 C4 1_555 1_555
Cl5 C4 1_555 1_555
Cl6 C4 1_555 1_555
O8 C11 1_555 1_555
H2 C8 1_555 1_555
H3 C9 1_555 1_555
H4 C18 1_555 1_555
H5 C9 1_555 1_555
H6 C15 1_555 1_555
H7 C16 1_555 1_555
H8 C2 1_555 1_555
H9 C19 1_555 1_555
H10 C19 1_555 1_555
H11 C5 1_555 1_555
H12 C17 1_555 1_555
H13 C2 1_555 1_555
H14 C7 1_555 1_555
H15 C8 1_555 1_555
H16 C16 1_555 1_555
H17 C13 1_555 1_555
H18 C5 1_555 1_555
H19 C14 1_555 1_555
H20 C10 1_555 1_555
H21 C10 1_555 1_555
H22 C18 1_555 1_555
H23 C15 1_555 1_555
H24 C20 1_555 1_555
H25 C17 1_555 1_555
H26 C13 1_555 1_555
H27 C20 1_555 1_555
H28 C14 1_555 1_555
H29 C11 1_555 1_555
H30 C11 1_555 1_555
H31 C12 1_555 1_555
H32 C7 1_555 1_555
O5A Cu1 1_555 1_555
O8A Cu1 1_555 1_555
Cu1A O5 1_555 1_555
Cu1A_2 O8 1_555 1_555
N1 C1 1_555 1_555
C3 N3 1_555 1_555
O5 C14 1_555 1_555
C12 O8 1_555 1_555
C16 C17 1_555 1_555
C19 C20 1_555 1_555

#END
