
#######################################################################
#
#                 Cambridge Crystallographic Data Centre
#                                CCDC 
#
#######################################################################
#
# If this CIF has been generated from an entry in the Cambridge 
# Structural Database, then it will include bibliographic, chemical, 
# crystal, experimental, refinement or atomic coordinate data resulting 
# from the CCDC's data processing and validation procedures.
#
#######################################################################

data_JAGROZ
_symmetry_cell_setting           monoclinic
_symmetry_space_group_name_H-M   'P 21/n'
_symmetry_Int_Tables_number      14
_space_group_name_Hall           '-P 2yn'
loop_
_symmetry_equiv_pos_site_id
_symmetry_equiv_pos_as_xyz
1 x,y,z
2 1/2+x,1/2-y,1/2+z
3 -x,-y,-z
4 1/2-x,1/2+y,1/2-z
_cell_length_a                   10.234(2)
_cell_length_b                   13.690(4)
_cell_length_c                   10.478(2)
_cell_angle_alpha                90
_cell_angle_beta                 119.174(15)
_cell_angle_gamma                90
_cell_volume                     1281.78
loop_
_atom_site_label
_atom_site_type_symbol
_atom_site_fract_x
_atom_site_fract_y
_atom_site_fract_z
Cu1 Cu 0.57901(2) 0.123100(17) 0.04226(2)
Cl1 Cl 0.52049(5) 0.02443(3) 0.18239(5)
Cl2 Cl 0.64953(6) 0.23024(4) -0.07677(6)
N1 N 0.6548(2) 0.27266(17) 0.25635(19)
N2 N 0.65985(18) 0.26969(13) 0.38530(18)
N3 N 0.78670(18) 0.29883(14) 0.49492(18)
N4 N 0.87140(17) 0.32192(12) 0.43586(17)
C1 C 0.7906(2) 0.30564(17) 0.2928(2)
H1 H 0.8251 0.3161 0.2265
C2 C 0.5295(3) 0.2405(2) 0.4009(3)
H2 H 0.4460 0.2833 0.3419
H3 H 0.5005 0.1745 0.3645
C3 C 0.5612(3) 0.2448(3) 0.5542(3)
H4 H 0.5992 0.3083 0.5938
H5 H 0.4707 0.2329 0.5580
H6 H 0.6341 0.1961 0.6106
N5 N 0.9880(2) -0.00382(16) 0.1502(2)
N6 N 1.00320(17) 0.02045(13) 0.27913(18)
N7 N 0.88395(18) 0.06117(15) 0.27274(18)
N8 N 0.78574(16) 0.06495(13) 0.13237(17)
C4 C 0.8505(2) 0.02601(19) 0.0605(2)
H7 H 0.8044 0.0205 -0.0407
C5 C 1.1409(2) 0.0025(2) 0.4187(3)
H8 H 1.1429 -0.0651 0.4474
H9 H 1.1409 0.0436 0.4941
C6 C 1.2771(3) 0.0234(2) 0.4061(3)
H10 H 1.2830 -0.0221 0.3394
H11 H 1.3644 0.0171 0.5005
H12 H 1.2716 0.0887 0.3705
Cu1B Cu 0.42099(2) -0.123100(17) -0.04226(2)
Cl1B Cl 0.47951(5) -0.02443(3) -0.18239(5)
N4A N 0.37140(17) 0.17808(12) -0.06414(17)
Cu1A Cu 1.07901(2) 0.376900(17) 0.54226(2)
loop_
_geom_bond_atom_site_label_1
_geom_bond_atom_site_label_2
_geom_bond_site_symmetry_1
_geom_bond_site_symmetry_2
Cu1 Cl1 1_555 1_555
Cl1 Cu1B 1_555 1_555
Cl2 Cu1 1_555 1_555
N1 Cu1 1_555 1_555
N2 N1 1_555 1_555
N3 N2 1_555 1_555
N4 N3 1_555 1_555
C1 N1 1_555 1_555
H1 C1 1_555 1_555
C2 N2 1_555 1_555
H2 C2 1_555 1_555
H3 C2 1_555 1_555
C3 C2 1_555 1_555
H4 C3 1_555 1_555
H5 C3 1_555 1_555
H6 C3 1_555 1_555
N5 N6 1_555 1_555
N6 N7 1_555 1_555
N7 N8 1_555 1_555
N8 Cu1 1_555 1_555
C4 N5 1_555 1_555
H7 C4 1_555 1_555
C5 N6 1_555 1_555
H8 C5 1_555 1_555
H9 C5 1_555 1_555
C6 C5 1_555 1_555
H10 C6 1_555 1_555
H11 C6 1_555 1_555
H12 C6 1_555 1_555
Cu1B Cl1B 1_555 1_555
Cl1B Cu1 1_555 1_555
N4A Cu1 1_555 1_555
Cu1A N4 1_555 1_555
N4 C1 1_555 1_555
N8 C4 1_555 1_555

#END
