
#######################################################################
#
#                 Cambridge Crystallographic Data Centre
#                                CCDC 
#
#######################################################################
#
# If this CIF has been generated from an entry in the Cambridge 
# Structural Database, then it will include bibliographic, chemical, 
# crystal, experimental, refinement or atomic coordinate data resulting 
# from the CCDC's data processing and validation procedures.
#
#######################################################################

data_JAGTIV
_symmetry_cell_setting           orthorhombic
_symmetry_space_group_name_H-M   'P n n m'
_symmetry_Int_Tables_number      58
_space_group_name_Hall           '-P 2 2n'
loop_
_symmetry_equiv_pos_site_id
_symmetry_equiv_pos_as_xyz
1 x,y,z
2 x,y,-z
3 1/2+x,1/2-y,1/2+z
4 1/2-x,1/2+y,1/2+z
5 -x,-y,-z
6 -x,-y,z
7 1/2-x,1/2+y,1/2-z
8 1/2+x,1/2-y,1/2-z
_cell_length_a                   6.7320(10)
_cell_length_b                   11.500(2)
_cell_length_c                   14.640(3)
_cell_angle_alpha                90
_cell_angle_beta                 90
_cell_angle_gamma                90
_cell_volume                     1133.4
loop_
_atom_site_label
_atom_site_type_symbol
_atom_site_fract_x
_atom_site_fract_y
_atom_site_fract_z
Cu1 Cu 0.17007(5) 0.12557(3) 0.0000
Cl1 Cl 0.23641(11) -0.06800(6) 0.0000
Cl2 Cl 0.21727(15) 0.31926(7) 0.0000
N1 N 0.1765(2) 0.11767(14) 0.28509(13)
N2 N -0.0099(3) 0.15263(16) 0.26511(12)
N3 N -0.0212(3) 0.15912(17) 0.17736(12)
N4 N 0.1551(3) 0.12729(13) 0.13921(12)
C1 C 0.2774(3) 0.10270(16) 0.20719(13)
C2 C 0.2361(4) 0.1012(2) 0.38024(15)
H1 H 0.1268 0.1201 0.4197
H2 H 0.3466 0.1510 0.3939
H3 H 0.2739 0.0216 0.3896
C3 C 0.4892(3) 0.06675(17) 0.20180(14)
H4 H 0.5609 0.0988 0.2535
H5 H 0.5477 0.0980 0.1465
C3E C 0.5108(3) -0.06675(17) 0.20180(14)
C1E C 0.7226(3) -0.10270(16) 0.20719(13)
N1E N 0.8235(2) -0.11767(14) 0.28509(13)
N2E N 1.0099(3) -0.15263(16) 0.26511(12)
N3E N 1.0212(3) -0.15912(17) 0.17736(12)
N4E N 0.8449(3) -0.12729(13) 0.13921(12)
C2E C 0.7639(4) -0.1012(2) 0.38024(15)
H1E H 0.8732 -0.1201 0.4197
H2E H 0.6534 -0.1510 0.3939
H3E H 0.7261 -0.0216 0.3896
H4E H 0.4391 -0.0988 0.2535
H5E H 0.4523 -0.0980 0.1465
Cl1D Cl -0.23641(11) 0.06800(6) 0.0000
N4A N 0.1551(3) 0.12729(13) -0.13921(12)
Cu1D Cu -0.17007(5) -0.12557(3) 0.0000
Cu1D_2 Cu 0.82993(5) -0.12557(3) 0.0000
loop_
_geom_bond_atom_site_label_1
_geom_bond_atom_site_label_2
_geom_bond_site_symmetry_1
_geom_bond_site_symmetry_2
Cu1 Cl1 1_555 1_555
Cl1 Cu1D 1_555 1_555
Cl2 Cu1 1_555 1_555
N1 N2 1_555 1_555
N2 N3 1_555 1_555
N3 N4 1_555 1_555
N4 Cu1 1_555 1_555
C1 N1 1_555 1_555
C2 N1 1_555 1_555
H1 C2 1_555 1_555
H2 C2 1_555 1_555
H3 C2 1_555 1_555
C3 C1 1_555 1_555
H4 C3 1_555 1_555
H5 C3 1_555 1_555
C3E C3 1_555 1_555
C1E C3E 1_555 1_555
N1E C1E 1_555 1_555
N2E N1E 1_555 1_555
N3E N2E 1_555 1_555
N4E C1E 1_555 1_555
C2E N1E 1_555 1_555
H1E C2E 1_555 1_555
H2E C2E 1_555 1_555
H3E C2E 1_555 1_555
H4E C3E 1_555 1_555
H5E C3E 1_555 1_555
Cl1D Cu1 1_555 1_555
N4A Cu1 1_555 1_555
Cu1D Cl1D 1_555 1_555
Cu1D_2 N4E 1_555 1_555
N4 C1 1_555 1_555
N3E N4E 1_555 1_555

#END
