
#######################################################################
#
#                 Cambridge Crystallographic Data Centre
#                                CCDC 
#
#######################################################################
#
# If this CIF has been generated from an entry in the Cambridge 
# Structural Database, then it will include bibliographic, chemical, 
# crystal, experimental, refinement or atomic coordinate data resulting 
# from the CCDC's data processing and validation procedures.
#
#######################################################################

data_JAGXEV
_symmetry_cell_setting           triclinic
_symmetry_space_group_name_H-M   'P -1'
_symmetry_Int_Tables_number      2
_space_group_name_Hall           '-P 1'
loop_
_symmetry_equiv_pos_site_id
_symmetry_equiv_pos_as_xyz
1 x,y,z
2 -x,-y,-z
_cell_length_a                   6.75940(10)
_cell_length_b                   11.2513(3)
_cell_length_c                   12.6048(2)
_cell_angle_alpha                106.467(2)
_cell_angle_beta                 92.9110(10)
_cell_angle_gamma                99.9350(10)
_cell_volume                     900.458
loop_
_atom_site_label
_atom_site_type_symbol
_atom_site_fract_x
_atom_site_fract_y
_atom_site_fract_z
Ba1 Ba 0.369848(18) 0.509100(11) 0.351704(10)
O1 O 0.2337(3) 0.49118(18) 0.55253(16)
O2 O -0.0037(3) 0.32634(19) 0.32702(18)
O3 O 0.0645(3) 0.65064(18) 0.37146(17)
N1 N 0.8127(3) 0.5797(2) 0.15918(19)
C1 C 0.5650(4) 0.2546(3) -0.0094(3)
C2 C 0.7010(4) 0.4606(3) 0.1292(2)
O4 O 0.6292(3) 0.4111(2) 0.19801(18)
N2 N 0.6609(3) 0.3878(2) 0.01561(19)
C3 C 0.6967(4) 0.4394(2) -0.0701(2)
O5 O 0.6357(3) 0.37826(18) -0.16708(16)
C4 C 0.8093(4) 0.5693(3) -0.0372(2)
N3 N 0.8521(3) 0.6148(2) -0.1218(2)
O6 O 0.9579(3) 0.72742(19) -0.10135(18)
C5 C 0.8658(4) 0.6331(3) 0.0807(2)
N4 N 0.9716(4) 0.7505(2) 0.1111(2)
N5 N 0.5886(3) 0.7722(2) 0.43837(19)
C6 C 0.5983(4) 0.7828(2) 0.5479(2)
O7 O 0.5342(3) 0.68965(18) 0.57903(18)
N6 N 0.6781(4) 0.8980(2) 0.6287(2)
C7 C 0.6800(6) 0.9033(3) 0.7461(3)
C8 C 0.7623(4) 1.0050(2) 0.6018(2)
O8 O 0.8411(3) 1.10250(19) 0.67474(19)
C9 C 0.7492(4) 0.9940(2) 0.4835(2)
N7 N 0.8242(3) 1.1009(2) 0.4611(2)
O9 O 0.8216(3) 1.0996(2) 0.35792(19)
C10 C 0.6595(4) 0.8727(2) 0.4049(2)
N8 N 0.6451(4) 0.8600(2) 0.2975(2)
H1 H 0.1435 0.4273 0.5622
H2 H 0.2098 0.5641 0.5973
H3 H -0.0439 0.2630 0.3457
H4 H -0.0234 0.2970 0.2591
H5 H 0.1131 0.7261 0.3983
H6 H -0.0040 0.6377 0.3123
H7 H 0.4183 0.2471 -0.0101
H8 H 0.6153 0.2201 0.0476
H9 H 0.5972 0.2073 -0.0824
H10 H 1.0053 0.7915 0.1820
H11 H 1.0081 0.7873 0.0602
H12 H 0.6780 0.9897 0.7911
H13 H 0.8025 0.8779 0.7697
H14 H 0.5608 0.8458 0.7562
H15 H 0.5898 0.7866 0.2496
H16 H 0.6908 0.9249 0.2737
O1A O 0.7663(3) 0.50882(18) 0.44747(16)
O5A O 0.3643(3) 0.62174(18) 0.16708(16)
N3A N 0.1479(3) 0.3852(2) 0.1218(2)
O7A O 0.4658(3) 0.31035(18) 0.42097(18)
Ba1A Ba 0.630152(18) 0.490900(11) 0.648296(10)
Ba1A_2 Ba 0.630152(18) 0.490900(11) -0.351704(10)
H1A H 0.8565 0.5727 0.4378
H2A H 0.7902 0.4359 0.4027
loop_
_geom_bond_atom_site_label_1
_geom_bond_atom_site_label_2
_geom_bond_site_symmetry_1
_geom_bond_site_symmetry_2
Ba1 O1 1_555 1_555
O1 H1 1_555 1_555
O2 Ba1 1_555 1_555
O3 Ba1 1_555 1_555
N1 C2 1_555 1_555
C1 N2 1_555 1_555
C2 O4 1_555 1_555
O4 Ba1 1_555 1_555
N2 C2 1_555 1_555
C3 N2 1_555 1_555
O5 C3 1_555 1_555
C4 C3 1_555 1_555
N3 C4 1_555 1_555
O6 N3 1_555 1_555
C5 N1 1_555 1_555
N4 C5 1_555 1_555
N5 Ba1 1_555 1_555
C6 N5 1_555 1_555
O7 Ba1 1_555 1_555
N6 C6 1_555 1_555
C7 N6 1_555 1_555
C8 N6 1_555 1_555
O8 C8 1_555 1_555
C9 C8 1_555 1_555
N7 C9 1_555 1_555
O9 N7 1_555 1_555
C10 N5 1_555 1_555
N8 C10 1_555 1_555
H2 O1 1_555 1_555
H3 O2 1_555 1_555
H4 O2 1_555 1_555
H5 O3 1_555 1_555
H6 O3 1_555 1_555
H7 C1 1_555 1_555
H8 C1 1_555 1_555
H9 C1 1_555 1_555
H10 N4 1_555 1_555
H11 N4 1_555 1_555
H12 C7 1_555 1_555
H13 C7 1_555 1_555
H14 C7 1_555 1_555
H15 N8 1_555 1_555
H16 N8 1_555 1_555
O1A Ba1 1_555 1_555
O5A Ba1 1_555 1_555
N3A Ba1 1_555 1_555
O7A Ba1 1_555 1_555
Ba1A O1 1_555 1_555
Ba1A_2 O5 1_555 1_555
H1A O1A 1_555 1_555
H2A O1A 1_555 1_555
C4 C5 1_555 1_555
N3 Ba1A_2 1_555 1_555
C6 O7 1_555 1_555
O7 Ba1A 1_555 1_555
C9 C10 1_555 1_555
O1A Ba1A 1_555 1_555
O7A Ba1A 1_555 1_555

#END
