
#######################################################################
#
#                 Cambridge Crystallographic Data Centre
#                                CCDC 
#
#######################################################################
#
# If this CIF has been generated from an entry in the Cambridge 
# Structural Database, then it will include bibliographic, chemical, 
# crystal, experimental, refinement or atomic coordinate data resulting 
# from the CCDC's data processing and validation procedures.
#
#######################################################################

data_JAHQUF
_symmetry_cell_setting           triclinic
_symmetry_space_group_name_H-M   'P -1'
_symmetry_Int_Tables_number      2
_space_group_name_Hall           '-P 1'
loop_
_symmetry_equiv_pos_site_id
_symmetry_equiv_pos_as_xyz
1 x,y,z
2 -x,-y,-z
_cell_length_a                   9.9254(6)
_cell_length_b                   12.0608(7)
_cell_length_c                   21.0919(13)
_cell_angle_alpha                87.034(5)
_cell_angle_beta                 87.183(5)
_cell_angle_gamma                80.854(5)
_cell_volume                     2487.29
loop_
_atom_site_label
_atom_site_type_symbol
_atom_site_fract_x
_atom_site_fract_y
_atom_site_fract_z
Cu1 Cu 0.59986(6) 0.44065(5) 0.26547(3)
Cu2 Cu 0.12030(6) 0.89957(5) 0.05900(3)
Cu3 Cu 0.13828(6) 0.91425(5) 0.44783(3)
Cl1 Cl 0.46838(14) 0.36096(12) 0.20082(7)
Cl2 Cl 0.58630(16) 0.30813(12) 0.34244(7)
Cl3 Cl 0.10899(13) 0.72395(10) 0.03147(7)
Cl4 Cl -0.10882(12) 0.94763(11) 0.06602(7)
Cl5 Cl -0.09017(12) 0.95784(11) 0.43843(7)
Cl6 Cl 0.12743(12) 0.73511(9) 0.48459(6)
S1 S 0.34892(13) 0.61785(11) 0.35437(7)
N1 N 0.5154(4) 0.8021(3) 0.18946(19)
N2 N 0.3647(4) 0.9400(3) 0.24616(19)
N3 N 0.5225(4) 0.8032(3) 0.30244(19)
N4 N 0.6681(4) 0.6738(3) 0.24564(19)
N5 N 0.6889(4) 0.5111(3) 0.1877(2)
N6 N 0.7266(4) 0.5214(3) 0.3173(2)
N7 N 0.3609(4) 0.9357(3) 0.13708(18)
N8 N 0.1536(4) 1.0380(3) 0.10303(19)
N9 N 0.3221(4) 0.8726(3) 0.03711(19)
N10 N 0.3761(4) 0.9413(3) 0.35532(18)
N11 N 0.3412(4) 0.8855(3) 0.46095(19)
N12 N 0.1732(4) 1.0515(3) 0.39133(19)
O1 O 0.4270(4) 0.5757(3) 0.29486(18)
C1 C 0.5628(4) 0.7640(4) 0.2455(2)
C2 C 0.4166(4) 0.8899(4) 0.1935(2)
C3 C 0.4238(4) 0.8933(4) 0.2986(2)
C4 C 0.7128(5) 0.6182(4) 0.1876(2)
C5 C 0.7800(5) 0.6698(4) 0.1392(2)
H1 H 0.7947 0.7437 0.1415
C6 C 0.8254(5) 0.6080(5) 0.0864(3)
H2 H 0.8697 0.6404 0.0521
C7 C 0.8037(5) 0.4967(4) 0.0856(3)
H3 H 0.8350 0.4533 0.0511
C8 C 0.7362(5) 0.4522(4) 0.1361(3)
H4 H 0.7219 0.3780 0.1350
C9 C 0.7320(4) 0.6293(4) 0.3021(2)
C10 C 0.8016(5) 0.6959(4) 0.3366(2)
H5 H 0.8032 0.7708 0.3243
C11 C 0.8686(5) 0.6473(4) 0.3899(3)
H6 H 0.9151 0.6893 0.4146
C12 C 0.8646(5) 0.5343(5) 0.4054(3)
H7 H 0.9094 0.4994 0.4406
C13 C 0.7941(5) 0.4746(4) 0.3687(2)
H8 H 0.7927 0.3991 0.3795
C14 C 0.2658(5) 1.0384(4) 0.1349(2)
C15 C 0.2957(5) 1.1332(4) 0.1627(2)
H9 H 0.3753 1.1302 0.1847
C16 C 0.2040(5) 1.2320(4) 0.1569(3)
H10 H 0.2196 1.2965 0.1758
C17 C 0.0891(5) 1.2333(4) 0.1225(3)
H11 H 0.0272 1.2993 0.1174
C18 C 0.0664(5) 1.1370(4) 0.0961(2)
H12 H -0.0109 1.1391 0.0726
C19 C 0.4151(5) 0.8940(4) 0.0770(2)
C20 C 0.5538(5) 0.8799(4) 0.0612(2)
H13 H 0.6154 0.8982 0.0893
C21 C 0.5981(5) 0.8382(4) 0.0029(2)
H14 H 0.6905 0.8281 -0.0090
C22 C 0.5043(5) 0.8116(4) -0.0378(3)
H15 H 0.5327 0.7795 -0.0763
C23 C 0.3678(5) 0.8336(4) -0.0199(2)
H16 H 0.3042 0.8209 -0.0486
C24 C 0.4319(5) 0.9026(4) 0.4143(2)
C25 C 0.5725(5) 0.8875(4) 0.4232(2)
H17 H 0.6334 0.9028 0.3902
C26 C 0.6181(5) 0.8493(4) 0.4820(2)
H18 H 0.7111 0.8366 0.4891
C27 C 0.5250(5) 0.8299(4) 0.5308(2)
H19 H 0.5547 0.8035 0.5707
C28 C 0.3868(5) 0.8503(4) 0.5191(2)
H20 H 0.3239 0.8397 0.5521
C29 C 0.2871(4) 1.0479(4) 0.3545(2)
C30 C 0.3262(5) 1.1400(4) 0.3207(2)
H21 H 0.4089 1.1341 0.2974
C31 C 0.2381(5) 1.2412(4) 0.3226(2)
H22 H 0.2587 1.3046 0.2995
C32 C 0.1189(5) 1.2456(4) 0.3597(3)
H23 H 0.0583 1.3127 0.3615
C33 C 0.0891(5) 1.1516(4) 0.3939(3)
H24 H 0.0094 1.1569 0.4195
C34 C 0.2491(6) 0.5116(5) 0.3799(3)
H25 H 0.1855 0.5046 0.3480
H26 H 0.2000 0.5320 0.4190
H27 H 0.3082 0.4412 0.3864
C35 C 0.4632(5) 0.5947(5) 0.4181(3)
H28 H 0.5045 0.5171 0.4205
H29 H 0.4136 0.6134 0.4574
H30 H 0.5330 0.6411 0.4108
Cl4A Cl 0.10882(12) 1.05237(11) -0.06602(7)
Cl5A Cl 0.09017(12) 1.04216(11) 0.56157(7)
Cu2A Cu -0.12030(6) 1.10043(5) -0.05900(3)
Cu3A Cu -0.13828(6) 1.08575(5) 0.55217(3)
Cl7 Cl 0.1317(2) 0.73268(15) 0.21992(12)
Cl8 Cl 0.06075(17) 0.50580(13) 0.22481(9)
C40 C 0.1748(7) 0.5955(5) 0.1928(4)
H43 H 0.2669 0.5649 0.2047
H44 H 0.1731 0.5983 0.1468
S2 S 0.8039(6) 1.0625(5) 0.2868(3)
O2 O 0.7045(7) 0.9791(5) 0.2835(4)
C36 C 0.9876(9) 1.0260(9) 0.2554(4)
H31 H 1.0354 0.9677 0.2824
H32 H 1.0315 1.0915 0.2550
H33 H 0.9888 1.0003 0.2130
C37 C 0.7691(10) 1.1412(8) 0.2135(4)
H34 H 0.7745 1.0905 0.1795
H35 H 0.8350 1.1910 0.2053
H36 H 0.6791 1.1842 0.2164
Cl9 Cl 0.2688(5) 0.4382(4) 0.0623(2)
Cl11 Cl 0.4538(8) 0.6162(6) 0.0920(4)
C41 C 0.4072(14) 0.5086(11) 0.0513(8)
S3? S 0.7887(10) 1.0596(9) 0.2804(5)
O3? O 0.7089(11) 0.9983(8) 0.2398(6)
C38? C 0.9586(11) 0.9831(10) 0.2606(5)
H37? H 0.9809 0.9223 0.2914
H38? H 1.0247 1.0331 0.2610
H39? H 0.9593 0.9537 0.2191
C39? C 0.840(5) 1.178(3) 0.239(2)
H40? H 0.9361 1.1614 0.2271
H41? H 0.8240 1.2411 0.2652
H42? H 0.7893 1.1945 0.2009
Cl10? Cl 0.5162(5) 0.4894(4) -0.0162(2)
H45? H 0.4625 0.4899 0.0880
H46? H 0.3718 0.5884 0.0522
H47? H 0.3127 0.5277 0.0394
H48? H 0.4154 0.4401 0.0783
loop_
_geom_bond_atom_site_label_1
_geom_bond_atom_site_label_2
_geom_bond_site_symmetry_1
_geom_bond_site_symmetry_2
Cu1 Cl1 1_555 1_555
Cu2 Cl3 1_555 1_555
Cu3 Cl5 1_555 1_555
Cl2 Cu1 1_555 1_555
Cl4 Cu2 1_555 1_555
Cl5 Cu3A 1_555 1_555
Cl6 Cu3 1_555 1_555
Cl7 C40 1_555 1_555
Cl8 C40 1_555 1_555
S1 O1 1_555 1_555
N1 C1 1_555 1_555
N2 C2 1_555 1_555
N3 C1 1_555 1_555
N4 C1 1_555 1_555
N5 Cu1 1_555 1_555
N6 Cu1 1_555 1_555
N7 C2 1_555 1_555
N8 Cu2 1_555 1_555
N9 Cu2 1_555 1_555
N10 C3 1_555 1_555
N11 Cu3 1_555 1_555
N12 Cu3 1_555 1_555
O1 Cu1 1_555 1_555
C2 N1 1_555 1_555
C3 N2 1_555 1_555
C4 N4 1_555 1_555
C5 C4 1_555 1_555
H1 C5 1_555 1_555
C6 C5 1_555 1_555
H2 C6 1_555 1_555
C7 C6 1_555 1_555
H3 C7 1_555 1_555
C8 N5 1_555 1_555
H4 C8 1_555 1_555
C9 N4 1_555 1_555
C10 C9 1_555 1_555
H5 C10 1_555 1_555
C11 C10 1_555 1_555
H6 C11 1_555 1_555
C12 C11 1_555 1_555
H7 C12 1_555 1_555
C13 N6 1_555 1_555
H8 C13 1_555 1_555
C14 N7 1_555 1_555
C15 C14 1_555 1_555
H9 C15 1_555 1_555
C16 C15 1_555 1_555
H10 C16 1_555 1_555
C17 C16 1_555 1_555
H11 C17 1_555 1_555
C18 N8 1_555 1_555
H12 C18 1_555 1_555
C19 N7 1_555 1_555
C20 C19 1_555 1_555
H13 C20 1_555 1_555
C21 C20 1_555 1_555
H14 C21 1_555 1_555
C22 C21 1_555 1_555
H15 C22 1_555 1_555
C23 N9 1_555 1_555
H16 C23 1_555 1_555
C24 N10 1_555 1_555
C25 C24 1_555 1_555
H17 C25 1_555 1_555
C26 C25 1_555 1_555
H18 C26 1_555 1_555
C27 C26 1_555 1_555
H19 C27 1_555 1_555
C28 N11 1_555 1_555
H20 C28 1_555 1_555
C29 N10 1_555 1_555
C30 C29 1_555 1_555
H21 C30 1_555 1_555
C31 C30 1_555 1_555
H22 C31 1_555 1_555
C32 C31 1_555 1_555
H23 C32 1_555 1_555
C33 N12 1_555 1_555
H24 C33 1_555 1_555
C34 S1 1_555 1_555
H25 C34 1_555 1_555
H26 C34 1_555 1_555
H27 C34 1_555 1_555
C35 S1 1_555 1_555
H28 C35 1_555 1_555
H29 C35 1_555 1_555
H30 C35 1_555 1_555
S2 O2 1_555 1_555
C36 S2 1_555 1_555
H31 C36 1_555 1_555
H32 C36 1_555 1_555
H33 C36 1_555 1_555
C37 S2 1_555 1_555
H34 C37 1_555 1_555
H35 C37 1_555 1_555
H36 C37 1_555 1_555
C40 H43 1_555 1_555
H44 C40 1_555 1_555
Cl9 C41 1_555 1_555
Cl11 C41 1_555 1_555
Cl4A Cu2 1_555 1_555
Cl5A Cu3 1_555 1_555
Cu2A Cl4 1_555 1_555
Cu3A Cl5A 1_555 1_555
N3 C3 1_555 1_555
N5 C4 1_555 1_555
N6 C9 1_555 1_555
N8 C14 1_555 1_555
N9 C19 1_555 1_555
N11 C24 1_555 1_555
N12 C29 1_555 1_555
C7 C8 1_555 1_555
C12 C13 1_555 1_555
C17 C18 1_555 1_555
C22 C23 1_555 1_555
C27 C28 1_555 1_555
C32 C33 1_555 1_555
Cl4A Cu2A 1_555 1_555

#END
