
#######################################################################
#
#                 Cambridge Crystallographic Data Centre
#                                CCDC 
#
#######################################################################
#
# If this CIF has been generated from an entry in the Cambridge 
# Structural Database, then it will include bibliographic, chemical, 
# crystal, experimental, refinement or atomic coordinate data resulting 
# from the CCDC's data processing and validation procedures.
#
#######################################################################

data_JAJCIH
_symmetry_cell_setting           monoclinic
_symmetry_space_group_name_H-M   'P 21/c'
_symmetry_Int_Tables_number      14
_space_group_name_Hall           '-P 2ybc'
loop_
_symmetry_equiv_pos_site_id
_symmetry_equiv_pos_as_xyz
1 x,y,z
2 x,1/2-y,1/2+z
3 -x,-y,-z
4 -x,1/2+y,1/2-z
_cell_length_a                   10.8313(10)
_cell_length_b                   6.6560(10)
_cell_length_c                   14.322(2)
_cell_angle_alpha                90
_cell_angle_beta                 96.282(5)
_cell_angle_gamma                90
_cell_volume                     1026.32
loop_
_atom_site_label
_atom_site_type_symbol
_atom_site_fract_x
_atom_site_fract_y
_atom_site_fract_z
Cu1 Cu 0.15460(2) 0.66693(3) 0.25798(1)
Cl1 Cl 0.02412(4) 0.41378(6) 0.20135(3)
Cl2 Cl 0.20301(4) 0.72896(7) 0.11075(3)
N1 N 0.39685(14) 0.6622(2) 0.40802(11)
N2 N 0.19119(13) 0.5355(2) 0.38626(10)
N3 N 0.34900(14) 0.3920(2) 0.49543(10)
N4 N 0.27648(14) 0.8813(2) 0.30583(11)
N5 N 0.48002(14) 0.9660(2) 0.37553(11)
C1 C 0.30741(16) 0.5284(3) 0.43041(12)
C2 C 0.26562(18) 0.2616(3) 0.52222(13)
C3 C 0.14084(18) 0.2707(3) 0.48801(13)
C4 C 0.10764(16) 0.4099(3) 0.41887(12)
C5 C 0.38155(16) 0.8428(3) 0.36168(12)
C6 C 0.46904(17) 1.1435(3) 0.33255(14)
C7 C 0.36133(17) 1.2021(3) 0.27696(13)
C8 C 0.26652(17) 1.0642(3) 0.26510(13)
H1 H 0.468(2) 0.646(3) 0.4388(16)
H2 H 0.29280 0.15950 0.56610
H3 H 0.08120 0.18480 0.51130
H4 H 0.02310 0.41820 0.39320
H5 H 0.53730 1.23390 0.34010
H6 H 0.35380 1.33120 0.24860
H7 H 0.19200 1.09860 0.22720
Cl1C Cl -0.02412(4) 0.91378(6) 0.29865(3)
Cu1C Cu -0.15460(2) 0.16693(3) 0.24202(1)
loop_
_geom_bond_atom_site_label_1
_geom_bond_atom_site_label_2
_geom_bond_site_symmetry_1
_geom_bond_site_symmetry_2
Cu1 Cl1 1_555 1_555
Cl1 Cu1C 1_555 1_555
Cl2 Cu1 1_555 1_555
N1 C1 1_555 1_555
N2 Cu1 1_555 1_555
N3 C1 1_555 1_555
N4 Cu1 1_555 1_555
N5 C5 1_555 1_555
C1 N2 1_555 1_555
C2 N3 1_555 1_555
C3 C2 1_555 1_555
C4 N2 1_555 1_555
C5 N1 1_555 1_555
C6 N5 1_555 1_555
C7 C6 1_555 1_555
C8 N4 1_555 1_555
H1 N1 1_555 1_555
H2 C2 1_555 1_555
H3 C3 1_555 1_555
H4 C4 1_555 1_555
H5 C6 1_555 1_555
H6 C7 1_555 1_555
H7 C8 1_555 1_555
Cl1C Cu1 1_555 1_555
N4 C5 1_555 1_555
C3 C4 1_555 1_555
C7 C8 1_555 1_555

#END
