
#######################################################################
#
#                 Cambridge Crystallographic Data Centre
#                                CCDC 
#
#######################################################################
#
# If this CIF has been generated from an entry in the Cambridge 
# Structural Database, then it will include bibliographic, chemical, 
# crystal, experimental, refinement or atomic coordinate data resulting 
# from the CCDC's data processing and validation procedures.
#
#######################################################################

data_JAKNUF
_symmetry_cell_setting           triclinic
_symmetry_space_group_name_H-M   'P -1'
_symmetry_Int_Tables_number      2
_space_group_name_Hall           '-P 1'
loop_
_symmetry_equiv_pos_site_id
_symmetry_equiv_pos_as_xyz
1 x,y,z
2 -x,-y,-z
_cell_length_a                   8.5094(17)
_cell_length_b                   9.3206(19)
_cell_length_c                   10.392(2)
_cell_angle_alpha                92.274(4)
_cell_angle_beta                 93.803(4)
_cell_angle_gamma                112.850(4)
_cell_volume                     755.943
loop_
_atom_site_label
_atom_site_type_symbol
_atom_site_fract_x
_atom_site_fract_y
_atom_site_fract_z
Cu1 Cu 0.26905(9) 0.28202(8) 0.19226(7)
Cu2 Cu 0.0000 0.0000 0.0000
C1 C 0.3125(7) -0.0055(7) 0.1147(6)
C2 C 0.4668(7) 0.0596(7) 0.2157(5)
H1 H 0.4782 -0.0283 0.2602
H2 H 0.5716 0.1101 0.1709
C3 C 0.6311(7) 0.4075(7) 0.2057(6)
C4 C 0.6071(8) 0.3170(7) 0.3271(6)
H3 H 0.7093 0.2932 0.3477
H4 H 0.5976 0.3831 0.4007
C5 C 0.3652(7) 0.1120(7) 0.4201(5)
C6 C 0.2452(7) -0.0424(7) 0.4135(6)
H5 H 0.2314 -0.1094 0.3386
C7 C 0.1468(7) -0.0978(7) 0.5149(5)
H6 H 0.0640 -0.2021 0.5080
C8 C 0.1667(7) -0.0043(7) 0.6266(5)
C9 C 0.2846(7) 0.1481(7) 0.6331(6)
H7 H 0.2988 0.2141 0.7088
C10 C 0.3816(8) 0.2062(7) 0.5323(6)
H8 H 0.4609 0.3119 0.5390
C11 C 0.0622(7) -0.0632(7) 0.7360(6)
N1 N 0.4560(6) 0.1723(6) 0.3123(5)
O1 O 0.2242(5) 0.0792(5) 0.0991(4)
O2 O 0.2778(6) -0.1308(5) 0.0530(4)
O3 O 0.4976(5) 0.3823(5) 0.1292(4)
O4 O 0.7781(5) 0.5000(5) 0.1880(4)
O5 O 0.3194(5) 0.4822(5) 0.2880(4)
O6 O 0.1007(5) 0.3033(5) 0.0108(4)
O7 O -0.0602(5) -0.1968(5) 0.7202(4)
O8 O 0.1047(5) 0.0238(5) 0.8400(4)
C1A C -0.3125(7) 0.0055(7) -0.1147(6)
C2A C -0.4668(7) -0.0596(7) -0.2157(5)
H1A H -0.4782 0.0283 -0.2602
H2A H -0.5716 -0.1101 -0.1709
C3A C -0.6311(7) -0.4075(7) -0.2057(6)
C4A C -0.6071(8) -0.3170(7) -0.3271(6)
H3A H -0.7093 -0.2932 -0.3477
H4A H -0.5976 -0.3831 -0.4007
C5A C -0.3652(7) -0.1120(7) -0.4201(5)
C6A C -0.2452(7) 0.0424(7) -0.4135(6)
H5A H -0.2314 0.1094 -0.3386
C7A C -0.1468(7) 0.0978(7) -0.5149(5)
H6A H -0.0640 0.2021 -0.5080
C8A C -0.1667(7) 0.0043(7) -0.6266(5)
C9A C -0.2846(7) -0.1481(7) -0.6331(6)
H7A H -0.2988 -0.2141 -0.7088
C10A C -0.3816(8) -0.2062(7) -0.5323(6)
H8A H -0.4609 -0.3119 -0.5390
C11A C -0.0622(7) 0.0632(7) -0.7360(6)
N1A N -0.4560(6) -0.1723(6) -0.3123(5)
O1A O -0.2242(5) -0.0792(5) -0.0991(4)
O2A O -0.2778(6) 0.1308(5) -0.0530(4)
O3A O -0.4976(5) -0.3823(5) -0.1292(4)
O4A O -0.7781(5) -0.5000(5) -0.1880(4)
O7A O 0.0602(5) 0.1968(5) -0.7202(4)
O8A O -0.1047(5) -0.0238(5) -0.8400(4)
Cu1A Cu -0.26905(9) -0.28202(8) -0.19226(7)
O5A O -0.3194(5) -0.4822(5) -0.2880(4)
O6A O -0.1007(5) -0.3033(5) -0.0108(4)
O7A_2 O 0.0602(5) 0.1968(5) 0.2798(4)
O8_2 O 0.1047(5) 0.0238(5) -0.1600(4)
O8A_2 O -0.1047(5) -0.0238(5) 0.1600(4)
Cu1A_2 Cu -0.26905(9) -0.28202(8) 0.80774(7)
Cu2_2 Cu 0.0000 0.0000 1.0000
Cu1_2 Cu 0.26905(9) 0.28202(8) -0.80774(7)
Cu2_3 Cu 0.0000 0.0000 -1.0000
O7_2 O -0.0602(5) -0.1968(5) -0.2798(4)
O9 O 0.0406(6) 0.5138(6) 0.3668(5)
O10 O 0.4476(6) 0.6860(5) 0.1216(4)
loop_
_geom_bond_atom_site_label_1
_geom_bond_atom_site_label_2
_geom_bond_site_symmetry_1
_geom_bond_site_symmetry_2
Cu1 O1 1_555 1_555
Cu2 O1 1_555 1_555
C1 C2 1_555 1_555
C2 H1 1_555 1_555
H2 C2 1_555 1_555
C3 C4 1_555 1_555
C4 H3 1_555 1_555
H4 C4 1_555 1_555
C5 C6 1_555 1_555
C6 H5 1_555 1_555
C7 C6 1_555 1_555
H6 C7 1_555 1_555
C8 C7 1_555 1_555
C9 C8 1_555 1_555
H7 C9 1_555 1_555
C10 C5 1_555 1_555
H8 C10 1_555 1_555
C11 C8 1_555 1_555
N1 C2 1_555 1_555
O1 C1 1_555 1_555
O2 C1 1_555 1_555
O3 Cu1 1_555 1_555
O4 C3 1_555 1_555
O5 Cu1 1_555 1_555
O6 Cu1 1_555 1_555
O7 C11 1_555 1_555
O8 C11 1_555 1_555
C1A C2A 1_555 1_555
C2A H1A 1_555 1_555
H2A C2A 1_555 1_555
C3A C4A 1_555 1_555
C4A H3A 1_555 1_555
H4A C4A 1_555 1_555
C5A C6A 1_555 1_555
C6A H5A 1_555 1_555
C7A C6A 1_555 1_555
H6A C7A 1_555 1_555
C8A C7A 1_555 1_555
C9A C8A 1_555 1_555
H7A C9A 1_555 1_555
C10A C5A 1_555 1_555
H8A C10A 1_555 1_555
C11A C8A 1_555 1_555
N1A C2A 1_555 1_555
O1A Cu2 1_555 1_555
O2A C1A 1_555 1_555
O3A C3A 1_555 1_555
O4A C3A 1_555 1_555
O7A C11A 1_555 1_555
O8A C11A 1_555 1_555
Cu1A O1A 1_555 1_555
O5A Cu1A 1_555 1_555
O6A Cu1A 1_555 1_555
O7A_2 Cu1 1_555 1_555
O8_2 Cu2 1_555 1_555
O8A_2 Cu2 1_555 1_555
Cu1A_2 O7 1_555 1_555
Cu2_2 O8 1_555 1_555
Cu1_2 O7A 1_555 1_555
Cu2_3 O8A 1_555 1_555
O7_2 Cu1A 1_555 1_555
C3 O3 1_555 1_555
C4 N1 1_555 1_555
C5 N1 1_555 1_555
C9 C10 1_555 1_555
C1A O1A 1_555 1_555
C4A N1A 1_555 1_555
C5A N1A 1_555 1_555
C9A C10A 1_555 1_555
O3A Cu1A 1_555 1_555

#END
