
#######################################################################
#
#                 Cambridge Crystallographic Data Centre
#                                CCDC 
#
#######################################################################
#
# If this CIF has been generated from an entry in the Cambridge 
# Structural Database, then it will include bibliographic, chemical, 
# crystal, experimental, refinement or atomic coordinate data resulting 
# from the CCDC's data processing and validation procedures.
#
#######################################################################

data_JAKPAN
_symmetry_cell_setting           monoclinic
_symmetry_space_group_name_H-M   'P 21/c'
_symmetry_Int_Tables_number      14
_space_group_name_Hall           '-P 2ybc'
loop_
_symmetry_equiv_pos_site_id
_symmetry_equiv_pos_as_xyz
1 x,y,z
2 x,1/2-y,1/2+z
3 -x,-y,-z
4 -x,1/2+y,1/2-z
_cell_length_a                   13.900(3)
_cell_length_b                   9.513(2)
_cell_length_c                   9.375(2)
_cell_angle_alpha                90.00
_cell_angle_beta                 101.136(5)
_cell_angle_gamma                90.00
_cell_volume                     1216.32
loop_
_atom_site_label
_atom_site_type_symbol
_atom_site_fract_x
_atom_site_fract_y
_atom_site_fract_z
Zn1 Zn 0.42525(7) 0.32430(10) 0.19878(10)
O1 O 0.3399(4) 0.1825(6) 0.2613(6)
O2 O 0.4125(4) 0.2252(6) 0.4905(6)
O3 O 0.4730(4) -0.0217(6) 0.7319(6)
O4 O 0.4392(4) -0.2505(6) 0.7293(6)
O5 O -0.1587(4) 0.2188(7) 0.6326(6)
O6 O -0.1176(4) 0.3812(7) 0.4859(6)
N1 N 0.2852(5) 0.0376(7) 0.5924(7)
C1 C 0.4136(6) -0.1249(9) 0.7134(9)
C2 C 0.3054(6) -0.0938(10) 0.6745(9)
H1 H 0.2791 -0.0873 0.7628
H2 H 0.2724 -0.1707 0.6169
C3 C 0.3556(6) 0.1548(9) 0.3979(9)
C4 C 0.3042(6) 0.0250(9) 0.4414(8)
H3 H 0.3445 -0.0571 0.4351
H4 H 0.2424 0.0122 0.3741
C5 C 0.1889(5) 0.0975(9) 0.5923(9)
C6 C 0.1604(6) 0.2210(10) 0.5149(9)
H5 H 0.2037 0.2653 0.4652
C7 C 0.0700(6) 0.2770(10) 0.5114(9)
H6 H 0.0528 0.3601 0.4606
C8 C 0.0030(6) 0.2128(9) 0.5819(8)
C9 C 0.0303(6) 0.0913(10) 0.6572(9)
H7 H -0.0141 0.0477 0.7053
C10 C 0.1208(6) 0.0318(10) 0.6641(8)
H8 H 0.1372 -0.0511 0.7157
C11 C -0.0987(6) 0.2678(10) 0.5720(9)
O2A O 0.4125(4) 0.2748(6) -0.0095(6)
O3A O 0.4730(4) 0.5217(6) 0.2319(6)
O4B O 0.5608(4) 0.2505(6) 0.2707(6)
N1A N 0.2852(5) 0.4624(7) 0.0924(7)
Zn1A Zn 0.42525(7) 0.17570(10) 0.69878(10)
Zn1B Zn 0.57475(7) -0.32430(10) 0.80122(10)
O7 O 0.6934(4) 0.0429(7) 0.9419(6)
loop_
_geom_bond_atom_site_label_1
_geom_bond_atom_site_label_2
_geom_bond_site_symmetry_1
_geom_bond_site_symmetry_2
Zn1 O1 1_555 1_555
O1 C3 1_555 1_555
O2 C3 1_555 1_555
O3 C1 1_555 1_555
O4 C1 1_555 1_555
O5 C11 1_555 1_555
O6 C11 1_555 1_555
N1 C2 1_555 1_555
C1 C2 1_555 1_555
C2 H1 1_555 1_555
H2 C2 1_555 1_555
C3 C4 1_555 1_555
C4 N1 1_555 1_555
H3 C4 1_555 1_555
H4 C4 1_555 1_555
C5 N1 1_555 1_555
C6 C5 1_555 1_555
H5 C6 1_555 1_555
C7 C6 1_555 1_555
H6 C7 1_555 1_555
C8 C7 1_555 1_555
C9 C8 1_555 1_555
H7 C9 1_555 1_555
C10 C5 1_555 1_555
H8 C10 1_555 1_555
C11 C8 1_555 1_555
O2A Zn1 1_555 1_555
O3A Zn1 1_555 1_555
O4B Zn1 1_555 1_555
N1A Zn1 1_555 1_555
Zn1A O2 1_555 1_555
Zn1B O4 1_555 1_555
O3 Zn1A 1_555 1_555
N1 Zn1A 1_555 1_555
C9 C10 1_555 1_555

#END
