
#######################################################################
#
#                 Cambridge Crystallographic Data Centre
#                                CCDC 
#
#######################################################################
#
# If this CIF has been generated from an entry in the Cambridge 
# Structural Database, then it will include bibliographic, chemical, 
# crystal, experimental, refinement or atomic coordinate data resulting 
# from the CCDC's data processing and validation procedures.
#
#######################################################################

data_JAKROD
_symmetry_cell_setting           orthorhombic
_symmetry_space_group_name_H-M   'P 21 21 21'
_symmetry_Int_Tables_number      19
_space_group_name_Hall           'P 2ac 2ab'
loop_
_symmetry_equiv_pos_site_id
_symmetry_equiv_pos_as_xyz
1 x,y,z
2 1/2-x,-y,1/2+z
3 1/2+x,1/2-y,-z
4 -x,1/2+y,1/2-z
_cell_length_a                   11.84(3)
_cell_length_b                   7.874(7)
_cell_length_c                   17.51(4)
_cell_angle_alpha                90
_cell_angle_beta                 90
_cell_angle_gamma                90
_cell_volume                     1632.43
loop_
_atom_site_label
_atom_site_type_symbol
_atom_site_fract_x
_atom_site_fract_y
_atom_site_fract_z
Cu1 Cu -0.11566(7) 0.05857(12) -0.14497(5)
Cu2 Cu 0.05533(7) -0.17060(11) -0.26079(5)
Cu3 Cu -0.15914(8) 0.05373(12) -0.33126(5)
S1 S -0.26270(15) 0.0782(2) -0.22437(10)
S2 S -0.01702(14) -0.1850(2) -0.14204(10)
S3 S 0.07535(14) 0.3053(2) -0.14697(10)
N1 N -0.2148(5) 0.4117(7) -0.2260(3)
N2 N -0.4107(5) 0.3321(7) -0.2214(3)
N3 N 0.0852(5) -0.0498(8) -0.0193(3)
N4 N 0.1839(5) -0.2678(8) -0.0874(3)
N5 N -0.0940(5) 0.2193(7) -0.0559(3)
N6 N 0.0510(6) 0.3897(8) 0.0013(3)
C1 C -0.2991(6) 0.2940(8) -0.2242(4)
C2 C -0.4371(7) 0.4991(9) -0.2199(4)
H1 H -0.5145 0.5307 -0.2183
C3 C -0.3566(6) 0.6258(9) -0.2205(4)
H2 H -0.3769 0.7424 -0.2185
C4 C -0.2462(6) 0.5755(8) -0.2239(4)
H3 H -0.1891 0.6602 -0.2249
C5 C 0.0953(6) -0.1635(9) -0.0763(4)
C6 C 0.1747(7) -0.0391(11) 0.0263(4)
H4 H 0.1721 0.0405 0.0671
C7 C 0.2711(7) -0.1357(10) 0.0184(4)
H5 H 0.3340 -0.1228 0.0515
C8 C 0.2709(7) -0.2512(10) -0.0398(4)
H6 H 0.3351 -0.3221 -0.0466
C9 C 0.0035(6) 0.3086(9) -0.0585(4)
C10 C -0.0050(7) 0.3763(10) 0.0676(4)
H7 H 0.0266 0.4281 0.1117
C11 C -0.1070(7) 0.2906(10) 0.0751(4)
H8 H -0.1461 0.2858 0.1224
C12 C -0.1482(6) 0.2136(10) 0.0112(4)
H9 H -0.2177 0.1539 0.0143
Cu2C Cu -0.05533(7) 0.32940(11) -0.23921(5)
Cu1C Cu 0.11566(7) -0.44143(12) -0.35503(5)
Cu3C Cu 0.15914(8) -0.44627(12) -0.16874(5)
S3C S -0.07535(14) -0.1947(2) -0.35303(10)
Cu3C_2 Cu 0.15914(8) 0.55373(12) -0.16874(5)
N1C N 0.2148(5) -0.0883(7) -0.2740(3)
N4C N -0.1839(5) 0.2322(8) -0.4126(3)
loop_
_geom_bond_atom_site_label_1
_geom_bond_atom_site_label_2
_geom_bond_site_symmetry_1
_geom_bond_site_symmetry_2
Cu1 S1 1_555 1_555
Cu2 S2 1_555 1_555
Cu3 S1 1_555 1_555
S1 C1 1_555 1_555
S2 Cu1 1_555 1_555
S3 C9 1_555 1_555
N1 C1 1_555 1_555
N2 C1 1_555 1_555
N3 C5 1_555 1_555
N4 C5 1_555 1_555
N5 Cu1 1_555 1_555
N6 C9 1_555 1_555
C2 N2 1_555 1_555
H1 C2 1_555 1_555
C3 C2 1_555 1_555
H2 C3 1_555 1_555
C4 N1 1_555 1_555
H3 C4 1_555 1_555
C5 S2 1_555 1_555
C6 N3 1_555 1_555
H4 C6 1_555 1_555
C7 C6 1_555 1_555
H5 C7 1_555 1_555
C8 N4 1_555 1_555
H6 C8 1_555 1_555
C9 N5 1_555 1_555
C10 N6 1_555 1_555
H7 C10 1_555 1_555
C11 C10 1_555 1_555
H8 C11 1_555 1_555
C12 N5 1_555 1_555
H9 C12 1_555 1_555
Cu2C Cu1 1_555 1_555
Cu1C Cu2 1_555 1_555
Cu3C Cu2 1_555 1_555
S3C Cu2 1_555 1_555
Cu3C_2 S3 1_555 1_555
N1C Cu2 1_555 1_555
N4C Cu3 1_555 1_555
Cu3 Cu2C 1_555 1_555
Cu3 S3C 1_555 1_555
S3 Cu2C 1_555 1_555
N1 Cu2C 1_555 1_555
N4 Cu3C 1_555 1_555
C3 C4 1_555 1_555
C7 C8 1_555 1_555
C11 C12 1_555 1_555

#END
