
#######################################################################
#
#                 Cambridge Crystallographic Data Centre
#                                CCDC 
#
#######################################################################
#
# If this CIF has been generated from an entry in the Cambridge 
# Structural Database, then it will include bibliographic, chemical, 
# crystal, experimental, refinement or atomic coordinate data resulting 
# from the CCDC's data processing and validation procedures.
#
#######################################################################

data_JAKRIX
_symmetry_cell_setting           monoclinic
_symmetry_space_group_name_H-M   'C 2/c'
_symmetry_Int_Tables_number      15
_space_group_name_Hall           '-C 2yn'
loop_
_symmetry_equiv_pos_site_id
_symmetry_equiv_pos_as_xyz
1 x,y,z
2 1/2+x,1/2+y,z
3 x,-y,1/2+z
4 1/2+x,1/2-y,1/2+z
5 -x,-y,-z
6 1/2-x,1/2-y,-z
7 -x,y,1/2-z
8 1/2-x,1/2+y,1/2-z
_cell_length_a                   35.6979(5)
_cell_length_b                   12.2579(4)
_cell_length_c                   24.1180(5)
_cell_angle_alpha                90
_cell_angle_beta                 131.306(2)
_cell_angle_gamma                90
_cell_volume                     7927.8
loop_
_atom_site_label
_atom_site_type_symbol
_atom_site_fract_x
_atom_site_fract_y
_atom_site_fract_z
K1 K 0.0000 0.19942(11) -0.2500
K2 K 0.0000 0.5000 0.0000
P1 P -0.07764(4) 0.36030(10) -0.14708(6)
O1 O -0.0476(2) 0.0162(4) -0.2548(5)
N1 N -0.01448(11) 0.3448(2) -0.17366(17)
C1 C -0.06080(14) 0.3364(3) -0.2004(2)
C2 C 0.09678(14) 0.3044(3) -0.2196(2)
C3 C 0.09356(14) 0.3536(3) -0.1706(2)
H1 H 0.0691 0.4071 -0.1882
C4 C 0.12575(16) 0.3251(4) -0.0965(3)
H2 H 0.1231 0.3604 -0.0647
C5 C 0.16161(16) 0.2459(4) -0.0689(3)
C6 C 0.19683(18) 0.2130(5) 0.0121(3)
H3 H 0.1889 0.2544 0.0375
H4 H 0.1931 0.1357 0.0160
H5 H 0.2310 0.2278 0.0345
C7 C 0.16531(16) 0.1973(4) -0.1167(3)
H6 H 0.1897 0.1435 -0.0989
C8 C 0.13357(16) 0.2267(3) -0.1910(3)
H7 H 0.1372 0.1931 -0.2223
C9 C -0.02385(13) 0.3802(3) -0.4005(2)
C10 C -0.04762(16) 0.3046(4) -0.4597(3)
C11 C -0.03146(18) 0.1875(4) -0.4463(3)
H8 H 0.0006 0.1812 -0.3949
C12 C -0.0233(2) 0.1478(5) -0.4978(3)
H9 H 0.0033 0.1898 -0.4889
H10 H -0.0142 0.0712 -0.4885
H11 H -0.0537 0.1573 -0.5487
C13 C -0.0698(2) 0.1142(4) -0.4540(3)
H12 H -0.1007 0.1135 -0.5051
H13 H -0.0568 0.0406 -0.4386
H14 H -0.0760 0.1426 -0.4232
C14 C -0.08826(17) 0.3406(5) -0.5308(3)
H15 H -0.1043 0.2912 -0.5703
C15 C -0.10536(16) 0.4462(5) -0.5445(2)
H16 H -0.1325 0.4689 -0.5929
C16 C -0.08223(15) 0.5180(4) -0.4866(2)
H17 H -0.0940 0.5901 -0.4957
C17 C -0.04180(14) 0.4865(3) -0.4146(2)
C18 C -0.01749(16) 0.5689(3) -0.3527(2)
H18 H 0.0013 0.5276 -0.3059
C19 C 0.0199(2) 0.6393(5) -0.3476(3)
H19 H 0.0023 0.6857 -0.3909
H20 H 0.0382 0.6844 -0.3037
H21 H 0.0430 0.5928 -0.3450
C20 C -0.05454(18) 0.6416(4) -0.3585(3)
H22 H -0.0793 0.5966 -0.3644
H23 H -0.0370 0.6851 -0.3141
H24 H -0.0709 0.6894 -0.4009
C21 C 0.14575(14) 0.3447(3) -0.2917(2)
C22 C 0.17975(16) 0.4227(4) -0.2385(2)
C23 C 0.16265(17) 0.5204(4) -0.2224(2)
H25 H 0.1269 0.5093 -0.2486
C24 C 0.1665(2) 0.6245(4) -0.2520(3)
H26 H 0.1463 0.6182 -0.3050
H27 H 0.1548 0.6854 -0.2414
H28 H 0.2010 0.6367 -0.2287
C25 C 0.1901(2) 0.5333(5) -0.1402(3)
H29 H 0.2253 0.5455 -0.1128
H30 H 0.1765 0.5950 -0.1335
H31 H 0.1860 0.4675 -0.1224
C26 C 0.23055(17) 0.4106(4) -0.1993(2)
H32 H 0.2530 0.4636 -0.1643
C27 C 0.24846(19) 0.3228(5) -0.2107(3)
H33 H 0.2828 0.3163 -0.1840
C28 C 0.21615(19) 0.2446(4) -0.2613(3)
H34 H 0.2288 0.1842 -0.2685
C29 C 0.16506(16) 0.2529(4) -0.3021(3)
C30 C 0.13167(18) 0.1612(4) -0.3553(3)
H35 H 0.1008 0.1639 -0.3629
C31 C 0.1165(3) 0.1793(5) -0.4293(3)
H36 H 0.1457 0.1755 -0.4244
H37 H 0.0928 0.1234 -0.4634
H38 H 0.1011 0.2505 -0.4479
C32 C 0.1533(2) 0.0486(5) -0.3268(4)
H39 H 0.1636 0.0388 -0.2785
H40 H 0.1284 -0.0056 -0.3606
H41 H 0.1820 0.0401 -0.3229
C33 C -0.0573(3) -0.0194(6) -0.2088(5)
H42 H -0.0297 -0.0641 -0.1678
H43 H -0.0620 0.0431 -0.1886
C34 C -0.1037(3) -0.0847(6) -0.2585(5)
H44 H -0.1329 -0.0402 -0.2775
H45 H -0.1025 -0.1476 -0.2323
C35 C -0.1061(3) -0.1201(6) -0.3182(6)
H46 H -0.0947 -0.1957 -0.3104
H47 H -0.1405 -0.1158 -0.3655
C36 C -0.0739(5) -0.0476(8) -0.3186(8)
H48 H -0.0938 -0.0011 -0.3626
H49 H -0.0507 -0.0902 -0.3187
P1D P 0.07764(4) 0.63970(10) 0.14708(6)
O1F O 0.0476(2) 0.0162(4) -0.2452(5)
C33F C 0.0573(3) -0.0194(6) -0.2912(5)
H42F H 0.0297 -0.0641 -0.3322
H43F H 0.0620 0.0431 -0.3114
C34F C 0.1037(3) -0.0847(6) -0.2415(5)
H44F H 0.1329 -0.0402 -0.2225
H45F H 0.1025 -0.1476 -0.2677
C35F C 0.1061(3) -0.1201(6) -0.1818(6)
H46F H 0.0947 -0.1957 -0.1896
H47F H 0.1405 -0.1158 -0.1345
C36F C 0.0739(5) -0.0476(8) -0.1814(8)
H48F H 0.0938 -0.0011 -0.1374
H49F H 0.0507 -0.0902 -0.1813
N1F N 0.01448(11) 0.3448(2) -0.32634(17)
C1F C 0.06080(14) 0.3364(3) -0.2996(2)
P1F P 0.07764(4) 0.36030(10) -0.35292(6)
K2B K 0.0000 0.5000 -0.5000
C9F C 0.02385(13) 0.3802(3) -0.0995(2)
C10F C 0.04762(16) 0.3046(4) -0.0403(3)
C11F C 0.03146(18) 0.1875(4) -0.0537(3)
H8F H -0.0006 0.1812 -0.1051
C12F C 0.0233(2) 0.1478(5) -0.0022(3)
H9F H -0.0033 0.1898 -0.0111
H10F H 0.0142 0.0712 -0.0115
H11F H 0.0537 0.1573 0.0487
C13F C 0.0698(2) 0.1142(4) -0.0460(3)
H12F H 0.1007 0.1135 0.0051
H13F H 0.0568 0.0406 -0.0614
H14F H 0.0760 0.1426 -0.0768
C14F C 0.08826(17) 0.3406(5) 0.0308(3)
H15F H 0.1043 0.2912 0.0703
C15F C 0.10536(16) 0.4462(5) 0.0445(2)
H16F H 0.1325 0.4689 0.0929
C16F C 0.08223(15) 0.5180(4) -0.0134(2)
H17F H 0.0940 0.5901 -0.0043
C17F C 0.04180(14) 0.4865(3) -0.0854(2)
C18F C 0.01749(16) 0.5689(3) -0.1473(2)
H18F H -0.0013 0.5276 -0.1941
C19F C -0.0199(2) 0.6393(5) -0.1524(3)
H19F H -0.0023 0.6857 -0.1091
H20F H -0.0382 0.6844 -0.1963
H21F H -0.0430 0.5928 -0.1550
C20F C 0.05454(18) 0.6416(4) -0.1415(3)
H22F H 0.0793 0.5966 -0.1356
H23F H 0.0370 0.6851 -0.1859
H24F H 0.0709 0.6894 -0.0991
C2F C -0.09678(14) 0.3044(3) -0.2804(2)
C3F C -0.09356(14) 0.3536(3) -0.3294(2)
H1F H -0.0691 0.4071 -0.3118
C4F C -0.12575(16) 0.3251(4) -0.4035(3)
H2F H -0.1231 0.3604 -0.4353
C5F C -0.16161(16) 0.2459(4) -0.4311(3)
C6F C -0.19683(18) 0.2130(5) -0.5121(3)
H3F H -0.1889 0.2544 -0.5375
H4F H -0.1931 0.1357 -0.5160
H5F H -0.2310 0.2278 -0.5345
C7F C -0.16531(16) 0.1973(4) -0.3833(3)
H6F H -0.1897 0.1435 -0.4011
C8F C -0.13357(16) 0.2267(3) -0.3090(3)
H7F H -0.1372 0.1931 -0.2777
C21F C -0.14575(14) 0.3447(3) -0.2083(2)
C22F C -0.17975(16) 0.4227(4) -0.2615(2)
C23F C -0.16265(17) 0.5204(4) -0.2776(2)
H25F H -0.1269 0.5093 -0.2514
C24F C -0.1665(2) 0.6245(4) -0.2480(3)
H26F H -0.1463 0.6182 -0.1950
H27F H -0.1548 0.6854 -0.2586
H28F H -0.2010 0.6367 -0.2713
C25F C -0.1901(2) 0.5333(5) -0.3598(3)
H29F H -0.2253 0.5455 -0.3872
H30F H -0.1765 0.5950 -0.3665
H31F H -0.1860 0.4675 -0.3776
C26F C -0.23055(17) 0.4106(4) -0.3007(2)
H32F H -0.2530 0.4636 -0.3357
C27F C -0.24846(19) 0.3228(5) -0.2893(3)
H33F H -0.2828 0.3163 -0.3160
C28F C -0.21615(19) 0.2446(4) -0.2387(3)
H34F H -0.2288 0.1842 -0.2315
C29F C -0.16506(16) 0.2529(4) -0.1979(3)
C30F C -0.13167(18) 0.1612(4) -0.1447(3)
H35F H -0.1008 0.1639 -0.1371
C31F C -0.1165(3) 0.1793(5) -0.0707(3)
H36F H -0.1457 0.1755 -0.0756
H37F H -0.0928 0.1234 -0.0366
H38F H -0.1011 0.2505 -0.0521
C32F C -0.1533(2) 0.0486(5) -0.1732(4)
H39F H -0.1636 0.0388 -0.2215
H40F H -0.1284 -0.0056 -0.1394
H41F H -0.1820 0.0401 -0.1771
O2 O 0.2661(6) 1.1099(14) 0.3756(9)
C37 C 0.2819(6) 1.1809(11) 0.4442(14)
H50 H 0.3160 1.2095 0.4766
H51 H 0.2577 1.2366 0.4318
C38 C 0.2759(8) 1.068(2) 0.4680(7)
H52 H 0.2913 1.0062 0.4637
H53 H 0.2836 1.0682 0.5152
C39 C 0.2343(6) 1.084(3) 0.4163(16)
H54 H 0.2257 1.1586 0.3968
H55 H 0.2094 1.0502 0.4164
C40 C 0.2571(6) 1.0096(9) 0.3928(7)
H57 H 0.2332 0.9624 0.3503
H56? H 0.2872 0.9697 0.4333
loop_
_geom_bond_atom_site_label_1
_geom_bond_atom_site_label_2
_geom_bond_site_symmetry_1
_geom_bond_site_symmetry_2
K1 O1 1_555 1_555
K2 P1 1_555 1_555
P1 C1 1_555 1_555
O1 C33 1_555 1_555
O2 C37 1_555 1_555
N1 K1 1_555 1_555
C1 N1 1_555 1_555
C2 C3 1_555 1_555
C3 H1 1_555 1_555
C4 C3 1_555 1_555
H2 C4 1_555 1_555
C5 C4 1_555 1_555
C6 C5 1_555 1_555
H3 C6 1_555 1_555
H4 C6 1_555 1_555
H5 C6 1_555 1_555
C7 C5 1_555 1_555
H6 C7 1_555 1_555
C8 C2 1_555 1_555
H7 C8 1_555 1_555
C9 C10 1_555 1_555
C10 C11 1_555 1_555
C11 H8 1_555 1_555
C12 C11 1_555 1_555
H9 C12 1_555 1_555
H10 C12 1_555 1_555
H11 C12 1_555 1_555
C13 C11 1_555 1_555
H12 C13 1_555 1_555
H13 C13 1_555 1_555
H14 C13 1_555 1_555
C14 C10 1_555 1_555
H15 C14 1_555 1_555
C15 C14 1_555 1_555
H16 C15 1_555 1_555
C16 C15 1_555 1_555
H17 C16 1_555 1_555
C17 C9 1_555 1_555
C18 C17 1_555 1_555
H18 C18 1_555 1_555
C19 C18 1_555 1_555
H19 C19 1_555 1_555
H20 C19 1_555 1_555
H21 C19 1_555 1_555
C20 C18 1_555 1_555
H22 C20 1_555 1_555
H23 C20 1_555 1_555
H24 C20 1_555 1_555
C21 C22 1_555 1_555
C22 C23 1_555 1_555
C23 H25 1_555 1_555
C24 C23 1_555 1_555
H26 C24 1_555 1_555
H27 C24 1_555 1_555
H28 C24 1_555 1_555
C25 C23 1_555 1_555
H29 C25 1_555 1_555
H30 C25 1_555 1_555
H31 C25 1_555 1_555
C26 C22 1_555 1_555
H32 C26 1_555 1_555
C27 C26 1_555 1_555
H33 C27 1_555 1_555
C28 C27 1_555 1_555
H34 C28 1_555 1_555
C29 C21 1_555 1_555
C30 C29 1_555 1_555
H35 C30 1_555 1_555
C31 C30 1_555 1_555
H36 C31 1_555 1_555
H37 C31 1_555 1_555
H38 C31 1_555 1_555
C32 C30 1_555 1_555
H39 C32 1_555 1_555
H40 C32 1_555 1_555
H41 C32 1_555 1_555
C33 H42 1_555 1_555
H43 C33 1_555 1_555
C34 C33 1_555 1_555
H44 C34 1_555 1_555
H45 C34 1_555 1_555
C35 C34 1_555 1_555
H46 C35 1_555 1_555
H47 C35 1_555 1_555
C36 O1 1_555 1_555
H48 C36 1_555 1_555
H49 C36 1_555 1_555
C37 H50 1_555 1_555
H51 C37 1_555 1_555
C38 C37 1_555 1_555
H52 C38 1_555 1_555
H53 C38 1_555 1_555
C39 C38 1_555 1_555
H54 C39 1_555 1_555
H55 C39 1_555 1_555
C40 O2 1_555 1_555
H57 C40 1_555 1_555
P1D K2 1_555 1_555
O1F K1 1_555 1_555
C33F O1F 1_555 1_555
H42F C33F 1_555 1_555
H43F C33F 1_555 1_555
C34F C33F 1_555 1_555
H44F C34F 1_555 1_555
H45F C34F 1_555 1_555
C35F C34F 1_555 1_555
H46F C35F 1_555 1_555
H47F C35F 1_555 1_555
C36F O1F 1_555 1_555
H48F C36F 1_555 1_555
H49F C36F 1_555 1_555
N1F K1 1_555 1_555
C1F C2 1_555 1_555
P1F C21 1_555 1_555
K2B P1F 1_555 1_555
C9F N1 1_555 1_555
C10F C9F 1_555 1_555
C11F C10F 1_555 1_555
H8F C11F 1_555 1_555
C12F C11F 1_555 1_555
H9F C12F 1_555 1_555
H10F C12F 1_555 1_555
H11F C12F 1_555 1_555
C13F C11F 1_555 1_555
H12F C13F 1_555 1_555
H13F C13F 1_555 1_555
H14F C13F 1_555 1_555
C14F C10F 1_555 1_555
H15F C14F 1_555 1_555
C15F C14F 1_555 1_555
H16F C15F 1_555 1_555
C16F C15F 1_555 1_555
H17F C16F 1_555 1_555
C17F C9F 1_555 1_555
C18F C17F 1_555 1_555
H18F C18F 1_555 1_555
C19F C18F 1_555 1_555
H19F C19F 1_555 1_555
H20F C19F 1_555 1_555
H21F C19F 1_555 1_555
C20F C18F 1_555 1_555
H22F C20F 1_555 1_555
H23F C20F 1_555 1_555
H24F C20F 1_555 1_555
C2F C1 1_555 1_555
C3F C2F 1_555 1_555
H1F C3F 1_555 1_555
C4F C3F 1_555 1_555
H2F C4F 1_555 1_555
C5F C4F 1_555 1_555
C6F C5F 1_555 1_555
H3F C6F 1_555 1_555
H4F C6F 1_555 1_555
H5F C6F 1_555 1_555
C7F C5F 1_555 1_555
H6F C7F 1_555 1_555
C8F C2F 1_555 1_555
H7F C8F 1_555 1_555
C21F P1 1_555 1_555
C22F C21F 1_555 1_555
C23F C22F 1_555 1_555
H25F C23F 1_555 1_555
C24F C23F 1_555 1_555
H26F C24F 1_555 1_555
H27F C24F 1_555 1_555
H28F C24F 1_555 1_555
C25F C23F 1_555 1_555
H29F C25F 1_555 1_555
H30F C25F 1_555 1_555
H31F C25F 1_555 1_555
C26F C22F 1_555 1_555
H32F C26F 1_555 1_555
C27F C26F 1_555 1_555
H33F C27F 1_555 1_555
C28F C27F 1_555 1_555
H34F C28F 1_555 1_555
C29F C21F 1_555 1_555
C30F C29F 1_555 1_555
H35F C30F 1_555 1_555
C31F C30F 1_555 1_555
H36F C31F 1_555 1_555
H37F C31F 1_555 1_555
H38F C31F 1_555 1_555
C32F C30F 1_555 1_555
H39F C32F 1_555 1_555
H40F C32F 1_555 1_555
H41F C32F 1_555 1_555
C7 C8 1_555 1_555
C9 N1F 1_555 1_555
C16 C17 1_555 1_555
C28 C29 1_555 1_555
C35 C36 1_555 1_555
C39 C40 1_555 1_555
C35F C36F 1_555 1_555
N1F C1F 1_555 1_555
C1F P1F 1_555 1_555
C16F C17F 1_555 1_555
C7F C8F 1_555 1_555
C28F C29F 1_555 1_555

#END
