
#######################################################################
#
#                 Cambridge Crystallographic Data Centre
#                                CCDC 
#
#######################################################################
#
# If this CIF has been generated from an entry in the Cambridge 
# Structural Database, then it will include bibliographic, chemical, 
# crystal, experimental, refinement or atomic coordinate data resulting 
# from the CCDC's data processing and validation procedures.
#
#######################################################################

data_JAMJOX
_symmetry_cell_setting           triclinic
_symmetry_space_group_name_H-M   'P -1'
_symmetry_Int_Tables_number      2
_space_group_name_Hall           '-P 1'
loop_
_symmetry_equiv_pos_site_id
_symmetry_equiv_pos_as_xyz
1 x,y,z
2 -x,-y,-z
_cell_length_a                   7.5149(6)
_cell_length_b                   9.2126(6)
_cell_length_c                   10.6784(8)
_cell_angle_alpha                111.1840(10)
_cell_angle_beta                 97.7140(10)
_cell_angle_gamma                91.3030(10)
_cell_volume                     681.055
loop_
_atom_site_label
_atom_site_type_symbol
_atom_site_fract_x
_atom_site_fract_y
_atom_site_fract_z
Hg1 Hg 0.24123(3) 0.94760(2) 0.50164(2)
Cl1 Cl 0.0269(2) 1.04420(18) 0.33990(16)
Cl2 Cl 0.4394(2) 1.1594(2) 0.65514(18)
N1 N 0.1493(7) 0.6986(7) 0.3823(6)
N2 N 0.3250(8) 0.6843(7) 0.5682(6)
N3 N 0.3779(8) 0.6014(7) 0.6340(6)
C1 C 0.0361(9) 0.6424(8) 0.2643(7)
H1 H -0.0048 0.7114 0.2205
C2 C -0.0225(10) 0.4848(9) 0.2049(8)
H2 H -0.1038 0.4464 0.1218
C3 C 0.0393(9) 0.3846(8) 0.2686(7)
H3 H 0.0023 0.2764 0.2286
C4 C 0.1557(9) 0.4428(8) 0.3911(7)
H4 H 0.1976 0.3760 0.4370
C5 C 0.2088(8) 0.6010(7) 0.4445(7)
C6 C 0.4943(9) 0.6825(8) 0.7574(7)
C7 C 0.5674(8) 0.8370(8) 0.7964(7)
H5 H 0.5423 0.8930 0.7376
C8 C 0.6766(9) 0.9073(8) 0.9212(7)
C9 C 0.7561(10) 1.0730(9) 0.9635(8)
H6 H 0.7141 1.1145 0.8931
H7 H 0.8878 1.0745 0.9755
H8 H 0.7180 1.1374 1.0494
C10 C 0.7079(10) 0.8222(10) 1.0074(7)
H9 H 0.7794 0.8702 1.0942
C11 C 0.6358(10) 0.6697(10) 0.9675(8)
H10 H 0.6592 0.6143 1.0270
C12 C 0.5302(10) 0.5970(9) 0.8419(8)
H11 H 0.4831 0.4917 0.8137
Cl1A Cl -0.0269(2) 0.95580(18) 0.66010(16)
Cl2A Cl 0.5606(2) 0.8406(2) 0.34486(18)
Hg1A Hg -0.24123(3) 1.05240(2) 0.49836(2)
Hg1A_2 Hg 0.75877(3) 1.05240(2) 0.49836(2)
loop_
_geom_bond_atom_site_label_1
_geom_bond_atom_site_label_2
_geom_bond_site_symmetry_1
_geom_bond_site_symmetry_2
Hg1 Cl1 1_555 1_555
Cl1 Hg1A 1_555 1_555
Cl2 Hg1 1_555 1_555
N1 Hg1 1_555 1_555
N2 N3 1_555 1_555
N3 C6 1_555 1_555
C1 N1 1_555 1_555
H1 C1 1_555 1_555
C2 C1 1_555 1_555
H2 C2 1_555 1_555
C3 C2 1_555 1_555
H3 C3 1_555 1_555
C4 C3 1_555 1_555
H4 C4 1_555 1_555
C5 N1 1_555 1_555
C6 C7 1_555 1_555
C7 H5 1_555 1_555
C8 C7 1_555 1_555
C9 C8 1_555 1_555
H6 C9 1_555 1_555
H7 C9 1_555 1_555
H8 C9 1_555 1_555
C10 C8 1_555 1_555
H9 C10 1_555 1_555
C11 C10 1_555 1_555
H10 C11 1_555 1_555
C12 C6 1_555 1_555
H11 C12 1_555 1_555
Cl1A Hg1 1_555 1_555
Cl2A Hg1 1_555 1_555
Hg1A Cl1A 1_555 1_555
Hg1A_2 Cl2 1_555 1_555
N2 C5 1_555 1_555
C4 C5 1_555 1_555
C11 C12 1_555 1_555
Cl2A Hg1A_2 1_555 1_555

#END
