
#######################################################################
#
#                 Cambridge Crystallographic Data Centre
#                                CCDC 
#
#######################################################################
#
# If this CIF has been generated from an entry in the Cambridge 
# Structural Database, then it will include bibliographic, chemical, 
# crystal, experimental, refinement or atomic coordinate data resulting 
# from the CCDC's data processing and validation procedures.
#
#######################################################################

data_JAMKIS
_symmetry_cell_setting           orthorhombic
_symmetry_space_group_name_H-M   'P c a m'
_symmetry_Int_Tables_number      57
_space_group_name_Hall           '-P 2c 2ac'
loop_
_symmetry_equiv_pos_site_id
_symmetry_equiv_pos_as_xyz
1 x,y,z
2 1/2-x,y,1/2+z
3 1/2+x,-y,z
4 x,y,1/2-z
5 -x,-y,-z
6 1/2+x,-y,1/2-z
7 1/2-x,y,-z
8 -x,-y,1/2+z
_cell_length_a                   8.5914(17)
_cell_length_b                   11.113(3)
_cell_length_c                   15.056(3)
_cell_angle_alpha                90
_cell_angle_beta                 90
_cell_angle_gamma                90
_cell_volume                     1437.49
loop_
_atom_site_label
_atom_site_type_symbol
_atom_site_fract_x
_atom_site_fract_y
_atom_site_fract_z
C1 C 0.2858(5) -0.0023(3) -0.1744(3)
C2 C 0.5560(5) 0.2679(4) 0.0498(3)
H1 H 0.642(8) 0.249(5) 0.071(4)
H2 H 0.561(8) 0.339(4) 0.006(3)
C3 C 0.4438(5) 0.2941(4) 0.1251(3)
H3 H 0.464(6) 0.363(5) 0.153(4)
H4 H 0.449(5) 0.223(4) 0.168(3)
C4 C 0.2353(5) 0.4166(4) 0.0503(3)
H5 H 0.122(5) 0.425(4) 0.065(3)
H6 H 0.298(6) 0.483(4) 0.073(3)
N1 N 0.2527(4) 0.0291(3) -0.1038(2)
N2 N 0.3323(8) -0.0474(5) -0.2500
N3 N 0.4995(5) 0.1631(3) -0.0014(2)
H7 H 0.534(7) 0.107(6) 0.022(4)
H8 H 0.552(6) 0.162(4) -0.060(4)
N4 N 0.2807(4) 0.3007(3) 0.0917(2)
H9 H 0.225(6) 0.287(5) 0.129(4)
Ni1 Ni 0.2500 0.15821(6) 0.0000
C1C C 0.2858(5) -0.0023(3) -0.3256(3)
N1C N 0.2527(4) 0.0291(3) -0.3962(2)
C4F C 0.2647(5) 0.4166(4) -0.0503(3)
H5F H 0.378(5) 0.425(4) -0.065(3)
H6F H 0.202(6) 0.483(4) -0.073(3)
N4F N 0.2193(4) 0.3007(3) -0.0917(2)
C3F C 0.0562(5) 0.2941(4) -0.1251(3)
C2F C -0.0560(5) 0.2679(4) -0.0498(3)
H1F H -0.142(8) 0.249(5) -0.071(4)
H2F H -0.061(8) 0.339(4) -0.006(3)
N3F N 0.0005(5) 0.1631(3) 0.0014(2)
H7F H -0.034(7) 0.107(6) -0.022(4)
H8F H -0.052(6) 0.162(4) 0.060(4)
H3F H 0.036(6) 0.363(5) -0.153(4)
H4F H 0.051(5) 0.223(4) -0.168(3)
H9F H 0.275(6) 0.287(5) -0.129(4)
N1F N 0.2473(4) 0.0291(3) 0.1038(2)
Ni1A Ni 0.2500 0.15821(6) -0.5000
O1 O 0.8779(11) 0.3044(9) 0.3301(4)
O2 O 1.0476(16) 0.2261(10) 0.2500
O3 O 1.0442(10) 0.4247(7) 0.2500
Cl1 Cl 0.93633(18) 0.32500(13) 0.2500
O1C O 0.8779(11) 0.3044(9) 0.1699(4)
loop_
_geom_bond_atom_site_label_1
_geom_bond_atom_site_label_2
_geom_bond_site_symmetry_1
_geom_bond_site_symmetry_2
C1 N1 1_555 1_555
C2 H1 1_555 1_555
H2 C2 1_555 1_555
C3 C2 1_555 1_555
H3 C3 1_555 1_555
H4 C3 1_555 1_555
C4 H5 1_555 1_555
H6 C4 1_555 1_555
O1 Cl1 1_555 1_555
O2 Cl1 1_555 1_555
O3 Cl1 1_555 1_555
Cl1 O1C 1_555 1_555
N1 Ni1 1_555 1_555
N2 C1 1_555 1_555
N3 C2 1_555 1_555
H7 N3 1_555 1_555
H8 N3 1_555 1_555
N4 C3 1_555 1_555
H9 N4 1_555 1_555
Ni1 N3 1_555 1_555
C1C N2 1_555 1_555
N1C C1C 1_555 1_555
C4F C4 1_555 1_555
H5F C4F 1_555 1_555
H6F C4F 1_555 1_555
N4F Ni1 1_555 1_555
C3F N4F 1_555 1_555
C2F C3F 1_555 1_555
H1F C2F 1_555 1_555
H2F C2F 1_555 1_555
N3F Ni1 1_555 1_555
H7F N3F 1_555 1_555
H8F N3F 1_555 1_555
H3F C3F 1_555 1_555
H4F C3F 1_555 1_555
H9F N4F 1_555 1_555
N1F Ni1 1_555 1_555
Ni1A N1C 1_555 1_555
C4 N4 1_555 1_555
N4 Ni1 1_555 1_555
C4F N4F 1_555 1_555
C2F N3F 1_555 1_555

#END
