
#######################################################################
#
#                 Cambridge Crystallographic Data Centre
#                                CCDC 
#
#######################################################################
#
# If this CIF has been generated from an entry in the Cambridge 
# Structural Database, then it will include bibliographic, chemical, 
# crystal, experimental, refinement or atomic coordinate data resulting 
# from the CCDC's data processing and validation procedures.
#
#######################################################################

data_JAMLAL
_symmetry_cell_setting           triclinic
_symmetry_space_group_name_H-M   'P -1'
_symmetry_Int_Tables_number      2
_space_group_name_Hall           '-P 1'
loop_
_symmetry_equiv_pos_site_id
_symmetry_equiv_pos_as_xyz
1 x,y,z
2 -x,-y,-z
_cell_length_a                   7.833(4)
_cell_length_b                   8.339(3)
_cell_length_c                   10.922(3)
_cell_angle_alpha                90.12(3)
_cell_angle_beta                 103.17(3)
_cell_angle_gamma                111.73(3)
_cell_volume                     642.337
loop_
_atom_site_label
_atom_site_type_symbol
_atom_site_fract_x
_atom_site_fract_y
_atom_site_fract_z
Cd1 Cd 0.5000 -0.5000 1.0000
Cd2 Cd 0.5000 0.0000 0.5000
N1 N 0.3845(4) -0.0014(4) 0.6835(2)
O5 O 0.4305(3) -0.6171(3) 0.7844(2)
O6 O 0.1839(3) -0.5540(3) 0.9583(2)
O7 O 0.4442(3) -0.2866(3) 0.5209(2)
O8 O 0.1999(3) -0.0621(3) 0.3856(2)
N2 N 0.5738(4) -0.2315(4) 0.9334(2)
C1 C 0.4636(4) -0.1968(4) 0.8318(3)
H1 H 0.3580 -0.2878 0.7847
C2 C 0.5009(4) -0.0316(4) 0.7945(3)
C3 C 0.6609(5) 0.1040(4) 0.8643(3)
H2 H 0.6907 0.2165 0.8411
C4 C 0.7746(4) 0.0686(4) 0.9686(3)
H3 H 0.8817 0.1573 1.0167
C5 C 0.7273(4) -0.1000(4) 1.0006(3)
H4 H 0.8042 -0.1231 1.0709
H5 H 0.3275 -0.6238 0.7383
H6 H 0.5164 -0.5716 0.7466
H7 H 0.1473 -0.5626 1.0264
H8 H 0.1176 -0.5179 0.9019
H9 H 0.3903 -0.3650 0.4578
H10 H 0.5323 -0.3043 0.5716
H11 H 0.1614 0.0036 0.3381
H12 H 0.1121 -0.1617 0.3750
H15 H 0.2660 -0.0847 0.6629
H16 H 0.3748 0.1027 0.6956
O5A O 0.5695(3) -0.3829(3) 1.2156(2)
H5A H 0.6725 -0.3762 1.2617
H6A H 0.4836 -0.4284 1.2534
O6A O 0.8161(3) -0.4460(3) 1.0417(2)
H7A H 0.8527 -0.4374 0.9736
H8A H 0.8824 -0.4821 1.0981
N1A N 0.6155(4) -0.9986(4) 1.3165(2)
N2A N 0.4262(4) -0.7685(4) 1.0666(2)
C1A C 0.5364(4) -0.8032(4) 1.1682(3)
H1A H 0.6420 -0.7122 1.2153
C2A C 0.4991(4) -0.9684(4) 1.2055(3)
C3A C 0.3391(5) -1.1040(4) 1.1357(3)
H2A H 0.3093 -1.2165 1.1589
C4A C 0.2254(4) -1.0686(4) 1.0314(3)
H3A H 0.1183 -1.1573 0.9833
C5A C 0.2727(4) -0.9000(4) 0.9994(3)
H4A H 0.1958 -0.8769 0.9291
H15A H 0.7340 -0.9153 1.3371
H16A H 0.6252 -1.1027 1.3044
O7A O 0.5558(3) 0.2866(3) 0.4791(2)
H9A H 0.6097 0.3650 0.5422
H10A H 0.4677 0.3043 0.4284
O8A O 0.8001(3) 0.0621(3) 0.6144(2)
H11A H 0.8386 -0.0036 0.6619
H12A H 0.8879 0.1617 0.6250
N1A_2 N 0.6155(4) 0.0014(4) 0.3165(2)
Cd2_2 Cd 0.5000 -1.0000 1.5000
H15A_2 H 0.7340 0.0847 0.3371
H16A_2 H 0.6252 -0.1027 0.3044
S1 S 0.88890(10) -0.33141(10) 0.71860(7)
O1 O 0.9185(3) -0.1541(3) 0.7601(2)
O2 O 0.9340(3) -0.4256(3) 0.8277(2)
O3 O 1.0107(3) -0.3308(3) 0.6329(2)
O4 O 0.6867(3) -0.4272(3) 0.6503(2)
O9 O 1.0968(3) -0.6258(3) 0.6267(2)
H13 H 1.0677 -0.5396 0.6371
H14 H 1.0832 -0.6400 0.5479
loop_
_geom_bond_atom_site_label_1
_geom_bond_atom_site_label_2
_geom_bond_site_symmetry_1
_geom_bond_site_symmetry_2
Cd1 O5 1_555 1_555
Cd2 N1 1_555 1_555
S1 O1 1_555 1_555
O2 S1 1_555 1_555
O3 S1 1_555 1_555
O4 S1 1_555 1_555
N1 C2 1_555 1_555
O5 H5 1_555 1_555
O6 Cd1 1_555 1_555
O7 Cd2 1_555 1_555
O8 Cd2 1_555 1_555
O9 H13 1_555 1_555
N2 Cd1 1_555 1_555
C1 N2 1_555 1_555
H1 C1 1_555 1_555
C2 C1 1_555 1_555
C3 C2 1_555 1_555
H2 C3 1_555 1_555
C4 C3 1_555 1_555
H3 C4 1_555 1_555
C5 N2 1_555 1_555
H4 C5 1_555 1_555
H6 O5 1_555 1_555
H7 O6 1_555 1_555
H8 O6 1_555 1_555
H9 O7 1_555 1_555
H10 O7 1_555 1_555
H11 O8 1_555 1_555
H12 O8 1_555 1_555
H14 O9 1_555 1_555
H15 N1 1_555 1_555
H16 N1 1_555 1_555
O5A Cd1 1_555 1_555
H5A O5A 1_555 1_555
H6A O5A 1_555 1_555
O6A Cd1 1_555 1_555
H7A O6A 1_555 1_555
H8A O6A 1_555 1_555
N1A C2A 1_555 1_555
N2A Cd1 1_555 1_555
C1A N2A 1_555 1_555
H1A C1A 1_555 1_555
C2A C1A 1_555 1_555
C3A C2A 1_555 1_555
H2A C3A 1_555 1_555
C4A C3A 1_555 1_555
H3A C4A 1_555 1_555
C5A N2A 1_555 1_555
H4A C5A 1_555 1_555
H15A N1A 1_555 1_555
H16A N1A 1_555 1_555
O7A Cd2 1_555 1_555
H9A O7A 1_555 1_555
H10A O7A 1_555 1_555
O8A Cd2 1_555 1_555
H11A O8A 1_555 1_555
H12A O8A 1_555 1_555
N1A_2 Cd2 1_555 1_555
Cd2_2 N1A 1_555 1_555
H15A_2 N1A_2 1_555 1_555
H16A_2 N1A_2 1_555 1_555
C4 C5 1_555 1_555
C4A C5A 1_555 1_555

#END
