
#######################################################################
#
#                 Cambridge Crystallographic Data Centre
#                                CCDC 
#
#######################################################################
#
# If this CIF has been generated from an entry in the Cambridge 
# Structural Database, then it will include bibliographic, chemical, 
# crystal, experimental, refinement or atomic coordinate data resulting 
# from the CCDC's data processing and validation procedures.
#
#######################################################################

data_JAMLIT
_symmetry_cell_setting           triclinic
_symmetry_space_group_name_H-M   'P -1'
_symmetry_Int_Tables_number      2
_space_group_name_Hall           '-P 1'
loop_
_symmetry_equiv_pos_site_id
_symmetry_equiv_pos_as_xyz
1 x,y,z
2 -x,-y,-z
_cell_length_a                   7.6329(2)
_cell_length_b                   7.9591(3)
_cell_length_c                   9.7361(3)
_cell_angle_alpha                75.7420(10)
_cell_angle_beta                 79.865(2)
_cell_angle_gamma                85.829(2)
_cell_volume                     564.045
loop_
_atom_site_label
_atom_site_type_symbol
_atom_site_fract_x
_atom_site_fract_y
_atom_site_fract_z
N1 N 0.2843(7) 0.9512(6) 0.6274(5)
H2 H 0.2904 1.0195 0.6875
H3 H 0.2368 0.8500 0.6787
N2 N 0.5446(7) 0.8679(6) 0.6485(5)
H4 H 0.5587 0.9524 0.6920
H5 H 0.4909 0.7790 0.7149
C4 C 0.4523(6) 0.9236(7) 0.5515(5)
C5 C 0.1771(8) 1.0379(8) 0.5147(7)
H6 H 0.0617 1.0756 0.5586
H7 H 0.1587 0.9580 0.4581
C6 C 0.7222(9) 0.8085(7) 0.5793(6)
H8 H 0.7903 0.7477 0.6530
H9 H 0.7050 0.7289 0.5221
C5A C 0.8229(8) 0.9621(8) 0.4853(7)
N1A N 0.7157(7) 1.0488(6) 0.3726(5)
H2A H 0.7096 0.9805 0.3125
H3A H 0.7632 1.1500 0.3213
C4A C 0.5477(6) 1.0764(7) 0.4485(5)
N2A N 0.4554(7) 1.1321(6) 0.3515(5)
H4A H 0.4413 1.0476 0.3080
H5A H 0.5091 1.2210 0.2851
C6A C 0.2778(9) 1.1915(7) 0.4207(6)
H8A H 0.2097 1.2523 0.3470
H9A H 0.2950 1.2711 0.4779
H6A H 0.9383 0.9244 0.4414
H7A H 0.8413 1.0420 0.5419
Fe1 Fe 0.14824(5) 0.46827(5) 0.75200(4)
Fe2 Fe -0.17793(5) 0.19333(5) 0.86910(4)
P1 P -0.07523(9) 0.77294(8) 0.90466(7)
O1 O 0.3350(3) 0.2611(3) 0.7209(2)
O2 O 0.3986(3) 0.5494(3) 0.7937(3)
O3 O -0.0370(3) 0.3503(2) 0.6663(2)
O4 O -0.1912(3) 0.4029(3) 0.4833(2)
O5 O 0.0301(3) 0.6840(3) 0.7940(2)
O6 O -0.0585(3) 0.9674(2) 0.8531(2)
O7 O 0.5888(3) 0.1399(3) 0.7882(2)
O8 O 0.6577(3) 0.4335(3) 0.8550(2)
O9 O -0.3252(4) 0.1206(5) 1.0845(3)
O10 O -0.0229(3) 0.7038(2) 1.0541(2)
O11 O -0.2800(3) 0.7347(3) 0.9193(2)
H1 H -0.289(5) 0.634(5) 0.900(4)
C1 C 0.4761(4) 0.2632(3) 0.7690(3)
C2 C 0.5152(4) 0.4301(3) 0.8095(3)
C3 C -0.0683(3) 0.4291(3) 0.5415(3)
C3A C 0.0683(3) 0.5709(3) 0.4585(3)
O3A O 0.0370(3) 0.6497(2) 0.3337(2)
O4A O 0.1912(3) 0.5971(3) 0.5167(2)
P1A P 0.07523(9) 0.22706(8) 1.09534(7)
O5A O -0.0301(3) 0.3160(3) 1.2060(2)
O6A O 0.0585(3) 0.0326(2) 1.1469(2)
O10A O 0.0229(3) 0.2962(2) 0.9459(2)
O11A O 0.2800(3) 0.2653(3) 1.0807(2)
H1A H 0.289(5) 0.366(5) 1.100(4)
Fe1A Fe -0.14824(5) 0.53173(5) 0.24800(4)
Fe2A Fe 0.17793(5) 0.80667(5) 0.13090(4)
O1_2 O -0.6650(3) 0.2611(3) 0.7209(2)
O2_2 O -0.6014(3) 0.5494(3) 0.7937(3)
O7_2 O -0.4112(3) 0.1399(3) 0.7882(2)
O8_2 O -0.3423(3) 0.4335(3) 0.8550(2)
C1_2 C -0.5239(4) 0.2632(3) 0.7690(3)
C2_2 C -0.4848(4) 0.4301(3) 0.8095(3)
O9A O 0.3252(4) 0.8794(5) -0.0845(3)
O6_2 O -0.0585(3) -0.0326(2) 0.8531(2)
Fe2_2 Fe -0.17793(5) 1.19333(5) 0.86910(4)
Fe2_3 Fe 0.82207(5) 0.19333(5) 0.86910(4)
Fe1A_2 Fe -0.14824(5) 0.53173(5) 1.24800(4)
Fe2A_2 Fe 0.17793(5) 0.80667(5) 1.13090(4)
Fe2A_3 Fe 0.17793(5) -0.19333(5) 1.13090(4)
O1A O -0.3350(3) 0.7389(3) 0.2791(2)
O2A O -0.3986(3) 0.4506(3) 0.2063(3)
O5A_2 O -0.0301(3) 0.3160(3) 0.2060(2)
O10_2 O -0.0229(3) 0.7038(2) 0.0541(2)
O6A_2 O 0.0585(3) 1.0326(2) 0.1469(2)
O7A O 0.4112(3) 0.8601(3) 0.2118(2)
O8A O 0.3423(3) 0.5665(3) 0.1450(2)
Fe1_2 Fe -0.85176(5) 0.46827(5) 0.75200(4)
loop_
_geom_bond_atom_site_label_1
_geom_bond_atom_site_label_2
_geom_bond_site_symmetry_1
_geom_bond_site_symmetry_2
Fe1 O1 1_555 1_555
Fe2 O3 1_555 1_555
P1 O5 1_555 1_555
O1 C1 1_555 1_555
O2 Fe1 1_555 1_555
O3 Fe1 1_555 1_555
O4 C3 1_555 1_555
O5 Fe1 1_555 1_555
O6 P1 1_555 1_555
O7 C1 1_555 1_555
O8 C2 1_555 1_555
O9 Fe2 1_555 1_555
O10 P1 1_555 1_555
O11 P1 1_555 1_555
H1 O11 1_555 1_555
N1 H2 1_555 1_555
H3 N1 1_555 1_555
N2 H4 1_555 1_555
H5 N2 1_555 1_555
C1 C2 1_555 1_555
C2 O2 1_555 1_555
C3 O3 1_555 1_555
C4 N1 1_555 1_555
C5 N1 1_555 1_555
H6 C5 1_555 1_555
H7 C5 1_555 1_555
C6 N2 1_555 1_555
H8 C6 1_555 1_555
H9 C6 1_555 1_555
C3A C3 1_555 1_555
O3A C3A 1_555 1_555
O4A Fe1 1_555 1_555
C5A C6 1_555 1_555
N1A C5A 1_555 1_555
H2A N1A 1_555 1_555
H3A N1A 1_555 1_555
C4A C4 1_555 1_555
N2A C4A 1_555 1_555
H4A N2A 1_555 1_555
H5A N2A 1_555 1_555
C6A C5 1_555 1_555
H8A C6A 1_555 1_555
H9A C6A 1_555 1_555
H6A C5A 1_555 1_555
H7A C5A 1_555 1_555
P1A O5A 1_555 1_555
O5A Fe1A_2 1_555 1_555
O6A P1A 1_555 1_555
O10A Fe1 1_555 1_555
O11A P1A 1_555 1_555
H1A O11A 1_555 1_555
Fe1A O4 1_555 1_555
Fe2A O3A 1_555 1_555
O1_2 C1_2 1_555 1_555
O2_2 C2_2 1_555 1_555
O7_2 Fe2 1_555 1_555
O8_2 Fe2 1_555 1_555
C1_2 O7_2 1_555 1_555
C2_2 O8_2 1_555 1_555
O9A Fe2A 1_555 1_555
O6_2 Fe2 1_555 1_555
Fe2_2 O6 1_555 1_555
Fe2_3 O7 1_555 1_555
Fe1A_2 O10 1_555 1_555
Fe2A_2 O10 1_555 1_555
Fe2A_3 O6A 1_555 1_555
O1A Fe1A 1_555 1_555
O2A Fe1A 1_555 1_555
O5A_2 Fe1A 1_555 1_555
O10_2 Fe1A 1_555 1_555
O6A_2 Fe2A 1_555 1_555
O7A Fe2A 1_555 1_555
O8A Fe2A 1_555 1_555
Fe1_2 O1_2 1_555 1_555
Fe2 O10A 1_555 1_555
O8 Fe2_3 1_555 1_555
N2 C4 1_555 1_555
C3A O4A 1_555 1_555
O3A Fe1A 1_555 1_555
N1A C4A 1_555 1_555
N2A C6A 1_555 1_555
P1A O10A 1_555 1_555
Fe2A O10_2 1_555 1_555
O2_2 Fe1_2 1_555 1_555
C1_2 C2_2 1_555 1_555

#END
