
#######################################################################
#
#                 Cambridge Crystallographic Data Centre
#                                CCDC 
#
#######################################################################
#
# If this CIF has been generated from an entry in the Cambridge 
# Structural Database, then it will include bibliographic, chemical, 
# crystal, experimental, refinement or atomic coordinate data resulting 
# from the CCDC's data processing and validation procedures.
#
#######################################################################

data_JAMPET
_symmetry_cell_setting           triclinic
_symmetry_space_group_name_H-M   'P 1'
_symmetry_Int_Tables_number      1
_space_group_name_Hall           'P 1'
loop_
_symmetry_equiv_pos_site_id
_symmetry_equiv_pos_as_xyz
1 x,y,z
_cell_length_a                   5.2194(5)
_cell_length_b                   11.0692(10)
_cell_length_c                   14.3994(13)
_cell_angle_alpha                73.208(2)
_cell_angle_beta                 83.348(2)
_cell_angle_gamma                81.145(2)
_cell_volume                     784.711
loop_
_atom_site_label
_atom_site_type_symbol
_atom_site_fract_x
_atom_site_fract_y
_atom_site_fract_z
Ag1 Ag 0.43392(16) 0.64409(11) 0.60032(8)
Ag2 Ag 2.08002(13) 1.44668(9) 1.59553(7)
Ag3 Ag 1.4830(2) 1.34518(16) 1.74669(9)
O1 O 1.6620(16) 1.3881(10) 1.5811(7)
O2 O 1.3501(15) 1.3339(9) 1.5153(6)
O3 O 1.0676(15) 1.0647(8) 1.2380(5)
O4 O 0.4961(16) 0.8663(8) 1.0313(6)
O5 O 0.1860(15) 0.5843(10) 0.7512(6)
O6 O -0.1616(17) 0.5552(11) 0.6878(7)
N1 N 1.6671(16) 1.1996(9) 1.4141(6)
N2 N -0.1053(18) 0.7260(10) 0.8587(7)
C1 C 1.578(2) 1.3416(10) 1.5240(7)
C2 C 1.785(2) 1.2812(13) 1.4584(9)
H1 H 1.8591 1.3480 1.4075
H2 H 1.9248 1.2306 1.4971
C3 C 1.519(2) 1.2602(12) 1.3400(8)
H3 H 1.5097 1.3480 1.3145
C4 C 1.378(3) 1.1908(13) 1.3014(9)
H4 H 1.2740 1.2325 1.2506
C5 C 1.394(2) 1.0612(11) 1.3385(7)
C6 C 1.559(2) 1.0021(12) 1.4144(8)
H5 H 1.5779 0.9141 1.4398
C7 C 1.690(2) 1.0743(12) 1.4503(8)
H6 H 1.7960 1.0351 1.5010
C8 C 1.248(2) 0.9800(12) 1.3007(8)
H7 H 1.3677 0.9297 1.2653
H8 H 1.1582 0.9228 1.3541
C9 C 0.930(2) 1.0094(13) 1.1869(8)
C10 C 0.775(2) 1.0961(13) 1.1192(8)
H9 H 0.7699 1.1831 1.1102
C11 C 0.932(2) 0.8818(12) 1.2032(8)
H10 H 1.0291 0.8244 1.2512
C12 C 0.312(2) 0.9478(12) 0.9686(8)
H11 H 0.3991 1.0069 0.9156
H12 H 0.1887 0.9964 1.0042
C13 C 0.170(2) 0.8656(13) 0.9287(8)
C14 C -0.001(2) 0.9247(13) 0.8577(8)
H13 H -0.0237 1.0128 0.8331
C15 C -0.134(2) 0.8509(12) 0.8244(7)
H14 H -0.2487 0.8896 0.7763
C16 C 0.191(2) 0.7400(13) 0.9633(8)
H15 H 0.3019 0.6998 1.0124
C17 C 0.053(3) 0.6668(14) 0.9283(8)
H16 H 0.0712 0.5787 0.9530
C18 C -0.237(2) 0.6462(12) 0.8165(9)
H17 H -0.3850 0.6970 0.7834
H18 H -0.2990 0.5768 0.8682
C19 C -0.048(2) 0.5927(13) 0.7447(8)
N3 N 1.955(3) 1.2952(16) 1.8645(12)
O7 O 1.719(3) 1.3286(13) 1.8884(8)
O8 O 2.000(3) 1.2584(15) 1.7918(11)
O9 O 2.126(3) 1.3033(17) 1.9088(11)
O10 O 0.586(3) 0.6942(12) 0.4412(8)
H19 H 0.5311 0.6313 0.4213
H20 H 0.7528 0.6818 0.4604
O11 O 1.541(3) 1.1114(14) 1.7166(11)
H21 H 1.4339 1.0858 1.6816
H22 H 1.6931 1.1261 1.6782
N4 N 0.233(3) 0.9212(14) 0.6211(9)
O12 O 0.145(2) 1.0307(12) 0.6220(8)
O13 O 0.445(2) 0.8707(12) 0.6519(8)
O14 O 0.112(2) 0.8628(13) 0.5829(9)
C20 C 0.627(2) 1.0507(12) 1.0650(8)
H23 H 0.5245 1.1074 1.0184
C21 C 0.632(2) 0.9209(11) 1.0810(7)
C22 C 0.788(2) 0.8390(11) 1.1473(8)
H24 H 0.7976 0.7521 1.1553
Ag2_2 Ag 0.08002(13) 0.44668(9) 0.59553(7)
Ag3_2 Ag 0.4830(2) 0.34518(16) 0.74669(9)
O6_2 O 0.8384(17) 0.5552(11) 0.6878(7)
Ag1_2 Ag 2.43392(16) 1.64409(11) 1.60032(8)
Ag3_3 Ag 2.4830(2) 1.34518(16) 1.74669(9)
O2_2 O 2.3501(15) 1.3339(9) 1.5153(6)
O6_3 O 1.8384(17) 1.5552(11) 1.6878(7)
Ag1_3 Ag 1.43392(16) 1.64409(11) 1.60032(8)
Ag2_3 Ag 1.08002(13) 1.44668(9) 1.59553(7)
Ag1_4 Ag -0.56608(16) 0.64409(11) 0.60032(8)
N5 N 0.186(4) 0.5738(17) 0.3355(16)
O15 O 0.103(4) 0.6233(19) 0.4046(13)
O16 O 0.410(4) 0.576(2) 0.3031(17)
O17 O 0.025(4) 0.526(2) 0.3101(15)
O18 O 0.570(9) 0.438(3) 0.047(2)
H25 H 0.6190 0.4677 0.0950
H26 H 0.4849 0.3726 0.0877
O19 O 0.051(9) 0.452(4) 0.143(3)
H27 H 0.1824 0.4738 0.1700
H28 H 0.0816 0.4138 0.0933
loop_
_geom_bond_atom_site_label_1
_geom_bond_atom_site_label_2
_geom_bond_site_symmetry_1
_geom_bond_site_symmetry_2
Ag1 O5 1_555 1_555
Ag2 O1 1_555 1_555
Ag3 O1 1_555 1_555
O1 C1 1_555 1_555
O2 C1 1_555 1_555
O3 C8 1_555 1_555
O4 C12 1_555 1_555
O5 C19 1_555 1_555
O6 C19 1_555 1_555
N1 C2 1_555 1_555
N2 C15 1_555 1_555
C1 C2 1_555 1_555
C2 H1 1_555 1_555
H2 C2 1_555 1_555
C3 N1 1_555 1_555
H3 C3 1_555 1_555
C4 C3 1_555 1_555
H4 C4 1_555 1_555
C5 C4 1_555 1_555
C6 C5 1_555 1_555
H5 C6 1_555 1_555
C7 N1 1_555 1_555
H6 C7 1_555 1_555
C8 C5 1_555 1_555
H7 C8 1_555 1_555
H8 C8 1_555 1_555
C9 O3 1_555 1_555
C10 C9 1_555 1_555
H9 C10 1_555 1_555
C11 C9 1_555 1_555
H10 C11 1_555 1_555
C12 H11 1_555 1_555
H12 C12 1_555 1_555
C13 C12 1_555 1_555
C14 C13 1_555 1_555
H13 C14 1_555 1_555
C15 C14 1_555 1_555
H14 C15 1_555 1_555
C16 C13 1_555 1_555
H15 C16 1_555 1_555
C17 N2 1_555 1_555
H16 C17 1_555 1_555
C18 N2 1_555 1_555
H17 C18 1_555 1_555
H18 C18 1_555 1_555
C19 C18 1_555 1_555
N3 O7 1_555 1_555
O7 Ag3 1_555 1_555
O8 N3 1_555 1_555
O9 N3 1_555 1_555
O10 Ag1 1_555 1_555
H19 O10 1_555 1_555
H20 O10 1_555 1_555
O11 Ag3 1_555 1_555
H21 O11 1_555 1_555
H22 O11 1_555 1_555
N4 O12 1_555 1_555
O13 N4 1_555 1_555
O14 Ag1 1_555 1_555
N5 O15 1_555 1_555
O16 N5 1_555 1_555
O17 N5 1_555 1_555
C20 C10 1_555 1_555
H23 C20 1_555 1_555
C21 O4 1_555 1_555
C22 C11 1_555 1_555
H24 C22 1_555 1_555
O18 H25 1_555 1_555
H26 O18 1_555 1_555
O19 H27 1_555 1_555
H28 O19 1_555 1_555
Ag2_2 Ag1 1_555 1_555
Ag3_2 Ag1 1_555 1_555
O6_2 Ag1 1_555 1_555
Ag1_2 Ag2 1_555 1_555
Ag3_3 Ag2 1_555 1_555
O2_2 Ag2 1_555 1_555
O6_3 Ag2 1_555 1_555
Ag1_3 Ag3 1_555 1_555
Ag2_3 Ag3 1_555 1_555
Ag1_4 O6 1_555 1_555
O2 Ag2_3 1_555 1_555
O6 Ag2_2 1_555 1_555
C6 C7 1_555 1_555
C16 C17 1_555 1_555
N4 O14 1_555 1_555
C20 C21 1_555 1_555
C21 C22 1_555 1_555
Ag2_2 Ag3_2 1_555 1_555
Ag1_2 Ag3_3 1_555 1_555
O6_3 Ag1_3 1_555 1_555
Ag1_3 Ag2_3 1_555 1_555

#END
