
#######################################################################
#
#                 Cambridge Crystallographic Data Centre
#                                CCDC 
#
#######################################################################
#
# If this CIF has been generated from an entry in the Cambridge 
# Structural Database, then it will include bibliographic, chemical, 
# crystal, experimental, refinement or atomic coordinate data resulting 
# from the CCDC's data processing and validation procedures.
#
#######################################################################

data_JAMQUK
_symmetry_cell_setting           monoclinic
_symmetry_space_group_name_H-M   'P 21/n'
_symmetry_Int_Tables_number      14
_space_group_name_Hall           '-P 2yn'
loop_
_symmetry_equiv_pos_site_id
_symmetry_equiv_pos_as_xyz
1 x,y,z
2 1/2+x,1/2-y,1/2+z
3 -x,-y,-z
4 1/2-x,1/2+y,1/2-z
_cell_length_a                   6.7852(9)
_cell_length_b                   10.8057(14)
_cell_length_c                   13.5864(18)
_cell_angle_alpha                90
_cell_angle_beta                 99.417(2)
_cell_angle_gamma                90
_cell_volume                     982.715
loop_
_atom_site_label
_atom_site_type_symbol
_atom_site_fract_x
_atom_site_fract_y
_atom_site_fract_z
Ag1 Ag 0.18045(7) 0.45365(4) 0.38882(3)
S1 S 0.49196(18) 0.34258(12) 0.46345(10)
O1 O 0.2136(7) 0.4623(5) 0.2123(4)
O2 O 0.3991(8) 0.4759(5) 0.0993(3)
O3 O 0.5322(8) 0.4740(5) 0.2545(4)
N1 N 0.9576(8) 0.2823(5) 0.3480(4)
N2 N 0.0105(8) 0.3803(5) 0.6062(4)
N3 N 0.3837(8) 0.4708(4) 0.1891(3)
C1 C 0.4752(8) 0.2119(5) 0.3790(4)
H1 H 0.3724 0.1561 0.3942
H2 H 0.4344 0.2415 0.3113
C2 C 0.6693(8) 0.1406(5) 0.3843(4)
H3 H 0.7045 0.1047 0.4503
H4 H 0.6499 0.0733 0.3364
C3 C 0.8343(9) 0.2187(5) 0.3636(4)
C4 C 0.4768(9) 0.2663(6) 0.5799(4)
H5 H 0.5750 0.2003 0.5889
H6 H 0.5143 0.3254 0.6334
C5 C 0.2746(9) 0.2113(5) 0.5911(4)
H7 H 0.2282 0.1588 0.5341
H8 H 0.2905 0.1599 0.6505
C6 C 0.1240(9) 0.3063(6) 0.5987(4)
N1_2 N -0.0424(8) 0.2823(5) 0.3480(4)
N2B N -0.0105(8) 0.6197(5) 0.3938(4)
Ag1_2 Ag 1.18045(7) 0.45365(4) 0.38882(3)
Ag1B Ag -0.18045(7) 0.54635(4) 0.61118(3)
loop_
_geom_bond_atom_site_label_1
_geom_bond_atom_site_label_2
_geom_bond_site_symmetry_1
_geom_bond_site_symmetry_2
Ag1 S1 1_555 1_555
S1 C1 1_555 1_555
O1 Ag1 1_555 1_555
O2 N3 1_555 1_555
O3 N3 1_555 1_555
N1 C3 1_555 1_555
N2 C6 1_555 1_555
N3 O1 1_555 1_555
C1 H1 1_555 1_555
H2 C1 1_555 1_555
C2 C1 1_555 1_555
H3 C2 1_555 1_555
H4 C2 1_555 1_555
C3 C2 1_555 1_555
C4 S1 1_555 1_555
H5 C4 1_555 1_555
H6 C4 1_555 1_555
C5 C4 1_555 1_555
H7 C5 1_555 1_555
H8 C5 1_555 1_555
C6 C5 1_555 1_555
N1_2 Ag1 1_555 1_555
N2B Ag1 1_555 1_555
Ag1_2 N1 1_555 1_555
Ag1B N2 1_555 1_555

#END
