
#######################################################################
#
#                 Cambridge Crystallographic Data Centre
#                                CCDC 
#
#######################################################################
#
# If this CIF has been generated from an entry in the Cambridge 
# Structural Database, then it will include bibliographic, chemical, 
# crystal, experimental, refinement or atomic coordinate data resulting 
# from the CCDC's data processing and validation procedures.
#
#######################################################################

data_JAMSAS
_symmetry_cell_setting           triclinic
_symmetry_space_group_name_H-M   'P -1'
_symmetry_Int_Tables_number      2
_space_group_name_Hall           '-P 1'
loop_
_symmetry_equiv_pos_site_id
_symmetry_equiv_pos_as_xyz
1 x,y,z
2 -x,-y,-z
_cell_length_a                   11.232(4)
_cell_length_b                   11.570(4)
_cell_length_c                   11.728(4)
_cell_angle_alpha                71.251(6)
_cell_angle_beta                 67.067(6)
_cell_angle_gamma                65.244(5)
_cell_volume                     1251.62
loop_
_atom_site_label
_atom_site_type_symbol
_atom_site_fract_x
_atom_site_fract_y
_atom_site_fract_z
Ni1 Ni 0.5000 0.5000 0.5000
Ni2 Ni 1.0000 -0.5000 1.0000
O1 O 0.3945(2) 0.5379(2) 0.6785(2)
O2 O 0.3813(3) 0.5381(5) 0.8707(3)
O3 O 0.6563(2) 0.5502(2) 0.4944(2)
O4 O 0.9911(3) 0.4830(3) 0.6560(2)
O5 O 1.1272(2) -0.4204(2) 1.0042(2)
H1 H 1.2010 -0.4223 0.9444
H2 H 1.1068 -0.3846 1.0654
O6 O 1.1397(3) -0.5539(3) 0.8218(2)
H3 H 1.1322 -0.5013 0.7531
H4 H 1.2024 -0.6278 0.8207
N1 N 0.8163(3) 0.5188(3) 0.5818(3)
H5 H 0.8815 0.5209 0.5044
N2 N 0.7828(3) 0.4857(4) 0.7979(3)
N3 N 0.5972(3) 0.3091(3) 0.5792(3)
N4 N 0.9038(3) -0.3220(3) 0.8994(3)
C1 C 0.4472(4) 0.5342(4) 0.7581(4)
C2 C 0.5954(4) 0.5227(4) 0.7204(3)
C3 C 0.6839(3) 0.5317(3) 0.5942(3)
C4 C 0.8675(4) 0.4951(4) 0.6799(4)
C5 C 0.6529(4) 0.4994(4) 0.8142(4)
H6 H 0.5958 0.4925 0.8968
C6 C 0.5223(4) 0.2406(4) 0.6708(5)
H7 H 0.4272 0.2780 0.6933
C7 C 0.5783(4) 0.1183(4) 0.7333(5)
H8 H 0.5212 0.0754 0.7963
C8 C 0.7192(4) 0.0583(4) 0.7031(4)
C9 C 0.7961(4) 0.1293(4) 0.6092(4)
H9 H 0.8915 0.0943 0.5858
C10 C 0.7330(4) 0.2511(4) 0.5500(4)
H10 H 0.7880 0.2956 0.4861
C11 C 0.7681(4) -0.2703(4) 0.9172(4)
H11 H 0.7136 -0.3189 0.9741
C12 C 0.7048(4) -0.1499(4) 0.8564(4)
H12 H 0.6100 -0.1190 0.8730
C13 C 0.7822(4) -0.0738(4) 0.7699(4)
C14 C 0.9238(4) -0.1284(4) 0.7497(4)
H13 H 0.9812 -0.0828 0.6923
C15 C 0.9779(4) -0.2494(4) 0.8148(4)
H14 H 1.0727 -0.2835 0.7990
O1A O 0.6055(2) 0.4621(2) 0.3215(2)
O2A O 0.6187(3) 0.4619(5) 0.1293(3)
O3A O 0.3437(2) 0.4498(2) 0.5056(2)
O4A O 0.0089(3) 0.5170(3) 0.3440(2)
N1A N 0.1837(3) 0.4812(3) 0.4182(3)
H5A H 0.1185 0.4791 0.4956
N2A N 0.2172(3) 0.5143(4) 0.2021(3)
C1A C 0.5528(4) 0.4658(4) 0.2419(4)
C2A C 0.4046(4) 0.4773(4) 0.2796(3)
C3A C 0.3161(3) 0.4683(3) 0.4058(3)
C4A C 0.1325(4) 0.5049(4) 0.3201(4)
C5A C 0.3471(4) 0.5006(4) 0.1858(4)
H6A H 0.4042 0.5075 0.1032
N3A N 0.4028(3) 0.6909(3) 0.4208(3)
N4A N 0.0962(3) 1.3220(3) 0.1006(3)
C6A C 0.4777(4) 0.7594(4) 0.3292(5)
H7A H 0.5728 0.7220 0.3067
C7A C 0.4217(4) 0.8817(4) 0.2667(5)
H8A H 0.4788 0.9246 0.2037
C8A C 0.2808(4) 0.9417(4) 0.2969(4)
C9A C 0.2039(4) 0.8707(4) 0.3908(4)
H9A H 0.1085 0.9057 0.4142
C10A C 0.2670(4) 0.7489(4) 0.4500(4)
H10A H 0.2120 0.7044 0.5139
C11A C 0.2319(4) 1.2703(4) 0.0828(4)
H11A H 0.2864 1.3189 0.0259
C12A C 0.2952(4) 1.1499(4) 0.1436(4)
H12A H 0.3900 1.1190 0.1270
C13A C 0.2178(4) 1.0738(4) 0.2301(4)
C14A C 0.0762(4) 1.1284(4) 0.2503(4)
H13A H 0.0188 1.0828 0.3077
C15A C 0.0221(4) 1.2494(4) 0.1852(4)
H14A H -0.0727 1.2835 0.2010
O5A O 0.8728(2) -0.5796(2) 0.9958(2)
H1A H 0.7990 -0.5777 1.0556
H2A H 0.8932 -0.6154 0.9346
O6A O 0.8603(3) -0.4461(3) 1.1782(2)
H3A H 0.8678 -0.4987 1.2469
H4A H 0.7976 -0.3722 1.1793
N4A_2 N 1.0962(3) -0.6780(3) 1.1006(3)
Ni2_2 Ni 0.0000 1.5000 0.0000
N5 N 0.1426(5) 0.0429(5) 0.6236(6)
C16 C 0.2366(6) -0.0652(7) 0.6538(6)
H15 H 0.2071 -0.1323 0.7101
C17 C 0.3770(6) -0.0879(6) 0.6085(6)
H16 H 0.4379 -0.1682 0.6334
C18 C 0.4253(5) 0.0093(5) 0.5264(5)
C19 C 0.3259(6) 0.1234(6) 0.4935(8)
H17 H 0.3513 0.1926 0.4370
C20 C 0.1889(6) 0.1347(6) 0.5444(9)
H18 H 0.1249 0.2132 0.5207
C18A C 0.5747(5) -0.0093(5) 0.4736(5)
C17A C 0.6230(6) 0.0879(6) 0.3915(6)
C16A C 0.7634(6) 0.0652(7) 0.3462(6)
N5A N 0.8574(5) -0.0429(5) 0.3764(6)
C20A C 0.8111(6) -0.1347(6) 0.4556(9)
C19A C 0.6741(6) -0.1234(6) 0.5065(8)
H17A H 0.6487 -0.1926 0.5630
H18A H 0.8751 -0.2132 0.4793
H15A H 0.7929 0.1323 0.2899
H16A H 0.5621 0.1682 0.3666
N6 N 0.3519(4) 0.9669(4) 0.9137(5)
C21 C 0.3067(5) 0.8690(6) 0.9736(7)
H19 H 0.3708 0.7887 0.9928
C22 C 0.1717(5) 0.8758(5) 1.0104(6)
H20 H 0.1472 0.8023 1.0533
C23 C 0.0733(4) 0.9933(5) 0.9826(5)
C24 C 0.1182(5) 1.0969(5) 0.9228(5)
H21 H 0.0562 1.1788 0.9037
C25 C 0.2564(5) 1.0795(5) 0.8909(6)
H22 H 0.2837 1.1518 0.8508
C23A C -0.0733(4) 1.0067(5) 1.0174(5)
C22A C -0.1717(5) 1.1242(5) 0.9896(6)
C21A C -0.3067(5) 1.1310(6) 1.0264(7)
N6A N -0.3519(4) 1.0331(4) 1.0863(5)
C25A C -0.2564(5) 0.9205(5) 1.1091(6)
C24A C -0.1182(5) 0.9031(5) 1.0772(5)
H21A H -0.0562 0.8212 1.0963
H22A H -0.2837 0.8482 1.1492
H19A H -0.3708 1.2113 1.0072
H20A H -0.1472 1.1977 0.9467
loop_
_geom_bond_atom_site_label_1
_geom_bond_atom_site_label_2
_geom_bond_site_symmetry_1
_geom_bond_site_symmetry_2
Ni1 O1 1_555 1_555
Ni2 O5 1_555 1_555
O1 C1 1_555 1_555
O2 C1 1_555 1_555
O3 Ni1 1_555 1_555
O4 C4 1_555 1_555
O5 H1 1_555 1_555
H2 O5 1_555 1_555
O6 Ni2 1_555 1_555
H3 O6 1_555 1_555
H4 O6 1_555 1_555
N1 H5 1_555 1_555
N2 C4 1_555 1_555
N3 Ni1 1_555 1_555
N4 Ni2 1_555 1_555
C1 C2 1_555 1_555
C2 C3 1_555 1_555
C3 O3 1_555 1_555
C4 N1 1_555 1_555
C5 N2 1_555 1_555
H6 C5 1_555 1_555
C6 N3 1_555 1_555
H7 C6 1_555 1_555
C7 C6 1_555 1_555
H8 C7 1_555 1_555
C8 C7 1_555 1_555
C9 C8 1_555 1_555
H9 C9 1_555 1_555
C10 N3 1_555 1_555
H10 C10 1_555 1_555
C11 N4 1_555 1_555
H11 C11 1_555 1_555
C12 C11 1_555 1_555
H12 C12 1_555 1_555
C13 C8 1_555 1_555
C14 C13 1_555 1_555
H13 C14 1_555 1_555
C15 N4 1_555 1_555
H14 C15 1_555 1_555
N5 C16 1_555 1_555
C16 H15 1_555 1_555
C17 C16 1_555 1_555
H16 C17 1_555 1_555
C18 C17 1_555 1_555
C19 C18 1_555 1_555
H17 C19 1_555 1_555
C20 N5 1_555 1_555
H18 C20 1_555 1_555
N6 C21 1_555 1_555
C21 H19 1_555 1_555
C22 C21 1_555 1_555
H20 C22 1_555 1_555
C23 C22 1_555 1_555
C24 C23 1_555 1_555
H21 C24 1_555 1_555
C25 N6 1_555 1_555
H22 C25 1_555 1_555
C18A C18 1_555 1_555
C17A C18A 1_555 1_555
C16A C17A 1_555 1_555
N5A C16A 1_555 1_555
C20A N5A 1_555 1_555
C19A C18A 1_555 1_555
H17A C19A 1_555 1_555
H18A C20A 1_555 1_555
H15A C16A 1_555 1_555
H16A C17A 1_555 1_555
C23A C23 1_555 1_555
C22A C23A 1_555 1_555
C21A C22A 1_555 1_555
N6A C21A 1_555 1_555
C25A N6A 1_555 1_555
C24A C23A 1_555 1_555
H21A C24A 1_555 1_555
H22A C25A 1_555 1_555
H19A C21A 1_555 1_555
H20A C22A 1_555 1_555
O1A Ni1 1_555 1_555
O2A C1A 1_555 1_555
O3A Ni1 1_555 1_555
O4A C4A 1_555 1_555
N1A H5A 1_555 1_555
N2A C4A 1_555 1_555
C1A O1A 1_555 1_555
C2A C1A 1_555 1_555
C3A O3A 1_555 1_555
C4A N1A 1_555 1_555
C5A N2A 1_555 1_555
H6A C5A 1_555 1_555
N3A Ni1 1_555 1_555
N4A C11A 1_555 1_555
C6A N3A 1_555 1_555
H7A C6A 1_555 1_555
C7A C6A 1_555 1_555
H8A C7A 1_555 1_555
C8A C7A 1_555 1_555
C9A C8A 1_555 1_555
H9A C9A 1_555 1_555
C10A N3A 1_555 1_555
H10A C10A 1_555 1_555
C11A H11A 1_555 1_555
C12A C11A 1_555 1_555
H12A C12A 1_555 1_555
C13A C8A 1_555 1_555
C14A C13A 1_555 1_555
H13A C14A 1_555 1_555
C15A N4A 1_555 1_555
H14A C15A 1_555 1_555
O5A Ni2 1_555 1_555
H1A O5A 1_555 1_555
H2A O5A 1_555 1_555
O6A Ni2 1_555 1_555
H3A O6A 1_555 1_555
H4A O6A 1_555 1_555
N4A_2 Ni2 1_555 1_555
Ni2_2 N4A 1_555 1_555
N1 C3 1_555 1_555
C2 C5 1_555 1_555
C9 C10 1_555 1_555
C12 C13 1_555 1_555
C14 C15 1_555 1_555
C19 C20 1_555 1_555
C24 C25 1_555 1_555
C20A C19A 1_555 1_555
C25A C24A 1_555 1_555
N1A C3A 1_555 1_555
C2A C3A 1_555 1_555
C2A C5A 1_555 1_555
C9A C10A 1_555 1_555
C12A C13A 1_555 1_555
C14A C15A 1_555 1_555

#END
