
#######################################################################
#
#                 Cambridge Crystallographic Data Centre
#                                CCDC 
#
#######################################################################
#
# If this CIF has been generated from an entry in the Cambridge 
# Structural Database, then it will include bibliographic, chemical, 
# crystal, experimental, refinement or atomic coordinate data resulting 
# from the CCDC's data processing and validation procedures.
#
#######################################################################

data_JAMSEW
_symmetry_cell_setting           triclinic
_symmetry_space_group_name_H-M   'P -1'
_symmetry_Int_Tables_number      2
_space_group_name_Hall           '-P 1'
loop_
_symmetry_equiv_pos_site_id
_symmetry_equiv_pos_as_xyz
1 x,y,z
2 -x,-y,-z
_cell_length_a                   11.241(3)
_cell_length_b                   11.553(3)
_cell_length_c                   11.736(3)
_cell_angle_alpha                72.094(4)
_cell_angle_beta                 67.041(5)
_cell_angle_gamma                65.249(5)
_cell_volume                     1255.39
loop_
_atom_site_label
_atom_site_type_symbol
_atom_site_fract_x
_atom_site_fract_y
_atom_site_fract_z
Co1 Co 0.5000 0.5000 0.5000
Co2 Co 1.0000 -0.5000 1.0000
O1 O 0.3936(3) 0.5415(3) 0.6786(3)
O2 O 0.3825(4) 0.5394(6) 0.8710(3)
O3 O 0.6558(3) 0.5521(3) 0.4958(2)
O4 O 0.9922(3) 0.4803(4) 0.6554(3)
O5 O 1.1290(3) -0.4225(3) 1.0049(3)
H1 H 1.2028 -0.4245 0.9451
H2 H 1.1086 -0.3868 1.0661
O6 O 1.1427(3) -0.5542(3) 0.8172(3)
H3 H 1.1352 -0.5016 0.7485
H4 H 1.2054 -0.6281 0.8161
N1 N 0.8167(4) 0.5178(4) 0.5828(3)
H5 H 0.8819 0.5199 0.5053
N2 N 0.7842(4) 0.4819(5) 0.7981(3)
N3 N 0.5992(4) 0.3072(4) 0.5809(3)
N4 N 0.9025(4) -0.3192(4) 0.8987(3)
C1 C 0.4479(5) 0.5357(5) 0.7584(4)
C2 C 0.5959(4) 0.5219(5) 0.7221(4)
C3 C 0.6849(4) 0.5319(4) 0.5950(4)
C4 C 0.8685(5) 0.4930(5) 0.6793(4)
C5 C 0.6551(5) 0.4974(5) 0.8138(4)
H6 H 0.5982 0.4908 0.8963
C6 C 0.5234(5) 0.2401(5) 0.6717(5)
H7 H 0.4282 0.2781 0.6941
C7 C 0.5789(5) 0.1180(5) 0.7335(5)
H8 H 0.5213 0.0754 0.7948
C8 C 0.7195(5) 0.0584(5) 0.7053(5)
C9 C 0.7983(5) 0.1285(5) 0.6132(5)
H9 H 0.8937 0.0939 0.5911
C10 C 0.7341(5) 0.2502(5) 0.5544(5)
H10 H 0.7893 0.2947 0.4924
C11 C 0.7676(5) -0.2677(5) 0.9159(5)
H11 H 0.7131 -0.3161 0.9718
C12 C 0.7034(5) -0.1470(5) 0.8559(5)
H12 H 0.6086 -0.1158 0.8723
C13 C 0.7821(5) -0.0728(5) 0.7709(5)
C14 C 0.9233(5) -0.1278(6) 0.7515(5)
H13 H 0.9808 -0.0825 0.6953
C15 C 0.9780(5) -0.2489(5) 0.8154(5)
H14 H 1.0728 -0.2837 0.7997
O1A O 0.6064(3) 0.4585(3) 0.3214(3)
O2A O 0.6175(4) 0.4606(6) 0.1290(3)
O3A O 0.3442(3) 0.4479(3) 0.5042(2)
O4A O 0.0078(3) 0.5197(4) 0.3446(3)
N1A N 0.1833(4) 0.4822(4) 0.4172(3)
H5A H 0.1181 0.4801 0.4947
N2A N 0.2158(4) 0.5181(5) 0.2019(3)
C1A C 0.5521(5) 0.4643(5) 0.2416(4)
C2A C 0.4041(4) 0.4781(5) 0.2779(4)
C3A C 0.3151(4) 0.4681(4) 0.4050(4)
C4A C 0.1315(5) 0.5070(5) 0.3207(4)
C5A C 0.3449(5) 0.5026(5) 0.1862(4)
H6A H 0.4018 0.5092 0.1037
N3A N 0.4008(4) 0.6928(4) 0.4191(3)
N4A N 0.0975(4) 1.3192(4) 0.1013(3)
C6A C 0.4766(5) 0.7599(5) 0.3283(5)
H7A H 0.5718 0.7219 0.3059
C7A C 0.4211(5) 0.8820(5) 0.2665(5)
H8A H 0.4787 0.9246 0.2052
C8A C 0.2805(5) 0.9416(5) 0.2947(5)
C9A C 0.2017(5) 0.8715(5) 0.3868(5)
H9A H 0.1063 0.9061 0.4089
C10A C 0.2659(5) 0.7498(5) 0.4456(5)
H10A H 0.2107 0.7053 0.5076
C11A C 0.2324(5) 1.2677(5) 0.0841(5)
H11A H 0.2869 1.3161 0.0282
C12A C 0.2966(5) 1.1470(5) 0.1441(5)
H12A H 0.3914 1.1158 0.1277
C13A C 0.2179(5) 1.0728(5) 0.2291(5)
C14A C 0.0767(5) 1.1278(6) 0.2485(5)
H13A H 0.0192 1.0825 0.3047
C15A C 0.0220(5) 1.2489(5) 0.1846(5)
H14A H -0.0728 1.2837 0.2003
O5A O 0.8710(3) -0.5775(3) 0.9951(3)
H1A H 0.7972 -0.5755 1.0549
H2A H 0.8914 -0.6132 0.9339
O6A O 0.8573(3) -0.4458(3) 1.1828(3)
H3A H 0.8648 -0.4984 1.2515
H4A H 0.7946 -0.3719 1.1839
N4A_2 N 1.0975(4) -0.6808(4) 1.1013(3)
Co2_2 Co 0.0000 1.5000 0.0000
N5 N 0.1430(6) 0.0420(7) 0.6239(6)
C16 C 0.2394(8) -0.0674(8) 0.6514(7)
H15 H 0.2112 -0.1354 0.7056
C17 C 0.3782(7) -0.0882(7) 0.6059(6)
H16 H 0.4399 -0.1682 0.6291
C18 C 0.4262(6) 0.0089(6) 0.5264(6)
C19 C 0.3257(8) 0.1229(7) 0.4974(9)
H17 H 0.3504 0.1928 0.4436
C20 C 0.1887(8) 0.1338(8) 0.5479(10)
H18 H 0.1243 0.2124 0.5260
C18A C 0.5738(6) -0.0089(6) 0.4736(6)
C17A C 0.6218(7) 0.0882(7) 0.3941(6)
C16A C 0.7606(8) 0.0674(8) 0.3486(7)
N5A N 0.8570(6) -0.0420(7) 0.3761(6)
C20A C 0.8113(8) -0.1338(8) 0.4521(10)
C19A C 0.6743(8) -0.1229(7) 0.5026(9)
H17A H 0.6496 -0.1928 0.5564
H18A H 0.8757 -0.2124 0.4740
H15A H 0.7888 0.1354 0.2944
H16A H 0.5601 0.1682 0.3709
N6 N 0.3521(5) 0.9674(5) 0.9099(5)
C21 C 0.3088(7) 0.8684(7) 0.9693(8)
H19 H 0.3735 0.7880 0.9865
C22 C 0.1733(6) 0.8770(6) 1.0073(8)
H20 H 0.1489 0.8040 1.0503
C23 C 0.0736(5) 0.9932(6) 0.9819(5)
C24 C 0.1180(6) 1.0973(6) 0.9207(6)
H21 H 0.0561 1.1787 0.9014
C25 C 0.2562(6) 1.0783(7) 0.8885(6)
H22 H 0.2836 1.1501 0.8483
C23A C -0.0736(5) 1.0068(6) 1.0181(5)
C22A C -0.1733(6) 1.1230(6) 0.9927(8)
C21A C -0.3088(7) 1.1316(7) 1.0307(8)
N6A N -0.3521(5) 1.0326(5) 1.0901(5)
C25A C -0.2562(6) 0.9217(7) 1.1115(6)
C24A C -0.1180(6) 0.9027(6) 1.0793(6)
H21A H -0.0561 0.8213 1.0986
H22A H -0.2836 0.8499 1.1517
H19A H -0.3735 1.2120 1.0135
H20A H -0.1489 1.1960 0.9497
loop_
_geom_bond_atom_site_label_1
_geom_bond_atom_site_label_2
_geom_bond_site_symmetry_1
_geom_bond_site_symmetry_2
Co1 O1 1_555 1_555
Co2 O5 1_555 1_555
O1 C1 1_555 1_555
O2 C1 1_555 1_555
O3 Co1 1_555 1_555
O4 C4 1_555 1_555
O5 H1 1_555 1_555
H2 O5 1_555 1_555
O6 Co2 1_555 1_555
H3 O6 1_555 1_555
H4 O6 1_555 1_555
N1 H5 1_555 1_555
N2 C4 1_555 1_555
N3 Co1 1_555 1_555
N4 Co2 1_555 1_555
C1 C2 1_555 1_555
C2 C3 1_555 1_555
C3 O3 1_555 1_555
C4 N1 1_555 1_555
C5 N2 1_555 1_555
H6 C5 1_555 1_555
C6 N3 1_555 1_555
H7 C6 1_555 1_555
C7 C6 1_555 1_555
H8 C7 1_555 1_555
C8 C7 1_555 1_555
C9 C8 1_555 1_555
H9 C9 1_555 1_555
C10 N3 1_555 1_555
H10 C10 1_555 1_555
C11 N4 1_555 1_555
H11 C11 1_555 1_555
C12 C11 1_555 1_555
H12 C12 1_555 1_555
C13 C8 1_555 1_555
C14 C13 1_555 1_555
H13 C14 1_555 1_555
C15 N4 1_555 1_555
H14 C15 1_555 1_555
N5 C16 1_555 1_555
C16 H15 1_555 1_555
C17 C16 1_555 1_555
H16 C17 1_555 1_555
C18 C17 1_555 1_555
C19 C18 1_555 1_555
H17 C19 1_555 1_555
C20 N5 1_555 1_555
H18 C20 1_555 1_555
N6 C21 1_555 1_555
C21 H19 1_555 1_555
C22 C21 1_555 1_555
H20 C22 1_555 1_555
C23 C22 1_555 1_555
C24 C23 1_555 1_555
H21 C24 1_555 1_555
C25 N6 1_555 1_555
H22 C25 1_555 1_555
C18A C18 1_555 1_555
C17A C18A 1_555 1_555
C16A C17A 1_555 1_555
N5A C16A 1_555 1_555
C20A N5A 1_555 1_555
C19A C18A 1_555 1_555
H17A C19A 1_555 1_555
H18A C20A 1_555 1_555
H15A C16A 1_555 1_555
H16A C17A 1_555 1_555
C23A C23 1_555 1_555
C22A C23A 1_555 1_555
C21A C22A 1_555 1_555
N6A C21A 1_555 1_555
C25A N6A 1_555 1_555
C24A C23A 1_555 1_555
H21A C24A 1_555 1_555
H22A C25A 1_555 1_555
H19A C21A 1_555 1_555
H20A C22A 1_555 1_555
O1A Co1 1_555 1_555
O2A C1A 1_555 1_555
O3A Co1 1_555 1_555
O4A C4A 1_555 1_555
N1A H5A 1_555 1_555
N2A C4A 1_555 1_555
C1A O1A 1_555 1_555
C2A C1A 1_555 1_555
C3A O3A 1_555 1_555
C4A N1A 1_555 1_555
C5A N2A 1_555 1_555
H6A C5A 1_555 1_555
N3A Co1 1_555 1_555
N4A C11A 1_555 1_555
C6A N3A 1_555 1_555
H7A C6A 1_555 1_555
C7A C6A 1_555 1_555
H8A C7A 1_555 1_555
C8A C7A 1_555 1_555
C9A C8A 1_555 1_555
H9A C9A 1_555 1_555
C10A N3A 1_555 1_555
H10A C10A 1_555 1_555
C11A H11A 1_555 1_555
C12A C11A 1_555 1_555
H12A C12A 1_555 1_555
C13A C8A 1_555 1_555
C14A C13A 1_555 1_555
H13A C14A 1_555 1_555
C15A N4A 1_555 1_555
H14A C15A 1_555 1_555
O5A Co2 1_555 1_555
H1A O5A 1_555 1_555
H2A O5A 1_555 1_555
O6A Co2 1_555 1_555
H3A O6A 1_555 1_555
H4A O6A 1_555 1_555
N4A_2 Co2 1_555 1_555
Co2_2 N4A 1_555 1_555
N1 C3 1_555 1_555
C2 C5 1_555 1_555
C9 C10 1_555 1_555
C12 C13 1_555 1_555
C14 C15 1_555 1_555
C19 C20 1_555 1_555
C24 C25 1_555 1_555
C20A C19A 1_555 1_555
C25A C24A 1_555 1_555
N1A C3A 1_555 1_555
C2A C3A 1_555 1_555
C2A C5A 1_555 1_555
C9A C10A 1_555 1_555
C12A C13A 1_555 1_555
C14A C15A 1_555 1_555

#END
