
#######################################################################
#
#                 Cambridge Crystallographic Data Centre
#                                CCDC 
#
#######################################################################
#
# If this CIF has been generated from an entry in the Cambridge 
# Structural Database, then it will include bibliographic, chemical, 
# crystal, experimental, refinement or atomic coordinate data resulting 
# from the CCDC's data processing and validation procedures.
#
#######################################################################

data_JANLUF
_symmetry_cell_setting           monoclinic
_symmetry_space_group_name_H-M   'P 21'
_symmetry_Int_Tables_number      4
_space_group_name_Hall           'P 2yb'
loop_
_symmetry_equiv_pos_site_id
_symmetry_equiv_pos_as_xyz
1 x,y,z
2 -x,1/2+y,-z
_cell_length_a                   9.584(4)
_cell_length_b                   5.389(2)
_cell_length_c                   14.866(5)
_cell_angle_alpha                90
_cell_angle_beta                 106.84(3)
_cell_angle_gamma                90
_cell_volume                     734.877
loop_
_atom_site_label
_atom_site_type_symbol
_atom_site_fract_x
_atom_site_fract_y
_atom_site_fract_z
Zn1 Zn -0.2616(1) -0.0700 0.0343(1)
O1 O -0.4513(6) 0.152(1) -0.0003(4)
O2 O -0.0530(6) -0.232(2) 0.0606(4)
O3 O -0.6604(5) 0.200(1) -0.1136(4)
O4 O 0.1795(6) -0.145(2) 0.1355(5)
N1 N -0.3187(6) -0.107(2) -0.1068(4)
N2 N -0.1341(7) 0.219(2) 0.1024(5)
C1 C 0.0461(7) -0.101(3) 0.1178(5)
C2 C -0.0026(8) 0.112(2) 0.1696(6)
C3 C -0.0455(9) 0.009(2) 0.2535(6)
C4 C 0.069(1) -0.148(4) 0.3248(7)
C5 C 0.000(2) -0.279(4) 0.3935(9)
C6 C 0.194(1) 0.003(5) 0.3812(9)
C7 C -0.5272(8) 0.128(2) -0.0813(6)
C8 C -0.4625(7) 0.012(2) -0.1545(6)
C9 C -0.5695(8) -0.167(2) -0.2225(6)
C10 C -0.516(1) -0.262(2) -0.3042(6)
C11 C -0.637(1) -0.418(3) -0.3672(7)
C12 C -0.474(1) -0.061(4) -0.3605(7)
H1 H -0.2523(6) -0.009(2) -0.1428(4)
H2 H -0.3404(6) -0.292(2) -0.1350(4)
H3 H -0.1934(7) 0.329(2) 0.1400(5)
H4 H -0.1035(7) 0.336(2) 0.0520(5)
H5 H 0.0832(8) 0.247(2) 0.1928(6)
H6 H -0.0708(9) 0.166(2) 0.2911(6)
H7 H -0.1419(9) -0.104(2) 0.2267(6)
H8 H 0.108(1) -0.283(4) 0.2842(7)
H9 H -0.090(2) -0.391(4) 0.3542(9)
H10 H -0.037(2) -0.144(4) 0.4348(9)
H11 H 0.082(2) -0.397(4) 0.4395(9)
H12 H 0.242(1) 0.099(5) 0.3338(9)
H13 H 0.274(1) -0.116(5) 0.4272(9)
H14 H 0.155(1) 0.137(5) 0.4225(9)
H15 H -0.4630(7) 0.114(2) -0.2170(6)
H16 H -0.5340(8) -0.246(2) -0.1528(6)
H17 H -0.6084(8) 0.020(2) -0.2186(6)
H18 H -0.419(1) -0.372(2) -0.2756(6)
H19 H -0.667(1) -0.563(3) -0.3260(7)
H20 H -0.599(1) -0.500(3) -0.4221(7)
H21 H -0.731(1) -0.303(3) -0.3983(7)
H22 H -0.388(1) 0.049(4) -0.3144(7)
H23 H -0.567(1) 0.056(4) -0.3915(7)
H24 H -0.435(1) -0.141(4) -0.4153(7)
O3A O -0.3396(5) -0.300(1) 0.1136(4)
Zn1A Zn -0.7384(1) 0.4300 -0.0343(1)
loop_
_geom_bond_atom_site_label_1
_geom_bond_atom_site_label_2
_geom_bond_site_symmetry_1
_geom_bond_site_symmetry_2
Zn1 O1 1_555 1_555
O1 C7 1_555 1_555
O2 Zn1 1_555 1_555
O3 C7 1_555 1_555
O4 C1 1_555 1_555
N1 Zn1 1_555 1_555
N2 Zn1 1_555 1_555
C1 O2 1_555 1_555
C2 N2 1_555 1_555
C3 C2 1_555 1_555
C4 C3 1_555 1_555
C5 C4 1_555 1_555
C6 C4 1_555 1_555
C7 C8 1_555 1_555
C8 N1 1_555 1_555
C9 C8 1_555 1_555
C10 C9 1_555 1_555
C11 C10 1_555 1_555
C12 C10 1_555 1_555
H1 N1 1_555 1_555
H2 N1 1_555 1_555
H3 N2 1_555 1_555
H4 N2 1_555 1_555
H5 C2 1_555 1_555
H6 C3 1_555 1_555
H7 C3 1_555 1_555
H8 C4 1_555 1_555
H9 C5 1_555 1_555
H10 C5 1_555 1_555
H11 C5 1_555 1_555
H12 C6 1_555 1_555
H13 C6 1_555 1_555
H14 C6 1_555 1_555
H15 C8 1_555 1_555
H16 C9 1_555 1_555
H17 C9 1_555 1_555
H18 C10 1_555 1_555
H19 C11 1_555 1_555
H20 C11 1_555 1_555
H21 C11 1_555 1_555
H22 C12 1_555 1_555
H23 C12 1_555 1_555
H24 C12 1_555 1_555
O3A Zn1 1_555 1_555
Zn1A O3 1_555 1_555
C1 C2 1_555 1_555

#END
