
#######################################################################
#
#                 Cambridge Crystallographic Data Centre
#                                CCDC 
#
#######################################################################
#
# If this CIF has been generated from an entry in the Cambridge 
# Structural Database, then it will include bibliographic, chemical, 
# crystal, experimental, refinement or atomic coordinate data resulting 
# from the CCDC's data processing and validation procedures.
#
#######################################################################

data_JANQOF
_symmetry_cell_setting           orthorhombic
_symmetry_space_group_name_H-M   'F d d 2'
_symmetry_Int_Tables_number      43
_space_group_name_Hall           'F 2 -2d'
loop_
_symmetry_equiv_pos_site_id
_symmetry_equiv_pos_as_xyz
1 x,y,z
2 -x,-y,z
3 1/4+x,1/4-y,1/4+z
4 1/4-x,1/4+y,1/4+z
5 x,1/2+y,1/2+z
6 -x,1/2-y,1/2+z
7 1/4+x,3/4-y,3/4+z
8 1/4-x,3/4+y,3/4+z
9 1/2+x,y,1/2+z
10 1/2-x,-y,1/2+z
11 3/4+x,1/4-y,3/4+z
12 3/4-x,1/4+y,3/4+z
13 1/2+x,1/2+y,z
14 1/2-x,1/2-y,z
15 3/4+x,3/4-y,1/4+z
16 3/4-x,3/4+y,1/4+z
_cell_length_a                   20.2071(18)
_cell_length_b                   52.044(4)
_cell_length_c                   12.6997(12)
_cell_angle_alpha                90
_cell_angle_beta                 90
_cell_angle_gamma                90
_cell_volume                     13355.7
loop_
_atom_site_label
_atom_site_type_symbol
_atom_site_fract_x
_atom_site_fract_y
_atom_site_fract_z
Ag1 Ag -0.578137(10) -0.590255(4) 0.999642(15)
Ag2 Ag -0.748838(9) -0.513794(4) 0.377757(18)
O1 O -0.38537(14) -0.63399(6) 0.9546(3)
O2 O -0.49051(11) -0.62902(5) 0.9496(2)
O3 O -0.43277(13) -0.62190(6) 0.8113(2)
O4 O -0.70583(9) -0.55097(4) 0.24694(17)
O5 O -0.70639(15) -0.56523(5) 0.0887(2)
O6 O -0.76891(11) -0.53361(5) 0.1307(2)
N1 N -0.61246(11) -0.59805(4) 0.84209(18)
N2 N -0.57026(12) -0.60801(4) 0.76914(19)
N3 N -0.73751(11) -0.54970(4) 0.48486(18)
N4 N -0.74874(12) -0.57390(5) 0.44980(19)
N5 N -0.46872(10) -0.42778(4) 0.13194(19)
N6 N -0.56709(11) -0.56552(4) -0.78196(18)
N7 N -0.67536(10) -0.48274(4) 0.35913(18)
N8 N -0.66771(10) -0.46394(4) 0.43219(18)
N9 N -0.14055(10) -0.48502(4) -0.64525(18)
N10 N -0.11213(11) -0.46604(5) -0.7026(2)
N11 N -0.43565(12) -0.62858(5) 0.9064(2)
N12 N -0.72755(11) -0.55005(4) 0.15456(17)
C1 C -0.59077(13) -0.60322(5) 0.6705(2)
C2 C -0.64918(12) -0.58962(5) 0.6781(2)
C3 C -0.66143(13) -0.58691(5) 0.7863(2)
C4 C -0.71876(14) -0.57451(6) 0.8390(2)
H1 H -0.7575 -0.5770 0.7965
H2 H -0.7110 -0.5564 0.8477
H3 H -0.7259 -0.5820 0.9071
C5 C -0.55228(16) -0.61188(6) 0.5764(3)
H4 H -0.5063 -0.6128 0.5951
H5 H -0.5575 -0.6001 0.5188
H6 H -0.5669 -0.6286 0.5542
C6 C -0.72036(12) -0.59173(5) 0.5114(2)
C7 C -0.68864(12) -0.57864(5) 0.59202(19)
C8 C -0.70133(12) -0.55241(5) 0.5721(2)
C9 C -0.67897(16) -0.52927(5) 0.6319(3)
H7 H -0.6539 -0.5183 0.5859
H8 H -0.6517 -0.5343 0.6903
H9 H -0.7164 -0.5199 0.6585
C10 C -0.72474(18) -0.61987(5) 0.4880(3)
H10 H -0.7250 -0.6296 0.5523
H11 H -0.6876 -0.6248 0.4454
H12 H -0.7643 -0.6232 0.4484
C11 C -0.53157(12) -0.43440(5) 0.1539(2)
C12 C -0.53494(11) -0.44532(4) 0.2555(2)
C13 C -0.52969(12) -0.55471(5) -0.7068(2)
C14 C -0.55864(14) -0.54481(7) -0.6067(2)
H13 H -0.6014 -0.5375 -0.6199
H14 H -0.5298 -0.5321 -0.5771
H15 H -0.5625 -0.5587 -0.5571
C15 C -0.41428(16) -0.57031(7) -0.9231(3)
H16 H -0.4242 -0.5852 -0.9649
H17 H -0.3735 -0.5728 -0.8857
H18 H -0.4092 -0.5555 -0.9675
C16 C -0.62996(12) -0.47778(5) 0.2848(2)
C17 C -0.59321(11) -0.45573(5) 0.31169(19)
C18 C -0.61918(12) -0.44729(5) 0.4064(2)
C19 C -0.60419(15) -0.42434(6) 0.4722(2)
H19 H -0.5639 -0.4161 0.4505
H20 H -0.6020 -0.4299 0.5442
H21 H -0.6413 -0.4129 0.4666
C20 C -0.62374(17) -0.49424(6) 0.1894(3)
H22 H -0.6092 -0.4847 0.1290
H23 H -0.6662 -0.5021 0.1786
H24 H -0.5937 -0.5078 0.2075
C21 C -0.09165(11) -0.50177(4) -0.6258(2)
C22 C -0.03216(11) -0.49339(5) -0.6730(2)
C23 C -0.04782(12) -0.47027(6) -0.7206(2)
C24 C 0.00615(17) -0.54833(8) -0.7818(4)
H25 H -0.0096 -0.5401 -0.8446
H26 H -0.0310 -0.5539 -0.7405
H27 H 0.0318 -0.5631 -0.8009
C25 C -0.10280(15) -0.52506(5) -0.5609(3)
H28 H -0.1378 -0.5220 -0.5114
H29 H -0.0627 -0.5294 -0.5243
H30 H -0.1139 -0.5392 -0.6061
H31 H -0.5346(19) -0.6143(7) 0.784(3)
H32 H -0.7695(15) -0.5761(6) 0.392(3)
H33 H -0.607(2) -0.5698(7) -0.775(3)
H34 H -0.6903(15) -0.4640(5) 0.482(3)
H37 H 0.1327(17) -0.5451(7) -0.720(3)
Ag1A Ag -0.421863(10) -0.409745(4) -0.000358(15)
Ag1_2 Ag -0.578137(10) -0.590255(4) -1.000358(15)
Ag2A Ag -0.251162(9) -0.486206(4) -0.622243(18)
Ag2_2 Ag 0.251162(9) -0.513794(4) -0.622243(18)
O1A O -0.61463(14) -0.36601(6) -0.0454(3)
O2A O -0.50949(11) -0.37098(5) -0.0504(2)
O3A O -0.56723(13) -0.37810(6) -0.1887(2)
O4A O -0.29417(9) -0.44903(4) -0.75306(17)
O5A O -0.29361(15) -0.43477(5) -0.9113(2)
O6A O -0.23109(11) -0.46639(5) -0.8693(2)
N1A N -0.38754(11) -0.40195(4) -0.15791(18)
N2A N -0.42974(12) -0.39199(4) -0.23086(19)
N3A N -0.26249(11) -0.45030(4) -0.51514(18)
N4A N -0.25126(12) -0.42610(5) -0.55020(19)
N5A N -0.53128(10) -0.57222(4) 1.13194(19)
N5A_2 N -0.53128(10) -0.57222(4) -0.86806(19)
N6A N -0.43291(11) -0.43448(4) 0.21804(18)
N7A N -0.32464(10) -0.51726(4) -0.64087(18)
N8A N -0.33229(10) -0.53606(4) -0.56781(18)
N9A N -0.85945(10) -0.51498(4) 0.35475(18)
N9A_2 N 0.14055(10) -0.51498(4) -0.64525(18)
N10A N 0.11213(11) -0.53396(5) -0.7026(2)
N11A N -0.56435(12) -0.37142(5) -0.0936(2)
N12A N -0.27245(11) -0.44995(4) -0.84544(17)
C1A C -0.40923(13) -0.39678(5) -0.3295(2)
C2A C -0.35082(12) -0.41038(5) -0.3219(2)
C3A C -0.33857(13) -0.41309(5) -0.2137(2)
C4A C -0.28124(14) -0.42549(6) -0.1610(2)
H1A H -0.2425 -0.4230 -0.2035
H2A H -0.2890 -0.4436 -0.1523
H3A H -0.2741 -0.4180 -0.0929
C5A C -0.44772(16) -0.38812(6) -0.4236(3)
H4A H -0.4937 -0.3872 -0.4049
H5A H -0.4425 -0.3999 -0.4812
H6A H -0.4331 -0.3714 -0.4458
C6A C -0.27964(12) -0.40827(5) -0.4886(2)
C7A C -0.31136(12) -0.42136(5) -0.40798(19)
C8A C -0.29867(12) -0.44759(5) -0.4279(2)
C9A C -0.32103(16) -0.47073(5) -0.3681(3)
H7A H -0.3461 -0.4817 -0.4141
H8A H -0.3483 -0.4657 -0.3097
H9A H -0.2836 -0.4801 -0.3415
C10A C -0.27526(18) -0.38013(5) -0.5120(3)
H10A H -0.2750 -0.3704 -0.4477
H11A H -0.3124 -0.3752 -0.5546
H12A H -0.2357 -0.3768 -0.5516
C11A C -0.46843(12) -0.56560(5) -0.8461(2)
C12A C -0.46506(11) -0.55468(4) -0.7445(2)
C13A C -0.47031(12) -0.44529(5) 0.2932(2)
C14A C -0.44136(14) -0.45519(7) 0.3933(2)
H13A H -0.3986 -0.4625 0.3801
H14A H -0.4702 -0.4679 0.4229
H15A H -0.4375 -0.4413 0.4429
C15A C -0.58572(16) -0.42969(7) 0.0769(3)
H16A H -0.5758 -0.4148 0.0351
H17A H -0.6265 -0.4272 0.1143
H18A H -0.5908 -0.4445 0.0325
C16A C -0.37004(12) -0.52222(5) -0.7152(2)
C17A C -0.40679(11) -0.54427(5) -0.68831(19)
C18A C -0.38082(12) -0.55271(5) -0.5936(2)
C19A C -0.39581(15) -0.57566(6) -0.5278(2)
H19A H -0.4361 -0.5839 -0.5495
H20A H -0.3980 -0.5701 -0.4558
H21A H -0.3587 -0.5871 -0.5334
C20A C -0.37626(17) -0.50576(6) -0.8106(3)
H22A H -0.3908 -0.5153 -0.8710
H23A H -0.3338 -0.4979 -0.8214
H24A H -0.4063 -0.4922 -0.7925
C21A C 0.09165(11) -0.49823(4) -0.6258(2)
C22A C 0.03216(11) -0.50661(5) -0.6730(2)
C23A C 0.04782(12) -0.52973(6) -0.7206(2)
C24A C -0.00615(17) -0.45167(8) -0.7818(4)
H25A H 0.0096 -0.4599 -0.8446
H26A H 0.0310 -0.4461 -0.7405
H27A H -0.0318 -0.4369 -0.8009
C25A C 0.10280(15) -0.47494(5) -0.5609(3)
H28A H 0.1378 -0.4780 -0.5114
H29A H 0.0627 -0.4706 -0.5243
H30A H 0.1139 -0.4608 -0.6061
H31A H -0.4654(19) -0.3857(7) -0.216(3)
H32A H -0.2305(15) -0.4239(6) -0.608(3)
H33A H -0.393(2) -0.4302(7) 0.225(3)
H34A H -0.3097(15) -0.5360(5) -0.518(3)
H37A H -0.1327(17) -0.4549(7) -0.720(3)
O7 O -0.58428(12) -0.66517(4) 1.0138(2)
H35 H -0.613(2) -0.6546(8) 1.031(3)
H36 H -0.5528(18) -0.6589(6) 0.982(3)
loop_
_geom_bond_atom_site_label_1
_geom_bond_atom_site_label_2
_geom_bond_site_symmetry_1
_geom_bond_site_symmetry_2
Ag1 O2 1_555 1_555
Ag2 O4 1_555 1_555
O1 N11 1_555 1_555
O2 N11 1_555 1_555
O3 N11 1_555 1_555
O4 N12 1_555 1_555
O5 N12 1_555 1_555
O6 N12 1_555 1_555
O7 H35 1_555 1_555
N1 Ag1 1_555 1_555
N2 N1 1_555 1_555
N3 Ag2 1_555 1_555
N4 N3 1_555 1_555
N5 C11 1_555 1_555
N6 C13 1_555 1_555
N7 Ag2 1_555 1_555
N8 N7 1_555 1_555
N9 N10 1_555 1_555
N10 C23 1_555 1_555
C1 N2 1_555 1_555
C2 C1 1_555 1_555
C3 N1 1_555 1_555
C4 C3 1_555 1_555
H1 C4 1_555 1_555
H2 C4 1_555 1_555
H3 C4 1_555 1_555
C5 C1 1_555 1_555
H4 C5 1_555 1_555
H5 C5 1_555 1_555
H6 C5 1_555 1_555
C6 N4 1_555 1_555
C7 C2 1_555 1_555
C8 N3 1_555 1_555
C9 C8 1_555 1_555
H7 C9 1_555 1_555
H8 C9 1_555 1_555
H9 C9 1_555 1_555
C10 C6 1_555 1_555
H10 C10 1_555 1_555
H11 C10 1_555 1_555
H12 C10 1_555 1_555
C11 C12 1_555 1_555
C12 C17 1_555 1_555
C13 C14 1_555 1_555
C14 H13 1_555 1_555
H14 C14 1_555 1_555
H15 C14 1_555 1_555
C15 H16 1_555 1_555
H17 C15 1_555 1_555
H18 C15 1_555 1_555
C16 N7 1_555 1_555
C17 C16 1_555 1_555
C18 N8 1_555 1_555
C19 C18 1_555 1_555
H19 C19 1_555 1_555
H20 C19 1_555 1_555
H21 C19 1_555 1_555
C20 C16 1_555 1_555
H22 C20 1_555 1_555
H23 C20 1_555 1_555
H24 C20 1_555 1_555
C21 N9 1_555 1_555
C22 C21 1_555 1_555
C23 C22 1_555 1_555
C24 H25 1_555 1_555
H26 C24 1_555 1_555
H27 C24 1_555 1_555
C25 C21 1_555 1_555
H28 C25 1_555 1_555
H29 C25 1_555 1_555
H30 C25 1_555 1_555
H31 N2 1_555 1_555
H32 N4 1_555 1_555
H33 N6 1_555 1_555
H34 N8 1_555 1_555
H36 O7 1_555 1_555
H37 N10A 1_555 1_555
Ag1A N5 1_555 1_555
Ag1_2 N5A_2 1_555 1_555
Ag2A N9 1_555 1_555
Ag2_2 N9A_2 1_555 1_555
O1A N11A 1_555 1_555
O2A Ag1A 1_555 1_555
O3A N11A 1_555 1_555
O4A Ag2A 1_555 1_555
O5A N12A 1_555 1_555
O6A N12A 1_555 1_555
N1A Ag1A 1_555 1_555
N2A N1A 1_555 1_555
N3A Ag2A 1_555 1_555
N4A N3A 1_555 1_555
N5A Ag1 1_555 1_555
N5A_2 N6 1_555 1_555
N6A N5 1_555 1_555
N7A Ag2A 1_555 1_555
N8A N7A 1_555 1_555
N9A Ag2 1_555 1_555
N9A_2 N10A 1_555 1_555
N10A C23A 1_555 1_555
N11A O2A 1_555 1_555
N12A O4A 1_555 1_555
C1A N2A 1_555 1_555
C2A C1A 1_555 1_555
C3A N1A 1_555 1_555
C4A C3A 1_555 1_555
H1A C4A 1_555 1_555
H2A C4A 1_555 1_555
H3A C4A 1_555 1_555
C5A C1A 1_555 1_555
H4A C5A 1_555 1_555
H5A C5A 1_555 1_555
H6A C5A 1_555 1_555
C6A N4A 1_555 1_555
C7A C2A 1_555 1_555
C8A N3A 1_555 1_555
C9A C8A 1_555 1_555
H7A C9A 1_555 1_555
H8A C9A 1_555 1_555
H9A C9A 1_555 1_555
C10A C6A 1_555 1_555
H10A C10A 1_555 1_555
H11A C10A 1_555 1_555
H12A C10A 1_555 1_555
C11A C15 1_555 1_555
C12A C13 1_555 1_555
C13A C12 1_555 1_555
C14A C13A 1_555 1_555
H13A C14A 1_555 1_555
H14A C14A 1_555 1_555
H15A C14A 1_555 1_555
C15A C11 1_555 1_555
H16A C15A 1_555 1_555
H17A C15A 1_555 1_555
H18A C15A 1_555 1_555
C16A N7A 1_555 1_555
C17A C12A 1_555 1_555
C18A N8A 1_555 1_555
C19A C18A 1_555 1_555
H19A C19A 1_555 1_555
H20A C19A 1_555 1_555
H21A C19A 1_555 1_555
C20A C16A 1_555 1_555
H22A C20A 1_555 1_555
H23A C20A 1_555 1_555
H24A C20A 1_555 1_555
C21A N9A_2 1_555 1_555
C22A C22 1_555 1_555
C23A C24 1_555 1_555
C24A C23 1_555 1_555
H25A C24A 1_555 1_555
H26A C24A 1_555 1_555
H27A C24A 1_555 1_555
C25A C21A 1_555 1_555
H28A C25A 1_555 1_555
H29A C25A 1_555 1_555
H30A C25A 1_555 1_555
H31A N2A 1_555 1_555
H32A N4A 1_555 1_555
H33A N6A 1_555 1_555
H34A N8A 1_555 1_555
H37A N10 1_555 1_555
C2 C3 1_555 1_555
C6 C7 1_555 1_555
C7 C8 1_555 1_555
C17 C18 1_555 1_555
N5A_2 C11A 1_555 1_555
N6A C13A 1_555 1_555
C2A C3A 1_555 1_555
C6A C7A 1_555 1_555
C7A C8A 1_555 1_555
C11A C12A 1_555 1_555
C16A C17A 1_555 1_555
C17A C18A 1_555 1_555
C21A C22A 1_555 1_555
C22A C23A 1_555 1_555

#END
