
#######################################################################
#
#                 Cambridge Crystallographic Data Centre
#                                CCDC 
#
#######################################################################
#
# If this CIF has been generated from an entry in the Cambridge 
# Structural Database, then it will include bibliographic, chemical, 
# crystal, experimental, refinement or atomic coordinate data resulting 
# from the CCDC's data processing and validation procedures.
#
#######################################################################

data_JANRAS
_symmetry_cell_setting           orthorhombic
_symmetry_space_group_name_H-M   'P b c a'
_symmetry_Int_Tables_number      61
_space_group_name_Hall           '-P 2ac 2ab'
loop_
_symmetry_equiv_pos_site_id
_symmetry_equiv_pos_as_xyz
1 x,y,z
2 1/2-x,-y,1/2+z
3 -x,1/2+y,1/2-z
4 1/2+x,1/2-y,-z
5 -x,-y,-z
6 1/2+x,y,1/2-z
7 x,1/2-y,1/2+z
8 1/2-x,1/2+y,z
_cell_length_a                   17.5784(13)
_cell_length_b                   20.7527(14)
_cell_length_c                   24.451(3)
_cell_angle_alpha                90
_cell_angle_beta                 90
_cell_angle_gamma                90
_cell_volume                     8919.71
loop_
_atom_site_label
_atom_site_type_symbol
_atom_site_fract_x
_atom_site_fract_y
_atom_site_fract_z
Ag1 Ag 0.22883(4) 0.04019(3) 0.34919(3)
Ag2 Ag 0.25187(3) -0.28949(4) 0.64999(3)
N1 N 0.1923(4) -0.0184(4) 0.4222(3)
N2 N 0.1449(5) 0.0024(4) 0.4625(3)
H1 H 0.1240 0.0420 0.4639
N3 N 0.2102(5) -0.2336(5) 0.5779(4)
N4 N 0.1699(6) -0.2576(5) 0.5370(4)
H2 H 0.1586 -0.2997 0.5343
N5 N 0.1189(3) 0.0744(3) 0.3107(3)
N6 N 0.0706(4) 0.1120(3) 0.3390(3)
H3 H 0.0805 0.1292 0.3720
N7 N -0.1527(4) 0.0550(4) 0.1753(3)
N8 N -0.1070(4) 0.0877(4) 0.1416(3)
H4 H -0.1180 0.0965 0.1064
N9 N 0.1419(3) -0.3248(4) 0.6893(3)
N10 N 0.0908(4) -0.3572(4) 0.6579(3)
H5 H 0.1005 -0.3716 0.6239
N11 N -0.1311(3) -0.3078(4) 0.8246(3)
N12 N -0.0865(4) -0.3470(4) 0.8555(3)
H6 H -0.0973 -0.3604 0.8897
C1 C 0.2643(7) -0.1155(6) 0.4031(5)
H7 H 0.2822 -0.0916 0.3721
H8 H 0.3068 -0.1286 0.4251
H9 H 0.2372 -0.1530 0.3908
C2 C 0.2105(5) -0.0773(5) 0.4373(4)
C3 C 0.1742(5) -0.0956(5) 0.4860(4)
C4 C 0.1326(6) -0.0428(6) 0.5005(4)
C5 C 0.0822(8) -0.0290(7) 0.5499(5)
H10 H 0.0806 -0.0667 0.5726
H11 H 0.1021 0.0065 0.5706
H12 H 0.0318 -0.0188 0.5376
C6 C 0.1137(12) -0.2361(8) 0.4451(7)
H13 H 0.1041 -0.1986 0.4232
H14 H 0.1430 -0.2666 0.4244
H15 H 0.0663 -0.2553 0.4557
C7 C 0.1516(8) -0.2156(7) 0.4987(5)
C8 C 0.1805(5) -0.1571(5) 0.5153(4)
C9 C 0.2155(5) -0.1695(6) 0.5644(4)
C10 C 0.2584(6) -0.1268(6) 0.6019(5)
H16 H 0.2761 -0.1508 0.6329
H17 H 0.3012 -0.1090 0.5827
H18 H 0.2258 -0.0926 0.6140
C11 C 0.1207(5) 0.0162(5) 0.2233(4)
H19 H 0.1705 0.0043 0.2358
H20 H 0.0903 -0.0218 0.2186
H21 H 0.1249 0.0384 0.1890
C12 C 0.0847(4) 0.0584(4) 0.2646(4)
C13 C 0.0109(4) 0.0871(4) 0.2622(4)
C14 C 0.0053(4) 0.1205(4) 0.3126(3)
C15 C -0.0545(5) 0.1632(5) 0.3356(4)
H22 H -0.0395 0.1777 0.3713
H23 H -0.0609 0.1997 0.3119
H24 H -0.1017 0.1401 0.3382
C16 C 0.0190(6) 0.1415(6) 0.1377(4)
H25 H 0.0604 0.1500 0.1623
H26 H -0.0007 0.1815 0.1239
H27 H 0.0369 0.1157 0.1077
C17 C -0.0417(5) 0.1051(4) 0.1672(3)
C18 C -0.0465(4) 0.0810(4) 0.2189(4)
C19 C -0.1170(5) 0.0510(4) 0.2235(4)
C20 C -0.1505(5) 0.0150(6) 0.2704(4)
H28 H -0.2004 0.0000 0.2608
H29 H -0.1539 0.0432 0.3014
H30 H -0.1188 -0.0212 0.2794
C21 C 0.1421(5) -0.2745(6) 0.7793(4)
H31 H 0.1931 -0.2630 0.7692
H32 H 0.1133 -0.2361 0.7863
H33 H 0.1433 -0.3007 0.8117
C22 C 0.1062(4) -0.3116(4) 0.7357(3)
C23 C 0.0309(4) -0.3369(4) 0.7342(4)
C24 C 0.0242(4) -0.3650(4) 0.6822(3)
C25 C -0.0389(6) -0.3998(6) 0.6558(4)
H34 H -0.0244 -0.4115 0.6193
H35 H -0.0491 -0.4380 0.6767
H36 H -0.0837 -0.3734 0.6547
C26 C 0.0334(6) -0.4079(5) 0.8537(4)
H37 H 0.0169 -0.4189 0.8900
H38 H 0.0825 -0.3877 0.8555
H39 H 0.0367 -0.4463 0.8319
C27 C -0.0230(4) -0.3629(4) 0.8283(3)
C28 C -0.0260(4) -0.3330(4) 0.7773(3)
C29 C -0.0955(4) -0.2997(4) 0.7774(4)
C30 C -0.1284(5) -0.2588(5) 0.7325(4)
H40 H -0.1766 -0.2417 0.7439
H41 H -0.1351 -0.2843 0.7001
H42 H -0.0940 -0.2240 0.7249
Ag1E Ag -0.27117(4) 0.04019(3) 0.15081(3)
Ag2E Ag -0.24813(3) -0.28949(4) 0.85001(3)
N7E N 0.3473(4) 0.0550(4) 0.3247(3)
N11E N 0.3689(3) -0.3078(4) 0.6754(3)
C31 C 0.1053(7) 0.1630(6) 0.4883(4)
C32 C 0.0996(10) 0.2339(7) 0.4771(8)
O1 O 0.1076(7) 0.1430(6) 0.5347(4)
O2 O 0.1043(6) 0.1306(4) 0.4471(3)
F1 F 0.0858(14) 0.2630(9) 0.5274(8)
F2 F 0.0527(14) 0.2544(10) 0.4389(9)
F3 F 0.1722(10) 0.2502(10) 0.4635(11)
C33 C 0.3661(8) 0.0829(6) 0.5122(5)
C34 C 0.3801(13) 0.0155(8) 0.5220(8)
O3 O 0.3639(7) 0.1111(6) 0.5534(4)
O4 O 0.3555(6) 0.0998(5) 0.4668(3)
F7 F 0.3999(19) -0.0147(11) 0.4744(9)
F8 F 0.3043(13) 0.0016(12) 0.5346(12)
F9 F 0.4240(18) -0.0089(17) 0.5633(11)
F4? F 0.131(2) 0.2462(13) 0.4252(11)
F5? F 0.129(2) 0.2785(15) 0.5106(13)
F6? F 0.0231(12) 0.2452(17) 0.4695(15)
F10? F 0.380(2) 0.0085(18) 0.5793(9)
F11? F 0.350(2) -0.0378(12) 0.5022(15)
F12? F 0.4577(16) 0.0162(17) 0.5077(18)
loop_
_geom_bond_atom_site_label_1
_geom_bond_atom_site_label_2
_geom_bond_site_symmetry_1
_geom_bond_site_symmetry_2
Ag1 N1 1_555 1_555
Ag2 N3 1_555 1_555
N1 N2 1_555 1_555
N2 H1 1_555 1_555
N3 N4 1_555 1_555
N4 H2 1_555 1_555
N5 Ag1 1_555 1_555
N6 N5 1_555 1_555
H3 N6 1_555 1_555
N7 N8 1_555 1_555
N8 H4 1_555 1_555
N9 Ag2 1_555 1_555
N10 N9 1_555 1_555
H5 N10 1_555 1_555
N11 N12 1_555 1_555
N12 H6 1_555 1_555
C1 H7 1_555 1_555
H8 C1 1_555 1_555
H9 C1 1_555 1_555
C2 N1 1_555 1_555
C3 C2 1_555 1_555
C4 N2 1_555 1_555
C5 C4 1_555 1_555
H10 C5 1_555 1_555
H11 C5 1_555 1_555
H12 C5 1_555 1_555
C6 H13 1_555 1_555
H14 C6 1_555 1_555
H15 C6 1_555 1_555
C7 N4 1_555 1_555
C8 C3 1_555 1_555
C9 N3 1_555 1_555
C10 C9 1_555 1_555
H16 C10 1_555 1_555
H17 C10 1_555 1_555
H18 C10 1_555 1_555
C11 H19 1_555 1_555
H20 C11 1_555 1_555
H21 C11 1_555 1_555
C12 N5 1_555 1_555
C13 C12 1_555 1_555
C14 N6 1_555 1_555
C15 C14 1_555 1_555
H22 C15 1_555 1_555
H23 C15 1_555 1_555
H24 C15 1_555 1_555
C16 H25 1_555 1_555
H26 C16 1_555 1_555
H27 C16 1_555 1_555
C17 N8 1_555 1_555
C18 C13 1_555 1_555
C19 N7 1_555 1_555
C20 C19 1_555 1_555
H28 C20 1_555 1_555
H29 C20 1_555 1_555
H30 C20 1_555 1_555
C21 H31 1_555 1_555
H32 C21 1_555 1_555
H33 C21 1_555 1_555
C22 N9 1_555 1_555
C23 C22 1_555 1_555
C24 N10 1_555 1_555
C25 C24 1_555 1_555
H34 C25 1_555 1_555
H35 C25 1_555 1_555
H36 C25 1_555 1_555
C26 H37 1_555 1_555
H38 C26 1_555 1_555
H39 C26 1_555 1_555
C27 N12 1_555 1_555
C28 C23 1_555 1_555
C29 N11 1_555 1_555
C30 C29 1_555 1_555
H40 C30 1_555 1_555
H41 C30 1_555 1_555
H42 C30 1_555 1_555
C31 C32 1_555 1_555
C32 F1 1_555 1_555
O1 C31 1_555 1_555
O2 C31 1_555 1_555
F2 C32 1_555 1_555
F3 C32 1_555 1_555
C33 C34 1_555 1_555
C34 F7 1_555 1_555
O3 C33 1_555 1_555
O4 C33 1_555 1_555
F8 C34 1_555 1_555
F9 C34 1_555 1_555
Ag1E N7 1_555 1_555
Ag2E N11 1_555 1_555
N7E Ag1 1_555 1_555
N11E Ag2 1_555 1_555
C1 C2 1_555 1_555
C3 C4 1_555 1_555
C6 C7 1_555 1_555
C7 C8 1_555 1_555
C8 C9 1_555 1_555
C11 C12 1_555 1_555
C13 C14 1_555 1_555
C16 C17 1_555 1_555
C17 C18 1_555 1_555
C18 C19 1_555 1_555
C21 C22 1_555 1_555
C23 C24 1_555 1_555
C26 C27 1_555 1_555
C27 C28 1_555 1_555
C28 C29 1_555 1_555

#END
