
#######################################################################
#
#                 Cambridge Crystallographic Data Centre
#                                CCDC 
#
#######################################################################
#
# If this CIF has been generated from an entry in the Cambridge 
# Structural Database, then it will include bibliographic, chemical, 
# crystal, experimental, refinement or atomic coordinate data resulting 
# from the CCDC's data processing and validation procedures.
#
#######################################################################

data_JAPHAK
_symmetry_cell_setting           monoclinic
_symmetry_space_group_name_H-M   'C 2/c'
_symmetry_Int_Tables_number      15
_space_group_name_Hall           '-C 2yn'
loop_
_symmetry_equiv_pos_site_id
_symmetry_equiv_pos_as_xyz
1 x,y,z
2 1/2+x,1/2+y,z
3 -x,y,1/2-z
4 1/2-x,1/2+y,1/2-z
5 -x,-y,-z
6 1/2-x,1/2-y,-z
7 x,-y,1/2+z
8 1/2+x,1/2-y,1/2+z
_cell_length_a                   32.376(7)
_cell_length_b                   5.7356(11)
_cell_length_c                   30.667(6)
_cell_angle_alpha                90
_cell_angle_beta                 115.11(3)
_cell_angle_gamma                90
_cell_volume                     5156.55
loop_
_atom_site_label
_atom_site_type_symbol
_atom_site_fract_x
_atom_site_fract_y
_atom_site_fract_z
Hg1 Hg 0.134638(16) 0.81310(8) 0.024801(16)
I1 I 0.04516(3) 0.73555(18) -0.01614(4)
I2 I 0.21697(3) 0.61499(15) 0.06414(3)
N1 N 0.1454(3) 1.0966(15) -0.0281(3)
N2 N 0.1602(3) 1.6181(16) -0.1155(3)
H1 H 0.1878 1.6415 -0.1117
N3 N 0.1440(3) 2.4528(18) -0.3065(3)
H2 H 0.1178 2.3942 -0.3122
N4 N 0.1411(3) 2.9159(18) -0.4122(3)
O1 O 0.0889(3) 1.745(2) -0.1557(5)
O2 O 0.2182(3) 2.4412(18) -0.2542(3)
C1 C 0.1847(5) 1.121(2) -0.0336(4)
H3 H 0.2088 1.0197 -0.0173
C2 C 0.1895(4) 1.2897(19) -0.0624(4)
H4 H 0.2166 1.2990 -0.0660
C3 C 0.1543(4) 1.4499(19) -0.0869(4)
C4 C 0.1151(4) 1.426(2) -0.0801(4)
H5 H 0.0912 1.5300 -0.0947
C5 C 0.1110(4) 1.247(2) -0.0516(4)
H6 H 0.0837 1.2296 -0.0487
C6 C 0.1278(4) 1.752(2) -0.1491(4)
C7 C 0.1438(4) 1.9141(19) -0.1767(4)
C8 C 0.1182(4) 2.116(2) -0.1964(4)
H7 H 0.0931 2.1505 -0.1901
C9 C 0.1297(4) 2.265(2) -0.2249(4)
H8 H 0.1125 2.3986 -0.2372
C10 C 0.1657(4) 2.2189(18) -0.2353(4)
C11 C 0.1926(4) 2.023(2) -0.2150(4)
H9 H 0.2181 1.9910 -0.2206
C12 C 0.1807(4) 1.878(2) -0.1869(4)
H10 H 0.1988 1.7478 -0.1738
C13 C 0.1791(5) 2.381(2) -0.2654(5)
C14 C 0.1768(4) 2.912(2) -0.3698(4)
H11 H 0.2006 3.0145 -0.3647
C15 C 0.1807(4) 2.767(2) -0.3334(4)
H12 H 0.2064 2.7717 -0.3041
C16 C 0.1452(4) 2.609(2) -0.3404(4)
C17 C 0.1079(5) 2.610(3) -0.3868(5)
H13 H 0.0846 2.5019 -0.3940
C18 C 0.1059(4) 2.767(2) -0.4205(4)
H14 H 0.0801 2.7737 -0.4497
Hg1F Hg 0.134638(16) 3.18690(8) -0.475199(16)
N4F N 0.1411(3) 1.0841(18) 0.0878(3)
O3 O 0.0470(6) 0.267(3) -0.3399(7)
C19 C 0.0535(12) 0.044(7) -0.3460(12)
O4 O 0.0175(13) 0.978(8) -0.3088(14)
C20 C -0.0046(14) 1.122(9) -0.3319(19)
loop_
_geom_bond_atom_site_label_1
_geom_bond_atom_site_label_2
_geom_bond_site_symmetry_1
_geom_bond_site_symmetry_2
Hg1 I1 1_555 1_555
I2 Hg1 1_555 1_555
N1 Hg1 1_555 1_555
N2 H1 1_555 1_555
N3 H2 1_555 1_555
N4 C14 1_555 1_555
O1 C6 1_555 1_555
O2 C13 1_555 1_555
C1 N1 1_555 1_555
H3 C1 1_555 1_555
C2 C1 1_555 1_555
H4 C2 1_555 1_555
C3 N2 1_555 1_555
C4 C3 1_555 1_555
H5 C4 1_555 1_555
C5 N1 1_555 1_555
H6 C5 1_555 1_555
C6 N2 1_555 1_555
C7 C6 1_555 1_555
C8 C7 1_555 1_555
H7 C8 1_555 1_555
C9 C8 1_555 1_555
H8 C9 1_555 1_555
C10 C9 1_555 1_555
C11 C10 1_555 1_555
H9 C11 1_555 1_555
C12 C7 1_555 1_555
H10 C12 1_555 1_555
C13 N3 1_555 1_555
C14 H11 1_555 1_555
C15 C14 1_555 1_555
H12 C15 1_555 1_555
C16 N3 1_555 1_555
C17 C16 1_555 1_555
H13 C17 1_555 1_555
C18 N4 1_555 1_555
H14 C18 1_555 1_555
O3 C19 1_555 1_555
O4 C20 1_555 1_555
Hg1F N4 1_555 1_555
N4F Hg1 1_555 1_555
C2 C3 1_555 1_555
C4 C5 1_555 1_555
C10 C13 1_555 1_555
C11 C12 1_555 1_555
C15 C16 1_555 1_555
C17 C18 1_555 1_555

#END
