
#######################################################################
#
#                 Cambridge Crystallographic Data Centre
#                                CCDC 
#
#######################################################################
#
# If this CIF has been generated from an entry in the Cambridge 
# Structural Database, then it will include bibliographic, chemical, 
# crystal, experimental, refinement or atomic coordinate data resulting 
# from the CCDC's data processing and validation procedures.
#
#######################################################################

data_JAPJOA
_symmetry_cell_setting           orthorhombic
_symmetry_space_group_name_H-M   'P 21 21 21'
_symmetry_Int_Tables_number      19
_space_group_name_Hall           'P 2ac 2ab'
loop_
_symmetry_equiv_pos_site_id
_symmetry_equiv_pos_as_xyz
1 x,y,z
2 1/2-x,-y,1/2+z
3 -x,1/2+y,1/2-z
4 1/2+x,1/2-y,-z
_cell_length_a                   15.023(3)
_cell_length_b                   15.582(3)
_cell_length_c                   16.554(3)
_cell_angle_alpha                90
_cell_angle_beta                 90
_cell_angle_gamma                90
_cell_volume                     3875.1
loop_
_atom_site_label
_atom_site_type_symbol
_atom_site_fract_x
_atom_site_fract_y
_atom_site_fract_z
Hg1 Hg 1.27857(2) 0.03911(2) 0.468830(18)
I1 I 1.30880(4) 0.00387(4) 0.62186(3)
I2 I 1.30948(5) 0.13248(4) 0.34053(4)
N1 N 1.1165(5) 0.0266(4) 0.4640(4)
C1 C 1.0713(5) -0.0284(5) 0.5089(5)
H1 H 1.1029 -0.0590 0.5494
C2 C 0.9811(6) -0.0442(6) 0.5008(5)
H2 H 0.9522 -0.0855 0.5339
C3 C 0.9338(6) 0.0014(5) 0.4434(4)
C4 C 0.9798(6) 0.0592(5) 0.3967(5)
H3 H 0.9498 0.0919 0.3566
C5 C 1.0711(7) 0.0694(5) 0.4089(5)
H4 H 1.1022 0.1091 0.3758
C6 C 0.8368(6) -0.0143(4) 0.4344(4)
O1 O 0.7943(4) -0.0571(3) 0.4839(3)
N2 N 0.7977(5) 0.0168(4) 0.3672(4)
H5 H 0.8284 0.0540 0.3383
C7 C 0.7126(5) -0.0048(5) 0.3392(4)
C8 C 0.6366(5) 0.0121(5) 0.3870(5)
H6 H 0.6427 0.0368 0.4392
C9 C 0.5543(6) -0.0076(5) 0.3572(5)
H7 H 0.5031 0.0045 0.3888
C10 C 0.5436(5) -0.0456(5) 0.2803(5)
C11 C 0.4591(7) -0.0652(6) 0.2484(6)
H8 H 0.4075 -0.0503 0.2785
C12 C 0.4493(7) -0.1043(6) 0.1772(6)
H9 H 0.3914 -0.1182 0.1582
C13 C 0.5249(6) -0.1251(6) 0.1298(6)
H10 H 0.5174 -0.1535 0.0795
C14 C 0.6088(6) -0.1048(5) 0.1561(5)
H11 H 0.6593 -0.1183 0.1240
C15 C 0.6195(6) -0.0626(5) 0.2330(5)
C16 C 0.7057(5) -0.0409(5) 0.2636(4)
C17 C 0.7895(5) -0.0614(4) 0.2187(4)
C18 C 0.8354(6) -0.1382(5) 0.2371(5)
C19 C 0.8066(7) -0.1958(5) 0.2964(5)
H12 H 0.7524 -0.1846 0.3240
C20 C 0.8532(7) -0.2667(5) 0.3157(6)
H13 H 0.8322 -0.3036 0.3572
C21 C 0.9315(7) -0.2864(6) 0.2757(6)
H14 H 0.9631 -0.3372 0.2893
C22 C 0.9638(7) -0.2332(5) 0.2165(5)
H15 H 1.0181 -0.2468 0.1899
C23 C 0.9170(6) -0.1587(5) 0.1953(5)
C24 C 0.9462(6) -0.1018(6) 0.1334(6)
H16 H 0.9972 -0.1161 0.1023
C25 C 0.9028(6) -0.0279(5) 0.1183(5)
H17 H 0.9259 0.0110 0.0794
C26 C 0.8233(5) -0.0077(5) 0.1598(4)
N3 N 0.7817(5) 0.0733(4) 0.1413(4)
H18 H 0.7430 0.0766 0.1015
C27 C 0.8015(6) 0.1435(5) 0.1844(4)
O2 O 0.8423(5) 0.1416(4) 0.2480(3)
C28 C 0.7712(6) 0.2298(4) 0.1511(4)
C29 C 0.7959(6) 0.3022(5) 0.1924(5)
H19 H 0.8278 0.2977 0.2418
C30 C 0.7743(7) 0.3808(5) 0.1619(5)
H20 H 0.7905 0.4302 0.1921
C31 C 0.7077(6) 0.3223(5) 0.0523(5)
H21 H 0.6762 0.3285 0.0029
C32 C 0.7266(6) 0.2392(5) 0.0797(4)
H22 H 0.7088 0.1904 0.0492
N4 N 0.7313(5) 0.3921(4) 0.0914(4)
Hg1B Hg 0.72143(2) 0.53911(2) 0.031170(18)
N4B N 1.2687(5) -0.1079(4) 0.4086(4)
C33 C 0.7575(9) -0.2386(8) -0.0868(7)
H23 H 0.7647 -0.1928 -0.1277
H24 H 0.7608 -0.2942 -0.1156
Cl1 Cl 0.8474(3) -0.2329(2) -0.0205(2)
Cl2 Cl 0.6565(3) -0.2297(2) -0.04757(19)
C34 C 0.9702(8) 0.2027(8) 0.0212(7)
H25 H 0.9220 0.1793 0.0544
H26 H 0.9971 0.2519 0.0489
H27 H 1.0156 0.1584 0.0125
C35 C 0.9324(7) 0.2322(6) -0.0616(6)
H28 H 0.9050 0.1831 -0.0903
H29 H 0.8865 0.2770 -0.0537
O3 O 1.0033(5) 0.2645(4) -0.1055(4)
C36 C 0.9739(7) 0.2912(6) -0.1837(5)
H30 H 0.9316 0.3395 -0.1785
H31 H 0.9432 0.2432 -0.2113
C37 C 1.0527(8) 0.3182(6) -0.2311(6)
H32 H 1.0337 0.3362 -0.2852
H33 H 1.0943 0.2701 -0.2358
H34 H 1.0821 0.3663 -0.2039
loop_
_geom_bond_atom_site_label_1
_geom_bond_atom_site_label_2
_geom_bond_site_symmetry_1
_geom_bond_site_symmetry_2
Hg1 I1 1_555 1_555
I2 Hg1 1_555 1_555
N1 Hg1 1_555 1_555
C1 N1 1_555 1_555
H1 C1 1_555 1_555
C2 C1 1_555 1_555
H2 C2 1_555 1_555
C3 C2 1_555 1_555
C4 C3 1_555 1_555
H3 C4 1_555 1_555
C5 N1 1_555 1_555
H4 C5 1_555 1_555
C6 C3 1_555 1_555
O1 C6 1_555 1_555
N2 C6 1_555 1_555
H5 N2 1_555 1_555
C7 N2 1_555 1_555
C8 C7 1_555 1_555
H6 C8 1_555 1_555
C9 C8 1_555 1_555
H7 C9 1_555 1_555
C10 C9 1_555 1_555
C11 C10 1_555 1_555
H8 C11 1_555 1_555
C12 C11 1_555 1_555
H9 C12 1_555 1_555
C13 C12 1_555 1_555
H10 C13 1_555 1_555
C14 C13 1_555 1_555
H11 C14 1_555 1_555
C15 C10 1_555 1_555
C16 C7 1_555 1_555
C17 C16 1_555 1_555
C18 C17 1_555 1_555
C19 C18 1_555 1_555
H12 C19 1_555 1_555
C20 C19 1_555 1_555
H13 C20 1_555 1_555
C21 C20 1_555 1_555
H14 C21 1_555 1_555
C22 C21 1_555 1_555
H15 C22 1_555 1_555
C23 C18 1_555 1_555
C24 C23 1_555 1_555
H16 C24 1_555 1_555
C25 C24 1_555 1_555
H17 C25 1_555 1_555
C26 C17 1_555 1_555
N3 C26 1_555 1_555
H18 N3 1_555 1_555
C27 N3 1_555 1_555
O2 C27 1_555 1_555
C28 C27 1_555 1_555
C29 C28 1_555 1_555
H19 C29 1_555 1_555
C30 C29 1_555 1_555
H20 C30 1_555 1_555
C31 H21 1_555 1_555
C32 C28 1_555 1_555
H22 C32 1_555 1_555
N4 C30 1_555 1_555
C33 H23 1_555 1_555
H24 C33 1_555 1_555
Cl1 C33 1_555 1_555
Cl2 C33 1_555 1_555
C34 H25 1_555 1_555
H26 C34 1_555 1_555
H27 C34 1_555 1_555
C35 C34 1_555 1_555
H28 C35 1_555 1_555
H29 C35 1_555 1_555
O3 C35 1_555 1_555
C36 O3 1_555 1_555
H30 C36 1_555 1_555
H31 C36 1_555 1_555
C37 C36 1_555 1_555
H32 C37 1_555 1_555
H33 C37 1_555 1_555
H34 C37 1_555 1_555
Hg1B N4 1_555 1_555
N4B Hg1 1_555 1_555
C4 C5 1_555 1_555
C14 C15 1_555 1_555
C15 C16 1_555 1_555
C22 C23 1_555 1_555
C25 C26 1_555 1_555
C31 C32 1_555 1_555
C31 N4 1_555 1_555

#END
