
#######################################################################
#
#                 Cambridge Crystallographic Data Centre
#                                CCDC 
#
#######################################################################
#
# If this CIF has been generated from an entry in the Cambridge 
# Structural Database, then it will include bibliographic, chemical, 
# crystal, experimental, refinement or atomic coordinate data resulting 
# from the CCDC's data processing and validation procedures.
#
#######################################################################

data_JAPJAM
_symmetry_cell_setting           monoclinic
_symmetry_space_group_name_H-M   'P 21/n'
_symmetry_Int_Tables_number      14
_space_group_name_Hall           '-P 2yn'
loop_
_symmetry_equiv_pos_site_id
_symmetry_equiv_pos_as_xyz
1 x,y,z
2 1/2-x,1/2+y,1/2-z
3 -x,-y,-z
4 1/2+x,1/2-y,1/2+z
_cell_length_a                   10.188(2)
_cell_length_b                   22.928(5)
_cell_length_c                   13.624(3)
_cell_angle_alpha                90
_cell_angle_beta                 93.11(3)
_cell_angle_gamma                90
_cell_volume                     3177.75
loop_
_atom_site_label
_atom_site_type_symbol
_atom_site_fract_x
_atom_site_fract_y
_atom_site_fract_z
Hg1 Hg 1.56291(2) -0.486990(9) 0.240458(13)
Cl1 Cl 1.72641(14) -0.41871(6) 0.28017(11)
Cl2 Cl 1.35895(15) -0.52622(6) 0.19138(11)
N1 N 1.6879(5) -0.5558(2) 0.1362(3)
C1 C 1.7463(6) -0.6033(2) 0.1730(4)
H1 H 1.7565 -0.6072 0.2424
C2 C 1.7929(5) -0.6472(2) 0.1154(4)
H2 H 1.8331 -0.6807 0.1450
C3 C 1.7808(5) -0.6423(2) 0.0137(4)
C4 C 1.7226(5) -0.5919(2) -0.0251(4)
H3 H 1.7134 -0.5862 -0.0942
C5 C 1.6782(6) -0.5504(2) 0.0384(4)
H4 H 1.6387 -0.5161 0.0112
C6 C 1.8292(5) -0.6913(2) -0.0474(4)
O1 O 1.9080(4) -0.72758(17) -0.0131(3)
N2 N 1.7801(4) -0.69307(19) -0.1411(3)
H5 H 1.7191 -0.6674 -0.1589
C7 C 1.8192(5) -0.7331(2) -0.2136(3)
C8 C 1.9505(5) -0.7331(3) -0.2418(4)
H6 H 2.0145 -0.7098 -0.2069
C9 C 1.9856(6) -0.7663(3) -0.3186(4)
H7 H 2.0741 -0.7663 -0.3371
C10 C 1.8901(6) -0.8010(3) -0.3713(4)
C11 C 1.9231(7) -0.8328(3) -0.4562(4)
H8 H 2.0106 -0.8314 -0.4768
C12 C 1.8320(7) -0.8652(3) -0.5082(4)
H9 H 1.8554 -0.8857 -0.5652
C13 C 1.7024(7) -0.8680(3) -0.4772(5)
H10 H 1.6387 -0.8908 -0.5133
C14 C 1.6675(6) -0.8382(3) -0.3951(4)
H11 H 1.5804 -0.8414 -0.3741
C15 C 1.7593(5) -0.8027(2) -0.3416(4)
C16 C 1.7241(5) -0.7678(2) -0.2600(3)
C17 C 1.5893(5) -0.7685(2) -0.2235(3)
C18 C 1.5628(6) -0.8033(2) -0.1396(4)
C19 C 1.6614(7) -0.8385(3) -0.0922(4)
H12 H 1.7471 -0.8399 -0.1165
C20 C 1.6325(8) -0.8709(3) -0.0106(5)
H13 H 1.6980 -0.8953 0.0199
C21 C 1.5089(9) -0.8681(4) 0.0273(6)
H14 H 1.4922 -0.8893 0.0852
C22 C 1.4119(8) -0.8356(3) -0.0171(5)
H15 H 1.3270 -0.8354 0.0086
C23 C 1.4357(6) -0.8018(3) -0.1016(4)
C24 C 1.3377(6) -0.7657(3) -0.1472(4)
H16 H 1.2528 -0.7642 -0.1217
C25 C 1.3640(6) -0.7330(3) -0.2275(4)
H17 H 1.2976 -0.7089 -0.2577
C26 C 1.4892(5) -0.7351(2) -0.2654(4)
N3 N 1.5113(4) -0.70130(18) -0.3513(3)
H18 H 1.4874 -0.7157 -0.4094
C27 C 1.5672(5) -0.6482(2) -0.3461(3)
O2 O 1.6105(4) -0.62582(16) -0.2686(2)
C28 C 1.5761(5) -0.6156(2) -0.4420(3)
C29 C 1.5163(6) -0.6353(2) -0.5310(4)
H19 H 1.4687 -0.6710 -0.5339
C30 C 1.5281(6) -0.6017(3) -0.6143(4)
H20 H 1.4875 -0.6151 -0.6746
C31 C 1.6536(5) -0.5341(2) -0.5281(4)
H21 H 1.7036 -0.4991 -0.5275
C32 C 1.6458(5) -0.5642(2) -0.4414(4)
H22 H 1.6877 -0.5499 -0.3823
N4 N 1.5940(5) -0.5514(2) -0.6138(3)
Hg1_2 Hg 1.56291(2) -0.486990(9) -0.759542(13)
N4_2 N 1.5940(5) -0.5514(2) 0.3862(3)
C34 C 1.5139(13) -1.0057(4) -0.2904(6)
H25 H 1.4274 -1.0007 -0.2618
H26 H 1.5780 -0.9785 -0.2578
Cl5 Cl 1.5656(3) -1.07487(15) -0.2813(2)
Cl6 Cl 1.5038(6) -0.9962(3) -0.4088(4)
C33? C 1.5139(13) -1.0057(4) -0.2904(6)
H23? H 1.5634 -0.9867 -0.3421
H24? H 1.4204 -1.0065 -0.3143
Cl3? Cl 1.5656(3) -1.07487(15) -0.2813(2)
Cl4? Cl 1.5245(8) -0.9644(4) -0.1956(6)
C35? C 1.5139(13) -1.0057(4) -0.2904(6)
H27? H 1.4235 -1.0043 -0.3209
H28? H 1.5722 -0.9830 -0.3320
Cl7? Cl 1.5656(3) -1.07487(15) -0.2813(2)
Cl8? Cl 1.5168(6) -0.9759(3) -0.1715(5)
loop_
_geom_bond_atom_site_label_1
_geom_bond_atom_site_label_2
_geom_bond_site_symmetry_1
_geom_bond_site_symmetry_2
Hg1 Cl1 1_555 1_555
Cl2 Hg1 1_555 1_555
N1 Hg1 1_555 1_555
C1 N1 1_555 1_555
H1 C1 1_555 1_555
C2 C1 1_555 1_555
H2 C2 1_555 1_555
C3 C2 1_555 1_555
C4 C3 1_555 1_555
H3 C4 1_555 1_555
C5 N1 1_555 1_555
H4 C5 1_555 1_555
C6 C3 1_555 1_555
O1 C6 1_555 1_555
N2 C6 1_555 1_555
H5 N2 1_555 1_555
C7 N2 1_555 1_555
C8 C7 1_555 1_555
H6 C8 1_555 1_555
C9 C8 1_555 1_555
H7 C9 1_555 1_555
C10 C9 1_555 1_555
C11 C10 1_555 1_555
H8 C11 1_555 1_555
C12 C11 1_555 1_555
H9 C12 1_555 1_555
C13 C12 1_555 1_555
H10 C13 1_555 1_555
C14 C13 1_555 1_555
H11 C14 1_555 1_555
C15 C10 1_555 1_555
C16 C7 1_555 1_555
C17 C16 1_555 1_555
C18 C17 1_555 1_555
C19 C18 1_555 1_555
H12 C19 1_555 1_555
C20 C19 1_555 1_555
H13 C20 1_555 1_555
C21 C20 1_555 1_555
H14 C21 1_555 1_555
C22 C21 1_555 1_555
H15 C22 1_555 1_555
C23 C18 1_555 1_555
C24 C23 1_555 1_555
H16 C24 1_555 1_555
C25 C24 1_555 1_555
H17 C25 1_555 1_555
C26 C17 1_555 1_555
N3 C26 1_555 1_555
H18 N3 1_555 1_555
C27 N3 1_555 1_555
O2 C27 1_555 1_555
C28 C27 1_555 1_555
C29 C28 1_555 1_555
H19 C29 1_555 1_555
C30 C29 1_555 1_555
H20 C30 1_555 1_555
C31 H21 1_555 1_555
C32 C28 1_555 1_555
H22 C32 1_555 1_555
N4 C30 1_555 1_555
C34 H25 1_555 1_555
H26 C34 1_555 1_555
Cl5 C34 1_555 1_555
Cl6 C34 1_555 1_555
Hg1_2 N4 1_555 1_555
N4_2 Hg1 1_555 1_555
C4 C5 1_555 1_555
C14 C15 1_555 1_555
C15 C16 1_555 1_555
C22 C23 1_555 1_555
C25 C26 1_555 1_555
C31 C32 1_555 1_555
C31 N4 1_555 1_555

#END
