
#######################################################################
#
#                 Cambridge Crystallographic Data Centre
#                                CCDC 
#
#######################################################################
#
# If this CIF has been generated from an entry in the Cambridge 
# Structural Database, then it will include bibliographic, chemical, 
# crystal, experimental, refinement or atomic coordinate data resulting 
# from the CCDC's data processing and validation procedures.
#
#######################################################################

data_JAPJIU
_symmetry_cell_setting           monoclinic
_symmetry_space_group_name_H-M   'C 2/c'
_symmetry_Int_Tables_number      15
_space_group_name_Hall           '-C 2yn'
loop_
_symmetry_equiv_pos_site_id
_symmetry_equiv_pos_as_xyz
1 x,y,z
2 1/2+x,1/2+y,z
3 -x,y,1/2-z
4 1/2-x,1/2+y,1/2-z
5 -x,-y,-z
6 1/2-x,1/2-y,-z
7 x,-y,1/2+z
8 1/2+x,1/2-y,1/2+z
_cell_length_a                   20.856(4)
_cell_length_b                   15.847(3)
_cell_length_c                   23.865(5)
_cell_angle_alpha                90
_cell_angle_beta                 96.91(3)
_cell_angle_gamma                90
_cell_volume                     7830.21
loop_
_atom_site_label
_atom_site_type_symbol
_atom_site_fract_x
_atom_site_fract_y
_atom_site_fract_z
Hg1 Hg 0.52001(3) 1.21116(5) -0.48837(2)
I1 I 0.50941(6) 1.37636(8) -0.47671(5)
I2 I 0.59041(7) 1.07246(12) -0.49635(5)
N1 N 0.4585(6) 1.1705(8) -0.4105(5)
C1 C 0.4808(8) 1.1152(11) -0.3723(7)
H1 H 0.5191 1.0851 -0.3776
C2 C 0.4520(8) 1.0989(10) -0.3258(6)
H2 H 0.4703 1.0585 -0.2991
C3 C 0.3958(6) 1.1408(9) -0.3166(6)
C4 C 0.3732(8) 1.1972(11) -0.3551(7)
H3 H 0.3348 1.2277 -0.3510
C5 C 0.4057(8) 1.2111(10) -0.4012(6)
H4 H 0.3891 1.2525 -0.4279
C6 C 0.3643(6) 1.1185(10) -0.2641(6)
O1 O 0.3851(5) 1.0600(6) -0.2334(4)
N2 N 0.3154(5) 1.1682(8) -0.2531(5)
H5 H 0.2993 1.2058 -0.2781
C7 C 0.2890(7) 1.1596(10) -0.1997(7)
C8 C 0.3203(9) 1.2075(10) -0.1520(8)
H6 H 0.3562 1.2427 -0.1565
C9 C 0.2979(11) 1.2016(12) -0.1013(8)
H7 H 0.3181 1.2332 -0.0703
C10 C 0.2458(9) 1.1499(13) -0.0941(6)
C11 C 0.2239(9) 1.1418(13) -0.0406(8)
H8 H 0.2453 1.1720 -0.0094
C12 C 0.1720(9) 1.0907(15) -0.0329(10)
H9 H 0.1580 1.0857 0.0033
C13 C 0.1404(9) 1.0466(18) -0.0786(8)
H10 H 0.1050 1.0111 -0.0732
C14 C 0.1602(7) 1.0539(15) -0.1323(8)
H11 H 0.1374 1.0253 -0.1636
C15 C 0.2142(7) 1.1042(11) -0.1397(7)
C16 C 0.2381(7) 1.1109(11) -0.1942(7)
C17 C 0.2048(7) 1.0591(12) -0.2437(7)
C18 C 0.1489(8) 1.0925(13) -0.2779(8)
C19 C 0.1228(7) 1.1718(14) -0.2660(7)
H12 H 0.1440 1.2067 -0.2371
C20 C 0.0646(10) 1.1986(17) -0.2976(10)
H13 H 0.0454 1.2508 -0.2893
C21 C 0.0358(10) 1.148(2) -0.3409(11)
H14 H -0.0027 1.1667 -0.3626
C22 C 0.0612(10) 1.0729(18) -0.3529(10)
H15 H 0.0396 1.0407 -0.3831
C23 C 0.1191(9) 1.0387(15) -0.3226(8)
C24 C 0.1452(9) 0.9581(13) -0.3323(8)
H16 H 0.1257 0.9239 -0.3623
C25 C 0.1978(9) 0.9300(12) -0.2988(8)
H17 H 0.2153 0.8760 -0.3054
C26 C 0.2268(8) 0.9804(12) -0.2539(7)
N3 N 0.2797(6) 0.9442(8) -0.2173(5)
H18 H 0.3163 0.9724 -0.2129
C27 C 0.2776(7) 0.8720(10) -0.1898(6)
O2 O 0.2318(5) 0.8225(7) -0.1988(4)
C28 C 0.3340(6) 0.8555(9) -0.1462(5)
C29 C 0.3848(9) 0.9063(11) -0.1347(7)
H19 H 0.3874 0.9576 -0.1548
C30 C 0.4342(11) 0.8829(13) -0.0924(8)
H20 H 0.4709 0.9186 -0.0859
C31 C 0.3837(7) 0.7642(10) -0.0750(6)
H21 H 0.3829 0.7127 -0.0548
C32 C 0.3325(7) 0.7807(10) -0.1171(6)
H22 H 0.2980 0.7418 -0.1252
N4 N 0.4331(6) 0.8155(9) -0.0616(5)
Hg1F Hg 0.52001(3) 0.78884(5) 0.01163(2)
N4F N 0.4331(6) 1.1845(9) -0.5616(5)
C33 C 0.2257(11) 1.4153(15) -0.5137(8)
H23 H 0.2212 1.4674 -0.4916
H24 H 0.1826 1.3885 -0.5210
Cl1 Cl 0.2537(5) 1.4407(5) -0.5776(3)
Cl2 Cl 0.2780(6) 1.3484(7) -0.4762(6)
C34 C 0.6290(9) 0.9005(13) -0.1721(12)
H25 H 0.6514 0.9050 -0.2062
H26 H 0.6336 0.9547 -0.1514
Cl3 Cl 0.5487(5) 0.8762(6) -0.1901(7)
Cl4 Cl 0.6606(6) 0.8195(8) -0.1300(5)
C35 C 0.0000 0.903(4) -0.2500
H27 H -0.0364 0.9411 -0.2449
H28 H 0.0364 0.9411 -0.2551
Cl5 Cl -0.0210(7) 0.8696(9) -0.3162(6)
Cl5B Cl 0.0210(7) 0.8696(9) -0.1838(6)
loop_
_geom_bond_atom_site_label_1
_geom_bond_atom_site_label_2
_geom_bond_site_symmetry_1
_geom_bond_site_symmetry_2
Hg1 I1 1_555 1_555
I2 Hg1 1_555 1_555
N1 Hg1 1_555 1_555
C1 N1 1_555 1_555
H1 C1 1_555 1_555
C2 C1 1_555 1_555
H2 C2 1_555 1_555
C3 C2 1_555 1_555
C4 C3 1_555 1_555
H3 C4 1_555 1_555
C5 N1 1_555 1_555
H4 C5 1_555 1_555
C6 C3 1_555 1_555
O1 C6 1_555 1_555
N2 C6 1_555 1_555
H5 N2 1_555 1_555
C7 N2 1_555 1_555
C8 C7 1_555 1_555
H6 C8 1_555 1_555
C9 C8 1_555 1_555
H7 C9 1_555 1_555
C10 C9 1_555 1_555
C11 C10 1_555 1_555
H8 C11 1_555 1_555
C12 C11 1_555 1_555
H9 C12 1_555 1_555
C13 C12 1_555 1_555
H10 C13 1_555 1_555
C14 C13 1_555 1_555
H11 C14 1_555 1_555
C15 C10 1_555 1_555
C16 C7 1_555 1_555
C17 C16 1_555 1_555
C18 C17 1_555 1_555
C19 C18 1_555 1_555
H12 C19 1_555 1_555
C20 C19 1_555 1_555
H13 C20 1_555 1_555
C21 C20 1_555 1_555
H14 C21 1_555 1_555
C22 C21 1_555 1_555
H15 C22 1_555 1_555
C23 C18 1_555 1_555
C24 C23 1_555 1_555
H16 C24 1_555 1_555
C25 C24 1_555 1_555
H17 C25 1_555 1_555
C26 C17 1_555 1_555
N3 C26 1_555 1_555
H18 N3 1_555 1_555
C27 N3 1_555 1_555
O2 C27 1_555 1_555
C28 C27 1_555 1_555
C29 C28 1_555 1_555
H19 C29 1_555 1_555
C30 C29 1_555 1_555
H20 C30 1_555 1_555
C31 H21 1_555 1_555
C32 C28 1_555 1_555
H22 C32 1_555 1_555
N4 C30 1_555 1_555
C33 H23 1_555 1_555
H24 C33 1_555 1_555
Cl1 C33 1_555 1_555
Cl2 C33 1_555 1_555
C34 H25 1_555 1_555
H26 C34 1_555 1_555
Cl3 C34 1_555 1_555
Cl4 C34 1_555 1_555
C35 H27 1_555 1_555
H28 C35 1_555 1_555
Cl5 C35 1_555 1_555
Hg1F N4 1_555 1_555
N4F Hg1 1_555 1_555
Cl5B C35 1_555 1_555
C4 C5 1_555 1_555
C14 C15 1_555 1_555
C15 C16 1_555 1_555
C22 C23 1_555 1_555
C25 C26 1_555 1_555
C31 C32 1_555 1_555
C31 N4 1_555 1_555

#END
