
#######################################################################
#
#                 Cambridge Crystallographic Data Centre
#                                CCDC 
#
#######################################################################
#
# If this CIF has been generated from an entry in the Cambridge 
# Structural Database, then it will include bibliographic, chemical, 
# crystal, experimental, refinement or atomic coordinate data resulting 
# from the CCDC's data processing and validation procedures.
#
#######################################################################

data_JAPJEQ
_symmetry_cell_setting           monoclinic
_symmetry_space_group_name_H-M   'P 21/c'
_symmetry_Int_Tables_number      14
_space_group_name_Hall           '-P 2ybc'
loop_
_symmetry_equiv_pos_site_id
_symmetry_equiv_pos_as_xyz
1 x,y,z
2 -x,1/2+y,1/2-z
3 -x,-y,-z
4 x,1/2-y,1/2+z
_cell_length_a                   17.239(3)
_cell_length_b                   11.940(2)
_cell_length_c                   16.268(3)
_cell_angle_alpha                90
_cell_angle_beta                 103.34(3)
_cell_angle_gamma                90
_cell_volume                     3258.15
loop_
_atom_site_label
_atom_site_type_symbol
_atom_site_fract_x
_atom_site_fract_y
_atom_site_fract_z
Hg1 Hg 0.656578(18) -1.28664(2) -0.022004(17)
Br1 Br 0.63993(7) -1.25596(9) -0.17440(5)
Br2 Br 0.73298(6) -1.39146(7) 0.10382(5)
N1 N 0.6856(4) -1.1071(5) 0.0444(4)
C1 C 0.7166(5) -1.1006(6) 0.1288(4)
H1 H 0.7207 -1.1671 0.1616
C2 C 0.7420(5) -1.0021(6) 0.1683(4)
H2 H 0.7629 -1.0011 0.2277
C3 C 0.7374(4) -0.9031(6) 0.1223(4)
C4 C 0.7084(4) -0.9102(6) 0.0354(4)
H3 H 0.7064 -0.8454 0.0011
C5 C 0.6824(4) -1.0124(6) -0.0005(4)
H4 H 0.6612 -1.0157 -0.0598
C6 C 0.7644(4) -0.7930(6) 0.1630(4)
O1 O 0.7875(3) -0.7163(4) 0.1238(3)
N2 N 0.7615(3) -0.7857(5) 0.2435(3)
H5 H 0.7406 -0.8432 0.2645
C7 C 0.7887(4) -0.6948(6) 0.3000(4)
C8 C 0.7635(5) -0.5844(6) 0.2767(5)
H6 H 0.7289 -0.5700 0.2232
C9 C 0.7892(5) -0.4987(6) 0.3315(5)
H7 H 0.7731 -0.4243 0.3152
C10 C 0.8390(5) -0.5177(7) 0.4114(5)
C11 C 0.8632(5) -0.4315(8) 0.4709(6)
H8 H 0.8473 -0.3566 0.4560
C12 C 0.9082(6) -0.4527(9) 0.5483(6)
H9 H 0.9232 -0.3930 0.5874
C13 C 0.9328(6) -0.5605(10) 0.5716(6)
H10 H 0.9650 -0.5736 0.6266
C14 C 0.9119(5) -0.6496(8) 0.5172(5)
H11 H 0.9297 -0.7230 0.5346
C15 C 0.8643(4) -0.6313(7) 0.4360(4)
C16 C 0.8391(4) -0.7201(6) 0.3768(4)
C17 C 0.8668(4) -0.8379(6) 0.3936(4)
C18 C 0.9349(4) -0.8756(7) 0.3640(4)
C19 C 0.9783(5) -0.8027(8) 0.3225(5)
H12 H 0.9631 -0.7263 0.3140
C20 C 1.0418(5) -0.8426(10) 0.2948(5)
H13 H 1.0719 -0.7928 0.2687
C21 C 1.0637(5) -0.9560(10) 0.3043(6)
H14 H 1.1068 -0.9825 0.2822
C22 C 1.0244(5) -1.0275(9) 0.3442(5)
H15 H 1.0406 -1.1036 0.3511
C23 C 0.9581(5) -0.9897(7) 0.3763(5)
C24 C 0.9146(5) -1.0633(8) 0.4166(5)
H16 H 0.9291 -1.1401 0.4229
C25 C 0.8521(5) -1.0253(7) 0.4465(5)
H17 H 0.8249 -1.0747 0.4760
C26 C 0.8276(4) -0.9125(6) 0.4337(4)
N3 N 0.7567(3) -0.8789(5) 0.4599(3)
H18 H 0.7603 -0.8504 0.5105
C27 C 0.6854(4) -0.8913(6) 0.4068(4)
O2 O 0.6765(3) -0.9234(5) 0.3331(3)
C28 C 0.6119(4) -0.8659(6) 0.4397(4)
C29 C 0.5420(6) -0.8445(9) 0.3808(5)
H19 H 0.5411 -0.8451 0.3222
C30 C 0.4736(5) -0.8222(10) 0.4079(5)
H20 H 0.4257 -0.8095 0.3666
C31 C 0.5380(4) -0.8420(6) 0.5449(4)
H21 H 0.5371 -0.8422 0.6030
C32 C 0.6088(5) -0.8671(6) 0.5229(5)
H22 H 0.6550 -0.8851 0.5653
N4 N 0.4713(4) -0.8175(6) 0.4887(4)
Hg1A Hg 0.343422(18) -0.78664(2) 0.522004(17)
N4A N 0.5287(4) -1.3175(6) 0.0113(4)
C33 C 0.5292(7) -0.4655(11) 0.6958(7)
H23 H 0.5525 -0.3976 0.6762
H24 H 0.5656 -0.4899 0.7491
Cl1 Cl 0.43772(18) -0.4294(3) 0.71741(19)
Cl2 Cl 0.5256(2) -0.5703(5) 0.6209(3)
C34? C 0.5292(7) -0.4655(11) 0.6958(7)
H25? H 0.5672 -0.4027 0.7113
H26? H 0.5515 -0.5317 0.7298
Cl3? Cl 0.43772(18) -0.4294(3) 0.71741(19)
Cl4? Cl 0.5166(10) -0.4948(14) 0.5925(8)
loop_
_geom_bond_atom_site_label_1
_geom_bond_atom_site_label_2
_geom_bond_site_symmetry_1
_geom_bond_site_symmetry_2
Hg1 Br1 1_555 1_555
Br2 Hg1 1_555 1_555
N1 Hg1 1_555 1_555
C1 N1 1_555 1_555
H1 C1 1_555 1_555
C2 C1 1_555 1_555
H2 C2 1_555 1_555
C3 C2 1_555 1_555
C4 C3 1_555 1_555
H3 C4 1_555 1_555
C5 N1 1_555 1_555
H4 C5 1_555 1_555
C6 C3 1_555 1_555
O1 C6 1_555 1_555
N2 C6 1_555 1_555
H5 N2 1_555 1_555
C7 N2 1_555 1_555
C8 C7 1_555 1_555
H6 C8 1_555 1_555
C9 C8 1_555 1_555
H7 C9 1_555 1_555
C10 C9 1_555 1_555
C11 C10 1_555 1_555
H8 C11 1_555 1_555
C12 C11 1_555 1_555
H9 C12 1_555 1_555
C13 C12 1_555 1_555
H10 C13 1_555 1_555
C14 C13 1_555 1_555
H11 C14 1_555 1_555
C15 C10 1_555 1_555
C16 C7 1_555 1_555
C17 C16 1_555 1_555
C18 C17 1_555 1_555
C19 C18 1_555 1_555
H12 C19 1_555 1_555
C20 C19 1_555 1_555
H13 C20 1_555 1_555
C21 C20 1_555 1_555
H14 C21 1_555 1_555
C22 C21 1_555 1_555
H15 C22 1_555 1_555
C23 C18 1_555 1_555
C24 C23 1_555 1_555
H16 C24 1_555 1_555
C25 C24 1_555 1_555
H17 C25 1_555 1_555
C26 C17 1_555 1_555
N3 C26 1_555 1_555
H18 N3 1_555 1_555
C27 N3 1_555 1_555
O2 C27 1_555 1_555
C28 C27 1_555 1_555
C29 C28 1_555 1_555
H19 C29 1_555 1_555
C30 C29 1_555 1_555
H20 C30 1_555 1_555
C31 H21 1_555 1_555
C32 C28 1_555 1_555
H22 C32 1_555 1_555
N4 C30 1_555 1_555
C33 H23 1_555 1_555
H24 C33 1_555 1_555
Cl1 C33 1_555 1_555
Cl2 C33 1_555 1_555
Hg1A N4 1_555 1_555
N4A Hg1 1_555 1_555
C4 C5 1_555 1_555
C14 C15 1_555 1_555
C15 C16 1_555 1_555
C22 C23 1_555 1_555
C25 C26 1_555 1_555
C31 C32 1_555 1_555
C31 N4 1_555 1_555

#END
