
#######################################################################
#
#                 Cambridge Crystallographic Data Centre
#                                CCDC 
#
#######################################################################
#
# If this CIF has been generated from an entry in the Cambridge 
# Structural Database, then it will include bibliographic, chemical, 
# crystal, experimental, refinement or atomic coordinate data resulting 
# from the CCDC's data processing and validation procedures.
#
#######################################################################

data_JAPQOH
_symmetry_cell_setting           monoclinic
_symmetry_space_group_name_H-M   'C 2/c'
_symmetry_Int_Tables_number      15
_space_group_name_Hall           '-C 2yn'
loop_
_symmetry_equiv_pos_site_id
_symmetry_equiv_pos_as_xyz
1 x,y,z
2 1/2+x,1/2+y,z
3 -x,y,1/2-z
4 1/2-x,1/2+y,1/2-z
5 -x,-y,-z
6 1/2-x,1/2-y,-z
7 x,-y,1/2+z
8 1/2+x,1/2-y,1/2+z
_cell_length_a                   23.616(5)
_cell_length_b                   13.384(3)
_cell_length_c                   24.746(5)
_cell_angle_alpha                90
_cell_angle_beta                 103.06(3)
_cell_angle_gamma                90
_cell_volume                     7619.32
loop_
_atom_site_label
_atom_site_type_symbol
_atom_site_fract_x
_atom_site_fract_y
_atom_site_fract_z
Cr1 Cr 0.28922(3) 0.11280(4) 0.10311(2)
Mo1 Mo 0.156484(15) 0.18972(2) 0.108256(13)
Mo2 Mo 0.189629(16) -0.05185(2) 0.118387(14)
Mo3 Mo 0.322257(15) -0.12740(2) 0.109630(13)
Mo4 Mo 0.424993(15) 0.04271(3) 0.103997(14)
Mo5 Mo 0.390013(16) 0.28418(2) 0.094644(15)
Mo6 Mo 0.257089(15) 0.35450(2) 0.096561(13)
Ce1 Ce 0.092964(10) 0.211630(15) 0.250484(8)
O1 O 0.23462(12) 0.09055(18) 0.15082(10)
H1 H 0.2506(19) 0.104(3) 0.1839(9)
O2 O 0.25695(12) -0.01252(18) 0.06692(10)
H2 H 0.245(2) -0.025(3) 0.0338(9)
O3 O 0.34986(12) 0.02581(19) 0.14718(10)
H3 H 0.352(2) 0.037(3) 0.1806(9)
O4 O 0.34853(12) 0.13750(19) 0.05914(10)
H4 H 0.338(2) 0.123(3) 0.0256(9)
O5 O 0.31981(13) 0.23782(19) 0.14027(10)
H5 H 0.328(2) 0.235(3) 0.1748(8)
O6 O 0.22697(12) 0.19791(18) 0.05996(10)
H6 H 0.2123(19) 0.188(3) 0.0271(9)
O7 O 0.14546(12) 0.05828(19) 0.07821(11)
O8 O 0.26343(13) -0.11422(19) 0.15229(11)
O9 O 0.37356(13) -0.06728(19) 0.06834(11)
O10 O 0.43379(13) 0.1728(2) 0.13615(11)
O11 O 0.31600(14) 0.33657(19) 0.05389(11)
O12 O 0.20938(13) 0.29616(19) 0.14146(10)
O13 O 0.12208(14) 0.1812(2) 0.16328(12)
O14 O 0.11088(14) 0.2571(2) 0.05975(12)
O15 O 0.15658(16) -0.0643(2) 0.17289(14)
O16 O 0.16032(15) -0.1425(2) 0.07239(14)
O17 O 0.37064(14) -0.1897(2) 0.16092(12)
O18 O 0.29283(15) -0.2153(2) 0.06151(12)
O19 O 0.46008(15) 0.0531(2) 0.05113(13)
O20 O 0.47107(15) -0.0214(2) 0.15512(13)
O21 O 0.41219(16) 0.3735(2) 0.14370(14)
O22 O 0.42958(16) 0.3057(3) 0.04707(14)
O23 O 0.20595(14) 0.4082(2) 0.04445(11)
O24 O 0.28711(15) 0.4495(2) 0.13898(12)
O25 O -0.00873(14) 0.2190(2) 0.19030(11)
O26 O 0.07799(16) 0.1059(2) 0.33115(13)
N1 N -0.03651(19) 0.1667(4) -0.01267(17)
H7 H -0.037(3) 0.162(5) -0.046(3)
C1 C -0.0172(2) 0.2465(4) 0.0186(2)
H8 H -0.0046 0.3029 0.0028
C2 C -0.0162(2) 0.2446(4) 0.07410(19)
H9 H -0.0027 0.2994 0.0964
C3 C -0.03556(19) 0.1602(3) 0.09650(16)
C4 C -0.0543(2) 0.0786(4) 0.06332(19)
H10 H -0.0665 0.0209 0.0783
C5 C -0.0546(2) 0.0837(4) 0.0081(2)
H11 H -0.0675 0.0295 -0.0149
C6 C -0.04036(19) 0.1595(3) 0.15610(16)
O27 O 0.17892(16) 0.1093(3) 0.28920(15)
H12 H 0.179(3) 0.061(3) 0.3108(19)
H13 H 0.2101(16) 0.108(4) 0.277(2)
O28 O 0.18184(15) 0.3131(2) 0.24481(12)
H14 H 0.202(2) 0.350(3) 0.2692(16)
H15 H 0.198(2) 0.315(4) 0.2184(16)
O29 O 0.06501(17) 0.0395(2) 0.21115(16)
H16 H 0.049(2) -0.004(3) 0.228(2)
H17 H 0.087(2) 0.014(4) 0.192(2)
O30 O 0.06053(15) 0.3841(2) 0.22678(15)
H18 H 0.0270(12) 0.404(4) 0.226(2)
H19 H 0.042(2) 0.391(4) 0.1938(11)
Cr1C Cr 0.21078(3) -0.38720(4) 0.39689(2)
Mo1C Mo 0.343516(15) -0.31028(2) 0.391744(13)
Mo2C Mo 0.310371(16) -0.55185(2) 0.381613(14)
Mo3C Mo 0.177743(15) -0.62740(2) 0.390370(13)
Mo4C Mo 0.075007(15) -0.45729(3) 0.396003(14)
Mo5C Mo 0.109987(16) -0.21582(2) 0.405356(15)
Mo6C Mo 0.242911(15) -0.14550(2) 0.403439(13)
Ce1C Ce 0.407036(10) -0.288370(15) 0.249516(8)
Ce1_2 Ce 0.092964(10) -0.788370(15) 0.250484(8)
Ce1B Ce -0.092964(10) 0.211630(15) 0.249516(8)
O1C O 0.26538(12) -0.40945(18) 0.34918(10)
H1C H 0.2494(19) -0.396(3) 0.3161(9)
O2C O 0.24305(12) -0.51252(18) 0.43308(10)
H2C H 0.255(2) -0.525(3) 0.4662(9)
O3C O 0.15014(12) -0.47419(19) 0.35282(10)
H3C H 0.148(2) -0.463(3) 0.3194(9)
O4C O 0.15147(12) -0.36250(19) 0.44086(10)
H4C H 0.162(2) -0.377(3) 0.4744(9)
O5C O 0.18019(13) -0.26218(19) 0.35973(10)
H5C H 0.172(2) -0.265(3) 0.3252(8)
O6C O 0.27303(12) -0.30209(18) 0.44004(10)
H6C H 0.2877(19) -0.312(3) 0.4729(9)
O7C O 0.35454(12) -0.44172(19) 0.42179(11)
O8C O 0.23657(13) -0.61422(19) 0.34771(11)
O9C O 0.12644(13) -0.56728(19) 0.43166(11)
O10C O 0.06621(13) -0.3272(2) 0.36385(11)
O11C O 0.18400(14) -0.16343(19) 0.44611(11)
O12C O 0.29062(13) -0.20384(19) 0.35854(10)
O13C O 0.37792(14) -0.3188(2) 0.33672(12)
O14C O 0.38912(14) -0.2429(2) 0.44025(12)
O15C O 0.34342(16) -0.5643(2) 0.32711(14)
O16C O 0.33968(15) -0.6425(2) 0.42761(14)
O17C O 0.12936(14) -0.6897(2) 0.33908(12)
O17C_2 O 0.12936(14) 0.3103(2) 0.33908(12)
O18C O 0.20717(15) -0.7153(2) 0.43849(12)
O19C O 0.03992(15) -0.4469(2) 0.44887(13)
O20C O 0.02893(15) -0.5214(2) 0.34488(13)
O21C O 0.08781(16) -0.1265(2) 0.35630(14)
O22C O 0.07042(16) -0.1943(3) 0.45293(14)
O23C O 0.29405(14) -0.0918(2) 0.45555(11)
O24C O 0.21289(15) -0.0505(2) 0.36102(12)
O25C O 0.50873(14) -0.2810(2) 0.30970(11)
O25A O 0.49127(14) -0.2810(2) 0.19030(11)
O25B O 0.00873(14) 0.2190(2) 0.30970(11)
O26C O 0.42201(16) -0.3941(2) 0.16885(13)
O26B O -0.07799(16) 0.1059(2) 0.16885(13)
N1B N 0.03651(19) 0.1667(4) 0.51267(17)
H7B H 0.037(3) 0.162(5) 0.546(3)
C1B C 0.0172(2) 0.2465(4) 0.4814(2)
H8B H 0.0046 0.3029 0.4972
C2B C 0.0162(2) 0.2446(4) 0.42590(19)
H9B H 0.0027 0.2994 0.4036
C3B C 0.03556(19) 0.1602(3) 0.40350(16)
C4B C 0.0543(2) 0.0786(4) 0.43668(19)
H10B H 0.0665 0.0209 0.4217
C5B C 0.0546(2) 0.0837(4) 0.4919(2)
H11B H 0.0675 0.0295 0.5149
C6B C 0.04036(19) 0.1595(3) 0.34390(16)
O27C O 0.32108(16) -0.3907(3) 0.21080(15)
H12C H 0.321(3) -0.439(3) 0.1892(19)
H13C H 0.2899(16) -0.392(4) 0.223(2)
O28C O 0.31816(15) -0.1869(2) 0.25519(12)
H14C H 0.298(2) -0.150(3) 0.2308(16)
H15C H 0.302(2) -0.185(4) 0.2816(16)
O29C O 0.43499(17) -0.4605(2) 0.28885(16)
H16C H 0.451(2) -0.504(3) 0.272(2)
H17C H 0.413(2) -0.486(4) 0.308(2)
O30C O 0.43947(15) -0.1159(2) 0.27322(15)
H18C H 0.4730(12) -0.096(4) 0.274(2)
H19C H 0.458(2) -0.109(4) 0.3062(11)
O31 O 0.36813(15) 0.0457(2) 0.25726(12)
O32 O 0.28047(16) 0.1050(3) 0.25721(12)
N2 N 0.36796(18) 0.0809(3) 0.45692(15)
H20 H 0.374(3) 0.083(4) 0.488(2)
C7 C 0.3264(2) 0.1399(3) 0.42921(18)
H21 H 0.3058 0.1807 0.4484
C8 C 0.3134(2) 0.1413(3) 0.37197(17)
H22 H 0.2844 0.1830 0.3524
C9 C 0.34453(19) 0.0791(3) 0.34390(16)
C10 C 0.3883(2) 0.0193(4) 0.37460(18)
H23 H 0.4103 -0.0211 0.3566
C11 C 0.3992(2) 0.0198(4) 0.43137(19)
H24 H 0.4277 -0.0214 0.4520
C12 C 0.3298(2) 0.0759(3) 0.28060(17)
O33 O 0.2014(2) -0.0743(3) -0.03534(15)
H25 H 0.200(3) -0.1368(16) -0.039(2)
H26 H 0.188(3) -0.049(4) -0.0664(13)
O34 O 0.3642(3) 0.2919(5) 0.2477(2)
H27 H 0.396(3) 0.261(7) 0.261(4)
H28 H 0.332(2) 0.318(7) 0.251(4)
O35 O 0.0000 -0.2949(17) 0.2500
O36 O -0.0518(4) 0.2244(6) -0.1257(3)
O37 O 0.0000 -0.111(4) 0.2500
O38? O 0.0222(7) -0.2963(12) 0.2323(6)
O39? O -0.0479(6) 0.1685(10) -0.1249(5)
O40? O -0.0359(12) 0.111(2) -0.1195(10)
O41? O -0.0106(4) -0.0924(8) 0.2370(4)
loop_
_geom_bond_atom_site_label_1
_geom_bond_atom_site_label_2
_geom_bond_site_symmetry_1
_geom_bond_site_symmetry_2
Cr1 O1 1_555 1_555
Mo1 O1 1_555 1_555
Mo2 O1 1_555 1_555
Mo3 O2 1_555 1_555
Mo4 O3 1_555 1_555
Mo5 O4 1_555 1_555
Mo6 O5 1_555 1_555
Ce1 O13 1_555 1_555
O1 H1 1_555 1_555
O2 Cr1 1_555 1_555
H2 O2 1_555 1_555
O3 Cr1 1_555 1_555
H3 O3 1_555 1_555
O4 Cr1 1_555 1_555
H4 O4 1_555 1_555
O5 Cr1 1_555 1_555
H5 O5 1_555 1_555
O6 Cr1 1_555 1_555
H6 O6 1_555 1_555
O7 Mo1 1_555 1_555
O8 Mo2 1_555 1_555
O9 Mo3 1_555 1_555
O10 Mo4 1_555 1_555
O11 Mo5 1_555 1_555
O12 Mo1 1_555 1_555
O13 Mo1 1_555 1_555
O14 Mo1 1_555 1_555
O15 Mo2 1_555 1_555
O16 Mo2 1_555 1_555
O17 Mo3 1_555 1_555
O18 Mo3 1_555 1_555
O19 Mo4 1_555 1_555
O20 Mo4 1_555 1_555
O21 Mo5 1_555 1_555
O22 Mo5 1_555 1_555
O23 Mo6 1_555 1_555
O24 Mo6 1_555 1_555
O25 Ce1 1_555 1_555
O26 Ce1 1_555 1_555
N1 H7 1_555 1_555
C1 N1 1_555 1_555
H8 C1 1_555 1_555
C2 C1 1_555 1_555
H9 C2 1_555 1_555
C3 C2 1_555 1_555
C4 C3 1_555 1_555
H10 C4 1_555 1_555
C5 N1 1_555 1_555
H11 C5 1_555 1_555
C6 O25 1_555 1_555
O27 Ce1 1_555 1_555
H12 O27 1_555 1_555
H13 O27 1_555 1_555
O28 Ce1 1_555 1_555
H14 O28 1_555 1_555
H15 O28 1_555 1_555
O29 Ce1 1_555 1_555
H16 O29 1_555 1_555
H17 O29 1_555 1_555
O30 Ce1 1_555 1_555
H18 O30 1_555 1_555
H19 O30 1_555 1_555
O31 C12 1_555 1_555
O32 C12 1_555 1_555
N2 H20 1_555 1_555
C7 N2 1_555 1_555
H21 C7 1_555 1_555
C8 C7 1_555 1_555
H22 C8 1_555 1_555
C9 C8 1_555 1_555
C10 C9 1_555 1_555
H23 C10 1_555 1_555
C11 N2 1_555 1_555
H24 C11 1_555 1_555
C12 C9 1_555 1_555
O33 H25 1_555 1_555
H26 O33 1_555 1_555
O34 H27 1_555 1_555
H28 O34 1_555 1_555
Cr1C O1C 1_555 1_555
Mo1C O1C 1_555 1_555
Mo2C O1C 1_555 1_555
Mo3C O2C 1_555 1_555
Mo4C O3C 1_555 1_555
Mo5C O4C 1_555 1_555
Mo6C O5C 1_555 1_555
Ce1C O17 1_555 1_555
Ce1_2 O17C 1_555 1_555
Ce1B O25 1_555 1_555
O1C H1C 1_555 1_555
O2C Cr1C 1_555 1_555
H2C O2C 1_555 1_555
O3C Cr1C 1_555 1_555
H3C O3C 1_555 1_555
O4C Cr1C 1_555 1_555
H4C O4C 1_555 1_555
O5C Cr1C 1_555 1_555
H5C O5C 1_555 1_555
O6C Cr1C 1_555 1_555
H6C O6C 1_555 1_555
O7C Mo1C 1_555 1_555
O8C Mo2C 1_555 1_555
O9C Mo3C 1_555 1_555
O10C Mo4C 1_555 1_555
O11C Mo5C 1_555 1_555
O12C Mo1C 1_555 1_555
O13C Mo1C 1_555 1_555
O14C Mo1C 1_555 1_555
O15C Mo2C 1_555 1_555
O16C Mo2C 1_555 1_555
O17C Mo3C 1_555 1_555
O17C_2 Ce1 1_555 1_555
O18C Mo3C 1_555 1_555
O19C Mo4C 1_555 1_555
O20C Mo4C 1_555 1_555
O21C Mo5C 1_555 1_555
O22C Mo5C 1_555 1_555
O23C Mo6C 1_555 1_555
O24C Mo6C 1_555 1_555
O25C Ce1C 1_555 1_555
O25A Ce1C 1_555 1_555
O25B Ce1 1_555 1_555
O26C Ce1C 1_555 1_555
O26B C6 1_555 1_555
N1B H7B 1_555 1_555
C1B N1B 1_555 1_555
H8B C1B 1_555 1_555
C2B C1B 1_555 1_555
H9B C2B 1_555 1_555
C3B C2B 1_555 1_555
C4B C3B 1_555 1_555
H10B C4B 1_555 1_555
C5B N1B 1_555 1_555
H11B C5B 1_555 1_555
C6B O26 1_555 1_555
O27C Ce1C 1_555 1_555
H12C O27C 1_555 1_555
H13C O27C 1_555 1_555
O28C Ce1C 1_555 1_555
H14C O28C 1_555 1_555
H15C O28C 1_555 1_555
O29C Ce1C 1_555 1_555
H16C O29C 1_555 1_555
H17C O29C 1_555 1_555
O30C Ce1C 1_555 1_555
H18C O30C 1_555 1_555
H19C O30C 1_555 1_555
Mo1 O6 1_555 1_555
Mo2 O2 1_555 1_555
Mo2 O7 1_555 1_555
Mo3 O3 1_555 1_555
Mo3 O8 1_555 1_555
Mo4 O4 1_555 1_555
Mo4 O9 1_555 1_555
Mo5 O5 1_555 1_555
Mo5 O10 1_555 1_555
Mo6 O6 1_555 1_555
Mo6 O11 1_555 1_555
Mo6 O12 1_555 1_555
C3 C6 1_555 1_555
C4 C5 1_555 1_555
C10 C11 1_555 1_555
Mo1C O6C 1_555 1_555
Mo2C O2C 1_555 1_555
Mo2C O7C 1_555 1_555
Mo3C O3C 1_555 1_555
Mo3C O8C 1_555 1_555
Mo4C O4C 1_555 1_555
Mo4C O9C 1_555 1_555
Mo5C O5C 1_555 1_555
Mo5C O10C 1_555 1_555
Mo6C O6C 1_555 1_555
Mo6C O11C 1_555 1_555
Mo6C O12C 1_555 1_555
Ce1C O13C 1_555 1_555
Ce1B O25B 1_555 1_555
Ce1B O26B 1_555 1_555
O25B C6B 1_555 1_555
C3B C6B 1_555 1_555
C4B C5B 1_555 1_555

#END
