
#######################################################################
#
#                 Cambridge Crystallographic Data Centre
#                                CCDC 
#
#######################################################################
#
# If this CIF has been generated from an entry in the Cambridge 
# Structural Database, then it will include bibliographic, chemical, 
# crystal, experimental, refinement or atomic coordinate data resulting 
# from the CCDC's data processing and validation procedures.
#
#######################################################################

data_JAPRAU
_symmetry_cell_setting           monoclinic
_symmetry_space_group_name_H-M   'C 2/c'
_symmetry_Int_Tables_number      15
_space_group_name_Hall           '-C 2yn'
loop_
_symmetry_equiv_pos_site_id
_symmetry_equiv_pos_as_xyz
1 x,y,z
2 1/2+x,1/2+y,z
3 -x,y,1/2-z
4 1/2-x,1/2+y,1/2-z
5 -x,-y,-z
6 1/2-x,1/2-y,-z
7 x,-y,1/2+z
8 1/2+x,1/2-y,1/2+z
_cell_length_a                   23.624(5)
_cell_length_b                   13.366(3)
_cell_length_c                   24.727(5)
_cell_angle_alpha                90
_cell_angle_beta                 103.06(3)
_cell_angle_gamma                90
_cell_volume                     7605.8
loop_
_atom_site_label
_atom_site_type_symbol
_atom_site_fract_x
_atom_site_fract_y
_atom_site_fract_z
Cr1 Cr 0.28915(6) 0.38726(9) 0.10315(5)
Mo1 Mo 0.15620(3) 0.30974(5) 0.10846(3)
Mo2 Mo 0.25707(3) 0.14498(5) 0.09666(3)
Mo3 Mo 0.39019(4) 0.21545(5) 0.09458(3)
Mo4 Mo 0.42523(3) 0.45731(5) 0.10421(3)
Mo5 Mo 0.32233(3) 0.62756(5) 0.10996(3)
Mo6 Mo 0.18939(3) 0.55160(5) 0.11880(3)
Pr1 Pr 0.09284(2) 0.28776(3) 0.250452(18)
O1 O 0.2266(3) 0.3018(4) 0.0601(2)
O2 O 0.1811(3) 0.1862(5) 0.2447(3)
O3 O 0.3196(3) 0.2618(4) 0.1404(2)
O4 O 0.0602(3) 0.1157(4) 0.2265(3)
O5 O 0.3487(2) 0.3628(4) 0.0590(2)
O6 O 0.0656(3) 0.4594(5) 0.2110(3)
O7 O 0.3499(2) 0.4733(4) 0.1472(2)
O8 O 0.1783(3) 0.3892(5) 0.2892(3)
O9 O 0.2569(3) 0.5130(4) 0.0671(2)
O11 O 0.2345(3) 0.4086(4) 0.1514(2)
O13 O 0.2088(3) 0.2041(4) 0.1411(2)
O15 O 0.3163(3) 0.1638(4) 0.0539(2)
O17 O 0.4342(3) 0.3275(5) 0.1361(3)
O19 O 0.3735(3) 0.5678(4) 0.0690(2)
O20 O 0.2633(3) 0.6138(4) 0.1526(2)
O21 O 0.1450(3) 0.4416(4) 0.0783(2)
O22 O 0.1222(3) 0.3180(5) 0.1630(3)
O23 O 0.1110(3) 0.2423(5) 0.0597(3)
O24 O 0.2054(3) 0.0913(4) 0.0443(2)
O25 O 0.2872(3) 0.0496(4) 0.1393(3)
O26 O 0.4128(3) 0.1264(5) 0.1433(3)
O27 O 0.4297(3) 0.1947(5) 0.0470(3)
O28 O 0.4710(3) 0.5216(5) 0.1557(3)
O29 O 0.4605(3) 0.4471(5) 0.0514(3)
O30 O 0.2925(3) 0.7149(4) 0.0620(3)
O31 O 0.3710(3) 0.6902(4) 0.1610(2)
O32 O 0.1603(3) 0.6426(4) 0.0732(3)
O33 O 0.1565(3) 0.5644(5) 0.1733(3)
O34 O -0.0090(3) 0.2805(4) 0.1907(2)
O35 O 0.0779(3) 0.3934(5) 0.3308(3)
C1 C -0.0399(4) 0.3378(6) 0.1565(3)
C2 C -0.0356(4) 0.3390(7) 0.0968(4)
C3 C -0.0172(5) 0.2538(8) 0.0742(4)
H1 H -0.0058 0.1969 0.0956
C4 C -0.0165(5) 0.2567(9) 0.0188(4)
H2 H -0.0007 0.2031 0.0032
C5 C -0.0555(5) 0.4168(8) 0.0085(4)
H3 H -0.0684 0.4711 -0.0145
C6 C -0.0545(5) 0.4207(8) 0.0638(4)
H4 H -0.0666 0.4782 0.0792
N1 N -0.0371(4) 0.3319(8) -0.0121(3)
H9 H -0.0392 0.3280 -0.0473
Cr1C Cr 0.21085(6) 0.88726(9) 0.39685(5)
Mo1C Mo 0.34380(3) 0.80974(5) 0.39154(3)
Mo2C Mo 0.24293(3) 0.64498(5) 0.40334(3)
Mo3C Mo 0.10981(4) 0.71545(5) 0.40542(3)
Mo4C Mo 0.07477(3) 0.95731(5) 0.39579(3)
Mo5C Mo 0.17767(3) 1.12756(5) 0.39004(3)
Mo6C Mo 0.31061(3) 1.05160(5) 0.38120(3)
Pr1C Pr 0.40716(2) 0.78776(3) 0.249548(18)
Pr1_2 Pr 0.09284(2) 1.28776(3) 0.250452(18)
Pr1B Pr -0.09284(2) 0.28776(3) 0.249548(18)
O1C O 0.2734(3) 0.8018(4) 0.4399(2)
O2C O 0.3189(3) 0.6862(5) 0.2553(3)
O3C O 0.1804(3) 0.7618(4) 0.3596(2)
O4C O 0.4398(3) 0.6157(4) 0.2735(3)
O5C O 0.1513(2) 0.8628(4) 0.4410(2)
O6C O 0.4344(3) 0.9594(5) 0.2890(3)
O7C O 0.1501(2) 0.9733(4) 0.3528(2)
O8C O 0.3217(3) 0.8892(5) 0.2108(3)
O9C O 0.2431(3) 1.0130(4) 0.4329(2)
O11C O 0.2655(3) 0.9086(4) 0.3486(2)
O13C O 0.2912(3) 0.7041(4) 0.3589(2)
O15C O 0.1837(3) 0.6638(4) 0.4461(2)
O17C O 0.0658(3) 0.8275(5) 0.3639(3)
O19C O 0.1265(3) 1.0678(4) 0.4310(2)
O20C O 0.2367(3) 1.1138(4) 0.3474(2)
O21C O 0.3550(3) 0.9416(4) 0.4217(2)
O22C O 0.3778(3) 0.8180(5) 0.3370(3)
O23C O 0.3890(3) 0.7423(5) 0.4403(3)
O24C O 0.2946(3) 0.5913(4) 0.4557(2)
O25C O 0.2128(3) 0.5496(4) 0.3607(3)
O26C O 0.0872(3) 0.6264(5) 0.3567(3)
O27C O 0.0703(3) 0.6947(5) 0.4530(3)
O28C O 0.0290(3) 1.0216(5) 0.3443(3)
O29C O 0.0395(3) 0.9471(5) 0.4486(3)
O30C O 0.2075(3) 1.2149(4) 0.4380(3)
O31C O 0.1290(3) 1.1902(4) 0.3390(2)
O31C_2 O 0.1290(3) 0.1902(4) 0.3390(2)
O32C O 0.3397(3) 1.1426(4) 0.4268(3)
O33C O 0.3435(3) 1.0644(5) 0.3267(3)
O34C O 0.5090(3) 0.7805(4) 0.3093(2)
O34A O 0.4910(3) 0.7805(4) 0.1907(2)
O34B O 0.0090(3) 0.2805(4) 0.3093(2)
O35C O 0.4221(3) 0.8934(5) 0.1692(3)
O35B O -0.0779(3) 0.3934(5) 0.1692(3)
C1B C 0.0399(4) 0.3378(6) 0.3435(3)
C2B C 0.0356(4) 0.3390(7) 0.4032(4)
C3B C 0.0172(5) 0.2538(8) 0.4258(4)
H1B H 0.0058 0.1969 0.4044
C4B C 0.0165(5) 0.2567(9) 0.4812(4)
H2B H 0.0007 0.2031 0.4968
C5B C 0.0555(5) 0.4168(8) 0.4915(4)
H3B H 0.0684 0.4711 0.5145
C6B C 0.0545(5) 0.4207(8) 0.4362(4)
H4B H 0.0666 0.4782 0.4208
N1B N 0.0371(4) 0.3319(8) 0.5121(3)
H9B H 0.0392 0.3280 0.5473
O10 O 0.2006(4) 0.5751(5) -0.0362(3)
O12 O 0.3638(6) 0.2092(7) 0.2475(4)
O14 O 0.0000 0.5927(9) 0.2500
O16 O 0.5508(7) 0.2086(10) 0.1253(6)
O18 O 0.0000 0.793(2) 0.2500
O36 O 0.2194(3) -0.1052(7) 0.2425(3)
O37 O 0.1320(3) -0.0449(5) 0.2424(3)
C7 C 0.1699(5) -0.0764(7) 0.2193(4)
C8 C 0.1553(4) -0.0784(7) 0.1561(3)
C9 C 0.1110(5) -0.0187(8) 0.1252(4)
H5 H 0.0889 0.0219 0.1431
C10 C 0.1003(6) -0.0207(9) 0.0682(4)
H6 H 0.0713 0.0196 0.0474
C11 C 0.1736(5) -0.1403(7) 0.0713(4)
H7 H 0.1937 -0.1824 0.0522
C12 C 0.1870(5) -0.1400(7) 0.1275(4)
H8 H 0.2169 -0.1801 0.1470
N2 N 0.1317(4) -0.0806(6) 0.0428(3)
H10 H 0.1248 -0.0807 0.0071
loop_
_geom_bond_atom_site_label_1
_geom_bond_atom_site_label_2
_geom_bond_site_symmetry_1
_geom_bond_site_symmetry_2
Cr1 O1 1_555 1_555
Mo1 O1 1_555 1_555
Mo2 O1 1_555 1_555
Mo3 O3 1_555 1_555
Mo4 O5 1_555 1_555
Mo5 O7 1_555 1_555
Mo6 O9 1_555 1_555
Pr1 O2 1_555 1_555
O3 Cr1 1_555 1_555
O4 Pr1 1_555 1_555
O5 Cr1 1_555 1_555
O6 Pr1 1_555 1_555
O7 Cr1 1_555 1_555
O8 Pr1 1_555 1_555
O9 Cr1 1_555 1_555
O11 Cr1 1_555 1_555
O13 Mo1 1_555 1_555
O15 Mo2 1_555 1_555
O17 Mo3 1_555 1_555
O19 Mo4 1_555 1_555
O20 Mo5 1_555 1_555
O21 Mo1 1_555 1_555
O22 Mo1 1_555 1_555
O23 Mo1 1_555 1_555
O24 Mo2 1_555 1_555
O25 Mo2 1_555 1_555
O26 Mo3 1_555 1_555
O27 Mo3 1_555 1_555
O28 Mo4 1_555 1_555
O29 Mo4 1_555 1_555
O30 Mo5 1_555 1_555
O31 Mo5 1_555 1_555
O32 Mo6 1_555 1_555
O33 Mo6 1_555 1_555
O34 Pr1 1_555 1_555
O35 Pr1 1_555 1_555
O36 C7 1_555 1_555
O37 C7 1_555 1_555
C1 O34 1_555 1_555
C2 C1 1_555 1_555
C3 C2 1_555 1_555
H1 C3 1_555 1_555
C4 C3 1_555 1_555
H2 C4 1_555 1_555
C5 H3 1_555 1_555
C6 C2 1_555 1_555
H4 C6 1_555 1_555
C7 C8 1_555 1_555
C8 C9 1_555 1_555
C9 H5 1_555 1_555
C10 C9 1_555 1_555
H6 C10 1_555 1_555
C11 H7 1_555 1_555
C12 C8 1_555 1_555
H8 C12 1_555 1_555
N1 C4 1_555 1_555
H9 N1 1_555 1_555
N2 C10 1_555 1_555
H10 N2 1_555 1_555
Cr1C O1C 1_555 1_555
Mo1C O1C 1_555 1_555
Mo2C O1C 1_555 1_555
Mo3C O3C 1_555 1_555
Mo4C O5C 1_555 1_555
Mo5C O7C 1_555 1_555
Mo6C O9C 1_555 1_555
Pr1C O31 1_555 1_555
Pr1_2 O31C 1_555 1_555
Pr1B O34 1_555 1_555
O2C Pr1C 1_555 1_555
O3C Cr1C 1_555 1_555
O4C Pr1C 1_555 1_555
O5C Cr1C 1_555 1_555
O6C Pr1C 1_555 1_555
O7C Cr1C 1_555 1_555
O8C Pr1C 1_555 1_555
O9C Cr1C 1_555 1_555
O11C Cr1C 1_555 1_555
O13C Mo1C 1_555 1_555
O15C Mo2C 1_555 1_555
O17C Mo3C 1_555 1_555
O19C Mo4C 1_555 1_555
O20C Mo5C 1_555 1_555
O21C Mo1C 1_555 1_555
O22C Mo1C 1_555 1_555
O23C Mo1C 1_555 1_555
O24C Mo2C 1_555 1_555
O25C Mo2C 1_555 1_555
O26C Mo3C 1_555 1_555
O27C Mo3C 1_555 1_555
O28C Mo4C 1_555 1_555
O29C Mo4C 1_555 1_555
O30C Mo5C 1_555 1_555
O31C Mo5C 1_555 1_555
O31C_2 Pr1 1_555 1_555
O32C Mo6C 1_555 1_555
O33C Mo6C 1_555 1_555
O34C Pr1C 1_555 1_555
O34A Pr1C 1_555 1_555
O34B Pr1 1_555 1_555
O35C Pr1C 1_555 1_555
O35B C1 1_555 1_555
C1B O35 1_555 1_555
C2B C1B 1_555 1_555
C3B C2B 1_555 1_555
H1B C3B 1_555 1_555
C4B C3B 1_555 1_555
H2B C4B 1_555 1_555
C5B H3B 1_555 1_555
C6B C2B 1_555 1_555
H4B C6B 1_555 1_555
N1B C4B 1_555 1_555
H9B N1B 1_555 1_555
Mo1 O11 1_555 1_555
Mo2 O3 1_555 1_555
Mo2 O13 1_555 1_555
Mo3 O5 1_555 1_555
Mo3 O15 1_555 1_555
Mo4 O7 1_555 1_555
Mo4 O17 1_555 1_555
Mo5 O9 1_555 1_555
Mo5 O19 1_555 1_555
Mo6 O11 1_555 1_555
Mo6 O20 1_555 1_555
Mo6 O21 1_555 1_555
Pr1 O22 1_555 1_555
C5 C6 1_555 1_555
C5 N1 1_555 1_555
C11 C12 1_555 1_555
C11 N2 1_555 1_555
Mo1C O11C 1_555 1_555
Mo2C O3C 1_555 1_555
Mo2C O13C 1_555 1_555
Mo3C O5C 1_555 1_555
Mo3C O15C 1_555 1_555
Mo4C O7C 1_555 1_555
Mo4C O17C 1_555 1_555
Mo5C O9C 1_555 1_555
Mo5C O19C 1_555 1_555
Mo6C O11C 1_555 1_555
Mo6C O20C 1_555 1_555
Mo6C O21C 1_555 1_555
Pr1C O22C 1_555 1_555
Pr1B O34B 1_555 1_555
Pr1B O35B 1_555 1_555
O34B C1B 1_555 1_555
C5B C6B 1_555 1_555
C5B N1B 1_555 1_555

#END
