
#######################################################################
#
#                 Cambridge Crystallographic Data Centre
#                                CCDC 
#
#######################################################################
#
# If this CIF has been generated from an entry in the Cambridge 
# Structural Database, then it will include bibliographic, chemical, 
# crystal, experimental, refinement or atomic coordinate data resulting 
# from the CCDC's data processing and validation procedures.
#
#######################################################################

data_JAQPUN
_symmetry_cell_setting           triclinic
_symmetry_space_group_name_H-M   'P -1'
_symmetry_Int_Tables_number      2
_space_group_name_Hall           '-P 1'
loop_
_symmetry_equiv_pos_site_id
_symmetry_equiv_pos_as_xyz
1 x,y,z
2 -x,-y,-z
_cell_length_a                   4.7013(9)
_cell_length_b                   5.6822(11)
_cell_length_c                   17.758(4)
_cell_angle_alpha                87.39(3)
_cell_angle_beta                 85.39(3)
_cell_angle_gamma                85.76(3)
_cell_volume                     471.179
loop_
_atom_site_label
_atom_site_type_symbol
_atom_site_fract_x
_atom_site_fract_y
_atom_site_fract_z
Mn1 Mn 0.5000 0.5000 0.5000
O1 O 0.2732(3) 0.8330(3) 0.46832(9)
H1 H 0.337(5) 0.951(4) 0.4432(14)
H2 H 0.120(4) 0.799(5) 0.4498(15)
O2 O 0.8677(3) 0.5461(2) 0.41546(7)
O3 O 1.2805(3) 0.3236(3) 0.41921(8)
O4 O 1.1642(3) 0.0505(3) 0.31426(8)
O5 O 0.7615(4) -0.2166(4) 0.01881(10)
H3 H 0.633(6) -0.184(7) -0.0119(17)
O6 O 0.5990(4) 0.1008(3) 0.08307(10)
C1 C 1.0421(4) 0.3784(3) 0.39372(10)
C2 C 0.9526(4) 0.2370(4) 0.33014(11)
H4 H 0.7700 0.1728 0.3449
H5 H 0.9314 0.3388 0.2853
C3 C 1.1411(4) -0.0788(4) 0.25181(11)
C4 C 1.3248(5) -0.2816(4) 0.24580(12)
H6 H 1.4497 -0.3231 0.2830
C5 C 1.3206(5) -0.4216(4) 0.18407(13)
H7 H 1.4422 -0.5580 0.1804
C6 C 1.1379(5) -0.3612(4) 0.12778(12)
H8 H 1.1362 -0.4558 0.0864
C7 C 0.9578(5) -0.1578(4) 0.13403(11)
C8 C 0.9567(5) -0.0155(4) 0.19639(11)
H9 H 0.8334 0.1199 0.2004
C9 C 0.7592(5) -0.0858(4) 0.07474(12)
Mn1_2 Mn 1.5000 0.5000 0.5000
Mn1_3 Mn -0.5000 0.5000 0.5000
O1A O 0.7268(3) 0.1670(3) 0.53168(9)
H1A H 0.663(5) 0.049(4) 0.5568(14)
H2A H 0.880(4) 0.201(5) 0.5502(15)
O2A O 0.1323(3) 0.4539(2) 0.58454(7)
O3A O -0.2805(3) 0.6764(3) 0.58079(8)
O3_2 O 0.2805(3) 0.3236(3) 0.41921(8)
O3A_2 O 0.7195(3) 0.6764(3) 0.58079(8)
O4A O -0.1642(3) 0.9495(3) 0.68574(8)
O5A O 0.2385(4) 1.2166(4) 0.98119(10)
H3A H 0.367(6) 1.184(7) 1.0119(17)
O6A O 0.4010(4) 0.8992(3) 0.91693(10)
C1A C -0.0421(4) 0.6216(3) 0.60628(10)
C2A C 0.0474(4) 0.7630(4) 0.66986(11)
H4A H 0.2300 0.8272 0.6551
H5A H 0.0686 0.6612 0.7147
C3A C -0.1411(4) 1.0788(4) 0.74819(11)
C4A C -0.3248(5) 1.2816(4) 0.75420(12)
H6A H -0.4497 1.3231 0.7170
C5A C -0.3206(5) 1.4216(4) 0.81593(13)
H7A H -0.4422 1.5580 0.8196
C6A C -0.1379(5) 1.3612(4) 0.87222(12)
H8A H -0.1362 1.4558 0.9136
C7A C 0.0422(5) 1.1578(4) 0.86597(11)
C8A C 0.0433(5) 1.0155(4) 0.80361(11)
H9A H 0.1666 0.8801 0.7996
C9A C 0.2408(5) 1.0858(4) 0.92526(12)
loop_
_geom_bond_atom_site_label_1
_geom_bond_atom_site_label_2
_geom_bond_site_symmetry_1
_geom_bond_site_symmetry_2
Mn1 O1 1_555 1_555
O1 H1 1_555 1_555
H2 O1 1_555 1_555
O2 Mn1 1_555 1_555
O3 C1 1_555 1_555
O4 C2 1_555 1_555
O5 H3 1_555 1_555
O6 C9 1_555 1_555
C1 O2 1_555 1_555
C2 C1 1_555 1_555
H4 C2 1_555 1_555
H5 C2 1_555 1_555
C3 O4 1_555 1_555
C4 C3 1_555 1_555
H6 C4 1_555 1_555
C5 C4 1_555 1_555
H7 C5 1_555 1_555
C6 C5 1_555 1_555
H8 C6 1_555 1_555
C7 C6 1_555 1_555
C8 C3 1_555 1_555
H9 C8 1_555 1_555
C9 O5 1_555 1_555
Mn1_2 O3 1_555 1_555
Mn1_3 O3A 1_555 1_555
O1A Mn1 1_555 1_555
H1A O1A 1_555 1_555
H2A O1A 1_555 1_555
O2A Mn1 1_555 1_555
O3A C1A 1_555 1_555
O3_2 Mn1 1_555 1_555
O3A_2 Mn1 1_555 1_555
O4A C2A 1_555 1_555
O5A H3A 1_555 1_555
O6A C9A 1_555 1_555
C1A O2A 1_555 1_555
C2A C1A 1_555 1_555
H4A C2A 1_555 1_555
H5A C2A 1_555 1_555
C3A O4A 1_555 1_555
C4A C3A 1_555 1_555
H6A C4A 1_555 1_555
C5A C4A 1_555 1_555
H7A C5A 1_555 1_555
C6A C5A 1_555 1_555
H8A C6A 1_555 1_555
C7A C6A 1_555 1_555
C8A C3A 1_555 1_555
H9A C8A 1_555 1_555
C9A O5A 1_555 1_555
C7 C8 1_555 1_555
C7 C9 1_555 1_555
C7A C8A 1_555 1_555
C7A C9A 1_555 1_555

#END
