
#######################################################################
#
#                 Cambridge Crystallographic Data Centre
#                                CCDC 
#
#######################################################################
#
# If this CIF has been generated from an entry in the Cambridge 
# Structural Database, then it will include bibliographic, chemical, 
# crystal, experimental, refinement or atomic coordinate data resulting 
# from the CCDC's data processing and validation procedures.
#
#######################################################################

data_JAQSAW
_symmetry_cell_setting           monoclinic
_symmetry_space_group_name_H-M   'C 2/c'
_symmetry_Int_Tables_number      15
_space_group_name_Hall           '-C 2yn'
loop_
_symmetry_equiv_pos_site_id
_symmetry_equiv_pos_as_xyz
1 x,y,z
2 1/2+x,1/2+y,z
3 -x,y,1/2-z
4 1/2-x,1/2+y,1/2-z
5 -x,-y,-z
6 1/2-x,1/2-y,-z
7 x,-y,1/2+z
8 1/2+x,1/2-y,1/2+z
_cell_length_a                   10.2128(16)
_cell_length_b                   13.145(2)
_cell_length_c                   18.350(3)
_cell_angle_alpha                90.00
_cell_angle_beta                 102.151(3)
_cell_angle_gamma                90.00
_cell_volume                     2408.25
loop_
_atom_site_label
_atom_site_type_symbol
_atom_site_fract_x
_atom_site_fract_y
_atom_site_fract_z
Cu1 Cu 0.5000 0.992950(18) 0.7500
Ni1 Ni 1.0000 1.0000 1.0000
N1 N 0.56013(14) 0.99080(10) 0.88220(8)
N2 N 0.80758(17) 1.22317(12) 0.80906(9)
N3 N 0.63890(14) 1.09851(11) 0.75211(8)
N4 N 0.80140(15) 0.99548(10) 0.93663(8)
N5 N 0.37497(15) 0.93308(14) 0.93919(9)
N6 N 0.97770(15) 0.85590(11) 1.04256(9)
N7 N 0.86754(14) 1.38372(10) 0.75677(8)
N8 N 0.92586(15) 1.05285(11) 1.08979(8)
C1 C 0.89150(19) 0.87038(15) 1.09729(11)
C2 C 0.46576(16) 0.96023(13) 0.91650(9)
C3 C 0.92946(19) 0.77704(14) 0.98589(12)
C4 C 0.83479(16) 1.30745(13) 0.77818(9)
C5 C 0.68656(17) 0.99202(11) 0.91528(9)
C6 C 0.71582(17) 1.16027(12) 0.77571(9)
C7 C 0.93358(19) 0.96630(16) 1.14177(10)
C8 C 0.98717(19) 1.14670(15) 1.12554(11)
C9 C 1.0193(2) 0.76616(15) 0.93004(12)
H1 H 0.839(2) 0.7961(14) 0.9593(11)
H2 H 0.877(2) 0.9757(15) 1.1776(12)
H3 H 0.7986(19) 0.8775(14) 1.0688(10)
H4 H 0.841(2) 1.0659(14) 1.0722(11)
H5 H 1.026(2) 0.9618(15) 1.1700(11)
H6 H 0.893(2) 0.8109(17) 1.1302(13)
H7 H 1.113(2) 0.7576(16) 0.9581(12)
H8 H 0.921(2) 0.7115(16) 1.0116(12)
H9 H 0.995(2) 0.7010(16) 0.9017(12)
H10 H 1.076(2) 1.1317(15) 1.1455(11)
H11 H 1.056(2) 0.8362(16) 1.0683(12)
H12 H 0.943(2) 1.1676(17) 1.1666(12)
Cu1A Cu 1.0000 1.492950(18) 0.7500
Cu1A_2 Cu 0.0000 1.492950(18) 0.7500
Ni1F Ni 0.0000 1.0000 0.5000
N1B N 0.43987(14) 0.99080(10) 0.61780(8)
N2B N 0.19242(17) 1.22317(12) 0.69094(9)
N3B N 0.36110(14) 1.09851(11) 0.74789(8)
N4B N 0.19860(15) 0.99548(10) 0.56337(8)
N4D N 1.19860(15) 1.00452(10) 1.06337(8)
N5B N 0.62503(15) 0.93308(14) 0.56081(9)
N6D N 1.02230(15) 1.14410(11) 0.95744(9)
N7B N 0.13246(14) 1.38372(10) 0.74323(8)
N7A N 0.36754(14) 0.88372(10) 0.75677(8)
N7C N 0.63246(14) 0.88372(10) 0.74323(8)
N8D N 1.07414(15) 0.94715(11) 0.91021(8)
C1D C 1.10850(19) 1.12962(15) 0.90271(11)
C2B C 0.53424(16) 0.96023(13) 0.58350(9)
C3D C 1.07054(19) 1.22296(14) 1.01411(12)
C4B C 0.16521(16) 1.30745(13) 0.72182(9)
C5B C 0.31344(17) 0.99202(11) 0.58472(9)
C6B C 0.28418(17) 1.16027(12) 0.72429(9)
C7D C 1.06642(19) 1.03370(16) 0.85823(10)
C8D C 1.01283(19) 0.85330(15) 0.87446(11)
C9D C 0.9807(2) 1.23384(15) 1.06996(12)
H1D H 1.161(2) 1.2039(14) 1.0407(11)
H2D H 1.123(2) 1.0243(15) 0.8224(12)
H3D H 1.2014(19) 1.1225(14) 0.9312(10)
H4D H 1.159(2) 0.9341(14) 0.9278(11)
H5D H 0.974(2) 1.0382(15) 0.8300(11)
H6D H 1.107(2) 1.1891(17) 0.8698(13)
H7D H 0.887(2) 1.2424(16) 1.0419(12)
H8D H 1.079(2) 1.2885(16) 0.9884(12)
H9D H 1.005(2) 1.2990(16) 1.0983(12)
H10D H 0.924(2) 0.8683(15) 0.8545(11)
H11D H 0.944(2) 1.1638(16) 0.9317(12)
H12D H 1.057(2) 0.8324(17) 0.8334(12)
loop_
_geom_bond_atom_site_label_1
_geom_bond_atom_site_label_2
_geom_bond_site_symmetry_1
_geom_bond_site_symmetry_2
Cu1 N1 1_555 1_555
Ni1 N4 1_555 1_555
N1 C2 1_555 1_555
N2 C4 1_555 1_555
N3 Cu1 1_555 1_555
N4 C5 1_555 1_555
N5 C2 1_555 1_555
N6 Ni1 1_555 1_555
N7 C4 1_555 1_555
N8 Ni1 1_555 1_555
C1 N6 1_555 1_555
C3 N6 1_555 1_555
C5 N1 1_555 1_555
C6 N2 1_555 1_555
C7 N8 1_555 1_555
C8 N8 1_555 1_555
C9 C3 1_555 1_555
H1 C3 1_555 1_555
H2 C7 1_555 1_555
H3 C1 1_555 1_555
H4 N8 1_555 1_555
H5 C7 1_555 1_555
H6 C1 1_555 1_555
H7 C9 1_555 1_555
H8 C3 1_555 1_555
H9 C9 1_555 1_555
H10 C8 1_555 1_555
H11 N6 1_555 1_555
H12 C8 1_555 1_555
Cu1A N7 1_555 1_555
Cu1A_2 N7B 1_555 1_555
Ni1F N4B 1_555 1_555
N1B Cu1 1_555 1_555
N2B C4B 1_555 1_555
N3B Cu1 1_555 1_555
N4B C5B 1_555 1_555
N4D Ni1 1_555 1_555
N5B C2B 1_555 1_555
N6D Ni1 1_555 1_555
N7B C4B 1_555 1_555
N7A Cu1 1_555 1_555
N7C Cu1 1_555 1_555
N8D Ni1 1_555 1_555
C1D N6D 1_555 1_555
C2B N1B 1_555 1_555
C3D N6D 1_555 1_555
C5B N1B 1_555 1_555
C6B N2B 1_555 1_555
C7D N8D 1_555 1_555
C8D C9 1_555 1_555
C9D C8 1_555 1_555
H1D C3D 1_555 1_555
H2D C7D 1_555 1_555
H3D C1D 1_555 1_555
H4D N8D 1_555 1_555
H5D C7D 1_555 1_555
H6D C1D 1_555 1_555
H7D C9D 1_555 1_555
H8D C3D 1_555 1_555
H9D C9D 1_555 1_555
H10D C8D 1_555 1_555
H11D N6D 1_555 1_555
H12D C8D 1_555 1_555
N3 C6 1_555 1_555
C1 C7 1_555 1_555
N3B C6B 1_555 1_555
N8D C8D 1_555 1_555
C1D C7D 1_555 1_555
C3D C9D 1_555 1_555

#END
