
#######################################################################
#
#                 Cambridge Crystallographic Data Centre
#                                CCDC 
#
#######################################################################
#
# If this CIF has been generated from an entry in the Cambridge 
# Structural Database, then it will include bibliographic, chemical, 
# crystal, experimental, refinement or atomic coordinate data resulting 
# from the CCDC's data processing and validation procedures.
#
#######################################################################

data_JAQTOL
_symmetry_cell_setting           monoclinic
_symmetry_space_group_name_H-M   'P 21/c'
_symmetry_Int_Tables_number      14
_space_group_name_Hall           '-P 2ybc'
loop_
_symmetry_equiv_pos_site_id
_symmetry_equiv_pos_as_xyz
1 x,y,z
2 -x,1/2+y,1/2-z
3 -x,-y,-z
4 x,1/2-y,1/2+z
_cell_length_a                   12.724(2)
_cell_length_b                   27.929(3)
_cell_length_c                   15.907(2)
_cell_angle_alpha                90
_cell_angle_beta                 97.630(3)
_cell_angle_gamma                90
_cell_volume                     5602.8
loop_
_atom_site_label
_atom_site_type_symbol
_atom_site_fract_x
_atom_site_fract_y
_atom_site_fract_z
Ru1 Ru 0.28822(7) 0.26328(3) 0.63146(5)
Ru2 Ru 0.17550(6) 0.27415(3) 0.72737(5)
Br1 Br 0.3883(1) 0.09173(5) 0.70651(9)
Br2 Br 0.2291(2) 0.01769(5) 0.5828(1)
Br3 Br 0.0500(1) 0.06268(5) 0.43571(9)
Br4 Br 0.04069(9) 0.18160(4) 0.40681(7)
Br5 Br 0.60672(9) 0.34200(5) 0.79665(9)
Br6 Br 0.6082(1) 0.45850(5) 0.7543(1)
Br7 Br 0.4357(1) 0.50180(5) 0.6012(1)
Br8 Br 0.2516(1) 0.42819(5) 0.49989(9)
Br9 Br 0.1163(1) 0.10145(5) 0.78415(9)
Br10 Br -0.0822(1) 0.05830(5) 0.64541(10)
Br11 Br -0.2233(1) 0.13370(6) 0.51536(10)
Br12 Br -0.16102(9) 0.24988(5) 0.52467(8)
Br13 Br 0.4578(1) 0.30225(5) 0.97516(8)
Br14 Br 0.5098(1) 0.41987(7) 0.9947(1)
Br15 Br 0.3670(1) 0.49590(5) 0.8674(1)
Br16 Br 0.1783(1) 0.45347(4) 0.72335(8)
Na1 Na 0.4371(4) 0.2363(2) 0.8023(4)
Na2 Na 0.0919(5) 0.3509(3) 0.5887(4)
Na3 Na 0.2101(4) 0.2867(2) 0.4177(3)
O1 O 0.3314(6) 0.1961(3) 0.6629(5)
O2 O 0.1972(6) 0.2311(3) 0.5368(4)
O3 O 0.4204(6) 0.2932(3) 0.6916(5)
O4 O 0.2770(6) 0.3279(3) 0.5743(5)
O5 O 0.1447(6) 0.2075(3) 0.7598(5)
O6 O 0.0383(6) 0.2676(3) 0.6511(5)
O7 O 0.2832(6) 0.2831(3) 0.8309(4)
O8 O 0.1708(5) 0.3454(3) 0.7286(4)
O9 O 0.6183(7) 0.2196(4) 0.8232(6)
O10 O -0.0427(8) 0.4040(4) 0.5990(6)
O13 O 0.3522(7) 0.1742(3) 0.8633(5)
O14 O 0.0495(8) 0.3140(3) 0.4588(6)
C1 C 0.2748(9) 0.1645(4) 0.6117(7)
C2 C 0.2849(9) 0.1153(4) 0.6238(8)
C3 C 0.218(1) 0.0852(4) 0.5681(8)
C4 C 0.144(1) 0.1043(4) 0.5049(8)
C5 C 0.1370(9) 0.1534(4) 0.4947(7)
C6 C 0.1984(8) 0.1836(4) 0.5453(6)
C7 C 0.4262(8) 0.3396(4) 0.6758(7)
C8 C 0.5044(8) 0.3696(4) 0.7154(7)
C9 C 0.506(1) 0.4180(4) 0.6933(9)
C10 C 0.430(1) 0.4359(4) 0.6290(7)
C11 C 0.356(1) 0.4081(4) 0.5895(7)
C12 C 0.3486(9) 0.3576(4) 0.6103(6)
C13 C 0.0618(8) 0.1892(4) 0.7058(7)
C14 C 0.0331(9) 0.1407(4) 0.7048(7)
C15 C -0.0490(9) 0.1240(4) 0.6485(7)
C16 C -0.1072(9) 0.1559(5) 0.5917(8)
C17 C -0.0820(9) 0.2046(4) 0.5938(7)
C18 C 0.0061(8) 0.2217(4) 0.6475(7)
C19 C 0.3031(8) 0.3309(4) 0.8424(6)
C20 C 0.3801(9) 0.3482(5) 0.9049(7)
C21 C 0.4022(9) 0.3972(5) 0.9141(8)
C22 C 0.3390(10) 0.4296(4) 0.8597(8)
C23 C 0.2614(8) 0.4130(4) 0.7979(7)
C24 C 0.2433(8) 0.3632(4) 0.7900(6)
C25 C 0.669(1) 0.2220(5) 0.763(1)
C26 C 0.783(1) 0.2408(6) 0.773(1)
C27 C 0.627(1) 0.2033(7) 0.6772(10)
C28 C -0.0859(9) 0.4177(5) 0.6576(10)
C29 C -0.117(1) 0.4692(6) 0.667(2)
C30 C -0.109(1) 0.3839(8) 0.726(1)
H1 H 0.8261 0.2216 0.8128
H2 H 0.8086 0.2399 0.7199
H3 H 0.7838 0.2730 0.7931
H4 H 0.5631 0.2200 0.6566
H5 H 0.6774 0.2082 0.6393
H6 H 0.6119 0.1702 0.6809
H7 H -0.0557 0.4888 0.6707
H8 H -0.1659 0.4784 0.6197
H9 H -0.1491 0.4726 0.7175
H10 H -0.1422 0.4011 0.7671
H11 H -0.1557 0.3595 0.7020
H12 H -0.0452 0.3701 0.7523
H25 H 0.3265 0.1509 0.8221
H26 H 0.3984 0.1593 0.9075
H27 H 0.0023 0.2878 0.4633
H28 H 0.0157 0.3361 0.4180
Na3C Na 0.2101(4) 0.2133(2) 0.9177(3)
O5C O 0.1447(6) 0.2925(3) 0.2598(5)
O7C O 0.2832(6) 0.2169(3) 0.3309(4)
O13C O 0.3522(7) 0.3258(3) 0.3633(5)
H25C H 0.3265 0.3491 0.3221
H26C H 0.3984 0.3407 0.4075
O11 O 0.868(1) 0.1429(5) 0.875(1)
C31 C 0.836(1) 0.1013(6) 0.859(1)
C32 C 0.889(2) 0.0587(6) 0.8988(9)
C33 C 0.733(1) 0.0942(6) 0.801(1)
H13 H 0.8508 0.0309 0.8784
H14 H 0.9591 0.0572 0.8852
H15 H 0.8906 0.0607 0.9587
H16 H 0.6769 0.1092 0.8245
H17 H 0.7392 0.1077 0.7471
H18 H 0.7187 0.0608 0.7946
O12 O 0.5178(9) 0.1142(4) 0.9401(7)
C34 C 0.5810(10) 0.1349(6) 0.9935(8)
C35 C 0.677(1) 0.1058(7) 1.0334(10)
C36 C 0.573(2) 0.1853(6) 1.0200(10)
H19 H 0.6531 0.0785 1.0613
H20 H 0.7168 0.0955 0.9902
H21 H 0.7202 0.1249 1.0733
H22 H 0.6315 0.1929 1.0616
H23 H 0.5735 0.2057 0.9724
H24 H 0.5088 0.1898 1.0437
loop_
_geom_bond_atom_site_label_1
_geom_bond_atom_site_label_2
_geom_bond_site_symmetry_1
_geom_bond_site_symmetry_2
Ru1 Ru2 1_555 1_555
Ru2 O5 1_555 1_555
Br1 C2 1_555 1_555
Br2 C3 1_555 1_555
Br3 C4 1_555 1_555
Br4 C5 1_555 1_555
Br5 C8 1_555 1_555
Br6 C9 1_555 1_555
Br7 C10 1_555 1_555
Br8 C11 1_555 1_555
Br9 C14 1_555 1_555
Br10 C15 1_555 1_555
Br11 C16 1_555 1_555
Br12 C17 1_555 1_555
Br13 C20 1_555 1_555
Br14 C21 1_555 1_555
Br15 C22 1_555 1_555
Br16 C23 1_555 1_555
Na1 O1 1_555 1_555
Na2 O4 1_555 1_555
Na3 O2 1_555 1_555
O1 Ru1 1_555 1_555
O2 Ru1 1_555 1_555
O3 Ru1 1_555 1_555
O4 Ru1 1_555 1_555
O5 C13 1_555 1_555
O6 Ru2 1_555 1_555
O7 Ru2 1_555 1_555
O8 Ru2 1_555 1_555
O9 Na1 1_555 1_555
O10 Na2 1_555 1_555
O11 C31 1_555 1_555
O12 C34 1_555 1_555
O13 Na1 1_555 1_555
O14 Na2 1_555 1_555
C1 O1 1_555 1_555
C2 C1 1_555 1_555
C3 C2 1_555 1_555
C4 C3 1_555 1_555
C5 C4 1_555 1_555
C6 O2 1_555 1_555
C7 O3 1_555 1_555
C8 C7 1_555 1_555
C9 C8 1_555 1_555
C10 C9 1_555 1_555
C11 C10 1_555 1_555
C12 O4 1_555 1_555
C13 C14 1_555 1_555
C14 C15 1_555 1_555
C15 C16 1_555 1_555
C16 C17 1_555 1_555
C17 C18 1_555 1_555
C18 O6 1_555 1_555
C19 O7 1_555 1_555
C20 C19 1_555 1_555
C21 C20 1_555 1_555
C22 C21 1_555 1_555
C23 C22 1_555 1_555
C24 O8 1_555 1_555
C25 O9 1_555 1_555
C26 C25 1_555 1_555
C27 C25 1_555 1_555
C28 O10 1_555 1_555
C29 C28 1_555 1_555
C30 C28 1_555 1_555
C31 C32 1_555 1_555
C32 H13 1_555 1_555
C33 C31 1_555 1_555
C34 C35 1_555 1_555
C35 H19 1_555 1_555
C36 C34 1_555 1_555
H1 C26 1_555 1_555
H2 C26 1_555 1_555
H3 C26 1_555 1_555
H4 C27 1_555 1_555
H5 C27 1_555 1_555
H6 C27 1_555 1_555
H7 C29 1_555 1_555
H8 C29 1_555 1_555
H9 C29 1_555 1_555
H10 C30 1_555 1_555
H11 C30 1_555 1_555
H12 C30 1_555 1_555
H14 C32 1_555 1_555
H15 C32 1_555 1_555
H16 C33 1_555 1_555
H17 C33 1_555 1_555
H18 C33 1_555 1_555
H20 C35 1_555 1_555
H21 C35 1_555 1_555
H22 C36 1_555 1_555
H23 C36 1_555 1_555
H24 C36 1_555 1_555
H25 O13 1_555 1_555
H26 O13 1_555 1_555
H27 O14 1_555 1_555
H28 O14 1_555 1_555
Na3C O5 1_555 1_555
O5C Na3 1_555 1_555
O7C Na3 1_555 1_555
O13C Na3 1_555 1_555
H25C O13C 1_555 1_555
H26C O13C 1_555 1_555
Na1 O3 1_555 1_555
Na1 O7 1_555 1_555
Na2 O6 1_555 1_555
Na2 O8 1_555 1_555
Na3 O14 1_555 1_555
O7 Na3C 1_555 1_555
O13 Na3C 1_555 1_555
C1 C6 1_555 1_555
C5 C6 1_555 1_555
C7 C12 1_555 1_555
C11 C12 1_555 1_555
C13 C18 1_555 1_555
C19 C24 1_555 1_555
C23 C24 1_555 1_555

#END
