
#######################################################################
#
#                 Cambridge Crystallographic Data Centre
#                                CCDC 
#
#######################################################################
#
# If this CIF has been generated from an entry in the Cambridge 
# Structural Database, then it will include bibliographic, chemical, 
# crystal, experimental, refinement or atomic coordinate data resulting 
# from the CCDC's data processing and validation procedures.
#
#######################################################################

data_JAQTUR
_symmetry_cell_setting           triclinic
_symmetry_space_group_name_H-M   'P -1'
_symmetry_Int_Tables_number      2
_space_group_name_Hall           '-P 1'
loop_
_symmetry_equiv_pos_site_id
_symmetry_equiv_pos_as_xyz
1 x,y,z
2 -x,-y,-z
_cell_length_a                   11.568(3)
_cell_length_b                   12.233(4)
_cell_length_c                   13.014(4)
_cell_angle_alpha                96.90(1)
_cell_angle_beta                 113.13(2)
_cell_angle_gamma                101.25(2)
_cell_volume                     1621.04
loop_
_atom_site_label
_atom_site_type_symbol
_atom_site_fract_x
_atom_site_fract_y
_atom_site_fract_z
Ru1 Ru 0.03567(4) 0.02334(3) 0.43440(4)
Ru2 Ru -0.10463(5) 0.45222(3) 0.47110(4)
Na1 Na 0.0491(3) 0.2603(2) 0.3502(2)
Na2 Na 0.1058(3) 0.2912(2) 0.6448(2)
Na3 Na 0.2154(3) -0.1718(2) 0.5742(2)
O1 O 0.2094(4) -0.0124(3) 0.4942(4)
O2 O 0.1467(4) 0.1846(3) 0.5124(4)
O3 O -0.0502(4) -0.1173(3) 0.3119(4)
O4 O -0.1165(4) 0.0749(3) 0.3336(3)
O5 O -0.1265(5) 0.3310(3) 0.3414(4)
O6 O -0.2000(5) 0.5225(3) 0.3433(4)
O7 O 0.0905(5) 0.6597(3) 0.4273(3)
O8 O 0.1433(5) 0.4582(4) 0.4117(4)
O9 O 0.4062(10) -0.2175(9) 0.6510(8)
O10 O 0.109(1) 0.136(1) 0.255(1)
N1 N 0.186(1) 0.0503(8) 0.1477(8)
N2 N 0.528(1) -0.337(1) 0.723(1)
C1 C 0.3082(6) 0.0809(5) 0.5533(5)
C2 C 0.4375(7) 0.0785(8) 0.6035(8)
C3 C 0.5325(9) 0.177(1) 0.6630(9)
C4 C 0.5007(8) 0.2821(9) 0.6750(8)
C5 C 0.3751(7) 0.2854(6) 0.6245(7)
C6 C 0.2748(6) 0.1846(5) 0.5629(5)
C7 C -0.1668(6) -0.1116(5) 0.2316(5)
C8 C -0.2482(9) -0.2030(6) 0.1422(6)
C9 C -0.3705(9) -0.1908(8) 0.0695(6)
C10 C -0.4093(8) -0.0948(8) 0.0848(7)
C11 C -0.3215(7) -0.0038(6) 0.1705(6)
C12 C -0.2021(7) -0.0102(5) 0.2450(5)
C13 C -0.1856(6) 0.3563(5) 0.2402(5)
C14 C -0.2144(8) 0.2862(6) 0.1357(6)
C15 C -0.2812(9) 0.3183(8) 0.0344(6)
C16 C -0.3205(9) 0.4161(8) 0.0353(7)
C17 C -0.2962(8) 0.4856(7) 0.1381(6)
C18 C -0.2285(6) 0.4571(5) 0.2398(5)
C19 C 0.1054(6) 0.6193(5) 0.3336(5)
C20 C 0.0945(7) 0.6766(7) 0.2456(6)
C21 C 0.1067(8) 0.6290(7) 0.1528(6)
C22 C 0.1330(8) 0.5242(8) 0.1446(7)
C23 C 0.1428(8) 0.4674(7) 0.2272(7)
C24 C 0.1306(6) 0.5114(5) 0.3243(5)
C25 C 0.178(3) 0.046(2) 0.247(2)
C26 C 0.137(3) 0.129(2) 0.093(3)
C27 C 0.240(3) -0.020(2) 0.101(3)
C28 C 0.470(1) -0.2511(9) 0.7402(10)
C29 C 0.561(2) -0.398(2) 0.789(2)
C30 C 0.515(2) -0.356(2) 0.612(2)
H1 H 0.4598 0.0081 0.5962
H2 H 0.6212 0.1754 0.6960
H3 H 0.5676 0.3500 0.7188
H4 H 0.3540 0.3566 0.6305
H5 H -0.2227 -0.2709 0.1302
H6 H -0.4283 -0.2528 0.0073
H7 H -0.4945 -0.0910 0.0374
H8 H -0.3451 0.0659 0.1780
H9 H -0.1886 0.2173 0.1338
H10 H -0.3002 0.2706 -0.0367
H11 H -0.3645 0.4374 -0.0350
H12 H -0.3265 0.5523 0.1378
H13 H 0.0780 0.7496 0.2509
H14 H 0.0970 0.6685 0.0924
H15 H 0.1443 0.4927 0.0799
H16 H 0.1592 0.3941 0.2194
H17 H 0.2085 -0.0022 0.2981
H18 H 0.1760 0.2023 0.1410
H19 H 0.1542 0.1283 0.0262
H20 H 0.0451 0.1104 0.0684
H21 H 0.1732 -0.0684 0.0299
H22 H 0.3056 0.0241 0.0848
H23 H 0.2759 -0.0667 0.1510
H24 H 0.4783 -0.2190 0.8138
H25 H 0.5918 -0.4546 0.7583
H26 H 0.4899 -0.4338 0.8027
H27 H 0.6299 -0.3529 0.8592
H28 H 0.5605 -0.2889 0.5995
H29 H 0.4259 -0.3756 0.5596
H30 H 0.5519 -0.4171 0.5992
Ru1A Ru -0.03567(4) -0.02334(3) 0.56560(4)
Ru2A Ru 0.10463(5) 0.54778(3) 0.52890(4)
Na2A Na -0.1058(3) -0.2912(2) 0.3552(2)
Na2A_2 Na -0.1058(3) 0.7088(2) 0.3552(2)
Na3A Na -0.2154(3) 0.1718(2) 0.4258(2)
Na3_2 Na 0.2154(3) 0.8282(2) 0.5742(2)
O3A O 0.0502(4) 0.1173(3) 0.6881(4)
O4A O 0.1165(4) -0.0749(3) 0.6664(3)
O5A O 0.1265(5) -0.3310(3) 0.6586(4)
O6A O 0.2000(5) 0.4775(3) 0.6567(4)
O7A O -0.0905(5) 0.3403(3) 0.5727(3)
O7_2 O 0.0905(5) -0.3403(3) 0.4273(3)
O8A O -0.1433(5) 0.5418(4) 0.5883(4)
loop_
_geom_bond_atom_site_label_1
_geom_bond_atom_site_label_2
_geom_bond_site_symmetry_1
_geom_bond_site_symmetry_2
Ru1 O1 1_555 1_555
Ru2 O5 1_555 1_555
Na1 O2 1_555 1_555
Na2 O2 1_555 1_555
Na3 O1 1_555 1_555
O1 C1 1_555 1_555
O2 Ru1 1_555 1_555
O3 Ru1 1_555 1_555
O4 Ru1 1_555 1_555
O5 Na1 1_555 1_555
O6 Ru2 1_555 1_555
O7 C19 1_555 1_555
O8 Na1 1_555 1_555
O9 Na3 1_555 1_555
O10 Na1 1_555 1_555
N1 C25 1_555 1_555
N2 C28 1_555 1_555
C1 C2 1_555 1_555
C2 C3 1_555 1_555
C3 C4 1_555 1_555
C4 C5 1_555 1_555
C5 C6 1_555 1_555
C6 O2 1_555 1_555
C7 O3 1_555 1_555
C8 C7 1_555 1_555
C9 C8 1_555 1_555
C10 C9 1_555 1_555
C11 C10 1_555 1_555
C12 O4 1_555 1_555
C13 O5 1_555 1_555
C14 C13 1_555 1_555
C15 C14 1_555 1_555
C16 C15 1_555 1_555
C17 C16 1_555 1_555
C18 O6 1_555 1_555
C19 C20 1_555 1_555
C20 C21 1_555 1_555
C21 C22 1_555 1_555
C22 C23 1_555 1_555
C23 C24 1_555 1_555
C24 O8 1_555 1_555
C25 O10 1_555 1_555
C26 N1 1_555 1_555
C27 N1 1_555 1_555
C28 O9 1_555 1_555
C29 N2 1_555 1_555
C30 N2 1_555 1_555
H1 C2 1_555 1_555
H2 C3 1_555 1_555
H3 C4 1_555 1_555
H4 C5 1_555 1_555
H5 C8 1_555 1_555
H6 C9 1_555 1_555
H7 C10 1_555 1_555
H8 C11 1_555 1_555
H9 C14 1_555 1_555
H10 C15 1_555 1_555
H11 C16 1_555 1_555
H12 C17 1_555 1_555
H13 C20 1_555 1_555
H14 C21 1_555 1_555
H15 C22 1_555 1_555
H16 C23 1_555 1_555
H17 C25 1_555 1_555
H18 C26 1_555 1_555
H19 C26 1_555 1_555
H20 C26 1_555 1_555
H21 C27 1_555 1_555
H22 C27 1_555 1_555
H23 C27 1_555 1_555
H24 C28 1_555 1_555
H25 C29 1_555 1_555
H26 C29 1_555 1_555
H27 C29 1_555 1_555
H28 C30 1_555 1_555
H29 C30 1_555 1_555
H30 C30 1_555 1_555
Ru1A Ru1 1_555 1_555
Ru2A Ru2 1_555 1_555
Na2A O3 1_555 1_555
Na2A_2 O6 1_555 1_555
Na3A O4 1_555 1_555
Na3_2 O7 1_555 1_555
O3A Na2 1_555 1_555
O4A Na3 1_555 1_555
O5A Na3 1_555 1_555
O6A Na2 1_555 1_555
O7A Ru2 1_555 1_555
O7_2 Na3 1_555 1_555
O8A Ru2 1_555 1_555
Na1 O4 1_555 1_555
Na2 O7A 1_555 1_555
O5 Na3A 1_555 1_555
O7 Ru2A 1_555 1_555
O7 Na2A_2 1_555 1_555
O8 Ru2A 1_555 1_555
C1 C6 1_555 1_555
C7 C12 1_555 1_555
C11 C12 1_555 1_555
C13 C18 1_555 1_555
C17 C18 1_555 1_555
C19 C24 1_555 1_555
Ru1A O3A 1_555 1_555
Ru1A O4A 1_555 1_555
Ru2A O6A 1_555 1_555
Na2A O7_2 1_555 1_555
Na3A O7A 1_555 1_555

#END
