
#######################################################################
#
#                 Cambridge Crystallographic Data Centre
#                                CCDC 
#
#######################################################################
#
# If this CIF has been generated from an entry in the Cambridge 
# Structural Database, then it will include bibliographic, chemical, 
# crystal, experimental, refinement or atomic coordinate data resulting 
# from the CCDC's data processing and validation procedures.
#
#######################################################################

data_JAQWAA
_symmetry_cell_setting           orthorhombic
_symmetry_space_group_name_H-M   'C c c a'
_symmetry_Int_Tables_number      68
_space_group_name_Hall           '-C 2b 2bc'
loop_
_symmetry_equiv_pos_site_id
_symmetry_equiv_pos_as_xyz
1 x,y,z
2 1/2+x,1/2+y,z
3 1/2-x,-y,z
4 -x,y,1/2-z
5 1/2+x,-y,1/2-z
6 -x,1/2-y,z
7 1/2-x,1/2+y,1/2-z
8 x,1/2-y,1/2-z
9 -x,-y,-z
10 1/2-x,1/2-y,-z
11 1/2+x,y,-z
12 x,-y,1/2+z
13 1/2-x,y,1/2+z
14 x,1/2+y,-z
15 1/2+x,1/2-y,1/2+z
16 -x,1/2+y,1/2+z
_cell_length_a                   13.116(5)
_cell_length_b                   19.085(7)
_cell_length_c                   17.934(7)
_cell_angle_alpha                90
_cell_angle_beta                 90
_cell_angle_gamma                90
_cell_volume                     4489.22
loop_
_atom_site_label
_atom_site_type_symbol
_atom_site_fract_x
_atom_site_fract_y
_atom_site_fract_z
O5 O -0.5626(12) 0.0811(9) 0.2329(9)
C11 C -0.4725(13) 0.0535(9) 0.1943(9)
H9 H -0.4854 0.0493 0.1413
H10 H -0.5857 0.0842 0.2983
C12 C -0.4539(11) -0.0142(9) 0.2268(11)
H11 H -0.3918 -0.0156 0.2561
H12 H -0.4538 -0.0515 0.1902
O5C O -0.4374(12) 0.0811(9) 0.2671(9)
C11C C -0.5275(13) 0.0535(9) 0.3057(9)
H9C H -0.5146 0.0493 0.3587
H10C H -0.4143 0.0842 0.2017
C12C C -0.5461(11) -0.0142(9) 0.2732(11)
H11C H -0.6082 -0.0156 0.2439
H12C H -0.5462 -0.0515 0.3098
Co1 Co 0.0000 0.2500 0.07209(5)
N1 N 0.0923(4) 0.1544(3) 0.0737(2)
C1 C 0.1518(5) 0.1390(3) 0.1332(4)
H1 H 0.1517 0.1695 0.1736
C2 C 0.2139(5) 0.0792(3) 0.1366(4)
H2 H 0.2525 0.0703 0.1790
C3 C 0.2174(5) 0.0328(3) 0.0758(3)
C4 C 0.1745(10) 0.0560(6) 0.0115(7)
H3 H 0.1861 0.0320 -0.0329
C5 C 0.1130(10) 0.1157(6) 0.0117(6)
H4 H 0.0845 0.1300 -0.0333
N2 N 0.0000 0.2500 -0.0495(4)
C8 C 0.0861(5) 0.2613(4) -0.0892(3)
H7 H 0.1465 0.2693 -0.0634
C9 C 0.0892(5) 0.2617(4) -0.1673(3)
H8 H 0.1505 0.2697 -0.1919
C10 C 0.0000 0.2500 -0.2084(4)
O1 O -0.1429(5) 0.1815(4) 0.0630(3)
O2 O -0.0869(6) 0.2034(3) 0.1695(4)
O3 O -0.2103(14) 0.1601(12) 0.1782(12)
N3 N -0.1562(6) 0.1680(5) 0.1288(4)
Co1A Co 0.5000 -0.2500 0.07209(5)
Co1C Co 0.0000 0.2500 -0.57209(5)
Co1A_2 Co -0.5000 0.7500 0.07209(5)
N1B N 0.4077(4) -0.1544(3) 0.0737(2)
N1A N 0.5923(4) -0.3456(3) 0.0737(2)
N1E N -0.0923(4) 0.3456(3) 0.0737(2)
N1A_2 N -0.4077(4) 0.6544(3) 0.0737(2)
C1B C 0.3482(5) -0.1390(3) 0.1332(4)
C1E C -0.1518(5) 0.3610(3) 0.1332(4)
C1A C -0.3482(5) 0.6390(3) 0.1332(4)
H1B H 0.3483 -0.1695 0.1736
H1E H -0.1517 0.3305 0.1736
H1A H -0.3483 0.6695 0.1736
C2B C 0.2861(5) -0.0792(3) 0.1366(4)
C2E C -0.2139(5) 0.4208(3) 0.1366(4)
C2A C -0.2861(5) 0.5792(3) 0.1366(4)
H2B H 0.2475 -0.0703 0.1790
H2E H -0.2525 0.4297 0.1790
H2A H -0.2475 0.5703 0.1790
C3B C 0.2826(5) -0.0328(3) 0.0758(3)
C3E C -0.2174(5) 0.4672(3) 0.0758(3)
C3A C -0.2826(5) 0.5328(3) 0.0758(3)
C4B C 0.3255(10) -0.0560(6) 0.0115(7)
C4E C -0.1745(10) 0.4440(6) 0.0115(7)
C4A C -0.3255(10) 0.5560(6) 0.0115(7)
H3B H 0.3139 -0.0320 -0.0329
H3E H -0.1861 0.4680 -0.0329
H3A H -0.3139 0.5320 -0.0329
C5B C 0.3870(10) -0.1157(6) 0.0117(6)
C5E C -0.1130(10) 0.3843(6) 0.0117(6)
C5A C -0.3870(10) 0.6157(6) 0.0117(6)
H4B H 0.4155 -0.1300 -0.0333
H4E H -0.0845 0.3700 -0.0333
H4A H -0.4155 0.6300 -0.0333
N2A N 0.5000 -0.2500 -0.0495(4)
N2C N 0.0000 0.2500 -0.4505(4)
C8E C -0.0861(5) 0.2387(4) -0.0892(3)
C8C C -0.0861(5) 0.2613(4) -0.4108(3)
C8G C 0.0861(5) 0.2387(4) -0.4108(3)
H7E H -0.1465 0.2307 -0.0634
H7C H -0.1465 0.2693 -0.4366
H7G H 0.1465 0.2307 -0.4366
C9E C -0.0892(5) 0.2383(4) -0.1673(3)
C9C C -0.0892(5) 0.2617(4) -0.3327(3)
C9G C 0.0892(5) 0.2383(4) -0.3327(3)
H8E H -0.1505 0.2303 -0.1919
H8C H -0.1505 0.2697 -0.3081
H8G H 0.1505 0.2303 -0.3081
C10C C 0.0000 0.2500 -0.2916(4)
O1B O 0.6429(5) -0.1815(4) 0.0630(3)
O1A O 0.3571(5) -0.3185(4) 0.0630(3)
O1E O 0.1429(5) 0.3185(4) 0.0630(3)
O2B O 0.5869(6) -0.2034(3) 0.1695(4)
O2A O 0.4131(6) -0.2966(3) 0.1695(4)
O2E O 0.0869(6) 0.2966(3) 0.1695(4)
O3A O 0.2897(14) -0.3399(12) 0.1782(12)
O3B O 0.7103(14) -0.1601(12) 0.1782(12)
O3E O 0.2103(14) 0.3399(12) 0.1782(12)
N3B N 0.6562(6) -0.1680(5) 0.1288(4)
N3A N 0.3438(6) -0.3320(5) 0.1288(4)
N3E N 0.1562(6) 0.3320(5) 0.1288(4)
C6? C 0.1337(9) 0.0405(6) 0.0190(6)
H5? H 0.1232 0.0064 -0.0173
C7? C 0.0724(9) 0.0997(6) 0.0219(6)
H6? H 0.0175 0.1037 -0.0106
O4? O -0.2217(8) 0.1259(8) 0.1516(7)
loop_
_geom_bond_atom_site_label_1
_geom_bond_atom_site_label_2
_geom_bond_site_symmetry_1
_geom_bond_site_symmetry_2
Co1 N1 1_555 1_555
N1 C1 1_555 1_555
C1 H1 1_555 1_555
C2 C1 1_555 1_555
H2 C2 1_555 1_555
C3 C2 1_555 1_555
C4 C3 1_555 1_555
H3 C4 1_555 1_555
C5 N1 1_555 1_555
H4 C5 1_555 1_555
N2 Co1 1_555 1_555
C8 N2 1_555 1_555
H7 C8 1_555 1_555
C9 C8 1_555 1_555
H8 C9 1_555 1_555
C10 C9 1_555 1_555
O1 Co1 1_555 1_555
O2 Co1 1_555 1_555
O3 N3 1_555 1_555
N3 O1 1_555 1_555
O5 C11 1_555 1_555
C11 H9 1_555 1_555
H10 O5 1_555 1_555
C12 C11 1_555 1_555
H11 C12 1_555 1_555
H12 C12 1_555 1_555
Co1A N1B 1_555 1_555
Co1C N2C 1_555 1_555
Co1A_2 N1A_2 1_555 1_555
N1B C1B 1_555 1_555
N1A Co1A 1_555 1_555
N1E Co1 1_555 1_555
N1A_2 C1A 1_555 1_555
C1B H1B 1_555 1_555
C1E N1E 1_555 1_555
C1A H1A 1_555 1_555
H1E C1E 1_555 1_555
C2B C1B 1_555 1_555
C2E C1E 1_555 1_555
C2A C1A 1_555 1_555
H2B C2B 1_555 1_555
H2E C2E 1_555 1_555
H2A C2A 1_555 1_555
C3B C3 1_555 1_555
C3E C2E 1_555 1_555
C3A C2A 1_555 1_555
C4B C3B 1_555 1_555
C4E C3E 1_555 1_555
C4A C3A 1_555 1_555
H3B C4B 1_555 1_555
H3E C4E 1_555 1_555
H3A C4A 1_555 1_555
C5B N1B 1_555 1_555
C5E N1E 1_555 1_555
C5A N1A_2 1_555 1_555
H4B C5B 1_555 1_555
H4E C5E 1_555 1_555
H4A C5A 1_555 1_555
N2A Co1A 1_555 1_555
N2C C8C 1_555 1_555
C8E N2 1_555 1_555
C8C H7C 1_555 1_555
C8G N2C 1_555 1_555
H7E C8E 1_555 1_555
H7G C8G 1_555 1_555
C9E C10 1_555 1_555
C9C C8C 1_555 1_555
C9G C8G 1_555 1_555
H8E C9E 1_555 1_555
H8C C9C 1_555 1_555
H8G C9G 1_555 1_555
C10C C10 1_555 1_555
O1B Co1A 1_555 1_555
O1A Co1A 1_555 1_555
O1E Co1 1_555 1_555
O2B Co1A 1_555 1_555
O2A Co1A 1_555 1_555
O2E Co1 1_555 1_555
O3A N3A 1_555 1_555
O3B N3B 1_555 1_555
O3E N3E 1_555 1_555
N3B O1B 1_555 1_555
N3A O1A 1_555 1_555
N3E O1E 1_555 1_555
O5C O5 1_555 1_555
C11C O5 1_555 1_555
H9C C11C 1_555 1_555
H10C C11 1_555 1_555
C12C C12 1_555 1_555
H11C C12C 1_555 1_555
H12C C12C 1_555 1_555
C4 C5 1_555 1_555
O2 N3 1_555 1_555
C11 O5C 1_555 1_555
H10 C11C 1_555 1_555
C2B C3B 1_555 1_555
C3E C3A 1_555 1_555
C4B C5B 1_555 1_555
C4E C5E 1_555 1_555
C4A C5A 1_555 1_555
C8E C9E 1_555 1_555
C9C C10C 1_555 1_555
C9G C10C 1_555 1_555
O2B N3B 1_555 1_555
O2A N3A 1_555 1_555
O2E N3E 1_555 1_555
O5C C11C 1_555 1_555
O5C H10C 1_555 1_555
C11C C12C 1_555 1_555

#END
