
#######################################################################
#
#                 Cambridge Crystallographic Data Centre
#                                CCDC 
#
#######################################################################
#
# If this CIF has been generated from an entry in the Cambridge 
# Structural Database, then it will include bibliographic, chemical, 
# crystal, experimental, refinement or atomic coordinate data resulting 
# from the CCDC's data processing and validation procedures.
#
#######################################################################

data_JAQZEH
_symmetry_cell_setting           monoclinic
_symmetry_space_group_name_H-M   'P 2/c'
_symmetry_Int_Tables_number      13
_space_group_name_Hall           '-P 2yc'
loop_
_symmetry_equiv_pos_site_id
_symmetry_equiv_pos_as_xyz
1 x,y,z
2 -x,y,1/2-z
3 -x,-y,-z
4 x,-y,1/2+z
_cell_length_a                   8.368(16)
_cell_length_b                   10.413(12)
_cell_length_c                   18.36(3)
_cell_angle_alpha                90
_cell_angle_beta                 100.41(7)
_cell_angle_gamma                90
_cell_volume                     1573.48
loop_
_atom_site_label
_atom_site_type_symbol
_atom_site_fract_x
_atom_site_fract_y
_atom_site_fract_z
Co1 Co -0.37075(12) 0.18349(10) -0.32814(5)
C1 C -0.6216(9) 0.3293(9) -0.4473(4)
H1 H -0.6514 0.2482 -0.4663
C2 C -0.7027(10) 0.4375(9) -0.4818(5)
H2 H -0.7876 0.4275 -0.5218
C3 C -0.6559(11) 0.5570(10) -0.4563(5)
H3 H -0.7066 0.6292 -0.4798
C4 C -0.5305(10) 0.5714(8) -0.3942(5)
C5 C -0.4687(12) 0.6920(9) -0.3639(5)
H4 H -0.5113 0.7679 -0.3860
C6 C -0.3486(12) 0.6971(8) -0.3032(5)
H5 H -0.3101 0.7768 -0.2849
C7 C -0.2798(10) 0.5825(8) -0.2667(5)
C8 C -0.1570(11) 0.5804(9) -0.2033(5)
H6 H -0.1157 0.6573 -0.1819
C9 C -0.0980(11) 0.4665(9) -0.1729(5)
H7 H -0.0185 0.4650 -0.1304
C10 C -0.1591(9) 0.3522(8) -0.2068(4)
H8 H -0.1159 0.2748 -0.1870
C11 C -0.3352(9) 0.4633(7) -0.2962(4)
C12 C -0.4604(9) 0.4578(7) -0.3616(4)
C13 C -0.2281(9) 0.1458(7) -0.4380(4)
C14 C -0.1628(8) 0.1237(7) -0.5088(4)
C15 C -0.0133(9) 0.1740(7) -0.5173(4)
H9 H 0.0469 0.2227 -0.4795
C16 C 0.0464(8) 0.1519(8) -0.5819(4)
H10 H 0.1465 0.1857 -0.5872
C17 C -0.0420(9) 0.0801(7) -0.6383(4)
H11 H -0.0004 0.0646 -0.6811
C18 C -0.1943(8) 0.0304(7) -0.6313(4)
C19 C -0.2526(8) 0.0505(7) -0.5654(4)
H12 H -0.3513 0.0150 -0.5594
C20 C -0.2895(8) -0.0511(7) -0.6913(4)
N1 N -0.2773(7) 0.3494(6) -0.2666(3)
N2 N -0.5037(7) 0.3391(6) -0.3883(3)
O1 O -0.1551(7) 0.2223(6) -0.3913(3)
O2 O -0.3570(6) 0.0910(6) -0.4295(3)
O3 O -0.4028(6) -0.1168(5) -0.6746(3)
O4 O -0.2492(6) -0.0505(5) -0.7548(3)
Co1B Co -0.62925(12) -0.18349(10) -0.67186(5)
Co1C Co -0.37075(12) -0.18349(10) -0.82814(5)
O3B O -0.5972(6) 0.1168(5) -0.3254(3)
O4C O -0.2492(6) 0.0505(5) -0.2548(3)
loop_
_geom_bond_atom_site_label_1
_geom_bond_atom_site_label_2
_geom_bond_site_symmetry_1
_geom_bond_site_symmetry_2
Co1 N1 1_555 1_555
C1 H1 1_555 1_555
C2 C1 1_555 1_555
H2 C2 1_555 1_555
C3 C2 1_555 1_555
H3 C3 1_555 1_555
C4 C3 1_555 1_555
C5 C4 1_555 1_555
H4 C5 1_555 1_555
C6 C5 1_555 1_555
H5 C6 1_555 1_555
C7 C6 1_555 1_555
C8 C7 1_555 1_555
H6 C8 1_555 1_555
C9 C8 1_555 1_555
H7 C9 1_555 1_555
C10 C9 1_555 1_555
H8 C10 1_555 1_555
C11 C7 1_555 1_555
C12 C4 1_555 1_555
C13 C14 1_555 1_555
C14 C15 1_555 1_555
C15 H9 1_555 1_555
C16 C15 1_555 1_555
H10 C16 1_555 1_555
C17 C16 1_555 1_555
H11 C17 1_555 1_555
C18 C17 1_555 1_555
C19 C14 1_555 1_555
H12 C19 1_555 1_555
C20 C18 1_555 1_555
N1 C10 1_555 1_555
N2 Co1 1_555 1_555
O1 Co1 1_555 1_555
O2 Co1 1_555 1_555
O3 C20 1_555 1_555
O4 C20 1_555 1_555
Co1B O3 1_555 1_555
Co1C O4 1_555 1_555
O3B Co1 1_555 1_555
O4C Co1 1_555 1_555
C1 N2 1_555 1_555
C11 C12 1_555 1_555
C11 N1 1_555 1_555
C12 N2 1_555 1_555
C13 O1 1_555 1_555
C13 O2 1_555 1_555
C18 C19 1_555 1_555

#END
