
#######################################################################
#
#                 Cambridge Crystallographic Data Centre
#                                CCDC 
#
#######################################################################
#
# If this CIF has been generated from an entry in the Cambridge 
# Structural Database, then it will include bibliographic, chemical, 
# crystal, experimental, refinement or atomic coordinate data resulting 
# from the CCDC's data processing and validation procedures.
#
#######################################################################

data_JAQZUX
_symmetry_cell_setting           monoclinic
_symmetry_space_group_name_H-M   'C 2/c'
_symmetry_Int_Tables_number      15
_space_group_name_Hall           '-C 2yn'
loop_
_symmetry_equiv_pos_site_id
_symmetry_equiv_pos_as_xyz
1 x,y,z
2 1/2+x,1/2+y,z
3 -x,y,1/2-z
4 1/2-x,1/2+y,1/2-z
5 -x,-y,-z
6 1/2-x,1/2-y,-z
7 x,-y,1/2+z
8 1/2+x,1/2-y,1/2+z
_cell_length_a                   14.8026(4)
_cell_length_b                   17.3012(3)
_cell_length_c                   19.6379(5)
_cell_angle_alpha                90
_cell_angle_beta                 98.63
_cell_angle_gamma                90
_cell_volume                     4972.38
loop_
_atom_site_label
_atom_site_type_symbol
_atom_site_fract_x
_atom_site_fract_y
_atom_site_fract_z
Na1 Na 0.2604(4) 0.5177(3) -0.2565(3)
W1 W 0.09372(4) 0.25403(3) -0.49437(3)
W2 W 0.22938(4) 0.33765(3) -0.59091(3)
W3 W 0.22636(4) 0.14756(3) -0.57827(3)
O1 O 0.2500 0.2500 -0.5000
O2 O 0.2525(6) 0.4015(6) -0.5106(5)
O3 O 0.1426(6) 0.3357(5) -0.4348(5)
O4 O 0.2164(7) 0.2387(5) -0.6357(5)
O5 O 0.1071(7) 0.1716(6) -0.5574(5)
O6 O 0.1083(6) 0.3238(6) -0.5692(5)
O7 O 0.3595(6) 0.3171(6) -0.5762(5)
O8 O 0.2150(8) 0.4013(7) -0.6584(6)
O9 O 0.2902(8) 0.4275(6) -0.3651(6)
O10 O -0.0206(8) 0.2573(7) -0.4910(7)
O11 O 0.0912(6) 0.0511(6) -0.2943(6)
O12 O 0.3941(6) -0.0081(5) -0.2035(5)
O13 O 0.2442(7) 0.1340(5) -0.1875(5)
O14 O 0.0315(6) 0.2731(6) -0.3238(5)
O15 O 0.2636(7) 0.4031(5) -0.1999(5)
S1 S 0.0206(3) 0.0056(2) -0.3418(2)
S2 S 0.4617(3) 0.0386(2) -0.1546(2)
N1 N 0.1399(7) 0.2036(6) -0.2558(6)
H1 H 0.1168 0.1610 -0.2731
N2 N 0.1454(7) 0.3376(6) -0.2595(6)
H2 H 0.1239 0.3805 -0.2771
C1 C 0.0734(15) -0.0190(12) -0.4135(12)
H3 H 0.1185 -0.0582 -0.4005
H4 H 0.0282 -0.0381 -0.4498
H5 H 0.1022 0.0260 -0.4293
C2 C -0.0568(10) 0.0779(11) -0.3826(10)
H6 H -0.0930 0.0978 -0.3499
H7 H -0.0225 0.1192 -0.3991
H8 H -0.0961 0.0551 -0.4207
C3 C 0.5511(11) -0.0266(10) -0.1258(9)
H9 H 0.5852 -0.0372 -0.1626
H10 H 0.5909 -0.0043 -0.0877
H11 H 0.5259 -0.0739 -0.1113
C4 C 0.4139(10) 0.0456(9) -0.0763(8)
H12 H 0.3625 0.0801 -0.0829
H13 H 0.3943 -0.0047 -0.0638
H14 H 0.4592 0.0650 -0.0403
C5 C 0.2510(9) 0.7705(7) -0.3313(7)
C6 C 0.2128(8) 0.1975(7) -0.2051(7)
C7 C 0.0985(8) 0.2718(7) -0.2829(6)
C8 C 0.2235(9) 0.3426(7) -0.2109(7)
C9 C 0.1469(10) 0.7647(8) -0.3541(7)
H15 H 0.1346 0.7209 -0.3849
H16 H 0.1263 0.8108 -0.3799
C10 C 0.0919(11) 0.7556(10) -0.2961(11)
H17 H 0.0281 0.7525 -0.3145
H18 H 0.1102 0.7092 -0.2709
H19 H 0.1022 0.7993 -0.2658
C11 C 0.3050(11) 0.7756(8) -0.3961(7)
H20 H 0.2976 0.7270 -0.4210
H21 H 0.3696 0.7822 -0.3794
C12 C 0.2737(11) 0.8406(9) -0.4456(9)
H22 H 0.3089 0.8401 -0.4828
H23 H 0.2102 0.8339 -0.4634
H24 H 0.2821 0.8892 -0.4218
Na1F Na 0.2604(4) 0.4823(3) -0.7565(3)
Na1C Na 0.2396(4) 0.0177(3) -0.2435(3)
Na1E Na 0.2396(4) -0.0177(3) -0.7435(3)
Na1C_2 Na 0.2396(4) 1.0177(3) -0.2435(3)
W1E W 0.40628(4) 0.24597(3) -0.50563(3)
W2E W 0.27062(4) 0.16235(3) -0.40909(3)
W3E W 0.27364(4) 0.35244(3) -0.42173(3)
O2E O 0.2475(6) 0.0985(6) -0.4894(5)
O3E O 0.3574(6) 0.1643(5) -0.5652(5)
O4E O 0.2836(7) 0.2613(5) -0.3643(5)
O5E O 0.3929(7) 0.3284(6) -0.4426(5)
O6E O 0.3917(6) 0.1762(6) -0.4308(5)
O7E O 0.1405(6) 0.1829(6) -0.4238(5)
O8F O 0.2150(8) 0.5987(7) -0.1584(6)
O8E O 0.2850(8) 0.0987(7) -0.3416(6)
O9C O 0.2098(8) -0.0725(6) -0.1349(6)
O9E O 0.2098(8) 0.0725(6) -0.6349(6)
O10E O 0.5206(8) 0.2427(7) -0.5090(7)
O11C O 0.4088(6) 0.5511(6) -0.2057(6)
O12C O 0.1059(6) 0.4919(5) -0.2965(5)
O13C O 0.2558(7) 0.6340(5) -0.3125(5)
O14C O 0.4685(6) 0.7731(6) -0.1762(5)
O15C O 0.2364(7) 0.9031(5) -0.3001(5)
O15C_2 O 0.2364(7) -0.0969(5) -0.3001(5)
S1C S 0.4794(3) 0.5056(2) -0.1582(2)
S2C S 0.0383(3) 0.5386(2) -0.3454(2)
N1C N 0.3601(7) 0.7036(6) -0.2442(6)
H1C H 0.3832 0.6610 -0.2269
N2C N 0.3546(7) 0.8376(6) -0.2405(6)
H2C H 0.3761 0.8805 -0.2229
C1C C 0.4266(15) 0.4810(12) -0.0865(12)
H3C H 0.3815 0.4418 -0.0995
H4C H 0.4718 0.4619 -0.0502
H5C H 0.3978 0.5260 -0.0707
C2C C 0.5568(10) 0.5779(11) -0.1174(10)
H6C H 0.5930 0.5978 -0.1501
H7C H 0.5225 0.6192 -0.1009
H8C H 0.5961 0.5551 -0.0793
C3C C -0.0511(11) 0.4734(10) -0.3742(9)
H9C H -0.0852 0.4628 -0.3374
H10C H -0.0909 0.4957 -0.4123
H11C H -0.0259 0.4261 -0.3887
C4C C 0.0861(10) 0.5456(9) -0.4237(8)
H12C H 0.1375 0.5801 -0.4171
H13C H 0.1057 0.4953 -0.4362
H14C H 0.0408 0.5650 -0.4597
C5C C 0.2490(9) 0.2705(7) -0.1687(7)
C6C C 0.2872(8) 0.6975(7) -0.2949(7)
C7C C 0.4015(8) 0.7718(7) -0.2171(6)
C8C C 0.2765(9) 0.8426(7) -0.2891(7)
C9C C 0.3531(10) 0.2647(8) -0.1459(7)
H15C H 0.3654 0.2209 -0.1151
H16C H 0.3737 0.3108 -0.1201
C10C C 0.4081(11) 0.2556(10) -0.2039(11)
H17C H 0.4719 0.2525 -0.1855
H18C H 0.3898 0.2092 -0.2291
H19C H 0.3978 0.2993 -0.2342
C11C C 0.1950(11) 0.2756(8) -0.1039(7)
H20C H 0.2024 0.2270 -0.0790
H21C H 0.1304 0.2822 -0.1206
C12C C 0.2263(11) 0.3406(9) -0.0544(9)
H22C H 0.1911 0.3401 -0.0172
H23C H 0.2898 0.3339 -0.0366
H24C H 0.2179 0.3892 -0.0782
loop_
_geom_bond_atom_site_label_1
_geom_bond_atom_site_label_2
_geom_bond_site_symmetry_1
_geom_bond_site_symmetry_2
Na1 O9 1_555 1_555
W1 O1 1_555 1_555
W2 O1 1_555 1_555
W3 O1 1_555 1_555
O1 W1E 1_555 1_555
O2 W2 1_555 1_555
O3 W1 1_555 1_555
O4 W2 1_555 1_555
O5 W1 1_555 1_555
O6 W1 1_555 1_555
O7 W2 1_555 1_555
O8 W2 1_555 1_555
O9 W3E 1_555 1_555
O10 W1 1_555 1_555
O11 S1 1_555 1_555
O12 S2 1_555 1_555
O13 C6 1_555 1_555
O14 C7 1_555 1_555
O15 Na1 1_555 1_555
S1 C1 1_555 1_555
S2 C3 1_555 1_555
N1 H1 1_555 1_555
N2 H2 1_555 1_555
C1 H3 1_555 1_555
H4 C1 1_555 1_555
H5 C1 1_555 1_555
C2 S1 1_555 1_555
H6 C2 1_555 1_555
H7 C2 1_555 1_555
H8 C2 1_555 1_555
C3 H9 1_555 1_555
H10 C3 1_555 1_555
H11 C3 1_555 1_555
C4 S2 1_555 1_555
H12 C4 1_555 1_555
H13 C4 1_555 1_555
H14 C4 1_555 1_555
C5 C9 1_555 1_555
C6 N1 1_555 1_555
C7 N1 1_555 1_555
C8 O15 1_555 1_555
C9 H15 1_555 1_555
H16 C9 1_555 1_555
C10 C9 1_555 1_555
H17 C10 1_555 1_555
H18 C10 1_555 1_555
H19 C10 1_555 1_555
C11 C5 1_555 1_555
H20 C11 1_555 1_555
H21 C11 1_555 1_555
C12 C11 1_555 1_555
H22 C12 1_555 1_555
H23 C12 1_555 1_555
H24 C12 1_555 1_555
Na1F O8 1_555 1_555
Na1C O11 1_555 1_555
Na1E O9E 1_555 1_555
Na1C_2 O15C 1_555 1_555
W1E O7 1_555 1_555
W2E O1 1_555 1_555
W3E O1 1_555 1_555
O2E W3 1_555 1_555
O3E W3 1_555 1_555
O4E W2E 1_555 1_555
O5E W1E 1_555 1_555
O6E W1E 1_555 1_555
O7E W1 1_555 1_555
O8F Na1 1_555 1_555
O8E Na1C 1_555 1_555
O9C Na1C 1_555 1_555
O9E W3 1_555 1_555
O10E W1E 1_555 1_555
O11C Na1 1_555 1_555
O12C Na1 1_555 1_555
O13C Na1 1_555 1_555
O14C C7C 1_555 1_555
O15C C8C 1_555 1_555
O15C_2 Na1C 1_555 1_555
S1C O11C 1_555 1_555
S2C O12C 1_555 1_555
N1C H1C 1_555 1_555
N2C H2C 1_555 1_555
C1C S1C 1_555 1_555
H3C C1C 1_555 1_555
H4C C1C 1_555 1_555
H5C C1C 1_555 1_555
C2C S1C 1_555 1_555
H6C C2C 1_555 1_555
H7C C2C 1_555 1_555
H8C C2C 1_555 1_555
C3C S2C 1_555 1_555
H9C C3C 1_555 1_555
H10C C3C 1_555 1_555
H11C C3C 1_555 1_555
C4C S2C 1_555 1_555
H12C C4C 1_555 1_555
H13C C4C 1_555 1_555
H14C C4C 1_555 1_555
C5C C6 1_555 1_555
C6C C5 1_555 1_555
C7C N1C 1_555 1_555
C8C C5 1_555 1_555
C9C C5C 1_555 1_555
H15C C9C 1_555 1_555
H16C C9C 1_555 1_555
C10C C9C 1_555 1_555
H17C C10C 1_555 1_555
H18C C10C 1_555 1_555
H19C C10C 1_555 1_555
C11C C5C 1_555 1_555
H20C C11C 1_555 1_555
H21C C11C 1_555 1_555
C12C C11C 1_555 1_555
H22C C12C 1_555 1_555
H23C C12C 1_555 1_555
H24C C12C 1_555 1_555
W2 O6 1_555 1_555
W3 O4 1_555 1_555
W3 O5 1_555 1_555
O2 W3E 1_555 1_555
O3 W3E 1_555 1_555
O12 Na1C 1_555 1_555
O13 Na1C 1_555 1_555
N2 C7 1_555 1_555
N2 C8 1_555 1_555
C8 C5C 1_555 1_555
W1E O3E 1_555 1_555
W2E O2E 1_555 1_555
W2E O6E 1_555 1_555
W2E O7E 1_555 1_555
W2E O8E 1_555 1_555
W3E O4E 1_555 1_555
W3E O5E 1_555 1_555
O13C C6C 1_555 1_555
N1C C6C 1_555 1_555
N2C C7C 1_555 1_555
N2C C8C 1_555 1_555

#END
