
#######################################################################
#
#                 Cambridge Crystallographic Data Centre
#                                CCDC 
#
#######################################################################
#
# If this CIF has been generated from an entry in the Cambridge 
# Structural Database, then it will include bibliographic, chemical, 
# crystal, experimental, refinement or atomic coordinate data resulting 
# from the CCDC's data processing and validation procedures.
#
#######################################################################

data_JARFEO
_symmetry_cell_setting           monoclinic
_symmetry_space_group_name_H-M   'P 21'
_symmetry_Int_Tables_number      4
_space_group_name_Hall           'P 2yb'
loop_
_symmetry_equiv_pos_site_id
_symmetry_equiv_pos_as_xyz
1 x,y,z
2 -x,1/2+y,-z
_cell_length_a                   7.811(3)
_cell_length_b                   11.056(2)
_cell_length_c                   8.938(1)
_cell_angle_alpha                90
_cell_angle_beta                 98.02(2)
_cell_angle_gamma                90
_cell_volume                     764.322
loop_
_atom_site_label
_atom_site_type_symbol
_atom_site_fract_x
_atom_site_fract_y
_atom_site_fract_z
Zn1 Zn -0.19090(10) 0.49971(7) -0.79929(8)
Cl1 Cl -0.3811(3) 0.4820(2) -0.63647(19)
Cl2 Cl -0.0898(3) 0.32399(18) -0.8724(2)
N1 N 0.2926(7) 0.0838(5) -0.0056(6)
N2 N 0.4175(7) 0.1668(5) 0.0232(6)
N3 N 0.1374(8) 0.5683(6) -0.5962(7)
N4 N 0.0163(7) 0.6010(5) -0.7112(6)
C1 C 0.2563(9) 0.0487(7) 0.1275(7)
H1 H 0.1632(9) -0.0205(7) 0.1439(7)
C2 C 0.3521(10) 0.1117(8) 0.2424(8)
H2 H 0.3471(10) 0.1036(8) 0.3621(8)
C3 C 0.4549(10) 0.1866(7) 0.1729(7)
H3 H 0.5487(10) 0.2500(7) 0.2276(7)
C4 C 0.4858(9) 0.2336(7) -0.0972(8)
H4 H 0.5019(9) 0.1722(7) -0.1882(8)
H5 H 0.6114(9) 0.2698(7) -0.0538(8)
C5 C 0.3685(8) 0.3357(7) -0.1579(7)
C6 C 0.3085(10) 0.4161(7) -0.0609(7)
H6 H 0.3457(10) 0.4062(7) 0.0595(7)
C7 C 0.2004(8) 0.5101(10) -0.1159(7)
H7 H 0.1576(8) 0.5752(10) -0.0389(7)
C8 C 0.1467(9) 0.5207(7) -0.2716(8)
H8 H 0.0580(9) 0.5915(7) -0.3147(8)
C9 C 0.2077(9) 0.4402(6) -0.3695(7)
C10 C 0.3190(9) 0.3482(6) -0.3119(7)
H9 H 0.3675(9) 0.2855(6) -0.3885(7)
C11 C 0.1413(12) 0.4443(8) -0.5395(9)
H10 H 0.2243(12) 0.3901(8) -0.5997(9)
H11 H 0.0127(12) 0.4063(8) -0.5598(9)
C12 C 0.2476(9) 0.6578(8) -0.5600(8)
H12 H 0.3564(9) 0.6558(8) -0.4710(8)
C13 C 0.0552(10) 0.7120(6) -0.7476(8)
H13 H -0.0157(10) 0.7645(6) -0.8376(8)
C14 C 0.2014(9) 0.7521(7) -0.6529(8)
H14 H 0.2638(9) 0.8392(7) -0.6538(8)
Zn1A Zn 0.19090(10) -0.00029(7) -0.20071(8)
N1A N -0.2926(7) 0.5838(5) -0.9944(6)
loop_
_geom_bond_atom_site_label_1
_geom_bond_atom_site_label_2
_geom_bond_site_symmetry_1
_geom_bond_site_symmetry_2
Zn1 Cl1 1_555 1_555
Cl2 Zn1 1_555 1_555
N1 N2 1_555 1_555
N2 C3 1_555 1_555
N3 N4 1_555 1_555
N4 Zn1 1_555 1_555
C1 N1 1_555 1_555
H1 C1 1_555 1_555
C2 C1 1_555 1_555
H2 C2 1_555 1_555
C3 C2 1_555 1_555
H3 C3 1_555 1_555
C4 N2 1_555 1_555
H4 C4 1_555 1_555
H5 C4 1_555 1_555
C5 C4 1_555 1_555
C6 C5 1_555 1_555
H6 C6 1_555 1_555
C7 C6 1_555 1_555
H7 C7 1_555 1_555
C8 C7 1_555 1_555
H8 C8 1_555 1_555
C9 C8 1_555 1_555
C10 C5 1_555 1_555
H9 C10 1_555 1_555
C11 N3 1_555 1_555
H10 C11 1_555 1_555
H11 C11 1_555 1_555
C12 N3 1_555 1_555
H12 C12 1_555 1_555
C13 N4 1_555 1_555
H13 C13 1_555 1_555
C14 C12 1_555 1_555
H14 C14 1_555 1_555
Zn1A N1 1_555 1_555
N1A Zn1 1_555 1_555
C9 C10 1_555 1_555
C9 C11 1_555 1_555
C13 C14 1_555 1_555

#END
