
#######################################################################
#
#                 Cambridge Crystallographic Data Centre
#                                CCDC 
#
#######################################################################
#
# If this CIF has been generated from an entry in the Cambridge 
# Structural Database, then it will include bibliographic, chemical, 
# crystal, experimental, refinement or atomic coordinate data resulting 
# from the CCDC's data processing and validation procedures.
#
#######################################################################

data_JARRIE
_symmetry_cell_setting           monoclinic
_symmetry_space_group_name_H-M   'P 21/n'
_symmetry_Int_Tables_number      14
_space_group_name_Hall           '-P 2yn'
loop_
_symmetry_equiv_pos_site_id
_symmetry_equiv_pos_as_xyz
1 x,y,z
2 1/2-x,1/2+y,1/2-z
3 -x,-y,-z
4 1/2+x,1/2-y,1/2+z
_cell_length_a                   9.2506(13)
_cell_length_b                   12.3819(17)
_cell_length_c                   19.887(3)
_cell_angle_alpha                90
_cell_angle_beta                 94.968(2)
_cell_angle_gamma                90
_cell_volume                     2269.3
loop_
_atom_site_label
_atom_site_type_symbol
_atom_site_fract_x
_atom_site_fract_y
_atom_site_fract_z
Tl1 Tl 0.892350(13) 0.814886(10) 0.054150(6)
B1 B 0.7795(4) 0.7191(3) 0.22085(19)
H1 H 0.732(4) 0.687(3) 0.2666(19)
N1 N 0.8768(3) 0.8162(2) 0.24124(14)
N2 N 0.9393(3) 0.8818(2) 0.19631(13)
C1 C 1.0201(3) 0.9518(3) 0.23442(16)
C2 C 1.0105(4) 0.9327(3) 0.30341(16)
H2 H 1.0577 0.9709 0.3405
C3 C 0.9179(4) 0.8469(3) 0.30535(16)
H3 H 0.8875 0.8144 0.3450
C4 C 1.2885(4) 1.1755(3) 0.21857(19)
H4 H 1.3663 1.2100 0.2445
C5 C 1.2189(4) 1.0870(3) 0.24379(17)
H5 H 1.2494 1.0594 0.2873
C6 C 1.1043(3) 1.0387(3) 0.20497(16)
C7 C 1.0672(4) 1.0806(3) 0.14124(17)
H6 H 0.9903 1.0470 0.1141
N3 N 1.1334(4) 1.1656(3) 0.11539(16)
C8 C 1.2415(4) 1.2123(3) 0.15460(19)
H7 H 1.2881 1.2736 0.1376
N4 N 0.8634(3) 0.6274(2) 0.18886(13)
N5 N 0.9565(3) 0.6407(2) 0.14000(13)
C9 C 1.0045(3) 0.5414(3) 0.12714(16)
C10 C 0.9442(4) 0.4647(3) 0.16790(18)
H8 H 0.9604 0.3890 0.1687
C11 C 0.8563(4) 0.5232(3) 0.20663(18)
H9 H 0.8000 0.4947 0.2402
N6 N 1.2198(3) 0.3876(2) 0.00894(15)
C12 C 1.1278(4) 0.4165(3) 0.05318(17)
H10 H 1.0689 0.3615 0.0699
C13 C 1.1102(4) 0.5207(3) 0.07712(16)
C14 C 1.1976(4) 0.6006(3) 0.05120(18)
H11 H 1.1918 0.6734 0.0659
C15 C 1.2917(4) 0.5724(3) 0.00433(19)
H12 H 1.3506 0.6258 -0.0141
C16 C 1.3001(4) 0.4662(3) -0.01585(19)
H13 H 1.3652 0.4479 -0.0485
N7 N 0.6412(3) 0.7545(2) 0.17648(13)
N8 N 0.6330(3) 0.7863(2) 0.11065(13)
C17 C 0.4946(4) 0.8173(3) 0.09567(18)
C18 C 0.4137(4) 0.8046(3) 0.15164(18)
H14 H 0.3139 0.8202 0.1545
C19 C 0.5111(4) 0.7647(3) 0.20109(17)
H15 H 0.4902 0.7471 0.2457
N9 N 0.2529(3) 0.9591(3) -0.03700(16)
C20 C 0.3120(4) 0.9182(3) 0.02128(19)
H16 H 0.2632 0.9306 0.0606
C21 C 0.4402(4) 0.8585(3) 0.02836(17)
C22 C 0.5105(4) 0.8419(3) -0.02993(18)
H17 H 0.5977 0.8011 -0.0281
C23 C 0.4523(4) 0.8854(3) -0.09065(17)
H18 H 0.4997 0.8761 -0.1307
C24 C 0.3234(4) 0.9425(3) -0.09153(17)
H19 H 0.2833 0.9714 -0.1333
Tl1B Tl 1.107650(13) 1.185114(10) -0.054150(6)
Tl1B_2 Tl 1.107650(13) 0.185114(10) -0.054150(6)
Tl1B_3 Tl 0.107650(13) 1.185114(10) -0.054150(6)
N3B N 0.8666(4) 0.8344(3) -0.11539(16)
N6B N 0.7802(3) 0.6124(2) -0.00894(15)
N9B N 0.7471(3) 1.0409(3) 0.03700(16)
loop_
_geom_bond_atom_site_label_1
_geom_bond_atom_site_label_2
_geom_bond_site_symmetry_1
_geom_bond_site_symmetry_2
Tl1 N2 1_555 1_555
B1 H1 1_555 1_555
N1 B1 1_555 1_555
N2 N1 1_555 1_555
C1 N2 1_555 1_555
C2 C1 1_555 1_555
H2 C2 1_555 1_555
C3 N1 1_555 1_555
H3 C3 1_555 1_555
C4 H4 1_555 1_555
C5 C4 1_555 1_555
H5 C5 1_555 1_555
C6 C1 1_555 1_555
C7 C6 1_555 1_555
H6 C7 1_555 1_555
N3 C7 1_555 1_555
C8 C4 1_555 1_555
H7 C8 1_555 1_555
N4 B1 1_555 1_555
N5 Tl1 1_555 1_555
C9 N5 1_555 1_555
C10 C9 1_555 1_555
H8 C10 1_555 1_555
C11 N4 1_555 1_555
H9 C11 1_555 1_555
N6 C12 1_555 1_555
C12 H10 1_555 1_555
C13 C9 1_555 1_555
C14 C13 1_555 1_555
H11 C14 1_555 1_555
C15 C14 1_555 1_555
H12 C15 1_555 1_555
C16 N6 1_555 1_555
H13 C16 1_555 1_555
N7 B1 1_555 1_555
N8 Tl1 1_555 1_555
C17 N8 1_555 1_555
C18 C17 1_555 1_555
H14 C18 1_555 1_555
C19 N7 1_555 1_555
H15 C19 1_555 1_555
N9 C20 1_555 1_555
C20 H16 1_555 1_555
C21 C17 1_555 1_555
C22 C21 1_555 1_555
H17 C22 1_555 1_555
C23 C22 1_555 1_555
H18 C23 1_555 1_555
C24 N9 1_555 1_555
H19 C24 1_555 1_555
Tl1B N3 1_555 1_555
Tl1B_2 N6 1_555 1_555
Tl1B_3 N9 1_555 1_555
N3B Tl1 1_555 1_555
N6B Tl1 1_555 1_555
N9B Tl1 1_555 1_555
C2 C3 1_555 1_555
C5 C6 1_555 1_555
N3 C8 1_555 1_555
N4 N5 1_555 1_555
C10 C11 1_555 1_555
C12 C13 1_555 1_555
C15 C16 1_555 1_555
N7 N8 1_555 1_555
C18 C19 1_555 1_555
C20 C21 1_555 1_555
C23 C24 1_555 1_555

#END
