
#######################################################################
#
#                 Cambridge Crystallographic Data Centre
#                                CCDC 
#
#######################################################################
#
# If this CIF has been generated from an entry in the Cambridge 
# Structural Database, then it will include bibliographic, chemical, 
# crystal, experimental, refinement or atomic coordinate data resulting 
# from the CCDC's data processing and validation procedures.
#
#######################################################################

data_JARTAY
_symmetry_cell_setting           triclinic
_symmetry_space_group_name_H-M   'P -1'
_symmetry_Int_Tables_number      2
_space_group_name_Hall           '-P 1'
loop_
_symmetry_equiv_pos_site_id
_symmetry_equiv_pos_as_xyz
1 x,y,z
2 -x,-y,-z
_cell_length_a                   13.2535(2)
_cell_length_b                   14.0184(3)
_cell_length_c                   14.1607(3)
_cell_angle_alpha                87.643(1)
_cell_angle_beta                 68.305(1)
_cell_angle_gamma                62.109(1)
_cell_volume                     2132.62
loop_
_atom_site_label
_atom_site_type_symbol
_atom_site_fract_x
_atom_site_fract_y
_atom_site_fract_z
Ag1 Ag 0.07142(3) 0.09121(3) 0.18831(2)
N1 N 0.0217(3) 0.3363(3) 0.1454(3)
N2 N -0.0034(3) 0.2608(3) 0.1185(3)
N3 N -0.0412(4) 0.0429(3) -0.1286(3)
N4 N 0.1642(3) 0.2705(3) 0.2396(3)
N5 N 0.2624(3) 0.2458(3) 0.1477(3)
N6 N 0.7187(3) 0.0001(3) -0.0861(3)
N7 N -0.0566(3) 0.3157(3) 0.3365(3)
N8 N -0.0416(3) 0.2127(3) 0.3345(3)
N9 N -0.1325(5) -0.0865(4) 0.4938(4)
N10 N -0.0080(3) 0.4661(3) 0.2815(3)
N11 N -0.1144(3) 0.5472(3) 0.2759(3)
N12 N -0.4496(4) 0.9452(3) 0.3435(4)
C1 C 0.0584(4) 0.3829(4) 0.0639(3)
H1 H 0.0814 0.4376 0.0641
C2 C 0.0567(4) 0.3378(3) -0.0196(3)
H2 H 0.0780 0.3542 -0.0876
C3 C 0.0168(4) 0.2624(3) 0.0183(3)
C4 C -0.0040(4) 0.1887(3) -0.0337(3)
C5 C 0.0746(4) 0.1349(4) -0.1340(3)
H3 H 0.1420 0.1475 -0.1721
C6 C 0.0539(4) 0.0632(4) -0.1777(3)
H4 H 0.1095 0.0262 -0.2459
C7 C -0.1178(4) 0.0963(4) -0.0321(4)
H5 H -0.1860 0.0842 0.0037
C8 C -0.1023(4) 0.1680(4) 0.0175(3)
H6 H -0.1583 0.2030 0.0862
C9 C 0.2037(4) 0.2147(4) 0.3103(3)
H7 H 0.1525 0.2187 0.3795
C10 C 0.3292(4) 0.1521(4) 0.2653(4)
H8 H 0.3831 0.1043 0.2957
C11 C 0.3621(4) 0.1736(3) 0.1637(3)
C12 C 0.4845(4) 0.1188(4) 0.0777(3)
C13 C 0.5770(4) 0.0192(4) 0.0861(4)
H9 H 0.5626 -0.0096 0.1487
C14 C 0.6895(4) -0.0368(4) 0.0030(4)
H10 H 0.7496 -0.1056 0.0096
C15 C 0.6303(4) 0.0967(4) -0.0939(4)
H11 H 0.6491 0.1248 -0.1565
C16 C 0.5136(4) 0.1573(4) -0.0156(4)
H12 H 0.4541 0.2243 -0.0255
C17 C -0.1456(4) 0.3772(4) 0.4294(3)
H13 H -0.1723 0.4515 0.4507
C18 C -0.1898(4) 0.3136(4) 0.4864(4)
H14 H -0.2533 0.3348 0.5538
C19 C -0.1220(4) 0.2107(4) 0.4247(3)
C20 C -0.1260(4) 0.1096(4) 0.4471(4)
C21 C -0.0273(5) 0.0076(4) 0.3960(3)
H15 H 0.0458 0.0020 0.3434
C22 C -0.0339(6) -0.0872(4) 0.4209(4)
H16 H 0.0355 -0.1558 0.3839
C23 C -0.2261(6) 0.0099(5) 0.5432(5)
H17 H -0.2974 0.0122 0.5957
C24 C -0.2288(5) 0.1099(5) 0.5242(5)
H18 H -0.2996 0.1769 0.5633
C25 C 0.0349(4) 0.5061(4) 0.3340(4)
H19 H 0.1071 0.4650 0.3480
C26 C -0.0442(5) 0.6163(4) 0.3632(4)
H20 H -0.0388 0.6667 0.4012
C27 C -0.1359(4) 0.6385(3) 0.3245(3)
C28 C -0.2435(4) 0.7430(4) 0.3307(3)
C29 C -0.3217(5) 0.7510(4) 0.2836(4)
H21 H -0.3061 0.6881 0.2453
C30 C -0.4221(5) 0.8513(4) 0.2932(4)
H22 H -0.4757 0.8543 0.2621
C31 C -0.3738(5) 0.9363(4) 0.3884(4)
H23 H -0.3906 1.0010 0.4249
C32 C -0.2726(5) 0.8394(4) 0.3856(4)
H24 H -0.2232 0.8382 0.4205
B1 B 0.0309(4) 0.3461(4) 0.2497(4)
Ag1A Ag -0.07142(3) -0.09121(3) -0.18831(2)
Ag1A_2 Ag 0.92858(3) -0.09121(3) -0.18831(2)
N3A N 0.0412(4) -0.0429(3) 0.1286(3)
N6A N 0.2813(3) -0.0001(3) 0.0861(3)
O1 O 0.3048(7) 0.4486(6) 0.3583(6)
N13 N 0.4840(6) 0.2872(6) 0.3204(5)
C33 C 0.4105(8) 0.3775(7) 0.2955(8)
H25 H 0.4388 0.3897 0.2264
C34 C 0.4403(12) 0.2624(10) 0.4221(8)
H26 H 0.4865 0.2685 0.4598
H27 H 0.4530 0.1878 0.4174
H28 H 0.3514 0.3140 0.4586
C35 C 0.5991(8) 0.2032(7) 0.2461(9)
H29 H 0.6167 0.2282 0.1792
H30 H 0.5927 0.1370 0.2398
H31 H 0.6664 0.1869 0.2683
O2 O 0.4091(8) 0.5993(7) -0.0563(5)
N14 N 0.2840(7) 0.6044(7) 0.1110(6)
C36 C 0.3569(9) 0.6369(8) 0.0361(7)
H32 H 0.3681 0.6934 0.0574
C37 C 0.2288(9) 0.6604(7) 0.2082(7)
H33 H 0.2806 0.6881 0.2176
H34 H 0.2193 0.6116 0.2582
H35 H 0.1468 0.7219 0.2188
C38 C 0.2573(10) 0.5243(8) 0.0791(8)
H36 H 0.2584 0.4734 0.1287
H37 H 0.3205 0.4837 0.0108
H38 H 0.1751 0.5620 0.0762
O3 O 0.5609(6) 0.3014(5) 0.7368(5)
N15 N 0.4202(7) 0.4566(6) 0.7133(7)
C39 C 0.4872(8) 0.3906(7) 0.7644(8)
H39 H 0.4709 0.4220 0.8301
C40 C 0.4497(12) 0.4125(10) 0.6090(8)
H40 H 0.5142 0.3355 0.5923
H41 H 0.4800 0.4540 0.5600
H42 H 0.3748 0.4186 0.6049
C41 C 0.3178(12) 0.5664(9) 0.7555(12)
C42? C 0.2818(13) 0.4929(12) 0.7925(15)
loop_
_geom_bond_atom_site_label_1
_geom_bond_atom_site_label_2
_geom_bond_site_symmetry_1
_geom_bond_site_symmetry_2
Ag1 N2 1_555 1_555
O1 C33 1_555 1_555
O2 C36 1_555 1_555
O3 C39 1_555 1_555
N1 N2 1_555 1_555
N2 C3 1_555 1_555
N3 C6 1_555 1_555
N4 N5 1_555 1_555
N5 C11 1_555 1_555
N6 C14 1_555 1_555
N7 N8 1_555 1_555
N8 Ag1 1_555 1_555
N9 C22 1_555 1_555
N10 N11 1_555 1_555
N11 C27 1_555 1_555
N12 C30 1_555 1_555
N13 C33 1_555 1_555
N14 C36 1_555 1_555
N15 C39 1_555 1_555
C1 N1 1_555 1_555
H1 C1 1_555 1_555
C2 C1 1_555 1_555
H2 C2 1_555 1_555
C3 C2 1_555 1_555
C4 C3 1_555 1_555
C5 C4 1_555 1_555
H3 C5 1_555 1_555
C6 C5 1_555 1_555
H4 C6 1_555 1_555
C7 N3 1_555 1_555
H5 C7 1_555 1_555
C8 C4 1_555 1_555
H6 C8 1_555 1_555
C9 N4 1_555 1_555
H7 C9 1_555 1_555
C10 C9 1_555 1_555
H8 C10 1_555 1_555
C11 C10 1_555 1_555
C12 C11 1_555 1_555
C13 C12 1_555 1_555
H9 C13 1_555 1_555
C14 C13 1_555 1_555
H10 C14 1_555 1_555
C15 N6 1_555 1_555
H11 C15 1_555 1_555
C16 C12 1_555 1_555
H12 C16 1_555 1_555
C17 N7 1_555 1_555
H13 C17 1_555 1_555
C18 C17 1_555 1_555
H14 C18 1_555 1_555
C19 N8 1_555 1_555
C20 C19 1_555 1_555
C21 C20 1_555 1_555
H15 C21 1_555 1_555
C22 C21 1_555 1_555
H16 C22 1_555 1_555
C23 N9 1_555 1_555
H17 C23 1_555 1_555
C24 C20 1_555 1_555
H18 C24 1_555 1_555
C25 N10 1_555 1_555
H19 C25 1_555 1_555
C26 C25 1_555 1_555
H20 C26 1_555 1_555
C27 C26 1_555 1_555
C28 C27 1_555 1_555
C29 C28 1_555 1_555
H21 C29 1_555 1_555
C30 C29 1_555 1_555
H22 C30 1_555 1_555
C31 N12 1_555 1_555
H23 C31 1_555 1_555
C32 C28 1_555 1_555
H24 C32 1_555 1_555
C33 H25 1_555 1_555
C34 N13 1_555 1_555
H26 C34 1_555 1_555
H27 C34 1_555 1_555
H28 C34 1_555 1_555
C35 N13 1_555 1_555
H29 C35 1_555 1_555
H30 C35 1_555 1_555
H31 C35 1_555 1_555
C36 H32 1_555 1_555
C37 N14 1_555 1_555
H33 C37 1_555 1_555
H34 C37 1_555 1_555
H35 C37 1_555 1_555
C38 N14 1_555 1_555
H36 C38 1_555 1_555
H37 C38 1_555 1_555
H38 C38 1_555 1_555
C39 H39 1_555 1_555
C40 N15 1_555 1_555
H40 C40 1_555 1_555
H41 C40 1_555 1_555
H42 C40 1_555 1_555
C41 N15 1_555 1_555
B1 N1 1_555 1_555
Ag1A N3 1_555 1_555
Ag1A_2 N6 1_555 1_555
N3A Ag1 1_555 1_555
N6A Ag1 1_555 1_555
N4 B1 1_555 1_555
N7 B1 1_555 1_555
N10 B1 1_555 1_555
C7 C8 1_555 1_555
C15 C16 1_555 1_555
C18 C19 1_555 1_555
C23 C24 1_555 1_555
C31 C32 1_555 1_555

#END
