
#######################################################################
#
#                 Cambridge Crystallographic Data Centre
#                                CCDC 
#
#######################################################################
#
# If this CIF has been generated from an entry in the Cambridge 
# Structural Database, then it will include bibliographic, chemical, 
# crystal, experimental, refinement or atomic coordinate data resulting 
# from the CCDC's data processing and validation procedures.
#
#######################################################################

data_JARWAB
_symmetry_cell_setting           monoclinic
_symmetry_space_group_name_H-M   'P 21/a'
_symmetry_Int_Tables_number      14
_space_group_name_Hall           '-P 2yab'
loop_
_symmetry_equiv_pos_site_id
_symmetry_equiv_pos_as_xyz
1 x,y,z
2 1/2-x,1/2+y,-z
3 -x,-y,-z
4 1/2+x,1/2-y,z
_cell_length_a                   12.9850(10)
_cell_length_b                   7.7217(6)
_cell_length_c                   15.3830(10)
_cell_angle_alpha                90
_cell_angle_beta                 92.508(7)
_cell_angle_gamma                90
_cell_volume                     1540.92
loop_
_atom_site_label
_atom_site_type_symbol
_atom_site_fract_x
_atom_site_fract_y
_atom_site_fract_z
Fe1 Fe 0.13071(2) 0.11675(4) 0.370630(17)
Na1 Na 0.08056(6) -0.35646(10) 0.04968(5)
Na2 Na -0.08998(6) -0.02539(10) 0.06155(5)
P1 P 0.15948(3) 0.01418(6) 0.15270(3)
O1 O 0.17736(10) 0.20721(18) 0.13708(9)
O2 O 0.26160(10) -0.08644(19) 0.15823(8)
O3 O 0.08338(10) -0.06172(18) 0.08485(8)
C1 C 0.10274(13) -0.0152(2) 0.25644(11)
C2 C 0.14015(14) -0.1301(3) 0.32415(12)
C3 C 0.07222(15) -0.1237(3) 0.39414(12)
C4 C -0.00910(15) -0.0059(3) 0.37059(12)
C5 C 0.00929(15) 0.0609(3) 0.28603(12)
C6 C 0.27743(18) 0.1890(3) 0.40776(15)
C7 C 0.2333(2) 0.3088(3) 0.34642(15)
C8 C 0.14345(19) 0.3802(3) 0.38194(15)
C9 C 0.13243(19) 0.3041(3) 0.46531(14)
C10 C 0.21514(18) 0.1868(3) 0.48066(13)
H1 H 0.3405 0.1249 0.3982
H2 H 0.2655 0.3318 0.2888
H3 H 0.0933 0.4610 0.3453
H4 H 0.0762 0.3498 0.5025
H5 H 0.2258 0.1062 0.5248
H6 H -0.0684 0.0048 0.4088
H7 H 0.0859 -0.1981 0.4472
H8 H 0.2043 -0.1842 0.3302
H9 H -0.0345 0.1502 0.2551
O4 O 0.03968(13) -0.5363(2) 0.16623(10)
H10 H 0.0176 -0.4960 0.2113
H11 H 0.0782 -0.6255 0.1740
O5 O 0.11869(11) -0.26108(19) -0.09265(9)
H12 H 0.1857 -0.2693 -0.0979
H13 H 0.0776 -0.3328 -0.1313
O6 O 0.25422(12) -0.4156(2) 0.11835(11)
H14 H 0.2349 -0.5000 0.1544
H15 H 0.2471 -0.3212 0.1454
O8 O -0.10299(10) -0.34338(18) 0.01857(9)
H18 H -0.1464 -0.3674 0.0515
H19 H -0.1415 -0.3025 -0.0289
Na1B Na -0.08056(6) -0.64354(10) -0.04968(5)
Na2B Na 0.08998(6) 0.02539(10) -0.06155(5)
Na2C Na 0.41002(6) -0.47461(10) 0.06155(5)
O3B O -0.08338(10) 0.06172(18) -0.08485(8)
O5B O -0.11869(11) 0.26108(19) 0.09265(9)
H12B H -0.1857 0.2693 0.0979
H13B H -0.0776 0.3328 0.1313
O6C O -0.24578(12) -0.0844(2) 0.11835(11)
H14C H -0.2651 0.0000 0.1544
H15C H -0.2529 -0.1788 0.1454
O8B O 0.10299(10) -0.65662(18) -0.01857(9)
H18B H 0.1464 -0.6326 -0.0515
H19B H 0.1415 -0.6975 0.0289
O7 O 0.58314(12) 0.1023(2) 0.71388(11)
H16 H 0.5580 0.2071 0.7023
H17 H 0.6464 0.1245 0.7491
loop_
_geom_bond_atom_site_label_1
_geom_bond_atom_site_label_2
_geom_bond_site_symmetry_1
_geom_bond_site_symmetry_2
Fe1 C1 1_555 1_555
Na1 O3 1_555 1_555
Na2 O3 1_555 1_555
P1 O1 1_555 1_555
O2 P1 1_555 1_555
O3 P1 1_555 1_555
C1 P1 1_555 1_555
C2 Fe1 1_555 1_555
C3 Fe1 1_555 1_555
C4 Fe1 1_555 1_555
C5 Fe1 1_555 1_555
C6 Fe1 1_555 1_555
C7 Fe1 1_555 1_555
C8 Fe1 1_555 1_555
C9 Fe1 1_555 1_555
C10 Fe1 1_555 1_555
H1 C6 1_555 1_555
H2 C7 1_555 1_555
H3 C8 1_555 1_555
H4 C9 1_555 1_555
H5 C10 1_555 1_555
H6 C4 1_555 1_555
H7 C3 1_555 1_555
H8 C2 1_555 1_555
H9 C5 1_555 1_555
O4 Na1 1_555 1_555
H10 O4 1_555 1_555
H11 O4 1_555 1_555
O5 Na1 1_555 1_555
H12 O5 1_555 1_555
H13 O5 1_555 1_555
O6 Na1 1_555 1_555
H14 O6 1_555 1_555
H15 O6 1_555 1_555
O7 H16 1_555 1_555
H17 O7 1_555 1_555
O8 Na1 1_555 1_555
H18 O8 1_555 1_555
H19 O8 1_555 1_555
Na1B O8 1_555 1_555
Na2B O3 1_555 1_555
Na2C O6 1_555 1_555
O3B Na2 1_555 1_555
O5B Na2 1_555 1_555
H12B O5B 1_555 1_555
H13B O5B 1_555 1_555
O6C Na2 1_555 1_555
H14C O6C 1_555 1_555
H15C O6C 1_555 1_555
O8B Na1 1_555 1_555
H18B O8B 1_555 1_555
H19B O8B 1_555 1_555
Na2 O8 1_555 1_555
C1 C2 1_555 1_555
C1 C5 1_555 1_555
C2 C3 1_555 1_555
C3 C4 1_555 1_555
C4 C5 1_555 1_555
C6 C7 1_555 1_555
C6 C10 1_555 1_555
C7 C8 1_555 1_555
C8 C9 1_555 1_555
C9 C10 1_555 1_555
O5 Na2B 1_555 1_555
Na1B O8B 1_555 1_555
Na2B O3B 1_555 1_555

#END
