
#######################################################################
#
#                 Cambridge Crystallographic Data Centre
#                                CCDC 
#
#######################################################################
#
# If this CIF has been generated from an entry in the Cambridge 
# Structural Database, then it will include bibliographic, chemical, 
# crystal, experimental, refinement or atomic coordinate data resulting 
# from the CCDC's data processing and validation procedures.
#
#######################################################################

data_JASCIQ
_symmetry_cell_setting           monoclinic
_symmetry_space_group_name_H-M   'P 21/c'
_symmetry_Int_Tables_number      14
_space_group_name_Hall           '-P 2ybc'
loop_
_symmetry_equiv_pos_site_id
_symmetry_equiv_pos_as_xyz
1 x,y,z
2 -x,1/2+y,1/2-z
3 -x,-y,-z
4 x,1/2-y,1/2+z
_cell_length_a                   16.9840(8)
_cell_length_b                   11.2390(7)
_cell_length_c                   12.2260(5)
_cell_angle_alpha                90
_cell_angle_beta                 93.275(5)
_cell_angle_gamma                90
_cell_volume                     2329.93
loop_
_atom_site_label
_atom_site_type_symbol
_atom_site_fract_x
_atom_site_fract_y
_atom_site_fract_z
C1 C 0.58517(10) 0.46914(15) 0.12455(13)
C2 C 0.50471(10) 0.31098(16) 0.19908(14)
C3 C 0.55704(10) 0.31456(16) 0.30404(14)
C4 C 0.63436(10) 0.37914(16) 0.28956(14)
C5 C 0.51372(11) 0.39311(17) 0.38773(15)
H1 H 0.5447 0.3925 0.4569
H2 H 0.5125 0.4744 0.3611
C6 C 0.42962(12) 0.35592(18) 0.40934(16)
H3 H 0.4085 0.4093 0.4615
H4 H 0.4299 0.2764 0.4380
H5 H 0.3976 0.3587 0.3421
C7 C 0.57082(11) 0.18880(16) 0.35010(15)
H6 H 0.5980 0.1949 0.4218
H7 H 0.5201 0.1517 0.3595
C8 C 0.61847(12) 0.10902(18) 0.27848(18)
H8 H 0.6249 0.0323 0.3123
H9 H 0.6693 0.1440 0.2700
H10 H 0.5913 0.1004 0.2079
C9 C 0.75916(10) 0.63215(15) -0.02249(13)
H11 H 0.7036 0.6117 -0.0273
H12 H 0.7888 0.5590 -0.0294
C10 C 0.77585(10) 0.71305(15) -0.11805(14)
H13 H 0.8299 0.7408 -0.1087
H14 H 0.7713 0.6666 -0.1850
C11 C 0.91451(10) 0.47527(15) 0.37182(13)
C12 C 0.99352(10) 0.30659(15) 0.31306(14)
C13 C 0.93976(10) 0.29588(15) 0.20977(13)
C14 C 0.87539(10) 0.38981(14) 0.20134(13)
C15 C 0.99136(10) 0.30857(16) 0.11058(14)
H15 H 1.0273 0.2416 0.1095
H16 H 0.9577 0.3059 0.0438
C16 C 1.03886(11) 0.42339(17) 0.11246(16)
H17 H 1.0697 0.4266 0.0491
H18 H 1.0732 0.4258 0.1775
H19 H 1.0036 0.4902 0.1119
C17 C 0.90030(11) 0.17240(15) 0.20893(14)
H20 H 0.8711 0.1611 0.1392
H21 H 0.9410 0.1118 0.2152
C18 C 0.84452(11) 0.15536(17) 0.30083(16)
H22 H 0.8218 0.0772 0.2959
H23 H 0.8033 0.2138 0.2943
H24 H 0.8732 0.1643 0.3703
N1 N 0.64215(9) 0.45644(13) 0.20605(12)
N2 N 0.51924(9) 0.39669(13) 0.12293(11)
H25 H 0.4845 0.4062 0.0697
N3 N 0.77913(9) 0.68406(13) 0.08740(11)
H26 H 0.7521 0.7523 0.0940
H27 H 0.8309 0.7019 0.0928
N4 N 0.72337(9) 0.81772(13) -0.13119(12)
N5 N 0.86506(8) 0.47049(13) 0.28125(11)
N6 N 0.97790(9) 0.39775(13) 0.38289(11)
H28 H 1.0104 0.4078 0.4387
O1 O 0.59095(8) 0.54241(11) 0.05086(10)
O2 O 0.45022(8) 0.24187(13) 0.18470(11)
O4 O 0.68981(8) 0.36885(13) 0.35833(11)
O6 O 0.90556(8) 0.54766(11) 0.44635(10)
O7 O 1.04843(8) 0.23912(12) 0.33283(11)
O8 O 0.82888(7) 0.39122(11) 0.11950(10)
Cd1 Cd 0.751478(6) 0.560412(10) 0.227033(9)
H33 H 0.7280(15) 0.865(2) -0.075(2)
H34 H 0.6734(15) 0.793(2) -0.1390(19)
N4C N 0.72337(9) 0.68228(13) 0.36881(12)
Cd1C Cd 0.751478(6) 0.939588(10) -0.272967(9)
H33C H 0.7280(15) 0.635(2) 0.425(2)
H34C H 0.6734(15) 0.707(2) 0.3610(19)
O3 O 0.77016(10) 0.54532(14) 0.58238(13)
H29 H 0.8123(19) 0.544(2) 0.553(2)
H30 H 0.753(2) 0.481(3) 0.582(3)
O5 O 0.71887(10) 0.30343(14) 0.56953(12)
H31 H 0.753(2) 0.233(4) 0.578(3)
H32 H 0.709(2) 0.308(3) 0.494(3)
loop_
_geom_bond_atom_site_label_1
_geom_bond_atom_site_label_2
_geom_bond_site_symmetry_1
_geom_bond_site_symmetry_2
C1 N1 1_555 1_555
C2 C3 1_555 1_555
C3 C4 1_555 1_555
C4 N1 1_555 1_555
C5 C3 1_555 1_555
H1 C5 1_555 1_555
H2 C5 1_555 1_555
C6 C5 1_555 1_555
H3 C6 1_555 1_555
H4 C6 1_555 1_555
H5 C6 1_555 1_555
C7 C3 1_555 1_555
H6 C7 1_555 1_555
H7 C7 1_555 1_555
C8 C7 1_555 1_555
H8 C8 1_555 1_555
H9 C8 1_555 1_555
H10 C8 1_555 1_555
C9 H11 1_555 1_555
H12 C9 1_555 1_555
C10 C9 1_555 1_555
H13 C10 1_555 1_555
H14 C10 1_555 1_555
C11 N5 1_555 1_555
C12 C13 1_555 1_555
C13 C14 1_555 1_555
C14 N5 1_555 1_555
C15 C13 1_555 1_555
H15 C15 1_555 1_555
H16 C15 1_555 1_555
C16 C15 1_555 1_555
H17 C16 1_555 1_555
H18 C16 1_555 1_555
H19 C16 1_555 1_555
C17 C13 1_555 1_555
H20 C17 1_555 1_555
H21 C17 1_555 1_555
C18 C17 1_555 1_555
H22 C18 1_555 1_555
H23 C18 1_555 1_555
H24 C18 1_555 1_555
N1 Cd1 1_555 1_555
N2 C1 1_555 1_555
H25 N2 1_555 1_555
N3 C9 1_555 1_555
H26 N3 1_555 1_555
H27 N3 1_555 1_555
N4 C10 1_555 1_555
N5 Cd1 1_555 1_555
N6 C11 1_555 1_555
H28 N6 1_555 1_555
O1 C1 1_555 1_555
O2 C2 1_555 1_555
O3 H29 1_555 1_555
O4 C4 1_555 1_555
O5 H31 1_555 1_555
O6 C11 1_555 1_555
O7 C12 1_555 1_555
O8 C14 1_555 1_555
Cd1 N3 1_555 1_555
H30 O3 1_555 1_555
H32 O5 1_555 1_555
H33 N4 1_555 1_555
H34 N4 1_555 1_555
N4C Cd1 1_555 1_555
Cd1C N4 1_555 1_555
H33C N4C 1_555 1_555
H34C N4C 1_555 1_555
C2 N2 1_555 1_555
C12 N6 1_555 1_555
O4 Cd1 1_555 1_555
O8 Cd1 1_555 1_555

#END
