
#######################################################################
#
#                 Cambridge Crystallographic Data Centre
#                                CCDC 
#
#######################################################################
#
# If this CIF has been generated from an entry in the Cambridge 
# Structural Database, then it will include bibliographic, chemical, 
# crystal, experimental, refinement or atomic coordinate data resulting 
# from the CCDC's data processing and validation procedures.
#
#######################################################################

data_JASDEN
_symmetry_cell_setting           monoclinic
_symmetry_space_group_name_H-M   'C 2/m'
_symmetry_Int_Tables_number      12
_space_group_name_Hall           '-C 2y'
loop_
_symmetry_equiv_pos_site_id
_symmetry_equiv_pos_as_xyz
1 x,y,z
2 1/2+x,1/2+y,z
3 -x,y,-z
4 1/2-x,1/2+y,-z
5 -x,-y,-z
6 1/2-x,1/2-y,-z
7 x,-y,z
8 1/2+x,1/2-y,z
_cell_length_a                   10.423(3)
_cell_length_b                   17.416(6)
_cell_length_c                   16.583(5)
_cell_angle_alpha                90
_cell_angle_beta                 92.698(4)
_cell_angle_gamma                90
_cell_volume                     3006.92
loop_
_atom_site_label
_atom_site_type_symbol
_atom_site_fract_x
_atom_site_fract_y
_atom_site_fract_z
N4 N 0.7037(11) 0.4509(7) 0.3194(7)
C12 C 0.7514(18) 0.5000 0.2610(10)
C13 C 0.7794(11) 0.4210(9) 0.3831(9)
H14 H 0.7465 0.3815 0.4136
C14 C 0.5733(16) 0.4218(15) 0.2952(13)
H15 H 0.5740 0.3667 0.2953
H16 H 0.5492 0.4400 0.2419
H17 H 0.5128 0.4400 0.3326
O2 O 0.8880(10) 0.4448(8) 0.4007(8)
N4F N 0.7037(11) 0.5491(7) 0.3194(7)
C13F C 0.7794(11) 0.5790(9) 0.3831(9)
H14F H 0.7465 0.6185 0.4136
C14F C 0.5733(16) 0.5782(15) 0.2952(13)
H15F H 0.5740 0.6333 0.2953
H16F H 0.5492 0.5600 0.2419
H17F H 0.5128 0.5600 0.3326
O2F O 0.8880(10) 0.5552(8) 0.4007(8)
O5 O 1.0000 0.1571(11) 0.5000
Zn1 Zn 0.63044(6) 0.17020(4) 0.30075(4)
N1 N 0.6768(5) 0.0645(3) 0.2650(3)
N2 N 0.4514(5) 0.1954(3) 0.2634(3)
N3 N 0.2595(5) 0.2541(3) 0.2636(3)
C1 C 0.6311(8) 0.0000 0.2957(6)
H1 H 0.5715 0.0000 0.3357
C2 C 0.7621(5) 0.0401(4) 0.2090(3)
C3 C 0.8396(7) 0.0812(4) 0.1590(4)
H2 H 0.8386 0.1346 0.1585
C4 C 0.9190(7) 0.0398(4) 0.1096(4)
H3 H 0.9730 0.0660 0.0760
C5 C 0.3717(5) 0.2410(4) 0.3024(4)
H4 H 0.3933 0.2619 0.3529
C6 C 0.2655(6) 0.2158(3) 0.1906(4)
C7 C 0.1805(7) 0.2093(4) 0.1256(4)
H5 H 0.1010 0.2336 0.1255
C8 C 0.2138(8) 0.1666(5) 0.0608(5)
H6 H 0.1576 0.1626 0.0158
C9 C 0.3316(9) 0.1292(6) 0.0619(5)
H7 H 0.3518 0.1002 0.0171
C10 C 0.4196(7) 0.1329(5) 0.1261(5)
H8 H 0.4972 0.1064 0.1266
C11 C 0.3851(6) 0.1788(3) 0.1903(4)
O1 O 0.6375(6) 0.1728(4) 0.4232(4)
Zn1F Zn 0.63044(6) -0.17020(4) 0.30075(4)
Zn1G Zn 0.13044(6) 0.32980(4) 0.30075(4)
Zn1G_2 Zn 1.13044(6) 0.32980(4) 0.30075(4)
N1F N 0.6768(5) -0.0645(3) 0.2650(3)
N2G N 0.9514(5) 0.3046(3) 0.2634(3)
N2F N 0.4514(5) -0.1954(3) 0.2634(3)
N3G N 0.7595(5) 0.2459(3) 0.2636(3)
N3A N 0.7595(5) -0.2459(3) 0.2636(3)
C2F C 0.7621(5) -0.0401(4) 0.2090(3)
C3F C 0.8396(7) -0.0812(4) 0.1590(4)
H2F H 0.8386 -0.1346 0.1585
C4F C 0.9190(7) -0.0398(4) 0.1096(4)
H3F H 0.9730 -0.0660 0.0760
C5G C 0.8717(5) 0.2590(4) 0.3024(4)
H4G H 0.8933 0.2381 0.3529
C6G C 0.7655(6) 0.2842(3) 0.1906(4)
C7G C 0.6805(7) 0.2907(4) 0.1256(4)
H5G H 0.6010 0.2664 0.1255
C8G C 0.7138(8) 0.3334(5) 0.0608(5)
H6G H 0.6576 0.3374 0.0158
C9G C 0.8316(9) 0.3708(6) 0.0619(5)
H7G H 0.8518 0.3998 0.0171
C10G C 0.9196(7) 0.3671(5) 0.1261(5)
H8G H 0.9972 0.3936 0.1266
C11G C 0.8851(6) 0.3212(3) 0.1903(4)
O1F O 0.6375(6) -0.1728(4) 0.4232(4)
H9? H 0.582(7) 0.142(4) 0.455(4)
H10? H 0.63(16) 0.22(2) 0.45(9)
H11? H 0.7808 0.5468 0.2863
H12? H 0.6845 0.5113 0.2210
H13? H 0.8216 0.4755 0.2357
O3? O 0.8999(9) 0.1835(7) 0.4835(5)
O4? O 0.0000 0.4509(8) 0.5000
loop_
_geom_bond_atom_site_label_1
_geom_bond_atom_site_label_2
_geom_bond_site_symmetry_1
_geom_bond_site_symmetry_2
Zn1 N1 1_555 1_555
N1 C1 1_555 1_555
N2 Zn1 1_555 1_555
N3 C5 1_555 1_555
C1 H1 1_555 1_555
C2 N1 1_555 1_555
C3 C2 1_555 1_555
H2 C3 1_555 1_555
C4 C3 1_555 1_555
H3 C4 1_555 1_555
C5 N2 1_555 1_555
H4 C5 1_555 1_555
C6 N3 1_555 1_555
C7 C6 1_555 1_555
H5 C7 1_555 1_555
C8 C7 1_555 1_555
H6 C8 1_555 1_555
C9 C8 1_555 1_555
H7 C9 1_555 1_555
C10 C9 1_555 1_555
H8 C10 1_555 1_555
C11 N2 1_555 1_555
O1 Zn1 1_555 1_555
N4 C12 1_555 1_555
C12 N4F 1_555 1_555
C13 N4 1_555 1_555
H14 C13 1_555 1_555
C14 N4 1_555 1_555
H15 C14 1_555 1_555
H16 C14 1_555 1_555
H17 C14 1_555 1_555
O2 C13 1_555 1_555
Zn1F N1F 1_555 1_555
Zn1G N3 1_555 1_555
Zn1G_2 N2G 1_555 1_555
N1F C1 1_555 1_555
N2G C5G 1_555 1_555
N2F Zn1F 1_555 1_555
N3G Zn1 1_555 1_555
N3A Zn1F 1_555 1_555
C2F C2 1_555 1_555
C3F C2F 1_555 1_555
H2F C3F 1_555 1_555
C4F C4 1_555 1_555
H3F C4F 1_555 1_555
C5G N3G 1_555 1_555
H4G C5G 1_555 1_555
C6G N3G 1_555 1_555
C7G C6G 1_555 1_555
H5G C7G 1_555 1_555
C8G C7G 1_555 1_555
H6G C8G 1_555 1_555
C9G C8G 1_555 1_555
H7G C9G 1_555 1_555
C10G C9G 1_555 1_555
H8G C10G 1_555 1_555
C11G N2G 1_555 1_555
O1F Zn1F 1_555 1_555
N4F N4 1_555 1_555
C13F N4F 1_555 1_555
H14F C13F 1_555 1_555
C14F N4F 1_555 1_555
H15F C14F 1_555 1_555
H16F C14F 1_555 1_555
H17F C14F 1_555 1_555
O2F C13F 1_555 1_555
C6 C11 1_555 1_555
C10 C11 1_555 1_555
N1F C2F 1_555 1_555
C3F C4F 1_555 1_555
C6G C11G 1_555 1_555
C10G C11G 1_555 1_555

#END
