
#######################################################################
#
#                 Cambridge Crystallographic Data Centre
#                                CCDC 
#
#######################################################################
#
# If this CIF has been generated from an entry in the Cambridge 
# Structural Database, then it will include bibliographic, chemical, 
# crystal, experimental, refinement or atomic coordinate data resulting 
# from the CCDC's data processing and validation procedures.
#
#######################################################################

data_JASJAO
_symmetry_cell_setting           monoclinic
_symmetry_space_group_name_H-M   'P 21/n'
_symmetry_Int_Tables_number      14
_space_group_name_Hall           '-P 2yn'
loop_
_symmetry_equiv_pos_site_id
_symmetry_equiv_pos_as_xyz
1 x,y,z
2 1/2-x,1/2+y,1/2-z
3 -x,-y,-z
4 1/2+x,1/2-y,1/2+z
_cell_length_a                   11.245(1)
_cell_length_b                   17.257(7)
_cell_length_c                   18.357(3)
_cell_angle_alpha                90
_cell_angle_beta                 98.39(1)
_cell_angle_gamma                90
_cell_volume                     3524.14
loop_
_atom_site_label
_atom_site_type_symbol
_atom_site_fract_x
_atom_site_fract_y
_atom_site_fract_z
O1 O 0.2038(17) 1.1653(11) 0.3822(11)
O2 O 0.0575(17) 1.2333(12) 0.2687(11)
O3 O 0.4018(16) 1.1519(11) 0.3055(10)
O4 O 0.3058(18) 1.0958(11) 0.1672(11)
O5 O 0.0437(20) 1.0629(13) 0.3006(12)
O6 O 0.0604(19) 1.1137(11) 0.1587(11)
O7 O 0.2354(19) 0.7466(13) 0.2912(12)
O8 O 0.2805(19) 1.0108(13) 0.2912(12)
N1 N 0.2642(20) 0.8181(14) 0.3146(13)
N2 N 0.2772(22) 0.9400(13) 0.3155(15)
C1 C 0.1322(27) 1.1977(18) 0.4231(17)
C2 C 0.0442(29) 1.2481(19) 0.3958(19)
C3 C 0.0143(29) 1.2622(19) 0.3255(20)
C4 C 0.4927(23) 1.1490(17) 0.2762(15)
C5 C 0.5093(27) 1.1235(19) 0.2059(18)
C6 C 0.4110(26) 1.0962(17) 0.1578(16)
C7 C -0.0645(30) 1.0463(20) 0.2682(20)
C8 C -0.1129(29) 1.0549(19) 0.1977(20)
C9 C -0.0523(32) 1.0874(22) 0.1516(21)
C10 C 0.1768(41) 1.1865(31) 0.5060(29)
C11 C -0.0994(37) 1.3183(28) 0.2911(27)
C12 C 0.6139(33) 1.1703(24) 0.3344(23)
C13 C 0.4403(39) 1.0782(27) 0.0811(26)
C14 C -0.1337(39) 0.9982(29) 0.3280(28)
C15 C -0.1197(50) 1.0831(41) 0.0639(41)
C16 C 0.2472(23) 0.8791(18) 0.2713(15)
C17 C 0.3211(29) 0.9206(20) 0.3921(20)
C18 C 0.2933(26) 0.8346(17) 0.3972(17)
C19 C 0.4565(37) 0.9392(27) 0.3969(25)
C20 C 0.2797(34) 0.9744(24) 0.4464(23)
C21 C 0.1735(35) 0.8194(26) 0.4307(24)
C22 C 0.3942(31) 0.7800(22) 0.4294(21)
C23 C 0.2135(30) 0.8817(22) 0.1917(19)
C24 C 0.0831(32) 0.8838(23) 0.1712(21)
F1 F 0.2736(26) 1.1762(18) 0.5288(17)
F2 F 0.1177(28) 1.1153(20) 0.5149(18)
F3 F 0.1087(22) 1.2309(16) 0.5427(14)
F4 F -0.1489(22) 1.3419(15) 0.3447(15)
F5 F -0.1563(24) 1.3040(16) 0.2363(16)
F6 F -0.0321(23) 1.3867(16) 0.2808(15)
F7 F 0.6247(23) 1.1184(16) 0.3878(16)
F8 F 0.6010(24) 1.2353(17) 0.3617(15)
F9 F 0.7078(21) 1.1670(14) 0.3008(13)
F10 F 0.5479(27) 1.0505(18) 0.0806(17)
F11 F 0.3951(23) 1.0008(16) 0.0715(14)
F12 F 0.3855(28) 1.1045(18) 0.0301(19)
F13 F -0.1167(22) 1.0250(15) 0.3882(16)
F14 F -0.2477(24) 0.9896(16) 0.2951(14)
F15 F -0.0879(24) 0.9259(18) 0.3224(16)
F16 F -0.0654(27) 1.1348(20) 0.0267(18)
F17 F -0.1173(35) 1.0282(26) 0.0349(25)
F18 F -0.2128(34) 1.1083(24) 0.0628(23)
Y1 Y 0.3018(3) 0.6347(2) 0.2399(2)
Y1A Y 0.1982(3) 1.1347(2) 0.2601(2)
O7A O 0.2646(19) 1.2466(13) 0.2088(12)
loop_
_geom_bond_atom_site_label_1
_geom_bond_atom_site_label_2
_geom_bond_site_symmetry_1
_geom_bond_site_symmetry_2
O1 C1 1_555 1_555
O2 C3 1_555 1_555
O3 C4 1_555 1_555
O4 C6 1_555 1_555
O5 C7 1_555 1_555
O6 C9 1_555 1_555
O7 N1 1_555 1_555
O8 N2 1_555 1_555
N1 C16 1_555 1_555
N2 C16 1_555 1_555
C1 C2 1_555 1_555
C2 C3 1_555 1_555
C3 C11 1_555 1_555
C4 C5 1_555 1_555
C5 C6 1_555 1_555
C6 C13 1_555 1_555
C7 C8 1_555 1_555
C8 C9 1_555 1_555
C9 C15 1_555 1_555
C10 C1 1_555 1_555
C11 F4 1_555 1_555
C12 C4 1_555 1_555
C13 F10 1_555 1_555
C14 C7 1_555 1_555
C15 F16 1_555 1_555
C16 C23 1_555 1_555
C17 N2 1_555 1_555
C18 N1 1_555 1_555
C19 C17 1_555 1_555
C20 C17 1_555 1_555
C21 C18 1_555 1_555
C22 C18 1_555 1_555
C23 C24 1_555 1_555
F1 C10 1_555 1_555
F2 C10 1_555 1_555
F3 C10 1_555 1_555
F5 C11 1_555 1_555
F6 C11 1_555 1_555
F7 C12 1_555 1_555
F8 C12 1_555 1_555
F9 C12 1_555 1_555
F11 C13 1_555 1_555
F12 C13 1_555 1_555
F13 C14 1_555 1_555
F14 C14 1_555 1_555
F15 C14 1_555 1_555
F17 C15 1_555 1_555
F18 C15 1_555 1_555
Y1 O7 1_555 1_555
Y1A O1 1_555 1_555
O7A Y1A 1_555 1_555
O2 Y1A 1_555 1_555
O3 Y1A 1_555 1_555
O4 Y1A 1_555 1_555
O5 Y1A 1_555 1_555
O6 Y1A 1_555 1_555
O8 Y1A 1_555 1_555
C17 C18 1_555 1_555

#END
