
#######################################################################
#
#                 Cambridge Crystallographic Data Centre
#                                CCDC 
#
#######################################################################
#
# If this CIF has been generated from an entry in the Cambridge 
# Structural Database, then it will include bibliographic, chemical, 
# crystal, experimental, refinement or atomic coordinate data resulting 
# from the CCDC's data processing and validation procedures.
#
#######################################################################

data_JASNOG
_symmetry_cell_setting           monoclinic
_symmetry_space_group_name_H-M   'P 21/n'
_symmetry_Int_Tables_number      14
_space_group_name_Hall           '-P 2yn'
loop_
_symmetry_equiv_pos_site_id
_symmetry_equiv_pos_as_xyz
1 x,y,z
2 1/2-x,1/2+y,1/2-z
3 -x,-y,-z
4 1/2+x,1/2-y,1/2+z
_cell_length_a                   7.814(1)
_cell_length_b                   10.3375(7)
_cell_length_c                   19.981(1)
_cell_angle_alpha                90
_cell_angle_beta                 98.43(1)
_cell_angle_gamma                90
_cell_volume                     1596.57
loop_
_atom_site_label
_atom_site_type_symbol
_atom_site_fract_x
_atom_site_fract_y
_atom_site_fract_z
Cu1 Cu 0.35493(3) -0.40171(2) 0.55867(1)
Mn1 Mn 0.16542(4) -0.17328(3) 0.31372(1)
O1 O 0.2747(2) -0.1350(1) 0.41639(7)
O2 O 0.1377(2) -0.3570(2) 0.36741(7)
O3 O 0.4872(2) -0.3441(1) 0.64560(7)
O4 O 0.3538(2) -0.5672(1) 0.59848(7)
O5 O 0.5761(2) -0.2044(2) 0.72688(7)
O6 O 0.3139(2) -0.7740(2) 0.60777(8)
O7 O 0.4243(2) -0.2159(2) 0.29131(8)
O8 O -0.0895(2) -0.1064(2) 0.32154(9)
O10 O 0.1710(2) -0.0001(2) 0.24879(8)
N1 N 0.3609(2) -0.2360(2) 0.51850(8)
N2 N 0.2297(2) -0.4574(2) 0.47112(8)
C1 C 0.2889(3) -0.2307(2) 0.45566(9)
C2 C 0.2099(3) -0.3596(2) 0.42766(9)
C3 C 0.4409(3) -0.1200(2) 0.5518(1)
C4 C 0.4274(3) -0.1164(2) 0.6260(1)
C5 C 0.5042(3) -0.2294(2) 0.6679(1)
C6 C 0.1631(3) -0.5829(2) 0.4556(1)
C7 C 0.1935(3) -0.6834(2) 0.5036(1)
C8 C 0.2926(3) -0.6736(2) 0.5735(1)
C9 C 0.1288(3) -0.8074(2) 0.4859(1)
C10 C 0.0385(3) -0.8348(2) 0.4237(1)
C11 C 0.0050(3) -0.7367(2) 0.3773(1)
C12 C 0.0658(3) -0.6130(2) 0.3928(1)
H1 H 0.146(3) -0.871(2) 0.520(1)
H2 H 0.002(4) -0.911(3) 0.415(1)
H3 H -0.062(3) -0.753(2) 0.333(1)
H4 H 0.048(3) -0.551(3) 0.363(1)
H5 H 0.390(3) -0.048(2) 0.534(1)
H6 H 0.579(3) -0.114(2) 0.550(1)
H7 H 0.480(3) -0.034(2) 0.647(1)
H8 H 0.298(4) -0.110(3) 0.629(1)
H9 H 0.497(4) -0.221(3) 0.324(1)
H10 H 0.420(4) -0.272(3) 0.270(1)
H11 H -0.133(3) -0.066(2) 0.297(1)
H12 H -0.161(4) -0.146(3) 0.338(2)
H15 H 0.250(3) 0.038(3) 0.250(1)
H16 H 0.137(4) -0.026(3) 0.209(2)
O5C O 0.0761(2) -0.2956(2) 0.22688(7)
Mn1C Mn 0.66542(4) -0.32672(3) 0.81372(1)
O9 O 0.2513(3) -0.0669(2) 0.76767(9)
H13 H 0.225(3) -0.059(3) 0.800(1)
H14 H 0.338(4) -0.107(3) 0.773(2)
loop_
_geom_bond_atom_site_label_1
_geom_bond_atom_site_label_2
_geom_bond_site_symmetry_1
_geom_bond_site_symmetry_2
Cu1 O3 1_555 1_555
Mn1 O1 1_555 1_555
O1 C1 1_555 1_555
O2 Mn1 1_555 1_555
O3 C5 1_555 1_555
O4 Cu1 1_555 1_555
O5 C5 1_555 1_555
O6 C8 1_555 1_555
O7 Mn1 1_555 1_555
O8 Mn1 1_555 1_555
O9 H13 1_555 1_555
O10 Mn1 1_555 1_555
N1 Cu1 1_555 1_555
N2 Cu1 1_555 1_555
C1 N1 1_555 1_555
C2 O2 1_555 1_555
C3 N1 1_555 1_555
C4 C3 1_555 1_555
C5 C4 1_555 1_555
C6 N2 1_555 1_555
C7 C6 1_555 1_555
C8 O4 1_555 1_555
C9 C7 1_555 1_555
C10 C9 1_555 1_555
C11 C10 1_555 1_555
C12 C6 1_555 1_555
H1 C9 1_555 1_555
H2 C10 1_555 1_555
H3 C11 1_555 1_555
H4 C12 1_555 1_555
H5 C3 1_555 1_555
H6 C3 1_555 1_555
H7 C4 1_555 1_555
H8 C4 1_555 1_555
H9 O7 1_555 1_555
H10 O7 1_555 1_555
H11 O8 1_555 1_555
H12 O8 1_555 1_555
H14 O9 1_555 1_555
H15 O10 1_555 1_555
H16 O10 1_555 1_555
O5C Mn1 1_555 1_555
Mn1C O5 1_555 1_555
N2 C2 1_555 1_555
C1 C2 1_555 1_555
C7 C8 1_555 1_555
C11 C12 1_555 1_555

#END
