
#######################################################################
#
#                 Cambridge Crystallographic Data Centre
#                                CCDC 
#
#######################################################################
#
# If this CIF has been generated from an entry in the Cambridge 
# Structural Database, then it will include bibliographic, chemical, 
# crystal, experimental, refinement or atomic coordinate data resulting 
# from the CCDC's data processing and validation procedures.
#
#######################################################################

data_JATCEN
_symmetry_cell_setting           orthorhombic
_symmetry_space_group_name_H-M   'C c c a'
_symmetry_Int_Tables_number      68
_space_group_name_Hall           '-C 2b 2bc'
loop_
_symmetry_equiv_pos_site_id
_symmetry_equiv_pos_as_xyz
1 x,y,z
2 1/2+x,1/2+y,z
3 1/2-x,-y,z
4 -x,y,1/2-z
5 1/2+x,-y,1/2-z
6 -x,1/2-y,z
7 1/2-x,1/2+y,1/2-z
8 x,1/2-y,1/2-z
9 -x,-y,-z
10 1/2-x,1/2-y,-z
11 1/2+x,y,-z
12 x,-y,1/2+z
13 1/2-x,y,1/2+z
14 x,1/2+y,-z
15 1/2+x,1/2-y,1/2+z
16 -x,1/2+y,1/2+z
_cell_length_a                   12.0529(15)
_cell_length_b                   19.227(2)
_cell_length_c                   17.480(2)
_cell_angle_alpha                90
_cell_angle_beta                 90
_cell_angle_gamma                90
_cell_volume                     4050.83
loop_
_atom_site_label
_atom_site_type_symbol
_atom_site_fract_x
_atom_site_fract_y
_atom_site_fract_z
Co1 Co 0.0000 0.2500 0.07549(4)
N1 N 0.0902(3) 0.15441(16) 0.07992(16)
C1 C 0.1398(3) 0.13355(17) 0.14360(19)
H1 H 0.1317 0.1606 0.1873
C2 C 0.2028(3) 0.07375(17) 0.14845(19)
H2 H 0.2363 0.0616 0.1945
C3 C 0.2160(3) 0.03219(17) 0.08513(19)
C4 C 0.1908(8) 0.0625(4) 0.0156(5)
H3 H 0.2161 0.0430 -0.0299
C5 C 0.1269(8) 0.1225(5) 0.0149(5)
H4 H 0.1082 0.1420 -0.0321
N2 N 0.0000 0.2500 -0.0477(2)
C8 C 0.0889(4) 0.2690(3) -0.0880(2)
H7 H 0.1522 0.2825 -0.0615
C9 C 0.0921(3) 0.2695(2) -0.1664(2)
H8 H 0.1564 0.2831 -0.1917
C10 C 0.0000 0.2500 -0.2076(3)
O1 O -0.1603(4) 0.1854(3) 0.0665(2)
O2 O -0.0965(4) 0.2054(2) 0.1759(2)
O5 O -0.2354(4) 0.1374(3) 0.1656(3)
N3 N -0.1658(4) 0.1733(3) 0.1354(3)
Co1A Co 0.5000 -0.2500 0.07549(4)
Co1C Co 0.0000 0.2500 -0.57549(4)
Co1A_2 Co -0.5000 0.7500 0.07549(4)
N1B N 0.4098(3) -0.15441(16) 0.07992(16)
N1A N 0.5902(3) -0.34559(16) 0.07992(16)
N1E N -0.0902(3) 0.34559(16) 0.07992(16)
N1A_2 N -0.4098(3) 0.65441(16) 0.07992(16)
C1B C 0.3602(3) -0.13355(17) 0.14360(19)
C1E C -0.1398(3) 0.36645(17) 0.14360(19)
C1A C -0.3602(3) 0.63355(17) 0.14360(19)
H1B H 0.3683 -0.1606 0.1873
H1E H -0.1317 0.3394 0.1873
H1A H -0.3683 0.6606 0.1873
C2B C 0.2972(3) -0.07375(17) 0.14845(19)
C2E C -0.2028(3) 0.42625(17) 0.14845(19)
C2A C -0.2972(3) 0.57375(17) 0.14845(19)
H2B H 0.2637 -0.0616 0.1945
H2E H -0.2363 0.4384 0.1945
H2A H -0.2637 0.5616 0.1945
C3B C 0.2840(3) -0.03219(17) 0.08513(19)
C3E C -0.2160(3) 0.46781(17) 0.08513(19)
C3A C -0.2840(3) 0.53219(17) 0.08513(19)
C4B C 0.3092(8) -0.0625(4) 0.0156(5)
C4E C -0.1908(8) 0.4375(4) 0.0156(5)
C4A C -0.3092(8) 0.5625(4) 0.0156(5)
H3B H 0.2839 -0.0430 -0.0299
H3E H -0.2161 0.4570 -0.0299
H3A H -0.2839 0.5430 -0.0299
C5B C 0.3731(8) -0.1225(5) 0.0149(5)
C5E C -0.1269(8) 0.3775(5) 0.0149(5)
C5A C -0.3731(8) 0.6225(5) 0.0149(5)
H4B H 0.3918 -0.1420 -0.0321
H4E H -0.1082 0.3580 -0.0321
H4A H -0.3918 0.6420 -0.0321
N2A N 0.5000 -0.2500 -0.0477(2)
N2C N 0.0000 0.2500 -0.4523(2)
C8E C -0.0889(4) 0.2310(3) -0.0880(2)
C8C C -0.0889(4) 0.2690(3) -0.4120(2)
C8G C 0.0889(4) 0.2310(3) -0.4120(2)
H7E H -0.1522 0.2175 -0.0615
H7C H -0.1522 0.2825 -0.4385
H7G H 0.1522 0.2175 -0.4385
C9E C -0.0921(3) 0.2305(2) -0.1664(2)
C9C C -0.0921(3) 0.2695(2) -0.3336(2)
C9G C 0.0921(3) 0.2305(2) -0.3336(2)
H8E H -0.1564 0.2169 -0.1917
H8C H -0.1564 0.2831 -0.3083
H8G H 0.1564 0.2169 -0.3083
C10C C 0.0000 0.2500 -0.2924(3)
O1B O 0.6603(4) -0.1854(3) 0.0665(2)
O1A O 0.3397(4) -0.3146(3) 0.0665(2)
O1E O 0.1603(4) 0.3146(3) 0.0665(2)
O2B O 0.5965(4) -0.2054(2) 0.1759(2)
O2A O 0.4035(4) -0.2946(2) 0.1759(2)
O2E O 0.0965(4) 0.2946(2) 0.1759(2)
O5A O 0.2646(4) -0.3626(3) 0.1656(3)
O5B O 0.7354(4) -0.1374(3) 0.1656(3)
O5E O 0.2354(4) 0.3626(3) 0.1656(3)
N3B N 0.6658(4) -0.1733(3) 0.1354(3)
N3A N 0.3342(4) -0.3267(3) 0.1354(3)
N3E N 0.1658(4) 0.3267(3) 0.1354(3)
C11 C -0.463(6) 0.050(4) 0.200(3)
H9 H -0.5296 0.0474 0.1698
H10 H -0.4344 0.0968 0.1978
O6 O -0.385(3) 0.0042(18) 0.1719(16)
H12 H -0.3780 -0.0284 0.2018
C6? C 0.1435(6) 0.0457(3) 0.0213(4)
H5? H 0.1398 0.0147 -0.0195
C7? C 0.0799(6) 0.1053(3) 0.0215(4)
H6? H 0.0293 0.1128 -0.0178
O3? O -0.143(3) 0.1406(19) 0.0729(15)
O4? O -0.109(2) 0.2230(12) 0.118(2)
H11? H -0.4802 0.0387 0.2522
C12? C -0.478(11) 0.045(4) 0.237(4)
H13? H -0.4734 -0.0028 0.2511
H14? H -0.5514 0.0623 0.2465
H15? H -0.4259 0.0715 0.2679
O7? O -0.452(4) 0.053(3) 0.161(3)
H16? H -0.4105 0.0869 0.1551
loop_
_geom_bond_atom_site_label_1
_geom_bond_atom_site_label_2
_geom_bond_site_symmetry_1
_geom_bond_site_symmetry_2
Co1 N1 1_555 1_555
N1 C1 1_555 1_555
C1 H1 1_555 1_555
C2 C1 1_555 1_555
H2 C2 1_555 1_555
C3 C2 1_555 1_555
C4 C3 1_555 1_555
H3 C4 1_555 1_555
C5 N1 1_555 1_555
H4 C5 1_555 1_555
N2 Co1 1_555 1_555
C8 N2 1_555 1_555
H7 C8 1_555 1_555
C9 C8 1_555 1_555
H8 C9 1_555 1_555
C10 C9 1_555 1_555
O1 Co1 1_555 1_555
O2 Co1 1_555 1_555
O5 N3 1_555 1_555
N3 O1 1_555 1_555
C11 H9 1_555 1_555
H10 C11 1_555 1_555
O6 C11 1_555 1_555
H12 O6 1_555 1_555
Co1A N1B 1_555 1_555
Co1C N2C 1_555 1_555
Co1A_2 N1A_2 1_555 1_555
N1B C1B 1_555 1_555
N1A Co1A 1_555 1_555
N1E Co1 1_555 1_555
N1A_2 C1A 1_555 1_555
C1B H1B 1_555 1_555
C1E N1E 1_555 1_555
C1A H1A 1_555 1_555
H1E C1E 1_555 1_555
C2B C1B 1_555 1_555
C2E C1E 1_555 1_555
C2A C1A 1_555 1_555
H2B C2B 1_555 1_555
H2E C2E 1_555 1_555
H2A C2A 1_555 1_555
C3B C3 1_555 1_555
C3E C2E 1_555 1_555
C3A C2A 1_555 1_555
C4B C3B 1_555 1_555
C4E C3E 1_555 1_555
C4A C3A 1_555 1_555
H3B C4B 1_555 1_555
H3E C4E 1_555 1_555
H3A C4A 1_555 1_555
C5B N1B 1_555 1_555
C5E N1E 1_555 1_555
C5A N1A_2 1_555 1_555
H4B C5B 1_555 1_555
H4E C5E 1_555 1_555
H4A C5A 1_555 1_555
N2A Co1A 1_555 1_555
N2C C8C 1_555 1_555
C8E N2 1_555 1_555
C8C H7C 1_555 1_555
C8G N2C 1_555 1_555
H7E C8E 1_555 1_555
H7G C8G 1_555 1_555
C9E C10 1_555 1_555
C9C C8C 1_555 1_555
C9G C8G 1_555 1_555
H8E C9E 1_555 1_555
H8C C9C 1_555 1_555
H8G C9G 1_555 1_555
C10C C10 1_555 1_555
O1B Co1A 1_555 1_555
O1A Co1A 1_555 1_555
O1E Co1 1_555 1_555
O2B Co1A 1_555 1_555
O2A Co1A 1_555 1_555
O2E Co1 1_555 1_555
O5A N3A 1_555 1_555
O5B N3B 1_555 1_555
O5E N3E 1_555 1_555
N3B O1B 1_555 1_555
N3A O1A 1_555 1_555
N3E O1E 1_555 1_555
C4 C5 1_555 1_555
O2 N3 1_555 1_555
C2B C3B 1_555 1_555
C3E C3A 1_555 1_555
C4B C5B 1_555 1_555
C4E C5E 1_555 1_555
C4A C5A 1_555 1_555
C8E C9E 1_555 1_555
C9C C10C 1_555 1_555
C9G C10C 1_555 1_555
O2B N3B 1_555 1_555
O2A N3A 1_555 1_555
O2E N3E 1_555 1_555

#END
