
#######################################################################
#
#                 Cambridge Crystallographic Data Centre
#                                CCDC 
#
#######################################################################
#
# If this CIF has been generated from an entry in the Cambridge 
# Structural Database, then it will include bibliographic, chemical, 
# crystal, experimental, refinement or atomic coordinate data resulting 
# from the CCDC's data processing and validation procedures.
#
#######################################################################

data_JATROL
_symmetry_cell_setting           monoclinic
_symmetry_space_group_name_H-M   'P 21/c'
_symmetry_Int_Tables_number      14
_space_group_name_Hall           '-P 2ybc'
loop_
_symmetry_equiv_pos_site_id
_symmetry_equiv_pos_as_xyz
1 x,y,z
2 -x,1/2+y,1/2-z
3 -x,-y,-z
4 x,1/2-y,1/2+z
_cell_length_a                   7.940(3)
_cell_length_b                   31.468(6)
_cell_length_c                   7.229(4)
_cell_angle_alpha                90
_cell_angle_beta                 114.2(1)
_cell_angle_gamma                90
_cell_volume                     1647.48
loop_
_atom_site_label
_atom_site_type_symbol
_atom_site_fract_x
_atom_site_fract_y
_atom_site_fract_z
Cu1 Cu 0.7132(2) 0.7221(1) 0.1071(3)
Cl1 Cl 0.8733(5) 0.6626(1) 0.2448(6)
Cl2 Cl 0.9046(5) 0.7659(1) 0.3601(6)
N1 N 0.4881(15) 0.6898(3) -0.0771(18)
N2 N 0.2049(16) 0.6896(3) -0.3179(18)
N3 N 0.5473(15) 0.7710(3) -0.0287(17)
N4 N 0.2705(16) 0.7931(3) -0.2452(18)
C1 C 0.4324(19) 0.6487(5) -0.1253(23)
C2 C 0.2588(19) 0.6480(4) -0.2753(22)
C3 C 0.3490(19) 0.7135(4) -0.1948(21)
C4 C 0.3789(17) 0.7592(4) -0.1684(21)
C5 C 0.3760(19) 0.8290(5) -0.1521(24)
C6 C 0.5443(19) 0.8146(4) -0.0248(22)
Cl2C Cl 0.9046(5) 0.7341(1) -0.1399(6)
Cu1C Cu 0.7132(2) 0.7779(1) 0.6071(3)
Cu2 Cu 0.0000 0.5000 0.5000
N5 N 0.0439(16) 0.4516(4) 0.3385(18)
N6 N -0.0296(15) 0.4236(4) 0.0321(19)
N7 N -0.1876(15) 0.5159(3) 0.2271(18)
N8 N -0.3044(15) 0.5034(4) -0.1028(19)
C7 C 0.1489(19) 0.4155(4) 0.3603(24)
C8 C 0.1006(20) 0.3977(5) 0.1696(24)
C9 C -0.0597(19) 0.4557(4) 0.1419(22)
C10 C -0.1846(19) 0.4913(4) 0.0807(22)
C11 C -0.3922(19) 0.5393(5) -0.0777(23)
C12 C -0.3195(19) 0.5463(5) 0.1266(23)
N5B N -0.0439(16) 0.5484(4) 0.6615(18)
N6B N 0.0296(15) 0.5764(4) 0.9679(19)
N7B N 0.1876(15) 0.4841(3) 0.7729(18)
N8B N 0.3044(15) 0.4966(4) 1.1028(19)
C7B C -0.1489(19) 0.5845(4) 0.6397(24)
C8B C -0.1006(20) 0.6023(5) 0.8304(24)
C9B C 0.0597(19) 0.5443(4) 0.8581(22)
C10B C 0.1846(19) 0.5087(4) 0.9193(22)
C11B C 0.3922(19) 0.4607(5) 1.0777(23)
C12B C 0.3195(19) 0.4537(5) 0.8734(23)
Cl3 Cl 0.7320(6) 0.4435(1) -0.4248(6)
loop_
_geom_bond_atom_site_label_1
_geom_bond_atom_site_label_2
_geom_bond_site_symmetry_1
_geom_bond_site_symmetry_2
Cu1 Cl1 1_555 1_555
Cu2 N5 1_555 1_555
Cl2 Cu1 1_555 1_555
N1 Cu1 1_555 1_555
N2 C2 1_555 1_555
N3 Cu1 1_555 1_555
N4 C4 1_555 1_555
N5 C7 1_555 1_555
N6 C8 1_555 1_555
N7 Cu2 1_555 1_555
N8 C10 1_555 1_555
C1 N1 1_555 1_555
C2 C1 1_555 1_555
C3 N1 1_555 1_555
C4 N3 1_555 1_555
C5 N4 1_555 1_555
C6 N3 1_555 1_555
C7 C8 1_555 1_555
C9 N5 1_555 1_555
C10 N7 1_555 1_555
C11 N8 1_555 1_555
C12 N7 1_555 1_555
N5B Cu2 1_555 1_555
N6B C8B 1_555 1_555
N7B Cu2 1_555 1_555
N8B C10B 1_555 1_555
C7B N5B 1_555 1_555
C8B C7B 1_555 1_555
C9B N5B 1_555 1_555
C10B N7B 1_555 1_555
C11B N8B 1_555 1_555
C12B N7B 1_555 1_555
Cl2C Cu1 1_555 1_555
Cu1C Cl2 1_555 1_555
N2 C3 1_555 1_555
N6 C9 1_555 1_555
C3 C4 1_555 1_555
C5 C6 1_555 1_555
C9 C10 1_555 1_555
C11 C12 1_555 1_555
N6B C9B 1_555 1_555
C9B C10B 1_555 1_555
C11B C12B 1_555 1_555

#END
