
#######################################################################
#
#                 Cambridge Crystallographic Data Centre
#                                CCDC 
#
#######################################################################
#
# If this CIF has been generated from an entry in the Cambridge 
# Structural Database, then it will include bibliographic, chemical, 
# crystal, experimental, refinement or atomic coordinate data resulting 
# from the CCDC's data processing and validation procedures.
#
#######################################################################

data_JAVGAP
_symmetry_cell_setting           monoclinic
_symmetry_space_group_name_H-M   'P 21'
_symmetry_Int_Tables_number      4
_space_group_name_Hall           'P 2yb'
loop_
_symmetry_equiv_pos_site_id
_symmetry_equiv_pos_as_xyz
1 x,y,z
2 -x,1/2+y,-z
_cell_length_a                   7.7544(2)
_cell_length_b                   16.9830(4)
_cell_length_c                   9.0732(2)
_cell_angle_alpha                90
_cell_angle_beta                 97.9980(10)
_cell_angle_gamma                90
_cell_volume                     1183.25
loop_
_atom_site_label
_atom_site_type_symbol
_atom_site_fract_x
_atom_site_fract_y
_atom_site_fract_z
Cu1 Cu 0.00558(4) 0.36865(2) 0.37737(3)
Cu2 Cu 0.25592(4) 0.31087(2) 0.12546(4)
Cu3 Cu 0.23006(5) 0.19660(2) 0.40799(4)
O1 O 0.1026(2) 0.27766(11) 0.2743(2)
C1 C -0.0202(5) 0.2498(2) 0.7713(4)
H1 H -0.0589 0.2404 0.8621
N1 N 0.1078(4) 0.23495(15) 0.5675(3)
C2 C -0.0047(5) 0.5227(2) 0.0236(4)
H2 H -0.0406 0.5669 -0.0329
N2 N 0.3323(3) 0.20183(17) 0.1153(3)
N3 N 0.0288(3) 0.30669(16) 0.5588(2)
O2 O -0.2891(3) 0.35034(16) 0.3084(3)
N4 N 0.0194(3) 0.43071(15) 0.2000(3)
N5 N 0.3718(4) 0.05127(17) 0.5761(3)
H3 H 0.2810 0.0239 0.5440
C3 C -0.3904(4) 0.3191(2) 0.3832(4)
C4 C 0.4105(4) 0.1611(2) 0.0177(4)
H4 H 0.4313 0.1800 -0.0744
C5 C 0.4557(5) 0.0877(2) 0.0720(4)
H5 H 0.5114 0.0478 0.0264
C6 C 0.3999(5) 0.0861(2) 0.2105(4)
H6 H 0.4118 0.0436 0.2757
N6 N 0.1322(3) 0.41185(15) 0.1038(3)
N7 N 0.4146(3) 0.34391(17) -0.0212(3)
O3 O -0.0568(3) 0.46620(14) 0.4879(3)
N8 N 0.3262(4) 0.15511(15) 0.2361(3)
C7 C 0.0464(5) 0.5109(2) 0.5687(4)
O4 O -0.5508(3) 0.31837(17) 0.3609(3)
C8 C -0.0493(4) 0.3157(2) 0.6818(3)
H7 H -0.1132 0.3596 0.7030
O5 O 0.0034(4) 0.57203(18) 0.6254(3)
C9 C 0.1196(4) 0.4676(2) -0.0017(4)
H8 H 0.1847 0.4690 -0.0803
C10 C 0.0783(5) 0.2017(2) 0.6962(3)
H9 H 0.1197 0.1526 0.7295
N9 N 0.3901(3) 0.12862(16) 0.5504(3)
C11 C 0.6284(5) 0.0838(3) 0.6910(5)
H10 H 0.7384 0.0822 0.7468
C12 C -0.0624(4) 0.49690(19) 0.1512(4)
H11 H -0.1469 0.5221 0.1976
C13 C 0.5150(5) 0.0228(2) 0.6588(5)
H12 H 0.5336 -0.0292 0.6889
C14 C 0.5443(5) 0.1483(2) 0.6225(4)
H13 H 0.5898 0.1991 0.6265
N10 N 0.5789(3) 0.36460(19) 0.0211(3)
H14 H 0.6280 0.3668 0.1120
C15 C 0.5384(5) 0.3730(3) -0.2218(4)
H15 H 0.5548 0.3819 -0.3201
C16 C 0.3904(4) 0.3486(2) -0.1704(4)
H16 H 0.2866 0.3367 -0.2306
C17 C 0.6574(5) 0.3816(3) -0.0968(4)
H17 H 0.7731 0.3967 -0.0944
H20 H 0.022(5) 0.251(3) 0.224(5)
H21 H -0.341(7) 0.302(3) 0.475(6)
H22 H 0.173(8) 0.495(3) 0.570(6)
Cu2_2 Cu -0.74408(4) 0.31087(2) 0.12546(4)
O4_2 O 0.4492(3) 0.31837(17) 0.3609(3)
O6 O -0.1580(4) 0.1787(2) 0.1642(4)
H18 H -0.155(7) 0.160(3) 0.264(3)
H19 H -0.224(6) 0.179(4) 0.242(4)
loop_
_geom_bond_atom_site_label_1
_geom_bond_atom_site_label_2
_geom_bond_site_symmetry_1
_geom_bond_site_symmetry_2
Cu1 O1 1_555 1_555
Cu2 O1 1_555 1_555
Cu3 O1 1_555 1_555
O1 H20 1_555 1_555
C1 H1 1_555 1_555
N1 Cu3 1_555 1_555
C2 H2 1_555 1_555
N2 Cu2 1_555 1_555
N3 Cu1 1_555 1_555
O2 Cu1 1_555 1_555
N4 Cu1 1_555 1_555
N5 H3 1_555 1_555
C3 O2 1_555 1_555
C4 N2 1_555 1_555
H4 C4 1_555 1_555
C5 C4 1_555 1_555
H5 C5 1_555 1_555
C6 C5 1_555 1_555
H6 C6 1_555 1_555
N6 Cu2 1_555 1_555
N7 Cu2 1_555 1_555
O3 Cu1 1_555 1_555
N8 Cu3 1_555 1_555
C7 O3 1_555 1_555
O4 C3 1_555 1_555
C8 C1 1_555 1_555
H7 C8 1_555 1_555
O5 C7 1_555 1_555
C9 C2 1_555 1_555
H8 C9 1_555 1_555
C10 C1 1_555 1_555
H9 C10 1_555 1_555
N9 Cu3 1_555 1_555
C11 H10 1_555 1_555
C12 C2 1_555 1_555
H11 C12 1_555 1_555
C13 N5 1_555 1_555
H12 C13 1_555 1_555
C14 N9 1_555 1_555
H13 C14 1_555 1_555
N10 N7 1_555 1_555
H14 N10 1_555 1_555
C15 H15 1_555 1_555
C16 N7 1_555 1_555
H16 C16 1_555 1_555
C17 N10 1_555 1_555
H17 C17 1_555 1_555
O6 H18 1_555 1_555
H19 O6 1_555 1_555
H21 C3 1_555 1_555
H22 C7 1_555 1_555
Cu2_2 O4 1_555 1_555
O4_2 Cu2 1_555 1_555
N1 N3 1_555 1_555
N1 C10 1_555 1_555
N2 N8 1_555 1_555
N3 C8 1_555 1_555
N4 N6 1_555 1_555
N4 C12 1_555 1_555
N5 N9 1_555 1_555
C6 N8 1_555 1_555
N6 C9 1_555 1_555
C11 C13 1_555 1_555
C11 C14 1_555 1_555
C15 C16 1_555 1_555
C15 C17 1_555 1_555

#END
