
#######################################################################
#
#                 Cambridge Crystallographic Data Centre
#                                CCDC 
#
#######################################################################
#
# If this CIF has been generated from an entry in the Cambridge 
# Structural Database, then it will include bibliographic, chemical, 
# crystal, experimental, refinement or atomic coordinate data resulting 
# from the CCDC's data processing and validation procedures.
#
#######################################################################

data_JAVGET
_symmetry_cell_setting           triclinic
_symmetry_space_group_name_H-M   'P -1'
_symmetry_Int_Tables_number      2
_space_group_name_Hall           '-P 1'
loop_
_symmetry_equiv_pos_site_id
_symmetry_equiv_pos_as_xyz
1 x,y,z
2 -x,-y,-z
_cell_length_a                   10.3056(4)
_cell_length_b                   10.7908(4)
_cell_length_c                   11.2778(4)
_cell_angle_alpha                99.1881(9)
_cell_angle_beta                 114.4869(8)
_cell_angle_gamma                90.8244(9)
_cell_volume                     1122.17
loop_
_atom_site_label
_atom_site_type_symbol
_atom_site_fract_x
_atom_site_fract_y
_atom_site_fract_z
Cu1 Cu 0.82523(2) 0.343579(18) 0.34899(2)
Cu2 Cu 0.66519(2) 0.53513(2) 0.130350(19)
Cu3 Cu 0.78395(2) 0.642380(18) 0.459885(19)
O1 O 0.71849(13) 0.49425(11) 0.31130(11)
C1 C 0.62067(19) 0.61388(18) -0.12739(17)
C2 C 0.9641(2) 0.4319(2) 0.75456(19)
H1 H 0.9996 0.4161 0.8406
O2 O 0.57589(14) 0.55792(13) -0.05796(12)
N1 N 0.87558(16) 0.52837(13) 0.58110(14)
C3 C 0.6052(2) 0.9098(2) 0.2287(2)
H2 H 0.5738 0.9884 0.2127
O3 O 0.89965(15) 0.17990(12) 0.38433(14)
N2 N 0.88761(16) 0.40628(13) 0.53588(14)
O4 O 1.12169(15) 0.20556(12) 0.39873(13)
N3 N 0.70194(17) 0.75230(14) 0.33127(15)
N4 N 0.76697(18) 0.28883(15) 0.16031(16)
C4 C 0.7758(3) 0.8054(3) -0.1133(3)
H3 H 0.8708 0.8469 -0.0660
H4 H 0.7083 0.8609 -0.1017
H5 H 0.7542 0.7837 -0.2058
N5 N 0.73002(17) 0.37550(16) 0.07867(15)
N6 N 0.65052(17) 0.70874(15) 0.19826(15)
O5 O 0.54836(15) 0.60755(15) -0.24841(13)
O6 O 0.58730(16) 0.64062(16) 0.51553(16)
H6 H 0.590(3) 0.625(3) 0.576(3)
C5 C 0.4321(3) 0.8070(3) 0.5188(3)
H7 H 0.3399 0.8335 0.4680
H8 H 0.5054 0.8701 0.5312
H9 H 0.4380 0.7955 0.6035
C6 C 1.0088(2) -0.00215(16) 0.3383(2)
H10 H 1.0529 -0.0373 0.4184
H11 H 0.9101 -0.0381 0.2921
C7 C 0.9219(2) 0.54403(19) 0.71263(18)
H12 H 0.9252 0.6192 0.7676
C8 C 0.9420(2) 0.34886(18) 0.64087(19)
H13 H 0.9619 0.2649 0.6373
C9 C 0.5929(2) 0.8041(2) 0.1371(2)
H14 H 0.5506 0.7996 0.0458
C10 C 0.6741(2) 0.87317(17) 0.3492(2)
H15 H 0.6979 0.9245 0.4311
C11 C 0.7663(2) 0.6870(2) -0.0604(2)
H16 H 0.8364 0.6326 -0.0708
H17 H 0.7913 0.7098 0.0337
C12 C 1.0106(2) 0.13936(15) 0.37641(16)
C13 C 0.7684(3) 0.2002(3) -0.0308(2)
H18 H 0.7778 0.1424 -0.0968
C14 C 1.0857(3) -0.0406(2) 0.2512(2)
H19 H 1.0805 -0.1309 0.2308
H20 H 1.1842 -0.0073 0.2970
H21 H 1.0412 -0.0081 0.1705
C15 C 0.7883(3) 0.1826(2) 0.0927(2)
H22 H 0.8129 0.1083 0.1252
C16 C 0.7315(3) 0.3222(2) -0.0363(2)
H23 H 0.7108 0.3615 -0.1090
C17 C 0.4521(2) 0.6862(2) 0.4471(2)
H24 H 0.3768 0.6233 0.4337
H25 H 0.4429 0.6979 0.3605
H26 H 0.647(3) 0.475(3) 0.304(3)
Cu2A Cu 0.33481(2) 0.46487(2) -0.130350(19)
Cu3A Cu 1.21605(2) 0.357620(18) 0.540115(19)
O2A O 0.42411(14) 0.44208(13) 0.05796(12)
O4A O 0.87831(15) 0.79444(12) 0.60127(13)
loop_
_geom_bond_atom_site_label_1
_geom_bond_atom_site_label_2
_geom_bond_site_symmetry_1
_geom_bond_site_symmetry_2
Cu1 O1 1_555 1_555
Cu2 O1 1_555 1_555
Cu3 O1 1_555 1_555
O1 H26 1_555 1_555
C1 O2 1_555 1_555
C2 H1 1_555 1_555
O2 Cu2 1_555 1_555
N1 Cu3 1_555 1_555
C3 H2 1_555 1_555
O3 Cu1 1_555 1_555
N2 Cu1 1_555 1_555
O4 C12 1_555 1_555
N3 Cu3 1_555 1_555
N4 Cu1 1_555 1_555
C4 H3 1_555 1_555
H4 C4 1_555 1_555
H5 C4 1_555 1_555
N5 Cu2 1_555 1_555
N6 Cu2 1_555 1_555
O5 C1 1_555 1_555
O6 Cu3 1_555 1_555
H6 O6 1_555 1_555
C5 H7 1_555 1_555
H8 C5 1_555 1_555
H9 C5 1_555 1_555
C6 H10 1_555 1_555
H11 C6 1_555 1_555
C7 C2 1_555 1_555
H12 C7 1_555 1_555
C8 C2 1_555 1_555
H13 C8 1_555 1_555
C9 C3 1_555 1_555
H14 C9 1_555 1_555
C10 C3 1_555 1_555
H15 C10 1_555 1_555
C11 C1 1_555 1_555
H16 C11 1_555 1_555
H17 C11 1_555 1_555
C12 O3 1_555 1_555
C13 H18 1_555 1_555
C14 C6 1_555 1_555
H19 C14 1_555 1_555
H20 C14 1_555 1_555
H21 C14 1_555 1_555
C15 N4 1_555 1_555
H22 C15 1_555 1_555
C16 N5 1_555 1_555
H23 C16 1_555 1_555
C17 O6 1_555 1_555
H24 C17 1_555 1_555
H25 C17 1_555 1_555
Cu2A O2 1_555 1_555
Cu3A O4 1_555 1_555
O2A Cu2 1_555 1_555
O4A Cu3 1_555 1_555
N1 N2 1_555 1_555
N1 C7 1_555 1_555
N2 C8 1_555 1_555
N3 N6 1_555 1_555
N3 C10 1_555 1_555
N4 N5 1_555 1_555
C4 C11 1_555 1_555
N6 C9 1_555 1_555
C5 C17 1_555 1_555
C6 C12 1_555 1_555
C13 C15 1_555 1_555
C13 C16 1_555 1_555
Cu2A O2A 1_555 1_555

#END
