
#######################################################################
#
#                 Cambridge Crystallographic Data Centre
#                                CCDC 
#
#######################################################################
#
# If this CIF has been generated from an entry in the Cambridge 
# Structural Database, then it will include bibliographic, chemical, 
# crystal, experimental, refinement or atomic coordinate data resulting 
# from the CCDC's data processing and validation procedures.
#
#######################################################################

data_JAVJUM
_symmetry_cell_setting           monoclinic
_symmetry_space_group_name_H-M   'P 21/n'
_symmetry_Int_Tables_number      14
_space_group_name_Hall           '-P 2yn'
loop_
_symmetry_equiv_pos_site_id
_symmetry_equiv_pos_as_xyz
1 x,y,z
2 1/2-x,1/2+y,1/2-z
3 -x,-y,-z
4 1/2+x,1/2-y,1/2+z
_cell_length_a                   8.541(10)
_cell_length_b                   7.448(2)
_cell_length_c                   17.293(9)
_cell_angle_alpha                90
_cell_angle_beta                 99.81(6)
_cell_angle_gamma                90
_cell_volume                     1083.98
loop_
_atom_site_label
_atom_site_type_symbol
_atom_site_fract_x
_atom_site_fract_y
_atom_site_fract_z
Hg1 Hg 0.25018(7) 0.65371(8) 0.18316(3)
Br1 Br 0.46665(16) 0.4317(2) 0.14731(9)
S1 S 0.1414(4) 0.4639(4) 0.29112(19)
N1 N 0.1743(12) 0.7561(14) 0.0413(5)
N2 N -0.0161(12) 0.6152(13) 0.1358(6)
N3 N -0.1182(11) 0.5266(14) 0.1758(6)
N4 N -0.1567(12) 0.3532(16) 0.2784(6)
H1 H -0.2562 0.3460 0.2591
H2 H -0.1198 0.2998 0.3218
N5 N -0.2388(12) 0.6396(16) 0.0383(6)
H3 H -0.2972 0.5883 0.0677
H4 H -0.2801 0.6749 -0.0081
C1 C 0.2675(17) 0.8220(19) -0.0029(8)
H5 H 0.3757 0.8239 0.0171
C2 C 0.2175(17) 0.8894(17) -0.0784(8)
H6 H 0.2887 0.9402 -0.1073
C3 C 0.0547(18) 0.8774(18) -0.1078(7)
H7 H 0.0156 0.9175 -0.1584
C4 C -0.0469(17) 0.8065(16) -0.0626(7)
H8 H -0.1554 0.7984 -0.0813
C5 C 0.0179(15) 0.7475(17) 0.0122(7)
C6 C -0.0847(14) 0.6659(17) 0.0638(7)
C7 C -0.0601(14) 0.4480(18) 0.2407(8)
Hg1A Hg 0.24982(7) 0.15371(8) 0.31684(3)
S1A S 0.3586(4) 0.9639(4) 0.20888(19)
loop_
_geom_bond_atom_site_label_1
_geom_bond_atom_site_label_2
_geom_bond_site_symmetry_1
_geom_bond_site_symmetry_2
Hg1 Br1 1_555 1_555
S1 Hg1 1_555 1_555
N1 Hg1 1_555 1_555
N2 Hg1 1_555 1_555
N3 N2 1_555 1_555
N4 H1 1_555 1_555
H2 N4 1_555 1_555
N5 H3 1_555 1_555
H4 N5 1_555 1_555
C1 N1 1_555 1_555
H5 C1 1_555 1_555
C2 C1 1_555 1_555
H6 C2 1_555 1_555
C3 C2 1_555 1_555
H7 C3 1_555 1_555
C4 C3 1_555 1_555
H8 C4 1_555 1_555
C5 N1 1_555 1_555
C6 N2 1_555 1_555
C7 S1 1_555 1_555
Hg1A S1 1_555 1_555
S1A Hg1 1_555 1_555
N3 C7 1_555 1_555
N4 C7 1_555 1_555
N5 C6 1_555 1_555
C4 C5 1_555 1_555
C5 C6 1_555 1_555

#END
