
#######################################################################
#
#                 Cambridge Crystallographic Data Centre
#                                CCDC 
#
#######################################################################
#
# If this CIF has been generated from an entry in the Cambridge 
# Structural Database, then it will include bibliographic, chemical, 
# crystal, experimental, refinement or atomic coordinate data resulting 
# from the CCDC's data processing and validation procedures.
#
#######################################################################

data_JAVNAV
_symmetry_cell_setting           tetragonal
_symmetry_space_group_name_H-M   'P 43 21 2'
_symmetry_Int_Tables_number      96
_space_group_name_Hall           'P 4nw 2abw'
loop_
_symmetry_equiv_pos_site_id
_symmetry_equiv_pos_as_xyz
1 x,y,z
2 -x,-y,1/2+z
3 1/2-y,1/2+x,3/4+z
4 1/2+y,1/2-x,1/4+z
5 1/2-x,1/2+y,3/4-z
6 1/2+x,1/2-y,1/4-z
7 y,x,-z
8 -y,-x,1/2-z
_cell_length_a                   14.9890(8)
_cell_length_b                   14.9890(8)
_cell_length_c                   27.913(2)
_cell_angle_alpha                90
_cell_angle_beta                 90
_cell_angle_gamma                90
_cell_volume                     6271.22
loop_
_atom_site_label
_atom_site_type_symbol
_atom_site_fract_x
_atom_site_fract_y
_atom_site_fract_z
Ni1 Ni 0.03044(3) 0.59454(4) 0.10800(2)
N1 N -0.0213(2) 0.7025(2) 0.07018(12)
C1 C -0.0035(3) 0.7141(3) 0.0233(2)
H1 H 0.0405(3) 0.6790(3) 0.0092(2)
C2 C -0.0471(3) 0.7751(3) -0.0048(2)
H2 H -0.0322(3) 0.7811(3) -0.0370(2)
C3 C -0.1134(3) 0.8280(3) 0.01492(15)
C4 C -0.1283(3) 0.8195(3) 0.0642(2)
H3 H -0.1697(3) 0.8559(3) 0.0795(2)
C5 C -0.0814(3) 0.7570(3) 0.08980(15)
H4 H -0.0920(3) 0.7524(3) 0.12253(15)
N2 N 0.0802(2) 0.6807(2) 0.16083(12)
C6 C 0.0750(3) 0.6599(3) 0.20748(15)
H5 H 0.0404(3) 0.6111(3) 0.21627(15)
C7 C 0.1177(3) 0.7064(3) 0.24286(15)
H6 H 0.1118(3) 0.6886(3) 0.27461(15)
C8 C 0.1701(2) 0.7803(3) 0.23160(14)
C9 C 0.1725(3) 0.8030(3) 0.18288(15)
H7 H 0.2046(3) 0.8528(3) 0.17306(15)
C10 C 0.1285(3) 0.7529(3) 0.14981(15)
H8 H 0.1322(3) 0.7697(3) 0.11781(15)
O1 O -0.0871(2) 0.5777(2) 0.14426(11)
O2 O -0.1646(3) 0.4926(3) 0.09393(13)
C11 C -0.2365(3) 0.5421(3) 0.1635(2)
C12 C -0.2373(4) 0.5969(4) 0.2009(2)
H9 H -0.1867(4) 0.6301(4) 0.2082(2)
C13 C -0.3137(5) 0.6054(5) 0.2297(3)
H10 H -0.3147(5) 0.6460(5) 0.2548(3)
C14 C -0.3856(4) 0.5539(4) 0.2205(3)
H11 H -0.4351(4) 0.5569(4) 0.2405(3)
C15 C -0.3864(4) 0.4980(5) 0.1824(3)
H12 H -0.4368(4) 0.4639(5) 0.1758(3)
C16 C -0.3115(4) 0.4919(5) 0.1533(2)
H13 H -0.3117(4) 0.4539(5) 0.1270(2)
C17 C -0.1564(3) 0.5362(4) 0.1315(2)
O3 O 0.1456(2) 0.6079(2) 0.07057(10)
O4 O 0.2407(2) 0.5299(2) 0.11594(12)
C18 C 0.2967(3) 0.6122(3) 0.0494(2)
C19 C 0.2802(3) 0.6643(3) 0.0095(2)
H14 H 0.2219(3) 0.6814(3) 0.0028(2)
C20 C 0.3477(4) 0.6914(4) -0.0203(2)
H15 H 0.3352(4) 0.7267(4) -0.0469(2)
C21 C 0.4344(4) 0.6658(4) -0.0106(2)
H16 H 0.4805(4) 0.6824(4) -0.0310(2)
C22 C 0.4518(3) 0.6154(4) 0.0296(2)
H17 H 0.5103(3) 0.5991(4) 0.0366(2)
C23 C 0.3840(3) 0.5889(3) 0.0594(2)
H18 H 0.3968(3) 0.5551(3) 0.0865(2)
C24 C 0.2214(3) 0.5801(3) 0.08101(15)
O5 O -0.0161(2) 0.5118(2) 0.05263(12)
C25 C 0.0285(5) 0.4365(4) 0.0337(2)
H19 H -0.0070(5) 0.4105(4) 0.0088(2)
H20 H 0.0378(5) 0.3935(4) 0.0587(2)
H21 H 0.0852(5) 0.4546(4) 0.0209(2)
O6 O 0.0840(2) 0.4894(2) 0.14702(13)
C26 C 0.0508(4) 0.4060(4) 0.1599(2)
H22 H 0.0949(4) 0.3746(4) 0.1783(2)
H23 H 0.0370(4) 0.3725(4) 0.1315(2)
H24 H -0.0022(4) 0.4133(4) 0.1788(2)
H30 H 0.1380(38) 0.4864(37) 0.1407(20)
H31 H -0.0571(49) 0.4997(57) 0.0652(27)
C3F C -0.1720(3) 0.8866(3) -0.01492(15)
C2F C -0.2249(3) 0.9529(3) 0.0048(2)
C1F C -0.2859(3) 0.9965(3) -0.0233(2)
N1F N -0.2975(2) 0.9787(2) -0.07018(12)
Ni1F Ni -0.40546(4) 1.03044(3) -0.10800(2)
C5F C -0.2430(3) 0.9186(3) -0.08980(15)
C4F C -0.1805(3) 0.8717(3) -0.0642(2)
H3F H -0.1441(3) 0.8303(3) -0.0795(2)
H4F H -0.2476(3) 0.9080(3) -0.12253(15)
H1F H -0.3210(3) 1.0405(3) -0.0092(2)
H2F H -0.2189(3) 0.9678(3) 0.0370(2)
C8G C 0.2197(3) 0.8299(2) 0.26840(14)
C7G C 0.2936(3) 0.8823(3) 0.25714(15)
C6G C 0.3401(3) 0.9250(3) 0.29252(15)
N2G N 0.3193(2) 0.9198(2) 0.33917(12)
Ni1G Ni 0.40546(4) 0.96956(3) 0.39200(2)
N1G N 0.2975(2) 1.0213(2) 0.42982(12)
O1G O 0.4223(2) 1.0871(2) 0.35574(11)
C17G C 0.4638(4) 1.1564(3) 0.3685(2)
O2G O 0.5074(3) 1.1646(3) 0.40607(13)
C11G C 0.4579(3) 1.2365(3) 0.3365(2)
C12G C 0.4031(4) 1.2373(4) 0.2991(2)
H9G H 0.3699(4) 1.1867(4) 0.2918(2)
C13G C 0.3946(5) 1.3137(5) 0.2703(3)
H10G H 0.3540(5) 1.3147(5) 0.2452(3)
C14G C 0.4461(4) 1.3856(4) 0.2795(3)
H11G H 0.4431(4) 1.4351(4) 0.2595(3)
C15G C 0.5020(5) 1.3864(4) 0.3176(3)
H12G H 0.5361(5) 1.4368(4) 0.3242(3)
C16G C 0.5081(5) 1.3115(4) 0.3467(2)
H13G H 0.5461(5) 1.3117(4) 0.3730(2)
O3G O 0.3921(2) 0.8544(2) 0.42943(10)
C24G C 0.4199(3) 0.7786(3) 0.41899(15)
O4G O 0.4701(2) 0.7593(2) 0.38406(12)
C18G C 0.3878(3) 0.7033(3) 0.4506(2)
C19G C 0.3357(3) 0.7198(3) 0.4905(2)
H14G H 0.3186(3) 0.7781(3) 0.4972(2)
C20G C 0.3086(4) 0.6523(4) 0.5203(2)
H15G H 0.2733(4) 0.6648(4) 0.5469(2)
C21G C 0.3342(4) 0.5656(4) 0.5106(2)
H16G H 0.3176(4) 0.5195(4) 0.5310(2)
C22G C 0.3846(4) 0.5482(3) 0.4704(2)
H17G H 0.4009(4) 0.4897(3) 0.4634(2)
C23G C 0.4111(3) 0.6160(3) 0.4406(2)
H18G H 0.4449(3) 0.6032(3) 0.4135(2)
O5G O 0.4882(2) 1.0161(2) 0.44737(12)
C25G C 0.5635(4) 0.9715(5) 0.4663(2)
H19G H 0.5895(4) 1.0070(5) 0.4912(2)
H20G H 0.6065(4) 0.9622(5) 0.4413(2)
H21G H 0.5454(4) 0.9148(5) 0.4791(2)
H31G H 0.5003(57) 1.0571(49) 0.4348(27)
O6G O 0.5106(2) 0.9160(2) 0.35298(13)
C26G C 0.5940(4) 0.9492(4) 0.3401(2)
H22G H 0.6254(4) 0.9051(4) 0.3217(2)
H23G H 0.6275(4) 0.9630(4) 0.3685(2)
H24G H 0.5867(4) 1.0022(4) 0.3212(2)
H30G H 0.5136(37) 0.8620(38) 0.3593(20)
C10G C 0.2471(3) 0.8715(3) 0.35019(15)
C9G C 0.1970(3) 0.8275(3) 0.31712(15)
H7G H 0.1472(3) 0.7954(3) 0.32694(15)
H8G H 0.2303(3) 0.8678(3) 0.38219(15)
H5G H 0.3889(3) 0.9596(3) 0.28373(15)
H6G H 0.3114(3) 0.8882(3) 0.22539(15)
N3 N 0.3316(4) 0.3688(4) 0.1487(3)
O7 O 0.3911(4) 0.4227(4) 0.1633(3)
O8 O 0.2630(3) 0.3548(4) 0.1716(2)
C27 C 0.3488(6) 0.3224(5) 0.1069(3)
C28 C 0.2876(11) 0.2582(7) 0.0953(4)
H25 H 0.2372(11) 0.2476(7) 0.1139(4)
C29 C 0.3062(16) 0.2078(9) 0.0521(6)
H26 H 0.2702(16) 0.1597(9) 0.0437(6)
C30 C 0.3780(18) 0.2316(9) 0.0233(7)
H27 H 0.3867(18) 0.2035(9) -0.0060(7)
C31 C 0.4376(11) 0.2983(11) 0.0386(5)
H28 H 0.4873(11) 0.3112(11) 0.0199(5)
C32 C 0.4244(7) 0.3455(7) 0.0808(4)
H29 H 0.4636(7) 0.3897(7) 0.0910(4)
loop_
_geom_bond_atom_site_label_1
_geom_bond_atom_site_label_2
_geom_bond_site_symmetry_1
_geom_bond_site_symmetry_2
Ni1 N1 1_555 1_555
N1 C1 1_555 1_555
C1 H1 1_555 1_555
C2 C1 1_555 1_555
H2 C2 1_555 1_555
C3 C2 1_555 1_555
C4 C3 1_555 1_555
H3 C4 1_555 1_555
C5 N1 1_555 1_555
H4 C5 1_555 1_555
N2 Ni1 1_555 1_555
C6 N2 1_555 1_555
H5 C6 1_555 1_555
C7 C6 1_555 1_555
H6 C7 1_555 1_555
C8 C7 1_555 1_555
C9 C8 1_555 1_555
H7 C9 1_555 1_555
C10 N2 1_555 1_555
H8 C10 1_555 1_555
O1 Ni1 1_555 1_555
O2 C17 1_555 1_555
C11 C12 1_555 1_555
C12 H9 1_555 1_555
C13 C12 1_555 1_555
H10 C13 1_555 1_555
C14 C13 1_555 1_555
H11 C14 1_555 1_555
C15 C14 1_555 1_555
H12 C15 1_555 1_555
C16 C11 1_555 1_555
H13 C16 1_555 1_555
C17 O1 1_555 1_555
O3 Ni1 1_555 1_555
O4 C24 1_555 1_555
C18 C19 1_555 1_555
C19 H14 1_555 1_555
C20 C19 1_555 1_555
H15 C20 1_555 1_555
C21 C20 1_555 1_555
H16 C21 1_555 1_555
C22 C21 1_555 1_555
H17 C22 1_555 1_555
C23 C18 1_555 1_555
H18 C23 1_555 1_555
C24 O3 1_555 1_555
O5 Ni1 1_555 1_555
C25 O5 1_555 1_555
H19 C25 1_555 1_555
H20 C25 1_555 1_555
H21 C25 1_555 1_555
O6 Ni1 1_555 1_555
C26 O6 1_555 1_555
H22 C26 1_555 1_555
H23 C26 1_555 1_555
H24 C26 1_555 1_555
N3 O7 1_555 1_555
O8 N3 1_555 1_555
C27 N3 1_555 1_555
C28 C27 1_555 1_555
H25 C28 1_555 1_555
C29 C28 1_555 1_555
H26 C29 1_555 1_555
C30 C29 1_555 1_555
H27 C30 1_555 1_555
C31 C30 1_555 1_555
H28 C31 1_555 1_555
C32 C27 1_555 1_555
H29 C32 1_555 1_555
H30 O6 1_555 1_555
H31 O5 1_555 1_555
C3F C3 1_555 1_555
C2F C3F 1_555 1_555
C1F C2F 1_555 1_555
N1F C1F 1_555 1_555
Ni1F N1F 1_555 1_555
C5F N1F 1_555 1_555
C4F C3F 1_555 1_555
H3F C4F 1_555 1_555
H4F C5F 1_555 1_555
H1F C1F 1_555 1_555
H2F C2F 1_555 1_555
C8G C8 1_555 1_555
C7G C8G 1_555 1_555
C6G C7G 1_555 1_555
N2G C6G 1_555 1_555
Ni1G N2G 1_555 1_555
N1G Ni1G 1_555 1_555
O1G Ni1G 1_555 1_555
C17G O1G 1_555 1_555
O2G C17G 1_555 1_555
C11G C17G 1_555 1_555
C12G C11G 1_555 1_555
H9G C12G 1_555 1_555
C13G C12G 1_555 1_555
H10G C13G 1_555 1_555
C14G C13G 1_555 1_555
H11G C14G 1_555 1_555
C15G C14G 1_555 1_555
H12G C15G 1_555 1_555
C16G C11G 1_555 1_555
H13G C16G 1_555 1_555
O3G Ni1G 1_555 1_555
C24G O3G 1_555 1_555
O4G C24G 1_555 1_555
C18G C24G 1_555 1_555
C19G C18G 1_555 1_555
H14G C19G 1_555 1_555
C20G C19G 1_555 1_555
H15G C20G 1_555 1_555
C21G C20G 1_555 1_555
H16G C21G 1_555 1_555
C22G C21G 1_555 1_555
H17G C22G 1_555 1_555
C23G C18G 1_555 1_555
H18G C23G 1_555 1_555
O5G Ni1G 1_555 1_555
C25G O5G 1_555 1_555
H19G C25G 1_555 1_555
H20G C25G 1_555 1_555
H21G C25G 1_555 1_555
H31G O5G 1_555 1_555
O6G Ni1G 1_555 1_555
C26G O6G 1_555 1_555
H22G C26G 1_555 1_555
H23G C26G 1_555 1_555
H24G C26G 1_555 1_555
H30G O6G 1_555 1_555
C10G N2G 1_555 1_555
C9G C8G 1_555 1_555
H7G C9G 1_555 1_555
H8G C10G 1_555 1_555
H5G C6G 1_555 1_555
H6G C7G 1_555 1_555
C4 C5 1_555 1_555
C9 C10 1_555 1_555
C11 C17 1_555 1_555
C15 C16 1_555 1_555
C18 C24 1_555 1_555
C22 C23 1_555 1_555
C31 C32 1_555 1_555
C5F C4F 1_555 1_555
C15G C16G 1_555 1_555
C22G C23G 1_555 1_555
C10G C9G 1_555 1_555

#END
