
#######################################################################
#
#                 Cambridge Crystallographic Data Centre
#                                CCDC 
#
#######################################################################
#
# If this CIF has been generated from an entry in the Cambridge 
# Structural Database, then it will include bibliographic, chemical, 
# crystal, experimental, refinement or atomic coordinate data resulting 
# from the CCDC's data processing and validation procedures.
#
#######################################################################

data_JAVPEB
_symmetry_cell_setting           tetragonal
_symmetry_space_group_name_H-M   'P 43 21 2'
_symmetry_Int_Tables_number      96
_space_group_name_Hall           'P 4nw 2abw'
loop_
_symmetry_equiv_pos_site_id
_symmetry_equiv_pos_as_xyz
1 x,y,z
2 -x,-y,1/2+z
3 1/2-y,1/2+x,3/4+z
4 1/2+y,1/2-x,1/4+z
5 1/2-x,1/2+y,3/4-z
6 1/2+x,1/2-y,1/4-z
7 y,x,-z
8 -y,-x,1/2-z
_cell_length_a                   14.9608(9)
_cell_length_b                   14.9608(9)
_cell_length_c                   27.180(2)
_cell_angle_alpha                90
_cell_angle_beta                 90
_cell_angle_gamma                90
_cell_volume                     6083.58
loop_
_atom_site_label
_atom_site_type_symbol
_atom_site_fract_x
_atom_site_fract_y
_atom_site_fract_z
Ni1 Ni 0.96362(5) 0.41069(5) 0.10454(2)
N1 N 1.0155(3) 0.3000(3) 0.0665(2)
C1 C 0.9992(4) 0.2859(4) 0.0188(2)
H1 H 0.9562(4) 0.3204(4) 0.0030(2)
C2 C 1.0443(4) 0.2214(4) -0.0077(2)
H2 H 1.0314(4) 0.2135(4) -0.0409(2)
C3 C 1.1086(3) 0.1683(3) 0.0145(2)
C4 C 1.1208(4) 0.1805(4) 0.0650(2)
H3 H 1.1608(4) 0.1447(4) 0.0822(2)
C5 C 1.0734(4) 0.2452(4) 0.0889(2)
H4 H 1.0819(4) 0.2517(4) 0.1226(2)
N2 N 0.9140(3) 0.3251(3) 0.1586(2)
C6 C 0.8648(4) 0.2532(4) 0.1469(2)
H5 H 0.8602(4) 0.2370(4) 0.1139(2)
C7 C 0.8208(4) 0.2024(4) 0.1814(2)
H6 H 0.7879(4) 0.1528(4) 0.1716(2)
C8 C 0.8255(3) 0.2248(3) 0.2306(2)
C9 C 0.8782(4) 0.2976(4) 0.2428(2)
H7 H 0.8847(4) 0.3144(4) 0.2756(2)
C10 C 0.9211(4) 0.3451(3) 0.2064(2)
H8 H 0.9567(4) 0.3934(3) 0.2154(2)
O1 O 1.0806(2) 0.4247(3) 0.14232(15)
O2 O 1.1559(3) 0.5169(4) 0.0938(2)
C11 C 1.2296(4) 0.4618(5) 0.1633(2)
C12 C 1.3009(5) 0.5174(6) 0.1563(3)
H9 H 1.3001(5) 0.5595(6) 0.1311(3)
C13 C 1.3748(6) 0.5103(8) 0.1873(4)
H10 H 1.4218(6) 0.5506(8) 0.1841(4)
C14 C 1.3789(6) 0.4464(6) 0.2213(5)
H11 H 1.4296(6) 0.4415(6) 0.2409(5)
C15 C 1.3096(6) 0.3878(6) 0.2278(4)
H12 H 1.3132(6) 0.3429(6) 0.2514(4)
C16 C 1.2334(5) 0.3963(5) 0.1985(3)
H13 H 1.1854(5) 0.3576(5) 0.2029(3)
C17 C 1.1488(4) 0.4687(4) 0.1305(2)
O3 O 0.8488(2) 0.3977(3) 0.06587(14)
O4 O 0.7529(3) 0.4786(3) 0.1109(2)
C18 C 0.6962(4) 0.3920(4) 0.0446(2)
C19 C 0.6094(4) 0.4141(5) 0.0552(3)
H14 H 0.5965(4) 0.4511(5) 0.0817(3)
C20 C 0.5409(5) 0.3810(6) 0.0260(3)
H15 H 0.4818(5) 0.3935(6) 0.0341(3)
C21 C 0.5597(5) 0.3305(6) -0.0142(3)
H16 H 0.5133(5) 0.3105(6) -0.0342(3)
C22 C 0.6458(5) 0.3087(5) -0.0257(3)
H17 H 0.6580(5) 0.2739(5) -0.0532(3)
C23 C 0.7156(5) 0.3388(4) 0.0042(2)
H18 H 0.7744(5) 0.3235(4) -0.0030(2)
C24 C 0.7709(4) 0.4265(4) 0.0759(2)
O5 O 1.0102(3) 0.4929(3) 0.0484(2)
C25 C 0.9631(6) 0.5631(5) 0.0242(3)
H19 H 1.0009(6) 0.5898(5) -0.0002(3)
H20 H 0.9459(6) 0.6076(5) 0.0479(3)
H21 H 0.9106(6) 0.5393(5) 0.0087(3)
O6 O 0.9095(3) 0.5162(3) 0.1458(2)
C26 C 0.9403(5) 0.6047(5) 0.1503(3)
H22 H 0.9014(5) 0.6374(5) 0.1718(3)
H23 H 0.9409(5) 0.6326(5) 0.1185(3)
H24 H 0.9997(5) 0.6045(5) 0.1636(3)
H26 H 0.8482(67) 0.5202(75) 0.1406(38)
H27 H 1.0579(55) 0.5158(57) 0.0575(29)
C3F C 1.1683(3) 0.1086(3) -0.0145(2)
C2F C 1.2214(4) 0.0443(4) 0.0077(2)
C1F C 1.2859(4) -0.0008(4) -0.0188(2)
N1F N 1.3000(3) 0.0155(3) -0.0665(2)
Ni1F Ni 1.41069(5) -0.03638(5) -0.10454(2)
C5F C 1.2452(4) 0.0734(4) -0.0889(2)
C4F C 1.1805(4) 0.1208(4) -0.0650(2)
H3F H 1.1447(4) 0.1608(4) -0.0822(2)
H4F H 1.2517(4) 0.0819(4) -0.1226(2)
H1F H 1.3204(4) -0.0438(4) -0.0030(2)
H2F H 1.2135(4) 0.0314(4) 0.0409(2)
C8G C 0.7752(3) 0.1745(3) 0.2694(2)
C7G C 0.7976(4) 0.1792(4) 0.3186(2)
C6G C 0.7468(4) 0.1352(4) 0.3531(2)
N2G N 0.6749(3) 0.0860(3) 0.3414(2)
Ni1G Ni 0.58931(5) 0.03638(5) 0.39546(2)
N1G N 0.7000(3) -0.0155(3) 0.4335(2)
O1G O 0.5753(3) -0.0806(2) 0.35768(15)
C17G C 0.5313(4) -0.1488(4) 0.3695(2)
O2G O 0.4831(4) -0.1559(3) 0.4062(2)
C11G C 0.5382(5) -0.2296(4) 0.3367(2)
C12G C 0.4826(6) -0.3009(5) 0.3437(3)
H9G H 0.4405(6) -0.3001(5) 0.3689(3)
C13G C 0.4897(8) -0.3748(6) 0.3127(4)
H10G H 0.4494(8) -0.4218(6) 0.3159(4)
C14G C 0.5536(6) -0.3789(6) 0.2787(5)
H11G H 0.5585(6) -0.4296(6) 0.2591(5)
C15G C 0.6122(6) -0.3096(6) 0.2722(4)
H12G H 0.6571(6) -0.3132(6) 0.2486(4)
C16G C 0.6037(5) -0.2334(5) 0.3015(3)
H13G H 0.6424(5) -0.1854(5) 0.2971(3)
O3G O 0.6023(3) 0.1512(2) 0.43413(14)
C24G C 0.5735(4) 0.2291(4) 0.4241(2)
O4G O 0.5214(3) 0.2471(3) 0.3891(2)
C18G C 0.6080(4) 0.3038(4) 0.4554(2)
C19G C 0.5859(5) 0.3906(4) 0.4448(3)
H14G H 0.5489(5) 0.4035(4) 0.4183(3)
C20G C 0.6190(6) 0.4591(5) 0.4740(3)
H15G H 0.6065(6) 0.5182(5) 0.4659(3)
C21G C 0.6695(6) 0.4403(5) 0.5142(3)
H16G H 0.6895(6) 0.4867(5) 0.5342(3)
C22G C 0.6913(5) 0.3542(5) 0.5257(3)
H17G H 0.7261(5) 0.3420(5) 0.5532(3)
C23G C 0.6612(4) 0.2844(5) 0.4958(2)
H18G H 0.6765(4) 0.2256(5) 0.5030(2)
O5G O 0.5071(3) -0.0102(3) 0.4516(2)
C25G C 0.4369(5) 0.0369(6) 0.4758(3)
H19G H 0.4102(5) -0.0009(6) 0.5002(3)
H20G H 0.3924(5) 0.0541(6) 0.4521(3)
H21G H 0.4607(5) 0.0894(6) 0.4913(3)
H27G H 0.4842(57) -0.0579(55) 0.4425(29)
O6G O 0.4838(3) 0.0905(3) 0.3542(2)
C26G C 0.3953(5) 0.0597(5) 0.3497(3)
H22G H 0.3626(5) 0.0986(5) 0.3282(3)
H23G H 0.3674(5) 0.0591(5) 0.3815(3)
H24G H 0.3955(5) 0.0003(5) 0.3364(3)
H26G H 0.4798(75) 0.1518(67) 0.3594(38)
C10G C 0.6549(3) 0.0789(4) 0.2936(2)
C9G C 0.7024(4) 0.1218(4) 0.2572(2)
H7G H 0.6856(4) 0.1153(4) 0.2244(2)
H8G H 0.6066(3) 0.0433(4) 0.2846(2)
H5G H 0.7630(4) 0.1398(4) 0.3861(2)
H6G H 0.8472(4) 0.2121(4) 0.3284(2)
C27 C 1.1430(9) 0.8374(8) 0.1610(5)
H25 H 1.1718(9) 0.8949(8) 0.1678(5)
Cl1 Cl 1.0528(3) 0.8229(4) 0.1975(2)
Cl2 Cl 1.1160(6) 0.8292(6) 0.1022(2)
Cl3 Cl 1.2147(5) 0.7521(5) 0.1707(4)
loop_
_geom_bond_atom_site_label_1
_geom_bond_atom_site_label_2
_geom_bond_site_symmetry_1
_geom_bond_site_symmetry_2
Ni1 N1 1_555 1_555
N1 C1 1_555 1_555
C1 H1 1_555 1_555
C2 C1 1_555 1_555
H2 C2 1_555 1_555
C3 C2 1_555 1_555
C4 C3 1_555 1_555
H3 C4 1_555 1_555
C5 N1 1_555 1_555
H4 C5 1_555 1_555
N2 Ni1 1_555 1_555
C6 N2 1_555 1_555
H5 C6 1_555 1_555
C7 C6 1_555 1_555
H6 C7 1_555 1_555
C8 C7 1_555 1_555
C9 C8 1_555 1_555
H7 C9 1_555 1_555
C10 N2 1_555 1_555
H8 C10 1_555 1_555
O1 Ni1 1_555 1_555
O2 C17 1_555 1_555
C11 C12 1_555 1_555
C12 H9 1_555 1_555
C13 C12 1_555 1_555
H10 C13 1_555 1_555
C14 C13 1_555 1_555
H11 C14 1_555 1_555
C15 C14 1_555 1_555
H12 C15 1_555 1_555
C16 C11 1_555 1_555
H13 C16 1_555 1_555
C17 O1 1_555 1_555
O3 Ni1 1_555 1_555
O4 C24 1_555 1_555
C18 C19 1_555 1_555
C19 H14 1_555 1_555
C20 C19 1_555 1_555
H15 C20 1_555 1_555
C21 C20 1_555 1_555
H16 C21 1_555 1_555
C22 C21 1_555 1_555
H17 C22 1_555 1_555
C23 C18 1_555 1_555
H18 C23 1_555 1_555
C24 O3 1_555 1_555
O5 Ni1 1_555 1_555
C25 O5 1_555 1_555
H19 C25 1_555 1_555
H20 C25 1_555 1_555
H21 C25 1_555 1_555
O6 Ni1 1_555 1_555
C26 O6 1_555 1_555
H22 C26 1_555 1_555
H23 C26 1_555 1_555
H24 C26 1_555 1_555
C27 H25 1_555 1_555
Cl1 C27 1_555 1_555
Cl2 C27 1_555 1_555
Cl3 C27 1_555 1_555
H26 O6 1_555 1_555
H27 O5 1_555 1_555
C3F C3 1_555 1_555
C2F C3F 1_555 1_555
C1F C2F 1_555 1_555
N1F C1F 1_555 1_555
Ni1F N1F 1_555 1_555
C5F N1F 1_555 1_555
C4F C3F 1_555 1_555
H3F C4F 1_555 1_555
H4F C5F 1_555 1_555
H1F C1F 1_555 1_555
H2F C2F 1_555 1_555
C8G C8 1_555 1_555
C7G C8G 1_555 1_555
C6G C7G 1_555 1_555
N2G C6G 1_555 1_555
Ni1G N2G 1_555 1_555
N1G Ni1G 1_555 1_555
O1G Ni1G 1_555 1_555
C17G O1G 1_555 1_555
O2G C17G 1_555 1_555
C11G C17G 1_555 1_555
C12G C11G 1_555 1_555
H9G C12G 1_555 1_555
C13G C12G 1_555 1_555
H10G C13G 1_555 1_555
C14G C13G 1_555 1_555
H11G C14G 1_555 1_555
C15G C14G 1_555 1_555
H12G C15G 1_555 1_555
C16G C11G 1_555 1_555
H13G C16G 1_555 1_555
O3G Ni1G 1_555 1_555
C24G O3G 1_555 1_555
O4G C24G 1_555 1_555
C18G C24G 1_555 1_555
C19G C18G 1_555 1_555
H14G C19G 1_555 1_555
C20G C19G 1_555 1_555
H15G C20G 1_555 1_555
C21G C20G 1_555 1_555
H16G C21G 1_555 1_555
C22G C21G 1_555 1_555
H17G C22G 1_555 1_555
C23G C18G 1_555 1_555
H18G C23G 1_555 1_555
O5G Ni1G 1_555 1_555
C25G O5G 1_555 1_555
H19G C25G 1_555 1_555
H20G C25G 1_555 1_555
H21G C25G 1_555 1_555
H27G O5G 1_555 1_555
O6G Ni1G 1_555 1_555
C26G O6G 1_555 1_555
H22G C26G 1_555 1_555
H23G C26G 1_555 1_555
H24G C26G 1_555 1_555
H26G O6G 1_555 1_555
C10G N2G 1_555 1_555
C9G C8G 1_555 1_555
H7G C9G 1_555 1_555
H8G C10G 1_555 1_555
H5G C6G 1_555 1_555
H6G C7G 1_555 1_555
C4 C5 1_555 1_555
C9 C10 1_555 1_555
C11 C17 1_555 1_555
C15 C16 1_555 1_555
C18 C24 1_555 1_555
C22 C23 1_555 1_555
C5F C4F 1_555 1_555
C15G C16G 1_555 1_555
C22G C23G 1_555 1_555
C10G C9G 1_555 1_555

#END
