
#######################################################################
#
#                 Cambridge Crystallographic Data Centre
#                                CCDC 
#
#######################################################################
#
# If this CIF has been generated from an entry in the Cambridge 
# Structural Database, then it will include bibliographic, chemical, 
# crystal, experimental, refinement or atomic coordinate data resulting 
# from the CCDC's data processing and validation procedures.
#
#######################################################################

data_JAVQAZ01
_symmetry_cell_setting           orthorhombic
_symmetry_space_group_name_H-M   'P n a 21'
_symmetry_Int_Tables_number      33
_space_group_name_Hall           'P 2c -2n'
loop_
_symmetry_equiv_pos_site_id
_symmetry_equiv_pos_as_xyz
1 x,y,z
2 -x,-y,1/2+z
3 1/2-x,1/2+y,1/2+z
4 1/2+x,1/2-y,z
_cell_length_a                   10.4092(2)
_cell_length_b                   19.7245(5)
_cell_length_c                   8.4632(2)
_cell_angle_alpha                90
_cell_angle_beta                 90
_cell_angle_gamma                90
_cell_volume                     1737.63
loop_
_atom_site_label
_atom_site_type_symbol
_atom_site_fract_x
_atom_site_fract_y
_atom_site_fract_z
Cd1 Cd 0.633351(13) 0.060591(7) 0.40097(5)
O1 O 0.4950(2) 0.11059(11) 0.5608(2)
O2 O 0.5464(2) 0.12059(13) 0.1920(3)
O3 O 0.36973(17) 0.16675(11) 0.3906(5)
N1 N 0.7685(2) 0.04882(12) 0.6255(3)
O4 O 0.4358(2) 0.05573(9) 0.9402(2)
O5 O 0.29704(19) 0.03131(10) 0.7511(2)
N2 N 0.8271(2) 0.11693(11) 0.3592(2)
C1 C 0.3581(3) 0.07365(15) 0.8333(4)
C2 C 0.9183(3) 0.11404(13) 0.4710(3)
C3 C 0.3322(2) 0.18061(13) 0.6651(3)
C4 C 0.4043(3) 0.15049(14) 0.5262(3)
C5 C 0.9648(3) 0.18357(19) 0.1951(5)
H1 H 0.9777 0.2072 0.1014
C6 C 0.3232(2) 0.14770(14) 0.8106(3)
C7 C 0.2632(3) 0.18004(15) 0.9377(3)
H2 H 0.2595 0.1590 1.0359
C8 C 0.2132(3) 0.27586(15) 0.7723(4)
H3 H 0.1743 0.3178 0.7579
C9 C 0.7314(3) 0.01824(18) 0.7592(4)
H4 H 0.6510 -0.0023 0.7622
C10 C 0.2764(3) 0.24460(14) 0.6483(4)
H5 H 0.2819 0.2667 0.5515
C11 C 1.0366(3) 0.14547(17) 0.4469(4)
H6 H 1.1004 0.1429 0.5236
C12 C 0.8854(3) 0.07863(15) 0.6203(4)
C13 C 0.8503(3) 0.15042(18) 0.2237(4)
H7 H 0.7868 0.1513 0.1464
C14 C 0.2085(3) 0.24442(14) 0.9166(5)
H8 H 0.1686 0.2659 1.0013
C15 C 1.0585(3) 0.1808(2) 0.3070(5)
H9 H 1.1367 0.2025 0.2903
C16 C 0.8071(4) 0.01586(16) 0.8919(6)
H10 H 0.7779 -0.0049 0.9839
C17 C 0.9669(3) 0.07650(18) 0.7495(5)
H11 H 1.0479 0.0963 0.7444
C18 C 0.9265(4) 0.04473(18) 0.8857(7)
H12 H 0.9803 0.0429 0.9733
H13 H 0.524(3) 0.1017(19) 0.107(5)
H14 H 0.490(4) 0.1359(17) 0.241(4)
Cd1A Cd 0.366649(13) -0.060591(7) 0.90097(5)
O4A O 0.5642(2) -0.05573(9) 0.4402(2)
O5A O 0.70296(19) -0.03131(10) 0.2511(2)
loop_
_geom_bond_atom_site_label_1
_geom_bond_atom_site_label_2
_geom_bond_site_symmetry_1
_geom_bond_site_symmetry_2
Cd1 O1 1_555 1_555
O1 C4 1_555 1_555
O2 Cd1 1_555 1_555
O3 C4 1_555 1_555
N1 Cd1 1_555 1_555
O4 C1 1_555 1_555
O5 C1 1_555 1_555
N2 Cd1 1_555 1_555
C1 C6 1_555 1_555
C2 N2 1_555 1_555
C3 C4 1_555 1_555
C5 H1 1_555 1_555
C6 C3 1_555 1_555
C7 C6 1_555 1_555
H2 C7 1_555 1_555
C8 H3 1_555 1_555
C9 N1 1_555 1_555
H4 C9 1_555 1_555
C10 C3 1_555 1_555
H5 C10 1_555 1_555
C11 C2 1_555 1_555
H6 C11 1_555 1_555
C12 N1 1_555 1_555
C13 N2 1_555 1_555
H7 C13 1_555 1_555
C14 C7 1_555 1_555
H8 C14 1_555 1_555
C15 C5 1_555 1_555
H9 C15 1_555 1_555
C16 C9 1_555 1_555
H10 C16 1_555 1_555
C17 C12 1_555 1_555
H11 C17 1_555 1_555
C18 C16 1_555 1_555
H12 C18 1_555 1_555
H13 O2 1_555 1_555
H14 O2 1_555 1_555
Cd1A O4 1_555 1_555
O4A Cd1 1_555 1_555
O5A Cd1 1_555 1_555
O5 Cd1A 1_555 1_555
C2 C12 1_555 1_555
C5 C13 1_555 1_555
C8 C10 1_555 1_555
C8 C14 1_555 1_555
C11 C15 1_555 1_555
C17 C18 1_555 1_555

#END
