
#######################################################################
#
#                 Cambridge Crystallographic Data Centre
#                                CCDC 
#
#######################################################################
#
# If this CIF has been generated from an entry in the Cambridge 
# Structural Database, then it will include bibliographic, chemical, 
# crystal, experimental, refinement or atomic coordinate data resulting 
# from the CCDC's data processing and validation procedures.
#
#######################################################################

data_JAVQIH
_symmetry_cell_setting           orthorhombic
_symmetry_space_group_name_H-M   'P b c m'
_symmetry_Int_Tables_number      57
_space_group_name_Hall           '-P 2c 2b'
loop_
_symmetry_equiv_pos_site_id
_symmetry_equiv_pos_as_xyz
1 x,y,z
2 -x,-y,1/2+z
3 -x,1/2+y,1/2-z
4 x,1/2-y,-z
5 -x,-y,-z
6 x,y,1/2-z
7 x,1/2-y,1/2+z
8 -x,1/2+y,z
_cell_length_a                   6.50210(10)
_cell_length_b                   6.9509(2)
_cell_length_c                   18.31990(10)
_cell_angle_alpha                90
_cell_angle_beta                 90
_cell_angle_gamma                90
_cell_volume                     827.976
loop_
_atom_site_label
_atom_site_type_symbol
_atom_site_fract_x
_atom_site_fract_y
_atom_site_fract_z
Cd1 Cd 0.84605(5) 0.2500 0.5000
O1 O 0.8954(4) 0.1486(4) 0.61460(13)
O2 O 1.1717(3) 0.0613(4) 0.55389(11)
C1 C 1.0771(5) 0.0900(4) 0.61362(17)
C2 C 1.1863(5) 0.0564(5) 0.68423(17)
C3 C 1.0858(7) 0.0896(6) 0.7500
H1 H 0.9509 0.1341 0.7500
C4 C 1.3896(5) -0.0063(5) 0.68503(18)
H2 H 1.4579 -0.0278 0.6412
C5 C 1.4904(7) -0.0367(7) 0.7500
H3 H 1.6265 -0.0778 0.7500
O3 O 0.5007(6) 0.2500 0.5000
Cd1G Cd 1.15395(5) -0.2500 0.5000
Cd1E Cd 0.84605(5) 0.2500 1.0000
Cd1A Cd 1.15395(5) -0.2500 1.0000
O1E O 0.8954(4) 0.1486(4) 0.88540(13)
O1C O 0.8954(4) 0.3514(4) 0.38540(13)
O2E O 1.1717(3) 0.0613(4) 0.94611(11)
O2G O 0.8283(3) 0.5613(4) 0.55389(11)
O2D O 0.8283(3) -0.0613(4) 0.44611(11)
O2C O 1.1717(3) 0.4387(4) 0.44611(11)
C1E C 1.0771(5) 0.0900(4) 0.88638(17)
C2E C 1.1863(5) 0.0564(5) 0.81577(17)
C4E C 1.3896(5) -0.0063(5) 0.81497(18)
H2E H 1.4579 -0.0278 0.8588
loop_
_geom_bond_atom_site_label_1
_geom_bond_atom_site_label_2
_geom_bond_site_symmetry_1
_geom_bond_site_symmetry_2
Cd1 O1 1_555 1_555
O1 C1 1_555 1_555
O2 Cd1 1_555 1_555
C1 O2 1_555 1_555
C2 C1 1_555 1_555
C3 C2 1_555 1_555
H1 C3 1_555 1_555
C4 C2 1_555 1_555
H2 C4 1_555 1_555
C5 C4 1_555 1_555
H3 C5 1_555 1_555
O3 Cd1 1_555 1_555
Cd1G O2 1_555 1_555
Cd1E O1E 1_555 1_555
Cd1A O2E 1_555 1_555
O1E C1E 1_555 1_555
O1C Cd1 1_555 1_555
O2E Cd1E 1_555 1_555
O2G Cd1 1_555 1_555
O2D Cd1 1_555 1_555
O2C Cd1 1_555 1_555
C1E O2E 1_555 1_555
C2E C3 1_555 1_555
C4E C5 1_555 1_555
H2E C4E 1_555 1_555
Cd1G O2D 1_555 1_555
C1E C2E 1_555 1_555
C2E C4E 1_555 1_555

#END
