
#######################################################################
#
#                 Cambridge Crystallographic Data Centre
#                                CCDC 
#
#######################################################################
#
# If this CIF has been generated from an entry in the Cambridge 
# Structural Database, then it will include bibliographic, chemical, 
# crystal, experimental, refinement or atomic coordinate data resulting 
# from the CCDC's data processing and validation procedures.
#
#######################################################################

data_JAVVAD
_symmetry_cell_setting           monoclinic
_symmetry_space_group_name_H-M   'C 2/c'
_symmetry_Int_Tables_number      15
_space_group_name_Hall           '-C 2yn'
loop_
_symmetry_equiv_pos_site_id
_symmetry_equiv_pos_as_xyz
1 x,y,z
2 1/2+x,1/2+y,z
3 x,-y,1/2+z
4 1/2+x,1/2-y,1/2+z
5 -x,-y,-z
6 1/2-x,1/2-y,-z
7 -x,y,1/2-z
8 1/2-x,1/2+y,1/2-z
_cell_length_a                   18.6360(10)
_cell_length_b                   14.8660(10)
_cell_length_c                   20.806(2)
_cell_angle_alpha                90
_cell_angle_beta                 104.930(10)
_cell_angle_gamma                90
_cell_volume                     5569.56
loop_
_atom_site_label
_atom_site_type_symbol
_atom_site_fract_x
_atom_site_fract_y
_atom_site_fract_z
Al1 Al 0.27753(3) 0.10180(3) 0.58539(2)
Li1 Li 0.2811(2) -0.0926(2) 0.6074(2)
Li2 Li 0.1720(2) 0.2139(2) 0.48666(14)
O1 O 0.28351(7) 0.16284(8) 0.50545(5)
O2 O 0.30870(7) 0.00183(8) 0.54807(6)
O3 O 0.24259(7) 0.01709(8) 0.63872(6)
O4 O 0.18343(7) 0.15100(8) 0.56957(5)
C1 C 0.35077(12) 0.1688(2) 0.65474(9)
H1 H 0.39048(12) 0.1904(2) 0.63483(9)
H2 H 0.32566(12) 0.2226(2) 0.66666(9)
C2 C 0.3873(2) 0.1194(2) 0.71840(12)
H3 H 0.4199(9) 0.1609(4) 0.7493(4)
H4 H 0.4167(9) 0.0692(9) 0.7084(2)
H5 H 0.3490(2) 0.0964(12) 0.7387(5)
C3 C 0.30493(10) 0.10525(11) 0.46325(8)
C4 C 0.31893(10) 0.01673(12) 0.48689(9)
C5 C 0.34167(12) -0.04726(13) 0.44843(10)
H6 H 0.35141(12) -0.10705(13) 0.46441(10)
C6 C 0.35032(13) -0.02380(14) 0.38582(11)
H7 H 0.36614(13) -0.06778(14) 0.35930(11)
C7 C 0.33605(13) 0.06261(14) 0.36236(10)
H8 H 0.34160(13) 0.07780(14) 0.31955(10)
C8 C 0.31343(11) 0.12823(12) 0.40115(9)
H9 H 0.30399(11) 0.18800(12) 0.38503(9)
C9 C 0.17962(10) 0.04681(12) 0.65172(8)
C10 C 0.14583(10) 0.12037(11) 0.61275(8)
C11 C 0.07975(10) 0.15575(12) 0.61975(8)
H10 H 0.05697(10) 0.20490(12) 0.59298(8)
C12 C 0.04676(10) 0.11808(13) 0.66693(9)
H11 H 0.00093(10) 0.14124(13) 0.67178(9)
C13 C 0.08037(11) 0.04798(14) 0.70609(9)
H12 H 0.05789(11) 0.02361(14) 0.73836(9)
C14 C 0.14726(11) 0.01185(14) 0.69923(9)
H13 H 0.17034(11) -0.03632(14) 0.72694(9)
C15 C 0.2002(2) -0.2253(2) 0.68100(13)
H14 H 0.1591(2) -0.1835(5) 0.6634(9)
H15 H 0.2008(5) -0.2416(12) 0.7268(2)
H16 H 0.1935(6) -0.2796(8) 0.6534(8)
O5 O 0.26834(8) -0.18349(10) 0.68019(7)
C16 C 0.33031(15) -0.2401(2) 0.70396(11)
H17 H 0.32674(15) -0.2936(2) 0.67501(11)
H18 H 0.33237(15) -0.2605(2) 0.74968(11)
C17 C 0.39735(14) -0.1876(2) 0.70350(10)
H19 H 0.40555(14) -0.1406(2) 0.73833(10)
H20 H 0.44132(14) -0.2276(2) 0.71300(10)
O6 O 0.38766(8) -0.14692(10) 0.63977(7)
C18 C 0.45298(13) -0.1038(2) 0.63186(13)
H21 H 0.4423(3) -0.0742(11) 0.5883(4)
H22 H 0.4922(3) -0.1487(3) 0.6348(9)
H23 H 0.4694(6) -0.0588(9) 0.6670(6)
C19 C 0.01787(15) 0.3386(2) 0.4576(2)
H24 H 0.0497(5) 0.3810(4) 0.4883(7)
H25 H -0.0301(5) 0.3336(3) 0.4686(10)
H26 H 0.0100(10) 0.3604(6) 0.4119(3)
O7 O 0.05270(8) 0.25273(10) 0.46371(7)
C20 C 0.00794(12) 0.1872(2) 0.42211(11)
H27 H 0.00070(12) 0.2035(2) 0.37473(11)
H28 H -0.04135(12) 0.1834(2) 0.43163(11)
C21 C 0.04764(13) 0.0995(2) 0.43651(11)
H29 H 0.05282(13) 0.0828(2) 0.48355(11)
H30 H 0.01838(13) 0.0520(2) 0.40804(11)
O8 O 0.11948(8) 0.10558(10) 0.42425(6)
C22 C 0.1198(2) 0.0798(2) 0.35833(11)
H31 H 0.1700(3) 0.0868(12) 0.3524(3)
H32 H 0.0853(8) 0.1181(9) 0.32631(11)
H33 H 0.1043(10) 0.0169(4) 0.3509(3)
C23 C 0.14677(14) -0.0966(2) 0.49902(12)
H34 H 0.1345(7) -0.0582(8) 0.53297(14)
H35 H 0.1022(4) -0.1289(2) 0.4747(7)
H36 H 0.1653(4) -0.0592(8) 0.4680(6)
O9 O 0.20261(9) -0.15978(9) 0.53024(7)
C24 C 0.21849(13) -0.22021(14) 0.48248(9)
H37 H 0.23245(13) -0.18608(14) 0.44667(9)
H38 H 0.17414(13) -0.25700(14) 0.46226(9)
O1E O 0.21649(7) 0.33716(8) 0.49455(5)
Li2E Li 0.3280(2) 0.2861(2) 0.51334(14)
C24E C 0.28151(13) -0.27979(14) 0.51752(9)
O9E O 0.29739(9) -0.34022(9) 0.46976(7)
Li1E Li 0.2189(2) -0.4074(2) 0.3926(2)
C23E C 0.35323(14) -0.4034(2) 0.50098(12)
H34E H 0.3655(7) -0.4418(8) 0.46703(14)
H35E H 0.3978(4) -0.3711(2) 0.5253(7)
H36E H 0.3347(4) -0.4408(8) 0.5320(6)
H37E H 0.26755(13) -0.31392(14) 0.55333(9)
H38E H 0.32586(13) -0.24300(14) 0.53774(9)
loop_
_geom_bond_atom_site_label_1
_geom_bond_atom_site_label_2
_geom_bond_site_symmetry_1
_geom_bond_site_symmetry_2
Al1 O1 1_555 1_555
Li1 O2 1_555 1_555
Li2 O1 1_555 1_555
O1 C3 1_555 1_555
O2 Al1 1_555 1_555
O3 Al1 1_555 1_555
O4 Al1 1_555 1_555
C1 Al1 1_555 1_555
H1 C1 1_555 1_555
H2 C1 1_555 1_555
C2 C1 1_555 1_555
H3 C2 1_555 1_555
H4 C2 1_555 1_555
H5 C2 1_555 1_555
C3 C4 1_555 1_555
C4 O2 1_555 1_555
C5 C4 1_555 1_555
H6 C5 1_555 1_555
C6 C5 1_555 1_555
H7 C6 1_555 1_555
C7 C6 1_555 1_555
H8 C7 1_555 1_555
C8 C3 1_555 1_555
H9 C8 1_555 1_555
C9 O3 1_555 1_555
C10 O4 1_555 1_555
C11 C10 1_555 1_555
H10 C11 1_555 1_555
C12 C11 1_555 1_555
H11 C12 1_555 1_555
C13 C12 1_555 1_555
H12 C13 1_555 1_555
C14 C9 1_555 1_555
H13 C14 1_555 1_555
C15 H14 1_555 1_555
H15 C15 1_555 1_555
H16 C15 1_555 1_555
O5 Li1 1_555 1_555
C16 O5 1_555 1_555
H17 C16 1_555 1_555
H18 C16 1_555 1_555
C17 C16 1_555 1_555
H19 C17 1_555 1_555
H20 C17 1_555 1_555
O6 Li1 1_555 1_555
C18 O6 1_555 1_555
H21 C18 1_555 1_555
H22 C18 1_555 1_555
H23 C18 1_555 1_555
C19 H24 1_555 1_555
H25 C19 1_555 1_555
H26 C19 1_555 1_555
O7 Li2 1_555 1_555
C20 O7 1_555 1_555
H27 C20 1_555 1_555
H28 C20 1_555 1_555
C21 C20 1_555 1_555
H29 C21 1_555 1_555
H30 C21 1_555 1_555
O8 Li2 1_555 1_555
C22 O8 1_555 1_555
H31 C22 1_555 1_555
H32 C22 1_555 1_555
H33 C22 1_555 1_555
C23 H34 1_555 1_555
H35 C23 1_555 1_555
H36 C23 1_555 1_555
O9 Li1 1_555 1_555
C24 O9 1_555 1_555
H37 C24 1_555 1_555
H38 C24 1_555 1_555
O1E Li2 1_555 1_555
Li2E O1 1_555 1_555
C24E C24 1_555 1_555
O9E C24E 1_555 1_555
Li1E O9E 1_555 1_555
C23E O9E 1_555 1_555
H34E C23E 1_555 1_555
H35E C23E 1_555 1_555
H36E C23E 1_555 1_555
H37E C24E 1_555 1_555
H38E C24E 1_555 1_555
Li1 O3 1_555 1_555
Li2 O4 1_555 1_555
C7 C8 1_555 1_555
C9 C10 1_555 1_555
C13 C14 1_555 1_555
C15 O5 1_555 1_555
C17 O6 1_555 1_555
C19 O7 1_555 1_555
C21 O8 1_555 1_555
C23 O9 1_555 1_555
O1E Li2E 1_555 1_555

#END
