
#######################################################################
#
#                 Cambridge Crystallographic Data Centre
#                                CCDC 
#
#######################################################################
#
# If this CIF has been generated from an entry in the Cambridge 
# Structural Database, then it will include bibliographic, chemical, 
# crystal, experimental, refinement or atomic coordinate data resulting 
# from the CCDC's data processing and validation procedures.
#
#######################################################################

data_JAWDUH
_symmetry_cell_setting           monoclinic
_symmetry_space_group_name_H-M   'P 21/n'
_symmetry_Int_Tables_number      14
_space_group_name_Hall           '-P 2yn'
loop_
_symmetry_equiv_pos_site_id
_symmetry_equiv_pos_as_xyz
1 x,y,z
2 1/2-x,1/2+y,1/2-z
3 -x,-y,-z
4 1/2+x,1/2-y,1/2+z
_cell_length_a                   5.7487(2)
_cell_length_b                   17.7911(8)
_cell_length_c                   13.5036(6)
_cell_angle_alpha                90
_cell_angle_beta                 94.7080(10)
_cell_angle_gamma                90
_cell_volume                     1376.43
loop_
_atom_site_label
_atom_site_type_symbol
_atom_site_fract_x
_atom_site_fract_y
_atom_site_fract_z
Cu1 Cu 0.37444(9) 0.05536(3) 0.30712(4)
S1 S 0.3731(2) 0.15840(8) 0.40957(11)
S2 S 0.7779(3) 0.19790(10) 0.55740(14)
S3 S 0.6267(2) 0.12178(8) 0.16696(11)
N1 N 0.4485(6) -0.0499(2) 0.2454(3)
N2 N 0.6414(6) 0.0258(2) 0.3964(3)
N3 N 0.7459(7) 0.0721(2) 0.4691(3)
N4 N 1.0653(6) 0.0761(2) 0.2473(3)
C1 C 0.1726(11) -0.0478(3) 0.0984(4)
H1 H 0.1374 0.0000 0.1265
H2 H 0.0347 -0.0784 0.0930
H3 H 0.2263 -0.0405 0.0336
C2 C 0.3578(9) -0.0858(3) 0.1636(4)
C3 C 0.4399(11) -0.1566(3) 0.1383(4)
H4 H 0.3742 -0.1810 0.0818
C4 C 0.6159(12) -0.1900(3) 0.1961(5)
H5 H 0.6696 -0.2374 0.1799
C5 C 0.7126(11) -0.1532(3) 0.2780(5)
H6 H 0.8344 -0.1749 0.3177
C6 C 0.6280(9) -0.0831(3) 0.3017(4)
C7 C 0.7325(8) -0.0387(3) 0.3831(4)
H7 H 0.8596 -0.0561 0.4237
C8 C 0.6326(8) 0.1352(3) 0.4737(4)
C9 C 0.5965(11) 0.2789(4) 0.5548(6)
H8 H 0.6658 0.3161 0.5996
H9 H 0.4456 0.2654 0.5749
H10 H 0.5800 0.2990 0.4887
C10 C 0.8824(8) 0.0952(3) 0.2144(3)
Cu1_2 Cu 1.37444(9) 0.05536(3) 0.30712(4)
N4_2 N 0.0653(6) 0.0761(2) 0.2473(3)
loop_
_geom_bond_atom_site_label_1
_geom_bond_atom_site_label_2
_geom_bond_site_symmetry_1
_geom_bond_site_symmetry_2
Cu1 S1 1_555 1_555
S1 C8 1_555 1_555
S2 C8 1_555 1_555
S3 Cu1 1_555 1_555
N1 Cu1 1_555 1_555
N2 Cu1 1_555 1_555
N3 N2 1_555 1_555
N4 C10 1_555 1_555
C1 H1 1_555 1_555
H2 C1 1_555 1_555
H3 C1 1_555 1_555
C2 N1 1_555 1_555
C3 C2 1_555 1_555
H4 C3 1_555 1_555
C4 C3 1_555 1_555
H5 C4 1_555 1_555
C5 C4 1_555 1_555
H6 C5 1_555 1_555
C6 N1 1_555 1_555
C7 N2 1_555 1_555
H7 C7 1_555 1_555
C8 N3 1_555 1_555
C9 S2 1_555 1_555
H8 C9 1_555 1_555
H9 C9 1_555 1_555
H10 C9 1_555 1_555
C10 S3 1_555 1_555
Cu1_2 N4 1_555 1_555
N4_2 Cu1 1_555 1_555
C1 C2 1_555 1_555
C5 C6 1_555 1_555
C6 C7 1_555 1_555

#END
