
#######################################################################
#
#                 Cambridge Crystallographic Data Centre
#                                CCDC 
#
#######################################################################
#
# If this CIF has been generated from an entry in the Cambridge 
# Structural Database, then it will include bibliographic, chemical, 
# crystal, experimental, refinement or atomic coordinate data resulting 
# from the CCDC's data processing and validation procedures.
#
#######################################################################

data_JAWGUK
_symmetry_cell_setting           monoclinic
_symmetry_space_group_name_H-M   'C 2/c'
_symmetry_Int_Tables_number      15
_space_group_name_Hall           '-C 2yn'
loop_
_symmetry_equiv_pos_site_id
_symmetry_equiv_pos_as_xyz
1 x,y,z
2 1/2+x,1/2+y,z
3 -x,y,1/2-z
4 1/2-x,1/2+y,1/2-z
5 -x,-y,-z
6 1/2-x,1/2-y,-z
7 x,-y,1/2+z
8 1/2+x,1/2-y,1/2+z
_cell_length_a                   21.489(4)
_cell_length_b                   12.487(3)
_cell_length_c                   9.468(2)
_cell_angle_alpha                90
_cell_angle_beta                 111.01(3)
_cell_angle_gamma                90
_cell_volume                     2371.68
loop_
_atom_site_label
_atom_site_type_symbol
_atom_site_fract_x
_atom_site_fract_y
_atom_site_fract_z
Pb1 Pb 0.5000 0.487472(13) 0.2500
F1 F 0.33314(15) 0.2464(3) -0.2857(4)
F2 F 0.4053(2) 0.1785(2) -0.0882(4)
F3 F 0.43593(17) 0.2736(3) -0.2399(4)
F4 F 0.2522(2) 0.4471(7) 0.1822(6)
F5 F 0.20744(19) 0.4147(7) -0.0462(7)
F6 F 0.2347(3) 0.5697(6) 0.0327(11)
O1 O 0.44218(13) 0.4177(2) -0.0316(3)
O2 O 0.36586(16) 0.5211(2) 0.1249(4)
N1 N 0.44796(15) 0.3220(2) 0.3006(3)
C1 C 0.38944(18) 0.3637(3) -0.0789(4)
C2 C 0.33087(19) 0.3780(3) -0.0513(4)
H1 H 0.2953 0.3319 -0.0974
C3 C 0.32310(18) 0.4588(4) 0.0428(4)
C4 C 0.3909(2) 0.2655(3) -0.1756(5)
C5 C 0.2534(3) 0.4724(6) 0.0497(7)
C6 C 0.3992(2) 0.3222(4) 0.3551(5)
H2 H 0.3824 0.3878 0.3715
C7 C 0.3718(2) 0.2292(4) 0.3890(6)
H3 H 0.3376 0.2326 0.4272
C8 C 0.3964(3) 0.1321(4) 0.3648(6)
H4 H 0.3788 0.0689 0.3867
C9 C 0.4477(2) 0.1286(3) 0.3076(5)
C10 C 0.47276(18) 0.2264(3) 0.2775(4)
C11 C 0.4753(4) 0.0313(4) 0.2783(9)
H5 H 0.4591 -0.0336 0.2987
Pb1F Pb 0.5000 0.512528(13) -0.2500
Pb1F_2 Pb 0.5000 0.512528(13) 0.7500
F1F F 0.33314(15) 0.7536(3) 0.2143(4)
F2F F 0.4053(2) 0.8215(2) 0.4118(4)
F3F F 0.43593(17) 0.7264(3) 0.2601(4)
F4F F 0.2522(2) 0.5529(7) 0.6822(6)
F5F F 0.20744(19) 0.5853(7) 0.4538(7)
F6F F 0.2347(3) 0.4303(6) 0.5327(11)
O1F O 0.44218(13) 0.5823(2) 0.4684(3)
O1D O 0.55782(13) 0.5823(2) 0.0316(3)
O1B O 0.55782(13) 0.4177(2) 0.5316(3)
O2F O 0.36586(16) 0.4789(2) 0.6249(4)
O2B O 0.63414(16) 0.5211(2) 0.3751(4)
N1B N 0.55204(15) 0.3220(2) 0.1994(3)
C1F C 0.38944(18) 0.6363(3) 0.4211(4)
C2F C 0.33087(19) 0.6220(3) 0.4487(4)
H1F H 0.2953 0.6681 0.4026
C3F C 0.32310(18) 0.5412(4) 0.5428(4)
C4F C 0.3909(2) 0.7345(3) 0.3244(5)
C5F C 0.2534(3) 0.5276(6) 0.5497(7)
C6B C 0.6008(2) 0.3222(4) 0.1449(5)
H2B H 0.6176 0.3878 0.1285
C7B C 0.6282(2) 0.2292(4) 0.1110(6)
H3B H 0.6624 0.2326 0.0728
C8B C 0.6036(3) 0.1321(4) 0.1352(6)
H4B H 0.6212 0.0689 0.1133
C9B C 0.5523(2) 0.1286(3) 0.1924(5)
C10B C 0.52724(18) 0.2264(3) 0.2225(4)
C11B C 0.5247(4) 0.0313(4) 0.2217(9)
H5B H 0.5409 -0.0336 0.2013
loop_
_geom_bond_atom_site_label_1
_geom_bond_atom_site_label_2
_geom_bond_site_symmetry_1
_geom_bond_site_symmetry_2
Pb1 O1 1_555 1_555
F1 C4 1_555 1_555
F2 C4 1_555 1_555
F3 C4 1_555 1_555
F4 C5 1_555 1_555
F5 C5 1_555 1_555
F6 C5 1_555 1_555
O1 C1 1_555 1_555
O2 Pb1 1_555 1_555
N1 Pb1 1_555 1_555
C1 C2 1_555 1_555
C2 H1 1_555 1_555
C3 O2 1_555 1_555
C4 C1 1_555 1_555
C5 C3 1_555 1_555
C6 N1 1_555 1_555
H2 C6 1_555 1_555
C7 C6 1_555 1_555
H3 C7 1_555 1_555
C8 C7 1_555 1_555
H4 C8 1_555 1_555
C9 C8 1_555 1_555
C10 N1 1_555 1_555
C11 C9 1_555 1_555
H5 C11 1_555 1_555
Pb1F O1 1_555 1_555
Pb1F_2 O1F 1_555 1_555
F1F C4F 1_555 1_555
F2F C4F 1_555 1_555
F3F C4F 1_555 1_555
F4F C5F 1_555 1_555
F5F C5F 1_555 1_555
F6F C5F 1_555 1_555
O1F Pb1 1_555 1_555
O1D Pb1 1_555 1_555
O1B Pb1 1_555 1_555
O2F Pb1F_2 1_555 1_555
O2B Pb1 1_555 1_555
N1B Pb1 1_555 1_555
C1F O1F 1_555 1_555
C2F C1F 1_555 1_555
H1F C2F 1_555 1_555
C3F O2F 1_555 1_555
C4F C1F 1_555 1_555
C5F C3F 1_555 1_555
C6B N1B 1_555 1_555
H2B C6B 1_555 1_555
C7B C6B 1_555 1_555
H3B C7B 1_555 1_555
C8B C7B 1_555 1_555
H4B C8B 1_555 1_555
C9B C8B 1_555 1_555
C10B C10 1_555 1_555
C11B C11 1_555 1_555
H5B C11B 1_555 1_555
C2 C3 1_555 1_555
C9 C10 1_555 1_555
Pb1F O1D 1_555 1_555
Pb1F_2 O1B 1_555 1_555
N1B C10B 1_555 1_555
C2F C3F 1_555 1_555
C9B C10B 1_555 1_555
C9B C11B 1_555 1_555

#END
