
#######################################################################
#
#                 Cambridge Crystallographic Data Centre
#                                CCDC 
#
#######################################################################
#
# If this CIF has been generated from an entry in the Cambridge 
# Structural Database, then it will include bibliographic, chemical, 
# crystal, experimental, refinement or atomic coordinate data resulting 
# from the CCDC's data processing and validation procedures.
#
#######################################################################

data_JAWHEV
_symmetry_cell_setting           monoclinic
_symmetry_space_group_name_H-M   'C 2/c'
_symmetry_Int_Tables_number      15
_space_group_name_Hall           '-C 2yn'
loop_
_symmetry_equiv_pos_site_id
_symmetry_equiv_pos_as_xyz
1 x,y,z
2 1/2+x,1/2+y,z
3 -x,y,1/2-z
4 1/2-x,1/2+y,1/2-z
5 -x,-y,-z
6 1/2-x,1/2-y,-z
7 x,-y,1/2+z
8 1/2+x,1/2-y,1/2+z
_cell_length_a                   22.022(4)
_cell_length_b                   11.691(2)
_cell_length_c                   9.2890(18)
_cell_angle_alpha                90
_cell_angle_beta                 109.307(3)
_cell_angle_gamma                90
_cell_volume                     2257.04
loop_
_atom_site_label
_atom_site_type_symbol
_atom_site_fract_x
_atom_site_fract_y
_atom_site_fract_z
Pb1 Pb 0.5000 0.486590(12) 0.2500
F1 F 0.24537(12) 0.5839(3) 0.0493(4)
F2 F 0.25897(11) 0.4369(3) 0.1909(3)
F3 F 0.21517(10) 0.4192(3) -0.0495(3)
F4 F 0.33939(9) 0.2221(2) -0.2779(2)
F5 F 0.41564(13) 0.15852(19) -0.0847(2)
F6 F 0.43757(10) 0.26207(19) -0.2527(2)
N1 N 0.55076(12) 0.3081(2) 0.2017(3)
O1 O 0.37056(13) 0.5244(2) 0.1289(3)
O2 O 0.44562(9) 0.41091(19) -0.0311(2)
C1 C 0.26109(19) 0.4748(4) 0.0574(5)
C2 C 0.32917(15) 0.4586(3) 0.0466(4)
C3 C 0.33653(14) 0.3719(3) -0.0504(3)
H1 H 0.3011 0.3230 -0.0981
C4 C 0.39416(14) 0.3552(3) -0.0791(3)
C5 C 0.39597(16) 0.2499(3) -0.1774(4)
C6 C 0.52810(14) 0.2049(3) 0.2216(3)
C7 C 0.55485(16) 0.1050(3) 0.1893(4)
H2 H 0.5383 0.0326 0.2041
C8 C 0.60654(17) 0.1125(3) 0.1347(4)
H3 H 0.6261 0.0451 0.1131
C9 C 0.62911(15) 0.2188(3) 0.1122(4)
H4 H 0.6640 0.2260 0.0739
C10 C 0.59975(15) 0.3146(3) 0.1467(3)
H5 H 0.6149 0.3880 0.1307
Pb1F Pb 0.5000 0.513410(12) -0.2500
Pb1F_2 Pb 0.5000 0.513410(12) 0.7500
F1B F 0.75463(12) 0.5839(3) 0.4507(4)
F2B F 0.74103(11) 0.4369(3) 0.3091(3)
F3B F 0.78483(10) 0.4192(3) 0.5495(3)
F4B F 0.66061(9) 0.2221(2) 0.7779(2)
F5B F 0.58436(13) 0.15852(19) 0.5847(2)
F6B F 0.56243(10) 0.26207(19) 0.7527(2)
N1B N 0.44924(12) 0.3081(2) 0.2983(3)
O1B O 0.62944(13) 0.5244(2) 0.3711(3)
O2B O 0.55438(9) 0.41091(19) 0.5311(2)
O2F O 0.44562(9) 0.58909(19) 0.4689(2)
O2D O 0.55438(9) 0.58909(19) 0.0311(2)
C1B C 0.73891(19) 0.4748(4) 0.4426(5)
C2B C 0.67083(15) 0.4586(3) 0.4534(4)
C3B C 0.66347(14) 0.3719(3) 0.5504(3)
H1B H 0.6989 0.3230 0.5981
C4B C 0.60584(14) 0.3552(3) 0.5791(3)
C5B C 0.60403(16) 0.2499(3) 0.6774(4)
C6B C 0.47190(14) 0.2049(3) 0.2784(3)
C7B C 0.44515(16) 0.1050(3) 0.3107(4)
H2B H 0.4617 0.0326 0.2959
C8B C 0.39346(17) 0.1125(3) 0.3653(4)
H3B H 0.3739 0.0451 0.3869
C9B C 0.37089(15) 0.2188(3) 0.3878(4)
H4B H 0.3360 0.2260 0.4261
C10B C 0.40025(15) 0.3146(3) 0.3533(3)
H5B H 0.3851 0.3880 0.3693
loop_
_geom_bond_atom_site_label_1
_geom_bond_atom_site_label_2
_geom_bond_site_symmetry_1
_geom_bond_site_symmetry_2
Pb1 N1 1_555 1_555
F1 C1 1_555 1_555
F2 C1 1_555 1_555
F3 C1 1_555 1_555
F4 C5 1_555 1_555
F5 C5 1_555 1_555
F6 C5 1_555 1_555
N1 C6 1_555 1_555
O1 Pb1 1_555 1_555
O2 Pb1 1_555 1_555
C1 C2 1_555 1_555
C2 O1 1_555 1_555
C3 C2 1_555 1_555
H1 C3 1_555 1_555
C4 O2 1_555 1_555
C5 C4 1_555 1_555
C6 C7 1_555 1_555
C7 H2 1_555 1_555
C8 C7 1_555 1_555
H3 C8 1_555 1_555
C9 C8 1_555 1_555
H4 C9 1_555 1_555
C10 N1 1_555 1_555
H5 C10 1_555 1_555
Pb1F O2 1_555 1_555
Pb1F_2 O2B 1_555 1_555
F1B C1B 1_555 1_555
F2B C1B 1_555 1_555
F3B C1B 1_555 1_555
F4B C5B 1_555 1_555
F5B C5B 1_555 1_555
F6B C5B 1_555 1_555
N1B Pb1 1_555 1_555
O1B Pb1 1_555 1_555
O2B Pb1 1_555 1_555
O2F Pb1 1_555 1_555
O2D Pb1 1_555 1_555
C1B C2B 1_555 1_555
C2B O1B 1_555 1_555
C3B C2B 1_555 1_555
H1B C3B 1_555 1_555
C4B O2B 1_555 1_555
C5B C4B 1_555 1_555
C6B C6 1_555 1_555
C7B C6B 1_555 1_555
H2B C7B 1_555 1_555
C8B C7B 1_555 1_555
H3B C8B 1_555 1_555
C9B C8B 1_555 1_555
H4B C9B 1_555 1_555
C10B N1B 1_555 1_555
H5B C10B 1_555 1_555
C3 C4 1_555 1_555
C9 C10 1_555 1_555
Pb1F O2D 1_555 1_555
Pb1F_2 O2F 1_555 1_555
N1B C6B 1_555 1_555
C3B C4B 1_555 1_555
C9B C10B 1_555 1_555

#END
