
#######################################################################
#
#                 Cambridge Crystallographic Data Centre
#                                CCDC 
#
#######################################################################
#
# If this CIF has been generated from an entry in the Cambridge 
# Structural Database, then it will include bibliographic, chemical, 
# crystal, experimental, refinement or atomic coordinate data resulting 
# from the CCDC's data processing and validation procedures.
#
#######################################################################

data_JAWREE
_symmetry_cell_setting           monoclinic
_symmetry_space_group_name_H-M   'C 2/c'
_symmetry_Int_Tables_number      15
_space_group_name_Hall           '-C 2yn'
loop_
_symmetry_equiv_pos_site_id
_symmetry_equiv_pos_as_xyz
1 x,y,z
2 1/2+x,1/2+y,z
3 -x,y,1/2-z
4 1/2-x,1/2+y,1/2-z
5 -x,-y,-z
6 1/2-x,1/2-y,-z
7 x,-y,1/2+z
8 1/2+x,1/2-y,1/2+z
_cell_length_a                   16.960(2)
_cell_length_b                   19.480(1)
_cell_length_c                   14.457(1)
_cell_angle_alpha                90
_cell_angle_beta                 122.68(2)
_cell_angle_gamma                90
_cell_volume                     4020.22
loop_
_atom_site_label
_atom_site_type_symbol
_atom_site_fract_x
_atom_site_fract_y
_atom_site_fract_z
Co1 Co 0.5000 0.0920(1) 0.7500
Cl1 Cl 0.5986(1) 0.0248(1) 0.7262(2)
Cl2 Cl 0.4267(2) 0.1570(2) 0.5974(2)
Cl1B Cl 0.4014(1) 0.0248(1) 0.7738(2)
Cl2B Cl 0.5733(2) 0.1570(2) 0.9026(2)
Co2 Co 0.7500 0.2500 0.5000
P1 P 0.5342(1) 0.1799(1) 0.3719(1)
P2 P 0.7519(1) 0.0789(1) 0.5404(2)
P3 P 0.2341(1) 0.2175(2) 0.2205(2)
O1 O 0.6048(3) 0.2341(3) 0.3943(4)
O2 O 0.7620(3) 0.1432(3) 0.4892(4)
O3 O 0.2351(3) 0.2617(3) 0.1359(4)
C1 C 0.5000 0.1317(6) 0.2500
C2 C 0.5674(5) 0.1182(5) 0.4791(6)
C3 C 0.6317(5) 0.0575(5) 0.4907(6)
C4 C 0.4283(4) 0.2185(4) 0.3466(5)
C5 C 0.3431(4) 0.1722(5) 0.3037(6)
C6 C 0.794(1) 0.077(1) 0.693(1)
C7 C 0.903(1) 0.095(1) 0.751(2)
C8 C 0.7913(6) 0.0024(6) 0.5061(8)
C9 C 0.890(1) 0.0001(9) 0.550(1)
C10 C 0.2047(6) 0.2616(7) 0.3049(8)
C11 C 0.2771(8) 0.3139(7) 0.382(1)
C12 C 0.1490(6) 0.1440(7) 0.1642(9)
C13 C 0.054(1) 0.163(1) 0.091(2)
H1 H 0.450(3) 0.098(3) 0.240(4)
H2 H 0.513(4) 0.104(3) 0.470(4)
H3 H 0.591(4) 0.139(4) 0.550(5)
H4 H 0.608(5) 0.031(4) 0.419(5)
H5 H 0.639(5) 0.036(4) 0.555(5)
H6 H 0.419(4) 0.252(4) 0.299(5)
H7 H 0.456(5) 0.242(4) 0.422(5)
H8 H 0.341(4) 0.157(3) 0.366(5)
H9 H 0.348(4) 0.135(4) 0.256(5)
P1B P 0.4658(1) 0.1799(1) 0.1281(1)
O1B O 0.3952(3) 0.2341(3) 0.1057(4)
C2B C 0.4326(5) 0.1182(5) 0.0209(6)
C4B C 0.5717(4) 0.2185(4) 0.1534(5)
H1B H 0.550(3) 0.098(3) 0.260(4)
H2B H 0.487(4) 0.104(3) 0.030(4)
H3B H 0.409(4) 0.139(4) -0.050(5)
H6B H 0.581(4) 0.252(4) 0.201(5)
H7B H 0.544(5) 0.242(4) 0.078(5)
P2B P 0.2481(1) 0.0789(1) -0.0404(2)
O2B O 0.2380(3) 0.1432(3) 0.0108(4)
C3B C 0.3683(5) 0.0575(5) 0.0093(6)
C6B C 0.206(1) 0.077(1) -0.193(1)
C7B C 0.097(1) 0.095(1) -0.251(2)
C8B C 0.2087(6) 0.0024(6) -0.0061(8)
C9B C 0.110(1) 0.0001(9) -0.050(1)
H4B H 0.392(5) 0.031(4) 0.081(5)
H5B H 0.361(5) 0.036(4) -0.055(5)
P3B P 0.7659(1) 0.2175(2) 0.2795(2)
O3B O 0.7649(3) 0.2617(3) 0.3641(4)
C5B C 0.6569(4) 0.1722(5) 0.1963(6)
C10B C 0.7953(6) 0.2616(7) 0.1951(8)
C11B C 0.7229(8) 0.3139(7) 0.118(1)
C12B C 0.8510(6) 0.1440(7) 0.3358(9)
C13B C 0.946(1) 0.163(1) 0.409(2)
H8B H 0.659(4) 0.157(3) 0.134(5)
H9B H 0.652(4) 0.135(4) 0.244(5)
Co2B Co 0.2500 0.2500 0.0000
O1E O 0.8952(3) 0.2659(3) 0.6057(4)
O2E O 0.7380(3) 0.3568(3) 0.5108(4)
O3G O 0.7351(3) 0.2383(3) 0.6359(4)
C14? C 0.670(1) 0.406(1) 0.315(1)
C15? C 0.662(1) 0.466(1) 0.250(1)
loop_
_geom_bond_atom_site_label_1
_geom_bond_atom_site_label_2
_geom_bond_site_symmetry_1
_geom_bond_site_symmetry_2
Co1 Cl1 1_555 1_555
Cl2 Co1 1_555 1_555
Co2 O1 1_555 1_555
P1 O1 1_555 1_555
P2 O2 1_555 1_555
P3 O3 1_555 1_555
O2 Co2 1_555 1_555
O3 Co2B 1_555 1_555
C1 P1 1_555 1_555
C2 P1 1_555 1_555
C3 P2 1_555 1_555
C4 P1 1_555 1_555
C5 P3 1_555 1_555
C6 P2 1_555 1_555
C7 C6 1_555 1_555
C8 P2 1_555 1_555
C9 C8 1_555 1_555
C10 P3 1_555 1_555
C11 C10 1_555 1_555
C12 P3 1_555 1_555
C13 C12 1_555 1_555
H1 C1 1_555 1_555
H2 C2 1_555 1_555
H3 C2 1_555 1_555
H4 C3 1_555 1_555
H5 C3 1_555 1_555
H6 C4 1_555 1_555
H7 C4 1_555 1_555
H8 C5 1_555 1_555
H9 C5 1_555 1_555
Cl1B Co1 1_555 1_555
Cl2B Co1 1_555 1_555
P1B C1 1_555 1_555
O1B P1B 1_555 1_555
C2B P1B 1_555 1_555
C4B P1B 1_555 1_555
H1B C1 1_555 1_555
H2B C2B 1_555 1_555
H3B C2B 1_555 1_555
H6B C4B 1_555 1_555
H7B C4B 1_555 1_555
P2B O2B 1_555 1_555
O2B Co2B 1_555 1_555
C3B C2B 1_555 1_555
C6B P2B 1_555 1_555
C7B C6B 1_555 1_555
C8B P2B 1_555 1_555
C9B C8B 1_555 1_555
H4B C3B 1_555 1_555
H5B C3B 1_555 1_555
P3B O3B 1_555 1_555
O3B Co2 1_555 1_555
C5B C4B 1_555 1_555
C10B P3B 1_555 1_555
C11B C10B 1_555 1_555
C12B P3B 1_555 1_555
C13B C12B 1_555 1_555
H8B C5B 1_555 1_555
H9B C5B 1_555 1_555
Co2B O1B 1_555 1_555
O1E Co2 1_555 1_555
O2E Co2 1_555 1_555
O3G Co2 1_555 1_555
C2 C3 1_555 1_555
C4 C5 1_555 1_555
P2B C3B 1_555 1_555
P3B C5B 1_555 1_555

#END
