
#######################################################################
#
#                 Cambridge Crystallographic Data Centre
#                                CCDC 
#
#######################################################################
#
# If this CIF has been generated from an entry in the Cambridge 
# Structural Database, then it will include bibliographic, chemical, 
# crystal, experimental, refinement or atomic coordinate data resulting 
# from the CCDC's data processing and validation procedures.
#
#######################################################################

data_JAWWIN
_symmetry_cell_setting           monoclinic
_symmetry_space_group_name_H-M   'C 2/c'
_symmetry_Int_Tables_number      15
_space_group_name_Hall           '-C 2yn'
loop_
_symmetry_equiv_pos_site_id
_symmetry_equiv_pos_as_xyz
1 x,y,z
2 1/2+x,1/2+y,z
3 -x,y,1/2-z
4 1/2-x,1/2+y,1/2-z
5 -x,-y,-z
6 1/2-x,1/2-y,-z
7 x,-y,1/2+z
8 1/2+x,1/2-y,1/2+z
_cell_length_a                   24.652(4)
_cell_length_b                   10.913(2)
_cell_length_c                   18.020(3)
_cell_angle_alpha                90
_cell_angle_beta                 95.24(2)
_cell_angle_gamma                90
_cell_volume                     4827.61
loop_
_atom_site_label
_atom_site_type_symbol
_atom_site_fract_x
_atom_site_fract_y
_atom_site_fract_z
Pb1 Pb 0.0000 0.1076(2) 0.2500
Pb2 Pb 0.0829 0.1110(1) 0.0540(1)
I1 I 0.2039(1) 0.1227(2) 0.0673(1)
I2 I 0.0805(1) 0.3095(2) 0.1835(1)
I3 I 0.0813(1) -0.0852(2) 0.1906(1)
I4 I -0.0612(1) 0.0994(2) 0.0797(1)
N5 N 0.0878(10) 0.2879(22) -0.0500(12)
N6 N 0.1183(9) 0.3659(19) -0.1690(11)
N7 N 0.1046(10) 0.5084(20) -0.0667(13)
N8 N 0.0269(9) 0.4131(18) -0.1331(13)
C7 C 0.1193(11) 0.2601(25) -0.1123(14)
C8 C 0.1355(11) 0.4837(28) -0.1302(17)
C9 C 0.1088(14) 0.4093(26) -0.0150(16)
C10 C 0.0477(11) 0.5254(27) -0.0952(17)
C11 C 0.0587(11) 0.3873(29) -0.1942(15)
C12 C 0.0305(11) 0.3081(32) -0.0792(18)
H14 H 0.114 0.181 -0.149
H15 H 0.170 0.425 -0.110
H16 H 0.150 0.569 -0.152
H17 H 0.152 0.400 0.005
H18 H 0.086 0.433 0.032
H19 H 0.011 0.544 -0.132
H20 H 0.068 0.613 -0.082
H21 H 0.056 0.462 -0.234
H22 H 0.043 0.303 -0.222
H23 H 0.038 0.218 -0.053
H24 H -0.008 0.305 -0.114
I2B I -0.0805(1) 0.3095(2) 0.3165(1)
I3B I -0.0813(1) -0.0852(2) 0.3094(1)
I4B I 0.0612(1) 0.0994(2) 0.4203(1)
I4D I 0.0612(1) -0.0994(2) -0.0797(1)
Pb2D Pb -0.0829 -0.1110(1) -0.0540(1)
Pb2B Pb -0.0829 0.1110(1) 0.4460(1)
Pb2F Pb 0.0829 -0.1110(1) 0.5540(1)
Pb1D Pb 0.0000 -0.1076(2) -0.2500
I1D I -0.2039(1) -0.1227(2) -0.0673(1)
I2D I -0.0805(1) -0.3095(2) -0.1835(1)
I3D I -0.0813(1) 0.0852(2) -0.1906(1)
N5D N -0.0878(10) -0.2879(22) 0.0500(12)
I1B I -0.2039(1) 0.1227(2) 0.4327(1)
I4F I -0.0612(1) -0.0994(2) 0.5797(1)
N5B N -0.0878(10) 0.2879(22) 0.5500(12)
I1F I 0.2039(1) -0.1227(2) 0.5673(1)
I2F I 0.0805(1) -0.3095(2) 0.6835(1)
I3F I 0.0813(1) 0.0852(2) 0.6906(1)
N5F N 0.0878(10) -0.2879(22) 0.4500(12)
I2F_2 I 0.0805(1) -0.3095(2) -0.3165(1)
I3F_2 I 0.0813(1) 0.0852(2) -0.3094(1)
I4F_2 I -0.0612(1) -0.0994(2) -0.4203(1)
C7D C -0.1193(11) -0.2601(25) 0.1123(14)
C9D C -0.1088(14) -0.4093(26) 0.0150(16)
C12D C -0.0305(11) -0.3081(32) 0.0792(18)
Pb1D_2 Pb 0.0000 -0.1076(2) 0.7500
C7B C -0.1193(11) 0.2601(25) 0.6123(14)
C9B C -0.1088(14) 0.4093(26) 0.5150(16)
C12B C -0.0305(11) 0.3081(32) 0.5792(18)
C7F C 0.1193(11) -0.2601(25) 0.3877(14)
C9F C 0.1088(14) -0.4093(26) 0.4850(16)
C12F C 0.0305(11) -0.3081(32) 0.4208(18)
N6D N -0.1183(9) -0.3659(19) 0.1690(11)
H14D H -0.114 -0.181 0.149
N7D N -0.1046(10) -0.5084(20) 0.0667(13)
H17D H -0.152 -0.400 -0.005
H18D H -0.086 -0.433 -0.032
N8D N -0.0269(9) -0.4131(18) 0.1331(13)
H23D H -0.038 -0.218 0.053
H24D H 0.008 -0.305 0.114
N6B N -0.1183(9) 0.3659(19) 0.6690(11)
H14B H -0.114 0.181 0.649
N7B N -0.1046(10) 0.5084(20) 0.5667(13)
H17B H -0.152 0.400 0.495
H18B H -0.086 0.433 0.468
N8B N -0.0269(9) 0.4131(18) 0.6331(13)
H23B H -0.038 0.218 0.553
H24B H 0.008 0.305 0.614
N6F N 0.1183(9) -0.3659(19) 0.3310(11)
H14F H 0.114 -0.181 0.351
N7F N 0.1046(10) -0.5084(20) 0.4333(13)
H17F H 0.152 -0.400 0.505
H18F H 0.086 -0.433 0.532
N8F N 0.0269(9) -0.4131(18) 0.3669(13)
H23F H 0.038 -0.218 0.447
H24F H -0.008 -0.305 0.386
C8D C -0.1355(11) -0.4837(28) 0.1302(17)
C11D C -0.0587(11) -0.3873(29) 0.1942(15)
C10D C -0.0477(11) -0.5254(27) 0.0952(17)
C8B C -0.1355(11) 0.4837(28) 0.6302(17)
C11B C -0.0587(11) 0.3873(29) 0.6942(15)
C10B C -0.0477(11) 0.5254(27) 0.5952(17)
C8F C 0.1355(11) -0.4837(28) 0.3698(17)
C11F C 0.0587(11) -0.3873(29) 0.3058(15)
C10F C 0.0477(11) -0.5254(27) 0.4048(17)
H15D H -0.170 -0.425 0.110
H16D H -0.150 -0.569 0.152
H21D H -0.056 -0.462 0.234
H22D H -0.043 -0.303 0.222
H19D H -0.011 -0.544 0.132
H20D H -0.068 -0.613 0.082
H15B H -0.170 0.425 0.610
H16B H -0.150 0.569 0.652
H21B H -0.056 0.462 0.734
H22B H -0.043 0.303 0.722
H19B H -0.011 0.544 0.632
H20B H -0.068 0.613 0.582
H15F H 0.170 -0.425 0.390
H16F H 0.150 -0.569 0.348
H21F H 0.056 -0.462 0.266
H22F H 0.043 -0.303 0.278
H19F H 0.011 -0.544 0.368
H20F H 0.068 -0.613 0.418
N1 N 0.2159(15) -0.3643(33) 0.0830(15)
N2 N 0.2727(11) -0.2521(22) 0.1812(14)
N3 N 0.1869(9) -0.3519(20) 0.2076(14)
N4 N 0.2659(10) -0.4727(22) 0.1842(14)
C1 C 0.2528(16) -0.2563(33) 0.1017(21)
C2 C 0.2256(13) -0.2390(27) 0.2226(18)
C3 C 0.1687(13) -0.3509(33) 0.1252(19)
C4 C 0.2189(14) -0.4638(29) 0.2272(21)
C5 C 0.3008(12) -0.3586(35) 0.2009(17)
C6 C 0.2457(14) -0.4748(36) 0.1051(18)
H1 H 0.230 -0.171 0.088
H2 H 0.288 -0.259 0.069
H3 H 0.203 -0.157 0.205
H4 H 0.239 -0.235 0.281
H5 H 0.167 -0.254 0.106
H6 H 0.129 -0.391 0.116
H7 H 0.233 -0.448 0.286
H8 H 0.195 -0.547 0.222
H9 H 0.313 -0.357 0.261
H10 H 0.336 -0.365 0.170
H11 H 0.291 -0.478 0.109
H12 H 0.230 -0.553 0.072
H13 H 0.152 -0.346 0.241
H25? H 0.155 0.311 -0.126
loop_
_geom_bond_atom_site_label_1
_geom_bond_atom_site_label_2
_geom_bond_site_symmetry_1
_geom_bond_site_symmetry_2
N1 C1 1_555 1_555
N2 C1 1_555 1_555
N3 C2 1_555 1_555
N4 C4 1_555 1_555
C1 H1 1_555 1_555
C2 N2 1_555 1_555
C3 N1 1_555 1_555
C4 N3 1_555 1_555
C5 N2 1_555 1_555
C6 N1 1_555 1_555
H2 C1 1_555 1_555
H3 C2 1_555 1_555
H4 C2 1_555 1_555
H5 C3 1_555 1_555
H6 C3 1_555 1_555
H7 C4 1_555 1_555
H8 C4 1_555 1_555
H9 C5 1_555 1_555
H10 C5 1_555 1_555
H11 C6 1_555 1_555
H12 C6 1_555 1_555
H13 N3 1_555 1_555
Pb1 I2 1_555 1_555
Pb2 I1 1_555 1_555
I2 Pb2 1_555 1_555
I3 Pb1 1_555 1_555
I4 Pb1 1_555 1_555
N5 Pb2 1_555 1_555
N6 C7 1_555 1_555
N7 C8 1_555 1_555
N8 C10 1_555 1_555
C7 N5 1_555 1_555
C8 N6 1_555 1_555
C9 N5 1_555 1_555
C10 N7 1_555 1_555
C11 N6 1_555 1_555
C12 N5 1_555 1_555
H14 C7 1_555 1_555
H15 C8 1_555 1_555
H16 C8 1_555 1_555
H17 C9 1_555 1_555
H18 C9 1_555 1_555
H19 C10 1_555 1_555
H20 C10 1_555 1_555
H21 C11 1_555 1_555
H22 C11 1_555 1_555
H23 C12 1_555 1_555
H24 C12 1_555 1_555
I2B Pb1 1_555 1_555
I3B Pb1 1_555 1_555
I4B Pb1 1_555 1_555
I4D Pb2 1_555 1_555
Pb2D I4 1_555 1_555
Pb2B I2B 1_555 1_555
Pb2F I4B 1_555 1_555
Pb1D I4D 1_555 1_555
I1D Pb2D 1_555 1_555
I2D Pb2D 1_555 1_555
I3D Pb2D 1_555 1_555
N5D Pb2D 1_555 1_555
I1B Pb2B 1_555 1_555
I4F Pb2B 1_555 1_555
N5B Pb2B 1_555 1_555
I1F Pb2F 1_555 1_555
I2F Pb2F 1_555 1_555
I3F Pb2F 1_555 1_555
N5F Pb2F 1_555 1_555
I2F_2 Pb1D 1_555 1_555
I3F_2 Pb1D 1_555 1_555
I4F_2 Pb1D 1_555 1_555
C7D N5D 1_555 1_555
C9D N5D 1_555 1_555
C12D N5D 1_555 1_555
Pb1D_2 I4F 1_555 1_555
C7B N5B 1_555 1_555
C9B N5B 1_555 1_555
C12B N5B 1_555 1_555
C7F N5F 1_555 1_555
C9F N5F 1_555 1_555
C12F N5F 1_555 1_555
N6D C7D 1_555 1_555
H14D C7D 1_555 1_555
N7D C9D 1_555 1_555
H17D C9D 1_555 1_555
H18D C9D 1_555 1_555
N8D C12D 1_555 1_555
H23D C12D 1_555 1_555
H24D C12D 1_555 1_555
N6B C7B 1_555 1_555
H14B C7B 1_555 1_555
N7B C9B 1_555 1_555
H17B C9B 1_555 1_555
H18B C9B 1_555 1_555
N8B C12B 1_555 1_555
H23B C12B 1_555 1_555
H24B C12B 1_555 1_555
N6F C7F 1_555 1_555
H14F C7F 1_555 1_555
N7F C9F 1_555 1_555
H17F C9F 1_555 1_555
H18F C9F 1_555 1_555
N8F C12F 1_555 1_555
H23F C12F 1_555 1_555
H24F C12F 1_555 1_555
C8D N6D 1_555 1_555
C11D N6D 1_555 1_555
C10D N7D 1_555 1_555
C8B N6B 1_555 1_555
C11B N6B 1_555 1_555
C10B N7B 1_555 1_555
C8F N6F 1_555 1_555
C11F N6F 1_555 1_555
C10F N7F 1_555 1_555
H15D C8D 1_555 1_555
H16D C8D 1_555 1_555
H21D C11D 1_555 1_555
H22D C11D 1_555 1_555
H19D C10D 1_555 1_555
H20D C10D 1_555 1_555
H15B C8B 1_555 1_555
H16B C8B 1_555 1_555
H21B C11B 1_555 1_555
H22B C11B 1_555 1_555
H19B C10B 1_555 1_555
H20B C10B 1_555 1_555
H15F C8F 1_555 1_555
H16F C8F 1_555 1_555
H21F C11F 1_555 1_555
H22F C11F 1_555 1_555
H19F C10F 1_555 1_555
H20F C10F 1_555 1_555
N3 C3 1_555 1_555
N4 C5 1_555 1_555
N4 C6 1_555 1_555
Pb2 I3 1_555 1_555
Pb2 I4 1_555 1_555
N7 C9 1_555 1_555
N8 C11 1_555 1_555
N8 C12 1_555 1_555
I3B Pb2B 1_555 1_555
I4B Pb2B 1_555 1_555
I4D Pb2D 1_555 1_555
Pb2F I4F 1_555 1_555
Pb1D I2D 1_555 1_555
Pb1D I3D 1_555 1_555
I2F Pb1D_2 1_555 1_555
I3F Pb1D_2 1_555 1_555
N7D C8D 1_555 1_555
N8D C11D 1_555 1_555
N8D C10D 1_555 1_555
N7B C8B 1_555 1_555
N8B C11B 1_555 1_555
N8B C10B 1_555 1_555
N7F C8F 1_555 1_555
N8F C11F 1_555 1_555
N8F C10F 1_555 1_555

#END
