
#######################################################################
#
#                 Cambridge Crystallographic Data Centre
#                                CCDC 
#
#######################################################################
#
# If this CIF has been generated from an entry in the Cambridge 
# Structural Database, then it will include bibliographic, chemical, 
# crystal, experimental, refinement or atomic coordinate data resulting 
# from the CCDC's data processing and validation procedures.
#
#######################################################################

data_JAWZOX
_symmetry_cell_setting           orthorhombic
_symmetry_space_group_name_H-M   'P b c a'
_symmetry_Int_Tables_number      61
_space_group_name_Hall           '-P 2ac 2ab'
loop_
_symmetry_equiv_pos_site_id
_symmetry_equiv_pos_as_xyz
1 x,y,z
2 1/2-x,-y,1/2+z
3 -x,1/2+y,1/2-z
4 1/2+x,1/2-y,-z
5 -x,-y,-z
6 1/2+x,y,1/2-z
7 x,1/2-y,1/2+z
8 1/2-x,1/2+y,z
_cell_length_a                   11.3793(9)
_cell_length_b                   9.6944(7)
_cell_length_c                   13.5323(10)
_cell_angle_alpha                90
_cell_angle_beta                 90
_cell_angle_gamma                90
_cell_volume                     1492.82
loop_
_atom_site_label
_atom_site_type_symbol
_atom_site_fract_x
_atom_site_fract_y
_atom_site_fract_z
I1 I 0.39798(6) 0.40011(7) 0.60116(5)
Cu1 Cu 0.65376(8) 0.26108(12) 0.49528(7)
N1 N 0.5027(6) 0.2019(8) 0.4587(5)
N2 N 0.3061(6) 0.1858(8) 0.4686(5)
C1 C 0.4713(8) 0.0949(10) 0.3969(6)
C2 C 0.5322(8) 0.0067(11) 0.3371(7)
H1 H 0.6151 0.0145 0.3307
C3 C 0.4711(10) -0.0943(12) 0.2860(8)
H2 H 0.5135 -0.1582 0.2465
C4 C 0.3501(11) -0.1046(12) 0.2909(8)
H3 H 0.3112 -0.1746 0.2542
C5 C 0.2843(9) -0.0145(11) 0.3486(7)
H4 H 0.2010 -0.0209 0.3505
C6 C 0.3431(7) 0.0848(10) 0.4030(6)
C7 C 0.4013(7) 0.2478(10) 0.4972(7)
Cu1C Cu 0.15376(8) 0.23892(12) 0.50472(7)
N2C N 0.8061(6) 0.3142(8) 0.5314(5)
loop_
_geom_bond_atom_site_label_1
_geom_bond_atom_site_label_2
_geom_bond_site_symmetry_1
_geom_bond_site_symmetry_2
I1 C7 1_555 1_555
Cu1 N1 1_555 1_555
N1 C1 1_555 1_555
N2 C6 1_555 1_555
C1 C2 1_555 1_555
C2 H1 1_555 1_555
C3 C2 1_555 1_555
H2 C3 1_555 1_555
C4 C3 1_555 1_555
H3 C4 1_555 1_555
C5 C4 1_555 1_555
H4 C5 1_555 1_555
C6 C1 1_555 1_555
C7 N1 1_555 1_555
Cu1C N2 1_555 1_555
N2C Cu1 1_555 1_555
N2 C7 1_555 1_555
C5 C6 1_555 1_555

#END
