
#######################################################################
#
#                 Cambridge Crystallographic Data Centre
#                                CCDC 
#
#######################################################################
#
# If this CIF has been generated from an entry in the Cambridge 
# Structural Database, then it will include bibliographic, chemical, 
# crystal, experimental, refinement or atomic coordinate data resulting 
# from the CCDC's data processing and validation procedures.
#
#######################################################################

data_JAXLOK
_symmetry_cell_setting           monoclinic
_symmetry_space_group_name_H-M   'C 2/c'
_symmetry_Int_Tables_number      15
_space_group_name_Hall           '-C 2yn'
loop_
_symmetry_equiv_pos_site_id
_symmetry_equiv_pos_as_xyz
1 x,y,z
2 1/2+x,1/2+y,z
3 -x,y,1/2-z
4 1/2-x,1/2+y,1/2-z
5 -x,-y,-z
6 1/2-x,1/2-y,-z
7 x,-y,1/2+z
8 1/2+x,1/2-y,1/2+z
_cell_length_a                   14.066(4)
_cell_length_b                   16.799(5)
_cell_length_c                   12.928(4)
_cell_angle_alpha                90
_cell_angle_beta                 93.580(5)
_cell_angle_gamma                90
_cell_volume                     3048.86
loop_
_atom_site_label
_atom_site_type_symbol
_atom_site_fract_x
_atom_site_fract_y
_atom_site_fract_z
Ag1 Ag 0.81232(2) 0.836357(18) 0.47089(2)
S1 S 1.11852(8) 0.75268(7) 0.37651(10)
S2 S 0.94829(7) 0.66954(6) 0.46915(8)
S3 S 0.88860(10) 0.72895(7) 0.82722(9)
S4 S 0.78505(6) 0.83439(6) 0.66276(7)
N1 N 0.9673(2) 0.8212(2) 0.4273(3)
N2 N 0.7947(2) 0.67641(18) 0.6670(2)
N3 N 0.7585(2) 1.01830(19) 0.4772(3)
O1 O 0.8321(2) 0.98526(18) 0.4508(3)
O2 O 0.7099(3) 0.9880(2) 0.5421(3)
O3 O 0.7343(3) 1.0822(2) 0.4384(3)
C1 C 1.0273(4) 0.8793(3) 0.3952(4)
H1 H 1.0108 0.9329 0.3951
C2 C 1.1107(4) 0.8539(3) 0.3640(4)
H2 H 1.1577 0.8864 0.3391
C3 C 1.0067(3) 0.7514(2) 0.4213(3)
C4 C 0.9950(3) 0.5863(2) 0.3990(3)
H3 H 1.0638 0.5860 0.4097
H4 H 0.9715 0.5372 0.4277
C5 C 0.9690(3) 0.58770(19) 0.2858(3)
H5 H 0.9047 0.5887 0.2643
C6 C 0.8278(3) 0.6114(3) 0.7233(3)
H6 H 0.8153 0.5595 0.7018
C7 C 0.8791(4) 0.6282(3) 0.8108(4)
H7 H 0.9059 0.5904 0.8565
C8 C 0.8224(2) 0.7423(2) 0.7131(3)
C9 C 0.8628(3) 0.9054(2) 0.7315(3)
H8 H 0.8558 0.8987 0.8052
H9 H 0.8407 0.9585 0.7131
C10 C 0.9652(3) 0.9005(2) 0.7131(3)
H10 H 0.9820 0.8972 0.6447
Ag1B Ag 1.18768(2) 0.836357(18) 1.02911(2)
Ag1E Ag 0.68768(2) 0.663643(18) 0.52911(2)
Ag1B_2 Ag 1.18768(2) 0.836357(18) 0.02911(2)
Ag1G Ag 1.31232(2) 0.663643(18) 0.97089(2)
S1B S 0.88148(8) 0.75268(7) 0.12349(10)
S2B S 1.05171(7) 0.66954(6) 0.03085(8)
S3B S 1.11140(10) 0.72895(7) 0.67278(9)
S4B S 1.21495(6) 0.83439(6) 0.83724(7)
N1B N 1.0327(2) 0.8212(2) 0.0727(3)
N1B_2 N 1.0327(2) 0.8212(2) 1.0727(3)
N2B N 1.2053(2) 0.67641(18) 0.8330(2)
N2E N 0.7053(2) 0.82359(18) 0.3330(2)
N2G N 1.2947(2) 0.82359(18) 1.1670(2)
N3B N 1.2415(2) 1.01830(19) 1.0228(3)
O1B O 1.1679(2) 0.98526(18) 1.0492(3)
O2B O 1.2901(3) 0.9880(2) 0.9579(3)
O3B O 1.2657(3) 1.0822(2) 1.0616(3)
C1B C 0.9727(4) 0.8793(3) 0.1048(4)
H1B H 0.9892 0.9329 0.1049
C2B C 0.8893(4) 0.8539(3) 0.1360(4)
H2B H 0.8423 0.8864 0.1609
C3B C 0.9933(3) 0.7514(2) 0.0787(3)
C4B C 1.0050(3) 0.5863(2) 0.1010(3)
H3B H 0.9362 0.5860 0.0903
H4B H 1.0285 0.5372 0.0723
C5B C 1.0310(3) 0.58770(19) 0.2142(3)
H5B H 1.0953 0.5887 0.2357
C6B C 1.1722(3) 0.6114(3) 0.7767(3)
H6B H 1.1847 0.5595 0.7982
C7B C 1.1209(4) 0.6282(3) 0.6892(4)
H7B H 1.0941 0.5904 0.6435
C8B C 1.1776(2) 0.7423(2) 0.7869(3)
C9B C 1.1372(3) 0.9054(2) 0.7685(3)
H8B H 1.1442 0.8987 0.6948
H9B H 1.1593 0.9585 0.7869
C10B C 1.0348(3) 0.9005(2) 0.7869(3)
H10B H 1.0180 0.8972 0.8553
loop_
_geom_bond_atom_site_label_1
_geom_bond_atom_site_label_2
_geom_bond_site_symmetry_1
_geom_bond_site_symmetry_2
Ag1 S4 1_555 1_555
S1 C2 1_555 1_555
S2 C3 1_555 1_555
S3 C7 1_555 1_555
S4 C8 1_555 1_555
N1 Ag1 1_555 1_555
N2 C6 1_555 1_555
N3 O1 1_555 1_555
O1 Ag1 1_555 1_555
O2 N3 1_555 1_555
O3 N3 1_555 1_555
C1 N1 1_555 1_555
H1 C1 1_555 1_555
C2 C1 1_555 1_555
H2 C2 1_555 1_555
C3 S1 1_555 1_555
C4 S2 1_555 1_555
H3 C4 1_555 1_555
H4 C4 1_555 1_555
C5 C4 1_555 1_555
H5 C5 1_555 1_555
C6 H6 1_555 1_555
C7 C6 1_555 1_555
H7 C7 1_555 1_555
C8 S3 1_555 1_555
C9 S4 1_555 1_555
H8 C9 1_555 1_555
H9 C9 1_555 1_555
C10 C9 1_555 1_555
H10 C10 1_555 1_555
Ag1B S4B 1_555 1_555
Ag1E N2 1_555 1_555
Ag1B_2 N1B 1_555 1_555
Ag1G N2B 1_555 1_555
S1B C2B 1_555 1_555
S2B C3B 1_555 1_555
S3B C7B 1_555 1_555
S4B C8B 1_555 1_555
N1B C1B 1_555 1_555
N1B_2 Ag1B 1_555 1_555
N2B C6B 1_555 1_555
N2E Ag1 1_555 1_555
N2G Ag1B 1_555 1_555
N3B O1B 1_555 1_555
O1B Ag1B 1_555 1_555
O2B N3B 1_555 1_555
O3B N3B 1_555 1_555
C1B H1B 1_555 1_555
C2B C1B 1_555 1_555
H2B C2B 1_555 1_555
C3B S1B 1_555 1_555
C4B S2B 1_555 1_555
H3B C4B 1_555 1_555
H4B C4B 1_555 1_555
C5B C5 1_555 1_555
H5B C5B 1_555 1_555
C6B H6B 1_555 1_555
C7B C6B 1_555 1_555
H7B C7B 1_555 1_555
C8B S3B 1_555 1_555
C9B S4B 1_555 1_555
H8B C9B 1_555 1_555
H9B C9B 1_555 1_555
C10B C10 1_555 1_555
H10B C10B 1_555 1_555
N1 C3 1_555 1_555
N2 C8 1_555 1_555
N1B C3B 1_555 1_555
N2B C8B 1_555 1_555
C4B C5B 1_555 1_555
C9B C10B 1_555 1_555

#END
