
#######################################################################
#
#                 Cambridge Crystallographic Data Centre
#                                CCDC 
#
#######################################################################
#
# If this CIF has been generated from an entry in the Cambridge 
# Structural Database, then it will include bibliographic, chemical, 
# crystal, experimental, refinement or atomic coordinate data resulting 
# from the CCDC's data processing and validation procedures.
#
#######################################################################

data_JAXNIG
_symmetry_cell_setting           monoclinic
_symmetry_space_group_name_H-M   'P 21/n'
_symmetry_Int_Tables_number      14
_space_group_name_Hall           '-P 2yn'
loop_
_symmetry_equiv_pos_site_id
_symmetry_equiv_pos_as_xyz
1 x,y,z
2 1/2-x,1/2+y,1/2-z
3 -x,-y,-z
4 1/2+x,1/2-y,1/2+z
_cell_length_a                   7.7961(16)
_cell_length_b                   19.346(4)
_cell_length_c                   10.732(2)
_cell_angle_alpha                90
_cell_angle_beta                 101.78(3)
_cell_angle_gamma                90
_cell_volume                     1584.55
loop_
_atom_site_label
_atom_site_type_symbol
_atom_site_fract_x
_atom_site_fract_y
_atom_site_fract_z
Zn1 Zn 0.55321(3) 0.171003(14) 0.69136(3)
C1 C 0.6901(3) 0.15219(12) 0.9807(2)
C2 C 0.7874(4) 0.09133(14) 0.9873(3)
H1 H 0.7980 0.0668 0.9147
C3 C 0.8664(4) 0.06966(16) 1.1067(3)
H2 H 0.9315 0.0290 1.1150
C4 C 0.8528(4) 0.10642(17) 1.2169(3)
H3 H 0.9110 0.0898 1.2956
C5 C 0.7573(4) 0.16556(16) 1.2124(3)
H4 H 0.7470 0.1897 1.2855
C6 C 0.6758(3) 0.18757(13) 1.0907(2)
C7 C 0.7177(3) 0.31540(13) 0.6532(2)
C8 C 0.7323(3) 0.35627(13) 0.5496(2)
C9 C 0.8252(4) 0.41858(14) 0.5624(3)
H5 H 0.8359 0.4453 0.4923
C10 C 0.8993(4) 0.43799(15) 0.6840(3)
H6 H 0.9611 0.4794 0.6973
C11 C 0.8844(4) 0.39678(15) 0.7896(3)
H7 H 0.9369 0.4119 0.8707
C12 C 0.7956(3) 0.33538(14) 0.7771(3)
H8 H 0.7875 0.3083 0.8473
C13 C 0.1163(3) 0.04787(12) 0.5713(2)
C14 C 0.1753(3) -0.00192(12) 0.4983(2)
H9 H 0.2939 -0.0032 0.4963
C15 C -0.0636(3) 0.05046(12) 0.5729(2)
C16 C 0.2529(3) 0.09310(12) 0.6542(2)
C17 C -0.1404(3) 0.10511(12) 0.6436(2)
N1 N 0.5948(3) 0.18824(11) 0.8794(2)
N2 N 0.5242(3) 0.24233(11) 0.9224(2)
N3 N 0.5714(3) 0.24229(11) 1.0477(2)
H10 H 0.5400 0.2732 1.0961
N4 N 0.6183(3) 0.25884(11) 0.6069(2)
N5 N 0.5729(3) 0.26344(12) 0.4822(2)
N6 N 0.6404(3) 0.32113(11) 0.4472(2)
H11 H 0.6280 0.3348 0.3697
O1 O 0.3295(2) 0.13703(10) 0.59607(17)
O2 O 0.2901(3) 0.08211(12) 0.76823(19)
O3 O -0.0518(2) 0.15673(9) 0.68603(18)
O4 O -0.2980(2) 0.09541(9) 0.6544(2)
Zn1B Zn -0.55321(3) -0.171003(14) 0.30864(3)
Zn1_2 Zn -0.44679(3) 0.171003(14) 0.69136(3)
Zn1B_2 Zn 0.44679(3) -0.171003(14) 0.30864(3)
C1B C -0.6901(3) -0.15219(12) 0.0193(2)
C2B C -0.7874(4) -0.09133(14) 0.0127(3)
H1B H -0.7980 -0.0668 0.0853
C3B C -0.8664(4) -0.06966(16) -0.1067(3)
H2B H -0.9315 -0.0290 -0.1150
C4B C -0.8528(4) -0.10642(17) -0.2169(3)
H3B H -0.9110 -0.0898 -0.2956
C5B C -0.7573(4) -0.16556(16) -0.2124(3)
H4B H -0.7470 -0.1897 -0.2855
C6B C -0.6758(3) -0.18757(13) -0.0907(2)
C7B C -0.7177(3) -0.31540(13) 0.3468(2)
C8B C -0.7323(3) -0.35627(13) 0.4504(2)
C9B C -0.8252(4) -0.41858(14) 0.4376(3)
H5B H -0.8359 -0.4453 0.5077
C10B C -0.8993(4) -0.43799(15) 0.3160(3)
H6B H -0.9611 -0.4794 0.3027
C11B C -0.8844(4) -0.39678(15) 0.2104(3)
H7B H -0.9369 -0.4119 0.1293
C12B C -0.7956(3) -0.33538(14) 0.2229(3)
H8B H -0.7875 -0.3083 0.1527
C13B C -0.1163(3) -0.04787(12) 0.4287(2)
C14B C -0.1753(3) 0.00192(12) 0.5017(2)
H9B H -0.2939 0.0032 0.5037
C15B C 0.0636(3) -0.05046(12) 0.4271(2)
C16B C -0.2529(3) -0.09310(12) 0.3458(2)
C17B C 0.1404(3) -0.10511(12) 0.3564(2)
N1B N -0.5948(3) -0.18824(11) 0.1206(2)
N2B N -0.5242(3) -0.24233(11) 0.0776(2)
N3B N -0.5714(3) -0.24229(11) -0.0477(2)
H10B H -0.5400 -0.2732 -0.0961
N4B N -0.6183(3) -0.25884(11) 0.3931(2)
N5B N -0.5729(3) -0.26344(12) 0.5178(2)
N6B N -0.6404(3) -0.32113(11) 0.5528(2)
H11B H -0.6280 -0.3348 0.6303
O1B O -0.3295(2) -0.13703(10) 0.40393(17)
O2B O -0.2901(3) -0.08211(12) 0.23177(19)
O3B O 0.0518(2) -0.15673(9) 0.31397(18)
O4B O 0.2980(2) -0.09541(9) 0.3456(2)
O4_2 O 0.7020(2) 0.09541(9) 0.6544(2)
O4B_2 O -0.7020(2) -0.09541(9) 0.3456(2)
loop_
_geom_bond_atom_site_label_1
_geom_bond_atom_site_label_2
_geom_bond_site_symmetry_1
_geom_bond_site_symmetry_2
Zn1 N1 1_555 1_555
C1 C2 1_555 1_555
C2 H1 1_555 1_555
C3 C2 1_555 1_555
H2 C3 1_555 1_555
C4 C3 1_555 1_555
H3 C4 1_555 1_555
C5 C4 1_555 1_555
H4 C5 1_555 1_555
C6 C1 1_555 1_555
C7 C8 1_555 1_555
C8 C9 1_555 1_555
C9 H5 1_555 1_555
C10 C9 1_555 1_555
H6 C10 1_555 1_555
C11 C10 1_555 1_555
H7 C11 1_555 1_555
C12 C7 1_555 1_555
H8 C12 1_555 1_555
C13 C14 1_555 1_555
C14 H9 1_555 1_555
C15 C13 1_555 1_555
C16 C13 1_555 1_555
C17 C15 1_555 1_555
N1 C1 1_555 1_555
N2 N1 1_555 1_555
N3 C6 1_555 1_555
H10 N3 1_555 1_555
N4 Zn1 1_555 1_555
N5 N4 1_555 1_555
N6 C8 1_555 1_555
H11 N6 1_555 1_555
O1 Zn1 1_555 1_555
O2 C16 1_555 1_555
O3 C17 1_555 1_555
O4 C17 1_555 1_555
Zn1B N1B 1_555 1_555
Zn1_2 O4 1_555 1_555
Zn1B_2 O4B 1_555 1_555
C1B C2B 1_555 1_555
C2B H1B 1_555 1_555
C3B C2B 1_555 1_555
H2B C3B 1_555 1_555
C4B C3B 1_555 1_555
H3B C4B 1_555 1_555
C5B C4B 1_555 1_555
H4B C5B 1_555 1_555
C6B C1B 1_555 1_555
C7B C8B 1_555 1_555
C8B C9B 1_555 1_555
C9B H5B 1_555 1_555
C10B C9B 1_555 1_555
H6B C10B 1_555 1_555
C11B C10B 1_555 1_555
H7B C11B 1_555 1_555
C12B C7B 1_555 1_555
H8B C12B 1_555 1_555
C13B C14B 1_555 1_555
C14B C15 1_555 1_555
H9B C14B 1_555 1_555
C15B C14 1_555 1_555
C16B C13B 1_555 1_555
C17B C15B 1_555 1_555
N1B C1B 1_555 1_555
N2B N1B 1_555 1_555
N3B C6B 1_555 1_555
H10B N3B 1_555 1_555
N4B Zn1B 1_555 1_555
N5B N4B 1_555 1_555
N6B C8B 1_555 1_555
H11B N6B 1_555 1_555
O1B Zn1B 1_555 1_555
O2B C16B 1_555 1_555
O3B C17B 1_555 1_555
O4B C17B 1_555 1_555
O4_2 Zn1 1_555 1_555
O4B_2 Zn1B 1_555 1_555
C5 C6 1_555 1_555
C7 N4 1_555 1_555
C11 C12 1_555 1_555
C16 O1 1_555 1_555
N2 N3 1_555 1_555
N5 N6 1_555 1_555
C5B C6B 1_555 1_555
C7B N4B 1_555 1_555
C11B C12B 1_555 1_555
C13B C15B 1_555 1_555
C16B O1B 1_555 1_555
N2B N3B 1_555 1_555
N5B N6B 1_555 1_555

#END
