
#######################################################################
#
#                 Cambridge Crystallographic Data Centre
#                                CCDC 
#
#######################################################################
#
# If this CIF has been generated from an entry in the Cambridge 
# Structural Database, then it will include bibliographic, chemical, 
# crystal, experimental, refinement or atomic coordinate data resulting 
# from the CCDC's data processing and validation procedures.
#
#######################################################################

data_JAXVUA
_symmetry_cell_setting           triclinic
_symmetry_space_group_name_H-M   'P -1'
_symmetry_Int_Tables_number      2
_space_group_name_Hall           '-P 1'
loop_
_symmetry_equiv_pos_site_id
_symmetry_equiv_pos_as_xyz
1 x,y,z
2 -x,-y,-z
_cell_length_a                   9.5977(19)
_cell_length_b                   11.444(2)
_cell_length_c                   14.018(3)
_cell_angle_alpha                78.50(3)
_cell_angle_beta                 71.77(3)
_cell_angle_gamma                86.82(3)
_cell_volume                     1433.01
loop_
_atom_site_label
_atom_site_type_symbol
_atom_site_fract_x
_atom_site_fract_y
_atom_site_fract_z
C1 C 0.1398(4) -0.0721(3) 0.6035(3)
H1 H 0.2274 -0.0324 0.5914
C2 C 0.1445(3) -0.1929(3) 0.5985(3)
H2 H 0.2344 -0.2312 0.5813
C3 C 0.0162(3) -0.2560(2) 0.6189(2)
C4 C 0.0172(3) -0.3861(2) 0.6193(2)
C5 C 0.1488(3) -0.4487(3) 0.5949(3)
H3 H 0.2382 -0.4088 0.5747
C6 C 0.1447(4) -0.5714(3) 0.6010(3)
H4 H 0.2331 -0.6120 0.5854
C7 C -0.1036(4) -0.5738(3) 0.6493(3)
H5 H -0.1912 -0.6157 0.6670
C8 C -0.1109(3) -0.4520(3) 0.6470(3)
H6 H -0.2015 -0.4146 0.6640
C9 C -0.1118(4) -0.1917(3) 0.6400(3)
H7 H -0.2010 -0.2292 0.6526
C10 C -0.1088(4) -0.0711(3) 0.6427(3)
H8 H -0.1972 -0.0305 0.6576
C11 C 0.0809(4) 0.9459(3) 0.8643(3)
H9 H 0.1695 0.9859 0.8482
C12 C 0.0828(4) 0.8243(3) 0.8657(3)
H10 H 0.1723 0.7853 0.8498
C13 C -0.0446(3) 0.7600(2) 0.8898(2)
C14 C -0.1731(4) 0.8254(3) 0.9153(4)
H11 H -0.2636 0.7875 0.9343
C15 C -0.1665(4) 0.9470(3) 0.9123(4)
H12 H -0.2542 0.9882 0.9305
C16 C -0.0471(3) 0.6311(2) 0.8877(2)
C17 C -0.1771(3) 0.5671(3) 0.9122(3)
H13 H -0.2669 0.6052 0.9314
C18 C -0.1730(4) 0.4465(3) 0.9081(3)
H14 H -0.2614 0.4061 0.9248
C19 C 0.0823(3) 0.5667(3) 0.8594(3)
H15 H 0.1721 0.6052 0.8423
C20 C 0.0793(4) 0.4471(3) 0.8565(3)
H16 H 0.1676 0.4070 0.8368
N1 N 0.0145(3) -0.0110(2) 0.6251(2)
N2 N 0.0202(3) -0.6339(2) 0.6280(2)
N3 N -0.0489(3) 0.3859(2) 0.8816(2)
N4 N -0.0430(3) 1.0072(2) 0.8853(2)
O2 O 0.2573(3) 0.2058(2) 0.7862(2)
O3 O -0.2916(3) 0.1788(2) 0.6767(3)
Ag1 Ag -0.03558(3) 0.19760(2) 0.87674(2)
Ag2 Ag 0.01754(3) 0.176703(19) 0.62945(2)
O4 O 0.5124(3) 0.2715(2) 0.0258(2)
O5 O 0.6040(5) 0.0954(3) 0.0659(2)
O6 O 0.3257(3) 0.1651(2) 0.58441(18)
O7 O 0.5394(3) 0.2597(3) 0.54520(19)
C21 C 0.5497(4) 0.1911(3) 0.0880(3)
C22 C 0.5208(3) 0.2063(3) 0.1980(2)
C23 C 0.5048(3) 0.1035(3) 0.2722(3)
H17 H 0.5147 0.0299 0.2523
C24 C 0.4740(3) 0.1069(3) 0.3770(2)
H18 H 0.4573 0.0358 0.4248
C25 C 0.4684(3) 0.2129(3) 0.4095(2)
C26 C 0.4417(3) 0.2131(3) 0.5223(2)
C27 C 0.4912(3) 0.3228(2) 0.3338(2)
C28 C 0.5114(3) 0.3202(2) 0.2292(2)
C29 C 0.5239(3) 0.4317(3) 0.1592(3)
H19 H 0.5351 0.4322 0.0908
C30 C 0.5197(4) 0.5376(3) 0.1914(3)
H20 H 0.5274 0.6090 0.1447
C31 C 0.5039(4) 0.5401(3) 0.2944(3)
H21 H 0.5038 0.6127 0.3147
C32 C 0.4888(3) 0.4365(3) 0.3641(3)
H22 H 0.4768 0.4389 0.4321
H25 H 0.287(5) 0.190(4) 0.729(4)
H26 H 0.318(5) 0.184(4) 0.817(3)
H27 H -0.342(6) 0.188(5) 0.636(4)
H28 H -0.342(5) 0.163(4) 0.737(3)
N2_2 N 0.0202(3) 0.3661(2) 0.6280(2)
N4_2 N -0.0430(3) 0.0072(2) 0.8853(2)
Ag1_2 Ag -0.03558(3) 1.19760(2) 0.87674(2)
Ag2_2 Ag 0.01754(3) -0.823297(19) 0.62945(2)
O1 O 0.5048(4) 0.8595(3) 0.1276(2)
H23 H 0.474(5) 0.841(4) 0.081(4)
H24 H 0.520(4) 0.928(3) 0.103(3)
loop_
_geom_bond_atom_site_label_1
_geom_bond_atom_site_label_2
_geom_bond_site_symmetry_1
_geom_bond_site_symmetry_2
C1 H1 1_555 1_555
C2 C1 1_555 1_555
H2 C2 1_555 1_555
C3 C2 1_555 1_555
C4 C3 1_555 1_555
C5 C4 1_555 1_555
H3 C5 1_555 1_555
C6 C5 1_555 1_555
H4 C6 1_555 1_555
C7 H5 1_555 1_555
C8 C4 1_555 1_555
H6 C8 1_555 1_555
C9 C3 1_555 1_555
H7 C9 1_555 1_555
C10 C9 1_555 1_555
H8 C10 1_555 1_555
C11 H9 1_555 1_555
C12 C11 1_555 1_555
H10 C12 1_555 1_555
C13 C12 1_555 1_555
C14 C13 1_555 1_555
H11 C14 1_555 1_555
C15 C14 1_555 1_555
H12 C15 1_555 1_555
C16 C13 1_555 1_555
C17 C16 1_555 1_555
H13 C17 1_555 1_555
C18 C17 1_555 1_555
H14 C18 1_555 1_555
C19 C16 1_555 1_555
H15 C19 1_555 1_555
C20 C19 1_555 1_555
H16 C20 1_555 1_555
N1 C1 1_555 1_555
N2 C6 1_555 1_555
N3 C18 1_555 1_555
N4 C11 1_555 1_555
O1 H23 1_555 1_555
O2 Ag1 1_555 1_555
O3 Ag2 1_555 1_555
Ag1 N3 1_555 1_555
Ag2 N1 1_555 1_555
O4 C21 1_555 1_555
O5 C21 1_555 1_555
O6 Ag2 1_555 1_555
O7 C26 1_555 1_555
C21 C22 1_555 1_555
C22 C23 1_555 1_555
C23 H17 1_555 1_555
C24 C23 1_555 1_555
H18 C24 1_555 1_555
C25 C24 1_555 1_555
C26 O6 1_555 1_555
C27 C25 1_555 1_555
C28 C22 1_555 1_555
C29 C28 1_555 1_555
H19 C29 1_555 1_555
C30 C29 1_555 1_555
H20 C30 1_555 1_555
C31 C30 1_555 1_555
H21 C31 1_555 1_555
C32 C27 1_555 1_555
H22 C32 1_555 1_555
H24 O1 1_555 1_555
H25 O2 1_555 1_555
H26 O2 1_555 1_555
H27 O3 1_555 1_555
H28 O3 1_555 1_555
N2_2 Ag2 1_555 1_555
N4_2 Ag1 1_555 1_555
Ag1_2 N4 1_555 1_555
Ag2_2 N2 1_555 1_555
C7 C8 1_555 1_555
C7 N2 1_555 1_555
C10 N1 1_555 1_555
C15 N4 1_555 1_555
C20 N3 1_555 1_555
Ag1 Ag2 1_555 1_555
C25 C26 1_555 1_555
C27 C28 1_555 1_555
C31 C32 1_555 1_555

#END
