
#######################################################################
#
#                 Cambridge Crystallographic Data Centre
#                                CCDC 
#
#######################################################################
#
# If this CIF has been generated from an entry in the Cambridge 
# Structural Database, then it will include bibliographic, chemical, 
# crystal, experimental, refinement or atomic coordinate data resulting 
# from the CCDC's data processing and validation procedures.
#
#######################################################################

data_JAXXIQ
_symmetry_cell_setting           monoclinic
_symmetry_space_group_name_H-M   'P 21/c'
_symmetry_Int_Tables_number      14
_space_group_name_Hall           '-P 2ybc'
loop_
_symmetry_equiv_pos_site_id
_symmetry_equiv_pos_as_xyz
1 x,y,z
2 -x,1/2+y,1/2-z
3 -x,-y,-z
4 x,1/2-y,1/2+z
_cell_length_a                   8.8145(3)
_cell_length_b                   11.8211(5)
_cell_length_c                   25.8870(10)
_cell_angle_alpha                90
_cell_angle_beta                 97.0460(10)
_cell_angle_gamma                90
_cell_volume                     2676.98
loop_
_atom_site_label
_atom_site_type_symbol
_atom_site_fract_x
_atom_site_fract_y
_atom_site_fract_z
La1 La 0.24487(2) 0.48747(2) 0.498420(10)
S1 S 0.5311(2) 0.39430(10) 0.69500(4)
S2 S 0.4673(2) 0.08040(10) 0.55240(5)
S3 S -0.0317(2) 0.21670(10) 0.34125(4)
O1 O 0.3454(3) 0.4736(3) 0.59650(10)
O2 O 0.5419(3) 0.4989(2) 0.55470(10)
O3 O 0.1503(3) 0.3031(2) 0.53760(10)
O4 O 0.3790(3) 0.2962(2) 0.51390(10)
O5 O -0.0392(3) 0.4333(2) 0.45580(10)
O6 O 0.1484(3) 0.3640(3) 0.41880(10)
O7 O 0.3398(3) 0.6877(3) 0.52140(10)
O8 O 0.1468(3) 0.6245(3) 0.42760(10)
N1 N 0.7112(5) 0.2556(4) 0.6491(2)
N2 N 0.6024(5) 0.1919(4) 0.7227(2)
N3 N 0.3869(4) -0.0388(3) 0.63130(10)
N4 N 0.5952(4) -0.1016(3) 0.58960(10)
N5 N 0.0257(4) 0.4134(3) 0.29690(10)
N6 N 0.1111(5) 0.2424(4) 0.2629(2)
C1 C 0.4845(4) 0.4851(3) 0.59590(10)
C2 C 0.5888(5) 0.4845(4) 0.6462(2)
C3 C 0.6261(5) 0.2679(4) 0.6867(2)
C4 C 0.7790(7) 0.1555(5) 0.6472(2)
C5 C 0.7640(7) 0.0724(5) 0.6819(2)
C6 C 0.6737(7) 0.0952(5) 0.7191(2)
C7 C 0.2768(4) 0.2565(3) 0.5380(2)
C8 C 0.3067(5) 0.1532(4) 0.5705(2)
C9 C 0.4812(5) -0.0313(3) 0.5962(2)
C10 C 0.4121(5) -0.1244(4) 0.6640(2)
C11 C 0.5247(6) -0.2007(4) 0.6611(2)
C12 C 0.6136(5) -0.1871(4) 0.6220(2)
C13 C 0.0111(4) 0.3731(3) 0.42190(10)
C14 C -0.1050(5) 0.3133(4) 0.3845(2)
C15 C 0.0412(5) 0.3026(4) 0.2959(2)
C16 C 0.0885(6) 0.4681(5) 0.2604(2)
C17 C 0.1640(7) 0.4162(5) 0.2243(2)
C18 C 0.1719(7) 0.3016(5) 0.2273(2)
H1 H 0.275(3) 0.740(3) 0.512(2)
H2 H 0.425(2) 0.707(3) 0.512(2)
H3 H 0.211(3) 0.656(4) 0.4100(10)
H4 H 0.064(3) 0.612(4) 0.4080(10)
H11 H 0.5967 0.5611 0.6597
H12 H 0.6900 0.4616 0.6391
H13 H 0.8393 0.1422 0.6207
H14 H 0.8133 0.0032 0.6803
H15 H 0.6612 0.0392 0.7434
H16 H 0.2179 0.1041 0.5659
H17 H 0.3254 0.1743 0.6069
H18 H 0.3496 -0.1325 0.6902
H19 H 0.5409 -0.2601 0.6847
H20 H 0.6894 -0.2401 0.6182
H21 H -0.1651 0.3698 0.3640
H22 H -0.1736 0.2725 0.4044
H23 H 0.0805 0.5466 0.2593
H24 H 0.2076 0.4567 0.1991
H25 H 0.2224 0.2630 0.2031
La1B La 0.75513(2) 0.51253(2) 0.501580(10)
La1B_2 La -0.24487(2) 0.51253(2) 0.501580(10)
O2B O 0.4581(3) 0.5011(2) 0.44530(10)
O5B O 0.0392(3) 0.5667(2) 0.54420(10)
O9 O 0.0981(4) 0.8355(3) 0.50420(10)
H5 H 0.117(6) 0.890(3) 0.485(2)
H6 H 0.041(6) 0.788(3) 0.487(2)
O10 O -0.0958(4) 0.5996(3) 0.35340(10)
H7 H -0.184(3) 0.588(4) 0.363(2)
H8 H -0.082(5) 0.553(4) 0.329(2)
O11 O 0.1230(6) 1.0288(4) 0.4489(2)
H9 H 0.064(6) 1.080(4) 0.458(3)
H10 H 0.203(4) 1.058(5) 0.439(3)
loop_
_geom_bond_atom_site_label_1
_geom_bond_atom_site_label_2
_geom_bond_site_symmetry_1
_geom_bond_site_symmetry_2
La1 O1 1_555 1_555
S1 C2 1_555 1_555
S2 C8 1_555 1_555
S3 C14 1_555 1_555
O1 C1 1_555 1_555
O2 La1 1_555 1_555
O3 La1 1_555 1_555
O4 La1 1_555 1_555
O5 La1 1_555 1_555
O6 La1 1_555 1_555
O7 La1 1_555 1_555
O8 La1 1_555 1_555
O9 H5 1_555 1_555
O10 H7 1_555 1_555
O11 H9 1_555 1_555
N1 C3 1_555 1_555
N2 C3 1_555 1_555
N3 C9 1_555 1_555
N4 C9 1_555 1_555
N5 C15 1_555 1_555
N6 C15 1_555 1_555
C1 O2 1_555 1_555
C2 C1 1_555 1_555
C3 S1 1_555 1_555
C4 N1 1_555 1_555
C5 C4 1_555 1_555
C6 N2 1_555 1_555
C7 O3 1_555 1_555
C8 C7 1_555 1_555
C9 S2 1_555 1_555
C10 N3 1_555 1_555
C11 C10 1_555 1_555
C12 N4 1_555 1_555
C13 O5 1_555 1_555
C14 C13 1_555 1_555
C15 S3 1_555 1_555
C16 N5 1_555 1_555
C17 C16 1_555 1_555
C18 N6 1_555 1_555
H1 O7 1_555 1_555
H2 O7 1_555 1_555
H3 O8 1_555 1_555
H4 O8 1_555 1_555
H6 O9 1_555 1_555
H8 O10 1_555 1_555
H10 O11 1_555 1_555
H11 C2 1_555 1_555
H12 C2 1_555 1_555
H13 C4 1_555 1_555
H14 C5 1_555 1_555
H15 C6 1_555 1_555
H16 C8 1_555 1_555
H17 C8 1_555 1_555
H18 C10 1_555 1_555
H19 C11 1_555 1_555
H20 C12 1_555 1_555
H21 C14 1_555 1_555
H22 C14 1_555 1_555
H23 C16 1_555 1_555
H24 C17 1_555 1_555
H25 C18 1_555 1_555
La1B O2 1_555 1_555
La1B_2 O5 1_555 1_555
O2B La1 1_555 1_555
O5B La1 1_555 1_555
O4 C7 1_555 1_555
O6 C13 1_555 1_555
C5 C6 1_555 1_555
C11 C12 1_555 1_555
C17 C18 1_555 1_555
La1B O2B 1_555 1_555
La1B_2 O5B 1_555 1_555

#END
