
#######################################################################
#
#                 Cambridge Crystallographic Data Centre
#                                CCDC 
#
#######################################################################
#
# If this CIF has been generated from an entry in the Cambridge 
# Structural Database, then it will include bibliographic, chemical, 
# crystal, experimental, refinement or atomic coordinate data resulting 
# from the CCDC's data processing and validation procedures.
#
#######################################################################

data_JAXYAJ
_symmetry_cell_setting           triclinic
_symmetry_space_group_name_H-M   'P -1'
_symmetry_Int_Tables_number      2
_space_group_name_Hall           '-P 1'
loop_
_symmetry_equiv_pos_site_id
_symmetry_equiv_pos_as_xyz
1 x,y,z
2 -x,-y,-z
_cell_length_a                   11.1489(6)
_cell_length_b                   11.9699(6)
_cell_length_c                   12.5693(6)
_cell_angle_alpha                99.3020(10)
_cell_angle_beta                 93.6900(10)
_cell_angle_gamma                107.1550(10)
_cell_volume                     1570.48
loop_
_atom_site_label
_atom_site_type_symbol
_atom_site_fract_x
_atom_site_fract_y
_atom_site_fract_z
Cu1 Cu 0.18297(6) 0.36682(6) 1.21624(5)
Cu2 Cu 0.5000 0.5000 1.0000
S1 S -0.08891(12) 0.38480(12) 0.67725(10)
N1 N 0.0885(4) 0.2634(4) 1.3118(3)
N2 N -0.0283(5) 0.1999(4) 1.4381(4)
H1 H -0.0675 0.2022 1.4947
N3 N 0.3475(4) 0.3837(4) 1.3016(4)
N4 N 0.4885(5) 0.3356(5) 1.4015(4)
H2 H 0.5202 0.2945 1.4385
N5 N 0.5021(4) 0.6571(4) 0.9636(4)
N6 N 0.4524(6) 0.7702(6) 0.8570(5)
H3 H 0.4125 0.7902 0.8061
O1 O 0.2765(3) 0.4331(4) 1.1046(3)
O2 O 0.3212(3) 0.4406(4) 0.9388(3)
O3 O 0.0252(3) 0.3294(3) 1.1263(3)
O4 O -0.1757(4) 0.4552(4) 0.6815(3)
O5 O 0.0276(4) 0.4398(4) 0.6355(3)
O6 O -0.1529(4) 0.2634(3) 0.6171(3)
C1 C 0.0522(5) 0.1398(5) 1.2926(4)
C2 C 0.0822(6) 0.0598(6) 1.2137(5)
H4 H 0.1318 0.0858 1.1603
C3 C 0.0352(8) -0.0601(6) 1.2178(7)
H5 H 0.0548 -0.1156 1.1669
C4 C -0.0404(7) -0.0991(6) 1.2960(6)
H6 H -0.0707 -0.1803 1.2959
C5 C -0.0719(6) -0.0212(6) 1.3739(5)
H7 H -0.1239 -0.0479 1.4255
C6 C -0.0224(5) 0.0993(5) 1.3719(4)
C7 C 0.0381(5) 0.2941(5) 1.3987(4)
H8 H 0.0473 0.3726 1.4296
C8 C 0.4599(5) 0.4778(6) 1.3205(4)
C9 C 0.4917(6) 0.5878(6) 1.2901(5)
H9 H 0.4336 0.6107 1.2494
C10 C 0.6126(7) 0.6616(7) 1.3226(6)
H10 H 0.6366 0.7361 1.3033
C11 C 0.7014(6) 0.6285(8) 1.3841(6)
H11 H 0.7828 0.6813 1.4038
C12 C 0.6717(6) 0.5226(7) 1.4151(6)
H12 H 0.7304 0.5008 1.4562
C13 C 0.5499(6) 0.4475(6) 1.3831(5)
C14 C 0.3711(6) 0.3028(6) 1.3513(5)
H13 H 0.3117 0.2296 1.3515
C15 C 0.5868(5) 0.7720(5) 0.9938(5)
C16 C 0.6869(7) 0.8229(6) 1.0766(6)
H14 H 0.7096 0.7774 1.1229
C17 C 0.7509(8) 0.9415(7) 1.0877(8)
H15 H 0.8176 0.9770 1.1428
C18 C 0.7184(9) 1.0092(7) 1.0190(9)
H16 H 0.7646 1.0895 1.0287
C19 C 0.6211(10) 0.9629(7) 0.9371(8)
H17 H 0.6000 1.0094 0.8909
C20 C 0.5560(7) 0.8442(6) 0.9265(6)
C21 C 0.4249(6) 0.6621(6) 0.8824(5)
H18 H 0.3582 0.5972 0.8463
C22 C 0.2406(5) 0.4197(4) 1.0050(4)
C23 C 0.1051(5) 0.3828(4) 0.9614(4)
C24 C 0.0071(5) 0.3452(4) 1.0261(4)
C25 C -0.1185(5) 0.3222(5) 0.9793(4)
H19 H -0.1842 0.2978 1.0208
C26 C -0.1467(5) 0.3346(5) 0.8754(4)
H20 H -0.2303 0.3193 0.8472
C27 C -0.0496(5) 0.3703(4) 0.8115(4)
C28 C 0.0741(5) 0.3941(4) 0.8544(4)
H21 H 0.1385 0.4182 0.8117
Cu1A Cu 0.81703(6) 0.63318(6) 0.78376(5)
Cu1A_2 Cu -0.18297(6) 0.63318(6) 0.78376(5)
Cu1_2 Cu 1.18297(6) 0.36682(6) 1.21624(5)
S1A S 1.08891(12) 0.61520(12) 1.32275(10)
N1A N 0.9115(4) 0.7366(4) 0.6882(3)
N2A N 1.0283(5) 0.8001(4) 0.5619(4)
H1A H 1.0675 0.7978 0.5053
N3A N 0.6525(4) 0.6163(4) 0.6984(4)
N4A N 0.5115(5) 0.6644(5) 0.5985(4)
H2A H 0.4798 0.7055 0.5615
N5A N 0.4979(4) 0.3429(4) 1.0364(4)
N6A N 0.5476(6) 0.2298(6) 1.1430(5)
H3A H 0.5875 0.2098 1.1939
O1A O 0.7235(3) 0.5669(4) 0.8954(3)
O2A O 0.6788(3) 0.5594(4) 1.0612(3)
O3A O 0.9748(3) 0.6706(3) 0.8737(3)
O4A O 1.1757(4) 0.5448(4) 1.3185(3)
O4A_2 O 0.1757(4) 0.5448(4) 1.3185(3)
O4_2 O 0.8243(4) 0.4552(4) 0.6815(3)
O5A O 0.9724(4) 0.5602(4) 1.3645(3)
O6A O 1.1529(4) 0.7366(3) 1.3829(3)
C1A C 0.9478(5) 0.8602(5) 0.7074(4)
C2A C 0.9178(6) 0.9402(6) 0.7863(5)
H4A H 0.8682 0.9142 0.8397
C3A C 0.9648(8) 1.0601(6) 0.7822(7)
H5A H 0.9452 1.1156 0.8331
C4A C 1.0404(7) 1.0991(6) 0.7040(6)
H6A H 1.0707 1.1803 0.7041
C5A C 1.0719(6) 1.0212(6) 0.6261(5)
H7A H 1.1239 1.0479 0.5745
C6A C 1.0224(5) 0.9007(5) 0.6281(4)
C7A C 0.9619(5) 0.7059(5) 0.6013(4)
H8A H 0.9527 0.6274 0.5704
C8A C 0.5401(5) 0.5222(6) 0.6795(4)
C9A C 0.5083(6) 0.4122(6) 0.7099(5)
H9A H 0.5664 0.3893 0.7506
C10A C 0.3874(7) 0.3384(7) 0.6774(6)
H10A H 0.3634 0.2639 0.6967
C11A C 0.2986(6) 0.3715(8) 0.6159(6)
H11A H 0.2172 0.3187 0.5962
C12A C 0.3283(6) 0.4774(7) 0.5849(6)
H12A H 0.2696 0.4992 0.5438
C13A C 0.4501(6) 0.5525(6) 0.6169(5)
C14A C 0.6289(6) 0.6972(6) 0.6487(5)
H13A H 0.6883 0.7704 0.6485
C15A C 0.4132(5) 0.2280(5) 1.0062(5)
C16A C 0.3131(7) 0.1771(6) 0.9234(6)
H14A H 0.2904 0.2226 0.8771
C17A C 0.2491(8) 0.0585(7) 0.9123(8)
H15A H 0.1824 0.0230 0.8572
C18A C 0.2816(9) -0.0092(7) 0.9810(9)
H16A H 0.2354 -0.0895 0.9713
C19A C 0.3789(10) 0.0371(7) 1.0629(8)
H17A H 0.4000 -0.0094 1.1091
C20A C 0.4440(7) 0.1558(6) 1.0735(6)
C21A C 0.5751(6) 0.3379(6) 1.1176(5)
H18A H 0.6418 0.4028 1.1537
C22A C 0.7594(5) 0.5803(4) 0.9950(4)
C23A C 0.8949(5) 0.6172(4) 1.0386(4)
C24A C 0.9929(5) 0.6548(4) 0.9739(4)
C25A C 1.1185(5) 0.6778(5) 1.0207(4)
H19A H 1.1842 0.7022 0.9792
C26A C 1.1467(5) 0.6654(5) 1.1246(4)
H20A H 1.2303 0.6807 1.1528
C27A C 1.0496(5) 0.6297(4) 1.1885(4)
C28A C 0.9259(5) 0.6059(4) 1.1456(4)
H21A H 0.8615 0.5818 1.1883
O7 O 0.1746(4) 0.6734(5) 0.7493(4)
H22 H 0.121(5) 0.678(6) 0.794(5)
H23 H 0.147(6) 0.607(4) 0.705(5)
O8 O 0.5983(7) 0.2051(7) 1.5237(8)
H24 H 0.557(6) 0.146(6) 1.551(6)
H25 H 0.674(3) 0.231(6) 1.555(6)
O9 O 0.3372(10) 0.8597(10) 0.6903(8)
H26 H 0.379(8) 0.933(2) 0.693(6)
H27 H 0.320(9) 0.825(6) 0.623(2)
O10 O 0.300(2) 0.015(2) 1.399(3)
H28 H 0.330(15) 0.033(17) 1.465(3)
H29 H 0.345(16) -0.019(19) 1.362(10)
O12 O 0.501(3) 0.906(2) 1.287(2)
O11? O 0.575(6) 0.963(5) 1.395(5)
loop_
_geom_bond_atom_site_label_1
_geom_bond_atom_site_label_2
_geom_bond_site_symmetry_1
_geom_bond_site_symmetry_2
Cu1 N1 1_555 1_555
Cu2 N5 1_555 1_555
S1 O4 1_555 1_555
N1 C1 1_555 1_555
N2 H1 1_555 1_555
N3 Cu1 1_555 1_555
N4 H2 1_555 1_555
N5 C15 1_555 1_555
N6 H3 1_555 1_555
O1 Cu1 1_555 1_555
O2 Cu2 1_555 1_555
O3 Cu1 1_555 1_555
O4 Cu1A_2 1_555 1_555
O5 S1 1_555 1_555
O6 S1 1_555 1_555
O7 H22 1_555 1_555
O8 H24 1_555 1_555
O9 H26 1_555 1_555
O10 H28 1_555 1_555
C1 C2 1_555 1_555
C2 H4 1_555 1_555
C3 C2 1_555 1_555
H5 C3 1_555 1_555
C4 C3 1_555 1_555
H6 C4 1_555 1_555
C5 C4 1_555 1_555
H7 C5 1_555 1_555
C6 N2 1_555 1_555
C7 N1 1_555 1_555
H8 C7 1_555 1_555
C8 N3 1_555 1_555
C9 C8 1_555 1_555
H9 C9 1_555 1_555
C10 C9 1_555 1_555
H10 C10 1_555 1_555
C11 C10 1_555 1_555
H11 C11 1_555 1_555
C12 C11 1_555 1_555
H12 C12 1_555 1_555
C13 N4 1_555 1_555
C14 N3 1_555 1_555
H13 C14 1_555 1_555
C15 C16 1_555 1_555
C16 H14 1_555 1_555
C17 C16 1_555 1_555
H15 C17 1_555 1_555
C18 C17 1_555 1_555
H16 C18 1_555 1_555
C19 C18 1_555 1_555
H17 C19 1_555 1_555
C20 N6 1_555 1_555
C21 N5 1_555 1_555
H18 C21 1_555 1_555
C22 O1 1_555 1_555
C23 C22 1_555 1_555
C24 O3 1_555 1_555
C25 C24 1_555 1_555
H19 C25 1_555 1_555
C26 C25 1_555 1_555
H20 C26 1_555 1_555
C27 S1 1_555 1_555
C28 C23 1_555 1_555
H21 C28 1_555 1_555
H23 O7 1_555 1_555
H25 O8 1_555 1_555
H27 O9 1_555 1_555
H29 O10 1_555 1_555
Cu1A N1A 1_555 1_555
Cu1_2 O4A 1_555 1_555
S1A O4A 1_555 1_555
N1A C1A 1_555 1_555
N2A H1A 1_555 1_555
N3A Cu1A 1_555 1_555
N4A H2A 1_555 1_555
N5A Cu2 1_555 1_555
N6A H3A 1_555 1_555
O1A Cu1A 1_555 1_555
O2A Cu2 1_555 1_555
O3A Cu1A 1_555 1_555
O4A_2 Cu1 1_555 1_555
O4_2 Cu1A 1_555 1_555
O5A S1A 1_555 1_555
O6A S1A 1_555 1_555
C1A C2A 1_555 1_555
C2A H4A 1_555 1_555
C3A C2A 1_555 1_555
H5A C3A 1_555 1_555
C4A C3A 1_555 1_555
H6A C4A 1_555 1_555
C5A C4A 1_555 1_555
H7A C5A 1_555 1_555
C6A N2A 1_555 1_555
C7A N1A 1_555 1_555
H8A C7A 1_555 1_555
C8A N3A 1_555 1_555
C9A C8A 1_555 1_555
H9A C9A 1_555 1_555
C10A C9A 1_555 1_555
H10A C10A 1_555 1_555
C11A C10A 1_555 1_555
H11A C11A 1_555 1_555
C12A C11A 1_555 1_555
H12A C12A 1_555 1_555
C13A N4A 1_555 1_555
C14A N3A 1_555 1_555
H13A C14A 1_555 1_555
C15A N5A 1_555 1_555
C16A C15A 1_555 1_555
H14A C16A 1_555 1_555
C17A C16A 1_555 1_555
H15A C17A 1_555 1_555
C18A C17A 1_555 1_555
H16A C18A 1_555 1_555
C19A C18A 1_555 1_555
H17A C19A 1_555 1_555
C20A N6A 1_555 1_555
C21A N5A 1_555 1_555
H18A C21A 1_555 1_555
C22A O1A 1_555 1_555
C23A C22A 1_555 1_555
C24A O3A 1_555 1_555
C25A C24A 1_555 1_555
H19A C25A 1_555 1_555
C26A C25A 1_555 1_555
H20A C26A 1_555 1_555
C27A S1A 1_555 1_555
C28A C23A 1_555 1_555
H21A C28A 1_555 1_555
N2 C7 1_555 1_555
N4 C14 1_555 1_555
N6 C21 1_555 1_555
O2 C22 1_555 1_555
C1 C6 1_555 1_555
C5 C6 1_555 1_555
C8 C13 1_555 1_555
C12 C13 1_555 1_555
C15 C20 1_555 1_555
C19 C20 1_555 1_555
C23 C24 1_555 1_555
C26 C27 1_555 1_555
C27 C28 1_555 1_555
N2A C7A 1_555 1_555
N4A C14A 1_555 1_555
N6A C21A 1_555 1_555
O2A C22A 1_555 1_555
C1A C6A 1_555 1_555
C5A C6A 1_555 1_555
C8A C13A 1_555 1_555
C12A C13A 1_555 1_555
C15A C20A 1_555 1_555
C19A C20A 1_555 1_555
C23A C24A 1_555 1_555
C26A C27A 1_555 1_555
C27A C28A 1_555 1_555

#END
