
#######################################################################
#
#                 Cambridge Crystallographic Data Centre
#                                CCDC 
#
#######################################################################
#
# If this CIF has been generated from an entry in the Cambridge 
# Structural Database, then it will include bibliographic, chemical, 
# crystal, experimental, refinement or atomic coordinate data resulting 
# from the CCDC's data processing and validation procedures.
#
#######################################################################

data_JAYBIV
_symmetry_cell_setting           orthorhombic
_symmetry_space_group_name_H-M   'P 21 21 21'
_symmetry_Int_Tables_number      19
_space_group_name_Hall           'P 2ac 2ab'
loop_
_symmetry_equiv_pos_site_id
_symmetry_equiv_pos_as_xyz
1 x,y,z
2 1/2-x,-y,1/2+z
3 -x,1/2+y,1/2-z
4 1/2+x,1/2-y,-z
_cell_length_a                   5.2027(2)
_cell_length_b                   17.8203(7)
_cell_length_c                   19.0427(7)
_cell_angle_alpha                90
_cell_angle_beta                 90
_cell_angle_gamma                90
_cell_volume                     1765.52
loop_
_atom_site_label
_atom_site_type_symbol
_atom_site_fract_x
_atom_site_fract_y
_atom_site_fract_z
Mn1 Mn -0.34685(11) -0.12161(3) -0.20001(3)
C1 C 0.0842(8) -0.1940(2) -0.1000(2)
H1 H 0.1224 -0.1438 -0.0913
C2 C 0.2291(8) -0.2477(2) -0.0668(2)
H2 H 0.3609 -0.2343 -0.0363
C3 C 0.1749(10) -0.3216(2) -0.0796(2)
H3 H 0.2714 -0.3594 -0.0586
C4 C -0.0281(10) -0.3395(2) -0.1248(2)
H4 H -0.0728 -0.3893 -0.1330
C5 C -0.1608(9) -0.28202(19) -0.15726(18)
C6 C -0.3784(8) -0.29537(19) -0.20848(19)
C7 C -0.4372(10) -0.3659(2) -0.2342(3)
H5 H -0.3464 -0.4075 -0.2184
C8 C -0.6229(11) -0.3745(3) -0.2815(3)
H6 H -0.6586 -0.4216 -0.3000
C9 C -0.7636(10) -0.3121(2) -0.3031(2)
H7 H -0.8995 -0.3167 -0.3346
C10 C -0.6933(9) -0.2433(2) -0.2760(2)
H8 H -0.7815 -0.2008 -0.2911
C11 C -0.2500(8) -0.07133(19) -0.41750(18)
C12 C -0.1816(8) -0.02221(19) -0.47076(17)
H9 H -0.0459 0.0109 -0.4637
C13 C -0.3101(8) -0.02138(19) -0.53371(17)
C14 C -0.5143(8) -0.07141(19) -0.5454(2)
H10 H -0.6049 -0.0710 -0.5874
C15 C -0.5765(7) -0.1213(2) -0.49242(18)
C16 C -0.4481(7) -0.1214(2) -0.42819(18)
H11 H -0.4955 -0.1548 -0.3930
C17 C -0.1105(8) -0.0701(2) -0.34769(18)
C18 C -0.2403(8) 0.03297(19) -0.59051(18)
N1 N -0.5054(6) -0.23477(16) -0.22944(16)
N2 N -0.1083(7) -0.20954(16) -0.14387(15)
N3 N -0.7812(7) -0.17540(18) -0.50420(19)
O1 O -0.1988(5) -0.11251(14) -0.30076(13)
O2 O 0.0807(6) -0.02900(16) -0.34146(14)
O3 O -0.0578(6) 0.07735(15) -0.58220(14)
O4 O -0.3735(6) 0.03312(13) -0.64702(11)
O5 O -0.8605(8) -0.18234(19) -0.56449(19)
O6 O -0.8612(7) -0.21084(16) -0.45479(17)
O7 O -0.6710(6) -0.05471(16) -0.22202(13)
H12 H -0.792(6) -0.047(2) -0.1915(14)
H13 H -0.730(7) -0.047(2) -0.2625(11)
Mn1A Mn -0.15315(11) 0.12161(3) -0.70001(3)
O3A O -0.4422(6) -0.07735(15) -0.08220(14)
O4A O -0.1265(6) -0.03312(13) -0.14702(11)
loop_
_geom_bond_atom_site_label_1
_geom_bond_atom_site_label_2
_geom_bond_site_symmetry_1
_geom_bond_site_symmetry_2
Mn1 N1 1_555 1_555
C1 H1 1_555 1_555
C2 C1 1_555 1_555
H2 C2 1_555 1_555
C3 C2 1_555 1_555
H3 C3 1_555 1_555
C4 C3 1_555 1_555
H4 C4 1_555 1_555
C5 C4 1_555 1_555
C6 C5 1_555 1_555
C7 C6 1_555 1_555
H5 C7 1_555 1_555
C8 C7 1_555 1_555
H6 C8 1_555 1_555
C9 C8 1_555 1_555
H7 C9 1_555 1_555
C10 C9 1_555 1_555
H8 C10 1_555 1_555
C11 C12 1_555 1_555
C12 H9 1_555 1_555
C13 C12 1_555 1_555
C14 C13 1_555 1_555
H10 C14 1_555 1_555
C15 C14 1_555 1_555
C16 C11 1_555 1_555
H11 C16 1_555 1_555
C17 C11 1_555 1_555
C18 C13 1_555 1_555
N1 C6 1_555 1_555
N2 Mn1 1_555 1_555
N3 C15 1_555 1_555
O1 Mn1 1_555 1_555
O2 C17 1_555 1_555
O3 C18 1_555 1_555
O4 C18 1_555 1_555
O5 N3 1_555 1_555
O6 N3 1_555 1_555
O7 Mn1 1_555 1_555
H12 O7 1_555 1_555
H13 O7 1_555 1_555
Mn1A O3 1_555 1_555
O3A Mn1 1_555 1_555
O4A Mn1 1_555 1_555
C1 N2 1_555 1_555
C5 N2 1_555 1_555
C10 N1 1_555 1_555
C15 C16 1_555 1_555
C17 O1 1_555 1_555
O4 Mn1A 1_555 1_555

#END
