
#######################################################################
#
#                 Cambridge Crystallographic Data Centre
#                                CCDC 
#
#######################################################################
#
# If this CIF has been generated from an entry in the Cambridge 
# Structural Database, then it will include bibliographic, chemical, 
# crystal, experimental, refinement or atomic coordinate data resulting 
# from the CCDC's data processing and validation procedures.
#
#######################################################################

data_JAYHIB
_symmetry_cell_setting           triclinic
_symmetry_space_group_name_H-M   'P -1'
_symmetry_Int_Tables_number      2
_space_group_name_Hall           '-P 1'
loop_
_symmetry_equiv_pos_site_id
_symmetry_equiv_pos_as_xyz
1 x,y,z
2 -x,-y,-z
_cell_length_a                   7.7274(9)
_cell_length_b                   8.0856(10)
_cell_length_c                   12.1577(15)
_cell_angle_alpha                84.323(2)
_cell_angle_beta                 77.986(2)
_cell_angle_gamma                69.0510(10)
_cell_volume                     693.622
loop_
_atom_site_label
_atom_site_type_symbol
_atom_site_fract_x
_atom_site_fract_y
_atom_site_fract_z
Cu1 Cu 0.68114(5) -0.01567(4) 0.53365(3)
S1 S 0.37014(10) 0.86273(9) 0.75326(6)
O1 O 0.4375(3) 0.1623(2) 0.52290(16)
O2 O 0.1919(3) 0.4047(3) 0.5692(2)
O3 O 0.7722(3) 0.1435(3) 0.58471(18)
O4 O 0.5170(3) 0.9412(3) 0.72505(17)
O5 O 0.2143(3) 0.9439(3) 0.69380(19)
O6 O 0.3065(3) 0.8564(3) 0.87512(18)
O7 O 0.9193(3) -0.2037(3) 0.54179(19)
C1 C 0.3580(4) 0.3169(4) 0.5692(2)
C2 C 0.4745(4) 0.3874(4) 0.6220(2)
C3 C 0.6655(4) 0.2983(4) 0.6289(2)
C4 C 0.7546(4) 0.3803(4) 0.6844(3)
H1 H 0.8773 0.3188 0.6950
C5 C 0.6642(4) 0.5492(4) 0.7232(3)
H2 H 0.7269 0.6022 0.7578
C6 C 0.4788(4) 0.6410(4) 0.7107(2)
C7 C 0.3851(4) 0.5608(4) 0.6622(2)
H3 H 0.2602 0.6221 0.6558
H8 H 1.010(4) -0.176(4) 0.503(3)
H9 H 0.910(5) -0.291(3) 0.514(3)
Cu1A Cu 0.31886(5) 0.01567(4) 0.46635(3)
Cu1_2 Cu 0.68114(5) 0.98433(4) 0.53365(3)
Cu1A_2 Cu 0.31886(5) 1.01567(4) 0.46635(3)
O1A O 0.5625(3) -0.1623(2) 0.47710(16)
O4_2 O 0.5170(3) -0.0588(3) 0.72505(17)
O5A O 0.7857(3) 0.0561(3) 0.30620(19)
N1 N 0.8377(5) 0.9201(5) 0.8250(3)
N2 N 0.9922(4) 0.7920(4) 0.9703(2)
C8 C 0.8390(4) 0.8352(4) 0.9245(3)
C9 C 0.6856(5) 0.7889(5) 0.9853(3)
H4 H 0.5758 0.8171 0.9564
C10 C 0.7003(5) 0.7030(5) 1.0859(3)
H5 H 0.5996 0.6717 1.1259
C11 C 0.8632(5) 0.6602(5) 1.1310(3)
H6 H 0.8727 0.6012 1.2004
C12 C 1.0056(5) 0.7070(5) 1.0711(3)
H7 H 1.1156 0.6805 1.0995
H10 H 1.083(4) 0.819(5) 0.938(3)
H11 H 0.928(4) 0.941(5) 0.786(3)
H12 H 0.746(4) 0.935(5) 0.797(3)
loop_
_geom_bond_atom_site_label_1
_geom_bond_atom_site_label_2
_geom_bond_site_symmetry_1
_geom_bond_site_symmetry_2
Cu1 O1 1_555 1_555
S1 O4 1_555 1_555
N1 C8 1_555 1_555
N2 C8 1_555 1_555
O1 C1 1_555 1_555
O2 C1 1_555 1_555
O3 Cu1 1_555 1_555
O4 Cu1_2 1_555 1_555
O5 S1 1_555 1_555
O6 S1 1_555 1_555
O7 Cu1 1_555 1_555
C1 C2 1_555 1_555
C2 C3 1_555 1_555
C3 O3 1_555 1_555
C4 C3 1_555 1_555
H1 C4 1_555 1_555
C5 C4 1_555 1_555
H2 C5 1_555 1_555
C6 S1 1_555 1_555
C7 C2 1_555 1_555
H3 C7 1_555 1_555
C8 C9 1_555 1_555
C9 H4 1_555 1_555
C10 C9 1_555 1_555
H5 C10 1_555 1_555
C11 C10 1_555 1_555
H6 C11 1_555 1_555
C12 N2 1_555 1_555
H7 C12 1_555 1_555
H8 O7 1_555 1_555
H9 O7 1_555 1_555
H10 N2 1_555 1_555
H11 N1 1_555 1_555
H12 N1 1_555 1_555
Cu1A O1 1_555 1_555
Cu1A_2 O5 1_555 1_555
O1A Cu1 1_555 1_555
O4_2 Cu1 1_555 1_555
O5A Cu1 1_555 1_555
C5 C6 1_555 1_555
C6 C7 1_555 1_555
C11 C12 1_555 1_555
Cu1A O1A 1_555 1_555

#END
