
#######################################################################
#
#                 Cambridge Crystallographic Data Centre
#                                CCDC 
#
#######################################################################
#
# If this CIF has been generated from an entry in the Cambridge 
# Structural Database, then it will include bibliographic, chemical, 
# crystal, experimental, refinement or atomic coordinate data resulting 
# from the CCDC's data processing and validation procedures.
#
#######################################################################

data_JAYHUN
_symmetry_cell_setting           monoclinic
_symmetry_space_group_name_H-M   'P 21/n'
_symmetry_Int_Tables_number      14
_space_group_name_Hall           '-P 2yn'
loop_
_symmetry_equiv_pos_site_id
_symmetry_equiv_pos_as_xyz
1 x,y,z
2 1/2-x,1/2+y,1/2-z
3 -x,-y,-z
4 1/2+x,1/2-y,1/2+z
_cell_length_a                   11.320(2)
_cell_length_b                   10.122(2)
_cell_length_c                   17.690(4)
_cell_angle_alpha                90
_cell_angle_beta                 108.28(3)
_cell_angle_gamma                90
_cell_volume                     1924.65
loop_
_atom_site_label
_atom_site_type_symbol
_atom_site_fract_x
_atom_site_fract_y
_atom_site_fract_z
Zn1 Zn 0.81994(3) 0.85610(2) 0.638080(16)
N1 N 0.83595(18) 0.94390(18) 0.54190(11)
N2 N 0.8654(2) 1.0925(2) 0.46075(13)
N3 N 0.6879(2) 0.93999(19) 0.67522(12)
N4 N 0.5715(2) 1.0849(2) 0.70885(13)
O1 O 0.74722(16) 0.67990(15) 0.61690(10)
O2 O 0.88327(16) 0.57569(17) 0.57119(11)
O3 O 0.41153(16) 0.34660(15) 0.60449(10)
O4 O 0.5044(2) 0.55168(17) 0.77574(11)
O5 O 0.53639(17) 0.33804(15) 0.76396(10)
C1 C 0.8836(2) 1.0616(2) 0.53713(14)
C2 C 0.7855(3) 0.8995(3) 0.46476(16)
C3 C 0.8039(3) 0.9909(3) 0.41486(16)
C4 C 0.6684(3) 1.0666(2) 0.68361(16)
C5 C 0.5970(3) 0.8758(3) 0.69686(19)
C6 C 0.5250(3) 0.9644(3) 0.71772(18)
C7 C 0.7841(2) 0.5805(2) 0.58667(12)
C8 C 0.6974(2) 0.46405(19) 0.56867(12)
C9 C 0.7124(2) 0.3630(2) 0.51925(14)
C10 C 0.6264(2) 0.2610(2) 0.49892(14)
C11 C 0.5274(2) 0.2583(2) 0.52797(13)
C12 C 0.5130(2) 0.35829(19) 0.57860(13)
C13 C 0.5978(2) 0.46134(19) 0.59890(12)
C14 C 0.3914(2) 0.4480(2) 0.65444(13)
C15 C 0.4839(2) 0.4475(2) 0.73782(13)
H1 H 0.9237 1.1150 0.5804
H2 H 0.7452 0.8191 0.4498
H3 H 0.7794 0.9859 0.3596
H4 H 0.7166 1.1344 0.6731
H5 H 0.5868 0.7846 0.6970
H6 H 0.4569 0.9468 0.7349
H7 H 0.7799 0.3638 0.4999
H8 H 0.6359 0.1940 0.4653
H9 H 0.4699 0.1898 0.5139
H10 H 0.5881 0.5283 0.6325
H11 H 0.3082 0.4386 0.6582
H12 H 0.3957 0.5328 0.6299
H19 H 0.8886 1.1643 0.4436
H20 H 0.5429 1.1599 0.7180
Zn1A Zn 0.68006(3) 0.35610(2) 0.861920(16)
O5A O 0.96361(17) 0.83804(15) 0.73604(10)
O6 O 0.3214(2) 0.7494(3) 0.77136(14)
H13 H 0.378(3) 0.698(4) 0.766(2)
H14 H 0.347(4) 0.787(4) 0.8165(14)
O7 O 0.8766(2) 1.3122(2) 0.36988(13)
H15 H 0.9506(15) 1.338(4) 0.379(2)
H16 H 0.843(3) 1.292(4) 0.3218(9)
O8 O 0.9507(2) 0.6445(2) 0.42593(15)
H17 H 0.999(3) 0.580(3) 0.426(2)
H18 H 0.911(4) 0.628(3) 0.459(2)
loop_
_geom_bond_atom_site_label_1
_geom_bond_atom_site_label_2
_geom_bond_site_symmetry_1
_geom_bond_site_symmetry_2
Zn1 N1 1_555 1_555
N1 C1 1_555 1_555
N2 C1 1_555 1_555
N3 Zn1 1_555 1_555
N4 C4 1_555 1_555
O1 Zn1 1_555 1_555
O2 C7 1_555 1_555
O3 C12 1_555 1_555
O4 C15 1_555 1_555
O5 C15 1_555 1_555
O6 H13 1_555 1_555
O7 H15 1_555 1_555
O8 H17 1_555 1_555
C1 H1 1_555 1_555
C2 N1 1_555 1_555
C3 N2 1_555 1_555
C4 N3 1_555 1_555
C5 N3 1_555 1_555
C6 N4 1_555 1_555
C7 O1 1_555 1_555
C8 C7 1_555 1_555
C9 C8 1_555 1_555
C10 C9 1_555 1_555
C11 C10 1_555 1_555
C12 C11 1_555 1_555
C13 C8 1_555 1_555
C14 O3 1_555 1_555
C15 C14 1_555 1_555
H2 C2 1_555 1_555
H3 C3 1_555 1_555
H4 C4 1_555 1_555
H5 C5 1_555 1_555
H6 C6 1_555 1_555
H7 C9 1_555 1_555
H8 C10 1_555 1_555
H9 C11 1_555 1_555
H10 C13 1_555 1_555
H11 C14 1_555 1_555
H12 C14 1_555 1_555
H14 O6 1_555 1_555
H16 O7 1_555 1_555
H18 O8 1_555 1_555
H19 N2 1_555 1_555
H20 N4 1_555 1_555
Zn1A O5 1_555 1_555
O5A Zn1 1_555 1_555
C2 C3 1_555 1_555
C5 C6 1_555 1_555
C12 C13 1_555 1_555

#END
