
#######################################################################
#
#                 Cambridge Crystallographic Data Centre
#                                CCDC 
#
#######################################################################
#
# If this CIF has been generated from an entry in the Cambridge 
# Structural Database, then it will include bibliographic, chemical, 
# crystal, experimental, refinement or atomic coordinate data resulting 
# from the CCDC's data processing and validation procedures.
#
#######################################################################

data_JAYLOL
_symmetry_cell_setting           monoclinic
_symmetry_space_group_name_H-M   'P 21/c'
_symmetry_Int_Tables_number      14
_space_group_name_Hall           '-P 2ybc'
loop_
_symmetry_equiv_pos_site_id
_symmetry_equiv_pos_as_xyz
1 x,y,z
2 -x,1/2+y,1/2-z
3 -x,-y,-z
4 x,1/2-y,1/2+z
_cell_length_a                   15.1660(10)
_cell_length_b                   9.9706(9)
_cell_length_c                   12.9090(10)
_cell_angle_alpha                90
_cell_angle_beta                 112.3980(10)
_cell_angle_gamma                90
_cell_volume                     1804.76
loop_
_atom_site_label
_atom_site_type_symbol
_atom_site_fract_x
_atom_site_fract_y
_atom_site_fract_z
Sn1 Sn 0.53347(2) 0.63476(2) 0.72950(2)
Sn2 Sn 0.91202(2) 0.76816(3) 0.53089(2)
S1 S 0.97226(7) 0.89690(10) 0.70470(9)
O1 O 0.6369(2) 0.7731(2) 0.7144(2)
O2 O 0.5692(2) 0.9546(3) 0.7481(3)
C1 C 0.4092(3) 0.7198(4) 0.6071(3)
C2 C 0.5974(3) 0.4816(4) 0.6678(4)
C3 C 0.5749(3) 0.6566(4) 0.9046(3)
C4 C 0.8410(4) 0.9130(5) 0.4061(4)
C5 C 0.8195(3) 0.6139(5) 0.5465(4)
C6 C 1.0383(4) 0.6920(6) 0.5200(4)
C7 C 0.6331(2) 0.8995(3) 0.7258(3)
C8 C 0.7113(2) 0.9783(3) 0.7097(3)
C9 C 0.7038(3) 1.1154(3) 0.6917(3)
C10 C 0.7758(3) 1.1838(4) 0.6754(4)
C11 C 0.8563(3) 1.1175(4) 0.6771(3)
C12 C 0.8659(2) 0.9807(4) 0.6962(3)
C13 C 0.7923(2) 0.9116(3) 0.7113(3)
H1 H 0.3668 0.6495 0.5667
H2 H 0.4267 0.7731 0.5560
H3 H 0.3778 0.7754 0.6433
H4 H 0.6159 0.5176 0.6101
H5 H 0.5525 0.4101 0.6375
H6 H 0.6526 0.4477 0.7278
H7 H 0.5850 0.7498 0.9241
H8 H 0.6329 0.6078 0.9424
H9 H 0.5256 0.6220 0.9267
H10 H 0.7877 0.8718 0.3481
H11 H 0.8844 0.9476 0.3746
H12 H 0.8188 0.9851 0.4392
H13 H 0.8039 0.5534 0.4842
H14 H 0.7621 0.6537 0.5473
H15 H 0.8510 0.5655 0.6150
H16 H 1.0621 0.6194 0.5721
H17 H 1.0853 0.7619 0.5376
H18 H 1.0248 0.6602 0.4453
H19 H 0.6500 1.1610 0.6906
H20 H 0.7704 1.2758 0.6630
H21 H 0.9044 1.1651 0.6653
H22 H 0.7972 0.8193 0.7227
Sn1A Sn 0.46653(2) 1.13476(2) 0.77050(2)
O2A O 0.4308(2) 0.4546(3) 0.7519(3)
loop_
_geom_bond_atom_site_label_1
_geom_bond_atom_site_label_2
_geom_bond_site_symmetry_1
_geom_bond_site_symmetry_2
Sn1 O1 1_555 1_555
Sn2 S1 1_555 1_555
S1 C12 1_555 1_555
O1 C7 1_555 1_555
O2 C7 1_555 1_555
C1 Sn1 1_555 1_555
C2 Sn1 1_555 1_555
C3 Sn1 1_555 1_555
C4 Sn2 1_555 1_555
C5 Sn2 1_555 1_555
C6 Sn2 1_555 1_555
C7 C8 1_555 1_555
C8 C9 1_555 1_555
C9 C10 1_555 1_555
C10 C11 1_555 1_555
C11 C12 1_555 1_555
C12 C13 1_555 1_555
C13 C8 1_555 1_555
H1 C1 1_555 1_555
H2 C1 1_555 1_555
H3 C1 1_555 1_555
H4 C2 1_555 1_555
H5 C2 1_555 1_555
H6 C2 1_555 1_555
H7 C3 1_555 1_555
H8 C3 1_555 1_555
H9 C3 1_555 1_555
H10 C4 1_555 1_555
H11 C4 1_555 1_555
H12 C4 1_555 1_555
H13 C5 1_555 1_555
H14 C5 1_555 1_555
H15 C5 1_555 1_555
H16 C6 1_555 1_555
H17 C6 1_555 1_555
H18 C6 1_555 1_555
H19 C9 1_555 1_555
H20 C10 1_555 1_555
H21 C11 1_555 1_555
H22 C13 1_555 1_555
Sn1A O2 1_555 1_555
O2A Sn1 1_555 1_555

#END
