
#######################################################################
#
#                 Cambridge Crystallographic Data Centre
#                                CCDC 
#
#######################################################################
#
# If this CIF has been generated from an entry in the Cambridge 
# Structural Database, then it will include bibliographic, chemical, 
# crystal, experimental, refinement or atomic coordinate data resulting 
# from the CCDC's data processing and validation procedures.
#
#######################################################################

data_JAYTIN
_symmetry_cell_setting           monoclinic
_symmetry_space_group_name_H-M   'C 2/c'
_symmetry_Int_Tables_number      15
_space_group_name_Hall           '-C 2yn'
loop_
_symmetry_equiv_pos_site_id
_symmetry_equiv_pos_as_xyz
1 x,y,z
2 1/2+x,1/2+y,z
3 -x,y,1/2-z
4 1/2-x,1/2+y,1/2-z
5 -x,-y,-z
6 1/2-x,1/2-y,-z
7 x,-y,1/2+z
8 1/2+x,1/2-y,1/2+z
_cell_length_a                   11.760(9)
_cell_length_b                   13.060(10)
_cell_length_c                   11.243(9)
_cell_angle_alpha                90
_cell_angle_beta                 114.920(10)
_cell_angle_gamma                90
_cell_volume                     1566
loop_
_atom_site_label
_atom_site_type_symbol
_atom_site_fract_x
_atom_site_fract_y
_atom_site_fract_z
Cd1 Cd 1.0000 0.440505(16) 0.2500
O1 O 1.11385(15) 0.55447(11) 0.41429(16)
O2 O 1.23296(16) 0.62358(13) 0.32362(17)
O3 O 0.84198(15) 0.45559(11) 0.31992(16)
H1 H 0.8128 0.5197 0.2844
H2 H 0.8512 0.4587 0.4012
N1 N 0.94236(16) 0.29371(13) 0.11574(17)
C1 C 0.8869(2) 0.29305(18) -0.0150(2)
H3 H 0.8699 0.3555 -0.0588
C2 C 0.8531(2) 0.20356(19) -0.0891(2)
H4 H 0.8148 0.2066 -0.1803
C3 C 0.8769(2) 0.11190(19) -0.0264(2)
H5 H 0.8535 0.0514 -0.0743
C4 C 0.9374(2) 0.10865(17) 0.1118(2)
C5 C 0.9693(2) 0.01510(18) 0.1845(2)
H6 H 0.9470 -0.0470 0.1401
C6 C 0.96843(18) 0.20283(15) 0.1789(2)
C7 C 1.1841(2) 0.62479(16) 0.4024(2)
C8 C 1.2098(2) 0.71353(16) 0.4947(2)
H7 H 1.1665 0.7171 0.5473
Cd1G Cd 1.5000 1.059495(16) 0.7500
O1E O 1.38615(15) 0.94553(11) 0.58571(16)
O1B O 0.88615(15) 0.55447(11) 0.08571(16)
O2E O 1.26704(16) 0.87642(13) 0.67638(17)
O3B O 1.15802(15) 0.45559(11) 0.18008(16)
H1B H 1.1872 0.5197 0.2156
H2B H 1.1488 0.4587 0.0988
N1B N 1.05764(16) 0.29371(13) 0.38426(17)
C1B C 1.1131(2) 0.29305(18) 0.5150(2)
H3B H 1.1301 0.3555 0.5588
C2B C 1.1469(2) 0.20356(19) 0.5891(2)
H4B H 1.1852 0.2066 0.6803
C3B C 1.1231(2) 0.11190(19) 0.5264(2)
H5B H 1.1465 0.0514 0.5743
C4B C 1.0626(2) 0.10865(17) 0.3882(2)
C5B C 1.0307(2) 0.01510(18) 0.3155(2)
H6B H 1.0530 -0.0470 0.3599
C6B C 1.03157(18) 0.20283(15) 0.3211(2)
C7E C 1.3159(2) 0.87521(16) 0.5976(2)
C8E C 1.2902(2) 0.78647(16) 0.5053(2)
H7E H 1.3335 0.7829 0.4527
loop_
_geom_bond_atom_site_label_1
_geom_bond_atom_site_label_2
_geom_bond_site_symmetry_1
_geom_bond_site_symmetry_2
Cd1 O1 1_555 1_555
O1 C7 1_555 1_555
O2 C7 1_555 1_555
O3 Cd1 1_555 1_555
H1 O3 1_555 1_555
H2 O3 1_555 1_555
N1 Cd1 1_555 1_555
C1 N1 1_555 1_555
H3 C1 1_555 1_555
C2 C1 1_555 1_555
H4 C2 1_555 1_555
C3 C2 1_555 1_555
H5 C3 1_555 1_555
C4 C3 1_555 1_555
C5 C4 1_555 1_555
H6 C5 1_555 1_555
C6 N1 1_555 1_555
C7 C8 1_555 1_555
C8 H7 1_555 1_555
Cd1G O1E 1_555 1_555
O1E C7E 1_555 1_555
O1B Cd1 1_555 1_555
O2E C7E 1_555 1_555
O3B Cd1 1_555 1_555
H1B O3B 1_555 1_555
H2B O3B 1_555 1_555
N1B Cd1 1_555 1_555
C1B N1B 1_555 1_555
H3B C1B 1_555 1_555
C2B C1B 1_555 1_555
H4B C2B 1_555 1_555
C3B C2B 1_555 1_555
H5B C3B 1_555 1_555
C4B C3B 1_555 1_555
C5B C5 1_555 1_555
H6B C5B 1_555 1_555
C6B C6 1_555 1_555
C7E C8E 1_555 1_555
C8E C8 1_555 1_555
H7E C8E 1_555 1_555
C4 C6 1_555 1_555
N1B C6B 1_555 1_555
C4B C5B 1_555 1_555
C4B C6B 1_555 1_555

#END
