
#######################################################################
#
#                 Cambridge Crystallographic Data Centre
#                                CCDC 
#
#######################################################################
#
# If this CIF has been generated from an entry in the Cambridge 
# Structural Database, then it will include bibliographic, chemical, 
# crystal, experimental, refinement or atomic coordinate data resulting 
# from the CCDC's data processing and validation procedures.
#
#######################################################################

data_JAYXOX
_symmetry_cell_setting           monoclinic
_symmetry_space_group_name_H-M   'P 21/c'
_symmetry_Int_Tables_number      14
_space_group_name_Hall           '-P 2ybc'
loop_
_symmetry_equiv_pos_site_id
_symmetry_equiv_pos_as_xyz
1 x,y,z
2 -x,1/2+y,1/2-z
3 -x,-y,-z
4 x,1/2-y,1/2+z
_cell_length_a                   6.8077(14)
_cell_length_b                   10.725(2)
_cell_length_c                   27.313(6)
_cell_angle_alpha                90
_cell_angle_beta                 96.76(3)
_cell_angle_gamma                90
_cell_volume                     1980.33
loop_
_atom_site_label
_atom_site_type_symbol
_atom_site_fract_x
_atom_site_fract_y
_atom_site_fract_z
Ni1 Ni 0.40077(3) 0.55288(2) 0.624962(8)
O1 O 0.6128(2) 0.57182(13) 0.57751(5)
H1 H 0.577(3) 0.6143(19) 0.5513(6)
H2 H 0.721(2) 0.602(2) 0.5913(7)
O2 O 0.1832(2) 0.52520(13) 0.67435(5)
H3 H 0.145(3) 0.4554(11) 0.6613(8)
H4 H 0.106(3) 0.5806(14) 0.6594(8)
O4 O 0.2400(2) 0.45074(12) 0.57128(5)
O5 O 0.0519(2) 0.33772(13) 0.61654(5)
O6 O -0.1452(2) 0.23046(12) 0.53589(5)
O7 O 0.27128(19) -0.28304(12) 0.60043(5)
O8 O -0.0357(2) -0.31731(13) 0.61806(6)
C1 C 0.1014(3) 0.37404(17) 0.57728(7)
C2 C -0.0067(3) 0.32660(17) 0.52893(7)
H7 H -0.0759 0.3956 0.5116
H8 H 0.0894 0.2951 0.5085
C3 C -0.0754(3) 0.11548(16) 0.55165(7)
C4 C 0.1214(3) 0.08004(17) 0.55450(8)
H9 H 0.2173 0.1358 0.5465
C5 C 0.1723(3) -0.04018(17) 0.56951(7)
H10 H 0.3038 -0.0649 0.5711
C6 C 0.0337(3) -0.12459(16) 0.58221(7)
C7 C -0.1631(3) -0.08685(18) 0.57897(8)
H11 H -0.2589 -0.1422 0.5874
C8 C -0.2172(3) 0.03204(18) 0.56338(8)
H12 H -0.3493 0.0560 0.5608
C9 C 0.0934(3) -0.25143(17) 0.60100(7)
N1 N 0.5556(2) 0.40101(15) 0.65911(6)
N2 N 0.5744(2) 0.64317(15) 0.68166(6)
C10 C 0.5892(3) 0.76409(18) 0.69113(8)
H13 H 0.5300 0.8200 0.6679
C11 C 0.6909(3) 0.8112(2) 0.73489(8)
H14 H 0.7001 0.8968 0.7401
C12 C 0.7755(3) 0.7308(2) 0.76947(8)
H15 H 0.8385 0.7610 0.7992
C13 C 0.7679(3) 0.6024(2) 0.76032(7)
C14 C 0.8568(3) 0.5105(2) 0.79387(8)
H16 H 0.9203 0.5356 0.8243
C15 C 0.8504(3) 0.3881(2) 0.78222(8)
H17 H 0.9105 0.3305 0.8046
C16 C 0.7528(3) 0.3457(2) 0.73596(7)
C17 C 0.7415(3) 0.2199(2) 0.72176(8)
H18 H 0.7992 0.1585 0.7428
C18 C 0.6453(3) 0.1888(2) 0.67700(8)
H19 H 0.6412 0.1062 0.6666
C19 C 0.5528(3) 0.28166(19) 0.64668(8)
H20 H 0.4861 0.2586 0.6164
C20 C 0.6584(3) 0.43341(18) 0.70285(7)
C21 C 0.6665(3) 0.56290(18) 0.71523(7)
Ni1_2 Ni 0.40077(3) -0.44712(2) 0.624962(8)
O7_2 O 0.27128(19) 0.71696(12) 0.60043(5)
O3 O 0.5337(2) 0.68922(17) 0.48969(6)
H5 H 0.4129(18) 0.706(2) 0.4816(9)
H6 H 0.577(3) 0.641(2) 0.4691(8)
loop_
_geom_bond_atom_site_label_1
_geom_bond_atom_site_label_2
_geom_bond_site_symmetry_1
_geom_bond_site_symmetry_2
Ni1 O1 1_555 1_555
O1 H1 1_555 1_555
H2 O1 1_555 1_555
O2 Ni1 1_555 1_555
H3 O2 1_555 1_555
H4 O2 1_555 1_555
O3 H5 1_555 1_555
H6 O3 1_555 1_555
O4 Ni1 1_555 1_555
O5 C1 1_555 1_555
O6 C2 1_555 1_555
O7 C9 1_555 1_555
O8 C9 1_555 1_555
C1 O4 1_555 1_555
C2 C1 1_555 1_555
H7 C2 1_555 1_555
H8 C2 1_555 1_555
C3 O6 1_555 1_555
C4 C3 1_555 1_555
H9 C4 1_555 1_555
C5 C4 1_555 1_555
H10 C5 1_555 1_555
C6 C5 1_555 1_555
C7 C6 1_555 1_555
H11 C7 1_555 1_555
C8 C3 1_555 1_555
H12 C8 1_555 1_555
C9 C6 1_555 1_555
N1 Ni1 1_555 1_555
N2 Ni1 1_555 1_555
C10 N2 1_555 1_555
H13 C10 1_555 1_555
C11 C10 1_555 1_555
H14 C11 1_555 1_555
C12 C11 1_555 1_555
H15 C12 1_555 1_555
C13 C12 1_555 1_555
C14 C13 1_555 1_555
H16 C14 1_555 1_555
C15 C14 1_555 1_555
H17 C15 1_555 1_555
C16 C15 1_555 1_555
C17 C16 1_555 1_555
H18 C17 1_555 1_555
C18 C17 1_555 1_555
H19 C18 1_555 1_555
C19 N1 1_555 1_555
H20 C19 1_555 1_555
C20 N1 1_555 1_555
C21 N2 1_555 1_555
Ni1_2 O7 1_555 1_555
O7_2 Ni1 1_555 1_555
C7 C8 1_555 1_555
C13 C21 1_555 1_555
C16 C20 1_555 1_555
C18 C19 1_555 1_555
C20 C21 1_555 1_555

#END
