
#######################################################################
#
#                 Cambridge Crystallographic Data Centre
#                                CCDC 
#
#######################################################################
#
# If this CIF has been generated from an entry in the Cambridge 
# Structural Database, then it will include bibliographic, chemical, 
# crystal, experimental, refinement or atomic coordinate data resulting 
# from the CCDC's data processing and validation procedures.
#
#######################################################################

data_JAYYIS
_symmetry_cell_setting           monoclinic
_symmetry_space_group_name_H-M   'P 21/n'
_symmetry_Int_Tables_number      14
_space_group_name_Hall           '-P 2yn'
loop_
_symmetry_equiv_pos_site_id
_symmetry_equiv_pos_as_xyz
1 x,y,z
2 1/2-x,1/2+y,1/2-z
3 -x,-y,-z
4 1/2+x,1/2-y,1/2+z
_cell_length_a                   10.4883(2)
_cell_length_b                   13.14830(10)
_cell_length_c                   13.1207(2)
_cell_angle_alpha                90
_cell_angle_beta                 106.6530(10)
_cell_angle_gamma                90
_cell_volume                     1733.5
loop_
_atom_site_label
_atom_site_type_symbol
_atom_site_fract_x
_atom_site_fract_y
_atom_site_fract_z
Cd1 Cd 0.03237(3) 0.91227(2) 0.62246(2)
O1 O 0.2586(3) 0.9460(2) 0.6486(2)
O2 O 0.1426(3) 0.9874(2) 0.4859(2)
O3 O -0.0502(3) 0.7778(2) 0.5043(2)
O4 O 0.1046(3) 0.7363(2) 0.6510(2)
N1 N 0.0329(3) 1.0443(3) 0.7422(3)
N2 N -0.0870(3) 0.8604(3) 0.7454(2)
C1 C -0.1063(4) 0.9343(3) 0.8115(3)
C2 C 0.3812(4) 0.9896(3) 0.5274(3)
C3 C -0.1824(4) 0.9192(3) 0.8827(3)
C4 C 0.0236(4) 0.7126(3) 0.5641(4)
C5 C -0.0531(4) 0.5748(3) 0.4253(3)
H1 H -0.0888 0.6248 0.3752
C6 C -0.1425(5) 1.0917(4) 0.9464(3)
H2 H -0.1553 1.1436 0.9905
C7 C -0.0436(4) 1.0323(3) 0.8092(3)
C8 C 0.0105(4) 0.6019(3) 0.5304(3)
C9 C 0.3798(4) 1.0117(3) 0.4241(3)
H3 H 0.2988 1.0196 0.3722
C10 C 0.2522(4) 0.9747(3) 0.5564(4)
C11 C 0.5033(4) 0.9777(3) 0.6032(3)
H4 H 0.5063 0.9625 0.6731
C12 C -0.2358(4) 0.8220(4) 0.8860(3)
H5 H -0.2865 0.8087 0.9322
C13 C -0.0618(4) 1.1099(3) 0.8769(3)
C14 C 0.0936(4) 1.1325(4) 0.7430(4)
H6 H 0.1467 1.1408 0.6977
C15 C 0.0035(5) 1.2033(4) 0.8742(4)
H7 H -0.0074 1.2570 0.9171
C16 C -0.2136(4) 0.7468(4) 0.8216(4)
H8 H -0.2470 0.6817 0.8244
C17 C -0.1398(4) 0.7696(3) 0.7514(4)
H9 H -0.1269 0.7184 0.7064
C18 C -0.2002(4) 1.0005(4) 0.9491(3)
H10 H -0.2523 0.9906 0.9948
C19 C 0.0821(5) 1.2146(3) 0.8088(4)
H11 H 0.1274 1.2751 0.8075
C20 C 0.0630(4) 0.5263(3) 0.6044(3)
H12 H 0.1053 0.5439 0.6746
Cd1B Cd 0.96763(3) 1.08773(2) 0.37754(2)
Cd1B_2 Cd -0.03237(3) 1.08773(2) 0.37754(2)
Cd1_2 Cd 1.03237(3) 0.91227(2) 0.62246(2)
Cd1B_3 Cd -0.03237(3) 0.08773(2) 0.37754(2)
O1B O 0.7414(3) 1.0540(2) 0.3514(2)
O2B O 0.8574(3) 1.0126(2) 0.5141(2)
O2B_2 O -0.1426(3) 1.0126(2) 0.5141(2)
O2_2 O 1.1426(3) 0.9874(2) 0.4859(2)
O3B O 0.0502(3) 0.2222(2) 0.4957(2)
O3B_2 O 1.0502(3) 1.2222(2) 0.4957(2)
O4B O -0.1046(3) 0.2637(2) 0.3490(2)
O4B_2 O 0.8954(3) 1.2637(2) 0.3490(2)
N1B N 0.9671(3) 0.9557(3) 0.2578(3)
N2B N 1.0870(3) 1.1396(3) 0.2546(2)
C1B C 1.1063(4) 1.0657(3) 0.1885(3)
C2B C 0.6188(4) 1.0104(3) 0.4726(3)
C3B C 1.1824(4) 1.0808(3) 0.1173(3)
C4B C -0.0236(4) 0.2874(3) 0.4359(4)
C5B C 0.0531(4) 0.4252(3) 0.5747(3)
H1B H 0.0888 0.3752 0.6248
C6B C 1.1425(5) 0.9083(4) 0.0536(3)
H2B H 1.1553 0.8564 0.0095
C7B C 1.0436(4) 0.9677(3) 0.1908(3)
C8B C -0.0105(4) 0.3981(3) 0.4696(3)
C9B C 0.6202(4) 0.9883(3) 0.5759(3)
H3B H 0.7012 0.9804 0.6278
C10B C 0.7478(4) 1.0253(3) 0.4436(4)
C11B C 0.4967(4) 1.0223(3) 0.3968(3)
H4B H 0.4937 1.0375 0.3269
C12B C 1.2358(4) 1.1780(4) 0.1140(3)
H5B H 1.2865 1.1913 0.0678
C13B C 1.0618(4) 0.8901(3) 0.1231(3)
C14B C 0.9064(4) 0.8675(4) 0.2570(4)
H6B H 0.8533 0.8592 0.3023
C15B C 0.9965(5) 0.7967(4) 0.1258(4)
H7B H 1.0074 0.7430 0.0829
C16B C 1.2136(4) 1.2532(4) 0.1784(4)
H8B H 1.2470 1.3183 0.1756
C17B C 1.1398(4) 1.2304(3) 0.2486(4)
H9B H 1.1269 1.2816 0.2936
C18B C 1.2002(4) 0.9995(4) 0.0509(3)
H10B H 1.2523 1.0094 0.0052
C19B C 0.9179(5) 0.7854(3) 0.1912(4)
H11B H 0.8726 0.7249 0.1925
C20B C -0.0630(4) 0.4737(3) 0.3956(3)
H12B H -0.1053 0.4561 0.3254
O5 O -0.3305(6) 0.7738(5) 0.3882(5)
loop_
_geom_bond_atom_site_label_1
_geom_bond_atom_site_label_2
_geom_bond_site_symmetry_1
_geom_bond_site_symmetry_2
Cd1 O1 1_555 1_555
O1 C10 1_555 1_555
O2 Cd1 1_555 1_555
O3 Cd1 1_555 1_555
O4 Cd1 1_555 1_555
N1 Cd1 1_555 1_555
N2 Cd1 1_555 1_555
C1 N2 1_555 1_555
C2 C9 1_555 1_555
C3 C1 1_555 1_555
C4 O3 1_555 1_555
C5 H1 1_555 1_555
C6 H2 1_555 1_555
C7 N1 1_555 1_555
C8 C4 1_555 1_555
C9 H3 1_555 1_555
C10 O2 1_555 1_555
C11 C2 1_555 1_555
H4 C11 1_555 1_555
C12 C3 1_555 1_555
H5 C12 1_555 1_555
C13 C6 1_555 1_555
C14 N1 1_555 1_555
H6 C14 1_555 1_555
C15 C13 1_555 1_555
H7 C15 1_555 1_555
C16 C12 1_555 1_555
H8 C16 1_555 1_555
C17 N2 1_555 1_555
H9 C17 1_555 1_555
C18 C3 1_555 1_555
H10 C18 1_555 1_555
C19 C14 1_555 1_555
H11 C19 1_555 1_555
C20 C8 1_555 1_555
H12 C20 1_555 1_555
Cd1B O1B 1_555 1_555
Cd1B_2 O2 1_555 1_555
Cd1_2 O2B 1_555 1_555
Cd1B_3 O3B 1_555 1_555
O1B C10B 1_555 1_555
O2B Cd1B 1_555 1_555
O2B_2 Cd1 1_555 1_555
O2_2 Cd1B 1_555 1_555
O3B C4B 1_555 1_555
O3B_2 Cd1B 1_555 1_555
O4B Cd1B_3 1_555 1_555
O4B_2 Cd1B 1_555 1_555
N1B Cd1B 1_555 1_555
N2B Cd1B 1_555 1_555
C1B N2B 1_555 1_555
C2B C9B 1_555 1_555
C3B C1B 1_555 1_555
C4B O4B 1_555 1_555
C5B C20 1_555 1_555
H1B C5B 1_555 1_555
C6B H2B 1_555 1_555
C7B N1B 1_555 1_555
C8B C4B 1_555 1_555
C9B C11 1_555 1_555
H3B C9B 1_555 1_555
C10B O2B 1_555 1_555
C11B C9 1_555 1_555
H4B C11B 1_555 1_555
C12B C3B 1_555 1_555
H5B C12B 1_555 1_555
C13B C6B 1_555 1_555
C14B N1B 1_555 1_555
H6B C14B 1_555 1_555
C15B C13B 1_555 1_555
H7B C15B 1_555 1_555
C16B C12B 1_555 1_555
H8B C16B 1_555 1_555
C17B N2B 1_555 1_555
H9B C17B 1_555 1_555
C18B C3B 1_555 1_555
H10B C18B 1_555 1_555
C19B C14B 1_555 1_555
H11B C19B 1_555 1_555
C20B C5 1_555 1_555
H12B C20B 1_555 1_555
O4 C4 1_555 1_555
C1 C7 1_555 1_555
C2 C10 1_555 1_555
C5 C8 1_555 1_555
C6 C18 1_555 1_555
C7 C13 1_555 1_555
C15 C19 1_555 1_555
C16 C17 1_555 1_555
Cd1B_2 O2B_2 1_555 1_555
Cd1_2 O2_2 1_555 1_555
C1B C7B 1_555 1_555
C2B C10B 1_555 1_555
C2B C11B 1_555 1_555
C5B C8B 1_555 1_555
C6B C18B 1_555 1_555
C7B C13B 1_555 1_555
C8B C20B 1_555 1_555
C15B C19B 1_555 1_555
C16B C17B 1_555 1_555

#END
