
#######################################################################
#
#                 Cambridge Crystallographic Data Centre
#                                CCDC 
#
#######################################################################
#
# If this CIF has been generated from an entry in the Cambridge 
# Structural Database, then it will include bibliographic, chemical, 
# crystal, experimental, refinement or atomic coordinate data resulting 
# from the CCDC's data processing and validation procedures.
#
#######################################################################

data_JAZJEA
_symmetry_cell_setting           triclinic
_symmetry_space_group_name_H-M   'P -1'
_symmetry_Int_Tables_number      2
_space_group_name_Hall           '-P 1'
loop_
_symmetry_equiv_pos_site_id
_symmetry_equiv_pos_as_xyz
1 x,y,z
2 -x,-y,-z
_cell_length_a                   7.167(2)
_cell_length_b                   8.205(3)
_cell_length_c                   11.531(4)
_cell_angle_alpha                83.527(6)
_cell_angle_beta                 74.274(5)
_cell_angle_gamma                67.555(5)
_cell_volume                     603.225
loop_
_atom_site_label
_atom_site_type_symbol
_atom_site_fract_x
_atom_site_fract_y
_atom_site_fract_z
Ag1 Ag 0.47528(6) 0.37343(6) 0.62700(4)
C1 C 0.2813(7) 0.9724(6) 0.7799(4)
C2 C 0.1224(8) 1.0783(7) 0.8663(4)
H1 H -0.0101 1.0745 0.8817
C3 C 0.1582(9) 1.1919(7) 0.9315(4)
H2 H 0.0488 1.2644 0.9894
C4 C 0.3551(9) 1.1978(7) 0.9108(4)
C5 C 0.5141(8) 1.0908(7) 0.8232(5)
H3 H 0.6465 1.0951 0.8073
C6 C 0.4795(7) 0.9765(6) 0.7582(4)
H4 H 0.5887 0.9033 0.7005
C7 C 0.3962(11) 1.3203(8) 0.9816(5)
H5 H 0.5399 1.3081 0.9542
H6 H 0.3659 1.2903 1.0657
H7 H 0.3090 1.4400 0.9696
C8 C -0.0077(7) 0.4792(6) 0.7001(4)
H8 H -0.0009 0.5576 0.7496
C9 C -0.1998(7) 0.4742(6) 0.7029(4)
H9 H -0.3194 0.5489 0.7541
C10 C -0.0411(7) 0.2559(7) 0.5639(4)
H10 H -0.0475 0.1757 0.5156
C11 C 0.1515(7) 0.2595(6) 0.5616(4)
H11 H 0.2713 0.1807 0.5132
N1 N 0.1678(6) 0.3745(5) 0.6281(3)
N2 N -0.2149(6) 0.3620(5) 0.6321(3)
O1 O 0.2959(6) 0.6546(5) 0.7705(4)
O2 O 0.0214(5) 0.8897(5) 0.7023(3)
O3 O 0.3767(6) 0.8035(6) 0.5831(3)
S1 S 0.23920(18) 0.81847(16) 0.70222(11)
Ag1_2 Ag -0.52472(6) 0.37343(6) 0.62700(4)
Ag1A Ag 0.52472(6) 0.62657(6) 0.37300(4)
N2_2 N 0.7851(6) 0.3620(5) 0.6321(3)
O3A O 0.6233(6) 0.1965(6) 0.4169(3)
loop_
_geom_bond_atom_site_label_1
_geom_bond_atom_site_label_2
_geom_bond_site_symmetry_1
_geom_bond_site_symmetry_2
Ag1 N1 1_555 1_555
C1 C2 1_555 1_555
C2 H1 1_555 1_555
C3 C2 1_555 1_555
H2 C3 1_555 1_555
C4 C3 1_555 1_555
C5 C4 1_555 1_555
H3 C5 1_555 1_555
C6 C1 1_555 1_555
H4 C6 1_555 1_555
C7 C4 1_555 1_555
H5 C7 1_555 1_555
H6 C7 1_555 1_555
H7 C7 1_555 1_555
C8 H8 1_555 1_555
C9 C8 1_555 1_555
H9 C9 1_555 1_555
C10 H10 1_555 1_555
C11 C10 1_555 1_555
H11 C11 1_555 1_555
N1 C8 1_555 1_555
N2 C9 1_555 1_555
O1 Ag1 1_555 1_555
O2 S1 1_555 1_555
O3 S1 1_555 1_555
S1 C1 1_555 1_555
Ag1_2 N2 1_555 1_555
Ag1A O3 1_555 1_555
N2_2 Ag1 1_555 1_555
O3A Ag1 1_555 1_555
C5 C6 1_555 1_555
C10 N2 1_555 1_555
C11 N1 1_555 1_555
O1 S1 1_555 1_555

#END
