
#######################################################################
#
#                 Cambridge Crystallographic Data Centre
#                                CCDC 
#
#######################################################################
#
# If this CIF has been generated from an entry in the Cambridge 
# Structural Database, then it will include bibliographic, chemical, 
# crystal, experimental, refinement or atomic coordinate data resulting 
# from the CCDC's data processing and validation procedures.
#
#######################################################################

data_JAZJIE
_symmetry_cell_setting           rhombohedral
_symmetry_space_group_name_H-M   'R -3'
_symmetry_Int_Tables_number      148
_space_group_name_Hall           '-R 3'
loop_
_symmetry_equiv_pos_site_id
_symmetry_equiv_pos_as_xyz
1 x,y,z
2 -y,x-y,z
3 -x+y,-x,z
4 2/3+x,1/3+y,1/3+z
5 2/3-y,1/3+x-y,1/3+z
6 2/3-x+y,1/3-x,1/3+z
7 1/3+x,2/3+y,2/3+z
8 1/3-y,2/3+x-y,2/3+z
9 1/3-x+y,2/3-x,2/3+z
10 -x,-y,-z
11 y,-x+y,-z
12 x-y,x,-z
13 1/3-x,2/3-y,2/3-z
14 1/3+y,2/3-x+y,2/3-z
15 1/3+x-y,2/3+x,2/3-z
16 2/3-x,1/3-y,1/3-z
17 2/3+y,1/3-x+y,1/3-z
18 2/3+x-y,1/3+x,1/3-z
_cell_length_a                   33.2625(13)
_cell_length_b                   33.2625(13)
_cell_length_c                   7.2940(6)
_cell_angle_alpha                90
_cell_angle_beta                 90
_cell_angle_gamma                120.00
_cell_volume                     6988.86
loop_
_atom_site_label
_atom_site_type_symbol
_atom_site_fract_x
_atom_site_fract_y
_atom_site_fract_z
Ag1 Ag 0.486552(13) 0.043883(13) -0.44500(4)
C1 C 0.64941(16) 0.12046(15) -0.6122(6)
C2 C 0.65288(18) 0.10792(17) -0.7882(6)
H1 H 0.6362 0.0770 -0.8236
C3 C 0.6820(2) 0.14227(19) -0.9159(7)
H2 H 0.6838 0.1338 -1.0356
C4 C 0.7067(2) 0.18667(19) -0.8663(7)
H3 H 0.7258 0.2089 -0.9518
C5 C 0.7306(2) 0.2474(2) -0.6378(10)
H4 H 0.7493 0.2693 -0.7241
C6 C 0.7285(2) 0.2609(2) -0.4647(11)
H5 H 0.7468 0.2920 -0.4319
C7 C 0.6989(2) 0.2282(2) -0.3336(9)
H6 H 0.6974 0.2381 -0.2158
C8 C 0.67301(17) 0.18313(17) -0.3773(7)
H7 H 0.6534 0.1621 -0.2900
C9 C 0.67526(15) 0.16745(15) -0.5550(6)
C10 C 0.70458(17) 0.20034(17) -0.6881(7)
C11 C 0.44552(15) 0.02810(15) -0.0383(6)
H8 H 0.4175 0.0159 -0.1008
C12 C 0.44506(14) 0.02711(14) 0.1494(6)
H9 H 0.4167 0.0142 0.2101
C13 C 0.52443(15) 0.06404(15) -0.0362(5)
H10 H 0.5527 0.0772 -0.0973
C14 C 0.52389(15) 0.06342(16) 0.1508(5)
H11 H 0.5520 0.0767 0.2137
N1 N 0.48485(12) 0.04592(11) -0.1343(5)
N2 N 0.48383(12) 0.04405(12) 0.2477(5)
O1 O 0.57543(13) 0.08873(12) -0.4177(5)
O2 O 0.59112(12) 0.03272(13) -0.5642(5)
O3 O 0.63666(11) 0.07651(13) -0.3031(5)
S1 S 0.61049(4) 0.07611(4) -0.46039(15)
Ag1_2 Ag 0.486552(13) 0.043883(13) 0.55500(4)
Ag1I Ag 0.513448(13) -0.043883(13) -0.55500(4)
N2_2 N 0.48383(12) 0.04405(12) -0.7523(5)
O2I O 0.40888(12) -0.03272(13) -0.4358(5)
O4 O 0.3216(2) 0.0112(2) 0.2574(9)
H12 H 0.3322(18) 0.0419(8) 0.246(8)
H13 H 0.3292(19) 0.0028(19) 0.362(5)
loop_
_geom_bond_atom_site_label_1
_geom_bond_atom_site_label_2
_geom_bond_site_symmetry_1
_geom_bond_site_symmetry_2
Ag1 N1 1_555 1_555
C1 C2 1_555 1_555
C2 H1 1_555 1_555
C3 C2 1_555 1_555
H2 C3 1_555 1_555
C4 C3 1_555 1_555
H3 C4 1_555 1_555
C5 H4 1_555 1_555
C6 C5 1_555 1_555
H5 C6 1_555 1_555
C7 C6 1_555 1_555
H6 C7 1_555 1_555
C8 C7 1_555 1_555
H7 C8 1_555 1_555
C9 C1 1_555 1_555
C10 C4 1_555 1_555
C11 H8 1_555 1_555
C12 C11 1_555 1_555
H9 C12 1_555 1_555
C13 H10 1_555 1_555
C14 C13 1_555 1_555
H11 C14 1_555 1_555
N1 C11 1_555 1_555
N2 C12 1_555 1_555
O1 Ag1 1_555 1_555
O2 S1 1_555 1_555
O3 S1 1_555 1_555
O4 H12 1_555 1_555
S1 C1 1_555 1_555
H13 O4 1_555 1_555
Ag1_2 N2 1_555 1_555
Ag1I O2 1_555 1_555
N2_2 Ag1 1_555 1_555
O2I Ag1 1_555 1_555
C5 C10 1_555 1_555
C8 C9 1_555 1_555
C9 C10 1_555 1_555
C13 N1 1_555 1_555
C14 N2 1_555 1_555
O1 S1 1_555 1_555

#END
