
#######################################################################
#
#                 Cambridge Crystallographic Data Centre
#                                CCDC 
#
#######################################################################
#
# If this CIF has been generated from an entry in the Cambridge 
# Structural Database, then it will include bibliographic, chemical, 
# crystal, experimental, refinement or atomic coordinate data resulting 
# from the CCDC's data processing and validation procedures.
#
#######################################################################

data_JAZJUQ
_symmetry_cell_setting           orthorhombic
_symmetry_space_group_name_H-M   'P b c a'
_symmetry_Int_Tables_number      61
_space_group_name_Hall           '-P 2ac 2ab'
loop_
_symmetry_equiv_pos_site_id
_symmetry_equiv_pos_as_xyz
1 x,y,z
2 1/2-x,-y,1/2+z
3 1/2+x,1/2-y,-z
4 -x,1/2+y,1/2-z
5 -x,-y,-z
6 1/2+x,y,1/2-z
7 1/2-x,1/2+y,z
8 x,1/2-y,1/2+z
_cell_length_a                   11.5004(8)
_cell_length_b                   10.8436(7)
_cell_length_c                   27.6737(19)
_cell_angle_alpha                90
_cell_angle_beta                 90
_cell_angle_gamma                90
_cell_volume                     3451.07
loop_
_atom_site_label
_atom_site_type_symbol
_atom_site_fract_x
_atom_site_fract_y
_atom_site_fract_z
Ag1 Ag 0.636991(19) 0.286141(19) 0.229825(8)
S1 S 0.44691(7) 0.12229(7) 0.13480(3)
C1 C 0.4040(2) 0.2437(3) 0.27320(10)
H1 H 0.4125 0.3295 0.2825
H2 H 0.3885 0.2411 0.2388
C2 C 0.5350(2) 0.1817(2) 0.33610(10)
H3 H 0.6063 0.1377 0.3435
H4 H 0.5450 0.2668 0.3462
C3 C 0.3315(3) 0.1932(3) 0.35192(10)
H5 H 0.3393 0.2783 0.3622
H6 H 0.2675 0.1567 0.3697
C4 C 0.4255(2) -0.0022(2) 0.34805(10)
H7 H 0.3626 -0.0399 0.3661
H8 H 0.4964 -0.0469 0.3554
C5 C 0.2941(2) 0.0587(2) 0.28499(10)
H9 H 0.2292 0.0219 0.3021
H10 H 0.2777 0.0542 0.2507
C6 C 0.4990(2) 0.0467(2) 0.26941(9)
H11 H 0.5701 0.0021 0.2764
H12 H 0.4851 0.0417 0.2349
C7 C 0.4462(3) 0.1415(2) 0.07090(10)
C8 C 0.5360(3) 0.2060(3) 0.05049(11)
H13 H 0.5922 0.2417 0.0702
C9 C 0.5441(3) 0.2188(3) 0.00015(12)
H14 H 0.6050 0.2634 -0.0134
C10 C 0.4636(3) 0.1668(3) -0.02850(12)
H15 H 0.4707 0.1747 -0.0618
C11 C 0.3684(3) 0.1002(3) -0.00940(11)
C12 C 0.3575(3) 0.0869(3) 0.04165(10)
C13 C 0.2843(3) 0.0444(3) -0.03956(13)
H16 H 0.2910 0.0523 -0.0729
C14 C 0.1943(4) -0.0200(3) -0.02097(14)
H17 H 0.1396 -0.0556 -0.0414
C15 C 0.1836(3) -0.0331(3) 0.02929(13)
H18 H 0.1216 -0.0776 0.0419
C16 C 0.2625(3) 0.0185(3) 0.05966(12)
H19 H 0.2538 0.0086 0.0928
N1 N 0.51380(19) 0.17763(19) 0.28333(8)
N2 N 0.30481(19) 0.18975(18) 0.29939(8)
N3 N 0.4386(2) 0.1266(2) 0.36312(8)
N4 N 0.40072(19) -0.01243(18) 0.29549(8)
O1 O 0.4581(2) -0.00873(19) 0.14403(8)
O2 O 0.3362(2) 0.1682(2) 0.15287(9)
O3 O 0.5444(2) 0.1933(2) 0.15248(8)
Ag1E Ag 0.136991(19) 0.286141(19) 0.270175(8)
Ag1C Ag 0.363009(19) -0.213859(19) 0.270175(8)
N2E N 0.80481(19) 0.18975(18) 0.20061(8)
N4C N 0.59928(19) 0.48757(18) 0.20451(8)
O4 O 0.7468(2) -0.1097(2) 0.30999(9)
H20 H 0.793(3) -0.077(3) 0.3286(13)
H21 H 0.724(3) -0.166(3) 0.3281(13)
loop_
_geom_bond_atom_site_label_1
_geom_bond_atom_site_label_2
_geom_bond_site_symmetry_1
_geom_bond_site_symmetry_2
Ag1 N1 1_555 1_555
S1 C7 1_555 1_555
C1 H1 1_555 1_555
H2 C1 1_555 1_555
C2 H3 1_555 1_555
H4 C2 1_555 1_555
C3 H5 1_555 1_555
H6 C3 1_555 1_555
C4 H7 1_555 1_555
H8 C4 1_555 1_555
C5 H9 1_555 1_555
H10 C5 1_555 1_555
C6 H11 1_555 1_555
H12 C6 1_555 1_555
C7 C8 1_555 1_555
C8 H13 1_555 1_555
C9 C8 1_555 1_555
H14 C9 1_555 1_555
C10 C9 1_555 1_555
H15 C10 1_555 1_555
C11 C10 1_555 1_555
C12 C7 1_555 1_555
C13 C11 1_555 1_555
H16 C13 1_555 1_555
C14 C13 1_555 1_555
H17 C14 1_555 1_555
C15 C14 1_555 1_555
H18 C15 1_555 1_555
C16 C12 1_555 1_555
H19 C16 1_555 1_555
N1 C1 1_555 1_555
N2 C1 1_555 1_555
N3 C2 1_555 1_555
N4 C4 1_555 1_555
O1 S1 1_555 1_555
O2 S1 1_555 1_555
O3 Ag1 1_555 1_555
O4 H20 1_555 1_555
H21 O4 1_555 1_555
Ag1E N2 1_555 1_555
Ag1C N4 1_555 1_555
N2E Ag1 1_555 1_555
N4C Ag1 1_555 1_555
S1 O3 1_555 1_555
C2 N1 1_555 1_555
C3 N2 1_555 1_555
C3 N3 1_555 1_555
C4 N3 1_555 1_555
C5 N2 1_555 1_555
C5 N4 1_555 1_555
C6 N1 1_555 1_555
C6 N4 1_555 1_555
C11 C12 1_555 1_555
C15 C16 1_555 1_555

#END
