
#######################################################################
#
#                 Cambridge Crystallographic Data Centre
#                                CCDC 
#
#######################################################################
#
# If this CIF has been generated from an entry in the Cambridge 
# Structural Database, then it will include bibliographic, chemical, 
# crystal, experimental, refinement or atomic coordinate data resulting 
# from the CCDC's data processing and validation procedures.
#
#######################################################################

data_JAZJOK
_symmetry_cell_setting           orthorhombic
_symmetry_space_group_name_H-M   'F d d d'
_symmetry_Int_Tables_number      70
_space_group_name_Hall           '-F 2uv 2vw'
loop_
_symmetry_equiv_pos_site_id
_symmetry_equiv_pos_as_xyz
1 x,y,z
2 1/4-x,1/4-y,z
3 x,1/4-y,1/4-z
4 1/4-x,y,1/4-z
5 x,1/2+y,1/2+z
6 1/2+x,y,1/2+z
7 1/2+x,1/2+y,z
8 1/4-x,3/4-y,1/2+z
9 x,3/4-y,3/4-z
10 1/4-x,1/2+y,3/4-z
11 3/4-x,1/4-y,1/2+z
12 1/2+x,1/4-y,3/4-z
13 3/4-x,y,3/4-z
14 3/4-x,3/4-y,z
15 1/2+x,3/4-y,1/4-z
16 3/4-x,1/2+y,1/4-z
17 -x,-y,-z
18 3/4+x,3/4+y,-z
19 -x,3/4+y,3/4+z
20 3/4+x,-y,3/4+z
21 -x,1/2-y,1/2-z
22 1/2-x,-y,1/2-z
23 1/2-x,1/2-y,-z
24 3/4+x,1/4+y,1/2-z
25 -x,1/4+y,1/4+z
26 3/4+x,1/2-y,1/4+z
27 1/4+x,3/4+y,1/2-z
28 1/2-x,3/4+y,1/4+z
29 1/4+x,-y,1/4+z
30 1/4+x,1/4+y,-z
31 1/2-x,1/4+y,3/4+z
32 1/4+x,1/2-y,3/4+z
_cell_length_a                   14.486(5)
_cell_length_b                   21.824(5)
_cell_length_c                   24.041(5)
_cell_angle_alpha                90
_cell_angle_beta                 90
_cell_angle_gamma                90
_cell_volume                     7600.38
loop_
_atom_site_label
_atom_site_type_symbol
_atom_site_fract_x
_atom_site_fract_y
_atom_site_fract_z
C1 C 0.4296(2) 0.12591(14) 0.57495(11)
C2 C 0.5261(2) 0.12544(13) 0.57367(11)
C3 C 0.5792(2) 0.12525(14) 0.52290(11)
H1 H 0.5481 0.1255 0.4890
C4 C 0.5752(3) 0.1250 0.6250
C5 C 0.3814(2) 0.1250 0.6250
H2 H 0.3172 0.1250 0.6250
C6 C 0.5757(3) 0.02444(17) 0.41722(14)
H3 H 0.5447 0.0180 0.4506
C7 C 0.6701(2) 0.02388(16) 0.41696(14)
H4 H 0.7012 0.0164 0.4501
C8 C 0.5753(3) 0.03973(17) 0.32375(15)
H5 H 0.5442 0.0438 0.2901
C9 C 0.6705(3) 0.03972(17) 0.32402(15)
H6 H 0.7017 0.0441 0.2904
N1 N 0.5265(3) 0.03400(13) 0.37090(11)
N2 N 0.7194(3) 0.03366(13) 0.37066(11)
O1 O 0.39024(18) 0.18085(14) 0.48195(12)
O2 O 0.38845(17) 0.07026(14) 0.48233(11)
O3 O 0.26915(16) 0.12685(12) 0.52816(9)
S1 S 0.36589(5) 0.12631(3) 0.51132(4)
Ag1 Ag 0.3750 0.04092(2) 0.3750
Ag2 Ag 0.8750 0.03301(2) 0.3750
O4 O 0.8771(5) -0.0701(4) 0.3303(4)
H7 H 0.823(6) -0.095(5) 0.324(5)
H8 H 0.917(7) -0.104(4) 0.339(5)
C1A C 0.8204(2) 0.12409(14) 0.57495(11)
C1C C 0.8204(2) 0.12591(14) 0.67505(11)
C1B C 0.4296(2) 0.12409(14) 0.67505(11)
C2A C 0.7239(2) 0.12456(13) 0.57367(11)
C2C C 0.7239(2) 0.12544(13) 0.67633(11)
C2B C 0.5261(2) 0.12456(13) 0.67633(11)
C3A C 0.6708(2) 0.12475(14) 0.52290(11)
C3C C 0.6708(2) 0.12525(14) 0.72710(11)
C3B C 0.5792(2) 0.12475(14) 0.72710(11)
H1B H 0.5481 0.1245 0.7610
H1C H 0.7019 0.1255 0.7610
H1A H 0.7019 0.1245 0.4890
C4A C 0.6748(3) 0.1250 0.6250
C5A C 0.8686(2) 0.1250 0.6250
H2A H 0.9328 0.1250 0.6250
C6L C 0.1743(3) 0.02444(17) 0.33278(14)
C6L_2 C 1.1743(3) 0.02444(17) 0.33278(14)
C6B C 0.5757(3) 0.22556(17) 0.83278(14)
H3L H 0.2053 0.0180 0.2994
H3L_2 H 1.2053 0.0180 0.2994
H3B H 0.5447 0.2320 0.7994
C7L C 0.0799(2) 0.02388(16) 0.33304(14)
C7L_2 C 1.0799(2) 0.02388(16) 0.33304(14)
C7B C 0.6701(2) 0.22612(16) 0.83304(14)
H4L H 0.0488 0.0164 0.2999
H4L_2 H 1.0488 0.0164 0.2999
H4B H 0.7012 0.2336 0.7999
C8L C 0.1747(3) 0.03973(17) 0.42625(15)
C8L_2 C 1.1747(3) 0.03973(17) 0.42625(15)
C8B C 0.5753(3) 0.21027(17) 0.92625(15)
H5L H 0.2058 0.0438 0.4599
H5L_2 H 1.2058 0.0438 0.4599
H5B H 0.5442 0.2062 0.9599
C9L C 0.0795(3) 0.03972(17) 0.42598(15)
C9L_2 C 1.0795(3) 0.03972(17) 0.42598(15)
C9B C 0.6705(3) 0.21028(17) 0.92598(15)
H6L H 0.0483 0.0441 0.4596
H6L_2 H 1.0483 0.0441 0.4596
H6B H 0.7017 0.2059 0.9596
N1L N 0.2235(3) 0.03400(13) 0.37910(11)
N1L_2 N 1.2235(3) 0.03400(13) 0.37910(11)
N1B N 0.5265(3) 0.21600(13) 0.87910(11)
N1J N 0.2235(3) 0.21600(13) 0.87090(11)
N2L N 0.0306(3) 0.03366(13) 0.37934(11)
N2L_2 N 1.0306(3) 0.03366(13) 0.37934(11)
N2B N 0.7194(3) 0.21634(13) 0.87934(11)
N2_2 N -0.2806(3) 0.03366(13) 0.37066(11)
O1B O 0.39024(18) 0.06915(14) 0.76805(12)
O1C O 0.85976(18) 0.18085(14) 0.76805(12)
O1A O 0.85976(18) 0.06915(14) 0.48195(12)
O1K O 0.89024(18) 0.06915(14) 0.26805(12)
O1A_2 O -0.14024(18) 0.06915(14) 0.48195(12)
O1K_2 O -0.10976(18) 0.06915(14) 0.26805(12)
O2B O 0.38845(17) 0.17974(14) 0.76767(11)
O2C O 0.86155(17) 0.07026(14) 0.76767(11)
O2A O 0.86155(17) 0.17974(14) 0.48233(11)
O2L O 0.36155(17) 0.07026(14) 0.26767(11)
O2J O 0.36155(17) 0.17974(14) 0.98233(11)
O3B O 0.26915(16) 0.12315(12) 0.72184(9)
O3C O 0.98085(16) 0.12685(12) 0.72184(9)
O3A O 0.98085(16) 0.12315(12) 0.52816(9)
S1B S 0.36589(5) 0.12369(3) 0.73868(4)
S1C S 0.88411(5) 0.12631(3) 0.73868(4)
S1A S 0.88411(5) 0.12369(3) 0.51132(4)
Ag1B Ag 0.3750 0.20908(2) 0.8750
Ag1C Ag 0.8750 0.04092(2) 0.8750
Ag1A Ag 0.8750 0.20908(2) 0.3750
Ag1_2 Ag 1.3750 0.04092(2) 0.3750
Ag2_2 Ag -0.1250 0.03301(2) 0.3750
Ag2A Ag 0.3750 0.21699(2) 0.3750
Ag2C Ag 0.3750 0.03301(2) 0.8750
Ag2B Ag 0.8750 0.21699(2) 0.8750
O4L O 0.8729(5) -0.0701(4) 0.4197(4)
O4L_2 O -0.1271(5) -0.0701(4) 0.4197(4)
O4_2 O -0.1229(5) -0.0701(4) 0.3303(4)
H7L H 0.927(6) -0.095(5) 0.426(5)
H7L_2 H -0.073(6) -0.095(5) 0.426(5)
H7_2 H -0.177(6) -0.095(5) 0.324(5)
H8L H 0.833(7) -0.104(4) 0.411(5)
H8L_2 H -0.167(7) -0.104(4) 0.411(5)
H8_2 H -0.083(7) -0.104(4) 0.339(5)
loop_
_geom_bond_atom_site_label_1
_geom_bond_atom_site_label_2
_geom_bond_site_symmetry_1
_geom_bond_site_symmetry_2
C1 C2 1_555 1_555
C2 C3 1_555 1_555
C3 H1 1_555 1_555
C4 C2 1_555 1_555
C5 C1 1_555 1_555
H2 C5 1_555 1_555
C6 H3 1_555 1_555
C7 C6 1_555 1_555
H4 C7 1_555 1_555
C8 H5 1_555 1_555
C9 C8 1_555 1_555
H6 C9 1_555 1_555
N1 C6 1_555 1_555
N2 C7 1_555 1_555
O1 S1 1_555 1_555
O2 S1 1_555 1_555
O3 S1 1_555 1_555
S1 C1 1_555 1_555
Ag1 N1 1_555 1_555
Ag2 N2 1_555 1_555
O4 Ag2 1_555 1_555
H7 O4 1_555 1_555
H8 O4 1_555 1_555
C1A C2A 1_555 1_555
C1C C2C 1_555 1_555
C1B C5 1_555 1_555
C2A C3A 1_555 1_555
C2C C3C 1_555 1_555
C2B C4 1_555 1_555
C3A C3 1_555 1_555
C3C C3B 1_555 1_555
C3B C2B 1_555 1_555
H1B C3B 1_555 1_555
H1C C3C 1_555 1_555
H1A C3A 1_555 1_555
C4A C4 1_555 1_555
C5A C1A 1_555 1_555
H2A C5A 1_555 1_555
C6L H3L 1_555 1_555
C6L_2 H3L_2 1_555 1_555
C6B H3B 1_555 1_555
C7L C6L 1_555 1_555
C7L_2 C6L_2 1_555 1_555
C7B C6B 1_555 1_555
H4L C7L 1_555 1_555
H4L_2 C7L_2 1_555 1_555
H4B C7B 1_555 1_555
C8L H5L 1_555 1_555
C8L_2 H5L_2 1_555 1_555
C8B H5B 1_555 1_555
C9L C8L 1_555 1_555
C9L_2 C8L_2 1_555 1_555
C9B C8B 1_555 1_555
H6L C9L 1_555 1_555
H6L_2 C9L_2 1_555 1_555
H6B C9B 1_555 1_555
N1L Ag1 1_555 1_555
N1L_2 C6L_2 1_555 1_555
N1B C6B 1_555 1_555
N1J Ag1B 1_555 1_555
N2L C7L 1_555 1_555
N2L_2 Ag2 1_555 1_555
N2B C7B 1_555 1_555
N2_2 Ag2_2 1_555 1_555
O1B S1B 1_555 1_555
O1C S1C 1_555 1_555
O1A Ag2 1_555 1_555
O1K Ag2 1_555 1_555
O1A_2 Ag2_2 1_555 1_555
O1K_2 Ag2_2 1_555 1_555
O2B S1B 1_555 1_555
O2C S1C 1_555 1_555
O2A S1A 1_555 1_555
O2L Ag1 1_555 1_555
O2J Ag1B 1_555 1_555
O3B S1B 1_555 1_555
O3C S1C 1_555 1_555
O3A S1A 1_555 1_555
S1B C1B 1_555 1_555
S1C C1C 1_555 1_555
S1A C1A 1_555 1_555
Ag1B N1B 1_555 1_555
Ag1C O2C 1_555 1_555
Ag1A O2A 1_555 1_555
Ag1_2 N1L_2 1_555 1_555
Ag2_2 N2L 1_555 1_555
Ag2A O1 1_555 1_555
Ag2C O1B 1_555 1_555
Ag2B N2B 1_555 1_555
O4L Ag2 1_555 1_555
O4L_2 Ag2_2 1_555 1_555
O4_2 Ag2_2 1_555 1_555
H7L O4L 1_555 1_555
H7L_2 O4L_2 1_555 1_555
H7_2 O4_2 1_555 1_555
H8L O4L 1_555 1_555
H8L_2 O4L_2 1_555 1_555
H8_2 O4_2 1_555 1_555
C8 N1 1_555 1_555
C9 N2 1_555 1_555
O2 Ag1 1_555 1_555
C1C C5A 1_555 1_555
C1B C2B 1_555 1_555
C2A C4A 1_555 1_555
C2C C4A 1_555 1_555
C6L N1L 1_555 1_555
C7L_2 N2L_2 1_555 1_555
C8L N1L 1_555 1_555
C8L_2 N1L_2 1_555 1_555
C8B N1B 1_555 1_555
C9L N2L 1_555 1_555
C9L_2 N2L_2 1_555 1_555
C9B N2B 1_555 1_555
O1C Ag2B 1_555 1_555
O1A S1A 1_555 1_555
O2B Ag1B 1_555 1_555

#END
