
#######################################################################
#
#                 Cambridge Crystallographic Data Centre
#                                CCDC 
#
#######################################################################
#
# If this CIF has been generated from an entry in the Cambridge 
# Structural Database, then it will include bibliographic, chemical, 
# crystal, experimental, refinement or atomic coordinate data resulting 
# from the CCDC's data processing and validation procedures.
#
#######################################################################

data_JAZLEB
_symmetry_cell_setting           trigonal
_symmetry_space_group_name_H-M   'P 31'
_symmetry_Int_Tables_number      144
_space_group_name_Hall           'P 31'
loop_
_symmetry_equiv_pos_site_id
_symmetry_equiv_pos_as_xyz
1 x,y,z
2 -y,x-y,1/3+z
3 -x+y,-x,2/3+z
_cell_length_a                   10.0708(3)
_cell_length_b                   10.0708(3)
_cell_length_c                   11.8450(4)
_cell_angle_alpha                90
_cell_angle_beta                 90
_cell_angle_gamma                120
_cell_volume                     1040.38
loop_
_atom_site_label
_atom_site_type_symbol
_atom_site_fract_x
_atom_site_fract_y
_atom_site_fract_z
Cl2 Cl -0.6386(3) -0.4686(3) 0.2326(2)
O1 O -0.3448(12) -0.5746(9) 0.1835(8)
H1 H -0.281 -0.525 0.123
H2 H -0.264 -0.491 0.223
Ho1 Ho -0.27536(3) -0.23693(3) -0.06850
O2 O -0.1168(8) -0.3351(7) 0.0057(6)
O3 O -0.4862(7) -0.4579(7) 0.0038(5)
O4 O -0.4852(7) -0.2846(9) -0.1940(6)
O5 O -0.2970(9) -0.4319(8) -0.1862(6)
O6 O -0.3471(8) -0.0539(9) -0.0273(6)
O7 O -0.2723(6) -0.2168(7) 0.1315(5)
O8 O -0.3352(9) -0.0451(8) 0.1916(6)
C1 C -0.3004(8) -0.1465(9) 0.2068(6)
C2 C -0.2971(8) -0.1910(9) 0.3300(6)
N1 N -0.2534(8) -0.3099(8) 0.3348(6)
C3 C -0.1966(8) -0.0544(9) 0.4076(6)
C4 C -0.0287(8) 0.0338(8) 0.3804(6)
O9 O -0.0434(7) -0.0197(6) -0.0252(5)
O10 O -0.1593(6) -0.1047(6) -0.2359(5)
H3 H -0.084 -0.263 0.080
H4 H -0.020 -0.319 -0.019
H5 H -0.506 -0.487 -0.061
H6 H -0.520 -0.546 0.063
H7 H -0.494 -0.275 -0.262
H8 H -0.284 -0.513 -0.152
H9 H -0.325 -0.438 -0.255
H10 H -0.396 -0.064 -0.083
H11 H -0.300 0.015 0.018
H12 H -0.411 -0.235 0.363
H13 H -0.276 -0.368 0.398
H14 H -0.159 -0.259 0.302
H15 H -0.297 -0.369 0.271
H16 H -0.210 -0.098 0.493
H17 H -0.239 0.025 0.403
O9A O 0.0197(6) -0.0237(9) 0.3081(5)
O10B O 0.0546(8) 0.1593(6) 0.4308(5)
C4B C 0.0625(11) 0.0287(8) 0.0471(6)
C4A C -0.0338(8) -0.0625(11) -0.2863(6)
Ho1A Ho 0.23693(3) -0.03843(4) 0.26483
Ho1B Ho 0.03843(4) 0.27536(3) 0.59817
C3B C 0.1422(12) 0.1966(8) 0.0743(6)
O10A O 0.1047(6) -0.0546(8) 0.0974(5)
C3A C 0.0544(9) -0.1422(12) -0.2591(6)
O9B O 0.0237(9) 0.0434(7) -0.3585(5)
O2A O 0.3351(7) 0.2183(11) 0.3390(6)
O3A O 0.4579(7) -0.0283(10) 0.3371(5)
O4A O 0.2846(9) -0.2006(11) 0.1393(6)
O5A O 0.4319(8) 0.1349(12) 0.1471(6)
O6A O 0.0539(9) -0.2932(12) 0.3060(6)
O7A O 0.2168(7) -0.0555(9) 0.4648(5)
O2B O -0.2183(11) 0.1168(8) 0.6724(6)
O3B O 0.0283(10) 0.4862(7) 0.6705(5)
O4B O 0.2006(11) 0.4852(7) 0.4727(6)
O5B O -0.1349(12) 0.2970(9) 0.4805(6)
O6B O 0.2932(12) 0.3471(8) 0.6394(6)
O7B O 0.0555(9) 0.2723(6) 0.7982(5)
O9B_2 O 0.0237(9) 0.0434(7) 0.6415(5)
C2B C 0.1061(12) 0.2971(8) -0.0033(6)
H16B H 0.112 0.210 0.159667
H17B H 0.264 0.239 0.069667
C2A C 0.1910(9) -0.1061(12) -0.3367(6)
H16A H 0.098 -0.112 -0.173667
H17A H -0.025 -0.264 -0.263667
Ho1B_2 Ho 0.03843(4) 0.27536(3) -0.40183
H3A H 0.263 0.179 0.413333
H4A H 0.319 0.299 0.314333
H5A H 0.487 -0.019 0.272333
H6A H 0.546 0.026 0.396333
H7A H 0.275 -0.219 0.071333
H8A H 0.513 0.229 0.181333
H9A H 0.438 0.113 0.078333
H10A H 0.064 -0.332 0.250333
H11A H -0.015 -0.315 0.351333
C1A C 0.1465(9) -0.1539(12) 0.5401(6)
H3B H -0.179 0.084 0.746667
H4B H -0.299 0.020 0.647667
H5B H 0.019 0.506 0.605667
H6B H -0.026 0.520 0.729667
H7B H 0.219 0.494 0.404667
H8B H -0.229 0.284 0.514667
H9B H -0.113 0.325 0.411667
H10B H 0.332 0.396 0.583667
H11B H 0.315 0.300 0.684667
C1B C 0.1539(12) 0.3004(8) 0.8735(6)
C1B_2 C 0.1539(12) 0.3004(8) -0.1265(6)
N1B N -0.0565(11) 0.2534(8) 0.0015(6)
H12B H 0.176 0.411 0.029667
C1A_2 C 0.1465(9) -0.1539(12) -0.4599(6)
N1A N 0.3099(8) 0.0565(11) -0.3319(6)
H12A H 0.235 -0.176 -0.303667
O8A O 0.0451(8) -0.2901(12) 0.5249(6)
C2A_2 C 0.1910(9) -0.1061(12) 0.6633(6)
O8B O 0.2901(12) 0.3352(9) 0.8583(6)
C2B_2 C 0.1061(12) 0.2971(8) 0.9967(6)
H13B H -0.092 0.276 0.064667
H14B H -0.100 0.159 -0.031333
H15B H -0.072 0.297 -0.062333
H13A H 0.368 0.092 -0.268667
H14A H 0.259 0.100 -0.364667
H15A H 0.369 0.072 -0.395667
Cl1 Cl -0.0757(4) -0.6257(3) 0.2335(2)
H18? H -0.430 -0.224 -0.150
loop_
_geom_bond_atom_site_label_1
_geom_bond_atom_site_label_2
_geom_bond_site_symmetry_1
_geom_bond_site_symmetry_2
O1 H1 1_555 1_555
H2 O1 1_555 1_555
Ho1 O2 1_555 1_555
O2 H3 1_555 1_555
O3 Ho1 1_555 1_555
O4 Ho1 1_555 1_555
O5 Ho1 1_555 1_555
O6 Ho1 1_555 1_555
O7 Ho1 1_555 1_555
O8 C1 1_555 1_555
C1 O7 1_555 1_555
C2 C1 1_555 1_555
N1 C2 1_555 1_555
C3 C2 1_555 1_555
C4 C3 1_555 1_555
O9 Ho1 1_555 1_555
O10 Ho1 1_555 1_555
H4 O2 1_555 1_555
H5 O3 1_555 1_555
H6 O3 1_555 1_555
H7 O4 1_555 1_555
H8 O5 1_555 1_555
H9 O5 1_555 1_555
H10 O6 1_555 1_555
H11 O6 1_555 1_555
H12 C2 1_555 1_555
H13 N1 1_555 1_555
H14 N1 1_555 1_555
H15 N1 1_555 1_555
H16 C3 1_555 1_555
H17 C3 1_555 1_555
O9A C4 1_555 1_555
O10B C4 1_555 1_555
C4B O9 1_555 1_555
C4A O10 1_555 1_555
Ho1A O9A 1_555 1_555
Ho1B O10B 1_555 1_555
C3B C4B 1_555 1_555
O10A C4B 1_555 1_555
C3A C4A 1_555 1_555
O9B C4A 1_555 1_555
O2A Ho1A 1_555 1_555
O3A Ho1A 1_555 1_555
O4A Ho1A 1_555 1_555
O5A Ho1A 1_555 1_555
O6A Ho1A 1_555 1_555
O7A Ho1A 1_555 1_555
O2B Ho1B 1_555 1_555
O3B Ho1B 1_555 1_555
O4B Ho1B 1_555 1_555
O5B Ho1B 1_555 1_555
O6B Ho1B 1_555 1_555
O7B Ho1B 1_555 1_555
O9B_2 Ho1B 1_555 1_555
C2B C3B 1_555 1_555
H16B C3B 1_555 1_555
H17B C3B 1_555 1_555
C2A C3A 1_555 1_555
H16A C3A 1_555 1_555
H17A C3A 1_555 1_555
Ho1B_2 O9B 1_555 1_555
H3A O2A 1_555 1_555
H4A O2A 1_555 1_555
H5A O3A 1_555 1_555
H6A O3A 1_555 1_555
H7A O4A 1_555 1_555
H8A O5A 1_555 1_555
H9A O5A 1_555 1_555
H10A O6A 1_555 1_555
H11A O6A 1_555 1_555
C1A O7A 1_555 1_555
H3B O2B 1_555 1_555
H4B O2B 1_555 1_555
H5B O3B 1_555 1_555
H6B O3B 1_555 1_555
H7B O4B 1_555 1_555
H8B O5B 1_555 1_555
H9B O5B 1_555 1_555
H10B O6B 1_555 1_555
H11B O6B 1_555 1_555
C1B O7B 1_555 1_555
C1B_2 C2B 1_555 1_555
N1B C2B 1_555 1_555
H12B C2B 1_555 1_555
C1A_2 C2A 1_555 1_555
N1A C2A 1_555 1_555
H12A C2A 1_555 1_555
O8A C1A 1_555 1_555
C2A_2 C1A 1_555 1_555
O8B C1B 1_555 1_555
C2B_2 C1B 1_555 1_555
H13B N1B 1_555 1_555
H14B N1B 1_555 1_555
H15B N1B 1_555 1_555
H13A N1A 1_555 1_555
H14A N1A 1_555 1_555
H15A N1A 1_555 1_555
Ho1A O10A 1_555 1_555

#END
