
#######################################################################
#
#                 Cambridge Crystallographic Data Centre
#                                CCDC 
#
#######################################################################
#
# If this CIF has been generated from an entry in the Cambridge 
# Structural Database, then it will include bibliographic, chemical, 
# crystal, experimental, refinement or atomic coordinate data resulting 
# from the CCDC's data processing and validation procedures.
#
#######################################################################

data_JAZPOQ
_symmetry_cell_setting           triclinic
_symmetry_space_group_name_H-M   'P -1'
_symmetry_Int_Tables_number      2
_space_group_name_Hall           '-P 1'
loop_
_symmetry_equiv_pos_site_id
_symmetry_equiv_pos_as_xyz
1 x,y,z
2 -x,-y,-z
_cell_length_a                   6.98(2)
_cell_length_b                   7.03(2)
_cell_length_c                   11.93(4)
_cell_angle_alpha                98.18(6)
_cell_angle_beta                 90.10(6)
_cell_angle_gamma                118.59(5)
_cell_volume                     507.144
loop_
_atom_site_label
_atom_site_type_symbol
_atom_site_fract_x
_atom_site_fract_y
_atom_site_fract_z
K1 K 0.2499(3) 0.0004(3) 0.50049(16)
N1 N 0.0971(12) 0.2197(11) 0.3531(6)
C1 C 0.0822(16) 0.1938(13) 0.2256(6)
C2 C -0.148(2) 0.166(3) 0.1986(11)
H1 H -0.2581 0.0264 0.2142
H2 H -0.1658 0.1745 0.1199
H3 H -0.1628 0.2812 0.2450
C3 C 0.104(3) 0.001(3) 0.1782(12)
H4 H -0.0142 -0.1288 0.1994
H5 H 0.2409 0.0181 0.2074
H6 H 0.1001 -0.0133 0.0969
C4 C 0.2513(16) 0.4170(16) 0.2010(8)
C5 C 0.4793(19) 0.423(3) 0.1818(14)
H7 H 0.5841 0.5655 0.1664
H8 H 0.4611 0.3135 0.1186
H9 H 0.5305 0.3947 0.2488
C6 C 0.211(2) 0.521(2) 0.1080(10)
H10 H 0.0738 0.5205 0.1160
H11 H 0.2065 0.4396 0.0354
H12 H 0.3269 0.6697 0.1134
N2 N 0.2900(11) 0.5554(10) 0.3130(5)
O1 O 0.3960(12) 0.7674(9) 0.3280(5)
C7 C 0.2086(12) 0.4221(11) 0.3961(6)
C8 C 0.2469(13) 0.5006(11) 0.5256(7)
O2 O 0.1523(12) 0.3536(9) 0.5820(5)
O3 O 0.3657(11) 0.6974(8) 0.5584(5)
K1A K -0.2499(3) -0.0004(3) 0.49951(16)
K1A_2 K 0.7501(3) -0.0004(3) 0.49951(16)
K1_2 K 0.2499(3) 1.0004(3) 0.50049(16)
K1A_3 K 0.7501(3) 0.9996(3) 0.49951(16)
N1A N -0.0971(12) -0.2197(11) 0.6469(6)
O1_2 O 0.3960(12) -0.2326(9) 0.3280(5)
O1A O 0.6040(12) 0.2326(9) 0.6720(5)
O2A O -0.1523(12) -0.3536(9) 0.4180(5)
O3_2 O 0.3657(11) -0.3026(8) 0.5584(5)
O3A O 0.6343(11) 0.3026(8) 0.4416(5)
loop_
_geom_bond_atom_site_label_1
_geom_bond_atom_site_label_2
_geom_bond_site_symmetry_1
_geom_bond_site_symmetry_2
K1 N1 1_555 1_555
N1 C1 1_555 1_555
C1 C2 1_555 1_555
C2 H1 1_555 1_555
H2 C2 1_555 1_555
H3 C2 1_555 1_555
C3 C1 1_555 1_555
H4 C3 1_555 1_555
H5 C3 1_555 1_555
H6 C3 1_555 1_555
C4 C1 1_555 1_555
C5 C4 1_555 1_555
H7 C5 1_555 1_555
H8 C5 1_555 1_555
H9 C5 1_555 1_555
C6 C4 1_555 1_555
H10 C6 1_555 1_555
H11 C6 1_555 1_555
H12 C6 1_555 1_555
N2 C4 1_555 1_555
O1 N2 1_555 1_555
C7 N1 1_555 1_555
C8 C7 1_555 1_555
O2 K1 1_555 1_555
O3 C8 1_555 1_555
K1A N1 1_555 1_555
K1A_2 O1_2 1_555 1_555
K1_2 O1 1_555 1_555
K1A_3 O1 1_555 1_555
N1A K1 1_555 1_555
O1_2 K1 1_555 1_555
O1A K1 1_555 1_555
O2A K1 1_555 1_555
O3_2 K1 1_555 1_555
O3A K1 1_555 1_555
N2 C7 1_555 1_555
C8 O2 1_555 1_555
O2 K1A 1_555 1_555
O3 K1_2 1_555 1_555
O3 K1A_3 1_555 1_555
K1A N1A 1_555 1_555
K1A O2A 1_555 1_555
K1A_2 O1A 1_555 1_555
K1A_2 O3_2 1_555 1_555
K1A_2 O3A 1_555 1_555

#END
