
#######################################################################
#
#                 Cambridge Crystallographic Data Centre
#                                CCDC 
#
#######################################################################
#
# If this CIF has been generated from an entry in the Cambridge 
# Structural Database, then it will include bibliographic, chemical, 
# crystal, experimental, refinement or atomic coordinate data resulting 
# from the CCDC's data processing and validation procedures.
#
#######################################################################

data_JAZZAM
_symmetry_cell_setting           tetragonal
_symmetry_space_group_name_H-M   'I 41 c d'
_symmetry_Int_Tables_number      110
_space_group_name_Hall           'I 4bw -2c'
loop_
_symmetry_equiv_pos_site_id
_symmetry_equiv_pos_as_xyz
1 x,y,z
2 1/2-x,1/2-y,1/2+z
3 -y,1/2+x,1/4+z
4 1/2+y,-x,3/4+z
5 x,-y,1/2+z
6 1/2-x,1/2+y,z
7 -y,1/2-x,3/4+z
8 1/2+y,x,1/4+z
9 1/2+x,1/2+y,1/2+z
10 -x,-y,z
11 1/2-y,x,3/4+z
12 y,1/2-x,1/4+z
13 1/2+x,1/2-y,z
14 -x,y,1/2+z
15 1/2-y,-x,1/4+z
16 y,1/2+x,3/4+z
_cell_length_a                   24.072(4)
_cell_length_b                   24.072(4)
_cell_length_c                   46.085(11)
_cell_angle_alpha                90
_cell_angle_beta                 90
_cell_angle_gamma                90
_cell_volume                     26704.5
loop_
_atom_site_label
_atom_site_type_symbol
_atom_site_fract_x
_atom_site_fract_y
_atom_site_fract_z
Co1 Co 0.69865(5) 0.18006(5) 0.16860(2)
Co2 Co 0.76118(4) 0.16752(5) 0.27928(2)
K1 K 0.78956(8) 0.09782(8) 0.21247(3)
K2 K 0.64016(8) 0.14145(8) 0.23609(3)
K3 K 0.65502(9) 0.19291(9) 0.09859(4)
C1 C 0.7922(5) 0.1632(6) 0.1385(2)
O1 O 0.8003(3) 0.1361(4) 0.16083(15)
O2 O 0.7486(3) 0.1913(3) 0.13440(12)
C2 C 0.8342(5) 0.1635(10) 0.1146(3)
C3 C 0.8146(6) 0.1762(9) 0.0852(2)
H1 H 0.8452 0.1743 0.0719
H2 H 0.7991 0.2130 0.0849
H3 H 0.7868 0.1498 0.0796
C4 C 0.8614(14) 0.1168(17) 0.1129(5)
H4 H 0.8760 0.1074 0.1316
H5 H 0.8914 0.1207 0.0993
H6 H 0.8367 0.0880 0.1064
C5 C 0.8783(7) 0.1889(19) 0.1241(5)
H7 H 0.8878 0.1749 0.1430
H8 H 0.8710 0.2281 0.1254
H9 H 0.9087 0.1826 0.1110
O3 O 0.6853(2) 0.1011(2) 0.18434(11)
C6 C 0.6699(4) 0.0799(4) 0.16005(17)
O4 O 0.6614(3) 0.1072(3) 0.13891(13)
C7 C 0.6628(5) 0.0150(4) 0.15977(19)
C8 C 0.6574(8) -0.0050(5) 0.1296(3)
H10 H 0.6528 -0.0446 0.1297
H11 H 0.6902 0.0046 0.1189
H12 H 0.6256 0.0121 0.1207
C9 C 0.6185(8) -0.0016(7) 0.1796(3)
H13 H 0.6145 -0.0413 0.1791
H14 H 0.5842 0.0154 0.1737
H15 H 0.6276 0.0101 0.1989
C10 C 0.7167(9) -0.0113(6) 0.1711(5)
H16 H 0.7130 -0.0510 0.1713
H17 H 0.7238 0.0016 0.1905
H18 H 0.7471 -0.0010 0.1588
O5 O 0.8559(3) 0.1419(3) 0.25045(15)
C11 C 0.8726(4) 0.1616(4) 0.27289(18)
O6 O 0.8401(2) 0.1774(3) 0.29304(12)
C12 C 0.9335(4) 0.1737(5) 0.2773(2)
C13 C 0.9460(6) 0.1681(15) 0.3079(3)
H19 H 0.9847 0.1751 0.3111
H20 H 0.9371 0.1311 0.3142
H21 H 0.9243 0.1943 0.3188
C14 C 0.9697(8) 0.1452(15) 0.2572(5)
H22 H 1.0077 0.1546 0.2613
H23 H 0.9608 0.1563 0.2377
H24 H 0.9647 0.1058 0.2591
C15 C 0.9452(8) 0.2308(8) 0.2666(8)
H25 H 0.9839 0.2390 0.2690
H26 H 0.9234 0.2571 0.2774
H27 H 0.9357 0.2332 0.2464
C16 C 0.5992(5) 0.2307(4) 0.1728(2)
O7 O 0.6025(3) 0.2044(3) 0.19578(14)
O8 O 0.6371(3) 0.2290(3) 0.15427(12)
C17 C 0.5496(5) 0.2685(5) 0.1674(2)
C18 C 0.5419(8) 0.2756(11) 0.1369(3)
H28 H 0.5754 0.2902 0.1285
H29 H 0.5119 0.3010 0.1335
H30 H 0.5334 0.2404 0.1282
C19 C 0.5630(12) 0.3214(8) 0.1843(6)
H31 H 0.5961 0.3379 0.1765
H32 H 0.5687 0.3124 0.2043
H33 H 0.5326 0.3470 0.1825
C20 C 0.4970(6) 0.2438(11) 0.1810(4)
H34 H 0.4880 0.2095 0.1714
H35 H 0.4668 0.2695 0.1788
H36 H 0.5033 0.2369 0.2012
O9 O 0.7312(2) 0.0944(2) 0.26429(10)
O10 O 0.6519(3) 0.1839(4) 0.28714(15)
C21 C 0.7339(4) 0.0654(4) 0.28758(16)
O11 O 0.7585(3) 0.0835(3) 0.30902(12)
C22 C 0.7062(5) 0.0091(4) 0.28822(17)
C23 C 0.6555(6) 0.0139(7) 0.3065(4)
H37 H 0.6299 0.0393 0.2975
H38 H 0.6655 0.0275 0.3254
H39 H 0.6383 -0.0219 0.3083
C24 C 0.6928(7) -0.0109(5) 0.2581(3)
H40 H 0.6695 0.0158 0.2486
H41 H 0.6738 -0.0459 0.2592
H42 H 0.7266 -0.0153 0.2473
C25 C 0.7443(8) -0.0337(6) 0.3038(3)
H43 H 0.7263 -0.0693 0.3042
H44 H 0.7513 -0.0216 0.3233
H45 H 0.7788 -0.0367 0.2935
O12 O 0.7241(3) 0.2021(3) 0.31359(13)
C26 C 0.6729(6) 0.2022(5) 0.3090(2)
C27 C 0.6343(6) 0.2239(8) 0.3335(3)
C28 C 0.5815(8) 0.2050(13) 0.3321(4)
H46 H 0.5603 0.2205 0.3478
H47 H 0.5815 0.1652 0.3335
H48 H 0.5653 0.2159 0.3139
C29 C 0.6591(7) 0.2245(15) 0.3601(3)
H49 H 0.6334 0.2386 0.3742
H50 H 0.6913 0.2480 0.3594
H51 H 0.6699 0.1875 0.3653
C30 C 0.6282(14) 0.2818(11) 0.3272(6)
H52 H 0.6053 0.2989 0.3417
H53 H 0.6111 0.2862 0.3085
H54 H 0.6641 0.2992 0.3271
C31 C 0.7476(4) 0.2369(4) 0.22377(19)
O13 O 0.7530(5) 0.2173(5) 0.2474(3)
O14 O 0.7297(4) 0.2055(5) 0.2070(2)
C32 C 0.7670(8) 0.2934(4) 0.2168(4)
C33 C 0.8213(11) 0.2972(13) 0.2079(9)
H55 H 0.8306 0.3355 0.2046
H56 H 0.8261 0.2767 0.1902
H57 H 0.8452 0.2821 0.2226
C34 C 0.775(2) 0.3206(13) 0.2411(11)
H58 H 0.7406 0.3230 0.2515
H59 H 0.7882 0.3573 0.2368
H60 H 0.8020 0.3014 0.2526
C35 C 0.7468(15) 0.3144(10) 0.1940(7)
H61 H 0.7091 0.3253 0.1976
H62 H 0.7478 0.2874 0.1787
H63 H 0.7682 0.3463 0.1885
O15 O 0.5370(11) 0.1204(8) 0.0900(7)
C36 C 0.5162(11) 0.0928(16) 0.1142(7)
H64 H 0.5181 0.0527 0.1122
H65 H 0.5340 0.1044 0.1321
C37 C 0.4612(11) 0.1135(13) 0.1114(9)
H66 H 0.4597 0.1534 0.1142
H67 H 0.4359 0.0955 0.1248
C38 C 0.4498(18) 0.098(2) 0.0819(9)
H68 H 0.4161 0.0767 0.0798
H69 H 0.4493 0.1300 0.0689
C39 C 0.499(2) 0.066(3) 0.0796(10)
H70 H 0.5069 0.0536 0.0600
H71 H 0.5005 0.0350 0.0931
O16 O 0.8406(5) -0.0015(6) 0.2168(3)
C40 C 0.8708(12) -0.0269(18) 0.2384(7)
H72 H 0.8564 -0.0636 0.2426
H73 H 0.8707 -0.0049 0.2560
C41 C 0.9244(9) -0.0299(13) 0.2263(9)
H74 H 0.9333 -0.0665 0.2188
H75 H 0.9532 -0.0174 0.2395
C42 C 0.9125(13) 0.0096(17) 0.2038(5)
H76 H 0.8998 0.0451 0.2113
H77 H 0.9431 0.0149 0.1905
C43 C 0.8690(11) -0.0230(16) 0.1921(9)
H78 H 0.8549 -0.0105 0.1735
H79 H 0.8755 -0.0628 0.1924
O17 O 0.5417(4) 0.0847(4) 0.2435(2)
C44 C 0.5168(7) 0.0984(15) 0.2688(5)
H80 H 0.5343 0.1316 0.2766
H81 H 0.5223 0.0686 0.2827
C45 C 0.4587(9) 0.1084(13) 0.2657(5)
H82 H 0.4483 0.1443 0.2736
H83 H 0.4369 0.0796 0.2751
C46 C 0.4517(8) 0.1071(13) 0.2351(6)
H84 H 0.4231 0.0803 0.2302
H85 H 0.4394 0.1433 0.2284
C47 C 0.5020(8) 0.0925(13) 0.2204(6)
H86 H 0.5137 0.1220 0.2075
H87 H 0.4972 0.0586 0.2093
K3B K 0.80709(9) 0.15502(9) 0.34859(4)
O6C O 0.6774(3) 0.1599(2) 0.04304(12)
O11C O 0.5835(3) 0.2415(3) 0.05902(12)
O12C O 0.7021(3) 0.2759(3) 0.06359(13)
loop_
_geom_bond_atom_site_label_1
_geom_bond_atom_site_label_2
_geom_bond_site_symmetry_1
_geom_bond_site_symmetry_2
Co1 O2 1_555 1_555
Co2 O6 1_555 1_555
K1 O1 1_555 1_555
K2 O3 1_555 1_555
K3 O2 1_555 1_555
C1 O1 1_555 1_555
O2 C1 1_555 1_555
C2 C1 1_555 1_555
C3 C2 1_555 1_555
H1 C3 1_555 1_555
H2 C3 1_555 1_555
H3 C3 1_555 1_555
C4 C2 1_555 1_555
H4 C4 1_555 1_555
H5 C4 1_555 1_555
H6 C4 1_555 1_555
C5 C2 1_555 1_555
H7 C5 1_555 1_555
H8 C5 1_555 1_555
H9 C5 1_555 1_555
O3 Co1 1_555 1_555
C6 O3 1_555 1_555
O4 Co1 1_555 1_555
C7 C6 1_555 1_555
C8 C7 1_555 1_555
H10 C8 1_555 1_555
H11 C8 1_555 1_555
H12 C8 1_555 1_555
C9 C7 1_555 1_555
H13 C9 1_555 1_555
H14 C9 1_555 1_555
H15 C9 1_555 1_555
C10 C7 1_555 1_555
H16 C10 1_555 1_555
H17 C10 1_555 1_555
H18 C10 1_555 1_555
O5 K1 1_555 1_555
C11 O5 1_555 1_555
O6 C11 1_555 1_555
C12 C11 1_555 1_555
C13 C12 1_555 1_555
H19 C13 1_555 1_555
H20 C13 1_555 1_555
H21 C13 1_555 1_555
C14 C12 1_555 1_555
H22 C14 1_555 1_555
H23 C14 1_555 1_555
H24 C14 1_555 1_555
C15 C12 1_555 1_555
H25 C15 1_555 1_555
H26 C15 1_555 1_555
H27 C15 1_555 1_555
C16 O7 1_555 1_555
O7 K2 1_555 1_555
O8 Co1 1_555 1_555
C17 C16 1_555 1_555
C18 C17 1_555 1_555
H28 C18 1_555 1_555
H29 C18 1_555 1_555
H30 C18 1_555 1_555
C19 C17 1_555 1_555
H31 C19 1_555 1_555
H32 C19 1_555 1_555
H33 C19 1_555 1_555
C20 C17 1_555 1_555
H34 C20 1_555 1_555
H35 C20 1_555 1_555
H36 C20 1_555 1_555
O9 Co2 1_555 1_555
O10 K2 1_555 1_555
C21 O9 1_555 1_555
O11 Co2 1_555 1_555
C22 C21 1_555 1_555
C23 C22 1_555 1_555
H37 C23 1_555 1_555
H38 C23 1_555 1_555
H39 C23 1_555 1_555
C24 C22 1_555 1_555
H40 C24 1_555 1_555
H41 C24 1_555 1_555
H42 C24 1_555 1_555
C25 C22 1_555 1_555
H43 C25 1_555 1_555
H44 C25 1_555 1_555
H45 C25 1_555 1_555
O12 Co2 1_555 1_555
C26 O10 1_555 1_555
C27 C26 1_555 1_555
C28 C27 1_555 1_555
H46 C28 1_555 1_555
H47 C28 1_555 1_555
H48 C28 1_555 1_555
C29 C27 1_555 1_555
H49 C29 1_555 1_555
H50 C29 1_555 1_555
H51 C29 1_555 1_555
C30 C27 1_555 1_555
H52 C30 1_555 1_555
H53 C30 1_555 1_555
H54 C30 1_555 1_555
C31 O13 1_555 1_555
O13 Co2 1_555 1_555
O14 Co1 1_555 1_555
C32 C31 1_555 1_555
C33 C32 1_555 1_555
H55 C33 1_555 1_555
H56 C33 1_555 1_555
H57 C33 1_555 1_555
C34 C32 1_555 1_555
H58 C34 1_555 1_555
H59 C34 1_555 1_555
H60 C34 1_555 1_555
C35 C32 1_555 1_555
H61 C35 1_555 1_555
H62 C35 1_555 1_555
H63 C35 1_555 1_555
O15 K3 1_555 1_555
C36 O15 1_555 1_555
H64 C36 1_555 1_555
H65 C36 1_555 1_555
C37 C36 1_555 1_555
H66 C37 1_555 1_555
H67 C37 1_555 1_555
C38 C37 1_555 1_555
H68 C38 1_555 1_555
H69 C38 1_555 1_555
C39 O15 1_555 1_555
H70 C39 1_555 1_555
H71 C39 1_555 1_555
O16 K1 1_555 1_555
C40 O16 1_555 1_555
H72 C40 1_555 1_555
H73 C40 1_555 1_555
C41 C40 1_555 1_555
H74 C41 1_555 1_555
H75 C41 1_555 1_555
C42 C41 1_555 1_555
H76 C42 1_555 1_555
H77 C42 1_555 1_555
C43 O16 1_555 1_555
H78 C43 1_555 1_555
H79 C43 1_555 1_555
O17 K2 1_555 1_555
C44 O17 1_555 1_555
H80 C44 1_555 1_555
H81 C44 1_555 1_555
C45 C44 1_555 1_555
H82 C45 1_555 1_555
H83 C45 1_555 1_555
C46 C45 1_555 1_555
H84 C46 1_555 1_555
H85 C46 1_555 1_555
C47 O17 1_555 1_555
H86 C47 1_555 1_555
H87 C47 1_555 1_555
K3B O6 1_555 1_555
O6C K3 1_555 1_555
O11C K3 1_555 1_555
O12C K3 1_555 1_555
K1 O3 1_555 1_555
K1 O9 1_555 1_555
K1 O14 1_555 1_555
K2 O9 1_555 1_555
K2 O14 1_555 1_555
K3 O4 1_555 1_555
K3 O8 1_555 1_555
C6 O4 1_555 1_555
C16 O8 1_555 1_555
C21 O11 1_555 1_555
O11 K3B 1_555 1_555
O12 C26 1_555 1_555
O12 K3B 1_555 1_555
C31 O14 1_555 1_555
C38 C39 1_555 1_555
C42 C43 1_555 1_555
C46 C47 1_555 1_555

#END
