
#######################################################################
#
#                 Cambridge Crystallographic Data Centre
#                                CCDC 
#
#######################################################################
#
# If this CIF has been generated from an entry in the Cambridge 
# Structural Database, then it will include bibliographic, chemical, 
# crystal, experimental, refinement or atomic coordinate data resulting 
# from the CCDC's data processing and validation procedures.
#
#######################################################################

data_JAZZEQ
_symmetry_cell_setting           monoclinic
_symmetry_space_group_name_H-M   'P 21/n'
_symmetry_Int_Tables_number      14
_space_group_name_Hall           '-P 2yn'
loop_
_symmetry_equiv_pos_site_id
_symmetry_equiv_pos_as_xyz
1 x,y,z
2 1/2-x,1/2+y,1/2-z
3 -x,-y,-z
4 1/2+x,1/2-y,1/2+z
_cell_length_a                   15.257(2)
_cell_length_b                   25.260(3)
_cell_length_c                   24.870(4)
_cell_angle_alpha                90
_cell_angle_beta                 90.297(3)
_cell_angle_gamma                90
_cell_volume                     9584.57
loop_
_atom_site_label
_atom_site_type_symbol
_atom_site_fract_x
_atom_site_fract_y
_atom_site_fract_z
Cu1 Cu 0.80408(5) 0.32609(2) 0.68940(3)
Cu2 Cu 0.67953(5) 0.09473(2) 0.80947(3)
K1 K 0.54745(10) 0.18168(5) 0.73818(6)
K2 K 0.76517(9) 0.46007(4) 0.70983(5)
K3 K 0.69687(9) 0.22216(5) 0.62422(6)
K4 K 0.97432(9) 0.40735(5) 0.63817(6)
K5 K 0.85288(9) 0.52002(5) 0.57346(5)
K6 K 0.78475(9) 0.21071(5) 0.76874(5)
O1 O 1.0364(4) 0.5557(2) 0.5823(2)
H1 H 1.0648 0.5692 0.5523
H2 H 1.0658 0.5534 0.6150
O2 O 0.9713(3) 0.44231(17) 0.53306(17)
H3 H 0.9455 0.4176 0.5076
H4 H 1.0266 0.4563 0.5203
O3 O 0.7383(4) 0.1888(2) 0.5235(3)
C1 C 0.6626(10) 0.1698(4) 0.4854(3)
H5 H 0.6334 0.1995 0.4683
H6 H 0.6198 0.1489 0.5047
C2 C 0.7189(14) 0.1317(12) 0.4389(12)
H7 H 0.7026 0.0947 0.4415
H8 H 0.7080 0.1440 0.4025
C3 C 0.8012(19) 0.1389(11) 0.4528(7)
H9 H 0.8327 0.1489 0.4205
H10 H 0.8241 0.1048 0.4640
C4 C 0.8255(12) 0.1785(8) 0.4960(8)
H11 H 0.8491 0.2107 0.4804
H12 H 0.8680 0.1637 0.5209
O4 O 0.5398(5) 0.1960(4) 0.6053(6)
C5 C 0.4764(9) 0.1956(3) 0.6140(4)
C6 C 0.3967(6) 0.2065(4) 0.5732(4)
C7 C 0.3869(18) 0.1704(10) 0.5316(10)
H13 H 0.3363 0.1795 0.5104
H14 H 0.3796 0.1355 0.5462
H15 H 0.4381 0.1711 0.5093
O5 O 0.4319(6) 0.1825(4) 0.6597(4)
C8 C 0.4398(16) 0.2395(13) 0.5299(10)
H16 H 0.3971 0.2489 0.5032
H17 H 0.4859 0.2194 0.5135
H18 H 0.4639 0.2710 0.5457
C9 C 0.3283(12) 0.2312(14) 0.5941(8)
H19 H 0.2836 0.2351 0.5670
H20 H 0.3459 0.2655 0.6068
H21 H 0.3057 0.2108 0.6235
O6 O 0.6404(3) 0.12023(15) 0.87966(15)
C10 C 0.6348(4) 0.1703(2) 0.8758(2)
O7 O 0.6441(3) 0.19432(15) 0.83274(16)
C11 C 0.6158(5) 0.2006(2) 0.9279(3)
C12 C 0.6084(16) 0.2543(5) 0.9217(6)
H22 H 0.5974 0.2704 0.9559
H23 H 0.5608 0.2620 0.8975
H24 H 0.6619 0.2681 0.9071
C13 C 0.6787(13) 0.1910(8) 0.9656(6)
H25 H 0.6654 0.2102 0.9979
H26 H 0.7346 0.2022 0.9522
H27 H 0.6805 0.1538 0.9734
C14 C 0.5356(10) 0.1824(7) 0.9506(7)
H28 H 0.5241 0.2015 0.9832
H29 H 0.5403 0.1453 0.9585
H30 H 0.4886 0.1881 0.9255
O8 O 0.9200(2) 0.30922(15) 0.66148(16)
C15 C 0.9255(4) 0.2587(2) 0.6600(2)
O9 O 0.8645(3) 0.22896(15) 0.67040(17)
C16 C 1.0157(5) 0.2359(3) 0.6449(4)
C17 C 1.0370(7) 0.1929(5) 0.6818(7)
H31 H 1.0442 0.2069 0.7175
H32 H 1.0905 0.1763 0.6707
H33 H 0.9904 0.1674 0.6815
C18 C 1.0845(6) 0.2768(4) 0.6440(8)
H34 H 1.0922 0.2911 0.6795
H35 H 1.0677 0.3046 0.6197
H36 H 1.1386 0.2614 0.6322
C19 C 1.0021(11) 0.2105(8) 0.5894(7)
H37 H 1.0563 0.1954 0.5774
H38 H 0.9831 0.2370 0.5643
H39 H 0.9584 0.1833 0.5918
O10 O 1.1205(3) 0.4632(2) 0.6109(2)
C20 C 1.1777(4) 0.4526(2) 0.5759(3)
O11 O 1.1634(3) 0.4575(2) 0.5274(2)
C21 C 1.2676(4) 0.4369(3) 0.5957(3)
C22 C 1.3287(6) 0.4291(5) 0.5500(4)
H40 H 1.3355 0.4619 0.5310
H41 H 1.3055 0.4027 0.5261
H42 H 1.3847 0.4177 0.5635
C23 C 1.3008(6) 0.4800(5) 0.6321(5)
H43 H 1.3114 0.5114 0.6115
H44 H 1.3544 0.4688 0.6490
H45 H 1.2578 0.4873 0.6592
C24 C 1.2560(7) 0.3867(4) 0.6303(5)
H46 H 1.2162 0.3940 0.6591
H47 H 1.3117 0.3761 0.6448
H48 H 1.2328 0.3586 0.6084
O12 O 0.5726(2) 0.00115(14) 0.81550(16)
C25 C 0.5336(4) 0.0352(2) 0.7877(2)
O13 O 0.5597(3) 0.08353(15) 0.78563(16)
C26 C 0.4540(4) 0.0229(3) 0.7528(3)
C27 C 0.4797(6) 0.0330(4) 0.6949(3)
H49 H 0.4974 0.0692 0.6909
H50 H 0.4304 0.0260 0.6718
H51 H 0.5274 0.0101 0.6854
C28 C 0.4259(5) -0.0348(3) 0.7585(3)
H52 H 0.4081 -0.0414 0.7948
H53 H 0.4742 -0.0575 0.7496
H54 H 0.3778 -0.0418 0.7345
C29 C 0.3813(6) 0.0588(4) 0.7706(4)
H55 H 0.3675 0.0516 0.8075
H56 H 0.3303 0.0527 0.7487
H57 H 0.3994 0.0950 0.7670
O14 O 0.7050(3) 0.53740(15) 0.63971(16)
C30 C 0.6633(4) 0.5789(2) 0.6500(2)
O15 O 0.6993(3) 0.61759(15) 0.67432(16)
C31 C 0.5695(4) 0.5841(3) 0.6336(3)
C32 C 0.5441(7) 0.5417(5) 0.5940(6)
H58 H 0.5797 0.5448 0.5624
H59 H 0.4835 0.5458 0.5843
H60 H 0.5530 0.5075 0.6100
C33 C 0.5159(7) 0.5745(10) 0.6832(6)
H61 H 0.5308 0.6003 0.7100
H62 H 0.5280 0.5397 0.6968
H63 H 0.4548 0.5773 0.6744
C34 C 0.5552(9) 0.6381(5) 0.6066(9)
H64 H 0.5938 0.6415 0.5764
H65 H 0.5673 0.6658 0.6320
H66 H 0.4955 0.6409 0.5945
O16 O 0.6477(2) 0.27582(14) 0.71931(16)
C35 C 0.6369(4) 0.3246(2) 0.7249(2)
O17 O 0.6978(3) 0.35817(14) 0.71626(16)
C36 C 0.5495(4) 0.3474(2) 0.7422(3)
C37 C 0.5365(9) 0.3999(5) 0.7247(9)
H67 H 0.4805 0.4123 0.7368
H68 H 0.5382 0.4011 0.6861
H69 H 0.5819 0.4221 0.7391
C38 C 0.4808(7) 0.3190(6) 0.7312(9)
H70 H 0.4294 0.3366 0.7445
H71 H 0.4863 0.2850 0.7481
H72 H 0.4757 0.3145 0.6930
C39 C 0.5430(10) 0.3485(9) 0.7956(6)
H73 H 0.4869 0.3626 0.8055
H74 H 0.5886 0.3704 0.8103
H75 H 0.5487 0.3132 0.8095
O18 O 0.7080(3) 0.13623(14) 0.70338(15)
C40 C 0.7287(4) 0.0883(2) 0.7040(2)
O19 O 0.7214(3) 0.05870(14) 0.74512(15)
C41 C 0.7657(5) 0.0626(2) 0.6536(3)
C42 C 0.6930(9) 0.0674(6) 0.6093(4)
H76 H 0.7134 0.0516 0.5765
H77 H 0.6799 0.1041 0.6031
H78 H 0.6410 0.0494 0.6210
C43 C 0.8329(11) 0.0926(5) 0.6322(6)
H79 H 0.8820 0.0923 0.6565
H80 H 0.8131 0.1283 0.6271
H81 H 0.8502 0.0779 0.5983
C44 C 0.7734(12) 0.0056(3) 0.6577(5)
H82 H 0.8152 -0.0031 0.6853
H83 H 0.7927 -0.0086 0.6240
H84 H 0.7174 -0.0093 0.6666
O20 O 0.8441(3) 0.30967(14) 0.76256(15)
C45 C 0.8753(4) 0.3507(3) 0.7842(3)
O21 O 0.8807(3) 0.39389(16) 0.76022(19)
C46 C 0.9063(6) 0.3455(3) 0.8420(3)
C47 C 0.9699(14) 0.3839(6) 0.8568(6)
H85 H 1.0217 0.3789 0.8355
H86 H 0.9844 0.3799 0.8942
H87 H 0.9468 0.4187 0.8506
C48 C 0.9287(15) 0.2912(5) 0.8568(5)
H88 H 0.9805 0.2806 0.8379
H89 H 0.8811 0.2681 0.8474
H90 H 0.9394 0.2893 0.8948
C49 C 0.8284(14) 0.3584(11) 0.8776(5)
H91 H 0.8455 0.3554 0.9147
H92 H 0.7816 0.3341 0.8702
H93 H 0.8090 0.3939 0.8705
C50 C 0.3245(9) 0.2072(5) 0.7746(5)
O22 O 0.3941(5) 0.2003(3) 0.7879(3)
O23 O 0.2987(5) 0.2005(4) 0.7263(4)
H94 H 0.3412 0.1954 0.7070
C51 C 0.2571(10) 0.2171(9) 0.8163(9)
C52 C 0.3261(17) 0.2034(12) 0.8562(8)
H95 H 0.3350 0.1658 0.8563
H96 H 0.3082 0.2147 0.8913
H97 H 0.3798 0.2208 0.8467
C53 C 0.2204(17) 0.2723(12) 0.8011(9)
H98 H 0.1877 0.2698 0.7681
H99 H 0.2680 0.2967 0.7966
H100 H 0.1826 0.2847 0.8292
C54 C 0.2121(15) 0.1749(10) 0.8209(9)
H101 H 0.2488 0.1469 0.8345
H102 H 0.1891 0.1650 0.7863
H103 H 0.1646 0.1808 0.8453
O24 O 0.7538(3) 0.32668(14) 0.61751(16)
C55 C 0.7560(4) 0.3718(2) 0.5941(2)
O25 O 0.7960(2) 0.41049(14) 0.61344(15)
C56 C 0.7074(5) 0.3752(2) 0.5419(3)
C57 C 0.6225(10) 0.3525(10) 0.5449(8)
H104 H 0.5830 0.3718 0.5220
H105 H 0.6021 0.3541 0.5813
H106 H 0.6250 0.3162 0.5335
C58 C 0.739(2) 0.3342(6) 0.5058(6)
H107 H 0.7776 0.3108 0.5251
H108 H 0.7702 0.3502 0.4766
H109 H 0.6902 0.3144 0.4918
C59 C 0.7318(8) 0.4169(4) 0.5079(4)
H110 H 0.6983 0.4150 0.4752
H111 H 0.7931 0.4141 0.4998
H112 H 0.7207 0.4500 0.5255
Cu2A Cu 0.82047(5) 0.59473(2) 0.69053(3)
K2A K 0.73483(9) -0.03993(4) 0.79017(5)
K4A K 0.52568(9) -0.09265(5) 0.86183(6)
K5A K 0.64712(9) 0.02002(5) 0.92654(5)
K5B K 1.14712(9) 0.47998(5) 0.42654(5)
K6A K 0.71525(9) 0.71071(5) 0.73126(5)
O6A O 0.8596(3) 0.62023(15) 0.62034(15)
O11B O 0.8366(3) 0.5425(2) 0.4726(2)
O12A O 0.9274(2) 0.50115(14) 0.68450(16)
O15A O 0.8007(3) 0.11759(15) 0.82568(16)
O19A O 0.7786(3) 0.55870(14) 0.75488(15)
O26 O 0.8575(8) 0.9587(4) 0.5354(4)
C60 C 0.8528(8) 0.9283(4) 0.4875(4)
H113 H 0.8000 0.9068 0.4873
H114 H 0.8511 0.9515 0.4564
C61 C 0.9281(8) 0.8953(4) 0.4854(4)
H115 H 0.9618 0.9031 0.4534
H116 H 0.9107 0.8584 0.4843
C62 C 0.9794(8) 0.9054(4) 0.5321(4)
H117 H 0.9861 0.8732 0.5530
H118 H 1.0372 0.9178 0.5220
C63 C 0.9358(8) 0.9445(4) 0.5630(4)
H119 H 0.9731 0.9753 0.5674
H120 H 0.9220 0.9307 0.5984
O27 O 1.122(2) 0.0436(14) 0.678(2)
C64 C 1.185(4) 0.0615(15) 0.669(2)
H121 H 1.2179 0.0718 0.7003
H122 H 1.1805 0.0908 0.6435
C65 C 1.2195(16) 0.0082(16) 0.6417(12)
H123 H 1.2827 0.0045 0.6445
H124 H 1.2011 0.0047 0.6045
C66 C 1.165(2) -0.0338(11) 0.6835(17)
H125 H 1.1355 -0.0630 0.6656
H126 H 1.1978 -0.0453 0.7148
C67 C 1.127(3) -0.0016(13) 0.689(3)
H127 H 1.1251 -0.0002 0.7282
H128 H 1.0700 -0.0147 0.6785
loop_
_geom_bond_atom_site_label_1
_geom_bond_atom_site_label_2
_geom_bond_site_symmetry_1
_geom_bond_site_symmetry_2
Cu1 O8 1_555 1_555
Cu2 O6 1_555 1_555
K1 O5 1_555 1_555
K2 O14 1_555 1_555
K3 O3 1_555 1_555
K4 O2 1_555 1_555
K5 O1 1_555 1_555
K6 O7 1_555 1_555
O1 H1 1_555 1_555
H2 O1 1_555 1_555
O2 K5 1_555 1_555
H3 O2 1_555 1_555
H4 O2 1_555 1_555
O3 C1 1_555 1_555
C1 H5 1_555 1_555
H6 C1 1_555 1_555
C2 C1 1_555 1_555
H7 C2 1_555 1_555
H8 C2 1_555 1_555
C3 C2 1_555 1_555
H9 C3 1_555 1_555
H10 C3 1_555 1_555
C4 O3 1_555 1_555
H11 C4 1_555 1_555
H12 C4 1_555 1_555
O4 K3 1_555 1_555
C5 O4 1_555 1_555
C6 C5 1_555 1_555
C7 C6 1_555 1_555
H13 C7 1_555 1_555
H14 C7 1_555 1_555
H15 C7 1_555 1_555
O5 C5 1_555 1_555
C8 C6 1_555 1_555
H16 C8 1_555 1_555
H17 C8 1_555 1_555
H18 C8 1_555 1_555
C9 C6 1_555 1_555
H19 C9 1_555 1_555
H20 C9 1_555 1_555
H21 C9 1_555 1_555
O6 C10 1_555 1_555
C10 O7 1_555 1_555
O7 K1 1_555 1_555
C11 C10 1_555 1_555
C12 C11 1_555 1_555
H22 C12 1_555 1_555
H23 C12 1_555 1_555
H24 C12 1_555 1_555
C13 C11 1_555 1_555
H25 C13 1_555 1_555
H26 C13 1_555 1_555
H27 C13 1_555 1_555
C14 C11 1_555 1_555
H28 C14 1_555 1_555
H29 C14 1_555 1_555
H30 C14 1_555 1_555
O8 K4 1_555 1_555
C15 O8 1_555 1_555
O9 K3 1_555 1_555
C16 C15 1_555 1_555
C17 C16 1_555 1_555
H31 C17 1_555 1_555
H32 C17 1_555 1_555
H33 C17 1_555 1_555
C18 C16 1_555 1_555
H34 C18 1_555 1_555
H35 C18 1_555 1_555
H36 C18 1_555 1_555
C19 C16 1_555 1_555
H37 C19 1_555 1_555
H38 C19 1_555 1_555
H39 C19 1_555 1_555
O10 K4 1_555 1_555
C20 O10 1_555 1_555
O11 C20 1_555 1_555
C21 C20 1_555 1_555
C22 C21 1_555 1_555
H40 C22 1_555 1_555
H41 C22 1_555 1_555
H42 C22 1_555 1_555
C23 C21 1_555 1_555
H43 C23 1_555 1_555
H44 C23 1_555 1_555
H45 C23 1_555 1_555
C24 C21 1_555 1_555
H46 C24 1_555 1_555
H47 C24 1_555 1_555
H48 C24 1_555 1_555
O12 C25 1_555 1_555
C25 O13 1_555 1_555
O13 Cu2 1_555 1_555
C26 C25 1_555 1_555
C27 C26 1_555 1_555
H49 C27 1_555 1_555
H50 C27 1_555 1_555
H51 C27 1_555 1_555
C28 C26 1_555 1_555
H52 C28 1_555 1_555
H53 C28 1_555 1_555
H54 C28 1_555 1_555
C29 C26 1_555 1_555
H55 C29 1_555 1_555
H56 C29 1_555 1_555
H57 C29 1_555 1_555
O14 K5 1_555 1_555
C30 O14 1_555 1_555
O15 C30 1_555 1_555
C31 C30 1_555 1_555
C32 C31 1_555 1_555
H58 C32 1_555 1_555
H59 C32 1_555 1_555
H60 C32 1_555 1_555
C33 C31 1_555 1_555
H61 C33 1_555 1_555
H62 C33 1_555 1_555
H63 C33 1_555 1_555
C34 C31 1_555 1_555
H64 C34 1_555 1_555
H65 C34 1_555 1_555
H66 C34 1_555 1_555
O16 K1 1_555 1_555
C35 O16 1_555 1_555
O17 Cu1 1_555 1_555
C36 C35 1_555 1_555
C37 C36 1_555 1_555
H67 C37 1_555 1_555
H68 C37 1_555 1_555
H69 C37 1_555 1_555
C38 C36 1_555 1_555
H70 C38 1_555 1_555
H71 C38 1_555 1_555
H72 C38 1_555 1_555
C39 C36 1_555 1_555
H73 C39 1_555 1_555
H74 C39 1_555 1_555
H75 C39 1_555 1_555
O18 K1 1_555 1_555
C40 O18 1_555 1_555
O19 Cu2 1_555 1_555
C41 C40 1_555 1_555
C42 C41 1_555 1_555
H76 C42 1_555 1_555
H77 C42 1_555 1_555
H78 C42 1_555 1_555
C43 C41 1_555 1_555
H79 C43 1_555 1_555
H80 C43 1_555 1_555
H81 C43 1_555 1_555
C44 C41 1_555 1_555
H82 C44 1_555 1_555
H83 C44 1_555 1_555
H84 C44 1_555 1_555
O20 Cu1 1_555 1_555
C45 O20 1_555 1_555
O21 K2 1_555 1_555
C46 C45 1_555 1_555
C47 C46 1_555 1_555
H85 C47 1_555 1_555
H86 C47 1_555 1_555
H87 C47 1_555 1_555
C48 C46 1_555 1_555
H88 C48 1_555 1_555
H89 C48 1_555 1_555
H90 C48 1_555 1_555
C49 C46 1_555 1_555
H91 C49 1_555 1_555
H92 C49 1_555 1_555
H93 C49 1_555 1_555
C50 O22 1_555 1_555
O22 K1 1_555 1_555
O23 C50 1_555 1_555
H94 O23 1_555 1_555
C51 C50 1_555 1_555
C52 C51 1_555 1_555
H95 C52 1_555 1_555
H96 C52 1_555 1_555
H97 C52 1_555 1_555
C53 C51 1_555 1_555
H98 C53 1_555 1_555
H99 C53 1_555 1_555
H100 C53 1_555 1_555
C54 C51 1_555 1_555
H101 C54 1_555 1_555
H102 C54 1_555 1_555
H103 C54 1_555 1_555
O24 Cu1 1_555 1_555
C55 O24 1_555 1_555
O25 K2 1_555 1_555
C56 C55 1_555 1_555
C57 C56 1_555 1_555
H104 C57 1_555 1_555
H105 C57 1_555 1_555
H106 C57 1_555 1_555
C58 C56 1_555 1_555
H107 C58 1_555 1_555
H108 C58 1_555 1_555
H109 C58 1_555 1_555
C59 C56 1_555 1_555
H110 C59 1_555 1_555
H111 C59 1_555 1_555
H112 C59 1_555 1_555
O26 C60 1_555 1_555
C60 H113 1_555 1_555
H114 C60 1_555 1_555
C61 C60 1_555 1_555
H115 C61 1_555 1_555
H116 C61 1_555 1_555
C62 C61 1_555 1_555
H117 C62 1_555 1_555
H118 C62 1_555 1_555
C63 O26 1_555 1_555
H119 C63 1_555 1_555
H120 C63 1_555 1_555
O27 C64 1_555 1_555
C64 H121 1_555 1_555
H122 C64 1_555 1_555
C65 C64 1_555 1_555
H123 C65 1_555 1_555
H124 C65 1_555 1_555
C66 C65 1_555 1_555
H125 C66 1_555 1_555
H126 C66 1_555 1_555
C67 O27 1_555 1_555
H127 C67 1_555 1_555
H128 C67 1_555 1_555
Cu2A O15 1_555 1_555
K2A O12 1_555 1_555
K4A O12 1_555 1_555
K5A O6 1_555 1_555
K5B O11 1_555 1_555
K6A O15 1_555 1_555
O6A K5 1_555 1_555
O11B K5 1_555 1_555
O12A K2 1_555 1_555
O15A Cu2 1_555 1_555
O19A K2 1_555 1_555
K1 O13 1_555 1_555
K2 O17 1_555 1_555
K3 O16 1_555 1_555
K3 O18 1_555 1_555
K3 O24 1_555 1_555
K4 O25 1_555 1_555
K4 O12A 1_555 1_555
K5 O25 1_555 1_555
K5 O12A 1_555 1_555
K6 O9 1_555 1_555
K6 O16 1_555 1_555
K6 O18 1_555 1_555
K6 O20 1_555 1_555
K6 O15A 1_555 1_555
C3 C4 1_555 1_555
C15 O9 1_555 1_555
O12 K5A 1_555 1_555
C35 O17 1_555 1_555
C40 O19 1_555 1_555
O19 K2A 1_555 1_555
C45 O21 1_555 1_555
C55 O25 1_555 1_555
C62 C63 1_555 1_555
C66 C67 1_555 1_555
Cu2A O6A 1_555 1_555
Cu2A O19A 1_555 1_555

#END
