
#######################################################################
#
#                 Cambridge Crystallographic Data Centre
#                                CCDC 
#
#######################################################################
#
# If this CIF has been generated from an entry in the Cambridge 
# Structural Database, then it will include bibliographic, chemical, 
# crystal, experimental, refinement or atomic coordinate data resulting 
# from the CCDC's data processing and validation procedures.
#
#######################################################################

data_JEBCAV
_symmetry_cell_setting           orthorhombic
_symmetry_space_group_name_H-M   'P 21 21 21'
_symmetry_Int_Tables_number      19
_space_group_name_Hall           'P 2ac 2ab'
loop_
_symmetry_equiv_pos_site_id
_symmetry_equiv_pos_as_xyz
1 x,y,z
2 1/2-x,-y,1/2+z
3 -x,1/2+y,1/2-z
4 1/2+x,1/2-y,-z
_cell_length_a                   12.1270(3)
_cell_length_b                   15.8678(3)
_cell_length_c                   40.04220(10)
_cell_angle_alpha                90
_cell_angle_beta                 90
_cell_angle_gamma                90
_cell_volume                     7705.27
loop_
_atom_site_label
_atom_site_type_symbol
_atom_site_fract_x
_atom_site_fract_y
_atom_site_fract_z
Zn1 Zn 0.43467(13) 0.50797(10) 0.06600(4)
Zn2 Zn 0.67443(13) 0.42819(10) -0.19862(4)
As1 As 0.01704(12) 0.30879(9) -0.13681(4)
As2 As -0.06907(12) 0.63211(10) -0.02744(4)
As3 As 0.23553(11) 0.75537(9) -0.19305(4)
As4 As 0.34247(11) 0.57495(9) -0.21248(4)
As5 As 0.44428(12) 0.73089(9) -0.05690(4)
As6 As 0.54905(11) 0.55027(9) -0.07746(4)
As7 As 0.12826(12) 0.29697(9) -0.06320(4)
As8 As -0.17848(11) 0.64249(9) -0.10074(4)
V1 V 0.30231(19) 0.33230(14) -0.13108(7)
V2 V 0.1885(2) 0.70548(16) -0.02885(6)
V3 V 0.37282(19) 0.39389(15) -0.06237(7)
V4 V 0.3326(2) 0.54997(15) -0.01978(6)
V5 V 0.1157(2) 0.47773(16) -0.02227(7)
V6 V -0.06610(19) 0.45377(14) -0.07668(6)
V7 V 0.25613(19) 0.79743(14) -0.11249(6)
V8 V 0.18111(19) 0.41831(14) -0.18821(6)
V9 V -0.00500(18) 0.72806(15) -0.15455(6)
V10 V 0.54251(19) 0.72072(14) 0.08321(6)
V11 V 0.43355(18) 0.67132(13) -0.13971(6)
V12 V -0.07897(18) 0.49996(15) -0.15203(6)
V13 V 0.05658(19) 0.58175(14) -0.20025(6)
V14 V 0.43993(19) 0.47727(14) -0.14637(6)
O1 O -0.1047(7) 0.5453(6) -0.1068(2)
O3 O 0.3518(8) 0.2422(6) -0.1404(3)
O5 O -0.0676(7) 0.7126(5) -0.1090(2)
O6 O -0.0157(8) 0.5342(6) -0.0433(2)
O7 O 0.4692(7) 0.5686(6) -0.1145(2)
O8 O 0.0745(9) 0.4414(7) 0.0118(3)
O9 O 0.0499(8) 0.2606(6) -0.0992(3)
O10 O -0.0473(7) 0.6132(5) -0.1661(2)
O11 O 0.2900(8) 0.8933(6) -0.1154(3)
O12 O 0.3921(8) 0.5466(7) 0.0161(3)
O13 O 0.2472(7) 0.3316(6) -0.0847(2)
O14 O 0.1881(8) 0.3647(6) -0.2212(3)
O15 O 0.5568(7) 0.4512(6) -0.1639(3)
O16 O 0.1160(7) 0.6938(6) -0.1857(2)
O17 O 0.3909(8) 0.7314(6) -0.0986(3)
O18 O 0.2681(7) 0.4439(6) -0.0321(2)
O19 O 0.0363(7) 0.4699(6) -0.1818(2)
O20 O 0.1826(8) 0.5871(6) -0.0166(2)
O21 O 0.3111(8) 0.6833(6) -0.2188(2)
O22 O -0.1761(8) 0.6446(6) -0.0570(3)
O23 O 0.4848(8) 0.6320(6) 0.0734(2)
O24 O -0.0292(7) 0.4077(6) -0.1219(2)
O25 O 0.4485(9) 0.3259(7) -0.0446(3)
O26 O 0.3054(7) 0.7375(6) -0.1547(2)
O27 O 0.3911(7) 0.5809(5) -0.1706(2)
O28 O 0.1502(7) 0.3405(6) -0.1505(3)
O29 O 0.3238(7) 0.4150(6) -0.1659(2)
O30 O 0.2101(7) 0.5352(6) -0.2038(3)
O31 O 0.0310(7) 0.6995(6) -0.0451(2)
O32 O 0.0644(8) 0.3963(6) -0.0575(2)
O33 O 0.0041(8) 0.5876(7) -0.2364(3)
O34 O 0.6055(7) 0.7169(6) 0.1275(2)
O35 O 0.4416(8) 0.5077(6) -0.0531(2)
O36 O 0.5498(7) 0.6547(7) -0.0631(3)
O37 O 0.5446(8) 0.7124(6) -0.1533(3)
O38 O 0.3433(8) 0.6658(6) -0.0387(2)
O39 O -0.1761(8) 0.4128(6) -0.0635(3)
O40 O 0.6929(7) 0.7265(6) 0.0692(2)
O41 O -0.1971(7) 0.4734(6) -0.1667(3)
O42 O 0.4126(7) 0.4040(6) -0.1096(2)
O43 O -0.0829(8) 0.7935(6) -0.1727(2)
O44 O 0.1913(10) 0.7613(7) 0.0023(3)
N1 N 0.6746(10) 0.5484(7) -0.2227(3)
N2 N 0.5698(10) 0.4111(7) -0.2425(3)
N3 N 0.6743(11) 0.2980(8) -0.1825(3)
N4 N 0.8046(9) 0.3725(7) -0.2263(3)
N5 N 0.5063(10) 0.4714(8) 0.1136(3)
N6 N 0.5963(9) 0.4689(8) 0.0523(3)
N7 N 0.2741(10) 0.5319(8) 0.0856(3)
N8 N 0.3472(10) 0.3954(7) 0.0544(3)
C1 C 0.7200(12) 0.6188(9) -0.2104(5)
H1 H 0.7437 0.6185 -0.1883
C2 C 0.7330(13) 0.6898(11) -0.2282(5)
H2 H 0.7669 0.7367 -0.2188
C3 C 0.6964(16) 0.6923(12) -0.2600(6)
H3 H 0.7059 0.7405 -0.2729
C4 C 0.6441(15) 0.6217(11) -0.2732(5)
H4 H 0.6164 0.6221 -0.2949
C5 C 0.6345(13) 0.5512(10) -0.2534(4)
C6 C 0.5792(12) 0.4714(9) -0.2651(4)
C7 C 0.5462(16) 0.4599(11) -0.2976(4)
H5 H 0.5562 0.5028 -0.3132
C8 C 0.4986(16) 0.3851(12) -0.3073(5)
H6 H 0.4755 0.3765 -0.3292
C9 C 0.4868(14) 0.3251(11) -0.2840(4)
H7 H 0.4545 0.2739 -0.2896
C10 C 0.5220(13) 0.3390(11) -0.2522(5)
H8 H 0.5125 0.2965 -0.2365
C11 C 0.6025(13) 0.2632(11) -0.1619(5)
H9 H 0.5523 0.2980 -0.1510
C12 C 0.5985(14) 0.1781(12) -0.1557(5)
H10 H 0.5480 0.1564 -0.1404
C13 C 0.6696(15) 0.1259(12) -0.1722(5)
H11 H 0.6679 0.0680 -0.1687
C14 C 0.7454(15) 0.1617(10) -0.1946(6)
H12 H 0.7929 0.1280 -0.2070
C15 C 0.7474(12) 0.2485(9) -0.1977(4)
C16 C 0.8253(12) 0.2928(9) -0.2197(4)
C17 C 0.9212(13) 0.2545(10) -0.2323(4)
H13 H 0.9382 0.1992 -0.2265
C18 C 0.9887(11) 0.2985(11) -0.2529(4)
H14 H 1.0511 0.2728 -0.2618
C19 C 0.9659(13) 0.3781(11) -0.2604(5)
H15 H 1.0111 0.4078 -0.2750
C20 C 0.8727(13) 0.4178(10) -0.2461(4)
H16 H 0.8584 0.4744 -0.2502
C21 C 0.4593(13) 0.4746(11) 0.1434(4)
H17 H 0.3884 0.4968 0.1446
C22 C 0.5050(18) 0.4486(12) 0.1718(4)
H18 H 0.4669 0.4531 0.1919
C23 C 0.610(2) 0.4146(15) 0.1710(5)
H19 H 0.6448 0.3955 0.1903
C24 C 0.6613(17) 0.4103(12) 0.1407(5)
H20 H 0.7319 0.3877 0.1392
C25 C 0.6090(12) 0.4393(9) 0.1120(4)
C26 C 0.6602(12) 0.4405(9) 0.0789(4)
C27 C 0.7672(14) 0.4125(13) 0.0724(5)
H21 H 0.8104 0.3900 0.0894
C28 C 0.8073(16) 0.4185(17) 0.0407(6)
H22 H 0.8791 0.4009 0.0365
C29 C 0.7473(15) 0.4486(13) 0.0156(5)
H23 H 0.7767 0.4518 -0.0058
C30 C 0.6387(15) 0.4754(12) 0.0219(5)
H24 H 0.5965 0.4977 0.0046
C31 C 0.2403(15) 0.6054(11) 0.0981(5)
H25 H 0.2929 0.6470 0.1017
C32 C 0.1353(15) 0.6229(13) 0.1058(5)
H26 H 0.1160 0.6757 0.1140
C33 C 0.0551(14) 0.5603(12) 0.1015(5)
H27 H -0.0183 0.5698 0.1071
C34 C 0.0899(12) 0.4831(12) 0.0884(4)
H28 H 0.0393 0.4399 0.0850
C35 C 0.2008(11) 0.4713(10) 0.0804(4)
C36 C 0.2419(11) 0.3926(9) 0.0654(4)
C37 C 0.1773(14) 0.3218(10) 0.0600(5)
H29 H 0.1056 0.3187 0.0681
C38 C 0.2226(16) 0.2569(11) 0.0423(5)
H30 H 0.1809 0.2085 0.0389
C39 C 0.3268(16) 0.2602(10) 0.0296(5)
H31 H 0.3567 0.2170 0.0168
C40 C 0.3843(14) 0.3324(9) 0.0371(4)
H32 H 0.4561 0.3364 0.0291
Zn2_2 Zn -0.32557(13) 0.42819(10) -0.19862(4)
V2C V 0.6885(2) 0.79452(16) 0.02885(6)
V7C V 0.75613(19) 0.70257(14) 0.11249(6)
V9C V 0.49500(18) 0.77194(15) 0.15455(6)
V10C V 0.04251(19) 0.77928(14) -0.08321(6)
O5C O 0.4324(7) 0.7874(5) 0.1090(2)
O31C O 0.5310(7) 0.8005(6) 0.0451(2)
O34C O 0.1055(7) 0.7831(6) -0.1275(2)
O40C O 0.1929(7) 0.7735(6) -0.0692(2)
O41_2 O 0.8029(7) 0.4734(6) -0.1667(3)
O2 O 1.185(2) 0.5606(16) -0.1102(6)
O4 O 0.7815(12) 0.9343(11) -0.2030(5)
loop_
_geom_bond_atom_site_label_1
_geom_bond_atom_site_label_2
_geom_bond_site_symmetry_1
_geom_bond_site_symmetry_2
Zn1 O12 1_555 1_555
Zn2 O15 1_555 1_555
As1 O9 1_555 1_555
As2 O6 1_555 1_555
As3 O16 1_555 1_555
As4 O21 1_555 1_555
As5 O17 1_555 1_555
As6 O7 1_555 1_555
As7 O9 1_555 1_555
As8 O1 1_555 1_555
V1 O3 1_555 1_555
V2 O20 1_555 1_555
V3 O13 1_555 1_555
V4 V5 1_555 1_555
V5 O6 1_555 1_555
V6 O1 1_555 1_555
V7 O11 1_555 1_555
V8 O14 1_555 1_555
V9 O5 1_555 1_555
V10 O23 1_555 1_555
V11 O7 1_555 1_555
V12 V13 1_555 1_555
V13 O10 1_555 1_555
V14 O7 1_555 1_555
O1 V12 1_555 1_555
O5 As8 1_555 1_555
O6 V6 1_555 1_555
O8 V5 1_555 1_555
O10 V9 1_555 1_555
O12 V4 1_555 1_555
O13 As7 1_555 1_555
O15 V14 1_555 1_555
O16 V9 1_555 1_555
O17 V7 1_555 1_555
O18 V3 1_555 1_555
O19 V8 1_555 1_555
O20 V4 1_555 1_555
O21 As3 1_555 1_555
O22 As2 1_555 1_555
O23 Zn1 1_555 1_555
O24 As1 1_555 1_555
O25 V3 1_555 1_555
O26 As3 1_555 1_555
O27 As4 1_555 1_555
O28 As1 1_555 1_555
O29 V1 1_555 1_555
O30 As4 1_555 1_555
O31 As2 1_555 1_555
O32 As7 1_555 1_555
O33 V13 1_555 1_555
O34 V10 1_555 1_555
O35 As6 1_555 1_555
O36 As5 1_555 1_555
O37 V11 1_555 1_555
O38 As5 1_555 1_555
O39 V6 1_555 1_555
O40 V10 1_555 1_555
O41 V12 1_555 1_555
O42 V1 1_555 1_555
O43 V9 1_555 1_555
O44 V2 1_555 1_555
N1 Zn2 1_555 1_555
N2 Zn2 1_555 1_555
N3 Zn2 1_555 1_555
N4 Zn2 1_555 1_555
N5 Zn1 1_555 1_555
N6 Zn1 1_555 1_555
N7 Zn1 1_555 1_555
N8 Zn1 1_555 1_555
C1 N1 1_555 1_555
H1 C1 1_555 1_555
C2 C1 1_555 1_555
H2 C2 1_555 1_555
C3 C2 1_555 1_555
H3 C3 1_555 1_555
C4 C3 1_555 1_555
H4 C4 1_555 1_555
C5 N1 1_555 1_555
C6 N2 1_555 1_555
C7 C6 1_555 1_555
H5 C7 1_555 1_555
C8 C7 1_555 1_555
H6 C8 1_555 1_555
C9 C8 1_555 1_555
H7 C9 1_555 1_555
C10 N2 1_555 1_555
H8 C10 1_555 1_555
C11 N3 1_555 1_555
H9 C11 1_555 1_555
C12 C11 1_555 1_555
H10 C12 1_555 1_555
C13 C12 1_555 1_555
H11 C13 1_555 1_555
C14 C13 1_555 1_555
H12 C14 1_555 1_555
C15 N3 1_555 1_555
C16 N4 1_555 1_555
C17 C16 1_555 1_555
H13 C17 1_555 1_555
C18 C17 1_555 1_555
H14 C18 1_555 1_555
C19 C18 1_555 1_555
H15 C19 1_555 1_555
C20 N4 1_555 1_555
H16 C20 1_555 1_555
C21 N5 1_555 1_555
H17 C21 1_555 1_555
C22 C21 1_555 1_555
H18 C22 1_555 1_555
C23 C22 1_555 1_555
H19 C23 1_555 1_555
C24 C23 1_555 1_555
H20 C24 1_555 1_555
C25 N5 1_555 1_555
C26 N6 1_555 1_555
C27 C26 1_555 1_555
H21 C27 1_555 1_555
C28 C27 1_555 1_555
H22 C28 1_555 1_555
C29 C28 1_555 1_555
H23 C29 1_555 1_555
C30 N6 1_555 1_555
H24 C30 1_555 1_555
C31 N7 1_555 1_555
H25 C31 1_555 1_555
C32 C31 1_555 1_555
H26 C32 1_555 1_555
C33 C32 1_555 1_555
H27 C33 1_555 1_555
C34 C33 1_555 1_555
H28 C34 1_555 1_555
C35 N7 1_555 1_555
C36 N8 1_555 1_555
C37 C36 1_555 1_555
H29 C37 1_555 1_555
C38 C37 1_555 1_555
H30 C38 1_555 1_555
C39 C38 1_555 1_555
H31 C39 1_555 1_555
C40 N8 1_555 1_555
H32 C40 1_555 1_555
Zn2_2 O41 1_555 1_555
V2C O40 1_555 1_555
V7C V10 1_555 1_555
V9C O34 1_555 1_555
V10C V7 1_555 1_555
O5C V10 1_555 1_555
O31C V10 1_555 1_555
O34C V7 1_555 1_555
O40C V2 1_555 1_555
O41_2 Zn2 1_555 1_555
As6 O36 1_555 1_555
As8 O22 1_555 1_555
V1 O13 1_555 1_555
V1 O28 1_555 1_555
V2 O31 1_555 1_555
V2 O38 1_555 1_555
V3 O35 1_555 1_555
V3 O42 1_555 1_555
V4 O18 1_555 1_555
V4 O35 1_555 1_555
V4 O38 1_555 1_555
V5 O18 1_555 1_555
V5 O20 1_555 1_555
V5 O32 1_555 1_555
V6 O24 1_555 1_555
V6 O32 1_555 1_555
V7 O26 1_555 1_555
V7 O40C 1_555 1_555
V8 O28 1_555 1_555
V8 O29 1_555 1_555
V8 O30 1_555 1_555
V9 O34C 1_555 1_555
V11 O17 1_555 1_555
V11 O26 1_555 1_555
V11 O27 1_555 1_555
V12 O10 1_555 1_555
V12 O19 1_555 1_555
V12 O24 1_555 1_555
V13 O16 1_555 1_555
V13 O19 1_555 1_555
V13 O30 1_555 1_555
V14 O27 1_555 1_555
V14 O29 1_555 1_555
V14 O42 1_555 1_555
O5 V10C 1_555 1_555
O31 V10C 1_555 1_555
O34 V7C 1_555 1_555
O40 V7C 1_555 1_555
C4 C5 1_555 1_555
C5 C6 1_555 1_555
C9 C10 1_555 1_555
C14 C15 1_555 1_555
C15 C16 1_555 1_555
C19 C20 1_555 1_555
C24 C25 1_555 1_555
C25 C26 1_555 1_555
C29 C30 1_555 1_555
C34 C35 1_555 1_555
C35 C36 1_555 1_555
C39 C40 1_555 1_555
V2C O31C 1_555 1_555
V9C O5C 1_555 1_555
V10C O34C 1_555 1_555
V10C O40C 1_555 1_555

#END
