
#######################################################################
#
#                 Cambridge Crystallographic Data Centre
#                                CCDC 
#
#######################################################################
#
# If this CIF has been generated from an entry in the Cambridge 
# Structural Database, then it will include bibliographic, chemical, 
# crystal, experimental, refinement or atomic coordinate data resulting 
# from the CCDC's data processing and validation procedures.
#
#######################################################################

data_JEBCEZ
_symmetry_cell_setting           monoclinic
_symmetry_space_group_name_H-M   'P 21/n'
_symmetry_Int_Tables_number      14
_space_group_name_Hall           '-P 2yn'
loop_
_symmetry_equiv_pos_site_id
_symmetry_equiv_pos_as_xyz
1 x,y,z
2 1/2-x,1/2+y,1/2-z
3 -x,-y,-z
4 1/2+x,1/2-y,1/2+z
_cell_length_a                   15.1728(5)
_cell_length_b                   19.2863(5)
_cell_length_c                   25.7122(9)
_cell_angle_alpha                90
_cell_angle_beta                 96.005(2)
_cell_angle_gamma                90
_cell_volume                     7482.8
loop_
_atom_site_label
_atom_site_type_symbol
_atom_site_fract_x
_atom_site_fract_y
_atom_site_fract_z
Cd1 Cd -0.360500(18) 0.199250(14) 0.603830(10)
As1 As -0.61060(2) 0.130340(16) 0.258130(13)
As2 As -0.49860(2) 0.100480(16) 0.370070(14)
As3 As -0.83508(2) 0.113370(18) 0.473830(14)
As4 As -0.94626(2) 0.142670(17) 0.361180(14)
As5 As -0.86221(2) 0.468950(16) 0.322420(12)
As6 As -0.68100(2) 0.462850(15) 0.266390(11)
As7 As -0.47502(2) 0.408220(15) 0.473980(12)
As8 As -0.65718(2) 0.414810(17) 0.529660(12)
V1 V -0.44718(3) 0.24980(3) 0.42929(2)
V2 V -0.55749(3) 0.25108(3) 0.51971(2)
V3 V -0.75577(4) 0.26152(3) 0.52632(2)
V4 V -0.92028(4) 0.28065(3) 0.45037(2)
V5 V -0.94640(3) 0.31312(3) 0.33379(2)
V6 V -0.82885(3) 0.32232(3) 0.244700(19)
V7 V -0.63429(3) 0.29912(3) 0.238680(19)
V8 V -0.47191(3) 0.26434(3) 0.31227(2)
V9 V -0.61710(4) 0.12665(3) 0.46944(2)
V10 V -0.72727(4) 0.08927(3) 0.36283(2)
V11 V -0.81486(4) 0.17909(3) 0.27059(2)
V12 V -0.83569(4) 0.41314(3) 0.44461(2)
V13 V -0.66308(4) 0.47183(3) 0.40176(2)
V14 V -0.51359(3) 0.40088(3) 0.345250(19)
O1 O -0.74116(18) 0.00803(12) 0.35261(11)
O2 O -0.43938(16) 0.45438(12) 0.33071(10)
O3 O -0.64992(17) 0.55295(12) 0.41121(10)
O4 O -1.04736(15) 0.33153(13) 0.31515(9)
O5 O -0.78082(18) 0.25264(14) 0.58457(9)
O6 O -0.51938(15) 0.19047(11) 0.46781(8)
O7 O -0.38183(16) 0.25881(13) 0.28546(9)
O8 O -0.89216(17) 0.47223(13) 0.46905(9)
O9 O -0.58220(19) 0.06211(14) 0.50525(11)
O10 O -1.00893(17) 0.28062(15) 0.47903(10)
O11 O -0.63271(15) 0.44672(11) 0.33145(8)
O12 O -0.69990(15) 0.13418(11) 0.29788(9)
O13 O -0.74149(16) 0.10812(12) 0.43702(10)
O14 O -0.91392(15) 0.35480(11) 0.40022(8)
O15 O -0.87957(15) 0.33431(12) 0.18603(8)
O16 O -0.74495(15) 0.24946(11) 0.24020(9)
O17 O -0.92138(16) 0.10006(13) 0.42257(10)
O18 O -0.78965(15) 0.45151(11) 0.37972(8)
O19 O -0.94425(15) 0.22981(12) 0.38183(9)
O20 O -0.78368(15) 0.49883(11) 0.28100(9)
O21 O -0.53319(16) 0.08477(11) 0.30273(9)
O22 O -0.34464(15) 0.23697(12) 0.44991(9)
O23 O -0.54799(15) 0.42440(11) 0.41662(8)
O24 O -0.47644(15) 0.19015(11) 0.36668(9)
O25 O -0.60424(16) 0.10393(12) 0.39434(9)
O26 O -0.82626(15) 0.33270(12) 0.48981(8)
O27 O -0.61403(17) 0.30458(13) 0.17899(9)
O28 O -0.71730(14) 0.37612(11) 0.25147(8)
O29 O -0.89023(15) 0.25692(11) 0.28379(8)
O30 O -0.54506(15) 0.43605(12) 0.52143(8)
O31 O -0.49400(15) 0.31705(11) 0.47821(8)
O32 O -0.83852(16) 0.13847(12) 0.33954(10)
O33 O -0.64824(15) 0.32285(11) 0.52825(8)
O34 O -0.54448(14) 0.34187(11) 0.28572(8)
O35 O -0.70488(15) 0.42914(12) 0.46465(8)
O36 O -0.56998(15) 0.21565(11) 0.26859(9)
O37 O -0.87621(15) 0.38321(11) 0.29809(8)
O38 O -0.84117(16) 0.20410(12) 0.47963(9)
O39 O -0.66254(15) 0.19580(12) 0.51402(9)
O40 O -0.45598(14) 0.31893(11) 0.37561(8)
O41 O -0.49603(16) 0.23629(13) 0.57464(9)
O42 O -0.86113(18) 0.13164(13) 0.22462(10)
N1 N -0.3763(3) 0.0876(2) 0.57128(17)
H1 H -0.4323 0.0803 0.5570
H2 H -0.3633 0.0564 0.5970
N2 N -0.2547(3) 0.1978(3) 0.54757(17)
H3 H -0.2800 0.2100 0.5152
N3 N -0.2898(3) 0.30219(19) 0.62337(15)
H4 H -0.2606 0.3008 0.6557
H5 H -0.3290 0.3373 0.6219
C1 C -0.3135(3) 0.0814(3) 0.5310(2)
H6 H -0.2998 0.0329 0.5261
H7 H -0.3412 0.0994 0.4981
C2 C -0.2277(4) 0.1211(3) 0.5467(2)
H8 H -0.2013 0.1064 0.5809
H9 H -0.1854 0.1134 0.5214
C3 C -0.1868(3) 0.2450(3) 0.56315(19)
H10 H -0.1469 0.2247 0.5910
H11 H -0.1532 0.2546 0.5339
C4 C -0.2245(3) 0.3118(3) 0.5821(3)
H12 H -0.1759 0.3409 0.5967
H13 H -0.2545 0.3361 0.5523
Cd1C Cd -0.860500(18) 0.300750(14) 0.103830(10)
O15C O -0.37957(15) 0.16569(12) 0.68603(8)
Cd2 Cd -0.25530(2) 0.515030(18) 0.271140(10)
N4 N -0.21764(19) 0.45860(15) 0.34734(12)
N5 N -0.1343(2) 0.57530(16) 0.31879(11)
N6 N -0.1801(2) 0.44143(16) 0.21971(12)
N7 N -0.3585(2) 0.45775(16) 0.21080(11)
N8 N -0.3501(2) 0.60383(15) 0.28618(11)
N9 N -0.2540(2) 0.59843(16) 0.20200(12)
C5 C -0.2537(2) 0.3972(2) 0.35733(18)
H14 H -0.2983 0.3792 0.3336
C6 C -0.2262(3) 0.3599(2) 0.4022(2)
H15 H -0.2536 0.3183 0.4092
C7 C -0.1579(3) 0.3853(2) 0.43610(18)
H16 H -0.1385 0.3610 0.4664
C8 C -0.1182(3) 0.4473(2) 0.42483(15)
H17 H -0.0702 0.4642 0.4466
C9 C -0.1509(2) 0.48376(17) 0.38073(13)
C10 C -0.1148(2) 0.55318(18) 0.36811(12)
C11 C -0.0662(3) 0.5932(2) 0.40577(14)
H18 H -0.0536 0.5768 0.4398
C12 C -0.0368(3) 0.6576(2) 0.39197(16)
H19 H -0.0057 0.6857 0.4169
C13 C -0.0540(3) 0.6800(2) 0.34090(17)
H20 H -0.0326 0.7224 0.3303
C14 C -0.1039(3) 0.6375(2) 0.30602(15)
H21 H -0.1171 0.6529 0.2718
C15 C -0.0918(3) 0.4461(2) 0.22082(18)
H22 H -0.0602 0.4650 0.2504
C16 C -0.0452(3) 0.4244(2) 0.1805(2)
H23 H 0.0161 0.4292 0.1824
C17 C -0.0932(3) 0.3953(2) 0.1373(2)
H24 H -0.0645 0.3802 0.1091
C18 C -0.1840(3) 0.3888(2) 0.1361(2)
H25 H -0.2165 0.3681 0.1076
C19 C -0.2264(3) 0.41342(19) 0.17756(15)
C20 C -0.3252(3) 0.41618(19) 0.17550(14)
C21 C -0.3800(3) 0.3817(2) 0.13769(17)
H26 H -0.3562 0.3514 0.1147
C22 C -0.4701(3) 0.3925(3) 0.13428(18)
H27 H -0.5079 0.3695 0.1092
C23 C -0.5038(3) 0.4385(2) 0.16900(17)
H28 H -0.5641 0.4486 0.1664
C24 C -0.4460(3) 0.4683(2) 0.20709(15)
H29 H -0.4687 0.4972 0.2314
C25 C -0.3932(3) 0.6059(2) 0.32882(14)
H30 H -0.3924 0.5668 0.3501
C26 C -0.4389(3) 0.6641(2) 0.34253(14)
H31 H -0.4718 0.6632 0.3711
C27 C -0.4346(3) 0.7230(2) 0.31326(15)
H32 H -0.4628 0.7633 0.3226
C28 C -0.3882(3) 0.7223(2) 0.26970(15)
H33 H -0.3835 0.7622 0.2499
C29 C -0.3484(2) 0.66059(18) 0.25597(13)
C30 C -0.3087(2) 0.65228(17) 0.20578(13)
C31 C -0.3326(2) 0.69623(19) 0.16350(14)
H34 H -0.3680 0.7348 0.1674
C32 C -0.3024(3) 0.6813(2) 0.11566(15)
H35 H -0.3196 0.7087 0.0866
C33 C -0.2473(3) 0.6259(2) 0.11147(15)
H36 H -0.2261 0.6152 0.0798
C34 C -0.2236(2) 0.58597(18) 0.15576(13)
H37 H -0.1849 0.5490 0.1532
O43 O -0.6846(2) 0.27329(18) 0.38727(13)
Cd3? Cd -0.2472(8) 0.5578(8) 0.2692(3)
loop_
_geom_bond_atom_site_label_1
_geom_bond_atom_site_label_2
_geom_bond_site_symmetry_1
_geom_bond_site_symmetry_2
Cd1 O41 1_555 1_555
Cd2 N4 1_555 1_555
As1 O12 1_555 1_555
As2 O21 1_555 1_555
As3 O13 1_555 1_555
As4 O17 1_555 1_555
As5 O18 1_555 1_555
As6 O11 1_555 1_555
As7 O23 1_555 1_555
As8 O30 1_555 1_555
V1 O6 1_555 1_555
V2 V9 1_555 1_555
V3 O5 1_555 1_555
V4 V12 1_555 1_555
V5 O4 1_555 1_555
V6 V11 1_555 1_555
V7 O16 1_555 1_555
V8 V14 1_555 1_555
V9 O6 1_555 1_555
V10 O1 1_555 1_555
V11 O12 1_555 1_555
V12 O8 1_555 1_555
V13 O3 1_555 1_555
V14 O2 1_555 1_555
O6 V2 1_555 1_555
O7 V8 1_555 1_555
O9 V9 1_555 1_555
O10 V4 1_555 1_555
O11 V13 1_555 1_555
O12 V10 1_555 1_555
O13 V9 1_555 1_555
O14 V4 1_555 1_555
O15 V6 1_555 1_555
O16 V6 1_555 1_555
O17 As3 1_555 1_555
O18 V12 1_555 1_555
O19 As4 1_555 1_555
O20 As5 1_555 1_555
O21 As1 1_555 1_555
O22 V1 1_555 1_555
O23 V13 1_555 1_555
O24 As2 1_555 1_555
O25 As2 1_555 1_555
O26 V3 1_555 1_555
O27 V7 1_555 1_555
O28 As6 1_555 1_555
O29 V5 1_555 1_555
O30 As7 1_555 1_555
O31 As7 1_555 1_555
O32 As4 1_555 1_555
O33 As8 1_555 1_555
O34 V7 1_555 1_555
O35 As8 1_555 1_555
O36 As1 1_555 1_555
O37 As5 1_555 1_555
O38 As3 1_555 1_555
O39 V2 1_555 1_555
O40 V1 1_555 1_555
O41 V2 1_555 1_555
O42 V11 1_555 1_555
N1 Cd1 1_555 1_555
H1 N1 1_555 1_555
H2 N1 1_555 1_555
N2 Cd1 1_555 1_555
H3 N2 1_555 1_555
N3 Cd1 1_555 1_555
H4 N3 1_555 1_555
H5 N3 1_555 1_555
N4 C5 1_555 1_555
N5 Cd2 1_555 1_555
N6 Cd2 1_555 1_555
N7 Cd2 1_555 1_555
N8 Cd2 1_555 1_555
N9 Cd2 1_555 1_555
C1 N1 1_555 1_555
H6 C1 1_555 1_555
H7 C1 1_555 1_555
C2 N2 1_555 1_555
H8 C2 1_555 1_555
H9 C2 1_555 1_555
C3 N2 1_555 1_555
H10 C3 1_555 1_555
H11 C3 1_555 1_555
C4 N3 1_555 1_555
H12 C4 1_555 1_555
H13 C4 1_555 1_555
C5 H14 1_555 1_555
C6 C5 1_555 1_555
H15 C6 1_555 1_555
C7 C6 1_555 1_555
H16 C7 1_555 1_555
C8 C7 1_555 1_555
H17 C8 1_555 1_555
C9 N4 1_555 1_555
C10 N5 1_555 1_555
C11 C10 1_555 1_555
H18 C11 1_555 1_555
C12 C11 1_555 1_555
H19 C12 1_555 1_555
C13 C12 1_555 1_555
H20 C13 1_555 1_555
C14 N5 1_555 1_555
H21 C14 1_555 1_555
C15 N6 1_555 1_555
H22 C15 1_555 1_555
C16 C15 1_555 1_555
H23 C16 1_555 1_555
C17 C16 1_555 1_555
H24 C17 1_555 1_555
C18 C17 1_555 1_555
H25 C18 1_555 1_555
C19 N6 1_555 1_555
C20 N7 1_555 1_555
C21 C20 1_555 1_555
H26 C21 1_555 1_555
C22 C21 1_555 1_555
H27 C22 1_555 1_555
C23 C22 1_555 1_555
H28 C23 1_555 1_555
C24 N7 1_555 1_555
H29 C24 1_555 1_555
C25 N8 1_555 1_555
H30 C25 1_555 1_555
C26 C25 1_555 1_555
H31 C26 1_555 1_555
C27 C26 1_555 1_555
H32 C27 1_555 1_555
C28 C27 1_555 1_555
H33 C28 1_555 1_555
C29 N8 1_555 1_555
C30 N9 1_555 1_555
C31 C30 1_555 1_555
H34 C31 1_555 1_555
C32 C31 1_555 1_555
H35 C32 1_555 1_555
C33 C32 1_555 1_555
H36 C33 1_555 1_555
C34 N9 1_555 1_555
H37 C34 1_555 1_555
Cd1C O15 1_555 1_555
O15C Cd1 1_555 1_555
As6 O20 1_555 1_555
V1 O24 1_555 1_555
V1 O31 1_555 1_555
V2 O31 1_555 1_555
V2 O33 1_555 1_555
V3 O33 1_555 1_555
V3 O38 1_555 1_555
V3 O39 1_555 1_555
V4 O19 1_555 1_555
V4 O26 1_555 1_555
V4 O38 1_555 1_555
V5 O14 1_555 1_555
V5 O19 1_555 1_555
V5 O37 1_555 1_555
V6 O28 1_555 1_555
V6 O29 1_555 1_555
V6 O37 1_555 1_555
V7 O28 1_555 1_555
V7 O36 1_555 1_555
V8 O24 1_555 1_555
V8 O34 1_555 1_555
V8 O36 1_555 1_555
V8 O40 1_555 1_555
V9 O25 1_555 1_555
V9 O39 1_555 1_555
V10 O13 1_555 1_555
V10 O25 1_555 1_555
V10 O32 1_555 1_555
V11 O16 1_555 1_555
V11 O29 1_555 1_555
V11 O32 1_555 1_555
V12 O14 1_555 1_555
V12 O26 1_555 1_555
V12 O35 1_555 1_555
V13 O18 1_555 1_555
V13 O35 1_555 1_555
V14 O11 1_555 1_555
V14 O23 1_555 1_555
V14 O34 1_555 1_555
V14 O40 1_555 1_555
C1 C2 1_555 1_555
C3 C4 1_555 1_555
C8 C9 1_555 1_555
C9 C10 1_555 1_555
C13 C14 1_555 1_555
C18 C19 1_555 1_555
C19 C20 1_555 1_555
C23 C24 1_555 1_555
C28 C29 1_555 1_555
C29 C30 1_555 1_555
C33 C34 1_555 1_555

#END
