
#######################################################################
#
#                 Cambridge Crystallographic Data Centre
#                                CCDC 
#
#######################################################################
#
# If this CIF has been generated from an entry in the Cambridge 
# Structural Database, then it will include bibliographic, chemical, 
# crystal, experimental, refinement or atomic coordinate data resulting 
# from the CCDC's data processing and validation procedures.
#
#######################################################################

data_JEBDAW
_symmetry_cell_setting           monoclinic
_symmetry_space_group_name_H-M   'C 2/c'
_symmetry_Int_Tables_number      15
_space_group_name_Hall           '-C 2yn'
loop_
_symmetry_equiv_pos_site_id
_symmetry_equiv_pos_as_xyz
1 x,y,z
2 1/2+x,1/2+y,z
3 -x,y,1/2-z
4 1/2-x,1/2+y,1/2-z
5 -x,-y,-z
6 1/2-x,1/2-y,-z
7 x,-y,1/2+z
8 1/2+x,1/2-y,1/2+z
_cell_length_a                   27.555(2)
_cell_length_b                   6.3501(5)
_cell_length_c                   21.3269(15)
_cell_angle_alpha                90
_cell_angle_beta                 122.4980(10)
_cell_angle_gamma                90
_cell_volume                     3147.37
loop_
_atom_site_label
_atom_site_type_symbol
_atom_site_fract_x
_atom_site_fract_y
_atom_site_fract_z
Ga1 Ga 0.167541(15) 0.26119(6) 0.216496(19)
P1 P 0.18819(4) 0.75934(14) 0.19934(5)
P2 P 0.20101(5) 0.31958(17) 0.38651(6)
O1 O 0.16270(10) 0.5692(3) 0.21506(13)
O2 O 0.16186(10) -0.0468(4) 0.21282(13)
O3 O 0.25284(10) 0.7616(4) 0.24437(13)
O4 O 0.16641(10) 0.7548(4) 0.11444(13)
H1 H 0.1957 0.7638 0.1093
O5 O 0.16652(11) 0.2487(4) 0.30658(13)
O6 O 0.19781(15) 0.5660(5) 0.39069(18)
H2 H 0.1580 0.6384 0.3486
O7 O 0.16919(12) 0.2233(5) 0.42188(14)
H3 H 0.1827 0.2191 0.4711
O8 O 0.26356(12) 0.2641(5) 0.43109(14)
N1 N 0.07584(12) 0.2596(5) 0.15384(16)
N2 N 0.14860(12) 0.2607(4) 0.10787(15)
C1 C 0.04073(16) 0.2622(6) 0.1779(2)
H4 H 0.0564 0.2663 0.2289
C2 C -0.01925(17) 0.2591(7) 0.1299(3)
H5 H -0.0427 0.2614 0.1489
C3 C -0.04292(17) 0.2525(7) 0.0547(3)
H6 H -0.0827 0.2493 0.0222
C4 C -0.00689(17) 0.2505(6) 0.0270(2)
C5 C -0.02692(18) 0.2468(7) -0.0509(2)
H7 H -0.0663 0.2440 -0.0861
C6 C 0.00997(19) 0.2474(7) -0.0737(2)
H8 H -0.0044 0.2447 -0.1244
C7 C 0.07120(17) 0.2523(6) -0.0216(2)
C8 C 0.1124(2) 0.2552(7) -0.0412(2)
H9 H 0.1008 0.2539 -0.0910
C9 C 0.16885(19) 0.2598(6) 0.0125(2)
H10 H 0.1963 0.2609 -0.0002
C10 C 0.18590(17) 0.2629(6) 0.0870(2)
H11 H 0.2250 0.2667 0.1233
C11 C 0.09200(16) 0.2555(6) 0.0547(2)
C12 C 0.05279(15) 0.2541(6) 0.0792(2)
Ga1_2 Ga 0.167541(15) 1.26119(6) 0.216496(19)
Ga1C Ga 0.332459(15) 0.76119(6) 0.283504(19)
Ga1C_2 Ga 0.332459(15) -0.23881(6) 0.283504(19)
Ga1_3 Ga 0.167541(15) -0.73881(6) 0.216496(19)
P1_2 P 0.18819(4) -0.24066(14) 0.19934(5)
P2_2 P 0.20101(5) 1.31958(17) 0.38651(6)
O1_2 O 0.16270(10) 1.5692(3) 0.21506(13)
O1_3 O 0.16270(10) -0.4308(3) 0.21506(13)
O2_2 O 0.16186(10) 0.9532(4) 0.21282(13)
O3C O 0.24716(10) 1.2616(4) 0.25563(13)
O3C_2 O 0.24716(10) 0.2616(4) 0.25563(13)
O3_2 O 0.25284(10) -0.2384(4) 0.24437(13)
O4_2 O 0.16641(10) -0.2452(4) 0.11444(13)
H1_2 H 0.1957 -0.2362 0.1093
O5_2 O 0.16652(11) 1.2487(4) 0.30658(13)
O6_2 O 0.19781(15) 1.5660(5) 0.39069(18)
H2_2 H 0.1580 1.6384 0.3486
O7_2 O 0.16919(12) 1.2233(5) 0.42188(14)
H3_2 H 0.1827 1.2191 0.4711
O8_2 O 0.26356(12) 1.2641(5) 0.43109(14)
N1_2 N 0.07584(12) 1.2596(5) 0.15384(16)
N2_2 N 0.14860(12) 1.2607(4) 0.10787(15)
C1_2 C 0.04073(16) 1.2622(6) 0.1779(2)
H4_2 H 0.0564 1.2663 0.2289
C2_2 C -0.01925(17) 1.2591(7) 0.1299(3)
H5_2 H -0.0427 1.2614 0.1489
C3_2 C -0.04292(17) 1.2525(7) 0.0547(3)
H6_2 H -0.0827 1.2493 0.0222
C4_2 C -0.00689(17) 1.2505(6) 0.0270(2)
C5_2 C -0.02692(18) 1.2468(7) -0.0509(2)
H7_2 H -0.0663 1.2440 -0.0861
C6_2 C 0.00997(19) 1.2474(7) -0.0737(2)
H8_2 H -0.0044 1.2447 -0.1244
C7_2 C 0.07120(17) 1.2523(6) -0.0216(2)
C8_2 C 0.1124(2) 1.2552(7) -0.0412(2)
H9_2 H 0.1008 1.2539 -0.0910
C9_2 C 0.16885(19) 1.2598(6) 0.0125(2)
H10_2 H 0.1963 1.2609 -0.0002
C10_2 C 0.18590(17) 1.2629(6) 0.0870(2)
H11_2 H 0.2250 1.2667 0.1233
C11_2 C 0.09200(16) 1.2555(6) 0.0547(2)
C12_2 C 0.05279(15) 1.2541(6) 0.0792(2)
O9 O 0.11255(17) 0.8199(6) 0.2928(2)
H12 H 0.1061 0.6713 0.2880
H13 H 0.1354 0.8479 0.2764
O10 O 0.0000 0.6619(14) 0.2500
loop_
_geom_bond_atom_site_label_1
_geom_bond_atom_site_label_2
_geom_bond_site_symmetry_1
_geom_bond_site_symmetry_2
Ga1 O1 1_555 1_555
P1 O1 1_555 1_555
P2 O5 1_555 1_555
O2 Ga1 1_555 1_555
O3 P1 1_555 1_555
O4 P1 1_555 1_555
H1 O4 1_555 1_555
O5 Ga1 1_555 1_555
O6 P2 1_555 1_555
H2 O6 1_555 1_555
O7 P2 1_555 1_555
H3 O7 1_555 1_555
O8 P2 1_555 1_555
N1 Ga1 1_555 1_555
N2 Ga1 1_555 1_555
C1 N1 1_555 1_555
H4 C1 1_555 1_555
C2 C1 1_555 1_555
H5 C2 1_555 1_555
C3 C2 1_555 1_555
H6 C3 1_555 1_555
C4 C3 1_555 1_555
C5 C4 1_555 1_555
H7 C5 1_555 1_555
C6 C5 1_555 1_555
H8 C6 1_555 1_555
C7 C6 1_555 1_555
C8 C7 1_555 1_555
H9 C8 1_555 1_555
C9 C8 1_555 1_555
H10 C9 1_555 1_555
C10 N2 1_555 1_555
H11 C10 1_555 1_555
C11 N2 1_555 1_555
C12 N1 1_555 1_555
O9 H12 1_555 1_555
H13 O9 1_555 1_555
Ga1_2 O1_2 1_555 1_555
Ga1C O3 1_555 1_555
Ga1C_2 O3_2 1_555 1_555
Ga1_3 O1_3 1_555 1_555
P1_2 O2 1_555 1_555
P2_2 O5_2 1_555 1_555
O1_3 P1_2 1_555 1_555
O2_2 P1 1_555 1_555
O3C Ga1_2 1_555 1_555
O3C_2 Ga1 1_555 1_555
O3_2 P1_2 1_555 1_555
O4_2 P1_2 1_555 1_555
H1_2 O4_2 1_555 1_555
O5_2 Ga1_2 1_555 1_555
O6_2 P2_2 1_555 1_555
H2_2 O6_2 1_555 1_555
O7_2 P2_2 1_555 1_555
H3_2 O7_2 1_555 1_555
O8_2 P2_2 1_555 1_555
N1_2 Ga1_2 1_555 1_555
N2_2 Ga1_2 1_555 1_555
C1_2 N1_2 1_555 1_555
H4_2 C1_2 1_555 1_555
C2_2 C1_2 1_555 1_555
H5_2 C2_2 1_555 1_555
C3_2 C2_2 1_555 1_555
H6_2 C3_2 1_555 1_555
C4_2 C3_2 1_555 1_555
C5_2 C4_2 1_555 1_555
H7_2 C5_2 1_555 1_555
C6_2 C5_2 1_555 1_555
H8_2 C6_2 1_555 1_555
C7_2 C6_2 1_555 1_555
C8_2 C7_2 1_555 1_555
H9_2 C8_2 1_555 1_555
C9_2 C8_2 1_555 1_555
H10_2 C9_2 1_555 1_555
C10_2 N2_2 1_555 1_555
H11_2 C10_2 1_555 1_555
C11_2 N2_2 1_555 1_555
C12_2 N1_2 1_555 1_555
C4 C12 1_555 1_555
C7 C11 1_555 1_555
C9 C10 1_555 1_555
C11 C12 1_555 1_555
Ga1_2 O2_2 1_555 1_555
C4_2 C12_2 1_555 1_555
C7_2 C11_2 1_555 1_555
C9_2 C10_2 1_555 1_555
C11_2 C12_2 1_555 1_555

#END
