
#######################################################################
#
#                 Cambridge Crystallographic Data Centre
#                                CCDC 
#
#######################################################################
#
# If this CIF has been generated from an entry in the Cambridge 
# Structural Database, then it will include bibliographic, chemical, 
# crystal, experimental, refinement or atomic coordinate data resulting 
# from the CCDC's data processing and validation procedures.
#
#######################################################################

data_JEBHON
_symmetry_cell_setting           triclinic
_symmetry_space_group_name_H-M   'P -1'
_symmetry_Int_Tables_number      2
_space_group_name_Hall           '-P 1'
loop_
_symmetry_equiv_pos_site_id
_symmetry_equiv_pos_as_xyz
1 x,y,z
2 -x,-y,-z
_cell_length_a                   9.767(2)
_cell_length_b                   10.668(2)
_cell_length_c                   10.767(2)
_cell_angle_alpha                100.00(1)
_cell_angle_beta                 105.49(1)
_cell_angle_gamma                106.95(1)
_cell_volume                     994.911
loop_
_atom_site_label
_atom_site_type_symbol
_atom_site_fract_x
_atom_site_fract_y
_atom_site_fract_z
Cu1 Cu -0.28165(5) -0.17687(5) -0.11288(5)
O1 O -0.1197(3) -0.0545(3) -0.1699(2)
O2 O -0.6605(3) -0.0952(3) -0.1407(3)
O3 O -0.1998(3) -0.3565(3) -0.1824(3)
N1 N 0.1294(3) 0.0913(3) -0.0618(3)
N2 N 0.4028(3) 0.2608(3) 0.0009(3)
N3 N -0.4535(3) -0.2417(3) -0.2883(3)
N4 N -0.4210(3) 0.0184(3) -0.1307(3)
C1 C 0.0004(4) 0.0090(4) -0.0681(3)
C2 C 0.1633(4) 0.1254(4) -0.1778(4)
C3 C 0.3251(4) 0.2208(4) -0.1314(3)
C4 C 0.3938(4) 0.2636(4) -0.2224(4)
C5 C 0.5430(5) 0.3485(5) -0.1761(4)
C6 C 0.6227(4) 0.3894(4) -0.0397(4)
C7 C 0.5489(4) 0.3445(4) 0.0449(4)
C8 C -0.5120(4) -0.3762(4) -0.3491(4)
C9 C -0.6365(5) -0.4349(5) -0.4658(4)
C10 C -0.7005(5) -0.3512(5) -0.5232(4)
C11 C -0.6420(4) -0.2142(5) -0.4628(4)
C12 C -0.5200(4) -0.1615(4) -0.3435(3)
C13 C -0.4595(4) -0.0119(4) -0.2752(4)
C14 C -0.5291(4) -0.0236(4) -0.0769(3)
H1 H 0.6062 0.3752 0.1434
H2 H 0.7320 0.4505 -0.0037
H3 H 0.5937 0.3805 -0.2401
H4 H 0.3346 0.2325 -0.3205
H5 H -0.4633 -0.4367 -0.3082
H6 H -0.6787 -0.5356 -0.5072
H7 H -0.7892 -0.3900 -0.6085
H8 H -0.6870 -0.1521 -0.5044
H9 H 0.0938 0.1705 -0.2201
H10 H 0.1494 0.0408 -0.2446
H11 H -0.5385 0.0270 -0.3111
H12 H -0.3659 0.0321 -0.2959
H13 H -0.3262 0.0925 -0.0778
H14 H -0.1300 -0.3558 -0.1092
H15 H -0.1225 -0.3275 -0.2214
C1A C -0.0004(4) -0.0090(4) 0.0681(3)
O1A O 0.1197(3) 0.0545(3) 0.1699(2)
N1A N -0.1294(3) -0.0913(3) 0.0618(3)
C2A C -0.1633(4) -0.1254(4) 0.1778(4)
C3A C -0.3251(4) -0.2208(4) 0.1314(3)
N2A N -0.4028(3) -0.2608(3) -0.0009(3)
C7A C -0.5489(4) -0.3445(4) -0.0449(4)
C6A C -0.6227(4) -0.3894(4) 0.0397(4)
C5A C -0.5430(5) -0.3485(5) 0.1761(4)
C4A C -0.3938(4) -0.2636(4) 0.2224(4)
H4A H -0.3346 -0.2325 0.3205
H3A H -0.5937 -0.3805 0.2401
H2A H -0.7320 -0.4505 0.0037
H1A H -0.6062 -0.3752 -0.1434
H9A H -0.0938 -0.1705 0.2201
H10A H -0.1494 -0.0408 0.2446
C14A C -0.4709(4) 0.0236(4) 0.0769(3)
O2A O -0.3395(3) 0.0952(3) 0.1407(3)
N4A N -0.5790(3) -0.0184(3) 0.1307(3)
C13A C -0.5405(4) 0.0119(4) 0.2752(4)
C12A C -0.4800(4) 0.1615(4) 0.3435(3)
N3A N -0.5465(3) 0.2417(3) 0.2883(3)
C8A C -0.4880(4) 0.3762(4) 0.3491(4)
C9A C -0.3635(5) 0.4349(5) 0.4658(4)
C10A C -0.2995(5) 0.3512(5) 0.5232(4)
C11A C -0.3580(4) 0.2142(5) 0.4628(4)
H8A H -0.3130 0.1521 0.5044
H7A H -0.2108 0.3900 0.6085
H6A H -0.3213 0.5356 0.5072
H5A H -0.5367 0.4367 0.3082
H11A H -0.4615 -0.0270 0.3111
H12A H -0.6341 -0.0321 0.2959
H13A H -0.6738 -0.0925 0.0778
Cu1A Cu 0.28165(5) 0.17687(5) 0.11288(5)
O3A O 0.1998(3) 0.3565(3) 0.1824(3)
H14A H 0.1300 0.3558 0.1092
H15A H 0.1225 0.3275 0.2214
Cu1A_2 Cu -0.71835(5) 0.17687(5) 0.11288(5)
N3A_2 N 0.4535(3) 0.2417(3) 0.2883(3)
N4A_2 N 0.4210(3) -0.0184(3) 0.1307(3)
H13A_2 H 0.3262 -0.0925 0.0778
O4 O -0.1296(3) -0.7638(3) -0.0178(3)
O5 O 0.0453(3) -0.6278(3) -0.0688(3)
O6 O -0.1671(4) -0.7517(4) -0.2209(3)
N5 N -0.0858(4) -0.7149(3) -0.1029(3)
O7 O -0.0438(4) -0.6958(3) 0.2964(3)
H16 H -0.0600 -0.6225 0.3169
H17 H -0.1081 -0.7403 0.2239
O8 O -0.0152(4) -0.1995(4) 0.4840(3)
H18 H -0.0481 -0.2881 0.4156
H19 H 0.0197 -0.2272 0.5603
O9 O -0.1823(4) -0.0381(4) -0.4458(3)
H20 H -0.1438 -0.0133 -0.3608
H21 H -0.1263 -0.0856 -0.4333
O10 O -0.1111(4) -0.4557(4) 0.2894(3)
H22 H -0.0597 -0.4272 0.2333
H23 H -0.0566 -0.4122 0.3594
loop_
_geom_bond_atom_site_label_1
_geom_bond_atom_site_label_2
_geom_bond_site_symmetry_1
_geom_bond_site_symmetry_2
Cu1 O1 1_555 1_555
O1 C1 1_555 1_555
O2 C14 1_555 1_555
O3 Cu1 1_555 1_555
N1 C1 1_555 1_555
N2 C3 1_555 1_555
N3 Cu1 1_555 1_555
N4 Cu1 1_555 1_555
C1 C1A 1_555 1_555
C2 N1 1_555 1_555
C3 C2 1_555 1_555
C4 C3 1_555 1_555
C5 C4 1_555 1_555
C6 C5 1_555 1_555
C7 N2 1_555 1_555
C8 N3 1_555 1_555
C9 C8 1_555 1_555
C10 C9 1_555 1_555
C11 C10 1_555 1_555
C12 N3 1_555 1_555
C13 N4 1_555 1_555
C14 N4 1_555 1_555
H1 C7 1_555 1_555
H2 C6 1_555 1_555
H3 C5 1_555 1_555
H4 C4 1_555 1_555
H5 C8 1_555 1_555
H6 C9 1_555 1_555
H7 C10 1_555 1_555
H8 C11 1_555 1_555
H9 C2 1_555 1_555
H10 C2 1_555 1_555
H11 C13 1_555 1_555
H12 C13 1_555 1_555
H13 N4 1_555 1_555
H14 O3 1_555 1_555
H15 O3 1_555 1_555
O4 N5 1_555 1_555
O5 N5 1_555 1_555
O6 N5 1_555 1_555
O7 H16 1_555 1_555
H17 O7 1_555 1_555
O8 H18 1_555 1_555
H19 O8 1_555 1_555
O9 H20 1_555 1_555
H21 O9 1_555 1_555
O10 H22 1_555 1_555
H23 O10 1_555 1_555
C1A O1A 1_555 1_555
O1A Cu1A 1_555 1_555
N1A Cu1 1_555 1_555
C2A N1A 1_555 1_555
C3A C2A 1_555 1_555
N2A Cu1 1_555 1_555
C7A N2A 1_555 1_555
C6A C7A 1_555 1_555
C5A C6A 1_555 1_555
C4A C3A 1_555 1_555
H4A C4A 1_555 1_555
H3A C5A 1_555 1_555
H2A C6A 1_555 1_555
H1A C7A 1_555 1_555
H9A C2A 1_555 1_555
H10A C2A 1_555 1_555
C14A C14 1_555 1_555
O2A C14A 1_555 1_555
N4A C14A 1_555 1_555
C13A N4A 1_555 1_555
C12A C13A 1_555 1_555
N3A C12A 1_555 1_555
C8A N3A 1_555 1_555
C9A C8A 1_555 1_555
C10A C9A 1_555 1_555
C11A C12A 1_555 1_555
H8A C11A 1_555 1_555
H7A C10A 1_555 1_555
H6A C9A 1_555 1_555
H5A C8A 1_555 1_555
H11A C13A 1_555 1_555
H12A C13A 1_555 1_555
H13A N4A 1_555 1_555
Cu1A N1 1_555 1_555
O3A Cu1A 1_555 1_555
H14A O3A 1_555 1_555
H15A O3A 1_555 1_555
Cu1A_2 N4A 1_555 1_555
N3A_2 Cu1A 1_555 1_555
N4A_2 Cu1A 1_555 1_555
H13A_2 N4A_2 1_555 1_555
N2 Cu1A 1_555 1_555
C6 C7 1_555 1_555
C11 C12 1_555 1_555
C12 C13 1_555 1_555
C1A N1A 1_555 1_555
C3A N2A 1_555 1_555
C5A C4A 1_555 1_555
N3A Cu1A_2 1_555 1_555
C10A C11A 1_555 1_555

#END
