
#######################################################################
#
#                 Cambridge Crystallographic Data Centre
#                                CCDC 
#
#######################################################################
#
# If this CIF has been generated from an entry in the Cambridge 
# Structural Database, then it will include bibliographic, chemical, 
# crystal, experimental, refinement or atomic coordinate data resulting 
# from the CCDC's data processing and validation procedures.
#
#######################################################################

data_JEBJOQ
_symmetry_cell_setting           orthorhombic
_symmetry_space_group_name_H-M   'P c c n'
_symmetry_Int_Tables_number      56
_space_group_name_Hall           '-P 2ab 2ac'
loop_
_symmetry_equiv_pos_site_id
_symmetry_equiv_pos_as_xyz
1 x,y,z
2 1/2-x,1/2-y,z
3 -x,1/2+y,1/2-z
4 1/2+x,-y,1/2-z
5 -x,-y,-z
6 1/2+x,1/2+y,-z
7 x,1/2-y,1/2+z
8 1/2-x,y,1/2+z
_cell_length_a                   18.1584(2)
_cell_length_b                   22.2622(4)
_cell_length_c                   22.3088(3)
_cell_angle_alpha                90
_cell_angle_beta                 90
_cell_angle_gamma                90
_cell_volume                     9018.24
loop_
_atom_site_label
_atom_site_type_symbol
_atom_site_fract_x
_atom_site_fract_y
_atom_site_fract_z
Cu7 Cu 0.2500 0.2500 -0.24783(17)
Cu8 Cu 0.2500 0.7500 -0.26037(17)
N1 N 0.2500 0.2500 -0.3391(10)
N2 N 0.2500 0.2500 -0.6579(11)
N3 N 0.2500 0.7500 -0.1687(13)
N4 N 0.2500 0.7500 0.1465(12)
N5 N 0.2544(12) 0.6594(8) -0.2593(8)
N6 N 0.2542(17) 0.3410(8) -0.2506(8)
C1 C 0.188(2) 0.2562(16) -0.3701(10)
H1 H 0.1441 0.2607 -0.3487
C2 C 0.184(2) 0.2564(14) -0.4313(11)
H2 H 0.1393 0.2606 -0.4511
C3 C 0.2500 0.2500 -0.4630(12)
C4 C 0.305(2) 0.2251(14) -0.6248(12)
H3 H 0.3434 0.2059 -0.6453
C5 C 0.309(2) 0.2265(16) -0.5636(12)
H4 H 0.3502 0.2119 -0.5437
C6 C 0.2500 0.2500 -0.5318(13)
C7 C 0.2000(16) 0.7187(11) -0.1374(11)
H5 H 0.1638 0.6975 -0.1579
C8 C 0.2004(17) 0.7171(12) -0.0758(10)
H6 H 0.1666 0.6933 -0.0555
C9 C 0.2500 0.7500 -0.0448(15)
C10 C 0.3078(18) 0.7687(11) 0.1176(10)
H7 H 0.3478 0.7834 0.1391
C11 C 0.3111(16) 0.7674(15) 0.0571(11)
H8 H 0.3545 0.7781 0.0379
C12 C 0.2500 0.7500 0.0229(13)
C13 C 0.2083(15) 0.6271(8) -0.2956(11)
H9 H 0.1782 0.6482 -0.3220
C14 C 0.2037(16) 0.5651(10) -0.2956(11)
H10 H 0.1700 0.5447 -0.3194
C15 C 0.2524(15) 0.5346(8) -0.2577(10)
C16 C 0.3012(15) 0.5667(9) -0.2248(13)
H11 H 0.3363 0.5466 -0.2019
C17 C 0.2996(15) 0.6297(10) -0.2247(11)
H12 H 0.3312 0.6508 -0.1996
C18 C 0.3130(17) 0.3718(12) -0.2589(11)
H13 H 0.3571 0.3508 -0.2625
C19 C 0.3160(14) 0.4322(9) -0.2627(10)
H14 H 0.3604 0.4511 -0.2714
C20 C 0.2534(15) 0.4660(9) -0.2537(10)
C21 C 0.1884(16) 0.4328(9) -0.2446(10)
H15 H 0.1435 0.4526 -0.2411
C22 C 0.191(2) 0.3724(12) -0.2409(12)
H16 H 0.1483 0.3516 -0.2313
O26 O 0.3883(13) 0.7547(10) -0.2591(9)
Cu7F Cu 0.2500 0.2500 -0.74783(17)
Cu7F_2 Cu 0.2500 0.2500 0.25217(17)
Cu7_2 Cu 0.2500 1.2500 -0.24783(17)
Cu8F Cu 0.2500 0.7500 0.23963(17)
Cu8_2 Cu 0.2500 -0.2500 -0.26037(17)
Cu8F_2 Cu 0.2500 0.7500 -0.76037(17)
N1F N 0.2500 0.2500 0.1609(10)
N2F N 0.2500 0.2500 -0.1579(11)
N3F N 0.2500 0.7500 -0.6687(13)
N4F N 0.2500 0.7500 -0.3535(12)
N5A N 0.2456(12) -0.1594(8) -0.2593(8)
N5A_2 N 0.2456(12) 0.8406(8) -0.2593(8)
N6A N 0.2458(17) 0.1590(8) -0.2506(8)
N6A_2 N 0.2458(17) 1.1590(8) -0.2506(8)
C1A C 0.312(2) 0.2438(16) -0.3701(10)
C1F C 0.188(2) 0.2438(16) 0.1299(10)
C1G C 0.312(2) 0.2562(16) 0.1299(10)
H1A H 0.3559 0.2393 -0.3487
H1F H 0.1441 0.2393 0.1513
H1G H 0.3559 0.2607 0.1513
C2A C 0.316(2) 0.2436(14) -0.4313(11)
C2F C 0.184(2) 0.2436(14) 0.0687(11)
C2G C 0.316(2) 0.2564(14) 0.0687(11)
H2A H 0.3607 0.2394 -0.4511
H2F H 0.1393 0.2394 0.0489
H2G H 0.3607 0.2606 0.0489
C3F C 0.2500 0.2500 0.0370(12)
C4A C 0.195(2) 0.2749(14) -0.6248(12)
C4F C 0.305(2) 0.2749(14) -0.1248(12)
C4G C 0.195(2) 0.2251(14) -0.1248(12)
H3A H 0.1566 0.2941 -0.6453
H3F H 0.3434 0.2941 -0.1453
H3G H 0.1566 0.2059 -0.1453
C5A C 0.191(2) 0.2735(16) -0.5636(12)
C5F C 0.309(2) 0.2735(16) -0.0636(12)
C5G C 0.191(2) 0.2265(16) -0.0636(12)
H4A H 0.1498 0.2881 -0.5437
H4F H 0.3502 0.2881 -0.0437
H4G H 0.1498 0.2119 -0.0437
C6F C 0.2500 0.2500 -0.0318(13)
C7A C 0.3000(16) 0.7813(11) -0.1374(11)
C7F C 0.2000(16) 0.7813(11) -0.6374(11)
C7G C 0.3000(16) 0.7187(11) -0.6374(11)
H5A H 0.3362 0.8025 -0.1579
H5F H 0.1638 0.8025 -0.6579
H5G H 0.3362 0.6975 -0.6579
C8A C 0.2996(17) 0.7829(12) -0.0758(10)
C8F C 0.2004(17) 0.7829(12) -0.5758(10)
C8G C 0.2996(17) 0.7171(12) -0.5758(10)
H6A H 0.3334 0.8067 -0.0555
H6F H 0.1666 0.8067 -0.5555
H6G H 0.3334 0.6933 -0.5555
C9F C 0.2500 0.7500 -0.5448(15)
C10A C 0.1922(18) 0.7313(11) 0.1176(10)
C10F C 0.3078(18) 0.7313(11) -0.3824(10)
C10G C 0.1922(18) 0.7687(11) -0.3824(10)
H7A H 0.1522 0.7166 0.1391
H7F H 0.3478 0.7166 -0.3609
H7G H 0.1522 0.7834 -0.3609
C11A C 0.1889(16) 0.7326(15) 0.0571(11)
C11F C 0.3111(16) 0.7326(15) -0.4429(11)
C11G C 0.1889(16) 0.7674(15) -0.4429(11)
H8A H 0.1455 0.7219 0.0379
H8F H 0.3545 0.7219 -0.4621
H8G H 0.1455 0.7781 -0.4621
C12F C 0.2500 0.7500 -0.4771(13)
C13A C 0.2917(15) -0.1271(8) -0.2956(11)
C13A_2 C 0.2917(15) 0.8729(8) -0.2956(11)
H9A H 0.3218 -0.1482 -0.3220
H9A_2 H 0.3218 0.8518 -0.3220
C14A C 0.2963(16) -0.0651(10) -0.2956(11)
C14A_2 C 0.2963(16) 0.9349(10) -0.2956(11)
H10A H 0.3300 -0.0447 -0.3194
H10A_2 H 0.3300 0.9553 -0.3194
C15A C 0.2476(15) -0.0346(8) -0.2577(10)
C15A_2 C 0.2476(15) 0.9654(8) -0.2577(10)
C16A C 0.1988(15) -0.0667(9) -0.2248(13)
C16A_2 C 0.1988(15) 0.9333(9) -0.2248(13)
H11A H 0.1637 -0.0466 -0.2019
H11A_2 H 0.1637 0.9534 -0.2019
C17A C 0.2004(15) -0.1297(10) -0.2247(11)
C17A_2 C 0.2004(15) 0.8703(10) -0.2247(11)
H12A H 0.1688 -0.1508 -0.1996
H12A_2 H 0.1688 0.8492 -0.1996
C18A C 0.1870(17) 0.1282(12) -0.2589(11)
C18A_2 C 0.1870(17) 1.1282(12) -0.2589(11)
H13A H 0.1429 0.1492 -0.2625
H13A_2 H 0.1429 1.1492 -0.2625
C19A C 0.1840(14) 0.0678(9) -0.2627(10)
C19A_2 C 0.1840(14) 1.0678(9) -0.2627(10)
H14A H 0.1396 0.0489 -0.2714
H14A_2 H 0.1396 1.0489 -0.2714
C20A C 0.2466(15) 0.0340(9) -0.2537(10)
C20A_2 C 0.2466(15) 1.0340(9) -0.2537(10)
C21A C 0.3116(16) 0.0672(9) -0.2446(10)
C21A_2 C 0.3116(16) 1.0672(9) -0.2446(10)
H15A H 0.3565 0.0474 -0.2411
H15A_2 H 0.3565 1.0474 -0.2411
C22A C 0.309(2) 0.1276(12) -0.2409(12)
C22A_2 C 0.309(2) 1.1276(12) -0.2409(12)
H16A H 0.3517 0.1484 -0.2313
H16A_2 H 0.3517 1.1484 -0.2313
O26A O 0.1117(13) 0.7453(10) -0.2591(9)
O23 O -0.0154(18) 0.3444(12) -0.2443(15)
O24 O 0.4077(15) 0.2507(10) -0.2426(10)
O25 O -0.016(3) 0.151(2) -0.261(2)
W1 W 0.14936(7) 0.06974(4) 0.07684(4)
W2 W -0.02340(7) 0.13227(5) -0.08788(6)
W3 W -0.00091(8) 0.00826(6) 0.15852(5)
W4 W -0.02631(7) 0.14115(5) 0.07250(6)
W5 W 0.17491(7) -0.07238(6) 0.00608(5)
W6 W 0.15075(8) 0.05951(5) -0.08214(5)
P1 P 0.0000 0.0000 0.0000
O1 O 0.0788(12) 0.1306(8) 0.0764(10)
O2 O 0.0956(12) 0.0355(10) 0.1412(11)
O3 O 0.2579(11) -0.1066(9) 0.0106(10)
O4 O 0.2223(11) 0.1026(9) 0.1117(9)
O5 O -0.0941(11) -0.0165(9) 0.1424(10)
O6 O 0.0805(11) 0.1226(9) -0.0894(11)
O7 O 0.2240(11) 0.0866(10) -0.1210(8)
O8 O -0.0308(10) 0.0728(8) -0.1458(9)
O9 O 0.0166(14) 0.0300(11) -0.0559(11)
O10 O -0.1233(12) 0.1114(12) -0.0661(8)
O11 O -0.014(2) -0.0375(16) -0.0518(18)
O12 O 0.170(2) 0.0872(11) -0.0032(8)
O13 O 0.0868(18) 0.0112(12) -0.0001(11)
O14 O -0.0010(17) 0.0159(18) 0.2359(12)
O15 O -0.1242(12) 0.1216(13) 0.0523(10)
O16 O -0.0319(14) 0.0865(12) 0.1406(11)
O17 O -0.0375(16) 0.2075(10) 0.1084(14)
O18 O -0.0321(16) 0.1928(9) -0.1316(11)
O19 O -0.0309(14) 0.0644(11) -0.0026(11)
O20 O 0.1883(19) -0.0151(10) -0.0587(9)
O21 O 0.1857(18) -0.0089(9) 0.0626(8)
O22 O -0.0126(15) 0.1619(13) -0.0026(10)
W1D W -0.14936(7) -0.06974(4) -0.07684(4)
W2D W 0.02340(7) -0.13227(5) 0.08788(6)
W3D W 0.00091(8) -0.00826(6) -0.15852(5)
W4D W 0.02631(7) -0.14115(5) -0.07250(6)
W5D W -0.17491(7) 0.07238(6) -0.00608(5)
W6D W -0.15075(8) -0.05951(5) 0.08214(5)
O1D O -0.0788(12) -0.1306(8) -0.0764(10)
O2D O -0.0956(12) -0.0355(10) -0.1412(11)
O3D O -0.2579(11) 0.1066(9) -0.0106(10)
O4D O -0.2223(11) -0.1026(9) -0.1117(9)
O5D O 0.0941(11) 0.0165(9) -0.1424(10)
O6D O -0.0805(11) -0.1226(9) 0.0894(11)
O7D O -0.2240(11) -0.0866(10) 0.1210(8)
O8D O 0.0308(10) -0.0728(8) 0.1458(9)
O9D O -0.0166(14) -0.0300(11) 0.0559(11)
O10D O 0.1233(12) -0.1114(12) 0.0661(8)
O11D O 0.014(2) 0.0375(16) 0.0518(18)
O12D O -0.170(2) -0.0872(11) 0.0032(8)
O13D O -0.0868(18) -0.0112(12) 0.0001(11)
O14D O 0.0010(17) -0.0159(18) -0.2359(12)
O15D O 0.1242(12) -0.1216(13) -0.0523(10)
O16D O 0.0319(14) -0.0865(12) -0.1406(11)
O17D O 0.0375(16) -0.2075(10) -0.1084(14)
O18D O 0.0321(16) -0.1928(9) 0.1316(11)
O19D O 0.0309(14) -0.0644(11) 0.0026(11)
O20D O -0.1883(19) 0.0151(10) 0.0587(9)
O21D O -0.1857(18) 0.0089(9) -0.0626(8)
O22D O 0.0126(15) -0.1619(13) 0.0026(10)
Cu1? Cu 0.14936(7) 0.06974(4) 0.07684(4)
Cu2? Cu -0.02340(7) 0.13227(5) -0.08788(6)
Cu3? Cu 0.00091(8) -0.00826(6) -0.15852(5)
Cu4? Cu -0.02631(7) 0.14115(5) 0.07250(6)
Cu5? Cu -0.17491(7) 0.07238(6) -0.00608(5)
Cu6? Cu 0.15075(8) 0.05951(5) -0.08214(5)
loop_
_geom_bond_atom_site_label_1
_geom_bond_atom_site_label_2
_geom_bond_site_symmetry_1
_geom_bond_site_symmetry_2
W1 O1 1_555 1_555
W2 O6 1_555 1_555
W3 O2 1_555 1_555
W4 O1 1_555 1_555
W5 O3 1_555 1_555
W6 O6 1_555 1_555
P1 O9 1_555 1_555
Cu7 N1 1_555 1_555
Cu8 N3 1_555 1_555
O2 W1 1_555 1_555
O4 W1 1_555 1_555
O5 W3 1_555 1_555
O7 W6 1_555 1_555
O8 W2 1_555 1_555
O9 W2 1_555 1_555
O10 W2 1_555 1_555
O11 P1 1_555 1_555
O12 W1 1_555 1_555
O13 W1 1_555 1_555
O14 W3 1_555 1_555
O15 W4 1_555 1_555
O16 W3 1_555 1_555
O17 W4 1_555 1_555
O18 W2 1_555 1_555
O19 W2 1_555 1_555
O20 W5 1_555 1_555
O21 W1 1_555 1_555
O22 W2 1_555 1_555
N1 C1 1_555 1_555
N2 C4 1_555 1_555
N3 C7 1_555 1_555
N4 C10 1_555 1_555
N5 Cu8 1_555 1_555
N6 Cu7 1_555 1_555
C1 H1 1_555 1_555
C2 C1 1_555 1_555
H2 C2 1_555 1_555
C3 C2 1_555 1_555
C4 H3 1_555 1_555
C5 C4 1_555 1_555
H4 C5 1_555 1_555
C6 C3 1_555 1_555
C7 H5 1_555 1_555
C8 C7 1_555 1_555
H6 C8 1_555 1_555
C9 C8 1_555 1_555
C10 H7 1_555 1_555
C11 C10 1_555 1_555
H8 C11 1_555 1_555
C12 C9 1_555 1_555
C13 N5 1_555 1_555
H9 C13 1_555 1_555
C14 C13 1_555 1_555
H10 C14 1_555 1_555
C15 C14 1_555 1_555
C16 C15 1_555 1_555
H11 C16 1_555 1_555
C17 N5 1_555 1_555
H12 C17 1_555 1_555
C18 N6 1_555 1_555
H13 C18 1_555 1_555
C19 C18 1_555 1_555
H14 C19 1_555 1_555
C20 C15 1_555 1_555
C21 C20 1_555 1_555
H15 C21 1_555 1_555
C22 N6 1_555 1_555
H16 C22 1_555 1_555
O26 Cu8 1_555 1_555
W1D O1D 1_555 1_555
W2D O6D 1_555 1_555
W3D O8 1_555 1_555
W4D O11 1_555 1_555
W5D O10 1_555 1_555
W6D O5 1_555 1_555
Cu7F N2 1_555 1_555
Cu7F_2 N1F 1_555 1_555
Cu7_2 N6A_2 1_555 1_555
Cu8F N4 1_555 1_555
Cu8_2 N5A 1_555 1_555
Cu8F_2 N3F 1_555 1_555
O1D W4D 1_555 1_555
O2D W1D 1_555 1_555
O3D W5D 1_555 1_555
O4D W1D 1_555 1_555
O5D W6 1_555 1_555
O6D W6D 1_555 1_555
O7D W6D 1_555 1_555
O8D W3 1_555 1_555
O9D W3 1_555 1_555
O10D W5 1_555 1_555
O11D W3 1_555 1_555
O12D W1D 1_555 1_555
O13D P1 1_555 1_555
O14D W3D 1_555 1_555
O15D W5 1_555 1_555
O16D W3D 1_555 1_555
O17D W4D 1_555 1_555
O18D W2D 1_555 1_555
O19D P1 1_555 1_555
O20D W5D 1_555 1_555
O21D W1D 1_555 1_555
O22D W2D 1_555 1_555
N1F C1F 1_555 1_555
N2F Cu7 1_555 1_555
N3F C7F 1_555 1_555
N4F Cu8 1_555 1_555
N5A C13A 1_555 1_555
N5A_2 Cu8 1_555 1_555
N6A Cu7 1_555 1_555
N6A_2 C18A_2 1_555 1_555
C1A N1 1_555 1_555
C1F H1F 1_555 1_555
C1G N1F 1_555 1_555
H1A C1A 1_555 1_555
H1G C1G 1_555 1_555
C2A C3 1_555 1_555
C2F C1F 1_555 1_555
C2G C1G 1_555 1_555
H2A C2A 1_555 1_555
H2F C2F 1_555 1_555
H2G C2G 1_555 1_555
C3F C2F 1_555 1_555
C4A N2 1_555 1_555
C4F N2F 1_555 1_555
C4G N2F 1_555 1_555
H3A C4A 1_555 1_555
H3F C4F 1_555 1_555
H3G C4G 1_555 1_555
C5A C6 1_555 1_555
C5F C4F 1_555 1_555
C5G C4G 1_555 1_555
H4A C5A 1_555 1_555
H4F C5F 1_555 1_555
H4G C5G 1_555 1_555
C6F C3F 1_555 1_555
C7A N3 1_555 1_555
C7F H5F 1_555 1_555
C7G N3F 1_555 1_555
H5A C7A 1_555 1_555
H5G C7G 1_555 1_555
C8A C9 1_555 1_555
C8F C7F 1_555 1_555
C8G C7G 1_555 1_555
H6A C8A 1_555 1_555
H6F C8F 1_555 1_555
H6G C8G 1_555 1_555
C9F C8F 1_555 1_555
C10A N4 1_555 1_555
C10F N4F 1_555 1_555
C10G N4F 1_555 1_555
H7A C10A 1_555 1_555
H7F C10F 1_555 1_555
H7G C10G 1_555 1_555
C11A C12 1_555 1_555
C11F C10F 1_555 1_555
C11G C10G 1_555 1_555
H8A C11A 1_555 1_555
H8F C11F 1_555 1_555
H8G C11G 1_555 1_555
C12F C9F 1_555 1_555
C13A H9A 1_555 1_555
C13A_2 N5A_2 1_555 1_555
H9A_2 C13A_2 1_555 1_555
C14A C13A 1_555 1_555
C14A_2 C13A_2 1_555 1_555
H10A C14A 1_555 1_555
H10A_2 C14A_2 1_555 1_555
C15A C14A 1_555 1_555
C15A_2 C14A_2 1_555 1_555
C16A C15A 1_555 1_555
C16A_2 C15A_2 1_555 1_555
H11A C16A 1_555 1_555
H11A_2 C16A_2 1_555 1_555
C17A N5A 1_555 1_555
C17A_2 N5A_2 1_555 1_555
H12A C17A 1_555 1_555
H12A_2 C17A_2 1_555 1_555
C18A N6A 1_555 1_555
C18A_2 H13A_2 1_555 1_555
H13A C18A 1_555 1_555
C19A C18A 1_555 1_555
C19A_2 C18A_2 1_555 1_555
H14A C19A 1_555 1_555
H14A_2 C19A_2 1_555 1_555
C20A C15A 1_555 1_555
C20A_2 C15A_2 1_555 1_555
C21A C20A 1_555 1_555
C21A_2 C20A_2 1_555 1_555
H15A C21A 1_555 1_555
H15A_2 C21A_2 1_555 1_555
C22A N6A 1_555 1_555
C22A_2 N6A_2 1_555 1_555
H16A C22A 1_555 1_555
H16A_2 C22A_2 1_555 1_555
O26A Cu8 1_555 1_555
W4 O16 1_555 1_555
W4 O19 1_555 1_555
W4 O22 1_555 1_555
W4 O11D 1_555 1_555
W5 O13 1_555 1_555
W5 O21 1_555 1_555
W6 O12 1_555 1_555
W6 O13 1_555 1_555
W6 O20 1_555 1_555
P1 O13 1_555 1_555
P1 O19 1_555 1_555
P1 O9D 1_555 1_555
P1 O11D 1_555 1_555
O9 W3D 1_555 1_555
O11 W3D 1_555 1_555
O15 W5D 1_555 1_555
C5 C6 1_555 1_555
C11 C12 1_555 1_555
C16 C17 1_555 1_555
C19 C20 1_555 1_555
C21 C22 1_555 1_555
W1D O13D 1_555 1_555
W2D O8D 1_555 1_555
W2D O9D 1_555 1_555
W2D O10D 1_555 1_555
W2D O19D 1_555 1_555
W3D O2D 1_555 1_555
W3D O5D 1_555 1_555
W4D O15D 1_555 1_555
W4D O16D 1_555 1_555
W4D O19D 1_555 1_555
W4D O22D 1_555 1_555
W5D O13D 1_555 1_555
W5D O21D 1_555 1_555
W6D O12D 1_555 1_555
W6D O13D 1_555 1_555
W6D O20D 1_555 1_555
C1A C2A 1_555 1_555
C2G C3F 1_555 1_555
C4A C5A 1_555 1_555
C5F C6F 1_555 1_555
C5G C6F 1_555 1_555
C7A C8A 1_555 1_555
C8G C9F 1_555 1_555
C10A C11A 1_555 1_555
C11F C12F 1_555 1_555
C11G C12F 1_555 1_555
C16A C17A 1_555 1_555
C16A_2 C17A_2 1_555 1_555
C19A C20A 1_555 1_555
C19A_2 C20A_2 1_555 1_555
C21A C22A 1_555 1_555
C21A_2 C22A_2 1_555 1_555

#END
