
#######################################################################
#
#                 Cambridge Crystallographic Data Centre
#                                CCDC 
#
#######################################################################
#
# If this CIF has been generated from an entry in the Cambridge 
# Structural Database, then it will include bibliographic, chemical, 
# crystal, experimental, refinement or atomic coordinate data resulting 
# from the CCDC's data processing and validation procedures.
#
#######################################################################

data_JEBLIM
_symmetry_cell_setting           triclinic
_symmetry_space_group_name_H-M   'P -1'
_symmetry_Int_Tables_number      2
_space_group_name_Hall           '-P 1'
loop_
_symmetry_equiv_pos_site_id
_symmetry_equiv_pos_as_xyz
1 x,y,z
2 -x,-y,-z
_cell_length_a                   5.7538(10)
_cell_length_b                   7.904(2)
_cell_length_c                   16.173(3)
_cell_angle_alpha                103.412(13)
_cell_angle_beta                 95.848(9)
_cell_angle_gamma                97.027(12)
_cell_volume                     703.589
loop_
_atom_site_label
_atom_site_type_symbol
_atom_site_fract_x
_atom_site_fract_y
_atom_site_fract_z
Na1 Na -0.1956(3) -0.1836(2) 0.00486(12)
P1 P 0.3164(2) -0.32829(14) 0.11873(8)
P2 P -0.76246(19) -0.22444(14) -0.12816(8)
O1 O 0.0467(5) -0.3316(4) 0.0944(2)
H1 H -0.0277 -0.4052 0.1139
O2 O 0.3554(5) -0.5203(4) 0.0829(2)
H2 H 0.4940 -0.5294 0.0961
O3 O 0.4635(5) -0.1978(4) 0.0858(2)
O4 O -0.4932(5) -0.1412(4) -0.1105(2)
H3 H -0.4789 -0.0444 -0.1213
O5 O -0.9086(5) -0.1150(4) -0.0749(2)
O6 O -0.7591(5) -0.4115(4) -0.1176(2)
C1 C 0.3757(9) -0.2806(6) 0.2336(3)
C2 C 0.2120(11) -0.3324(8) 0.2814(4)
H4 H 0.0631 -0.3897 0.2546
C3 C 0.2654(13) -0.3004(10) 0.3702(4)
H5 H 0.1531 -0.3375 0.4023
C4 C 0.4813(13) -0.2151(9) 0.4098(4)
H6 H 0.5152 -0.1921 0.4692
C5 C 0.6494(13) -0.1625(9) 0.3633(4)
H7 H 0.7979 -0.1060 0.3908
C6 C 0.5974(10) -0.1940(8) 0.2743(4)
H8 H 0.7104 -0.1573 0.2424
C7 C -0.8572(8) -0.2407(6) -0.2402(3)
C8 C -1.0572(9) -0.1727(8) -0.2636(4)
H9 H -1.1413 -0.1176 -0.2217
C9 C -1.1327(11) -0.1867(9) -0.3497(4)
H10 H -1.2681 -0.1420 -0.3655
C10 C -1.0079(13) -0.2662(10) -0.4109(4)
H11 H -1.0576 -0.2745 -0.4684
C11 C -0.8069(12) -0.3347(9) -0.3879(4)
H12 H -0.7225 -0.3886 -0.4300
C12 C -0.7322(10) -0.3229(7) -0.3025(3)
H13 H -0.5987 -0.3700 -0.2871
Na1A Na 0.1956(3) -0.8164(2) -0.00486(12)
Na1_2 Na -1.1956(3) -0.1836(2) 0.00486(12)
Na1A_2 Na -0.8044(3) 0.1836(2) -0.00486(12)
Na1_3 Na 0.8044(3) -0.1836(2) 0.00486(12)
O2A O -0.3554(5) -0.4797(4) -0.0829(2)
H2A H -0.4940 -0.4706 -0.0961
O3_2 O -0.5365(5) -0.1978(4) 0.0858(2)
O5_2 O 0.0914(5) -0.1150(4) -0.0749(2)
O5A O -0.0914(5) 0.1150(4) 0.0749(2)
loop_
_geom_bond_atom_site_label_1
_geom_bond_atom_site_label_2
_geom_bond_site_symmetry_1
_geom_bond_site_symmetry_2
Na1 O1 1_555 1_555
P1 O1 1_555 1_555
P2 O4 1_555 1_555
O1 H1 1_555 1_555
O2 P1 1_555 1_555
H2 O2 1_555 1_555
O3 P1 1_555 1_555
O4 Na1 1_555 1_555
H3 O4 1_555 1_555
O5 P2 1_555 1_555
O6 P2 1_555 1_555
C1 P1 1_555 1_555
C2 C1 1_555 1_555
H4 C2 1_555 1_555
C3 C2 1_555 1_555
H5 C3 1_555 1_555
C4 C3 1_555 1_555
H6 C4 1_555 1_555
C5 C4 1_555 1_555
H7 C5 1_555 1_555
C6 C1 1_555 1_555
H8 C6 1_555 1_555
C7 P2 1_555 1_555
C8 C7 1_555 1_555
H9 C8 1_555 1_555
C9 C8 1_555 1_555
H10 C9 1_555 1_555
C10 C9 1_555 1_555
H11 C10 1_555 1_555
C11 C10 1_555 1_555
H12 C11 1_555 1_555
C12 C7 1_555 1_555
H13 C12 1_555 1_555
Na1A O2 1_555 1_555
Na1_2 O5 1_555 1_555
Na1A_2 O5 1_555 1_555
Na1_3 O3 1_555 1_555
O2A Na1 1_555 1_555
H2A O2A 1_555 1_555
O3_2 Na1 1_555 1_555
O5_2 Na1 1_555 1_555
O5A Na1 1_555 1_555
C5 C6 1_555 1_555
C11 C12 1_555 1_555

#END
