
#######################################################################
#
#                 Cambridge Crystallographic Data Centre
#                                CCDC 
#
#######################################################################
#
# If this CIF has been generated from an entry in the Cambridge 
# Structural Database, then it will include bibliographic, chemical, 
# crystal, experimental, refinement or atomic coordinate data resulting 
# from the CCDC's data processing and validation procedures.
#
#######################################################################

data_JEBMEJ01
_symmetry_cell_setting           triclinic
_symmetry_space_group_name_H-M   'P -1'
_symmetry_Int_Tables_number      2
_space_group_name_Hall           '-P 1'
loop_
_symmetry_equiv_pos_site_id
_symmetry_equiv_pos_as_xyz
1 x,y,z
2 -x,-y,-z
_cell_length_a                   6.1691(3)
_cell_length_b                   7.6906(4)
_cell_length_c                   17.0084(8)
_cell_angle_alpha                97.506(2)
_cell_angle_beta                 98.367(3)
_cell_angle_gamma                94.551(3)
_cell_volume                     787.529
loop_
_atom_site_label
_atom_site_type_symbol
_atom_site_fract_x
_atom_site_fract_y
_atom_site_fract_z
Cs1 Cs 0.28293(5) 0.27100(4) 0.014720(17)
P1 P 0.81209(19) 0.25043(13) 0.16131(7)
O1 O 0.6366(5) 0.1105(4) 0.1194(2)
O2 O 0.7926(6) 0.4120(4) 0.1147(2)
O3 O 1.0457(6) 0.2006(4) 0.1671(2)
C1 C 0.7654(9) 0.3198(6) 0.2615(3)
C2 C 0.9143(11) 0.2887(8) 0.3265(3)
H1 H 1.0396 0.2336 0.3184
C3 C 0.8732(14) 0.3411(10) 0.4038(4)
H2 H 0.9723 0.3206 0.4475
C4 C 0.6899(15) 0.4225(11) 0.4168(4)
H3 H 0.6644 0.4571 0.4688
C5 C 0.5440(13) 0.4523(9) 0.3523(4)
H4 H 0.4185 0.5064 0.3612
C6 C 0.5788(10) 0.4043(7) 0.2747(4)
H5 H 0.4796 0.4277 0.2317
P2 P 0.24016(19) 0.78337(13) 0.14726(7)
O4 O 0.1185(6) 0.9163(4) 0.10356(19)
O5 O 0.1509(6) 0.5972(4) 0.1149(2)
O6 O 0.4880(6) 0.8077(4) 0.1402(2)
C7 C 0.2196(8) 0.8315(5) 0.2521(3)
C8 C 0.0296(10) 0.7795(7) 0.2797(3)
H6 H -0.0876 0.7165 0.2441
C9 C 0.0111(12) 0.8197(9) 0.3597(4)
H7 H -0.1193 0.7856 0.3775
C10 C 0.1839(13) 0.9097(9) 0.4130(4)
H8 H 0.1727 0.9331 0.4672
C11 C 0.3738(12) 0.9654(10) 0.3864(4)
H9 H 0.4891 1.0300 0.4223
C12 C 0.3941(10) 0.9256(8) 0.3059(3)
H10 H 0.5237 0.9616 0.2881
H11 H 0.888(10) 0.457(8) 0.122(4)
H12 H 1.079(14) 0.121(11) 0.143(5)
H13 H 0.524(13) 0.901(10) 0.145(4)
Cs1_2 Cs 0.28293(5) 1.27100(4) 0.014720(17)
Cs1_3 Cs 1.28293(5) 0.27100(4) 0.014720(17)
Cs1A Cs -0.28293(5) 0.72900(4) -0.014720(17)
Cs1A_2 Cs 0.71707(5) -0.27100(4) -0.014720(17)
Cs1A_3 Cs 0.71707(5) 0.72900(4) -0.014720(17)
O1A O 0.3634(5) -0.1105(4) -0.1194(2)
O2A O 0.2074(6) 0.5880(4) -0.1147(2)
O3_2 O 0.0457(6) 0.2006(4) 0.1671(2)
O4_2 O 0.1185(6) -0.0837(4) 0.10356(19)
O4A O -0.1185(6) 0.0837(4) -0.10356(19)
O5A O -0.1509(6) 0.4028(4) -0.1149(2)
O6A O 0.5120(6) 0.1923(4) -0.1402(2)
loop_
_geom_bond_atom_site_label_1
_geom_bond_atom_site_label_2
_geom_bond_site_symmetry_1
_geom_bond_site_symmetry_2
Cs1 O1 1_555 1_555
P1 O1 1_555 1_555
O1 Cs1A_2 1_555 1_555
O2 Cs1 1_555 1_555
O3 P1 1_555 1_555
C1 P1 1_555 1_555
C2 C1 1_555 1_555
H1 C2 1_555 1_555
C3 C2 1_555 1_555
H2 C3 1_555 1_555
C4 C3 1_555 1_555
H3 C4 1_555 1_555
C5 C4 1_555 1_555
H4 C5 1_555 1_555
C6 C1 1_555 1_555
H5 C6 1_555 1_555
P2 O4 1_555 1_555
O4 Cs1_2 1_555 1_555
O5 Cs1 1_555 1_555
O6 P2 1_555 1_555
C7 P2 1_555 1_555
C8 C7 1_555 1_555
H6 C8 1_555 1_555
C9 C8 1_555 1_555
H7 C9 1_555 1_555
C10 C9 1_555 1_555
H8 C10 1_555 1_555
C11 C10 1_555 1_555
H9 C11 1_555 1_555
C12 C7 1_555 1_555
H10 C12 1_555 1_555
H11 O2 1_555 1_555
H12 O3 1_555 1_555
H13 O6 1_555 1_555
Cs1_3 O3 1_555 1_555
Cs1A O4 1_555 1_555
Cs1A_2 O1A 1_555 1_555
Cs1A_3 O2 1_555 1_555
O1A Cs1 1_555 1_555
O2A Cs1 1_555 1_555
O3_2 Cs1 1_555 1_555
O4_2 Cs1 1_555 1_555
O4A Cs1 1_555 1_555
O5A Cs1 1_555 1_555
O6A Cs1 1_555 1_555
P1 O2 1_555 1_555
C5 C6 1_555 1_555
P2 O5 1_555 1_555
O5 Cs1A 1_555 1_555
O6 Cs1A_3 1_555 1_555
C11 C12 1_555 1_555
Cs1A O5A 1_555 1_555
Cs1A_3 O2A 1_555 1_555

#END
