
#######################################################################
#
#                 Cambridge Crystallographic Data Centre
#                                CCDC 
#
#######################################################################
#
# If this CIF has been generated from an entry in the Cambridge 
# Structural Database, then it will include bibliographic, chemical, 
# crystal, experimental, refinement or atomic coordinate data resulting 
# from the CCDC's data processing and validation procedures.
#
#######################################################################

data_JECCAW
_symmetry_cell_setting           triclinic
_symmetry_space_group_name_H-M   'P -1'
_symmetry_Int_Tables_number      2
_space_group_name_Hall           '-P 1'
loop_
_symmetry_equiv_pos_site_id
_symmetry_equiv_pos_as_xyz
1 x,y,z
2 -x,-y,-z
_cell_length_a                   10.746(2)
_cell_length_b                   11.256(2)
_cell_length_c                   11.771(2)
_cell_angle_alpha                61.90(3)
_cell_angle_beta                 88.15(3)
_cell_angle_gamma                70.07(3)
_cell_volume                     1166.53
loop_
_atom_site_label
_atom_site_type_symbol
_atom_site_fract_x
_atom_site_fract_y
_atom_site_fract_z
Na1 Na 0.51871(14) 0.4606(2) -0.31292(13)
Na2 Na 0.63273(14) 0.4905(2) -0.04523(14)
O1 O 0.4589(2) 0.4694(3) -0.1238(2)
O2 O 0.8467(3) 0.3363(4) -0.0493(3)
O3 O 0.7261(2) 0.2628(3) -0.2083(2)
O4 O 0.6061(2) 0.3359(3) -0.4481(2)
O5 O 0.3788(3) 0.3679(3) -0.5888(2)
O6 O 0.3043(3) 0.3105(3) -0.7895(3)
C1 C 0.3291(3) 0.5265(4) -0.1909(3)
C2 C 0.2606(3) 0.6792(4) -0.2457(3)
C3 C 0.3317(4) 0.7680(5) -0.2507(4)
H1 H 0.4226 0.7240 -0.2175
C4 C 0.2712(4) 0.9156(5) -0.3024(4)
H2 H 0.3228 0.9682 -0.3052
C5 C 0.1352(4) 0.9883(5) -0.3507(4)
H3 H 0.0950 1.0882 -0.3860
C6 C 0.0617(4) 0.9054(5) -0.3442(4)
H4 H -0.0298 0.9512 -0.3750
C7 C 0.1198(4) 0.7582(5) -0.2936(4)
H5 H 0.0659 0.7075 -0.2902
C8 C 0.2853(3) 0.4272(4) -0.2044(3)
C9 C 0.3676(4) 0.2757(5) -0.1399(3)
H6 H 0.4508 0.2459 -0.0936
C10 C 0.3293(4) 0.1725(5) -0.1432(4)
H7 H 0.3853 0.0756 -0.0960
C11 C 0.2094(4) 0.2090(5) -0.2148(4)
H8 H 0.1825 0.1384 -0.2139
C12 C 0.1312(4) 0.3554(5) -0.2880(4)
H9 H 0.0529 0.3831 -0.3407
C13 C 0.1660(4) 0.4608(5) -0.2849(3)
H10 H 0.1107 0.5574 -0.3366
C14 C 0.9571(4) 0.3632(6) -0.0166(4)
H11 H 0.9286 0.4629 -0.0378
H12 H 0.9899 0.3019 0.0751
H13 H 1.0273 0.3430 -0.0650
C15 C 0.8821(4) 0.1913(5) -0.0204(4)
H14 H 0.9582 0.1650 -0.0620
H15 H 0.9070 0.1272 0.0730
C16 C 0.7650(4) 0.1766(5) -0.0694(3)
H16 H 0.6895 0.2048 -0.0279
H17 H 0.7866 0.0757 -0.0442
C17 C 0.8054(4) 0.2022(5) -0.2806(4)
H18 H 0.8974 0.1931 -0.2661
H19 H 0.8047 0.1065 -0.2526
C18 C 0.7484(4) 0.3005(5) -0.4234(4)
H20 H 0.7937 0.2534 -0.4721
H21 H 0.7653 0.3892 -0.4541
C19 C 0.5748(5) 0.2160(5) -0.4301(4)
H22 H 0.6167 0.1822 -0.4890
H23 H 0.6093 0.1372 -0.3415
C20 C 0.4266(5) 0.2597(5) -0.4557(4)
H24 H 0.3841 0.2976 -0.3996
H25 H 0.4047 0.1763 -0.4373
C21 C 0.2468(4) 0.3875(5) -0.6315(4)
H26 H 0.1944 0.3773 -0.5611
H27 H 0.2041 0.4849 -0.7039
C22 C 0.2479(5) 0.2809(6) -0.6730(4)
H28 H 0.1571 0.2868 -0.6875
H29 H 0.3000 0.1835 -0.6049
C23 C 0.3286(6) 0.1999(7) -0.8219(6)
H30 H 0.3667 0.2246 -0.9010
H31 H 0.3900 0.1103 -0.7527
H32 H 0.2459 0.1892 -0.8339
Na1A Na 0.48129(14) 0.5394(2) -0.68708(13)
Na2A Na 0.36727(14) 0.5095(2) 0.04523(14)
Na2A_2 Na 0.36727(14) 0.5095(2) -0.95477(14)
O1A O 0.5411(2) 0.5306(3) 0.1238(2)
O4A O 0.3939(2) 0.6641(3) -0.5519(2)
O5A O 0.6212(3) 0.6321(3) -0.4112(2)
O6A O 0.6957(3) 0.6895(3) -0.2105(3)
loop_
_geom_bond_atom_site_label_1
_geom_bond_atom_site_label_2
_geom_bond_site_symmetry_1
_geom_bond_site_symmetry_2
Na1 O1 1_555 1_555
Na2 O1 1_555 1_555
O1 C1 1_555 1_555
O2 Na2 1_555 1_555
O3 Na1 1_555 1_555
O4 Na1 1_555 1_555
O5 C20 1_555 1_555
O6 C22 1_555 1_555
C1 C2 1_555 1_555
C2 C3 1_555 1_555
C3 H1 1_555 1_555
C4 C3 1_555 1_555
H2 C4 1_555 1_555
C5 C4 1_555 1_555
H3 C5 1_555 1_555
C6 C5 1_555 1_555
H4 C6 1_555 1_555
C7 C2 1_555 1_555
H5 C7 1_555 1_555
C8 C1 1_555 1_555
C9 C8 1_555 1_555
H6 C9 1_555 1_555
C10 C9 1_555 1_555
H7 C10 1_555 1_555
C11 C10 1_555 1_555
H8 C11 1_555 1_555
C12 C11 1_555 1_555
H9 C12 1_555 1_555
C13 C8 1_555 1_555
H10 C13 1_555 1_555
C14 O2 1_555 1_555
H11 C14 1_555 1_555
H12 C14 1_555 1_555
H13 C14 1_555 1_555
C15 O2 1_555 1_555
H14 C15 1_555 1_555
H15 C15 1_555 1_555
C16 O3 1_555 1_555
H16 C16 1_555 1_555
H17 C16 1_555 1_555
C17 O3 1_555 1_555
H18 C17 1_555 1_555
H19 C17 1_555 1_555
C18 O4 1_555 1_555
H20 C18 1_555 1_555
H21 C18 1_555 1_555
C19 O4 1_555 1_555
H22 C19 1_555 1_555
H23 C19 1_555 1_555
C20 C19 1_555 1_555
H24 C20 1_555 1_555
H25 C20 1_555 1_555
C21 O5 1_555 1_555
H26 C21 1_555 1_555
H27 C21 1_555 1_555
C22 C21 1_555 1_555
H28 C22 1_555 1_555
H29 C22 1_555 1_555
C23 O6 1_555 1_555
H30 C23 1_555 1_555
H31 C23 1_555 1_555
H32 C23 1_555 1_555
Na1A O4 1_555 1_555
Na2A O1 1_555 1_555
Na2A_2 O6 1_555 1_555
O1A Na2 1_555 1_555
O4A Na1 1_555 1_555
O5A Na1 1_555 1_555
O6A Na2 1_555 1_555
O5 Na1A 1_555 1_555
C6 C7 1_555 1_555
C12 C13 1_555 1_555
C15 C16 1_555 1_555
C17 C18 1_555 1_555
Na1A O4A 1_555 1_555
Na2A O1A 1_555 1_555

#END
