
#######################################################################
#
#                 Cambridge Crystallographic Data Centre
#                                CCDC 
#
#######################################################################
#
# If this CIF has been generated from an entry in the Cambridge 
# Structural Database, then it will include bibliographic, chemical, 
# crystal, experimental, refinement or atomic coordinate data resulting 
# from the CCDC's data processing and validation procedures.
#
#######################################################################

data_JECCEA
_symmetry_cell_setting           monoclinic
_symmetry_space_group_name_H-M   'P 21/n'
_symmetry_Int_Tables_number      14
_space_group_name_Hall           '-P 2yn'
loop_
_symmetry_equiv_pos_site_id
_symmetry_equiv_pos_as_xyz
1 x,y,z
2 1/2-x,1/2+y,1/2-z
3 -x,-y,-z
4 1/2+x,1/2-y,1/2+z
_cell_length_a                   12.055(7)
_cell_length_b                   8.424(5)
_cell_length_c                   19.909(12)
_cell_angle_alpha                90
_cell_angle_beta                 94.618(9)
_cell_angle_gamma                90
_cell_volume                     2015.22
loop_
_atom_site_label
_atom_site_type_symbol
_atom_site_fract_x
_atom_site_fract_y
_atom_site_fract_z
Na1 Na 0.71196(17) 0.1067(2) 0.78072(12)
Na2 Na 0.66086(18) 0.4135(3) 0.85025(11)
O1 O 0.7747(3) 0.3695(4) 0.77121(18)
O2 O 0.7102(5) 0.1687(5) 0.9106(2)
O3 O 0.5330(3) 0.2428(5) 0.7849(2)
C1 C 0.8803(5) 0.3156(6) 0.7608(3)
C2 C 0.9661(5) 0.3480(6) 0.8142(3)
C3 C 0.9468(5) 0.4684(7) 0.8620(3)
H1 H 0.8784 0.5201 0.8589
C4 C 1.0249(6) 0.5108(7) 0.9124(3)
H2 H 1.0092 0.5926 0.9416
C5 C 1.1278(6) 0.4342(9) 0.9211(3)
H3 H 1.1820 0.4650 0.9545
C6 C 1.1451(5) 0.3105(9) 0.8777(4)
H4 H 1.2114 0.2541 0.8837
C7 C 1.0690(5) 0.2671(7) 0.8264(3)
H5 H 1.0851 0.1825 0.7987
C8 C 0.8961(5) 0.2525(6) 0.6971(3)
C9 C 0.8027(5) 0.2458(6) 0.6469(3)
H6 H 0.7340 0.2820 0.6586
C10 C 0.8102(5) 0.1886(7) 0.5828(3)
H7 H 0.7467 0.1875 0.5530
C11 C 0.9093(7) 0.1325(7) 0.5611(3)
H8 H 0.9127 0.0902 0.5182
C12 C 1.0041(6) 0.1418(7) 0.6063(4)
H9 H 1.0721 0.1077 0.5925
C13 C 0.9995(5) 0.1995(7) 0.6700(3)
H10 H 1.0653 0.2056 0.6976
C14 C 0.6326(6) 0.1069(9) 0.9553(4)
H11 H 0.5953 0.0143 0.9353
H12 H 0.5768 0.1864 0.9630
C15 C 0.6949(9) 0.0630(11) 1.0205(4)
H13 H 0.6704 0.1265 1.0571
H14 H 0.6841 -0.0483 1.0306
C16 C 0.8108(9) 0.0950(13) 1.0106(5)
H15 H 0.8383 0.1808 1.0399
H16 H 0.8556 0.0014 1.0215
C17 C 0.8183(7) 0.1382(11) 0.9414(5)
H17 H 0.8643 0.2321 0.9388
H18 H 0.8526 0.0526 0.9179
C18 C 0.4408(5) 0.1528(8) 0.8066(4)
H19 H 0.4173 0.1952 0.8485
H20 H 0.4617 0.0425 0.8136
C19 C 0.3491(5) 0.1668(10) 0.7518(4)
H21 H 0.3529 0.0820 0.7191
H22 H 0.2768 0.1642 0.7699
C20 C 0.3697(6) 0.3235(9) 0.7209(4)
H23 H 0.3384 0.4089 0.7461
H24 H 0.3386 0.3277 0.6745
C21 C 0.4956(5) 0.3328(8) 0.7253(4)
H25 H 0.5242 0.2870 0.6855
H26 H 0.5202 0.4422 0.7295
Na1A Na 0.78804(17) 0.6067(2) 0.71928(12)
O1A O 0.7253(3) -0.1305(4) 0.72879(18)
loop_
_geom_bond_atom_site_label_1
_geom_bond_atom_site_label_2
_geom_bond_site_symmetry_1
_geom_bond_site_symmetry_2
Na1 O1 1_555 1_555
Na2 O1 1_555 1_555
O1 C1 1_555 1_555
O2 Na1 1_555 1_555
O3 Na1 1_555 1_555
C1 C2 1_555 1_555
C2 C3 1_555 1_555
C3 H1 1_555 1_555
C4 C3 1_555 1_555
H2 C4 1_555 1_555
C5 C4 1_555 1_555
H3 C5 1_555 1_555
C6 C5 1_555 1_555
H4 C6 1_555 1_555
C7 C2 1_555 1_555
H5 C7 1_555 1_555
C8 C1 1_555 1_555
C9 C8 1_555 1_555
H6 C9 1_555 1_555
C10 C9 1_555 1_555
H7 C10 1_555 1_555
C11 C10 1_555 1_555
H8 C11 1_555 1_555
C12 C11 1_555 1_555
H9 C12 1_555 1_555
C13 C8 1_555 1_555
H10 C13 1_555 1_555
C14 O2 1_555 1_555
H11 C14 1_555 1_555
H12 C14 1_555 1_555
C15 C14 1_555 1_555
H13 C15 1_555 1_555
H14 C15 1_555 1_555
C16 C15 1_555 1_555
H15 C16 1_555 1_555
H16 C16 1_555 1_555
C17 O2 1_555 1_555
H17 C17 1_555 1_555
H18 C17 1_555 1_555
C18 O3 1_555 1_555
H19 C18 1_555 1_555
H20 C18 1_555 1_555
C19 C18 1_555 1_555
H21 C19 1_555 1_555
H22 C19 1_555 1_555
C20 C19 1_555 1_555
H23 C20 1_555 1_555
H24 C20 1_555 1_555
C21 O3 1_555 1_555
H25 C21 1_555 1_555
H26 C21 1_555 1_555
Na1A O1 1_555 1_555
O1A Na1 1_555 1_555
Na2 O2 1_555 1_555
Na2 O3 1_555 1_555
C6 C7 1_555 1_555
C12 C13 1_555 1_555
C16 C17 1_555 1_555
C20 C21 1_555 1_555

#END
