
#######################################################################
#
#                 Cambridge Crystallographic Data Centre
#                                CCDC 
#
#######################################################################
#
# If this CIF has been generated from an entry in the Cambridge 
# Structural Database, then it will include bibliographic, chemical, 
# crystal, experimental, refinement or atomic coordinate data resulting 
# from the CCDC's data processing and validation procedures.
#
#######################################################################

data_JECDUR
_symmetry_cell_setting           monoclinic
_symmetry_space_group_name_H-M   'C 2/c'
_symmetry_Int_Tables_number      15
_space_group_name_Hall           '-C 2yn'
loop_
_symmetry_equiv_pos_site_id
_symmetry_equiv_pos_as_xyz
1 x,y,z
2 1/2+x,1/2+y,z
3 -x,y,1/2-z
4 1/2-x,1/2+y,1/2-z
5 -x,-y,-z
6 1/2-x,1/2-y,-z
7 x,-y,1/2+z
8 1/2+x,1/2-y,1/2+z
_cell_length_a                   11.5724(3)
_cell_length_b                   5.4816(2)
_cell_length_c                   16.7944(4)
_cell_angle_alpha                90
_cell_angle_beta                 102.941(2)
_cell_angle_gamma                90
_cell_volume                     1038.3
loop_
_atom_site_label
_atom_site_type_symbol
_atom_site_fract_x
_atom_site_fract_y
_atom_site_fract_z
C1 C 0.6258(5) 0.4389(11) 0.3660(3)
C2 C 0.6885(7) 0.6313(14) 0.4257(6)
H1 H 0.6885 0.7726 0.3899
C3 C 0.6249(7) 0.721(2) 0.4821(7)
H2 H 0.6050 0.5828 0.5127
H3 H 0.5509 0.7888 0.4514
C4 C 0.8156(7) 0.5905(19) 0.4578(6)
H4 H 0.8546 0.5864 0.4124
H5 H 0.8263 0.4319 0.4841
O1 O 0.5144(3) 0.4247(7) 0.3519(2)
O2 O 0.6831(4) 0.3018(8) 0.3289(3)
O3 O 0.3948(5) -0.1670(8) 0.2862(3)
Cd1 Cd 0.5000 0.13981(8) 0.2500
H6 H 0.431(6) -0.298(14) 0.311(4)
H7 H 0.328(7) -0.155(11) 0.297(4)
C1E C 0.8742(5) 1.0611(11) 0.6340(3)
C2E C 0.8115(7) 0.8687(14) 0.5743(6)
H1E H 0.8115 0.7274 0.6101
C3E C 0.8751(7) 0.779(2) 0.5179(7)
H2E H 0.8950 0.9172 0.4873
H3E H 0.9491 0.7112 0.5486
C4E C 0.6844(7) 0.9095(19) 0.5422(6)
H4E H 0.6454 0.9136 0.5876
H5E H 0.6737 1.0681 0.5159
O1E O 0.9856(3) 1.0753(7) 0.6481(2)
O1B O 0.4856(3) 0.4247(7) 0.1481(2)
O2E O 0.8169(4) 1.1982(8) 0.6711(3)
O2B O 0.3169(4) 0.3018(8) 0.1711(3)
O3B O 0.6052(5) -0.1670(8) 0.2138(3)
Cd1G Cd 1.0000 1.36019(8) 0.7500
H6B H 0.569(6) -0.298(14) 0.189(4)
H7B H 0.672(7) -0.155(11) 0.203(4)
loop_
_geom_bond_atom_site_label_1
_geom_bond_atom_site_label_2
_geom_bond_site_symmetry_1
_geom_bond_site_symmetry_2
C1 C2 1_555 1_555
C2 H1 1_555 1_555
C3 C2 1_555 1_555
H2 C3 1_555 1_555
H3 C3 1_555 1_555
C4 C2 1_555 1_555
H4 C4 1_555 1_555
H5 C4 1_555 1_555
O1 C1 1_555 1_555
O2 C1 1_555 1_555
O3 Cd1 1_555 1_555
Cd1 O1 1_555 1_555
H6 O3 1_555 1_555
H7 O3 1_555 1_555
C1E C2E 1_555 1_555
C2E H1E 1_555 1_555
C3E C4 1_555 1_555
H2E C3E 1_555 1_555
H3E C3E 1_555 1_555
C4E C3 1_555 1_555
H4E C4E 1_555 1_555
H5E C4E 1_555 1_555
O1E C1E 1_555 1_555
O1B Cd1 1_555 1_555
O2E C1E 1_555 1_555
O2B Cd1 1_555 1_555
O3B Cd1 1_555 1_555
Cd1G O1E 1_555 1_555
H6B O3B 1_555 1_555
H7B O3B 1_555 1_555
O2 Cd1 1_555 1_555
C2E C3E 1_555 1_555
C2E C4E 1_555 1_555
O2E Cd1G 1_555 1_555

#END
