
#######################################################################
#
#                 Cambridge Crystallographic Data Centre
#                                CCDC 
#
#######################################################################
#
# If this CIF has been generated from an entry in the Cambridge 
# Structural Database, then it will include bibliographic, chemical, 
# crystal, experimental, refinement or atomic coordinate data resulting 
# from the CCDC's data processing and validation procedures.
#
#######################################################################

data_JECFAZ
_symmetry_cell_setting           monoclinic
_symmetry_space_group_name_H-M   'C 2/c'
_symmetry_Int_Tables_number      15
_space_group_name_Hall           '-C 2yn'
loop_
_symmetry_equiv_pos_site_id
_symmetry_equiv_pos_as_xyz
1 x,y,z
2 1/2+x,1/2+y,z
3 -x,y,1/2-z
4 1/2-x,1/2+y,1/2-z
5 -x,-y,-z
6 1/2-x,1/2-y,-z
7 x,-y,1/2+z
8 1/2+x,1/2-y,1/2+z
_cell_length_a                   17.3563(4)
_cell_length_b                   11.8464(3)
_cell_length_c                   18.3098(5)
_cell_angle_alpha                90
_cell_angle_beta                 97.1720(10)
_cell_angle_gamma                90
_cell_volume                     3735.22
loop_
_atom_site_label
_atom_site_type_symbol
_atom_site_fract_x
_atom_site_fract_y
_atom_site_fract_z
C1 C 0.2154(2) 0.4861(4) 0.5283(2)
H1 H 0.2564 0.5334 0.5455
C2 C 0.2175(3) 0.3756(4) 0.5516(2)
H2 H 0.2591 0.3485 0.5838
C3 C 0.1566(3) 0.3064(4) 0.5263(3)
H3 H 0.1565 0.2313 0.5411
C4 C 0.0960(3) 0.3482(3) 0.4791(2)
H4 H 0.0543 0.3020 0.4620
C5 C 0.0974(2) 0.4607(3) 0.4569(2)
C6 C 0.0344(2) 0.5108(3) 0.4049(2)
C7 C -0.0279(3) 0.4481(4) 0.3726(3)
H5 H -0.0319 0.3719 0.3838
C8 C -0.0844(3) 0.4994(5) 0.3236(3)
H6 H -0.1258 0.4576 0.3006
C9 C -0.0787(3) 0.6123(4) 0.3094(3)
H7 H -0.1163 0.6488 0.2771
C10 C -0.0159(3) 0.6703(4) 0.3441(3)
H8 H -0.0122 0.7472 0.3349
C11 C 0.1416(3) 0.8638(4) 0.3262(2)
C12 C 0.1316(4) 0.9412(4) 0.2588(3)
H9 H 0.0822 0.9158 0.2321
C13 C 0.1181(4) 1.0579(5) 0.2705(3)
H10 H 0.1609 1.0869 0.3045
H11 H 0.0714 1.0649 0.2943
C14 C 0.1891(3) 0.9157(4) 0.2056(3)
H12 H 0.1823 0.8380 0.1892
H13 H 0.2414 0.9231 0.2311
C15 C 0.1804(5) 0.9927(5) 0.1390(3)
H14 H 0.2287 0.9904 0.1175
H15 H 0.1405 0.9610 0.1030
C16 C 0.1092(4) 1.1319(4) 0.2026(3)
H16 H 0.0564 1.1246 0.1786
H17 H 0.1166 1.2098 0.2181
C17 C 0.1616(3) 1.1076(5) 0.1492(3)
H18 H 0.2108 1.1385 0.1729
C18 C 0.1486(2) 1.1741(3) 0.0780(2)
N1 N 0.15669(17) 0.5284(3) 0.48186(17)
N2 N 0.03996(18) 0.6217(3) 0.39048(17)
O1 O 0.1115(2) 0.8912(3) 0.38145(16)
O2 O 0.1752(2) 0.7711(3) 0.32332(18)
O3 O 0.08368(17) 1.2100(2) 0.05209(18)
O4 O 0.20694(15) 1.1915(3) 0.04472(15)
Cd1 Cd 0.153371(15) 0.71639(2) 0.442139(13)
O3F O 0.08368(17) 0.7900(2) 0.55209(18)
O4F O 0.20694(15) 0.8085(3) 0.54472(15)
O4C O 0.29306(15) 0.6915(3) 0.45528(15)
Cd1F Cd 0.153371(15) 1.28361(2) -0.057861(13)
Cd1C Cd 0.346629(15) 1.21639(2) 0.057861(13)
O5 O 0.0693(3) 1.0795(4) 0.4635(4)
H19 H 0.078(3) 1.015(6) 0.428(3)
H20 H 0.040(3) 1.051(5) 0.480(3)
loop_
_geom_bond_atom_site_label_1
_geom_bond_atom_site_label_2
_geom_bond_site_symmetry_1
_geom_bond_site_symmetry_2
C1 H1 1_555 1_555
C2 C1 1_555 1_555
H2 C2 1_555 1_555
C3 C2 1_555 1_555
H3 C3 1_555 1_555
C4 C3 1_555 1_555
H4 C4 1_555 1_555
C5 C4 1_555 1_555
C6 C5 1_555 1_555
C7 C6 1_555 1_555
H5 C7 1_555 1_555
C8 C7 1_555 1_555
H6 C8 1_555 1_555
C9 C8 1_555 1_555
H7 C9 1_555 1_555
C10 C9 1_555 1_555
H8 C10 1_555 1_555
C11 C12 1_555 1_555
C12 H9 1_555 1_555
C13 C12 1_555 1_555
H10 C13 1_555 1_555
H11 C13 1_555 1_555
C14 C12 1_555 1_555
H12 C14 1_555 1_555
H13 C14 1_555 1_555
C15 C14 1_555 1_555
H14 C15 1_555 1_555
H15 C15 1_555 1_555
C16 C13 1_555 1_555
H16 C16 1_555 1_555
H17 C16 1_555 1_555
C17 C15 1_555 1_555
H18 C17 1_555 1_555
C18 C17 1_555 1_555
N1 C1 1_555 1_555
N2 C6 1_555 1_555
O1 C11 1_555 1_555
O2 C11 1_555 1_555
O3 C18 1_555 1_555
O4 C18 1_555 1_555
O5 H19 1_555 1_555
Cd1 N1 1_555 1_555
H20 O5 1_555 1_555
O3F Cd1 1_555 1_555
O4F Cd1 1_555 1_555
O4C Cd1 1_555 1_555
Cd1F O3 1_555 1_555
Cd1C O4 1_555 1_555
C5 N1 1_555 1_555
C10 N2 1_555 1_555
C16 C17 1_555 1_555
N2 Cd1 1_555 1_555
O1 Cd1 1_555 1_555
O2 Cd1 1_555 1_555
O4 Cd1F 1_555 1_555

#END
