
#######################################################################
#
#                 Cambridge Crystallographic Data Centre
#                                CCDC 
#
#######################################################################
#
# If this CIF has been generated from an entry in the Cambridge 
# Structural Database, then it will include bibliographic, chemical, 
# crystal, experimental, refinement or atomic coordinate data resulting 
# from the CCDC's data processing and validation procedures.
#
#######################################################################

data_JECFON
_symmetry_cell_setting           orthorhombic
_symmetry_space_group_name_H-M   'P c c n'
_symmetry_Int_Tables_number      56
_space_group_name_Hall           '-P 2ab 2ac'
loop_
_symmetry_equiv_pos_site_id
_symmetry_equiv_pos_as_xyz
1 x,y,z
2 1/2-x,1/2-y,z
3 -x,1/2+y,1/2-z
4 1/2+x,-y,1/2-z
5 -x,-y,-z
6 1/2+x,1/2+y,-z
7 x,1/2-y,1/2+z
8 1/2-x,y,1/2+z
_cell_length_a                   13.151
_cell_length_b                   20.4388(4)
_cell_length_c                   8.5602(2)
_cell_angle_alpha                90
_cell_angle_beta                 90
_cell_angle_gamma                90
_cell_volume                     2300.9
loop_
_atom_site_label
_atom_site_type_symbol
_atom_site_fract_x
_atom_site_fract_y
_atom_site_fract_z
C1 C 0.5226(4) 0.4108(2) 0.2132(5)
C2 C 0.4460(4) 0.3747(2) 0.3149(5)
H1 H 0.3845 0.3675 0.2526
C3 C 0.4827(4) 0.3087(2) 0.3736(6)
H2 H 0.5434 0.3145 0.4364
H3 H 0.5000 0.2810 0.2854
C4 C 0.4003(4) 0.2758(3) 0.4711(6)
H4 H 0.4250 0.2341 0.5093
H5 H 0.3410 0.2678 0.4066
C5 C 0.3707(4) 0.3194(2) 0.6097(6)
H6 H 0.3157 0.2987 0.6671
H7 H 0.4283 0.3234 0.6797
C6 C 0.4177(3) 0.4191(2) 0.4525(5)
H8 H 0.3912 0.4602 0.4129
H9 H 0.4782 0.4286 0.5133
C7 C 0.3374(3) 0.3867(2) 0.5585(5)
H10 H 0.2746 0.3819 0.4978
C8 C 0.3156(3) 0.4325(2) 0.6941(5)
O1 O 0.4906(2) 0.44879(18) 0.1092(4)
O2 O 0.6164(3) 0.40444(19) 0.2372(4)
O3 O 0.3740(2) 0.42958(17) 0.8134(4)
O4 O 0.2439(3) 0.47222(17) 0.6868(4)
O5 O 0.2111(3) 0.5820(2) -0.0237(4)
O6 O 0.4068(3) 0.5892(2) 0.1859(5)
Cd1 Cd 0.35361(3) 0.511545(18) -0.01310(4)
H11 H 0.182(4) 0.585(3) 0.064(4)
H12 H 0.181(4) 0.587(3) -0.111(3)
H13 H 0.379(4) 0.6265(13) 0.176(7)
H14 H 0.4713(4) 0.587(3) 0.185(7)
O1D O 0.5094(2) 0.55121(18) -0.1092(4)
O2D O 0.3836(3) 0.59556(19) -0.2372(4)
O3_2 O 0.3740(2) 0.42958(17) -0.1866(4)
O4G O 0.2561(3) 0.47222(17) 0.1868(4)
Cd1D Cd 0.64639(3) 0.488455(18) 0.01310(4)
Cd1_2 Cd 0.35361(3) 0.511545(18) 0.98690(4)
Cd1G Cd 0.14639(3) 0.511545(18) 0.48690(4)
O7 O 0.3097(9) 0.7071(5) 0.0058(16)
O8 O 0.2747(9) 0.7030(5) 0.2352(14)
loop_
_geom_bond_atom_site_label_1
_geom_bond_atom_site_label_2
_geom_bond_site_symmetry_1
_geom_bond_site_symmetry_2
C1 C2 1_555 1_555
C2 H1 1_555 1_555
C3 C2 1_555 1_555
H2 C3 1_555 1_555
H3 C3 1_555 1_555
C4 C3 1_555 1_555
H4 C4 1_555 1_555
H5 C4 1_555 1_555
C5 C4 1_555 1_555
H6 C5 1_555 1_555
H7 C5 1_555 1_555
C6 C2 1_555 1_555
H8 C6 1_555 1_555
H9 C6 1_555 1_555
C7 C5 1_555 1_555
H10 C7 1_555 1_555
C8 C7 1_555 1_555
O1 C1 1_555 1_555
O2 C1 1_555 1_555
O3 C8 1_555 1_555
O4 C8 1_555 1_555
O5 Cd1 1_555 1_555
O6 Cd1 1_555 1_555
Cd1 O1 1_555 1_555
H11 O5 1_555 1_555
H12 O5 1_555 1_555
H13 O6 1_555 1_555
H14 O6 1_555 1_555
O1D Cd1 1_555 1_555
O2D Cd1 1_555 1_555
O3_2 Cd1 1_555 1_555
O4G Cd1 1_555 1_555
Cd1D O1 1_555 1_555
Cd1_2 O3 1_555 1_555
Cd1G O4 1_555 1_555
C6 C7 1_555 1_555
O2 Cd1D 1_555 1_555
O1D Cd1D 1_555 1_555

#END
