
#######################################################################
#
#                 Cambridge Crystallographic Data Centre
#                                CCDC 
#
#######################################################################
#
# If this CIF has been generated from an entry in the Cambridge 
# Structural Database, then it will include bibliographic, chemical, 
# crystal, experimental, refinement or atomic coordinate data resulting 
# from the CCDC's data processing and validation procedures.
#
#######################################################################

data_JECFUT
_symmetry_cell_setting           monoclinic
_symmetry_space_group_name_H-M   'P 21/n'
_symmetry_Int_Tables_number      14
_space_group_name_Hall           '-P 2yn'
loop_
_symmetry_equiv_pos_site_id
_symmetry_equiv_pos_as_xyz
1 x,y,z
2 1/2-x,1/2+y,1/2-z
3 -x,-y,-z
4 1/2+x,1/2-y,1/2+z
_cell_length_a                   11.6099(2)
_cell_length_b                   17.0455(2)
_cell_length_c                   18.5687(2)
_cell_angle_alpha                90
_cell_angle_beta                 104.89
_cell_angle_gamma                90
_cell_volume                     3551.29
loop_
_atom_site_label
_atom_site_type_symbol
_atom_site_fract_x
_atom_site_fract_y
_atom_site_fract_z
C1 C -0.4762(7) 0.2311(5) 0.0733(5)
H1 H -0.4667 0.2125 0.1216
C2 C -0.5817(7) 0.2123(5) 0.0192(5)
H2 H -0.6417 0.1841 0.0324
C3 C -0.5952(7) 0.2353(5) -0.0516(5)
H3 H -0.6633 0.2213 -0.0881
C4 C -0.5060(6) 0.2807(4) -0.0703(4)
C5 C -0.5139(8) 0.3079(5) -0.1441(4)
H4 H -0.5811 0.2958 -0.1820
C6 C -0.4282(7) 0.3499(5) -0.1596(4)
H5 H -0.4345 0.3650 -0.2086
C7 C -0.3241(6) 0.3731(4) -0.1017(4)
C8 C -0.2345(8) 0.4204(5) -0.1163(4)
H6 H -0.2392 0.4378 -0.1644
C9 C -0.1396(7) 0.4407(5) -0.0585(5)
H7 H -0.0790 0.4722 -0.0669
C10 C -0.1350(6) 0.4134(4) 0.0135(4)
H8 H -0.0708 0.4283 0.0524
C11 C -0.3123(5) 0.3478(4) -0.0282(3)
C12 C -0.4046(5) 0.2992(4) -0.0120(3)
C13 C -0.0707(6) 0.2277(4) -0.0545(4)
H9 H -0.1145 0.1949 -0.0316
C14 C -0.1085(8) 0.2377(5) -0.1315(5)
H10 H -0.1776 0.2133 -0.1589
C15 C -0.0432(8) 0.2835(6) -0.1664(5)
H11 H -0.0661 0.2893 -0.2179
C16 C 0.0581(7) 0.3215(4) -0.1245(4)
C17 C 0.1289(9) 0.3728(5) -0.1570(5)
H12 H 0.1086 0.3801 -0.2084
C18 C 0.2238(9) 0.4104(5) -0.1147(5)
H13 H 0.2676 0.4439 -0.1370
C19 C 0.2585(7) 0.3997(4) -0.0360(5)
C20 C 0.3617(7) 0.4351(5) 0.0107(6)
H14 H 0.4079 0.4689 -0.0095
C21 C 0.3922(7) 0.4199(5) 0.0833(6)
H15 H 0.4608 0.4422 0.1137
C22 C 0.3212(6) 0.3703(5) 0.1143(5)
H16 H 0.3434 0.3609 0.1653
C23 C 0.1931(5) 0.3491(4) -0.0014(4)
C24 C 0.0900(6) 0.3103(4) -0.0466(4)
C25 C -0.1336(7) 0.1536(4) 0.1499(4)
C26 C -0.1012(10) 0.0694(5) 0.1558(5)
H17 H -0.0170 0.0683 0.1833
C27 C -0.1049(13) 0.0321(5) 0.0836(6)
H18 H -0.1836 0.0399 0.0507
H19 H -0.0483 0.0587 0.0616
C28 C -0.0781(12) -0.0519(6) 0.0873(6)
H20 H 0.0066 -0.0593 0.1089
H21 H -0.0974 -0.0732 0.0372
C29 C -0.1468(13) -0.0963(5) 0.1331(6)
H22 H -0.2297 -0.0995 0.1053
H23 H -0.1159 -0.1493 0.1410
C30 C -0.1651(9) 0.0232(5) 0.2036(5)
H24 H -0.1413 0.0431 0.2542
H25 H -0.2503 0.0314 0.1850
C31 C -0.1405(12) -0.0606(5) 0.2047(5)
H26 H -0.0557 -0.0640 0.2306
C32 C -0.2015(8) -0.1042(5) 0.2562(5)
C33 C 0.0774(7) 0.3616(5) 0.2230(4)
C34 C 0.0770(13) 0.4208(8) 0.2823(6)
H27 H 0.0037 0.4493 0.2588
C35 C 0.0499(15) 0.3955(10) 0.3466(9)
H28 H 0.1039 0.3528 0.3667
H29 H -0.0297 0.3734 0.3323
C36 C 0.1608(10) 0.4804(6) 0.2856(6)
H30 H 0.1366 0.5108 0.2400
H31 H 0.2365 0.4560 0.2860
C37 C 0.0539(13) 0.4533(9) 0.4096(9)
H32 H -0.0226 0.4794 0.4015
H33 H 0.0687 0.4251 0.4565
C38 C 0.1810(13) 0.5359(9) 0.3497(8)
H34 H 0.1070 0.5649 0.3292
C39 C 0.1476(14) 0.5121(9) 0.4138(8)
H35 H 0.1236 0.5588 0.4359
H36 H 0.2189 0.4925 0.4488
C40 C 0.2567(7) 0.6037(5) 0.3500(5)
N1 N -0.3901(5) 0.2738(3) 0.0585(3)
N2 N -0.2174(4) 0.3678(3) 0.0285(3)
N3 N 0.0254(5) 0.2631(3) -0.0124(3)
N4 N 0.2235(5) 0.3364(3) 0.0732(3)
O1 O -0.2061(6) 0.1800(3) 0.1813(3)
O2 O -0.0826(5) 0.1981(3) 0.1128(4)
O3 O -0.2490(8) -0.1688(4) 0.2386(4)
O4 O -0.1916(5) -0.0770(3) 0.3199(3)
O5 O 0.1613(6) 0.3153(4) 0.2261(3)
O6 O -0.0116(5) 0.3573(4) 0.1703(3)
O7 O 0.2820(8) 0.6231(6) 0.2947(4)
O8 O 0.2930(6) 0.6412(4) 0.4096(4)
Cd1 Cd -0.20940(4) 0.31193(3) 0.14629(3)
Cd2 Cd 0.10476(4) 0.24220(3) 0.11886(3)
O3A O -0.2510(8) 0.3312(4) 0.2614(4)
O4A O -0.3084(5) 0.4230(3) 0.1801(3)
O7A O 0.2180(8) 0.1231(6) 0.2053(4)
O8A O 0.2070(6) 0.1412(4) 0.0904(4)
Cd1A Cd -0.29060(4) -0.18807(3) 0.35371(3)
Cd2A Cd 0.39524(4) 0.74220(3) 0.38114(3)
loop_
_geom_bond_atom_site_label_1
_geom_bond_atom_site_label_2
_geom_bond_site_symmetry_1
_geom_bond_site_symmetry_2
C1 H1 1_555 1_555
C2 C1 1_555 1_555
H2 C2 1_555 1_555
C3 C2 1_555 1_555
H3 C3 1_555 1_555
C4 C3 1_555 1_555
C5 C4 1_555 1_555
H4 C5 1_555 1_555
C6 C5 1_555 1_555
H5 C6 1_555 1_555
C7 C6 1_555 1_555
C8 C7 1_555 1_555
H6 C8 1_555 1_555
C9 C8 1_555 1_555
H7 C9 1_555 1_555
C10 C9 1_555 1_555
H8 C10 1_555 1_555
C11 C7 1_555 1_555
C12 C4 1_555 1_555
C13 H9 1_555 1_555
C14 C13 1_555 1_555
H10 C14 1_555 1_555
C15 C14 1_555 1_555
H11 C15 1_555 1_555
C16 C15 1_555 1_555
C17 C16 1_555 1_555
H12 C17 1_555 1_555
C18 C17 1_555 1_555
H13 C18 1_555 1_555
C19 C18 1_555 1_555
C20 C19 1_555 1_555
H14 C20 1_555 1_555
C21 C20 1_555 1_555
H15 C21 1_555 1_555
C22 C21 1_555 1_555
H16 C22 1_555 1_555
C23 C19 1_555 1_555
C24 C16 1_555 1_555
C25 C26 1_555 1_555
C26 H17 1_555 1_555
C27 C26 1_555 1_555
H18 C27 1_555 1_555
H19 C27 1_555 1_555
C28 C27 1_555 1_555
H20 C28 1_555 1_555
H21 C28 1_555 1_555
C29 C28 1_555 1_555
H22 C29 1_555 1_555
H23 C29 1_555 1_555
C30 C26 1_555 1_555
H24 C30 1_555 1_555
H25 C30 1_555 1_555
C31 C29 1_555 1_555
H26 C31 1_555 1_555
C32 C31 1_555 1_555
C33 C34 1_555 1_555
C34 H27 1_555 1_555
C35 C34 1_555 1_555
H28 C35 1_555 1_555
H29 C35 1_555 1_555
C36 C34 1_555 1_555
H30 C36 1_555 1_555
H31 C36 1_555 1_555
C37 C35 1_555 1_555
H32 C37 1_555 1_555
H33 C37 1_555 1_555
C38 C36 1_555 1_555
H34 C38 1_555 1_555
C39 C37 1_555 1_555
H35 C39 1_555 1_555
H36 C39 1_555 1_555
C40 C38 1_555 1_555
N1 C1 1_555 1_555
N2 C10 1_555 1_555
N3 C13 1_555 1_555
N4 C22 1_555 1_555
O1 C25 1_555 1_555
O2 C25 1_555 1_555
O3 C32 1_555 1_555
O4 C32 1_555 1_555
O5 C33 1_555 1_555
O6 C33 1_555 1_555
O7 C40 1_555 1_555
O8 C40 1_555 1_555
Cd1 N1 1_555 1_555
Cd2 N3 1_555 1_555
O3A Cd1 1_555 1_555
O4A Cd1 1_555 1_555
O7A Cd2 1_555 1_555
O8A Cd2 1_555 1_555
Cd1A O3 1_555 1_555
Cd2A O7 1_555 1_555
C11 C12 1_555 1_555
C11 N2 1_555 1_555
C12 N1 1_555 1_555
C23 C24 1_555 1_555
C23 N4 1_555 1_555
C24 N3 1_555 1_555
C30 C31 1_555 1_555
C38 C39 1_555 1_555
N2 Cd1 1_555 1_555
N4 Cd2 1_555 1_555
O1 Cd1 1_555 1_555
O2 Cd1 1_555 1_555
O2 Cd2 1_555 1_555
O4 Cd1A 1_555 1_555
O5 Cd2 1_555 1_555
O6 Cd1 1_555 1_555
O6 Cd2 1_555 1_555
O8 Cd2A 1_555 1_555

#END
