
#######################################################################
#
#                 Cambridge Crystallographic Data Centre
#                                CCDC 
#
#######################################################################
#
# If this CIF has been generated from an entry in the Cambridge 
# Structural Database, then it will include bibliographic, chemical, 
# crystal, experimental, refinement or atomic coordinate data resulting 
# from the CCDC's data processing and validation procedures.
#
#######################################################################

data_JECFED
_symmetry_cell_setting           triclinic
_symmetry_space_group_name_H-M   'P -1'
_symmetry_Int_Tables_number      2
_space_group_name_Hall           '-P 1'
loop_
_symmetry_equiv_pos_site_id
_symmetry_equiv_pos_as_xyz
1 x,y,z
2 -x,-y,-z
_cell_length_a                   8.9419(2)
_cell_length_b                   11.9987(3)
_cell_length_c                   12.4863(2)
_cell_angle_alpha                102.4650(10)
_cell_angle_beta                 91.7580(10)
_cell_angle_gamma                111.7710(10)
_cell_volume                     1205.7
loop_
_atom_site_label
_atom_site_type_symbol
_atom_site_fract_x
_atom_site_fract_y
_atom_site_fract_z
C1 C 0.0048(4) 0.3952(3) -0.2867(3)
H1 H -0.0401 0.3363 -0.3531
C2 C -0.0180(4) 0.5069(4) -0.2694(4)
H2 H -0.0785 0.5207 -0.3233
C3 C 0.0481(4) 0.5941(3) -0.1745(4)
H3 H 0.0344 0.6688 -0.1629
C4 C 0.1376(4) 0.5723(3) -0.0931(3)
C5 C 0.2126(5) 0.6601(3) 0.0106(3)
H4 H 0.2006 0.7355 0.0260
C6 C 0.2984(5) 0.6361(3) 0.0849(3)
H5 H 0.3475 0.6960 0.1502
C7 C 0.3171(4) 0.5193(3) 0.0665(3)
C8 C 0.4052(4) 0.4900(3) 0.1417(2)
H6 H 0.4590 0.5482 0.2070
C9 C 0.4129(4) 0.3769(3) 0.1200(3)
H7 H 0.4672 0.3552 0.1715
C10 C 0.3379(4) 0.2931(3) 0.0188(2)
H8 H 0.3450 0.2160 0.0041
C11 C 0.2437(3) 0.4297(2) -0.0342(2)
C12 C 0.1537(3) 0.4570(2) -0.1160(2)
C13 C 0.2394(3) -0.0158(2) -0.2809(2)
C14 C 0.2901(3) -0.1242(3) -0.2911(3)
H9 H 0.1901 -0.1981 -0.3004
C15 C 0.3941(4) -0.1196(3) -0.1905(4)
H10 H 0.3958 -0.2010 -0.1958
H11 H 0.3454 -0.0988 -0.1247
C16 C 0.5678(3) -0.0256(3) -0.1789(2)
H12 H 0.5678 0.0572 -0.1619
H13 H 0.6309 -0.0322 -0.1177
C17 C 0.3724(4) -0.1438(4) -0.3936(3)
H14 H 0.3084 -0.1415 -0.4565
H15 H 0.3775 -0.2250 -0.4076
C18 C 0.5442(4) -0.0453(4) -0.3816(3)
H16 H 0.5935 -0.0617 -0.4482
H17 H 0.5390 0.0355 -0.3725
C19 C 0.6473(3) -0.0449(3) -0.2831(2)
H18 H 0.6476 -0.1284 -0.2958
C20 C 0.8230(3) 0.0430(2) -0.2698(2)
C21 C 0.2904(3) 0.2741(2) -0.4411(2)
C22 C 0.3977(3) 0.3727(2) -0.4966(2)
H19 H 0.3934 0.3324 -0.5744
C23 C 0.5748(3) 0.4325(2) -0.4468(2)
H20 H 0.6193 0.3693 -0.4520
H21 H 0.5825 0.4720 -0.3692
C24 C 0.3266(3) 0.4710(2) -0.4927(2)
H22 H 0.2149 0.4320 -0.5270
H23 H 0.3275 0.5115 -0.4163
N1 N 0.0879(3) 0.3705(2) -0.2121(2)
N2 N 0.2574(3) 0.3184(2) -0.05669(18)
O1 O 0.2660(3) 0.0597(2) -0.18960(19)
O2 O 0.1689(3) -0.0041(2) -0.3618(2)
O3 O 0.9046(2) 0.0802(2) -0.17742(18)
O4 O 0.8864(2) 0.07874(18) -0.35212(16)
O5 O 0.3300(2) 0.28384(17) -0.34195(16)
O6 O 0.1651(2) 0.19301(17) -0.50069(17)
Cd1 Cd 0.0000 0.0000 -0.5000
Cd2 Cd 0.15146(2) 0.191970(16) -0.233470(15)
C1A C -0.0048(4) -0.3952(3) -0.7133(3)
H1A H 0.0401 -0.3363 -0.6469
C2A C 0.0180(4) -0.5069(4) -0.7306(4)
H2A H 0.0785 -0.5207 -0.6767
C3A C -0.0481(4) -0.5941(3) -0.8255(4)
H3A H -0.0344 -0.6688 -0.8371
C4A C -0.1376(4) -0.5723(3) -0.9069(3)
C5A C -0.2126(5) -0.6601(3) -1.0106(3)
H4A H -0.2006 -0.7355 -1.0260
C6A C -0.2984(5) -0.6361(3) -1.0849(3)
H5A H -0.3475 -0.6960 -1.1502
C7A C -0.3171(4) -0.5193(3) -1.0665(3)
C8A C -0.4052(4) -0.4900(3) -1.1417(2)
H6A H -0.4590 -0.5482 -1.2070
C9A C -0.4129(4) -0.3769(3) -1.1200(3)
H7A H -0.4672 -0.3552 -1.1715
C10A C -0.3379(4) -0.2931(3) -1.0188(2)
H8A H -0.3450 -0.2160 -1.0041
C11A C -0.2437(3) -0.4297(2) -0.9658(2)
C12A C -0.1537(3) -0.4570(2) -0.8840(2)
C13A C -0.2394(3) 0.0158(2) -0.7191(2)
C14A C -0.2901(3) 0.1242(3) -0.7089(3)
H9A H -0.1901 0.1981 -0.6996
C15A C -0.3941(4) 0.1196(3) -0.8095(4)
H10A H -0.3958 0.2010 -0.8042
H11A H -0.3454 0.0988 -0.8753
C16A C -0.5678(3) 0.0256(3) -0.8211(2)
H12A H -0.5678 -0.0572 -0.8381
H13A H -0.6309 0.0322 -0.8823
C17A C -0.3724(4) 0.1438(4) -0.6064(3)
H14A H -0.3084 0.1415 -0.5435
H15A H -0.3775 0.2250 -0.5924
C18A C -0.5442(4) 0.0453(4) -0.6184(3)
H16A H -0.5935 0.0617 -0.5518
H17A H -0.5390 -0.0355 -0.6275
C19A C -0.6473(3) 0.0449(3) -0.7169(2)
H18A H -0.6476 0.1284 -0.7042
C20A C -0.8230(3) -0.0430(2) -0.7302(2)
C21A C 0.7096(3) 0.7259(2) -0.5589(2)
C22A C 0.6023(3) 0.6273(2) -0.5034(2)
H19A H 0.6066 0.6676 -0.4256
C23A C 0.4252(3) 0.5675(2) -0.5532(2)
H20A H 0.3807 0.6307 -0.5480
H21A H 0.4175 0.5280 -0.6308
C24A C 0.6734(3) 0.5290(2) -0.5073(2)
H22A H 0.7851 0.5680 -0.4730
H23A H 0.6725 0.4885 -0.5837
N1A N -0.0879(3) -0.3705(2) -0.7879(2)
N2A N -0.2574(3) -0.3184(2) -0.94331(18)
O1A O -0.2660(3) -0.0597(2) -0.81040(19)
O2A O -0.1689(3) 0.0041(2) -0.6382(2)
O3_2 O -0.0954(2) 0.0802(2) -0.17742(18)
O3A O 0.0954(2) -0.0802(2) -0.82258(18)
O3A_2 O -0.9046(2) -0.0802(2) -0.82258(18)
O4A O 0.1136(2) -0.07874(18) -0.64788(16)
O4_2 O -0.1136(2) 0.07874(18) -0.35212(16)
O4A_2 O -0.8864(2) -0.07874(18) -0.64788(16)
O5A O 0.6700(2) 0.71616(17) -0.65805(16)
O5A_2 O -0.3300(2) -0.28384(17) -0.65805(16)
O6A O 0.8349(2) 0.80699(17) -0.49931(17)
O6A_2 O -0.1651(2) -0.19301(17) -0.49931(17)
Cd1_2 Cd 1.0000 0.0000 -0.5000
Cd1_3 Cd 1.0000 1.0000 -0.5000
Cd1_4 Cd -1.0000 0.0000 -0.5000
Cd2_2 Cd 1.15146(2) 0.191970(16) -0.233470(15)
Cd2A Cd -0.15146(2) -0.191970(16) -0.766530(15)
Cd2A_2 Cd 0.84854(2) 0.808030(16) -0.766530(15)
Cd2A_3 Cd -1.15146(2) -0.191970(16) -0.766530(15)
O7 O 0.1351(4) 0.2435(3) -0.7249(3)
O8 O -0.0512(4) 0.1076(3) 0.0582(2)
loop_
_geom_bond_atom_site_label_1
_geom_bond_atom_site_label_2
_geom_bond_site_symmetry_1
_geom_bond_site_symmetry_2
C1 H1 1_555 1_555
C2 C1 1_555 1_555
H2 C2 1_555 1_555
C3 C2 1_555 1_555
H3 C3 1_555 1_555
C4 C3 1_555 1_555
C5 C4 1_555 1_555
H4 C5 1_555 1_555
C6 C5 1_555 1_555
H5 C6 1_555 1_555
C7 C6 1_555 1_555
C8 C7 1_555 1_555
H6 C8 1_555 1_555
C9 C8 1_555 1_555
H7 C9 1_555 1_555
C10 C9 1_555 1_555
H8 C10 1_555 1_555
C11 C7 1_555 1_555
C12 C4 1_555 1_555
C13 C14 1_555 1_555
C14 H9 1_555 1_555
C15 C14 1_555 1_555
H10 C15 1_555 1_555
H11 C15 1_555 1_555
C16 C15 1_555 1_555
H12 C16 1_555 1_555
H13 C16 1_555 1_555
C17 C14 1_555 1_555
H14 C17 1_555 1_555
H15 C17 1_555 1_555
C18 C17 1_555 1_555
H16 C18 1_555 1_555
H17 C18 1_555 1_555
C19 C16 1_555 1_555
H18 C19 1_555 1_555
C20 C19 1_555 1_555
C21 C22 1_555 1_555
C22 H19 1_555 1_555
C23 C22 1_555 1_555
H20 C23 1_555 1_555
H21 C23 1_555 1_555
C24 C22 1_555 1_555
H22 C24 1_555 1_555
H23 C24 1_555 1_555
N1 C1 1_555 1_555
N2 C10 1_555 1_555
O1 C13 1_555 1_555
O2 C13 1_555 1_555
O3 C20 1_555 1_555
O4 C20 1_555 1_555
O5 C21 1_555 1_555
O6 C21 1_555 1_555
Cd1 O2 1_555 1_555
Cd2 N1 1_555 1_555
C1A H1A 1_555 1_555
C2A C1A 1_555 1_555
H2A C2A 1_555 1_555
C3A C2A 1_555 1_555
H3A C3A 1_555 1_555
C4A C3A 1_555 1_555
C5A C4A 1_555 1_555
H4A C5A 1_555 1_555
C6A C5A 1_555 1_555
H5A C6A 1_555 1_555
C7A C6A 1_555 1_555
C8A C7A 1_555 1_555
H6A C8A 1_555 1_555
C9A C8A 1_555 1_555
H7A C9A 1_555 1_555
C10A C9A 1_555 1_555
H8A C10A 1_555 1_555
C11A C7A 1_555 1_555
C12A C4A 1_555 1_555
C13A C14A 1_555 1_555
C14A H9A 1_555 1_555
C15A C14A 1_555 1_555
H10A C15A 1_555 1_555
H11A C15A 1_555 1_555
C16A C15A 1_555 1_555
H12A C16A 1_555 1_555
H13A C16A 1_555 1_555
C17A C14A 1_555 1_555
H14A C17A 1_555 1_555
H15A C17A 1_555 1_555
C18A C17A 1_555 1_555
H16A C18A 1_555 1_555
H17A C18A 1_555 1_555
C19A C16A 1_555 1_555
H18A C19A 1_555 1_555
C20A C19A 1_555 1_555
C21A C22A 1_555 1_555
C22A H19A 1_555 1_555
C23A C24 1_555 1_555
H20A C23A 1_555 1_555
H21A C23A 1_555 1_555
C24A C23 1_555 1_555
H22A C24A 1_555 1_555
H23A C24A 1_555 1_555
N1A C1A 1_555 1_555
N2A C10A 1_555 1_555
O1A C13A 1_555 1_555
O2A Cd1 1_555 1_555
O3_2 Cd2 1_555 1_555
O3A Cd2A 1_555 1_555
O3A_2 C20A 1_555 1_555
O4A Cd1 1_555 1_555
O4_2 Cd1 1_555 1_555
O4A_2 C20A 1_555 1_555
O5A C21A 1_555 1_555
O5A_2 Cd2A 1_555 1_555
O6A C21A 1_555 1_555
O6A_2 Cd1 1_555 1_555
Cd1_2 O4 1_555 1_555
Cd1_3 O6A 1_555 1_555
Cd1_4 O4A_2 1_555 1_555
Cd2_2 O3 1_555 1_555
Cd2A N1A 1_555 1_555
Cd2A_2 O5A 1_555 1_555
Cd2A_3 O3A_2 1_555 1_555
C11 C12 1_555 1_555
C11 N2 1_555 1_555
C12 N1 1_555 1_555
C18 C19 1_555 1_555
N2 Cd2 1_555 1_555
O1 Cd2 1_555 1_555
O2 Cd2 1_555 1_555
O4 Cd2_2 1_555 1_555
O5 Cd2 1_555 1_555
O6 Cd1 1_555 1_555
Cd2 O4_2 1_555 1_555
C11A C12A 1_555 1_555
C11A N2A 1_555 1_555
C12A N1A 1_555 1_555
C13A O2A 1_555 1_555
C18A C19A 1_555 1_555
C22A C23A 1_555 1_555
C22A C24A 1_555 1_555
N2A Cd2A 1_555 1_555
O1A Cd2A 1_555 1_555
O2A Cd2A 1_555 1_555
O4A Cd2A 1_555 1_555
O4A_2 Cd2A_3 1_555 1_555

#END
