
#######################################################################
#
#                 Cambridge Crystallographic Data Centre
#                                CCDC 
#
#######################################################################
#
# If this CIF has been generated from an entry in the Cambridge 
# Structural Database, then it will include bibliographic, chemical, 
# crystal, experimental, refinement or atomic coordinate data resulting 
# from the CCDC's data processing and validation procedures.
#
#######################################################################

data_JECSEQ
_symmetry_cell_setting           monoclinic
_symmetry_space_group_name_H-M   'P 21/c'
_symmetry_Int_Tables_number      14
_space_group_name_Hall           '-P 2ybc'
loop_
_symmetry_equiv_pos_site_id
_symmetry_equiv_pos_as_xyz
1 x,y,z
2 -x,1/2+y,1/2-z
3 -x,-y,-z
4 x,1/2-y,1/2+z
_cell_length_a                   16.775(2)
_cell_length_b                   7.5581(10)
_cell_length_c                   18.294(3)
_cell_angle_alpha                90
_cell_angle_beta                 96.568(2)
_cell_angle_gamma                90
_cell_volume                     2304.22
loop_
_atom_site_label
_atom_site_type_symbol
_atom_site_fract_x
_atom_site_fract_y
_atom_site_fract_z
Cd1 Cd 0.5000 1.0000 0.0000
Br1 Br 0.125864(18) 0.64322(5) 0.13679(2)
F1 F 0.96081(10) 1.3040(2) 0.06466(10)
F2 F 1.06420(10) 1.3114(2) -0.03615(10)
O1 O 0.47319(11) 1.1503(3) 0.11072(10)
O2 O 0.52812(12) 1.3828(3) 0.06951(10)
O3 O 0.48956(13) 1.3856(3) 0.17745(11)
N1 N 0.63529(12) 0.9719(3) 0.04257(12)
N2 N 0.49701(12) 1.3072(3) 0.11873(12)
N3 N 0.47188(14) 0.7663(3) 0.07938(15)
C1 C 0.66512(15) 1.0290(3) 0.10976(15)
H1 H 0.6286 1.0651 0.1429
C2 C 0.68835(15) 0.9237(4) -0.00316(15)
H2 H 0.6688 0.8839 -0.0511
C3 C 0.74588(15) 1.0376(3) 0.13289(14)
H3 H 0.7641 1.0786 0.1810
C4 C 0.76996(15) 0.9293(4) 0.01634(15)
H4 H 0.8053 0.8940 -0.0180
C5 C 0.80068(15) 0.9862(4) 0.08565(14)
C6 C 0.88973(15) 0.9903(4) 0.11285(15)
H5 H 0.9004 1.0953 0.1448
H6 H 0.9028 0.8842 0.1436
C7 C 0.94551(14) 0.9960(4) 0.05393(15)
C8 C 0.97975(16) 1.1505(4) 0.03322(16)
C9 C 1.03265(15) 1.1537(4) -0.01874(16)
C10 C 0.39173(15) 0.7306(3) 0.09430(14)
C11 C 0.36242(16) 0.8056(3) 0.15490(14)
H7 H 0.3967 0.8761 0.1880
C12 C 0.28368(17) 0.7785(4) 0.16751(15)
H8 H 0.2638 0.8307 0.2091
C13 C 0.23455(15) 0.6762(4) 0.11981(15)
C14 C 0.26299(16) 0.5970(4) 0.05962(15)
H9 H 0.2288 0.5246 0.0272
C15 C 0.34193(16) 0.6248(4) 0.04740(14)
H10 H 0.3621 0.5706 0.0064
H11 H 0.5021(16) 0.784(4) 0.1163(15)
H12 H 0.4912(19) 0.678(4) 0.0591(17)
Cd1_2 Cd 1.5000 1.0000 0.0000
Br1B Br 0.874136(18) 1.35678(5) -0.13679(2)
F1B F 1.03919(10) 0.6960(2) -0.06466(10)
F2B F 0.93580(10) 0.6886(2) 0.03615(10)
O1B O 0.52681(11) 0.8497(3) -0.11072(10)
O2B O 0.47188(12) 0.6172(3) -0.06951(10)
O3B O 0.51044(13) 0.6144(3) -0.17745(11)
N1B N 1.36471(12) 1.0281(3) -0.04257(12)
N1B_2 N 0.36471(12) 1.0281(3) -0.04257(12)
N2B N 0.50299(12) 0.6928(3) -0.11873(12)
N3B N 0.52812(14) 1.2337(3) -0.07938(15)
C1B C 1.33488(15) 0.9710(3) -0.10976(15)
H1B H 1.3714 0.9349 -0.1429
C2B C 1.31165(15) 1.0763(4) 0.00316(15)
H2B H 1.3312 1.1161 0.0511
C3B C 1.25412(15) 0.9624(3) -0.13289(14)
H3B H 1.2359 0.9214 -0.1810
C4B C 1.23004(15) 1.0707(4) -0.01634(15)
H4B H 1.1947 1.1060 0.0180
C5B C 1.19932(15) 1.0138(4) -0.08565(14)
C6B C 1.11027(15) 1.0097(4) -0.11285(15)
H5B H 1.0996 0.9047 -0.1448
H6B H 1.0972 1.1158 -0.1436
C7B C 1.05449(14) 1.0040(4) -0.05393(15)
C8B C 1.02025(16) 0.8495(4) -0.03322(16)
C9B C 0.96735(15) 0.8463(4) 0.01874(16)
C10B C 0.60827(15) 1.2694(3) -0.09430(14)
C11B C 0.63758(16) 1.1944(3) -0.15490(14)
H7B H 0.6033 1.1239 -0.1880
C12B C 0.71632(17) 1.2215(4) -0.16751(15)
H8B H 0.7362 1.1693 -0.2091
C13B C 0.76545(15) 1.3238(4) -0.11981(15)
C14B C 0.73701(16) 1.4030(4) -0.05962(15)
H9B H 0.7712 1.4754 -0.0272
C15B C 0.65807(16) 1.3752(4) -0.04740(14)
H10B H 0.6379 1.4294 -0.0064
H11B H 0.4979(16) 1.216(4) -0.1163(15)
H12B H 0.5088(19) 1.322(4) -0.0591(17)
Br2 Br 0.954981(19) 0.53655(5) 0.23151(2)
N4 N 0.59879(16) 0.6948(4) 0.21493(15)
C16 C 0.68070(16) 0.6592(4) 0.21932(14)
C17 C 0.73481(18) 0.7323(4) 0.27490(15)
H13 H 0.7157 0.8064 0.3111
C18 C 0.81615(18) 0.6976(4) 0.27760(16)
H14 H 0.8526 0.7489 0.3152
C19 C 0.84417(16) 0.5892(4) 0.22605(16)
C20 C 0.79181(17) 0.5190(4) 0.16971(15)
H15 H 0.8115 0.4470 0.1332
C21 C 0.71091(17) 0.5539(4) 0.16672(14)
H16 H 0.6751 0.5051 0.1279
H17 H 0.5813(17) 0.734(4) 0.2546(16)
H18 H 0.5697(18) 0.602(4) 0.2012(16)
loop_
_geom_bond_atom_site_label_1
_geom_bond_atom_site_label_2
_geom_bond_site_symmetry_1
_geom_bond_site_symmetry_2
Cd1 O1 1_555 1_555
Br1 C13 1_555 1_555
F1 C8 1_555 1_555
F2 C9 1_555 1_555
O1 N2 1_555 1_555
O2 N2 1_555 1_555
O3 N2 1_555 1_555
N1 Cd1 1_555 1_555
N3 Cd1 1_555 1_555
C1 N1 1_555 1_555
H1 C1 1_555 1_555
C2 N1 1_555 1_555
H2 C2 1_555 1_555
C3 C1 1_555 1_555
H3 C3 1_555 1_555
C4 C2 1_555 1_555
H4 C4 1_555 1_555
C5 C3 1_555 1_555
C6 C5 1_555 1_555
H5 C6 1_555 1_555
H6 C6 1_555 1_555
C7 C6 1_555 1_555
C8 C7 1_555 1_555
C9 C8 1_555 1_555
C10 N3 1_555 1_555
C11 C10 1_555 1_555
H7 C11 1_555 1_555
C12 C11 1_555 1_555
H8 C12 1_555 1_555
C13 C12 1_555 1_555
C14 C13 1_555 1_555
H9 C14 1_555 1_555
C15 C10 1_555 1_555
H10 C15 1_555 1_555
H11 N3 1_555 1_555
H12 N3 1_555 1_555
Br2 C19 1_555 1_555
N4 C16 1_555 1_555
C16 C17 1_555 1_555
C17 H13 1_555 1_555
C18 C17 1_555 1_555
H14 C18 1_555 1_555
C19 C18 1_555 1_555
C20 C19 1_555 1_555
H15 C20 1_555 1_555
C21 C16 1_555 1_555
H16 C21 1_555 1_555
H17 N4 1_555 1_555
H18 N4 1_555 1_555
Cd1_2 N1B 1_555 1_555
Br1B C13B 1_555 1_555
F1B C8B 1_555 1_555
F2B C9B 1_555 1_555
O1B Cd1 1_555 1_555
O2B N2B 1_555 1_555
O3B N2B 1_555 1_555
N1B C1B 1_555 1_555
N1B_2 Cd1 1_555 1_555
N2B O1B 1_555 1_555
N3B Cd1 1_555 1_555
C1B H1B 1_555 1_555
C2B N1B 1_555 1_555
H2B C2B 1_555 1_555
C3B C1B 1_555 1_555
H3B C3B 1_555 1_555
C4B C2B 1_555 1_555
H4B C4B 1_555 1_555
C5B C3B 1_555 1_555
C6B C5B 1_555 1_555
H5B C6B 1_555 1_555
H6B C6B 1_555 1_555
C7B C9 1_555 1_555
C8B C7B 1_555 1_555
C9B C7 1_555 1_555
C10B N3B 1_555 1_555
C11B C10B 1_555 1_555
H7B C11B 1_555 1_555
C12B C11B 1_555 1_555
H8B C12B 1_555 1_555
C13B C12B 1_555 1_555
C14B C13B 1_555 1_555
H9B C14B 1_555 1_555
C15B C10B 1_555 1_555
H10B C15B 1_555 1_555
H11B N3B 1_555 1_555
H12B N3B 1_555 1_555
C4 C5 1_555 1_555
C14 C15 1_555 1_555
C20 C21 1_555 1_555
C4B C5B 1_555 1_555
C6B C7B 1_555 1_555
C8B C9B 1_555 1_555
C14B C15B 1_555 1_555

#END
