
#######################################################################
#
#                 Cambridge Crystallographic Data Centre
#                                CCDC 
#
#######################################################################
#
# If this CIF has been generated from an entry in the Cambridge 
# Structural Database, then it will include bibliographic, chemical, 
# crystal, experimental, refinement or atomic coordinate data resulting 
# from the CCDC's data processing and validation procedures.
#
#######################################################################

data_JECSIU
_symmetry_cell_setting           monoclinic
_symmetry_space_group_name_H-M   'P 21/n'
_symmetry_Int_Tables_number      14
_space_group_name_Hall           '-P 2yn'
loop_
_symmetry_equiv_pos_site_id
_symmetry_equiv_pos_as_xyz
1 x,y,z
2 1/2-x,1/2+y,1/2-z
3 -x,-y,-z
4 1/2+x,1/2-y,1/2+z
_cell_length_a                   10.0586(4)
_cell_length_b                   9.0189(3)
_cell_length_c                   11.9833(6)
_cell_angle_alpha                90
_cell_angle_beta                 104.2(1)
_cell_angle_gamma                90
_cell_volume                     1053.88
loop_
_atom_site_label
_atom_site_type_symbol
_atom_site_fract_x
_atom_site_fract_y
_atom_site_fract_z
Fe1 Fe 0.0000 0.0000 0.0000
N1 N 0.0372(4) 0.2856(4) 0.1442(4)
N2 N -0.0533(4) 0.1951(4) -0.2166(3)
N3 N -0.3091(4) -0.0012(3) -0.0121(3)
C1 C 0.0229(4) 0.1774(5) 0.0916(4)
C2 C -0.0313(4) 0.1218(4) -0.1348(4)
C3 C -0.1923(5) 0.0000(4) -0.0070(4)
Cu1 Cu -0.5000 0.0000 0.0000
N4 N -0.5028(4) -0.2210(4) -0.0383(3)
N5 N -0.7879(4) -0.4620(4) 0.1930(4)
C4 C -0.6195(5) -0.3189(5) -0.0392(4)
C5 C -0.6377(5) -0.3467(5) 0.0802(4)
C6 C -0.7575(5) -0.4473(5) 0.0779(5)
O2 O -0.6152(3) 0.0601(4) -0.2173(3)
H1 H -0.429(4) -0.240(4) 0.010(3)
H2 H -0.487(3) -0.221(3) -0.101(3)
H3 H -0.704(4) -0.278(4) -0.093(4)
H4 H -0.611(4) -0.408(4) -0.075(3)
H5 H -0.640(4) -0.254(4) 0.123(4)
H6 H -0.561(4) -0.386(4) 0.122(4)
H7 H -0.833(4) -0.407(4) 0.030(3)
H8 H -0.745(4) -0.550(4) 0.057(4)
H9 H -0.859(4) -0.550(5) 0.187(4)
H10 H -0.823(4) -0.397(4) 0.202(3)
H11 H -0.720(5) -0.491(4) 0.236(4)
H14 H -0.684(6) 0.131(7) -0.214(5)
H15 H -0.576(4) 0.095(4) -0.244(4)
N1B N -0.0372(4) -0.2856(4) -0.1442(4)
N2B N 0.0533(4) -0.1951(4) 0.2166(3)
N3B N 0.3091(4) 0.0012(3) 0.0121(3)
N3B_2 N -0.6909(4) 0.0012(3) 0.0121(3)
C1B C -0.0229(4) -0.1774(5) -0.0916(4)
C2B C 0.0313(4) -0.1218(4) 0.1348(4)
C3B C 0.1923(5) 0.0000(4) 0.0070(4)
Cu1_2 Cu 0.5000 0.0000 0.0000
N4B N -0.4972(4) 0.2210(4) 0.0383(3)
N5B N -0.2121(4) 0.4620(4) -0.1930(4)
C4B C -0.3805(5) 0.3189(5) 0.0392(4)
C5B C -0.3623(5) 0.3467(5) -0.0802(4)
C6B C -0.2425(5) 0.4473(5) -0.0779(5)
O2B O -0.3848(3) -0.0601(4) 0.2173(3)
H1B H -0.571(4) 0.240(4) -0.010(3)
H2B H -0.513(3) 0.221(3) 0.101(3)
H3B H -0.296(4) 0.278(4) 0.093(4)
H4B H -0.389(4) 0.408(4) 0.075(3)
H5B H -0.360(4) 0.254(4) -0.123(4)
H6B H -0.439(4) 0.386(4) -0.122(4)
H7B H -0.167(4) 0.407(4) -0.030(3)
H8B H -0.255(4) 0.550(4) -0.057(4)
H9B H -0.141(4) 0.550(5) -0.187(4)
H10B H -0.177(4) 0.397(4) -0.202(3)
H11B H -0.280(5) 0.491(4) -0.236(4)
H14B H -0.316(6) -0.131(7) 0.214(5)
H15B H -0.424(4) -0.095(4) 0.244(4)
O1 O -0.2559(3) -0.8097(4) 0.3432(3)
H12 H -0.285(4) -0.870(4) 0.305(3)
H13 H -0.330(6) -0.760(6) 0.336(5)
loop_
_geom_bond_atom_site_label_1
_geom_bond_atom_site_label_2
_geom_bond_site_symmetry_1
_geom_bond_site_symmetry_2
Fe1 C1 1_555 1_555
N1 C1 1_555 1_555
N2 C2 1_555 1_555
N3 C3 1_555 1_555
C2 Fe1 1_555 1_555
C3 Fe1 1_555 1_555
Cu1 N3 1_555 1_555
N4 Cu1 1_555 1_555
N5 C6 1_555 1_555
C4 N4 1_555 1_555
C5 C4 1_555 1_555
C6 C5 1_555 1_555
O1 H12 1_555 1_555
O2 Cu1 1_555 1_555
H1 N4 1_555 1_555
H2 N4 1_555 1_555
H3 C4 1_555 1_555
H4 C4 1_555 1_555
H5 C5 1_555 1_555
H6 C5 1_555 1_555
H7 C6 1_555 1_555
H8 C6 1_555 1_555
H9 N5 1_555 1_555
H10 N5 1_555 1_555
H11 N5 1_555 1_555
H13 O1 1_555 1_555
H14 O2 1_555 1_555
H15 O2 1_555 1_555
N1B C1B 1_555 1_555
N2B C2B 1_555 1_555
N3B C3B 1_555 1_555
N3B_2 Cu1 1_555 1_555
C1B Fe1 1_555 1_555
C2B Fe1 1_555 1_555
C3B Fe1 1_555 1_555
Cu1_2 N3B 1_555 1_555
N4B Cu1 1_555 1_555
N5B C6B 1_555 1_555
C4B N4B 1_555 1_555
C5B C4B 1_555 1_555
C6B C5B 1_555 1_555
O2B Cu1 1_555 1_555
H1B N4B 1_555 1_555
H2B N4B 1_555 1_555
H3B C4B 1_555 1_555
H4B C4B 1_555 1_555
H5B C5B 1_555 1_555
H6B C5B 1_555 1_555
H7B C6B 1_555 1_555
H8B C6B 1_555 1_555
H9B N5B 1_555 1_555
H10B N5B 1_555 1_555
H11B N5B 1_555 1_555
H14B O2B 1_555 1_555
H15B O2B 1_555 1_555

#END
