
#######################################################################
#
#                 Cambridge Crystallographic Data Centre
#                                CCDC 
#
#######################################################################
#
# If this CIF has been generated from an entry in the Cambridge 
# Structural Database, then it will include bibliographic, chemical, 
# crystal, experimental, refinement or atomic coordinate data resulting 
# from the CCDC's data processing and validation procedures.
#
#######################################################################

data_JECSAM
_symmetry_cell_setting           monoclinic
_symmetry_space_group_name_H-M   'C 2/c'
_symmetry_Int_Tables_number      15
_space_group_name_Hall           '-C 2yn'
loop_
_symmetry_equiv_pos_site_id
_symmetry_equiv_pos_as_xyz
1 x,y,z
2 1/2+x,1/2+y,z
3 -x,y,1/2-z
4 1/2-x,1/2+y,1/2-z
5 -x,-y,-z
6 1/2-x,1/2-y,-z
7 x,-y,1/2+z
8 1/2+x,1/2-y,1/2+z
_cell_length_a                   26.480(4)
_cell_length_b                   10.9279(15)
_cell_length_c                   11.8813(16)
_cell_angle_alpha                90
_cell_angle_beta                 114.300(2)
_cell_angle_gamma                90
_cell_volume                     3133.5
loop_
_atom_site_label
_atom_site_type_symbol
_atom_site_fract_x
_atom_site_fract_y
_atom_site_fract_z
Cd1 Cd 1.0000 0.209400(13) 0.2500
F1 F 1.18299(5) 0.67924(11) 0.60853(11)
F2 F 1.29173(5) 0.68754(11) 0.74133(11)
O1 O 1.01610(6) 0.23031(12) 0.06731(11)
O2 O 0.95073(8) 0.1051(2) -0.03770(16)
O3 O 1.01083(8) 0.15429(15) -0.10425(15)
N1 N 1.06265(6) 0.37610(13) 0.31327(12)
N2 N 0.99218(7) 0.16258(14) -0.02549(13)
N3 N 0.93722(6) 0.04539(14) 0.20093(15)
C1 C 1.05499(7) 0.45760(16) 0.38912(15)
H1 H 1.0348 0.4327 0.4353
C2 C 1.09234(7) 0.41295(16) 0.25151(16)
H2 H 1.0988 0.3562 0.1984
C3 C 1.07497(7) 0.57603(16) 0.40356(16)
H3 H 1.0679 0.6310 0.4574
C4 C 1.11404(8) 0.52969(17) 0.26127(16)
H4 H 1.1347 0.5519 0.2152
C5 C 1.10541(7) 0.61410(15) 0.33898(16)
C6 C 1.12919(8) 0.74259(17) 0.3545(2)
H5 H 1.1203 0.7784 0.2720
H6 H 1.1114 0.7941 0.3965
C7 C 1.19128(8) 0.74491(16) 0.42834(17)
C8 C 1.21562(8) 0.71439(15) 0.55240(18)
C9 C 1.27225(8) 0.71932(15) 0.62169(17)
C10 C 0.87881(7) 0.06375(14) 0.16131(15)
C11 C 0.85748(7) 0.08433(16) 0.24818(16)
H7 H 0.8816 0.0884 0.3334
C12 C 0.80083(8) 0.09904(17) 0.21040(17)
H8 H 0.7865 0.1115 0.2709
C13 C 0.76455(7) 0.09605(15) 0.08676(17)
C14 C 0.78666(7) 0.07709(17) 0.00088(17)
H9 H 0.7627 0.0751 -0.0845
C15 C 0.84324(7) 0.06089(16) 0.03706(16)
H10 H 0.8576 0.0479 -0.0233
C16 C 0.70303(8) 0.1123(2) 0.0468(2)
H11 H 0.6843 0.1074 -0.0434
H12 H 0.6958 0.1924 0.0744
H13 H 0.6890 0.0477 0.0835
H14 H 0.9488(9) 0.002(2) 0.258(2)
H15 H 0.9440(9) 0.008(2) 0.148(2)
Cd1G Cd 1.5000 1.290600(13) 0.7500
F1E F 1.31701(5) 0.82076(11) 0.39147(11)
F2E F 1.20827(5) 0.81246(11) 0.25867(11)
O1B O 0.98390(6) 0.23031(12) 0.43269(11)
O2B O 1.04927(8) 0.1051(2) 0.53770(16)
O3B O 0.98917(8) 0.15429(15) 0.60425(15)
N1E N 1.43735(6) 1.12390(13) 0.68673(12)
N1B N 0.93735(6) 0.37610(13) 0.18673(12)
N2B N 1.00782(7) 0.16258(14) 0.52549(13)
N3B N 1.06278(6) 0.04539(14) 0.29907(15)
C1E C 1.44501(7) 1.04240(16) 0.61088(15)
H1E H 1.4652 1.0673 0.5647
C2E C 1.40766(7) 1.08705(16) 0.74849(16)
H2E H 1.4012 1.1438 0.8016
C3E C 1.42503(7) 0.92397(16) 0.59644(16)
H3E H 1.4321 0.8690 0.5426
C4E C 1.38596(8) 0.97031(17) 0.73873(16)
H4E H 1.3653 0.9481 0.7848
C5E C 1.39459(7) 0.88590(15) 0.66102(16)
C6E C 1.37081(8) 0.75741(17) 0.6455(2)
H5E H 1.3797 0.7216 0.7280
H6E H 1.3886 0.7059 0.6035
C7E C 1.30872(8) 0.75509(16) 0.57166(17)
C8E C 1.28438(8) 0.78561(15) 0.44760(18)
C9E C 1.22775(8) 0.78068(15) 0.37831(17)
C10B C 1.12119(7) 0.06375(14) 0.33869(15)
C11B C 1.14252(7) 0.08433(16) 0.25182(16)
H7B H 1.1184 0.0884 0.1666
C12B C 1.19917(8) 0.09904(17) 0.28960(17)
H8B H 1.2135 0.1115 0.2291
C13B C 1.23545(7) 0.09605(15) 0.41324(17)
C14B C 1.21334(7) 0.07709(17) 0.49912(17)
H9B H 1.2373 0.0751 0.5845
C15B C 1.15676(7) 0.06089(16) 0.46294(16)
H10B H 1.1424 0.0479 0.5233
C16B C 1.29697(8) 0.1123(2) 0.4532(2)
H11B H 1.3157 0.1074 0.5434
H12B H 1.3042 0.1924 0.4256
H13B H 1.3110 0.0477 0.4165
H14B H 1.0512(9) 0.002(2) 0.242(2)
H15B H 1.0560(9) 0.008(2) 0.352(2)
loop_
_geom_bond_atom_site_label_1
_geom_bond_atom_site_label_2
_geom_bond_site_symmetry_1
_geom_bond_site_symmetry_2
Cd1 O1 1_555 1_555
F1 C8 1_555 1_555
F2 C9 1_555 1_555
O1 N2 1_555 1_555
O2 N2 1_555 1_555
O3 N2 1_555 1_555
N1 Cd1 1_555 1_555
N3 Cd1 1_555 1_555
C1 N1 1_555 1_555
H1 C1 1_555 1_555
C2 N1 1_555 1_555
H2 C2 1_555 1_555
C3 C1 1_555 1_555
H3 C3 1_555 1_555
C4 C2 1_555 1_555
H4 C4 1_555 1_555
C5 C3 1_555 1_555
C6 C5 1_555 1_555
H5 C6 1_555 1_555
H6 C6 1_555 1_555
C7 C6 1_555 1_555
C8 C7 1_555 1_555
C9 C8 1_555 1_555
C10 N3 1_555 1_555
C11 C10 1_555 1_555
H7 C11 1_555 1_555
C12 C11 1_555 1_555
H8 C12 1_555 1_555
C13 C12 1_555 1_555
C14 C13 1_555 1_555
H9 C14 1_555 1_555
C15 C10 1_555 1_555
H10 C15 1_555 1_555
C16 C13 1_555 1_555
H11 C16 1_555 1_555
H12 C16 1_555 1_555
H13 C16 1_555 1_555
H14 N3 1_555 1_555
H15 N3 1_555 1_555
Cd1G N1E 1_555 1_555
F1E C8E 1_555 1_555
F2E C9E 1_555 1_555
O1B Cd1 1_555 1_555
O2B N2B 1_555 1_555
O3B N2B 1_555 1_555
N1E C1E 1_555 1_555
N1B Cd1 1_555 1_555
N2B O1B 1_555 1_555
N3B Cd1 1_555 1_555
C1E H1E 1_555 1_555
C2E N1E 1_555 1_555
H2E C2E 1_555 1_555
C3E C1E 1_555 1_555
H3E C3E 1_555 1_555
C4E C2E 1_555 1_555
H4E C4E 1_555 1_555
C5E C3E 1_555 1_555
C6E C5E 1_555 1_555
H5E C6E 1_555 1_555
H6E C6E 1_555 1_555
C7E C9 1_555 1_555
C8E C7E 1_555 1_555
C9E C7 1_555 1_555
C10B N3B 1_555 1_555
C11B C10B 1_555 1_555
H7B C11B 1_555 1_555
C12B C11B 1_555 1_555
H8B C12B 1_555 1_555
C13B C12B 1_555 1_555
C14B C13B 1_555 1_555
H9B C14B 1_555 1_555
C15B C10B 1_555 1_555
H10B C15B 1_555 1_555
C16B C13B 1_555 1_555
H11B C16B 1_555 1_555
H12B C16B 1_555 1_555
H13B C16B 1_555 1_555
H14B N3B 1_555 1_555
H15B N3B 1_555 1_555
C4 C5 1_555 1_555
C14 C15 1_555 1_555
C4E C5E 1_555 1_555
C6E C7E 1_555 1_555
C8E C9E 1_555 1_555
C14B C15B 1_555 1_555

#END
