
#######################################################################
#
#                 Cambridge Crystallographic Data Centre
#                                CCDC 
#
#######################################################################
#
# If this CIF has been generated from an entry in the Cambridge 
# Structural Database, then it will include bibliographic, chemical, 
# crystal, experimental, refinement or atomic coordinate data resulting 
# from the CCDC's data processing and validation procedures.
#
#######################################################################

data_JEDCEB
_symmetry_cell_setting           hexagonal
_symmetry_space_group_name_H-M   'P -6 2 c'
_symmetry_Int_Tables_number      190
_space_group_name_Hall           "P -6c -2'c"
loop_
_symmetry_equiv_pos_site_id
_symmetry_equiv_pos_as_xyz
1 x,y,z
2 -x+y,-x,1/2-z
3 y,x,1/2+z
4 -y,x-y,z
5 x-y,-y,-z
6 x,y,1/2-z
7 -x,-x+y,1/2+z
8 -x+y,-x,z
9 y,x,-z
10 -y,x-y,1/2-z
11 x-y,-y,1/2+z
12 -x,-x+y,-z
_cell_length_a                   14.2165(8)
_cell_length_b                   14.2165(8)
_cell_length_c                   21.748(2)
_cell_angle_alpha                90
_cell_angle_beta                 90
_cell_angle_gamma                120
_cell_volume                     3806.58
loop_
_atom_site_label
_atom_site_type_symbol
_atom_site_fract_x
_atom_site_fract_y
_atom_site_fract_z
Na1 Na 1.0000 1.0000 0.8912(4)
O5 O 0.932(2) 0.881(4) 0.9382(12)
O6 O 1.0000 1.0000 1.0000
O7 O 1.040(3) 0.808(5) 1.0500(14)
N3 N 0.837(5) 0.648(3) 0.886(2)
C7 C 0.852(5) 0.668(3) 0.828(2)
C8 C 0.779(3) 0.641(3) 0.778(2)
C9 C 0.678(3) 0.532(3) 0.793(3)
C10 C 0.675(5) 0.498(5) 0.860(3)
C11 C 0.751(6) 0.559(4) 0.8939(18)
N4 N 0.432(3) 0.352(4) 0.644(2)
C12 C 0.413(4) 0.370(5) 0.6994(19)
C13 C 0.481(3) 0.424(3) 0.7500
C14 C 0.599(3) 0.483(3) 0.730(4)
C15 C 0.615(5) 0.453(5) 0.835(3)
C16 C 0.532(7) 0.392(7) 0.636(3)
H3 H 0.7283 0.5181 0.9327
H6 H 0.9076 0.7432 0.8132
H7 H 0.5583 0.3937 0.5880
H10 H 0.3365 0.3268 0.7124
N3E N 0.837(5) 0.648(3) 0.614(2)
C7E C 0.852(5) 0.668(3) 0.672(2)
C8E C 0.779(3) 0.641(3) 0.722(2)
C9E C 0.678(3) 0.532(3) 0.707(3)
C10E C 0.675(5) 0.498(5) 0.640(3)
C11E C 0.751(6) 0.559(4) 0.6061(18)
N4E N 0.432(3) 0.352(4) 0.856(2)
C12E C 0.413(4) 0.370(5) 0.8006(19)
C14E C 0.599(3) 0.483(3) 0.770(4)
C15E C 0.615(5) 0.453(5) 0.665(3)
C16E C 0.532(7) 0.392(7) 0.864(3)
H3E H 0.7283 0.5181 0.5673
H6E H 0.9076 0.7432 0.6868
H7E H 0.5583 0.3937 0.9120
H10E H 0.3365 0.3268 0.7876
Cd1 Cd 1.25710(5) 0.80102(5) 0.90013(2)
Cd2 Cd 1.0000 1.0000 0.7500
N1 N 1.3499(6) 0.9305(6) 0.9675(3)
N2 N 1.2500(6) 0.8265(7) 0.8015(4)
C1 C 1.4927(8) 0.8858(7) 0.9527(4)
C2 C 1.4556(7) 0.9570(7) 0.9801(4)
C3 C 1.3342 1.0000(9) 1.0000
H1 H 1.2688 1.0000 1.0000
C4 C 1.1254(9) 0.8924(9) 0.8303(4)
C5 C 1.1835(8) 0.8626(8) 0.7806(4)
C6 C 1.2846(11) 0.8025(11) 0.7500
H2 H 1.3289 0.7718 0.7500
O1 O 1.4308(6) 0.8173(5) 0.9124(3)
O2 O 1.5801(6) 0.8923(6) 0.9695(4)
O3 O 1.0680(12) 0.9309(13) 0.8170(4)
O4 O 1.1417(8) 0.8726(9) 0.8838(3)
Cd1E Cd 1.25710(5) 0.80102(5) 0.59987(2)
Cd1A Cd 0.54392(7) 0.74290(5) 0.59987(2)
Cd1G Cd 0.54392(7) 0.74290(5) 0.90013(2)
Cd1C Cd 1.19898(5) 1.45608(7) 0.90013(2)
Cd1I Cd 1.19898(5) 1.45608(7) 0.59987(2)
Cd1G_2 Cd 1.54392(7) 0.74290(5) 0.90013(2)
Cd1D Cd 1.45608(7) 1.19898(5) 1.09987(2)
Cd1H Cd 1.80102(5) 1.25710(5) 1.09987(2)
Cd1C_2 Cd 1.19898(5) 0.45608(7) 0.90013(2)
Cd1H_2 Cd 0.80102(5) 0.25710(5) 1.09987(2)
Cd1K Cd 0.74290(5) 0.54392(7) 1.09987(2)
Cd1A_2 Cd 1.54392(7) 0.74290(5) 0.59987(2)
Cd1J Cd 1.45608(7) 1.19898(5) 0.40013(2)
Cd1B Cd 1.80102(5) 1.25710(5) 0.40013(2)
N1D N 1.4194(8) 1.0695(6) 1.0325(3)
N1C N 1.0695(6) 0.4194(8) 0.9675(3)
N1H N 0.9305(6) 0.3499(6) 1.0325(3)
N1E N 1.3499(6) 0.9305(6) 0.5325(3)
N1J N 1.4194(8) 1.0695(6) 0.4675(3)
N1A N 0.5806(8) 0.6501(6) 0.5325(3)
N1G N 0.5806(8) 0.6501(6) 0.9675(3)
N1C_2 N 1.0695(6) 1.4194(8) 0.9675(3)
N1I N 1.0695(6) 1.4194(8) 0.5325(3)
N2E N 1.2500(6) 0.8265(7) 0.6985(4)
N2A N 0.5765(9) 0.7500(6) 0.6985(4)
N2G N 0.5765(9) 0.7500(6) 0.8015(4)
N2C N 1.1735(7) 1.4235(9) 0.8015(4)
N2I N 1.1735(7) 1.4235(9) 0.6985(4)
C1D C 1.6069(11) 1.1142(7) 1.0473(4)
C1C C 1.1142(7) 0.6069(11) 0.9527(4)
C1H C 0.8858(7) 0.4927(8) 1.0473(4)
C1E C 1.4927(8) 0.8858(7) 0.5473(4)
C1J C 1.6069(11) 1.1142(7) 0.4527(4)
C2D C 1.4986(10) 1.0430(7) 1.0199(4)
C2C C 1.0430(7) 0.4986(10) 0.9801(4)
C2H C 0.9570(7) 0.4556(7) 1.0199(4)
C2E C 1.4556(7) 0.9570(7) 0.5199(4)
C2J C 1.4986(10) 1.0430(7) 0.4801(4)
C3C C 1.0000(9) 0.3342(9) 1.0000
C3E C 1.3342 1.0000(9) 0.5000
H1C H 1.0000 0.2688 1.0000
H1E H 1.2688 1.0000 0.5000
C4E C 1.1254(9) 0.8924(9) 0.6697(4)
C4A C 0.7670(13) 0.8746(9) 0.6697(4)
C4G C 0.7670(13) 0.8746(9) 0.8303(4)
C4C C 1.1076(9) 1.2330(13) 0.8303(4)
C4I C 1.1076(9) 1.2330(13) 0.6697(4)
C5E C 1.1835(8) 0.8626(8) 0.7194(4)
C5A C 0.6791(11) 0.8165(8) 0.7194(4)
C5G C 0.6791(11) 0.8165(8) 0.7806(4)
C5C C 1.1374(8) 1.3209(11) 0.7806(4)
C5I C 1.1374(8) 1.3209(11) 0.7194(4)
C6A C 0.5179(16) 0.7154(11) 0.7500
C6C C 1.1975(11) 1.4821(16) 0.7500
H2A H 0.4429 0.6711 0.7500
H2C H 1.2282 1.5571 0.7500
O1D O 1.6135(8) 1.1827(5) 1.0876(3)
O1C O 1.1827(5) 0.6135(8) 0.9124(3)
O1H O 0.8173(5) 0.4308(6) 1.0876(3)
O1E O 1.4308(6) 0.8173(5) 0.5876(3)
O1J O 1.6135(8) 1.1827(5) 0.4124(3)
O1I O 1.1827(5) 0.6135(8) 0.5876(3)
O1A O 0.3865(8) 0.5692(6) 0.5876(3)
O1E_2 O 0.4308(6) 0.8173(5) 0.5876(3)
O1_2 O 0.4308(6) 0.8173(5) 0.9124(3)
O1G O 0.3865(8) 0.5692(6) 0.9124(3)
O1C_2 O 1.1827(5) 1.6135(8) 0.9124(3)
O1G_2 O 1.3865(8) 1.5692(6) 0.9124(3)
O1A_2 O 1.3865(8) 1.5692(6) 0.5876(3)
O1I_2 O 1.1827(5) 1.6135(8) 0.5876(3)
O2D O 1.6878(8) 1.1077(6) 1.0305(4)
O2C O 1.1077(6) 0.6878(8) 0.9695(4)
O2H O 0.8923(6) 0.5801(6) 1.0305(4)
O2E O 1.5801(6) 0.8923(6) 0.5305(4)
O2J O 1.6878(8) 1.1077(6) 0.4695(4)
O2I O 1.1077(6) 0.6878(8) 0.5305(4)
O2E_2 O 0.5801(6) 0.8923(6) 0.5305(4)
O2_2 O 0.5801(6) 0.8923(6) 0.9695(4)
O2G O 1.3122(8) 1.4199(6) 0.9695(4)
O2A O 1.3122(8) 1.4199(6) 0.5305(4)
O3E O 1.0680(12) 0.9309(13) 0.6830(4)
O3A O 0.8629(18) 0.9320(12) 0.6830(4)
O3G O 0.8629(18) 0.9320(12) 0.8170(4)
O3C O 1.0691(13) 1.1371(18) 0.8170(4)
O3I O 1.0691(13) 1.1371(18) 0.6830(4)
O4E O 1.1417(8) 0.8726(9) 0.6162(3)
O4A O 0.7309(12) 0.8583(8) 0.6162(3)
O4G O 0.7309(12) 0.8583(8) 0.8838(3)
O4C O 1.1274(9) 1.2691(12) 0.8838(3)
O4I O 1.1274(9) 1.2691(12) 0.6162(3)
Na2? Na 0.9841(17) 0.7390(15) 0.9652(9)
H4? H 0.5929 0.4239 0.8618
H5? H 0.7835 0.6648 0.7311
H8? H 0.6952 0.4964 0.6551
H9? H 0.4593 0.4266 0.7908
loop_
_geom_bond_atom_site_label_1
_geom_bond_atom_site_label_2
_geom_bond_site_symmetry_1
_geom_bond_site_symmetry_2
Cd1 N1 1_555 1_555
Cd2 O3 1_555 1_555
N1 C2 1_555 1_555
N2 Cd1 1_555 1_555
C1 C2 1_555 1_555
C2 C2D 1_555 1_555
C3 N1 1_555 1_555
H1 C3 1_555 1_555
C4 C5 1_555 1_555
C5 N2 1_555 1_555
C6 N2 1_555 1_555
H2 C6 1_555 1_555
O1 Cd1 1_555 1_555
O2 C1 1_555 1_555
O3 C4 1_555 1_555
O4 Cd1 1_555 1_555
N3 C7 1_555 1_555
C7 C8 1_555 1_555
C8 C9 1_555 1_555
C9 C10 1_555 1_555
C10 C11 1_555 1_555
C11 N3 1_555 1_555
N4 C12 1_555 1_555
C12 C13 1_555 1_555
C13 C14 1_555 1_555
C14 C9 1_555 1_555
C15 C9 1_555 1_555
C16 N4 1_555 1_555
H3 C11 1_555 1_555
H6 C7 1_555 1_555
H7 C16 1_555 1_555
H10 C12 1_555 1_555
Cd1E N1E 1_555 1_555
Cd1A N1A 1_555 1_555
Cd1G N1G 1_555 1_555
Cd1C N1C_2 1_555 1_555
Cd1I N1I 1_555 1_555
Cd1G_2 O1 1_555 1_555
Cd1D N1D 1_555 1_555
Cd1H O1D 1_555 1_555
Cd1C_2 N1C 1_555 1_555
Cd1H_2 N1H 1_555 1_555
Cd1K O1H 1_555 1_555
Cd1A_2 O1E 1_555 1_555
Cd1J N1J 1_555 1_555
Cd1B O1J 1_555 1_555
N1D C3 1_555 1_555
N1C C2C 1_555 1_555
N1H C2H 1_555 1_555
N1E C2E 1_555 1_555
N1J C2J 1_555 1_555
N2E C6 1_555 1_555
N2A Cd1A 1_555 1_555
N2G Cd1G 1_555 1_555
N2C Cd1C 1_555 1_555
N2I Cd1I 1_555 1_555
C1D C2D 1_555 1_555
C1C C2C 1_555 1_555
C1H C2H 1_555 1_555
C1E C2E 1_555 1_555
C1J C2J 1_555 1_555
C2D N1D 1_555 1_555
C2C C2H 1_555 1_555
C2E C2J 1_555 1_555
C3C N1C 1_555 1_555
C3E N1E 1_555 1_555
H1C C3C 1_555 1_555
H1E C3E 1_555 1_555
C4E C5E 1_555 1_555
C4A C5A 1_555 1_555
C4G C5G 1_555 1_555
C4C C5C 1_555 1_555
C4I C5I 1_555 1_555
C5E C5 1_555 1_555
C5A N2A 1_555 1_555
C5G N2G 1_555 1_555
C5C N2C 1_555 1_555
C5I N2I 1_555 1_555
C6A N2A 1_555 1_555
C6C N2C 1_555 1_555
H2A C6A 1_555 1_555
H2C C6C 1_555 1_555
O1D Cd1D 1_555 1_555
O1C Cd1 1_555 1_555
O1H Cd1H_2 1_555 1_555
O1E Cd1E 1_555 1_555
O1J Cd1J 1_555 1_555
O1I Cd1E 1_555 1_555
O1A Cd1A 1_555 1_555
O1E_2 Cd1A 1_555 1_555
O1_2 Cd1G 1_555 1_555
O1G Cd1G 1_555 1_555
O1C_2 Cd1C 1_555 1_555
O1G_2 Cd1C 1_555 1_555
O1A_2 Cd1I 1_555 1_555
O1I_2 Cd1I 1_555 1_555
O2D Cd1H 1_555 1_555
O2C Cd1 1_555 1_555
O2H Cd1K 1_555 1_555
O2E Cd1A_2 1_555 1_555
O2J Cd1B 1_555 1_555
O2I Cd1E 1_555 1_555
O2E_2 Cd1A 1_555 1_555
O2_2 Cd1G 1_555 1_555
O2G Cd1C 1_555 1_555
O2A Cd1I 1_555 1_555
O3E Cd2 1_555 1_555
O3A Cd2 1_555 1_555
O3G Cd2 1_555 1_555
O3C Cd2 1_555 1_555
O3I Cd2 1_555 1_555
O4E Cd1E 1_555 1_555
O4A Cd1A 1_555 1_555
O4G Cd1G 1_555 1_555
O4C Cd1C 1_555 1_555
O4I Cd1I 1_555 1_555
N3E C7E 1_555 1_555
C7E C8E 1_555 1_555
C8E C8 1_555 1_555
C9E C14 1_555 1_555
C10E C9E 1_555 1_555
C11E N3E 1_555 1_555
N4E C12E 1_555 1_555
C12E C13 1_555 1_555
C14E C9 1_555 1_555
C15E C14 1_555 1_555
C16E C15 1_555 1_555
H3E C11E 1_555 1_555
H6E C7E 1_555 1_555
H7E C16E 1_555 1_555
H10E C12E 1_555 1_555
C1 O1 1_555 1_555
C4 O4 1_555 1_555
O2 Cd1G_2 1_555 1_555
C10 C15 1_555 1_555
C13 C14E 1_555 1_555
C14 C14E 1_555 1_555
C15 C14E 1_555 1_555
C16 C15E 1_555 1_555
Cd1E N2E 1_555 1_555
Cd1C_2 O1C 1_555 1_555
N1H C3C 1_555 1_555
N1J C3E 1_555 1_555
N2E C5E 1_555 1_555
N2G C6A 1_555 1_555
N2I C6C 1_555 1_555
C1D O1D 1_555 1_555
C1D O2D 1_555 1_555
C1C O1C 1_555 1_555
C1C O2C 1_555 1_555
C1H O1H 1_555 1_555
C1H O2H 1_555 1_555
C1E O1E 1_555 1_555
C1E O2E 1_555 1_555
C1J O1J 1_555 1_555
C1J O2J 1_555 1_555
C4E O3E 1_555 1_555
C4E O4E 1_555 1_555
C4A O3A 1_555 1_555
C4A O4A 1_555 1_555
C4G O3G 1_555 1_555
C4G O4G 1_555 1_555
C4C O3C 1_555 1_555
C4C O4C 1_555 1_555
C4I O3I 1_555 1_555
C4I O4I 1_555 1_555
C5A C5G 1_555 1_555
C5C C5I 1_555 1_555
C8E C9E 1_555 1_555
C9E C14E 1_555 1_555
C9E C15E 1_555 1_555
C10E C11E 1_555 1_555
C10E C15E 1_555 1_555
N4E C16E 1_555 1_555

#END
