
#######################################################################
#
#                 Cambridge Crystallographic Data Centre
#                                CCDC 
#
#######################################################################
#
# If this CIF has been generated from an entry in the Cambridge 
# Structural Database, then it will include bibliographic, chemical, 
# crystal, experimental, refinement or atomic coordinate data resulting 
# from the CCDC's data processing and validation procedures.
#
#######################################################################

data_JEDCIF
_symmetry_cell_setting           hexagonal
_symmetry_space_group_name_H-M   'P -6 2 c'
_symmetry_Int_Tables_number      190
_space_group_name_Hall           "P -6c -2'c"
loop_
_symmetry_equiv_pos_site_id
_symmetry_equiv_pos_as_xyz
1 x,y,z
2 -y,x-y,z
3 -x+y,-x,z
4 x,y,1/2-z
5 -y,x-y,1/2-z
6 -x+y,-x,1/2-z
7 y,x,-z
8 x-y,-y,-z
9 -x,-x+y,-z
10 y,x,1/2+z
11 x-y,-y,1/2+z
12 -x,-x+y,1/2+z
_cell_length_a                   14.3027(10)
_cell_length_b                   14.3027(10)
_cell_length_c                   21.493(3)
_cell_angle_alpha                90
_cell_angle_beta                 90
_cell_angle_gamma                120
_cell_volume                     3807.71
loop_
_atom_site_label
_atom_site_type_symbol
_atom_site_fract_x
_atom_site_fract_y
_atom_site_fract_z
K1 K 1.22345(11) 0.22345(11) 0.5000
O5 O 1.0460(6) 0.1241(7) 0.5675(4)
O6 O 1.1356(10) 0.2529(13) 0.6010(5)
N3 N 1.3333 0.6667 0.7500
C7 C 1.1835(8) 0.3582(5) 0.7500
C8 C 1.1415(10) 0.4394(7) 0.7500
C9 C 1.2317(7) 0.5597(5) 0.7500
C10 C 1.1743(6) 0.5325(6) 0.6983(12)
C11 C 1.3739(6) 0.6652(11) 0.6860(3)
C12 C 1.0802(8) 0.2451(13) 0.7500
C13 C 0.9906(8) 0.5278(6) 0.6966(10)
C14 C 1.0617(12) 0.4888(8) 0.7291(9)
C7A C 1.6418(5) 0.8253(9) 0.7500
C7B C 1.1747(9) 0.8165(8) 0.7500
C8A C 1.5606(7) 0.7021(12) 0.7500
C8B C 1.2979(12) 0.8585(10) 0.7500
C9A C 1.4403(5) 0.6720(9) 0.7500
C9B C 1.3280(9) 0.7683(7) 0.7500
C10C C 1.1743(6) 0.5325(6) 0.8017(12)
C10A C 1.4675(6) 0.6418(8) 0.6983(12)
C10D C 1.4675(6) 0.6418(8) 0.8017(12)
C10B C 1.3582(8) 0.8257(6) 0.6983(12)
C10E C 1.3582(8) 0.8257(6) 0.8017(12)
C11B C 1.2913(13) 0.6261(6) 0.6860(3)
C11A C 1.3348(11) 0.7087(13) 0.6860(3)
C11C C 1.3739(6) 0.6652(11) 0.8140(3)
C11D C 1.3348(11) 0.7087(13) 0.8140(3)
C11E C 1.2913(13) 0.6261(6) 0.8140(3)
C12A C 1.7549(13) 0.8351(15) 0.7500
C12B C 1.1649(15) 0.9198(8) 0.7500
C13C C 0.9906(8) 0.5278(6) 0.8034(10)
C13E C 1.5372(10) 1.0094(8) 0.8034(10)
C13D C 1.4722(6) 0.4628(10) 0.8034(10)
C13B C 1.5372(10) 1.0094(8) 0.6966(10)
C13A C 1.4722(6) 0.4628(10) 0.6966(10)
C14A C 1.5112(8) 0.5729(14) 0.7291(9)
C14B C 1.4271(14) 0.9383(12) 0.7291(9)
C14C C 1.0617(12) 0.4888(8) 0.7709(9)
C14E C 1.4271(14) 0.9383(12) 0.7709(9)
C14D C 1.5112(8) 0.5729(14) 0.7709(9)
C1 C 1.1269(3) 0.2331(3) 0.33106(16)
C2 C 1.1553(3) 0.3182(3) 0.28254(15)
C3 C 1.2036(7) 0.4766(5) 0.2500
H1 H 1.2243 0.5494 0.2500
C4 C 1.1131(2) 0.5966(3) 0.4521(2)
C5 C 1.0443(3) 0.4890(3) 0.48092(18)
C6 C 1.0000 0.3239(4) 0.5000
H2 H 1.0000 0.2589 0.5000
Cd1 Cd 1.206030(18) 0.452444(19) 0.402436(9)
Cd2 Cd 1.0000 0.0000 0.2500
N1 N 1.1874(3) 0.4196(2) 0.30212(14)
N2 N 1.0723(2) 0.4117(2) 0.46792(14)
O1 O 1.1403(3) 0.2662(2) 0.38588(12)
O2 O 1.0968(3) 0.1377(2) 0.31750(13)
O3 O 1.1830(2) 0.6051(2) 0.41179(12)
O4 O 1.1067(2) 0.6768(2) 0.47010(17)
C1C C 1.1269(3) 0.2331(3) 0.16894(16)
C1A C 0.7669(3) -0.1062(4) 0.33106(16)
C1D C 0.7669(3) -0.1062(4) 0.16894(16)
C1B C 1.1062(4) -0.1269(3) 0.33106(16)
C1E C 1.1062(4) -0.1269(3) 0.16894(16)
C2C C 1.1553(3) 0.3182(3) 0.21746(15)
C2A C 0.6818(3) -0.1629(4) 0.28254(15)
C2D C 0.6818(3) -0.1629(4) 0.21746(15)
C2B C 1.1629(4) -0.1553(3) 0.28254(15)
C2E C 1.1629(4) -0.1553(3) 0.21746(15)
C3A C 0.5234(5) -0.2730(9) 0.2500
C3B C 1.2730(9) -0.2036(7) 0.2500
H1A H 0.4506 -0.3251 0.2500
H1B H 1.3251 -0.2243 0.2500
C4H C 0.8869(2) 0.4835(4) 0.5479(2)
C4A C 1.4034(3) 0.5165(4) 0.4521(2)
C4G C 1.5165(4) 0.4034(3) 0.5479(2)
C4C C 1.1131(2) 0.5966(3) 0.0479(2)
C4K C 0.8869(2) 0.4835(4) -0.0479(2)
C5H C 0.9557(3) 0.4447(4) 0.51908(18)
C5A C 1.5110(3) 0.5553(4) 0.48092(18)
C5G C 1.5553(4) 0.5110(3) 0.51908(18)
C5C C 1.0443(3) 0.4890(3) 0.01908(18)
C5K C 0.9557(3) 0.4447(4) -0.01908(18)
C6A C 1.6761(4) 0.6761(4) 0.5000
C6C C 1.0000 0.3239(4) 0.0000
H2A H 1.7411 0.7411 0.5000
H2C H 1.0000 0.2589 0.0000
Cd1C Cd 1.206030(18) 0.452444(19) 0.097564(9)
Cd1A Cd 0.547556(19) -0.246414(26) 0.402436(9)
Cd1D Cd 0.547556(19) -0.246414(26) 0.097564(9)
Cd1B Cd 1.246414(26) -0.206030(18) 0.402436(9)
Cd1E Cd 1.246414(26) -0.206030(18) 0.097564(9)
Cd1B_2 Cd 1.246414(26) 0.793970(18) 0.402436(9)
Cd1G Cd 0.753586(26) 0.547556(19) 0.597564(9)
Cd1H Cd 0.793970(18) 0.246414(26) 0.597564(9)
Cd1A_2 Cd 1.547556(19) 0.753586(26) 0.402436(9)
Cd1F Cd 1.452444(19) 0.206030(18) 0.597564(9)
Cd1G_2 Cd 1.753586(26) 0.547556(19) 0.597564(9)
Cd1E_2 Cd 1.246414(26) 0.793970(18) 0.097564(9)
Cd1J Cd 0.753586(26) 0.547556(19) -0.097564(9)
Cd1K Cd 0.793970(18) 0.246414(26) -0.097564(9)
N1C N 1.1874(3) 0.4196(2) 0.19788(14)
N1A N 0.5804(2) -0.2322(4) 0.30212(14)
N1D N 0.5804(2) -0.2322(4) 0.19788(14)
N1B N 1.2322(4) -0.1874(3) 0.30212(14)
N1E N 1.2322(4) -0.1874(3) 0.19788(14)
N2H N 0.9277(2) 0.3394(3) 0.53208(14)
N2A N 1.5883(2) 0.6606(3) 0.46792(14)
N2G N 1.6606(3) 0.5883(2) 0.53208(14)
N2C N 1.0723(2) 0.4117(2) 0.03208(14)
N2K N 0.9277(2) 0.3394(3) -0.03208(14)
N2A_2 N 0.5883(2) -0.3394(3) 0.46792(14)
N2D N 0.5883(2) -0.3394(3) 0.03208(14)
N2B N 1.3394(3) -0.0723(2) 0.46792(14)
N2E N 1.3394(3) -0.0723(2) 0.03208(14)
O1C O 1.1403(3) 0.2662(2) 0.11412(12)
O1A O 0.7338(2) -0.1259(4) 0.38588(12)
O1D O 0.7338(2) -0.1259(4) 0.11412(12)
O1B O 1.1259(4) -0.1403(3) 0.38588(12)
O1E O 1.1259(4) -0.1403(3) 0.11412(12)
O2C O 1.0968(3) 0.1377(2) 0.18250(13)
O2A O 0.8623(2) -0.0409(4) 0.31750(13)
O2D O 0.8623(2) -0.0409(4) 0.18250(13)
O2B O 1.0409(4) -0.0968(3) 0.31750(13)
O2E O 1.0409(4) -0.0968(3) 0.18250(13)
O3H O 0.8170(2) 0.4221(3) 0.58821(12)
O3A O 1.3949(2) 0.5779(3) 0.41179(12)
O3G O 1.5779(3) 0.3949(2) 0.58821(12)
O3C O 1.1830(2) 0.6051(2) 0.08821(12)
O3K O 0.8170(2) 0.4221(3) -0.08821(12)
O3D O 1.3949(2) 0.5779(3) 0.08821(12)
O3A_2 O 0.3949(2) -0.4221(3) 0.41179(12)
O3B O 0.4221(3) -0.1830(2) 0.41179(12)
O3D_2 O 0.3949(2) -0.4221(3) 0.08821(12)
O3E O 0.4221(3) -0.1830(2) 0.08821(12)
O3_2 O 1.1830(2) -0.3949(2) 0.41179(12)
O3B_2 O 1.4221(3) -0.1830(2) 0.41179(12)
O3C_2 O 1.1830(2) -0.3949(2) 0.08821(12)
O3E_2 O 1.4221(3) -0.1830(2) 0.08821(12)
O4H O 0.8933(2) 0.5701(3) 0.52990(17)
O4A O 1.3232(2) 0.4299(3) 0.47010(17)
O4G O 1.4299(3) 0.3232(2) 0.52990(17)
O4C O 1.1067(2) 0.6768(2) 0.02990(17)
O4K O 0.8933(2) 0.5701(3) -0.02990(17)
O4D O 1.3232(2) 0.4299(3) 0.02990(17)
O4B O 0.5701(3) -0.1067(2) 0.47010(17)
O4E O 0.5701(3) -0.1067(2) 0.02990(17)
O4_2 O 1.1067(2) -0.3232(2) 0.47010(17)
O4C_2 O 1.1067(2) -0.3232(2) 0.02990(17)
O7? O 1.0755(7) 0.1901(10) 0.5823(5)
loop_
_geom_bond_atom_site_label_1
_geom_bond_atom_site_label_2
_geom_bond_site_symmetry_1
_geom_bond_site_symmetry_2
C1 C2 1_555 1_555
C2 N1 1_555 1_555
C3 H1 1_555 1_555
C4 C5 1_555 1_555
C5 N2 1_555 1_555
C6 H2 1_555 1_555
Cd1 N1 1_555 1_555
Cd2 O2 1_555 1_555
N1 C3 1_555 1_555
N2 C6 1_555 1_555
O1 C1 1_555 1_555
O2 C1 1_555 1_555
O3 C4 1_555 1_555
O4 C4 1_555 1_555
N3 C9 1_555 1_555
C7 C8 1_555 1_555
C8 C9 1_555 1_555
C9 C10 1_555 1_555
C10 C8 1_555 1_555
C11 N3 1_555 1_555
C12 C7 1_555 1_555
C13 C14 1_555 1_555
C14 C8 1_555 1_555
C1C C2C 1_555 1_555
C1A C2A 1_555 1_555
C1D C2D 1_555 1_555
C1B C2B 1_555 1_555
C1E C2E 1_555 1_555
C2C C2 1_555 1_555
C2A C2D 1_555 1_555
C2D N1D 1_555 1_555
C2B C2E 1_555 1_555
C2E N1E 1_555 1_555
C3A H1A 1_555 1_555
C3B H1B 1_555 1_555
C4H C5H 1_555 1_555
C4A C5A 1_555 1_555
C4G C5G 1_555 1_555
C4C C5C 1_555 1_555
C4K C5K 1_555 1_555
C5H C5 1_555 1_555
C5A C5G 1_555 1_555
C5G N2G 1_555 1_555
C5C C5K 1_555 1_555
C5K N2K 1_555 1_555
C6A H2A 1_555 1_555
C6C H2C 1_555 1_555
Cd1C N1C 1_555 1_555
Cd1A N1A 1_555 1_555
Cd1D N1D 1_555 1_555
Cd1B N1B 1_555 1_555
Cd1E N1E 1_555 1_555
Cd1B_2 O3 1_555 1_555
Cd1G O3H 1_555 1_555
Cd1H N2H 1_555 1_555
Cd1A_2 N2A 1_555 1_555
Cd1F O3G 1_555 1_555
Cd1G_2 N2G 1_555 1_555
Cd1E_2 O3C 1_555 1_555
Cd1J O3K 1_555 1_555
Cd1K N2K 1_555 1_555
N1C C3 1_555 1_555
N1A C2A 1_555 1_555
N1D C3A 1_555 1_555
N1B C2B 1_555 1_555
N1E C3B 1_555 1_555
N2H C6 1_555 1_555
N2A C5A 1_555 1_555
N2G C6A 1_555 1_555
N2C C5C 1_555 1_555
N2K C6C 1_555 1_555
N2A_2 Cd1A 1_555 1_555
N2D Cd1D 1_555 1_555
N2B Cd1B 1_555 1_555
N2E Cd1E 1_555 1_555
O1C C1C 1_555 1_555
O1A C1A 1_555 1_555
O1D C1D 1_555 1_555
O1B C1B 1_555 1_555
O1E C1E 1_555 1_555
O2C Cd2 1_555 1_555
O2A Cd2 1_555 1_555
O2D Cd2 1_555 1_555
O2B Cd2 1_555 1_555
O2E Cd2 1_555 1_555
O3H C4H 1_555 1_555
O3A Cd1 1_555 1_555
O3G C4G 1_555 1_555
O3C C4C 1_555 1_555
O3K C4K 1_555 1_555
O3D Cd1C 1_555 1_555
O3A_2 Cd1A 1_555 1_555
O3B Cd1A 1_555 1_555
O3D_2 Cd1D 1_555 1_555
O3E Cd1D 1_555 1_555
O3_2 Cd1B 1_555 1_555
O3B_2 Cd1B 1_555 1_555
O3C_2 Cd1E 1_555 1_555
O3E_2 Cd1E 1_555 1_555
O4H C4H 1_555 1_555
O4A Cd1 1_555 1_555
O4G C4G 1_555 1_555
O4C C4C 1_555 1_555
O4K C4K 1_555 1_555
O4D Cd1C 1_555 1_555
O4B Cd1A 1_555 1_555
O4E Cd1D 1_555 1_555
O4_2 Cd1B 1_555 1_555
O4C_2 Cd1E 1_555 1_555
C7A C8A 1_555 1_555
C7B C8B 1_555 1_555
C8A C9A 1_555 1_555
C8B C9B 1_555 1_555
C9A N3 1_555 1_555
C9B N3 1_555 1_555
C10C C8 1_555 1_555
C10A C11 1_555 1_555
C10D C8A 1_555 1_555
C10B C8B 1_555 1_555
C10E C8B 1_555 1_555
C11B N3 1_555 1_555
C11A N3 1_555 1_555
C11C N3 1_555 1_555
C11D N3 1_555 1_555
C11E N3 1_555 1_555
C12A C7A 1_555 1_555
C12B C7B 1_555 1_555
C13C C14C 1_555 1_555
C13E C14E 1_555 1_555
C13D C14D 1_555 1_555
C13B C14B 1_555 1_555
C13A C14A 1_555 1_555
C14A C8A 1_555 1_555
C14B C8B 1_555 1_555
C14C C8 1_555 1_555
C14E C8B 1_555 1_555
C14D C8A 1_555 1_555
Cd1 N2 1_555 1_555
Cd1 O1 1_555 1_555
Cd1 O3 1_555 1_555
O4 Cd1B_2 1_555 1_555
C9 C10C 1_555 1_555
C9 C11B 1_555 1_555
C9 C11E 1_555 1_555
C10 C14 1_555 1_555
C10 C11B 1_555 1_555
C11 C9A 1_555 1_555
C11 C11B 1_555 1_555
C11 C11A 1_555 1_555
C14 C14C 1_555 1_555
C1C O2C 1_555 1_555
C1A O2A 1_555 1_555
C1D O2D 1_555 1_555
C1B O2B 1_555 1_555
C1E O2E 1_555 1_555
C2C N1C 1_555 1_555
C3A N1A 1_555 1_555
C3B N1B 1_555 1_555
C4A O3A 1_555 1_555
C4A O4A 1_555 1_555
C5H N2H 1_555 1_555
C6A N2A 1_555 1_555
C6C N2C 1_555 1_555
Cd1C N2C 1_555 1_555
Cd1C O1C 1_555 1_555
Cd1C O3C 1_555 1_555
Cd1A O1A 1_555 1_555
Cd1D O1D 1_555 1_555
Cd1B O1B 1_555 1_555
Cd1E O1E 1_555 1_555
Cd1G O4H 1_555 1_555
Cd1H O3H 1_555 1_555
Cd1A_2 O3A 1_555 1_555
Cd1F O4G 1_555 1_555
Cd1G_2 O3G 1_555 1_555
Cd1E_2 O4C 1_555 1_555
Cd1J O4K 1_555 1_555
Cd1K O3K 1_555 1_555
C8A C10A 1_555 1_555
C9A C10A 1_555 1_555
C9A C10D 1_555 1_555
C9A C11C 1_555 1_555
C9B C10B 1_555 1_555
C9B C10E 1_555 1_555
C9B C11A 1_555 1_555
C9B C11D 1_555 1_555
C10C C11E 1_555 1_555
C10C C14C 1_555 1_555
C10A C14A 1_555 1_555
C10D C11C 1_555 1_555
C10D C14D 1_555 1_555
C10B C11A 1_555 1_555
C10B C14B 1_555 1_555
C10E C11D 1_555 1_555
C10E C14E 1_555 1_555
C11B C11A 1_555 1_555
C11C C11D 1_555 1_555
C11C C11E 1_555 1_555
C11D C11E 1_555 1_555
C14A C14D 1_555 1_555
C14B C14E 1_555 1_555

#END
