
#######################################################################
#
#                 Cambridge Crystallographic Data Centre
#                                CCDC 
#
#######################################################################
#
# If this CIF has been generated from an entry in the Cambridge 
# Structural Database, then it will include bibliographic, chemical, 
# crystal, experimental, refinement or atomic coordinate data resulting 
# from the CCDC's data processing and validation procedures.
#
#######################################################################

data_JEDGAB
_symmetry_cell_setting           tetragonal
_symmetry_space_group_name_H-M   'I 41/a'
_symmetry_Int_Tables_number      88
_space_group_name_Hall           '-I 4ad'
loop_
_symmetry_equiv_pos_site_id
_symmetry_equiv_pos_as_xyz
1 x,y,z
2 3/4-y,1/4+x,1/4+z
3 1/2+x,1/2+y,1/2+z
4 1/4-y,3/4+x,3/4+z
5 1/4+y,1/4-x,1/4+z
6 1/2-x,-y,1/2+z
7 3/4+y,3/4-x,3/4+z
8 -x,1/2-y,z
9 -x,-y,-z
10 1/4+y,3/4-x,3/4-z
11 1/2-x,1/2-y,1/2-z
12 3/4+y,1/4-x,1/4-z
13 3/4-y,3/4+x,3/4-z
14 1/2+x,y,1/2-z
15 1/4-y,1/4+x,1/4-z
16 x,1/2+y,-z
_cell_length_a                   12.262(2)
_cell_length_b                   12.262(2)
_cell_length_c                   20.338(3)
_cell_angle_alpha                90
_cell_angle_beta                 90
_cell_angle_gamma                90
_cell_volume                     3057.95
loop_
_atom_site_label
_atom_site_type_symbol
_atom_site_fract_x
_atom_site_fract_y
_atom_site_fract_z
Ag1 Ag 0.4612(5) 0.6297(5) 0.0474(3)
N1 N 0.407(5) 0.613(5) -0.168(3)
C1 C 0.449(5) 0.615(5) -0.108(3)
N2 N 0.555(4) 0.590(4) -0.101(3)
H1 H 0.5818 0.5836 -0.062
N3 N 0.393(4) 0.638(4) -0.052(3)
C2 C 0.287(6) 0.664(5) -0.060(3)
H2 H 0.2455 0.681 -0.023
C3 C 0.238(6) 0.665(5) -0.120(3)
H3 H 0.165 0.6837 -0.1251
C4 C 0.300(6) 0.638(6) -0.173(4)
H4 H 0.2677 0.6372 -0.2145
C5 C 0.626(5) 0.574(5) -0.157(3)
H5 H 0.7011 0.5861 -0.1433
H6 H 0.6095 0.6297 -0.1899
C6 C 0.619(5) 0.463(5) -0.190(3)
O1 O 0.586(4) 0.383(4) -0.157(2)
O2 O 0.653(4) 0.459(4) -0.247(2)
Ag1D Ag 0.8797(5) 0.7888(5) 0.2974(3)
Ag1G Ag 0.5388(5) 0.8703(5) 0.0474(3)
Ag1C Ag 0.6203(5) 0.2112(5) -0.2026(3)
Ag1H Ag 0.5388(5) 0.3703(5) -0.0474(3)
Ag1N Ag 0.6203(5) 0.7112(5) 0.2026(3)
Ag1A Ag 1.1203(5) 0.7112(5) 0.2974(3)
N1D N 0.863(5) 0.843(5) 0.082(3)
C1D C 0.865(5) 0.801(5) 0.142(3)
N2D N 0.840(4) 0.695(4) 0.149(3)
H1D H 0.8336 0.6682 0.188
N3D N 0.888(4) 0.857(4) 0.198(3)
C2D C 0.914(5) 0.963(6) 0.190(3)
H2D H 0.931 1.0045 0.227
C3D C 0.915(5) 1.012(6) 0.130(3)
H3D H 0.9337 1.085 0.1249
C4D C 0.888(6) 0.950(6) 0.077(4)
H4D H 0.8872 0.9823 0.0355
C5D C 0.824(5) 0.624(5) 0.093(3)
H5D H 0.8361 0.5489 0.1067
H6D H 0.8797 0.6405 0.0601
C6D C 0.713(5) 0.631(5) 0.060(3)
O1D O 0.633(4) 0.664(4) 0.093(2)
O1H O 0.414(4) 0.617(4) 0.157(2)
O1N O 0.867(4) 0.836(4) 0.407(2)
O1E O 0.914(4) 0.617(4) 0.343(2)
O2D O 0.709(4) 0.597(4) 0.003(2)
O3 O 0.5000 0.7500 -0.288(8)
H7 H 0.47(14) 0.693(9) -0.26(4)
H7G H 0.53(14) 0.807(9) -0.26(4)
loop_
_geom_bond_atom_site_label_1
_geom_bond_atom_site_label_2
_geom_bond_site_symmetry_1
_geom_bond_site_symmetry_2
Ag1 N3 1_555 1_555
N1 C1 1_555 1_555
C1 N2 1_555 1_555
N2 H1 1_555 1_555
N3 C1 1_555 1_555
C2 N3 1_555 1_555
H2 C2 1_555 1_555
C3 C2 1_555 1_555
H3 C3 1_555 1_555
C4 N1 1_555 1_555
H4 C4 1_555 1_555
C5 N2 1_555 1_555
H5 C5 1_555 1_555
H6 C5 1_555 1_555
C6 C5 1_555 1_555
O1 C6 1_555 1_555
O2 C6 1_555 1_555
O3 H7 1_555 1_555
Ag1D Ag1A 1_555 1_555
Ag1G Ag1 1_555 1_555
Ag1C O1 1_555 1_555
Ag1H O1 1_555 1_555
Ag1N O1D 1_555 1_555
N1D C1D 1_555 1_555
C1D N2D 1_555 1_555
N2D H1D 1_555 1_555
N3D Ag1D 1_555 1_555
C2D N3D 1_555 1_555
H2D C2D 1_555 1_555
C3D C2D 1_555 1_555
H3D C3D 1_555 1_555
C4D N1D 1_555 1_555
H4D C4D 1_555 1_555
C5D N2D 1_555 1_555
H5D C5D 1_555 1_555
H6D C5D 1_555 1_555
C6D C5D 1_555 1_555
O1D Ag1 1_555 1_555
O1H Ag1 1_555 1_555
O1N Ag1D 1_555 1_555
O1E Ag1D 1_555 1_555
O2D C6D 1_555 1_555
H7G O3 1_555 1_555
C3 C4 1_555 1_555
C1D N3D 1_555 1_555
C3D C4D 1_555 1_555
C6D O1D 1_555 1_555

#END
