
#######################################################################
#
#                 Cambridge Crystallographic Data Centre
#                                CCDC 
#
#######################################################################
#
# If this CIF has been generated from an entry in the Cambridge 
# Structural Database, then it will include bibliographic, chemical, 
# crystal, experimental, refinement or atomic coordinate data resulting 
# from the CCDC's data processing and validation procedures.
#
#######################################################################

data_JEDGEF
_symmetry_cell_setting           monoclinic
_symmetry_space_group_name_H-M   'C 2/c'
_symmetry_Int_Tables_number      15
_space_group_name_Hall           '-C 2yn'
loop_
_symmetry_equiv_pos_site_id
_symmetry_equiv_pos_as_xyz
1 x,y,z
2 1/2+x,1/2+y,z
3 -x,y,1/2-z
4 1/2-x,1/2+y,1/2-z
5 -x,-y,-z
6 1/2-x,1/2-y,-z
7 x,-y,1/2+z
8 1/2+x,1/2-y,1/2+z
_cell_length_a                   19.951(5)
_cell_length_b                   7.656(2)
_cell_length_c                   31.410(3)
_cell_angle_alpha                90
_cell_angle_beta                 94.240(10)
_cell_angle_gamma                90
_cell_volume                     4784.59
loop_
_atom_site_label
_atom_site_type_symbol
_atom_site_fract_x
_atom_site_fract_y
_atom_site_fract_z
C1 C 0.9416(6) 0.8397(14) 0.9309(4)
C2 C 1.2010(5) 1.0866(14) 0.9287(4)
C3 C 0.9090(7) 0.7284(17) 0.8935(4)
H1 H 0.942 0.709 0.8729
H2 H 0.8968 0.6153 0.9045
C4 C 1.1826(7) 0.9766(18) 0.8894(4)
H3 H 1.1571 1.049 0.8687
H4 H 1.2238 0.9431 0.877
C5 C 1.1724(6) 0.6770(17) 0.9141(4)
C6 C 0.8531(6) 0.905(2) 0.8383(4)
C7 C 0.7886(7) 0.980(2) 0.8193(4)
C8 C 1.1208(6) 0.5331(14) 0.9197(4)
C9 C 1.1016(6) 0.4888(17) 0.9588(5)
C10 C 0.7800(7) 1.160(2) 0.8142(4)
C11 C 0.7224(7) 1.229(2) 0.7932(5)
H5 H 0.7174 1.3491 0.7891
C12 C 1.0503(6) 0.3675(17) 0.9630(5)
H6 H 1.0366 0.3378 0.9897
C13 C 1.0201(7) 0.2919(19) 0.9258(5)
H7 H 0.9849 0.2133 0.9277
C14 C 0.6715(8) 1.111(3) 0.7780(5)
H8 H 0.6325 1.1525 0.7635
C15 C 1.0406(7) 0.3299(18) 0.8885(5)
H9 H 1.0213 0.2729 0.8645
C16 C 0.6795(9) 0.933(3) 0.7848(5)
H10 H 0.6454 0.8563 0.7752
C17 C 1.0909(7) 0.4541(19) 0.8834(5)
H11 H 1.1038 0.4828 0.8565
C18 C 0.7366(8) 0.868(2) 0.8053(5)
H12 H 0.7409 0.7488 0.8101
Ag1 Ag 1.06671(5) 0.95158(15) 0.98619(4)
Ag2 Ag 1.27435(6) 0.39876(18) 0.97285(4)
I1 I 1.14649(5) 0.60971(13) 1.01397(3)
I2 I 0.85374(6) 1.33651(17) 0.83633(4)
N1 N 1.1443(5) 0.8204(14) 0.8959(3)
H13 H 1.1021 0.8193 0.888
N2 N 0.8506(5) 0.8059(16) 0.8722(3)
H14 H 0.8122 0.7869 0.8821
O1 O 1.0026(4) 0.8292(12) 0.9360(3)
O2 O 1.2423(4) 1.2068(11) 0.9226(3)
O3 O 0.9022(4) 0.9220(12) 0.9518(3)
O4 O 1.1760(4) 1.0524(12) 0.9615(3)
O5 O 1.2322(4) 0.6591(13) 0.9245(3)
O6 O 0.9062(5) 0.936(2) 0.8216(4)
C1D C 1.0584(6) 1.1603(14) 1.0691(4)
C2_2 C 1.2010(5) 0.0866(14) 0.9287(4)
C3D C 1.0910(7) 1.2716(17) 1.1065(4)
H1D H 1.058 1.291 1.1271
H2D H 1.1032 1.3847 1.0955
C4_2 C 1.1826(7) -0.0234(18) 0.8894(4)
H3_2 H 1.1571 0.049 0.8687
H4_2 H 1.2238 -0.0569 0.877
C5_2 C 1.1724(6) -0.3230(17) 0.9141(4)
C6D C 1.1469(6) 1.095(2) 1.1617(4)
C7D C 1.2114(7) 1.020(2) 1.1807(4)
C8_2 C 1.1208(6) -0.4669(14) 0.9197(4)
C9_2 C 1.1016(6) -0.5112(17) 0.9588(5)
C10D C 1.2200(7) 0.840(2) 1.1858(4)
C11D C 1.2776(7) 0.771(2) 1.2068(5)
H5D H 1.2826 0.6509 1.2109
C12_2 C 1.0503(6) -0.6325(17) 0.9630(5)
H6_2 H 1.0366 -0.6622 0.9897
C13_2 C 1.0201(7) -0.7081(19) 0.9258(5)
H7_2 H 0.9849 -0.7867 0.9277
C14D C 1.3285(8) 0.889(3) 1.2220(5)
H8D H 1.3675 0.8475 1.2365
C15_2 C 1.0406(7) -0.6701(18) 0.8885(5)
H9_2 H 1.0213 -0.7271 0.8645
C16D C 1.3205(9) 1.067(3) 1.2152(5)
H10D H 1.3546 1.1437 1.2248
C17_2 C 1.0909(7) -0.5459(19) 0.8834(5)
H11_2 H 1.1038 -0.5172 0.8565
C18D C 1.2634(8) 1.132(2) 1.1947(5)
H12D H 1.2591 1.2512 1.1899
Ag1D Ag 0.93329(5) 1.04842(15) 1.01381(4)
Ag1_2 Ag 1.06671(5) -0.04842(15) 0.98619(4)
Ag2_2 Ag 1.27435(6) 1.39876(18) 0.97285(4)
Ag2E Ag 1.22565(6) 0.10124(18) 1.02715(4)
Ag2A Ag 0.77435(6) 0.89876(18) 0.97285(4)
Ag2E_2 Ag 1.22565(6) 1.10124(18) 1.02715(4)
Ag2_3 Ag 1.27435(6) -0.60124(18) 0.97285(4)
I1_2 I 1.14649(5) -0.39029(13) 1.01397(3)
I1D I 0.85351(5) 1.39029(13) 0.98603(3)
I1_3 I 1.14649(5) 1.60971(13) 1.01397(3)
I2D I 1.14626(6) 0.66349(17) 1.16367(4)
N1_2 N 1.1443(5) -0.1796(14) 0.8959(3)
H13_2 H 1.1021 -0.1807 0.888
N2D N 1.1494(5) 1.1941(16) 1.1278(3)
H14D H 1.1878 1.2131 1.1179
O1D O 0.9974(4) 1.1708(12) 1.0640(3)
O2_2 O 1.2423(4) 0.2068(11) 0.9226(3)
O3D O 1.0978(4) 1.0780(12) 1.0482(3)
O3A O 1.4022(4) 0.4220(12) 0.9518(3)
O3A_2 O 1.4022(4) 1.4220(12) 0.9518(3)
O4_2 O 1.1760(4) 0.0524(12) 0.9615(3)
O4E O 1.3240(4) 0.4476(12) 1.0385(3)
O4D O 0.8240(4) 0.9476(12) 1.0385(3)
O4E_2 O 1.3240(4) 1.4476(12) 1.0385(3)
O5_2 O 1.2322(4) -0.3409(13) 0.9245(3)
O5_3 O 1.2322(4) 1.6591(13) 0.9245(3)
O6D O 1.0938(5) 1.064(2) 1.1784(4)
O7 O 0.9116(12) 0.053(3) 0.7347(7)
O8 O 0.0372(8) 0.837(4) 0.8189(7)
O9 O 1.00000 0.588(8) 0.75000
O10 O 1.00000 0.33(2) 0.75000
loop_
_geom_bond_atom_site_label_1
_geom_bond_atom_site_label_2
_geom_bond_site_symmetry_1
_geom_bond_site_symmetry_2
C1 C3 1_555 1_555
C2 C4 1_555 1_555
C3 H1 1_555 1_555
H2 C3 1_555 1_555
C4 H3 1_555 1_555
H4 C4 1_555 1_555
C5 C8 1_555 1_555
C6 C7 1_555 1_555
C7 C10 1_555 1_555
C8 C9 1_555 1_555
C9 C12 1_555 1_555
C10 C11 1_555 1_555
C11 H5 1_555 1_555
C12 H6 1_555 1_555
C13 C12 1_555 1_555
H7 C13 1_555 1_555
C14 C11 1_555 1_555
H8 C14 1_555 1_555
C15 C13 1_555 1_555
H9 C15 1_555 1_555
C16 C14 1_555 1_555
H10 C16 1_555 1_555
C17 C8 1_555 1_555
H11 C17 1_555 1_555
C18 C7 1_555 1_555
H12 C18 1_555 1_555
Ag1 I1 1_555 1_555
Ag2 I1 1_555 1_555
I1 C9 1_555 1_555
I2 C10 1_555 1_555
N1 C4 1_555 1_555
H13 N1 1_555 1_555
N2 C3 1_555 1_555
H14 N2 1_555 1_555
O1 C1 1_555 1_555
O2 C2 1_555 1_555
O3 C1 1_555 1_555
O4 C2 1_555 1_555
O5 C5 1_555 1_555
O6 C6 1_555 1_555
C1D C3D 1_555 1_555
C2_2 C4_2 1_555 1_555
C3D H1D 1_555 1_555
H2D C3D 1_555 1_555
C4_2 H3_2 1_555 1_555
H4_2 C4_2 1_555 1_555
C5_2 C8_2 1_555 1_555
C6D C7D 1_555 1_555
C7D C10D 1_555 1_555
C8_2 C9_2 1_555 1_555
C9_2 C12_2 1_555 1_555
C10D C11D 1_555 1_555
C11D H5D 1_555 1_555
C12_2 H6_2 1_555 1_555
C13_2 C12_2 1_555 1_555
H7_2 C13_2 1_555 1_555
C14D C11D 1_555 1_555
H8D C14D 1_555 1_555
C15_2 C13_2 1_555 1_555
H9_2 C15_2 1_555 1_555
C16D C14D 1_555 1_555
H10D C16D 1_555 1_555
C17_2 C8_2 1_555 1_555
H11_2 C17_2 1_555 1_555
C18D C7D 1_555 1_555
H12D C18D 1_555 1_555
Ag1D Ag1 1_555 1_555
Ag1_2 I1_2 1_555 1_555
Ag2_2 O2 1_555 1_555
Ag2E Ag2 1_555 1_555
Ag2A O3 1_555 1_555
Ag2E_2 O4 1_555 1_555
Ag2_3 I1_2 1_555 1_555
I1_2 C9_2 1_555 1_555
I1D Ag1D 1_555 1_555
I1_3 Ag2_2 1_555 1_555
I2D C10D 1_555 1_555
N1_2 C4_2 1_555 1_555
H13_2 N1_2 1_555 1_555
N2D C3D 1_555 1_555
H14D N2D 1_555 1_555
O1D C1D 1_555 1_555
O2_2 Ag2 1_555 1_555
O3D Ag1 1_555 1_555
O3A Ag2 1_555 1_555
O3A_2 Ag2_2 1_555 1_555
O4_2 C2_2 1_555 1_555
O4E Ag2 1_555 1_555
O4D Ag1D 1_555 1_555
O4E_2 Ag2_2 1_555 1_555
O5_2 C5_2 1_555 1_555
O5_3 Ag2_2 1_555 1_555
O6D C6D 1_555 1_555
C5 N1 1_555 1_555
C6 N2 1_555 1_555
C15 C17 1_555 1_555
C16 C18 1_555 1_555
Ag1 O1 1_555 1_555
Ag1 O4 1_555 1_555
Ag2 O5 1_555 1_555
O3 Ag1D 1_555 1_555
C1D O3D 1_555 1_555
C2_2 O2_2 1_555 1_555
C5_2 N1_2 1_555 1_555
C6D N2D 1_555 1_555
C15_2 C17_2 1_555 1_555
C16D C18D 1_555 1_555
Ag1D O1D 1_555 1_555
Ag1_2 O4_2 1_555 1_555
Ag2_2 Ag2E_2 1_555 1_555
Ag2E O4_2 1_555 1_555
Ag2A O4D 1_555 1_555
Ag2E_2 O3D 1_555 1_555
Ag2_3 O5_2 1_555 1_555

#END
