
#######################################################################
#
#                 Cambridge Crystallographic Data Centre
#                                CCDC 
#
#######################################################################
#
# If this CIF has been generated from an entry in the Cambridge 
# Structural Database, then it will include bibliographic, chemical, 
# crystal, experimental, refinement or atomic coordinate data resulting 
# from the CCDC's data processing and validation procedures.
#
#######################################################################

data_JEDJOR
_symmetry_cell_setting           monoclinic
_symmetry_space_group_name_H-M   'P 21/c'
_symmetry_Int_Tables_number      14
_space_group_name_Hall           '-P 2ybc'
loop_
_symmetry_equiv_pos_site_id
_symmetry_equiv_pos_as_xyz
1 x,y,z
2 -x,1/2+y,1/2-z
3 -x,-y,-z
4 x,1/2-y,1/2+z
_cell_length_a                   12.409(1)
_cell_length_b                   8.922(6)
_cell_length_c                   14.071(3)
_cell_angle_alpha                90
_cell_angle_beta                 110.06(1)
_cell_angle_gamma                90
_cell_volume                     1463.34
loop_
_atom_site_label
_atom_site_type_symbol
_atom_site_fract_x
_atom_site_fract_y
_atom_site_fract_z
Sn1 Sn 0.17321(3) 0.63649(4) 0.25255(3)
O1 O 0.0439(3) 0.4403(4) 0.2577(3)
O2 O 0.0136(3) 0.2256(4) 0.3264(3)
O3 O 0.3575(3) 0.6888(5) 0.3061(3)
O4 O 0.5007(3) 0.8490(5) 0.3271(4)
N1 N 0.2715(4) 0.4034(5) 0.3394(3)
N2 N 0.2062(3) 0.8842(5) 0.1879(3)
C1 C 0.1664(5) 0.7139(7) 0.3922(4)
C2 C 0.1653(6) 0.5485(7) 0.1119(4)
C3 C 0.0766(4) 0.3230(6) 0.3067(4)
C4 C 0.2035(4) 0.2924(6) 0.3486(4)
C5 C 0.3857(5) 0.3824(7) 0.3792(5)
C6 C 0.4330(5) 0.2512(8) 0.4270(6)
C7 C 0.3631(5) 0.1360(7) 0.4342(5)
C8 C 0.2460(4) 0.1563(6) 0.3947(4)
C9 C 0.4006(4) 0.8151(6) 0.2899(4)
C10 C 0.3178(4) 0.9209(6) 0.2180(4)
C11 C 0.1310(4) 0.9784(6) 0.1257(4)
C12 C 0.1627(5) 1.1116(6) 0.0914(4)
C13 C 0.2771(5) 1.1488(6) 0.1236(4)
C14 C 0.3554(4) 1.0537(6) 0.1867(4)
H1 H 0.232 0.777 0.424
H2 H 0.096 0.771 0.380
H3 H 0.166 0.628 0.435
H4 H 0.231 0.583 0.096
H5 H 0.166 0.440 0.115
H6 H 0.096 0.582 0.060
H7 H 0.436 0.463 0.375
H8 H 0.516 0.240 0.456
H9 H 0.395 0.042 0.467
H10 H 0.194 0.077 0.398
H11 H 0.050 0.952 0.103
H12 H 0.106 1.177 0.046
H13 H 0.302 1.241 0.101
H14 H 0.437 1.078 0.211
O2A O -0.0136(3) 0.7256(4) 0.1736(3)
Sn1A Sn -0.17321(3) 0.13649(4) 0.24745(3)
loop_
_geom_bond_atom_site_label_1
_geom_bond_atom_site_label_2
_geom_bond_site_symmetry_1
_geom_bond_site_symmetry_2
Sn1 O1 1_555 1_555
O1 C3 1_555 1_555
O2 C3 1_555 1_555
O3 Sn1 1_555 1_555
O4 C9 1_555 1_555
N1 Sn1 1_555 1_555
N2 Sn1 1_555 1_555
C1 Sn1 1_555 1_555
C2 Sn1 1_555 1_555
C3 C4 1_555 1_555
C4 N1 1_555 1_555
C5 N1 1_555 1_555
C6 C5 1_555 1_555
C7 C6 1_555 1_555
C8 C4 1_555 1_555
C9 O3 1_555 1_555
C10 N2 1_555 1_555
C11 N2 1_555 1_555
C12 C11 1_555 1_555
C13 C12 1_555 1_555
C14 C10 1_555 1_555
H1 C1 1_555 1_555
H2 C1 1_555 1_555
H3 C1 1_555 1_555
H4 C2 1_555 1_555
H5 C2 1_555 1_555
H6 C2 1_555 1_555
H7 C5 1_555 1_555
H8 C6 1_555 1_555
H9 C7 1_555 1_555
H10 C8 1_555 1_555
H11 C11 1_555 1_555
H12 C12 1_555 1_555
H13 C13 1_555 1_555
H14 C14 1_555 1_555
O2A Sn1 1_555 1_555
Sn1A O2 1_555 1_555
C7 C8 1_555 1_555
C9 C10 1_555 1_555
C13 C14 1_555 1_555

#END
