
#######################################################################
#
#                 Cambridge Crystallographic Data Centre
#                                CCDC 
#
#######################################################################
#
# If this CIF has been generated from an entry in the Cambridge 
# Structural Database, then it will include bibliographic, chemical, 
# crystal, experimental, refinement or atomic coordinate data resulting 
# from the CCDC's data processing and validation procedures.
#
#######################################################################

data_JEDJOR01
_symmetry_cell_setting           monoclinic
_symmetry_space_group_name_H-M   'P 21/c'
_symmetry_Int_Tables_number      14
_space_group_name_Hall           '-P 2ybc'
loop_
_symmetry_equiv_pos_site_id
_symmetry_equiv_pos_as_xyz
1 x,y,z
2 x,1/2-y,1/2+z
3 -x,-y,-z
4 -x,1/2+y,1/2-z
_cell_length_a                   12.304(9)
_cell_length_b                   8.857(3)
_cell_length_c                   13.940(10)
_cell_angle_alpha                90
_cell_angle_beta                 109.50(3)
_cell_angle_gamma                90
_cell_volume                     1432
loop_
_atom_site_label
_atom_site_type_symbol
_atom_site_fract_x
_atom_site_fract_y
_atom_site_fract_z
Sn1 Sn 0.173833(15) 0.136065(19) 0.251979(13)
O1 O 0.04382(16) -0.0594(2) 0.25687(16)
O2 O 0.01261(16) -0.2757(2) 0.32671(15)
O3 O 0.35902(17) 0.1903(2) 0.30586(18)
O4 O 0.50323(17) 0.3540(2) 0.32880(18)
N1 N 0.27276(19) -0.0959(3) 0.33905(18)
N2 N 0.20683(19) 0.3844(2) 0.18810(17)
C1 C 0.0768(2) -0.1794(3) 0.3056(2)
C2 C 0.2048(2) -0.2095(3) 0.3480(2)
C3 C 0.2469(2) -0.3460(3) 0.3936(2)
H1 H 0.1956 -0.4245 0.3970
C4 C 0.3646(3) -0.3659(3) 0.4342(2)
H2 H 0.3959 -0.4581 0.4665
C5 C 0.4358(3) -0.2501(4) 0.4270(3)
H3 H 0.5172 -0.2610 0.4546
C6 C 0.3875(3) -0.1173(3) 0.3789(3)
H4 H 0.4374 -0.0380 0.3739
C7 C 0.4020(2) 0.3162(3) 0.2905(2)
C8 C 0.3189(2) 0.4243(3) 0.2186(2)
C9 C 0.3565(2) 0.5561(3) 0.1880(2)
H5 H 0.4362 0.5807 0.2111
C10 C 0.2773(3) 0.6521(3) 0.1236(2)
H6 H 0.3012 0.7444 0.1022
C11 C 0.1623(2) 0.6113(3) 0.0907(2)
H7 H 0.1059 0.6745 0.0453
C12 C 0.1307(2) 0.4777(3) 0.1247(2)
H8 H 0.0514 0.4508 0.1022
C13 C 0.1641(3) 0.2131(4) 0.3914(2)
H9 H 0.0940 0.1735 0.4009
H10 H 0.1620 0.3237 0.3913
H11 H 0.2317 0.1779 0.4471
C14 C 0.1690(3) 0.0472(3) 0.1111(2)
H12 H 0.1348 -0.0540 0.1027
H13 H 0.2475 0.0411 0.1087
H14 H 0.1223 0.1130 0.0563
O2C O -0.01261(16) 0.2243(2) 0.17329(15)
Sn1C Sn -0.173833(15) -0.363935(19) 0.248021(13)
loop_
_geom_bond_atom_site_label_1
_geom_bond_atom_site_label_2
_geom_bond_site_symmetry_1
_geom_bond_site_symmetry_2
Sn1 O1 1_555 1_555
O1 C1 1_555 1_555
O2 C1 1_555 1_555
O3 Sn1 1_555 1_555
O4 C7 1_555 1_555
N1 Sn1 1_555 1_555
N2 Sn1 1_555 1_555
C1 C2 1_555 1_555
C2 N1 1_555 1_555
C3 C2 1_555 1_555
H1 C3 1_555 1_555
C4 C3 1_555 1_555
H2 C4 1_555 1_555
C5 C4 1_555 1_555
H3 C5 1_555 1_555
C6 N1 1_555 1_555
H4 C6 1_555 1_555
C7 O3 1_555 1_555
C8 N2 1_555 1_555
C9 C8 1_555 1_555
H5 C9 1_555 1_555
C10 C9 1_555 1_555
H6 C10 1_555 1_555
C11 C10 1_555 1_555
H7 C11 1_555 1_555
C12 N2 1_555 1_555
H8 C12 1_555 1_555
C13 Sn1 1_555 1_555
H9 C13 1_555 1_555
H10 C13 1_555 1_555
H11 C13 1_555 1_555
C14 Sn1 1_555 1_555
H12 C14 1_555 1_555
H13 C14 1_555 1_555
H14 C14 1_555 1_555
O2C Sn1 1_555 1_555
Sn1C O2 1_555 1_555
C5 C6 1_555 1_555
C7 C8 1_555 1_555
C11 C12 1_555 1_555

#END
