
#######################################################################
#
#                 Cambridge Crystallographic Data Centre
#                                CCDC 
#
#######################################################################
#
# If this CIF has been generated from an entry in the Cambridge 
# Structural Database, then it will include bibliographic, chemical, 
# crystal, experimental, refinement or atomic coordinate data resulting 
# from the CCDC's data processing and validation procedures.
#
#######################################################################

data_JEDKAF
_symmetry_cell_setting           triclinic
_symmetry_space_group_name_H-M   'P -1'
_symmetry_Int_Tables_number      2
_space_group_name_Hall           '-P 1'
loop_
_symmetry_equiv_pos_site_id
_symmetry_equiv_pos_as_xyz
1 x,y,z
2 -x,-y,-z
_cell_length_a                   8.7673(4)
_cell_length_b                   9.8149(4)
_cell_length_c                   10.1743(4)
_cell_angle_alpha                113.897(3)
_cell_angle_beta                 105.754(3)
_cell_angle_gamma                102.104(3)
_cell_volume                     717.744
loop_
_atom_site_label
_atom_site_type_symbol
_atom_site_fract_x
_atom_site_fract_y
_atom_site_fract_z
Gd1 Gd 0.11566(3) 0.17986(3) 0.24089(3)
Na1 Na 0.5716(4) 0.4017(3) 0.3353(3)
O1 O 0.0276(5) -0.1094(4) 0.0435(5)
O2 O 0.0966(5) -0.2804(5) -0.1266(5)
O3 O 0.6066(5) 0.1381(5) 0.2153(6)
O4 O 0.3441(5) 0.1280(5) 0.1732(5)
O5 O 0.7782(5) -0.0890(5) 0.5747(5)
O6 O 0.6163(5) -0.3299(4) 0.5079(5)
O7 O 0.2400(6) -0.4126(6) 0.4419(6)
O8 O 0.2714(5) -0.5886(4) 0.2363(5)
C1 C 0.2559(6) -0.1882(6) 0.1401(6)
C2 C 0.4192(6) -0.0719(6) 0.2194(6)
C3 C 0.5427(6) -0.0832(6) 0.3304(6)
C4 C 0.5055(6) -0.2061(6) 0.3647(6)
C5 C 0.3406(7) -0.3204(6) 0.2886(6)
C6 C 0.2178(7) -0.3123(6) 0.1752(6)
C7 C 0.1200(6) -0.1921(6) 0.0118(6)
C8 C 0.4607(7) 0.0730(6) 0.1987(6)
C9 C 0.6400(6) -0.2101(6) 0.4879(6)
C10 C 0.2821(7) -0.4497(7) 0.3281(7)
O9 O -0.1538(6) 0.0153(5) 0.1998(6)
O10 O 0.6806(12) 0.4518(10) 0.1699(11)
O11 O 0.0298(7) 0.3213(7) 0.4543(6)
H1 H 0.6463 -0.0003 0.3823
H2 H 0.1191 -0.3903 0.1119
Gd1A Gd -0.11566(3) -0.17986(3) -0.24089(3)
Gd1A_2 Gd 0.88434(3) -0.17986(3) 0.75911(3)
Gd1_2 Gd 0.11566(3) -0.82014(3) 0.24089(3)
Na1_2 Na 0.5716(4) -0.5983(3) 0.3353(3)
Na1A Na 0.4284(4) -0.4017(3) 0.6647(3)
O1A O -0.0276(5) 0.1094(4) -0.0435(5)
O2A O -0.0966(5) 0.2804(5) 0.1266(5)
O5A O 0.2218(5) 0.0890(5) 0.4253(5)
O6A O 0.3837(5) 0.3299(4) 0.4921(5)
O6_2 O 0.6163(5) 0.6701(4) 0.5079(5)
O7A O 0.7600(6) 0.4126(6) 0.5581(6)
O8_2 O 0.2714(5) 0.4114(4) 0.2363(5)
O12 O 0.3155(9) -0.6716(7) -0.0473(8)
O13 O 1.0275(15) 0.1943(12) 0.6469(14)
loop_
_geom_bond_atom_site_label_1
_geom_bond_atom_site_label_2
_geom_bond_site_symmetry_1
_geom_bond_site_symmetry_2
Gd1 O1 1_555 1_555
Na1 O3 1_555 1_555
O1 C7 1_555 1_555
O2 C7 1_555 1_555
O3 C8 1_555 1_555
O4 Gd1 1_555 1_555
O5 C9 1_555 1_555
O6 C9 1_555 1_555
O7 C10 1_555 1_555
O8 C10 1_555 1_555
C1 C2 1_555 1_555
C2 C3 1_555 1_555
C3 C4 1_555 1_555
C4 C5 1_555 1_555
C5 C6 1_555 1_555
C6 C1 1_555 1_555
C7 C1 1_555 1_555
C8 O4 1_555 1_555
C9 C4 1_555 1_555
C10 C5 1_555 1_555
O9 Gd1 1_555 1_555
O10 Na1 1_555 1_555
O11 Gd1 1_555 1_555
H1 C3 1_555 1_555
H2 C6 1_555 1_555
Gd1A O1 1_555 1_555
Gd1A_2 O5 1_555 1_555
Gd1_2 O8 1_555 1_555
Na1_2 O6 1_555 1_555
Na1A O6 1_555 1_555
O1A Gd1 1_555 1_555
O2A Gd1 1_555 1_555
O5A Gd1 1_555 1_555
O6A Gd1 1_555 1_555
O6_2 Na1 1_555 1_555
O7A Na1 1_555 1_555
O8_2 Gd1 1_555 1_555
Na1 O4 1_555 1_555
Na1 O6A 1_555 1_555
Na1 O8_2 1_555 1_555
O2 Gd1A 1_555 1_555
O6 Gd1A_2 1_555 1_555
O7 Na1A 1_555 1_555
O8 Na1_2 1_555 1_555
C2 C8 1_555 1_555
Gd1A O1A 1_555 1_555

#END
