
#######################################################################
#
#                 Cambridge Crystallographic Data Centre
#                                CCDC 
#
#######################################################################
#
# If this CIF has been generated from an entry in the Cambridge 
# Structural Database, then it will include bibliographic, chemical, 
# crystal, experimental, refinement or atomic coordinate data resulting 
# from the CCDC's data processing and validation procedures.
#
#######################################################################

data_JEDKIM
_symmetry_cell_setting           trigonal
_symmetry_space_group_name_H-M   'P 3 2 1'
_symmetry_Int_Tables_number      150
_space_group_name_Hall           'P 3 2"'
loop_
_symmetry_equiv_pos_site_id
_symmetry_equiv_pos_as_xyz
1 x,y,z
2 -y,x-y,z
3 -x+y,-x,z
4 y,x,-z
5 x-y,-y,-z
6 -x,-x+y,-z
_cell_length_a                   21.274(5)
_cell_length_b                   21.274(5)
_cell_length_c                   7.9766(7)
_cell_angle_alpha                90
_cell_angle_beta                 90
_cell_angle_gamma                120
_cell_volume                     3126.42
loop_
_atom_site_label
_atom_site_type_symbol
_atom_site_fract_x
_atom_site_fract_y
_atom_site_fract_z
Cu1 Cu 0.56194(7) 0.28009(13) -0.0177(2)
Cu2 Cu 0.50118 0.00000(2) 0.0000
Cl1 Cl 0.66667 0.33333 -0.2947(6)
O1 O 0.4918(5) 0.1800(5) -0.069(2)
O2 O 0.4701(5) 0.0709(5) -0.052(1)
O3 O 0.6209(6) 0.2414(5) 0.0600(9)
O4 O 0.5351(7) 0.0608(7) 0.250(1)
O5 O 0.6868(7) 0.1553(8) 0.287(2)
O6 O 0.577(1) 0.166(1) 0.616(1)
O7 O 0.6892(6) 0.1860(6) -0.084(1)
O8 O 0.5976(6) 0.0689(6) -0.069(1)
C1 C 0.5113(7) 0.1346(7) -0.036(2)
C2 C 0.5790(9) 0.164(1) 0.057(1)
C3 C 0.564(1) 0.138(1) 0.247(1)
C4 C 0.635(1) 0.175(1) 0.353(2)
C5 C 0.622(1) 0.149(1) 0.528(2)
C6 C 0.6298(9) 0.1383(9) -0.031(2)
O1D O 0.3118(7) -0.1800(5) 0.069(2)
O2D O 0.3992(7) -0.0709(5) 0.052(1)
O3D O 0.3795(8) -0.2414(5) -0.0600(9)
O4D O 0.4743(10) -0.0608(7) -0.250(1)
O5D O 0.5315(11) -0.1553(8) -0.287(2)
O6D O 0.411(1) -0.166(1) -0.616(1)
O7D O 0.5032(8) -0.1860(6) 0.084(1)
O8D O 0.5287(8) -0.0689(6) 0.069(1)
C1D C 0.3767(10) -0.1346(7) 0.036(2)
C2D C 0.4150(13) -0.164(1) -0.057(1)
C3D C 0.426(1) -0.138(1) -0.247(1)
C4D C 0.460(1) -0.175(1) -0.353(2)
C5D C 0.473(1) -0.149(1) -0.528(2)
C6D C 0.4915(13) -0.1383(9) 0.031(2)
Cu1D Cu 0.28185(15) -0.28009(13) 0.0177(2)
Cu1A Cu 0.71991(13) 0.28185(15) -0.0177(2)
Cu1E Cu 0.43806(7) -0.28185(15) 0.0177(2)
O1B O 0.6882(7) 0.5082(5) -0.069(2)
O2B O 0.6008(7) 0.5299(5) -0.052(1)
O3B O 0.6205(8) 0.3791(6) 0.0600(9)
O4B O 0.5257(10) 0.4649(7) 0.250(1)
O5B O 0.4685(11) 0.3132(7) 0.287(2)
O6B O 0.589(1) 0.423(1) 0.616(1)
O7B O 0.4968(8) 0.3108(6) -0.084(1)
O8B O 0.4713(8) 0.4024(6) -0.069(1)
C1B C 0.6233(10) 0.4887(7) -0.036(2)
C2B C 0.5850(13) 0.4210(9) 0.057(1)
C3B C 0.574(1) 0.436(1) 0.247(1)
C4B C 0.540(1) 0.365(1) 0.353(2)
C5B C 0.527(1) 0.378(1) 0.528(2)
C6B C 0.5085(13) 0.3702(9) -0.031(2)
Cl1D Cl 0.33334 -0.33333 0.2947(6)
O1C O 0.1800(5) -0.5082(5) 0.069(2)
O2C O 0.0709(5) -0.5299(5) 0.052(1)
O3C O 0.2414(5) -0.3791(6) -0.0600(9)
O4C O 0.0608(7) -0.4649(7) -0.250(1)
O5C O 0.1553(8) -0.3132(7) -0.287(2)
O6C O 0.166(1) -0.423(1) -0.616(1)
O7C O 0.1860(6) -0.3108(6) 0.084(1)
O8C O 0.0689(6) -0.4024(6) 0.069(1)
C1C C 0.1346(7) -0.4887(7) 0.036(2)
C2C C 0.164(1) -0.4210(9) -0.057(1)
C3C C 0.138(1) -0.436(1) -0.247(1)
C4C C 0.175(1) -0.365(1) -0.353(2)
C5C C 0.149(1) -0.378(1) -0.528(2)
C6C C 0.1383(9) -0.3702(9) 0.031(2)
Cu2B Cu 0.49882(2) 0.49882 0.0000
Cu2C Cu 0.00000(2) -0.49882 0.0000
Cu1B Cu 0.71815(15) 0.43806(7) -0.0177(2)
Cu1C Cu 0.28009(13) -0.43806(7) 0.0177(2)
O1A O 0.8200(5) 0.3118(7) -0.069(2)
O3A O 0.7586(5) 0.3795(8) 0.0600(9)
O1E O 0.5082(5) -0.3118(7) 0.069(2)
O3E O 0.3791(6) -0.3795(8) -0.0600(9)
O2E O 0.5299(5) 0.6008(7) 0.052(1)
O4E O 0.4649(7) 0.5257(10) -0.250(1)
O8E O 0.4024(6) 0.4713(8) 0.069(1)
O2A O -0.0709(5) -0.6008(7) -0.052(1)
O4A O -0.0608(7) -0.5257(10) 0.250(1)
O8A O -0.0689(6) -0.4713(8) -0.069(1)
O7A O 0.8140(6) 0.5032(8) -0.084(1)
O7E O 0.3108(6) -0.5032(8) 0.084(1)
O9 O 0.570(1) 0.570 0.5000
O10 O 0.200(4) 0.359(3) 0.205(7)
O11 O 0.110(5) 0.376(5) 0.35(1)
O12 O 0.002(3) 0.329(2) 0.233(5)
O13 O 0.359(2) 0.351(2) 0.280(4)
O14 O 0.00000 0.308(5) 0.0000
O15 O 0.361(6) 0.155(8) 0.01(1)
O16 O 0.420(2) 0.171(2) 0.316(6)
O17 O 0.235(4) 0.410(4) 0.40(1)
loop_
_geom_bond_atom_site_label_1
_geom_bond_atom_site_label_2
_geom_bond_site_symmetry_1
_geom_bond_site_symmetry_2
Cu1 Cl1 1_555 1_555
Cu2 O2 1_555 1_555
Cl1 Cu1A 1_555 1_555
O1 Cu1 1_555 1_555
O2 C1 1_555 1_555
O3 Cu1 1_555 1_555
O4 Cu2 1_555 1_555
O5 C4 1_555 1_555
O6 C5 1_555 1_555
O7 C6 1_555 1_555
O8 Cu2 1_555 1_555
C1 O1 1_555 1_555
C2 O3 1_555 1_555
C3 O4 1_555 1_555
C4 C3 1_555 1_555
C5 C4 1_555 1_555
C6 O8 1_555 1_555
O1D C1D 1_555 1_555
O2D Cu2 1_555 1_555
O3D C2D 1_555 1_555
O4D Cu2 1_555 1_555
O5D C4D 1_555 1_555
O6D C5D 1_555 1_555
O7D C6D 1_555 1_555
O8D Cu2 1_555 1_555
C1D O2D 1_555 1_555
C2D C1D 1_555 1_555
C3D O4D 1_555 1_555
C4D C3D 1_555 1_555
C5D C4D 1_555 1_555
C6D O8D 1_555 1_555
Cu1D O1D 1_555 1_555
Cu1A O3 1_555 1_555
Cu1E O3D 1_555 1_555
O1B C1B 1_555 1_555
O2B C1B 1_555 1_555
O3B Cu1 1_555 1_555
O4B C3B 1_555 1_555
O5B C4B 1_555 1_555
O6B C5B 1_555 1_555
O7B Cu1 1_555 1_555
O8B C6B 1_555 1_555
C1B C2B 1_555 1_555
C2B O3B 1_555 1_555
C3B C2B 1_555 1_555
C4B C3B 1_555 1_555
C5B C4B 1_555 1_555
C6B O7B 1_555 1_555
Cl1D Cu1D 1_555 1_555
O1C C1C 1_555 1_555
O2C C1C 1_555 1_555
O3C Cu1D 1_555 1_555
O4C C3C 1_555 1_555
O5C C4C 1_555 1_555
O6C C5C 1_555 1_555
O7C Cu1D 1_555 1_555
O8C C6C 1_555 1_555
C1C C2C 1_555 1_555
C2C O3C 1_555 1_555
C3C C2C 1_555 1_555
C4C C3C 1_555 1_555
C5C C4C 1_555 1_555
C6C O7C 1_555 1_555
Cu2B O2B 1_555 1_555
Cu2C O2C 1_555 1_555
Cu1B Cl1 1_555 1_555
Cu1C Cl1D 1_555 1_555
O1A Cu1A 1_555 1_555
O3A Cu1A 1_555 1_555
O1E Cu1E 1_555 1_555
O3E Cu1E 1_555 1_555
O2E Cu2B 1_555 1_555
O4E Cu2B 1_555 1_555
O8E Cu2B 1_555 1_555
O2A Cu2C 1_555 1_555
O4A Cu2C 1_555 1_555
O8A Cu2C 1_555 1_555
O7A Cu1B 1_555 1_555
O7E Cu1C 1_555 1_555
O7 Cu1A 1_555 1_555
C1 C2 1_555 1_555
C2 C3 1_555 1_555
C2 C6 1_555 1_555
O3D Cu1D 1_555 1_555
O7D Cu1E 1_555 1_555
C2D C3D 1_555 1_555
C2D C6D 1_555 1_555
Cu1E Cl1D 1_555 1_555
O1B Cu1B 1_555 1_555
O3B Cu1B 1_555 1_555
O4B Cu2B 1_555 1_555
O8B Cu2B 1_555 1_555
C2B C6B 1_555 1_555
O1C Cu1C 1_555 1_555
O3C Cu1C 1_555 1_555
O4C Cu2C 1_555 1_555
O8C Cu2C 1_555 1_555
C2C C6C 1_555 1_555
Cu1B O3A 1_555 1_555
Cu1C O3E 1_555 1_555

#END
