
#######################################################################
#
#                 Cambridge Crystallographic Data Centre
#                                CCDC 
#
#######################################################################
#
# If this CIF has been generated from an entry in the Cambridge 
# Structural Database, then it will include bibliographic, chemical, 
# crystal, experimental, refinement or atomic coordinate data resulting 
# from the CCDC's data processing and validation procedures.
#
#######################################################################

data_JEDQIS
_symmetry_cell_setting           triclinic
_symmetry_space_group_name_H-M   'P -1'
_symmetry_Int_Tables_number      2
_space_group_name_Hall           '-P 1'
loop_
_symmetry_equiv_pos_site_id
_symmetry_equiv_pos_as_xyz
1 x,y,z
2 -x,-y,-z
_cell_length_a                   9.7920(10)
_cell_length_b                   15.474(3)
_cell_length_c                   16.846(3)
_cell_angle_alpha                93.210(10)
_cell_angle_beta                 93.250(10)
_cell_angle_gamma                103.230(10)
_cell_volume                     2474.53
loop_
_atom_site_label
_atom_site_type_symbol
_atom_site_fract_x
_atom_site_fract_y
_atom_site_fract_z
Ni1 Ni 0.0000 0.0000 0.0000
N1 N -0.0092(7) 0.1214(4) 0.0526(4)
H1 H -0.0736(7) 0.1115(4) 0.0899(4)
N2 N 0.1800(7) 0.0114(4) 0.0732(4)
H2 H 0.2547(7) 0.0308(4) 0.0438(4)
N3 N -0.1884(7) 0.1444(5) -0.0443(4)
C1 C -0.0536(9) 0.1816(5) -0.0040(5)
H3 H -0.0563(9) 0.2371(5) 0.0250(5)
H4 H 0.0157(9) 0.1950(5) -0.0431(5)
C2 C 0.1315(8) 0.1571(5) 0.0952(5)
H5 H 0.1265(8) 0.2041(5) 0.1348(5)
H6 H 0.1988(8) 0.1821(5) 0.0577(5)
C3 C 0.1786(9) 0.0833(5) 0.1351(5)
H7 H 0.2720(9) 0.1054(5) 0.1612(5)
H8 H 0.1147(9) 0.0607(5) 0.1750(5)
C4 C 0.1954(9) -0.0722(6) 0.1054(5)
H9 H 0.2850(9) -0.0616(6) 0.1363(5)
H10 H 0.1219(9) -0.0909(6) 0.1413(5)
C5 C -0.3039(8) 0.1302(6) 0.0081(5)
H11 H -0.3086(8) 0.0740(6) 0.0320(5)
H12 H -0.2823(8) 0.1769(6) 0.0510(5)
C6 C -0.4427(9) 0.1289(6) -0.0297(6)
H13 H -0.4674(9) 0.0806(6) -0.0710(6)
H14 H -0.4388(9) 0.1842(6) -0.0548(6)
O1 O -0.5488(6) 0.1177(4) 0.0258(4)
H15 H -0.5933(82) 0.0657(18) 0.0223(50)
Ni2 Ni -0.5000 0.0000 0.5000
N4 N -0.3819(7) 0.1141(4) 0.4610(4)
H16 H -0.4089(7) 0.1606(4) 0.4858(4)
N5 N -0.6699(7) -0.0008(5) 0.4230(4)
H17 H -0.7170(7) 0.0382(5) 0.4444(4)
N6 N -0.5420(8) 0.1127(5) 0.3414(4)
C7 C -0.2379(10) 0.1187(6) 0.4901(5)
H18 H -0.1814(10) 0.1789(6) 0.4886(5)
H19 H -0.1974(10) 0.0792(6) 0.4569(5)
C8 C -0.4003(10) 0.1221(6) 0.3735(5)
H20 H -0.3455(10) 0.1798(6) 0.3614(5)
H21 H -0.3615(10) 0.0772(6) 0.3464(5)
C9 C -0.6330(11) 0.0265(7) 0.3423(5)
H22 H -0.5882(11) -0.0168(7) 0.3174(5)
H23 H -0.7191(11) 0.0251(7) 0.3103(5)
C10 C -0.7599(10) -0.0906(6) 0.4237(6)
H24 H -0.7238(10) -0.1320(6) 0.3902(6)
H25 H -0.8546(10) -0.0911(6) 0.4029(6)
C11 C -0.6082(13) 0.1854(7) 0.3661(7)
H26 H -0.5897(13) 0.1989(7) 0.4232(7)
H27 H -0.7093(13) 0.1658(7) 0.3551(7)
C12 C -0.5553(26) 0.2688(11) 0.3242(14)
H28 H -0.4545(26) 0.2896(11) 0.3355(14)
H29 H -0.5739(26) 0.2562(11) 0.2670(14)
O2 O -0.6217(20) 0.3337(10) 0.3497(16)
H30 H -0.705(11) 0.320(14) 0.333(21)
Ni3 Ni -0.5000 -0.5000 0.0000
N7 N -0.5635(8) -0.5850(4) 0.0879(4)
H31 H -0.5345(8) -0.5543(4) 0.1359(4)
N8 N -0.7031(9) -0.4849(5) -0.0094(5)
H32 H -0.7486(9) -0.5205(5) -0.0522(5)
N9 N -0.3565(10) -0.6447(5) 0.0912(5)
C13 C -0.5058(12) -0.6648(6) 0.0854(6)
H33 H -0.5398(12) -0.7005(6) 0.1289(6)
H34 H -0.5401(12) -0.7002(6) 0.0359(6)
C14 C -0.7211(11) -0.6037(6) 0.0792(6)
H35 H -0.7592(11) -0.6265(6) 0.1278(6)
H36 H -0.7563(11) -0.6487(6) 0.0359(6)
C15 C -0.7684(10) -0.5201(6) 0.0625(6)
H37 H -0.8701(10) -0.5332(6) 0.0540(6)
H38 H -0.7400(10) -0.4764(6) 0.1075(6)
C16 C -0.7123(13) -0.3907(6) -0.0234(6)
H39 H -0.8107(13) -0.3890(6) -0.0301(6)
H40 H -0.6713(13) -0.3525(6) 0.0236(6)
C17 C -0.2856(16) -0.6083(8) 0.1695(7)
H41 H -0.2364(16) -0.5466(8) 0.1674(7)
H42 H -0.3531(16) -0.6120(8) 0.2099(7)
C18 C -0.1730(28) -0.6714(19) 0.1892(12)
H43 H -0.0971(28) -0.6634(19) 0.1538(12)
H44 H -0.2186(28) -0.7340(19) 0.1896(12)
O3 O -0.1339(39) -0.6344(29) 0.2590(20)
H45 H -0.164(71) -0.589(31) 0.265(17)
O4 O -0.1287(5) -0.0717(3) 0.0851(3)
O5 O -0.1920(7) 0.0284(4) 0.1682(4)
O6 O -0.4136(6) -0.0722(3) 0.4113(3)
O7 O -0.4930(9) -0.2164(4) 0.4261(4)
O8 O -0.4319(7) -0.3859(3) 0.0835(3)
O9 O -0.4759(9) -0.4344(4) 0.2029(4)
C19 C -0.1922(7) -0.0511(5) 0.1440(4)
C20 C -0.4363(9) -0.1524(5) 0.3877(5)
C21 C -0.4376(10) -0.3746(5) 0.1580(5)
C22 C -0.2767(8) -0.1252(5) 0.1874(4)
C23 C -0.3159(8) -0.2120(5) 0.1536(4)
H46 H -0.2904(8) -0.2244(5) 0.1027(4)
C24 C -0.3920(8) -0.2806(5) 0.1939(4)
C25 C -0.4269(9) -0.2622(5) 0.2714(5)
H47 H -0.4744(9) -0.3080(5) 0.3001(5)
C26 C -0.3895(8) -0.1733(5) 0.3062(4)
C27 C -0.3162(8) -0.1066(5) 0.2641(4)
H48 H -0.2925(8) -0.0484(5) 0.2866(4)
N1A N 0.0092(7) -0.1214(4) -0.0526(4)
N2A N -0.1800(7) -0.0114(4) -0.0732(4)
O4A O 0.1287(5) 0.0717(3) -0.0851(3)
C4A C -0.1954(9) 0.0722(6) -0.1054(5)
N3A N 0.1884(7) -0.1444(5) 0.0443(4)
N4A N -0.6181(7) -0.1141(4) 0.5390(4)
N5A N -0.3301(7) 0.0008(5) 0.5770(4)
O6A O -0.5864(6) 0.0722(3) 0.5887(3)
C10A C -0.2401(10) 0.0906(6) 0.5763(6)
C7A C -0.7621(10) -0.1187(6) 0.5099(5)
N7A N -0.4365(8) -0.4150(4) -0.0879(4)
N8A N -0.2969(9) -0.5151(5) 0.0094(5)
O8A O -0.5681(7) -0.6141(3) -0.0835(3)
C16A C -0.2877(13) -0.6093(6) 0.0234(6)
N9A N -0.6435(10) -0.3553(5) -0.0912(5)
H1A H 0.0736(7) -0.1115(4) -0.0899(4)
C1A C 0.0536(9) -0.1816(5) 0.0040(5)
C2A C -0.1315(8) -0.1571(5) -0.0952(5)
H2A H -0.2547(7) -0.0308(4) -0.0438(4)
C3A C -0.1786(9) -0.0833(5) -0.1351(5)
H9A H -0.2850(9) 0.0616(6) -0.1363(5)
H10A H -0.1219(9) 0.0909(6) -0.1413(5)
C5A C 0.3039(8) -0.1302(6) -0.0081(5)
H16A H -0.5911(7) -0.1606(4) 0.5142(4)
C8A C -0.5997(10) -0.1221(6) 0.6265(5)
H17A H -0.2830(7) -0.0382(5) 0.5556(4)
C9A C -0.3670(11) -0.0265(7) 0.6577(5)
H24A H -0.2762(10) 0.1320(6) 0.6098(6)
H25A H -0.1454(10) 0.0911(6) 0.5971(6)
H18A H -0.8186(10) -0.1789(6) 0.5114(5)
H19A H -0.8026(10) -0.0792(6) 0.5431(5)
H31A H -0.4655(8) -0.4457(4) -0.1359(4)
C13A C -0.4942(12) -0.3352(6) -0.0854(6)
C14A C -0.2789(11) -0.3963(6) -0.0792(6)
H32A H -0.2514(9) -0.4795(5) 0.0522(5)
C15A C -0.2316(10) -0.4799(6) -0.0625(6)
C21A C -0.5624(10) -0.6254(5) -0.1580(5)
H39A H -0.1893(13) -0.6110(6) 0.0301(6)
H40A H -0.3287(13) -0.6475(6) -0.0236(6)
C17A C -0.7144(16) -0.3917(8) -0.1695(7)
H3A H 0.0563(9) -0.2371(5) -0.0250(5)
H4A H -0.0157(9) -0.1950(5) 0.0431(5)
H5A H -0.1265(8) -0.2041(5) -0.1348(5)
H6A H -0.1988(8) -0.1821(5) -0.0577(5)
H7A H -0.2720(9) -0.1054(5) -0.1612(5)
H8A H -0.1147(9) -0.0607(5) -0.1750(5)
H11A H 0.3086(8) -0.0740(6) -0.0320(5)
H12A H 0.2823(8) -0.1769(6) -0.0510(5)
C6A C 0.4427(9) -0.1289(6) 0.0297(6)
N6A N -0.4580(8) -0.1127(5) 0.6586(4)
H20A H -0.6545(10) -0.1798(6) 0.6386(5)
H21A H -0.6385(10) -0.0772(6) 0.6536(5)
H22A H -0.4118(11) 0.0168(7) 0.6826(5)
H23A H -0.2809(11) -0.0251(7) 0.6897(5)
H33A H -0.4602(12) -0.2995(6) -0.1289(6)
H34A H -0.4599(12) -0.2998(6) -0.0359(6)
H35A H -0.2408(11) -0.3735(6) -0.1278(6)
H36A H -0.2437(11) -0.3513(6) -0.0359(6)
H37A H -0.1299(10) -0.4668(6) -0.0540(6)
H38A H -0.2600(10) -0.5236(6) -0.1075(6)
O9A O -0.5241(9) -0.5656(4) -0.2029(4)
C24A C -0.6080(8) -0.7194(5) -0.1939(4)
H41A H -0.7636(16) -0.4534(8) -0.1674(7)
H42A H -0.6469(16) -0.3880(8) -0.2099(7)
C18A C -0.8270(28) -0.3286(19) -0.1892(12)
H13A H 0.4674(9) -0.0806(6) 0.0710(6)
H14A H 0.4388(9) -0.1842(6) 0.0548(6)
O1A O 0.5488(6) -0.1177(4) -0.0258(4)
C11A C -0.3918(13) -0.1854(7) 0.6339(7)
C23A C -0.6841(8) -0.7880(5) -0.1536(4)
C25A C -0.5731(9) -0.7378(5) -0.2714(5)
H43A H -0.9029(28) -0.3366(19) -0.1538(12)
H44A H -0.7814(28) -0.2660(19) -0.1896(12)
O3A O -0.8661(39) -0.3656(29) -0.2590(20)
H15A H 0.5933(82) -0.0657(18) -0.0223(50)
H26A H -0.4103(13) -0.1989(7) 0.5768(7)
H27A H -0.2907(13) -0.1658(7) 0.6449(7)
C12A C -0.4447(26) -0.2688(11) 0.6758(14)
C22A C -0.7233(8) -0.8748(5) -0.1874(4)
H46A H -0.7096(8) -0.7756(5) -0.1027(4)
H47A H -0.5256(9) -0.6920(5) -0.3001(5)
C26A C -0.6105(8) -0.8267(5) -0.3062(4)
H45A H -0.836(71) -0.411(31) -0.265(17)
H28A H -0.5455(26) -0.2896(11) 0.6645(14)
H29A H -0.4261(26) -0.2562(11) 0.7330(14)
O2A O -0.3783(20) -0.3337(10) 0.6503(16)
C19A C -0.8078(7) -0.9489(5) -0.1440(4)
C27A C -0.6838(8) -0.8934(5) -0.2641(4)
C20A C -0.5637(9) -0.8476(5) -0.3877(5)
H30A H -0.295(11) -0.320(14) 0.667(21)
O4A_2 O -0.8713(5) -0.9283(3) -0.0851(3)
O5A O -0.8080(7) -1.0284(4) -0.1682(4)
H48A H -0.7075(8) -0.9516(5) -0.2866(4)
O6A_2 O -0.5864(6) -0.9278(3) -0.4113(3)
O7A O -0.5070(9) -0.7836(4) -0.4261(4)
Ni1_2 Ni -1.0000 -1.0000 0.0000
Ni2_2 Ni -0.5000 -1.0000 -0.5000
O10 O 0.9729(15) 0.1074(12) 0.3098(8)
O11 O 0.0796(33) 0.6999(10) 0.2111(8)
O12 O -0.0436(13) 0.6096(10) 0.1228(10)
O13 O 0.0775(10) 0.0729(8) 0.4597(8)
O14 O 0.5530(10) 0.0905(8) 0.1776(5)
O15 O 0.5991(35) 0.6404(14) 0.4661(11)
O16 O 0.8795(21) 0.7499(13) 0.4781(16)
O17 O 0.5727(49) 0.5096(15) 0.3433(10)
loop_
_geom_bond_atom_site_label_1
_geom_bond_atom_site_label_2
_geom_bond_site_symmetry_1
_geom_bond_site_symmetry_2
Ni1 N1 1_555 1_555
N1 H1 1_555 1_555
N2 Ni1 1_555 1_555
H2 N2 1_555 1_555
N3 C1 1_555 1_555
C1 N1 1_555 1_555
H3 C1 1_555 1_555
H4 C1 1_555 1_555
C2 N1 1_555 1_555
H5 C2 1_555 1_555
H6 C2 1_555 1_555
C3 N2 1_555 1_555
H7 C3 1_555 1_555
H8 C3 1_555 1_555
C4 N2 1_555 1_555
H9 C4 1_555 1_555
H10 C4 1_555 1_555
C5 N3 1_555 1_555
H11 C5 1_555 1_555
H12 C5 1_555 1_555
C6 C5 1_555 1_555
H13 C6 1_555 1_555
H14 C6 1_555 1_555
O1 C6 1_555 1_555
H15 O1 1_555 1_555
Ni2 N4 1_555 1_555
N4 H16 1_555 1_555
N5 Ni2 1_555 1_555
H17 N5 1_555 1_555
N6 C8 1_555 1_555
C7 N4 1_555 1_555
H18 C7 1_555 1_555
H19 C7 1_555 1_555
C8 N4 1_555 1_555
H20 C8 1_555 1_555
H21 C8 1_555 1_555
C9 N5 1_555 1_555
H22 C9 1_555 1_555
H23 C9 1_555 1_555
C10 N5 1_555 1_555
H24 C10 1_555 1_555
H25 C10 1_555 1_555
C11 N6 1_555 1_555
H26 C11 1_555 1_555
H27 C11 1_555 1_555
C12 C11 1_555 1_555
H28 C12 1_555 1_555
H29 C12 1_555 1_555
O2 C12 1_555 1_555
H30 O2 1_555 1_555
Ni3 N7 1_555 1_555
N7 H31 1_555 1_555
N8 Ni3 1_555 1_555
H32 N8 1_555 1_555
N9 C13 1_555 1_555
C13 N7 1_555 1_555
H33 C13 1_555 1_555
H34 C13 1_555 1_555
C14 N7 1_555 1_555
H35 C14 1_555 1_555
H36 C14 1_555 1_555
C15 N8 1_555 1_555
H37 C15 1_555 1_555
H38 C15 1_555 1_555
C16 N8 1_555 1_555
H39 C16 1_555 1_555
H40 C16 1_555 1_555
C17 N9 1_555 1_555
H41 C17 1_555 1_555
H42 C17 1_555 1_555
C18 C17 1_555 1_555
H43 C18 1_555 1_555
H44 C18 1_555 1_555
O3 C18 1_555 1_555
H45 O3 1_555 1_555
O4 Ni1 1_555 1_555
O5 C19 1_555 1_555
O6 Ni2 1_555 1_555
O7 C20 1_555 1_555
O8 Ni3 1_555 1_555
O9 C21 1_555 1_555
C19 O4 1_555 1_555
C20 O6 1_555 1_555
C21 O8 1_555 1_555
C22 C19 1_555 1_555
C23 C22 1_555 1_555
H46 C23 1_555 1_555
C24 C21 1_555 1_555
C25 C24 1_555 1_555
H47 C25 1_555 1_555
C26 C20 1_555 1_555
C27 C22 1_555 1_555
H48 C27 1_555 1_555
N1A Ni1 1_555 1_555
N2A Ni1 1_555 1_555
O4A Ni1 1_555 1_555
C4A N3 1_555 1_555
N3A C4 1_555 1_555
N4A Ni2 1_555 1_555
N5A Ni2 1_555 1_555
O6A Ni2 1_555 1_555
C10A C7 1_555 1_555
C7A C10 1_555 1_555
N7A Ni3 1_555 1_555
N8A Ni3 1_555 1_555
O8A Ni3 1_555 1_555
C16A N9 1_555 1_555
N9A C16 1_555 1_555
H1A N1A 1_555 1_555
C1A N1A 1_555 1_555
C2A N1A 1_555 1_555
H2A N2A 1_555 1_555
C3A N2A 1_555 1_555
H9A C4A 1_555 1_555
H10A C4A 1_555 1_555
C5A N3A 1_555 1_555
H16A N4A 1_555 1_555
C8A N4A 1_555 1_555
H17A N5A 1_555 1_555
C9A N5A 1_555 1_555
H24A C10A 1_555 1_555
H25A C10A 1_555 1_555
H18A C7A 1_555 1_555
H19A C7A 1_555 1_555
H31A N7A 1_555 1_555
C13A N7A 1_555 1_555
C14A N7A 1_555 1_555
H32A N8A 1_555 1_555
C15A N8A 1_555 1_555
C21A O8A 1_555 1_555
H39A C16A 1_555 1_555
H40A C16A 1_555 1_555
C17A N9A 1_555 1_555
H3A C1A 1_555 1_555
H4A C1A 1_555 1_555
H5A C2A 1_555 1_555
H6A C2A 1_555 1_555
H7A C3A 1_555 1_555
H8A C3A 1_555 1_555
H11A C5A 1_555 1_555
H12A C5A 1_555 1_555
C6A C5A 1_555 1_555
N6A C8A 1_555 1_555
H20A C8A 1_555 1_555
H21A C8A 1_555 1_555
H22A C9A 1_555 1_555
H23A C9A 1_555 1_555
H33A C13A 1_555 1_555
H34A C13A 1_555 1_555
H35A C14A 1_555 1_555
H36A C14A 1_555 1_555
H37A C15A 1_555 1_555
H38A C15A 1_555 1_555
O9A C21A 1_555 1_555
C24A C21A 1_555 1_555
H41A C17A 1_555 1_555
H42A C17A 1_555 1_555
C18A C17A 1_555 1_555
H13A C6A 1_555 1_555
H14A C6A 1_555 1_555
O1A C6A 1_555 1_555
C11A N6A 1_555 1_555
C23A C24A 1_555 1_555
C25A C24A 1_555 1_555
H43A C18A 1_555 1_555
H44A C18A 1_555 1_555
O3A C18A 1_555 1_555
H15A O1A 1_555 1_555
H26A C11A 1_555 1_555
H27A C11A 1_555 1_555
C12A C11A 1_555 1_555
C22A C23A 1_555 1_555
H46A C23A 1_555 1_555
H47A C25A 1_555 1_555
C26A C25A 1_555 1_555
H45A O3A 1_555 1_555
H28A C12A 1_555 1_555
H29A C12A 1_555 1_555
O2A C12A 1_555 1_555
C19A C22A 1_555 1_555
C27A C22A 1_555 1_555
C20A C26A 1_555 1_555
H30A O2A 1_555 1_555
O4A_2 C19A 1_555 1_555
O5A C19A 1_555 1_555
H48A C27A 1_555 1_555
O6A_2 C20A 1_555 1_555
O7A C20A 1_555 1_555
Ni1_2 O4A_2 1_555 1_555
Ni2_2 O6A_2 1_555 1_555
C2 C3 1_555 1_555
N6 C9 1_555 1_555
C14 C15 1_555 1_555
C23 C24 1_555 1_555
C25 C26 1_555 1_555
C26 C27 1_555 1_555
N2A C4A 1_555 1_555
N3A C1A 1_555 1_555
N4A C7A 1_555 1_555
N5A C10A 1_555 1_555
N8A C16A 1_555 1_555
N9A C13A 1_555 1_555
C2A C3A 1_555 1_555
C9A N6A 1_555 1_555
C14A C15A 1_555 1_555
C26A C27A 1_555 1_555

#END
