
#######################################################################
#
#                 Cambridge Crystallographic Data Centre
#                                CCDC 
#
#######################################################################
#
# If this CIF has been generated from an entry in the Cambridge 
# Structural Database, then it will include bibliographic, chemical, 
# crystal, experimental, refinement or atomic coordinate data resulting 
# from the CCDC's data processing and validation procedures.
#
#######################################################################

data_JEDQOY
_symmetry_cell_setting           triclinic
_symmetry_space_group_name_H-M   'P -1'
_symmetry_Int_Tables_number      2
_space_group_name_Hall           '-P 1'
loop_
_symmetry_equiv_pos_site_id
_symmetry_equiv_pos_as_xyz
1 x,y,z
2 -x,-y,-z
_cell_length_a                   9.9520(6)
_cell_length_b                   16.7476(10)
_cell_length_c                   18.8263(11)
_cell_angle_alpha                113.4120(10)
_cell_angle_beta                 97.5100(10)
_cell_angle_gamma                94.5240(10)
_cell_volume                     2825.13
loop_
_atom_site_label
_atom_site_type_symbol
_atom_site_fract_x
_atom_site_fract_y
_atom_site_fract_z
Ni1 Ni 0.5000 0.5000 0.0000
Ni2 Ni 1.0000 0.5000 0.5000
Ni3 Ni 1.0000 0.0000 0.0000
O1 O 0.6118(5) 0.4395(3) 0.0651(3)
O2 O 0.9245(6) 0.4374(4) 0.3759(3)
O3 O 0.9243(6) 0.1200(3) 0.0558(3)
N1 N 0.5906(7) 0.6248(4) 0.0779(4)
N2 N 0.3506(7) 0.5212(4) 0.0686(4)
N3 N 1.0490(7) 0.3858(5) 0.5059(4)
N4 N 1.1848(7) 0.5312(5) 0.4724(4)
N5 N 0.8418(7) -0.0610(5) 0.0297(4)
N6 N 1.1064(7) 0.0206(5) 0.1073(4)
C1 C 0.7547(7) 0.3932(5) 0.1451(4)
C2 C 0.8107(8) 0.4101(5) 0.2236(4)
C3 C 0.8608(7) 0.3441(5) 0.2402(4)
C4 C 0.8675(7) 0.2642(5) 0.1803(4)
C5 C 0.8186(8) 0.2481(5) 0.1034(4)
C6 C 0.7589(7) 0.3111(4) 0.0860(4)
C7 C 0.6982(8) 0.4636(5) 0.1262(4)
C8 C 0.9128(9) 0.3593(5) 0.3245(5)
C9 C 0.8366(9) 0.1625(5) 0.0378(5)
O4 O 0.7455(6) 0.5432(4) 0.1713(3)
O5 O 0.9436(7) 0.2964(4) 0.3387(3)
O6 O 0.7685(7) 0.1401(4) -0.0294(3)
N7 N 0.7547(7) 0.6341(5) -0.0061(5)
N8 N 1.2912(8) 0.4193(6) 0.5012(5)
N9 N 0.7096(8) -0.1247(5) -0.1054(5)
C10 C 0.6550(10) 0.6749(6) 0.0386(6)
C11 C 0.4849(9) 0.6647(6) 0.1228(5)
C12 C 0.4108(10) 0.5968(6) 0.1409(5)
C13 C 0.2969(9) 0.4423(6) 0.0771(6)
C14 C 0.8750(9) 0.6268(7) 0.0422(7)
C15 C 0.9985(11) 0.6247(9) 0.0092(8)
C16 C 0.9458(10) 0.3594(6) 0.5458(5)
C17 C 1.1938(11) 0.3904(7) 0.5389(5)
C18 C 1.3020(10) 0.5112(7) 0.5126(6)
C19 C 1.1902(10) 0.6254(7) 0.4844(6)
C20 C 1.2981(13) 0.3576(8) 0.4213(6)
C21 C 1.3387(2) 0.2762(12) 0.4149(10)
C22 C 0.7624(10) -0.1398(6) -0.0371(6)
C23 C 0.9026(11) -0.0764(7) 0.0974(6)
C24 C 1.0061(11) 0.0026(6) 0.1525(5)
C25 C 1.1949(11) 0.1067(6) 0.1471(5)
C26 C 0.5978(10) -0.0728(7) -0.0932(7)
C27 C 0.4717(12) -0.1130(9) -0.1427(11)
O7 O 1.1174(7) 0.6243(7) 0.0616(6)
O8 O 1.4514(17) 0.2754(10) 0.4507(8)
O9 O 0.3679(7) -0.0584(5) -0.1332(5)
H1 H 0.6583(7) 0.6188(4) 0.1122(4)
H2 H 0.2798(7) 0.5377(4) 0.0444(4)
H3 H 1.0342(7) 0.3442(5) 0.4555(4)
H4 H 1.1800(7) 0.4988(5) 0.4200(4)
H5 H 0.7828(7) -0.0214(5) 0.0467(4)
H6 H 1.1627(7) -0.0213(5) 0.0989(4)
H7 H 0.8136(8) 0.4655(5) 0.2637(4)
H8 H 0.9055(7) 0.2210(5) 0.1920(4)
H9 H 0.7210(7) 0.2986(4) 0.0343(4)
H10 H 0.5835(10) 0.6848(6) 0.0040(6)
H11 H 0.6981(10) 0.7320(6) 0.0784(6)
H12 H 0.4218(9) 0.6851(6) 0.0922(5)
H13 H 0.5269(9) 0.7145(6) 0.1712(5)
H14 H 0.4738(10) 0.5785(6) 0.1735(5)
H15 H 0.3394(10) 0.6211(6) 0.1699(5)
H16 H 0.3693(9) 0.4275(6) 0.1075(6)
H17 H 0.2238(9) 0.4566(6) 0.1075(6)
H18 H 0.8576(9) 0.5736(7) 0.0505(7)
H19 H 0.8898(9) 0.6763(7) 0.0932(7)
H20 H 1.0128(11) 0.6756(9) -0.0028(8)
H21 H 0.9871(11) 0.5725(9) -0.0397(8)
H22 H 0.9443(10) 0.2978(6) 0.5355(5)
H23 H 0.9694(10) 0.3938(6) 0.6022(5)
H24 H 1.2105(11) 0.4301(7) 0.5942(5)
H25 H 1.2092(11) 0.3326(7) 0.5354(5)
H26 H 1.3137(10) 0.5481(7) 0.5684(6)
H27 H 1.3832(10) 0.5255(7) 0.4941(6)
H28 H 1.2167(10) 0.6634(7) 0.5400(6)
H29 H 1.2580(10) 0.6395(7) 0.4569(6)
H30 H 1.2086(13) 0.3462(8) 0.3888(6)
H31 H 1.3619(13) 0.3854(8) 0.4003(6)
H32 H 1.2697(21) 0.2470(12) 0.4319(10)
H33 H 1.3361(21) 0.2403(12) 0.3395(10)
H34 H 0.8206(10) -0.1854(6) -0.0526(6)
H35 H 0.6861(10) -0.1615(6) -0.0192(6)
H36 H 0.9475(11) -0.1285(7) 0.0796(6)
H37 H 0.8315(11) -0.0860(7) 0.1249(6)
H38 H 0.9598(11) 0.0534(6) 0.1750(5)
H39 H 1.0526(11) -0.0093(6) 0.1950(5)
H40 H 1.1365(11) 0.1524(6) 0.1594(5)
H41 H 1.2439(11) 0.1103(6) 0.1966(5)
H42 H 0.6255(10) -0.0193(7) -0.0992(7)
H43 H 0.5845(10) -0.0557(7) -0.0392(7)
H44 H 0.4858(12) -0.1342(9) -0.1968(11)
H45 H 0.4397(12) -0.1637(9) -0.1335(11)
H46 H 1.0933(13) 0.617(12) 0.0987(57)
H47 H 1.465(14) 0.315(13) 0.4951(64)
H48 H 0.3020(66) -0.0834(45) -0.1687(54)
O1A O 0.3882(5) 0.5605(3) -0.0651(3)
N1A N 0.4094(7) 0.3752(4) -0.0779(4)
N2A N 0.6494(7) 0.4788(4) -0.0686(4)
O2A O 1.0755(6) 0.5626(4) 0.6241(3)
N3A N 0.9510(7) 0.6142(5) 0.4941(4)
N4A N 0.8152(7) 0.4688(5) 0.5276(4)
O3A O 1.0757(6) -0.1200(3) -0.0558(3)
N5A N 1.1582(7) 0.0610(5) -0.0297(4)
N6A N 0.8936(7) -0.0206(5) -0.1073(4)
C13A C 0.7031(9) 0.5577(6) -0.0771(6)
C25A C 0.8051(11) -0.1067(6) -0.1471(5)
N7A N 0.2453(7) 0.3659(5) 0.0061(5)
C19A C 0.8098(10) 0.3746(7) 0.5156(6)
C16A C 1.0542(10) 0.6406(6) 0.4542(5)
N9A N 1.2904(8) 0.1247(5) 0.1054(5)
C10A C 0.3450(10) 0.3251(6) -0.0386(6)
C11A C 0.5151(9) 0.3353(6) -0.1228(5)
H1A H 0.3417(7) 0.3812(4) -0.1122(4)
C12A C 0.5892(10) 0.4032(6) -0.1409(5)
H2A H 0.7202(7) 0.4623(4) -0.0444(4)
C8A C 1.0872(9) 0.6407(5) 0.6755(5)
C17A C 0.8062(11) 0.6096(7) 0.4611(5)
H3A H 0.9658(7) 0.6558(5) 0.5445(4)
C18A C 0.6980(10) 0.4888(7) 0.4874(6)
H4A H 0.8200(7) 0.5012(5) 0.5800(4)
C22A C 1.2376(10) 0.1398(6) 0.0371(6)
C23A C 1.0974(11) 0.0764(7) -0.0974(6)
H5A H 1.2172(7) 0.0214(5) -0.0467(4)
C24A C 0.9939(11) -0.0026(6) -0.1525(5)
H6A H 0.8373(7) 0.0213(5) -0.0989(4)
H16A H 0.6307(9) 0.5725(6) -0.1075(6)
H17A H 0.7762(9) 0.5434(6) -0.1075(6)
H40A H 0.8635(11) -0.1524(6) -0.1594(5)
H41A H 0.7561(11) -0.1103(6) -0.1966(5)
C14A C 0.1250(9) 0.3732(7) -0.0422(7)
H28A H 0.7833(10) 0.3366(7) 0.4600(6)
H29A H 0.7420(10) 0.3605(7) 0.5431(6)
H22A H 1.0557(10) 0.7022(6) 0.4645(5)
H23A H 1.0306(10) 0.6062(6) 0.3978(5)
C26A C 1.4022(10) 0.0728(7) 0.0932(7)
H10A H 0.4165(10) 0.3152(6) -0.0040(6)
H11A H 0.3019(10) 0.2680(6) -0.0784(6)
H12A H 0.5782(9) 0.3149(6) -0.0922(5)
H13A H 0.4731(9) 0.2855(6) -0.1712(5)
H14A H 0.5262(10) 0.4215(6) -0.1735(5)
H15A H 0.6606(10) 0.3789(6) -0.1699(5)
C3A C 1.1392(7) 0.6559(5) 0.7598(4)
O5A O 1.0564(7) 0.7036(4) 0.6613(3)
N8A N 0.7088(8) 0.5807(6) 0.4988(5)
H24A H 0.7895(11) 0.5699(7) 0.4058(5)
H25A H 0.7908(11) 0.6674(7) 0.4646(5)
H26A H 0.6863(10) 0.4519(7) 0.4316(6)
H27A H 0.6168(10) 0.4745(7) 0.5059(6)
H34A H 1.1794(10) 0.1854(6) 0.0526(6)
H35A H 1.3139(10) 0.1615(6) 0.0192(6)
H36A H 1.0525(11) 0.1285(7) -0.0796(6)
H37A H 1.1685(11) 0.0860(7) -0.1249(6)
H38A H 1.0402(11) -0.0534(6) -0.1750(5)
H39A H 0.9474(11) 0.0093(6) -0.1950(5)
C15A C 0.0015(11) 0.3753(9) -0.0092(8)
H18A H 0.1424(9) 0.4264(7) -0.0505(7)
H19A H 0.1102(9) 0.3237(7) -0.0932(7)
C27A C 1.5283(12) 0.1130(9) 0.1427(11)
H42A H 1.3745(10) 0.0193(7) 0.0992(7)
H43A H 1.4155(10) 0.0557(7) 0.0392(7)
C2A C 1.1893(8) 0.5899(5) 0.7764(4)
C4A C 1.1325(7) 0.7358(5) 0.8197(4)
C20A C 0.7019(13) 0.6424(8) 0.5787(6)
O7A O -0.1174(7) 0.3757(7) -0.0616(6)
H20A H -0.0128(11) 0.3244(9) 0.0028(8)
H21A H 0.0129(11) 0.4275(9) 0.0397(8)
O9A O 1.6321(7) 0.0584(5) 0.1332(5)
H44A H 1.5142(12) 0.1342(9) 0.1968(11)
H45A H 1.5603(12) 0.1637(9) 0.1335(11)
C1A C 1.2453(7) 0.6068(5) 0.8549(4)
H7A H 1.1864(8) 0.5345(5) 0.7363(4)
C5A C 1.1814(8) 0.7519(5) 0.8966(4)
H8A H 1.0945(7) 0.7790(5) 0.8080(4)
C21A C 0.6613(2) 0.7238(12) 0.5851(10)
H30A H 0.7914(13) 0.6538(8) 0.6112(6)
H31A H 0.6381(13) 0.6146(8) 0.5997(6)
H46A H -0.0933(13) 0.383(12) -0.0987(57)
H48A H 1.6980(66) 0.0834(45) 0.1687(54)
C6A C 1.2411(7) 0.6889(4) 0.9140(4)
C7A C 1.3018(8) 0.5364(5) 0.8738(4)
C9A C 1.1634(9) 0.8375(5) 0.9622(5)
O8A O 0.5486(17) 0.7246(10) 0.5493(8)
H32A H 0.7303(21) 0.7530(12) 0.5681(10)
H33A H 0.6639(21) 0.7597(12) 0.6605(10)
H9A H 1.2790(7) 0.7014(4) 0.9657(4)
O1A_2 O 1.3882(5) 0.5605(3) 0.9349(3)
O4A O 1.2545(6) 0.4568(4) 0.8287(3)
O3A_2 O 1.0757(6) 0.8800(3) 0.9442(3)
O6A O 1.2315(7) 0.8599(4) 1.0294(3)
H47A H 0.535(14) 0.685(13) 0.5049(64)
Ni1_2 Ni 1.5000 0.5000 1.0000
Ni3_2 Ni 1.0000 1.0000 1.0000
N10 N 0.2291(16) 0.3785(13) 0.2301(8)
C28 C 0.2339(9) 0.4705(17) 0.2708(10)
C29 C 0.3478(31) 0.5196(10) 0.3033(8)
C30 C 0.4557(26) 0.4911(18) 0.3044(11)
C31 C 0.4618(18) 0.4025(18) 0.2656(11)
C32 C 0.3488(21) 0.3466(10) 0.2285(8)
H49 H 0.1531(19) 0.4951(17) 0.2738(10)
H50 H 0.3484(31) 0.5801(10) 0.3273(8)
H51 H 0.5359(26) 0.5296(18) 0.3318(11)
H52 H 0.5460(18) 0.3822(18) 0.2656(11)
H53 H 0.3519(21) 0.2867(10) 0.2021(8)
O10 O 0.7883(10) 0.1338(6) 0.2840(6)
O11 O 0.5203(11) 0.8830(7) 0.0974(7)
O12 O 0.0373(10) 0.5861(8) 0.2075(8)
O13 O 0.1995(13) 0.7985(8) 0.1436(7)
O14 O 0.7382(21) 0.6908(12) 0.3036(8)
O15 O 0.5962(18) 0.1374(10) 0.3832(11)
O16 O 0.5184(21) 0.7046(13) 0.3924(10)
loop_
_geom_bond_atom_site_label_1
_geom_bond_atom_site_label_2
_geom_bond_site_symmetry_1
_geom_bond_site_symmetry_2
Ni1 O1 1_555 1_555
Ni2 O2 1_555 1_555
Ni3 O3 1_555 1_555
O1 C7 1_555 1_555
O2 C8 1_555 1_555
O3 C9 1_555 1_555
N1 Ni1 1_555 1_555
N2 Ni1 1_555 1_555
N3 Ni2 1_555 1_555
N4 Ni2 1_555 1_555
N5 Ni3 1_555 1_555
N6 Ni3 1_555 1_555
C1 C2 1_555 1_555
C2 C3 1_555 1_555
C3 C4 1_555 1_555
C4 C5 1_555 1_555
C5 C6 1_555 1_555
C6 C1 1_555 1_555
C7 C1 1_555 1_555
C8 C3 1_555 1_555
C9 C5 1_555 1_555
O4 C7 1_555 1_555
O5 C8 1_555 1_555
O6 C9 1_555 1_555
N7 C10 1_555 1_555
N8 C17 1_555 1_555
N9 C22 1_555 1_555
C10 N1 1_555 1_555
C11 N1 1_555 1_555
C12 N2 1_555 1_555
C13 N2 1_555 1_555
C14 N7 1_555 1_555
C15 C14 1_555 1_555
C16 N3 1_555 1_555
C17 N3 1_555 1_555
C18 N4 1_555 1_555
C19 N4 1_555 1_555
C20 N8 1_555 1_555
C21 C20 1_555 1_555
C22 N5 1_555 1_555
C23 N5 1_555 1_555
C24 N6 1_555 1_555
C25 N6 1_555 1_555
C26 N9 1_555 1_555
C27 C26 1_555 1_555
O7 C15 1_555 1_555
O8 C21 1_555 1_555
O9 C27 1_555 1_555
N10 C28 1_555 1_555
C28 C29 1_555 1_555
C29 C30 1_555 1_555
C30 C31 1_555 1_555
C31 C32 1_555 1_555
C32 N10 1_555 1_555
H1 N1 1_555 1_555
H2 N2 1_555 1_555
H3 N3 1_555 1_555
H4 N4 1_555 1_555
H5 N5 1_555 1_555
H6 N6 1_555 1_555
H7 C2 1_555 1_555
H8 C4 1_555 1_555
H9 C6 1_555 1_555
H10 C10 1_555 1_555
H11 C10 1_555 1_555
H12 C11 1_555 1_555
H13 C11 1_555 1_555
H14 C12 1_555 1_555
H15 C12 1_555 1_555
H16 C13 1_555 1_555
H17 C13 1_555 1_555
H18 C14 1_555 1_555
H19 C14 1_555 1_555
H20 C15 1_555 1_555
H21 C15 1_555 1_555
H22 C16 1_555 1_555
H23 C16 1_555 1_555
H24 C17 1_555 1_555
H25 C17 1_555 1_555
H26 C18 1_555 1_555
H27 C18 1_555 1_555
H28 C19 1_555 1_555
H29 C19 1_555 1_555
H30 C20 1_555 1_555
H31 C20 1_555 1_555
H32 C21 1_555 1_555
H33 C21 1_555 1_555
H34 C22 1_555 1_555
H35 C22 1_555 1_555
H36 C23 1_555 1_555
H37 C23 1_555 1_555
H38 C24 1_555 1_555
H39 C24 1_555 1_555
H40 C25 1_555 1_555
H41 C25 1_555 1_555
H42 C26 1_555 1_555
H43 C26 1_555 1_555
H44 C27 1_555 1_555
H45 C27 1_555 1_555
H46 O7 1_555 1_555
H47 O8 1_555 1_555
H48 O9 1_555 1_555
H49 C28 1_555 1_555
H50 C29 1_555 1_555
H51 C30 1_555 1_555
H52 C31 1_555 1_555
H53 C32 1_555 1_555
O1A Ni1 1_555 1_555
N1A Ni1 1_555 1_555
N2A Ni1 1_555 1_555
O2A Ni2 1_555 1_555
N3A Ni2 1_555 1_555
N4A Ni2 1_555 1_555
O3A Ni3 1_555 1_555
N5A Ni3 1_555 1_555
N6A Ni3 1_555 1_555
C13A N7 1_555 1_555
C25A N9 1_555 1_555
N7A C13 1_555 1_555
C19A C16 1_555 1_555
C16A C19 1_555 1_555
N9A C25 1_555 1_555
C10A N1A 1_555 1_555
C11A N1A 1_555 1_555
H1A N1A 1_555 1_555
C12A N2A 1_555 1_555
H2A N2A 1_555 1_555
C8A O2A 1_555 1_555
C17A N3A 1_555 1_555
H3A N3A 1_555 1_555
C18A N4A 1_555 1_555
H4A N4A 1_555 1_555
C22A N5A 1_555 1_555
C23A N5A 1_555 1_555
H5A N5A 1_555 1_555
C24A N6A 1_555 1_555
H6A N6A 1_555 1_555
H16A C13A 1_555 1_555
H17A C13A 1_555 1_555
H40A C25A 1_555 1_555
H41A C25A 1_555 1_555
C14A N7A 1_555 1_555
H28A C19A 1_555 1_555
H29A C19A 1_555 1_555
H22A C16A 1_555 1_555
H23A C16A 1_555 1_555
C26A N9A 1_555 1_555
H10A C10A 1_555 1_555
H11A C10A 1_555 1_555
H12A C11A 1_555 1_555
H13A C11A 1_555 1_555
H14A C12A 1_555 1_555
H15A C12A 1_555 1_555
C3A C8A 1_555 1_555
O5A C8A 1_555 1_555
N8A C17A 1_555 1_555
H24A C17A 1_555 1_555
H25A C17A 1_555 1_555
H26A C18A 1_555 1_555
H27A C18A 1_555 1_555
H34A C22A 1_555 1_555
H35A C22A 1_555 1_555
H36A C23A 1_555 1_555
H37A C23A 1_555 1_555
H38A C24A 1_555 1_555
H39A C24A 1_555 1_555
C15A C14A 1_555 1_555
H18A C14A 1_555 1_555
H19A C14A 1_555 1_555
C27A C26A 1_555 1_555
H42A C26A 1_555 1_555
H43A C26A 1_555 1_555
C2A C3A 1_555 1_555
C4A C3A 1_555 1_555
C20A N8A 1_555 1_555
O7A C15A 1_555 1_555
H20A C15A 1_555 1_555
H21A C15A 1_555 1_555
O9A C27A 1_555 1_555
H44A C27A 1_555 1_555
H45A C27A 1_555 1_555
C1A C2A 1_555 1_555
H7A C2A 1_555 1_555
C5A C4A 1_555 1_555
H8A C4A 1_555 1_555
C21A C20A 1_555 1_555
H30A C20A 1_555 1_555
H31A C20A 1_555 1_555
H46A O7A 1_555 1_555
H48A O9A 1_555 1_555
C6A C1A 1_555 1_555
C7A C1A 1_555 1_555
C9A C5A 1_555 1_555
O8A C21A 1_555 1_555
H32A C21A 1_555 1_555
H33A C21A 1_555 1_555
H9A C6A 1_555 1_555
O1A_2 C7A 1_555 1_555
O4A C7A 1_555 1_555
O3A_2 C9A 1_555 1_555
O6A C9A 1_555 1_555
H47A O8A 1_555 1_555
Ni1_2 O1A_2 1_555 1_555
Ni3_2 O3A_2 1_555 1_555
N8 C18 1_555 1_555
C11 C12 1_555 1_555
C23 C24 1_555 1_555
N2A C13A 1_555 1_555
N3A C16A 1_555 1_555
N4A C19A 1_555 1_555
N6A C25A 1_555 1_555
N7A C10A 1_555 1_555
N9A C22A 1_555 1_555
C11A C12A 1_555 1_555
C18A N8A 1_555 1_555
C23A C24A 1_555 1_555
C5A C6A 1_555 1_555

#END
