
#######################################################################
#
#                 Cambridge Crystallographic Data Centre
#                                CCDC 
#
#######################################################################
#
# If this CIF has been generated from an entry in the Cambridge 
# Structural Database, then it will include bibliographic, chemical, 
# crystal, experimental, refinement or atomic coordinate data resulting 
# from the CCDC's data processing and validation procedures.
#
#######################################################################

data_JEDYUN
_symmetry_cell_setting           triclinic
_symmetry_space_group_name_H-M   'P -1'
_symmetry_Int_Tables_number      2
_space_group_name_Hall           '-P 1'
loop_
_symmetry_equiv_pos_site_id
_symmetry_equiv_pos_as_xyz
1 x,y,z
2 -x,-y,-z
_cell_length_a                   10.232(3)
_cell_length_b                   10.255(3)
_cell_length_c                   20.201(6)
_cell_angle_alpha                96.298(14)
_cell_angle_beta                 101.419(11)
_cell_angle_gamma                111.508(9)
_cell_volume                     1894.03
loop_
_atom_site_label
_atom_site_type_symbol
_atom_site_fract_x
_atom_site_fract_y
_atom_site_fract_z
Cd1 Cd 0.43322(3) 0.91108(3) 0.138015(15)
Cd2 Cd 0.97071(3) 1.36097(3) 0.875120(15)
Cl1 Cl 0.5921(3) 0.5495(3) 0.42839(8)
C1 C 0.5720(5) 0.4248(6) 0.0855(3)
C2 C 0.5051(5) 0.5148(6) 0.1217(2)
C3 C 0.5341(5) 0.5194(5) 0.1990(2)
N1 N 0.9207(4) 1.3773(4) 0.75795(18)
N2 N 0.5097(4) 0.9906(4) 0.26106(19)
C4 C 0.4205(6) 1.0063(6) 0.2981(3)
C5 C 0.5991(6) 0.6486(6) 0.2435(2)
C6 C 0.8580(6) 1.4080(6) 0.6206(2)
C7 C 0.6204(6) 0.6586(7) 0.3138(3)
C8 C 0.4674(7) 1.0643(7) 0.3682(3)
C9 C 0.7005(7) 1.0887(8) 0.3645(3)
C10 C 0.7878(6) 1.3553(6) 0.7233(3)
C11 C 0.7535(7) 1.3680(7) 0.6554(3)
C12 C 0.4907(7) 0.3968(6) 0.2264(3)
C13 C 1.0238(6) 1.4139(7) 0.7237(3)
C14 C 0.5756(7) 0.5380(7) 0.3399(3)
C15 C 0.9943(7) 1.4276(7) 0.6559(3)
C16 C 0.6104(6) 1.1086(6) 0.4026(3)
C17 C 0.6467(7) 1.0298(7) 0.2948(3)
C18 C 0.5116(9) 0.4052(7) 0.2968(3)
O1 O 0.8022(3) 0.6212(3) 0.13687(16)
O2 O 1.1746(3) 0.8785(3) 0.15500(16)
O3 O 0.3233(4) 0.8127(4) 0.01867(17)
O4 O 0.7994(3) 0.4434(3) 0.06532(16)
O5 O 0.6612(4) 0.9071(4) 0.14665(17)
O6 O 0.3287(4) 0.6729(3) 0.14105(16)
O7 O 0.6165(3) 1.0662(4) 0.09299(19)
O8 O 1.3189(4) 1.0619(4) 0.12147(19)
C19 C 0.2654(5) 0.5460(5) 0.11130(19)
O9 O 0.1291(3) 0.4815(4) 0.09890(17)
C20 C 0.7341(5) 0.5009(5) 0.0969(2)
C21 C 1.1970(5) 0.9910(5) 0.1299(2)
C22 C 0.6991(5) 1.0071(5) 0.1155(2)
C23 C 0.3421(5) 0.4545(6) 0.0890(2)
C24 C 1.0814(6) 1.0419(8) 0.1056(3)
C25 C 0.9516(5) 0.9954(6) 0.1357(3)
C26 C 0.8464(6) 1.0604(8) 0.1014(4)
C27 C 0.9672(6) 0.9391(7) 0.2536(3)
C28 C 0.9965(5) 1.0407(6) 0.2145(3)
C29 C 1.0087(7) 0.9680(8) 0.3247(3)
C30 C 0.8282(10) 1.4399(9) 0.5487(3)
C31 C 0.6656(9) 1.1851(10) 0.4786(3)
C32 C 0.8032(9) 1.3231(8) 0.4906(3)
C33 C 1.0734(9) 1.1783(8) 0.2486(5)
C34 C 1.1194(11) 1.2131(11) 0.3188(7)
O10 O 0.9769(5) 1.2882(5) 0.97979(18)
Cl2 Cl 1.1439(3) 1.1489(4) 0.44701(12)
C35 C 1.0870(8) 1.1068(10) 0.3579(4)
H1 H 0.674(7) 1.113(7) 0.503(3)
H2 H 1.036(7) 0.997(7) 0.051(3)
H3 H 0.630(4) 0.738(5) 0.224(2)
H4 H 0.721(5) 1.332(5) 0.746(2)
H5 H 0.528(5) 0.617(6) 0.109(2)
H6 H 0.412(6) 1.087(6) 0.390(3)
H7 H 0.458(6) 0.311(6) 0.194(3)
H8 H 0.793(7) 1.118(7) 0.378(3)
H9 H 0.705(6) 1.017(6) 0.268(3)
H10 H 0.573(5) 0.346(5) 0.104(2)
H11 H 0.530(5) 0.400(5) 0.033(3)
H12 H 0.994(6) 0.891(6) 0.342(3)
H13 H 0.917(6) 0.852(6) 0.232(3)
H14 H 1.028(7) 1.356(7) 1.014(3)
H15 H 0.655(6) 0.738(6) 0.341(3)
H16 H 1.067(6) 1.459(6) 0.640(3)
H17 H 0.906(6) 0.878(6) 0.122(3)
H18 H 0.323(5) 0.448(5) 0.039(3)
H19 H 0.897(5) 1.171(5) 0.136(2)
H20 H 0.297(6) 0.345(6) 0.100(2)
H21 H 1.116(7) 1.428(7) 0.748(3)
H22 H 0.321(7) 0.972(7) 0.272(3)
H23 H 0.293(6) 0.732(6) -0.001(3)
H24 H 0.352(7) 0.864(7) -0.007(3)
H25 H 0.488(7) 0.333(7) 0.311(3)
H26 H 0.660(7) 1.357(7) 0.637(3)
H27 H 1.083(8) 1.241(8) 0.217(4)
H28 H 0.840(9) 1.035(8) 0.052(4)
H29 H 1.162(9) 1.279(9) 0.336(4)
H30 H 0.803(9) 1.365(9) 0.441(4)
H31 H 0.927(9) 1.536(9) 0.546(4)
H32 H 0.626(9) 1.266(9) 0.493(4)
H33 H 0.897(11) 1.269(10) 0.500(5)
H34 H 0.734(7) 1.437(7) 0.541(3)
H35 H 0.912(7) 1.255(7) 0.990(3)
H36 H 1.127(8) 1.164(9) 0.127(4)
Cd1_2 Cd 1.43322(3) 0.91108(3) 0.138015(15)
Cd2A Cd 1.02929(3) 0.63903(3) 0.124880(15)
Cd2A_2 Cd 0.02929(3) 0.63903(3) 0.124880(15)
O1A O 1.1978(3) 1.3788(3) 0.86313(16)
O2A O 0.8254(3) 1.1215(3) 0.84500(16)
O4A O 1.2006(3) 1.5566(3) 0.93468(16)
O8_2 O 0.3189(4) 1.0619(4) 0.12147(19)
O9A O 0.8709(3) 1.5185(4) 0.90110(17)
loop_
_geom_bond_atom_site_label_1
_geom_bond_atom_site_label_2
_geom_bond_site_symmetry_1
_geom_bond_site_symmetry_2
Cd1 N2 1_555 1_555
Cd2 N1 1_555 1_555
Cl1 C14 1_555 1_555
C1 C2 1_555 1_555
C2 C3 1_555 1_555
C3 C5 1_555 1_555
N1 C10 1_555 1_555
N2 C4 1_555 1_555
C4 C8 1_555 1_555
C5 C7 1_555 1_555
C6 C11 1_555 1_555
C7 C14 1_555 1_555
C8 C16 1_555 1_555
C9 C16 1_555 1_555
C10 C11 1_555 1_555
C11 H26 1_555 1_555
C12 C3 1_555 1_555
C13 N1 1_555 1_555
C14 C18 1_555 1_555
C15 C6 1_555 1_555
C16 C31 1_555 1_555
C17 N2 1_555 1_555
C18 C12 1_555 1_555
O1 C20 1_555 1_555
O2 C21 1_555 1_555
O3 Cd1 1_555 1_555
O4 C20 1_555 1_555
O5 Cd1 1_555 1_555
O6 Cd1 1_555 1_555
O7 Cd1 1_555 1_555
O8 C21 1_555 1_555
C19 O6 1_555 1_555
O9 C19 1_555 1_555
C20 C1 1_555 1_555
C21 C24 1_555 1_555
C22 O5 1_555 1_555
C23 C2 1_555 1_555
C24 C25 1_555 1_555
C25 C26 1_555 1_555
C26 C22 1_555 1_555
C27 C28 1_555 1_555
C28 C25 1_555 1_555
C29 C27 1_555 1_555
C30 C6 1_555 1_555
C31 C32 1_555 1_555
C32 C30 1_555 1_555
C33 C28 1_555 1_555
C34 C33 1_555 1_555
O10 Cd2 1_555 1_555
Cl2 C35 1_555 1_555
C35 C29 1_555 1_555
H1 C31 1_555 1_555
H2 C24 1_555 1_555
H3 C5 1_555 1_555
H4 C10 1_555 1_555
H5 C2 1_555 1_555
H6 C8 1_555 1_555
H7 C12 1_555 1_555
H8 C9 1_555 1_555
H9 C17 1_555 1_555
H10 C1 1_555 1_555
H11 C1 1_555 1_555
H12 C29 1_555 1_555
H13 C27 1_555 1_555
H14 O10 1_555 1_555
H15 C7 1_555 1_555
H16 C15 1_555 1_555
H17 C25 1_555 1_555
H18 C23 1_555 1_555
H19 C26 1_555 1_555
H20 C23 1_555 1_555
H21 C13 1_555 1_555
H22 C4 1_555 1_555
H23 O3 1_555 1_555
H24 O3 1_555 1_555
H25 C18 1_555 1_555
H27 C33 1_555 1_555
H28 C26 1_555 1_555
H29 C34 1_555 1_555
H30 C32 1_555 1_555
H31 C30 1_555 1_555
H32 C31 1_555 1_555
H33 C32 1_555 1_555
H34 C30 1_555 1_555
H35 O10 1_555 1_555
H36 C24 1_555 1_555
Cd1_2 O8 1_555 1_555
Cd2A O1 1_555 1_555
Cd2A_2 O9 1_555 1_555
O1A Cd2 1_555 1_555
O2A Cd2 1_555 1_555
O4A Cd2 1_555 1_555
O8_2 Cd1 1_555 1_555
O9A Cd2 1_555 1_555
C9 C17 1_555 1_555
C13 C15 1_555 1_555
O2 Cd2A 1_555 1_555
O4 Cd2A 1_555 1_555
O7 C22 1_555 1_555
C19 C23 1_555 1_555
C34 C35 1_555 1_555

#END
