
#######################################################################
#
#                 Cambridge Crystallographic Data Centre
#                                CCDC 
#
#######################################################################
#
# If this CIF has been generated from an entry in the Cambridge 
# Structural Database, then it will include bibliographic, chemical, 
# crystal, experimental, refinement or atomic coordinate data resulting 
# from the CCDC's data processing and validation procedures.
#
#######################################################################

data_JEDZAU
_symmetry_cell_setting           monoclinic
_symmetry_space_group_name_H-M   'P 21/n'
_symmetry_Int_Tables_number      14
_space_group_name_Hall           '-P 2yn'
loop_
_symmetry_equiv_pos_site_id
_symmetry_equiv_pos_as_xyz
1 x,y,z
2 1/2-x,1/2+y,1/2-z
3 -x,-y,-z
4 1/2+x,1/2-y,1/2+z
_cell_length_a                   13.6106(10)
_cell_length_b                   12.0260(8)
_cell_length_c                   14.7801(11)
_cell_angle_alpha                90.00
_cell_angle_beta                 97.606(3)
_cell_angle_gamma                90.00
_cell_volume                     2397.94
loop_
_atom_site_label
_atom_site_type_symbol
_atom_site_fract_x
_atom_site_fract_y
_atom_site_fract_z
Zn1 Zn -0.48099(2) -0.71174(2) -0.373580(19)
Cl1 Cl -0.38653(6) -0.32818(7) 0.04899(6)
O1 O 0.02728(13) -0.71772(14) 0.00817(12)
O2 O -0.12703(14) -0.77682(14) -0.00406(12)
N1 N -0.53653(14) -0.56129(16) -0.34447(13)
N2 N -0.54750(15) 0.16813(17) -0.30124(14)
C1 C -0.05883(19) -0.7274(2) -0.03608(17)
C2 C -0.59153(18) -0.4957(2) -0.40580(17)
C3 C -0.6275(2) -0.2072(2) -0.17190(19)
C4 C -0.61242(18) -0.3569(2) -0.29342(17)
C5 C -0.62965(19) -0.3962(2) -0.38253(17)
C6 C -0.31634(18) -0.6083(2) -0.07324(16)
C7 C -0.32812(19) -0.4255(2) -0.01502(18)
C8 C -0.6333(2) 0.1193(2) -0.33484(19)
C9 C -0.36297(19) -0.5327(2) -0.02290(18)
C10 C -0.6556(2) -0.2477(2) -0.26888(19)
C11 C -0.2025(2) -0.4690(2) -0.1062(2)
C12 C -0.5416(2) 0.0489(2) -0.17129(18)
C13 C -0.07526(19) -0.6780(3) -0.13058(18)
C14 C -0.23498(18) -0.5783(2) -0.11634(16)
C15 C -0.6763(2) 0.0359(2) -0.28953(19)
C16 C -0.5024(2) 0.1319(2) -0.21985(18)
C17 C -0.5532(2) -0.4242(2) -0.23119(18)
C18 C -0.6308(2) -0.0016(2) -0.20546(18)
C19 C -0.5179(2) -0.5233(2) -0.25895(18)
C20 C -0.2478(2) -0.3922(3) -0.0560(2)
C21 C -0.6746(2) -0.0942(2) -0.1549(2)
O3 O -0.35260(12) -0.70951(13) -0.29394(11)
C22 C -0.29234(18) -0.6418(2) -0.32493(16)
C23 C -0.18386(18) -0.6622(2) -0.17026(16)
C24 C -0.19045(19) -0.6313(3) -0.27123(17)
H1 H -0.651(2) -0.262(2) -0.131(2)
H2 H -0.730(2) -0.252(2) -0.2821(18)
H3 H -0.559(2) -0.1998(19) -0.1583(16)
H4 H -0.737(2) 0.002(2) -0.3195(17)
H5 H -0.748(2) -0.104(2) -0.1736(18)
H6 H -0.6653(17) -0.3557(19) -0.4246(16)
H7 H -0.6002(17) -0.5234(19) -0.4682(17)
H8 H -0.642(2) -0.195(2) -0.3113(19)
H9 H -0.666(2) 0.146(2) -0.3920(19)
H10 H -0.481(2) -0.570(2) -0.2182(18)
O5 O -0.31295(14) -0.59011(16) -0.39737(12)
H11 H -0.0402(19) -0.610(2) -0.1335(16)
H12 H -0.504(2) 0.027(2) -0.1140(18)
H13 H -0.443(2) 0.167(2) -0.200(2)
H14 H -0.2149(18) -0.733(2) -0.1672(16)
H15 H -0.5380(19) -0.402(2) -0.1719(19)
H16 H -0.337(2) -0.680(2) -0.0773(18)
H17 H -0.147(2) -0.686(2) -0.299(2)
H18 H -0.042(2) -0.729(3) -0.168(2)
H19 H -0.225(2) -0.327(3) -0.047(2)
H20 H -0.420(2) -0.555(2) 0.0041(18)
H21 H -0.146(2) -0.449(2) -0.1309(19)
H22 H -0.167(2) -0.563(3) -0.278(2)
H23 H -0.6664(19) -0.076(2) -0.0887(19)
Zn1C Zn 0.01901(2) -0.78826(2) 0.126420(19)
Zn1_2 Zn -0.48099(2) 0.28826(2) -0.373580(19)
O1C O -0.47272(13) -0.78228(14) -0.49183(12)
N2_2 N -0.54750(15) -0.83187(17) -0.30124(14)
O4 O 0.30155(16) -1.09711(19) 0.07025(14)
H24 H 0.254(3) -1.134(3) 0.051(2)
H25 H 0.266(3) -1.029(4) 0.086(3)
loop_
_geom_bond_atom_site_label_1
_geom_bond_atom_site_label_2
_geom_bond_site_symmetry_1
_geom_bond_site_symmetry_2
Zn1 N1 1_555 1_555
Cl1 C7 1_555 1_555
O1 C1 1_555 1_555
O2 C1 1_555 1_555
N1 C2 1_555 1_555
N2 C8 1_555 1_555
C1 C13 1_555 1_555
C2 C5 1_555 1_555
C3 C10 1_555 1_555
C4 C5 1_555 1_555
C5 H6 1_555 1_555
C6 C9 1_555 1_555
C7 C9 1_555 1_555
C8 C15 1_555 1_555
C9 H20 1_555 1_555
C10 C4 1_555 1_555
C11 C14 1_555 1_555
C12 C16 1_555 1_555
C13 C23 1_555 1_555
C14 C6 1_555 1_555
C15 C18 1_555 1_555
C16 N2 1_555 1_555
C17 C4 1_555 1_555
C18 C12 1_555 1_555
C19 N1 1_555 1_555
C20 C7 1_555 1_555
C21 C3 1_555 1_555
O3 Zn1 1_555 1_555
C22 O3 1_555 1_555
C23 C14 1_555 1_555
C24 C22 1_555 1_555
H1 C3 1_555 1_555
H2 C10 1_555 1_555
H3 C3 1_555 1_555
H4 C15 1_555 1_555
H5 C21 1_555 1_555
H7 C2 1_555 1_555
H8 C10 1_555 1_555
H9 C8 1_555 1_555
H10 C19 1_555 1_555
O4 H24 1_555 1_555
O5 C22 1_555 1_555
H11 C13 1_555 1_555
H12 C12 1_555 1_555
H13 C16 1_555 1_555
H14 C23 1_555 1_555
H15 C17 1_555 1_555
H16 C6 1_555 1_555
H17 C24 1_555 1_555
H18 C13 1_555 1_555
H19 C20 1_555 1_555
H21 C11 1_555 1_555
H22 C24 1_555 1_555
H23 C21 1_555 1_555
H25 O4 1_555 1_555
Zn1C O1 1_555 1_555
Zn1_2 N2 1_555 1_555
O1C Zn1 1_555 1_555
N2_2 Zn1 1_555 1_555
C11 C20 1_555 1_555
C17 C19 1_555 1_555
C18 C21 1_555 1_555
C23 C24 1_555 1_555

#END
