
#######################################################################
#
#                 Cambridge Crystallographic Data Centre
#                                CCDC 
#
#######################################################################
#
# If this CIF has been generated from an entry in the Cambridge 
# Structural Database, then it will include bibliographic, chemical, 
# crystal, experimental, refinement or atomic coordinate data resulting 
# from the CCDC's data processing and validation procedures.
#
#######################################################################

data_JEFDEE
_symmetry_cell_setting           monoclinic
_symmetry_space_group_name_H-M   'P 21/n'
_symmetry_Int_Tables_number      14
_space_group_name_Hall           '-P 2yn'
loop_
_symmetry_equiv_pos_site_id
_symmetry_equiv_pos_as_xyz
1 x,y,z
2 1/2-x,1/2+y,1/2-z
3 -x,-y,-z
4 1/2+x,1/2-y,1/2+z
_cell_length_a                   8.2894(7)
_cell_length_b                   14.0230(12)
_cell_length_c                   10.3955(8)
_cell_angle_alpha                90
_cell_angle_beta                 90.525(2)
_cell_angle_gamma                90
_cell_volume                     1208.35
loop_
_atom_site_label
_atom_site_type_symbol
_atom_site_fract_x
_atom_site_fract_y
_atom_site_fract_z
O1 O 0.3732(3) 0.64599(16) 0.4575(2)
O2 O 0.0781(3) 0.63800(17) 0.3161(2)
N1 N 0.3177(3) 0.73334(19) 0.4786(2)
N2 N 0.1727(3) 0.66927(19) 0.2244(3)
C1 C 0.2613(4) 0.7869(2) 0.3779(3)
C2 C 0.3632(4) 0.7823(2) 0.1483(3)
C3 C 0.1917(4) 0.8744(2) 0.4000(3)
C4 C 0.2719(4) 0.7445(2) 0.2475(3)
C5 C 0.3502(4) 0.7427(3) 0.0248(3)
C6 C 0.2527(4) 0.6638(3) 0.0059(3)
C7 C 0.2498(4) 0.8554(3) 0.6257(3)
C8 C 0.1853(4) 0.9093(2) 0.5255(3)
C9 C 0.1645(4) 0.6276(3) 0.1071(3)
C10 C 0.3139(4) 0.7662(3) 0.6008(3)
C11 C 0.4807(4) 0.8632(2) 0.1716(3)
O3 O 0.4988(3) 0.92069(17) 0.0754(2)
O4 O 0.5506(4) 0.8681(2) 0.2742(3)
C12 C 0.1157(4) 0.9294(2) 0.2885(3)
O5 O 0.2092(3) 0.9696(2) 0.2144(3)
O6 O -0.0327(3) 0.9290(3) 0.2813(3)
Mn1 Mn 0.18659(6) 0.53376(3) 0.44838(5)
O7 O 0.3397(3) 0.45970(18) 0.5868(3)
O3C O -0.0012(3) 0.57931(17) 0.5754(2)
O3A O 0.0012(3) 0.42069(17) 0.4246(2)
O5A O 0.2908(3) 0.4696(2) 0.2856(3)
Mn1C Mn 0.68659(6) 0.96624(3) -0.05162(5)
Mn1A Mn 0.31341(6) 1.03376(3) 0.05162(5)
loop_
_geom_bond_atom_site_label_1
_geom_bond_atom_site_label_2
_geom_bond_site_symmetry_1
_geom_bond_site_symmetry_2
O1 N1 1_555 1_555
O2 N2 1_555 1_555
N1 C1 1_555 1_555
N2 C4 1_555 1_555
C1 C3 1_555 1_555
C2 C4 1_555 1_555
C3 C8 1_555 1_555
C4 C1 1_555 1_555
C5 C2 1_555 1_555
C6 C5 1_555 1_555
C7 C8 1_555 1_555
C9 N2 1_555 1_555
C10 N1 1_555 1_555
C11 C2 1_555 1_555
O3 C11 1_555 1_555
O4 C11 1_555 1_555
C12 C3 1_555 1_555
O5 C12 1_555 1_555
O6 C12 1_555 1_555
Mn1 O1 1_555 1_555
O7 Mn1 1_555 1_555
O3C Mn1 1_555 1_555
O3A Mn1 1_555 1_555
O5A Mn1 1_555 1_555
Mn1C O3 1_555 1_555
Mn1A O3 1_555 1_555
O2 Mn1 1_555 1_555
C6 C9 1_555 1_555
C7 C10 1_555 1_555
O5 Mn1A 1_555 1_555

#END
