
#######################################################################
#
#                 Cambridge Crystallographic Data Centre
#                                CCDC 
#
#######################################################################
#
# If this CIF has been generated from an entry in the Cambridge 
# Structural Database, then it will include bibliographic, chemical, 
# crystal, experimental, refinement or atomic coordinate data resulting 
# from the CCDC's data processing and validation procedures.
#
#######################################################################

data_JEFGEH
_symmetry_cell_setting           orthorhombic
_symmetry_space_group_name_H-M   'F d d 2'
_symmetry_Int_Tables_number      43
_space_group_name_Hall           'F 2 -2d'
loop_
_symmetry_equiv_pos_site_id
_symmetry_equiv_pos_as_xyz
1 x,y,z
2 -x,-y,z
3 1/4-x,1/4+y,1/4+z
4 1/4+x,1/4-y,1/4+z
5 x,1/2+y,1/2+z
6 -x,1/2-y,1/2+z
7 1/4-x,3/4+y,3/4+z
8 1/4+x,3/4-y,3/4+z
9 1/2+x,y,1/2+z
10 1/2-x,-y,1/2+z
11 3/4-x,1/4+y,3/4+z
12 3/4+x,1/4-y,3/4+z
13 1/2+x,1/2+y,z
14 1/2-x,1/2-y,z
15 3/4-x,3/4+y,1/4+z
16 3/4+x,3/4-y,1/4+z
_cell_length_a                   24.6668(15)
_cell_length_b                   26.0509(15)
_cell_length_c                   7.5084(4)
_cell_angle_alpha                90
_cell_angle_beta                 90
_cell_angle_gamma                90
_cell_volume                     4824.84
loop_
_atom_site_label
_atom_site_type_symbol
_atom_site_fract_x
_atom_site_fract_y
_atom_site_fract_z
O1 O 0.27260(12) 1.14862(15) 0.0156(6)
O2 O 0.19409(11) 1.13599(13) 0.1321(5)
N5 N 0.24350(13) 1.12788(13) 0.1276(5)
O3 O 0.26511(11) 1.09759(10) 0.2413(5)
Ag1 Ag 0.449822(9) 1.175159(9) 0.75062(6)
N1 N 0.40081(11) 1.03510(11) 1.0153(5)
N2 N 0.41402(12) 1.10313(11) 0.8398(4)
N3 N 0.31588(12) 1.00344(12) 0.8879(5)
N4 N 0.33323(13) 1.12619(12) 0.5379(5)
H1 H 0.3084 1.1307 0.4589
H2 H 0.3612 1.1459 0.5399
C1 C 0.36640(14) 1.07828(12) 0.7911(5)
N6 N 0.28374(12) 1.05764(12) 0.6514(5)
C2 C 0.35823(14) 1.03616(13) 0.8992(5)
C3 C 0.41248(15) 0.99828(15) 1.1585(6)
H3 H 0.4479 1.0059 1.2081
H4 H 0.4139 0.9640 1.1082
C4 C 0.43248(14) 1.07618(13) 0.9746(6)
H5 H 0.4640 1.0844 1.0361
C5 C 0.37188(17) 0.99903(15) 1.3036(6)
H6 H 0.3550 1.0300 1.3304
C6 C 0.32836(13) 1.08834(13) 0.6577(5)
C7 C 0.28037(12) 1.01797(13) 0.7628(7)
H7 H 0.2494 0.9978 0.7524
C8 C 0.35837(17) 0.95810(17) 1.3970(6)
H8 H 0.3746 0.9267 1.3729
H9 H 0.3326 0.9607 1.4869
Ag1N Ag 0.300178(9) 0.925159(9) 1.00062(6)
Ag1K Ag 0.199822(9) 1.074841(9) 0.50062(6)
N3J N 0.43412(12) 1.25344(12) 0.6379(5)
N6C N 0.53374(12) 1.19236(12) 0.9014(5)
O4? O 0.5000 1.0000 0.6338(18)
C9? C 0.5281(4) 1.0201(4) 0.7900(16)
loop_
_geom_bond_atom_site_label_1
_geom_bond_atom_site_label_2
_geom_bond_site_symmetry_1
_geom_bond_site_symmetry_2
Ag1 N2 1_555 1_555
O1 N5 1_555 1_555
O2 N5 1_555 1_555
N1 C2 1_555 1_555
N2 C1 1_555 1_555
N3 C2 1_555 1_555
N4 H1 1_555 1_555
H2 N4 1_555 1_555
N5 O3 1_555 1_555
C1 C2 1_555 1_555
N6 C6 1_555 1_555
C3 N1 1_555 1_555
H3 C3 1_555 1_555
H4 C3 1_555 1_555
C4 N1 1_555 1_555
H5 C4 1_555 1_555
C5 C3 1_555 1_555
H6 C5 1_555 1_555
C6 N4 1_555 1_555
C7 N3 1_555 1_555
H7 C7 1_555 1_555
C8 C5 1_555 1_555
H8 C8 1_555 1_555
H9 C8 1_555 1_555
Ag1N N3 1_555 1_555
Ag1K N6 1_555 1_555
N3J Ag1 1_555 1_555
N6C Ag1 1_555 1_555
N2 C4 1_555 1_555
C1 C6 1_555 1_555
N6 C7 1_555 1_555

#END
