
#######################################################################
#
#                 Cambridge Crystallographic Data Centre
#                                CCDC 
#
#######################################################################
#
# If this CIF has been generated from an entry in the Cambridge 
# Structural Database, then it will include bibliographic, chemical, 
# crystal, experimental, refinement or atomic coordinate data resulting 
# from the CCDC's data processing and validation procedures.
#
#######################################################################

data_JEFSUJ
_symmetry_cell_setting           monoclinic
_symmetry_space_group_name_H-M   'P 21/n'
_symmetry_Int_Tables_number      14
_space_group_name_Hall           '-P 2yn'
loop_
_symmetry_equiv_pos_site_id
_symmetry_equiv_pos_as_xyz
1 x,y,z
2 1/2-x,1/2+y,1/2-z
3 -x,-y,-z
4 1/2+x,1/2-y,1/2+z
_cell_length_a                   7.5721(11)
_cell_length_b                   10.7215(14)
_cell_length_c                   12.9266(18)
_cell_angle_alpha                90
_cell_angle_beta                 90.013(12)
_cell_angle_gamma                90
_cell_volume                     1049.44
loop_
_atom_site_label
_atom_site_type_symbol
_atom_site_fract_x
_atom_site_fract_y
_atom_site_fract_z
Fe1 Fe 0.00000 1.00000 0.00000
Cu1 Cu 0.51006(9) 0.76890(4) 0.18078(4)
N1 N 0.5613(5) 0.6176(3) 0.0906(3)
H1 H 0.5365 0.5497 0.1289
H2 H 0.4826 0.6189 0.0385
N2 N 1.0359(5) 0.4234(3) 0.2367(3)
H3 H 1.046 0.4887 0.2801
H4 H 1.1392 0.415 0.203
N3 N 0.2698(5) 0.8120(4) 0.0879(3)
N4 N -0.3037(5) 0.8641(4) 0.1045(3)
N5 N -0.0298(6) 0.8386(3) -0.1962(3)
C1 C 0.7395(7) 0.5960(5) 0.0428(4)
H5 H 0.7702 0.6676 0.0006
H6 H 0.7332 0.5238 -0.0022
C2 C 0.8835(8) 0.5753(5) 0.1223(5)
H7 H 0.9965 0.5968 0.0918
H8 H 0.8637 0.6307 0.1804
C3 C 0.8909(8) 0.4503(5) 0.1589(4)
H9 H 0.9066 0.3953 0.1
H10 H 0.7782 0.43 0.1904
C4 C 0.1657(6) 0.8810(5) 0.0561(4)
C5 C -0.1875(6) 0.9149(4) 0.0648(4)
C6 C -0.0229(7) 0.8978(3) -0.1217(3)
Cu1B Cu -0.51006(9) 1.23110(4) -0.18078(4)
Cu1A Cu 0.98994(9) 0.26890(4) 0.31922(4)
Cu1_2 Cu -0.48994(9) 0.76890(4) 0.18078(4)
Cu1C Cu 0.01006(9) 0.73110(4) -0.31922(4)
Cu1B_2 Cu 0.48994(9) 1.23110(4) -0.18078(4)
Cu1A_2 Cu -0.01006(9) 1.26890(4) 0.31922(4)
Cu1A_3 Cu 0.98994(9) 1.26890(4) 0.31922(4)
N1A N 0.9387(5) 1.1176(3) 0.4094(3)
N1B N -0.5613(5) 1.3824(3) -0.0906(3)
H1A H 0.9635 1.0497 0.3711
H1B H -0.5365 1.4503 -0.1289
H2A H 1.0174 1.1189 0.4615
H2B H -0.4826 1.3811 -0.0385
N2A N 0.4641(5) 0.9234(3) 0.2633(3)
N2C N -0.4641(5) 1.0766(3) -0.2633(3)
H3A H 0.454 0.9887 0.2199
H3C H -0.454 1.0113 -0.2199
H4A H 0.3608 0.915 0.297
H4C H -0.3608 1.085 -0.297
N3B N -0.2698(5) 1.1880(4) -0.0879(3)
N4B N 0.3037(5) 1.1359(4) -0.1045(3)
N4_2 N 0.6963(5) 0.8641(4) 0.1045(3)
N4B_2 N -0.6963(5) 1.1359(4) -0.1045(3)
N5B N 0.0298(6) 1.1614(3) 0.1962(3)
N5C N 0.4702(6) 0.6614(3) 0.3038(3)
N5A N -0.4702(6) 1.3386(3) -0.3038(3)
C1A C 0.7605(7) 1.0960(5) 0.4572(4)
H5A H 0.7298 1.1676 0.4994
H6A H 0.7668 1.0238 0.5022
C2A C 0.6165(8) 1.0753(5) 0.3777(5)
H7A H 0.5035 1.0968 0.4082
H8A H 0.6363 1.1307 0.3196
C3A C 0.6091(8) 0.9503(5) 0.3411(4)
H9A H 0.5934 0.8953 0.4
H10A H 0.7218 0.93 0.3096
C4B C -0.1657(6) 1.1190(5) -0.0561(4)
C5B C 0.1875(6) 1.0851(4) -0.0648(4)
C6B C 0.0229(7) 1.1022(3) 0.1217(3)
O1 O 0.4941(7) 1.1460(3) 0.1110(2)
H11 H 0.571(7) 1.149(8) 0.067(4)
H13 H 0.401(6) 1.133(8) 0.080(5)
O2 O 0.0691(5) 0.8811(3) 0.3087(3)
H12 H 0.061(9) 0.809(3) 0.330(4)
H14 H 0.064(9) 0.877(5) 0.2463(15)
loop_
_geom_bond_atom_site_label_1
_geom_bond_atom_site_label_2
_geom_bond_site_symmetry_1
_geom_bond_site_symmetry_2
Fe1 C4 1_555 1_555
Cu1 N1 1_555 1_555
N1 H1 1_555 1_555
H2 N1 1_555 1_555
N2 H3 1_555 1_555
H4 N2 1_555 1_555
N3 Cu1 1_555 1_555
N4 C5 1_555 1_555
N5 C6 1_555 1_555
C1 N1 1_555 1_555
H5 C1 1_555 1_555
H6 C1 1_555 1_555
C2 C1 1_555 1_555
H7 C2 1_555 1_555
H8 C2 1_555 1_555
C3 N2 1_555 1_555
H9 C3 1_555 1_555
H10 C3 1_555 1_555
C4 N3 1_555 1_555
C5 Fe1 1_555 1_555
C6 Fe1 1_555 1_555
O1 H11 1_555 1_555
O2 H12 1_555 1_555
H13 O1 1_555 1_555
H14 O2 1_555 1_555
Cu1B N1B 1_555 1_555
Cu1A N2 1_555 1_555
Cu1_2 N4 1_555 1_555
Cu1C N5 1_555 1_555
Cu1B_2 N4B 1_555 1_555
Cu1A_2 N5B 1_555 1_555
Cu1A_3 N1A 1_555 1_555
N1A H1A 1_555 1_555
N1B H1B 1_555 1_555
H2A N1A 1_555 1_555
H2B N1B 1_555 1_555
N2A Cu1 1_555 1_555
N2C Cu1B 1_555 1_555
H3A N2A 1_555 1_555
H3C N2C 1_555 1_555
H4A N2A 1_555 1_555
H4C N2C 1_555 1_555
N3B Cu1B 1_555 1_555
N4B C5B 1_555 1_555
N4_2 Cu1 1_555 1_555
N4B_2 Cu1B 1_555 1_555
N5B C6B 1_555 1_555
N5C Cu1 1_555 1_555
N5A Cu1B 1_555 1_555
C1A N1A 1_555 1_555
H5A C1A 1_555 1_555
H6A C1A 1_555 1_555
C2A C1A 1_555 1_555
H7A C2A 1_555 1_555
H8A C2A 1_555 1_555
C3A N2A 1_555 1_555
H9A C3A 1_555 1_555
H10A C3A 1_555 1_555
C4B Fe1 1_555 1_555
C5B Fe1 1_555 1_555
C6B Fe1 1_555 1_555
C2 C3 1_555 1_555
N3B C4B 1_555 1_555
C2A C3A 1_555 1_555

#END
