
#######################################################################
#
#                 Cambridge Crystallographic Data Centre
#                                CCDC 
#
#######################################################################
#
# If this CIF has been generated from an entry in the Cambridge 
# Structural Database, then it will include bibliographic, chemical, 
# crystal, experimental, refinement or atomic coordinate data resulting 
# from the CCDC's data processing and validation procedures.
#
#######################################################################

data_JEFVUM
_symmetry_cell_setting           tetragonal
_symmetry_space_group_name_H-M   'P 41 21 2'
_symmetry_Int_Tables_number      92
_space_group_name_Hall           'P 4abw 2nw'
loop_
_symmetry_equiv_pos_site_id
_symmetry_equiv_pos_as_xyz
1 x,y,z
2 -x,-y,1/2+z
3 1/2-y,1/2+x,1/4+z
4 1/2+y,1/2-x,3/4+z
5 1/2-x,1/2+y,1/4-z
6 1/2+x,1/2-y,3/4-z
7 y,x,-z
8 -y,-x,1/2-z
_cell_length_a                   14.9346(7)
_cell_length_b                   14.9346(7)
_cell_length_c                   24.800(2)
_cell_angle_alpha                90
_cell_angle_beta                 90
_cell_angle_gamma                90
_cell_volume                     5531.45
loop_
_atom_site_label
_atom_site_type_symbol
_atom_site_fract_x
_atom_site_fract_y
_atom_site_fract_z
Cu1 Cu 0.82475(2) 0.17092(2) 0.577354(11)
O1 O 0.92834(12) 0.09146(12) 0.57062(7)
C1 C 1.06632(19) 0.02426(19) 0.58937(12)
F1 F 1.1160(2) -0.0007(3) 0.63007(10)
F2 F 1.12053(17) 0.06613(18) 0.55832(15)
F3 F 1.04219(14) -0.04741(15) 0.56550(13)
C2 C 0.98835(18) 0.08387(17) 0.60592(11)
C3 C 0.9924(2) 0.1251(2) 0.65576(12)
H1 H 1.034(2) 0.1187(18) 0.6759(12)
C4 C 0.92439(18) 0.17934(18) 0.67490(11)
C5 C 0.9428(2) 0.2298(2) 0.72782(12)
F4 F 0.97277(14) 0.17646(14) 0.76605(7)
F5 F 1.00338(16) 0.29343(15) 0.71962(8)
F6 F 0.87031(11) 0.26951(12) 0.74693(7)
O2 O 0.84879(12) 0.19406(12) 0.65430(7)
O3 O 0.81364(12) 0.17328(11) 0.49769(7)
C6 C 0.7568(2) 0.1990(2) 0.41148(12)
F7 F 0.69145(13) 0.23843(16) 0.38522(7)
F8 F 0.83280(14) 0.22918(17) 0.39148(7)
F9 F 0.75307(18) 0.11366(14) 0.39950(8)
C7 C 0.75262(17) 0.21348(18) 0.47263(11)
C8 C 0.68460(18) 0.26593(18) 0.49355(12)
H2 H 0.6501(19) 0.2896(19) 0.4692(11)
C9 C 0.67563(18) 0.28151(17) 0.54817(11)
C10 C 0.5957(2) 0.3375(2) 0.56820(12)
F10 F 0.62234(11) 0.40978(11) 0.59475(6)
F11 F 0.54313(13) 0.36495(14) 0.52789(8)
F12 F 0.54626(12) 0.28915(13) 0.60199(9)
O4 O 0.72407(12) 0.25466(12) 0.58588(7)
O5 O 0.97869(14) 0.59223(13) 0.54249(9)
N1 N 0.98566(16) 0.50664(15) 0.54149(9)
C11 C 1.06441(18) 0.46092(18) 0.51591(11)
C12 C 1.14278(19) 0.4766(2) 0.55417(13)
H3 H 1.1607 0.5382 0.5525
H4 H 1.1921 0.4391 0.5438
H5 H 1.1249 0.4622 0.5903
C13 C 1.0833(3) 0.5013(2) 0.46140(14)
H6 H 1.097(2) 0.564(2) 0.4666(11)
H7 H 1.032(2) 0.503(2) 0.4428(12)
H8 H 1.132(2) 0.4708(19) 0.4418(11)
C14 C 1.03096(18) 0.36190(18) 0.51545(10)
C15 C 0.9807(2) 0.3368(2) 0.46458(13)
H9 H 0.952(3) 0.283(3) 0.4676(16)
H10 H 1.021(2) 0.3298(19) 0.4355(11)
H11 H 0.935(2) 0.381(2) 0.4561(12)
C16 C 1.1015(2) 0.2930(2) 0.52788(15)
H12 H 1.075(2) 0.235(2) 0.5283(12)
H13 H 1.123(3) 0.291(2) 0.5611(16)
H14 H 1.144(2) 0.297(2) 0.4973(14)
N2 N 0.96377(15) 0.36583(14) 0.55980(9)
O6 O 0.93303(14) 0.29430(13) 0.58208(8)
C17 C 0.93529(18) 0.44873(17) 0.57012(10)
C18 C 0.86625(18) 0.47343(17) 0.60831(10)
C19 C 0.82776(18) 0.41896(18) 0.64722(10)
H15 H 0.8334(19) 0.358(2) 0.6549(11)
N3 N 0.77264(14) 0.47000(14) 0.67653(9)
C20 C 0.72689(19) 0.44597(19) 0.72734(11)
H16 H 0.6931(17) 0.4990(19) 0.7378(10)
H17 H 0.7711(18) 0.4371(17) 0.7538(11)
C21 C 0.66452(19) 0.3668(2) 0.72219(11)
H18 H 0.6916(18) 0.3219(19) 0.7047(11)
H19 H 0.616(2) 0.3796(19) 0.7016(11)
N4 N 0.77248(14) 0.55658(14) 0.65901(8)
C22 C 0.82925(18) 0.55799(19) 0.61775(10)
H20 H 0.842(2) 0.609(2) 0.6036(12)
Cu1G Cu 0.82908(2) 0.17525(2) 0.922646(11)
Cu1D Cu 0.67525(2) 0.67092(2) 0.672646(11)
Cu1B Cu 0.32908(2) 0.32475(2) 0.827354(11)
O1G O 0.90854(12) 0.07166(12) 0.92938(7)
C1G C 0.97574(19) -0.06632(19) 0.91063(12)
F1G F 1.0007(3) -0.1160(2) 0.86993(10)
F2G F 0.93387(18) -0.12053(17) 0.94168(15)
F3G F 1.04741(15) -0.04219(14) 0.93450(13)
C2G C 0.91613(17) 0.01165(18) 0.89408(11)
C3G C 0.8749(2) 0.0076(2) 0.84424(12)
H1G H 0.8813(18) -0.034(2) 0.8241(12)
C4G C 0.82066(18) 0.07561(18) 0.82510(11)
C5G C 0.7702(2) 0.0572(2) 0.77218(12)
F4G F 0.82354(14) 0.02723(14) 0.73395(7)
F5G F 0.70657(15) -0.00338(16) 0.78038(8)
F6G F 0.73049(12) 0.12969(11) 0.75307(7)
O2G O 0.80594(12) 0.15121(12) 0.84570(7)
O3G O 0.82672(11) 0.18636(12) 1.00231(7)
C6G C 0.8010(2) 0.2432(2) 1.08852(12)
F7G F 0.76157(16) 0.30855(13) 1.11478(7)
F8G F 0.77082(17) 0.16720(14) 1.10852(7)
F9G F 0.88634(14) 0.24693(18) 1.10050(8)
C7G C 0.78652(18) 0.24738(17) 1.02737(11)
C8G C 0.73407(18) 0.31540(18) 1.00645(12)
H2G H 0.7104(19) 0.3499(19) 1.0308(11)
C9G C 0.71849(17) 0.32437(18) 0.95183(11)
C10G C 0.6625(2) 0.4043(2) 0.93180(12)
F10G F 0.59022(11) 0.37766(11) 0.90525(6)
F11G F 0.63505(14) 0.45687(13) 0.97211(8)
F12G F 0.71085(13) 0.45374(12) 0.89801(9)
O4G O 0.74534(12) 0.27593(12) 0.91412(7)
O5G O 0.40777(13) 0.02131(14) 0.95751(9)
N1G N 0.49336(15) 0.01434(16) 0.95851(9)
C11G C 0.53908(18) -0.06441(18) 0.98409(11)
C12G C 0.5234(2) -0.14278(19) 0.94583(13)
H3G H 0.4618 -0.1607 0.9475
H4G H 0.5609 -0.1921 0.9562
H5G H 0.5378 -0.1249 0.9097
C13G C 0.4987(2) -0.0833(3) 1.03860(14)
H6G H 0.436(2) -0.097(2) 1.0334(11)
H7G H 0.497(2) -0.032(2) 1.0572(12)
H8G H 0.5292(19) -0.132(2) 1.0582(11)
C14G C 0.63810(18) -0.03096(18) 0.98455(10)
C15G C 0.6632(2) 0.0193(2) 1.03542(13)
H9G H 0.717(3) 0.048(3) 1.0324(16)
H10G H 0.6702(19) -0.021(2) 1.0645(11)
H11G H 0.619(2) 0.065(2) 1.0439(12)
C16G C 0.7070(2) -0.1015(2) 0.97212(15)
H12G H 0.765(2) -0.075(2) 0.9717(12)
H13G H 0.709(2) -0.123(3) 0.9389(16)
H14G H 0.703(2) -0.144(2) 1.0027(14)
N2G N 0.63417(14) 0.03623(15) 0.94020(9)
O6G O 0.70570(13) 0.06697(14) 0.91792(8)
C17G C 0.55127(17) 0.06471(18) 0.92988(10)
C18G C 0.52657(17) 0.13375(18) 0.89169(10)
C19G C 0.58104(18) 0.17224(18) 0.85278(10)
H15G H 0.642(2) 0.1666(19) 0.8451(11)
N3G N 0.53000(14) 0.22736(14) 0.82347(9)
C20G C 0.55403(19) 0.27311(19) 0.77266(11)
H16G H 0.5010(19) 0.3069(17) 0.7622(10)
H17G H 0.5629(17) 0.2289(18) 0.7462(11)
C21G C 0.6332(2) 0.33548(19) 0.77781(11)
H18G H 0.6781(19) 0.3084(18) 0.7953(11)
H19G H 0.6204(19) 0.384(2) 0.7984(11)
N4G N 0.44342(14) 0.22752(14) 0.84099(8)
N4D N 0.72752(14) 0.05658(14) 0.59099(8)
N4B N 0.94342(14) 0.27248(14) 0.90901(8)
C22G C 0.44201(19) 0.17075(18) 0.88225(10)
H20G H 0.391(2) 0.158(2) 0.8964(12)
loop_
_geom_bond_atom_site_label_1
_geom_bond_atom_site_label_2
_geom_bond_site_symmetry_1
_geom_bond_site_symmetry_2
Cu1 O1 1_555 1_555
O1 C2 1_555 1_555
C1 F1 1_555 1_555
F2 C1 1_555 1_555
F3 C1 1_555 1_555
C2 C1 1_555 1_555
C3 C2 1_555 1_555
H1 C3 1_555 1_555
C4 C3 1_555 1_555
C5 C4 1_555 1_555
F4 C5 1_555 1_555
F5 C5 1_555 1_555
F6 C5 1_555 1_555
O2 Cu1 1_555 1_555
O3 Cu1 1_555 1_555
C6 F7 1_555 1_555
F8 C6 1_555 1_555
F9 C6 1_555 1_555
C7 O3 1_555 1_555
C8 C7 1_555 1_555
H2 C8 1_555 1_555
C9 C8 1_555 1_555
C10 C9 1_555 1_555
F10 C10 1_555 1_555
F11 C10 1_555 1_555
F12 C10 1_555 1_555
O4 Cu1 1_555 1_555
O5 N1 1_555 1_555
N1 C11 1_555 1_555
C11 C12 1_555 1_555
C12 H3 1_555 1_555
H4 C12 1_555 1_555
H5 C12 1_555 1_555
C13 C11 1_555 1_555
H6 C13 1_555 1_555
H7 C13 1_555 1_555
H8 C13 1_555 1_555
C14 C11 1_555 1_555
C15 C14 1_555 1_555
H9 C15 1_555 1_555
H10 C15 1_555 1_555
H11 C15 1_555 1_555
C16 C14 1_555 1_555
H12 C16 1_555 1_555
H13 C16 1_555 1_555
H14 C16 1_555 1_555
N2 C14 1_555 1_555
O6 Cu1 1_555 1_555
C17 N1 1_555 1_555
C18 C17 1_555 1_555
C19 C18 1_555 1_555
H15 C19 1_555 1_555
N3 C19 1_555 1_555
C20 N3 1_555 1_555
H16 C20 1_555 1_555
H17 C20 1_555 1_555
C21 C20 1_555 1_555
H18 C21 1_555 1_555
H19 C21 1_555 1_555
N4 N3 1_555 1_555
C22 C18 1_555 1_555
H20 C22 1_555 1_555
Cu1G O1G 1_555 1_555
Cu1D N4 1_555 1_555
Cu1B N4G 1_555 1_555
O1G C2G 1_555 1_555
C1G F1G 1_555 1_555
F2G C1G 1_555 1_555
F3G C1G 1_555 1_555
C2G C1G 1_555 1_555
C3G C2G 1_555 1_555
H1G C3G 1_555 1_555
C4G C3G 1_555 1_555
C5G C4G 1_555 1_555
F4G C5G 1_555 1_555
F5G C5G 1_555 1_555
F6G C5G 1_555 1_555
O2G Cu1G 1_555 1_555
O3G Cu1G 1_555 1_555
C6G F7G 1_555 1_555
F8G C6G 1_555 1_555
F9G C6G 1_555 1_555
C7G O3G 1_555 1_555
C8G C7G 1_555 1_555
H2G C8G 1_555 1_555
C9G C8G 1_555 1_555
C10G C9G 1_555 1_555
F10G C10G 1_555 1_555
F11G C10G 1_555 1_555
F12G C10G 1_555 1_555
O4G Cu1G 1_555 1_555
O5G N1G 1_555 1_555
N1G C11G 1_555 1_555
C11G C12G 1_555 1_555
C12G H3G 1_555 1_555
H4G C12G 1_555 1_555
H5G C12G 1_555 1_555
C13G C11G 1_555 1_555
H6G C13G 1_555 1_555
H7G C13G 1_555 1_555
H8G C13G 1_555 1_555
C14G C11G 1_555 1_555
C15G C14G 1_555 1_555
H9G C15G 1_555 1_555
H10G C15G 1_555 1_555
H11G C15G 1_555 1_555
C16G C14G 1_555 1_555
H12G C16G 1_555 1_555
H13G C16G 1_555 1_555
H14G C16G 1_555 1_555
N2G C14G 1_555 1_555
O6G Cu1G 1_555 1_555
C17G N1G 1_555 1_555
C18G C17G 1_555 1_555
C19G C18G 1_555 1_555
H15G C19G 1_555 1_555
N3G C19G 1_555 1_555
C20G N3G 1_555 1_555
H16G C20G 1_555 1_555
H17G C20G 1_555 1_555
C21G C21 1_555 1_555
H18G C21G 1_555 1_555
H19G C21G 1_555 1_555
N4G N3G 1_555 1_555
N4D Cu1 1_555 1_555
N4B Cu1G 1_555 1_555
C22G C18G 1_555 1_555
H20G C22G 1_555 1_555
C4 O2 1_555 1_555
C6 C7 1_555 1_555
C9 O4 1_555 1_555
N2 O6 1_555 1_555
N2 C17 1_555 1_555
N4 C22 1_555 1_555
C4G O2G 1_555 1_555
C6G C7G 1_555 1_555
C9G O4G 1_555 1_555
N2G O6G 1_555 1_555
N2G C17G 1_555 1_555
C20G C21G 1_555 1_555
N4G C22G 1_555 1_555

#END
