
#######################################################################
#
#                 Cambridge Crystallographic Data Centre
#                                CCDC 
#
#######################################################################
#
# If this CIF has been generated from an entry in the Cambridge 
# Structural Database, then it will include bibliographic, chemical, 
# crystal, experimental, refinement or atomic coordinate data resulting 
# from the CCDC's data processing and validation procedures.
#
#######################################################################

data_JEFVUM01
_symmetry_cell_setting           tetragonal
_symmetry_space_group_name_H-M   'P 41 21 2'
_symmetry_Int_Tables_number      92
_space_group_name_Hall           'P 4abw 2nw'
loop_
_symmetry_equiv_pos_site_id
_symmetry_equiv_pos_as_xyz
1 x,y,z
2 -x,-y,1/2+z
3 1/2-y,1/2+x,1/4+z
4 1/2+y,1/2-x,3/4+z
5 1/2-x,1/2+y,1/4-z
6 1/2+x,1/2-y,3/4-z
7 y,x,-z
8 -y,-x,1/2-z
_cell_length_a                   15.0952(12)
_cell_length_b                   15.0952(12)
_cell_length_c                   24.850(3)
_cell_angle_alpha                90
_cell_angle_beta                 90
_cell_angle_gamma                90
_cell_volume                     5662.45
loop_
_atom_site_label
_atom_site_type_symbol
_atom_site_fract_x
_atom_site_fract_y
_atom_site_fract_z
Cu1 Cu 0.82371(3) 0.16928(3) 0.576682(16)
O1 O 0.92746(17) 0.09235(17) 0.57013(10)
C1 C 1.0627(3) 0.0262(3) 0.58927(19)
F1 F 1.1100(4) -0.0014(4) 0.62882(17)
F2 F 1.1194(3) 0.0688(3) 0.5615(3)
F3 F 1.0418(2) -0.0406(3) 0.5618(2)
C2 C 0.9864(3) 0.0859(2) 0.60503(17)
C3 C 0.9903(3) 0.1269(3) 0.65437(19)
H1 H 1.034(3) 0.117(3) 0.6728(16)
C4 C 0.9239(3) 0.1797(3) 0.67371(15)
C5 C 0.9417(3) 0.2289(3) 0.72658(19)
F4 F 0.9696(3) 0.1770(2) 0.76435(11)
F5 F 0.9998(3) 0.2915(3) 0.71884(14)
F6 F 0.87063(19) 0.2690(2) 0.74567(11)
O2 O 0.84906(16) 0.19425(16) 0.65312(10)
O3 O 0.81218(16) 0.17029(16) 0.49712(10)
C6 C 0.7563(3) 0.1964(3) 0.41165(18)
F7 F 0.6940(3) 0.2306(4) 0.38528(12)
F8 F 0.8286(3) 0.2235(4) 0.39126(13)
F9 F 0.7569(4) 0.1149(3) 0.39875(15)
C7 C 0.7519(2) 0.2092(2) 0.47187(16)
C8 C 0.6852(3) 0.2616(3) 0.49262(17)
H2 H 0.657(2) 0.289(2) 0.4677(14)
C9 C 0.6755(3) 0.2768(2) 0.54717(17)
C10 C 0.5966(3) 0.3323(3) 0.56598(18)
F10 F 0.62211(17) 0.40412(16) 0.59217(10)
F11 F 0.5452(2) 0.3593(2) 0.52619(13)
F12 F 0.5482(2) 0.2862(2) 0.60037(16)
O4 O 0.72275(18) 0.25048(16) 0.58472(10)
O5 O 0.9730(2) 0.58983(19) 0.54267(15)
N1 N 0.9793(2) 0.5057(2) 0.54079(13)
C11 C 1.0559(3) 0.4612(3) 0.51370(17)
C12 C 1.1351(3) 0.4758(4) 0.5518(2)
H3 H 1.1531 0.5368 0.5502
H4 H 1.1835 0.4387 0.5408
H5 H 1.1181 0.4612 0.5879
C13 C 1.0738(5) 0.5022(4) 0.4601(3)
H6 H 1.094(4) 0.564(4) 0.468(2)
H7 H 1.006(5) 0.494(4) 0.447(2)
H8 H 1.124(3) 0.471(3) 0.4440(19)
C14 C 1.0241(3) 0.3640(3) 0.51438(16)
C15 C 0.9745(4) 0.3379(5) 0.4631(2)
H9 H 0.966(7) 0.282(7) 0.475(4)
H10 H 1.020(3) 0.327(3) 0.4306(18)
H11 H 0.930(3) 0.391(4) 0.445(2)
C16 C 1.0934(4) 0.2943(4) 0.5273(3)
H12 H 1.069(4) 0.241(5) 0.521(3)
H13 H 1.112(3) 0.335(3) 0.569(2)
H14 H 1.139(3) 0.297(3) 0.497(2)
N2 N 0.9573(2) 0.3665(2) 0.55819(12)
O6 O 0.9278(2) 0.29591(18) 0.58007(13)
C17 C 0.9295(2) 0.4484(2) 0.56922(14)
C18 C 0.8624(2) 0.4726(2) 0.60756(14)
C19 C 0.8242(2) 0.4180(2) 0.64627(15)
H15 H 0.829(2) 0.351(2) 0.6524(15)
N3 N 0.77060(19) 0.46834(19) 0.67612(11)
C20 C 0.7267(3) 0.4441(3) 0.72687(15)
H16 H 0.695(2) 0.493(2) 0.7380(14)
H17 H 0.770(2) 0.4342(19) 0.7523(13)
C21 C 0.6641(3) 0.3667(3) 0.72207(15)
H18 H 0.698(2) 0.313(3) 0.7050(15)
H19 H 0.618(3) 0.387(3) 0.7040(14)
N4 N 0.7706(2) 0.55455(19) 0.65892(11)
C22 C 0.8255(3) 0.5560(2) 0.61763(14)
H20 H 0.840(3) 0.607(3) 0.6031(16)
Cu1G Cu 0.83072(3) 0.17629(3) 0.923318(16)
Cu1D Cu 0.67629(3) 0.66928(3) 0.673318(16)
Cu1B Cu 0.33072(3) 0.32371(3) 0.826682(16)
O1G O 0.90765(17) 0.07254(17) 0.92987(10)
C1G C 0.9738(3) -0.0627(3) 0.91073(19)
F1G F 1.0014(4) -0.1100(4) 0.87118(17)
F2G F 0.9312(3) -0.1194(3) 0.9385(3)
F3G F 1.0406(3) -0.0418(2) 0.9382(2)
C2G C 0.9141(2) 0.0136(3) 0.89497(17)
C3G C 0.8731(3) 0.0097(3) 0.84563(19)
H1G H 0.883(3) -0.034(3) 0.8272(16)
C4G C 0.8203(3) 0.0761(3) 0.82629(15)
C5G C 0.7711(3) 0.0583(3) 0.77342(19)
F4G F 0.8230(2) 0.0304(3) 0.73565(11)
F5G F 0.7085(3) 0.0002(3) 0.78116(14)
F6G F 0.7310(2) 0.12937(19) 0.75433(11)
O2G O 0.80575(16) 0.15094(16) 0.84688(10)
O3G O 0.82971(16) 0.18782(16) 1.00288(10)
C6G C 0.8036(3) 0.2437(3) 1.08835(18)
F7G F 0.7694(4) 0.3060(3) 1.11472(12)
F8G F 0.7765(4) 0.1714(3) 1.10874(13)
F9G F 0.8851(3) 0.2431(4) 1.10125(15)
C7G C 0.7908(2) 0.2481(2) 1.02813(16)
C8G C 0.7384(3) 0.3148(3) 1.00738(17)
H2G H 0.711(2) 0.343(2) 1.0323(14)
C9G C 0.7232(2) 0.3245(3) 0.95283(17)
C10G C 0.6677(3) 0.4034(3) 0.93402(18)
F10G F 0.59588(16) 0.37789(17) 0.90783(10)
F11G F 0.6407(2) 0.4548(2) 0.97381(13)
F12G F 0.7138(2) 0.4518(2) 0.89963(16)
O4G O 0.74952(16) 0.27725(18) 0.91528(10)
O5G O 0.41017(19) 0.0270(2) 0.95733(15)
N1G N 0.4943(2) 0.0207(2) 0.95921(13)
C11G C 0.5388(3) -0.0559(3) 0.98630(17)
C12G C 0.5242(4) -0.1351(3) 0.9482(2)
H3G H 0.4632 -0.1531 0.9498
H4G H 0.5613 -0.1835 0.9592
H5G H 0.5388 -0.1181 0.9121
C13G C 0.4978(4) -0.0738(5) 1.0399(3)
H6G H 0.436(4) -0.094(4) 1.032(2)
H7G H 0.506(4) -0.006(5) 1.053(2)
H8G H 0.529(3) -0.124(3) 1.0560(19)
C14G C 0.6360(3) -0.0241(3) 0.98562(16)
C15G C 0.6621(5) 0.0255(4) 1.0369(2)
H9G H 0.718(7) 0.034(7) 1.025(4)
H10G H 0.673(3) -0.020(3) 1.0694(18)
H11G H 0.609(4) 0.070(3) 1.055(2)
C16G C 0.7057(4) -0.0934(4) 0.9727(3)
H12G H 0.759(5) -0.069(4) 0.979(3)
H13G H 0.665(3) -0.112(3) 0.931(2)
H14G H 0.703(3) -0.139(3) 1.003(2)
N2G N 0.6335(2) 0.0427(2) 0.94181(12)
O6G O 0.70409(18) 0.0722(2) 0.91993(13)
C17G C 0.5516(2) 0.0705(2) 0.93078(14)
C18G C 0.5274(2) 0.1376(2) 0.89244(14)
C19G C 0.5820(2) 0.1758(2) 0.85373(15)
H15G H 0.649(2) 0.171(2) 0.8476(15)
N3G N 0.53166(19) 0.22940(19) 0.82388(11)
C20G C 0.5559(3) 0.2733(3) 0.77313(15)
H16G H 0.507(2) 0.305(2) 0.7620(14)
H17G H 0.5658(19) 0.230(2) 0.7477(13)
C21G C 0.6333(3) 0.3359(3) 0.77793(15)
H18G H 0.687(3) 0.302(2) 0.7950(15)
H19G H 0.613(3) 0.382(3) 0.7960(14)
N4G N 0.44545(19) 0.2294(2) 0.84108(11)
N4D N 0.7294(2) 0.05455(19) 0.59108(11)
N4B N 0.94545(19) 0.2706(2) 0.90892(11)
C22G C 0.4440(2) 0.1745(3) 0.88237(14)
H20G H 0.393(3) 0.160(3) 0.8969(16)
loop_
_geom_bond_atom_site_label_1
_geom_bond_atom_site_label_2
_geom_bond_site_symmetry_1
_geom_bond_site_symmetry_2
Cu1 O1 1_555 1_555
O1 C2 1_555 1_555
C1 F1 1_555 1_555
F2 C1 1_555 1_555
F3 C1 1_555 1_555
C2 C1 1_555 1_555
C3 C2 1_555 1_555
H1 C3 1_555 1_555
C4 C3 1_555 1_555
C5 C4 1_555 1_555
F4 C5 1_555 1_555
F5 C5 1_555 1_555
F6 C5 1_555 1_555
O2 Cu1 1_555 1_555
O3 Cu1 1_555 1_555
C6 F7 1_555 1_555
F8 C6 1_555 1_555
F9 C6 1_555 1_555
C7 O3 1_555 1_555
C8 C7 1_555 1_555
H2 C8 1_555 1_555
C9 C8 1_555 1_555
C10 C9 1_555 1_555
F10 C10 1_555 1_555
F11 C10 1_555 1_555
F12 C10 1_555 1_555
O4 Cu1 1_555 1_555
O5 N1 1_555 1_555
N1 C11 1_555 1_555
C11 C12 1_555 1_555
C12 H3 1_555 1_555
H4 C12 1_555 1_555
H5 C12 1_555 1_555
C13 C11 1_555 1_555
H6 C13 1_555 1_555
H7 C13 1_555 1_555
H8 C13 1_555 1_555
C14 C11 1_555 1_555
C15 C14 1_555 1_555
H9 C15 1_555 1_555
H10 C15 1_555 1_555
H11 C15 1_555 1_555
C16 C14 1_555 1_555
H12 C16 1_555 1_555
H13 C16 1_555 1_555
H14 C16 1_555 1_555
N2 C14 1_555 1_555
O6 Cu1 1_555 1_555
C17 N1 1_555 1_555
C18 C17 1_555 1_555
C19 C18 1_555 1_555
H15 C19 1_555 1_555
N3 C19 1_555 1_555
C20 N3 1_555 1_555
H16 C20 1_555 1_555
H17 C20 1_555 1_555
C21 C20 1_555 1_555
H18 C21 1_555 1_555
H19 C21 1_555 1_555
N4 N3 1_555 1_555
C22 C18 1_555 1_555
H20 C22 1_555 1_555
Cu1G O1G 1_555 1_555
Cu1D N4 1_555 1_555
Cu1B N4G 1_555 1_555
O1G C2G 1_555 1_555
C1G F1G 1_555 1_555
F2G C1G 1_555 1_555
F3G C1G 1_555 1_555
C2G C1G 1_555 1_555
C3G C2G 1_555 1_555
H1G C3G 1_555 1_555
C4G C3G 1_555 1_555
C5G C4G 1_555 1_555
F4G C5G 1_555 1_555
F5G C5G 1_555 1_555
F6G C5G 1_555 1_555
O2G Cu1G 1_555 1_555
O3G Cu1G 1_555 1_555
C6G F7G 1_555 1_555
F8G C6G 1_555 1_555
F9G C6G 1_555 1_555
C7G O3G 1_555 1_555
C8G C7G 1_555 1_555
H2G C8G 1_555 1_555
C9G C8G 1_555 1_555
C10G C9G 1_555 1_555
F10G C10G 1_555 1_555
F11G C10G 1_555 1_555
F12G C10G 1_555 1_555
O4G Cu1G 1_555 1_555
O5G N1G 1_555 1_555
N1G C11G 1_555 1_555
C11G C12G 1_555 1_555
C12G H3G 1_555 1_555
H4G C12G 1_555 1_555
H5G C12G 1_555 1_555
C13G C11G 1_555 1_555
H6G C13G 1_555 1_555
H7G C13G 1_555 1_555
H8G C13G 1_555 1_555
C14G C11G 1_555 1_555
C15G C14G 1_555 1_555
H9G C15G 1_555 1_555
H10G C15G 1_555 1_555
H11G C15G 1_555 1_555
C16G C14G 1_555 1_555
H12G C16G 1_555 1_555
H13G C16G 1_555 1_555
H14G C16G 1_555 1_555
N2G C14G 1_555 1_555
O6G Cu1G 1_555 1_555
C17G N1G 1_555 1_555
C18G C17G 1_555 1_555
C19G C18G 1_555 1_555
H15G C19G 1_555 1_555
N3G C19G 1_555 1_555
C20G N3G 1_555 1_555
H16G C20G 1_555 1_555
H17G C20G 1_555 1_555
C21G C21 1_555 1_555
H18G C21G 1_555 1_555
H19G C21G 1_555 1_555
N4G N3G 1_555 1_555
N4D Cu1 1_555 1_555
N4B Cu1G 1_555 1_555
C22G C18G 1_555 1_555
H20G C22G 1_555 1_555
C4 O2 1_555 1_555
C6 C7 1_555 1_555
C9 O4 1_555 1_555
N2 O6 1_555 1_555
N2 C17 1_555 1_555
N4 C22 1_555 1_555
C4G O2G 1_555 1_555
C6G C7G 1_555 1_555
C9G O4G 1_555 1_555
N2G O6G 1_555 1_555
N2G C17G 1_555 1_555
C20G C21G 1_555 1_555
N4G C22G 1_555 1_555

#END
