
#######################################################################
#
#                 Cambridge Crystallographic Data Centre
#                                CCDC 
#
#######################################################################
#
# If this CIF has been generated from an entry in the Cambridge 
# Structural Database, then it will include bibliographic, chemical, 
# crystal, experimental, refinement or atomic coordinate data resulting 
# from the CCDC's data processing and validation procedures.
#
#######################################################################

data_JEGFIK
_symmetry_cell_setting           monoclinic
_symmetry_space_group_name_H-M   'P 21/c'
_symmetry_Int_Tables_number      14
_space_group_name_Hall           '-P 2ybc'
loop_
_symmetry_equiv_pos_site_id
_symmetry_equiv_pos_as_xyz
1 x,y,z
2 -x,1/2+y,1/2-z
3 -x,-y,-z
4 x,1/2-y,1/2+z
_cell_length_a                   12.95(1)
_cell_length_b                   16.78(2)
_cell_length_c                   9.58(1)
_cell_angle_alpha                90
_cell_angle_beta                 95.8(2)
_cell_angle_gamma                90
_cell_volume                     2071.09
loop_
_atom_site_label
_atom_site_type_symbol
_atom_site_fract_x
_atom_site_fract_y
_atom_site_fract_z
Na1 Na -0.2290(2) -0.5018(2) -0.2723(3)
O1 O -0.2205(4) -0.6294(3) -0.1597(5)
O2 O -0.4038(4) -0.5510(3) -0.3012(6)
O3 O -0.3569(4) -0.4359(3) -0.1319(5)
O4 O -0.1642(4) -0.5000(3) -0.0262(5)
O5 O -0.1133(4) -0.0876(3) -0.0517(6)
O6 O -0.2373(4) -0.1098(3) 0.0880(6)
O7 O -0.1005(4) -0.5527(3) -0.4077(6)
C1 C -0.2763(7) -0.6974(5) -0.2180(9)
C2 C -0.3303(7) -0.6746(5) -0.3617(9)
C3 C -0.4303(7) -0.6279(5) -0.360(1)
C4 C -0.4858(6) -0.5036(5) -0.2696(8)
C5 C -0.5879(6) -0.5163(5) -0.3265(9)
C6 C -0.6658(6) -0.4665(5) -0.288(1)
C7 C -0.6419(6) -0.4071(5) -0.1902(9)
C8 C -0.5382(6) -0.3953(5) -0.1327(9)
C9 C -0.4591(6) -0.4429(4) -0.1744(8)
C10 C -0.3248(6) -0.3724(5) -0.0367(9)
C11 C -0.2097(6) -0.3618(4) -0.0317(8)
C12 C -0.1494(6) -0.4261(4) 0.0523(8)
C13 C -0.1269(6) -0.5693(4) 0.0367(8)
C14 C -0.0661(6) -0.5734(5) 0.1635(9)
C15 C -0.0330(6) -0.6469(5) 0.2165(9)
C16 C -0.0600(7) -0.7145(5) 0.143(1)
C17 C -0.1222(6) -0.7133(5) 0.0149(9)
C18 C -0.1565(6) -0.6394(5) -0.0365(8)
C19 C -0.1809(6) -0.2798(4) 0.0311(9)
C20 C -0.2011(7) -0.2117(5) -0.0753(8)
C21 C -0.1819(6) -0.1298(4) -0.0064(8)
H1 H -0.3267 -0.7133 -0.1579
H2 H -0.2295 -0.7401 -0.2278
H3 H -0.3457 -0.7223 -0.4130
H4 H -0.2834 -0.6432 -0.4085
H5 H -0.4630 -0.6221 -0.4527
H6 H -0.4759 -0.6547 -0.3038
H7 H -0.6040 -0.5587 -0.3907
H8 H -0.7352 -0.4731 -0.3290
H9 H -0.6955 -0.3741 -0.1613
H10 H -0.5225 -0.3544 -0.0650
H11 H -0.3428 -0.3851 0.0543
H12 H -0.3586 -0.3244 -0.0680
H13 H -0.1913 -0.3656 -0.1250
H14 H -0.0778 -0.4127 0.0645
H15 H -0.1748 -0.4317 0.1414
H16 H -0.0471 -0.5261 0.2141
H17 H 0.0084 -0.6501 0.3040
H18 H -0.0356 -0.7642 0.1797
H19 H -0.1404 -0.7610 -0.0349
H20 H -0.1093 -0.2800 0.0643
H21 H -0.2210 -0.2705 0.1072
H22 H -0.2712 -0.2143 -0.1154
H23 H -0.1561 -0.2177 -0.1469
H24 H -0.1103 -0.5028 -0.4570
H25 H -0.0301 -0.5671 -0.4174
O6C O -0.2373(4) -0.3902(3) -0.4120(6)
Na1C Na -0.2290(2) 0.0018(2) 0.2277(3)
O8 O -0.4129(5) -0.2892(4) -0.3761(8)
H26 H -0.3556 -0.3232 -0.3873
H27 H -0.4526 -0.3190 -0.3109
loop_
_geom_bond_atom_site_label_1
_geom_bond_atom_site_label_2
_geom_bond_site_symmetry_1
_geom_bond_site_symmetry_2
Na1 O1 1_555 1_555
O1 C1 1_555 1_555
O2 Na1 1_555 1_555
O3 Na1 1_555 1_555
O4 Na1 1_555 1_555
O5 C21 1_555 1_555
O6 C21 1_555 1_555
O7 Na1 1_555 1_555
O8 H26 1_555 1_555
C1 C2 1_555 1_555
C2 C3 1_555 1_555
C3 O2 1_555 1_555
C4 O2 1_555 1_555
C5 C4 1_555 1_555
C6 C5 1_555 1_555
C7 C6 1_555 1_555
C8 C7 1_555 1_555
C9 O3 1_555 1_555
C10 O3 1_555 1_555
C11 C10 1_555 1_555
C12 O4 1_555 1_555
C13 O4 1_555 1_555
C14 C13 1_555 1_555
C15 C14 1_555 1_555
C16 C15 1_555 1_555
C17 C16 1_555 1_555
C18 O1 1_555 1_555
C19 C11 1_555 1_555
C20 C19 1_555 1_555
C21 C20 1_555 1_555
H1 C1 1_555 1_555
H2 C1 1_555 1_555
H3 C2 1_555 1_555
H4 C2 1_555 1_555
H5 C3 1_555 1_555
H6 C3 1_555 1_555
H7 C5 1_555 1_555
H8 C6 1_555 1_555
H9 C7 1_555 1_555
H10 C8 1_555 1_555
H11 C10 1_555 1_555
H12 C10 1_555 1_555
H13 C11 1_555 1_555
H14 C12 1_555 1_555
H15 C12 1_555 1_555
H16 C14 1_555 1_555
H17 C15 1_555 1_555
H18 C16 1_555 1_555
H19 C17 1_555 1_555
H20 C19 1_555 1_555
H21 C19 1_555 1_555
H22 C20 1_555 1_555
H23 C20 1_555 1_555
H24 O7 1_555 1_555
H25 O7 1_555 1_555
H27 O8 1_555 1_555
O6C Na1 1_555 1_555
Na1C O6 1_555 1_555
C4 C9 1_555 1_555
C8 C9 1_555 1_555
C11 C12 1_555 1_555
C13 C18 1_555 1_555
C17 C18 1_555 1_555

#END
