
#######################################################################
#
#                 Cambridge Crystallographic Data Centre
#                                CCDC 
#
#######################################################################
#
# If this CIF has been generated from an entry in the Cambridge 
# Structural Database, then it will include bibliographic, chemical, 
# crystal, experimental, refinement or atomic coordinate data resulting 
# from the CCDC's data processing and validation procedures.
#
#######################################################################

data_JEGJOU
_symmetry_cell_setting           monoclinic
_symmetry_space_group_name_H-M   'C 2/c'
_symmetry_Int_Tables_number      15
_space_group_name_Hall           '-C 2yn'
loop_
_symmetry_equiv_pos_site_id
_symmetry_equiv_pos_as_xyz
1 x,y,z
2 1/2+x,1/2+y,z
3 -x,y,1/2-z
4 1/2-x,1/2+y,1/2-z
5 -x,-y,-z
6 1/2-x,1/2-y,-z
7 x,-y,1/2+z
8 1/2+x,1/2-y,1/2+z
_cell_length_a                   15.763(2)
_cell_length_b                   11.162(2)
_cell_length_c                   8.272(2)
_cell_angle_alpha                90
_cell_angle_beta                 109.34(2)
_cell_angle_gamma                90
_cell_volume                     1373.3
loop_
_atom_site_label
_atom_site_type_symbol
_atom_site_fract_x
_atom_site_fract_y
_atom_site_fract_z
Zn1 Zn 0.5000 0.0588(2) 0.2500
P1 P 0.6149(2) -0.1410(3) 0.5212(4)
O1 O 0.5943(5) -0.0341(9) 0.407(1)
O2 O 0.5553(5) -0.1618(8) 0.629(1)
C1 C 0.7296(8) -0.131(1) 0.656(1)
C2 C 0.7870(9) -0.040(1) 0.639(2)
C3 C 0.8756(9) -0.036(1) 0.748(2)
C4 C 0.908(1) -0.121(2) 0.870(2)
C5 C 0.853(1) -0.211(2) 0.891(2)
C6 C 0.7647(9) -0.214(1) 0.784(2)
H1 H 0.605(7) -0.23(1) 0.41(1)
H2 H 0.770(9) 0.01(1) 0.59(2)
H3 H 0.907(8) 0.02(1) 0.73(2)
H4 H 0.961(8) -0.11(1) 0.93(2)
H5 H 0.874(8) -0.28(1) 0.96(2)
H6 H 0.729(7) -0.27(1) 0.79(1)
P1B P 0.3851(2) -0.1410(3) -0.0212(4)
O1B O 0.4057(5) -0.0341(9) 0.093(1)
O2B O 0.4447(5) -0.1618(8) -0.129(1)
C1B C 0.2704(8) -0.131(1) -0.156(1)
C2B C 0.2130(9) -0.040(1) -0.139(2)
C3B C 0.1244(9) -0.036(1) -0.248(2)
C4B C 0.092(1) -0.121(2) -0.370(2)
C5B C 0.147(1) -0.211(2) -0.391(2)
C6B C 0.2353(9) -0.214(1) -0.284(2)
H1B H 0.395(7) -0.23(1) 0.09(1)
H2B H 0.230(9) 0.01(1) -0.09(2)
H3B H 0.093(8) 0.02(1) -0.23(2)
H4B H 0.039(8) -0.11(1) -0.43(2)
H5B H 0.126(8) -0.28(1) -0.46(2)
H6B H 0.271(7) -0.27(1) -0.29(1)
O2D O 0.4447(5) 0.1618(8) 0.371(1)
O2F O 0.5553(5) 0.1618(8) 0.129(1)
Zn1D Zn 0.5000 -0.0588(2) 0.7500
Zn1D_2 Zn 0.5000 -0.0588(2) -0.2500
loop_
_geom_bond_atom_site_label_1
_geom_bond_atom_site_label_2
_geom_bond_site_symmetry_1
_geom_bond_site_symmetry_2
Zn1 O1 1_555 1_555
P1 O1 1_555 1_555
O2 P1 1_555 1_555
C1 P1 1_555 1_555
C2 C1 1_555 1_555
C3 C2 1_555 1_555
C4 C3 1_555 1_555
C5 C4 1_555 1_555
C6 C1 1_555 1_555
H1 P1 1_555 1_555
H2 C2 1_555 1_555
H3 C3 1_555 1_555
H4 C4 1_555 1_555
H5 C5 1_555 1_555
H6 C6 1_555 1_555
P1B O1B 1_555 1_555
O1B Zn1 1_555 1_555
O2B P1B 1_555 1_555
C1B P1B 1_555 1_555
C2B C1B 1_555 1_555
C3B C2B 1_555 1_555
C4B C3B 1_555 1_555
C5B C4B 1_555 1_555
C6B C1B 1_555 1_555
H1B P1B 1_555 1_555
H2B C2B 1_555 1_555
H3B C3B 1_555 1_555
H4B C4B 1_555 1_555
H5B C5B 1_555 1_555
H6B C6B 1_555 1_555
O2D Zn1 1_555 1_555
O2F Zn1 1_555 1_555
Zn1D O2 1_555 1_555
Zn1D_2 O2B 1_555 1_555
C5 C6 1_555 1_555
C5B C6B 1_555 1_555

#END
