
#######################################################################
#
#                 Cambridge Crystallographic Data Centre
#                                CCDC 
#
#######################################################################
#
# If this CIF has been generated from an entry in the Cambridge 
# Structural Database, then it will include bibliographic, chemical, 
# crystal, experimental, refinement or atomic coordinate data resulting 
# from the CCDC's data processing and validation procedures.
#
#######################################################################

data_JEGNUF
_symmetry_cell_setting           monoclinic
_symmetry_space_group_name_H-M   'C 2/c'
_symmetry_Int_Tables_number      15
_space_group_name_Hall           '-C 2yn'
loop_
_symmetry_equiv_pos_site_id
_symmetry_equiv_pos_as_xyz
1 x,y,z
2 1/2+x,1/2+y,z
3 -x,y,1/2-z
4 1/2-x,1/2+y,1/2-z
5 -x,-y,-z
6 1/2-x,1/2-y,-z
7 x,-y,1/2+z
8 1/2+x,1/2-y,1/2+z
_cell_length_a                   44.531(2)
_cell_length_b                   11.0092(6)
_cell_length_c                   8.0052(4)
_cell_angle_alpha                90.00
_cell_angle_beta                 94.8490(10)
_cell_angle_gamma                90.00
_cell_volume                     3910.51
loop_
_atom_site_label
_atom_site_type_symbol
_atom_site_fract_x
_atom_site_fract_y
_atom_site_fract_z
S1 S 0.177321(13) 0.28036(6) -1.08178(8)
Cd1 Cd 0.0000 0.50098(2) 0.2500
O1 O 0.03363(5) 0.3502(2) 0.2227(3)
O2 O 0.05937(6) 0.1453(2) 0.2175(3)
O3 O 0.03333(5) 0.47832(17) 0.0118(3)
O4 O 0.17705(4) 0.16266(17) -1.1610(2)
O5 O 0.16331(4) 0.37962(17) -1.1747(2)
N1 N 0.21244(5) 0.30435(19) -1.0229(3)
H1 H 0.2251 0.2430 -1.0232
N2 N 0.10572(5) 0.2878(2) -0.3789(3)
N3 N 0.11897(5) 0.2025(2) -0.4465(3)
N4 N 0.0000 0.7033(3) 0.2500
C1 C 0.25438(7) 0.6233(3) -0.8601(4)
H2 H 0.2650 0.6938 -0.8205
C2 C 0.08801(6) 0.1015(2) -0.0088(3)
H3 H 0.0921 0.0232 0.0374
C3 C 0.26870(7) 0.5157(3) -0.8724(4)
H4 H 0.2898 0.5110 -0.8423
C4 C 0.20779(6) 0.5261(2) -0.9645(3)
H5 H 0.1868 0.5308 -0.9976
C5 C 0.14899(6) 0.1387(2) -0.6605(3)
H6 H 0.1512 0.0640 -0.6014
C6 C 0.13214(5) 0.2330(2) -0.5976(3)
C7 C 0.06995(6) 0.1827(2) 0.0731(3)
C8 C 0.09984(6) 0.1342(2) -0.1546(3)
H7 H 0.1121 0.0784 -0.2086
C9 C 0.04270(6) 0.3815(2) 0.0821(3)
C10 C 0.22322(7) 0.6276(2) -0.9079(3)
H8 H 0.2127 0.7023 -0.9008
C11 C 0.07624(5) 0.3311(2) -0.1459(3)
H9 H 0.0725 0.4096 -0.1925
C12 C 0.12887(6) 0.3434(2) -0.6836(3)
H10 H 0.1174 0.4073 -0.6409
C13 C 0.16248(6) 0.1539(2) -0.8084(3)
H11 H 0.1738 0.0898 -0.8515
C14 C 0.14256(6) 0.3590(2) -0.8325(3)
H12 H 0.1405 0.4337 -0.8917
C15 C 0.06365(6) 0.2985(2) 0.0028(3)
C16 C 0.22317(6) 0.4141(2) -0.9735(3)
C17 C 0.09401(6) 0.2497(2) -0.2253(3)
C18 C 0.15925(5) 0.2643(2) -0.8938(3)
C19 C 0.0000 0.9533(4) 0.2500
H13 H 0.0000 1.0396 0.2500
C20 C -0.01722(7) 0.8903(3) 0.3557(4)
H14 H -0.0295 0.9325 0.4280
C21 C -0.01645(6) 0.7657(3) 0.3550(3)
H15 H -0.0278 0.7222 0.4305
N5 N 0.25350(5) 0.4144(2) -0.9270(3)
H16 H 0.0494(8) 0.194(3) 0.238(4)
S1B S -0.177321(13) 0.28036(6) 1.58178(8)
Cd1F Cd 0.0000 0.49902(2) -0.2500
Cd1F_2 Cd 0.0000 0.49902(2) 0.7500
O1B O -0.03363(5) 0.3502(2) 0.2773(3)
O2B O -0.05937(6) 0.1453(2) 0.2825(3)
O3B O -0.03333(5) 0.47832(17) 0.4882(3)
O3F O 0.03333(5) 0.52168(17) 0.5118(3)
O3D O -0.03333(5) 0.52168(17) -0.0118(3)
O4B O -0.17705(4) 0.16266(17) 1.6610(2)
O5B O -0.16331(4) 0.37962(17) 1.6747(2)
N1B N -0.21244(5) 0.30435(19) 1.5229(3)
H1B H -0.2251 0.2430 1.5232
N2B N -0.10572(5) 0.2878(2) 0.8789(3)
N3B N -0.11897(5) 0.2025(2) 0.9465(3)
C1B C -0.25438(7) 0.6233(3) 1.3601(4)
H2B H -0.2650 0.6938 1.3205
C2B C -0.08801(6) 0.1015(2) 0.5088(3)
H3B H -0.0921 0.0232 0.4626
C3B C -0.26870(7) 0.5157(3) 1.3724(4)
H4B H -0.2898 0.5110 1.3423
C4B C -0.20779(6) 0.5261(2) 1.4645(3)
H5B H -0.1868 0.5308 1.4976
C5B C -0.14899(6) 0.1387(2) 1.1605(3)
H6B H -0.1512 0.0640 1.1014
C6B C -0.13214(5) 0.2330(2) 1.0976(3)
C7B C -0.06995(6) 0.1827(2) 0.4269(3)
C8B C -0.09984(6) 0.1342(2) 0.6546(3)
H7B H -0.1121 0.0784 0.7086
C9B C -0.04270(6) 0.3815(2) 0.4179(3)
C10B C -0.22322(7) 0.6276(2) 1.4079(3)
H8B H -0.2127 0.7023 1.4008
C11B C -0.07624(5) 0.3311(2) 0.6459(3)
H9B H -0.0725 0.4096 0.6925
C12B C -0.12887(6) 0.3434(2) 1.1836(3)
H10B H -0.1174 0.4073 1.1409
C13B C -0.16248(6) 0.1539(2) 1.3084(3)
H11B H -0.1738 0.0898 1.3515
C14B C -0.14256(6) 0.3590(2) 1.3325(3)
H12B H -0.1405 0.4337 1.3917
C15B C -0.06365(6) 0.2985(2) 0.4972(3)
C16B C -0.22317(6) 0.4141(2) 1.4735(3)
C17B C -0.09401(6) 0.2497(2) 0.7253(3)
C18B C -0.15925(5) 0.2643(2) 1.3938(3)
C20B C 0.01722(7) 0.8903(3) 0.1443(4)
H14B H 0.0295 0.9325 0.0720
C21B C 0.01645(6) 0.7657(3) 0.1450(3)
H15B H 0.0278 0.7222 0.0695
N5B N -0.25350(5) 0.4144(2) 1.4270(3)
H16B H -0.0494(8) 0.194(3) 0.262(4)
loop_
_geom_bond_atom_site_label_1
_geom_bond_atom_site_label_2
_geom_bond_site_symmetry_1
_geom_bond_site_symmetry_2
S1 O4 1_555 1_555
Cd1 O1 1_555 1_555
O1 C9 1_555 1_555
O2 C7 1_555 1_555
O3 Cd1 1_555 1_555
O5 S1 1_555 1_555
N1 S1 1_555 1_555
H1 N1 1_555 1_555
N2 N3 1_555 1_555
N3 C6 1_555 1_555
N4 Cd1 1_555 1_555
C1 H2 1_555 1_555
C2 H3 1_555 1_555
C3 C1 1_555 1_555
H4 C3 1_555 1_555
C4 H5 1_555 1_555
C5 H6 1_555 1_555
C6 C5 1_555 1_555
C7 C2 1_555 1_555
C8 C2 1_555 1_555
H7 C8 1_555 1_555
C9 O3 1_555 1_555
C10 C1 1_555 1_555
H8 C10 1_555 1_555
C11 H9 1_555 1_555
C12 C6 1_555 1_555
H10 C12 1_555 1_555
C13 C5 1_555 1_555
H11 C13 1_555 1_555
C14 C12 1_555 1_555
H12 C14 1_555 1_555
C15 C7 1_555 1_555
C16 N1 1_555 1_555
C17 N2 1_555 1_555
C18 S1 1_555 1_555
C19 H13 1_555 1_555
C20 C19 1_555 1_555
H14 C20 1_555 1_555
C21 N4 1_555 1_555
H15 C21 1_555 1_555
N5 C3 1_555 1_555
H16 O2 1_555 1_555
S1B O4B 1_555 1_555
Cd1F O3 1_555 1_555
Cd1F_2 O3B 1_555 1_555
O1B Cd1 1_555 1_555
O2B C7B 1_555 1_555
O3B Cd1 1_555 1_555
O3F Cd1 1_555 1_555
O3D Cd1 1_555 1_555
O5B S1B 1_555 1_555
N1B S1B 1_555 1_555
H1B N1B 1_555 1_555
N2B N3B 1_555 1_555
N3B C6B 1_555 1_555
C1B H2B 1_555 1_555
C2B H3B 1_555 1_555
C3B C1B 1_555 1_555
H4B C3B 1_555 1_555
C4B H5B 1_555 1_555
C5B H6B 1_555 1_555
C6B C5B 1_555 1_555
C7B C2B 1_555 1_555
C8B C2B 1_555 1_555
H7B C8B 1_555 1_555
C9B O1B 1_555 1_555
C10B C1B 1_555 1_555
H8B C10B 1_555 1_555
C11B H9B 1_555 1_555
C12B C6B 1_555 1_555
H10B C12B 1_555 1_555
C13B C5B 1_555 1_555
H11B C13B 1_555 1_555
C14B C12B 1_555 1_555
H12B C14B 1_555 1_555
C15B C7B 1_555 1_555
C16B N1B 1_555 1_555
C17B N2B 1_555 1_555
C18B S1B 1_555 1_555
C20B C19 1_555 1_555
H14B C20B 1_555 1_555
C21B N4 1_555 1_555
H15B C21B 1_555 1_555
N5B C3B 1_555 1_555
H16B O2B 1_555 1_555
C4 C10 1_555 1_555
C4 C16 1_555 1_555
C8 C17 1_555 1_555
C9 C15 1_555 1_555
C11 C15 1_555 1_555
C11 C17 1_555 1_555
C13 C18 1_555 1_555
C14 C18 1_555 1_555
C16 N5 1_555 1_555
C20 C21 1_555 1_555
Cd1F O3D 1_555 1_555
Cd1F_2 O3F 1_555 1_555
O3B C9B 1_555 1_555
C4B C10B 1_555 1_555
C4B C16B 1_555 1_555
C8B C17B 1_555 1_555
C9B C15B 1_555 1_555
C11B C15B 1_555 1_555
C11B C17B 1_555 1_555
C13B C18B 1_555 1_555
C14B C18B 1_555 1_555
C16B N5B 1_555 1_555
C20B C21B 1_555 1_555

#END
