
#######################################################################
#
#                 Cambridge Crystallographic Data Centre
#                                CCDC 
#
#######################################################################
#
# If this CIF has been generated from an entry in the Cambridge 
# Structural Database, then it will include bibliographic, chemical, 
# crystal, experimental, refinement or atomic coordinate data resulting 
# from the CCDC's data processing and validation procedures.
#
#######################################################################

data_JEGTUL
_symmetry_cell_setting           monoclinic
_symmetry_space_group_name_H-M   'P 21/c'
_symmetry_Int_Tables_number      14
_space_group_name_Hall           '-P 2ybc'
loop_
_symmetry_equiv_pos_site_id
_symmetry_equiv_pos_as_xyz
1 x,y,z
2 -x,1/2+y,1/2-z
3 -x,-y,-z
4 x,1/2-y,1/2+z
_cell_length_a                   11.157(3)
_cell_length_b                   6.4786(15)
_cell_length_c                   12.087(3)
_cell_angle_alpha                90
_cell_angle_beta                 107.8080(10)
_cell_angle_gamma                90
_cell_volume                     831.809
loop_
_atom_site_label
_atom_site_type_symbol
_atom_site_fract_x
_atom_site_fract_y
_atom_site_fract_z
Dy1 Dy 0.160177(14) 0.14083(2) 0.605620(12)
S1 S 0.16272(8) 0.67906(13) 0.54438(7)
C1 C 0.5128(4) 0.2599(6) 0.5015(3)
H1 H 0.5476 0.2764 0.4413
C2 C 0.4893(4) 0.2298(7) 0.6743(3)
H2 H 0.5088 0.2232 0.7547
C3 C 0.3884(3) 0.2348(5) 0.4923(3)
C4 C 0.2735(3) 0.2235(5) 0.3907(3)
N1 N 0.5745(3) 0.2555(5) 0.6168(3)
H3 H 0.6545 0.2671 0.6481
N2 N 0.3743(3) 0.2152(5) 0.6007(2)
O1 O 0.2792(2) 0.2787(4) 0.2935(2)
O2 O 0.1761(2) 0.1599(4) 0.4131(2)
O3 O 0.1338(3) 0.4959(4) 0.6023(2)
O4 O 0.1994(3) 0.6254(4) 0.4432(2)
O5 O 0.2600(2) 0.8077(4) 0.6281(2)
O6 O 0.0506(2) 0.8187(4) 0.5101(2)
O7 O 0.0424(3) 0.0270(5) 0.7244(2)
H4 H 0.0720 -0.0318 0.7889
H5 H -0.0201 -0.0374 0.6844
Dy1C Dy 0.160177(14) 0.35917(2) 0.105620(12)
Dy1_2 Dy 0.160177(14) 1.14083(2) 0.605620(12)
Dy1B Dy -0.160177(14) 0.85917(2) 0.394380(12)
O1C O 0.2792(2) 0.2213(4) 0.7935(2)
O5_2 O 0.2600(2) -0.1923(4) 0.6281(2)
O6_2 O 0.0506(2) -0.1813(4) 0.5101(2)
O6B O -0.0506(2) 0.1813(4) 0.4899(2)
loop_
_geom_bond_atom_site_label_1
_geom_bond_atom_site_label_2
_geom_bond_site_symmetry_1
_geom_bond_site_symmetry_2
Dy1 N2 1_555 1_555
S1 O3 1_555 1_555
C1 H1 1_555 1_555
C2 H2 1_555 1_555
C3 C1 1_555 1_555
C4 C3 1_555 1_555
N1 C1 1_555 1_555
H3 N1 1_555 1_555
N2 C2 1_555 1_555
O1 C4 1_555 1_555
O2 Dy1 1_555 1_555
O3 Dy1 1_555 1_555
O4 S1 1_555 1_555
O5 S1 1_555 1_555
O6 S1 1_555 1_555
O7 Dy1 1_555 1_555
H4 O7 1_555 1_555
H5 O7 1_555 1_555
Dy1C O1 1_555 1_555
Dy1_2 O5 1_555 1_555
Dy1B O6 1_555 1_555
O1C Dy1 1_555 1_555
O5_2 Dy1 1_555 1_555
O6_2 Dy1 1_555 1_555
O6B Dy1 1_555 1_555
C2 N1 1_555 1_555
C3 N2 1_555 1_555
C4 O2 1_555 1_555
O6 Dy1_2 1_555 1_555

#END
