
#######################################################################
#
#                 Cambridge Crystallographic Data Centre
#                                CCDC 
#
#######################################################################
#
# If this CIF has been generated from an entry in the Cambridge 
# Structural Database, then it will include bibliographic, chemical, 
# crystal, experimental, refinement or atomic coordinate data resulting 
# from the CCDC's data processing and validation procedures.
#
#######################################################################

data_JEGTEV
_symmetry_cell_setting           triclinic
_symmetry_space_group_name_H-M   'P -1'
_symmetry_Int_Tables_number      2
_space_group_name_Hall           '-P 1'
loop_
_symmetry_equiv_pos_site_id
_symmetry_equiv_pos_as_xyz
1 x,y,z
2 -x,-y,-z
_cell_length_a                   8.083(2)
_cell_length_b                   9.299(3)
_cell_length_c                   10.922(3)
_cell_angle_alpha                67.735(6)
_cell_angle_beta                 82.665(9)
_cell_angle_gamma                85.860(8)
_cell_volume                     753.26
loop_
_atom_site_label
_atom_site_type_symbol
_atom_site_fract_x
_atom_site_fract_y
_atom_site_fract_z
Pb1 Pb 0.85145(6) 0.33950(6) 0.83064(5)
Pb2 Pb 1.26349(6) 0.55733(6) 0.70391(5)
Pb3 Pb 0.87962(7) 0.78563(6) 0.62210(5)
Ni1 Ni 1.0000 0.5000 0.5000
O1 O 1.0918(10) 0.3727(10) 0.6786(8)
O2 O 0.7942(10) 0.5377(10) 0.6292(8)
O3 O 0.9891(11) 0.5801(10) 0.7990(9)
O4 O 1.0861(10) 0.6856(10) 0.5185(8)
O5 O 0.7665(11) 0.1580(11) 0.7306(9)
O6 O 0.8058(14) -0.0909(16) 1.0486(12)
O7 O 0.9535(12) -0.1360(13) 0.8907(10)
O8 O 0.7356(12) -0.4063(11) 1.0480(9)
O9 O 0.4659(12) -0.4231(12) 1.1156(9)
O10 O 0.1810(11) -0.1494(11) 0.6698(9)
O11 O 0.1761(11) 0.1064(10) 0.6292(9)
O12 O 0.4871(13) 0.1893(12) 0.4800(10)
O13 O 0.4878(14) 0.3304(12) 0.6002(10)
N1 N 0.8164(14) -0.1084(13) 0.9447(11)
N2 N 0.4914(13) 0.2032(13) 0.5887(11)
C1 C 0.5889(16) -0.3570(16) 1.0356(14)
C2 C 0.2387(15) -0.0314(15) 0.6759(12)
C3 C 0.5601(15) -0.2074(14) 0.9220(11)
C4 C 0.4218(14) -0.1888(14) 0.8552(12)
H1 H 0.3462 -0.2687 0.8834
C5 C 0.3914(14) -0.0516(14) 0.7448(12)
C6 C 0.5111(16) 0.0632(14) 0.7094(12)
C7 C 0.6580(15) 0.0529(15) 0.7701(12)
C8 C 0.6709(16) -0.0936(16) 0.8806(12)
Pb1A Pb 1.14855(6) 0.66050(6) 0.16936(5)
Pb1A_2 Pb 0.14855(6) -0.33950(6) 1.16936(5)
Pb2A Pb 0.73651(6) 0.44267(6) 0.29609(5)
Pb2A_2 Pb 0.73651(6) -0.55733(6) 1.29609(5)
Pb2_2 Pb 0.26349(6) -0.44267(6) 0.70391(5)
Pb2_3 Pb 0.26349(6) 0.55733(6) 0.70391(5)
Pb2A_3 Pb 0.73651(6) 0.44267(6) 1.29609(5)
Pb3A Pb 1.12038(7) 0.21437(6) 0.37790(5)
Pb3_2 Pb -0.12038(7) -0.21437(6) 0.62210(5)
Pb3A_2 Pb 0.12038(7) 0.21437(6) 0.37790(5)
Pb3A_3 Pb 1.12038(7) 0.21437(6) 1.37790(5)
Pb3_3 Pb 0.87962(7) -0.21437(6) 1.62210(5)
O1A O 0.9082(10) 0.6273(10) 0.3214(8)
O2A O 1.2058(10) 0.4623(10) 0.3708(8)
O3A O 1.0109(11) 0.4199(10) 0.2010(9)
O4A O 0.9139(10) 0.3144(10) 0.4815(8)
O5A O 0.2335(11) -0.1580(11) 1.2694(9)
O5A_2 O 1.2335(11) 0.8420(11) 0.2694(9)
O6A O 0.1942(14) 0.0909(16) 0.9514(12)
O7A O 0.0465(12) 0.1360(13) 1.1093(10)
O8A O 0.2644(12) 0.4063(11) 0.9520(9)
O8A_2 O 1.2644(12) 0.4063(11) 0.9520(9)
O8_2 O 0.7356(12) 0.5937(11) 0.0480(9)
O9A O 0.5341(12) 0.4231(12) 0.8844(9)
O9_2 O 1.4659(12) 0.5769(12) 0.1156(9)
O10A O 0.8190(11) 0.1494(11) 1.3302(9)
O10_2 O 1.1810(11) 0.8506(11) 0.6698(9)
O10A_2 O 0.8190(11) 0.1494(11) 0.3302(9)
O11A O 0.8239(11) -0.1064(10) 1.3708(9)
O11A_2 O 0.8239(11) 0.8936(10) 0.3708(9)
O11_2 O 1.1761(11) 0.1064(10) 0.6292(9)
O12A O 0.5129(13) -0.1893(12) 1.5200(10)
O13A O 0.5122(14) -0.3304(12) 1.3998(10)
N1A N 0.1836(14) 0.1084(13) 1.0553(11)
N2A N 0.5086(13) -0.2032(13) 1.4113(11)
C1A C 0.4111(16) 0.3570(16) 0.9644(14)
C2A C 0.7613(15) 0.0314(15) 1.3241(12)
C3A C 0.4399(15) 0.2074(14) 1.0780(11)
C4A C 0.5782(14) 0.1888(14) 1.1448(12)
H1A H 0.6538 0.2687 1.1166
C5A C 0.6086(14) 0.0516(14) 1.2552(12)
C6A C 0.4889(16) -0.0632(14) 1.2906(12)
C7A C 0.3420(15) -0.0529(15) 1.2299(12)
C8A C 0.3291(16) 0.0936(16) 1.1194(12)
loop_
_geom_bond_atom_site_label_1
_geom_bond_atom_site_label_2
_geom_bond_site_symmetry_1
_geom_bond_site_symmetry_2
Pb1 O1 1_555 1_555
Pb2 O1 1_555 1_555
Pb3 O2 1_555 1_555
Ni1 O1 1_555 1_555
O2 Pb1 1_555 1_555
O3 Pb1 1_555 1_555
O4 Pb2 1_555 1_555
O5 Pb1 1_555 1_555
O6 N1 1_555 1_555
O7 N1 1_555 1_555
O8 C1 1_555 1_555
O9 C1 1_555 1_555
O10 C2 1_555 1_555
O11 C2 1_555 1_555
O12 N2 1_555 1_555
O13 N2 1_555 1_555
N1 C8 1_555 1_555
N2 C6 1_555 1_555
C1 C3 1_555 1_555
C2 C5 1_555 1_555
C3 C4 1_555 1_555
C4 H1 1_555 1_555
C5 C4 1_555 1_555
C6 C5 1_555 1_555
C7 O5 1_555 1_555
C8 C3 1_555 1_555
Pb1A O1A 1_555 1_555
Pb1A_2 O9 1_555 1_555
Pb2A O1A 1_555 1_555
Pb2A_2 O8 1_555 1_555
Pb2_2 O10 1_555 1_555
Pb2_3 O8A 1_555 1_555
Pb2A_3 O10A 1_555 1_555
Pb3A O2A 1_555 1_555
Pb3_2 O10 1_555 1_555
Pb3A_2 O11 1_555 1_555
Pb3A_3 O10A 1_555 1_555
Pb3_3 O11A 1_555 1_555
O1A Ni1 1_555 1_555
O2A Ni1 1_555 1_555
O3A Pb1A 1_555 1_555
O4A Ni1 1_555 1_555
O5A Pb1A_2 1_555 1_555
O5A_2 Pb1A 1_555 1_555
O6A N1A 1_555 1_555
O7A N1A 1_555 1_555
O8A C1A 1_555 1_555
O8A_2 Pb2 1_555 1_555
O8_2 Pb2A 1_555 1_555
O9A Pb1 1_555 1_555
O9_2 Pb1A 1_555 1_555
O10A C2A 1_555 1_555
O10_2 Pb2 1_555 1_555
O10A_2 Pb2A 1_555 1_555
O11A C2A 1_555 1_555
O11A_2 Pb3 1_555 1_555
O11_2 Pb3A 1_555 1_555
O12A N2A 1_555 1_555
O13A N2A 1_555 1_555
N1A C8A 1_555 1_555
N2A C6A 1_555 1_555
C1A O9A 1_555 1_555
C2A C5A 1_555 1_555
C3A C1A 1_555 1_555
C4A C3A 1_555 1_555
H1A C4A 1_555 1_555
C5A C4A 1_555 1_555
C6A C5A 1_555 1_555
C7A O5A 1_555 1_555
C8A C3A 1_555 1_555
Pb2 O3 1_555 1_555
Pb3 O3 1_555 1_555
Pb3 O4 1_555 1_555
Pb3 O10_2 1_555 1_555
Ni1 O2 1_555 1_555
Ni1 O4 1_555 1_555
C6 C7 1_555 1_555
C7 C8 1_555 1_555
Pb1A O2A 1_555 1_555
Pb2A O3A 1_555 1_555
Pb2A O4A 1_555 1_555
Pb3A O3A 1_555 1_555
Pb3A O4A 1_555 1_555
Pb3A O10A_2 1_555 1_555
C6A C7A 1_555 1_555
C7A C8A 1_555 1_555

#END
