
#######################################################################
#
#                 Cambridge Crystallographic Data Centre
#                                CCDC 
#
#######################################################################
#
# If this CIF has been generated from an entry in the Cambridge 
# Structural Database, then it will include bibliographic, chemical, 
# crystal, experimental, refinement or atomic coordinate data resulting 
# from the CCDC's data processing and validation procedures.
#
#######################################################################

data_JEHDAC
_symmetry_cell_setting           monoclinic
_symmetry_space_group_name_H-M   'P 2/c'
_symmetry_Int_Tables_number      13
_space_group_name_Hall           '-P 2yc'
loop_
_symmetry_equiv_pos_site_id
_symmetry_equiv_pos_as_xyz
1 x,y,z
2 -x,y,1/2-z
3 -x,-y,-z
4 x,-y,1/2+z
_cell_length_a                   8.3515(17)
_cell_length_b                   10.413(2)
_cell_length_c                   18.348(4)
_cell_angle_alpha                90
_cell_angle_beta                 100.44(3)
_cell_angle_gamma                90
_cell_volume                     1569.2
loop_
_atom_site_label
_atom_site_type_symbol
_atom_site_fract_x
_atom_site_fract_y
_atom_site_fract_z
Ni1 Ni 0.37046(5) 0.68344(4) 0.82819(2)
N1 N 0.5036(3) 0.8396(3) 0.88841(13)
O1 O 0.2505(3) 0.5495(2) 0.75489(11)
O2 O 0.4016(3) 0.6167(2) 0.67466(12)
O3 O 0.3564(3) 0.4083(3) 0.42910(12)
N2 N 0.2764(3) 0.8493(3) 0.76589(14)
O4 O 0.1559(3) 0.2776(3) 0.39118(12)
C1 C 0.0151(4) 0.3253(3) 0.51753(16)
H1 H -0.0433 0.2748 0.4801
C2 C 0.6213(4) 0.8312(4) 0.94720(18)
H2 H 0.6516 0.7503 0.9664
C3 C 0.2288(4) 0.3534(3) 0.43828(16)
C4 C 0.1634(4) 0.3765(3) 0.50923(16)
C5 C 0.1592(4) 0.8520(4) 0.70650(18)
H3 H 0.1164 0.7748 0.6861
C6 C 0.4598(4) 0.9578(3) 0.86158(17)
C7 C 0.2898(4) 0.5499(3) 0.69163(15)
C8 C 0.3341(4) 0.9628(3) 0.79607(17)
C9 C 0.4685(6) 1.1926(4) 0.8632(2)
H4 H 0.5117 1.2686 0.8850
C10 C 0.2788(5) 1.0831(3) 0.7666(2)
C11 C 0.0978(5) 0.9672(4) 0.67355(19)
H5 H 0.0168 0.9659 0.6315
C12 C 0.3483(6) 1.1970(4) 0.8029(3)
H6 H 0.3096 1.2766 0.7846
C13 C 0.7019(5) 0.9387(4) 0.9816(2)
H7 H 0.7865 0.9289 1.0218
C14 C 0.6555(5) 1.0576(4) 0.9558(2)
H8 H 0.7067 1.1298 0.9791
C15 C 0.5298(5) 1.0721(4) 0.8936(2)
C16 C 0.2525(4) 0.4490(3) 0.56586(16)
H9 H 0.3519 0.4841 0.5602
C17 C 0.0420(4) 0.4199(3) 0.63849(16)
H10 H 0.0007 0.4345 0.6815
C18 C -0.0473(4) 0.3487(3) 0.58140(17)
H11 H -0.1490 0.3166 0.5859
C19 C 0.1562(5) 1.0804(4) 0.7029(2)
H12 H 0.1154 1.1570 0.6809
C20 C 0.1931(4) 0.4697(3) 0.63174(15)
Ni1A Ni 0.62954(5) 0.68344(4) 0.67181(2)
Ni1C Ni 0.37046(5) 0.31656(4) 0.32819(2)
O2A O 0.5984(3) 0.6167(2) 0.82534(12)
O3C O 0.3564(3) 0.5917(3) 0.92910(12)
O4C O 0.1559(3) 0.7224(3) 0.89118(12)
loop_
_geom_bond_atom_site_label_1
_geom_bond_atom_site_label_2
_geom_bond_site_symmetry_1
_geom_bond_site_symmetry_2
Ni1 N1 1_555 1_555
N1 C2 1_555 1_555
O1 Ni1 1_555 1_555
O2 C7 1_555 1_555
O3 C3 1_555 1_555
N2 Ni1 1_555 1_555
O4 C3 1_555 1_555
C1 H1 1_555 1_555
C2 H2 1_555 1_555
C3 C4 1_555 1_555
C4 C1 1_555 1_555
C5 N2 1_555 1_555
H3 C5 1_555 1_555
C6 N1 1_555 1_555
C7 O1 1_555 1_555
C8 N2 1_555 1_555
C9 H4 1_555 1_555
C10 C8 1_555 1_555
C11 C5 1_555 1_555
H5 C11 1_555 1_555
C12 C9 1_555 1_555
H6 C12 1_555 1_555
C13 C2 1_555 1_555
H7 C13 1_555 1_555
C14 C13 1_555 1_555
H8 C14 1_555 1_555
C15 C6 1_555 1_555
C16 C4 1_555 1_555
H9 C16 1_555 1_555
C17 H10 1_555 1_555
C18 C1 1_555 1_555
H11 C18 1_555 1_555
C19 C10 1_555 1_555
H12 C19 1_555 1_555
C20 C7 1_555 1_555
Ni1A O2 1_555 1_555
Ni1C O3 1_555 1_555
O2A Ni1 1_555 1_555
O3C Ni1 1_555 1_555
O4C Ni1 1_555 1_555
O4 Ni1C 1_555 1_555
C6 C8 1_555 1_555
C9 C15 1_555 1_555
C10 C12 1_555 1_555
C11 C19 1_555 1_555
C14 C15 1_555 1_555
C16 C20 1_555 1_555
C17 C18 1_555 1_555
C17 C20 1_555 1_555

#END
