
#######################################################################
#
#                 Cambridge Crystallographic Data Centre
#                                CCDC 
#
#######################################################################
#
# If this CIF has been generated from an entry in the Cambridge 
# Structural Database, then it will include bibliographic, chemical, 
# crystal, experimental, refinement or atomic coordinate data resulting 
# from the CCDC's data processing and validation procedures.
#
#######################################################################

data_JEHDOQ01
_symmetry_cell_setting           monoclinic
_symmetry_space_group_name_H-M   'C 2/c'
_symmetry_Int_Tables_number      15
_space_group_name_Hall           '-C 2yn'
loop_
_symmetry_equiv_pos_site_id
_symmetry_equiv_pos_as_xyz
1 x,y,z
2 1/2+x,1/2+y,z
3 -x,y,1/2-z
4 1/2-x,1/2+y,1/2-z
5 -x,-y,-z
6 1/2-x,1/2-y,-z
7 x,-y,1/2+z
8 1/2+x,1/2-y,1/2+z
_cell_length_a                   30.362(6)
_cell_length_b                   9.026(2)
_cell_length_c                   26.254(5)
_cell_angle_alpha                90
_cell_angle_beta                 105.42(3)
_cell_angle_gamma                90
_cell_volume                     6935.85
loop_
_atom_site_label
_atom_site_type_symbol
_atom_site_fract_x
_atom_site_fract_y
_atom_site_fract_z
Mn1 Mn 0.69406(3) 0.43902(13) 0.17108(4)
N1 N 0.70308(18) 0.6097(7) 0.2374(2)
C1 C 0.7362(2) 0.7081(8) 0.2529(2)
H1 H 0.7562 0.7210 0.2310
N2 N 0.74412(19) 0.7908(7) 0.29633(19)
C2 C 0.7144(2) 0.7746(8) 0.3272(2)
C3 C 0.6772(2) 0.6838(8) 0.3113(2)
H2 H 0.6555 0.6777 0.3314
C4 C 0.6715(2) 0.6019(8) 0.2662(2)
C5 C 0.6331(2) 0.4991(9) 0.2461(3)
N3 N 0.63406(19) 0.4258(6) 0.2022(2)
C6 C 0.6004(2) 0.3311(9) 0.1798(3)
C7 C 0.5646(3) 0.3072(11) 0.2020(3)
H3 H 0.5409 0.2397 0.1863
C8 C 0.5639(3) 0.3807(12) 0.2463(4)
H4 H 0.5393 0.3649 0.2617
C9 C 0.5981(3) 0.4786(11) 0.2696(3)
H5 H 0.5975 0.5303 0.3009
C10 C 0.7274(2) 0.8539(7) 0.3779(2)
N4 N 0.76698(19) 0.9249(6) 0.3887(2)
C11 C 0.7848(2) 0.9967(8) 0.4346(3)
C12 C 0.7596(3) 1.0006(9) 0.4715(3)
H6 H 0.7708 1.0526 0.5039
C13 C 0.7181(3) 0.9283(10) 0.4609(3)
H7 H 0.7010 0.9308 0.4864
C14 C 0.7007(3) 0.8535(10) 0.4147(3)
H8 H 0.6722 0.8036 0.4076
C15 C 0.8287(2) 1.0706(8) 0.4346(3)
O1 O 0.83764(18) 1.0861(6) 0.39082(19)
N5 N 0.8594(2) 1.1171(7) 0.4781(2)
C16 C 0.8998(3) 1.1940(10) 0.4706(3)
H9 H 0.9119 1.2603 0.5012
H10 H 0.8904 1.2568 0.4387
C17 C 0.9375(3) 1.0925(15) 0.4649(5)
H11 H 0.9633 1.1516 0.4605
H12 H 0.9262 1.0288 0.4339
H13 H 0.9475 1.0308 0.4966
C18 C 0.8584(3) 1.0889(11) 0.5326(3)
H14 H 0.8888 1.0535 0.5531
H15 H 0.8360 1.0092 0.5328
C19 C 0.8459(4) 1.2220(14) 0.5590(4)
H16 H 0.8464 1.1974 0.5955
H17 H 0.8152 1.2551 0.5399
H18 H 0.8679 1.3014 0.5590
C20 C 0.6112(3) 0.2549(8) 0.1335(3)
O2 O 0.65199(18) 0.2521(6) 0.1333(2)
N6 N 0.5793(2) 0.1888(8) 0.0951(3)
C21 C 0.5298(3) 0.2189(12) 0.0826(4)
H19 H 0.5188 0.2503 0.0453
H20 H 0.5243 0.3016 0.1050
C22 C 0.5025(4) 0.0838(13) 0.0916(5)
H21 H 0.4699 0.1087 0.0826
H22 H 0.5126 0.0541 0.1288
H23 H 0.5074 0.0020 0.0693
C23 C 0.5953(3) 0.0998(11) 0.0571(4)
H24 H 0.5718 0.0247 0.0416
H25 H 0.6234 0.0466 0.0760
C24 C 0.6055(5) 0.1910(15) 0.0122(4)
H26 H 0.6164 0.1251 -0.0115
H27 H 0.6290 0.2650 0.0271
H28 H 0.5776 0.2411 -0.0077
Mn1C Mn 0.80594(3) 0.93902(13) 0.32892(4)
N2C N 0.75588(19) 0.2908(7) 0.20367(19)
N4C N 0.73302(19) 0.4249(6) 0.1113(2)
O1C O 0.66236(18) 0.5861(6) 0.10918(19)
Cl1 Cl 0.53976(9) 0.3841(4) -0.12994(10)
O3 O 0.5159(3) 0.3573(15) -0.1822(3)
O4 O 0.5866(2) 0.3406(9) -0.1211(3)
O7 O 0.5217(5) 0.350(2) -0.0890(6)
O8 O 0.5409(5) 0.5507(18) -0.1323(6)
Cl2 Cl 0.74519(9) -0.0987(3) 0.11682(8)
O9 O 0.7675(3) -0.2370(12) 0.1384(4)
O10 O 0.7304(3) -0.0334(10) 0.1576(3)
O13 O 0.7692(5) 0.0129(16) 0.0958(5)
O14 O 0.7011(5) -0.1130(16) 0.0747(5)
C25 C 0.5971(4) 0.0153(16) -0.2212(5)
C26 C 0.5772(7) -0.025(3) -0.1772(7)
H29 H 0.5492 0.0320 -0.1801
H30 H 0.5992 -0.0035 -0.1434
H31 H 0.5699 -0.1313 -0.1792
C27 C 0.5727(3) 0.1150(12) -0.2580(4)
H32 H 0.5450 0.1557 -0.2536
C28 C 0.5879(4) 0.1562(14) -0.3010(5)
H33 H 0.5705 0.2234 -0.3263
C29 C 0.6281(4) 0.1004(15) -0.3073(5)
H34 H 0.6394 0.1317 -0.3359
C30 C 0.6517(3) -0.0017(13) -0.2714(5)
H35 H 0.6788 -0.0437 -0.2767
C31 C 0.6375(4) -0.0453(11) -0.2281(5)
H36 H 0.6547 -0.1148 -0.2036
O5? O 0.5325(9) 0.481(4) -0.0929(12)
O6? O 0.5164(9) 0.243(4) -0.1094(12)
O11? O 0.7869(5) -0.0260(17) 0.1048(6)
O12? O 0.7212(5) -0.1615(16) 0.0693(5)
loop_
_geom_bond_atom_site_label_1
_geom_bond_atom_site_label_2
_geom_bond_site_symmetry_1
_geom_bond_site_symmetry_2
Mn1 N1 1_555 1_555
N1 C1 1_555 1_555
C1 H1 1_555 1_555
N2 C1 1_555 1_555
C2 N2 1_555 1_555
C3 C2 1_555 1_555
H2 C3 1_555 1_555
C4 N1 1_555 1_555
C5 C4 1_555 1_555
N3 Mn1 1_555 1_555
C6 N3 1_555 1_555
C7 C6 1_555 1_555
H3 C7 1_555 1_555
C8 C7 1_555 1_555
H4 C8 1_555 1_555
C9 C5 1_555 1_555
H5 C9 1_555 1_555
C10 C2 1_555 1_555
N4 C10 1_555 1_555
C11 N4 1_555 1_555
C12 C11 1_555 1_555
H6 C12 1_555 1_555
C13 C12 1_555 1_555
H7 C13 1_555 1_555
C14 C10 1_555 1_555
H8 C14 1_555 1_555
C15 C11 1_555 1_555
O1 C15 1_555 1_555
N5 C15 1_555 1_555
C16 N5 1_555 1_555
H9 C16 1_555 1_555
H10 C16 1_555 1_555
C17 C16 1_555 1_555
H11 C17 1_555 1_555
H12 C17 1_555 1_555
H13 C17 1_555 1_555
C18 N5 1_555 1_555
H14 C18 1_555 1_555
H15 C18 1_555 1_555
C19 C18 1_555 1_555
H16 C19 1_555 1_555
H17 C19 1_555 1_555
H18 C19 1_555 1_555
C20 C6 1_555 1_555
O2 Mn1 1_555 1_555
N6 C20 1_555 1_555
C21 N6 1_555 1_555
H19 C21 1_555 1_555
H20 C21 1_555 1_555
C22 C21 1_555 1_555
H21 C22 1_555 1_555
H22 C22 1_555 1_555
H23 C22 1_555 1_555
C23 N6 1_555 1_555
H24 C23 1_555 1_555
H25 C23 1_555 1_555
C24 C23 1_555 1_555
H26 C24 1_555 1_555
H27 C24 1_555 1_555
H28 C24 1_555 1_555
Cl1 O3 1_555 1_555
O4 Cl1 1_555 1_555
O7 Cl1 1_555 1_555
O8 Cl1 1_555 1_555
Cl2 O9 1_555 1_555
O10 Cl2 1_555 1_555
O13 Cl2 1_555 1_555
O14 Cl2 1_555 1_555
C25 C26 1_555 1_555
C26 H29 1_555 1_555
H30 C26 1_555 1_555
H31 C26 1_555 1_555
C27 C25 1_555 1_555
H32 C27 1_555 1_555
C28 C27 1_555 1_555
H33 C28 1_555 1_555
C29 C28 1_555 1_555
H34 C29 1_555 1_555
C30 C29 1_555 1_555
H35 C30 1_555 1_555
C31 C25 1_555 1_555
H36 C31 1_555 1_555
Mn1C N2 1_555 1_555
N2C Mn1 1_555 1_555
N4C Mn1 1_555 1_555
O1C Mn1 1_555 1_555
C3 C4 1_555 1_555
C5 N3 1_555 1_555
C8 C9 1_555 1_555
N4 Mn1C 1_555 1_555
C13 C14 1_555 1_555
O1 Mn1C 1_555 1_555
C20 O2 1_555 1_555
C30 C31 1_555 1_555

#END
