
#######################################################################
#
#                 Cambridge Crystallographic Data Centre
#                                CCDC 
#
#######################################################################
#
# If this CIF has been generated from an entry in the Cambridge 
# Structural Database, then it will include bibliographic, chemical, 
# crystal, experimental, refinement or atomic coordinate data resulting 
# from the CCDC's data processing and validation procedures.
#
#######################################################################

data_JEHDOQ
_symmetry_cell_setting           monoclinic
_symmetry_space_group_name_H-M   'C 2/c'
_symmetry_Int_Tables_number      15
_space_group_name_Hall           '-C 2yn'
loop_
_symmetry_equiv_pos_site_id
_symmetry_equiv_pos_as_xyz
1 x,y,z
2 1/2+x,1/2+y,z
3 -x,y,1/2-z
4 1/2-x,1/2+y,1/2-z
5 -x,-y,-z
6 1/2-x,1/2-y,-z
7 x,-y,1/2+z
8 1/2+x,1/2-y,1/2+z
_cell_length_a                   30.248(2)
_cell_length_b                   8.8379(6)
_cell_length_c                   25.9404(13)
_cell_angle_alpha                90
_cell_angle_beta                 105.466(12)
_cell_angle_gamma                90
_cell_volume                     6683.51
loop_
_atom_site_label
_atom_site_type_symbol
_atom_site_fract_x
_atom_site_fract_y
_atom_site_fract_z
Mn1 Mn -0.19351(2) -0.06725(8) 0.33109(2)
N1 N -0.20214(11) 0.1055(4) 0.26382(12)
C1 C -0.23602(14) 0.2052(5) 0.24767(15)
H1 H -0.2586(14) 0.212(5) 0.2688(17)
N2 N -0.24372(11) 0.2881(4) 0.20314(12)
C2 C -0.21454(13) 0.2701(5) 0.17240(14)
C3 C -0.17578(14) 0.1793(5) 0.18865(15)
H2 H -0.1536(15) 0.173(5) 0.1699(18)
C4 C -0.17064(13) 0.0967(5) 0.23517(14)
C5 C -0.13199(13) -0.0082(5) 0.25572(15)
N3 N -0.13309(11) -0.0824(4) 0.30002(12)
C6 C -0.09922(14) -0.1787(5) 0.32351(15)
C7 C -0.06303(16) -0.2054(6) 0.30184(17)
H3 H -0.0397(17) -0.272(6) 0.316(2)
C8 C -0.06216(16) -0.1311(6) 0.25494(18)
H4 H -0.0378(16) -0.144(6) 0.2388(19)
C9 C -0.09665(15) -0.0307(6) 0.23148(17)
H5 H -0.0975(16) 0.025(6) 0.200(2)
C10 C -0.22692(14) 0.3498(5) 0.11982(14)
N4 N -0.26727(11) 0.4194(4) 0.10892(12)
C11 C -0.28445(14) 0.4930(5) 0.06253(15)
C12 C -0.25903(15) 0.5004(5) 0.02489(16)
H6 H -0.2682(15) 0.554(5) -0.0105(19)
C13 C -0.21718(15) 0.4285(6) 0.03580(16)
H7 H -0.198(2) 0.440(8) 0.011(3)
C14 C -0.20025(15) 0.3497(5) 0.08324(16)
H8 H -0.1705(16) 0.295(5) 0.0911(18)
C15 C -0.32976(14) 0.5662(5) 0.06159(15)
O1 O -0.33897(10) 0.5811(4) 0.10615(10)
N5 N -0.36016(12) 0.6124(4) 0.01749(13)
C16 C -0.40201(16) 0.6856(6) 0.02401(19)
H9 H -0.4148(14) 0.755(5) -0.0085(16)
H10 H -0.3960(17) 0.753(6) 0.053(2)
C17 C -0.43854(17) 0.5731(7) 0.0284(2)
H11 H -0.4639(15) 0.629(5) 0.0354(16)
H12 H -0.4287(15) 0.513(5) 0.0559(18)
H13 H -0.449(2) 0.516(7) -0.005(3)
C18 C -0.35819(16) 0.5908(6) -0.03817(16)
H14 H -0.3891(15) 0.563(5) -0.0570(17)
H15 H -0.3367(14) 0.499(5) -0.0404(16)
C19 C -0.3440(2) 0.7343(8) -0.0612(2)
H16 H -0.345(2) 0.713(9) -0.101(3)
H17 H -0.314(2) 0.759(8) -0.046(3)
H18 H -0.371(2) 0.797(7) -0.063(2)
C20 C -0.11041(14) -0.2568(5) 0.37079(16)
O2 O -0.15183(10) -0.2585(3) 0.37066(11)
N6 N -0.07862(12) -0.3252(4) 0.40937(13)
C21 C -0.02884(15) -0.2994(6) 0.42217(18)
H19 H -0.0184(17) -0.267(6) 0.463(2)
H20 H -0.0221(14) -0.221(5) 0.4021(17)
C22 C -0.00266(18) -0.4371(7) 0.4121(2)
H21 H 0.0298(19) -0.414(6) 0.420(2)
H22 H -0.0156(17) -0.475(6) 0.375(2)
H23 H -0.0076(19) -0.530(7) 0.434(2)
C23 C -0.09527(16) -0.4141(6) 0.44879(18)
H24 H -0.0706(16) -0.488(5) 0.4636(18)
H25 H -0.1229(16) -0.468(5) 0.4277(18)
C24 C -0.1034(2) -0.3211(7) 0.4940(2)
H26 H -0.110(2) -0.389(8) 0.522(3)
H27 H -0.1289(15) -0.260(5) 0.4832(17)
H28 H -0.072(2) -0.270(7) 0.514(2)
Mn1C Mn -0.30649(2) 0.43275(8) 0.16891(2)
N2C N -0.25628(11) -0.2119(4) 0.29686(12)
N4C N -0.23273(11) -0.0806(4) 0.39108(12)
O1C O -0.16103(10) 0.0811(4) 0.39385(10)
Cl1 Cl -0.46300(4) -1.60109(15) -0.13404(4)
O3 O -0.48753(12) -1.6361(5) -0.18785(13)
O4 O -0.41655(11) -1.6565(4) -0.12303(12)
O5 O -0.48532(15) -1.6648(6) -0.09726(16)
O6 O -0.46148(13) -1.4376(5) -0.12860(17)
Cl2 Cl -0.25462(4) -2.11089(13) 0.11862(4)
O7 O -0.23380(12) -2.2542(4) 0.13822(13)
O8 O -0.26952(12) -2.0386(4) 0.16045(13)
O9 O -0.22101(13) -2.0178(4) 0.10295(13)
O10 O -0.29272(14) -2.1353(4) 0.07270(13)
C25 C -0.40480(18) -1.9771(6) -0.2218(2)
C26 C -0.4229(2) -2.0197(7) -0.1750(2)
H29 H -0.4069 -1.9609 -0.1435
H30 H -0.4178 -2.1278 -0.1674
H31 H -0.4558 -1.9980 -0.1836
C27 C -0.42818(17) -1.8751(6) -0.2599(2)
H32 H -0.4535(16) -1.834(5) -0.2583(17)
C28 C -0.41251(19) -1.8360(7) -0.3035(2)
H33 H -0.4278(19) -1.768(7) -0.330(2)
C29 C -0.37193(18) -1.8964(6) -0.3093(2)
H34 H -0.3604(19) -1.867(7) -0.342(2)
C30 C -0.34833(17) -1.9975(6) -0.2715(2)
H35 H -0.3178(17) -2.034(6) -0.2737(19)
C31 C -0.36332(17) -2.0390(6) -0.2276(2)
H36 H -0.3450(14) -2.101(5) -0.2010(16)
loop_
_geom_bond_atom_site_label_1
_geom_bond_atom_site_label_2
_geom_bond_site_symmetry_1
_geom_bond_site_symmetry_2
Mn1 N1 1_555 1_555
N1 C1 1_555 1_555
C1 H1 1_555 1_555
N2 C1 1_555 1_555
C2 N2 1_555 1_555
C3 C2 1_555 1_555
H2 C3 1_555 1_555
C4 N1 1_555 1_555
C5 C4 1_555 1_555
N3 Mn1 1_555 1_555
C6 N3 1_555 1_555
C7 C6 1_555 1_555
H3 C7 1_555 1_555
C8 C7 1_555 1_555
H4 C8 1_555 1_555
C9 C5 1_555 1_555
H5 C9 1_555 1_555
C10 C2 1_555 1_555
N4 C10 1_555 1_555
C11 N4 1_555 1_555
C12 C11 1_555 1_555
H6 C12 1_555 1_555
C13 C12 1_555 1_555
H7 C13 1_555 1_555
C14 C10 1_555 1_555
H8 C14 1_555 1_555
C15 C11 1_555 1_555
O1 C15 1_555 1_555
N5 C15 1_555 1_555
C16 N5 1_555 1_555
H9 C16 1_555 1_555
H10 C16 1_555 1_555
C17 C16 1_555 1_555
H11 C17 1_555 1_555
H12 C17 1_555 1_555
H13 C17 1_555 1_555
C18 N5 1_555 1_555
H14 C18 1_555 1_555
H15 C18 1_555 1_555
C19 C18 1_555 1_555
H16 C19 1_555 1_555
H17 C19 1_555 1_555
H18 C19 1_555 1_555
C20 C6 1_555 1_555
O2 Mn1 1_555 1_555
N6 C20 1_555 1_555
C21 N6 1_555 1_555
H19 C21 1_555 1_555
H20 C21 1_555 1_555
C22 C21 1_555 1_555
H21 C22 1_555 1_555
H22 C22 1_555 1_555
H23 C22 1_555 1_555
C23 N6 1_555 1_555
H24 C23 1_555 1_555
H25 C23 1_555 1_555
C24 C23 1_555 1_555
H26 C24 1_555 1_555
H27 C24 1_555 1_555
H28 C24 1_555 1_555
Cl1 O3 1_555 1_555
O4 Cl1 1_555 1_555
O5 Cl1 1_555 1_555
O6 Cl1 1_555 1_555
Cl2 O7 1_555 1_555
O8 Cl2 1_555 1_555
O9 Cl2 1_555 1_555
O10 Cl2 1_555 1_555
C25 C26 1_555 1_555
C26 H29 1_555 1_555
H30 C26 1_555 1_555
H31 C26 1_555 1_555
C27 C25 1_555 1_555
H32 C27 1_555 1_555
C28 C27 1_555 1_555
H33 C28 1_555 1_555
C29 C28 1_555 1_555
H34 C29 1_555 1_555
C30 C29 1_555 1_555
H35 C30 1_555 1_555
C31 C25 1_555 1_555
H36 C31 1_555 1_555
Mn1C N2 1_555 1_555
N2C Mn1 1_555 1_555
N4C Mn1 1_555 1_555
O1C Mn1 1_555 1_555
C3 C4 1_555 1_555
C5 N3 1_555 1_555
C8 C9 1_555 1_555
N4 Mn1C 1_555 1_555
C13 C14 1_555 1_555
O1 Mn1C 1_555 1_555
C20 O2 1_555 1_555
C30 C31 1_555 1_555

#END
