
#######################################################################
#
#                 Cambridge Crystallographic Data Centre
#                                CCDC 
#
#######################################################################
#
# If this CIF has been generated from an entry in the Cambridge 
# Structural Database, then it will include bibliographic, chemical, 
# crystal, experimental, refinement or atomic coordinate data resulting 
# from the CCDC's data processing and validation procedures.
#
#######################################################################

data_JEHKUD
_symmetry_cell_setting           monoclinic
_symmetry_space_group_name_H-M   'P 21/c'
_symmetry_Int_Tables_number      14
_space_group_name_Hall           '-P 2ybc'
loop_
_symmetry_equiv_pos_site_id
_symmetry_equiv_pos_as_xyz
1 x,y,z
2 -x,1/2+y,1/2-z
3 -x,-y,-z
4 x,1/2-y,1/2+z
_cell_length_a                   14.7826(15)
_cell_length_b                   13.8397(10)
_cell_length_c                   9.5884(9)
_cell_angle_alpha                90
_cell_angle_beta                 99.038(8)
_cell_angle_gamma                90
_cell_volume                     1937.3
loop_
_atom_site_label
_atom_site_type_symbol
_atom_site_fract_x
_atom_site_fract_y
_atom_site_fract_z
Co1 Co 0.269172(16) 0.162811(17) 0.52859(2)
O1 O 0.28741(9) 0.22433(9) 0.72607(12)
O2 O 0.27392(9) 0.19949(9) 0.95138(13)
O3 O 0.24436(12) 0.10396(12) 0.32640(15)
H1 H 0.2555(18) 0.146(2) 0.265(3)
H2 H 0.2327(18) 0.050(2) 0.297(3)
N1 N 0.41010(10) 0.12345(12) 0.54739(16)
N2 N 0.42583(10) 0.04363(11) 0.63091(16)
N3 N 0.27200(10) 0.03188(11) 0.66227(14)
N4 N 0.11455(10) 0.06045(12) 0.60978(16)
N5 N 0.12890(10) 0.14492(12) 0.54369(16)
C1 C 0.49066(13) 0.16887(15) 0.5589(2)
C2 C 0.55657(13) 0.11868(16) 0.6508(2)
H3 H 0.6191 0.1361 0.6773
C3 C 0.51367(12) 0.03910(15) 0.69572(19)
C4 C 0.50173(16) 0.25909(17) 0.4789(3)
H4 H 0.4541 0.3054 0.4939
H5 H 0.4963 0.2442 0.3780
H6 H 0.5622 0.2871 0.5121
C5 C 0.54946(15) -0.03884(18) 0.7956(2)
H7 H 0.5516 -0.0996 0.7438
H8 H 0.5092 -0.0464 0.8669
H9 H 0.6113 -0.0220 0.8421
C6 C 0.28009(11) 0.17071(13) 0.83004(17)
C7 C 0.28213(12) 0.06230(13) 0.81133(17)
H10 H 0.3409 0.0371 0.8621
H11 H 0.2321 0.0332 0.8549
C8 C 0.18352(12) -0.01455(14) 0.61532(19)
H12 H 0.1823 -0.0439 0.5209
H13 H 0.1723 -0.0659 0.6824
C9 C 0.03326(12) 0.06038(16) 0.65812(19)
C10 C -0.00668(13) 0.14780(16) 0.6194(2)
H14 H -0.0650 0.1696 0.6361
C11 C 0.05527(13) 0.19878(16) 0.55036(19)
C12 C 0.00318(14) -0.02109(17) 0.7405(2)
H15 H 0.0469 -0.0297 0.8276
H16 H 0.0003 -0.0804 0.6841
H17 H -0.0576 -0.0070 0.7641
C13 C 0.04881(16) 0.29901(17) 0.4923(2)
H18 H 0.0677 0.2992 0.3988
H19 H 0.0890 0.3418 0.5558
H20 H -0.0146 0.3218 0.4843
C14 C 0.35036(12) -0.02377(13) 0.63089(19)
H21 H 0.3671 -0.0744 0.7034
H22 H 0.3353 -0.0554 0.5375
Co1C Co 0.269172(16) 0.337189(17) 1.02859(2)
O2C O 0.27392(9) 0.30051(9) 0.45138(13)
N6 N 0.20376(12) 0.60863(13) 0.64955(19)
O4 O 0.21230(16) 0.69080(13) 0.6034(2)
O5 O 0.21376(11) 0.59515(13) 0.77969(16)
O6 O 0.18457(16) 0.53945(15) 0.5682(2)
O7 O 0.27497(14) 0.67389(13) 0.3308(2)
H23 H 0.251(2) 0.678(2) 0.401(3)
H24 H 0.253(2) 0.723(2) 0.282(3)
loop_
_geom_bond_atom_site_label_1
_geom_bond_atom_site_label_2
_geom_bond_site_symmetry_1
_geom_bond_site_symmetry_2
Co1 O1 1_555 1_555
O1 C6 1_555 1_555
O2 C6 1_555 1_555
O3 Co1 1_555 1_555
H1 O3 1_555 1_555
H2 O3 1_555 1_555
N1 Co1 1_555 1_555
N2 N1 1_555 1_555
N3 Co1 1_555 1_555
N4 N5 1_555 1_555
N5 Co1 1_555 1_555
C1 N1 1_555 1_555
C2 C1 1_555 1_555
H3 C2 1_555 1_555
C3 N2 1_555 1_555
C4 C1 1_555 1_555
H4 C4 1_555 1_555
H5 C4 1_555 1_555
H6 C4 1_555 1_555
C5 C3 1_555 1_555
H7 C5 1_555 1_555
H8 C5 1_555 1_555
H9 C5 1_555 1_555
C6 C7 1_555 1_555
C7 N3 1_555 1_555
H10 C7 1_555 1_555
H11 C7 1_555 1_555
C8 N3 1_555 1_555
H12 C8 1_555 1_555
H13 C8 1_555 1_555
C9 N4 1_555 1_555
C10 C9 1_555 1_555
H14 C10 1_555 1_555
C11 N5 1_555 1_555
C12 C9 1_555 1_555
H15 C12 1_555 1_555
H16 C12 1_555 1_555
H17 C12 1_555 1_555
C13 C11 1_555 1_555
H18 C13 1_555 1_555
H19 C13 1_555 1_555
H20 C13 1_555 1_555
C14 N2 1_555 1_555
H21 C14 1_555 1_555
H22 C14 1_555 1_555
N6 O4 1_555 1_555
O5 N6 1_555 1_555
O6 N6 1_555 1_555
O7 H23 1_555 1_555
H24 O7 1_555 1_555
Co1C O2 1_555 1_555
O2C Co1 1_555 1_555
N3 C14 1_555 1_555
N4 C8 1_555 1_555
C2 C3 1_555 1_555
C10 C11 1_555 1_555

#END
