
#######################################################################
#
#                 Cambridge Crystallographic Data Centre
#                                CCDC 
#
#######################################################################
#
# If this CIF has been generated from an entry in the Cambridge 
# Structural Database, then it will include bibliographic, chemical, 
# crystal, experimental, refinement or atomic coordinate data resulting 
# from the CCDC's data processing and validation procedures.
#
#######################################################################

data_JEHKUD01
_symmetry_cell_setting           monoclinic
_symmetry_space_group_name_H-M   'P 21/c'
_symmetry_Int_Tables_number      14
_space_group_name_Hall           '-P 2ybc'
loop_
_symmetry_equiv_pos_site_id
_symmetry_equiv_pos_as_xyz
1 x,y,z
2 -x,1/2+y,1/2-z
3 -x,-y,-z
4 x,1/2-y,1/2+z
_cell_length_a                   14.7761(10)
_cell_length_b                   13.8389(9)
_cell_length_c                   9.6306(5)
_cell_angle_alpha                90
_cell_angle_beta                 99.293(4)
_cell_angle_gamma                90
_cell_volume                     1943.47
loop_
_atom_site_label
_atom_site_type_symbol
_atom_site_fract_x
_atom_site_fract_y
_atom_site_fract_z
Co1 Co 0.72970(5) 0.16313(5) 0.47115(7)
O1 O 0.7109(2) 0.2246(3) 0.2728(3)
O2 O 0.7248(2) 0.1989(3) 0.0472(3)
O3 O 0.7552(3) 0.1038(3) 0.6736(4)
H1 H 0.7618 0.0418 0.7038
H2 H 0.7869 0.1503 0.7372
N1 N 0.7273(3) 0.0310(3) 0.3382(4)
N2 N 0.8856(3) 0.0608(3) 0.3913(4)
N3 N 0.8707(3) 0.1464(3) 0.4551(4)
N4 N 0.5723(3) 0.0426(3) 0.3689(4)
N5 N 0.5883(3) 0.1234(3) 0.4516(4)
C1 C 0.7179(3) 0.1694(4) 0.1702(5)
C2 C 0.7164(4) 0.0614(4) 0.1886(5)
H5 H 0.6588 0.0364 0.1392
H6 H 0.7654 0.0331 0.1461
C3 C 0.8172(3) -0.0156(4) 0.3876(5)
H7 H 0.8185 -0.0431 0.4805
H8 H 0.8286 -0.0666 0.3236
C4 C 0.9669(4) 0.0616(4) 0.3431(5)
C5 C 1.0062(4) 0.1503(4) 0.3800(5)
H9 H 1.0629 0.1721 0.3627
C6 C 0.9445(4) 0.2009(4) 0.4483(5)
C7 C 0.4849(3) 0.0387(4) 0.3022(5)
C8 C 0.4413(4) 0.1183(4) 0.3466(6)
H10 H 0.3800 0.1353 0.3203
C9 C 0.5069(4) 0.1677(4) 0.4379(6)
C10 C 0.6481(3) -0.0246(4) 0.3697(5)
H11 H 0.6316 -0.0744 0.2993
H12 H 0.6629 -0.0552 0.4611
C11 C 0.9972(4) -0.0213(5) 0.2624(6)
H13 H 1.0028 -0.0782 0.3202
H14 H 1.0554 -0.0066 0.2356
H15 H 0.9527 -0.0325 0.1796
C12 C 0.9508(4) 0.3015(4) 0.5054(6)
H16 H 0.9075 0.3420 0.4471
H17 H 1.0116 0.3260 0.5063
H18 H 0.9371 0.3012 0.5995
C13 C 0.4479(4) -0.0410(5) 0.2014(6)
H19 H 0.4880 -0.0498 0.1332
H20 H 0.3878 -0.0238 0.1543
H21 H 0.4446 -0.1000 0.2528
C14 C 0.4958(4) 0.2598(4) 0.5187(6)
H22 H 0.4958 0.2446 0.6159
H23 H 0.4389 0.2903 0.4804
H24 H 0.5457 0.3028 0.5108
Co1C Co 0.72970(5) 0.33687(5) -0.02885(7)
O2C O 0.7248(2) 0.3011(3) 0.5472(3)
O4 O 0.7874(3) 0.9071(3) 0.7240(4)
O5 O 0.7895(3) 0.8086(3) 0.9005(4)
O6 O 0.8196(3) 0.9613(3) 0.9364(5)
N6 N 0.7987(3) 0.8919(4) 0.8555(5)
O7 O 0.7261(3) 0.6752(3) 0.6715(4)
H3 H 0.7527 0.7352 0.7276
H4 H 0.7493 0.6705 0.5925
loop_
_geom_bond_atom_site_label_1
_geom_bond_atom_site_label_2
_geom_bond_site_symmetry_1
_geom_bond_site_symmetry_2
Co1 O1 1_555 1_555
O1 C1 1_555 1_555
O2 C1 1_555 1_555
O3 Co1 1_555 1_555
H1 O3 1_555 1_555
H2 O3 1_555 1_555
O4 N6 1_555 1_555
O5 N6 1_555 1_555
O6 N6 1_555 1_555
O7 H3 1_555 1_555
H4 O7 1_555 1_555
N1 Co1 1_555 1_555
N2 N3 1_555 1_555
N3 Co1 1_555 1_555
N4 N5 1_555 1_555
N5 Co1 1_555 1_555
C1 C2 1_555 1_555
C2 N1 1_555 1_555
H5 C2 1_555 1_555
H6 C2 1_555 1_555
C3 N1 1_555 1_555
H7 C3 1_555 1_555
H8 C3 1_555 1_555
C4 N2 1_555 1_555
C5 C4 1_555 1_555
H9 C5 1_555 1_555
C6 N3 1_555 1_555
C7 N4 1_555 1_555
C8 C7 1_555 1_555
H10 C8 1_555 1_555
C9 N5 1_555 1_555
C10 N1 1_555 1_555
H11 C10 1_555 1_555
H12 C10 1_555 1_555
C11 C4 1_555 1_555
H13 C11 1_555 1_555
H14 C11 1_555 1_555
H15 C11 1_555 1_555
C12 C6 1_555 1_555
H16 C12 1_555 1_555
H17 C12 1_555 1_555
H18 C12 1_555 1_555
C13 C7 1_555 1_555
H19 C13 1_555 1_555
H20 C13 1_555 1_555
H21 C13 1_555 1_555
C14 C9 1_555 1_555
H22 C14 1_555 1_555
H23 C14 1_555 1_555
H24 C14 1_555 1_555
Co1C O2 1_555 1_555
O2C Co1 1_555 1_555
N2 C3 1_555 1_555
N4 C10 1_555 1_555
C5 C6 1_555 1_555
C8 C9 1_555 1_555

#END
