
#######################################################################
#
#                 Cambridge Crystallographic Data Centre
#                                CCDC 
#
#######################################################################
#
# If this CIF has been generated from an entry in the Cambridge 
# Structural Database, then it will include bibliographic, chemical, 
# crystal, experimental, refinement or atomic coordinate data resulting 
# from the CCDC's data processing and validation procedures.
#
#######################################################################

data_JEHLAK
_symmetry_cell_setting           monoclinic
_symmetry_space_group_name_H-M   'P 21/n'
_symmetry_Int_Tables_number      14
_space_group_name_Hall           '-P 2yn'
loop_
_symmetry_equiv_pos_site_id
_symmetry_equiv_pos_as_xyz
1 x,y,z
2 1/2-x,1/2+y,1/2-z
3 -x,-y,-z
4 1/2+x,1/2-y,1/2+z
_cell_length_a                   9.0858(14)
_cell_length_b                   8.6715(7)
_cell_length_c                   22.343(3)
_cell_angle_alpha                90
_cell_angle_beta                 92.222(12)
_cell_angle_gamma                90
_cell_volume                     1759.03
loop_
_atom_site_label
_atom_site_type_symbol
_atom_site_fract_x
_atom_site_fract_y
_atom_site_fract_z
Pr1 Pr 0.031797(17) 0.24460(2) 0.006089(6)
O1 O -0.0200(3) 0.5264(2) 0.05803(9)
O2 O -0.1115(3) 0.1692(3) -0.08941(10)
O3 O 0.0116(3) 0.3203(3) 0.11406(10)
O4 O -0.2671(3) 0.3232(3) 0.43365(10)
O5 O -0.3940(3) 0.5267(2) 0.45751(10)
O6 O -0.2235(3) 0.1140(3) -0.45956(10)
O7 O -0.1179(3) 0.2437(3) -0.38378(10)
O8 O -0.2342(3) 0.3270(3) 0.01501(13)
O9 O -0.2083(3) -0.0631(3) -0.07545(10)
C1 C -0.1814(4) 0.0547(4) -0.10821(14)
C2 C -0.1443(4) 0.1178(4) -0.41269(15)
C3 C -0.2319(4) 0.0504(4) -0.17368(15)
H1 H -0.3107 -0.0277 -0.1794
H2 H -0.2736 0.1521 -0.1854
C4 C -0.1534(5) 0.0063(4) -0.28011(16)
H3 H -0.2242 -0.0794 -0.2868
H4 H -0.2049 0.1036 -0.2910
C5 C -0.0718(5) -0.0249(4) -0.38743(16)
H5 H -0.1405 -0.1127 -0.3934
H6 H 0.0167 -0.0471 -0.4104
C6 C -0.0259(5) -0.0155(5) -0.32066(17)
H7 H 0.0269 -0.1113 -0.3090
H8 H 0.0436 0.0716 -0.3146
C7 C -0.1062(5) 0.0117(5) -0.21372(16)
H9 H -0.0645 -0.0897 -0.2017
H10 H -0.0275 0.0899 -0.2078
C8 C -0.0710(4) 0.5508(4) 0.16188(14)
H11 H -0.1649 0.6033 0.1508
H12 H 0.0035 0.6317 0.1709
C9 C -0.1395(4) 0.5544(4) 0.27056(15)
H13 H -0.2272 0.6155 0.2578
H14 H -0.0594 0.6275 0.2818
C10 C -0.1757(4) 0.4584(4) 0.32515(14)
H15 H -0.2503 0.3800 0.3131
H16 H -0.0858 0.4033 0.3397
C11 C -0.0923(4) 0.4569(4) 0.21825(14)
H17 H -0.1678 0.3767 0.2097
H18 H 0.0012 0.4040 0.2296
C12 C -0.0232(4) 0.4595(4) 0.10903(13)
C13 C -0.2335(4) 0.5541(4) 0.37582(14)
H19 H -0.3086 0.6265 0.3590
H20 H -0.1515 0.6165 0.3934
C14 C -0.3005(4) 0.4627(3) 0.42490(13)
H21 H -0.292(5) 0.280(5) 0.0046(19)
H22 H -0.255(5) 0.412(6) 0.000(2)
H23 H -0.178(6) 0.322(6) -0.401(2)
Pr1B Pr -0.031797(17) 0.75540(2) -0.006089(6)
Pr1B_2 Pr -0.031797(17) -0.24460(2) -0.006089(6)
Pr1C Pr -0.468203(17) 0.25540(2) 0.506089(6)
Pr1A Pr -0.531797(17) 0.74460(2) 0.493911(6)
Pr1C_2 Pr -0.468203(17) 0.25540(2) -0.493911(6)
O1B O 0.0200(3) 0.4736(2) -0.05803(9)
O4C O 0.2329(3) 0.1768(3) -0.06635(10)
O5C O 0.1060(3) -0.0267(2) -0.04249(10)
O5A O -0.1060(3) 0.0267(2) 0.04249(10)
O6C O 0.2765(3) 0.3860(3) 0.04044(10)
O9B O 0.2083(3) 0.0631(3) 0.07545(10)
O10 O -0.5321(6) -0.1479(6) 0.0258(3)
H24 H -0.453(8) -0.170(8) 0.034(3)
H25 H -0.550(9) -0.080(11) 0.028(4)
loop_
_geom_bond_atom_site_label_1
_geom_bond_atom_site_label_2
_geom_bond_site_symmetry_1
_geom_bond_site_symmetry_2
Pr1 O1 1_555 1_555
O1 C12 1_555 1_555
O2 Pr1 1_555 1_555
O3 Pr1 1_555 1_555
O4 C14 1_555 1_555
O5 C14 1_555 1_555
O6 C2 1_555 1_555
O7 C2 1_555 1_555
O8 Pr1 1_555 1_555
O9 C1 1_555 1_555
C1 O2 1_555 1_555
C2 C5 1_555 1_555
C3 C1 1_555 1_555
H1 C3 1_555 1_555
H2 C3 1_555 1_555
C4 H3 1_555 1_555
H4 C4 1_555 1_555
C5 H5 1_555 1_555
H6 C5 1_555 1_555
C6 C4 1_555 1_555
H7 C6 1_555 1_555
H8 C6 1_555 1_555
C7 C3 1_555 1_555
H9 C7 1_555 1_555
H10 C7 1_555 1_555
C8 H11 1_555 1_555
H12 C8 1_555 1_555
C9 H13 1_555 1_555
H14 C9 1_555 1_555
C10 C9 1_555 1_555
H15 C10 1_555 1_555
H16 C10 1_555 1_555
C11 C8 1_555 1_555
H17 C11 1_555 1_555
H18 C11 1_555 1_555
C12 O3 1_555 1_555
C13 C10 1_555 1_555
H19 C13 1_555 1_555
H20 C13 1_555 1_555
C14 C13 1_555 1_555
H21 O8 1_555 1_555
H22 O8 1_555 1_555
H23 O7 1_555 1_555
O10 H24 1_555 1_555
H25 O10 1_555 1_555
Pr1B O1 1_555 1_555
Pr1B_2 O9 1_555 1_555
Pr1C O4 1_555 1_555
Pr1A O5 1_555 1_555
Pr1C_2 O6 1_555 1_555
O1B Pr1 1_555 1_555
O4C Pr1 1_555 1_555
O5C Pr1 1_555 1_555
O5A Pr1 1_555 1_555
O6C Pr1 1_555 1_555
O9B Pr1 1_555 1_555
O5 Pr1C 1_555 1_555
C4 C7 1_555 1_555
C5 C6 1_555 1_555
C8 C12 1_555 1_555
C9 C11 1_555 1_555
Pr1B O1B 1_555 1_555
Pr1B_2 O5C 1_555 1_555
Pr1B_2 O5A 1_555 1_555

#END
