
#######################################################################
#
#                 Cambridge Crystallographic Data Centre
#                                CCDC 
#
#######################################################################
#
# If this CIF has been generated from an entry in the Cambridge 
# Structural Database, then it will include bibliographic, chemical, 
# crystal, experimental, refinement or atomic coordinate data resulting 
# from the CCDC's data processing and validation procedures.
#
#######################################################################

data_JEHLUE
_symmetry_cell_setting           orthorhombic
_symmetry_space_group_name_H-M   'P b c n'
_symmetry_Int_Tables_number      60
_space_group_name_Hall           '-P 2n 2ab'
loop_
_symmetry_equiv_pos_site_id
_symmetry_equiv_pos_as_xyz
1 x,y,z
2 1/2-x,1/2-y,1/2+z
3 1/2+x,1/2-y,-z
4 -x,y,1/2-z
5 -x,-y,-z
6 1/2+x,1/2+y,1/2-z
7 1/2-x,1/2+y,z
8 x,-y,1/2+z
_cell_length_a                   13.829(3)
_cell_length_b                   8.9820(18)
_cell_length_c                   23.979(5)
_cell_angle_alpha                90
_cell_angle_beta                 90
_cell_angle_gamma                90
_cell_volume                     2978.48
loop_
_atom_site_label
_atom_site_type_symbol
_atom_site_fract_x
_atom_site_fract_y
_atom_site_fract_z
Er1 Er 0.111540(19) 0.49166(4) 0.055088(12)
O1 O 0.2770(3) 0.4916(7) 0.0719(2)
O2 O 0.1401(4) 0.7301(7) 0.0994(2)
O3 O 0.1258(5) 0.2503(8) 0.1026(3)
O4 O 0.1806(5) 0.6841(8) 0.4882(3)
O5 O 0.1620(4) 0.6448(7) -0.0182(3)
O6 O 0.0323(4) 0.6139(6) 0.4697(2)
O7 O -0.0181(4) 0.3467(7) 0.0932(3)
O8 O 0.1115(5) 0.5409(6) 0.1529(2)
C1 C 0.1126(8) 0.7774(14) 0.4049(4)
H1 H 0.0472 0.8160 0.3963
H2 H 0.1560 0.8636 0.4108
C2 C 0.1581(8) 0.6849(11) 0.2536(4)
H3 H 0.1011 0.6183 0.2547
H4 H 0.2167 0.6217 0.2556
C3 C 0.1087(6) 0.6872(9) 0.4564(3)
C4 C 0.1584(8) 0.7691(10) 0.1974(4)
H5 H 0.1104 0.8507 0.1994
H6 H 0.2228 0.8150 0.1920
C5 C 0.1359(5) 0.6741(9) 0.1476(3)
C6 C 0.1559(12) 0.7826(14) 0.3026(4)
H7 H 0.1002 0.8515 0.2994
H8 H 0.2157 0.8431 0.3036
C7 C 0.0385(7) 0.2506(9) 0.1148(4)
C8 C 0.1470(11) 0.6910(15) 0.3588(5)
H9 H 0.1024 0.6062 0.3527
H10 H 0.2112 0.6496 0.3683
C9 C -0.0036(9) 0.1457(15) 0.1562(7)
H11 H -0.0535 0.0846 0.1375
H12 H 0.0480 0.0776 0.1693
C10 C -0.0479(15) 0.219(3) 0.2056(6)
H13 H -0.0744 0.3153 0.1925
H14 H -0.1039 0.1572 0.2167
C11 C 0.0000 0.246(8) 0.2500
H15 H -0.0478 0.3147 0.2671
H16 H 0.0478 0.3147 0.2329
Er1G Er 0.111540(19) 0.50834(4) -0.444912(12)
Er1G_2 Er 0.111540(19) 0.50834(4) 0.555088(12)
Er1C Er -0.111540(19) 0.49166(4) 0.444912(12)
Er1D Er -0.111540(19) 0.50834(4) -0.055088(12)
O1G O 0.2770(3) 0.5084(7) -0.4281(2)
O2G O 0.1401(4) 0.2699(7) -0.4006(2)
O3C O -0.1258(5) 0.2503(8) 0.3974(3)
O3G O 0.1258(5) 0.7497(8) -0.3974(3)
O4G O 0.1806(5) 0.3159(8) -0.0118(3)
O4_2 O 0.1806(5) 0.6841(8) -0.5118(3)
O5G O 0.1620(4) 0.3552(7) -0.5182(3)
O6G O 0.0323(4) 0.3861(6) -0.0303(2)
O6C O -0.0323(4) 0.6139(6) 0.0303(2)
O6_2 O 0.0323(4) 0.6139(6) -0.5303(2)
O6D O -0.0323(4) 0.3861(6) -0.4697(2)
O7C O 0.0181(4) 0.3467(7) 0.4068(3)
O7G O -0.0181(4) 0.6533(7) -0.4068(3)
O8G O 0.1115(5) 0.4591(6) -0.3471(2)
C1G C 0.1126(8) 0.2226(14) -0.0951(4)
H1G H 0.0472 0.1840 -0.1037
H2G H 0.1560 0.1364 -0.0892
C2G C 0.1581(8) 0.3151(11) -0.2464(4)
H3G H 0.1011 0.3817 -0.2453
H4G H 0.2167 0.3783 -0.2444
C3G C 0.1087(6) 0.3128(9) -0.0436(3)
C4G C 0.1584(8) 0.2309(10) -0.3026(4)
H5G H 0.1104 0.1493 -0.3006
H6G H 0.2228 0.1850 -0.3080
C5G C 0.1359(5) 0.3259(9) -0.3524(3)
C6G C 0.1559(12) 0.2174(14) -0.1974(4)
H7G H 0.1002 0.1485 -0.2006
H8G H 0.2157 0.1569 -0.1964
C7C C -0.0385(7) 0.2506(9) 0.3852(4)
C8G C 0.1470(11) 0.3090(15) -0.1412(5)
H9G H 0.1024 0.3938 -0.1473
H10G H 0.2112 0.3504 -0.1317
C9C C 0.0036(9) 0.1457(15) 0.3438(7)
H11C H 0.0535 0.0846 0.3625
H12C H -0.0480 0.0776 0.3307
C10C C 0.0479(15) 0.219(3) 0.2944(6)
H13C H 0.0744 0.3153 0.3075
H14C H 0.1039 0.1572 0.2833
loop_
_geom_bond_atom_site_label_1
_geom_bond_atom_site_label_2
_geom_bond_site_symmetry_1
_geom_bond_site_symmetry_2
Er1 O1 1_555 1_555
O2 Er1 1_555 1_555
O3 Er1 1_555 1_555
O4 C3 1_555 1_555
O5 Er1 1_555 1_555
O6 C3 1_555 1_555
O7 Er1 1_555 1_555
O8 Er1 1_555 1_555
C1 H1 1_555 1_555
H2 C1 1_555 1_555
C2 H3 1_555 1_555
H4 C2 1_555 1_555
C3 C1 1_555 1_555
C4 C2 1_555 1_555
H5 C4 1_555 1_555
H6 C4 1_555 1_555
C5 O2 1_555 1_555
C6 C2 1_555 1_555
H7 C6 1_555 1_555
H8 C6 1_555 1_555
C7 O3 1_555 1_555
C8 C1 1_555 1_555
H9 C8 1_555 1_555
H10 C8 1_555 1_555
C9 C7 1_555 1_555
H11 C9 1_555 1_555
H12 C9 1_555 1_555
C10 C9 1_555 1_555
H13 C10 1_555 1_555
H14 C10 1_555 1_555
C11 C10 1_555 1_555
H15 C11 1_555 1_555
H16 C11 1_555 1_555
Er1G O1G 1_555 1_555
Er1G_2 O4 1_555 1_555
Er1C O6 1_555 1_555
Er1D O6G 1_555 1_555
O2G Er1G 1_555 1_555
O3C Er1C 1_555 1_555
O3G Er1G 1_555 1_555
O4G Er1 1_555 1_555
O4_2 Er1G 1_555 1_555
O5G Er1G 1_555 1_555
O6G Er1 1_555 1_555
O6C Er1 1_555 1_555
O6_2 Er1G 1_555 1_555
O6D Er1G 1_555 1_555
O7C Er1C 1_555 1_555
O7G Er1G 1_555 1_555
O8G Er1G 1_555 1_555
C1G H1G 1_555 1_555
H2G C1G 1_555 1_555
C2G H3G 1_555 1_555
H4G C2G 1_555 1_555
C3G O4G 1_555 1_555
C4G C2G 1_555 1_555
H5G C4G 1_555 1_555
H6G C4G 1_555 1_555
C5G O2G 1_555 1_555
C6G C2G 1_555 1_555
H7G C6G 1_555 1_555
H8G C6G 1_555 1_555
C7C O3C 1_555 1_555
C8G C1G 1_555 1_555
H9G C8G 1_555 1_555
H10G C8G 1_555 1_555
C9C C7C 1_555 1_555
H11C C9C 1_555 1_555
H12C C9C 1_555 1_555
C10C C11 1_555 1_555
H13C C10C 1_555 1_555
H14C C10C 1_555 1_555
O6 Er1G_2 1_555 1_555
O7 C7 1_555 1_555
O8 C5 1_555 1_555
C4 C5 1_555 1_555
C6 C8 1_555 1_555
Er1D O6C 1_555 1_555
O6G C3G 1_555 1_555
O7C C7C 1_555 1_555
O8G C5G 1_555 1_555
C1G C3G 1_555 1_555
C4G C5G 1_555 1_555
C6G C8G 1_555 1_555
C9C C10C 1_555 1_555

#END
