
#######################################################################
#
#                 Cambridge Crystallographic Data Centre
#                                CCDC 
#
#######################################################################
#
# If this CIF has been generated from an entry in the Cambridge 
# Structural Database, then it will include bibliographic, chemical, 
# crystal, experimental, refinement or atomic coordinate data resulting 
# from the CCDC's data processing and validation procedures.
#
#######################################################################

data_JEHLIS
_symmetry_cell_setting           orthorhombic
_symmetry_space_group_name_H-M   'P b c a'
_symmetry_Int_Tables_number      61
_space_group_name_Hall           '-P 2ac 2ab'
loop_
_symmetry_equiv_pos_site_id
_symmetry_equiv_pos_as_xyz
1 x,y,z
2 1/2-x,-y,1/2+z
3 1/2+x,1/2-y,-z
4 -x,1/2+y,1/2-z
5 -x,-y,-z
6 1/2+x,y,1/2-z
7 1/2-x,1/2+y,z
8 x,1/2-y,1/2+z
_cell_length_a                   15.934(3)
_cell_length_b                   7.9619(16)
_cell_length_c                   33.086(7)
_cell_angle_alpha                90
_cell_angle_beta                 90
_cell_angle_gamma                90
_cell_volume                     4197.45
loop_
_atom_site_label
_atom_site_type_symbol
_atom_site_fract_x
_atom_site_fract_y
_atom_site_fract_z
Pr1 Pr 0.787197(14) 0.15357(3) 0.383090(7)
O1 O 0.7830(2) 0.4355(4) 0.42266(10)
O2 O 0.9168(2) 0.3336(5) 0.37157(12)
O3 O 0.8528(2) 0.0546(4) 0.32017(11)
O4 O 0.8685(2) -0.3190(4) 0.37459(11)
C1 C 0.8611(3) 0.6531(6) 0.48011(14)
H1 H 0.8392 0.7025 0.4562
O5 O 0.8384(2) 0.2169(4) 0.45238(11)
O6 O 0.8890(2) -0.0614(4) 0.39874(12)
C2 C 0.8245(3) 0.3710(6) 0.45257(14)
C3 C 0.9158(3) -0.1961(5) 0.38261(18)
C4 C 1.0070(3) -0.2093(5) 0.37238(15)
C5 C 0.8567(3) 0.4808(6) 0.48528(15)
C6 C 0.8116(3) -0.0751(5) 0.31068(15)
C7 C 0.8970(4) 0.7545(6) 0.50950(18)
C8 C 1.1498(3) -0.1260(7) 0.3869(2)
C9 C 1.0640(3) -0.1124(6) 0.39357(17)
H2 H 1.0440 -0.0347 0.4131
C10 C 0.8862(4) 0.4075(6) 0.52064(18)
H3 H 0.8820 0.2896 0.5246
C11 C 0.9213(3) -0.1457(7) 0.26106(14)
H4 H 0.9555 -0.0641 0.2741
C12 C 0.8405(3) -0.1749(6) 0.27501(14)
C13 C 0.7902(3) -0.2929(6) 0.25642(16)
H5 H 0.7346 -0.3116 0.2657
C14 C 0.9280(4) 0.6804(7) 0.54468(18)
H6 H 0.9534 0.7479 0.5649
C15 C 1.0349(3) -0.3168(6) 0.34227(17)
H7 H 0.9962 -0.3826 0.3272
C16 C 0.9530(3) -0.2346(7) 0.22818(16)
C17 C 0.9216(4) 0.5082(7) 0.55004(19)
H8 H 0.9419 0.4588 0.5743
C18 C 1.1207(3) -0.3263(8) 0.3345(2)
H9 H 1.1405 -0.3986 0.3137
C19 C 0.8218(3) -0.3836(6) 0.22416(18)
H10 H 0.7876 -0.4667 0.2117
C20 C 1.1772(4) -0.2327(8) 0.35637(19)
H11 H 1.2354 -0.2411 0.3506
C21 C 0.9021(3) -0.3559(7) 0.20956(16)
H12 H 0.9226 -0.4184 0.1872
N1 N 1.0341(3) -0.1997(7) 0.21367(18)
N2 N 1.2061(4) -0.0320(11) 0.4097(3)
N3 N 0.9008(6) 0.9280(7) 0.5047(3)
O7 O 0.7488(2) -0.1192(4) 0.33229(10)
H13 H 0.909(4) 0.441(9) 0.373(2)
H14 H 0.884(4) 0.969(8) 0.482(2)
H15 H 1.263(5) -0.065(10) 0.413(3)
H16 H 1.193(5) 0.024(11) 0.432(3)
H17 H 0.941(4) 0.312(8) 0.352(2)
H18 H 1.062(4) -0.283(9) 0.208(2)
H19 H 0.938(4) 0.970(10) 0.520(3)
H20 H 1.071(4) -0.138(10) 0.232(3)
Pr1F Pr 0.712803(14) 0.65357(3) 0.383090(7)
Pr1F_2 Pr 0.712803(14) -0.34643(3) 0.383090(7)
O1F O 0.7170(2) -0.0645(4) 0.42266(10)
O4F O 0.6315(2) 0.1810(4) 0.37459(11)
O7F O 0.7512(2) 0.3808(4) 0.33229(10)
loop_
_geom_bond_atom_site_label_1
_geom_bond_atom_site_label_2
_geom_bond_site_symmetry_1
_geom_bond_site_symmetry_2
Pr1 O1 1_555 1_555
O1 C2 1_555 1_555
O2 Pr1 1_555 1_555
O3 Pr1 1_555 1_555
O4 C3 1_555 1_555
C1 H1 1_555 1_555
O5 Pr1 1_555 1_555
O6 Pr1 1_555 1_555
C2 O5 1_555 1_555
C3 O6 1_555 1_555
C4 C3 1_555 1_555
C5 C1 1_555 1_555
C6 O3 1_555 1_555
C7 C1 1_555 1_555
C8 C9 1_555 1_555
C9 C4 1_555 1_555
H2 C9 1_555 1_555
C10 C5 1_555 1_555
H3 C10 1_555 1_555
C11 H4 1_555 1_555
C12 C6 1_555 1_555
C13 C12 1_555 1_555
H5 C13 1_555 1_555
C14 C7 1_555 1_555
H6 C14 1_555 1_555
C15 C4 1_555 1_555
H7 C15 1_555 1_555
C16 C11 1_555 1_555
C17 C10 1_555 1_555
H8 C17 1_555 1_555
C18 C15 1_555 1_555
H9 C18 1_555 1_555
C19 C13 1_555 1_555
H10 C19 1_555 1_555
C20 C8 1_555 1_555
H11 C20 1_555 1_555
C21 C16 1_555 1_555
H12 C21 1_555 1_555
N1 C16 1_555 1_555
N2 C8 1_555 1_555
N3 C7 1_555 1_555
O7 Pr1 1_555 1_555
H13 O2 1_555 1_555
H14 N3 1_555 1_555
H15 N2 1_555 1_555
H16 N2 1_555 1_555
H17 O2 1_555 1_555
H18 N1 1_555 1_555
H19 N3 1_555 1_555
H20 N1 1_555 1_555
Pr1F O1 1_555 1_555
Pr1F_2 O4 1_555 1_555
O1F Pr1 1_555 1_555
O4F Pr1 1_555 1_555
O7F Pr1 1_555 1_555
C2 C5 1_555 1_555
C6 O7 1_555 1_555
C11 C12 1_555 1_555
C14 C17 1_555 1_555
C18 C20 1_555 1_555
C19 C21 1_555 1_555
O7 Pr1F_2 1_555 1_555
Pr1F O7F 1_555 1_555
Pr1F_2 O1F 1_555 1_555

#END
