
#######################################################################
#
#                 Cambridge Crystallographic Data Centre
#                                CCDC 
#
#######################################################################
#
# If this CIF has been generated from an entry in the Cambridge 
# Structural Database, then it will include bibliographic, chemical, 
# crystal, experimental, refinement or atomic coordinate data resulting 
# from the CCDC's data processing and validation procedures.
#
#######################################################################

data_JEHMOZ
_symmetry_cell_setting           monoclinic
_symmetry_space_group_name_H-M   'P 21/n'
_symmetry_Int_Tables_number      14
_space_group_name_Hall           '-P 2yn'
loop_
_symmetry_equiv_pos_site_id
_symmetry_equiv_pos_as_xyz
1 x,y,z
2 1/2-x,1/2+y,1/2-z
3 -x,-y,-z
4 1/2+x,1/2-y,1/2+z
_cell_length_a                   9.0961(9)
_cell_length_b                   8.7063(11)
_cell_length_c                   22.405(2)
_cell_angle_alpha                90
_cell_angle_beta                 92.298(11)
_cell_angle_gamma                90
_cell_volume                     1772.9
loop_
_atom_site_label
_atom_site_type_symbol
_atom_site_fract_x
_atom_site_fract_y
_atom_site_fract_z
Ce1 Ce 0.03184(3) 0.25509(4) 0.006040(9)
C1 C -0.1824(5) 0.4454(5) -0.1087(2)
O1 O -0.1133(4) 0.3306(4) -0.08984(15)
O2 O -0.2098(4) 0.5626(4) -0.07579(15)
C2 C -0.2322(6) 0.4508(6) -0.1744(2)
H1 H -0.2736 0.3521 -0.1861
H2 H -0.3087 0.5277 -0.1800
C3 C -0.1075(7) 0.4883(6) -0.2135(2)
H3 H -0.0311 0.4116 -0.2073
H4 H -0.0665 0.5868 -0.2014
C4 C -0.1516(7) 0.4945(6) -0.2798(2)
H5 H -0.2028 0.4002 -0.2907
H6 H -0.2203 0.5786 -0.2864
C5 C -0.0262(7) 0.5151(6) -0.3206(2)
H7 H 0.0413 0.4298 -0.3147
H8 H 0.0263 0.6083 -0.3092
C6 C -0.0710(7) 0.5250(6) -0.3870(2)
H9 H -0.1386 0.6103 -0.3929
H10 H 0.0158 0.5471 -0.4092
C7 C -0.1427(5) 0.3817(5) -0.4123(2)
O3 O -0.1171(3) 0.2571(5) -0.38354(13)
H11 H -0.1605 0.1859 -0.4005
O4 O -0.2221(4) 0.3866(3) -0.45924(14)
C8 C 0.0229(5) -0.0417(4) -0.10933(19)
O5 O 0.0191(4) 0.0245(3) -0.05863(14)
O6 O -0.0117(4) -0.1791(3) -0.11507(13)
C9 C 0.0705(6) 0.0503(5) -0.1619(2)
H12 H 0.1621 0.1019 -0.1509
H13 H -0.0028 0.1288 -0.1707
C10 C 0.0924(6) -0.0427(5) -0.2180(2)
H14 H 0.0010 -0.0944 -0.2293
H15 H 0.1662 -0.1209 -0.2095
C11 C 0.1401(6) 0.0541(5) -0.2705(2)
H16 H 0.0619 0.1257 -0.2816
H17 H 0.2261 0.1137 -0.2580
C12 C 0.1762(6) -0.0410(5) -0.3249(2)
H18 H 0.2496 -0.1172 -0.3131
H19 H 0.0883 -0.0952 -0.3390
C13 C 0.2332(6) 0.0541(5) -0.3755(2)
H20 H 0.1525 0.1145 -0.3928
H21 H 0.3066 0.1252 -0.3593
C14 C 0.3001(5) -0.0375(4) -0.42447(19)
O7 O 0.2658(4) -0.1771(3) -0.43300(14)
O8 O 0.3932(4) 0.0252(3) -0.45707(14)
O9 O -0.2380(4) 0.1734(4) 0.01478(15)
Ce1B Ce -0.03184(3) -0.25509(4) -0.006040(9)
Ce1B_2 Ce -0.03184(3) 0.74491(4) -0.006040(9)
Ce1C Ce -0.46816(3) 0.24491(4) -0.493960(9)
Ce1A Ce 0.46816(3) -0.24491(4) -0.506040(9)
Ce1C_2 Ce 0.53184(3) 0.24491(4) -0.493960(9)
O2B O 0.2098(4) 0.4374(4) 0.07579(15)
O4C O 0.2779(4) 0.1134(3) 0.04076(14)
O5B O -0.0191(4) -0.0245(3) 0.05863(14)
O6B O 0.0117(4) 0.1791(3) 0.11507(13)
O7A O 0.2342(4) 0.3229(3) -0.06700(14)
O8A O 0.1068(4) 0.5252(3) -0.04293(14)
O8C O -0.1068(4) 0.4748(3) 0.04293(14)
O10 O -0.4679(5) 0.3544(5) -0.0264(3)
loop_
_geom_bond_atom_site_label_1
_geom_bond_atom_site_label_2
_geom_bond_site_symmetry_1
_geom_bond_site_symmetry_2
Ce1 O1 1_555 1_555
C1 O1 1_555 1_555
O2 C1 1_555 1_555
C2 C1 1_555 1_555
H1 C2 1_555 1_555
H2 C2 1_555 1_555
C3 C2 1_555 1_555
H3 C3 1_555 1_555
H4 C3 1_555 1_555
C4 C3 1_555 1_555
H5 C4 1_555 1_555
H6 C4 1_555 1_555
C5 C4 1_555 1_555
H7 C5 1_555 1_555
H8 C5 1_555 1_555
C6 C5 1_555 1_555
H9 C6 1_555 1_555
H10 C6 1_555 1_555
C7 C6 1_555 1_555
O3 C7 1_555 1_555
H11 O3 1_555 1_555
O4 C7 1_555 1_555
C8 O5 1_555 1_555
O5 Ce1 1_555 1_555
O6 C8 1_555 1_555
C9 C8 1_555 1_555
H12 C9 1_555 1_555
H13 C9 1_555 1_555
C10 C9 1_555 1_555
H14 C10 1_555 1_555
H15 C10 1_555 1_555
C11 C10 1_555 1_555
H16 C11 1_555 1_555
H17 C11 1_555 1_555
C12 C11 1_555 1_555
H18 C12 1_555 1_555
H19 C12 1_555 1_555
C13 C12 1_555 1_555
H20 C13 1_555 1_555
H21 C13 1_555 1_555
C14 C13 1_555 1_555
O7 C14 1_555 1_555
O8 C14 1_555 1_555
O9 Ce1 1_555 1_555
Ce1B O5 1_555 1_555
Ce1B_2 O2 1_555 1_555
Ce1C O4 1_555 1_555
Ce1A O7 1_555 1_555
Ce1C_2 O8 1_555 1_555
O2B Ce1 1_555 1_555
O4C Ce1 1_555 1_555
O5B Ce1 1_555 1_555
O6B Ce1 1_555 1_555
O7A Ce1 1_555 1_555
O8A Ce1 1_555 1_555
O8C Ce1 1_555 1_555
O6 Ce1B 1_555 1_555
O8 Ce1A 1_555 1_555
Ce1B O5B 1_555 1_555
Ce1B_2 O8A 1_555 1_555
Ce1B_2 O8C 1_555 1_555

#END
