
#######################################################################
#
#                 Cambridge Crystallographic Data Centre
#                                CCDC 
#
#######################################################################
#
# If this CIF has been generated from an entry in the Cambridge 
# Structural Database, then it will include bibliographic, chemical, 
# crystal, experimental, refinement or atomic coordinate data resulting 
# from the CCDC's data processing and validation procedures.
#
#######################################################################

data_JEHMAL
_symmetry_cell_setting           orthorhombic
_symmetry_space_group_name_H-M   'P b c n'
_symmetry_Int_Tables_number      60
_space_group_name_Hall           '-P 2n 2ab'
loop_
_symmetry_equiv_pos_site_id
_symmetry_equiv_pos_as_xyz
1 x,y,z
2 1/2-x,1/2-y,1/2+z
3 1/2+x,1/2-y,-z
4 -x,y,1/2-z
5 -x,-y,-z
6 1/2+x,1/2+y,1/2-z
7 1/2-x,1/2+y,z
8 x,-y,1/2+z
_cell_length_a                   13.870(3)
_cell_length_b                   8.9872(18)
_cell_length_c                   24.017(5)
_cell_angle_alpha                90
_cell_angle_beta                 90
_cell_angle_gamma                90
_cell_volume                     2993.78
loop_
_atom_site_label
_atom_site_type_symbol
_atom_site_fract_x
_atom_site_fract_y
_atom_site_fract_z
Ho1 Ho 0.38836(3) 0.49178(8) -0.44481(2)
O1 O 0.3209(9) 0.6853(14) -0.0126(6)
O2 O 0.3372(10) 0.6464(15) -0.5181(6)
O3 O 0.4815(6) 0.3474(12) -0.0943(4)
O4 O 0.4673(6) 0.6171(9) -0.0300(4)
O5 O 0.3600(7) 0.7306(12) -0.4001(4)
O6 O 0.3873(9) 0.4597(11) -0.8468(4)
O7 O 0.2225(5) 0.5092(16) -0.9271(4)
O8 O 0.6236(10) 0.2482(14) -0.1016(6)
C1 C 0.4974(16) 0.142(2) -0.1564(10)
H1 H 0.5496 0.0755 -0.1696
H2 H 0.4483 0.0796 -0.1377
C2 C 0.351(2) 0.688(3) -0.1403(10)
H3 H 0.2860 0.6524 -0.1296
H4 H 0.3918 0.5998 -0.1475
C3 C 0.452(2) 0.219(5) -0.2059(12)
H5 H 0.3971 0.1559 -0.2178
H6 H 0.4241 0.3131 -0.1920
C4 C 0.343(2) 0.786(2) -0.1973(8)
H7 H 0.2825 0.8459 -0.1965
H8 H 0.3978 0.8557 -0.1998
C5 C 0.3419(13) 0.6872(19) -0.2462(7)
H9 H 0.2842 0.6224 -0.2441
H10 H 0.3994 0.6221 -0.2446
C6 C 0.3641(10) 0.6748(17) -0.3517(6)
C7 C 0.3924(13) 0.6855(17) -0.0456(9)
C8 C 0.3413(12) 0.7676(16) -0.3021(6)
H11 H 0.2768 0.1876 -0.8076
H12 H 0.3885 0.1499 -0.8003
C9 C 0.3898(16) 0.768(2) -0.0967(8)
H13 H 0.3512 0.1405 -0.5910
H14 H 0.4562 0.2013 -0.6066
C10 C 0.5385(12) 0.2513(17) -0.1148(6)
C11 C 0.5000 0.251(12) -0.2500
H15 H 0.5475 0.3188 -0.2327
H16 H 0.4525 0.3188 -0.2673
H17 H 0.380(12) 0.675(15) -0.543(7)
H18 H 0.290(7) 0.732(13) -0.521(5)
H19 H 0.177(7) 0.388(11) -0.927(4)
H20 H 0.212(15) 0.55(3) -0.879(9)
Ho1G Ho 0.38836(3) 0.50822(8) 0.05519(2)
Ho1C Ho 0.61164(3) 0.49178(8) -0.05519(2)
Ho1D Ho 0.61164(3) 0.50822(8) -0.55519(2)
Ho1G_2 Ho 0.38836(3) 0.50822(8) -0.94481(2)
O1G O 0.3209(9) 0.3147(14) -0.5126(6)
O1_2 O 0.3209(9) 0.6853(14) -1.0126(6)
O2G O 0.3372(10) 0.3536(15) -1.0181(6)
O3C O 0.5185(6) 0.3474(12) -0.4057(4)
O3D O 0.5185(6) 0.6526(12) -0.9057(4)
O4G O 0.4673(6) 0.3829(9) -0.5300(4)
O4C O 0.5327(6) 0.6171(9) -0.4700(4)
O4D O 0.5327(6) 0.3829(9) -0.9700(4)
O4_2 O 0.4673(6) 0.6171(9) -1.0300(4)
O5G O 0.3600(7) 0.2694(12) -0.9001(4)
O6G O 0.3873(9) 0.5403(11) -0.3468(4)
O7G O 0.2225(5) 0.4908(16) -0.4271(4)
O8C O 0.3764(10) 0.2482(14) -0.3984(6)
O8D O 0.3764(10) 0.7518(14) -0.8984(6)
C1C C 0.5026(16) 0.142(2) -0.3436(10)
H1C H 0.4504 0.0755 -0.3304
H2C H 0.5517 0.0796 -0.3623
C2G C 0.351(2) 0.312(3) -0.6403(10)
H3G H 0.2860 0.3476 -0.6296
H4G H 0.3918 0.4002 -0.6475
C3C C 0.548(2) 0.219(5) -0.2941(12)
H5C H 0.6029 0.1559 -0.2822
H6C H 0.5759 0.3131 -0.3080
C4G C 0.343(2) 0.214(2) -0.6973(8)
H7G H 0.2825 0.1541 -0.6965
H8G H 0.3978 0.1443 -0.6998
C5G C 0.3419(13) 0.3128(19) -0.7462(7)
H9G H 0.2842 0.3776 -0.7441
H10G H 0.3994 0.3779 -0.7446
C6G C 0.3641(10) 0.3252(17) -0.8517(6)
C7G C 0.3924(13) 0.3145(17) -0.5456(9)
C8G C 0.3413(12) 0.2324(16) -0.8021(6)
H11G H 0.2768 0.8124 -0.3076
H12G H 0.3885 0.8501 -0.3003
C9G C 0.3898(16) 0.232(2) -0.5967(8)
H13G H 0.3512 0.8595 -0.0910
H14G H 0.4562 0.7987 -0.1066
C10C C 0.4615(12) 0.2513(17) -0.3852(6)
H17G H 0.380(12) 0.325(15) -1.043(7)
H18G H 0.290(7) 0.268(13) -1.021(5)
H19G H 0.177(7) 0.612(11) -0.427(4)
H20G H 0.212(15) 0.45(3) -0.379(9)
loop_
_geom_bond_atom_site_label_1
_geom_bond_atom_site_label_2
_geom_bond_site_symmetry_1
_geom_bond_site_symmetry_2
Ho1 O2 1_555 1_555
O1 C7 1_555 1_555
O2 H17 1_555 1_555
O3 C10 1_555 1_555
O4 C7 1_555 1_555
O5 Ho1 1_555 1_555
O6 Ho1G_2 1_555 1_555
O7 H19 1_555 1_555
O8 C10 1_555 1_555
C1 H1 1_555 1_555
H2 C1 1_555 1_555
C2 H3 1_555 1_555
H4 C2 1_555 1_555
C3 C1 1_555 1_555
H5 C3 1_555 1_555
H6 C3 1_555 1_555
C4 C2 1_555 1_555
H7 C4 1_555 1_555
H8 C4 1_555 1_555
C5 C4 1_555 1_555
H9 C5 1_555 1_555
H10 C5 1_555 1_555
C6 O5 1_555 1_555
C7 C9 1_555 1_555
C8 C5 1_555 1_555
H11 C8G 1_555 1_555
H12 C8G 1_555 1_555
C9 C2 1_555 1_555
H13 C9G 1_555 1_555
H14 C9G 1_555 1_555
C10 C1 1_555 1_555
C11 C3 1_555 1_555
H15 C11 1_555 1_555
H16 C11 1_555 1_555
H18 O2 1_555 1_555
H20 O7 1_555 1_555
Ho1G O1 1_555 1_555
Ho1C O3 1_555 1_555
Ho1D O4G 1_555 1_555
Ho1G_2 O7 1_555 1_555
O1G Ho1 1_555 1_555
O1_2 Ho1G_2 1_555 1_555
O2G Ho1G_2 1_555 1_555
O3C Ho1 1_555 1_555
O3D Ho1G_2 1_555 1_555
O4G Ho1 1_555 1_555
O4C Ho1 1_555 1_555
O4D Ho1G_2 1_555 1_555
O4_2 Ho1G_2 1_555 1_555
O5G Ho1G_2 1_555 1_555
O6G Ho1 1_555 1_555
O7G Ho1 1_555 1_555
O8C Ho1 1_555 1_555
O8D Ho1G_2 1_555 1_555
C1C H1C 1_555 1_555
H2C C1C 1_555 1_555
C2G H3G 1_555 1_555
H4G C2G 1_555 1_555
C3C C11 1_555 1_555
H5C C3C 1_555 1_555
H6C C3C 1_555 1_555
C4G C2G 1_555 1_555
H7G C4G 1_555 1_555
H8G C4G 1_555 1_555
C5G C4G 1_555 1_555
H9G C5G 1_555 1_555
H10G C5G 1_555 1_555
C6G O6 1_555 1_555
C7G O1G 1_555 1_555
C8G C5G 1_555 1_555
H11G C8 1_555 1_555
H12G C8 1_555 1_555
C9G C2G 1_555 1_555
H13G C9 1_555 1_555
H14G C9 1_555 1_555
C10C O3C 1_555 1_555
H17G O2G 1_555 1_555
H18G O2G 1_555 1_555
H19G O7G 1_555 1_555
H20G O7G 1_555 1_555
O4 Ho1G 1_555 1_555
O4 Ho1C 1_555 1_555
O8 Ho1C 1_555 1_555
C6 C8 1_555 1_555
C6 O6G 1_555 1_555
Ho1D O4C 1_555 1_555
O4G C7G 1_555 1_555
O5G C6G 1_555 1_555
O8C C10C 1_555 1_555
C1C C3C 1_555 1_555
C1C C10C 1_555 1_555
C6G C8G 1_555 1_555
C7G C9G 1_555 1_555

#END
