
#######################################################################
#
#                 Cambridge Crystallographic Data Centre
#                                CCDC 
#
#######################################################################
#
# If this CIF has been generated from an entry in the Cambridge 
# Structural Database, then it will include bibliographic, chemical, 
# crystal, experimental, refinement or atomic coordinate data resulting 
# from the CCDC's data processing and validation procedures.
#
#######################################################################

data_JEHPIW
_symmetry_cell_setting           monoclinic
_symmetry_space_group_name_H-M   'P 21/c'
_symmetry_Int_Tables_number      14
_space_group_name_Hall           '-P 2ybc'
loop_
_symmetry_equiv_pos_site_id
_symmetry_equiv_pos_as_xyz
1 x,y,z
2 -x,1/2+y,1/2-z
3 -x,-y,-z
4 x,1/2-y,1/2+z
_cell_length_a                   6.9345(8)
_cell_length_b                   12.7359(15)
_cell_length_c                   18.129(2)
_cell_angle_alpha                90
_cell_angle_beta                 94.228(2)
_cell_angle_gamma                90
_cell_volume                     1596.74
loop_
_atom_site_label
_atom_site_type_symbol
_atom_site_fract_x
_atom_site_fract_y
_atom_site_fract_z
V1 V 0.73267(8) 0.26731(4) 0.05867(3)
O1 O 0.4707(3) 0.23047(17) 0.06717(13)
O2 O 0.5639(3) 0.27689(18) 0.13422(13)
O3 O 1.0037(3) 0.25196(18) 0.05823(13)
O4 O 0.9419(3) 0.29401(18) 0.12750(13)
O5 O 0.7002(3) 0.37694(17) 0.01577(13)
N1 N 0.7637(4) 0.0944(2) 0.09056(15)
N2 N 0.7206(4) 0.1794(2) -0.04136(15)
C1 C 0.7812(5) 0.0575(3) 0.1590(2)
H1 H 0.7857 0.1062 0.1988
C2 C 0.7933(5) -0.0474(3) 0.1752(2)
H2 H 0.8053 -0.0709 0.2251
C3 C 0.7876(5) -0.1178(3) 0.1179(2)
H3 H 0.7957 -0.1911 0.1273
C4 C 0.7701(5) -0.0809(3) 0.0467(2)
H4 H 0.7668 -0.1283 0.0062
C5 C 0.7574(4) 0.0261(3) 0.0345(2)
C6 C 0.7347(4) 0.0737(2) -0.03969(19)
C7 C 0.7267(5) 0.0157(3) -0.1040(2)
H5 H 0.7357 -0.0587 -0.1018
C8 C 0.7057(5) 0.0652(3) -0.1711(2)
H6 H 0.7003 0.0260 -0.2158
C9 C 0.6925(5) 0.1727(3) -0.1725(2)
H7 H 0.6778 0.2091 -0.2183
C10 C 0.7009(5) 0.2273(3) -0.10678(19)
H8 H 0.6923 0.3017 -0.1081
Rb1 Rb 0.25430(5) 0.40119(3) -0.002594(19)
O6 O 0.2685(4) 0.3854(2) -0.16023(14)
H9 H 0.161(3) 0.416(3) -0.1597(18)
H10 H 0.261(5) 0.351(3) -0.2000(11)
O7 O 0.0362(4) 0.5007(2) 0.12284(15)
H11 H 0.009(4) 0.4369(7) 0.127(2)
H12 H 0.151(2) 0.506(2) 0.141(2)
O8 O 0.4248(4) 0.4799(2) 0.14725(16)
H13 H 0.471(4) 0.4189(8) 0.150(2)
H14 H 0.522(3) 0.5195(18) 0.152(2)
O3_2 O 0.0037(3) 0.25196(18) 0.05823(13)
O5B O 0.2998(3) 0.62306(17) -0.01577(13)
Rb1_2 Rb 1.25430(5) 0.40119(3) -0.002594(19)
Rb1B Rb 0.74570(5) 0.59881(3) 0.002594(19)
Rb1B_2 Rb -0.25430(5) 0.59881(3) 0.002594(19)
O7B O -0.0362(4) 0.4993(2) -0.12284(15)
H11B H -0.009(4) 0.5631(7) -0.127(2)
H12B H -0.151(2) 0.494(2) -0.141(2)
O9 O 0.2519(4) 0.2161(3) 0.21346(16)
H15 H 0.345(3) 0.232(3) 0.1882(15)
H16 H 0.153(2) 0.232(3) 0.1864(15)
loop_
_geom_bond_atom_site_label_1
_geom_bond_atom_site_label_2
_geom_bond_site_symmetry_1
_geom_bond_site_symmetry_2
V1 O1 1_555 1_555
O1 O2 1_555 1_555
O2 V1 1_555 1_555
O3 V1 1_555 1_555
O4 V1 1_555 1_555
O5 V1 1_555 1_555
N1 V1 1_555 1_555
N2 V1 1_555 1_555
C1 N1 1_555 1_555
H1 C1 1_555 1_555
C2 C1 1_555 1_555
H2 C2 1_555 1_555
C3 C2 1_555 1_555
H3 C3 1_555 1_555
C4 C3 1_555 1_555
H4 C4 1_555 1_555
C5 N1 1_555 1_555
C6 N2 1_555 1_555
C7 C6 1_555 1_555
H5 C7 1_555 1_555
C8 C7 1_555 1_555
H6 C8 1_555 1_555
C9 C8 1_555 1_555
H7 C9 1_555 1_555
C10 N2 1_555 1_555
H8 C10 1_555 1_555
Rb1 O1 1_555 1_555
O6 Rb1 1_555 1_555
H9 O6 1_555 1_555
H10 O6 1_555 1_555
O7 Rb1 1_555 1_555
H11 O7 1_555 1_555
H12 O7 1_555 1_555
O8 Rb1 1_555 1_555
H13 O8 1_555 1_555
H14 O8 1_555 1_555
O9 H15 1_555 1_555
H16 O9 1_555 1_555
O3_2 Rb1 1_555 1_555
O5B Rb1 1_555 1_555
Rb1_2 O3 1_555 1_555
Rb1B O5 1_555 1_555
Rb1B_2 O7 1_555 1_555
O7B Rb1 1_555 1_555
H11B O7B 1_555 1_555
H12B O7B 1_555 1_555
O3 O4 1_555 1_555
O5 Rb1 1_555 1_555
C4 C5 1_555 1_555
C5 C6 1_555 1_555
C9 C10 1_555 1_555
O5B Rb1B 1_555 1_555
Rb1B_2 O7B 1_555 1_555

#END
