
#######################################################################
#
#                 Cambridge Crystallographic Data Centre
#                                CCDC 
#
#######################################################################
#
# If this CIF has been generated from an entry in the Cambridge 
# Structural Database, then it will include bibliographic, chemical, 
# crystal, experimental, refinement or atomic coordinate data resulting 
# from the CCDC's data processing and validation procedures.
#
#######################################################################

data_JEHPAO
_symmetry_cell_setting           orthorhombic
_symmetry_space_group_name_H-M   'I b c a'
_symmetry_Int_Tables_number      73
_space_group_name_Hall           '-I 2b 2c'
loop_
_symmetry_equiv_pos_site_id
_symmetry_equiv_pos_as_xyz
1 x,y,z
2 1/2+x,1/2+y,1/2+z
3 1/2-x,-y,1/2+z
4 -x,1/2+y,1/2-z
5 1/2+x,1/2-y,-z
6 -x,1/2-y,z
7 1/2-x,y,-z
8 x,-y,1/2-z
9 -x,-y,-z
10 1/2-x,1/2-y,1/2-z
11 1/2+x,y,1/2-z
12 x,1/2-y,1/2+z
13 1/2-x,1/2+y,z
14 x,1/2+y,-z
15 1/2+x,-y,z
16 -x,y,1/2+z
_cell_length_a                   11.1113(9)
_cell_length_b                   12.5922(11)
_cell_length_c                   20.8204(17)
_cell_angle_alpha                90
_cell_angle_beta                 90
_cell_angle_gamma                90
_cell_volume                     2913.1
loop_
_atom_site_label
_atom_site_type_symbol
_atom_site_fract_x
_atom_site_fract_y
_atom_site_fract_z
K1 K -0.00631(6) 0.0000 0.2500
K2 K 0.0000 -0.2500 0.36366(3)
O1 O -0.09535(14) 0.18499(12) 0.30169(7)
O2 O -0.09070(15) -0.04014(13) 0.36651(7)
O3 O -0.09570(14) 0.18474(13) 0.52631(7)
O4 O 0.15607(16) 0.15013(14) 0.21928(8)
N1 N -0.18898(18) 0.09509(14) 0.41599(9)
C1 C -0.05173(18) 0.20946(16) 0.47343(10)
C2 C -0.09269(19) 0.16913(16) 0.41424(10)
C3 C -0.05193(18) 0.21011(16) 0.35598(10)
C4 C -0.1808(2) -0.00449(17) 0.39368(10)
C5 C -0.2904(2) -0.0724(2) 0.40390(12)
H1 H -0.2760 -0.1433 0.3861
H2 H -0.3595 -0.0400 0.3823
H3 H -0.3070 -0.0781 0.4500
H4 H 0.229(3) 0.151(3) 0.2121(16)
H5 H 0.141(3) 0.206(3) 0.2491(18)
H6 H -0.248(3) 0.110(3) 0.4320(15)
K1C K 0.00631(6) 0.5000 0.2500
K2M K 0.0000 0.2500 0.63634(3)
K2C K 0.0000 0.2500 0.13634(3)
K2_2 K 0.0000 0.7500 0.36366(3)
O1E O 0.09535(14) 0.31501(12) 0.30169(7)
O1G O -0.09535(14) -0.18499(12) 0.19831(7)
O2E O 0.09070(15) 0.54014(13) 0.36651(7)
O2G O -0.09070(15) 0.04014(13) 0.13349(7)
O2E_2 O 0.09070(15) -0.45986(13) 0.36651(7)
O3E O 0.09570(14) 0.31526(13) 0.52631(7)
O3M O -0.09570(14) -0.31526(13) 0.47369(7)
O3H O 0.09570(14) -0.18474(13) 0.47369(7)
O4G O 0.15607(16) -0.15013(14) 0.28072(8)
O4C O -0.15607(16) -0.34987(14) 0.28072(8)
N1E N 0.18898(18) 0.40491(14) 0.41599(9)
C1E C 0.05173(18) 0.29054(16) 0.47343(10)
C2E C 0.09269(19) 0.33087(16) 0.41424(10)
C3E C 0.05193(18) 0.28989(16) 0.35598(10)
C4E C 0.1808(2) 0.50449(17) 0.39368(10)
C5E C 0.2904(2) 0.5724(2) 0.40390(12)
H1E H 0.2760 0.6433 0.3861
H2E H 0.3595 0.5400 0.3823
H3E H 0.3070 0.5781 0.4500
H4G H 0.229(3) -0.151(3) 0.2879(16)
H4C H -0.229(3) -0.349(3) 0.2879(16)
H5G H 0.141(3) -0.206(3) 0.2509(18)
H5C H -0.141(3) -0.294(3) 0.2509(18)
H6E H 0.248(3) 0.390(3) 0.4320(15)
loop_
_geom_bond_atom_site_label_1
_geom_bond_atom_site_label_2
_geom_bond_site_symmetry_1
_geom_bond_site_symmetry_2
K1 O1 1_555 1_555
K2 O2 1_555 1_555
O1 C3 1_555 1_555
O2 K1 1_555 1_555
O3 C1 1_555 1_555
O4 K1 1_555 1_555
N1 C2 1_555 1_555
C1 C2 1_555 1_555
C2 C3 1_555 1_555
C3 C3E 1_555 1_555
C4 O2 1_555 1_555
C5 C4 1_555 1_555
H1 C5 1_555 1_555
H2 C5 1_555 1_555
H3 C5 1_555 1_555
H4 O4 1_555 1_555
H5 O4 1_555 1_555
H6 N1 1_555 1_555
K1C O1E 1_555 1_555
K2M O3 1_555 1_555
K2C O4 1_555 1_555
K2_2 O2E 1_555 1_555
O1E C3E 1_555 1_555
O1G K1 1_555 1_555
O2E K1C 1_555 1_555
O2G K1 1_555 1_555
O2E_2 K2 1_555 1_555
O3E K2M 1_555 1_555
O3M K2 1_555 1_555
O3H K2 1_555 1_555
O4G K1 1_555 1_555
O4C K2 1_555 1_555
N1E C2E 1_555 1_555
C1E C1 1_555 1_555
C2E C1E 1_555 1_555
C3E C2E 1_555 1_555
C4E O2E 1_555 1_555
C5E C4E 1_555 1_555
H1E C5E 1_555 1_555
H2E C5E 1_555 1_555
H3E C5E 1_555 1_555
H4G O4G 1_555 1_555
H4C O4C 1_555 1_555
H5G O4G 1_555 1_555
H5C O4C 1_555 1_555
H6E N1E 1_555 1_555
K2 O4G 1_555 1_555
N1 C4 1_555 1_555
K2C O2G 1_555 1_555
O3E C1E 1_555 1_555
N1E C4E 1_555 1_555

#END
