
#######################################################################
#
#                 Cambridge Crystallographic Data Centre
#                                CCDC 
#
#######################################################################
#
# If this CIF has been generated from an entry in the Cambridge 
# Structural Database, then it will include bibliographic, chemical, 
# crystal, experimental, refinement or atomic coordinate data resulting 
# from the CCDC's data processing and validation procedures.
#
#######################################################################

data_JEHTUM
_symmetry_cell_setting           triclinic
_symmetry_space_group_name_H-M   'P -1'
_symmetry_Int_Tables_number      2
_space_group_name_Hall           '-P 1'
loop_
_symmetry_equiv_pos_site_id
_symmetry_equiv_pos_as_xyz
1 x,y,z
2 -x,-y,-z
_cell_length_a                   7.8106(7)
_cell_length_b                   8.5247(10)
_cell_length_c                   9.6799(10)
_cell_angle_alpha                78.649(9)
_cell_angle_beta                 72.995(8)
_cell_angle_gamma                67.954(9)
_cell_volume                     568.512
loop_
_atom_site_label
_atom_site_type_symbol
_atom_site_fract_x
_atom_site_fract_y
_atom_site_fract_z
Mn1 Mn 0.00000 0.50000 0.50000
S1 S 0.30216(7) 0.46115(6) 0.87088(5)
N1 N 0.08033(19) 0.57419(17) 0.66836(14)
N2 N 0.24624(16) 0.80703(15) 0.13482(12)
N3 N 0.22834(18) 0.90134(16) 0.23966(13)
N4 N 0.10246(16) 0.69459(15) 0.33486(12)
N5 N 0.46644(16) 0.89969(15) -0.32847(12)
N6 N 0.38814(17) 0.83830(16) -0.40485(13)
N7 N 0.70105(16) 0.69003(15) -0.43232(12)
C1 C 0.1705(2) 0.52971(18) 0.75400(16)
C2 C 0.1417(2) 0.82812(19) 0.35761(16)
C3 C 0.17199(19) 0.68473(18) 0.19322(15)
C4 C 0.3495(2) 0.83879(18) -0.01376(15)
C5 C 0.5345(2) 0.71243(19) -0.46468(16)
C6 C 0.65136(19) 0.81086(18) -0.34598(15)
C7 C 0.2302(2) 0.98616(19) -0.09920(15)
C8 C 0.3514(2) 1.04119(18) -0.24025(15)
H1 H 0.115(3) 0.862(2) 0.452(2)
H2 H 0.167(3) 0.608(2) 0.139(2)
H3 H 0.392(3) 0.735(2) -0.059(2)
H4 H 0.462(3) 0.859(2) -0.006(2)
H5 H 0.520(3) 0.647(2) -0.527(2)
H6 H 0.730(3) 0.835(2) -0.303(2)
H7 H 0.138(3) 0.954(2) -0.123(2)
H8 H 0.164(3) 1.080(3) -0.041(2)
H9 H 0.441(3) 1.083(2) -0.2219(19)
H10 H 0.273(3) 1.128(2) -0.299(2)
Mn1_2 Mn 1.00000 0.50000 -0.50000
Mn1_3 Mn -1.00000 0.50000 1.50000
S1A S -0.30216(7) 0.53885(6) 0.12912(5)
N1A N -0.08033(19) 0.42581(17) 0.33164(14)
N2A N -0.24624(16) 0.19297(15) 0.86518(12)
N3A N -0.22834(18) 0.09866(16) 0.76034(13)
N4A N -0.10246(16) 0.30541(15) 0.66514(12)
N5A N -0.46644(16) 0.10031(15) 1.32847(12)
N6A N -0.38814(17) 0.16170(16) 1.40485(13)
N7A N -0.70105(16) 0.30997(15) 1.43232(12)
N7_2 N -0.29895(16) 0.69003(15) 0.56768(12)
N7A_2 N 0.29895(16) 0.30997(15) 0.43232(12)
C1A C -0.1705(2) 0.47029(18) 0.24600(16)
C2A C -0.1417(2) 0.17188(19) 0.64239(16)
C3A C -0.17199(19) 0.31527(18) 0.80678(15)
C4A C -0.3495(2) 0.16121(18) 1.01376(15)
C5A C -0.5345(2) 0.28757(19) 1.46468(16)
C6A C -0.65136(19) 0.18914(18) 1.34598(15)
C7A C -0.2302(2) 0.01384(19) 1.09920(15)
C8A C -0.3514(2) -0.04119(18) 1.24025(15)
H1A H -0.115(3) 0.138(2) 0.548(2)
H2A H -0.167(3) 0.392(2) 0.861(2)
H3A H -0.392(3) 0.265(2) 1.059(2)
H4A H -0.462(3) 0.141(2) 1.006(2)
H5A H -0.520(3) 0.353(2) 1.527(2)
H6A H -0.730(3) 0.165(2) 1.303(2)
H7A H -0.138(3) 0.046(2) 1.123(2)
H8A H -0.164(3) -0.080(3) 1.041(2)
H9A H -0.441(3) -0.083(2) 1.2219(19)
H10A H -0.273(3) -0.128(2) 1.299(2)
loop_
_geom_bond_atom_site_label_1
_geom_bond_atom_site_label_2
_geom_bond_site_symmetry_1
_geom_bond_site_symmetry_2
Mn1 N1 1_555 1_555
S1 C1 1_555 1_555
N1 C1 1_555 1_555
N2 N3 1_555 1_555
N3 C2 1_555 1_555
N4 Mn1 1_555 1_555
N5 N6 1_555 1_555
N6 C5 1_555 1_555
N7 C5 1_555 1_555
C2 N4 1_555 1_555
C3 N2 1_555 1_555
C4 N2 1_555 1_555
C5 H5 1_555 1_555
C6 N5 1_555 1_555
C7 C4 1_555 1_555
C8 N5 1_555 1_555
H1 C2 1_555 1_555
H2 C3 1_555 1_555
H3 C4 1_555 1_555
H4 C4 1_555 1_555
H6 C6 1_555 1_555
H7 C7 1_555 1_555
H8 C7 1_555 1_555
H9 C8 1_555 1_555
H10 C8 1_555 1_555
Mn1_2 N7 1_555 1_555
Mn1_3 N7A 1_555 1_555
S1A C1A 1_555 1_555
N1A Mn1 1_555 1_555
N2A N3A 1_555 1_555
N3A C2A 1_555 1_555
N4A Mn1 1_555 1_555
N5A N6A 1_555 1_555
N6A C5A 1_555 1_555
N7A C5A 1_555 1_555
N7_2 Mn1 1_555 1_555
N7A_2 Mn1 1_555 1_555
C1A N1A 1_555 1_555
C2A N4A 1_555 1_555
C3A N2A 1_555 1_555
C4A N2A 1_555 1_555
C5A H5A 1_555 1_555
C6A N5A 1_555 1_555
C7A C4A 1_555 1_555
C8A N5A 1_555 1_555
H1A C2A 1_555 1_555
H2A C3A 1_555 1_555
H3A C4A 1_555 1_555
H4A C4A 1_555 1_555
H6A C6A 1_555 1_555
H7A C7A 1_555 1_555
H8A C7A 1_555 1_555
H9A C8A 1_555 1_555
H10A C8A 1_555 1_555
N4 C3 1_555 1_555
N7 C6 1_555 1_555
C7 C8 1_555 1_555
N4A C3A 1_555 1_555
N7A C6A 1_555 1_555
C7A C8A 1_555 1_555

#END
