
#######################################################################
#
#                 Cambridge Crystallographic Data Centre
#                                CCDC 
#
#######################################################################
#
# If this CIF has been generated from an entry in the Cambridge 
# Structural Database, then it will include bibliographic, chemical, 
# crystal, experimental, refinement or atomic coordinate data resulting 
# from the CCDC's data processing and validation procedures.
#
#######################################################################

data_JEHVAU01
_symmetry_cell_setting           orthorhombic
_symmetry_space_group_name_H-M   'C m c m'
_symmetry_Int_Tables_number      63
_space_group_name_Hall           '-C 2n 2'
loop_
_symmetry_equiv_pos_site_id
_symmetry_equiv_pos_as_xyz
1 x,y,z
2 -x,-y,1/2+z
3 x,-y,-z
4 -x,y,1/2-z
5 1/2+x,1/2+y,z
6 1/2-x,1/2-y,1/2+z
7 1/2+x,1/2-y,-z
8 1/2-x,1/2+y,1/2-z
9 -x,-y,-z
10 x,y,1/2-z
11 -x,y,z
12 x,-y,1/2+z
13 1/2-x,1/2-y,-z
14 1/2+x,1/2+y,1/2-z
15 1/2-x,1/2+y,z
16 1/2+x,1/2-y,1/2+z
_cell_length_a                   12.720(3)
_cell_length_b                   9.5380(19)
_cell_length_c                   17.692(3)
_cell_angle_alpha                90
_cell_angle_beta                 90
_cell_angle_gamma                90
_cell_volume                     2146.45
loop_
_atom_site_label
_atom_site_type_symbol
_atom_site_fract_x
_atom_site_fract_y
_atom_site_fract_z
Fe1 Fe 0.0000 0.0000 0.0000
S1 S 0.0000 0.46536(16) -0.11755(11)
N1 N 0.0000 0.2057(4) -0.0463(3)
N2 N 0.1179(2) 0.0664(3) 0.08277(17)
N3 N 0.2158(3) 0.2043(3) 0.1573(2)
N4 N 0.2158(2) 0.0700(3) 0.18248(16)
C1 C 0.0000 0.3134(5) -0.0746(3)
C2 C 0.1572(3) -0.0090(4) 0.1382(2)
H1 H 0.1453 -0.1043 0.1452
C3 C 0.1564(4) 0.1956(4) 0.0975(2)
H2 H 0.1416 0.2727 0.0671
C4 C 0.2726(4) 0.0310(5) 0.2500
H3 H 0.2842 -0.0695 0.2500
H4 H 0.3407 0.0767 0.2500
N2I N 0.1179(2) 0.0664(3) 0.41723(17)
N3I N 0.2158(3) 0.2043(3) 0.3427(2)
N4I N 0.2158(2) 0.0700(3) 0.31752(16)
C2I C 0.1572(3) -0.0090(4) 0.3618(2)
H1I H 0.1453 -0.1043 0.3548
C3I C 0.1564(4) 0.1956(4) 0.4025(2)
H2I H 0.1416 0.2727 0.4329
S1B S 0.0000 -0.46536(16) 0.11755(11)
N1B N 0.0000 -0.2057(4) 0.0463(3)
C1B C 0.0000 -0.3134(5) 0.0746(3)
N2J N -0.1179(2) 0.0664(3) 0.08277(17)
N3J N -0.2158(3) 0.2043(3) 0.1573(2)
N4J N -0.2158(2) 0.0700(3) 0.18248(16)
C2J C -0.1572(3) -0.0090(4) 0.1382(2)
H1J H -0.1453 -0.1043 0.1452
C3J C -0.1564(4) 0.1956(4) 0.0975(2)
H2J H -0.1416 0.2727 0.0671
C4C C -0.2726(4) 0.0310(5) 0.2500
H3C H -0.2842 -0.0695 0.2500
H4C H -0.3407 0.0767 0.2500
N2C N -0.1179(2) 0.0664(3) 0.41723(17)
N3C N -0.2158(3) 0.2043(3) 0.3427(2)
N4C N -0.2158(2) 0.0700(3) 0.31752(16)
C2C C -0.1572(3) -0.0090(4) 0.3618(2)
H1C H -0.1453 -0.1043 0.3548
C3C C -0.1564(4) 0.1956(4) 0.4025(2)
H2C H -0.1416 0.2727 0.4329
Fe1A Fe 0.0000 0.0000 0.5000
N2B N 0.1179(2) -0.0664(3) -0.08277(17)
N2H N -0.1179(2) -0.0664(3) -0.08277(17)
O1 O 0.0000 0.2154(10) 0.7500
H5 H 0.0000 0.3(3) 0.78(14)
H5C H 0.0000 0.3(3) 0.72(14)
loop_
_geom_bond_atom_site_label_1
_geom_bond_atom_site_label_2
_geom_bond_site_symmetry_1
_geom_bond_site_symmetry_2
Fe1 N1 1_555 1_555
S1 C1 1_555 1_555
N1 C1 1_555 1_555
N2 Fe1 1_555 1_555
N3 N4 1_555 1_555
N4 C2 1_555 1_555
C2 N2 1_555 1_555
H1 C2 1_555 1_555
C3 N2 1_555 1_555
H2 C3 1_555 1_555
C4 N4 1_555 1_555
H3 C4 1_555 1_555
H4 C4 1_555 1_555
O1 H5 1_555 1_555
N2I C2I 1_555 1_555
N3I N4I 1_555 1_555
N4I C4 1_555 1_555
C2I N4I 1_555 1_555
H1I C2I 1_555 1_555
C3I N2I 1_555 1_555
H2I C3I 1_555 1_555
S1B C1B 1_555 1_555
N1B Fe1 1_555 1_555
C1B N1B 1_555 1_555
N2J Fe1 1_555 1_555
N3J N4J 1_555 1_555
N4J C2J 1_555 1_555
C2J N2J 1_555 1_555
H1J C2J 1_555 1_555
C3J N2J 1_555 1_555
H2J C3J 1_555 1_555
C4C N4J 1_555 1_555
H3C C4C 1_555 1_555
H4C C4C 1_555 1_555
N2C C2C 1_555 1_555
N3C N4C 1_555 1_555
N4C C4C 1_555 1_555
C2C N4C 1_555 1_555
H1C C2C 1_555 1_555
C3C N2C 1_555 1_555
H2C C3C 1_555 1_555
Fe1A N2I 1_555 1_555
N2B Fe1 1_555 1_555
N2H Fe1 1_555 1_555
H5C O1 1_555 1_555
N3 C3 1_555 1_555
N3I C3I 1_555 1_555
N3J C3J 1_555 1_555
N2C Fe1A 1_555 1_555
N3C C3C 1_555 1_555

#END
