
#######################################################################
#
#                 Cambridge Crystallographic Data Centre
#                                CCDC 
#
#######################################################################
#
# If this CIF has been generated from an entry in the Cambridge 
# Structural Database, then it will include bibliographic, chemical, 
# crystal, experimental, refinement or atomic coordinate data resulting 
# from the CCDC's data processing and validation procedures.
#
#######################################################################

data_JEHWOJ
_symmetry_cell_setting           monoclinic
_symmetry_space_group_name_H-M   'C 2/c'
_symmetry_Int_Tables_number      15
_space_group_name_Hall           '-C 2yn'
loop_
_symmetry_equiv_pos_site_id
_symmetry_equiv_pos_as_xyz
1 x,y,z
2 1/2+x,1/2+y,z
3 -x,y,1/2-z
4 1/2-x,1/2+y,1/2-z
5 -x,-y,-z
6 1/2-x,1/2-y,-z
7 x,-y,1/2+z
8 1/2+x,1/2-y,1/2+z
_cell_length_a                   29.055(4)
_cell_length_b                   3.7258(5)
_cell_length_c                   22.972(3)
_cell_angle_alpha                90
_cell_angle_beta                 127.782(2)
_cell_angle_gamma                90
_cell_volume                     1965.43
loop_
_atom_site_label
_atom_site_type_symbol
_atom_site_fract_x
_atom_site_fract_y
_atom_site_fract_z
Ag1 Ag 0.0000 -0.4103(2) 0.2500
C1 C 0.1074(3) -0.8713(19) 0.2886(4)
C2 C 0.1589(3) -0.9732(19) 0.3602(4)
C3 C 0.2148(3) -0.936(2) 0.3829(4)
H1 H 0.2471 -1.0162 0.4302
C4 C 0.2231(3) -0.7775(19) 0.3350(4)
C5 C 0.1767(3) -0.664(2) 0.2653(4)
H2 H 0.1831 -0.5583 0.2332
C6 C 0.1207(3) -0.709(2) 0.2432(4)
N1 N 0.1528(3) -1.1184(17) 0.4139(3)
N2 N 0.2822(3) -0.7435(18) 0.3585(4)
N3 N 0.0742(3) -0.570(2) 0.1702(4)
O1 O 0.0568(2) -0.9133(16) 0.2690(4)
O2 O 0.1107(3) -1.3087(19) 0.3929(3)
O3 O 0.1910(2) -1.0447(18) 0.4791(3)
O4 O 0.3213(2) -0.894(2) 0.4164(3)
O5 O 0.2900(3) -0.5617(19) 0.3206(4)
O6 O 0.0861(3) -0.463(3) 0.1305(4)
O7 O 0.0246(3) -0.567(3) 0.1492(4)
Ag1_2 Ag 0.0000 -1.4103(2) 0.2500
Ag1_3 Ag 0.0000 0.5897(2) 0.2500
C1_2 C 0.1074(3) 0.1287(19) 0.2886(4)
C2_2 C 0.1589(3) 0.0268(19) 0.3602(4)
C3_2 C 0.2148(3) 0.064(2) 0.3829(4)
H1_2 H 0.2471 -0.0162 0.4302
C4_2 C 0.2231(3) 0.2225(19) 0.3350(4)
C5_2 C 0.1767(3) 0.336(2) 0.2653(4)
H2_2 H 0.1831 0.4417 0.2332
C6_2 C 0.1207(3) 0.291(2) 0.2432(4)
N1_2 N 0.1528(3) -0.1184(17) 0.4139(3)
N2_2 N 0.2822(3) 0.2565(18) 0.3585(4)
N3_2 N 0.0742(3) 0.430(2) 0.1702(4)
O1_2 O 0.0568(2) 0.0867(16) 0.2690(4)
O1B O -0.0568(2) -0.9133(16) 0.2310(4)
O1B_2 O -0.0568(2) 0.0867(16) 0.2310(4)
O2_2 O 0.1107(3) -0.3087(19) 0.3929(3)
O3_2 O 0.1910(2) -0.0447(18) 0.4791(3)
O4_2 O 0.3213(2) 0.106(2) 0.4164(3)
O5_2 O 0.2900(3) 0.4383(19) 0.3206(4)
O6_2 O 0.0861(3) 0.537(3) 0.1305(4)
O7_2 O 0.0246(3) 0.433(3) 0.1492(4)
Ag2 Ag 0.0000 0.0000 0.0000
N4 N 0.0688(5) 0.084(3) -0.0063(8)
H3 H 0.1033 0.0300 0.0378
H4 H 0.0691 0.3183 -0.0174
H5 H 0.0637 -0.0589 -0.0419
N4D N -0.0688(5) -0.084(3) 0.0063(8)
H3D H -0.1033 -0.0300 -0.0378
H4D H -0.0691 -0.3183 0.0174
H5D H -0.0637 0.0589 0.0419
loop_
_geom_bond_atom_site_label_1
_geom_bond_atom_site_label_2
_geom_bond_site_symmetry_1
_geom_bond_site_symmetry_2
Ag1 O1 1_555 1_555
Ag2 N4 1_555 1_555
C1 C2 1_555 1_555
C2 C3 1_555 1_555
C3 H1 1_555 1_555
C4 C3 1_555 1_555
C5 C4 1_555 1_555
H2 C5 1_555 1_555
C6 C1 1_555 1_555
N1 C2 1_555 1_555
N2 C4 1_555 1_555
N3 C6 1_555 1_555
N4 H3 1_555 1_555
H4 N4 1_555 1_555
H5 N4 1_555 1_555
O1 C1 1_555 1_555
O2 N1 1_555 1_555
O3 N1 1_555 1_555
O4 N2 1_555 1_555
O5 N2 1_555 1_555
O6 N3 1_555 1_555
O7 N3 1_555 1_555
Ag1_2 O1 1_555 1_555
Ag1_3 O1_2 1_555 1_555
C1_2 C2_2 1_555 1_555
C2_2 C3_2 1_555 1_555
C3_2 H1_2 1_555 1_555
C4_2 C3_2 1_555 1_555
C5_2 C4_2 1_555 1_555
H2_2 C5_2 1_555 1_555
C6_2 C1_2 1_555 1_555
N1_2 C2_2 1_555 1_555
N2_2 C4_2 1_555 1_555
N3_2 C6_2 1_555 1_555
N4D Ag2 1_555 1_555
H3D N4D 1_555 1_555
H4D N4D 1_555 1_555
H5D N4D 1_555 1_555
O1_2 Ag1 1_555 1_555
O1B Ag1 1_555 1_555
O1B_2 Ag1 1_555 1_555
O2_2 N1_2 1_555 1_555
O3_2 N1_2 1_555 1_555
O4_2 N2_2 1_555 1_555
O5_2 N2_2 1_555 1_555
O6_2 N3_2 1_555 1_555
O7_2 N3_2 1_555 1_555
C5 C6 1_555 1_555
Ag1_2 O1B 1_555 1_555
Ag1_3 O1B_2 1_555 1_555
C1_2 O1_2 1_555 1_555
C5_2 C6_2 1_555 1_555

#END
