
#######################################################################
#
#                 Cambridge Crystallographic Data Centre
#                                CCDC 
#
#######################################################################
#
# If this CIF has been generated from an entry in the Cambridge 
# Structural Database, then it will include bibliographic, chemical, 
# crystal, experimental, refinement or atomic coordinate data resulting 
# from the CCDC's data processing and validation procedures.
#
#######################################################################

data_JEJGUA
_symmetry_cell_setting           monoclinic
_symmetry_space_group_name_H-M   'P 21/n'
_symmetry_Int_Tables_number      14
_space_group_name_Hall           '-P 2yn'
loop_
_symmetry_equiv_pos_site_id
_symmetry_equiv_pos_as_xyz
1 x,y,z
2 1/2-x,1/2+y,1/2-z
3 -x,-y,-z
4 1/2+x,1/2-y,1/2+z
_cell_length_a                   9.196(4)
_cell_length_b                   15.118(5)
_cell_length_c                   14.326(5)
_cell_angle_alpha                90
_cell_angle_beta                 101.02(3)
_cell_angle_gamma                90
_cell_volume                     1954.95
loop_
_atom_site_label
_atom_site_type_symbol
_atom_site_fract_x
_atom_site_fract_y
_atom_site_fract_z
Hg1 Hg -0.6313(1) -0.3612(1) -0.5598(1)
Hg2 Hg -0.5000 0.0000 -0.5000
Er1 Er -0.3788(1) -0.2528(1) -0.3080(1)
N1 N -0.7578(7) -0.3437(4) -0.4601(4)
C1 C -0.7372(8) -0.3024(5) -0.3794(5)
O1 O -0.6272(6) -0.2630(4) -0.3326(4)
C2 C -0.8890(9) -0.3241(7) -0.3575(6)
C3 C -0.9091(9) -0.3730(6) -0.4529(7)
N2 N -0.0174(7) -0.1182(5) -0.1648(5)
C4 C -0.0625(10) -0.1318(5) -0.2588(7)
O2 O -0.1726(6) -0.1678(4) -0.3050(4)
C5 C 0.0691(9) -0.0834(7) -0.2865(7)
C6 C 0.1200(9) -0.0675(7) -0.1761(6)
N3 N -0.3595(8) -0.0916(5) -0.5360(5)
C7 C -0.3416(9) -0.1746(5) -0.5147(6)
O3 O -0.4042(7) -0.2262(4) -0.4667(4)
C8 C -0.2110(13) -0.1854(7) -0.5643(9)
C9 C -0.2341(12) -0.0875(7) -0.5864(7)
O4 O -0.4238(6) -0.3962(4) -0.3889(5)
N4 N -0.2903(8) -0.4076(5) -0.3992(5)
O5 O -0.2550(8) -0.4652(5) -0.4476(6)
O6 O -0.2017(7) -0.3536(5) -0.3545(6)
O7 O -0.4737(7) -0.0995(4) -0.3273(4)
N5 N -0.4850(8) -0.0910(5) -0.2410(5)
O8 O -0.5414(10) -0.0284(5) -0.2125(6)
O9 O -0.4267(7) -0.1533(4) -0.1874(4)
O10 O -0.2153(7) -0.3026(4) -0.1617(5)
N6 N -0.3086(9) -0.3524(5) -0.1328(6)
O11 O -0.2787(10) -0.3944(6) -0.0588(6)
O12 O -0.4355(8) -0.3555(5) -0.1878(5)
H1 H -0.9535 -0.2745 -0.3556
H2 H -0.8886 -0.3607 -0.3027
H3 H -0.9204 -0.4359 -0.4485
H4 H -0.9864 -0.3499 -0.5013
H5 H 0.0445 -0.0310 -0.3239
H6 H 0.1342 -0.1198 -0.3151
H7 H 0.2119 -0.0951 -0.1480
H8 H 0.1215 -0.0066 -0.1567
H9 H -0.2274 -0.2239 -0.6186
H10 H -0.1187 -0.2003 -0.5236
H11 H -0.1539 -0.0500 -0.5571
H12 H -0.2608 -0.0736 -0.6528
N3B N -0.6405(8) 0.0916(5) -0.4640(5)
N2C N -0.5174(7) -0.3818(5) -0.6648(5)
C7B C -0.6584(9) 0.1746(5) -0.4853(6)
C9B C -0.7659(12) 0.0875(7) -0.4136(7)
Hg1C Hg -0.1313(1) -0.1388(1) -0.0598(1)
O3B O -0.5958(7) 0.2262(4) -0.5333(4)
C8B C -0.7890(13) 0.1854(7) -0.4357(9)
H11B H -0.8461 0.0500 -0.4429
H12B H -0.7392 0.0736 -0.3472
Er1B Er -0.6212(1) 0.2528(1) -0.6920(1)
H9B H -0.7726 0.2239 -0.3814
H10B H -0.8813 0.2003 -0.4764
O1B O -0.3728(6) 0.2630(4) -0.6674(4)
O2B O -0.8274(6) 0.1678(4) -0.6950(4)
O4B O -0.5762(6) 0.3962(4) -0.6111(5)
O6B O -0.7983(7) 0.3536(5) -0.6455(6)
O7B O -0.5263(7) 0.0995(4) -0.6727(4)
O9B O -0.5733(7) 0.1533(4) -0.8126(4)
O10B O -0.7847(7) 0.3026(4) -0.8383(5)
O12B O -0.5645(8) 0.3555(5) -0.8122(5)
C1B C -0.2628(8) 0.3024(5) -0.6206(5)
C4B C -0.9375(10) 0.1318(5) -0.7412(7)
N4B N -0.7097(8) 0.4076(5) -0.6008(5)
N5B N -0.5150(8) 0.0910(5) -0.7590(5)
N6B N -0.6914(9) 0.3524(5) -0.8672(6)
N1B N -0.2422(7) 0.3437(4) -0.5399(4)
C2B C -0.1110(9) 0.3241(7) -0.6425(6)
N2B N -0.9826(7) 0.1182(5) -0.8352(5)
C5B C -1.0691(9) 0.0834(7) -0.7135(7)
O5B O -0.7450(8) 0.4652(5) -0.5524(6)
O8B O -0.4586(10) 0.0284(5) -0.7875(6)
O11B O -0.7213(10) 0.3944(6) -0.9412(6)
Hg1B Hg -0.3687(1) 0.3612(1) -0.4402(1)
C3B C -0.0909(9) 0.3730(6) -0.5471(7)
H1B H -0.0465 0.2745 -0.6444
H2B H -0.1114 0.3607 -0.6973
Hg1A Hg -0.8687(1) 0.1388(1) -0.9402(1)
C6B C -1.1200(9) 0.0675(7) -0.8239(6)
H5B H -1.0445 0.0310 -0.6761
H6B H -1.1342 0.1198 -0.6849
N2A N -0.4826(7) 0.3818(5) -0.3352(5)
H3B H -0.0796 0.4359 -0.5515
H4B H -0.0136 0.3499 -0.4987
H7B H -1.2119 0.0951 -0.8520
H8B H -1.1215 0.0066 -0.8433
loop_
_geom_bond_atom_site_label_1
_geom_bond_atom_site_label_2
_geom_bond_site_symmetry_1
_geom_bond_site_symmetry_2
Hg1 N1 1_555 1_555
Hg2 N3 1_555 1_555
Er1 O1 1_555 1_555
N1 C1 1_555 1_555
C1 O1 1_555 1_555
C2 C1 1_555 1_555
C3 N1 1_555 1_555
N2 C4 1_555 1_555
C4 O2 1_555 1_555
O2 Er1 1_555 1_555
C5 C4 1_555 1_555
C6 N2 1_555 1_555
N3 C7 1_555 1_555
C7 O3 1_555 1_555
O3 Er1 1_555 1_555
C8 C7 1_555 1_555
C9 N3 1_555 1_555
O4 Er1 1_555 1_555
N4 O4 1_555 1_555
O5 N4 1_555 1_555
O6 Er1 1_555 1_555
O7 Er1 1_555 1_555
N5 O7 1_555 1_555
O8 N5 1_555 1_555
O9 Er1 1_555 1_555
O10 Er1 1_555 1_555
N6 O10 1_555 1_555
O11 N6 1_555 1_555
O12 Er1 1_555 1_555
H1 C2 1_555 1_555
H2 C2 1_555 1_555
H3 C3 1_555 1_555
H4 C3 1_555 1_555
H5 C5 1_555 1_555
H6 C5 1_555 1_555
H7 C6 1_555 1_555
H8 C6 1_555 1_555
H9 C8 1_555 1_555
H10 C8 1_555 1_555
H11 C9 1_555 1_555
H12 C9 1_555 1_555
N3B Hg2 1_555 1_555
N2C Hg1 1_555 1_555
C7B N3B 1_555 1_555
C9B N3B 1_555 1_555
Hg1C N2 1_555 1_555
O3B C7B 1_555 1_555
C8B C7B 1_555 1_555
H11B C9B 1_555 1_555
H12B C9B 1_555 1_555
Er1B O3B 1_555 1_555
H9B C8B 1_555 1_555
H10B C8B 1_555 1_555
O1B Er1B 1_555 1_555
O2B Er1B 1_555 1_555
O4B Er1B 1_555 1_555
O6B Er1B 1_555 1_555
O7B Er1B 1_555 1_555
O9B Er1B 1_555 1_555
O10B Er1B 1_555 1_555
O12B Er1B 1_555 1_555
C1B O1B 1_555 1_555
C4B O2B 1_555 1_555
N4B O4B 1_555 1_555
N5B O7B 1_555 1_555
N6B O10B 1_555 1_555
N1B C1B 1_555 1_555
C2B C1B 1_555 1_555
N2B C4B 1_555 1_555
C5B C4B 1_555 1_555
O5B N4B 1_555 1_555
O8B N5B 1_555 1_555
O11B N6B 1_555 1_555
Hg1B N1B 1_555 1_555
C3B N1B 1_555 1_555
H1B C2B 1_555 1_555
H2B C2B 1_555 1_555
Hg1A N2B 1_555 1_555
C6B N2B 1_555 1_555
H5B C5B 1_555 1_555
H6B C5B 1_555 1_555
N2A Hg1B 1_555 1_555
H3B C3B 1_555 1_555
H4B C3B 1_555 1_555
H7B C6B 1_555 1_555
H8B C6B 1_555 1_555
C2 C3 1_555 1_555
C5 C6 1_555 1_555
C8 C9 1_555 1_555
N4 O6 1_555 1_555
N5 O9 1_555 1_555
N6 O12 1_555 1_555
C9B C8B 1_555 1_555
O6B N4B 1_555 1_555
O9B N5B 1_555 1_555
O12B N6B 1_555 1_555
C2B C3B 1_555 1_555
C5B C6B 1_555 1_555

#END
