
#######################################################################
#
#                 Cambridge Crystallographic Data Centre
#                                CCDC 
#
#######################################################################
#
# If this CIF has been generated from an entry in the Cambridge 
# Structural Database, then it will include bibliographic, chemical, 
# crystal, experimental, refinement or atomic coordinate data resulting 
# from the CCDC's data processing and validation procedures.
#
#######################################################################

data_JEJKOZ
_symmetry_cell_setting           triclinic
_symmetry_space_group_name_H-M   'P -1'
_symmetry_Int_Tables_number      2
_space_group_name_Hall           '-P 1'
loop_
_symmetry_equiv_pos_site_id
_symmetry_equiv_pos_as_xyz
1 x,y,z
2 -x,-y,-z
_cell_length_a                   10.640(2)
_cell_length_b                   10.691(2)
_cell_length_c                   14.494(3)
_cell_angle_alpha                103.37(3)
_cell_angle_beta                 99.88(3)
_cell_angle_gamma                115.51(3)
_cell_volume                     1376.89
loop_
_atom_site_label
_atom_site_type_symbol
_atom_site_fract_x
_atom_site_fract_y
_atom_site_fract_z
O3 O -0.0670(5) 0.1189(5) -0.5616(4)
O4 O -1.0279(15) -0.0354(17) -0.7201(9)
I1 I -1.0000 0.0000 -1.0000
Mo1 Mo -0.67254(3) 0.15329(3) -0.83843(2)
Mo2 Mo -0.86462(3) -0.21093(3) -0.94259(2)
Mo3 Mo -1.19493(4) -0.36566(4) -1.10629(2)
Ce1 Ce -0.55953(2) 0.21685(2) -0.531243(13)
O5 O -0.9171(3) -0.0199(3) -0.88182(18)
O6 O -1.1902(3) -0.1469(3) -1.01675(18)
O7 O -1.0289(3) 0.1536(3) -0.93033(18)
O8 O -0.7405(3) 0.2891(3) -0.79787(18)
O9 O -0.6960(3) -0.0265(3) -0.92704(18)
O10 O -1.0730(3) -0.3332(3) -0.97781(19)
O11 O -0.5133(3) 0.2625(3) -0.8557(2)
O12 O -0.6305(3) 0.1323(3) -0.72415(19)
O13 O -0.8196(3) -0.2185(3) -0.8260(2)
O14 O -0.8200(4) -0.3214(4) -1.0186(2)
O15 O -1.3548(4) -0.4759(4) -1.0916(3)
O16 O -1.1548(5) -0.4768(4) -1.1857(2)
O17 O -0.3880(3) 0.4137(3) -0.5853(2)
O18 O -0.4653(3) 0.5749(3) -0.5983(2)
O19 O -0.5460(3) 0.1296(3) -0.3877(2)
O20 O -0.5920(3) -0.1031(3) -0.4297(2)
C1 C -0.1365(5) 0.5380(6) -0.7731(3)
H1 H -0.0638 0.5138 -0.7802
C2 C -0.2038(5) 0.5092(5) -0.7008(3)
H2 H -0.1791 0.4624 -0.6600
C3 C -0.3089(4) 0.5512(4) -0.6901(3)
C4 C -0.3426(5) 0.6213(6) -0.7502(4)
H3 H -0.4095 0.6538 -0.7420
C5 C -0.2767(6) 0.6427(7) -0.8222(4)
H4 H -0.3013 0.6870 -0.8650
C6 C -0.3934(4) 0.5098(4) -0.6173(3)
C7 C -0.6862(6) -0.1150(6) -0.1646(4)
H5 H -0.7421 -0.2030 -0.1550
C8 C -0.6677(6) -0.1169(5) -0.2564(3)
H6 H -0.7105 -0.2054 -0.3094
C9 C -0.5841(4) 0.0154(4) -0.2681(3)
C10 C -0.5173(5) 0.1446(5) -0.1886(3)
H7 H -0.4582 0.2335 -0.1960
C11 C -0.5381(5) 0.1423(6) -0.0977(3)
H8 H -0.4933 0.2291 -0.0430
C12 C -0.5716(4) 0.0138(4) -0.3713(3)
N2 N -0.1775(5) 0.6004(5) -0.8313(3)
H9 H -0.1380 0.6146 -0.8777
N3 N -0.6243(5) 0.0124(5) -0.0895(3)
H10 H -0.6401 0.0115 -0.0334
O21 O -0.2948(4) 0.3635(4) -0.4028(2)
O22 O -0.8002(4) 0.1273(4) -0.4917(3)
O23 O -0.7264(4) -0.0695(4) -0.6150(2)
O24 O -0.7249(3) 0.3126(3) -0.6041(2)
Mo1A Mo -1.32746(3) -0.15329(3) -1.16157(2)
Mo2A Mo -1.13538(3) 0.21093(3) -1.05741(2)
Mo3A Mo -0.80507(4) 0.36566(4) -0.89371(2)
Ce1A Ce -1.44047(2) -0.21685(2) -1.468757(13)
Ce1A_2 Ce -0.44047(2) 0.78315(2) -0.468757(13)
Ce1A_3 Ce -0.44047(2) -0.21685(2) -0.468757(13)
O5A O -1.0829(3) 0.0199(3) -1.11818(18)
O6A O -0.8098(3) 0.1469(3) -0.98325(18)
O7A O -0.9711(3) -0.1536(3) -1.06967(18)
O8A O -1.2595(3) -0.2891(3) -1.20213(18)
O9A O -1.3040(3) 0.0265(3) -1.07296(18)
O10A O -0.9270(3) 0.3332(3) -1.02219(19)
O11A O -1.4867(3) -0.2625(3) -1.1443(2)
O12A O -1.3695(3) -0.1323(3) -1.27585(19)
O13A O -1.1804(3) 0.2185(3) -1.1740(2)
O14A O -1.1800(4) 0.3214(4) -0.9814(2)
O15A O -0.6452(4) 0.4759(4) -0.9084(3)
O16A O -0.8452(5) 0.4768(4) -0.8143(2)
O17A O -0.6120(3) 0.5863(3) -0.4147(2)
O17A_2 O -1.6120(3) -0.4137(3) -1.4147(2)
O18A O -0.5347(3) 0.4251(3) -0.4017(2)
O18_2 O -1.4653(3) -0.4251(3) -1.5983(2)
O19A O -0.4540(3) -0.1296(3) -0.6123(2)
O19A_2 O -1.4540(3) -0.1296(3) -1.6123(2)
O20A O -0.4080(3) 0.1031(3) -0.5703(2)
O20_2 O -1.5920(3) -0.1031(3) -1.4297(2)
C1A C -0.8635(5) 0.4620(6) -0.2269(3)
H1A H -0.9362 0.4862 -0.2198
C2A C -0.7962(5) 0.4908(5) -0.2992(3)
H2A H -0.8209 0.5376 -0.3400
C3A C -0.6911(4) 0.4488(4) -0.3099(3)
C4A C -0.6574(5) 0.3787(6) -0.2498(4)
H3A H -0.5905 0.3462 -0.2580
C5A C -0.7233(6) 0.3573(7) -0.1778(4)
H4A H -0.6987 0.3130 -0.1350
C6A C -0.6066(4) 0.4902(4) -0.3827(3)
C7A C -0.3138(6) 0.1150(6) -0.8354(4)
H5A H -0.2579 0.2030 -0.8450
C8A C -0.3323(6) 0.1169(5) -0.7436(3)
H6A H -0.2895 0.2054 -0.6906
C9A C -0.4159(4) -0.0154(4) -0.7319(3)
C10A C -0.4827(5) -0.1446(5) -0.8114(3)
H7A H -0.5418 -0.2335 -0.8040
C11A C -0.4619(5) -0.1423(6) -0.9023(3)
H8A H -0.5067 -0.2291 -0.9570
C12A C -0.4284(4) -0.0138(4) -0.6287(3)
N2A N -0.8225(5) 0.3996(5) -0.1687(3)
H9A H -0.8620 0.3854 -0.1223
N3A N -0.3757(5) -0.0124(5) -0.9105(3)
H10A H -0.3599 -0.0115 -0.9666
O21A O -1.7052(4) -0.3635(4) -1.5972(2)
O22A O -1.1998(4) -0.1273(4) -1.5083(3)
O23A O -1.2736(4) 0.0695(4) -1.3850(2)
O24A O -1.2751(3) -0.3126(3) -1.3959(2)
O1 O -0.074(2) 0.3860(16) -0.5281(14)
O2 O -0.0802(14) 0.3798(15) -0.4844(10)
N1 N 0.0000 0.5000 -0.5000
O1A O 0.074(2) 0.6140(16) -0.4719(14)
O2A O 0.0802(14) 0.6202(15) -0.5156(10)
O25? O 0.0305(12) 0.4308(13) -0.5829(9)
O26? O -1.0608(13) 0.0540(17) -0.7518(8)
loop_
_geom_bond_atom_site_label_1
_geom_bond_atom_site_label_2
_geom_bond_site_symmetry_1
_geom_bond_site_symmetry_2
O1 O2 1_555 1_555
O2 N1 1_555 1_555
N1 O1 1_555 1_555
I1 O5 1_555 1_555
Mo1 O5 1_555 1_555
Mo2 O5 1_555 1_555
Mo3 O6 1_555 1_555
Ce1 O12 1_555 1_555
O6 I1 1_555 1_555
O7 I1 1_555 1_555
O8 Mo1 1_555 1_555
O9 Mo1 1_555 1_555
O10 Mo2 1_555 1_555
O11 Mo1 1_555 1_555
O12 Mo1 1_555 1_555
O13 Mo2 1_555 1_555
O14 Mo2 1_555 1_555
O15 Mo3 1_555 1_555
O16 Mo3 1_555 1_555
O17 Ce1 1_555 1_555
O18 C6 1_555 1_555
O19 Ce1 1_555 1_555
O20 C12 1_555 1_555
C1 H1 1_555 1_555
C2 C1 1_555 1_555
H2 C2 1_555 1_555
C3 C2 1_555 1_555
C4 C3 1_555 1_555
H3 C4 1_555 1_555
C5 C4 1_555 1_555
H4 C5 1_555 1_555
C6 O17 1_555 1_555
C7 H5 1_555 1_555
C8 C7 1_555 1_555
H6 C8 1_555 1_555
C9 C8 1_555 1_555
C10 C9 1_555 1_555
H7 C10 1_555 1_555
C11 C10 1_555 1_555
H8 C11 1_555 1_555
C12 O19 1_555 1_555
N2 C1 1_555 1_555
H9 N2 1_555 1_555
N3 C7 1_555 1_555
H10 N3 1_555 1_555
O21 Ce1 1_555 1_555
O22 Ce1 1_555 1_555
O23 Ce1 1_555 1_555
O24 Ce1 1_555 1_555
O1A N1 1_555 1_555
O2A N1 1_555 1_555
Mo1A O6 1_555 1_555
Mo2A O7 1_555 1_555
Mo3A O7 1_555 1_555
Ce1A O12A 1_555 1_555
Ce1A_2 O18 1_555 1_555
Ce1A_3 O20 1_555 1_555
O5A I1 1_555 1_555
O6A I1 1_555 1_555
O7A I1 1_555 1_555
O8A Mo3 1_555 1_555
O9A Mo1A 1_555 1_555
O10A Mo2A 1_555 1_555
O11A Mo1A 1_555 1_555
O12A Mo1A 1_555 1_555
O13A Mo2A 1_555 1_555
O14A Mo2A 1_555 1_555
O15A Mo3A 1_555 1_555
O16A Mo3A 1_555 1_555
O17A Ce1A_2 1_555 1_555
O17A_2 Ce1A 1_555 1_555
O18A Ce1 1_555 1_555
O18_2 Ce1A 1_555 1_555
O19A Ce1A_3 1_555 1_555
O19A_2 Ce1A 1_555 1_555
O20A Ce1 1_555 1_555
O20_2 Ce1A 1_555 1_555
C1A H1A 1_555 1_555
C2A C1A 1_555 1_555
H2A C2A 1_555 1_555
C3A C2A 1_555 1_555
C4A C3A 1_555 1_555
H3A C4A 1_555 1_555
C5A C4A 1_555 1_555
H4A C5A 1_555 1_555
C6A O17A 1_555 1_555
C7A H5A 1_555 1_555
C8A C7A 1_555 1_555
H6A C8A 1_555 1_555
C9A C8A 1_555 1_555
C10A C9A 1_555 1_555
H7A C10A 1_555 1_555
C11A C10A 1_555 1_555
H8A C11A 1_555 1_555
C12A O19A 1_555 1_555
N2A C1A 1_555 1_555
H9A N2A 1_555 1_555
N3A C7A 1_555 1_555
H10A N3A 1_555 1_555
O21A Ce1A 1_555 1_555
O22A Ce1A 1_555 1_555
O23A Ce1A 1_555 1_555
O24A Ce1A 1_555 1_555
Mo1 O6A 1_555 1_555
Mo2 O9 1_555 1_555
Mo2 O7A 1_555 1_555
Mo3 O10 1_555 1_555
Mo3 O7A 1_555 1_555
O8 Mo3A 1_555 1_555
C3 C6 1_555 1_555
C5 N2 1_555 1_555
C9 C12 1_555 1_555
C11 N3 1_555 1_555
O1A O2A 1_555 1_555
Mo1A O5A 1_555 1_555
Mo1A O8A 1_555 1_555
Mo2A O5A 1_555 1_555
Mo2A O9A 1_555 1_555
Mo3A O6A 1_555 1_555
Mo3A O10A 1_555 1_555
O18A C6A 1_555 1_555
O20A C12A 1_555 1_555
C3A C6A 1_555 1_555
C5A N2A 1_555 1_555
C9A C12A 1_555 1_555
C11A N3A 1_555 1_555

#END
