
#######################################################################
#
#                 Cambridge Crystallographic Data Centre
#                                CCDC 
#
#######################################################################
#
# If this CIF has been generated from an entry in the Cambridge 
# Structural Database, then it will include bibliographic, chemical, 
# crystal, experimental, refinement or atomic coordinate data resulting 
# from the CCDC's data processing and validation procedures.
#
#######################################################################

data_JEJQAR
_symmetry_cell_setting           monoclinic
_symmetry_space_group_name_H-M   'C 2'
_symmetry_Int_Tables_number      5
_space_group_name_Hall           'C 2y'
loop_
_symmetry_equiv_pos_site_id
_symmetry_equiv_pos_as_xyz
1 x,y,z
2 -x,y,-z
3 1/2+x,1/2+y,z
4 1/2-x,1/2+y,-z
_cell_length_a                   17.412(2)
_cell_length_b                   12.913(3)
_cell_length_c                   6.56690(10)
_cell_angle_alpha                90
_cell_angle_beta                 111.934(18)
_cell_angle_gamma                90
_cell_volume                     1369.63
loop_
_atom_site_label
_atom_site_type_symbol
_atom_site_fract_x
_atom_site_fract_y
_atom_site_fract_z
Cu1 Cu 0.25865(3) 0.10754(3) 0.23246(8)
Cu2 Cu 0.0000 0.81946(5) 0.0000
O1 O 0.35251(18) 0.0029(2) 0.3036(5)
O2 O 0.17706(19) 0.0018(2) 0.0132(5)
H1 H 0.2039 -0.0515 0.0258
H2 H 0.1531 0.0128 -0.1184
O3 O 0.28520(19) -0.1407(2) 0.1514(5)
O4 O 0.2792(2) 0.1703(2) -0.0433(6)
H3 H 0.2604 0.2249 -0.1044
H4 H 0.3260 0.1636 -0.0428
O5 O 0.5690(2) -0.4791(2) 0.5719(6)
O6 O 0.34184(19) 0.2179(2) 0.4316(5)
H5 H 0.3057 0.2593 0.4267
H6 H 0.3652 0.2001 0.5599
O7 O 0.15754(19) 0.1996(2) 0.1703(6)
O8 O 0.2344(2) 0.0403(2) 0.5023(5)
H7 H 0.2152 0.0715 0.5804
H8 H 0.2466 -0.0181 0.5523
O9 O 0.21593(19) 0.3449(2) 0.3420(5)
O10 O -0.0829(2) 0.9154(3) -0.2063(6)
H9 H -0.1137 0.9438 -0.1552
H10 H -0.0880 0.9453 -0.3206
O11 O 0.06544(18) 0.6751(2) 0.1106(5)
O12 O -0.0569(2) 0.8242(3) 0.2364(6)
H11 H -0.0685 0.8681 0.3098
H12 H -0.0647 0.7672 0.2798
C1 C 0.4268(2) -0.1539(3) 0.3932(7)
C2 C 0.4272(3) -0.2613(4) 0.3940(7)
H13 H 0.3781 -0.2971 0.3227
C3 C 0.5000 -0.3162(4) 0.5000
C4 C 0.5000 -0.1000(4) 0.5000
H14 H 0.5000 -0.0280 0.5000
C5 C 0.3492(2) -0.0933(3) 0.2766(6)
C6 C 0.5000 -0.4314(5) 0.5000
C7 C 0.0738(3) 0.3496(3) 0.1048(7)
C8 C 0.0730(3) 0.4571(3) 0.1066(7)
H15 H 0.1217 0.4934 0.1798
C9 C 0.0000 0.5106(4) 0.0000
C10 C 0.0000 0.2960(4) 0.0000
H16 H 0.0000 0.2239 0.0000
C11 C 0.1549(3) 0.2940(3) 0.2143(6)
C12 C 0.0000 0.6261(4) 0.0000
Cu1A Cu -0.25865(3) 0.10754(3) -0.23246(8)
Cu1A_2 Cu 0.74135(3) 0.10754(3) 0.76754(8)
O1A O 0.64749(18) 0.0029(2) 0.6964(5)
O1A_2 O -0.35251(18) 0.0029(2) -0.3036(5)
O2A O -0.17706(19) 0.0018(2) -0.0132(5)
H1A H -0.2039 -0.0515 -0.0258
H2A H -0.1531 0.0128 0.1184
O3A O 0.71480(19) -0.1407(2) 0.8486(5)
O4A O -0.2792(2) 0.1703(2) 0.0433(6)
H3A H -0.2604 0.2249 0.1044
H4A H -0.3260 0.1636 0.0428
O5A O 0.4310(2) -0.4791(2) 0.4281(6)
O6A O -0.34184(19) 0.2179(2) -0.4316(5)
H5A H -0.3057 0.2593 -0.4267
H6A H -0.3652 0.2001 -0.5599
O7A O -0.15754(19) 0.1996(2) -0.1703(6)
O8A O -0.2344(2) 0.0403(2) -0.5023(5)
H7A H -0.2152 0.0715 -0.5804
H8A H -0.2466 -0.0181 -0.5523
O9A O -0.21593(19) 0.3449(2) -0.3420(5)
O10A O 0.0829(2) 0.9154(3) 0.2063(6)
H9A H 0.1137 0.9438 0.1552
H10A H 0.0880 0.9453 0.3206
O11A O -0.06544(18) 0.6751(2) -0.1106(5)
O12A O 0.0569(2) 0.8242(3) -0.2364(6)
H11A H 0.0685 0.8681 -0.3098
H12A H 0.0647 0.7672 -0.2798
C1A C 0.5732(2) -0.1539(3) 0.6068(7)
C2A C 0.5728(3) -0.2613(4) 0.6060(7)
H13A H 0.6219 -0.2971 0.6773
C5A C 0.6508(2) -0.0933(3) 0.7234(6)
C7A C -0.0738(3) 0.3496(3) -0.1048(7)
C8A C -0.0730(3) 0.4571(3) -0.1066(7)
H15A H -0.1217 0.4934 -0.1798
C11A C -0.1549(3) 0.2940(3) -0.2143(6)
loop_
_geom_bond_atom_site_label_1
_geom_bond_atom_site_label_2
_geom_bond_site_symmetry_1
_geom_bond_site_symmetry_2
Cu1 O1 1_555 1_555
Cu2 O10 1_555 1_555
O1 C5 1_555 1_555
O2 Cu1 1_555 1_555
H1 O2 1_555 1_555
H2 O2 1_555 1_555
O3 C5 1_555 1_555
O4 Cu1 1_555 1_555
H3 O4 1_555 1_555
H4 O4 1_555 1_555
O5 C6 1_555 1_555
O6 Cu1 1_555 1_555
H5 O6 1_555 1_555
H6 O6 1_555 1_555
O7 Cu1 1_555 1_555
O8 Cu1 1_555 1_555
H7 O8 1_555 1_555
H8 O8 1_555 1_555
O9 C11 1_555 1_555
O10 H9 1_555 1_555
H10 O10 1_555 1_555
O11 Cu2 1_555 1_555
O12 Cu2 1_555 1_555
H11 O12 1_555 1_555
H12 O12 1_555 1_555
C1 C2 1_555 1_555
C2 H13 1_555 1_555
C3 C2 1_555 1_555
C4 C1 1_555 1_555
H14 C4 1_555 1_555
C5 C1 1_555 1_555
C6 C3 1_555 1_555
C7 C8 1_555 1_555
C8 H15 1_555 1_555
C9 C8 1_555 1_555
C10 C7 1_555 1_555
H16 C10 1_555 1_555
C11 O7 1_555 1_555
C12 O11 1_555 1_555
Cu1A O1A_2 1_555 1_555
Cu1A_2 O1A 1_555 1_555
O1A C5A 1_555 1_555
O2A Cu1A 1_555 1_555
H1A O2A 1_555 1_555
H2A O2A 1_555 1_555
O3A C5A 1_555 1_555
O4A Cu1A 1_555 1_555
H3A O4A 1_555 1_555
H4A O4A 1_555 1_555
O5A C6 1_555 1_555
O6A Cu1A 1_555 1_555
H5A O6A 1_555 1_555
H6A O6A 1_555 1_555
O7A Cu1A 1_555 1_555
O8A Cu1A 1_555 1_555
H7A O8A 1_555 1_555
H8A O8A 1_555 1_555
O9A C11A 1_555 1_555
O10A Cu2 1_555 1_555
H9A O10A 1_555 1_555
H10A O10A 1_555 1_555
O11A Cu2 1_555 1_555
O12A Cu2 1_555 1_555
H11A O12A 1_555 1_555
H12A O12A 1_555 1_555
C1A C4 1_555 1_555
C2A C3 1_555 1_555
H13A C2A 1_555 1_555
C5A C1A 1_555 1_555
C7A C10 1_555 1_555
C8A C9 1_555 1_555
H15A C8A 1_555 1_555
C11A O7A 1_555 1_555
C7 C11 1_555 1_555
C9 C12 1_555 1_555
C12 O11A 1_555 1_555
C1A C2A 1_555 1_555
C7A C8A 1_555 1_555
C7A C11A 1_555 1_555

#END
