
#######################################################################
#
#                 Cambridge Crystallographic Data Centre
#                                CCDC 
#
#######################################################################
#
# If this CIF has been generated from an entry in the Cambridge 
# Structural Database, then it will include bibliographic, chemical, 
# crystal, experimental, refinement or atomic coordinate data resulting 
# from the CCDC's data processing and validation procedures.
#
#######################################################################

data_JEJYAZ
_symmetry_cell_setting           tetragonal
_symmetry_space_group_name_H-M   'I 4/m c m'
_symmetry_Int_Tables_number      140
_space_group_name_Hall           '-I 4 2c'
loop_
_symmetry_equiv_pos_site_id
_symmetry_equiv_pos_as_xyz
1 x,y,z
2 -y,x,z
3 y,-x,z
4 y,x,1/2-z
5 1/2+x,1/2+y,1/2+z
6 1/2-y,1/2+x,1/2+z
7 1/2+y,1/2-x,1/2+z
8 1/2+y,1/2+x,-z
9 -x,-y,z
10 -x,y,1/2-z
11 x,-y,1/2-z
12 -y,-x,1/2-z
13 1/2-x,1/2-y,1/2+z
14 1/2-x,1/2+y,-z
15 1/2+x,1/2-y,-z
16 1/2-y,1/2-x,-z
17 -x,-y,-z
18 y,-x,-z
19 -y,x,-z
20 -y,-x,1/2+z
21 1/2-x,1/2-y,1/2-z
22 1/2+y,1/2-x,1/2-z
23 1/2-y,1/2+x,1/2-z
24 1/2-y,1/2-x,z
25 x,y,-z
26 x,-y,1/2+z
27 -x,y,1/2+z
28 y,x,1/2+z
29 1/2+x,1/2+y,1/2-z
30 1/2+x,1/2-y,z
31 1/2-x,1/2+y,z
32 1/2+y,1/2+x,z
_cell_length_a                   11.6129(13)
_cell_length_b                   11.6129(13)
_cell_length_c                   23.247(9)
_cell_angle_alpha                90
_cell_angle_beta                 90
_cell_angle_gamma                90
_cell_volume                     3135.08
loop_
_atom_site_label
_atom_site_type_symbol
_atom_site_fract_x
_atom_site_fract_y
_atom_site_fract_z
Zn1 Zn 0.0000 0.5000 0.2500
N1 N 0.0960(3) 0.4040(3) 0.30325(18)
C1 C 0.2615(5) 0.2385(5) 0.4453(2)
C2 C 0.2112(6) 0.2888(6) 0.5000
C3 C 0.0545(4) 0.3067(4) 0.32531(17)
C4 C 0.1081(4) 0.2496(4) 0.36960(17)
C5 C 0.2071(4) 0.2929(4) 0.3937(2)
H1 H 0.248(4) 0.163(3) 0.4472(15)
H2 H 0.218(5) 0.362(5) 0.5000
H3 H -0.013(4) 0.278(4) 0.3057(15)
H4 H 0.077(4) 0.178(4) 0.3830(17)
Zn1E Zn 0.0000 0.5000 0.7500
N1X N 0.0960(3) 0.4040(3) 0.69675(18)
N1EA N -0.0960(3) 0.5960(3) 0.30325(18)
N1G N -0.0960(3) 0.5960(3) 0.69675(18)
N1U N -0.0960(3) 0.4040(3) 0.19675(18)
N1V N 0.0960(3) 0.5960(3) 0.19675(18)
C1X C 0.2615(5) 0.2385(5) 0.5547(2)
C1EA C -0.2615(5) 0.7615(5) 0.4453(2)
C1G C -0.2615(5) 0.7615(5) 0.5547(2)
C2G C -0.2112(6) 0.7112(6) 0.5000
C3X C 0.0545(4) 0.3067(4) 0.67469(17)
C3O C 0.1933(4) 0.4455(4) 0.67469(17)
C3W C 0.1933(4) 0.4455(4) 0.32531(17)
C3EA C -0.1933(4) 0.5545(4) 0.32531(17)
C3G C -0.1933(4) 0.5545(4) 0.67469(17)
C3P C -0.0545(4) 0.6933(4) 0.67469(17)
C3H C -0.0545(4) 0.6933(4) 0.32531(17)
C4X C 0.1081(4) 0.2496(4) 0.63040(17)
C4O C 0.2504(4) 0.3919(4) 0.63040(17)
C4W C 0.2504(4) 0.3919(4) 0.36960(17)
C4EA C -0.2504(4) 0.6081(4) 0.36960(17)
C4G C -0.2504(4) 0.6081(4) 0.63040(17)
C4P C -0.1081(4) 0.7504(4) 0.63040(17)
C4H C -0.1081(4) 0.7504(4) 0.36960(17)
C5X C 0.2071(4) 0.2929(4) 0.6063(2)
C5EA C -0.2071(4) 0.7071(4) 0.3937(2)
C5G C -0.2071(4) 0.7071(4) 0.6063(2)
H1X H 0.248(4) 0.163(3) 0.5528(15)
H1O H 0.337(3) 0.252(4) 0.5528(15)
H1W H 0.337(3) 0.252(4) 0.4472(15)
H1EA H -0.337(3) 0.748(4) 0.4472(15)
H1G H -0.337(3) 0.748(4) 0.5528(15)
H1P H -0.248(4) 0.837(3) 0.5528(15)
H1H H -0.248(4) 0.837(3) 0.4472(15)
H2W H 0.138(5) 0.282(5) 0.5000
H2G H -0.138(5) 0.718(5) 0.5000
H2P H -0.218(5) 0.638(5) 0.5000
H3O H 0.222(4) 0.513(4) 0.6943(15)
H3X H -0.013(4) 0.278(4) 0.6943(15)
H3W H 0.222(4) 0.513(4) 0.3057(15)
H3EA H -0.222(4) 0.487(4) 0.3057(15)
H3P H 0.013(4) 0.722(4) 0.6943(15)
H3G H -0.222(4) 0.487(4) 0.6943(15)
H3H H 0.013(4) 0.722(4) 0.3057(15)
H4O H 0.322(4) 0.423(4) 0.6170(17)
H4X H 0.077(4) 0.178(4) 0.6170(17)
H4W H 0.322(4) 0.423(4) 0.3830(17)
H4EA H -0.322(4) 0.577(4) 0.3830(17)
H4P H -0.077(4) 0.822(4) 0.6170(17)
H4G H -0.322(4) 0.577(4) 0.6170(17)
H4H H -0.077(4) 0.822(4) 0.3830(17)
Cl1 Cl 0.0000 0.0000 0.5000
O4 O -0.0149(11) 0.1251(9) 0.5000
O4A O -0.1251(9) -0.0149(11) 0.5000
O4B O 0.1251(9) 0.0149(11) 0.5000
O4P O 0.0149(11) -0.1251(9) 0.5000
Cl2 Cl 0.0000 0.0000 0.2500
O2 O 0.0941(7) 0.0941(7) 0.2500
O2A O -0.0941(7) 0.0941(7) 0.2500
O2B O 0.0941(7) -0.0941(7) 0.2500
O2H O -0.0941(7) -0.0941(7) 0.2500
O1? O 0.0000 0.0000 0.1907(5)
O3? O 0.0000 0.0000 0.4454(5)
loop_
_geom_bond_atom_site_label_1
_geom_bond_atom_site_label_2
_geom_bond_site_symmetry_1
_geom_bond_site_symmetry_2
Zn1 N1 1_555 1_555
Cl1 O4 1_555 1_555
Cl2 O2 1_555 1_555
N1 C3 1_555 1_555
C1 C2 1_555 1_555
C2 H2 1_555 1_555
C3 C4 1_555 1_555
C4 C5 1_555 1_555
C5 C1 1_555 1_555
H1 C1 1_555 1_555
H3 C3 1_555 1_555
H4 C4 1_555 1_555
Zn1E N1X 1_555 1_555
N1X C3X 1_555 1_555
N1EA Zn1 1_555 1_555
N1G Zn1E 1_555 1_555
N1U Zn1 1_555 1_555
N1V Zn1 1_555 1_555
C1X C2 1_555 1_555
C1EA C2G 1_555 1_555
C1G C2G 1_555 1_555
C2G H2G 1_555 1_555
C3X C4X 1_555 1_555
C3O N1X 1_555 1_555
C3W N1 1_555 1_555
C3EA N1EA 1_555 1_555
C3G N1G 1_555 1_555
C3P N1G 1_555 1_555
C3H N1EA 1_555 1_555
C4X C5X 1_555 1_555
C4O C3O 1_555 1_555
C4W C5 1_555 1_555
C4EA C3EA 1_555 1_555
C4G C3G 1_555 1_555
C4P C3P 1_555 1_555
C4H C3H 1_555 1_555
C5X C1X 1_555 1_555
C5EA C1EA 1_555 1_555
C5G C1G 1_555 1_555
O2A Cl2 1_555 1_555
O2B Cl2 1_555 1_555
O2H Cl2 1_555 1_555
O4A Cl1 1_555 1_555
O4B Cl1 1_555 1_555
O4P Cl1 1_555 1_555
H1X C1X 1_555 1_555
H1O C1X 1_555 1_555
H1W C1 1_555 1_555
H1EA C1EA 1_555 1_555
H1G C1G 1_555 1_555
H1P C1G 1_555 1_555
H1H C1EA 1_555 1_555
H2W C2 1_555 1_555
H2P C2G 1_555 1_555
H3O C3O 1_555 1_555
H3X C3X 1_555 1_555
H3W C3W 1_555 1_555
H3EA C3EA 1_555 1_555
H3P C3P 1_555 1_555
H3G C3G 1_555 1_555
H3H C3H 1_555 1_555
H4O C4O 1_555 1_555
H4X C4X 1_555 1_555
H4W C4W 1_555 1_555
H4EA C4EA 1_555 1_555
H4P C4P 1_555 1_555
H4G C4G 1_555 1_555
H4H C4H 1_555 1_555
C3W C4W 1_555 1_555
C4O C5X 1_555 1_555
C4EA C5EA 1_555 1_555
C4G C5G 1_555 1_555
C4P C5G 1_555 1_555
C4H C5EA 1_555 1_555

#END
