
#######################################################################
#
#                 Cambridge Crystallographic Data Centre
#                                CCDC 
#
#######################################################################
#
# If this CIF has been generated from an entry in the Cambridge 
# Structural Database, then it will include bibliographic, chemical, 
# crystal, experimental, refinement or atomic coordinate data resulting 
# from the CCDC's data processing and validation procedures.
#
#######################################################################

data_JEKJOY04
_symmetry_cell_setting           orthorhombic
_symmetry_space_group_name_H-M   'F d d d'
_symmetry_Int_Tables_number      70
_space_group_name_Hall           '-F 2uv 2vw'
loop_
_symmetry_equiv_pos_site_id
_symmetry_equiv_pos_as_xyz
1 x,y,z
2 3/4-x,3/4-y,z
3 3/4-x,y,3/4-z
4 x,3/4-y,3/4-z
5 x,1/2+y,1/2+z
6 3/4-x,1/4-y,1/2+z
7 3/4-x,1/2+y,1/4-z
8 x,1/4-y,1/4-z
9 1/2+x,y,1/2+z
10 1/4-x,3/4-y,1/2+z
11 1/4-x,y,1/4-z
12 1/2+x,3/4-y,1/4-z
13 1/2+x,1/2+y,z
14 1/4-x,1/4-y,z
15 1/4-x,1/2+y,3/4-z
16 1/2+x,1/4-y,3/4-z
17 -x,-y,-z
18 1/4+x,1/4+y,-z
19 1/4+x,-y,1/4+z
20 -x,1/4+y,1/4+z
21 -x,1/2-y,1/2-z
22 1/4+x,3/4+y,1/2-z
23 1/4+x,1/2-y,3/4+z
24 -x,3/4+y,3/4+z
25 1/2-x,-y,1/2-z
26 3/4+x,1/4+y,1/2-z
27 3/4+x,-y,3/4+z
28 1/2-x,1/4+y,3/4+z
29 1/2-x,1/2-y,-z
30 3/4+x,3/4+y,-z
31 3/4+x,1/2-y,1/4+z
32 1/2-x,3/4+y,1/4+z
_cell_length_a                   23.942(9)
_cell_length_b                   26.296(9)
_cell_length_c                   44.335(3)
_cell_angle_alpha                90
_cell_angle_beta                 90
_cell_angle_gamma                90
_cell_volume                     27912.4
loop_
_atom_site_label
_atom_site_type_symbol
_atom_site_fract_x
_atom_site_fract_y
_atom_site_fract_z
Au1 Au 0.32220(12) 0.11667(9) 0.09232(4)
Au2 Au 0.32385(13) 0.09874(10) 0.03100(4)
Au3 Au 0.34612(13) 0.08927(10) -0.03376(4)
Au4 Au 0.37615(14) 0.07113(10) -0.09220(4)
S1 S 0.4238(8) 0.1448(7) -0.0935(3)
S2 S 0.3973(9) 0.0480(7) 0.0337(3)
S3 S 0.4244(8) 0.1366(6) -0.0251(3)
S4 S 0.3848(8) 0.0532(6) 0.1032(3)
S5 S 0.2677(8) 0.0430(6) -0.0423(3)
S6 S 0.3375(8) -0.0055(7) -0.0905(3)
S7 S 0.2662(8) 0.1850(7) 0.0871(3)
S8 S 0.2502(9) 0.1487(6) 0.0238(3)
C1 C 0.171(2) 0.233(2) 0.0218(10)
H1 H 0.1691 0.2692 0.0171
H2 H 0.1939 0.2183 0.0060
C2 C 0.4172(18) 0.0337(19) 0.0702(3)
N1 N 0.4502(18) -0.0059(13) 0.0740(8)
N2 N 0.4917(14) 0.1942(19) -0.0574(7)
C3 C 0.446(2) 0.1659(19) -0.0582(3)
N3 N 0.207(2) 0.2309(14) 0.0489(8)
C4 C 0.2749(12) -0.0007(14) -0.0714(8)
C5 C 0.484(2) -0.020(2) 0.0486(10)
H3 H 0.4575 -0.0232 0.0322
H4 H 0.4952 -0.0550 0.0532
C6 C 0.2288(17) 0.1859(16) 0.0541(5)
C7 C 0.195(2) 0.2730(16) 0.0714(11)
H5 H 0.1962 0.2593 0.0917
H6 H 0.1577 0.2864 0.0680
C8 C 0.520(2) 0.2073(18) -0.0291(9)
H7 H 0.5451 0.2353 -0.0340
H8 H 0.4918 0.2212 -0.0159
C9 C 0.511(3) 0.2158(18) -0.0862(9)
H9 H 0.5030 0.1921 -0.1024
H10 H 0.5504 0.2220 -0.0855
C10 C 0.4894(19) -0.018(2) 0.0994(10)
H11 H 0.5234 -0.0341 0.0920
H12 H 0.4988 0.0116 0.1110
C11 C 0.534(2) 0.002(2) 0.0340(10)
H13 H 0.5536 0.0231 0.0481
H14 H 0.5234 0.0214 0.0168
H15 H 0.5588 -0.0253 0.0277
C12 C 0.480(3) 0.2655(19) -0.0918(11)
H16 H 0.4670 0.2793 -0.0729
H17 H 0.4481 0.2593 -0.1047
H18 H 0.5043 0.2894 -0.1013
C13 C 0.258(3) -0.0868(16) -0.0847(10)
H19 H 0.2228 -0.0955 -0.0946
H20 H 0.2810 -0.0730 -0.1006
C14 C 0.115(2) 0.214(2) 0.0159(12)
H21 H 0.0970 0.2058 0.0347
H22 H 0.1169 0.1842 0.0035
H23 H 0.0934 0.2397 0.0057
C15 C 0.456(3) -0.054(2) 0.1171(10)
H24 H 0.4594 -0.0463 0.1382
H25 H 0.4692 -0.0883 0.1136
H26 H 0.4175 -0.0519 0.1112
C16 C 0.556(3) 0.168(2) -0.0090(11)
H27 H 0.5532 0.1779 0.0118
H28 H 0.5944 0.1696 -0.0152
H29 H 0.5417 0.1346 -0.0117
N4 N 0.2418(17) -0.0399(12) -0.0677(9)
C17 C 0.283(3) -0.1383(16) -0.0798(11)
H30 H 0.2941 -0.1418 -0.0591
H31 H 0.3156 -0.1419 -0.0925
H32 H 0.2566 -0.1642 -0.0848
C18 C 0.1930(18) -0.041(2) -0.0465(10)
H33 H 0.2016 -0.0195 -0.0293
H34 H 0.1886 -0.0755 -0.0390
C19 C 0.238(3) 0.316(2) 0.0683(12)
H35 H 0.2523 0.3246 0.0879
H36 H 0.2205 0.3452 0.0595
H37 H 0.2681 0.3049 0.0557
C20 C 0.139(2) -0.024(2) -0.0595(11)
H38 H 0.1235 0.0024 -0.0473
H39 H 0.1135 -0.0524 -0.0601
H40 H 0.1449 -0.0118 -0.0796
Au1G Au 0.32220(12) 0.13333(9) 0.15768(4)
Au4B Au 0.37385(14) 0.07113(10) -0.15780(4)
loop_
_geom_bond_atom_site_label_1
_geom_bond_atom_site_label_2
_geom_bond_site_symmetry_1
_geom_bond_site_symmetry_2
Au1 Au2 1_555 1_555
Au2 Au3 1_555 1_555
Au3 Au4 1_555 1_555
Au4 S1 1_555 1_555
S1 C3 1_555 1_555
S2 Au2 1_555 1_555
S3 Au3 1_555 1_555
S4 Au1 1_555 1_555
S5 Au3 1_555 1_555
S6 Au4 1_555 1_555
S7 Au1 1_555 1_555
S8 Au2 1_555 1_555
C1 H1 1_555 1_555
H2 C1 1_555 1_555
C2 S2 1_555 1_555
N1 C2 1_555 1_555
N2 C3 1_555 1_555
C3 S3 1_555 1_555
N3 C1 1_555 1_555
C4 S5 1_555 1_555
C5 N1 1_555 1_555
H3 C5 1_555 1_555
H4 C5 1_555 1_555
C6 S7 1_555 1_555
C7 N3 1_555 1_555
H5 C7 1_555 1_555
H6 C7 1_555 1_555
C8 N2 1_555 1_555
H7 C8 1_555 1_555
H8 C8 1_555 1_555
C9 N2 1_555 1_555
H9 C9 1_555 1_555
H10 C9 1_555 1_555
C10 N1 1_555 1_555
H11 C10 1_555 1_555
H12 C10 1_555 1_555
C11 C5 1_555 1_555
H13 C11 1_555 1_555
H14 C11 1_555 1_555
H15 C11 1_555 1_555
C12 C9 1_555 1_555
H16 C12 1_555 1_555
H17 C12 1_555 1_555
H18 C12 1_555 1_555
C13 H19 1_555 1_555
H20 C13 1_555 1_555
C14 C1 1_555 1_555
H21 C14 1_555 1_555
H22 C14 1_555 1_555
H23 C14 1_555 1_555
C15 C10 1_555 1_555
H24 C15 1_555 1_555
H25 C15 1_555 1_555
H26 C15 1_555 1_555
C16 C8 1_555 1_555
H27 C16 1_555 1_555
H28 C16 1_555 1_555
H29 C16 1_555 1_555
N4 C4 1_555 1_555
C17 C13 1_555 1_555
H30 C17 1_555 1_555
H31 C17 1_555 1_555
H32 C17 1_555 1_555
C18 N4 1_555 1_555
H33 C18 1_555 1_555
H34 C18 1_555 1_555
C19 C7 1_555 1_555
H35 C19 1_555 1_555
H36 C19 1_555 1_555
H37 C19 1_555 1_555
C20 C18 1_555 1_555
H38 C20 1_555 1_555
H39 C20 1_555 1_555
H40 C20 1_555 1_555
Au1G Au1 1_555 1_555
Au4B Au4 1_555 1_555
S4 C2 1_555 1_555
S6 C4 1_555 1_555
S8 C6 1_555 1_555
N3 C6 1_555 1_555
C13 N4 1_555 1_555

#END
