
#######################################################################
#
#                 Cambridge Crystallographic Data Centre
#                                CCDC 
#
#######################################################################
#
# If this CIF has been generated from an entry in the Cambridge 
# Structural Database, then it will include bibliographic, chemical, 
# crystal, experimental, refinement or atomic coordinate data resulting 
# from the CCDC's data processing and validation procedures.
#
#######################################################################

data_JEKJOY06
_symmetry_cell_setting           orthorhombic
_symmetry_space_group_name_H-M   'F d d d'
_symmetry_Int_Tables_number      70
_space_group_name_Hall           '-F 2uv 2vw'
loop_
_symmetry_equiv_pos_site_id
_symmetry_equiv_pos_as_xyz
1 x,y,z
2 3/4-x,3/4-y,z
3 3/4-x,y,3/4-z
4 x,3/4-y,3/4-z
5 x,1/2+y,1/2+z
6 3/4-x,1/4-y,1/2+z
7 3/4-x,1/2+y,1/4-z
8 x,1/4-y,1/4-z
9 1/2+x,y,1/2+z
10 1/4-x,3/4-y,1/2+z
11 1/4-x,y,1/4-z
12 1/2+x,3/4-y,1/4-z
13 1/2+x,1/2+y,z
14 1/4-x,1/4-y,z
15 1/4-x,1/2+y,3/4-z
16 1/2+x,1/4-y,3/4-z
17 -x,-y,-z
18 1/4+x,1/4+y,-z
19 1/4+x,-y,1/4+z
20 -x,1/4+y,1/4+z
21 -x,1/2-y,1/2-z
22 1/4+x,3/4+y,1/2-z
23 1/4+x,1/2-y,3/4+z
24 -x,3/4+y,3/4+z
25 1/2-x,-y,1/2-z
26 3/4+x,1/4+y,1/2-z
27 3/4+x,-y,3/4+z
28 1/2-x,1/4+y,3/4+z
29 1/2-x,1/2-y,-z
30 3/4+x,3/4+y,-z
31 3/4+x,1/2-y,1/4+z
32 1/2-x,3/4+y,1/4+z
_cell_length_a                   23.637(11)
_cell_length_b                   26.104(7)
_cell_length_c                   43.881(4)
_cell_angle_alpha                90
_cell_angle_beta                 90
_cell_angle_gamma                90
_cell_volume                     27075.5
loop_
_atom_site_label
_atom_site_type_symbol
_atom_site_fract_x
_atom_site_fract_y
_atom_site_fract_z
Au1 Au 0.32048(16) 0.11687(8) 0.09252(4)
Au2 Au 0.32275(17) 0.09922(9) 0.03081(4)
Au3 Au 0.34561(17) 0.08923(9) -0.03381(4)
Au4 Au 0.37653(17) 0.07082(9) -0.09229(4)
S1 S 0.4253(11) 0.1463(6) -0.0946(3)
S2 S 0.3982(11) 0.0483(6) 0.0341(3)
S3 S 0.4242(10) 0.1364(6) -0.0245(3)
S4 S 0.3868(10) 0.0571(5) 0.1041(3)
S5 S 0.2653(11) 0.0419(6) -0.0419(3)
S6 S 0.3403(10) -0.0084(6) -0.0892(3)
S7 S 0.2645(12) 0.1854(6) 0.0871(3)
S8 S 0.2448(12) 0.1482(6) 0.0228(3)
C1 C 0.172(3) 0.229(3) 0.0185(10)
H1 H 0.1737 0.2632 0.0105
H2 H 0.1926 0.2065 0.0048
C2 C 0.417(2) 0.0331(19) 0.0711(3)
N1 N 0.4520(18) -0.0056(14) 0.0751(8)
N2 N 0.4937(18) 0.1939(17) -0.0579(8)
C3 C 0.451(2) 0.161(2) -0.0582(3)
N3 N 0.198(3) 0.2271(14) 0.0489(9)
C4 C 0.2762(13) -0.0021(14) -0.0706(9)
C5 C 0.485(2) -0.021(2) 0.0488(11)
H3 H 0.4577 -0.0222 0.0321
H4 H 0.4961 -0.0557 0.0527
C6 C 0.2241(19) 0.1834(18) 0.0546(6)
C7 C 0.201(3) 0.2751(17) 0.0685(11)
H5 H 0.2031 0.2620 0.0892
H6 H 0.1632 0.2897 0.0667
C8 C 0.523(3) 0.2084(19) -0.0297(11)
H7 H 0.5429 0.2399 -0.0340
H8 H 0.4934 0.2171 -0.0151
C9 C 0.515(3) 0.2138(18) -0.0874(9)
H9 H 0.5102 0.1870 -0.1025
H10 H 0.5549 0.2203 -0.0853
C10 C 0.484(2) -0.0174(19) 0.1039(9)
H11 H 0.5229 -0.0255 0.0991
H12 H 0.4835 0.0123 0.1172
C11 C 0.535(3) 0.005(2) 0.0362(11)
H13 H 0.5527 0.0257 0.0518
H14 H 0.5243 0.0267 0.0195
H15 H 0.5617 -0.0201 0.0292
C12 C 0.487(3) 0.2628(19) -0.0999(12)
H16 H 0.4696 0.2815 -0.0834
H17 H 0.4583 0.2537 -0.1145
H18 H 0.5149 0.2838 -0.1095
C13 C 0.260(3) -0.0922(16) -0.0841(11)
H19 H 0.2268 -0.0996 -0.0961
H20 H 0.2881 -0.0808 -0.0988
C14 C 0.112(3) 0.212(2) 0.0188(14)
H21 H 0.1002 0.2066 0.0395
H22 H 0.1082 0.1808 0.0075
H23 H 0.0890 0.2382 0.0097
C15 C 0.457(3) -0.0612(18) 0.1195(11)
H24 H 0.4572 -0.0553 0.1411
H25 H 0.4779 -0.0919 0.1151
H26 H 0.4188 -0.0649 0.1126
C16 C 0.566(3) 0.172(2) -0.0120(12)
H27 H 0.5645 0.1788 0.0095
H28 H 0.6042 0.1785 -0.0191
H29 H 0.5569 0.1367 -0.0157
N4 N 0.2441(19) -0.0429(12) -0.0692(9)
C17 C 0.281(4) -0.1453(16) -0.0769(12)
H30 H 0.2894 -0.1477 -0.0555
H31 H 0.3150 -0.1521 -0.0883
H32 H 0.2527 -0.1699 -0.0822
C18 C 0.1890(18) -0.053(2) -0.0533(12)
H33 H 0.1947 -0.0504 -0.0315
H34 H 0.1772 -0.0880 -0.0577
C19 C 0.240(3) 0.322(2) 0.0687(13)
H35 H 0.2530 0.3283 0.0891
H36 H 0.2201 0.3513 0.0612
H37 H 0.2722 0.3153 0.0558
C20 C 0.143(3) -0.017(2) -0.0626(11)
H38 H 0.1358 0.0062 -0.0463
H39 H 0.1096 -0.0365 -0.0671
H40 H 0.1549 0.0012 -0.0804
Au1G Au 0.32048(16) 0.13313(8) 0.15748(4)
Au4B Au 0.37347(17) 0.07082(9) -0.15771(4)
loop_
_geom_bond_atom_site_label_1
_geom_bond_atom_site_label_2
_geom_bond_site_symmetry_1
_geom_bond_site_symmetry_2
Au1 Au2 1_555 1_555
Au2 Au3 1_555 1_555
Au3 Au4 1_555 1_555
Au4 S1 1_555 1_555
S1 C3 1_555 1_555
S2 Au2 1_555 1_555
S3 Au3 1_555 1_555
S4 Au1 1_555 1_555
S5 Au3 1_555 1_555
S6 Au4 1_555 1_555
S7 Au1 1_555 1_555
S8 Au2 1_555 1_555
C1 H1 1_555 1_555
H2 C1 1_555 1_555
C2 S2 1_555 1_555
N1 C2 1_555 1_555
N2 C3 1_555 1_555
C3 S3 1_555 1_555
N3 C1 1_555 1_555
C4 S5 1_555 1_555
C5 N1 1_555 1_555
H3 C5 1_555 1_555
H4 C5 1_555 1_555
C6 S7 1_555 1_555
C7 N3 1_555 1_555
H5 C7 1_555 1_555
H6 C7 1_555 1_555
C8 N2 1_555 1_555
H7 C8 1_555 1_555
H8 C8 1_555 1_555
C9 N2 1_555 1_555
H9 C9 1_555 1_555
H10 C9 1_555 1_555
C10 N1 1_555 1_555
H11 C10 1_555 1_555
H12 C10 1_555 1_555
C11 C5 1_555 1_555
H13 C11 1_555 1_555
H14 C11 1_555 1_555
H15 C11 1_555 1_555
C12 C9 1_555 1_555
H16 C12 1_555 1_555
H17 C12 1_555 1_555
H18 C12 1_555 1_555
C13 H19 1_555 1_555
H20 C13 1_555 1_555
C14 C1 1_555 1_555
H21 C14 1_555 1_555
H22 C14 1_555 1_555
H23 C14 1_555 1_555
C15 C10 1_555 1_555
H24 C15 1_555 1_555
H25 C15 1_555 1_555
H26 C15 1_555 1_555
C16 C8 1_555 1_555
H27 C16 1_555 1_555
H28 C16 1_555 1_555
H29 C16 1_555 1_555
N4 C4 1_555 1_555
C17 C13 1_555 1_555
H30 C17 1_555 1_555
H31 C17 1_555 1_555
H32 C17 1_555 1_555
C18 N4 1_555 1_555
H33 C18 1_555 1_555
H34 C18 1_555 1_555
C19 C7 1_555 1_555
H35 C19 1_555 1_555
H36 C19 1_555 1_555
H37 C19 1_555 1_555
C20 C18 1_555 1_555
H38 C20 1_555 1_555
H39 C20 1_555 1_555
H40 C20 1_555 1_555
Au1G Au1 1_555 1_555
Au4B Au4 1_555 1_555
S4 C2 1_555 1_555
S6 C4 1_555 1_555
S8 C6 1_555 1_555
N3 C6 1_555 1_555
C13 N4 1_555 1_555

#END
