
#######################################################################
#
#                 Cambridge Crystallographic Data Centre
#                                CCDC 
#
#######################################################################
#
# If this CIF has been generated from an entry in the Cambridge 
# Structural Database, then it will include bibliographic, chemical, 
# crystal, experimental, refinement or atomic coordinate data resulting 
# from the CCDC's data processing and validation procedures.
#
#######################################################################

data_JEKJOY05
_symmetry_cell_setting           orthorhombic
_symmetry_space_group_name_H-M   'F d d d'
_symmetry_Int_Tables_number      70
_space_group_name_Hall           '-F 2uv 2vw'
loop_
_symmetry_equiv_pos_site_id
_symmetry_equiv_pos_as_xyz
1 x,y,z
2 3/4-x,3/4-y,z
3 3/4-x,y,3/4-z
4 x,3/4-y,3/4-z
5 x,1/2+y,1/2+z
6 3/4-x,1/4-y,1/2+z
7 3/4-x,1/2+y,1/4-z
8 x,1/4-y,1/4-z
9 1/2+x,y,1/2+z
10 1/4-x,3/4-y,1/2+z
11 1/4-x,y,1/4-z
12 1/2+x,3/4-y,1/4-z
13 1/2+x,1/2+y,z
14 1/4-x,1/4-y,z
15 1/4-x,1/2+y,3/4-z
16 1/2+x,1/4-y,3/4-z
17 -x,-y,-z
18 1/4+x,1/4+y,-z
19 1/4+x,-y,1/4+z
20 -x,1/4+y,1/4+z
21 -x,1/2-y,1/2-z
22 1/4+x,3/4+y,1/2-z
23 1/4+x,1/2-y,3/4+z
24 -x,3/4+y,3/4+z
25 1/2-x,-y,1/2-z
26 3/4+x,1/4+y,1/2-z
27 3/4+x,-y,3/4+z
28 1/2-x,1/4+y,3/4+z
29 1/2-x,1/2-y,-z
30 3/4+x,3/4+y,-z
31 3/4+x,1/2-y,1/4+z
32 1/2-x,3/4+y,1/4+z
_cell_length_a                   23.718(9)
_cell_length_b                   26.138(9)
_cell_length_c                   43.984(4)
_cell_angle_alpha                90
_cell_angle_beta                 90
_cell_angle_gamma                90
_cell_volume                     27267.5
loop_
_atom_site_label
_atom_site_type_symbol
_atom_site_fract_x
_atom_site_fract_y
_atom_site_fract_z
Au1 Au 0.32135(13) 0.11696(10) 0.09243(4)
Au2 Au 0.32275(13) 0.09934(11) 0.03099(4)
Au3 Au 0.34628(13) 0.08954(11) -0.03367(4)
Au4 Au 0.37603(14) 0.07075(11) -0.09243(4)
S1 S 0.4252(9) 0.1439(7) -0.0946(3)
S2 S 0.3984(9) 0.0487(7) 0.0339(3)
S3 S 0.4255(9) 0.1365(7) -0.0254(3)
S4 S 0.3848(8) 0.0533(6) 0.1041(3)
S5 S 0.2667(8) 0.0426(6) -0.0413(3)
S6 S 0.3405(8) -0.0082(7) -0.0894(3)
S7 S 0.2628(9) 0.1844(7) 0.0878(3)
S8 S 0.2455(10) 0.1474(7) 0.0225(3)
C1 C 0.171(2) 0.233(3) 0.0214(10)
H1 H 0.1687 0.2700 0.0201
H2 H 0.1946 0.2210 0.0049
C2 C 0.416(2) 0.032(2) 0.0708(3)
N1 N 0.449(2) -0.0080(15) 0.0738(8)
N2 N 0.4905(16) 0.192(2) -0.0582(9)
C3 C 0.441(2) 0.1690(14) -0.0588(3)
N3 N 0.1960(18) 0.2183(19) 0.0506(8)
C4 C 0.2792(14) -0.0055(16) -0.0681(10)
C5 C 0.482(2) -0.025(2) 0.0482(10)
H3 H 0.4556 -0.0306 0.0319
H4 H 0.4971 -0.0581 0.0537
C6 C 0.246(2) 0.1946(12) 0.0505(4)
C7 C 0.189(3) 0.2675(19) 0.0685(12)
H5 H 0.1782 0.2580 0.0890
H6 H 0.1566 0.2854 0.0598
C8 C 0.527(2) 0.207(2) -0.0327(11)
H7 H 0.5559 0.2284 -0.0411
H8 H 0.5040 0.2282 -0.0196
C9 C 0.520(2) 0.214(2) -0.0844(11)
H9 H 0.5245 0.1895 -0.1005
H10 H 0.5566 0.2274 -0.0786
C10 C 0.489(2) -0.017(2) 0.0998(10)
H11 H 0.5251 -0.0297 0.0927
H12 H 0.4955 0.0146 0.1111
C11 C 0.531(3) 0.003(2) 0.0341(11)
H13 H 0.5481 0.0248 0.0491
H14 H 0.5169 0.0242 0.0177
H15 H 0.5575 -0.0207 0.0264
C12 C 0.481(3) 0.258(3) -0.0945(12)
H16 H 0.4673 0.2759 -0.0770
H17 H 0.4498 0.2442 -0.1057
H18 H 0.5017 0.2812 -0.1072
C13 C 0.236(3) -0.0847(15) -0.0909(11)
H19 H 0.1975 -0.0976 -0.0929
H20 H 0.2503 -0.0766 -0.1109
C14 C 0.114(3) 0.211(2) 0.0180(12)
H21 H 0.0983 0.2042 0.0377
H22 H 0.1160 0.1800 0.0065
H23 H 0.0901 0.2351 0.0075
C15 C 0.460(3) -0.055(2) 0.1186(11)
H24 H 0.4635 -0.0463 0.1397
H25 H 0.4756 -0.0882 0.1150
H26 H 0.4203 -0.0555 0.1132
C16 C 0.558(3) 0.167(2) -0.0107(12)
H27 H 0.5564 0.1790 0.0099
H28 H 0.5970 0.1638 -0.0168
H29 H 0.5402 0.1341 -0.0121
N4 N 0.2375(19) -0.0387(16) -0.0705(9)
C17 C 0.273(3) -0.123(2) -0.0749(13)
H30 H 0.2784 -0.1120 -0.0542
H31 H 0.3086 -0.1245 -0.0851
H32 H 0.2552 -0.1557 -0.0752
C18 C 0.1933(18) -0.058(2) -0.0491(12)
H33 H 0.2028 -0.0531 -0.0279
H34 H 0.1826 -0.0934 -0.0529
C19 C 0.237(3) 0.307(3) 0.0708(12)
H35 H 0.2480 0.3107 0.0918
H36 H 0.2255 0.3388 0.0627
H37 H 0.2693 0.2942 0.0595
C20 C 0.151(3) -0.020(2) -0.0607(11)
H38 H 0.1413 0.0030 -0.0447
H39 H 0.1180 -0.0382 -0.0674
H40 H 0.1671 -0.0017 -0.0774
Au1G Au 0.32135(13) 0.13304(10) 0.15757(4)
Au4B Au 0.37397(14) 0.07075(11) -0.15757(4)
loop_
_geom_bond_atom_site_label_1
_geom_bond_atom_site_label_2
_geom_bond_site_symmetry_1
_geom_bond_site_symmetry_2
Au1 Au2 1_555 1_555
Au2 Au3 1_555 1_555
Au3 Au4 1_555 1_555
Au4 S1 1_555 1_555
S1 C3 1_555 1_555
S2 Au2 1_555 1_555
S3 Au3 1_555 1_555
S4 Au1 1_555 1_555
S5 Au3 1_555 1_555
S6 Au4 1_555 1_555
S7 Au1 1_555 1_555
S8 Au2 1_555 1_555
C1 H1 1_555 1_555
H2 C1 1_555 1_555
C2 S2 1_555 1_555
N1 C2 1_555 1_555
N2 C3 1_555 1_555
C3 S3 1_555 1_555
N3 C1 1_555 1_555
C4 S5 1_555 1_555
C5 N1 1_555 1_555
H3 C5 1_555 1_555
H4 C5 1_555 1_555
C6 S7 1_555 1_555
C7 N3 1_555 1_555
H5 C7 1_555 1_555
H6 C7 1_555 1_555
C8 N2 1_555 1_555
H7 C8 1_555 1_555
H8 C8 1_555 1_555
C9 N2 1_555 1_555
H9 C9 1_555 1_555
H10 C9 1_555 1_555
C10 N1 1_555 1_555
H11 C10 1_555 1_555
H12 C10 1_555 1_555
C11 C5 1_555 1_555
H13 C11 1_555 1_555
H14 C11 1_555 1_555
H15 C11 1_555 1_555
C12 C9 1_555 1_555
H16 C12 1_555 1_555
H17 C12 1_555 1_555
H18 C12 1_555 1_555
C13 H19 1_555 1_555
H20 C13 1_555 1_555
C14 C1 1_555 1_555
H21 C14 1_555 1_555
H22 C14 1_555 1_555
H23 C14 1_555 1_555
C15 C10 1_555 1_555
H24 C15 1_555 1_555
H25 C15 1_555 1_555
H26 C15 1_555 1_555
C16 C8 1_555 1_555
H27 C16 1_555 1_555
H28 C16 1_555 1_555
H29 C16 1_555 1_555
N4 C4 1_555 1_555
C17 C13 1_555 1_555
H30 C17 1_555 1_555
H31 C17 1_555 1_555
H32 C17 1_555 1_555
C18 N4 1_555 1_555
H33 C18 1_555 1_555
H34 C18 1_555 1_555
C19 C7 1_555 1_555
H35 C19 1_555 1_555
H36 C19 1_555 1_555
H37 C19 1_555 1_555
C20 C18 1_555 1_555
H38 C20 1_555 1_555
H39 C20 1_555 1_555
H40 C20 1_555 1_555
Au1G Au1 1_555 1_555
Au4B Au4 1_555 1_555
S4 C2 1_555 1_555
S6 C4 1_555 1_555
S8 C6 1_555 1_555
N3 C6 1_555 1_555
C13 N4 1_555 1_555

#END
