
#######################################################################
#
#                 Cambridge Crystallographic Data Centre
#                                CCDC 
#
#######################################################################
#
# If this CIF has been generated from an entry in the Cambridge 
# Structural Database, then it will include bibliographic, chemical, 
# crystal, experimental, refinement or atomic coordinate data resulting 
# from the CCDC's data processing and validation procedures.
#
#######################################################################

data_JEKJOY02
_symmetry_cell_setting           tetragonal
_symmetry_space_group_name_H-M   'I 41/a'
_symmetry_Int_Tables_number      88
_space_group_name_Hall           '-I 4ad'
loop_
_symmetry_equiv_pos_site_id
_symmetry_equiv_pos_as_xyz
1 x,y,z
2 1/2-x,-y,1/2+z
3 3/4-y,1/4+x,1/4+z
4 3/4+y,3/4-x,3/4+z
5 1/2+x,1/2+y,1/2+z
6 -x,1/2-y,z
7 1/4-y,3/4+x,3/4+z
8 1/4+y,1/4-x,1/4+z
9 -x,-y,-z
10 1/2+x,y,1/2-z
11 1/4+y,3/4-x,3/4-z
12 1/4-y,1/4+x,1/4-z
13 1/2-x,1/2-y,1/2-z
14 x,1/2+y,-z
15 3/4+y,1/4-x,1/4-z
16 3/4-y,3/4+x,3/4-z
_cell_length_a                   18.099(6)
_cell_length_b                   18.099(6)
_cell_length_c                   22.867(4)
_cell_angle_alpha                90
_cell_angle_beta                 90
_cell_angle_gamma                90
_cell_volume                     7490.63
loop_
_atom_site_label
_atom_site_type_symbol
_atom_site_fract_x
_atom_site_fract_y
_atom_site_fract_z
Au1 Au 0.73630(15) 0.47678(15) 0.07346(8)
Au2 Au 0.75902(14) 0.46922(15) -0.05611(8)
S1 S 0.7168(9) 0.5983(9) 0.0613(5)
N1 N 0.702(3) 0.2474(14) 0.1474(18)
C1 C 0.743(3) 0.6496(11) 0.1215(8)
C2 C 0.675(3) 0.203(4) 0.197(2)
H1 H 0.6826 0.2307 0.2329
H2 H 0.7024 0.1578 0.1993
C3 C 0.712(3) 0.3196(13) 0.1447(15)
C4 C 0.742(3) 0.199(3) 0.103(2)
H3 H 0.7196 0.1501 0.1048
H4 H 0.7314 0.2186 0.0644
S2 S 0.7591(9) 0.6110(9) 0.1890(5)
S3 S 0.6777(10) 0.3736(10) 0.2019(6)
N2 N 0.736(3) 0.7217(13) 0.1204(13)
C5 C 0.726(3) 0.760(3) 0.0629(15)
H5 H 0.7411 0.7273 0.0315
H6 H 0.7580 0.8034 0.0615
C6 C 0.763(2) 0.762(3) 0.1703(16)
H7 H 0.7646 0.7259 0.2018
H8 H 0.7236 0.7959 0.1803
C7 C 0.832(2) 0.805(3) 0.1764(19)
H9 H 0.8294 0.8349 0.2112
H10 H 0.8377 0.8368 0.1429
H11 H 0.8733 0.7723 0.1790
S4 S 0.7540(9) 0.3507(9) 0.0823(5)
C8 C 0.649(2) 0.783(3) 0.054(2)
H12 H 0.6457 0.8104 0.0176
H13 H 0.6336 0.8138 0.0855
H14 H 0.6182 0.7402 0.0514
C9 C 0.596(3) 0.186(5) 0.191(2)
H15 H 0.5792 0.1605 0.2256
H16 H 0.5881 0.1554 0.1575
H17 H 0.5681 0.2311 0.1868
C10 C 0.826(3) 0.189(4) 0.108(3)
H18 H 0.8431 0.1571 0.0777
H19 H 0.8376 0.1681 0.1456
H20 H 0.8495 0.2365 0.1046
Au1F Au 0.77322(15) 0.48630(15) -0.17654(8)
Au2G Au 0.71922(15) 0.49098(14) 0.19389(8)
S2F S 0.6390(9) 0.5091(9) -0.0610(5)
S3F S 0.8764(10) 0.4277(10) -0.0481(6)
loop_
_geom_bond_atom_site_label_1
_geom_bond_atom_site_label_2
_geom_bond_site_symmetry_1
_geom_bond_site_symmetry_2
Au1 Au2 1_555 1_555
Au2 Au1F 1_555 1_555
S1 Au1 1_555 1_555
N1 C2 1_555 1_555
C1 S1 1_555 1_555
C2 H1 1_555 1_555
H2 C2 1_555 1_555
C3 N1 1_555 1_555
C4 N1 1_555 1_555
H3 C4 1_555 1_555
H4 C4 1_555 1_555
S2 C1 1_555 1_555
S3 C3 1_555 1_555
N2 C1 1_555 1_555
C5 N2 1_555 1_555
H5 C5 1_555 1_555
H6 C5 1_555 1_555
C6 N2 1_555 1_555
H7 C6 1_555 1_555
H8 C6 1_555 1_555
C7 C6 1_555 1_555
H9 C7 1_555 1_555
H10 C7 1_555 1_555
H11 C7 1_555 1_555
S4 Au1 1_555 1_555
C8 C5 1_555 1_555
H12 C8 1_555 1_555
H13 C8 1_555 1_555
H14 C8 1_555 1_555
C9 C2 1_555 1_555
H15 C9 1_555 1_555
H16 C9 1_555 1_555
H17 C9 1_555 1_555
C10 C4 1_555 1_555
H18 C10 1_555 1_555
H19 C10 1_555 1_555
H20 C10 1_555 1_555
Au2G Au1 1_555 1_555
S2F Au2 1_555 1_555
S3F Au2 1_555 1_555
C3 S4 1_555 1_555
S2 Au2G 1_555 1_555
S3 Au2G 1_555 1_555

#END
