
#######################################################################
#
#                 Cambridge Crystallographic Data Centre
#                                CCDC 
#
#######################################################################
#
# If this CIF has been generated from an entry in the Cambridge 
# Structural Database, then it will include bibliographic, chemical, 
# crystal, experimental, refinement or atomic coordinate data resulting 
# from the CCDC's data processing and validation procedures.
#
#######################################################################

data_JEKJOY07
_symmetry_cell_setting           tetragonal
_symmetry_space_group_name_H-M   'I 41/a'
_symmetry_Int_Tables_number      88
_space_group_name_Hall           '-I 4ad'
loop_
_symmetry_equiv_pos_site_id
_symmetry_equiv_pos_as_xyz
1 x,y,z
2 1/2-x,-y,1/2+z
3 3/4-y,1/4+x,1/4+z
4 3/4+y,3/4-x,3/4+z
5 1/2+x,1/2+y,1/2+z
6 -x,1/2-y,z
7 1/4-y,3/4+x,3/4+z
8 1/4+y,1/4-x,1/4+z
9 -x,-y,-z
10 1/2+x,y,1/2-z
11 1/4+y,3/4-x,3/4-z
12 1/4-y,1/4+x,1/4-z
13 1/2-x,1/2-y,1/2-z
14 x,1/2+y,-z
15 3/4+y,1/4-x,1/4-z
16 3/4-y,3/4+x,3/4-z
_cell_length_a                   18.0538(3)
_cell_length_b                   18.0538(3)
_cell_length_c                   22.8913(9)
_cell_angle_alpha                90
_cell_angle_beta                 90
_cell_angle_gamma                90
_cell_volume                     7461.18
loop_
_atom_site_label
_atom_site_type_symbol
_atom_site_fract_x
_atom_site_fract_y
_atom_site_fract_z
Au1 Au 0.235778(18) 0.976042(17) 0.073478(13)
Au2 Au 0.259399(17) 0.968689(18) -0.056092(13)
S1 S 0.37879(13) 0.92507(14) -0.04792(10)
S2 S 0.13854(12) 1.00800(14) -0.06009(9)
S3 S 0.14959(12) 0.96749(15) -0.19120(9)
S4 S 0.39942(13) 1.00212(16) -0.16774(10)
N1 N 0.0276(4) 0.9892(5) -0.1318(3)
N2 N 0.5054(4) 0.9571(5) -0.0982(3)
C1 C 0.4321(5) 0.9615(5) -0.1038(4)
C2 C 0.1004(5) 0.9883(5) -0.1280(4)
C3 C -0.0217(5) 1.0039(6) -0.0808(4)
H1 H -0.0001 0.9824 -0.0460
H2 H -0.0694 0.9805 -0.0874
C4 C -0.0127(5) 0.9739(6) -0.1870(4)
H3 H -0.0586 1.0017 -0.1873
H4 H 0.0171 0.9905 -0.2198
C5 C 0.5425(5) 0.9241(6) -0.0470(5)
H5 H 0.5885 0.9503 -0.0398
H6 H 0.5112 0.9302 -0.0130
C6 C -0.0329(6) 1.0862(7) -0.0715(5)
H7 H -0.0648 1.0939 -0.0385
H8 H -0.0552 1.1074 -0.1057
H9 H 0.0141 1.1093 -0.0645
C7 C 0.5572(6) 0.9819(10) -0.1441(6)
H10 H 0.6038 0.9556 -0.1398
H11 H 0.5369 0.9696 -0.1822
C8 C -0.0295(8) 0.8936(8) -0.1941(6)
H12 H -0.0551 0.8859 -0.2304
H13 H -0.0602 0.8773 -0.1623
H14 H 0.0158 0.8659 -0.1941
C9 C 0.5591(8) 0.8427(8) -0.0553(7)
H15 H 0.5844 0.8241 -0.0214
H16 H 0.5899 0.8363 -0.0891
H17 H 0.5136 0.8161 -0.0606
C10 C 0.5715(8) 1.0654(11) -0.1410(8)
H18 H 0.6041 1.0797 -0.1722
H19 H 0.5940 1.0773 -0.1042
H20 H 0.5254 1.0915 -0.1447
Au1F Au 0.273958(17) 0.985778(18) -0.176522(13)
Au2G Au 0.218689(18) 0.990601(17) 0.193908(13)
S3G S 0.21749(15) 1.10041(12) 0.05880(9)
S4G S 0.25212(16) 0.85058(13) 0.08226(10)
loop_
_geom_bond_atom_site_label_1
_geom_bond_atom_site_label_2
_geom_bond_site_symmetry_1
_geom_bond_site_symmetry_2
Au1 Au2 1_555 1_555
Au2 S1 1_555 1_555
S1 C1 1_555 1_555
S2 Au2 1_555 1_555
S3 C2 1_555 1_555
S4 C1 1_555 1_555
N1 C2 1_555 1_555
N2 C1 1_555 1_555
C2 S2 1_555 1_555
C3 N1 1_555 1_555
H1 C3 1_555 1_555
H2 C3 1_555 1_555
C4 N1 1_555 1_555
H3 C4 1_555 1_555
H4 C4 1_555 1_555
C5 N2 1_555 1_555
H5 C5 1_555 1_555
H6 C5 1_555 1_555
C6 C3 1_555 1_555
H7 C6 1_555 1_555
H8 C6 1_555 1_555
H9 C6 1_555 1_555
C7 N2 1_555 1_555
H10 C7 1_555 1_555
H11 C7 1_555 1_555
C8 C4 1_555 1_555
H12 C8 1_555 1_555
H13 C8 1_555 1_555
H14 C8 1_555 1_555
C9 C5 1_555 1_555
H15 C9 1_555 1_555
H16 C9 1_555 1_555
H17 C9 1_555 1_555
C10 C7 1_555 1_555
H18 C10 1_555 1_555
H19 C10 1_555 1_555
H20 C10 1_555 1_555
Au1F Au2 1_555 1_555
Au2G Au1 1_555 1_555
S3G Au1 1_555 1_555
S4G Au1 1_555 1_555
S3 Au1F 1_555 1_555
S4 Au1F 1_555 1_555

#END
