
#######################################################################
#
#                 Cambridge Crystallographic Data Centre
#                                CCDC 
#
#######################################################################
#
# If this CIF has been generated from an entry in the Cambridge 
# Structural Database, then it will include bibliographic, chemical, 
# crystal, experimental, refinement or atomic coordinate data resulting 
# from the CCDC's data processing and validation procedures.
#
#######################################################################

data_JEKJOY01
_symmetry_cell_setting           tetragonal
_symmetry_space_group_name_H-M   'I 41/a'
_symmetry_Int_Tables_number      88
_space_group_name_Hall           '-I 4ad'
loop_
_symmetry_equiv_pos_site_id
_symmetry_equiv_pos_as_xyz
1 x,y,z
2 1/2-x,-y,1/2+z
3 3/4-y,1/4+x,1/4+z
4 3/4+y,3/4-x,3/4+z
5 1/2+x,1/2+y,1/2+z
6 -x,1/2-y,z
7 1/4-y,3/4+x,3/4+z
8 1/4+y,1/4-x,1/4+z
9 -x,-y,-z
10 1/2+x,y,1/2-z
11 1/4+y,3/4-x,3/4-z
12 1/4-y,1/4+x,1/4-z
13 1/2-x,1/2-y,1/2-z
14 x,1/2+y,-z
15 3/4+y,1/4-x,1/4-z
16 3/4-y,3/4+x,3/4-z
_cell_length_a                   18.0913(4)
_cell_length_b                   18.0913(4)
_cell_length_c                   22.9526(9)
_cell_angle_alpha                90
_cell_angle_beta                 90
_cell_angle_gamma                90
_cell_volume                     7512.27
loop_
_atom_site_label
_atom_site_type_symbol
_atom_site_fract_x
_atom_site_fract_y
_atom_site_fract_z
Au1 Au 0.73640(2) 0.47751(2) 0.073258(15)
Au2 Au 0.75842(2) 0.47042(2) -0.056486(14)
S1 S 0.71731(16) 0.60134(15) 0.05930(10)
N1 N 0.7074(5) 0.2467(5) 0.1508(4)
C1 C 0.7393(5) 0.6508(6) 0.1224(4)
C2 C 0.6757(7) 0.2096(6) 0.2012(5)
H1 H 0.6829 0.2403 0.2354
H2 H 0.7015 0.1634 0.2076
C3 C 0.7130(5) 0.3199(6) 0.1459(4)
C4 C 0.7328(11) 0.1944(8) 0.1039(6)
H3 H 0.7078 0.1473 0.1082
H4 H 0.7202 0.2145 0.0659
S2 S 0.75887(16) 0.61189(15) 0.18967(10)
S3 S 0.67714(17) 0.37255(15) 0.20130(10)
N2 N 0.7396(5) 0.7236(5) 0.1184(3)
C5 C 0.7240(8) 0.7637(7) 0.0636(5)
H5 H 0.7390 0.7334 0.0307
H6 H 0.7527 0.8089 0.0626
C6 C 0.7552(7) 0.7718(6) 0.1694(4)
H7 H 0.7337 0.7499 0.2041
H8 H 0.7321 0.8196 0.1634
C7 C 0.8368(8) 0.7823(7) 0.1785(5)
H9 H 0.8448 0.8147 0.2110
H10 H 0.8583 0.8036 0.1441
H11 H 0.8595 0.7353 0.1862
S4 S 0.75353(18) 0.35230(16) 0.08196(11)
C8 C 0.6441(9) 0.7818(8) 0.0582(6)
H12 H 0.6359 0.8091 0.0230
H13 H 0.6290 0.8110 0.0910
H14 H 0.6158 0.7369 0.0572
C9 C 0.5940(9) 0.1940(9) 0.1940(7)
H15 H 0.5760 0.1684 0.2278
H16 H 0.5864 0.1639 0.1601
H17 H 0.5677 0.2398 0.1896
C10 C 0.8165(11) 0.1827(10) 0.1076(8)
H18 H 0.8321 0.1504 0.0768
H19 H 0.8287 0.1609 0.1446
H20 H 0.8412 0.2294 0.1039
Au1F Au 0.77249(2) 0.48640(2) -0.176742(15)
Au2G Au 0.72042(2) 0.49158(2) 0.193514(14)
S2F S 0.63811(15) 0.50887(16) -0.06033(10)
S3F S 0.87745(15) 0.42714(17) -0.04870(10)
loop_
_geom_bond_atom_site_label_1
_geom_bond_atom_site_label_2
_geom_bond_site_symmetry_1
_geom_bond_site_symmetry_2
Au1 Au2 1_555 1_555
Au2 Au1F 1_555 1_555
S1 Au1 1_555 1_555
N1 C2 1_555 1_555
C1 S1 1_555 1_555
C2 H1 1_555 1_555
H2 C2 1_555 1_555
C3 N1 1_555 1_555
C4 N1 1_555 1_555
H3 C4 1_555 1_555
H4 C4 1_555 1_555
S2 C1 1_555 1_555
S3 C3 1_555 1_555
N2 C1 1_555 1_555
C5 N2 1_555 1_555
H5 C5 1_555 1_555
H6 C5 1_555 1_555
C6 N2 1_555 1_555
H7 C6 1_555 1_555
H8 C6 1_555 1_555
C7 C6 1_555 1_555
H9 C7 1_555 1_555
H10 C7 1_555 1_555
H11 C7 1_555 1_555
S4 Au1 1_555 1_555
C8 C5 1_555 1_555
H12 C8 1_555 1_555
H13 C8 1_555 1_555
H14 C8 1_555 1_555
C9 C2 1_555 1_555
H15 C9 1_555 1_555
H16 C9 1_555 1_555
H17 C9 1_555 1_555
C10 C4 1_555 1_555
H18 C10 1_555 1_555
H19 C10 1_555 1_555
H20 C10 1_555 1_555
Au2G Au1 1_555 1_555
S2F Au2 1_555 1_555
S3F Au2 1_555 1_555
C3 S4 1_555 1_555
S2 Au2G 1_555 1_555
S3 Au2G 1_555 1_555

#END
