
#######################################################################
#
#                 Cambridge Crystallographic Data Centre
#                                CCDC 
#
#######################################################################
#
# If this CIF has been generated from an entry in the Cambridge 
# Structural Database, then it will include bibliographic, chemical, 
# crystal, experimental, refinement or atomic coordinate data resulting 
# from the CCDC's data processing and validation procedures.
#
#######################################################################

data_JEKRAT
_symmetry_cell_setting           orthorhombic
_symmetry_space_group_name_H-M   'I b c a'
_symmetry_Int_Tables_number      73
_space_group_name_Hall           '-I 2b 2c'
loop_
_symmetry_equiv_pos_site_id
_symmetry_equiv_pos_as_xyz
1 x,y,z
2 1/2+x,1/2+y,1/2+z
3 -x,1/2-y,z
4 x,-y,1/2-z
5 1/2-x,y,-z
6 1/2-x,-y,1/2+z
7 1/2+x,1/2-y,-z
8 -x,1/2+y,1/2-z
9 -x,-y,-z
10 1/2-x,1/2-y,1/2-z
11 x,1/2+y,-z
12 -x,y,1/2+z
13 1/2+x,-y,z
14 1/2+x,y,1/2-z
15 1/2-x,1/2+y,z
16 x,1/2-y,1/2+z
_cell_length_a                   15.993(4)
_cell_length_b                   18.454(5)
_cell_length_c                   21.506(6)
_cell_angle_alpha                90
_cell_angle_beta                 90
_cell_angle_gamma                90
_cell_volume                     6347.17
loop_
_atom_site_label
_atom_site_type_symbol
_atom_site_fract_x
_atom_site_fract_y
_atom_site_fract_z
O3 O 0.0000 0.0000 0.5000
C15 C 0.0490(12) -0.0452(11) 0.4759(9)
H13 H 0.1065 -0.0271 0.4788
H14 H 0.0341 -0.0523 0.4321
H15 H 0.0446 -0.0914 0.4981
C15H C -0.0490(12) 0.0452(11) 0.5241(9)
H13H H -0.1065 0.0271 0.5212
H14H H -0.0341 0.0523 0.5679
H15H H -0.0446 0.0914 0.5019
Co1 Co 0.07201(3) 0.0000 0.2500
Cl1 Cl 0.07312(4) 0.09401(4) 0.17173(3)
S1 S -0.21314(5) 0.19468(4) 0.40942(3)
S2 S 0.35851(4) 0.17170(4) 0.42603(3)
O1 O -0.2500 0.02696(19) 0.5000
O2 O 0.5000 0.2500 0.46791(17)
N1 N -0.02354(13) 0.06009(12) 0.30135(10)
N2 N 0.16511(14) 0.06064(12) 0.30290(10)
C1 C -0.02122(17) 0.13274(15) 0.30461(13)
H1 H 0.0219 0.1576 0.2830
C2 C -0.07836(18) 0.17271(15) 0.33781(13)
H2 H -0.0740 0.2240 0.3389
C3 C -0.08469(17) 0.02699(15) 0.33256(13)
H3 H -0.0867 -0.0244 0.3313
C4 C -0.14542(18) 0.06270(15) 0.36666(13)
H4 H -0.1881 0.0363 0.3874
C5 C -0.14279(17) 0.13797(15) 0.36998(12)
C6 C -0.28645(17) 0.13396(16) 0.44590(12)
H5 H -0.3350 0.1623 0.4609
H6 H -0.3071 0.0992 0.4144
C7 C -0.2500 0.0920(2) 0.5000
C8 C 0.16024(17) 0.06306(15) 0.36541(13)
H7 H 0.1150 0.0388 0.3851
C9 C 0.21728(17) 0.09877(14) 0.40214(13)
H8 H 0.2105 0.0996 0.4460
C10 C 0.22884(17) 0.09639(15) 0.27675(13)
H9 H 0.2326 0.0967 0.2327
C11 C 0.28954(17) 0.13296(15) 0.31009(13)
H10 H 0.3337 0.1572 0.2891
C12 C 0.28517(16) 0.13384(14) 0.37460(13)
C13 C 0.42883(17) 0.21920(15) 0.37449(13)
H11 H 0.4509 0.1855 0.3427
H12 H 0.3987 0.2588 0.3530
C14 C 0.5000 0.2500 0.4126(2)
Co1D Co -0.57201(3) 0.0000 0.7500
Co1B Co 0.92799(3) 0.5000 0.2500
Cl1C Cl 0.07312(4) -0.09401(4) 0.32827(3)
S1D S -0.28686(5) 0.19468(4) 0.59058(3)
S2B S 0.64149(4) 0.32830(4) 0.42603(3)
N1D N -0.47646(13) 0.06009(12) 0.69865(10)
N1C N -0.02354(13) -0.06009(12) 0.19865(10)
N2B N 0.83489(14) 0.43936(12) 0.30290(10)
N2C N 0.16511(14) -0.06064(12) 0.19710(10)
C1D C -0.47878(17) 0.13274(15) 0.69539(13)
H1D H -0.5219 0.1576 0.7170
C2D C -0.42164(18) 0.17271(15) 0.66219(13)
H2D H -0.4260 0.2240 0.6611
C3D C -0.41531(17) 0.02699(15) 0.66744(13)
H3D H -0.4133 -0.0244 0.6687
C4D C -0.35458(18) 0.06270(15) 0.63334(13)
H4D H -0.3119 0.0363 0.6126
C5D C -0.35721(17) 0.13797(15) 0.63002(12)
C6D C -0.21355(17) 0.13396(16) 0.55410(12)
H5D H -0.1650 0.1623 0.5391
H6D H -0.1929 0.0992 0.5856
C8B C 0.83976(17) 0.43694(15) 0.36541(13)
H7B H 0.8850 0.4612 0.3851
C9B C 0.78272(17) 0.40123(14) 0.40214(13)
H8B H 0.7895 0.4004 0.4460
C10B C 0.77116(17) 0.40361(15) 0.27675(13)
H9B H 0.7674 0.4033 0.2327
C11B C 0.71046(17) 0.36704(15) 0.31009(13)
H10B H 0.6663 0.3428 0.2891
C12B C 0.71483(16) 0.36616(14) 0.37460(13)
C13B C 0.57117(17) 0.28080(15) 0.37449(13)
H11B H 0.5491 0.3145 0.3427
H12B H 0.6013 0.2412 0.3530
loop_
_geom_bond_atom_site_label_1
_geom_bond_atom_site_label_2
_geom_bond_site_symmetry_1
_geom_bond_site_symmetry_2
Co1 Cl1 1_555 1_555
S1 C5 1_555 1_555
S2 C12 1_555 1_555
O1 C7 1_555 1_555
O2 C14 1_555 1_555
O3 C15 1_555 1_555
N1 Co1 1_555 1_555
N2 Co1 1_555 1_555
C1 N1 1_555 1_555
H1 C1 1_555 1_555
C2 C1 1_555 1_555
H2 C2 1_555 1_555
C3 N1 1_555 1_555
H3 C3 1_555 1_555
C4 C3 1_555 1_555
H4 C4 1_555 1_555
C5 C2 1_555 1_555
C6 S1 1_555 1_555
H5 C6 1_555 1_555
H6 C6 1_555 1_555
C7 C6 1_555 1_555
C8 N2 1_555 1_555
H7 C8 1_555 1_555
C9 C8 1_555 1_555
H8 C9 1_555 1_555
C10 N2 1_555 1_555
H9 C10 1_555 1_555
C11 C10 1_555 1_555
H10 C11 1_555 1_555
C12 C9 1_555 1_555
C13 S2 1_555 1_555
H11 C13 1_555 1_555
H12 C13 1_555 1_555
C14 C13 1_555 1_555
C15 H13 1_555 1_555
H14 C15 1_555 1_555
H15 C15 1_555 1_555
Co1D N1D 1_555 1_555
Co1B N2B 1_555 1_555
Cl1C Co1 1_555 1_555
S1D C5D 1_555 1_555
S2B C12B 1_555 1_555
N1D C1D 1_555 1_555
N1C Co1 1_555 1_555
N2B C8B 1_555 1_555
N2C Co1 1_555 1_555
C1D H1D 1_555 1_555
C2D C1D 1_555 1_555
H2D C2D 1_555 1_555
C3D N1D 1_555 1_555
H3D C3D 1_555 1_555
C4D C3D 1_555 1_555
H4D C4D 1_555 1_555
C5D C2D 1_555 1_555
C6D C7 1_555 1_555
H5D C6D 1_555 1_555
H6D C6D 1_555 1_555
C8B H7B 1_555 1_555
C9B C8B 1_555 1_555
H8B C9B 1_555 1_555
C10B N2B 1_555 1_555
H9B C10B 1_555 1_555
C11B C10B 1_555 1_555
H10B C11B 1_555 1_555
C12B C9B 1_555 1_555
C13B C14 1_555 1_555
H11B C13B 1_555 1_555
H12B C13B 1_555 1_555
C15H O3 1_555 1_555
H13H C15H 1_555 1_555
H14H C15H 1_555 1_555
H15H C15H 1_555 1_555
C4 C5 1_555 1_555
C11 C12 1_555 1_555
S1D C6D 1_555 1_555
S2B C13B 1_555 1_555
C4D C5D 1_555 1_555
C11B C12B 1_555 1_555

#END
