
#######################################################################
#
#                 Cambridge Crystallographic Data Centre
#                                CCDC 
#
#######################################################################
#
# If this CIF has been generated from an entry in the Cambridge 
# Structural Database, then it will include bibliographic, chemical, 
# crystal, experimental, refinement or atomic coordinate data resulting 
# from the CCDC's data processing and validation procedures.
#
#######################################################################

data_JEKTUP01
_symmetry_cell_setting           monoclinic
_symmetry_space_group_name_H-M   'P 2/c'
_symmetry_Int_Tables_number      13
_space_group_name_Hall           '-P 2yc'
loop_
_symmetry_equiv_pos_site_id
_symmetry_equiv_pos_as_xyz
1 x,y,z
2 -x,y,1/2-z
3 -x,-y,-z
4 x,-y,1/2+z
_cell_length_a                   7.6314(12)
_cell_length_b                   11.3060(17)
_cell_length_c                   12.9556(15)
_cell_angle_alpha                90
_cell_angle_beta                 123.718(6)
_cell_angle_gamma                90
_cell_volume                     929.778
loop_
_atom_site_label
_atom_site_type_symbol
_atom_site_fract_x
_atom_site_fract_y
_atom_site_fract_z
C1 C 0.4921(3) -0.27259(15) 0.36187(16)
C2 C 0.4946(2) -0.15862(15) 0.30204(14)
C3 C 0.4935(3) -0.05154(17) 0.35390(18)
H1 H 0.4890 -0.0511 0.4242
C4 C 0.4989(3) 0.05442(17) 0.3029(2)
H2 H 0.5012 0.1255 0.3397
C5 C 0.0329(3) -1.02972(16) 0.34765(16)
H3 H 0.0574 -1.0709 0.4166
C6 C 0.0319(3) -0.90786(16) 0.35061(16)
H4 H 0.0525 -0.8686 0.4196
C7 C 0.0000 -0.8440(2) 0.2500
C8 C 0.0000 -0.7137(2) 0.2500
C9 C 0.1293(3) -0.65007(16) 0.22555(18)
H5 H 0.2166 -0.6893 0.2077
C10 C 0.1263(3) -0.52878(16) 0.22808(18)
H6 H 0.2163 -0.4874 0.2139
N1 N 0.0000 -0.46687(18) 0.2500
N2 N 0.0000 -1.09185(18) 0.2500
O1 O 0.3404(2) -0.29013(11) 0.37282(12)
O2 O 0.6436(2) -0.34148(13) 0.39956(14)
O3 O 0.0024(2) -0.28083(10) 0.08629(12)
H7 H 0.1108 -0.2962 0.0856
H8 H -0.0872 -0.3318 0.0371
Zn1 Zn 0.0000 -0.27835(2) 0.2500
C1A C 0.5079(3) -0.27259(15) 0.13813(16)
C2A C 0.5054(2) -0.15862(15) 0.19796(14)
C3A C 0.5065(3) -0.05154(17) 0.14610(18)
H1A H 0.5110 -0.0511 0.0758
C4A C 0.5011(3) 0.05442(17) 0.1971(2)
H2A H 0.4988 0.1255 0.1603
C5A C -0.0329(3) -1.02972(16) 0.15235(16)
H3A H -0.0574 -1.0709 0.0834
C6A C -0.0319(3) -0.90786(16) 0.14939(16)
H4A H -0.0525 -0.8686 0.0804
C9A C -0.1293(3) -0.65007(16) 0.27445(18)
H5A H -0.2166 -0.6893 0.2923
C10A C -0.1263(3) -0.52878(16) 0.27192(18)
H6A H -0.2163 -0.4874 0.2861
N2_2 N 0.0000 -0.09185(18) 0.2500
O1A O 0.6596(2) -0.29013(11) 0.12718(12)
O1A_2 O -0.3404(2) -0.29013(11) 0.12718(12)
O2A O 0.3564(2) -0.34148(13) 0.10044(14)
O3A O -0.0024(2) -0.28083(10) 0.41371(12)
H7A H -0.1108 -0.2962 0.4144
H8A H 0.0872 -0.3318 0.4629
Zn1_2 Zn 0.0000 -1.27835(2) 0.2500
Zn1_3 Zn 1.0000 -0.27835(2) 0.2500
O4 O 0.3475(2) 0.58813(14) 0.56364(13)
H9 H 0.3951 0.6054 0.5198
H10 H 0.3491 0.5130 0.5633
loop_
_geom_bond_atom_site_label_1
_geom_bond_atom_site_label_2
_geom_bond_site_symmetry_1
_geom_bond_site_symmetry_2
C1 C2 1_555 1_555
C2 C3 1_555 1_555
C3 H1 1_555 1_555
C4 C3 1_555 1_555
H2 C4 1_555 1_555
C5 H3 1_555 1_555
C6 C5 1_555 1_555
H4 C6 1_555 1_555
C7 C6 1_555 1_555
C8 C7 1_555 1_555
C9 C8 1_555 1_555
H5 C9 1_555 1_555
C10 C9 1_555 1_555
H6 C10 1_555 1_555
N1 C10 1_555 1_555
N2 C5 1_555 1_555
O1 C1 1_555 1_555
O2 C1 1_555 1_555
O3 H7 1_555 1_555
H8 O3 1_555 1_555
O4 H9 1_555 1_555
H10 O4 1_555 1_555
Zn1 N1 1_555 1_555
C1A C2A 1_555 1_555
C2A C2 1_555 1_555
C3A C2A 1_555 1_555
H1A C3A 1_555 1_555
C4A C4 1_555 1_555
H2A C4A 1_555 1_555
C5A N2 1_555 1_555
H3A C5A 1_555 1_555
C6A C7 1_555 1_555
H4A C6A 1_555 1_555
C9A C8 1_555 1_555
H5A C9A 1_555 1_555
C10A N1 1_555 1_555
H6A C10A 1_555 1_555
N2_2 Zn1 1_555 1_555
O1A C1A 1_555 1_555
O1A_2 Zn1 1_555 1_555
O2A C1A 1_555 1_555
O3A Zn1 1_555 1_555
H7A O3A 1_555 1_555
H8A O3A 1_555 1_555
Zn1_2 N2 1_555 1_555
Zn1_3 O1A 1_555 1_555
O1 Zn1 1_555 1_555
O3 Zn1 1_555 1_555
C3A C4A 1_555 1_555
C5A C6A 1_555 1_555
C9A C10A 1_555 1_555

#END
