
#######################################################################
#
#                 Cambridge Crystallographic Data Centre
#                                CCDC 
#
#######################################################################
#
# If this CIF has been generated from an entry in the Cambridge 
# Structural Database, then it will include bibliographic, chemical, 
# crystal, experimental, refinement or atomic coordinate data resulting 
# from the CCDC's data processing and validation procedures.
#
#######################################################################

data_JEKTUP
_symmetry_cell_setting           monoclinic
_symmetry_space_group_name_H-M   'P 2/n'
_symmetry_Int_Tables_number      13
_space_group_name_Hall           '-P 2yac'
loop_
_symmetry_equiv_pos_site_id
_symmetry_equiv_pos_as_xyz
1 x,y,z
2 1/2-x,y,1/2-z
3 -x,-y,-z
4 1/2+x,-y,1/2+z
_cell_length_a                   7.6346(14)
_cell_length_b                   11.316(2)
_cell_length_c                   10.8133(19)
_cell_angle_alpha                90
_cell_angle_beta                 92.444(3)
_cell_angle_gamma                90
_cell_volume                     933.345
loop_
_atom_site_label
_atom_site_type_symbol
_atom_site_fract_x
_atom_site_fract_y
_atom_site_fract_z
Zn1 Zn 0.7500 0.72122(3) 0.7500
O1 O 0.58369(18) 0.71909(12) 0.58661(13)
H1 H 0.4846 0.6991 0.6042
O2 O 0.53251(18) 0.70955(13) 0.87251(13)
C1 C 0.3078(2) 0.84124(17) 0.80207(16)
C2 C 0.3698(2) 0.72725(18) 0.86151(17)
N1 N 0.7500 0.5323(2) 0.7500
C3 C 0.3602(3) 0.9481(2) 0.85348(19)
H2 H 0.4348 0.9486 0.9238
C4 C 0.8979(3) 0.47083(19) 0.7720(2)
H3 H 1.0019 0.5124 0.7861
C5 C 0.7500 0.2857(2) 0.7500
C6 C 0.9037(3) 0.34928(19) 0.7748(2)
H4 H 1.0088 0.3102 0.7931
C7 C 0.7500 0.1552(2) 0.7500
C8 C 0.8145(3) -0.02981(19) 0.84750(18)
H5 H 0.8585 -0.0709 0.9165
O3 O 0.25611(19) 0.65801(14) 0.89914(15)
C9 C 0.3042(3) 1.05364(19) 0.8027(2)
H6 H 0.3391 1.1247 0.8393
C10 C 0.8186(3) 0.09180(19) 0.85020(18)
H7 H 0.8671 0.1311 0.9190
N2 N 0.7500 -0.0921(2) 0.7500
H8 H 0.6215 0.6851 0.5362
Zn1_2 Zn 0.7500 -0.27878(3) 0.7500
Zn1_3 Zn -0.2500 0.72122(3) 0.7500
O1A O 0.91631(18) 0.71909(12) 0.91339(13)
H1A H 1.0154 0.6991 0.8958
O2A O -0.03251(18) 0.70955(13) 0.62749(13)
O2A_2 O 0.96749(18) 0.70955(13) 0.62749(13)
C1A C 0.1922(2) 0.84124(17) 0.69793(16)
C2A C 0.1302(2) 0.72725(18) 0.63849(17)
C3A C 0.1398(3) 0.9481(2) 0.64652(19)
H2A H 0.0652 0.9486 0.5762
C4A C 0.6021(3) 0.47083(19) 0.7280(2)
H3A H 0.4981 0.5124 0.7139
C6A C 0.5963(3) 0.34928(19) 0.7252(2)
H4A H 0.4912 0.3102 0.7069
C8A C 0.6855(3) -0.02981(19) 0.65250(18)
H5A H 0.6415 -0.0709 0.5835
O3A O 0.24389(19) 0.65801(14) 0.60086(15)
C9A C 0.1958(3) 1.05364(19) 0.6973(2)
H6A H 0.1609 1.1247 0.6607
C10A C 0.6814(3) 0.09180(19) 0.64980(18)
H7A H 0.6329 0.1311 0.5810
N2_2 N 0.7500 0.9079(2) 0.7500
H8A H 0.8785 0.6851 0.9638
O4 O 0.7840(2) 0.58798(19) 0.43660(15)
H9 H 0.8656 0.6044 0.4855
H10 H 0.7881 0.5253 0.4341
loop_
_geom_bond_atom_site_label_1
_geom_bond_atom_site_label_2
_geom_bond_site_symmetry_1
_geom_bond_site_symmetry_2
Zn1 O1 1_555 1_555
O1 H1 1_555 1_555
O2 Zn1 1_555 1_555
C1 C2 1_555 1_555
C2 O2 1_555 1_555
N1 Zn1 1_555 1_555
C3 C1 1_555 1_555
H2 C3 1_555 1_555
C4 N1 1_555 1_555
H3 C4 1_555 1_555
C5 C6 1_555 1_555
C6 C4 1_555 1_555
H4 C6 1_555 1_555
C7 C5 1_555 1_555
C8 H5 1_555 1_555
O3 C2 1_555 1_555
O4 H9 1_555 1_555
C9 C3 1_555 1_555
H6 C9 1_555 1_555
C10 C7 1_555 1_555
H7 C10 1_555 1_555
N2 C8 1_555 1_555
H8 O1 1_555 1_555
H10 O4 1_555 1_555
Zn1_2 N2 1_555 1_555
Zn1_3 O2A 1_555 1_555
O1A Zn1 1_555 1_555
H1A O1A 1_555 1_555
O2A C2A 1_555 1_555
O2A_2 Zn1 1_555 1_555
C1A C1 1_555 1_555
C2A C1A 1_555 1_555
C3A C1A 1_555 1_555
H2A C3A 1_555 1_555
C4A N1 1_555 1_555
H3A C4A 1_555 1_555
C6A C5 1_555 1_555
H4A C6A 1_555 1_555
C8A N2 1_555 1_555
H5A C8A 1_555 1_555
O3A C2A 1_555 1_555
C9A C9 1_555 1_555
H6A C9A 1_555 1_555
C10A C7 1_555 1_555
H7A C10A 1_555 1_555
N2_2 Zn1 1_555 1_555
H8A O1A 1_555 1_555
C8 C10 1_555 1_555
C3A C9A 1_555 1_555
C4A C6A 1_555 1_555
C8A C10A 1_555 1_555

#END
