
#######################################################################
#
#                 Cambridge Crystallographic Data Centre
#                                CCDC 
#
#######################################################################
#
# If this CIF has been generated from an entry in the Cambridge 
# Structural Database, then it will include bibliographic, chemical, 
# crystal, experimental, refinement or atomic coordinate data resulting 
# from the CCDC's data processing and validation procedures.
#
#######################################################################

data_JELMOD
_symmetry_cell_setting           monoclinic
_symmetry_space_group_name_H-M   'P 21/n'
_symmetry_Int_Tables_number      14
_space_group_name_Hall           '-P 2yn'
loop_
_symmetry_equiv_pos_site_id
_symmetry_equiv_pos_as_xyz
1 x,y,z
2 1/2-x,1/2+y,1/2-z
3 -x,-y,-z
4 1/2+x,1/2-y,1/2+z
_cell_length_a                   6.5965(1)
_cell_length_b                   10.9595(3)
_cell_length_c                   9.6633(2)
_cell_angle_alpha                90
_cell_angle_beta                 96.457(1)
_cell_angle_gamma                90
_cell_volume                     694.17
loop_
_atom_site_label
_atom_site_type_symbol
_atom_site_fract_x
_atom_site_fract_y
_atom_site_fract_z
La1 La 0.671692(16) 0.157821(10) 0.106566(12)
S1 S 0.20009(7) 0.17673(5) -0.03451(6)
O1 O 0.3339(3) 0.26910(17) 0.0399(2)
O2 O 0.3244(3) 0.06253(16) -0.0300(2)
O3 O 0.0190(3) 0.1579(2) 0.0361(3)
O4 O 0.1414(3) 0.2120(2) -0.1798(2)
O5 O 0.4533(3) 0.0531(2) 0.26993(19)
O6 O 0.2375(3) 0.12568(19) 0.5429(2)
C1 C 0.4805(3) 0.0252(2) 0.3967(2)
C2 C 0.3827(3) 0.0577(2) 0.5192(2)
O7 O 0.6520(4) 0.1792(2) -0.1618(2)
O8 O 0.9234(3) 0.0591(2) 0.2929(2)
H1 H 0.770(4) 0.195(4) -0.206(4)
H2 H 0.603(6) 0.101(2) -0.192(5)
H3 H 0.993(6) 0.102(3) 0.368(3)
H4 H 0.898(7) -0.019(2) 0.325(4)
La1B La 0.328308(16) -0.157821(10) -0.106566(12)
La1_2 La -0.328308(16) 0.157821(10) 0.106566(12)
La1C La 0.171692(16) 0.342179(10) -0.393434(12)
La1C_2 La 0.171692(16) 0.342179(10) 0.606566(12)
La1B_2 La 0.328308(16) -0.157821(10) 0.893434(12)
La1A La 0.828308(16) -0.342179(10) 0.393434(12)
La1B_3 La 1.328308(16) -0.157821(10) -0.106566(12)
S1B S 0.79991(7) -0.17673(5) 0.03451(6)
O1B O 0.6661(3) -0.26910(17) -0.0399(2)
O2B O 0.6756(3) -0.06253(16) 0.0300(2)
O3B O 0.9810(3) -0.1579(2) -0.0361(3)
O3_2 O 1.0190(3) 0.1579(2) 0.0361(3)
O3B_2 O -0.0190(3) -0.1579(2) -0.0361(3)
O4B O 0.8586(3) -0.2120(2) 0.1798(2)
O4C O 0.6414(3) 0.2880(2) 0.3202(2)
O4A O 0.3586(3) -0.2880(2) -0.3202(2)
O5B O 0.5467(3) -0.0531(2) 0.73007(19)
O5B_2 O 0.5467(3) -0.0531(2) -0.26993(19)
O6B O 0.7625(3) -0.12568(19) 0.4571(2)
O6C O 0.7375(3) 0.37432(19) 0.0429(2)
O6A O 0.2625(3) -0.37432(19) -0.0429(2)
C1B C 0.5195(3) -0.0252(2) 0.6033(2)
C2B C 0.6173(3) -0.0577(2) 0.4808(2)
O7B O 0.3480(4) -0.1792(2) 0.1618(2)
O8B O 0.0766(3) -0.0591(2) -0.2929(2)
H1B H 0.230(4) -0.195(4) 0.206(4)
H2B H 0.397(6) -0.101(2) 0.192(5)
H3B H 0.007(6) -0.102(3) -0.368(3)
H4B H 0.102(7) 0.019(2) -0.325(4)
loop_
_geom_bond_atom_site_label_1
_geom_bond_atom_site_label_2
_geom_bond_site_symmetry_1
_geom_bond_site_symmetry_2
La1 O1 1_555 1_555
S1 O1 1_555 1_555
O2 La1 1_555 1_555
O3 S1 1_555 1_555
O4 S1 1_555 1_555
O5 La1 1_555 1_555
O6 C2 1_555 1_555
C1 O5 1_555 1_555
C2 C1 1_555 1_555
O7 La1 1_555 1_555
O8 La1 1_555 1_555
H1 O7 1_555 1_555
H2 O7 1_555 1_555
H3 O8 1_555 1_555
H4 O8 1_555 1_555
La1B O2 1_555 1_555
La1_2 O3 1_555 1_555
La1C O4 1_555 1_555
La1C_2 O6 1_555 1_555
La1B_2 O5B 1_555 1_555
La1A O4B 1_555 1_555
La1B_3 O3B 1_555 1_555
S1B O1B 1_555 1_555
O1B La1B 1_555 1_555
O2B La1 1_555 1_555
O3B S1B 1_555 1_555
O3_2 La1 1_555 1_555
O3B_2 La1B 1_555 1_555
O4B S1B 1_555 1_555
O4C La1 1_555 1_555
O4A La1B 1_555 1_555
O5B C1B 1_555 1_555
O5B_2 La1B 1_555 1_555
O6B La1A 1_555 1_555
O6C La1 1_555 1_555
O6A La1B 1_555 1_555
C1B C2 1_555 1_555
C2B C1 1_555 1_555
O7B La1B 1_555 1_555
O8B La1B 1_555 1_555
H1B O7B 1_555 1_555
H2B O7B 1_555 1_555
H3B O8B 1_555 1_555
H4B O8B 1_555 1_555
S1 O2 1_555 1_555
La1B O2B 1_555 1_555
S1B O2B 1_555 1_555
O6B C2B 1_555 1_555
C1B C2B 1_555 1_555

#END
