
#######################################################################
#
#                 Cambridge Crystallographic Data Centre
#                                CCDC 
#
#######################################################################
#
# If this CIF has been generated from an entry in the Cambridge 
# Structural Database, then it will include bibliographic, chemical, 
# crystal, experimental, refinement or atomic coordinate data resulting 
# from the CCDC's data processing and validation procedures.
#
#######################################################################

data_JELPIZ
_symmetry_cell_setting           triclinic
_symmetry_space_group_name_H-M   'P -1'
_symmetry_Int_Tables_number      2
_space_group_name_Hall           '-P 1'
loop_
_symmetry_equiv_pos_site_id
_symmetry_equiv_pos_as_xyz
1 x,y,z
2 -x,-y,-z
_cell_length_a                   8.598(5)
_cell_length_b                   10.378(6)
_cell_length_c                   11.205(6)
_cell_angle_alpha                96.43(5)
_cell_angle_beta                 94.34(4)
_cell_angle_gamma                91.16(5)
_cell_volume                     990.268
loop_
_atom_site_label
_atom_site_type_symbol
_atom_site_fract_x
_atom_site_fract_y
_atom_site_fract_z
Cu1 Cu 0.9218(1) 0.2663(1) 0.1967(1)
S1 S 0.7111(2) 0.4527(2) 0.2137(2)
S2 S 0.5201(2) 0.3333(2) 0.2170(3)
O1 O 0.9050(6) 0.2841(5) 0.3682(4)
O2 O 0.8174(16) 0.3697(9) 0.5361(6)
O4 O 0.0810(5) 0.4081(5) 0.2036(5)
O5 O 0.2257(6) 0.2381(5) 0.2311(5)
N1 N 0.9298(6) 0.2229(5) 0.0190(5)
N2 N 0.7903(6) 0.1019(6) 0.1740(5)
C1 C 0.8342(11) 0.3693(8) 0.4293(8)
C2 C 0.8003(14) 0.5000(11) 0.3642(9)
C4 C 0.7081(15) 0.5940(11) 0.4357(10)
C6 C 0.3599(9) 0.4498(8) 0.2318(10)
C7 C 0.3539(10) 0.5428(10) 0.1470(11)
C8 C 0.2110(9) 0.3541(9) 0.2205(7)
C9 C 1.0060(8) 0.2939(8) -0.0531(7)
C10 C 1.0085(10) 0.2550(8) -0.1717(7)
C11 C 0.8519(8) 0.1142(7) -0.0291(6)
C12 C 0.8485(9) 0.0715(8) -0.1501(7)
C13 C 0.9295(11) 0.1451(9) -0.2225(7)
C14 C 0.7711(8) 0.0448(7) 0.0593(7)
C15 C 0.6819(8) -0.0673(7) 0.0273(7)
C16 C 0.6112(9) -0.1235(8) 0.1173(8)
C17 C 0.6301(9) -0.0665(8) 0.2322(8)
C18 C 0.7205(9) 0.0457(8) 0.2583(7)
H1 H 0.8998 0.5446 0.3580
H2 H 0.6864 0.6719 0.3870
H3 H 0.7677 0.6167 0.5207
H4 H 0.5940 0.5434 0.4475
H5 H 0.3677 0.5097 0.3131
H6 H 0.4602 0.5995 0.1596
H7 H 0.2549 0.5982 0.1582
H8 H 0.3466 0.4891 0.0555
H9 H 1.0659 0.3833 -0.0151
H10 H 1.0736 0.3117 -0.2272
H11 H 0.9297 0.1153 -0.3179
H12 H 0.7855 -0.0167 -0.1876
H13 H 0.6674 -0.1105 -0.0653
H14 H 0.5416 -0.2120 0.0953
H15 H 0.5750 -0.1084 0.3028
H16 H 0.7354 0.0901 0.3505
O4_2 O 1.0810(5) 0.4081(5) 0.2036(5)
Cu1_2 Cu -0.0782(1) 0.2663(1) 0.1967(1)
O6 O 0.3599(10) 0.0984(10) 0.4116(8)
O8 O 0.0699(14) 0.1162(10) 0.5099(7)
O10 O 0.6092(12) 0.1599(11) 0.5731(8)
O3? O 0.7582 0.3449 0.5268
O7? O 0.3007 0.1019 0.4452
O9? O 0.0945 0.0868 0.4821
O11? O 0.5386 0.2850 0.6097
C3? C 0.7520 0.4697 0.3888
C5? C 0.8511 0.5965 0.4260
loop_
_geom_bond_atom_site_label_1
_geom_bond_atom_site_label_2
_geom_bond_site_symmetry_1
_geom_bond_site_symmetry_2
Cu1 S1 1_555 1_555
S1 S2 1_555 1_555
S2 C6 1_555 1_555
O1 Cu1 1_555 1_555
O2 C1 1_555 1_555
O4 C8 1_555 1_555
O5 C8 1_555 1_555
N1 Cu1 1_555 1_555
N2 Cu1 1_555 1_555
C1 O1 1_555 1_555
C2 S1 1_555 1_555
C4 C2 1_555 1_555
C6 C7 1_555 1_555
C7 H6 1_555 1_555
C8 C6 1_555 1_555
C9 N1 1_555 1_555
C10 C9 1_555 1_555
C11 N1 1_555 1_555
C12 C11 1_555 1_555
C13 C10 1_555 1_555
C14 N2 1_555 1_555
C15 C14 1_555 1_555
C16 C15 1_555 1_555
C17 C16 1_555 1_555
C18 N2 1_555 1_555
H1 C2 1_555 1_555
H2 C4 1_555 1_555
H3 C4 1_555 1_555
H4 C4 1_555 1_555
H5 C6 1_555 1_555
H7 C7 1_555 1_555
H8 C7 1_555 1_555
H9 C9 1_555 1_555
H10 C10 1_555 1_555
H11 C13 1_555 1_555
H12 C12 1_555 1_555
H13 C15 1_555 1_555
H14 C16 1_555 1_555
H15 C17 1_555 1_555
H16 C18 1_555 1_555
O4_2 Cu1 1_555 1_555
Cu1_2 O4 1_555 1_555
C1 C2 1_555 1_555
C11 C14 1_555 1_555
C12 C13 1_555 1_555
C17 C18 1_555 1_555

#END
