
#######################################################################
#
#                 Cambridge Crystallographic Data Centre
#                                CCDC 
#
#######################################################################
#
# If this CIF has been generated from an entry in the Cambridge 
# Structural Database, then it will include bibliographic, chemical, 
# crystal, experimental, refinement or atomic coordinate data resulting 
# from the CCDC's data processing and validation procedures.
#
#######################################################################

data_JELVOM
_symmetry_cell_setting           monoclinic
_symmetry_space_group_name_H-M   'P 21/c'
_symmetry_Int_Tables_number      14
_space_group_name_Hall           '-P 2ybc'
loop_
_symmetry_equiv_pos_site_id
_symmetry_equiv_pos_as_xyz
1 x,y,z
2 -x,1/2+y,1/2-z
3 -x,-y,-z
4 x,1/2-y,1/2+z
_cell_length_a                   9.842(2)
_cell_length_b                   14.782(3)
_cell_length_c                   8.5491(17)
_cell_angle_alpha                90
_cell_angle_beta                 102.34(3)
_cell_angle_gamma                90
_cell_volume                     1215.03
loop_
_atom_site_label
_atom_site_type_symbol
_atom_site_fract_x
_atom_site_fract_y
_atom_site_fract_z
Cu1 Cu 0.83877(4) 0.96201(3) 0.00021(6)
O1 O 0.8763(3) 0.8422(2) -0.0701(4)
O2 O 0.7160(3) 0.7535(2) 0.0065(5)
O3 O 1.1713(3) 0.5607(3) -0.1204(4)
O4 O 1.0217(3) 0.53620(19) -0.3489(3)
N1 N 0.7846(3) 1.0793(2) 0.0897(4)
N2 N 0.6509(3) 0.9772(2) -0.1452(4)
C1 C 0.8590(4) 1.1271(3) 0.2116(5)
H1 H 0.9437 1.1040 0.2665
C2 C 0.8147(4) 1.2091(3) 0.2588(6)
H2 H 0.8678 1.2405 0.3448
C3 C 0.6884(4) 1.2440(3) 0.1750(6)
H3 H 0.6576 1.3001 0.2021
C4 C 0.6094(4) 1.1943(3) 0.0509(5)
H4 H 0.5239 1.2160 -0.0045
C5 C 0.6593(4) 1.1120(3) 0.0103(5)
C6 C 0.5839(4) 1.0536(3) -0.1201(5)
C7 C 0.4531(4) 1.0739(3) -0.2128(5)
H5 H 0.4074 1.1268 -0.1948
C8 C 0.3925(4) 1.0149(3) -0.3311(5)
H6 H 0.3046 1.0269 -0.3931
C9 C 0.4628(5) 0.9375(3) -0.3578(6)
H7 H 0.4236 0.8972 -0.4384
C10 C 0.5919(4) 0.9211(3) -0.2628(5)
H8 H 0.6398 0.8693 -0.2810
C11 C 0.8178(4) 0.7663(3) -0.0523(6)
C12 C 0.8910(4) 0.6906(3) -0.1102(5)
C13 C 0.9580(4) 0.6331(3) -0.1575(5)
C14 C 1.0576(4) 0.5716(3) -0.2099(5)
Cu1C Cu 0.83877(4) 0.53799(3) -0.49979(6)
Cu1A Cu 1.16123(4) 0.46201(3) -0.50021(6)
O4C O 1.0217(3) 0.96380(19) 0.1511(3)
O4A O 0.9783(3) 1.03620(19) -0.1511(3)
loop_
_geom_bond_atom_site_label_1
_geom_bond_atom_site_label_2
_geom_bond_site_symmetry_1
_geom_bond_site_symmetry_2
Cu1 O1 1_555 1_555
O1 C11 1_555 1_555
O2 C11 1_555 1_555
O3 C14 1_555 1_555
O4 C14 1_555 1_555
N1 Cu1 1_555 1_555
N2 Cu1 1_555 1_555
C1 N1 1_555 1_555
H1 C1 1_555 1_555
C2 C1 1_555 1_555
H2 C2 1_555 1_555
C3 C2 1_555 1_555
H3 C3 1_555 1_555
C4 C3 1_555 1_555
H4 C4 1_555 1_555
C5 N1 1_555 1_555
C6 N2 1_555 1_555
C7 C6 1_555 1_555
H5 C7 1_555 1_555
C8 C7 1_555 1_555
H6 C8 1_555 1_555
C9 C8 1_555 1_555
H7 C9 1_555 1_555
C10 N2 1_555 1_555
H8 C10 1_555 1_555
C11 C12 1_555 1_555
C12 C13 1_555 1_555
C13 C14 1_555 1_555
Cu1C O4 1_555 1_555
Cu1A O4 1_555 1_555
O4C Cu1 1_555 1_555
O4A Cu1 1_555 1_555
C4 C5 1_555 1_555
C5 C6 1_555 1_555
C9 C10 1_555 1_555

#END
