
#######################################################################
#
#                 Cambridge Crystallographic Data Centre
#                                CCDC 
#
#######################################################################
#
# If this CIF has been generated from an entry in the Cambridge 
# Structural Database, then it will include bibliographic, chemical, 
# crystal, experimental, refinement or atomic coordinate data resulting 
# from the CCDC's data processing and validation procedures.
#
#######################################################################

data_JEMQEY
_symmetry_cell_setting           monoclinic
_symmetry_space_group_name_H-M   'P 21'
_symmetry_Int_Tables_number      4
_space_group_name_Hall           'P 2yb'
loop_
_symmetry_equiv_pos_site_id
_symmetry_equiv_pos_as_xyz
1 x,y,z
2 -x,1/2+y,-z
_cell_length_a                   9.0805(18)
_cell_length_b                   8.6463(17)
_cell_length_c                   11.888(2)
_cell_angle_alpha                90
_cell_angle_beta                 110.25(3)
_cell_angle_gamma                90
_cell_volume                     875.67
loop_
_atom_site_label
_atom_site_type_symbol
_atom_site_fract_x
_atom_site_fract_y
_atom_site_fract_z
Nd1 Nd 0.47441(4) 0.25112(8) 0.01227(3)
O1 O 0.5767(12) 0.5304(12) 0.1147(7)
O2 O 0.3676(12) 0.0617(13) 0.1503(8)
O3 O 0.7320(11) -0.1164(11) 0.9183(8)
O4 O 1.2023(11) 0.3241(12) 0.8679(8)
O5 O 0.6003(11) 0.3213(12) 0.2244(8)
C1 C 1.2236(15) 0.4642(14) 0.8496(10)
C2 C 0.8067(16) 0.4576(16) 0.4349(11)
H1 H 0.8708 0.3738 0.4185
H2 H 0.7222 0.4099 0.4580
C3 C 0.7343(17) 0.5580(17) 0.3213(11)
H3 H 0.6708 0.6419 0.3383
H4 H 0.8193 0.6060 0.2989
C4 C 1.0028(16) 0.4585(18) 0.6509(12)
H5 H 0.9267 0.4043 0.6798
H6 H 1.0655 0.3796 0.6273
C5 C 1.1099(14) 0.5575(15) 0.7503(10)
H7 H 1.1697 0.6279 0.7163
H8 H 1.0453 0.6220 0.7841
O6 O 0.4786(12) -0.1701(13) 0.1767(9)
O7 O 0.7488(11) 0.3248(13) 0.0302(8)
O8 O 1.3542(10) 0.5307(13) 0.9161(8)
C6 C 0.4262(15) -0.0525(16) 0.2131(12)
C7 C 0.4386(17) -0.0520(18) 0.3449(12)
H9 H 0.4118 -0.1556 0.3676
H10 H 0.3635 0.0237 0.3568
C8 C 0.9111(18) 0.5614(18) 0.5384(13)
H11 H 0.8447 0.6374 0.5610
H12 H 0.9870 0.6191 0.5114
O9 O 0.7651(11) -0.261(2) 0.7690(8)
C9 C 0.760(3) -0.131(2) 0.8280(15)
C10 C 0.795(2) 0.019(2) 0.6402(15)
H13 H 0.8633 -0.0646 0.6287
H14 H 0.8311 0.1178 0.6172
C11 C 0.622(2) -0.012(2) 0.5573(15)
H15 H 0.5874 -0.1145 0.5763
H16 H 0.5521 0.0675 0.5718
C12 C 0.609(2) -0.008(2) 0.4252(17)
H17 H 0.6843 -0.0822 0.4117
H18 H 0.6347 0.0966 0.4041
C13 C 0.810(2) 0.025(2) 0.7727(14)
H19 H 0.7446 0.1116 0.7832
H20 H 0.9205 0.0497 0.8207
C14 C 0.6325(13) 0.4607(14) 0.2191(10)
H21 H 0.287(15) 0.088(17) 0.212(12)
Nd1A Nd 0.52559(4) 0.75112(8) -0.01227(3)
Nd1A_2 Nd 0.52559(4) -0.24888(8) 0.98773(3)
Nd1_2 Nd 1.47441(4) 0.25112(8) 1.01227(3)
Nd1A_3 Nd 0.52559(4) -0.24888(8) -0.01227(3)
Nd1A_4 Nd 1.52559(4) 0.75112(8) 0.98773(3)
O1A O 0.4233(12) 0.0304(12) -0.1147(7)
O3A O 0.2680(11) 0.3836(11) 0.0817(8)
O4_2 O 0.2023(11) 0.3241(12) -0.1321(8)
O6A O 0.5214(12) 0.3299(13) -0.1767(9)
O8_2 O 0.3542(10) 0.5307(13) -0.0839(8)
O8A O 0.6458(10) 0.0307(13) 0.0839(8)
O10 O 0.056(2) 0.648(2) 0.0491(17)
loop_
_geom_bond_atom_site_label_1
_geom_bond_atom_site_label_2
_geom_bond_site_symmetry_1
_geom_bond_site_symmetry_2
Nd1 O1 1_555 1_555
O1 C14 1_555 1_555
O2 Nd1 1_555 1_555
O3 C9 1_555 1_555
O4 C1 1_555 1_555
O5 Nd1 1_555 1_555
C1 C5 1_555 1_555
C2 H1 1_555 1_555
H2 C2 1_555 1_555
C3 C2 1_555 1_555
H3 C3 1_555 1_555
H4 C3 1_555 1_555
C4 H5 1_555 1_555
H6 C4 1_555 1_555
C5 C4 1_555 1_555
H7 C5 1_555 1_555
H8 C5 1_555 1_555
O6 C6 1_555 1_555
O7 Nd1 1_555 1_555
O8 C1 1_555 1_555
C6 O2 1_555 1_555
C7 C6 1_555 1_555
H9 C7 1_555 1_555
H10 C7 1_555 1_555
C8 C2 1_555 1_555
H11 C8 1_555 1_555
H12 C8 1_555 1_555
O9 C9 1_555 1_555
C9 C13 1_555 1_555
C10 H13 1_555 1_555
H14 C10 1_555 1_555
C11 C10 1_555 1_555
H15 C11 1_555 1_555
H16 C11 1_555 1_555
C12 C7 1_555 1_555
H17 C12 1_555 1_555
H18 C12 1_555 1_555
C13 C10 1_555 1_555
H19 C13 1_555 1_555
H20 C13 1_555 1_555
C14 O5 1_555 1_555
H21 O2 1_555 1_555
Nd1A O1 1_555 1_555
Nd1A_2 O3 1_555 1_555
Nd1_2 O4 1_555 1_555
Nd1A_3 O6 1_555 1_555
Nd1A_4 O8 1_555 1_555
O1A Nd1 1_555 1_555
O3A Nd1 1_555 1_555
O4_2 Nd1 1_555 1_555
O6A Nd1 1_555 1_555
O8_2 Nd1 1_555 1_555
O8A Nd1 1_555 1_555
C3 C14 1_555 1_555
C4 C8 1_555 1_555
O8 Nd1_2 1_555 1_555
C11 C12 1_555 1_555
Nd1A O8_2 1_555 1_555
Nd1A_3 O1A 1_555 1_555
Nd1A_3 O8A 1_555 1_555

#END
