
#######################################################################
#
#                 Cambridge Crystallographic Data Centre
#                                CCDC 
#
#######################################################################
#
# If this CIF has been generated from an entry in the Cambridge 
# Structural Database, then it will include bibliographic, chemical, 
# crystal, experimental, refinement or atomic coordinate data resulting 
# from the CCDC's data processing and validation procedures.
#
#######################################################################

data_JEMSUQ
_symmetry_cell_setting           monoclinic
_symmetry_space_group_name_H-M   'C 2/m'
_symmetry_Int_Tables_number      12
_space_group_name_Hall           '-C 2y'
loop_
_symmetry_equiv_pos_site_id
_symmetry_equiv_pos_as_xyz
1 x,y,z
2 1/2+x,1/2+y,z
3 -x,y,-z
4 1/2-x,1/2+y,-z
5 -x,-y,-z
6 1/2-x,1/2-y,-z
7 x,-y,z
8 1/2+x,1/2-y,z
_cell_length_a                   17.542(14)
_cell_length_b                   20.644(16)
_cell_length_c                   8.788(7)
_cell_angle_alpha                90
_cell_angle_beta                 96.627(13)
_cell_angle_gamma                90
_cell_volume                     3161.2
loop_
_atom_site_label
_atom_site_type_symbol
_atom_site_fract_x
_atom_site_fract_y
_atom_site_fract_z
Ru1 Ru 0.23103(3) 0.19962(2) 0.45365(6)
F1 F 0.3438(3) 0.2376(2) 0.0072(5)
F2 F 0.4233(2) 0.3013(2) 0.1367(5)
F3 F 0.3152(2) 0.3364(2) 0.0302(5)
F4 F 0.0380(2) 0.3911(2) 0.3308(6)
F5 F -0.0152(2) 0.3001(2) 0.3421(6)
F6 F 0.0394(3) 0.3239(3) 0.1483(6)
F7 F 0.0565(2) 0.11493(14) 0.1144(4)
O1 O 0.2822(2) 0.2174(2) 0.2609(4)
O2 O 0.1298(2) 0.2411(2) 0.3525(4)
O3 O 0.3179(2) 0.3170(2) 0.3478(5)
O4 O 0.1673(2) 0.3391(2) 0.4452(4)
N1 N 0.1901(3) 0.1025(2) 0.3580(5)
C1 C 0.3135(4) 0.2722(3) 0.2488(7)
C2 C 0.3500(4) 0.2867(3) 0.1034(8)
C3 C 0.1206(3) 0.3011(3) 0.3716(7)
C4 C 0.0462(4) 0.3303(3) 0.2950(9)
C5 C 0.1617(3) 0.0578(2) 0.3032(6)
C6 C 0.1269(5) 0.0000 0.2383(9)
C7 C 0.0635(4) 0.0000 0.1225(9)
C8 C 0.0292(3) 0.0573(2) 0.0573(6)
Ru1E Ru 0.26897(3) 0.30038(2) 0.54635(6)
Ru1F Ru 0.23103(3) -0.19962(2) 0.45365(6)
Ru1D Ru -0.23103(3) -0.19962(2) -0.45365(6)
Ru1B Ru -0.23103(3) 0.19962(2) -0.45365(6)
Ru1C Ru 0.26897(3) -0.30038(2) 0.54635(6)
Ru1A Ru -0.26897(3) -0.30038(2) -0.54635(6)
F1E F 0.1562(3) 0.2624(2) 0.9928(5)
F1F F 0.3438(3) -0.2376(2) 0.0072(5)
F1C F 0.1562(3) -0.2624(2) 0.9928(5)
F2E F 0.0767(2) 0.1987(2) 0.8633(5)
F2F F 0.4233(2) -0.3013(2) 0.1367(5)
F2C F 0.0767(2) -0.1987(2) 0.8633(5)
F3E F 0.1848(2) 0.1636(2) 0.9698(5)
F3F F 0.3152(2) -0.3364(2) 0.0302(5)
F3C F 0.1848(2) -0.1636(2) 0.9698(5)
F4E F 0.4620(2) 0.1089(2) 0.6692(6)
F4F F 0.0380(2) -0.3911(2) 0.3308(6)
F4C F 0.4620(2) -0.1089(2) 0.6692(6)
F5E F 0.5152(2) 0.1999(2) 0.6579(6)
F5F F -0.0152(2) -0.3001(2) 0.3421(6)
F5C F 0.5152(2) -0.1999(2) 0.6579(6)
F6E F 0.4606(3) 0.1761(3) 0.8517(6)
F6F F 0.0394(3) -0.3239(3) 0.1483(6)
F6C F 0.4606(3) -0.1761(3) 0.8517(6)
F7F F 0.0565(2) -0.11493(14) 0.1144(4)
F7D F -0.0565(2) -0.11493(14) -0.1144(4)
F7B F -0.0565(2) 0.11493(14) -0.1144(4)
O1E O 0.2178(2) 0.2826(2) 0.7391(4)
O1F O 0.2822(2) -0.2174(2) 0.2609(4)
O1C O 0.2178(2) -0.2826(2) 0.7391(4)
O1D O -0.2822(2) -0.2174(2) -0.2609(4)
O2E O 0.3702(2) 0.2589(2) 0.6475(4)
O2F O 0.1298(2) -0.2411(2) 0.3525(4)
O2C O 0.3702(2) -0.2589(2) 0.6475(4)
O2D O -0.1298(2) -0.2411(2) -0.3525(4)
O3E O 0.1821(2) 0.1830(2) 0.6522(5)
O3F O 0.3179(2) -0.3170(2) 0.3478(5)
O3C O 0.1821(2) -0.1830(2) 0.6522(5)
O3A O -0.1821(2) -0.1830(2) -0.6522(5)
O4E O 0.3327(2) 0.1609(2) 0.5548(4)
O4F O 0.1673(2) -0.3391(2) 0.4452(4)
O4C O 0.3327(2) -0.1609(2) 0.5548(4)
O4A O -0.3327(2) -0.1609(2) -0.5548(4)
N1F N 0.1901(3) -0.1025(2) 0.3580(5)
N1D N -0.1901(3) -0.1025(2) -0.3580(5)
N1B N -0.1901(3) 0.1025(2) -0.3580(5)
N1E N 0.3099(3) 0.3975(2) 0.6420(5)
C1E C 0.1865(4) 0.2278(3) 0.7512(7)
C1F C 0.3135(4) -0.2722(3) 0.2488(7)
C1C C 0.1865(4) -0.2278(3) 0.7512(7)
C2E C 0.1500(4) 0.2133(3) 0.8966(8)
C2F C 0.3500(4) -0.2867(3) 0.1034(8)
C2C C 0.1500(4) -0.2133(3) 0.8966(8)
C3E C 0.3794(3) 0.1989(3) 0.6284(7)
C3F C 0.1206(3) -0.3011(3) 0.3716(7)
C3C C 0.3794(3) -0.1989(3) 0.6284(7)
C4E C 0.4538(4) 0.1697(3) 0.7050(9)
C4F C 0.0462(4) -0.3303(3) 0.2950(9)
C4C C 0.4538(4) -0.1697(3) 0.7050(9)
C5F C 0.1617(3) -0.0578(2) 0.3032(6)
C5D C -0.1617(3) -0.0578(2) -0.3032(6)
C5B C -0.1617(3) 0.0578(2) -0.3032(6)
C6D C -0.1269(5) 0.0000 -0.2383(9)
C7D C -0.0635(4) 0.0000 -0.1225(9)
C8F C 0.0292(3) -0.0573(2) 0.0573(6)
C8D C -0.0292(3) -0.0573(2) -0.0573(6)
C8B C -0.0292(3) 0.0573(2) -0.0573(6)
C9 C 0.3759(11) 0.000000(10) 0.354(2)
C10 C 0.3504(9) 0.0000 0.188(2)
C11 C 0.3412(6) 0.0588(4) 0.1174(17)
C12 C 0.3163(7) 0.0577(5) -0.0454(18)
C13 C 0.3039(10) 0.0000 -0.122(2)
C14 C 0.2805(10) 0.000000(10) -0.283(2)
H2 H 0.3408 0.0243 0.4054
H4 H 0.3505 0.0982 0.1722
H5 H 0.3085 0.0973 -0.1000
H6 H 0.2506 0.0376 -0.3101
H7 H 0.2506 -0.0376 -0.3101
H8 H 0.3244 0.0000 -0.3372
C11F C 0.3412(6) -0.0588(4) 0.1174(17)
C12F C 0.3163(7) -0.0577(5) -0.0454(18)
H2F H 0.3408 -0.0243 0.4054
H4F H 0.3505 -0.0982 0.1722
H5F H 0.3085 -0.0973 -0.1000
C15 C 0.000000(10) -0.1411(5) 0.500000(10)
C16 C 0.0000 -0.0680(4) 0.5000
C17 C -0.0538(4) -0.0335(3) 0.4040(7)
H11 H 0.0506 -0.1565 0.4940
H12 H -0.0909 -0.0566 0.3375
C15F C 0.000000(10) 0.1411(5) 0.500000(10)
C16F C 0.0000 0.0680(4) 0.5000
C17F C -0.0538(4) 0.0335(3) 0.4040(7)
C17D C 0.0538(4) 0.0335(3) 0.5960(7)
C17B C 0.0538(4) -0.0335(3) 0.5960(7)
H11F H 0.0506 0.1565 0.4940
H11D H -0.0506 0.1565 0.5060
H11B H -0.0506 -0.1565 0.5060
H12B H 0.0909 -0.0566 0.6625
H12D H 0.0909 0.0566 0.6625
H12F H -0.0909 0.0566 0.3375
H1? H 0.4254 0.0190 0.3716
H3? H 0.3779 -0.0433 0.3906
H9? H -0.0176 -0.1565 0.5917
H10? H -0.0330 -0.1565 0.4143
loop_
_geom_bond_atom_site_label_1
_geom_bond_atom_site_label_2
_geom_bond_site_symmetry_1
_geom_bond_site_symmetry_2
Ru1 O1 1_555 1_555
F1 C2 1_555 1_555
F2 C2 1_555 1_555
F3 C2 1_555 1_555
F4 C4 1_555 1_555
F5 C4 1_555 1_555
F6 C4 1_555 1_555
F7 C8 1_555 1_555
O1 C1 1_555 1_555
O2 Ru1 1_555 1_555
O3 C1 1_555 1_555
O4 C3 1_555 1_555
N1 Ru1 1_555 1_555
C1 C2 1_555 1_555
C3 O2 1_555 1_555
C4 C3 1_555 1_555
C5 N1 1_555 1_555
C6 C5 1_555 1_555
C7 C6 1_555 1_555
C8 C7 1_555 1_555
C9 C10 1_555 1_555
C10 C11 1_555 1_555
C11 C12 1_555 1_555
C12 C13 1_555 1_555
C13 C14 1_555 1_555
C14 H6 1_555 1_555
C15 C16 1_555 1_555
C16 C17 1_555 1_555
C17 H12 1_555 1_555
H2 C9 1_555 1_555
H4 C11 1_555 1_555
H5 C12 1_555 1_555
H7 C14 1_555 1_555
H8 C14 1_555 1_555
H11 C15 1_555 1_555
Ru1E Ru1 1_555 1_555
Ru1F Ru1C 1_555 1_555
Ru1D Ru1A 1_555 1_555
Ru1B N1B 1_555 1_555
Ru1C O1C 1_555 1_555
F1E C2E 1_555 1_555
F1F C2F 1_555 1_555
F1C C2C 1_555 1_555
F2E C2E 1_555 1_555
F2F C2F 1_555 1_555
F2C C2C 1_555 1_555
F3E C2E 1_555 1_555
F3F C2F 1_555 1_555
F3C C2C 1_555 1_555
F4E C4E 1_555 1_555
F4F C4F 1_555 1_555
F4C C4C 1_555 1_555
F5E C4E 1_555 1_555
F5F C4F 1_555 1_555
F5C C4C 1_555 1_555
F6E C4E 1_555 1_555
F6F C4F 1_555 1_555
F6C C4C 1_555 1_555
F7F C8F 1_555 1_555
F7D C8D 1_555 1_555
F7B C8B 1_555 1_555
O1E Ru1E 1_555 1_555
O1F Ru1F 1_555 1_555
O1C C1C 1_555 1_555
O1D Ru1D 1_555 1_555
O2E Ru1E 1_555 1_555
O2F Ru1F 1_555 1_555
O2C Ru1C 1_555 1_555
O2D Ru1D 1_555 1_555
O3E Ru1 1_555 1_555
O3F Ru1C 1_555 1_555
O3C Ru1F 1_555 1_555
O3A Ru1D 1_555 1_555
O4E Ru1 1_555 1_555
O4F Ru1C 1_555 1_555
O4C Ru1F 1_555 1_555
O4A Ru1D 1_555 1_555
N1F Ru1F 1_555 1_555
N1D Ru1D 1_555 1_555
N1B C5B 1_555 1_555
N1E Ru1E 1_555 1_555
C1E O1E 1_555 1_555
C1F O1F 1_555 1_555
C1C O3C 1_555 1_555
C2E C1E 1_555 1_555
C2F C1F 1_555 1_555
C2C C1C 1_555 1_555
C3E O2E 1_555 1_555
C3F O2F 1_555 1_555
C3C O2C 1_555 1_555
C4E C3E 1_555 1_555
C4F C3F 1_555 1_555
C4C C3C 1_555 1_555
C5F C6 1_555 1_555
C5D N1D 1_555 1_555
C5B C6D 1_555 1_555
C6D C5D 1_555 1_555
C7D C6D 1_555 1_555
C8F C7 1_555 1_555
C8D C7D 1_555 1_555
C8B C8 1_555 1_555
C11F C10 1_555 1_555
C12F C13 1_555 1_555
C15F C16F 1_555 1_555
C16F C17F 1_555 1_555
C17F C17 1_555 1_555
C17D C16F 1_555 1_555
C17B C16 1_555 1_555
H2F C9 1_555 1_555
H4F C11F 1_555 1_555
H5F C12F 1_555 1_555
H11F C15F 1_555 1_555
H11D C15F 1_555 1_555
H11B C15 1_555 1_555
H12B C17B 1_555 1_555
H12D C17D 1_555 1_555
H12F C17F 1_555 1_555
O3 Ru1E 1_555 1_555
O4 Ru1E 1_555 1_555
O3E C1E 1_555 1_555
O3F C1F 1_555 1_555
O4E C3E 1_555 1_555
O4F C3F 1_555 1_555
O4C C3C 1_555 1_555
N1F C5F 1_555 1_555
C7D C8B 1_555 1_555
C8F C8D 1_555 1_555
C11F C12F 1_555 1_555
C17D C17B 1_555 1_555

#END
