
#######################################################################
#
#                 Cambridge Crystallographic Data Centre
#                                CCDC 
#
#######################################################################
#
# If this CIF has been generated from an entry in the Cambridge 
# Structural Database, then it will include bibliographic, chemical, 
# crystal, experimental, refinement or atomic coordinate data resulting 
# from the CCDC's data processing and validation procedures.
#
#######################################################################

data_JEMTAX
_symmetry_cell_setting           monoclinic
_symmetry_space_group_name_H-M   'C 2/m'
_symmetry_Int_Tables_number      12
_space_group_name_Hall           '-C 2y'
loop_
_symmetry_equiv_pos_site_id
_symmetry_equiv_pos_as_xyz
1 x,y,z
2 1/2+x,1/2+y,z
3 -x,y,-z
4 1/2-x,1/2+y,-z
5 -x,-y,-z
6 1/2-x,1/2-y,-z
7 x,-y,z
8 1/2+x,1/2-y,z
_cell_length_a                   16.7809(8)
_cell_length_b                   20.8853(10)
_cell_length_c                   8.7101(4)
_cell_angle_alpha                90
_cell_angle_beta                 95.594(3)
_cell_angle_gamma                90
_cell_volume                     3038.13
loop_
_atom_site_label
_atom_site_type_symbol
_atom_site_fract_x
_atom_site_fract_y
_atom_site_fract_z
Ru1 Ru 0.229230(10) 0.201200(10) 0.45099(2)
F1 F 0.35160(16) 0.24007(12) 0.0022(2)
F2 F 0.43295(14) 0.30442(12) 0.1290(3)
F3 F 0.32019(13) 0.33879(11) 0.0257(2)
F4 F 0.03364(14) 0.39468(12) 0.3393(3)
F5 F -0.02450(14) 0.30248(11) 0.3398(3)
F6 F 0.03773(17) 0.33165(14) 0.1478(2)
O1 O 0.28410(12) 0.22077(11) 0.2539(2)
O2 O 0.12480(12) 0.24442(10) 0.3536(2)
O3 O 0.32361(13) 0.31715(12) 0.3474(2)
O4 O 0.16623(12) 0.33947(10) 0.4496(2)
N1 N 0.18682(14) 0.10526(12) 0.3470(2)
C1 C 0.31805(17) 0.27369(14) 0.2467(3)
C2 C 0.3558(2) 0.28897(17) 0.0989(4)
C3 C 0.1181(2) 0.30319(13) 0.3748(3)
C4 C 0.0404(2) 0.33477(18) 0.2990(4)
C5 C 0.16124(17) 0.05861(12) 0.2953(3)
C6 C 0.1280(2) 0.0000 0.2321(4)
C7 C 0.0645(2) 0.0000 0.1164(4)
C8 C 0.03085(17) 0.05964(12) 0.0567(3)
H1 H 0.0518 0.0991 0.0972
Ru1E Ru 0.270770(10) 0.298800(10) 0.54901(2)
Ru1F Ru 0.229230(10) -0.201200(10) 0.45099(2)
Ru1B Ru -0.229230(10) 0.201200(10) -0.45099(2)
Ru1D Ru -0.229230(10) -0.201200(10) -0.45099(2)
Ru1C Ru 0.270770(10) -0.298800(10) 0.54901(2)
Ru1G Ru -0.270770(10) 0.298800(10) -0.54901(2)
F1E F 0.14840(16) 0.25993(12) 0.9978(2)
F1F F 0.35160(16) -0.24007(12) 0.0022(2)
F1C F 0.14840(16) -0.25993(12) 0.9978(2)
F2E F 0.06705(14) 0.19558(12) 0.8710(3)
F2F F 0.43295(14) -0.30442(12) 0.1290(3)
F2C F 0.06705(14) -0.19558(12) 0.8710(3)
F3E F 0.17981(13) 0.16121(11) 0.9743(2)
F3F F 0.32019(13) -0.33879(11) 0.0257(2)
F3C F 0.17981(13) -0.16121(11) 0.9743(2)
F4E F 0.46636(14) 0.10532(12) 0.6607(3)
F4F F 0.03364(14) -0.39468(12) 0.3393(3)
F4C F 0.46636(14) -0.10532(12) 0.6607(3)
F5E F 0.52450(14) 0.19752(11) 0.6602(3)
F5F F -0.02450(14) -0.30248(11) 0.3398(3)
F5C F 0.52450(14) -0.19752(11) 0.6602(3)
F6E F 0.46227(17) 0.16835(14) 0.8522(2)
F6F F 0.03773(17) -0.33165(14) 0.1478(2)
F6C F 0.46227(17) -0.16835(14) 0.8522(2)
O1E O 0.21590(12) 0.27923(11) 0.7461(2)
O1F O 0.28410(12) -0.22077(11) 0.2539(2)
O1C O 0.21590(12) -0.27923(11) 0.7461(2)
O1B O -0.28410(12) 0.22077(11) -0.2539(2)
O2E O 0.37520(12) 0.25558(10) 0.6464(2)
O2F O 0.12480(12) -0.24442(10) 0.3536(2)
O2C O 0.37520(12) -0.25558(10) 0.6464(2)
O2B O -0.12480(12) 0.24442(10) -0.3536(2)
O3E O 0.17639(13) 0.18285(12) 0.6526(2)
O3F O 0.32361(13) -0.31715(12) 0.3474(2)
O3C O 0.17639(13) -0.18285(12) 0.6526(2)
O3G O -0.17639(13) 0.18285(12) -0.6526(2)
O4E O 0.33377(12) 0.16053(10) 0.5504(2)
O4F O 0.16623(12) -0.33947(10) 0.4496(2)
O4C O 0.33377(12) -0.16053(10) 0.5504(2)
O4G O -0.33377(12) 0.16053(10) -0.5504(2)
N1F N 0.18682(14) -0.10526(12) 0.3470(2)
N1B N -0.18682(14) 0.10526(12) -0.3470(2)
N1D N -0.18682(14) -0.10526(12) -0.3470(2)
N1E N 0.31318(14) 0.39474(12) 0.6530(2)
C1E C 0.18195(17) 0.22631(14) 0.7533(3)
C1F C 0.31805(17) -0.27369(14) 0.2467(3)
C1C C 0.18195(17) -0.22631(14) 0.7533(3)
C2E C 0.1442(2) 0.21103(17) 0.9011(4)
C2F C 0.3558(2) -0.28897(17) 0.0989(4)
C2C C 0.1442(2) -0.21103(17) 0.9011(4)
C3E C 0.3819(2) 0.19681(13) 0.6252(3)
C3F C 0.1181(2) -0.30319(13) 0.3748(3)
C3C C 0.3819(2) -0.19681(13) 0.6252(3)
C4E C 0.4596(2) 0.16523(18) 0.7010(4)
C4F C 0.0404(2) -0.33477(18) 0.2990(4)
C4C C 0.4596(2) -0.16523(18) 0.7010(4)
C5F C 0.16124(17) -0.05861(12) 0.2953(3)
C5B C -0.16124(17) 0.05861(12) -0.2953(3)
C5D C -0.16124(17) -0.05861(12) -0.2953(3)
C6D C -0.1280(2) 0.0000 -0.2321(4)
C7D C -0.0645(2) 0.0000 -0.1164(4)
C8B C -0.03085(17) 0.05964(12) -0.0567(3)
C8D C -0.03085(17) -0.05964(12) -0.0567(3)
C8F C 0.03085(17) -0.05964(12) 0.0567(3)
H1F H 0.0518 -0.0991 0.0972
H1D H -0.0518 -0.0991 -0.0972
H1B H -0.0518 0.0991 -0.0972
C9 C 0.3691(5) 0.000000(10) 0.3342(17)
C10 C 0.3512(6) 0.0000 0.1939(18)
C11 C 0.3414(3) 0.0607(2) 0.1106(10)
C12 C 0.3167(4) 0.0569(3) -0.0429(13)
C13 C 0.3085(6) 0.0000 -0.1309(17)
C14 C 0.2818(13) 0.000000(10) -0.295(2)
H3 H 0.3301 0.0233 0.3832
H5 H 0.3516 0.1007 0.1607
H6 H 0.3038 0.0960 -0.0954
H7 H 0.3205 0.0212 -0.3499
C11F C 0.3414(3) -0.0607(2) 0.1106(10)
C12F C 0.3167(4) -0.0569(3) -0.0429(13)
H3F H 0.3301 -0.0233 0.3832
H5F H 0.3516 -0.1007 0.1607
H6F H 0.3038 -0.0960 -0.0954
H7F H 0.3205 -0.0212 -0.3499
C15 C 0.000000(10) 0.1407(3) 0.500000(10)
C16 C 0.0000 0.0650(3) 0.5000
C17 C 0.0566(2) 0.0319(3) 0.5888(5)
H12 H 0.0019 0.1559 0.6031
H13 H 0.0963 0.0545 0.6523
C15F C 0.000000(10) -0.1407(3) 0.500000(10)
C16F C 0.0000 -0.0650(3) 0.5000
C17F C 0.0566(2) -0.0319(3) 0.5888(5)
C17D C -0.0566(2) -0.0319(3) 0.4112(5)
C17B C -0.0566(2) 0.0319(3) 0.4112(5)
H12F H 0.0019 -0.1559 0.6031
H12D H -0.0019 -0.1559 0.3969
H12B H -0.0019 0.1559 0.3969
H13B H -0.0963 0.0545 0.3477
H13D H -0.0963 -0.0545 0.3477
H13F H 0.0963 -0.0545 0.6523
H2? H 0.4201 0.0195 0.3567
H4? H 0.3711 -0.0428 0.3711
H8? H 0.2757 -0.0429 -0.3308
H9? H 0.2320 0.0217 -0.3121
H10? H 0.0455 0.1559 0.4541
H11? H -0.0474 0.1559 0.4428
loop_
_geom_bond_atom_site_label_1
_geom_bond_atom_site_label_2
_geom_bond_site_symmetry_1
_geom_bond_site_symmetry_2
Ru1 O1 1_555 1_555
F1 C2 1_555 1_555
F2 C2 1_555 1_555
F3 C2 1_555 1_555
F4 C4 1_555 1_555
F5 C4 1_555 1_555
F6 C4 1_555 1_555
O1 C1 1_555 1_555
O2 Ru1 1_555 1_555
O3 C1 1_555 1_555
O4 C3 1_555 1_555
N1 Ru1 1_555 1_555
C1 C2 1_555 1_555
C3 O2 1_555 1_555
C4 C3 1_555 1_555
C5 N1 1_555 1_555
C6 C5 1_555 1_555
C7 C6 1_555 1_555
C8 C7 1_555 1_555
C9 C10 1_555 1_555
C10 C11 1_555 1_555
C11 C12 1_555 1_555
C12 C13 1_555 1_555
C13 C14 1_555 1_555
C14 H7 1_555 1_555
C15 C16 1_555 1_555
C16 C17 1_555 1_555
C17 H13 1_555 1_555
H1 C8 1_555 1_555
H3 C9 1_555 1_555
H5 C11 1_555 1_555
H6 C12 1_555 1_555
H12 C15 1_555 1_555
Ru1E Ru1 1_555 1_555
Ru1F Ru1C 1_555 1_555
Ru1B Ru1G 1_555 1_555
Ru1D N1D 1_555 1_555
Ru1C O1C 1_555 1_555
F1E C2E 1_555 1_555
F1F C2F 1_555 1_555
F1C C2C 1_555 1_555
F2E C2E 1_555 1_555
F2F C2F 1_555 1_555
F2C C2C 1_555 1_555
F3E C2E 1_555 1_555
F3F C2F 1_555 1_555
F3C C2C 1_555 1_555
F4E C4E 1_555 1_555
F4F C4F 1_555 1_555
F4C C4C 1_555 1_555
F5E C4E 1_555 1_555
F5F C4F 1_555 1_555
F5C C4C 1_555 1_555
F6E C4E 1_555 1_555
F6F C4F 1_555 1_555
F6C C4C 1_555 1_555
O1E Ru1E 1_555 1_555
O1F Ru1F 1_555 1_555
O1C C1C 1_555 1_555
O1B Ru1B 1_555 1_555
O2E Ru1E 1_555 1_555
O2F Ru1F 1_555 1_555
O2C Ru1C 1_555 1_555
O2B Ru1B 1_555 1_555
O3E Ru1 1_555 1_555
O3F Ru1C 1_555 1_555
O3C Ru1F 1_555 1_555
O3G Ru1B 1_555 1_555
O4E Ru1 1_555 1_555
O4F Ru1C 1_555 1_555
O4C Ru1F 1_555 1_555
O4G Ru1B 1_555 1_555
N1F Ru1F 1_555 1_555
N1B Ru1B 1_555 1_555
N1D C5D 1_555 1_555
N1E Ru1E 1_555 1_555
C1E O1E 1_555 1_555
C1F O1F 1_555 1_555
C1C O3C 1_555 1_555
C2E C1E 1_555 1_555
C2F C1F 1_555 1_555
C2C C1C 1_555 1_555
C3E O2E 1_555 1_555
C3F O2F 1_555 1_555
C3C O2C 1_555 1_555
C4E C3E 1_555 1_555
C4F C3F 1_555 1_555
C4C C3C 1_555 1_555
C5F C6 1_555 1_555
C5B N1B 1_555 1_555
C5D C6D 1_555 1_555
C6D C5B 1_555 1_555
C7D C6D 1_555 1_555
C8B C8 1_555 1_555
C8D C7D 1_555 1_555
C8F C7 1_555 1_555
C11F C10 1_555 1_555
C12F C13 1_555 1_555
C15F C16F 1_555 1_555
C16F C17F 1_555 1_555
C17F C17 1_555 1_555
C17D C16F 1_555 1_555
C17B C16 1_555 1_555
H1F C8F 1_555 1_555
H1D C8D 1_555 1_555
H1B C8B 1_555 1_555
H3F C9 1_555 1_555
H5F C11F 1_555 1_555
H6F C12F 1_555 1_555
H7F C14 1_555 1_555
H12F C15F 1_555 1_555
H12D C15F 1_555 1_555
H12B C15 1_555 1_555
H13B C17B 1_555 1_555
H13D C17D 1_555 1_555
H13F C17F 1_555 1_555
O3 Ru1E 1_555 1_555
O4 Ru1E 1_555 1_555
O3E C1E 1_555 1_555
O3F C1F 1_555 1_555
O4E C3E 1_555 1_555
O4F C3F 1_555 1_555
O4C C3C 1_555 1_555
N1F C5F 1_555 1_555
C7D C8B 1_555 1_555
C8D C8F 1_555 1_555
C11F C12F 1_555 1_555
C17D C17B 1_555 1_555

#END
