
#######################################################################
#
#                 Cambridge Crystallographic Data Centre
#                                CCDC 
#
#######################################################################
#
# If this CIF has been generated from an entry in the Cambridge 
# Structural Database, then it will include bibliographic, chemical, 
# crystal, experimental, refinement or atomic coordinate data resulting 
# from the CCDC's data processing and validation procedures.
#
#######################################################################

data_JENKET
_symmetry_cell_setting           orthorhombic
_symmetry_space_group_name_H-M   'P n a 21'
_symmetry_Int_Tables_number      33
_space_group_name_Hall           'P 2c -2n'
loop_
_symmetry_equiv_pos_site_id
_symmetry_equiv_pos_as_xyz
1 x,y,z
2 -x,-y,1/2+z
3 1/2+x,1/2-y,z
4 1/2-x,1/2+y,1/2+z
_cell_length_a                   41.041(2)
_cell_length_b                   10.1287(5)
_cell_length_c                   40.3822(18)
_cell_angle_alpha                90
_cell_angle_beta                 90
_cell_angle_gamma                90
_cell_volume                     16786.6
loop_
_atom_site_label
_atom_site_type_symbol
_atom_site_fract_x
_atom_site_fract_y
_atom_site_fract_z
C1 C 0.35189(10) 0.2973(4) 0.06327(12)
C2 C 0.32569(10) 0.3632(4) 0.07836(11)
H1 H 0.3209 0.3452 0.1007
C3 C 0.30644(11) 0.4553(4) 0.06117(11)
C4 C 0.31546(10) 0.4845(4) 0.02909(10)
H2 H 0.3037 0.5491 0.0174
C5 C 0.34092(11) 0.4229(4) 0.01362(10)
C6 C 0.35905(10) 0.3300(4) 0.03095(10)
H3 H 0.3767 0.2883 0.0204
C7 C 0.35146(12) 0.4622(4) -0.02107(10)
C8 C 0.38335(13) 0.4557(5) -0.03155(12)
H4 H 0.3994 0.4265 -0.0166
C9 C 0.39270(12) 0.4905(5) -0.06315(11)
H5 H 0.4147 0.4828 -0.0693
C10 C 0.37071(13) 0.5358(4) -0.08568(11)
C11 C 0.33755(13) 0.5397(5) -0.07571(13)
H6 H 0.3214 0.5669 -0.0907
C12 C 0.32912(12) 0.5034(5) -0.04383(12)
H7 H 0.3071 0.5072 -0.0376
C13 C 0.38090(12) 0.5731(4) -0.12077(11)
C14 C 0.41273(11) 0.6062(4) -0.12810(11)
H8 H 0.4284 0.6042 -0.1111
C15 C 0.42220(12) 0.6422(4) -0.15962(11)
H9 H 0.4441 0.6631 -0.1640
C16 C 0.39890(12) 0.6475(4) -0.18522(11)
C17 C 0.36743(12) 0.6154(5) -0.17727(13)
H10 H 0.3515 0.6194 -0.1939
C18 C 0.35820(13) 0.5776(5) -0.14583(13)
H11 H 0.3364 0.5548 -0.1415
C19 C 0.27967(10) 0.5230(4) 0.07879(11)
C20 C 0.25208(12) 0.5573(4) 0.06230(11)
H12 H 0.2505 0.5396 0.0395
C21 C 0.22520(11) 0.6198(4) 0.07884(11)
H13 H 0.2056 0.6372 0.0676
C22 C 0.22899(10) 0.6537(4) 0.11177(11)
C23 C 0.25791(12) 0.6203(5) 0.12868(11)
H14 H 0.2605 0.6417 0.1512
C24 C 0.28250(12) 0.5556(5) 0.11171(13)
H15 H 0.3017 0.5333 0.1231
C25 C 0.20219(12) 0.7258(4) 0.12960(11)
C26 C 0.20867(11) 0.8174(4) 0.15483(12)
H16 H 0.2304 0.8348 0.1608
C27 C 0.18379(12) 0.8825(5) 0.17115(10)
H17 H 0.1887 0.9447 0.1877
C28 C 0.14456(12) 0.7678(4) 0.13817(12)
H18 H 0.1227 0.7521 0.1326
C29 C 0.16900(13) 0.7030(4) 0.12148(12)
H19 H 0.1637 0.6430 0.1046
C30 C 0.38711(12) 0.0957(4) 0.06635(12)
H20 H 0.3840 0.0850 0.0434
C31 C 0.37210(11) 0.1987(4) 0.08230(12)
C32 C 0.37600(13) 0.2107(4) 0.11676(12)
H21 H 0.3652 0.2781 0.1283
C33 C 0.40927(15) 0.6835(4) -0.21945(12)
C34 C 0.13823(11) 0.2986(4) 0.52896(11)
C35 C 0.12899(12) 0.3422(4) 0.49769(12)
H22 H 0.1105 0.3044 0.4877
C36 C 0.14632(13) 0.4415(4) 0.48022(12)
C37 C 0.17420(12) 0.4926(5) 0.49481(12)
H23 H 0.1860 0.5584 0.4836
C38 C 0.18517(12) 0.4489(4) 0.52576(13)
C39 C 0.16758(12) 0.3517(4) 0.54177(12)
H24 H 0.1754 0.3193 0.5621
C40 C 0.11872(12) 0.2022(4) 0.54813(11)
C41 C 0.09097(12) 0.1439(5) 0.53509(11)
H25 H 0.0848 0.1643 0.5133
C42 C 0.07253(13) 0.0586(5) 0.55281(13)
H26 H 0.0541 0.0206 0.5428
C43 C 0.07981(11) 0.0266(5) 0.58428(12)
C44 C 0.10715(14) 0.0830(6) 0.59723(14)
H27 H 0.1131 0.0614 0.6190
C45 C 0.12660(13) 0.1705(5) 0.57988(13)
H28 H 0.1451 0.2077 0.5899
C46 C 0.05890(12) -0.0674(5) 0.60427(12)
C47 C 0.04217(12) -0.1711(5) 0.58937(11)
H29 H 0.0449 -0.1857 0.5665
C48 C 0.02176(13) -0.2531(5) 0.60711(12)
H30 H 0.0108 -0.3220 0.5962
C49 C 0.01733(12) -0.2356(5) 0.64008(13)
C50 C 0.03450(13) -0.1344(4) 0.65674(11)
H31 H 0.0319 -0.1237 0.6797
C51 C 0.05556(12) -0.0494(5) 0.63907(13)
H32 H 0.0671 0.0177 0.6501
C52 C 0.21488(12) 0.5031(4) 0.54024(12)
C53 C 0.23602(14) 0.4201(5) 0.55891(15)
H33 H 0.2303 0.3314 0.5626
C54 C 0.26487(17) 0.4692(5) 0.57168(17)
H34 H 0.2791 0.4110 0.5827
C55 C 0.27386(13) 0.6044(4) 0.56877(14)
C56 C 0.25216(12) 0.6812(4) 0.55067(13)
H35 H 0.2569 0.7714 0.5480
C57 C 0.22451(13) 0.6333(4) 0.53656(13)
H36 H 0.2115 0.6905 0.5239
C58 C 0.13494(12) 0.4832(4) 0.44761(12)
C59 C 0.12314(18) 0.3995(5) 0.42499(16)
H37 H 0.1220 0.3094 0.4305
C60 C 0.1124(2) 0.4388(5) 0.39359(14)
H38 H 0.1030 0.3765 0.3793
C61 C 0.11562(14) 0.5699(5) 0.38332(13)
C62 C 0.12833(16) 0.6560(5) 0.40665(13)
H39 H 0.1306 0.7454 0.4008
C63 C 0.13772(15) 0.6186(5) 0.43735(14)
H40 H 0.1461 0.6817 0.4521
C64 C 0.10451(16) 0.6102(5) 0.34976(13)
C65 C 0.10071(19) 0.5247(5) 0.32496(15)
H41 H 0.1049 0.4350 0.3291
C66 C 0.0910(2) 0.5603(5) 0.29362(14)
H42 H 0.0884 0.4961 0.2770
C67 C 0.08515(14) 0.6921(5) 0.28691(12)
C68 C 0.0879(2) 0.7796(5) 0.31170(15)
H43 H 0.0838 0.8695 0.3077
C69 C 0.0965(2) 0.7388(5) 0.34301(16)
H44 H 0.0970 0.8010 0.3603
C70 C 0.30307(13) 0.6530(5) 0.58476(13)
C71 C 0.30524(16) 0.7854(5) 0.59500(16)
H45 H 0.2874 0.8419 0.5915
C72 C 0.33261(16) 0.8337(5) 0.60987(16)
H46 H 0.3339 0.9241 0.6149
C73 C 0.35531(13) 0.6178(5) 0.60883(12)
H47 H 0.3721 0.5585 0.6141
C74 C 0.32905(15) 0.5723(5) 0.59315(15)
H48 H 0.3281 0.4822 0.5876
C75 C -0.00687(12) -0.3112(5) 0.66066(12)
C76 C 0.49391(18) 0.8971(6) -0.20772(14)
H49 H 0.4900 0.8139 -0.1982
C77 C 0.5064(3) 0.9974(8) -0.18851(17)
H50 H 0.5084 0.9877 -0.1654
C78 C 0.5163(3) 1.1163(7) -0.2045(2)
H51 H 0.5283 1.1802 -0.1928
C79 C 0.50874(18) 1.1363(6) -0.23556(17)
H52 H 0.5129 1.2184 -0.2456
C80 C 0.49440(15) 1.0343(5) -0.25358(14)
H53 H 0.4896 1.0483 -0.2761
N1 N 0.48716(10) 0.9166(4) -0.24006(10)
O1 O 0.43831(9) 0.7143(3) -0.22501(8)
O2 O 0.38739(8) 0.6803(3) -0.24125(8)
O3 O 0.06008(7) 1.1194(2) 0.20455(8)
Zn1 Zn 0.059299(12) 0.92770(5) 0.206685(13)
Zn2 Zn 0.393540(12) 0.70381(5) -0.290060(14)
Zn3 Zn 0.464520(13) 0.76393(5) -0.267000(14)
Zn4 Zn -0.066900(13) -0.43552(5) 0.665330(13)
O4 O 0.07798(11) 0.6583(3) 0.22907(9)
O5 O -0.00556(8) -0.3081(3) 0.69031(9)
C81 C 0.35880(13) 0.7503(5) 0.61768(12)
C82 C 0.15219(10) 0.8565(4) 0.16327(12)
C83 C 0.41167(12) 0.0192(4) 0.11733(12)
O6 O -0.02757(8) -0.3709(4) 0.64396(8)
C84 C 0.40654(11) 0.0080(4) 0.08310(12)
H54 H 0.4166 -0.0611 0.0714
C85 C 0.43219(14) -0.0792(5) 0.13588(12)
C86 C 0.12503(12) 0.9281(5) 0.18133(11)
C87 C 0.39575(13) 0.1232(5) 0.13357(12)
H55 H 0.3986 0.1336 0.1565
C88 C 0.38746(12) 0.8001(5) 0.63636(12)
C89 C 0.07546(13) 0.7347(5) 0.25339(13)
O7 O 0.42571(6) 0.8802(3) -0.28892(7)
O8 O 0.13227(7) 1.0258(3) 0.19879(7)
N2 N 0.35044(10) 0.8188(4) -0.29582(11)
O9 O 0.39441(9) 0.9203(4) 0.63546(9)
O10 O 0.09591(8) 0.8826(3) 0.17684(8)
O11 O 0.40399(9) 0.7159(3) 0.65285(8)
O12 O 0.06695(8) 0.8576(3) 0.25007(8)
C90 C 0.47345(10) -0.2497(5) 0.17089(12)
C91 C 0.46289(14) -0.1202(5) 0.12253(13)
H56 H 0.4697 -0.0896 0.1017
C92 C 0.48146(13) -0.2005(5) 0.13955(13)
H57 H 0.5014 -0.2266 0.1301
C93 C 0.42345(14) -0.1233(5) 0.16593(15)
H58 H 0.4034 -0.0973 0.1752
C94 C 0.44400(13) -0.2075(5) 0.18350(14)
H59 H 0.4376 -0.2366 0.2046
C95 C 0.34956(15) 0.9518(5) -0.29411(19)
H60 H 0.3694 0.9971 -0.2917
C96 C 0.32467(19) 0.7618(8) -0.2982(4)
H61 H 0.3248 0.6690 -0.2976
O13 O 0.48428(9) -0.3994(3) 0.21513(9)
C97 C 0.49472(13) -0.3411(5) 0.19005(13)
C98 C 0.32200(16) 1.0234(7) -0.2956(2)
H62 H 0.3223 1.1151 -0.2921
C99 C 0.29376(17) 0.8280(9) -0.3019(3)
H63 H 0.2740 0.7822 -0.3040
C100 C 0.2956(3) 0.9635(9) -0.3019(2)
H64 H 0.2768 1.0129 -0.3068
O14 O 0.50001(9) 0.6239(3) -0.25208(9)
O15 O 0.52483(8) -0.3501(3) 0.18045(9)
O16 O -0.06418(9) -0.6311(3) 0.66272(10)
O3C O 0.43992(7) 0.6194(2) -0.29545(8)
Zn1B Zn 0.559299(12) -0.42770(5) 0.206685(13)
Zn2C Zn 0.106460(12) 1.20381(5) 0.209940(14)
Zn2_2 Zn 0.393540(12) 0.70381(5) 0.709940(14)
Zn3C Zn 0.035480(13) 1.26393(5) 0.233000(14)
Zn3B Zn -0.035480(13) -0.26393(5) 0.733000(14)
Zn4B Zn 0.433100(13) 0.93552(5) -0.334670(13)
Zn4B_2 Zn 0.433100(13) 0.93552(5) 0.665330(13)
O5B O 0.49444(8) 0.8081(3) -0.30969(9)
O7B O -0.07429(6) -0.3802(3) 0.71108(7)
O8C O 0.36773(7) 0.5258(3) -0.30121(7)
O9B O -0.10559(9) -0.4203(4) 0.63546(9)
O11_2 O 0.40399(9) 0.7159(3) -0.34715(8)
O15B O 0.02483(8) 0.8501(3) 0.18045(9)
loop_
_geom_bond_atom_site_label_1
_geom_bond_atom_site_label_2
_geom_bond_site_symmetry_1
_geom_bond_site_symmetry_2
C1 C2 1_555 1_555
C2 H1 1_555 1_555
C3 C2 1_555 1_555
C4 C3 1_555 1_555
H2 C4 1_555 1_555
C5 C4 1_555 1_555
C6 C1 1_555 1_555
H3 C6 1_555 1_555
C7 C5 1_555 1_555
C8 C7 1_555 1_555
H4 C8 1_555 1_555
C9 C8 1_555 1_555
H5 C9 1_555 1_555
C10 C9 1_555 1_555
C11 C10 1_555 1_555
H6 C11 1_555 1_555
C12 C7 1_555 1_555
H7 C12 1_555 1_555
C13 C10 1_555 1_555
C14 C13 1_555 1_555
H8 C14 1_555 1_555
C15 C14 1_555 1_555
H9 C15 1_555 1_555
C16 C15 1_555 1_555
C17 C16 1_555 1_555
H10 C17 1_555 1_555
C18 C13 1_555 1_555
H11 C18 1_555 1_555
C19 C3 1_555 1_555
C20 C19 1_555 1_555
H12 C20 1_555 1_555
C21 C20 1_555 1_555
H13 C21 1_555 1_555
C22 C21 1_555 1_555
C23 C22 1_555 1_555
H14 C23 1_555 1_555
C24 C19 1_555 1_555
H15 C24 1_555 1_555
C25 C22 1_555 1_555
C26 C25 1_555 1_555
H16 C26 1_555 1_555
C27 C26 1_555 1_555
H17 C27 1_555 1_555
C28 H18 1_555 1_555
C29 C25 1_555 1_555
H19 C29 1_555 1_555
C30 H20 1_555 1_555
C31 C1 1_555 1_555
C32 C31 1_555 1_555
H21 C32 1_555 1_555
C33 C16 1_555 1_555
C34 C35 1_555 1_555
C35 H22 1_555 1_555
C36 C35 1_555 1_555
C37 C36 1_555 1_555
H23 C37 1_555 1_555
C38 C37 1_555 1_555
C39 C34 1_555 1_555
H24 C39 1_555 1_555
C40 C34 1_555 1_555
C41 C40 1_555 1_555
H25 C41 1_555 1_555
C42 C41 1_555 1_555
H26 C42 1_555 1_555
C43 C42 1_555 1_555
C44 C43 1_555 1_555
H27 C44 1_555 1_555
C45 C40 1_555 1_555
H28 C45 1_555 1_555
C46 C43 1_555 1_555
C47 C46 1_555 1_555
H29 C47 1_555 1_555
C48 C47 1_555 1_555
H30 C48 1_555 1_555
C49 C48 1_555 1_555
C50 C49 1_555 1_555
H31 C50 1_555 1_555
C51 C46 1_555 1_555
H32 C51 1_555 1_555
C52 C38 1_555 1_555
C53 C52 1_555 1_555
H33 C53 1_555 1_555
C54 C53 1_555 1_555
H34 C54 1_555 1_555
C55 C54 1_555 1_555
C56 C55 1_555 1_555
H35 C56 1_555 1_555
C57 C52 1_555 1_555
H36 C57 1_555 1_555
C58 C36 1_555 1_555
C59 C58 1_555 1_555
H37 C59 1_555 1_555
C60 C59 1_555 1_555
H38 C60 1_555 1_555
C61 C60 1_555 1_555
C62 C61 1_555 1_555
H39 C62 1_555 1_555
C63 C58 1_555 1_555
H40 C63 1_555 1_555
C64 C61 1_555 1_555
C65 C64 1_555 1_555
H41 C65 1_555 1_555
C66 C65 1_555 1_555
H42 C66 1_555 1_555
C67 C66 1_555 1_555
C68 C67 1_555 1_555
H43 C68 1_555 1_555
C69 C64 1_555 1_555
H44 C69 1_555 1_555
C70 C55 1_555 1_555
C71 C70 1_555 1_555
H45 C71 1_555 1_555
C72 C71 1_555 1_555
H46 C72 1_555 1_555
C73 H47 1_555 1_555
C74 C70 1_555 1_555
H48 C74 1_555 1_555
C75 C49 1_555 1_555
C76 H49 1_555 1_555
C77 C76 1_555 1_555
H50 C77 1_555 1_555
C78 C77 1_555 1_555
H51 C78 1_555 1_555
C79 C78 1_555 1_555
H52 C79 1_555 1_555
C80 C79 1_555 1_555
H53 C80 1_555 1_555
N1 C76 1_555 1_555
O1 C33 1_555 1_555
O2 C33 1_555 1_555
O3 Zn1 1_555 1_555
Zn1 O10 1_555 1_555
Zn2 O2 1_555 1_555
Zn3 N1 1_555 1_555
Zn4 O6 1_555 1_555
O4 C89 1_555 1_555
O5 C75 1_555 1_555
C81 C72 1_555 1_555
C82 C27 1_555 1_555
C83 C84 1_555 1_555
O6 C75 1_555 1_555
C84 C30 1_555 1_555
H54 C84 1_555 1_555
C85 C83 1_555 1_555
C86 C82 1_555 1_555
C87 C32 1_555 1_555
H55 C87 1_555 1_555
C88 C81 1_555 1_555
C89 C67 1_555 1_555
O7 Zn2 1_555 1_555
O8 C86 1_555 1_555
N2 Zn2 1_555 1_555
O9 C88 1_555 1_555
O10 C86 1_555 1_555
O11 C88 1_555 1_555
O12 Zn1 1_555 1_555
C90 C92 1_555 1_555
C91 C85 1_555 1_555
H56 C91 1_555 1_555
C92 C91 1_555 1_555
H57 C92 1_555 1_555
C93 C85 1_555 1_555
H58 C93 1_555 1_555
C94 C90 1_555 1_555
H59 C94 1_555 1_555
C95 N2 1_555 1_555
H60 C95 1_555 1_555
C96 N2 1_555 1_555
H61 C96 1_555 1_555
O13 C97 1_555 1_555
C97 C90 1_555 1_555
C98 C95 1_555 1_555
H62 C98 1_555 1_555
C99 C96 1_555 1_555
H63 C99 1_555 1_555
C100 C98 1_555 1_555
H64 C100 1_555 1_555
O14 Zn3 1_555 1_555
O15 C97 1_555 1_555
O16 Zn4 1_555 1_555
O3C Zn2 1_555 1_555
Zn1B O15 1_555 1_555
Zn2C O3 1_555 1_555
Zn2_2 O11 1_555 1_555
Zn3C O3 1_555 1_555
Zn3B O5 1_555 1_555
Zn4B O7 1_555 1_555
Zn4B_2 O9 1_555 1_555
O5B Zn3 1_555 1_555
O7B Zn4 1_555 1_555
O8C Zn2 1_555 1_555
O9B Zn4 1_555 1_555
O11_2 Zn2 1_555 1_555
O15B Zn1 1_555 1_555
C5 C6 1_555 1_555
C11 C12 1_555 1_555
C17 C18 1_555 1_555
C23 C24 1_555 1_555
C28 C29 1_555 1_555
C28 C82 1_555 1_555
C30 C31 1_555 1_555
C38 C39 1_555 1_555
C44 C45 1_555 1_555
C50 C51 1_555 1_555
C56 C57 1_555 1_555
C62 C63 1_555 1_555
C68 C69 1_555 1_555
C73 C74 1_555 1_555
C73 C81 1_555 1_555
C80 N1 1_555 1_555
O1 Zn3 1_555 1_555
Zn3 O7 1_555 1_555
Zn3 O3C 1_555 1_555
C83 C87 1_555 1_555
C89 O12 1_555 1_555
O8 Zn2C 1_555 1_555
C93 C94 1_555 1_555
C99 C100 1_555 1_555
Zn3B O7B 1_555 1_555

#END
