
#######################################################################
#
#                 Cambridge Crystallographic Data Centre
#                                CCDC 
#
#######################################################################
#
# If this CIF has been generated from an entry in the Cambridge 
# Structural Database, then it will include bibliographic, chemical, 
# crystal, experimental, refinement or atomic coordinate data resulting 
# from the CCDC's data processing and validation procedures.
#
#######################################################################

data_JENRUQ
_symmetry_cell_setting           monoclinic
_symmetry_space_group_name_H-M   'P 2/c'
_symmetry_Int_Tables_number      13
_space_group_name_Hall           '-P 2yc'
loop_
_symmetry_equiv_pos_site_id
_symmetry_equiv_pos_as_xyz
1 x,y,z
2 -x,y,1/2-z
3 -x,-y,-z
4 x,-y,1/2+z
_cell_length_a                   14.1496(3)
_cell_length_b                   3.5097(1)
_cell_length_c                   14.6946(3)
_cell_angle_alpha                90
_cell_angle_beta                 100.393(1)
_cell_angle_gamma                90
_cell_volume                     717.774
loop_
_atom_site_label
_atom_site_type_symbol
_atom_site_fract_x
_atom_site_fract_y
_atom_site_fract_z
Mn1 Mn 0.5000 0.0633(2) 0.2500
N1 N 0.6637(2) 0.0388(8) 0.2465(2)
C1 C 0.7311(2) 0.1435(10) 0.3181(2)
H1 H 0.7121 0.2243 0.3738
C2 C 0.8286(2) 0.1369(9) 0.3130(2)
N2 N 0.8599(2) 0.0223(8) 0.2360(2)
C3 C 0.7923(2) -0.0843(11) 0.1648(2)
H2 H 0.8114 -0.1681 0.1094
C4 C 0.6948(2) -0.0762(10) 0.1694(2)
H3 H 0.6492 -0.1534 0.1170
C5 C 0.9008(2) 0.2755(10) 0.3953(2)
N3 N 0.9926(2) 0.2385(10) 0.3889(2)
H4 H 1.029(3) 0.330(15) 0.428(3)
H5 H 1.010(3) 0.131(14) 0.344(3)
O1 O 0.87114(18) 0.4171(8) 0.46207(17)
N4 N 0.4744(2) -0.4399(8) 0.1430(3)
N5 N 0.4328(3) -0.4118(11) 0.0841(3)
N6 N 0.3803(4) -0.3788(15) 0.0075(3)
Mn1_2 Mn 0.5000 -0.9367(2) 0.2500
Mn1_3 Mn 0.5000 1.0633(2) 0.2500
N1A N 0.3363(2) 0.0388(8) 0.2535(2)
C1A C 0.2689(2) 0.1435(10) 0.1819(2)
H1A H 0.2879 0.2243 0.1262
C2A C 0.1714(2) 0.1369(9) 0.1870(2)
N2A N 0.1401(2) 0.0223(8) 0.2640(2)
C3A C 0.2077(2) -0.0843(11) 0.3352(2)
H2A H 0.1886 -0.1681 0.3906
C4A C 0.3052(2) -0.0762(10) 0.3306(2)
H3A H 0.3508 -0.1534 0.3830
C5A C 0.0992(2) 0.2755(10) 0.1047(2)
N3A N 0.0074(2) 0.2385(10) 0.1111(2)
H4A H -0.029(3) 0.330(15) 0.072(3)
H5A H -0.010(3) 0.131(14) 0.156(3)
O1A O 0.12886(18) 0.4171(8) 0.03793(17)
N4_2 N 0.4744(2) 0.5601(8) 0.1430(3)
N4A N 0.5256(2) -0.4399(8) 0.3570(3)
N4A_2 N 0.5256(2) 0.5601(8) 0.3570(3)
N5_2 N 0.4328(3) 0.5882(11) 0.0841(3)
N6_2 N 0.3803(4) 0.6212(15) 0.0075(3)
loop_
_geom_bond_atom_site_label_1
_geom_bond_atom_site_label_2
_geom_bond_site_symmetry_1
_geom_bond_site_symmetry_2
Mn1 N1 1_555 1_555
N1 C1 1_555 1_555
C1 H1 1_555 1_555
C2 C1 1_555 1_555
N2 C2 1_555 1_555
C3 N2 1_555 1_555
H2 C3 1_555 1_555
C4 N1 1_555 1_555
H3 C4 1_555 1_555
C5 C2 1_555 1_555
N3 C5 1_555 1_555
H4 N3 1_555 1_555
H5 N3 1_555 1_555
O1 C5 1_555 1_555
N4 Mn1 1_555 1_555
N5 N4 1_555 1_555
N6 N5 1_555 1_555
Mn1_2 N4 1_555 1_555
Mn1_3 N4_2 1_555 1_555
N1A Mn1 1_555 1_555
C1A N1A 1_555 1_555
H1A C1A 1_555 1_555
C2A C1A 1_555 1_555
N2A C2A 1_555 1_555
C3A N2A 1_555 1_555
H2A C3A 1_555 1_555
C4A N1A 1_555 1_555
H3A C4A 1_555 1_555
C5A C2A 1_555 1_555
N3A C5A 1_555 1_555
H4A N3A 1_555 1_555
H5A N3A 1_555 1_555
O1A C5A 1_555 1_555
N4_2 Mn1 1_555 1_555
N4A Mn1 1_555 1_555
N4A_2 Mn1 1_555 1_555
N5_2 N4_2 1_555 1_555
N6_2 N5_2 1_555 1_555
C3 C4 1_555 1_555
Mn1_2 N4A 1_555 1_555
Mn1_3 N4A_2 1_555 1_555
C3A C4A 1_555 1_555

#END
