
#######################################################################
#
#                 Cambridge Crystallographic Data Centre
#                                CCDC 
#
#######################################################################
#
# If this CIF has been generated from an entry in the Cambridge 
# Structural Database, then it will include bibliographic, chemical, 
# crystal, experimental, refinement or atomic coordinate data resulting 
# from the CCDC's data processing and validation procedures.
#
#######################################################################

data_JEPKAR
_symmetry_cell_setting           monoclinic
_symmetry_space_group_name_H-M   'P 21/n'
_symmetry_Int_Tables_number      14
_space_group_name_Hall           '-P 2yn'
loop_
_symmetry_equiv_pos_site_id
_symmetry_equiv_pos_as_xyz
1 x,y,z
2 1/2-x,1/2+y,1/2-z
3 -x,-y,-z
4 1/2+x,1/2-y,1/2+z
_cell_length_a                   14.275(6)
_cell_length_b                   13.165(5)
_cell_length_c                   18.971(8)
_cell_angle_alpha                90
_cell_angle_beta                 106.294(6)
_cell_angle_gamma                90
_cell_volume                     3422.03
loop_
_atom_site_label
_atom_site_type_symbol
_atom_site_fract_x
_atom_site_fract_y
_atom_site_fract_z
Ba1 Ba -0.01264(3) 0.10543(4) 0.23627(2)
Pt1 Pt -0.02558(2) 0.61053(2) 0.210480(16)
N1 N 0.0483(7) 0.3076(6) 0.2610(4)
N2 N -0.2726(7) 0.4501(7) 0.1245(5)
N3 N 0.0039(7) -0.0838(5) 0.1577(4)
N4 N 0.0146(6) 0.6978(6) 0.4306(4)
O1 O 0.0764(4) 0.1223(4) 0.3838(3)
O2 O 0.1918(4) 0.0778(4) 0.2957(3)
O3 O 0.1038(4) 0.1433(4) 0.1462(3)
O4 O -0.0991(4) 0.1413(4) 0.0833(3)
O5 O -0.1951(4) 0.1883(4) 0.1833(3)
O6 O -0.1130(4) 0.1806(4) 0.3331(3)
O7 O -0.0996(4) -0.0513(4) 0.2858(3)
H1 H -0.1363 -0.0499 0.3174
H2 H -0.0749 -0.1144 0.2862
S1 S 0.0052(2) 0.49890(16) 0.30774(12)
S2 S -0.08023(17) 0.48411(16) 0.12236(12)
S3 S -0.0639(2) -0.27976(17) 0.11040(12)
S4 S 0.03735(17) 0.74187(16) 0.29128(11)
C1 C 0.1656(6) 0.0634(6) 0.4163(4)
H3 H 0.1919 0.0817 0.4682
C2 C 0.1456(6) -0.0490(6) 0.4098(5)
H4 H 0.1151 -0.0663 0.3588
H5 H 0.1008 -0.0670 0.4379
C3 C 0.2391(8) -0.1088(7) 0.4378(6)
H6 H 0.2254 -0.1808 0.4302
H7 H 0.2661 -0.0973 0.4900
C4 C 0.3138(8) -0.0765(8) 0.3972(6)
H8 H 0.3752 -0.1112 0.4187
H9 H 0.2904 -0.0967 0.3461
C5 C 0.3305(7) 0.0342(8) 0.4014(5)
H10 H 0.3748 0.0516 0.3727
H11 H 0.3619 0.0527 0.4520
C6 C 0.2382(7) 0.0953(6) 0.3739(4)
H12 H 0.2533 0.1677 0.3822
C7 C 0.2449(6) 0.1259(7) 0.2502(4)
H13 H 0.3124 0.1038 0.2656
H14 H 0.2437 0.1990 0.2563
C8 C 0.2014(7) 0.0997(8) 0.1719(5)
H15 H 0.2421 0.1261 0.1428
H16 H 0.1978 0.0265 0.1662
C9 C 0.0620(6) 0.1301(6) 0.0706(4)
H17 H 0.0508 0.0585 0.0595
H18 H 0.1061 0.1555 0.0440
C10 C -0.0337(7) 0.1874(7) 0.0473(4)
H19 H -0.0234 0.2583 0.0612
H20 H -0.0609 0.1836 -0.0056
C11 C -0.1970(6) 0.1814(7) 0.0586(4)
H21 H -0.1934 0.2557 0.0572
C12 C -0.2521(8) 0.1432(8) -0.0178(5)
H22 H -0.3135 0.1795 -0.0344
H23 H -0.2141 0.1584 -0.0516
C13 C -0.2725(8) 0.0295(9) -0.0196(5)
H24 H -0.3119 0.0102 -0.0683
H25 H -0.2115 -0.0076 -0.0091
C14 C -0.3252(8) 0.0024(8) 0.0360(5)
H26 H -0.3336 -0.0707 0.0364
H27 H -0.3896 0.0331 0.0219
C15 C -0.2701(7) 0.0382(7) 0.1130(5)
H28 H -0.3085 0.0238 0.1466
H29 H -0.2089 0.0016 0.1297
C16 C -0.2499(6) 0.1518(6) 0.1129(4)
H30 H -0.3129 0.1870 0.0995
C17 C -0.2540(6) 0.2017(8) 0.2335(4)
H31 H -0.2784 0.1366 0.2445
H32 H -0.3092 0.2454 0.2117
C18 C -0.1908(6) 0.2487(7) 0.3020(4)
H33 H -0.1652 0.3130 0.2907
H34 H -0.2285 0.2612 0.3364
C19 C -0.0581(7) 0.2092(6) 0.4047(5)
H35 H -0.1008 0.2170 0.4362
H36 H -0.0255 0.2735 0.4032
C20 C 0.0151(7) 0.1285(7) 0.4339(4)
H37 H 0.0542 0.1455 0.4831
H38 H -0.0171 0.0640 0.4357
C21 C 0.0312(7) 0.3864(7) 0.2774(5)
C22 C -0.1939(7) 0.4675(6) 0.1253(4)
C23 C -0.0224(7) -0.1646(6) 0.1404(5)
C24 C 0.0243(7) 0.7118(6) 0.3737(5)
Pt1_2 Pt -0.02558(2) -0.38947(2) 0.210480(16)
S3_2 S -0.0639(2) 0.72024(17) 0.11040(12)
loop_
_geom_bond_atom_site_label_1
_geom_bond_atom_site_label_2
_geom_bond_site_symmetry_1
_geom_bond_site_symmetry_2
Ba1 N1 1_555 1_555
Pt1 S1 1_555 1_555
N1 C21 1_555 1_555
N2 C22 1_555 1_555
N3 Ba1 1_555 1_555
N4 C24 1_555 1_555
O1 Ba1 1_555 1_555
O2 Ba1 1_555 1_555
O3 Ba1 1_555 1_555
O4 Ba1 1_555 1_555
O5 Ba1 1_555 1_555
O6 Ba1 1_555 1_555
O7 Ba1 1_555 1_555
H1 O7 1_555 1_555
H2 O7 1_555 1_555
S1 C21 1_555 1_555
S2 Pt1 1_555 1_555
S3 C23 1_555 1_555
S4 Pt1 1_555 1_555
C1 O1 1_555 1_555
H3 C1 1_555 1_555
C2 C1 1_555 1_555
H4 C2 1_555 1_555
H5 C2 1_555 1_555
C3 C2 1_555 1_555
H6 C3 1_555 1_555
H7 C3 1_555 1_555
C4 C3 1_555 1_555
H8 C4 1_555 1_555
H9 C4 1_555 1_555
C5 C4 1_555 1_555
H10 C5 1_555 1_555
H11 C5 1_555 1_555
C6 O2 1_555 1_555
H12 C6 1_555 1_555
C7 O2 1_555 1_555
H13 C7 1_555 1_555
H14 C7 1_555 1_555
C8 O3 1_555 1_555
H15 C8 1_555 1_555
H16 C8 1_555 1_555
C9 O3 1_555 1_555
H17 C9 1_555 1_555
H18 C9 1_555 1_555
C10 O4 1_555 1_555
H19 C10 1_555 1_555
H20 C10 1_555 1_555
C11 O4 1_555 1_555
H21 C11 1_555 1_555
C12 C11 1_555 1_555
H22 C12 1_555 1_555
H23 C12 1_555 1_555
C13 C12 1_555 1_555
H24 C13 1_555 1_555
H25 C13 1_555 1_555
C14 C13 1_555 1_555
H26 C14 1_555 1_555
H27 C14 1_555 1_555
C15 C14 1_555 1_555
H28 C15 1_555 1_555
H29 C15 1_555 1_555
C16 O5 1_555 1_555
H30 C16 1_555 1_555
C17 O5 1_555 1_555
H31 C17 1_555 1_555
H32 C17 1_555 1_555
C18 O6 1_555 1_555
H33 C18 1_555 1_555
H34 C18 1_555 1_555
C19 O6 1_555 1_555
H35 C19 1_555 1_555
H36 C19 1_555 1_555
C20 O1 1_555 1_555
H37 C20 1_555 1_555
H38 C20 1_555 1_555
C22 S2 1_555 1_555
C23 N3 1_555 1_555
C24 S4 1_555 1_555
Pt1_2 S3 1_555 1_555
S3_2 Pt1 1_555 1_555
C1 C6 1_555 1_555
C5 C6 1_555 1_555
C7 C8 1_555 1_555
C9 C10 1_555 1_555
C11 C16 1_555 1_555
C15 C16 1_555 1_555
C17 C18 1_555 1_555
C19 C20 1_555 1_555

#END
