
#######################################################################
#
#                 Cambridge Crystallographic Data Centre
#                                CCDC 
#
#######################################################################
#
# If this CIF has been generated from an entry in the Cambridge 
# Structural Database, then it will include bibliographic, chemical, 
# crystal, experimental, refinement or atomic coordinate data resulting 
# from the CCDC's data processing and validation procedures.
#
#######################################################################

data_JEPLIA
_symmetry_cell_setting           monoclinic
_symmetry_space_group_name_H-M   'C 2/c'
_symmetry_Int_Tables_number      15
_space_group_name_Hall           '-C 2yn'
loop_
_symmetry_equiv_pos_site_id
_symmetry_equiv_pos_as_xyz
1 x,y,z
2 1/2+x,1/2+y,z
3 -x,y,1/2-z
4 1/2-x,1/2+y,1/2-z
5 -x,-y,-z
6 1/2-x,1/2-y,-z
7 x,-y,1/2+z
8 1/2+x,1/2-y,1/2+z
_cell_length_a                   16.984(3)
_cell_length_b                   11.686(2)
_cell_length_c                   10.0952(17)
_cell_angle_alpha                90
_cell_angle_beta                 109.455(11)
_cell_angle_gamma                90
_cell_volume                     1889.24
loop_
_atom_site_label
_atom_site_type_symbol
_atom_site_fract_x
_atom_site_fract_y
_atom_site_fract_z
Mn1 Mn 0.0000 0.03972(3) -0.2500
O1 O 0.08838(8) -0.03709(9) 0.13615(12)
O2 O 0.10378(8) 0.04933(9) -0.05187(12)
O3 O 0.21381(9) 0.20035(11) 0.11112(14)
N1 N 0.0000 -0.15483(16) -0.2500
N2 N 0.0000 -0.76204(16) -0.2500
C1 C 0.11997(10) 0.03634(13) 0.07794(16)
C2 C 0.18360(11) 0.11387(15) 0.17277(17)
C3 C 0.21673(13) 0.1219(2) 0.3126(2)
H1 H 0.2068 0.0734 0.3784
C4 C 0.27016(14) 0.2194(2) 0.3408(2)
H2 H 0.3019 0.2469 0.4289
C5 C 0.26609(14) 0.2635(2) 0.2177(2)
H3 H 0.2948 0.3282 0.2058
C6 C -0.02362(12) -0.21475(15) -0.37009(18)
H4 H -0.0397 -0.1748 -0.4546
C7 C -0.02529(12) -0.33268(15) -0.37439(19)
H5 H -0.0433 -0.3704 -0.4604
C8 C 0.0000 -0.39518(19) -0.2500
C9 C 0.0000 -0.5216(2) -0.2500
C10 C -0.06237(13) -0.58383(16) -0.3463(2)
H6 H -0.1059 -0.5462 -0.4133
C11 C -0.06001(13) -0.70177(16) -0.3431(2)
H7 H 0.1026 -0.7415 -0.0906
Mn1F Mn 0.0000 -0.03972(3) 0.2500
Mn1F_2 Mn 0.0000 -0.03972(3) -0.7500
Mn1_2 Mn 0.0000 -0.96028(3) -0.2500
O1F O 0.08838(8) 0.03709(9) -0.36385(12)
O1D O -0.08838(8) 0.03709(9) -0.13615(12)
O2F O 0.10378(8) -0.04933(9) -0.55187(12)
O2B O -0.10378(8) 0.04933(9) -0.44813(12)
O3F O 0.21381(9) -0.20035(11) -0.38888(14)
N2_2 N 0.0000 0.23796(16) -0.2500
C1F C 0.11997(10) -0.03634(13) -0.42206(16)
C2F C 0.18360(11) -0.11387(15) -0.32723(17)
C3F C 0.21673(13) -0.1219(2) -0.1874(2)
H1F H 0.2068 -0.0734 -0.1216
C4F C 0.27016(14) -0.2194(2) -0.1592(2)
H2F H 0.3019 -0.2469 -0.0711
C5F C 0.26609(14) -0.2635(2) -0.2823(2)
H3F H 0.2948 -0.3282 -0.2942
C6B C 0.02362(12) -0.21475(15) -0.12991(18)
H4B H 0.0397 -0.1748 -0.0454
C7B C 0.02529(12) -0.33268(15) -0.12561(19)
H5B H 0.0433 -0.3704 -0.0396
C10B C 0.06237(13) -0.58383(16) -0.1537(2)
H6B H 0.1059 -0.5462 -0.0867
C11B C 0.06001(13) -0.70177(16) -0.1569(2)
H7B H -0.1026 -0.7415 -0.4094
loop_
_geom_bond_atom_site_label_1
_geom_bond_atom_site_label_2
_geom_bond_site_symmetry_1
_geom_bond_site_symmetry_2
Mn1 O2 1_555 1_555
O1 C1 1_555 1_555
O2 C1 1_555 1_555
O3 C2 1_555 1_555
N1 Mn1 1_555 1_555
N2 C11 1_555 1_555
C1 C2 1_555 1_555
C2 C3 1_555 1_555
C3 H1 1_555 1_555
C4 C3 1_555 1_555
H2 C4 1_555 1_555
C5 O3 1_555 1_555
H3 C5 1_555 1_555
C6 N1 1_555 1_555
H4 C6 1_555 1_555
C7 C6 1_555 1_555
H5 C7 1_555 1_555
C8 C7 1_555 1_555
C9 C8 1_555 1_555
C10 C9 1_555 1_555
H6 C10 1_555 1_555
C11 C10 1_555 1_555
H7 C11B 1_555 1_555
Mn1F O1 1_555 1_555
Mn1F_2 O2F 1_555 1_555
Mn1_2 N2 1_555 1_555
O1F Mn1 1_555 1_555
O1D Mn1 1_555 1_555
O2F C1F 1_555 1_555
O2B Mn1 1_555 1_555
O3F C2F 1_555 1_555
N2_2 Mn1 1_555 1_555
C1F O1F 1_555 1_555
C2F C1F 1_555 1_555
C3F C2F 1_555 1_555
H1F C3F 1_555 1_555
C4F C3F 1_555 1_555
H2F C4F 1_555 1_555
C5F O3F 1_555 1_555
H3F C5F 1_555 1_555
C6B N1 1_555 1_555
H4B C6B 1_555 1_555
C7B C8 1_555 1_555
H5B C7B 1_555 1_555
C10B C9 1_555 1_555
H6B C10B 1_555 1_555
C11B N2 1_555 1_555
H7B C11 1_555 1_555
C4 C5 1_555 1_555
C4F C5F 1_555 1_555
C6B C7B 1_555 1_555
C10B C11B 1_555 1_555

#END
