
#######################################################################
#
#                 Cambridge Crystallographic Data Centre
#                                CCDC 
#
#######################################################################
#
# If this CIF has been generated from an entry in the Cambridge 
# Structural Database, then it will include bibliographic, chemical, 
# crystal, experimental, refinement or atomic coordinate data resulting 
# from the CCDC's data processing and validation procedures.
#
#######################################################################

data_JEPPEA
_symmetry_cell_setting           triclinic
_symmetry_space_group_name_H-M   'P -1'
_symmetry_Int_Tables_number      2
_space_group_name_Hall           '-P 1'
loop_
_symmetry_equiv_pos_site_id
_symmetry_equiv_pos_as_xyz
1 x,y,z
2 -x,-y,-z
_cell_length_a                   7.2190(8)
_cell_length_b                   9.4162(10)
_cell_length_c                   13.0193(14)
_cell_angle_alpha                82.887(12)
_cell_angle_beta                 85.622(13)
_cell_angle_gamma                81.965(13)
_cell_volume                     867.991
loop_
_atom_site_label
_atom_site_type_symbol
_atom_site_fract_x
_atom_site_fract_y
_atom_site_fract_z
Cu1 Cu -0.24382(9) -0.44372(8) 0.23694(5)
Cu2 Cu -0.21401(12) -0.76516(10) 0.16804(6)
Cu3 Cu -0.16092(13) -0.77178(10) 0.36664(6)
Cl1 Cl 0.00546(18) -0.59936(16) 0.16293(11)
Cl2 Cl -0.1136(3) -0.96342(16) 0.27342(11)
Cl3 Cl -0.43876(19) -0.61769(17) 0.33777(10)
N1 N -0.1268(6) -0.3596(4) 0.3476(3)
C1 C -0.2247(7) -0.2673(5) 0.4083(3)
C2 C -0.1415(7) -0.2211(6) 0.4912(3)
N2 N 0.0366(6) -0.2723(5) 0.5124(3)
C3 C 0.1333(7) -0.3644(6) 0.4504(4)
H1 H 0.2569 -0.4005 0.4634
C4 C 0.0542(7) -0.4066(6) 0.3683(4)
H2 H 0.1262 -0.4686 0.3260
C5 C -0.4253(7) -0.2140(7) 0.3859(4)
H3 H -0.4632 -0.2668 0.3343
H4 H -0.5037 -0.2281 0.4482
H5 H -0.4371 -0.1131 0.3607
C6 C -0.2467(9) -0.1133(7) 0.5557(5)
H6 H -0.1702 -0.0980 0.6095
H7 H -0.2785 -0.0238 0.5130
H8 H -0.3592 -0.1484 0.5863
N3 N -0.6247(6) -0.2709(5) -0.0489(3)
C7 C -0.4655(7) -0.2147(6) -0.0432(3)
C8 C -0.3576(7) -0.2533(6) 0.0450(4)
N4 N -0.4109(6) -0.3502(5) 0.1225(3)
C9 C -0.5731(7) -0.4032(6) 0.1154(4)
H9 H -0.6138 -0.4683 0.1691
C10 C -0.6792(7) -0.3640(6) 0.0313(4)
H10 H -0.7909 -0.4021 0.0294
C11 C -0.4058(8) -0.1117(7) -0.1325(4)
H11 H -0.5039 -0.0885 -0.1799
H12 H -0.2944 -0.1555 -0.1675
H13 H -0.3807 -0.0251 -0.1073
C12 C -0.1808(8) -0.1901(7) 0.0547(5)
H14 H -0.1209 -0.2369 0.1155
H15 H -0.2106 -0.0887 0.0601
H16 H -0.0980 -0.2045 -0.0055
Cu2A Cu -0.78599(12) -0.23484(10) -0.16804(6)
Cu3A Cu 0.16092(13) -0.22822(10) 0.63336(6)
N2A N -0.0366(6) -0.7277(5) 0.4876(3)
N3A N -0.3753(6) -0.7291(5) 0.0489(3)
loop_
_geom_bond_atom_site_label_1
_geom_bond_atom_site_label_2
_geom_bond_site_symmetry_1
_geom_bond_site_symmetry_2
Cu1 Cl1 1_555 1_555
Cu2 Cl1 1_555 1_555
Cu3 Cl2 1_555 1_555
Cl2 Cu2 1_555 1_555
Cl3 Cu1 1_555 1_555
N1 Cu1 1_555 1_555
C1 N1 1_555 1_555
C2 C1 1_555 1_555
N2 C2 1_555 1_555
C3 N2 1_555 1_555
H1 C3 1_555 1_555
C4 N1 1_555 1_555
H2 C4 1_555 1_555
C5 C1 1_555 1_555
H3 C5 1_555 1_555
H4 C5 1_555 1_555
H5 C5 1_555 1_555
C6 C2 1_555 1_555
H6 C6 1_555 1_555
H7 C6 1_555 1_555
H8 C6 1_555 1_555
N3 C7 1_555 1_555
C7 C8 1_555 1_555
C8 N4 1_555 1_555
N4 Cu1 1_555 1_555
C9 N4 1_555 1_555
H9 C9 1_555 1_555
C10 N3 1_555 1_555
H10 C10 1_555 1_555
C11 C7 1_555 1_555
H11 C11 1_555 1_555
H12 C11 1_555 1_555
H13 C11 1_555 1_555
C12 C8 1_555 1_555
H14 C12 1_555 1_555
H15 C12 1_555 1_555
H16 C12 1_555 1_555
Cu2A N3 1_555 1_555
Cu3A N2 1_555 1_555
N2A Cu3 1_555 1_555
N3A Cu2 1_555 1_555
Cu3 Cl3 1_555 1_555
C3 C4 1_555 1_555
C9 C10 1_555 1_555

#END
