
#######################################################################
#
#                 Cambridge Crystallographic Data Centre
#                                CCDC 
#
#######################################################################
#
# If this CIF has been generated from an entry in the Cambridge 
# Structural Database, then it will include bibliographic, chemical, 
# crystal, experimental, refinement or atomic coordinate data resulting 
# from the CCDC's data processing and validation procedures.
#
#######################################################################

data_JEPQUR
_symmetry_cell_setting           orthorhombic
_symmetry_space_group_name_H-M   'P 21 21 21'
_symmetry_Int_Tables_number      19
_space_group_name_Hall           'P 2ac 2ab'
loop_
_symmetry_equiv_pos_site_id
_symmetry_equiv_pos_as_xyz
1 x,y,z
2 1/2-x,-y,1/2+z
3 -x,1/2+y,1/2-z
4 1/2+x,1/2-y,-z
_cell_length_a                   15.279(4)
_cell_length_b                   20.027(5)
_cell_length_c                   24.285(6)
_cell_angle_alpha                90
_cell_angle_beta                 90
_cell_angle_gamma                90
_cell_volume                     7431.03
loop_
_atom_site_label
_atom_site_type_symbol
_atom_site_fract_x
_atom_site_fract_y
_atom_site_fract_z
Fe1 Fe 0.54592(4) 0.70203(3) 0.24230(2)
Mn1 Mn 0.50806(4) 0.95820(3) 0.19594(3)
Mn2 Mn 0.71294(5) 0.69205(4) 0.06365(3)
Mn3 Mn 0.82182(5) 0.70199(4) 0.36385(3)
C1 C 0.5528(3) 0.7911(2) 0.21194(15)
C2 C 0.5886(3) 0.6719(2) 0.17205(17)
C3 C 0.6623(3) 0.7101(2) 0.27179(16)
C4 C 0.5466(3) 0.6136(2) 0.27391(17)
C5 C 0.4999(3) 0.7381(2) 0.31014(17)
C6 C 0.4276(3) 0.6819(2) 0.2183(2)
C7 C 0.5521(3) 0.9890(2) 0.30814(19)
H1 H 0.5137 1.0281 0.3094
C8 C 0.6125(4) 0.9945(3) 0.3563(2)
H2 H 0.6455 1.0358 0.3539
H3 H 0.6536 0.9576 0.3561
C9 C 0.5585(4) 0.9935(3) 0.4107(2)
H4 H 0.5983 0.9935 0.4418
H5 H 0.5234 1.0338 0.4128
C10 C 0.5008(4) 0.9353(3) 0.4147(2)
H6 H 0.4652 0.9387 0.4476
H7 H 0.5358 0.8950 0.4174
C11 C 0.4404(4) 0.9310(3) 0.3631(2)
H8 H 0.4038 0.8915 0.3658
H9 H 0.4024 0.9698 0.3620
C12 C 0.4930(3) 0.9279(2) 0.3117(2)
H10 H 0.5311 0.8886 0.3143
C13 C 0.3747(3) 0.8867(2) 0.25682(19)
H11 H 0.3531 0.8691 0.2895
C14 C 0.3276(3) 0.8713(3) 0.2081(2)
C15 C 0.2539(4) 0.8296(3) 0.2134(2)
H12 H 0.2384 0.8131 0.2478
C16 C 0.2035(4) 0.8129(3) 0.1670(3)
H13 H 0.1539 0.7864 0.1709
C17 C 0.2278(3) 0.8359(3) 0.1158(2)
H14 H 0.1954 0.8241 0.0849
C18 C 0.3004(3) 0.8765(2) 0.1104(2)
H15 H 0.3155 0.8921 0.0756
C19 C 0.3512(3) 0.8948(2) 0.1551(2)
C20 C 0.6675(3) 1.0109(3) 0.2450(2)
H16 H 0.6992 1.0242 0.2757
C21 C 0.7108(3) 1.0180(2) 0.1912(2)
C22 C 0.7959(4) 1.0410(3) 0.1895(2)
H17 H 0.8230 1.0529 0.2224
C23 C 0.8412(4) 1.0469(3) 0.1427(2)
H18 H 0.9001 1.0586 0.1425
C24 C 0.7950(4) 1.0346(3) 0.0935(2)
H19 H 0.8240 1.0400 0.0601
C25 C 0.7133(4) 1.0160(3) 0.0929(2)
H20 H 0.6861 1.0088 0.0592
C26 C 0.6646(4) 1.0064(2) 0.14190(19)
C27 C 0.8389(3) 0.7423(2) 0.14129(18)
H21 H 0.8739 0.7625 0.1118
C28 C 0.8989(3) 0.7365(3) 0.1921(2)
H22 H 0.8682 0.7145 0.2220
H23 H 0.9506 0.7105 0.1832
C29 C 0.9241(3) 0.8058(2) 0.2085(2)
H24 H 0.9616 0.8244 0.1802
H25 H 0.9580 0.8035 0.2422
C30 C 0.8465(4) 0.8535(3) 0.2176(2)
H26 H 0.8124 0.8384 0.2489
H27 H 0.8683 0.8979 0.2258
C31 C 0.7878(4) 0.8563(3) 0.1664(2)
H28 H 0.7357 0.8822 0.1742
H29 H 0.8189 0.8777 0.1363
C32 C 0.7627(3) 0.7862(2) 0.15018(18)
H30 H 0.7282 0.7671 0.1804
C33 C 0.6575(3) 0.8297(2) 0.08441(18)
H31 H 0.6552 0.8674 0.1067
C34 C 0.6036(3) 0.8291(2) 0.03590(17)
C35 C 0.5568(4) 0.8879(3) 0.0233(2)
H32 H 0.5578 0.9229 0.0485
C36 C 0.5107(3) 0.8954(3) -0.0238(2)
H33 H 0.4787 0.9342 -0.0299
C37 C 0.5112(4) 0.8468(3) -0.0615(2)
H34 H 0.4825 0.8531 -0.0948
C38 C 0.5560(3) 0.7844(3) -0.0509(2)
H35 H 0.5549 0.7505 -0.0770
C39 C 0.6004(3) 0.7755(2) -0.00191(18)
C40 C 0.8267(3) 0.6196(3) 0.1385(2)
H36 H 0.8637 0.6184 0.1689
C41 C 0.7977(3) 0.5568(2) 0.1155(2)
C42 C 0.8183(4) 0.5003(3) 0.1429(2)
H37 H 0.8460 0.5034 0.1769
C43 C 0.7986(4) 0.4367(3) 0.1212(3)
H38 H 0.8156 0.3985 0.1401
C44 C 0.7554(4) 0.4314(3) 0.0730(2)
H39 H 0.7417 0.3895 0.0588
C45 C 0.7309(4) 0.4902(3) 0.0440(2)
H40 H 0.7018 0.4867 0.0105
C46 C 0.7501(3) 0.5528(3) 0.06530(19)
C47 C 0.6979(4) 0.6217(2) 0.4263(2)
H41 H 0.7284 0.6237 0.4618
C48 C 0.6298(3) 0.5676(3) 0.4304(2)
H42 H 0.6586 0.5257 0.4388
H43 H 0.6012 0.5628 0.3950
C49 C 0.5612(4) 0.5811(3) 0.4737(2)
H44 H 0.5878 0.5795 0.5100
H45 H 0.5163 0.5470 0.4721
C50 C 0.5203(4) 0.6491(3) 0.4646(2)
H46 H 0.4882 0.6488 0.4301
H47 H 0.4790 0.6582 0.4940
C51 C 0.5881(4) 0.7041(3) 0.4629(2)
H48 H 0.5598 0.7467 0.4562
H49 H 0.6182 0.7066 0.4980
C52 C 0.6526(3) 0.6896(2) 0.41786(19)
H50 H 0.6197 0.6872 0.3833
C53 C 0.7827(4) 0.5593(3) 0.3605(2)
H51 H 0.7473 0.5230 0.3691
C54 C 0.8550(4) 0.5483(3) 0.3218(2)
C55 C 0.8661(4) 0.4817(3) 0.3034(2)
H52 H 0.8272 0.4490 0.3153
C56 C 0.9311(4) 0.4648(4) 0.2694(2)
H53 H 0.9389 0.4206 0.2587
C57 C 0.9878(4) 0.5155(3) 0.2503(2)
H54 H 1.0317 0.5047 0.2253
C58 C 0.9796(3) 0.5788(3) 0.2672(2)
H55 H 1.0187 0.6108 0.2543
C59 C 0.9131(4) 0.5981(3) 0.3039(2)
C60 C 0.7254(4) 0.7979(3) 0.4303(2)
H56 H 0.6792 0.8081 0.4537
C61 C 0.7874(4) 0.8482(3) 0.4202(2)
C62 C 0.7779(4) 0.9094(3) 0.4479(2)
H57 H 0.7329 0.9153 0.4732
C63 C 0.8375(4) 0.9618(3) 0.4371(2)
H58 H 0.8322 1.0020 0.4560
C64 C 0.9014(4) 0.9542(3) 0.4000(3)
H59 H 0.9380 0.9901 0.3924
C65 C 0.9143(4) 0.8966(3) 0.3735(3)
H60 H 0.9606 0.8928 0.3488
C66 C 0.8578(4) 0.8405(3) 0.3826(2)
N1 N 0.4438(2) 0.92225(18) 0.26027(14)
N2 N 0.5917(3) 0.98834(19) 0.25346(15)
N3 N 0.5605(3) 0.84537(19) 0.19619(16)
N4 N 0.7077(3) 0.78283(18) 0.09921(13)
N5 N 0.8040(2) 0.67743(18) 0.11920(14)
N6 N 0.6169(3) 0.65833(19) 0.12841(16)
N7 N 0.7649(3) 0.6156(2) 0.38339(15)
N8 N 0.7276(3) 0.7379(2) 0.40942(16)
N9 N 0.7298(3) 0.7118(2) 0.29163(16)
N10 N 0.4708(3) 0.7596(2) 0.34898(18)
N11 N 0.3602(3) 0.6694(3) 0.2050(2)
N12 N 0.5479(3) 0.5614(2) 0.29312(17)
O1 O 0.4215(2) 0.93069(15) 0.14618(12)
O2 O 0.5835(2) 0.98567(15) 0.13924(13)
O3 O 0.6336(2) 0.71653(15) 0.00845(12)
O4 O 0.7278(2) 0.60562(16) 0.03555(12)
O5 O 0.9103(2) 0.66006(18) 0.32329(16)
O6 O 0.8739(3) 0.78540(18) 0.35371(16)
O7 O 0.9054(2) 0.6871(2) 0.44546(15)
H61 H 0.9574 0.7005 0.4400
H62 H 0.9061 0.6459 0.4540
O8 O 0.8396(6) 0.7417(5) -0.0080(4)
H63 H 0.8520 0.7805 0.0038
H64 H 0.8833 0.7160 -0.0035
Mn1B Mn 0.49194(4) 0.45820(3) 0.30406(3)
N12B N 0.4521(3) 1.0614(2) 0.20688(17)
O9 O 0.9234(6) 0.7721(5) -0.0814(4)
H65 H 0.9746 0.7824 -0.0706
H66 H 0.9264 0.7397 -0.1040
O10 O 0.4769(6) 0.0913(5) 0.5489(4)
H67 H 0.4985 0.0904 0.5167
H68 H 0.4890 0.0551 0.5655
O11 O 0.7626(5) 0.1409(4) 0.3946(3)
H69 H 0.7600 0.1130 0.3682
H70 H 0.7581 0.1803 0.3819
O12 O 0.8562(6) 0.7220(5) 0.5508(4)
H71 H 0.8973 0.7404 0.5327
H72 H 0.8688 0.7224 0.5849
O13 O 0.2742(5) 0.7037(4) 0.3213(3)
H73 H 0.3213 0.7052 0.3399
H74 H 0.2855 0.6908 0.2887
O14 O 0.0794(8) 0.7571(6) 0.3337(5)
H75 H 0.1314 0.7426 0.3303
H76 H 0.0802 0.7995 0.3359
O15 O 0.0511(9) 0.6459(7) 0.4542(6)
H77 H 0.0587 0.6058 0.4440
H78 H 0.0884 0.6558 0.4789
loop_
_geom_bond_atom_site_label_1
_geom_bond_atom_site_label_2
_geom_bond_site_symmetry_1
_geom_bond_site_symmetry_2
Fe1 C1 1_555 1_555
Mn1 N1 1_555 1_555
Mn2 N4 1_555 1_555
Mn3 N7 1_555 1_555
C1 N3 1_555 1_555
C2 Fe1 1_555 1_555
C3 Fe1 1_555 1_555
C4 Fe1 1_555 1_555
C5 Fe1 1_555 1_555
C6 Fe1 1_555 1_555
C7 H1 1_555 1_555
C8 C7 1_555 1_555
H2 C8 1_555 1_555
H3 C8 1_555 1_555
C9 C8 1_555 1_555
H4 C9 1_555 1_555
H5 C9 1_555 1_555
C10 C9 1_555 1_555
H6 C10 1_555 1_555
H7 C10 1_555 1_555
C11 C10 1_555 1_555
H8 C11 1_555 1_555
H9 C11 1_555 1_555
C12 C7 1_555 1_555
H10 C12 1_555 1_555
C13 H11 1_555 1_555
C14 C13 1_555 1_555
C15 C14 1_555 1_555
H12 C15 1_555 1_555
C16 C15 1_555 1_555
H13 C16 1_555 1_555
C17 C16 1_555 1_555
H14 C17 1_555 1_555
C18 C17 1_555 1_555
H15 C18 1_555 1_555
C19 C14 1_555 1_555
C20 H16 1_555 1_555
C21 C20 1_555 1_555
C22 C21 1_555 1_555
H17 C22 1_555 1_555
C23 C22 1_555 1_555
H18 C23 1_555 1_555
C24 C23 1_555 1_555
H19 C24 1_555 1_555
C25 C24 1_555 1_555
H20 C25 1_555 1_555
C26 C21 1_555 1_555
C27 H21 1_555 1_555
C28 C27 1_555 1_555
H22 C28 1_555 1_555
H23 C28 1_555 1_555
C29 C28 1_555 1_555
H24 C29 1_555 1_555
H25 C29 1_555 1_555
C30 C29 1_555 1_555
H26 C30 1_555 1_555
H27 C30 1_555 1_555
C31 C30 1_555 1_555
H28 C31 1_555 1_555
H29 C31 1_555 1_555
C32 C27 1_555 1_555
H30 C32 1_555 1_555
C33 H31 1_555 1_555
C34 C33 1_555 1_555
C35 C34 1_555 1_555
H32 C35 1_555 1_555
C36 C35 1_555 1_555
H33 C36 1_555 1_555
C37 C36 1_555 1_555
H34 C37 1_555 1_555
C38 C37 1_555 1_555
H35 C38 1_555 1_555
C39 C34 1_555 1_555
C40 H36 1_555 1_555
C41 C40 1_555 1_555
C42 C41 1_555 1_555
H37 C42 1_555 1_555
C43 C42 1_555 1_555
H38 C43 1_555 1_555
C44 C43 1_555 1_555
H39 C44 1_555 1_555
C45 C44 1_555 1_555
H40 C45 1_555 1_555
C46 C41 1_555 1_555
C47 H41 1_555 1_555
C48 C47 1_555 1_555
H42 C48 1_555 1_555
H43 C48 1_555 1_555
C49 C48 1_555 1_555
H44 C49 1_555 1_555
H45 C49 1_555 1_555
C50 C49 1_555 1_555
H46 C50 1_555 1_555
H47 C50 1_555 1_555
C51 C50 1_555 1_555
H48 C51 1_555 1_555
H49 C51 1_555 1_555
C52 C47 1_555 1_555
H50 C52 1_555 1_555
C53 H51 1_555 1_555
C54 C53 1_555 1_555
C55 C54 1_555 1_555
H52 C55 1_555 1_555
C56 C55 1_555 1_555
H53 C56 1_555 1_555
C57 C56 1_555 1_555
H54 C57 1_555 1_555
C58 C57 1_555 1_555
H55 C58 1_555 1_555
C59 C54 1_555 1_555
C60 H56 1_555 1_555
C61 C60 1_555 1_555
C62 C61 1_555 1_555
H57 C62 1_555 1_555
C63 C62 1_555 1_555
H58 C63 1_555 1_555
C64 C63 1_555 1_555
H59 C64 1_555 1_555
C65 C64 1_555 1_555
H60 C65 1_555 1_555
C66 C61 1_555 1_555
N1 C12 1_555 1_555
N2 Mn1 1_555 1_555
N3 Mn1 1_555 1_555
N4 C32 1_555 1_555
N5 Mn2 1_555 1_555
N6 Mn2 1_555 1_555
N7 C47 1_555 1_555
N8 Mn3 1_555 1_555
N9 Mn3 1_555 1_555
N10 C5 1_555 1_555
N11 C6 1_555 1_555
N12 C4 1_555 1_555
O1 Mn1 1_555 1_555
O2 Mn1 1_555 1_555
O3 Mn2 1_555 1_555
O4 Mn2 1_555 1_555
O5 Mn3 1_555 1_555
O6 Mn3 1_555 1_555
O7 Mn3 1_555 1_555
H61 O7 1_555 1_555
H62 O7 1_555 1_555
O8 Mn2 1_555 1_555
H63 O8 1_555 1_555
H64 O8 1_555 1_555
O9 H65 1_555 1_555
H66 O9 1_555 1_555
O10 H67 1_555 1_555
H68 O10 1_555 1_555
O11 H69 1_555 1_555
H70 O11 1_555 1_555
O12 H71 1_555 1_555
H72 O12 1_555 1_555
O13 H73 1_555 1_555
H74 O13 1_555 1_555
O14 H75 1_555 1_555
H76 O14 1_555 1_555
O15 H77 1_555 1_555
H78 O15 1_555 1_555
Mn1B N12 1_555 1_555
N12B Mn1 1_555 1_555
C2 N6 1_555 1_555
C3 N9 1_555 1_555
C7 N2 1_555 1_555
C11 C12 1_555 1_555
C13 N1 1_555 1_555
C18 C19 1_555 1_555
C19 O1 1_555 1_555
C20 N2 1_555 1_555
C25 C26 1_555 1_555
C26 O2 1_555 1_555
C27 N5 1_555 1_555
C31 C32 1_555 1_555
C33 N4 1_555 1_555
C38 C39 1_555 1_555
C39 O3 1_555 1_555
C40 N5 1_555 1_555
C45 C46 1_555 1_555
C46 O4 1_555 1_555
C51 C52 1_555 1_555
C52 N8 1_555 1_555
C53 N7 1_555 1_555
C58 C59 1_555 1_555
C59 O5 1_555 1_555
C60 N8 1_555 1_555
C65 C66 1_555 1_555
C66 O6 1_555 1_555

#END
