
#######################################################################
#
#                 Cambridge Crystallographic Data Centre
#                                CCDC 
#
#######################################################################
#
# If this CIF has been generated from an entry in the Cambridge 
# Structural Database, then it will include bibliographic, chemical, 
# crystal, experimental, refinement or atomic coordinate data resulting 
# from the CCDC's data processing and validation procedures.
#
#######################################################################

data_JEPTUU
_symmetry_cell_setting           triclinic
_symmetry_space_group_name_H-M   'P -1'
_symmetry_Int_Tables_number      2
_space_group_name_Hall           '-P 1'
loop_
_symmetry_equiv_pos_site_id
_symmetry_equiv_pos_as_xyz
1 x,y,z
2 -x,-y,-z
_cell_length_a                   9.840(4)
_cell_length_b                   10.767(3)
_cell_length_c                   19.780(6)
_cell_angle_alpha                83.64(2)
_cell_angle_beta                 84.15(2)
_cell_angle_gamma                64.59(2)
_cell_volume                     1877.8
loop_
_atom_site_label
_atom_site_type_symbol
_atom_site_fract_x
_atom_site_fract_y
_atom_site_fract_z
Er1 Er 0.280211(15) 0.591313(14) 0.246524(6)
Cr1 Cr 0.72399(6) 0.04380(6) 0.22688(2)
O1 O 0.3149(3) 0.7762(3) 0.18456(14)
O2 O 0.2814(3) 0.5722(3) 0.12815(12)
O3 O 0.1359(3) 0.4677(3) 0.23600(13)
O4 O 0.2570(4) 0.4911(3) 0.35348(13)
N1 N 0.2386(4) 0.7587(3) 0.33523(14)
N2 N 0.5166(4) 0.5899(3) 0.28419(14)
N3 N 0.4639(4) 0.3550(3) 0.23171(15)
N4 N 0.4879(4) -0.0849(4) 0.20962(17)
N5 N 0.8003(4) 0.0801(4) 0.06516(17)
N6 N 0.9644(4) 0.1640(4) 0.2445(2)
N7 N 0.6675(5) 0.0019(5) 0.38935(18)
N8 N 0.0245(3) 0.7577(3) 0.22886(15)
C1 C 0.1015(5) 0.8387(4) 0.36153(18)
C2 C 0.0750(6) 0.9329(5) 0.4086(2)
C3 C 0.1963(7) 0.9465(5) 0.4297(2)
C4 C 0.3382(6) 0.8656(5) 0.4044(2)
C5 C 0.3582(4) 0.7699(4) 0.35743(16)
C6 C 0.5103(4) 0.6780(4) 0.32990(17)
C7 C 0.6409(6) 0.6795(5) 0.3505(2)
C8 C 0.7803(5) 0.5917(5) 0.3232(2)
C9 C 0.7864(5) 0.5041(5) 0.2761(2)
C10 C 0.6534(4) 0.5061(4) 0.25835(19)
C11 C 0.5517(4) 0.2421(4) 0.22884(17)
C12 C 0.5750(4) -0.0418(4) 0.21476(17)
C13 C 0.7665(4) 0.0693(4) 0.12217(18)
C14 C -0.0877(4) 0.8539(4) 0.22665(16)
C15 C 0.8765(4) 0.1245(4) 0.23910(19)
C16 C 0.6902(4) 0.0148(4) 0.33215(18)
H1 H 0.254(6) 0.822(5) 0.155(3)
H2 H 0.360(6) 0.809(5) 0.192(3)
H3 H 0.264(7) 0.511(7) 0.117(3)
H4 H 0.240(5) 0.642(5) 0.108(2)
H5 H 0.169(8) 0.388(7) 0.241(3)
H6 H 0.082(6) 0.494(5) 0.204(2)
H7 H 0.285(6) 0.505(6) 0.388(3)
H8 H 0.245(8) 0.429(7) 0.359(3)
H9 H 0.026(5) 0.826(4) 0.348(2)
H10 H -0.030(7) 0.986(6) 0.424(3)
H11 H 0.180(8) 1.005(7) 0.461(3)
H12 H 0.422(8) 0.867(7) 0.421(3)
H13 H 0.631(8) 0.739(8) 0.383(4)
H14 H 0.868(6) 0.592(5) 0.333(2)
H15 H 0.875(7) 0.439(6) 0.258(3)
H16 H 0.656(5) 0.449(5) 0.227(2)
Er1_2 Er -0.719789(15) 1.591313(14) 0.246524(6)
Er1_3 Er 1.280211(15) -0.408687(14) 0.246524(6)
Cr1_2 Cr -0.27601(6) 1.04380(6) 0.22688(2)
O1_2 O -0.6851(3) 1.7762(3) 0.18456(14)
O2_2 O -0.7186(3) 1.5722(3) 0.12815(12)
O3_2 O -0.8641(3) 1.4677(3) 0.23600(13)
O4_2 O -0.7430(4) 1.4911(3) 0.35348(13)
N1_2 N -0.7614(4) 1.7587(3) 0.33523(14)
N2_2 N -0.4834(4) 1.5899(3) 0.28419(14)
N3_2 N -0.5361(4) 1.3550(3) 0.23171(15)
N4_2 N -0.5121(4) 0.9151(4) 0.20962(17)
N5_2 N -0.1997(4) 1.0801(4) 0.06516(17)
N6_2 N -0.0356(4) 1.1640(4) 0.2445(2)
N7_2 N -0.3325(5) 1.0019(5) 0.38935(18)
N8_2 N 1.0245(3) -0.2423(3) 0.22886(15)
N8_3 N -0.9755(3) 1.7577(3) 0.22886(15)
C1_2 C -0.8985(5) 1.8387(4) 0.36153(18)
C2_2 C -0.9250(6) 1.9329(5) 0.4086(2)
C3_2 C -0.8037(7) 1.9465(5) 0.4297(2)
C4_2 C -0.6618(6) 1.8656(5) 0.4044(2)
C5_2 C -0.6418(4) 1.7699(4) 0.35743(16)
C6_2 C -0.4897(4) 1.6780(4) 0.32990(17)
C7_2 C -0.3591(6) 1.6795(5) 0.3505(2)
C8_2 C -0.2197(5) 1.5917(5) 0.3232(2)
C9_2 C -0.2136(5) 1.5041(5) 0.2761(2)
C10_2 C -0.3466(4) 1.5061(4) 0.25835(19)
C11_2 C -0.4483(4) 1.2421(4) 0.22884(17)
C12_2 C -0.4250(4) 0.9582(4) 0.21476(17)
C13_2 C -0.2335(4) 1.0693(4) 0.12217(18)
C14_2 C 0.9123(4) -0.1461(4) 0.22665(16)
C15_2 C -0.1235(4) 1.1245(4) 0.23910(19)
C16_2 C -0.3098(4) 1.0148(4) 0.33215(18)
H1_2 H -0.746(6) 1.822(5) 0.155(3)
H2_2 H -0.640(6) 1.809(5) 0.192(3)
H3_2 H -0.736(7) 1.511(7) 0.117(3)
H4_2 H -0.760(5) 1.642(5) 0.108(2)
H5_2 H -0.831(8) 1.388(7) 0.241(3)
H6_2 H -0.918(6) 1.494(5) 0.204(2)
H7_2 H -0.715(6) 1.505(6) 0.388(3)
H8_2 H -0.755(8) 1.429(7) 0.359(3)
H9_2 H -0.974(5) 1.826(4) 0.348(2)
H10_2 H -1.030(7) 1.986(6) 0.424(3)
H11_2 H -0.820(8) 2.005(7) 0.461(3)
H12_2 H -0.578(8) 1.867(7) 0.421(3)
H13_2 H -0.369(8) 1.739(8) 0.383(4)
H14_2 H -0.132(6) 1.592(5) 0.333(2)
H15_2 H -0.125(7) 1.439(6) 0.258(3)
H16_2 H -0.344(5) 1.449(5) 0.227(2)
N9 N 0.2401(4) 0.3517(3) 0.08903(15)
N10 N -0.0452(4) 0.5436(4) 0.11891(17)
C17 C 0.3797(5) 0.2525(4) 0.08090(18)
C18 C 0.4125(5) 0.1196(4) 0.06631(19)
C19 C 0.2934(6) 0.0864(5) 0.0604(2)
C20 C 0.1479(5) 0.1855(5) 0.0683(2)
C21 C 0.1234(5) 0.3196(4) 0.08196(17)
C22 C -0.0306(5) 0.4317(4) 0.08830(18)
C23 C -0.1535(6) 0.4250(5) 0.0630(2)
C24 C -0.2939(5) 0.5361(6) 0.0680(2)
C25 C -0.3087(5) 0.6512(6) 0.0968(2)
C26 C -0.1806(5) 0.6502(5) 0.1217(2)
H17 H 0.453(5) 0.278(4) 0.086(2)
H18 H 0.515(6) 0.057(5) 0.061(2)
H19 H 0.316(7) -0.004(7) 0.052(3)
H20 H 0.072(7) 0.165(6) 0.067(3)
H21 H -0.146(6) 0.352(6) 0.045(3)
H22 H -0.367(8) 0.517(7) 0.051(3)
H23 H -0.397(7) 0.731(7) 0.097(3)
H24 H -0.187(7) 0.721(6) 0.144(3)
N11 N 0.3075(5) 0.5407(4) 0.48254(17)
C27 C 0.1672(7) 0.6128(6) 0.5077(2)
C28 C 0.1329(7) 0.6925(6) 0.5630(2)
C29 C 0.2486(7) 0.7021(5) 0.5916(2)
C30 C 0.3953(7) 0.6277(5) 0.5669(2)
C31 C 0.4217(5) 0.5437(4) 0.51309(17)
H25 H 0.091(7) 0.610(6) 0.488(3)
H26 H 0.038(7) 0.726(6) 0.577(3)
H27 H 0.232(5) 0.758(5) 0.630(2)
H28 H 0.473(7) 0.625(6) 0.585(3)
N11A N 0.6925(5) 0.4593(4) 0.51746(17)
C27A C 0.8328(7) 0.3872(6) 0.4923(2)
C28A C 0.8671(7) 0.3075(6) 0.4370(2)
C29A C 0.7514(7) 0.2979(5) 0.4084(2)
C30A C 0.6047(7) 0.3723(5) 0.4331(2)
C31A C 0.5783(5) 0.4563(4) 0.48691(17)
H25A H 0.909(7) 0.390(6) 0.512(3)
H26A H 0.962(7) 0.274(6) 0.423(3)
H27A H 0.768(5) 0.242(5) 0.370(2)
H28A H 0.527(7) 0.375(6) 0.415(3)
O5 O 0.1364(4) 0.8430(3) 0.07115(15)
H29 H 0.157(7) 0.861(6) 0.033(3)
H30 H 0.049(8) 0.892(7) 0.077(3)
O6 O 0.2268(4) 0.1884(3) 0.25836(17)
H31 H 0.291(7) 0.115(7) 0.242(3)
H32 H 0.163(10) 0.181(9) 0.254(4)
O7 O 0.3173(11) 0.2123(8) 0.3810(4)
O9 O 0.4171(10) 0.1144(9) 0.4844(3)
H33 H 0.49(3) 0.06(2) 0.474(11)
O10 O 0.1914(19) 0.2512(17) 0.5193(8)
O8? O 0.2164(11) 0.2676(8) 0.3875(3)
loop_
_geom_bond_atom_site_label_1
_geom_bond_atom_site_label_2
_geom_bond_site_symmetry_1
_geom_bond_site_symmetry_2
Er1 O1 1_555 1_555
Cr1 C11 1_555 1_555
O1 H1 1_555 1_555
O2 Er1 1_555 1_555
O3 Er1 1_555 1_555
O4 Er1 1_555 1_555
N1 Er1 1_555 1_555
N2 Er1 1_555 1_555
N3 Er1 1_555 1_555
N4 C12 1_555 1_555
N5 C13 1_555 1_555
N6 C15 1_555 1_555
N7 C16 1_555 1_555
N8 Er1 1_555 1_555
N9 C17 1_555 1_555
N10 C22 1_555 1_555
N11 C27 1_555 1_555
C1 N1 1_555 1_555
C2 C1 1_555 1_555
C3 C2 1_555 1_555
C4 C3 1_555 1_555
C5 N1 1_555 1_555
C6 N2 1_555 1_555
C7 C6 1_555 1_555
C8 C7 1_555 1_555
C9 C8 1_555 1_555
C10 N2 1_555 1_555
C11 N3 1_555 1_555
C12 Cr1 1_555 1_555
C13 Cr1 1_555 1_555
C14 N8 1_555 1_555
C15 Cr1 1_555 1_555
C16 Cr1 1_555 1_555
C17 C18 1_555 1_555
C18 C19 1_555 1_555
C19 C20 1_555 1_555
C20 C21 1_555 1_555
C21 N9 1_555 1_555
C22 C21 1_555 1_555
C23 C22 1_555 1_555
C24 C23 1_555 1_555
C25 C24 1_555 1_555
C26 N10 1_555 1_555
C27 C28 1_555 1_555
C28 C29 1_555 1_555
C29 C30 1_555 1_555
C30 C31 1_555 1_555
C31 N11 1_555 1_555
O5 H29 1_555 1_555
O6 H31 1_555 1_555
O9 H33 1_555 1_555
H2 O1 1_555 1_555
H3 O2 1_555 1_555
H4 O2 1_555 1_555
H5 O3 1_555 1_555
H6 O3 1_555 1_555
H7 O4 1_555 1_555
H8 O4 1_555 1_555
H9 C1 1_555 1_555
H10 C2 1_555 1_555
H11 C3 1_555 1_555
H12 C4 1_555 1_555
H13 C7 1_555 1_555
H14 C8 1_555 1_555
H15 C9 1_555 1_555
H16 C10 1_555 1_555
H17 C17 1_555 1_555
H18 C18 1_555 1_555
H19 C19 1_555 1_555
H20 C20 1_555 1_555
H21 C23 1_555 1_555
H22 C24 1_555 1_555
H23 C25 1_555 1_555
H24 C26 1_555 1_555
H25 C27 1_555 1_555
H26 C28 1_555 1_555
H27 C29 1_555 1_555
H28 C30 1_555 1_555
H30 O5 1_555 1_555
H32 O6 1_555 1_555
Er1_2 O1_2 1_555 1_555
Er1_3 N8_2 1_555 1_555
Cr1_2 C14 1_555 1_555
O1_2 H1_2 1_555 1_555
O2_2 Er1_2 1_555 1_555
O3_2 Er1_2 1_555 1_555
O4_2 Er1_2 1_555 1_555
N1_2 Er1_2 1_555 1_555
N2_2 Er1_2 1_555 1_555
N3_2 Er1_2 1_555 1_555
N4_2 C12_2 1_555 1_555
N5_2 C13_2 1_555 1_555
N6_2 C15_2 1_555 1_555
N7_2 C16_2 1_555 1_555
N8_2 C14_2 1_555 1_555
N8_3 Er1_2 1_555 1_555
N11A C27A 1_555 1_555
C1_2 N1_2 1_555 1_555
C2_2 C1_2 1_555 1_555
C3_2 C2_2 1_555 1_555
C4_2 C3_2 1_555 1_555
C5_2 N1_2 1_555 1_555
C6_2 N2_2 1_555 1_555
C7_2 C6_2 1_555 1_555
C8_2 C7_2 1_555 1_555
C9_2 C8_2 1_555 1_555
C10_2 N2_2 1_555 1_555
C11_2 Cr1_2 1_555 1_555
C12_2 Cr1_2 1_555 1_555
C13_2 Cr1_2 1_555 1_555
C14_2 Cr1 1_555 1_555
C15_2 Cr1_2 1_555 1_555
C16_2 Cr1_2 1_555 1_555
C27A C28A 1_555 1_555
C28A C29A 1_555 1_555
C29A C30A 1_555 1_555
C30A C31A 1_555 1_555
C31A C31 1_555 1_555
H2_2 O1_2 1_555 1_555
H3_2 O2_2 1_555 1_555
H4_2 O2_2 1_555 1_555
H5_2 O3_2 1_555 1_555
H6_2 O3_2 1_555 1_555
H7_2 O4_2 1_555 1_555
H8_2 O4_2 1_555 1_555
H9_2 C1_2 1_555 1_555
H10_2 C2_2 1_555 1_555
H11_2 C3_2 1_555 1_555
H12_2 C4_2 1_555 1_555
H13_2 C7_2 1_555 1_555
H14_2 C8_2 1_555 1_555
H15_2 C9_2 1_555 1_555
H16_2 C10_2 1_555 1_555
H25A C27A 1_555 1_555
H26A C28A 1_555 1_555
H27A C29A 1_555 1_555
H28A C30A 1_555 1_555
C4 C5 1_555 1_555
C5 C6 1_555 1_555
C9 C10 1_555 1_555
C25 C26 1_555 1_555
N3_2 C11_2 1_555 1_555
N11A C31A 1_555 1_555
C4_2 C5_2 1_555 1_555
C5_2 C6_2 1_555 1_555
C9_2 C10_2 1_555 1_555

#END
