
#######################################################################
#
#                 Cambridge Crystallographic Data Centre
#                                CCDC 
#
#######################################################################
#
# If this CIF has been generated from an entry in the Cambridge 
# Structural Database, then it will include bibliographic, chemical, 
# crystal, experimental, refinement or atomic coordinate data resulting 
# from the CCDC's data processing and validation procedures.
#
#######################################################################

data_JEPVUW
_symmetry_cell_setting           triclinic
_symmetry_space_group_name_H-M   'P -1'
_symmetry_Int_Tables_number      2
_space_group_name_Hall           '-P 1'
loop_
_symmetry_equiv_pos_site_id
_symmetry_equiv_pos_as_xyz
1 x,y,z
2 -x,-y,-z
_cell_length_a                   9.8649(7)
_cell_length_b                   10.8552(7)
_cell_length_c                   19.9156(13)
_cell_angle_alpha                83.4130(10)
_cell_angle_beta                 83.6820(10)
_cell_angle_gamma                65.2660(10)
_cell_volume                     1919.68
loop_
_atom_site_label
_atom_site_type_symbol
_atom_site_fract_x
_atom_site_fract_y
_atom_site_fract_z
Sm1 Sm 0.279426(12) 0.591225(11) 0.245911(6)
Cr1 Cr 0.72354(4) 0.04413(4) 0.226763(19)
O1 O 0.3155(2) 0.7809(2) 0.18232(10)
H1 H 0.3706 0.8178 0.1901
H2 H 0.2569 0.8199 0.1499
O2 O 0.2767(2) 0.5753(2) 0.12453(9)
H3 H 0.2479 0.5241 0.1153
H4 H 0.2291 0.6616 0.0983
O3 O 0.13410(19) 0.46300(18) 0.23505(9)
H5 H 0.0873 0.4950 0.2000
H6 H 0.1770 0.3742 0.2428
O4 O 0.2545(3) 0.4882(2) 0.35627(9)
H7 H 0.2569 0.4124 0.3615
H8 H 0.2753 0.5161 0.3902
N1 N 0.2408(3) 0.7599(2) 0.33643(11)
N2 N 0.5167(2) 0.5931(2) 0.28693(11)
N3 N 0.4681(2) 0.3510(2) 0.23070(12)
N4 N 0.4876(3) -0.0824(3) 0.20880(13)
N5 N 0.8003(3) 0.0798(3) 0.06602(13)
N6 N 0.9615(3) 0.1641(3) 0.24618(17)
N7 N 0.6645(4) 0.0014(4) 0.38803(14)
N8 N 0.0155(2) 0.7600(2) 0.22889(12)
C1 C 0.1030(3) 0.8393(3) 0.36128(15)
H9 H 0.0214 0.8303 0.3466
C2 C 0.0766(4) 0.9340(3) 0.40768(17)
H10 H -0.0202 0.9873 0.4239
C3 C 0.1973(5) 0.9468(4) 0.42896(19)
H11 H 0.1832 1.0102 0.4596
C4 C 0.3382(5) 0.8657(4) 0.40479(18)
H12 H 0.4206 0.8731 0.4195
C5 C 0.3588(3) 0.7723(3) 0.35822(13)
C6 C 0.5088(3) 0.6805(3) 0.33167(14)
C7 C 0.6400(4) 0.6827(4) 0.35200(18)
H13 H 0.6337 0.7428 0.3832
C8 C 0.7779(4) 0.5958(4) 0.32555(19)
H14 H 0.8651 0.5975 0.3381
C9 C 0.7845(3) 0.5074(4) 0.28080(17)
H15 H 0.8763 0.4469 0.2628
C10 C 0.6528(3) 0.5088(3) 0.26250(15)
H16 H 0.6586 0.4483 0.2317
C11 C 0.5544(3) 0.2403(2) 0.22826(13)
C12 C 0.5736(3) -0.0400(3) 0.21423(13)
C13 C 0.7673(3) 0.0692(3) 0.12270(14)
C14 C -0.0941(3) 0.8559(3) 0.22686(12)
C15 C 0.8744(3) 0.1241(3) 0.23968(14)
C16 C 0.6875(3) 0.0161(3) 0.33099(15)
Sm1_2 Sm -0.720574(12) 1.591225(11) 0.245911(6)
Sm1_3 Sm 1.279426(12) -0.408775(11) 0.245911(6)
Cr1_2 Cr -0.27646(4) 1.04413(4) 0.226763(19)
O1_2 O -0.6845(2) 1.7809(2) 0.18232(10)
H1_2 H -0.6294 1.8178 0.1901
H2_2 H -0.7431 1.8199 0.1499
O2_2 O -0.7233(2) 1.5753(2) 0.12453(9)
H3_2 H -0.7521 1.5241 0.1153
H4_2 H -0.7709 1.6616 0.0983
O3_2 O -0.86590(19) 1.46300(18) 0.23505(9)
H5_2 H -0.9127 1.4950 0.2000
H6_2 H -0.8230 1.3742 0.2428
O4_2 O -0.7455(3) 1.4882(2) 0.35627(9)
H7_2 H -0.7431 1.4124 0.3615
H8_2 H -0.7247 1.5161 0.3902
N1_2 N -0.7592(3) 1.7599(2) 0.33643(11)
N2_2 N -0.4833(2) 1.5931(2) 0.28693(11)
N3_2 N -0.5319(2) 1.3510(2) 0.23070(12)
N4_2 N -0.5124(3) 0.9176(3) 0.20880(13)
N5_2 N -0.1997(3) 1.0798(3) 0.06602(13)
N6_2 N -0.0385(3) 1.1641(3) 0.24618(17)
N7_2 N -0.3355(4) 1.0014(4) 0.38803(14)
N8_2 N 1.0155(2) -0.2400(2) 0.22889(12)
N8_3 N -0.9845(2) 1.7600(2) 0.22889(12)
C1_2 C -0.8970(3) 1.8393(3) 0.36128(15)
H9_2 H -0.9786 1.8303 0.3466
C2_2 C -0.9234(4) 1.9340(3) 0.40768(17)
H10_2 H -1.0202 1.9873 0.4239
C3_2 C -0.8027(5) 1.9468(4) 0.42896(19)
H11_2 H -0.8168 2.0102 0.4596
C4_2 C -0.6618(5) 1.8657(4) 0.40479(18)
H12_2 H -0.5794 1.8731 0.4195
C5_2 C -0.6412(3) 1.7723(3) 0.35822(13)
C6_2 C -0.4912(3) 1.6805(3) 0.33167(14)
C7_2 C -0.3600(4) 1.6827(4) 0.35200(18)
H13_2 H -0.3663 1.7428 0.3832
C8_2 C -0.2221(4) 1.5958(4) 0.32555(19)
H14_2 H -0.1349 1.5975 0.3381
C9_2 C -0.2155(3) 1.5074(4) 0.28080(17)
H15_2 H -0.1237 1.4469 0.2628
C10_2 C -0.3472(3) 1.5088(3) 0.26250(15)
H16_2 H -0.3414 1.4483 0.2317
C11_2 C -0.4456(3) 1.2403(2) 0.22826(13)
C12_2 C -0.4264(3) 0.9600(3) 0.21423(13)
C13_2 C -0.2327(3) 1.0692(3) 0.12270(14)
C14_2 C 0.9059(3) -0.1441(3) 0.22686(12)
C15_2 C -0.1256(3) 1.1241(3) 0.23968(14)
C16_2 C -0.3125(3) 1.0161(3) 0.33099(15)
N9 N 0.2372(3) 0.3522(3) 0.08813(12)
N10 N -0.0456(3) 0.5388(3) 0.11918(14)
C17 C 0.3760(3) 0.2555(3) 0.08025(15)
H17 H 0.4555 0.2776 0.0853
C18 C 0.4079(4) 0.1256(3) 0.06511(16)
H18 H 0.5064 0.0623 0.0592
C19 C 0.2909(4) 0.0916(4) 0.05890(19)
H19 H 0.3086 0.0043 0.0490
C20 C 0.1465(4) 0.1888(4) 0.06759(17)
H20 H 0.0659 0.1671 0.0644
C21 C 0.1222(3) 0.3191(3) 0.08114(14)
C22 C -0.0316(3) 0.4316(3) 0.08830(14)
C23 C -0.1534(4) 0.4238(4) 0.0629(2)
H21 H -0.1418 0.3472 0.0422
C24 C -0.2909(4) 0.5309(5) 0.0690(2)
H22 H -0.3740 0.5265 0.0533
C25 C -0.3052(4) 0.6451(4) 0.09832(17)
H23 H -0.3962 0.7206 0.1011
C26 C -0.1808(4) 0.6429(4) 0.12302(18)
H24 H -0.1903 0.7186 0.1440
N11 N 0.3085(4) 0.5409(3) 0.48362(13)
C27 C 0.1700(5) 0.6132(4) 0.50861(19)
H25 H 0.0909 0.6091 0.4890
C28 C 0.1372(5) 0.6945(4) 0.56229(19)
H26 H 0.0390 0.7422 0.5789
C29 C 0.2532(5) 0.7021(4) 0.58975(18)
H27 H 0.2349 0.7574 0.6250
C30 C 0.3979(5) 0.6279(4) 0.56554(17)
H28 H 0.4777 0.6336 0.5838
C31 C 0.4232(4) 0.5440(3) 0.51319(14)
N11A N 0.6915(4) 0.4591(3) 0.51638(13)
C27A C 0.8300(5) 0.3868(4) 0.49139(19)
H25A H 0.9091 0.3909 0.5110
C28A C 0.8628(5) 0.3055(4) 0.43771(19)
H26A H 0.9610 0.2578 0.4211
C29A C 0.7468(5) 0.2979(4) 0.41025(18)
H27A H 0.7651 0.2426 0.3750
C30A C 0.6021(5) 0.3721(4) 0.43446(17)
H28A H 0.5223 0.3664 0.4162
C31A C 0.5768(4) 0.4560(3) 0.48681(14)
O5 O 0.1367(2) 0.8442(2) 0.06976(10)
H29 H 0.1528 0.8585 0.0290
H30 H 0.0312 0.8842 0.0764
O6 O 0.2252(2) 0.1863(2) 0.25917(12)
H31 H 0.1418 0.1794 0.2569
O7 O 0.309(2) 0.2152(11) 0.3816(3)
O9 O 0.4176(6) 0.1104(6) 0.4840(3)
O10 O 0.1989(18) 0.2449(17) 0.5187(8)
O8? O 0.213(2) 0.2676(13) 0.3907(4)
loop_
_geom_bond_atom_site_label_1
_geom_bond_atom_site_label_2
_geom_bond_site_symmetry_1
_geom_bond_site_symmetry_2
Sm1 O1 1_555 1_555
Cr1 C11 1_555 1_555
O1 H1 1_555 1_555
H2 O1 1_555 1_555
O2 Sm1 1_555 1_555
H3 O2 1_555 1_555
H4 O2 1_555 1_555
O3 Sm1 1_555 1_555
H5 O3 1_555 1_555
H6 O3 1_555 1_555
O4 Sm1 1_555 1_555
H7 O4 1_555 1_555
H8 O4 1_555 1_555
N1 Sm1 1_555 1_555
N2 Sm1 1_555 1_555
N3 Sm1 1_555 1_555
N4 C12 1_555 1_555
N5 C13 1_555 1_555
N6 C15 1_555 1_555
N7 C16 1_555 1_555
N8 Sm1 1_555 1_555
N9 C17 1_555 1_555
N10 C22 1_555 1_555
N11 C27 1_555 1_555
C1 N1 1_555 1_555
H9 C1 1_555 1_555
C2 C1 1_555 1_555
H10 C2 1_555 1_555
C3 C2 1_555 1_555
H11 C3 1_555 1_555
C4 C3 1_555 1_555
H12 C4 1_555 1_555
C5 N1 1_555 1_555
C6 N2 1_555 1_555
C7 C6 1_555 1_555
H13 C7 1_555 1_555
C8 C7 1_555 1_555
H14 C8 1_555 1_555
C9 C8 1_555 1_555
H15 C9 1_555 1_555
C10 N2 1_555 1_555
H16 C10 1_555 1_555
C11 N3 1_555 1_555
C12 Cr1 1_555 1_555
C13 Cr1 1_555 1_555
C14 N8 1_555 1_555
C15 Cr1 1_555 1_555
C16 Cr1 1_555 1_555
C17 H17 1_555 1_555
C18 C17 1_555 1_555
H18 C18 1_555 1_555
C19 C18 1_555 1_555
H19 C19 1_555 1_555
C20 C19 1_555 1_555
H20 C20 1_555 1_555
C21 N9 1_555 1_555
C22 C21 1_555 1_555
C23 C22 1_555 1_555
H21 C23 1_555 1_555
C24 C23 1_555 1_555
H22 C24 1_555 1_555
C25 C24 1_555 1_555
H23 C25 1_555 1_555
C26 N10 1_555 1_555
H24 C26 1_555 1_555
C27 H25 1_555 1_555
C28 C27 1_555 1_555
H26 C28 1_555 1_555
C29 C28 1_555 1_555
H27 C29 1_555 1_555
C30 C29 1_555 1_555
H28 C30 1_555 1_555
C31 N11 1_555 1_555
O5 H29 1_555 1_555
H30 O5 1_555 1_555
O6 H31 1_555 1_555
Sm1_2 O1_2 1_555 1_555
Sm1_3 N8_2 1_555 1_555
Cr1_2 C14 1_555 1_555
O1_2 H1_2 1_555 1_555
H2_2 O1_2 1_555 1_555
O2_2 Sm1_2 1_555 1_555
H3_2 O2_2 1_555 1_555
H4_2 O2_2 1_555 1_555
O3_2 Sm1_2 1_555 1_555
H5_2 O3_2 1_555 1_555
H6_2 O3_2 1_555 1_555
O4_2 Sm1_2 1_555 1_555
H7_2 O4_2 1_555 1_555
H8_2 O4_2 1_555 1_555
N1_2 Sm1_2 1_555 1_555
N2_2 Sm1_2 1_555 1_555
N3_2 Sm1_2 1_555 1_555
N4_2 C12_2 1_555 1_555
N5_2 C13_2 1_555 1_555
N6_2 C15_2 1_555 1_555
N7_2 C16_2 1_555 1_555
N8_2 C14_2 1_555 1_555
N8_3 Sm1_2 1_555 1_555
N11A C27A 1_555 1_555
C1_2 N1_2 1_555 1_555
H9_2 C1_2 1_555 1_555
C2_2 C1_2 1_555 1_555
H10_2 C2_2 1_555 1_555
C3_2 C2_2 1_555 1_555
H11_2 C3_2 1_555 1_555
C4_2 C3_2 1_555 1_555
H12_2 C4_2 1_555 1_555
C5_2 N1_2 1_555 1_555
C6_2 N2_2 1_555 1_555
C7_2 C6_2 1_555 1_555
H13_2 C7_2 1_555 1_555
C8_2 C7_2 1_555 1_555
H14_2 C8_2 1_555 1_555
C9_2 C8_2 1_555 1_555
H15_2 C9_2 1_555 1_555
C10_2 N2_2 1_555 1_555
H16_2 C10_2 1_555 1_555
C11_2 Cr1_2 1_555 1_555
C12_2 Cr1_2 1_555 1_555
C13_2 Cr1_2 1_555 1_555
C14_2 Cr1 1_555 1_555
C15_2 Cr1_2 1_555 1_555
C16_2 Cr1_2 1_555 1_555
C27A H25A 1_555 1_555
C28A C27A 1_555 1_555
H26A C28A 1_555 1_555
C29A C28A 1_555 1_555
H27A C29A 1_555 1_555
C30A C29A 1_555 1_555
H28A C30A 1_555 1_555
C31A C31 1_555 1_555
C4 C5 1_555 1_555
C5 C6 1_555 1_555
C9 C10 1_555 1_555
C20 C21 1_555 1_555
C25 C26 1_555 1_555
C30 C31 1_555 1_555
N3_2 C11_2 1_555 1_555
N11A C31A 1_555 1_555
C4_2 C5_2 1_555 1_555
C5_2 C6_2 1_555 1_555
C9_2 C10_2 1_555 1_555
C30A C31A 1_555 1_555

#END
