
#######################################################################
#
#                 Cambridge Crystallographic Data Centre
#                                CCDC 
#
#######################################################################
#
# If this CIF has been generated from an entry in the Cambridge 
# Structural Database, then it will include bibliographic, chemical, 
# crystal, experimental, refinement or atomic coordinate data resulting 
# from the CCDC's data processing and validation procedures.
#
#######################################################################

data_JEPWOR
_symmetry_cell_setting           triclinic
_symmetry_space_group_name_H-M   'P -1'
_symmetry_Int_Tables_number      2
_space_group_name_Hall           '-P 1'
loop_
_symmetry_equiv_pos_site_id
_symmetry_equiv_pos_as_xyz
1 x,y,z
2 -x,-y,-z
_cell_length_a                   9.805(4)
_cell_length_b                   10.745(3)
_cell_length_c                   19.749(7)
_cell_angle_alpha                83.88(2)
_cell_angle_beta                 83.02(2)
_cell_angle_gamma                64.85(2)
_cell_volume                     1865.94
loop_
_atom_site_label
_atom_site_type_symbol
_atom_site_fract_x
_atom_site_fract_y
_atom_site_fract_z
Ho1 Ho 0.280033(12) 0.591069(11) 0.246426(5)
Cr1 Cr 0.72371(4) 0.04359(4) 0.226884(19)
O1 O 0.3153(3) 0.7767(2) 0.18407(11)
O2 O 0.2807(3) 0.5724(2) 0.12741(10)
O3 O 0.1353(2) 0.4667(2) 0.23591(10)
O4 O 0.2567(3) 0.4903(2) 0.35411(10)
N1 N 0.2390(3) 0.7588(2) 0.33542(11)
N2 N 0.5169(3) 0.5904(2) 0.28437(11)
N3 N 0.4643(3) 0.3546(2) 0.23150(12)
N4 N 0.4875(3) -0.0851(3) 0.20960(13)
N5 N 0.8002(3) 0.0804(3) 0.06501(13)
N6 N 0.9637(3) 0.1638(3) 0.24477(17)
N7 N 0.6666(4) 0.0018(4) 0.38950(14)
N8 N 0.0227(3) 0.7578(2) 0.22889(12)
C1 C 0.1022(4) 0.8380(3) 0.36152(14)
C2 C 0.0746(5) 0.9339(4) 0.40853(16)
C3 C 0.1963(5) 0.9469(4) 0.42980(18)
C4 C 0.3381(5) 0.8653(4) 0.40442(18)
C5 C 0.3586(3) 0.7703(3) 0.35745(13)
C6 C 0.5095(3) 0.6779(3) 0.33040(13)
C7 C 0.6418(4) 0.6794(4) 0.35049(17)
C8 C 0.7796(4) 0.5929(4) 0.32369(19)
C9 C 0.7869(4) 0.5028(4) 0.27683(18)
C10 C 0.6529(3) 0.5061(3) 0.25859(15)
C11 C 0.5515(3) 0.2421(3) 0.22868(13)
C12 C 0.5737(3) -0.0416(3) 0.21476(13)
C13 C 0.7669(3) 0.0688(3) 0.12220(13)
C14 C -0.0901(3) 0.8543(3) 0.22666(12)
C15 C 0.8759(3) 0.1242(3) 0.23943(14)
C16 C 0.6892(3) 0.0159(3) 0.33186(14)
H1 H 0.261(5) 0.818(4) 0.155(2)
H2 H 0.360(4) 0.815(4) 0.1928(19)
H3 H 0.254(5) 0.516(5) 0.118(2)
H4 H 0.242(5) 0.637(5) 0.108(2)
H5 H 0.167(5) 0.382(5) 0.241(2)
H6 H 0.091(5) 0.494(4) 0.200(2)
H7 H 0.281(5) 0.510(4) 0.391(2)
H8 H 0.243(6) 0.421(6) 0.356(3)
H9 H 0.021(5) 0.832(4) 0.347(2)
H10 H -0.020(6) 0.979(5) 0.426(2)
H11 H 0.178(5) 1.005(4) 0.462(2)
H12 H 0.428(6) 0.859(5) 0.421(2)
H13 H 0.631(5) 0.739(5) 0.383(2)
H14 H 0.872(5) 0.589(4) 0.337(2)
H15 H 0.882(5) 0.444(4) 0.259(2)
H16 H 0.659(4) 0.444(3) 0.2266(15)
Ho1_2 Ho -0.719967(12) 1.591069(11) 0.246426(5)
Ho1_3 Ho 1.280033(12) -0.408931(11) 0.246426(5)
Cr1_2 Cr -0.27629(4) 1.04359(4) 0.226884(19)
O1_2 O -0.6847(3) 1.7767(2) 0.18407(11)
O2_2 O -0.7193(3) 1.5724(2) 0.12741(10)
O3_2 O -0.8647(2) 1.4667(2) 0.23591(10)
O4_2 O -0.7433(3) 1.4903(2) 0.35411(10)
N1_2 N -0.7610(3) 1.7588(2) 0.33542(11)
N2_2 N -0.4831(3) 1.5904(2) 0.28437(11)
N3_2 N -0.5357(3) 1.3546(2) 0.23150(12)
N4_2 N -0.5125(3) 0.9149(3) 0.20960(13)
N5_2 N -0.1998(3) 1.0804(3) 0.06501(13)
N6_2 N -0.0363(3) 1.1638(3) 0.24477(17)
N7_2 N -0.3334(4) 1.0018(4) 0.38950(14)
N8_2 N 1.0227(3) -0.2422(2) 0.22889(12)
N8_3 N -0.9773(3) 1.7578(2) 0.22889(12)
C1_2 C -0.8978(4) 1.8380(3) 0.36152(14)
C2_2 C -0.9254(5) 1.9339(4) 0.40853(16)
C3_2 C -0.8037(5) 1.9469(4) 0.42980(18)
C4_2 C -0.6619(5) 1.8653(4) 0.40442(18)
C5_2 C -0.6414(3) 1.7703(3) 0.35745(13)
C6_2 C -0.4905(3) 1.6779(3) 0.33040(13)
C7_2 C -0.3582(4) 1.6794(4) 0.35049(17)
C8_2 C -0.2204(4) 1.5929(4) 0.32369(19)
C9_2 C -0.2131(4) 1.5028(4) 0.27683(18)
C10_2 C -0.3471(3) 1.5061(3) 0.25859(15)
C11_2 C -0.4485(3) 1.2421(3) 0.22868(13)
C12_2 C -0.4263(3) 0.9584(3) 0.21476(13)
C13_2 C -0.2331(3) 1.0688(3) 0.12220(13)
C14_2 C 0.9099(3) -0.1457(3) 0.22666(12)
C15_2 C -0.1241(3) 1.1242(3) 0.23943(14)
C16_2 C -0.3108(3) 1.0159(3) 0.33186(14)
H1_2 H -0.739(5) 1.818(4) 0.155(2)
H2_2 H -0.640(4) 1.815(4) 0.1928(19)
H3_2 H -0.746(5) 1.516(5) 0.118(2)
H4_2 H -0.758(5) 1.637(5) 0.108(2)
H5_2 H -0.833(5) 1.382(5) 0.241(2)
H6_2 H -0.909(5) 1.494(4) 0.200(2)
H7_2 H -0.719(5) 1.510(4) 0.391(2)
H8_2 H -0.757(6) 1.421(6) 0.356(3)
H9_2 H -0.979(5) 1.832(4) 0.347(2)
H10_2 H -1.020(6) 1.979(5) 0.426(2)
H11_2 H -0.822(5) 2.005(4) 0.462(2)
H12_2 H -0.572(6) 1.859(5) 0.421(2)
H13_2 H -0.369(5) 1.739(5) 0.383(2)
H14_2 H -0.128(5) 1.589(4) 0.337(2)
H15_2 H -0.118(5) 1.444(4) 0.259(2)
H16_2 H -0.341(4) 1.444(3) 0.2266(15)
N9 N 0.2391(3) 0.3513(3) 0.08868(12)
N10 N -0.0455(3) 0.5425(3) 0.11912(13)
C17 C 0.3789(4) 0.2532(3) 0.08107(14)
C18 C 0.4119(4) 0.1199(3) 0.06612(15)
C19 C 0.2932(4) 0.0867(3) 0.06018(17)
C20 C 0.1478(4) 0.1859(3) 0.06833(17)
C21 C 0.1231(3) 0.3190(3) 0.08191(13)
C22 C -0.0308(3) 0.4315(3) 0.08832(13)
C23 C -0.1538(4) 0.4244(4) 0.06263(18)
C24 C -0.2940(4) 0.5347(4) 0.06766(19)
C25 C -0.3083(4) 0.6501(4) 0.09690(17)
C26 C -0.1811(4) 0.6483(4) 0.12210(17)
H17 H 0.463(4) 0.272(4) 0.0878(19)
H18 H 0.503(4) 0.061(4) 0.0624(16)
H19 H 0.309(4) 0.004(4) 0.0518(18)
H20 H 0.067(5) 0.163(4) 0.067(2)
H21 H -0.136(4) 0.343(4) 0.0410(19)
H22 H -0.398(5) 0.727(4) 0.0996(19)
H23 H -0.188(5) 0.728(5) 0.145(2)
H24 H -0.380(5) 0.532(4) 0.048(2)
N11 N 0.3070(4) 0.5410(3) 0.48282(13)
C27 C 0.1671(5) 0.6128(4) 0.50782(18)
C28 C 0.1340(5) 0.6931(4) 0.56274(19)
C29 C 0.2506(5) 0.7019(4) 0.59139(17)
C30 C 0.3954(5) 0.6279(4) 0.56678(16)
C31 C 0.4225(4) 0.5439(3) 0.51310(13)
H25 H 0.088(5) 0.611(5) 0.487(2)
H26 H 0.041(5) 0.731(5) 0.575(2)
H27 H 0.239(5) 0.751(5) 0.630(2)
H28 H 0.474(5) 0.628(5) 0.585(2)
N11A N 0.6930(4) 0.4590(3) 0.51718(13)
C27A C 0.8329(5) 0.3872(4) 0.49218(18)
C28A C 0.8660(5) 0.3069(4) 0.43726(19)
C29A C 0.7494(5) 0.2981(4) 0.40861(17)
C30A C 0.6046(5) 0.3721(4) 0.43322(16)
C31A C 0.5775(4) 0.4561(3) 0.48690(13)
H25A H 0.912(5) 0.389(5) 0.513(2)
H26A H 0.959(5) 0.269(5) 0.425(2)
H27A H 0.761(5) 0.249(5) 0.370(2)
H28A H 0.526(5) 0.372(5) 0.415(2)
O5 O 0.1351(3) 0.8434(2) 0.07132(11)
H29 H 0.140(6) 0.863(6) 0.039(3)
O6 O 0.2260(3) 0.1876(2) 0.25815(12)
O7 O 0.3156(8) 0.2121(6) 0.3811(3)
O9 O 0.4180(7) 0.1135(6) 0.4841(2)
O10 O 0.1901(15) 0.2517(13) 0.5191(6)
O8? O 0.2167(8) 0.2676(6) 0.3882(3)
loop_
_geom_bond_atom_site_label_1
_geom_bond_atom_site_label_2
_geom_bond_site_symmetry_1
_geom_bond_site_symmetry_2
Ho1 O1 1_555 1_555
Cr1 C11 1_555 1_555
O1 H1 1_555 1_555
O2 Ho1 1_555 1_555
O3 Ho1 1_555 1_555
O4 Ho1 1_555 1_555
N1 Ho1 1_555 1_555
N2 Ho1 1_555 1_555
N3 Ho1 1_555 1_555
N4 C12 1_555 1_555
N5 C13 1_555 1_555
N6 C15 1_555 1_555
N7 C16 1_555 1_555
N8 Ho1 1_555 1_555
N9 C17 1_555 1_555
N10 C22 1_555 1_555
N11 C27 1_555 1_555
C1 N1 1_555 1_555
C2 C1 1_555 1_555
C3 C2 1_555 1_555
C4 C3 1_555 1_555
C5 N1 1_555 1_555
C6 N2 1_555 1_555
C7 C6 1_555 1_555
C8 C7 1_555 1_555
C9 C8 1_555 1_555
C10 N2 1_555 1_555
C11 N3 1_555 1_555
C12 Cr1 1_555 1_555
C13 Cr1 1_555 1_555
C14 N8 1_555 1_555
C15 Cr1 1_555 1_555
C16 Cr1 1_555 1_555
C17 C18 1_555 1_555
C18 C19 1_555 1_555
C19 C20 1_555 1_555
C20 C21 1_555 1_555
C21 N9 1_555 1_555
C22 C21 1_555 1_555
C23 C22 1_555 1_555
C24 C23 1_555 1_555
C25 C24 1_555 1_555
C26 N10 1_555 1_555
C27 C28 1_555 1_555
C28 C29 1_555 1_555
C29 C30 1_555 1_555
C30 C31 1_555 1_555
C31 N11 1_555 1_555
O5 H29 1_555 1_555
H2 O1 1_555 1_555
H3 O2 1_555 1_555
H4 O2 1_555 1_555
H5 O3 1_555 1_555
H6 O3 1_555 1_555
H7 O4 1_555 1_555
H8 O4 1_555 1_555
H9 C1 1_555 1_555
H10 C2 1_555 1_555
H11 C3 1_555 1_555
H12 C4 1_555 1_555
H13 C7 1_555 1_555
H14 C8 1_555 1_555
H15 C9 1_555 1_555
H16 C10 1_555 1_555
H17 C17 1_555 1_555
H18 C18 1_555 1_555
H19 C19 1_555 1_555
H20 C20 1_555 1_555
H21 C23 1_555 1_555
H22 C25 1_555 1_555
H23 C26 1_555 1_555
H24 C24 1_555 1_555
H25 C27 1_555 1_555
H26 C28 1_555 1_555
H27 C29 1_555 1_555
H28 C30 1_555 1_555
Ho1_2 O1_2 1_555 1_555
Ho1_3 N8_2 1_555 1_555
Cr1_2 C14 1_555 1_555
O1_2 H1_2 1_555 1_555
O2_2 Ho1_2 1_555 1_555
O3_2 Ho1_2 1_555 1_555
O4_2 Ho1_2 1_555 1_555
N1_2 Ho1_2 1_555 1_555
N2_2 Ho1_2 1_555 1_555
N3_2 Ho1_2 1_555 1_555
N4_2 C12_2 1_555 1_555
N5_2 C13_2 1_555 1_555
N6_2 C15_2 1_555 1_555
N7_2 C16_2 1_555 1_555
N8_2 C14_2 1_555 1_555
N8_3 Ho1_2 1_555 1_555
N11A C27A 1_555 1_555
C1_2 N1_2 1_555 1_555
C2_2 C1_2 1_555 1_555
C3_2 C2_2 1_555 1_555
C4_2 C3_2 1_555 1_555
C5_2 N1_2 1_555 1_555
C6_2 N2_2 1_555 1_555
C7_2 C6_2 1_555 1_555
C8_2 C7_2 1_555 1_555
C9_2 C8_2 1_555 1_555
C10_2 N2_2 1_555 1_555
C11_2 Cr1_2 1_555 1_555
C12_2 Cr1_2 1_555 1_555
C13_2 Cr1_2 1_555 1_555
C14_2 Cr1 1_555 1_555
C15_2 Cr1_2 1_555 1_555
C16_2 Cr1_2 1_555 1_555
C27A C28A 1_555 1_555
C28A C29A 1_555 1_555
C29A C30A 1_555 1_555
C30A C31A 1_555 1_555
C31A C31 1_555 1_555
H2_2 O1_2 1_555 1_555
H3_2 O2_2 1_555 1_555
H4_2 O2_2 1_555 1_555
H5_2 O3_2 1_555 1_555
H6_2 O3_2 1_555 1_555
H7_2 O4_2 1_555 1_555
H8_2 O4_2 1_555 1_555
H9_2 C1_2 1_555 1_555
H10_2 C2_2 1_555 1_555
H11_2 C3_2 1_555 1_555
H12_2 C4_2 1_555 1_555
H13_2 C7_2 1_555 1_555
H14_2 C8_2 1_555 1_555
H15_2 C9_2 1_555 1_555
H16_2 C10_2 1_555 1_555
H25A C27A 1_555 1_555
H26A C28A 1_555 1_555
H27A C29A 1_555 1_555
H28A C30A 1_555 1_555
C4 C5 1_555 1_555
C5 C6 1_555 1_555
C9 C10 1_555 1_555
C25 C26 1_555 1_555
N3_2 C11_2 1_555 1_555
N11A C31A 1_555 1_555
C4_2 C5_2 1_555 1_555
C5_2 C6_2 1_555 1_555
C9_2 C10_2 1_555 1_555

#END
