
#######################################################################
#
#                 Cambridge Crystallographic Data Centre
#                                CCDC 
#
#######################################################################
#
# If this CIF has been generated from an entry in the Cambridge 
# Structural Database, then it will include bibliographic, chemical, 
# crystal, experimental, refinement or atomic coordinate data resulting 
# from the CCDC's data processing and validation procedures.
#
#######################################################################

data_JEPWIL
_symmetry_cell_setting           triclinic
_symmetry_space_group_name_H-M   'P -1'
_symmetry_Int_Tables_number      2
_space_group_name_Hall           '-P 1'
loop_
_symmetry_equiv_pos_site_id
_symmetry_equiv_pos_as_xyz
1 x,y,z
2 -x,-y,-z
_cell_length_a                   9.828(4)
_cell_length_b                   10.773(3)
_cell_length_c                   19.806(6)
_cell_angle_alpha                83.61(2)
_cell_angle_beta                 84.01(2)
_cell_angle_gamma                64.88(2)
_cell_volume                     1883.07
loop_
_atom_site_label
_atom_site_type_symbol
_atom_site_fract_x
_atom_site_fract_y
_atom_site_fract_z
Dy1 Dy 0.279892(10) 0.591220(9) 0.246324(4)
Cr1 Cr 0.72371(4) 0.04386(4) 0.226813(16)
O1 O 0.3154(2) 0.7775(2) 0.18394(10)
O2 O 0.2797(2) 0.5731(2) 0.12716(9)
O3 O 0.1355(2) 0.4664(2) 0.23571(9)
O4 O 0.2563(3) 0.4900(2) 0.35432(9)
N1 N 0.2392(2) 0.7588(2) 0.33561(10)
N2 N 0.5163(2) 0.5913(2) 0.28495(9)
N3 N 0.4653(2) 0.3537(2) 0.23127(10)
N4 N 0.4878(3) -0.0844(2) 0.20934(12)
N5 N 0.7999(3) 0.0805(3) 0.06564(11)
N6 N 0.9633(3) 0.1645(3) 0.24540(15)
N7 N 0.6662(4) 0.0021(3) 0.38887(12)
N8 N 0.0214(2) 0.7585(2) 0.22885(10)
C1 C 0.1017(3) 0.8383(3) 0.36171(12)
H1 H 0.0195 0.8287 0.3476
C2 C 0.0748(4) 0.9337(3) 0.40828(14)
H2 H -0.0226 0.9873 0.4248
C3 C 0.1968(5) 0.9470(4) 0.42947(16)
H3 H 0.1831 1.0107 0.4605
C4 C 0.3382(4) 0.8653(3) 0.40436(16)
H4 H 0.4212 0.8731 0.4187
C5 C 0.3589(3) 0.7705(3) 0.35748(11)
C6 C 0.5099(3) 0.6786(3) 0.33044(12)
C7 C 0.6409(4) 0.6805(3) 0.35075(15)
H5 H 0.6346 0.7408 0.3824
C8 C 0.7788(3) 0.5934(3) 0.32396(17)
H6 H 0.8663 0.5946 0.3371
C9 C 0.7866(3) 0.5040(3) 0.27743(15)
H7 H 0.8789 0.4436 0.2588
C10 C 0.6530(3) 0.5071(3) 0.25939(13)
H8 H 0.6580 0.4475 0.2277
C11 C 0.5521(3) 0.2419(3) 0.22871(11)
C12 C 0.5738(3) -0.0411(2) 0.21466(11)
C13 C 0.7674(3) 0.0686(3) 0.12232(12)
C14 C -0.0912(3) 0.8551(2) 0.22672(11)
C15 C 0.8748(3) 0.1241(3) 0.23974(13)
C16 C 0.6890(3) 0.0158(3) 0.33150(12)
H23 H 0.364(4) 0.813(4) 0.1918(18)
H24 H 0.261(4) 0.814(4) 0.1548(19)
H25 H 0.241(4) 0.639(4) 0.1062(16)
H26 H 0.258(4) 0.517(4) 0.1143(17)
H27 H 0.086(4) 0.499(4) 0.2032(19)
H28 H 0.165(4) 0.392(4) 0.2394(18)
H29 H 0.255(4) 0.417(4) 0.3595(18)
H30 H 0.273(4) 0.509(4) 0.387(2)
Dy1_2 Dy -0.720108(10) 1.591220(9) 0.246324(4)
Dy1_3 Dy 1.279892(10) -0.408780(9) 0.246324(4)
Cr1_2 Cr -0.27629(4) 1.04386(4) 0.226813(16)
O1_2 O -0.6846(2) 1.7775(2) 0.18394(10)
O2_2 O -0.7203(2) 1.5731(2) 0.12716(9)
O3_2 O -0.8645(2) 1.4664(2) 0.23571(9)
O4_2 O -0.7437(3) 1.4900(2) 0.35432(9)
N1_2 N -0.7608(2) 1.7588(2) 0.33561(10)
N2_2 N -0.4837(2) 1.5913(2) 0.28495(9)
N3_2 N -0.5347(2) 1.3537(2) 0.23127(10)
N4_2 N -0.5122(3) 0.9156(2) 0.20934(12)
N5_2 N -0.2001(3) 1.0805(3) 0.06564(11)
N6_2 N -0.0367(3) 1.1645(3) 0.24540(15)
N7_2 N -0.3338(4) 1.0021(3) 0.38887(12)
N8_2 N 1.0214(2) -0.2415(2) 0.22885(10)
N8_3 N -0.9786(2) 1.7585(2) 0.22885(10)
C1_2 C -0.8983(3) 1.8383(3) 0.36171(12)
H1_2 H -0.9805 1.8287 0.3476
C2_2 C -0.9252(4) 1.9337(3) 0.40828(14)
H2_2 H -1.0226 1.9873 0.4248
C3_2 C -0.8032(5) 1.9470(4) 0.42947(16)
H3_2 H -0.8169 2.0107 0.4605
C4_2 C -0.6618(4) 1.8653(3) 0.40436(16)
H4_2 H -0.5788 1.8731 0.4187
C5_2 C -0.6411(3) 1.7705(3) 0.35748(11)
C6_2 C -0.4901(3) 1.6786(3) 0.33044(12)
C7_2 C -0.3591(4) 1.6805(3) 0.35075(15)
H5_2 H -0.3654 1.7408 0.3824
C8_2 C -0.2212(3) 1.5934(3) 0.32396(17)
H6_2 H -0.1337 1.5946 0.3371
C9_2 C -0.2134(3) 1.5040(3) 0.27743(15)
H7_2 H -0.1211 1.4436 0.2588
C10_2 C -0.3470(3) 1.5071(3) 0.25939(13)
H8_2 H -0.3420 1.4475 0.2277
C11_2 C -0.4479(3) 1.2419(3) 0.22871(11)
C12_2 C -0.4262(3) 0.9589(2) 0.21466(11)
C13_2 C -0.2326(3) 1.0686(3) 0.12232(12)
C14_2 C 0.9088(3) -0.1449(2) 0.22672(11)
C15_2 C -0.1252(3) 1.1241(3) 0.23974(13)
C16_2 C -0.3110(3) 1.0158(3) 0.33150(12)
H23_2 H -0.636(4) 1.813(4) 0.1918(18)
H24_2 H -0.739(4) 1.814(4) 0.1548(19)
H25_2 H -0.759(4) 1.639(4) 0.1062(16)
H26_2 H -0.742(4) 1.517(4) 0.1143(17)
H27_2 H -0.914(4) 1.499(4) 0.2032(19)
H28_2 H -0.835(4) 1.392(4) 0.2394(18)
H29_2 H -0.745(4) 1.417(4) 0.3595(18)
H30_2 H -0.727(4) 1.509(4) 0.387(2)
N9 N 0.2390(2) 0.3510(2) 0.08872(10)
N10 N -0.0453(3) 0.5418(3) 0.11918(12)
C17 C 0.3786(3) 0.2537(3) 0.08076(12)
H9 H 0.4584 0.2763 0.0854
C18 C 0.4114(3) 0.1210(3) 0.06596(13)
H10 H 0.5105 0.0563 0.0601
C19 C 0.2924(4) 0.0879(3) 0.06015(15)
H11 H 0.3101 -0.0006 0.0509
C20 C 0.1470(3) 0.1870(3) 0.06809(15)
H12 H 0.0658 0.1659 0.0644
C21 C 0.1231(3) 0.3189(3) 0.08170(11)
C22 C -0.0308(3) 0.4313(3) 0.08842(12)
C23 C -0.1540(4) 0.4248(4) 0.06272(16)
H13 H -0.1425 0.3474 0.0420
C24 C -0.2929(4) 0.5341(4) 0.06831(17)
H14 H -0.3766 0.5298 0.0526
C25 C -0.3074(3) 0.6496(4) 0.09716(14)
H15 H -0.3990 0.7264 0.0997
C26 C -0.1805(3) 0.6469(3) 0.12225(15)
H16 H -0.1900 0.7240 0.1428
N11 N 0.3079(3) 0.5405(3) 0.48277(11)
C27 C 0.1683(4) 0.6129(4) 0.50782(16)
H17 H 0.0892 0.6094 0.4874
C28 C 0.1337(4) 0.6935(4) 0.56260(16)
H18 H 0.0348 0.7399 0.5796
C29 C 0.2511(4) 0.7019(3) 0.59080(15)
H19 H 0.2323 0.7578 0.6263
C30 C 0.3958(4) 0.6277(3) 0.56629(14)
H20 H 0.4759 0.6331 0.5850
C31 C 0.4225(4) 0.5439(3) 0.51317(12)
N11A N 0.6921(3) 0.4595(3) 0.51723(11)
C27A C 0.8317(4) 0.3871(4) 0.49218(16)
H17A H 0.9108 0.3906 0.5126
C28A C 0.8663(4) 0.3065(4) 0.43740(16)
H18A H 0.9652 0.2601 0.4204
C29A C 0.7489(4) 0.2981(3) 0.40920(15)
H19A H 0.7677 0.2422 0.3737
C30A C 0.6042(4) 0.3723(3) 0.43371(14)
H20A H 0.5241 0.3669 0.4150
C31A C 0.5775(4) 0.4561(3) 0.48683(12)
O5 O 0.1368(3) 0.8431(2) 0.07078(11)
H31 H 0.050(5) 0.887(5) 0.079(2)
H32 H 0.155(5) 0.860(4) 0.035(2)
O6 O 0.2252(3) 0.1886(2) 0.25885(12)
H33 H 0.157(5) 0.181(4) 0.2529(18)
H34 H 0.290(6) 0.129(5) 0.243(2)
O7 O 0.3140(11) 0.2159(9) 0.3807(5)
H35 H 0.287(8) 0.194(7) 0.356(3)
O9 O 0.4169(7) 0.1139(6) 0.4841(3)
H21 H 0.394(10) 0.087(10) 0.520(5)
H22 H 0.486(11) 0.066(11) 0.467(5)
O10 O 0.1907(13) 0.2506(12) 0.5196(5)
O8? O 0.2127(7) 0.2691(6) 0.3889(3)
H36? H 0.301(10) 0.201(8) 0.401(3)
loop_
_geom_bond_atom_site_label_1
_geom_bond_atom_site_label_2
_geom_bond_site_symmetry_1
_geom_bond_site_symmetry_2
Dy1 O1 1_555 1_555
Cr1 C11 1_555 1_555
O1 H23 1_555 1_555
O2 Dy1 1_555 1_555
O3 Dy1 1_555 1_555
O4 Dy1 1_555 1_555
N1 Dy1 1_555 1_555
N2 Dy1 1_555 1_555
N3 Dy1 1_555 1_555
N4 C12 1_555 1_555
N5 C13 1_555 1_555
N6 C15 1_555 1_555
N7 C16 1_555 1_555
N8 Dy1 1_555 1_555
N9 C17 1_555 1_555
N10 C22 1_555 1_555
N11 C27 1_555 1_555
C1 N1 1_555 1_555
H1 C1 1_555 1_555
C2 C1 1_555 1_555
H2 C2 1_555 1_555
C3 C2 1_555 1_555
H3 C3 1_555 1_555
C4 C3 1_555 1_555
H4 C4 1_555 1_555
C5 N1 1_555 1_555
C6 N2 1_555 1_555
C7 C6 1_555 1_555
H5 C7 1_555 1_555
C8 C7 1_555 1_555
H6 C8 1_555 1_555
C9 C8 1_555 1_555
H7 C9 1_555 1_555
C10 N2 1_555 1_555
H8 C10 1_555 1_555
C11 N3 1_555 1_555
C12 Cr1 1_555 1_555
C13 Cr1 1_555 1_555
C14 N8 1_555 1_555
C15 Cr1 1_555 1_555
C16 Cr1 1_555 1_555
C17 H9 1_555 1_555
C18 C17 1_555 1_555
H10 C18 1_555 1_555
C19 C18 1_555 1_555
H11 C19 1_555 1_555
C20 C19 1_555 1_555
H12 C20 1_555 1_555
C21 N9 1_555 1_555
C22 C21 1_555 1_555
C23 C22 1_555 1_555
H13 C23 1_555 1_555
C24 C23 1_555 1_555
H14 C24 1_555 1_555
C25 C24 1_555 1_555
H15 C25 1_555 1_555
C26 N10 1_555 1_555
H16 C26 1_555 1_555
C27 H17 1_555 1_555
C28 C27 1_555 1_555
H18 C28 1_555 1_555
C29 C28 1_555 1_555
H19 C29 1_555 1_555
C30 C29 1_555 1_555
H20 C30 1_555 1_555
C31 N11 1_555 1_555
O5 H31 1_555 1_555
O6 H33 1_555 1_555
O7 H35 1_555 1_555
O9 H21 1_555 1_555
H22 O9 1_555 1_555
H24 O1 1_555 1_555
H25 O2 1_555 1_555
H26 O2 1_555 1_555
H27 O3 1_555 1_555
H28 O3 1_555 1_555
H29 O4 1_555 1_555
H30 O4 1_555 1_555
H32 O5 1_555 1_555
H34 O6 1_555 1_555
Dy1_2 O1_2 1_555 1_555
Dy1_3 N8_2 1_555 1_555
Cr1_2 C14 1_555 1_555
O1_2 H23_2 1_555 1_555
O2_2 Dy1_2 1_555 1_555
O3_2 Dy1_2 1_555 1_555
O4_2 Dy1_2 1_555 1_555
N1_2 Dy1_2 1_555 1_555
N2_2 Dy1_2 1_555 1_555
N3_2 Dy1_2 1_555 1_555
N4_2 C12_2 1_555 1_555
N5_2 C13_2 1_555 1_555
N6_2 C15_2 1_555 1_555
N7_2 C16_2 1_555 1_555
N8_2 C14_2 1_555 1_555
N8_3 Dy1_2 1_555 1_555
N11A C27A 1_555 1_555
C1_2 N1_2 1_555 1_555
H1_2 C1_2 1_555 1_555
C2_2 C1_2 1_555 1_555
H2_2 C2_2 1_555 1_555
C3_2 C2_2 1_555 1_555
H3_2 C3_2 1_555 1_555
C4_2 C3_2 1_555 1_555
H4_2 C4_2 1_555 1_555
C5_2 N1_2 1_555 1_555
C6_2 N2_2 1_555 1_555
C7_2 C6_2 1_555 1_555
H5_2 C7_2 1_555 1_555
C8_2 C7_2 1_555 1_555
H6_2 C8_2 1_555 1_555
C9_2 C8_2 1_555 1_555
H7_2 C9_2 1_555 1_555
C10_2 N2_2 1_555 1_555
H8_2 C10_2 1_555 1_555
C11_2 Cr1_2 1_555 1_555
C12_2 Cr1_2 1_555 1_555
C13_2 Cr1_2 1_555 1_555
C14_2 Cr1 1_555 1_555
C15_2 Cr1_2 1_555 1_555
C16_2 Cr1_2 1_555 1_555
C27A H17A 1_555 1_555
C28A C27A 1_555 1_555
H18A C28A 1_555 1_555
C29A C28A 1_555 1_555
H19A C29A 1_555 1_555
C30A C29A 1_555 1_555
H20A C30A 1_555 1_555
C31A C31 1_555 1_555
H24_2 O1_2 1_555 1_555
H25_2 O2_2 1_555 1_555
H26_2 O2_2 1_555 1_555
H27_2 O3_2 1_555 1_555
H28_2 O3_2 1_555 1_555
H29_2 O4_2 1_555 1_555
H30_2 O4_2 1_555 1_555
C4 C5 1_555 1_555
C5 C6 1_555 1_555
C9 C10 1_555 1_555
C20 C21 1_555 1_555
C25 C26 1_555 1_555
C30 C31 1_555 1_555
N3_2 C11_2 1_555 1_555
N11A C31A 1_555 1_555
C4_2 C5_2 1_555 1_555
C5_2 C6_2 1_555 1_555
C9_2 C10_2 1_555 1_555
C30A C31A 1_555 1_555

#END
