
#######################################################################
#
#                 Cambridge Crystallographic Data Centre
#                                CCDC 
#
#######################################################################
#
# If this CIF has been generated from an entry in the Cambridge 
# Structural Database, then it will include bibliographic, chemical, 
# crystal, experimental, refinement or atomic coordinate data resulting 
# from the CCDC's data processing and validation procedures.
#
#######################################################################

data_JEPWUX
_symmetry_cell_setting           triclinic
_symmetry_space_group_name_H-M   'P -1'
_symmetry_Int_Tables_number      2
_space_group_name_Hall           '-P 1'
loop_
_symmetry_equiv_pos_site_id
_symmetry_equiv_pos_as_xyz
1 x,y,z
2 -x,-y,-z
_cell_length_a                   9.812(4)
_cell_length_b                   10.735(3)
_cell_length_c                   19.753(6)
_cell_angle_alpha                83.61(2)
_cell_angle_beta                 84.18(2)
_cell_angle_gamma                64.63(2)
_cell_volume                     1864.94
loop_
_atom_site_label
_atom_site_type_symbol
_atom_site_fract_x
_atom_site_fract_y
_atom_site_fract_z
Tm1 Tm 0.280187(17) 0.591477(15) 0.246565(7)
Cr1 Cr 0.72379(6) 0.04403(6) 0.22679(3)
O1 O 0.3136(4) 0.7757(3) 0.18527(15)
O2 O 0.2807(3) 0.5726(3) 0.12889(13)
O3 O 0.1358(3) 0.4690(3) 0.23586(13)
O4 O 0.2589(4) 0.4903(3) 0.35297(14)
N1 N 0.2392(4) 0.7582(3) 0.33490(15)
N2 N 0.5158(4) 0.5895(3) 0.28375(14)
N3 N 0.4630(4) 0.3554(3) 0.23190(16)
N4 N 0.4874(4) -0.0855(4) 0.20985(17)
N5 N 0.7993(4) 0.0816(4) 0.06509(17)
N6 N 0.9648(5) 0.1641(5) 0.2447(2)
N7 N 0.6677(5) 0.0010(5) 0.38954(19)
N8 N 0.0248(4) 0.7587(3) 0.22860(15)
C1 C 0.1000(5) 0.8381(5) 0.36143(19)
C2 C 0.0735(6) 0.9328(5) 0.4085(2)
C3 C 0.1965(6) 0.9470(5) 0.4294(2)
C4 C 0.3376(6) 0.8650(5) 0.4044(2)
C5 C 0.3580(5) 0.7704(4) 0.35712(17)
C6 C 0.5087(4) 0.6777(4) 0.32999(17)
C7 C 0.6419(6) 0.6787(5) 0.3499(2)
C8 C 0.7795(5) 0.5919(5) 0.3227(2)
C9 C 0.7871(5) 0.5037(5) 0.2759(2)
C10 C 0.6522(5) 0.5068(5) 0.2579(2)
C11 C 0.5503(4) 0.2424(4) 0.22888(17)
C12 C 0.5754(4) -0.0422(4) 0.21460(17)
C13 C 0.7663(4) 0.0700(4) 0.12212(18)
C14 C -0.0892(4) 0.8547(4) 0.22636(16)
C15 C 0.8761(4) 0.1245(4) 0.23900(19)
C16 C 0.6908(4) 0.0147(4) 0.33168(19)
H1 H 0.018(5) 0.830(5) 0.345(2)
H2 H -0.022(7) 0.978(6) 0.427(3)
H3 H 0.180(7) 1.009(6) 0.463(3)
H4 H 0.422(6) 0.870(6) 0.421(3)
H5 H 0.628(7) 0.742(6) 0.384(3)
H6 H 0.871(6) 0.593(6) 0.334(3)
H7 H 0.871(8) 0.447(7) 0.253(3)
H8 H 0.655(5) 0.450(5) 0.225(2)
H21 H 0.270(6) 0.811(5) 0.156(2)
H22 H 0.358(5) 0.804(4) 0.1935(19)
H23 H 0.233(6) 0.641(5) 0.109(2)
H24 H 0.258(7) 0.507(6) 0.116(3)
H25 H 0.174(7) 0.382(6) 0.241(3)
H26 H 0.082(8) 0.501(7) 0.197(3)
H27 H 0.251(9) 0.424(8) 0.355(4)
H28 H 0.285(8) 0.507(7) 0.392(3)
Tm1_2 Tm -0.719813(17) 1.591477(15) 0.246565(7)
Tm1_3 Tm 1.280187(17) -0.408523(15) 0.246565(7)
Cr1_2 Cr -0.27621(6) 1.04403(6) 0.22679(3)
O1_2 O -0.6864(4) 1.7757(3) 0.18527(15)
O2_2 O -0.7193(3) 1.5726(3) 0.12889(13)
O3_2 O -0.8642(3) 1.4690(3) 0.23586(13)
O4_2 O -0.7411(4) 1.4903(3) 0.35297(14)
N1_2 N -0.7608(4) 1.7582(3) 0.33490(15)
N2_2 N -0.4842(4) 1.5895(3) 0.28375(14)
N3_2 N -0.5370(4) 1.3554(3) 0.23190(16)
N4_2 N -0.5126(4) 0.9145(4) 0.20985(17)
N5_2 N -0.2007(4) 1.0816(4) 0.06509(17)
N6_2 N -0.0352(5) 1.1641(5) 0.2447(2)
N7_2 N -0.3323(5) 1.0010(5) 0.38954(19)
N8_2 N 1.0248(4) -0.2413(3) 0.22860(15)
N8_3 N -0.9752(4) 1.7587(3) 0.22860(15)
C1_2 C -0.9000(5) 1.8381(5) 0.36143(19)
C2_2 C -0.9265(6) 1.9328(5) 0.4085(2)
C3_2 C -0.8035(6) 1.9470(5) 0.4294(2)
C4_2 C -0.6624(6) 1.8650(5) 0.4044(2)
C5_2 C -0.6420(5) 1.7704(4) 0.35712(17)
C6_2 C -0.4913(4) 1.6777(4) 0.32999(17)
C7_2 C -0.3581(6) 1.6787(5) 0.3499(2)
C8_2 C -0.2205(5) 1.5919(5) 0.3227(2)
C9_2 C -0.2129(5) 1.5037(5) 0.2759(2)
C10_2 C -0.3478(5) 1.5068(5) 0.2579(2)
C11_2 C -0.4497(4) 1.2424(4) 0.22888(17)
C12_2 C -0.4246(4) 0.9578(4) 0.21460(17)
C13_2 C -0.2337(4) 1.0700(4) 0.12212(18)
C14_2 C 0.9108(4) -0.1453(4) 0.22636(16)
C15_2 C -0.1239(4) 1.1245(4) 0.23900(19)
C16_2 C -0.3092(4) 1.0147(4) 0.33168(19)
H1_2 H -0.982(5) 1.830(5) 0.345(2)
H2_2 H -1.022(7) 1.978(6) 0.427(3)
H3_2 H -0.820(7) 2.009(6) 0.463(3)
H4_2 H -0.578(6) 1.870(6) 0.421(3)
H5_2 H -0.372(7) 1.742(6) 0.384(3)
H6_2 H -0.129(6) 1.593(6) 0.334(3)
H7_2 H -0.129(8) 1.447(7) 0.253(3)
H8_2 H -0.345(5) 1.450(5) 0.225(2)
H21_2 H -0.730(6) 1.811(5) 0.156(2)
H22_2 H -0.642(5) 1.804(4) 0.1935(19)
H23_2 H -0.767(6) 1.641(5) 0.109(2)
H24_2 H -0.742(7) 1.507(6) 0.116(3)
H25_2 H -0.826(7) 1.382(6) 0.241(3)
H26_2 H -0.918(8) 1.501(7) 0.197(3)
H27_2 H -0.749(9) 1.424(8) 0.355(4)
H28_2 H -0.715(8) 1.507(7) 0.392(3)
N9 N 0.2390(4) 0.3511(3) 0.08914(15)
N10 N -0.0454(4) 0.5443(4) 0.11887(18)
C17 C 0.3802(5) 0.2528(5) 0.08115(19)
C18 C 0.4128(5) 0.1200(5) 0.0662(2)
C19 C 0.2937(6) 0.0867(5) 0.0605(2)
C20 C 0.1473(5) 0.1865(5) 0.0687(2)
C21 C 0.1235(5) 0.3192(4) 0.08231(17)
C22 C -0.0310(4) 0.4324(4) 0.08852(18)
C23 C -0.1547(6) 0.4261(6) 0.0628(2)
C24 C -0.2934(6) 0.5356(6) 0.0675(3)
C25 C -0.3075(6) 0.6518(6) 0.0962(2)
C26 C -0.1813(6) 0.6508(5) 0.1218(2)
H9 H 0.473(7) 0.275(6) 0.087(3)
H10 H 0.515(6) 0.055(6) 0.063(2)
H11 H 0.313(6) -0.004(5) 0.051(2)
H12 H 0.063(6) 0.169(5) 0.066(2)
H13 H -0.137(7) 0.342(6) 0.045(3)
H14 H -0.378(7) 0.531(6) 0.049(3)
H15 H -0.395(6) 0.723(5) 0.101(2)
H16 H -0.195(6) 0.728(6) 0.142(3)
N11 N 0.3072(5) 0.5408(4) 0.48234(17)
C27 C 0.1670(7) 0.6115(6) 0.5073(2)
C28 C 0.1320(8) 0.6920(6) 0.5625(2)
C29 C 0.2484(7) 0.7012(5) 0.5913(2)
C30 C 0.3941(6) 0.6273(5) 0.5669(2)
C31 C 0.4223(6) 0.5437(4) 0.51318(18)
H17 H 0.088(6) 0.605(6) 0.487(3)
H18 H 0.027(8) 0.732(7) 0.580(3)
H19 H 0.237(7) 0.746(6) 0.626(3)
H20 H 0.478(7) 0.628(6) 0.584(3)
N11A N 0.6928(5) 0.4592(4) 0.51766(17)
C27A C 0.8330(7) 0.3885(6) 0.4927(2)
C28A C 0.8680(8) 0.3080(6) 0.4375(2)
C29A C 0.7516(7) 0.2988(5) 0.4087(2)
C30A C 0.6059(6) 0.3727(5) 0.4331(2)
C31A C 0.5777(6) 0.4563(4) 0.48682(18)
H17A H 0.912(6) 0.395(6) 0.513(3)
H18A H 0.973(8) 0.268(7) 0.420(3)
H19A H 0.763(7) 0.254(6) 0.374(3)
H20A H 0.522(7) 0.372(6) 0.416(3)
O5 O 0.1362(4) 0.8429(3) 0.07131(15)
H29 H 0.151(6) 0.871(6) 0.036(3)
H30 H 0.044(9) 0.889(8) 0.079(4)
O6 O 0.2260(4) 0.1890(3) 0.25782(16)
O7 O 0.3158(14) 0.2133(9) 0.3813(4)
H31 H 0.265(10) 0.205(9) 0.350(4)
H32 H 0.345(18) 0.196(16) 0.405(8)
O9 O 0.4184(10) 0.1146(10) 0.4838(4)
H33 H 0.409(11) 0.077(11) 0.511(5)
O10 O 0.1920(17) 0.2524(13) 0.5188(7)
O8? O 0.2143(12) 0.2700(9) 0.3880(4)
loop_
_geom_bond_atom_site_label_1
_geom_bond_atom_site_label_2
_geom_bond_site_symmetry_1
_geom_bond_site_symmetry_2
Tm1 O1 1_555 1_555
Cr1 C11 1_555 1_555
O1 H21 1_555 1_555
O2 Tm1 1_555 1_555
O3 Tm1 1_555 1_555
O4 Tm1 1_555 1_555
N1 Tm1 1_555 1_555
N2 Tm1 1_555 1_555
N3 Tm1 1_555 1_555
N4 C12 1_555 1_555
N5 C13 1_555 1_555
N6 C15 1_555 1_555
N7 C16 1_555 1_555
N8 Tm1 1_555 1_555
N9 C17 1_555 1_555
N10 C22 1_555 1_555
N11 C27 1_555 1_555
C1 N1 1_555 1_555
C2 C1 1_555 1_555
C3 C2 1_555 1_555
C4 C3 1_555 1_555
C5 N1 1_555 1_555
C6 N2 1_555 1_555
C7 C6 1_555 1_555
C8 C7 1_555 1_555
C9 C8 1_555 1_555
C10 N2 1_555 1_555
C11 N3 1_555 1_555
C12 Cr1 1_555 1_555
C13 Cr1 1_555 1_555
C14 N8 1_555 1_555
C15 Cr1 1_555 1_555
C16 Cr1 1_555 1_555
C17 C18 1_555 1_555
C18 C19 1_555 1_555
C19 C20 1_555 1_555
C20 C21 1_555 1_555
C21 N9 1_555 1_555
C22 C21 1_555 1_555
C23 C22 1_555 1_555
C24 C23 1_555 1_555
C25 C24 1_555 1_555
C26 N10 1_555 1_555
C27 C28 1_555 1_555
C28 C29 1_555 1_555
C29 C30 1_555 1_555
C30 C31 1_555 1_555
C31 N11 1_555 1_555
O5 H29 1_555 1_555
O7 H31 1_555 1_555
O9 H33 1_555 1_555
H1 C1 1_555 1_555
H2 C2 1_555 1_555
H3 C3 1_555 1_555
H4 C4 1_555 1_555
H5 C7 1_555 1_555
H6 C8 1_555 1_555
H7 C9 1_555 1_555
H8 C10 1_555 1_555
H9 C17 1_555 1_555
H10 C18 1_555 1_555
H11 C19 1_555 1_555
H12 C20 1_555 1_555
H13 C23 1_555 1_555
H14 C24 1_555 1_555
H15 C25 1_555 1_555
H16 C26 1_555 1_555
H17 C27 1_555 1_555
H18 C28 1_555 1_555
H19 C29 1_555 1_555
H20 C30 1_555 1_555
H22 O1 1_555 1_555
H23 O2 1_555 1_555
H24 O2 1_555 1_555
H25 O3 1_555 1_555
H26 O3 1_555 1_555
H27 O4 1_555 1_555
H28 O4 1_555 1_555
H30 O5 1_555 1_555
H32 O7 1_555 1_555
Tm1_2 O1_2 1_555 1_555
Tm1_3 N8_2 1_555 1_555
Cr1_2 C14 1_555 1_555
O1_2 H21_2 1_555 1_555
O2_2 Tm1_2 1_555 1_555
O3_2 Tm1_2 1_555 1_555
O4_2 Tm1_2 1_555 1_555
N1_2 Tm1_2 1_555 1_555
N2_2 Tm1_2 1_555 1_555
N3_2 Tm1_2 1_555 1_555
N4_2 C12_2 1_555 1_555
N5_2 C13_2 1_555 1_555
N6_2 C15_2 1_555 1_555
N7_2 C16_2 1_555 1_555
N8_2 C14_2 1_555 1_555
N8_3 Tm1_2 1_555 1_555
N11A C27A 1_555 1_555
C1_2 N1_2 1_555 1_555
C2_2 C1_2 1_555 1_555
C3_2 C2_2 1_555 1_555
C4_2 C3_2 1_555 1_555
C5_2 N1_2 1_555 1_555
C6_2 N2_2 1_555 1_555
C7_2 C6_2 1_555 1_555
C8_2 C7_2 1_555 1_555
C9_2 C8_2 1_555 1_555
C10_2 N2_2 1_555 1_555
C11_2 Cr1_2 1_555 1_555
C12_2 Cr1_2 1_555 1_555
C13_2 Cr1_2 1_555 1_555
C14_2 Cr1 1_555 1_555
C15_2 Cr1_2 1_555 1_555
C16_2 Cr1_2 1_555 1_555
C27A C28A 1_555 1_555
C28A C29A 1_555 1_555
C29A C30A 1_555 1_555
C30A C31A 1_555 1_555
C31A C31 1_555 1_555
H1_2 C1_2 1_555 1_555
H2_2 C2_2 1_555 1_555
H3_2 C3_2 1_555 1_555
H4_2 C4_2 1_555 1_555
H5_2 C7_2 1_555 1_555
H6_2 C8_2 1_555 1_555
H7_2 C9_2 1_555 1_555
H8_2 C10_2 1_555 1_555
H17A C27A 1_555 1_555
H18A C28A 1_555 1_555
H19A C29A 1_555 1_555
H20A C30A 1_555 1_555
H22_2 O1_2 1_555 1_555
H23_2 O2_2 1_555 1_555
H24_2 O2_2 1_555 1_555
H25_2 O3_2 1_555 1_555
H26_2 O3_2 1_555 1_555
H27_2 O4_2 1_555 1_555
H28_2 O4_2 1_555 1_555
C4 C5 1_555 1_555
C5 C6 1_555 1_555
C9 C10 1_555 1_555
C25 C26 1_555 1_555
N3_2 C11_2 1_555 1_555
N11A C31A 1_555 1_555
C4_2 C5_2 1_555 1_555
C5_2 C6_2 1_555 1_555
C9_2 C10_2 1_555 1_555

#END
