
#######################################################################
#
#                 Cambridge Crystallographic Data Centre
#                                CCDC 
#
#######################################################################
#
# If this CIF has been generated from an entry in the Cambridge 
# Structural Database, then it will include bibliographic, chemical, 
# crystal, experimental, refinement or atomic coordinate data resulting 
# from the CCDC's data processing and validation procedures.
#
#######################################################################

data_JEPXAE
_symmetry_cell_setting           triclinic
_symmetry_space_group_name_H-M   'P -1'
_symmetry_Int_Tables_number      2
_space_group_name_Hall           '-P 1'
loop_
_symmetry_equiv_pos_site_id
_symmetry_equiv_pos_as_xyz
1 x,y,z
2 -x,-y,-z
_cell_length_a                   9.8332(15)
_cell_length_b                   10.7618(16)
_cell_length_c                   19.901(3)
_cell_angle_alpha                83.596(3)
_cell_angle_beta                 84.282(3)
_cell_angle_gamma                64.463(2)
_cell_volume                     1885.26
loop_
_atom_site_label
_atom_site_type_symbol
_atom_site_fract_x
_atom_site_fract_y
_atom_site_fract_z
Yb1 Yb 0.219113(13) 0.907439(12) 0.253103(7)
Cr1 Cr -0.22466(5) 1.45478(5) 0.27284(3)
O1 O 0.1849(3) 0.7224(2) 0.31347(13)
H1 H 0.2351 0.6793 0.3493
H2 H 0.1590 0.6642 0.2999
O2 O 0.2167(3) 0.9260(2) 0.36956(12)
H3 H 0.2585 0.9874 0.3889
H4 H 0.2776 0.8562 0.3987
O3 O 0.3635(2) 1.0290(2) 0.26370(12)
H5 H 0.4148 0.9965 0.3027
H6 H 0.3215 1.1241 0.2609
O4 O 0.2396(3) 1.0095(3) 0.14801(12)
H7 H 0.2377 1.0877 0.1417
H8 H 0.2345 0.9767 0.1043
N1 N 0.2605(3) 0.7427(3) 0.16492(15)
N2 N -0.0155(3) 0.9094(3) 0.21612(14)
N3 N 0.0368(3) 1.1426(3) 0.26772(15)
N4 N -0.2994(4) 1.4182(4) 0.43313(18)
N5 N -0.4651(4) 1.3362(4) 0.2539(2)
N6 N -0.1686(5) 1.4981(4) 0.11185(19)
N7 N 0.0101(3) 1.5837(3) 0.29009(17)
N8 N 0.4739(3) 0.7407(3) 0.27070(15)
C1 C 0.3982(4) 0.6636(4) 0.13815(19)
H9 H 0.4811 0.6724 0.1519
C2 C 0.4225(5) 0.5697(4) 0.0910(2)
H10 H 0.5197 0.5168 0.0737
C3 C 0.3025(6) 0.5559(5) 0.0704(3)
H11 H 0.3164 0.4926 0.0392
C4 C 0.1607(6) 0.6365(5) 0.0962(2)
H12 H 0.0774 0.6286 0.0824
C5 C 0.1412(4) 0.7303(3) 0.14320(18)
C6 C -0.0101(4) 0.8222(3) 0.17106(18)
C7 C -0.1413(5) 0.8190(4) 0.1515(2)
H13 H -0.1353 0.7588 0.1201
C8 C -0.2811(5) 0.9070(5) 0.1796(2)
H14 H -0.3695 0.9062 0.1674
C9 C -0.2860(4) 0.9940(4) 0.2252(2)
H15 H -0.3781 1.0537 0.2445
C10 C -0.1530(4) 0.9930(4) 0.24257(19)
H16 H -0.1582 1.0528 0.2741
C11 C -0.0510(3) 1.2554(3) 0.27064(17)
C12 C -0.2663(4) 1.4295(3) 0.37717(19)
C13 C -0.3756(4) 1.3746(4) 0.26002(19)
C14 C -0.1908(4) 1.4838(4) 0.16871(19)
C15 C -0.0748(4) 1.5401(3) 0.28507(18)
C16 C 0.5871(3) 0.6451(3) 0.27324(17)
Yb1_2 Yb 1.219113(13) -0.092561(12) 0.253103(7)
Yb1_3 Yb -0.780887(13) 1.907439(12) 0.253103(7)
Cr1_2 Cr 0.77534(5) 0.45478(5) 0.27284(3)
O1_2 O 1.1849(3) -0.2776(2) 0.31347(13)
H1_2 H 1.2351 -0.3207 0.3493
H2_2 H 1.1590 -0.3358 0.2999
O2_2 O 1.2167(3) -0.0740(2) 0.36956(12)
H3_2 H 1.2585 -0.0126 0.3889
H4_2 H 1.2776 -0.1438 0.3987
O3_2 O 1.3635(2) 0.0290(2) 0.26370(12)
H5_2 H 1.4148 -0.0035 0.3027
H6_2 H 1.3215 0.1241 0.2609
O4_2 O 1.2396(3) 0.0095(3) 0.14801(12)
H7_2 H 1.2377 0.0877 0.1417
H8_2 H 1.2345 -0.0233 0.1043
N1_2 N 1.2605(3) -0.2573(3) 0.16492(15)
N2_2 N 0.9845(3) -0.0906(3) 0.21612(14)
N3_2 N 1.0368(3) 0.1426(3) 0.26772(15)
N4_2 N 0.7006(4) 0.4182(4) 0.43313(18)
N5_2 N 0.5349(4) 0.3362(4) 0.2539(2)
N6_2 N 0.8314(5) 0.4981(4) 0.11185(19)
N7_2 N 1.0101(3) 0.5837(3) 0.29009(17)
N8_2 N -0.5261(3) 1.7407(3) 0.27070(15)
N8_3 N 1.4739(3) -0.2593(3) 0.27070(15)
C1_2 C 1.3982(4) -0.3364(4) 0.13815(19)
H9_2 H 1.4811 -0.3276 0.1519
C2_2 C 1.4225(5) -0.4303(4) 0.0910(2)
H10_2 H 1.5197 -0.4832 0.0737
C3_2 C 1.3025(6) -0.4441(5) 0.0704(3)
H11_2 H 1.3164 -0.5074 0.0392
C4_2 C 1.1607(6) -0.3635(5) 0.0962(2)
H12_2 H 1.0774 -0.3714 0.0824
C5_2 C 1.1412(4) -0.2697(3) 0.14320(18)
C6_2 C 0.9899(4) -0.1778(3) 0.17106(18)
C7_2 C 0.8587(5) -0.1810(4) 0.1515(2)
H13_2 H 0.8647 -0.2412 0.1201
C8_2 C 0.7189(5) -0.0930(5) 0.1796(2)
H14_2 H 0.6305 -0.0938 0.1674
C9_2 C 0.7140(4) -0.0060(4) 0.2252(2)
H15_2 H 0.6219 0.0537 0.2445
C10_2 C 0.8470(4) -0.0070(4) 0.24257(19)
H16_2 H 0.8418 0.0528 0.2741
C11_2 C 0.9490(3) 0.2554(3) 0.27064(17)
C12_2 C 0.7337(4) 0.4295(3) 0.37717(19)
C13_2 C 0.6244(4) 0.3746(4) 0.26002(19)
C14_2 C 0.8092(4) 0.4838(4) 0.16871(19)
C15_2 C 0.9252(4) 0.5401(3) 0.28507(18)
C16_2 C -0.4129(3) 1.6451(3) 0.27324(17)
N9 N 0.2596(3) 0.1469(3) 0.41032(16)
N10 N 0.5449(3) -0.0465(3) 0.38169(18)
C17 C 0.1201(4) 0.2452(4) 0.4180(2)
H17 H 0.0398 0.2238 0.4128
C18 C 0.0875(5) 0.3789(4) 0.4336(2)
H18 H -0.0116 0.4444 0.4395
C19 C 0.2067(5) 0.4103(4) 0.4401(2)
H19 H 0.1893 0.4984 0.4502
C20 C 0.3524(5) 0.3104(4) 0.4315(2)
H20 H 0.4343 0.3306 0.4348
C21 C 0.3747(4) 0.1783(4) 0.41769(18)
C22 C 0.5310(4) 0.0642(4) 0.41133(19)
C23 C 0.6541(5) 0.0717(5) 0.4363(3)
H21 H 0.6426 0.1502 0.4561
C24 C 0.7941(5) -0.0394(6) 0.4311(3)
H22 H 0.8785 -0.0356 0.4463
C25 C 0.8071(5) -0.1553(5) 0.4032(2)
H23 H 0.8989 -0.2329 0.4008
C26 C 0.6805(5) -0.1533(5) 0.3788(2)
H24 H 0.6896 -0.2312 0.3591
N11 N 0.1914(5) 0.9622(4) 1.01786(18)
C27 C 0.3331(6) 0.8918(5) 0.9931(2)
H25 H 0.4115 0.8965 1.0137
C28 C 0.3685(7) 0.8124(5) 0.9383(3)
H26 H 0.4678 0.7678 0.9213
C29 C 0.2527(6) 0.8011(5) 0.9096(2)
H27 H 0.2733 0.7453 0.8740
C30 C 0.1070(6) 0.8730(5) 0.9342(2)
H28 H 0.0279 0.8657 0.9156
C31 C 0.0782(5) 0.9570(4) 0.98693(19)
N11A N -0.1914(5) 1.0378(4) 0.98214(18)
C27A C -0.3331(6) 1.1082(5) 1.0069(2)
H25A H -0.4115 1.1035 0.9863
C28A C -0.3685(7) 1.1876(5) 1.0617(3)
H26A H -0.4678 1.2322 1.0787
C29A C -0.2527(6) 1.1989(5) 1.0904(2)
H27A H -0.2733 1.2547 1.1260
C30A C -0.1070(6) 1.1270(5) 1.0658(2)
H28A H -0.0279 1.1343 1.0844
C31A C -0.0782(5) 1.0430(4) 1.01307(19)
O5 O 0.3632(3) 0.6565(3) 0.42972(14)
H29 H 0.3415 0.6345 0.4708
O6 O 0.2741(3) 0.3085(3) 0.24153(16)
H30 H 0.3688 0.3215 0.2506
H31 H 0.1960 0.3836 0.2577
O8 O 0.191(2) 0.2809(13) 0.1188(4)
O9 O 0.0782(8) 0.3922(8) 0.0156(3)
O10 O 0.297(3) 0.251(2) 0.9825(11)
O7? O 0.283(3) 0.2285(18) 0.1112(5)
loop_
_geom_bond_atom_site_label_1
_geom_bond_atom_site_label_2
_geom_bond_site_symmetry_1
_geom_bond_site_symmetry_2
Yb1 O1 1_555 1_555
Cr1 C11 1_555 1_555
O1 H1 1_555 1_555
H2 O1 1_555 1_555
O2 Yb1 1_555 1_555
H3 O2 1_555 1_555
H4 O2 1_555 1_555
O3 Yb1 1_555 1_555
H5 O3 1_555 1_555
H6 O3 1_555 1_555
O4 Yb1 1_555 1_555
H7 O4 1_555 1_555
H8 O4 1_555 1_555
N1 Yb1 1_555 1_555
N2 Yb1 1_555 1_555
N3 Yb1 1_555 1_555
N4 C12 1_555 1_555
N5 C13 1_555 1_555
N6 C14 1_555 1_555
N7 C15 1_555 1_555
N8 Yb1 1_555 1_555
N9 C17 1_555 1_555
N10 C22 1_555 1_555
N11 C27 1_555 1_555
C1 N1 1_555 1_555
H9 C1 1_555 1_555
C2 C1 1_555 1_555
H10 C2 1_555 1_555
C3 C2 1_555 1_555
H11 C3 1_555 1_555
C4 C3 1_555 1_555
H12 C4 1_555 1_555
C5 N1 1_555 1_555
C6 N2 1_555 1_555
C7 C6 1_555 1_555
H13 C7 1_555 1_555
C8 C7 1_555 1_555
H14 C8 1_555 1_555
C9 C8 1_555 1_555
H15 C9 1_555 1_555
C10 N2 1_555 1_555
H16 C10 1_555 1_555
C11 N3 1_555 1_555
C12 Cr1 1_555 1_555
C13 Cr1 1_555 1_555
C14 Cr1 1_555 1_555
C15 Cr1 1_555 1_555
C16 N8 1_555 1_555
C17 H17 1_555 1_555
C18 C17 1_555 1_555
H18 C18 1_555 1_555
C19 C18 1_555 1_555
H19 C19 1_555 1_555
C20 C19 1_555 1_555
H20 C20 1_555 1_555
C21 N9 1_555 1_555
C22 C21 1_555 1_555
C23 C22 1_555 1_555
H21 C23 1_555 1_555
C24 C23 1_555 1_555
H22 C24 1_555 1_555
C25 C24 1_555 1_555
H23 C25 1_555 1_555
C26 N10 1_555 1_555
H24 C26 1_555 1_555
C27 H25 1_555 1_555
C28 C27 1_555 1_555
H26 C28 1_555 1_555
C29 C28 1_555 1_555
H27 C29 1_555 1_555
C30 C29 1_555 1_555
H28 C30 1_555 1_555
C31 N11 1_555 1_555
O5 H29 1_555 1_555
O6 H30 1_555 1_555
H31 O6 1_555 1_555
Yb1_2 O1_2 1_555 1_555
Yb1_3 N8_2 1_555 1_555
Cr1_2 C16 1_555 1_555
O1_2 H1_2 1_555 1_555
H2_2 O1_2 1_555 1_555
O2_2 Yb1_2 1_555 1_555
H3_2 O2_2 1_555 1_555
H4_2 O2_2 1_555 1_555
O3_2 Yb1_2 1_555 1_555
H5_2 O3_2 1_555 1_555
H6_2 O3_2 1_555 1_555
O4_2 Yb1_2 1_555 1_555
H7_2 O4_2 1_555 1_555
H8_2 O4_2 1_555 1_555
N1_2 Yb1_2 1_555 1_555
N2_2 Yb1_2 1_555 1_555
N3_2 Yb1_2 1_555 1_555
N4_2 C12_2 1_555 1_555
N5_2 C13_2 1_555 1_555
N6_2 C14_2 1_555 1_555
N7_2 C15_2 1_555 1_555
N8_2 C16_2 1_555 1_555
N8_3 Yb1_2 1_555 1_555
N11A C27A 1_555 1_555
C1_2 N1_2 1_555 1_555
H9_2 C1_2 1_555 1_555
C2_2 C1_2 1_555 1_555
H10_2 C2_2 1_555 1_555
C3_2 C2_2 1_555 1_555
H11_2 C3_2 1_555 1_555
C4_2 C3_2 1_555 1_555
H12_2 C4_2 1_555 1_555
C5_2 N1_2 1_555 1_555
C6_2 N2_2 1_555 1_555
C7_2 C6_2 1_555 1_555
H13_2 C7_2 1_555 1_555
C8_2 C7_2 1_555 1_555
H14_2 C8_2 1_555 1_555
C9_2 C8_2 1_555 1_555
H15_2 C9_2 1_555 1_555
C10_2 N2_2 1_555 1_555
H16_2 C10_2 1_555 1_555
C11_2 Cr1_2 1_555 1_555
C12_2 Cr1_2 1_555 1_555
C13_2 Cr1_2 1_555 1_555
C14_2 Cr1_2 1_555 1_555
C15_2 Cr1_2 1_555 1_555
C16_2 Cr1 1_555 1_555
C27A H25A 1_555 1_555
C28A C27A 1_555 1_555
H26A C28A 1_555 1_555
C29A C28A 1_555 1_555
H27A C29A 1_555 1_555
C30A C29A 1_555 1_555
H28A C30A 1_555 1_555
C31A C31 1_555 1_555
C4 C5 1_555 1_555
C5 C6 1_555 1_555
C9 C10 1_555 1_555
C20 C21 1_555 1_555
C25 C26 1_555 1_555
C30 C31 1_555 1_555
N3_2 C11_2 1_555 1_555
N11A C31A 1_555 1_555
C4_2 C5_2 1_555 1_555
C5_2 C6_2 1_555 1_555
C9_2 C10_2 1_555 1_555
C30A C31A 1_555 1_555

#END
