
#######################################################################
#
#                 Cambridge Crystallographic Data Centre
#                                CCDC 
#
#######################################################################
#
# If this CIF has been generated from an entry in the Cambridge 
# Structural Database, then it will include bibliographic, chemical, 
# crystal, experimental, refinement or atomic coordinate data resulting 
# from the CCDC's data processing and validation procedures.
#
#######################################################################

data_JEQNUP
_symmetry_cell_setting           monoclinic
_symmetry_space_group_name_H-M   'C 2/c'
_symmetry_Int_Tables_number      15
_space_group_name_Hall           '-C 2yn'
loop_
_symmetry_equiv_pos_site_id
_symmetry_equiv_pos_as_xyz
1 x,y,z
2 1/2+x,1/2+y,z
3 -x,y,1/2-z
4 1/2-x,1/2+y,1/2-z
5 -x,-y,-z
6 1/2-x,1/2-y,-z
7 x,-y,1/2+z
8 1/2+x,1/2-y,1/2+z
_cell_length_a                   19.014(4)
_cell_length_b                   7.4023(15)
_cell_length_c                   20.449(4)
_cell_angle_alpha                90
_cell_angle_beta                 97.18(3)
_cell_angle_gamma                90
_cell_volume                     2855.57
loop_
_atom_site_label
_atom_site_type_symbol
_atom_site_fract_x
_atom_site_fract_y
_atom_site_fract_z
Mn1 Mn 0.0000 0.81861(12) 0.2500
Mn2 Mn 0.27266(3) 1.02391(9) 0.64977(3)
O1 O 0.0410(3) 0.7982(10) 0.3571(3)
O2 O -0.0723(3) 0.7610(11) 0.3554(3)
O3 O 0.1899(3) 0.9266(12) 0.5648(3)
O4 O 0.1588(3) 0.8479(9) 0.6592(3)
O5 O -0.1601(4) 0.5953(14) 0.5689(3)
O6 O -0.1005(3) 0.6672(8) 0.6625(3)
O7 O 0.0866(5) 1.0337(11) 0.2564(4)
O8 O 0.2111(3) 1.2951(9) 0.6467(3)
O9 O 0.3207(4) 0.7435(12) 0.6555(5)
O10 O 0.2790(4) 1.0606(11) 0.7616(3)
O11 O 0.0000 0.5084(15) 0.2500
C1 C 0.1463(4) 0.8603(11) 0.5986(4)
C2 C 0.0212(4) 0.7522(11) 0.5977(4)
H1 H 0.0284 0.7511 0.6436
C3 C -0.0006(4) 0.7603(10) 0.4607(4)
C4 C -0.0116(4) 0.7713(10) 0.3865(4)
C5 C -0.1063(4) 0.6542(11) 0.6009(4)
C6 C 0.0762(4) 0.8014(10) 0.5633(4)
C7 C -0.0552(4) 0.7100(11) 0.4949(4)
H2 H -0.0990 0.6798 0.4720
C8 C -0.0453(4) 0.7037(10) 0.5649(4)
C9 C 0.0654(4) 0.8027(11) 0.4945(4)
H3 H 0.1026 0.8323 0.4711
Mn2B Mn -0.27266(3) 1.02391(9) -0.14977(3)
Mn2A Mn -0.22734(3) 0.52391(9) 0.64977(3)
Mn2C Mn 0.22734(3) 0.52391(9) -0.14977(3)
O1B O -0.0410(3) 0.7982(10) 0.1429(3)
O2B O 0.0723(3) 0.7610(11) 0.1446(3)
O3B O -0.1899(3) 0.9266(12) -0.0648(3)
O4B O -0.1588(3) 0.8479(9) -0.1592(3)
O5B O 0.1601(4) 0.5953(14) -0.0689(3)
O5A O 0.3399(4) 1.0953(14) 0.5689(3)
O5C O -0.3399(4) 1.0953(14) -0.0689(3)
O6B O 0.1005(3) 0.6672(8) -0.1625(3)
O6A O 0.3995(3) 1.1672(8) 0.6625(3)
O6C O -0.3995(3) 1.1672(8) -0.1625(3)
O7B O -0.0866(5) 1.0337(11) 0.2436(4)
O8B O -0.2111(3) 1.2951(9) -0.1467(3)
O9B O -0.3207(4) 0.7435(12) -0.1555(5)
O10B O -0.2790(4) 1.0606(11) -0.2616(3)
C1B C -0.1463(4) 0.8603(11) -0.0986(4)
C2B C -0.0212(4) 0.7522(11) -0.0977(4)
H1B H -0.0284 0.7511 -0.1436
C3B C 0.0006(4) 0.7603(10) 0.0393(4)
C4B C 0.0116(4) 0.7713(10) 0.1135(4)
C5B C 0.1063(4) 0.6542(11) -0.1009(4)
C6B C -0.0762(4) 0.8014(10) -0.0633(4)
C7B C 0.0552(4) 0.7100(11) 0.0051(4)
H2B H 0.0990 0.6798 0.0280
C8B C 0.0453(4) 0.7037(10) -0.0649(4)
C9B C -0.0654(4) 0.8027(11) 0.0055(4)
H3B H -0.1026 0.8323 0.0289
O12 O 0.2358(10) 0.5090(18) 0.5523(6)
loop_
_geom_bond_atom_site_label_1
_geom_bond_atom_site_label_2
_geom_bond_site_symmetry_1
_geom_bond_site_symmetry_2
Mn1 O1 1_555 1_555
Mn2 O3 1_555 1_555
O1 C4 1_555 1_555
O2 Mn1 1_555 1_555
O3 C1 1_555 1_555
O4 Mn2 1_555 1_555
O5 C5 1_555 1_555
O6 C5 1_555 1_555
O7 Mn1 1_555 1_555
O8 Mn2 1_555 1_555
O9 Mn2 1_555 1_555
O10 Mn2 1_555 1_555
O11 Mn1 1_555 1_555
C1 O4 1_555 1_555
C2 H1 1_555 1_555
C3 C4 1_555 1_555
C4 O2 1_555 1_555
C5 C8 1_555 1_555
C6 C1 1_555 1_555
C7 C3 1_555 1_555
H2 C7 1_555 1_555
C8 C2 1_555 1_555
C9 C3 1_555 1_555
H3 C9 1_555 1_555
Mn2B O3B 1_555 1_555
Mn2A O5 1_555 1_555
Mn2C O5B 1_555 1_555
O1B Mn1 1_555 1_555
O2B Mn1 1_555 1_555
O3B C1B 1_555 1_555
O4B Mn2B 1_555 1_555
O5B C5B 1_555 1_555
O5A Mn2 1_555 1_555
O5C Mn2B 1_555 1_555
O6B Mn2C 1_555 1_555
O6A Mn2 1_555 1_555
O6C Mn2B 1_555 1_555
O7B Mn1 1_555 1_555
O8B Mn2B 1_555 1_555
O9B Mn2B 1_555 1_555
O10B Mn2B 1_555 1_555
C1B O4B 1_555 1_555
C2B H1B 1_555 1_555
C3B C4B 1_555 1_555
C4B O1B 1_555 1_555
C5B O6B 1_555 1_555
C6B C1B 1_555 1_555
C7B C3B 1_555 1_555
H2B C7B 1_555 1_555
C8B C2B 1_555 1_555
C9B C3B 1_555 1_555
H3B C9B 1_555 1_555
O6 Mn2A 1_555 1_555
C2 C6 1_555 1_555
C6 C9 1_555 1_555
C7 C8 1_555 1_555
O2B C4B 1_555 1_555
C2B C6B 1_555 1_555
C5B C8B 1_555 1_555
C6B C9B 1_555 1_555
C7B C8B 1_555 1_555

#END
