
#######################################################################
#
#                 Cambridge Crystallographic Data Centre
#                                CCDC 
#
#######################################################################
#
# If this CIF has been generated from an entry in the Cambridge 
# Structural Database, then it will include bibliographic, chemical, 
# crystal, experimental, refinement or atomic coordinate data resulting 
# from the CCDC's data processing and validation procedures.
#
#######################################################################

data_JEQNAV
_symmetry_cell_setting           triclinic
_symmetry_space_group_name_H-M   'P -1'
_symmetry_Int_Tables_number      2
_space_group_name_Hall           '-P 1'
loop_
_symmetry_equiv_pos_site_id
_symmetry_equiv_pos_as_xyz
1 x,y,z
2 -x,-y,-z
_cell_length_a                   12.708(3)
_cell_length_b                   14.016(3)
_cell_length_c                   14.646(3)
_cell_angle_alpha                78.18(3)
_cell_angle_beta                 74.92(3)
_cell_angle_gamma                87.28(3)
_cell_volume                     2465.39
loop_
_atom_site_label
_atom_site_type_symbol
_atom_site_fract_x
_atom_site_fract_y
_atom_site_fract_z
Mo1 Mo 0.31674(4) 0.31604(4) 0.19741(5)
Mo2 Mo 0.31985(5) 0.70463(4) 0.09799(5)
Mo3 Mo 0.66949(4) 0.51513(4) 0.17657(5)
Mo4 Mo 0.58802(5) 0.68710(4) 0.12450(5)
Mo5 Mo 0.20680(5) 0.54654(4) 0.12859(5)
Mo6 Mo 0.50973(4) 0.30588(4) 0.22490(4)
Zn1 Zn 0.5000 0.5000 0.0000
Zn2 Zn 0.32014(7) 0.65334(6) 0.42194(7)
Zn3 Zn -0.11410(7) 0.22416(6) 0.31164(7)
Zn4 Zn 0.70549(7) 0.66106(7) 0.33914(8)
P1 P 0.39024(14) 0.52309(12) 0.26697(13)
P2 P 0.40395(15) 0.82529(13) 0.23900(15)
P3 P 0.07242(14) 0.37925(14) 0.31351(15)
P4 P 0.65498(14) 0.34055(13) 0.37479(14)
O1 O -0.1453(5) 0.2736(4) 0.1776(5)
O2 O 0.5975(4) 0.5662(3) 0.0718(4)
O3 O 0.8228(5) 0.5560(4) 0.3623(5)
O4 O 0.3529(4) 0.5838(4) 0.0459(4)
O5 O 0.5983(4) 0.5800(4) 0.4507(5)
O6 O 0.4557(4) 0.3734(3) 0.1132(3)
O7 O 0.1609(4) 0.6575(5) 0.4785(5)
O8 O 0.2419(4) 0.4064(3) 0.0995(4)
O9 O 0.6302(4) 0.6244(4) 0.2427(4)
O10 O 0.3679(4) 0.2829(4) 0.3130(4)
O11 O 0.1935(4) 0.6499(4) 0.2007(4)
O12 O 0.3468(4) 0.5346(3) 0.3700(4)
O13 O 0.6976(4) 0.4348(4) 0.3006(4)
O14 O 0.7006(4) 0.7458(4) 0.0554(4)
O15 O 0.3057(4) 0.4720(3) 0.2333(4)
O16 O 0.6601(4) 0.3766(3) 0.1472(4)
O17 O 0.2673(4) 0.7772(4) 0.0142(4)
O18 O 0.1286(4) 0.5824(4) 0.0516(4)
O19 O 0.4182(4) 0.6237(3) 0.1994(4)
O20 O 0.5656(4) 0.2922(4) 0.3458(4)
O21 O 0.0817(4) 0.4723(4) 0.2364(4)
O22 O 0.4862(4) 0.7406(3) 0.0331(4)
O23 O 0.5218(4) 0.7959(4) 0.1952(4)
O24 O 0.4955(4) 0.4613(3) 0.2535(4)
O25 O -0.0388(4) 0.3334(4) 0.3355(4)
O26 O 0.8002(4) 0.5369(4) 0.1184(4)
O27 O 0.3135(4) 0.2112(4) 0.1610(5)
O28 O 0.1633(4) 0.3067(4) 0.2882(4)
O29 O 0.5478(4) 0.1970(4) 0.1966(5)
O30 O 0.4039(5) 0.9372(4) 0.2379(5)
O31 O 0.7452(4) 0.2705(4) 0.3862(4)
O32 O 0.0790(5) 0.4101(4) 0.4095(5)
O33 O 0.6051(4) 0.3711(4) 0.4727(4)
O34 O 0.3271(4) 0.8068(4) 0.1770(4)
O35 O 0.3637(5) 0.7778(4) 0.3437(5)
C1 C 0.9165(6) 0.7190(6) 0.1722(7)
H1 H 0.9321 0.6529 0.1775
C2 C 0.9842(8) 0.7851(8) 0.1015(8)
H2 H 1.0448 0.7638 0.0596
C3 C 0.9615(8) 0.8827(7) 0.0934(9)
H3 H 1.0080 0.9277 0.0465
C4 C 0.8697(8) 0.9151(7) 0.1545(8)
C5 C 0.8382(9) 1.0166(8) 0.1525(9)
H4 H 0.8820 1.0652 0.1080
C6 C 0.7471(9) 1.0419(7) 0.2137(9)
H5 H 0.7270 1.1071 0.2083
C7 C 0.6822(7) 0.9704(6) 0.2859(8)
C8 C 0.5889(8) 0.9925(7) 0.3542(9)
H6 H 0.5664 1.0568 0.3526
C9 C 0.5326(8) 0.9207(7) 0.4215(7)
H7 H 0.4708 0.9351 0.4667
C10 C 0.5671(7) 0.8231(7) 0.4239(7)
H8 H 0.5276 0.7741 0.4716
C11 C 0.7108(6) 0.8701(6) 0.2912(7)
C12 C 0.8034(6) 0.8430(6) 0.2248(7)
C13 C 0.0821(7) 0.1494(6) 0.1629(8)
H9 H 0.0864 0.2130 0.1277
C14 C 0.1532(7) 0.0810(7) 0.1245(8)
H10 H 0.2034 0.0982 0.0649
C15 C 0.1476(7) -0.0144(6) 0.1776(8)
H11 H 0.1941 -0.0619 0.1537
C16 C 0.0714(7) -0.0378(6) 0.2671(7)
C17 C 0.0594(9) -0.1342(6) 0.3253(9)
H12 H 0.1040 -0.1840 0.3040
C18 C -0.0161(10) -0.1533(7) 0.4109(9)
H13 H -0.0234 -0.2165 0.4473
C19 C -0.0863(8) -0.0771(6) 0.4474(8)
C20 C -0.1635(9) -0.0926(7) 0.5358(9)
H14 H -0.1745 -0.1547 0.5745
C21 C -0.2236(10) -0.0153(8) 0.5655(8)
H15 H -0.2721 -0.0237 0.6264
C22 C -0.2113(8) 0.0766(7) 0.5034(8)
H16 H -0.2550 0.1277 0.5226
C23 C -0.0741(7) 0.0171(6) 0.3907(7)
C24 C 0.0025(7) 0.0365(6) 0.2988(7)
N1 N 0.8286(5) 0.7471(5) 0.2338(6)
N2 N 0.6539(5) 0.7991(5) 0.3602(6)
N3 N 0.0087(6) 0.1292(5) 0.2464(6)
N4 N -0.1389(6) 0.0927(5) 0.4177(6)
Mo1A Mo 0.68326(4) 0.68396(4) -0.19741(5)
Mo2A Mo 0.68015(5) 0.29537(4) -0.09799(5)
Mo3A Mo 0.33051(4) 0.48487(4) -0.17657(5)
Mo4A Mo 0.41198(5) 0.31290(4) -0.12450(5)
Mo5A Mo 0.79320(5) 0.45346(4) -0.12859(5)
Mo6A Mo 0.49027(4) 0.69412(4) -0.22490(4)
Zn2A Zn 0.67986(7) 0.34666(6) -0.42194(7)
Zn2A_2 Zn 0.67986(7) 0.34666(6) 0.57806(7)
Zn2_2 Zn 0.32014(7) 0.65334(6) -0.57806(7)
Zn3A Zn 1.11410(7) 0.77584(6) -0.31164(7)
Zn3_2 Zn 0.88590(7) 0.22416(6) 0.31164(7)
Zn3A_2 Zn 0.11410(7) 0.77584(6) -0.31164(7)
Zn4A Zn 0.29451(7) 0.33894(7) -0.33914(8)
P1A P 0.60976(14) 0.47691(12) -0.26697(13)
P2A P 0.59605(15) 0.17471(13) -0.23900(15)
P3A P 0.92758(14) 0.62075(14) -0.31351(15)
P4A P 0.34502(14) 0.65945(13) -0.37479(14)
O1A O 1.1453(5) 0.7264(4) -0.1776(5)
O2A O 0.4025(4) 0.4338(3) -0.0718(4)
O3A O 0.1772(5) 0.4440(4) -0.3623(5)
O4A O 0.6471(4) 0.4162(4) -0.0459(4)
O5A O 0.4017(4) 0.4200(4) -0.4507(5)
O6A O 0.5443(4) 0.6266(3) -0.1132(3)
O7A O 0.8391(4) 0.3425(5) -0.4785(5)
O8A O 0.7581(4) 0.5936(3) -0.0995(4)
O9A O 0.3698(4) 0.3756(4) -0.2427(4)
O10A O 0.6321(4) 0.7171(4) -0.3130(4)
O11A O 0.8065(4) 0.3501(4) -0.2007(4)
O12A O 0.6532(4) 0.4654(3) -0.3700(4)
O13A O 0.3024(4) 0.5652(4) -0.3006(4)
O14A O 0.2994(4) 0.2542(4) -0.0554(4)
O15A O 0.6943(4) 0.5280(3) -0.2333(4)
O16A O 0.3399(4) 0.6234(3) -0.1472(4)
O17A O 0.7327(4) 0.2228(4) -0.0142(4)
O18A O 0.8714(4) 0.4176(4) -0.0516(4)
O19A O 0.5818(4) 0.3763(3) -0.1994(4)
O20A O 0.4344(4) 0.7078(4) -0.3458(4)
O21A O 0.9183(4) 0.5277(4) -0.2364(4)
O22A O 0.5138(4) 0.2594(3) -0.0331(4)
O23A O 0.4782(4) 0.2041(4) -0.1952(4)
O24A O 0.5045(4) 0.5387(3) -0.2535(4)
O25A O 1.0388(4) 0.6666(4) -0.3355(4)
O26A O 0.1998(4) 0.4631(4) -0.1184(4)
O27A O 0.6865(4) 0.7888(4) -0.1610(5)
O28A O 0.8367(4) 0.6933(4) -0.2882(4)
O29A O 0.4522(4) 0.8030(4) -0.1966(5)
O30A O 0.5961(5) 0.0628(4) -0.2379(5)
O31A O 0.2548(4) 0.7295(4) -0.3862(4)
O31_2 O -0.2548(4) 0.2705(4) 0.3862(4)
O31A_2 O 1.2548(4) 0.7295(4) -0.3862(4)
O32A O 0.9210(5) 0.5899(4) -0.4095(5)
O33A O 0.3949(4) 0.6289(4) -0.4727(4)
O33A_2 O 0.3949(4) 0.6289(4) 0.5273(4)
O33_2 O 0.6051(4) 0.3711(4) -0.5273(4)
O34A O 0.6729(4) 0.1932(4) -0.1770(4)
O35A O 0.6363(5) 0.2222(4) -0.3437(5)
C1A C 0.0835(6) 0.2810(6) -0.1722(7)
H1A H 0.0679 0.3471 -0.1775
C2A C 0.0158(8) 0.2149(8) -0.1015(8)
H2A H -0.0448 0.2362 -0.0596
C3A C 0.0385(8) 0.1173(7) -0.0934(9)
H3A H -0.0080 0.0723 -0.0465
C4A C 0.1303(8) 0.0849(7) -0.1545(8)
C5A C 0.1618(9) -0.0166(8) -0.1525(9)
H4A H 0.1180 -0.0652 -0.1080
C6A C 0.2529(9) -0.0419(7) -0.2137(9)
H5A H 0.2730 -0.1071 -0.2083
C7A C 0.3178(7) 0.0296(6) -0.2859(8)
C8A C 0.4111(8) 0.0075(7) -0.3542(9)
H6A H 0.4336 -0.0568 -0.3526
C9A C 0.4674(8) 0.0793(7) -0.4215(7)
H7A H 0.5292 0.0649 -0.4667
C10A C 0.4329(7) 0.1769(7) -0.4239(7)
H8A H 0.4724 0.2259 -0.4716
C11A C 0.2892(6) 0.1299(6) -0.2912(7)
C12A C 0.1966(6) 0.1570(6) -0.2248(7)
C13A C 0.9179(7) 0.8506(6) -0.1629(8)
H9A H 0.9136 0.7870 -0.1277
C14A C 0.8468(7) 0.9190(7) -0.1245(8)
H10A H 0.7966 0.9018 -0.0649
C15A C 0.8524(7) 1.0144(6) -0.1776(8)
H11A H 0.8059 1.0619 -0.1537
C16A C 0.9286(7) 1.0378(6) -0.2671(7)
C17A C 0.9406(9) 1.1342(6) -0.3253(9)
H12A H 0.8960 1.1840 -0.3040
C18A C 1.0161(10) 1.1533(7) -0.4109(9)
H13A H 1.0234 1.2165 -0.4473
C19A C 1.0863(8) 1.0771(6) -0.4474(8)
C20A C 1.1635(9) 1.0926(7) -0.5358(9)
H14A H 1.1745 1.1547 -0.5745
C21A C 1.2236(10) 1.0153(8) -0.5655(8)
H15A H 1.2721 1.0237 -0.6264
C22A C 1.2113(8) 0.9234(7) -0.5034(8)
H16A H 1.2550 0.8723 -0.5226
C23A C 1.0741(7) 0.9829(6) -0.3907(7)
C24A C 0.9975(7) 0.9635(6) -0.2988(7)
N1A N 0.1714(5) 0.2529(5) -0.2338(6)
N2A N 0.3461(5) 0.2009(5) -0.3602(6)
N3A N 0.9913(6) 0.8708(5) -0.2464(6)
N4A N 1.1389(6) 0.9073(5) -0.4177(6)
O36 O 0.0279(5) 0.3749(5) 0.0605(6)
O37 O 0.2460(5) 0.3424(5) 0.4727(5)
O38 O 0.0329(5) 0.6105(4) 0.3734(5)
O39 O 0.475(2) 1.0523(8) 0.0729(11)
loop_
_geom_bond_atom_site_label_1
_geom_bond_atom_site_label_2
_geom_bond_site_symmetry_1
_geom_bond_site_symmetry_2
Mo1 Mo6 1_555 1_555
Mo2 Mo5 1_555 1_555
Mo3 Mo4 1_555 1_555
Mo4 O2 1_555 1_555
Mo5 O4 1_555 1_555
Mo6 O6 1_555 1_555
Zn1 O2 1_555 1_555
Zn2 O7 1_555 1_555
Zn3 O1 1_555 1_555
Zn4 O3 1_555 1_555
P1 O12 1_555 1_555
P2 O23 1_555 1_555
P3 O21 1_555 1_555
P4 O13 1_555 1_555
O2 Mo3 1_555 1_555
O4 Mo2 1_555 1_555
O5 Zn4 1_555 1_555
O6 Mo1 1_555 1_555
O8 Mo1 1_555 1_555
O9 Mo3 1_555 1_555
O10 Mo1 1_555 1_555
O11 Mo2 1_555 1_555
O12 Zn2 1_555 1_555
O13 Mo3 1_555 1_555
O14 Mo4 1_555 1_555
O15 Mo1 1_555 1_555
O16 Mo3 1_555 1_555
O17 Mo2 1_555 1_555
O18 Mo5 1_555 1_555
O19 Mo2 1_555 1_555
O20 Mo6 1_555 1_555
O21 Mo5 1_555 1_555
O22 Mo2 1_555 1_555
O23 Mo4 1_555 1_555
O24 Mo3 1_555 1_555
O25 Zn3 1_555 1_555
O26 Mo3 1_555 1_555
O27 Mo1 1_555 1_555
O28 Mo1 1_555 1_555
O29 Mo6 1_555 1_555
O30 P2 1_555 1_555
O31 P4 1_555 1_555
O32 P3 1_555 1_555
O33 P4 1_555 1_555
O34 Mo2 1_555 1_555
O35 Zn2 1_555 1_555
C1 H1 1_555 1_555
C2 C1 1_555 1_555
H2 C2 1_555 1_555
C3 C2 1_555 1_555
H3 C3 1_555 1_555
C4 C3 1_555 1_555
C5 C4 1_555 1_555
H4 C5 1_555 1_555
C6 C5 1_555 1_555
H5 C6 1_555 1_555
C7 C6 1_555 1_555
C8 C7 1_555 1_555
H6 C8 1_555 1_555
C9 C8 1_555 1_555
H7 C9 1_555 1_555
C10 C9 1_555 1_555
H8 C10 1_555 1_555
C11 C7 1_555 1_555
C12 C4 1_555 1_555
C13 H9 1_555 1_555
C14 C13 1_555 1_555
H10 C14 1_555 1_555
C15 C14 1_555 1_555
H11 C15 1_555 1_555
C16 C15 1_555 1_555
C17 C16 1_555 1_555
H12 C17 1_555 1_555
C18 C17 1_555 1_555
H13 C18 1_555 1_555
C19 C18 1_555 1_555
C20 C19 1_555 1_555
H14 C20 1_555 1_555
C21 C20 1_555 1_555
H15 C21 1_555 1_555
C22 C21 1_555 1_555
H16 C22 1_555 1_555
C23 C19 1_555 1_555
C24 C16 1_555 1_555
N1 Zn4 1_555 1_555
N2 Zn4 1_555 1_555
N3 Zn3 1_555 1_555
N4 Zn3 1_555 1_555
Mo1A Mo6A 1_555 1_555
Mo2A Mo5A 1_555 1_555
Mo3A Mo4A 1_555 1_555
Mo4A O2A 1_555 1_555
Mo5A O4A 1_555 1_555
Mo6A O6A 1_555 1_555
Zn2A O7A 1_555 1_555
Zn2A_2 O33 1_555 1_555
Zn2_2 O33A 1_555 1_555
Zn3A O1A 1_555 1_555
Zn3_2 O31 1_555 1_555
Zn3A_2 O31A 1_555 1_555
Zn4A O3A 1_555 1_555
P1A O12A 1_555 1_555
P2A O23A 1_555 1_555
P3A O21A 1_555 1_555
P4A O13A 1_555 1_555
O2A Zn1 1_555 1_555
O4A Zn1 1_555 1_555
O5A Zn4A 1_555 1_555
O6A Zn1 1_555 1_555
O8A Mo1A 1_555 1_555
O9A Mo3A 1_555 1_555
O10A Mo1A 1_555 1_555
O11A Mo2A 1_555 1_555
O12A Zn2A 1_555 1_555
O13A Mo3A 1_555 1_555
O14A Mo4A 1_555 1_555
O15A Mo1A 1_555 1_555
O16A Mo3A 1_555 1_555
O17A Mo2A 1_555 1_555
O18A Mo5A 1_555 1_555
O19A Mo2A 1_555 1_555
O20A Mo6A 1_555 1_555
O21A Mo5A 1_555 1_555
O22A Mo2A 1_555 1_555
O23A Mo4A 1_555 1_555
O24A Mo3A 1_555 1_555
O25A Zn3A 1_555 1_555
O26A Mo3A 1_555 1_555
O27A Mo1A 1_555 1_555
O28A Mo1A 1_555 1_555
O29A Mo6A 1_555 1_555
O30A P2A 1_555 1_555
O31A P4A 1_555 1_555
O31_2 Zn3 1_555 1_555
O31A_2 Zn3A 1_555 1_555
O32A P3A 1_555 1_555
O33A P4A 1_555 1_555
O33A_2 Zn2 1_555 1_555
O33_2 Zn2A 1_555 1_555
O34A Mo2A 1_555 1_555
O35A Zn2A 1_555 1_555
C1A H1A 1_555 1_555
C2A C1A 1_555 1_555
H2A C2A 1_555 1_555
C3A C2A 1_555 1_555
H3A C3A 1_555 1_555
C4A C3A 1_555 1_555
C5A C4A 1_555 1_555
H4A C5A 1_555 1_555
C6A C5A 1_555 1_555
H5A C6A 1_555 1_555
C7A C6A 1_555 1_555
C8A C7A 1_555 1_555
H6A C8A 1_555 1_555
C9A C8A 1_555 1_555
H7A C9A 1_555 1_555
C10A C9A 1_555 1_555
H8A C10A 1_555 1_555
C11A C7A 1_555 1_555
C12A C4A 1_555 1_555
C13A H9A 1_555 1_555
C14A C13A 1_555 1_555
H10A C14A 1_555 1_555
C15A C14A 1_555 1_555
H11A C15A 1_555 1_555
C16A C15A 1_555 1_555
C17A C16A 1_555 1_555
H12A C17A 1_555 1_555
C18A C17A 1_555 1_555
H13A C18A 1_555 1_555
C19A C18A 1_555 1_555
C20A C19A 1_555 1_555
H14A C20A 1_555 1_555
C21A C20A 1_555 1_555
H15A C21A 1_555 1_555
C22A C21A 1_555 1_555
H16A C22A 1_555 1_555
C23A C19A 1_555 1_555
C24A C16A 1_555 1_555
N1A Zn4A 1_555 1_555
N2A Zn4A 1_555 1_555
N3A Zn3A 1_555 1_555
N4A Zn3A 1_555 1_555
Mo4 O9 1_555 1_555
Mo4 O19 1_555 1_555
Mo4 O22 1_555 1_555
Mo5 O8 1_555 1_555
Mo5 O11 1_555 1_555
Mo5 O15 1_555 1_555
Mo6 O10 1_555 1_555
Mo6 O16 1_555 1_555
Mo6 O24 1_555 1_555
Zn1 O4 1_555 1_555
Zn1 O6 1_555 1_555
Zn4 O9 1_555 1_555
P1 O15 1_555 1_555
P1 O19 1_555 1_555
P1 O24 1_555 1_555
P2 O34 1_555 1_555
P2 O35 1_555 1_555
P3 O25 1_555 1_555
P3 O28 1_555 1_555
P4 O20 1_555 1_555
C1 N1 1_555 1_555
C10 N2 1_555 1_555
C11 C12 1_555 1_555
C11 N2 1_555 1_555
C12 N1 1_555 1_555
C13 N3 1_555 1_555
C22 N4 1_555 1_555
C23 C24 1_555 1_555
C23 N4 1_555 1_555
C24 N3 1_555 1_555
Mo1A O6A 1_555 1_555
Mo2A O4A 1_555 1_555
Mo3A O2A 1_555 1_555
Mo4A O9A 1_555 1_555
Mo4A O19A 1_555 1_555
Mo4A O22A 1_555 1_555
Mo5A O8A 1_555 1_555
Mo5A O11A 1_555 1_555
Mo5A O15A 1_555 1_555
Mo6A O10A 1_555 1_555
Mo6A O16A 1_555 1_555
Mo6A O24A 1_555 1_555
Zn4A O9A 1_555 1_555
P1A O15A 1_555 1_555
P1A O19A 1_555 1_555
P1A O24A 1_555 1_555
P2A O34A 1_555 1_555
P2A O35A 1_555 1_555
P3A O25A 1_555 1_555
P3A O28A 1_555 1_555
P4A O20A 1_555 1_555
C1A N1A 1_555 1_555
C10A N2A 1_555 1_555
C11A C12A 1_555 1_555
C11A N2A 1_555 1_555
C12A N1A 1_555 1_555
C13A N3A 1_555 1_555
C22A N4A 1_555 1_555
C23A C24A 1_555 1_555
C23A N4A 1_555 1_555
C24A N3A 1_555 1_555

#END
