
#######################################################################
#
#                 Cambridge Crystallographic Data Centre
#                                CCDC 
#
#######################################################################
#
# If this CIF has been generated from an entry in the Cambridge 
# Structural Database, then it will include bibliographic, chemical, 
# crystal, experimental, refinement or atomic coordinate data resulting 
# from the CCDC's data processing and validation procedures.
#
#######################################################################

data_JERLIC
_symmetry_cell_setting           monoclinic
_symmetry_space_group_name_H-M   'P 21'
_symmetry_Int_Tables_number      4
_space_group_name_Hall           'P 2yb'
loop_
_symmetry_equiv_pos_site_id
_symmetry_equiv_pos_as_xyz
1 x,y,z
2 -x,1/2+y,-z
_cell_length_a                   9.0837(6)
_cell_length_b                   9.3514(4)
_cell_length_c                   11.0831(8)
_cell_angle_alpha                90
_cell_angle_beta                 107.807(6)
_cell_angle_gamma                90
_cell_volume                     896.354
loop_
_atom_site_label
_atom_site_type_symbol
_atom_site_fract_x
_atom_site_fract_y
_atom_site_fract_z
Cu1 Cu -0.09650(3) 0.29629(3) -0.04779(2)
O1 O 0.1217(2) 0.2455(2) 0.02063(19)
O2 O 0.0506(2) 0.0255(2) 0.04882(19)
O3 O 0.5360(3) -0.0562(3) 0.1964(3)
O4 O 0.3149(2) -0.16504(19) 0.11493(19)
N1 N -0.0911(3) 0.2560(2) -0.2274(2)
N2 N -0.1113(2) 0.2947(4) -0.86942(17)
C1 C 0.1526(4) 0.1183(3) 0.0628(2)
C2 C 0.3204(3) 0.0966(3) 0.1394(3)
H1 H 0.3810 0.1571 0.1000
C3 C 0.3929(3) -0.0538(3) 0.1509(2)
C4 C 0.3411(3) 0.1602(3) 0.2711(3)
C5 C 0.4076(4) 0.2921(5) 0.3025(3)
H2 H 0.4424 0.3425 0.2442
C6 C 0.4235(5) 0.3516(5) 0.4224(5)
H3 H 0.4679 0.4414 0.4429
C7 C 0.3736(5) 0.2774(6) 0.5086(4)
H4 H 0.3864 0.3156 0.5886
C8 C 0.3050(5) 0.1473(5) 0.4772(4)
H5 H 0.2700 0.0973 0.5357
C9 C 0.2869(5) 0.0889(4) 0.3582(3)
H6 H 0.2379 0.0011 0.3369
C10 C -0.2118(4) 0.2044(3) -0.3184(3)
H7 H -0.2945 0.1666 -0.2960
C11 C -0.2190(4) 0.2048(3) -0.4453(3)
H8 H -0.3037 0.1650 -0.5058
C12 C -0.0994(3) 0.2649(3) -0.4814(2)
C13 C 0.0264(3) 0.3148(5) -0.3853(3)
H9 H 0.1107 0.3534 -0.4048
C14 C 0.0277(3) 0.3076(5) -0.2610(2)
H10 H 0.1146 0.3399 -0.1981
C15 C -0.1066(3) 0.2760(3) -0.6171(2)
C16 C -0.2034(4) 0.1916(3) -0.7095(3)
H11 H -0.2686 0.1262 -0.6883
C17 C -0.2036(4) 0.2041(4) -0.8343(3)
H12 H -0.2707 0.1470 -0.8957
C18 C -0.0180(4) 0.3772(3) -0.7811(3)
H13 H 0.0468 0.4409 -0.8047
C19 C -0.0136(4) 0.3721(4) -0.6554(3)
H14 H 0.0517 0.4330 -0.5966
Cu1A Cu 0.09650(3) -0.20371(3) 0.04779(2)
Cu1_2 Cu -0.09650(3) 0.29629(3) -1.04779(2)
O2A O -0.0506(2) 0.5255(2) -0.04882(19)
O4A O -0.3149(2) 0.33496(19) -0.11493(19)
N2_2 N -0.1113(2) 0.2947(4) 0.13058(17)
O5 O -0.3672(5) -0.0602(4) -0.0239(3)
O6 O 0.3908(6) 0.1234(6) -0.1805(6)
loop_
_geom_bond_atom_site_label_1
_geom_bond_atom_site_label_2
_geom_bond_site_symmetry_1
_geom_bond_site_symmetry_2
Cu1 O1 1_555 1_555
O1 C1 1_555 1_555
O2 C1 1_555 1_555
O3 C3 1_555 1_555
O4 C3 1_555 1_555
N1 Cu1 1_555 1_555
N2 C17 1_555 1_555
C1 C2 1_555 1_555
C2 H1 1_555 1_555
C3 C2 1_555 1_555
C4 C2 1_555 1_555
C5 C4 1_555 1_555
H2 C5 1_555 1_555
C6 C5 1_555 1_555
H3 C6 1_555 1_555
C7 C6 1_555 1_555
H4 C7 1_555 1_555
C8 C7 1_555 1_555
H5 C8 1_555 1_555
C9 C4 1_555 1_555
H6 C9 1_555 1_555
C10 N1 1_555 1_555
H7 C10 1_555 1_555
C11 C10 1_555 1_555
H8 C11 1_555 1_555
C12 C11 1_555 1_555
C13 C12 1_555 1_555
H9 C13 1_555 1_555
C14 N1 1_555 1_555
H10 C14 1_555 1_555
C15 C12 1_555 1_555
C16 C15 1_555 1_555
H11 C16 1_555 1_555
C17 C16 1_555 1_555
H12 C17 1_555 1_555
C18 N2 1_555 1_555
H13 C18 1_555 1_555
C19 C15 1_555 1_555
H14 C19 1_555 1_555
Cu1A O2 1_555 1_555
Cu1_2 N2 1_555 1_555
O2A Cu1 1_555 1_555
O4A Cu1 1_555 1_555
N2_2 Cu1 1_555 1_555
O4 Cu1A 1_555 1_555
C8 C9 1_555 1_555
C13 C14 1_555 1_555
C18 C19 1_555 1_555

#END
