
#######################################################################
#
#                 Cambridge Crystallographic Data Centre
#                                CCDC 
#
#######################################################################
#
# If this CIF has been generated from an entry in the Cambridge 
# Structural Database, then it will include bibliographic, chemical, 
# crystal, experimental, refinement or atomic coordinate data resulting 
# from the CCDC's data processing and validation procedures.
#
#######################################################################

data_JESCEQ
_symmetry_cell_setting           orthorhombic
_symmetry_space_group_name_H-M   'P c a 21'
_symmetry_Int_Tables_number      29
_space_group_name_Hall           'P 2c -2ac'
loop_
_symmetry_equiv_pos_site_id
_symmetry_equiv_pos_as_xyz
1 x,y,z
2 -x,-y,1/2+z
3 1/2+x,-y,z
4 1/2-x,y,1/2+z
_cell_length_a                   9.6214(19)
_cell_length_b                   5.6855(11)
_cell_length_c                   21.725(4)
_cell_angle_alpha                90
_cell_angle_beta                 90
_cell_angle_gamma                90
_cell_volume                     1188.41
loop_
_atom_site_label
_atom_site_type_symbol
_atom_site_fract_x
_atom_site_fract_y
_atom_site_fract_z
Co1 Co 1.16366(11) 0.50134(15) 0.04160(3)
Co2 Co 0.91133(12) -0.00580(14) 0.02251(3)
P1 P 0.94266(18) 0.4941(3) -0.04301(7)
P2 P 0.8056(3) -0.0004(3) -0.39176(9)
O1 O 1.0159(5) 0.2748(8) -0.0171(2)
O2 O 1.0120(5) 0.6975(8) -0.00649(19)
O3 O 0.7383(5) -0.2086(8) -0.42623(19)
O4 O 0.7323(5) 0.2236(7) -0.41629(19)
O5 O 0.7893(5) 0.4846(8) -0.0368(2)
O6 O 1.0221(5) 0.4904(7) 0.1186(2)
O7 O 0.7614(7) -0.0033(8) -0.0506(3)
O8 O 0.9636(6) 0.0085(7) -0.3986(2)
C1 C 0.7642(9) -0.0573(13) -0.3107(4)
H1 H 0.7972 -0.2140 -0.3008
H2 H 0.6638 -0.0599 -0.3068
C2 C 0.8188(4) 0.1051(7) -0.2631(2)
C3 C 0.9353(5) 0.0313(8) -0.2305(3)
H3 H 0.9760 -0.1132 -0.2394
C4 C 0.9912(5) 0.1734(9) -0.1847(3)
H4 H 1.0691 0.1241 -0.1630
C5 C 0.9305(6) 0.3894(9) -0.1714(3)
C6 C 0.8139(5) 0.4632(7) -0.2040(3)
H5 H 0.7733 0.6077 -0.1951
C7 C 0.7581(5) 0.3211(7) -0.2498(3)
H6 H 0.6802 0.3704 -0.2715
C8 C 0.9933(7) 0.5421(9) -0.1212(3)
H7 H 1.0934 0.5246 -0.1234
H8 H 0.9724 0.7046 -0.1312
Co1A Co 0.83634(11) -0.50134(15) -0.45840(3)
Co1A_2 Co 0.83634(11) 0.49866(15) -0.45840(3)
Co1B Co 0.66366(11) 0.49866(15) 0.04160(3)
Co2_2 Co 0.91133(12) 0.99420(14) 0.02251(3)
Co2C Co 0.58867(12) -0.00580(14) -0.47749(3)
Co2A Co 1.08867(12) 0.00580(14) -0.47749(3)
O2_2 O 1.0120(5) -0.3025(8) -0.00649(19)
O3A O 1.2617(5) 0.2086(8) 0.07377(19)
O3C O 0.7617(5) -0.2086(8) 0.07377(19)
O4A O 1.2677(5) 0.7764(7) 0.08371(19)
O4C O 0.7677(5) 0.2236(7) 0.08371(19)
O5B O 1.2893(5) 0.5154(8) -0.0368(2)
O8A O 1.0364(6) -0.0085(7) 0.1014(2)
loop_
_geom_bond_atom_site_label_1
_geom_bond_atom_site_label_2
_geom_bond_site_symmetry_1
_geom_bond_site_symmetry_2
Co1 O1 1_555 1_555
Co2 O1 1_555 1_555
P1 O1 1_555 1_555
P2 O3 1_555 1_555
O2 Co1 1_555 1_555
O3 Co1A 1_555 1_555
O4 P2 1_555 1_555
O5 P1 1_555 1_555
O6 Co1 1_555 1_555
O7 Co2 1_555 1_555
O8 P2 1_555 1_555
C1 P2 1_555 1_555
H1 C1 1_555 1_555
H2 C1 1_555 1_555
C2 C1 1_555 1_555
C3 C2 1_555 1_555
H3 C3 1_555 1_555
C4 C3 1_555 1_555
H4 C4 1_555 1_555
C5 C4 1_555 1_555
C6 C5 1_555 1_555
H5 C6 1_555 1_555
C7 C2 1_555 1_555
H6 C7 1_555 1_555
C8 P1 1_555 1_555
H7 C8 1_555 1_555
H8 C8 1_555 1_555
Co1A_2 O4 1_555 1_555
Co1B O5 1_555 1_555
Co2_2 O2 1_555 1_555
Co2C O3 1_555 1_555
Co2A O8 1_555 1_555
O2_2 Co2 1_555 1_555
O3A Co1 1_555 1_555
O3C Co2 1_555 1_555
O4A Co1 1_555 1_555
O4C Co2 1_555 1_555
O5B Co1 1_555 1_555
O8A Co2 1_555 1_555
P1 O2 1_555 1_555
O4 Co2C 1_555 1_555
C5 C8 1_555 1_555
C6 C7 1_555 1_555
Co1B O4C 1_555 1_555

#END
