
#######################################################################
#
#                 Cambridge Crystallographic Data Centre
#                                CCDC 
#
#######################################################################
#
# If this CIF has been generated from an entry in the Cambridge 
# Structural Database, then it will include bibliographic, chemical, 
# crystal, experimental, refinement or atomic coordinate data resulting 
# from the CCDC's data processing and validation procedures.
#
#######################################################################

data_JESDUG09
_symmetry_cell_setting           orthorhombic
_symmetry_space_group_name_H-M   'P n m a'
_symmetry_Int_Tables_number      62
_space_group_name_Hall           '-P 2ac 2n'
loop_
_symmetry_equiv_pos_site_id
_symmetry_equiv_pos_as_xyz
1 x,y,z
2 1/2-x,-y,1/2+z
3 1/2+x,1/2-y,1/2-z
4 -x,1/2+y,-z
5 -x,-y,-z
6 1/2+x,y,1/2-z
7 1/2-x,1/2+y,1/2+z
8 x,1/2-y,z
_cell_length_a                   12.9653(13)
_cell_length_b                   30.028(3)
_cell_length_c                   8.5444(9)
_cell_angle_alpha                90
_cell_angle_beta                 90
_cell_angle_gamma                90
_cell_volume                     3326.52
loop_
_atom_site_label
_atom_site_type_symbol
_atom_site_fract_x
_atom_site_fract_y
_atom_site_fract_z
C13 C 0.8501(5) 0.2500 0.6047(8)
C14 C 0.9785(5) 0.2500 0.7938(9)
N1 N 0.7715(5) 0.2500 0.5473(7)
N2 N 0.9451(5) 0.2500 0.6491(8)
N3 N 1.0228(4) 0.2500 0.9076(7)
Cu1 Cu 0.63661(7) 0.2500 0.44106(10)
Br1 Br 0.64566(7) 0.2500 0.16935(8)
N3B N 0.5228(4) 0.2500 0.5924(7)
Cu1B Cu 1.13661(7) 0.2500 1.05894(10)
C1 C 0.6402(3) -0.01821(13) 0.3589(5)
C2 C 0.5791(3) 0.01874(13) 0.3578(5)
C3 C 0.7778(3) -0.07824(13) 0.4102(5)
C4 C 0.7194(3) -0.09464(13) 0.2939(5)
C5 C 0.5051(3) 0.09771(13) 0.3867(5)
C6 C 0.4478(3) 0.07850(13) 0.2764(5)
C7 C 0.9103(4) -0.14882(18) 0.3756(6)
H1 H 0.9462 -0.1378 0.2795
H2 H 0.9587 -0.1694 0.4310
C8 C 0.8176(4) -0.17478(15) 0.3264(6)
H3 H 0.7783 -0.1836 0.4222
H4 H 0.8412 -0.2027 0.2736
C9 C 0.4199(7) 0.1779(2) 0.2995(15)
H5 H 0.3995 0.2084 0.3342
H6 H 0.4630 0.1813 0.2032
C10 C 0.3239(9) 0.1529(3) 0.2563(12)
H7 H 0.2813 0.1717 0.1848
H8 H 0.2826 0.1473 0.3531
S1 S 0.74511(8) -0.02553(3) 0.48248(13)
S2 S 0.61564(9) -0.06223(3) 0.23158(13)
S3 S 0.60036(8) 0.06483(3) 0.47649(13)
S4 S 0.47345(9) 0.02283(3) 0.23259(13)
S5 S 0.88480(10) -0.10215(5) 0.50074(17)
S6 S 0.73198(10) -0.14564(4) 0.19675(14)
S7 S 0.50148(13) 0.15255(4) 0.45533(16)
S8 S 0.34933(11) 0.10158(4) 0.16377(16)
C11? C 0.3930(15) 0.1725(7) 0.388(3)
H9? H 0.3346 0.1587 0.4470
H10? H 0.3911 0.2053 0.4079
C12? C 0.377(2) 0.1644(8) 0.217(3)
H11? H 0.4405 0.1743 0.1592
H12? H 0.3183 0.1831 0.1798
loop_
_geom_bond_atom_site_label_1
_geom_bond_atom_site_label_2
_geom_bond_site_symmetry_1
_geom_bond_site_symmetry_2
C1 C2 1_555 1_555
C2 S3 1_555 1_555
C3 C4 1_555 1_555
C4 S2 1_555 1_555
C5 C6 1_555 1_555
C6 S4 1_555 1_555
C7 H1 1_555 1_555
H2 C7 1_555 1_555
C8 C7 1_555 1_555
H3 C8 1_555 1_555
H4 C8 1_555 1_555
C9 H5 1_555 1_555
H6 C9 1_555 1_555
C10 C9 1_555 1_555
H7 C10 1_555 1_555
H8 C10 1_555 1_555
S1 C1 1_555 1_555
S2 C1 1_555 1_555
S3 C5 1_555 1_555
S4 C2 1_555 1_555
S5 C3 1_555 1_555
S6 C4 1_555 1_555
S7 C5 1_555 1_555
S8 C6 1_555 1_555
C13 N1 1_555 1_555
C14 N2 1_555 1_555
N1 Cu1 1_555 1_555
N2 C13 1_555 1_555
N3 C14 1_555 1_555
Cu1 Br1 1_555 1_555
N3B Cu1 1_555 1_555
Cu1B N3 1_555 1_555
C3 S1 1_555 1_555
C7 S5 1_555 1_555
C8 S6 1_555 1_555
C9 S7 1_555 1_555
C10 S8 1_555 1_555

#END
