
#######################################################################
#
#                 Cambridge Crystallographic Data Centre
#                                CCDC 
#
#######################################################################
#
# If this CIF has been generated from an entry in the Cambridge 
# Structural Database, then it will include bibliographic, chemical, 
# crystal, experimental, refinement or atomic coordinate data resulting 
# from the CCDC's data processing and validation procedures.
#
#######################################################################

data_JESDUG07
_symmetry_cell_setting           orthorhombic
_symmetry_space_group_name_H-M   'P n m a'
_symmetry_Int_Tables_number      62
_space_group_name_Hall           '-P 2ac 2n'
loop_
_symmetry_equiv_pos_site_id
_symmetry_equiv_pos_as_xyz
1 x,y,z
2 1/2-x,-y,1/2+z
3 1/2+x,1/2-y,1/2-z
4 -x,1/2+y,-z
5 -x,-y,-z
6 1/2+x,y,1/2-z
7 1/2-x,1/2+y,1/2+z
8 x,1/2-y,z
_cell_length_a                   12.9117(12)
_cell_length_b                   29.845(3)
_cell_length_c                   8.5178(8)
_cell_angle_alpha                90
_cell_angle_beta                 90
_cell_angle_gamma                90
_cell_volume                     3282.33
loop_
_atom_site_label
_atom_site_type_symbol
_atom_site_fract_x
_atom_site_fract_y
_atom_site_fract_z
C13 C 0.8459(5) 0.2500 0.6014(7)
C14 C 0.9741(4) 0.2500 0.7917(8)
N1 N 0.7661(4) 0.2500 0.5438(7)
N2 N 0.9415(4) 0.2500 0.6455(7)
N3 N 1.0166(4) 0.2500 0.9082(6)
Cu1 Cu 0.63001(6) 0.2500 0.43919(9)
Br1 Br 0.64186(6) 0.2500 0.16621(7)
N3B N 0.5166(4) 0.2500 0.5918(6)
Cu1B Cu 1.13001(6) 0.2500 1.06081(9)
C1 C 0.6413(3) -0.01828(12) 0.3600(5)
C2 C 0.5787(3) 0.01873(12) 0.3588(5)
C3 C 0.7805(3) -0.07829(13) 0.4098(5)
C4 C 0.7213(3) -0.09501(12) 0.2933(5)
C5 C 0.5027(3) 0.09800(12) 0.3880(5)
C6 C 0.4454(3) 0.07835(12) 0.2766(5)
C7 C 0.9140(4) -0.14923(16) 0.3757(6)
H1 H 0.9498 -0.1382 0.2790
H2 H 0.9628 -0.1698 0.4313
C8 C 0.8199(4) -0.17565(14) 0.3268(5)
H3 H 0.7800 -0.1841 0.4230
H4 H 0.8433 -0.2040 0.2750
C9 C 0.4159(5) 0.17837(18) 0.2995(8)
H5 H 0.3947 0.2091 0.3337
H6 H 0.4596 0.1818 0.2032
C10 C 0.3206(5) 0.15274(19) 0.2564(8)
H7 H 0.2771 0.1716 0.1854
H8 H 0.2796 0.1468 0.3538
S1 S 0.74645(7) -0.02544(3) 0.48390(12)
S2 S 0.61655(8) -0.06252(3) 0.23168(12)
S3 S 0.59877(8) 0.06521(3) 0.47844(12)
S4 S 0.47265(8) 0.02234(3) 0.23287(12)
S5 S 0.88812(9) -0.10214(4) 0.50085(15)
S6 S 0.73490(9) -0.14609(3) 0.19462(13)
S7 S 0.49700(11) 0.15312(4) 0.45686(14)
S8 S 0.34650(9) 0.10110(4) 0.16226(14)
C11? C 0.3871(15) 0.1726(6) 0.392(3)
H9? H 0.3289 0.1574 0.4487
H10? H 0.3828 0.2054 0.4153
C12? C 0.3753(16) 0.1651(6) 0.217(2)
H11? H 0.4404 0.1749 0.1631
H12? H 0.3174 0.1843 0.1771
loop_
_geom_bond_atom_site_label_1
_geom_bond_atom_site_label_2
_geom_bond_site_symmetry_1
_geom_bond_site_symmetry_2
C1 C2 1_555 1_555
C2 S3 1_555 1_555
C3 C4 1_555 1_555
C4 S2 1_555 1_555
C5 C6 1_555 1_555
C6 S4 1_555 1_555
C7 H1 1_555 1_555
H2 C7 1_555 1_555
C8 C7 1_555 1_555
H3 C8 1_555 1_555
H4 C8 1_555 1_555
C9 H5 1_555 1_555
H6 C9 1_555 1_555
C10 C9 1_555 1_555
H7 C10 1_555 1_555
H8 C10 1_555 1_555
S1 C1 1_555 1_555
S2 C1 1_555 1_555
S3 C5 1_555 1_555
S4 C2 1_555 1_555
S5 C3 1_555 1_555
S6 C4 1_555 1_555
S7 C5 1_555 1_555
S8 C6 1_555 1_555
C13 N1 1_555 1_555
C14 N2 1_555 1_555
N1 Cu1 1_555 1_555
N2 C13 1_555 1_555
N3 C14 1_555 1_555
Cu1 Br1 1_555 1_555
N3B Cu1 1_555 1_555
Cu1B N3 1_555 1_555
C3 S1 1_555 1_555
C7 S5 1_555 1_555
C8 S6 1_555 1_555
C9 S7 1_555 1_555
C10 S8 1_555 1_555

#END
