
#######################################################################
#
#                 Cambridge Crystallographic Data Centre
#                                CCDC 
#
#######################################################################
#
# If this CIF has been generated from an entry in the Cambridge 
# Structural Database, then it will include bibliographic, chemical, 
# crystal, experimental, refinement or atomic coordinate data resulting 
# from the CCDC's data processing and validation procedures.
#
#######################################################################

data_JESDIU
_symmetry_cell_setting           monoclinic
_symmetry_space_group_name_H-M   'P 21/c'
_symmetry_Int_Tables_number      14
_space_group_name_Hall           '-P 2ybc'
loop_
_symmetry_equiv_pos_site_id
_symmetry_equiv_pos_as_xyz
1 x,y,z
2 -x,1/2+y,1/2-z
3 -x,-y,-z
4 x,1/2-y,1/2+z
_cell_length_a                   13.805(7)
_cell_length_b                   10.966(2)
_cell_length_c                   19.037(8)
_cell_angle_alpha                90
_cell_angle_beta                 102.42(4)
_cell_angle_gamma                90
_cell_volume                     2814.48
loop_
_atom_site_label
_atom_site_type_symbol
_atom_site_fract_x
_atom_site_fract_y
_atom_site_fract_z
Cu1 Cu 0.0000 0.5000 0.5000
Cu2 Cu -0.5000 1.0000 0.5000
O1 O -0.0248(4) 0.4721(5) 0.5949(3)
O2 O 0.0338(4) 0.6698(5) 0.5205(3)
O3 O -0.4595(4) 1.1046(5) 0.4298(3)
O4 O -0.3890(4) 1.0486(5) 0.5755(3)
O5 O -0.1734(4) 0.5419(6) 0.4550(3)
O6 O -0.4211(6) 0.8115(7) 0.4725(4)
N1 N -0.2374(5) 0.6274(7) 0.4386(4)
N2 N -0.3564(6) 0.7548(7) 0.4465(4)
C1 C -0.0109(6) 0.5488(8) 0.6441(4)
C2 C 0.0236(6) 0.6658(8) 0.6433(5)
C3 C 0.0408(6) 0.7175(8) 0.5808(5)
C4 C -0.0359(8) 0.5027(12) 0.7142(4)
C5 C 0.0685(11) 0.8536(10) 0.5822(6)
C6 C -0.3903(7) 1.1792(9) 0.4427(5)
C7 C -0.3237(7) 1.1968(9) 0.5077(5)
C8 C -0.3290(8) 1.1306(10) 0.5680(5)
C9 C -0.3776(12) 1.2541(11) 0.3782(8)
C10 C -0.2525(15) 1.1545(18) 0.6363(9)
C11 C -0.2908(7) 0.6724(8) 0.4823(5)
C12 C -0.2556(7) 0.6924(9) 0.3685(5)
C13 C -0.3552(8) 0.7542(10) 0.3675(6)
C14 C -0.2825(9) 0.6358(11) 0.5583(6)
C15 C -0.3673(10) 0.5596(12) 0.5662(6)
C16 C -0.2608(10) 0.7386(12) 0.6098(6)
C17 C -0.2545(10) 0.6027(11) 0.3087(5)
C18 C -0.1696(9) 0.7829(11) 0.3749(7)
C19 C -0.4436(8) 0.6708(13) 0.3346(6)
C20 C -0.3720(11) 0.8789(10) 0.3360(6)
F1 F 0.0069(7) 0.4006(7) 0.7348(3)
F2 F -0.1315(5) 0.4820(7) 0.7049(3)
F3 F -0.0145(6) 0.5790(6) 0.7674(3)
F4 F -0.0110(7) 0.9205(6) 0.5770(5)
F5 F 0.1246(7) 0.8870(6) 0.6441(4)
F6 F 0.1099(6) 0.8859(6) 0.5318(4)
F7 F -0.4545(8) 1.3156(9) 0.3517(5)
F8 F -0.3676(7) 1.1860(8) 0.3254(4)
F9 F -0.3029(8) 1.3241(9) 0.3892(4)
F10 F -0.1801(8) 1.2194(12) 0.6311(5)
F11 F -0.2156(9) 1.0630(12) 0.6685(7)
F12 F -0.2894(9) 1.2067(20) 0.6826(7)
H1 H 0.0360 0.7124 0.6864
H2 H -0.2729 1.2563 0.5106
H3 H -0.2252 0.5859 0.5716
H4 H -0.3605 0.5372 0.6152
H5 H -0.3690 0.4882 0.5377
H6 H -0.4271 0.6041 0.5507
H7 H -0.2565 0.7092 0.6573
H8 H -0.3124 0.7974 0.5986
H9 H -0.1996 0.7752 0.6064
H10 H -0.2662 0.6447 0.2640
H11 H -0.3049 0.5434 0.3079
H12 H -0.1917 0.5636 0.3166
H13 H -0.1768 0.8280 0.3314
H14 H -0.1085 0.7396 0.3835
H15 H -0.1700 0.8373 0.4137
H16 H -0.4489 0.6648 0.2842
H17 H -0.5031 0.7044 0.3439
H18 H -0.4332 0.5920 0.3556
H19 H -0.3708 0.8759 0.2863
H20 H -0.3213 0.9321 0.3601
H21 H -0.4347 0.9082 0.3415
O1B O 0.0248(4) 0.5279(5) 0.4051(3)
O2B O -0.0338(4) 0.3302(5) 0.4795(3)
O5B O 0.1734(4) 0.4581(6) 0.5450(3)
O3B O -0.5405(4) 0.8954(5) 0.5702(3)
O4B O -0.6110(4) 0.9514(5) 0.4245(3)
O6B O -0.5789(6) 1.1885(7) 0.5275(4)
loop_
_geom_bond_atom_site_label_1
_geom_bond_atom_site_label_2
_geom_bond_site_symmetry_1
_geom_bond_site_symmetry_2
Cu1 O1 1_555 1_555
Cu2 O3 1_555 1_555
O1 C1 1_555 1_555
O2 Cu1 1_555 1_555
O3 C6 1_555 1_555
O4 Cu2 1_555 1_555
O5 Cu1 1_555 1_555
O6 Cu2 1_555 1_555
N1 O5 1_555 1_555
N2 O6 1_555 1_555
C1 C2 1_555 1_555
C2 C3 1_555 1_555
C3 O2 1_555 1_555
C4 C1 1_555 1_555
C5 C3 1_555 1_555
C6 C7 1_555 1_555
C7 C8 1_555 1_555
C8 O4 1_555 1_555
C9 C6 1_555 1_555
C10 C8 1_555 1_555
C11 N1 1_555 1_555
C12 N1 1_555 1_555
C13 N2 1_555 1_555
C14 C11 1_555 1_555
C15 C14 1_555 1_555
C16 C14 1_555 1_555
C17 C12 1_555 1_555
C18 C12 1_555 1_555
C19 C13 1_555 1_555
C20 C13 1_555 1_555
F1 C4 1_555 1_555
F2 C4 1_555 1_555
F3 C4 1_555 1_555
F4 C5 1_555 1_555
F5 C5 1_555 1_555
F6 C5 1_555 1_555
F7 C9 1_555 1_555
F8 C9 1_555 1_555
F9 C9 1_555 1_555
F10 C10 1_555 1_555
F11 C10 1_555 1_555
F12 C10 1_555 1_555
H1 C2 1_555 1_555
H2 C7 1_555 1_555
H3 C14 1_555 1_555
H4 C15 1_555 1_555
H5 C15 1_555 1_555
H6 C15 1_555 1_555
H7 C16 1_555 1_555
H8 C16 1_555 1_555
H9 C16 1_555 1_555
H10 C17 1_555 1_555
H11 C17 1_555 1_555
H12 C17 1_555 1_555
H13 C18 1_555 1_555
H14 C18 1_555 1_555
H15 C18 1_555 1_555
H16 C19 1_555 1_555
H17 C19 1_555 1_555
H18 C19 1_555 1_555
H19 C20 1_555 1_555
H20 C20 1_555 1_555
H21 C20 1_555 1_555
O1B Cu1 1_555 1_555
O2B Cu1 1_555 1_555
O5B Cu1 1_555 1_555
O3B Cu2 1_555 1_555
O4B Cu2 1_555 1_555
O6B Cu2 1_555 1_555
N2 C11 1_555 1_555
C12 C13 1_555 1_555

#END
