
#######################################################################
#
#                 Cambridge Crystallographic Data Centre
#                                CCDC 
#
#######################################################################
#
# If this CIF has been generated from an entry in the Cambridge 
# Structural Database, then it will include bibliographic, chemical, 
# crystal, experimental, refinement or atomic coordinate data resulting 
# from the CCDC's data processing and validation procedures.
#
#######################################################################

data_JESDUG
_symmetry_cell_setting           orthorhombic
_symmetry_space_group_name_H-M   'P n m a'
_symmetry_Int_Tables_number      62
_space_group_name_Hall           '-P 2ac 2n'
loop_
_symmetry_equiv_pos_site_id
_symmetry_equiv_pos_as_xyz
1 x,y,z
2 1/2-x,-y,1/2+z
3 1/2+x,1/2-y,1/2-z
4 -x,1/2+y,-z
5 -x,-y,-z
6 1/2+x,y,1/2-z
7 1/2-x,1/2+y,1/2+z
8 x,1/2-y,z
_cell_length_a                   12.942(3)
_cell_length_b                   30.016(4)
_cell_length_c                   8.539(3)
_cell_angle_alpha                90
_cell_angle_beta                 90
_cell_angle_gamma                90
_cell_volume                     3317.12
loop_
_atom_site_label
_atom_site_type_symbol
_atom_site_fract_x
_atom_site_fract_y
_atom_site_fract_z
Cu1 Cu 0.3647(2) 0.2500 0.5586(2)
Br1 Br 0.3556(2) 0.2500 0.8303(2)
N1 N 0.0566(12) 0.2500 0.354(2)
N2 N 0.2296(12) 0.2500 0.455(2)
N3 N -0.0219(11) 0.2500 0.091(2)
C11 C 0.1512(14) 0.2500 0.397(2)
C12 C 0.0215(12) 0.2500 0.207(2)
N3B N 0.4781(11) 0.2500 0.409(2)
Cu1B Cu -0.1353(2) 0.2500 -0.0586(2)
S1 S -0.0265(2) 0.52272(9) 0.2676(3)
S2 S 0.0998(2) 0.56472(8) 0.0233(3)
S3 S 0.1161(2) 0.43775(8) 0.2682(3)
S4 S 0.2455(2) 0.47437(9) 0.0174(3)
S5 S -0.1511(2) 0.60154(10) 0.3367(4)
S6 S 0.0009(3) 0.65259(9) 0.0454(4)
S7 S 0.2321(2) 0.35444(9) 0.3028(4)
S8 S 0.3847(2) 0.39789(10) -0.0017(4)
C1 C 0.0788(7) 0.5185(3) 0.1437(11)
C2 C 0.1397(7) 0.4819(3) 0.1410(10)
C3 C -0.0531(7) 0.5780(3) 0.2244(11)
C4 C 0.0042(7) 0.5979(3) 0.1158(12)
C5 C 0.2197(7) 0.4054(3) 0.2063(12)
C6 C 0.2781(7) 0.4217(3) 0.0922(12)
C7 C -0.1696(12) 0.6555(4) 0.251(2)
C8 C -0.0861(10) 0.6774(4) 0.196(2)
C9 C 0.3168(9) 0.3254(4) 0.1732(14)
C10 C 0.4103(9) 0.3515(4) 0.1252(13)
loop_
_geom_bond_atom_site_label_1
_geom_bond_atom_site_label_2
_geom_bond_site_symmetry_1
_geom_bond_site_symmetry_2
S1 C1 1_555 1_555
S2 C1 1_555 1_555
S3 C2 1_555 1_555
S4 C2 1_555 1_555
S5 C3 1_555 1_555
S6 C4 1_555 1_555
S7 C5 1_555 1_555
S8 C6 1_555 1_555
C1 C2 1_555 1_555
C3 S1 1_555 1_555
C4 S2 1_555 1_555
C5 S3 1_555 1_555
C6 S4 1_555 1_555
C7 S5 1_555 1_555
C8 S6 1_555 1_555
C9 S7 1_555 1_555
C10 S8 1_555 1_555
Cu1 Br1 1_555 1_555
N1 C11 1_555 1_555
N2 Cu1 1_555 1_555
N3 C12 1_555 1_555
C11 N2 1_555 1_555
C12 N1 1_555 1_555
N3B Cu1 1_555 1_555
Cu1B N3 1_555 1_555
C3 C4 1_555 1_555
C5 C6 1_555 1_555
C7 C8 1_555 1_555
C9 C10 1_555 1_555

#END
