
#######################################################################
#
#                 Cambridge Crystallographic Data Centre
#                                CCDC 
#
#######################################################################
#
# If this CIF has been generated from an entry in the Cambridge 
# Structural Database, then it will include bibliographic, chemical, 
# crystal, experimental, refinement or atomic coordinate data resulting 
# from the CCDC's data processing and validation procedures.
#
#######################################################################

data_JESDUG06
_symmetry_cell_setting           orthorhombic
_symmetry_space_group_name_H-M   'P n m a'
_symmetry_Int_Tables_number      62
_space_group_name_Hall           '-P 2ac 2n'
loop_
_symmetry_equiv_pos_site_id
_symmetry_equiv_pos_as_xyz
1 x,y,z
2 1/2-x,-y,1/2+z
3 1/2+x,1/2-y,1/2-z
4 -x,1/2+y,-z
5 -x,-y,-z
6 1/2+x,y,1/2-z
7 1/2-x,1/2+y,1/2+z
8 x,1/2-y,z
_cell_length_a                   12.8991(12)
_cell_length_b                   29.754(3)
_cell_length_c                   8.5025(8)
_cell_angle_alpha                90
_cell_angle_beta                 90
_cell_angle_gamma                90
_cell_volume                     3263.26
loop_
_atom_site_label
_atom_site_type_symbol
_atom_site_fract_x
_atom_site_fract_y
_atom_site_fract_z
C13 C 0.8445(5) 0.2500 0.5997(7)
C14 C 0.9724(4) 0.2500 0.7903(8)
N1 N 0.7635(4) 0.2500 0.5427(6)
N2 N 0.9404(4) 0.2500 0.6439(7)
N3 N 1.0140(4) 0.2500 0.9085(6)
Cu1 Cu 0.62733(6) 0.2500 0.43860(9)
Br1 Br 0.64027(6) 0.2500 0.16490(7)
N3B N 0.5140(4) 0.2500 0.5915(6)
Cu1B Cu 1.12733(6) 0.2500 1.06140(9)
C1 C 0.6414(3) -0.01828(12) 0.3604(5)
C2 C 0.5784(3) 0.01887(12) 0.3592(5)
C3 C 0.7817(3) -0.07818(13) 0.4092(5)
C4 C 0.7224(3) -0.09506(12) 0.2927(4)
C5 C 0.5013(3) 0.09810(13) 0.3880(5)
C6 C 0.4443(3) 0.07831(13) 0.2762(5)
C7 C 0.9153(3) -0.14954(15) 0.3761(5)
H1 H 0.9515 -0.1388 0.2790
H2 H 0.9637 -0.1702 0.4325
C8 C 0.8205(4) -0.17589(14) 0.3275(5)
H3 H 0.7801 -0.1839 0.4239
H4 H 0.8433 -0.2046 0.2768
C9 C 0.4140(5) 0.17860(17) 0.2992(7)
H5 H 0.3927 0.2095 0.3329
H6 H 0.4577 0.1819 0.2027
C10 C 0.3183(5) 0.15251(17) 0.2571(7)
H7 H 0.2739 0.1714 0.1868
H8 H 0.2780 0.1463 0.3552
S1 S 0.74697(7) -0.02528(3) 0.48426(12)
S2 S 0.61681(8) -0.06275(3) 0.23194(12)
S3 S 0.59773(8) 0.06547(3) 0.47895(12)
S4 S 0.47211(8) 0.02202(3) 0.23292(12)
S5 S 0.89005(9) -0.10185(4) 0.50013(14)
S6 S 0.73651(8) -0.14625(3) 0.19340(12)
S7 S 0.49450(10) 0.15339(3) 0.45716(13)
S8 S 0.34513(9) 0.10076(4) 0.16114(13)
C11? C 0.3857(18) 0.1727(8) 0.392(3)
H9? H 0.3275 0.1577 0.4489
H10? H 0.3818 0.2056 0.4145
C12? C 0.3723(18) 0.1654(7) 0.218(3)
H11? H 0.4364 0.1757 0.1625
H12? H 0.3132 0.1842 0.1800
loop_
_geom_bond_atom_site_label_1
_geom_bond_atom_site_label_2
_geom_bond_site_symmetry_1
_geom_bond_site_symmetry_2
C1 C2 1_555 1_555
C2 S3 1_555 1_555
C3 C4 1_555 1_555
C4 S2 1_555 1_555
C5 C6 1_555 1_555
C6 S4 1_555 1_555
C7 H1 1_555 1_555
H2 C7 1_555 1_555
C8 C7 1_555 1_555
H3 C8 1_555 1_555
H4 C8 1_555 1_555
C9 H5 1_555 1_555
H6 C9 1_555 1_555
C10 C9 1_555 1_555
H7 C10 1_555 1_555
H8 C10 1_555 1_555
S1 C1 1_555 1_555
S2 C1 1_555 1_555
S3 C5 1_555 1_555
S4 C2 1_555 1_555
S5 C3 1_555 1_555
S6 C4 1_555 1_555
S7 C5 1_555 1_555
S8 C6 1_555 1_555
C13 N1 1_555 1_555
C14 N2 1_555 1_555
N1 Cu1 1_555 1_555
N2 C13 1_555 1_555
N3 C14 1_555 1_555
Cu1 Br1 1_555 1_555
N3B Cu1 1_555 1_555
Cu1B N3 1_555 1_555
C3 S1 1_555 1_555
C7 S5 1_555 1_555
C8 S6 1_555 1_555
C9 S7 1_555 1_555
C10 S8 1_555 1_555

#END
