
#######################################################################
#
#                 Cambridge Crystallographic Data Centre
#                                CCDC 
#
#######################################################################
#
# If this CIF has been generated from an entry in the Cambridge 
# Structural Database, then it will include bibliographic, chemical, 
# crystal, experimental, refinement or atomic coordinate data resulting 
# from the CCDC's data processing and validation procedures.
#
#######################################################################

data_JESDUG08
_symmetry_cell_setting           orthorhombic
_symmetry_space_group_name_H-M   'P n m a'
_symmetry_Int_Tables_number      62
_space_group_name_Hall           '-P 2ac 2n'
loop_
_symmetry_equiv_pos_site_id
_symmetry_equiv_pos_as_xyz
1 x,y,z
2 1/2-x,-y,1/2+z
3 1/2+x,1/2-y,1/2-z
4 -x,1/2+y,-z
5 -x,-y,-z
6 1/2+x,y,1/2-z
7 1/2-x,1/2+y,1/2+z
8 x,1/2-y,z
_cell_length_a                   12.9342(13)
_cell_length_b                   29.937(3)
_cell_length_c                   8.5325(8)
_cell_angle_alpha                90
_cell_angle_beta                 90
_cell_angle_gamma                90
_cell_volume                     3303.88
loop_
_atom_site_label
_atom_site_type_symbol
_atom_site_fract_x
_atom_site_fract_y
_atom_site_fract_z
C13 C 0.8479(5) 0.2500 0.6028(8)
C14 C 0.9764(5) 0.2500 0.7927(8)
N1 N 0.7686(4) 0.2500 0.5456(7)
N2 N 0.9434(5) 0.2500 0.6474(8)
N3 N 1.0197(4) 0.2500 0.9081(7)
Cu1 Cu 0.63309(7) 0.2500 0.44002(9)
Br1 Br 0.64360(7) 0.2500 0.16764(8)
N3B N 0.5197(4) 0.2500 0.5919(7)
Cu1B Cu 1.13309(7) 0.2500 1.05998(9)
C1 C 0.6409(3) -0.01823(12) 0.3597(5)
C2 C 0.5789(3) 0.01877(12) 0.3582(5)
C3 C 0.7793(3) -0.07834(13) 0.4101(5)
C4 C 0.7204(3) -0.09488(12) 0.2936(5)
C5 C 0.5041(3) 0.09791(12) 0.3875(5)
C6 C 0.4466(3) 0.07845(13) 0.2766(5)
C7 C 0.9122(4) -0.14909(17) 0.3758(6)
H1 H 0.9481 -0.1380 0.2795
H2 H 0.9609 -0.1697 0.4313
C8 C 0.8188(4) -0.17527(14) 0.3267(5)
H3 H 0.7792 -0.1840 0.4226
H4 H 0.8423 -0.2034 0.2743
C9 C 0.4184(6) 0.1780(2) 0.2994(12)
H5 H 0.3980 0.2088 0.3332
H6 H 0.4619 0.1812 0.2031
C10 C 0.3216(8) 0.1528(2) 0.2562(10)
H7 H 0.2786 0.1717 0.1849
H8 H 0.2804 0.1470 0.3534
S1 S 0.74590(8) -0.02552(3) 0.48333(12)
S2 S 0.61617(8) -0.06236(3) 0.23154(12)
S3 S 0.59964(8) 0.06501(3) 0.47765(12)
S4 S 0.47310(8) 0.02261(3) 0.23274(13)
S5 S 0.88641(10) -0.10225(4) 0.50104(16)
S6 S 0.73344(9) -0.14589(4) 0.19571(13)
S7 S 0.49923(12) 0.15283(4) 0.45629(15)
S8 S 0.34787(10) 0.10136(4) 0.16314(15)
C11? C 0.3902(15) 0.1728(7) 0.390(3)
H9? H 0.3318 0.1589 0.4486
H10? H 0.3882 0.2057 0.4095
C12? C 0.375(2) 0.1646(7) 0.217(2)
H11? H 0.4379 0.1748 0.1599
H12? H 0.3153 0.1832 0.1803
loop_
_geom_bond_atom_site_label_1
_geom_bond_atom_site_label_2
_geom_bond_site_symmetry_1
_geom_bond_site_symmetry_2
C1 C2 1_555 1_555
C2 S3 1_555 1_555
C3 C4 1_555 1_555
C4 S2 1_555 1_555
C5 C6 1_555 1_555
C6 S4 1_555 1_555
C7 H1 1_555 1_555
H2 C7 1_555 1_555
C8 C7 1_555 1_555
H3 C8 1_555 1_555
H4 C8 1_555 1_555
C9 H5 1_555 1_555
H6 C9 1_555 1_555
C10 C9 1_555 1_555
H7 C10 1_555 1_555
H8 C10 1_555 1_555
S1 C1 1_555 1_555
S2 C1 1_555 1_555
S3 C5 1_555 1_555
S4 C2 1_555 1_555
S5 C3 1_555 1_555
S6 C4 1_555 1_555
S7 C5 1_555 1_555
S8 C6 1_555 1_555
C13 N1 1_555 1_555
C14 N2 1_555 1_555
N1 Cu1 1_555 1_555
N2 C13 1_555 1_555
N3 C14 1_555 1_555
Cu1 Br1 1_555 1_555
N3B Cu1 1_555 1_555
Cu1B N3 1_555 1_555
C3 S1 1_555 1_555
C7 S5 1_555 1_555
C8 S6 1_555 1_555
C9 S7 1_555 1_555
C10 S8 1_555 1_555

#END
