
#######################################################################
#
#                 Cambridge Crystallographic Data Centre
#                                CCDC 
#
#######################################################################
#
# If this CIF has been generated from an entry in the Cambridge 
# Structural Database, then it will include bibliographic, chemical, 
# crystal, experimental, refinement or atomic coordinate data resulting 
# from the CCDC's data processing and validation procedures.
#
#######################################################################

data_JESDUG01
_symmetry_cell_setting           orthorhombic
_symmetry_space_group_name_H-M   'P n m a'
_symmetry_Int_Tables_number      62
_space_group_name_Hall           '-P 2ac 2n'
loop_
_symmetry_equiv_pos_site_id
_symmetry_equiv_pos_as_xyz
1 x,y,z
2 1/2-x,-y,1/2+z
3 1/2+x,1/2-y,1/2-z
4 -x,1/2+y,-z
5 -x,-y,-z
6 1/2+x,y,1/2-z
7 1/2-x,1/2+y,1/2+z
8 x,1/2-y,z
_cell_length_a                   12.871(5)
_cell_length_b                   29.548(9)
_cell_length_c                   8.466(6)
_cell_angle_alpha                90
_cell_angle_beta                 90
_cell_angle_gamma                90
_cell_volume                     3219.72
loop_
_atom_site_label
_atom_site_type_symbol
_atom_site_fract_x
_atom_site_fract_y
_atom_site_fract_z
Cu1 Cu 0.37866(8) 0.2500 0.56238(12)
Br1 Br 0.36329(7) 0.2500 0.83741(10)
N1 N 0.0619(6) 0.2500 0.3588(8)
N2 N 0.2418(6) 0.2500 0.4598(8)
N3 N 0.4914(6) 0.2500 0.4102(9)
C11 C 0.1587(7) 0.2500 0.4053(10)
C12 C 0.5319(7) 0.2500 0.2882(11)
C12B C 0.0319(7) 0.2500 0.2118(11)
N1B N 0.5619(6) 0.2500 0.1412(8)
N3B N -0.0086(6) 0.2500 0.0898(9)
C11B C 0.6587(7) 0.2500 0.0947(10)
Cu1B Cu -0.12134(8) 0.2500 -0.06238(12)
N2B N 0.7418(6) 0.2500 0.0402(8)
Br1B Br -0.13671(7) 0.2500 -0.33741(10)
N2B_2 N -0.2582(6) 0.2500 0.0402(8)
Cu1B_2 Cu 0.87866(8) 0.2500 -0.06238(12)
S1 S -0.02913(12) 0.52113(5) 0.2672(2)
S2 S 0.09551(11) 0.56588(5) 0.0206(2)
S3 S 0.11732(12) 0.43666(5) 0.2668(2)
S4 S 0.24801(11) 0.47512(5) 0.0156(2)
S5 S -0.15799(12) 0.59979(5) 0.3415(2)
S6 S -0.01103(13) 0.65393(5) 0.0425(2)
S7 S 0.24048(12) 0.35347(5) 0.3092(2)
S8 S 0.39469(12) 0.39913(5) 0.0019(2)
C1 C 0.0774(5) 0.5187(2) 0.1403(7)
C2 C 0.1410(5) 0.4816(2) 0.1389(7)
C3 C -0.0582(5) 0.5779(2) 0.2234(7)
C4 C -0.0027(5) 0.5983(2) 0.1114(7)
C5 C 0.2252(4) 0.4050(2) 0.2093(7)
C6 C 0.2848(4) 0.4221(2) 0.0914(7)
C7 C -0.1859(5) 0.6525(2) 0.2431(8)
C8 C -0.0912(5) 0.6793(2) 0.1977(8)
C9 C 0.3230(5) 0.3233(2) 0.1699(7)
C10 C 0.4196(5) 0.3497(2) 0.1233(7)
H1 H -0.2294 0.6705 0.3103
H2 H -0.2244 0.6461 0.1482
H3 H -0.1123 0.7088 0.1653
H4 H -0.0492 0.6826 0.2918
H5 H 0.2841 0.3172 0.0765
H6 H 0.3434 0.2952 0.2164
H7 H 0.4536 0.3596 0.2194
H8 H 0.4662 0.3301 0.0690
loop_
_geom_bond_atom_site_label_1
_geom_bond_atom_site_label_2
_geom_bond_site_symmetry_1
_geom_bond_site_symmetry_2
S1 C1 1_555 1_555
S2 C1 1_555 1_555
S3 C2 1_555 1_555
S4 C2 1_555 1_555
S5 C3 1_555 1_555
S6 C4 1_555 1_555
S7 C5 1_555 1_555
S8 C6 1_555 1_555
C1 C2 1_555 1_555
C3 S1 1_555 1_555
C4 S2 1_555 1_555
C5 S3 1_555 1_555
C6 S4 1_555 1_555
C7 S5 1_555 1_555
C8 S6 1_555 1_555
C9 S7 1_555 1_555
C10 S8 1_555 1_555
H1 C7 1_555 1_555
H2 C7 1_555 1_555
H3 C8 1_555 1_555
H4 C8 1_555 1_555
H5 C9 1_555 1_555
H6 C9 1_555 1_555
H7 C10 1_555 1_555
H8 C10 1_555 1_555
Cu1 Br1 1_555 1_555
N1 C11 1_555 1_555
N2 Cu1 1_555 1_555
N3 Cu1 1_555 1_555
C11 N2 1_555 1_555
C12 N3 1_555 1_555
C12B N1 1_555 1_555
N1B C12 1_555 1_555
N3B C12B 1_555 1_555
C11B N1B 1_555 1_555
Cu1B N3B 1_555 1_555
N2B C11B 1_555 1_555
Br1B Cu1B 1_555 1_555
N2B_2 Cu1B 1_555 1_555
Cu1B_2 N2B 1_555 1_555
C3 C4 1_555 1_555
C5 C6 1_555 1_555
C7 C8 1_555 1_555
C9 C10 1_555 1_555

#END
