
#######################################################################
#
#                 Cambridge Crystallographic Data Centre
#                                CCDC 
#
#######################################################################
#
# If this CIF has been generated from an entry in the Cambridge 
# Structural Database, then it will include bibliographic, chemical, 
# crystal, experimental, refinement or atomic coordinate data resulting 
# from the CCDC's data processing and validation procedures.
#
#######################################################################

data_JESDUG04
_symmetry_cell_setting           orthorhombic
_symmetry_space_group_name_H-M   'P n m a'
_symmetry_Int_Tables_number      62
_space_group_name_Hall           '-P 2ac 2n'
loop_
_symmetry_equiv_pos_site_id
_symmetry_equiv_pos_as_xyz
1 x,y,z
2 1/2-x,-y,1/2+z
3 1/2+x,1/2-y,1/2-z
4 -x,1/2+y,-z
5 -x,-y,-z
6 1/2+x,y,1/2-z
7 1/2-x,1/2+y,1/2+z
8 x,1/2-y,z
_cell_length_a                   12.9332(5)
_cell_length_b                   29.8053(15)
_cell_length_c                   8.5306(3)
_cell_angle_alpha                90
_cell_angle_beta                 90
_cell_angle_gamma                90
_cell_volume                     3288.36
loop_
_atom_site_label
_atom_site_type_symbol
_atom_site_fract_x
_atom_site_fract_y
_atom_site_fract_z
Br1 Br 0.35999(4) 0.2500 0.83432(5)
Cu1 Cu 0.37249(4) 0.2500 0.56097(6)
N1 N 0.0592(3) 0.2500 0.3557(5)
N2 N 0.2357(3) 0.2500 0.4576(4)
N3 N -0.0143(3) 0.2500 0.0922(4)
C11 C 0.1546(3) 0.2500 0.4006(5)
C12 C 0.0273(3) 0.2500 0.2109(5)
Cu1B Cu -0.12751(4) 0.2500 -0.06097(6)
N3B N 0.4857(3) 0.2500 0.4078(4)
S1 S -0.02765(6) 0.52211(2) 0.26728(8)
S2 S 0.09782(5) 0.56539(2) 0.02136(8)
S3 S 0.11694(5) 0.43729(2) 0.26808(8)
S4 S 0.24672(5) 0.47467(2) 0.01605(8)
S5 S -0.15429(6) 0.60085(3) 0.33899(9)
S6 S -0.00516(7) 0.65334(2) 0.04272(9)
S7 S 0.23611(6) 0.35374(2) 0.30643(8)
S8 S 0.38965(6) 0.39821(3) -0.00002(10)
C1 C 0.0786(2) 0.51889(9) 0.1411(3)
C2 C 0.1407(2) 0.48168(9) 0.1400(3)
C3 C -0.0557(2) 0.57829(9) 0.2239(3)
C4 C 0.0016(2) 0.59812(9) 0.1112(3)
C5 C 0.2221(2) 0.40484(9) 0.2071(3)
C6 C 0.2816(2) 0.42187(9) 0.0907(3)
C7 C -0.1799(3) 0.65276(12) 0.2437(5)
H1 H -0.2218 0.6468 0.1488
H2 H -0.2219 0.6717 0.3146
C8 C -0.0870(3) 0.67811(12) 0.1973(5)
H3 H -0.0437 0.6825 0.2918
H4 H -0.1093 0.7082 0.1616
C9 C 0.3198(3) 0.32400(10) 0.1718(3)
H5 H 0.3423 0.2956 0.2216
H6 H 0.2797 0.3161 0.0768
C10 C 0.4150(2) 0.35036(11) 0.1227(4)
H7 H 0.4624 0.3299 0.0662
H8 H 0.4512 0.3607 0.2183
loop_
_geom_bond_atom_site_label_1
_geom_bond_atom_site_label_2
_geom_bond_site_symmetry_1
_geom_bond_site_symmetry_2
S1 C1 1_555 1_555
S2 C1 1_555 1_555
S3 C2 1_555 1_555
S4 C2 1_555 1_555
S5 C3 1_555 1_555
S6 C4 1_555 1_555
S7 C5 1_555 1_555
S8 C6 1_555 1_555
C1 C2 1_555 1_555
C3 S1 1_555 1_555
C4 S2 1_555 1_555
C5 S3 1_555 1_555
C6 S4 1_555 1_555
C7 S5 1_555 1_555
H1 C7 1_555 1_555
H2 C7 1_555 1_555
C8 S6 1_555 1_555
H3 C8 1_555 1_555
H4 C8 1_555 1_555
C9 S7 1_555 1_555
H5 C9 1_555 1_555
H6 C9 1_555 1_555
C10 S8 1_555 1_555
H7 C10 1_555 1_555
H8 C10 1_555 1_555
Br1 Cu1 1_555 1_555
Cu1 N2 1_555 1_555
N1 C11 1_555 1_555
N2 C11 1_555 1_555
N3 C12 1_555 1_555
C12 N1 1_555 1_555
Cu1B N3 1_555 1_555
N3B Cu1 1_555 1_555
C3 C4 1_555 1_555
C5 C6 1_555 1_555
C7 C8 1_555 1_555
C9 C10 1_555 1_555

#END
