
#######################################################################
#
#                 Cambridge Crystallographic Data Centre
#                                CCDC 
#
#######################################################################
#
# If this CIF has been generated from an entry in the Cambridge 
# Structural Database, then it will include bibliographic, chemical, 
# crystal, experimental, refinement or atomic coordinate data resulting 
# from the CCDC's data processing and validation procedures.
#
#######################################################################

data_JESDUG05
_symmetry_cell_setting           orthorhombic
_symmetry_space_group_name_H-M   'P n m a'
_symmetry_Int_Tables_number      62
_space_group_name_Hall           '-P 2ac 2n'
loop_
_symmetry_equiv_pos_site_id
_symmetry_equiv_pos_as_xyz
1 x,y,z
2 1/2-x,-y,1/2+z
3 1/2+x,1/2-y,1/2-z
4 -x,1/2+y,-z
5 -x,-y,-z
6 1/2+x,y,1/2-z
7 1/2-x,1/2+y,1/2+z
8 x,1/2-y,z
_cell_length_a                   12.8965(12)
_cell_length_b                   29.651(3)
_cell_length_c                   8.4826(8)
_cell_angle_alpha                90
_cell_angle_beta                 90
_cell_angle_gamma                90
_cell_volume                     3243.7
loop_
_atom_site_label
_atom_site_type_symbol
_atom_site_fract_x
_atom_site_fract_y
_atom_site_fract_z
C13 C 0.8430(5) 0.2500 0.5980(7)
C14 C 0.9709(4) 0.2500 0.7899(7)
N1 N 0.7616(4) 0.2500 0.5415(6)
N2 N 0.9391(4) 0.2500 0.6426(6)
N3 N 1.0118(4) 0.2500 0.9087(6)
Cu1 Cu 0.62496(6) 0.2500 0.43823(8)
Br1 Br 0.63894(5) 0.2500 0.16373(7)
N3B N 0.5118(4) 0.2500 0.5913(6)
Cu1B Cu 1.12496(6) 0.2500 1.06177(8)
C1 C 0.6411(3) -0.01832(12) 0.3606(4)
C2 C 0.5779(3) 0.01883(13) 0.3592(5)
C3 C 0.7832(3) -0.07791(13) 0.4082(5)
C4 C 0.7235(3) -0.09508(12) 0.2918(4)
C5 C 0.4996(3) 0.09818(13) 0.3878(5)
C6 C 0.4430(3) 0.07807(12) 0.2754(5)
C7 C 0.9171(3) -0.14981(15) 0.3760(5)
H1 H 0.9534 -0.1395 0.2783
H2 H 0.9652 -0.1705 0.4335
C8 C 0.8213(3) -0.17613(13) 0.3285(5)
H3 H 0.7806 -0.1835 0.4255
H4 H 0.8434 -0.2052 0.2793
C9 C 0.4118(4) 0.17897(15) 0.2999(6)
H5 H 0.3901 0.2098 0.3340
H6 H 0.4554 0.1824 0.2031
C10 C 0.3159(4) 0.15227(15) 0.2579(6)
H7 H 0.2706 0.1711 0.1886
H8 H 0.2764 0.1456 0.3566
S1 S 0.74739(7) -0.02501(3) 0.48431(11)
S2 S 0.61684(7) -0.06304(3) 0.23254(11)
S3 S 0.59656(7) 0.06576(3) 0.47911(11)
S4 S 0.47142(8) 0.02157(3) 0.23303(12)
S5 S 0.89219(8) -0.10130(4) 0.49882(13)
S6 S 0.73823(8) -0.14636(3) 0.19205(12)
S7 S 0.49169(9) 0.15366(3) 0.45685(13)
S8 S 0.34368(8) 0.10031(4) 0.15946(13)
C11? C 0.385(3) 0.1730(12) 0.392(5)
H9? H 0.3261 0.1583 0.4501
H10? H 0.3813 0.2061 0.4133
C12? C 0.371(3) 0.1652(11) 0.221(4)
H11? H 0.4343 0.1759 0.1646
H12? H 0.3112 0.1841 0.1831
loop_
_geom_bond_atom_site_label_1
_geom_bond_atom_site_label_2
_geom_bond_site_symmetry_1
_geom_bond_site_symmetry_2
C1 C2 1_555 1_555
C2 S3 1_555 1_555
C3 C4 1_555 1_555
C4 S2 1_555 1_555
C5 C6 1_555 1_555
C6 S4 1_555 1_555
C7 H1 1_555 1_555
H2 C7 1_555 1_555
C8 C7 1_555 1_555
H3 C8 1_555 1_555
H4 C8 1_555 1_555
C9 H5 1_555 1_555
H6 C9 1_555 1_555
C10 C9 1_555 1_555
H7 C10 1_555 1_555
H8 C10 1_555 1_555
S1 C1 1_555 1_555
S2 C1 1_555 1_555
S3 C5 1_555 1_555
S4 C2 1_555 1_555
S5 C3 1_555 1_555
S6 C4 1_555 1_555
S7 C5 1_555 1_555
S8 C6 1_555 1_555
C13 N1 1_555 1_555
C14 N2 1_555 1_555
N1 Cu1 1_555 1_555
N2 C13 1_555 1_555
N3 C14 1_555 1_555
Cu1 Br1 1_555 1_555
N3B Cu1 1_555 1_555
Cu1B N3 1_555 1_555
C3 S1 1_555 1_555
C7 S5 1_555 1_555
C8 S6 1_555 1_555
C9 S7 1_555 1_555
C10 S8 1_555 1_555

#END
