
#######################################################################
#
#                 Cambridge Crystallographic Data Centre
#                                CCDC 
#
#######################################################################
#
# If this CIF has been generated from an entry in the Cambridge 
# Structural Database, then it will include bibliographic, chemical, 
# crystal, experimental, refinement or atomic coordinate data resulting 
# from the CCDC's data processing and validation procedures.
#
#######################################################################

data_JESPUT
_symmetry_cell_setting           monoclinic
_symmetry_space_group_name_H-M   'P 21/c'
_symmetry_Int_Tables_number      14
_space_group_name_Hall           '-P 2ybc'
loop_
_symmetry_equiv_pos_site_id
_symmetry_equiv_pos_as_xyz
1 x,y,z
2 -x,1/2+y,1/2-z
3 -x,-y,-z
4 x,1/2-y,1/2+z
_cell_length_a                   18.671(4)
_cell_length_b                   7.7027(15)
_cell_length_c                   14.002(3)
_cell_angle_alpha                90
_cell_angle_beta                 90.99(3)
_cell_angle_gamma                90
_cell_volume                     2013.43
loop_
_atom_site_label
_atom_site_type_symbol
_atom_site_fract_x
_atom_site_fract_y
_atom_site_fract_z
Ba1 Ba 0.02667(2) 0.73040(5) 0.68705(3)
Cl1 Cl 0.21027(10) 0.7739(2) 0.75017(13)
Cl2 Cl 0.43640(11) 0.6487(3) 0.52774(18)
Cl3 Cl 0.33276(12) 0.2678(3) 0.47834(14)
Cl4 Cl 0.53371(12) -0.0288(4) 0.70151(19)
O2 O -0.0546(3) 0.4275(7) 0.6431(3)
O3 O 0.0355(2) 1.0906(6) 0.6440(3)
O4 O 0.0144(3) 1.2253(6) 0.5039(3)
O5 O 0.1450(3) 0.9176(6) 0.5804(3)
O6 O 0.1287(3) 0.4743(6) 0.6235(3)
O7 O 0.0918(2) 0.4185(6) 0.7698(3)
O8 O 0.2456(3) 0.2688(7) 0.6474(4)
C1 C 0.0498(3) 1.1258(8) 0.5590(4)
C2 C 0.1148(4) 1.0435(8) 0.5149(4)
C3 C 0.2122(4) 0.8572(8) 0.5628(5)
C4 C 0.2497(4) 0.7800(8) 0.6393(5)
C5 C 0.3168(4) 0.7121(9) 0.6278(6)
C6 C 0.3497(4) 0.7239(10) 0.5415(6)
C7 C 0.3146(4) 0.8028(10) 0.4647(6)
C8 C 0.2462(4) 0.8679(9) 0.4761(5)
C9 C 0.1351(3) 0.4004(8) 0.7015(5)
C10 C 0.1985(4) 0.2840(9) 0.7263(5)
C11 C 0.3106(4) 0.1936(9) 0.6653(5)
C12 C 0.3586(4) 0.1880(9) 0.5893(5)
C13 C 0.4264(4) 0.1197(10) 0.6003(5)
C14 C 0.4465(4) 0.0540(10) 0.6889(6)
C15 C 0.4014(4) 0.0525(10) 0.7619(6)
C16 C 0.3330(4) 0.1210(9) 0.7511(5)
H3 H -0.0974(15) 0.449(11) 0.625(5)
H4 H -0.031(3) 0.387(11) 0.597(3)
H5 H 0.1013 0.9871 0.4553
H6 H 0.1502 1.1320 0.5012
H7 H 0.3401 0.6578 0.6788
H8 H 0.3370 0.8119 0.4061
H9 H 0.2226 0.9197 0.4244
H10 H 0.2245 0.3319 0.7808
H11 H 0.1813 0.1697 0.7438
H12 H 0.4579 0.1177 0.5495
H13 H 0.4160 0.0053 0.8202
H14 H 0.3019 0.1180 0.8022
Ba1A Ba -0.02667(2) 0.23040(5) 0.81295(3)
Ba1A_2 Ba -0.02667(2) 1.23040(5) 0.81295(3)
Ba1B Ba -0.02667(2) 1.26960(5) 0.31295(3)
O2A O 0.0546(3) 0.9275(7) 0.8569(3)
O3A O -0.0355(2) 0.5906(6) 0.8560(3)
O4B O -0.0144(3) 0.7747(6) 0.4961(3)
O7A O -0.0918(2) 0.9185(6) 0.7302(3)
H3A H 0.0974(15) 0.949(11) 0.875(5)
H4A H 0.031(3) 0.887(11) 0.903(3)
O1 O 0.1776(3) 0.4641(8) 0.4433(4)
H1 H 0.159(4) 0.458(13) 0.498(3)
H2 H 0.2219(14) 0.488(13) 0.449(5)
loop_
_geom_bond_atom_site_label_1
_geom_bond_atom_site_label_2
_geom_bond_site_symmetry_1
_geom_bond_site_symmetry_2
Ba1 O2 1_555 1_555
Cl1 C4 1_555 1_555
Cl2 C6 1_555 1_555
Cl3 C12 1_555 1_555
Cl4 C14 1_555 1_555
O1 H1 1_555 1_555
O2 H3 1_555 1_555
O3 Ba1 1_555 1_555
O4 C1 1_555 1_555
O5 Ba1 1_555 1_555
O6 Ba1 1_555 1_555
O7 Ba1 1_555 1_555
O8 C10 1_555 1_555
C1 O3 1_555 1_555
C2 O5 1_555 1_555
C3 O5 1_555 1_555
C4 C3 1_555 1_555
C5 C4 1_555 1_555
C6 C5 1_555 1_555
C7 C6 1_555 1_555
C8 C3 1_555 1_555
C9 O6 1_555 1_555
C10 C9 1_555 1_555
C11 O8 1_555 1_555
C12 C11 1_555 1_555
C13 C12 1_555 1_555
C14 C13 1_555 1_555
C15 C14 1_555 1_555
C16 C11 1_555 1_555
H2 O1 1_555 1_555
H4 O2 1_555 1_555
H5 C2 1_555 1_555
H6 C2 1_555 1_555
H7 C5 1_555 1_555
H8 C7 1_555 1_555
H9 C8 1_555 1_555
H10 C10 1_555 1_555
H11 C10 1_555 1_555
H12 C13 1_555 1_555
H13 C15 1_555 1_555
H14 C16 1_555 1_555
Ba1A O2 1_555 1_555
Ba1A_2 O3 1_555 1_555
Ba1B O4 1_555 1_555
O2A Ba1 1_555 1_555
O3A Ba1 1_555 1_555
O4B Ba1 1_555 1_555
O7A Ba1 1_555 1_555
H3A O2A 1_555 1_555
H4A O2A 1_555 1_555
O7 C9 1_555 1_555
O7 Ba1A 1_555 1_555
C1 C2 1_555 1_555
C7 C8 1_555 1_555
C15 C16 1_555 1_555
Ba1A O3A 1_555 1_555
Ba1A_2 O2A 1_555 1_555
Ba1A_2 O7A 1_555 1_555

#END
