
#######################################################################
#
#                 Cambridge Crystallographic Data Centre
#                                CCDC 
#
#######################################################################
#
# If this CIF has been generated from an entry in the Cambridge 
# Structural Database, then it will include bibliographic, chemical, 
# crystal, experimental, refinement or atomic coordinate data resulting 
# from the CCDC's data processing and validation procedures.
#
#######################################################################

data_JESQEE
_symmetry_cell_setting           orthorhombic
_symmetry_space_group_name_H-M   'P 21 21 2'
_symmetry_Int_Tables_number      18
_space_group_name_Hall           'P 2 2ab'
loop_
_symmetry_equiv_pos_site_id
_symmetry_equiv_pos_as_xyz
1 x,y,z
2 -x,-y,z
3 1/2-x,1/2+y,-z
4 1/2+x,1/2-y,-z
_cell_length_a                   17.6230(10)
_cell_length_b                   7.2451(6)
_cell_length_c                   11.3957(8)
_cell_angle_alpha                90
_cell_angle_beta                 90
_cell_angle_gamma                90
_cell_volume                     1455.01
loop_
_atom_site_label
_atom_site_type_symbol
_atom_site_fract_x
_atom_site_fract_y
_atom_site_fract_z
Zn1 Zn 1.0000 0.0000 -0.47429(3)
N1 N 1.0000 0.0000 -0.66070(19)
N2 N 1.0000 0.0000 -1.28440(19)
O1 O 0.95289(12) 0.2660(3) -0.46385(18)
H1 H 0.9676(17) 0.339(4) -0.405(2)
H2 H 0.9132(13) 0.314(4) -0.501(3)
O3 O 0.89034(10) -0.1163(3) -0.47600(19)
H4 H 0.8495(12) -0.067(4) -0.442(3)
H5 H 0.8787(19) -0.224(3) -0.510(3)
C1 C 0.93978(13) 0.0570(4) -0.7220(2)
H9 H 0.8969 0.0959 -0.6814
C2 C 0.93837(13) 0.0608(4) -0.8431(2)
H10 H 0.8956 0.1047 -0.8818
C3 C 1.0000 0.0000 -0.9073(2)
C4 C 1.0000 0.0000 -1.0379(2)
C5 C 0.93584(13) 0.0466(4) -1.10231(19)
H11 H 0.8913 0.0787 -1.0637
C6 C 0.93802(13) 0.0454(4) -1.22321(19)
H12 H 0.8943 0.0777 -1.2641
Zn1_2 Zn 1.0000 0.0000 -1.47429(3)
N2_2 N 1.0000 0.0000 -0.28440(19)
O1A O 1.04711(12) -0.2660(3) -0.46385(18)
H1A H 1.0324(17) -0.339(4) -0.405(2)
H2A H 1.0868(13) -0.314(4) -0.501(3)
O3A O 1.10966(10) 0.1163(3) -0.47600(19)
H4A H 1.1505(12) 0.067(4) -0.442(3)
H5A H 1.1213(19) 0.224(3) -0.510(3)
C1A C 1.06022(13) -0.0570(4) -0.7220(2)
H9A H 1.1031 -0.0959 -0.6814
C2A C 1.06163(13) -0.0608(4) -0.8431(2)
H10A H 1.1044 -0.1047 -0.8818
C5A C 1.06416(13) -0.0466(4) -1.10231(19)
H11A H 1.1087 -0.0787 -1.0637
C6A C 1.06198(13) -0.0454(4) -1.22321(19)
H12A H 1.1057 -0.0777 -1.2641
S1 S 0.80032(3) 0.46768(8) -0.64587(5)
O5 O 0.78828(15) 0.2749(3) -0.61725(19)
O6 O 0.73210(10) 0.5752(3) -0.62770(17)
O7 O 0.86574(10) 0.5419(3) -0.58612(16)
O8 O 0.86675(10) 0.5232(4) -1.15198(16)
H8 H 0.8357(16) 0.458(4) -1.196(2)
C7 C 0.82075(12) 0.4792(4) -0.79747(19)
C8 C 0.88698(14) 0.5633(3) -0.8375(2)
H13 H 0.9215 0.6116 -0.7840
C9 C 0.90142(15) 0.5749(4) -0.9554(2)
H14 H 0.9459 0.6305 -0.9815
C10 C 0.85002(13) 0.5042(4) -1.0361(2)
C11 C 0.78438(14) 0.4168(3) -0.9965(2)
H15 H 0.7503 0.3664 -1.0500
C12 C 0.77019(13) 0.4056(4) -0.8782(2)
H16 H 0.7262 0.3479 -0.8519
O2 O 1.0000 0.5000 -0.2851(2)
H3 H 1.0398(12) 0.469(5) -0.240(2)
H3A H 0.9602(12) 0.531(5) -0.240(2)
O4 O 0.76026(17) 0.4406(3) -1.2966(2)
H6 H 0.7685(18) 0.337(4) -1.339(3)
H7 H 0.760(2) 0.545(4) -1.339(3)
loop_
_geom_bond_atom_site_label_1
_geom_bond_atom_site_label_2
_geom_bond_site_symmetry_1
_geom_bond_site_symmetry_2
Zn1 N1 1_555 1_555
S1 O5 1_555 1_555
N1 C1 1_555 1_555
N2 C6 1_555 1_555
O1 Zn1 1_555 1_555
H1 O1 1_555 1_555
H2 O1 1_555 1_555
O2 H3 1_555 1_555
O3 Zn1 1_555 1_555
H4 O3 1_555 1_555
H5 O3 1_555 1_555
O4 H6 1_555 1_555
H7 O4 1_555 1_555
O6 S1 1_555 1_555
O7 S1 1_555 1_555
O8 H8 1_555 1_555
C1 H9 1_555 1_555
C2 C1 1_555 1_555
H10 C2 1_555 1_555
C3 C2 1_555 1_555
C4 C3 1_555 1_555
C5 C4 1_555 1_555
H11 C5 1_555 1_555
C6 C5 1_555 1_555
H12 C6 1_555 1_555
C7 S1 1_555 1_555
C8 C7 1_555 1_555
H13 C8 1_555 1_555
C9 C8 1_555 1_555
H14 C9 1_555 1_555
C10 O8 1_555 1_555
C11 C10 1_555 1_555
H15 C11 1_555 1_555
C12 C7 1_555 1_555
H16 C12 1_555 1_555
Zn1_2 N2 1_555 1_555
N2_2 Zn1 1_555 1_555
O1A Zn1 1_555 1_555
H1A O1A 1_555 1_555
H2A O1A 1_555 1_555
H3A O2 1_555 1_555
O3A Zn1 1_555 1_555
H4A O3A 1_555 1_555
H5A O3A 1_555 1_555
C1A N1 1_555 1_555
H9A C1A 1_555 1_555
C2A C3 1_555 1_555
H10A C2A 1_555 1_555
C5A C4 1_555 1_555
H11A C5A 1_555 1_555
C6A N2 1_555 1_555
H12A C6A 1_555 1_555
C9 C10 1_555 1_555
C11 C12 1_555 1_555
C1A C2A 1_555 1_555
C5A C6A 1_555 1_555

#END
