
#######################################################################
#
#                 Cambridge Crystallographic Data Centre
#                                CCDC 
#
#######################################################################
#
# If this CIF has been generated from an entry in the Cambridge 
# Structural Database, then it will include bibliographic, chemical, 
# crystal, experimental, refinement or atomic coordinate data resulting 
# from the CCDC's data processing and validation procedures.
#
#######################################################################

data_JESQOO
_symmetry_cell_setting           monoclinic
_symmetry_space_group_name_H-M   'P 21/c'
_symmetry_Int_Tables_number      14
_space_group_name_Hall           '-P 2ybc'
loop_
_symmetry_equiv_pos_site_id
_symmetry_equiv_pos_as_xyz
1 x,y,z
2 -x,1/2+y,1/2-z
3 -x,-y,-z
4 x,1/2-y,1/2+z
_cell_length_a                   17.756(4)
_cell_length_b                   12.883(3)
_cell_length_c                   17.637(4)
_cell_angle_alpha                90
_cell_angle_beta                 110.44(3)
_cell_angle_gamma                90
_cell_volume                     3780.46
loop_
_atom_site_label
_atom_site_type_symbol
_atom_site_fract_x
_atom_site_fract_y
_atom_site_fract_z
Cd1 Cd 0.10057(2) 0.70349(3) 0.167949(19)
Cd2 Cd 0.36725(2) 0.22646(3) 0.28866(2)
N1 N 0.1238(2) 0.8833(3) 0.1538(2)
N2 N 0.0610(2) 0.9500(3) 0.1426(2)
N3 N -0.0593(2) 0.8517(3) 0.1247(2)
N4 N -0.0337(2) 0.7564(3) 0.1093(2)
N5 N 0.5061(2) 0.1891(3) 0.3560(3)
N6 N 0.5311(2) 0.0877(3) 0.3612(2)
N7 N 0.4120(2) -0.0170(3) 0.3256(2)
N8 N 0.3507(2) 0.0519(3) 0.3137(2)
N9 N 0.1604(3) 0.8194(5) 0.4317(3)
N10 N 0.1047(3) 0.7383(4) 0.2997(2)
N11 N 0.1098(3) 0.8280(3) 0.5426(2)
N12 N 0.2342(3) 0.6623(4) 0.2278(3)
N13 N 0.3528(4) 0.5652(4) 0.3041(4)
N14 N 0.3945(3) 0.3980(4) 0.2702(3)
N15 N 0.0702(3) 0.5312(3) 0.1808(3)
N16 N 0.1011(3) 0.3478(3) 0.1864(3)
N17 N 0.2337(3) 0.2674(4) 0.2277(3)
N18 N 0.3800(3) 0.3780(3) 0.5351(3)
N19 N 0.3627(3) 0.2749(4) 0.4140(3)
N20 N 0.3752(3) 0.3192(4) 0.6640(3)
C1 C 0.2505(3) 0.8854(4) 0.1254(3)
H1 H 0.2653 0.8283 0.1646
H2 H 0.2931 0.9380 0.1407
H3 H 0.2436 0.8587 0.0714
C2 C 0.1738(3) 0.9330(4) 0.1247(3)
C3 C 0.1429(3) 1.0306(4) 0.0956(3)
H4 H 0.1673 1.0810 0.0723
C4 C 0.0710(3) 1.0402(3) 0.1070(3)
C5 C 0.0117(3) 1.1256(4) 0.0863(3)
H5 H -0.0394 1.1005 0.0476
H6 H 0.0318 1.1829 0.0622
H7 H 0.0034 1.1498 0.1355
C6 C -0.0002(3) 0.9235(4) 0.1760(3)
H8 H -0.0278 0.9876 0.1830
H9 H 0.0256 0.8918 0.2300
C7 C -0.1830(3) 0.9606(4) 0.0955(4)
H10 H -0.1633 1.0191 0.0723
H11 H -0.1735 0.9744 0.1528
H12 H -0.2407 0.9515 0.0664
C8 C -0.1393(3) 0.8635(4) 0.0880(3)
C9 C -0.1661(3) 0.7730(4) 0.0468(3)
H13 H -0.2201 0.7569 0.0148
C10 C -0.0996(3) 0.7094(4) 0.0603(3)
C11 C -0.0966(3) 0.6028(4) 0.0278(3)
H14 H -0.0480 0.5956 0.0140
H15 H -0.1441 0.5918 -0.0209
H16 H -0.0959 0.5511 0.0688
C12 C 0.5618(4) 0.3542(5) 0.4246(4)
H17 H 0.5545 0.3923 0.3744
H18 H 0.6116 0.3771 0.4666
H19 H 0.5162 0.3679 0.4422
C13 C 0.5667(3) 0.2404(5) 0.4100(4)
C14 C 0.6302(3) 0.1729(5) 0.4473(4)
H20 H 0.6806 0.1908 0.4867
C15 C 0.6063(3) 0.0764(5) 0.4168(3)
C16 C 0.6491(4) -0.0259(5) 0.4368(4)
H21 H 0.6255 -0.0675 0.4693
H22 H 0.7062 -0.0140 0.4675
H23 H 0.6436 -0.0630 0.3866
C17 C 0.4814(3) 0.0131(4) 0.3056(3)
H24 H 0.5138 -0.0494 0.3055
H25 H 0.4629 0.0429 0.2504
C18 C 0.4501(4) -0.2011(5) 0.3651(6)
H26 H 0.4655 -0.2142 0.3178
H27 H 0.4238 -0.2629 0.3767
H28 H 0.4981 -0.1851 0.4119
C19 C 0.3930(3) -0.1108(4) 0.3481(4)
C20 C 0.3179(4) -0.1020(4) 0.3508(4)
H29 H 0.2876 -0.1553 0.3640
C21 C 0.2934(3) 0.0005(4) 0.3304(3)
C22 C 0.2166(3) 0.0510(4) 0.3262(3)
H30 H 0.2282 0.1129 0.3607
H31 H 0.1845 0.0023 0.3450
H32 H 0.1864 0.0712 0.2702
C23 C 0.1273(3) 0.7735(4) 0.3627(3)
C24 C 0.1305(4) 0.8210(6) 0.4887(3)
C25 C 0.2881(5) 0.6130(5) 0.2595(5)
C26 C 0.3723(3) 0.4757(5) 0.2825(4)
C27 C 0.0892(3) 0.4468(4) 0.1835(3)
C28 C 0.1738(3) 0.3096(4) 0.2089(3)
C29 C 0.3711(3) 0.3194(4) 0.4730(3)
C30 C 0.3763(3) 0.3416(4) 0.6020(3)
Cd1C Cd 0.10057(2) 0.79651(3) 0.667949(19)
Cd2C Cd 0.36725(2) 0.27354(3) 0.78866(2)
N11C N 0.1098(3) 0.6720(3) 0.0426(2)
N20C N 0.3752(3) 0.1808(4) 0.1640(3)
loop_
_geom_bond_atom_site_label_1
_geom_bond_atom_site_label_2
_geom_bond_site_symmetry_1
_geom_bond_site_symmetry_2
Cd1 N1 1_555 1_555
Cd2 N5 1_555 1_555
N1 N2 1_555 1_555
N2 C4 1_555 1_555
N3 N4 1_555 1_555
N4 Cd1 1_555 1_555
N5 N6 1_555 1_555
N6 C15 1_555 1_555
N7 N8 1_555 1_555
N8 Cd2 1_555 1_555
N9 C23 1_555 1_555
N10 Cd1 1_555 1_555
N11 C24 1_555 1_555
N12 Cd1 1_555 1_555
N13 C25 1_555 1_555
N14 Cd2 1_555 1_555
N15 Cd1 1_555 1_555
N16 C27 1_555 1_555
N17 Cd2 1_555 1_555
N18 C29 1_555 1_555
N19 Cd2 1_555 1_555
N20 C30 1_555 1_555
C1 H1 1_555 1_555
H2 C1 1_555 1_555
H3 C1 1_555 1_555
C2 N1 1_555 1_555
C3 C2 1_555 1_555
H4 C3 1_555 1_555
C4 C3 1_555 1_555
C5 C4 1_555 1_555
H5 C5 1_555 1_555
H6 C5 1_555 1_555
H7 C5 1_555 1_555
C6 N2 1_555 1_555
H8 C6 1_555 1_555
H9 C6 1_555 1_555
C7 H10 1_555 1_555
H11 C7 1_555 1_555
H12 C7 1_555 1_555
C8 N3 1_555 1_555
C9 C8 1_555 1_555
H13 C9 1_555 1_555
C10 N4 1_555 1_555
C11 C10 1_555 1_555
H14 C11 1_555 1_555
H15 C11 1_555 1_555
H16 C11 1_555 1_555
C12 H17 1_555 1_555
H18 C12 1_555 1_555
H19 C12 1_555 1_555
C13 N5 1_555 1_555
C14 C13 1_555 1_555
H20 C14 1_555 1_555
C15 C14 1_555 1_555
C16 C15 1_555 1_555
H21 C16 1_555 1_555
H22 C16 1_555 1_555
H23 C16 1_555 1_555
C17 N6 1_555 1_555
H24 C17 1_555 1_555
H25 C17 1_555 1_555
C18 H26 1_555 1_555
H27 C18 1_555 1_555
H28 C18 1_555 1_555
C19 N7 1_555 1_555
C20 C19 1_555 1_555
H29 C20 1_555 1_555
C21 N8 1_555 1_555
C22 C21 1_555 1_555
H30 C22 1_555 1_555
H31 C22 1_555 1_555
H32 C22 1_555 1_555
C23 N10 1_555 1_555
C24 N9 1_555 1_555
C25 N12 1_555 1_555
C26 N13 1_555 1_555
C27 N15 1_555 1_555
C28 N16 1_555 1_555
C29 N19 1_555 1_555
C30 N18 1_555 1_555
Cd1C N11 1_555 1_555
Cd2C N20 1_555 1_555
N11C Cd1 1_555 1_555
N20C Cd2 1_555 1_555
N3 C6 1_555 1_555
N7 C17 1_555 1_555
N14 C26 1_555 1_555
N17 C28 1_555 1_555
C1 C2 1_555 1_555
C7 C8 1_555 1_555
C9 C10 1_555 1_555
C12 C13 1_555 1_555
C18 C19 1_555 1_555
C20 C21 1_555 1_555

#END
