
#######################################################################
#
#                 Cambridge Crystallographic Data Centre
#                                CCDC 
#
#######################################################################
#
# If this CIF has been generated from an entry in the Cambridge 
# Structural Database, then it will include bibliographic, chemical, 
# crystal, experimental, refinement or atomic coordinate data resulting 
# from the CCDC's data processing and validation procedures.
#
#######################################################################

data_JESRUV
_symmetry_cell_setting           monoclinic
_symmetry_space_group_name_H-M   'P 21/c'
_symmetry_Int_Tables_number      14
_space_group_name_Hall           '-P 2ybc'
loop_
_symmetry_equiv_pos_site_id
_symmetry_equiv_pos_as_xyz
1 x,y,z
2 -x,1/2+y,1/2-z
3 -x,-y,-z
4 x,1/2-y,1/2+z
_cell_length_a                   17.140(3)
_cell_length_b                   13.930(3)
_cell_length_c                   11.950(2)
_cell_angle_alpha                90
_cell_angle_beta                 109.00(3)
_cell_angle_gamma                90
_cell_volume                     2697.74
loop_
_atom_site_label
_atom_site_type_symbol
_atom_site_fract_x
_atom_site_fract_y
_atom_site_fract_z
Zn1 Zn -0.38009(6) 0.74595(8) 0.54523(10)
Zn2 Zn 0.12596(6) 0.71552(7) 0.15077(9)
I1 I -0.40061(4) 0.58708(5) 0.63828(6)
I2 I -0.35877(5) 0.91385(5) 0.63893(7)
I3 I 0.13013(4) 0.55375(4) 0.05331(6)
I4 I 0.12093(5) 0.87511(5) 0.04460(7)
N1 N -0.2812(4) 0.7312(6) 0.4830(7)
N2 N 0.0255(4) 0.7154(5) 0.2104(7)
N3 N -0.7741(4) 0.7743(5) -0.1930(7)
N4 N -0.4796(4) 0.7527(6) 0.3864(7)
C1 C -0.2335(7) 0.6530(7) 0.4936(11)
H1 H -0.2409 0.6014 0.5386
C2 C -0.1743(6) 0.6471(8) 0.4401(11)
H2 H -0.1430 0.5915 0.4480
C3 C -0.1605(5) 0.7221(6) 0.3748(8)
C4 C -0.0966(5) 0.7185(7) 0.3161(9)
C5 C -0.0811(6) 0.6361(7) 0.2631(10)
H3 H -0.1116 0.5806 0.2615
C6 C -0.0199(6) 0.6377(7) 0.2130(10)
H4 H -0.0091 0.5815 0.1787
C7 C 0.0091(6) 0.7952(7) 0.2597(10)
H5 H 0.0389 0.8506 0.2578
C8 C -0.0500(6) 0.7980(7) 0.3127(10)
H6 H -0.0591 0.8549 0.3474
C9 C -0.2093(6) 0.8022(7) 0.3652(9)
H7 H -0.2024 0.8547 0.3213
C10 C -0.2679(6) 0.8048(7) 0.4199(9)
H8 H -0.2998 0.8599 0.4130
C11 C -0.7291(6) 0.8499(7) -0.1392(9)
H9 H -0.7380 0.9080 -0.1799
C12 C -0.6704(6) 0.8481(7) -0.0278(9)
H10 H -0.6406 0.9031 0.0039
C13 C -0.6567(5) 0.7626(7) 0.0362(8)
C14 C -0.5975(5) 0.7564(7) 0.1586(8)
C15 C -0.5840(6) 0.8369(7) 0.2349(9)
H11 H -0.6143 0.8930 0.2108
C16 C -0.5248(6) 0.8310(7) 0.3465(9)
H12 H -0.5164 0.8843 0.3958
C17 C -0.4931(6) 0.6763(8) 0.3162(9)
H13 H -0.4630 0.6206 0.3434
C18 C -0.5524(6) 0.6771(8) 0.2004(9)
H14 H -0.5600 0.6225 0.1533
C19 C -0.7008(6) 0.6831(7) -0.0209(9)
H15 H -0.6914 0.6235 0.0162
C20 C -0.7582(6) 0.6915(7) -0.1317(9)
H16 H -0.7876 0.6371 -0.1663
Zn2C Zn -0.87404(6) 0.78448(7) -0.34923(9)
N3C N 0.2259(4) 0.7257(5) 0.3070(7)
loop_
_geom_bond_atom_site_label_1
_geom_bond_atom_site_label_2
_geom_bond_site_symmetry_1
_geom_bond_site_symmetry_2
Zn1 I1 1_555 1_555
Zn2 I3 1_555 1_555
I2 Zn1 1_555 1_555
I4 Zn2 1_555 1_555
N1 Zn1 1_555 1_555
N2 Zn2 1_555 1_555
N3 C11 1_555 1_555
N4 Zn1 1_555 1_555
C1 N1 1_555 1_555
H1 C1 1_555 1_555
C2 C1 1_555 1_555
H2 C2 1_555 1_555
C3 C2 1_555 1_555
C4 C3 1_555 1_555
C5 C4 1_555 1_555
H3 C5 1_555 1_555
C6 N2 1_555 1_555
H4 C6 1_555 1_555
C7 N2 1_555 1_555
H5 C7 1_555 1_555
C8 C4 1_555 1_555
H6 C8 1_555 1_555
C9 C3 1_555 1_555
H7 C9 1_555 1_555
C10 N1 1_555 1_555
H8 C10 1_555 1_555
C11 H9 1_555 1_555
C12 C11 1_555 1_555
H10 C12 1_555 1_555
C13 C12 1_555 1_555
C14 C13 1_555 1_555
C15 C14 1_555 1_555
H11 C15 1_555 1_555
C16 N4 1_555 1_555
H12 C16 1_555 1_555
C17 N4 1_555 1_555
H13 C17 1_555 1_555
C18 C14 1_555 1_555
H14 C18 1_555 1_555
C19 C13 1_555 1_555
H15 C19 1_555 1_555
C20 N3 1_555 1_555
H16 C20 1_555 1_555
Zn2C N3 1_555 1_555
N3C Zn2 1_555 1_555
C5 C6 1_555 1_555
C7 C8 1_555 1_555
C9 C10 1_555 1_555
C15 C16 1_555 1_555
C17 C18 1_555 1_555
C19 C20 1_555 1_555

#END
