
#######################################################################
#
#                 Cambridge Crystallographic Data Centre
#                                CCDC 
#
#######################################################################
#
# If this CIF has been generated from an entry in the Cambridge 
# Structural Database, then it will include bibliographic, chemical, 
# crystal, experimental, refinement or atomic coordinate data resulting 
# from the CCDC's data processing and validation procedures.
#
#######################################################################

data_JESXIP
_symmetry_cell_setting           orthorhombic
_symmetry_space_group_name_H-M   'P 21 21 21'
_symmetry_Int_Tables_number      19
_space_group_name_Hall           'P 2ac 2ab'
loop_
_symmetry_equiv_pos_site_id
_symmetry_equiv_pos_as_xyz
1 x,y,z
2 1/2-x,-y,1/2+z
3 -x,1/2+y,1/2-z
4 1/2+x,1/2-y,-z
_cell_length_a                   15.279(4)
_cell_length_b                   20.027(5)
_cell_length_c                   24.285(6)
_cell_angle_alpha                90
_cell_angle_beta                 90
_cell_angle_gamma                90
_cell_volume                     7431.03
loop_
_atom_site_label
_atom_site_type_symbol
_atom_site_fract_x
_atom_site_fract_y
_atom_site_fract_z
C1 C 0.4471(3) 0.20869(18) 0.78808(13)
C2 C 0.4116(2) 0.32809(19) 0.82790(14)
C3 C 0.3380(3) 0.28974(19) 0.72805(14)
C4 C 0.4534(3) 0.38650(19) 0.72589(15)
C5 C 0.5002(3) 0.2618(2) 0.68985(14)
C6 C 0.5719(3) 0.3181(2) 0.78158(18)
C7 C 0.4482(3) 0.0111(2) 0.69164(15)
H1 H 0.4866 -0.0280 0.6904
C8 C 0.3875(3) 0.0055(2) 0.64369(17)
H2 H 0.3466 0.0426 0.6439
H3 H 0.3543 -0.0356 0.6463
C9 C 0.4416(3) 0.0062(3) 0.58929(18)
H4 H 0.4770 -0.0340 0.5874
H5 H 0.4019 0.0058 0.5581
C10 C 0.4993(3) 0.0653(2) 0.58541(17)
H6 H 0.4641 0.1055 0.5832
H7 H 0.5347 0.0625 0.5523
C11 C 0.5600(3) 0.0689(3) 0.63692(17)
H8 H 0.5971 0.0297 0.6381
H9 H 0.5973 0.1080 0.6343
C12 C 0.5076(3) 0.0726(2) 0.68786(17)
H10 H 0.4695 0.1118 0.6853
C13 C 0.6254(3) 0.1131(2) 0.74332(17)
H11 H 0.6472 0.1308 0.7107
C14 C 0.6726(3) 0.1282(2) 0.79216(19)
C15 C 0.7467(3) 0.1700(2) 0.7869(2)
H12 H 0.7624 0.1863 0.7524
C16 C 0.7964(4) 0.1871(3) 0.8329(2)
H13 H 0.8458 0.2138 0.8290
C17 C 0.7717(3) 0.1639(3) 0.8842(2)
H14 H 0.8041 0.1756 0.9152
C18 C 0.6994(3) 0.1238(2) 0.88956(18)
H15 H 0.6841 0.1085 0.9244
C19 C 0.6486(3) 0.10521(19) 0.84497(17)
C20 C 0.3325(3) -0.0106(2) 0.75477(17)
H16 H 0.3005 -0.0236 0.7240
C21 C 0.2894(3) -0.0179(2) 0.80909(18)
C22 C 0.2039(3) -0.0414(3) 0.8106(2)
H17 H 0.1771 -0.0538 0.7777
C23 C 0.1592(3) -0.0466(2) 0.85718(18)
H18 H 0.1000 -0.0576 0.8573
C24 C 0.2054(3) -0.0347(3) 0.9069(2)
H19 H 0.1767 -0.0406 0.9403
C25 C 0.2869(3) -0.0158(2) 0.9069(2)
H20 H 0.3143 -0.0083 0.9406
C26 C 0.3355(3) -0.0062(2) 0.85816(16)
C27 C 0.1609(3) 0.2573(2) 0.85871(15)
H21 H 0.1259 0.2371 0.8882
C28 C 0.1012(3) 0.2633(2) 0.80827(18)
H22 H 0.0493 0.2889 0.8174
H23 H 0.1317 0.2856 0.7785
C29 C 0.0763(3) 0.1941(2) 0.79140(18)
H24 H 0.0424 0.1967 0.7577
H25 H 0.0387 0.1752 0.8196
C30 C 0.1533(3) 0.1466(2) 0.78202(18)
H26 H 0.1875 0.1618 0.7508
H27 H 0.1314 0.1023 0.7737
C31 C 0.2121(4) 0.1437(2) 0.83371(19)
H28 H 0.1809 0.1223 0.8637
H29 H 0.2643 0.1178 0.8259
C32 C 0.2370(3) 0.2140(2) 0.84985(15)
H30 H 0.2715 0.2331 0.8197
C33 C 0.3423(3) 0.1702(2) 0.91578(16)
H31 H 0.3441 0.1322 0.8938
C34 C 0.3965(3) 0.1710(2) 0.96443(15)
C35 C 0.4430(3) 0.1121(2) 0.97677(19)
H32 H 0.4419 0.0771 0.9516
C36 C 0.4891(3) 0.1046(2) 1.0238(2)
H33 H 0.5211 0.0658 1.0300
C37 C 0.4886(4) 0.1533(3) 1.06160(19)
H34 H 0.5174 0.1471 1.0950
C38 C 0.4436(3) 0.2154(3) 1.05089(19)
H35 H 0.4444 0.2493 1.0771
C39 C 0.3997(3) 0.2246(2) 1.00200(15)
C40 C 0.1732(3) 0.3804(2) 0.86158(18)
H36 H 0.1359 0.3816 0.8313
C41 C 0.2026(3) 0.4432(2) 0.88451(18)
C42 C 0.1817(4) 0.4995(3) 0.8570(2)
H37 H 0.1539 0.4964 0.8231
C43 C 0.2013(4) 0.5631(3) 0.8788(3)
H38 H 0.1844 0.6013 0.8598
C44 C 0.2444(3) 0.5683(2) 0.9269(2)
H39 H 0.2581 0.6102 0.9411
C45 C 0.2690(3) 0.5100(2) 0.95586(18)
H40 H 0.2981 0.5136 0.9893
C46 C 0.2497(3) 0.4473(2) 0.93459(16)
C47 C 0.3019(3) 0.3785(2) 0.57380(17)
H41 H 0.2715 0.3765 0.5383
C48 C 0.3706(3) 0.4320(3) 0.56945(19)
H42 H 0.3993 0.4365 0.6049
H43 H 0.3420 0.4741 0.5614
C49 C 0.4391(4) 0.4193(3) 0.5262(2)
H44 H 0.4840 0.4534 0.5283
H45 H 0.4127 0.4212 0.4899
C50 C 0.4798(3) 0.3509(3) 0.5353(2)
H46 H 0.5212 0.3419 0.5060
H47 H 0.5118 0.3511 0.5698
C51 C 0.4121(3) 0.2958(3) 0.5368(2)
H48 H 0.3819 0.2934 0.5018
H49 H 0.4405 0.2532 0.5435
C52 C 0.3477(3) 0.3103(2) 0.58219(17)
H50 H 0.3806 0.3127 0.6168
C53 C 0.2170(3) 0.4405(2) 0.63954(18)
H51 H 0.2523 0.4769 0.6309
C54 C 0.1450(3) 0.4515(3) 0.6782(2)
C55 C 0.1340(3) 0.5185(3) 0.6967(2)
H52 H 0.1731 0.5511 0.6849
C56 C 0.0692(3) 0.5356(3) 0.7304(2)
H53 H 0.0614 0.5797 0.7412
C57 C 0.0120(4) 0.4844(3) 0.7497(2)
H54 H -0.0321 0.4951 0.7745
C58 C 0.0207(3) 0.4214(2) 0.73273(19)
H55 H -0.0185 0.3894 0.7455
C59 C 0.0873(3) 0.4019(2) 0.69616(19)
C60 C 0.2748(3) 0.2021(3) 0.56954(17)
H56 H 0.3211 0.1919 0.5462
C61 C 0.2128(3) 0.1519(2) 0.57945(18)
C62 C 0.2216(3) 0.0908(2) 0.5522(2)
H57 H 0.2666 0.0847 0.5269
C63 C 0.1625(4) 0.0382(3) 0.5628(2)
H58 H 0.1680 -0.0019 0.5439
C64 C 0.0986(4) 0.0457(3) 0.5999(2)
H59 H 0.0620 0.0097 0.6075
C65 C 0.0856(4) 0.1038(3) 0.6264(2)
H60 H 0.0390 0.1080 0.6509
C66 C 0.1429(4) 0.1595(3) 0.6173(2)
Fe1 Fe 0.45411(4) 0.29795(3) 0.75769(2)
Mn1 Mn 0.49191(4) 0.04181(3) 0.80406(2)
Mn2 Mn 0.28708(4) 0.30797(3) 0.93634(2)
Mn3 Mn 0.17818(5) 0.29799(3) 0.63614(3)
N1 N 0.5563(2) 0.07770(16) 0.73971(13)
N2 N 0.4082(2) 0.01167(17) 0.74651(13)
N3 N 0.4393(3) 0.15464(17) 0.80376(14)
N4 N 0.2923(2) 0.21719(15) 0.90071(12)
N5 N 0.1960(2) 0.32260(16) 0.88076(12)
N6 N 0.3831(2) 0.34162(17) 0.87160(14)
N7 N 0.2352(2) 0.38437(17) 0.61655(14)
N8 N 0.2724(3) 0.26196(18) 0.59058(14)
N9 N 0.2703(2) 0.28823(18) 0.70840(14)
N10 N 0.5292(3) 0.2405(2) 0.65107(16)
N11 N 0.6399(3) 0.3307(2) 0.79499(19)
N12 N 0.4520(3) 0.43859(17) 0.70684(15)
O1 O 0.57853(19) 0.06935(13) 0.85382(10)
O2 O 0.4165(2) 0.01427(14) 0.86077(11)
O3 O 0.3664(2) 0.28346(14) 0.99158(10)
O4 O 0.2720(2) 0.39441(14) 0.96446(11)
O5 O 0.0896(2) 0.33998(16) 0.67674(14)
O6 O 0.1261(2) 0.21466(16) 0.64624(14)
O7 O 0.0947(2) 0.31299(17) 0.55453(13)
H61 H 0.0426 0.2995 0.5600
H62 H 0.0939 0.3542 0.5460
O8 O 0.1607(5) 0.2583(4) 1.0080(3)
H63 H 0.1482 0.2195 0.9962
H64 H 0.1170 0.2839 1.0035
Mn1B Mn 0.50809(4) 0.54181(3) 0.69594(2)
N12B N 0.5480(3) -0.06141(17) 0.79316(15)
O9 O 0.0764(5) 0.2278(4) 0.0814(3)
H65 H 0.0252 0.2176 0.0706
H66 H 0.0734 0.2603 0.1039
O10 O 0.5232(5) 0.9088(4) 0.4510(3)
H67 H 0.5015 0.9097 0.4832
H68 H 0.5110 0.9450 0.4344
O11 O 0.2375(5) 0.8593(4) 0.6054(3)
H69 H 0.2401 0.8871 0.6317
H70 H 0.2420 0.8199 0.6181
O12 O 0.1436(5) 0.2777(4) 0.4491(3)
H71 H 0.1025 0.2594 0.4672
H72 H 0.1310 0.2774 0.4150
O13 O 0.7256(5) 0.2963(4) 0.6788(3)
H73 H 0.6785 0.2948 0.6602
H74 H 0.7143 0.3092 0.7114
O14 O 0.9208(7) 0.2429(6) 0.6665(4)
H75 H 0.8688 0.2573 0.6700
H76 H 0.9200 0.2005 0.6643
O15 O 0.9489(8) 0.3539(6) 0.5456(5)
H77 H 0.9414 0.3941 0.5558
H78 H 0.9116 0.3441 0.5210
loop_
_geom_bond_atom_site_label_1
_geom_bond_atom_site_label_2
_geom_bond_site_symmetry_1
_geom_bond_site_symmetry_2
C1 Fe1 1_555 1_555
C2 Fe1 1_555 1_555
C3 Fe1 1_555 1_555
C4 Fe1 1_555 1_555
C5 Fe1 1_555 1_555
C6 Fe1 1_555 1_555
C7 H1 1_555 1_555
C8 C7 1_555 1_555
H2 C8 1_555 1_555
H3 C8 1_555 1_555
C9 C8 1_555 1_555
H4 C9 1_555 1_555
H5 C9 1_555 1_555
C10 C9 1_555 1_555
H6 C10 1_555 1_555
H7 C10 1_555 1_555
C11 C10 1_555 1_555
H8 C11 1_555 1_555
H9 C11 1_555 1_555
C12 C7 1_555 1_555
H10 C12 1_555 1_555
C13 H11 1_555 1_555
C14 C13 1_555 1_555
C15 C14 1_555 1_555
H12 C15 1_555 1_555
C16 C15 1_555 1_555
H13 C16 1_555 1_555
C17 C16 1_555 1_555
H14 C17 1_555 1_555
C18 C17 1_555 1_555
H15 C18 1_555 1_555
C19 C14 1_555 1_555
C20 H16 1_555 1_555
C21 C20 1_555 1_555
C22 C21 1_555 1_555
H17 C22 1_555 1_555
C23 C22 1_555 1_555
H18 C23 1_555 1_555
C24 C23 1_555 1_555
H19 C24 1_555 1_555
C25 C24 1_555 1_555
H20 C25 1_555 1_555
C26 C21 1_555 1_555
C27 H21 1_555 1_555
C28 C27 1_555 1_555
H22 C28 1_555 1_555
H23 C28 1_555 1_555
C29 C28 1_555 1_555
H24 C29 1_555 1_555
H25 C29 1_555 1_555
C30 C29 1_555 1_555
H26 C30 1_555 1_555
H27 C30 1_555 1_555
C31 C30 1_555 1_555
H28 C31 1_555 1_555
H29 C31 1_555 1_555
C32 C27 1_555 1_555
H30 C32 1_555 1_555
C33 H31 1_555 1_555
C34 C33 1_555 1_555
C35 C34 1_555 1_555
H32 C35 1_555 1_555
C36 C35 1_555 1_555
H33 C36 1_555 1_555
C37 C36 1_555 1_555
H34 C37 1_555 1_555
C38 C37 1_555 1_555
H35 C38 1_555 1_555
C39 C34 1_555 1_555
C40 H36 1_555 1_555
C41 C40 1_555 1_555
C42 C41 1_555 1_555
H37 C42 1_555 1_555
C43 C42 1_555 1_555
H38 C43 1_555 1_555
C44 C43 1_555 1_555
H39 C44 1_555 1_555
C45 C44 1_555 1_555
H40 C45 1_555 1_555
C46 C41 1_555 1_555
C47 H41 1_555 1_555
C48 C47 1_555 1_555
H42 C48 1_555 1_555
H43 C48 1_555 1_555
C49 C48 1_555 1_555
H44 C49 1_555 1_555
H45 C49 1_555 1_555
C50 C49 1_555 1_555
H46 C50 1_555 1_555
H47 C50 1_555 1_555
C51 C50 1_555 1_555
H48 C51 1_555 1_555
H49 C51 1_555 1_555
C52 C47 1_555 1_555
H50 C52 1_555 1_555
C53 H51 1_555 1_555
C54 C53 1_555 1_555
C55 C54 1_555 1_555
H52 C55 1_555 1_555
C56 C55 1_555 1_555
H53 C56 1_555 1_555
C57 C56 1_555 1_555
H54 C57 1_555 1_555
C58 C57 1_555 1_555
H55 C58 1_555 1_555
C59 C54 1_555 1_555
C60 H56 1_555 1_555
C61 C60 1_555 1_555
C62 C61 1_555 1_555
H57 C62 1_555 1_555
C63 C62 1_555 1_555
H58 C63 1_555 1_555
C64 C63 1_555 1_555
H59 C64 1_555 1_555
C65 C64 1_555 1_555
H60 C65 1_555 1_555
C66 C61 1_555 1_555
Mn1 N1 1_555 1_555
Mn2 N4 1_555 1_555
Mn3 N7 1_555 1_555
N1 C12 1_555 1_555
N2 C7 1_555 1_555
N3 C1 1_555 1_555
N4 C32 1_555 1_555
N5 C27 1_555 1_555
N6 C2 1_555 1_555
N7 C47 1_555 1_555
N8 C52 1_555 1_555
N9 C3 1_555 1_555
N10 C5 1_555 1_555
N11 C6 1_555 1_555
N12 C4 1_555 1_555
O1 C19 1_555 1_555
O2 C26 1_555 1_555
O3 C39 1_555 1_555
O4 C46 1_555 1_555
O5 C59 1_555 1_555
O6 C66 1_555 1_555
O7 Mn3 1_555 1_555
H61 O7 1_555 1_555
H62 O7 1_555 1_555
O8 Mn2 1_555 1_555
H63 O8 1_555 1_555
H64 O8 1_555 1_555
O9 H65 1_555 1_555
H66 O9 1_555 1_555
O10 H67 1_555 1_555
H68 O10 1_555 1_555
O11 H69 1_555 1_555
H70 O11 1_555 1_555
O12 H71 1_555 1_555
H72 O12 1_555 1_555
O13 H73 1_555 1_555
H74 O13 1_555 1_555
O14 H75 1_555 1_555
H76 O14 1_555 1_555
O15 H77 1_555 1_555
H78 O15 1_555 1_555
Mn1B N12 1_555 1_555
N12B Mn1 1_555 1_555
C11 C12 1_555 1_555
C13 N1 1_555 1_555
C18 C19 1_555 1_555
C20 N2 1_555 1_555
C25 C26 1_555 1_555
C31 C32 1_555 1_555
C33 N4 1_555 1_555
C38 C39 1_555 1_555
C40 N5 1_555 1_555
C45 C46 1_555 1_555
C51 C52 1_555 1_555
C53 N7 1_555 1_555
C58 C59 1_555 1_555
C60 N8 1_555 1_555
C65 C66 1_555 1_555
Mn1 N2 1_555 1_555
Mn1 N3 1_555 1_555
Mn1 O1 1_555 1_555
Mn1 O2 1_555 1_555
Mn2 N5 1_555 1_555
Mn2 N6 1_555 1_555
Mn2 O3 1_555 1_555
Mn2 O4 1_555 1_555
Mn3 N8 1_555 1_555
Mn3 N9 1_555 1_555
Mn3 O5 1_555 1_555
Mn3 O6 1_555 1_555

#END
