
#######################################################################
#
#                 Cambridge Crystallographic Data Centre
#                                CCDC 
#
#######################################################################
#
# If this CIF has been generated from an entry in the Cambridge 
# Structural Database, then it will include bibliographic, chemical, 
# crystal, experimental, refinement or atomic coordinate data resulting 
# from the CCDC's data processing and validation procedures.
#
#######################################################################

data_JESXEL
_symmetry_cell_setting           orthorhombic
_symmetry_space_group_name_H-M   'P b c a'
_symmetry_Int_Tables_number      61
_space_group_name_Hall           '-P 2ac 2ab'
loop_
_symmetry_equiv_pos_site_id
_symmetry_equiv_pos_as_xyz
1 x,y,z
2 1/2-x,-y,1/2+z
3 -x,1/2+y,1/2-z
4 1/2+x,1/2-y,-z
5 -x,-y,-z
6 1/2+x,y,1/2-z
7 x,1/2-y,1/2+z
8 1/2-x,1/2+y,z
_cell_length_a                   11.5876(6)
_cell_length_b                   9.4479(5)
_cell_length_c                   13.1804(10)
_cell_angle_alpha                90
_cell_angle_beta                 90
_cell_angle_gamma                90
_cell_volume                     1442.97
loop_
_atom_site_label
_atom_site_type_symbol
_atom_site_fract_x
_atom_site_fract_y
_atom_site_fract_z
Cu1 Cu -0.53121(2) -0.42031(4) -0.39217(2)
Cl1 Cl -0.49216(5) -0.32294(7) -0.55188(4)
N1 N -0.39249(14) -0.3960(2) -0.29296(13)
C1 C -0.38596(17) -0.4622(2) -0.20300(15)
C2 C -0.28579(17) -0.4529(3) -0.14216(16)
N2 N -0.19106(14) -0.3850(2) -0.17509(14)
C3 C -0.19966(17) -0.3169(3) -0.26494(17)
H1 H -0.1365 -0.2665 -0.2891
C4 C -0.29940(17) -0.3202(3) -0.32168(17)
H2 H -0.3027 -0.2685 -0.3817
C5 C -0.48822(19) -0.5462(3) -0.16906(19)
H3 H -0.5353 -0.4892 -0.1252
H4 H -0.4625 -0.6286 -0.1330
H5 H -0.5325 -0.5746 -0.2272
C6 C -0.2824(2) -0.5170(3) -0.03848(19)
H6 H -0.2138 -0.4865 -0.0040
H7 H -0.2822 -0.6183 -0.0441
H8 H -0.3490 -0.4873 -0.0008
Cu1D Cu -0.46879(2) -0.57969(4) -0.60783(2)
Cu1E Cu -0.03121(2) -0.42031(4) -0.10783(2)
Cl1D Cl -0.50784(5) -0.67706(7) -0.44812(4)
N2E N -0.69106(14) -0.3850(2) -0.32491(14)
loop_
_geom_bond_atom_site_label_1
_geom_bond_atom_site_label_2
_geom_bond_site_symmetry_1
_geom_bond_site_symmetry_2
Cu1 Cl1 1_555 1_555
Cl1 Cu1D 1_555 1_555
N1 Cu1 1_555 1_555
C1 N1 1_555 1_555
C2 C1 1_555 1_555
N2 C2 1_555 1_555
C3 N2 1_555 1_555
H1 C3 1_555 1_555
C4 N1 1_555 1_555
H2 C4 1_555 1_555
C5 C1 1_555 1_555
H3 C5 1_555 1_555
H4 C5 1_555 1_555
H5 C5 1_555 1_555
C6 C2 1_555 1_555
H6 C6 1_555 1_555
H7 C6 1_555 1_555
H8 C6 1_555 1_555
Cu1D Cl1D 1_555 1_555
Cu1E N2 1_555 1_555
Cl1D Cu1 1_555 1_555
N2E Cu1 1_555 1_555
C3 C4 1_555 1_555

#END
