
#######################################################################
#
#                 Cambridge Crystallographic Data Centre
#                                CCDC 
#
#######################################################################
#
# If this CIF has been generated from an entry in the Cambridge 
# Structural Database, then it will include bibliographic, chemical, 
# crystal, experimental, refinement or atomic coordinate data resulting 
# from the CCDC's data processing and validation procedures.
#
#######################################################################

data_JETJUN01
_symmetry_cell_setting           orthorhombic
_symmetry_space_group_name_H-M   'P b c a'
_symmetry_Int_Tables_number      61
_space_group_name_Hall           '-P 2ac 2ab'
loop_
_symmetry_equiv_pos_site_id
_symmetry_equiv_pos_as_xyz
1 x,y,z
2 1/2-x,1/2+y,z
3 x,1/2-y,1/2+z
4 1/2-x,-y,1/2+z
5 -x,-y,-z
6 1/2+x,1/2-y,-z
7 -x,1/2+y,1/2-z
8 1/2+x,y,1/2-z
_cell_length_a                   7.499(3)
_cell_length_b                   11.830(5)
_cell_length_c                   18.779(6)
_cell_angle_alpha                90
_cell_angle_beta                 90
_cell_angle_gamma                90
_cell_volume                     1665.94
loop_
_atom_site_label
_atom_site_type_symbol
_atom_site_fract_x
_atom_site_fract_y
_atom_site_fract_z
Na1 Na -0.2058(2) -0.38665(9) 0.31982(6)
P1 P -0.45223(9) -0.15246(5) 0.35763(4)
P2 P -0.04677(9) -0.14111(5) 0.38170(3)
O1 O -0.6116(3) -0.2149(2) 0.3929(1)
O2 O -0.3967(3) -0.2255(2) 0.2939(1)
O3 O -0.4898(3) -0.0314(2) 0.3420(1)
O4 O -0.0720(3) -0.0231(2) 0.3450(1)
O5 O -0.0088(3) -0.2320(2) 0.3266(1)
O6 O 0.0943(3) -0.1360(2) 0.4388(1)
O7 O -0.2567(3) -0.2909(2) 0.4345(1)
O8 O -0.2136(3) -0.4169(2) 0.1911(1)
C1 C -0.2668(3) -0.1714(2) 0.4204(1)
C2 C -0.2977(4) -0.1018(6) 0.4881(1)
H1 H -0.688(5) -0.184(3) 0.411(2)
H2 H -0.456(6) -0.218(3) 0.241(2)
H3 H 0.020(6) 0.003(4) 0.331(2)
H4 H -0.317(5) -0.307(3) 0.460(2)
H5 H -0.292(6) -0.443(3) 0.180(2)
H6 H -0.217(6) -0.369(4) 0.159(2)
H7 H -0.411(4) -0.125(3) 0.509(2)
H8 H -0.201(5) -0.118(3) 0.523(2)
H9 H -0.310(5) -0.023(3) 0.476(2)
O3A O -0.0102(3) -0.5314(2) 0.3420(1)
Na1A Na -0.2942(2) 0.11335(9) 0.31982(6)
O4A O -0.4280(3) -0.5231(2) 0.3450(1)
H3A H -0.520(6) -0.497(4) 0.331(2)
loop_
_geom_bond_atom_site_label_1
_geom_bond_atom_site_label_2
_geom_bond_site_symmetry_1
_geom_bond_site_symmetry_2
Na1 O2 1_555 1_555
P1 O1 1_555 1_555
P2 O4 1_555 1_555
O1 H1 1_555 1_555
O2 P1 1_555 1_555
O3 P1 1_555 1_555
O4 H3 1_555 1_555
O5 Na1 1_555 1_555
O6 P2 1_555 1_555
O7 Na1 1_555 1_555
O8 Na1 1_555 1_555
C1 P1 1_555 1_555
C2 C1 1_555 1_555
H2 O2 1_555 1_555
H4 O7 1_555 1_555
H5 O8 1_555 1_555
H6 O8 1_555 1_555
H7 C2 1_555 1_555
H8 C2 1_555 1_555
H9 C2 1_555 1_555
O3A Na1 1_555 1_555
Na1A O3 1_555 1_555
O4A Na1 1_555 1_555
H3A O4A 1_555 1_555
P2 O5 1_555 1_555
P2 C1 1_555 1_555
O4 Na1A 1_555 1_555
O7 C1 1_555 1_555

#END
