
#######################################################################
#
#                 Cambridge Crystallographic Data Centre
#                                CCDC 
#
#######################################################################
#
# If this CIF has been generated from an entry in the Cambridge 
# Structural Database, then it will include bibliographic, chemical, 
# crystal, experimental, refinement or atomic coordinate data resulting 
# from the CCDC's data processing and validation procedures.
#
#######################################################################

data_JETSAD
_symmetry_cell_setting           monoclinic
_symmetry_space_group_name_H-M   'C 2/c'
_symmetry_Int_Tables_number      15
_space_group_name_Hall           '-C 2yn'
loop_
_symmetry_equiv_pos_site_id
_symmetry_equiv_pos_as_xyz
1 x,y,z
2 1/2+x,1/2+y,z
3 -x,y,1/2-z
4 1/2-x,1/2+y,1/2-z
5 -x,-y,-z
6 1/2-x,1/2-y,-z
7 x,-y,1/2+z
8 1/2+x,1/2-y,1/2+z
_cell_length_a                   17.2718(6)
_cell_length_b                   11.4561(4)
_cell_length_c                   16.9932(5)
_cell_angle_alpha                90
_cell_angle_beta                 119.0140(10)
_cell_angle_gamma                90
_cell_volume                     2940.42
loop_
_atom_site_label
_atom_site_type_symbol
_atom_site_fract_x
_atom_site_fract_y
_atom_site_fract_z
Co1 Co 0.49012(3) 0.51452(4) 0.14836(3)
P1 P 0.30745(6) 0.52327(8) 0.17637(7)
H1 H 0.2929 0.6254 0.2027
P2 P 0.62394(6) 0.43995(8) 0.06527(6)
H2 H 0.5828 0.3383 0.0475
O1 O 0.57917(19) 0.5182(2) 0.10109(18)
O2 O 0.62332(18) 0.4801(2) -0.01984(18)
O3 O 0.40753(17) 0.5139(2) 0.21254(17)
N1 N 0.48613(19) 0.3243(3) 0.14273(19)
N2 N 0.48867(19) -0.2939(3) 0.14162(19)
O4 O 0.26563(17) 0.4338(3) 0.20674(18)
O5 O 0.26028(19) 0.5260(3) 0.07191(19)
H3 H 0.2835 0.5755 0.0554
O6 O 0.7220(2) 0.4178(3) 0.1374(2)
H4 H 0.7331 0.4532 0.1836
C1 C 0.4136(3) 0.2651(3) 0.0866(3)
H5 H 0.3622 0.3071 0.0508
C2 C 0.4144(3) -0.1112(3) 0.1260(3)
H6 H 0.3644 -0.0721 0.1192
C3 C 0.5575(3) -0.1137(3) 0.1379(3)
H7 H 0.6059 -0.0759 0.1395
C4 C 0.5561(3) -0.2339(3) 0.1431(3)
H8 H 0.6044 -0.2755 0.1480
C5 C 0.4189(3) -0.2320(3) 0.1321(3)
H9 H 0.3709 -0.2721 0.1295
C6 C 0.5623(3) 0.1407(3) 0.1885(3)
H10 H 0.6148 0.1007 0.2240
C7 C 0.5595(3) 0.2620(3) 0.1925(3)
H11 H 0.6111 0.3015 0.2315
C8 C 0.4860(2) 0.0800(3) 0.1311(3)
C9 C 0.4107(3) 0.1449(3) 0.0788(3)
H12 H 0.3584 0.1078 0.0386
C10 C 0.4852(2) -0.0495(3) 0.1300(3)
Co1D Co 0.50988(3) 0.48548(4) -0.14836(3)
Co1B Co 0.50988(3) 0.51452(4) 0.35164(3)
Co1_2 Co 0.49012(3) -0.48548(4) 0.14836(3)
O2D O 0.37668(18) 0.5199(2) 0.01984(18)
O3B O 0.59247(17) 0.5139(2) 0.28746(17)
N2_2 N 0.48867(19) 0.7061(3) 0.14162(19)
loop_
_geom_bond_atom_site_label_1
_geom_bond_atom_site_label_2
_geom_bond_site_symmetry_1
_geom_bond_site_symmetry_2
Co1 O1 1_555 1_555
P1 H1 1_555 1_555
P2 H2 1_555 1_555
O1 P2 1_555 1_555
O2 P2 1_555 1_555
O3 Co1 1_555 1_555
N1 Co1 1_555 1_555
N2 C4 1_555 1_555
O4 P1 1_555 1_555
O5 P1 1_555 1_555
H3 O5 1_555 1_555
O6 P2 1_555 1_555
H4 O6 1_555 1_555
C1 N1 1_555 1_555
H5 C1 1_555 1_555
C2 H6 1_555 1_555
C3 H7 1_555 1_555
C4 C3 1_555 1_555
H8 C4 1_555 1_555
C5 N2 1_555 1_555
H9 C5 1_555 1_555
C6 H10 1_555 1_555
C7 N1 1_555 1_555
H11 C7 1_555 1_555
C8 C6 1_555 1_555
C9 C1 1_555 1_555
H12 C9 1_555 1_555
C10 C2 1_555 1_555
Co1D O2 1_555 1_555
Co1B O3 1_555 1_555
Co1_2 N2 1_555 1_555
O2D Co1 1_555 1_555
O3B Co1 1_555 1_555
N2_2 Co1 1_555 1_555
P1 O3 1_555 1_555
C2 C5 1_555 1_555
C3 C10 1_555 1_555
C6 C7 1_555 1_555
C8 C9 1_555 1_555
C8 C10 1_555 1_555
Co1B O3B 1_555 1_555

#END
