
#######################################################################
#
#                 Cambridge Crystallographic Data Centre
#                                CCDC 
#
#######################################################################
#
# If this CIF has been generated from an entry in the Cambridge 
# Structural Database, then it will include bibliographic, chemical, 
# crystal, experimental, refinement or atomic coordinate data resulting 
# from the CCDC's data processing and validation procedures.
#
#######################################################################

data_JETTOS
_symmetry_cell_setting           monoclinic
_symmetry_space_group_name_H-M   'P 21/n'
_symmetry_Int_Tables_number      14
_space_group_name_Hall           '-P 2yn'
loop_
_symmetry_equiv_pos_site_id
_symmetry_equiv_pos_as_xyz
1 x,y,z
2 1/2-x,1/2+y,1/2-z
3 -x,-y,-z
4 1/2+x,1/2-y,1/2+z
_cell_length_a                   11.5849(8)
_cell_length_b                   18.4697(13)
_cell_length_c                   12.2645(9)
_cell_angle_alpha                90
_cell_angle_beta                 94.1790(10)
_cell_angle_gamma                90
_cell_volume                     2617.25
loop_
_atom_site_label
_atom_site_type_symbol
_atom_site_fract_x
_atom_site_fract_y
_atom_site_fract_z
C1 C -0.2769(6) 0.3896(3) -0.0277(5)
H1 H -0.2353 0.4245 -0.0630
C2 C -0.3832(5) 0.3643(3) -0.0609(5)
H2 H -0.4289 0.3778 -0.1231
C3 C -0.4094(5) 0.3140(3) 0.0168(4)
H3 H -0.4779 0.2877 0.0160
C4 C -0.6379(5) 0.2476(3) 0.3037(5)
H4 H -0.7046 0.2230 0.3199
C5 C -0.5389(4) 0.2177(2) 0.2849(4)
H5 H -0.5254 0.1681 0.2860
C6 C -0.2804(7) 0.1267(4) 0.5179(6)
H6 H -0.2962 0.1178 0.5899
C7 C -0.2171(7) 0.0856(4) 0.4513(7)
H7 H -0.1803 0.0423 0.4707
C8 C -0.2170(5) 0.1167(3) 0.3571(4)
H8 H -0.1792 0.0982 0.2988
C9 C -0.1210(4) 0.1779(2) 0.0912(4)
H9 H -0.1790 0.1563 0.0457
C10 C -0.0098(5) 0.1718(3) 0.0774(5)
H10 H 0.0226 0.1448 0.0233
C11 C 0.0488(5) 0.2114(3) 0.1554(5)
H11 H 0.1285 0.2181 0.1653
C12 C -0.6270(5) 0.3206(3) 0.2954(5)
H12 H -0.6831 0.3557 0.3043
N1 N -0.3225(4) 0.3090(2) 0.0927(3)
N2 N -0.2429(4) 0.3557(2) 0.0640(4)
H13 H -0.1776 0.3629 0.1004
N3 N -0.5134(5) 0.3308(3) 0.2709(4)
H14 H -0.4821 0.3723 0.2615
N4 N -0.1413(3) 0.2186(2) 0.1783(3)
N5 N -0.0359(5) 0.2404(3) 0.2182(5)
H15 H -0.0226 0.2680 0.2741
N6 N -0.2769(4) 0.1783(2) 0.3528(3)
N7 N -0.3152(6) 0.1846(4) 0.4526(5)
H16 H -0.3562 0.2201 0.4733
N8 N -0.4592(4) 0.2677(2) 0.2639(3)
Mo1 Mo -0.40128(3) 0.07008(2) 0.03706(3)
Mo2 Mo -0.65534(3) 0.11794(2) -0.05730(3)
Mo3 Mo -0.76411(4) 0.02617(2) 0.13735(3)
Mo4 Mo -0.49464(4) 0.01978(2) -0.23221(3)
O1 O -0.2139(3) 0.34660(18) 0.3221(3)
O2 O -0.6362(3) 0.18962(18) 0.0280(3)
O3 O -0.7852(3) 0.07152(17) -0.0041(3)
O4 O -0.4899(3) 0.10701(16) -0.0915(2)
O5 O -0.5705(2) 0.03561(15) 0.0679(2)
O6 O -0.3889(3) 0.14444(17) 0.1180(3)
O7 O -0.5042(3) -0.06023(19) -0.3003(3)
O8 O -0.5469(3) 0.08346(19) -0.3228(3)
O9 O -0.3676(3) -0.00523(16) 0.1448(2)
O10 O -0.2674(3) 0.06683(17) -0.0206(3)
O11 O -0.8993(3) -0.0042(2) 0.1571(3)
O12 O -0.7446(3) 0.1015(2) 0.2153(3)
O13 O -0.6656(3) -0.03779(17) 0.2260(3)
Cu1 Cu -0.29891(5) 0.24455(3) 0.22500(5)
C1B C -0.7231(6) -0.3896(3) 0.0277(5)
H1B H -0.7647 -0.4245 0.0630
C2B C -0.6168(5) -0.3643(3) 0.0609(5)
H2B H -0.5711 -0.3778 0.1231
C3B C -0.5906(5) -0.3140(3) -0.0168(4)
H3B H -0.5221 -0.2877 -0.0160
C4B C -0.3621(5) -0.2476(3) -0.3037(5)
H4B H -0.2954 -0.2230 -0.3199
C5B C -0.4611(4) -0.2177(2) -0.2849(4)
H5B H -0.4746 -0.1681 -0.2860
C6B C -0.7196(7) -0.1267(4) -0.5179(6)
H6B H -0.7038 -0.1178 -0.5899
C7B C -0.7829(7) -0.0856(4) -0.4513(7)
H7B H -0.8197 -0.0423 -0.4707
C8B C -0.7830(5) -0.1167(3) -0.3571(4)
H8B H -0.8208 -0.0982 -0.2988
C9B C -0.8790(4) -0.1779(2) -0.0912(4)
H9B H -0.8210 -0.1563 -0.0457
C10B C -0.9902(5) -0.1718(3) -0.0774(5)
H10B H -1.0226 -0.1448 -0.0233
C11B C -1.0488(5) -0.2114(3) -0.1554(5)
H11B H -1.1285 -0.2181 -0.1653
C12B C -0.3730(5) -0.3206(3) -0.2954(5)
H12B H -0.3169 -0.3557 -0.3043
N1B N -0.6775(4) -0.3090(2) -0.0927(3)
N2B N -0.7571(4) -0.3557(2) -0.0640(4)
H13B H -0.8224 -0.3629 -0.1004
N3B N -0.4866(5) -0.3308(3) -0.2709(4)
H14B H -0.5179 -0.3723 -0.2615
N4B N -0.8587(3) -0.2186(2) -0.1783(3)
N5B N -0.9641(5) -0.2404(3) -0.2182(5)
H15B H -0.9774 -0.2680 -0.2741
N6B N -0.7231(4) -0.1783(2) -0.3528(3)
N7B N -0.6848(6) -0.1846(4) -0.4526(5)
H16B H -0.6438 -0.2201 -0.4733
N8B N -0.5408(4) -0.2677(2) -0.2639(3)
Mo1B Mo -0.59872(3) -0.07008(2) -0.03706(3)
Mo2B Mo -0.34466(3) -0.11794(2) 0.05730(3)
Mo2C Mo -0.15534(3) 0.38206(2) 0.44270(3)
Mo2A Mo -0.84466(3) -0.38206(2) -0.44270(3)
Mo3B Mo -0.23589(4) -0.02617(2) -0.13735(3)
Mo4B Mo -0.50536(4) -0.01978(2) 0.23221(3)
O1C O -0.7139(3) 0.15340(18) -0.1779(3)
O1A O -0.2861(3) -0.15340(18) 0.1779(3)
O1B O -0.7861(3) -0.34660(18) -0.3221(3)
O2B O -0.3638(3) -0.18962(18) -0.0280(3)
O3B O -0.2148(3) -0.07152(17) 0.0041(3)
O4B O -0.5101(3) -0.10701(16) 0.0915(2)
O5B O -0.4295(2) -0.03561(15) -0.0679(2)
O6B O -0.6111(3) -0.14444(17) -0.1180(3)
O7B O -0.4958(3) 0.06023(19) 0.3003(3)
O8B O -0.4531(3) -0.08346(19) 0.3228(3)
O9B O -0.6324(3) 0.00523(16) -0.1448(2)
O10B O -0.7326(3) -0.06683(17) 0.0206(3)
O11B O -0.1007(3) 0.0042(2) -0.1571(3)
O12B O -0.2554(3) -0.1015(2) -0.2153(3)
O13B O -0.3344(3) 0.03779(17) -0.2260(3)
Cu1B Cu -0.70109(5) -0.24455(3) -0.22500(5)
O14 O -0.8786(6) 0.9812(3) -0.2236(6)
H17 H -0.838(10) 0.996(6) -0.190(10)
H18 H -0.932(9) 0.981(6) -0.196(9)
loop_
_geom_bond_atom_site_label_1
_geom_bond_atom_site_label_2
_geom_bond_site_symmetry_1
_geom_bond_site_symmetry_2
C1 H1 1_555 1_555
C2 C1 1_555 1_555
H2 C2 1_555 1_555
C3 C2 1_555 1_555
H3 C3 1_555 1_555
C4 H4 1_555 1_555
C5 C4 1_555 1_555
H5 C5 1_555 1_555
C6 H6 1_555 1_555
C7 C6 1_555 1_555
H7 C7 1_555 1_555
C8 C7 1_555 1_555
H8 C8 1_555 1_555
C9 H9 1_555 1_555
C10 C9 1_555 1_555
H10 C10 1_555 1_555
C11 C10 1_555 1_555
H11 C11 1_555 1_555
C12 C4 1_555 1_555
H12 C12 1_555 1_555
N1 C3 1_555 1_555
N2 C1 1_555 1_555
H13 N2 1_555 1_555
N3 C12 1_555 1_555
H14 N3 1_555 1_555
N4 C9 1_555 1_555
N5 C11 1_555 1_555
H15 N5 1_555 1_555
N6 C8 1_555 1_555
N7 C6 1_555 1_555
H16 N7 1_555 1_555
N8 C5 1_555 1_555
Mo1 O4 1_555 1_555
Mo2 O2 1_555 1_555
Mo3 O3 1_555 1_555
Mo4 O4 1_555 1_555
O1 Cu1 1_555 1_555
O3 Mo2 1_555 1_555
O4 Mo2 1_555 1_555
O5 Mo1 1_555 1_555
O6 Mo1 1_555 1_555
O7 Mo4 1_555 1_555
O8 Mo4 1_555 1_555
O9 Mo1 1_555 1_555
O10 Mo1 1_555 1_555
O11 Mo3 1_555 1_555
O12 Mo3 1_555 1_555
O13 Mo3 1_555 1_555
O14 H17 1_555 1_555
H18 O14 1_555 1_555
Cu1 N1 1_555 1_555
C1B H1B 1_555 1_555
C2B C1B 1_555 1_555
H2B C2B 1_555 1_555
C3B C2B 1_555 1_555
H3B C3B 1_555 1_555
C4B H4B 1_555 1_555
C5B C4B 1_555 1_555
H5B C5B 1_555 1_555
C6B H6B 1_555 1_555
C7B C6B 1_555 1_555
H7B C7B 1_555 1_555
C8B C7B 1_555 1_555
H8B C8B 1_555 1_555
C9B H9B 1_555 1_555
C10B C9B 1_555 1_555
H10B C10B 1_555 1_555
C11B C10B 1_555 1_555
H11B C11B 1_555 1_555
C12B C4B 1_555 1_555
H12B C12B 1_555 1_555
N1B C3B 1_555 1_555
N2B C1B 1_555 1_555
H13B N2B 1_555 1_555
N3B C12B 1_555 1_555
H14B N3B 1_555 1_555
N4B C9B 1_555 1_555
N5B C11B 1_555 1_555
H15B N5B 1_555 1_555
N6B C8B 1_555 1_555
N7B C6B 1_555 1_555
H16B N7B 1_555 1_555
N8B C5B 1_555 1_555
Mo1B O5 1_555 1_555
Mo2B O9 1_555 1_555
Mo2C O1 1_555 1_555
Mo2A O1B 1_555 1_555
Mo3B O10 1_555 1_555
Mo4B O5 1_555 1_555
O1C Mo2 1_555 1_555
O1A Mo2B 1_555 1_555
O1B Cu1B 1_555 1_555
O2B Mo2B 1_555 1_555
O3B Mo2B 1_555 1_555
O4B Mo1B 1_555 1_555
O5B Mo1 1_555 1_555
O6B Mo1B 1_555 1_555
O7B Mo4B 1_555 1_555
O8B Mo4B 1_555 1_555
O9B Mo2 1_555 1_555
O10B Mo3 1_555 1_555
O11B Mo3B 1_555 1_555
O12B Mo3B 1_555 1_555
O13B Mo4 1_555 1_555
Cu1B N1B 1_555 1_555
N1 N2 1_555 1_555
N3 N8 1_555 1_555
N4 N5 1_555 1_555
N4 Cu1 1_555 1_555
N6 N7 1_555 1_555
N6 Cu1 1_555 1_555
N8 Cu1 1_555 1_555
Mo2 O5 1_555 1_555
Mo3 O5 1_555 1_555
Mo4 O5B 1_555 1_555
Mo4 O9B 1_555 1_555
O6 Cu1 1_555 1_555
O9 Mo4B 1_555 1_555
O13 Mo4B 1_555 1_555
N1B N2B 1_555 1_555
N3B N8B 1_555 1_555
N4B N5B 1_555 1_555
N4B Cu1B 1_555 1_555
N6B N7B 1_555 1_555
N6B Cu1B 1_555 1_555
N8B Cu1B 1_555 1_555
Mo1B O5B 1_555 1_555
Mo1B O9B 1_555 1_555
Mo1B O10B 1_555 1_555
Mo2B O4B 1_555 1_555
Mo2B O5B 1_555 1_555
Mo3B O3B 1_555 1_555
Mo3B O5B 1_555 1_555
Mo3B O13B 1_555 1_555
Mo4B O4B 1_555 1_555
O6B Cu1B 1_555 1_555

#END
