
#######################################################################
#
#                 Cambridge Crystallographic Data Centre
#                                CCDC 
#
#######################################################################
#
# If this CIF has been generated from an entry in the Cambridge 
# Structural Database, then it will include bibliographic, chemical, 
# crystal, experimental, refinement or atomic coordinate data resulting 
# from the CCDC's data processing and validation procedures.
#
#######################################################################

data_JETTUY
_symmetry_cell_setting           triclinic
_symmetry_space_group_name_H-M   'P -1'
_symmetry_Int_Tables_number      2
_space_group_name_Hall           '-P 1'
loop_
_symmetry_equiv_pos_site_id
_symmetry_equiv_pos_as_xyz
1 x,y,z
2 -x,-y,-z
_cell_length_a                   9.429(3)
_cell_length_b                   9.875(4)
_cell_length_c                   12.591(4)
_cell_angle_alpha                71.427(7)
_cell_angle_beta                 81.358(7)
_cell_angle_gamma                72.474(7)
_cell_volume                     1057.8
loop_
_atom_site_label
_atom_site_type_symbol
_atom_site_fract_x
_atom_site_fract_y
_atom_site_fract_z
Cu1 Cu -0.28306(14) -0.19696(13) 0.29321(10)
Mo1 Mo -0.10805(9) -0.11481(8) 0.01774(7)
Mo2 Mo -0.21484(9) 0.14024(8) 0.14241(7)
Mo3 Mo -0.09027(9) 0.07246(9) -0.26342(7)
Mo4 Mo -0.41260(9) 0.13455(9) -0.11331(7)
O1 O -0.4886(7) 0.1283(8) -0.2265(6)
O2 O -0.5117(7) 0.2970(7) -0.0896(6)
O3 O -0.5000 0.0000 0.0000
O4 O -0.2150(7) -0.0681(6) -0.1075(5)
O5 O -0.2583(7) 0.1000(6) 0.0185(5)
O6 O 0.0497(7) -0.2481(6) -0.0114(5)
O7 O -0.2014(7) -0.2091(7) 0.1343(5)
O8 O 0.0159(7) 0.0338(6) -0.1052(5)
O9 O -0.3022(7) 0.0195(7) 0.2429(5)
O10 O -0.3262(7) 0.3128(7) 0.1388(5)
O11 O -0.0644(7) 0.1216(6) 0.2363(5)
O12 O -0.1780(7) 0.0427(7) -0.3599(6)
O13 O 0.0136(7) 0.1894(7) -0.3387(5)
O14 O -0.2479(7) 0.2088(7) -0.2074(5)
C1 C -0.3041(12) -0.1103(11) 0.4975(9)
H1 H -0.2363 -0.0547 0.4658
C2 C -0.4577(13) -0.2142(13) 0.6179(10)
H2 H -0.5165 -0.2443 0.6824
C3 C -0.4411(12) -0.2541(11) 0.5229(9)
H3 H -0.4878 -0.3178 0.5103
C4 C -0.1693(12) -0.5087(13) 0.4349(9)
H4 H -0.1474 -0.4798 0.4927
C5 C -0.1382(15) -0.6496(12) 0.4334(10)
H5 H -0.0954 -0.7345 0.4892
C6 C -0.2430(12) -0.5007(11) 0.2811(9)
H6 H -0.2843 -0.4671 0.2117
N1 N -0.3458(9) -0.1869(9) 0.4487(7)
N2 N -0.3711(11) -0.1213(10) 0.5997(8)
H10 H -0.3609 -0.0772 0.6458
N3 N -0.2379(9) -0.4119(8) 0.3397(7)
N4 N -0.1825(10) -0.6429(9) 0.3325(8)
H11 H -0.1729 -0.7168 0.3073
Cu1A Cu -0.71694(14) 0.19696(13) -0.29321(10)
Cu1A_2 Cu 0.28306(14) 0.19696(13) -0.29321(10)
Cu1_2 Cu 0.71694(14) -0.19696(13) 0.29321(10)
Mo1A Mo 0.10805(9) 0.11481(8) -0.01774(7)
Mo2A Mo 0.21484(9) -0.14024(8) -0.14241(7)
Mo3A Mo 0.09027(9) -0.07246(9) 0.26342(7)
Mo4A Mo -0.58740(9) -0.13455(9) 0.11331(7)
Mo4A_2 Mo 0.41260(9) -0.13455(9) 0.11331(7)
O1A O -0.5114(7) -0.1283(8) 0.2265(6)
O1A_2 O 0.4886(7) -0.1283(8) 0.2265(6)
O1_2 O 0.5114(7) 0.1283(8) -0.2265(6)
O2A O 0.5117(7) -0.2970(7) 0.0896(6)
O3_2 O 0.5000 0.0000 0.0000
O4A O 0.2150(7) 0.0681(6) 0.1075(5)
O5A O 0.2583(7) -0.1000(6) -0.0185(5)
O6A O -0.0497(7) 0.2481(6) 0.0114(5)
O7A O 0.2014(7) 0.2091(7) -0.1343(5)
O8A O -0.0159(7) -0.0338(6) 0.1052(5)
O9A O 0.3022(7) -0.0195(7) -0.2429(5)
O10A O 0.3262(7) -0.3128(7) -0.1388(5)
O11A O 0.0644(7) -0.1216(6) -0.2363(5)
O12A O 0.1780(7) -0.0427(7) 0.3599(6)
O13A O -0.0136(7) -0.1894(7) 0.3387(5)
O14A O 0.2479(7) -0.2088(7) 0.2074(5)
C1A C 0.3041(12) 0.1103(11) -0.4975(9)
H1A H 0.2363 0.0547 -0.4658
C2A C 0.4577(13) 0.2142(13) -0.6179(10)
H2A H 0.5165 0.2443 -0.6824
C3A C 0.4411(12) 0.2541(11) -0.5229(9)
H3A H 0.4878 0.3178 -0.5103
C4A C 0.1693(12) 0.5087(13) -0.4349(9)
H4A H 0.1474 0.4798 -0.4927
C5A C 0.1382(15) 0.6496(12) -0.4334(10)
H5A H 0.0954 0.7345 -0.4892
C6A C 0.2430(12) 0.5007(11) -0.2811(9)
H6A H 0.2843 0.4671 -0.2117
N1A N 0.3458(9) 0.1869(9) -0.4487(7)
N2A N 0.3711(11) 0.1213(10) -0.5997(8)
H10A H 0.3609 0.0772 -0.6458
N3A N 0.2379(9) 0.4119(8) -0.3397(7)
N4A N 0.1825(10) 0.6429(9) -0.3325(8)
H11A H 0.1729 0.7168 -0.3073
C7 C -0.8723(14) -0.5235(12) 0.2148(11)
H7 H -0.9535 -0.4902 0.2608
C8 C -0.7184(12) -0.6444(12) 0.1098(9)
H8 H -0.6740 -0.7118 0.0692
C9 C -0.6681(14) -0.5441(14) 0.1137(10)
H9 H -0.5792 -0.5266 0.0772
N5 N -0.8469(16) -0.6414(13) 0.1732(11)
H12 H -0.9016 -0.7011 0.1850
N6 N -0.7568(10) -0.4662(9) 0.1761(8)
H13 H -0.7431 -0.3912 0.1897
loop_
_geom_bond_atom_site_label_1
_geom_bond_atom_site_label_2
_geom_bond_site_symmetry_1
_geom_bond_site_symmetry_2
Cu1 O7 1_555 1_555
Mo1 O4 1_555 1_555
Mo2 O5 1_555 1_555
Mo3 O4 1_555 1_555
Mo4 O1 1_555 1_555
O1 Cu1A 1_555 1_555
O2 Mo4 1_555 1_555
O3 Mo4 1_555 1_555
O4 Mo4 1_555 1_555
O5 Mo1 1_555 1_555
O6 Mo1 1_555 1_555
O7 Mo1 1_555 1_555
O8 Mo1 1_555 1_555
O9 Cu1 1_555 1_555
O10 Mo2 1_555 1_555
O11 Mo2 1_555 1_555
O12 Mo3 1_555 1_555
O13 Mo3 1_555 1_555
O14 Mo3 1_555 1_555
C1 H1 1_555 1_555
C2 H2 1_555 1_555
C3 C2 1_555 1_555
H3 C3 1_555 1_555
C4 H4 1_555 1_555
C5 C4 1_555 1_555
H5 C5 1_555 1_555
C6 H6 1_555 1_555
C7 H7 1_555 1_555
C8 H8 1_555 1_555
C9 C8 1_555 1_555
H9 C9 1_555 1_555
N1 Cu1 1_555 1_555
N2 C1 1_555 1_555
H10 N2 1_555 1_555
N3 Cu1 1_555 1_555
N4 C5 1_555 1_555
H11 N4 1_555 1_555
N5 C7 1_555 1_555
H12 N5 1_555 1_555
N6 C7 1_555 1_555
H13 N6 1_555 1_555
Cu1A_2 O1_2 1_555 1_555
Cu1_2 O1A_2 1_555 1_555
Mo1A O8 1_555 1_555
Mo2A O6 1_555 1_555
Mo3A O11 1_555 1_555
Mo4A O3 1_555 1_555
Mo4A_2 O1A_2 1_555 1_555
O1A Cu1 1_555 1_555
O2A Mo4A_2 1_555 1_555
O3_2 Mo4A_2 1_555 1_555
O4A Mo1A 1_555 1_555
O5A Mo1A 1_555 1_555
O6A Mo2 1_555 1_555
O7A Cu1A_2 1_555 1_555
O8A Mo1 1_555 1_555
O9A Cu1A_2 1_555 1_555
O10A Mo2A 1_555 1_555
O11A Mo3 1_555 1_555
O12A Mo3A 1_555 1_555
O13A Mo3A 1_555 1_555
O14A Mo3A 1_555 1_555
C1A H1A 1_555 1_555
C2A H2A 1_555 1_555
C3A C2A 1_555 1_555
H3A C3A 1_555 1_555
C4A H4A 1_555 1_555
C5A C4A 1_555 1_555
H5A C5A 1_555 1_555
C6A H6A 1_555 1_555
N1A Cu1A_2 1_555 1_555
N2A C1A 1_555 1_555
H10A N2A 1_555 1_555
N3A Cu1A_2 1_555 1_555
N4A C5A 1_555 1_555
H11A N4A 1_555 1_555
Mo2 O9 1_555 1_555
Mo2 O8A 1_555 1_555
Mo3 O8 1_555 1_555
Mo4 O5 1_555 1_555
Mo4 O14 1_555 1_555
O8 Mo2A 1_555 1_555
C1 N1 1_555 1_555
C2 N2 1_555 1_555
C3 N1 1_555 1_555
C4 N3 1_555 1_555
C6 N3 1_555 1_555
C6 N4 1_555 1_555
C8 N5 1_555 1_555
C9 N6 1_555 1_555
Mo1A O6A 1_555 1_555
Mo1A O7A 1_555 1_555
Mo1A O8A 1_555 1_555
Mo2A O5A 1_555 1_555
Mo2A O9A 1_555 1_555
Mo2A O11A 1_555 1_555
Mo3A O4A 1_555 1_555
Mo3A O8A 1_555 1_555
Mo4A O1A 1_555 1_555
Mo4A_2 O4A 1_555 1_555
Mo4A_2 O5A 1_555 1_555
Mo4A_2 O14A 1_555 1_555
C1A N1A 1_555 1_555
C2A N2A 1_555 1_555
C3A N1A 1_555 1_555
C4A N3A 1_555 1_555
C6A N3A 1_555 1_555
C6A N4A 1_555 1_555

#END
