
#######################################################################
#
#                 Cambridge Crystallographic Data Centre
#                                CCDC 
#
#######################################################################
#
# If this CIF has been generated from an entry in the Cambridge 
# Structural Database, then it will include bibliographic, chemical, 
# crystal, experimental, refinement or atomic coordinate data resulting 
# from the CCDC's data processing and validation procedures.
#
#######################################################################

data_JETVAF
_symmetry_cell_setting           monoclinic
_symmetry_space_group_name_H-M   'P 21/c'
_symmetry_Int_Tables_number      14
_space_group_name_Hall           '-P 2ybc'
loop_
_symmetry_equiv_pos_site_id
_symmetry_equiv_pos_as_xyz
1 x,y,z
2 -x,1/2+y,1/2-z
3 -x,-y,-z
4 x,1/2-y,1/2+z
_cell_length_a                   10.601(2)
_cell_length_b                   6.7217(13)
_cell_length_c                   12.347(3)
_cell_angle_alpha                90
_cell_angle_beta                 112.412(14)
_cell_angle_gamma                90
_cell_volume                     813.352
loop_
_atom_site_label
_atom_site_type_symbol
_atom_site_fract_x
_atom_site_fract_y
_atom_site_fract_z
Ca1 Ca -0.5809(1) 0.1329(1) 0.1799(1)
O1 O -0.3723(1) 0.2053(1) 0.1419(1)
O2 O -0.3394(1) 0.5320(1) 0.1630(1)
O3 O -0.4216(1) 0.2058(1) -0.1340(1)
O4 O -0.3809(1) 0.5217(1) -0.1510(1)
C1 C -0.3282(1) 0.3686(1) 0.1201(1)
C2 C -0.2553(1) 0.3648(2) 0.0336(1)
C3 C -0.3588(1) 0.3643(1) -0.0921(1)
O5 O -0.6616(1) 0.1356(1) -0.0290(1)
O6 O -0.8353(1) 0.1453(2) 0.1042(1)
H1 H -0.2020(17) 0.2456(26) 0.0477(15)
H2 H -0.1937(17) 0.4823(24) 0.0504(14)
H3 H -0.6575(20) 0.2287(20) -0.0686(18)
H4 H -0.6390(20) 0.0412(31) -0.0542(17)
H5 H -0.8800(21) 0.0559(34) 0.1242(17)
H6 H -0.8680(23) 0.1369(27) 0.0316(21)
O2A O -0.6606(1) 0.0320(1) 0.3370(1)
Ca1A Ca -0.4191(1) 0.6329(1) 0.3201(1)
Ca1B Ca -0.4191(1) 0.8671(1) -0.1799(1)
Ca1C Ca -0.5809(1) 0.3671(1) -0.3201(1)
Ca1B_2 Ca -0.4191(1) -0.1329(1) -0.1799(1)
O3C O -0.4216(1) 0.2942(1) 0.3660(1)
O4C O -0.3809(1) -0.0217(1) 0.3490(1)
O3B O -0.5784(1) -0.2058(1) 0.1340(1)
O4B O -0.6191(1) 0.4783(1) 0.1510(1)
O7 O 0.0044(1) 0.3554(2) 0.3633(1)
H7 H 0.0394(30) 0.3960(40) 0.3152(24)
H8 H -0.0244(22) 0.2406(39) 0.3467(21)
O8 O -0.1247(1) -0.0055(2) 0.2896(1)
H9 H -0.1257(24) -0.1019(36) 0.3368(22)
H10 H -0.2114(26) 0.0428(36) 0.2512(18)
loop_
_geom_bond_atom_site_label_1
_geom_bond_atom_site_label_2
_geom_bond_site_symmetry_1
_geom_bond_site_symmetry_2
Ca1 O1 1_555 1_555
O1 C1 1_555 1_555
O2 C1 1_555 1_555
O3 C3 1_555 1_555
O4 C3 1_555 1_555
C1 C2 1_555 1_555
C2 C3 1_555 1_555
O5 Ca1 1_555 1_555
O6 Ca1 1_555 1_555
O7 H7 1_555 1_555
O8 H9 1_555 1_555
H1 C2 1_555 1_555
H2 C2 1_555 1_555
H3 O5 1_555 1_555
H4 O5 1_555 1_555
H5 O6 1_555 1_555
H6 O6 1_555 1_555
H8 O7 1_555 1_555
H10 O8 1_555 1_555
O2A Ca1 1_555 1_555
Ca1A O2 1_555 1_555
Ca1B O4 1_555 1_555
Ca1C O3 1_555 1_555
Ca1B_2 O3 1_555 1_555
O3C Ca1 1_555 1_555
O4C Ca1 1_555 1_555
O3B Ca1 1_555 1_555
O4B Ca1 1_555 1_555
O4 Ca1C 1_555 1_555
Ca1A O3C 1_555 1_555
Ca1A O4B 1_555 1_555

#END
