
#######################################################################
#
#                 Cambridge Crystallographic Data Centre
#                                CCDC 
#
#######################################################################
#
# If this CIF has been generated from an entry in the Cambridge 
# Structural Database, then it will include bibliographic, chemical, 
# crystal, experimental, refinement or atomic coordinate data resulting 
# from the CCDC's data processing and validation procedures.
#
#######################################################################

data_JETXIQ
_symmetry_cell_setting           monoclinic
_symmetry_space_group_name_H-M   'P 21/n'
_symmetry_Int_Tables_number      14
_space_group_name_Hall           '-P 2yn'
loop_
_symmetry_equiv_pos_site_id
_symmetry_equiv_pos_as_xyz
1 x,y,z
2 1/2-x,1/2+y,1/2-z
3 -x,-y,-z
4 1/2+x,1/2-y,1/2+z
_cell_length_a                   11.670(2)
_cell_length_b                   14.742(3)
_cell_length_c                   19.391(4)
_cell_angle_alpha                90
_cell_angle_beta                 102.29(3)
_cell_angle_gamma                90
_cell_volume                     3259.56
loop_
_atom_site_label
_atom_site_type_symbol
_atom_site_fract_x
_atom_site_fract_y
_atom_site_fract_z
Ni1 Ni 0.0000 0.0000 0.0000
Zn1 Zn 0.26121(7) 0.03903(5) 0.12237(4)
O1 O 0.1619(5) -0.0252(4) 0.1741(3)
O2 O 0.0292(8) -0.0818(5) 0.0845(3)
O3 O -0.1677(5) -0.4712(4) 0.5564(3)
O4 O -0.3347(7) -0.4805(9) 0.4864(6)
O5 O 0.2268(5) 0.1651(3) 0.0965(3)
O6 O 0.0431(6) 0.1187(4) 0.0582(3)
C1 C 0.0723(8) -0.0698(6) 0.1498(4)
C2 C 0.0217(7) -0.1240(6) 0.2005(4)
C3 C 0.0733(8) -0.1250(6) 0.2706(4)
H1 H 0.1400 -0.0879 0.2875
C4 C 0.0302(8) -0.1789(7) 0.3172(4)
H2 H 0.0697 -0.1787 0.3654
C5 C -0.0656(7) -0.2320(6) 0.2976(4)
C6 C -0.1162(11) -0.2327(10) 0.2262(6)
H3 H -0.1833 -0.2696 0.2099
C7 C -0.0730(11) -0.1824(10) 0.1784(6)
H4 H -0.1078 -0.1871 0.1296
C8 C -0.1108(7) -0.2898(5) 0.3488(4)
C9 C -0.0333(7) -0.3264(5) 0.4051(5)
H5 H 0.0484 -0.3158 0.4103
C10 C -0.0742(7) -0.3794(5) 0.4552(5)
H6 H -0.0199 -0.4046 0.4939
C11 C -0.1914(7) -0.3948(5) 0.4485(4)
C12 C -0.2674(9) -0.3630(9) 0.3891(6)
H7 H -0.3487 -0.3766 0.3817
C13 C -0.2262(8) -0.3121(9) 0.3409(5)
H8 H -0.2802 -0.2912 0.3002
C14 C -0.2359(8) -0.4505(6) 0.5013(5)
C15 C 0.1229(8) 0.1781(5) 0.0655(4)
C16 C 0.0868(7) 0.2735(4) 0.0453(4)
C17 C -0.0253(10) 0.2936(6) 0.0131(7)
H9 H -0.0821 0.2466 0.0026
C18 C -0.0572(10) 0.3835(6) -0.0047(7)
H10 H -0.1359 0.3960 -0.0276
C19 C 0.0181(7) 0.4518(4) 0.0090(4)
C20 C 0.1289(9) 0.4317(6) 0.0430(8)
H11 H 0.1851 0.4789 0.0551
C21 C 0.1610(9) 0.3421(7) 0.0603(9)
H12 H 0.2395 0.3298 0.0839
O7 O 0.4034(6) 0.0425(4) 0.2019(3)
C22 C 0.5028(10) 0.0070(8) 0.1993(7)
H13 H 0.5179 -0.0093 0.1547
N1 N 0.5837(11) -0.0072(10) 0.2558(8)
C23 C 0.6982(15) -0.0513(18) 0.2486(18)
H14 H 0.6899 -0.0759 0.2008
H15 H 0.7177 -0.1005 0.2831
H16 H 0.7610 -0.0059 0.2571
C24 C 0.5686(19) 0.002(3) 0.3240(11)
H17 H 0.5503 0.0649 0.3327
H18 H 0.6409 -0.0163 0.3570
H19 H 0.5040 -0.0375 0.3308
Ni1C Ni -0.5000 -0.5000 0.5000
Ni1_2 Ni 0.0000 1.0000 0.0000
Ni1C_2 Ni 0.5000 0.5000 -0.5000
Zn1B Zn -0.26121(7) -0.03903(5) -0.12237(4)
Zn1C Zn -0.23879(7) -0.53903(5) 0.62237(4)
Zn1B_2 Zn -0.26121(7) 0.96097(5) -0.12237(4)
Zn1A Zn 0.23879(7) 0.53903(5) -0.62237(4)
O1B O -0.1619(5) 0.0252(4) -0.1741(3)
O2B O -0.0292(8) 0.0818(5) -0.0845(3)
O3B O 0.1677(5) 0.4712(4) -0.5564(3)
O3C O 0.3323(5) -0.0288(4) 0.0564(3)
O3A O -0.3323(5) 0.0288(4) -0.0564(3)
O4B O 0.3347(7) 0.4805(9) -0.4864(6)
O4C O 0.1653(7) -0.0195(9) -0.0136(6)
O4A O -0.1653(7) 0.0195(9) 0.0136(6)
O5B O -0.2268(5) 0.8349(3) -0.0965(3)
O5B_2 O -0.2268(5) -0.1651(3) -0.0965(3)
O6B O -0.0431(6) 0.8813(4) -0.0582(3)
O6B_2 O -0.0431(6) -0.1187(4) -0.0582(3)
C1B C -0.0723(8) 0.0698(6) -0.1498(4)
C2B C -0.0217(7) 0.1240(6) -0.2005(4)
C3B C -0.0733(8) 0.1250(6) -0.2706(4)
H1B H -0.1400 0.0879 -0.2875
C4B C -0.0302(8) 0.1789(7) -0.3172(4)
H2B H -0.0697 0.1787 -0.3654
C5B C 0.0656(7) 0.2320(6) -0.2976(4)
C6B C 0.1162(11) 0.2327(10) -0.2262(6)
H3B H 0.1833 0.2696 -0.2099
C7B C 0.0730(11) 0.1824(10) -0.1784(6)
H4B H 0.1078 0.1871 -0.1296
C8B C 0.1108(7) 0.2898(5) -0.3488(4)
C9B C 0.0333(7) 0.3264(5) -0.4051(5)
H5B H -0.0484 0.3158 -0.4103
C10B C 0.0742(7) 0.3794(5) -0.4552(5)
H6B H 0.0199 0.4046 -0.4939
C11B C 0.1914(7) 0.3948(5) -0.4485(4)
C12B C 0.2674(9) 0.3630(9) -0.3891(6)
H7B H 0.3487 0.3766 -0.3817
C13B C 0.2262(8) 0.3121(9) -0.3409(5)
H8B H 0.2802 0.2912 -0.3002
C14B C 0.2359(8) 0.4505(6) -0.5013(5)
C15B C -0.1229(8) 0.8219(5) -0.0655(4)
C16B C -0.0868(7) 0.7265(4) -0.0453(4)
C17B C 0.0253(10) 0.7064(6) -0.0131(7)
H9B H 0.0821 0.7534 -0.0026
C18B C 0.0572(10) 0.6165(6) 0.0047(7)
H10B H 0.1359 0.6040 0.0276
C19B C -0.0181(7) 0.5482(4) -0.0090(4)
C20B C -0.1289(9) 0.5683(6) -0.0430(8)
H11B H -0.1851 0.5211 -0.0551
C21B C -0.1610(9) 0.6579(7) -0.0603(9)
H12B H -0.2395 0.6702 -0.0839
O7B O -0.4034(6) -0.0425(4) -0.2019(3)
C22B C -0.5028(10) -0.0070(8) -0.1993(7)
H13B H -0.5179 0.0093 -0.1547
N1B N -0.5837(11) 0.0072(10) -0.2558(8)
C23B C -0.6982(15) 0.0513(18) -0.2486(18)
H14B H -0.6899 0.0759 -0.2008
H15B H -0.7177 0.1005 -0.2831
H16B H -0.7610 0.0059 -0.2571
C24B C -0.5686(19) -0.002(3) -0.3240(11)
H17B H -0.5503 -0.0649 -0.3327
H18B H -0.6409 0.0163 -0.3570
H19B H -0.5040 0.0375 -0.3308
O8 O 0.355(2) -0.430(2) 0.040(3)
C25 C 0.444(3) -0.3851(15) 0.025(2)
H20 H 0.4341 -0.3550 -0.0188
N2 N 0.545(3) -0.380(2) 0.0692(11)
C26 C 0.634(3) -0.331(3) 0.0640(18)
H21 H 0.6321 -0.3183 0.0142
H22 H 0.7065 -0.3643 0.0844
H23 H 0.6323 -0.2741 0.0896
C27 C 0.544(6) -0.439(3) 0.128(2)
H24 H 0.6102 -0.4813 0.1327
H25 H 0.4705 -0.4730 0.1193
H26 H 0.5517 -0.4028 0.1707
O9 O 0.528(3) -0.2170(19) 0.197(2)
C28 C 0.468(3) -0.262(4) 0.2390(15)
H27 H 0.4959 -0.2787 0.2870
N3 N 0.3581(14) -0.2797(9) 0.1990(7)
C29 C 0.261(3) -0.340(3) 0.204(2)
H28 H 0.1972 -0.3046 0.2171
H29 H 0.2879 -0.3859 0.2408
H30 H 0.2318 -0.3701 0.1589
C30 C 0.314(3) -0.2311(15) 0.1420(14)
H31 H 0.2761 -0.1767 0.1557
H32 H 0.2561 -0.2674 0.1094
H33 H 0.3772 -0.2132 0.1186
loop_
_geom_bond_atom_site_label_1
_geom_bond_atom_site_label_2
_geom_bond_site_symmetry_1
_geom_bond_site_symmetry_2
Ni1 O2 1_555 1_555
Zn1 O1 1_555 1_555
O1 C1 1_555 1_555
O2 C1 1_555 1_555
O3 C14 1_555 1_555
O4 C14 1_555 1_555
O5 Zn1 1_555 1_555
O6 Ni1 1_555 1_555
C1 C2 1_555 1_555
C2 C3 1_555 1_555
C3 H1 1_555 1_555
C4 C3 1_555 1_555
H2 C4 1_555 1_555
C5 C4 1_555 1_555
C6 C5 1_555 1_555
H3 C6 1_555 1_555
C7 C2 1_555 1_555
H4 C7 1_555 1_555
C8 C5 1_555 1_555
C9 C8 1_555 1_555
H5 C9 1_555 1_555
C10 C9 1_555 1_555
H6 C10 1_555 1_555
C11 C10 1_555 1_555
C12 C11 1_555 1_555
H7 C12 1_555 1_555
C13 C8 1_555 1_555
H8 C13 1_555 1_555
C14 C11 1_555 1_555
C15 O5 1_555 1_555
C16 C15 1_555 1_555
C17 C16 1_555 1_555
H9 C17 1_555 1_555
C18 C17 1_555 1_555
H10 C18 1_555 1_555
C19 C18 1_555 1_555
C20 C19 1_555 1_555
H11 C20 1_555 1_555
C21 C16 1_555 1_555
H12 C21 1_555 1_555
O7 Zn1 1_555 1_555
C22 O7 1_555 1_555
H13 C22 1_555 1_555
N1 C22 1_555 1_555
C23 N1 1_555 1_555
H14 C23 1_555 1_555
H15 C23 1_555 1_555
H16 C23 1_555 1_555
C24 N1 1_555 1_555
H17 C24 1_555 1_555
H18 C24 1_555 1_555
H19 C24 1_555 1_555
O8 C25 1_555 1_555
C25 H20 1_555 1_555
N2 C25 1_555 1_555
C26 N2 1_555 1_555
H21 C26 1_555 1_555
H22 C26 1_555 1_555
H23 C26 1_555 1_555
C27 N2 1_555 1_555
H24 C27 1_555 1_555
H25 C27 1_555 1_555
H26 C27 1_555 1_555
O9 C28 1_555 1_555
C28 H27 1_555 1_555
N3 C28 1_555 1_555
C29 N3 1_555 1_555
H28 C29 1_555 1_555
H29 C29 1_555 1_555
H30 C29 1_555 1_555
C30 N3 1_555 1_555
H31 C30 1_555 1_555
H32 C30 1_555 1_555
H33 C30 1_555 1_555
Ni1C O4 1_555 1_555
Ni1_2 O6B 1_555 1_555
Ni1C_2 O4B 1_555 1_555
Zn1B O1B 1_555 1_555
Zn1C O3 1_555 1_555
Zn1B_2 O5B 1_555 1_555
Zn1A O3B 1_555 1_555
O1B C1B 1_555 1_555
O2B Ni1 1_555 1_555
O3B C14B 1_555 1_555
O3C Zn1 1_555 1_555
O3A Zn1B 1_555 1_555
O4B C14B 1_555 1_555
O4C Ni1 1_555 1_555
O4A Ni1 1_555 1_555
O5B C15B 1_555 1_555
O5B_2 Zn1B 1_555 1_555
O6B C15B 1_555 1_555
O6B_2 Ni1 1_555 1_555
C1B O2B 1_555 1_555
C2B C1B 1_555 1_555
C3B C2B 1_555 1_555
H1B C3B 1_555 1_555
C4B C3B 1_555 1_555
H2B C4B 1_555 1_555
C5B C4B 1_555 1_555
C6B C5B 1_555 1_555
H3B C6B 1_555 1_555
C7B C2B 1_555 1_555
H4B C7B 1_555 1_555
C8B C5B 1_555 1_555
C9B C8B 1_555 1_555
H5B C9B 1_555 1_555
C10B C9B 1_555 1_555
H6B C10B 1_555 1_555
C11B C10B 1_555 1_555
C12B C11B 1_555 1_555
H7B C12B 1_555 1_555
C13B C8B 1_555 1_555
H8B C13B 1_555 1_555
C14B C11B 1_555 1_555
C15B C16B 1_555 1_555
C16B C17B 1_555 1_555
C17B H9B 1_555 1_555
C18B C17B 1_555 1_555
H10B C18B 1_555 1_555
C19B C19 1_555 1_555
C20B C19B 1_555 1_555
H11B C20B 1_555 1_555
C21B C16B 1_555 1_555
H12B C21B 1_555 1_555
O7B Zn1B 1_555 1_555
C22B O7B 1_555 1_555
H13B C22B 1_555 1_555
N1B C22B 1_555 1_555
C23B N1B 1_555 1_555
H14B C23B 1_555 1_555
H15B C23B 1_555 1_555
H16B C23B 1_555 1_555
C24B N1B 1_555 1_555
H17B C24B 1_555 1_555
H18B C24B 1_555 1_555
H19B C24B 1_555 1_555
O6 C15 1_555 1_555
C6 C7 1_555 1_555
C12 C13 1_555 1_555
C20 C21 1_555 1_555
C6B C7B 1_555 1_555
C12B C13B 1_555 1_555
C18B C19B 1_555 1_555
C20B C21B 1_555 1_555

#END
