
#######################################################################
#
#                 Cambridge Crystallographic Data Centre
#                                CCDC 
#
#######################################################################
#
# If this CIF has been generated from an entry in the Cambridge 
# Structural Database, then it will include bibliographic, chemical, 
# crystal, experimental, refinement or atomic coordinate data resulting 
# from the CCDC's data processing and validation procedures.
#
#######################################################################

data_JETXOW
_symmetry_cell_setting           monoclinic
_symmetry_space_group_name_H-M   'P 21/c'
_symmetry_Int_Tables_number      14
_space_group_name_Hall           '-P 2ybc'
loop_
_symmetry_equiv_pos_site_id
_symmetry_equiv_pos_as_xyz
1 x,y,z
2 -x,1/2+y,1/2-z
3 -x,-y,-z
4 x,1/2-y,1/2+z
_cell_length_a                   7.202(3)
_cell_length_b                   9.172(4)
_cell_length_c                   12.879(4)
_cell_angle_alpha                90
_cell_angle_beta                 90.46(3)
_cell_angle_gamma                90
_cell_volume                     850.717
loop_
_atom_site_label
_atom_site_type_symbol
_atom_site_fract_x
_atom_site_fract_y
_atom_site_fract_z
C1 C 0.4956(6) 0.0026(5) 0.1736(3)
H1 H 0.4747 -0.0758 0.2177
C2 C 0.6672(6) 0.0140(5) 0.1257(3)
C3 C 0.6970(6) 0.1301(5) 0.0586(3)
H2 H 0.8102 0.1403 0.0251
C4 C 0.5556(6) 0.2308(5) 0.0421(3)
H3 H 0.5721 0.3086 -0.0033
C5 C 0.3910(6) 0.2136(5) 0.0940(3)
C6 C 0.8159(6) -0.0966(5) 0.1520(3)
C7 C 0.2320(6) 0.3214(5) 0.0872(3)
N1 N 0.3597(5) 0.0993(4) 0.1589(3)
O1 O 0.0779(4) 0.2757(4) 0.1251(2)
O2 O 0.2564(5) 0.4433(4) 0.0488(2)
O3 O 0.9860(4) -0.0582(4) 0.1540(2)
O4 O 0.7591(4) -0.2234(4) 0.1716(3)
O5 O 0.1917(4) -0.0302(4) 0.3464(2)
O6 O -0.1373(4) 0.1666(4) 0.3107(3)
Ni1 Ni 0.11278(8) 0.11696(6) 0.23636(4)
O3_2 O -0.0140(4) -0.0582(4) 0.1540(2)
O4A O 0.2409(4) 0.2766(4) 0.3284(3)
Ni1_2 Ni 1.11278(8) 0.11696(6) 0.23636(4)
Ni1A Ni 0.88722(8) -0.38304(6) 0.26364(4)
loop_
_geom_bond_atom_site_label_1
_geom_bond_atom_site_label_2
_geom_bond_site_symmetry_1
_geom_bond_site_symmetry_2
C1 H1 1_555 1_555
C2 C1 1_555 1_555
C3 C2 1_555 1_555
H2 C3 1_555 1_555
C4 C3 1_555 1_555
H3 C4 1_555 1_555
C5 C4 1_555 1_555
C6 C2 1_555 1_555
C7 C5 1_555 1_555
N1 C1 1_555 1_555
O1 C7 1_555 1_555
O2 C7 1_555 1_555
O3 C6 1_555 1_555
O4 C6 1_555 1_555
O5 Ni1 1_555 1_555
O6 Ni1 1_555 1_555
Ni1 N1 1_555 1_555
O3_2 Ni1 1_555 1_555
O4A Ni1 1_555 1_555
Ni1_2 O3 1_555 1_555
Ni1A O4 1_555 1_555
C5 N1 1_555 1_555
O1 Ni1 1_555 1_555

#END
