
#######################################################################
#
#                 Cambridge Crystallographic Data Centre
#                                CCDC 
#
#######################################################################
#
# If this CIF has been generated from an entry in the Cambridge 
# Structural Database, then it will include bibliographic, chemical, 
# crystal, experimental, refinement or atomic coordinate data resulting 
# from the CCDC's data processing and validation procedures.
#
#######################################################################

data_JEVBOC01
_symmetry_cell_setting           monoclinic
_symmetry_space_group_name_H-M   'P 21/c'
_symmetry_Int_Tables_number      14
_space_group_name_Hall           '-P 2ybc'
loop_
_symmetry_equiv_pos_site_id
_symmetry_equiv_pos_as_xyz
1 x,y,z
2 -x,1/2+y,1/2-z
3 -x,-y,-z
4 x,1/2-y,1/2+z
_cell_length_a                   9.332(8)
_cell_length_b                   8.348(7)
_cell_length_c                   14.648(12)
_cell_angle_alpha                90
_cell_angle_beta                 106.655(10)
_cell_angle_gamma                90
_cell_volume                     1093.26
loop_
_atom_site_label
_atom_site_type_symbol
_atom_site_fract_x
_atom_site_fract_y
_atom_site_fract_z
Ni1 Ni 0.0000 0.0000 0.0000
S1 S -0.51105(6) 0.10153(8) -0.33572(4)
O1 O 0.83960(17) -0.1580(2) 0.42802(13)
O2 O 0.79773(15) -0.39249(19) 0.49114(11)
O3 O 0.10764(16) -0.22293(18) 0.01879(10)
H1 H 0.0266 -0.2711 -0.0090
H2 H 0.1836 -0.2505 0.0014
N1 N -0.04229(19) -0.0111(2) -0.14869(13)
N2 N -0.35663(19) 0.1839(2) -0.44678(12)
C1 C 0.0628(3) -0.0569(3) -0.18896(17)
H3 H 0.1551 -0.0891 -0.1493
C2 C 0.0421(3) -0.0591(3) -0.28564(17)
H4 H 0.1182 -0.0935 -0.3103
C3 C -0.0934(3) -0.0094(3) -0.34554(16)
H5 H -0.1102 -0.0099 -0.4113
C4 C -0.2046(2) 0.0416(3) -0.30569(16)
C5 C -0.1740(2) 0.0366(3) -0.20753(16)
H6 H -0.2488 0.0680 -0.1808
C6 C -0.3465(2) 0.1081(3) -0.36690(15)
C7 C -0.4992(2) 0.2442(3) -0.48694(15)
C8 C -0.5975(2) 0.2129(3) -0.43570(15)
C9 C 0.7595(2) -0.2571(3) 0.45340(15)
C10 C -0.5313(3) 0.3305(3) -0.58017(16)
H7 H -0.6355 0.3578 -0.6017
H8 H -0.4723 0.4265 -0.5722
H9 H -0.5066 0.2627 -0.6264
Ni1A Ni 1.0000 -0.5000 0.5000
Ni1A_2 Ni -1.0000 0.5000 -0.5000
S1B S 0.51105(6) -0.10153(8) 0.33572(4)
O1B O -0.83960(17) 0.1580(2) -0.42802(13)
O2A O 0.20227(15) 0.10751(19) 0.00886(11)
O2C O -0.20227(15) -0.10751(19) -0.00886(11)
O2B O -0.79773(15) 0.39249(19) -0.49114(11)
O3B O -0.10764(16) 0.22293(18) -0.01879(10)
H1B H -0.0266 0.2711 0.0090
H2B H -0.1836 0.2505 -0.0014
N1B N 0.04229(19) 0.0111(2) 0.14869(13)
N2B N 0.35663(19) -0.1839(2) 0.44678(12)
C1B C -0.0628(3) 0.0569(3) 0.18896(17)
H3B H -0.1551 0.0891 0.1493
C2B C -0.0421(3) 0.0591(3) 0.28564(17)
H4B H -0.1182 0.0935 0.3103
C3B C 0.0934(3) 0.0094(3) 0.34554(16)
H5B H 0.1102 0.0099 0.4113
C4B C 0.2046(2) -0.0416(3) 0.30569(16)
C5B C 0.1740(2) -0.0366(3) 0.20753(16)
H6B H 0.2488 -0.0680 0.1808
C6B C 0.3465(2) -0.1081(3) 0.36690(15)
C7B C 0.4992(2) -0.2442(3) 0.48694(15)
C8B C 0.5975(2) -0.2129(3) 0.43570(15)
C9B C -0.7595(2) 0.2571(3) -0.45340(15)
C10B C 0.5313(3) -0.3305(3) 0.58017(16)
H7B H 0.6355 -0.3578 0.6017
H8B H 0.4723 -0.4265 0.5722
H9B H 0.5066 -0.2627 0.6264
loop_
_geom_bond_atom_site_label_1
_geom_bond_atom_site_label_2
_geom_bond_site_symmetry_1
_geom_bond_site_symmetry_2
Ni1 O3 1_555 1_555
S1 C6 1_555 1_555
O1 C9 1_555 1_555
O2 C9 1_555 1_555
O3 H1 1_555 1_555
H2 O3 1_555 1_555
N1 Ni1 1_555 1_555
N2 C6 1_555 1_555
C1 N1 1_555 1_555
H3 C1 1_555 1_555
C2 C1 1_555 1_555
H4 C2 1_555 1_555
C3 C2 1_555 1_555
H5 C3 1_555 1_555
C4 C3 1_555 1_555
C5 N1 1_555 1_555
H6 C5 1_555 1_555
C6 C4 1_555 1_555
C7 N2 1_555 1_555
C8 S1 1_555 1_555
C9 C8B 1_555 1_555
C10 C7 1_555 1_555
H7 C10 1_555 1_555
H8 C10 1_555 1_555
H9 C10 1_555 1_555
Ni1A O2 1_555 1_555
Ni1A_2 O2B 1_555 1_555
S1B C6B 1_555 1_555
O1B C9B 1_555 1_555
O2A Ni1 1_555 1_555
O2C Ni1 1_555 1_555
O2B C9B 1_555 1_555
O3B Ni1 1_555 1_555
H1B O3B 1_555 1_555
H2B O3B 1_555 1_555
N1B Ni1 1_555 1_555
N2B C6B 1_555 1_555
C1B N1B 1_555 1_555
H3B C1B 1_555 1_555
C2B C1B 1_555 1_555
H4B C2B 1_555 1_555
C3B C2B 1_555 1_555
H5B C3B 1_555 1_555
C4B C3B 1_555 1_555
C5B N1B 1_555 1_555
H6B C5B 1_555 1_555
C6B C4B 1_555 1_555
C7B N2B 1_555 1_555
C8B S1B 1_555 1_555
C9B C8 1_555 1_555
C10B C7B 1_555 1_555
H7B C10B 1_555 1_555
H8B C10B 1_555 1_555
H9B C10B 1_555 1_555
C4 C5 1_555 1_555
C7 C8 1_555 1_555
C4B C5B 1_555 1_555
C7B C8B 1_555 1_555

#END
