
#######################################################################
#
#                 Cambridge Crystallographic Data Centre
#                                CCDC 
#
#######################################################################
#
# If this CIF has been generated from an entry in the Cambridge 
# Structural Database, then it will include bibliographic, chemical, 
# crystal, experimental, refinement or atomic coordinate data resulting 
# from the CCDC's data processing and validation procedures.
#
#######################################################################

data_JEVBUI
_symmetry_cell_setting           monoclinic
_symmetry_space_group_name_H-M   'P 21/c'
_symmetry_Int_Tables_number      14
_space_group_name_Hall           '-P 2ybc'
loop_
_symmetry_equiv_pos_site_id
_symmetry_equiv_pos_as_xyz
1 x,y,z
2 -x,1/2+y,1/2-z
3 -x,-y,-z
4 x,1/2-y,1/2+z
_cell_length_a                   11.252(3)
_cell_length_b                   11.441(3)
_cell_length_c                   16.478(4)
_cell_angle_alpha                90
_cell_angle_beta                 97.713(3)
_cell_angle_gamma                90
_cell_volume                     2102.09
loop_
_atom_site_label
_atom_site_type_symbol
_atom_site_fract_x
_atom_site_fract_y
_atom_site_fract_z
Cu1 Cu -0.37442(4) -0.32594(4) -0.45096(3)
S1 S 0.00604(10) -0.02614(10) -0.15521(8)
S2 S 0.13478(9) -0.26216(10) -0.48115(8)
O1 O 0.3564(3) -0.0529(3) -0.1364(2)
O2 O 0.2366(2) 0.0703(2) -0.08034(19)
O3 O 0.3695(3) -0.3577(3) -0.4210(2)
O4 O 0.4810(2) -0.2315(3) -0.48269(18)
O5 O -0.4237(2) -0.4217(2) -0.54895(18)
H1 H -0.3891 -0.4881 -0.5461
H2 H -0.4973 -0.4205 -0.5695
N1 N -0.3370(3) -0.2429(3) -0.3411(2)
N2 N 0.0228(3) -0.1998(3) -0.2509(2)
N3 N -0.2601(3) -0.2087(3) -0.5268(2)
N4 N 0.1358(3) -0.0868(3) -0.5785(2)
C1 C -0.4204(4) -0.1958(4) -0.3007(3)
H3 H -0.5006 -0.2121 -0.3184
C2 C -0.3924(4) -0.1239(5) -0.2337(3)
H4 H -0.4532 -0.0921 -0.2076
C3 C -0.2732(4) -0.0991(5) -0.2053(3)
H5 H -0.2530 -0.0499 -0.1607
C4 C -0.1848(4) -0.1497(4) -0.2453(3)
C5 C -0.2223(4) -0.2210(4) -0.3125(3)
H6 H -0.1637 -0.2556 -0.3392
C6 C -0.0557(4) -0.1335(4) -0.2210(3)
C7 C 0.1386(4) -0.1694(4) -0.2213(3)
C8 C 0.1470(4) -0.0766(4) -0.1680(3)
C9 C 0.2556(4) -0.0172(4) -0.1249(3)
C10 C 0.2382(4) -0.2378(4) -0.2481(3)
H7 H 0.3134 -0.2070 -0.2226
H8 H 0.2345 -0.2327 -0.3065
H9 H 0.2312 -0.3181 -0.2324
C11 C -0.3105(4) -0.1383(4) -0.5853(3)
H10 H -0.3938 -0.1345 -0.5942
C12 C -0.2480(4) -0.0705(4) -0.6337(3)
H11 H -0.2881 -0.0230 -0.6742
C13 C -0.1236(4) -0.0746(4) -0.6207(3)
H12 H -0.0786 -0.0291 -0.6520
C14 C -0.0681(4) -0.1471(4) -0.5605(3)
C15 C -0.1399(4) -0.2131(4) -0.5161(3)
H13 H -0.1025 -0.2635 -0.4763
C16 C 0.0637(4) -0.1567(4) -0.5447(3)
C17 C 0.2541(4) -0.1164(4) -0.5537(3)
C18 C 0.2714(3) -0.2091(3) -0.5011(3)
C19 C 0.3811(4) -0.2716(4) -0.4659(3)
C20 C 0.3487(4) -0.0450(4) -0.5861(3)
H14 H 0.4264 -0.0743 -0.5645
H15 H 0.3418 0.0350 -0.5699
H16 H 0.3385 -0.0500 -0.6448
Cu1A Cu 0.37442(4) 0.17406(4) -0.04904(3)
Cu1_2 Cu 0.62558(4) -0.32594(4) -0.45096(3)
O2A O -0.2366(2) -0.4297(2) -0.41966(19)
O4_2 O -0.5190(2) -0.2315(3) -0.48269(18)
loop_
_geom_bond_atom_site_label_1
_geom_bond_atom_site_label_2
_geom_bond_site_symmetry_1
_geom_bond_site_symmetry_2
Cu1 O5 1_555 1_555
S1 C6 1_555 1_555
S2 C16 1_555 1_555
O1 C9 1_555 1_555
O2 C9 1_555 1_555
O3 C19 1_555 1_555
O4 C19 1_555 1_555
O5 H1 1_555 1_555
H2 O5 1_555 1_555
N1 Cu1 1_555 1_555
N2 C6 1_555 1_555
N3 Cu1 1_555 1_555
N4 C16 1_555 1_555
C1 N1 1_555 1_555
H3 C1 1_555 1_555
C2 C1 1_555 1_555
H4 C2 1_555 1_555
C3 C2 1_555 1_555
H5 C3 1_555 1_555
C4 C3 1_555 1_555
C5 N1 1_555 1_555
H6 C5 1_555 1_555
C6 C4 1_555 1_555
C7 N2 1_555 1_555
C8 S1 1_555 1_555
C9 C8 1_555 1_555
C10 C7 1_555 1_555
H7 C10 1_555 1_555
H8 C10 1_555 1_555
H9 C10 1_555 1_555
C11 N3 1_555 1_555
H10 C11 1_555 1_555
C12 C11 1_555 1_555
H11 C12 1_555 1_555
C13 C12 1_555 1_555
H12 C13 1_555 1_555
C14 C13 1_555 1_555
C15 N3 1_555 1_555
H13 C15 1_555 1_555
C16 C14 1_555 1_555
C17 N4 1_555 1_555
C18 S2 1_555 1_555
C19 C18 1_555 1_555
C20 C17 1_555 1_555
H14 C20 1_555 1_555
H15 C20 1_555 1_555
H16 C20 1_555 1_555
Cu1A O2 1_555 1_555
Cu1_2 O4 1_555 1_555
O2A Cu1 1_555 1_555
O4_2 Cu1 1_555 1_555
C4 C5 1_555 1_555
C7 C8 1_555 1_555
C14 C15 1_555 1_555
C17 C18 1_555 1_555

#END
