
#######################################################################
#
#                 Cambridge Crystallographic Data Centre
#                                CCDC 
#
#######################################################################
#
# If this CIF has been generated from an entry in the Cambridge 
# Structural Database, then it will include bibliographic, chemical, 
# crystal, experimental, refinement or atomic coordinate data resulting 
# from the CCDC's data processing and validation procedures.
#
#######################################################################

data_JEVBOC
_symmetry_cell_setting           monoclinic
_symmetry_space_group_name_H-M   'P 21/c'
_symmetry_Int_Tables_number      14
_space_group_name_Hall           '-P 2ybc'
loop_
_symmetry_equiv_pos_site_id
_symmetry_equiv_pos_as_xyz
1 x,y,z
2 -x,1/2+y,1/2-z
3 -x,-y,-z
4 x,1/2-y,1/2+z
_cell_length_a                   7.887(7)
_cell_length_b                   8.989(8)
_cell_length_c                   16.962(15)
_cell_angle_alpha                90
_cell_angle_beta                 115.119(11)
_cell_angle_gamma                90
_cell_volume                     1088.82
loop_
_atom_site_label
_atom_site_type_symbol
_atom_site_fract_x
_atom_site_fract_y
_atom_site_fract_z
Ni1 Ni 0.0000 0.0000 0.0000
S1 S -0.56274(15) -0.43515(12) -0.18875(7)
N1 N -0.0740(4) -0.2164(3) 0.0260(2)
N2 N -0.4595(4) -0.6580(3) -0.0844(2)
O1 O -0.8292(4) -0.5215(3) -0.36824(18)
O2 O -0.9782(4) -0.6948(3) -0.32439(19)
O3 O -0.2266(4) 0.0901(3) 0.01848(18)
H1 H -0.1547 0.1352 0.0649
H2 H -0.2932 0.1597 -0.0132
C1 C 0.0308(5) -0.2869(4) 0.1013(3)
H3 H 0.1340 -0.2377 0.1427
C2 C -0.0087(5) -0.4283(5) 0.1193(3)
H4 H 0.0641 -0.4720 0.1728
C3 C -0.1572(5) -0.5050(4) 0.0574(3)
H5 H -0.1840 -0.6014 0.0685
C4 C -0.2662(5) -0.4372(4) -0.0214(2)
C5 C -0.2203(5) -0.2918(4) -0.0328(2)
H6 H -0.2956 -0.2436 -0.0844
C6 C -0.4204(5) -0.5175(4) -0.0910(3)
C7 C -0.6120(5) -0.7053(4) -0.1592(2)
C8 C -0.6868(5) -0.5987(4) -0.2231(3)
C9 C -0.8454(6) -0.6078(5) -0.3121(3)
C10 C -0.6778(6) -0.8631(4) -0.1619(3)
H7 H -0.6006 -0.9122 -0.1083
H8 H -0.8055 -0.8632 -0.1694
H9 H -0.6692 -0.9146 -0.2096
Ni1A Ni -1.0000 -0.5000 -0.5000
Ni1A_2 Ni 1.0000 0.5000 0.5000
S1B S 0.56274(15) 0.43515(12) 0.18875(7)
N1B N 0.0740(4) 0.2164(3) -0.0260(2)
N2B N 0.4595(4) 0.6580(3) 0.0844(2)
O1C O 0.1708(4) 0.0215(3) 0.13176(18)
O1A O -0.1708(4) -0.0215(3) -0.13176(18)
O1B O 0.8292(4) 0.5215(3) 0.36824(18)
O2B O 0.9782(4) 0.6948(3) 0.32439(19)
O3B O 0.2266(4) -0.0901(3) -0.01848(18)
H1B H 0.1547 -0.1352 -0.0649
H2B H 0.2932 -0.1597 0.0132
C1B C -0.0308(5) 0.2869(4) -0.1013(3)
H3B H -0.1340 0.2377 -0.1427
C2B C 0.0087(5) 0.4283(5) -0.1193(3)
H4B H -0.0641 0.4720 -0.1728
C3B C 0.1572(5) 0.5050(4) -0.0574(3)
H5B H 0.1840 0.6014 -0.0685
C4B C 0.2662(5) 0.4372(4) 0.0214(2)
C5B C 0.2203(5) 0.2918(4) 0.0328(2)
H6B H 0.2956 0.2436 0.0844
C6B C 0.4204(5) 0.5175(4) 0.0910(3)
C7B C 0.6120(5) 0.7053(4) 0.1592(2)
C8B C 0.6868(5) 0.5987(4) 0.2231(3)
C9B C 0.8454(6) 0.6078(5) 0.3121(3)
C10B C 0.6778(6) 0.8631(4) 0.1619(3)
H7B H 0.6006 0.9122 0.1083
H8B H 0.8055 0.8632 0.1694
H9B H 0.6692 0.9146 0.2096
loop_
_geom_bond_atom_site_label_1
_geom_bond_atom_site_label_2
_geom_bond_site_symmetry_1
_geom_bond_site_symmetry_2
Ni1 N1 1_555 1_555
S1 C6 1_555 1_555
N1 C1 1_555 1_555
N2 C6 1_555 1_555
O1 C9 1_555 1_555
O2 C9 1_555 1_555
O3 Ni1 1_555 1_555
H1 O3 1_555 1_555
H2 O3 1_555 1_555
C1 H3 1_555 1_555
C2 C1 1_555 1_555
H4 C2 1_555 1_555
C3 C2 1_555 1_555
H5 C3 1_555 1_555
C4 C3 1_555 1_555
C5 N1 1_555 1_555
H6 C5 1_555 1_555
C6 C4 1_555 1_555
C7 N2 1_555 1_555
C8 S1 1_555 1_555
C9 C8 1_555 1_555
C10 C7 1_555 1_555
H7 C10 1_555 1_555
H8 C10 1_555 1_555
H9 C10 1_555 1_555
Ni1A O1 1_555 1_555
Ni1A_2 O1B 1_555 1_555
S1B C6B 1_555 1_555
N1B Ni1 1_555 1_555
N2B C6B 1_555 1_555
O1C Ni1 1_555 1_555
O1A Ni1 1_555 1_555
O1B C9B 1_555 1_555
O2B C9B 1_555 1_555
O3B Ni1 1_555 1_555
H1B O3B 1_555 1_555
H2B O3B 1_555 1_555
C1B N1B 1_555 1_555
H3B C1B 1_555 1_555
C2B C1B 1_555 1_555
H4B C2B 1_555 1_555
C3B C2B 1_555 1_555
H5B C3B 1_555 1_555
C4B C3B 1_555 1_555
C5B N1B 1_555 1_555
H6B C5B 1_555 1_555
C6B C4B 1_555 1_555
C7B N2B 1_555 1_555
C8B S1B 1_555 1_555
C9B C8B 1_555 1_555
C10B C7B 1_555 1_555
H7B C10B 1_555 1_555
H8B C10B 1_555 1_555
H9B C10B 1_555 1_555
C4 C5 1_555 1_555
C7 C8 1_555 1_555
C4B C5B 1_555 1_555
C7B C8B 1_555 1_555

#END
