
#######################################################################
#
#                 Cambridge Crystallographic Data Centre
#                                CCDC 
#
#######################################################################
#
# If this CIF has been generated from an entry in the Cambridge 
# Structural Database, then it will include bibliographic, chemical, 
# crystal, experimental, refinement or atomic coordinate data resulting 
# from the CCDC's data processing and validation procedures.
#
#######################################################################

data_JEVCIX
_symmetry_cell_setting           monoclinic
_symmetry_space_group_name_H-M   'P 21/c'
_symmetry_Int_Tables_number      14
_space_group_name_Hall           '-P 2ybc'
loop_
_symmetry_equiv_pos_site_id
_symmetry_equiv_pos_as_xyz
1 x,y,z
2 -x,1/2+y,1/2-z
3 -x,-y,-z
4 x,1/2-y,1/2+z
_cell_length_a                   8.975(4)
_cell_length_b                   9.432(4)
_cell_length_c                   14.366(8)
_cell_angle_alpha                90
_cell_angle_beta                 115.733(6)
_cell_angle_gamma                90
_cell_volume                     1095.51
loop_
_atom_site_label
_atom_site_type_symbol
_atom_site_fract_x
_atom_site_fract_y
_atom_site_fract_z
Cd1 Cd -0.5000 0.0000 0.0000
S1 S -0.02019(8) -0.45006(7) 0.15934(5)
N1 N -0.4677(2) -0.2248(2) -0.05885(16)
N2 N -0.1356(2) -0.6518(2) 0.02903(15)
O1 O 0.2712(2) -0.52282(19) 0.34672(15)
O2 O 0.3472(2) -0.7127(2) 0.28428(15)
O3 O -0.3518(2) 0.1132(2) -0.07933(14)
H1 H -0.4443 0.1471 -0.1231
H2 H -0.2861 0.1794 -0.0478
C1 C -0.5841(3) -0.2853(3) -0.1427(2)
H3 H -0.6777 -0.2331 -0.1835
C2 C -0.5709(3) -0.4222(3) -0.1710(2)
H4 H -0.6541 -0.4612 -0.2302
C3 C -0.4339(3) -0.5006(3) -0.1113(2)
H5 H -0.4226 -0.5931 -0.1300
C4 C -0.3126(3) -0.4408(3) -0.02309(18)
C5 C -0.3354(3) -0.3022(3) -0.00092(19)
H6 H -0.2538 -0.2605 0.0577
C6 C -0.1659(3) -0.5208(3) 0.04650(19)
C7 C 0.0107(3) -0.7003(3) 0.10558(19)
C8 C 0.0903(3) -0.6050(3) 0.18271(18)
C9 C 0.2497(3) -0.6160(3) 0.27836(19)
C10 C 0.0639(3) -0.8474(3) 0.0967(2)
H7 H -0.0165 -0.8905 0.0346
H8 H 0.1691 -0.8445 0.0942
H9 H 0.0736 -0.9020 0.1554
Cd1C Cd 0.5000 -0.5000 0.5000
Cd1C_2 Cd -1.5000 0.5000 -0.5000
S1B S -0.97981(8) 0.45006(7) -0.15934(5)
N1B N -0.5323(2) 0.2248(2) 0.05885(16)
N2B N -0.8644(2) 0.6518(2) -0.02903(15)
O1C O -0.7288(2) 0.02282(19) -0.15328(15)
O1A O -0.2712(2) -0.02282(19) 0.15328(15)
O1B O -1.2712(2) 0.52282(19) -0.34672(15)
O2B O -1.3472(2) 0.7127(2) -0.28428(15)
O3B O -0.6482(2) -0.1132(2) 0.07933(14)
H1B H -0.5557 -0.1471 0.1231
H2B H -0.7139 -0.1794 0.0478
C1B C -0.4159(3) 0.2853(3) 0.1427(2)
H3B H -0.3223 0.2331 0.1835
C2B C -0.4291(3) 0.4222(3) 0.1710(2)
H4B H -0.3459 0.4612 0.2302
C3B C -0.5661(3) 0.5006(3) 0.1113(2)
H5B H -0.5774 0.5931 0.1300
C4B C -0.6874(3) 0.4408(3) 0.02309(18)
C5B C -0.6646(3) 0.3022(3) 0.00092(19)
H6B H -0.7462 0.2605 -0.0577
C6B C -0.8341(3) 0.5208(3) -0.04650(19)
C7B C -1.0107(3) 0.7003(3) -0.10558(19)
C8B C -1.0903(3) 0.6050(3) -0.18271(18)
C9B C -1.2497(3) 0.6160(3) -0.27836(19)
C10B C -1.0639(3) 0.8474(3) -0.0967(2)
H7B H -0.9835 0.8905 -0.0346
H8B H -1.1691 0.8445 -0.0942
H9B H -1.0736 0.9020 -0.1554
loop_
_geom_bond_atom_site_label_1
_geom_bond_atom_site_label_2
_geom_bond_site_symmetry_1
_geom_bond_site_symmetry_2
Cd1 N1 1_555 1_555
S1 C6 1_555 1_555
N1 C1 1_555 1_555
N2 C6 1_555 1_555
O1 C9 1_555 1_555
O2 C9 1_555 1_555
O3 Cd1 1_555 1_555
H1 O3 1_555 1_555
H2 O3 1_555 1_555
C1 H3 1_555 1_555
C2 C1 1_555 1_555
H4 C2 1_555 1_555
C3 C2 1_555 1_555
H5 C3 1_555 1_555
C4 C3 1_555 1_555
C5 N1 1_555 1_555
H6 C5 1_555 1_555
C6 C4 1_555 1_555
C7 N2 1_555 1_555
C8 S1 1_555 1_555
C9 C8 1_555 1_555
C10 C7 1_555 1_555
H7 C10 1_555 1_555
H8 C10 1_555 1_555
H9 C10 1_555 1_555
Cd1C O1 1_555 1_555
Cd1C_2 O1B 1_555 1_555
S1B C6B 1_555 1_555
N1B Cd1 1_555 1_555
N2B C6B 1_555 1_555
O1C Cd1 1_555 1_555
O1A Cd1 1_555 1_555
O1B C9B 1_555 1_555
O2B C9B 1_555 1_555
O3B Cd1 1_555 1_555
H1B O3B 1_555 1_555
H2B O3B 1_555 1_555
C1B N1B 1_555 1_555
H3B C1B 1_555 1_555
C2B C1B 1_555 1_555
H4B C2B 1_555 1_555
C3B C2B 1_555 1_555
H5B C3B 1_555 1_555
C4B C3B 1_555 1_555
C5B N1B 1_555 1_555
H6B C5B 1_555 1_555
C6B C4B 1_555 1_555
C7B N2B 1_555 1_555
C8B S1B 1_555 1_555
C9B C8B 1_555 1_555
C10B C7B 1_555 1_555
H7B C10B 1_555 1_555
H8B C10B 1_555 1_555
H9B C10B 1_555 1_555
C4 C5 1_555 1_555
C7 C8 1_555 1_555
C4B C5B 1_555 1_555
C7B C8B 1_555 1_555

#END
