
#######################################################################
#
#                 Cambridge Crystallographic Data Centre
#                                CCDC 
#
#######################################################################
#
# If this CIF has been generated from an entry in the Cambridge 
# Structural Database, then it will include bibliographic, chemical, 
# crystal, experimental, refinement or atomic coordinate data resulting 
# from the CCDC's data processing and validation procedures.
#
#######################################################################

data_JEVCAP
_symmetry_cell_setting           monoclinic
_symmetry_space_group_name_H-M   'P 21/c'
_symmetry_Int_Tables_number      14
_space_group_name_Hall           '-P 2ybc'
loop_
_symmetry_equiv_pos_site_id
_symmetry_equiv_pos_as_xyz
1 x,y,z
2 -x,1/2+y,1/2-z
3 -x,-y,-z
4 x,1/2-y,1/2+z
_cell_length_a                   11.2190(15)
_cell_length_b                   11.3832(15)
_cell_length_c                   16.613(2)
_cell_angle_alpha                90
_cell_angle_beta                 96.598(2)
_cell_angle_gamma                90
_cell_volume                     2107.56
loop_
_atom_site_label
_atom_site_type_symbol
_atom_site_fract_x
_atom_site_fract_y
_atom_site_fract_z
Zn1 Zn 0.13537(2) -0.31981(3) 0.041170(19)
S1 S 0.50178(6) -0.02917(7) 0.34754(5)
S2 S 0.63527(6) -0.25962(7) 0.02019(5)
O1 O 0.85225(17) -0.0470(2) 0.36628(13)
O2 O 0.72707(17) 0.06674(17) 0.42586(12)
O3 O 0.87135(17) -0.35047(18) 0.08028(13)
O4 O 0.98095(16) -0.22635(18) 0.01510(12)
O5 O 0.07336(16) -0.42703(16) -0.05227(11)
H1 H -0.0016 -0.4298 -0.0674
H2 H 0.1123 -0.4909 -0.0536
N1 N 0.5245(2) -0.1988(2) 0.24934(15)
N2 N 0.16752(19) -0.2444(2) 0.15978(14)
N3 N 0.63584(19) -0.0873(2) -0.07917(15)
N4 N 0.23988(18) -0.21069(19) -0.02658(14)
C1 C 0.7505(2) -0.0161(3) 0.37907(18)
C2 C 0.6446(2) -0.0758(2) 0.33488(17)
C3 C 0.6389(2) -0.1667(2) 0.28053(17)
C4 C 0.4446(2) -0.1345(2) 0.27995(17)
C5 C 0.3152(2) -0.1522(3) 0.25531(17)
C6 C 0.2813(2) -0.2226(3) 0.18907(18)
H3 H 0.3415 -0.2572 0.1631
C7 C 0.0820(3) -0.1979(3) 0.20033(18)
H4 H 0.0022 -0.2149 0.1827
C8 C 0.1069(3) -0.1270(4) 0.2661(2)
H5 H 0.0448 -0.0951 0.2915
C9 C 0.2247(2) -0.1026(3) 0.29492(19)
H6 H 0.2431 -0.0543 0.3397
C10 C 0.7405(3) -0.2327(3) 0.2525(2)
H7 H 0.7520 -0.2080 0.1988
H8 H 0.7230 -0.3153 0.2523
H9 H 0.8122 -0.2177 0.2885
C11 C 0.8822(2) -0.2664(3) 0.03421(17)
C12 C 0.7712(2) -0.2064(2) -0.00216(17)
C13 C 0.7539(2) -0.1151(2) -0.05508(18)
C14 C 0.5641(2) -0.1565(2) -0.04394(17)
C15 C 0.4326(2) -0.1478(2) -0.05922(17)
C16 C 0.3603(2) -0.2149(2) -0.01571(18)
H10 H 0.3968 -0.2658 0.0233
C17 C 0.1896(2) -0.1388(3) -0.08376(19)
H11 H 0.1062 -0.1351 -0.0922
C18 C 0.2536(3) -0.0701(3) -0.1309(2)
H12 H 0.2147 -0.0215 -0.1706
C19 C 0.3777(3) -0.0743(3) -0.1181(2)
H13 H 0.4236 -0.0280 -0.1489
C20 C 0.8490(3) -0.0461(3) -0.0897(2)
H14 H 0.9060 -0.0177 -0.0466
H15 H 0.8131 0.0192 -0.1200
H16 H 0.8892 -0.0955 -0.1249
Zn1A Zn 0.86463(2) 0.18019(3) 0.458830(19)
Zn1_2 Zn 1.13537(2) -0.31981(3) 0.041170(19)
O2A O 0.27293(17) -0.43326(17) 0.07414(12)
O4_2 O -0.01905(16) -0.22635(18) 0.01510(12)
loop_
_geom_bond_atom_site_label_1
_geom_bond_atom_site_label_2
_geom_bond_site_symmetry_1
_geom_bond_site_symmetry_2
Zn1 O5 1_555 1_555
S1 C2 1_555 1_555
S2 C12 1_555 1_555
O1 C1 1_555 1_555
O2 C1 1_555 1_555
O3 C11 1_555 1_555
O4 C11 1_555 1_555
O5 H1 1_555 1_555
H2 O5 1_555 1_555
N1 C3 1_555 1_555
N2 Zn1 1_555 1_555
N3 C13 1_555 1_555
N4 Zn1 1_555 1_555
C1 C2 1_555 1_555
C2 C3 1_555 1_555
C3 C10 1_555 1_555
C4 S1 1_555 1_555
C5 C4 1_555 1_555
C6 N2 1_555 1_555
H3 C6 1_555 1_555
C7 N2 1_555 1_555
H4 C7 1_555 1_555
C8 C7 1_555 1_555
H5 C8 1_555 1_555
C9 C5 1_555 1_555
H6 C9 1_555 1_555
C10 H7 1_555 1_555
H8 C10 1_555 1_555
H9 C10 1_555 1_555
C11 C12 1_555 1_555
C12 C13 1_555 1_555
C13 C20 1_555 1_555
C14 S2 1_555 1_555
C15 C14 1_555 1_555
C16 N4 1_555 1_555
H10 C16 1_555 1_555
C17 N4 1_555 1_555
H11 C17 1_555 1_555
C18 C17 1_555 1_555
H12 C18 1_555 1_555
C19 C15 1_555 1_555
H13 C19 1_555 1_555
C20 H14 1_555 1_555
H15 C20 1_555 1_555
H16 C20 1_555 1_555
Zn1A O2 1_555 1_555
Zn1_2 O4 1_555 1_555
O2A Zn1 1_555 1_555
O4_2 Zn1 1_555 1_555
N1 C4 1_555 1_555
N3 C14 1_555 1_555
C5 C6 1_555 1_555
C8 C9 1_555 1_555
C15 C16 1_555 1_555
C18 C19 1_555 1_555

#END
