
#######################################################################
#
#                 Cambridge Crystallographic Data Centre
#                                CCDC 
#
#######################################################################
#
# If this CIF has been generated from an entry in the Cambridge 
# Structural Database, then it will include bibliographic, chemical, 
# crystal, experimental, refinement or atomic coordinate data resulting 
# from the CCDC's data processing and validation procedures.
#
#######################################################################

data_JEVCET
_symmetry_cell_setting           monoclinic
_symmetry_space_group_name_H-M   'C 2/c'
_symmetry_Int_Tables_number      15
_space_group_name_Hall           '-C 2yn'
loop_
_symmetry_equiv_pos_site_id
_symmetry_equiv_pos_as_xyz
1 x,y,z
2 1/2+x,1/2+y,z
3 -x,y,1/2-z
4 1/2-x,1/2+y,1/2-z
5 -x,-y,-z
6 1/2-x,1/2-y,-z
7 x,-y,1/2+z
8 1/2+x,1/2-y,1/2+z
_cell_length_a                   21.696(5)
_cell_length_b                   7.7572(17)
_cell_length_c                   19.197(4)
_cell_angle_alpha                90
_cell_angle_beta                 123.795(2)
_cell_angle_gamma                90
_cell_volume                     2684.95
loop_
_atom_site_label
_atom_site_type_symbol
_atom_site_fract_x
_atom_site_fract_y
_atom_site_fract_z
Co1 Co -0.2500 -0.2500 -0.5000
S1 S -0.01346(5) -0.11963(13) -0.15935(6)
O1 O 0.14450(12) -0.1626(4) -0.04289(14)
O2 O 0.16710(13) 0.0692(4) 0.03735(17)
O3 O -0.29694(14) -0.0373(4) -0.57955(17)
H1 H -0.2584 0.0092 -0.5725
N1 N -0.24324(15) -0.1307(4) -0.39336(17)
N2 N -0.07075(15) 0.1321(4) -0.12888(18)
C1 C -0.3012(2) -0.0910(5) -0.3894(2)
H2 H -0.3487 -0.1118 -0.4362
C2 C -0.2941(2) -0.0218(6) -0.3201(2)
H3 H -0.3360 0.0034 -0.3201
C3 C -0.2242(2) 0.0110(6) -0.2496(2)
H4 H -0.2183 0.0602 -0.2020
C4 C -0.16379(18) -0.0310(5) -0.2516(2)
C5 C -0.17576(18) -0.1018(5) -0.3238(2)
H5 H -0.1346 -0.1316 -0.3245
C6 C -0.08683(18) 0.0050(5) -0.1800(2)
C7 C 0.00465(19) 0.1375(5) -0.0687(2)
C8 C 0.04471(18) 0.0096(5) -0.0746(2)
C9 C 0.12549(19) -0.0294(6) -0.0218(2)
C10 C 0.0341(2) 0.2791(5) -0.0062(3)
H6 H 0.0869 0.2670 0.0315
H7 H 0.0116 0.2738 0.0250
H8 H 0.0228 0.3880 -0.0345
C11 C -0.3542(3) 0.0763(8) -0.5995(4)
H9 H -0.3899 0.0153 -0.5933
H10 H -0.3338 0.1686 -0.5585
C12 C -0.3910(5) 0.1479(12) -0.6764(4)
H11 H -0.3724 0.2621 -0.6728
H12 H -0.4429 0.1535 -0.6983
H13 H -0.3838 0.0791 -0.7129
Co1G Co -0.7500 -0.2500 -1.0000
Co1G_2 Co 0.2500 -0.2500 0.0000
S1E S -0.48654(5) -0.38037(13) -0.84065(6)
O1B O -0.14450(12) -0.1626(4) -0.45711(14)
O1G O -0.35550(12) -0.3374(4) -0.54289(14)
O1E O -0.64450(12) -0.3374(4) -0.95711(14)
O2E O -0.66710(13) -0.5692(4) -1.03735(17)
O3E O -0.20306(14) -0.4627(4) -0.42045(17)
H1E H -0.2416 -0.5092 -0.4275
N1E N -0.25676(15) -0.3693(4) -0.60664(17)
N2E N -0.42925(15) -0.6321(4) -0.87112(18)
C1E C -0.1988(2) -0.4090(5) -0.6106(2)
H2E H -0.1513 -0.3882 -0.5638
C2E C -0.2059(2) -0.4782(6) -0.6799(2)
H3E H -0.1640 -0.5034 -0.6799
C3E C -0.2758(2) -0.5110(6) -0.7504(2)
H4E H -0.2817 -0.5602 -0.7980
C4E C -0.33621(18) -0.4690(5) -0.7484(2)
C5E C -0.32424(18) -0.3982(5) -0.6762(2)
H5E H -0.3654 -0.3684 -0.6755
C6E C -0.41317(18) -0.5050(5) -0.8200(2)
C7E C -0.50465(19) -0.6375(5) -0.9313(2)
C8E C -0.54471(18) -0.5096(5) -0.9254(2)
C9E C -0.62549(19) -0.4706(6) -0.9782(2)
C10E C -0.5341(2) -0.7791(5) -0.9938(3)
H6E H -0.5869 -0.7670 -1.0315
H7E H -0.5116 -0.7738 -1.0250
H8E H -0.5228 -0.8880 -0.9655
C11E C -0.1458(3) -0.5763(8) -0.4005(4)
H9E H -0.1101 -0.5153 -0.4067
H10E H -0.1662 -0.6686 -0.4415
C12E C -0.1090(5) -0.6479(12) -0.3236(4)
H11E H -0.1276 -0.7621 -0.3272
H12E H -0.0571 -0.6535 -0.3017
H13E H -0.1162 -0.5791 -0.2871
loop_
_geom_bond_atom_site_label_1
_geom_bond_atom_site_label_2
_geom_bond_site_symmetry_1
_geom_bond_site_symmetry_2
Co1 O3 1_555 1_555
S1 C6 1_555 1_555
O1 C9 1_555 1_555
O2 C9 1_555 1_555
O3 H1 1_555 1_555
N1 Co1 1_555 1_555
N2 C6 1_555 1_555
C1 N1 1_555 1_555
H2 C1 1_555 1_555
C2 C1 1_555 1_555
H3 C2 1_555 1_555
C3 C2 1_555 1_555
H4 C3 1_555 1_555
C4 C3 1_555 1_555
C5 N1 1_555 1_555
H5 C5 1_555 1_555
C6 C4 1_555 1_555
C7 N2 1_555 1_555
C8 S1 1_555 1_555
C9 C8 1_555 1_555
C10 C7 1_555 1_555
H6 C10 1_555 1_555
H7 C10 1_555 1_555
H8 C10 1_555 1_555
C11 O3 1_555 1_555
H9 C11 1_555 1_555
H10 C11 1_555 1_555
C12 C11 1_555 1_555
H11 C12 1_555 1_555
H12 C12 1_555 1_555
H13 C12 1_555 1_555
Co1G O1E 1_555 1_555
Co1G_2 O1 1_555 1_555
S1E C6E 1_555 1_555
O1B Co1 1_555 1_555
O1G Co1 1_555 1_555
O1E C9E 1_555 1_555
O2E C9E 1_555 1_555
O3E Co1 1_555 1_555
H1E O3E 1_555 1_555
N1E Co1 1_555 1_555
N2E C6E 1_555 1_555
C1E N1E 1_555 1_555
H2E C1E 1_555 1_555
C2E C1E 1_555 1_555
H3E C2E 1_555 1_555
C3E C2E 1_555 1_555
H4E C3E 1_555 1_555
C4E C3E 1_555 1_555
C5E N1E 1_555 1_555
H5E C5E 1_555 1_555
C6E C4E 1_555 1_555
C7E N2E 1_555 1_555
C8E S1E 1_555 1_555
C9E C8E 1_555 1_555
C10E C7E 1_555 1_555
H6E C10E 1_555 1_555
H7E C10E 1_555 1_555
H8E C10E 1_555 1_555
C11E O3E 1_555 1_555
H9E C11E 1_555 1_555
H10E C11E 1_555 1_555
C12E C11E 1_555 1_555
H11E C12E 1_555 1_555
H12E C12E 1_555 1_555
H13E C12E 1_555 1_555
C4 C5 1_555 1_555
C7 C8 1_555 1_555
C4E C5E 1_555 1_555
C7E C8E 1_555 1_555

#END
