
#######################################################################
#
#                 Cambridge Crystallographic Data Centre
#                                CCDC 
#
#######################################################################
#
# If this CIF has been generated from an entry in the Cambridge 
# Structural Database, then it will include bibliographic, chemical, 
# crystal, experimental, refinement or atomic coordinate data resulting 
# from the CCDC's data processing and validation procedures.
#
#######################################################################

data_JEVPIK
_symmetry_cell_setting           monoclinic
_symmetry_space_group_name_H-M   'P 21/n'
_symmetry_Int_Tables_number      14
_space_group_name_Hall           '-P 2yn'
loop_
_symmetry_equiv_pos_site_id
_symmetry_equiv_pos_as_xyz
1 x,y,z
2 1/2-x,1/2+y,1/2-z
3 -x,-y,-z
4 1/2+x,1/2-y,1/2+z
_cell_length_a                   12.06060(10)
_cell_length_b                   11.23790(10)
_cell_length_c                   12.92540(10)
_cell_angle_alpha                90
_cell_angle_beta                 90.0093(7)
_cell_angle_gamma                90
_cell_volume                     1751.85
loop_
_atom_site_label
_atom_site_type_symbol
_atom_site_fract_x
_atom_site_fract_y
_atom_site_fract_z
Ag1 Ag 0.611584(13) -0.042004(13) 0.164743(11)
P1 P 0.69044(3) 0.09718(4) 0.28367(3)
C1 C 0.82162(14) 0.16844(14) 0.25136(13)
C2 C 0.89562(14) 0.20668(15) 0.32828(13)
H1 H 0.8786 0.1939 0.3992
C3 C 0.99410(15) 0.26337(15) 0.30070(15)
H2 H 1.0445 0.2889 0.3526
C4 C 1.01831(16) 0.28241(17) 0.19599(17)
H3 H 1.0856 0.3204 0.1769
C5 C 0.94475(18) 0.24616(16) 0.12056(16)
H4 H 0.9612 0.2603 0.0497
C6 C 0.84627(16) 0.18891(15) 0.14766(14)
H5 H 0.7961 0.1639 0.0954
C7 C 0.71924(14) 0.02228(14) 0.40527(13)
C8 C 0.64926(17) 0.03004(16) 0.49078(14)
H6 H 0.5866 0.0812 0.4889
C9 C 0.6713(2) -0.03743(18) 0.57922(16)
H7 H 0.6234 -0.0320 0.6374
C10 C 0.7621(2) -0.1117(2) 0.58266(18)
H8 H 0.7772 -0.1566 0.6433
C11 C 0.8318(2) -0.1210(2) 0.49674(18)
H9 H 0.8940 -0.1728 0.4987
C12 C 0.81032(17) -0.05452(17) 0.40873(16)
H10 H 0.8578 -0.0612 0.3504
C13 C 0.60075(14) 0.22346(14) 0.31065(13)
C14 C 0.50795(16) 0.24133(16) 0.24879(16)
H11 H 0.4890 0.1843 0.1975
C15 C 0.44245(17) 0.34282(19) 0.26175(19)
H12 H 0.3788 0.3545 0.2196
C16 C 0.47023(17) 0.42631(18) 0.33594(18)
H13 H 0.4259 0.4955 0.3444
C17 C 0.56295(16) 0.40925(16) 0.39822(15)
H14 H 0.5818 0.4669 0.4490
C18 C 0.62809(15) 0.30801(15) 0.38628(13)
H15 H 0.6910 0.2962 0.4293
B1 B 0.66670(19) -0.0528(2) -0.08054(17)
F1 F 0.59061(13) -0.10780(13) -0.01281(10)
F2 F 0.72340(16) 0.03121(18) -0.02458(14)
F3 F 0.60793(12) -0.00064(12) -0.16008(10)
F4 F 0.73747(15) -0.13653(18) -0.11968(13)
Ag1A Ag 0.888416(13) 0.457996(13) 0.335257(11)
C3A C 0.50590(15) -0.23663(15) 0.19930(15)
H2A H 0.4555 -0.2111 0.1474
loop_
_geom_bond_atom_site_label_1
_geom_bond_atom_site_label_2
_geom_bond_site_symmetry_1
_geom_bond_site_symmetry_2
Ag1 P1 1_555 1_555
P1 C1 1_555 1_555
C1 C2 1_555 1_555
C2 H1 1_555 1_555
C3 C2 1_555 1_555
H2 C3 1_555 1_555
C4 C3 1_555 1_555
H3 C4 1_555 1_555
C5 C4 1_555 1_555
H4 C5 1_555 1_555
C6 C1 1_555 1_555
H5 C6 1_555 1_555
C7 P1 1_555 1_555
C8 C7 1_555 1_555
H6 C8 1_555 1_555
C9 C8 1_555 1_555
H7 C9 1_555 1_555
C10 C9 1_555 1_555
H8 C10 1_555 1_555
C11 C10 1_555 1_555
H9 C11 1_555 1_555
C12 C7 1_555 1_555
H10 C12 1_555 1_555
C13 P1 1_555 1_555
C14 C13 1_555 1_555
H11 C14 1_555 1_555
C15 C14 1_555 1_555
H12 C15 1_555 1_555
C16 C15 1_555 1_555
H13 C16 1_555 1_555
C17 C16 1_555 1_555
H14 C17 1_555 1_555
C18 C13 1_555 1_555
H15 C18 1_555 1_555
B1 F1 1_555 1_555
F1 Ag1 1_555 1_555
F2 B1 1_555 1_555
F3 B1 1_555 1_555
F4 B1 1_555 1_555
Ag1A C3 1_555 1_555
C3A Ag1 1_555 1_555
H2A C3A 1_555 1_555
C5 C6 1_555 1_555
C11 C12 1_555 1_555
C17 C18 1_555 1_555

#END
