
#######################################################################
#
#                 Cambridge Crystallographic Data Centre
#                                CCDC 
#
#######################################################################
#
# If this CIF has been generated from an entry in the Cambridge 
# Structural Database, then it will include bibliographic, chemical, 
# crystal, experimental, refinement or atomic coordinate data resulting 
# from the CCDC's data processing and validation procedures.
#
#######################################################################

data_JEVTAG
_symmetry_cell_setting           triclinic
_symmetry_space_group_name_H-M   'P -1'
_symmetry_Int_Tables_number      2
_space_group_name_Hall           '-P 1'
loop_
_symmetry_equiv_pos_site_id
_symmetry_equiv_pos_as_xyz
1 x,y,z
2 -x,-y,-z
_cell_length_a                   9.5191(6)
_cell_length_b                   9.6282(6)
_cell_length_c                   9.6452(6)
_cell_angle_alpha                106.939(3)
_cell_angle_beta                 98.292(3)
_cell_angle_gamma                110.123(2)
_cell_volume                     764.055
loop_
_atom_site_label
_atom_site_type_symbol
_atom_site_fract_x
_atom_site_fract_y
_atom_site_fract_z
Gd1 Gd 0.58737(5) 0.72593(4) 0.81782(4)
P1 P 0.7370(3) 0.5099(2) 0.5153(2)
P2 P 0.7607(3) 0.0286(2) 0.6527(3)
N1 N 0.7433(9) 0.3310(8) 0.6945(8)
H1 H 0.688(9) 0.375(9) 0.724(8)
O1 O 0.4647(7) 0.6667(6) 1.0071(6)
O2 O 0.3984(7) 0.8442(6) 0.8286(6)
O3 O 0.4134(7) 0.5155(6) 1.1446(6)
O4 O 0.3251(6) 1.0217(6) 0.9687(6)
O5 O 0.9107(6) 0.6080(6) 0.5253(7)
H2 H 0.9475 0.6894 0.6009
O6 O 0.6910(6) 0.5967(6) 0.6431(6)
O7 O 0.6427(6) 0.4650(6) 0.3579(6)
O8 O 0.9314(7) 0.0982(7) 0.7304(8)
O9 O 0.6626(7) -0.1078(6) 0.6876(7)
O10 O 0.7274(8) -0.0112(7) 0.4801(7)
H3 H 0.7494 -0.0860 0.4412
O11 O 0.8584(8) 0.7984(8) 0.9529(8)
H4 H 0.9171 0.8336 0.9053
H5 H 0.888(14) 0.822(14) 1.047(4)
C1 C 0.9213(11) 0.4400(10) 0.9522(10)
H6 H 0.9056 0.3372 0.9583
H7 H 0.8424 0.4709 0.9882
C2 C 0.9062(10) 0.4286(9) 0.7871(9)
H8 H 0.9734 0.3812 0.7463
H9 H 0.9393 0.5344 0.7836
C3 C 0.6707(10) 0.1712(9) 0.7057(10)
H10 H 0.6668 0.1886 0.8091
H11 H 0.5641 0.1204 0.6436
C4 C 0.7226(11) 0.3215(9) 0.5336(9)
H12 H 0.8015 0.2927 0.4952
H13 H 0.6217 0.2386 0.4727
C5 C 0.4214(9) 0.9620(8) 0.9424(9)
C6 C 0.4646(9) 0.5530(9) 1.0430(9)
Gd1A Gd 0.41263(5) 0.27407(4) 1.18218(4)
Gd1A_2 Gd 0.41263(5) 1.27407(4) 1.18218(4)
Gd1A_3 Gd 0.41263(5) 0.27407(4) 0.18218(4)
Gd1_2 Gd 0.58737(5) -0.27407(4) 0.81782(4)
Gd1A_4 Gd 1.41263(5) 1.27407(4) 1.18218(4)
Gd1A_5 Gd 1.41263(5) 0.27407(4) 1.18218(4)
Gd1_3 Gd 1.58737(5) 0.72593(4) 1.81782(4)
P1A P 1.2630(3) 0.4901(2) 1.4847(2)
P2A P 1.2393(3) 0.9714(2) 1.3473(3)
N1A N 1.2567(9) 0.6690(8) 1.3055(8)
H1A H 1.312(9) 0.625(9) 1.276(8)
O1A O 0.5353(7) 0.3333(6) 0.9929(6)
O2A O 0.6016(7) 1.1558(6) 1.1714(6)
O2A_2 O 0.6016(7) 0.1558(6) 1.1714(6)
O3A O 0.5866(7) 0.4845(6) 0.8554(6)
O4A O 0.6749(6) 0.9783(6) 1.0313(6)
O4_2 O 0.3251(6) 0.0217(6) 0.9687(6)
O5A O 1.0893(6) 0.3920(6) 1.4747(7)
H2A H 1.0525 0.3106 1.3991
O6A O 1.3090(6) 0.4033(6) 1.3569(6)
O6A_2 O 0.3090(6) 0.4033(6) 1.3569(6)
O7A O 1.3573(6) 0.5350(6) 1.6421(6)
O7A_2 O 0.3573(6) 0.5350(6) 0.6421(6)
O7_2 O 0.6427(6) 0.4650(6) 1.3579(6)
O8A O 1.0686(7) 0.9018(7) 1.2696(8)
O9A O 1.3374(7) 1.1078(6) 1.3124(7)
O9_2 O 0.6626(7) 0.8922(6) 0.6876(7)
O9A_2 O 0.3374(7) 0.1078(6) 1.3124(7)
O10A O 1.2726(8) 1.0112(7) 1.5199(7)
H3A H 1.2506 1.0860 1.5588
O11A O 0.1416(8) 0.2016(8) 1.0471(8)
H4A H 0.0829 0.1664 1.0947
H5A H 0.112(14) 0.178(14) 0.953(4)
C1A C 1.0787(11) 0.5600(10) 1.0478(10)
H6A H 1.0944 0.6628 1.0417
H7A H 1.1576 0.5291 1.0118
C2A C 1.0938(10) 0.5714(9) 1.2129(9)
H8A H 1.0266 0.6188 1.2537
H9A H 1.0607 0.4656 1.2164
C3A C 1.3293(10) 0.8288(9) 1.2943(10)
H10A H 1.3332 0.8114 1.1909
H11A H 1.4359 0.8796 1.3564
C4A C 1.2774(11) 0.6785(9) 1.4664(9)
H12A H 1.1985 0.7073 1.5048
H13A H 1.3783 0.7614 1.5273
C5A C 0.5786(9) 1.0380(8) 1.0576(9)
C6A C 0.5354(9) 0.4470(9) 0.9570(9)
O12 O 0.7750(9) 0.7605(8) 0.2989(7)
H14 H 0.7705 0.6848 0.3306
H15 H 0.8709 0.8111 0.3077
O13 O 0.0404(7) 0.8710(7) 0.7654(7)
H16 H 0.1328 0.9118 0.8241
H17 H 0.0217 0.9423 0.7425
loop_
_geom_bond_atom_site_label_1
_geom_bond_atom_site_label_2
_geom_bond_site_symmetry_1
_geom_bond_site_symmetry_2
Gd1 O1 1_555 1_555
P1 O5 1_555 1_555
P2 O8 1_555 1_555
N1 H1 1_555 1_555
O1 C6 1_555 1_555
O2 Gd1 1_555 1_555
O3 C6 1_555 1_555
O4 C5 1_555 1_555
O5 H2 1_555 1_555
O6 Gd1 1_555 1_555
O7 P1 1_555 1_555
O9 P2 1_555 1_555
O10 P2 1_555 1_555
H3 O10 1_555 1_555
O11 Gd1 1_555 1_555
H4 O11 1_555 1_555
H5 O11 1_555 1_555
C1 H6 1_555 1_555
H7 C1 1_555 1_555
C2 N1 1_555 1_555
H8 C2 1_555 1_555
H9 C2 1_555 1_555
C3 P2 1_555 1_555
H10 C3 1_555 1_555
H11 C3 1_555 1_555
C4 P1 1_555 1_555
H12 C4 1_555 1_555
H13 C4 1_555 1_555
C5 O2 1_555 1_555
C6 C6A 1_555 1_555
O12 H14 1_555 1_555
H15 O12 1_555 1_555
O13 H16 1_555 1_555
H17 O13 1_555 1_555
Gd1A O3 1_555 1_555
Gd1A_2 O4 1_555 1_555
Gd1A_3 O7 1_555 1_555
Gd1_2 O9 1_555 1_555
Gd1A_4 O9A 1_555 1_555
Gd1A_5 O6A 1_555 1_555
Gd1_3 O7A 1_555 1_555
P1A O5A 1_555 1_555
P2A O8A 1_555 1_555
N1A H1A 1_555 1_555
O1A Gd1A 1_555 1_555
O2A Gd1A_2 1_555 1_555
O2A_2 Gd1A 1_555 1_555
O3A Gd1 1_555 1_555
O4A Gd1 1_555 1_555
O4_2 Gd1A 1_555 1_555
O5A H2A 1_555 1_555
O6A P1A 1_555 1_555
O6A_2 Gd1A 1_555 1_555
O7A P1A 1_555 1_555
O7A_2 Gd1 1_555 1_555
O7_2 Gd1A 1_555 1_555
O9A P2A 1_555 1_555
O9_2 Gd1 1_555 1_555
O9A_2 Gd1A 1_555 1_555
O10A P2A 1_555 1_555
H3A O10A 1_555 1_555
O11A Gd1A 1_555 1_555
H4A O11A 1_555 1_555
H5A O11A 1_555 1_555
C1A C1 1_555 1_555
H6A C1A 1_555 1_555
H7A C1A 1_555 1_555
C2A N1A 1_555 1_555
H8A C2A 1_555 1_555
H9A C2A 1_555 1_555
C3A P2A 1_555 1_555
H10A C3A 1_555 1_555
H11A C3A 1_555 1_555
C4A P1A 1_555 1_555
H12A C4A 1_555 1_555
H13A C4A 1_555 1_555
C5A C5 1_555 1_555
C6A O1A 1_555 1_555
P1 O6 1_555 1_555
N1 C3 1_555 1_555
N1 C4 1_555 1_555
C1 C2 1_555 1_555
N1A C3A 1_555 1_555
N1A C4A 1_555 1_555
O2A C5A 1_555 1_555
O3A C6A 1_555 1_555
O4A C5A 1_555 1_555
C1A C2A 1_555 1_555

#END
