
#######################################################################
#
#                 Cambridge Crystallographic Data Centre
#                                CCDC 
#
#######################################################################
#
# If this CIF has been generated from an entry in the Cambridge 
# Structural Database, then it will include bibliographic, chemical, 
# crystal, experimental, refinement or atomic coordinate data resulting 
# from the CCDC's data processing and validation procedures.
#
#######################################################################

data_JEVVAI
_symmetry_cell_setting           monoclinic
_symmetry_space_group_name_H-M   'C 2/c'
_symmetry_Int_Tables_number      15
_space_group_name_Hall           '-C 2yn'
loop_
_symmetry_equiv_pos_site_id
_symmetry_equiv_pos_as_xyz
1 x,y,z
2 1/2+x,1/2+y,z
3 -x,y,1/2-z
4 1/2-x,1/2+y,1/2-z
5 -x,-y,-z
6 1/2-x,1/2-y,-z
7 x,-y,1/2+z
8 1/2+x,1/2-y,1/2+z
_cell_length_a                   10.6836(12)
_cell_length_b                   11.8752(14)
_cell_length_c                   9.0111(11)
_cell_angle_alpha                90
_cell_angle_beta                 109.460(2)
_cell_angle_gamma                90
_cell_volume                     1077.93
loop_
_atom_site_label
_atom_site_type_symbol
_atom_site_fract_x
_atom_site_fract_y
_atom_site_fract_z
U1 U 0.0000 0.37418(2) 0.2500
O1 O -0.2182(4) 0.3907(3) 0.0423(5)
O2 O -0.3842(4) 0.3063(3) -0.1456(5)
O3 O -0.1085(4) 0.5655(3) 0.2169(5)
O4 O 0.0671(4) 0.3678(3) 0.0993(5)
N1 N 0.0000 0.9703(6) 0.2500
H1 H 0.0000 1.0427 0.2500
C1 C -0.2809(6) 0.3075(4) -0.0315(7)
C2 C 0.0000 0.6159(6) 0.2500
C3 C 0.0000 0.7431(6) 0.2500
C4 C -0.1189(6) 0.8012(5) 0.1926(8)
H2 H -0.1990 0.7626 0.1537
C5 C -0.1160(8) 0.9173(6) 0.1942(9)
H3 H -0.1945 0.9582 0.1566
U1G U -0.5000 0.12582(2) -0.2500
O1E O -0.2818(4) 0.1093(3) -0.0423(5)
O1B O 0.2182(4) 0.3907(3) 0.4577(5)
O2E O -0.1158(4) 0.1937(3) 0.1456(5)
O2G O 0.1158(4) 0.1937(3) 0.3544(5)
O3B O 0.1085(4) 0.5655(3) 0.2831(5)
O4B O -0.0671(4) 0.3678(3) 0.4007(5)
C1E C -0.2191(6) 0.1925(4) 0.0315(7)
C4B C 0.1189(6) 0.8012(5) 0.3074(8)
H2B H 0.1990 0.7626 0.3463
C5B C 0.1160(8) 0.9173(6) 0.3058(9)
H3B H 0.1945 0.9582 0.3434
loop_
_geom_bond_atom_site_label_1
_geom_bond_atom_site_label_2
_geom_bond_site_symmetry_1
_geom_bond_site_symmetry_2
U1 O1 1_555 1_555
O1 C1 1_555 1_555
O2 C1 1_555 1_555
O3 U1 1_555 1_555
O4 U1 1_555 1_555
N1 H1 1_555 1_555
C1 C1E 1_555 1_555
C2 O3 1_555 1_555
C3 C2 1_555 1_555
C4 C3 1_555 1_555
H2 C4 1_555 1_555
C5 N1 1_555 1_555
H3 C5 1_555 1_555
U1G O2 1_555 1_555
O1E U1G 1_555 1_555
O1B U1 1_555 1_555
O2E U1 1_555 1_555
O2G U1 1_555 1_555
O3B U1 1_555 1_555
O4B U1 1_555 1_555
C1E O1E 1_555 1_555
C4B C3 1_555 1_555
H2B C4B 1_555 1_555
C5B N1 1_555 1_555
H3B C5B 1_555 1_555
C2 O3B 1_555 1_555
C4 C5 1_555 1_555
O2E C1E 1_555 1_555
C4B C5B 1_555 1_555

#END
