
#######################################################################
#
#                 Cambridge Crystallographic Data Centre
#                                CCDC 
#
#######################################################################
#
# If this CIF has been generated from an entry in the Cambridge 
# Structural Database, then it will include bibliographic, chemical, 
# crystal, experimental, refinement or atomic coordinate data resulting 
# from the CCDC's data processing and validation procedures.
#
#######################################################################

data_JEVWEM
_symmetry_cell_setting           monoclinic
_symmetry_space_group_name_H-M   'P 21/c'
_symmetry_Int_Tables_number      14
_space_group_name_Hall           '-P 2ybc'
loop_
_symmetry_equiv_pos_site_id
_symmetry_equiv_pos_as_xyz
1 x,y,z
2 -x,1/2+y,1/2-z
3 -x,-y,-z
4 x,1/2-y,1/2+z
_cell_length_a                   7.466(1)
_cell_length_b                   9.433(1)
_cell_length_c                   15.659(1)
_cell_angle_alpha                90
_cell_angle_beta                 94.69(1)
_cell_angle_gamma                90
_cell_volume                     1099.12
loop_
_atom_site_label
_atom_site_type_symbol
_atom_site_fract_x
_atom_site_fract_y
_atom_site_fract_z
Cd1 Cd 0.24872(4) 0.96789(4) 0.02269(2)
I1 I 0.42826(3) 0.86653(3) -0.11042(2)
S1 S -0.06868(13) 0.80287(12) 0.00915(6)
S2 S 0.17960(15) 0.86271(13) 0.16357(7)
N1 N -0.1498(4) 0.7607(4) 0.1706(2)
C1 C -0.0289(5) 0.8051(4) 0.1206(2)
C2 C -0.1181(7) 0.7626(5) 0.2652(3)
C3 C -0.1781(8) 0.9001(6) 0.3024(3)
C4 C -0.3295(6) 0.7103(6) 0.1366(3)
C5 C -0.3312(9) 0.5536(6) 0.1178(4)
H1 H -0.1918(7) 0.6765(5) 0.2912(3)
H2 H 0.0238(7) 0.7487(5) 0.2825(3)
H3 H -0.1528(8) 0.8974(6) 0.3713(3)
H4 H -0.3201(8) 0.9147(6) 0.2857(3)
H5 H -0.1045(8) 0.9869(6) 0.2770(3)
H6 H -0.4245(6) 0.7319(6) 0.1833(3)
H7 H -0.3688(6) 0.7669(6) 0.0781(3)
H8 H -0.4646(9) 0.5220(6) 0.0932(4)
H9 H -0.2930(9) 0.4958(6) 0.1760(4)
H10 H -0.2372(9) 0.5307(6) 0.0707(4)
I1B I 0.57174(3) 1.13347(3) 0.11042(2)
S1B S 0.06868(13) 1.19713(12) -0.00915(6)
Cd1B Cd 0.75128(4) 1.03211(4) -0.02269(2)
Cd1B_2 Cd -0.24872(4) 1.03211(4) -0.02269(2)
C1B C 0.0289(5) 1.1949(4) -0.1206(2)
S2B S -0.17960(15) 1.13729(13) -0.16357(7)
N1B N 0.1498(4) 1.2393(4) -0.1706(2)
C2B C 0.1181(7) 1.2374(5) -0.2652(3)
C4B C 0.3295(6) 1.2897(6) -0.1366(3)
C3B C 0.1781(8) 1.0999(6) -0.3024(3)
H1B H 0.1918(7) 1.3235(5) -0.2912(3)
H2B H -0.0238(7) 1.2513(5) -0.2825(3)
C5B C 0.3312(9) 1.4464(6) -0.1178(4)
H6B H 0.4245(6) 1.2681(6) -0.1833(3)
H7B H 0.3688(6) 1.2331(6) -0.0781(3)
H3B H 0.1528(8) 1.1026(6) -0.3713(3)
H4B H 0.3201(8) 1.0853(6) -0.2857(3)
H5B H 0.1045(8) 1.0131(6) -0.2770(3)
H8B H 0.4646(9) 1.4780(6) -0.0932(4)
H9B H 0.2930(9) 1.5042(6) -0.1760(4)
H10B H 0.2372(9) 1.4693(6) -0.0707(4)
I1_2 I -0.57174(3) 0.86653(3) -0.11042(2)
I1B_2 I -0.42826(3) 1.13347(3) 0.11042(2)
loop_
_geom_bond_atom_site_label_1
_geom_bond_atom_site_label_2
_geom_bond_site_symmetry_1
_geom_bond_site_symmetry_2
Cd1 I1 1_555 1_555
I1 Cd1B 1_555 1_555
S1 Cd1 1_555 1_555
S2 Cd1 1_555 1_555
N1 C1 1_555 1_555
C1 S1 1_555 1_555
C2 N1 1_555 1_555
C3 C2 1_555 1_555
C4 N1 1_555 1_555
C5 C4 1_555 1_555
H1 C2 1_555 1_555
H2 C2 1_555 1_555
H3 C3 1_555 1_555
H4 C3 1_555 1_555
H5 C3 1_555 1_555
H6 C4 1_555 1_555
H7 C4 1_555 1_555
H8 C5 1_555 1_555
H9 C5 1_555 1_555
H10 C5 1_555 1_555
I1B Cd1 1_555 1_555
S1B Cd1 1_555 1_555
Cd1B I1B 1_555 1_555
Cd1B_2 S1 1_555 1_555
C1B S1B 1_555 1_555
S2B Cd1B_2 1_555 1_555
N1B C1B 1_555 1_555
C2B N1B 1_555 1_555
C4B N1B 1_555 1_555
C3B C2B 1_555 1_555
H1B C2B 1_555 1_555
H2B C2B 1_555 1_555
C5B C4B 1_555 1_555
H6B C4B 1_555 1_555
H7B C4B 1_555 1_555
H3B C3B 1_555 1_555
H4B C3B 1_555 1_555
H5B C3B 1_555 1_555
H8B C5B 1_555 1_555
H9B C5B 1_555 1_555
H10B C5B 1_555 1_555
I1_2 Cd1B_2 1_555 1_555
I1B_2 Cd1B_2 1_555 1_555
S2 C1 1_555 1_555
S1B Cd1B_2 1_555 1_555
C1B S2B 1_555 1_555

#END
