
#######################################################################
#
#                 Cambridge Crystallographic Data Centre
#                                CCDC 
#
#######################################################################
#
# If this CIF has been generated from an entry in the Cambridge 
# Structural Database, then it will include bibliographic, chemical, 
# crystal, experimental, refinement or atomic coordinate data resulting 
# from the CCDC's data processing and validation procedures.
#
#######################################################################

data_JEXCIZ
_symmetry_cell_setting           orthorhombic
_symmetry_space_group_name_H-M   'P b c m'
_symmetry_Int_Tables_number      57
_space_group_name_Hall           '-P 2c 2b'
loop_
_symmetry_equiv_pos_site_id
_symmetry_equiv_pos_as_xyz
1 x,y,z
2 -x,-y,1/2+z
3 x,1/2-y,-z
4 -x,1/2+y,1/2-z
5 -x,-y,-z
6 x,y,1/2-z
7 -x,1/2+y,z
8 x,1/2-y,1/2+z
_cell_length_a                   9.9748(13)
_cell_length_b                   8.8239(8)
_cell_length_c                   18.572(2)
_cell_angle_alpha                90
_cell_angle_beta                 90
_cell_angle_gamma                90
_cell_volume                     1634.64
loop_
_atom_site_label
_atom_site_type_symbol
_atom_site_fract_x
_atom_site_fract_y
_atom_site_fract_z
K1 K 0.57953(7) 0.72618(8) 0.7500
K2 K 0.50586(7) 0.7500 0.5000
S1 S 0.48402(6) 0.49129(7) 0.62704(3)
S2 S 0.68107(6) 0.43632(8) 0.64422(3)
S3 S 0.79951(6) 0.55211(8) 0.57324(4)
S4 S 0.80662(6) 0.42816(8) 0.47875(3)
S5 S 0.93238(8) 0.2500 0.5000
O1 O 0.8385(2) 0.8107(3) 0.7500
C1 C 0.8796(3) 0.8945(3) 0.68836(16)
H1 H 0.8156 0.8792 0.6483
H2 H 0.9695 0.8609 0.6723
C2 C 0.8833(4) 1.0571(4) 0.70965(17)
H3 H 0.8038 1.1113 0.6908
H4 H 0.9651 1.1068 0.6908
K1F K 0.42047(7) 0.22618(8) 0.7500
K1G K 0.57953(7) -0.22618(8) 0.2500
K1D K 0.42047(7) 0.27382(8) 0.2500
K2F K 0.49414(7) 0.2500 0.5000
K2F_2 K 0.49414(7) 1.2500 0.5000
K2_2 K 0.50586(7) -0.2500 0.5000
S1B S 0.48402(6) 0.00871(7) 0.37296(3)
S1E S 0.48402(6) 0.49129(7) 0.87296(3)
S1F S 0.51598(6) 0.99129(7) 0.62704(3)
S1C S 0.51598(6) 0.99129(7) 0.87296(3)
S1D S 0.51598(6) 0.50871(7) 0.37296(3)
S1B_2 S 0.48402(6) 1.00871(7) 0.37296(3)
S2B S 0.68107(6) 0.06368(8) 0.35578(3)
S2E S 0.68107(6) 0.43632(8) 0.85578(3)
S2F S 0.31893(6) 0.93632(8) 0.64422(3)
S2C S 0.31893(6) 0.93632(8) 0.85578(3)
S2D S 0.31893(6) 0.56368(8) 0.35578(3)
S3B S 0.79951(6) -0.05211(8) 0.42676(4)
S3B_2 S 0.79951(6) 0.94789(8) 0.42676(4)
S4B S 0.80662(6) 0.07184(8) 0.52125(3)
S4F S 0.19338(6) 0.92816(8) 0.47875(3)
S4D S 0.19338(6) 0.57184(8) 0.52125(3)
C1E C 0.8796(3) 0.8945(3) 0.81164(16)
H1E H 0.8156 0.8792 0.8517
H2E H 0.9695 0.8609 0.8277
C2E C 0.8833(4) 1.0571(4) 0.79035(17)
H3E H 0.8038 1.1113 0.8092
H4E H 0.9651 1.1068 0.8092
loop_
_geom_bond_atom_site_label_1
_geom_bond_atom_site_label_2
_geom_bond_site_symmetry_1
_geom_bond_site_symmetry_2
K1 S1 1_555 1_555
K2 S1 1_555 1_555
S1 S2 1_555 1_555
S2 K1 1_555 1_555
S3 K2 1_555 1_555
S4 S3 1_555 1_555
S5 S4 1_555 1_555
O1 K1 1_555 1_555
C1 O1 1_555 1_555
H1 C1 1_555 1_555
H2 C1 1_555 1_555
C2 C1 1_555 1_555
H3 C2 1_555 1_555
H4 C2 1_555 1_555
K1F S1 1_555 1_555
K1G S1B 1_555 1_555
K1D S1B 1_555 1_555
K2F S1 1_555 1_555
K2F_2 S1F 1_555 1_555
K2_2 S1B 1_555 1_555
S1B K2F 1_555 1_555
S1E K1 1_555 1_555
S1F K1 1_555 1_555
S1C K1 1_555 1_555
S1D K2 1_555 1_555
S1B_2 K2 1_555 1_555
S2B K1G 1_555 1_555
S2E K1 1_555 1_555
S2F K1 1_555 1_555
S2C K1 1_555 1_555
S2D K2 1_555 1_555
S3B K2_2 1_555 1_555
S3B_2 K2 1_555 1_555
S4B S5 1_555 1_555
S4F K2 1_555 1_555
S4D K2 1_555 1_555
C1E O1 1_555 1_555
H1E C1E 1_555 1_555
H2E C1E 1_555 1_555
C2E C2 1_555 1_555
H3E C2E 1_555 1_555
H4E C2E 1_555 1_555
K2 S1F 1_555 1_555
K2 S2F 1_555 1_555
S2 S3 1_555 1_555
S2 K1F 1_555 1_555
S2 K2F 1_555 1_555
S4 K2F 1_555 1_555
K1F S1E 1_555 1_555
K1F S2E 1_555 1_555
K1D S1D 1_555 1_555
K1D S2B 1_555 1_555
K1D S2D 1_555 1_555
K2F S1D 1_555 1_555
K2F S2B 1_555 1_555
K2F S4B 1_555 1_555
K2F_2 S1B_2 1_555 1_555
S1B S2B 1_555 1_555
S1E S2E 1_555 1_555
S1F S2F 1_555 1_555
S1C S2C 1_555 1_555
S1D S2D 1_555 1_555
S2B S3B 1_555 1_555
S3B S4B 1_555 1_555
C1E C2E 1_555 1_555

#END
