
#######################################################################
#
#                 Cambridge Crystallographic Data Centre
#                                CCDC 
#
#######################################################################
#
# If this CIF has been generated from an entry in the Cambridge 
# Structural Database, then it will include bibliographic, chemical, 
# crystal, experimental, refinement or atomic coordinate data resulting 
# from the CCDC's data processing and validation procedures.
#
#######################################################################

data_JEXCEV
_symmetry_cell_setting           orthorhombic
_symmetry_space_group_name_H-M   'P b c a'
_symmetry_Int_Tables_number      61
_space_group_name_Hall           '-P 2ac 2ab'
loop_
_symmetry_equiv_pos_site_id
_symmetry_equiv_pos_as_xyz
1 x,y,z
2 1/2-x,-y,1/2+z
3 -x,1/2+y,1/2-z
4 1/2+x,1/2-y,-z
5 -x,-y,-z
6 1/2+x,y,1/2-z
7 x,1/2-y,1/2+z
8 1/2-x,1/2+y,z
_cell_length_a                   17.1510(11)
_cell_length_b                   9.1932(5)
_cell_length_c                   23.4944(12)
_cell_angle_alpha                90
_cell_angle_beta                 90
_cell_angle_gamma                90
_cell_volume                     3704.42
loop_
_atom_site_label
_atom_site_type_symbol
_atom_site_fract_x
_atom_site_fract_y
_atom_site_fract_z
K1 K 0.61912(4) 0.04452(7) 0.30195(3)
K2 K 0.62691(4) -0.46387(7) 0.24588(3)
S1 S 0.50083(4) -0.21587(9) 0.26021(3)
S2 S 0.48047(5) -0.30955(10) 0.33807(4)
S3 S 0.55569(6) -0.22818(10) 0.39828(4)
S4 S 0.65991(6) -0.34852(10) 0.39522(4)
S5 S 0.74481(5) -0.20886(11) 0.36584(4)
S6 S 0.74720(5) -0.20974(9) 0.27862(4)
O1 O 0.53897(16) 0.1562(3) 0.39134(11)
C1 C 0.5758(3) 0.1413(4) 0.44594(17)
H1 H 0.6294 0.1032 0.4416
H2 H 0.5458 0.0737 0.4704
C2 C 0.5774(2) 0.2926(4) 0.47214(16)
H3 H 0.5748 0.2881 0.5142
H4 H 0.6246 0.3469 0.4606
C3 C 0.5040(3) 0.3602(4) 0.44716(16)
H5 H 0.4569 0.3299 0.4685
H6 H 0.5072 0.4677 0.4469
C4 C 0.5039(3) 0.2989(4) 0.38715(16)
H7 H 0.4500 0.2916 0.3724
H8 H 0.5345 0.3619 0.3613
O2 O 0.68961(19) -0.4544(6) 0.14038(16)
C5 C 0.6613(3) -0.4941(8) 0.0862(2)
H9 H 0.6208 -0.4246 0.0735
H10 H 0.6381 -0.5927 0.0876
C6 C 0.7273(4) -0.4917(10) 0.0475(3)
H11 H 0.7282 -0.4001 0.0254
H12 H 0.7249 -0.5747 0.0207
C7 C 0.7968(3) -0.5026(10) 0.0842(3)
H13 H 0.8168 -0.6036 0.0845
H14 H 0.8385 -0.4373 0.0702
C8 C 0.7732(3) -0.4610(10) 0.1394(2)
H15 H 0.7954 -0.3648 0.1491
H16 H 0.7920 -0.5328 0.1677
K1_2 K 0.61912(4) -0.95548(7) 0.30195(3)
K1G K 0.88088(4) -0.45548(7) 0.30195(3)
K1B K 0.38088(4) -0.45548(7) 0.19805(3)
K2_2 K 0.62691(4) 0.53613(7) 0.24588(3)
K2G K 0.87309(4) 0.03613(7) 0.24588(3)
K2B K 0.37309(4) 0.03613(7) 0.25412(3)
S1B S 0.49917(4) 0.28413(9) 0.23979(3)
S1B_2 S 0.49917(4) -0.71587(9) 0.23979(3)
S2B S 0.51953(5) 0.19045(10) 0.16193(4)
S5G S 0.75519(5) 0.29114(11) 0.36584(4)
S6G S 0.75280(5) 0.29026(9) 0.27862(4)
S6G_2 S 0.75280(5) -0.70974(9) 0.27862(4)
loop_
_geom_bond_atom_site_label_1
_geom_bond_atom_site_label_2
_geom_bond_site_symmetry_1
_geom_bond_site_symmetry_2
K1 S1 1_555 1_555
K2 S1 1_555 1_555
S1 S2 1_555 1_555
S2 K2 1_555 1_555
S3 K1 1_555 1_555
S4 K2 1_555 1_555
S5 K1 1_555 1_555
S6 K1 1_555 1_555
O1 K1 1_555 1_555
C1 O1 1_555 1_555
H1 C1 1_555 1_555
H2 C1 1_555 1_555
C2 C1 1_555 1_555
H3 C2 1_555 1_555
H4 C2 1_555 1_555
C3 C2 1_555 1_555
H5 C3 1_555 1_555
H6 C3 1_555 1_555
C4 O1 1_555 1_555
H7 C4 1_555 1_555
H8 C4 1_555 1_555
O2 K2 1_555 1_555
C5 O2 1_555 1_555
H9 C5 1_555 1_555
H10 C5 1_555 1_555
C6 C5 1_555 1_555
H11 C6 1_555 1_555
H12 C6 1_555 1_555
C7 C6 1_555 1_555
H13 C7 1_555 1_555
H14 C7 1_555 1_555
C8 O2 1_555 1_555
H15 C8 1_555 1_555
H16 C8 1_555 1_555
K1_2 S1B_2 1_555 1_555
K1G S5 1_555 1_555
K1B S1 1_555 1_555
K2_2 S1B 1_555 1_555
K2G S6 1_555 1_555
K2B S1 1_555 1_555
S1B K1 1_555 1_555
S1B_2 K2 1_555 1_555
S2B K1 1_555 1_555
S5G K1 1_555 1_555
S6G K1 1_555 1_555
S6G_2 K2 1_555 1_555
K2 S6 1_555 1_555
S2 S3 1_555 1_555
S2 K1B 1_555 1_555
S3 S4 1_555 1_555
S4 S5 1_555 1_555
S5 S6 1_555 1_555
S6 K1G 1_555 1_555
C3 C4 1_555 1_555
C7 C8 1_555 1_555
K1_2 S6G_2 1_555 1_555
K1G S6G_2 1_555 1_555
K1B S1B_2 1_555 1_555
K2_2 S6G 1_555 1_555
K2G S6G 1_555 1_555
K2B S1B 1_555 1_555
K2B S2B 1_555 1_555
S1B S2B 1_555 1_555
S5G S6G 1_555 1_555

#END
