
#######################################################################
#
#                 Cambridge Crystallographic Data Centre
#                                CCDC 
#
#######################################################################
#
# If this CIF has been generated from an entry in the Cambridge 
# Structural Database, then it will include bibliographic, chemical, 
# crystal, experimental, refinement or atomic coordinate data resulting 
# from the CCDC's data processing and validation procedures.
#
#######################################################################

data_JEXJUS
_symmetry_cell_setting           triclinic
_symmetry_space_group_name_H-M   'P -1'
_symmetry_Int_Tables_number      2
_space_group_name_Hall           '-P 1'
loop_
_symmetry_equiv_pos_site_id
_symmetry_equiv_pos_as_xyz
1 x,y,z
2 -x,-y,-z
_cell_length_a                   9.6922(9)
_cell_length_b                   10.2132(9)
_cell_length_c                   11.3887(10)
_cell_angle_alpha                87.3450(10)
_cell_angle_beta                 72.1540(10)
_cell_angle_gamma                65.3270(10)
_cell_volume                     970.786
loop_
_atom_site_label
_atom_site_type_symbol
_atom_site_fract_x
_atom_site_fract_y
_atom_site_fract_z
Zn1 Zn 0.53063(3) 0.64275(3) 0.76974(2)
O1 O 0.4216(2) 0.68647(18) 0.61947(15)
O2 O 0.65071(18) 0.57377(16) 0.90502(14)
O3 O 0.65551(19) 0.41539(19) 1.13749(14)
O4 O 0.81343(18) 0.34019(17) 0.84733(15)
O5 O 0.3018(2) 0.7680(2) 0.47732(17)
O6 O 0.1135(2) 1.21401(19) 0.71726(19)
O7 O 0.1255(2) 0.9923(2) 0.70752(18)
O8 O 0.7434(2) 0.4470(2) 1.28869(16)
O9 O 0.6822(2) 0.4442(2) 0.66924(19)
N1 N 0.3972(2) 0.8528(2) 0.86301(18)
N2 N 0.6898(2) 0.7393(2) 0.69209(17)
C1 C 0.2534(3) 0.9061(3) 0.9476(2)
C2 C 0.1815(4) 1.0460(3) 1.0072(3)
C3 C 0.2621(4) 1.1308(3) 0.9774(3)
C4 C 0.5111(5) 1.1579(3) 0.8571(3)
C5 C 0.6597(4) 1.0990(3) 0.7756(3)
C6 C 0.8824(4) 0.8871(4) 0.6312(3)
C7 C 0.9367(4) 0.7501(4) 0.5804(3)
C8 C 0.8369(3) 0.6793(3) 0.6119(2)
C9 C 0.4149(3) 1.0790(2) 0.8892(2)
C10 C 0.7277(3) 0.9550(3) 0.7154(2)
C11 C 0.4778(3) 0.9368(2) 0.8339(2)
C12 C 0.6353(3) 0.8748(2) 0.7443(2)
C13 C 0.5882(3) 0.8621(2) 0.4402(2)
C14 C 0.4374(3) 0.8958(2) 0.52432(19)
C15 C 0.3779(3) 0.7784(2) 0.54159(19)
C16 C 0.3483(2) 1.0357(2) 0.58501(19)
C17 C 0.1848(3) 1.0764(2) 0.6754(2)
C18 C 0.7720(2) 0.4606(2) 0.90211(19)
C19 C 0.8891(2) 0.4771(2) 0.95759(19)
C20 C 1.0135(2) 0.5014(2) 0.8763(2)
C21 C 0.8755(2) 0.4755(2) 1.08358(19)
C22 C 0.7478(3) 0.4437(2) 1.1746(2)
H1 H 0.203(3) 0.844(3) 0.971(3)
H2 H 0.075(4) 1.072(3) 1.070(3)
H3 H 0.226(4) 1.207(4) 1.015(3)
H4 H 0.478(4) 1.251(3) 0.892(3)
H5 H 0.725(3) 1.145(3) 0.751(2)
H6 H 0.944(4) 0.929(3) 0.615(3)
H7 H 1.034(4) 0.700(3) 0.527(3)
H8 H 0.868(4) 0.584(3) 0.577(3)
H9 H 0.646(3) 0.774(3) 0.403(2)
H10 H 0.012(4) 1.243(4) 0.770(3)
H11 H 1.021(3) 0.501(3) 0.796(2)
H12 H 0.688(5) 0.381(4) 1.336(4)
H13 H 0.721(4) 0.388(4) 0.727(3)
H14 H 0.655(4) 0.408(4) 0.620(3)
Zn1A Zn 0.46937(3) 1.35725(3) 0.23026(2)
Zn1A_2 Zn 0.46937(3) 0.35725(3) 1.23026(2)
Zn1A_3 Zn 1.46937(3) 0.35725(3) 1.23026(2)
Zn1_2 Zn 1.53063(3) 0.64275(3) 0.76974(2)
O1A O 0.5784(2) 1.31353(18) 0.38053(15)
O2A O 1.34929(18) 0.42623(16) 1.09498(14)
O2A_2 O 0.34929(18) 1.42623(16) 0.09498(14)
O3A O 1.34449(19) 0.58461(19) 0.86251(14)
O3A_2 O 0.34449(19) 0.58461(19) 0.86251(14)
O3_2 O 0.65551(19) 1.41539(19) 0.13749(14)
O4A O 1.18657(18) 0.65981(17) 1.15267(15)
O5A O 0.6982(2) 1.2320(2) 0.52268(17)
O6A O 0.8865(2) 0.78599(19) 0.28274(19)
O7A O 0.8745(2) 1.0077(2) 0.29248(18)
O8A O 1.2566(2) 0.5530(2) 0.71131(16)
O9A O 0.3178(2) 1.5558(2) 0.33076(19)
N1A N 0.6028(2) 1.1472(2) 0.13699(18)
N2A N 0.3102(2) 1.2607(2) 0.30791(17)
C1A C 0.7466(3) 1.0939(3) 0.0524(2)
C2A C 0.8185(4) 0.9540(3) -0.0072(3)
C3A C 0.7379(4) 0.8692(3) 0.0226(3)
C4A C 0.4889(5) 0.8421(3) 0.1429(3)
C5A C 0.3403(4) 0.9010(3) 0.2244(3)
C6A C 0.1176(4) 1.1129(4) 0.3688(3)
C7A C 0.0633(4) 1.2499(4) 0.4196(3)
C8A C 0.1631(3) 1.3207(3) 0.3881(2)
C9A C 0.5851(3) 0.9210(2) 0.1108(2)
C10A C 0.2723(3) 1.0450(3) 0.2846(2)
C11A C 0.5222(3) 1.0632(2) 0.1661(2)
C12A C 0.3647(3) 1.1252(2) 0.2557(2)
C13A C 0.4118(3) 1.1379(2) 0.5598(2)
C14A C 0.5626(3) 1.1042(2) 0.47568(19)
C15A C 0.6221(3) 1.2216(2) 0.45841(19)
C16A C 0.6517(2) 0.9643(2) 0.41499(19)
C17A C 0.8152(3) 0.9236(2) 0.3246(2)
C18A C 1.2280(2) 0.5394(2) 1.09789(19)
C19A C 1.1109(2) 0.5229(2) 1.04241(19)
C20A C 0.9865(2) 0.4986(2) 1.1237(2)
C21A C 1.1245(2) 0.5245(2) 0.91642(19)
C22A C 1.2522(3) 0.5563(2) 0.8254(2)
H1A H 0.797(3) 1.156(3) 0.029(3)
H2A H 0.925(4) 0.928(3) -0.070(3)
H3A H 0.774(4) 0.793(4) -0.015(3)
H4A H 0.522(4) 0.749(3) 0.108(3)
H5A H 0.275(3) 0.855(3) 0.249(2)
H6A H 0.056(4) 1.071(3) 0.385(3)
H7A H -0.034(4) 1.300(3) 0.473(3)
H8A H 0.132(4) 1.416(3) 0.423(3)
H9A H 0.354(3) 1.226(3) 0.597(2)
H10A H 0.988(4) 0.757(4) 0.230(3)
H11A H 0.979(3) 0.499(3) 1.204(2)
H12A H 1.312(5) 0.619(4) 0.664(4)
H13A H 0.279(4) 1.612(4) 0.273(3)
H14A H 0.345(4) 1.592(4) 0.380(3)
loop_
_geom_bond_atom_site_label_1
_geom_bond_atom_site_label_2
_geom_bond_site_symmetry_1
_geom_bond_site_symmetry_2
Zn1 O1 1_555 1_555
O1 C15 1_555 1_555
O2 Zn1 1_555 1_555
O3 C22 1_555 1_555
O4 C18 1_555 1_555
O5 C15 1_555 1_555
O6 C17 1_555 1_555
O7 C17 1_555 1_555
O8 C22 1_555 1_555
O9 Zn1 1_555 1_555
N1 Zn1 1_555 1_555
N2 Zn1 1_555 1_555
C1 N1 1_555 1_555
C2 C1 1_555 1_555
C3 C2 1_555 1_555
C4 C5 1_555 1_555
C5 C10 1_555 1_555
C6 C7 1_555 1_555
C7 C8 1_555 1_555
C8 N2 1_555 1_555
C9 C3 1_555 1_555
C10 C6 1_555 1_555
C11 N1 1_555 1_555
C12 N2 1_555 1_555
C13 C14 1_555 1_555
C14 C15 1_555 1_555
C16 C14 1_555 1_555
C17 C16 1_555 1_555
C18 O2 1_555 1_555
C19 C18 1_555 1_555
C20 C19 1_555 1_555
C21 C19 1_555 1_555
C22 C21 1_555 1_555
H1 C1 1_555 1_555
H2 C2 1_555 1_555
H3 C3 1_555 1_555
H4 C4 1_555 1_555
H5 C5 1_555 1_555
H6 C6 1_555 1_555
H7 C7 1_555 1_555
H8 C8 1_555 1_555
H9 C13 1_555 1_555
H10 O6 1_555 1_555
H11 C20 1_555 1_555
H12 O8 1_555 1_555
H13 O9 1_555 1_555
H14 O9 1_555 1_555
Zn1A O1A 1_555 1_555
Zn1A_2 O3 1_555 1_555
Zn1A_3 O2A 1_555 1_555
Zn1_2 O3A 1_555 1_555
O1A C15A 1_555 1_555
O2A C18A 1_555 1_555
O2A_2 Zn1A 1_555 1_555
O3A C22A 1_555 1_555
O3A_2 Zn1 1_555 1_555
O3_2 Zn1A 1_555 1_555
O4A C18A 1_555 1_555
O5A C15A 1_555 1_555
O6A C17A 1_555 1_555
O7A C17A 1_555 1_555
O8A C22A 1_555 1_555
O9A Zn1A 1_555 1_555
N1A Zn1A 1_555 1_555
N2A Zn1A 1_555 1_555
C1A N1A 1_555 1_555
C2A C1A 1_555 1_555
C3A C2A 1_555 1_555
C4A C5A 1_555 1_555
C5A C10A 1_555 1_555
C6A C7A 1_555 1_555
C7A C8A 1_555 1_555
C8A N2A 1_555 1_555
C9A C3A 1_555 1_555
C10A C6A 1_555 1_555
C11A N1A 1_555 1_555
C12A N2A 1_555 1_555
C13A C16 1_555 1_555
C14A C13A 1_555 1_555
C15A C14A 1_555 1_555
C16A C13 1_555 1_555
C17A C16A 1_555 1_555
C18A C19A 1_555 1_555
C19A C20A 1_555 1_555
C20A C21 1_555 1_555
C21A C20 1_555 1_555
C22A C21A 1_555 1_555
H1A C1A 1_555 1_555
H2A C2A 1_555 1_555
H3A C3A 1_555 1_555
H4A C4A 1_555 1_555
H5A C5A 1_555 1_555
H6A C6A 1_555 1_555
H7A C7A 1_555 1_555
H8A C8A 1_555 1_555
H9A C13A 1_555 1_555
H10A O6A 1_555 1_555
H11A C20A 1_555 1_555
H12A O8A 1_555 1_555
H13A O9A 1_555 1_555
H14A O9A 1_555 1_555
C4 C9 1_555 1_555
C9 C11 1_555 1_555
C10 C12 1_555 1_555
C11 C12 1_555 1_555
C4A C9A 1_555 1_555
C9A C11A 1_555 1_555
C10A C12A 1_555 1_555
C11A C12A 1_555 1_555
C14A C16A 1_555 1_555
C19A C21A 1_555 1_555

#END
