
#######################################################################
#
#                 Cambridge Crystallographic Data Centre
#                                CCDC 
#
#######################################################################
#
# If this CIF has been generated from an entry in the Cambridge 
# Structural Database, then it will include bibliographic, chemical, 
# crystal, experimental, refinement or atomic coordinate data resulting 
# from the CCDC's data processing and validation procedures.
#
#######################################################################

data_JEXNUW
_symmetry_cell_setting           monoclinic
_symmetry_space_group_name_H-M   'C 2/c'
_symmetry_Int_Tables_number      15
_space_group_name_Hall           '-C 2yn'
loop_
_symmetry_equiv_pos_site_id
_symmetry_equiv_pos_as_xyz
1 x,y,z
2 1/2+x,1/2+y,z
3 -x,y,1/2-z
4 1/2-x,1/2+y,1/2-z
5 -x,-y,-z
6 1/2-x,1/2-y,-z
7 x,-y,1/2+z
8 1/2+x,1/2-y,1/2+z
_cell_length_a                   14.084(4)
_cell_length_b                   6.0158(15)
_cell_length_c                   33.793(9)
_cell_angle_alpha                90
_cell_angle_beta                 100.717(4)
_cell_angle_gamma                90
_cell_volume                     2813.22
loop_
_atom_site_label
_atom_site_type_symbol
_atom_site_fract_x
_atom_site_fract_y
_atom_site_fract_z
Ba1 Ba 0.5000 0.13076(5) 0.2500
C1 C 0.6375(2) -0.0981(5) 0.41463(9)
H1 H 0.5738 -0.1331 0.4200
H2 H 0.6606 -0.2279 0.4023
C2 C 0.7045(2) -0.0542(6) 0.45442(10)
H3 H 0.6774 0.0609 0.4691
H4 H 0.7666 -0.0028 0.4495
C3 C 0.7181(3) -0.2675(6) 0.47946(10)
H5 H 0.6554 -0.3215 0.4831
H6 H 0.7470 -0.3803 0.4649
C4 C 0.7185(2) 0.1120(6) 0.36712(11)
H7 H 0.7282 -0.0282 0.3543
H8 H 0.7727 0.1323 0.3891
C5 C 0.5965(2) 0.3060(5) 0.40119(10)
H9 H 0.5987 0.4234 0.3817
H10 H 0.6418 0.3442 0.4255
H11 H 0.579(3) 0.055(7) 0.3659(12)
N1 N 0.62800(19) 0.0925(4) 0.38477(8)
O1 O 0.80510(18) 0.2724(5) 0.31084(8)
O2 O 0.74357(17) 0.5519(4) 0.35617(8)
H12 H 0.8021 0.5667 0.3633
O3 O 0.62353(19) 0.3627(5) 0.30540(8)
O4 O 0.41832(18) 0.1700(5) 0.37727(8)
O5 O 0.44642(18) 0.5455(4) 0.41012(8)
H13 H 0.4423 0.5909 0.4326
O6 O 0.4751(2) 0.2013(5) 0.45366(8)
O7 O 0.6507(3) -0.1788(6) 0.26387(10)
O8 O 0.5071(2) -0.1596(5) 0.32123(8)
O9 O 0.3908(3) 0.3407(6) 0.29888(10)
P1 P 0.72214(6) 0.33349(14) 0.33066(2)
P2 P 0.47521(6) 0.29378(14) 0.41267(2)
Ba1G Ba 1.0000 -0.63076(5) 0.7500
C1E C 0.8625(2) -0.4019(5) 0.58537(9)
H1E H 0.9262 -0.3669 0.5800
H2E H 0.8394 -0.2721 0.5977
C2E C 0.7955(2) -0.4458(6) 0.54558(10)
H3E H 0.8226 -0.5609 0.5309
H4E H 0.7334 -0.4972 0.5505
C3E C 0.7819(3) -0.2325(6) 0.52054(10)
H5E H 0.8446 -0.1785 0.5169
H6E H 0.7530 -0.1197 0.5351
C4E C 0.7815(2) -0.6120(6) 0.63288(11)
H7E H 0.7718 -0.4718 0.6457
H8E H 0.7273 -0.6323 0.6109
C5E C 0.9035(2) -0.8060(5) 0.59881(10)
H9E H 0.9013 -0.9234 0.6183
H10E H 0.8582 -0.8442 0.5745
H11E H 0.921(3) -0.555(7) 0.6341(12)
N1E N 0.87200(19) -0.5925(4) 0.61523(8)
O1E O 0.69490(18) -0.7724(5) 0.68916(8)
O2E O 0.75643(17) -1.0519(4) 0.64383(8)
H12E H 0.6979 -1.0667 0.6367
O3E O 0.87647(19) -0.8627(5) 0.69460(8)
O3B O 0.37647(19) 0.3627(5) 0.19460(8)
O4E O 1.08168(18) -0.6700(5) 0.62273(8)
O5E O 1.05358(18) -1.0455(4) 0.58988(8)
H13E H 1.0577 -1.0909 0.5674
O6E O 1.0249(2) -0.7013(5) 0.54634(8)
O7B O 0.3493(3) -0.1788(6) 0.23613(10)
O8B O 0.4929(2) -0.1596(5) 0.17877(8)
O9B O 0.6092(3) 0.3407(6) 0.20112(10)
P1E P 0.77786(6) -0.83349(14) 0.66934(2)
P2E P 1.02479(6) -0.79378(14) 0.58733(2)
O10 O 0.4231(2) 0.7819(5) 0.46962(9)
loop_
_geom_bond_atom_site_label_1
_geom_bond_atom_site_label_2
_geom_bond_site_symmetry_1
_geom_bond_site_symmetry_2
Ba1 O3 1_555 1_555
C1 H1 1_555 1_555
H2 C1 1_555 1_555
C2 C1 1_555 1_555
H3 C2 1_555 1_555
H4 C2 1_555 1_555
C3 C2 1_555 1_555
H5 C3 1_555 1_555
H6 C3 1_555 1_555
C4 H7 1_555 1_555
H8 C4 1_555 1_555
C5 H9 1_555 1_555
H10 C5 1_555 1_555
H11 N1 1_555 1_555
N1 C1 1_555 1_555
O1 P1 1_555 1_555
O2 H12 1_555 1_555
O3 P1 1_555 1_555
O4 P2 1_555 1_555
O5 H13 1_555 1_555
O6 P2 1_555 1_555
O7 Ba1 1_555 1_555
O8 Ba1 1_555 1_555
O9 Ba1 1_555 1_555
P1 C4 1_555 1_555
P2 C5 1_555 1_555
Ba1G O3E 1_555 1_555
C1E H1E 1_555 1_555
H2E C1E 1_555 1_555
C2E C1E 1_555 1_555
H3E C2E 1_555 1_555
H4E C2E 1_555 1_555
C3E C3 1_555 1_555
H5E C3E 1_555 1_555
H6E C3E 1_555 1_555
C4E H7E 1_555 1_555
H8E C4E 1_555 1_555
C5E H9E 1_555 1_555
H10E C5E 1_555 1_555
H11E N1E 1_555 1_555
N1E C1E 1_555 1_555
O1E P1E 1_555 1_555
O2E H12E 1_555 1_555
O3E P1E 1_555 1_555
O3B Ba1 1_555 1_555
O4E P2E 1_555 1_555
O5E H13E 1_555 1_555
O6E P2E 1_555 1_555
O7B Ba1 1_555 1_555
O8B Ba1 1_555 1_555
O9B Ba1 1_555 1_555
P1E C4E 1_555 1_555
P2E C5E 1_555 1_555
C4 N1 1_555 1_555
C5 N1 1_555 1_555
O2 P1 1_555 1_555
O5 P2 1_555 1_555
C2E C3E 1_555 1_555
C4E N1E 1_555 1_555
C5E N1E 1_555 1_555
O2E P1E 1_555 1_555
O5E P2E 1_555 1_555

#END
