
#######################################################################
#
#                 Cambridge Crystallographic Data Centre
#                                CCDC 
#
#######################################################################
#
# If this CIF has been generated from an entry in the Cambridge 
# Structural Database, then it will include bibliographic, chemical, 
# crystal, experimental, refinement or atomic coordinate data resulting 
# from the CCDC's data processing and validation procedures.
#
#######################################################################

data_JEXNIK
_symmetry_cell_setting           triclinic
_symmetry_space_group_name_H-M   'P -1'
_symmetry_Int_Tables_number      2
_space_group_name_Hall           '-P 1'
loop_
_symmetry_equiv_pos_site_id
_symmetry_equiv_pos_as_xyz
1 x,y,z
2 -x,-y,-z
_cell_length_a                   9.396(9)
_cell_length_b                   10.455(10)
_cell_length_c                   14.612(14)
_cell_angle_alpha                70.716(12)
_cell_angle_beta                 85.627(12)
_cell_angle_gamma                76.076(12)
_cell_volume                     1315.06
loop_
_atom_site_label
_atom_site_type_symbol
_atom_site_fract_x
_atom_site_fract_y
_atom_site_fract_z
Co1 Co 0.67717(7) 0.39864(7) 0.30791(5)
N1 N 0.8987(5) 0.3358(5) 0.2761(3)
N2 N 0.9736(4) 0.2233(5) 0.4368(3)
H1 H 1.0517 0.1883 0.4720
N3 N 0.7124(4) 0.2973(4) 0.4560(3)
N4 N 0.4577(4) 0.3592(4) 0.4955(3)
H2 H 0.4006 0.3503 0.5450
N5 N 0.4567(4) 0.4754(4) 0.3273(3)
O1 O 0.6246(4) 0.3843(4) 0.1703(3)
O2 O 0.6284(4) 0.2028(4) 0.2981(3)
O3 O 0.7059(4) 0.5955(4) 0.2497(3)
O4 O 0.7508(4) 0.6959(4) 0.3533(2)
C1 C 0.9373(7) 0.3805(7) 0.1815(5)
H3 H 0.8639 0.4285 0.1352
C2 C 1.0811(8) 0.3577(7) 0.1511(5)
H4 H 1.1038 0.3861 0.0854
C3 C 1.1899(7) 0.2923(8) 0.2196(6)
H5 H 1.2878 0.2798 0.2008
C4 C 1.1544(6) 0.2460(7) 0.3146(5)
H6 H 1.2272 0.1993 0.3615
C5 C 1.0048(6) 0.2698(6) 0.3414(4)
C6 C 0.8465(5) 0.2178(5) 0.4927(4)
C7 C 0.8684(6) 0.1290(6) 0.5871(4)
H7 H 0.9611 0.0738 0.6076
C8 C 0.7521(6) 0.1227(6) 0.6506(4)
H8 H 0.7649 0.0654 0.7148
C9 C 0.6171(6) 0.2032(5) 0.6163(4)
H9 H 0.5368 0.2024 0.6578
C10 C 0.5999(5) 0.2858(5) 0.5201(3)
C11 C 0.3855(5) 0.4428(4) 0.4112(3)
C12 C 0.2340(5) 0.4922(5) 0.4183(4)
H10 H 0.1868 0.4677 0.4777
C13 C 0.1575(6) 0.5767(6) 0.3368(4)
H11 H 0.0569 0.6108 0.3398
C14 C 0.2306(6) 0.6116(6) 0.2494(4)
H12 H 0.1802 0.6697 0.1929
C15 C 0.3766(6) 0.5595(5) 0.2479(4)
H13 H 0.4249 0.5828 0.1888
C16 C 0.6106(6) 0.2606(6) 0.2086(4)
C17 C 0.5730(6) 0.1857(6) 0.1473(4)
C18 C 0.5785(13) 0.2389(9) 0.0491(5)
H14 H 0.6036 0.3241 0.0202
C19 C 0.5471(15) 0.1678(10) -0.0077(5)
H15 H 0.5489 0.2078 -0.0748
C20 C 0.5132(8) 0.0399(6) 0.0303(4)
C21 C 0.5038(5) -0.0088(5) 0.1288(4)
H16 H 0.4755 -0.0924 0.1581
C22 C 0.5352(6) 0.0628(6) 0.1864(4)
H17 H 0.5300 0.0251 0.2534
C23 C 0.7587(5) 0.6815(5) 0.2720(4)
C24 C 0.8334(5) 0.7737(5) 0.1909(3)
C25 C 0.8883(5) 0.8758(5) 0.2061(3)
H18 H 0.8816 0.8858 0.2673
C26 C 0.9528(5) 0.9632(5) 0.1319(4)
H19 H 0.9885 1.0316 0.1441
C27 C 0.9661(6) 0.9523(5) 0.0404(4)
C28 C 0.9129(9) 0.8474(7) 0.0275(5)
H20 H 0.9207 0.8359 -0.0333
C29 C 0.8488(8) 0.7594(6) 0.1017(4)
H21 H 0.8156 0.6890 0.0903
Co1A Co 0.32283(7) -0.39864(7) -0.30791(5)
Co1A_2 Co 1.32283(7) 1.60136(7) -0.30791(5)
N1A N 0.1013(5) -0.3358(5) -0.2761(3)
N2A N 0.0264(4) -0.2233(5) -0.4368(3)
H1A H -0.0517 -0.1883 -0.4720
N3A N 0.2876(4) -0.2973(4) -0.4560(3)
N4A N 0.5423(4) -0.3592(4) -0.4955(3)
H2A H 0.5994 -0.3503 -0.5450
N5A N 0.5433(4) -0.4754(4) -0.3273(3)
O1A O 0.3754(4) -0.3843(4) -0.1703(3)
O2A O 0.3716(4) -0.2028(4) -0.2981(3)
O3A O 1.2941(4) 1.4045(4) -0.2497(3)
O3A_2 O 0.2941(4) -0.5955(4) -0.2497(3)
O4A O 1.2492(4) 1.3041(4) -0.3533(2)
C1A C 0.0627(7) -0.3805(7) -0.1815(5)
H3A H 0.1361 -0.4285 -0.1352
C2A C -0.0811(8) -0.3577(7) -0.1511(5)
H4A H -0.1038 -0.3861 -0.0854
C3A C -0.1899(7) -0.2923(8) -0.2196(6)
H5A H -0.2878 -0.2798 -0.2008
C4A C -0.1544(6) -0.2460(7) -0.3146(5)
H6A H -0.2272 -0.1993 -0.3615
C5A C -0.0048(6) -0.2698(6) -0.3414(4)
C6A C 0.1535(5) -0.2178(5) -0.4927(4)
C7A C 0.1316(6) -0.1290(6) -0.5871(4)
H7A H 0.0389 -0.0738 -0.6076
C8A C 0.2479(6) -0.1227(6) -0.6506(4)
H8A H 0.2351 -0.0654 -0.7148
C9A C 0.3829(6) -0.2032(5) -0.6163(4)
H9A H 0.4632 -0.2024 -0.6578
C10A C 0.4001(5) -0.2858(5) -0.5201(3)
C11A C 0.6145(5) -0.4428(4) -0.4112(3)
C12A C 0.7660(5) -0.4922(5) -0.4183(4)
H10A H 0.8132 -0.4677 -0.4777
C13A C 0.8425(6) -0.5767(6) -0.3368(4)
H11A H 0.9431 -0.6108 -0.3398
C14A C 0.7694(6) -0.6116(6) -0.2494(4)
H12A H 0.8198 -0.6697 -0.1929
C15A C 0.6234(6) -0.5595(5) -0.2479(4)
H13A H 0.5751 -0.5828 -0.1888
C16A C 0.3894(6) -0.2606(6) -0.2086(4)
C17A C 0.4270(6) -0.1857(6) -0.1473(4)
C18A C 0.4215(13) -0.2389(9) -0.0491(5)
H14A H 0.3964 -0.3241 -0.0202
C19A C 0.4529(15) -0.1678(10) 0.0077(5)
H15A H 0.4511 -0.2078 0.0748
C20A C 0.4868(8) -0.0399(6) -0.0303(4)
C21A C 0.4962(5) 0.0088(5) -0.1288(4)
H16A H 0.5245 0.0924 -0.1581
C22A C 0.4648(6) -0.0628(6) -0.1864(4)
H17A H 0.4700 -0.0251 -0.2534
C23A C 1.2413(5) 1.3185(5) -0.2720(4)
C24A C 1.1666(5) 1.2263(5) -0.1909(3)
C25A C 1.1117(5) 1.1242(5) -0.2061(3)
H18A H 1.1184 1.1142 -0.2673
C26A C 1.0472(5) 1.0368(5) -0.1319(4)
H19A H 1.0115 0.9684 -0.1441
C27A C 1.0339(6) 1.0477(5) -0.0404(4)
C28A C 1.0871(9) 1.1526(7) -0.0275(5)
H20A H 1.0793 1.1641 0.0333
C29A C 1.1512(8) 1.2406(6) -0.1017(4)
H21A H 1.1844 1.3110 -0.0903
O5 O 0.7589(5) 0.9011(6) 0.4399(3)
O6? O 0.5199(14) 0.0372(13) 0.4410(9)
loop_
_geom_bond_atom_site_label_1
_geom_bond_atom_site_label_2
_geom_bond_site_symmetry_1
_geom_bond_site_symmetry_2
Co1 N1 1_555 1_555
N1 C1 1_555 1_555
N2 H1 1_555 1_555
N3 Co1 1_555 1_555
N4 H2 1_555 1_555
N5 Co1 1_555 1_555
O1 Co1 1_555 1_555
O2 Co1 1_555 1_555
O3 Co1 1_555 1_555
O4 C23 1_555 1_555
C1 H3 1_555 1_555
C2 C1 1_555 1_555
H4 C2 1_555 1_555
C3 C2 1_555 1_555
H5 C3 1_555 1_555
C4 C3 1_555 1_555
H6 C4 1_555 1_555
C5 N1 1_555 1_555
C6 N2 1_555 1_555
C7 C6 1_555 1_555
H7 C7 1_555 1_555
C8 C7 1_555 1_555
H8 C8 1_555 1_555
C9 C8 1_555 1_555
H9 C9 1_555 1_555
C10 N3 1_555 1_555
C11 N4 1_555 1_555
C12 C11 1_555 1_555
H10 C12 1_555 1_555
C13 C12 1_555 1_555
H11 C13 1_555 1_555
C14 C13 1_555 1_555
H12 C14 1_555 1_555
C15 N5 1_555 1_555
H13 C15 1_555 1_555
C16 O1 1_555 1_555
C17 C16 1_555 1_555
C18 C17 1_555 1_555
H14 C18 1_555 1_555
C19 C18 1_555 1_555
H15 C19 1_555 1_555
C20 C19 1_555 1_555
C21 C20 1_555 1_555
H16 C21 1_555 1_555
C22 C17 1_555 1_555
H17 C22 1_555 1_555
C23 O3 1_555 1_555
C24 C23 1_555 1_555
C25 C24 1_555 1_555
H18 C25 1_555 1_555
C26 C25 1_555 1_555
H19 C26 1_555 1_555
C27 C26 1_555 1_555
C28 C27 1_555 1_555
H20 C28 1_555 1_555
C29 C24 1_555 1_555
H21 C29 1_555 1_555
Co1A N1A 1_555 1_555
Co1A_2 O3A 1_555 1_555
N1A C1A 1_555 1_555
N2A H1A 1_555 1_555
N3A Co1A 1_555 1_555
N4A H2A 1_555 1_555
N5A Co1A 1_555 1_555
O1A Co1A 1_555 1_555
O2A Co1A 1_555 1_555
O3A C23A 1_555 1_555
O3A_2 Co1A 1_555 1_555
O4A C23A 1_555 1_555
C1A H3A 1_555 1_555
C2A C1A 1_555 1_555
H4A C2A 1_555 1_555
C3A C2A 1_555 1_555
H5A C3A 1_555 1_555
C4A C3A 1_555 1_555
H6A C4A 1_555 1_555
C5A N1A 1_555 1_555
C6A N2A 1_555 1_555
C7A C6A 1_555 1_555
H7A C7A 1_555 1_555
C8A C7A 1_555 1_555
H8A C8A 1_555 1_555
C9A C8A 1_555 1_555
H9A C9A 1_555 1_555
C10A N3A 1_555 1_555
C11A N4A 1_555 1_555
C12A C11A 1_555 1_555
H10A C12A 1_555 1_555
C13A C12A 1_555 1_555
H11A C13A 1_555 1_555
C14A C13A 1_555 1_555
H12A C14A 1_555 1_555
C15A N5A 1_555 1_555
H13A C15A 1_555 1_555
C16A O1A 1_555 1_555
C17A C16A 1_555 1_555
C18A C17A 1_555 1_555
H14A C18A 1_555 1_555
C19A C18A 1_555 1_555
H15A C19A 1_555 1_555
C20A C20 1_555 1_555
C21A C20A 1_555 1_555
H16A C21A 1_555 1_555
C22A C17A 1_555 1_555
H17A C22A 1_555 1_555
C23A C24A 1_555 1_555
C24A C25A 1_555 1_555
C25A H18A 1_555 1_555
C26A C25A 1_555 1_555
H19A C26A 1_555 1_555
C27A C27 1_555 1_555
C28A C27A 1_555 1_555
H20A C28A 1_555 1_555
C29A C24A 1_555 1_555
H21A C29A 1_555 1_555
N2 C5 1_555 1_555
N3 C6 1_555 1_555
N4 C10 1_555 1_555
N5 C11 1_555 1_555
O2 C16 1_555 1_555
C4 C5 1_555 1_555
C9 C10 1_555 1_555
C14 C15 1_555 1_555
C21 C22 1_555 1_555
C28 C29 1_555 1_555
N2A C5A 1_555 1_555
N3A C6A 1_555 1_555
N4A C10A 1_555 1_555
N5A C11A 1_555 1_555
O2A C16A 1_555 1_555
C4A C5A 1_555 1_555
C9A C10A 1_555 1_555
C14A C15A 1_555 1_555
C19A C20A 1_555 1_555
C21A C22A 1_555 1_555
C26A C27A 1_555 1_555
C28A C29A 1_555 1_555

#END
