
#######################################################################
#
#                 Cambridge Crystallographic Data Centre
#                                CCDC 
#
#######################################################################
#
# If this CIF has been generated from an entry in the Cambridge 
# Structural Database, then it will include bibliographic, chemical, 
# crystal, experimental, refinement or atomic coordinate data resulting 
# from the CCDC's data processing and validation procedures.
#
#######################################################################

data_JEXNEG
_symmetry_cell_setting           monoclinic
_symmetry_space_group_name_H-M   'P 21/c'
_symmetry_Int_Tables_number      14
_space_group_name_Hall           '-P 2ybc'
loop_
_symmetry_equiv_pos_site_id
_symmetry_equiv_pos_as_xyz
1 x,y,z
2 -x,1/2+y,1/2-z
3 -x,-y,-z
4 x,1/2-y,1/2+z
_cell_length_a                   4.9618(14)
_cell_length_b                   16.979(5)
_cell_length_c                   18.354(5)
_cell_angle_alpha                90
_cell_angle_beta                 91.968(5)
_cell_angle_gamma                90
_cell_volume                     1545.35
loop_
_atom_site_label
_atom_site_type_symbol
_atom_site_fract_x
_atom_site_fract_y
_atom_site_fract_z
Cu1 Cu 0.36805(11) 0.36517(3) 0.11901(3)
N1 N 0.4376(8) 0.4544(2) 0.1893(2)
C1 C 0.6217(10) 0.5070(3) 0.1704(3)
H1 H 0.7139 0.4989 0.1277
C2 C 0.6814(10) 0.5741(3) 0.2124(3)
C3 C 0.5477(12) 0.5837(3) 0.2760(3)
H2 H 0.5856 0.6268 0.3059
C4 C 0.3557(13) 0.5289(4) 0.2953(3)
H3 H 0.2613 0.5355 0.3378
C5 C 0.3060(11) 0.4647(3) 0.2512(3)
H4 H 0.1786 0.4277 0.2645
N2 N 0.8748(9) 0.6309(2) 0.1945(2)
H5 H 0.9046 0.6672 0.2264
C6 C 1.0201(9) 0.6359(3) 0.1336(3)
O1 O 1.0088(7) 0.58675(19) 0.08349(16)
N3 N 1.1834(9) 0.7009(3) 0.1328(2)
H6 H 1.1734 0.7319 0.1697
C7 C 1.3636(10) 0.7233(3) 0.0800(3)
C8 C 1.4100(10) 0.6820(3) 0.0170(3)
H7 H 1.3127 0.6360 0.0081
N4 N 1.5876(9) 0.7048(2) -0.0318(2)
C9 C 1.7301(12) 0.7714(3) -0.0199(3)
H8 H 1.8504 0.7884 -0.0543
C10 C 1.6987(16) 0.8142(4) 0.0428(4)
H9 H 1.8018 0.8593 0.0511
C11 C 1.5164(13) 0.7912(4) 0.0936(3)
H10 H 1.4955 0.8202 0.1360
O2 O 0.5386(7) 0.2876(2) 0.18365(19)
S1 S 0.8389(2) 0.28726(7) 0.19031(6)
O3 O 0.9187(8) 0.3114(2) 0.26486(19)
O4 O 0.9334(7) 0.2072(2) 0.1766(2)
O5 O 0.9421(7) 0.3440(2) 0.13656(18)
O6 O 0.2672(8) 0.4498(2) 0.04498(19)
H11 H 0.1787 0.4842 0.0646
H12 H 0.152(18) 0.434(5) 0.015(5)
Cu1B Cu 1.63195(11) 0.63483(3) -0.11901(3)
Cu1_2 Cu 1.36805(11) 0.36517(3) 0.11901(3)
N4B N 0.4124(9) 0.2952(2) 0.0318(2)
O5_2 O -0.0579(7) 0.3440(2) 0.13656(18)
loop_
_geom_bond_atom_site_label_1
_geom_bond_atom_site_label_2
_geom_bond_site_symmetry_1
_geom_bond_site_symmetry_2
Cu1 N1 1_555 1_555
N1 C1 1_555 1_555
C1 H1 1_555 1_555
C2 C1 1_555 1_555
C3 C2 1_555 1_555
H2 C3 1_555 1_555
C4 C3 1_555 1_555
H3 C4 1_555 1_555
C5 N1 1_555 1_555
H4 C5 1_555 1_555
N2 C2 1_555 1_555
H5 N2 1_555 1_555
C6 N2 1_555 1_555
O1 C6 1_555 1_555
N3 C6 1_555 1_555
H6 N3 1_555 1_555
C7 N3 1_555 1_555
C8 C7 1_555 1_555
H7 C8 1_555 1_555
N4 C8 1_555 1_555
C9 N4 1_555 1_555
H8 C9 1_555 1_555
C10 C9 1_555 1_555
H9 C10 1_555 1_555
C11 C7 1_555 1_555
H10 C11 1_555 1_555
O2 Cu1 1_555 1_555
S1 O2 1_555 1_555
O3 S1 1_555 1_555
O4 S1 1_555 1_555
O5 S1 1_555 1_555
O6 Cu1 1_555 1_555
H11 O6 1_555 1_555
H12 O6 1_555 1_555
Cu1B N4 1_555 1_555
Cu1_2 O5 1_555 1_555
N4B Cu1 1_555 1_555
O5_2 Cu1 1_555 1_555
C4 C5 1_555 1_555
C10 C11 1_555 1_555

#END
