
#######################################################################
#
#                 Cambridge Crystallographic Data Centre
#                                CCDC 
#
#######################################################################
#
# If this CIF has been generated from an entry in the Cambridge 
# Structural Database, then it will include bibliographic, chemical, 
# crystal, experimental, refinement or atomic coordinate data resulting 
# from the CCDC's data processing and validation procedures.
#
#######################################################################

data_JEXPIM
_symmetry_cell_setting           monoclinic
_symmetry_space_group_name_H-M   'C 2/c'
_symmetry_Int_Tables_number      15
_space_group_name_Hall           '-C 2yn'
loop_
_symmetry_equiv_pos_site_id
_symmetry_equiv_pos_as_xyz
1 x,y,z
2 1/2+x,1/2+y,z
3 -x,y,1/2-z
4 1/2-x,1/2+y,1/2-z
5 -x,-y,-z
6 1/2-x,1/2-y,-z
7 x,-y,1/2+z
8 1/2+x,1/2-y,1/2+z
_cell_length_a                   12.173(2)
_cell_length_b                   15.393(3)
_cell_length_c                   9.867(2)
_cell_angle_alpha                90
_cell_angle_beta                 108.78(3)
_cell_angle_gamma                90
_cell_volume                     1750.44
loop_
_atom_site_label
_atom_site_type_symbol
_atom_site_fract_x
_atom_site_fract_y
_atom_site_fract_z
Mn1 Mn 0.5000 0.25381(3) 0.2500
P1 P 0.45884(6) 0.13778(4) -0.06346(6)
O1 O 0.44038(15) 0.17116(10) 0.06947(18)
O2 O 0.37313(15) 0.16864(11) -0.20329(18)
O3 O 0.58622(16) 0.16285(11) -0.0579(2)
H1 H 0.598(3) 0.1620(19) -0.127(3)
N1 N 0.41961(19) 0.37455(13) 0.1180(2)
C1 C 0.3398(3) 0.3741(2) -0.0093(3)
H2 H 0.318(2) 0.3235(13) -0.046(3)
C2 C 0.2930(3) 0.4495(2) -0.0840(4)
H3 H 0.240(2) 0.4419(19) -0.168(2)
C3 C 0.3307(3) 0.5276(2) -0.0242(4)
H4 H 0.304(3) 0.5761(15) -0.064(3)
C4 C 0.4148(3) 0.53260(17) 0.1123(3)
C5 C 0.4594(3) 0.61165(18) 0.1844(4)
H5 H 0.430(3) 0.6589(16) 0.137(3)
C6 C 0.4570(2) 0.45285(16) 0.1805(3)
O4 O 0.66553(19) 0.25030(15) 0.2024(2)
H6 H 0.7269(19) 0.2755(18) 0.239(3)
H7 H 0.655(3) 0.225(2) 0.126(3)
C7 C 0.4553(2) 0.02081(16) -0.0642(3)
H8 H 0.468(2) 0.0004(16) -0.155(3)
H9 H 0.377(2) 0.0040(17) -0.063(3)
Mn1F Mn 0.5000 -0.25381(3) -0.2500
P1D P 0.54116(6) -0.13778(4) 0.06346(6)
O1D O 0.55962(15) -0.17116(10) -0.06947(18)
O1B O 0.55962(15) 0.17116(10) 0.43053(18)
O2D O 0.62687(15) -0.16864(11) 0.20329(18)
O3D O 0.41378(16) -0.16285(11) 0.0579(2)
H1D H 0.402(3) -0.1620(19) 0.127(3)
N1B N 0.58039(19) 0.37455(13) 0.3820(2)
C1B C 0.6602(3) 0.3741(2) 0.5093(3)
H2B H 0.682(2) 0.3235(13) 0.546(3)
C2B C 0.7070(3) 0.4495(2) 0.5840(4)
H3B H 0.760(2) 0.4419(19) 0.668(2)
C3B C 0.6693(3) 0.5276(2) 0.5242(4)
H4B H 0.696(3) 0.5761(15) 0.564(3)
C4B C 0.5852(3) 0.53260(17) 0.3877(3)
C5B C 0.5406(3) 0.61165(18) 0.3156(4)
H5B H 0.570(3) 0.6589(16) 0.363(3)
C6B C 0.5430(2) 0.45285(16) 0.3195(3)
O4B O 0.33447(19) 0.25030(15) 0.2976(2)
H6B H 0.2731(19) 0.2755(18) 0.261(3)
H7B H 0.345(3) 0.225(2) 0.374(3)
C7D C 0.5447(2) -0.02081(16) 0.0642(3)
H8D H 0.532(2) -0.0004(16) 0.155(3)
H9D H 0.623(2) -0.0040(17) 0.063(3)
loop_
_geom_bond_atom_site_label_1
_geom_bond_atom_site_label_2
_geom_bond_site_symmetry_1
_geom_bond_site_symmetry_2
Mn1 O1 1_555 1_555
P1 O1 1_555 1_555
O2 P1 1_555 1_555
O3 P1 1_555 1_555
H1 O3 1_555 1_555
N1 Mn1 1_555 1_555
C1 N1 1_555 1_555
H2 C1 1_555 1_555
C2 C1 1_555 1_555
H3 C2 1_555 1_555
C3 C2 1_555 1_555
H4 C3 1_555 1_555
C4 C3 1_555 1_555
C5 C4 1_555 1_555
H5 C5 1_555 1_555
C6 N1 1_555 1_555
O4 Mn1 1_555 1_555
H6 O4 1_555 1_555
H7 O4 1_555 1_555
C7 P1 1_555 1_555
H8 C7 1_555 1_555
H9 C7 1_555 1_555
Mn1F O1D 1_555 1_555
P1D O1D 1_555 1_555
O1B Mn1 1_555 1_555
O2D P1D 1_555 1_555
O3D P1D 1_555 1_555
H1D O3D 1_555 1_555
N1B Mn1 1_555 1_555
C1B N1B 1_555 1_555
H2B C1B 1_555 1_555
C2B C1B 1_555 1_555
H3B C2B 1_555 1_555
C3B C2B 1_555 1_555
H4B C3B 1_555 1_555
C4B C3B 1_555 1_555
C5B C5 1_555 1_555
H5B C5B 1_555 1_555
C6B C6 1_555 1_555
O4B Mn1 1_555 1_555
H6B O4B 1_555 1_555
H7B O4B 1_555 1_555
C7D C7 1_555 1_555
H8D C7D 1_555 1_555
H9D C7D 1_555 1_555
C4 C6 1_555 1_555
P1D C7D 1_555 1_555
N1B C6B 1_555 1_555
C4B C5B 1_555 1_555
C4B C6B 1_555 1_555

#END
