
#######################################################################
#
#                 Cambridge Crystallographic Data Centre
#                                CCDC 
#
#######################################################################
#
# If this CIF has been generated from an entry in the Cambridge 
# Structural Database, then it will include bibliographic, chemical, 
# crystal, experimental, refinement or atomic coordinate data resulting 
# from the CCDC's data processing and validation procedures.
#
#######################################################################

data_JEXPEI
_symmetry_cell_setting           monoclinic
_symmetry_space_group_name_H-M   'P 21/n'
_symmetry_Int_Tables_number      14
_space_group_name_Hall           '-P 2yn'
loop_
_symmetry_equiv_pos_site_id
_symmetry_equiv_pos_as_xyz
1 x,y,z
2 1/2-x,1/2+y,1/2-z
3 -x,-y,-z
4 1/2+x,1/2-y,1/2+z
_cell_length_a                   5.5807(11)
_cell_length_b                   4.7205(9)
_cell_length_c                   15.250(3)
_cell_angle_alpha                90
_cell_angle_beta                 98.55(3)
_cell_angle_gamma                90
_cell_volume                     397.277
loop_
_atom_site_label
_atom_site_type_symbol
_atom_site_fract_x
_atom_site_fract_y
_atom_site_fract_z
Ni1 Ni 0.5052(2) 0.1075(4) 0.26130(10)
P1 P 0.4549(5) 0.5360(7) 0.1413(2)
O1 O 0.2557(14) 0.3875(18) 0.1855(5)
O2 O 0.6906(14) 0.3928(19) 0.1835(5)
O3 O 0.4609(14) 0.853(2) 0.1513(6)
O4 O 0.5459(17) 0.388(2) 0.3665(6)
H1 H 0.61(3) 0.538(18) 0.349(10)
H2 H 0.43(2) 0.50(3) 0.344(9)
C1 C 0.400(2) 0.445(3) 0.0257(9)
H3 H 0.40(2) 0.266(6) 0.020(9)
H4 H 0.260(12) 0.49(3) 0.000(8)
Ni1B Ni 0.4948(2) 0.8925(4) -0.26130(10)
Ni1A Ni -0.0052(2) 0.6075(4) 0.23870(10)
Ni1A_2 Ni 0.9948(2) 0.6075(4) 0.23870(10)
Ni1_2 Ni 0.5052(2) 1.1075(4) 0.26130(10)
Ni1C Ni 1.0052(2) 0.3925(4) -0.23870(10)
Ni1C_2 Ni 0.0052(2) 0.3925(4) -0.23870(10)
Ni1B_2 Ni 0.4948(2) -0.1075(4) -0.26130(10)
P1B P 0.5451(5) 0.4640(7) -0.1413(2)
O1B O 0.7443(14) 0.6125(18) -0.1855(5)
O1A O 0.2443(14) -0.1125(18) 0.3145(5)
O1C O 0.7557(14) 1.1125(18) -0.3145(5)
O2B O 0.3094(14) 0.6072(19) -0.1835(5)
O2A O 0.8094(14) -0.1072(19) 0.3165(5)
O2C O 0.1906(14) 1.1072(19) -0.3165(5)
O3B O 0.5391(14) 0.147(2) -0.1513(6)
O3_2 O 0.4609(14) -0.147(2) 0.1513(6)
O3B_2 O 0.5391(14) 1.147(2) -0.1513(6)
O4B O 0.4541(17) 0.612(2) -0.3665(6)
H1B H 0.39(3) 0.462(18) -0.349(10)
H2B H 0.57(2) 0.50(3) -0.344(9)
C1B C 0.600(2) 0.555(3) -0.0257(9)
H3B H 0.60(2) 0.734(6) -0.020(9)
H4B H 0.740(12) 0.51(3) 0.000(8)
loop_
_geom_bond_atom_site_label_1
_geom_bond_atom_site_label_2
_geom_bond_site_symmetry_1
_geom_bond_site_symmetry_2
Ni1 O1 1_555 1_555
P1 O1 1_555 1_555
O1 Ni1A 1_555 1_555
O2 Ni1 1_555 1_555
O3 P1 1_555 1_555
O4 Ni1 1_555 1_555
H1 O4 1_555 1_555
H2 O4 1_555 1_555
C1 P1 1_555 1_555
H3 C1 1_555 1_555
H4 C1 1_555 1_555
Ni1B O1B 1_555 1_555
Ni1A_2 O2 1_555 1_555
Ni1_2 O3 1_555 1_555
Ni1C O1B 1_555 1_555
Ni1C_2 O2B 1_555 1_555
Ni1B_2 O3B 1_555 1_555
P1B O1B 1_555 1_555
O1A Ni1 1_555 1_555
O1C Ni1B 1_555 1_555
O2B Ni1B 1_555 1_555
O2A Ni1 1_555 1_555
O2C Ni1B 1_555 1_555
O3B P1B 1_555 1_555
O3_2 Ni1 1_555 1_555
O3B_2 Ni1B 1_555 1_555
O4B Ni1B 1_555 1_555
H1B O4B 1_555 1_555
H2B O4B 1_555 1_555
C1B C1 1_555 1_555
H3B C1B 1_555 1_555
H4B C1B 1_555 1_555
P1 O2 1_555 1_555
P1B O2B 1_555 1_555
P1B C1B 1_555 1_555

#END
