
#######################################################################
#
#                 Cambridge Crystallographic Data Centre
#                                CCDC 
#
#######################################################################
#
# If this CIF has been generated from an entry in the Cambridge 
# Structural Database, then it will include bibliographic, chemical, 
# crystal, experimental, refinement or atomic coordinate data resulting 
# from the CCDC's data processing and validation procedures.
#
#######################################################################

data_JEXPAE
_symmetry_cell_setting           orthorhombic
_symmetry_space_group_name_H-M   'P n m a'
_symmetry_Int_Tables_number      62
_space_group_name_Hall           '-P 2ac 2n'
loop_
_symmetry_equiv_pos_site_id
_symmetry_equiv_pos_as_xyz
1 x,y,z
2 1/2-x,-y,1/2+z
3 -x,1/2+y,-z
4 1/2+x,1/2-y,1/2-z
5 -x,-y,-z
6 1/2+x,y,1/2-z
7 x,1/2-y,z
8 1/2-x,1/2+y,1/2+z
_cell_length_a                   7.7001(17)
_cell_length_b                   6.7769(15)
_cell_length_c                   14.851(3)
_cell_angle_alpha                90
_cell_angle_beta                 90
_cell_angle_gamma                90
_cell_volume                     774.967
loop_
_atom_site_label
_atom_site_type_symbol
_atom_site_fract_x
_atom_site_fract_y
_atom_site_fract_z
Cu1 Cu 0.38288(3) 0.2500 0.679609(17)
O1 O 0.2070(2) 0.2500 0.77493(10)
O2 O 0.0797(2) 0.2500 0.90702(10)
N1 N 0.39650(16) -0.0458(2) 0.68440(8)
N2 N 0.1303(3) 0.2500 0.50621(15)
C1 C 0.2150(3) 0.2500 0.86001(16)
H1 H 0.3252 0.2500 0.8887
C2 C 0.4282(2) -0.1477(2) 0.76023(11)
H2 H 0.4509 -0.0786 0.8146
C3 C 0.37061(19) -0.1473(2) 0.60830(11)
H3 H 0.3520 -0.0782 0.5535
O3 O 0.1407(2) 0.2500 0.59212(12)
O4 O 0.2643(3) 0.2500 0.46125(14)
O5 O -0.0135(3) 0.2500 0.47003(13)
Cu1E Cu -0.11712(3) 0.2500 0.820391(17)
Cu1_2 Cu 0.38288(3) -0.7500 0.679609(17)
O2E O 0.5797(2) 0.2500 0.59298(10)
N1F N 0.39650(16) -0.4542(2) 0.68440(8)
N1F_2 N 0.39650(16) 0.5458(2) 0.68440(8)
C2F C 0.4282(2) -0.3523(2) 0.76023(11)
H2F H 0.4509 -0.4214 0.8146
C3F C 0.37061(19) -0.3527(2) 0.60830(11)
H3F H 0.3520 -0.4218 0.5535
loop_
_geom_bond_atom_site_label_1
_geom_bond_atom_site_label_2
_geom_bond_site_symmetry_1
_geom_bond_site_symmetry_2
Cu1 O1 1_555 1_555
O1 C1 1_555 1_555
O2 C1 1_555 1_555
N1 Cu1 1_555 1_555
N2 O3 1_555 1_555
C1 H1 1_555 1_555
C2 N1 1_555 1_555
H2 C2 1_555 1_555
C3 N1 1_555 1_555
H3 C3 1_555 1_555
O3 Cu1 1_555 1_555
O4 N2 1_555 1_555
O5 N2 1_555 1_555
Cu1E O2 1_555 1_555
Cu1_2 N1F 1_555 1_555
O2E Cu1 1_555 1_555
N1F C2F 1_555 1_555
N1F_2 Cu1 1_555 1_555
C2F C2 1_555 1_555
H2F C2F 1_555 1_555
C3F C3 1_555 1_555
H3F C3F 1_555 1_555
N1F C3F 1_555 1_555

#END
