
#######################################################################
#
#                 Cambridge Crystallographic Data Centre
#                                CCDC 
#
#######################################################################
#
# If this CIF has been generated from an entry in the Cambridge 
# Structural Database, then it will include bibliographic, chemical, 
# crystal, experimental, refinement or atomic coordinate data resulting 
# from the CCDC's data processing and validation procedures.
#
#######################################################################

data_JEXPOS
_symmetry_cell_setting           triclinic
_symmetry_space_group_name_H-M   'P -1'
_symmetry_Int_Tables_number      2
_space_group_name_Hall           '-P 1'
loop_
_symmetry_equiv_pos_site_id
_symmetry_equiv_pos_as_xyz
1 x,y,z
2 -x,-y,-z
_cell_length_a                   5.498(5)
_cell_length_b                   7.715(6)
_cell_length_c                   8.093(7)
_cell_angle_alpha                82.986(12)
_cell_angle_beta                 75.565(12)
_cell_angle_gamma                80.582(12)
_cell_volume                     326.773
loop_
_atom_site_label
_atom_site_type_symbol
_atom_site_fract_x
_atom_site_fract_y
_atom_site_fract_z
Mn1 Mn 1.20345(6) 0.79631(4) -0.00752(4)
P1 P 1.36765(10) 0.41215(7) -0.22428(6)
C1 C 1.4064(4) 0.4376(3) -0.4531(3)
H1 H 1.250(6) 0.471(4) -0.474(4)
H2 H 1.460(6) 0.323(4) -0.491(4)
O1 O 1.2190(3) 0.5805(2) -0.1523(2)
O2 O 1.6137(3) 0.3444(2) -0.1756(2)
O3 O 1.1850(3) 0.2636(2) -0.1663(2)
H3 H 1.274(6) 0.178(5) -0.181(4)
P2 P 1.24166(9) 1.08762(7) 0.25207(6)
C2 C 1.1420(4) 0.9757(3) 0.4607(3)
H4 H 1.243(6) 0.999(4) 0.531(4)
H5 H 1.174(6) 0.850(5) 0.444(4)
O4 O 1.0906(3) 1.03686(19) 0.13552(18)
O5 O 1.1737(3) 1.2897(2) 0.2754(2)
O6 O 1.5281(3) 1.0498(2) 0.1908(2)
H6 H 1.060(7) 1.331(5) 0.233(5)
Mn1A Mn 1.79655(6) 0.20369(4) -0.99248(4)
Mn1A_2 Mn 1.79655(6) 0.20369(4) 0.00752(4)
Mn1A_3 Mn 0.79655(6) 0.20369(4) 0.00752(4)
Mn1A_4 Mn 0.79655(6) 1.20369(4) 0.00752(4)
Mn1A_5 Mn 1.79655(6) 1.20369(4) 0.00752(4)
Mn1_2 Mn 1.20345(6) 0.79631(4) -1.00752(4)
Mn1_3 Mn 2.20345(6) 0.79631(4) -1.00752(4)
Mn1_4 Mn 1.20345(6) 0.79631(4) 0.99248(4)
Mn1A_6 Mn 0.79655(6) 1.20369(4) 1.00752(4)
Mn1_5 Mn 0.20345(6) 0.79631(4) 0.99248(4)
P1A P 1.63235(10) 0.58785(7) -0.77572(6)
C1A C 1.5936(4) 0.5624(3) -0.5469(3)
H1A H 1.750(6) 0.529(4) -0.526(4)
H2A H 1.540(6) 0.677(4) -0.509(4)
O1A O 1.7810(3) 0.4195(2) -0.8477(2)
O2A O 1.3863(3) 0.6556(2) -0.8244(2)
O2A_2 O 1.3863(3) 0.6556(2) 0.1756(2)
O2_2 O 1.6137(3) 0.3444(2) -1.1756(2)
O3A O 1.8150(3) 0.7364(2) -0.8337(2)
O3A_2 O 0.8150(3) 0.7364(2) 0.1663(2)
O3_2 O 2.1850(3) 0.2636(2) -1.1663(2)
H3A H 1.726(6) 0.822(5) -0.819(4)
H3A_2 H 0.726(6) 0.822(5) 0.181(4)
H3_2 H 2.274(6) 0.178(5) -1.181(4)
P2A P 0.75834(9) 0.91238(7) 0.74793(6)
C2A C 0.8580(4) 1.0243(3) 0.5393(3)
H4A H 0.757(6) 1.001(4) 0.469(4)
H5A H 0.826(6) 1.150(5) 0.556(4)
O4A O 0.9094(3) 0.96314(19) 0.86448(18)
O4A_2 O 0.9094(3) 0.96314(19) -0.13552(18)
O4_2 O 2.0906(3) 0.03686(19) -0.86448(18)
O4A_3 O 1.9094(3) -0.03686(19) -1.13552(18)
O5A O 0.8263(3) 0.7103(2) 0.7246(2)
O6A O 0.4719(3) 0.9502(2) 0.8092(2)
O6A_2 O 1.4719(3) 0.9502(2) -0.1908(2)
O6_2 O 1.5281(3) 0.0498(2) -0.8092(2)
H6A H 0.940(7) 0.669(5) 0.767(5)
loop_
_geom_bond_atom_site_label_1
_geom_bond_atom_site_label_2
_geom_bond_site_symmetry_1
_geom_bond_site_symmetry_2
Mn1 O1 1_555 1_555
P1 C1 1_555 1_555
C1 H1 1_555 1_555
H2 C1 1_555 1_555
O1 P1 1_555 1_555
O2 P1 1_555 1_555
O3 P1 1_555 1_555
H3 O3 1_555 1_555
P2 C2 1_555 1_555
C2 H4 1_555 1_555
H5 C2 1_555 1_555
O4 Mn1 1_555 1_555
O5 P2 1_555 1_555
O6 P2 1_555 1_555
H6 O5 1_555 1_555
Mn1A O1A 1_555 1_555
Mn1A_2 O2 1_555 1_555
Mn1A_3 O3 1_555 1_555
Mn1A_4 O4 1_555 1_555
Mn1A_5 O6 1_555 1_555
Mn1_2 O2A 1_555 1_555
Mn1_3 O3A 1_555 1_555
Mn1_4 O4A 1_555 1_555
Mn1A_6 O4A 1_555 1_555
Mn1_5 O6A 1_555 1_555
P1A C1A 1_555 1_555
C1A C1 1_555 1_555
H1A C1A 1_555 1_555
H2A C1A 1_555 1_555
O1A P1A 1_555 1_555
O2A P1A 1_555 1_555
O2A_2 Mn1 1_555 1_555
O2_2 Mn1A 1_555 1_555
O3A P1A 1_555 1_555
O3A_2 Mn1 1_555 1_555
O3_2 Mn1A 1_555 1_555
H3A O3A 1_555 1_555
H3A_2 O3A_2 1_555 1_555
H3_2 O3_2 1_555 1_555
P2A C2A 1_555 1_555
C2A C2 1_555 1_555
H4A C2A 1_555 1_555
H5A C2A 1_555 1_555
O4A P2A 1_555 1_555
O4A_2 Mn1 1_555 1_555
O4_2 Mn1A 1_555 1_555
O4A_3 Mn1A 1_555 1_555
O5A P2A 1_555 1_555
O6A P2A 1_555 1_555
O6A_2 Mn1 1_555 1_555
O6_2 Mn1A 1_555 1_555
H6A O5A 1_555 1_555
P2 O4 1_555 1_555
Mn1A_4 O4A_2 1_555 1_555

#END
