
#######################################################################
#
#                 Cambridge Crystallographic Data Centre
#                                CCDC 
#
#######################################################################
#
# If this CIF has been generated from an entry in the Cambridge 
# Structural Database, then it will include bibliographic, chemical, 
# crystal, experimental, refinement or atomic coordinate data resulting 
# from the CCDC's data processing and validation procedures.
#
#######################################################################

data_JEXRUA
_symmetry_cell_setting           triclinic
_symmetry_space_group_name_H-M   'P -1'
_symmetry_Int_Tables_number      2
_space_group_name_Hall           '-P 1'
loop_
_symmetry_equiv_pos_site_id
_symmetry_equiv_pos_as_xyz
1 x,y,z
2 -x,-y,-z
_cell_length_a                   7.967(2)
_cell_length_b                   8.670(2)
_cell_length_c                   8.763(2)
_cell_angle_alpha                115.521(4)
_cell_angle_beta                 101.985(3)
_cell_angle_gamma                96.267(3)
_cell_volume                     520.626
loop_
_atom_site_label
_atom_site_type_symbol
_atom_site_fract_x
_atom_site_fract_y
_atom_site_fract_z
Er1 Er 0.6605 0.4134 0.1755
O1 O 0.3948(6) 0.5389(6) 0.0974(6)
O2 O 0.4971(6) 0.6766(7) 0.3881(6)
O3 O 0.6907(6) 0.1302(6) 0.1731(6)
O4 O 0.5586(6) -0.1502(6) 0.0741(6)
O5 O 0.9839(6) 0.4320(6) 0.2784(6)
O6 O 1.2147(6) 0.4791(6) 0.5007(6)
O7 O 0.8001(6) 0.7159(6) 0.2515(6)
O8 O 0.4240(6) 0.3032(6) 0.2849(6)
N1 N 0.1933(7) 0.7620(7) 0.0952(7)
N2 N 0.1547(8) 1.0169(7) 0.4095(8)
C1 C 0.3978(8) 0.6570(8) 0.2487(8)
C2 C 0.2767(8) 0.7787(8) 0.2514(8)
C3 C 0.2584(9) 0.9056(9) 0.4089(9)
H1 H 0.3195 0.9128 0.5153
C4 C 0.0657(9) 0.9953(9) 0.252(1)
H2 H -0.0112 1.0675 0.2468
C5 C 0.0843(9) 0.8695(9) 0.0969(9)
H3 H 0.0192 0.8589 -0.0097
C6 C 0.5721(7) -0.0062(8) 0.0712(8)
C7 C 1.0567(8) 0.4740(8) 0.4358(8)
H4 H 0.751(9) 0.745(8) 0.175(5)
H5 H 0.818(9) 0.789(6) 0.359(2)
H6 H 0.339(8) 0.355(11) 0.292(9)
H7 H 0.471(8) 0.29(1) 0.373(6)
Er1A Er 0.3395 0.5866 -0.1755
Er1A_2 Er 0.3395 -0.4134 -0.1755
Er1A_3 Er 1.3395 0.5866 0.8245
O1A O 0.6052(6) 0.4611(6) -0.0974(6)
O2A O 0.5029(6) 0.3234(7) -0.3881(6)
O3A O 0.3093(6) -0.1302(6) -0.1731(6)
O3A_2 O 0.3093(6) 0.8698(6) -0.1731(6)
O4A O 0.4414(6) 0.1502(6) -0.0741(6)
O4_2 O 0.5586(6) 0.8498(6) 0.0741(6)
O5A O 1.0161(6) 0.5680(6) 0.7216(6)
O5A_2 O 0.0161(6) 0.5680(6) -0.2784(6)
O6A O 0.7853(6) 0.5209(6) 0.4993(6)
O6_2 O 0.2147(6) 0.4791(6) -0.4993(6)
O7A O 0.1999(6) 0.2841(6) -0.2515(6)
O8A O 0.5760(6) 0.6968(6) -0.2849(6)
N1A N 0.8067(7) 0.2380(7) -0.0952(7)
N2A N 0.8453(8) -0.0169(7) -0.4095(8)
C1A C 0.6022(8) 0.3430(8) -0.2487(8)
C2A C 0.7233(8) 0.2213(8) -0.2514(8)
C3A C 0.7416(9) 0.0944(9) -0.4089(9)
H1A H 0.6805 0.0872 -0.5153
C4A C 0.9343(9) 0.0047(9) -0.252(1)
H2A H 1.0112 -0.0675 -0.2468
C5A C 0.9157(9) 0.1305(9) -0.0969(9)
H3A H 0.9808 0.1411 0.0097
C6A C 0.4279(7) 0.0062(8) -0.0712(8)
C7A C 0.9433(8) 0.5260(8) 0.5642(8)
H4A H 0.249(9) 0.255(8) -0.175(5)
H5A H 0.182(9) 0.211(6) -0.359(2)
H6A H 0.661(8) 0.645(11) -0.292(9)
H7A H 0.529(8) 0.71(1) -0.373(6)
loop_
_geom_bond_atom_site_label_1
_geom_bond_atom_site_label_2
_geom_bond_site_symmetry_1
_geom_bond_site_symmetry_2
Er1 O1 1_555 1_555
O1 C1 1_555 1_555
O2 C1 1_555 1_555
O3 Er1 1_555 1_555
O4 C6 1_555 1_555
O5 Er1 1_555 1_555
O6 C7 1_555 1_555
O7 Er1 1_555 1_555
O8 Er1 1_555 1_555
N1 C2 1_555 1_555
N2 C3 1_555 1_555
C1 C2 1_555 1_555
C2 C3 1_555 1_555
C3 H1 1_555 1_555
C4 N2 1_555 1_555
H2 C4 1_555 1_555
C5 N1 1_555 1_555
H3 C5 1_555 1_555
C6 O3 1_555 1_555
C7 O5 1_555 1_555
H4 O7 1_555 1_555
H5 O7 1_555 1_555
H6 O8 1_555 1_555
H7 O8 1_555 1_555
Er1A O1 1_555 1_555
Er1A_2 O4 1_555 1_555
Er1A_3 O6 1_555 1_555
O1A Er1 1_555 1_555
O2A C1A 1_555 1_555
O3A Er1A_2 1_555 1_555
O3A_2 Er1A 1_555 1_555
O4A Er1 1_555 1_555
O4_2 Er1A 1_555 1_555
O5A Er1A_3 1_555 1_555
O5A_2 Er1A 1_555 1_555
O6A Er1 1_555 1_555
O6_2 Er1A 1_555 1_555
O7A Er1A 1_555 1_555
O8A Er1A 1_555 1_555
N1A Er1 1_555 1_555
N2A C3A 1_555 1_555
C1A O1A 1_555 1_555
C2A N1A 1_555 1_555
C3A C2A 1_555 1_555
H1A C3A 1_555 1_555
C4A N2A 1_555 1_555
H2A C4A 1_555 1_555
C5A N1A 1_555 1_555
H3A C5A 1_555 1_555
C6A C6 1_555 1_555
C7A C7 1_555 1_555
H4A O7A 1_555 1_555
H5A O7A 1_555 1_555
H6A O8A 1_555 1_555
H7A O8A 1_555 1_555
N1 Er1A 1_555 1_555
C4 C5 1_555 1_555
Er1A O1A 1_555 1_555
O3A C6A 1_555 1_555
O4A C6A 1_555 1_555
O5A C7A 1_555 1_555
O6A C7A 1_555 1_555
C1A C2A 1_555 1_555
C4A C5A 1_555 1_555

#END
