
#######################################################################
#
#                 Cambridge Crystallographic Data Centre
#                                CCDC 
#
#######################################################################
#
# If this CIF has been generated from an entry in the Cambridge 
# Structural Database, then it will include bibliographic, chemical, 
# crystal, experimental, refinement or atomic coordinate data resulting 
# from the CCDC's data processing and validation procedures.
#
#######################################################################

data_JEXROU
_symmetry_cell_setting           triclinic
_symmetry_space_group_name_H-M   'P -1'
_symmetry_Int_Tables_number      2
_space_group_name_Hall           '-P 1'
loop_
_symmetry_equiv_pos_site_id
_symmetry_equiv_pos_as_xyz
1 x,y,z
2 -x,-y,-z
_cell_length_a                   7.9905(12)
_cell_length_b                   8.6809(13)
_cell_length_c                   8.7788(13)
_cell_angle_alpha                115.540(2)
_cell_angle_beta                 101.868(2)
_cell_angle_gamma                96.133(2)
_cell_volume                     524.347
loop_
_atom_site_label
_atom_site_type_symbol
_atom_site_fract_x
_atom_site_fract_y
_atom_site_fract_z
Pr1 Pr 0.1607 0.914 0.1761
O1 O 0.1060(4) 0.9612(4) -0.0970(4)
O2 O 0.0046(4) 0.8238(4) -0.3870(4)
N1 N 0.3077(5) 0.7380(5) -0.0955(5)
N2 N 0.3455(5) 0.4835(5) -0.4090(5)
C1 C 0.1031(6) 0.8426(5) -0.2486(5)
C2 C 0.2233(6) 0.7207(6) -0.2518(6)
C3 C 0.2417(7) 0.5950(6) -0.4081(6)
H1 H 0.1809 0.5879 -0.5141
C4 C 0.4346(6) 0.5045(6) -0.2534(6)
H2 H 0.5118 0.4326 -0.2490
C5 C 0.4160(7) 0.6298(6) -0.0980(6)
H3 H 0.4805 0.6395 0.0080
O3 O 0.2858(4) 1.0218(4) 0.5001(4)
O4 O 0.5153(4) 1.0695(4) 0.7217(4)
C6 C 0.4432(5) 1.0262(5) 0.5645(5)
O5 O 0.1905(4) 0.6282(4) 0.1717(4)
O6 O 0.0579(4) 0.3501(4) 0.0737(4)
C7 C 0.0717(5) 0.4935(5) 0.0713(5)
O7 O -0.0753(5) 0.8026(5) 0.2866(4)
H4 H -0.170(6) 0.839(11) 0.291(8)
H5 H -0.024(7) 0.791(8) 0.375(5)
O8 O 0.2982(4) 1.2174(4) 0.2509(4)
H6 H 0.379(9) 1.274(8) 0.347(6)
H7 H 0.269(7) 1.269(6) 0.190(6)
Pr1A Pr -0.1607 1.086 -0.1761
Pr1A_2 Pr 0.8393 1.086 0.8239
Pr1A_3 Pr -0.1607 0.086 -0.1761
O1A O -0.1060(4) 1.0388(4) 0.0970(4)
O2A O -0.0046(4) 1.1762(4) 0.3870(4)
N1A N -0.3077(5) 1.2620(5) 0.0955(5)
N2A N -0.3455(5) 1.5165(5) 0.4090(5)
C1A C -0.1031(6) 1.1574(5) 0.2486(5)
C2A C -0.2233(6) 1.2793(6) 0.2518(6)
C3A C -0.2417(7) 1.4050(6) 0.4081(6)
H1A H -0.1809 1.4121 0.5141
C4A C -0.4346(6) 1.4955(6) 0.2534(6)
H2A H -0.5118 1.5674 0.2490
C5A C -0.4160(7) 1.3702(6) 0.0980(6)
H3A H -0.4805 1.3605 -0.0080
O3A O 0.7142(4) 0.9782(4) 0.4999(4)
O3A_2 O -0.2858(4) 0.9782(4) -0.5001(4)
O4A O 0.4847(4) 0.9305(4) 0.2783(4)
O4_2 O -0.4847(4) 1.0695(4) -0.2783(4)
C6A C 0.5568(5) 0.9738(5) 0.4355(5)
O5A O -0.1905(4) 0.3718(4) -0.1717(4)
O5A_2 O -0.1905(4) 1.3718(4) -0.1717(4)
O6A O -0.0579(4) 0.6499(4) -0.0737(4)
O6_2 O 0.0579(4) 1.3501(4) 0.0737(4)
C7A C -0.0717(5) 0.5065(5) -0.0713(5)
O7A O 0.0753(5) 1.1974(5) -0.2866(4)
H4A H 0.170(6) 1.161(11) -0.291(8)
H5A H 0.024(7) 1.209(8) -0.375(5)
O8A O -0.2982(4) 0.7826(4) -0.2509(4)
H6A H -0.379(9) 0.726(8) -0.347(6)
H7A H -0.269(7) 0.731(6) -0.190(6)
loop_
_geom_bond_atom_site_label_1
_geom_bond_atom_site_label_2
_geom_bond_site_symmetry_1
_geom_bond_site_symmetry_2
Pr1 O1 1_555 1_555
O1 C1 1_555 1_555
O2 C1 1_555 1_555
N1 Pr1 1_555 1_555
N2 C3 1_555 1_555
C1 C2 1_555 1_555
C2 N1 1_555 1_555
C3 C2 1_555 1_555
H1 C3 1_555 1_555
C4 N2 1_555 1_555
H2 C4 1_555 1_555
C5 N1 1_555 1_555
H3 C5 1_555 1_555
O3 Pr1 1_555 1_555
O4 C6 1_555 1_555
C6 O3 1_555 1_555
O5 Pr1 1_555 1_555
O6 C7 1_555 1_555
C7 O5 1_555 1_555
O7 Pr1 1_555 1_555
H4 O7 1_555 1_555
H5 O7 1_555 1_555
O8 Pr1 1_555 1_555
H6 O8 1_555 1_555
H7 O8 1_555 1_555
Pr1A O1 1_555 1_555
Pr1A_2 O4 1_555 1_555
Pr1A_3 O6 1_555 1_555
O1A Pr1 1_555 1_555
O2A C1A 1_555 1_555
N1A Pr1A 1_555 1_555
N2A C3A 1_555 1_555
C1A O1A 1_555 1_555
C2A N1A 1_555 1_555
C3A C2A 1_555 1_555
H1A C3A 1_555 1_555
C4A N2A 1_555 1_555
H2A C4A 1_555 1_555
C5A N1A 1_555 1_555
H3A C5A 1_555 1_555
O3A Pr1A_2 1_555 1_555
O3A_2 Pr1A 1_555 1_555
O4A Pr1 1_555 1_555
O4_2 Pr1A 1_555 1_555
C6A C6 1_555 1_555
O5A Pr1A_3 1_555 1_555
O5A_2 Pr1A 1_555 1_555
O6A Pr1 1_555 1_555
O6_2 Pr1A 1_555 1_555
C7A C7 1_555 1_555
O7A Pr1A 1_555 1_555
H4A O7A 1_555 1_555
H5A O7A 1_555 1_555
O8A Pr1A 1_555 1_555
H6A O8A 1_555 1_555
H7A O8A 1_555 1_555
C4 C5 1_555 1_555
Pr1A O1A 1_555 1_555
C1A C2A 1_555 1_555
C4A C5A 1_555 1_555
O3A C6A 1_555 1_555
O4A C6A 1_555 1_555
O5A C7A 1_555 1_555
O6A C7A 1_555 1_555

#END
