
#######################################################################
#
#                 Cambridge Crystallographic Data Centre
#                                CCDC 
#
#######################################################################
#
# If this CIF has been generated from an entry in the Cambridge 
# Structural Database, then it will include bibliographic, chemical, 
# crystal, experimental, refinement or atomic coordinate data resulting 
# from the CCDC's data processing and validation procedures.
#
#######################################################################

data_JEXSEL
_symmetry_cell_setting           monoclinic
_symmetry_space_group_name_H-M   'P 21/n'
_symmetry_Int_Tables_number      14
_space_group_name_Hall           '-P 2yn'
loop_
_symmetry_equiv_pos_site_id
_symmetry_equiv_pos_as_xyz
1 x,y,z
2 1/2-x,1/2+y,1/2-z
3 -x,-y,-z
4 1/2+x,1/2-y,1/2+z
_cell_length_a                   8.2178(19)
_cell_length_b                   4.9878(12)
_cell_length_c                   12.249(3)
_cell_angle_alpha                90
_cell_angle_beta                 90.784(3)
_cell_angle_gamma                90
_cell_volume                     502.024
loop_
_atom_site_label
_atom_site_type_symbol
_atom_site_fract_x
_atom_site_fract_y
_atom_site_fract_z
Ni1 Ni 1.0000 0.0000 1.0000
N1 N 1.4413(2) -0.0115(2) 0.82983(14)
N2 N 1.21890(17) 0.0703(3) 0.92242(11)
O1 O 1.55569(14) 0.2401(2) 0.63758(10)
O2 O 1.61371(14) -0.1650(2) 0.56931(10)
C1 C 1.5717(2) -0.0088(3) 0.64425(16)
C2 C 1.5530(2) -0.1441(3) 0.75582(13)
H1 H 1.5157 -0.3265 0.7442
H2 H 1.6593 -0.1536 0.7910
C3 C 1.2893(2) -0.0923(4) 0.85197(14)
H3 H 1.2399 -0.2432 0.8217
C4 C 1.3334(2) 0.2645(4) 0.94567(15)
H4 H 1.3186 0.4079 0.9931
C5 C 1.4709(2) 0.2152(4) 0.88905(15)
H5 H 1.5662 0.3158 0.8904
Ni1C Ni 1.5000 0.5000 0.5000
Ni1C_2 Ni 1.5000 -0.5000 0.5000
Ni1C_3 Ni 0.5000 -0.5000 1.5000
Ni1C_4 Ni 0.5000 0.5000 1.5000
N1B N 0.5587(2) 0.0115(2) 1.17017(14)
N2B N 0.78110(17) -0.0703(3) 1.07758(11)
O1B O 0.44431(14) -0.2401(2) 1.36242(10)
O1C O 1.05569(14) 0.2599(2) 1.13758(10)
O1A O 0.94431(14) -0.2599(2) 0.86242(10)
O2B O 0.38629(14) 0.1650(2) 1.43069(10)
O2C O 1.11371(14) -0.3350(2) 1.06931(10)
O2A O 0.88629(14) 0.3350(2) 0.93069(10)
C1B C 0.4283(2) 0.0088(3) 1.35575(16)
C2B C 0.4470(2) 0.1441(3) 1.24418(13)
H1B H 0.4843 0.3265 1.2558
H2B H 0.3407 0.1536 1.2090
C3B C 0.7107(2) 0.0923(4) 1.14803(14)
H3B H 0.7601 0.2432 1.1783
C4B C 0.6666(2) -0.2645(4) 1.05433(15)
H4B H 0.6814 -0.4079 1.0069
C5B C 0.5291(2) -0.2152(4) 1.11095(15)
H5B H 0.4338 -0.3158 1.1096
loop_
_geom_bond_atom_site_label_1
_geom_bond_atom_site_label_2
_geom_bond_site_symmetry_1
_geom_bond_site_symmetry_2
Ni1 N2 1_555 1_555
N1 C2 1_555 1_555
N2 C3 1_555 1_555
O1 C1 1_555 1_555
O2 C1 1_555 1_555
C1 C2 1_555 1_555
C2 H1 1_555 1_555
H2 C2 1_555 1_555
C3 N1 1_555 1_555
H3 C3 1_555 1_555
C4 N2 1_555 1_555
H4 C4 1_555 1_555
C5 N1 1_555 1_555
H5 C5 1_555 1_555
Ni1C O1 1_555 1_555
Ni1C_2 O2 1_555 1_555
Ni1C_3 O1B 1_555 1_555
Ni1C_4 O2B 1_555 1_555
N1B C2B 1_555 1_555
N2B Ni1 1_555 1_555
O1B C1B 1_555 1_555
O1C Ni1 1_555 1_555
O1A Ni1 1_555 1_555
O2B C1B 1_555 1_555
O2C Ni1 1_555 1_555
O2A Ni1 1_555 1_555
C1B C2B 1_555 1_555
C2B H1B 1_555 1_555
H2B C2B 1_555 1_555
C3B N1B 1_555 1_555
H3B C3B 1_555 1_555
C4B N2B 1_555 1_555
H4B C4B 1_555 1_555
C5B N1B 1_555 1_555
H5B C5B 1_555 1_555
C4 C5 1_555 1_555
N2B C3B 1_555 1_555
C4B C5B 1_555 1_555

#END
