
#######################################################################
#
#                 Cambridge Crystallographic Data Centre
#                                CCDC 
#
#######################################################################
#
# If this CIF has been generated from an entry in the Cambridge 
# Structural Database, then it will include bibliographic, chemical, 
# crystal, experimental, refinement or atomic coordinate data resulting 
# from the CCDC's data processing and validation procedures.
#
#######################################################################

data_JEXSIP
_symmetry_cell_setting           orthorhombic
_symmetry_space_group_name_H-M   'P b c a'
_symmetry_Int_Tables_number      61
_space_group_name_Hall           '-P 2ac 2ab'
loop_
_symmetry_equiv_pos_site_id
_symmetry_equiv_pos_as_xyz
1 x,y,z
2 1/2-x,-y,1/2+z
3 -x,1/2+y,1/2-z
4 1/2+x,1/2-y,-z
5 -x,-y,-z
6 1/2+x,y,1/2-z
7 x,1/2-y,1/2+z
8 1/2-x,1/2+y,z
_cell_length_a                   11.395(4)
_cell_length_b                   7.662(3)
_cell_length_c                   13.610(5)
_cell_angle_alpha                90
_cell_angle_beta                 90
_cell_angle_gamma                90
_cell_volume                     1188.27
loop_
_atom_site_label
_atom_site_type_symbol
_atom_site_fract_x
_atom_site_fract_y
_atom_site_fract_z
Cu1 Cu 0.5000 0.0000 0.5000
O1 O 0.4387(3) 0.1437(5) 0.3946(2)
O2 O 0.3921(3) -0.0971(5) 0.3122(3)
C1 C 0.3984(4) 0.0592(7) 0.3214(4)
C2 C 0.3583(4) 0.1849(7) 0.2406(4)
H1 H 0.3051 0.2698 0.2691
H2 H 0.4262 0.2478 0.2161
C3 C 0.1848(4) 0.1028(7) 0.1408(4)
H3 H 0.1298 0.1567 0.1811
C4 C 0.2649(5) -0.0381(7) 0.0234(4)
H4 H 0.2750 -0.1021 -0.0340
C5 C 0.3523(5) 0.0120(8) 0.0835(4)
H5 H 0.4320 -0.0096 0.0755
N1 N 0.3002(4) 0.1007(6) 0.1584(3)
N2 N 0.1586(3) 0.0186(5) 0.0589(3)
Cu1E Cu 0.0000 0.0000 0.0000
Cu1E_2 Cu 1.0000 0.0000 1.0000
O1D O 0.5613(3) -0.1437(5) 0.6054(2)
O2D O 0.6079(3) 0.0971(5) 0.6878(3)
C1D C 0.6016(4) -0.0592(7) 0.6786(4)
C2D C 0.6417(4) -0.1849(7) 0.7594(4)
H1D H 0.6949 -0.2698 0.7309
H2D H 0.5738 -0.2478 0.7839
C3D C 0.8152(4) -0.1028(7) 0.8592(4)
H3D H 0.8702 -0.1567 0.8189
C4D C 0.7351(5) 0.0381(7) 0.9766(4)
H4D H 0.7250 0.1021 1.0340
C5D C 0.6477(5) -0.0120(8) 0.9165(4)
H5D H 0.5680 0.0096 0.9245
N1D N 0.6998(4) -0.1007(6) 0.8416(3)
N2D N 0.8414(3) -0.0186(5) 0.9411(3)
N2E N 0.6586(3) 0.0186(5) 0.4411(3)
N2A N 0.3414(3) -0.0186(5) 0.5589(3)
loop_
_geom_bond_atom_site_label_1
_geom_bond_atom_site_label_2
_geom_bond_site_symmetry_1
_geom_bond_site_symmetry_2
Cu1 O1 1_555 1_555
O1 C1 1_555 1_555
O2 C1 1_555 1_555
C1 C2 1_555 1_555
C2 H1 1_555 1_555
H2 C2 1_555 1_555
C3 H3 1_555 1_555
C4 H4 1_555 1_555
C5 C4 1_555 1_555
H5 C5 1_555 1_555
N1 C2 1_555 1_555
N2 C3 1_555 1_555
Cu1E N2 1_555 1_555
Cu1E_2 N2D 1_555 1_555
O1D Cu1 1_555 1_555
O2D C1D 1_555 1_555
C1D O1D 1_555 1_555
C2D C1D 1_555 1_555
H1D C2D 1_555 1_555
H2D C2D 1_555 1_555
C3D H3D 1_555 1_555
C4D H4D 1_555 1_555
C5D C4D 1_555 1_555
H5D C5D 1_555 1_555
N1D C2D 1_555 1_555
N2D C3D 1_555 1_555
N2E Cu1 1_555 1_555
N2A Cu1 1_555 1_555
C3 N1 1_555 1_555
C4 N2 1_555 1_555
C5 N1 1_555 1_555
C3D N1D 1_555 1_555
C4D N2D 1_555 1_555
C5D N1D 1_555 1_555

#END
