
#######################################################################
#
#                 Cambridge Crystallographic Data Centre
#                                CCDC 
#
#######################################################################
#
# If this CIF has been generated from an entry in the Cambridge 
# Structural Database, then it will include bibliographic, chemical, 
# crystal, experimental, refinement or atomic coordinate data resulting 
# from the CCDC's data processing and validation procedures.
#
#######################################################################

data_JEXVAK
_symmetry_cell_setting           monoclinic
_symmetry_space_group_name_H-M   'P 21/c'
_symmetry_Int_Tables_number      14
_space_group_name_Hall           '-P 2ybc'
loop_
_symmetry_equiv_pos_site_id
_symmetry_equiv_pos_as_xyz
1 x,y,z
2 -x,1/2+y,1/2-z
3 -x,-y,-z
4 x,1/2-y,1/2+z
_cell_length_a                   12.341(2)
_cell_length_b                   26.649(4)
_cell_length_c                   10.6206(17)
_cell_angle_alpha                90
_cell_angle_beta                 96.753(3)
_cell_angle_gamma                90
_cell_volume                     3468.62
loop_
_atom_site_label
_atom_site_type_symbol
_atom_site_fract_x
_atom_site_fract_y
_atom_site_fract_z
Ce1 Ce 0.66583(3) 0.385615(12) 0.81264(3)
O1 O 0.8595(3) 0.38255(15) 0.7927(3)
O2 O 0.5558(3) 0.41351(14) 0.9917(4)
O3 O 0.6627(3) 0.41070(13) 0.5921(4)
O4 O 0.6082(3) 0.47244(14) 0.7586(4)
O5 O 0.7872(3) 0.42869(15) 0.9765(3)
C1 C 0.9646(5) 0.44527(19) 1.0823(5)
N1 N 0.9330(4) 0.40289(17) 0.8855(4)
C2 C 0.8911(5) 0.4260(2) 0.9815(5)
O6 O 1.1888(4) 0.38454(19) 0.7576(4)
N2 N 1.0204(4) 0.37964(18) 0.6508(5)
H1 H 0.9521 0.3761 0.6578
N3 N 0.6486(4) 0.45945(17) 0.5596(4)
C3 C 1.0908(5) 0.3858(2) 0.7552(6)
N4 N 0.7296(4) 0.39490(18) 0.3716(4)
H2 H 0.7369 0.3875 0.4509
C4 C 1.0570(5) 0.3789(2) 0.5255(6)
H3 H 1.1346 0.3860 0.5341
H4 H 1.0202 0.4055 0.4749
C5 C 0.6655(5) 0.4756(2) 0.4383(5)
C6 C 1.1147(5) 0.4162(2) 0.9759(6)
H5 H 1.1893 0.4124 0.9736
C7 C 1.0439(5) 0.3999(2) 0.8766(6)
C8 C 0.9250(5) 0.4711(2) 1.1830(6)
H6 H 0.8505 0.4764 1.1823
C9 C 1.0763(5) 0.4390(2) 1.0833(6)
C10 C 0.6898(5) 0.4390(2) 0.3372(6)
O7 O 0.6713(4) 0.45358(16) 0.2234(4)
N5 N 0.9209(4) 0.31951(17) 0.4145(4)
C11 C 0.8838(5) 0.3490(2) 0.2991(5)
H7 H 0.9038 0.3314 0.2253
H8 H 0.9209 0.3812 0.3039
C12 C 1.0366(5) 0.3297(2) 0.4554(6)
H9 H 1.0758 0.3300 0.3814
H10 H 1.0661 0.3026 0.5100
C13 C 0.6179(5) 0.4912(2) 0.6503(5)
C14 C 0.6572(5) 0.5254(2) 0.4108(6)
H11 H 0.6703 0.5365 0.3309
C15 C 0.6055(5) 0.5432(2) 0.6190(5)
C16 C 0.6240(5) 0.6119(2) 0.4768(6)
H12 H 0.6428 0.6241 0.4003
C17 C 0.5625(5) 0.6265(2) 0.6773(6)
H13 H 0.5369 0.6487 0.7345
C18 C 0.5708(5) 0.5764(2) 0.7065(6)
H14 H 0.5532 0.5649 0.7842
C19 C 0.9043(5) 0.2657(2) 0.3908(6)
H15 H 0.9668 0.2521 0.3548
H16 H 0.8403 0.2609 0.3297
C20 C 0.9967(5) 0.4884(2) 1.2826(6)
H17 H 0.9708 0.5054 1.3494
C21 C 0.5915(6) 0.6442(2) 0.5647(6)
H18 H 0.5890 0.6785 0.5481
C22 C 0.7623(5) 0.3577(2) 0.2830(5)
H19 H 0.7395 0.3689 0.1970
H20 H 0.7255 0.3263 0.2957
C23 C 1.1478(6) 0.4566(3) 1.1852(6)
H21 H 1.2227 0.4521 1.1867
C24 C 0.6289(5) 0.5609(2) 0.5020(6)
O8 O 0.5001(3) 0.33476(13) 0.7712(3)
O9 O 0.6796(3) 0.30943(14) 0.6873(4)
N6 N 0.5904(4) 0.28010(16) 0.6579(4)
C25 C 0.8896(5) 0.2380(2) 0.5094(5)
H22 H 0.8927 0.2022 0.4933
H23 H 0.9493 0.2462 0.5739
C26 C 0.4034(5) 0.22273(19) 0.5972(5)
C27 C 0.4969(5) 0.2950(2) 0.7064(5)
C28 C 0.4013(5) 0.2643(2) 0.6764(5)
C29 C 0.3047(5) 0.2771(2) 0.7244(5)
H24 H 0.3023 0.3054 0.7751
C30 C 0.5955(5) 0.23782(19) 0.5820(5)
C31 C 1.1066(6) 0.4805(3) 1.2829(6)
H25 H 1.1543 0.4917 1.3514
N7 N 0.7880(4) 0.24950(17) 0.5568(4)
H26 H 0.7844 0.2758 0.6029
C32 C 0.2161(5) 0.2062(2) 0.6183(6)
H27 H 0.1537 0.1867 0.5996
C33 C 0.3080(5) 0.1943(2) 0.5699(6)
H28 H 0.3086 0.1665 0.5170
C34 C 0.2142(5) 0.2483(2) 0.6976(6)
H29 H 0.1506 0.2566 0.7319
O10 O 0.6996(3) 0.18125(14) 0.4747(4)
C35 C 0.6998(5) 0.2213(2) 0.5324(5)
C36 C 0.5035(5) 0.2098(2) 0.5528(5)
H30 H 0.5066 0.1815 0.5022
Ce1C Ce 0.66583(3) 0.114385(12) 0.31264(3)
O10C O 0.6996(3) 0.31875(14) 0.9747(4)
O11 O 0.3712(4) 0.47158(17) 0.9787(5)
loop_
_geom_bond_atom_site_label_1
_geom_bond_atom_site_label_2
_geom_bond_site_symmetry_1
_geom_bond_site_symmetry_2
Ce1 O1 1_555 1_555
O1 N1 1_555 1_555
O2 Ce1 1_555 1_555
O3 Ce1 1_555 1_555
O4 Ce1 1_555 1_555
O5 Ce1 1_555 1_555
C1 C2 1_555 1_555
N1 C2 1_555 1_555
C2 O5 1_555 1_555
O6 C3 1_555 1_555
N2 H1 1_555 1_555
N3 O3 1_555 1_555
C3 N2 1_555 1_555
N4 H2 1_555 1_555
C4 N2 1_555 1_555
H3 C4 1_555 1_555
H4 C4 1_555 1_555
C5 N3 1_555 1_555
C6 H5 1_555 1_555
C7 N1 1_555 1_555
C8 C1 1_555 1_555
H6 C8 1_555 1_555
C9 C1 1_555 1_555
C10 N4 1_555 1_555
O7 C10 1_555 1_555
N5 C11 1_555 1_555
C11 H7 1_555 1_555
H8 C11 1_555 1_555
C12 C4 1_555 1_555
H9 C12 1_555 1_555
H10 C12 1_555 1_555
C13 O4 1_555 1_555
C14 C5 1_555 1_555
H11 C14 1_555 1_555
C15 C13 1_555 1_555
C16 H12 1_555 1_555
C17 H13 1_555 1_555
C18 C15 1_555 1_555
H14 C18 1_555 1_555
C19 N5 1_555 1_555
H15 C19 1_555 1_555
H16 C19 1_555 1_555
C20 C8 1_555 1_555
H17 C20 1_555 1_555
C21 C16 1_555 1_555
H18 C21 1_555 1_555
C22 N4 1_555 1_555
H19 C22 1_555 1_555
H20 C22 1_555 1_555
C23 C9 1_555 1_555
H21 C23 1_555 1_555
C24 C14 1_555 1_555
O8 Ce1 1_555 1_555
O9 Ce1 1_555 1_555
N6 O9 1_555 1_555
C25 C19 1_555 1_555
H22 C25 1_555 1_555
H23 C25 1_555 1_555
C26 C28 1_555 1_555
C27 O8 1_555 1_555
C28 C27 1_555 1_555
C29 C28 1_555 1_555
H24 C29 1_555 1_555
C30 N6 1_555 1_555
C31 C20 1_555 1_555
H25 C31 1_555 1_555
N7 C25 1_555 1_555
H26 N7 1_555 1_555
C32 H27 1_555 1_555
C33 C26 1_555 1_555
H28 C33 1_555 1_555
C34 C29 1_555 1_555
H29 C34 1_555 1_555
O10 C35 1_555 1_555
C35 C30 1_555 1_555
C36 C26 1_555 1_555
H30 C36 1_555 1_555
Ce1C O10 1_555 1_555
O10C Ce1 1_555 1_555
N3 C13 1_555 1_555
C3 C7 1_555 1_555
C5 C10 1_555 1_555
C6 C7 1_555 1_555
C6 C9 1_555 1_555
N5 C12 1_555 1_555
C11 C22 1_555 1_555
C15 C24 1_555 1_555
C16 C24 1_555 1_555
C17 C18 1_555 1_555
C17 C21 1_555 1_555
C23 C31 1_555 1_555
N6 C27 1_555 1_555
C30 C36 1_555 1_555
N7 C35 1_555 1_555
C32 C33 1_555 1_555
C32 C34 1_555 1_555

#END
