
#######################################################################
#
#                 Cambridge Crystallographic Data Centre
#                                CCDC 
#
#######################################################################
#
# If this CIF has been generated from an entry in the Cambridge 
# Structural Database, then it will include bibliographic, chemical, 
# crystal, experimental, refinement or atomic coordinate data resulting 
# from the CCDC's data processing and validation procedures.
#
#######################################################################

data_JEXWIT
_symmetry_cell_setting           monoclinic
_symmetry_space_group_name_H-M   'P 21/c'
_symmetry_Int_Tables_number      14
_space_group_name_Hall           '-P 2ybc'
loop_
_symmetry_equiv_pos_site_id
_symmetry_equiv_pos_as_xyz
1 x,y,z
2 -x,1/2+y,1/2-z
3 -x,-y,-z
4 x,1/2-y,1/2+z
_cell_length_a                   11.4778(14)
_cell_length_b                   13.1159(15)
_cell_length_c                   24.903(3)
_cell_angle_alpha                90
_cell_angle_beta                 102.761(3)
_cell_angle_gamma                90
_cell_volume                     3656.34
loop_
_atom_site_label
_atom_site_type_symbol
_atom_site_fract_x
_atom_site_fract_y
_atom_site_fract_z
C1 C 0.5324(4) 0.8947(3) 0.2166(2)
H1 H 0.4676 0.8808 0.2348
H2 H 0.5080 0.8715 0.1788
C2 C 0.6372(4) 0.8190(4) 0.30139(19)
H3 H 0.5890 0.7591 0.3037
H4 H 0.6002 0.8764 0.3157
C3 C 0.7610(4) 0.8027(4) 0.33712(18)
C4 C 0.9423(4) 0.8336(3) 0.38553(19)
C5 C 1.0490(4) 0.8749(3) 0.4155(2)
H5 H 1.0618 0.9450 0.4174
C6 C 1.1333(5) 0.8086(4) 0.4420(2)
H6 H 1.2064 0.8333 0.4615
C7 C 1.1116(4) 0.7042(4) 0.44026(19)
H7 H 1.1717 0.6615 0.4590
C8 C 1.0082(4) 0.6608(3) 0.41290(18)
H8 H 0.9960 0.5908 0.4131
C9 C 0.9225(4) 0.7263(3) 0.38494(19)
C10 C 0.6506(4) 0.7468(3) 0.21574(17)
H9 H 0.5725 0.7165 0.2024
H10 H 0.6980 0.6993 0.2415
C11 C 0.7089(4) 0.7613(3) 0.16802(18)
C12 C 0.7852(4) 0.8445(3) 0.10654(17)
C13 C 0.8310(4) 0.9145(3) 0.07394(18)
H11 H 0.8186 0.9842 0.0769
C14 C 0.8952(4) 0.8771(4) 0.03730(19)
H12 H 0.9256 0.9215 0.0147
C15 C 0.9132(4) 0.7767(4) 0.03452(19)
H13 H 0.9589 0.7543 0.0103
C16 C 0.8685(4) 0.7018(3) 0.06536(19)
H14 H 0.8819 0.6325 0.0617
C17 C 0.8020(4) 0.7401(3) 0.10205(18)
C18 C 0.9624(4) 0.2265(3) 0.28876(19)
H15 H 0.9851 0.2501 0.3266
H16 H 1.0288 0.2392 0.2714
C19 C 0.8589(4) 0.3079(4) 0.2012(2)
H17 H 0.9091 0.3671 0.2005
H18 H 0.8956 0.2508 0.1864
C20 C 0.7450(4) 0.3268(3) 0.1662(2)
C21 C 0.5651(4) 0.2881(3) 0.11473(17)
C22 C 0.4615(4) 0.2449(3) 0.08760(19)
H19 H 0.4461 0.1759 0.0910
C23 C 0.3779(4) 0.3100(3) 0.05380(17)
H20 H 0.3064 0.2831 0.0340
C24 C 0.4009(4) 0.4144(4) 0.0496(2)
H21 H 0.3443 0.4561 0.0276
C25 C 0.5107(4) 0.4563(4) 0.0790(2)
H22 H 0.5279 0.5251 0.0763
C26 C 0.5904(4) 0.3920(3) 0.11151(18)
C27 C 0.8392(4) 0.3812(3) 0.2893(2)
H23 H 0.7922 0.4296 0.2640
H24 H 0.9163 0.4118 0.3046
C28 C 0.7767(4) 0.3578(3) 0.33490(18)
C29 C 0.6978(4) 0.2802(3) 0.39157(17)
C30 C 0.6406(5) 0.2095(4) 0.4213(2)
H25 H 0.6428 0.1398 0.4150
C31 C 0.5822(5) 0.2483(4) 0.4597(2)
H26 H 0.5454 0.2039 0.4799
C32 C 0.5772(5) 0.3559(4) 0.4689(2)
H27 H 0.5363 0.3807 0.4945
C33 C 0.6318(4) 0.4214(4) 0.4404(2)
H28 H 0.6303 0.4911 0.4472
C34 C 0.6907(4) 0.3844(3) 0.40075(18)
Cu1 Cu 0.73827(5) 0.57698(4) 0.34888(2)
Cu2 Cu 0.76779(5) 0.54671(4) 0.15368(2)
N1 N 0.6372(3) 0.8382(3) 0.24395(15)
N2 N 0.8083(3) 0.7079(3) 0.35447(15)
N3 N 0.8409(3) 0.8752(3) 0.35526(14)
H29 H 0.8297 0.9393 0.3487
N4 N 0.7531(3) 0.6898(3) 0.14025(14)
N5 N 0.7265(3) 0.8569(3) 0.14868(17)
H30 H 0.7048 0.9138 0.1606
N6 N 0.8558(3) 0.2851(3) 0.25912(16)
N7 N 0.7025(3) 0.4126(3) 0.14442(16)
N8 N 0.6643(3) 0.2492(3) 0.15012(15)
H31 H 0.6742 0.1866 0.1605
N9 N 0.7477(3) 0.4313(3) 0.36457(14)
N10 N 0.7544(3) 0.2703(3) 0.35112(16)
H32 H 0.7730 0.2134 0.3380
O1 O 0.4419(3) 1.0862(2) 0.19255(14)
O2 O 0.6574(3) 1.0457(2) 0.18648(13)
O3 O 0.6021(3) 1.0653(2) 0.28001(14)
H33 H 0.6753 1.0674 0.2882
O4 O 1.0486(3) 0.0360(2) 0.31266(14)
O5 O 0.8308(3) 0.0782(2) 0.31654(14)
O6 O 0.8897(3) 0.0603(2) 0.22659(14)
H34 H 0.8311 0.1083 0.2082
P1 P 0.55850(10) 1.03056(9) 0.21698(6)
P2 P 0.93322(10) 0.09318(9) 0.28819(6)
Cu1A Cu 0.26173(5) 1.07698(4) 0.15112(2)
Cu2A Cu 1.23221(5) 0.04671(4) 0.34632(2)
O1A O 0.5581(3) 0.5862(2) 0.30745(14)
O4A O 0.9514(3) 0.5360(2) 0.18734(14)
loop_
_geom_bond_atom_site_label_1
_geom_bond_atom_site_label_2
_geom_bond_site_symmetry_1
_geom_bond_site_symmetry_2
C1 H1 1_555 1_555
H2 C1 1_555 1_555
C2 H3 1_555 1_555
H4 C2 1_555 1_555
C3 C2 1_555 1_555
C4 C5 1_555 1_555
C5 H5 1_555 1_555
C6 C5 1_555 1_555
H6 C6 1_555 1_555
C7 C6 1_555 1_555
H7 C7 1_555 1_555
C8 C7 1_555 1_555
H8 C8 1_555 1_555
C9 C4 1_555 1_555
C10 H9 1_555 1_555
H10 C10 1_555 1_555
C11 C10 1_555 1_555
C12 C13 1_555 1_555
C13 H11 1_555 1_555
C14 C13 1_555 1_555
H12 C14 1_555 1_555
C15 C14 1_555 1_555
H13 C15 1_555 1_555
C16 C15 1_555 1_555
H14 C16 1_555 1_555
C17 C12 1_555 1_555
C18 H15 1_555 1_555
H16 C18 1_555 1_555
C19 H17 1_555 1_555
H18 C19 1_555 1_555
C20 C19 1_555 1_555
C21 C22 1_555 1_555
C22 H19 1_555 1_555
C23 C22 1_555 1_555
H20 C23 1_555 1_555
C24 C23 1_555 1_555
H21 C24 1_555 1_555
C25 C24 1_555 1_555
H22 C25 1_555 1_555
C26 C21 1_555 1_555
C27 H23 1_555 1_555
H24 C27 1_555 1_555
C28 C27 1_555 1_555
C29 C30 1_555 1_555
C30 H25 1_555 1_555
C31 C30 1_555 1_555
H26 C31 1_555 1_555
C32 C31 1_555 1_555
H27 C32 1_555 1_555
C33 C32 1_555 1_555
H28 C33 1_555 1_555
C34 C29 1_555 1_555
Cu1 N2 1_555 1_555
Cu2 N4 1_555 1_555
N1 C1 1_555 1_555
N2 C3 1_555 1_555
N3 C3 1_555 1_555
H29 N3 1_555 1_555
N4 C11 1_555 1_555
N5 C11 1_555 1_555
H30 N5 1_555 1_555
N6 C18 1_555 1_555
N7 C20 1_555 1_555
N8 C20 1_555 1_555
H31 N8 1_555 1_555
N9 C28 1_555 1_555
N10 C28 1_555 1_555
H32 N10 1_555 1_555
O1 P1 1_555 1_555
O2 P1 1_555 1_555
O3 H33 1_555 1_555
O4 P2 1_555 1_555
O5 P2 1_555 1_555
O6 H34 1_555 1_555
P1 C1 1_555 1_555
P2 C18 1_555 1_555
Cu1A O1 1_555 1_555
Cu2A O4 1_555 1_555
O1A Cu1 1_555 1_555
O4A Cu2 1_555 1_555
C2 N1 1_555 1_555
C4 N3 1_555 1_555
C8 C9 1_555 1_555
C9 N2 1_555 1_555
C10 N1 1_555 1_555
C12 N5 1_555 1_555
C16 C17 1_555 1_555
C17 N4 1_555 1_555
C19 N6 1_555 1_555
C21 N8 1_555 1_555
C25 C26 1_555 1_555
C26 N7 1_555 1_555
C27 N6 1_555 1_555
C29 N10 1_555 1_555
C33 C34 1_555 1_555
C34 N9 1_555 1_555
Cu1 N9 1_555 1_555
Cu2 N7 1_555 1_555
O3 P1 1_555 1_555
O6 P2 1_555 1_555

#END
