
#######################################################################
#
#                 Cambridge Crystallographic Data Centre
#                                CCDC 
#
#######################################################################
#
# If this CIF has been generated from an entry in the Cambridge 
# Structural Database, then it will include bibliographic, chemical, 
# crystal, experimental, refinement or atomic coordinate data resulting 
# from the CCDC's data processing and validation procedures.
#
#######################################################################

data_JEXWIS
_symmetry_cell_setting           orthorhombic
_symmetry_space_group_name_H-M   'P b c n'
_symmetry_Int_Tables_number      60
_space_group_name_Hall           '-P 2n 2ab'
loop_
_symmetry_equiv_pos_site_id
_symmetry_equiv_pos_as_xyz
1 x,y,z
2 1/2-x,1/2+y,z
3 x,-y,1/2+z
4 1/2-x,1/2-y,1/2+z
5 -x,-y,-z
6 1/2+x,1/2-y,-z
7 -x,y,1/2-z
8 1/2+x,1/2+y,1/2-z
_cell_length_a                   9.558(2)
_cell_length_b                   9.491(2)
_cell_length_c                   15.898(2)
_cell_angle_alpha                90
_cell_angle_beta                 90
_cell_angle_gamma                90
_cell_volume                     1442.19
loop_
_atom_site_label
_atom_site_type_symbol
_atom_site_fract_x
_atom_site_fract_y
_atom_site_fract_z
Cd1 Cd 0.5000 -0.28239(4) 0.2500
S1 S 0.6855(2) -0.0931(2) 0.5143(1)
N1 N 0.3340(4) -0.1164(3) 0.2882(2)
N2 N 0.2317(4) -0.1579(4) 0.3453(2)
N3 N 0.1527(3) 0.0362(3) 0.2882(2)
N4 N 0.0101(5) -0.0803(4) 0.3897(2)
N5 N 0.3475(4) 0.0798(4) 0.1978(2)
N6 N 0.5881(4) -0.2703(4) 0.3899(2)
C1 C 0.2807(3) 0.0002(4) 0.2557(3)
C2 C 0.1260(4) -0.0674(4) 0.3439(2)
C3 C 0.6265(4) -0.1997(4) 0.4403(3)
H1 H -0.004(6) -0.146(5) 0.419(3)
H2 H -0.037(5) -0.013(5) 0.396(3)
H3 H 0.296(4) 0.147(4) 0.169(2)
H4 H 0.415(5) 0.053(5) 0.168(3)
H5 H 0.236(5) -0.233(4) 0.380(3)
N1F N 0.6660(4) -0.1164(3) 0.2118(2)
N2F N 0.7683(4) -0.1579(4) 0.1547(2)
N3F N 0.8473(3) 0.0362(3) 0.2118(2)
N4F N 0.9899(5) -0.0803(4) 0.1103(2)
N5F N 0.6525(4) 0.0798(4) 0.3022(2)
C1F C 0.7193(3) 0.0002(4) 0.2443(3)
C2F C 0.8740(4) -0.0674(4) 0.1561(2)
H1F H 1.004(6) -0.146(5) 0.081(3)
H2F H 1.037(5) -0.013(5) 0.104(3)
H3F H 0.704(4) 0.147(4) 0.331(2)
H4F H 0.585(5) 0.053(5) 0.332(3)
H5F H 0.764(5) -0.233(4) 0.120(3)
S1F S 0.3145(2) -0.0931(2) -0.0143(1)
N6F N 0.4119(4) -0.2703(4) 0.1101(2)
C3F C 0.3735(4) -0.1997(4) 0.0597(3)
N3A N 0.3473(3) -0.4638(3) 0.2882(2)
N3G N 0.6527(3) -0.4638(3) 0.2118(2)
Cd1A Cd 0.0000 0.21761(4) 0.2500
Cd1A_2 Cd 1.0000 0.21761(4) 0.2500
loop_
_geom_bond_atom_site_label_1
_geom_bond_atom_site_label_2
_geom_bond_site_symmetry_1
_geom_bond_site_symmetry_2
Cd1 N1 1_555 1_555
S1 C3 1_555 1_555
N1 N2 1_555 1_555
N2 C2 1_555 1_555
N3 C1 1_555 1_555
N4 C2 1_555 1_555
N5 C1 1_555 1_555
N6 Cd1 1_555 1_555
C1 N1 1_555 1_555
C2 N3 1_555 1_555
C3 N6 1_555 1_555
H1 N4 1_555 1_555
H2 N4 1_555 1_555
H3 N5 1_555 1_555
H4 N5 1_555 1_555
H5 N2 1_555 1_555
N1F Cd1 1_555 1_555
N2F N1F 1_555 1_555
N3F C1F 1_555 1_555
N4F C2F 1_555 1_555
N5F C1F 1_555 1_555
C1F N1F 1_555 1_555
C2F N2F 1_555 1_555
H1F N4F 1_555 1_555
H2F N4F 1_555 1_555
H3F N5F 1_555 1_555
H4F N5F 1_555 1_555
H5F N2F 1_555 1_555
S1F C3F 1_555 1_555
N6F Cd1 1_555 1_555
C3F N6F 1_555 1_555
N3A Cd1 1_555 1_555
N3G Cd1 1_555 1_555
Cd1A N3 1_555 1_555
Cd1A_2 N3F 1_555 1_555
N3F C2F 1_555 1_555

#END
