
#######################################################################
#
#                 Cambridge Crystallographic Data Centre
#                                CCDC 
#
#######################################################################
#
# If this CIF has been generated from an entry in the Cambridge 
# Structural Database, then it will include bibliographic, chemical, 
# crystal, experimental, refinement or atomic coordinate data resulting 
# from the CCDC's data processing and validation procedures.
#
#######################################################################

data_JEYCOG
_symmetry_cell_setting           monoclinic
_symmetry_space_group_name_H-M   'P 21/c'
_symmetry_Int_Tables_number      14
_space_group_name_Hall           '-P 2ybc'
loop_
_symmetry_equiv_pos_site_id
_symmetry_equiv_pos_as_xyz
1 x,y,z
2 -x,1/2+y,1/2-z
3 -x,-y,-z
4 x,1/2-y,1/2+z
_cell_length_a                   10.9098(6)
_cell_length_b                   19.5471(9)
_cell_length_c                   7.6918(3)
_cell_angle_alpha                90
_cell_angle_beta                 100.069(3)
_cell_angle_gamma                90
_cell_volume                     1615.05
loop_
_atom_site_label
_atom_site_type_symbol
_atom_site_fract_x
_atom_site_fract_y
_atom_site_fract_z
Cu1 Cu 0.40547(4) 0.04721(2) 0.39940(6)
O1 O 0.5849(2) 0.04192(14) 0.4754(3)
O2 O 0.2270(3) 0.06580(14) 0.3220(3)
O3 O -0.4272(3) 0.01135(18) -0.1408(4)
N1 N 0.4175(3) 0.14092(17) 0.3233(4)
N2 N 0.3015(3) 0.16689(19) 0.2513(4)
C1 C 0.6701(4) 0.0924(2) 0.4785(5)
C2 C 0.7955(4) 0.0784(2) 0.5423(5)
H1 H 0.8208 0.0330 0.5746
C3 C 0.8831(4) 0.1302(2) 0.5585(5)
H2 H 0.9674 0.1199 0.6062
C4 C 0.8513(4) 0.1963(2) 0.5074(6)
H3 H 0.9123 0.2315 0.5218
C5 C 0.7293(4) 0.2104(2) 0.4350(6)
H4 H 0.7070 0.2556 0.3962
C6 C 0.6369(4) 0.1592(2) 0.4174(5)
C7 C 0.5122(4) 0.1805(2) 0.3393(5)
H5 H 0.5001 0.2262 0.2978
C8 C 0.2071(4) 0.1242(2) 0.2576(4)
C9 C 0.0777(4) 0.1494(2) 0.1907(5)
H6 H 0.0789 0.1809 0.0904
H7 H 0.0472 0.1751 0.2854
C10 C -0.0112(4) 0.0898(2) 0.1305(6)
H8 H 0.0209 0.0636 0.0377
H9 H -0.0125 0.0586 0.2317
C11 C -0.1438(4) 0.1129(2) 0.0587(5)
H10 H -0.1438 0.1430 -0.0449
H11 H -0.1765 0.1394 0.1502
C12 C -0.2277(4) 0.0511(2) 0.0046(5)
H12 H -0.1934 0.0242 -0.0849
H13 H -0.2276 0.0214 0.1089
C13 C -0.3596(4) 0.0712(2) -0.0698(5)
H14 H -0.3996 0.0915 0.0243
H15 H -0.3602 0.1058 -0.1639
Cl1 Cl 0.29406(10) 0.14634(5) 0.77074(12)
O4 O 0.1861(3) 0.1278(2) 0.8409(4)
O5 O 0.3482(3) 0.08615(17) 0.7051(4)
O6 O 0.3839(3) 0.17823(18) 0.9057(4)
O7 O 0.2601(4) 0.19403(16) 0.6251(4)
H16 H 0.291(5) 0.202(3) 0.196(6)
H17 H -0.488(5) 0.020(3) -0.151(7)
Cu1B Cu 0.59453(4) -0.04721(2) 0.60060(6)
Cu1B_2 Cu -0.40547(4) -0.04721(2) -0.39940(6)
O1B O 0.4151(2) -0.04192(14) 0.5246(3)
O3B O 0.4272(3) -0.01135(18) 0.1408(4)
H17B H 0.488(5) -0.020(3) 0.151(7)
loop_
_geom_bond_atom_site_label_1
_geom_bond_atom_site_label_2
_geom_bond_site_symmetry_1
_geom_bond_site_symmetry_2
Cu1 O1 1_555 1_555
O1 C1 1_555 1_555
O2 Cu1 1_555 1_555
O3 C13 1_555 1_555
N1 Cu1 1_555 1_555
N2 N1 1_555 1_555
C1 C2 1_555 1_555
C2 H1 1_555 1_555
C3 C2 1_555 1_555
H2 C3 1_555 1_555
C4 C3 1_555 1_555
H3 C4 1_555 1_555
C5 C4 1_555 1_555
H4 C5 1_555 1_555
C6 C1 1_555 1_555
C7 N1 1_555 1_555
H5 C7 1_555 1_555
C8 O2 1_555 1_555
C9 C8 1_555 1_555
H6 C9 1_555 1_555
H7 C9 1_555 1_555
C10 C9 1_555 1_555
H8 C10 1_555 1_555
H9 C10 1_555 1_555
C11 C10 1_555 1_555
H10 C11 1_555 1_555
H11 C11 1_555 1_555
C12 C11 1_555 1_555
H12 C12 1_555 1_555
H13 C12 1_555 1_555
C13 C12 1_555 1_555
H14 C13 1_555 1_555
H15 C13 1_555 1_555
Cl1 O4 1_555 1_555
O5 Cu1 1_555 1_555
O6 Cl1 1_555 1_555
O7 Cl1 1_555 1_555
H16 N2 1_555 1_555
H17 O3 1_555 1_555
Cu1B O1 1_555 1_555
Cu1B_2 O3 1_555 1_555
O1B Cu1 1_555 1_555
O3B Cu1 1_555 1_555
H17B O3B 1_555 1_555
N2 C8 1_555 1_555
C5 C6 1_555 1_555
C6 C7 1_555 1_555
Cl1 O5 1_555 1_555
Cu1B O1B 1_555 1_555

#END
