
#######################################################################
#
#                 Cambridge Crystallographic Data Centre
#                                CCDC 
#
#######################################################################
#
# If this CIF has been generated from an entry in the Cambridge 
# Structural Database, then it will include bibliographic, chemical, 
# crystal, experimental, refinement or atomic coordinate data resulting 
# from the CCDC's data processing and validation procedures.
#
#######################################################################

data_JEYCUM
_symmetry_cell_setting           monoclinic
_symmetry_space_group_name_H-M   'P 21/c'
_symmetry_Int_Tables_number      14
_space_group_name_Hall           '-P 2ybc'
loop_
_symmetry_equiv_pos_site_id
_symmetry_equiv_pos_as_xyz
1 x,y,z
2 -x,1/2+y,1/2-z
3 -x,-y,-z
4 x,1/2-y,1/2+z
_cell_length_a                   19.208(4)
_cell_length_b                   7.9430(16)
_cell_length_c                   19.760(4)
_cell_angle_alpha                90
_cell_angle_beta                 99.42(3)
_cell_angle_gamma                90
_cell_volume                     2974.11
loop_
_atom_site_label
_atom_site_type_symbol
_atom_site_fract_x
_atom_site_fract_y
_atom_site_fract_z
Cu1 Cu 0.279476(12) 0.49288(3) 0.322396(12)
Cu2 Cu 0.204872(12) 0.55610(3) 0.440538(12)
N1 N 0.37795(9) 0.4631(2) 0.31965(8)
N2 N 0.39337(9) 0.5014(2) 0.25539(9)
H1 H 0.4354 0.4842 0.2445
O1 O 0.29637(7) 0.47776(19) 0.42259(7)
O2 O 0.28000(7) 0.5785(2) 0.22732(7)
O3 O 0.22312(8) 0.6457(2) -0.06052(8)
H2 H 0.1906 0.5879 -0.0485
C1 C 0.35427(10) 0.4135(3) 0.46247(10)
C2 C 0.41609(10) 0.3729(3) 0.43575(10)
C3 C 0.47357(11) 0.3012(3) 0.47929(11)
H3 H 0.5146 0.2721 0.4608
C4 C 0.47249(12) 0.2716(3) 0.54748(12)
H4 H 0.5117 0.2213 0.5758
C5 C 0.41250(12) 0.3174(3) 0.57400(11)
H5 H 0.4114 0.3012 0.6214
C6 C 0.35424(11) 0.3864(3) 0.53248(11)
H6 H 0.3137 0.4156 0.5518
C7 C 0.42687(10) 0.4086(3) 0.36664(11)
H7 H 0.4725 0.3908 0.3553
C8 C 0.34039(11) 0.5662(3) 0.21096(10)
C9 C 0.35646(12) 0.6250(3) 0.14355(11)
H8 H 0.4054 0.5916 0.1398
H9 H 0.3543 0.7495 0.1424
C10 C 0.30695(11) 0.5566(3) 0.08151(10)
H10 H 0.2592 0.6047 0.0801
H11 H 0.3035 0.4327 0.0850
C11 C 0.33528(11) 0.6036(3) 0.01601(11)
H12 H 0.3419 0.7271 0.0151
H13 H 0.3821 0.5505 0.0173
C12 C 0.28771(11) 0.5505(3) -0.04960(11)
H14 H 0.3129 0.5673 -0.0890
H15 H 0.2766 0.4292 -0.0470
N3 N 0.10866(9) 0.6178(2) 0.44456(8)
N4 N 0.09911(9) 0.6400(2) 0.51202(8)
H16 H 0.0585 0.6713 0.5230
O4 O 0.18578(7) 0.53957(19) 0.34141(7)
O5 O 0.21284(7) 0.56664(19) 0.54079(7)
O6 O 0.25584(8) 0.2706(2) 0.78828(9)
H17 H 0.2875 0.3352 0.7787
C13 C 0.12309(10) 0.5555(2) 0.29981(10)
C14 C 0.06167(10) 0.6091(3) 0.32441(10)
C15 C -0.00132(11) 0.6284(3) 0.27724(11)
H18 H -0.0426 0.6656 0.2935
C16 C -0.00485(11) 0.5953(3) 0.20873(11)
H19 H -0.0476 0.6117 0.1778
C17 C 0.05532(11) 0.5372(3) 0.18517(11)
H20 H 0.0532 0.5110 0.1380
C18 C 0.11826(11) 0.5173(3) 0.23013(10)
H21 H 0.1588 0.4770 0.2133
C19 C 0.05677(10) 0.6395(3) 0.39551(10)
H22 H 0.0131 0.6774 0.4065
C20 C 0.15599(11) 0.6103(3) 0.55908(10)
C21 C 0.15049(11) 0.6328(3) 0.63303(10)
H23 H 0.1001 0.6434 0.6377
H24 H 0.1746 0.7386 0.6499
C22 C 0.18308(12) 0.4866(3) 0.67736(10)
H25 H 0.2315 0.4656 0.6682
H26 H 0.1548 0.3835 0.6651
C23 C 0.18579(11) 0.5246(3) 0.75358(10)
H27 H 0.2254 0.6029 0.7689
H28 H 0.1415 0.5817 0.7600
C24 C 0.19521(11) 0.3681(3) 0.79787(10)
H29 H 0.2000 0.4015 0.8467
H30 H 0.1525 0.2971 0.7870
Cu1C Cu 0.279476(12) 0.00712(3) 0.822396(12)
Cu2C Cu 0.204872(12) 0.94390(3) -0.059462(12)
O3C O 0.22312(8) 0.8543(2) 0.43948(8)
H2C H 0.1906 0.9121 0.4515
O6C O 0.25584(8) 0.2294(2) 0.28828(9)
H17C H 0.2875 0.1648 0.2787
Cl1 Cl 0.41970(3) -0.02700(7) 0.28405(3)
O7 O 0.46384(12) 0.0597(3) 0.33780(12)
O8 O 0.37471(11) 0.0911(3) 0.24307(11)
O9 O 0.46273(10) -0.1145(3) 0.24259(11)
O10 O 0.37739(11) -0.1462(3) 0.31313(11)
Cl2 Cl 0.09433(3) 0.17910(6) 0.48647(3)
O11 O 0.08993(12) 0.0015(2) 0.47479(14)
O12 O 0.09878(10) 0.2178(3) 0.55737(9)
O13 O 0.03175(8) 0.2590(2) 0.44941(9)
O14 O 0.15514(9) 0.2422(2) 0.46092(9)
loop_
_geom_bond_atom_site_label_1
_geom_bond_atom_site_label_2
_geom_bond_site_symmetry_1
_geom_bond_site_symmetry_2
Cu1 N1 1_555 1_555
Cu2 O1 1_555 1_555
N1 N2 1_555 1_555
N2 H1 1_555 1_555
O1 Cu1 1_555 1_555
O2 Cu1 1_555 1_555
O3 H2 1_555 1_555
C1 O1 1_555 1_555
C2 C1 1_555 1_555
C3 C2 1_555 1_555
H3 C3 1_555 1_555
C4 C3 1_555 1_555
H4 C4 1_555 1_555
C5 C4 1_555 1_555
H5 C5 1_555 1_555
C6 C1 1_555 1_555
H6 C6 1_555 1_555
C7 N1 1_555 1_555
H7 C7 1_555 1_555
C8 N2 1_555 1_555
C9 C8 1_555 1_555
H8 C9 1_555 1_555
H9 C9 1_555 1_555
C10 C9 1_555 1_555
H10 C10 1_555 1_555
H11 C10 1_555 1_555
C11 C10 1_555 1_555
H12 C11 1_555 1_555
H13 C11 1_555 1_555
C12 O3 1_555 1_555
H14 C12 1_555 1_555
H15 C12 1_555 1_555
N3 Cu2 1_555 1_555
N4 N3 1_555 1_555
H16 N4 1_555 1_555
O4 Cu1 1_555 1_555
O5 Cu2 1_555 1_555
O6 H17 1_555 1_555
C13 O4 1_555 1_555
C14 C13 1_555 1_555
C15 C14 1_555 1_555
H18 C15 1_555 1_555
C16 C15 1_555 1_555
H19 C16 1_555 1_555
C17 C16 1_555 1_555
H20 C17 1_555 1_555
C18 C13 1_555 1_555
H21 C18 1_555 1_555
C19 N3 1_555 1_555
H22 C19 1_555 1_555
C20 N4 1_555 1_555
C21 C20 1_555 1_555
H23 C21 1_555 1_555
H24 C21 1_555 1_555
C22 C21 1_555 1_555
H25 C22 1_555 1_555
H26 C22 1_555 1_555
C23 C22 1_555 1_555
H27 C23 1_555 1_555
H28 C23 1_555 1_555
C24 O6 1_555 1_555
H29 C24 1_555 1_555
H30 C24 1_555 1_555
Cl1 O7 1_555 1_555
O8 Cl1 1_555 1_555
O9 Cl1 1_555 1_555
O10 Cl1 1_555 1_555
Cl2 O11 1_555 1_555
O12 Cl2 1_555 1_555
O13 Cl2 1_555 1_555
O14 Cl2 1_555 1_555
Cu1C O6 1_555 1_555
Cu2C O3 1_555 1_555
O3C Cu2 1_555 1_555
H2C O3C 1_555 1_555
O6C Cu1 1_555 1_555
H17C O6C 1_555 1_555
Cu2 O4 1_555 1_555
O2 C8 1_555 1_555
C2 C7 1_555 1_555
C5 C6 1_555 1_555
C11 C12 1_555 1_555
O5 C20 1_555 1_555
C14 C19 1_555 1_555
C17 C18 1_555 1_555
C23 C24 1_555 1_555

#END
