
#######################################################################
#
#                 Cambridge Crystallographic Data Centre
#                                CCDC 
#
#######################################################################
#
# If this CIF has been generated from an entry in the Cambridge 
# Structural Database, then it will include bibliographic, chemical, 
# crystal, experimental, refinement or atomic coordinate data resulting 
# from the CCDC's data processing and validation procedures.
#
#######################################################################

data_JEYCUL
_symmetry_cell_setting           triclinic
_symmetry_space_group_name_H-M   'P -1'
_symmetry_Int_Tables_number      2
_space_group_name_Hall           '-P 1'
loop_
_symmetry_equiv_pos_site_id
_symmetry_equiv_pos_as_xyz
1 x,y,z
2 -x,-y,-z
_cell_length_a                   11.074(3)
_cell_length_b                   12.000(4)
_cell_length_c                   9.585(3)
_cell_angle_alpha                117.40(2)
_cell_angle_beta                 70.41(2)
_cell_angle_gamma                116.65(2)
_cell_volume                     997.283
loop_
_atom_site_label
_atom_site_type_symbol
_atom_site_fract_x
_atom_site_fract_y
_atom_site_fract_z
Co1 Co 0.4522(1) 0.0289(1) -0.3107(1)
S1 S 0.1260(1) 0.0911(1) 0.1440(1)
S2 S -0.0632(1) 0.0638(1) 0.2834(1)
O1 O 0.3480(3) 0.1014(3) -0.0804(3)
O2 O 0.4478(3) 0.2386(3) -0.2106(4)
O3 O -0.3147(3) 0.0283(3) 0.4543(4)
O4 O -0.3721(3) 0.1041(3) 0.7172(4)
C1 C 0.3632(3) 0.2040(4) -0.0958(4)
C2 C 0.2839(3) 0.2921(3) 0.0201(4)
C3 C 0.1750(3) 0.2522(3) 0.1352(4)
C4 C 0.1073(3) 0.3417(3) 0.2418(4)
C5 C 0.1432(4) 0.4642(4) 0.2319(5)
C6 C 0.2487(4) 0.5017(4) 0.1172(5)
C7 C 0.3178(4) 0.4154(4) 0.0123(4)
C8 C -0.2860(8) 0.0886(3) 0.5928(5)
C9 C -0.1377(3) 0.1438(3) 0.6133(4)
C10 C -0.0298(3) 0.1384(3) 0.4846(4)
C11 C 0.1037(3) 0.1910(3) 0.5153(4)
C12 C 0.1295(4) 0.2451(4) 0.6686(4)
C13 C 0.0235(4) 0.2511(4) 0.7954(4)
C14 C -0.1074(4) 0.2018(4) 0.7665(4)
N1 N 0.4115(3) -0.1610(3) -0.3059(4)
N2 N 0.2437(3) -0.3867(3) -0.3808(4)
N3 N 0.3520(4) -0.3002(3) -0.1540(4)
N4 N 0.4837(3) -0.3537(3) -0.4198(3)
C15 C 0.5217(4) -0.2197(4) -0.4113(5)
C16 C 0.3549(4) -0.4370(4) -0.4826(4)
C17 C 0.4616(4) -0.3525(4) -0.2597(5)
C18 C 0.2268(4) -0.3824(4) -0.2230(5)
C19 C 0.3924(5) -0.1639(4) -0.1439(5)
C20 C 0.2816(4) -0.2540(5) -0.3736(6)
H1 H 0.029(3) 0.317(3) 0.332(4)
H2 H 0.080(4) 0.531(4) 0.313(5)
H3 H 0.277(4) 0.592(4) 0.107(5)
H4 H 0.404(4) 0.440(4) -0.077(4)
H5 H 0.186(4) 0.198(4) 0.421(5)
H6 H 0.227(5) 0.279(4) 0.686(5)
H7 H 0.032(5) 0.292(5) 0.914(6)
H8 H -0.188(5) 0.209(4) 0.859(5)
H9 H 0.598(4) -0.158(4) -0.346(4)
H10 H 0.543(5) -0.205(4) -0.520(6)
H11 H 0.376(6) -0.427(5) -0.585(6)
H12 H 0.320(5) -0.540(5) -0.472(6)
H13 H 0.433(5) -0.458(4) -0.271(5)
H14 H 0.557(4) -0.291(4) -0.209(5)
H15 H 0.198(4) -0.478(4) -0.221(5)
H16 H 0.146(5) -0.345(4) -0.148(5)
H17 H 0.315(5) -0.126(4) -0.082(5)
H18 H 0.474(6) -0.103(5) -0.086(6)
H19 H 0.302(6) -0.257(6) -0.498(7)
H20 H 0.230(5) -0.194(5) -0.298(6)
O3A O 0.3147(3) -0.0283(3) -0.4543(4)
O4_2 O 0.6279(3) 0.1041(3) -0.2828(4)
Co1A Co -0.4522(1) -0.0289(1) 0.3107(1)
Co1_2 Co -0.5478(1) 0.0289(1) 0.6893(1)
loop_
_geom_bond_atom_site_label_1
_geom_bond_atom_site_label_2
_geom_bond_site_symmetry_1
_geom_bond_site_symmetry_2
Co1 O1 1_555 1_555
S1 S2 1_555 1_555
S2 C10 1_555 1_555
O1 C1 1_555 1_555
O2 Co1 1_555 1_555
O3 C8 1_555 1_555
O4 C8 1_555 1_555
C1 O2 1_555 1_555
C2 C1 1_555 1_555
C3 S1 1_555 1_555
C4 C3 1_555 1_555
C5 C4 1_555 1_555
C6 C5 1_555 1_555
C7 C2 1_555 1_555
C8 C9 1_555 1_555
C9 C10 1_555 1_555
C10 C11 1_555 1_555
C11 C12 1_555 1_555
C12 C13 1_555 1_555
C13 C14 1_555 1_555
C14 C9 1_555 1_555
N1 Co1 1_555 1_555
N2 C16 1_555 1_555
N3 C17 1_555 1_555
N4 C15 1_555 1_555
C15 N1 1_555 1_555
C16 N4 1_555 1_555
C17 N4 1_555 1_555
C18 N2 1_555 1_555
C19 N1 1_555 1_555
C20 N1 1_555 1_555
H1 C4 1_555 1_555
H2 C5 1_555 1_555
H3 C6 1_555 1_555
H4 C7 1_555 1_555
H5 C11 1_555 1_555
H6 C12 1_555 1_555
H7 C13 1_555 1_555
H8 C14 1_555 1_555
H9 C15 1_555 1_555
H10 C15 1_555 1_555
H11 C16 1_555 1_555
H12 C16 1_555 1_555
H13 C17 1_555 1_555
H14 C17 1_555 1_555
H15 C18 1_555 1_555
H16 C18 1_555 1_555
H17 C19 1_555 1_555
H18 C19 1_555 1_555
H19 C20 1_555 1_555
H20 C20 1_555 1_555
O3A Co1 1_555 1_555
O4_2 Co1 1_555 1_555
Co1A O3 1_555 1_555
Co1_2 O4 1_555 1_555
C2 C3 1_555 1_555
C6 C7 1_555 1_555
N2 C20 1_555 1_555
N3 C18 1_555 1_555
N3 C19 1_555 1_555

#END
