
#######################################################################
#
#                 Cambridge Crystallographic Data Centre
#                                CCDC 
#
#######################################################################
#
# If this CIF has been generated from an entry in the Cambridge 
# Structural Database, then it will include bibliographic, chemical, 
# crystal, experimental, refinement or atomic coordinate data resulting 
# from the CCDC's data processing and validation procedures.
#
#######################################################################

data_JEYCIZ
_symmetry_cell_setting           monoclinic
_symmetry_space_group_name_H-M   'C 2/m'
_symmetry_Int_Tables_number      12
_space_group_name_Hall           '-C 2y'
loop_
_symmetry_equiv_pos_site_id
_symmetry_equiv_pos_as_xyz
1 x,y,z
2 1/2+x,1/2+y,z
3 -x,y,-z
4 1/2-x,1/2+y,-z
5 -x,-y,-z
6 1/2-x,1/2-y,-z
7 x,-y,z
8 1/2+x,1/2-y,z
_cell_length_a                   7.604(2)
_cell_length_b                   17.408(3)
_cell_length_c                   5.296(2)
_cell_angle_alpha                90
_cell_angle_beta                 95.81(2)
_cell_angle_gamma                90
_cell_volume                     697.433
loop_
_atom_site_label
_atom_site_type_symbol
_atom_site_fract_x
_atom_site_fract_y
_atom_site_fract_z
U1 U 0.000 0.0000 0.0000
O1 O 0.227(2) 0.0000 0.096(3)
O2 O -0.041(1) 0.0920(5) 0.295(2)
C1 C 0.000 0.1275(8) 0.5000
C2 C 0.000 0.2127(8) 0.5000
C3 C 0.078(2) 0.2512(7) 0.710(3)
C4 C 0.079(2) 0.3300(8) 0.705(4)
C5 C 0.000 0.3700(9) 0.5000
H1 H 0.12(3) 0.23(1) 0.86(4)
H2 H 0.08(3) 0.35(1) 0.80(5)
H3 H 0.000 0.42(2) 0.5000
O1B O -0.227(2) 0.0000 -0.096(3)
O2D O 0.041(1) -0.0920(5) -0.295(2)
O2B O 0.041(1) 0.0920(5) -0.295(2)
O2F O -0.041(1) -0.0920(5) 0.295(2)
O2B_2 O 0.041(1) 0.0920(5) 0.705(2)
C3B C -0.078(2) 0.2512(7) 0.290(3)
C4B C -0.079(2) 0.3300(8) 0.295(4)
C1D C 0.000 -0.1275(8) 0.5000
H1B H -0.12(3) 0.23(1) 0.14(4)
H2B H -0.08(3) 0.35(1) 0.20(5)
U1_2 U 0.000 0.0000 1.0000
O2D_2 O 0.041(1) -0.0920(5) 0.705(2)
C2D C 0.000 -0.2127(8) 0.5000
C3D C -0.078(2) -0.2512(7) 0.290(3)
C3F C 0.078(2) -0.2512(7) 0.710(3)
C4D C -0.079(2) -0.3300(8) 0.295(4)
H1D H -0.12(3) -0.23(1) 0.14(4)
C4F C 0.079(2) -0.3300(8) 0.705(4)
H1F H 0.12(3) -0.23(1) 0.86(4)
C5D C 0.000 -0.3700(9) 0.5000
H2D H -0.08(3) -0.35(1) 0.20(5)
H2F H 0.08(3) -0.35(1) 0.80(5)
H3D H 0.000 -0.42(2) 0.5000
loop_
_geom_bond_atom_site_label_1
_geom_bond_atom_site_label_2
_geom_bond_site_symmetry_1
_geom_bond_site_symmetry_2
U1 O1 1_555 1_555
O2 U1 1_555 1_555
C1 O2 1_555 1_555
C2 C1 1_555 1_555
C3 C2 1_555 1_555
C4 C3 1_555 1_555
C5 C4 1_555 1_555
H1 C3 1_555 1_555
H2 C4 1_555 1_555
H3 C5 1_555 1_555
O1B U1 1_555 1_555
O2D U1 1_555 1_555
O2B U1 1_555 1_555
O2F U1 1_555 1_555
O2B_2 C1 1_555 1_555
C3B C2 1_555 1_555
C4B C5 1_555 1_555
C1D O2F 1_555 1_555
H1B C3B 1_555 1_555
H2B C4B 1_555 1_555
U1_2 O2B_2 1_555 1_555
O2D_2 C1D 1_555 1_555
C2D C1D 1_555 1_555
C3D C2D 1_555 1_555
C3F C2D 1_555 1_555
C4D C3D 1_555 1_555
H1D C3D 1_555 1_555
C4F C3F 1_555 1_555
H1F C3F 1_555 1_555
C5D C4D 1_555 1_555
H2D C4D 1_555 1_555
H2F C4F 1_555 1_555
H3D C5D 1_555 1_555
C3B C4B 1_555 1_555
U1_2 O2D_2 1_555 1_555
C4F C5D 1_555 1_555

#END
