
#######################################################################
#
#                 Cambridge Crystallographic Data Centre
#                                CCDC 
#
#######################################################################
#
# If this CIF has been generated from an entry in the Cambridge 
# Structural Database, then it will include bibliographic, chemical, 
# crystal, experimental, refinement or atomic coordinate data resulting 
# from the CCDC's data processing and validation procedures.
#
#######################################################################

data_JEYCIA
_symmetry_cell_setting           monoclinic
_symmetry_space_group_name_H-M   'P 21/m'
_symmetry_Int_Tables_number      11
_space_group_name_Hall           '-P 2yb'
loop_
_symmetry_equiv_pos_site_id
_symmetry_equiv_pos_as_xyz
1 x,y,z
2 -x,1/2+y,-z
3 -x,-y,-z
4 x,1/2-y,z
_cell_length_a                   7.8515(3)
_cell_length_b                   12.7705(5)
_cell_length_c                   10.6010(4)
_cell_angle_alpha                90
_cell_angle_beta                 93.228(2)
_cell_angle_gamma                90
_cell_volume                     1061.25
loop_
_atom_site_label
_atom_site_type_symbol
_atom_site_fract_x
_atom_site_fract_y
_atom_site_fract_z
Ca1 Ca 0.62956(16) 0.2500 0.81838(13)
Ca2 Ca 1.11997(17) 0.2500 0.68242(13)
S1 S 0.6491(2) 0.10477(16) 1.05780(16)
S2 S 0.6021(2) 0.09985(15) 1.41440(17)
S3 S 1.1446(2) 0.09968(16) 0.08674(17)
S4 S 1.1105(2) 0.10473(15) 0.44381(16)
O1 O 0.9393(7) 0.2500 0.8800(5)
O2 O 0.3309(7) 0.2500 0.8819(5)
O3 O 0.8169(8) 0.2500 0.6220(6)
O4 O 0.4193(7) 0.2500 0.6202(5)
O5 O 1.1273(9) 0.0732(3) 0.7474(6)
O6 O 0.6291(10) 0.0747(3) 0.7528(7)
C1 C 0.6343(7) 0.1940(5) 1.1692(6)
C2 C 0.6168(6) 0.1926(5) 1.3051(6)
C3 C 1.1231(7) 0.1924(5) 0.3316(6)
C4 C 1.1358(7) 0.1944(5) 0.1949(6)
H1 H 0.923(10) 0.1980(15) 0.925(4)
H2 H 0.329(8) 0.1973(15) 0.929(3)
H3 H 0.766(8) 0.1982(15) 0.584(6)
H4 H 0.452(10) 0.1980(15) 0.580(5)
Ca2_2 Ca 0.11997(17) 0.2500 0.68242(13)
S1C S 0.6491(2) 0.39523(16) 1.05780(16)
S2C S 0.6021(2) 0.40015(15) 1.41440(17)
S3C S 1.1446(2) 0.40032(16) 0.08674(17)
S4C S 1.1105(2) 0.39527(15) 0.44381(16)
O2_2 O 1.3309(7) 0.2500 0.8819(5)
O4_2 O 1.4193(7) 0.2500 0.6202(5)
O5C O 1.1273(9) 0.4268(3) 0.7474(6)
O6C O 0.6291(10) 0.4253(3) 0.7528(7)
C1C C 0.6343(7) 0.3060(5) 1.1692(6)
C2C C 0.6168(6) 0.3074(5) 1.3051(6)
C3C C 1.1231(7) 0.3076(5) 0.3316(6)
C4C C 1.1358(7) 0.3056(5) 0.1949(6)
H1C H 0.923(10) 0.3020(15) 0.925(4)
H2C H 0.329(8) 0.3027(15) 0.929(3)
H2_2 H 1.329(8) 0.1973(15) 0.929(3)
H2C_2 H 1.329(8) 0.3027(15) 0.929(3)
H3C H 0.766(8) 0.3018(15) 0.584(6)
H4C H 0.452(10) 0.3020(15) 0.580(5)
H4_2 H 1.452(10) 0.1980(15) 0.580(5)
H4C_2 H 1.452(10) 0.3020(15) 0.580(5)
loop_
_geom_bond_atom_site_label_1
_geom_bond_atom_site_label_2
_geom_bond_site_symmetry_1
_geom_bond_site_symmetry_2
Ca1 S1 1_555 1_555
Ca2 S4 1_555 1_555
S1 C1 1_555 1_555
S2 C2 1_555 1_555
S3 C4 1_555 1_555
S4 C3 1_555 1_555
O1 Ca1 1_555 1_555
O2 Ca1 1_555 1_555
O3 Ca1 1_555 1_555
O4 Ca1 1_555 1_555
O5 Ca2 1_555 1_555
O6 Ca1 1_555 1_555
C1 C2 1_555 1_555
C2 C2C 1_555 1_555
C3 C4 1_555 1_555
C4 C4C 1_555 1_555
H1 O1 1_555 1_555
H2 O2 1_555 1_555
H3 O3 1_555 1_555
H4 O4 1_555 1_555
Ca2_2 O2 1_555 1_555
S1C Ca1 1_555 1_555
S2C C2C 1_555 1_555
S3C C4C 1_555 1_555
S4C Ca2 1_555 1_555
O2_2 Ca2 1_555 1_555
O4_2 Ca2 1_555 1_555
O5C Ca2 1_555 1_555
O6C Ca1 1_555 1_555
C1C C1 1_555 1_555
C2C C1C 1_555 1_555
C3C C3 1_555 1_555
C4C C3C 1_555 1_555
H1C O1 1_555 1_555
H2C O2 1_555 1_555
H2_2 O2_2 1_555 1_555
H2C_2 O2_2 1_555 1_555
H3C O3 1_555 1_555
H4C O4 1_555 1_555
H4_2 O4_2 1_555 1_555
H4C_2 O4_2 1_555 1_555
Ca2 O1 1_555 1_555
Ca2 O3 1_555 1_555
O4 Ca2_2 1_555 1_555
S1C C1C 1_555 1_555
S4C C3C 1_555 1_555

#END
