
#######################################################################
#
#                 Cambridge Crystallographic Data Centre
#                                CCDC 
#
#######################################################################
#
# If this CIF has been generated from an entry in the Cambridge 
# Structural Database, then it will include bibliographic, chemical, 
# crystal, experimental, refinement or atomic coordinate data resulting 
# from the CCDC's data processing and validation procedures.
#
#######################################################################

data_JEYDAT
_symmetry_cell_setting           triclinic
_symmetry_space_group_name_H-M   'P -1'
_symmetry_Int_Tables_number      2
_space_group_name_Hall           '-P 1'
loop_
_symmetry_equiv_pos_site_id
_symmetry_equiv_pos_as_xyz
1 x,y,z
2 -x,-y,-z
_cell_length_a                   7.91190(10)
_cell_length_b                   18.3266(4)
_cell_length_c                   19.9667(5)
_cell_angle_alpha                69.2350(10)
_cell_angle_beta                 86.8140(10)
_cell_angle_gamma                88.5840(10)
_cell_volume                     2702.85
loop_
_atom_site_label
_atom_site_type_symbol
_atom_site_fract_x
_atom_site_fract_y
_atom_site_fract_z
Cu1 Cu -0.43339(5) -0.41843(2) 0.47244(2)
O1 O -0.4450(3) -0.50905(13) 0.44369(12)
O2 O -0.4428(3) -0.31648(13) 0.48499(12)
O3 O -0.6809(3) -0.04201(17) 0.46163(17)
H1 H -0.688(5) -0.003(3) 0.442(2)
N1 N -0.3244(3) -0.35764(16) 0.38235(15)
N2 N -0.3015(3) -0.28145(17) 0.37838(17)
H2 H -0.264(5) -0.250(3) 0.343(2)
C1 C -0.4113(4) -0.5119(2) 0.37743(18)
C2 C -0.4647(4) -0.5756(2) 0.36140(18)
H3 H -0.5327 -0.6146 0.3958
C3 C -0.4198(4) -0.5827(2) 0.29582(19)
H4 H -0.4549 -0.6271 0.2863
C4 C -0.3238(4) -0.5254(2) 0.2439(2)
H5 H -0.2904 -0.5311 0.1996
C5 C -0.2779(4) -0.4603(2) 0.25758(19)
H6 H -0.2150 -0.4205 0.2216
C6 C -0.3218(4) -0.4511(2) 0.32357(18)
C7 C -0.2826(4) -0.3768(2) 0.32766(18)
H7 H -0.2227 -0.3400 0.2880
C8 C -0.3718(4) -0.2639(2) 0.43308(19)
C9 C -0.3609(4) -0.1818(2) 0.4307(2)
H8 H -0.3331 -0.1470 0.3808
H9 H -0.2684 -0.1780 0.4607
C10 C -0.5264(4) -0.1544(2) 0.4576(2)
H10 H -0.6217 -0.1640 0.4317
H11 H -0.5472 -0.1844 0.5093
C11 C -0.5172(4) -0.0687(2) 0.4456(2)
H12 H -0.4334 -0.0599 0.4769
H13 H -0.4807 -0.0393 0.3951
Cu2 Cu -0.93818(5) -0.08292(2) 0.52822(2)
O4 O 0.0418(3) 0.00912(13) 0.55596(12)
O5 O 0.0544(3) -0.18632(14) 0.51721(13)
O6 O -0.1835(3) -0.45817(17) 0.53811(17)
H14 H -0.194(5) -0.502(3) 0.562(3)
N3 N 0.1450(3) -0.14550(16) 0.61966(15)
N4 N 0.1635(3) -0.22307(18) 0.62545(17)
H15 H 0.194(6) -0.254(3) 0.659(3)
C12 C 0.0581(4) 0.01205(19) 0.62171(17)
C13 C 0.0036(4) 0.0777(2) 0.63661(18)
H16 H -0.0515 0.1188 0.6010
C14 C 0.0280(4) 0.0843(2) 0.7023(2)
H17 H -0.0103 0.1297 0.7112
C15 C 0.1087(4) 0.0245(2) 0.7558(2)
H18 H 0.1299 0.0299 0.8002
C16 C 0.1564(4) -0.0414(2) 0.74317(19)
H19 H 0.2084 -0.0825 0.7800
C17 C 0.1313(4) -0.0508(2) 0.67739(18)
C18 C 0.1692(4) -0.1263(2) 0.67413(18)
H20 H 0.2151 -0.1646 0.7149
C19 C 0.1077(4) -0.2407(2) 0.57068(19)
C20 C 0.1148(4) -0.3229(2) 0.5749(2)
H21 H 0.1237 -0.3570 0.6257
H22 H 0.2181 -0.3308 0.5480
C21 C -0.0392(4) -0.3475(2) 0.5451(2)
H23 H -0.1444 -0.3332 0.5670
H24 H -0.0391 -0.3198 0.4926
C22 C -0.0340(4) -0.4346(2) 0.5617(2)
H25 H 0.0671 -0.4484 0.5371
H26 H -0.0261 -0.4622 0.6139
Cu1A Cu -0.56661(5) -0.58157(2) 0.52756(2)
O1A O -0.5550(3) -0.49095(13) 0.55631(12)
Cu2_2 Cu 0.06182(5) -0.08292(2) 0.52822(2)
Cu2A Cu -0.06182(5) 0.08292(2) 0.47178(2)
O4_2 O -0.9582(3) 0.00912(13) 0.55596(12)
O4A O -1.0418(3) -0.00912(13) 0.44404(12)
O5_2 O -0.9456(3) -0.18632(14) 0.51721(13)
N3_2 N -0.8550(3) -0.14550(16) 0.61966(15)
Cu3 Cu -0.52562(5) -0.08505(2) 0.03669(2)
O7 O -0.5229(3) 0.01004(13) 0.05858(12)
O8 O -0.4760(3) -0.18817(14) 0.02872(13)
O9 O -0.3033(3) -0.44695(17) 0.04726(15)
H27 H -0.297(4) -0.487(2) 0.062(2)
N5 N -0.5687(3) -0.14809(16) 0.13581(15)
N6 N -0.5604(3) -0.22705(17) 0.14507(17)
H28 H -0.586(5) -0.258(3) 0.185(2)
C23 C -0.5471(4) 0.0168(2) 0.12365(18)
C24 C -0.5271(4) 0.0893(2) 0.13104(19)
H29 H -0.4881 0.1324 0.0906
C25 C -0.5626(4) 0.0995(2) 0.19542(19)
H30 H -0.5495 0.1496 0.1985
C26 C -0.6176(4) 0.0374(2) 0.2563(2)
H31 H -0.6478 0.0451 0.3000
C27 C -0.6267(4) -0.0350(2) 0.25104(19)
H32 H -0.6578 -0.0782 0.2928
C28 C -0.5917(4) -0.0479(2) 0.18622(18)
C29 C -0.5967(4) -0.1273(2) 0.18999(18)
H33 H -0.6224 -0.1666 0.2353
C30 C -0.5032(4) -0.2434(2) 0.08780(19)
C31 C -0.4678(4) -0.3258(2) 0.09506(19)
H34 H -0.5365 -0.3607 0.1365
H35 H -0.3470 -0.3376 0.1050
C32 C -0.5072(4) -0.3426(2) 0.0276(2)
H36 H -0.6267 -0.3286 0.0164
H37 H -0.4347 -0.3095 -0.0134
C33 C -0.4783(4) -0.4268(2) 0.0365(2)
H38 H -0.5483 -0.4604 0.0781
H39 H -0.5128 -0.4359 -0.0068
Cu4 Cu -0.05938(5) -0.41654(2) -0.02888(2)
O10 O -1.0553(3) -0.51022(13) -0.05384(12)
O11 O -1.0464(3) -0.31350(14) -0.01901(13)
O12 O -0.8146(3) -0.08039(16) 0.02318(15)
H40 H -0.855(5) -0.102(2) 0.057(2)
N7 N -1.1374(3) -0.35237(16) -0.12115(15)
N8 N -1.1395(3) -0.27395(18) -0.12966(17)
H41 H -1.163(4) -0.244(2) -0.167(2)
C34 C -1.0965(4) -0.5163(2) -0.11638(17)
C35 C -1.0872(4) -0.5883(2) -0.12541(19)
H42 H -1.0475 -0.6325 -0.0877
C36 C -1.1342(4) -0.5972(2) -0.18786(19)
H43 H -1.1275 -0.6472 -0.1922
C37 C -1.1914(4) -0.5334(2) -0.2443(2)
H44 H -1.2275 -0.5396 -0.2866
C38 C -1.1943(4) -0.4617(2) -0.23754(19)
H45 H -1.2265 -0.4175 -0.2771
C39 C -1.1518(4) -0.4508(2) -0.17461(18)
C40 C -1.1625(4) -0.3719(2) -0.17563(18)
H46 H -1.1897 -0.3319 -0.2192
C41 C -1.0841(4) -0.2582(2) -0.07443(18)
C42 C -1.0699(4) -0.1747(2) -0.0788(2)
H47 H -1.1808 -0.1566 -0.0650
H48 H -1.0387 -0.1412 -0.1288
C43 C -0.9362(4) -0.1672(2) -0.0292(2)
H49 H -0.9681 -0.2008 0.0207
H50 H -0.8260 -0.1861 -0.0428
C44 C -0.9174(4) -0.0839(2) -0.03258(19)
H51 H -0.8651 -0.0521 -0.0798
H52 H -1.0307 -0.0617 -0.0276
Cu3A Cu -0.47438(5) 0.08505(2) -0.03669(2)
O7A O -0.4771(3) -0.01004(13) -0.05858(12)
Cu4_2 Cu -1.05938(5) -0.41654(2) -0.02888(2)
Cu4A Cu -0.94062(5) -0.58346(2) 0.02888(2)
O10_2 O -0.0553(3) -0.51022(13) -0.05384(12)
O10A O 0.0553(3) -0.48978(13) 0.05384(12)
O11_2 O -0.0464(3) -0.31350(14) -0.01901(13)
N7_2 N -0.1374(3) -0.35237(16) -0.12115(15)
Cl1 Cl -1.13176(10) -0.18537(5) 0.16332(5)
O13 O -1.1489(3) -0.25789(16) 0.15244(16)
O14 O -1.2297(3) -0.18868(15) 0.22778(13)
O15 O -0.9569(3) -0.17148(18) 0.17045(16)
O16 O -1.1926(3) -0.12225(17) 0.10303(15)
Cl2 Cl -0.76989(10) -0.31498(5) 0.35006(5)
O17 O -0.7370(4) -0.24296(17) 0.35929(17)
O18 O -0.7325(3) -0.37899(14) 0.41515(14)
O19 O -0.6590(3) -0.32111(17) 0.29223(14)
O20 O -0.9407(3) -0.3191(2) 0.33415(18)
Cl3 Cl -0.30315(9) -0.18866(5) 0.65465(5)
O21 O -0.2734(4) -0.25959(17) 0.64132(17)
O22 O -0.4780(3) -0.17912(19) 0.67079(16)
O23 O -0.2056(3) -0.19012(16) 0.71395(14)
O24 O -0.2470(3) -0.12317(15) 0.59174(14)
Cl4 Cl -0.69567(9) -0.31700(5) -0.15801(4)
O25 O -0.7259(3) -0.24857(16) -0.14019(15)
O26 O -0.5192(3) -0.32650(18) -0.17198(16)
O27 O -0.7881(3) -0.31058(16) -0.22014(13)
O28 O -0.7571(3) -0.38486(14) -0.09852(13)
loop_
_geom_bond_atom_site_label_1
_geom_bond_atom_site_label_2
_geom_bond_site_symmetry_1
_geom_bond_site_symmetry_2
Cu1 O1 1_555 1_555
O1 C1 1_555 1_555
O2 Cu1 1_555 1_555
O3 H1 1_555 1_555
N1 Cu1 1_555 1_555
N2 N1 1_555 1_555
H2 N2 1_555 1_555
C1 C2 1_555 1_555
C2 H3 1_555 1_555
C3 C2 1_555 1_555
H4 C3 1_555 1_555
C4 C3 1_555 1_555
H5 C4 1_555 1_555
C5 C4 1_555 1_555
H6 C5 1_555 1_555
C6 C1 1_555 1_555
C7 N1 1_555 1_555
H7 C7 1_555 1_555
C8 O2 1_555 1_555
C9 C8 1_555 1_555
H8 C9 1_555 1_555
H9 C9 1_555 1_555
C10 C9 1_555 1_555
H10 C10 1_555 1_555
H11 C10 1_555 1_555
C11 O3 1_555 1_555
H12 C11 1_555 1_555
H13 C11 1_555 1_555
Cu2 O3 1_555 1_555
O4 C12 1_555 1_555
O5 C19 1_555 1_555
O6 Cu1 1_555 1_555
H14 O6 1_555 1_555
N3 N4 1_555 1_555
N4 H15 1_555 1_555
C12 C13 1_555 1_555
C13 H16 1_555 1_555
C14 C13 1_555 1_555
H17 C14 1_555 1_555
C15 C14 1_555 1_555
H18 C15 1_555 1_555
C16 C15 1_555 1_555
H19 C16 1_555 1_555
C17 C12 1_555 1_555
C18 N3 1_555 1_555
H20 C18 1_555 1_555
C19 N4 1_555 1_555
C20 C19 1_555 1_555
H21 C20 1_555 1_555
H22 C20 1_555 1_555
C21 C20 1_555 1_555
H23 C21 1_555 1_555
H24 C21 1_555 1_555
C22 O6 1_555 1_555
H25 C22 1_555 1_555
H26 C22 1_555 1_555
Cu3 O7 1_555 1_555
O7 C23 1_555 1_555
O8 Cu3 1_555 1_555
O9 H27 1_555 1_555
N5 Cu3 1_555 1_555
N6 N5 1_555 1_555
H28 N6 1_555 1_555
C23 C24 1_555 1_555
C24 H29 1_555 1_555
C25 C24 1_555 1_555
H30 C25 1_555 1_555
C26 C25 1_555 1_555
H31 C26 1_555 1_555
C27 C26 1_555 1_555
H32 C27 1_555 1_555
C28 C23 1_555 1_555
C29 N5 1_555 1_555
H33 C29 1_555 1_555
C30 O8 1_555 1_555
C31 C30 1_555 1_555
H34 C31 1_555 1_555
H35 C31 1_555 1_555
C32 C31 1_555 1_555
H36 C32 1_555 1_555
H37 C32 1_555 1_555
C33 O9 1_555 1_555
H38 C33 1_555 1_555
H39 C33 1_555 1_555
Cu4 O9 1_555 1_555
O10 C34 1_555 1_555
O11 C41 1_555 1_555
O12 Cu3 1_555 1_555
H40 O12 1_555 1_555
N7 N8 1_555 1_555
N8 H41 1_555 1_555
C34 C35 1_555 1_555
C35 H42 1_555 1_555
C36 C35 1_555 1_555
H43 C36 1_555 1_555
C37 C36 1_555 1_555
H44 C37 1_555 1_555
C38 C37 1_555 1_555
H45 C38 1_555 1_555
C39 C34 1_555 1_555
C40 N7 1_555 1_555
H46 C40 1_555 1_555
C41 N8 1_555 1_555
C42 C41 1_555 1_555
H47 C42 1_555 1_555
H48 C42 1_555 1_555
C43 C42 1_555 1_555
H49 C43 1_555 1_555
H50 C43 1_555 1_555
C44 O12 1_555 1_555
H51 C44 1_555 1_555
H52 C44 1_555 1_555
Cl1 O13 1_555 1_555
O14 Cl1 1_555 1_555
O15 Cl1 1_555 1_555
O16 Cl1 1_555 1_555
Cl2 O17 1_555 1_555
O18 Cl2 1_555 1_555
O19 Cl2 1_555 1_555
O20 Cl2 1_555 1_555
Cl3 O21 1_555 1_555
O22 Cl3 1_555 1_555
O23 Cl3 1_555 1_555
O24 Cl3 1_555 1_555
Cl4 O25 1_555 1_555
O26 Cl4 1_555 1_555
O27 Cl4 1_555 1_555
O28 Cl4 1_555 1_555
Cu1A O1 1_555 1_555
O1A Cu1 1_555 1_555
Cu2_2 O4 1_555 1_555
Cu2A O4 1_555 1_555
O4_2 Cu2 1_555 1_555
O4A Cu2 1_555 1_555
O5_2 Cu2 1_555 1_555
N3_2 Cu2 1_555 1_555
Cu3A O7 1_555 1_555
O7A Cu3 1_555 1_555
Cu4_2 O10 1_555 1_555
Cu4A O10 1_555 1_555
O10_2 Cu4 1_555 1_555
O10A Cu4 1_555 1_555
O11_2 Cu4 1_555 1_555
N7_2 Cu4 1_555 1_555
N2 C8 1_555 1_555
C5 C6 1_555 1_555
C6 C7 1_555 1_555
C10 C11 1_555 1_555
O5 Cu2_2 1_555 1_555
N3 Cu2_2 1_555 1_555
C16 C17 1_555 1_555
C17 C18 1_555 1_555
C21 C22 1_555 1_555
N6 C30 1_555 1_555
C27 C28 1_555 1_555
C28 C29 1_555 1_555
C32 C33 1_555 1_555
O11 Cu4_2 1_555 1_555
N7 Cu4_2 1_555 1_555
C38 C39 1_555 1_555
C39 C40 1_555 1_555
C43 C44 1_555 1_555
Cu1A O1A 1_555 1_555
Cu3A O7A 1_555 1_555

#END
