
#######################################################################
#
#                 Cambridge Crystallographic Data Centre
#                                CCDC 
#
#######################################################################
#
# If this CIF has been generated from an entry in the Cambridge 
# Structural Database, then it will include bibliographic, chemical, 
# crystal, experimental, refinement or atomic coordinate data resulting 
# from the CCDC's data processing and validation procedures.
#
#######################################################################

data_JEYDEX
_symmetry_cell_setting           orthorhombic
_symmetry_space_group_name_H-M   'P b c a'
_symmetry_Int_Tables_number      61
_space_group_name_Hall           '-P 2ac 2ab'
loop_
_symmetry_equiv_pos_site_id
_symmetry_equiv_pos_as_xyz
1 x,y,z
2 1/2-x,-y,1/2+z
3 -x,1/2+y,1/2-z
4 1/2+x,1/2-y,-z
5 -x,-y,-z
6 1/2+x,y,1/2-z
7 x,1/2-y,1/2+z
8 1/2-x,1/2+y,z
_cell_length_a                   14.942(3)
_cell_length_b                   9.1510(18)
_cell_length_c                   18.373(4)
_cell_angle_alpha                90
_cell_angle_beta                 90
_cell_angle_gamma                90
_cell_volume                     2512.22
loop_
_atom_site_label
_atom_site_type_symbol
_atom_site_fract_x
_atom_site_fract_y
_atom_site_fract_z
Cu1 Cu 0.787305(19) 0.19243(3) 0.542522(15)
O1 O 0.88259(12) 0.24388(18) 0.48020(10)
O2 O 0.69964(12) 0.12287(17) 0.61189(9)
N1 N 0.79710(13) -0.0138(2) 0.52289(11)
N2 N 0.73693(14) -0.0988(2) 0.56312(11)
C1 C 0.92961(17) 0.1539(3) 0.43873(14)
C2 C 0.99825(18) 0.2139(3) 0.39517(15)
H1 H 1.0105 0.3156 0.3982
C3 C 1.04799(19) 0.1286(3) 0.34839(16)
H2 H 1.0929 0.1724 0.3190
C4 C 1.03290(19) -0.0215(3) 0.34397(16)
H3 H 1.0665 -0.0797 0.3110
C5 C 0.96907(18) -0.0845(3) 0.38770(14)
H4 H 0.9604 -0.1873 0.3859
C6 C 0.91628(17) 0.0002(3) 0.43510(14)
C7 C 0.85172(16) -0.0772(2) 0.47897(13)
H5 H 0.8494 -0.1806 0.4752
C8 C 0.69023(16) -0.0161(2) 0.60817(13)
C9 C 0.62576(16) -0.0891(2) 0.65950(13)
H6 H 0.5931 -0.1671 0.6332
H7 H 0.5814 -0.0166 0.6767
C10 C 0.6745(2) -0.1560(3) 0.72564(15)
H8 H 0.6293 -0.1946 0.7601
H9 H 0.7114 -0.2394 0.7088
C11 C 0.73365(18) -0.0499(3) 0.76525(15)
H10 H 0.6967 0.0344 0.7807
H11 H 0.7791 -0.0127 0.7307
C12 C 0.7816(2) -0.1093(3) 0.83137(15)
H12 H 0.7367 -0.1411 0.8677
H13 H 0.8169 -0.1962 0.8169
C13 C 0.8426(2) 0.0002(4) 0.86565(17)
H14 H 0.8909 0.0252 0.8309
H15 H 0.8085 0.0905 0.8761
O3 O 0.88120(14) -0.0519(2) 0.93099(11)
H16 H 0.8911 0.0187 0.9591
Cu1G Cu 0.712695(19) -0.30757(3) 0.542522(15)
N2G N 0.76307(14) 0.4012(2) 0.56312(11)
loop_
_geom_bond_atom_site_label_1
_geom_bond_atom_site_label_2
_geom_bond_site_symmetry_1
_geom_bond_site_symmetry_2
Cu1 O1 1_555 1_555
O1 C1 1_555 1_555
O2 Cu1 1_555 1_555
N1 Cu1 1_555 1_555
N2 N1 1_555 1_555
C1 C2 1_555 1_555
C2 H1 1_555 1_555
C3 C2 1_555 1_555
H2 C3 1_555 1_555
C4 C3 1_555 1_555
H3 C4 1_555 1_555
C5 C4 1_555 1_555
H4 C5 1_555 1_555
C6 C1 1_555 1_555
C7 N1 1_555 1_555
H5 C7 1_555 1_555
C8 O2 1_555 1_555
C9 C8 1_555 1_555
H6 C9 1_555 1_555
H7 C9 1_555 1_555
C10 C9 1_555 1_555
H8 C10 1_555 1_555
H9 C10 1_555 1_555
C11 C10 1_555 1_555
H10 C11 1_555 1_555
H11 C11 1_555 1_555
C12 C11 1_555 1_555
H12 C12 1_555 1_555
H13 C12 1_555 1_555
C13 C12 1_555 1_555
H14 C13 1_555 1_555
H15 C13 1_555 1_555
O3 C13 1_555 1_555
H16 O3 1_555 1_555
Cu1G N2 1_555 1_555
N2G Cu1 1_555 1_555
N2 C8 1_555 1_555
C5 C6 1_555 1_555
C6 C7 1_555 1_555

#END
