
#######################################################################
#
#                 Cambridge Crystallographic Data Centre
#                                CCDC 
#
#######################################################################
#
# If this CIF has been generated from an entry in the Cambridge 
# Structural Database, then it will include bibliographic, chemical, 
# crystal, experimental, refinement or atomic coordinate data resulting 
# from the CCDC's data processing and validation procedures.
#
#######################################################################

data_JEYKAZ
_symmetry_cell_setting           monoclinic
_symmetry_space_group_name_H-M   'P 21/c'
_symmetry_Int_Tables_number      14
_space_group_name_Hall           '-P 2ybc'
loop_
_symmetry_equiv_pos_site_id
_symmetry_equiv_pos_as_xyz
1 x,y,z
2 -x,1/2+y,1/2-z
3 -x,-y,-z
4 x,1/2-y,1/2+z
_cell_length_a                   13.898(3)
_cell_length_b                   19.089(4)
_cell_length_c                   7.867(3)
_cell_angle_alpha                90
_cell_angle_beta                 94.90(2)
_cell_angle_gamma                90
_cell_volume                     2079.48
loop_
_atom_site_label
_atom_site_type_symbol
_atom_site_fract_x
_atom_site_fract_y
_atom_site_fract_z
Mn1 Mn 0.2236(1) 0.2471(1) 0.2545(1)
O1 O 0.2313(3) 0.1868(2) 0.5130(5)
O2 O 0.4332(7) -0.0043(5) 0.5003(16)
O3 O 0.1018(4) 0.2994(3) 0.3370(6)
O4 O 0.1178(4) 0.3181(3) 0.6175(6)
O5 O 0.3357(3) 0.1817(3) 0.1642(6)
O6 O 0.3299(3) 0.1833(3) -0.1232(5)
N1 N 0.2632(4) 0.1200(3) 0.5124(7)
N2 N 0.3595(4) 0.0310(3) 0.5043(8)
C1 C 0.3539(5) 0.1016(3) 0.5163(8)
C2 C 0.1975(5) 0.0572(4) 0.5266(10)
C3 C 0.2624(5) 0.0003(4) 0.4561(10)
C4 C 0.4363(5) 0.1491(1) 0.5304(9)
C5 C 0.1010(5) 0.0702(5) 0.4419(13)
C6 C 0.1885(7) 0.0445(5) 0.7196(11)
C7 C 0.2470(7) 0.0000(6) 0.2601(10)
C8 C 0.2522(7) -0.0728(4) 0.5226(14)
C9 C 0.0752(5) 0.3207(4) 0.4727(9)
C10 C -0.0227(6) 0.3596(4) 0.4619(11)
C11 C -0.1001(9) 0.3257(7) 0.5531(16)
C12 C 0.3612(5) 0.1651(3) 0.0226(9)
C13 C 0.4489(5) 0.1134(4) 0.0285(9)
C14 C 0.5465(6) 0.1490(4) 0.0382(12)
F1 F -0.0588(4) 0.3665(4) 0.2976(7)
F2 F -0.0098(5) 0.4255(3) 0.5208(9)
F3 F -0.0775(5) 0.3325(5) 0.7210(9)
F4 F -0.1842(4) 0.3578(5) 0.5217(11)
F5 F -0.1056(5) 0.2588(4) 0.5170(12)
F6 F 0.4501(3) 0.0716(2) 0.1666(5)
F7 F 0.4427(3) 0.0712(2) -0.1091(5)
F8 F 0.5607(4) 0.1882(3) 0.1763(7)
F9 F 0.5530(4) 0.1917(3) -0.0923(8)
F10 F 0.6165(3) 0.1027(3) 0.0388(9)
H1 H 0.4974(5) 0.1215(4) 0.5305(9)
H2 H 0.4365(5) 0.1763(4) 0.6391(9)
H3 H 0.4315(5) 0.1822(4) 0.4314(9)
H4 H 0.1061(5) 0.0784(5) 0.3174(13)
H5 H 0.0724(5) 0.1125(5) 0.4932(13)
H6 H 0.0587(5) 0.0287(5) 0.4571(13)
H7 H 0.2540(7) 0.0355(5) 0.7784(11)
H8 H 0.1461(7) 0.0031(5) 0.7344(11)
H9 H 0.1597(7) 0.0869(5) 0.7705(11)
H10 H 0.1822(7) -0.0204(6) 0.2238(10)
H11 H 0.2984(7) -0.0289(6) 0.2126(10)
H12 H 0.2504(7) 0.0491(6) 0.2165(10)
H13 H 0.2623(7) -0.0724(4) 0.6500(14)
H14 H 0.3015(7) -0.1038(4) 0.4756(14)
H15 H 0.1861(7) -0.0908(4) 0.4866(14)
O1C O 0.2313(3) 0.3132(2) 0.0130(5)
O4C O 0.1178(4) 0.1819(3) 0.1175(6)
O6C O 0.3299(3) 0.3167(3) 0.3768(5)
Mn1C Mn 0.2236(1) 0.2529(1) 0.7545(1)
Mn1C_2 Mn 0.2236(1) 0.2529(1) -0.2455(1)
loop_
_geom_bond_atom_site_label_1
_geom_bond_atom_site_label_2
_geom_bond_site_symmetry_1
_geom_bond_site_symmetry_2
Mn1 O1 1_555 1_555
O1 N1 1_555 1_555
O2 N2 1_555 1_555
O3 Mn1 1_555 1_555
O4 C9 1_555 1_555
O5 Mn1 1_555 1_555
O6 C12 1_555 1_555
N1 C1 1_555 1_555
N2 C1 1_555 1_555
C1 C4 1_555 1_555
C2 N1 1_555 1_555
C3 N2 1_555 1_555
C4 H1 1_555 1_555
C5 C2 1_555 1_555
C6 C2 1_555 1_555
C7 C3 1_555 1_555
C8 C3 1_555 1_555
C9 O3 1_555 1_555
C10 C9 1_555 1_555
C11 C10 1_555 1_555
C12 O5 1_555 1_555
C13 C12 1_555 1_555
C14 C13 1_555 1_555
F1 C10 1_555 1_555
F2 C10 1_555 1_555
F3 C11 1_555 1_555
F4 C11 1_555 1_555
F5 C11 1_555 1_555
F6 C13 1_555 1_555
F7 C13 1_555 1_555
F8 C14 1_555 1_555
F9 C14 1_555 1_555
F10 C14 1_555 1_555
H2 C4 1_555 1_555
H3 C4 1_555 1_555
H4 C5 1_555 1_555
H5 C5 1_555 1_555
H6 C5 1_555 1_555
H7 C6 1_555 1_555
H8 C6 1_555 1_555
H9 C6 1_555 1_555
H10 C7 1_555 1_555
H11 C7 1_555 1_555
H12 C7 1_555 1_555
H13 C8 1_555 1_555
H14 C8 1_555 1_555
H15 C8 1_555 1_555
O1C Mn1 1_555 1_555
O4C Mn1 1_555 1_555
O6C Mn1 1_555 1_555
Mn1C O1 1_555 1_555
Mn1C_2 O6 1_555 1_555
O4 Mn1C 1_555 1_555
C2 C3 1_555 1_555
O1C Mn1C_2 1_555 1_555

#END
