
#######################################################################
#
#                 Cambridge Crystallographic Data Centre
#                                CCDC 
#
#######################################################################
#
# If this CIF has been generated from an entry in the Cambridge 
# Structural Database, then it will include bibliographic, chemical, 
# crystal, experimental, refinement or atomic coordinate data resulting 
# from the CCDC's data processing and validation procedures.
#
#######################################################################

data_JEYNIL
_symmetry_cell_setting           tetragonal
_symmetry_space_group_name_H-M   'P 43 21 2'
_symmetry_Int_Tables_number      96
_space_group_name_Hall           'P 4nw 2abw'
loop_
_symmetry_equiv_pos_site_id
_symmetry_equiv_pos_as_xyz
1 x,y,z
2 -x,-y,1/2+z
3 1/2-y,1/2+x,3/4+z
4 1/2+y,1/2-x,1/4+z
5 1/2-x,1/2+y,3/4-z
6 1/2+x,1/2-y,1/4-z
7 y,x,-z
8 -y,-x,1/2-z
_cell_length_a                   18.308(3)
_cell_length_b                   18.308(3)
_cell_length_c                   15.887(3)
_cell_angle_alpha                90
_cell_angle_beta                 90
_cell_angle_gamma                90
_cell_volume                     5325.05
loop_
_atom_site_label
_atom_site_type_symbol
_atom_site_fract_x
_atom_site_fract_y
_atom_site_fract_z
Cu1 Cu 0.75371(4) 0.02976(6) 0.04280(5)
S1 S 0.75787(10) 0.22893(9) 0.03126(10)
O1 O 0.7367(3) 0.1536(3) 0.0401(3)
O2 O 0.7399(5) 0.2702(4) 0.1041(4)
O3 O 0.7104(3) 0.2605(4) -0.0393(3)
H1 H 0.7322 0.2571 -0.0843
O4 O 0.8337(3) 0.2348(4) 0.0055(4)
N1 N 0.7688(3) 0.0212(3) -0.0834(3)
N2 N 0.6476(3) 0.0053(3) 0.0212(4)
N3 N 0.2635(3) -0.0245(3) -0.3320(4)
N4 N 1.1388(3) -0.0280(3) -0.4301(4)
C1 C 0.7620(4) -0.0427(4) -0.1222(5)
H2 H 0.7531 -0.0838 -0.0894
C2 C 0.7672(4) -0.0519(4) -0.2078(5)
H3 H 0.7647 -0.0984 -0.2310
C3 C 0.7764(4) 0.0082(4) -0.2592(5)
C4 C 0.7817(4) 0.0742(4) -0.2192(5)
H4 H 0.7885 0.1164 -0.2509
C5 C 0.7770(4) 0.0795(4) -0.1338(5)
H5 H 0.7798 0.1255 -0.1093
C6 C 0.7837(4) 0.0012(7) -0.3527(5)
H6 H 0.7492 0.0339 -0.3797
H7 H 0.7714 -0.0483 -0.3693
C7 C 0.8627(6) 0.0196(8) -0.3840(7)
C8 C 0.9104(6) -0.0356(8) -0.3495(7)
H8 H 0.8923 -0.0832 -0.3661
H9 H 0.9082 -0.0329 -0.2885
C9 C 0.6008(4) 0.0568(4) -0.0020(6)
H10 H 0.6180 0.1046 -0.0040
C10 C 0.5301(4) 0.0453(4) -0.0229(6)
H11 H 0.5013 0.0846 -0.0393
C11 C 0.4997(4) -0.0246(4) -0.0202(5)
C12 C 0.5463(5) -0.0774(4) 0.0082(8)
H12 H 0.5290 -0.1248 0.0152
C13 C 0.6193(5) -0.0621(5) 0.0271(7)
H13 H 0.6495 -0.1001 0.0444
C14 C 0.2582(3) 0.0400(4) -0.2929(4)
H14 H 0.2481 0.0811 -0.3253
C15 C 0.2668(4) 0.0491(4) -0.2083(4)
H15 H 0.2638 0.0953 -0.1843
C16 C 0.2804(3) -0.0129(4) -0.1577(4)
C17 C 0.2849(4) -0.0794(4) -0.1975(5)
H16 H 0.2935 -0.1216 -0.1664
C18 C 0.2765(4) -0.0833(4) -0.2839(5)
H17 H 0.2800 -0.1288 -0.3098
C19 C 0.2913(4) -0.0037(4) -0.0641(4)
H18 H 0.2795 -0.0496 -0.0368
H19 H 0.2570 0.0326 -0.0440
C20 C 0.3683(4) 0.0191(4) -0.0370(5)
H20 H 0.3838 0.0607 -0.0703
H21 H 0.3672 0.0341 0.0216
C21 C 0.4224(4) -0.0420(4) -0.0475(6)
H22 H 0.4232 -0.0562 -0.1063
H23 H 0.4053 -0.0838 -0.0154
C22 C 1.1019(5) 0.0345(4) -0.4146(6)
H24 H 1.1253 0.0789 -0.4233
C23 C 1.0307(5) 0.0346(5) -0.3862(6)
H25 H 1.0087 0.0788 -0.3726
C24 C 0.9919(4) -0.0287(5) -0.3777(5)
C25 C 1.0292(4) -0.0899(5) -0.3924(8)
H26 H 1.0065 -0.1348 -0.3840
C26 C 1.1001(5) -0.0882(5) -0.4197(8)
H27 H 1.1227 -0.1325 -0.4318
Cu1A Cu 1.24629(4) -0.02976(6) 0.54280(5)
Cu1A_2 Cu 0.24629(4) -0.02976(6) -0.45720(5)
Cu1A_3 Cu 1.24629(4) -0.02976(6) -0.45720(5)
Cu1A_4 Cu 0.24629(4) -0.02976(6) 0.54280(5)
S1A S 1.24213(10) -0.22893(9) 0.53126(10)
O1A O 1.2633(3) -0.1536(3) 0.5401(3)
O2A O 1.2601(5) -0.2702(4) 0.6041(4)
O3A O 1.2896(3) -0.2605(4) 0.4607(3)
H1A H 1.2678 -0.2571 0.4157
O4A O 1.1663(3) -0.2348(4) 0.5055(4)
N1A N 1.2312(3) -0.0212(3) 0.4166(3)
N2A N 0.3524(3) -0.0053(3) 0.5212(4)
N2A_2 N 1.3524(3) -0.0053(3) 0.5212(4)
N3A N 0.7365(3) 0.0245(3) 0.1680(4)
N3_2 N 1.2635(3) -0.0245(3) 0.6680(4)
N4A N 0.8612(3) 0.0280(3) 0.0699(4)
N4_2 N 1.1388(3) -0.0280(3) 0.5699(4)
C1A C 1.2380(4) 0.0427(4) 0.3778(5)
H2A H 1.2469 0.0838 0.4106
C2A C 1.2328(4) 0.0519(4) 0.2922(5)
H3A H 1.2353 0.0984 0.2690
C3A C 1.2236(4) -0.0082(4) 0.2408(5)
C4A C 1.2183(4) -0.0742(4) 0.2808(5)
H4A H 1.2115 -0.1164 0.2491
C5A C 1.2230(4) -0.0795(4) 0.3662(5)
H5A H 1.2202 -0.1255 0.3907
C6A C 1.2163(4) -0.0012(7) 0.1473(5)
H6A H 1.2508 -0.0339 0.1203
H7A H 1.2286 0.0483 0.1307
C7A C 1.1373(6) -0.0196(8) 0.1160(7)
C8A C 1.0896(6) 0.0356(8) 0.1505(7)
H8A H 1.1077 0.0832 0.1339
H9A H 1.0918 0.0329 0.2115
C9A C 0.3992(4) -0.0568(4) 0.4980(6)
H10A H 0.3820 -0.1046 0.4960
C10A C 0.4699(4) -0.0453(4) 0.4771(6)
H11A H 0.4987 -0.0846 0.4607
C11A C 0.5003(4) 0.0246(4) 0.4798(5)
C12A C 0.4537(5) 0.0774(4) 0.5082(8)
H12A H 0.4710 0.1248 0.5152
C13A C 0.3807(5) 0.0621(5) 0.5271(7)
H13A H 0.3505 0.1001 0.5444
C14A C 0.7418(3) -0.0400(4) 0.2071(4)
H14A H 0.7519 -0.0811 0.1747
C15A C 0.7332(4) -0.0491(4) 0.2917(4)
H15A H 0.7362 -0.0953 0.3157
C16A C 0.7196(3) 0.0129(4) 0.3423(4)
C17A C 0.7151(4) 0.0794(4) 0.3025(5)
H16A H 0.7065 0.1216 0.3336
C18A C 0.7235(4) 0.0833(4) 0.2161(5)
H17A H 0.7200 0.1288 0.1902
C19A C 0.7087(4) 0.0037(4) 0.4359(4)
H18A H 0.7205 0.0496 0.4632
H19A H 0.7430 -0.0326 0.4560
C20A C 0.6317(4) -0.0191(4) 0.4630(5)
H20A H 0.6162 -0.0607 0.4297
H21A H 0.6328 -0.0341 0.5216
C21A C 0.5776(4) 0.0420(4) 0.4525(6)
H22A H 0.5768 0.0562 0.3937
H23A H 0.5947 0.0838 0.4846
C22A C 0.8981(5) -0.0345(4) 0.0854(6)
H24A H 0.8747 -0.0789 0.0767
C23A C 0.9693(5) -0.0346(5) 0.1138(6)
H25A H 0.9913 -0.0788 0.1274
C24A C 1.0081(4) 0.0287(5) 0.1223(5)
C25A C 0.9708(4) 0.0899(5) 0.1076(8)
H26A H 0.9935 0.1348 0.1160
C26A C 0.8999(5) 0.0882(5) 0.0803(8)
H27A H 0.8773 0.1325 0.0682
S2 S 0.78280(10) 0.78280(10) 0.0000
O5 O 0.7739(3) 0.8561(3) 0.0343(3)
O6 O 0.7702(4) 0.7295(3) 0.0690(3)
O5F O 0.8561(3) 0.7739(3) -0.0343(3)
O6F O 0.7295(3) 0.7702(4) -0.0690(3)
O7 O 0.6760(5) 0.3240(5) 0.2500
loop_
_geom_bond_atom_site_label_1
_geom_bond_atom_site_label_2
_geom_bond_site_symmetry_1
_geom_bond_site_symmetry_2
Cu1 O1 1_555 1_555
S1 O1 1_555 1_555
S2 O5 1_555 1_555
O2 S1 1_555 1_555
O3 S1 1_555 1_555
H1 O3 1_555 1_555
O4 S1 1_555 1_555
O6 S2 1_555 1_555
N1 Cu1 1_555 1_555
N2 Cu1 1_555 1_555
N3 C14 1_555 1_555
N4 C22 1_555 1_555
C1 N1 1_555 1_555
H2 C1 1_555 1_555
C2 C1 1_555 1_555
H3 C2 1_555 1_555
C3 C2 1_555 1_555
C4 C3 1_555 1_555
H4 C4 1_555 1_555
C5 N1 1_555 1_555
H5 C5 1_555 1_555
C6 C3 1_555 1_555
H6 C6 1_555 1_555
H7 C6 1_555 1_555
C7 C6 1_555 1_555
C8 C7 1_555 1_555
H8 C8 1_555 1_555
H9 C8 1_555 1_555
C9 N2 1_555 1_555
H10 C9 1_555 1_555
C10 C9 1_555 1_555
H11 C10 1_555 1_555
C11 C10 1_555 1_555
C12 C11 1_555 1_555
H12 C12 1_555 1_555
C13 N2 1_555 1_555
H13 C13 1_555 1_555
C14 H14 1_555 1_555
C15 C14 1_555 1_555
H15 C15 1_555 1_555
C16 C15 1_555 1_555
C17 C16 1_555 1_555
H16 C17 1_555 1_555
C18 N3 1_555 1_555
H17 C18 1_555 1_555
C19 C16 1_555 1_555
H18 C19 1_555 1_555
H19 C19 1_555 1_555
C20 C19 1_555 1_555
H20 C20 1_555 1_555
H21 C20 1_555 1_555
C21 C11 1_555 1_555
H22 C21 1_555 1_555
H23 C21 1_555 1_555
C22 H24 1_555 1_555
C23 C22 1_555 1_555
H25 C23 1_555 1_555
C24 C8 1_555 1_555
C25 C24 1_555 1_555
H26 C25 1_555 1_555
C26 N4 1_555 1_555
H27 C26 1_555 1_555
Cu1A O1A 1_555 1_555
Cu1A_2 N3 1_555 1_555
Cu1A_3 N4 1_555 1_555
Cu1A_4 N2A 1_555 1_555
S1A O1A 1_555 1_555
O2A S1A 1_555 1_555
O3A S1A 1_555 1_555
H1A O3A 1_555 1_555
O4A S1A 1_555 1_555
O5F S2 1_555 1_555
O6F S2 1_555 1_555
N1A Cu1A 1_555 1_555
N2A C9A 1_555 1_555
N2A_2 Cu1A 1_555 1_555
N3A Cu1 1_555 1_555
N3_2 Cu1A 1_555 1_555
N4A Cu1 1_555 1_555
N4_2 Cu1A 1_555 1_555
C1A N1A 1_555 1_555
H2A C1A 1_555 1_555
C2A C1A 1_555 1_555
H3A C2A 1_555 1_555
C3A C2A 1_555 1_555
C4A C3A 1_555 1_555
H4A C4A 1_555 1_555
C5A N1A 1_555 1_555
H5A C5A 1_555 1_555
C6A C3A 1_555 1_555
H6A C6A 1_555 1_555
H7A C6A 1_555 1_555
C7A C6A 1_555 1_555
C8A C7A 1_555 1_555
H8A C8A 1_555 1_555
H9A C8A 1_555 1_555
C9A H10A 1_555 1_555
C10A C9A 1_555 1_555
H11A C10A 1_555 1_555
C11A C10A 1_555 1_555
C12A C11A 1_555 1_555
H12A C12A 1_555 1_555
C13A N2A 1_555 1_555
H13A C13A 1_555 1_555
C14A N3A 1_555 1_555
H14A C14A 1_555 1_555
C15A C14A 1_555 1_555
H15A C15A 1_555 1_555
C16A C15A 1_555 1_555
C17A C16A 1_555 1_555
H16A C17A 1_555 1_555
C18A N3A 1_555 1_555
H17A C18A 1_555 1_555
C19A C16A 1_555 1_555
H18A C19A 1_555 1_555
H19A C19A 1_555 1_555
C20A C19A 1_555 1_555
H20A C20A 1_555 1_555
H21A C20A 1_555 1_555
C21A C11A 1_555 1_555
H22A C21A 1_555 1_555
H23A C21A 1_555 1_555
C22A N4A 1_555 1_555
H24A C22A 1_555 1_555
C23A C22A 1_555 1_555
H25A C23A 1_555 1_555
C24A C8A 1_555 1_555
C25A C24A 1_555 1_555
H26A C25A 1_555 1_555
C26A N4A 1_555 1_555
H27A C26A 1_555 1_555
C4 C5 1_555 1_555
C12 C13 1_555 1_555
C17 C18 1_555 1_555
C20 C21 1_555 1_555
C23 C24 1_555 1_555
C25 C26 1_555 1_555
C4A C5A 1_555 1_555
C12A C13A 1_555 1_555
C17A C18A 1_555 1_555
C20A C21A 1_555 1_555
C23A C24A 1_555 1_555
C25A C26A 1_555 1_555

#END
