
#######################################################################
#
#                 Cambridge Crystallographic Data Centre
#                                CCDC 
#
#######################################################################
#
# If this CIF has been generated from an entry in the Cambridge 
# Structural Database, then it will include bibliographic, chemical, 
# crystal, experimental, refinement or atomic coordinate data resulting 
# from the CCDC's data processing and validation procedures.
#
#######################################################################

data_JEYNUX
_symmetry_cell_setting           triclinic
_symmetry_space_group_name_H-M   'P -1'
_symmetry_Int_Tables_number      2
_space_group_name_Hall           '-P 1'
loop_
_symmetry_equiv_pos_site_id
_symmetry_equiv_pos_as_xyz
1 x,y,z
2 -x,-y,-z
_cell_length_a                   6.704(2)
_cell_length_b                   9.338(3)
_cell_length_c                   20.056(7)
_cell_angle_alpha                101.409(5)
_cell_angle_beta                 96.650(5)
_cell_angle_gamma                93.148(5)
_cell_volume                     1218.54
loop_
_atom_site_label
_atom_site_type_symbol
_atom_site_fract_x
_atom_site_fract_y
_atom_site_fract_z
Cd1 Cd 0.5000 0.0000 0.0000
Cd5 Cd 0.0000 0.0000 0.0000
Cl4 Cl 0.2879(2) 0.06678(16) 0.10325(7)
Cl5 Cl 0.7624(2) -0.14575(16) 0.06514(7)
Cl6 Cl 0.7782(2) 0.22018(15) 0.04627(8)
Cd5_2 Cd 1.0000 0.0000 0.0000
Cl4A Cl 0.7121(2) -0.06678(16) -0.10325(7)
Cl4A_2 Cl -0.2879(2) -0.06678(16) -0.10325(7)
Cl5A Cl 0.2376(2) 0.14575(16) -0.06514(7)
Cl5_2 Cl -0.2376(2) -0.14575(16) 0.06514(7)
Cl6A Cl 0.2218(2) -0.22018(15) -0.04627(8)
Cl6_2 Cl -0.2218(2) 0.22018(15) 0.04627(8)
Cd2 Cd 0.63643(6) 0.70840(4) 0.368636(19)
Cd3 Cd 0.5000 0.5000 0.5000
Cd4 Cd 0.5000 1.0000 0.5000
Cl1 Cl 0.3251(2) 0.86421(16) 0.38330(7)
Cl2 Cl 0.7041(2) 0.75652(14) 0.50402(7)
Cl3 Cl 0.4741(2) 0.44856(16) 0.36763(7)
O1 O 0.9513(7) 0.6215(5) 0.3548(2)
O2 O 0.1890(6) 0.5980(5) 0.4915(2)
N1 N 0.8752(8) 1.1225(5) 0.2769(2)
N2 N 0.3296(7) 0.5504(5) 0.1277(2)
O3 O 0.7388(6) 1.1096(4) 0.4470(2)
O4 O 0.8060(7) 0.9236(4) 0.3657(2)
O5 O 0.5619(7) 0.6748(5) 0.2556(2)
O6 O 0.8352(7) 0.5790(7) 0.2194(3)
C1 C 0.9355(16) 1.2569(9) 0.2508(4)
C2 C 0.6632(12) 1.0687(10) 0.2455(4)
C3 C 1.0113(13) 1.0042(9) 0.2554(4)
C4 C 0.8864(10) 1.1719(7) 0.3546(3)
C5 C 0.8025(8) 1.0569(6) 0.3918(3)
C6 C 0.2585(12) 0.4796(9) 0.0541(4)
C7 C 0.2512(12) 0.7012(8) 0.1418(4)
C8 C 0.2417(11) 0.4555(8) 0.1720(4)
C9 C 0.5542(9) 0.5573(7) 0.1370(3)
C10 C 0.6588(9) 0.6083(6) 0.2108(3)
Cd2A Cd 0.36357(6) 0.29160(4) 0.631364(19)
Cd2A_2 Cd 0.36357(6) 1.29160(4) 0.631364(19)
Cd4_2 Cd 0.5000 0.0000 0.5000
Cl1A Cl 0.6749(2) 1.13579(16) 0.61670(7)
Cl1A_2 Cl 0.6749(2) 0.13579(16) 0.61670(7)
Cl2A Cl 0.2959(2) 0.24348(14) 0.49598(7)
Cl2A_2 Cl 0.2959(2) 1.24348(14) 0.49598(7)
Cl3A Cl 0.5259(2) 0.55144(16) 0.63237(7)
O1A O 0.0487(7) 0.3785(5) 0.6452(2)
O2A O 0.8110(6) 0.4020(5) 0.5085(2)
N1A N 0.1248(8) 0.8775(5) 0.7231(2)
N2A N 0.6704(7) 0.4496(5) 0.8723(2)
O3A O 0.2612(6) 0.8904(4) 0.5530(2)
O4A O 0.1940(7) 1.0764(4) 0.6343(2)
O4A_2 O 0.1940(7) 0.0764(4) 0.6343(2)
O5A O 0.4381(7) 0.3252(5) 0.7444(2)
O6A O 0.1648(7) 0.4210(7) 0.7806(3)
C1A C 0.0645(16) 0.7431(9) 0.7492(4)
C2A C 0.3368(12) 0.9313(10) 0.7545(4)
C3A C -0.0113(13) 0.9958(9) 0.7446(4)
C4A C 0.1136(10) 0.8281(7) 0.6454(3)
C5A C 0.1975(8) 0.9431(6) 0.6082(3)
C6A C 0.7415(12) 0.5204(9) 0.9459(4)
C7A C 0.7488(12) 0.2988(8) 0.8582(4)
C8A C 0.7583(11) 0.5445(8) 0.8280(4)
C9A C 0.4458(9) 0.4427(7) 0.8630(3)
C10A C 0.3412(9) 0.3917(6) 0.7892(3)
loop_
_geom_bond_atom_site_label_1
_geom_bond_atom_site_label_2
_geom_bond_site_symmetry_1
_geom_bond_site_symmetry_2
Cd1 Cl4 1_555 1_555
Cd2 Cl1 1_555 1_555
Cd3 Cl2 1_555 1_555
Cd4 Cl1 1_555 1_555
Cd5 Cl4 1_555 1_555
Cl2 Cd2 1_555 1_555
Cl3 Cd2 1_555 1_555
Cl5 Cd1 1_555 1_555
O1 Cd2 1_555 1_555
O2 Cd3 1_555 1_555
Cl6 Cd1 1_555 1_555
N1 C1 1_555 1_555
N2 C6 1_555 1_555
O3 Cd4 1_555 1_555
O4 Cd2 1_555 1_555
O5 Cd2 1_555 1_555
O6 C10 1_555 1_555
C2 N1 1_555 1_555
C3 N1 1_555 1_555
C4 N1 1_555 1_555
C5 O3 1_555 1_555
C7 N2 1_555 1_555
C8 N2 1_555 1_555
C9 N2 1_555 1_555
C10 O5 1_555 1_555
Cd2A Cl1A_2 1_555 1_555
Cd2A_2 Cl1A 1_555 1_555
Cd4_2 Cl1A_2 1_555 1_555
Cd5_2 Cl5 1_555 1_555
Cl1A Cd4 1_555 1_555
Cl2A Cd3 1_555 1_555
Cl2A_2 Cd4 1_555 1_555
Cl3A Cd3 1_555 1_555
Cl4A Cd1 1_555 1_555
Cl4A_2 Cd5 1_555 1_555
Cl5A Cd1 1_555 1_555
Cl5_2 Cd5 1_555 1_555
O1A Cd2A 1_555 1_555
O2A Cd3 1_555 1_555
Cl6A Cd1 1_555 1_555
Cl6_2 Cd5 1_555 1_555
N1A C1A 1_555 1_555
N2A C6A 1_555 1_555
O3A Cd4 1_555 1_555
O4A Cd2A_2 1_555 1_555
O4A_2 Cd2A 1_555 1_555
O5A Cd2A 1_555 1_555
O6A C10A 1_555 1_555
C2A N1A 1_555 1_555
C3A N1A 1_555 1_555
C4A N1A 1_555 1_555
C5A O3A 1_555 1_555
C7A N2A 1_555 1_555
C8A N2A 1_555 1_555
C9A N2A 1_555 1_555
C10A O5A 1_555 1_555
Cd3 Cl3 1_555 1_555
Cd4 Cl2 1_555 1_555
Cd5 Cl5A 1_555 1_555
Cd5 Cl6A 1_555 1_555
Cl6 Cd5_2 1_555 1_555
O4 C5 1_555 1_555
C4 C5 1_555 1_555
C9 C10 1_555 1_555
Cd2A Cl2A 1_555 1_555
Cd2A Cl3A 1_555 1_555
Cd2A_2 Cl2A_2 1_555 1_555
Cd4_2 Cl2A 1_555 1_555
Cd5_2 Cl4A 1_555 1_555
O4A C5A 1_555 1_555
C4A C5A 1_555 1_555
C9A C10A 1_555 1_555

#END
