
#######################################################################
#
#                 Cambridge Crystallographic Data Centre
#                                CCDC 
#
#######################################################################
#
# If this CIF has been generated from an entry in the Cambridge 
# Structural Database, then it will include bibliographic, chemical, 
# crystal, experimental, refinement or atomic coordinate data resulting 
# from the CCDC's data processing and validation procedures.
#
#######################################################################

data_JEYZUJ
_symmetry_cell_setting           triclinic
_symmetry_space_group_name_H-M   'P -1'
_symmetry_Int_Tables_number      2
_space_group_name_Hall           '-P 1'
loop_
_symmetry_equiv_pos_site_id
_symmetry_equiv_pos_as_xyz
1 x,y,z
2 -x,-y,-z
_cell_length_a                   5.0630(10)
_cell_length_b                   8.1658(16)
_cell_length_c                   11.528(2)
_cell_angle_alpha                91.29(3)
_cell_angle_beta                 90.09(3)
_cell_angle_gamma                95.63(3)
_cell_volume                     474.185
loop_
_atom_site_label
_atom_site_type_symbol
_atom_site_fract_x
_atom_site_fract_y
_atom_site_fract_z
Pb1 Pb -0.00918(4) 0.51769(2) 0.188352(18)
O1 O 0.1364(7) 0.3423(5) 0.0329(4)
O2 O 0.4872(8) 0.4300(5) 0.1396(4)
C1 C 0.5039(10) 0.1764(6) 0.0332(5)
H1 H 0.6963 0.2031 0.0397
C2 C 0.4398(13) 0.1153(6) -0.0906(6)
H2 H 0.4974 0.2009 -0.1445
H3 H 0.2495 0.0900 -0.0994
C3 C 0.3705(11) 0.3280(6) 0.0687(5)
C4 C 0.4200(11) 0.0394(6) 0.1187(5)
H4 H 0.4646 0.0780 0.1971
H5 H 0.2294 0.0123 0.1143
O3 O -0.0335(9) 0.2609(5) 0.2648(4)
O4 O -0.2360(8) 0.4011(5) 0.3972(4)
C5 C -0.1376(11) 0.2739(7) 0.3634(6)
C6 C -0.1294(11) 0.1341(7) 0.4477(6)
H6 H -0.2784 0.1388 0.5014
C7 C 0.1283(13) 0.1676(7) 0.5179(6)
H7 H 0.2789 0.1698 0.4659
H8 H 0.1323 0.2744 0.5567
C8 C -0.1500(14) -0.0352(7) 0.3921(6)
H9 H -0.0096 -0.0408 0.3354
H10 H -0.3186 -0.0558 0.3517
O5 O 0.3304(9) 0.5788(5) 0.3599(4)
H11 H 0.471(8) 0.520(7) 0.352(6)
H12 H 0.292(15) 0.567(10) 0.435(3)
Pb1A Pb 1.00918(4) -0.51769(2) -0.188352(18)
Pb1_2 Pb 0.99082(4) 0.51769(2) 0.188352(18)
Pb1A_2 Pb 0.00918(4) -0.51769(2) -0.188352(18)
Pb1A_3 Pb 0.00918(4) -0.51769(2) 0.811648(18)
O1A O 0.8636(7) -0.3423(5) -0.0329(4)
O2A O 0.5128(8) -0.4300(5) -0.1396(4)
O2_2 O -0.5128(8) 0.4300(5) 0.1396(4)
O2A_2 O 1.5128(8) -0.4300(5) -0.1396(4)
C1A C 0.4961(10) -0.1764(6) -0.0332(5)
H1A H 0.3037 -0.2031 -0.0397
C2A C 0.5602(13) -0.1153(6) 0.0906(6)
H2A H 0.5026 -0.2009 0.1445
H3A H 0.7505 -0.0900 0.0994
C3A C 0.6295(11) -0.3280(6) -0.0687(5)
C4A C 0.5800(11) -0.0394(6) -0.1187(5)
H4A H 0.5354 -0.0780 -0.1971
H5A H 0.7706 -0.0123 -0.1143
O3A O 0.0335(9) -0.2609(5) 0.7352(4)
O3A_2 O 1.0335(9) -0.2609(5) -0.2648(4)
O4A O 0.2360(8) -0.4011(5) 0.6028(4)
C5A C 0.1376(11) -0.2739(7) 0.6366(6)
C6A C 0.1294(11) -0.1341(7) 0.5523(6)
H6A H 0.2784 -0.1388 0.4986
C7A C -0.1283(13) -0.1676(7) 0.4821(6)
H7A H -0.2789 -0.1698 0.5341
H8A H -0.1323 -0.2744 0.4433
C8A C 0.1500(14) 0.0352(7) 0.6079(6)
H9A H 0.0096 0.0408 0.6646
H10A H 0.3186 0.0558 0.6483
O5A O 0.6696(9) -0.5788(5) -0.3599(4)
H11A H 0.529(8) -0.520(7) -0.352(6)
H12A H 0.708(15) -0.567(10) -0.435(3)
loop_
_geom_bond_atom_site_label_1
_geom_bond_atom_site_label_2
_geom_bond_site_symmetry_1
_geom_bond_site_symmetry_2
Pb1 O1 1_555 1_555
O1 C3 1_555 1_555
O2 Pb1 1_555 1_555
C1 H1 1_555 1_555
C2 C1 1_555 1_555
H2 C2 1_555 1_555
H3 C2 1_555 1_555
C3 O2 1_555 1_555
C4 C1 1_555 1_555
H4 C4 1_555 1_555
H5 C4 1_555 1_555
O3 Pb1 1_555 1_555
O4 C5 1_555 1_555
C5 O3 1_555 1_555
C6 C5 1_555 1_555
H6 C6 1_555 1_555
C7 C6 1_555 1_555
H7 C7 1_555 1_555
H8 C7 1_555 1_555
C8 C6 1_555 1_555
H9 C8 1_555 1_555
H10 C8 1_555 1_555
O5 Pb1 1_555 1_555
H11 O5 1_555 1_555
H12 O5 1_555 1_555
Pb1A O1A 1_555 1_555
Pb1_2 O2 1_555 1_555
Pb1A_2 O2A 1_555 1_555
Pb1A_3 O3A 1_555 1_555
O1A C3A 1_555 1_555
O2A Pb1A 1_555 1_555
O2_2 Pb1 1_555 1_555
O2A_2 Pb1A 1_555 1_555
C1A H1A 1_555 1_555
C2A C4 1_555 1_555
H2A C2A 1_555 1_555
H3A C2A 1_555 1_555
C3A O2A 1_555 1_555
C4A C2 1_555 1_555
H4A C4A 1_555 1_555
H5A C4A 1_555 1_555
O3A C5A 1_555 1_555
O3A_2 Pb1A 1_555 1_555
O4A C5A 1_555 1_555
C5A C6A 1_555 1_555
C6A H6A 1_555 1_555
C7A C8 1_555 1_555
H7A C7A 1_555 1_555
H8A C7A 1_555 1_555
C8A C7 1_555 1_555
H9A C8A 1_555 1_555
H10A C8A 1_555 1_555
O5A Pb1A 1_555 1_555
H11A O5A 1_555 1_555
H12A O5A 1_555 1_555
C1 C3 1_555 1_555
C1A C2A 1_555 1_555
C1A C3A 1_555 1_555
C1A C4A 1_555 1_555
C6A C7A 1_555 1_555
C6A C8A 1_555 1_555

#END
