
#######################################################################
#
#                 Cambridge Crystallographic Data Centre
#                                CCDC 
#
#######################################################################
#
# If this CIF has been generated from an entry in the Cambridge 
# Structural Database, then it will include bibliographic, chemical, 
# crystal, experimental, refinement or atomic coordinate data resulting 
# from the CCDC's data processing and validation procedures.
#
#######################################################################

data_JEYZET
_symmetry_cell_setting           monoclinic
_symmetry_space_group_name_H-M   'P 21/c'
_symmetry_Int_Tables_number      14
_space_group_name_Hall           '-P 2ybc'
loop_
_symmetry_equiv_pos_site_id
_symmetry_equiv_pos_as_xyz
1 x,y,z
2 -x,1/2+y,1/2-z
3 -x,-y,-z
4 x,1/2-y,1/2+z
_cell_length_a                   7.5168(8)
_cell_length_b                   21.771(2)
_cell_length_c                   12.1053(10)
_cell_angle_alpha                90
_cell_angle_beta                 122.872(5)
_cell_angle_gamma                90
_cell_volume                     1663.82
loop_
_atom_site_label
_atom_site_type_symbol
_atom_site_fract_x
_atom_site_fract_y
_atom_site_fract_z
Cu1 Cu 0.81377(10) 0.20909(3) 1.00988(7)
N1 N 0.8761(7) 0.1230(2) 1.0768(4)
C1 C 1.0373(9) 0.1120(2) 1.1990(5)
H1 H 1.1152 0.1451 1.2520
C2 C 1.0933(9) 0.0535(3) 1.2499(5)
H2 H 1.2080 0.0471 1.3353
C3 C 0.9760(9) 0.0046(2) 1.1717(5)
H3 H 1.0124 -0.0353 1.2040
C4 C 0.8046(8) 0.0148(2) 1.0455(5)
C5 C 0.7589(8) 0.0756(2) 0.9992(5)
H4 H 0.6461 0.0834 0.9138
N2 N 0.6882(7) -0.03596(19) 0.9701(4)
H5 H 0.7235 -0.0708 1.0101
C6 C 0.5268(8) -0.0373(2) 0.8419(5)
O1 O 0.4482(6) 0.00848(16) 0.7720(3)
N3 N 0.4598(7) -0.0962(2) 0.7972(4)
H6 H 0.5163 -0.1250 0.8549
C7 C 0.3107(8) -0.1142(3) 0.6689(5)
C8 C 0.3153(9) -0.1757(3) 0.6390(6)
H7 H 0.4175 -0.2010 0.7050
N4 N 0.1825(7) -0.2003(2) 0.5222(5)
C9 C 0.0361(9) -0.1640(3) 0.4256(6)
H8 H -0.0563 -0.1807 0.3427
C10 C 0.0201(8) -0.1027(2) 0.4466(5)
H9 H -0.0827 -0.0784 0.3785
C11 C 0.1569(8) -0.0774(2) 0.5693(5)
H10 H 0.1459 -0.0361 0.5847
O2 O 0.9102(6) 0.18881(18) 0.8903(4)
S1 S 1.1380(3) 0.20378(9) 0.9488(2)
O3 O 1.2430(7) 0.2102(3) 1.0916(5)
O4 O 1.2344(9) 0.1539(2) 0.9169(7)
O5 O 1.1497(6) 0.26126(19) 0.8884(4)
O6 O 0.4893(6) 0.19319(17) 0.8391(4)
O7 O 0.7644(6) 0.22819(17) 1.1514(4)
H11 H 0.3982 0.1837 0.8593
H12 H 0.4389 0.1861 0.7558
H13 H 0.6757 0.2623 1.1408
H14 H 0.9062 0.2286 1.2319
Cu1A Cu 0.18623(10) -0.29091(3) 0.49012(7)
N4A N 0.8175(7) 0.2997(2) 0.9778(5)
O8 O 0.5000(7) 0.1758(2) 0.6011(4)
H15 H 0.3709 0.1918 0.5317
H16 H 0.4693 0.1388 0.5823
O9 O 0.5218(8) 0.0498(3) 0.5810(4)
H17 H 0.4730 0.0452 0.6429
H18 H 0.4730 0.0299 0.5251
loop_
_geom_bond_atom_site_label_1
_geom_bond_atom_site_label_2
_geom_bond_site_symmetry_1
_geom_bond_site_symmetry_2
Cu1 N1 1_555 1_555
N1 C1 1_555 1_555
C1 H1 1_555 1_555
C2 C1 1_555 1_555
H2 C2 1_555 1_555
C3 C2 1_555 1_555
H3 C3 1_555 1_555
C4 C3 1_555 1_555
C5 N1 1_555 1_555
H4 C5 1_555 1_555
N2 C4 1_555 1_555
H5 N2 1_555 1_555
C6 N2 1_555 1_555
O1 C6 1_555 1_555
N3 C6 1_555 1_555
H6 N3 1_555 1_555
C7 N3 1_555 1_555
C8 C7 1_555 1_555
H7 C8 1_555 1_555
N4 C8 1_555 1_555
C9 N4 1_555 1_555
H8 C9 1_555 1_555
C10 C9 1_555 1_555
H9 C10 1_555 1_555
C11 C7 1_555 1_555
H10 C11 1_555 1_555
O2 Cu1 1_555 1_555
S1 O2 1_555 1_555
O3 S1 1_555 1_555
O4 S1 1_555 1_555
O5 S1 1_555 1_555
O6 Cu1 1_555 1_555
O7 Cu1 1_555 1_555
O8 H15 1_555 1_555
O9 H17 1_555 1_555
H11 O6 1_555 1_555
H12 O6 1_555 1_555
H13 O7 1_555 1_555
H14 O7 1_555 1_555
H16 O8 1_555 1_555
H18 O9 1_555 1_555
Cu1A N4 1_555 1_555
N4A Cu1 1_555 1_555
C4 C5 1_555 1_555
C10 C11 1_555 1_555

#END
