
#######################################################################
#
#                 Cambridge Crystallographic Data Centre
#                                CCDC 
#
#######################################################################
#
# If this CIF has been generated from an entry in the Cambridge 
# Structural Database, then it will include bibliographic, chemical, 
# crystal, experimental, refinement or atomic coordinate data resulting 
# from the CCDC's data processing and validation procedures.
#
#######################################################################

data_JEZBEW
_symmetry_cell_setting           triclinic
_symmetry_space_group_name_H-M   'P -1'
_symmetry_Int_Tables_number      2
_space_group_name_Hall           '-P 1'
loop_
_symmetry_equiv_pos_site_id
_symmetry_equiv_pos_as_xyz
1 x,y,z
2 -x,-y,-z
_cell_length_a                   5.2115(12)
_cell_length_b                   8.4001(18)
_cell_length_c                   13.107(3)
_cell_angle_alpha                105.130(17)
_cell_angle_beta                 95.953(18)
_cell_angle_gamma                101.584(17)
_cell_volume                     535.169
loop_
_atom_site_label
_atom_site_type_symbol
_atom_site_fract_x
_atom_site_fract_y
_atom_site_fract_z
Ni1 Ni 0.5000 0.0000 0.5000
Ni2 Ni 0.0000 -1.0000 0.0000
N1 N 0.4972(6) -0.2439(3) 0.4134(2)
O1 O 0.1785(5) -0.0429(3) 0.3831(2)
O2 O -0.0586(6) -0.2348(3) 0.2359(2)
O3 O 0.2226(6) -0.7857(3) 0.1175(2)
O4 O 0.5387(6) -0.8362(3) 0.2244(2)
O5 O 0.7520(5) 0.1049(3) 0.4072(2)
H1 H 0.6818 0.1136 0.3489
H2 H 0.8732 0.0544 0.394
O6 O -0.2250(6) -0.8384(3) -0.0278(2)
H3 H -0.1825 -0.7389 0.009
H4 H -0.3828 -0.869 -0.0589
O7 O 0.2292(5) -0.9432(3) -0.1094(2)
H5 H 0.1703 -0.8958 -0.1529
H6 H 0.2827 -1.0225 -0.1464
C1 C 0.1279(7) -0.1862(4) 0.3130(3)
C2 C 0.3949(8) -0.7462(5) 0.1992(3)
C3 C 0.3027(7) -0.3048(4) 0.3267(3)
C4 C 0.2634(8) -0.4659(4) 0.2571(3)
H9 H 0.1278 -0.5048 0.1982
C5 C 0.4299(7) -0.5695(4) 0.2765(3)
C6 C 0.6267(7) -0.5059(4) 0.3655(3)
H10 H 0.7405 -0.572 0.3808
C7 C 0.6542(8) -0.3444(4) 0.4317(3)
H11 H 0.7874 -0.3037 0.4915
Ni2_2 Ni 1.0000 1.0000 1.0000
N1A N 0.5028(6) 0.2439(3) 0.5866(2)
O1A O 0.8215(5) 0.0429(3) 0.6169(2)
O2A O 1.0586(6) 0.2348(3) 0.7641(2)
O3A O 0.7774(6) 0.7857(3) 0.8825(2)
O3A_2 O -0.2226(6) -1.2143(3) -0.1175(2)
O4A O 0.4613(6) 0.8362(3) 0.7756(2)
O5A O 0.2480(5) -0.1049(3) 0.5928(2)
H1A H 0.3182 -0.1136 0.6511
H2A H 0.1268 -0.0544 0.606
O6A O 0.2250(6) -1.1616(3) 0.0278(2)
H3A H 0.1825 -1.2611 -0.009
H4A H 0.3828 -1.131 0.0589
O7A O -0.2292(5) -1.0568(3) 0.1094(2)
H5A H -0.1703 -1.1042 0.1529
H6A H -0.2827 -0.9775 0.1464
C1A C 0.8721(7) 0.1862(4) 0.6870(3)
C2A C 0.6051(8) 0.7462(5) 0.8008(3)
C3A C 0.6973(7) 0.3048(4) 0.6733(3)
C4A C 0.7366(8) 0.4659(4) 0.7429(3)
H9A H 0.8722 0.5048 0.8018
C5A C 0.5701(7) 0.5695(4) 0.7235(3)
C6A C 0.3733(7) 0.5059(4) 0.6345(3)
H10A H 0.2595 0.572 0.6192
C7A C 0.3458(8) 0.3444(4) 0.5683(3)
H11A H 0.2126 0.3037 0.5085
O8 O -0.2487(8) -0.5032(4) 0.0507(3)
H7 H -0.2158 -0.4143 0.1023
H8 H -0.158 -0.4738 0.0066
loop_
_geom_bond_atom_site_label_1
_geom_bond_atom_site_label_2
_geom_bond_site_symmetry_1
_geom_bond_site_symmetry_2
Ni1 N1 1_555 1_555
Ni2 O3 1_555 1_555
N1 C3 1_555 1_555
O1 Ni1 1_555 1_555
O2 C1 1_555 1_555
O3 C2 1_555 1_555
O4 C2 1_555 1_555
O5 Ni1 1_555 1_555
H1 O5 1_555 1_555
H2 O5 1_555 1_555
O6 Ni2 1_555 1_555
H3 O6 1_555 1_555
H4 O6 1_555 1_555
O7 Ni2 1_555 1_555
H5 O7 1_555 1_555
H6 O7 1_555 1_555
O8 H7 1_555 1_555
H8 O8 1_555 1_555
C1 O1 1_555 1_555
C2 C5 1_555 1_555
C3 C1 1_555 1_555
C4 C3 1_555 1_555
H9 C4 1_555 1_555
C5 C4 1_555 1_555
C6 C5 1_555 1_555
H10 C6 1_555 1_555
C7 N1 1_555 1_555
H11 C7 1_555 1_555
Ni2_2 O3A 1_555 1_555
N1A Ni1 1_555 1_555
O1A Ni1 1_555 1_555
O2A C1A 1_555 1_555
O3A C2A 1_555 1_555
O3A_2 Ni2 1_555 1_555
O4A C2A 1_555 1_555
O5A Ni1 1_555 1_555
H1A O5A 1_555 1_555
H2A O5A 1_555 1_555
O6A Ni2 1_555 1_555
H3A O6A 1_555 1_555
H4A O6A 1_555 1_555
O7A Ni2 1_555 1_555
H5A O7A 1_555 1_555
H6A O7A 1_555 1_555
C1A O1A 1_555 1_555
C2A C5A 1_555 1_555
C3A N1A 1_555 1_555
C4A C3A 1_555 1_555
H9A C4A 1_555 1_555
C5A C4A 1_555 1_555
C6A C5A 1_555 1_555
H10A C6A 1_555 1_555
C7A N1A 1_555 1_555
H11A C7A 1_555 1_555
C6 C7 1_555 1_555
C1A C3A 1_555 1_555
C6A C7A 1_555 1_555

#END
