
#######################################################################
#
#                 Cambridge Crystallographic Data Centre
#                                CCDC 
#
#######################################################################
#
# If this CIF has been generated from an entry in the Cambridge 
# Structural Database, then it will include bibliographic, chemical, 
# crystal, experimental, refinement or atomic coordinate data resulting 
# from the CCDC's data processing and validation procedures.
#
#######################################################################

data_JEZRUB
_symmetry_cell_setting           tetragonal
_symmetry_space_group_name_H-M   'P 4/n c c'
_symmetry_Int_Tables_number      130
_space_group_name_Hall           '-P 4a 2ac'
loop_
_symmetry_equiv_pos_site_id
_symmetry_equiv_pos_as_xyz
1 x,y,z
2 1/2-y,x,z
3 1/2-x,1/2-y,z
4 y,1/2-x,z
5 1/2+x,-y,1/2-z
6 -y,-x,1/2-z
7 -x,1/2+y,1/2-z
8 1/2+y,1/2+x,1/2-z
9 -x,-y,-z
10 1/2+y,-x,-z
11 1/2+x,1/2+y,-z
12 -y,1/2+x,-z
13 1/2-x,y,1/2+z
14 y,x,1/2+z
15 x,1/2-y,1/2+z
16 1/2-y,1/2-x,1/2+z
_cell_length_a                   10.815(2)
_cell_length_b                   10.815(2)
_cell_length_c                   17.006(3)
_cell_angle_alpha                90
_cell_angle_beta                 90
_cell_angle_gamma                90
_cell_volume                     1989.09
loop_
_atom_site_label
_atom_site_type_symbol
_atom_site_fract_x
_atom_site_fract_y
_atom_site_fract_z
Zn1 Zn 0.7500 0.2500 0.2500
N1 N 0.3437(5) -0.1458(5) -0.1597(3)
C1 C 0.2853(6) -0.0933(7) -0.1013(4)
C2 C 0.3413(7) -0.0282(8) -0.0377(4)
C3 C 0.4658(7) -0.0292(6) -0.0332(3)
C4 C 1.0886(6) 0.4641(6) 0.5961(4)
C5 C 1.1432(7) 0.5295(6) 0.6555(4)
O1 O 0.8894(4) 0.1106(4) 0.2500
H1 H 0.891(6) 0.043(6) 0.228(3)
H2 H 1.0997(6) 0.8144(7) 0.6012(4)
H3 H 0.9800(7) 0.7140(8) 0.4946(4)
H4 H 1.0893(6) 0.3643(6) 0.5957(4)
H5 H 1.1871(7) 0.4780(6) 0.7021(4)
Zn1M Zn 0.2500 -0.2500 -0.2500
C3H C 0.5342(7) 0.0292(6) 0.0332(3)
C2H C 0.6587(7) 0.0282(8) 0.0377(4)
C1H C 0.7147(6) 0.0933(7) 0.1013(4)
N1H N 0.6563(5) 0.1458(5) 0.1597(3)
N1J N 0.8437(5) 0.3542(5) 0.1597(3)
N1M N 0.8542(5) 0.3437(5) 0.3403(3)
C1M C 0.9067(7) 0.2853(6) 0.3987(4)
C2M C 0.9718(8) 0.3413(7) 0.4623(4)
C3M C 0.9708(6) 0.4658(7) 0.4668(3)
C3E C 1.0292(6) 0.5342(7) 0.5332(3)
C2E C 1.0282(8) 0.6587(7) 0.5377(4)
C1E C 1.0933(7) 0.7147(6) 0.6013(4)
N1E N 1.1458(5) 0.6563(5) 0.6597(3)
Zn1M_2 Zn 1.2500 0.7500 0.7500
C4H C 0.9114(6) 0.5359(6) 0.4039(4)
C5H C 0.8568(7) 0.4705(6) 0.3445(4)
H5H H 0.8129(7) 0.5220(6) 0.2979(4)
H4H H 0.9107(6) 0.6357(6) 0.4043(4)
H3H H 1.0200(7) 0.2860(8) 0.5054(4)
H2H H 0.9003(6) 0.1856(7) 0.3988(4)
N1O N 0.6458(5) 0.1563(5) 0.3403(3)
O1B O 0.6106(4) 0.3894(4) 0.2500
C5M C 0.5295(6) 0.1432(7) 0.1555(4)
C4M C 0.4641(6) 0.0886(6) 0.0961(4)
H4M H 0.3643(6) 0.0893(6) 0.0957(4)
H5M H 0.4780(6) 0.1871(7) 0.2021(4)
H2M H 0.8144(7) 0.0997(6) 0.1012(4)
H3M H 0.7140(8) -0.0200(7) -0.0054(4)
C4E C 0.5359(6) -0.0886(6) -0.0961(4)
C5E C 0.4705(6) -0.1432(7) -0.1555(4)
H5E H 0.5220(6) -0.1871(7) -0.2021(4)
H4E H 0.6357(6) -0.0893(6) -0.0957(4)
H3E H 0.2860(8) 0.0200(7) 0.0054(4)
H2E H 0.1856(7) -0.0997(6) -0.1012(4)
H1E H 0.957(6) 0.109(6) 0.272(3)
H1B H 0.609(6) 0.457(6) 0.228(3)
H1G H 0.543(6) 0.391(6) 0.272(3)
Si1 Si -0.7500 -0.7500 0.3007(2)
F1 F -0.7500 -0.7500 0.3975(4)
F2 F -0.8353(4) -0.6187(3) 0.2995(2)
F3 F -0.7500 -0.7500 0.2013(4)
F2A F -0.8813(3) -0.8353(4) 0.2995(2)
F2B F -0.6647(4) -0.8813(3) 0.2995(2)
F2C F -0.6187(3) -0.6647(4) 0.2995(2)
loop_
_geom_bond_atom_site_label_1
_geom_bond_atom_site_label_2
_geom_bond_site_symmetry_1
_geom_bond_site_symmetry_2
Zn1 O1 1_555 1_555
N1 C1 1_555 1_555
C1 C2 1_555 1_555
C2 C3 1_555 1_555
C3 C3H 1_555 1_555
C4 C5 1_555 1_555
C5 H5 1_555 1_555
O1 H1 1_555 1_555
H2 C1E 1_555 1_555
H3 C2E 1_555 1_555
H4 C4 1_555 1_555
Si1 F1 1_555 1_555
F2 Si1 1_555 1_555
F3 Si1 1_555 1_555
Zn1M N1 1_555 1_555
C3H C2H 1_555 1_555
C2H C1H 1_555 1_555
C1H N1H 1_555 1_555
N1H Zn1 1_555 1_555
N1J Zn1 1_555 1_555
N1M Zn1 1_555 1_555
C1M N1M 1_555 1_555
C2M C1M 1_555 1_555
C3M C2M 1_555 1_555
C3E C4 1_555 1_555
C2E C3E 1_555 1_555
C1E C2E 1_555 1_555
N1E C5 1_555 1_555
Zn1M_2 N1E 1_555 1_555
C4H C3M 1_555 1_555
C5H N1M 1_555 1_555
H5H C5H 1_555 1_555
H4H C4H 1_555 1_555
H3H C2M 1_555 1_555
H2H C1M 1_555 1_555
N1O Zn1 1_555 1_555
O1B Zn1 1_555 1_555
C5M N1H 1_555 1_555
C4M C3H 1_555 1_555
H4M C4M 1_555 1_555
H5M C5M 1_555 1_555
H2M C1H 1_555 1_555
H3M C2H 1_555 1_555
C4E C3 1_555 1_555
C5E N1 1_555 1_555
H5E C5E 1_555 1_555
H4E C4E 1_555 1_555
H3E C2 1_555 1_555
H2E C1 1_555 1_555
H1E O1 1_555 1_555
H1B O1B 1_555 1_555
H1G O1B 1_555 1_555
F2A Si1 1_555 1_555
F2B Si1 1_555 1_555
F2C Si1 1_555 1_555
C3M C3E 1_555 1_555
C1E N1E 1_555 1_555
C4H C5H 1_555 1_555
C5M C4M 1_555 1_555
C4E C5E 1_555 1_555

#END
