
#######################################################################
#
#                 Cambridge Crystallographic Data Centre
#                                CCDC 
#
#######################################################################
#
# If this CIF has been generated from an entry in the Cambridge 
# Structural Database, then it will include bibliographic, chemical, 
# crystal, experimental, refinement or atomic coordinate data resulting 
# from the CCDC's data processing and validation procedures.
#
#######################################################################

data_JIBFUV01
_symmetry_cell_setting           orthorhombic
_symmetry_space_group_name_H-M   'P 21 21 2'
_symmetry_Int_Tables_number      18
_space_group_name_Hall           'P 2 2ab'
loop_
_symmetry_equiv_pos_site_id
_symmetry_equiv_pos_as_xyz
1 x,y,z
2 -x,-y,z
3 1/2-x,1/2+y,-z
4 1/2+x,1/2-y,-z
_cell_length_a                   6.3015(4)
_cell_length_b                   6.8743(4)
_cell_length_c                   22.9972(14)
_cell_angle_alpha                90
_cell_angle_beta                 90
_cell_angle_gamma                90
_cell_volume                     996.202
loop_
_atom_site_label
_atom_site_type_symbol
_atom_site_fract_x
_atom_site_fract_y
_atom_site_fract_z
Cu1 Cu -0.75010(7) 0.00026(12) 0.249980(17)
O1 O -0.6753(4) 0.0228(7) 0.16917(7)
O2 O -0.6409(4) 0.0984(5) -0.13287(10)
O3 O -0.1776(4) 0.0231(7) 0.33087(7)
O4 O -0.1413(4) 0.0966(4) 0.63292(9)
O5 O -0.0558(4) 0.2183(4) 0.23064(9)
H1 H -0.075(5) 0.283(4) 0.2016(10)
H2 H 0.002(4) 0.132(4) 0.2487(10)
O6 O -0.5556(4) 0.2168(4) 0.26927(9)
H3 H -0.558(5) 0.298(4) 0.2403(10)
H4 H -0.582(5) 0.260(4) 0.3037(9)
C1 C -0.5000 0.0000 0.14482(15)
C2 C -0.5000 0.0000 0.07950(16)
C3 C -0.6807(5) 0.0644(6) 0.04717(12)
H5 H -0.8021 0.1039 0.0669
C4 C -0.6777(6) 0.0690(7) -0.01241(12)
H6 H -0.7932 0.1175 -0.0330
C5 C -0.5000 0.0000 -0.04166(16)
C6 C -0.5000 0.0000 -0.10754(18)
C7 C 0.0000 0.0000 0.35637(17)
C8 C 0.0000 0.0000 0.42139(17)
C9 C -0.1749(5) 0.0659(6) 0.44975(9)
H7 H -0.2930 0.1080 0.4290
C10 C -0.1754(5) 0.0696(6) 0.51064(11)
H8 H -0.2926 0.1185 0.5304
C11 C 0.0000 0.0000 0.54221(16)
C12 C 0.0000 0.0000 0.60728(17)
O1A O -0.3247(4) -0.0228(7) 0.16917(7)
C4A C -0.3223(6) -0.0690(7) -0.01241(12)
C3A C -0.3193(5) -0.0644(6) 0.04717(12)
H5A H -0.1979 -0.1039 0.0669
H6A H -0.2068 -0.1175 -0.0330
O2A O -0.3591(4) -0.0984(5) -0.13287(10)
O5_2 O -1.0558(4) 0.2183(4) 0.23064(9)
H1_2 H -1.075(5) 0.283(4) 0.2016(10)
H2_2 H -0.998(4) 0.132(4) 0.2487(10)
O6A O -0.4444(4) -0.2168(4) 0.26927(9)
H3A H -0.442(5) -0.298(4) 0.2403(10)
H4A H -0.418(5) -0.260(4) 0.3037(9)
Cu1A Cu -0.24990(7) -0.00026(12) 0.249980(17)
O3A O -0.8224(4) -0.0231(7) 0.33087(7)
O3A_2 O 0.1776(4) -0.0231(7) 0.33087(7)
C10A C 0.1754(5) -0.0696(6) 0.51064(11)
C9A C 0.1749(5) -0.0659(6) 0.44975(9)
H7A H 0.2930 -0.1080 0.4290
H8A H 0.2926 -0.1185 0.5304
O4A O 0.1413(4) -0.0966(4) 0.63292(9)
O5A O -0.9442(4) -0.2183(4) 0.23064(9)
H1A H -0.925(5) -0.283(4) 0.2016(10)
H2A H -1.002(4) -0.132(4) 0.2487(10)
O5A_2 O 0.0558(4) -0.2183(4) 0.23064(9)
H1A_2 H 0.075(5) -0.283(4) 0.2016(10)
H2A_2 H -0.002(4) -0.132(4) 0.2487(10)
Cu1_2 Cu 0.24990(7) 0.00026(12) 0.249980(17)
O1_2 O 0.3247(4) 0.0228(7) 0.16917(7)
O6_2 O 0.4444(4) 0.2168(4) 0.26927(9)
O6A_2 O 0.5556(4) -0.2168(4) 0.26927(9)
H3_2 H 0.442(5) 0.298(4) 0.2403(10)
H4_2 H 0.418(5) 0.260(4) 0.3037(9)
H3A_2 H 0.558(5) -0.298(4) 0.2403(10)
H4A_2 H 0.582(5) -0.260(4) 0.3037(9)
O7 O -0.5000 0.5000 0.18966(14)
H9 H -0.388(4) 0.498(6) 0.1710(12)
H9A H -0.612(4) 0.502(6) 0.1710(12)
O8 O -1.0000 0.5000 0.31054(13)
H10 H -0.906(4) 0.470(7) 0.3339(11)
H10A H -1.094(4) 0.530(7) 0.3339(11)
loop_
_geom_bond_atom_site_label_1
_geom_bond_atom_site_label_2
_geom_bond_site_symmetry_1
_geom_bond_site_symmetry_2
Cu1 O1 1_555 1_555
O1 C1 1_555 1_555
O2 C6 1_555 1_555
O3 C7 1_555 1_555
O4 C12 1_555 1_555
O5 H1 1_555 1_555
H2 O5 1_555 1_555
O6 Cu1 1_555 1_555
H3 O6 1_555 1_555
H4 O6 1_555 1_555
C1 C2 1_555 1_555
C2 C3 1_555 1_555
C3 H5 1_555 1_555
C4 C3 1_555 1_555
H6 C4 1_555 1_555
C5 C4 1_555 1_555
C6 C5 1_555 1_555
C7 C8 1_555 1_555
C8 C9 1_555 1_555
C9 H7 1_555 1_555
C10 C9 1_555 1_555
H8 C10 1_555 1_555
C11 C10 1_555 1_555
C12 C11 1_555 1_555
O7 H9 1_555 1_555
O8 H10 1_555 1_555
O1A C1 1_555 1_555
C4A C5 1_555 1_555
C3A C2 1_555 1_555
H5A C3A 1_555 1_555
H6A C4A 1_555 1_555
O2A C6 1_555 1_555
O5_2 Cu1 1_555 1_555
H1_2 O5_2 1_555 1_555
H2_2 O5_2 1_555 1_555
O6A Cu1 1_555 1_555
H3A O6A 1_555 1_555
H4A O6A 1_555 1_555
Cu1A O3 1_555 1_555
O3A Cu1 1_555 1_555
O3A_2 C7 1_555 1_555
C10A C11 1_555 1_555
C9A C8 1_555 1_555
H7A C9A 1_555 1_555
H8A C10A 1_555 1_555
O4A C12 1_555 1_555
O5A Cu1 1_555 1_555
H1A O5A 1_555 1_555
H2A O5A 1_555 1_555
O5A_2 Cu1A 1_555 1_555
H1A_2 O5A_2 1_555 1_555
H2A_2 O5A_2 1_555 1_555
Cu1_2 O5 1_555 1_555
O1_2 Cu1_2 1_555 1_555
O6_2 Cu1_2 1_555 1_555
O6A_2 Cu1_2 1_555 1_555
H3_2 O6_2 1_555 1_555
H4_2 O6_2 1_555 1_555
H3A_2 O6A_2 1_555 1_555
H4A_2 O6A_2 1_555 1_555
H9A O7 1_555 1_555
H10A O8 1_555 1_555
O5 Cu1A 1_555 1_555
O6 Cu1A 1_555 1_555
O1A Cu1A 1_555 1_555
C4A C3A 1_555 1_555
O6A Cu1A 1_555 1_555
O3A_2 Cu1_2 1_555 1_555
C10A C9A 1_555 1_555
O5A_2 Cu1_2 1_555 1_555

#END
