
#######################################################################
#
#                 Cambridge Crystallographic Data Centre
#                                CCDC 
#
#######################################################################
#
# If this CIF has been generated from an entry in the Cambridge 
# Structural Database, then it will include bibliographic, chemical, 
# crystal, experimental, refinement or atomic coordinate data resulting 
# from the CCDC's data processing and validation procedures.
#
#######################################################################

data_JIBFUV
_symmetry_cell_setting           orthorhombic
_symmetry_space_group_name_H-M   'P b c n'
_symmetry_Int_Tables_number      60
_space_group_name_Hall           '-P 2n 2ab'
loop_
_symmetry_equiv_pos_site_id
_symmetry_equiv_pos_as_xyz
1 x,y,z
2 1/2-x,1/2-y,1/2+z
3 1/2+x,1/2-y,-z
4 -x,y,1/2-z
5 -x,-y,-z
6 1/2+x,1/2+y,1/2-z
7 1/2-x,1/2+y,z
8 x,-y,1/2+z
_cell_length_a                   6.869(3)
_cell_length_b                   22.985(11)
_cell_length_c                   6.298(3)
_cell_angle_alpha                90
_cell_angle_beta                 90
_cell_angle_gamma                90
_cell_volume                     994.353
loop_
_atom_site_label
_atom_site_type_symbol
_atom_site_fract_x
_atom_site_fract_y
_atom_site_fract_z
Cu1 Cu 0.5000 0.5000 0.5000
O1 O 0.5224(2) 0.5810(1) 0.4268(3)
C1 C 0.5000 0.6054(1) 0.2500
C2 C 0.5000 0.6711(1) 0.2500
C3 C 0.4349(3) 0.7015(1) 0.0707(3)
C4 C 0.4300(3) 0.7615(1) 0.0737(3)
C5 C 0.5000 0.7915(1) 0.2500
C6 C 0.5000 0.8579(1) 0.2500
O2 O 0.4021(3) 0.8828(1) 0.1088(3)
O3 O 0.7177(3) 0.4808(1) 0.3060(3)
H1 H 0.381(3) 0.685(1) -0.045(4)
H2 H 0.380(4) 0.778(1) -0.044(5)
H3 H 0.781(9) 0.505(2) 0.267(5)
H4 H 0.772(4) 0.450(2) 0.332(5)
Cu1C Cu 0.5000 0.5000 0.0000
O1C O 0.4776(2) 0.5810(1) 0.0732(3)
Cu1C_2 Cu 0.5000 0.5000 1.0000
O1C_2 O 0.4776(2) 0.5810(1) 1.0732(3)
O1G O 0.5224(2) 0.4190(1) 0.9268(3)
C1G C 0.5000 0.3946(1) 0.7500
O1D O 0.4776(2) 0.4190(1) 0.5732(3)
O1G_2 O 0.5224(2) 0.4190(1) -0.0732(3)
O3C O 0.2823(3) 0.4808(1) 0.1940(3)
O3D O 0.2823(3) 0.5192(1) 0.6940(3)
O3C_2 O 0.2823(3) 0.4808(1) 1.1940(3)
O3_2 O 0.7177(3) 0.4808(1) 1.3060(3)
O3G O 0.7177(3) 0.5192(1) 0.8060(3)
H3G H 0.781(9) 0.495(2) 0.767(5)
H4G H 0.772(4) 0.550(2) 0.832(5)
H3D H 0.219(9) 0.495(2) 0.733(5)
H4D H 0.228(4) 0.550(2) 0.668(5)
H3C H 0.219(9) 0.505(2) 0.233(5)
H4C H 0.228(4) 0.450(2) 0.168(5)
O3G_2 O 0.7177(3) 0.5192(1) -0.1940(3)
O3D_2 O 0.2823(3) 0.5192(1) -0.3060(3)
C2G C 0.5000 0.3289(1) 0.7500
C3G C 0.4349(3) 0.2985(1) 0.5707(3)
C4G C 0.4300(3) 0.2385(1) 0.5737(3)
C5G C 0.5000 0.2085(1) 0.7500
C4D C 0.5700(3) 0.2385(1) 0.9263(3)
C3D C 0.5651(3) 0.2985(1) 0.9293(3)
H1D H 0.619(3) 0.315(1) 1.045(4)
H2D H 0.620(4) 0.222(1) 1.044(5)
C6G C 0.5000 0.1421(1) 0.7500
O2G O 0.4021(3) 0.1172(1) 0.6088(3)
O2D O 0.5979(3) 0.1172(1) 0.8912(3)
H2G H 0.380(4) 0.222(1) 0.456(5)
H1G H 0.381(3) 0.315(1) 0.455(4)
C4C C 0.5700(3) 0.7615(1) 0.4263(3)
C3C C 0.5651(3) 0.7015(1) 0.4293(3)
H1C H 0.619(3) 0.685(1) 0.545(4)
H2C H 0.620(4) 0.778(1) 0.544(5)
O2C O 0.5979(3) 0.8828(1) 0.3912(3)
H3D_2 H 0.219(9) 0.495(2) -0.267(5)
H4D_2 H 0.228(4) 0.550(2) -0.332(5)
H3G_2 H 0.781(9) 0.495(2) -0.233(5)
H4G_2 H 0.772(4) 0.550(2) -0.168(5)
H3_2 H 0.781(9) 0.505(2) 1.267(5)
H4_2 H 0.772(4) 0.450(2) 1.332(5)
H3C_2 H 0.219(9) 0.505(2) 1.233(5)
H4C_2 H 0.228(4) 0.450(2) 1.168(5)
O4 O 0.5000 0.9397(1) 0.7500
H5 H 0.513(3) 0.926(2) 0.642(5)
H5C H 0.487(3) 0.926(2) 0.858(5)
loop_
_geom_bond_atom_site_label_1
_geom_bond_atom_site_label_2
_geom_bond_site_symmetry_1
_geom_bond_site_symmetry_2
Cu1 O1 1_555 1_555
O1 C1 1_555 1_555
C1 C2 1_555 1_555
C2 C3 1_555 1_555
C3 C4 1_555 1_555
C4 C5 1_555 1_555
C5 C6 1_555 1_555
C6 O2 1_555 1_555
O3 Cu1 1_555 1_555
H1 C3 1_555 1_555
H2 C4 1_555 1_555
H3 O3 1_555 1_555
H4 O3 1_555 1_555
O4 H5 1_555 1_555
Cu1C O3 1_555 1_555
O1C C1 1_555 1_555
Cu1C_2 O1C_2 1_555 1_555
O1G Cu1C_2 1_555 1_555
C1G O1G 1_555 1_555
O1D Cu1 1_555 1_555
O1G_2 Cu1C 1_555 1_555
O3C Cu1 1_555 1_555
O3D Cu1 1_555 1_555
O3C_2 Cu1C_2 1_555 1_555
O3_2 Cu1C_2 1_555 1_555
O3G Cu1 1_555 1_555
H3G O3G 1_555 1_555
H4G O3G 1_555 1_555
H3D O3D 1_555 1_555
H4D O3D 1_555 1_555
H3C O3C 1_555 1_555
H4C O3C 1_555 1_555
O3G_2 Cu1C 1_555 1_555
O3D_2 Cu1C 1_555 1_555
C2G C1G 1_555 1_555
C3G C2G 1_555 1_555
C4G C3G 1_555 1_555
C5G C4G 1_555 1_555
C4D C5G 1_555 1_555
C3D C2G 1_555 1_555
H1D C3D 1_555 1_555
H2D C4D 1_555 1_555
C6G C5G 1_555 1_555
O2G C6G 1_555 1_555
O2D C6G 1_555 1_555
H2G C4G 1_555 1_555
H1G C3G 1_555 1_555
C4C C5 1_555 1_555
C3C C2 1_555 1_555
H1C C3C 1_555 1_555
H2C C4C 1_555 1_555
O2C C6 1_555 1_555
H3D_2 O3D_2 1_555 1_555
H4D_2 O3D_2 1_555 1_555
H3G_2 O3G_2 1_555 1_555
H4G_2 O3G_2 1_555 1_555
H3_2 O3_2 1_555 1_555
H4_2 O3_2 1_555 1_555
H3C_2 O3C_2 1_555 1_555
H4C_2 O3C_2 1_555 1_555
H5C O4 1_555 1_555
Cu1C O1C 1_555 1_555
Cu1C O3C 1_555 1_555
Cu1C_2 O3D 1_555 1_555
Cu1C_2 O3G 1_555 1_555
C1G O1D 1_555 1_555
C4D C3D 1_555 1_555
C4C C3C 1_555 1_555

#END
