
#######################################################################
#
#                 Cambridge Crystallographic Data Centre
#                                CCDC 
#
#######################################################################
#
# If this CIF has been generated from an entry in the Cambridge 
# Structural Database, then it will include bibliographic, chemical, 
# crystal, experimental, refinement or atomic coordinate data resulting 
# from the CCDC's data processing and validation procedures.
#
#######################################################################

data_JIBFUV02
_symmetry_cell_setting           orthorhombic
_symmetry_space_group_name_H-M   'P b c n'
_symmetry_Int_Tables_number      60
_space_group_name_Hall           '-P 2n 2ab'
loop_
_symmetry_equiv_pos_site_id
_symmetry_equiv_pos_as_xyz
1 x,y,z
2 1/2-x,1/2-y,1/2+z
3 1/2+x,1/2-y,-z
4 -x,y,1/2-z
5 -x,-y,-z
6 1/2+x,1/2+y,1/2-z
7 1/2-x,1/2+y,z
8 x,-y,1/2+z
_cell_length_a                   6.8740(3)
_cell_length_b                   22.9815(6)
_cell_length_c                   6.2999(3)
_cell_angle_alpha                90
_cell_angle_beta                 90
_cell_angle_gamma                90
_cell_volume                     995.226
loop_
_atom_site_label
_atom_site_type_symbol
_atom_site_fract_x
_atom_site_fract_y
_atom_site_fract_z
C1 C 0.5000 0.6701(2) 0.2500
C2 C 0.4422(11) 0.7005(2) 0.0685(4)
C3 C 0.4422(11) 0.7614(2) 0.0685(4)
C4 C 0.5000 0.7918(2) 0.2500
H1 H 0.4023(19) 0.6796(2) -0.0567(7)
H2 H 0.4023(19) 0.7823(2) -0.0567(7)
C5 C 0.5000 0.6066(4) 0.2500
O1 O 0.5276(16) 0.58049(18) 0.4277(9)
C6 C 0.5000 0.8591(4) 0.2500
O2 O 0.4035(14) 0.8838(2) 0.1023(13)
Cu1 Cu 0.5000 0.50000 0.5000
O3 O 0.7210(14) 0.4824(3) 0.3255(16)
H3 H 0.781 0.505 0.267
H4 H 0.772 0.45 0.332
C2C C 0.5578(11) 0.7005(2) 0.4315(4)
C3C C 0.5578(11) 0.7614(2) 0.4315(4)
O1C O 0.4724(16) 0.58049(18) 0.0723(9)
O2C O 0.5965(14) 0.8838(2) 0.3977(13)
Cu1C Cu 0.5000 0.50000 0.0000
Cu1C_2 Cu 0.5000 0.50000 1.0000
O3C O 0.2790(14) 0.4824(3) 0.1745(16)
O3D O 0.2790(14) 0.5176(3) 0.6745(16)
O3G O 0.7210(14) 0.5176(3) 0.8255(16)
O1D O 0.4724(16) 0.41951(18) 0.5723(9)
H1C H 0.5977(19) 0.6796(2) 0.5567(7)
H2C H 0.5977(19) 0.7823(2) 0.5567(7)
H3C H 0.219 0.505 0.233
H4C H 0.228 0.45 0.168
H3D H 0.219 0.495 0.733
H4D H 0.228 0.55 0.668
H3G H 0.781 0.495 0.767
H4G H 0.772 0.55 0.832
O4 O 0.5000 0.9353(3) 0.7500
H5 H 0.513 0.926 0.642
H5C H 0.487 0.926 0.858
loop_
_geom_bond_atom_site_label_1
_geom_bond_atom_site_label_2
_geom_bond_site_symmetry_1
_geom_bond_site_symmetry_2
C1 C2 1_555 1_555
C2 C3 1_555 1_555
C3 C4 1_555 1_555
C4 C6 1_555 1_555
H1 C2 1_555 1_555
H2 C3 1_555 1_555
C5 C1 1_555 1_555
O1 C5 1_555 1_555
C6 O2 1_555 1_555
Cu1 O1 1_555 1_555
O3 Cu1 1_555 1_555
H3 O3 1_555 1_555
H4 O3 1_555 1_555
O4 H5 1_555 1_555
C2C C1 1_555 1_555
C3C C4 1_555 1_555
O1C C5 1_555 1_555
O2C C6 1_555 1_555
Cu1C O3 1_555 1_555
Cu1C_2 O3D 1_555 1_555
O3C Cu1 1_555 1_555
O3D Cu1 1_555 1_555
O3G Cu1 1_555 1_555
O1D Cu1 1_555 1_555
H1C C2C 1_555 1_555
H2C C3C 1_555 1_555
H3C O3C 1_555 1_555
H4C O3C 1_555 1_555
H3D O3D 1_555 1_555
H4D O3D 1_555 1_555
H3G O3G 1_555 1_555
H4G O3G 1_555 1_555
H5C O4 1_555 1_555
C2C C3C 1_555 1_555
O1C Cu1C 1_555 1_555
Cu1C O3C 1_555 1_555
Cu1C_2 O3G 1_555 1_555

#END
