
#######################################################################
#
#                 Cambridge Crystallographic Data Centre
#                                CCDC 
#
#######################################################################
#
# If this CIF has been generated from an entry in the Cambridge 
# Structural Database, then it will include bibliographic, chemical, 
# crystal, experimental, refinement or atomic coordinate data resulting 
# from the CCDC's data processing and validation procedures.
#
#######################################################################

data_JIBXIB
_symmetry_cell_setting           monoclinic
_symmetry_space_group_name_H-M   'P 21/c'
_symmetry_Int_Tables_number      14
_space_group_name_Hall           '-P 2ybc'
loop_
_symmetry_equiv_pos_site_id
_symmetry_equiv_pos_as_xyz
1 x,y,z
2 -x,1/2+y,1/2-z
3 -x,-y,-z
4 x,1/2-y,1/2+z
_cell_length_a                   10.020(5)
_cell_length_b                   19.421(10)
_cell_length_c                   14.615(6)
_cell_angle_alpha                90
_cell_angle_beta                 94.97(4)
_cell_angle_gamma                90
_cell_volume                     2833.36
loop_
_atom_site_label
_atom_site_type_symbol
_atom_site_fract_x
_atom_site_fract_y
_atom_site_fract_z
Hg1 Hg 0.0684(1) 0.6142(1) 0.4489(1)
Hg2 Hg -0.0244(1) 0.6290(1) 1.0374(1)
Th1 Th 0.0196(1) 0.6942(1) 0.7443(1)
O1 O -0.1372(10) 0.6959(6) 0.8498(8)
O2 O 0.1506(10) 0.6246(6) 0.6601(8)
O3 O 0.1536(10) 0.7682(6) 0.6651(8)
O4 O -0.0457(11) 0.6874(5) 0.2621(7)
N1 N -0.2101(11) 0.6334(7) 0.9725(8)
N2 N 0.2486(12) 0.6096(7) 0.5241(9)
N3 N 0.1612(11) 0.8753(7) 0.6035(9)
N4 N -0.1064(12) 0.6149(7) 0.3703(9)
C1 C -0.2295(15) 0.6644(9) 0.8930(12)
C2 C -0.3720(17) 0.6619(11) 0.8549(14)
C3 C -0.4328(15) 0.6085(10) 0.9166(14)
C4 C -0.3375(16) 0.6080(10) 1.0032(12)
C5 C 0.2557(16) 0.6190(7) 0.6135(13)
C6 C 0.3931(17) 0.6122(11) 0.6585(15)
C7 C 0.4743(17) 0.5911(13) 0.5765(12)
C8 C 0.3809(15) 0.6015(11) 0.4912(11)
C9 C 0.2141(15) 0.8229(10) 0.6512(11)
C10 C 0.3529(18) 0.8428(11) 0.6923(15)
C11 C 0.3709(16) 0.9164(10) 0.6624(14)
C12 C 0.2554(17) 0.9344(10) 0.6020(14)
C13 C -0.1333(15) 0.6506(8) 0.2988(11)
C14 C -0.2777(17) 0.6404(10) 0.2586(14)
C15 C -0.3371(18) 0.5998(13) 0.3299(15)
C16 C -0.2255(16) 0.5729(9) 0.3943(13)
N5 N 0.2469(13) 0.7245(7) 0.8969(11)
O5 O 0.1266(11) 0.7428(6) 0.9006(9)
O6 O 0.2746(13) 0.6987(7) 0.8208(10)
O7 O 0.3314(12) 0.7309(8) 0.9582(10)
N6 N -0.2003(14) 0.7104(7) 0.5840(10)
O8 O -0.0755(11) 0.7104(8) 0.5757(8)
O9 O -0.2310(12) 0.7106(7) 0.6644(9)
O10 O -0.2840(13) 0.7119(7) 0.5204(8)
N7 N -0.1247(14) 0.5358(9) 0.6616(11)
O11 O -0.1145(14) 0.5860(7) 0.7162(12)
O12 O -0.0743(15) 0.5344(8) 0.5894(11)
O13 O -0.1813(20) 0.4825(8) 0.6832(13)
N8 N 0.1104(19) 0.5443(10) 0.8607(11)
O14 O 0.0810(15) 0.6029(6) 0.8581(9)
O15 O 0.0698(19) 0.5080(9) 0.9215(14)
O16 O 0.1579(33) 0.5064(15) 0.8046(17)
H1 H -0.4141 0.7064 0.8592
H2 H -0.3796 0.6469 0.7921
H3 H -0.4368 0.5634 0.8882
H4 H -0.5210 0.6222 0.9299
H5 H -0.3277 0.5619 1.0278
H6 H -0.3689 0.6385 1.0485
H7 H 0.4244 0.6554 0.6852
H8 H 0.3977 0.5768 0.7048
H9 H 0.5014 0.5434 0.5819
H10 H 0.5518 0.6201 0.5748
H11 H 0.3829 0.5620 0.4514
H12 H 0.4050 0.6425 0.4591
H13 H 0.4192 0.8133 0.6692
H14 H 0.3586 0.8397 0.7579
H15 H 0.4502 0.9204 0.6307
H16 H 0.3780 0.9466 0.7148
H17 H 0.2145 0.9757 0.6235
H18 H 0.2803 0.9420 0.5410
H19 H -0.3224 0.6841 0.2490
H20 H -0.2811 0.6153 0.2018
H21 H -0.3875 0.5617 0.3023
H22 H -0.3949 0.6288 0.3623
H23 H -0.2112 0.5243 0.3845
H24 H -0.2435 0.5805 0.4568
N3C N 0.1612(11) 0.6247(7) 1.1035(9)
O4C O -0.0457(11) 0.8126(5) 0.7621(7)
Th1C Th 0.0196(1) 0.8058(1) 0.2443(1)
Hg2C Hg -0.0244(1) 0.8710(1) 0.5374(1)
loop_
_geom_bond_atom_site_label_1
_geom_bond_atom_site_label_2
_geom_bond_site_symmetry_1
_geom_bond_site_symmetry_2
Hg1 N2 1_555 1_555
Hg2 N1 1_555 1_555
Th1 O1 1_555 1_555
O1 C1 1_555 1_555
O2 Th1 1_555 1_555
O3 Th1 1_555 1_555
O4 C13 1_555 1_555
N1 C1 1_555 1_555
N2 C5 1_555 1_555
N3 C9 1_555 1_555
N4 Hg1 1_555 1_555
C1 C2 1_555 1_555
C2 C3 1_555 1_555
C3 C4 1_555 1_555
C4 N1 1_555 1_555
C5 O2 1_555 1_555
C6 C5 1_555 1_555
C7 C6 1_555 1_555
C8 N2 1_555 1_555
C9 O3 1_555 1_555
C10 C9 1_555 1_555
C11 C10 1_555 1_555
C12 N3 1_555 1_555
C13 N4 1_555 1_555
C14 C13 1_555 1_555
C15 C14 1_555 1_555
C16 N4 1_555 1_555
N5 O5 1_555 1_555
O5 Th1 1_555 1_555
O6 Th1 1_555 1_555
O7 N5 1_555 1_555
N6 O8 1_555 1_555
O8 Th1 1_555 1_555
O9 Th1 1_555 1_555
O10 N6 1_555 1_555
N7 O11 1_555 1_555
O11 Th1 1_555 1_555
O12 N7 1_555 1_555
O13 N7 1_555 1_555
N8 O14 1_555 1_555
O14 Th1 1_555 1_555
O15 N8 1_555 1_555
O16 N8 1_555 1_555
H1 C2 1_555 1_555
H2 C2 1_555 1_555
H3 C3 1_555 1_555
H4 C3 1_555 1_555
H5 C4 1_555 1_555
H6 C4 1_555 1_555
H7 C6 1_555 1_555
H8 C6 1_555 1_555
H9 C7 1_555 1_555
H10 C7 1_555 1_555
H11 C8 1_555 1_555
H12 C8 1_555 1_555
H13 C10 1_555 1_555
H14 C10 1_555 1_555
H15 C11 1_555 1_555
H16 C11 1_555 1_555
H17 C12 1_555 1_555
H18 C12 1_555 1_555
H19 C14 1_555 1_555
H20 C14 1_555 1_555
H21 C15 1_555 1_555
H22 C15 1_555 1_555
H23 C16 1_555 1_555
H24 C16 1_555 1_555
N3C Hg2 1_555 1_555
O4C Th1 1_555 1_555
Th1C O4 1_555 1_555
Hg2C N3 1_555 1_555
C7 C8 1_555 1_555
C11 C12 1_555 1_555
C15 C16 1_555 1_555
N5 O6 1_555 1_555
N6 O9 1_555 1_555

#END
