
#######################################################################
#
#                 Cambridge Crystallographic Data Centre
#                                CCDC 
#
#######################################################################
#
# If this CIF has been generated from an entry in the Cambridge 
# Structural Database, then it will include bibliographic, chemical, 
# crystal, experimental, refinement or atomic coordinate data resulting 
# from the CCDC's data processing and validation procedures.
#
#######################################################################

data_JICFEG
_symmetry_cell_setting           orthorhombic
_symmetry_space_group_name_H-M   'P n a 21'
_symmetry_Int_Tables_number      33
_space_group_name_Hall           'P 2c -2n'
loop_
_symmetry_equiv_pos_site_id
_symmetry_equiv_pos_as_xyz
1 x,y,z
2 1/2-x,1/2+y,1/2+z
3 1/2+x,1/2-y,z
4 -x,-y,1/2+z
_cell_length_a                   18.133(6)
_cell_length_b                   10.285(3)
_cell_length_c                   12.212(4)
_cell_angle_alpha                90
_cell_angle_beta                 90
_cell_angle_gamma                90
_cell_volume                     2277.51
loop_
_atom_site_label
_atom_site_type_symbol
_atom_site_fract_x
_atom_site_fract_y
_atom_site_fract_z
Ni1 Ni 0.4782(1) 0.0256(1) 0.0000
N1 N 0.5585(2) 0.1690(5) -0.0171(5)
C1 C 0.6210(3) 0.0977(6) -0.0670(6)
C2 C 0.6347(3) -0.0248(5) -0.0027(8)
N2 N 0.5658(2) -0.1003(4) 0.0038(5)
C3 C 0.5618(3) -0.1958(5) 0.0953(5)
C4 C 0.4908(3) -0.2807(6) 0.0816(6)
C5 C 0.4156(3) -0.2212(6) 0.1060(5)
N3 N 0.3973(3) -0.1162(5) 0.0240(4)
C6 C 0.3303(3) -0.0434(6) 0.0524(5)
C7 C 0.3234(3) 0.0772(7) -0.0181(6)
N4 N 0.3924(2) 0.1515(5) -0.0115(5)
C8 C 0.3957(3) 0.2727(6) -0.0275(5)
C9 C 0.4676(3) 0.3455(6) -0.0133(8)
C10 C 0.5355(3) 0.2895(6) -0.0735(6)
C11 C 0.6294(4) -0.2893(6) 0.0919(7)
C12 C 0.3577(4) -0.3257(7) 0.1076(8)
C13 C 0.3297(4) 0.3534(8) -0.0624(8)
C14 C 0.5969(4) 0.3911(7) -0.0769(7)
C15 C 0.5654(3) -0.1273(6) 0.2059(5)
N5 N 0.5294(2) -0.0226(5) 0.2357(4)
O1 O 0.4858(2) 0.0445(4) 0.1715(4)
O2 O 0.5370(2) 0.0271(5) 0.3335(4)
H1 H 0.571(2) 0.190(2) 0.055(2)
H2 H 0.666(2) 0.155(2) -0.066(2)
H3 H 0.609(2) 0.074(2) -0.150(2)
H4 H 0.651(2) 0.011(2) 0.079(2)
H5 H 0.682(2) -0.076(2) -0.035(2)
H6 H 0.564(2) -0.149(2) -0.062(2)
H7 H 0.489(2) -0.318(2) 0.001(2)
H8 H 0.498(2) -0.363(2) 0.132(2)
H9 H 0.420(2) -0.177(2) 0.181(2)
H10 H 0.393(2) -0.156(2) -0.045(2)
H11 H 0.333(2) -0.013(2) 0.134(2)
H12 H 0.287(2) -0.103(2) 0.044(2)
H13 H 0.280(2) 0.133(2) 0.010(2)
H14 H 0.320(2) 0.046(2) -0.102(2)
H15 H 0.458(2) 0.442(2) -0.041(2)
H16 H 0.478(2) 0.355(2) 0.070(2)
H17 H 0.518(2) 0.268(2) -0.152(2)
H18 H 0.621(2) -0.360(2) 0.156(2)
H19 H 0.679(2) -0.238(2) 0.096(2)
H20 H 0.636(2) -0.342(2) 0.017(2)
H21 H 0.310(2) -0.287(2) 0.130(2)
H22 H 0.353(2) -0.376(2) 0.032(2)
H23 H 0.370(2) -0.399(2) 0.167(2)
H24 H 0.343(2) 0.460(2) -0.071(2)
H25 H 0.303(2) 0.325(2) -0.133(2)
H26 H 0.290(2) 0.355(2) 0.001(2)
H27 H 0.580(2) 0.476(2) -0.115(2)
H28 H 0.642(2) 0.356(2) -0.117(2)
H29 H 0.607(2) 0.419(2) 0.003(2)
H30 H 0.595(2) -0.170(2) 0.269(2)
O2C O 0.4630(2) -0.0271(5) -0.1665(4)
Ni1C Ni 0.5218(1) -0.0256(1) 0.5000
Cl1 Cl 0.2760(1) -0.2393(3) -0.2544(2)
O3 O 0.3273(5) -0.2501(13) -0.3288(9)
O4 O 0.3003(9) -0.2590(13) -0.1513(8)
O5 O 0.2144(6) -0.3069(22) -0.2734(4)
O6 O 0.2570(14) -0.1002(23) -0.2538(9)
O12 O 0.4516(4) 0.4457(7) -0.2337(7)
O7? O 0.2332(14) -0.2565(20) -0.1349(19)
O8? O 0.2213(17) -0.2096(22) -0.3228(21)
O9? O 0.3424(16) -0.1663(21) -0.2327(21)
O10? O 0.2768(17) -0.3922(22) -0.2899(22)
O11? O 0.4341(3) -0.2607(5) 0.2888(4)
H31? H 0.380(2) 0.288(2) 0.234(2)
H32? H 0.459(2) 0.190(2) 0.259(2)
H33? H 0.494(2) 0.607(2) -0.223(2)
H34? H 0.407(2) 0.604(2) -0.264(2)
loop_
_geom_bond_atom_site_label_1
_geom_bond_atom_site_label_2
_geom_bond_site_symmetry_1
_geom_bond_site_symmetry_2
Ni1 N1 1_555 1_555
N1 C1 1_555 1_555
C1 C2 1_555 1_555
C2 N2 1_555 1_555
N2 Ni1 1_555 1_555
C3 N2 1_555 1_555
C4 C3 1_555 1_555
C5 C4 1_555 1_555
N3 Ni1 1_555 1_555
C6 N3 1_555 1_555
C7 C6 1_555 1_555
N4 Ni1 1_555 1_555
C8 N4 1_555 1_555
C9 C8 1_555 1_555
C10 N1 1_555 1_555
C11 C3 1_555 1_555
C12 C5 1_555 1_555
C13 C8 1_555 1_555
C14 C10 1_555 1_555
C15 C3 1_555 1_555
N5 C15 1_555 1_555
O1 Ni1 1_555 1_555
O2 N5 1_555 1_555
Cl1 O3 1_555 1_555
O4 Cl1 1_555 1_555
O5 Cl1 1_555 1_555
O6 Cl1 1_555 1_555
H1 N1 1_555 1_555
H2 C1 1_555 1_555
H3 C1 1_555 1_555
H4 C2 1_555 1_555
H5 C2 1_555 1_555
H6 N2 1_555 1_555
H7 C4 1_555 1_555
H8 C4 1_555 1_555
H9 C5 1_555 1_555
H10 N3 1_555 1_555
H11 C6 1_555 1_555
H12 C6 1_555 1_555
H13 C7 1_555 1_555
H14 C7 1_555 1_555
H15 C9 1_555 1_555
H16 C9 1_555 1_555
H17 C10 1_555 1_555
H18 C11 1_555 1_555
H19 C11 1_555 1_555
H20 C11 1_555 1_555
H21 C12 1_555 1_555
H22 C12 1_555 1_555
H23 C12 1_555 1_555
H24 C13 1_555 1_555
H25 C13 1_555 1_555
H26 C13 1_555 1_555
H27 C14 1_555 1_555
H28 C14 1_555 1_555
H29 C14 1_555 1_555
H30 C15 1_555 1_555
O2C Ni1 1_555 1_555
Ni1C O2 1_555 1_555
C5 N3 1_555 1_555
C7 N4 1_555 1_555
C9 C10 1_555 1_555
N5 O1 1_555 1_555

#END
