
#######################################################################
#
#                 Cambridge Crystallographic Data Centre
#                                CCDC 
#
#######################################################################
#
# If this CIF has been generated from an entry in the Cambridge 
# Structural Database, then it will include bibliographic, chemical, 
# crystal, experimental, refinement or atomic coordinate data resulting 
# from the CCDC's data processing and validation procedures.
#
#######################################################################

data_JIDKEM
_symmetry_cell_setting           triclinic
_symmetry_space_group_name_H-M   'P -1'
_symmetry_Int_Tables_number      2
_space_group_name_Hall           '-P 1'
loop_
_symmetry_equiv_pos_site_id
_symmetry_equiv_pos_as_xyz
1 x,y,z
2 -x,-y,-z
_cell_length_a                   11.666(4)
_cell_length_b                   12.721(4)
_cell_length_c                   10.754(6)
_cell_angle_alpha                90.62(4)
_cell_angle_beta                 111.10(5)
_cell_angle_gamma                83.21(2)
_cell_volume                     1477.62
loop_
_atom_site_label
_atom_site_type_symbol
_atom_site_fract_x
_atom_site_fract_y
_atom_site_fract_z
Ru1 Ru 0.9522(1) 0.08166(9) 0.0119(1)
Ru2 Ru 0.9544(1) 0.42755(9) 0.0114(1)
Cl1 Cl 0.8520(3) 0.2647(3) 0.0490(4)
O2 O 0.9805(9) 0.1390(8) -0.1507(9)
O3 O 1.1176(8) 0.1239(8) 0.1291(9)
O4 O 0.8009(7) 0.5201(7) 0.0174(9)
O5 O 1.0389(9) 0.4331(8) 0.2136(9)
N1 N 0.9290(9) 0.0228(9) 0.175(1)
N2 N 0.789(1) 0.0406(9) -0.110(1)
N3 N 1.1031(9) 0.3360(8) 0.003(1)
N4 N 0.8674(9) 0.4249(8) -0.192(1)
C2 C 1.028(1) 0.077(1) -0.216(1)
C3 C 1.033(1) 0.114(1) -0.344(1)
C4 C 0.940(1) 0.195(1) -0.420(2)
C5 C 0.940(2) 0.225(2) -0.542(2)
C6 C 1.024(2) 0.184(1) -0.594(2)
C7 C 1.118(2) 0.107(2) -0.519(2)
C8 C 1.121(1) 0.070(1) -0.390(1)
C9 C 1.217(1) 0.051(1) 0.161(1)
C10 C 1.336(1) 0.086(1) 0.255(1)
C11 C 1.447(1) 0.014(2) 0.292(2)
C12 C 1.552(2) 0.059(3) 0.374(2)
C13 C 1.557(2) 0.155(3) 0.431(2)
C14 C 1.445(2) 0.221(2) 0.397(2)
C15 C 1.330(2) 0.190(2) 0.309(2)
C16 C 0.801(1) 0.623(1) 0.008(1)
C17 C 0.688(1) 0.690(1) 0.005(1)
C18 C 0.695(1) 0.793(1) 0.055(2)
C19 C 0.581(1) 0.857(2) 0.044(2)
C20 C 0.468(1) 0.816(1) -0.016(2)
C21 C 0.461(2) 0.714(2) -0.065(2)
C22 C 0.570(1) 0.649(1) -0.052(2)
C23 C 1.114(1) 0.503(1) 0.267(1)
C24 C 1.179(1) 0.502(1) 0.415(1)
C25 C 1.136(2) 0.440(2) 0.491(2)
C26 C 1.193(2) 0.448(2) 0.633(2)
C27 C 1.287(2) 0.504(2) 0.690(2)
C28 C 1.329(2) 0.562(2) 0.612(2)
C29 C 1.272(2) 0.562(1) 0.468(2)
Ru1A Ru 1.0478(1) -0.08166(9) -0.0119(1)
Ru2A Ru 1.0456(1) 0.57245(9) -0.0114(1)
C2A C 0.972(1) -0.077(1) 0.216(1)
C9A C 0.783(1) -0.051(1) -0.161(1)
C16A C 1.199(1) 0.377(1) -0.008(1)
C23A C 0.886(1) 0.497(1) -0.267(1)
N1A N 1.0710(9) -0.0228(9) -0.175(1)
N2A N 1.211(1) -0.0406(9) 0.110(1)
N3A N 0.8969(9) 0.6640(8) -0.003(1)
N4A N 1.1326(9) 0.5751(8) 0.192(1)
Cl1A Cl 1.1480(3) -0.2647(3) -0.0490(4)
O2A O 1.0195(9) -0.1390(8) 0.1507(9)
O3A O 0.8824(8) -0.1239(8) -0.1291(9)
Cl1A_2 Cl 1.1480(3) 0.7353(3) -0.0490(4)
O4A O 1.1991(7) 0.4799(7) -0.0174(9)
O5A O 0.9611(9) 0.5669(8) -0.2136(9)
C3A C 0.967(1) -0.114(1) 0.344(1)
C10A C 0.664(1) -0.086(1) -0.255(1)
C17A C 1.312(1) 0.310(1) -0.005(1)
C24A C 0.821(1) 0.498(1) -0.415(1)
Ru2A_2 Ru 1.0456(1) -0.42755(9) -0.0114(1)
C4A C 1.060(1) -0.195(1) 0.420(2)
C8A C 0.879(1) -0.070(1) 0.390(1)
C11A C 0.553(1) -0.014(2) -0.292(2)
C15A C 0.670(2) -0.190(2) -0.309(2)
C18A C 1.305(1) 0.207(1) -0.055(2)
C22A C 1.430(1) 0.351(1) 0.052(2)
C25A C 0.864(2) 0.560(2) -0.491(2)
C29A C 0.728(2) 0.438(1) -0.468(2)
C5A C 1.060(2) -0.225(2) 0.542(2)
C7A C 0.882(2) -0.107(2) 0.519(2)
C12A C 0.448(2) -0.059(3) -0.374(2)
C14A C 0.555(2) -0.221(2) -0.397(2)
C19A C 1.419(1) 0.143(2) -0.044(2)
C21A C 1.539(2) 0.286(2) 0.065(2)
C26A C 0.807(2) 0.552(2) -0.633(2)
C28A C 0.671(2) 0.438(2) -0.612(2)
C6A C 0.976(2) -0.184(1) 0.594(2)
C13A C 0.443(2) -0.155(3) -0.431(2)
C20A C 1.532(1) 0.184(1) 0.016(2)
C27A C 0.713(2) 0.496(2) -0.690(2)
O1 O 0.658(2) 0.262(1) -0.251(2)
C1 C 0.558(2) 0.331(3) -0.254(3)
loop_
_geom_bond_atom_site_label_1
_geom_bond_atom_site_label_2
_geom_bond_site_symmetry_1
_geom_bond_site_symmetry_2
Ru1 Cl1 1_555 1_555
Ru2 Cl1 1_555 1_555
O1 C1 1_555 1_555
O2 Ru1 1_555 1_555
O3 Ru1 1_555 1_555
O4 Ru2 1_555 1_555
O5 Ru2 1_555 1_555
N1 Ru1 1_555 1_555
N2 Ru1 1_555 1_555
N3 Ru2 1_555 1_555
N4 Ru2 1_555 1_555
C2 O2 1_555 1_555
C3 C2 1_555 1_555
C4 C3 1_555 1_555
C5 C4 1_555 1_555
C6 C5 1_555 1_555
C7 C6 1_555 1_555
C8 C3 1_555 1_555
C9 O3 1_555 1_555
C10 C9 1_555 1_555
C11 C10 1_555 1_555
C12 C11 1_555 1_555
C13 C12 1_555 1_555
C14 C13 1_555 1_555
C15 C10 1_555 1_555
C16 O4 1_555 1_555
C17 C16 1_555 1_555
C18 C17 1_555 1_555
C19 C18 1_555 1_555
C20 C19 1_555 1_555
C21 C20 1_555 1_555
C22 C17 1_555 1_555
C23 O5 1_555 1_555
C24 C23 1_555 1_555
C25 C24 1_555 1_555
C26 C25 1_555 1_555
C27 C26 1_555 1_555
C28 C27 1_555 1_555
C29 C24 1_555 1_555
Ru1A Ru1 1_555 1_555
Ru2A Ru2 1_555 1_555
C2A N1 1_555 1_555
C9A N2 1_555 1_555
C16A N3 1_555 1_555
C23A N4 1_555 1_555
N1A C2 1_555 1_555
N2A C9 1_555 1_555
N3A C16 1_555 1_555
N4A C23 1_555 1_555
Cl1A Ru1A 1_555 1_555
O2A Ru1A 1_555 1_555
O3A Ru1A 1_555 1_555
Cl1A_2 Ru2A 1_555 1_555
O4A Ru2A 1_555 1_555
O5A Ru2A 1_555 1_555
C3A C2A 1_555 1_555
C10A C9A 1_555 1_555
C17A C16A 1_555 1_555
C24A C23A 1_555 1_555
Ru2A_2 Cl1A 1_555 1_555
C4A C3A 1_555 1_555
C8A C3A 1_555 1_555
C11A C10A 1_555 1_555
C15A C10A 1_555 1_555
C18A C17A 1_555 1_555
C22A C17A 1_555 1_555
C25A C24A 1_555 1_555
C29A C24A 1_555 1_555
C5A C4A 1_555 1_555
C7A C8A 1_555 1_555
C12A C11A 1_555 1_555
C14A C15A 1_555 1_555
C19A C18A 1_555 1_555
C21A C22A 1_555 1_555
C26A C25A 1_555 1_555
C28A C29A 1_555 1_555
C6A C5A 1_555 1_555
C13A C12A 1_555 1_555
C20A C19A 1_555 1_555
C27A C26A 1_555 1_555
C7 C8 1_555 1_555
C14 C15 1_555 1_555
C21 C22 1_555 1_555
C28 C29 1_555 1_555
Ru1A N1A 1_555 1_555
Ru1A N2A 1_555 1_555
Ru2A N3A 1_555 1_555
Ru2A N4A 1_555 1_555
C2A O2A 1_555 1_555
C9A O3A 1_555 1_555
C16A O4A 1_555 1_555
C23A O5A 1_555 1_555
C7A C6A 1_555 1_555
C14A C13A 1_555 1_555
C21A C20A 1_555 1_555
C28A C27A 1_555 1_555

#END
