
#######################################################################
#
#                 Cambridge Crystallographic Data Centre
#                                CCDC 
#
#######################################################################
#
# If this CIF has been generated from an entry in the Cambridge 
# Structural Database, then it will include bibliographic, chemical, 
# crystal, experimental, refinement or atomic coordinate data resulting 
# from the CCDC's data processing and validation procedures.
#
#######################################################################

data_JIDMEO
_symmetry_cell_setting           monoclinic
_symmetry_space_group_name_H-M   'P 21/c'
_symmetry_Int_Tables_number      14
_space_group_name_Hall           '-P 2ybc'
loop_
_symmetry_equiv_pos_site_id
_symmetry_equiv_pos_as_xyz
1 x,y,z
2 -x,1/2+y,1/2-z
3 -x,-y,-z
4 x,1/2-y,1/2+z
_cell_length_a                   12.387(3)
_cell_length_b                   7.523(2)
_cell_length_c                   18.585(3)
_cell_angle_alpha                90
_cell_angle_beta                 96.09(2)
_cell_angle_gamma                90
_cell_volume                     1722.11
loop_
_atom_site_label
_atom_site_type_symbol
_atom_site_fract_x
_atom_site_fract_y
_atom_site_fract_z
Cd1 Cd 0.42760(2) 0.48219(3) 0.81446(1)
Cl1 Cl 0.42646(7) 0.1771(1) 0.74697(5)
Cl2 Cl 0.56036(8) 0.3758(1) 0.91581(5)
S1 S 0.19803(8) 0.3942(1) 0.83817(5)
P1 P 0.18257(7) 0.6468(1) 0.82184(5)
N1 N 0.2028(2) 0.7147(4) 0.7394(1)
N2 N 0.3095(2) 0.6494(4) 0.7229(2)
N3 N 0.2610(2) 0.7578(4) 0.8826(2)
N4 N 0.3721(2) 0.6916(4) 0.8997(2)
O1 O 0.0672(2) 0.7350(3) 0.8234(1)
C1 C -0.0079(3) 0.6973(5) 0.8723(2)
C2 C 0.0162(3) 0.7321(6) 0.9454(2)
C3 C -0.0642(4) 0.7026(7) 0.9917(3)
C4 C -0.1648(4) 0.6434(6) 0.9638(3)
C5 C -0.1857(3) 0.6139(6) 0.8921(3)
C6 C -0.1078(3) 0.6384(5) 0.8452(2)
C7 C 0.1201(3) 0.6669(6) 0.6775(2)
C8 C 0.1867(3) 0.6206(6) 0.6168(2)
C9 C 0.2874(3) 0.5403(6) 0.6572(2)
C10 C 0.2608(4) 0.9559(5) 0.8868(2)
C11 C 0.3652(4) 0.9947(6) 0.9336(2)
C12 C 0.4395(3) 0.8557(6) 0.9087(2)
H1 H 0.345(3) 0.729(4) 0.710(2)
H2 H 0.369(3) 0.649(6) 0.947(2)
H3 H 0.092(3) 0.765(5) 0.956(2)
H4 H -0.047(4) 0.710(6) 1.033(2)
H5 H -0.220(3) 0.643(4) 1.004(2)
H6 H -0.244(3) 0.572(5) 0.875(2)
H7 H -0.116(3) 0.612(5) 0.796(2)
H8 H 0.070(3) 0.576(5) 0.694(2)
H9 H 0.075(3) 0.761(5) 0.666(2)
H10 H 0.148(3) 0.536(5) 0.581(2)
H11 H 0.204(3) 0.721(5) 0.598(2)
H12 H 0.273(3) 0.431(5) 0.670(2)
H13 H 0.354(3) 0.555(4) 0.625(2)
H14 H 0.270(3) 1.004(5) 0.833(2)
H15 H 0.191(3) 0.978(5) 0.910(2)
H16 H 0.397(4) 1.111(6) 0.912(2)
H17 H 0.361(4) 0.972(7) 0.978(2)
H18 H 0.456(3) 0.892(5) 0.851(2)
H19 H 0.506(3) 0.823(4) 0.937(2)
Cd1A Cd 0.57240(2) -0.01781(3) 0.68554(1)
Cl1A Cl 0.57354(7) 0.6771(1) 0.75303(5)
loop_
_geom_bond_atom_site_label_1
_geom_bond_atom_site_label_2
_geom_bond_site_symmetry_1
_geom_bond_site_symmetry_2
Cd1 Cl1 1_555 1_555
Cl1 Cd1A 1_555 1_555
Cl2 Cd1 1_555 1_555
S1 Cd1 1_555 1_555
P1 S1 1_555 1_555
N1 P1 1_555 1_555
N2 Cd1 1_555 1_555
N3 P1 1_555 1_555
N4 Cd1 1_555 1_555
O1 P1 1_555 1_555
C1 O1 1_555 1_555
C2 C1 1_555 1_555
C3 C2 1_555 1_555
C4 C3 1_555 1_555
C5 C4 1_555 1_555
C6 C1 1_555 1_555
C7 N1 1_555 1_555
C8 C7 1_555 1_555
C9 N2 1_555 1_555
C10 N3 1_555 1_555
C11 C10 1_555 1_555
C12 N4 1_555 1_555
H1 N2 1_555 1_555
H2 N4 1_555 1_555
H3 C2 1_555 1_555
H4 C3 1_555 1_555
H5 C4 1_555 1_555
H6 C5 1_555 1_555
H7 C6 1_555 1_555
H8 C7 1_555 1_555
H9 C7 1_555 1_555
H10 C8 1_555 1_555
H11 C8 1_555 1_555
H12 C9 1_555 1_555
H13 C9 1_555 1_555
H14 C10 1_555 1_555
H15 C10 1_555 1_555
H16 C11 1_555 1_555
H17 C11 1_555 1_555
H18 C12 1_555 1_555
H19 C12 1_555 1_555
Cl1A Cd1 1_555 1_555
N1 N2 1_555 1_555
N3 N4 1_555 1_555
C5 C6 1_555 1_555
C8 C9 1_555 1_555
C11 C12 1_555 1_555

#END
