
#######################################################################
#
#                 Cambridge Crystallographic Data Centre
#                                CCDC 
#
#######################################################################
#
# If this CIF has been generated from an entry in the Cambridge 
# Structural Database, then it will include bibliographic, chemical, 
# crystal, experimental, refinement or atomic coordinate data resulting 
# from the CCDC's data processing and validation procedures.
#
#######################################################################

data_JIFNOB
_symmetry_cell_setting           monoclinic
_symmetry_space_group_name_H-M   'P 21/c'
_symmetry_Int_Tables_number      14
_space_group_name_Hall           '-P 2ybc'
loop_
_symmetry_equiv_pos_site_id
_symmetry_equiv_pos_as_xyz
1 x,y,z
2 -x,1/2+y,1/2-z
3 -x,-y,-z
4 x,1/2-y,1/2+z
_cell_length_a                   9.578(1)
_cell_length_b                   15.339(2)
_cell_length_c                   7.674(1)
_cell_angle_alpha                90
_cell_angle_beta                 109.61(1)
_cell_angle_gamma                90
_cell_volume                     1062.05
loop_
_atom_site_label
_atom_site_type_symbol
_atom_site_fract_x
_atom_site_fract_y
_atom_site_fract_z
Hg1 Hg 0.0755(2) 0.1550(1) 0.0430(3)
I1 I 0.2270(3) 0.1838(2) -0.1897(3)
I2 I 0.0976(1) 0.0329(2) 0.2877(4)
N1 N -0.1522(31) 0.2214(19) -0.0839(37)
N2 N -0.3004(37) 0.3238(22) -0.1982(44)
C1 C -0.2798(45) 0.1788(25) -0.1956(55)
C2 C -0.3759(41) 0.2469(25) -0.2514(49)
C3 C -0.1663(43) 0.3048(27) -0.0965(49)
C4 C -0.3528(74) 0.4207(39) -0.2726(86)
C5 C -0.4727(63) 0.4318(35) -0.1972(76)
I1C I 0.2270(3) 0.3162(2) 0.3103(3)
Hg1C Hg 0.0755(2) 0.3450(1) -0.4570(3)
Hg1C_2 Hg 0.0755(2) 0.3450(1) 0.5430(3)
I1C_2 I 0.2270(3) 0.3162(2) -0.6897(3)
I2C I 0.0976(1) 0.4671(2) -0.2123(4)
N1C N -0.1522(31) 0.2786(19) -0.5839(37)
C1C C -0.2798(45) 0.3212(25) -0.6956(55)
C3C C -0.1663(43) 0.1952(27) -0.5965(49)
C2C C -0.3759(41) 0.2531(25) -0.7514(49)
N2C N -0.3004(37) 0.1762(22) -0.6982(44)
C4C C -0.3528(74) 0.0793(39) -0.7726(86)
C5C C -0.4727(63) 0.0682(35) -0.6972(76)
loop_
_geom_bond_atom_site_label_1
_geom_bond_atom_site_label_2
_geom_bond_site_symmetry_1
_geom_bond_site_symmetry_2
Hg1 I1 1_555 1_555
I1 Hg1C 1_555 1_555
I2 Hg1 1_555 1_555
N1 Hg1 1_555 1_555
N2 C2 1_555 1_555
C1 N1 1_555 1_555
C2 C1 1_555 1_555
C3 N1 1_555 1_555
C4 N2 1_555 1_555
C5 C4 1_555 1_555
I1C Hg1 1_555 1_555
Hg1C I1C_2 1_555 1_555
Hg1C_2 I1C 1_555 1_555
I2C Hg1C 1_555 1_555
N1C Hg1C 1_555 1_555
C1C N1C 1_555 1_555
C3C N1C 1_555 1_555
C2C C1C 1_555 1_555
N2C C3C 1_555 1_555
C4C N2C 1_555 1_555
C5C C4C 1_555 1_555
N2 C3 1_555 1_555
C2C N2C 1_555 1_555

#END
