
#######################################################################
#
#                 Cambridge Crystallographic Data Centre
#                                CCDC 
#
#######################################################################
#
# If this CIF has been generated from an entry in the Cambridge 
# Structural Database, then it will include bibliographic, chemical, 
# crystal, experimental, refinement or atomic coordinate data resulting 
# from the CCDC's data processing and validation procedures.
#
#######################################################################

data_JIFSIA02
_symmetry_cell_setting           orthorhombic
_symmetry_space_group_name_H-M   'P n a a'
_symmetry_Int_Tables_number      56
_space_group_name_Hall           '-P 2ac 2bc'
loop_
_symmetry_equiv_pos_site_id
_symmetry_equiv_pos_as_xyz
1 x,y,z
2 1/2-x,-y,1/2+z
3 x,1/2-y,1/2-z
4 1/2-x,1/2+y,-z
5 -x,-y,-z
6 1/2+x,y,1/2-z
7 -x,1/2+y,1/2+z
8 1/2+x,1/2-y,z
_cell_length_a                   21.049(7)
_cell_length_b                   16.792(8)
_cell_length_c                   7.9903(17)
_cell_angle_alpha                90
_cell_angle_beta                 90
_cell_angle_gamma                90
_cell_volume                     2824.21
loop_
_atom_site_label
_atom_site_type_symbol
_atom_site_fract_x
_atom_site_fract_y
_atom_site_fract_z
Ag1 Ag 0.050530(13) 0.113157(17) 0.92881(4)
Ag2 Ag 0.04962(2) 0.25000 1.25000
N1 N -0.04715(13) 0.15712(17) 0.9187(3)
C1 C -0.06171(16) 0.2311(2) 0.9675(4)
N2 N -0.01104(16) 0.2817(2) 1.0017(4)
C2 C -0.12458(18) 0.2564(3) 0.9844(6)
C3 C -0.1723(2) 0.2042(3) 0.9493(6)
C4 C -0.1581(2) 0.1280(3) 0.8973(6)
C5 C -0.0952(2) 0.1074(3) 0.8842(5)
N3 N 0.14368(14) 0.09578(17) 1.0477(4)
C6 C 0.15201(17) 0.1074(2) 1.2128(4)
N4 N 0.09685(17) 0.1237(2) 1.3056(5)
C7 C 0.2107(2) 0.1054(3) 1.2874(5)
C8 C 0.2630(2) 0.0909(3) 1.1897(6)
C9 C 0.2558(2) 0.0779(3) 1.0222(6)
C10 C 0.19604(19) 0.0816(2) 0.9560(5)
N5 N 0.1455(2) 0.25000 0.75000
O1 O 0.08569(17) 0.25000 0.75000
O2 O 0.1727(2) 0.2201(2) 0.6327(6)
N6 N 0.06080(16) -0.0108(2) 0.6482(4)
O3 O 0.08857(16) 0.05439(18) 0.6537(4)
O4 O 0.06846(17) -0.0550(2) 0.5261(4)
O5 O 0.02467(17) -0.0296(2) 0.7648(4)
H1 H 0.029(3) 0.278(4) 0.938(6)
H2 H -0.025(2) 0.332(3) 1.015(5)
H3 H -0.133(2) 0.309(3) 1.031(5)
H4 H -0.219(2) 0.222(2) 0.963(5)
H5 H -0.188(2) 0.088(3) 0.869(5)
H6 H -0.084(2) 0.057(3) 0.850(5)
H7 H 0.0612(19) 0.093(2) 1.278(5)
H8 H 0.105(2) 0.116(3) 1.420(6)
H9 H 0.214(2) 0.111(3) 1.407(6)
H10 H 0.2986(18) 0.089(3) 1.244(5)
H11 H 0.2903(18) 0.069(2) 0.951(5)
H12 H 0.1910(17) 0.075(2) 0.836(5)
Ag1B Ag 0.050530(13) 0.386843(17) 1.57119(4)
Ag1B_2 Ag 0.050530(13) 0.386843(17) 0.57119(4)
N1B N -0.04715(13) 0.34288(17) 1.5813(3)
C1B C -0.06171(16) 0.2689(2) 1.5325(4)
N2B N -0.01104(16) 0.2183(2) 1.4983(4)
C2B C -0.12458(18) 0.2436(3) 1.5156(6)
C3B C -0.1723(2) 0.2958(3) 1.5507(6)
C4B C -0.1581(2) 0.3720(3) 1.6027(6)
C5B C -0.0952(2) 0.3926(3) 1.6158(5)
N3B N 0.14368(14) 0.40422(17) 1.4523(4)
C6B C 0.15201(17) 0.3926(2) 1.2872(4)
N4B N 0.09685(17) 0.3763(2) 1.1944(5)
C7B C 0.2107(2) 0.3946(3) 1.2126(5)
C8B C 0.2630(2) 0.4091(3) 1.3103(6)
C9B C 0.2558(2) 0.4221(3) 1.4778(6)
C10B C 0.19604(19) 0.4184(2) 1.5440(5)
O1_2 O 0.08569(17) 0.25000 1.75000
O2B O 0.1727(2) 0.2799(2) 0.8673(6)
N6B N 0.06080(16) 0.5108(2) 1.8518(4)
O3B O 0.08857(16) 0.44561(18) 1.8463(4)
O4B O 0.06846(17) 0.5550(2) 1.9739(4)
O5B O 0.02467(17) 0.5296(2) 1.7352(4)
H1B H 0.029(3) 0.222(4) 1.562(6)
H2B H -0.025(2) 0.168(3) 1.485(5)
H3B H -0.133(2) 0.191(3) 1.469(5)
H4B H -0.219(2) 0.278(2) 1.537(5)
H5B H -0.188(2) 0.412(3) 1.631(5)
H6B H -0.084(2) 0.443(3) 1.650(5)
H7B H 0.0612(19) 0.407(2) 1.222(5)
H8B H 0.105(2) 0.384(3) 1.080(6)
H9B H 0.214(2) 0.389(3) 1.093(6)
H10B H 0.2986(18) 0.411(3) 1.256(5)
H11B H 0.2903(18) 0.431(2) 1.549(5)
H12B H 0.1910(17) 0.425(2) 1.664(5)
loop_
_geom_bond_atom_site_label_1
_geom_bond_atom_site_label_2
_geom_bond_site_symmetry_1
_geom_bond_site_symmetry_2
Ag1 N1 1_555 1_555
Ag2 N2 1_555 1_555
N1 C1 1_555 1_555
C1 N2 1_555 1_555
N2 H1 1_555 1_555
C2 C1 1_555 1_555
C3 C2 1_555 1_555
C4 C3 1_555 1_555
C5 N1 1_555 1_555
N3 Ag1 1_555 1_555
C6 N3 1_555 1_555
N4 Ag2 1_555 1_555
C7 C6 1_555 1_555
C8 C7 1_555 1_555
C9 C8 1_555 1_555
C10 N3 1_555 1_555
N5 O1 1_555 1_555
O1 Ag1 1_555 1_555
O2 N5 1_555 1_555
N6 O3 1_555 1_555
O3 Ag1 1_555 1_555
O4 N6 1_555 1_555
O5 Ag1 1_555 1_555
H2 N2 1_555 1_555
H3 C2 1_555 1_555
H4 C3 1_555 1_555
H5 C4 1_555 1_555
H6 C5 1_555 1_555
H7 N4 1_555 1_555
H8 N4 1_555 1_555
H9 C7 1_555 1_555
H10 C8 1_555 1_555
H11 C9 1_555 1_555
H12 C10 1_555 1_555
Ag1B N1B 1_555 1_555
Ag1B_2 O1 1_555 1_555
N1B C1B 1_555 1_555
C1B N2B 1_555 1_555
N2B Ag2 1_555 1_555
C2B C1B 1_555 1_555
C3B C2B 1_555 1_555
C4B C3B 1_555 1_555
C5B N1B 1_555 1_555
N3B Ag1B 1_555 1_555
C6B N3B 1_555 1_555
N4B Ag2 1_555 1_555
C7B C6B 1_555 1_555
C8B C7B 1_555 1_555
C9B C8B 1_555 1_555
C10B N3B 1_555 1_555
O1_2 Ag1B 1_555 1_555
O2B N5 1_555 1_555
N6B O3B 1_555 1_555
O3B Ag1B 1_555 1_555
O4B N6B 1_555 1_555
O5B Ag1B 1_555 1_555
H1B N2B 1_555 1_555
H2B N2B 1_555 1_555
H3B C2B 1_555 1_555
H4B C3B 1_555 1_555
H5B C4B 1_555 1_555
H6B C5B 1_555 1_555
H7B N4B 1_555 1_555
H8B N4B 1_555 1_555
H9B C7B 1_555 1_555
H10B C8B 1_555 1_555
H11B C9B 1_555 1_555
H12B C10B 1_555 1_555
C4 C5 1_555 1_555
C6 N4 1_555 1_555
C9 C10 1_555 1_555
N6 O5 1_555 1_555
C4B C5B 1_555 1_555
C6B N4B 1_555 1_555
C9B C10B 1_555 1_555
N6B O5B 1_555 1_555

#END
