
#######################################################################
#
#                 Cambridge Crystallographic Data Centre
#                                CCDC 
#
#######################################################################
#
# If this CIF has been generated from an entry in the Cambridge 
# Structural Database, then it will include bibliographic, chemical, 
# crystal, experimental, refinement or atomic coordinate data resulting 
# from the CCDC's data processing and validation procedures.
#
#######################################################################

data_JIFXIG
_symmetry_cell_setting           orthorhombic
_symmetry_space_group_name_H-M   'P 21 21 21'
_symmetry_Int_Tables_number      19
_space_group_name_Hall           'P 2ac 2ab'
loop_
_symmetry_equiv_pos_site_id
_symmetry_equiv_pos_as_xyz
1 x,y,z
2 1/2-x,-y,1/2+z
3 -x,1/2+y,1/2-z
4 1/2+x,1/2-y,-z
_cell_length_a                   7.9134(6)
_cell_length_b                   11.1318(8)
_cell_length_c                   18.3143(14)
_cell_angle_alpha                90
_cell_angle_beta                 90
_cell_angle_gamma                90
_cell_volume                     1613.31
loop_
_atom_site_label
_atom_site_type_symbol
_atom_site_fract_x
_atom_site_fract_y
_atom_site_fract_z
C1 C 0.0447(2) 0.40902(14) 0.99331(9)
C2 C 0.2329(2) 0.43719(14) 0.98349(9)
C3 C 0.2579(2) 0.57514(14) 0.98297(9)
C4 C 0.4458(2) 0.60474(14) 0.99138(9)
C5 C 0.3021(2) 0.32111(14) 0.72983(9)
C6 C 0.1897(2) 0.43365(13) 0.72583(9)
C7 C 0.2988(2) 0.54799(13) 0.72430(8)
C8 C 0.1907(2) 0.66220(13) 0.72219(9)
H1 H 0.3892(13) 0.378(2) 0.9180(13)
H2 H 0.0995(13) 0.639(2) 0.9158(12)
H3 H -0.0123(19) 0.458(2) 0.7728(12)
H4 H 0.4998(18) 0.528(2) 0.7752(12)
H5 H 0.286(3) 0.4019(19) 1.0233(11)
H6 H 0.210(3) 0.6124(19) 1.0240(12)
H7 H 0.128(3) 0.4312(17) 0.6842(11)
H8 H 0.368(3) 0.5456(19) 0.6835(11)
H9 H 0.109(2) 0.094(2) 0.9311(16)
H10 H 0.2636(14) 0.134(2) 0.9311(16)
H11 H 0.2205(19) 0.870(3) 0.9119(14)
H12 H 0.373(3) 0.911(3) 0.9133(16)
Mg1 Mg 0.10375(7) 0.28432(5) 0.85998(3)
Mg2 Mg 0.38333(7) 0.71283(5) 0.85172(3)
O1 O -0.03319(15) 0.36002(12) 0.94137(7)
O2 O -0.01823(17) 0.43805(12) 1.05312(7)
O3 O 0.28767(15) 0.38376(11) 0.91764(7)
O4 O 0.20026(15) 0.62743(12) 0.91737(7)
O5 O 0.51906(15) 0.65666(12) 0.93945(7)
O6 O 0.51163(17) 0.57457(12) 1.05047(7)
O7 O 0.27272(18) 0.24699(10) 0.78016(7)
O8 O 0.41379(17) 0.31122(11) 0.68275(7)
O9 O 0.07524(15) 0.43241(10) 0.78619(7)
O10 O 0.40870(15) 0.55495(10) 0.78639(7)
O11 O 0.08569(17) 0.67016(11) 0.67152(7)
O12 O 0.21507(19) 0.73969(11) 0.77028(7)
O13 O 0.17184(18) 0.14290(13) 0.92261(10)
O14 O 0.30695(17) 0.87402(12) 0.89247(8)
Mg1B Mg -0.10375(7) 0.78432(5) 0.64002(3)
Mg2B Mg 0.61667(7) 0.21283(5) 0.64828(3)
O8B O 0.58621(17) 0.81122(11) 0.81725(7)
O11B O -0.08569(17) 0.17016(11) 0.82848(7)
H13 H 0.638(6) 0.366(4) 0.8548(7)
H14 H 0.679(5) 0.336(4) 0.9214(17)
O15 O 0.6214(2) 0.3663(3) 0.89470(12)
H15 H 0.748(4) 0.4565(17) 0.7146(11)
H16 H 0.741(4) 0.5670(9) 0.7345(14)
O16 O 0.74463(16) 0.50064(10) 0.74613(10)
H17 H 0.802(5) 0.668(4) 0.924(2)
H18 H 0.847(6) 0.5667(16) 0.894(3)
O17 O 0.8649(2) 0.6317(2) 0.90219(15)
loop_
_geom_bond_atom_site_label_1
_geom_bond_atom_site_label_2
_geom_bond_site_symmetry_1
_geom_bond_site_symmetry_2
C1 C2 1_555 1_555
C2 C3 1_555 1_555
C3 C4 1_555 1_555
C4 O5 1_555 1_555
C5 C6 1_555 1_555
C6 C7 1_555 1_555
C7 C8 1_555 1_555
C8 O11 1_555 1_555
H1 O3 1_555 1_555
H2 O4 1_555 1_555
H3 O9 1_555 1_555
H4 O10 1_555 1_555
H5 C2 1_555 1_555
H6 C3 1_555 1_555
H7 C6 1_555 1_555
H8 C7 1_555 1_555
H9 O13 1_555 1_555
H10 O13 1_555 1_555
H11 O14 1_555 1_555
H12 O14 1_555 1_555
H13 O15 1_555 1_555
H14 O15 1_555 1_555
H15 O16 1_555 1_555
H16 O16 1_555 1_555
H17 O17 1_555 1_555
H18 O17 1_555 1_555
Mg1 O1 1_555 1_555
Mg2 O4 1_555 1_555
O1 C1 1_555 1_555
O2 C1 1_555 1_555
O3 C2 1_555 1_555
O4 C3 1_555 1_555
O5 Mg2 1_555 1_555
O6 C4 1_555 1_555
O7 C5 1_555 1_555
O8 C5 1_555 1_555
O9 C6 1_555 1_555
O10 C7 1_555 1_555
O11 Mg1B 1_555 1_555
O12 C8 1_555 1_555
O13 Mg1 1_555 1_555
O14 Mg2 1_555 1_555
Mg2B O8 1_555 1_555
O8B Mg2 1_555 1_555
O11B Mg1 1_555 1_555
Mg1 O3 1_555 1_555
Mg1 O7 1_555 1_555
Mg1 O9 1_555 1_555
Mg2 O10 1_555 1_555
Mg2 O12 1_555 1_555

#END
