
#######################################################################
#
#                 Cambridge Crystallographic Data Centre
#                                CCDC 
#
#######################################################################
#
# If this CIF has been generated from an entry in the Cambridge 
# Structural Database, then it will include bibliographic, chemical, 
# crystal, experimental, refinement or atomic coordinate data resulting 
# from the CCDC's data processing and validation procedures.
#
#######################################################################

data_JIHROH
_symmetry_cell_setting           orthorhombic
_symmetry_space_group_name_H-M   'P m n a'
_symmetry_Int_Tables_number      53
_space_group_name_Hall           '-P 2ac 2'
loop_
_symmetry_equiv_pos_site_id
_symmetry_equiv_pos_as_xyz
1 x,y,z
2 1/2-x,-y,1/2+z
3 x,-y,-z
4 1/2-x,y,1/2-z
5 -x,-y,-z
6 1/2+x,y,1/2-z
7 -x,y,z
8 1/2+x,-y,1/2+z
_cell_length_a                   7.466(2)
_cell_length_b                   5.3171(5)
_cell_length_c                   10.482(2)
_cell_angle_alpha                90
_cell_angle_beta                 90
_cell_angle_gamma                90
_cell_volume                     416.109
loop_
_atom_site_label
_atom_site_type_symbol
_atom_site_fract_x
_atom_site_fract_y
_atom_site_fract_z
Zn1 Zn 0.0000 0.0000 0.0000
N1 N 0.2103(2) -0.2205(3) 0.0772(2)
N2 N 0.5000 -0.7715(4) 0.3238(2)
C1 C 0.3399(2) -0.3108(3) 0.1147(2)
C2 C 0.5000 -0.6143(4) 0.2483(3)
C3 C 0.5000 -0.4180(5) 0.1577(3)
C1F C 0.6601(2) -0.3108(3) 0.1147(2)
N1F N 0.7897(2) -0.2205(3) 0.0772(2)
N1F_2 N -0.2103(2) -0.2205(3) 0.0772(2)
N2F N -0.5000 -0.7715(4) 0.3238(2)
C1F_2 C -0.3399(2) -0.3108(3) 0.1147(2)
C2F C -0.5000 -0.6143(4) 0.2483(3)
C3F C -0.5000 -0.4180(5) 0.1577(3)
C1_2 C -0.6601(2) -0.3108(3) 0.1147(2)
N1_2 N -0.7897(2) -0.2205(3) 0.0772(2)
N1D N -0.2103(2) 0.2205(3) -0.0772(2)
N1B N 0.2103(2) 0.2205(3) -0.0772(2)
N2G N 0.0000 -0.2285(4) -0.1762(2)
N2C N 0.0000 0.2285(4) 0.1762(2)
Zn1G Zn 0.5000 -1.0000 0.5000
Zn1_2 Zn 1.0000 0.0000 0.0000
Zn1G_2 Zn -0.5000 -1.0000 0.5000
Zn1_3 Zn -1.0000 0.0000 0.0000
loop_
_geom_bond_atom_site_label_1
_geom_bond_atom_site_label_2
_geom_bond_site_symmetry_1
_geom_bond_site_symmetry_2
Zn1 N1 1_555 1_555
N1 C1 1_555 1_555
N2 C2 1_555 1_555
C1 C3 1_555 1_555
C2 C3 1_555 1_555
C3 C1F 1_555 1_555
C1F N1F 1_555 1_555
N1F Zn1_2 1_555 1_555
N1F_2 Zn1 1_555 1_555
N2F C2F 1_555 1_555
C1F_2 N1F_2 1_555 1_555
C2F C3F 1_555 1_555
C3F C1F_2 1_555 1_555
C1_2 C3F 1_555 1_555
N1_2 C1_2 1_555 1_555
N1D Zn1 1_555 1_555
N1B Zn1 1_555 1_555
N2G Zn1 1_555 1_555
N2C Zn1 1_555 1_555
Zn1G N2 1_555 1_555
Zn1G_2 N2F 1_555 1_555
Zn1_3 N1_2 1_555 1_555

#END
