
#######################################################################
#
#                 Cambridge Crystallographic Data Centre
#                                CCDC 
#
#######################################################################
#
# If this CIF has been generated from an entry in the Cambridge 
# Structural Database, then it will include bibliographic, chemical, 
# crystal, experimental, refinement or atomic coordinate data resulting 
# from the CCDC's data processing and validation procedures.
#
#######################################################################

data_JIHROH01
_symmetry_cell_setting           orthorhombic
_symmetry_space_group_name_H-M   'P m n a'
_symmetry_Int_Tables_number      53
_space_group_name_Hall           '-P 2ac 2'
loop_
_symmetry_equiv_pos_site_id
_symmetry_equiv_pos_as_xyz
1 x,y,z
2 1/2-x,-y,1/2+z
3 x,-y,-z
4 1/2-x,y,1/2-z
5 -x,-y,-z
6 1/2+x,y,1/2-z
7 -x,y,z
8 1/2+x,-y,1/2+z
_cell_length_a                   7.466(2)
_cell_length_b                   5.3171(5)
_cell_length_c                   10.482(2)
_cell_angle_alpha                90
_cell_angle_beta                 90
_cell_angle_gamma                90
_cell_volume                     416.109
loop_
_atom_site_label
_atom_site_type_symbol
_atom_site_fract_x
_atom_site_fract_y
_atom_site_fract_z
Zn1 Zn 0.0000 0.0000 0.0000
C1 C 0.3403(4) -0.3110(5) 0.1149(2)
N1 N 0.2098(3) -0.2207(5) 0.0773(2)
C2 C 0.0000 -0.3853(7) -0.2515(4)
N2 N 0.0000 -0.2285(7) -0.1761(4)
C3 C 0.5000 -0.4174(8) 0.1575(4)
N1B N 0.2098(3) 0.2207(5) -0.0773(2)
N1D N -0.2098(3) 0.2207(5) -0.0773(2)
N1F N -0.2098(3) -0.2207(5) 0.0773(2)
N2B N 0.0000 0.2285(7) 0.1761(4)
C3A C 0.0000 -0.5826(8) -0.3425(4)
C1F C 0.6597(4) -0.3110(5) 0.1149(2)
C2A C 0.5000 -0.6147(7) 0.2485(4)
N1F_2 N 0.7902(3) -0.2207(5) 0.0773(2)
N2A N 0.5000 -0.7715(7) 0.3239(4)
C1A C 0.1597(4) -0.6890(5) -0.3851(2)
C1G C -0.1597(4) -0.6890(5) -0.3851(2)
Zn1_2 Zn 1.0000 0.0000 0.0000
Zn1A Zn 0.5000 -1.0000 0.5000
N1A N 0.2902(3) -0.7793(5) -0.4227(2)
N1G N -0.2902(3) -0.7793(5) -0.4227(2)
Zn1A_2 Zn -0.5000 -1.0000 -0.5000
Zn1A_3 Zn 0.5000 -1.0000 -0.5000
loop_
_geom_bond_atom_site_label_1
_geom_bond_atom_site_label_2
_geom_bond_site_symmetry_1
_geom_bond_site_symmetry_2
Zn1 N1 1_555 1_555
C1 N1 1_555 1_555
C2 N2 1_555 1_555
N2 Zn1 1_555 1_555
C3 C1 1_555 1_555
N1B Zn1 1_555 1_555
N1D Zn1 1_555 1_555
N1F Zn1 1_555 1_555
N2B Zn1 1_555 1_555
C3A C2 1_555 1_555
C1F C3 1_555 1_555
C2A C3 1_555 1_555
N1F_2 C1F 1_555 1_555
N2A C2A 1_555 1_555
C1A C3A 1_555 1_555
C1G C3A 1_555 1_555
Zn1_2 N1F_2 1_555 1_555
Zn1A N2A 1_555 1_555
N1A C1A 1_555 1_555
N1G C1G 1_555 1_555
Zn1A_2 N1G 1_555 1_555
Zn1A_3 N1A 1_555 1_555

#END
