
#######################################################################
#
#                 Cambridge Crystallographic Data Centre
#                                CCDC 
#
#######################################################################
#
# If this CIF has been generated from an entry in the Cambridge 
# Structural Database, then it will include bibliographic, chemical, 
# crystal, experimental, refinement or atomic coordinate data resulting 
# from the CCDC's data processing and validation procedures.
#
#######################################################################

data_JIKKOD
_symmetry_cell_setting           monoclinic
_symmetry_space_group_name_H-M   'I 2/a'
_symmetry_Int_Tables_number      15
_space_group_name_Hall           '-I 2ya'
loop_
_symmetry_equiv_pos_site_id
_symmetry_equiv_pos_as_xyz
1 x,y,z
2 1/2+x,1/2+y,1/2+z
3 1/2-x,y,-z
4 -x,1/2+y,1/2-z
5 -x,-y,-z
6 1/2-x,1/2-y,1/2-z
7 1/2+x,-y,z
8 x,1/2-y,1/2+z
_cell_length_a                   16.718(8)
_cell_length_b                   5.788(2)
_cell_length_c                   28.135(11)
_cell_angle_alpha                90
_cell_angle_beta                 91.61(3)
_cell_angle_gamma                90
_cell_volume                     2721.37
loop_
_atom_site_label
_atom_site_type_symbol
_atom_site_fract_x
_atom_site_fract_y
_atom_site_fract_z
Mn1 Mn 0.4237(1) 0.0558(1) 0.1274(1)
N1 N 0.2999(2) 0.1028(5) 0.1585(1)
C1 C 0.2717(2) -0.0051(8) 0.1964(2)
C2 C 0.1971(2) 0.0468(8) 0.2146(2)
C3 C 0.1516(2) 0.2146(7) 0.1940(1)
C4 C 0.1792(2) 0.3290(7) 0.1547(1)
C5 C 0.2536(2) 0.2664(5) 0.1379(1)
C6 C 0.2862(2) 0.3733(5) 0.0949(1)
N2 N 0.3563(2) 0.3205(4) 0.0823(1)
C7 C 0.3859(2) 0.4226(5) 0.0383(1)
C8 C 0.4351(2) 0.6366(5) 0.0494(1)
O1 O 0.3858(1) 0.8188(4) 0.0666(1)
N3 N 0.4420(2) 0.7402(5) 0.1662(1)
C9 C 0.4582(2) 0.5571(6) 0.1805(1)
S1 S 0.4838(1) 0.2995(1) 0.2013(1)
N4 N 0.5330(2) 0.0994(5) 0.0896(1)
C10 C 0.5930(2) 0.0877(5) 0.0699(1)
S2 S 0.6783(1) 0.0718(2) 0.0422(1)
H1 H 0.3038 -0.1227 0.2116
H2 H 0.1782 -0.0358 0.2417
H3 H 0.1005 0.2534 0.2066
H4 H 0.1480 0.4484 0.1395
H5 H 0.2547 0.4819 0.0766
H6 H 0.4186 0.3117 0.0225
H7 H 0.3412 0.4639 0.0179
H8 H 0.4603 0.6872 0.0210
H9 H 0.4753 0.5996 0.0732
H10 H 0.3271 0.8631 0.0519
O1_2 O 0.3858(1) -0.1812(4) 0.0666(1)
Mn1_2 Mn 0.4237(1) 1.0558(1) 0.1274(1)
H10_2 H 0.3271 -0.1369 0.0519
N3_2 N 0.4420(2) -0.2598(5) 0.1662(1)
loop_
_geom_bond_atom_site_label_1
_geom_bond_atom_site_label_2
_geom_bond_site_symmetry_1
_geom_bond_site_symmetry_2
Mn1 N1 1_555 1_555
N1 C1 1_555 1_555
C1 C2 1_555 1_555
C2 C3 1_555 1_555
C3 C4 1_555 1_555
C4 C5 1_555 1_555
C5 N1 1_555 1_555
C6 C5 1_555 1_555
N2 Mn1 1_555 1_555
C7 N2 1_555 1_555
C8 C7 1_555 1_555
O1 C8 1_555 1_555
N3 C9 1_555 1_555
C9 S1 1_555 1_555
S1 Mn1 1_555 1_555
N4 Mn1 1_555 1_555
C10 N4 1_555 1_555
S2 C10 1_555 1_555
H1 C1 1_555 1_555
H2 C2 1_555 1_555
H3 C3 1_555 1_555
H4 C4 1_555 1_555
H5 C6 1_555 1_555
H6 C7 1_555 1_555
H7 C7 1_555 1_555
H8 C8 1_555 1_555
H9 C8 1_555 1_555
H10 O1 1_555 1_555
O1_2 Mn1 1_555 1_555
Mn1_2 O1 1_555 1_555
H10_2 O1_2 1_555 1_555
N3_2 Mn1 1_555 1_555
C6 N2 1_555 1_555
N3 Mn1_2 1_555 1_555

#END
