
#######################################################################
#
#                 Cambridge Crystallographic Data Centre
#                                CCDC 
#
#######################################################################
#
# If this CIF has been generated from an entry in the Cambridge 
# Structural Database, then it will include bibliographic, chemical, 
# crystal, experimental, refinement or atomic coordinate data resulting 
# from the CCDC's data processing and validation procedures.
#
#######################################################################

data_JILBUB
_symmetry_cell_setting           monoclinic
_symmetry_space_group_name_H-M   'P 21/n'
_symmetry_Int_Tables_number      14
_space_group_name_Hall           '-P 2yn'
loop_
_symmetry_equiv_pos_site_id
_symmetry_equiv_pos_as_xyz
1 x,y,z
2 1/2-x,1/2+y,1/2-z
3 -x,-y,-z
4 1/2+x,1/2-y,1/2+z
_cell_length_a                   10.619(1)
_cell_length_b                   9.694(1)
_cell_length_c                   15.826(3)
_cell_angle_alpha                90
_cell_angle_beta                 105.51(1)
_cell_angle_gamma                90
_cell_volume                     1569.81
loop_
_atom_site_label
_atom_site_type_symbol
_atom_site_fract_x
_atom_site_fract_y
_atom_site_fract_z
S1 S 0.2363(1) -0.2656(1) 0.6759(1)
P1 P 0.5691(1) 0.1805(1) 0.6652(1)
O1 O 0.4840(2) 0.0649(2) 0.6768(1)
N1 N 0.3143(2) -0.3780(3) 0.8334(2)
N2 N 0.3900(2) -0.1501(2) 0.8168(2)
N3 N 0.6176(2) 0.1591(3) 0.5765(2)
N4 N 0.5023(3) 0.3338(3) 0.6510(2)
N5 N 0.6969(3) 0.1881(3) 0.7500(2)
C1 C 0.3199(3) -0.2649(3) 0.7838(2)
C2 C 0.3862(3) -0.3751(4) 0.9161(2)
C3 C 0.4619(3) -0.2655(4) 0.9534(2)
C4 C 0.4574(3) -0.1530(4) 0.9000(2)
C5 C 0.6609(4) 0.0238(4) 0.5571(2)
C6 C 0.6551(4) 0.2668(5) 0.5257(3)
C7 C 0.5097(4) 0.4249(4) 0.7250(3)
C8 C 0.3871(3) 0.3538(4) 0.5767(3)
C9 C 0.6883(5) 0.1515(5) 0.8378(3)
C10 C 0.8137(3) 0.2667(4) 0.7470(3)
Li1 Li 0.3454(5) -0.0027(5) 0.7173(3)
H1 H 0.4194 -0.4560 0.9465
H2 H 0.5151 -0.2623 1.0153
H3 H 0.5023 -0.0651 0.9220
H4 H 0.7479 0.0209 0.5806
H5 H 0.6461 0.0126 0.4947
H6 H 0.6192 -0.0535 0.5797
H7 H 0.6028 0.2593 0.4614
H8 H 0.7454 0.2765 0.5357
H9 H 0.6535 0.3462 0.5408
H10 H 0.5115 0.5181 0.7014
H11 H 0.5978 0.4478 0.7563
H12 H 0.4526 0.3936 0.7592
H13 H 0.3992 0.4549 0.5569
H14 H 0.4129 0.3408 0.5220
H15 H 0.3031 0.3462 0.6024
H16 H 0.7132 0.2448 0.8826
H17 H 0.7631 0.0789 0.8666
H18 H 0.6080 0.1036 0.8368
H19 H 0.8083 0.3716 0.7547
H20 H 0.9012 0.2356 0.7855
H21 H 0.8193 0.2699 0.6725
N1A N 0.1857(2) 0.1220(3) 0.6666(2)
Li1A Li 0.1546(5) -0.5027(5) 0.7827(3)
loop_
_geom_bond_atom_site_label_1
_geom_bond_atom_site_label_2
_geom_bond_site_symmetry_1
_geom_bond_site_symmetry_2
S1 C1 1_555 1_555
P1 O1 1_555 1_555
O1 Li1 1_555 1_555
N1 C1 1_555 1_555
N2 C1 1_555 1_555
N3 P1 1_555 1_555
N4 P1 1_555 1_555
N5 P1 1_555 1_555
C2 N1 1_555 1_555
C3 C2 1_555 1_555
C4 N2 1_555 1_555
C5 N3 1_555 1_555
C6 N3 1_555 1_555
C7 N4 1_555 1_555
C8 N4 1_555 1_555
C9 N5 1_555 1_555
C10 N5 1_555 1_555
Li1 S1 1_555 1_555
H1 C2 1_555 1_555
H2 C3 1_555 1_555
H3 C4 1_555 1_555
H4 C5 1_555 1_555
H5 C5 1_555 1_555
H6 C5 1_555 1_555
H7 C6 1_555 1_555
H8 C6 1_555 1_555
H9 C6 1_555 1_555
H10 C7 1_555 1_555
H11 C7 1_555 1_555
H12 C7 1_555 1_555
H13 C8 1_555 1_555
H14 C8 1_555 1_555
H15 C8 1_555 1_555
H16 C9 1_555 1_555
H17 C9 1_555 1_555
H18 C9 1_555 1_555
H19 C10 1_555 1_555
H20 C10 1_555 1_555
H21 C10 1_555 1_555
N1A Li1 1_555 1_555
Li1A N1 1_555 1_555
N2 Li1 1_555 1_555
C3 C4 1_555 1_555

#END
