
#######################################################################
#
#                 Cambridge Crystallographic Data Centre
#                                CCDC 
#
#######################################################################
#
# If this CIF has been generated from an entry in the Cambridge 
# Structural Database, then it will include bibliographic, chemical, 
# crystal, experimental, refinement or atomic coordinate data resulting 
# from the CCDC's data processing and validation procedures.
#
#######################################################################

data_JILVUW
_symmetry_cell_setting           monoclinic
_symmetry_space_group_name_H-M   'P 21/c'
_symmetry_Int_Tables_number      14
_space_group_name_Hall           '-P 2ybc'
loop_
_symmetry_equiv_pos_site_id
_symmetry_equiv_pos_as_xyz
1 x,y,z
2 -x,1/2+y,1/2-z
3 -x,-y,-z
4 x,1/2-y,1/2+z
_cell_length_a                   21.015(10)
_cell_length_b                   13.189(6)
_cell_length_c                   18.318(9)
_cell_angle_alpha                90
_cell_angle_beta                 101.325(8)
_cell_angle_gamma                90
_cell_volume                     4978.29
loop_
_atom_site_label
_atom_site_type_symbol
_atom_site_fract_x
_atom_site_fract_y
_atom_site_fract_z
Cs1 Cs 0.463103(17) 0.75832(2) 0.343342(19)
Cl1 Cl 0.42803(7) 0.61287(10) 0.17567(7)
Cl2 Cl 1.03345(8) 0.19900(12) 0.75622(8)
Cl3 Cl 0.94773(8) 1.07952(12) 0.35536(10)
Cl4 Cl 1.09445(8) 0.35050(13) 0.49370(9)
Cl5 Cl 0.89279(10) 1.07001(14) 0.55098(10)
O1 O 0.59385(19) 0.8796(3) 0.3353(2)
O2 O 0.54521(19) 0.9325(3) 0.4581(2)
O3 O 0.60580(18) 0.8749(3) 0.59743(19)
H1 H 0.5722 0.9093 0.5820
O4 O 0.61063(19) 0.6878(3) 0.6602(2)
O5 O 0.58247(19) 0.4885(3) 0.6776(2)
O6 O 0.6723(2) 0.3421(3) 0.6733(2)
O7 O 0.7437(2) 0.1869(3) 0.6223(2)
O8 O 0.7102(2) 0.0888(3) 0.4779(2)
O9 O 0.72419(19) 0.1893(3) 0.3551(2)
O10 O 0.64965(19) 0.3414(3) 0.2740(2)
O11 O 0.55984(19) 0.4811(3) 0.2378(2)
O12 O 0.58058(19) 0.6772(3) 0.2717(2)
O13 O 0.3673(2) 0.9195(3) 0.4125(3)
O14 O 0.4556(2) 0.8210(4) 0.5196(2)
O15 O 0.4850(2) 0.8399(4) 0.1619(3)
N1 N 0.5292(3) 0.6354(5) 0.4912(3)
C1 C 0.6807(2) 0.7888(4) 0.4119(3)
C2 C 0.6255(3) 0.8496(4) 0.4050(3)
C3 C 0.6010(3) 0.8759(4) 0.4677(3)
C4 C 0.6327(3) 0.8454(4) 0.5379(3)
C5 C 0.6884(3) 0.7872(4) 0.5468(3)
C6 C 0.7111(3) 0.7590(4) 0.4830(3)
H2 H 0.7487 0.7177 0.4884
C7 C 0.7260(3) 0.7575(4) 0.6247(3)
H3 H 0.7064 0.7965 0.6616
C8 C 0.7159(3) 0.6457(4) 0.6392(3)
C9 C 0.6566(3) 0.6159(4) 0.6555(3)
C10 C 0.6432(3) 0.5138(4) 0.6668(3)
C11 C 0.6902(3) 0.4408(4) 0.6618(3)
C12 C 0.7500(3) 0.4672(4) 0.6462(3)
C13 C 0.7613(3) 0.5703(4) 0.6352(3)
H4 H 0.8020 0.5896 0.6244
C14 C 0.7988(3) 0.3846(4) 0.6368(3)
H5 H 0.7968 0.3327 0.6760
C15 C 0.7773(2) 0.3309(4) 0.5617(3)
C16 C 0.7508(2) 0.2338(4) 0.5567(3)
C17 C 0.7338(3) 0.1861(4) 0.4876(3)
C18 C 0.7423(3) 0.2365(4) 0.4236(3)
C19 C 0.7688(3) 0.3338(4) 0.4269(3)
C20 C 0.7854(2) 0.3789(4) 0.4959(3)
H6 H 0.8032 0.4453 0.4990
C21 C 0.7815(3) 0.3860(4) 0.3562(3)
H7 H 0.7765 0.3333 0.3162
C22 C 0.7305(3) 0.4672(4) 0.3305(3)
C23 C 0.6690(3) 0.4393(4) 0.2936(3)
C24 C 0.6205(3) 0.5115(4) 0.2727(3)
C25 C 0.6340(3) 0.6141(4) 0.2910(3)
C26 C 0.6954(3) 0.6458(4) 0.3259(3)
C27 C 0.7424(3) 0.5708(4) 0.3450(3)
H8 H 0.7848 0.5907 0.3692
C28 C 0.7070(3) 0.7580(4) 0.3436(3)
H9 H 0.6813 0.7964 0.3007
C29 C 0.7979(3) 0.7890(4) 0.6363(3)
H10 H 0.8205 0.7662 0.6862
H11 H 0.8183 0.7544 0.5988
C30 C 0.8070(3) 0.9035(4) 0.6300(3)
H12 H 0.7945 0.9240 0.5771
H13 H 0.7781 0.9391 0.6582
C31 C 0.8763(3) 0.9349(4) 0.6597(4)
H14 H 0.9052 0.8914 0.6365
H15 H 0.8864 0.9217 0.7140
C32 C 0.8921(3) 1.0444(5) 0.6468(4)
H16 H 0.9351 1.0610 0.6773
H17 H 0.8595 1.0885 0.6633
C33 C 0.8699(3) 0.4196(4) 0.6484(3)
H18 H 0.8761 0.4620 0.6058
H19 H 0.8804 0.4613 0.6941
C34 C 0.9154(3) 0.3283(4) 0.6554(3)
H20 H 0.9105 0.2886 0.6998
H21 H 0.9020 0.2844 0.6112
C35 C 0.9858(3) 0.3560(4) 0.6619(3)
H22 H 0.9907 0.3952 0.6173
H23 H 0.9989 0.4005 0.7058
C36 C 1.0309(3) 0.2665(5) 0.6694(3)
H24 H 1.0751 0.2902 0.6669
H25 H 1.0165 0.2195 0.6272
C37 C 0.8516(3) 0.4246(4) 0.3682(3)
H26 H 0.8581 0.4762 0.4082
H27 H 0.8585 0.4580 0.3220
C38 C 0.9023(3) 0.3404(4) 0.3892(3)
H28 H 0.8887 0.2954 0.4265
H29 H 0.9040 0.2992 0.3444
C39 C 0.9696(3) 0.3806(4) 0.4206(4)
H30 H 0.9670 0.4288 0.4613
H31 H 0.9857 0.4183 0.3811
C40 C 1.0175(3) 0.2977(4) 0.4501(3)
H32 H 1.0235 0.2530 0.4086
H33 H 1.0001 0.2562 0.4867
C41 C 0.7775(3) 0.7909(4) 0.3501(3)
H34 H 0.7943 0.7636 0.3072
H35 H 0.8038 0.7617 0.3960
C42 C 0.7851(3) 0.9064(4) 0.3521(3)
H36 H 0.7577 0.9360 0.3070
H37 H 0.7700 0.9336 0.3961
C43 C 0.8548(3) 0.9370(4) 0.3556(3)
H38 H 0.8704 0.9061 0.3132
H39 H 0.8816 0.9100 0.4020
C44 C 0.8640(3) 1.0505(4) 0.3535(3)
H40 H 0.8502 1.0820 0.3969
H41 H 0.8368 1.0785 0.3077
C45 C 0.5681(4) 0.5756(5) 0.4832(3)
C46 C 0.6158(4) 0.5026(6) 0.4721(4)
H42 H 0.5945 0.4377 0.4570
H43 H 0.6475 0.4936 0.5185
H44 H 0.6380 0.5266 0.4330
H45 H 0.678(2) 0.301(4) 0.292(3)
H46 H 0.5729(12) 0.670(4) 0.648(3)
H47 H 0.683(3) 0.081(5) 0.505(3)
H48 H 0.699(3) 0.302(4) 0.661(4)
H49 H 0.522(2) 0.912(4) 0.486(2)
H50 H 0.533(3) 0.525(4) 0.220(3)
H51 H 0.7092(19) 0.154(4) 0.617(4)
H52 H 0.597(3) 0.735(3) 0.276(4)
H53 H 0.589(4) 0.9423(18) 0.338(5)
H54 H 0.590(3) 0.461(5) 0.720(2)
H55 H 0.691(3) 0.154(6) 0.354(5)
H56 H 0.369(4) 0.980(3) 0.397(4)
H57 H 0.443(3) 0.832(5) 0.560(2)
H58 H 0.472(4) 0.763(3) 0.530(4)
H59 H 0.401(2) 0.919(6) 0.445(3)
H60 H 0.472(3) 0.784(3) 0.176(3)
H61 H 0.466(6) 0.890(6) 0.175(7)
Cs1B Cs 0.536897(17) 0.24168(2) 0.656658(19)
Cs1A Cs 0.536897(17) 0.25832(2) 0.156658(19)
O5B O 0.41753(19) 0.5115(3) 0.3224(2)
O6B O 0.3277(2) 0.6579(3) 0.3267(2)
O10A O 0.35035(19) 0.8414(3) 0.2260(2)
O11A O 0.44016(19) 0.9811(3) 0.2622(2)
H45A H 0.322(2) 0.801(4) 0.208(3)
H48B H 0.301(3) 0.698(4) 0.339(4)
H50A H 0.467(3) 1.025(4) 0.280(3)
H54B H 0.410(3) 0.539(5) 0.280(2)
loop_
_geom_bond_atom_site_label_1
_geom_bond_atom_site_label_2
_geom_bond_site_symmetry_1
_geom_bond_site_symmetry_2
Cs1 Cl1 1_555 1_555
Cl2 C36 1_555 1_555
Cl3 C44 1_555 1_555
Cl4 C40 1_555 1_555
Cl5 C32 1_555 1_555
O1 Cs1 1_555 1_555
O2 Cs1 1_555 1_555
O3 H1 1_555 1_555
O4 C9 1_555 1_555
O5 C10 1_555 1_555
O6 C11 1_555 1_555
O7 C16 1_555 1_555
O8 C17 1_555 1_555
O9 C18 1_555 1_555
O10 C23 1_555 1_555
O11 C24 1_555 1_555
O12 Cs1 1_555 1_555
O13 Cs1 1_555 1_555
O14 Cs1 1_555 1_555
O15 Cs1 1_555 1_555
N1 Cs1 1_555 1_555
C1 C2 1_555 1_555
C2 O1 1_555 1_555
C3 O2 1_555 1_555
C4 O3 1_555 1_555
C5 C4 1_555 1_555
C6 C1 1_555 1_555
H2 C6 1_555 1_555
C7 C5 1_555 1_555
H3 C7 1_555 1_555
C8 C7 1_555 1_555
C9 C8 1_555 1_555
C10 C9 1_555 1_555
C11 C10 1_555 1_555
C12 C11 1_555 1_555
C13 C8 1_555 1_555
H4 C13 1_555 1_555
C14 C12 1_555 1_555
H5 C14 1_555 1_555
C15 C14 1_555 1_555
C16 C15 1_555 1_555
C17 C16 1_555 1_555
C18 C17 1_555 1_555
C19 C18 1_555 1_555
C20 C15 1_555 1_555
H6 C20 1_555 1_555
C21 C19 1_555 1_555
H7 C21 1_555 1_555
C22 C21 1_555 1_555
C23 C22 1_555 1_555
C24 C23 1_555 1_555
C25 O12 1_555 1_555
C26 C25 1_555 1_555
C27 C22 1_555 1_555
H8 C27 1_555 1_555
C28 C1 1_555 1_555
H9 C28 1_555 1_555
C29 C7 1_555 1_555
H10 C29 1_555 1_555
H11 C29 1_555 1_555
C30 C29 1_555 1_555
H12 C30 1_555 1_555
H13 C30 1_555 1_555
C31 C30 1_555 1_555
H14 C31 1_555 1_555
H15 C31 1_555 1_555
C32 C31 1_555 1_555
H16 C32 1_555 1_555
H17 C32 1_555 1_555
C33 C14 1_555 1_555
H18 C33 1_555 1_555
H19 C33 1_555 1_555
C34 C33 1_555 1_555
H20 C34 1_555 1_555
H21 C34 1_555 1_555
C35 C34 1_555 1_555
H22 C35 1_555 1_555
H23 C35 1_555 1_555
C36 C35 1_555 1_555
H24 C36 1_555 1_555
H25 C36 1_555 1_555
C37 C21 1_555 1_555
H26 C37 1_555 1_555
H27 C37 1_555 1_555
C38 C37 1_555 1_555
H28 C38 1_555 1_555
H29 C38 1_555 1_555
C39 C38 1_555 1_555
H30 C39 1_555 1_555
H31 C39 1_555 1_555
C40 C39 1_555 1_555
H32 C40 1_555 1_555
H33 C40 1_555 1_555
C41 C28 1_555 1_555
H34 C41 1_555 1_555
H35 C41 1_555 1_555
C42 C41 1_555 1_555
H36 C42 1_555 1_555
H37 C42 1_555 1_555
C43 C42 1_555 1_555
H38 C43 1_555 1_555
H39 C43 1_555 1_555
C44 C43 1_555 1_555
H40 C44 1_555 1_555
H41 C44 1_555 1_555
C45 N1 1_555 1_555
C46 C45 1_555 1_555
H42 C46 1_555 1_555
H43 C46 1_555 1_555
H44 C46 1_555 1_555
H45 O10 1_555 1_555
H46 O4 1_555 1_555
H47 O8 1_555 1_555
H48 O6 1_555 1_555
H49 O2 1_555 1_555
H50 O11 1_555 1_555
H51 O7 1_555 1_555
H52 O12 1_555 1_555
H53 O1 1_555 1_555
H54 O5 1_555 1_555
H55 O9 1_555 1_555
H56 O13 1_555 1_555
H57 O14 1_555 1_555
H58 O14 1_555 1_555
H59 O13 1_555 1_555
H60 O15 1_555 1_555
H61 O15 1_555 1_555
Cs1B O5 1_555 1_555
Cs1A O10 1_555 1_555
O5B Cs1 1_555 1_555
O6B Cs1 1_555 1_555
O10A Cs1 1_555 1_555
O11A Cs1 1_555 1_555
H45A O10A 1_555 1_555
H48B O6B 1_555 1_555
H50A O11A 1_555 1_555
H54B O5B 1_555 1_555
O6 Cs1B 1_555 1_555
O11 Cs1A 1_555 1_555
C2 C3 1_555 1_555
C3 C4 1_555 1_555
C5 C6 1_555 1_555
C12 C13 1_555 1_555
C19 C20 1_555 1_555
C24 C25 1_555 1_555
C26 C27 1_555 1_555
C26 C28 1_555 1_555

#END
