
#######################################################################
#
#                 Cambridge Crystallographic Data Centre
#                                CCDC 
#
#######################################################################
#
# If this CIF has been generated from an entry in the Cambridge 
# Structural Database, then it will include bibliographic, chemical, 
# crystal, experimental, refinement or atomic coordinate data resulting 
# from the CCDC's data processing and validation procedures.
#
#######################################################################

data_JILWAD
_symmetry_cell_setting           triclinic
_symmetry_space_group_name_H-M   'P -1'
_symmetry_Int_Tables_number      2
_space_group_name_Hall           '-P 1'
loop_
_symmetry_equiv_pos_site_id
_symmetry_equiv_pos_as_xyz
1 x,y,z
2 -x,-y,-z
_cell_length_a                   11.035(6)
_cell_length_b                   12.678(7)
_cell_length_c                   21.853(12)
_cell_angle_alpha                105.604(9)
_cell_angle_beta                 98.632(10)
_cell_angle_gamma                95.176(9)
_cell_volume                     2883.73
loop_
_atom_site_label
_atom_site_type_symbol
_atom_site_fract_x
_atom_site_fract_y
_atom_site_fract_z
Cs1 Cs 0.51035(5) 0.80091(4) 0.53585(3)
Cl1 Cl 0.7066(2) 0.60212(17) 0.54960(11)
O1 O 0.4278(5) 0.7188(5) 0.3725(3)
O2 O 0.4823(6) 0.9413(4) 0.4142(3)
O3 O 0.6113(5) 1.0592(4) 0.3544(3)
O4 O 0.8136(5) 1.1722(4) 0.3245(3)
O5 O 1.0451(6) 1.2270(4) 0.3989(3)
O6 O 1.2154(6) 1.0719(4) 0.3905(3)
O7 O 1.2458(6) 0.8784(4) 0.4348(4)
O8 O 1.2136(5) 0.7245(4) 0.4996(3)
O9 O 1.0637(5) 0.5173(4) 0.4391(3)
O10 O 0.8418(5) 0.3868(4) 0.4090(3)
O11 O 0.6002(6) 0.4038(5) 0.4301(3)
O12 O 0.4379(5) 0.4950(4) 0.3548(3)
C1 C 0.5332(7) 0.7089(6) 0.2771(4)
C2 C 0.4951(7) 0.7665(6) 0.3336(4)
C3 C 0.5200(7) 0.8824(6) 0.3570(4)
C4 C 0.5923(7) 0.9438(6) 0.3260(4)
C5 C 0.6366(7) 0.8878(6) 0.2696(4)
C6 C 0.6049(7) 0.7702(6) 0.2465(4)
H1 H 0.6334 0.7315 0.2090
C7 C 0.7188(7) 0.9547(6) 0.2369(4)
H2 H 0.6856 1.0266 0.2410
C8 C 0.8528(7) 0.9838(6) 0.2762(4)
C9 C 0.8950(7) 1.0924(6) 0.3192(4)
C10 C 1.0152(7) 1.1189(6) 0.3559(4)
C11 C 1.0981(7) 1.0384(6) 0.3515(4)
C12 C 1.0583(7) 0.9291(6) 0.3074(4)
C13 C 0.9380(8) 0.9054(6) 0.2725(4)
H3 H 0.9112 0.8327 0.2446
C14 C 1.1512(8) 0.8412(6) 0.2991(4)
H4 H 1.2349 0.8823 0.3210
C15 C 1.1218(7) 0.7541(6) 0.3355(4)
C16 C 1.1734(7) 0.7763(6) 0.4012(4)
C17 C 1.1552(7) 0.6981(6) 0.4362(4)
C18 C 1.0822(7) 0.5937(6) 0.4024(4)
C19 C 1.0253(7) 0.5692(6) 0.3368(4)
C20 C 1.0500(7) 0.6498(6) 0.3039(4)
H5 H 1.0170 0.6329 0.2592
C21 C 0.9390(7) 0.4581(6) 0.3029(4)
H6 H 0.9706 0.4040 0.3251
C22 C 0.8056(7) 0.4691(6) 0.3176(4)
C23 C 0.7648(8) 0.4338(6) 0.3692(4)
C24 C 0.6413(7) 0.4407(6) 0.3801(4)
C25 C 0.5582(8) 0.4856(5) 0.3424(4)
C26 C 0.5958(7) 0.5254(6) 0.2917(4)
C27 C 0.7176(8) 0.5153(6) 0.2805(4)
H7 H 0.7428 0.5405 0.2465
C28 C 0.5051(8) 0.5785(6) 0.2516(4)
H8 H 0.4214 0.5587 0.2610
C29 C 0.7146(8) 0.9022(7) 0.1637(4)
H9 H 0.7431 0.8288 0.1575
H10 H 0.7740 0.9489 0.1489
C30 C 0.5849(9) 0.8872(8) 0.1197(4)
H11 H 0.5291 0.8308 0.1296
H12 H 0.5503 0.9578 0.1310
C31 C 0.5849(9) 0.8529(8) 0.0479(5)
H13 H 0.6231 0.7841 0.0371
H14 H 0.6382 0.9108 0.0379
C32 C 0.4562(10) 0.8329(9) 0.0032(5)
H15 H 0.4041 0.7721 0.0113
H16 H 0.4160 0.9003 0.0152
C33 C 0.4595(11) 0.8039(11) -0.0688(5)
H17 H 0.4994 0.7364 -0.0811
H18 H 0.5111 0.8647 -0.0772
C34 C 0.3307(12) 0.7844(12) -0.1119(6)
H19 H 0.2760 0.7301 -0.1006
H20 H 0.3383 0.7566 -0.1573
H21 H 0.2959 0.8543 -0.1051
C35 C 1.1590(8) 0.7922(7) 0.2267(4)
H22 H 1.0744 0.7648 0.2014
H23 H 1.2061 0.7285 0.2221
C36 C 1.2227(9) 0.8789(8) 0.1987(5)
H24 H 1.1893 0.9495 0.2133
H25 H 1.3124 0.8923 0.2167
C37 C 1.2056(10) 0.8449(9) 0.1246(5)
H26 H 1.2223 0.7677 0.1094
H27 H 1.2676 0.8923 0.1119
C38 C 1.0734(11) 0.8537(10) 0.0896(5)
H28 H 1.0115 0.8043 0.1010
H29 H 1.0554 0.9303 0.1058
C39 C 1.0595(15) 0.8231(13) 0.0158(6)
H30 H 1.0787 0.7469 -0.0004
H31 H 1.1202 0.8734 0.0043
C40 C 0.9286(16) 0.8302(15) -0.0178(8)
H32 H 0.8684 0.7781 -0.0082
H33 H 0.9254 0.8116 -0.0646
H34 H 0.9089 0.9055 -0.0019
C41 C 0.9414(8) 0.4077(7) 0.2321(5)
H35 H 0.9080 0.4575 0.2078
H36 H 0.8852 0.3368 0.2166
C42 C 1.0724(9) 0.3853(8) 0.2152(5)
H37 H 1.0629 0.3530 0.1679
H38 H 1.1267 0.4570 0.2272
C43 C 1.1362(9) 0.3092(8) 0.2481(5)
H39 H 1.0775 0.2416 0.2414
H40 H 1.1569 0.3463 0.2952
C44 C 1.2577(10) 0.2746(9) 0.2237(5)
H41 H 1.2357 0.2307 0.1777
H42 H 1.3128 0.3422 0.2261
C45 C 1.3296(11) 0.2063(8) 0.2620(6)
H43 H 1.3549 0.2510 0.3077
H44 H 1.2741 0.1396 0.2608
C46 C 1.4454(12) 0.1704(11) 0.2351(7)
H45 H 1.4221 0.1322 0.1888
H46 H 1.4819 0.1204 0.2576
H47 H 1.5060 0.2358 0.2417
C47 C 0.4957(8) 0.5284(6) 0.1782(4)
H48 H 0.4907 0.4471 0.1684
H49 H 0.5723 0.5558 0.1655
C48 C 0.3816(9) 0.5565(7) 0.1362(4)
H50 H 0.3052 0.5357 0.1513
H51 H 0.3906 0.6372 0.1421
C49 C 0.3691(10) 0.4957(10) 0.0640(5)
H52 H 0.3712 0.4160 0.0591
H53 H 0.4416 0.5232 0.0481
C50 C 0.2490(10) 0.5090(8) 0.0204(5)
H54 H 0.1766 0.4834 0.0371
H55 H 0.2481 0.5886 0.0245
C51 C 0.2337(13) 0.4465(12) -0.0513(6)
H56 H 0.3028 0.4757 -0.0688
H57 H 0.2401 0.3676 -0.0554
C52 C 0.1127(15) 0.4541(12) -0.0921(7)
H58 H 0.0434 0.4311 -0.0732
H59 H 0.1062 0.4056 -0.1361
H60 H 0.1103 0.5306 -0.0934
H61 H 0.435(7) 0.648(6) 0.359(4)
H62 H 0.838(11) 1.246(3) 0.349(5)
H63 H 1.132(2) 1.243(10) 0.407(6)
H64 H 1.229(8) 1.033(7) 0.410(4)
H65 H 1.287(8) 0.901(7) 0.462(4)
H66 H 0.922(3) 0.424(5) 0.423(3)
H67 H 0.431(9) 0.495(8) 0.3971(19)
H68 H 0.684(9) 1.072(14) 0.338(8)
H69 H 0.629(8) 0.443(7) 0.465(4)
H70 H 0.416(8) 0.908(7) 0.422(4)
H71 H 1.195(8) 0.676(6) 0.524(4)
H72 H 1.138(7) 0.486(10) 0.441(7)
Cs1A Cs 0.48965(5) 1.19909(4) 0.46415(3)
Cs1A_2 Cs 1.48965(5) 1.19909(4) 0.46415(3)
Cs1_2 Cs 1.51035(5) 0.80091(4) 0.53585(3)
Cs1A_3 Cs 0.48965(5) 0.19909(4) 0.46415(3)
O2A O 0.5177(6) 1.0587(4) 0.5858(3)
O3A O 0.3887(5) 0.9408(4) 0.6456(3)
O6A O 0.7846(6) 0.9281(4) 0.6095(3)
O7_2 O 0.2458(6) 0.8784(4) 0.4348(4)
O8_2 O 0.2136(5) 0.7245(4) 0.4996(3)
O11A O 0.3998(6) 0.5962(5) 0.5699(3)
H64A H 0.771(8) 0.967(7) 0.590(4)
H65_2 H 0.287(8) 0.901(7) 0.462(4)
H68A H 0.316(9) 0.928(14) 0.662(8)
H69A H 0.371(8) 0.557(7) 0.535(4)
H70A H 0.584(8) 1.092(7) 0.578(4)
H71_2 H 0.195(8) 0.676(6) 0.524(4)
N1 N 0.8225(10) 0.9830(8) 0.4591(5)
C53 C 0.8292(10) 0.7730(9) 0.4084(6)
H73 H 0.7837 0.7497 0.3639
H74 H 0.7908 0.7309 0.4338
H75 H 0.9153 0.7593 0.4087
C54 C 0.8262(10) 0.8919(9) 0.4370(6)
loop_
_geom_bond_atom_site_label_1
_geom_bond_atom_site_label_2
_geom_bond_site_symmetry_1
_geom_bond_site_symmetry_2
Cs1 Cl1 1_555 1_555
O1 Cs1 1_555 1_555
O2 Cs1 1_555 1_555
O3 C4 1_555 1_555
O4 C9 1_555 1_555
O5 C10 1_555 1_555
O6 C11 1_555 1_555
O7 C16 1_555 1_555
O8 C17 1_555 1_555
O9 C18 1_555 1_555
O10 C23 1_555 1_555
O11 C24 1_555 1_555
O12 C25 1_555 1_555
C1 C2 1_555 1_555
C2 O1 1_555 1_555
C3 O2 1_555 1_555
C4 C3 1_555 1_555
C5 C4 1_555 1_555
C6 C1 1_555 1_555
H1 C6 1_555 1_555
C7 C5 1_555 1_555
H2 C7 1_555 1_555
C8 C7 1_555 1_555
C9 C8 1_555 1_555
C10 C9 1_555 1_555
C11 C10 1_555 1_555
C12 C11 1_555 1_555
C13 C8 1_555 1_555
H3 C13 1_555 1_555
C14 C12 1_555 1_555
H4 C14 1_555 1_555
C15 C14 1_555 1_555
C16 C15 1_555 1_555
C17 C16 1_555 1_555
C18 C17 1_555 1_555
C19 C18 1_555 1_555
C20 C15 1_555 1_555
H5 C20 1_555 1_555
C21 C19 1_555 1_555
H6 C21 1_555 1_555
C22 C21 1_555 1_555
C23 C22 1_555 1_555
C24 C23 1_555 1_555
C25 C24 1_555 1_555
C26 C25 1_555 1_555
C27 C22 1_555 1_555
H7 C27 1_555 1_555
C28 C1 1_555 1_555
H8 C28 1_555 1_555
C29 C7 1_555 1_555
H9 C29 1_555 1_555
H10 C29 1_555 1_555
C30 C29 1_555 1_555
H11 C30 1_555 1_555
H12 C30 1_555 1_555
C31 C30 1_555 1_555
H13 C31 1_555 1_555
H14 C31 1_555 1_555
C32 C31 1_555 1_555
H15 C32 1_555 1_555
H16 C32 1_555 1_555
C33 C32 1_555 1_555
H17 C33 1_555 1_555
H18 C33 1_555 1_555
C34 C33 1_555 1_555
H19 C34 1_555 1_555
H20 C34 1_555 1_555
H21 C34 1_555 1_555
C35 C14 1_555 1_555
H22 C35 1_555 1_555
H23 C35 1_555 1_555
C36 C35 1_555 1_555
H24 C36 1_555 1_555
H25 C36 1_555 1_555
C37 C36 1_555 1_555
H26 C37 1_555 1_555
H27 C37 1_555 1_555
C38 C37 1_555 1_555
H28 C38 1_555 1_555
H29 C38 1_555 1_555
C39 C38 1_555 1_555
H30 C39 1_555 1_555
H31 C39 1_555 1_555
C40 C39 1_555 1_555
H32 C40 1_555 1_555
H33 C40 1_555 1_555
H34 C40 1_555 1_555
C41 C21 1_555 1_555
H35 C41 1_555 1_555
H36 C41 1_555 1_555
C42 C41 1_555 1_555
H37 C42 1_555 1_555
H38 C42 1_555 1_555
C43 C42 1_555 1_555
H39 C43 1_555 1_555
H40 C43 1_555 1_555
C44 C43 1_555 1_555
H41 C44 1_555 1_555
H42 C44 1_555 1_555
C45 C44 1_555 1_555
H43 C45 1_555 1_555
H44 C45 1_555 1_555
C46 C45 1_555 1_555
H45 C46 1_555 1_555
H46 C46 1_555 1_555
H47 C46 1_555 1_555
C47 C28 1_555 1_555
H48 C47 1_555 1_555
H49 C47 1_555 1_555
C48 C47 1_555 1_555
H50 C48 1_555 1_555
H51 C48 1_555 1_555
C49 C48 1_555 1_555
H52 C49 1_555 1_555
H53 C49 1_555 1_555
C50 C49 1_555 1_555
H54 C50 1_555 1_555
H55 C50 1_555 1_555
C51 C50 1_555 1_555
H56 C51 1_555 1_555
H57 C51 1_555 1_555
C52 C51 1_555 1_555
H58 C52 1_555 1_555
H59 C52 1_555 1_555
H60 C52 1_555 1_555
H61 O1 1_555 1_555
H62 O4 1_555 1_555
H63 O5 1_555 1_555
H64 O6 1_555 1_555
H65 O7 1_555 1_555
H66 O10 1_555 1_555
H67 O12 1_555 1_555
H68 O3 1_555 1_555
H69 O11 1_555 1_555
H70 O2 1_555 1_555
H71 O8 1_555 1_555
H72 O9 1_555 1_555
N1 C54 1_555 1_555
C53 H73 1_555 1_555
H74 C53 1_555 1_555
H75 C53 1_555 1_555
C54 C53 1_555 1_555
Cs1A O2 1_555 1_555
Cs1A_2 O6 1_555 1_555
Cs1_2 O7 1_555 1_555
Cs1A_3 O11 1_555 1_555
O2A Cs1 1_555 1_555
O3A Cs1 1_555 1_555
O6A Cs1 1_555 1_555
O7_2 Cs1 1_555 1_555
O8_2 Cs1 1_555 1_555
O11A Cs1 1_555 1_555
H64A O6A 1_555 1_555
H65_2 O7_2 1_555 1_555
H68A O3A 1_555 1_555
H69A O11A 1_555 1_555
H70A O2A 1_555 1_555
H71_2 O8_2 1_555 1_555
O3 Cs1A 1_555 1_555
O8 Cs1_2 1_555 1_555
C2 C3 1_555 1_555
C5 C6 1_555 1_555
C12 C13 1_555 1_555
C19 C20 1_555 1_555
C26 C27 1_555 1_555
C26 C28 1_555 1_555
Cs1A O2A 1_555 1_555

#END
