
#######################################################################
#
#                 Cambridge Crystallographic Data Centre
#                                CCDC 
#
#######################################################################
#
# If this CIF has been generated from an entry in the Cambridge 
# Structural Database, then it will include bibliographic, chemical, 
# crystal, experimental, refinement or atomic coordinate data resulting 
# from the CCDC's data processing and validation procedures.
#
#######################################################################

data_JIMCUE
_symmetry_cell_setting           triclinic
_symmetry_space_group_name_H-M   'P -1'
_symmetry_Int_Tables_number      2
_space_group_name_Hall           '-P 1'
loop_
_symmetry_equiv_pos_site_id
_symmetry_equiv_pos_as_xyz
1 x,y,z
2 -x,-y,-z
_cell_length_a                   9.5494(5)
_cell_length_b                   13.1792(8)
_cell_length_c                   16.3420(10)
_cell_angle_alpha                107.713(6)
_cell_angle_beta                 103.017(5)
_cell_angle_gamma                93.646(4)
_cell_volume                     1889.41
loop_
_atom_site_label
_atom_site_type_symbol
_atom_site_fract_x
_atom_site_fract_y
_atom_site_fract_z
C30 C 0.0998(6) 0.7509(4) 0.2567(3)
C31 C -0.1566(7) 0.6866(3) 0.1899(3)
C32 C -0.0123(5) 0.6649(3) 0.2011(3)
C33 C 0.0206(5) 0.5614(3) 0.1656(3)
C34 C -0.0740(5) 0.4663(3) 0.1435(3)
C35 C -0.2017(6) 0.4616(3) 0.1737(3)
C36 C -0.0392(5) 0.3667(4) 0.0945(3)
C37 C 0.2339(7) 0.6154(5) 0.1217(4)
C38 C 0.3211(7) 0.5495(5) 0.0663(4)
N5 N 0.1874(6) 0.8203(4) 0.3033(3)
N6 N -0.2741(6) 0.7078(3) 0.1802(3)
N7 N -0.0168(5) 0.2840(3) 0.0538(3)
N8 N -0.3067(5) 0.4545(3) 0.1977(3)
O7 O 0.1531(3) 0.5441(3) 0.1528(2)
H29 H 0.278(5) 0.670(4) 0.170(3)
H30 H 0.241(6) 0.485(4) 0.014(4)
H31 H 0.169(5) 0.652(4) 0.088(3)
H32 H 0.399(6) 0.526(4) 0.102(4)
H33 H 0.372(6) 0.597(4) 0.045(4)
O8 O 0.002(3) 0.596(4) 0.3962(18)
C1 C 0.4356(4) 0.2111(3) 0.1269(3)
C2 C 0.3998(5) 0.2518(3) 0.0578(3)
C3 C 0.4712(5) 0.2246(3) -0.0089(3)
C4 C 0.5769(5) 0.1579(3) -0.0041(3)
C5 C 0.6082(4) 0.1196(3) 0.0671(2)
C6 C 0.7155(4) 0.0462(3) 0.0787(2)
C7 C 0.7932(4) 0.0021(3) 0.0174(3)
C8 C 0.8875(4) -0.0685(3) 0.0343(3)
C9 C 0.9054(5) -0.0916(3) 0.1120(3)
C10 C 0.8271(4) -0.0448(3) 0.1713(3)
C11 C 0.4988(5) 0.2317(3) 0.5657(3)
C12 C 0.4156(5) 0.2465(4) 0.6266(3)
C13 C 0.3110(6) 0.3118(4) 0.6219(3)
C14 C 0.2909(5) 0.3632(3) 0.5593(3)
C15 C 0.3789(4) 0.3461(3) 0.5008(2)
C16 C 0.3721(4) 0.3986(3) 0.4321(2)
C17 C 0.2716(5) 0.4664(3) 0.4148(3)
C18 C 0.2752(5) 0.5084(3) 0.3478(3)
C19 C 0.3783(5) 0.4856(3) 0.3011(3)
C20 C 0.4771(5) 0.4190(3) 0.3218(3)
C21 C 0.7363(4) 0.0768(3) 0.4087(3)
C22 C 0.9215(11) -0.0535(8) 0.4158(7)
H1 H 0.9765 -0.0149 0.3886
H2 H 0.8573 -0.1129 0.3686
C23 C 0.9717(11) 0.0992(8) 0.5217(7)
H3 H 0.9439 0.1641 0.5577
H4 H 1.0224 0.1192 0.4825
C24 C 0.8248(5) 0.3230(3) 0.3495(3)
C25 C 0.9269(5) 0.2909(3) 0.2901(3)
C26 C 1.0195(4) 0.2120(3) 0.3210(3)
C27 C 1.1255(4) 0.1724(3) 0.2661(2)
C28 C 1.2104(5) 0.0894(3) 0.2974(3)
C29 C 1.3308(4) 0.0624(3) 0.2522(2)
N1 N 0.5375(3) 0.1459(2) 0.13180(19)
N2 N 0.7334(3) 0.0234(2) 0.15557(19)
N3 N 0.4815(3) 0.2796(2) 0.5032(2)
N4 N 0.4729(3) 0.3754(2) 0.38516(19)
O1 O 0.7025(3) 0.1652(2) 0.45188(16)
O2 O 0.7014(3) 0.0335(2) 0.32531(16)
O3 O 0.7010(3) 0.2624(2) 0.32367(16)
O4 O 0.8641(3) 0.3983(2) 0.42016(19)
O5 O 1.4507(3) 0.1295(2) 0.28839(16)
O6 O 1.3159(3) -0.0148(2) 0.18488(17)
Cu1 Cu 0.60656(5) 0.09023(3) 0.23218(3)
Cu2 Cu 0.58897(5) 0.26384(4) 0.40966(3)
C39 C 0.8319(6) 0.0207(4) 0.4641(3)
H5 H 0.576(4) 0.190(3) 0.565(2)
H6 H 1.199(4) 0.232(3) 0.271(2)
H7 H 0.866(4) 0.253(3) 0.230(2)
H8 H 0.627(4) 0.139(3) -0.047(3)
H9 H 0.985(4) 0.351(3) 0.296(2)
H10 H 1.075(4) 0.140(3) 0.199(2)
H11 H 0.939(4) -0.096(3) -0.009(2)
H12 H 0.216(4) 0.556(3) 0.338(2)
H13 H 0.783(4) 0.020(3) -0.029(3)
H14 H 0.545(4) 0.402(3) 0.292(2)
H15 H 0.832(4) -0.059(3) 0.227(3)
H16 H 1.255(4) 0.123(3) 0.363(3)
H17 H 0.221(4) 0.412(3) 0.556(2)
H18 H 1.144(4) 0.034(3) 0.286(2)
H19 H 0.321(4) 0.297(3) 0.062(2)
H20 H 1.073(4) 0.247(3) 0.383(2)
H21 H 0.954(4) 0.152(3) 0.318(2)
H22 H 0.257(4) 0.317(3) 0.653(3)
H23 H 0.199(4) 0.475(3) 0.443(3)
H24 H 0.380(4) 0.219(3) 0.171(2)
H25 H 0.431(4) 0.210(3) 0.666(3)
H26 H 0.959(4) -0.132(3) 0.124(2)
H27 H 0.448(4) 0.247(3) -0.054(3)
H28 H 0.381(4) 0.515(3) 0.259(3)
C1A C 1.5644(4) -0.2111(3) 0.8731(3)
C2A C 1.6002(5) -0.2518(3) 0.9422(3)
C3A C 1.5288(5) -0.2246(3) 1.0089(3)
C4A C 1.4231(5) -0.1579(3) 1.0041(3)
C5A C 1.3918(4) -0.1196(3) 0.9329(2)
C6A C 1.2845(4) -0.0462(3) 0.9213(2)
C7A C 1.2068(4) -0.0021(3) 0.9826(3)
C8A C 1.1125(4) 0.0685(3) 0.9657(3)
C9A C 1.0946(5) 0.0916(3) 0.8880(3)
C10A C 1.1729(4) 0.0448(3) 0.8287(3)
C11A C 1.5012(5) -0.2317(3) 0.4343(3)
C12A C 1.5844(5) -0.2465(4) 0.3734(3)
C13A C 1.6890(6) -0.3118(4) 0.3781(3)
C14A C 1.7091(5) -0.3632(3) 0.4407(3)
C15A C 1.6211(4) -0.3461(3) 0.4992(2)
C16A C 1.6279(4) -0.3986(3) 0.5679(2)
C17A C 1.7284(5) -0.4664(3) 0.5852(3)
C18A C 1.7248(5) -0.5084(3) 0.6522(3)
C19A C 1.6217(5) -0.4856(3) 0.6989(3)
C20A C 1.5229(5) -0.4190(3) 0.6782(3)
C21A C 1.2637(4) -0.0768(3) 0.5913(3)
C22A C 1.0785(11) 0.0535(8) 0.5842(7)
H1A H 1.0235 0.0149 0.6114
H2A H 1.1427 0.1129 0.6314
C23A C 1.0283(11) -0.0992(8) 0.4783(7)
H3A H 1.0561 -0.1641 0.4423
H4A H 0.9776 -0.1192 0.5175
C24_2 C -0.1752(5) 0.3230(3) 0.3495(3)
C25_2 C -0.0731(5) 0.2909(3) 0.2901(3)
C26_2 C 0.0195(4) 0.2120(3) 0.3210(3)
C27_2 C 0.1255(4) 0.1724(3) 0.2661(2)
C28_2 C 0.2104(5) 0.0894(3) 0.2974(3)
C29_2 C 0.3308(4) 0.0624(3) 0.2522(2)
N1A N 1.4625(3) -0.1459(2) 0.86820(19)
N2A N 1.2666(3) -0.0234(2) 0.84443(19)
N3A N 1.5185(3) -0.2796(2) 0.4968(2)
N4A N 1.5271(3) -0.3754(2) 0.61484(19)
O1A O 1.2975(3) -0.1652(2) 0.54812(16)
O2A O 1.2986(3) -0.0335(2) 0.67469(16)
O3_2 O -0.2990(3) 0.2624(2) 0.32367(16)
O3A O 1.2990(3) -0.2624(2) 0.67633(16)
O4_2 O -0.1359(3) 0.3983(2) 0.42016(19)
O5_2 O 0.4507(3) 0.1295(2) 0.28839(16)
O5A O 1.5493(3) -0.1295(2) 0.71161(16)
O6_2 O 0.3159(3) -0.0148(2) 0.18488(17)
Cu1A Cu 1.39344(5) -0.09023(3) 0.76782(3)
Cu1_2 Cu 1.60656(5) 0.09023(3) 0.23218(3)
Cu1_3 Cu -0.39344(5) 0.09023(3) 0.23218(3)
Cu2A Cu 1.41103(5) -0.26384(4) 0.59034(3)
Cu2_2 Cu 1.58897(5) 0.26384(4) 0.40966(3)
Cu2_3 Cu -0.41103(5) 0.26384(4) 0.40966(3)
C39A C 1.1681(6) -0.0207(4) 0.5359(3)
H5A H 1.424(4) -0.190(3) 0.435(2)
H6_2 H 0.199(4) 0.232(3) 0.271(2)
H7_2 H -0.134(4) 0.253(3) 0.230(2)
H8A H 1.373(4) -0.139(3) 1.047(3)
H9_2 H -0.015(4) 0.351(3) 0.296(2)
H10_2 H 0.075(4) 0.140(3) 0.199(2)
H11A H 1.061(4) 0.096(3) 1.009(2)
H12A H 1.784(4) -0.556(3) 0.662(2)
H13A H 1.217(4) -0.020(3) 1.029(3)
H14A H 1.455(4) -0.402(3) 0.708(2)
H15A H 1.168(4) 0.059(3) 0.773(3)
H16_2 H 0.255(4) 0.123(3) 0.363(3)
H17A H 1.779(4) -0.412(3) 0.444(2)
H18_2 H 0.144(4) 0.034(3) 0.286(2)
H19A H 1.679(4) -0.297(3) 0.938(2)
H20_2 H 0.073(4) 0.247(3) 0.383(2)
H21_2 H -0.046(4) 0.152(3) 0.318(2)
H22A H 1.743(4) -0.317(3) 0.347(3)
H23A H 1.801(4) -0.475(3) 0.557(3)
H24A H 1.620(4) -0.219(3) 0.829(2)
H25A H 1.569(4) -0.210(3) 0.334(3)
H26A H 1.041(4) 0.132(3) 0.876(2)
H27A H 1.552(4) -0.247(3) 1.054(3)
H28A H 1.619(4) -0.515(3) 0.741(3)
O9? O 0.0487(12) 0.6657(16) 0.4208(6)
loop_
_geom_bond_atom_site_label_1
_geom_bond_atom_site_label_2
_geom_bond_site_symmetry_1
_geom_bond_site_symmetry_2
C1 C2 1_555 1_555
C2 C3 1_555 1_555
C3 C4 1_555 1_555
C4 C5 1_555 1_555
C5 C6 1_555 1_555
C6 C7 1_555 1_555
C7 C8 1_555 1_555
C8 C9 1_555 1_555
C9 C10 1_555 1_555
C10 N2 1_555 1_555
C11 C12 1_555 1_555
C12 C13 1_555 1_555
C13 C14 1_555 1_555
C14 C15 1_555 1_555
C15 C16 1_555 1_555
C16 C17 1_555 1_555
C17 C18 1_555 1_555
C18 C19 1_555 1_555
C19 C20 1_555 1_555
C20 N4 1_555 1_555
C21 O1 1_555 1_555
C22 H1 1_555 1_555
H2 C22 1_555 1_555
C23 H3 1_555 1_555
H4 C23 1_555 1_555
C24 C25 1_555 1_555
C25 C26 1_555 1_555
C26 C27 1_555 1_555
C27 C28 1_555 1_555
C28 C29 1_555 1_555
C29 O5 1_555 1_555
C30 C32 1_555 1_555
C31 C32 1_555 1_555
C32 C33 1_555 1_555
C33 C34 1_555 1_555
C34 C35 1_555 1_555
C35 N8 1_555 1_555
C36 C34 1_555 1_555
C37 C38 1_555 1_555
C38 H30 1_555 1_555
N1 C1 1_555 1_555
N2 C6 1_555 1_555
N3 C11 1_555 1_555
N4 C16 1_555 1_555
N5 C30 1_555 1_555
N6 C31 1_555 1_555
N7 C36 1_555 1_555
O1 Cu2 1_555 1_555
O2 C21 1_555 1_555
O3 C24 1_555 1_555
O4 C24 1_555 1_555
O5 Cu1_2 1_555 1_555
O6 C29 1_555 1_555
O7 C33 1_555 1_555
Cu1 N1 1_555 1_555
Cu2 N3 1_555 1_555
C39 C21 1_555 1_555
H5 C11 1_555 1_555
H6 C27 1_555 1_555
H7 C25 1_555 1_555
H8 C4 1_555 1_555
H9 C25 1_555 1_555
H10 C27 1_555 1_555
H11 C8 1_555 1_555
H12 C18 1_555 1_555
H13 C7 1_555 1_555
H14 C20 1_555 1_555
H15 C10 1_555 1_555
H16 C28 1_555 1_555
H17 C14 1_555 1_555
H18 C28 1_555 1_555
H19 C2 1_555 1_555
H20 C26 1_555 1_555
H21 C26 1_555 1_555
H22 C13 1_555 1_555
H23 C17 1_555 1_555
H24 C1 1_555 1_555
H25 C12 1_555 1_555
H26 C9 1_555 1_555
H27 C3 1_555 1_555
H28 C19 1_555 1_555
H29 C37 1_555 1_555
H31 C37 1_555 1_555
H32 C38 1_555 1_555
H33 C38 1_555 1_555
C1A C2A 1_555 1_555
C2A C3A 1_555 1_555
C3A C4A 1_555 1_555
C4A C5A 1_555 1_555
C5A C6A 1_555 1_555
C6A C7A 1_555 1_555
C7A C8A 1_555 1_555
C8A C9A 1_555 1_555
C9A C10A 1_555 1_555
C10A N2A 1_555 1_555
C11A C12A 1_555 1_555
C12A C13A 1_555 1_555
C13A C14A 1_555 1_555
C14A C15A 1_555 1_555
C15A C16A 1_555 1_555
C16A C17A 1_555 1_555
C17A C18A 1_555 1_555
C18A C19A 1_555 1_555
C19A C20A 1_555 1_555
C20A N4A 1_555 1_555
C21A O1A 1_555 1_555
C22A C23 1_555 1_555
H1A C22A 1_555 1_555
H2A C22A 1_555 1_555
C23A C22 1_555 1_555
H3A C23A 1_555 1_555
H4A C23A 1_555 1_555
C24_2 C25_2 1_555 1_555
C25_2 C26_2 1_555 1_555
C26_2 C27_2 1_555 1_555
C27_2 C28_2 1_555 1_555
C28_2 C29_2 1_555 1_555
C29_2 O5_2 1_555 1_555
N1A C1A 1_555 1_555
N2A C6A 1_555 1_555
N3A C11A 1_555 1_555
N4A C16A 1_555 1_555
O1A Cu2A 1_555 1_555
O2A C21A 1_555 1_555
O3_2 C24_2 1_555 1_555
O3A Cu1A 1_555 1_555
O4_2 C24_2 1_555 1_555
O5_2 Cu1 1_555 1_555
O5A Cu1A 1_555 1_555
O6_2 C29_2 1_555 1_555
Cu1A N1A 1_555 1_555
Cu1_3 O3_2 1_555 1_555
Cu2A N3A 1_555 1_555
Cu2_2 O5 1_555 1_555
Cu2_3 O3_2 1_555 1_555
C39A C21A 1_555 1_555
H5A C11A 1_555 1_555
H6_2 C27_2 1_555 1_555
H7_2 C25_2 1_555 1_555
H8A C4A 1_555 1_555
H9_2 C25_2 1_555 1_555
H10_2 C27_2 1_555 1_555
H11A C8A 1_555 1_555
H12A C18A 1_555 1_555
H13A C7A 1_555 1_555
H14A C20A 1_555 1_555
H15A C10A 1_555 1_555
H16_2 C28_2 1_555 1_555
H17A C14A 1_555 1_555
H18_2 C28_2 1_555 1_555
H19A C2A 1_555 1_555
H20_2 C26_2 1_555 1_555
H21_2 C26_2 1_555 1_555
H22A C13A 1_555 1_555
H23A C17A 1_555 1_555
H24A C1A 1_555 1_555
H25A C12A 1_555 1_555
H26A C9A 1_555 1_555
H27A C3A 1_555 1_555
H28A C19A 1_555 1_555
C5 N1 1_555 1_555
C15 N3 1_555 1_555
C22 C39 1_555 1_555
C23 C39 1_555 1_555
C37 O7 1_555 1_555
N2 Cu1 1_555 1_555
N4 Cu2 1_555 1_555
O2 Cu1 1_555 1_555
O3 Cu1 1_555 1_555
O3 Cu2 1_555 1_555
Cu2 O5_2 1_555 1_555
C5A N1A 1_555 1_555
C15A N3A 1_555 1_555
C22A C39A 1_555 1_555
C23A C39A 1_555 1_555
N2A Cu1A 1_555 1_555
N4A Cu2A 1_555 1_555
O2A Cu1A 1_555 1_555
O3A Cu2A 1_555 1_555
O5A Cu2A 1_555 1_555

#END
