
#######################################################################
#
#                 Cambridge Crystallographic Data Centre
#                                CCDC 
#
#######################################################################
#
# If this CIF has been generated from an entry in the Cambridge 
# Structural Database, then it will include bibliographic, chemical, 
# crystal, experimental, refinement or atomic coordinate data resulting 
# from the CCDC's data processing and validation procedures.
#
#######################################################################

data_JIMQAY01
_symmetry_cell_setting           tetragonal
_symmetry_space_group_name_H-M   'I 41'
_symmetry_Int_Tables_number      80
_space_group_name_Hall           'I 4bw'
loop_
_symmetry_equiv_pos_site_id
_symmetry_equiv_pos_as_xyz
1 x,y,z
2 1/2-x,1/2-y,1/2+z
3 -y,1/2+x,1/4+z
4 1/2+y,-x,3/4+z
5 1/2+x,1/2+y,1/2+z
6 -x,-y,z
7 1/2-y,x,3/4+z
8 y,1/2-x,1/4+z
_cell_length_a                   20.2631(3)
_cell_length_b                   20.2631(3)
_cell_length_c                   13.8155(5)
_cell_angle_alpha                90
_cell_angle_beta                 90
_cell_angle_gamma                90
_cell_volume                     5672.55
loop_
_atom_site_label
_atom_site_type_symbol
_atom_site_fract_x
_atom_site_fract_y
_atom_site_fract_z
Mn1 Mn 0.349055(11) 0.367178(11) 0.783541(16)
O1 O 0.41848(6) 0.37910(6) 0.67217(9)
O2 O 0.42000(8) 0.27624(7) 0.61515(10)
O3 O 0.26516(6) 0.38900(5) 0.68894(8)
O4 O 0.17121(6) 0.42991(6) 0.62999(8)
O5 O 0.33074(7) 0.26066(6) 0.75730(11)
N1 N 0.29625(6) 0.37716(7) 0.92578(10)
N2 N 0.37705(6) 0.46699(7) 0.84068(10)
C1 C 0.43787(9) 0.33494(9) 0.61430(13)
C2 C 0.48583(9) 0.35689(9) 0.53725(15)
C3 C 0.46280(10) 0.39458(10) 0.46076(14)
C4 C 0.50687(12) 0.41411(11) 0.38827(16)
C5 C 0.57306(12) 0.39770(12) 0.39247(16)
C6 C 0.59451(12) 0.36018(13) 0.46940(17)
C7 C 0.55238(10) 0.33886(11) 0.54298(15)
C8 C 0.39220(12) 0.41624(12) 0.45352(16)
C9 C 0.61985(15) 0.42349(17) 0.3160(2)
C10 C 0.57768(14) 0.30030(15) 0.6273(2)
C11 C 0.21978(8) 0.43211(8) 0.68571(11)
C12 C 0.22501(8) 0.49170(8) 0.75090(12)
C13 C 0.19020(8) 0.49411(8) 0.83792(12)
C14 C 0.19724(9) 0.54976(9) 0.89659(13)
C15 C 0.23579(9) 0.60283(9) 0.86833(14)
C16 C 0.26784(8) 0.59983(8) 0.77922(15)
C17 C 0.26377(8) 0.54482(8) 0.72034(12)
C18 C 0.14456(9) 0.43929(10) 0.86716(14)
C19 C 0.24272(13) 0.66314(11) 0.9318(2)
C20 C 0.29976(12) 0.54213(12) 0.62615(15)
C21 C 0.25940(8) 0.33186(9) 0.96859(13)
C22 C 0.23314(9) 0.33997(9) 1.06139(13)
C23 C 0.24681(9) 0.39667(10) 1.11116(13)
C24 C 0.28533(9) 0.44576(9) 1.06821(12)
C25 C 0.30975(8) 0.43369(8) 0.97449(11)
C26 C 0.30123(10) 0.50706(10) 1.11461(14)
C27 C 0.34056(10) 0.55160(10) 1.07215(14)
C28 C 0.36839(9) 0.53964(9) 0.97884(12)
C29 C 0.35253(8) 0.48124(8) 0.92935(12)
C30 C 0.41271(9) 0.58339(9) 0.93361(15)
C31 C 0.43816(9) 0.56818(9) 0.84535(14)
C32 C 0.41858(8) 0.50933(8) 0.80049(13)
H1 H 0.4901(11) 0.4395(11) 0.3367(17)
H2 H 0.3563(12) 0.2558(12) 0.7177(19)
H3 H 0.3463(11) 0.2465(11) 0.8081(18)
H4 H 0.6359(13) 0.3504(13) 0.473(2)
H5 H 0.3880(11) 0.4629(13) 0.4811(16)
H6 H 0.3644(16) 0.3900(17) 0.483(3)
H7 H 0.3737(13) 0.4140(13) 0.382(2)
H8 H 0.5865(16) 0.4446(16) 0.252(3)
H9 H 0.6459(13) 0.4638(13) 0.346(2)
H10 H 0.6506(13) 0.3868(13) 0.3087(18)
H11 H 0.5480(12) 0.2688(11) 0.6439(16)
H12 H 0.5791(14) 0.3275(13) 0.686(2)
H13 H 0.6239(16) 0.2862(15) 0.615(3)
H14 H 0.1766(9) 0.5519(9) 0.9612(13)
H15 H 0.2965(11) 0.6355(11) 0.7556(16)
H16 H 0.1018(13) 0.4461(12) 0.8355(19)
H17 H 0.1401(11) 0.4353(11) 0.9391(18)
H18 H 0.1576(11) 0.3934(12) 0.8430(16)
H19 H 0.2100(14) 0.6943(14) 0.921(2)
H20 H 0.2373(14) 0.6555(14) 0.996(3)
H21 H 0.2861(16) 0.6815(15) 0.928(2)
H22 H 0.3367(16) 0.5727(16) 0.620(2)
H23 H 0.2738(14) 0.5293(14) 0.579(2)
H24 H 0.3255(15) 0.5035(15) 0.622(2)
H25 H 0.2508(9) 0.2939(9) 0.9301(13)
H26 H 0.2071(10) 0.3057(10) 1.0909(15)
H27 H 0.2311(11) 0.4030(11) 1.1726(17)
H28 H 0.2814(13) 0.5134(13) 1.178(2)
H29 H 0.3546(10) 0.5971(11) 1.1037(16)
H30 H 0.4264(11) 0.6263(12) 0.9700(16)
H31 H 0.4682(11) 0.5959(11) 0.8135(15)
H32 H 0.4369(9) 0.4996(10) 0.7395(15)
Mn1F Mn 0.132822(11) 0.349055(11) 0.533541(16)
O4G O 0.42991(6) 0.32879(6) 0.87999(8)
loop_
_geom_bond_atom_site_label_1
_geom_bond_atom_site_label_2
_geom_bond_site_symmetry_1
_geom_bond_site_symmetry_2
Mn1 O1 1_555 1_555
O1 C1 1_555 1_555
O2 C1 1_555 1_555
O3 Mn1 1_555 1_555
O4 C11 1_555 1_555
O5 Mn1 1_555 1_555
N1 Mn1 1_555 1_555
N2 Mn1 1_555 1_555
C1 C2 1_555 1_555
C2 C3 1_555 1_555
C3 C4 1_555 1_555
C4 C5 1_555 1_555
C5 C6 1_555 1_555
C6 C7 1_555 1_555
C7 C2 1_555 1_555
C8 C3 1_555 1_555
C9 C5 1_555 1_555
C10 C7 1_555 1_555
C11 O3 1_555 1_555
C12 C11 1_555 1_555
C13 C12 1_555 1_555
C14 C13 1_555 1_555
C15 C14 1_555 1_555
C16 C15 1_555 1_555
C17 C12 1_555 1_555
C18 C13 1_555 1_555
C19 C15 1_555 1_555
C20 C17 1_555 1_555
C21 N1 1_555 1_555
C22 C21 1_555 1_555
C23 C22 1_555 1_555
C24 C23 1_555 1_555
C25 N1 1_555 1_555
C26 C24 1_555 1_555
C27 C26 1_555 1_555
C28 C27 1_555 1_555
C29 N2 1_555 1_555
C30 C28 1_555 1_555
C31 C30 1_555 1_555
C32 N2 1_555 1_555
H1 C4 1_555 1_555
H2 O5 1_555 1_555
H3 O5 1_555 1_555
H4 C6 1_555 1_555
H5 C8 1_555 1_555
H6 C8 1_555 1_555
H7 C8 1_555 1_555
H8 C9 1_555 1_555
H9 C9 1_555 1_555
H10 C9 1_555 1_555
H11 C10 1_555 1_555
H12 C10 1_555 1_555
H13 C10 1_555 1_555
H14 C14 1_555 1_555
H15 C16 1_555 1_555
H16 C18 1_555 1_555
H17 C18 1_555 1_555
H18 C18 1_555 1_555
H19 C19 1_555 1_555
H20 C19 1_555 1_555
H21 C19 1_555 1_555
H22 C20 1_555 1_555
H23 C20 1_555 1_555
H24 C20 1_555 1_555
H25 C21 1_555 1_555
H26 C22 1_555 1_555
H27 C23 1_555 1_555
H28 C26 1_555 1_555
H29 C27 1_555 1_555
H30 C30 1_555 1_555
H31 C31 1_555 1_555
H32 C32 1_555 1_555
Mn1F O4 1_555 1_555
O4G Mn1 1_555 1_555
C16 C17 1_555 1_555
C24 C25 1_555 1_555
C25 C29 1_555 1_555
C28 C29 1_555 1_555
C31 C32 1_555 1_555

#END
