
#######################################################################
#
#                 Cambridge Crystallographic Data Centre
#                                CCDC 
#
#######################################################################
#
# If this CIF has been generated from an entry in the Cambridge 
# Structural Database, then it will include bibliographic, chemical, 
# crystal, experimental, refinement or atomic coordinate data resulting 
# from the CCDC's data processing and validation procedures.
#
#######################################################################

data_JIMQEC
_symmetry_cell_setting           monoclinic
_symmetry_space_group_name_H-M   'P 21/n'
_symmetry_Int_Tables_number      14
_space_group_name_Hall           '-P 2yn'
loop_
_symmetry_equiv_pos_site_id
_symmetry_equiv_pos_as_xyz
1 x,y,z
2 1/2-x,1/2+y,1/2-z
3 -x,-y,-z
4 1/2+x,1/2-y,1/2+z
_cell_length_a                   7.5438(6)
_cell_length_b                   14.3201(11)
_cell_length_c                   10.8608(9)
_cell_angle_alpha                90
_cell_angle_beta                 94.565(4)
_cell_angle_gamma                90
_cell_volume                     1169.55
loop_
_atom_site_label
_atom_site_type_symbol
_atom_site_fract_x
_atom_site_fract_y
_atom_site_fract_z
Sm1 Sm 0.126003(15) 0.247174(7) 0.461277(9)
O1 O 0.3740(2) 0.16991(11) 0.58465(14)
O2 O 0.1258(2) 0.07681(11) 0.42127(17)
O3 O 0.1872(2) 0.31113(10) 0.66924(13)
O4 O 0.3358(3) 0.20782(12) 0.30992(15)
O5 O 0.3527(2) 0.30632(11) 0.84845(14)
O6 O -0.0596(2) 0.17264(11) 0.61860(14)
O7 O 0.5465(2) 0.16805(11) 0.76222(14)
O8 O 0.3250(2) 0.38284(13) 0.46262(15)
O9 O -0.0904(2) 0.36804(12) 0.50216(14)
C1 C 0.3084(3) 0.27921(16) 0.7400(2)
C2 C 0.4210(3) 0.19842(15) 0.69185(19)
H1 H -0.0016(9) 0.1349(6) 0.6622(8)
H2 H -0.1455(8) 0.1461(8) 0.5834(9)
H4 H -0.0678(15) 0.4034(6) 0.5605(6)
H5 H 0.4024(9) 0.3931(10) 0.4155(6)
H6 H -0.1627(11) 0.3925(9) 0.4518(6)
H7 H 0.3346(19) 0.4194(6) 0.5207(6)
H11 H 0.363(2) 0.2392(4) 0.2511(7)
H12 H 0.0584(8) 0.0478(8) 0.3726(8)
H13 H 0.367(2) 0.1537(3) 0.3004(12)
H14 H 0.2041(8) 0.0423(7) 0.4514(10)
Sm1C Sm 0.626003(15) 0.252826(7) 0.961277(9)
O5C O -0.1473(2) 0.19368(11) 0.34845(14)
O7C O 0.0465(2) 0.33195(11) 0.26222(14)
Cl1 Cl 0.12108(8) 0.03125(5) 0.80721(6)
O10 O 0.4531(2) 0.03358(12) 0.22298(17)
H3 H 0.4130(9) -0.0197(4) 0.223(2)
H10 H 0.5608(6) 0.0308(9) 0.217(2)
O11 O 0.6681(2) 0.07385(12) 0.49835(16)
H8 H 0.6923(10) 0.1070(7) 0.4405(6)
H9 H 0.5746(7) 0.0921(10) 0.5244(8)
loop_
_geom_bond_atom_site_label_1
_geom_bond_atom_site_label_2
_geom_bond_site_symmetry_1
_geom_bond_site_symmetry_2
Sm1 O1 1_555 1_555
O1 C2 1_555 1_555
O2 Sm1 1_555 1_555
O3 Sm1 1_555 1_555
O4 Sm1 1_555 1_555
O5 C1 1_555 1_555
O6 Sm1 1_555 1_555
O7 C2 1_555 1_555
O8 Sm1 1_555 1_555
O9 Sm1 1_555 1_555
O10 H3 1_555 1_555
O11 H8 1_555 1_555
C1 O3 1_555 1_555
C2 C1 1_555 1_555
H1 O6 1_555 1_555
H2 O6 1_555 1_555
H4 O9 1_555 1_555
H5 O8 1_555 1_555
H6 O9 1_555 1_555
H7 O8 1_555 1_555
H9 O11 1_555 1_555
H10 O10 1_555 1_555
H11 O4 1_555 1_555
H12 O2 1_555 1_555
H13 O4 1_555 1_555
H14 O2 1_555 1_555
Sm1C O5 1_555 1_555
O5C Sm1 1_555 1_555
O7C Sm1 1_555 1_555
O7 Sm1C 1_555 1_555

#END
