
#######################################################################
#
#                 Cambridge Crystallographic Data Centre
#                                CCDC 
#
#######################################################################
#
# If this CIF has been generated from an entry in the Cambridge 
# Structural Database, then it will include bibliographic, chemical, 
# crystal, experimental, refinement or atomic coordinate data resulting 
# from the CCDC's data processing and validation procedures.
#
#######################################################################

data_JIMRAZ
_symmetry_cell_setting           triclinic
_symmetry_space_group_name_H-M   'P -1'
_symmetry_Int_Tables_number      2
_space_group_name_Hall           '-P 1'
loop_
_symmetry_equiv_pos_site_id
_symmetry_equiv_pos_as_xyz
1 x,y,z
2 -x,-y,-z
_cell_length_a                   8.5666(17)
_cell_length_b                   8.5958(17)
_cell_length_c                   11.422(2)
_cell_angle_alpha                69.64(3)
_cell_angle_beta                 68.35(3)
_cell_angle_gamma                74.88(3)
_cell_volume                     724.386
loop_
_atom_site_label
_atom_site_type_symbol
_atom_site_fract_x
_atom_site_fract_y
_atom_site_fract_z
Co1 Co 0.5000 0.5000 0.0000
O1 O 0.4249(3) 0.7622(3) -0.0619(2)
H1 H 0.3659 0.8091 -0.0051
H2 H 0.5219 0.7831 -0.0867
O5 O 0.2442(3) 0.4681(3) 0.0720(2)
O6 O 0.2439(3) 0.1926(3) 0.1634(3)
O7 O -0.0129(4) 0.3358(4) 0.4088(3)
N1 N -0.1072(4) 0.2528(4) 0.2819(3)
N2 N 0.4843(4) 0.5157(4) 0.1893(2)
C1 C 0.1720(4) 0.3406(4) 0.1330(3)
C2 C -0.0202(5) 0.3786(5) 0.1683(3)
H9 H -0.0581 0.4869 0.1863
H10 H -0.0528 0.3867 0.0934
C3 C -0.0960(5) 0.2429(5) 0.4015(3)
C4 C -0.1859(5) 0.1203(5) 0.5108(4)
H11 H -0.1850 0.1085 0.5947
C5 C -0.2714(6) 0.0220(6) 0.4950(5)
H12 H -0.3270 -0.0576 0.5675
C6 C -0.2775(6) 0.0385(6) 0.3707(5)
H13 H -0.3369 -0.0292 0.3598
C7 C -0.1953(5) 0.1549(5) 0.2663(4)
H14 H -0.1994 0.1679 0.1831
C8 C 0.3946(5) 0.4191(5) 0.3010(3)
H15 H 0.3271 0.3537 0.2964
C9 C 0.3971(5) 0.4113(5) 0.4233(3)
H16 H 0.3319 0.3420 0.4982
C10 C 0.4948(4) 0.5050(4) 0.4349(3)
C11 C 0.5854(5) 0.6088(5) 0.3190(3)
H17 H 0.6523 0.6767 0.3212
C12 C 0.5756(5) 0.6106(5) 0.2008(3)
H18 H 0.6362 0.6821 0.1246
Co1_2 Co 0.5000 0.5000 1.0000
O1A O 0.5751(3) 0.2378(3) 0.0619(2)
H1A H 0.6341 0.1909 0.0051
H2A H 0.4781 0.2169 0.0867
O5A O 0.7558(3) 0.5319(3) -0.0720(2)
O6A O 0.7561(3) 0.8074(3) -0.1634(3)
O7A O 1.0129(4) 0.6642(4) -0.4088(3)
N1A N 1.1072(4) 0.7472(4) -0.2819(3)
N2A N 0.5157(4) 0.4843(4) 0.8107(2)
N2A_2 N 0.5157(4) 0.4843(4) -0.1893(2)
C1A C 0.8280(4) 0.6594(4) -0.1330(3)
C2A C 1.0202(5) 0.6214(5) -0.1683(3)
H9A H 1.0581 0.5131 -0.1863
H10A H 1.0528 0.6133 -0.0934
C3A C 1.0960(5) 0.7571(5) -0.4015(3)
C4A C 1.1859(5) 0.8797(5) -0.5108(4)
H11A H 1.1850 0.8915 -0.5947
C5A C 1.2714(6) 0.9780(6) -0.4950(5)
H12A H 1.3270 1.0576 -0.5675
C6A C 1.2775(6) 0.9615(6) -0.3707(5)
H13A H 1.3369 1.0292 -0.3598
C7A C 1.1953(5) 0.8451(5) -0.2663(4)
H14A H 1.1994 0.8321 -0.1831
C8A C 0.6054(5) 0.5809(5) 0.6990(3)
H15A H 0.6729 0.6463 0.7036
C9A C 0.6029(5) 0.5887(5) 0.5767(3)
H16A H 0.6681 0.6580 0.5018
C10A C 0.5052(4) 0.4950(4) 0.5651(3)
C11A C 0.4146(5) 0.3912(5) 0.6810(3)
H17A H 0.3477 0.3233 0.6788
C12A C 0.4244(5) 0.3894(5) 0.7992(3)
H18A H 0.3638 0.3179 0.8754
O2 O 0.1983(4) 0.9006(4) 0.1292(3)
H3 H 0.2073 0.9829 0.1456
H4 H 0.1399 0.8417 0.1962
O3 O 0.0034(5) 0.6836(4) 0.3432(3)
H5 H -0.0013 0.5857 0.3529
H6 H 0.0069 0.6904 0.4120
O4 O 0.1125(10) 1.1704(10) -0.0850(8)
H7 H 0.1357 1.0938 -0.0240
H8 H 0.0312 1.1518 -0.0968
loop_
_geom_bond_atom_site_label_1
_geom_bond_atom_site_label_2
_geom_bond_site_symmetry_1
_geom_bond_site_symmetry_2
Co1 O1 1_555 1_555
O1 H1 1_555 1_555
H2 O1 1_555 1_555
O2 H3 1_555 1_555
H4 O2 1_555 1_555
O3 H5 1_555 1_555
H6 O3 1_555 1_555
O4 H7 1_555 1_555
H8 O4 1_555 1_555
O5 Co1 1_555 1_555
O6 C1 1_555 1_555
O7 C3 1_555 1_555
N1 C2 1_555 1_555
N2 Co1 1_555 1_555
C1 O5 1_555 1_555
C2 C1 1_555 1_555
H9 C2 1_555 1_555
H10 C2 1_555 1_555
C3 N1 1_555 1_555
C4 C3 1_555 1_555
H11 C4 1_555 1_555
C5 C4 1_555 1_555
H12 C5 1_555 1_555
C6 C5 1_555 1_555
H13 C6 1_555 1_555
C7 N1 1_555 1_555
H14 C7 1_555 1_555
C8 N2 1_555 1_555
H15 C8 1_555 1_555
C9 C8 1_555 1_555
H16 C9 1_555 1_555
C10 C9 1_555 1_555
C11 C10 1_555 1_555
H17 C11 1_555 1_555
C12 N2 1_555 1_555
H18 C12 1_555 1_555
Co1_2 N2A 1_555 1_555
O1A Co1 1_555 1_555
H1A O1A 1_555 1_555
H2A O1A 1_555 1_555
O5A Co1 1_555 1_555
O6A C1A 1_555 1_555
O7A C3A 1_555 1_555
N1A C2A 1_555 1_555
N2A C8A 1_555 1_555
N2A_2 Co1 1_555 1_555
C1A O5A 1_555 1_555
C2A C1A 1_555 1_555
H9A C2A 1_555 1_555
H10A C2A 1_555 1_555
C3A N1A 1_555 1_555
C4A C3A 1_555 1_555
H11A C4A 1_555 1_555
C5A C4A 1_555 1_555
H12A C5A 1_555 1_555
C6A C5A 1_555 1_555
H13A C6A 1_555 1_555
C7A N1A 1_555 1_555
H14A C7A 1_555 1_555
C8A H15A 1_555 1_555
C9A C8A 1_555 1_555
H16A C9A 1_555 1_555
C10A C10 1_555 1_555
C11A C10A 1_555 1_555
H17A C11A 1_555 1_555
C12A N2A 1_555 1_555
H18A C12A 1_555 1_555
C6 C7 1_555 1_555
C11 C12 1_555 1_555
C6A C7A 1_555 1_555
C9A C10A 1_555 1_555
C11A C12A 1_555 1_555

#END
