
#######################################################################
#
#                 Cambridge Crystallographic Data Centre
#                                CCDC 
#
#######################################################################
#
# If this CIF has been generated from an entry in the Cambridge 
# Structural Database, then it will include bibliographic, chemical, 
# crystal, experimental, refinement or atomic coordinate data resulting 
# from the CCDC's data processing and validation procedures.
#
#######################################################################

data_JIMYEK
_symmetry_cell_setting           monoclinic
_symmetry_space_group_name_H-M   'P 21/c'
_symmetry_Int_Tables_number      14
_space_group_name_Hall           '-P 2ybc'
loop_
_symmetry_equiv_pos_site_id
_symmetry_equiv_pos_as_xyz
1 x,y,z
2 -x,1/2+y,1/2-z
3 -x,-y,-z
4 x,1/2-y,1/2+z
_cell_length_a                   11.855(2)
_cell_length_b                   13.477(3)
_cell_length_c                   8.4804(17)
_cell_angle_alpha                90
_cell_angle_beta                 96.42(3)
_cell_angle_gamma                90
_cell_volume                     1346.42
loop_
_atom_site_label
_atom_site_type_symbol
_atom_site_fract_x
_atom_site_fract_y
_atom_site_fract_z
Sm1 Sm -0.163810(16) 0.408480(14) 0.01259(2)
O1 O -0.0388(2) 0.3419(2) -0.1658(4)
H1 H 0.021(3) 0.383(3) -0.192(6)
H2 H -0.035(4) 0.2798(17) -0.218(5)
O2 O -0.2222(3) 0.2384(2) 0.0364(4)
H3 H -0.243(4) 0.200(3) -0.055(3)
H4 H -0.240(4) 0.203(3) 0.128(3)
N1 N -0.3408(3) 0.5259(3) -0.0376(4)
O3 O -0.2896(2) 0.3705(2) -0.2143(4)
O4 O -0.4477(3) 0.3913(2) -0.3806(4)
C1 C -0.3827(4) 0.4163(3) -0.2650(5)
C2 C -0.4074(3) 0.5094(3) -0.1751(5)
C3 C -0.4911(4) 0.5737(3) -0.2372(6)
H5 H -0.5362 0.5585 -0.3339
C4 C -0.5086(4) 0.6608(3) -0.1568(6)
H6 H -0.5651 0.7069 -0.1976
C5 C -0.4414(4) 0.6788(3) -0.0152(6)
H7 H -0.4509 0.7378 0.0432
C6 C -0.3602(4) 0.6096(3) 0.0399(6)
H8 H -0.3157 0.6222 0.1382
O5 O -0.0123(2) 0.3348(2) 0.1964(4)
O6 O 0.0952(3) 0.4532(2) 0.1178(4)
O7 O 0.2302(3) 0.5997(2) 0.7171(4)
O8 O 0.1337(2) 0.4681(2) 0.7729(3)
C7 C 0.0825(3) 0.3777(3) 0.2001(5)
C8 C 0.1795(3) 0.3373(3) 0.3126(5)
H9 H 0.2524 0.3610 0.2799
H10 H 0.1792 0.2639 0.3075
C9 C 0.1694(4) 0.3708(3) 0.4851(5)
H11 H 0.0931 0.3531 0.5131
H12 H 0.2261 0.3345 0.5579
C10 C 0.1879(4) 0.4822(3) 0.5089(5)
H13 H 0.2627 0.4999 0.4755
H14 H 0.1293 0.5180 0.4383
C11 C 0.1837(3) 0.5179(3) 0.6746(5)
Sm1B Sm 0.163810(16) 0.591520(14) -0.01259(2)
Sm1B_2 Sm 0.163810(16) 0.591520(14) 0.98741(2)
O6B O -0.0952(3) 0.5468(2) -0.1178(4)
O7B O -0.2302(3) 0.4003(2) 0.2829(4)
O8B O -0.1337(2) 0.5319(2) 0.2271(3)
loop_
_geom_bond_atom_site_label_1
_geom_bond_atom_site_label_2
_geom_bond_site_symmetry_1
_geom_bond_site_symmetry_2
Sm1 O1 1_555 1_555
O1 H1 1_555 1_555
H2 O1 1_555 1_555
O2 Sm1 1_555 1_555
H3 O2 1_555 1_555
H4 O2 1_555 1_555
N1 Sm1 1_555 1_555
O3 Sm1 1_555 1_555
O4 C1 1_555 1_555
C1 O3 1_555 1_555
C2 N1 1_555 1_555
C3 C2 1_555 1_555
H5 C3 1_555 1_555
C4 C3 1_555 1_555
H6 C4 1_555 1_555
C5 C4 1_555 1_555
H7 C5 1_555 1_555
C6 N1 1_555 1_555
H8 C6 1_555 1_555
O5 Sm1 1_555 1_555
O6 C7 1_555 1_555
O7 C11 1_555 1_555
O8 C11 1_555 1_555
C7 O5 1_555 1_555
C8 C7 1_555 1_555
H9 C8 1_555 1_555
H10 C8 1_555 1_555
C9 C8 1_555 1_555
H11 C9 1_555 1_555
H12 C9 1_555 1_555
C10 C9 1_555 1_555
H13 C10 1_555 1_555
H14 C10 1_555 1_555
C11 C10 1_555 1_555
Sm1B O6 1_555 1_555
Sm1B_2 O7 1_555 1_555
O6B Sm1 1_555 1_555
O7B Sm1 1_555 1_555
O8B Sm1 1_555 1_555
C1 C2 1_555 1_555
C5 C6 1_555 1_555
O8 Sm1B_2 1_555 1_555

#END
