
#######################################################################
#
#                 Cambridge Crystallographic Data Centre
#                                CCDC 
#
#######################################################################
#
# If this CIF has been generated from an entry in the Cambridge 
# Structural Database, then it will include bibliographic, chemical, 
# crystal, experimental, refinement or atomic coordinate data resulting 
# from the CCDC's data processing and validation procedures.
#
#######################################################################

data_JINFES
_symmetry_cell_setting           monoclinic
_symmetry_space_group_name_H-M   'C 2/c'
_symmetry_Int_Tables_number      15
_space_group_name_Hall           '-C 2yn'
loop_
_symmetry_equiv_pos_site_id
_symmetry_equiv_pos_as_xyz
1 x,y,z
2 1/2+x,1/2+y,z
3 -x,y,1/2-z
4 1/2-x,1/2+y,1/2-z
5 -x,-y,-z
6 1/2-x,1/2-y,-z
7 x,-y,1/2+z
8 1/2+x,1/2-y,1/2+z
_cell_length_a                   13.668(14)
_cell_length_b                   8.401(9)
_cell_length_c                   12.406(13)
_cell_angle_alpha                90
_cell_angle_beta                 96.961(13)
_cell_angle_gamma                90
_cell_volume                     1414.02
loop_
_atom_site_label
_atom_site_type_symbol
_atom_site_fract_x
_atom_site_fract_y
_atom_site_fract_z
Cu1 Cu 0.06248(4) 1.06087(7) 0.32592(5)
N1 N 0.1829(3) 0.9909(5) 0.4203(3)
O1 O 0.3684(2) 0.7149(5) 0.2702(3)
O2 O 0.4849(2) 0.7120(4) 0.4131(3)
O3 O 0.0000 0.7526(10) 0.2500
C1 C 0.4038(3) 0.7547(6) 0.3640(4)
C2 C 0.2463(3) 0.8986(6) 0.3751(4)
H1 H 0.2258 0.8558 0.3069
C3 C 0.3403(3) 0.8623(6) 0.4228(4)
C4 C 0.3700(4) 0.9291(6) 0.5236(4)
H2 H 0.4325 0.9080 0.5591
C5 C 0.3068(4) 1.0261(6) 0.5705(4)
H3 H 0.3261 1.0736 0.6374
C6 C 0.2136(4) 1.0522(6) 0.5166(4)
H4 H 0.1704 1.1161 0.5498
C7 C 0.0000 0.8857(12) 0.2500
Cu1C Cu 0.43752(4) 1.56087(7) 0.17408(5)
Cu1B Cu -0.06248(4) 1.06087(7) 0.17408(5)
Cu1C_2 Cu 0.43752(4) 0.56087(7) 0.17408(5)
Cu1A Cu 0.56248(4) 0.56087(7) 0.32592(5)
Cu1A_2 Cu 0.56248(4) 1.56087(7) 0.32592(5)
N1C N 0.3171(3) 1.4909(5) 0.0797(3)
O1C O 0.1316(2) 1.2149(5) 0.2298(3)
O1_2 O 0.3684(2) 1.7149(5) 0.2702(3)
O2C O 0.0151(2) 1.2120(4) 0.0869(3)
O2A O -0.0151(2) 1.2120(4) 0.4131(3)
O2B O 0.5151(2) 1.7120(4) 0.0869(3)
C1C C 0.0962(3) 1.2547(6) 0.1360(4)
C2C C 0.2537(3) 1.3986(6) 0.1249(4)
H1C H 0.2742 1.3558 0.1931
C3C C 0.1597(3) 1.3623(6) 0.0772(4)
C4C C 0.1300(4) 1.4291(6) -0.0236(4)
H2C H 0.0675 1.4080 -0.0591
C5C C 0.1932(4) 1.5261(6) -0.0705(4)
H3C H 0.1739 1.5736 -0.1374
C6C C 0.2864(4) 1.5522(6) -0.0166(4)
H4C H 0.3296 1.6161 -0.0498
C7A C 0.5000 1.3857(12) 0.2500
loop_
_geom_bond_atom_site_label_1
_geom_bond_atom_site_label_2
_geom_bond_site_symmetry_1
_geom_bond_site_symmetry_2
Cu1 N1 1_555 1_555
N1 C2 1_555 1_555
O1 C1 1_555 1_555
O2 C1 1_555 1_555
O3 C7 1_555 1_555
C1 C3 1_555 1_555
C2 H1 1_555 1_555
C3 C2 1_555 1_555
C4 C3 1_555 1_555
H2 C4 1_555 1_555
C5 C4 1_555 1_555
H3 C5 1_555 1_555
C6 N1 1_555 1_555
H4 C6 1_555 1_555
C7 Cu1 1_555 1_555
Cu1C Cu1A_2 1_555 1_555
Cu1B Cu1 1_555 1_555
Cu1C_2 O1 1_555 1_555
Cu1A O2 1_555 1_555
Cu1A_2 C7A 1_555 1_555
N1C Cu1C 1_555 1_555
O1C Cu1 1_555 1_555
O1_2 Cu1C 1_555 1_555
O2C Cu1B 1_555 1_555
O2A Cu1 1_555 1_555
O2B Cu1C 1_555 1_555
C1C O1C 1_555 1_555
C2C N1C 1_555 1_555
H1C C2C 1_555 1_555
C3C C1C 1_555 1_555
C4C C3C 1_555 1_555
H2C C4C 1_555 1_555
C5C C4C 1_555 1_555
H3C C5C 1_555 1_555
C6C N1C 1_555 1_555
H4C C6C 1_555 1_555
C7A Cu1C 1_555 1_555
C5 C6 1_555 1_555
C7 Cu1B 1_555 1_555
Cu1C_2 Cu1A 1_555 1_555
O2C C1C 1_555 1_555
C2C C3C 1_555 1_555
C5C C6C 1_555 1_555

#END
