
#######################################################################
#
#                 Cambridge Crystallographic Data Centre
#                                CCDC 
#
#######################################################################
#
# If this CIF has been generated from an entry in the Cambridge 
# Structural Database, then it will include bibliographic, chemical, 
# crystal, experimental, refinement or atomic coordinate data resulting 
# from the CCDC's data processing and validation procedures.
#
#######################################################################

data_JINFAO
_symmetry_cell_setting           orthorhombic
_symmetry_space_group_name_H-M   'P b c n'
_symmetry_Int_Tables_number      60
_space_group_name_Hall           '-P 2n 2ab'
loop_
_symmetry_equiv_pos_site_id
_symmetry_equiv_pos_as_xyz
1 x,y,z
2 1/2-x,1/2-y,1/2+z
3 -x,y,1/2-z
4 1/2+x,1/2-y,-z
5 -x,-y,-z
6 1/2+x,1/2+y,1/2-z
7 x,-y,1/2+z
8 1/2-x,1/2+y,z
_cell_length_a                   13.728(3)
_cell_length_b                   7.050(2)
_cell_length_c                   13.559(3)
_cell_angle_alpha                90
_cell_angle_beta                 90
_cell_angle_gamma                90
_cell_volume                     1312.27
loop_
_atom_site_label
_atom_site_type_symbol
_atom_site_fract_x
_atom_site_fract_y
_atom_site_fract_z
Cu1 Cu 1.06068(4) 0.12678(9) 0.68611(4)
N1 N 1.1596(3) 0.0763(5) 0.5811(2)
O1 O 1.4675(2) 0.2079(5) 0.3971(2)
O2 O 1.3535(2) 0.2147(5) 0.2789(2)
O3 O 1.0000 -0.2452(9) 0.7500
C1 C 1.2545(3) 0.0555(7) 0.6034(3)
H1 H 1.2712 0.0216 0.6676
C2 C 1.3281(3) 0.0819(6) 0.5359(3)
H2 H 1.3929 0.0675 0.5546
C3 C 1.3047(3) 0.1302(7) 0.4397(3)
C4 C 1.2075(3) 0.1424(7) 0.4149(3)
H3 H 1.1892 0.1683 0.3502
C5 C 1.1376(3) 0.1159(7) 0.4869(3)
H4 H 1.0724 0.1260 0.4692
C6 C 1.3822(3) 0.1851(7) 0.3656(3)
C7 C 1.0000 -0.0848(12) 0.7500
Cu1C Cu 0.56068(4) 0.37322(9) 0.31389(4)
Cu1B Cu 0.93932(4) 0.12678(9) 0.81389(4)
Cu1C_2 Cu 1.56068(4) 0.37322(9) 0.31389(4)
Cu1A Cu 1.43932(4) 0.37322(9) 0.18611(4)
Cu1A_2 Cu 0.43932(4) 0.37322(9) 0.18611(4)
N1C N 0.6596(3) 0.4237(5) 0.4189(2)
O1C O 0.9675(2) 0.2921(5) 0.6029(2)
O1_2 O 0.4675(2) 0.2079(5) 0.3971(2)
O2C O 0.8535(2) 0.2853(5) 0.7211(2)
O2A O 1.1465(2) 0.2853(5) 0.7789(2)
O2B O 0.6465(2) 0.2147(5) 0.2211(2)
C1C C 0.7545(3) 0.4445(7) 0.3966(3)
H1C H 0.7712 0.4784 0.3324
C2C C 0.8281(3) 0.4181(6) 0.4641(3)
H2C H 0.8929 0.4325 0.4454
C3C C 0.8047(3) 0.3698(7) 0.5603(3)
C4C C 0.7075(3) 0.3576(7) 0.5851(3)
H3C H 0.6892 0.3317 0.6498
C5C C 0.6376(3) 0.3841(7) 0.5131(3)
H4C H 0.5724 0.3740 0.5308
C6C C 0.8822(3) 0.3149(7) 0.6344(3)
C7A C 0.5000 0.5848(12) 0.2500
loop_
_geom_bond_atom_site_label_1
_geom_bond_atom_site_label_2
_geom_bond_site_symmetry_1
_geom_bond_site_symmetry_2
Cu1 N1 1_555 1_555
N1 C1 1_555 1_555
O1 C6 1_555 1_555
O2 C6 1_555 1_555
O3 C7 1_555 1_555
C1 H1 1_555 1_555
C2 C1 1_555 1_555
H2 C2 1_555 1_555
C3 C2 1_555 1_555
C4 C3 1_555 1_555
H3 C4 1_555 1_555
C5 N1 1_555 1_555
H4 C5 1_555 1_555
C6 C3 1_555 1_555
C7 Cu1 1_555 1_555
Cu1C Cu1A_2 1_555 1_555
Cu1B Cu1 1_555 1_555
Cu1C_2 O1 1_555 1_555
Cu1A O2 1_555 1_555
Cu1A_2 C7A 1_555 1_555
N1C Cu1C 1_555 1_555
O1C Cu1 1_555 1_555
O1_2 Cu1C 1_555 1_555
O2C Cu1B 1_555 1_555
O2A Cu1 1_555 1_555
O2B Cu1C 1_555 1_555
C1C N1C 1_555 1_555
H1C C1C 1_555 1_555
C2C C1C 1_555 1_555
H2C C2C 1_555 1_555
C3C C2C 1_555 1_555
C4C C3C 1_555 1_555
H3C C4C 1_555 1_555
C5C N1C 1_555 1_555
H4C C5C 1_555 1_555
C6C O1C 1_555 1_555
C7A Cu1C 1_555 1_555
C4 C5 1_555 1_555
C7 Cu1B 1_555 1_555
Cu1C_2 Cu1A 1_555 1_555
O2C C6C 1_555 1_555
C3C C6C 1_555 1_555
C4C C5C 1_555 1_555

#END
