
#######################################################################
#
#                 Cambridge Crystallographic Data Centre
#                                CCDC 
#
#######################################################################
#
# If this CIF has been generated from an entry in the Cambridge 
# Structural Database, then it will include bibliographic, chemical, 
# crystal, experimental, refinement or atomic coordinate data resulting 
# from the CCDC's data processing and validation procedures.
#
#######################################################################

data_JIPKUP
_symmetry_cell_setting           monoclinic
_symmetry_space_group_name_H-M   'C c'
_symmetry_Int_Tables_number      9
_space_group_name_Hall           'C -2yc'
loop_
_symmetry_equiv_pos_site_id
_symmetry_equiv_pos_as_xyz
1 x,y,z
2 x,-y,1/2+z
3 1/2+x,1/2+y,z
4 1/2+x,1/2-y,1/2+z
_cell_length_a                   15.8773(12)
_cell_length_b                   16.5038(10)
_cell_length_c                   8.3804(6)
_cell_angle_alpha                90
_cell_angle_beta                 115.983(5)
_cell_angle_gamma                90
_cell_volume                     1974.01
loop_
_atom_site_label
_atom_site_type_symbol
_atom_site_fract_x
_atom_site_fract_y
_atom_site_fract_z
Er1 Er 0.98790(3) 0.146365(19) 0.25429(4)
Er2 Er 1.23597(3) 0.25725(2) 0.49081(3)
O1 O 1.0998(6) 0.2287(4) 0.5217(9)
O2 O 1.0398(6) 0.1165(4) 0.5658(9)
C1 C 1.0877(7) 0.1797(6) 0.6282(11)
C2 C 1.1319(11) 0.1975(10) 0.8238(14)
H1 H 1.1150 0.1559 0.8845
H2 H 1.1100 0.2489 0.8441
H3 H 1.1988 0.1990 0.8679
O3 O 1.2867(6) 0.1665(6) 0.3299(13)
O4 O 1.1471(5) 0.1406(4) 0.3104(11)
C3 C 1.2181(7) 0.1196(6) 0.2834(13)
C4 C 1.2173(10) 0.0406(8) 0.195(2)
H4 H 1.1594 0.0129 0.1681
H5 H 1.2688 0.0079 0.2734
H6 H 1.2230 0.0505 0.0875
O5 O 1.0091(6) 0.2641(5) 0.1253(11)
O6 O 1.1455(6) 0.3268(5) 0.2448(11)
C5 C 1.0622(7) 0.3201(6) 0.1307(12)
C6 C 1.0231(10) 0.3875(11) -0.003(2)
H7 H 1.0715 0.4264 0.0157
H8 H 0.9727 0.4135 0.0113
H9 H 1.0002 0.3656 -0.1205
O7 O 0.8509(5) 0.1656(5) -0.0302(9)
O8 O 0.9689(5) 0.1068(4) -0.0438(9)
C7 C 0.8930(7) 0.1437(5) -0.1198(12)
C8 C 0.8510(10) 0.1634(10) -0.3151(13)
H10 H 0.8906 0.1423 -0.3651
H11 H 0.7900 0.1392 -0.3737
H12 H 0.8457 0.2211 -0.3308
O9 O 0.8884(6) 0.2470(4) 0.2825(11)
O10 O 0.7918(7) 0.3486(6) 0.2011(15)
C9 C 0.8688(7) 0.3177(7) 0.3024(14)
C10 C 0.9374(13) 0.3686(9) 0.454(2)
H13 H 0.9110 0.4212 0.4505
H14 H 0.9946 0.3741 0.4421
H15 H 0.9501 0.3427 0.5646
O11 O 0.7271(5) 0.1370(5) 0.1476(12)
O12 O 0.8668(5) 0.0774(4) 0.2809(10)
C11 C 0.7813(7) 0.0814(6) 0.2466(12)
C12 C 0.7398(9) 0.0197(8) 0.319(2)
H16 H 0.6745 0.0314 0.2807
H17 H 0.7715 0.0209 0.4466
H18 H 0.7465 -0.0330 0.2778
O13 O 1.0194(6) 0.0072(4) 0.2719(10)
H19 H 1.006(6) -0.016(5) 0.344(9)
H20 H 1.013(11) -0.016(8) 0.181(11)
Er2C Er 0.73597(3) 0.24275(2) -0.00919(3)
O7C O 1.3509(5) 0.3344(5) 0.4698(9)
O9C O 1.3884(6) 0.2530(4) 0.7825(11)
O10C O 1.2918(7) 0.1514(6) 0.7011(15)
O11C O 1.2271(5) 0.3630(5) 0.6476(12)
loop_
_geom_bond_atom_site_label_1
_geom_bond_atom_site_label_2
_geom_bond_site_symmetry_1
_geom_bond_site_symmetry_2
Er1 O1 1_555 1_555
Er2 O1 1_555 1_555
O1 C1 1_555 1_555
O2 Er1 1_555 1_555
C1 O2 1_555 1_555
C2 C1 1_555 1_555
H1 C2 1_555 1_555
H2 C2 1_555 1_555
H3 C2 1_555 1_555
O3 Er2 1_555 1_555
O4 Er1 1_555 1_555
C3 O3 1_555 1_555
C4 C3 1_555 1_555
H4 C4 1_555 1_555
H5 C4 1_555 1_555
H6 C4 1_555 1_555
O5 Er1 1_555 1_555
O6 Er2 1_555 1_555
C5 O5 1_555 1_555
C6 C5 1_555 1_555
H7 C6 1_555 1_555
H8 C6 1_555 1_555
H9 C6 1_555 1_555
O7 Er1 1_555 1_555
O8 Er1 1_555 1_555
C7 O7 1_555 1_555
C8 C7 1_555 1_555
H10 C8 1_555 1_555
H11 C8 1_555 1_555
H12 C8 1_555 1_555
O9 Er1 1_555 1_555
O10 C9 1_555 1_555
C9 O9 1_555 1_555
C10 C9 1_555 1_555
H13 C10 1_555 1_555
H14 C10 1_555 1_555
H15 C10 1_555 1_555
O11 C11 1_555 1_555
O12 Er1 1_555 1_555
C11 O12 1_555 1_555
C12 C11 1_555 1_555
H16 C12 1_555 1_555
H17 C12 1_555 1_555
H18 C12 1_555 1_555
O13 Er1 1_555 1_555
H19 O13 1_555 1_555
H20 O13 1_555 1_555
Er2C O7 1_555 1_555
O7C Er2 1_555 1_555
O9C Er2 1_555 1_555
O10C Er2 1_555 1_555
O11C Er2 1_555 1_555
Er2 O4 1_555 1_555
O4 C3 1_555 1_555
O6 C5 1_555 1_555
O8 C7 1_555 1_555
O9 Er2C 1_555 1_555
O10 Er2C 1_555 1_555
O11 Er2C 1_555 1_555

#END
