
#######################################################################
#
#                 Cambridge Crystallographic Data Centre
#                                CCDC 
#
#######################################################################
#
# If this CIF has been generated from an entry in the Cambridge 
# Structural Database, then it will include bibliographic, chemical, 
# crystal, experimental, refinement or atomic coordinate data resulting 
# from the CCDC's data processing and validation procedures.
#
#######################################################################

data_JIPLUQ
_symmetry_cell_setting           monoclinic
_symmetry_space_group_name_H-M   'P 21/c'
_symmetry_Int_Tables_number      14
_space_group_name_Hall           '-P 2ybc'
loop_
_symmetry_equiv_pos_site_id
_symmetry_equiv_pos_as_xyz
1 x,y,z
2 -x,1/2+y,1/2-z
3 -x,-y,-z
4 x,1/2-y,1/2+z
_cell_length_a                   7.0390(7)
_cell_length_b                   28.507(3)
_cell_length_c                   22.688(3)
_cell_angle_alpha                90
_cell_angle_beta                 92.545(8)
_cell_angle_gamma                90
_cell_volume                     4548.1
loop_
_atom_site_label
_atom_site_type_symbol
_atom_site_fract_x
_atom_site_fract_y
_atom_site_fract_z
Eu1 Eu 1.27530(7) 0.15889(2) 0.24573(3)
Eu2 Eu 0.76860(7) 0.14121(2) 0.20313(3)
O1 O 1.3436(11) 0.1138(3) 0.3372(4)
O2 O 0.9386(9) 0.1771(3) 0.2900(3)
O3 O 0.6250(10) 0.1773(3) 0.2887(3)
O4 O 0.7645(9) 0.0806(3) 0.2867(3)
O5 O 1.7801(10) 0.2312(3) 0.1863(3)
O6 O 1.5053(10) 0.1947(3) 0.1733(3)
O7 O 1.0661(10) 0.1571(3) 0.1547(3)
O8 O 1.7140(10) 0.0643(3) 0.1569(4)
O9 O 1.4653(9) 0.0997(3) 0.1921(3)
O10 O 1.0362(10) 0.0902(3) 0.2425(3)
O11 O 1.2335(12) 0.2448(3) 0.2549(4)
O12 O 1.5552(11) 0.0637(3) 0.3791(4)
H1 H 1.6218 0.0730 0.3527
C1 C 0.9803(14) 0.1540(4) 0.1023(5)
O13 O 0.8021(9) 0.1524(3) 0.0974(3)
C2 C 1.5377(16) 0.0670(4) 0.1605(5)
C3 C 1.3061(17) 0.3248(4) 0.2771(5)
C4 C 0.7941(16) 0.2075(4) 0.3752(5)
C5 C 1.6087(15) 0.2310(4) 0.1676(5)
C6 C 0.9948(17) 0.0184(4) 0.2935(5)
C7 C 1.327(2) 0.0470(4) 0.4720(5)
H2 H 1.4447 0.0321 0.4710
C8 C 1.4888(15) 0.0008(4) 0.0890(5)
H3 H 1.6200 -0.0017 0.0866
C9 C 0.7875(14) 0.1859(4) 0.3152(5)
C10 C 1.3322(16) 0.2721(4) 0.1170(5)
H4 H 1.2562 0.2465 0.1252
C11 C 1.240(2) -0.0406(5) 0.3015(6)
H5 H 1.3660 -0.0496 0.2982
C12 C 1.3930(16) 0.0868(5) 0.3768(5)
C13 C 0.866(2) -0.0136(4) 0.3153(5)
H6 H 0.7411 -0.0047 0.3204
C14 C 1.2922(15) 0.1554(4) 0.0519(5)
H7 H 1.3541 0.1611 0.0882
O14 O 1.0098(11) 0.2994(3) 0.2354(4)
H8 H 0.9584 0.2781 0.2164
C15 C 1.033(2) 0.0599(6) 0.5180(6)
H9 H 0.9522 0.0542 0.5486
C16 C 0.9652(17) 0.2242(5) 0.4001(6)
H10 H 1.0764 0.2225 0.3795
C17 C 1.1807(15) 0.2859(5) 0.2548(5)
C18 C 1.1828(17) 0.0050(5) 0.2857(5)
H11 H 1.2688 0.0259 0.2703
C19 C 1.0954(14) 0.1497(4) 0.0486(5)
C20 C 1.2720(16) 0.0777(4) 0.4274(5)
C21 C 1.4102(15) 0.0339(4) 0.1263(5)
C22 C 0.636(2) 0.2306(5) 0.4633(6)
H12 H 0.5266 0.2327 0.4845
C23 C 1.6184(17) 0.3504(6) 0.3088(5)
H13 H 1.7470 0.3441 0.3162
C24 C 1.368(2) 0.4057(5) 0.3015(6)
H14 H 1.3249 0.4364 0.3047
C25 C 0.926(2) -0.0587(6) 0.3293(6)
H15 H 0.8403 -0.0803 0.3439
C26 C 1.3951(16) 0.1527(5) 0.0026(5)
H16 H 1.5260 0.1573 0.0054
C27 C 1.0930(17) 0.0981(5) 0.4276(6)
H17 H 1.0529 0.1177 0.3967
C28 C 1.2547(19) 0.3106(5) 0.0849(5)
H18 H 1.1268 0.3108 0.0728
C29 C 1.3061(18) 0.1434(5) -0.0514(6)
H19 H 1.3762 0.1412 -0.0851
C30 C 1.1079(16) 0.1371(5) -0.0549(5)
H20 H 1.0468 0.1305 -0.0912
C31 C 1.209(2) 0.0381(5) 0.5185(6)
H21 H 1.2479 0.0181 0.5491
C32 C 1.6373(18) 0.3111(4) 0.1221(6)
H22 H 1.7658 0.3114 0.1335
C33 C 1.1723(19) -0.0246(5) 0.0580(6)
H23 H 1.0936 -0.0437 0.0344
C34 C 0.9278(15) 0.0655(4) 0.2745(5)
C35 C 1.0036(16) 0.1406(5) -0.0056(5)
H24 H 0.8722 0.1369 -0.0083
C36 C 0.9742(19) 0.0897(5) 0.4730(6)
H25 H 0.8555 0.1040 0.4733
C37 C 1.2152(16) 0.0365(5) 0.1292(6)
H26 H 1.1623 0.0583 0.1542
C38 C 1.5226(15) 0.2727(4) 0.1362(5)
C39 C 1.3672(18) -0.0284(5) 0.0554(5)
H27 H 1.4184 -0.0507 0.0307
C40 C 0.8063(19) 0.2463(5) 0.4871(6)
H28 H 0.8118 0.2591 0.5249
C41 C 1.240(2) 0.3706(4) 0.2825(6)
H29 H 1.1129 0.3777 0.2736
C42 C 1.4972(17) 0.3138(5) 0.2913(5)
H30 H 1.5414 0.2832 0.2891
C43 C 1.0952(18) 0.0068(5) 0.0949(6)
H31 H 0.9640 0.0086 0.0976
C44 C 0.6305(17) 0.2116(5) 0.4077(6)
H32 H 0.5148 0.2012 0.3912
C45 C 1.369(2) 0.3476(5) 0.0719(6)
H33 H 1.3181 0.3725 0.0498
C46 C 1.556(2) 0.3490(5) 0.0905(6)
H34 H 1.6301 0.3751 0.0822
C47 C 0.966(2) 0.2436(5) 0.4568(6)
H35 H 1.0794 0.2549 0.4738
C48 C 1.111(3) -0.0716(5) 0.3218(6)
H36 H 1.1496 -0.1021 0.3306
C49 C 1.553(2) 0.3957(5) 0.3154(5)
H37 H 1.6348 0.4191 0.3292
Eu1_2 Eu 0.27530(7) 0.15889(2) 0.24573(3)
Eu2_2 Eu 1.76860(7) 0.14121(2) 0.20313(3)
O3_2 O 1.6250(10) 0.1773(3) 0.2887(3)
O5_2 O 0.7801(10) 0.2312(3) 0.1863(3)
O6_2 O 0.5053(10) 0.1947(3) 0.1733(3)
O8_2 O 0.7140(10) 0.0643(3) 0.1569(4)
O9_2 O 0.4653(9) 0.0997(3) 0.1921(3)
loop_
_geom_bond_atom_site_label_1
_geom_bond_atom_site_label_2
_geom_bond_site_symmetry_1
_geom_bond_site_symmetry_2
Eu1 O1 1_555 1_555
Eu2 O2 1_555 1_555
O1 C12 1_555 1_555
O2 Eu1 1_555 1_555
O3 Eu2 1_555 1_555
O4 Eu2 1_555 1_555
O5 C5 1_555 1_555
O6 Eu1 1_555 1_555
O7 Eu1 1_555 1_555
O8 C2 1_555 1_555
O9 Eu1 1_555 1_555
O10 Eu1 1_555 1_555
O11 Eu1 1_555 1_555
O12 H1 1_555 1_555
C1 O7 1_555 1_555
O13 Eu2 1_555 1_555
C2 O9 1_555 1_555
C3 C17 1_555 1_555
C4 C9 1_555 1_555
C5 O6 1_555 1_555
C6 C13 1_555 1_555
C7 H2 1_555 1_555
C8 H3 1_555 1_555
C9 O2 1_555 1_555
C10 H4 1_555 1_555
C11 H5 1_555 1_555
C12 O12 1_555 1_555
C13 H6 1_555 1_555
C14 H7 1_555 1_555
O14 H8 1_555 1_555
C15 H9 1_555 1_555
C16 C4 1_555 1_555
H10 C16 1_555 1_555
C17 O11 1_555 1_555
C18 C6 1_555 1_555
H11 C18 1_555 1_555
C19 C1 1_555 1_555
C20 C7 1_555 1_555
C21 C2 1_555 1_555
C22 H12 1_555 1_555
C23 H13 1_555 1_555
C24 H14 1_555 1_555
C25 C13 1_555 1_555
H15 C25 1_555 1_555
C26 C14 1_555 1_555
H16 C26 1_555 1_555
C27 C20 1_555 1_555
H17 C27 1_555 1_555
C28 C10 1_555 1_555
H18 C28 1_555 1_555
C29 C26 1_555 1_555
H19 C29 1_555 1_555
C30 C29 1_555 1_555
H20 C30 1_555 1_555
C31 C7 1_555 1_555
H21 C31 1_555 1_555
C32 H22 1_555 1_555
C33 H23 1_555 1_555
C34 O4 1_555 1_555
C35 C19 1_555 1_555
H24 C35 1_555 1_555
C36 C15 1_555 1_555
H25 C36 1_555 1_555
C37 C21 1_555 1_555
H26 C37 1_555 1_555
C38 C5 1_555 1_555
C39 C8 1_555 1_555
H27 C39 1_555 1_555
C40 C22 1_555 1_555
H28 C40 1_555 1_555
C41 C3 1_555 1_555
H29 C41 1_555 1_555
C42 C3 1_555 1_555
H30 C42 1_555 1_555
C43 C33 1_555 1_555
H31 C43 1_555 1_555
C44 C4 1_555 1_555
H32 C44 1_555 1_555
C45 C28 1_555 1_555
H33 C45 1_555 1_555
C46 C32 1_555 1_555
H34 C46 1_555 1_555
C47 C16 1_555 1_555
H35 C47 1_555 1_555
C48 C11 1_555 1_555
H36 C48 1_555 1_555
C49 C23 1_555 1_555
H37 C49 1_555 1_555
Eu1_2 O3 1_555 1_555
Eu2_2 O5 1_555 1_555
O3_2 Eu1 1_555 1_555
O5_2 Eu2 1_555 1_555
O6_2 Eu2 1_555 1_555
O8_2 Eu2 1_555 1_555
O9_2 Eu2 1_555 1_555
Eu2 O7 1_555 1_555
Eu2 O10 1_555 1_555
O3 C9 1_555 1_555
O6 Eu2_2 1_555 1_555
O8 Eu2_2 1_555 1_555
O9 Eu2_2 1_555 1_555
O10 C34 1_555 1_555
C1 O13 1_555 1_555
C6 C34 1_555 1_555
C8 C21 1_555 1_555
C10 C38 1_555 1_555
C11 C18 1_555 1_555
C12 C20 1_555 1_555
C14 C19 1_555 1_555
O14 C17 1_555 1_555
C15 C31 1_555 1_555
C22 C44 1_555 1_555
C23 C42 1_555 1_555
C24 C41 1_555 1_555
C24 C49 1_555 1_555
C25 C48 1_555 1_555
C27 C36 1_555 1_555
C30 C35 1_555 1_555
C32 C38 1_555 1_555
C33 C39 1_555 1_555
C37 C43 1_555 1_555
C40 C47 1_555 1_555
C45 C46 1_555 1_555
Eu1_2 O6_2 1_555 1_555
Eu1_2 O9_2 1_555 1_555
Eu2_2 O3_2 1_555 1_555

#END
