
#######################################################################
#
#                 Cambridge Crystallographic Data Centre
#                                CCDC 
#
#######################################################################
#
# If this CIF has been generated from an entry in the Cambridge 
# Structural Database, then it will include bibliographic, chemical, 
# crystal, experimental, refinement or atomic coordinate data resulting 
# from the CCDC's data processing and validation procedures.
#
#######################################################################

data_JIPLOK
_symmetry_cell_setting           triclinic
_symmetry_space_group_name_H-M   'P -1'
_symmetry_Int_Tables_number      2
_space_group_name_Hall           '-P 1'
loop_
_symmetry_equiv_pos_site_id
_symmetry_equiv_pos_as_xyz
1 x,y,z
2 -x,-y,-z
_cell_length_a                   7.7061(12)
_cell_length_b                   9.5425(16)
_cell_length_c                   11.699(2)
_cell_angle_alpha                103.293(19)
_cell_angle_beta                 104.748(19)
_cell_angle_gamma                101.384(19)
_cell_volume                     779.15
loop_
_atom_site_label
_atom_site_type_symbol
_atom_site_fract_x
_atom_site_fract_y
_atom_site_fract_z
Nd1 Nd 0.78043(3) 0.07908(2) 1.013981(19)
O1 O 1.0071(6) 0.3286(4) 1.0626(4)
C1 C 0.3272(10) 0.1420(9) 0.7294(6)
H1 H 0.2103 0.0786 0.7242
H2 H 0.3565 0.1077 0.6546
H3 H 0.3184 0.2429 0.7401
O2 O 1.0978(5) 0.1410(3) 0.9749(3)
O3 O 0.4349(5) 0.0526(4) 0.9033(3)
O4 O 0.6408(6) 0.2099(4) 0.8630(4)
O6 O 1.0151(5) 0.1281(4) 1.2199(3)
C3 C 1.1846(8) 0.1312(5) 1.2612(4)
C4 C 0.4775(7) 0.1371(5) 0.8372(4)
O7 O 0.7004(6) 0.2754(4) 1.1632(4)
O8 O 1.2745(6) 0.0773(4) 1.1970(4)
C6 C 1.2825(11) 0.2090(8) 1.3975(5)
H8 H 1.1962 0.2448 1.4350
H9 H 1.3292 0.1399 1.4365
H10 H 1.3845 0.2920 1.4076
O10 O 0.8795(9) 0.3029(7) 1.3526(4)
H11 H 0.9262 0.2461 1.3142
C7 C 0.7508(9) 0.3357(6) 1.2748(5)
C8 C 0.6734(13) 0.4544(9) 1.3343(8)
H12 H 0.7325 0.4858 1.4223
H13 H 0.5415 0.4151 1.3160
H14 H 0.6967 0.5383 1.3029
C9 C 1.1261(7) 0.2822(5) 1.0216(4)
C10 C 1.2991(8) 0.3888(6) 1.0249(6)
H15 H 1.3742 0.3338 0.9897
H16 H 1.3684 0.4458 1.1091
H17 H 1.2659 0.4554 0.9781
Nd1A Nd 1.21957(3) -0.07908(2) 0.986019(19)
Nd1A_2 Nd 0.21957(3) -0.07908(2) 0.986019(19)
O2A O 0.9022(5) -0.1410(3) 1.0251(3)
O3A O 0.5651(5) -0.0526(4) 1.0967(3)
O8A O 0.7255(6) -0.0773(4) 0.8030(4)
O5 O 0.9649(6) 0.4071(5) 0.7840(4)
H4 H 0.9606 0.4858 0.8282
C2 C 0.8121(9) 0.3533(7) 0.6861(6)
C5 C 0.8025(13) 0.2007(8) 0.6112(7)
H5 H 0.9103 0.1715 0.6487
H6 H 0.7990 0.2019 0.5288
H7 H 0.6920 0.1305 0.6079
O9 O 0.6976(9) 0.4191(7) 0.6624(6)
loop_
_geom_bond_atom_site_label_1
_geom_bond_atom_site_label_2
_geom_bond_site_symmetry_1
_geom_bond_site_symmetry_2
Nd1 O1 1_555 1_555
O1 C9 1_555 1_555
C1 H1 1_555 1_555
H2 C1 1_555 1_555
H3 C1 1_555 1_555
O2 Nd1 1_555 1_555
O3 Nd1 1_555 1_555
O4 Nd1 1_555 1_555
O5 H4 1_555 1_555
O6 Nd1 1_555 1_555
C2 O5 1_555 1_555
C3 O6 1_555 1_555
C4 C1 1_555 1_555
O7 Nd1 1_555 1_555
O8 C3 1_555 1_555
C5 C2 1_555 1_555
H5 C5 1_555 1_555
H6 C5 1_555 1_555
H7 C5 1_555 1_555
C6 C3 1_555 1_555
H8 C6 1_555 1_555
H9 C6 1_555 1_555
H10 C6 1_555 1_555
O9 C2 1_555 1_555
O10 H11 1_555 1_555
C7 O7 1_555 1_555
C8 C7 1_555 1_555
H12 C8 1_555 1_555
H13 C8 1_555 1_555
H14 C8 1_555 1_555
C9 O2 1_555 1_555
C10 C9 1_555 1_555
H15 C10 1_555 1_555
H16 C10 1_555 1_555
H17 C10 1_555 1_555
Nd1A O2 1_555 1_555
Nd1A_2 O3 1_555 1_555
O2A Nd1 1_555 1_555
O3A Nd1 1_555 1_555
O8A Nd1 1_555 1_555
O3 C4 1_555 1_555
O4 C4 1_555 1_555
O8 Nd1A 1_555 1_555
O10 C7 1_555 1_555
Nd1A O2A 1_555 1_555
Nd1A_2 O3A 1_555 1_555

#END
