
#######################################################################
#
#                 Cambridge Crystallographic Data Centre
#                                CCDC 
#
#######################################################################
#
# If this CIF has been generated from an entry in the Cambridge 
# Structural Database, then it will include bibliographic, chemical, 
# crystal, experimental, refinement or atomic coordinate data resulting 
# from the CCDC's data processing and validation procedures.
#
#######################################################################

data_JIPMUR
_symmetry_cell_setting           triclinic
_symmetry_space_group_name_H-M   'P -1'
_symmetry_Int_Tables_number      2
_space_group_name_Hall           '-P 1'
loop_
_symmetry_equiv_pos_site_id
_symmetry_equiv_pos_as_xyz
1 x,y,z
2 -x,-y,-z
_cell_length_a                   11.9397(16)
_cell_length_b                   12.2827(18)
_cell_length_c                   13.4629(18)
_cell_angle_alpha                105.552(11)
_cell_angle_beta                 96.453(11)
_cell_angle_gamma                113.790(11)
_cell_volume                     1685.11
loop_
_atom_site_label
_atom_site_type_symbol
_atom_site_fract_x
_atom_site_fract_y
_atom_site_fract_z
Nd1 Nd -0.11977(2) 0.04010(2) -0.083840(19)
Nd2 Nd -0.10415(2) 0.02036(2) -0.393400(18)
O1 O -0.1053(3) -0.0959(3) -0.5839(3)
O2 O 0.0667(3) -0.0132(4) -0.0867(3)
O3 O 0.0262(3) 0.0588(4) -0.2112(3)
O4 O -0.2307(3) -0.0682(4) -0.2803(3)
O5 O -0.1343(4) 0.2091(4) -0.1456(3)
O6 O -0.0598(3) -0.1587(4) -0.4026(3)
O7 O -0.3525(3) -0.0582(4) -0.1713(3)
O8 O -0.0333(3) 0.2372(4) -0.2729(3)
O9 O -0.2000(4) -0.1837(4) -0.1153(3)
O10 O -0.2909(4) 0.0726(4) -0.4034(3)
O11 O 0.0841(3) -0.1617(4) -0.4943(3)
O12 O -0.0676(3) -0.2288(4) -0.0219(3)
O13 O -0.2869(3) -0.1639(4) -0.5405(3)
O14 O -0.2230(4) 0.1398(4) 0.0371(3)
O15 O -0.2412(4) 0.2431(4) -0.4512(4)
H1 H -0.1806 0.2305 -0.4625
C1 C -0.4059(7) 0.3104(7) 0.1195(6)
H2 H -0.4650 0.3021 0.1631
H3 H -0.4422 0.3117 0.0527
H4 H -0.3297 0.3879 0.1551
O16 O -0.2773(5) 0.2610(5) -0.0330(4)
H5 H -0.2443 0.2381 -0.0793
C2 C -0.2838(6) 0.1989(6) 0.0319(5)
C3 C 0.0030(5) -0.2105(5) -0.4448(4)
C4 C -0.2669(5) -0.2982(6) -0.6976(5)
H6 H -0.2438 -0.2739 -0.7580
H7 H -0.2236 -0.3466 -0.6840
C5 C -0.3098(5) 0.1617(6) -0.4099(4)
C6 C 0.0937(4) 0.0201(5) -0.1659(4)
C7 C -0.0687(5) 0.2792(5) -0.1948(4)
C8 C -0.2206(5) -0.1808(5) -0.6029(4)
C9 C -0.0354(8) 0.4184(6) -0.1532(6)
H8 H -0.1122 0.4255 -0.1452
H9 H 0.0212 0.4556 -0.0826
C10 C 0.2064(5) 0.0139(6) -0.2005(4)
H10 H 0.2082 0.0275 -0.2681
H11 H 0.2011 -0.0693 -0.2099
C11 C -0.0183(7) -0.3376(7) -0.4379(7)
H12 H -0.0048 -0.3853 -0.5016
H13 H 0.0445 -0.3240 -0.3775
C12 C -0.1690(5) -0.2598(6) -0.0867(4)
C13 C -0.4482(8) -0.3249(7) -0.3904(7)
H14 H -0.5212 -0.3848 -0.4475
H15 H -0.4466 -0.3568 -0.3327
H16 H -0.3731 -0.3123 -0.4152
C14 C -0.4538(6) -0.2008(7) -0.3523(5)
H17 H -0.4571 -0.1698 -0.4112
H18 H -0.5306 -0.2143 -0.3286
C15 C -0.3422(5) -0.1032(5) -0.2630(4)
C16 C -0.4888(7) 0.0977(9) -0.3215(6)
H19 H -0.5497 0.1229 -0.2962
H20 H -0.4361 0.0957 -0.2634
H21 H -0.5320 0.0149 -0.3752
C17 C -0.4090(7) 0.1903(8) -0.3680(6)
H22 H -0.4637 0.1928 -0.4255
H23 H -0.3683 0.2740 -0.3137
C18 C -0.2607(7) -0.3984(6) -0.1326(6)
H24 H -0.2234 -0.4427 -0.1776
H25 H -0.3365 -0.4088 -0.1773
C19 C 0.3264(6) 0.1148(9) -0.1168(6)
H26 H 0.3986 0.1106 -0.1391
H27 H 0.3247 0.1005 -0.0502
H28 H 0.3317 0.1970 -0.1083
C20 C -0.3758(7) 0.2003(8) 0.0998(6)
H29 H -0.4541 0.1229 0.0662
H30 H -0.3419 0.1990 0.1682
C21 C -0.4067(6) -0.3823(7) -0.7273(7)
H31 H -0.4281 -0.4547 -0.7892
H32 H -0.4305 -0.4101 -0.6693
H33 H -0.4509 -0.3361 -0.7424
C22 C 0.0245(9) 0.4955(7) -0.2178(8)
H34 H 0.0406 0.5816 -0.1838
H35 H -0.0312 0.4619 -0.2874
H36 H 0.1027 0.4929 -0.2241
C23 C -0.2970(9) -0.4585(9) -0.0507(8)
H37 H -0.3551 -0.5466 -0.0854
H38 H -0.2228 -0.4504 -0.0069
H39 H -0.3365 -0.4170 -0.0070
C24 C -0.1439(11) -0.4139(10) -0.4268(14)
H40 H -0.1496 -0.4928 -0.4230
H41 H -0.2070 -0.4302 -0.4872
H42 H -0.1575 -0.3688 -0.3630
Nd1A Nd 0.11977(2) -0.04010(2) 0.083840(19)
Nd2A Nd 0.10415(2) -0.02036(2) -0.606600(18)
O1A O 0.1053(3) 0.0959(3) -0.4161(3)
O2A O -0.0667(3) 0.0132(4) 0.0867(3)
O11A O -0.0841(3) 0.1617(4) -0.5057(3)
O12A O 0.0676(3) 0.2288(4) 0.0219(3)
loop_
_geom_bond_atom_site_label_1
_geom_bond_atom_site_label_2
_geom_bond_site_symmetry_1
_geom_bond_site_symmetry_2
Nd1 O2 1_555 1_555
Nd2 O1 1_555 1_555
O1 C8 1_555 1_555
O2 C6 1_555 1_555
O3 Nd1 1_555 1_555
O4 Nd1 1_555 1_555
O5 Nd1 1_555 1_555
O6 Nd2 1_555 1_555
O7 Nd1 1_555 1_555
O8 Nd2 1_555 1_555
O9 Nd1 1_555 1_555
O10 Nd2 1_555 1_555
O11 C3 1_555 1_555
O12 C12 1_555 1_555
O13 Nd2 1_555 1_555
O14 Nd1 1_555 1_555
O15 H1 1_555 1_555
C1 H2 1_555 1_555
H3 C1 1_555 1_555
H4 C1 1_555 1_555
O16 H5 1_555 1_555
C2 O14 1_555 1_555
C3 O6 1_555 1_555
C4 H6 1_555 1_555
H7 C4 1_555 1_555
C5 O10 1_555 1_555
C6 O3 1_555 1_555
C7 O5 1_555 1_555
C8 O13 1_555 1_555
C9 C7 1_555 1_555
H8 C9 1_555 1_555
H9 C9 1_555 1_555
C10 C6 1_555 1_555
H10 C10 1_555 1_555
H11 C10 1_555 1_555
C11 C3 1_555 1_555
H12 C11 1_555 1_555
H13 C11 1_555 1_555
C12 O9 1_555 1_555
C13 H14 1_555 1_555
H15 C13 1_555 1_555
H16 C13 1_555 1_555
C14 C13 1_555 1_555
H17 C14 1_555 1_555
H18 C14 1_555 1_555
C15 O4 1_555 1_555
C16 H19 1_555 1_555
H20 C16 1_555 1_555
H21 C16 1_555 1_555
C17 C5 1_555 1_555
H22 C17 1_555 1_555
H23 C17 1_555 1_555
C18 C12 1_555 1_555
H24 C18 1_555 1_555
H25 C18 1_555 1_555
C19 C10 1_555 1_555
H26 C19 1_555 1_555
H27 C19 1_555 1_555
H28 C19 1_555 1_555
C20 C1 1_555 1_555
H29 C20 1_555 1_555
H30 C20 1_555 1_555
C21 C4 1_555 1_555
H31 C21 1_555 1_555
H32 C21 1_555 1_555
H33 C21 1_555 1_555
C22 C9 1_555 1_555
H34 C22 1_555 1_555
H35 C22 1_555 1_555
H36 C22 1_555 1_555
C23 C18 1_555 1_555
H37 C23 1_555 1_555
H38 C23 1_555 1_555
H39 C23 1_555 1_555
C24 C11 1_555 1_555
H40 C24 1_555 1_555
H41 C24 1_555 1_555
H42 C24 1_555 1_555
Nd1A O2 1_555 1_555
Nd2A O1 1_555 1_555
O1A Nd2 1_555 1_555
O2A Nd1 1_555 1_555
O11A Nd2 1_555 1_555
O12A Nd1 1_555 1_555
Nd2 O3 1_555 1_555
Nd2 O4 1_555 1_555
O7 C15 1_555 1_555
O8 C7 1_555 1_555
O11 Nd2A 1_555 1_555
O12 Nd1A 1_555 1_555
O15 C5 1_555 1_555
O16 C2 1_555 1_555
C2 C20 1_555 1_555
C4 C8 1_555 1_555
C14 C15 1_555 1_555
C16 C17 1_555 1_555
Nd1A O2A 1_555 1_555
Nd2A O1A 1_555 1_555

#END
