
#######################################################################
#
#                 Cambridge Crystallographic Data Centre
#                                CCDC 
#
#######################################################################
#
# If this CIF has been generated from an entry in the Cambridge 
# Structural Database, then it will include bibliographic, chemical, 
# crystal, experimental, refinement or atomic coordinate data resulting 
# from the CCDC's data processing and validation procedures.
#
#######################################################################

data_JIPMAX
_symmetry_cell_setting           monoclinic
_symmetry_space_group_name_H-M   'C c'
_symmetry_Int_Tables_number      9
_space_group_name_Hall           'C -2yc'
loop_
_symmetry_equiv_pos_site_id
_symmetry_equiv_pos_as_xyz
1 x,y,z
2 x,-y,1/2+z
3 1/2+x,1/2+y,z
4 1/2+x,1/2-y,1/2+z
_cell_length_a                   16.1122(17)
_cell_length_b                   17.0570(13)
_cell_length_c                   8.6099(9)
_cell_angle_alpha                90
_cell_angle_beta                 118.641(8)
_cell_angle_gamma                90
_cell_volume                     2076.69
loop_
_atom_site_label
_atom_site_type_symbol
_atom_site_fract_x
_atom_site_fract_y
_atom_site_fract_z
Sm1 Sm 0.184815(18) 0.142170(11) 0.21522(3)
Sm2 Sm 0.44450(2) 0.248193(15) 0.51712(3)
O1 O 0.3127(3) 0.1840(3) 0.5150(6)
O2 O 0.0237(3) 0.1231(3) 0.1622(8)
O3 O 0.0590(4) 0.2123(3) -0.0708(7)
O4 O 0.1219(4) 0.2649(3) 0.2660(8)
O5 O 0.4578(4) 0.1331(3) 0.3888(9)
O6 O 0.2849(4) 0.2423(3) 0.1915(8)
O7 O 0.1316(3) 0.1117(3) -0.1042(6)
O8 O 0.3178(3) 0.0776(3) 0.2305(8)
O9 O -0.0961(4) 0.1620(3) 0.1934(9)
O10 O 0.0138(4) 0.3303(4) 0.2910(9)
C1 C 0.4046(4) 0.0834(3) 0.2771(10)
O11 O 0.2057(3) 0.1069(3) 0.5166(6)
O12 O 0.3572(5) 0.3510(4) 0.3054(11)
C2 C 0.4467(7) 0.0256(5) 0.2051(16)
H1 H 0.5119 0.0386 0.2456
H2 H 0.4128 0.0269 0.0782
H3 H 0.4426 -0.0261 0.2453
O13 O 0.1588(3) 0.0015(2) 0.1988(7)
C3 C 0.2212(7) 0.3605(6) 0.0231(14)
H4 H 0.1653 0.3294 -0.0420
H5 H 0.2487 0.3726 -0.0513
H6 H 0.2048 0.4082 0.0609
C4 C 0.0988(4) 0.3148(4) 0.3451(9)
C5 C 0.3184(6) 0.1626(6) 0.7952(10)
H7 H 0.3776 0.1896 0.8379
H8 H 0.3285 0.1131 0.8543
H9 H 0.2759 0.1937 0.8185
C6 C 0.2760(4) 0.1493(3) 0.5982(8)
C7 C 0.0747(4) 0.1668(3) -0.1699(8)
C8 C -0.0412(4) 0.1098(4) 0.2032(8)
C9 C 0.2908(5) 0.3156(4) 0.1812(9)
C10 C 0.0260(8) 0.1807(6) -0.3629(10)
H10 H -0.0058 0.2304 -0.3881
H11 H -0.0194 0.1398 -0.4213
H12 H 0.0715 0.1808 -0.4048
C11 C -0.0503(7) 0.0279(5) 0.2598(14)
H13 H 0.0064 -0.0010 0.2893
H14 H -0.0600 0.0306 0.3613
H15 H -0.1032 0.0021 0.1647
C12 C 0.1712(7) 0.3578(8) 0.5016(19)
H16 H 0.2298 0.3295 0.5517
H17 H 0.1803 0.4090 0.4660
H18 H 0.1501 0.3629 0.5883
Sm2C Sm -0.05550(2) 0.251807(15) 0.01712(3)
O2C O 0.5237(3) 0.3769(3) 0.6622(8)
O3C O 0.5590(4) 0.2877(3) 0.4292(7)
O4C O 0.6219(4) 0.2351(3) 0.7660(8)
O9C O 0.4039(4) 0.3380(3) 0.6934(9)
O10C O 0.5138(4) 0.1697(4) 0.7910(9)
loop_
_geom_bond_atom_site_label_1
_geom_bond_atom_site_label_2
_geom_bond_site_symmetry_1
_geom_bond_site_symmetry_2
Sm1 O1 1_555 1_555
Sm2 O1 1_555 1_555
O1 C6 1_555 1_555
O2 Sm1 1_555 1_555
O3 Sm1 1_555 1_555
O4 Sm1 1_555 1_555
O5 Sm2 1_555 1_555
O6 Sm1 1_555 1_555
O7 Sm1 1_555 1_555
O8 Sm1 1_555 1_555
O9 C8 1_555 1_555
O10 C4 1_555 1_555
C1 O5 1_555 1_555
O11 Sm1 1_555 1_555
O12 Sm2 1_555 1_555
C2 C1 1_555 1_555
H1 C2 1_555 1_555
H2 C2 1_555 1_555
H3 C2 1_555 1_555
O13 Sm1 1_555 1_555
C3 H4 1_555 1_555
H5 C3 1_555 1_555
H6 C3 1_555 1_555
C4 O4 1_555 1_555
C5 H7 1_555 1_555
H8 C5 1_555 1_555
H9 C5 1_555 1_555
C6 O11 1_555 1_555
C7 O3 1_555 1_555
C8 O2 1_555 1_555
C9 O6 1_555 1_555
C10 C7 1_555 1_555
H10 C10 1_555 1_555
H11 C10 1_555 1_555
H12 C10 1_555 1_555
C11 C8 1_555 1_555
H13 C11 1_555 1_555
H14 C11 1_555 1_555
H15 C11 1_555 1_555
C12 C4 1_555 1_555
H16 C12 1_555 1_555
H17 C12 1_555 1_555
H18 C12 1_555 1_555
Sm2C O2 1_555 1_555
O2C Sm2 1_555 1_555
O3C Sm2 1_555 1_555
O4C Sm2 1_555 1_555
O9C Sm2 1_555 1_555
O10C Sm2 1_555 1_555
Sm2 O6 1_555 1_555
O3 Sm2C 1_555 1_555
O4 Sm2C 1_555 1_555
O7 C7 1_555 1_555
O8 C1 1_555 1_555
O9 Sm2C 1_555 1_555
O10 Sm2C 1_555 1_555
O12 C9 1_555 1_555
C3 C9 1_555 1_555
C5 C6 1_555 1_555

#END
