
#######################################################################
#
#                 Cambridge Crystallographic Data Centre
#                                CCDC 
#
#######################################################################
#
# If this CIF has been generated from an entry in the Cambridge 
# Structural Database, then it will include bibliographic, chemical, 
# crystal, experimental, refinement or atomic coordinate data resulting 
# from the CCDC's data processing and validation procedures.
#
#######################################################################

data_JIPMIF
_symmetry_cell_setting           monoclinic
_symmetry_space_group_name_H-M   'P 21/n'
_symmetry_Int_Tables_number      14
_space_group_name_Hall           '-P 2yn'
loop_
_symmetry_equiv_pos_site_id
_symmetry_equiv_pos_as_xyz
1 x,y,z
2 1/2-x,1/2+y,1/2-z
3 -x,-y,-z
4 1/2+x,1/2-y,1/2+z
_cell_length_a                   11.4694(9)
_cell_length_b                   22.6154(12)
_cell_length_c                   22.789(2)
_cell_angle_alpha                90
_cell_angle_beta                 95.287(7)
_cell_angle_gamma                90
_cell_volume                     5885.98
loop_
_atom_site_label
_atom_site_type_symbol
_atom_site_fract_x
_atom_site_fract_y
_atom_site_fract_z
Gd1 Gd 0.03426(2) 0.068587(12) 0.766678(13)
Gd2 Gd 0.14085(2) 0.228386(12) 0.824024(13)
Gd3 Gd 0.16312(2) -0.113440(12) 0.713970(14)
O1 O 0.2809(4) 0.31897(19) 0.8578(2)
O2 O 0.1763(3) 0.11689(18) 0.83144(18)
O3 O 0.0684(3) 0.17404(17) 0.73843(17)
O4 O 0.1837(4) 0.0427(2) 0.7131(2)
O5 O 0.0422(4) -0.00058(19) 0.8424(2)
O6 O 0.2436(4) 0.17382(19) 0.9046(2)
O7 O -0.0536(4) 0.12191(19) 0.68052(19)
O8 O 0.1378(4) 0.29260(19) 0.9090(2)
O9 O -0.1022(3) 0.11268(18) 0.8201(2)
O10 O -0.0772(4) -0.00224(19) 0.7162(2)
C1 C 0.4888(5) 0.2075(3) 0.7396(3)
O11 O 0.1494(4) 0.3781(3) 0.7494(2)
O12 O 0.3028(4) 0.2196(2) 0.7737(2)
O13 O -0.0347(3) 0.1988(2) 0.8554(2)
C2 C -0.4426(7) 0.1945(5) 0.9130(4)
H1 H -0.5170 0.2033 0.9237
O14 O 0.0415(4) 0.3028(2) 0.7730(2)
O15 O 0.2265(5) -0.0356(2) 0.6606(2)
O16 O 0.1265(4) -0.0748(2) 0.8008(2)
C3 C 0.2550(5) 0.0585(3) 0.6202(3)
O17 O 0.3995(5) 0.29915(19) 0.7526(3)
O18 O -0.0249(3) -0.0887(2) 0.6819(2)
C4 C 0.0760(5) -0.0533(3) 0.8427(3)
C5 C -0.2240(5) -0.0615(2) 0.6658(3)
C6 C 0.0577(5) -0.0914(3) 0.8945(3)
C7 C 0.3909(5) 0.2446(3) 0.7572(3)
C8 C -0.0511(5) 0.3819(3) 0.7198(3)
C9 C -0.0997(5) -0.0500(3) 0.6894(3)
C10 C 0.2291(5) 0.3222(3) 0.9053(3)
C11 C -0.1410(10) 0.4684(4) 0.6770(5)
H2 H -0.1361 0.5081 0.6670
C12 C 0.0012(6) 0.2164(3) 0.6448(3)
C13 C 0.0530(5) 0.3522(3) 0.7497(3)
C14 C 0.0040(5) 0.1687(3) 0.6893(3)
C15 C -0.3034(6) -0.0160(3) 0.6616(3)
H3 H -0.2804 0.0219 0.6734
C16 C -0.3564(10) 0.2347(5) 0.9199(7)
H4 H -0.3694 0.2704 0.9383
C17 C 0.2192(5) 0.0195(3) 0.6676(3)
C18 C 0.2808(5) 0.0701(3) 0.9136(3)
C19 C 0.2316(5) 0.1227(3) 0.8825(3)
C20 C 0.2780(6) 0.3603(3) 0.9546(3)
C21 C 0.2933(7) 0.0697(4) 0.9751(3)
H5 H 0.2763 0.1033 0.9962
C22 C -0.1133(5) 0.1597(3) 0.8480(3)
C23 C -0.2280(5) 0.1711(3) 0.8728(3)
C24 C 0.0650(8) -0.1525(3) 0.8902(4)
H6 H 0.0883 -0.1700 0.8562
C25 C 0.6806(7) 0.1983(5) 0.7092(6)
H7 H 0.7490 0.2162 0.6992
C26 C -0.2614(6) -0.1174(3) 0.6482(3)
H8 H -0.2087 -0.1487 0.6498
C27 C 0.2870(7) 0.0341(4) 0.5681(3)
H9 H 0.2861 -0.0067 0.5631
C28 C 0.3200(11) 0.0701(4) 0.5240(4)
H10 H 0.3413 0.0537 0.4891
C29 C -0.0924(8) 0.2199(4) 0.6015(3)
H11 H -0.1519 0.1918 0.5999
C30 C 0.0254(7) -0.0672(4) 0.9457(3)
H12 H 0.0168 -0.0264 0.9485
C31 C -0.3780(7) -0.1268(4) 0.6282(4)
H13 H -0.4031 -0.1647 0.6175
C32 C 0.0907(6) 0.2573(3) 0.6458(3)
H14 H 0.1537 0.2548 0.6744
C33 C 0.3116(5) 0.0211(3) 0.8834(3)
H15 H 0.3036 0.0214 0.8424
C34 C -0.3131(7) 0.1304(4) 0.8706(4)
H16 H -0.2994 0.0932 0.8552
C35 C 0.3544(7) -0.0290(4) 0.9129(5)
H17 H 0.3788 -0.0614 0.8920
C36 C 0.2061(8) 0.3757(3) 0.9983(3)
H18 H 0.1299 0.3614 0.9967
C37 C 0.5904(7) 0.2328(3) 0.7271(5)
H19 H 0.5998 0.2736 0.7305
C38 C -0.0961(10) 0.2660(4) 0.5604(4)
H20 H -0.1589 0.2691 0.5317
C39 C 0.0865(9) 0.3022(3) 0.6040(4)
H21 H 0.1476 0.3293 0.6043
C40 C 0.2564(7) 0.1190(3) 0.6266(4)
H22 H 0.2350 0.1361 0.6611
C41 C -0.1539(6) 0.3526(4) 0.7062(4)
H23 H -0.1598 0.3130 0.7165
C42 C -0.0072(10) 0.3068(4) 0.5624(4)
H24 H -0.0105 0.3377 0.5354
C43 C -0.2424(9) 0.4387(5) 0.6639(4)
H25 H -0.3072 0.4582 0.6455
C44 C -0.4186(6) -0.0269(4) 0.6397(4)
H26 H -0.4717 0.0042 0.6357
C45 C 0.0054(9) -0.1027(4) 0.9931(4)
H27 H -0.0118 -0.0857 1.0285
C46 C -0.0461(7) 0.4407(3) 0.7050(4)
H28 H 0.0228 0.4618 0.7141
C47 C 0.4788(7) 0.1474(3) 0.7388(4)
H29 H 0.4108 0.1294 0.7493
C48 C 0.4342(11) 0.4158(5) 1.0037(6)
H30 H 0.5116 0.4286 1.0066
C49 C 0.3321(9) 0.0179(5) 1.0042(5)
H31 H 0.3386 0.0164 1.0452
C50 C -0.4543(6) -0.0822(4) 0.6241(3)
H32 H -0.5321 -0.0891 0.6105
C51 C 0.3216(11) 0.1302(5) 0.5315(5)
H33 H 0.3447 0.1545 0.5018
C52 C 0.3909(8) 0.3805(4) 0.9569(4)
H34 H 0.4381 0.3707 0.9273
C53 C -0.2496(7) 0.3810(5) 0.6773(5)
H35 H -0.3185 0.3602 0.6672
C54 C 0.6698(8) 0.1390(5) 0.7062(6)
H36 H 0.7296 0.1160 0.6932
C55 C 0.5709(9) 0.1131(4) 0.7223(5)
H37 H 0.5646 0.0721 0.7223
C56 C -0.4202(7) 0.1422(5) 0.8907(5)
H38 H -0.4776 0.1130 0.8885
C57 C 0.0376(11) -0.1871(4) 0.9366(5)
H39 H 0.0373 -0.2280 0.9328
C58 C 0.2899(11) 0.1543(4) 0.5815(5)
H40 H 0.2905 0.1952 0.5859
C59 C 0.0109(10) -0.1623(5) 0.9879(5)
H41 H -0.0037 -0.1863 1.0196
C60 C -0.2481(8) 0.2234(4) 0.8997(6)
H42 H -0.1890 0.2516 0.9047
C61 C 0.3602(9) -0.0304(5) 0.9727(5)
H43 H 0.3838 -0.0649 0.9925
C62 C 0.3609(16) 0.4319(5) 1.0460(5)
H44 H 0.3892 0.4567 1.0766
C63 C 0.2482(14) 0.4122(5) 1.0441(4)
H45 H 0.2004 0.4232 1.0731
Gd3A Gd 0.33688(2) 0.386560(12) 0.786030(14)
O1A O 0.2191(4) -0.18103(19) 0.6422(2)
O11A O 0.3506(4) -0.1219(3) 0.7506(2)
O17A O 0.1005(5) -0.20085(19) 0.7474(3)
loop_
_geom_bond_atom_site_label_1
_geom_bond_atom_site_label_2
_geom_bond_site_symmetry_1
_geom_bond_site_symmetry_2
Gd1 O2 1_555 1_555
Gd2 O1 1_555 1_555
Gd3 O15 1_555 1_555
O1 C10 1_555 1_555
O2 Gd2 1_555 1_555
O3 Gd1 1_555 1_555
O4 Gd1 1_555 1_555
O5 Gd1 1_555 1_555
O6 Gd2 1_555 1_555
O7 Gd1 1_555 1_555
O8 Gd2 1_555 1_555
O9 Gd1 1_555 1_555
O10 Gd1 1_555 1_555
C1 C7 1_555 1_555
O11 C13 1_555 1_555
O12 Gd2 1_555 1_555
O13 Gd2 1_555 1_555
C2 H1 1_555 1_555
O14 Gd2 1_555 1_555
O15 C17 1_555 1_555
O16 Gd3 1_555 1_555
C3 C17 1_555 1_555
O17 C7 1_555 1_555
O18 Gd3 1_555 1_555
C4 O5 1_555 1_555
C5 C9 1_555 1_555
C6 C4 1_555 1_555
C7 O12 1_555 1_555
C8 C13 1_555 1_555
C9 O10 1_555 1_555
C10 O8 1_555 1_555
C11 H2 1_555 1_555
C12 C14 1_555 1_555
C13 O14 1_555 1_555
C14 O3 1_555 1_555
C15 C5 1_555 1_555
H3 C15 1_555 1_555
C16 C2 1_555 1_555
H4 C16 1_555 1_555
C17 O4 1_555 1_555
C18 C19 1_555 1_555
C19 O2 1_555 1_555
C20 C10 1_555 1_555
C21 C18 1_555 1_555
H5 C21 1_555 1_555
C22 O9 1_555 1_555
C23 C22 1_555 1_555
C24 C6 1_555 1_555
H6 C24 1_555 1_555
C25 H7 1_555 1_555
C26 C5 1_555 1_555
H8 C26 1_555 1_555
C27 C3 1_555 1_555
H9 C27 1_555 1_555
C28 C27 1_555 1_555
H10 C28 1_555 1_555
C29 C12 1_555 1_555
H11 C29 1_555 1_555
C30 C6 1_555 1_555
H12 C30 1_555 1_555
C31 C26 1_555 1_555
H13 C31 1_555 1_555
C32 C12 1_555 1_555
H14 C32 1_555 1_555
C33 C18 1_555 1_555
H15 C33 1_555 1_555
C34 C23 1_555 1_555
H16 C34 1_555 1_555
C35 C33 1_555 1_555
H17 C35 1_555 1_555
C36 C20 1_555 1_555
H18 C36 1_555 1_555
C37 C1 1_555 1_555
H19 C37 1_555 1_555
C38 C29 1_555 1_555
H20 C38 1_555 1_555
C39 C32 1_555 1_555
H21 C39 1_555 1_555
C40 C3 1_555 1_555
H22 C40 1_555 1_555
C41 C8 1_555 1_555
H23 C41 1_555 1_555
C42 C38 1_555 1_555
H24 C42 1_555 1_555
C43 C11 1_555 1_555
H25 C43 1_555 1_555
C44 C15 1_555 1_555
H26 C44 1_555 1_555
C45 C30 1_555 1_555
H27 C45 1_555 1_555
C46 C8 1_555 1_555
H28 C46 1_555 1_555
C47 C1 1_555 1_555
H29 C47 1_555 1_555
C48 H30 1_555 1_555
C49 C21 1_555 1_555
H31 C49 1_555 1_555
C50 C31 1_555 1_555
H32 C50 1_555 1_555
C51 C28 1_555 1_555
H33 C51 1_555 1_555
C52 C20 1_555 1_555
H34 C52 1_555 1_555
C53 C41 1_555 1_555
H35 C53 1_555 1_555
C54 C25 1_555 1_555
H36 C54 1_555 1_555
C55 C47 1_555 1_555
H37 C55 1_555 1_555
C56 C2 1_555 1_555
H38 C56 1_555 1_555
C57 C24 1_555 1_555
H39 C57 1_555 1_555
C58 C40 1_555 1_555
H40 C58 1_555 1_555
C59 C45 1_555 1_555
H41 C59 1_555 1_555
C60 C16 1_555 1_555
H42 C60 1_555 1_555
C61 C35 1_555 1_555
H43 C61 1_555 1_555
C62 C48 1_555 1_555
H44 C62 1_555 1_555
C63 C36 1_555 1_555
H45 C63 1_555 1_555
Gd3A O1 1_555 1_555
O1A Gd3 1_555 1_555
O11A Gd3 1_555 1_555
O17A Gd3 1_555 1_555
Gd2 O3 1_555 1_555
O6 C19 1_555 1_555
O7 C14 1_555 1_555
O11 Gd3A 1_555 1_555
O13 C22 1_555 1_555
O16 C4 1_555 1_555
O17 Gd3A 1_555 1_555
O18 C9 1_555 1_555
C11 C46 1_555 1_555
C23 C60 1_555 1_555
C25 C37 1_555 1_555
C34 C56 1_555 1_555
C39 C42 1_555 1_555
C43 C53 1_555 1_555
C44 C50 1_555 1_555
C48 C52 1_555 1_555
C49 C61 1_555 1_555
C51 C58 1_555 1_555
C54 C55 1_555 1_555
C57 C59 1_555 1_555
C62 C63 1_555 1_555

#END
