
#######################################################################
#
#                 Cambridge Crystallographic Data Centre
#                                CCDC 
#
#######################################################################
#
# If this CIF has been generated from an entry in the Cambridge 
# Structural Database, then it will include bibliographic, chemical, 
# crystal, experimental, refinement or atomic coordinate data resulting 
# from the CCDC's data processing and validation procedures.
#
#######################################################################

data_JIPNIG
_symmetry_cell_setting           triclinic
_symmetry_space_group_name_H-M   'P -1'
_symmetry_Int_Tables_number      2
_space_group_name_Hall           '-P 1'
loop_
_symmetry_equiv_pos_site_id
_symmetry_equiv_pos_as_xyz
1 x,y,z
2 -x,-y,-z
_cell_length_a                   7.5340(12)
_cell_length_b                   9.1549(15)
_cell_length_c                   11.947(2)
_cell_angle_alpha                88.631(15)
_cell_angle_beta                 74.297(13)
_cell_angle_gamma                89.174(13)
_cell_volume                     793.013
loop_
_atom_site_label
_atom_site_type_symbol
_atom_site_fract_x
_atom_site_fract_y
_atom_site_fract_z
Sm1 Sm -0.26229(4) -0.07789(3) 0.01208(3)
O1 O -0.3964(5) 0.0871(4) 0.1678(4)
O2 O -0.2272(5) -0.1840(4) 0.2019(4)
O3 O -0.6856(5) 0.1502(4) 0.1716(4)
O4 O -0.0313(5) -0.2731(4) -0.0588(4)
O5 O -0.6045(5) -0.1234(4) 0.0688(3)
O6 O -0.4194(5) -0.3142(4) 0.0531(4)
O7 O -0.0281(6) -0.3144(5) -0.2429(4)
H1 H -0.1246 -0.2671 -0.2248
O8 O -0.0109(5) -0.0309(4) 0.1139(4)
C1 C -0.5809(7) -0.2645(6) 0.0773(5)
C2 C 0.0351(8) -0.3339(6) -0.1518(6)
C3 C 0.1942(8) -0.4389(7) -0.1695(7)
H2 H 0.2254 -0.4733 -0.2477
H3 H 0.1606 -0.5203 -0.1160
H4 H 0.2984 -0.3905 -0.1559
C4 C -0.5854(9) 0.1899(8) 0.3407(6)
H5 H -0.7098 0.2257 0.3677
H6 H -0.5012 0.2668 0.3428
H7 H -0.5671 0.1099 0.3900
C5 C -0.5514(8) 0.1388(6) 0.2187(6)
C6 C -0.0966(7) -0.1021(7) 0.2071(6)
C7 C -0.7435(9) -0.3607(7) 0.1193(8)
C8 C -0.0477(10) -0.0804(9) 0.3185(6)
H8 H 0.0544 -0.0147 0.3053
H9 H -0.0141 -0.1727 0.3471
H10 H -0.1518 -0.0400 0.3747
H15 H -0.850(9) -0.339(7) 0.090(6)
H16 H -0.714(9) -0.456(8) 0.106(6)
H17 H -0.779(11) -0.349(9) 0.202(8)
Sm1A Sm -0.73771(4) 0.07789(3) -0.01208(3)
Sm1A_2 Sm 0.26229(4) 0.07789(3) -0.01208(3)
O3A O -0.3144(5) -0.1502(4) -0.1716(4)
O5A O -0.3955(5) 0.1234(4) -0.0688(3)
O8A O 0.0109(5) 0.0309(4) -0.1139(4)
O9 O -0.4696(9) -0.3447(7) 0.3602(7)
O10 O -0.6571(8) -0.1625(8) 0.4001(9)
C9 C -0.7675(13) -0.3945(11) 0.4788(9)
H11 H -0.7132 -0.4904 0.4751
H12 H -0.8717 -0.3960 0.4470
H13 H -0.8071 -0.3651 0.5584
C10 C -0.6281(10) -0.2887(8) 0.4101(7)
H14 H -0.402(12) -0.274(10) 0.305(9)
loop_
_geom_bond_atom_site_label_1
_geom_bond_atom_site_label_2
_geom_bond_site_symmetry_1
_geom_bond_site_symmetry_2
Sm1 O1 1_555 1_555
O1 C5 1_555 1_555
O2 Sm1 1_555 1_555
O3 C5 1_555 1_555
O4 Sm1 1_555 1_555
O5 Sm1 1_555 1_555
O6 Sm1 1_555 1_555
O7 H1 1_555 1_555
O8 Sm1 1_555 1_555
C1 O5 1_555 1_555
C2 O4 1_555 1_555
C3 C2 1_555 1_555
H2 C3 1_555 1_555
H3 C3 1_555 1_555
H4 C3 1_555 1_555
C4 H5 1_555 1_555
H6 C4 1_555 1_555
H7 C4 1_555 1_555
C5 C4 1_555 1_555
C6 O2 1_555 1_555
C7 C1 1_555 1_555
C8 C6 1_555 1_555
H8 C8 1_555 1_555
H9 C8 1_555 1_555
H10 C8 1_555 1_555
O9 C10 1_555 1_555
O10 C10 1_555 1_555
C9 H11 1_555 1_555
H12 C9 1_555 1_555
H13 C9 1_555 1_555
C10 C9 1_555 1_555
H14 O9 1_555 1_555
H15 C7 1_555 1_555
H16 C7 1_555 1_555
H17 C7 1_555 1_555
Sm1A O3 1_555 1_555
Sm1A_2 O8 1_555 1_555
O3A Sm1 1_555 1_555
O5A Sm1 1_555 1_555
O8A Sm1 1_555 1_555
O5 Sm1A 1_555 1_555
O6 C1 1_555 1_555
O7 C2 1_555 1_555
O8 C6 1_555 1_555
Sm1A O5A 1_555 1_555
Sm1A_2 O8A 1_555 1_555

#END
