
#######################################################################
#
#                 Cambridge Crystallographic Data Centre
#                                CCDC 
#
#######################################################################
#
# If this CIF has been generated from an entry in the Cambridge 
# Structural Database, then it will include bibliographic, chemical, 
# crystal, experimental, refinement or atomic coordinate data resulting 
# from the CCDC's data processing and validation procedures.
#
#######################################################################

data_JIPNEC
_symmetry_cell_setting           triclinic
_symmetry_space_group_name_H-M   'P -1'
_symmetry_Int_Tables_number      2
_space_group_name_Hall           '-P 1'
loop_
_symmetry_equiv_pos_site_id
_symmetry_equiv_pos_as_xyz
1 x,y,z
2 -x,-y,-z
_cell_length_a                   13.9476(16)
_cell_length_b                   14.0934(17)
_cell_length_c                   15.413(2)
_cell_angle_alpha                105.743(10)
_cell_angle_beta                 99.736(10)
_cell_angle_gamma                109.374(9)
_cell_volume                     2636.55
loop_
_atom_site_label
_atom_site_type_symbol
_atom_site_fract_x
_atom_site_fract_y
_atom_site_fract_z
Mn1 Mn 1.21111(4) 0.20282(4) 0.66898(3)
Mn2 Mn 1.96446(4) 0.16635(3) 0.52605(3)
Mn3 Mn 1.70926(4) 0.00533(4) 0.42507(3)
Mn4 Mn 1.5000 0.0000 0.5000
O1 O 1.20873(16) 0.35781(15) 0.66795(14)
O2 O 1.21024(14) 0.04850(15) 0.67007(13)
O3 O 1.06776(15) 0.33048(15) 0.55396(14)
O4 O 1.09841(14) 0.11928(14) 0.52545(13)
O5 O 1.34876(17) 0.29637(16) 0.79325(15)
O6 O 1.81069(14) 0.18244(14) 0.49649(13)
O7 O 1.65817(15) 0.12237(15) 0.52563(14)
O8 O 1.14840(15) -0.01309(14) 0.46511(13)
O9 O 1.40117(15) 0.09816(15) 0.52622(14)
O10 O 1.07449(15) -0.10977(15) 0.62798(13)
O11 O 1.33726(15) 0.21111(16) 0.59903(14)
O12 O 1.3978(2) 0.46094(18) 0.78456(18)
H1 H 1.3378 0.4344 0.7485
O13 O 0.97169(16) 0.22328(16) 0.67077(14)
O14 O 1.39873(17) 0.01111(19) 0.69607(15)
O15 O 1.54062(16) 0.02768(17) 0.64280(14)
O16 O 1.09769(17) 0.18199(18) 0.74213(16)
C1 C 1.0046(2) 0.2580(2) 0.8347(2)
C2 C 1.0257(2) 0.2178(2) 0.7424(2)
C3 C 0.9326(3) 0.3654(3) 0.9320(2)
H2 H 0.8935 0.4076 0.9387
C4 C 1.7744(2) 0.3047(2) 0.6159(2)
C5 C 1.1678(2) 0.5076(2) 0.6607(2)
C6 C 1.2015(4) 0.7225(3) 0.7265(3)
H3 H 1.2131 0.7948 0.7493
C7 C 1.8637(3) 0.3928(2) 0.6255(2)
H4 H 1.9067 0.3858 0.5862
C8 C 1.1456(2) 0.3903(2) 0.6245(2)
C9 C 1.4148(2) 0.3888(2) 0.8174(2)
C10 C 1.1729(2) 0.2206(2) 0.3996(2)
H5 H 1.1509 0.2576 0.4464
C11 C 1.2029(3) 0.0645(3) 0.3237(2)
H6 H 1.2008 -0.0033 0.3190
C12 C 1.1276(2) 0.5529(2) 0.6030(2)
H7 H 1.0886 0.5107 0.5410
C13 C 1.2354(3) 0.0782(2) 0.8601(2)
H8 H 1.2913 0.1197 0.8432
C14 C 1.6536(3) 0.3902(3) 0.9715(3)
H9 H 1.6764 0.3407 0.9878
C15 C 1.1697(2) 0.1192(2) 0.3938(2)
C16 C 1.1413(2) -0.0245(2) 0.6896(2)
C17 C 1.7463(2) 0.1994(2) 0.5429(2)
C18 C 1.1467(2) -0.0027(2) 0.7911(2)
C19 C 1.2085(3) 0.2669(3) 0.3362(2)
H10 H 1.2101 0.3344 0.3403
C20 C 0.9466(2) 0.3225(2) 0.8448(2)
H11 H 0.9175 0.3367 0.7933
C21 C 1.4959(2) 0.0321(2) 0.7076(2)
C22 C 1.5546(3) 0.3549(3) 0.9091(2)
H12 H 1.5110 0.2821 0.8839
C23 C 1.2419(5) 0.6780(4) 0.7841(3)
H13 H 1.2810 0.7208 0.8460
C24 C 1.6846(3) 0.5709(3) 0.9860(3)
H14 H 1.7280 0.6438 1.0126
C25 C 1.1444(3) 0.6609(3) 0.6361(3)
H15 H 1.1167 0.6907 0.5965
C26 C 1.2391(3) 0.1112(3) 0.2607(2)
H16 H 1.2617 0.0746 0.2140
C27 C 1.2260(4) 0.5712(3) 0.7525(3)
H17 H 1.2543 0.5422 0.7925
C28 C 1.0630(3) -0.0649(3) 0.8161(2)
H18 H 1.0039 -0.1201 0.7700
C29 C 1.5204(2) 0.4283(2) 0.8841(2)
C30 C 1.8886(3) 0.4921(3) 0.6942(2)
H19 H 1.9480 0.5515 0.7007
C31 C 1.1569(3) 0.0367(3) 0.9790(2)
H20 H 1.1600 0.0502 1.0421
C32 C 1.7109(3) 0.3149(3) 0.6760(2)
H21 H 1.6513 0.2558 0.6699
C33 C 1.0467(2) 0.2365(2) 0.9117(2)
H22 H 1.0846 0.1931 0.9052
C34 C 1.5858(3) 0.5371(3) 0.9227(2)
H23 H 1.5637 0.5869 0.9064
C35 C 1.7188(3) 0.4980(3) 1.0096(3)
H24 H 1.7855 0.5213 1.0511
C36 C 1.2406(3) 0.0973(3) 0.9551(2)
H25 H 1.3004 0.1507 1.0017
C37 C 1.0324(3) 0.2794(3) 0.9989(2)
H26 H 1.0600 0.2641 1.0502
C38 C 1.8245(3) 0.5016(3) 0.7530(2)
H27 H 1.8408 0.5680 0.7982
C39 C 1.7369(3) 0.4136(3) 0.7448(2)
H28 H 1.6953 0.4204 0.7855
C40 C 0.9770(3) 0.3450(3) 1.0086(2)
H29 H 0.9695 0.3758 1.0673
C41 C 1.1357(2) 0.0710(2) 0.46470(19)
C42 C 1.2419(3) 0.2117(3) 0.2667(2)
H30 H 1.2662 0.2425 0.2242
C43 C 1.0689(3) -0.0434(3) 0.9113(2)
H31 H 1.0130 -0.0836 0.9289
C44 C 1.3993(2) 0.1914(2) 0.5528(2)
C45 C 1.4727(2) 0.2778(2) 0.5286(2)
C46 C 1.5166(3) 0.2521(3) 0.4552(2)
H32 H 1.4968 0.1807 0.4183
C47 C 1.5018(3) 0.3847(3) 0.5820(2)
H33 H 1.4714 0.4023 0.6300
C48 C 1.5759(3) 0.4655(3) 0.5645(3)
H34 H 1.5957 0.5372 0.6007
C49 C 1.6200(3) 0.4387(3) 0.4930(3)
H35 H 1.6710 0.4926 0.4819
C50 C 1.5895(3) 0.3332(3) 0.4376(3)
H36 H 1.6181 0.3164 0.3881
C51 C 1.6734(3) 0.0953(3) 0.8211(2)
H37 H 1.7027 0.0978 0.7714
C52 C 1.7384(3) 0.1213(3) 0.9101(3)
H38 H 1.8107 0.1392 0.9196
C53 C 1.5654(2) 0.0656(2) 0.8057(2)
C54 C 1.5228(3) 0.0676(3) 0.8812(2)
H39 H 1.4505 0.0500 0.8720
C55 C 1.6961(3) 0.1208(3) 0.9841(3)
H40 H 1.7397 0.1371 1.0434
C56 C 1.5895(3) 0.0964(3) 0.9710(2)
H41 H 1.5617 0.0990 1.0219
Mn1A Mn 1.78889(4) -0.20282(4) 0.33102(3)
Mn1_2 Mn 2.21111(4) 0.20282(4) 0.66898(3)
Mn2A Mn 1.03554(4) -0.16635(3) 0.47395(3)
Mn2_2 Mn 0.96446(4) 0.16635(3) 0.52605(3)
Mn2A_2 Mn 2.03554(4) -0.16635(3) 0.47395(3)
Mn3A Mn 1.29074(4) -0.00533(4) 0.57493(3)
Mn3A_2 Mn 2.29074(4) -0.00533(4) 0.57493(3)
O1_2 O 2.20873(16) 0.35781(15) 0.66795(14)
O1A O 1.79127(16) -0.35781(15) 0.33205(14)
O2A O 1.78976(14) -0.04850(15) 0.32993(13)
O3_2 O 2.06776(15) 0.33048(15) 0.55396(14)
O3A O 0.93224(15) -0.33048(15) 0.44604(14)
O4_2 O 2.09841(14) 0.11928(14) 0.52545(13)
O4A O 1.90159(14) -0.11928(14) 0.47455(13)
O4A_2 O 0.90159(14) -0.11928(14) 0.47455(13)
O5A O 1.65124(17) -0.29637(16) 0.20675(15)
O6A O 1.18931(14) -0.18244(14) 0.50351(13)
O7A O 1.34183(15) -0.12237(15) 0.47437(14)
O8_2 O 2.14840(15) -0.01309(14) 0.46511(13)
O8A O 1.85160(15) 0.01309(14) 0.53489(13)
O9A O 1.59883(15) -0.09816(15) 0.47378(14)
O10A O 1.92551(15) 0.10977(15) 0.37202(13)
O11A O 1.66274(15) -0.21111(16) 0.40097(14)
O12A O 1.6022(2) -0.46094(18) 0.21544(18)
H1A H 1.6622 -0.4344 0.2515
O13_2 O 1.97169(16) 0.22328(16) 0.67077(14)
O13A O 1.02831(16) -0.22328(16) 0.32923(14)
O14A O 1.60127(17) -0.01111(19) 0.30393(15)
O15A O 1.45938(16) -0.02768(17) 0.35720(14)
O16_2 O 2.09769(17) 0.18199(18) 0.74213(16)
O16A O 1.90231(17) -0.18199(18) 0.25787(16)
C1_2 C 2.0046(2) 0.2580(2) 0.8347(2)
C2_2 C 2.0257(2) 0.2178(2) 0.7424(2)
C3_2 C 1.9326(3) 0.3654(3) 0.9320(2)
H2_2 H 1.8935 0.4076 0.9387
C4A C 1.2256(2) -0.3047(2) 0.3841(2)
C5_2 C 2.1678(2) 0.5076(2) 0.6607(2)
C6_2 C 2.2015(4) 0.7225(3) 0.7265(3)
H3_2 H 2.2131 0.7948 0.7493
C7A C 1.1363(3) -0.3928(2) 0.3745(2)
H4A H 1.0933 -0.3858 0.4138
C8_2 C 2.1456(2) 0.3903(2) 0.6245(2)
C9A C 1.5852(2) -0.3888(2) 0.1826(2)
C10_2 C 2.1729(2) 0.2206(2) 0.3996(2)
H5_2 H 2.1509 0.2576 0.4464
C11_2 C 2.2029(3) 0.0645(3) 0.3237(2)
H6_2 H 2.2008 -0.0033 0.3190
C12_2 C 2.1276(2) 0.5529(2) 0.6030(2)
H7_2 H 2.0886 0.5107 0.5410
C13A C 1.7646(3) -0.0782(2) 0.1399(2)
H8A H 1.7087 -0.1197 0.1568
C14A C 1.3464(3) -0.3902(3) 0.0285(3)
H9A H 1.3236 -0.3407 0.0122
C15_2 C 2.1697(2) 0.1192(2) 0.3938(2)
C16A C 1.8587(2) 0.0245(2) 0.3104(2)
C17A C 1.2537(2) -0.1994(2) 0.4571(2)
C18A C 1.8533(2) 0.0027(2) 0.2089(2)
C19_2 C 2.2085(3) 0.2669(3) 0.3362(2)
H10_2 H 2.2101 0.3344 0.3403
C20_2 C 1.9466(2) 0.3225(2) 0.8448(2)
H11_2 H 1.9175 0.3367 0.7933
C21A C 1.5041(2) -0.0321(2) 0.2924(2)
C22A C 1.4454(3) -0.3549(3) 0.0909(2)
H12A H 1.4890 -0.2821 0.1161
C23_2 C 2.2419(5) 0.6780(4) 0.7841(3)
H13_2 H 2.2810 0.7208 0.8460
C24A C 1.3154(3) -0.5709(3) 0.0140(3)
H14A H 1.2720 -0.6438 -0.0126
C25_2 C 2.1444(3) 0.6609(3) 0.6361(3)
H15_2 H 2.1167 0.6907 0.5965
C26_2 C 2.2391(3) 0.1112(3) 0.2607(2)
H16_2 H 2.2617 0.0746 0.2140
C27_2 C 2.2260(4) 0.5712(3) 0.7525(3)
H17_2 H 2.2543 0.5422 0.7925
C28A C 1.9370(3) 0.0649(3) 0.1839(2)
H18A H 1.9961 0.1201 0.2300
C29A C 1.4796(2) -0.4283(2) 0.1159(2)
C30A C 1.1114(3) -0.4921(3) 0.3058(2)
H19A H 1.0520 -0.5515 0.2993
C31A C 1.8431(3) -0.0367(3) 0.0210(2)
H20A H 1.8400 -0.0502 -0.0421
C32A C 1.2891(3) -0.3149(3) 0.3240(2)
H21A H 1.3487 -0.2558 0.3301
C33_2 C 2.0467(2) 0.2365(2) 0.9117(2)
H22_2 H 2.0846 0.1931 0.9052
C34A C 1.4142(3) -0.5371(3) 0.0773(2)
H23A H 1.4363 -0.5869 0.0936
C35A C 1.2812(3) -0.4980(3) -0.0096(3)
H24A H 1.2145 -0.5213 -0.0511
C36A C 1.7594(3) -0.0973(3) 0.0449(2)
H25A H 1.6996 -0.1507 -0.0017
C37_2 C 2.0324(3) 0.2794(3) 0.9989(2)
H26_2 H 2.0600 0.2641 1.0502
C38A C 1.1755(3) -0.5016(3) 0.2470(2)
H27A H 1.1592 -0.5680 0.2018
C39A C 1.2631(3) -0.4136(3) 0.2552(2)
H28A H 1.3047 -0.4204 0.2145
C40_2 C 1.9770(3) 0.3450(3) 1.0086(2)
H29_2 H 1.9695 0.3758 1.0673
C41_2 C 2.1357(2) 0.0710(2) 0.46470(19)
C42_2 C 2.2419(3) 0.2117(3) 0.2667(2)
H30_2 H 2.2662 0.2425 0.2242
C43A C 1.9311(3) 0.0434(3) 0.0887(2)
H31A H 1.9870 0.0836 0.0711
C44A C 1.6007(2) -0.1914(2) 0.4472(2)
C45A C 1.5273(2) -0.2778(2) 0.4714(2)
C46A C 1.4834(3) -0.2521(3) 0.5448(2)
H32A H 1.5032 -0.1807 0.5817
C47A C 1.4982(3) -0.3847(3) 0.4180(2)
H33A H 1.5286 -0.4023 0.3700
C48A C 1.4241(3) -0.4655(3) 0.4355(3)
H34A H 1.4043 -0.5372 0.3993
C49A C 1.3800(3) -0.4387(3) 0.5070(3)
H35A H 1.3290 -0.4926 0.5181
C50A C 1.4105(3) -0.3332(3) 0.5624(3)
H36A H 1.3819 -0.3164 0.6119
C51A C 1.3266(3) -0.0953(3) 0.1789(2)
H37A H 1.2973 -0.0978 0.2286
C52A C 1.2616(3) -0.1213(3) 0.0899(3)
H38A H 1.1893 -0.1392 0.0804
C53A C 1.4346(2) -0.0656(2) 0.1943(2)
C54A C 1.4772(3) -0.0676(3) 0.1188(2)
H39A H 1.5495 -0.0500 0.1280
C55A C 1.3039(3) -0.1208(3) 0.0159(3)
H40A H 1.2603 -0.1371 -0.0434
C56A C 1.4105(3) -0.0964(3) 0.0290(2)
H41A H 1.4383 -0.0990 -0.0219
loop_
_geom_bond_atom_site_label_1
_geom_bond_atom_site_label_2
_geom_bond_site_symmetry_1
_geom_bond_site_symmetry_2
Mn1 O1 1_555 1_555
Mn2 O6 1_555 1_555
Mn3 O6 1_555 1_555
Mn4 O7 1_555 1_555
O1 C8 1_555 1_555
O2 Mn1 1_555 1_555
O3 C8 1_555 1_555
O4 Mn1 1_555 1_555
O5 Mn1 1_555 1_555
O6 C17 1_555 1_555
O7 Mn3 1_555 1_555
O8 C41 1_555 1_555
O9 Mn4 1_555 1_555
O10 C16 1_555 1_555
O11 Mn1 1_555 1_555
O12 H1 1_555 1_555
O13 C2 1_555 1_555
O14 C21 1_555 1_555
O15 Mn4 1_555 1_555
O16 Mn1 1_555 1_555
C1 C2 1_555 1_555
C2 O16 1_555 1_555
C3 H2 1_555 1_555
C4 C7 1_555 1_555
C5 C8 1_555 1_555
C6 H3 1_555 1_555
C7 H4 1_555 1_555
C9 O5 1_555 1_555
C10 H5 1_555 1_555
C11 H6 1_555 1_555
C12 C5 1_555 1_555
H7 C12 1_555 1_555
C13 H8 1_555 1_555
C14 H9 1_555 1_555
C15 C10 1_555 1_555
C16 O2 1_555 1_555
C17 O7 1_555 1_555
C18 C13 1_555 1_555
C19 C10 1_555 1_555
H10 C19 1_555 1_555
C20 C1 1_555 1_555
H11 C20 1_555 1_555
C21 O15 1_555 1_555
C22 C14 1_555 1_555
H12 C22 1_555 1_555
C23 C6 1_555 1_555
H13 C23 1_555 1_555
C24 H14 1_555 1_555
C25 C6 1_555 1_555
H15 C25 1_555 1_555
C26 C11 1_555 1_555
H16 C26 1_555 1_555
C27 C5 1_555 1_555
H17 C27 1_555 1_555
C28 C18 1_555 1_555
H18 C28 1_555 1_555
C29 C9 1_555 1_555
C30 C7 1_555 1_555
H19 C30 1_555 1_555
C31 H20 1_555 1_555
C32 C4 1_555 1_555
H21 C32 1_555 1_555
C33 C1 1_555 1_555
H22 C33 1_555 1_555
C34 C24 1_555 1_555
H23 C34 1_555 1_555
C35 C14 1_555 1_555
H24 C35 1_555 1_555
C36 C13 1_555 1_555
H25 C36 1_555 1_555
C37 C33 1_555 1_555
H26 C37 1_555 1_555
C38 C30 1_555 1_555
H27 C38 1_555 1_555
C39 C32 1_555 1_555
H28 C39 1_555 1_555
C40 C3 1_555 1_555
H29 C40 1_555 1_555
C41 O4 1_555 1_555
C42 C19 1_555 1_555
H30 C42 1_555 1_555
C43 C28 1_555 1_555
H31 C43 1_555 1_555
C44 O9 1_555 1_555
C45 C44 1_555 1_555
C46 C45 1_555 1_555
H32 C46 1_555 1_555
C47 C45 1_555 1_555
H33 C47 1_555 1_555
C48 C47 1_555 1_555
H34 C48 1_555 1_555
C49 C48 1_555 1_555
H35 C49 1_555 1_555
C50 C46 1_555 1_555
H36 C50 1_555 1_555
C51 H37 1_555 1_555
C52 C51 1_555 1_555
H38 C52 1_555 1_555
C53 C21 1_555 1_555
C54 C53 1_555 1_555
H39 C54 1_555 1_555
C55 C52 1_555 1_555
H40 C55 1_555 1_555
C56 C54 1_555 1_555
H41 C56 1_555 1_555
Mn1A O1A 1_555 1_555
Mn1_2 O1_2 1_555 1_555
Mn2A O8 1_555 1_555
Mn2_2 O3 1_555 1_555
Mn2A_2 O4A 1_555 1_555
Mn3A O2 1_555 1_555
Mn3A_2 O8_2 1_555 1_555
O1_2 C8_2 1_555 1_555
O2A Mn3 1_555 1_555
O3_2 Mn2 1_555 1_555
O3A Mn2A 1_555 1_555
O4_2 Mn2 1_555 1_555
O4A Mn1A 1_555 1_555
O4A_2 Mn2A 1_555 1_555
O5A Mn1A 1_555 1_555
O6A Mn2A 1_555 1_555
O7A Mn4 1_555 1_555
O8_2 Mn2A_2 1_555 1_555
O8A Mn2 1_555 1_555
O9A Mn3 1_555 1_555
O10A Mn2 1_555 1_555
O11A Mn1A 1_555 1_555
O12A H1A 1_555 1_555
O13_2 Mn2 1_555 1_555
O13A Mn2A 1_555 1_555
O14A Mn3 1_555 1_555
O15A Mn4 1_555 1_555
O16_2 Mn1_2 1_555 1_555
O16A Mn1A 1_555 1_555
C1_2 C2_2 1_555 1_555
C2_2 O13_2 1_555 1_555
C3_2 H2_2 1_555 1_555
C4A C7A 1_555 1_555
C5_2 C8_2 1_555 1_555
C6_2 H3_2 1_555 1_555
C7A H4A 1_555 1_555
C8_2 O3_2 1_555 1_555
C9A O5A 1_555 1_555
C10_2 H5_2 1_555 1_555
C11_2 H6_2 1_555 1_555
C12_2 C5_2 1_555 1_555
H7_2 C12_2 1_555 1_555
C13A H8A 1_555 1_555
C14A H9A 1_555 1_555
C15_2 C10_2 1_555 1_555
C16A O2A 1_555 1_555
C17A O6A 1_555 1_555
C18A C13A 1_555 1_555
C19_2 C10_2 1_555 1_555
H10_2 C19_2 1_555 1_555
C20_2 C1_2 1_555 1_555
H11_2 C20_2 1_555 1_555
C21A O14A 1_555 1_555
C22A C14A 1_555 1_555
H12A C22A 1_555 1_555
C23_2 C6_2 1_555 1_555
H13_2 C23_2 1_555 1_555
C24A H14A 1_555 1_555
C25_2 C6_2 1_555 1_555
H15_2 C25_2 1_555 1_555
C26_2 C11_2 1_555 1_555
H16_2 C26_2 1_555 1_555
C27_2 C5_2 1_555 1_555
H17_2 C27_2 1_555 1_555
C28A C18A 1_555 1_555
H18A C28A 1_555 1_555
C29A C9A 1_555 1_555
C30A C7A 1_555 1_555
H19A C30A 1_555 1_555
C31A H20A 1_555 1_555
C32A C4A 1_555 1_555
H21A C32A 1_555 1_555
C33_2 C1_2 1_555 1_555
H22_2 C33_2 1_555 1_555
C34A C24A 1_555 1_555
H23A C34A 1_555 1_555
C35A C14A 1_555 1_555
H24A C35A 1_555 1_555
C36A C13A 1_555 1_555
H25A C36A 1_555 1_555
C37_2 C33_2 1_555 1_555
H26_2 C37_2 1_555 1_555
C38A C30A 1_555 1_555
H27A C38A 1_555 1_555
C39A C32A 1_555 1_555
H28A C39A 1_555 1_555
C40_2 C3_2 1_555 1_555
H29_2 C40_2 1_555 1_555
C41_2 O4_2 1_555 1_555
C42_2 C19_2 1_555 1_555
H30_2 C42_2 1_555 1_555
C43A C28A 1_555 1_555
H31A C43A 1_555 1_555
C44A O9A 1_555 1_555
C45A C44A 1_555 1_555
C46A C45A 1_555 1_555
H32A C46A 1_555 1_555
C47A C45A 1_555 1_555
H33A C47A 1_555 1_555
C48A C47A 1_555 1_555
H34A C48A 1_555 1_555
C49A C48A 1_555 1_555
H35A C49A 1_555 1_555
C50A C46A 1_555 1_555
H36A C50A 1_555 1_555
C51A H37A 1_555 1_555
C52A C51A 1_555 1_555
H38A C52A 1_555 1_555
C53A C21A 1_555 1_555
C54A C53A 1_555 1_555
H39A C54A 1_555 1_555
C55A C52A 1_555 1_555
H40A C55A 1_555 1_555
C56A C54A 1_555 1_555
H41A C56A 1_555 1_555
Mn3 O8A 1_555 1_555
Mn4 O9A 1_555 1_555
O4 Mn2_2 1_555 1_555
O8 Mn3A 1_555 1_555
O9 Mn3A 1_555 1_555
O10 Mn2A 1_555 1_555
O11 C44 1_555 1_555
O12 C9 1_555 1_555
O13 Mn2_2 1_555 1_555
O14 Mn3A 1_555 1_555
C3 C20 1_555 1_555
C4 C17 1_555 1_555
C11 C15 1_555 1_555
C12 C25 1_555 1_555
C15 C41 1_555 1_555
C16 C18 1_555 1_555
C22 C29 1_555 1_555
C23 C27 1_555 1_555
C24 C35 1_555 1_555
C26 C42 1_555 1_555
C29 C34 1_555 1_555
C31 C36 1_555 1_555
C31 C43 1_555 1_555
C37 C40 1_555 1_555
C38 C39 1_555 1_555
C49 C50 1_555 1_555
C51 C53 1_555 1_555
C55 C56 1_555 1_555
Mn1A O2A 1_555 1_555
Mn1_2 O4_2 1_555 1_555
Mn3A O6A 1_555 1_555
Mn3A O7A 1_555 1_555
O7A C17A 1_555 1_555
O8_2 C41_2 1_555 1_555
O10A C16A 1_555 1_555
O11A C44A 1_555 1_555
O12A C9A 1_555 1_555
O15A C21A 1_555 1_555
O16_2 C2_2 1_555 1_555
C3_2 C20_2 1_555 1_555
C4A C17A 1_555 1_555
C11_2 C15_2 1_555 1_555
C12_2 C25_2 1_555 1_555
C15_2 C41_2 1_555 1_555
C16A C18A 1_555 1_555
C22A C29A 1_555 1_555
C23_2 C27_2 1_555 1_555
C24A C35A 1_555 1_555
C26_2 C42_2 1_555 1_555
C29A C34A 1_555 1_555
C31A C36A 1_555 1_555
C31A C43A 1_555 1_555
C37_2 C40_2 1_555 1_555
C38A C39A 1_555 1_555
C49A C50A 1_555 1_555
C51A C53A 1_555 1_555
C55A C56A 1_555 1_555

#END
