
#######################################################################
#
#                 Cambridge Crystallographic Data Centre
#                                CCDC 
#
#######################################################################
#
# If this CIF has been generated from an entry in the Cambridge 
# Structural Database, then it will include bibliographic, chemical, 
# crystal, experimental, refinement or atomic coordinate data resulting 
# from the CCDC's data processing and validation procedures.
#
#######################################################################

data_JIPPEE
_symmetry_cell_setting           triclinic
_symmetry_space_group_name_H-M   'P -1'
_symmetry_Int_Tables_number      2
_space_group_name_Hall           '-P 1'
loop_
_symmetry_equiv_pos_site_id
_symmetry_equiv_pos_as_xyz
1 x,y,z
2 -x,-y,-z
_cell_length_a                   11.3584(13)
_cell_length_b                   22.764(3)
_cell_length_c                   22.693(3)
_cell_angle_alpha                90.493(10)
_cell_angle_beta                 90.776(9)
_cell_angle_gamma                93.890(10)
_cell_volume                     5853.24
loop_
_atom_site_label
_atom_site_type_symbol
_atom_site_fract_x
_atom_site_fract_y
_atom_site_fract_z
Ho1 Ho 0.85254(7) 0.17126(4) 1.27471(3)
Ho2 Ho 0.95844(7) 0.22718(4) 1.43289(3)
Ho3 Ho 0.51973(7) 0.26303(4) 0.93707(3)
Ho4 Ho 0.82048(7) 0.28609(4) 1.61462(3)
Ho5 Ho 0.65323(7) 0.21170(4) 1.11929(3)
Ho6 Ho 0.61930(8) 0.32073(4) 0.78301(4)
O1 O 0.8166(9) 0.1645(5) 1.3829(4)
O2 O 1.0438(9) 0.3129(6) 1.3838(5)
O3 O 1.0224(9) 0.1358(6) 1.3037(5)
O4 O 0.9289(9) 0.2535(6) 1.3287(4)
O5 O 0.5598(12) 0.2355(6) 0.8346(5)
O6 O 0.6537(10) 0.3279(6) 0.8931(5)
O7 O 0.8597(10) 0.0898(6) 1.2115(5)
O8 O 0.4396(13) 0.3501(7) 0.8064(5)
O9 O 0.6988(12) 0.2269(7) 1.2807(4)
O10 O 0.8056(9) 0.2800(5) 1.4519(5)
O11 O 0.6163(11) 0.2967(6) 1.0812(5)
O12 O 0.7114(11) 0.1402(6) 1.1844(5)
O13 O 0.4681(9) 0.1788(6) 1.0952(5)
O14 O 0.9496(10) 0.2201(6) 1.2030(5)
O15 O 1.0676(10) 0.2741(6) 1.5040(5)
O16 O 0.8534(11) 0.1976(6) 1.5791(5)
O17 O 0.7167(11) 0.1598(6) 1.0412(4)
O18 O 0.7109(14) 0.4034(7) 0.8364(6)
O19 O 1.0931(9) 0.1705(6) 1.3923(4)
C1 C 0.7653(16) 0.1144(11) 1.3762(8)
O20 O 0.5220(11) 0.2705(6) 1.7083(5)
O21 O 0.8383(11) 0.2465(6) 1.1274(5)
O22 O 0.6399(11) 0.2559(7) 1.6334(6)
C2 C 0.9378(18) 0.2456(8) 1.1522(8)
O23 O 0.4116(10) 0.2140(6) 1.0060(5)
O24 O 0.9454(11) 0.1572(6) 1.5025(5)
O25 O 0.3791(10) 0.3135(7) 0.8948(5)
C3 C 0.3931(14) 0.1866(7) 1.0543(8)
O26 O 0.4395(10) 0.1772(6) 0.8838(5)
O27 O 0.5862(11) 0.2453(6) 1.2042(4)
O28 O 0.7479(10) 0.0925(6) 1.3252(4)
O29 O 0.7529(13) 0.3273(7) 1.5322(5)
O30 O 0.7903(9) 0.2793(6) 1.7837(5)
O31 O 0.8865(10) 0.2565(6) 1.7020(5)
O32 O 0.6715(11) 0.2141(6) 0.9639(5)
O33 O 1.0042(11) 0.3091(7) 1.5887(6)
C4 C 1.0419(15) 0.2752(8) 1.1251(7)
C5 C 0.7053(13) 0.0227(12) 1.4284(8)
H1 H 0.7243 0.0014 1.3951
C6 C 0.7148(17) 0.0855(10) 1.4274(7)
C7 C 0.4985(15) 0.1880(8) 0.8362(7)
C8 C 1.037(2) 0.2912(10) 1.0664(8)
H2 H 0.9673 0.2823 1.0455
C9 C 0.7112(14) 0.1675(9) 0.9875(8)
C10 C 1.1009(18) 0.1414(9) 1.3443(7)
C11 C 0.2681(14) 0.1628(8) 1.0653(7)
C12 C 0.2294(16) 0.1461(8) 1.1203(8)
H3 H 0.2825 0.1473 1.1519
C13 C 0.7110(19) 0.3816(10) 0.8873(9)
C14 C 0.7555(17) 0.1211(9) 0.9459(7)
C15 C 0.5887(15) 0.1471(8) 0.7473(6)
H4 H 0.6491 0.1767 0.7506
C16 C 0.9922(16) 0.3483(8) 1.2895(7)
C17 C 0.4055(15) 0.0995(9) 0.7819(8)
H5 H 0.3468 0.0968 0.8101
C18 C 0.9905(16) 0.3046(11) 1.3355(8)
C19 C 0.4964(16) 0.1422(9) 0.7877(7)
C20 C 0.3997(19) 0.0591(8) 0.7331(8)
H6 H 0.3377 0.0306 0.7283
C21 C 1.1454(16) 0.2907(10) 1.1562(10)
H7 H 1.1512 0.2808 1.1958
O34 O 0.7863(16) 0.3695(9) 1.6627(10)
O35 O 0.6485(15) 0.3940(9) 1.7160(6)
C22 C 1.0825(17) 0.3033(11) 1.5532(9)
C23 C 1.2072(15) 0.3286(9) 1.5652(6)
C24 C 0.7188(17) 0.4054(9) 1.6787(8)
C25 C 1.2195(15) 0.1174(10) 1.3312(7)
C26 C 0.7658(17) 0.3241(9) 1.4770(7)
C27 C 0.4381(15) 0.2182(8) 1.6256(7)
C28 C 0.6045(19) 0.0413(11) 1.1188(7)
H8 H 0.5531 0.0696 1.1292
C29 C 0.7202(18) 0.0441(8) 1.1407(7)
C30 C 0.4464(19) 0.2072(9) 1.5667(7)
H9 H 0.5131 0.2204 1.5462
C31 C 0.7678(17) 0.0946(10) 1.1806(8)
C32 C 0.7917(17) -0.0004(9) 1.1229(7)
H10 H 0.8696 0.0016 1.1364
C33 C 0.6833(14) 0.1152(9) 1.4787(7)
H11 H 0.6925 0.1561 1.4801
C34 C 0.5375(15) 0.2512(9) 1.6586(7)
C35 C 0.9758(13) 0.2411(8) 1.7954(6)
C36 C 0.9355(15) 0.1071(8) 1.5942(7)
C37 C 1.4349(17) 0.3746(8) 1.5917(7)
H12 H 1.5112 0.3895 1.6009
C38 C 1.3526(16) 0.3665(8) 1.6355(8)
H13 H 1.3740 0.3758 1.6743
C39 C 0.9310(16) 0.1103(10) 1.6569(7)
H14 H 0.9097 0.1446 1.6752
C40 C 0.9703(17) 0.0545(8) 1.5688(8)
H15 H 0.9755 0.0503 1.5282
C41 C 0.0362(16) 0.1232(9) 1.0841(9)
H16 H -0.0415 0.1090 1.0898
C42 C 0.0730(17) 0.1404(9) 1.0266(9)
H17 H 0.0196 0.1381 0.9951
C43 C 0.9094(16) 0.1563(8) 1.5562(7)
C44 C 0.1098(17) 0.1270(9) 1.1292(9)
H18 H 0.0836 0.1173 1.1667
C45 C 0.7385(16) 0.3731(10) 1.3819(8)
H19 H 0.7678 0.3400 1.3648
C46 C 0.9721(17) 0.2415(9) 1.8543(8)
H20 H 0.9051 0.2543 1.8722
C47 C 1.2436(18) 0.3456(9) 1.6228(8)
H21 H 1.1891 0.3420 1.6530
C48 C 0.8809(16) 0.2603(8) 1.7574(7)
C49 C 0.7261(16) 0.3736(9) 1.4401(7)
C50 C 0.9005(16) 0.3463(9) 1.2467(7)
H22 H 0.8410 0.3162 1.2476
C51 C 0.898(2) 0.3884(11) 1.2035(7)
H23 H 0.8364 0.3876 1.1761
C52 C 0.491(2) 0.0646(9) 0.6937(9)
H24 H 0.4875 0.0399 0.6607
C53 C 0.957(2) 0.0647(10) 1.6889(8)
H25 H 0.9474 0.0673 1.7295
C54 C 0.3340(15) 0.2018(10) 1.6538(8)
H26 H 0.3257 0.2095 1.6938
C55 C 1.4042(18) 0.3609(10) 1.5352(10)
H27 H 1.4586 0.3679 1.5054
C56 C 0.7830(17) 0.0677(9) 0.9706(8)
H28 H 0.7812 0.0629 1.0112
C57 C 0.1862(15) 0.1599(8) 1.0184(8)
H29 H 0.2104 0.1716 0.9811
O36 O 0.5287(11) 0.3386(6) 1.0045(5)
C58 C 0.5541(14) 0.3943(8) 1.0943(7)
C59 C 0.5770(16) 0.3952(10) 1.1531(8)
H30 H 0.6058 0.3621 1.1705
C60 C 0.5261(18) 0.4471(9) 1.0670(8)
H31 H 0.5143 0.4483 1.0264
C61 C 0.820(2) 0.0285(10) 0.8747(8)
H32 H 0.8404 -0.0019 0.8500
C62 C 0.814(2) 0.0197(10) 0.9327(9)
H33 H 0.8304 -0.0166 0.9485
C63 C 0.6384(16) 0.0849(13) 1.5278(7)
H34 H 0.6104 0.1054 1.5597
C64 C 0.2462(16) 0.3677(9) 0.8356(8)
C65 C 0.796(2) 0.0826(12) 0.8503(8)
H35 H 0.8043 0.0886 0.8101
C66 C 0.5671(14) 0.3406(8) 1.0581(8)
C67 C 0.5986(13) 0.2403(8) 1.2587(7)
C68 C 0.3616(17) 0.3439(8) 0.8465(8)
C69 C 0.7583(15) 0.1293(10) 0.8875(7)
H36 H 0.7364 0.1644 0.8712
C70 C 0.5248(14) 0.2572(8) 1.3591(7)
H37 H 0.6006 0.2531 1.3737
C71 C 0.7977(14) 0.3793(9) 0.9871(7)
H38 H 0.7830 0.3386 0.9869
C72 C 1.4210(16) 0.1036(10) 1.3582(10)
H39 H 1.4822 0.1079 1.3859
C73 C 0.3924(14) 0.2602(9) 1.2749(7)
H40 H 0.3793 0.2598 1.2344
C74 C 1.289(2) 0.3357(9) 1.5211(8)
H41 H 1.2685 0.3242 1.4826
C75 C 1.164(2) 0.2067(12) 1.8624(9)
H42 H 1.2269 0.1960 1.8855
C76 C 1.0634(17) 0.2238(10) 1.8899(8)
H43 H 1.0573 0.2235 1.9307
C77 C 1.1733(17) 0.2051(11) 1.8036(9)
H44 H 1.2417 0.1931 1.7864
C78 C 0.5004(16) 0.2511(9) 1.2977(8)
C79 C 1.0771(18) 0.2219(11) 1.7673(9)
H45 H 1.0811 0.2203 1.7264
C80 C 0.7666(16) 0.4122(9) 0.9375(8)
C81 C 1.354(2) 0.0734(13) 1.2645(10)
H46 H 1.3698 0.0586 1.2273
C82 C 1.4402(15) 0.0799(9) 1.3047(10)
H47 H 1.5147 0.0679 1.2958
C83 C 0.7776(17) 0.4722(9) 0.9377(9)
H48 H 0.7538 0.4929 0.9049
C84 C 1.2351(19) 0.0890(11) 1.2772(8)
H49 H 1.1726 0.0805 1.2509
C85 C 1.3070(16) 0.1220(9) 1.3724(8)
H50 H 1.2929 0.1371 1.4096
C86 C 0.2985(15) 0.2704(10) 1.3148(8)
H51 H 0.2235 0.2765 1.3002
C87 C 0.8485(14) 0.4067(11) 1.0346(8)
H52 H 0.8773 0.3850 1.0656
C88 C 1.2327(18) 0.3346(9) 1.0705(11)
H53 H 1.2966 0.3544 1.0524
C89 C 0.4349(18) 0.2694(10) 1.3968(8)
H54 H 0.4506 0.2764 1.4367
C90 C 0.754(2) -0.0465(10) 1.0869(9)
H55 H 0.8023 -0.0764 1.0772
C91 C 0.3194(19) 0.2710(12) 1.3742(9)
H56 H 0.2567 0.2726 1.3999
C92 C 0.858(2) 0.4697(12) 1.0368(10)
H57 H 0.8852 0.4894 1.0709
C93 C 0.9971(19) 0.0147(10) 1.6671(9)
H58 H 1.0233 -0.0146 1.6915
C94 C 0.251(2) 0.1626(11) 1.5641(11)
H59 H 0.1861 0.1459 1.5430
C95 C 0.997(2) 0.0092(9) 1.6061(9)
H60 H 1.0153 -0.0265 1.5895
C96 C 0.569(3) -0.0041(12) 1.0818(11)
H61 H 0.4917 -0.0060 1.0669
C97 C 0.7114(19) 0.4177(10) 1.3455(9)
H62 H 0.7178 0.4147 1.3048
C98 C 0.1680(16) 0.3700(10) 0.8796(10)
H63 H 0.1883 0.3571 0.9170
C99 C 0.0589(19) 0.3909(12) 0.8701(12)
H64 H 0.0093 0.3940 0.9021
C100 C 0.687(2) 0.4232(10) 1.4669(9)
H65 H 0.6766 0.4252 1.5074
C101 C 0.2447(19) 0.1744(11) 1.6222(9)
H66 H 0.1753 0.1629 1.6415
C102 C 0.636(2) 0.0257(15) 1.5283(10)
H67 H 0.6135 0.0062 1.5626
C103 C 0.559(3) 0.4438(10) 1.1880(9)
H68 H 0.5624 0.4421 1.2289
C104 C 1.2428(17) 0.3215(12) 1.1288(11)
H69 H 1.3115 0.3323 1.1501
C105 C 0.639(4) -0.0460(11) 1.0660(9)
H70 H 0.6105 -0.0757 1.0402
C106 C 0.534(3) 0.4961(12) 1.1587(9)
H71 H 0.5306 0.5309 1.1801
C107 C 0.353(3) 0.1759(11) 1.5382(9)
H72 H 0.3625 0.1637 1.4995
C108 C 0.824(2) 0.5021(11) 0.9868(10)
H73 H 0.8335 0.5430 0.9871
C109 C 0.020(2) 0.4075(11) 0.8164(14)
H74 H -0.0547 0.4205 0.8094
C110 C 0.766(4) 0.4870(16) 1.6118(16)
H75 H 0.8305 0.4694 1.5961
C111 C 0.517(2) 0.4960(11) 1.1003(10)
H76 H 0.4971 0.5306 1.0822
C112 C 0.990(3) 0.4324(11) 1.2014(10)
H77 H 0.9893 0.4604 1.1718
C113 C 1.085(3) 0.4355(11) 1.2430(12)
H78 H 1.1464 0.4647 1.2412
C114 C 0.673(2) 0.4690(11) 1.3732(10)
H79 H 0.6554 0.5012 1.3506
C115 C 0.667(2) -0.0076(12) 1.4802(11)
H80 H 0.6618 -0.0485 1.4816
C116 C 0.663(3) 0.4710(11) 1.4300(10)
H81 H 0.6380 0.5052 1.4472
C117 C 1.082(2) 0.3938(11) 1.2857(10)
H82 H 1.1424 0.3954 1.3138
C118 C 0.5852(18) 0.1035(10) 0.6999(8)
H83 H 0.6479 0.1025 0.6740
C119 C 0.7244(19) 0.5404(10) 1.5892(8)
H84 H 0.7400 0.5503 1.5502
C120 C 0.703(2) 0.4635(11) 1.6587(12)
C121 C 1.131(2) 0.3199(15) 1.0365(10)
H85 H 1.1263 0.3286 0.9967
C122 C 0.214(2) 0.3896(16) 0.7833(10)
H86 H 0.2682 0.3953 0.7532
C123 C 0.099(3) 0.4032(19) 0.7755(12)
H87 H 0.0745 0.4101 0.7370
C124 C 0.630(3) 0.4992(14) 1.6942(16)
H88 H 0.5952 0.4837 1.7280
C125 C 0.613(3) 0.5580(14) 1.6776(17)
H89 H 0.5708 0.5824 1.7013
C126 C 0.661(6) 0.5781(18) 1.6232(19)
H90 H 0.6510 0.6162 1.6106
Ho6_2 Ho 0.61930(8) 0.32073(4) 1.78301(4)
O20_2 O 0.5220(11) 0.2705(6) 0.7083(5)
O30_2 O 0.7903(9) 0.2793(6) 0.7837(5)
O35_2 O 0.6485(15) 0.3940(9) 0.7160(6)
loop_
_geom_bond_atom_site_label_1
_geom_bond_atom_site_label_2
_geom_bond_site_symmetry_1
_geom_bond_site_symmetry_2
Ho1 O1 1_555 1_555
Ho2 O1 1_555 1_555
Ho3 O5 1_555 1_555
Ho4 O16 1_555 1_555
Ho5 O11 1_555 1_555
Ho6 O5 1_555 1_555
O1 C1 1_555 1_555
O2 Ho2 1_555 1_555
O3 Ho1 1_555 1_555
O4 Ho1 1_555 1_555
O5 C7 1_555 1_555
O6 Ho3 1_555 1_555
O7 Ho1 1_555 1_555
O8 Ho6 1_555 1_555
O9 Ho1 1_555 1_555
O10 Ho2 1_555 1_555
O11 C66 1_555 1_555
O12 Ho1 1_555 1_555
O13 Ho5 1_555 1_555
O14 Ho1 1_555 1_555
O15 Ho2 1_555 1_555
O16 C43 1_555 1_555
O17 Ho5 1_555 1_555
O18 Ho6 1_555 1_555
O19 Ho2 1_555 1_555
C1 O28 1_555 1_555
O20 C34 1_555 1_555
O21 Ho5 1_555 1_555
O22 Ho4 1_555 1_555
C2 O14 1_555 1_555
O23 Ho3 1_555 1_555
O24 Ho2 1_555 1_555
O25 Ho3 1_555 1_555
C3 O13 1_555 1_555
O26 Ho3 1_555 1_555
O27 Ho5 1_555 1_555
O28 Ho1 1_555 1_555
O29 Ho4 1_555 1_555
O30 C48 1_555 1_555
O31 Ho4 1_555 1_555
O32 Ho3 1_555 1_555
O33 Ho4 1_555 1_555
C4 C2 1_555 1_555
C5 H1 1_555 1_555
C6 C1 1_555 1_555
C7 O26 1_555 1_555
C8 C4 1_555 1_555
H2 C8 1_555 1_555
C9 O17 1_555 1_555
C10 O3 1_555 1_555
C11 C3 1_555 1_555
C12 C11 1_555 1_555
H3 C12 1_555 1_555
C13 O6 1_555 1_555
C14 C9 1_555 1_555
C15 H4 1_555 1_555
C16 C18 1_555 1_555
C17 H5 1_555 1_555
C18 O2 1_555 1_555
C19 C7 1_555 1_555
C20 C17 1_555 1_555
H6 C20 1_555 1_555
C21 C4 1_555 1_555
H7 C21 1_555 1_555
O34 Ho4 1_555 1_555
O35 C24 1_555 1_555
C22 O15 1_555 1_555
C23 C22 1_555 1_555
C24 O34 1_555 1_555
C25 C10 1_555 1_555
C26 O10 1_555 1_555
C27 C30 1_555 1_555
C28 H8 1_555 1_555
C29 C28 1_555 1_555
C30 H9 1_555 1_555
C31 O7 1_555 1_555
C32 C29 1_555 1_555
H10 C32 1_555 1_555
C33 C6 1_555 1_555
H11 C33 1_555 1_555
C34 O22 1_555 1_555
C35 C46 1_555 1_555
C36 C39 1_555 1_555
C37 H12 1_555 1_555
C38 C37 1_555 1_555
H13 C38 1_555 1_555
C39 H14 1_555 1_555
C40 C36 1_555 1_555
H15 C40 1_555 1_555
C41 H16 1_555 1_555
C42 C41 1_555 1_555
H17 C42 1_555 1_555
C43 O24 1_555 1_555
C44 C12 1_555 1_555
H18 C44 1_555 1_555
C45 H19 1_555 1_555
C46 H20 1_555 1_555
C47 C23 1_555 1_555
H21 C47 1_555 1_555
C48 O31 1_555 1_555
C49 C26 1_555 1_555
C50 C16 1_555 1_555
H22 C50 1_555 1_555
C51 C50 1_555 1_555
H23 C51 1_555 1_555
C52 C20 1_555 1_555
H24 C52 1_555 1_555
C53 C39 1_555 1_555
H25 C53 1_555 1_555
C54 C27 1_555 1_555
H26 C54 1_555 1_555
C55 C37 1_555 1_555
H27 C55 1_555 1_555
C56 C14 1_555 1_555
H28 C56 1_555 1_555
C57 C11 1_555 1_555
H29 C57 1_555 1_555
O36 Ho3 1_555 1_555
C58 C59 1_555 1_555
C59 H30 1_555 1_555
C60 C58 1_555 1_555
H31 C60 1_555 1_555
C61 H32 1_555 1_555
C62 C56 1_555 1_555
H33 C62 1_555 1_555
C63 C33 1_555 1_555
H34 C63 1_555 1_555
C64 C68 1_555 1_555
C65 C61 1_555 1_555
H35 C65 1_555 1_555
C66 O36 1_555 1_555
C67 O9 1_555 1_555
C68 O8 1_555 1_555
C69 C14 1_555 1_555
H36 C69 1_555 1_555
C70 H37 1_555 1_555
C71 H38 1_555 1_555
C72 H39 1_555 1_555
C73 H40 1_555 1_555
C74 C23 1_555 1_555
H41 C74 1_555 1_555
C75 H42 1_555 1_555
C76 C46 1_555 1_555
H43 C76 1_555 1_555
C77 C75 1_555 1_555
H44 C77 1_555 1_555
C78 C67 1_555 1_555
C79 C35 1_555 1_555
H45 C79 1_555 1_555
C80 C13 1_555 1_555
C81 H46 1_555 1_555
C82 C72 1_555 1_555
H47 C82 1_555 1_555
C83 C80 1_555 1_555
H48 C83 1_555 1_555
C84 C25 1_555 1_555
H49 C84 1_555 1_555
C85 C25 1_555 1_555
H50 C85 1_555 1_555
C86 C73 1_555 1_555
H51 C86 1_555 1_555
C87 C71 1_555 1_555
H52 C87 1_555 1_555
C88 H53 1_555 1_555
C89 C70 1_555 1_555
H54 C89 1_555 1_555
C90 C32 1_555 1_555
H55 C90 1_555 1_555
C91 C86 1_555 1_555
H56 C91 1_555 1_555
C92 C87 1_555 1_555
H57 C92 1_555 1_555
C93 C53 1_555 1_555
H58 C93 1_555 1_555
C94 H59 1_555 1_555
C95 C40 1_555 1_555
H60 C95 1_555 1_555
C96 C28 1_555 1_555
H61 C96 1_555 1_555
C97 C45 1_555 1_555
H62 C97 1_555 1_555
C98 C64 1_555 1_555
H63 C98 1_555 1_555
C99 C98 1_555 1_555
H64 C99 1_555 1_555
C100 C49 1_555 1_555
H65 C100 1_555 1_555
C101 C54 1_555 1_555
H66 C101 1_555 1_555
C102 C63 1_555 1_555
H67 C102 1_555 1_555
C103 C59 1_555 1_555
H68 C103 1_555 1_555
C104 C21 1_555 1_555
H69 C104 1_555 1_555
C105 C90 1_555 1_555
H70 C105 1_555 1_555
C106 C103 1_555 1_555
H71 C106 1_555 1_555
C107 C30 1_555 1_555
H72 C107 1_555 1_555
C108 C83 1_555 1_555
H73 C108 1_555 1_555
C109 C99 1_555 1_555
H74 C109 1_555 1_555
C110 H75 1_555 1_555
C111 C60 1_555 1_555
H76 C111 1_555 1_555
C112 C51 1_555 1_555
H77 C112 1_555 1_555
C113 C112 1_555 1_555
H78 C113 1_555 1_555
C114 C97 1_555 1_555
H79 C114 1_555 1_555
C115 C5 1_555 1_555
H80 C115 1_555 1_555
C116 C100 1_555 1_555
H81 C116 1_555 1_555
C117 C16 1_555 1_555
H82 C117 1_555 1_555
C118 C15 1_555 1_555
H83 C118 1_555 1_555
C119 C110 1_555 1_555
H84 C119 1_555 1_555
C120 C24 1_555 1_555
C121 C8 1_555 1_555
H85 C121 1_555 1_555
C122 C64 1_555 1_555
H86 C122 1_555 1_555
C123 C109 1_555 1_555
H87 C123 1_555 1_555
C124 C120 1_555 1_555
H88 C124 1_555 1_555
C125 C124 1_555 1_555
H89 C125 1_555 1_555
C126 C119 1_555 1_555
H90 C126 1_555 1_555
Ho6_2 O20 1_555 1_555
O20_2 Ho6 1_555 1_555
O30_2 Ho6 1_555 1_555
O35_2 Ho6 1_555 1_555
Ho2 O4 1_555 1_555
Ho5 O12 1_555 1_555
Ho6 O6 1_555 1_555
O4 C18 1_555 1_555
O12 C31 1_555 1_555
O18 C13 1_555 1_555
O19 C10 1_555 1_555
O21 C2 1_555 1_555
O23 C3 1_555 1_555
O25 C68 1_555 1_555
O27 C67 1_555 1_555
O29 C26 1_555 1_555
O30 Ho6_2 1_555 1_555
O32 C9 1_555 1_555
O33 C22 1_555 1_555
C5 C6 1_555 1_555
C15 C19 1_555 1_555
C17 C19 1_555 1_555
O35 Ho6_2 1_555 1_555
C27 C34 1_555 1_555
C29 C31 1_555 1_555
C35 C48 1_555 1_555
C36 C43 1_555 1_555
C38 C47 1_555 1_555
C41 C44 1_555 1_555
C42 C57 1_555 1_555
C45 C49 1_555 1_555
C52 C118 1_555 1_555
C55 C74 1_555 1_555
C58 C66 1_555 1_555
C61 C62 1_555 1_555
C65 C69 1_555 1_555
C70 C78 1_555 1_555
C71 C80 1_555 1_555
C72 C85 1_555 1_555
C73 C78 1_555 1_555
C75 C76 1_555 1_555
C77 C79 1_555 1_555
C81 C82 1_555 1_555
C81 C84 1_555 1_555
C88 C104 1_555 1_555
C88 C121 1_555 1_555
C89 C91 1_555 1_555
C92 C108 1_555 1_555
C93 C95 1_555 1_555
C94 C101 1_555 1_555
C94 C107 1_555 1_555
C96 C105 1_555 1_555
C102 C115 1_555 1_555
C106 C111 1_555 1_555
C110 C120 1_555 1_555
C113 C117 1_555 1_555
C114 C116 1_555 1_555
C122 C123 1_555 1_555
C125 C126 1_555 1_555

#END
