
#######################################################################
#
#                 Cambridge Crystallographic Data Centre
#                                CCDC 
#
#######################################################################
#
# If this CIF has been generated from an entry in the Cambridge 
# Structural Database, then it will include bibliographic, chemical, 
# crystal, experimental, refinement or atomic coordinate data resulting 
# from the CCDC's data processing and validation procedures.
#
#######################################################################

data_JIPPII
_symmetry_cell_setting           monoclinic
_symmetry_space_group_name_H-M   'P 21/a'
_symmetry_Int_Tables_number      14
_space_group_name_Hall           '-P 2yab'
loop_
_symmetry_equiv_pos_site_id
_symmetry_equiv_pos_as_xyz
1 x,y,z
2 1/2-x,1/2+y,-z
3 -x,-y,-z
4 1/2+x,1/2-y,z
_cell_length_a                   22.017(2)
_cell_length_b                   18.4999(15)
_cell_length_c                   24.190(3)
_cell_angle_alpha                90
_cell_angle_beta                 96.127(8)
_cell_angle_gamma                90
_cell_volume                     9796.6
loop_
_atom_site_label
_atom_site_type_symbol
_atom_site_fract_x
_atom_site_fract_y
_atom_site_fract_z
Nd1 Nd 0.37397(4) 0.23071(4) 0.22056(3)
Nd2 Nd 0.52947(4) 0.29761(4) 0.17401(3)
Nd3 Nd 0.34892(4) 0.24112(4) -0.11755(3)
Nd4 Nd 0.35736(4) 0.25288(4) 0.71221(3)
Nd5 Nd 0.34789(4) 0.22085(4) 0.38521(3)
Nd6 Nd 0.19845(4) 0.19263(4) 0.75632(3)
Nd7 Nd 0.38170(4) 0.24016(4) 0.04959(3)
Nd8 Nd 0.19420(4) 0.20488(4) 0.26765(3)
Nd9 Nd 0.38742(4) 0.26192(4) 0.54639(3)
Nd10 Nd 0.53596(4) 0.28121(4) 0.66475(3)
O1 O 0.4647(5) 0.3134(5) 0.2500(3)
O2 O 0.2643(4) 0.1786(5) 0.6811(4)
O3 O 0.3002(4) 0.2526(5) 0.4690(4)
O4 O 0.4924(5) 0.3032(6) 0.5674(4)
O5 O 0.3274(4) 0.1902(5) 0.1283(4)
O6 O 0.5830(5) 0.3496(6) 0.5887(4)
O7 O 0.6154(4) 0.3696(5) 0.2116(4)
O8 O 0.3962(5) 0.3129(5) 0.1411(4)
O9 O 0.4651(5) 0.2936(6) -0.2614(4)
O10 O 0.5852(4) 0.2465(5) 0.2612(3)
O11 O 0.1066(5) 0.1322(5) 0.7175(4)
O12 O 0.4352(4) 0.2283(6) 0.4623(4)
O13 O 0.1304(5) 0.2771(6) 0.7897(4)
O14 O 0.3332(5) 0.1704(5) -0.2103(4)
O15 O 0.1489(5) 0.1407(5) 0.3455(4)
O16 O 0.4276(5) 0.2107(6) -0.0319(4)
O17 O 0.3324(5) 0.1217(5) -0.0800(4)
O18 O 0.2663(5) 0.1845(6) 0.1957(4)
O19 O 0.3035(4) 0.2692(5) -0.0355(4)
O20 O 0.2441(5) 0.1771(6) 0.3620(4)
O21 O 0.1479(4) 0.2546(5) 0.6732(3)
O22 O 0.3760(6) 0.1337(5) 0.5322(5)
O23 O 0.4922(5) 0.2767(6) 0.0736(4)
O24 O 0.3984(5) 0.3580(5) 0.0124(4)
O25 O 0.3935(5) 0.3310(5) 0.6323(4)
O26 O 0.0845(5) 0.3134(6) 0.6113(4)
O27 O 0.2664(4) 0.2981(5) -0.2436(4)
O28 O 0.3932(5) 0.3700(5) 0.4911(4)
O29 O 0.2881(4) 0.2807(5) 0.2950(4)
O30 O 0.3293(5) 0.3493(5) 0.2354(4)
O31 O 0.4176(4) 0.2682(6) 0.3170(4)
O32 O 0.2886(5) 0.3447(5) -0.1594(4)
O33 O 0.3150(4) 0.2169(5) 0.6143(4)
O34 O 0.4518(5) 0.1772(7) -0.1145(4)
O35 O 0.4501(5) 0.1552(6) 0.3950(4)
O36 O 0.4041(4) 0.2928(5) -0.1951(4)
O37 O 0.2866(5) 0.3303(6) 0.5349(4)
O38 O 0.3330(5) 0.1328(5) 0.0130(4)
O39 O 0.3964(5) 0.3515(6) -0.0801(4)
O40 O 0.4418(5) 0.1385(6) 0.0947(4)
O41 O 0.3439(5) 0.1134(5) 0.4410(4)
O42 O 0.6935(5) 0.4303(5) 0.2481(4)
O43 O 0.0514(5) 0.3171(6) 0.7306(5)
O44 O 0.3589(5) 0.3492(5) 0.4004(4)
O45 O 0.3870(5) 0.0944(5) 0.2346(4)
O46 O 0.0206(5) 0.0845(6) 0.6821(4)
O47 O 0.1617(5) 0.1281(5) -0.1651(4)
O48 O 0.2767(4) 0.2993(6) 0.0458(4)
O49 O 0.3462(5) 0.1512(4) 0.3007(4)
O50 O 0.5660(6) 0.3575(6) 0.0921(4)
O51 O 0.4667(4) 0.1880(5) 0.1783(4)
O52 O 0.4626(5) 0.4047(5) 0.1545(4)
O53 O 0.2635(5) 0.0823(5) -0.2261(4)
O54 O 0.4478(4) 0.1994(5) 0.6346(4)
O55 O 0.6525(5) 0.1979(6) 0.3230(4)
O56 O 0.2373(4) 0.2036(6) -0.1425(4)
O57 O 0.3499(5) 0.3851(5) 0.6986(4)
O58 O 0.6858(5) 0.2006(7) 0.2024(4)
O59 O 0.6003(5) 0.2141(6) 0.1438(4)
C1 C 0.1362(8) 0.3044(9) 0.6363(6)
C2 C 0.4602(7) 0.3102(7) 0.3029(6)
O60 O 0.4003(5) 0.1338(5) 0.6945(4)
C3 C 0.5983(7) 0.1976(9) 0.2965(7)
C4 C 0.3666(8) 0.0480(8) -0.1984(7)
H1 H 0.3486 0.0008 -0.2027
H2 H 0.3986 0.0524 -0.2221
H3 H 0.3832 0.0547 -0.1604
C5 C 0.4647(8) 0.1802(8) 0.4401(6)
C6 C 0.4106(7) 0.3817(9) 0.1408(5)
C7 C 0.2704(10) 0.3038(8) 0.4899(7)
C8 C 0.3192(7) 0.1036(8) -0.2136(5)
C9 C 0.6521(7) 0.1833(8) 0.1598(6)
C10 C 0.1962(9) 0.1589(8) -0.1289(6)
C11 C 0.4979(8) 0.3541(9) 0.3416(7)
H4 H 0.4887 0.3440 0.3787
H5 H 0.4902 0.4042 0.3333
H6 H 0.5401 0.3435 0.3386
C12 C 0.3746(9) 0.0256(7) 0.3148(6)
H7 H 0.3575 0.0324 0.3493
H8 H 0.4173 0.0144 0.3222
H9 H 0.3540 -0.0135 0.2946
C13 C 0.1956(9) 0.1444(8) 0.3776(6)
C14 C 0.4599(9) 0.1719(8) -0.0626(7)
C15 C 0.1995(9) 0.1137(10) 0.4336(6)
H10 H 0.2394 0.1225 0.4524
H11 H 0.1693 0.1358 0.4540
H12 H 0.1923 0.0625 0.4312
C16 C 0.4675(7) 0.1358(7) 0.1438(7)
C17 C 0.2742(8) 0.1750(8) 0.1433(7)
C18 C 0.1891(10) 0.1473(14) -0.0675(7)
H13 H 0.2194 0.1750 -0.0452
H14 H 0.1491 0.1625 -0.0600
H15 H 0.1944 0.0969 -0.0586
C19 C 0.5560(9) 0.1377(9) 0.3070(7)
H16 H 0.5755 0.1061 0.3349
H17 H 0.5457 0.1111 0.2732
H18 H 0.5195 0.1573 0.3195
C20 C 0.2312(8) 0.4166(7) -0.2262(6)
H19 H 0.2146 0.4112 -0.2643
H20 H 0.1986 0.4244 -0.2036
H21 H 0.2585 0.4571 -0.2229
C21 C 0.3764(7) 0.3903(9) 0.4419(7)
C22 C 0.2642(7) 0.4084(8) 0.2938(7)
H22 H 0.2394 0.3943 0.3223
H23 H 0.2389 0.4303 0.2635
H24 H 0.2945 0.4425 0.3087
C23 C 0.5109(11) 0.1267(12) -0.0331(8)
H25 H 0.5103 0.1310 0.0064
H26 H 0.5053 0.0770 -0.0439
H27 H 0.5495 0.1435 -0.0432
C24 C 0.3746(7) 0.3864(10) 0.6532(6)
C25 C 0.5257(10) 0.1534(15) 0.4750(9)
H28 H 0.5313 0.1790 0.5097
H29 H 0.5598 0.1624 0.4544
H30 H 0.5229 0.1025 0.4821
C26 C 0.3584(8) 0.0920(8) 0.4909(7)
C27 C 0.6420(7) 0.4289(8) 0.2207(6)
C28 C 0.3669(7) 0.0934(8) 0.2809(6)
C29 C 0.4369(7) 0.1394(8) 0.6592(6)
C30 C 0.4686(8) 0.0738(8) 0.6391(7)
H31 H 0.4961 0.0884 0.6129
H32 H 0.4912 0.0501 0.6701
H33 H 0.4388 0.0411 0.6214
C31 C 0.5072(7) 0.3360(10) -0.1688(6)
H34 H 0.5427 0.3436 -0.1880
H35 H 0.4948 0.3811 -0.1539
H36 H 0.5167 0.3021 -0.1391
C32 C 0.3585(8) 0.4321(8) 0.1256(7)
H37 H 0.3219 0.4048 0.1156
H38 H 0.3672 0.4615 0.0947
H39 H 0.3529 0.4626 0.1568
C33 C 0.2260(9) 0.1398(11) 0.1070(7)
H40 H 0.1908 0.1331 0.1268
H41 H 0.2402 0.0938 0.0955
H42 H 0.2152 0.1696 0.0750
C34 C 0.4545(8) 0.3057(9) -0.2101(6)
C35 C 0.3800(8) 0.4596(8) 0.6252(8)
H43 H 0.3629 0.4964 0.6468
H44 H 0.3584 0.4583 0.5886
H45 H 0.4223 0.4701 0.6225
C36 C 0.2947(7) 0.3440(8) 0.2734(7)
C37 C 0.3305(10) 0.0971(9) -0.0308(7)
C38 C 0.0711(7) 0.0763(8) 0.7101(6)
C39 C 0.2737(8) 0.1782(8) 0.6293(7)
C40 C 0.3988(8) 0.3890(9) -0.0351(6)
C41 C 0.1907(8) 0.3541(9) 0.6257(8)
H46 H 0.2267 0.3384 0.6484
H47 H 0.1976 0.3514 0.5872
H48 H 0.1815 0.4030 0.6349
C42 C 0.5011(8) 0.0704(8) 0.1617(6)
H49 H 0.5187 0.0760 0.1995
H50 H 0.4737 0.0299 0.1592
H51 H 0.5329 0.0623 0.1382
C43 C 0.5386(8) 0.3395(8) 0.5536(7)
C44 C 0.2127(9) 0.3412(12) -0.0365(8)
H52 H 0.2136 0.3350 -0.0758
H53 H 0.1751 0.3221 -0.0257
H54 H 0.2154 0.3918 -0.0275
C45 C 0.2339(10) 0.1283(10) 0.5901(8)
H55 H 0.2054 0.1033 0.6107
H56 H 0.2120 0.1566 0.5613
H57 H 0.2594 0.0939 0.5739
C46 C 0.2101(10) 0.3262(14) 0.4559(9)
H58 H 0.2051 0.2993 0.4217
H59 H 0.2112 0.3769 0.4477
H60 H 0.1765 0.3163 0.4770
C47 C 0.5326(8) 0.3226(10) 0.0584(7)
C48 C 0.2650(7) 0.3501(8) -0.2075(7)
C49 C 0.6115(8) 0.4977(8) 0.1991(7)
H61 H 0.5724 0.4867 0.1795
H62 H 0.6366 0.5210 0.1743
H63 H 0.6063 0.5294 0.2297
C50 C 0.2656(8) 0.3020(8) -0.0059(7)
C51 C 0.0911(8) 0.0064(8) 0.7370(7)
H64 H 0.1310 0.0120 0.7567
H65 H 0.0627 -0.0076 0.7626
H66 H 0.0923 -0.0302 0.7090
C52 C 0.3533(11) 0.0114(9) 0.5020(7)
H67 H 0.3661 0.0017 0.5405
H68 H 0.3790 -0.0148 0.4793
H69 H 0.3117 -0.0038 0.4932
C53 C 0.5410(10) 0.3280(14) -0.0017(7)
H70 H 0.5126 0.2965 -0.0227
H71 H 0.5820 0.3140 -0.0072
H72 H 0.5340 0.3769 -0.0140
C54 C 0.0868(8) 0.3217(8) 0.7751(7)
C55 C 0.3801(12) 0.4695(9) 0.4294(8)
H73 H 0.3664 0.4778 0.3909
H74 H 0.4217 0.4855 0.4370
H75 H 0.3548 0.4960 0.4522
C56 C 0.0756(9) 0.3826(9) 0.8155(8)
H76 H 0.0420 0.4118 0.7999
H77 H 0.0661 0.3623 0.8501
H78 H 0.1116 0.4120 0.8219
C57 C 0.4050(15) 0.4662(10) -0.0386(8)
H79 H 0.4068 0.4868 -0.0021
H80 H 0.4417 0.4776 -0.0548
H81 H 0.3705 0.4857 -0.0614
C58 C 0.5380(11) 0.3679(14) 0.4946(8)
H82 H 0.5006 0.3539 0.4732
H83 H 0.5720 0.3480 0.4779
H84 H 0.5411 0.4196 0.4953
C59 C 0.3137(18) 0.0175(11) -0.0276(9)
H85 H 0.3132 -0.0040 -0.0638
H86 H 0.3432 -0.0067 -0.0021
H87 H 0.2739 0.0131 -0.0150
C60 C 0.6725(8) 0.1221(8) 0.1223(7)
H88 H 0.6427 0.1164 0.0906
H89 H 0.6762 0.0777 0.1429
H90 H 0.7113 0.1343 0.1100
Nd4_2 Nd 0.35736(4) 0.25288(4) -0.28779(3)
Nd6_2 Nd 0.19845(4) 0.19263(4) -0.24368(3)
Nd8C Nd 0.69420(4) 0.29512(4) 0.26765(3)
Nd10_2 Nd 0.53596(4) 0.28121(4) -0.33525(3)
Nd10C Nd 0.03596(4) 0.21879(4) 0.66475(3)
O7C O 0.1154(4) 0.1304(5) 0.2116(4)
O9_2 O 0.4651(5) 0.2936(6) 0.7386(4)
O10C O 0.0852(4) 0.2535(5) 0.2612(3)
O11C O 0.6066(5) 0.3678(5) 0.7175(4)
O14_2 O 0.3332(5) 0.1704(5) 0.7897(4)
O21C O 0.6479(4) 0.2454(5) 0.6732(3)
O26C O 0.5845(5) 0.1866(6) 0.6113(4)
O27_2 O 0.2664(4) 0.2981(5) 0.7564(4)
O36_2 O 0.4041(4) 0.2928(5) 0.8049(4)
O42C O 0.1935(5) 0.0697(5) 0.2481(4)
O43C O 0.5514(5) 0.1829(6) 0.7306(5)
O46C O 0.5206(5) 0.4155(6) 0.6821(4)
O47_2 O 0.1617(5) 0.1281(5) 0.8349(4)
O53_2 O 0.2635(5) 0.0823(5) 0.7739(4)
O55C O 0.1525(5) 0.3021(6) 0.3230(4)
O56_2 O 0.2373(4) 0.2036(6) 0.8575(4)
O58C O 0.1858(5) 0.2994(7) 0.2024(4)
loop_
_geom_bond_atom_site_label_1
_geom_bond_atom_site_label_2
_geom_bond_site_symmetry_1
_geom_bond_site_symmetry_2
Nd1 O1 1_555 1_555
Nd2 O1 1_555 1_555
Nd3 O14 1_555 1_555
Nd4 O2 1_555 1_555
Nd5 O3 1_555 1_555
Nd6 O2 1_555 1_555
Nd7 O5 1_555 1_555
Nd8 O15 1_555 1_555
Nd9 O3 1_555 1_555
Nd10 O4 1_555 1_555
O1 C2 1_555 1_555
O2 C39 1_555 1_555
O3 C7 1_555 1_555
O4 Nd9 1_555 1_555
O5 Nd1 1_555 1_555
O6 Nd10 1_555 1_555
O7 Nd2 1_555 1_555
O8 Nd1 1_555 1_555
O9 C34 1_555 1_555
O10 Nd2 1_555 1_555
O11 Nd6 1_555 1_555
O12 Nd5 1_555 1_555
O13 Nd6 1_555 1_555
O14 C8 1_555 1_555
O15 C13 1_555 1_555
O16 Nd3 1_555 1_555
O17 Nd3 1_555 1_555
O18 Nd1 1_555 1_555
O19 Nd3 1_555 1_555
O20 Nd5 1_555 1_555
O21 Nd6 1_555 1_555
O22 Nd9 1_555 1_555
O23 Nd2 1_555 1_555
O24 Nd7 1_555 1_555
O25 Nd4 1_555 1_555
O26 C1 1_555 1_555
O27 C48 1_555 1_555
O28 Nd9 1_555 1_555
O29 Nd5 1_555 1_555
O30 Nd1 1_555 1_555
O31 Nd1 1_555 1_555
O32 Nd3 1_555 1_555
O33 Nd4 1_555 1_555
O34 Nd3 1_555 1_555
O35 Nd5 1_555 1_555
O36 Nd3 1_555 1_555
O37 Nd9 1_555 1_555
O38 Nd7 1_555 1_555
O39 Nd3 1_555 1_555
O40 Nd7 1_555 1_555
O41 Nd5 1_555 1_555
O42 C27 1_555 1_555
O43 C54 1_555 1_555
O44 Nd5 1_555 1_555
O45 Nd1 1_555 1_555
O46 C38 1_555 1_555
O47 C10 1_555 1_555
O48 Nd7 1_555 1_555
O49 Nd1 1_555 1_555
O50 Nd2 1_555 1_555
O51 Nd1 1_555 1_555
O52 Nd2 1_555 1_555
O53 C8 1_555 1_555
O54 Nd9 1_555 1_555
O55 C3 1_555 1_555
O56 Nd3 1_555 1_555
O57 Nd4 1_555 1_555
O58 C9 1_555 1_555
O59 Nd2 1_555 1_555
C1 O21 1_555 1_555
C2 O31 1_555 1_555
O60 Nd4 1_555 1_555
C3 O10 1_555 1_555
C4 H1 1_555 1_555
H2 C4 1_555 1_555
H3 C4 1_555 1_555
C5 O12 1_555 1_555
C6 O8 1_555 1_555
C7 O37 1_555 1_555
C8 C4 1_555 1_555
C9 O59 1_555 1_555
C10 O56 1_555 1_555
C11 C2 1_555 1_555
H4 C11 1_555 1_555
H5 C11 1_555 1_555
H6 C11 1_555 1_555
C12 H7 1_555 1_555
H8 C12 1_555 1_555
H9 C12 1_555 1_555
C13 O20 1_555 1_555
C14 O16 1_555 1_555
C15 C13 1_555 1_555
H10 C15 1_555 1_555
H11 C15 1_555 1_555
H12 C15 1_555 1_555
C16 O40 1_555 1_555
C17 O5 1_555 1_555
C18 C10 1_555 1_555
H13 C18 1_555 1_555
H14 C18 1_555 1_555
H15 C18 1_555 1_555
C19 C3 1_555 1_555
H16 C19 1_555 1_555
H17 C19 1_555 1_555
H18 C19 1_555 1_555
C20 H19 1_555 1_555
H20 C20 1_555 1_555
H21 C20 1_555 1_555
C21 O28 1_555 1_555
C22 H22 1_555 1_555
H23 C22 1_555 1_555
H24 C22 1_555 1_555
C23 C14 1_555 1_555
H25 C23 1_555 1_555
H26 C23 1_555 1_555
H27 C23 1_555 1_555
C24 O25 1_555 1_555
C25 C5 1_555 1_555
H28 C25 1_555 1_555
H29 C25 1_555 1_555
H30 C25 1_555 1_555
C26 O22 1_555 1_555
C27 O7 1_555 1_555
C28 O45 1_555 1_555
C29 O54 1_555 1_555
C30 C29 1_555 1_555
H31 C30 1_555 1_555
H32 C30 1_555 1_555
H33 C30 1_555 1_555
C31 H34 1_555 1_555
H35 C31 1_555 1_555
H36 C31 1_555 1_555
C32 C6 1_555 1_555
H37 C32 1_555 1_555
H38 C32 1_555 1_555
H39 C32 1_555 1_555
C33 C17 1_555 1_555
H40 C33 1_555 1_555
H41 C33 1_555 1_555
H42 C33 1_555 1_555
C34 O36 1_555 1_555
C35 C24 1_555 1_555
H43 C35 1_555 1_555
H44 C35 1_555 1_555
H45 C35 1_555 1_555
C36 O29 1_555 1_555
C37 O17 1_555 1_555
C38 O11 1_555 1_555
C39 O33 1_555 1_555
C40 O24 1_555 1_555
C41 C1 1_555 1_555
H46 C41 1_555 1_555
H47 C41 1_555 1_555
H48 C41 1_555 1_555
C42 C16 1_555 1_555
H49 C42 1_555 1_555
H50 C42 1_555 1_555
H51 C42 1_555 1_555
C43 O4 1_555 1_555
C44 H52 1_555 1_555
H53 C44 1_555 1_555
H54 C44 1_555 1_555
C45 C39 1_555 1_555
H55 C45 1_555 1_555
H56 C45 1_555 1_555
H57 C45 1_555 1_555
C46 C7 1_555 1_555
H58 C46 1_555 1_555
H59 C46 1_555 1_555
H60 C46 1_555 1_555
C47 O23 1_555 1_555
C48 O32 1_555 1_555
C49 C27 1_555 1_555
H61 C49 1_555 1_555
H62 C49 1_555 1_555
H63 C49 1_555 1_555
C50 O19 1_555 1_555
C51 C38 1_555 1_555
H64 C51 1_555 1_555
H65 C51 1_555 1_555
H66 C51 1_555 1_555
C52 C26 1_555 1_555
H67 C52 1_555 1_555
H68 C52 1_555 1_555
H69 C52 1_555 1_555
C53 C47 1_555 1_555
H70 C53 1_555 1_555
H71 C53 1_555 1_555
H72 C53 1_555 1_555
C54 O13 1_555 1_555
C55 C21 1_555 1_555
H73 C55 1_555 1_555
H74 C55 1_555 1_555
H75 C55 1_555 1_555
C56 C54 1_555 1_555
H76 C56 1_555 1_555
H77 C56 1_555 1_555
H78 C56 1_555 1_555
C57 C40 1_555 1_555
H79 C57 1_555 1_555
H80 C57 1_555 1_555
H81 C57 1_555 1_555
C58 C43 1_555 1_555
H82 C58 1_555 1_555
H83 C58 1_555 1_555
H84 C58 1_555 1_555
C59 C37 1_555 1_555
H85 C59 1_555 1_555
H86 C59 1_555 1_555
H87 C59 1_555 1_555
C60 C9 1_555 1_555
H88 C60 1_555 1_555
H89 C60 1_555 1_555
H90 C60 1_555 1_555
Nd4_2 O9 1_555 1_555
Nd6_2 O27 1_555 1_555
Nd8C O7 1_555 1_555
Nd10_2 O9 1_555 1_555
Nd10C O11 1_555 1_555
O7C Nd8 1_555 1_555
O9_2 Nd4 1_555 1_555
O10C Nd8 1_555 1_555
O11C Nd10 1_555 1_555
O14_2 Nd4 1_555 1_555
O21C Nd10 1_555 1_555
O26C Nd10 1_555 1_555
O27_2 Nd4 1_555 1_555
O36_2 Nd4 1_555 1_555
O42C Nd8 1_555 1_555
O43C Nd10 1_555 1_555
O46C Nd10 1_555 1_555
O47_2 Nd6 1_555 1_555
O53_2 Nd6 1_555 1_555
O55C Nd8 1_555 1_555
O56_2 Nd6 1_555 1_555
O58C Nd8 1_555 1_555
Nd2 O51 1_555 1_555
Nd5 O31 1_555 1_555
Nd5 O49 1_555 1_555
Nd6 O27_2 1_555 1_555
Nd7 O8 1_555 1_555
Nd7 O16 1_555 1_555
Nd7 O19 1_555 1_555
Nd7 O23 1_555 1_555
Nd8 O18 1_555 1_555
Nd8 O20 1_555 1_555
Nd8 O29 1_555 1_555
Nd9 O12 1_555 1_555
Nd9 O25 1_555 1_555
Nd9 O33 1_555 1_555
Nd10 O54 1_555 1_555
Nd10 O9_2 1_555 1_555
O6 C43 1_555 1_555
O10 Nd8C 1_555 1_555
O14 Nd4_2 1_555 1_555
O18 C17 1_555 1_555
O21 Nd10C 1_555 1_555
O26 Nd10C 1_555 1_555
O27 Nd4_2 1_555 1_555
O30 C36 1_555 1_555
O34 C14 1_555 1_555
O35 C5 1_555 1_555
O36 Nd4_2 1_555 1_555
O38 C37 1_555 1_555
O39 C40 1_555 1_555
O41 C26 1_555 1_555
O42 Nd8C 1_555 1_555
O43 Nd10C 1_555 1_555
O44 C21 1_555 1_555
O46 Nd10C 1_555 1_555
O47 Nd6_2 1_555 1_555
O48 C50 1_555 1_555
O49 C28 1_555 1_555
O50 C47 1_555 1_555
O51 C16 1_555 1_555
O52 C6 1_555 1_555
O53 Nd6_2 1_555 1_555
O55 Nd8C 1_555 1_555
O56 Nd6_2 1_555 1_555
O57 C24 1_555 1_555
O58 Nd8C 1_555 1_555
O60 C29 1_555 1_555
C12 C28 1_555 1_555
C20 C48 1_555 1_555
C22 C36 1_555 1_555
C31 C34 1_555 1_555
C44 C50 1_555 1_555

#END
