
#######################################################################
#
#                 Cambridge Crystallographic Data Centre
#                                CCDC 
#
#######################################################################
#
# If this CIF has been generated from an entry in the Cambridge 
# Structural Database, then it will include bibliographic, chemical, 
# crystal, experimental, refinement or atomic coordinate data resulting 
# from the CCDC's data processing and validation procedures.
#
#######################################################################

data_JIQGIZ
_symmetry_cell_setting           monoclinic
_symmetry_space_group_name_H-M   'C 2/c'
_symmetry_Int_Tables_number      15
_space_group_name_Hall           '-C 2yn'
loop_
_symmetry_equiv_pos_site_id
_symmetry_equiv_pos_as_xyz
1 x,y,z
2 -x,y,1/2-z
3 1/2+x,1/2+y,z
4 1/2-x,1/2+y,1/2-z
5 -x,-y,-z
6 x,-y,1/2+z
7 1/2-x,1/2-y,-z
8 1/2+x,1/2-y,1/2+z
_cell_length_a                   27.250(3)
_cell_length_b                   3.712(1)
_cell_length_c                   15.147(2)
_cell_angle_alpha                90
_cell_angle_beta                 114.41(1)
_cell_angle_gamma                90
_cell_volume                     1395.19
loop_
_atom_site_label
_atom_site_type_symbol
_atom_site_fract_x
_atom_site_fract_y
_atom_site_fract_z
Tl1 Tl 0.48435(1) 0.65688(8) 0.37426(2)
O1 O 0.4477(2) 0.910(1) 0.5029(3)
C1 C 0.3965(3) 0.965(2) 0.4741(4)
C2 C 0.3667(3) 0.916(2) 0.5320(4)
N1 N 0.3929(3) 0.809(2) 0.6317(4)
O2 O 0.4421(2) 0.865(2) 0.6776(3)
O3 O 0.3671(3) 0.659(2) 0.6703(4)
C3 C 0.3110(3) 0.964(2) 0.4961(5)
C4 C 0.2827(3) 1.073(2) 0.4020(5)
C5 C 0.3104(3) 1.124(2) 0.3440(5)
C6 C 0.3643(3) 1.073(2) 0.3783(5)
H1 H 0.2924 0.9220 0.5373
H2 H 0.2443 1.1129 0.3762
H3 H 0.2911 1.1955 0.2781
H4 H 0.3817 1.1140 0.3350
O1D O 0.5523(2) 0.090(1) 0.4971(3)
C1D C 0.6035(3) 0.035(2) 0.5259(4)
C2D C 0.6333(3) 0.084(2) 0.4680(4)
N1D N 0.6071(3) 0.191(2) 0.3683(4)
O2D O 0.5579(2) 0.135(2) 0.3224(3)
O3D O 0.6329(3) 0.341(2) 0.3297(4)
C3D C 0.6890(3) 0.036(2) 0.5039(5)
C4D C 0.7173(3) -0.073(2) 0.5980(5)
C5D C 0.6896(3) -0.124(2) 0.6560(5)
C6D C 0.6357(3) -0.073(2) 0.6217(5)
H1D H 0.7076 0.0780 0.4627
H2D H 0.7557 -0.1129 0.6238
H3D H 0.7089 -0.1955 0.7219
H4D H 0.6183 -0.1140 0.6650
O1D_2 O 0.5523(2) 1.090(1) 0.4971(3)
O2D_2 O 0.5579(2) 1.135(2) 0.3224(3)
Tl1D Tl 0.51565(1) 0.34312(8) 0.62574(2)
Tl1D_2 Tl 0.51565(1) 1.34312(8) 0.62574(2)
Tl1_2 Tl 0.48435(1) -0.34312(8) 0.37426(2)
O1_2 O 0.4477(2) -0.090(1) 0.5029(3)
O2_2 O 0.4421(2) -0.135(2) 0.6776(3)
loop_
_geom_bond_atom_site_label_1
_geom_bond_atom_site_label_2
_geom_bond_site_symmetry_1
_geom_bond_site_symmetry_2
Tl1 O1 1_555 1_555
O1 C1 1_555 1_555
C1 C2 1_555 1_555
C2 N1 1_555 1_555
N1 O2 1_555 1_555
O2 Tl1D 1_555 1_555
O3 N1 1_555 1_555
C3 C2 1_555 1_555
C4 C3 1_555 1_555
C5 C4 1_555 1_555
C6 C1 1_555 1_555
H1 C3 1_555 1_555
H2 C4 1_555 1_555
H3 C5 1_555 1_555
H4 C6 1_555 1_555
O1D Tl1 1_555 1_555
C1D O1D 1_555 1_555
C2D C1D 1_555 1_555
N1D C2D 1_555 1_555
O2D Tl1 1_555 1_555
O3D N1D 1_555 1_555
C3D C2D 1_555 1_555
C4D C3D 1_555 1_555
C5D C4D 1_555 1_555
C6D C1D 1_555 1_555
H1D C3D 1_555 1_555
H2D C4D 1_555 1_555
H3D C5D 1_555 1_555
H4D C6D 1_555 1_555
O1D_2 Tl1 1_555 1_555
O2D_2 Tl1 1_555 1_555
Tl1D O1 1_555 1_555
Tl1D_2 O1 1_555 1_555
Tl1_2 O1D 1_555 1_555
O1_2 Tl1D 1_555 1_555
O2_2 Tl1D 1_555 1_555
O2 Tl1D_2 1_555 1_555
C5 C6 1_555 1_555
O1D Tl1D 1_555 1_555
N1D O2D 1_555 1_555
O2D Tl1_2 1_555 1_555
C5D C6D 1_555 1_555
O1D_2 Tl1D_2 1_555 1_555
Tl1_2 O1_2 1_555 1_555

#END
