
#######################################################################
#
#                 Cambridge Crystallographic Data Centre
#                                CCDC 
#
#######################################################################
#
# If this CIF has been generated from an entry in the Cambridge 
# Structural Database, then it will include bibliographic, chemical, 
# crystal, experimental, refinement or atomic coordinate data resulting 
# from the CCDC's data processing and validation procedures.
#
#######################################################################

data_JIQGIZ01
_symmetry_cell_setting           monoclinic
_symmetry_space_group_name_H-M   'C 2/c'
_symmetry_Int_Tables_number      15
_space_group_name_Hall           '-C 2yn'
loop_
_symmetry_equiv_pos_site_id
_symmetry_equiv_pos_as_xyz
1 x,y,z
2 -x,y,1/2-z
3 1/2+x,1/2+y,z
4 1/2-x,1/2+y,1/2-z
5 -x,-y,-z
6 x,-y,1/2+z
7 1/2-x,1/2-y,-z
8 1/2+x,1/2-y,1/2+z
_cell_length_a                   27.0593(14)
_cell_length_b                   3.6459(2)
_cell_length_c                   15.0579(8)
_cell_angle_alpha                90
_cell_angle_beta                 113.993(2)
_cell_angle_gamma                90
_cell_volume                     1357.19
loop_
_atom_site_label
_atom_site_type_symbol
_atom_site_fract_x
_atom_site_fract_y
_atom_site_fract_z
Tl1 Tl 0.515228(5) 0.84665(4) 0.625916(8)
O1 O 0.44794(11) 0.4067(9) 0.5032(2)
O2 O 0.44149(13) 0.3749(9) 0.6793(2)
O3 O 0.36599(15) 0.1378(9) 0.6699(2)
N1 N 0.39230(14) 0.3006(9) 0.6318(2)
C1 C 0.39625(14) 0.4636(10) 0.4746(2)
C2 C 0.36596(14) 0.4112(11) 0.5320(2)
C3 C 0.30971(14) 0.4616(11) 0.4953(3)
H1 H 0.2913 0.4195 0.5362
C4 C 0.28109(15) 0.5714(12) 0.4007(3)
H2 H 0.2431 0.6080 0.3757
C5 C 0.30968(17) 0.6279(10) 0.3421(3)
H3 H 0.2905 0.7039 0.2766
C6 C 0.36462(15) 0.5760(12) 0.3771(3)
H4 H 0.3822 0.6167 0.3348
Tl1_2 Tl 0.515228(5) -0.15335(4) 0.625916(8)
Tl1D Tl 0.484772(5) 0.15335(4) 0.374084(8)
O1_2 O 0.44794(11) 1.4067(9) 0.5032(2)
O1D O 0.55206(11) 0.5933(9) 0.4968(2)
O2_2 O 0.44149(13) 1.3749(9) 0.6793(2)
loop_
_geom_bond_atom_site_label_1
_geom_bond_atom_site_label_2
_geom_bond_site_symmetry_1
_geom_bond_site_symmetry_2
Tl1 O1 1_555 1_555
O1 C1 1_555 1_555
O2 Tl1 1_555 1_555
O3 N1 1_555 1_555
N1 O2 1_555 1_555
C1 C2 1_555 1_555
C2 N1 1_555 1_555
C3 C2 1_555 1_555
H1 C3 1_555 1_555
C4 C3 1_555 1_555
H2 C4 1_555 1_555
C5 C4 1_555 1_555
H3 C5 1_555 1_555
C6 C1 1_555 1_555
H4 C6 1_555 1_555
Tl1_2 O1 1_555 1_555
Tl1D O1 1_555 1_555
O1_2 Tl1 1_555 1_555
O1D Tl1 1_555 1_555
O2_2 Tl1 1_555 1_555
O2 Tl1_2 1_555 1_555
C5 C6 1_555 1_555
Tl1D O1D 1_555 1_555

#END
