
#######################################################################
#
#                 Cambridge Crystallographic Data Centre
#                                CCDC 
#
#######################################################################
#
# If this CIF has been generated from an entry in the Cambridge 
# Structural Database, then it will include bibliographic, chemical, 
# crystal, experimental, refinement or atomic coordinate data resulting 
# from the CCDC's data processing and validation procedures.
#
#######################################################################

data_JIQHEW
_symmetry_cell_setting           monoclinic
_symmetry_space_group_name_H-M   'C 2/m'
_symmetry_Int_Tables_number      12
_space_group_name_Hall           '-C 2y'
loop_
_symmetry_equiv_pos_site_id
_symmetry_equiv_pos_as_xyz
1 x,y,z
2 -x,y,-z
3 1/2+x,1/2+y,z
4 1/2-x,1/2+y,-z
5 -x,-y,-z
6 x,-y,z
7 1/2-x,1/2-y,-z
8 1/2+x,1/2-y,z
_cell_length_a                   12.818(7)
_cell_length_b                   20.208(8)
_cell_length_c                   3.741(1)
_cell_angle_alpha                90
_cell_angle_beta                 88.25(3)
_cell_angle_gamma                90
_cell_volume                     968.565
loop_
_atom_site_label
_atom_site_type_symbol
_atom_site_fract_x
_atom_site_fract_y
_atom_site_fract_z
Ag1 Ag 0.5000 0.0000 0.5000
Ag2 Ag 0.5000 -0.5000 0.0000
C1 C 0.5000 -0.1329(3) 0.0000
O1 O 0.5000 -0.0712(2) 0.0000
C2 C 0.4162(3) -0.1730(2) -0.1292(9)
N1 N 0.3241(3) -0.1409(2) -0.2715(8)
O2 O 0.6785(4) -0.0825(3) 0.317(2)
O3 O 0.2524(3) -0.1751(3) -0.352(1)
C3 C 0.4152(3) -0.2404(2) -0.1323(9)
C4 C 0.5000 -0.2739(3) 0.0000
N2 N 0.5000 -0.3455(2) 0.0000
O4 O 0.4315(4) -0.3742(2) -0.152(1)
O5 O 0.6351(3) -0.5000 -0.473(1)
H1 H 0.6749 -0.5340 -0.4092
H2 H 0.3575 -0.2643 -0.2265
O1_2 O 0.5000 -0.0712(2) 1.0000
O1D O 0.5000 0.0712(2) 0.0000
O1D_2 O 0.5000 0.0712(2) 1.0000
O2A O 0.3215(4) -0.0825(3) 0.683(2)
O2E O 0.6785(4) 0.0825(3) 0.317(2)
O2D O 0.3215(4) 0.0825(3) 0.683(2)
O4A O 0.5685(4) -0.3742(2) 0.152(1)
O4D O 0.5685(4) -0.6258(2) 0.152(1)
O4E O 0.4315(4) -0.6258(2) -0.152(1)
O5_2 O 0.6351(3) -0.5000 0.527(1)
O5A O 0.3649(3) -0.5000 -0.527(1)
O5A_2 O 0.3649(3) -0.5000 0.473(1)
C2A C 0.5838(3) -0.1730(2) 0.1292(9)
Ag1_2 Ag 0.5000 0.0000 -0.5000
O2A_2 O 0.3215(4) -0.0825(3) -0.317(2)
C3A C 0.5848(3) -0.2404(2) 0.1323(9)
H1E H 0.6749 -0.4660 -0.4092
Ag2_2 Ag 0.5000 -0.5000 -1.0000
Ag2_3 Ag 0.5000 -0.5000 1.0000
H1A H 0.3251 -0.5340 0.4092
H1D H 0.3251 -0.4660 0.4092
H1_2 H 0.6749 -0.5340 0.5908
H1E_2 H 0.6749 -0.4660 0.5908
N2D N 0.5000 -0.6545(2) 0.0000
H1A_2 H 0.3251 -0.5340 -0.5908
H1D_2 H 0.3251 -0.4660 -0.5908
C4D C 0.5000 -0.7261(3) 0.0000
C3D C 0.5848(3) -0.7596(2) 0.1323(9)
C3E C 0.4152(3) -0.7596(2) -0.1323(9)
C2E C 0.4162(3) -0.8270(2) -0.1292(9)
H2E H 0.3575 -0.7357 -0.2265
C2D C 0.5838(3) -0.8270(2) 0.1292(9)
H2D H 0.6425 -0.7357 0.2265
C1D C 0.5000 -0.8671(3) 0.0000
N1E N 0.3241(3) -0.8591(2) -0.2715(8)
N1D N 0.6759(3) -0.8591(2) 0.2715(8)
O2D_2 O 0.3215(4) -0.9175(3) -0.317(2)
O3E O 0.2524(3) -0.8249(3) -0.352(1)
O1D_3 O 0.5000 -0.9288(2) 0.0000
O2E_2 O 0.6785(4) -0.9175(3) 0.317(2)
O3D O 0.7476(3) -0.8249(3) 0.352(1)
Ag1_3 Ag 0.5000 -1.0000 -0.5000
Ag1_4 Ag 0.5000 -1.0000 0.5000
O1_3 O 0.5000 -1.0712(2) 0.0000
N1A N 0.6759(3) -0.1409(2) 0.2715(8)
O3A O 0.7476(3) -0.1751(3) 0.352(1)
Ag1_5 Ag 0.5000 0.0000 1.5000
H2A H 0.6425 -0.2643 0.2265
loop_
_geom_bond_atom_site_label_1
_geom_bond_atom_site_label_2
_geom_bond_site_symmetry_1
_geom_bond_site_symmetry_2
Ag1 O1 1_555 1_555
Ag2 O4 1_555 1_555
C1 O1 1_555 1_555
O1 Ag1_2 1_555 1_555
C2 C1 1_555 1_555
N1 C2 1_555 1_555
O2 Ag1 1_555 1_555
O3 N1 1_555 1_555
C3 C2 1_555 1_555
C4 C3 1_555 1_555
N2 C4 1_555 1_555
O4 N2 1_555 1_555
O5 Ag2 1_555 1_555
H1 O5 1_555 1_555
H2 C3 1_555 1_555
O1_2 Ag1 1_555 1_555
O1D Ag1 1_555 1_555
O1D_2 Ag1 1_555 1_555
O2A Ag1 1_555 1_555
O2E Ag1 1_555 1_555
O2D Ag1 1_555 1_555
O4A Ag2 1_555 1_555
O4D Ag2 1_555 1_555
O4E Ag2 1_555 1_555
O5_2 Ag2 1_555 1_555
O5A Ag2 1_555 1_555
O5A_2 Ag2 1_555 1_555
C2A C1 1_555 1_555
Ag1_2 O1D 1_555 1_555
O2A_2 N1 1_555 1_555
C3A C4 1_555 1_555
H1E O5 1_555 1_555
Ag2_2 O5 1_555 1_555
Ag2_3 O5_2 1_555 1_555
H1A O5A_2 1_555 1_555
H1D O5A_2 1_555 1_555
H1_2 O5_2 1_555 1_555
H1E_2 O5_2 1_555 1_555
N2D O4D 1_555 1_555
H1A_2 O5A 1_555 1_555
H1D_2 O5A 1_555 1_555
C4D N2D 1_555 1_555
C3D C4D 1_555 1_555
C3E C4D 1_555 1_555
C2E C3E 1_555 1_555
H2E C3E 1_555 1_555
C2D C3D 1_555 1_555
H2D C3D 1_555 1_555
C1D C2E 1_555 1_555
N1E C2E 1_555 1_555
N1D C2D 1_555 1_555
O2D_2 N1E 1_555 1_555
O3E N1E 1_555 1_555
O1D_3 C1D 1_555 1_555
O2E_2 N1D 1_555 1_555
O3D N1D 1_555 1_555
Ag1_3 O2D_2 1_555 1_555
Ag1_4 O1D_3 1_555 1_555
O1_3 Ag1_3 1_555 1_555
N1A O2 1_555 1_555
O3A N1A 1_555 1_555
Ag1_5 O1_2 1_555 1_555
H2A C3A 1_555 1_555
N2 O4A 1_555 1_555
O1D_2 Ag1_5 1_555 1_555
O4E N2D 1_555 1_555
O5A Ag2_2 1_555 1_555
O5A_2 Ag2_3 1_555 1_555
C2A C3A 1_555 1_555
C2A N1A 1_555 1_555
Ag1_2 O2A_2 1_555 1_555
C2D C1D 1_555 1_555
O1D_3 Ag1_3 1_555 1_555
O2E_2 Ag1_4 1_555 1_555
Ag1_4 O1_3 1_555 1_555

#END
