
#######################################################################
#
#                 Cambridge Crystallographic Data Centre
#                                CCDC 
#
#######################################################################
#
# If this CIF has been generated from an entry in the Cambridge 
# Structural Database, then it will include bibliographic, chemical, 
# crystal, experimental, refinement or atomic coordinate data resulting 
# from the CCDC's data processing and validation procedures.
#
#######################################################################

data_JIQSUY
_symmetry_cell_setting           monoclinic
_symmetry_space_group_name_H-M   'C 2/c'
_symmetry_Int_Tables_number      15
_space_group_name_Hall           '-C 2yn'
loop_
_symmetry_equiv_pos_site_id
_symmetry_equiv_pos_as_xyz
1 x,y,z
2 1/2+x,1/2+y,z
3 -x,y,1/2-z
4 1/2-x,1/2+y,1/2-z
5 -x,-y,-z
6 1/2-x,1/2-y,-z
7 x,-y,1/2+z
8 1/2+x,1/2-y,1/2+z
_cell_length_a                   33.824(6)
_cell_length_b                   13.260(2)
_cell_length_c                   19.672(4)
_cell_angle_alpha                90
_cell_angle_beta                 124.627(3)
_cell_angle_gamma                90
_cell_volume                     7260.18
loop_
_atom_site_label
_atom_site_type_symbol
_atom_site_fract_x
_atom_site_fract_y
_atom_site_fract_z
Eu1 Eu 0.63120(2) 0.33896(4) 0.73239(4)
Ru1 Ru 0.5000 0.53910(9) 0.7500
Ru2 Ru 0.82351(4) 0.31160(7) 0.85282(6)
C1 C 0.5751(4) -0.2559(9) 0.6050(7)
H1 H 0.5837 -0.3242 0.6054
C2 C 0.5301(5) -0.2342(9) 0.5868(7)
H2 H 0.5090 -0.2892 0.5741
C3 C 0.5462(4) -0.0678(8) 0.6047(7)
C4 C 0.5920(5) -0.0881(8) 0.6230(7)
C5 C 0.6982(5) 0.0433(9) 0.6745(8)
H3 H 0.7280 0.0302 0.6817
C6 C 0.6876(5) 0.1437(9) 0.6852(8)
H4 H 0.7106 0.1954 0.6997
C7 C 0.6146(4) 0.0919(8) 0.6496(7)
C8 C 0.6252(4) -0.0070(8) 0.6426(7)
C9 C 0.4772(5) 0.1549(9) 0.5806(7)
H5 H 0.4453 0.1735 0.5613
C10 C 0.5115(5) 0.2290(9) 0.6090(7)
H6 H 0.5025 0.2964 0.6104
C11 C 0.5667(4) 0.1150(8) 0.6298(7)
C12 C 0.5333(4) 0.0370(8) 0.6051(7)
C13 C 0.7908(5) 0.3049(10) 0.7280(10)
C14 C 0.8218(4) 0.1659(9) 0.8588(7)
C15 C 0.7575(5) 0.3215(8) 0.8268(7)
C16 C 0.8499(5) 0.3121(9) 0.9760(9)
C17 C 0.5914(5) 0.6640(9) 0.7967(8)
H7 H 0.6077 0.6023 0.8041
C18 C 0.6151(5) 0.7537(9) 0.8103(8)
H8 H 0.6477 0.7509 0.8284
C19 C 0.5492(4) 0.8444(8) 0.7775(7)
C20 C 0.5247(4) 0.7531(8) 0.7623(7)
C21 C 0.5248(5) 1.1097(9) 0.7657(8)
H9 H 0.5410 1.1723 0.7764
C22 C 0.5241(4) 0.9388(8) 0.7643(7)
C23 C 0.5230(5) 0.5362(8) 0.8708(8)
C24 C 0.5458(4) 0.4336(8) 0.7628(7)
N1 N 0.6069(4) -0.1830(7) 0.6220(6)
N2 N 0.5142(4) -0.1426(8) 0.5858(7)
N3 N 0.6682(4) -0.0321(7) 0.6551(6)
N4 N 0.6466(4) 0.1671(7) 0.6753(6)
N5 N 0.4872(4) 0.0565(8) 0.5792(6)
N6 N 0.5568(4) 0.2113(7) 0.6346(6)
N7 N 0.7709(4) 0.3020(11) 0.6572(8)
N8 N 0.7188(4) 0.3228(7) 0.8087(7)
N9 N 0.8219(4) 0.0758(7) 0.8612(6)
N10 N 0.8638(5) 0.3120(11) 1.0458(7)
N11 N 0.5453(4) 0.6622(7) 0.7729(6)
N12 N 0.5957(4) 0.8427(7) 0.8000(6)
N13 N 0.5491(4) 1.0254(7) 0.7805(6)
N14 N 0.5335(4) 0.5298(8) 0.9385(7)
N15 N 0.5703(4) 0.3767(7) 0.7598(6)
O1 O 0.6352(3) 0.1942(6) 0.8101(5)
H10 H 0.6552 0.1471 0.8232
H11 H 0.6345 0.2012 0.8523
O2 O 0.6686(3) 0.3945(7) 0.8754(5)
H12 H 0.6923 0.3635 0.9161
H13 H 0.6549 0.4232 0.8952
O3 O 0.6546(3) 0.5156(6) 0.7514(5)
H14 H 0.6794 0.5231 0.8004
H15 H 0.6581 0.5591 0.7235
O4 O 0.5632(3) 0.4349(7) 0.6101(5)
H16 H 0.5631 0.4328 0.5668
H17 H 0.5392 0.4711 0.5968
O5 O 0.6470(3) 0.3715(6) 0.6285(5)
H18 H 0.6353 0.3549 0.5786
H19 H 0.6651 0.4213 0.6364
Eu1B Eu 0.36880(2) 0.33896(4) 0.76761(4)
Ru2B Ru 0.17649(4) 0.31160(7) 0.64718(6)
Ru2C Ru 0.67649(4) -0.18840(7) 0.64718(6)
Ru2A Ru 0.32351(4) -0.18840(7) 0.85282(6)
C1B C 0.4249(4) -0.2559(9) 0.8950(7)
H1B H 0.4163 -0.3242 0.8946
C2B C 0.4699(5) -0.2342(9) 0.9132(7)
H2B H 0.4910 -0.2892 0.9259
C3B C 0.4538(4) -0.0678(8) 0.8953(7)
C4B C 0.4080(5) -0.0881(8) 0.8770(7)
C5B C 0.3018(5) 0.0433(9) 0.8255(8)
H3B H 0.2720 0.0302 0.8183
C6B C 0.3124(5) 0.1437(9) 0.8148(8)
H4B H 0.2894 0.1954 0.8003
C7B C 0.3854(4) 0.0919(8) 0.8504(7)
C8B C 0.3748(4) -0.0070(8) 0.8574(7)
C9B C 0.5228(5) 0.1549(9) 0.9194(7)
H5B H 0.5547 0.1735 0.9387
C10B C 0.4885(5) 0.2290(9) 0.8910(7)
H6B H 0.4975 0.2964 0.8896
C11B C 0.4333(4) 0.1150(8) 0.8702(7)
C12B C 0.4667(4) 0.0370(8) 0.8949(7)
C13B C 0.2092(5) 0.3049(10) 0.7720(10)
C14B C 0.1782(4) 0.1659(9) 0.6412(7)
C15B C 0.2425(5) 0.3215(8) 0.6732(7)
C16B C 0.1501(5) 0.3121(9) 0.5240(9)
C17B C 0.4086(5) 0.6640(9) 0.7033(8)
H7B H 0.3923 0.6023 0.6959
C18B C 0.3849(5) 0.7537(9) 0.6897(8)
H8B H 0.3523 0.7509 0.6716
C19B C 0.4508(4) 0.8444(8) 0.7225(7)
C20B C 0.4753(4) 0.7531(8) 0.7377(7)
C21B C 0.4752(5) 1.1097(9) 0.7343(8)
H9B H 0.4590 1.1723 0.7236
C22B C 0.4759(4) 0.9388(8) 0.7357(7)
C23B C 0.4770(5) 0.5362(8) 0.6292(8)
C24B C 0.4542(4) 0.4336(8) 0.7372(7)
N1B N 0.3931(4) -0.1830(7) 0.8780(6)
N1C N 0.8931(4) 0.3170(7) 0.8780(6)
N1A N 0.1069(4) 0.3170(7) 0.6220(6)
N2B N 0.4858(4) -0.1426(8) 0.9142(7)
N3B N 0.3318(4) -0.0321(7) 0.8449(6)
N3C N 0.8318(4) 0.4679(7) 0.8449(6)
N3A N 0.1682(4) 0.4679(7) 0.6551(6)
N4B N 0.3534(4) 0.1671(7) 0.8247(6)
N5B N 0.5128(4) 0.0565(8) 0.9208(6)
N6B N 0.4432(4) 0.2113(7) 0.8654(6)
N7B N 0.2291(4) 0.3020(11) 0.8428(8)
N8B N 0.2812(4) 0.3228(7) 0.6913(7)
N9B N 0.1781(4) 0.0758(7) 0.6388(6)
N10B N 0.1362(5) 0.3120(11) 0.4542(7)
N11B N 0.4547(4) 0.6622(7) 0.7271(6)
N12B N 0.4043(4) 0.8427(7) 0.7000(6)
N13B N 0.4509(4) 1.0254(7) 0.7195(6)
N14B N 0.4665(4) 0.5298(8) 0.5615(7)
N15B N 0.4297(4) 0.3767(7) 0.7402(6)
O1B O 0.3648(3) 0.1942(6) 0.6899(5)
H10B H 0.3448 0.1471 0.6768
H11B H 0.3655 0.2012 0.6477
O2B O 0.3314(3) 0.3945(7) 0.6246(5)
H12B H 0.3077 0.3635 0.5839
H13B H 0.3451 0.4232 0.6048
O3B O 0.3454(3) 0.5156(6) 0.7486(5)
H14B H 0.3206 0.5231 0.6996
H15B H 0.3419 0.5591 0.7765
O4B O 0.4368(3) 0.4349(7) 0.8899(5)
H16B H 0.4369 0.4328 0.9332
H17B H 0.4608 0.4711 0.9032
O5B O 0.3530(3) 0.3715(6) 0.8715(5)
H18B H 0.3647 0.3549 0.9214
H19B H 0.3349 0.4213 0.8636
O6 O 0.7301(4) 0.5986(7) 0.8970(6)
O7 O 0.1168(5) 0.7757(10) 0.4871(7)
O8 O 0.3014(4) 0.6402(8) 0.5050(7)
O9 O 0.9029(4) 0.5784(12) 0.0255(7)
O10 O 0.1354(4) 0.9753(8) 0.9655(7)
O11 O 0.1627(5) 0.4987(7) 0.3273(8)
O13 O 0.2540(9) 0.1858(19) 0.5028(15)
O14 O 0.8237(8) 0.5250(14) 0.0154(12)
O15 O 0.2463(11) 0.046(2) 0.5912(18)
O12? O 0.2642(14) 0.109(3) 0.506(2)
loop_
_geom_bond_atom_site_label_1
_geom_bond_atom_site_label_2
_geom_bond_site_symmetry_1
_geom_bond_site_symmetry_2
Eu1 N4 1_555 1_555
Ru1 C23 1_555 1_555
Ru2 C13 1_555 1_555
C1 H1 1_555 1_555
C2 C1 1_555 1_555
H2 C2 1_555 1_555
C3 C4 1_555 1_555
C4 C8 1_555 1_555
C5 H3 1_555 1_555
C6 C5 1_555 1_555
H4 C6 1_555 1_555
C7 C8 1_555 1_555
C8 N3 1_555 1_555
C9 H5 1_555 1_555
C10 C9 1_555 1_555
H6 C10 1_555 1_555
C11 C7 1_555 1_555
C12 C3 1_555 1_555
C13 N7 1_555 1_555
C14 Ru2 1_555 1_555
C15 Ru2 1_555 1_555
C16 Ru2 1_555 1_555
C17 H7 1_555 1_555
C18 C17 1_555 1_555
H8 C18 1_555 1_555
C19 C20 1_555 1_555
C20 N11 1_555 1_555
C21 H9 1_555 1_555
C22 C19 1_555 1_555
C23 N14 1_555 1_555
C24 Ru1 1_555 1_555
N1 C1 1_555 1_555
N2 C2 1_555 1_555
N3 C5 1_555 1_555
N4 C6 1_555 1_555
N5 C9 1_555 1_555
N6 Eu1 1_555 1_555
N8 Eu1 1_555 1_555
N9 C14 1_555 1_555
N10 C16 1_555 1_555
N11 Ru1 1_555 1_555
N12 C18 1_555 1_555
N13 C21 1_555 1_555
N15 Eu1 1_555 1_555
O1 Eu1 1_555 1_555
H10 O1 1_555 1_555
H11 O1 1_555 1_555
O2 Eu1 1_555 1_555
H12 O2 1_555 1_555
H13 O2 1_555 1_555
O3 Eu1 1_555 1_555
H14 O3 1_555 1_555
H15 O3 1_555 1_555
O4 Eu1 1_555 1_555
H16 O4 1_555 1_555
H17 O4 1_555 1_555
O5 Eu1 1_555 1_555
H18 O5 1_555 1_555
H19 O5 1_555 1_555
Eu1B N4B 1_555 1_555
Ru2B C13B 1_555 1_555
Ru2C N1 1_555 1_555
Ru2A N1B 1_555 1_555
C1B H1B 1_555 1_555
C2B C1B 1_555 1_555
H2B C2B 1_555 1_555
C3B C4B 1_555 1_555
C4B C8B 1_555 1_555
C5B H3B 1_555 1_555
C6B C5B 1_555 1_555
H4B C6B 1_555 1_555
C7B C8B 1_555 1_555
C8B N3B 1_555 1_555
C9B H5B 1_555 1_555
C10B C9B 1_555 1_555
H6B C10B 1_555 1_555
C11B C7B 1_555 1_555
C12B C3B 1_555 1_555
C13B N7B 1_555 1_555
C14B Ru2B 1_555 1_555
C15B Ru2B 1_555 1_555
C16B Ru2B 1_555 1_555
C17B H7B 1_555 1_555
C18B C17B 1_555 1_555
H8B C18B 1_555 1_555
C19B C20B 1_555 1_555
C20B C20 1_555 1_555
C21B C21 1_555 1_555
H9B C21B 1_555 1_555
C22B C22 1_555 1_555
C23B Ru1 1_555 1_555
C24B Ru1 1_555 1_555
N1B C1B 1_555 1_555
N1C Ru2 1_555 1_555
N1A Ru2B 1_555 1_555
N2B C2B 1_555 1_555
N3B Ru2A 1_555 1_555
N3C Ru2 1_555 1_555
N3A Ru2B 1_555 1_555
N4B C6B 1_555 1_555
N5B C9B 1_555 1_555
N6B Eu1B 1_555 1_555
N8B Eu1B 1_555 1_555
N9B C14B 1_555 1_555
N10B C16B 1_555 1_555
N11B Ru1 1_555 1_555
N12B C18B 1_555 1_555
N13B C21B 1_555 1_555
N14B C23B 1_555 1_555
N15B Eu1B 1_555 1_555
O1B Eu1B 1_555 1_555
H10B O1B 1_555 1_555
H11B O1B 1_555 1_555
O2B Eu1B 1_555 1_555
H12B O2B 1_555 1_555
H13B O2B 1_555 1_555
O3B Eu1B 1_555 1_555
H14B O3B 1_555 1_555
H15B O3B 1_555 1_555
O4B Eu1B 1_555 1_555
H16B O4B 1_555 1_555
H17B O4B 1_555 1_555
O5B Eu1B 1_555 1_555
H18B O5B 1_555 1_555
H19B O5B 1_555 1_555
C3 N2 1_555 1_555
C4 N1 1_555 1_555
C7 N4 1_555 1_555
C10 N6 1_555 1_555
C11 C12 1_555 1_555
C11 N6 1_555 1_555
C12 N5 1_555 1_555
C15 N8 1_555 1_555
C17 N11 1_555 1_555
C19 N12 1_555 1_555
C22 N13 1_555 1_555
C24 N15 1_555 1_555
N3 Ru2C 1_555 1_555
C3B N2B 1_555 1_555
C4B N1B 1_555 1_555
C5B N3B 1_555 1_555
C7B N4B 1_555 1_555
C10B N6B 1_555 1_555
C11B C12B 1_555 1_555
C11B N6B 1_555 1_555
C12B N5B 1_555 1_555
C15B N8B 1_555 1_555
C17B N11B 1_555 1_555
C19B C22B 1_555 1_555
C19B N12B 1_555 1_555
C20B N11B 1_555 1_555
C22B N13B 1_555 1_555
C24B N15B 1_555 1_555

#END
