
#######################################################################
#
#                 Cambridge Crystallographic Data Centre
#                                CCDC 
#
#######################################################################
#
# If this CIF has been generated from an entry in the Cambridge 
# Structural Database, then it will include bibliographic, chemical, 
# crystal, experimental, refinement or atomic coordinate data resulting 
# from the CCDC's data processing and validation procedures.
#
#######################################################################

data_JIQSOS
_symmetry_cell_setting           monoclinic
_symmetry_space_group_name_H-M   'P 21/n'
_symmetry_Int_Tables_number      14
_space_group_name_Hall           '-P 2yn'
loop_
_symmetry_equiv_pos_site_id
_symmetry_equiv_pos_as_xyz
1 x,y,z
2 1/2-x,1/2+y,1/2-z
3 -x,-y,-z
4 1/2+x,1/2-y,1/2+z
_cell_length_a                   9.862(3)
_cell_length_b                   16.668(5)
_cell_length_c                   13.171(4)
_cell_angle_alpha                90
_cell_angle_beta                 107.354(5)
_cell_angle_gamma                90
_cell_volume                     2066.49
loop_
_atom_site_label
_atom_site_type_symbol
_atom_site_fract_x
_atom_site_fract_y
_atom_site_fract_z
Ru1 Ru 0.23363(7) 0.26112(4) 0.50726(5)
Na1 Na 0.5566(4) -0.1343(2) 0.7538(3)
Na2 Na -0.0287(4) -0.1363(2) 0.2318(3)
C1 C 0.4990(9) 0.1647(6) 0.6474(7)
H1 H 0.5350 0.2170 0.6680
C2 C 0.5702(9) 0.0925(6) 0.6847(7)
H2 H 0.6657 0.0919 0.7294
C3 C 0.3857(9) 0.0205(5) 0.5786(7)
C4 C 0.3141(9) 0.0913(5) 0.5418(7)
C5 C 0.3202(9) -0.0557(5) 0.5363(7)
C6 C 0.3285(10) -0.1913(6) 0.5319(7)
H3 H 0.3721 -0.2401 0.5620
C7 C 0.1968(10) -0.1928(6) 0.4500(7)
H4 H 0.1495 -0.2411 0.4215
C8 C 0.1876(9) -0.0564(5) 0.4574(7)
C9 C 0.1100(9) 0.0184(5) 0.4220(7)
C10 C -0.0853(9) 0.0866(6) 0.3253(7)
H5 H -0.1749 0.0879 0.2722
C11 C -0.0228(9) 0.1595(6) 0.3676(7)
H6 H -0.0655 0.2093 0.3406
C12 C 0.1732(9) 0.0900(5) 0.4654(7)
C13 C 0.3072(9) 0.2621(5) 0.3778(7)
C14 C 0.0881(9) 0.3430(5) 0.4420(7)
C15 C 0.3670(9) 0.3503(6) 0.5679(7)
C16 C 0.1670(9) 0.2604(5) 0.6406(7)
N1 N 0.3701(7) 0.1650(4) 0.5752(6)
N2 N 0.5175(8) 0.0204(5) 0.6514(6)
N3 N 0.3893(8) -0.1244(5) 0.5735(6)
N4 N 0.1267(8) -0.1258(5) 0.4133(6)
N5 N -0.0215(7) 0.0156(4) 0.3507(6)
N6 N 0.1071(7) 0.1624(4) 0.4382(6)
N7 N 0.3512(8) 0.2609(5) 0.3057(6)
N8 N 0.0009(9) 0.3908(5) 0.4067(7)
N9 N 0.4427(9) 0.4042(5) 0.5986(7)
N10 N 0.1327(8) 0.2587(5) 0.7171(6)
O1 O 0.1040(7) -0.0504(4) 0.1567(6)
H7 H 0.119(11) -0.069(6) 0.103(6)
H8 H 0.069(11) -0.006(4) 0.142(8)
O2 O 0.4342(8) -0.0557(4) 0.8444(6)
H9 H 0.462(11) -0.008(4) 0.860(8)
H10 H 0.428(12) -0.076(5) 0.900(6)
O3 O -0.2171(7) -0.0751(5) 0.1031(6)
H11 H -0.207(11) -0.028(4) 0.104(9)
H12 H -0.298(8) -0.089(6) 0.107(9)
O4 O 0.7602(8) -0.1283(5) 0.8948(6)
H13 H 0.768(11) -0.106(7) 0.953(6)
H14 H 0.837(12) -0.117(7) 0.882(8)
Na1B Na 0.4434(4) 0.1343(2) 0.2462(3)
Na1A Na -0.0566(4) 0.3657(2) 0.7462(3)
Na2A Na 0.5287(4) 0.3637(2) 0.2682(3)
Na2B Na 0.0287(4) 0.1363(2) 0.7682(3)
N7B N 0.6488(8) -0.2609(5) 0.6943(6)
N7A N 0.1488(8) -0.2391(5) 0.1943(6)
N10A N 0.3673(8) -0.2413(5) 0.7829(6)
N10B N -0.1327(8) -0.2587(5) 0.2829(6)
loop_
_geom_bond_atom_site_label_1
_geom_bond_atom_site_label_2
_geom_bond_site_symmetry_1
_geom_bond_site_symmetry_2
Ru1 C13 1_555 1_555
Na1 N2 1_555 1_555
Na2 N4 1_555 1_555
C1 H1 1_555 1_555
C2 C1 1_555 1_555
H2 C2 1_555 1_555
C3 C4 1_555 1_555
C4 C12 1_555 1_555
C5 C3 1_555 1_555
C6 H3 1_555 1_555
C7 C6 1_555 1_555
H4 C7 1_555 1_555
C8 C5 1_555 1_555
C9 C8 1_555 1_555
C10 H5 1_555 1_555
C11 C10 1_555 1_555
H6 C11 1_555 1_555
C12 C9 1_555 1_555
C13 N7 1_555 1_555
C14 Ru1 1_555 1_555
C15 Ru1 1_555 1_555
C16 Ru1 1_555 1_555
N1 Ru1 1_555 1_555
N2 C2 1_555 1_555
N3 Na1 1_555 1_555
N4 C7 1_555 1_555
N5 Na2 1_555 1_555
N6 Ru1 1_555 1_555
N7 Na1B 1_555 1_555
N8 C14 1_555 1_555
N9 C15 1_555 1_555
N10 C16 1_555 1_555
O1 Na2 1_555 1_555
H7 O1 1_555 1_555
H8 O1 1_555 1_555
O2 Na1 1_555 1_555
H9 O2 1_555 1_555
H10 O2 1_555 1_555
O3 Na2 1_555 1_555
H11 O3 1_555 1_555
H12 O3 1_555 1_555
O4 Na1 1_555 1_555
H13 O4 1_555 1_555
H14 O4 1_555 1_555
Na1A N10 1_555 1_555
Na2A N7 1_555 1_555
Na2B N10 1_555 1_555
N7B Na1 1_555 1_555
N7A Na2 1_555 1_555
N10A Na1 1_555 1_555
N10B Na2 1_555 1_555
C1 N1 1_555 1_555
C3 N2 1_555 1_555
C4 N1 1_555 1_555
C5 N3 1_555 1_555
C6 N3 1_555 1_555
C8 N4 1_555 1_555
C9 N5 1_555 1_555
C10 N5 1_555 1_555
C11 N6 1_555 1_555
C12 N6 1_555 1_555

#END
