
#######################################################################
#
#                 Cambridge Crystallographic Data Centre
#                                CCDC 
#
#######################################################################
#
# If this CIF has been generated from an entry in the Cambridge 
# Structural Database, then it will include bibliographic, chemical, 
# crystal, experimental, refinement or atomic coordinate data resulting 
# from the CCDC's data processing and validation procedures.
#
#######################################################################

data_JIQTEJ
_symmetry_cell_setting           monoclinic
_symmetry_space_group_name_H-M   'C 2/c'
_symmetry_Int_Tables_number      15
_space_group_name_Hall           '-C 2yn'
loop_
_symmetry_equiv_pos_site_id
_symmetry_equiv_pos_as_xyz
1 x,y,z
2 1/2+x,1/2+y,z
3 -x,y,1/2-z
4 1/2-x,1/2+y,1/2-z
5 -x,-y,-z
6 1/2-x,1/2-y,-z
7 x,-y,1/2+z
8 1/2+x,1/2-y,1/2+z
_cell_length_a                   33.778(14)
_cell_length_b                   13.233(6)
_cell_length_c                   19.647(8)
_cell_angle_alpha                90
_cell_angle_beta                 124.616(6)
_cell_angle_gamma                90
_cell_volume                     7227.31
loop_
_atom_site_label
_atom_site_type_symbol
_atom_site_fract_x
_atom_site_fract_y
_atom_site_fract_z
Gd1 Gd 0.368696(14) 0.16091(3) 0.76758(2)
Ru1 Ru 0.17659(2) 0.18805(5) 0.64728(4)
Ru2 Ru 0.5000 -0.03939(7) 0.7500
C1 C 0.4080(3) 0.5869(6) 0.8775(5)
C2 C 0.4246(3) 0.7554(7) 0.8952(5)
H1 H 0.4127 0.8225 0.8895
C3 C 0.4700(3) 0.7341(7) 0.9123(5)
H2 H 0.4935 0.7869 0.9354
C4 C 0.4540(3) 0.5665(7) 0.8952(5)
C5 C 0.4672(3) 0.4624(6) 0.8956(5)
C6 C 0.5228(3) 0.3457(7) 0.9193(5)
H3 H 0.5555 0.3343 0.9379
C7 C 0.4885(3) 0.2694(7) 0.8905(5)
H4 H 0.4974 0.2034 0.8889
C8 C 0.4327(3) 0.3846(7) 0.8696(5)
C9 C 0.3854(3) 0.4077(7) 0.8499(5)
C10 C 0.3118(3) 0.3570(6) 0.8142(5)
H5 H 0.2846 0.3128 0.7858
C11 C 0.3010(3) 0.4559(7) 0.8247(5)
H6 H 0.2718 0.4686 0.8176
C12 C 0.3746(3) 0.5066(6) 0.8571(5)
C13 C 0.1497(3) 0.1861(7) 0.5235(5)
C14 C 0.2423(3) 0.1784(6) 0.6727(5)
C15 C 0.1784(3) 0.3350(7) 0.6421(5)
C16 C 0.2090(3) 0.1959(7) 0.7719(5)
C17 C 0.4754(3) -0.2536(6) 0.7375(5)
C18 C 0.4508(3) -0.3440(6) 0.7226(5)
C19 C 0.3844(3) -0.2542(7) 0.6894(5)
H7 H 0.3511 -0.2457 0.6684
C20 C 0.4084(3) -0.1636(7) 0.7034(5)
H8 H 0.3939 -0.0983 0.6925
C21 C 0.4759(3) -0.4397(7) 0.7352(5)
C22 C 0.4752(3) -0.6108(7) 0.7338(5)
H9 H 0.4626 -0.6720 0.7398
C23 C 0.4549(3) 0.0656(6) 0.7373(5)
C24 C 0.4767(3) -0.0353(6) 0.6283(5)
N1 N 0.3929(2) 0.6823(5) 0.8778(4)
N2 N 0.4855(3) 0.6420(6) 0.9133(4)
N3 N 0.5128(2) 0.4427(6) 0.9207(4)
N4 N 0.4433(2) 0.2879(6) 0.8652(4)
N5 N 0.3531(2) 0.3326(5) 0.8245(4)
N6 N 0.3315(2) 0.5318(5) 0.8445(4)
N7 N 0.1366(3) 0.1879(8) 0.4557(5)
N8 N 0.2813(3) 0.1771(5) 0.6910(5)
N9 N 0.1781(3) 0.4245(6) 0.6393(4)
N10 N 0.2285(3) 0.1977(8) 0.8421(5)
N11 N 0.4546(2) -0.1621(5) 0.7271(4)
N12 N 0.4508(3) -0.5267(6) 0.7195(4)
N13 N 0.4043(2) -0.3431(6) 0.6991(4)
N14 N 0.4296(3) 0.1216(6) 0.7398(4)
N15 N 0.4665(3) -0.0303(6) 0.5613(5)
O1 O 0.3530(2) 0.1280(5) 0.8708(4)
H10 H 0.3651 0.1574 0.9169
H11 H 0.3340 0.0825 0.8661
O2 O 0.4367(2) 0.0645(5) 0.8901(4)
H12 H 0.4634 0.0491 0.8981
H13 H 0.4437 0.0750 0.9385
O3 O 0.3458(2) -0.0146(5) 0.7491(4)
H14 H 0.3406 -0.0399 0.7829
H15 H 0.3226 -0.0400 0.7043
O4 O 0.3317(2) 0.1060(5) 0.6252(4)
H16 H 0.3055 0.1335 0.5879
H17 H 0.3419 0.0814 0.5981
O5 O 0.3641(2) 0.3052(4) 0.6898(4)
H18 H 0.3677 0.2993 0.6507
H19 H 0.3554 0.3662 0.6845
Gd1B Gd 0.631304(14) 0.16091(3) 0.73242(2)
Ru1B Ru 0.82341(2) 0.18805(5) 0.85272(4)
Ru1C Ru 0.32341(2) 0.68805(5) 0.85272(4)
Ru1A Ru 0.67659(2) 0.68805(5) 0.64728(4)
C1B C 0.5920(3) 0.5869(6) 0.6225(5)
C2B C 0.5754(3) 0.7554(7) 0.6048(5)
H1B H 0.5873 0.8225 0.6105
C3B C 0.5300(3) 0.7341(7) 0.5877(5)
H2B H 0.5065 0.7869 0.5646
C4B C 0.5460(3) 0.5665(7) 0.6048(5)
C5B C 0.5328(3) 0.4624(6) 0.6044(5)
C6B C 0.4772(3) 0.3457(7) 0.5807(5)
H3B H 0.4445 0.3343 0.5621
C7B C 0.5115(3) 0.2694(7) 0.6095(5)
H4B H 0.5026 0.2034 0.6111
C8B C 0.5673(3) 0.3846(7) 0.6304(5)
C9B C 0.6146(3) 0.4077(7) 0.6501(5)
C10B C 0.6882(3) 0.3570(6) 0.6858(5)
H5B H 0.7154 0.3128 0.7142
C11B C 0.6990(3) 0.4559(7) 0.6753(5)
H6B H 0.7282 0.4686 0.6824
C12B C 0.6254(3) 0.5066(6) 0.6429(5)
C13B C 0.8503(3) 0.1861(7) 0.9765(5)
C14B C 0.7577(3) 0.1784(6) 0.8273(5)
C15B C 0.8216(3) 0.3350(7) 0.8579(5)
C16B C 0.7910(3) 0.1959(7) 0.7281(5)
C17B C 0.5246(3) -0.2536(6) 0.7625(5)
C18B C 0.5492(3) -0.3440(6) 0.7774(5)
C19B C 0.6156(3) -0.2542(7) 0.8106(5)
H7B H 0.6489 -0.2457 0.8316
C20B C 0.5916(3) -0.1636(7) 0.7966(5)
H8B H 0.6061 -0.0983 0.8075
C21B C 0.5241(3) -0.4397(7) 0.7648(5)
C22B C 0.5248(3) -0.6108(7) 0.7662(5)
H9B H 0.5374 -0.6720 0.7602
C23B C 0.5451(3) 0.0656(6) 0.7627(5)
C24B C 0.5233(3) -0.0353(6) 0.8717(5)
N1B N 0.6071(2) 0.6823(5) 0.6222(4)
N1C N 0.1071(2) 0.1823(5) 0.6222(4)
N1A N 0.8929(2) 0.1823(5) 0.8778(4)
N2B N 0.5145(3) 0.6420(6) 0.5867(4)
N3B N 0.4872(2) 0.4427(6) 0.5793(4)
N4B N 0.5567(2) 0.2879(6) 0.6348(4)
N5B N 0.6469(2) 0.3326(5) 0.6755(4)
N6B N 0.6685(2) 0.5318(5) 0.6555(4)
N6C N 0.1685(2) 0.0318(5) 0.6555(4)
N6A N 0.8315(2) 0.0318(5) 0.8445(4)
N7B N 0.8634(3) 0.1879(8) 1.0443(5)
N8B N 0.7187(3) 0.1771(5) 0.8090(5)
N9B N 0.8219(3) 0.4245(6) 0.8607(4)
N10B N 0.7715(3) 0.1977(8) 0.6579(5)
N11B N 0.5454(2) -0.1621(5) 0.7729(4)
N12B N 0.5492(3) -0.5267(6) 0.7805(4)
N13B N 0.5957(2) -0.3431(6) 0.8009(4)
N14B N 0.5704(3) 0.1216(6) 0.7602(4)
N15B N 0.5335(3) -0.0303(6) 0.9387(5)
O1B O 0.6470(2) 0.1280(5) 0.6292(4)
H10B H 0.6349 0.1574 0.5831
H11B H 0.6660 0.0825 0.6339
O2B O 0.5633(2) 0.0645(5) 0.6099(4)
H12B H 0.5366 0.0491 0.6019
H13B H 0.5563 0.0750 0.5615
O3B O 0.6542(2) -0.0146(5) 0.7509(4)
H14B H 0.6594 -0.0399 0.7171
H15B H 0.6774 -0.0400 0.7957
O4B O 0.6683(2) 0.1060(5) 0.8748(4)
H16B H 0.6945 0.1335 0.9121
H17B H 0.6581 0.0814 0.9019
O5B O 0.6359(2) 0.3052(4) 0.8102(4)
H18B H 0.6323 0.2993 0.8493
H19B H 0.6446 0.3662 0.8155
O6 O 0.2703(3) 0.9010(6) 0.6043(5)
O7 O 0.3023(3) 0.8602(6) 0.5063(5)
O8 O 0.3644(3) 0.9760(6) 0.0347(5)
O9 O 0.4023(3) 0.5745(9) 0.5263(5)
O10 O 0.1771(7) 0.9768(14) 0.4857(11)
O11 O 0.3369(4) 0.4979(6) 0.6730(6)
O12 O 0.3825(4) 0.7746(8) 0.5129(5)
O13 O 0.2444(7) 0.1775(14) 0.4966(12)
O14 O 0.2472(8) 0.4530(18) 0.5931(14)
loop_
_geom_bond_atom_site_label_1
_geom_bond_atom_site_label_2
_geom_bond_site_symmetry_1
_geom_bond_site_symmetry_2
Gd1 N4 1_555 1_555
Ru1 C13 1_555 1_555
Ru2 C23 1_555 1_555
C1 C4 1_555 1_555
C2 H1 1_555 1_555
C3 C2 1_555 1_555
H2 C3 1_555 1_555
C4 C5 1_555 1_555
C5 C8 1_555 1_555
C6 H3 1_555 1_555
C7 C6 1_555 1_555
H4 C7 1_555 1_555
C8 C9 1_555 1_555
C9 C12 1_555 1_555
C10 H5 1_555 1_555
C11 C10 1_555 1_555
H6 C11 1_555 1_555
C12 C1 1_555 1_555
C13 N7 1_555 1_555
C14 Ru1 1_555 1_555
C15 Ru1 1_555 1_555
C16 Ru1 1_555 1_555
C17 C18 1_555 1_555
C18 C21 1_555 1_555
C19 H7 1_555 1_555
C20 C19 1_555 1_555
H8 C20 1_555 1_555
C21 N12 1_555 1_555
C22 H9 1_555 1_555
C23 N14 1_555 1_555
C24 Ru2 1_555 1_555
N1 C1 1_555 1_555
N2 C3 1_555 1_555
N3 C5 1_555 1_555
N4 C7 1_555 1_555
N5 Gd1 1_555 1_555
N6 C11 1_555 1_555
N8 Gd1 1_555 1_555
N9 C15 1_555 1_555
N10 C16 1_555 1_555
N11 Ru2 1_555 1_555
N12 C22 1_555 1_555
N13 C18 1_555 1_555
N14 Gd1 1_555 1_555
N15 C24 1_555 1_555
O1 Gd1 1_555 1_555
H10 O1 1_555 1_555
H11 O1 1_555 1_555
O2 Gd1 1_555 1_555
H12 O2 1_555 1_555
H13 O2 1_555 1_555
O3 Gd1 1_555 1_555
H14 O3 1_555 1_555
H15 O3 1_555 1_555
O4 Gd1 1_555 1_555
H16 O4 1_555 1_555
H17 O4 1_555 1_555
O5 Gd1 1_555 1_555
H18 O5 1_555 1_555
H19 O5 1_555 1_555
Gd1B N4B 1_555 1_555
Ru1B C13B 1_555 1_555
Ru1C N1 1_555 1_555
Ru1A N1B 1_555 1_555
C1B C4B 1_555 1_555
C2B H1B 1_555 1_555
C3B C2B 1_555 1_555
H2B C3B 1_555 1_555
C4B C5B 1_555 1_555
C5B C8B 1_555 1_555
C6B H3B 1_555 1_555
C7B C6B 1_555 1_555
H4B C7B 1_555 1_555
C8B C9B 1_555 1_555
C9B C12B 1_555 1_555
C10B H5B 1_555 1_555
C11B C10B 1_555 1_555
H6B C11B 1_555 1_555
C12B C1B 1_555 1_555
C13B N7B 1_555 1_555
C14B Ru1B 1_555 1_555
C15B Ru1B 1_555 1_555
C16B Ru1B 1_555 1_555
C17B C17 1_555 1_555
C18B C17B 1_555 1_555
C19B H7B 1_555 1_555
C20B C19B 1_555 1_555
H8B C20B 1_555 1_555
C21B C21 1_555 1_555
C22B C22 1_555 1_555
H9B C22B 1_555 1_555
C23B Ru2 1_555 1_555
C24B Ru2 1_555 1_555
N1B C1B 1_555 1_555
N1C Ru1 1_555 1_555
N1A Ru1B 1_555 1_555
N2B C3B 1_555 1_555
N3B C5B 1_555 1_555
N4B C7B 1_555 1_555
N5B Gd1B 1_555 1_555
N6B Ru1A 1_555 1_555
N6C Ru1 1_555 1_555
N6A Ru1B 1_555 1_555
N8B Gd1B 1_555 1_555
N9B C15B 1_555 1_555
N10B C16B 1_555 1_555
N11B Ru2 1_555 1_555
N12B C21B 1_555 1_555
N13B C18B 1_555 1_555
N14B Gd1B 1_555 1_555
N15B C24B 1_555 1_555
O1B Gd1B 1_555 1_555
H10B O1B 1_555 1_555
H11B O1B 1_555 1_555
O2B Gd1B 1_555 1_555
H12B O2B 1_555 1_555
H13B O2B 1_555 1_555
O3B Gd1B 1_555 1_555
H14B O3B 1_555 1_555
H15B O3B 1_555 1_555
O4B Gd1B 1_555 1_555
H16B O4B 1_555 1_555
H17B O4B 1_555 1_555
O5B Gd1B 1_555 1_555
H18B O5B 1_555 1_555
H19B O5B 1_555 1_555
C2 N1 1_555 1_555
C4 N2 1_555 1_555
C6 N3 1_555 1_555
C8 N4 1_555 1_555
C9 N5 1_555 1_555
C10 N5 1_555 1_555
C12 N6 1_555 1_555
C14 N8 1_555 1_555
C17 N11 1_555 1_555
C19 N13 1_555 1_555
C20 N11 1_555 1_555
N6 Ru1C 1_555 1_555
C2B N1B 1_555 1_555
C4B N2B 1_555 1_555
C6B N3B 1_555 1_555
C8B N4B 1_555 1_555
C9B N5B 1_555 1_555
C10B N5B 1_555 1_555
C11B N6B 1_555 1_555
C12B N6B 1_555 1_555
C14B N8B 1_555 1_555
C17B N11B 1_555 1_555
C18B C21B 1_555 1_555
C19B N13B 1_555 1_555
C20B N11B 1_555 1_555
C22B N12B 1_555 1_555
C23B N14B 1_555 1_555

#END
