
#######################################################################
#
#                 Cambridge Crystallographic Data Centre
#                                CCDC 
#
#######################################################################
#
# If this CIF has been generated from an entry in the Cambridge 
# Structural Database, then it will include bibliographic, chemical, 
# crystal, experimental, refinement or atomic coordinate data resulting 
# from the CCDC's data processing and validation procedures.
#
#######################################################################

data_JIQTUZ
_symmetry_cell_setting           triclinic
_symmetry_space_group_name_H-M   'P -1'
_symmetry_Int_Tables_number      2
_space_group_name_Hall           '-P 1'
loop_
_symmetry_equiv_pos_site_id
_symmetry_equiv_pos_as_xyz
1 x,y,z
2 -x,-y,-z
_cell_length_a                   11.4801(5)
_cell_length_b                   15.8855(6)
_cell_length_c                   22.8864(10)
_cell_angle_alpha                97.127(2)
_cell_angle_beta                 100.460(2)
_cell_angle_gamma                103.133(2)
_cell_volume                     3937.01
loop_
_atom_site_label
_atom_site_type_symbol
_atom_site_fract_x
_atom_site_fract_y
_atom_site_fract_z
Yb1 Yb 0.75312(4) 1.01671(3) 0.115698(18)
Yb2 Yb 0.61107(4) 0.61727(3) -0.180539(19)
Yb3 Yb 0.23528(4) 1.00557(3) 0.376366(19)
Ru1 Ru 1.03249(7) 1.26789(5) 0.30381(3)
Ru2 Ru 0.64415(7) 1.24875(5) 0.50453(4)
Ru3 Ru 0.39780(7) 0.72828(5) 0.00052(3)
Ru4 Ru -0.02878(7) 0.77436(5) 0.17540(4)
C1 C 0.7839(9) 1.1928(6) 0.3405(4)
H1 H 0.7561 1.1562 0.3031
C2 C 0.7063(9) 1.1893(6) 0.3807(5)
H2 H 0.6295 1.1497 0.3695
C3 C 0.8529(9) 1.2957(6) 0.4487(4)
C4 C 0.9302(9) 1.3000(6) 0.4088(4)
C5 C 1.2360(9) 1.4109(6) 0.4005(5)
H3 H 1.2877 1.4137 0.3734
C6 C 1.2774(10) 1.4615(6) 0.4589(5)
H4 H 1.3582 1.4950 0.4695
C7 C 1.0949(9) 1.4108(6) 0.4836(4)
C8 C 1.0520(9) 1.3579(6) 0.4261(4)
C9 C 0.8533(9) 1.3905(6) 0.5994(4)
H5 H 0.8007 1.3892 0.6259
C10 C 0.9732(9) 1.4437(6) 0.6189(5)
H6 H 0.9982 1.4734 0.6585
C11 C 1.0106(9) 1.4048(6) 0.5263(4)
C12 C 0.8940(9) 1.3505(7) 0.5082(4)
C13 C 1.1071(9) 1.1749(7) 0.3391(4)
C14 C 0.9363(9) 1.1775(6) 0.2346(4)
C15 C 1.1713(9) 1.3048(6) 0.2620(4)
C16 C 0.9531(9) 1.3571(6) 0.2646(4)
C17 C 0.7161(10) 1.1573(7) 0.5415(5)
C18 C 0.5657(9) 1.2610(6) 0.5750(4)
C19 C 0.4997(11) 1.1538(7) 0.4577(5)
C20 C 0.5610(9) 1.3357(6) 0.4658(4)
C21 C 0.1949(9) 0.5803(6) -0.0906(4)
H7 H 0.2526 0.5729 -0.1133
C22 C 0.0717(9) 0.5293(6) -0.1106(4)
H8 H 0.0507 0.4907 -0.1471
C23 C 0.0196(8) 0.5947(6) -0.0285(4)
C24 C 0.1381(9) 0.6447(6) -0.0089(4)
C25 C -0.2704(10) 0.5804(6) 0.0195(4)
H9 H -0.3535 0.5534 0.0059
C26 C -0.2320(9) 0.6372(6) 0.0745(4)
H10 H -0.2894 0.6442 0.0973
C27 C -0.0369(9) 0.6673(6) 0.0602(4)
C28 C -0.0726(9) 0.6074(6) 0.0067(4)
C29 C 0.2366(9) 0.8239(6) 0.1496(4)
H11 H 0.2621 0.8633 0.1858
C30 C 0.3218(9) 0.8151(6) 0.1144(4)
H12 H 0.4012 0.8508 0.1272
C31 C 0.1746(8) 0.7088(6) 0.0462(4)
C32 C 0.0899(9) 0.7188(6) 0.0806(4)
C33 C 0.4546(9) 0.6408(6) 0.0498(4)
C34 C 0.5437(9) 0.8231(6) 0.0421(4)
C35 C 0.4823(9) 0.6911(6) -0.0628(4)
C36 C 0.3419(9) 0.8165(6) -0.0476(4)
C37 C 0.0218(9) 0.6803(7) 0.2233(5)
C38 C 0.0660(10) 0.8585(7) 0.2470(4)
C39 C -0.1837(10) 0.7614(7) 0.2076(5)
C40 C -0.0710(9) 0.8778(7) 0.1384(4)
N1 N 0.8957(7) 1.2460(5) 0.3531(3)
N2 N 0.7375(7) 1.2400(5) 0.4341(3)
N3 N 1.1215(7) 1.3583(5) 0.3841(3)
N4 N 1.2087(7) 1.4651(5) 0.5003(4)
N5 N 0.8110(7) 1.3417(5) 0.5444(3)
N6 N 1.0549(8) 1.4538(5) 0.5823(4)
N7 N 1.1464(8) 1.1206(5) 0.3575(4)
N8 N 0.8757(7) 1.1236(5) 0.1944(4)
N9 N 1.2478(8) 1.3300(5) 0.2397(3)
N10 N 0.9036(8) 1.4010(6) 0.2388(4)
N11 N 0.7531(8) 1.1029(6) 0.5623(4)
N12 N 0.5233(9) 1.2676(6) 0.6178(4)
N13 N 0.4210(8) 1.1003(5) 0.4281(4)
N14 N 0.5069(8) 1.3773(6) 0.4383(4)
N15 N 0.2280(7) 0.6384(5) -0.0397(3)
N16 N -0.0158(7) 0.5339(5) -0.0798(3)
N17 N -0.1927(7) 0.5625(5) -0.0153(4)
N18 N -0.1159(7) 0.6817(5) 0.0954(3)
N19 N 0.1186(7) 0.7772(5) 0.1328(3)
N20 N 0.2942(7) 0.7575(5) 0.0632(3)
N21 N 0.4875(7) 0.5923(5) 0.0796(4)
N22 N 0.6233(8) 0.8819(5) 0.0665(3)
N23 N 0.5336(7) 0.6694(5) -0.0989(3)
N24 N 0.3087(8) 0.8677(5) -0.0735(4)
N25 N 0.0629(9) 0.6346(6) 0.2515(4)
N26 N 0.1296(8) 0.9088(5) 0.2889(4)
N27 N -0.2764(8) 0.7565(6) 0.2226(4)
N28 N -0.0968(8) 0.9377(5) 0.1221(4)
N29 N 0.8763(8) 1.0590(6) 0.0206(4)
O12 O 0.7275(6) 0.9453(4) 0.1972(3)
H13 H 0.7514 0.8983 0.1950
H14 H 0.7799 0.9801 0.2269
O14 O 0.5851(7) 1.0435(4) 0.1515(3)
H15 H 0.5183 1.0109 0.1549
H16 H 0.5619 1.0812 0.1314
O24 O 0.4598(6) 0.5009(4) -0.1709(3)
H17 H 0.4163 0.4633 -0.2012
H18 H 0.4924 0.4733 -0.1460
O25 O 0.4481(6) 0.6323(4) -0.2486(3)
H19 H 0.4162 0.6662 -0.2301
H20 H 0.3928 0.5946 -0.2729
O26 O 0.5819(6) 0.5051(4) -0.2640(3)
H21 H 0.6483 0.5074 -0.2761
H22 H 0.5533 0.4515 -0.2639
O27 O 0.6286(7) 0.7728(4) -0.1816(3)
H23 H 0.6151 0.7881 -0.1471
H24 H 0.7022 0.7986 -0.1795
O28 O 0.7063(6) 0.5147(4) -0.1471(3)
H25 H 0.7141 0.4702 -0.1684
H26 H 0.7701 0.5381 -0.1217
O29 O 0.7866(6) 0.6885(4) -0.1094(3)
H27 H 0.7896 0.7273 -0.0800
H28 H 0.8592 0.6968 -0.1147
O30 O 0.2087(7) 1.0673(5) 0.4721(3)
H29 H 0.2323 1.1213 0.4869
H30 H 0.1548 1.0477 0.4924
O31 O 0.0282(6) 0.9503(5) 0.3838(3)
H31 H -0.0109 0.9743 0.4063
H32 H -0.0033 0.8953 0.3782
O32 O 0.3819(6) 0.9311(4) 0.3496(3)
H33 H 0.4485 0.9418 0.3758
H34 H 0.4101 0.9412 0.3186
O33 O 0.3124(7) 1.0670(4) 0.2953(3)
H35 H 0.3558 1.1197 0.3038
H36 H 0.3575 1.0396 0.2794
O34 O 0.9223(6) 1.0977(4) 0.0738(3)
O35 O 0.7784(6) 0.9971(4) 0.0136(3)
O36 O 0.9191(7) 1.0793(5) -0.0224(3)
Yb1A Yb 0.24688(4) 0.98329(3) -0.115698(18)
Yb1_2 Yb -0.24688(4) 1.01671(3) 0.115698(18)
Yb2A Yb 1.38893(4) 1.38273(3) 0.180539(19)
Yb3_2 Yb 1.23528(4) 1.00557(3) 0.376366(19)
Yb3A Yb 0.76472(4) 0.99443(3) 0.623634(19)
N7_2 N 0.1464(8) 1.1206(5) 0.3575(4)
N9A N 0.7522(8) 0.6700(5) -0.2397(3)
N11A N 0.2469(8) 0.8971(6) 0.4377(4)
N24A N 0.6913(8) 1.1323(5) 0.0735(4)
N28_2 N 0.9032(8) 0.9377(5) 0.1221(4)
O1 O 0.0228(6) 0.7152(4) 0.8780(3)
O2 O 0.8036(6) 0.4852(4) 0.7178(3)
O3 O 0.4056(6) 0.1065(4) 0.0866(3)
O4 O 0.1521(7) 0.0927(5) 0.1914(3)
O5 O 0.4569(7) 0.2344(4) 0.3233(3)
O6 O 0.8278(7) 0.8058(4) 0.9944(3)
O7 O 0.085(2) 0.2395(10) 0.6387(7)
O9 O 0.3273(7) 0.7530(5) 0.7872(3)
O10 O 0.4841(7) 0.9700(5) 0.2398(3)
O11 O 0.8074(9) 0.9955(5) 0.3190(4)
O13 O 0.2664(7) 0.2561(5) 0.4985(3)
O15 O 0.2214(7) 0.4679(5) 0.7763(4)
O16 O 0.0175(8) 0.1928(5) 0.5089(4)
O17 O 0.6006(9) 0.9698(6) 0.4327(4)
O18 O 0.1007(8) 0.9718(6) 0.5455(4)
O19 O 0.3284(8) 0.5283(6) 0.6376(3)
O20 O 0.5699(9) 0.3432(5) 0.7910(4)
O21 O 0.6112(8) 0.8477(6) 0.3053(4)
O22 O 0.3186(7) 0.7588(5) 0.2820(3)
O23 O 0.3181(11) 0.3422(7) 0.6205(5)
O8? O 0.024(5) 0.2369(19) 0.6300(14)
loop_
_geom_bond_atom_site_label_1
_geom_bond_atom_site_label_2
_geom_bond_site_symmetry_1
_geom_bond_site_symmetry_2
Yb1 N8 1_555 1_555
Yb2 N23 1_555 1_555
Yb3 N13 1_555 1_555
Ru1 C13 1_555 1_555
Ru2 C17 1_555 1_555
Ru3 C33 1_555 1_555
Ru4 C37 1_555 1_555
C1 H1 1_555 1_555
C2 C1 1_555 1_555
H2 C2 1_555 1_555
C3 C4 1_555 1_555
C4 C8 1_555 1_555
C5 H3 1_555 1_555
C6 C5 1_555 1_555
H4 C6 1_555 1_555
C7 C8 1_555 1_555
C8 N3 1_555 1_555
C9 H5 1_555 1_555
C10 C9 1_555 1_555
H6 C10 1_555 1_555
C11 C7 1_555 1_555
C12 C3 1_555 1_555
C13 N7 1_555 1_555
C14 Ru1 1_555 1_555
C15 Ru1 1_555 1_555
C16 Ru1 1_555 1_555
C17 N11 1_555 1_555
C18 Ru2 1_555 1_555
C19 Ru2 1_555 1_555
C20 Ru2 1_555 1_555
C21 H7 1_555 1_555
C22 C21 1_555 1_555
H8 C22 1_555 1_555
C23 C24 1_555 1_555
C24 C31 1_555 1_555
C25 H9 1_555 1_555
C26 C25 1_555 1_555
H10 C26 1_555 1_555
C27 C28 1_555 1_555
C28 C23 1_555 1_555
C29 H11 1_555 1_555
C30 C29 1_555 1_555
H12 C30 1_555 1_555
C31 C32 1_555 1_555
C32 C27 1_555 1_555
C33 N21 1_555 1_555
C34 Ru3 1_555 1_555
C35 Ru3 1_555 1_555
C36 Ru3 1_555 1_555
C37 N25 1_555 1_555
C38 Ru4 1_555 1_555
C39 Ru4 1_555 1_555
C40 Ru4 1_555 1_555
N1 Ru1 1_555 1_555
N2 Ru2 1_555 1_555
N3 Ru1 1_555 1_555
N4 C6 1_555 1_555
N5 Ru2 1_555 1_555
N6 C10 1_555 1_555
N7 Yb3_2 1_555 1_555
N8 C14 1_555 1_555
N9 C15 1_555 1_555
N10 C16 1_555 1_555
N11 Yb3A 1_555 1_555
N12 C18 1_555 1_555
N13 C19 1_555 1_555
N14 C20 1_555 1_555
N15 Ru3 1_555 1_555
N16 C22 1_555 1_555
N17 C25 1_555 1_555
N18 Ru4 1_555 1_555
N19 Ru4 1_555 1_555
N20 Ru3 1_555 1_555
N22 Yb1 1_555 1_555
N23 C35 1_555 1_555
N24 C36 1_555 1_555
N26 Yb3 1_555 1_555
N27 C39 1_555 1_555
N28 C40 1_555 1_555
N29 O34 1_555 1_555
O12 Yb1 1_555 1_555
H13 O12 1_555 1_555
H14 O12 1_555 1_555
O14 Yb1 1_555 1_555
H15 O14 1_555 1_555
H16 O14 1_555 1_555
O24 Yb2 1_555 1_555
H17 O24 1_555 1_555
H18 O24 1_555 1_555
O25 Yb2 1_555 1_555
H19 O25 1_555 1_555
H20 O25 1_555 1_555
O26 Yb2 1_555 1_555
H21 O26 1_555 1_555
H22 O26 1_555 1_555
O27 Yb2 1_555 1_555
H23 O27 1_555 1_555
H24 O27 1_555 1_555
O28 Yb2 1_555 1_555
H25 O28 1_555 1_555
H26 O28 1_555 1_555
O29 Yb2 1_555 1_555
H27 O29 1_555 1_555
H28 O29 1_555 1_555
O30 Yb3 1_555 1_555
H29 O30 1_555 1_555
H30 O30 1_555 1_555
O31 Yb3 1_555 1_555
H31 O31 1_555 1_555
H32 O31 1_555 1_555
O32 Yb3 1_555 1_555
H33 O32 1_555 1_555
H34 O32 1_555 1_555
O33 Yb3 1_555 1_555
H35 O33 1_555 1_555
H36 O33 1_555 1_555
O34 Yb1 1_555 1_555
O35 Yb1 1_555 1_555
O36 N29 1_555 1_555
Yb1A N24 1_555 1_555
Yb1_2 N28 1_555 1_555
Yb2A N9 1_555 1_555
N7_2 Yb3 1_555 1_555
N9A Yb2 1_555 1_555
N11A Yb3 1_555 1_555
N24A Yb1 1_555 1_555
N28_2 Yb1 1_555 1_555
C1 N1 1_555 1_555
C2 N2 1_555 1_555
C3 N2 1_555 1_555
C4 N1 1_555 1_555
C5 N3 1_555 1_555
C7 N4 1_555 1_555
C9 N5 1_555 1_555
C11 C12 1_555 1_555
C11 N6 1_555 1_555
C12 N5 1_555 1_555
C21 N15 1_555 1_555
C23 N16 1_555 1_555
C24 N15 1_555 1_555
C26 N18 1_555 1_555
C27 N18 1_555 1_555
C28 N17 1_555 1_555
C29 N19 1_555 1_555
C30 N20 1_555 1_555
C31 N20 1_555 1_555
C32 N19 1_555 1_555
C34 N22 1_555 1_555
C38 N26 1_555 1_555
N29 O35 1_555 1_555

#END
