
#######################################################################
#
#                 Cambridge Crystallographic Data Centre
#                                CCDC 
#
#######################################################################
#
# If this CIF has been generated from an entry in the Cambridge 
# Structural Database, then it will include bibliographic, chemical, 
# crystal, experimental, refinement or atomic coordinate data resulting 
# from the CCDC's data processing and validation procedures.
#
#######################################################################

data_JIQTOT
_symmetry_cell_setting           triclinic
_symmetry_space_group_name_H-M   'P -1'
_symmetry_Int_Tables_number      2
_space_group_name_Hall           '-P 1'
loop_
_symmetry_equiv_pos_site_id
_symmetry_equiv_pos_as_xyz
1 x,y,z
2 -x,-y,-z
_cell_length_a                   10.680(2)
_cell_length_b                   14.001(3)
_cell_length_c                   14.272(3)
_cell_angle_alpha                76.75(3)
_cell_angle_beta                 79.50(3)
_cell_angle_gamma                76.25(3)
_cell_volume                     1999.25
loop_
_atom_site_label
_atom_site_type_symbol
_atom_site_fract_x
_atom_site_fract_y
_atom_site_fract_z
Yb1 Yb -0.01655(2) 0.263551(17) 0.363762(16)
Yb2 Yb -0.37116(2) -0.174250(16) 0.290080(16)
Ru1 Ru -0.48744(4) 0.21441(3) 0.31583(3)
N1 N -0.4797(4) 0.3682(3) 0.2777(3)
N2 N -0.4079(4) 0.5555(3) 0.2060(3)
N3 N -0.4372(4) 0.2330(3) 0.1636(3)
N4 N -0.3562(5) 0.2846(4) -0.0373(3)
N5 N -0.3046(4) 0.6033(3) 0.0120(3)
N6 N -0.2875(4) 0.4686(4) -0.1120(3)
N7 N -0.1972(4) 0.2016(4) 0.3465(3)
N8 N -0.4570(5) -0.0165(3) 0.3329(3)
N9 N -0.5686(4) 0.2140(3) 0.5392(3)
N10 N 0.2093(4) 0.2389(3) 0.3177(3)
N11 N -0.2418(5) 0.3417(4) 0.4863(4)
N12 N 0.1024(4) 0.3879(4) 0.4468(3)
C1 C -0.4967(5) 0.4355(4) 0.3336(4)
H1 H -0.5349 0.4213 0.3979
C2 C -0.4583(6) 0.5266(4) 0.2979(4)
H2 H -0.4684 0.5700 0.3406
C3 C -0.3955(5) 0.4896(4) 0.1477(4)
C4 C -0.4289(5) 0.3960(4) 0.1839(4)
C5 C -0.4221(5) 0.1687(4) 0.1051(4)
H3 H -0.4361 0.1043 0.1312
C6 C -0.3855(6) 0.1958(4) 0.0049(4)
H4 H -0.3815 0.1499 -0.0340
C7 C -0.3678(5) 0.3491(4) 0.0219(4)
C8 C -0.4110(5) 0.3255(4) 0.1208(4)
C9 C -0.2575(6) 0.6216(4) -0.0811(4)
H5 H -0.2279 0.6808 -0.1063
C10 C -0.2502(5) 0.5566(4) -0.1432(4)
H6 H -0.2184 0.5748 -0.2085
C11 C -0.3321(5) 0.4471(4) -0.0165(4)
C12 C -0.3424(5) 0.5143(4) 0.0447(4)
C13 C -0.2994(5) 0.1983(4) 0.3342(4)
C14 C -0.4701(5) 0.0681(4) 0.3326(4)
C15 C -0.5374(5) 0.2127(4) 0.4572(4)
C16 C 0.3202(5) 0.2310(4) 0.3119(4)
O1 O -0.0495(4) 0.3777(3) 0.2233(3)
H7 H -0.0625 0.3697 0.1695
H8 H -0.0443 0.4400 0.2112
O2 O 0.0408(4) 0.1619(3) 0.2449(3)
H9 H 0.1191 0.1427 0.2210
H10 H -0.0017 0.1745 0.1970
O3 O 0.0466(4) 0.1116(3) 0.4594(3)
H11 H 0.0195 0.0843 0.5159
H12 H 0.1184 0.0727 0.4427
O4 O -0.1902(5) -0.1631(4) 0.3503(4)
H13 H -0.1794 -0.1911 0.4092
H14 H -0.1385 -0.1226 0.3338
O5 O -0.2675(4) -0.3405(3) 0.3405(3)
H15 H -0.2077 -0.3558 0.2964
H16 H -0.2336 -0.3586 0.3927
O6 O -0.2388(5) -0.0875(4) 0.1661(3)
H17 H -0.1652 -0.1205 0.1786
H18 H -0.2351 -0.0721 0.1057
O7 O -0.3260(4) -0.2595(3) 0.1618(3)
H19 H -0.3588 -0.3091 0.1636
H20 H -0.2995 -0.2394 0.1035
O8 O -0.5046(4) -0.0807(3) 0.1728(3)
H21 H -0.5607 -0.0321 0.1923
H22 H -0.4875 -0.0597 0.1121
O9 O -0.5602(4) -0.2326(3) 0.3166(3)
H23 H -0.5823 -0.2702 0.3691
H24 H -0.6100 -0.2348 0.2776
O10 O -0.1744(4) 0.2576(3) 0.5183(3)
O11 O -0.1982(4) 0.3914(3) 0.4058(3)
O12 O -0.3482(4) 0.3761(4) 0.5304(3)
O13 O 0.0738(4) 0.3058(3) 0.4951(3)
O14 O 0.0623(4) 0.4200(3) 0.3653(3)
O15 O 0.1656(4) 0.4344(3) 0.4774(3)
Yb2A Yb -0.62884(2) 0.174250(16) 0.709920(16)
Ru1_2 Ru 0.51256(4) 0.21441(3) 0.31583(3)
N9A N -0.4314(4) -0.2140(3) 0.4608(3)
C16_2 C -0.6798(5) 0.2310(4) 0.3119(4)
N13 N 0.0536(5) 0.7174(4) -0.0171(4)
O16 O 0.0352(5) 0.6392(4) -0.0358(3)
O17 O 0.0328(5) 0.7309(4) 0.0680(3)
O18 O 0.0952(4) 0.7824(4) -0.0841(3)
N14 N 0.2871(4) 0.1045(4) 0.0659(3)
O19 O 0.2129(4) 0.1788(3) 0.0282(3)
O20 O 0.3636(5) 0.0486(3) 0.0144(3)
O21 O 0.2870(4) 0.0822(3) 0.1560(3)
O22 O 0.0102(9) 0.9224(6) 0.0867(6)
O23 O -0.0554(4) 0.5783(3) 0.2175(3)
O25 O 0.1017(8) 0.6219(6) 0.3405(6)
O26 O 0.0127(12) 0.9461(8) 0.3414(8)
O27 O 0.1477(12) 0.9253(9) 0.2169(9)
O28 O 0.2695(7) 0.7341(5) 0.2254(5)
O29 O 0.2580(9) 0.9629(6) 0.4143(7)
O24? O 0.2753(17) 0.9878(13) 0.4797(13)
O30? O -0.1725(10) 0.3697(7) -0.2703(7)
O31? O -0.0561(12) 0.9681(8) 0.3489(8)
O32? O 0.1988(10) 0.8319(8) 0.2316(7)
loop_
_geom_bond_atom_site_label_1
_geom_bond_atom_site_label_2
_geom_bond_site_symmetry_1
_geom_bond_site_symmetry_2
Yb1 N7 1_555 1_555
Yb2 N8 1_555 1_555
Ru1 N1 1_555 1_555
N1 C1 1_555 1_555
N2 C2 1_555 1_555
N3 Ru1 1_555 1_555
N4 C6 1_555 1_555
N5 C9 1_555 1_555
N6 C10 1_555 1_555
N7 C13 1_555 1_555
N8 C14 1_555 1_555
N9 C15 1_555 1_555
N10 Yb1 1_555 1_555
N11 O10 1_555 1_555
N12 O13 1_555 1_555
N13 O16 1_555 1_555
N14 O19 1_555 1_555
C1 H1 1_555 1_555
C2 C1 1_555 1_555
H2 C2 1_555 1_555
C3 N2 1_555 1_555
C4 N1 1_555 1_555
C5 N3 1_555 1_555
H3 C5 1_555 1_555
C6 C5 1_555 1_555
H4 C6 1_555 1_555
C7 N4 1_555 1_555
C8 N3 1_555 1_555
C9 H5 1_555 1_555
C10 C9 1_555 1_555
H6 C10 1_555 1_555
C11 N6 1_555 1_555
C12 N5 1_555 1_555
C13 Ru1 1_555 1_555
C14 Ru1 1_555 1_555
C15 Ru1 1_555 1_555
C16 N10 1_555 1_555
O1 Yb1 1_555 1_555
H7 O1 1_555 1_555
H8 O1 1_555 1_555
O2 Yb1 1_555 1_555
H9 O2 1_555 1_555
H10 O2 1_555 1_555
O3 Yb1 1_555 1_555
H11 O3 1_555 1_555
H12 O3 1_555 1_555
O4 Yb2 1_555 1_555
H13 O4 1_555 1_555
H14 O4 1_555 1_555
O5 Yb2 1_555 1_555
H15 O5 1_555 1_555
H16 O5 1_555 1_555
O6 Yb2 1_555 1_555
H17 O6 1_555 1_555
H18 O6 1_555 1_555
O7 Yb2 1_555 1_555
H19 O7 1_555 1_555
H20 O7 1_555 1_555
O8 Yb2 1_555 1_555
H21 O8 1_555 1_555
H22 O8 1_555 1_555
O9 Yb2 1_555 1_555
H23 O9 1_555 1_555
H24 O9 1_555 1_555
O10 Yb1 1_555 1_555
O11 Yb1 1_555 1_555
O12 N11 1_555 1_555
O13 Yb1 1_555 1_555
O14 Yb1 1_555 1_555
O15 N12 1_555 1_555
O17 N13 1_555 1_555
O18 N13 1_555 1_555
O20 N14 1_555 1_555
O21 N14 1_555 1_555
Yb2A N9 1_555 1_555
Ru1_2 C16 1_555 1_555
N9A Yb2 1_555 1_555
C16_2 Ru1 1_555 1_555
N11 O11 1_555 1_555
N12 O14 1_555 1_555
C3 C4 1_555 1_555
C3 C12 1_555 1_555
C4 C8 1_555 1_555
C7 C8 1_555 1_555
C7 C11 1_555 1_555
C11 C12 1_555 1_555

#END
