
#######################################################################
#
#                 Cambridge Crystallographic Data Centre
#                                CCDC 
#
#######################################################################
#
# If this CIF has been generated from an entry in the Cambridge 
# Structural Database, then it will include bibliographic, chemical, 
# crystal, experimental, refinement or atomic coordinate data resulting 
# from the CCDC's data processing and validation procedures.
#
#######################################################################

data_JIQTIN
_symmetry_cell_setting           monoclinic
_symmetry_space_group_name_H-M   'C 2/c'
_symmetry_Int_Tables_number      15
_space_group_name_Hall           '-C 2yn'
loop_
_symmetry_equiv_pos_site_id
_symmetry_equiv_pos_as_xyz
1 x,y,z
2 1/2+x,1/2+y,z
3 -x,y,1/2-z
4 1/2-x,1/2+y,1/2-z
5 -x,-y,-z
6 1/2-x,1/2-y,-z
7 x,-y,1/2+z
8 1/2+x,1/2-y,1/2+z
_cell_length_a                   33.916(7)
_cell_length_b                   13.304(3)
_cell_length_c                   19.723(4)
_cell_angle_alpha                90
_cell_angle_beta                 124.70(3)
_cell_angle_gamma                90
_cell_volume                     7316.57
loop_
_atom_site_label
_atom_site_type_symbol
_atom_site_fract_x
_atom_site_fract_y
_atom_site_fract_z
Nd1 Nd 0.368971(19) 0.16138(4) 0.76760(3)
Ru1 Ru 0.17611(3) 0.18900(6) 0.64711(5)
Ru2 Ru 0.5000 -0.03899(8) 0.7500
C1 C 0.4083(4) 0.5880(7) 0.8779(6)
C2 C 0.4251(4) 0.7561(7) 0.8955(6)
H1 H 0.4132 0.8232 0.8898
C3 C 0.4699(3) 0.7360(8) 0.9126(6)
H2 H 0.4933 0.7888 0.9357
C4 C 0.4538(3) 0.5691(7) 0.8957(6)
C5 C 0.4668(3) 0.4641(7) 0.8955(6)
C6 C 0.5231(4) 0.3491(8) 0.9192(6)
H3 H 0.5557 0.3377 0.9378
C7 C 0.4889(3) 0.2731(8) 0.8907(6)
H4 H 0.4980 0.2063 0.8884
C8 C 0.4334(3) 0.3894(7) 0.8710(5)
C9 C 0.3857(3) 0.4104(7) 0.8503(6)
C10 C 0.3125(3) 0.3596(7) 0.8144(6)
H5 H 0.2853 0.3155 0.7859
C11 C 0.3024(3) 0.4581(7) 0.8248(6)
H6 H 0.2724 0.4711 0.8167
C12 C 0.3752(3) 0.5074(7) 0.8585(6)
C13 C 0.1491(4) 0.1877(7) 0.5239(7)
C14 C 0.2419(4) 0.1796(7) 0.6723(6)
C15 C 0.1782(4) 0.3360(8) 0.6418(6)
C16 C 0.2086(4) 0.1964(8) 0.7709(7)
C17 C 0.4749(3) -0.2517(7) 0.7371(6)
C18 C 0.4505(3) -0.3429(7) 0.7232(6)
C19 C 0.3854(4) -0.2535(7) 0.6904(6)
H7 H 0.3522 -0.2450 0.6693
C20 C 0.4089(3) -0.1627(8) 0.7039(6)
H8 H 0.3944 -0.0974 0.6929
C21 C 0.4766(3) -0.4363(7) 0.7367(6)
C22 C 0.4749(4) -0.6079(8) 0.7337(6)
H9 H 0.4622 -0.6692 0.7397
C23 C 0.4550(3) 0.0674(7) 0.7362(6)
C24 C 0.4768(3) -0.0345(7) 0.6289(7)
N1 N 0.3934(3) 0.6834(6) 0.8782(5)
N2 N 0.4853(3) 0.6440(6) 0.9139(5)
N3 N 0.5123(3) 0.4452(6) 0.9205(5)
N4 N 0.4434(3) 0.2905(6) 0.8661(5)
N5 N 0.3538(3) 0.3343(6) 0.8256(5)
N6 N 0.3324(3) 0.5340(6) 0.8454(5)
N7 N 0.1357(4) 0.1876(9) 0.4556(6)
N8 N 0.2800(3) 0.1785(6) 0.6895(5)
N9 N 0.1787(3) 0.4236(6) 0.6384(5)
N10 N 0.2282(3) 0.1993(8) 0.8411(6)
N11 N 0.4547(3) -0.1625(6) 0.7273(5)
N12 N 0.4511(3) -0.5247(6) 0.7197(5)
N13 N 0.4046(3) -0.3425(6) 0.7007(5)
N14 N 0.4306(3) 0.1257(6) 0.7385(5)
N15 N 0.4662(3) -0.0301(7) 0.5610(6)
O1 O 0.3530(3) 0.1275(5) 0.8730(4)
H10 H 0.3651 0.1569 0.9190
H11 H 0.3340 0.0820 0.8682
O2 O 0.4375(2) 0.0634(5) 0.8909(4)
H12 H 0.4642 0.0479 0.8989
H13 H 0.4445 0.0739 0.9393
O3 O 0.3445(2) -0.0172(5) 0.7473(4)
H14 H 0.3394 -0.0425 0.7812
H15 H 0.3213 -0.0426 0.7026
O4 O 0.3315(3) 0.1051(5) 0.6228(4)
H16 H 0.3053 0.1327 0.5855
H17 H 0.3417 0.0806 0.5957
O5 O 0.3644(2) 0.3071(5) 0.6883(4)
H18 H 0.3680 0.3012 0.6493
H19 H 0.3557 0.3681 0.6831
Nd1B Nd 0.631029(19) 0.16138(4) 0.73240(3)
Ru1B Ru 0.82389(3) 0.18900(6) 0.85289(5)
Ru1C Ru 0.32389(3) 0.68900(6) 0.85289(5)
Ru1A Ru 0.67611(3) 0.68900(6) 0.64711(5)
C1B C 0.5917(4) 0.5880(7) 0.6221(6)
C2B C 0.5749(4) 0.7561(7) 0.6045(6)
H1B H 0.5868 0.8232 0.6102
C3B C 0.5301(3) 0.7360(8) 0.5874(6)
H2B H 0.5067 0.7888 0.5643
C4B C 0.5462(3) 0.5691(7) 0.6043(6)
C5B C 0.5332(3) 0.4641(7) 0.6045(6)
C6B C 0.4769(4) 0.3491(8) 0.5808(6)
H3B H 0.4443 0.3377 0.5622
C7B C 0.5111(3) 0.2731(8) 0.6093(6)
H4B H 0.5020 0.2063 0.6116
C8B C 0.5666(3) 0.3894(7) 0.6290(5)
C9B C 0.6143(3) 0.4104(7) 0.6497(6)
C10B C 0.6875(3) 0.3596(7) 0.6856(6)
H5B H 0.7147 0.3155 0.7141
C11B C 0.6976(3) 0.4581(7) 0.6752(6)
H6B H 0.7276 0.4711 0.6833
C12B C 0.6248(3) 0.5074(7) 0.6415(6)
C13B C 0.8509(4) 0.1877(7) 0.9761(7)
C14B C 0.7581(4) 0.1796(7) 0.8277(6)
C15B C 0.8218(4) 0.3360(8) 0.8582(6)
C16B C 0.7914(4) 0.1964(8) 0.7291(7)
C17B C 0.5251(3) -0.2517(7) 0.7629(6)
C18B C 0.5495(3) -0.3429(7) 0.7768(6)
C19B C 0.6146(4) -0.2535(7) 0.8096(6)
H7B H 0.6478 -0.2450 0.8307
C20B C 0.5911(3) -0.1627(8) 0.7961(6)
H8B H 0.6056 -0.0974 0.8071
C21B C 0.5234(3) -0.4363(7) 0.7633(6)
C22B C 0.5251(4) -0.6079(8) 0.7663(6)
H9B H 0.5378 -0.6692 0.7603
C23B C 0.5450(3) 0.0674(7) 0.7638(6)
C24B C 0.5232(3) -0.0345(7) 0.8711(7)
N1B N 0.6066(3) 0.6834(6) 0.6218(5)
N1C N 0.1066(3) 0.1834(6) 0.6218(5)
N1A N 0.8934(3) 0.1834(6) 0.8782(5)
N2B N 0.5147(3) 0.6440(6) 0.5861(5)
N3B N 0.4877(3) 0.4452(6) 0.5795(5)
N4B N 0.5566(3) 0.2905(6) 0.6339(5)
N5B N 0.6462(3) 0.3343(6) 0.6744(5)
N6B N 0.6676(3) 0.5340(6) 0.6546(5)
N6C N 0.1676(3) 0.0340(6) 0.6546(5)
N6A N 0.8324(3) 0.0340(6) 0.8454(5)
N7B N 0.8643(4) 0.1876(9) 1.0444(6)
N8B N 0.7200(3) 0.1785(6) 0.8105(5)
N9B N 0.8213(3) 0.4236(6) 0.8616(5)
N10B N 0.7718(3) 0.1993(8) 0.6589(6)
N11B N 0.5453(3) -0.1625(6) 0.7727(5)
N12B N 0.5489(3) -0.5247(6) 0.7803(5)
N13B N 0.5954(3) -0.3425(6) 0.7993(5)
N14B N 0.5694(3) 0.1257(6) 0.7615(5)
N15B N 0.5338(3) -0.0301(7) 0.9390(6)
O1B O 0.6470(3) 0.1275(5) 0.6270(4)
H10B H 0.6349 0.1569 0.5810
H11B H 0.6660 0.0820 0.6318
O2B O 0.5625(2) 0.0634(5) 0.6091(4)
H12B H 0.5358 0.0479 0.6011
H13B H 0.5555 0.0739 0.5607
O3B O 0.6555(2) -0.0172(5) 0.7527(4)
H14B H 0.6606 -0.0425 0.7188
H15B H 0.6787 -0.0426 0.7974
O4B O 0.6685(3) 0.1051(5) 0.8772(4)
H16B H 0.6947 0.1327 0.9145
H17B H 0.6583 0.0806 0.9043
O5B O 0.6356(2) 0.3071(5) 0.8117(4)
H18B H 0.6320 0.3012 0.8507
H19B H 0.6443 0.3681 0.8169
O6 O 0.2695(3) 0.9004(6) 0.6022(5)
O7 O 0.3013(3) 0.8599(6) 0.5044(5)
O8 O 0.3643(3) 0.9745(6) 0.0334(5)
O9 O 0.2474(7) 0.4608(15) 0.5972(12)
O12 O 0.2555(8) 0.3128(19) 0.5037(14)
O13 O 0.3379(3) 0.5007(6) 0.6728(6)
O14 O 0.3828(4) 0.7792(8) 0.5152(6)
O15 O 0.4030(3) 0.5785(9) 0.5255(6)
O16 O 0.3228(6) 0.5263(12) 0.5149(10)
O10? O 0.2415(16) 0.372(3) 0.547(3)
O11? O 0.2638(11) 0.385(3) 0.503(2)
loop_
_geom_bond_atom_site_label_1
_geom_bond_atom_site_label_2
_geom_bond_site_symmetry_1
_geom_bond_site_symmetry_2
Nd1 N4 1_555 1_555
Ru1 C13 1_555 1_555
Ru2 C23 1_555 1_555
C1 C4 1_555 1_555
C2 H1 1_555 1_555
C3 C2 1_555 1_555
H2 C3 1_555 1_555
C4 C5 1_555 1_555
C5 C8 1_555 1_555
C6 H3 1_555 1_555
C7 C6 1_555 1_555
H4 C7 1_555 1_555
C8 C9 1_555 1_555
C9 C12 1_555 1_555
C10 H5 1_555 1_555
C11 C10 1_555 1_555
H6 C11 1_555 1_555
C12 C1 1_555 1_555
C13 N7 1_555 1_555
C14 Ru1 1_555 1_555
C15 Ru1 1_555 1_555
C16 Ru1 1_555 1_555
C17 C18 1_555 1_555
C18 C21 1_555 1_555
C19 H7 1_555 1_555
C20 C19 1_555 1_555
H8 C20 1_555 1_555
C21 N12 1_555 1_555
C22 H9 1_555 1_555
C23 N14 1_555 1_555
C24 Ru2 1_555 1_555
N1 C1 1_555 1_555
N2 C3 1_555 1_555
N3 C5 1_555 1_555
N4 C7 1_555 1_555
N5 Nd1 1_555 1_555
N6 C11 1_555 1_555
N8 Nd1 1_555 1_555
N9 C15 1_555 1_555
N10 C16 1_555 1_555
N11 Ru2 1_555 1_555
N12 C22 1_555 1_555
N13 C18 1_555 1_555
N14 Nd1 1_555 1_555
N15 C24 1_555 1_555
O1 Nd1 1_555 1_555
H10 O1 1_555 1_555
H11 O1 1_555 1_555
O2 Nd1 1_555 1_555
H12 O2 1_555 1_555
H13 O2 1_555 1_555
O3 Nd1 1_555 1_555
H14 O3 1_555 1_555
H15 O3 1_555 1_555
O4 Nd1 1_555 1_555
H16 O4 1_555 1_555
H17 O4 1_555 1_555
O5 Nd1 1_555 1_555
H18 O5 1_555 1_555
H19 O5 1_555 1_555
Nd1B N4B 1_555 1_555
Ru1B C13B 1_555 1_555
Ru1C N1 1_555 1_555
Ru1A N1B 1_555 1_555
C1B C4B 1_555 1_555
C2B H1B 1_555 1_555
C3B C2B 1_555 1_555
H2B C3B 1_555 1_555
C4B C5B 1_555 1_555
C5B C8B 1_555 1_555
C6B H3B 1_555 1_555
C7B C6B 1_555 1_555
H4B C7B 1_555 1_555
C8B C9B 1_555 1_555
C9B C12B 1_555 1_555
C10B H5B 1_555 1_555
C11B C10B 1_555 1_555
H6B C11B 1_555 1_555
C12B C1B 1_555 1_555
C13B N7B 1_555 1_555
C14B Ru1B 1_555 1_555
C15B Ru1B 1_555 1_555
C16B Ru1B 1_555 1_555
C17B C17 1_555 1_555
C18B C17B 1_555 1_555
C19B H7B 1_555 1_555
C20B C19B 1_555 1_555
H8B C20B 1_555 1_555
C21B C21 1_555 1_555
C22B C22 1_555 1_555
H9B C22B 1_555 1_555
C23B Ru2 1_555 1_555
C24B Ru2 1_555 1_555
N1B C1B 1_555 1_555
N1C Ru1 1_555 1_555
N1A Ru1B 1_555 1_555
N2B C3B 1_555 1_555
N3B C5B 1_555 1_555
N4B C7B 1_555 1_555
N5B Nd1B 1_555 1_555
N6B Ru1A 1_555 1_555
N6C Ru1 1_555 1_555
N6A Ru1B 1_555 1_555
N8B Nd1B 1_555 1_555
N9B C15B 1_555 1_555
N10B C16B 1_555 1_555
N11B Ru2 1_555 1_555
N12B C21B 1_555 1_555
N13B C18B 1_555 1_555
N14B Nd1B 1_555 1_555
N15B C24B 1_555 1_555
O1B Nd1B 1_555 1_555
H10B O1B 1_555 1_555
H11B O1B 1_555 1_555
O2B Nd1B 1_555 1_555
H12B O2B 1_555 1_555
H13B O2B 1_555 1_555
O3B Nd1B 1_555 1_555
H14B O3B 1_555 1_555
H15B O3B 1_555 1_555
O4B Nd1B 1_555 1_555
H16B O4B 1_555 1_555
H17B O4B 1_555 1_555
O5B Nd1B 1_555 1_555
H18B O5B 1_555 1_555
H19B O5B 1_555 1_555
C2 N1 1_555 1_555
C4 N2 1_555 1_555
C6 N3 1_555 1_555
C8 N4 1_555 1_555
C9 N5 1_555 1_555
C10 N5 1_555 1_555
C12 N6 1_555 1_555
C14 N8 1_555 1_555
C17 N11 1_555 1_555
C19 N13 1_555 1_555
C20 N11 1_555 1_555
N6 Ru1C 1_555 1_555
C2B N1B 1_555 1_555
C4B N2B 1_555 1_555
C6B N3B 1_555 1_555
C8B N4B 1_555 1_555
C9B N5B 1_555 1_555
C10B N5B 1_555 1_555
C11B N6B 1_555 1_555
C12B N6B 1_555 1_555
C14B N8B 1_555 1_555
C17B N11B 1_555 1_555
C18B C21B 1_555 1_555
C19B N13B 1_555 1_555
C20B N11B 1_555 1_555
C22B N12B 1_555 1_555
C23B N14B 1_555 1_555

#END
