
#######################################################################
#
#                 Cambridge Crystallographic Data Centre
#                                CCDC 
#
#######################################################################
#
# If this CIF has been generated from an entry in the Cambridge 
# Structural Database, then it will include bibliographic, chemical, 
# crystal, experimental, refinement or atomic coordinate data resulting 
# from the CCDC's data processing and validation procedures.
#
#######################################################################

data_JIQXOX
_symmetry_cell_setting           monoclinic
_symmetry_space_group_name_H-M   'P 21/c'
_symmetry_Int_Tables_number      14
_space_group_name_Hall           '-P 2ybc'
loop_
_symmetry_equiv_pos_site_id
_symmetry_equiv_pos_as_xyz
1 x,y,z
2 -x,1/2+y,1/2-z
3 -x,-y,-z
4 x,1/2-y,1/2+z
_cell_length_a                   16.643(2)
_cell_length_b                   10.7665(13)
_cell_length_c                   26.264(3)
_cell_angle_alpha                90
_cell_angle_beta                 101.063(3)
_cell_angle_gamma                90
_cell_volume                     4618.71
loop_
_atom_site_label
_atom_site_type_symbol
_atom_site_fract_x
_atom_site_fract_y
_atom_site_fract_z
Cd1 Cd 0.36048(3) 0.96390(4) 0.768466(16)
O1 O 0.4958(3) 1.0359(4) 0.79725(18)
N1 N 0.2416(3) 0.9569(5) 0.80279(19)
O2 O 0.2851(3) 0.8516(5) 0.69459(18)
N2 N 0.3957(3) 0.7740(5) 0.8073(2)
O3 O 0.4182(3) 1.0775(5) 0.85155(18)
C1 C 0.2289(4) 1.0273(7) 0.8419(3)
H1 H 0.2666 1.0898 0.8534
N3 N 0.4895(4) 1.0731(5) 0.8421(2)
C2 C 0.1642(4) 1.0140(7) 0.8663(3)
H2 H 0.1599 1.0652 0.8941
C3 C 0.1062(4) 0.9272(5) 0.8505(2)
O4 O 0.4089(3) 0.8992(5) 0.6900(2)
N4 N 0.3406(4) 0.8567(6) 0.6678(2)
N5 N 0.0900(3) 0.7675(4) 0.94485(19)
C4 C 0.0518(4) 0.8890(5) 0.9321(3)
H3 H 0.0884 0.9532 0.9488
H4 H 0.0018 0.8935 0.9458
O5 O 0.3270(4) 0.8252(7) 0.6226(2)
O6 O 0.5491(3) 1.1011(6) 0.8740(2)
C5 C 0.0320(4) 0.9135(6) 0.8747(3)
H5 H -0.0012 0.8457 0.8577
H6 H -0.0003 0.9889 0.8685
C6 C 0.4300(4) 0.5444(6) 0.8565(3)
O7 O -0.0258(3) 0.6482(4) 0.9224(2)
O8 O 0.2221(3) 0.8332(4) 0.9787(2)
C7 C 0.1710(4) 0.7507(6) 0.9695(3)
C8 C 0.0465(4) 0.6574(5) 0.9413(3)
C9 C 0.1805(3) 0.6163(5) 0.9825(2)
C10 C 0.1042(3) 0.5608(5) 0.9645(2)
C11 C 0.4210(5) 0.5602(6) 0.8056(3)
H7 H 0.4270 0.4918 0.7850
C12 C 0.4219(8) 0.6526(7) 0.8830(3)
H8 H 0.4254 0.6503 0.9188
C13 C 0.1179(5) 0.8566(8) 0.8101(3)
H9 H 0.0799 0.7954 0.7973
C14 C 0.0925(4) 0.4353(6) 0.9713(3)
H10 H 0.0422 0.3973 0.9594
C15 C 0.4034(5) 0.6729(6) 0.7824(3)
H11 H 0.3965 0.6770 0.7464
C16 C 0.1844(5) 0.8738(9) 0.7879(4)
H12 H 0.1897 0.8228 0.7601
C17 C 0.4089(8) 0.7629(7) 0.8574(3)
H13 H 0.4095 0.8348 0.8771
C18 C 0.4212(4) 0.4049(5) 0.9330(2)
H14 H 0.4476 0.4677 0.9570
H15 H 0.3624 0.4162 0.9286
C19 C 0.4470(5) 0.4204(6) 0.8814(3)
H16 H 0.5053 0.4046 0.8862
H17 H 0.4194 0.3578 0.8578
O9 O 0.5790(2) 0.3239(4) 0.98784(18)
N6 N 0.4430(3) 0.2835(4) 0.95402(18)
C20 C 0.5217(4) 0.2531(5) 0.9788(2)
C21 C 0.5825(3) 0.0418(5) 1.0162(2)
H18 H 0.6359 0.0699 1.0269
C22 C 0.5200(3) 0.1185(5) 0.9924(2)
C23 C 0.4398(3) 0.0786(5) 0.9771(2)
C24 C 0.3897(3) 0.1853(5) 0.9526(2)
C25 C 0.1594(3) 0.3697(5) 0.9965(2)
C26 C 0.1671(4) 0.2362(5) 1.0108(2)
C27 C 0.2352(3) 0.4261(5) 1.0144(2)
C28 C 0.2480(3) 0.5515(6) 1.0075(3)
H19 H 0.2986 0.5893 1.0189
C29 C 0.2925(4) 0.3291(6) 1.0401(2)
N7 N 0.2459(3) 0.2199(4) 1.03798(19)
O10 O 0.1154(3) 0.1549(4) 1.00127(19)
C30 C 0.2794(4) 0.1006(5) 1.0594(2)
H20 H 0.3387 0.1047 1.0663
H21 H 0.2627 0.0356 1.0340
C31 C 0.2501(4) 0.0681(5) 1.1094(3)
H22 H 0.1910 0.0591 1.1020
H23 H 0.2737 -0.0107 1.1224
C32 C 0.2740(3) 0.1672(5) 1.1505(2)
C33 C 0.2204(4) 0.2636(6) 1.1555(2)
H24 H 0.1683 0.2654 1.1350
C34 C 0.3491(4) 0.1706(5) 1.1819(3)
H25 H 0.3863 0.1070 1.1803
C35 C 0.3704(4) 0.2668(6) 1.2160(2)
H26 H 0.4226 0.2674 1.2365
N8 N 0.3193(3) 0.3600(5) 1.2209(2)
C36 C 0.2452(4) 0.3558(6) 1.1909(3)
H27 H 0.2084 0.4188 1.1942
O11 O 0.3168(2) 0.1903(4) 0.93654(16)
O12 O 0.3636(3) 0.3370(4) 1.0580(2)
Cd1C Cd 0.36048(3) 0.53610(4) 0.268466(16)
Cd1C_2 Cd 0.36048(3) 0.53610(4) 1.268466(16)
Cd1B Cd 0.63952(3) -0.96390(4) 1.231534(16)
O1C O 0.4958(3) 0.4641(4) 0.29725(18)
N1C N 0.2416(3) 0.5431(5) 0.30279(19)
O2C O 0.2851(3) 0.6484(5) 0.19459(18)
N2B N 0.6043(3) -0.7740(5) 1.1927(2)
N2C N 0.3957(3) 0.7260(5) 0.3073(2)
O3C O 0.4182(3) 0.4225(5) 0.35155(18)
C1C C 0.2289(4) 0.4727(7) 0.3419(3)
H1C H 0.2666 0.4102 0.3534
N3C N 0.4895(4) 0.4269(5) 0.3421(2)
C2C C 0.1642(4) 0.4860(7) 0.3663(3)
H2C H 0.1599 0.4348 0.3941
C3C C 0.1062(4) 0.5728(5) 0.3505(2)
O4C O 0.4089(3) 0.6008(5) 0.1900(2)
N4C N 0.3406(4) 0.6433(6) 0.1678(2)
N5C N 0.0900(3) 0.7325(4) 0.44485(19)
C4C C 0.0518(4) 0.6110(5) 0.4321(3)
H3C H 0.0884 0.5468 0.4488
H4C H 0.0018 0.6065 0.4458
O5C O 0.3270(4) 0.6748(7) 0.1226(2)
O6C O 0.5491(3) 0.3989(6) 0.3740(2)
C5C C 0.0320(4) 0.5865(6) 0.3747(3)
H5C H -0.0012 0.6543 0.3577
H6C H -0.0003 0.5111 0.3685
C6B C 0.5700(4) -0.5444(6) 1.1435(3)
O7C O -0.0258(3) 0.8518(4) 0.4224(2)
O8C O 0.2221(3) 0.6668(4) 0.4787(2)
C7C C 0.1710(4) 0.7493(6) 0.4695(3)
C8C C 0.0465(4) 0.8426(5) 0.4413(3)
C9C C 0.1805(3) 0.8837(5) 0.4825(2)
C10C C 0.1042(3) 0.9392(5) 0.4645(2)
C11B C 0.5790(5) -0.5602(6) 1.1944(3)
H7B H 0.5730 -0.4918 1.2150
C12B C 0.5781(8) -0.6526(7) 1.1170(3)
H8B H 0.5746 -0.6503 1.0812
C13C C 0.1179(5) 0.6434(8) 0.3101(3)
H9C H 0.0799 0.7046 0.2973
C14C C 0.0925(4) 1.0647(6) 0.4713(3)
H10C H 0.0422 1.1027 0.4594
C15B C 0.5966(5) -0.6729(6) 1.2176(3)
H11B H 0.6035 -0.6770 1.2536
C16C C 0.1844(5) 0.6262(9) 0.2879(4)
H12C H 0.1897 0.6772 0.2601
C17B C 0.5911(8) -0.7629(7) 1.1426(3)
H13B H 0.5905 -0.8348 1.1229
C18B C 0.5788(4) -0.4049(5) 1.0670(2)
H14B H 0.5524 -0.4677 1.0430
H15B H 0.6376 -0.4162 1.0714
C19B C 0.5530(5) -0.4204(6) 1.1186(3)
H16B H 0.4947 -0.4046 1.1138
H17B H 0.5806 -0.3578 1.1422
O9B O 0.4210(2) -0.3239(4) 1.01216(18)
N6B N 0.5570(3) -0.2835(4) 1.04598(18)
C20B C 0.4783(4) -0.2531(5) 1.0212(2)
C21B C 0.4175(3) -0.0418(5) 0.9838(2)
H18B H 0.3641 -0.0699 0.9731
C22B C 0.4800(3) -0.1185(5) 1.0076(2)
C23B C 0.5602(3) -0.0786(5) 1.0229(2)
C24B C 0.6103(3) -0.1853(5) 1.0474(2)
C25C C 0.1594(3) 1.1303(5) 0.4965(2)
C26C C 0.1671(4) 1.2638(5) 0.5108(2)
C27C C 0.2352(3) 1.0739(5) 0.5144(2)
C28C C 0.2480(3) 0.9485(6) 0.5075(3)
H19C H 0.2986 0.9107 0.5189
C29C C 0.2925(4) 1.1709(6) 0.5401(2)
N7C N 0.2459(3) 1.2801(4) 0.53798(19)
O10C O 0.1154(3) 1.3451(4) 0.50127(19)
C30C C 0.2794(4) 1.3994(5) 0.5594(2)
H20C H 0.3387 1.3953 0.5663
H21C H 0.2627 1.4644 0.5340
C31C C 0.2501(4) 1.4319(5) 0.6094(3)
H22C H 0.1910 1.4409 0.6020
H23C H 0.2737 1.5107 0.6224
C32C C 0.2740(3) 1.3328(5) 0.6505(2)
C33C C 0.2204(4) 1.2364(6) 0.6555(2)
H24C H 0.1683 1.2346 0.6350
C34C C 0.3491(4) 1.3294(5) 0.6819(3)
H25C H 0.3863 1.3930 0.6803
C35C C 0.3704(4) 1.2332(6) 0.7160(2)
H26C H 0.4226 1.2326 0.7365
N8C N 0.3193(3) 1.1400(5) 0.7209(2)
N8_2 N 0.3193(3) 0.3600(5) 0.2209(2)
C36C C 0.2452(4) 1.1442(6) 0.6909(3)
H27C H 0.2084 1.0812 0.6942
O11B O 0.6832(2) -0.1903(4) 1.06346(16)
O12C O 0.3636(3) 1.1630(4) 0.5580(2)
Cl1 Cl 0.08272(15) 0.8294(2) 1.06950(9)
Cl2 Cl 0.10342(17) 0.5975(3) 1.11970(16)
Cl3 Cl 0.1206(3) 0.8325(4) 1.17822(12)
C37 C 0.1319(5) 0.7512(7) 1.1236(3)
H28 H 0.1904 0.7531 1.1225
O13 O 0.0648(9) 0.5061(17) 0.7994(8)
H30 H 0.030(3) 0.528(4) 0.7841(16)
O14 O 0.1894(13) 0.3906(18) 0.7687(6)
H29 H 0.237(2) 0.346(3) 0.8008(15)
O15 O 0.1959(6) 0.5319(12) 0.8478(5)
C39 C 0.140(3) 0.407(5) 0.8282(19)
H31 H 0.083(2) 0.334(3) 0.8377(13)
O16 O 0.1068(11) 0.3012(18) 0.7707(8)
C38? C 0.1959(8) 0.3715(13) 0.8585(6)
loop_
_geom_bond_atom_site_label_1
_geom_bond_atom_site_label_2
_geom_bond_site_symmetry_1
_geom_bond_site_symmetry_2
Cd1 O1 1_555 1_555
O1 N3 1_555 1_555
N1 Cd1 1_555 1_555
O2 Cd1 1_555 1_555
N2 Cd1 1_555 1_555
O3 Cd1 1_555 1_555
C1 N1 1_555 1_555
H1 C1 1_555 1_555
N3 O3 1_555 1_555
C2 C1 1_555 1_555
H2 C2 1_555 1_555
C3 C2 1_555 1_555
O4 Cd1 1_555 1_555
N4 O2 1_555 1_555
N5 C4 1_555 1_555
C4 H3 1_555 1_555
H4 C4 1_555 1_555
O5 N4 1_555 1_555
O6 N3 1_555 1_555
C5 C3 1_555 1_555
H5 C5 1_555 1_555
H6 C5 1_555 1_555
C6 C11 1_555 1_555
O7 C8 1_555 1_555
O8 C7 1_555 1_555
C7 N5 1_555 1_555
C8 N5 1_555 1_555
C9 C7 1_555 1_555
C10 C8 1_555 1_555
C11 H7 1_555 1_555
C12 C6 1_555 1_555
H8 C12 1_555 1_555
C13 C3 1_555 1_555
H9 C13 1_555 1_555
C14 C10 1_555 1_555
H10 C14 1_555 1_555
C15 N2 1_555 1_555
H11 C15 1_555 1_555
C16 N1 1_555 1_555
H12 C16 1_555 1_555
C17 N2 1_555 1_555
H13 C17 1_555 1_555
C18 H14 1_555 1_555
H15 C18 1_555 1_555
C19 C6 1_555 1_555
H16 C19 1_555 1_555
H17 C19 1_555 1_555
O9 C20 1_555 1_555
N6 C18 1_555 1_555
C20 N6 1_555 1_555
C21 H18 1_555 1_555
C22 C20 1_555 1_555
C23 C22 1_555 1_555
C24 N6 1_555 1_555
C25 C14 1_555 1_555
C26 C25 1_555 1_555
C27 C25 1_555 1_555
C28 C9 1_555 1_555
H19 C28 1_555 1_555
C29 C27 1_555 1_555
N7 C26 1_555 1_555
O10 C26 1_555 1_555
C30 N7 1_555 1_555
H20 C30 1_555 1_555
H21 C30 1_555 1_555
C31 C30 1_555 1_555
H22 C31 1_555 1_555
H23 C31 1_555 1_555
C32 C31 1_555 1_555
C33 C32 1_555 1_555
H24 C33 1_555 1_555
C34 C32 1_555 1_555
H25 C34 1_555 1_555
C35 C34 1_555 1_555
H26 C35 1_555 1_555
N8 C35 1_555 1_555
C36 C33 1_555 1_555
H27 C36 1_555 1_555
Cl1 C37 1_555 1_555
O11 C24 1_555 1_555
O12 C29 1_555 1_555
Cl2 C37 1_555 1_555
Cl3 C37 1_555 1_555
C37 H28 1_555 1_555
O13 H30 1_555 1_555
O14 H29 1_555 1_555
O15 C39 1_555 1_555
C39 H31 1_555 1_555
Cd1C O1C 1_555 1_555
Cd1C_2 N8 1_555 1_555
Cd1B N2B 1_555 1_555
O1C N3C 1_555 1_555
N1C Cd1C 1_555 1_555
O2C Cd1C 1_555 1_555
N2B C15B 1_555 1_555
N2C Cd1C 1_555 1_555
O3C Cd1C 1_555 1_555
C1C N1C 1_555 1_555
H1C C1C 1_555 1_555
N3C O3C 1_555 1_555
C2C C1C 1_555 1_555
H2C C2C 1_555 1_555
C3C C2C 1_555 1_555
O4C Cd1C 1_555 1_555
N4C O2C 1_555 1_555
N5C C4C 1_555 1_555
C4C H3C 1_555 1_555
H4C C4C 1_555 1_555
O5C N4C 1_555 1_555
O6C N3C 1_555 1_555
C5C C3C 1_555 1_555
H5C C5C 1_555 1_555
H6C C5C 1_555 1_555
C6B C11B 1_555 1_555
O7C C8C 1_555 1_555
O8C C7C 1_555 1_555
C7C N5C 1_555 1_555
C8C N5C 1_555 1_555
C9C C7C 1_555 1_555
C10C C8C 1_555 1_555
C11B H7B 1_555 1_555
C12B C6B 1_555 1_555
H8B C12B 1_555 1_555
C13C C3C 1_555 1_555
H9C C13C 1_555 1_555
C14C C10C 1_555 1_555
H10C C14C 1_555 1_555
C15B C11B 1_555 1_555
H11B C15B 1_555 1_555
C16C N1C 1_555 1_555
H12C C16C 1_555 1_555
C17B N2B 1_555 1_555
H13B C17B 1_555 1_555
C18B H14B 1_555 1_555
H15B C18B 1_555 1_555
C19B C6B 1_555 1_555
H16B C19B 1_555 1_555
H17B C19B 1_555 1_555
O9B C20B 1_555 1_555
N6B C18B 1_555 1_555
C20B N6B 1_555 1_555
C21B C23 1_555 1_555
H18B C21B 1_555 1_555
C22B C20B 1_555 1_555
C23B C21 1_555 1_555
C24B N6B 1_555 1_555
C25C C14C 1_555 1_555
C26C C25C 1_555 1_555
C27C C25C 1_555 1_555
C28C C9C 1_555 1_555
H19C C28C 1_555 1_555
C29C C27C 1_555 1_555
N7C C26C 1_555 1_555
O10C C26C 1_555 1_555
C30C N7C 1_555 1_555
H20C C30C 1_555 1_555
H21C C30C 1_555 1_555
C31C C30C 1_555 1_555
H22C C31C 1_555 1_555
H23C C31C 1_555 1_555
C32C C31C 1_555 1_555
C33C C32C 1_555 1_555
H24C C33C 1_555 1_555
C34C C32C 1_555 1_555
H25C C34C 1_555 1_555
C35C C34C 1_555 1_555
H26C C35C 1_555 1_555
N8C Cd1 1_555 1_555
N8_2 Cd1C 1_555 1_555
C36C C33C 1_555 1_555
H27C C36C 1_555 1_555
O11B C24B 1_555 1_555
O12C C29C 1_555 1_555
O4 N4 1_555 1_555
C4 C5 1_555 1_555
C9 C10 1_555 1_555
C11 C15 1_555 1_555
C12 C17 1_555 1_555
C13 C16 1_555 1_555
C18 C19 1_555 1_555
C21 C22 1_555 1_555
C23 C24 1_555 1_555
C27 C28 1_555 1_555
C29 N7 1_555 1_555
N8 C36 1_555 1_555
O4C N4C 1_555 1_555
C4C C5C 1_555 1_555
C9C C10C 1_555 1_555
C12B C17B 1_555 1_555
C13C C16C 1_555 1_555
C18B C19B 1_555 1_555
C21B C22B 1_555 1_555
C22B C23B 1_555 1_555
C23B C24B 1_555 1_555
C27C C28C 1_555 1_555
C29C N7C 1_555 1_555
C35C N8C 1_555 1_555
N8C C36C 1_555 1_555

#END
