
#######################################################################
#
#                 Cambridge Crystallographic Data Centre
#                                CCDC 
#
#######################################################################
#
# If this CIF has been generated from an entry in the Cambridge 
# Structural Database, then it will include bibliographic, chemical, 
# crystal, experimental, refinement or atomic coordinate data resulting 
# from the CCDC's data processing and validation procedures.
#
#######################################################################

data_JIQXAJ
_symmetry_cell_setting           monoclinic
_symmetry_space_group_name_H-M   'P 21/c'
_symmetry_Int_Tables_number      14
_space_group_name_Hall           '-P 2ybc'
loop_
_symmetry_equiv_pos_site_id
_symmetry_equiv_pos_as_xyz
1 x,y,z
2 -x,1/2+y,1/2-z
3 -x,-y,-z
4 x,1/2-y,1/2+z
_cell_length_a                   13.4130(5)
_cell_length_b                   15.8851(7)
_cell_length_c                   20.1779(5)
_cell_angle_alpha                90
_cell_angle_beta                 92.640(2)
_cell_angle_gamma                90
_cell_volume                     4294.68
loop_
_atom_site_label
_atom_site_type_symbol
_atom_site_fract_x
_atom_site_fract_y
_atom_site_fract_z
C1 C 0.8704(6) 0.2786(6) 0.5727(3)
H1 H 0.8961 0.2800 0.5296
C2 C 0.7960(6) 0.3346(5) 0.5889(3)
H2 H 0.7708 0.3739 0.5569
C3 C 0.7589(6) 0.3334(5) 0.6510(3)
H3 H 0.7070 0.3711 0.6617
C4 C 0.7976(5) 0.2766(5) 0.6992(3)
C5 C 0.8736(5) 0.2209(5) 0.6827(3)
H4 H 0.9016 0.1837 0.7153
C6 C 0.9077(6) 0.2199(5) 0.6196(3)
H5 H 0.9563 0.1798 0.6078
C7 C 0.7617(5) 0.2782(5) 0.7681(3)
C8 C 0.7399(5) 0.3498(5) 0.8643(3)
C9 C 0.6976(5) 0.2790(5) 0.8916(3)
H6 H 0.6735 0.2799 0.9351
C10 C 0.6919(5) 0.2069(5) 0.8531(3)
C11 C 0.7467(6) 0.4269(5) 0.9722(3)
H7 H 0.6819 0.4519 0.9811
H8 H 0.8002 0.4618 0.9922
H9 H 0.7507 0.3702 0.9913
C12 C 0.7862(6) 0.5643(5) 0.8953(3)
H10 H 0.7723 0.5677 0.9409
C13 C 0.8113(5) 0.6411(5) 0.8587(3)
C14 C 0.8085(6) 0.7187(5) 0.8886(4)
H11 H 0.7918 0.7238 0.9337
C15 C 0.8305(6) 0.7891(5) 0.8519(4)
H12 H 0.8294 0.8432 0.8719
C16 C 0.8538(6) 0.7817(5) 0.7869(4)
H13 H 0.8697 0.8298 0.7615
C17 C 0.8535(6) 0.7017(5) 0.7592(4)
H14 H 0.8673 0.6960 0.7137
C18 C 0.6208(6) 0.1223(5) 0.9437(3)
H15 H 0.5478 0.1204 0.9444
H16 H 0.6460 0.1695 0.9708
H17 H 0.6487 0.0695 0.9615
C19 C 0.5939(5) 0.0012(5) 0.8476(3)
H18 H 0.5635 -0.0020 0.8892
C20 C 0.5874(5) -0.0700(5) 0.8028(3)
C21 C 0.5278(6) -0.1397(6) 0.8182(4)
H19 H 0.4923 -0.1414 0.8579
C22 C 0.5228(6) -0.2061(6) 0.7730(4)
H20 H 0.4832 -0.2541 0.7816
C23 C 0.5745(7) -0.2026(6) 0.7162(4)
H21 H 0.5709 -0.2477 0.6853
C24 C 0.6317(6) -0.1326(5) 0.7047(4)
H22 H 0.6680 -0.1306 0.6654
C25 C 1.0590(7) 0.3568(7) 0.9187(4)
C26 C 0.6896(8) 0.6404(8) 0.5304(5)
C27 C 1.0588(7) 0.5818(6) 0.5852(4)
C28 C 0.5009(7) 0.1439(6) 0.5654(4)
N1 N 0.7674(4) 0.3503(4) 0.8008(2)
N2 N 0.7266(4) 0.2049(4) 0.7916(2)
N3 N 0.7577(4) 0.4219(4) 0.9005(2)
N4 N 0.7831(4) 0.4930(4) 0.8657(3)
N5 N 0.8341(5) 0.6305(4) 0.7950(3)
N6 N 0.6503(4) 0.1332(4) 0.8755(2)
N7 N 0.6397(4) 0.0680(4) 0.8322(3)
N8 N 0.6383(5) -0.0669(4) 0.7468(3)
O1 O 0.6442(4) 0.5116(4) 0.7495(2)
O2 O 0.9813(4) 0.4254(4) 0.8161(3)
O3 O 1.0403(7) 0.5161(4) 0.9035(4)
O4 O 1.1567(4) 0.4419(4) 0.8372(3)
O5 O 0.7643(4) 0.5605(4) 0.6291(3)
O6 O 0.5983(4) 0.6173(4) 0.6372(2)
O7 O 0.6247(5) 0.4973(4) 0.5672(3)
O8 O 1.1637(4) 0.5054(4) 0.6760(2)
O9 O 1.0144(4) 0.5768(4) 0.7089(2)
O10 O 0.9993(4) 0.4463(3) 0.6466(2)
O11 O 0.5534(4) 0.1045(4) 0.6859(2)
O12 O 0.4460(4) 0.0091(4) 0.6229(2)
O13 O 0.6205(4) 0.0221(4) 0.5979(2)
F1 F 1.1281(6) 0.3642(5) 0.9662(3)
F2 F 1.0762(5) 0.2865(4) 0.8880(3)
F3 F 0.9717(5) 0.3491(5) 0.9463(3)
F4 F 0.7255(6) 0.7125(5) 0.5485(3)
F5 F 0.7530(5) 0.6063(5) 0.4886(3)
F6 F 0.6077(4) 0.6536(5) 0.4928(3)
F7 F 1.1079(4) 0.6519(4) 0.5954(2)
F8 F 0.9670(4) 0.5999(4) 0.5632(2)
F9 F 1.1022(4) 0.5380(4) 0.5388(2)
F10 F 0.5736(4) 0.1991(4) 0.5618(3)
F11 F 0.4812(5) 0.1147(4) 0.5046(2)
F12 F 0.4200(4) 0.1854(4) 0.5837(2)
S1 S 1.05928(15) 0.44624(14) 0.86337(10)
S2 S 0.66741(15) 0.57081(14) 0.59819(9)
S3 S 1.05759(13) 0.51964(13) 0.66212(8)
S4 S 0.53289(14) 0.05978(14) 0.62332(8)
Pb1 Pb 0.83599(2) 0.487208(18) 0.744725(12)
Pb2 Pb 0.73562(2) 0.060878(19) 0.725251(12)
O4A O 0.8433(4) -0.0581(4) 0.6628(3)
O8A O 0.8363(4) 0.0054(4) 0.8240(2)
Pb2A Pb 1.26438(2) 0.560878(19) 0.774749(12)
loop_
_geom_bond_atom_site_label_1
_geom_bond_atom_site_label_2
_geom_bond_site_symmetry_1
_geom_bond_site_symmetry_2
C1 H1 1_555 1_555
C2 C1 1_555 1_555
H2 C2 1_555 1_555
C3 C2 1_555 1_555
H3 C3 1_555 1_555
C4 C3 1_555 1_555
C5 C4 1_555 1_555
H4 C5 1_555 1_555
C6 C1 1_555 1_555
H5 C6 1_555 1_555
C7 C4 1_555 1_555
C8 C9 1_555 1_555
C9 H6 1_555 1_555
C10 C9 1_555 1_555
C11 H7 1_555 1_555
H8 C11 1_555 1_555
H9 C11 1_555 1_555
C12 H10 1_555 1_555
C13 C12 1_555 1_555
C14 C13 1_555 1_555
H11 C14 1_555 1_555
C15 C14 1_555 1_555
H12 C15 1_555 1_555
C16 C15 1_555 1_555
H13 C16 1_555 1_555
C17 C16 1_555 1_555
H14 C17 1_555 1_555
C18 H15 1_555 1_555
H16 C18 1_555 1_555
H17 C18 1_555 1_555
C19 H18 1_555 1_555
C20 C19 1_555 1_555
C21 C20 1_555 1_555
H19 C21 1_555 1_555
C22 C21 1_555 1_555
H20 C22 1_555 1_555
C23 C22 1_555 1_555
H21 C23 1_555 1_555
C24 C23 1_555 1_555
H22 C24 1_555 1_555
C25 F1 1_555 1_555
C26 F4 1_555 1_555
C27 F7 1_555 1_555
C28 F10 1_555 1_555
N1 C7 1_555 1_555
N2 C7 1_555 1_555
N3 C8 1_555 1_555
N4 C12 1_555 1_555
N5 C13 1_555 1_555
N6 C10 1_555 1_555
N7 C19 1_555 1_555
N8 C20 1_555 1_555
O1 Pb1 1_555 1_555
O2 S1 1_555 1_555
O3 S1 1_555 1_555
O4 S1 1_555 1_555
O5 S2 1_555 1_555
O6 S2 1_555 1_555
O7 S2 1_555 1_555
O8 S3 1_555 1_555
O9 S3 1_555 1_555
O10 S3 1_555 1_555
O11 S4 1_555 1_555
O12 S4 1_555 1_555
O13 S4 1_555 1_555
F2 C25 1_555 1_555
F3 C25 1_555 1_555
F5 C26 1_555 1_555
F6 C26 1_555 1_555
F8 C27 1_555 1_555
F9 C27 1_555 1_555
F11 C28 1_555 1_555
F12 C28 1_555 1_555
S1 C25 1_555 1_555
S2 C26 1_555 1_555
S3 C27 1_555 1_555
S4 C28 1_555 1_555
Pb1 N1 1_555 1_555
Pb2 N2 1_555 1_555
O4A Pb2 1_555 1_555
O8A Pb2 1_555 1_555
Pb2A O4 1_555 1_555
C5 C6 1_555 1_555
C8 N1 1_555 1_555
C10 N2 1_555 1_555
C11 N3 1_555 1_555
C17 N5 1_555 1_555
C18 N6 1_555 1_555
C24 N8 1_555 1_555
N3 N4 1_555 1_555
N4 Pb1 1_555 1_555
N5 Pb1 1_555 1_555
N6 N7 1_555 1_555
N7 Pb2 1_555 1_555
N8 Pb2 1_555 1_555
O2 Pb1 1_555 1_555
O5 Pb1 1_555 1_555
O8 Pb2A 1_555 1_555
O9 Pb1 1_555 1_555
O11 Pb2 1_555 1_555

#END
