
#######################################################################
#
#                 Cambridge Crystallographic Data Centre
#                                CCDC 
#
#######################################################################
#
# If this CIF has been generated from an entry in the Cambridge 
# Structural Database, then it will include bibliographic, chemical, 
# crystal, experimental, refinement or atomic coordinate data resulting 
# from the CCDC's data processing and validation procedures.
#
#######################################################################

data_JIQXIR
_symmetry_cell_setting           monoclinic
_symmetry_space_group_name_H-M   'P 21/c'
_symmetry_Int_Tables_number      14
_space_group_name_Hall           '-P 2ybc'
loop_
_symmetry_equiv_pos_site_id
_symmetry_equiv_pos_as_xyz
1 x,y,z
2 -x,1/2+y,1/2-z
3 -x,-y,-z
4 x,1/2-y,1/2+z
_cell_length_a                   16.649(2)
_cell_length_b                   10.7298(13)
_cell_length_c                   25.853(3)
_cell_angle_alpha                90
_cell_angle_beta                 101.134(3)
_cell_angle_gamma                90
_cell_volume                     4531.47
loop_
_atom_site_label
_atom_site_type_symbol
_atom_site_fract_x
_atom_site_fract_y
_atom_site_fract_z
Co1 Co 0.35553(4) 0.95773(7) 0.76891(3)
N1 N 0.4800(3) 1.0600(4) 0.83702(19)
N2 N 0.3893(3) 0.7808(4) 0.80643(18)
O1 O 0.2884(2) 0.8548(4) 0.70049(15)
O2 O 0.4844(2) 1.0108(4) 0.79380(15)
O3 O 0.4091(3) 1.0705(4) 0.84590(18)
O4 O 0.5410(3) 1.0923(6) 0.8677(2)
O5 O 0.4090(3) 0.9087(5) 0.69422(18)
O6 O 0.3280(3) 0.8255(6) 0.62749(18)
N3 N 0.3422(3) 0.8619(5) 0.67199(19)
C2 C 0.4246(4) 0.5505(5) 0.8555(2)
C3 C 0.4221(4) 0.5690(6) 0.8033(3)
H2 H 0.4322 0.5022 0.7826
C4 C 0.4054(4) 0.6808(6) 0.7807(2)
H3 H 0.4052 0.6883 0.7449
C5 C 0.4058(6) 0.6558(6) 0.8829(3)
H4 H 0.4037 0.6501 0.9185
C6 C 0.4174(3) 0.4052(5) 0.9326(2)
H5 H 0.4420 0.4679 0.9577
H6 H 0.3584 0.4141 0.9274
C7 C 0.4445(5) 0.4259(6) 0.8808(3)
H7 H 0.5033 0.4141 0.8865
H8 H 0.4196 0.3621 0.8563
C8 C 0.3907(6) 0.7670(6) 0.8570(3)
H9 H 0.3808 0.8365 0.8763
O7 O 0.3139(2) 0.1875(3) 0.93669(15)
O8 O 0.5762(2) 0.3263(3) 0.98539(16)
N4 N 0.4404(2) 0.2840(4) 0.95326(16)
C9 C 0.3873(3) 0.1838(5) 0.95237(18)
C10 C 0.5199(3) 0.2535(4) 0.97699(19)
C11 C 0.4165(3) -0.0438(4) 0.98460(19)
H10 H 0.3630 -0.0726 0.9750
C12 C 0.4385(3) 0.0777(4) 0.97655(18)
C13 C 0.5189(3) 0.1197(4) 0.99177(18)
N5 N 0.2474(3) 0.9522(4) 0.80178(17)
C14 C 0.1959(4) 0.8568(6) 0.7914(3)
H13 H 0.2073 0.7954 0.7684
C15 C 0.2290(4) 1.0354(6) 0.8354(3)
H14 H 0.2630 1.1044 0.8433
C16 C 0.1626(4) 1.0259(6) 0.8593(3)
H15 H 0.1539 1.0858 0.8836
C17 C 0.1090(3) 0.9283(5) 0.8476(2)
C18 C 0.0345(3) 0.9167(6) 0.8718(2)
H16 H 0.0005 0.8496 0.8545
H17 H 0.0031 0.9932 0.8658
C19 C 0.1264(4) 0.8439(6) 0.8128(3)
H18 H 0.0916 0.7766 0.8031
C20 C 0.0552(4) 0.8907(5) 0.9313(2)
H19 H 0.0920 0.9549 0.9484
H20 H 0.0054 0.8950 0.9455
N6 N 0.0932(3) 0.7692(4) 0.94373(18)
C21 C 0.1753(3) 0.7523(5) 0.9683(2)
C22 C 0.0489(4) 0.6584(5) 0.9401(2)
C23 C 0.1833(3) 0.6162(5) 0.9822(2)
O11 O 0.2247(2) 0.8327(4) 0.9771(2)
C24 C 0.2501(3) 0.5523(5) 1.0080(2)
H21 H 0.3006 0.5902 1.0195
C25 C 0.1079(3) 0.5607(5) 0.9650(2)
C26 C 0.0944(3) 0.4361(5) 0.9731(2)
H22 H 0.0436 0.3987 0.9619
C27 C 0.1616(3) 0.3711(5) 0.9987(2)
C28 C 0.1689(3) 0.2374(5) 1.0139(2)
C29 C 0.2372(3) 0.4271(5) 1.0158(2)
N7 N 0.2484(3) 0.2216(4) 1.04170(17)
O12 O 0.1176(2) 0.1559(4) 1.00520(18)
C30 C 0.2810(4) 0.1039(5) 1.0645(2)
H23 H 0.3403 0.1071 1.0709
H24 H 0.2634 0.0375 1.0394
C31 C 0.2944(3) 0.3297(5) 1.0426(2)
C32 C 0.2537(4) 0.0738(5) 1.1158(2)
H25 H 0.1950 0.0607 1.1088
H26 H 0.2798 -0.0029 1.1302
C33 C 0.2752(3) 0.1772(5) 1.1559(2)
C34 C 0.2204(3) 0.2709(5) 1.1609(2)
H27 H 0.1679 0.2701 1.1406
C35 C 0.3526(3) 0.1855(5) 1.1875(2)
H28 H 0.3914 0.1244 1.1854
C36 C 0.3720(3) 0.2838(5) 1.2218(2)
H29 H 0.4241 0.2869 1.2427
N8 N 0.3194(3) 0.3742(4) 1.22623(17)
C37 C 0.2448(3) 0.3652(5) 1.1964(2)
H30 H 0.2068 0.4267 1.1998
O13 O -0.0234(2) 0.6502(4) 0.92129(19)
O14 O 0.3657(2) 0.3394(4) 1.06142(19)
Co1B Co 0.64447(4) -0.95773(7) 1.23109(3)
Co1C Co 0.35553(4) 0.54227(7) 1.26891(3)
Co1C_2 Co 0.35553(4) 0.54227(7) 0.26891(3)
N1B N 0.5200(3) -1.0600(4) 1.16298(19)
N2B N 0.6107(3) -0.7808(4) 1.19357(18)
O1B O 0.7116(2) -0.8548(4) 1.29951(15)
O2B O 0.5156(2) -1.0108(4) 1.20620(15)
O3B O 0.5909(3) -1.0705(4) 1.15410(18)
O4B O 0.4590(3) -1.0923(6) 1.1323(2)
O5B O 0.5910(3) -0.9087(5) 1.30578(18)
O6B O 0.6720(3) -0.8255(6) 1.37251(18)
N3B N 0.6578(3) -0.8619(5) 1.32801(19)
C2B C 0.5754(4) -0.5505(5) 1.1445(2)
C3B C 0.5779(4) -0.5690(6) 1.1967(3)
H2B H 0.5678 -0.5022 1.2174
C4B C 0.5946(4) -0.6808(6) 1.2193(2)
H3B H 0.5948 -0.6883 1.2551
C5B C 0.5942(6) -0.6558(6) 1.1171(3)
H4B H 0.5963 -0.6501 1.0815
C6B C 0.5826(3) -0.4052(5) 1.0674(2)
H5B H 0.5580 -0.4679 1.0423
H6B H 0.6416 -0.4141 1.0726
C7B C 0.5555(5) -0.4259(6) 1.1192(3)
H7B H 0.4967 -0.4141 1.1135
H8B H 0.5804 -0.3621 1.1437
C8B C 0.6093(6) -0.7670(6) 1.1430(3)
H9B H 0.6192 -0.8365 1.1237
O7B O 0.6861(2) -0.1875(3) 1.06331(15)
O8B O 0.4238(2) -0.3263(3) 1.01461(16)
N4B N 0.5596(2) -0.2840(4) 1.04674(16)
C9B C 0.6127(3) -0.1838(5) 1.04763(18)
C10B C 0.4801(3) -0.2535(4) 1.02301(19)
C11B C 0.5835(3) 0.0438(4) 1.01540(19)
H10B H 0.6370 0.0726 1.0250
C12B C 0.5615(3) -0.0777(4) 1.02345(18)
C13B C 0.4811(3) -0.1197(4) 1.00823(18)
N5C N 0.2474(3) 0.5478(4) 0.30178(17)
N5B N 0.7526(3) -0.9522(4) 1.19822(17)
C14C C 0.1959(4) 0.6432(6) 0.2914(3)
H13C H 0.2073 0.7046 0.2684
C15C C 0.2290(4) 0.4646(6) 0.3354(3)
H14C H 0.2630 0.3956 0.3433
C16C C 0.1626(4) 0.4741(6) 0.3593(3)
H15C H 0.1539 0.4142 0.3836
C17C C 0.1090(3) 0.5717(5) 0.3476(2)
C18C C 0.0345(3) 0.5833(6) 0.3718(2)
H16C H 0.0005 0.6504 0.3545
H17C H 0.0031 0.5068 0.3658
C19C C 0.1264(4) 0.6561(6) 0.3128(3)
H18C H 0.0916 0.7234 0.3031
C20C C 0.0552(4) 0.6093(5) 0.4313(2)
H19C H 0.0920 0.5451 0.4484
H20C H 0.0054 0.6050 0.4455
N6C N 0.0932(3) 0.7308(4) 0.44373(18)
C21C C 0.1753(3) 0.7477(5) 0.4683(2)
C22C C 0.0489(4) 0.8416(5) 0.4401(2)
C23C C 0.1833(3) 0.8838(5) 0.4822(2)
O11C O 0.2247(2) 0.6673(4) 0.4771(2)
C24C C 0.2501(3) 0.9477(5) 0.5080(2)
H21C H 0.3006 0.9098 0.5195
C25C C 0.1079(3) 0.9393(5) 0.4650(2)
C26C C 0.0944(3) 1.0639(5) 0.4731(2)
H22C H 0.0436 1.1013 0.4619
C27C C 0.1616(3) 1.1289(5) 0.4987(2)
C28C C 0.1689(3) 1.2626(5) 0.5139(2)
C29C C 0.2372(3) 1.0729(5) 0.5158(2)
N7C N 0.2484(3) 1.2784(4) 0.54170(17)
O12C O 0.1176(2) 1.3441(4) 0.50520(18)
C30C C 0.2810(4) 1.3961(5) 0.5645(2)
H23C H 0.3403 1.3929 0.5709
H24C H 0.2634 1.4625 0.5394
C31C C 0.2944(3) 1.1703(5) 0.5426(2)
C32C C 0.2537(4) 1.4262(5) 0.6158(2)
H25C H 0.1950 1.4393 0.6088
H26C H 0.2798 1.5029 0.6302
C33C C 0.2752(3) 1.3228(5) 0.6559(2)
C34C C 0.2204(3) 1.2291(5) 0.6609(2)
H27C H 0.1679 1.2299 0.6406
C35C C 0.3526(3) 1.3145(5) 0.6875(2)
H28C H 0.3914 1.3756 0.6854
C36C C 0.3720(3) 1.2162(5) 0.7218(2)
H29C H 0.4241 1.2131 0.7427
N8C N 0.3194(3) 1.1258(4) 0.72623(17)
N8A N 0.6806(3) -1.1258(4) 1.27377(17)
C37C C 0.2448(3) 1.1348(5) 0.6964(2)
H30C H 0.2068 1.0733 0.6998
O13C O -0.0234(2) 0.8498(4) 0.42129(19)
O14C O 0.3657(2) 1.1606(4) 0.56142(19)
Cl1 Cl 0.08738(14) 0.66514(19) 0.56936(7)
Cl2 Cl 0.10603(14) 0.9044(2) 0.61632(13)
Cl3 Cl 0.1129(3) 0.6766(4) 0.67902(10)
C1 C 0.1336(4) 0.7477(6) 0.6241(3)
H1 H 0.1928 0.7427 0.6260
O9 O 0.0395(5) 0.5143(8) 0.7900(4)
H11 H 0.0139 0.5257 0.8137
O10 O 0.1887(9) 0.477(2) 0.8450(6)
H12 H 0.1414 0.4541 0.8438
H35 H 0.204(3) 0.536(3) 0.8531(16)
C38 C 0.174(3) 0.3640(19) 0.7672(10)
H31 H 0.1542 0.4164 0.7364
C39 C 0.0986(8) 0.3033(15) 0.7657(5)
H32 H 0.1021 0.2209 0.7815
H33 H 0.0611 0.3059 0.7320
O16 O 0.091(2) 0.408(3) 0.8020(18)
O15? O 0.2136(16) 0.450(4) 0.7931(19)
H34? H 0.194(2) 0.372(3) 0.8611(15)
loop_
_geom_bond_atom_site_label_1
_geom_bond_atom_site_label_2
_geom_bond_site_symmetry_1
_geom_bond_site_symmetry_2
Co1 N2 1_555 1_555
N1 O2 1_555 1_555
N2 C4 1_555 1_555
O1 Co1 1_555 1_555
O2 Co1 1_555 1_555
O3 Co1 1_555 1_555
Cl1 C1 1_555 1_555
Cl2 C1 1_555 1_555
Cl3 C1 1_555 1_555
O4 N1 1_555 1_555
O5 Co1 1_555 1_555
O6 N3 1_555 1_555
N3 O1 1_555 1_555
C1 H1 1_555 1_555
C2 C3 1_555 1_555
C3 H2 1_555 1_555
C4 C3 1_555 1_555
H3 C4 1_555 1_555
C5 C2 1_555 1_555
H4 C5 1_555 1_555
C6 H5 1_555 1_555
H6 C6 1_555 1_555
C7 C2 1_555 1_555
H7 C7 1_555 1_555
H8 C7 1_555 1_555
C8 N2 1_555 1_555
H9 C8 1_555 1_555
O7 C9 1_555 1_555
O8 C10 1_555 1_555
N4 C6 1_555 1_555
C9 N4 1_555 1_555
C10 N4 1_555 1_555
C11 H10 1_555 1_555
C12 C9 1_555 1_555
C13 C10 1_555 1_555
O9 H11 1_555 1_555
O10 H12 1_555 1_555
N5 Co1 1_555 1_555
C14 N5 1_555 1_555
H13 C14 1_555 1_555
C15 N5 1_555 1_555
H14 C15 1_555 1_555
C16 C15 1_555 1_555
H15 C16 1_555 1_555
C17 C16 1_555 1_555
C18 C17 1_555 1_555
H16 C18 1_555 1_555
H17 C18 1_555 1_555
C19 C14 1_555 1_555
H18 C19 1_555 1_555
C20 C18 1_555 1_555
H19 C20 1_555 1_555
H20 C20 1_555 1_555
N6 C20 1_555 1_555
C21 N6 1_555 1_555
C22 N6 1_555 1_555
C23 C21 1_555 1_555
O11 C21 1_555 1_555
C24 C23 1_555 1_555
H21 C24 1_555 1_555
C25 C22 1_555 1_555
C26 C25 1_555 1_555
H22 C26 1_555 1_555
C27 C26 1_555 1_555
C28 C27 1_555 1_555
C29 C24 1_555 1_555
N7 C28 1_555 1_555
O12 C28 1_555 1_555
C30 N7 1_555 1_555
H23 C30 1_555 1_555
H24 C30 1_555 1_555
C31 C29 1_555 1_555
C32 C30 1_555 1_555
H25 C32 1_555 1_555
H26 C32 1_555 1_555
C33 C32 1_555 1_555
C34 C33 1_555 1_555
H27 C34 1_555 1_555
C35 C33 1_555 1_555
H28 C35 1_555 1_555
C36 C35 1_555 1_555
H29 C36 1_555 1_555
N8 C36 1_555 1_555
C37 C34 1_555 1_555
H30 C37 1_555 1_555
O13 C22 1_555 1_555
O14 C31 1_555 1_555
C38 H31 1_555 1_555
C39 C38 1_555 1_555
H32 C39 1_555 1_555
H33 C39 1_555 1_555
O16 C39 1_555 1_555
H35 O10 1_555 1_555
Co1B N2B 1_555 1_555
Co1C N8 1_555 1_555
Co1C_2 N5C 1_555 1_555
N1B O2B 1_555 1_555
N2B C4B 1_555 1_555
O1B Co1B 1_555 1_555
O2B Co1B 1_555 1_555
O3B Co1B 1_555 1_555
O4B N1B 1_555 1_555
O5B Co1B 1_555 1_555
O6B N3B 1_555 1_555
N3B O1B 1_555 1_555
C2B C3B 1_555 1_555
C3B H2B 1_555 1_555
C4B C3B 1_555 1_555
H3B C4B 1_555 1_555
C5B C2B 1_555 1_555
H4B C5B 1_555 1_555
C6B H5B 1_555 1_555
H6B C6B 1_555 1_555
C7B C2B 1_555 1_555
H7B C7B 1_555 1_555
H8B C7B 1_555 1_555
C8B N2B 1_555 1_555
H9B C8B 1_555 1_555
O7B C9B 1_555 1_555
O8B C10B 1_555 1_555
N4B C6B 1_555 1_555
C9B N4B 1_555 1_555
C10B N4B 1_555 1_555
C11B C13 1_555 1_555
H10B C11B 1_555 1_555
C12B C9B 1_555 1_555
C13B C11 1_555 1_555
N5C C14C 1_555 1_555
N5B Co1B 1_555 1_555
C14C H13C 1_555 1_555
C15C N5C 1_555 1_555
H14C C15C 1_555 1_555
C16C C15C 1_555 1_555
H15C C16C 1_555 1_555
C17C C16C 1_555 1_555
C18C C17C 1_555 1_555
H16C C18C 1_555 1_555
H17C C18C 1_555 1_555
C19C C14C 1_555 1_555
H18C C19C 1_555 1_555
C20C C18C 1_555 1_555
H19C C20C 1_555 1_555
H20C C20C 1_555 1_555
N6C C20C 1_555 1_555
C21C N6C 1_555 1_555
C22C N6C 1_555 1_555
C23C C21C 1_555 1_555
O11C C21C 1_555 1_555
C24C C23C 1_555 1_555
H21C C24C 1_555 1_555
C25C C22C 1_555 1_555
C26C C25C 1_555 1_555
H22C C26C 1_555 1_555
C27C C26C 1_555 1_555
C28C C27C 1_555 1_555
C29C C24C 1_555 1_555
N7C C28C 1_555 1_555
O12C C28C 1_555 1_555
C30C N7C 1_555 1_555
H23C C30C 1_555 1_555
H24C C30C 1_555 1_555
C31C C29C 1_555 1_555
C32C C30C 1_555 1_555
H25C C32C 1_555 1_555
H26C C32C 1_555 1_555
C33C C32C 1_555 1_555
C34C C33C 1_555 1_555
H27C C34C 1_555 1_555
C35C C33C 1_555 1_555
H28C C35C 1_555 1_555
C36C C35C 1_555 1_555
H29C C36C 1_555 1_555
N8C Co1 1_555 1_555
N8A Co1B 1_555 1_555
C37C C34C 1_555 1_555
H30C C37C 1_555 1_555
O13C C22C 1_555 1_555
O14C C31C 1_555 1_555
N1 O3 1_555 1_555
O5 N3 1_555 1_555
C5 C8 1_555 1_555
C6 C7 1_555 1_555
C11 C12 1_555 1_555
C12 C13 1_555 1_555
C17 C19 1_555 1_555
C23 C25 1_555 1_555
C27 C29 1_555 1_555
N7 C31 1_555 1_555
N8 C37 1_555 1_555
N1B O3B 1_555 1_555
O5B N3B 1_555 1_555
C5B C8B 1_555 1_555
C6B C7B 1_555 1_555
C10B C13B 1_555 1_555
C11B C12B 1_555 1_555
C12B C13B 1_555 1_555
C17C C19C 1_555 1_555
C23C C25C 1_555 1_555
C27C C29C 1_555 1_555
N7C C31C 1_555 1_555
C36C N8C 1_555 1_555
N8C C37C 1_555 1_555

#END
