
#######################################################################
#
#                 Cambridge Crystallographic Data Centre
#                                CCDC 
#
#######################################################################
#
# If this CIF has been generated from an entry in the Cambridge 
# Structural Database, then it will include bibliographic, chemical, 
# crystal, experimental, refinement or atomic coordinate data resulting 
# from the CCDC's data processing and validation procedures.
#
#######################################################################

data_JIQYEO
_symmetry_cell_setting           orthorhombic
_symmetry_space_group_name_H-M   'P n m a'
_symmetry_Int_Tables_number      62
_space_group_name_Hall           '-P 2ac 2n'
loop_
_symmetry_equiv_pos_site_id
_symmetry_equiv_pos_as_xyz
1 x,y,z
2 1/2-x,-y,1/2+z
3 -x,1/2+y,-z
4 1/2+x,1/2-y,1/2-z
5 -x,-y,-z
6 1/2+x,y,1/2-z
7 x,1/2-y,z
8 1/2-x,1/2+y,1/2+z
_cell_length_a                   8.586(3)
_cell_length_b                   15.705(5)
_cell_length_c                   11.842(4)
_cell_angle_alpha                90
_cell_angle_beta                 90
_cell_angle_gamma                90
_cell_volume                     1596.81
loop_
_atom_site_label
_atom_site_type_symbol
_atom_site_fract_x
_atom_site_fract_y
_atom_site_fract_z
Hg1 Hg 0.23705(4) 0.7500 0.02582(3)
I1 I 0.47183(8) 0.7500 -0.11740(6)
I2 I 0.14127(8) 0.7500 0.23811(5)
N1 N -0.4295(6) 0.4992(3) -0.0307(4)
C1 C -0.1829(7) 0.5676(4) -0.0510(5)
C2 C -0.3356(7) 0.5555(4) 0.0040(5)
C3 C 0.1017(7) 0.5966(4) -0.1440(5)
N2 N 0.0572(6) 0.6440(3) -0.0563(4)
C4 C -0.1338(7) 0.5160(4) -0.1399(5)
C5 C -0.0823(7) 0.6289(4) -0.0127(5)
C6 C 0.0095(7) 0.5323(4) -0.1877(5)
H1 H -0.125(7) 0.658(4) 0.037(5)
H2 H -0.189(8) 0.469(4) -0.164(6)
H3 H 0.219(8) 0.603(4) -0.175(6)
H4 H -0.367(7) 0.601(4) 0.065(5)
H5 H 0.054(8) 0.497(3) -0.243(5)
Hg1D Hg -1.23705(4) 0.2500 -0.02582(3)
N1D N -0.5705(6) 0.5008(3) 0.0307(4)
C1D C -0.8171(7) 0.4324(4) 0.0510(5)
C2D C -0.6644(7) 0.4445(4) -0.0040(5)
C3D C -1.1017(7) 0.4034(4) 0.1440(5)
N2D N -1.0572(6) 0.3560(3) 0.0563(4)
N2F N 0.0572(6) 0.8560(3) -0.0563(4)
C4D C -0.8662(7) 0.4840(4) 0.1399(5)
C5D C -0.9177(7) 0.3711(4) 0.0127(5)
C6D C -1.0095(7) 0.4677(4) 0.1877(5)
H1D H -0.875(7) 0.342(4) -0.037(5)
H2D H -0.811(8) 0.531(4) 0.164(6)
H3D H -1.219(8) 0.397(4) 0.175(6)
H4D H -0.633(7) 0.399(4) -0.065(5)
H5D H -1.054(8) 0.503(3) 0.243(5)
loop_
_geom_bond_atom_site_label_1
_geom_bond_atom_site_label_2
_geom_bond_site_symmetry_1
_geom_bond_site_symmetry_2
Hg1 I1 1_555 1_555
I2 Hg1 1_555 1_555
N1 C2 1_555 1_555
C1 C2 1_555 1_555
C2 H4 1_555 1_555
C3 N2 1_555 1_555
N2 Hg1 1_555 1_555
C4 C1 1_555 1_555
C5 C1 1_555 1_555
C6 C3 1_555 1_555
H1 C5 1_555 1_555
H2 C4 1_555 1_555
H3 C3 1_555 1_555
H5 C6 1_555 1_555
Hg1D N2D 1_555 1_555
N1D N1 1_555 1_555
C1D C2D 1_555 1_555
C2D N1D 1_555 1_555
C3D N2D 1_555 1_555
N2D C5D 1_555 1_555
N2F Hg1 1_555 1_555
C4D C1D 1_555 1_555
C5D C1D 1_555 1_555
C6D C3D 1_555 1_555
H1D C5D 1_555 1_555
H2D C4D 1_555 1_555
H3D C3D 1_555 1_555
H4D C2D 1_555 1_555
H5D C6D 1_555 1_555
N2 C5 1_555 1_555
C4 C6 1_555 1_555
C4D C6D 1_555 1_555

#END
