
#######################################################################
#
#                 Cambridge Crystallographic Data Centre
#                                CCDC 
#
#######################################################################
#
# If this CIF has been generated from an entry in the Cambridge 
# Structural Database, then it will include bibliographic, chemical, 
# crystal, experimental, refinement or atomic coordinate data resulting 
# from the CCDC's data processing and validation procedures.
#
#######################################################################

data_JIQYIS
_symmetry_cell_setting           monoclinic
_symmetry_space_group_name_H-M   'P 2/n'
_symmetry_Int_Tables_number      13
_space_group_name_Hall           '-P 2yac'
loop_
_symmetry_equiv_pos_site_id
_symmetry_equiv_pos_as_xyz
1 x,y,z
2 1/2-x,y,1/2-z
3 -x,-y,-z
4 1/2+x,-y,1/2+z
_cell_length_a                   8.1294(10)
_cell_length_b                   6.6407(10)
_cell_length_c                   15.5363(10)
_cell_angle_alpha                90
_cell_angle_beta                 99.081(10)
_cell_angle_gamma                90
_cell_volume                     828.213
loop_
_atom_site_label
_atom_site_type_symbol
_atom_site_fract_x
_atom_site_fract_y
_atom_site_fract_z
Hg1 Hg 0.2500 -0.00076(5) 0.2500
I1 I -0.03950(8) -0.10994(9) 0.16003(4)
C1 C 0.3855(10) 0.7913(11) 0.0048(5)
H1 H 0.3124 0.8125 -0.0468
C2 C 0.3662(9) 0.6155(10) 0.0567(4)
C3 C 0.4739(12) 0.5689(14) 0.1326(5)
H2 H 0.5672 0.6484 0.1507
C4 C 0.2348(12) 0.4804(11) 0.0292(6)
H3 H 0.1611 0.5029 -0.0221
N1 N 0.3165(8) 0.2748(10) 0.1548(3)
C5 C 0.2182(9) 0.3145(12) 0.0802(5)
H4 H 0.1325 0.2244 0.0612
N2 N 0.5024(10) 0.9192(10) 0.0288(4)
C6 C 0.4418(12) 0.4059(14) 0.1805(5)
H5 H 0.5097 0.3835 0.2336
Hg1C Hg 0.7500 2.00076(5) -0.2500
I1A I 0.53950(8) -0.10994(9) 0.33997(4)
C1B C 0.6145(10) 1.2087(11) -0.0048(5)
H1B H 0.6876 1.1875 0.0468
C2B C 0.6338(9) 1.3845(10) -0.0567(4)
C3B C 0.5261(12) 1.4311(14) -0.1326(5)
H2B H 0.4328 1.3516 -0.1507
C4B C 0.7652(12) 1.5196(11) -0.0292(6)
H3B H 0.8389 1.4971 0.0221
N1B N 0.6835(8) 1.7252(10) -0.1548(3)
N1A N 0.1835(8) 0.2748(10) 0.3452(3)
C5B C 0.7818(9) 1.6855(12) -0.0802(5)
H4B H 0.8675 1.7756 -0.0612
N2B N 0.4976(10) 1.0808(10) -0.0288(4)
C6B C 0.5582(12) 1.5941(14) -0.1805(5)
H5B H 0.4903 1.6165 -0.2336
loop_
_geom_bond_atom_site_label_1
_geom_bond_atom_site_label_2
_geom_bond_site_symmetry_1
_geom_bond_site_symmetry_2
Hg1 I1 1_555 1_555
C1 H1 1_555 1_555
C2 C1 1_555 1_555
C3 C2 1_555 1_555
H2 C3 1_555 1_555
C4 C2 1_555 1_555
H3 C4 1_555 1_555
N1 Hg1 1_555 1_555
C5 C4 1_555 1_555
H4 C5 1_555 1_555
N2 C1 1_555 1_555
C6 C3 1_555 1_555
H5 C6 1_555 1_555
Hg1C N1B 1_555 1_555
I1A Hg1 1_555 1_555
C1B H1B 1_555 1_555
C2B C1B 1_555 1_555
C3B C2B 1_555 1_555
H2B C3B 1_555 1_555
C4B C2B 1_555 1_555
H3B C4B 1_555 1_555
N1B C5B 1_555 1_555
N1A Hg1 1_555 1_555
C5B C4B 1_555 1_555
H4B C5B 1_555 1_555
N2B N2 1_555 1_555
C6B C3B 1_555 1_555
H5B C6B 1_555 1_555
N1 C5 1_555 1_555
N1 C6 1_555 1_555
C1B N2B 1_555 1_555
N1B C6B 1_555 1_555

#END
