
#######################################################################
#
#                 Cambridge Crystallographic Data Centre
#                                CCDC 
#
#######################################################################
#
# If this CIF has been generated from an entry in the Cambridge 
# Structural Database, then it will include bibliographic, chemical, 
# crystal, experimental, refinement or atomic coordinate data resulting 
# from the CCDC's data processing and validation procedures.
#
#######################################################################

data_JIQYOY
_symmetry_cell_setting           orthorhombic
_symmetry_space_group_name_H-M   'P n a 21'
_symmetry_Int_Tables_number      33
_space_group_name_Hall           'P 2c -2n'
loop_
_symmetry_equiv_pos_site_id
_symmetry_equiv_pos_as_xyz
1 x,y,z
2 -x,-y,1/2+z
3 1/2+x,1/2-y,z
4 1/2-x,1/2+y,1/2+z
_cell_length_a                   16.564(2)
_cell_length_b                   8.446(2)
_cell_length_c                   11.991(2)
_cell_angle_alpha                90
_cell_angle_beta                 90
_cell_angle_gamma                90
_cell_volume                     1677.54
loop_
_atom_site_label
_atom_site_type_symbol
_atom_site_fract_x
_atom_site_fract_y
_atom_site_fract_z
Zn1 Zn 0.20391(6) 0.06875(11) 0.84944(13)
N1 N 0.3014(5) 0.1925(8) 0.9097(7)
N2 N 0.4624(5) 0.6627(9) 0.8845(8)
N3 N 0.4635(4) 0.8041(8) 0.8212(8)
N4 N 0.6135(5) 1.2872(8) 0.7946(8)
C1 C 0.3497(6) 0.1311(12) 0.9879(11)
H1 H 0.3371 0.0315 1.0159
C2 C 0.4176(7) 0.2073(13) 1.0296(10)
H2 H 0.4481 0.1616 1.0862
C3 C 0.4386(6) 0.3514(11) 0.9856(9)
H3 H 0.4857 0.4023 1.0082
C4 C 0.3881(6) 0.4199(11) 0.9066(9)
C5 C 0.3206(5) 0.3388(9) 0.8712(10)
H4 H 0.2869 0.3862 0.8189
C6 C 0.4031(5) 0.5737(10) 0.8549(15)
H5 H 0.3686 0.6085 0.7988
C7 C 0.5180(5) 0.8973(8) 0.8564(15)
H6 H 0.5498 0.8675 0.9169
C8 C 0.5316(5) 1.0532(11) 0.8026(8)
C9 C 0.5942(5) 1.1460(10) 0.8400(13)
H7 H 0.6247 1.1096 0.8998
C10 C 0.5675(6) 1.3343(12) 0.7091(10)
H8 H 0.5812 1.4291 0.6746
C11 C 0.5028(6) 1.2555(12) 0.6690(11)
H9 H 0.4719 1.2971 0.6113
C12 C 0.4839(6) 1.1084(10) 0.7174(9)
H10 H 0.4401 1.0497 0.6922
O1 O 0.1549(4) 0.0287(7) 1.0059(5)
N5 N 0.2063(6) -0.2267(10) 0.7970(8)
O2 O 0.1453(4) -0.1468(8) 0.7825(7)
O3 O 0.2659(3) -0.1584(7) 0.8484(9)
O4 O 0.2112(5) -0.3646(7) 0.7686(8)
N6 N 0.2786(6) 0.1721(11) 0.6082(8)
O5 O 0.3252(5) 0.1461(11) 0.5291(8)
O6 O 0.2582(5) 0.0597(9) 0.6697(8)
O7 O 0.2542(5) 0.3066(10) 0.6276(7)
H13 H 0.1262 0.0741 1.0554
H14 H 0.1888 -0.0270 1.0419
Zn1B Zn 0.70391(6) 1.43125(11) 0.84944(13)
N4B N 0.1135(5) 0.2128(8) 0.7946(8)
O8 O 0.3683(4) 0.7999(8) 0.6164(5)
H11 H 0.3241 0.8266 0.6467
H12 H 0.3995 0.8064 0.6726
loop_
_geom_bond_atom_site_label_1
_geom_bond_atom_site_label_2
_geom_bond_site_symmetry_1
_geom_bond_site_symmetry_2
Zn1 N1 1_555 1_555
N1 C1 1_555 1_555
N2 N3 1_555 1_555
N3 C7 1_555 1_555
N4 C9 1_555 1_555
C1 H1 1_555 1_555
C2 C1 1_555 1_555
H2 C2 1_555 1_555
C3 C2 1_555 1_555
H3 C3 1_555 1_555
C4 C3 1_555 1_555
C5 N1 1_555 1_555
H4 C5 1_555 1_555
C6 N2 1_555 1_555
H5 C6 1_555 1_555
C7 H6 1_555 1_555
C8 C7 1_555 1_555
C9 C8 1_555 1_555
H7 C9 1_555 1_555
C10 N4 1_555 1_555
H8 C10 1_555 1_555
C11 C10 1_555 1_555
H9 C11 1_555 1_555
C12 C8 1_555 1_555
H10 C12 1_555 1_555
O1 Zn1 1_555 1_555
N5 O2 1_555 1_555
O2 Zn1 1_555 1_555
O3 Zn1 1_555 1_555
O4 N5 1_555 1_555
N6 O5 1_555 1_555
O6 Zn1 1_555 1_555
O7 N6 1_555 1_555
O8 H11 1_555 1_555
H12 O8 1_555 1_555
H13 O1 1_555 1_555
H14 O1 1_555 1_555
Zn1B N4 1_555 1_555
N4B Zn1 1_555 1_555
C4 C5 1_555 1_555
C4 C6 1_555 1_555
C11 C12 1_555 1_555
N5 O3 1_555 1_555
N6 O6 1_555 1_555

#END
