
#######################################################################
#
#                 Cambridge Crystallographic Data Centre
#                                CCDC 
#
#######################################################################
#
# If this CIF has been generated from an entry in the Cambridge 
# Structural Database, then it will include bibliographic, chemical, 
# crystal, experimental, refinement or atomic coordinate data resulting 
# from the CCDC's data processing and validation procedures.
#
#######################################################################

data_JIQYUE
_symmetry_cell_setting           triclinic
_symmetry_space_group_name_H-M   'P -1'
_symmetry_Int_Tables_number      2
_space_group_name_Hall           '-P 1'
loop_
_symmetry_equiv_pos_site_id
_symmetry_equiv_pos_as_xyz
1 x,y,z
2 -x,-y,-z
_cell_length_a                   7.9063(10)
_cell_length_b                   9.8847(10)
_cell_length_c                   11.6609(10)
_cell_angle_alpha                104.007(10)
_cell_angle_beta                 92.191(10)
_cell_angle_gamma                110.957(10)
_cell_volume                     817.857
loop_
_atom_site_label
_atom_site_type_symbol
_atom_site_fract_x
_atom_site_fract_y
_atom_site_fract_z
Ag1 Ag 0.13634(7) 0.42649(6) 0.04670(4)
N1 N -0.0335(6) 0.3144(6) 0.1638(4)
N2 N -0.3352(7) 0.3661(6) 0.5069(4)
N3 N -0.3538(7) 0.4762(6) 0.6016(4)
N4 N -0.6685(6) 0.5335(6) 0.9403(4)
C1 C -0.1006(10) 0.1648(8) 0.1403(6)
C2 C -0.2138(11) 0.0905(9) 0.2106(6)
C3 C -0.2600(9) 0.1717(8) 0.3085(6)
C4 C -0.1866(8) 0.3273(7) 0.3357(5)
C5 C -0.0748(8) 0.3945(7) 0.2606(5)
C6 C -0.2290(9) 0.4221(8) 0.4397(5)
C7 C -0.4680(9) 0.4186(8) 0.6669(5)
C8 C -0.4137(8) 0.6715(8) 0.8047(5)
C9 C -0.5050(8) 0.5159(7) 0.7722(5)
C10 C -0.6305(8) 0.4520(8) 0.8415(5)
C11 C -0.5780(9) 0.6818(8) 0.9708(6)
C12 C -0.4547(10) 0.7547(9) 0.9060(6)
H1 H -0.188(9) 0.526(8) 0.453(5)
H2 H -0.607(9) 0.739(7) 1.036(6)
H3 H -0.030(7) 0.505(7) 0.280(5)
H4 H -0.329(9) 0.714(7) 0.758(6)
H5 H -0.695(9) 0.343(8) 0.824(6)
H6 H -0.342(9) 0.122(7) 0.352(6)
H7 H -0.074(10) 0.118(8) 0.074(6)
H8 H -0.549(13) 0.311(11) 0.641(8)
H9 H -0.257(10) -0.010(9) 0.193(6)
H10 H -0.399(10) 0.850(9) 0.914(7)
Ag1_2 Ag -0.86366(7) 0.42649(6) 1.04670(4)
N4_2 N 0.3315(6) 0.5335(6) -0.0597(4)
C13 C -0.1376(12) 0.0768(8) -0.3558(7)
S1 S -0.1500(3) 0.15322(18) -0.19981(15)
O1 O -0.1352(9) 0.3015(6) -0.1905(5)
O2 O 0.0094(9) 0.1502(7) -0.1397(5)
O3 O -0.3150(9) 0.0550(7) -0.1773(6)
F1 F -0.297(3) 0.049(3) -0.413(2)
F2 F -0.013(3) 0.180(2) -0.391(3)
F3 F -0.106(4) -0.0472(19) -0.382(3)
F4? F -0.253(3) 0.089(4) -0.432(3)
F5? F 0.027(2) 0.138(3) -0.383(3)
F6? F -0.175(3) -0.0672(16) -0.371(3)
loop_
_geom_bond_atom_site_label_1
_geom_bond_atom_site_label_2
_geom_bond_site_symmetry_1
_geom_bond_site_symmetry_2
Ag1 N1 1_555 1_555
N1 C1 1_555 1_555
N2 N3 1_555 1_555
N3 C7 1_555 1_555
N4 C10 1_555 1_555
C1 C2 1_555 1_555
C2 C3 1_555 1_555
C3 C4 1_555 1_555
C4 C5 1_555 1_555
C5 N1 1_555 1_555
C6 N2 1_555 1_555
C7 C9 1_555 1_555
C8 C9 1_555 1_555
C9 C10 1_555 1_555
C10 H5 1_555 1_555
C11 N4 1_555 1_555
C12 C8 1_555 1_555
C13 S1 1_555 1_555
S1 O1 1_555 1_555
O2 S1 1_555 1_555
O3 S1 1_555 1_555
F1 C13 1_555 1_555
F2 C13 1_555 1_555
F3 C13 1_555 1_555
H1 C6 1_555 1_555
H2 C11 1_555 1_555
H3 C5 1_555 1_555
H4 C8 1_555 1_555
H6 C3 1_555 1_555
H7 C1 1_555 1_555
H8 C7 1_555 1_555
H9 C2 1_555 1_555
H10 C12 1_555 1_555
Ag1_2 N4 1_555 1_555
N4_2 Ag1 1_555 1_555
C4 C6 1_555 1_555
C11 C12 1_555 1_555

#END
