
#######################################################################
#
#                 Cambridge Crystallographic Data Centre
#                                CCDC 
#
#######################################################################
#
# If this CIF has been generated from an entry in the Cambridge 
# Structural Database, then it will include bibliographic, chemical, 
# crystal, experimental, refinement or atomic coordinate data resulting 
# from the CCDC's data processing and validation procedures.
#
#######################################################################

data_JIQZAL
_symmetry_cell_setting           monoclinic
_symmetry_space_group_name_H-M   'P 21/n'
_symmetry_Int_Tables_number      14
_space_group_name_Hall           '-P 2yn'
loop_
_symmetry_equiv_pos_site_id
_symmetry_equiv_pos_as_xyz
1 x,y,z
2 1/2-x,1/2+y,1/2-z
3 -x,-y,-z
4 1/2+x,1/2-y,1/2+z
_cell_length_a                   15.706
_cell_length_b                   7.837
_cell_length_c                   16.323
_cell_angle_alpha                90
_cell_angle_beta                 113.38
_cell_angle_gamma                90
_cell_volume                     1844.2
loop_
_atom_site_label
_atom_site_type_symbol
_atom_site_fract_x
_atom_site_fract_y
_atom_site_fract_z
S1 S -0.04988(5) 0.46818(8) 0.18216(4)
O1 O -0.05219(14) 0.4840(2) 0.09227(13)
C1 C -0.16639(17) 0.4808(3) 0.16955(15)
C2 C -0.3513(2) 0.4872(3) 0.1520(2)
O2 O -0.00245(13) 0.6082(3) 0.23969(14)
O3 O -0.01510(12) 0.3032(2) 0.22067(12)
C3 C -0.18981(19) 0.5579(4) 0.23385(17)
H1 H -0.1440 0.6073 0.2837
C4 C -0.4498(2) 0.4874(4) 0.1432(3)
H2 H -0.4880 0.4304 0.0890
H3 H -0.4706 0.6030 0.1417
H4 H -0.4538 0.4291 0.1932
C5 C -0.28097(19) 0.5615(4) 0.22408(18)
H5 H -0.2958 0.6158 0.2674
C6 C -0.23510(18) 0.4087(4) 0.09619(17)
H6 H -0.2203 0.3574 0.0522
C7 C -0.32585(19) 0.4127(4) 0.08801(19)
H7 H -0.3715 0.3638 0.0379
Zn1 Zn 0.5000 0.5000 0.5000
N1 N 0.35715(12) 0.5010(2) 0.48689(13)
C8 C 0.17174(15) 0.4877(3) 0.46506(16)
O4 O 0.45894(13) 0.5463(3) 0.36344(12)
O5 O 0.48247(12) 0.2378(2) 0.47648(13)
C9 C 0.07442(16) 0.4724(3) 0.45254(18)
H8 H 0.0314 0.4296 0.3990
C10 C 0.23833(15) 0.5700(3) 0.53813(16)
H9 H 0.2218 0.6219 0.5809
C11 C 0.20041(14) 0.4155(3) 0.40283(15)
H10 H 0.1579 0.3617 0.3524
C12 C 0.32885(15) 0.5734(3) 0.54615(15)
H11 H 0.3726 0.6288 0.5952
C13 C 0.29245(14) 0.4243(3) 0.41634(15)
H12 H 0.3107 0.3742 0.3743
N2 N 0.04787(13) 0.5157(3) 0.51268(15)
H18 H 0.476(2) 0.181(4) 0.5146(18)
H19 H 0.4759(19) 0.624(4) 0.3410(18)
H20 H 0.504(2) 0.176(4) 0.4531(19)
H21 H 0.428(2) 0.474(4) 0.323(2)
Zn1_2 Zn -0.5000 0.5000 0.5000
N1B N -0.35715(12) 0.4990(2) 0.51311(13)
N1B_2 N 0.64285(12) 0.4990(2) 0.51311(13)
C8B C -0.17174(15) 0.5123(3) 0.53494(16)
O4B O 0.54106(13) 0.4537(3) 0.63656(12)
O5B O 0.51753(12) 0.7622(2) 0.52352(13)
C9B C -0.07442(16) 0.5276(3) 0.54746(18)
H8B H -0.0314 0.5704 0.6010
C10B C -0.23833(15) 0.4300(3) 0.46187(16)
H9B H -0.2218 0.3781 0.4191
C11B C -0.20041(14) 0.5845(3) 0.59717(15)
H10B H -0.1579 0.6383 0.6476
C12B C -0.32885(15) 0.4266(3) 0.45385(15)
H11B H -0.3726 0.3712 0.4048
C13B C -0.29245(14) 0.5757(3) 0.58366(15)
H12B H -0.3107 0.6258 0.6257
N2B N -0.04787(13) 0.4843(3) 0.48732(15)
H18B H 0.524(2) 0.819(4) 0.4854(18)
H19B H 0.5241(19) 0.376(4) 0.6590(18)
H20B H 0.496(2) 0.824(4) 0.5469(19)
H21B H 0.572(2) 0.526(4) 0.677(2)
O6 O 0.35790(13) 0.3216(3) 0.24211(12)
C14 C 0.2155(3) 0.4483(6) 0.1528(3)
H13 H 0.1793 0.4904 0.0940
H14 H 0.2266 0.5391 0.1953
H15 H 0.1824 0.3578 0.1671
C15 C 0.3028(2) 0.3846(5) 0.1561(2)
H16 H 0.2916 0.2940 0.1126
H17 H 0.3357 0.4755 0.1409
H22 H 0.395(2) 0.261(4) 0.240(2)
loop_
_geom_bond_atom_site_label_1
_geom_bond_atom_site_label_2
_geom_bond_site_symmetry_1
_geom_bond_site_symmetry_2
S1 O1 1_555 1_555
C1 S1 1_555 1_555
C2 C4 1_555 1_555
O2 S1 1_555 1_555
O3 S1 1_555 1_555
C3 C1 1_555 1_555
H1 C3 1_555 1_555
C4 H2 1_555 1_555
H3 C4 1_555 1_555
H4 C4 1_555 1_555
C5 C2 1_555 1_555
H5 C5 1_555 1_555
C6 C1 1_555 1_555
H6 C6 1_555 1_555
C7 C2 1_555 1_555
H7 C7 1_555 1_555
Zn1 N1 1_555 1_555
N1 C12 1_555 1_555
C8 C9 1_555 1_555
O4 Zn1 1_555 1_555
O5 Zn1 1_555 1_555
C9 H8 1_555 1_555
C10 C8 1_555 1_555
H9 C10 1_555 1_555
C11 C8 1_555 1_555
H10 C11 1_555 1_555
C12 C10 1_555 1_555
H11 C12 1_555 1_555
C13 N1 1_555 1_555
H12 C13 1_555 1_555
N2 C9 1_555 1_555
O6 C15 1_555 1_555
C14 H13 1_555 1_555
H14 C14 1_555 1_555
H15 C14 1_555 1_555
C15 C14 1_555 1_555
H16 C15 1_555 1_555
H17 C15 1_555 1_555
H18 O5 1_555 1_555
H19 O4 1_555 1_555
H20 O5 1_555 1_555
H21 O4 1_555 1_555
H22 O6 1_555 1_555
Zn1_2 N1B 1_555 1_555
N1B C12B 1_555 1_555
N1B_2 Zn1 1_555 1_555
C8B C9B 1_555 1_555
O4B Zn1 1_555 1_555
O5B Zn1 1_555 1_555
C9B H8B 1_555 1_555
C10B C8B 1_555 1_555
H9B C10B 1_555 1_555
C11B C8B 1_555 1_555
H10B C11B 1_555 1_555
C12B C10B 1_555 1_555
H11B C12B 1_555 1_555
C13B N1B 1_555 1_555
H12B C13B 1_555 1_555
N2B N2 1_555 1_555
H18B O5B 1_555 1_555
H19B O4B 1_555 1_555
H20B O5B 1_555 1_555
H21B O4B 1_555 1_555
C3 C5 1_555 1_555
C6 C7 1_555 1_555
C11 C13 1_555 1_555
C9B N2B 1_555 1_555
C11B C13B 1_555 1_555

#END
