
#######################################################################
#
#                 Cambridge Crystallographic Data Centre
#                                CCDC 
#
#######################################################################
#
# If this CIF has been generated from an entry in the Cambridge 
# Structural Database, then it will include bibliographic, chemical, 
# crystal, experimental, refinement or atomic coordinate data resulting 
# from the CCDC's data processing and validation procedures.
#
#######################################################################

data_JIRNUT
_symmetry_cell_setting           monoclinic
_symmetry_space_group_name_H-M   'P 21/c'
_symmetry_Int_Tables_number      14
_space_group_name_Hall           '-P 2ybc'
loop_
_symmetry_equiv_pos_site_id
_symmetry_equiv_pos_as_xyz
1 x,y,z
2 -x,1/2+y,1/2-z
3 -x,-y,-z
4 x,1/2-y,1/2+z
_cell_length_a                   8.161(1)
_cell_length_b                   23.751(1)
_cell_length_c                   11.6946(6)
_cell_angle_alpha                90
_cell_angle_beta                 93.026(8)
_cell_angle_gamma                90
_cell_volume                     2263.63
loop_
_atom_site_label
_atom_site_type_symbol
_atom_site_fract_x
_atom_site_fract_y
_atom_site_fract_z
Mn1 Mn 0.24352(8) 0.50589(2) -0.07301(5)
P1 P 0.4548(1) 0.56443(4) 0.15479(9)
P2 P 0.0671(1) 0.41106(4) 0.10261(9)
O1 O 0.3751(4) 0.5571(1) 0.0365(3)
O2 O 0.6003(3) 0.5270(1) 0.1852(2)
O3 O 0.1429(4) 0.4379(1) 0.0015(3)
O4 O -0.0778(4) 0.4415(1) 0.1495(3)
C1 C 0.5174(5) 0.6364(2) 0.1729(4)
C2 C 0.4623(7) 0.6786(2) 0.0989(5)
C3 C 0.507(1) 0.7338(2) 0.1222(6)
C4 C 0.6047(8) 0.7473(2) 0.2161(6)
C5 C 0.6585(7) 0.7061(2) 0.2896(5)
C6 C 0.6157(7) 0.6502(2) 0.2683(4)
C7 C 0.3053(5) 0.5562(5) 0.2601(4)
C8 C 0.3461(6) 0.5364(2) 0.3691(4)
C9 C 0.2320(8) 0.5361(3) 0.4503(5)
C10 C 0.0748(9) 0.5550(3) 0.4232(6)
C11 C 0.0310(8) 0.5733(4) 0.3155(7)
C12 C 0.1467(7) 0.5741(3) 0.2344(5)
C13 C 0.0041(5) 0.3408(2) 0.0645(4)
C14 C 0.0632(7) 0.3132(2) -0.0289(4)
C15 C 0.0163(8) 0.2577(2) -0.0530(6)
C16 C -0.0858(8) 0.2299(2) 0.0142(7)
C17 C -0.1450(8) 0.2562(3) 0.1067(6)
C18 C -0.1018(7) 0.3118(2) 0.1328(4)
C19 C 0.2201(5) 0.4023(2) 0.2167(4)
C20 C 0.1711(6) 0.3919(2) 0.3281(4)
C21 C 0.2883(8) 0.3825(2) 0.4155(4)
C22 C 0.4517(8) 0.3848(2) 0.3957(5)
C23 C 0.5023(6) 0.3961(2) 0.2878(5)
C24 C 0.3853(6) 0.4046(2) 0.1983(4)
H1 H 0.3923 0.6695 0.0307
H2 H 0.4681 0.7638 0.0700
H3 H 0.6361 0.7866 0.2308
H4 H 0.7276 0.7158 0.3579
H5 H 0.6556 0.6207 0.3212
H6 H 0.4573 0.5225 0.3881
H7 H 0.2616 0.5225 0.5278
H8 H -0.0062 0.5552 0.4821
H9 H -0.0816 0.5857 0.2962
H10 H 0.1161 0.5875 0.1570
H11 H 0.1382 0.3327 -0.0784
H12 H 0.0583 0.2387 -0.1198
H13 H -0.1172 0.1909 -0.0036
H14 H -0.2189 0.2359 0.1557
H15 H -0.1462 0.3304 0.1992
H16 H 0.0543 0.3912 0.3437
H17 H 0.2539 0.3740 0.4926
H18 H 0.5333 0.3784 0.4589
H19 H 0.6195 0.3980 0.2740
H20 H 0.4211 0.4124 0.1212
O2B O 0.3997(3) 0.4730(1) -0.1852(2)
O4B O 0.0778(4) 0.5585(1) -0.1495(3)
Mn1B Mn 0.75648(8) 0.49411(2) 0.07301(5)
Mn1B_2 Mn -0.24352(8) 0.49411(2) 0.07301(5)
loop_
_geom_bond_atom_site_label_1
_geom_bond_atom_site_label_2
_geom_bond_site_symmetry_1
_geom_bond_site_symmetry_2
Mn1 O1 1_555 1_555
P1 O1 1_555 1_555
P2 O3 1_555 1_555
O2 P1 1_555 1_555
O3 Mn1 1_555 1_555
O4 P2 1_555 1_555
C1 P1 1_555 1_555
C2 C1 1_555 1_555
C3 C2 1_555 1_555
C4 C3 1_555 1_555
C5 C4 1_555 1_555
C6 C1 1_555 1_555
C7 P1 1_555 1_555
C8 C7 1_555 1_555
C9 C8 1_555 1_555
C10 C9 1_555 1_555
C11 C10 1_555 1_555
C12 C7 1_555 1_555
C13 P2 1_555 1_555
C14 C13 1_555 1_555
C15 C14 1_555 1_555
C16 C15 1_555 1_555
C17 C16 1_555 1_555
C18 C13 1_555 1_555
C19 P2 1_555 1_555
C20 C19 1_555 1_555
C21 C20 1_555 1_555
C22 C21 1_555 1_555
C23 C22 1_555 1_555
C24 C19 1_555 1_555
H1 C2 1_555 1_555
H2 C3 1_555 1_555
H3 C4 1_555 1_555
H4 C5 1_555 1_555
H5 C6 1_555 1_555
H6 C8 1_555 1_555
H7 C9 1_555 1_555
H8 C10 1_555 1_555
H9 C11 1_555 1_555
H10 C12 1_555 1_555
H11 C14 1_555 1_555
H12 C15 1_555 1_555
H13 C16 1_555 1_555
H14 C17 1_555 1_555
H15 C18 1_555 1_555
H16 C20 1_555 1_555
H17 C21 1_555 1_555
H18 C22 1_555 1_555
H19 C23 1_555 1_555
H20 C24 1_555 1_555
O2B Mn1 1_555 1_555
O4B Mn1 1_555 1_555
Mn1B O2 1_555 1_555
Mn1B_2 O4 1_555 1_555
C5 C6 1_555 1_555
C11 C12 1_555 1_555
C17 C18 1_555 1_555
C23 C24 1_555 1_555

#END
