
#######################################################################
#
#                 Cambridge Crystallographic Data Centre
#                                CCDC 
#
#######################################################################
#
# If this CIF has been generated from an entry in the Cambridge 
# Structural Database, then it will include bibliographic, chemical, 
# crystal, experimental, refinement or atomic coordinate data resulting 
# from the CCDC's data processing and validation procedures.
#
#######################################################################

data_JIRNII
_symmetry_cell_setting           triclinic
_symmetry_space_group_name_H-M   'P -1'
_symmetry_Int_Tables_number      2
_space_group_name_Hall           '-P 1'
loop_
_symmetry_equiv_pos_site_id
_symmetry_equiv_pos_as_xyz
1 x,y,z
2 -x,-y,-z
_cell_length_a                   8.0149(7)
_cell_length_b                   9.2527(8)
_cell_length_c                   9.5534(8)
_cell_angle_alpha                103.0310(10)
_cell_angle_beta                 106.9380(10)
_cell_angle_gamma                106.3030(10)
_cell_volume                     612.984
loop_
_atom_site_label
_atom_site_type_symbol
_atom_site_fract_x
_atom_site_fract_y
_atom_site_fract_z
Cd1 Cd -0.01334(2) 0.708160(18) 0.083907(17)
Cl1 Cl 0.21650(8) 0.54146(7) 0.15382(6)
S1 S 0.24401(10) 0.85341(8) -0.01728(8)
N1 N 0.1456(3) 0.8904(2) 0.3396(2)
N2 N -0.1540(3) 0.6170(2) 0.2488(2)
N3 N 0.1891(3) 1.1390(3) -0.0190(3)
C1 C 0.1040(3) 0.8435(3) 0.4520(3)
C2 C 0.2818(4) 1.0323(3) 0.3798(3)
H1 H 0.3098 1.0653 0.3015
C3 C 0.3825(4) 1.1320(3) 0.5309(3)
H2 H 0.4745 1.2309 0.5541
C4 C 0.3443(4) 1.0821(3) 0.6458(3)
H3 H 0.4121 1.1456 0.7494
C5 C 0.2046(4) 0.9373(3) 0.6070(3)
H4 H 0.1773 0.9019 0.6843
C6 C -0.0585(3) 0.6910(3) 0.4026(3)
C7 C -0.3088(4) 0.4864(3) 0.2000(3)
H5 H -0.3752 0.4357 0.0937
C8 C -0.3741(4) 0.4236(3) 0.2989(4)
H6 H -0.4840 0.3336 0.2606
C9 C -0.2746(4) 0.4957(4) 0.4556(4)
H7 H -0.3144 0.4539 0.5253
C10 C -0.1153(4) 0.6307(3) 0.5087(3)
H8 H -0.0462 0.6812 0.6147
C11 C 0.2091(3) 1.0209(3) -0.0175(3)
Cd1A Cd 0.01334(2) 0.291840(18) -0.083907(17)
Cd1A_2 Cd 0.01334(2) 1.291840(18) -0.083907(17)
Cl1A Cl -0.21650(8) 0.45854(7) -0.15382(6)
N3A N -0.1891(3) 0.8610(3) 0.0190(3)
loop_
_geom_bond_atom_site_label_1
_geom_bond_atom_site_label_2
_geom_bond_site_symmetry_1
_geom_bond_site_symmetry_2
Cd1 Cl1 1_555 1_555
Cl1 Cd1A 1_555 1_555
S1 Cd1 1_555 1_555
N1 Cd1 1_555 1_555
N2 Cd1 1_555 1_555
N3 C11 1_555 1_555
C1 N1 1_555 1_555
C2 N1 1_555 1_555
H1 C2 1_555 1_555
C3 C2 1_555 1_555
H2 C3 1_555 1_555
C4 C3 1_555 1_555
H3 C4 1_555 1_555
C5 C1 1_555 1_555
H4 C5 1_555 1_555
C6 N2 1_555 1_555
C7 N2 1_555 1_555
H5 C7 1_555 1_555
C8 C7 1_555 1_555
H6 C8 1_555 1_555
C9 C8 1_555 1_555
H7 C9 1_555 1_555
C10 C6 1_555 1_555
H8 C10 1_555 1_555
C11 S1 1_555 1_555
Cd1A Cl1A 1_555 1_555
Cd1A_2 N3 1_555 1_555
Cl1A Cd1 1_555 1_555
N3A Cd1 1_555 1_555
C1 C6 1_555 1_555
C4 C5 1_555 1_555
C9 C10 1_555 1_555

#END
