
#######################################################################
#
#                 Cambridge Crystallographic Data Centre
#                                CCDC 
#
#######################################################################
#
# If this CIF has been generated from an entry in the Cambridge 
# Structural Database, then it will include bibliographic, chemical, 
# crystal, experimental, refinement or atomic coordinate data resulting 
# from the CCDC's data processing and validation procedures.
#
#######################################################################

data_JIRNOO
_symmetry_cell_setting           monoclinic
_symmetry_space_group_name_H-M   'P 21/c'
_symmetry_Int_Tables_number      14
_space_group_name_Hall           '-P 2ybc'
loop_
_symmetry_equiv_pos_site_id
_symmetry_equiv_pos_as_xyz
1 x,y,z
2 -x,1/2+y,1/2-z
3 -x,-y,-z
4 x,1/2-y,1/2+z
_cell_length_a                   7.3482(11)
_cell_length_b                   35.825(4)
_cell_length_c                   7.8986(12)
_cell_angle_alpha                90
_cell_angle_beta                 106.906(12)
_cell_angle_gamma                90
_cell_volume                     1989.44
loop_
_atom_site_label
_atom_site_type_symbol
_atom_site_fract_x
_atom_site_fract_y
_atom_site_fract_z
Ni1 Ni 0.82244(5) 0.185119(10) 0.64973(5)
C1 C 0.8131(4) 0.25886(9) 0.4786(4)
C2 C 0.6213(4) 0.24791(9) 0.4585(4)
C3 C 0.4735(5) 0.27022(10) 0.3964(5)
H1 H 0.4856 0.2952 0.3690
C4 C 0.3081(5) 0.25400(11) 0.3767(5)
H2 H 0.1971 0.2678 0.3336
C5 C 0.2962(5) 0.21686(11) 0.4191(5)
H3 H 0.1771 0.2058 0.3971
C6 C 0.4508(4) 0.19662(9) 0.4903(4)
C7 C 0.4676(5) 0.15682(9) 0.5624(4)
C8 C 1.1226(5) 0.15194(10) 0.9717(5)
H4 H 1.1054 0.1726 1.0368
C9 C 1.2380(5) 0.12336(11) 1.0570(5)
H5 H 1.3003 0.1241 1.1777
C10 C 1.2557(5) 0.09312(10) 0.9510(5)
H6 H 1.3311 0.0731 1.0051
C11 C 1.1607(4) 0.09087(8) 0.7554(4)
C12 C 1.1744(4) 0.06117(9) 0.6383(5)
C13 C 1.2856(5) 0.00363(9) 0.5917(6)
C14 C 1.3943(5) -0.02765(10) 0.6627(6)
H7 H 1.4562 -0.0296 0.7831
C15 C 1.4053(6) -0.05583(11) 0.5437(7)
H8 H 1.4778 -0.0768 0.5897
C16 C 1.3118(6) -0.05511(11) 0.3517(7)
H9 H 1.3262 -0.0751 0.2818
C17 C 1.2049(6) -0.02541(11) 0.2768(7)
H10 H 1.1439 -0.0243 0.1559
C18 C 1.1903(5) 0.00476(10) 0.3955(6)
C19 C 1.0778(4) 0.06153(9) 0.4384(5)
C20 C 0.9642(4) 0.09347(9) 0.3624(5)
C21 C 0.8637(5) 0.09625(11) 0.1724(5)
H11 H 0.8718 0.0771 0.0955
C22 C 0.7602(5) 0.12692(11) 0.1118(5)
H12 H 0.6959 0.1302 -0.0075
C23 C 0.7549(5) 0.15433(10) 0.2423(5)
H13 H 0.6824 0.1755 0.2018
C24 C 0.9509(4) 0.12229(9) 0.4840(4)
C25 C 1.0507(4) 0.12140(8) 0.6841(4)
N1 N 0.6076(3) 0.21282(7) 0.5092(4)
N2 N 1.0299(4) 0.15092(7) 0.7891(4)
N3 N 0.8472(4) 0.15269(7) 0.4247(4)
N4 N 1.2762(4) 0.03168(8) 0.7101(4)
N5 N 1.0869(4) 0.03420(8) 0.3203(4)
O1 O 0.8402(3) 0.28967(6) 0.4126(3)
O2 O 0.9272(3) 0.23526(6) 0.5597(3)
O3 O 0.3351(3) 0.13674(7) 0.5182(4)
O4 O 0.6220(3) 0.14774(6) 0.6653(3)
Ni1C Ni 0.82244(5) 0.314881(10) 0.14973(5)
O1C O 0.8402(3) 0.21033(6) 0.9126(3)
loop_
_geom_bond_atom_site_label_1
_geom_bond_atom_site_label_2
_geom_bond_site_symmetry_1
_geom_bond_site_symmetry_2
Ni1 N1 1_555 1_555
C1 C2 1_555 1_555
C2 C3 1_555 1_555
C3 H1 1_555 1_555
C4 C3 1_555 1_555
H2 C4 1_555 1_555
C5 C4 1_555 1_555
H3 C5 1_555 1_555
C6 C5 1_555 1_555
C7 C6 1_555 1_555
C8 H4 1_555 1_555
C9 C8 1_555 1_555
H5 C9 1_555 1_555
C10 C9 1_555 1_555
H6 C10 1_555 1_555
C11 C10 1_555 1_555
C12 C11 1_555 1_555
C13 C14 1_555 1_555
C14 H7 1_555 1_555
C15 C14 1_555 1_555
H8 C15 1_555 1_555
C16 C15 1_555 1_555
H9 C16 1_555 1_555
C17 C16 1_555 1_555
H10 C17 1_555 1_555
C18 C13 1_555 1_555
C19 C12 1_555 1_555
C20 C19 1_555 1_555
C21 C20 1_555 1_555
H11 C21 1_555 1_555
C22 C21 1_555 1_555
H12 C22 1_555 1_555
C23 C22 1_555 1_555
H13 C23 1_555 1_555
C24 C20 1_555 1_555
C25 C11 1_555 1_555
N1 C2 1_555 1_555
N2 Ni1 1_555 1_555
N3 Ni1 1_555 1_555
N4 C12 1_555 1_555
N5 C18 1_555 1_555
O1 C1 1_555 1_555
O2 Ni1 1_555 1_555
O3 C7 1_555 1_555
O4 Ni1 1_555 1_555
Ni1C O1 1_555 1_555
O1C Ni1 1_555 1_555
C1 O2 1_555 1_555
C6 N1 1_555 1_555
C7 O4 1_555 1_555
C8 N2 1_555 1_555
C13 N4 1_555 1_555
C17 C18 1_555 1_555
C19 N5 1_555 1_555
C23 N3 1_555 1_555
C24 C25 1_555 1_555
C24 N3 1_555 1_555
C25 N2 1_555 1_555

#END
