
#######################################################################
#
#                 Cambridge Crystallographic Data Centre
#                                CCDC 
#
#######################################################################
#
# If this CIF has been generated from an entry in the Cambridge 
# Structural Database, then it will include bibliographic, chemical, 
# crystal, experimental, refinement or atomic coordinate data resulting 
# from the CCDC's data processing and validation procedures.
#
#######################################################################

data_JIRNEE
_symmetry_cell_setting           monoclinic
_symmetry_space_group_name_H-M   'C 2/c'
_symmetry_Int_Tables_number      15
_space_group_name_Hall           '-C 2yn'
loop_
_symmetry_equiv_pos_site_id
_symmetry_equiv_pos_as_xyz
1 x,y,z
2 1/2+x,1/2+y,z
3 -x,y,1/2-z
4 1/2-x,1/2+y,1/2-z
5 -x,-y,-z
6 1/2-x,1/2-y,-z
7 x,-y,1/2+z
8 1/2+x,1/2-y,1/2+z
_cell_length_a                   26.262(3)
_cell_length_b                   7.1677(7)
_cell_length_c                   10.3351(8)
_cell_angle_alpha                90
_cell_angle_beta                 108.687(3)
_cell_angle_gamma                90
_cell_volume                     1842.9
loop_
_atom_site_label
_atom_site_type_symbol
_atom_site_fract_x
_atom_site_fract_y
_atom_site_fract_z
Li1 Li 0.02010(13) -0.0544(5) 0.8937(3)
O1 O 0.07068(5) 0.0609(2) 0.81992(13)
O2 O 0.04460(5) 0.07209(19) 0.59259(13)
O3 O 0.15480(5) 0.2895(2) 0.94946(12)
O4 O 0.08880(6) 0.4919(2) 0.84472(15)
O5 O 0.0000 -0.2690(3) 0.7500
H1 H -0.0303(10) -0.344(4) 0.720(3)
C1 C 0.07898(8) 0.0987(3) 0.70955(19)
C2 C 0.13287(8) 0.1787(3) 0.71430(19)
C3 C 0.14939(8) 0.1647(3) 0.5987(2)
H2 H 0.1271 0.1017 0.5200
C4 C 0.19762(8) 0.2409(3) 0.5971(2)
H3 H 0.2078 0.2315 0.5171
C5 C 0.23108(8) 0.3308(3) 0.7114(2)
H4 H 0.2642 0.3825 0.7101
C6 C 0.21580(8) 0.3448(3) 0.8274(2)
H5 H 0.2386 0.4053 0.9066
C7 C 0.16743(8) 0.2705(3) 0.82760(19)
C8 C 0.11093(9) 0.3965(3) 0.9424(2)
C9 C 0.09594(10) 0.3782(3) 1.0690(2)
H6 H 0.0704 0.4768 1.0712
H7 H 0.1282 0.3899 1.1490
H8 H 0.0794 0.2560 1.0702
Li1F Li 0.02010(13) 0.0544(5) 1.3937(3)
Li1F_2 Li 0.02010(13) 0.0544(5) 0.3937(3)
Li1B Li -0.02010(13) -0.0544(5) 0.6063(3)
Li1D Li -0.02010(13) 0.0544(5) 1.1063(3)
O1F O 0.07068(5) -0.0609(2) 1.31992(13)
O2F O 0.04460(5) -0.07209(19) 1.09259(13)
O2B O -0.04460(5) 0.07209(19) 0.90741(13)
O2_2 O 0.04460(5) 0.07209(19) 1.59259(13)
O2D O -0.04460(5) -0.07209(19) 1.40741(13)
O3F O 0.15480(5) -0.2895(2) 1.44946(12)
O4F O 0.08880(6) -0.4919(2) 1.34472(15)
O5F O 0.0000 0.2690(3) 1.2500
H1B H 0.0303(10) -0.344(4) 0.780(3)
H1F H -0.0303(10) 0.344(4) 1.220(3)
H1D H 0.0303(10) 0.344(4) 1.280(3)
C1F C 0.07898(8) -0.0987(3) 1.20955(19)
C2F C 0.13287(8) -0.1787(3) 1.21430(19)
C3F C 0.14939(8) -0.1647(3) 1.0987(2)
H2F H 0.1271 -0.1017 1.0200
C4F C 0.19762(8) -0.2409(3) 1.0971(2)
H3F H 0.2078 -0.2315 1.0171
C5F C 0.23108(8) -0.3308(3) 1.2114(2)
H4F H 0.2642 -0.3825 1.2101
C6F C 0.21580(8) -0.3448(3) 1.3274(2)
H5F H 0.2386 -0.4053 1.4066
C7F C 0.16743(8) -0.2705(3) 1.32760(19)
C8F C 0.11093(9) -0.3965(3) 1.4424(2)
C9F C 0.09594(10) -0.3782(3) 1.5690(2)
H6F H 0.0704 -0.4768 1.5712
H7F H 0.1282 -0.3899 1.6490
H8F H 0.0794 -0.2560 1.5702
loop_
_geom_bond_atom_site_label_1
_geom_bond_atom_site_label_2
_geom_bond_site_symmetry_1
_geom_bond_site_symmetry_2
Li1 O1 1_555 1_555
O1 C1 1_555 1_555
O2 C1 1_555 1_555
O3 C7 1_555 1_555
O4 C8 1_555 1_555
O5 Li1 1_555 1_555
H1 O5 1_555 1_555
C1 C2 1_555 1_555
C2 C3 1_555 1_555
C3 H2 1_555 1_555
C4 C3 1_555 1_555
H3 C4 1_555 1_555
C5 C4 1_555 1_555
H4 C5 1_555 1_555
C6 C5 1_555 1_555
H5 C6 1_555 1_555
C7 C2 1_555 1_555
C8 O3 1_555 1_555
C9 C8 1_555 1_555
H6 C9 1_555 1_555
H7 C9 1_555 1_555
H8 C9 1_555 1_555
Li1F O1F 1_555 1_555
Li1F_2 O2 1_555 1_555
Li1B O2 1_555 1_555
Li1D O2F 1_555 1_555
O1F C1F 1_555 1_555
O2F Li1 1_555 1_555
O2B Li1 1_555 1_555
O2_2 Li1F 1_555 1_555
O2D Li1F 1_555 1_555
O3F C7F 1_555 1_555
O4F C8F 1_555 1_555
O5F Li1F 1_555 1_555
H1B O5 1_555 1_555
H1F O5F 1_555 1_555
H1D O5F 1_555 1_555
C1F O2F 1_555 1_555
C2F C1F 1_555 1_555
C3F C2F 1_555 1_555
H2F C3F 1_555 1_555
C4F C3F 1_555 1_555
H3F C4F 1_555 1_555
C5F C4F 1_555 1_555
H4F C5F 1_555 1_555
C6F C5F 1_555 1_555
H5F C6F 1_555 1_555
C7F C2F 1_555 1_555
C8F O3F 1_555 1_555
C9F C8F 1_555 1_555
H6F C9F 1_555 1_555
H7F C9F 1_555 1_555
H8F C9F 1_555 1_555
O5 Li1B 1_555 1_555
C6 C7 1_555 1_555
Li1D O2B 1_555 1_555
Li1D O5F 1_555 1_555
C6F C7F 1_555 1_555

#END
