
#######################################################################
#
#                 Cambridge Crystallographic Data Centre
#                                CCDC 
#
#######################################################################
#
# If this CIF has been generated from an entry in the Cambridge 
# Structural Database, then it will include bibliographic, chemical, 
# crystal, experimental, refinement or atomic coordinate data resulting 
# from the CCDC's data processing and validation procedures.
#
#######################################################################

data_JIRNON
_symmetry_cell_setting           monoclinic
_symmetry_space_group_name_H-M   'P 21/c'
_symmetry_Int_Tables_number      14
_space_group_name_Hall           '-P 2ybc'
loop_
_symmetry_equiv_pos_site_id
_symmetry_equiv_pos_as_xyz
1 x,y,z
2 -x,1/2+y,1/2-z
3 -x,-y,-z
4 x,1/2-y,1/2+z
_cell_length_a                   8.080(2)
_cell_length_b                   23.550(6)
_cell_length_c                   11.726(3)
_cell_angle_alpha                90
_cell_angle_beta                 92.88(2)
_cell_angle_gamma                90
_cell_volume                     2228.45
loop_
_atom_site_label
_atom_site_type_symbol
_atom_site_fract_x
_atom_site_fract_y
_atom_site_fract_z
Co1 Co 0.24621(4) 0.50596(1) 0.43267(3)
P1 P 0.45808(8) 0.56285(3) 0.65155(6)
P2 P 0.06473(8) 0.41352(3) 0.60026(6)
O1 O 0.3750(2) 0.55690(8) 0.5339(2)
O2 O 0.6041(2) 0.52429(8) 0.6793(1)
O3 O 0.1477(2) 0.43902(8) 0.5001(2)
O4 O -0.0802(2) 0.44552(8) 0.6447(2)
C1 C 0.5233(3) 0.6353(1) 0.6707(2)
C2 C 0.4722(5) 0.6779(1) 0.5974(3)
C3 C 0.5180(6) 0.7337(2) 0.6207(4)
C4 C 0.6135(5) 0.7466(2) 0.7168(4)
C5 C 0.6647(5) 0.7044(2) 0.7908(3)
C6 C 0.6207(4) 0.6493(1) 0.7676(3)
C7 C 0.3085(3) 0.5543(1) 0.7575(2)
C8 C 0.1471(4) 0.5710(2) 0.7322(3)
C9 C 0.0326(5) 0.5700(2) 0.8152(4)
C10 C 0.0786(5) 0.5540(2) 0.9236(4)
C11 C 0.2371(5) 0.5365(2) 0.9501(3)
C12 C 0.3520(4) 0.5364(1) 0.8674(3)
C13 C -0.0019(3) 0.3425(1) 0.5625(2)
C14 C 0.0573(4) 0.3147(1) 0.4693(2)
C15 C 0.0089(6) 0.2589(2) 0.4456(4)
C16 C -0.0938(6) 0.2315(2) 0.5150(5)
C17 C -0.1534(5) 0.2582(2) 0.6080(4)
C18 C -0.1082(5) 0.3136(2) 0.6304(3)
C19 C 0.2154(3) 0.4038(1) 0.7167(2)
C20 C 0.3838(4) 0.4052(1) 0.6993(3)
C21 C 0.4963(4) 0.3959(1) 0.7910(4)
C22 C 0.4434(5) 0.3844(1) 0.8973(3)
C23 C 0.2769(5) 0.3825(2) 0.9151(3)
C24 C 0.1624(4) 0.3928(1) 0.8262(3)
H1 H 0.404(4) 0.672(1) 0.534(3)
H2 H 0.487(6) 0.759(2) 0.563(4)
H3 H 0.644(5) 0.782(2) 0.728(3)
H4 H 0.722(5) 0.716(2) 0.847(3)
H5 H 0.647(4) 0.622(1) 0.818(3)
H6 H 0.121(5) 0.585(2) 0.664(3)
H7 H -0.082(6) 0.584(2) 0.792(4)
H8 H 0.004(4) 0.554(2) 0.985(3)
H9 H 0.276(4) 0.525(1) 1.022(3)
H10 H 0.463(4) 0.529(1) 0.888(2)
H11 H 0.138(4) 0.333(1) 0.426(3)
H12 H 0.045(5) 0.243(2) 0.380(3)
H13 H -0.115(5) 0.198(2) 0.498(3)
H14 H -0.220(5) 0.240(2) 0.657(3)
H15 H -0.152(4) 0.332(2) 0.691(3)
H16 H 0.422(3) 0.413(1) 0.626(2)
H17 H 0.596(5) 0.400(2) 0.777(3)
H18 H 0.521(5) 0.376(2) 0.958(3)
H19 H 0.227(5) 0.374(2) 0.988(3)
H20 H 0.046(4) 0.390(2) 0.841(3)
O2B O 0.3959(2) 0.47571(8) 0.3207(1)
O4B O 0.0802(2) 0.55448(8) 0.3553(2)
Co1B Co 0.75379(4) 0.49404(1) 0.56733(3)
Co1B_2 Co -0.24621(4) 0.49404(1) 0.56733(3)
loop_
_geom_bond_atom_site_label_1
_geom_bond_atom_site_label_2
_geom_bond_site_symmetry_1
_geom_bond_site_symmetry_2
Co1 O1 1_555 1_555
P1 O1 1_555 1_555
P2 O3 1_555 1_555
O2 P1 1_555 1_555
O3 Co1 1_555 1_555
O4 P2 1_555 1_555
C1 P1 1_555 1_555
C2 C1 1_555 1_555
C3 C2 1_555 1_555
C4 C3 1_555 1_555
C5 C4 1_555 1_555
C6 C1 1_555 1_555
C7 P1 1_555 1_555
C8 C7 1_555 1_555
C9 C8 1_555 1_555
C10 C9 1_555 1_555
C11 C10 1_555 1_555
C12 C7 1_555 1_555
C13 P2 1_555 1_555
C14 C13 1_555 1_555
C15 C14 1_555 1_555
C16 C15 1_555 1_555
C17 C16 1_555 1_555
C18 C13 1_555 1_555
C19 P2 1_555 1_555
C20 C19 1_555 1_555
C21 C20 1_555 1_555
C22 C21 1_555 1_555
C23 C22 1_555 1_555
C24 C19 1_555 1_555
H1 C2 1_555 1_555
H2 C3 1_555 1_555
H3 C4 1_555 1_555
H4 C5 1_555 1_555
H5 C6 1_555 1_555
H6 C8 1_555 1_555
H7 C9 1_555 1_555
H8 C10 1_555 1_555
H9 C11 1_555 1_555
H10 C12 1_555 1_555
H11 C14 1_555 1_555
H12 C15 1_555 1_555
H13 C16 1_555 1_555
H14 C17 1_555 1_555
H15 C18 1_555 1_555
H16 C20 1_555 1_555
H17 C21 1_555 1_555
H18 C22 1_555 1_555
H19 C23 1_555 1_555
H20 C24 1_555 1_555
O2B Co1 1_555 1_555
O4B Co1 1_555 1_555
Co1B O2 1_555 1_555
Co1B_2 O4 1_555 1_555
C5 C6 1_555 1_555
C11 C12 1_555 1_555
C17 C18 1_555 1_555
C23 C24 1_555 1_555

#END
