
#######################################################################
#
#                 Cambridge Crystallographic Data Centre
#                                CCDC 
#
#######################################################################
#
# If this CIF has been generated from an entry in the Cambridge 
# Structural Database, then it will include bibliographic, chemical, 
# crystal, experimental, refinement or atomic coordinate data resulting 
# from the CCDC's data processing and validation procedures.
#
#######################################################################

data_JIRPUW
_symmetry_cell_setting           monoclinic
_symmetry_space_group_name_H-M   'P 21/c'
_symmetry_Int_Tables_number      14
_space_group_name_Hall           '-P 2ybc'
loop_
_symmetry_equiv_pos_site_id
_symmetry_equiv_pos_as_xyz
1 x,y,z
2 -x,1/2+y,1/2-z
3 -x,-y,-z
4 x,1/2-y,1/2+z
_cell_length_a                   15.9395(7)
_cell_length_b                   6.2397(2)
_cell_length_c                   10.6094(6)
_cell_angle_alpha                90
_cell_angle_beta                 101.383(3)
_cell_angle_gamma                90
_cell_volume                     1034.43
loop_
_atom_site_label
_atom_site_type_symbol
_atom_site_fract_x
_atom_site_fract_y
_atom_site_fract_z
Cu1 Cu 0.503028(18) 0.55314(4) 0.74841(3)
C1 C 0.65389(16) 0.8047(4) 0.8621(2)
C2 C 0.74644(16) 0.8156(4) 0.9278(2)
C3 C 0.79993(17) 0.6589(4) 0.8986(3)
H1 H 0.7775 0.5489 0.8428
C4 C 0.88818(19) 0.6620(5) 0.9515(3)
H2 H 0.9237 0.5566 0.9289
C5 C 0.92144(18) 0.8184(5) 1.0354(3)
H3 H 0.9797 0.8185 1.0703
C6 C 0.86886(17) 0.9815(4) 1.0706(3)
C7 C 0.77995(16) 0.9844(4) 1.0159(3)
C8 C 0.9038(2) 1.1442(5) 1.1604(3)
H4 H 0.9620 1.1438 1.1956
C9 C 0.8533(2) 1.2995(5) 1.1952(3)
H5 H 0.8768 1.4032 1.2547
C10 C 0.7656(2) 1.3031(5) 1.1410(3)
H6 H 0.7314 1.4106 1.1648
C11 C 0.72934(18) 1.1512(5) 1.0537(3)
H7 H 0.6711 1.1572 1.0189
O1 O 0.62060(11) 0.6210(3) 0.84397(19)
O2 O 0.61670(11) 0.9794(3) 0.8279(2)
O3 O 0.54490(11) 0.2984(2) 0.67951(17)
H8 H 0.5987 0.2960 0.7074
O4 O 0.52295(14) 0.7749(3) 0.57325(19)
H9 H 0.4995 0.7371 0.4975
H10 H 0.5714 0.8205 0.5631
Cu1A Cu 0.496972(18) 1.05314(4) 0.75159(3)
Cu1A_2 Cu 0.496972(18) 0.05314(4) 0.75159(3)
O2A O 0.38330(11) 0.4794(3) 0.6721(2)
O3A O 0.45510(11) 0.7984(2) 0.82049(17)
H8A H 0.4013 0.7960 0.7926
loop_
_geom_bond_atom_site_label_1
_geom_bond_atom_site_label_2
_geom_bond_site_symmetry_1
_geom_bond_site_symmetry_2
Cu1 O1 1_555 1_555
C1 C2 1_555 1_555
C2 C3 1_555 1_555
C3 H1 1_555 1_555
C4 C3 1_555 1_555
H2 C4 1_555 1_555
C5 C4 1_555 1_555
H3 C5 1_555 1_555
C6 C5 1_555 1_555
C7 C2 1_555 1_555
C8 C6 1_555 1_555
H4 C8 1_555 1_555
C9 C8 1_555 1_555
H5 C9 1_555 1_555
C10 C9 1_555 1_555
H6 C10 1_555 1_555
C11 C7 1_555 1_555
H7 C11 1_555 1_555
O1 C1 1_555 1_555
O2 C1 1_555 1_555
O3 Cu1 1_555 1_555
H8 O3 1_555 1_555
O4 Cu1 1_555 1_555
H9 O4 1_555 1_555
H10 O4 1_555 1_555
Cu1A O2 1_555 1_555
Cu1A_2 O3 1_555 1_555
O2A Cu1 1_555 1_555
O3A Cu1 1_555 1_555
H8A O3A 1_555 1_555
C6 C7 1_555 1_555
C10 C11 1_555 1_555
Cu1A O3A 1_555 1_555

#END
