
#######################################################################
#
#                 Cambridge Crystallographic Data Centre
#                                CCDC 
#
#######################################################################
#
# If this CIF has been generated from an entry in the Cambridge 
# Structural Database, then it will include bibliographic, chemical, 
# crystal, experimental, refinement or atomic coordinate data resulting 
# from the CCDC's data processing and validation procedures.
#
#######################################################################

data_JIRQEH
_symmetry_cell_setting           triclinic
_symmetry_space_group_name_H-M   'P -1'
_symmetry_Int_Tables_number      2
_space_group_name_Hall           '-P 1'
loop_
_symmetry_equiv_pos_site_id
_symmetry_equiv_pos_as_xyz
1 x,y,z
2 -x,-y,-z
_cell_length_a                   7.0758(12)
_cell_length_b                   7.2954(12)
_cell_length_c                   10.8601(18)
_cell_angle_alpha                97.317(2)
_cell_angle_beta                 91.591(3)
_cell_angle_gamma                100.621(3)
_cell_volume                     545.76
loop_
_atom_site_label
_atom_site_type_symbol
_atom_site_fract_x
_atom_site_fract_y
_atom_site_fract_z
Zn1 Zn 0.73363(4) 0.72401(3) 0.51171(2)
N1 N 0.8284(3) 1.3633(3) -0.08471(19)
O1 O 0.7470(2) 0.9260(2) 0.39132(14)
O2 O 0.4497(2) 0.8256(2) 0.30185(16)
O3 O 0.5308(2) 1.2522(2) 0.42111(14)
O4 O 0.6836(3) 1.5216(2) 0.36131(15)
O5 O 0.7759(4) 1.5152(3) -0.08435(18)
O6 O 0.9301(3) 1.3021(3) -0.16324(16)
O7 O 1.0296(2) 0.7342(2) 0.49359(18)
H1 H 1.1122 0.8268 0.5284
H2 H 1.0719 0.6506 0.4468
O8 O 0.8372(3) 0.9363(2) 0.66810(16)
H3 H 0.7490 1.0004 0.6847
H4 H 0.9502 1.0039 0.6676
O9 O 0.7582(2) 0.5117(2) 0.63649(15)
H5 H 0.6722 0.4140 0.6416
H6 H 0.8134 0.5671 0.7050
C1 C 0.6131(3) 0.9245(3) 0.3099(2)
C2 C 0.6666(3) 1.0470(3) 0.2087(2)
C3 C 0.6713(3) 1.2418(3) 0.2248(2)
C4 C 0.6241(3) 1.3472(3) 0.3461(2)
C5 C 0.7201(4) 1.3433(3) 0.1261(2)
H7 H 0.7197 1.4717 0.1345
C6 C 0.7685(3) 1.2523(3) 0.0164(2)
C7 C 0.7698(4) 1.0605(3) -0.0016(2)
H8 H 0.8057 1.0023 -0.0762
C8 C 0.7155(4) 0.9586(3) 0.0955(2)
H9 H 0.7117 0.8294 0.0850
Zn1A Zn 0.26637(4) 1.27599(3) 0.48829(2)
Zn1_2 Zn 0.73363(4) 1.72401(3) 0.51171(2)
O3A O 0.4692(2) 0.7478(2) 0.57889(14)
O4_2 O 0.6836(3) 0.5216(2) 0.36131(15)
loop_
_geom_bond_atom_site_label_1
_geom_bond_atom_site_label_2
_geom_bond_site_symmetry_1
_geom_bond_site_symmetry_2
Zn1 O1 1_555 1_555
N1 O5 1_555 1_555
O1 C1 1_555 1_555
O2 C1 1_555 1_555
O3 C4 1_555 1_555
O4 C4 1_555 1_555
O6 N1 1_555 1_555
O7 Zn1 1_555 1_555
H1 O7 1_555 1_555
H2 O7 1_555 1_555
O8 Zn1 1_555 1_555
H3 O8 1_555 1_555
H4 O8 1_555 1_555
O9 Zn1 1_555 1_555
H5 O9 1_555 1_555
H6 O9 1_555 1_555
C1 C2 1_555 1_555
C2 C3 1_555 1_555
C3 C4 1_555 1_555
C5 C3 1_555 1_555
H7 C5 1_555 1_555
C6 N1 1_555 1_555
C7 C6 1_555 1_555
H8 C7 1_555 1_555
C8 C2 1_555 1_555
H9 C8 1_555 1_555
Zn1A O3 1_555 1_555
Zn1_2 O4 1_555 1_555
O3A Zn1 1_555 1_555
O4_2 Zn1 1_555 1_555
C5 C6 1_555 1_555
C7 C8 1_555 1_555

#END
