
#######################################################################
#
#                 Cambridge Crystallographic Data Centre
#                                CCDC 
#
#######################################################################
#
# If this CIF has been generated from an entry in the Cambridge 
# Structural Database, then it will include bibliographic, chemical, 
# crystal, experimental, refinement or atomic coordinate data resulting 
# from the CCDC's data processing and validation procedures.
#
#######################################################################

data_JISCUK
_symmetry_cell_setting           monoclinic
_symmetry_space_group_name_H-M   'P 21/a'
_symmetry_Int_Tables_number      14
_space_group_name_Hall           '-P 2yab'
loop_
_symmetry_equiv_pos_site_id
_symmetry_equiv_pos_as_xyz
1 x,y,z
2 1/2-x,1/2+y,-z
3 -x,-y,-z
4 1/2+x,1/2-y,z
_cell_length_a                   16.9349(6)
_cell_length_b                   5.9299(2)
_cell_length_c                   13.4800(5)
_cell_angle_alpha                90
_cell_angle_beta                 113.438(4)
_cell_angle_gamma                90
_cell_volume                     1242
loop_
_atom_site_label
_atom_site_type_symbol
_atom_site_fract_x
_atom_site_fract_y
_atom_site_fract_z
K1 K 0.554(1) 0.647(2) 0.962(1)
N1 N 0.586 1.040 0.940
N2 N 0.471 1.314 0.873
N3 N 0.344 1.502 0.747
N4 N 0.599 1.315 1.079
C1 C 0.515 1.128 0.865
C2 C 0.723 1.169 1.213
C3 C 0.796 1.124 1.304
C4 C 0.846 0.941 1.302
C5 C 0.825 0.806 1.209
C6 C 0.735 0.850 1.116
C7 C 0.702 1.033 1.120
C8 C 0.623 1.131 1.039
C9 C 0.476 1.033 0.756
C10 C 0.498 0.849 0.708
C11 C 0.447 0.805 0.601
C12 C 0.375 0.943 0.543
C13 C 0.355 1.122 0.591
C14 C 0.406 1.170 0.699
C15 C 0.403 1.340 0.774
C16 C 0.658 1.341 1.184
H1 H 0.815 1.231 1.374
H2 H 0.901 0.900 1.374
H3 H 0.553 0.745 0.753
H4 H 0.462 0.663 0.561
H5 H 0.337 0.906 0.459
H6 H 0.300 1.226 0.546
H7 H 0.733 0.737 1.042
H8 H 0.868 0.660 1.209
K1B K 0.446(1) 2.353(2) 1.038(1)
K1_2 K 0.554(1) 1.647(2) 0.962(1)
K1B_2 K 0.446(1) 1.353(2) 1.038(1)
N1B N 0.414 1.960 1.060
N2B N 0.529 1.686 1.127
N2_2 N 0.471 0.314 0.873
N2B_2 N 0.529 0.686 1.127
N2_3 N 0.471 2.314 0.873
N2B_3 N 0.529 2.686 1.127
N3B N 0.656 1.498 1.253
N4B N 0.401 1.685 0.921
N4_2 N 0.599 0.315 1.079
N4B_2 N 0.401 0.685 0.921
N4_3 N 0.599 2.315 1.079
N4B_3 N 0.401 2.685 0.921
C1B C 0.485 1.872 1.135
C2B C 0.277 1.831 0.787
C3B C 0.204 1.876 0.696
C4B C 0.154 2.059 0.698
C5B C 0.175 2.194 0.791
C6B C 0.265 2.150 0.884
C7B C 0.298 1.967 0.880
C8B C 0.377 1.869 0.961
C9B C 0.524 1.967 1.244
C10B C 0.502 2.151 1.292
C11B C 0.553 2.195 1.399
C12B C 0.625 2.057 1.457
C13B C 0.645 1.878 1.409
C14B C 0.594 1.830 1.301
C15B C 0.597 1.660 1.226
C16B C 0.342 1.659 0.816
H1B H 0.185 1.769 0.626
H2B H 0.099 2.100 0.626
H3B H 0.447 2.255 1.247
H4B H 0.538 2.337 1.439
H5B H 0.663 2.094 1.541
H6B H 0.700 1.774 1.454
H7B H 0.267 2.263 0.958
H8B H 0.132 2.340 0.791
loop_
_geom_bond_atom_site_label_1
_geom_bond_atom_site_label_2
_geom_bond_site_symmetry_1
_geom_bond_site_symmetry_2
K1 N1 1_555 1_555
N1 C1 1_555 1_555
N2 C1 1_555 1_555
N3 C15 1_555 1_555
N4 C8 1_555 1_555
C1 C9 1_555 1_555
C2 C3 1_555 1_555
C3 C4 1_555 1_555
C4 C5 1_555 1_555
C5 C6 1_555 1_555
C6 C7 1_555 1_555
C7 C2 1_555 1_555
C8 N1 1_555 1_555
C9 C10 1_555 1_555
C10 C11 1_555 1_555
C11 C12 1_555 1_555
C12 C13 1_555 1_555
C13 C14 1_555 1_555
C14 C9 1_555 1_555
C15 N2 1_555 1_555
C16 N4 1_555 1_555
H1 C3 1_555 1_555
H2 C4 1_555 1_555
H3 C10 1_555 1_555
H4 C11 1_555 1_555
H5 C12 1_555 1_555
H6 C13 1_555 1_555
H7 C6 1_555 1_555
H8 C5 1_555 1_555
K1B N1B 1_555 1_555
K1_2 N2 1_555 1_555
K1B_2 N2 1_555 1_555
N1B C1B 1_555 1_555
N2B K1_2 1_555 1_555
N2_2 K1 1_555 1_555
N2B_2 K1 1_555 1_555
N2_3 K1B 1_555 1_555
N2B_3 K1B 1_555 1_555
N3B C16 1_555 1_555
N4B K1_2 1_555 1_555
N4_2 K1 1_555 1_555
N4B_2 K1 1_555 1_555
N4_3 K1B 1_555 1_555
N4B_3 K1B 1_555 1_555
C1B N2B 1_555 1_555
C2B C3B 1_555 1_555
C3B C4B 1_555 1_555
C4B C5B 1_555 1_555
C5B C6B 1_555 1_555
C6B C7B 1_555 1_555
C7B C2B 1_555 1_555
C8B N1B 1_555 1_555
C9B C1B 1_555 1_555
C10B C9B 1_555 1_555
C11B C10B 1_555 1_555
C12B C11B 1_555 1_555
C13B C12B 1_555 1_555
C14B C9B 1_555 1_555
C15B N2B 1_555 1_555
C16B N3 1_555 1_555
H1B C3B 1_555 1_555
H2B C4B 1_555 1_555
H3B C10B 1_555 1_555
H4B C11B 1_555 1_555
H5B C12B 1_555 1_555
H6B C13B 1_555 1_555
H7B C6B 1_555 1_555
H8B C5B 1_555 1_555
N4 K1_2 1_555 1_555
N4 K1B_2 1_555 1_555
C2 C16 1_555 1_555
C7 C8 1_555 1_555
C14 C15 1_555 1_555
K1B_2 N2B 1_555 1_555
K1B_2 N4B 1_555 1_555
N3B C15B 1_555 1_555
N4B C8B 1_555 1_555
N4B C16B 1_555 1_555
C2B C16B 1_555 1_555
C7B C8B 1_555 1_555
C13B C14B 1_555 1_555
C14B C15B 1_555 1_555

#END
