
#######################################################################
#
#                 Cambridge Crystallographic Data Centre
#                                CCDC 
#
#######################################################################
#
# If this CIF has been generated from an entry in the Cambridge 
# Structural Database, then it will include bibliographic, chemical, 
# crystal, experimental, refinement or atomic coordinate data resulting 
# from the CCDC's data processing and validation procedures.
#
#######################################################################

data_JISSIO
_symmetry_cell_setting           monoclinic
_symmetry_space_group_name_H-M   'P 21/c'
_symmetry_Int_Tables_number      14
_space_group_name_Hall           '-P 2ybc'
loop_
_symmetry_equiv_pos_site_id
_symmetry_equiv_pos_as_xyz
1 x,y,z
2 -x,1/2+y,1/2-z
3 -x,-y,-z
4 x,1/2-y,1/2+z
_cell_length_a                   8.3768(17)
_cell_length_b                   13.352(3)
_cell_length_c                   7.2121(14)
_cell_angle_alpha                90
_cell_angle_beta                 103.53(3)
_cell_angle_gamma                90
_cell_volume                     784.265
loop_
_atom_site_label
_atom_site_type_symbol
_atom_site_fract_x
_atom_site_fract_y
_atom_site_fract_z
Ce1 Ce 0.50094(4) 0.080430(19) -0.24283(4)
S1 S -0.15574(17) 0.41317(10) -0.28495(18)
P1 P 0.36099(17) 0.35444(10) -0.27714(18)
O1 O 0.4120(5) 0.4185(3) -0.0959(5)
O2 O 0.4214(5) 0.4135(3) -0.4311(5)
O3 O 0.4207(9) 0.2488(3) -0.2562(6)
O4 O -0.1621(7) 0.3240(3) -0.1709(7)
O5 O -0.2225(5) 0.5013(3) -0.2065(5)
O6 O -0.2325(5) 0.3962(3) -0.4858(6)
O7 O 0.7348(6) 0.1490(4) -0.3505(7)
H1 H 0.747(13) 0.158(6) -0.442(15)
H2 H 0.781(14) 0.210(8) -0.292(13)
C1 C 0.1380(8) 0.3485(5) -0.3372(9)
H3 H 0.1044 0.2871 -0.2853
H4 H 0.0998 0.3453 -0.4748
C2 C 0.0549(8) 0.4364(4) -0.2640(9)
H5 H 0.1079 0.4486 -0.1313
H6 H 0.0676 0.4960 -0.3361
Ce1A Ce 0.49906(4) 0.580430(19) -0.25717(4)
Ce1C Ce 0.50094(4) 0.419570(19) 0.25717(4)
Ce1C_2 Ce 0.50094(4) 0.419570(19) -0.74283(4)
Ce1A_2 Ce -0.50094(4) 0.580430(19) -0.25717(4)
Ce1C_3 Ce -0.49906(4) 0.419570(19) -0.74283(4)
O1A O 0.5880(5) -0.0815(3) -0.4041(5)
O1C O 0.4120(5) 0.0815(3) -0.5959(5)
O2A O 0.5786(5) -0.0865(3) -0.0689(5)
O2C O 0.4214(5) 0.0865(3) 0.0689(5)
O5A O 0.2225(5) 0.0013(3) -0.2935(5)
O6C O 0.7675(5) 0.1038(3) 0.0142(6)
loop_
_geom_bond_atom_site_label_1
_geom_bond_atom_site_label_2
_geom_bond_site_symmetry_1
_geom_bond_site_symmetry_2
Ce1 O3 1_555 1_555
S1 O4 1_555 1_555
P1 O1 1_555 1_555
O1 Ce1A 1_555 1_555
O2 P1 1_555 1_555
O3 P1 1_555 1_555
O5 S1 1_555 1_555
O6 S1 1_555 1_555
O7 Ce1 1_555 1_555
H1 O7 1_555 1_555
H2 O7 1_555 1_555
C1 P1 1_555 1_555
H3 C1 1_555 1_555
H4 C1 1_555 1_555
C2 S1 1_555 1_555
H5 C2 1_555 1_555
H6 C2 1_555 1_555
Ce1A O2 1_555 1_555
Ce1C O1 1_555 1_555
Ce1C_2 O2 1_555 1_555
Ce1A_2 O5 1_555 1_555
Ce1C_3 O6 1_555 1_555
O1A Ce1 1_555 1_555
O1C Ce1 1_555 1_555
O2A Ce1 1_555 1_555
O2C Ce1 1_555 1_555
O5A Ce1 1_555 1_555
O6C Ce1 1_555 1_555
C1 C2 1_555 1_555

#END
