
#######################################################################
#
#                 Cambridge Crystallographic Data Centre
#                                CCDC 
#
#######################################################################
#
# If this CIF has been generated from an entry in the Cambridge 
# Structural Database, then it will include bibliographic, chemical, 
# crystal, experimental, refinement or atomic coordinate data resulting 
# from the CCDC's data processing and validation procedures.
#
#######################################################################

data_JISSEK
_symmetry_cell_setting           monoclinic
_symmetry_space_group_name_H-M   'P 21/c'
_symmetry_Int_Tables_number      14
_space_group_name_Hall           '-P 2ybc'
loop_
_symmetry_equiv_pos_site_id
_symmetry_equiv_pos_as_xyz
1 x,y,z
2 -x,1/2+y,1/2-z
3 -x,-y,-z
4 x,1/2-y,1/2+z
_cell_length_a                   8.3219(17)
_cell_length_b                   13.099(3)
_cell_length_c                   7.1115(14)
_cell_angle_alpha                90
_cell_angle_beta                 103.42(3)
_cell_angle_gamma                90
_cell_volume                     754.047
loop_
_atom_site_label
_atom_site_type_symbol
_atom_site_fract_x
_atom_site_fract_y
_atom_site_fract_z
Sm1 Sm 0.49936(3) 0.921971(19) 0.24282(3)
S1 S 1.15884(17) 0.58676(10) 0.28695(17)
P1 P 0.63798(17) 0.64670(10) 0.27687(17)
O1 O 0.5787(5) 0.7557(3) 0.2538(5)
O2 O 0.5883(5) 0.5804(3) 0.0937(5)
O3 O 0.5747(5) 0.5861(3) 0.4320(5)
O4 O 1.1663(6) 0.6780(3) 0.1712(7)
O5 O 1.2349(5) 0.6029(3) 0.4907(5)
O6 O 1.2241(5) 0.4968(3) 0.2053(5)
O7 O 0.2731(6) 0.8535(3) 0.3528(6)
H1 H 0.2279 0.8036 0.2861
H2 H 0.2685 0.8420 0.4651
C1 C 0.9459(8) 0.5631(4) 0.2660(8)
H3 H 0.8925 0.5513 0.1313
H4 H 0.9330 0.5019 0.3381
C2 C 0.8623(8) 0.6523(5) 0.3420(9)
H5 H 0.8977 0.7153 0.2923
H6 H 0.8990 0.6541 0.4818
Sm1C Sm 0.49936(3) 0.578029(19) -0.25718(3)
Sm1A Sm 0.50064(3) 0.421971(19) 0.25718(3)
Sm1C_2 Sm 0.49936(3) 0.578029(19) 0.74282(3)
Sm1C_3 Sm 1.49936(3) 0.578029(19) 0.74282(3)
Sm1A_2 Sm 1.50064(3) 0.421971(19) 0.25718(3)
O2C O 0.5883(5) 0.9196(3) 0.5937(5)
O2A O 0.4117(5) 1.0804(3) 0.4063(5)
O3C O 0.5747(5) 0.9139(3) -0.0680(5)
O3A O 0.4253(5) 1.0861(3) 0.0680(5)
O5C O 0.2349(5) 0.8971(3) -0.0093(5)
O6A O 0.7759(5) 0.9968(3) 0.2947(5)
loop_
_geom_bond_atom_site_label_1
_geom_bond_atom_site_label_2
_geom_bond_site_symmetry_1
_geom_bond_site_symmetry_2
Sm1 O1 1_555 1_555
S1 O4 1_555 1_555
P1 O1 1_555 1_555
O2 P1 1_555 1_555
O3 P1 1_555 1_555
O5 S1 1_555 1_555
O6 S1 1_555 1_555
O7 Sm1 1_555 1_555
H1 O7 1_555 1_555
H2 O7 1_555 1_555
C1 S1 1_555 1_555
H3 C1 1_555 1_555
H4 C1 1_555 1_555
C2 P1 1_555 1_555
H5 C2 1_555 1_555
H6 C2 1_555 1_555
Sm1C O2 1_555 1_555
Sm1A O2 1_555 1_555
Sm1C_2 O3 1_555 1_555
Sm1C_3 O5 1_555 1_555
Sm1A_2 O6 1_555 1_555
O2C Sm1 1_555 1_555
O2A Sm1 1_555 1_555
O3C Sm1 1_555 1_555
O3A Sm1 1_555 1_555
O5C Sm1 1_555 1_555
O6A Sm1 1_555 1_555
O3 Sm1A 1_555 1_555
C1 C2 1_555 1_555

#END
