
#######################################################################
#
#                 Cambridge Crystallographic Data Centre
#                                CCDC 
#
#######################################################################
#
# If this CIF has been generated from an entry in the Cambridge 
# Structural Database, then it will include bibliographic, chemical, 
# crystal, experimental, refinement or atomic coordinate data resulting 
# from the CCDC's data processing and validation procedures.
#
#######################################################################

data_JISVEN
_symmetry_cell_setting           triclinic
_symmetry_space_group_name_H-M   'P -1'
_symmetry_Int_Tables_number      2
_space_group_name_Hall           '-P 1'
loop_
_symmetry_equiv_pos_site_id
_symmetry_equiv_pos_as_xyz
1 x,y,z
2 -x,-y,-z
_cell_length_a                   10.0895(6)
_cell_length_b                   11.4162(6)
_cell_length_c                   13.6578(8)
_cell_angle_alpha                86.7740(10)
_cell_angle_beta                 72.5940(10)
_cell_angle_gamma                78.6750(10)
_cell_volume                     1471.89
loop_
_atom_site_label
_atom_site_type_symbol
_atom_site_fract_x
_atom_site_fract_y
_atom_site_fract_z
Eu1 Eu 0.47475(3) 0.37200(2) 0.91172(2)
S1 S 0.50933(19) 0.08482(14) 0.81942(13)
S2 S 0.21153(17) 0.38144(14) 0.79202(12)
O1 O 0.5148(4) 0.3992(4) 0.7284(3)
O2 O 0.7140(5) 0.3161(4) 0.7611(3)
O3 O 1.4079(4) 0.4649(4) 0.1012(3)
O4 O 1.3161(5) 0.3136(4) 0.0762(3)
O5 O 0.6476(4) 0.3102(3) 0.9961(3)
O6 O 0.6988(4) 0.4492(4) 1.0825(3)
O7 O 0.5300(5) 0.1579(4) 0.8990(4)
O8 O 0.2794(4) 0.3142(4) 0.8688(3)
N1 N 0.8527(6) 0.3902(5) 0.3774(4)
N2 N 1.1671(5) 0.3365(5) 0.4586(4)
N3 N 1.0343(6) 0.0659(5) 1.1064(4)
C1 C 0.6479(7) 0.3575(6) 0.6992(5)
C2 C 0.7215(6) 0.3643(5) 0.5862(4)
C3 C 0.6431(6) 0.3898(6) 0.5189(4)
H3 H 0.5430 0.3980 0.5423
C4 C 0.7124(7) 0.4033(6) 0.4161(5)
H4 H 0.6568 0.4231 0.3702
C5 C 0.9287(6) 0.3637(5) 0.4436(4)
C6 C 0.8690(6) 0.3495(5) 0.5485(4)
H5 H 0.9265 0.3303 0.5931
C7 C 1.0842(6) 0.3556(5) 0.3964(4)
C8 C 1.1391(6) 0.3677(5) 0.2909(4)
H6 H 1.0786 0.3771 0.2483
C9 C 1.2823(6) 0.3660(5) 0.2483(4)
C10 C 1.3674(6) 0.3496(6) 0.3117(5)
H7 H 1.4656 0.3508 0.2855
C11 C 1.3051(7) 0.3311(6) 0.4156(5)
H8 H 1.3651 0.3134 0.4586
C12 C 1.3379(6) 0.3827(5) 0.1346(4)
C13 C 0.7161(6) 0.3457(5) 1.0481(4)
C14 C 0.9749(6) 0.0570(5) 1.0312(5)
C15 C 0.8725(6) 0.1458(5) 1.0117(4)
H9 H 0.8309 0.1358 0.9596
C16 C 0.8303(6) 0.2511(5) 1.0697(4)
C17 C 0.8934(7) 0.2626(5) 1.1439(5)
H10 H 0.8694 0.3338 1.1833
C18 C 0.9939(8) 0.1664(6) 1.1598(6)
H11 H 1.0360 0.1737 1.2122
C19 C 0.6535(9) -0.0387(7) 0.7984(7)
H12 H 0.6413 -0.0970 0.7533
H13 H 0.6562 -0.0765 0.8642
H14 H 0.7423 -0.0107 0.7661
C20 C 0.3715(10) 0.0111(9) 0.8889(9)
H15 H 0.3488 -0.0382 0.8418
H16 H 0.2876 0.0704 0.9219
H17 H 0.4018 -0.0399 0.9413
C21 C 0.2408(8) 0.2767(7) 0.6934(5)
H18 H 0.2003 0.3148 0.6400
H19 H 0.1955 0.2088 0.7221
H20 H 0.3427 0.2485 0.6636
C22 C 0.0263(7) 0.3854(7) 0.8488(6)
H21 H -0.0228 0.4064 0.7965
H22 H -0.0108 0.4453 0.9038
H23 H 0.0111 0.3068 0.8773
Eu1_2 Eu -0.52525(3) 0.37200(2) 1.91172(2)
Eu1_3 Eu 1.47475(3) 0.37200(2) -0.08828(2)
Eu1A Eu 1.52525(3) 0.62800(2) 0.08828(2)
Eu1A_2 Eu 0.52525(3) 0.62800(2) 1.08828(2)
Eu1A_3 Eu 1.52525(3) -0.37200(2) 1.08828(2)
Eu1_4 Eu 1.47475(3) -0.62800(2) 0.91172(2)
S1_2 S -0.49067(19) 0.08482(14) 1.81942(13)
S2_2 S -0.78847(17) 0.38144(14) 1.79202(12)
O1_2 O -0.4852(4) 0.3992(4) 1.7284(3)
O2_2 O -0.2860(5) 0.3161(4) 1.7611(3)
O3_2 O 0.4079(4) 0.4649(4) 1.1012(3)
O3A O 0.5921(4) 0.5351(4) 0.8988(3)
O3_3 O -0.5921(4) 0.4649(4) 2.1012(3)
O3A_2 O -0.4079(4) 0.5351(4) 1.8988(3)
O4_2 O 0.3161(5) 0.3136(4) 1.0762(3)
O4_3 O -0.6839(5) 0.3136(4) 2.0762(3)
O5A O 1.3524(4) -0.3102(3) 1.0039(3)
O5_2 O -0.3524(4) 0.3102(3) 1.9961(3)
O6A O 1.3012(4) -0.4492(4) 0.9175(3)
O6A_2 O 0.3012(4) 0.5508(4) 0.9175(3)
O6A_3 O -0.6988(4) 0.5508(4) 1.9175(3)
O7_2 O -0.4700(5) 0.1579(4) 1.8990(4)
O8_2 O -0.7206(4) 0.3142(4) 1.8688(3)
N1_2 N -0.1473(6) 0.3902(5) 1.3774(4)
N2_2 N 0.1671(5) 0.3365(5) 1.4586(4)
N3A N 0.9657(6) -0.0659(5) 0.8936(4)
C1_2 C -0.3521(7) 0.3575(6) 1.6992(5)
C2_2 C -0.2785(6) 0.3643(5) 1.5862(4)
C3_2 C -0.3569(6) 0.3898(6) 1.5189(4)
H3_2 H -0.4570 0.3980 1.5423
C4_2 C -0.2876(7) 0.4033(6) 1.4161(5)
H4_2 H -0.3432 0.4231 1.3702
C5_2 C -0.0713(6) 0.3637(5) 1.4436(4)
C6_2 C -0.1310(6) 0.3495(5) 1.5485(4)
H5_2 H -0.0735 0.3303 1.5931
C7_2 C 0.0842(6) 0.3556(5) 1.3964(4)
C8_2 C 0.1391(6) 0.3677(5) 1.2909(4)
H6_2 H 0.0786 0.3771 1.2483
C9_2 C 0.2823(6) 0.3660(5) 1.2483(4)
C10_2 C 0.3674(6) 0.3496(6) 1.3117(5)
H7_2 H 0.4656 0.3508 1.2855
C11_2 C 0.3051(7) 0.3311(6) 1.4156(5)
H8_2 H 0.3651 0.3134 1.4586
C12_2 C 0.3379(6) 0.3827(5) 1.1346(4)
C13A C 1.2839(6) -0.3457(5) 0.9519(4)
C14A C 1.0251(6) -0.0570(5) 0.9688(5)
C15A C 1.1275(6) -0.1458(5) 0.9883(4)
H9A H 1.1691 -0.1358 1.0404
C16A C 1.1697(6) -0.2511(5) 0.9303(4)
C17A C 1.1066(7) -0.2626(5) 0.8561(5)
H10A H 1.1306 -0.3338 0.8167
C18A C 1.0061(8) -0.1664(6) 0.8402(6)
H11A H 0.9640 -0.1737 0.7878
C19_2 C -0.3465(9) -0.0387(7) 1.7984(7)
H12_2 H -0.3587 -0.0970 1.7533
H13_2 H -0.3438 -0.0765 1.8642
H14_2 H -0.2577 -0.0107 1.7661
C20_2 C -0.6285(10) 0.0111(9) 1.8889(9)
H15_2 H -0.6512 -0.0382 1.8418
H16_2 H -0.7124 0.0704 1.9219
H17_2 H -0.5982 -0.0399 1.9413
C21_2 C -0.7592(8) 0.2767(7) 1.6934(5)
H18_2 H -0.7997 0.3148 1.6400
H19_2 H -0.8045 0.2088 1.7221
H20_2 H -0.6573 0.2485 1.6636
C22_2 C -0.9737(7) 0.3854(7) 1.8488(6)
H21_2 H -1.0228 0.4064 1.7965
H22_2 H -1.0108 0.4453 1.9038
H23_2 H -0.9889 0.3068 1.8773
O9 O 0.9438(7) 0.1194(6) 0.7324(5)
H1 H 0.8700 0.1747 0.743(8)
H2 H 0.9393 0.0716 0.783(8)
S3 S 0.2958(7) -0.1011(5) 0.5339(5)
O10 O 0.4380(17) -0.1356(17) 0.4562(13)
C23 C 0.226(3) 0.0520(13) 0.5107(19)
H24 H 0.1680 0.0546 0.4641
H25 H 0.3041 0.0942 0.4796
H26 H 0.1676 0.0906 0.5758
C24 C 0.328(2) -0.059(2) 0.6489(12)
H27 H 0.3473 -0.1300 0.6895
H28 H 0.2451 -0.0036 0.6894
H29 H 0.4104 -0.0190 0.6300
S4? S 0.3044(7) 0.0255(5) 0.5100(5)
O11? O 0.4149(17) -0.0262(18) 0.4163(12)
C25? C 0.301(3) -0.0792(18) 0.6142(14)
H30? H 0.3897 -0.1375 0.5981
H31? H 0.2216 -0.1209 0.6239
H32? H 0.2889 -0.0362 0.6773
C26? C 0.1347(16) 0.008(2) 0.4990(17)
H33? H 0.1118 0.0596 0.4444
H34? H 0.0614 0.0294 0.5642
H35? H 0.1392 -0.0758 0.4825
loop_
_geom_bond_atom_site_label_1
_geom_bond_atom_site_label_2
_geom_bond_site_symmetry_1
_geom_bond_site_symmetry_2
Eu1 O1 1_555 1_555
S1 O7 1_555 1_555
S2 O8 1_555 1_555
O1 C1 1_555 1_555
O2 Eu1 1_555 1_555
O3 C12 1_555 1_555
O4 C12 1_555 1_555
O5 Eu1 1_555 1_555
O6 C13 1_555 1_555
O7 Eu1 1_555 1_555
O8 Eu1 1_555 1_555
O9 H1 1_555 1_555
H2 O9 1_555 1_555
N1 C4 1_555 1_555
N2 C7 1_555 1_555
N3 C14 1_555 1_555
C1 O2 1_555 1_555
C2 C1 1_555 1_555
C3 C2 1_555 1_555
H3 C3 1_555 1_555
C4 C3 1_555 1_555
H4 C4 1_555 1_555
C5 N1 1_555 1_555
C6 C2 1_555 1_555
H5 C6 1_555 1_555
C7 C5 1_555 1_555
C8 C7 1_555 1_555
H6 C8 1_555 1_555
C9 C8 1_555 1_555
C10 C9 1_555 1_555
H7 C10 1_555 1_555
C11 N2 1_555 1_555
H8 C11 1_555 1_555
C12 C9 1_555 1_555
C13 O5 1_555 1_555
C14 C15 1_555 1_555
C15 H9 1_555 1_555
C16 C13 1_555 1_555
C17 C16 1_555 1_555
H10 C17 1_555 1_555
C18 N3 1_555 1_555
H11 C18 1_555 1_555
C19 S1 1_555 1_555
H12 C19 1_555 1_555
H13 C19 1_555 1_555
H14 C19 1_555 1_555
C20 S1 1_555 1_555
H15 C20 1_555 1_555
H16 C20 1_555 1_555
H17 C20 1_555 1_555
C21 S2 1_555 1_555
H18 C21 1_555 1_555
H19 C21 1_555 1_555
H20 C21 1_555 1_555
C22 S2 1_555 1_555
H21 C22 1_555 1_555
H22 C22 1_555 1_555
H23 C22 1_555 1_555
S3 O10 1_555 1_555
C23 S3 1_555 1_555
H24 C23 1_555 1_555
H25 C23 1_555 1_555
H26 C23 1_555 1_555
C24 S3 1_555 1_555
H27 C24 1_555 1_555
H28 C24 1_555 1_555
H29 C24 1_555 1_555
Eu1_2 O1_2 1_555 1_555
Eu1_3 O3 1_555 1_555
Eu1A O3 1_555 1_555
Eu1A_2 O6 1_555 1_555
Eu1A_3 O5A 1_555 1_555
Eu1_4 O6A 1_555 1_555
S1_2 O7_2 1_555 1_555
S2_2 O8_2 1_555 1_555
O1_2 C1_2 1_555 1_555
O2_2 Eu1_2 1_555 1_555
O3_2 Eu1 1_555 1_555
O3A Eu1 1_555 1_555
O3_3 Eu1_2 1_555 1_555
O3A_2 Eu1_2 1_555 1_555
O4_2 Eu1 1_555 1_555
O4_3 Eu1_2 1_555 1_555
O5A C13A 1_555 1_555
O5_2 Eu1_2 1_555 1_555
O6A C13A 1_555 1_555
O6A_2 Eu1 1_555 1_555
O6A_3 Eu1_2 1_555 1_555
O7_2 Eu1_2 1_555 1_555
O8_2 Eu1_2 1_555 1_555
N1_2 C4_2 1_555 1_555
N2_2 C7_2 1_555 1_555
N3A C14A 1_555 1_555
C1_2 O2_2 1_555 1_555
C2_2 C1_2 1_555 1_555
C3_2 C2_2 1_555 1_555
H3_2 C3_2 1_555 1_555
C4_2 C3_2 1_555 1_555
H4_2 C4_2 1_555 1_555
C5_2 N1_2 1_555 1_555
C6_2 C2_2 1_555 1_555
H5_2 C6_2 1_555 1_555
C7_2 C5_2 1_555 1_555
C8_2 C7_2 1_555 1_555
H6_2 C8_2 1_555 1_555
C9_2 C8_2 1_555 1_555
C10_2 C9_2 1_555 1_555
H7_2 C10_2 1_555 1_555
C11_2 N2_2 1_555 1_555
H8_2 C11_2 1_555 1_555
C12_2 O3_2 1_555 1_555
C13A C16A 1_555 1_555
C14A C14 1_555 1_555
C15A C14A 1_555 1_555
H9A C15A 1_555 1_555
C16A C15A 1_555 1_555
C17A C16A 1_555 1_555
H10A C17A 1_555 1_555
C18A N3A 1_555 1_555
H11A C18A 1_555 1_555
C19_2 S1_2 1_555 1_555
H12_2 C19_2 1_555 1_555
H13_2 C19_2 1_555 1_555
H14_2 C19_2 1_555 1_555
C20_2 S1_2 1_555 1_555
H15_2 C20_2 1_555 1_555
H16_2 C20_2 1_555 1_555
H17_2 C20_2 1_555 1_555
C21_2 S2_2 1_555 1_555
H18_2 C21_2 1_555 1_555
H19_2 C21_2 1_555 1_555
H20_2 C21_2 1_555 1_555
C22_2 S2_2 1_555 1_555
H21_2 C22_2 1_555 1_555
H22_2 C22_2 1_555 1_555
H23_2 C22_2 1_555 1_555
O4 Eu1_3 1_555 1_555
C5 C6 1_555 1_555
C10 C11 1_555 1_555
C15 C16 1_555 1_555
C17 C18 1_555 1_555
Eu1A_2 O3_2 1_555 1_555
Eu1A_2 O3A 1_555 1_555
O4_2 C12_2 1_555 1_555
C5_2 C6_2 1_555 1_555
C9_2 C12_2 1_555 1_555
C10_2 C11_2 1_555 1_555
C17A C18A 1_555 1_555

#END
