
#######################################################################
#
#                 Cambridge Crystallographic Data Centre
#                                CCDC 
#
#######################################################################
#
# If this CIF has been generated from an entry in the Cambridge 
# Structural Database, then it will include bibliographic, chemical, 
# crystal, experimental, refinement or atomic coordinate data resulting 
# from the CCDC's data processing and validation procedures.
#
#######################################################################

data_JISYEQ01
_symmetry_cell_setting           triclinic
_symmetry_space_group_name_H-M   'P -1'
_symmetry_Int_Tables_number      2
_space_group_name_Hall           '-P 1'
loop_
_symmetry_equiv_pos_site_id
_symmetry_equiv_pos_as_xyz
1 x,y,z
2 -x,-y,-z
_cell_length_a                   8.94100(59)
_cell_length_b                   8.71830(59)
_cell_length_c                   14.44580(70)
_cell_angle_alpha                89.9582(40)
_cell_angle_beta                 80.3956(36)
_cell_angle_gamma                88.1340(31)
_cell_volume                     1109.67
loop_
_atom_site_label
_atom_site_type_symbol
_atom_site_fract_x
_atom_site_fract_y
_atom_site_fract_z
Fe1 Fe -0.5000 0.0000 0.5000
N1 N -0.4169(3) -0.2052(3) 0.45627(17)
C1 C -0.2805(3) -0.2677(3) 0.4593(2)
C2 C -0.2345(4) -0.4162(4) 0.4239(2)
C3 C -0.3324(4) -0.5017(3) 0.3831(2)
C4 C -0.4792(4) -0.4396(3) 0.3782(2)
C5 C -0.5174(3) -0.2908(3) 0.41641(19)
C6 C -0.6625(3) -0.2241(3) 0.4152(2)
N2 N -0.6899(3) -0.0724(3) 0.45700(17)
C7 C -0.7688(3) -0.3019(3) 0.3771(2)
C8 C -0.7315(4) -0.4509(4) 0.3391(2)
C9 C -0.5904(4) -0.5177(4) 0.3393(2)
N3 N -0.4336(3) 0.0789(3) 0.37395(17)
C10 C -0.4012(3) 0.1147(3) 0.2971(2)
N4 N -0.3808(3) 0.1696(4) 0.21096(19)
C11 C -0.2672(4) 0.1181(3) 0.1484(2)
N5 N -0.1752(3) 0.0835(3) 0.08564(18)
Fe2 Fe 0.0000 0.0000 0.0000
N6 N 0.0408(3) 0.2010(3) -0.06133(17)
C12 C 0.1347(3) 0.2896(4) -0.0187(2)
C13 C 0.1854(4) 0.2274(4) 0.0609(2)
N7 N 0.1328(3) 0.0763(3) 0.08853(18)
C14 C 0.2793(4) 0.3094(4) 0.1069(2)
C15 C 0.3255(5) 0.4555(5) 0.0737(3)
C16 C 0.2778(4) 0.5171(4) -0.0035(3)
C17 C 0.1821(4) 0.4353(4) -0.0528(2)
C18 C 0.1318(4) 0.4882(4) -0.1353(3)
C19 C 0.0405(4) 0.3994(4) -0.1773(3)
C20 C -0.0036(4) 0.2557(4) -0.1380(2)
H1 H -0.7662 -0.0757 0.5047
H2 H 0.0832 0.0780 0.1467
H3 H -0.7160 -0.0085 0.4142
H4 H 0.2122 0.0143 0.0872
H13 H -0.2069 -0.2070 0.4879
H14 H -0.1311 -0.4590 0.4288
H15 H -0.3005 -0.6062 0.3573
H16 H -0.8719 -0.2543 0.3763
H17 H -0.8092 -0.5079 0.3118
H18 H -0.5661 -0.6227 0.3118
H19 H 0.3154 0.2661 0.1634
H20 H 0.3940 0.5145 0.1074
H21 H 0.3106 0.6213 -0.0254
H22 H 0.1633 0.5895 -0.1628
H23 H 0.0042 0.4357 -0.2354
H24 H -0.0714 0.1927 -0.1700
N1A N -0.5831(3) 0.2052(3) 0.54373(17)
C1A C -0.7195(3) 0.2677(3) 0.5407(2)
C2A C -0.7655(4) 0.4162(4) 0.5761(2)
C3A C -0.6676(4) 0.5017(3) 0.6169(2)
C4A C -0.5208(4) 0.4396(3) 0.6218(2)
C5A C -0.4826(3) 0.2908(3) 0.58359(19)
C6A C -0.3375(3) 0.2241(3) 0.5848(2)
N2A N -0.3101(3) 0.0724(3) 0.54300(17)
C7A C -0.2312(3) 0.3019(3) 0.6229(2)
C8A C -0.2685(4) 0.4509(4) 0.6609(2)
C9A C -0.4096(4) 0.5177(4) 0.6607(2)
N3A N -0.5664(3) -0.0789(3) 0.62605(17)
C10A C -0.5988(3) -0.1147(3) 0.7029(2)
N4A N -0.6192(3) -0.1696(4) 0.78904(19)
C11A C -0.7328(4) -0.1181(3) 0.8516(2)
N5A N -0.8248(3) -0.0835(3) 0.91436(18)
N5A_2 N 0.1752(3) -0.0835(3) -0.08564(18)
Fe2_2 Fe -1.0000 0.0000 1.0000
N6A N -0.0408(3) -0.2010(3) 0.06133(17)
C12A C -0.1347(3) -0.2896(4) 0.0187(2)
C13A C -0.1854(4) -0.2274(4) -0.0609(2)
N7A N -0.1328(3) -0.0763(3) -0.08853(18)
C14A C -0.2793(4) -0.3094(4) -0.1069(2)
C15A C -0.3255(5) -0.4555(5) -0.0737(3)
C16A C -0.2778(4) -0.5171(4) 0.0035(3)
C17A C -0.1821(4) -0.4353(4) 0.0528(2)
C18A C -0.1318(4) -0.4882(4) 0.1353(3)
C19A C -0.0405(4) -0.3994(4) 0.1773(3)
C20A C 0.0036(4) -0.2557(4) 0.1380(2)
H1A H -0.2338 0.0757 0.4953
H2A H -0.0832 -0.0780 -0.1467
H3A H -0.2840 0.0085 0.5858
H4A H -0.2122 -0.0143 -0.0872
H13A H -0.7931 0.2070 0.5121
H14A H -0.8689 0.4590 0.5712
H15A H -0.6995 0.6062 0.6427
H16A H -0.1281 0.2543 0.6237
H17A H -0.1908 0.5079 0.6882
H18A H -0.4339 0.6227 0.6882
H19A H -0.3154 -0.2661 -0.1634
H20A H -0.3940 -0.5145 -0.1074
H21A H -0.3106 -0.6213 0.0254
H22A H -0.1633 -0.5895 0.1628
H23A H -0.0042 -0.4357 0.2354
H24A H 0.0714 -0.1927 0.1700
Cl1 Cl 0.02777(8) 0.15271(9) 0.34095(5)
O1 O 0.1913(3) 0.1413(3) 0.31822(17)
O2 O -0.0295(4) 0.2569(5) 0.2799(3)
O3 O -0.0172(4) 0.2035(7) 0.4329(2)
O4 O -0.0328(5) 0.0106(4) 0.3278(5)
C21 C -0.5241(5) -1.1657(4) 0.1411(3)
O5 O -0.5653(5) -1.0240(6) 0.0999(4)
H6 H -0.6615 -0.9906 0.0960
H7 H -0.4114 -1.1742 0.1357
H8 H -0.5599 -1.2547 0.1072
H9 H -0.5723 -1.1677 0.2084
O6? O -0.5856(6) -1.1319(7) 0.0645(4)
H5? H -0.6686 -1.0704 0.0727
H10? H -0.4328 -1.2353 0.1225
H11? H -0.6001 -1.2185 0.1888
H12? H -0.4938 -1.0691 0.1700
loop_
_geom_bond_atom_site_label_1
_geom_bond_atom_site_label_2
_geom_bond_site_symmetry_1
_geom_bond_site_symmetry_2
Fe1 N1 1_555 1_555
N1 C1 1_555 1_555
C1 C2 1_555 1_555
C2 C3 1_555 1_555
C3 C4 1_555 1_555
C4 C5 1_555 1_555
C5 N1 1_555 1_555
C6 C5 1_555 1_555
N2 Fe1 1_555 1_555
C7 C6 1_555 1_555
C8 C7 1_555 1_555
C9 C4 1_555 1_555
N3 Fe1 1_555 1_555
C10 N3 1_555 1_555
N4 C10 1_555 1_555
C11 N4 1_555 1_555
N5 C11 1_555 1_555
Fe2 N5 1_555 1_555
N6 Fe2 1_555 1_555
C12 N6 1_555 1_555
C13 C12 1_555 1_555
N7 Fe2 1_555 1_555
C14 C13 1_555 1_555
C15 C14 1_555 1_555
C16 C15 1_555 1_555
C17 C12 1_555 1_555
C18 C17 1_555 1_555
C19 C18 1_555 1_555
C20 N6 1_555 1_555
Cl1 O1 1_555 1_555
O2 Cl1 1_555 1_555
O3 Cl1 1_555 1_555
O4 Cl1 1_555 1_555
C21 O5 1_555 1_555
O5 H6 1_555 1_555
H1 N2 1_555 1_555
H2 N7 1_555 1_555
H3 N2 1_555 1_555
H4 N7 1_555 1_555
H7 C21 1_555 1_555
H8 C21 1_555 1_555
H9 C21 1_555 1_555
H13 C1 1_555 1_555
H14 C2 1_555 1_555
H15 C3 1_555 1_555
H16 C7 1_555 1_555
H17 C8 1_555 1_555
H18 C9 1_555 1_555
H19 C14 1_555 1_555
H20 C15 1_555 1_555
H21 C16 1_555 1_555
H22 C18 1_555 1_555
H23 C19 1_555 1_555
H24 C20 1_555 1_555
N1A Fe1 1_555 1_555
C1A N1A 1_555 1_555
C2A C1A 1_555 1_555
C3A C2A 1_555 1_555
C4A C3A 1_555 1_555
C5A N1A 1_555 1_555
C6A C5A 1_555 1_555
N2A Fe1 1_555 1_555
C7A C6A 1_555 1_555
C8A C7A 1_555 1_555
C9A C4A 1_555 1_555
N3A Fe1 1_555 1_555
C10A N3A 1_555 1_555
N4A C10A 1_555 1_555
C11A N4A 1_555 1_555
N5A C11A 1_555 1_555
N5A_2 Fe2 1_555 1_555
Fe2_2 N5A 1_555 1_555
N6A Fe2 1_555 1_555
C12A N6A 1_555 1_555
C13A C12A 1_555 1_555
N7A Fe2 1_555 1_555
C14A C13A 1_555 1_555
C15A C14A 1_555 1_555
C16A C15A 1_555 1_555
C17A C12A 1_555 1_555
C18A C17A 1_555 1_555
C19A C18A 1_555 1_555
C20A N6A 1_555 1_555
H1A N2A 1_555 1_555
H2A N7A 1_555 1_555
H3A N2A 1_555 1_555
H4A N7A 1_555 1_555
H13A C1A 1_555 1_555
H14A C2A 1_555 1_555
H15A C3A 1_555 1_555
H16A C7A 1_555 1_555
H17A C8A 1_555 1_555
H18A C9A 1_555 1_555
H19A C14A 1_555 1_555
H20A C15A 1_555 1_555
H21A C16A 1_555 1_555
H22A C18A 1_555 1_555
H23A C19A 1_555 1_555
H24A C20A 1_555 1_555
C6 N2 1_555 1_555
C8 C9 1_555 1_555
C13 N7 1_555 1_555
C16 C17 1_555 1_555
C19 C20 1_555 1_555
C4A C5A 1_555 1_555
C6A N2A 1_555 1_555
C8A C9A 1_555 1_555
C13A N7A 1_555 1_555
C16A C17A 1_555 1_555
C19A C20A 1_555 1_555

#END
