
#######################################################################
#
#                 Cambridge Crystallographic Data Centre
#                                CCDC 
#
#######################################################################
#
# If this CIF has been generated from an entry in the Cambridge 
# Structural Database, then it will include bibliographic, chemical, 
# crystal, experimental, refinement or atomic coordinate data resulting 
# from the CCDC's data processing and validation procedures.
#
#######################################################################

data_JITFAU
_symmetry_cell_setting           monoclinic
_symmetry_space_group_name_H-M   'C 2/c'
_symmetry_Int_Tables_number      15
_space_group_name_Hall           '-C 2yn'
loop_
_symmetry_equiv_pos_site_id
_symmetry_equiv_pos_as_xyz
1 x,y,z
2 1/2+x,1/2+y,z
3 -x,y,1/2-z
4 1/2-x,1/2+y,1/2-z
5 -x,-y,-z
6 1/2-x,1/2-y,-z
7 x,-y,1/2+z
8 1/2+x,1/2-y,1/2+z
_cell_length_a                   20.490(3)
_cell_length_b                   25.064(4)
_cell_length_c                   16.563(3)
_cell_angle_alpha                90
_cell_angle_beta                 90.683(3)
_cell_angle_gamma                90
_cell_volume                     8505.51
loop_
_atom_site_label
_atom_site_type_symbol
_atom_site_fract_x
_atom_site_fract_y
_atom_site_fract_z
Cd1 Cd 0.68386(3) 0.11626(2) 0.52595(3)
Cd2 Cd 0.67964(3) 0.37546(3) 0.98446(4)
I1 I 0.67806(3) 0.47787(3) 0.92656(5)
I2 I 0.68152(5) 0.32406(5) 1.12883(6)
N1 N 0.7548(3) 0.1785(3) 0.5622(4)
N2 N 0.6089(3) 0.1733(3) 0.5665(4)
N3 N 0.6834(3) 0.3212(3) 0.8705(4)
N4 N 0.7546(3) 0.0931(3) 0.4357(4)
N5 N 0.6098(3) 0.0897(3) 0.4382(4)
N6 N 1.0596(3) 0.1320(3) 0.4881(5)
N7 N 0.3027(3) 0.1273(3) 0.4846(5)
N8 N 0.6821(3) -0.0625(3) 0.1389(4)
C1 C 0.8202(4) 0.1027(3) 0.4415(5)
C2 C 0.3375(4) 0.1684(4) 0.4594(7)
H1 H 0.3156 0.1969 0.4354
C3 C 0.8511(3) 0.1378(3) 0.4981(5)
C4 C 0.5431(4) 0.1647(3) 0.5594(5)
C5 C 0.6208(4) 0.0553(3) 0.3755(5)
C6 C 0.6828(4) 0.0412(3) 0.3444(5)
C7 C 0.6690(4) 0.2710(4) 0.8709(5)
H2 H 0.6599 0.2558 0.9207
C8 C 0.5112(4) 0.0626(4) 0.3881(5)
H3 H 0.4663 0.0591 0.3810
C9 C 1.0249(5) 0.0889(5) 0.5068(7)
H4 H 1.0470 0.0571 0.5160
C10 C 0.9614(4) 0.1808(4) 0.4818(7)
H5 H 0.9418 0.2139 0.4742
C11 C 0.7131(4) -0.0448(4) 0.2759(5)
H6 H 0.7336 -0.0568 0.3229
C12 C 0.8066(4) 0.0474(4) 0.3360(5)
H7 H 0.8131 0.0259 0.2910
C13 C 0.5112(4) 0.1947(4) 0.6210(5)
H8 H 0.4665 0.1958 0.6300
C14 C 0.5574(4) 0.2209(4) 0.6634(5)
H9 H 0.5508 0.2437 0.7068
C15 C 0.7447(4) 0.2132(3) 0.6234(5)
C16 C 0.6822(4) 0.2254(3) 0.6558(5)
C17 C 0.7447(4) 0.0591(3) 0.3724(5)
C18 C 0.4393(4) 0.1298(4) 0.4998(5)
C19 C 0.6826(4) 0.0045(3) 0.2739(5)
C20 C 0.6660(4) 0.2383(4) 0.8052(5)
H10 H 0.6529 0.2029 0.8100
C21 C 0.5142(4) 0.1299(3) 0.5032(5)
C22 C 0.5442(4) 0.0959(3) 0.4474(5)
C23 C 0.8068(4) 0.2327(4) 0.6534(6)
H11 H 0.8137 0.2578 0.6939
C24 C 0.8209(4) 0.1730(4) 0.5534(5)
C25 C 0.6831(4) 0.2594(3) 0.7311(5)
C26 C 0.9228(4) 0.1365(4) 0.4972(5)
C27 C 1.0268(5) 0.1763(4) 0.4776(7)
H12 H 1.0505 0.2071 0.4665
C28 C 0.7016(5) 0.3421(4) 0.8021(6)
H13 H 0.7145 0.3777 0.8011
C29 C 0.9572(5) 0.0892(4) 0.5133(7)
H14 H 0.9351 0.0584 0.5280
C30 C 0.8529(4) 0.2068(4) 0.6106(6)
H15 H 0.8978 0.2105 0.6174
C31 C 0.6532(4) -0.0156(4) 0.1372(5)
H16 H 0.6318 -0.0054 0.0898
C32 C 0.4035(4) 0.0859(4) 0.5280(6)
H17 H 0.4242 0.0573 0.5532
C33 C 0.7022(5) 0.3123(4) 0.7297(6)
H18 H 0.7153 0.3280 0.6817
C34 C 0.5585(4) 0.0370(4) 0.3443(6)
H19 H 0.5517 0.0126 0.3027
C35 C 0.4050(4) 0.1711(4) 0.4669(6)
H20 H 0.4270 0.2014 0.4493
C36 C 0.6191(3) 0.2068(3) 0.6288(5)
C37 C 0.6526(4) 0.0188(4) 0.2010(5)
H21 H 0.6323 0.0518 0.1958
C38 C 0.3357(4) 0.0868(4) 0.5172(6)
H22 H 0.3121 0.0571 0.5338
C39 C 0.7128(4) -0.0761(4) 0.2069(5)
H23 H 0.7353 -0.1083 0.2083
C40 C 0.8529(4) 0.0728(4) 0.3784(5)
H24 H 0.8976 0.0716 0.3693
Cd1F Cd 0.68386(3) -0.11626(2) 0.02595(3)
Cd2G Cd 1.17964(3) 0.12454(3) 0.48446(4)
Cd2G_2 Cd 0.17964(3) 0.12454(3) 0.48446(4)
N6G N 0.5596(3) 0.3680(3) 0.9881(5)
N7G N 0.8027(3) 0.3727(3) 0.9846(5)
N8F N 0.6821(3) 0.0625(3) 0.6389(4)
loop_
_geom_bond_atom_site_label_1
_geom_bond_atom_site_label_2
_geom_bond_site_symmetry_1
_geom_bond_site_symmetry_2
Cd1 N1 1_555 1_555
Cd2 I1 1_555 1_555
I2 Cd2 1_555 1_555
N1 C15 1_555 1_555
N2 Cd1 1_555 1_555
N3 Cd2 1_555 1_555
N4 Cd1 1_555 1_555
N5 Cd1 1_555 1_555
N6 C9 1_555 1_555
N7 C2 1_555 1_555
N8 C31 1_555 1_555
C1 N4 1_555 1_555
C2 H1 1_555 1_555
C3 C1 1_555 1_555
C4 N2 1_555 1_555
C5 N5 1_555 1_555
C6 C5 1_555 1_555
C7 N3 1_555 1_555
H2 C7 1_555 1_555
C8 H3 1_555 1_555
C9 H4 1_555 1_555
C10 H5 1_555 1_555
C11 H6 1_555 1_555
C12 H7 1_555 1_555
C13 C4 1_555 1_555
H8 C13 1_555 1_555
C14 C13 1_555 1_555
H9 C14 1_555 1_555
C15 C16 1_555 1_555
C16 C25 1_555 1_555
C17 N4 1_555 1_555
C18 C21 1_555 1_555
C19 C6 1_555 1_555
C20 C7 1_555 1_555
H10 C20 1_555 1_555
C21 C4 1_555 1_555
C22 N5 1_555 1_555
C23 C15 1_555 1_555
H11 C23 1_555 1_555
C24 N1 1_555 1_555
C25 C20 1_555 1_555
C26 C3 1_555 1_555
C27 N6 1_555 1_555
H12 C27 1_555 1_555
C28 N3 1_555 1_555
H13 C28 1_555 1_555
C29 C9 1_555 1_555
H14 C29 1_555 1_555
C30 C23 1_555 1_555
H15 C30 1_555 1_555
C31 H16 1_555 1_555
C32 C18 1_555 1_555
H17 C32 1_555 1_555
C33 C25 1_555 1_555
H18 C33 1_555 1_555
C34 C5 1_555 1_555
H19 C34 1_555 1_555
C35 C2 1_555 1_555
H20 C35 1_555 1_555
C36 N2 1_555 1_555
C37 C19 1_555 1_555
H21 C37 1_555 1_555
C38 N7 1_555 1_555
H22 C38 1_555 1_555
C39 N8 1_555 1_555
H23 C39 1_555 1_555
C40 C1 1_555 1_555
H24 C40 1_555 1_555
Cd1F N8 1_555 1_555
Cd2G N6 1_555 1_555
Cd2G_2 N7 1_555 1_555
N6G Cd2 1_555 1_555
N7G Cd2 1_555 1_555
N8F Cd1 1_555 1_555
C3 C24 1_555 1_555
C6 C17 1_555 1_555
C8 C22 1_555 1_555
C8 C34 1_555 1_555
C10 C26 1_555 1_555
C10 C27 1_555 1_555
C11 C19 1_555 1_555
C11 C39 1_555 1_555
C12 C17 1_555 1_555
C12 C40 1_555 1_555
C14 C36 1_555 1_555
C16 C36 1_555 1_555
C18 C35 1_555 1_555
C21 C22 1_555 1_555
C24 C30 1_555 1_555
C26 C29 1_555 1_555
C28 C33 1_555 1_555
C31 C37 1_555 1_555
C32 C38 1_555 1_555

#END
