
#######################################################################
#
#                 Cambridge Crystallographic Data Centre
#                                CCDC 
#
#######################################################################
#
# If this CIF has been generated from an entry in the Cambridge 
# Structural Database, then it will include bibliographic, chemical, 
# crystal, experimental, refinement or atomic coordinate data resulting 
# from the CCDC's data processing and validation procedures.
#
#######################################################################

data_JITFEY
_symmetry_cell_setting           monoclinic
_symmetry_space_group_name_H-M   'C 2'
_symmetry_Int_Tables_number      5
_space_group_name_Hall           'C 2y'
loop_
_symmetry_equiv_pos_site_id
_symmetry_equiv_pos_as_xyz
1 x,y,z
2 -x,y,-z
3 1/2+x,1/2+y,z
4 1/2-x,1/2+y,-z
_cell_length_a                   16.221(2)
_cell_length_b                   19.434(3)
_cell_length_c                   14.943(2)
_cell_angle_alpha                90
_cell_angle_beta                 114.198(2)
_cell_angle_gamma                90
_cell_volume                     4296.71
loop_
_atom_site_label
_atom_site_type_symbol
_atom_site_fract_x
_atom_site_fract_y
_atom_site_fract_z
Cd1 Cd 1.0000 1.18333(2) 0.0000
Cd2 Cd 0.68321(2) 1.154335(16) -0.16967(2)
S1 S 0.84629(10) 1.17400(10) -0.14326(12)
N1 N 1.1369(3) 1.7491(2) -0.1215(3)
N2 N 1.1365(3) 1.6069(2) -0.0619(3)
N3 N 1.1317(3) 1.5582(2) -0.2548(3)
N4 N 1.1192(3) 1.7016(2) -0.3209(3)
N5 N 1.1601(5) 1.7871(4) 0.3157(4)
N6 N 1.0490(4) 1.2838(3) -0.0666(4)
N7 N 1.1554(4) 1.5161(4) -0.6690(4)
N8 N 1.0526(6) 2.0304(3) -0.3696(5)
O2 O 1.0380(4) 1.1106(4) -0.1173(5)
C1 C 1.1323(4) 1.7599(3) -0.0335(4)
C2 C 1.1080(4) 1.8305(3) -0.0280(4)
H1 H 1.1016 1.8514 0.0249
C3 C 1.0960(4) 1.8609(3) -0.1138(4)
H2 H 1.0791 1.9063 -0.1315
C4 C 1.1144(4) 1.8098(3) -0.1724(4)
C5 C 1.1415(3) 1.6371(3) 0.0221(3)
C6 C 1.1375(4) 1.5837(3) 0.0889(4)
H3 H 1.1410 1.5904 0.1520
C7 C 1.1277(4) 1.5233(3) 0.0424(4)
H4 H 1.1219 1.4804 0.0669
C8 C 1.1277(4) 1.5369(3) -0.0529(4)
C9 C 1.1157(4) 1.4974(3) -0.2207(4)
C10 C 1.0971(4) 1.4458(3) -0.2950(4)
H5 H 1.0820 1.4002 -0.2906
C11 C 1.1056(4) 1.4758(3) -0.3732(4)
H6 H 1.0999 1.4544 -0.4311
C12 C 1.1254(4) 1.5483(3) -0.3476(4)
C13 C 1.1278(3) 1.6719(3) -0.3992(3)
C14 C 1.1306(4) 1.7255(3) -0.4664(4)
H7 H 1.1380 1.7193 -0.5244
C15 C 1.1203(4) 1.7864(3) -0.4271(4)
H8 H 1.1165 1.8297 -0.4550
C16 C 1.1162(4) 1.7717(3) -0.3352(4)
C17 C 1.1426(4) 1.7074(3) 0.0377(3)
C18 C 1.1139(4) 1.4872(3) -0.1288(4)
C19 C 1.1327(4) 1.6002(3) -0.4125(4)
C20 C 1.1094(4) 1.8211(3) -0.2683(4)
C21 C 1.1491(4) 1.7339(3) 0.1355(4)
C22 C 1.0930(5) 1.7446(4) 0.2600(4)
H9 H 1.0496 1.7325 0.2829
C23 C 1.0849(4) 1.7181(3) 0.1717(4)
H10 H 1.0365 1.6895 0.1361
C24 C 1.2180(5) 1.7773(5) 0.1917(5)
H11 H 1.2613 1.7911 0.1696
C25 C 1.2226(6) 1.8005(6) 0.2816(5)
H12 H 1.2722 1.8270 0.3203
C26 C 1.0923(4) 1.4163(3) -0.1069(4)
C27 C 1.0055(4) 1.3902(3) -0.1534(4)
H13 H 0.9601 1.4163 -0.2001
C28 C 0.9876(4) 1.3250(3) -0.1295(4)
H14 H 0.9284 1.3090 -0.1595
C29 C 1.1331(4) 1.3085(3) -0.0214(5)
H15 H 1.1775 1.2807 0.0235
C30 C 1.1563(4) 1.3740(3) -0.0394(5)
H16 H 1.2153 1.3897 -0.0059
C31 C 1.1410(4) 1.5738(3) -0.5023(4)
C32 C 1.0830(4) 1.5931(3) -0.5958(4)
H17 H 1.0376 1.6252 -0.6055
C33 C 1.0935(5) 1.5636(4) -0.6761(4)
H18 H 1.0547 1.5781 -0.7385
C34 C 1.2106(5) 1.4981(5) -0.5771(5)
H19 H 1.2548 1.4655 -0.5693
C35 C 1.2067(4) 1.5245(3) -0.4933(4)
H20 H 1.2471 1.5097 -0.4317
C36 C 1.0908(4) 1.8937(3) -0.3041(4)
C37 C 1.0035(5) 1.9150(3) -0.3598(4)
H21 H 0.9553 1.8844 -0.3772
C38 C 0.9895(6) 1.9843(4) -0.3895(5)
H22 H 0.9303 1.9983 -0.4264
C39 C 1.1348(6) 2.0094(3) -0.3164(6)
H23 H 1.1809 2.0417 -0.3004
C40 C 1.1592(5) 1.9425(3) -0.2815(5)
H24 H 1.2193 1.9309 -0.2444
C44 C 0.8709(6) 1.1142(7) -0.2215(7)
H32 H 0.8608 1.0678 -0.2044
H33 H 0.8291 1.1223 -0.2889
C45 C 0.9570(8) 1.1188(13) -0.2151(10)
H34 H 0.9627 1.1634 -0.2413
H35 H 0.9630 1.0845 -0.2592
Cd2A Cd 1.31679(2) 1.154335(16) 0.16967(2)
Cd2B Cd 1.18321(2) 1.654335(16) -0.16967(2)
Cd2C Cd 0.81679(2) 1.654335(16) 0.16967(2)
S1A S 1.15371(10) 1.17400(10) 0.14326(12)
N1A N 0.8631(3) 1.7491(2) 0.1215(3)
N1B N 0.6369(3) 1.2491(2) -0.1215(3)
N1C N 1.3631(3) 1.2491(2) 0.1215(3)
N2A N 0.8635(3) 1.6069(2) 0.0619(3)
N2B N 0.6365(3) 1.1069(2) -0.0619(3)
N2C N 1.3635(3) 1.1069(2) 0.0619(3)
N3A N 0.8683(3) 1.5582(2) 0.2548(3)
N3B N 0.6317(3) 1.0582(2) -0.2548(3)
N3C N 1.3683(3) 1.0582(2) 0.2548(3)
N4A N 0.8808(3) 1.7016(2) 0.3209(3)
N4B N 0.6192(3) 1.2016(2) -0.3209(3)
N4C N 1.3808(3) 1.2016(2) 0.3209(3)
N5A N 0.8399(5) 1.7871(4) -0.3157(4)
N6A N 0.9510(4) 1.2838(3) 0.0666(4)
N7A N 0.8446(4) 1.5161(4) 0.6690(4)
N8A N 0.9474(6) 2.0304(3) 0.3696(5)
O2A O 0.9620(4) 1.1106(4) 0.1173(5)
C1A C 0.8677(4) 1.7599(3) 0.0335(4)
C2A C 0.8920(4) 1.8305(3) 0.0280(4)
H1A H 0.8984 1.8514 -0.0249
C3A C 0.9040(4) 1.8609(3) 0.1138(4)
H2A H 0.9209 1.9063 0.1315
C4A C 0.8856(4) 1.8098(3) 0.1724(4)
C5A C 0.8585(3) 1.6371(3) -0.0221(3)
C6A C 0.8625(4) 1.5837(3) -0.0889(4)
H3A H 0.8590 1.5904 -0.1520
C7A C 0.8723(4) 1.5233(3) -0.0424(4)
H4A H 0.8781 1.4804 -0.0669
C8A C 0.8723(4) 1.5369(3) 0.0529(4)
C9A C 0.8843(4) 1.4974(3) 0.2207(4)
C10A C 0.9029(4) 1.4458(3) 0.2950(4)
H5A H 0.9180 1.4002 0.2906
C11A C 0.8944(4) 1.4758(3) 0.3732(4)
H6A H 0.9001 1.4544 0.4311
C12A C 0.8746(4) 1.5483(3) 0.3476(4)
C13A C 0.8722(3) 1.6719(3) 0.3992(3)
C14A C 0.8694(4) 1.7255(3) 0.4664(4)
H7A H 0.8620 1.7193 0.5244
C15A C 0.8797(4) 1.7864(3) 0.4271(4)
H8A H 0.8835 1.8297 0.4550
C16A C 0.8838(4) 1.7717(3) 0.3352(4)
C17A C 0.8574(4) 1.7074(3) -0.0377(3)
C18A C 0.8861(4) 1.4872(3) 0.1288(4)
C19A C 0.8673(4) 1.6002(3) 0.4125(4)
C20A C 0.8906(4) 1.8211(3) 0.2683(4)
C21A C 0.8509(4) 1.7339(3) -0.1355(4)
C22A C 0.9070(5) 1.7446(4) -0.2600(4)
H9A H 0.9504 1.7325 -0.2829
C23A C 0.9151(4) 1.7181(3) -0.1717(4)
H10A H 0.9635 1.6895 -0.1361
C24A C 0.7820(5) 1.7773(5) -0.1917(5)
H11A H 0.7387 1.7911 -0.1696
C25A C 0.7774(6) 1.8005(6) -0.2816(5)
H12A H 0.7278 1.8270 -0.3203
C26A C 0.9077(4) 1.4163(3) 0.1069(4)
C27A C 0.9945(4) 1.3902(3) 0.1534(4)
H13A H 1.0399 1.4163 0.2001
C28A C 1.0124(4) 1.3250(3) 0.1295(4)
H14A H 1.0716 1.3090 0.1595
C29A C 0.8669(4) 1.3085(3) 0.0214(5)
H15A H 0.8225 1.2807 -0.0235
C30A C 0.8437(4) 1.3740(3) 0.0394(5)
H16A H 0.7847 1.3897 0.0059
C31A C 0.8590(4) 1.5738(3) 0.5023(4)
C32A C 0.9170(4) 1.5931(3) 0.5958(4)
H17A H 0.9624 1.6252 0.6055
C33A C 0.9065(5) 1.5636(4) 0.6761(4)
H18A H 0.9453 1.5781 0.7385
C34A C 0.7894(5) 1.4981(5) 0.5771(5)
H19A H 0.7452 1.4655 0.5693
C35A C 0.7933(4) 1.5245(3) 0.4933(4)
H20A H 0.7529 1.5097 0.4317
C36A C 0.9092(4) 1.8937(3) 0.3041(4)
C37A C 0.9965(5) 1.9150(3) 0.3598(4)
H21A H 1.0447 1.8844 0.3772
C38A C 1.0105(6) 1.9843(4) 0.3895(5)
H22A H 1.0697 1.9983 0.4264
C39A C 0.8652(6) 2.0094(3) 0.3164(6)
H23A H 0.8191 2.0417 0.3004
C40A C 0.8408(5) 1.9425(3) 0.2815(5)
H24A H 0.7807 1.9309 0.2444
C44A C 1.1291(6) 1.1142(7) 0.2215(7)
H32A H 1.1392 1.0678 0.2044
H33A H 1.1709 1.1223 0.2889
C45A C 1.0430(8) 1.1188(13) 0.2151(10)
H34A H 1.0373 1.1634 0.2413
H35A H 1.0370 1.0845 0.2592
O1 O 0.5523(6) 0.7781(5) -0.3330(7)
N9 N 0.4130(6) 0.7367(5) -0.4350(7)
C41 C 0.3643(13) 0.7991(9) -0.4369(13)
H25 H 0.4059 0.8337 -0.3983
H26 H 0.3206 0.7903 -0.4104
H27 H 0.3340 0.8149 -0.5034
C42 C 0.3530(10) 0.6791(8) -0.4897(11)
H28 H 0.3886 0.6386 -0.4840
H29 H 0.3219 0.6914 -0.5576
H30 H 0.3096 0.6701 -0.4626
C43 C 0.5033(7) 0.7301(7) -0.3861(9)
H31 H 0.5305 0.6892 -0.3915
loop_
_geom_bond_atom_site_label_1
_geom_bond_atom_site_label_2
_geom_bond_site_symmetry_1
_geom_bond_site_symmetry_2
Cd1 S1 1_555 1_555
Cd2 S1 1_555 1_555
S1 C44 1_555 1_555
O1 C43 1_555 1_555
N1 C1 1_555 1_555
N2 C5 1_555 1_555
N3 C9 1_555 1_555
N4 C13 1_555 1_555
N5 C22 1_555 1_555
N6 Cd1 1_555 1_555
N7 C33 1_555 1_555
N8 C38 1_555 1_555
N9 C41 1_555 1_555
O2 Cd1 1_555 1_555
C1 C2 1_555 1_555
C2 H1 1_555 1_555
C3 C2 1_555 1_555
H2 C3 1_555 1_555
C4 N1 1_555 1_555
C5 C6 1_555 1_555
C6 H3 1_555 1_555
C7 C6 1_555 1_555
H4 C7 1_555 1_555
C8 N2 1_555 1_555
C9 C10 1_555 1_555
C10 H5 1_555 1_555
C11 C10 1_555 1_555
H6 C11 1_555 1_555
C12 N3 1_555 1_555
C13 C14 1_555 1_555
C14 H7 1_555 1_555
C15 C14 1_555 1_555
H8 C15 1_555 1_555
C16 N4 1_555 1_555
C17 C1 1_555 1_555
C18 C8 1_555 1_555
C19 C12 1_555 1_555
C20 C4 1_555 1_555
C21 C17 1_555 1_555
C22 H9 1_555 1_555
C23 C21 1_555 1_555
H10 C23 1_555 1_555
C24 C21 1_555 1_555
H11 C24 1_555 1_555
C25 N5 1_555 1_555
H12 C25 1_555 1_555
C26 C18 1_555 1_555
C27 C26 1_555 1_555
H13 C27 1_555 1_555
C28 N6 1_555 1_555
H14 C28 1_555 1_555
C29 N6 1_555 1_555
H15 C29 1_555 1_555
C30 C26 1_555 1_555
H16 C30 1_555 1_555
C31 C19 1_555 1_555
C32 C31 1_555 1_555
H17 C32 1_555 1_555
C33 C32 1_555 1_555
H18 C33 1_555 1_555
C34 N7 1_555 1_555
H19 C34 1_555 1_555
C35 C31 1_555 1_555
H20 C35 1_555 1_555
C36 C20 1_555 1_555
C37 C36 1_555 1_555
H21 C37 1_555 1_555
C38 C37 1_555 1_555
H22 C38 1_555 1_555
C39 N8 1_555 1_555
H23 C39 1_555 1_555
C40 C36 1_555 1_555
H24 C40 1_555 1_555
C41 H25 1_555 1_555
H26 C41 1_555 1_555
H27 C41 1_555 1_555
C42 N9 1_555 1_555
H28 C42 1_555 1_555
H29 C42 1_555 1_555
H30 C42 1_555 1_555
C43 N9 1_555 1_555
H31 C43 1_555 1_555
C44 H32 1_555 1_555
H33 C44 1_555 1_555
C45 O2 1_555 1_555
H34 C45 1_555 1_555
H35 C45 1_555 1_555
Cd2A S1A 1_555 1_555
Cd2B N1 1_555 1_555
Cd2C N1A 1_555 1_555
S1A Cd1 1_555 1_555
N1A C1A 1_555 1_555
N1B Cd2 1_555 1_555
N1C Cd2A 1_555 1_555
N2A Cd2C 1_555 1_555
N2B Cd2 1_555 1_555
N2C Cd2A 1_555 1_555
N3A Cd2C 1_555 1_555
N3B Cd2 1_555 1_555
N3C Cd2A 1_555 1_555
N4A Cd2C 1_555 1_555
N4B Cd2 1_555 1_555
N4C Cd2A 1_555 1_555
N5A C22A 1_555 1_555
N6A Cd1 1_555 1_555
N7A C33A 1_555 1_555
N8A C38A 1_555 1_555
O2A Cd1 1_555 1_555
C1A C2A 1_555 1_555
C2A H1A 1_555 1_555
C3A C2A 1_555 1_555
H2A C3A 1_555 1_555
C4A N1A 1_555 1_555
C5A N2A 1_555 1_555
C6A C5A 1_555 1_555
H3A C6A 1_555 1_555
C7A C6A 1_555 1_555
H4A C7A 1_555 1_555
C8A N2A 1_555 1_555
C9A N3A 1_555 1_555
C10A C9A 1_555 1_555
H5A C10A 1_555 1_555
C11A C10A 1_555 1_555
H6A C11A 1_555 1_555
C12A N3A 1_555 1_555
C13A N4A 1_555 1_555
C14A C13A 1_555 1_555
H7A C14A 1_555 1_555
C15A C14A 1_555 1_555
H8A C15A 1_555 1_555
C16A N4A 1_555 1_555
C17A C1A 1_555 1_555
C18A C8A 1_555 1_555
C19A C12A 1_555 1_555
C20A C4A 1_555 1_555
C21A C17A 1_555 1_555
C22A H9A 1_555 1_555
C23A C21A 1_555 1_555
H10A C23A 1_555 1_555
C24A C21A 1_555 1_555
H11A C24A 1_555 1_555
C25A N5A 1_555 1_555
H12A C25A 1_555 1_555
C26A C18A 1_555 1_555
C27A C26A 1_555 1_555
H13A C27A 1_555 1_555
C28A N6A 1_555 1_555
H14A C28A 1_555 1_555
C29A N6A 1_555 1_555
H15A C29A 1_555 1_555
C30A C26A 1_555 1_555
H16A C30A 1_555 1_555
C31A C19A 1_555 1_555
C32A C31A 1_555 1_555
H17A C32A 1_555 1_555
C33A C32A 1_555 1_555
H18A C33A 1_555 1_555
C34A N7A 1_555 1_555
H19A C34A 1_555 1_555
C35A C31A 1_555 1_555
H20A C35A 1_555 1_555
C36A C20A 1_555 1_555
C37A C36A 1_555 1_555
H21A C37A 1_555 1_555
C38A C37A 1_555 1_555
H22A C38A 1_555 1_555
C39A N8A 1_555 1_555
H23A C39A 1_555 1_555
C40A C36A 1_555 1_555
H24A C40A 1_555 1_555
C44A S1A 1_555 1_555
H32A C44A 1_555 1_555
H33A C44A 1_555 1_555
C45A O2A 1_555 1_555
H34A C45A 1_555 1_555
H35A C45A 1_555 1_555
N2 Cd2B 1_555 1_555
N3 Cd2B 1_555 1_555
N4 Cd2B 1_555 1_555
C3 C4 1_555 1_555
C5 C17 1_555 1_555
C7 C8 1_555 1_555
C9 C18 1_555 1_555
C11 C12 1_555 1_555
C13 C19 1_555 1_555
C15 C16 1_555 1_555
C16 C20 1_555 1_555
C22 C23 1_555 1_555
C24 C25 1_555 1_555
C27 C28 1_555 1_555
C29 C30 1_555 1_555
C34 C35 1_555 1_555
C39 C40 1_555 1_555
C44 C45 1_555 1_555
C3A C4A 1_555 1_555
C5A C17A 1_555 1_555
C7A C8A 1_555 1_555
C9A C18A 1_555 1_555
C11A C12A 1_555 1_555
C13A C19A 1_555 1_555
C15A C16A 1_555 1_555
C16A C20A 1_555 1_555
C22A C23A 1_555 1_555
C24A C25A 1_555 1_555
C27A C28A 1_555 1_555
C29A C30A 1_555 1_555
C34A C35A 1_555 1_555
C39A C40A 1_555 1_555
C44A C45A 1_555 1_555

#END
