
#######################################################################
#
#                 Cambridge Crystallographic Data Centre
#                                CCDC 
#
#######################################################################
#
# If this CIF has been generated from an entry in the Cambridge 
# Structural Database, then it will include bibliographic, chemical, 
# crystal, experimental, refinement or atomic coordinate data resulting 
# from the CCDC's data processing and validation procedures.
#
#######################################################################

data_JITFIC
_symmetry_cell_setting           monoclinic
_symmetry_space_group_name_H-M   'P 21/c'
_symmetry_Int_Tables_number      14
_space_group_name_Hall           '-P 2ybc'
loop_
_symmetry_equiv_pos_site_id
_symmetry_equiv_pos_as_xyz
1 x,y,z
2 -x,1/2+y,1/2-z
3 -x,-y,-z
4 x,1/2-y,1/2+z
_cell_length_a                   9.617(2)
_cell_length_b                   10.046(2)
_cell_length_c                   23.158(5)
_cell_angle_alpha                90
_cell_angle_beta                 98.590(4)
_cell_angle_gamma                90
_cell_volume                     2212.25
loop_
_atom_site_label
_atom_site_type_symbol
_atom_site_fract_x
_atom_site_fract_y
_atom_site_fract_z
Co1 Co 0.493194(19) 0.183204(17) 0.941593(7)
O1 O 0.58707(11) 0.13704(10) 1.02453(4)
O2 O 0.56961(11) -0.00657(9) 1.09637(4)
O3 O 0.56977(13) 0.69476(10) 1.14001(5)
O4 O 0.46799(11) 0.60993(10) 1.05715(4)
N1 N 0.69473(13) 0.15981(12) 0.91094(5)
N2 N 1.04159(14) 0.17320(15) 0.76962(6)
N3 N 1.03164(13) 0.24242(15) 0.64914(6)
N4 N 1.30177(12) 0.27649(12) 0.47916(5)
C1 C 0.80029(17) 0.24085(17) 0.93200(7)
H1 H 0.7907 0.2929 0.9644
C2 C 0.92315(17) 0.25124(19) 0.90803(7)
H2 H 0.9928 0.3105 0.9238
C3 C 0.94258(16) 0.17391(17) 0.86073(6)
C4 C 0.83513(18) 0.08741(18) 0.83992(7)
H3 H 0.8441 0.0316 0.8086
C5 C 0.71450(17) 0.08368(16) 0.86548(7)
H4 H 0.6433 0.0252 0.8503
C6 C 1.07475(18) 0.1852(2) 0.83289(7)
H5 H 1.1194 0.2704 0.8429
H6 H 1.1402 0.1156 0.8479
C7 C 0.95736(18) 0.28466(19) 0.74399(7)
H7 H 1.0125 0.3658 0.7489
H8 H 0.8759 0.2960 0.7637
C8 C 0.91046(17) 0.2589(2) 0.68006(7)
H9 H 0.8531 0.1790 0.6754
H10 H 0.8534 0.3327 0.6632
C9 C 1.12478(18) 0.1384(2) 0.67672(7)
H11 H 1.2084 0.1344 0.6580
H12 H 1.0775 0.0531 0.6712
C10 C 1.16759(18) 0.1633(2) 0.74147(7)
H13 H 1.2264 0.0908 0.7587
H14 H 1.2213 0.2451 0.7474
C11 C 0.98127(18) 0.2120(2) 0.58815(7)
H15 H 0.9014 0.2685 0.5743
H16 H 0.9498 0.1202 0.5849
C12 C 1.26809(16) 0.15360(15) 0.49458(7)
H17 H 1.3155 0.0818 0.4813
C13 C 1.16597(17) 0.12828(17) 0.52943(7)
H18 H 1.1457 0.0411 0.5388
C14 C 1.09418(16) 0.23277(18) 0.55021(6)
C15 C 1.12897(17) 0.35974(18) 0.53421(7)
H19 H 1.0831 0.4331 0.5470
C16 C 1.23168(16) 0.37750(16) 0.49929(7)
H20 H 1.2534 0.4638 0.4892
C17 C 0.55718(14) 0.22253(13) 1.11758(6)
C18 C 0.54659(14) 0.35230(13) 1.09673(6)
H21 H 0.5463 0.3685 1.0572
C19 C 0.53635(14) 0.45829(13) 1.13456(6)
C20 C 0.53756(17) 0.43396(15) 1.19379(6)
H22 H 0.5339 0.5047 1.2194
C21 C 0.54428(18) 0.30411(15) 1.21473(6)
H23 H 0.5423 0.2877 1.2541
C22 C 0.55402(15) 0.19897(13) 1.17668(6)
H24 H 0.5585 0.1121 1.1907
C23 C 0.57147(13) 0.10942(13) 1.07613(5)
C24 C 0.52414(15) 0.59653(13) 1.10994(6)
Co1B Co 0.506806(19) -0.183204(17) 1.058407(7)
Co1B_2 Co 0.506806(19) 0.816796(17) 1.058407(7)
Co1C Co 1.493194(19) 0.316796(17) 0.441593(7)
O2B O 0.43039(11) 0.00657(9) 0.90363(4)
O3B O 0.43023(13) 0.30524(10) 0.85999(5)
O4B O 0.53201(11) 0.39007(10) 0.94285(4)
N4C N 0.30177(12) 0.22351(12) 0.97916(5)
loop_
_geom_bond_atom_site_label_1
_geom_bond_atom_site_label_2
_geom_bond_site_symmetry_1
_geom_bond_site_symmetry_2
Co1 O1 1_555 1_555
O1 C23 1_555 1_555
O2 C23 1_555 1_555
O3 C24 1_555 1_555
O4 C24 1_555 1_555
N1 Co1 1_555 1_555
N2 C6 1_555 1_555
N3 C8 1_555 1_555
N4 C12 1_555 1_555
C1 N1 1_555 1_555
H1 C1 1_555 1_555
C2 C1 1_555 1_555
H2 C2 1_555 1_555
C3 C2 1_555 1_555
C4 C3 1_555 1_555
H3 C4 1_555 1_555
C5 N1 1_555 1_555
H4 C5 1_555 1_555
C6 C3 1_555 1_555
H5 C6 1_555 1_555
H6 C6 1_555 1_555
C7 N2 1_555 1_555
H7 C7 1_555 1_555
H8 C7 1_555 1_555
C8 C7 1_555 1_555
H9 C8 1_555 1_555
H10 C8 1_555 1_555
C9 N3 1_555 1_555
H11 C9 1_555 1_555
H12 C9 1_555 1_555
C10 N2 1_555 1_555
H13 C10 1_555 1_555
H14 C10 1_555 1_555
C11 N3 1_555 1_555
H15 C11 1_555 1_555
H16 C11 1_555 1_555
C12 H17 1_555 1_555
C13 C12 1_555 1_555
H18 C13 1_555 1_555
C14 C11 1_555 1_555
C15 C14 1_555 1_555
H19 C15 1_555 1_555
C16 N4 1_555 1_555
H20 C16 1_555 1_555
C17 C18 1_555 1_555
C18 H21 1_555 1_555
C19 C18 1_555 1_555
C20 C19 1_555 1_555
H22 C20 1_555 1_555
C21 C20 1_555 1_555
H23 C21 1_555 1_555
C22 C17 1_555 1_555
H24 C22 1_555 1_555
C23 C17 1_555 1_555
C24 C19 1_555 1_555
Co1B O2 1_555 1_555
Co1B_2 O3 1_555 1_555
Co1C N4 1_555 1_555
O2B Co1 1_555 1_555
O3B Co1 1_555 1_555
O4B Co1 1_555 1_555
N4C Co1 1_555 1_555
O4 Co1B_2 1_555 1_555
C4 C5 1_555 1_555
C9 C10 1_555 1_555
C13 C14 1_555 1_555
C15 C16 1_555 1_555
C21 C22 1_555 1_555

#END
