
#######################################################################
#
#                 Cambridge Crystallographic Data Centre
#                                CCDC 
#
#######################################################################
#
# If this CIF has been generated from an entry in the Cambridge 
# Structural Database, then it will include bibliographic, chemical, 
# crystal, experimental, refinement or atomic coordinate data resulting 
# from the CCDC's data processing and validation procedures.
#
#######################################################################

data_JITGAV
_symmetry_cell_setting           monoclinic
_symmetry_space_group_name_H-M   'C 2/c'
_symmetry_Int_Tables_number      15
_space_group_name_Hall           '-C 2yn'
loop_
_symmetry_equiv_pos_site_id
_symmetry_equiv_pos_as_xyz
1 x,y,z
2 1/2+x,1/2+y,z
3 -x,y,1/2-z
4 1/2-x,1/2+y,1/2-z
5 -x,-y,-z
6 1/2-x,1/2-y,-z
7 x,-y,1/2+z
8 1/2+x,1/2-y,1/2+z
_cell_length_a                   15.982(5)
_cell_length_b                   15.038(4)
_cell_length_c                   20.859(6)
_cell_angle_alpha                90
_cell_angle_beta                 109.946(4)
_cell_angle_gamma                90
_cell_volume                     4712.48
loop_
_atom_site_label
_atom_site_type_symbol
_atom_site_fract_x
_atom_site_fract_y
_atom_site_fract_z
Zn1 Zn 0.170854(11) 0.143232(11) 0.379701(8)
O1 O 0.17632(9) 0.26084(10) 0.30248(6)
O3 O 0.27743(7) 0.22204(7) 0.39976(5)
O4 O 0.23639(8) 0.52540(8) 0.17737(6)
O5 O 0.37801(7) 0.55858(7) 0.19447(5)
N1 N 0.21707(8) 0.07294(8) 0.47139(6)
N2 N 0.42193(9) -0.07879(9) 0.68895(6)
N3 N -0.20971(8) 0.27006(9) 0.44934(6)
N4 N 0.06167(8) 0.20125(8) 0.39118(6)
C1 C 0.31787(10) 0.33088(10) 0.33244(7)
C2 C 0.28902(10) 0.39164(10) 0.27909(7)
H3 H 0.2294 0.3928 0.2515
C3 C 0.34895(10) 0.45085(10) 0.26671(7)
C4 C 0.43810(10) 0.44904(10) 0.30856(8)
H4 H 0.4785 0.4882 0.3006
C5 C 0.46664(10) 0.38902(12) 0.36198(9)
H5 H 0.5260 0.3886 0.3901
C6 C 0.40705(10) 0.32935(11) 0.37382(8)
H6 H 0.4267 0.2885 0.4093
C7 C 0.25213(10) 0.26808(10) 0.34477(8)
C8 C 0.31671(10) 0.51600(10) 0.20835(7)
C9 C -0.02050(10) 0.19215(11) 0.34509(8)
H7 H -0.0281 0.1572 0.3067
C10 C -0.09404(10) 0.23287(11) 0.35271(8)
H8 H -0.1503 0.2236 0.3207
C11 C -0.08345(10) 0.28770(10) 0.40845(8)
C12 C 0.00184(10) 0.29902(10) 0.45496(8)
H9 H 0.0116 0.3365 0.4923
C13 C 0.07203(10) 0.25422(10) 0.44531(8)
H10 H 0.1287 0.2609 0.4775
C14 C -0.16274(11) 0.33193(11) 0.41853(9)
H11 H -0.1430 0.3834 0.4479
H12 H -0.2033 0.3523 0.3749
C15 C -0.29426(10) 0.31016(11) 0.44715(8)
H13 H -0.3307 0.3216 0.4001
H14 H -0.2828 0.3666 0.4712
C16 C -0.15598(10) 0.25071(11) 0.52037(8)
H15 H -0.1415 0.3058 0.5459
H16 H -0.1007 0.2227 0.5219
C17 C 0.30482(10) 0.05626(10) 0.49783(8)
H17 H 0.3413 0.0763 0.4744
C18 C 0.34330(10) 0.01050(10) 0.55840(8)
H18 H 0.4045 0.0010 0.5752
C19 C 0.29010(10) -0.02113(10) 0.59397(7)
C20 C 0.19899(10) -0.00256(10) 0.56672(8)
H19 H 0.1610 -0.0214 0.5893
C21 C 0.16569(10) 0.04376(10) 0.50633(8)
H20 H 0.1049 0.0554 0.4890
C22 C 0.32491(10) -0.07982(11) 0.65597(8)
H21 H 0.2979 -0.0613 0.6890
H22 H 0.3061 -0.1404 0.6428
C23 C 0.45008(11) 0.00123(10) 0.73188(8)
H23 H 0.4202 0.0028 0.7653
H24 H 0.4330 0.0540 0.7036
C24 C 0.45012(11) -0.15843(10) 0.73186(8)
H25 H 0.4331 -0.2112 0.7037
H26 H 0.4203 -0.1600 0.7653
Zn1C Zn 0.329146(11) -0.356768(11) 0.120299(8)
Zn1C_2 Zn 0.329146(11) 0.643232(11) 0.120299(8)
Zn1B Zn 0.829146(11) 0.143232(11) 1.120299(8)
Zn1E Zn -0.670854(11) 0.356768(11) 0.620299(8)
O1C O 0.32368(9) -0.23916(10) 0.19752(6)
O3C O 0.22257(7) -0.27796(7) 0.10024(5)
O4C O 0.26361(8) 0.02540(8) 0.32263(6)
O5C O 0.12199(7) 0.05858(7) 0.30553(5)
O5_2 O 0.37801(7) -0.44142(7) 0.19447(5)
N1B N 0.78293(8) 0.07294(8) 1.02861(6)
N1C N 0.28293(8) -0.42706(8) 0.02861(6)
N2B N 0.57807(9) -0.07879(9) 0.81105(6)
N3E N -0.29029(8) 0.22994(9) 0.55066(6)
N4E N -0.56167(8) 0.29875(8) 0.60882(6)
N4C N 0.43833(8) -0.29875(8) 0.10882(6)
C1C C 0.18213(10) -0.16912(10) 0.16756(7)
C2C C 0.21098(10) -0.10836(10) 0.22091(7)
H3C H 0.2706 -0.1072 0.2485
C3C C 0.15105(10) -0.04915(10) 0.23329(7)
C4C C 0.06190(10) -0.05096(10) 0.19144(8)
H4C H 0.0215 -0.0118 0.1994
C5C C 0.03336(10) -0.11098(12) 0.13802(9)
H5C H -0.0260 -0.1114 0.1099
C6C C 0.09295(10) -0.17065(11) 0.12618(8)
H6C H 0.0733 -0.2115 0.0907
C7C C 0.24787(10) -0.23192(10) 0.15523(8)
C8C C 0.18329(10) 0.01600(10) 0.29165(7)
C9E C -0.47950(10) 0.30785(11) 0.65491(8)
H7E H -0.4719 0.3428 0.6933
C10E C -0.40596(10) 0.26713(11) 0.64729(8)
H8E H -0.3497 0.2764 0.6793
C11E C -0.41655(10) 0.21230(10) 0.59155(8)
C12E C -0.50184(10) 0.20098(10) 0.54504(8)
H9E H -0.5116 0.1635 0.5077
C13E C -0.57203(10) 0.24578(10) 0.55469(8)
H10E H -0.6287 0.2391 0.5225
C14E C -0.33726(11) 0.16807(11) 0.58147(9)
H11E H -0.3570 0.1166 0.5521
H12E H -0.2967 0.1477 0.6251
C15E C -0.20574(10) 0.18984(11) 0.55285(8)
H13E H -0.1693 0.1784 0.5999
H14E H -0.2172 0.1334 0.5288
C16E C -0.34402(10) 0.24929(11) 0.47963(8)
H15E H -0.3585 0.1942 0.4541
H16E H -0.3993 0.2773 0.4781
C17B C 0.69518(10) 0.05626(10) 1.00217(8)
H17B H 0.6587 0.0763 1.0256
C18B C 0.65670(10) 0.01050(10) 0.94160(8)
H18B H 0.5955 0.0010 0.9248
C19B C 0.70990(10) -0.02113(10) 0.90603(7)
C20B C 0.80101(10) -0.00256(10) 0.93328(8)
H19B H 0.8390 -0.0214 0.9107
C21B C 0.83431(10) 0.04376(10) 0.99367(8)
H20B H 0.8951 0.0554 1.0110
C22B C 0.67509(10) -0.07982(11) 0.84403(8)
H21B H 0.7021 -0.0613 0.8110
H22B H 0.6939 -0.1404 0.8572
C23B C 0.54992(11) 0.00123(10) 0.76812(8)
H23B H 0.5798 0.0028 0.7347
H24B H 0.5670 0.0540 0.7964
C24B C 0.54988(11) -0.15843(10) 0.76814(8)
H25B H 0.5669 -0.2112 0.7963
H26B H 0.5797 -0.1600 0.7347
O2 O 0.44746(10) 0.07932(13) 0.39885(7)
H1 H 0.4790(14) 0.0849(17) 0.3728(11)
H2 H 0.3935(11) 0.0696(17) 0.3728(11)
loop_
_geom_bond_atom_site_label_1
_geom_bond_atom_site_label_2
_geom_bond_site_symmetry_1
_geom_bond_site_symmetry_2
Zn1 O1 1_555 1_555
O1 C7 1_555 1_555
O2 H1 1_555 1_555
H2 O2 1_555 1_555
O3 Zn1 1_555 1_555
O4 C8 1_555 1_555
O5 C8 1_555 1_555
N1 Zn1 1_555 1_555
N2 C22 1_555 1_555
N3 C14 1_555 1_555
N4 Zn1 1_555 1_555
C1 C2 1_555 1_555
C2 H3 1_555 1_555
C3 C2 1_555 1_555
C4 C3 1_555 1_555
H4 C4 1_555 1_555
C5 C4 1_555 1_555
H5 C5 1_555 1_555
C6 C1 1_555 1_555
H6 C6 1_555 1_555
C7 O3 1_555 1_555
C8 C3 1_555 1_555
C9 N4 1_555 1_555
H7 C9 1_555 1_555
C10 C9 1_555 1_555
H8 C10 1_555 1_555
C11 C10 1_555 1_555
C12 C11 1_555 1_555
H9 C12 1_555 1_555
C13 N4 1_555 1_555
H10 C13 1_555 1_555
C14 C11 1_555 1_555
H11 C14 1_555 1_555
H12 C14 1_555 1_555
C15 N3 1_555 1_555
H13 C15 1_555 1_555
H14 C15 1_555 1_555
C16 N3 1_555 1_555
H15 C16 1_555 1_555
H16 C16 1_555 1_555
C17 N1 1_555 1_555
H17 C17 1_555 1_555
C18 C17 1_555 1_555
H18 C18 1_555 1_555
C19 C18 1_555 1_555
C20 C19 1_555 1_555
H19 C20 1_555 1_555
C21 N1 1_555 1_555
H20 C21 1_555 1_555
C22 C19 1_555 1_555
H21 C22 1_555 1_555
H22 C22 1_555 1_555
C23 N2 1_555 1_555
H23 C23 1_555 1_555
H24 C23 1_555 1_555
C24 N2 1_555 1_555
H25 C24 1_555 1_555
H26 C24 1_555 1_555
Zn1C O1C 1_555 1_555
Zn1C_2 O5 1_555 1_555
Zn1B N1B 1_555 1_555
Zn1E N4E 1_555 1_555
O1C C7C 1_555 1_555
O3C Zn1C 1_555 1_555
O4C C8C 1_555 1_555
O5C Zn1 1_555 1_555
O5_2 Zn1C 1_555 1_555
N1B C17B 1_555 1_555
N1C Zn1C 1_555 1_555
N2B C22B 1_555 1_555
N3E C14E 1_555 1_555
N4E C9E 1_555 1_555
N4C Zn1C 1_555 1_555
C1C C2C 1_555 1_555
C2C H3C 1_555 1_555
C3C C2C 1_555 1_555
C4C C3C 1_555 1_555
H4C C4C 1_555 1_555
C5C C4C 1_555 1_555
H5C C5C 1_555 1_555
C6C C1C 1_555 1_555
H6C C6C 1_555 1_555
C7C O3C 1_555 1_555
C8C O5C 1_555 1_555
C9E H7E 1_555 1_555
C10E C9E 1_555 1_555
H8E C10E 1_555 1_555
C11E C10E 1_555 1_555
C12E C11E 1_555 1_555
H9E C12E 1_555 1_555
C13E N4E 1_555 1_555
H10E C13E 1_555 1_555
C14E C11E 1_555 1_555
H11E C14E 1_555 1_555
H12E C14E 1_555 1_555
C15E C16 1_555 1_555
H13E C15E 1_555 1_555
H14E C15E 1_555 1_555
C16E C15 1_555 1_555
H15E C16E 1_555 1_555
H16E C16E 1_555 1_555
C17B H17B 1_555 1_555
C18B C17B 1_555 1_555
H18B C18B 1_555 1_555
C19B C18B 1_555 1_555
C20B C19B 1_555 1_555
H19B C20B 1_555 1_555
C21B N1B 1_555 1_555
H20B C21B 1_555 1_555
C22B C19B 1_555 1_555
H21B C22B 1_555 1_555
H22B C22B 1_555 1_555
C23B C23 1_555 1_555
H23B C23B 1_555 1_555
H24B C23B 1_555 1_555
C24B C24 1_555 1_555
H25B C24B 1_555 1_555
H26B C24B 1_555 1_555
C1 C7 1_555 1_555
C5 C6 1_555 1_555
C12 C13 1_555 1_555
C20 C21 1_555 1_555
N2B C23B 1_555 1_555
N2B C24B 1_555 1_555
N3E C15E 1_555 1_555
N3E C16E 1_555 1_555
C1C C7C 1_555 1_555
C3C C8C 1_555 1_555
C5C C6C 1_555 1_555
C12E C13E 1_555 1_555
C20B C21B 1_555 1_555

#END
