
#######################################################################
#
#                 Cambridge Crystallographic Data Centre
#                                CCDC 
#
#######################################################################
#
# If this CIF has been generated from an entry in the Cambridge 
# Structural Database, then it will include bibliographic, chemical, 
# crystal, experimental, refinement or atomic coordinate data resulting 
# from the CCDC's data processing and validation procedures.
#
#######################################################################

data_JITHUQ
_symmetry_cell_setting           monoclinic
_symmetry_space_group_name_H-M   'C 2/c'
_symmetry_Int_Tables_number      15
_space_group_name_Hall           '-C 2yn'
loop_
_symmetry_equiv_pos_site_id
_symmetry_equiv_pos_as_xyz
1 x,y,z
2 1/2+x,1/2+y,z
3 -x,y,1/2-z
4 1/2-x,1/2+y,1/2-z
5 -x,-y,-z
6 1/2-x,1/2-y,-z
7 x,-y,1/2+z
8 1/2+x,1/2-y,1/2+z
_cell_length_a                   18.867(3)
_cell_length_b                   13.511(2)
_cell_length_c                   16.415(3)
_cell_angle_alpha                90
_cell_angle_beta                 106.892(4)
_cell_angle_gamma                90
_cell_volume                     4003.84
loop_
_atom_site_label
_atom_site_type_symbol
_atom_site_fract_x
_atom_site_fract_y
_atom_site_fract_z
C1 C 0.3290(2) 0.6716(3) 0.3421(3)
H1 H 0.3230 0.7339 0.3169
C2 C 0.3928(2) 0.6527(3) 0.4054(2)
H2 H 0.4277 0.7027 0.4228
C3 C 0.40661(19) 0.5617(3) 0.4438(2)
C4 C 0.35091(18) 0.4924(3) 0.4147(2)
H3 H 0.3557 0.4294 0.4387
C5 C 0.28781(19) 0.5171(3) 0.3496(2)
H4 H 0.2526 0.4678 0.3296
C6 C 0.47664(18) 0.5399(3) 0.5137(2)
H5 H 0.5060 0.6009 0.5245
C7 C 0.4587(2) 0.5131(3) 0.5964(2)
H6 H 0.4269 0.4552 0.5856
H7 H 0.5044 0.4947 0.6387
C8 C 0.42175(18) 0.5922(3) 0.6337(2)
C9 C 0.4513(2) 0.6853(3) 0.6470(3)
H8 H 0.4938 0.7005 0.6317
C10 C 0.4178(2) 0.7562(3) 0.6830(2)
H9 H 0.4384 0.8192 0.6895
C11 C 0.3320(2) 0.6509(3) 0.6985(3)
H10 H 0.2908 0.6364 0.7165
C12 C 0.36233(19) 0.5754(3) 0.6616(3)
H11 H 0.3414 0.5126 0.6561
C13 C 0.08572(18) 0.4320(3) 0.1473(2)
C14 C 0.02307(19) 0.3837(2) 0.0983(2)
H12 H -0.0102 0.3578 0.1247
C15 C 0.00835(19) 0.3727(2) 0.0107(2)
C16 C 0.06229(19) 0.4110(3) -0.0233(2)
H13 H 0.0551 0.4054 -0.0816
C17 C 0.1264(2) 0.4571(3) 0.0259(2)
C18 C 0.0981(2) 0.4486(3) 0.2418(2)
C19 C -0.05729(19) 0.3263(3) -0.0440(2)
C20 C 0.1849(2) 0.4972(3) -0.0090(2)
H14 H 0.1939 0.5654 0.0073
H15 H 0.1689 0.4924 -0.0700
H16 H 0.2296 0.4599 0.0131
Co1 Co 0.17214(3) 0.63751(3) 0.22143(3)
N1 N 0.27428(15) 0.6049(2) 0.31446(19)
N2 N 0.35842(15) 0.7421(2) 0.70931(18)
N3 N 0.13496(15) 0.4672(2) 0.11020(17)
O1 O 0.19538(12) 0.51319(18) 0.15781(14)
O2 O 0.11581(12) 0.53495(17) 0.27185(14)
O3 O 0.08903(15) 0.3764(2) 0.28207(17)
O4 O -0.09781(14) 0.2751(2) -0.01199(15)
O5 O -0.07239(14) 0.34411(18) -0.12261(17)
O6 O 0.22225(14) 0.73594(19) 0.15440(16)
H17 H 0.1895 0.7594 0.1117
H18 H 0.2547 0.7052 0.1375
C1D C 0.6710(2) 0.3284(3) 0.6579(3)
H1D H 0.6770 0.2661 0.6831
C2D C 0.6072(2) 0.3473(3) 0.5946(2)
H2D H 0.5723 0.2973 0.5772
C3D C 0.59339(19) 0.4383(3) 0.5562(2)
C4D C 0.64909(18) 0.5076(3) 0.5853(2)
H3D H 0.6443 0.5706 0.5613
C5D C 0.71219(19) 0.4829(3) 0.6504(2)
H4D H 0.7474 0.5322 0.6704
C6D C 0.52336(18) 0.4601(3) 0.4863(2)
H5D H 0.4940 0.3991 0.4755
C7D C 0.5413(2) 0.4869(3) 0.4036(2)
H6D H 0.5731 0.5448 0.4144
H7D H 0.4956 0.5053 0.3613
C8D C 0.57825(18) 0.4078(3) 0.3663(2)
C9D C 0.5487(2) 0.3147(3) 0.3530(3)
H8D H 0.5062 0.2995 0.3683
C10D C 0.5822(2) 0.2438(3) 0.3170(2)
H9D H 0.5616 0.1808 0.3105
C11D C 0.6680(2) 0.3491(3) 0.3015(3)
H10D H 0.7092 0.3636 0.2835
C12D C 0.63767(19) 0.4246(3) 0.3384(3)
H11D H 0.6586 0.4874 0.3439
C13D C -0.08572(18) 0.5680(3) -0.1473(2)
C14D C -0.02307(19) 0.6163(2) -0.0983(2)
H12D H 0.0102 0.6422 -0.1247
C15D C -0.00835(19) 0.6273(2) -0.0107(2)
C16D C -0.06229(19) 0.5890(3) 0.0233(2)
H13D H -0.0551 0.5946 0.0816
C17D C -0.1264(2) 0.5429(3) -0.0259(2)
C18D C -0.0981(2) 0.5514(3) -0.2418(2)
C19D C 0.05729(19) 0.6737(3) 0.0440(2)
C20D C -0.1849(2) 0.5028(3) 0.0090(2)
H14D H -0.1939 0.4346 -0.0073
H15D H -0.1689 0.5076 0.0700
H16D H -0.2296 0.5401 -0.0131
Co1D Co 0.82786(3) 0.36249(3) 0.77857(3)
Co1E Co 0.32786(3) 0.86249(3) 0.77857(3)
Co1D_2 Co -0.17214(3) 0.36249(3) -0.22143(3)
Co1A Co 0.67214(3) 0.13751(3) 0.22143(3)
N1D N 0.72572(15) 0.3951(2) 0.68554(19)
N2D N 0.64158(15) 0.2579(2) 0.29069(18)
N2E N 0.14158(15) 0.7579(2) 0.29069(18)
N2A N 0.85842(15) 0.2421(2) 0.70931(18)
N3D N -0.13496(15) 0.5328(2) -0.11020(17)
O1D O -0.19538(12) 0.48681(18) -0.15781(14)
O1D_2 O 0.80462(12) 0.48681(18) 0.84219(14)
O2D O -0.11581(12) 0.46505(17) -0.27185(14)
O2D_2 O 0.88419(12) 0.46505(17) 0.72815(14)
O3D O -0.08903(15) 0.6236(2) -0.28207(17)
O4D O 0.09781(14) 0.7249(2) 0.01199(15)
O5D O 0.07239(14) 0.65589(18) 0.12261(17)
O5_2 O 0.92761(14) 0.34411(18) 0.87739(17)
O6D O 0.77775(14) 0.26406(19) 0.84560(16)
H17D H 0.8105 0.2406 0.8883
H18D H 0.7453 0.2948 0.8625
O7 O 0.3549(4) 0.7026(6) 0.1244(5)
H19 H 0.3651 0.7511 0.0968
H20 H 0.3886 0.6965 0.1715
O8 O 0.0000 0.1896(3) 0.2500
H22 H 0.0354 0.2252 0.2470
H22B H -0.0354 0.2252 0.2530
O9 O 0.2500 0.7500 0.5000
H21? H -0.0143 0.1541 0.2063
H23? H 0.2882 0.7431 0.5425
H24? H 0.2556 0.7172 0.4581
loop_
_geom_bond_atom_site_label_1
_geom_bond_atom_site_label_2
_geom_bond_site_symmetry_1
_geom_bond_site_symmetry_2
C1 H1 1_555 1_555
C2 C1 1_555 1_555
H2 C2 1_555 1_555
C3 C2 1_555 1_555
C4 C3 1_555 1_555
H3 C4 1_555 1_555
C5 C4 1_555 1_555
H4 C5 1_555 1_555
C6 C3 1_555 1_555
H5 C6 1_555 1_555
C7 C6 1_555 1_555
H6 C7 1_555 1_555
H7 C7 1_555 1_555
C8 C7 1_555 1_555
C9 C8 1_555 1_555
H8 C9 1_555 1_555
C10 C9 1_555 1_555
H9 C10 1_555 1_555
C11 H10 1_555 1_555
C12 C8 1_555 1_555
H11 C12 1_555 1_555
C13 C14 1_555 1_555
C14 H12 1_555 1_555
C15 C14 1_555 1_555
C16 C15 1_555 1_555
H13 C16 1_555 1_555
C17 C16 1_555 1_555
C18 C13 1_555 1_555
C19 C15 1_555 1_555
C20 C17 1_555 1_555
H14 C20 1_555 1_555
H15 C20 1_555 1_555
H16 C20 1_555 1_555
Co1 N1 1_555 1_555
N1 C1 1_555 1_555
N2 C10 1_555 1_555
N3 C13 1_555 1_555
O1 Co1 1_555 1_555
O2 C18 1_555 1_555
O3 C18 1_555 1_555
O4 C19 1_555 1_555
O5 C19 1_555 1_555
O6 Co1 1_555 1_555
H17 O6 1_555 1_555
H18 O6 1_555 1_555
O7 H19 1_555 1_555
H20 O7 1_555 1_555
O8 H22 1_555 1_555
C1D H1D 1_555 1_555
C2D C1D 1_555 1_555
H2D C2D 1_555 1_555
C3D C2D 1_555 1_555
C4D C3D 1_555 1_555
H3D C4D 1_555 1_555
C5D C4D 1_555 1_555
H4D C5D 1_555 1_555
C6D C6 1_555 1_555
H5D C6D 1_555 1_555
C7D C6D 1_555 1_555
H6D C7D 1_555 1_555
H7D C7D 1_555 1_555
C8D C7D 1_555 1_555
C9D C8D 1_555 1_555
H8D C9D 1_555 1_555
C10D C9D 1_555 1_555
H9D C10D 1_555 1_555
C11D H10D 1_555 1_555
C12D C8D 1_555 1_555
H11D C12D 1_555 1_555
C13D C14D 1_555 1_555
C14D H12D 1_555 1_555
C15D C14D 1_555 1_555
C16D C15D 1_555 1_555
H13D C16D 1_555 1_555
C17D C16D 1_555 1_555
C18D C13D 1_555 1_555
C19D C15D 1_555 1_555
C20D C17D 1_555 1_555
H14D C20D 1_555 1_555
H15D C20D 1_555 1_555
H16D C20D 1_555 1_555
Co1D N1D 1_555 1_555
Co1E N2 1_555 1_555
Co1D_2 O5 1_555 1_555
Co1A N2D 1_555 1_555
N1D C1D 1_555 1_555
N2D C10D 1_555 1_555
N2E Co1 1_555 1_555
N2A Co1D 1_555 1_555
N3D C13D 1_555 1_555
O1D Co1D_2 1_555 1_555
O1D_2 Co1D 1_555 1_555
O2D C18D 1_555 1_555
O2D_2 Co1D 1_555 1_555
O3D C18D 1_555 1_555
O4D C19D 1_555 1_555
O5D Co1 1_555 1_555
O5_2 Co1D 1_555 1_555
O6D Co1D 1_555 1_555
H17D O6D 1_555 1_555
H18D O6D 1_555 1_555
H22B O8 1_555 1_555
C5 N1 1_555 1_555
C11 C12 1_555 1_555
C11 N2 1_555 1_555
C17 N3 1_555 1_555
Co1 O2 1_555 1_555
N3 O1 1_555 1_555
C3D C6D 1_555 1_555
C5D N1D 1_555 1_555
C11D C12D 1_555 1_555
C11D N2D 1_555 1_555
C17D N3D 1_555 1_555
C19D O5D 1_555 1_555
Co1D_2 O2D 1_555 1_555
N3D O1D 1_555 1_555

#END
