
#######################################################################
#
#                 Cambridge Crystallographic Data Centre
#                                CCDC 
#
#######################################################################
#
# If this CIF has been generated from an entry in the Cambridge 
# Structural Database, then it will include bibliographic, chemical, 
# crystal, experimental, refinement or atomic coordinate data resulting 
# from the CCDC's data processing and validation procedures.
#
#######################################################################

data_JITHEA
_symmetry_cell_setting           monoclinic
_symmetry_space_group_name_H-M   'P 21/c'
_symmetry_Int_Tables_number      14
_space_group_name_Hall           '-P 2ybc'
loop_
_symmetry_equiv_pos_site_id
_symmetry_equiv_pos_as_xyz
1 x,y,z
2 -x,1/2+y,1/2-z
3 -x,-y,-z
4 x,1/2-y,1/2+z
_cell_length_a                   6.9389(14)
_cell_length_b                   18.353(4)
_cell_length_c                   7.7976(16)
_cell_angle_alpha                90
_cell_angle_beta                 98.445(4)
_cell_angle_gamma                90
_cell_volume                     982.254
loop_
_atom_site_label
_atom_site_type_symbol
_atom_site_fract_x
_atom_site_fract_y
_atom_site_fract_z
C1 C 0.3568(7) 0.1371(3) 0.6777(7)
C2 C 0.2823(7) 0.2037(3) 0.6973(7)
H1 H 0.1679 0.2077 0.7455
C3 C 0.3702(7) 0.2661(3) 0.6480(7)
C4 C 0.5387(7) 0.2590(3) 0.5763(7)
H2 H 0.6025 0.3004 0.5450
C5 C 0.6129(7) 0.1923(3) 0.5506(7)
C6 C 0.2642(8) 0.0701(3) 0.7455(7)
C7 C 0.2884(8) 0.3396(3) 0.6800(7)
C8 C 0.7905(7) 0.1787(3) 0.4656(7)
H3 H 0.8792 0.1476 0.5384
H4 H 0.8532 0.2242 0.4487
H5 H 0.7526 0.1555 0.3555
Cu1 Cu 0.60938(9) -0.01228(3) 0.71673(9)
N1 N 0.5194(6) 0.1313(2) 0.5975(6)
O1 O 0.3571(4) 0.01164(18) 0.7762(5)
O2 O 0.0944(5) 0.07879(18) 0.7714(5)
O3 O 0.1182(6) 0.34226(19) 0.7086(6)
O4 O 0.4021(5) 0.39251(18) 0.6752(5)
O5 O 0.5864(5) 0.06811(17) 0.5556(5)
O6 O 0.7485(5) 0.0693(2) 0.9356(5)
H6 H 0.6589 0.0856 0.9886
H7 H 0.8323 0.0468 1.0068
O7 O 0.8601(5) -0.03243(19) 0.6419(5)
H8 H 0.8435 -0.0623 0.5578
H9 H 0.9375 -0.0508 0.7253
Cu1A Cu 0.39062(9) 0.48772(3) 0.78327(9)
Cu1B Cu 0.39062(9) 0.01228(3) 0.28327(9)
O4A O 0.5979(5) -0.10749(18) 0.8248(5)
O5B O 0.4136(5) -0.06811(17) 0.4444(5)
loop_
_geom_bond_atom_site_label_1
_geom_bond_atom_site_label_2
_geom_bond_site_symmetry_1
_geom_bond_site_symmetry_2
C1 C2 1_555 1_555
C2 H1 1_555 1_555
C3 C2 1_555 1_555
C4 C3 1_555 1_555
H2 C4 1_555 1_555
C5 C4 1_555 1_555
C6 C1 1_555 1_555
C7 C3 1_555 1_555
C8 C5 1_555 1_555
H3 C8 1_555 1_555
H4 C8 1_555 1_555
H5 C8 1_555 1_555
Cu1 O1 1_555 1_555
N1 C1 1_555 1_555
O1 C6 1_555 1_555
O2 C6 1_555 1_555
O3 C7 1_555 1_555
O4 C7 1_555 1_555
O5 Cu1 1_555 1_555
O6 Cu1 1_555 1_555
H6 O6 1_555 1_555
H7 O6 1_555 1_555
O7 Cu1 1_555 1_555
H8 O7 1_555 1_555
H9 O7 1_555 1_555
Cu1A O4 1_555 1_555
Cu1B O5 1_555 1_555
O4A Cu1 1_555 1_555
O5B Cu1 1_555 1_555
C5 N1 1_555 1_555
N1 O5 1_555 1_555
Cu1B O5B 1_555 1_555

#END
