
#######################################################################
#
#                 Cambridge Crystallographic Data Centre
#                                CCDC 
#
#######################################################################
#
# If this CIF has been generated from an entry in the Cambridge 
# Structural Database, then it will include bibliographic, chemical, 
# crystal, experimental, refinement or atomic coordinate data resulting 
# from the CCDC's data processing and validation procedures.
#
#######################################################################

data_JITHIE
_symmetry_cell_setting           monoclinic
_symmetry_space_group_name_H-M   'C 2/c'
_symmetry_Int_Tables_number      15
_space_group_name_Hall           '-C 2yn'
loop_
_symmetry_equiv_pos_site_id
_symmetry_equiv_pos_as_xyz
1 x,y,z
2 1/2+x,1/2+y,z
3 -x,y,1/2-z
4 1/2-x,1/2+y,1/2-z
5 -x,-y,-z
6 1/2-x,1/2-y,-z
7 x,-y,1/2+z
8 1/2+x,1/2-y,1/2+z
_cell_length_a                   18.758(4)
_cell_length_b                   10.859(2)
_cell_length_c                   20.596(4)
_cell_angle_alpha                90
_cell_angle_beta                 114.928(4)
_cell_angle_gamma                90
_cell_volume                     3804.43
loop_
_atom_site_label
_atom_site_type_symbol
_atom_site_fract_x
_atom_site_fract_y
_atom_site_fract_z
C1 C 0.4621(2) 0.8176(4) 0.91066(19)
C2 C 0.5110(2) 0.8110(4) 0.98195(18)
H1 H 0.5021 0.7511 1.0099
C3 C 0.5732(2) 0.8909(4) 1.01344(19)
C4 C 0.5881(2) 0.9739(4) 0.97046(19)
H2 H 0.6307 1.0272 0.9904
C5 C 0.5408(2) 0.9792(4) 0.8980(2)
C6 C 0.5534(2) 1.0672(4) 0.8487(2)
H3 H 0.5606 1.0224 0.8117
H4 H 0.5993 1.1159 0.8750
H5 H 0.5084 1.1201 0.8275
C7 C 0.3893(3) 0.7373(4) 0.8806(2)
C8 C 0.6195(2) 0.8948(4) 1.0943(2)
C9 C 0.1785(3) 0.8991(4) 0.8189(2)
H6 H 0.2207 0.8813 0.8622
C10 C 0.1327(3) 0.9472(4) 0.7019(2)
H7 H 0.1413 0.9645 0.6616
C11 C 0.0562(3) 0.9459(5) 0.6947(2)
H8 H 0.0151 0.9618 0.6503
C12 C 0.0403(2) 0.9213(4) 0.7526(2)
C13 C 0.1046(3) 0.8966(4) 0.8166(2)
H9 H 0.0975 0.8785 0.8576
C14 C 0.2519(2) 0.9330(4) 0.6133(2)
H10 H 0.2355 1.0123 0.6175
C15 C 0.2352(3) 0.8895(4) 0.5461(2)
H11 H 0.2077 0.9390 0.5066
C16 C 0.2584(2) 0.7750(4) 0.53638(18)
C17 C 0.2990(3) 0.7094(4) 0.5977(2)
H12 H 0.3173 0.6310 0.5946
C18 C 0.3132(3) 0.7579(4) 0.6639(2)
H13 H 0.3404 0.7103 0.7044
Co1 Co 0.31268(3) 0.93811(5) 0.77729(3)
N1 N 0.47746(18) 0.9042(3) 0.86977(15)
N2 N 0.28965(18) 0.8692(3) 0.67231(15)
N3 N 0.19402(18) 0.9256(3) 0.76242(17)
O1 O 0.33148(15) 0.7643(2) 0.82413(13)
O2 O 0.3919(2) 0.6468(3) 0.91719(16)
O3 O 0.43048(14) 0.9167(2) 0.80111(12)
O4 O 0.30455(15) 1.1177(2) 0.73912(12)
H14 H 0.3129 1.1744 0.7774
H15 H 0.2532 1.1305 0.7014
O5 O 0.61072(17) 0.8063(3) 1.12871(14)
O6 O 0.65899(16) 0.9900(2) 1.11952(12)
C1D C 0.5379(2) 1.1824(4) 1.08934(19)
C2D C 0.4890(2) 1.1890(4) 1.01805(18)
H1D H 0.4979 1.2489 0.9901
C3D C 0.4268(2) 1.1091(4) 0.98656(19)
C4D C 0.4119(2) 1.0261(4) 1.02954(19)
H2D H 0.3693 0.9728 1.0096
C5D C 0.4592(2) 1.0208(4) 1.1020(2)
C6D C 0.4466(2) 0.9328(4) 1.1513(2)
H3D H 0.4394 0.9776 1.1883
H4D H 0.4007 0.8841 1.1250
H5D H 0.4916 0.8799 1.1725
C7D C 0.6107(3) 1.2627(4) 1.1194(2)
C8D C 0.3805(2) 1.1052(4) 0.9057(2)
C9B C -0.1785(3) 0.8991(4) 0.6811(2)
H6B H -0.2207 0.8813 0.6378
C10B C -0.1327(3) 0.9472(4) 0.7981(2)
H7B H -0.1413 0.9645 0.8384
C11B C -0.0562(3) 0.9459(5) 0.8053(2)
H8B H -0.0151 0.9618 0.8497
C12B C -0.0403(2) 0.9213(4) 0.7474(2)
C13B C -0.1046(3) 0.8966(4) 0.6834(2)
H9B H -0.0975 0.8785 0.6424
C14E C 0.2481(2) 0.5670(4) 0.3867(2)
H10E H 0.2645 0.4877 0.3825
C15E C 0.2648(3) 0.6105(4) 0.4539(2)
H11E H 0.2923 0.5610 0.4934
C16E C 0.2416(2) 0.7250(4) 0.46362(18)
C17E C 0.2010(3) 0.7906(4) 0.4023(2)
H12E H 0.1827 0.8690 0.4054
C18E C 0.1868(3) 0.7421(4) 0.3361(2)
H13E H 0.1596 0.7897 0.2956
Co1E Co 0.18732(3) 0.56189(5) 0.22271(3)
Co1D Co 0.68732(3) 1.06189(5) 1.22271(3)
Co1B Co -0.31268(3) 0.93811(5) 0.72271(3)
N1D N 0.52254(18) 1.0958(3) 1.13023(15)
N2E N 0.21035(18) 0.6308(3) 0.32769(15)
N3B N -0.19402(18) 0.9256(3) 0.73758(17)
N3E N 0.30598(18) 0.5744(3) 0.23758(17)
O1D O 0.66852(15) 1.2357(2) 1.17587(13)
O1E O 0.16852(15) 0.7357(2) 0.17587(13)
O2D O 0.6081(2) 1.3532(3) 1.08281(16)
O3D O 0.56952(14) 1.0833(2) 1.19889(12)
O3E O 0.06952(14) 0.5833(2) 0.19889(12)
O4E O 0.19545(15) 0.3823(2) 0.26088(12)
H14E H 0.1871 0.3256 0.2226
H15E H 0.2468 0.3695 0.2986
O5D O 0.38928(17) 1.1937(3) 0.87129(14)
O6D O 0.34101(16) 1.0100(2) 0.88048(12)
O6A O 0.15899(16) 0.4900(2) 0.11952(12)
O7 O 0.5000 0.7283(15) 0.7500
H16 H 0.4915 0.7485 0.7860
H16B H 0.5085 0.7485 0.7140
O8 O 0.3152(6) 0.6970(9) 1.0097(4)
H18 H 0.3360 0.7004 0.9803
H19 H 0.2921 0.7647 1.0090
O9 O 0.0472(5) 0.9899(8) 0.4684(4)
H20 H 0.0687 0.9664 0.5118
H21 H 0.0722 1.0513 0.4628
H17? H 0.5055 0.6507 0.7496
loop_
_geom_bond_atom_site_label_1
_geom_bond_atom_site_label_2
_geom_bond_site_symmetry_1
_geom_bond_site_symmetry_2
C1 C2 1_555 1_555
C2 H1 1_555 1_555
C3 C2 1_555 1_555
C4 C3 1_555 1_555
H2 C4 1_555 1_555
C5 C4 1_555 1_555
C6 C5 1_555 1_555
H3 C6 1_555 1_555
H4 C6 1_555 1_555
H5 C6 1_555 1_555
C7 C1 1_555 1_555
C8 C3 1_555 1_555
C9 H6 1_555 1_555
C10 H7 1_555 1_555
C11 C10 1_555 1_555
H8 C11 1_555 1_555
C12 C11 1_555 1_555
C13 C9 1_555 1_555
H9 C13 1_555 1_555
C14 H10 1_555 1_555
C15 C14 1_555 1_555
H11 C15 1_555 1_555
C16 C15 1_555 1_555
C17 C16 1_555 1_555
H12 C17 1_555 1_555
C18 C17 1_555 1_555
H13 C18 1_555 1_555
Co1 N2 1_555 1_555
N1 C1 1_555 1_555
N2 C14 1_555 1_555
N3 C9 1_555 1_555
O1 C7 1_555 1_555
O2 C7 1_555 1_555
O3 Co1 1_555 1_555
O4 Co1 1_555 1_555
H14 O4 1_555 1_555
H15 O4 1_555 1_555
O5 C8 1_555 1_555
O6 C8 1_555 1_555
O7 H16 1_555 1_555
O8 H18 1_555 1_555
H19 O8 1_555 1_555
O9 H20 1_555 1_555
H21 O9 1_555 1_555
C1D C2D 1_555 1_555
C2D H1D 1_555 1_555
C3D C2D 1_555 1_555
C4D C3D 1_555 1_555
H2D C4D 1_555 1_555
C5D C4D 1_555 1_555
C6D C5D 1_555 1_555
H3D C6D 1_555 1_555
H4D C6D 1_555 1_555
H5D C6D 1_555 1_555
C7D C1D 1_555 1_555
C8D C3D 1_555 1_555
C9B H6B 1_555 1_555
C10B H7B 1_555 1_555
C11B C10B 1_555 1_555
H8B C11B 1_555 1_555
C12B C12 1_555 1_555
C13B C9B 1_555 1_555
H9B C13B 1_555 1_555
C14E H10E 1_555 1_555
C15E C14E 1_555 1_555
H11E C15E 1_555 1_555
C16E C16 1_555 1_555
C17E C16E 1_555 1_555
H12E C17E 1_555 1_555
C18E C17E 1_555 1_555
H13E C18E 1_555 1_555
Co1E N2E 1_555 1_555
Co1D O6 1_555 1_555
Co1B N3B 1_555 1_555
N1D C1D 1_555 1_555
N2E C14E 1_555 1_555
N3B C9B 1_555 1_555
N3E Co1E 1_555 1_555
O1D C7D 1_555 1_555
O1E Co1E 1_555 1_555
O2D C7D 1_555 1_555
O3D Co1D 1_555 1_555
O3E Co1E 1_555 1_555
O4E Co1E 1_555 1_555
H14E O4E 1_555 1_555
H15E O4E 1_555 1_555
O5D C8D 1_555 1_555
O6D Co1 1_555 1_555
O6A Co1E 1_555 1_555
H16B O7 1_555 1_555
C5 N1 1_555 1_555
C10 N3 1_555 1_555
C12 C13 1_555 1_555
C18 N2 1_555 1_555
Co1 N3 1_555 1_555
Co1 O1 1_555 1_555
N1 O3 1_555 1_555
C5D N1D 1_555 1_555
C8D O6D 1_555 1_555
C10B N3B 1_555 1_555
C11B C12B 1_555 1_555
C12B C13B 1_555 1_555
C15E C16E 1_555 1_555
C18E N2E 1_555 1_555
Co1D O1D 1_555 1_555
N1D O3D 1_555 1_555

#END
