
#######################################################################
#
#                 Cambridge Crystallographic Data Centre
#                                CCDC 
#
#######################################################################
#
# If this CIF has been generated from an entry in the Cambridge 
# Structural Database, then it will include bibliographic, chemical, 
# crystal, experimental, refinement or atomic coordinate data resulting 
# from the CCDC's data processing and validation procedures.
#
#######################################################################

data_JITJAY
_symmetry_cell_setting           monoclinic
_symmetry_space_group_name_H-M   'C 2/c'
_symmetry_Int_Tables_number      15
_space_group_name_Hall           '-C 2yn'
loop_
_symmetry_equiv_pos_site_id
_symmetry_equiv_pos_as_xyz
1 x,y,z
2 1/2+x,1/2+y,z
3 -x,y,1/2-z
4 1/2-x,1/2+y,1/2-z
5 -x,-y,-z
6 1/2-x,1/2-y,-z
7 x,-y,1/2+z
8 1/2+x,1/2-y,1/2+z
_cell_length_a                   19.073(4)
_cell_length_b                   13.329(3)
_cell_length_c                   16.272(4)
_cell_angle_alpha                90
_cell_angle_beta                 107.395(5)
_cell_angle_gamma                90
_cell_volume                     3947.55
loop_
_atom_site_label
_atom_site_type_symbol
_atom_site_fract_x
_atom_site_fract_y
_atom_site_fract_z
Ni1 Ni 0.171770(18) 0.36718(3) -0.27628(2)
C1 C 0.41693(16) 0.2397(2) 0.18479(16)
H1 H 0.4380 0.1763 0.1946
C2 C 0.44970(14) 0.3111(2) 0.14508(16)
H2 H 0.4893 0.2931 0.1261
C3 C 0.42398(13) 0.4063(2) 0.13422(16)
C4 C 0.36460(15) 0.4259(2) 0.16433(16)
H3 H 0.3452 0.4904 0.1605
C5 C 0.33354(13) 0.34763(19) 0.20092(15)
H4 H 0.2933 0.3620 0.2201
C6 C 0.46077(14) 0.4896(2) 0.10057(17)
H5 H 0.5066 0.5067 0.1436
H6 H 0.4295 0.5485 0.0905
C7 C 0.47684(14) 0.45927(17) 0.01383(16)
H7 H 0.5047 0.3964 0.0234
C8 C 0.40491(14) 0.44206(18) -0.05610(16)
C9 C 0.35109(12) 0.51404(18) -0.08243(16)
H8 H 0.3583 0.5777 -0.0580
C10 C 0.28545(13) 0.4911(2) -0.14610(16)
H9 H 0.2494 0.5402 -0.1638
C11 C 0.32482(14) 0.3328(2) -0.15985(17)
H10 H 0.3160 0.2709 -0.1873
C12 C 0.39264(15) 0.3474(2) -0.09750(17)
H11 H 0.4281 0.2972 -0.0838
C13 C 0.08723(14) 0.5702(2) -0.35351(16)
C14 C 0.02092(15) 0.6199(2) -0.40123(17)
H12 H -0.0128 0.6451 -0.3754
C15 C -0.01085(15) 0.37256(19) -0.50935(18)
C16 C -0.06396(14) 0.4116(2) -0.47544(16)
H13 H -0.0561 0.4083 -0.4163
C17 C 0.12779(14) 0.5449(2) -0.47376(17)
C18 C 0.09803(13) 0.5563(2) -0.25752(16)
C19 C 0.06011(17) 0.3288(2) -0.45122(19)
C20 C 0.18436(14) 0.50332(19) -0.51002(18)
H14 H 0.1900 0.4328 -0.4978
H15 H 0.1694 0.5135 -0.5712
H16 H 0.2303 0.5368 -0.4845
N1 N 0.35904(11) 0.25629(16) 0.20882(12)
N2 N 0.27345(12) 0.40004(16) -0.18191(14)
N3 N 0.13591(11) 0.53673(16) -0.38871(13)
O1 O 0.11904(10) 0.47124(14) -0.22418(12)
O2 O 0.08458(9) 0.62974(13) -0.21991(11)
O3 O 0.09972(9) 0.27498(13) -0.48335(11)
O4 O 0.07434(11) 0.34777(15) -0.37201(13)
O5 O 0.19436(11) 0.48946(15) -0.34204(13)
O6 O 0.21865(9) 0.26629(12) -0.34391(10)
H17 H 0.2364 0.2987 -0.3780
H18 H 0.1858 0.2261 -0.3726
Ni1A Ni 0.671770(18) 0.86718(3) -0.27628(2)
Ni1E Ni 0.328230(18) 0.13282(3) 0.27628(2)
Ni1D Ni 0.828230(18) 0.63282(3) 0.27628(2)
Ni1D_2 Ni -0.171770(18) 0.63282(3) -0.72372(2)
C1D C 0.58307(16) 0.7603(2) -0.18479(16)
H1D H 0.5620 0.8237 -0.1946
C2D C 0.55030(14) 0.6889(2) -0.14508(16)
H2D H 0.5107 0.7069 -0.1261
C3D C 0.57602(13) 0.5937(2) -0.13422(16)
C4D C 0.63540(15) 0.5741(2) -0.16433(16)
H3D H 0.6548 0.5096 -0.1605
C5D C 0.66646(13) 0.65237(19) -0.20092(15)
H4D H 0.7067 0.6380 -0.2201
C6D C 0.53923(14) 0.5104(2) -0.10057(17)
H5D H 0.4934 0.4933 -0.1436
H6D H 0.5705 0.4515 -0.0905
C7D C 0.52316(14) 0.54073(17) -0.01383(16)
H7D H 0.4953 0.6036 -0.0234
C8D C 0.59509(14) 0.55794(18) 0.05610(16)
C9D C 0.64891(12) 0.48596(18) 0.08243(16)
H8D H 0.6417 0.4223 0.0580
C10D C 0.71455(13) 0.5089(2) 0.14610(16)
H9D H 0.7506 0.4598 0.1638
C11D C 0.67518(14) 0.6672(2) 0.15985(17)
H10D H 0.6840 0.7291 0.1873
C12D C 0.60736(15) 0.6526(2) 0.09750(17)
H11D H 0.5719 0.7028 0.0838
C13D C -0.08723(14) 0.4298(2) -0.64649(16)
C14D C -0.02092(15) 0.3801(2) -0.59877(17)
H12D H 0.0128 0.3549 -0.6246
C15D C 0.01085(15) 0.62744(19) -0.49065(18)
C16D C 0.06396(14) 0.5884(2) -0.52456(16)
H13D H 0.0561 0.5917 -0.5837
C17D C -0.12779(14) 0.4551(2) -0.52624(17)
C18D C -0.09803(13) 0.4437(2) -0.74248(16)
C19D C -0.06011(17) 0.6712(2) -0.54878(19)
C20D C -0.18436(14) 0.49668(19) -0.48998(18)
H14D H -0.1900 0.5672 -0.5022
H15D H -0.1694 0.4865 -0.4288
H16D H -0.2303 0.4632 -0.5155
N1D N 0.64096(11) 0.74371(16) -0.20882(12)
N1E N 0.14096(11) 0.24371(16) -0.20882(12)
N1A N 0.85904(11) 0.75629(16) 0.20882(12)
N2D N 0.72655(12) 0.59996(16) 0.18191(14)
N3D N -0.13591(11) 0.46327(16) -0.61129(13)
O1D O 0.88096(10) 0.52876(14) 0.22418(12)
O1D_2 O -0.11904(10) 0.52876(14) -0.77582(12)
O2D O -0.08458(9) 0.37026(13) -0.78009(11)
O3D O -0.09972(9) 0.72502(13) -0.51665(11)
O4D O 0.92566(11) 0.65223(15) 0.37201(13)
O4D_2 O -0.07434(11) 0.65223(15) -0.62799(13)
O5D O 0.80564(11) 0.51054(15) 0.34204(13)
O5D_2 O -0.19436(11) 0.51054(15) -0.65796(13)
O6D O 0.78135(9) 0.73371(12) 0.34391(10)
H17D H 0.7636 0.7013 0.3780
H18D H 0.8142 0.7739 0.3726
O7 O 0.35101(10) 0.70858(13) 0.12153(12)
H19 H 0.3979(16) 0.715(2) 0.1297(18)
H20 H 0.3296(16) 0.704(2) 0.0678(19)
O8 O 0.2500 0.7500 0.5000
H21? H 0.238(5) 0.730(7) 0.448(6)
H22? H 0.284(5) 0.712(7) 0.531(6)
loop_
_geom_bond_atom_site_label_1
_geom_bond_atom_site_label_2
_geom_bond_site_symmetry_1
_geom_bond_site_symmetry_2
Ni1 N2 1_555 1_555
C1 H1 1_555 1_555
C2 C1 1_555 1_555
H2 C2 1_555 1_555
C3 C2 1_555 1_555
C4 C3 1_555 1_555
H3 C4 1_555 1_555
C5 C4 1_555 1_555
H4 C5 1_555 1_555
C6 C3 1_555 1_555
H5 C6 1_555 1_555
H6 C6 1_555 1_555
C7 C6 1_555 1_555
H7 C7 1_555 1_555
C8 C7 1_555 1_555
C9 C8 1_555 1_555
H8 C9 1_555 1_555
C10 C9 1_555 1_555
H9 C10 1_555 1_555
C11 H10 1_555 1_555
C12 C8 1_555 1_555
H11 C12 1_555 1_555
C13 C14 1_555 1_555
C14 H12 1_555 1_555
C15 C16 1_555 1_555
C16 H13 1_555 1_555
C17 C20 1_555 1_555
C18 C13 1_555 1_555
C19 C15 1_555 1_555
C20 H14 1_555 1_555
H15 C20 1_555 1_555
H16 C20 1_555 1_555
N1 C1 1_555 1_555
N2 C10 1_555 1_555
N3 C13 1_555 1_555
O1 Ni1 1_555 1_555
O2 C18 1_555 1_555
O3 C19 1_555 1_555
O4 Ni1 1_555 1_555
O5 Ni1 1_555 1_555
O6 Ni1 1_555 1_555
H17 O6 1_555 1_555
H18 O6 1_555 1_555
O7 H19 1_555 1_555
H20 O7 1_555 1_555
Ni1A N1D 1_555 1_555
Ni1E N1 1_555 1_555
Ni1D N1A 1_555 1_555
Ni1D_2 O1D_2 1_555 1_555
C1D H1D 1_555 1_555
C2D C1D 1_555 1_555
H2D C2D 1_555 1_555
C3D C2D 1_555 1_555
C4D C3D 1_555 1_555
H3D C4D 1_555 1_555
C5D C4D 1_555 1_555
H4D C5D 1_555 1_555
C6D C3D 1_555 1_555
H5D C6D 1_555 1_555
H6D C6D 1_555 1_555
C7D C7 1_555 1_555
H7D C7D 1_555 1_555
C8D C7D 1_555 1_555
C9D C8D 1_555 1_555
H8D C9D 1_555 1_555
C10D C9D 1_555 1_555
H9D C10D 1_555 1_555
C11D H10D 1_555 1_555
C12D C8D 1_555 1_555
H11D C12D 1_555 1_555
C13D C14D 1_555 1_555
C14D C15 1_555 1_555
H12D C14D 1_555 1_555
C15D C14 1_555 1_555
C16D C17 1_555 1_555
H13D C16D 1_555 1_555
C17D C16 1_555 1_555
C18D C13D 1_555 1_555
C19D C15D 1_555 1_555
C20D C17D 1_555 1_555
H14D C20D 1_555 1_555
H15D C20D 1_555 1_555
H16D C20D 1_555 1_555
N1D C1D 1_555 1_555
N1E Ni1 1_555 1_555
N2D Ni1D 1_555 1_555
N3D C13D 1_555 1_555
O1D Ni1D 1_555 1_555
O1D_2 C18D 1_555 1_555
O2D C18D 1_555 1_555
O3D C19D 1_555 1_555
O4D Ni1D 1_555 1_555
O4D_2 Ni1D_2 1_555 1_555
O5D Ni1D 1_555 1_555
O5D_2 Ni1D_2 1_555 1_555
O6D Ni1D 1_555 1_555
H17D O6D 1_555 1_555
H18D O6D 1_555 1_555
C5 N1 1_555 1_555
C11 C12 1_555 1_555
C11 N2 1_555 1_555
C17 N3 1_555 1_555
C18 O1 1_555 1_555
C19 O4 1_555 1_555
N3 O5 1_555 1_555
C5D N1D 1_555 1_555
C6D C7D 1_555 1_555
C10D N2D 1_555 1_555
C11D C12D 1_555 1_555
C11D N2D 1_555 1_555
C15D C16D 1_555 1_555
C17D N3D 1_555 1_555
C19D O4D_2 1_555 1_555
N3D O5D_2 1_555 1_555

#END
