
#######################################################################
#
#                 Cambridge Crystallographic Data Centre
#                                CCDC 
#
#######################################################################
#
# If this CIF has been generated from an entry in the Cambridge 
# Structural Database, then it will include bibliographic, chemical, 
# crystal, experimental, refinement or atomic coordinate data resulting 
# from the CCDC's data processing and validation procedures.
#
#######################################################################

data_JITJIG
_symmetry_cell_setting           monoclinic
_symmetry_space_group_name_H-M   'C 2/c'
_symmetry_Int_Tables_number      15
_space_group_name_Hall           '-C 2yn'
loop_
_symmetry_equiv_pos_site_id
_symmetry_equiv_pos_as_xyz
1 x,y,z
2 1/2+x,1/2+y,z
3 -x,y,1/2-z
4 1/2-x,1/2+y,1/2-z
5 -x,-y,-z
6 1/2-x,1/2-y,-z
7 x,-y,1/2+z
8 1/2+x,1/2-y,1/2+z
_cell_length_a                   19.429(3)
_cell_length_b                   13.436(2)
_cell_length_c                   16.728(3)
_cell_angle_alpha                90
_cell_angle_beta                 106.133(3)
_cell_angle_gamma                90
_cell_volume                     4194.84
loop_
_atom_site_label
_atom_site_type_symbol
_atom_site_fract_x
_atom_site_fract_y
_atom_site_fract_z
C1 C 0.4195(3) 0.2445(4) 0.6817(3)
H1 H 0.4400 0.1815 0.6902
C2 C 0.3353(3) 0.3517(4) 0.6930(4)
H2 H 0.2956 0.3670 0.7114
C3 C 0.3640(3) 0.4271(4) 0.6555(3)
H3 H 0.3419 0.4891 0.6464
C4 C 0.4524(3) 0.3159(4) 0.6462(3)
H4 H 0.4939 0.3001 0.6316
C5 C 0.4246(2) 0.4098(3) 0.6322(2)
C6 C 0.4614(3) 0.4890(3) 0.5969(3)
H5 H 0.5061 0.5057 0.6376
H6 H 0.4316 0.5483 0.5874
C7 C 0.4774(2) 0.4599(3) 0.5144(2)
H7 H 0.5050 0.3978 0.5237
C8 C 0.4073(2) 0.4412(3) 0.4449(3)
C9 C 0.3966(3) 0.3515(3) 0.4048(4)
H8 H 0.4311 0.3017 0.4185
C10 C 0.3336(3) 0.3367(4) 0.3437(4)
H9 H 0.3269 0.2753 0.3169
C11 C 0.2926(3) 0.4904(4) 0.3585(3)
H10 H 0.2572 0.5389 0.3433
C12 C 0.3547(3) 0.5114(4) 0.4204(3)
H11 H 0.3608 0.5738 0.4455
C13 C 0.0824(2) 0.5791(3) 0.1475(3)
C14 C 0.0206(3) 0.6206(3) 0.0992(3)
H12 H -0.0133 0.6443 0.1243
C15 C -0.0073(3) 0.3717(3) -0.0132(3)
C16 C 0.0592(3) 0.5929(4) -0.0209(3)
H13 H 0.0512 0.5957 -0.0783
C17 C 0.1228(3) 0.5533(4) 0.0271(3)
C18 C 0.0967(3) 0.5684(4) 0.2405(3)
C19 C 0.0612(3) 0.3288(4) 0.0422(3)
C20 C 0.1809(3) 0.5162(4) -0.0065(3)
H14 H 0.1912 0.4481 0.0099
H15 H 0.1660 0.5206 -0.0661
H16 H 0.2231 0.5559 0.0149
Cd1 Cd 0.174840(18) 0.36683(3) 0.22358(2)
N1 N 0.3601(2) 0.2602(3) 0.7046(2)
N2 N 0.2821(2) 0.4030(3) 0.3203(2)
N3 N 0.1325(2) 0.5486(3) 0.1114(2)
O1 O 0.2211(2) 0.2596(3) 0.1448(2)
H17 H 0.1863 0.2231 0.1190
H18 H 0.2320 0.2952 0.1081
O2 O 0.1120(2) 0.4833(3) 0.2720(2)
O3 O 0.0895(2) 0.6466(3) 0.2761(3)
O4 O 0.19458(17) 0.5104(3) 0.1578(2)
O5 O 0.1011(2) 0.2800(3) 0.0117(2)
O6 O 0.0714(2) 0.3459(3) 0.1190(2)
C1D C 0.5805(3) 0.7555(4) 0.3183(3)
H1D H 0.5600 0.8185 0.3098
C2D C 0.6647(3) 0.6483(4) 0.3070(4)
H2D H 0.7044 0.6330 0.2886
C3D C 0.6360(3) 0.5729(4) 0.3445(3)
H3D H 0.6581 0.5109 0.3536
C4D C 0.5476(3) 0.6841(4) 0.3538(3)
H4D H 0.5061 0.6999 0.3684
C5D C 0.5754(2) 0.5902(3) 0.3678(2)
C6D C 0.5386(3) 0.5110(3) 0.4031(3)
H5D H 0.4939 0.4943 0.3624
H6D H 0.5684 0.4517 0.4126
C7D C 0.5226(2) 0.5401(3) 0.4856(2)
H7D H 0.4950 0.6022 0.4763
C8D C 0.5927(2) 0.5588(3) 0.5551(3)
C9D C 0.6034(3) 0.6485(3) 0.5952(4)
H8D H 0.5689 0.6983 0.5815
C10D C 0.6664(3) 0.6633(4) 0.6563(4)
H9D H 0.6731 0.7247 0.6831
C11D C 0.7074(3) 0.5096(4) 0.6415(3)
H10D H 0.7428 0.4611 0.6567
C12D C 0.6453(3) 0.4886(4) 0.5796(3)
H11D H 0.6392 0.4262 0.5545
C13D C -0.0824(2) 0.4209(3) -0.1475(3)
C14D C -0.0206(3) 0.3794(3) -0.0992(3)
H12D H 0.0133 0.3557 -0.1243
C15D C 0.0073(3) 0.6283(3) 0.0132(3)
C16D C -0.0592(3) 0.4071(4) 0.0209(3)
H13D H -0.0512 0.4043 0.0783
C17D C -0.1228(3) 0.4467(4) -0.0271(3)
C18D C -0.0967(3) 0.4316(4) -0.2405(3)
C19D C -0.0612(3) 0.6712(4) -0.0422(3)
C20D C -0.1809(3) 0.4838(4) 0.0065(3)
H14D H -0.1912 0.5519 -0.0099
H15D H -0.1660 0.4794 0.0661
H16D H -0.2231 0.4441 -0.0149
Cd1A Cd 0.674840(18) 0.86683(3) 0.22358(2)
Cd1E Cd 0.325160(18) 0.13317(3) 0.77642(2)
Cd1D Cd 0.825160(18) 0.63317(3) 0.77642(2)
Cd1D_2 Cd -0.174840(18) 0.63317(3) -0.22358(2)
N1D N 0.6399(2) 0.7398(3) 0.2954(2)
N1E N 0.1399(2) 0.2398(3) 0.2954(2)
N1A N 0.8601(2) 0.7602(3) 0.7046(2)
N2D N 0.7179(2) 0.5970(3) 0.6797(2)
N3D N -0.1325(2) 0.4514(3) -0.1114(2)
O1D O 0.7789(2) 0.7404(3) 0.8552(2)
H17D H 0.8137 0.7769 0.8810
H18D H 0.7680 0.7048 0.8919
O2D O 0.8880(2) 0.5167(3) 0.7280(2)
O2D_2 O -0.1120(2) 0.5167(3) -0.2720(2)
O3D O -0.0895(2) 0.3534(3) -0.2761(3)
O4D O 0.80542(17) 0.4896(3) 0.8422(2)
O4D_2 O -0.19458(17) 0.4896(3) -0.1578(2)
O5D O -0.1011(2) 0.7200(3) -0.0117(2)
O6D O 0.9286(2) 0.6541(3) 0.8810(2)
O6D_2 O -0.0714(2) 0.6541(3) -0.1190(2)
O7 O 0.1493(4) 0.2033(5) 0.8839(4)
H19 H 0.1398 0.2495 0.9139
H20 H 0.1168 0.2011 0.8378
O8 O 0.2500 0.2500 0.5000
H21? H 0.2388 0.2166 0.4551
H22? H 0.2584 0.2106 0.5413
loop_
_geom_bond_atom_site_label_1
_geom_bond_atom_site_label_2
_geom_bond_site_symmetry_1
_geom_bond_site_symmetry_2
C1 H1 1_555 1_555
C2 H2 1_555 1_555
C3 C2 1_555 1_555
H3 C3 1_555 1_555
C4 C1 1_555 1_555
H4 C4 1_555 1_555
C5 C3 1_555 1_555
C6 C5 1_555 1_555
H5 C6 1_555 1_555
H6 C6 1_555 1_555
C7 C6 1_555 1_555
H7 C7 1_555 1_555
C8 C7 1_555 1_555
C9 C8 1_555 1_555
H8 C9 1_555 1_555
C10 C9 1_555 1_555
H9 C10 1_555 1_555
C11 H10 1_555 1_555
C12 C8 1_555 1_555
H11 C12 1_555 1_555
C13 C14 1_555 1_555
C14 H12 1_555 1_555
C15 C19 1_555 1_555
C16 H13 1_555 1_555
C17 C16 1_555 1_555
C18 C13 1_555 1_555
C19 O5 1_555 1_555
C20 C17 1_555 1_555
H14 C20 1_555 1_555
H15 C20 1_555 1_555
H16 C20 1_555 1_555
Cd1 N2 1_555 1_555
N1 C1 1_555 1_555
N2 C10 1_555 1_555
N3 C13 1_555 1_555
O1 Cd1 1_555 1_555
H17 O1 1_555 1_555
H18 O1 1_555 1_555
O2 C18 1_555 1_555
O3 C18 1_555 1_555
O4 Cd1 1_555 1_555
O6 C19 1_555 1_555
O7 H19 1_555 1_555
H20 O7 1_555 1_555
C1D H1D 1_555 1_555
C2D H2D 1_555 1_555
C3D C2D 1_555 1_555
H3D C3D 1_555 1_555
C4D C1D 1_555 1_555
H4D C4D 1_555 1_555
C5D C3D 1_555 1_555
C6D C5D 1_555 1_555
H5D C6D 1_555 1_555
H6D C6D 1_555 1_555
C7D C7 1_555 1_555
H7D C7D 1_555 1_555
C8D C7D 1_555 1_555
C9D C8D 1_555 1_555
H8D C9D 1_555 1_555
C10D C9D 1_555 1_555
H9D C10D 1_555 1_555
C11D H10D 1_555 1_555
C12D C8D 1_555 1_555
H11D C12D 1_555 1_555
C13D C14D 1_555 1_555
C14D C15 1_555 1_555
H12D C14D 1_555 1_555
C15D C14 1_555 1_555
C16D C15 1_555 1_555
H13D C16D 1_555 1_555
C17D C16D 1_555 1_555
C18D C13D 1_555 1_555
C19D C15D 1_555 1_555
C20D C17D 1_555 1_555
H14D C20D 1_555 1_555
H15D C20D 1_555 1_555
H16D C20D 1_555 1_555
Cd1A N1D 1_555 1_555
Cd1E N1 1_555 1_555
Cd1D N1A 1_555 1_555
Cd1D_2 O2D_2 1_555 1_555
N1D C1D 1_555 1_555
N1E Cd1 1_555 1_555
N2D C10D 1_555 1_555
N3D C13D 1_555 1_555
O1D Cd1D 1_555 1_555
H17D O1D 1_555 1_555
H18D O1D 1_555 1_555
O2D Cd1D 1_555 1_555
O2D_2 C18D 1_555 1_555
O3D C18D 1_555 1_555
O4D Cd1D 1_555 1_555
O4D_2 Cd1D_2 1_555 1_555
O5D C19D 1_555 1_555
O6D Cd1D 1_555 1_555
O6D_2 C19D 1_555 1_555
C2 N1 1_555 1_555
C4 C5 1_555 1_555
C11 C12 1_555 1_555
C11 N2 1_555 1_555
C16 C15D 1_555 1_555
C17 N3 1_555 1_555
Cd1 O2 1_555 1_555
Cd1 O6 1_555 1_555
N3 O4 1_555 1_555
C2D N1D 1_555 1_555
C4D C5D 1_555 1_555
C6D C7D 1_555 1_555
C11D C12D 1_555 1_555
C11D N2D 1_555 1_555
C17D N3D 1_555 1_555
Cd1D N2D 1_555 1_555
Cd1D_2 O6D_2 1_555 1_555
N3D O4D_2 1_555 1_555

#END
