
#######################################################################
#
#                 Cambridge Crystallographic Data Centre
#                                CCDC 
#
#######################################################################
#
# If this CIF has been generated from an entry in the Cambridge 
# Structural Database, then it will include bibliographic, chemical, 
# crystal, experimental, refinement or atomic coordinate data resulting 
# from the CCDC's data processing and validation procedures.
#
#######################################################################

data_JITPEI
_symmetry_cell_setting           monoclinic
_symmetry_space_group_name_H-M   'C 2/c'
_symmetry_Int_Tables_number      15
_space_group_name_Hall           '-C 2yn'
loop_
_symmetry_equiv_pos_site_id
_symmetry_equiv_pos_as_xyz
1 x,y,z
2 1/2+x,1/2+y,z
3 -x,y,1/2-z
4 1/2-x,1/2+y,1/2-z
5 -x,-y,-z
6 1/2-x,1/2-y,-z
7 x,-y,1/2+z
8 1/2+x,1/2-y,1/2+z
_cell_length_a                   13.2612(8)
_cell_length_b                   14.7065(9)
_cell_length_c                   8.6573(5)
_cell_angle_alpha                90
_cell_angle_beta                 92.7440(10)
_cell_angle_gamma                90
_cell_volume                     1686.46
loop_
_atom_site_label
_atom_site_type_symbol
_atom_site_fract_x
_atom_site_fract_y
_atom_site_fract_z
Cd1 Cd 0.5000 0.61612(3) 0.7500
N1 N 0.3320(3) 0.5852(3) 0.6494(5)
C1 C 0.2853(4) 0.6374(3) 0.5443(7)
H1 H 0.3211 0.6866 0.5045
C2 C 0.1869(4) 0.6235(3) 0.4897(7)
H2 H 0.1573 0.6638 0.4165
C3 C 0.1319(4) 0.5510(3) 0.5419(5)
C4 C 0.1820(4) 0.4953(5) 0.6482(7)
H3 H 0.1491 0.4439 0.6862
C5 C 0.2793(4) 0.5141(5) 0.6991(7)
H4 H 0.3107 0.4750 0.7726
C6 C 0.0285(3) 0.5356(3) 0.4836(5)
H5 H -0.0005 0.5799 0.4170
O1 O 0.4049(3) 0.7586(3) 0.8538(4)
O2 O 0.4574(3) 0.6444(3) 0.9954(4)
C7 C 0.4134(4) 0.7199(3) 0.9798(6)
C8 C 0.3706(5) 0.7610(4) 1.1220(7)
H6 H 0.3668 0.8265 1.1104
H7 H 0.4138 0.7460 1.2120
H8 H 0.3035 0.7368 1.1353
O3 O 0.5000 0.4571(3) 0.7500
H9 H 0.518(5) 0.42187(12) 0.831(3)
Cd1F Cd -0.5000 0.38388(3) 0.2500
N1D N -0.3320(3) 0.4148(3) 0.3506(5)
N1B N 0.6680(3) 0.5852(3) 0.8506(5)
C1D C -0.2853(4) 0.3626(3) 0.4557(7)
H1D H -0.3211 0.3134 0.4955
C2D C -0.1869(4) 0.3765(3) 0.5103(7)
H2D H -0.1573 0.3362 0.5835
C3D C -0.1319(4) 0.4490(3) 0.4581(5)
C4D C -0.1820(4) 0.5047(5) 0.3518(7)
H3D H -0.1491 0.5561 0.3138
C5D C -0.2793(4) 0.4859(5) 0.3009(7)
H4D H -0.3107 0.5250 0.2274
C6D C -0.0285(3) 0.4644(3) 0.5164(5)
H5D H 0.0005 0.4201 0.5830
O1B O 0.5951(3) 0.7586(3) 0.6462(4)
O2B O 0.5426(3) 0.6444(3) 0.5046(4)
C7B C 0.5866(4) 0.7199(3) 0.5202(6)
C8B C 0.6294(5) 0.7610(4) 0.3780(7)
H6B H 0.6332 0.8265 0.3896
H7B H 0.5862 0.7460 0.2880
H8B H 0.6965 0.7368 0.3647
H9B H 0.482(5) 0.42187(12) 0.669(3)
loop_
_geom_bond_atom_site_label_1
_geom_bond_atom_site_label_2
_geom_bond_site_symmetry_1
_geom_bond_site_symmetry_2
Cd1 N1 1_555 1_555
N1 C1 1_555 1_555
C1 H1 1_555 1_555
C2 C1 1_555 1_555
H2 C2 1_555 1_555
C3 C2 1_555 1_555
C4 C3 1_555 1_555
H3 C4 1_555 1_555
C5 N1 1_555 1_555
H4 C5 1_555 1_555
C6 C3 1_555 1_555
H5 C6 1_555 1_555
O1 Cd1 1_555 1_555
O2 Cd1 1_555 1_555
C7 O1 1_555 1_555
C8 C7 1_555 1_555
H6 C8 1_555 1_555
H7 C8 1_555 1_555
H8 C8 1_555 1_555
O3 Cd1 1_555 1_555
H9 O3 1_555 1_555
Cd1F N1D 1_555 1_555
N1D C1D 1_555 1_555
N1B Cd1 1_555 1_555
C1D H1D 1_555 1_555
C2D C1D 1_555 1_555
H2D C2D 1_555 1_555
C3D C2D 1_555 1_555
C4D C3D 1_555 1_555
H3D C4D 1_555 1_555
C5D N1D 1_555 1_555
H4D C5D 1_555 1_555
C6D C6 1_555 1_555
H5D C6D 1_555 1_555
O1B Cd1 1_555 1_555
O2B Cd1 1_555 1_555
C7B O1B 1_555 1_555
C8B C7B 1_555 1_555
H6B C8B 1_555 1_555
H7B C8B 1_555 1_555
H8B C8B 1_555 1_555
H9B O3 1_555 1_555
C4 C5 1_555 1_555
O2 C7 1_555 1_555
C3D C6D 1_555 1_555
C4D C5D 1_555 1_555
O2B C7B 1_555 1_555

#END
