
#######################################################################
#
#                 Cambridge Crystallographic Data Centre
#                                CCDC 
#
#######################################################################
#
# If this CIF has been generated from an entry in the Cambridge 
# Structural Database, then it will include bibliographic, chemical, 
# crystal, experimental, refinement or atomic coordinate data resulting 
# from the CCDC's data processing and validation procedures.
#
#######################################################################

data_JITQAE
_symmetry_cell_setting           monoclinic
_symmetry_space_group_name_H-M   'C 2/c'
_symmetry_Int_Tables_number      15
_space_group_name_Hall           '-C 2yn'
loop_
_symmetry_equiv_pos_site_id
_symmetry_equiv_pos_as_xyz
1 x,y,z
2 1/2+x,1/2+y,z
3 x,-y,1/2+z
4 1/2+x,1/2-y,1/2+z
5 -x,-y,-z
6 1/2-x,1/2-y,-z
7 -x,y,1/2-z
8 1/2-x,1/2+y,1/2-z
_cell_length_a                   25.540(8)
_cell_length_b                   9.186(3)
_cell_length_c                   15.482(12)
_cell_angle_alpha                90
_cell_angle_beta                 117.08(4)
_cell_angle_gamma                90
_cell_volume                     3234.04
loop_
_atom_site_label
_atom_site_type_symbol
_atom_site_fract_x
_atom_site_fract_y
_atom_site_fract_z
O7 O -1.0518(19) 0.254(5) 0.228(3)
C13 C -1.0000 0.313(6) 0.2500
C14 C -1.003(2) 0.293(6) 0.149(4)
O7F O -0.9482(19) 0.254(5) 0.272(3)
C14F C -0.997(2) 0.293(6) 0.351(4)
Cu1 Cu -0.20329(9) 0.6333(3) 0.10782(17)
C1 C -0.4750(7) 0.375(2) 0.1103(12)
C2 C -0.4313(8) 0.4201(18) 0.1121(13)
N1 N -0.6299(5) 0.2109(16) 0.1065(10)
C3 C -0.6132(6) 0.3440(19) 0.1338(11)
H1 H -0.6364 0.4006 0.1526
C4 C -0.5626(6) 0.4079(19) 0.1368(12)
H2 H -0.5522 0.5038 0.1563
C5 C -0.5297(7) 0.3214(18) 0.1094(12)
C6 C -0.5460(7) 0.1823(19) 0.0806(12)
H3 H -0.5230 0.1234 0.0628
C7 C -0.5984(7) 0.127(2) 0.0781(12)
H4 H -0.6107 0.0332 0.0564
N2 N -0.2759(5) 0.5634(15) 0.1117(10)
C8 C -0.3064(6) 0.6539(19) 0.1375(11)
H5 H -0.2930 0.7488 0.1547
C9 C -0.3584(7) 0.611(2) 0.1398(12)
H6 H -0.3796 0.6768 0.1573
C10 C -0.3769(7) 0.4745(19) 0.1166(12)
C11 C -0.3447(6) 0.377(2) 0.0896(11)
H7 H -0.3570 0.2814 0.0727
C12 C -0.2935(7) 0.4281(19) 0.0890(12)
H8 H -0.2712 0.3648 0.0722
N3 N -0.2377(7) 0.503(2) -0.0699(15)
O1 O -0.2458(4) 0.6275(15) -0.0381(9)
O2 O -0.2075(6) 0.4090(14) -0.0112(12)
O3 O -0.2602(7) 0.4864(19) -0.1558(14)
N4 N -0.1391(9) 0.536(2) 0.2855(17)
O4 O -0.1639(5) 0.6595(15) 0.2516(9)
O5 O -0.1454(6) 0.4364(15) 0.2297(11)
O6 O -0.1116(8) 0.524(2) 0.3760(13)
Cu1A Cu -0.70329(9) 0.1333(3) 0.10782(17)
N1A N -0.1299(5) 0.7109(16) 0.1065(10)
Cu1E Cu -0.29671(9) 0.8667(3) -0.10782(17)
O1E O -0.2542(4) 0.8725(15) 0.0381(9)
loop_
_geom_bond_atom_site_label_1
_geom_bond_atom_site_label_2
_geom_bond_site_symmetry_1
_geom_bond_site_symmetry_2
Cu1 N2 1_555 1_555
C1 C2 1_555 1_555
C2 C10 1_555 1_555
N1 C3 1_555 1_555
C3 H1 1_555 1_555
C4 C3 1_555 1_555
H2 C4 1_555 1_555
C5 C1 1_555 1_555
C6 C5 1_555 1_555
H3 C6 1_555 1_555
C7 N1 1_555 1_555
H4 C7 1_555 1_555
N2 C8 1_555 1_555
C8 H5 1_555 1_555
C9 C8 1_555 1_555
H6 C9 1_555 1_555
C10 C9 1_555 1_555
C11 C10 1_555 1_555
H7 C11 1_555 1_555
C12 N2 1_555 1_555
H8 C12 1_555 1_555
N3 O1 1_555 1_555
O1 Cu1 1_555 1_555
O2 N3 1_555 1_555
O3 N3 1_555 1_555
N4 O4 1_555 1_555
O4 Cu1 1_555 1_555
O5 Cu1 1_555 1_555
O6 N4 1_555 1_555
O7 C13 1_555 1_555
C13 C14 1_555 1_555
Cu1A N1 1_555 1_555
N1A Cu1 1_555 1_555
Cu1E O1 1_555 1_555
O1E Cu1 1_555 1_555
O7F C13 1_555 1_555
C14F C13 1_555 1_555
C4 C5 1_555 1_555
C6 C7 1_555 1_555
C11 C12 1_555 1_555
N4 O5 1_555 1_555
Cu1E O1E 1_555 1_555

#END
