
#######################################################################
#
#                 Cambridge Crystallographic Data Centre
#                                CCDC 
#
#######################################################################
#
# If this CIF has been generated from an entry in the Cambridge 
# Structural Database, then it will include bibliographic, chemical, 
# crystal, experimental, refinement or atomic coordinate data resulting 
# from the CCDC's data processing and validation procedures.
#
#######################################################################

data_JITQOT
_symmetry_cell_setting           monoclinic
_symmetry_space_group_name_H-M   'P 21'
_symmetry_Int_Tables_number      4
_space_group_name_Hall           'P 2yb'
loop_
_symmetry_equiv_pos_site_id
_symmetry_equiv_pos_as_xyz
1 x,y,z
2 -x,1/2+y,-z
_cell_length_a                   7.2911(4)
_cell_length_b                   11.3103(7)
_cell_length_c                   13.0172(9)
_cell_angle_alpha                90
_cell_angle_beta                 99.332(4)
_cell_angle_gamma                90
_cell_volume                     1059.25
loop_
_atom_site_label
_atom_site_type_symbol
_atom_site_fract_x
_atom_site_fract_y
_atom_site_fract_z
Cd1 Cd 0.25275(15) -0.20864(8) 0.76095(8)
Cd2 Cd 0.74793(15) -0.29130(5) 0.73212(8)
O1 O 0.6460(19) -0.2376(17) 0.8723(10)
O2 O 0.395(2) -0.1709(17) 0.9116(10)
O3 O 1.1609(18) 0.0215(12) 1.2205(11)
O4 O 0.9388(17) 0.1464(13) 1.2178(11)
O5 O 0.4269(11) -0.2840(13) 0.6549(6)
O6 O 0.6322(15) -0.3195(13) 0.5582(7)
O7 O -0.148(2) -0.5464(16) 0.3145(12)
O8 O 0.099(2) -0.6201(13) 0.2801(10)
C1 C 0.655(3) -0.1768(18) 1.0505(13)
C2 C 0.8294(17) -0.0940(11) 1.0540(10)
C3 C 0.855(2) -0.0590(17) 1.1696(12)
H1 H 0.9102 -0.1288 1.2071
C4 C 0.661(3) -0.050(3) 1.1979(13)
H2 H 0.6576 -0.0864 1.2652
H3 H 0.6231 0.0317 1.2006
C5 C 0.533(2) -0.116(2) 1.1128(12)
H4 H 0.4570 -0.1728 1.1430
H5 H 0.4515 -0.0612 1.0700
C6 C 0.702(4) -0.304(2) 1.0882(17)
H6 H 0.7716 -0.3014 1.1576
H7 H 0.7759 -0.3411 1.0426
H8 H 0.5899 -0.3477 1.0881
C7 C 1.002(2) -0.141(2) 1.0229(19)
H9 H 1.0402 -0.2109 1.0629
H10 H 1.0981 -0.0827 1.0354
H11 H 0.9789 -0.1610 0.9502
C8 C 0.776(4) 0.020(2) 0.9886(15)
H12 H 0.7600 0.0014 0.9158
H13 H 0.8731 0.0780 1.0046
H14 H 0.6621 0.0519 1.0051
C9 C 0.553(3) -0.198(2) 0.9329(12)
C10 C 0.988(3) 0.041(2) 1.2053(14)
C11 C 0.3211(19) -0.3097(15) 0.4679(9)
C12 C 0.278(3) -0.4337(13) 0.4276(13)
C13 C 0.110(2) -0.4215(16) 0.3463(13)
H15 H 0.1474 -0.3836 0.2854
C14 C -0.020(2) -0.3318(16) 0.3947(16)
H16 H -0.0677 -0.2709 0.3449
H17 H -0.1243 -0.3725 0.4169
C15 C 0.110(3) -0.279(2) 0.4888(15)
H18 H 0.0870 -0.3141 0.5533
H19 H 0.0926 -0.1938 0.4924
C16 C 0.374(3) -0.229(3) 0.3852(15)
H20 H 0.5020 -0.2422 0.3786
H21 H 0.3586 -0.1480 0.4046
H22 H 0.2965 -0.2448 0.3199
C17 C 0.436(3) -0.473(2) 0.3600(15)
H23 H 0.4101 -0.5521 0.3338
H24 H 0.5558 -0.4719 0.4033
H25 H 0.4356 -0.4199 0.3027
C18 C 0.269(4) -0.5155(19) 0.5090(14)
H26 H 0.1767 -0.4899 0.5491
H27 H 0.3875 -0.5201 0.5530
H28 H 0.2353 -0.5920 0.4798
C19 C 0.461(2) -0.303(2) 0.5623(11)
C20 C 0.017(3) -0.539(2) 0.3110(12)
Cd1A Cd 0.74725(15) 0.29136(8) 1.23905(8)
Cd1A_2 Cd -0.25275(15) -0.70864(8) 0.23905(8)
Cd2A Cd 1.25207(15) 0.20870(5) 1.26788(8)
Cd2A_2 Cd 0.25207(15) -0.79130(5) 0.26788(8)
O3A O 0.8391(18) -0.4785(12) 0.7795(11)
O4A O 0.0612(17) -0.3536(13) 0.7822(11)
O4A_2 O 1.0612(17) -0.3536(13) 0.7822(11)
O7A O 0.148(2) -0.0464(16) 0.6855(12)
O8A O 0.901(2) -0.1201(13) 0.7199(10)
loop_
_geom_bond_atom_site_label_1
_geom_bond_atom_site_label_2
_geom_bond_site_symmetry_1
_geom_bond_site_symmetry_2
Cd1 O2 1_555 1_555
Cd2 O1 1_555 1_555
O1 C9 1_555 1_555
O2 C9 1_555 1_555
O3 C10 1_555 1_555
O4 C10 1_555 1_555
O5 Cd1 1_555 1_555
O6 Cd2 1_555 1_555
O7 C20 1_555 1_555
O8 C20 1_555 1_555
C1 C2 1_555 1_555
C2 C3 1_555 1_555
C3 H1 1_555 1_555
C4 C3 1_555 1_555
H2 C4 1_555 1_555
H3 C4 1_555 1_555
C5 C1 1_555 1_555
H4 C5 1_555 1_555
H5 C5 1_555 1_555
C6 C1 1_555 1_555
H6 C6 1_555 1_555
H7 C6 1_555 1_555
H8 C6 1_555 1_555
C7 C2 1_555 1_555
H9 C7 1_555 1_555
H10 C7 1_555 1_555
H11 C7 1_555 1_555
C8 C2 1_555 1_555
H12 C8 1_555 1_555
H13 C8 1_555 1_555
H14 C8 1_555 1_555
C9 C1 1_555 1_555
C10 C3 1_555 1_555
C11 C12 1_555 1_555
C12 C13 1_555 1_555
C13 H15 1_555 1_555
C14 C13 1_555 1_555
H16 C14 1_555 1_555
H17 C14 1_555 1_555
C15 C11 1_555 1_555
H18 C15 1_555 1_555
H19 C15 1_555 1_555
C16 C11 1_555 1_555
H20 C16 1_555 1_555
H21 C16 1_555 1_555
H22 C16 1_555 1_555
C17 C12 1_555 1_555
H23 C17 1_555 1_555
H24 C17 1_555 1_555
H25 C17 1_555 1_555
C18 C12 1_555 1_555
H26 C18 1_555 1_555
H27 C18 1_555 1_555
H28 C18 1_555 1_555
C19 O5 1_555 1_555
C20 C13 1_555 1_555
Cd1A O4 1_555 1_555
Cd1A_2 O7 1_555 1_555
Cd2A O3 1_555 1_555
Cd2A_2 O8 1_555 1_555
O3A Cd2 1_555 1_555
O4A Cd1 1_555 1_555
O4A_2 Cd2 1_555 1_555
O7A Cd1 1_555 1_555
O8A Cd2 1_555 1_555
Cd2 O5 1_555 1_555
O4 Cd2A 1_555 1_555
O6 C19 1_555 1_555
C4 C5 1_555 1_555
C11 C19 1_555 1_555
C14 C15 1_555 1_555

#END
