
#######################################################################
#
#                 Cambridge Crystallographic Data Centre
#                                CCDC 
#
#######################################################################
#
# If this CIF has been generated from an entry in the Cambridge 
# Structural Database, then it will include bibliographic, chemical, 
# crystal, experimental, refinement or atomic coordinate data resulting 
# from the CCDC's data processing and validation procedures.
#
#######################################################################

data_JITQIN
_symmetry_cell_setting           monoclinic
_symmetry_space_group_name_H-M   'P 21'
_symmetry_Int_Tables_number      4
_space_group_name_Hall           'P 2yb'
loop_
_symmetry_equiv_pos_site_id
_symmetry_equiv_pos_as_xyz
1 x,y,z
2 -x,1/2+y,-z
_cell_length_a                   12.8807(3)
_cell_length_b                   13.3380(3)
_cell_length_c                   13.4542(3)
_cell_angle_alpha                90
_cell_angle_beta                 104.9400(10)
_cell_angle_gamma                90
_cell_volume                     2233.33
loop_
_atom_site_label
_atom_site_type_symbol
_atom_site_fract_x
_atom_site_fract_y
_atom_site_fract_z
O1 O -0.3232(4) 0.7562(4) -0.1278(4)
O2 O -0.5148(3) 0.8724(3) -0.1600(3)
O3 O -0.4146(3) 0.9540(2) -0.2464(2)
O4 O -0.1802(3) 1.3672(3) 0.2994(3)
O5 O -0.2790(2) 1.2504(3) 0.0444(2)
O6 O -0.3440(2) 1.1900(3) 0.1665(2)
O7 O -0.6593(3) 0.8065(3) -0.3768(3)
O8 O -0.5081(2) 0.7912(2) -0.4196(2)
O9 O -0.5533(3) 1.1012(2) -0.7239(2)
O10 O -0.6947(2) 1.1741(2) -0.6836(2)
O11 O -0.0527(3) 1.1711(3) 0.0889(3)
O12 O 0.1242(3) 1.1578(3) 0.1279(2)
O13 O -0.1736(3) 0.8836(3) -0.2240(3)
O14 O -0.0162(2) 0.8350(3) -0.2365(2)
O15 O -0.2898(3) 0.8742(3) -0.4588(3)
O16 O -0.1590(3) 0.7620(3) -0.4462(2)
O17 O -0.0691(3) 1.1507(3) -0.6902(3)
O18 O 0.0520(3) 1.0357(3) -0.6911(3)
Cd1 Cd -0.33943(3) 0.84128(2) -0.32218(3)
Cd2 Cd -0.14725(3) 1.25309(3) 0.18460(3)
Cd3 Cd -0.88177(3) 1.19138(2) -0.70908(2)
Cd4 Cd -0.53208(3) 0.73257(2) -0.24630(2)
C1 C -0.5060(4) 1.0505(4) -0.1437(3)
C2 C -0.4519(4) 1.0592(4) -0.0246(3)
C3 C -0.4534(3) 1.1761(4) -0.0081(3)
H1 H -0.5160 1.1923 0.0176
C4 C -0.4683(4) 1.2264(4) -0.1132(4)
H2 H -0.5373 1.2600 -0.1336
H3 H -0.4120 1.2753 -0.1110
C5 C -0.4624(4) 1.1425(4) -0.1875(4)
H4 H -0.3888 1.1316 -0.1906
H5 H -0.5060 1.1579 -0.2560
C6 C -0.6294(4) 1.0562(5) -0.1688(5)
H6 H -0.6588 1.0506 -0.2418
H7 H -0.6504 1.1192 -0.1454
H8 H -0.6560 1.0024 -0.1348
C7 C -0.3381(5) 1.0188(4) -0.0011(4)
H9 H -0.3053 1.0242 0.0714
H10 H -0.2972 1.0569 -0.0383
H11 H -0.3396 0.9497 -0.0214
C8 C -0.5150(6) 1.0067(5) 0.0421(4)
H12 H -0.4780 1.0147 0.1133
H13 H -0.5212 0.9366 0.0253
H14 H -0.5854 1.0357 0.0295
C9 C -0.3532(4) 1.2094(3) 0.0723(3)
C10 C -0.4756(4) 0.9506(4) -0.1871(4)
C11 C -0.6593(3) 0.8596(3) -0.5482(3)
C12 C -0.6476(4) 0.9774(4) -0.5493(3)
C13 C -0.6773(3) 0.9963(3) -0.6692(3)
H15 H -0.7558 0.9954 -0.6940
C14 C -0.6337(4) 0.9052(4) -0.7154(4)
H16 H -0.5709 0.9238 -0.7384
H17 H -0.6879 0.8793 -0.7738
C15 C -0.6041(4) 0.8257(4) -0.6297(3)
H18 H -0.6296 0.7600 -0.6560
H19 H -0.5268 0.8227 -0.6015
C16 C -0.7780(4) 0.8256(4) -0.5780(4)
H20 H -0.7812 0.7537 -0.5763
H21 H -0.8122 0.8488 -0.6461
H22 H -0.8142 0.8531 -0.5302
C17 C -0.7213(4) 1.0320(4) -0.4953(4)
H23 H -0.7105 1.1030 -0.4986
H24 H -0.7052 1.0113 -0.4247
H25 H -0.7948 1.0161 -0.5286
C18 C -0.5327(4) 1.0120(4) -0.4994(4)
H26 H -0.5293 1.0838 -0.5018
H27 H -0.4848 0.9837 -0.5359
H28 H -0.5120 0.9901 -0.4290
C19 C -0.6054(4) 0.8165(3) -0.4417(4)
C20 C -0.6387(4) 1.0976(4) -0.6957(3)
C21 C 0.0266(4) 1.1272(3) -0.0479(4)
C22 C 0.0195(4) 1.0102(4) -0.0615(3)
C23 C -0.0295(4) 1.0027(4) -0.1812(4)
H29 H 0.0283 1.0153 -0.2148
C24 C -0.1090(6) 1.0891(5) -0.2075(5)
H30 H -0.1060 1.1197 -0.2721
H31 H -0.1816 1.0651 -0.2140
C25 C -0.0778(5) 1.1645(4) -0.1209(4)
H32 H -0.1339 1.1697 -0.0849
H33 H -0.0671 1.2301 -0.1478
C26 C 0.1237(5) 1.1710(5) -0.0772(4)
H34 H 0.1249 1.2424 -0.0678
H35 H 0.1192 1.1559 -0.1480
H36 H 0.1882 1.1424 -0.0344
C27 C 0.1284(4) 0.9573(4) -0.0267(4)
H37 H 0.1553 0.9636 0.0465
H38 H 0.1782 0.9875 -0.0599
H39 H 0.1199 0.8876 -0.0448
C28 C -0.0545(4) 0.9624(4) -0.0029(4)
H40 H -0.0227 0.9680 0.0697
H41 H -0.0649 0.8929 -0.0214
H42 H -0.1226 0.9962 -0.0202
C29 C 0.0325(4) 1.1552(4) 0.0649(4)
C30 C -0.0773(4) 0.9008(4) -0.2157(3)
C31 C -0.2073(4) 0.8643(3) -0.5973(3)
C32 C -0.1600(4) 0.9746(4) -0.5908(4)
C33 C -0.1248(4) 0.9796(4) -0.6927(3)
H43 H -0.1887 0.9971 -0.7474
C34 C -0.0927(5) 0.8731(4) -0.7147(4)
H44 H -0.1292 0.8536 -0.7845
H45 H -0.0158 0.8691 -0.7066
C35 C -0.1260(4) 0.8048(4) -0.6374(4)
H46 H -0.1581 0.7435 -0.6704
H47 H -0.0643 0.7875 -0.5816
C36 C -0.3176(4) 0.8576(5) -0.6732(4)
H48 H -0.3437 0.7900 -0.6751
H49 H -0.3121 0.8767 -0.7404
H50 H -0.3665 0.9018 -0.6517
C37 C -0.2385(5) 1.0580(5) -0.5837(5)
H51 H -0.2030 1.1216 -0.5800
H52 H -0.2637 1.0486 -0.5231
H53 H -0.2984 1.0563 -0.6434
C38 C -0.0627(4) 0.9835(5) -0.4981(4)
H54 H -0.0344 1.0504 -0.4946
H55 H -0.0084 0.9367 -0.5051
H56 H -0.0840 0.9691 -0.4363
C39 C -0.2188(4) 0.8311(4) -0.4913(3)
C40 C -0.0418(4) 1.0593(4) -0.6920(3)
O6A O -0.6560(2) 0.6900(3) -0.1665(2)
O9A O -0.4467(3) 0.6012(2) -0.2761(2)
O10A O -0.3053(2) 0.6741(2) -0.3164(2)
O12_2 O -0.8758(3) 1.1578(3) -0.8721(2)
O14A O 0.0162(2) 1.3350(3) 0.2365(2)
O14A_2 O -0.9838(2) 1.3350(3) -0.7635(2)
O16A O -0.8410(3) 1.2620(3) -0.5538(2)
O17_2 O -0.0691(3) 1.1507(3) 0.3098(3)
O17_3 O -1.0691(3) 1.1507(3) -0.6902(3)
O18_2 O -0.9480(3) 1.0357(3) -0.6911(3)
Cd1A Cd -0.66057(3) 1.34128(2) -0.67782(3)
Cd2A Cd 0.14725(3) 0.75309(3) -0.18460(3)
Cd2_2 Cd -0.14725(3) 1.25309(3) -0.81540(3)
Cd3_2 Cd 0.11823(3) 1.19138(2) 0.29092(2)
Cd3A Cd -0.11823(3) 0.69138(2) -0.29092(2)
Cd3_3 Cd 0.11823(3) 1.19138(2) -0.70908(2)
Cd4A Cd -0.46792(3) 1.23257(2) 0.24630(2)
Cd4A_2 Cd -0.46792(3) 1.23257(2) -0.75370(2)
loop_
_geom_bond_atom_site_label_1
_geom_bond_atom_site_label_2
_geom_bond_site_symmetry_1
_geom_bond_site_symmetry_2
O2 Cd4 1_555 1_555
O3 Cd1 1_555 1_555
O4 Cd2 1_555 1_555
O5 Cd2 1_555 1_555
O6 C9 1_555 1_555
O7 Cd4 1_555 1_555
O8 Cd1 1_555 1_555
O9 C20 1_555 1_555
O10 Cd3 1_555 1_555
O11 Cd2 1_555 1_555
O12 C29 1_555 1_555
O13 Cd1 1_555 1_555
O14 C30 1_555 1_555
O15 Cd1 1_555 1_555
O16 C39 1_555 1_555
O17 C40 1_555 1_555
O18 C40 1_555 1_555
Cd1 O10A 1_555 1_555
Cd2 O14A 1_555 1_555
Cd3 O12_2 1_555 1_555
Cd4 O8 1_555 1_555
C1 C2 1_555 1_555
C2 C3 1_555 1_555
C3 H1 1_555 1_555
C4 C3 1_555 1_555
H2 C4 1_555 1_555
H3 C4 1_555 1_555
C5 C1 1_555 1_555
H4 C5 1_555 1_555
H5 C5 1_555 1_555
C6 C1 1_555 1_555
H6 C6 1_555 1_555
H7 C6 1_555 1_555
H8 C6 1_555 1_555
C7 C2 1_555 1_555
H9 C7 1_555 1_555
H10 C7 1_555 1_555
H11 C7 1_555 1_555
C8 C2 1_555 1_555
H12 C8 1_555 1_555
H13 C8 1_555 1_555
H14 C8 1_555 1_555
C9 O5 1_555 1_555
C10 O2 1_555 1_555
C11 C12 1_555 1_555
C12 C13 1_555 1_555
C13 H15 1_555 1_555
C14 C13 1_555 1_555
H16 C14 1_555 1_555
H17 C14 1_555 1_555
C15 C11 1_555 1_555
H18 C15 1_555 1_555
H19 C15 1_555 1_555
C16 C11 1_555 1_555
H20 C16 1_555 1_555
H21 C16 1_555 1_555
H22 C16 1_555 1_555
C17 C12 1_555 1_555
H23 C17 1_555 1_555
H24 C17 1_555 1_555
H25 C17 1_555 1_555
C18 C12 1_555 1_555
H26 C18 1_555 1_555
H27 C18 1_555 1_555
H28 C18 1_555 1_555
C19 O7 1_555 1_555
C20 O10 1_555 1_555
C21 C22 1_555 1_555
C22 C23 1_555 1_555
C23 H29 1_555 1_555
C24 C23 1_555 1_555
H30 C24 1_555 1_555
H31 C24 1_555 1_555
C25 C21 1_555 1_555
H32 C25 1_555 1_555
H33 C25 1_555 1_555
C26 C21 1_555 1_555
H34 C26 1_555 1_555
H35 C26 1_555 1_555
H36 C26 1_555 1_555
C27 C22 1_555 1_555
H37 C27 1_555 1_555
H38 C27 1_555 1_555
H39 C27 1_555 1_555
C28 C22 1_555 1_555
H40 C28 1_555 1_555
H41 C28 1_555 1_555
H42 C28 1_555 1_555
C29 O11 1_555 1_555
C30 O13 1_555 1_555
C31 C32 1_555 1_555
C32 C33 1_555 1_555
C33 H43 1_555 1_555
C34 C33 1_555 1_555
H44 C34 1_555 1_555
H45 C34 1_555 1_555
C35 C31 1_555 1_555
H46 C35 1_555 1_555
H47 C35 1_555 1_555
C36 C31 1_555 1_555
H48 C36 1_555 1_555
H49 C36 1_555 1_555
H50 C36 1_555 1_555
C37 C32 1_555 1_555
H51 C37 1_555 1_555
H52 C37 1_555 1_555
H53 C37 1_555 1_555
C38 C32 1_555 1_555
H54 C38 1_555 1_555
H55 C38 1_555 1_555
H56 C38 1_555 1_555
C39 O15 1_555 1_555
C40 C33 1_555 1_555
O6A Cd4 1_555 1_555
O9A Cd4 1_555 1_555
O10A Cd3A 1_555 1_555
O14A Cd3_2 1_555 1_555
O14A_2 Cd3 1_555 1_555
O16A Cd3 1_555 1_555
O17_2 Cd2 1_555 1_555
O17_3 Cd3 1_555 1_555
O18_2 Cd3 1_555 1_555
Cd1A O10 1_555 1_555
Cd2A O14 1_555 1_555
Cd2_2 O17 1_555 1_555
Cd3_2 O12 1_555 1_555
Cd3A O14 1_555 1_555
Cd3_3 O17 1_555 1_555
Cd4A O6 1_555 1_555
Cd4A_2 O9 1_555 1_555
O3 C10 1_555 1_555
O8 C19 1_555 1_555
O16 Cd3A 1_555 1_555
O18 Cd3_3 1_555 1_555
C1 C10 1_555 1_555
C3 C9 1_555 1_555
C4 C5 1_555 1_555
C11 C19 1_555 1_555
C13 C20 1_555 1_555
C14 C15 1_555 1_555
C21 C29 1_555 1_555
C23 C30 1_555 1_555
C24 C25 1_555 1_555
C31 C39 1_555 1_555
C34 C35 1_555 1_555
O17_2 Cd3_2 1_555 1_555

#END
