
#######################################################################
#
#                 Cambridge Crystallographic Data Centre
#                                CCDC 
#
#######################################################################
#
# If this CIF has been generated from an entry in the Cambridge 
# Structural Database, then it will include bibliographic, chemical, 
# crystal, experimental, refinement or atomic coordinate data resulting 
# from the CCDC's data processing and validation procedures.
#
#######################################################################

data_JITSOV
_symmetry_cell_setting           triclinic
_symmetry_space_group_name_H-M   'P -1'
_symmetry_Int_Tables_number      2
_space_group_name_Hall           '-P 1'
loop_
_symmetry_equiv_pos_site_id
_symmetry_equiv_pos_as_xyz
1 x,y,z
2 -x,-y,-z
_cell_length_a                   9.2722(19)
_cell_length_b                   11.852(2)
_cell_length_c                   12.300(3)
_cell_angle_alpha                68.840(3)
_cell_angle_beta                 72.122(3)
_cell_angle_gamma                89.817(3)
_cell_volume                     1190.84
loop_
_atom_site_label
_atom_site_type_symbol
_atom_site_fract_x
_atom_site_fract_y
_atom_site_fract_z
Zn1 Zn 1.0000 0.5000 0.5000
C1 C 0.6273(4) 0.9074(3) 0.6129(3)
C2 C 0.6007(4) 0.9494(3) 0.7078(3)
C3 C 0.4522(5) 0.9314(4) 0.7897(4)
H1 H 0.4340 0.9592 0.8538
C4 C 0.3317(4) 0.8735(4) 0.7785(4)
C5 C 0.3630(4) 0.8338(4) 0.6816(4)
H2 H 0.2835 0.7949 0.6719
C6 C 0.5091(4) 0.8500(3) 0.5983(3)
C7 C 0.1675(5) 0.8580(5) 0.8662(5)
C8 C 0.1665(7) 0.8432(7) 0.9942(5)
H3 H 0.0630 0.8309 1.0480
H4 H 0.2189 0.9152 0.9899
H5 H 0.2171 0.7740 1.0258
C9 C 0.0983(6) 0.9763(7) 0.8162(6)
H6 H 0.1044 0.9924 0.7325
H7 H 0.1540 1.0428 0.8189
H8 H -0.0067 0.9674 0.8660
C10 C 0.0709(9) 0.7546(9) 0.8726(10)
H9 H -0.0264 0.7422 0.9352
H10 H 0.1202 0.6821 0.8925
H11 H 0.0565 0.7726 0.7943
C11 C 0.5382(4) 0.8081(4) 0.4918(4)
H12 H 0.4418 0.7926 0.4812
H13 H 0.6013 0.8725 0.4167
C12 C 0.6415(5) 0.5149(4) 0.5842(4)
H14 H 0.6207 0.4310 0.6271
C13 C 0.7600(4) 0.6847(4) 0.4729(4)
H15 H 0.8366 0.7487 0.4203
C14 C 0.8212(4) 1.2265(4) 0.6554(4)
H16 H 0.7889 1.2362 0.7306
C15 C 0.9164(5) 1.2571(4) 0.4693(4)
H17 H 0.9658 1.2961 0.3848
C16 C 0.7284(5) 1.0024(4) 0.7324(4)
H18 H 0.6893 1.0068 0.8133
H19 H 0.8061 0.9474 0.7346
N1 N 0.6142(3) 0.6976(3) 0.5118(3)
N2 N 0.5347(4) 0.5870(3) 0.5843(3)
N3 N 0.7834(3) 0.5712(3) 0.5175(3)
N4 N 0.8945(4) 1.3148(3) 0.5481(3)
N5 N 0.8002(3) 1.1239(3) 0.6419(3)
N6 N 0.8624(4) 1.1414(3) 0.5213(3)
O1 O 0.7710(3) 0.9170(3) 0.5306(3)
H25 H 0.8179 0.9833 0.5122
O2 O 1.0320(3) 0.5450(3) 0.3129(2)
H26 H 1.1166 0.5075 0.2783
H27 H 0.9413 0.5160 0.3040
Zn1_2 Zn 1.0000 1.5000 0.5000
Zn1_3 Zn 1.0000 -0.5000 0.5000
C1A C 1.3727(4) 0.0926(3) 0.3871(3)
C2A C 1.3993(4) 0.0506(3) 0.2922(3)
C3A C 1.5478(5) 0.0686(4) 0.2103(4)
H1A H 1.5660 0.0408 0.1462
C4A C 1.6683(4) 0.1265(4) 0.2215(4)
C5A C 1.6370(4) 0.1662(4) 0.3184(4)
H2A H 1.7165 0.2051 0.3281
C6A C 1.4909(4) 0.1500(3) 0.4017(3)
C7A C 1.8325(5) 0.1420(5) 0.1338(5)
C8A C 1.8335(7) 0.1568(7) 0.0058(5)
H3A H 1.9370 0.1691 -0.0480
H4A H 1.7811 0.0848 0.0101
H5A H 1.7829 0.2260 -0.0258
C9A C 1.9017(6) 0.0237(7) 0.1838(6)
H6A H 1.8956 0.0076 0.2675
H7A H 1.8460 -0.0428 0.1811
H8A H 2.0067 0.0326 0.1340
C10A C 1.9291(9) 0.2454(9) 0.1274(10)
H9A H 2.0264 0.2578 0.0648
H10A H 1.8798 0.3179 0.1075
H11A H 1.9435 0.2274 0.2057
C11A C 1.4618(4) 0.1919(4) 0.5082(4)
H12A H 1.5582 0.2074 0.5188
H13A H 1.3987 0.1275 0.5833
C12A C 1.3585(5) 0.4851(4) 0.4158(4)
H14A H 1.3793 0.5690 0.3729
C13A C 1.2400(4) 0.3153(4) 0.5271(4)
H15A H 1.1634 0.2513 0.5797
C14A C 1.1788(4) -0.2265(4) 0.3446(4)
H16A H 1.2111 -0.2362 0.2694
C15A C 1.0836(5) -0.2571(4) 0.5307(4)
H17A H 1.0342 -0.2961 0.6152
C16A C 1.2716(5) -0.0024(4) 0.2676(4)
H18A H 1.3107 -0.0068 0.1867
H19A H 1.1939 0.0526 0.2654
N1A N 1.3858(3) 0.3024(3) 0.4882(3)
N2A N 1.4653(4) 0.4130(3) 0.4157(3)
N3A N 1.2166(3) 0.4288(3) 0.4825(3)
N4A N 1.1055(4) -0.3148(3) 0.4519(3)
N4_2 N 0.8945(4) 0.3148(3) 0.5481(3)
N4A_2 N 1.1055(4) 0.6852(3) 0.4519(3)
N5A N 1.1998(3) -0.1239(3) 0.3581(3)
N6A N 1.1376(4) -0.1414(3) 0.4787(3)
O1A O 1.2290(3) 0.0830(3) 0.4694(3)
H25A H 1.1821 0.0167 0.4878
O2A O 0.9680(3) 0.4550(3) 0.6871(2)
H26A H 0.8834 0.4925 0.7217
H27A H 1.0587 0.4840 0.6960
C17 C 0.2839(14) 0.4516(10) 0.0971(10)
H20 H 0.1833 0.4363 0.0933
H21 H 0.3568 0.4780 0.0143
C18 C 0.3199(16) 0.3529(10) 0.1685(9)
H22 H 0.4213 0.3680 0.1691
H23 H 0.3159 0.2891 0.1385
H24 H 0.2491 0.3288 0.2508
O7 O 0.2854(6) 0.5453(6) 0.1470(5)
H28 H 0.3665 0.5900 0.1100
Cl1 Cl 0.40177(16) 0.22745(12) 0.87485(12)
O3 O 0.4624(18) 0.2263(13) 0.7596(11)
O4 O 0.362(3) 0.3282(17) 0.8893(19)
O5 O 0.314(2) 0.1344(12) 0.9737(10)
O6 O 0.5432(12) 0.210(3) 0.8862(17)
O8 O 0.7850(4) 0.4971(4) 0.2557(3)
H29 H 0.8622 0.5118 0.2741
H30 H 0.8099 0.5183 0.1779
O9? O 0.2538(15) 0.216(3) 0.898(4)
O10? O 0.436(6) 0.117(2) 0.952(2)
O11? O 0.433(4) 0.3386(19) 0.8789(19)
O12? O 0.384(6) 0.238(2) 0.769(2)
loop_
_geom_bond_atom_site_label_1
_geom_bond_atom_site_label_2
_geom_bond_site_symmetry_1
_geom_bond_site_symmetry_2
Zn1 N3 1_555 1_555
C1 C2 1_555 1_555
C2 C3 1_555 1_555
C3 H1 1_555 1_555
C4 C3 1_555 1_555
C5 C4 1_555 1_555
H2 C5 1_555 1_555
C6 C1 1_555 1_555
C7 C4 1_555 1_555
C8 C7 1_555 1_555
H3 C8 1_555 1_555
H4 C8 1_555 1_555
H5 C8 1_555 1_555
C9 C7 1_555 1_555
H6 C9 1_555 1_555
H7 C9 1_555 1_555
H8 C9 1_555 1_555
C10 C7 1_555 1_555
H9 C10 1_555 1_555
H10 C10 1_555 1_555
H11 C10 1_555 1_555
C11 C6 1_555 1_555
H12 C11 1_555 1_555
H13 C11 1_555 1_555
C12 H14 1_555 1_555
C13 H15 1_555 1_555
C14 H16 1_555 1_555
C15 H17 1_555 1_555
C16 C2 1_555 1_555
H18 C16 1_555 1_555
H19 C16 1_555 1_555
C17 H20 1_555 1_555
H21 C17 1_555 1_555
C18 C17 1_555 1_555
H22 C18 1_555 1_555
H23 C18 1_555 1_555
H24 C18 1_555 1_555
Cl1 O3 1_555 1_555
N1 C11 1_555 1_555
N2 C12 1_555 1_555
N3 C12 1_555 1_555
N4 C14 1_555 1_555
N5 C14 1_555 1_555
N6 C15 1_555 1_555
O1 C1 1_555 1_555
H25 O1 1_555 1_555
O2 Zn1 1_555 1_555
H26 O2 1_555 1_555
H27 O2 1_555 1_555
O4 Cl1 1_555 1_555
O5 Cl1 1_555 1_555
O6 Cl1 1_555 1_555
O7 C17 1_555 1_555
H28 O7 1_555 1_555
O8 H29 1_555 1_555
H30 O8 1_555 1_555
Zn1_2 N4 1_555 1_555
Zn1_3 N4A 1_555 1_555
C1A C2A 1_555 1_555
C2A C3A 1_555 1_555
C3A H1A 1_555 1_555
C4A C3A 1_555 1_555
C5A C4A 1_555 1_555
H2A C5A 1_555 1_555
C6A C1A 1_555 1_555
C7A C4A 1_555 1_555
C8A C7A 1_555 1_555
H3A C8A 1_555 1_555
H4A C8A 1_555 1_555
H5A C8A 1_555 1_555
C9A C7A 1_555 1_555
H6A C9A 1_555 1_555
H7A C9A 1_555 1_555
H8A C9A 1_555 1_555
C10A C7A 1_555 1_555
H9A C10A 1_555 1_555
H10A C10A 1_555 1_555
H11A C10A 1_555 1_555
C11A C6A 1_555 1_555
H12A C11A 1_555 1_555
H13A C11A 1_555 1_555
C12A H14A 1_555 1_555
C13A H15A 1_555 1_555
C14A H16A 1_555 1_555
C15A H17A 1_555 1_555
C16A C2A 1_555 1_555
H18A C16A 1_555 1_555
H19A C16A 1_555 1_555
N1A C11A 1_555 1_555
N2A C12A 1_555 1_555
N3A Zn1 1_555 1_555
N4A C14A 1_555 1_555
N4_2 Zn1 1_555 1_555
N4A_2 Zn1 1_555 1_555
N5A C14A 1_555 1_555
N6A C15A 1_555 1_555
O1A C1A 1_555 1_555
H25A O1A 1_555 1_555
O2A Zn1 1_555 1_555
H26A O2A 1_555 1_555
H27A O2A 1_555 1_555
C5 C6 1_555 1_555
C13 N1 1_555 1_555
C13 N3 1_555 1_555
C15 N4 1_555 1_555
C16 N5 1_555 1_555
N1 N2 1_555 1_555
N5 N6 1_555 1_555
C5A C6A 1_555 1_555
C12A N3A 1_555 1_555
C13A N1A 1_555 1_555
C13A N3A 1_555 1_555
C15A N4A 1_555 1_555
C16A N5A 1_555 1_555
N1A N2A 1_555 1_555
N5A N6A 1_555 1_555

#END
