
#######################################################################
#
#                 Cambridge Crystallographic Data Centre
#                                CCDC 
#
#######################################################################
#
# If this CIF has been generated from an entry in the Cambridge 
# Structural Database, then it will include bibliographic, chemical, 
# crystal, experimental, refinement or atomic coordinate data resulting 
# from the CCDC's data processing and validation procedures.
#
#######################################################################

data_JITSUB
_symmetry_cell_setting           monoclinic
_symmetry_space_group_name_H-M   'P 21/n'
_symmetry_Int_Tables_number      14
_space_group_name_Hall           '-P 2yn'
loop_
_symmetry_equiv_pos_site_id
_symmetry_equiv_pos_as_xyz
1 x,y,z
2 1/2-x,1/2+y,1/2-z
3 -x,-y,-z
4 1/2+x,1/2-y,1/2+z
_cell_length_a                   11.853(4)
_cell_length_b                   9.396(3)
_cell_length_c                   18.781(6)
_cell_angle_alpha                90
_cell_angle_beta                 108.394(4)
_cell_angle_gamma                90
_cell_volume                     1984.79
loop_
_atom_site_label
_atom_site_type_symbol
_atom_site_fract_x
_atom_site_fract_y
_atom_site_fract_z
Fe1 Fe 0.5000 0.5000 0.0000
C1 C 0.0882(4) 0.1602(4) 0.0700(2)
C2 C 0.0350(4) 0.1652(4) 0.1257(2)
C3 C 0.0408(4) 0.0445(5) 0.1699(2)
H1 H 0.0049 0.0476 0.2074
C4 C 0.0971(4) -0.0790(4) 0.1607(2)
C5 C 0.1499(4) -0.0782(4) 0.1048(3)
H2 H 0.1894 -0.1597 0.0975
C6 C 0.1467(4) 0.0385(4) 0.0593(2)
C7 C 0.0998(4) -0.2090(5) 0.2101(3)
C8 C 0.1457(5) -0.1672(6) 0.2931(3)
H3 H 0.2230 -0.1247 0.3041
H4 H 0.1508 -0.2505 0.3236
H5 H 0.0919 -0.1001 0.3037
C9 C -0.0267(5) -0.2726(6) 0.1902(4)
H6 H -0.0797 -0.2030 0.1995
H7 H -0.0252 -0.3552 0.2206
H8 H -0.0538 -0.2990 0.1382
C10 C 0.1809(6) -0.3260(6) 0.1979(3)
H9 H 0.1482 -0.3638 0.1481
H10 H 0.1873 -0.4006 0.2339
H11 H 0.2583 -0.2872 0.2039
C11 C 0.2011(4) 0.0312(4) -0.0033(3)
H12 H 0.2199 -0.0670 -0.0108
H13 H 0.1436 0.0646 -0.0495
C12 C 0.3250(5) 0.2423(5) -0.0141(3)
H14 H 0.2666 0.2909 -0.0510
C13 C 0.4828(4) 0.1817(5) 0.0653(3)
H15 H 0.5617 0.1829 0.0958
C14 C -0.2413(4) 0.4274(5) -0.0129(3)
H16 H -0.2689 0.4619 -0.0618
C15 C -0.2369(4) 0.3659(5) 0.0945(3)
H17 H -0.2571 0.3470 0.1375
C16 C -0.0182(4) 0.3006(5) 0.1449(3)
H18 H -0.0332 0.2869 0.1923
H19 H 0.0398 0.3764 0.1519
N1 N 0.4340(3) 0.2898(4) 0.0178(2)
N2 N 0.3095(3) 0.1174(4) 0.0129(2)
N3 N 0.4123(4) 0.0771(4) 0.0654(3)
N4 N -0.3115(3) 0.4159(4) 0.0312(2)
N5 N -0.1306(4) 0.3859(4) 0.0189(2)
N6 N -0.1296(3) 0.3464(4) 0.0883(2)
O1 O 0.0910(3) 0.2749(3) 0.02495(19)
H20 H 0.0298 0.3214 0.0173
O2 O 0.5203(3) 0.5595(4) 0.10940(18)
H21 H 0.4610 0.5796 0.1238
H22 H 0.5857 0.5964 0.1282
Fe1_2 Fe -0.5000 0.5000 0.0000
Fe1_3 Fe 1.5000 0.5000 0.0000
C1B C 0.9118(4) 0.8398(4) -0.0700(2)
C2B C 0.9650(4) 0.8348(4) -0.1257(2)
C3B C 0.9592(4) 0.9555(5) -0.1699(2)
H1B H 0.9951 0.9524 -0.2074
C4B C 0.9029(4) 1.0790(4) -0.1607(2)
C5B C 0.8501(4) 1.0782(4) -0.1048(3)
H2B H 0.8106 1.1597 -0.0975
C6B C 0.8533(4) 0.9615(4) -0.0593(2)
C7B C 0.9002(4) 1.2090(5) -0.2101(3)
C8B C 0.8543(5) 1.1672(6) -0.2931(3)
H3B H 0.7770 1.1247 -0.3041
H4B H 0.8492 1.2505 -0.3236
H5B H 0.9081 1.1001 -0.3037
C9B C 1.0267(5) 1.2726(6) -0.1902(4)
H6B H 1.0797 1.2030 -0.1995
H7B H 1.0252 1.3552 -0.2206
H8B H 1.0538 1.2990 -0.1382
C10B C 0.8191(6) 1.3260(6) -0.1979(3)
H9B H 0.8518 1.3638 -0.1481
H10B H 0.8127 1.4006 -0.2339
H11B H 0.7417 1.2872 -0.2039
C11B C 0.7989(4) 0.9688(4) 0.0033(3)
H12B H 0.7801 1.0670 0.0108
H13B H 0.8564 0.9354 0.0495
C12B C 0.6750(5) 0.7577(5) 0.0141(3)
H14B H 0.7334 0.7091 0.0510
C13B C 0.5172(4) 0.8183(5) -0.0653(3)
H15B H 0.4383 0.8171 -0.0958
C14B C 1.2413(4) 0.5726(5) 0.0129(3)
H16B H 1.2689 0.5381 0.0618
C15B C 1.2369(4) 0.6341(5) -0.0945(3)
H17B H 1.2571 0.6530 -0.1375
C16B C 1.0182(4) 0.6994(5) -0.1449(3)
H18B H 1.0332 0.7131 -0.1923
H19B H 0.9602 0.6236 -0.1519
N1B N 0.5660(3) 0.7102(4) -0.0178(2)
N2B N 0.6905(3) 0.8826(4) -0.0129(2)
N3B N 0.5877(4) 0.9229(4) -0.0654(3)
N4B N 1.3115(3) 0.5841(4) -0.0312(2)
N4_2 N 0.6885(3) 0.4159(4) 0.0312(2)
N4B_2 N 0.3115(3) 0.5841(4) -0.0312(2)
N5B N 1.1306(4) 0.6141(4) -0.0189(2)
N6B N 1.1296(3) 0.6536(4) -0.0883(2)
O1B O 0.9090(3) 0.7251(3) -0.02495(19)
H20B H 0.9702 0.6786 -0.0173
O2B O 0.4797(3) 0.4405(4) -0.10940(18)
H21B H 0.5390 0.4204 -0.1238
H22B H 0.4143 0.4036 -0.1282
N7 N 0.7390(6) 0.5235(7) 0.2828(4)
O3 O 0.7214(13) 0.4503(8) 0.2376(5)
O4 O 0.6939(8) 0.6458(10) 0.2663(5)
O5 O 0.7838(6) 0.5108(8) 0.3492(3)
O6 O 0.4907(5) 0.8236(4) 0.1567(3)
H23 H 0.4327 0.8723 0.1294
H24 H 0.5502 0.8727 0.1553
loop_
_geom_bond_atom_site_label_1
_geom_bond_atom_site_label_2
_geom_bond_site_symmetry_1
_geom_bond_site_symmetry_2
Fe1 N1 1_555 1_555
C1 C2 1_555 1_555
C2 C3 1_555 1_555
C3 H1 1_555 1_555
C4 C3 1_555 1_555
C5 C4 1_555 1_555
H2 C5 1_555 1_555
C6 C1 1_555 1_555
C7 C4 1_555 1_555
C8 C7 1_555 1_555
H3 C8 1_555 1_555
H4 C8 1_555 1_555
H5 C8 1_555 1_555
C9 C7 1_555 1_555
H6 C9 1_555 1_555
H7 C9 1_555 1_555
H8 C9 1_555 1_555
C10 C7 1_555 1_555
H9 C10 1_555 1_555
H10 C10 1_555 1_555
H11 C10 1_555 1_555
C11 C6 1_555 1_555
H12 C11 1_555 1_555
H13 C11 1_555 1_555
C12 H14 1_555 1_555
C13 H15 1_555 1_555
C14 H16 1_555 1_555
C15 H17 1_555 1_555
C16 C2 1_555 1_555
H18 C16 1_555 1_555
H19 C16 1_555 1_555
N1 C12 1_555 1_555
N2 C11 1_555 1_555
N3 C13 1_555 1_555
N4 C14 1_555 1_555
N5 C14 1_555 1_555
N6 C15 1_555 1_555
N7 O3 1_555 1_555
O1 C1 1_555 1_555
H20 O1 1_555 1_555
O2 Fe1 1_555 1_555
H21 O2 1_555 1_555
H22 O2 1_555 1_555
O4 N7 1_555 1_555
O5 N7 1_555 1_555
O6 H23 1_555 1_555
H24 O6 1_555 1_555
Fe1_2 N4 1_555 1_555
Fe1_3 N4B 1_555 1_555
C1B C2B 1_555 1_555
C2B C3B 1_555 1_555
C3B H1B 1_555 1_555
C4B C3B 1_555 1_555
C5B C4B 1_555 1_555
H2B C5B 1_555 1_555
C6B C1B 1_555 1_555
C7B C4B 1_555 1_555
C8B C7B 1_555 1_555
H3B C8B 1_555 1_555
H4B C8B 1_555 1_555
H5B C8B 1_555 1_555
C9B C7B 1_555 1_555
H6B C9B 1_555 1_555
H7B C9B 1_555 1_555
H8B C9B 1_555 1_555
C10B C7B 1_555 1_555
H9B C10B 1_555 1_555
H10B C10B 1_555 1_555
H11B C10B 1_555 1_555
C11B C6B 1_555 1_555
H12B C11B 1_555 1_555
H13B C11B 1_555 1_555
C12B H14B 1_555 1_555
C13B H15B 1_555 1_555
C14B H16B 1_555 1_555
C15B H17B 1_555 1_555
C16B C2B 1_555 1_555
H18B C16B 1_555 1_555
H19B C16B 1_555 1_555
N1B Fe1 1_555 1_555
N2B C11B 1_555 1_555
N3B C13B 1_555 1_555
N4B C14B 1_555 1_555
N4_2 Fe1 1_555 1_555
N4B_2 Fe1 1_555 1_555
N5B C14B 1_555 1_555
N6B C15B 1_555 1_555
O1B C1B 1_555 1_555
H20B O1B 1_555 1_555
O2B Fe1 1_555 1_555
H21B O2B 1_555 1_555
H22B O2B 1_555 1_555
C5 C6 1_555 1_555
C12 N2 1_555 1_555
C13 N1 1_555 1_555
C15 N4 1_555 1_555
C16 N6 1_555 1_555
N2 N3 1_555 1_555
N5 N6 1_555 1_555
C5B C6B 1_555 1_555
C12B N1B 1_555 1_555
C12B N2B 1_555 1_555
C13B N1B 1_555 1_555
C15B N4B 1_555 1_555
C16B N6B 1_555 1_555
N2B N3B 1_555 1_555
N5B N6B 1_555 1_555

#END
