
#######################################################################
#
#                 Cambridge Crystallographic Data Centre
#                                CCDC 
#
#######################################################################
#
# If this CIF has been generated from an entry in the Cambridge 
# Structural Database, then it will include bibliographic, chemical, 
# crystal, experimental, refinement or atomic coordinate data resulting 
# from the CCDC's data processing and validation procedures.
#
#######################################################################

data_JITTEM
_symmetry_cell_setting           monoclinic
_symmetry_space_group_name_H-M   'P 21/n'
_symmetry_Int_Tables_number      14
_space_group_name_Hall           '-P 2yn'
loop_
_symmetry_equiv_pos_site_id
_symmetry_equiv_pos_as_xyz
1 x,y,z
2 1/2-x,1/2+y,1/2-z
3 -x,-y,-z
4 1/2+x,1/2-y,1/2+z
_cell_length_a                   12.363(3)
_cell_length_b                   10.249(2)
_cell_length_c                   19.897(4)
_cell_angle_alpha                90
_cell_angle_beta                 101.34(3)
_cell_angle_gamma                90
_cell_volume                     2471.9
loop_
_atom_site_label
_atom_site_type_symbol
_atom_site_fract_x
_atom_site_fract_y
_atom_site_fract_z
Cu1 Cu 1.0000 0.0000 0.0000
C1 C 1.0716(2) 0.3603(3) 0.30862(14)
C2 C 1.0206(2) 0.4096(3) 0.24541(14)
C3 C 0.9161(2) 0.4664(3) 0.23813(14)
H1 H 0.8821 0.4978 0.1953
C4 C 0.8613(2) 0.4776(3) 0.29237(15)
C5 C 0.9157(2) 0.4281(3) 0.35528(14)
H2 H 0.8814 0.4348 0.3928
C6 C 1.0181(2) 0.3694(3) 0.36450(13)
C7 C 0.7482(3) 0.5427(4) 0.28618(17)
C8 C 0.7036(3) 0.5917(5) 0.2132(2)
H3 H 0.6918 0.5189 0.1823
H4 H 0.7561 0.6503 0.1997
H5 H 0.6352 0.6367 0.2120
C9 C 0.7580(4) 0.6594(5) 0.3351(2)
H6 H 0.8073 0.7227 0.3222
H7 H 0.7861 0.6304 0.3811
H8 H 0.6866 0.6980 0.3326
C10 C 0.6652(3) 0.4443(5) 0.3053(2)
H9 H 0.5974 0.4883 0.3074
H10 H 0.6950 0.4066 0.3492
H11 H 0.6514 0.3767 0.2713
C11 C 1.0779(3) 0.4101(3) 0.18457(15)
H12 H 1.0418 0.4728 0.1510
H13 H 1.1538 0.4379 0.1998
C12 C 1.0220(2) 0.2409(3) 0.09155(14)
H14 H 0.9739 0.2916 0.0603
C13 C 1.1185(3) 0.0869(3) 0.14084(15)
H15 H 1.1504 0.0048 0.1492
C14 C 1.2618(2) 0.5594(3) 0.50174(15)
H16 H 1.2808 0.6429 0.5182
C15 C 1.2767(2) 0.3643(3) 0.47002(13)
H17 H 1.3037 0.2840 0.4591
C16 C 1.0735(2) 0.3173(3) 0.43363(14)
H18 H 1.0956 0.2276 0.4288
H19 H 1.0215 0.3184 0.4643
N1 N 1.07675(19) 0.2818(3) 0.15191(11)
N2 N 1.1394(2) 0.1839(3) 0.18413(12)
N3 N 1.04560(19) 0.1178(3) 0.08240(11)
N4 N 1.33810(18) 0.4667(2) 0.49457(11)
N5 N 1.1598(2) 0.5202(3) 0.48331(14)
N6 N 1.17091(18) 0.3951(2) 0.46358(11)
O1 O 1.17445(17) 0.3051(3) 0.32201(11)
H27 H 1.1873 0.2720 0.2869
O2 O 1.0039(2) -0.1931(3) 0.07749(13)
H28 H 0.9469 -0.2406 0.0660
H29 H 1.0151 -0.1725 0.1197
Cu1C Cu 1.5000 0.5000 0.5000
Cu1C_2 Cu 0.5000 -0.5000 -0.5000
C1B C 0.9284(2) -0.3603(3) -0.30862(14)
C2B C 0.9794(2) -0.4096(3) -0.24541(14)
C3B C 1.0839(2) -0.4664(3) -0.23813(14)
H1B H 1.1179 -0.4978 -0.1953
C4B C 1.1387(2) -0.4776(3) -0.29237(15)
C5B C 1.0843(2) -0.4281(3) -0.35528(14)
H2B H 1.1186 -0.4348 -0.3928
C6B C 0.9819(2) -0.3694(3) -0.36450(13)
C7B C 1.2518(3) -0.5427(4) -0.28618(17)
C8B C 1.2964(3) -0.5917(5) -0.2132(2)
H3B H 1.3082 -0.5189 -0.1823
H4B H 1.2439 -0.6503 -0.1997
H5B H 1.3648 -0.6367 -0.2120
C9B C 1.2420(4) -0.6594(5) -0.3351(2)
H6B H 1.1927 -0.7227 -0.3222
H7B H 1.2139 -0.6304 -0.3811
H8B H 1.3134 -0.6980 -0.3326
C10B C 1.3348(3) -0.4443(5) -0.3053(2)
H9B H 1.4026 -0.4883 -0.3074
H10B H 1.3050 -0.4066 -0.3492
H11B H 1.3486 -0.3767 -0.2713
C11B C 0.9221(3) -0.4101(3) -0.18457(15)
H12B H 0.9582 -0.4728 -0.1510
H13B H 0.8462 -0.4379 -0.1998
C12B C 0.9780(2) -0.2409(3) -0.09155(14)
H14B H 1.0261 -0.2916 -0.0603
C13B C 0.8815(3) -0.0869(3) -0.14084(15)
H15B H 0.8496 -0.0048 -0.1492
C14B C 0.7382(2) -0.5594(3) -0.50174(15)
H16B H 0.7192 -0.6429 -0.5182
C15B C 0.7233(2) -0.3643(3) -0.47002(13)
H17B H 0.6963 -0.2840 -0.4591
C16B C 0.9265(2) -0.3173(3) -0.43363(14)
H18B H 0.9044 -0.2276 -0.4288
H19B H 0.9785 -0.3184 -0.4643
N1B N 0.92325(19) -0.2818(3) -0.15191(11)
N2B N 0.8606(2) -0.1839(3) -0.18413(12)
N3B N 0.95440(19) -0.1178(3) -0.08240(11)
N4B N 0.66190(18) -0.4667(2) -0.49457(11)
N4C N 0.83810(18) 0.0333(2) -0.00543(11)
N4A N 1.16190(18) -0.0333(2) 0.00543(11)
N5B N 0.8402(2) -0.5202(3) -0.48331(14)
N6B N 0.82909(18) -0.3951(2) -0.46358(11)
O1B O 0.82555(17) -0.3051(3) -0.32201(11)
H27B H 0.8127 -0.2720 -0.2869
O2B O 0.9961(2) 0.1931(3) -0.07749(13)
H28B H 1.0531 0.2406 -0.0660
H29B H 0.9849 0.1725 -0.1197
C17 C 0.0450(5) 0.7895(7) 0.3879(3)
H20 H 0.0344 0.6968 0.3835
H21 H -0.0228 0.8301 0.3932
H22 H 0.1013 0.8079 0.4274
C18 C 0.1046(4) 0.9759(4) 0.3274(2)
H23 H 0.1658 0.9937 0.3641
H24 H 0.0419 1.0261 0.3338
H25 H 0.1239 0.9992 0.2845
C19 C 0.0833(4) 0.7671(5) 0.2730(3)
H26 H 0.0655 0.6793 0.2755
N7 N 0.0783(3) 0.8401(4) 0.32701(17)
O7 O 0.1093(3) 0.8050(4) 0.21973(19)
Cl1 Cl 0.80160(12) 0.52345(13) 0.01626(7)
O3 O 0.8016(6) 0.6248(8) -0.0321(4)
O4 O 0.8933(8) 0.5502(11) 0.0673(4)
O5 O 0.8423(9) 0.4477(9) -0.0374(4)
O6 O 0.7238(17) 0.4522(15) 0.0155(7)
O8? O 0.809(3) 0.6260(15) 0.0574(15)
O9? O 0.6914(16) 0.587(3) 0.0293(10)
O10? O 0.8053(15) 0.4180(13) 0.0655(7)
loop_
_geom_bond_atom_site_label_1
_geom_bond_atom_site_label_2
_geom_bond_site_symmetry_1
_geom_bond_site_symmetry_2
Cu1 N3 1_555 1_555
C1 C2 1_555 1_555
C2 C3 1_555 1_555
C3 H1 1_555 1_555
C4 C3 1_555 1_555
C5 C4 1_555 1_555
H2 C5 1_555 1_555
C6 C1 1_555 1_555
C7 C4 1_555 1_555
C8 C7 1_555 1_555
H3 C8 1_555 1_555
H4 C8 1_555 1_555
H5 C8 1_555 1_555
C9 C7 1_555 1_555
H6 C9 1_555 1_555
H7 C9 1_555 1_555
H8 C9 1_555 1_555
C10 C7 1_555 1_555
H9 C10 1_555 1_555
H10 C10 1_555 1_555
H11 C10 1_555 1_555
C11 C2 1_555 1_555
H12 C11 1_555 1_555
H13 C11 1_555 1_555
C12 H14 1_555 1_555
C13 H15 1_555 1_555
C14 H16 1_555 1_555
C15 H17 1_555 1_555
C16 C6 1_555 1_555
H18 C16 1_555 1_555
H19 C16 1_555 1_555
C17 H20 1_555 1_555
H21 C17 1_555 1_555
H22 C17 1_555 1_555
C18 H23 1_555 1_555
H24 C18 1_555 1_555
H25 C18 1_555 1_555
C19 H26 1_555 1_555
Cl1 O3 1_555 1_555
N1 C11 1_555 1_555
N2 C13 1_555 1_555
N3 C12 1_555 1_555
N4 C14 1_555 1_555
N5 C14 1_555 1_555
N6 C15 1_555 1_555
N7 C17 1_555 1_555
O1 C1 1_555 1_555
H27 O1 1_555 1_555
O2 Cu1 1_555 1_555
H28 O2 1_555 1_555
H29 O2 1_555 1_555
O4 Cl1 1_555 1_555
O5 Cl1 1_555 1_555
O6 Cl1 1_555 1_555
O7 C19 1_555 1_555
Cu1C N4 1_555 1_555
Cu1C_2 N4B 1_555 1_555
C1B C2B 1_555 1_555
C2B C3B 1_555 1_555
C3B H1B 1_555 1_555
C4B C3B 1_555 1_555
C5B C4B 1_555 1_555
H2B C5B 1_555 1_555
C6B C1B 1_555 1_555
C7B C4B 1_555 1_555
C8B C7B 1_555 1_555
H3B C8B 1_555 1_555
H4B C8B 1_555 1_555
H5B C8B 1_555 1_555
C9B C7B 1_555 1_555
H6B C9B 1_555 1_555
H7B C9B 1_555 1_555
H8B C9B 1_555 1_555
C10B C7B 1_555 1_555
H9B C10B 1_555 1_555
H10B C10B 1_555 1_555
H11B C10B 1_555 1_555
C11B C2B 1_555 1_555
H12B C11B 1_555 1_555
H13B C11B 1_555 1_555
C12B H14B 1_555 1_555
C13B H15B 1_555 1_555
C14B H16B 1_555 1_555
C15B H17B 1_555 1_555
C16B C6B 1_555 1_555
H18B C16B 1_555 1_555
H19B C16B 1_555 1_555
N1B C11B 1_555 1_555
N2B C13B 1_555 1_555
N3B Cu1 1_555 1_555
N4B C14B 1_555 1_555
N4C Cu1 1_555 1_555
N4A Cu1 1_555 1_555
N5B C14B 1_555 1_555
N6B C15B 1_555 1_555
O1B C1B 1_555 1_555
H27B O1B 1_555 1_555
O2B Cu1 1_555 1_555
H28B O2B 1_555 1_555
H29B O2B 1_555 1_555
C5 C6 1_555 1_555
C12 N1 1_555 1_555
C13 N3 1_555 1_555
C15 N4 1_555 1_555
C16 N6 1_555 1_555
C18 N7 1_555 1_555
C19 N7 1_555 1_555
N1 N2 1_555 1_555
N5 N6 1_555 1_555
C5B C6B 1_555 1_555
C12B N1B 1_555 1_555
C12B N3B 1_555 1_555
C13B N3B 1_555 1_555
C15B N4B 1_555 1_555
C16B N6B 1_555 1_555
N1B N2B 1_555 1_555
N5B N6B 1_555 1_555

#END
