
#######################################################################
#
#                 Cambridge Crystallographic Data Centre
#                                CCDC 
#
#######################################################################
#
# If this CIF has been generated from an entry in the Cambridge 
# Structural Database, then it will include bibliographic, chemical, 
# crystal, experimental, refinement or atomic coordinate data resulting 
# from the CCDC's data processing and validation procedures.
#
#######################################################################

data_JITTUC
_symmetry_cell_setting           monoclinic
_symmetry_space_group_name_H-M   'P 21/n'
_symmetry_Int_Tables_number      14
_space_group_name_Hall           '-P 2yn'
loop_
_symmetry_equiv_pos_site_id
_symmetry_equiv_pos_as_xyz
1 x,y,z
2 1/2-x,1/2+y,1/2-z
3 -x,-y,-z
4 1/2+x,1/2-y,1/2+z
_cell_length_a                   9.466(2)
_cell_length_b                   13.063(3)
_cell_length_c                   14.989(4)
_cell_angle_alpha                90
_cell_angle_beta                 105.976(6)
_cell_angle_gamma                90
_cell_volume                     1781.87
loop_
_atom_site_label
_atom_site_type_symbol
_atom_site_fract_x
_atom_site_fract_y
_atom_site_fract_z
Mn1 Mn 0.5000 0.5000 0.0000
C1 C 0.9126(4) 0.9930(3) 0.1101(2)
C2 C 0.8730(4) 0.9080(3) 0.0535(2)
C3 C 0.7763(4) 0.9190(3) -0.0332(2)
H1 H 0.7520 0.8615 -0.0710
C4 C 0.7137(4) 1.0120(3) -0.0667(2)
C5 C 0.7558(4) 1.0949(3) -0.0073(2)
H2 H 0.7154 1.1586 -0.0272
C6 C 0.8539(4) 1.0881(3) 0.0797(2)
C7 C 0.6015(4) 1.0262(3) -0.1601(2)
C8 C 0.6396(4) 1.1179(3) -0.2117(2)
H3 H 0.6412 1.1787 -0.1754
H4 H 0.5672 1.1251 -0.2704
H5 H 0.7345 1.1077 -0.2217
C9 C 0.4509(5) 1.0421(4) -0.1454(3)
H6 H 0.4239 0.9825 -0.1164
H7 H 0.3802 1.0532 -0.2042
H8 H 0.4533 1.1006 -0.1063
C10 C 0.5953(5) 0.9325(3) -0.2232(2)
H9 H 0.6914 0.9193 -0.2303
H10 H 0.5283 0.9458 -0.2830
H11 H 0.5623 0.8739 -0.1959
C11 C 0.9420(4) 0.8076(2) 0.0911(2)
H12 H 1.0402 0.8047 0.0832
H13 H 0.9510 0.8049 0.1571
C12 C 0.7462(4) 0.6743(3) 0.0648(2)
H14 H 0.7043 0.6954 0.1111
C13 C 0.7933(5) 0.5982(3) -0.0438(3)
H15 H 0.7875 0.5513 -0.0913
C14 C 0.7554(4) 1.3373(3) 0.0810(2)
H16 H 0.8062 1.3586 0.0393
C15 C 0.6088(5) 1.3251(3) 0.1597(3)
H17 H 0.5300 1.3388 0.1836
C16 C 0.9055(4) 1.1818(2) 0.1397(2)
H18 H 0.9446 1.1603 0.2037
H19 H 0.9846 1.2142 0.1204
Cl1 Cl 0.44139(12) 0.59978(7) 0.12949(6)
N1 N 0.8602(4) 0.7185(2) 0.04695(19)
N2 N 0.8939(4) 0.6700(2) -0.0238(2)
N3 N 0.6991(3) 0.5967(2) 0.0089(2)
N4 N 0.6394(4) 1.3846(2) 0.09407(18)
N5 N 0.7896(3) 1.2564(2) 0.13443(19)
N6 N 0.6962(4) 1.2472(2) 0.1879(2)
O1 O 1.0127(3) 0.97539(18) 0.19355(18)
H20 H 1.015(4) 1.016(2) 0.237(2)
Mn1_2 Mn 0.5000 1.5000 0.0000
Mn1_3 Mn 0.5000 -0.5000 0.0000
C1B C 0.0874(4) 0.0070(3) -0.1101(2)
C2B C 0.1270(4) 0.0920(3) -0.0535(2)
C3B C 0.2237(4) 0.0810(3) 0.0332(2)
H1B H 0.2480 0.1385 0.0710
C4B C 0.2863(4) -0.0120(3) 0.0667(2)
C5B C 0.2442(4) -0.0949(3) 0.0073(2)
H2B H 0.2846 -0.1586 0.0272
C6B C 0.1461(4) -0.0881(3) -0.0797(2)
C7B C 0.3985(4) -0.0262(3) 0.1601(2)
C8B C 0.3604(4) -0.1179(3) 0.2117(2)
H3B H 0.3588 -0.1787 0.1754
H4B H 0.4328 -0.1251 0.2704
H5B H 0.2655 -0.1077 0.2217
C9B C 0.5491(5) -0.0421(4) 0.1454(3)
H6B H 0.5761 0.0175 0.1164
H7B H 0.6198 -0.0532 0.2042
H8B H 0.5467 -0.1006 0.1063
C10B C 0.4047(5) 0.0675(3) 0.2232(2)
H9B H 0.3086 0.0807 0.2303
H10B H 0.4717 0.0542 0.2830
H11B H 0.4377 0.1261 0.1959
C11B C 0.0580(4) 0.1924(2) -0.0911(2)
H12B H -0.0402 0.1953 -0.0832
H13B H 0.0490 0.1951 -0.1571
C12B C 0.2538(4) 0.3257(3) -0.0648(2)
H14B H 0.2957 0.3046 -0.1111
C13B C 0.2067(5) 0.4018(3) 0.0438(3)
H15B H 0.2125 0.4487 0.0913
C14B C 0.2446(4) -0.3373(3) -0.0810(2)
H16B H 0.1938 -0.3586 -0.0393
C15B C 0.3912(5) -0.3251(3) -0.1597(3)
H17B H 0.4700 -0.3388 -0.1836
C16B C 0.0945(4) -0.1818(2) -0.1397(2)
H18B H 0.0554 -0.1603 -0.2037
H19B H 0.0154 -0.2142 -0.1204
Cl1B Cl 0.55861(12) 0.40022(7) -0.12949(6)
N1B N 0.1398(4) 0.2815(2) -0.04695(19)
N2B N 0.1061(4) 0.3300(2) 0.0238(2)
N3B N 0.3009(3) 0.4033(2) -0.0089(2)
N4B N 0.3606(4) -0.3846(2) -0.09407(18)
N4_2 N 0.6394(4) 0.3846(2) 0.09407(18)
N4B_2 N 0.3606(4) 0.6154(2) -0.09407(18)
N5B N 0.2104(3) -0.2564(2) -0.13443(19)
N6B N 0.3038(4) -0.2472(2) -0.1879(2)
O1B O -0.0127(3) 0.02461(18) -0.19355(18)
H20B H -0.015(4) -0.016(2) -0.237(2)
loop_
_geom_bond_atom_site_label_1
_geom_bond_atom_site_label_2
_geom_bond_site_symmetry_1
_geom_bond_site_symmetry_2
Mn1 Cl1 1_555 1_555
C1 C2 1_555 1_555
C2 C3 1_555 1_555
C3 H1 1_555 1_555
C4 C3 1_555 1_555
C5 C4 1_555 1_555
H2 C5 1_555 1_555
C6 C1 1_555 1_555
C7 C4 1_555 1_555
C8 C7 1_555 1_555
H3 C8 1_555 1_555
H4 C8 1_555 1_555
H5 C8 1_555 1_555
C9 C7 1_555 1_555
H6 C9 1_555 1_555
H7 C9 1_555 1_555
H8 C9 1_555 1_555
C10 C7 1_555 1_555
H9 C10 1_555 1_555
H10 C10 1_555 1_555
H11 C10 1_555 1_555
C11 C2 1_555 1_555
H12 C11 1_555 1_555
H13 C11 1_555 1_555
C12 H14 1_555 1_555
C13 H15 1_555 1_555
C14 H16 1_555 1_555
C15 H17 1_555 1_555
C16 C6 1_555 1_555
H18 C16 1_555 1_555
H19 C16 1_555 1_555
N1 C11 1_555 1_555
N2 C13 1_555 1_555
N3 Mn1 1_555 1_555
N4 C14 1_555 1_555
N5 C14 1_555 1_555
N6 C15 1_555 1_555
O1 C1 1_555 1_555
H20 O1 1_555 1_555
Mn1_2 N4 1_555 1_555
Mn1_3 N4B 1_555 1_555
C1B C2B 1_555 1_555
C2B C3B 1_555 1_555
C3B H1B 1_555 1_555
C4B C3B 1_555 1_555
C5B C4B 1_555 1_555
H2B C5B 1_555 1_555
C6B C1B 1_555 1_555
C7B C4B 1_555 1_555
C8B C7B 1_555 1_555
H3B C8B 1_555 1_555
H4B C8B 1_555 1_555
H5B C8B 1_555 1_555
C9B C7B 1_555 1_555
H6B C9B 1_555 1_555
H7B C9B 1_555 1_555
H8B C9B 1_555 1_555
C10B C7B 1_555 1_555
H9B C10B 1_555 1_555
H10B C10B 1_555 1_555
H11B C10B 1_555 1_555
C11B C2B 1_555 1_555
H12B C11B 1_555 1_555
H13B C11B 1_555 1_555
C12B H14B 1_555 1_555
C13B H15B 1_555 1_555
C14B H16B 1_555 1_555
C15B H17B 1_555 1_555
C16B C6B 1_555 1_555
H18B C16B 1_555 1_555
H19B C16B 1_555 1_555
Cl1B Mn1 1_555 1_555
N1B C11B 1_555 1_555
N2B C13B 1_555 1_555
N3B Mn1 1_555 1_555
N4B C14B 1_555 1_555
N4_2 Mn1 1_555 1_555
N4B_2 Mn1 1_555 1_555
N5B C14B 1_555 1_555
N6B C15B 1_555 1_555
O1B C1B 1_555 1_555
H20B O1B 1_555 1_555
C5 C6 1_555 1_555
C12 N1 1_555 1_555
C12 N3 1_555 1_555
C13 N3 1_555 1_555
C15 N4 1_555 1_555
C16 N5 1_555 1_555
N1 N2 1_555 1_555
N5 N6 1_555 1_555
C5B C6B 1_555 1_555
C12B N1B 1_555 1_555
C12B N3B 1_555 1_555
C13B N3B 1_555 1_555
C15B N4B 1_555 1_555
C16B N5B 1_555 1_555
N1B N2B 1_555 1_555
N5B N6B 1_555 1_555

#END
