
#######################################################################
#
#                 Cambridge Crystallographic Data Centre
#                                CCDC 
#
#######################################################################
#
# If this CIF has been generated from an entry in the Cambridge 
# Structural Database, then it will include bibliographic, chemical, 
# crystal, experimental, refinement or atomic coordinate data resulting 
# from the CCDC's data processing and validation procedures.
#
#######################################################################

data_JITTAI
_symmetry_cell_setting           monoclinic
_symmetry_space_group_name_H-M   'P 21/c'
_symmetry_Int_Tables_number      14
_space_group_name_Hall           '-P 2ybc'
loop_
_symmetry_equiv_pos_site_id
_symmetry_equiv_pos_as_xyz
1 x,y,z
2 -x,1/2+y,1/2-z
3 -x,-y,-z
4 x,1/2-y,1/2+z
_cell_length_a                   11.755(3)
_cell_length_b                   9.344(3)
_cell_length_c                   18.756(5)
_cell_angle_alpha                90
_cell_angle_beta                 108.262(5)
_cell_angle_gamma                90
_cell_volume                     1956.37
loop_
_atom_site_label
_atom_site_type_symbol
_atom_site_fract_x
_atom_site_fract_y
_atom_site_fract_z
Co1 Co 0.5000 0.0000 0.0000
C1 C 0.9811(4) 0.3373(5) 0.0689(3)
C2 C 0.9119(4) 0.4594(5) 0.0589(3)
C3 C 0.9529(4) 0.5769(5) 0.1044(3)
H1 H 0.9049 0.6582 0.0973
C4 C 1.0636(4) 0.5782(5) 0.1608(3)
C5 C 1.1299(4) 0.4534(5) 0.1689(3)
H2 H 1.2042 0.4504 0.2059
C6 C 1.0916(4) 0.3330(5) 0.1251(3)
C7 C 1.1093(4) 0.7076(5) 0.2100(3)
C8 C 1.0167(5) 0.8246(6) 0.1980(3)
H3 H 0.9979 0.8606 0.1477
H4 H 1.0478 0.9008 0.2330
H5 H 0.9455 0.7868 0.2056
C9 C 1.1473(5) 0.6647(6) 0.2926(3)
H6 H 1.0811 0.6201 0.3036
H7 H 1.1716 0.7483 0.3233
H8 H 1.2130 0.5987 0.3028
C10 C 1.2168(5) 0.7715(6) 0.1911(3)
H9 H 1.2817 0.7040 0.2038
H10 H 1.2419 0.8580 0.2193
H11 H 1.1941 0.7925 0.1384
C11 C 0.7941(4) 0.4671(5) -0.0032(3)
H12 H 0.7673 0.5658 -0.0100
H13 H 0.8054 0.4349 -0.0497
C12 C 0.5817(4) 0.3126(6) 0.0658(3)
H14 H 0.5340 0.3101 0.0971
C13 C 0.6606(4) 0.2549(5) -0.0134(3)
H15 H 0.6833 0.2061 -0.0500
C14 C 1.2314(4) 0.0769(6) -0.0144(3)
H16 H 1.2107 0.0465 -0.0640
C15 C 1.3340(4) 0.1326(5) 0.0943(3)
H17 H 1.3971 0.1506 0.1378
C16 C 1.1635(4) 0.1975(5) 0.1435(3)
H18 H 1.2260 0.2102 0.1912
H19 H 1.1115 0.1212 0.1499
N1 N 0.7019(3) 0.3794(4) 0.0128(2)
N2 N 0.6524(4) 0.4200(5) 0.0653(3)
N3 N 0.5827(3) 0.2060(4) 0.0179(2)
N4 N 1.3463(3) 0.0835(4) 0.0308(2)
N5 N 1.1513(3) 0.1168(5) 0.0172(2)
N6 N 1.2196(3) 0.1523(4) 0.0870(2)
O1 O 0.9345(3) 0.2236(4) 0.02434(19)
H20 H 0.9891 0.1731 0.0202
O2 O 0.5891(3) -0.0578(4) 0.10925(17)
H21 H 0.5791 -0.1480 0.1061
H22 H 0.5486 -0.0368 0.1362
Co1_2 Co 1.5000 0.0000 0.0000
Co1_3 Co -0.5000 0.0000 0.0000
C1B C 0.0189(4) -0.3373(5) -0.0689(3)
C2B C 0.0881(4) -0.4594(5) -0.0589(3)
C3B C 0.0471(4) -0.5769(5) -0.1044(3)
H1B H 0.0951 -0.6582 -0.0973
C4B C -0.0636(4) -0.5782(5) -0.1608(3)
C5B C -0.1299(4) -0.4534(5) -0.1689(3)
H2B H -0.2042 -0.4504 -0.2059
C6B C -0.0916(4) -0.3330(5) -0.1251(3)
C7B C -0.1093(4) -0.7076(5) -0.2100(3)
C8B C -0.0167(5) -0.8246(6) -0.1980(3)
H3B H 0.0021 -0.8606 -0.1477
H4B H -0.0478 -0.9008 -0.2330
H5B H 0.0545 -0.7868 -0.2056
C9B C -0.1473(5) -0.6647(6) -0.2926(3)
H6B H -0.0811 -0.6201 -0.3036
H7B H -0.1716 -0.7483 -0.3233
H8B H -0.2130 -0.5987 -0.3028
C10B C -0.2168(5) -0.7715(6) -0.1911(3)
H9B H -0.2817 -0.7040 -0.2038
H10B H -0.2419 -0.8580 -0.2193
H11B H -0.1941 -0.7925 -0.1384
C11B C 0.2059(4) -0.4671(5) 0.0032(3)
H12B H 0.2327 -0.5658 0.0100
H13B H 0.1946 -0.4349 0.0497
C12B C 0.4183(4) -0.3126(6) -0.0658(3)
H14B H 0.4660 -0.3101 -0.0971
C13B C 0.3394(4) -0.2549(5) 0.0134(3)
H15B H 0.3167 -0.2061 0.0500
C14B C -0.2314(4) -0.0769(6) 0.0144(3)
H16B H -0.2107 -0.0465 0.0640
C15B C -0.3340(4) -0.1326(5) -0.0943(3)
H17B H -0.3971 -0.1506 -0.1378
C16B C -0.1635(4) -0.1975(5) -0.1435(3)
H18B H -0.2260 -0.2102 -0.1912
H19B H -0.1115 -0.1212 -0.1499
N1B N 0.2981(3) -0.3794(4) -0.0128(2)
N2B N 0.3476(4) -0.4200(5) -0.0653(3)
N3B N 0.4173(3) -0.2060(4) -0.0179(2)
N4B N -0.3463(3) -0.0835(4) -0.0308(2)
N4_2 N 0.3463(3) 0.0835(4) 0.0308(2)
N4B_2 N 0.6537(3) -0.0835(4) -0.0308(2)
N5B N -0.1513(3) -0.1168(5) -0.0172(2)
N6B N -0.2196(3) -0.1523(4) -0.0870(2)
O1B O 0.0655(3) -0.2236(4) -0.02434(19)
H20B H 0.0109 -0.1731 -0.0202
O2B O 0.4109(3) 0.0578(4) -0.10925(17)
H21B H 0.4209 0.1480 -0.1061
H22B H 0.4514 0.0368 -0.1362
N7 N 0.4569(6) 0.4766(9) 0.2164(5)
O4 O 0.4891(12) 0.5508(9) 0.2599(5)
O5 O 0.4321(5) 0.4856(7) 0.1503(4)
O6 O 0.4315(7) 0.3608(13) 0.2369(5)
O3 O 0.3338(4) 0.3229(4) 0.8452(2)
H23 H 0.2839 0.3492 0.8670
H24 H 0.3930 0.3802 0.8564
loop_
_geom_bond_atom_site_label_1
_geom_bond_atom_site_label_2
_geom_bond_site_symmetry_1
_geom_bond_site_symmetry_2
Co1 N3 1_555 1_555
C1 C2 1_555 1_555
C2 C3 1_555 1_555
C3 H1 1_555 1_555
C4 C3 1_555 1_555
C5 C4 1_555 1_555
H2 C5 1_555 1_555
C6 C1 1_555 1_555
C7 C4 1_555 1_555
C8 C7 1_555 1_555
H3 C8 1_555 1_555
H4 C8 1_555 1_555
H5 C8 1_555 1_555
C9 C7 1_555 1_555
H6 C9 1_555 1_555
H7 C9 1_555 1_555
H8 C9 1_555 1_555
C10 C7 1_555 1_555
H9 C10 1_555 1_555
H10 C10 1_555 1_555
H11 C10 1_555 1_555
C11 C2 1_555 1_555
H12 C11 1_555 1_555
H13 C11 1_555 1_555
C12 H14 1_555 1_555
C13 H15 1_555 1_555
C14 H16 1_555 1_555
C15 H17 1_555 1_555
C16 C6 1_555 1_555
H18 C16 1_555 1_555
H19 C16 1_555 1_555
N1 C11 1_555 1_555
N2 C12 1_555 1_555
N3 C12 1_555 1_555
N4 C14 1_555 1_555
N5 C14 1_555 1_555
N6 C15 1_555 1_555
N7 O4 1_555 1_555
O1 C1 1_555 1_555
H20 O1 1_555 1_555
O2 Co1 1_555 1_555
H21 O2 1_555 1_555
H22 O2 1_555 1_555
O3 H23 1_555 1_555
H24 O3 1_555 1_555
O5 N7 1_555 1_555
O6 N7 1_555 1_555
Co1_2 N4 1_555 1_555
Co1_3 N4B 1_555 1_555
C1B C2B 1_555 1_555
C2B C3B 1_555 1_555
C3B H1B 1_555 1_555
C4B C3B 1_555 1_555
C5B C4B 1_555 1_555
H2B C5B 1_555 1_555
C6B C1B 1_555 1_555
C7B C4B 1_555 1_555
C8B C7B 1_555 1_555
H3B C8B 1_555 1_555
H4B C8B 1_555 1_555
H5B C8B 1_555 1_555
C9B C7B 1_555 1_555
H6B C9B 1_555 1_555
H7B C9B 1_555 1_555
H8B C9B 1_555 1_555
C10B C7B 1_555 1_555
H9B C10B 1_555 1_555
H10B C10B 1_555 1_555
H11B C10B 1_555 1_555
C11B C2B 1_555 1_555
H12B C11B 1_555 1_555
H13B C11B 1_555 1_555
C12B H14B 1_555 1_555
C13B H15B 1_555 1_555
C14B H16B 1_555 1_555
C15B H17B 1_555 1_555
C16B C6B 1_555 1_555
H18B C16B 1_555 1_555
H19B C16B 1_555 1_555
N1B C11B 1_555 1_555
N2B C12B 1_555 1_555
N3B Co1 1_555 1_555
N4B C14B 1_555 1_555
N4_2 Co1 1_555 1_555
N4B_2 Co1 1_555 1_555
N5B C14B 1_555 1_555
N6B C15B 1_555 1_555
O1B C1B 1_555 1_555
H20B O1B 1_555 1_555
O2B Co1 1_555 1_555
H21B O2B 1_555 1_555
H22B O2B 1_555 1_555
C5 C6 1_555 1_555
C13 N1 1_555 1_555
C13 N3 1_555 1_555
C15 N4 1_555 1_555
C16 N6 1_555 1_555
N1 N2 1_555 1_555
N5 N6 1_555 1_555
C5B C6B 1_555 1_555
C12B N3B 1_555 1_555
C13B N1B 1_555 1_555
C13B N3B 1_555 1_555
C15B N4B 1_555 1_555
C16B N6B 1_555 1_555
N1B N2B 1_555 1_555
N5B N6B 1_555 1_555

#END
