
#######################################################################
#
#                 Cambridge Crystallographic Data Centre
#                                CCDC 
#
#######################################################################
#
# If this CIF has been generated from an entry in the Cambridge 
# Structural Database, then it will include bibliographic, chemical, 
# crystal, experimental, refinement or atomic coordinate data resulting 
# from the CCDC's data processing and validation procedures.
#
#######################################################################

data_JITTOW
_symmetry_cell_setting           monoclinic
_symmetry_space_group_name_H-M   'P 21/n'
_symmetry_Int_Tables_number      14
_space_group_name_Hall           '-P 2yn'
loop_
_symmetry_equiv_pos_site_id
_symmetry_equiv_pos_as_xyz
1 x,y,z
2 1/2-x,1/2+y,1/2-z
3 -x,-y,-z
4 1/2+x,1/2-y,1/2+z
_cell_length_a                   9.409(5)
_cell_length_b                   12.915(6)
_cell_length_c                   15.042(7)
_cell_angle_alpha                90
_cell_angle_beta                 105.99(3)
_cell_angle_gamma                90
_cell_volume                     1757.14
loop_
_atom_site_label
_atom_site_type_symbol
_atom_site_fract_x
_atom_site_fract_y
_atom_site_fract_z
Co1 Co 0.0000 1.0000 0.0000
C1 C 0.4109(3) 0.50751(19) 0.10896(19)
C2 C 0.3525(3) 0.41101(19) 0.07762(19)
C3 C 0.2539(3) 0.4045(2) -0.01008(19)
H1 H 0.2133 0.3402 -0.0304
C4 C 0.2130(3) 0.4884(2) -0.06868(19)
C5 C 0.2737(3) 0.5839(2) -0.0353(2)
H2 H 0.2483 0.6421 -0.0726
C6 C 0.3712(3) 0.59432(19) 0.05230(19)
C7 C 0.1009(3) 0.4760(2) -0.1637(2)
C8 C -0.0520(4) 0.4607(3) -0.1491(3)
H3 H -0.0522 0.3989 -0.1136
H4 H -0.1242 0.4544 -0.2080
H5 H -0.0758 0.5192 -0.1165
C9 C 0.1383(3) 0.3820(2) -0.2145(2)
H6 H 0.1299 0.3202 -0.1809
H7 H 0.2377 0.3883 -0.2193
H8 H 0.0710 0.3784 -0.2754
C10 C 0.0991(4) 0.5705(2) -0.2261(2)
H9 H 0.0364 0.5564 -0.2870
H10 H 0.1977 0.5845 -0.2295
H11 H 0.0620 0.6295 -0.2008
C11 C 0.4397(3) 0.69591(19) 0.0916(2)
H12 H 0.4474 0.6976 0.1572
H13 H 0.5391 0.6997 0.0847
C12 C 0.2410(3) 0.8299(2) 0.0649(2)
H14 H 0.1984 0.8085 0.1108
C13 C 0.2895(3) 0.9087(2) -0.0438(2)
H15 H 0.2840 0.9565 -0.0908
C14 C 0.2496(3) 0.1595(2) 0.0753(2)
H16 H 0.3001 0.1385 0.0332
C15 C 0.1012(3) 0.1707(2) 0.1545(2)
H17 H 0.0224 0.1561 0.1786
C16 C 0.4033(3) 0.31638(19) 0.1366(2)
H18 H 0.4832 0.2839 0.1175
H19 H 0.4424 0.3379 0.2005
Cl1 Cl -0.05092(8) 0.90250(5) 0.13049(5)
N1 N 0.3571(2) 0.78623(16) 0.04782(16)
N2 N 0.3918(3) 0.83647(18) -0.02278(19)
N3 N 0.1931(2) 0.90807(15) 0.00802(16)
N4 N 0.2864(2) 0.24009(15) 0.13103(16)
N5 N 0.1909(3) 0.24912(18) 0.18337(18)
N6 N 0.1316(2) 0.11304(15) 0.08753(16)
O1 O 0.5123(2) 0.52350(13) 0.19237(13)
H20 H 0.4629 0.5217 0.2319
Co1_2 Co 0.0000 0.0000 0.0000
Co1_3 Co 0.0000 2.0000 0.0000
C1B C -0.4109(3) 1.49249(19) -0.10896(19)
C2B C -0.3525(3) 1.58899(19) -0.07762(19)
C3B C -0.2539(3) 1.5955(2) 0.01008(19)
H1B H -0.2133 1.6598 0.0304
C4B C -0.2130(3) 1.5116(2) 0.06868(19)
C5B C -0.2737(3) 1.4161(2) 0.0353(2)
H2B H -0.2483 1.3579 0.0726
C6B C -0.3712(3) 1.40568(19) -0.05230(19)
C7B C -0.1009(3) 1.5240(2) 0.1637(2)
C8B C 0.0520(4) 1.5393(3) 0.1491(3)
H3B H 0.0522 1.6011 0.1136
H4B H 0.1242 1.5456 0.2080
H5B H 0.0758 1.4808 0.1165
C9B C -0.1383(3) 1.6180(2) 0.2145(2)
H6B H -0.1299 1.6798 0.1809
H7B H -0.2377 1.6117 0.2193
H8B H -0.0710 1.6216 0.2754
C10B C -0.0991(4) 1.4295(2) 0.2261(2)
H9B H -0.0364 1.4436 0.2870
H10B H -0.1977 1.4155 0.2295
H11B H -0.0620 1.3705 0.2008
C11B C -0.4397(3) 1.30409(19) -0.0916(2)
H12B H -0.4474 1.3024 -0.1572
H13B H -0.5391 1.3003 -0.0847
C12B C -0.2410(3) 1.1701(2) -0.0649(2)
H14B H -0.1984 1.1915 -0.1108
C13B C -0.2895(3) 1.0913(2) 0.0438(2)
H15B H -0.2840 1.0435 0.0908
C14B C -0.2496(3) 1.8405(2) -0.0753(2)
H16B H -0.3001 1.8615 -0.0332
C15B C -0.1012(3) 1.8293(2) -0.1545(2)
H17B H -0.0224 1.8439 -0.1786
C16B C -0.4033(3) 1.68362(19) -0.1366(2)
H18B H -0.4832 1.7161 -0.1175
H19B H -0.4424 1.6621 -0.2005
Cl1B Cl 0.05092(8) 1.09750(5) -0.13049(5)
N1B N -0.3571(2) 1.21377(16) -0.04782(16)
N2B N -0.3918(3) 1.16353(18) 0.02278(19)
N3B N -0.1931(2) 1.09193(15) -0.00802(16)
N4B N -0.2864(2) 1.75991(15) -0.13103(16)
N5B N -0.1909(3) 1.75088(18) -0.18337(18)
N6B N -0.1316(2) 1.88696(15) -0.08753(16)
N6_2 N 0.1316(2) 1.11304(15) 0.08753(16)
N6B_2 N -0.1316(2) 0.88696(15) -0.08753(16)
O1B O -0.5123(2) 1.47650(13) -0.19237(13)
H20B H -0.4629 1.4783 -0.2319
loop_
_geom_bond_atom_site_label_1
_geom_bond_atom_site_label_2
_geom_bond_site_symmetry_1
_geom_bond_site_symmetry_2
Co1 Cl1 1_555 1_555
C1 C2 1_555 1_555
C2 C3 1_555 1_555
C3 H1 1_555 1_555
C4 C3 1_555 1_555
C5 C4 1_555 1_555
H2 C5 1_555 1_555
C6 C1 1_555 1_555
C7 C4 1_555 1_555
C8 C7 1_555 1_555
H3 C8 1_555 1_555
H4 C8 1_555 1_555
H5 C8 1_555 1_555
C9 C7 1_555 1_555
H6 C9 1_555 1_555
H7 C9 1_555 1_555
H8 C9 1_555 1_555
C10 C7 1_555 1_555
H9 C10 1_555 1_555
H10 C10 1_555 1_555
H11 C10 1_555 1_555
C11 C6 1_555 1_555
H12 C11 1_555 1_555
H13 C11 1_555 1_555
C12 H14 1_555 1_555
C13 H15 1_555 1_555
C14 H16 1_555 1_555
C15 H17 1_555 1_555
C16 C2 1_555 1_555
H18 C16 1_555 1_555
H19 C16 1_555 1_555
N1 C11 1_555 1_555
N2 C13 1_555 1_555
N3 Co1 1_555 1_555
N4 C14 1_555 1_555
N5 C15 1_555 1_555
N6 C14 1_555 1_555
O1 C1 1_555 1_555
H20 O1 1_555 1_555
Co1_2 N6 1_555 1_555
Co1_3 N6B 1_555 1_555
C1B C2B 1_555 1_555
C2B C3B 1_555 1_555
C3B H1B 1_555 1_555
C4B C3B 1_555 1_555
C5B C4B 1_555 1_555
H2B C5B 1_555 1_555
C6B C1B 1_555 1_555
C7B C4B 1_555 1_555
C8B C7B 1_555 1_555
H3B C8B 1_555 1_555
H4B C8B 1_555 1_555
H5B C8B 1_555 1_555
C9B C7B 1_555 1_555
H6B C9B 1_555 1_555
H7B C9B 1_555 1_555
H8B C9B 1_555 1_555
C10B C7B 1_555 1_555
H9B C10B 1_555 1_555
H10B C10B 1_555 1_555
H11B C10B 1_555 1_555
C11B C6B 1_555 1_555
H12B C11B 1_555 1_555
H13B C11B 1_555 1_555
C12B H14B 1_555 1_555
C13B H15B 1_555 1_555
C14B H16B 1_555 1_555
C15B H17B 1_555 1_555
C16B C2B 1_555 1_555
H18B C16B 1_555 1_555
H19B C16B 1_555 1_555
Cl1B Co1 1_555 1_555
N1B C11B 1_555 1_555
N2B C13B 1_555 1_555
N3B Co1 1_555 1_555
N4B C14B 1_555 1_555
N5B C15B 1_555 1_555
N6B C14B 1_555 1_555
N6_2 Co1 1_555 1_555
N6B_2 Co1 1_555 1_555
O1B C1B 1_555 1_555
H20B O1B 1_555 1_555
C5 C6 1_555 1_555
C12 N1 1_555 1_555
C12 N3 1_555 1_555
C13 N3 1_555 1_555
C15 N6 1_555 1_555
C16 N4 1_555 1_555
N1 N2 1_555 1_555
N4 N5 1_555 1_555
C5B C6B 1_555 1_555
C12B N1B 1_555 1_555
C12B N3B 1_555 1_555
C13B N3B 1_555 1_555
C15B N6B 1_555 1_555
C16B N4B 1_555 1_555
N1B N2B 1_555 1_555
N4B N5B 1_555 1_555

#END
