
#######################################################################
#
#                 Cambridge Crystallographic Data Centre
#                                CCDC 
#
#######################################################################
#
# If this CIF has been generated from an entry in the Cambridge 
# Structural Database, then it will include bibliographic, chemical, 
# crystal, experimental, refinement or atomic coordinate data resulting 
# from the CCDC's data processing and validation procedures.
#
#######################################################################

data_JITVUE
_symmetry_cell_setting           orthorhombic
_symmetry_space_group_name_H-M   'P b c a'
_symmetry_Int_Tables_number      61
_space_group_name_Hall           '-P 2ac 2ab'
loop_
_symmetry_equiv_pos_site_id
_symmetry_equiv_pos_as_xyz
1 x,y,z
2 1/2-x,-y,1/2+z
3 -x,1/2+y,1/2-z
4 1/2+x,1/2-y,-z
5 -x,-y,-z
6 1/2+x,y,1/2-z
7 x,1/2-y,1/2+z
8 1/2-x,1/2+y,z
_cell_length_a                   10.1365(16)
_cell_length_b                   9.6893(15)
_cell_length_c                   10.7942(19)
_cell_angle_alpha                90
_cell_angle_beta                 90
_cell_angle_gamma                90
_cell_volume                     1060.16
loop_
_atom_site_label
_atom_site_type_symbol
_atom_site_fract_x
_atom_site_fract_y
_atom_site_fract_z
Zn1 Zn 0.17841(5) 0.08348(5) 0.39520(5)
Na1 Na 0.37647(17) -0.08364(17) 0.57459(18)
P1 P 0.40419(10) 0.28073(10) 0.53965(11)
O1 O 0.3517(3) 0.1418(3) 0.4971(3)
O2 O 0.5532(3) 0.2862(3) 0.5227(3)
O3 O 0.3297(3) 0.4018(3) 0.4854(3)
O4 O 0.2368(3) 0.2783(3) 0.7364(3)
H1 H 0.221(5) 0.191(6) 0.743(6)
O5 O 0.5268(3) 0.4825(3) 0.7323(3)
O6 O 0.3167(3) 0.5197(3) 0.7787(3)
C1 C 0.3741(4) 0.2965(4) 0.7073(4)
H2 H 0.424(4) 0.238(4) 0.747(4)
C2 C 0.4095(4) 0.4437(4) 0.7419(4)
Zn1C Zn 0.67841(5) 0.41652(5) 0.60480(5)
Zn1G Zn 0.32159(5) 0.58348(5) 0.39520(5)
Zn1F Zn 0.17841(5) 0.41652(5) 0.89520(5)
Na1D Na 0.62353(17) 0.08364(17) 0.42541(18)
Na1G Na 0.12353(17) 0.41636(17) 0.57459(18)
Na1B Na 0.62353(17) 0.41636(17) 0.92541(18)
O2C O 0.0532(3) 0.2138(3) 0.4773(3)
O2D O 0.4468(3) -0.2862(3) 0.4773(3)
O3G O 0.1703(3) -0.0982(3) 0.4854(3)
O4F O 0.2368(3) 0.2217(3) 0.2364(3)
O4G O 0.2632(3) -0.2217(3) 0.7364(3)
H1F H 0.221(5) 0.309(6) 0.243(6)
H1G H 0.279(5) -0.309(6) 0.743(6)
O5C O 0.0268(3) 0.0175(3) 0.2677(3)
O5B O 0.4732(3) -0.0175(3) 0.7677(3)
O6F O 0.3167(3) -0.0197(3) 0.2787(3)
loop_
_geom_bond_atom_site_label_1
_geom_bond_atom_site_label_2
_geom_bond_site_symmetry_1
_geom_bond_site_symmetry_2
Zn1 O1 1_555 1_555
Na1 O1 1_555 1_555
P1 O1 1_555 1_555
O2 P1 1_555 1_555
O3 P1 1_555 1_555
O4 H1 1_555 1_555
O5 C2 1_555 1_555
O6 C2 1_555 1_555
C1 P1 1_555 1_555
H2 C1 1_555 1_555
C2 C1 1_555 1_555
Zn1C O2 1_555 1_555
Zn1G O3 1_555 1_555
Zn1F O4 1_555 1_555
Na1D O2 1_555 1_555
Na1G O3 1_555 1_555
Na1B O5 1_555 1_555
O2C Zn1 1_555 1_555
O2D Na1 1_555 1_555
O3G Zn1 1_555 1_555
O4F Zn1 1_555 1_555
O4G Na1 1_555 1_555
H1F O4F 1_555 1_555
H1G O4G 1_555 1_555
O5C Zn1 1_555 1_555
O5B Na1 1_555 1_555
O6F Zn1 1_555 1_555
Na1 O3G 1_555 1_555
O4 C1 1_555 1_555
O4 Na1G 1_555 1_555
O5 Zn1C 1_555 1_555
O6 Zn1F 1_555 1_555
Na1G O2C 1_555 1_555

#END
