
#######################################################################
#
#                 Cambridge Crystallographic Data Centre
#                                CCDC 
#
#######################################################################
#
# If this CIF has been generated from an entry in the Cambridge 
# Structural Database, then it will include bibliographic, chemical, 
# crystal, experimental, refinement or atomic coordinate data resulting 
# from the CCDC's data processing and validation procedures.
#
#######################################################################

data_JIVFUQ
_symmetry_cell_setting           monoclinic
_symmetry_space_group_name_H-M   'C 2/c'
_symmetry_Int_Tables_number      15
_space_group_name_Hall           '-C 2yn'
loop_
_symmetry_equiv_pos_site_id
_symmetry_equiv_pos_as_xyz
1 x,y,z
2 1/2+x,1/2+y,z
3 -x,y,1/2-z
4 1/2-x,1/2+y,1/2-z
5 -x,-y,-z
6 1/2-x,1/2-y,-z
7 x,-y,1/2+z
8 1/2+x,1/2-y,1/2+z
_cell_length_a                   15.530(3)
_cell_length_b                   14.008(3)
_cell_length_c                   9.1571(18)
_cell_angle_alpha                90
_cell_angle_beta                 103.94(3)
_cell_angle_gamma                90
_cell_volume                     1933.4
loop_
_atom_site_label
_atom_site_type_symbol
_atom_site_fract_x
_atom_site_fract_y
_atom_site_fract_z
Zn1 Zn 0.0000 0.02443(3) 0.2500
P1 P 0.07553(4) 0.13079(5) 0.00847(7)
O1 O -0.00725(12) 0.19206(14) -0.0621(2)
H1 H -0.0063 0.2412 -0.0132
O2 O 0.08035(12) 0.10733(14) 0.1730(2)
O3 O 0.07586(12) 0.04478(14) -0.0893(2)
O4 O 0.23875(14) 0.18213(18) 0.2790(2)
H2 H 0.1917 0.1542 0.2736
C1 C 0.24168(18) 0.2150(2) 0.1390(3)
C2 C 0.17367(17) 0.19942(18) 0.0099(3)
C3 C 0.18330(18) 0.2349(2) -0.1282(3)
H3 H 0.1384 0.2247 -0.2144
Zn1F Zn 0.0000 -0.02443(3) -0.2500
Zn1G Zn 0.5000 0.47557(3) -0.2500
Zn1A Zn 0.5000 0.52443(3) 0.2500
P1E P 0.42447(4) 0.36921(5) -0.00847(7)
O1E O 0.50725(12) 0.30794(14) 0.0621(2)
H1E H 0.5063 0.2588 0.0132
O2E O 0.41965(12) 0.39267(14) -0.1730(2)
O2B O -0.08035(12) 0.10733(14) 0.3270(2)
O3E O 0.42414(12) 0.45522(14) 0.0893(2)
O3F O 0.07586(12) -0.04478(14) 0.4107(2)
O3D O -0.07586(12) -0.04478(14) 0.0893(2)
O4E O 0.26125(14) 0.31787(18) -0.2790(2)
H2E H 0.3083 0.3458 -0.2736
C1E C 0.25832(18) 0.2850(2) -0.1390(3)
C2E C 0.32633(17) 0.30058(18) -0.0099(3)
C3E C 0.31670(18) 0.2651(2) 0.1282(3)
H3E H 0.3616 0.2753 0.2144
N1 N -0.1482(2) 0.4323(2) 0.1047(4)
O5 O -0.0368(2) 0.3494(2) 0.0439(4)
C4 C -0.1097(5) 0.5253(4) 0.0962(13)
H4 H -0.0509 0.5181 0.0814
H5 H -0.1070 0.5594 0.1881
H6 H -0.1456 0.5602 0.0134
C5 C -0.2379(3) 0.4310(4) 0.1264(7)
H7 H -0.2580 0.3662 0.1264
H8 H -0.2766 0.4656 0.0463
H9 H -0.2384 0.4604 0.2209
C6 C -0.1101(3) 0.3527(3) 0.0745(4)
loop_
_geom_bond_atom_site_label_1
_geom_bond_atom_site_label_2
_geom_bond_site_symmetry_1
_geom_bond_site_symmetry_2
Zn1 O2 1_555 1_555
P1 O1 1_555 1_555
O1 H1 1_555 1_555
O2 P1 1_555 1_555
O3 P1 1_555 1_555
O4 H2 1_555 1_555
C1 O4 1_555 1_555
C2 P1 1_555 1_555
C3 C2 1_555 1_555
H3 C3 1_555 1_555
N1 C4 1_555 1_555
O5 C6 1_555 1_555
C4 H4 1_555 1_555
H5 C4 1_555 1_555
H6 C4 1_555 1_555
C5 N1 1_555 1_555
H7 C5 1_555 1_555
H8 C5 1_555 1_555
H9 C5 1_555 1_555
C6 N1 1_555 1_555
Zn1F O3 1_555 1_555
Zn1G O2E 1_555 1_555
Zn1A O3E 1_555 1_555
P1E O1E 1_555 1_555
O1E H1E 1_555 1_555
O2E P1E 1_555 1_555
O2B Zn1 1_555 1_555
O3E P1E 1_555 1_555
O3F Zn1 1_555 1_555
O3D Zn1 1_555 1_555
O4E H2E 1_555 1_555
C1E C3 1_555 1_555
C2E P1E 1_555 1_555
C3E C1 1_555 1_555
H3E C3E 1_555 1_555
C1 C2 1_555 1_555
O4E C1E 1_555 1_555
C1E C2E 1_555 1_555
C2E C3E 1_555 1_555

#END
