
#######################################################################
#
#                 Cambridge Crystallographic Data Centre
#                                CCDC 
#
#######################################################################
#
# If this CIF has been generated from an entry in the Cambridge 
# Structural Database, then it will include bibliographic, chemical, 
# crystal, experimental, refinement or atomic coordinate data resulting 
# from the CCDC's data processing and validation procedures.
#
#######################################################################

data_JIVGIF
_symmetry_cell_setting           monoclinic
_symmetry_space_group_name_H-M   'P 21/c'
_symmetry_Int_Tables_number      14
_space_group_name_Hall           '-P 2ybc'
loop_
_symmetry_equiv_pos_site_id
_symmetry_equiv_pos_as_xyz
1 x,y,z
2 -x,1/2+y,1/2-z
3 -x,-y,-z
4 x,1/2-y,1/2+z
_cell_length_a                   12.4857(4)
_cell_length_b                   20.3444(6)
_cell_length_c                   14.9471(5)
_cell_angle_alpha                90
_cell_angle_beta                 92.218(2)
_cell_angle_gamma                90
_cell_volume                     3793.93
loop_
_atom_site_label
_atom_site_type_symbol
_atom_site_fract_x
_atom_site_fract_y
_atom_site_fract_z
Fe1 Fe 0.79150(6) 0.07419(3) 1.14178(5)
C1 C 0.7680(4) 0.1613(3) 1.1896(4)
N1 N 0.7582(4) 0.2124(2) 1.2209(3)
C2 C 0.8083(4) 0.0484(3) 1.2680(4)
N2 N 0.8155(4) 0.0333(3) 1.3408(4)
C3 C 0.7721(4) 0.1179(2) 1.0256(4)
N3 N 0.7557(4) 0.1460(2) 0.9589(3)
N4 N 0.6406(4) 0.0463(2) 1.1383(3)
C4 C 0.5540(5) 0.0779(3) 1.1628(4)
H1 H 0.5614 0.1205 1.1846
C5 C 0.4506(5) 0.0496(3) 1.1572(4)
H2 H 0.3919 0.0733 1.1759
C6 C 0.4369(5) -0.0123(3) 1.1244(4)
H3 H 0.3687 -0.0307 1.1194
C7 C 0.5263(5) -0.0482(3) 1.0982(4)
C8 C 0.5217(5) -0.1135(3) 1.0656(4)
H4 H 0.4564 -0.1353 1.0591
C9 C 0.6148(5) -0.1442(3) 1.0439(5)
H5 H 0.6114 -0.1874 1.0235
C10 C 0.7151(5) -0.1131(3) 1.0512(4)
H6 H 0.7764 -0.1353 1.0344
C11 C 0.7228(4) -0.0496(3) 1.0833(4)
C12 C 0.6280(4) -0.0174(3) 1.1062(4)
N5 N 0.8144(3) -0.0112(2) 1.0980(3)
C13 C 0.9166(4) -0.0321(2) 1.0911(3)
O1 O 0.9476(3) -0.08672(17) 1.0673(3)
C14 C 0.9931(4) 0.0215(2) 1.1159(3)
C15 C 1.1028(4) 0.0144(3) 1.1176(4)
H7 H 1.1314 -0.0263 1.1036
N6 N 1.1697(4) 0.0635(2) 1.1385(3)
C16 C 1.1241(5) 0.1215(3) 1.1546(4)
C17 C 1.1982(5) 0.1790(3) 1.1734(5)
H8 H 1.2292 0.1753 1.2329
H9 H 1.1583 0.2192 1.1681
H10 H 1.2541 0.1790 1.1310
C18 C 1.0142(4) 0.1289(3) 1.1549(4)
H11 H 0.9860 0.1699 1.1680
N7 N 0.9473(3) 0.0793(2) 1.1372(3)
Mn1 Mn 0.74687(7) 0.28469(4) 1.33828(5)
O2 O 0.6004(3) 0.26274(18) 1.3464(3)
C19 C 0.5602(5) 0.2046(3) 1.3683(4)
C20 C 0.4522(5) 0.1929(3) 1.3497(5)
H12 H 0.4102 0.2256 1.3227
C21 C 0.4062(6) 0.1334(4) 1.3709(5)
H13 H 0.3336 0.1268 1.3580
C22 C 0.4653(6) 0.0840(4) 1.4104(6)
H14 H 0.4329 0.0443 1.4240
C23 C 0.5705(6) 0.0930(3) 1.4297(5)
H15 H 0.6105 0.0592 1.4564
C24 C 0.6212(5) 0.1537(3) 1.4096(4)
C25 C 0.7310(5) 0.1610(3) 1.4356(4)
H16 H 0.7625 0.1268 1.4685
N8 N 0.7914(4) 0.2105(2) 1.4181(3)
C26 C 0.9012(6) 0.2144(4) 1.4497(6)
H17 H 0.9014 0.2484 1.4961
C27 C 0.9516(6) 0.1565(4) 1.4951(5)
H18 H 0.9404 0.1182 1.4572
H19 H 0.9155 0.1485 1.5504
C28 C 1.0679(8) 0.1635(5) 1.5161(8)
H20 H 1.0973 0.1204 1.5295
H21 H 1.0774 0.1901 1.5697
C29 C 1.1282(7) 0.1926(5) 1.4468(7)
H22 H 1.1973 0.2055 1.4728
H23 H 1.1412 0.1588 1.4027
C30 C 1.0812(6) 0.2508(3) 1.3984(5)
H24 H 1.1171 0.2569 1.3426
H25 H 1.0931 0.2899 1.4346
C31 C 0.9649(5) 0.2423(5) 1.3792(6)
H26 H 0.9634 0.2069 1.3347
N9 N 0.9046(4) 0.2951(2) 1.3314(3)
C32 C 0.9522(5) 0.3403(3) 1.2855(4)
H27 H 1.0267 0.3403 1.2871
C33 C 0.8984(5) 0.3898(3) 1.2329(4)
C34 C 0.9648(5) 0.4361(3) 1.1901(4)
H28 H 1.0389 0.4330 1.1979
C35 C 0.9209(5) 0.4854(3) 1.1372(5)
H29 H 0.9647 0.5157 1.1099
C36 C 0.8089(5) 0.4891(3) 1.1251(5)
H30 H 0.7783 0.5212 1.0878
C37 C 0.7445(5) 0.4455(3) 1.1683(4)
H31 H 0.6706 0.4497 1.1605
C38 C 0.7846(5) 0.3959(3) 1.2226(4)
O3 O 0.7171(3) 0.35559(18) 1.2608(3)
N3C N 0.7557(4) 0.3540(2) 1.4589(3)
Mn1C Mn 0.74687(7) 0.21531(4) 0.83828(5)
C39 C 0.3829(10) 0.0895(6) 0.6673(9)
C40 C 0.2980(10) 0.1284(5) 0.7016(7)
N10 N 0.2226(7) 0.1576(4) 0.7244(6)
C41 C 0.4956(10) 0.2393(6) 0.6651(9)
O4 O 0.5516(11) 0.2175(8) 0.5975(7)
loop_
_geom_bond_atom_site_label_1
_geom_bond_atom_site_label_2
_geom_bond_site_symmetry_1
_geom_bond_site_symmetry_2
Fe1 C1 1_555 1_555
C1 N1 1_555 1_555
N1 Mn1 1_555 1_555
C2 Fe1 1_555 1_555
N2 C2 1_555 1_555
C3 Fe1 1_555 1_555
N3 C3 1_555 1_555
N4 Fe1 1_555 1_555
C4 N4 1_555 1_555
H1 C4 1_555 1_555
C5 C4 1_555 1_555
H2 C5 1_555 1_555
C6 C5 1_555 1_555
H3 C6 1_555 1_555
C7 C6 1_555 1_555
C8 C7 1_555 1_555
H4 C8 1_555 1_555
C9 C8 1_555 1_555
H5 C9 1_555 1_555
C10 C9 1_555 1_555
H6 C10 1_555 1_555
C11 C10 1_555 1_555
C12 N4 1_555 1_555
N5 Fe1 1_555 1_555
C13 N5 1_555 1_555
O1 C13 1_555 1_555
C14 C13 1_555 1_555
C15 C14 1_555 1_555
H7 C15 1_555 1_555
N6 C15 1_555 1_555
C16 N6 1_555 1_555
C17 C16 1_555 1_555
H8 C17 1_555 1_555
H9 C17 1_555 1_555
H10 C17 1_555 1_555
C18 C16 1_555 1_555
H11 C18 1_555 1_555
N7 Fe1 1_555 1_555
Mn1 O2 1_555 1_555
O2 C19 1_555 1_555
C19 C20 1_555 1_555
C20 H12 1_555 1_555
C21 C20 1_555 1_555
H13 C21 1_555 1_555
C22 C21 1_555 1_555
H14 C22 1_555 1_555
C23 C22 1_555 1_555
H15 C23 1_555 1_555
C24 C19 1_555 1_555
C25 C24 1_555 1_555
H16 C25 1_555 1_555
N8 Mn1 1_555 1_555
C26 N8 1_555 1_555
H17 C26 1_555 1_555
C27 C26 1_555 1_555
H18 C27 1_555 1_555
H19 C27 1_555 1_555
C28 C27 1_555 1_555
H20 C28 1_555 1_555
H21 C28 1_555 1_555
C29 C28 1_555 1_555
H22 C29 1_555 1_555
H23 C29 1_555 1_555
C30 C29 1_555 1_555
H24 C30 1_555 1_555
H25 C30 1_555 1_555
C31 C26 1_555 1_555
H26 C31 1_555 1_555
N9 Mn1 1_555 1_555
C32 N9 1_555 1_555
H27 C32 1_555 1_555
C33 C32 1_555 1_555
C34 C33 1_555 1_555
H28 C34 1_555 1_555
C35 C34 1_555 1_555
H29 C35 1_555 1_555
C36 C35 1_555 1_555
H30 C36 1_555 1_555
C37 C36 1_555 1_555
H31 C37 1_555 1_555
C38 C33 1_555 1_555
O3 Mn1 1_555 1_555
C39 C40 1_555 1_555
C40 N10 1_555 1_555
C41 O4 1_555 1_555
N3C Mn1 1_555 1_555
Mn1C N3 1_555 1_555
C7 C12 1_555 1_555
C11 C12 1_555 1_555
C11 N5 1_555 1_555
C14 N7 1_555 1_555
C18 N7 1_555 1_555
C23 C24 1_555 1_555
C25 N8 1_555 1_555
C30 C31 1_555 1_555
C31 N9 1_555 1_555
C37 C38 1_555 1_555
C38 O3 1_555 1_555

#END
