
#######################################################################
#
#                 Cambridge Crystallographic Data Centre
#                                CCDC 
#
#######################################################################
#
# If this CIF has been generated from an entry in the Cambridge 
# Structural Database, then it will include bibliographic, chemical, 
# crystal, experimental, refinement or atomic coordinate data resulting 
# from the CCDC's data processing and validation procedures.
#
#######################################################################

data_JIVHEC01
_symmetry_cell_setting           monoclinic
_symmetry_space_group_name_H-M   'C 2/c'
_symmetry_Int_Tables_number      15
_space_group_name_Hall           '-C 2yn'
loop_
_symmetry_equiv_pos_site_id
_symmetry_equiv_pos_as_xyz
1 x,y,z
2 1/2+x,1/2+y,z
3 -x,y,1/2-z
4 1/2-x,1/2+y,1/2-z
5 -x,-y,-z
6 1/2-x,1/2-y,-z
7 x,-y,1/2+z
8 1/2+x,1/2-y,1/2+z
_cell_length_a                   26.418(6)
_cell_length_b                   16.043(4)
_cell_length_c                   19.841(5)
_cell_angle_alpha                90
_cell_angle_beta                 106.34(2)
_cell_angle_gamma                90
_cell_volume                     8069.44
loop_
_atom_site_label
_atom_site_type_symbol
_atom_site_fract_x
_atom_site_fract_y
_atom_site_fract_z
K1 K 0.360601(11) 0.739295(17) 0.022003(14)
K2 K 0.248677(11) 0.891636(18) 0.088478(14)
K3 K 0.276120(14) 0.900820(23) -0.081670(15)
O1 O 0.336664(30) 0.89867(5) 0.04182(4)
O2 O 0.307200(29) 0.74632(5) -0.11022(4)
O3 O 0.311866(29) 0.59165(5) 0.03716(4)
O4 O 0.459486(31) 0.72455(5) 0.09269(4)
O5 O 0.569449(31) 0.70333(6) 0.12081(4)
O6 O 0.249370(31) 0.99708(5) 0.18851(4)
O7 O 0.269830(33) 0.97309(5) 0.33385(4)
O8 O 0.25950(7) 0.73867(11) 0.03145(8)
C1 C 0.36739(4) 0.91265(7) 0.10500(6)
C2 C 0.40003(4) 0.98502(7) 0.12400(6)
C3 C 0.43064(4) 0.99322(7) 0.19304(6)
H1 H 0.45483(26) 1.0463(4) 0.2090(4)
C4 C 0.43132(5) 0.93421(8) 0.24449(7)
H2 H 0.45537(29) 0.9432(5) 0.2955(4)
C5 C 0.40048(5) 0.86427(8) 0.22705(6)
H3 H 0.39926(29) 0.8197(4) 0.2625(4)
C6 C 0.36913(5) 0.85469(7) 0.15869(7)
H4 H 0.34395(28) 0.8027(4) 0.1465(4)
C7 C 0.40103(5) 1.05125(7) 0.06895(6)
C8 C 0.34574(5) 1.08827(8) 0.04006(7)
H5 H 0.31824(27) 1.0433(5) 0.0182(5)
H6 H 0.34585(35) 1.1329(5) 0.0037(5)
H7 H 0.33424(33) 1.1167(5) 0.0793(5)
C9 C 0.43889(5) 1.12214(8) 0.09933(7)
H8 H 0.42684(28) 1.1538(4) 0.1366(4)
H9 H 0.43885(32) 1.1658(5) 0.0600(5)
H10 H 0.47835(30) 1.1013(4) 0.1165(4)
C10 C 0.42008(5) 1.01213(8) 0.00952(7)
H11 H 0.45860(29) 0.9897(5) 0.0254(4)
H12 H 0.4178(4) 1.0557(4) -0.0287(4)
H13 H 0.39554(33) 0.9607(5) -0.0126(4)
C11 C 0.30041(5) 0.75274(7) -0.17896(6)
C12 C 0.24880(5) 0.75985(7) -0.22371(6)
H14 H 0.21637(27) 0.7591(4) -0.2026(4)
C13 C 0.23863(5) 0.76741(7) -0.29587(6)
H15 H 0.20018(26) 0.7733(4) -0.3265(4)
C14 C 0.28000(5) 0.76796(7) -0.32515(6)
H16 H 0.27413(30) 0.7721(5) -0.3788(4)
C15 C 0.33151(5) 0.76056(7) -0.28251(6)
H17 H 0.36295(27) 0.7615(4) -0.3060(4)
C16 C 0.34339(5) 0.75357(7) -0.20955(6)
C17 C 0.40067(5) 0.74698(7) -0.16404(6)
C18 C 0.41319(5) 0.82145(8) -0.11349(7)
H18 H 0.41265(32) 0.8757(4) -0.1426(4)
H19 H 0.38728(28) 0.8273(4) -0.0856(4)
H20 H 0.45169(31) 0.8156(5) -0.0800(4)
C19 C 0.44058(5) 0.74836(8) -0.20693(7)
H21 H 0.43970(31) 0.8032(4) -0.2338(4)
H22 H 0.47773(33) 0.7420(5) -0.1750(4)
H23 H 0.43439(32) 0.6994(5) -0.2442(5)
C20 C 0.40856(5) 0.66492(8) -0.12300(7)
H24 H 0.4466(4) 0.6618(5) -0.0901(5)
H25 H 0.37990(30) 0.6575(4) -0.0964(4)
H26 H 0.40679(32) 0.6128(4) -0.1577(4)
C21 C 0.34655(4) 0.56330(7) 0.09408(6)
C22 C 0.37293(4) 0.48553(7) 0.09750(6)
C23 C 0.40922(5) 0.46315(7) 0.16048(6)
H27 H 0.42874(31) 0.4058(4) 0.1638(4)
C24 C 0.42053(5) 0.51275(8) 0.21980(6)
H28 H 0.44959(29) 0.4919(5) 0.2637(4)
C25 C 0.39456(5) 0.58781(8) 0.21724(6)
H29 H 0.40092(29) 0.6280(4) 0.2587(4)
C26 C 0.35840(4) 0.61203(7) 0.15523(6)
H30 H 0.33962(30) 0.6694(4) 0.1538(4)
C27 C 0.36095(5) 0.42759(7) 0.03341(6)
C28 C 0.37512(5) 0.47196(8) -0.02760(6)
H31 H 0.35591(31) 0.5268(4) -0.0392(4)
H32 H 0.3685(4) 0.4322(5) -0.0698(4)
H33 H 0.41698(29) 0.4874(4) -0.0149(4)
C29 C 0.39295(6) 0.34734(8) 0.04770(7)
H34 H 0.4353(4) 0.3587(5) 0.0598(4)
H35 H 0.3848(4) 0.3117(5) 0.0020(5)
H36 H 0.3839(4) 0.3112(5) 0.0874(5)
C30 C 0.30226(6) 0.40394(8) 0.01209(7)
H37 H 0.2924(4) 0.3698(5) 0.0525(4)
H38 H 0.29473(35) 0.3679(5) -0.0307(5)
H39 H 0.27852(31) 0.4561(5) 0.0006(4)
C31 C 0.49482(5) 0.79275(8) 0.11371(8)
H40 H 0.50345(30) 0.7966(4) 0.1672(5)
H41 H 0.47458(35) 0.8471(5) 0.0914(6)
C32 C 0.54408(6) 0.77859(8) 0.09220(7)
H42 H 0.53629(34) 0.7737(5) 0.0383(4)
H43 H 0.5720(4) 0.8262(5) 0.1078(5)
C33 C 0.53363(5) 0.63563(8) 0.10069(6)
H44 H 0.55400(33) 0.5821(4) 0.1232(5)
H45 H 0.52225(34) 0.6293(5) 0.0457(5)
C34 C 0.48482(5) 0.64998(8) 0.12315(7)
H46 H 0.45723(31) 0.6022(4) 0.1056(5)
H47 H 0.49179(35) 0.6575(5) 0.1764(5)
C35 C 0.29987(5) 1.01780(7) 0.23553(7)
H48 H 0.29844(28) 1.0809(4) 0.2489(4)
H49 H 0.32959(26) 1.0095(4) 0.2090(4)
C36 C 0.20851(5) 1.00636(7) 0.22272(6)
H50 H 0.17271(27) 0.9888(4) 0.1872(4)
H51 H 0.20743(28) 1.0697(4) 0.2349(4)
C37 C 0.31056(5) 0.96303(8) 0.29933(7)
H52 H 0.31323(33) 0.8986(5) 0.2874(5)
H53 H 0.34555(31) 0.9788(5) 0.3346(4)
C38 C 0.21950(5) 0.95225(8) 0.28643(7)
H54 H 0.19030(30) 0.9623(4) 0.3127(4)
H55 H 0.21972(27) 0.8905(4) 0.2725(4)
H56 H 0.2395(6) 0.7418(9) 0.0652(8)
H57 H 0.2798(7) 0.6846(10) 0.0394(9)
K1E K 0.139399(11) 0.760705(17) -0.022003(14)
K2E K 0.251323(11) 0.608364(18) -0.088478(14)
K2F K 0.248677(11) 1.108364(18) -0.411522(14)
K3E K 0.223880(14) 0.599180(23) 0.081670(15)
K3F K 0.276120(14) 1.099180(23) 0.418330(15)
O1E O 0.163336(30) 0.60133(5) -0.04182(4)
O2E O 0.192800(29) 0.75368(5) 0.11022(4)
O3E O 0.188134(29) 0.90835(5) -0.03716(4)
O4E O 0.040514(31) 0.77545(5) -0.09269(4)
O5E O -0.069449(31) 0.79667(6) -0.12081(4)
O6F O 0.249370(31) 1.00292(5) -0.31149(4)
O6E O 0.250630(31) 0.50292(5) -0.18851(4)
O7F O 0.269830(33) 1.02691(5) -0.16615(4)
O7C O 0.230170(33) 0.47309(5) 0.16615(4)
O8E O 0.24050(7) 0.76133(11) -0.03145(8)
C1E C 0.13261(4) 0.58735(7) -0.10500(6)
C2E C 0.09997(4) 0.51498(7) -0.12400(6)
C3E C 0.06936(4) 0.50678(7) -0.19304(6)
H1E H 0.04517(26) 0.4537(4) -0.2090(4)
C4E C 0.06868(5) 0.56579(8) -0.24449(7)
H2E H 0.04463(29) 0.5568(5) -0.2955(4)
C5E C 0.09952(5) 0.63573(8) -0.22705(6)
H3E H 0.10074(29) 0.6803(4) -0.2625(4)
C6E C 0.13087(5) 0.64531(7) -0.15869(7)
H4E H 0.15605(28) 0.6973(4) -0.1465(4)
C7E C 0.09897(5) 0.44875(7) -0.06895(6)
C8E C 0.15426(5) 0.41173(8) -0.04006(7)
H5E H 0.18176(27) 0.4567(5) -0.0182(5)
H6E H 0.15415(35) 0.3671(5) -0.0037(5)
H7E H 0.16576(33) 0.3833(5) -0.0793(5)
C9E C 0.06111(5) 0.37786(8) -0.09933(7)
H8E H 0.07316(28) 0.3462(4) -0.1366(4)
H9E H 0.06115(32) 0.3342(5) -0.0600(5)
H10E H 0.02165(30) 0.3987(4) -0.1165(4)
C10E C 0.07992(5) 0.48787(8) -0.00952(7)
H11E H 0.04140(29) 0.5103(5) -0.0254(4)
H12E H 0.0822(4) 0.4443(4) 0.0287(4)
H13E H 0.10446(33) 0.5393(5) 0.0126(4)
C11E C 0.19959(5) 0.74726(7) 0.17896(6)
C12E C 0.25120(5) 0.74015(7) 0.22371(6)
H14E H 0.28363(27) 0.7409(4) 0.2026(4)
C13E C 0.26137(5) 0.73259(7) 0.29587(6)
H15E H 0.29982(26) 0.7267(4) 0.3265(4)
C14E C 0.22000(5) 0.73204(7) 0.32515(6)
H16E H 0.22587(30) 0.7279(5) 0.3788(4)
C15E C 0.16849(5) 0.73944(7) 0.28251(6)
H17E H 0.13705(27) 0.7385(4) 0.3060(4)
C16E C 0.15661(5) 0.74643(7) 0.20955(6)
C17E C 0.09933(5) 0.75302(7) 0.16404(6)
C18E C 0.08681(5) 0.67855(8) 0.11349(7)
H18E H 0.08735(32) 0.6243(4) 0.1426(4)
H19E H 0.11272(28) 0.6727(4) 0.0856(4)
H20E H 0.04831(31) 0.6844(5) 0.0800(4)
C19E C 0.05942(5) 0.75164(8) 0.20693(7)
H21E H 0.06030(31) 0.6968(4) 0.2338(4)
H22E H 0.02227(33) 0.7580(5) 0.1750(4)
H23E H 0.06561(32) 0.8006(5) 0.2442(5)
C20E C 0.09144(5) 0.83508(8) 0.12300(7)
H24E H 0.0534(4) 0.8382(5) 0.0901(5)
H25E H 0.12010(30) 0.8425(4) 0.0964(4)
H26E H 0.09321(32) 0.8872(4) 0.1577(4)
C21E C 0.15345(4) 0.93670(7) -0.09408(6)
C22E C 0.12707(4) 1.01447(7) -0.09750(6)
C23E C 0.09078(5) 1.03685(7) -0.16048(6)
H27E H 0.07126(31) 1.0942(4) -0.1638(4)
C24E C 0.07947(5) 0.98725(8) -0.21980(6)
H28E H 0.05041(29) 1.0081(5) -0.2637(4)
C25E C 0.10544(5) 0.91219(8) -0.21724(6)
H29E H 0.09908(29) 0.8720(4) -0.2587(4)
C26E C 0.14160(4) 0.88797(7) -0.15523(6)
H30E H 0.16038(30) 0.8306(4) -0.1538(4)
C27E C 0.13905(5) 1.07241(7) -0.03341(6)
C28E C 0.12488(5) 1.02804(8) 0.02760(6)
H31E H 0.14409(31) 0.9732(4) 0.0392(4)
H32E H 0.1315(4) 1.0678(5) 0.0698(4)
H33E H 0.08302(29) 1.0126(4) 0.0149(4)
C29E C 0.10705(6) 1.15266(8) -0.04770(7)
H34E H 0.0647(4) 1.1413(5) -0.0598(4)
H35E H 0.1152(4) 1.1883(5) -0.0020(5)
H36E H 0.1161(4) 1.1888(5) -0.0874(5)
C30E C 0.19774(6) 1.09606(8) -0.01209(7)
H37E H 0.2076(4) 1.1302(5) -0.0525(4)
H38E H 0.20527(35) 1.1321(5) 0.0307(5)
H39E H 0.22148(31) 1.0439(5) -0.0006(4)
C31E C 0.00518(5) 0.70725(8) -0.11371(8)
H40E H -0.00345(30) 0.7034(4) -0.1672(5)
H41E H 0.02542(35) 0.6529(5) -0.0914(6)
C32E C -0.04408(6) 0.72141(8) -0.09220(7)
H42E H -0.03629(34) 0.7263(5) -0.0383(4)
H43E H -0.0720(4) 0.6738(5) -0.1078(5)
C33E C -0.03363(5) 0.86437(8) -0.10069(6)
H44E H -0.05400(33) 0.9179(4) -0.1232(5)
H45E H -0.02225(34) 0.8707(5) -0.0457(5)
C34E C 0.01518(5) 0.85002(8) -0.12315(7)
H46E H 0.04277(31) 0.8978(4) -0.1056(5)
H47E H 0.00821(35) 0.8425(5) -0.1764(5)
C35F C 0.29987(5) 0.98220(7) -0.26447(7)
H48F H 0.29844(28) 0.9191(4) -0.2511(4)
H49F H 0.32959(26) 0.9905(4) -0.2910(4)
C36F C 0.20851(5) 0.99364(7) -0.27728(6)
H50F H 0.17271(27) 1.0112(4) -0.3128(4)
H51F H 0.20743(28) 0.9303(4) -0.2651(4)
C37F C 0.31056(5) 1.03697(8) -0.20067(7)
H52F H 0.31323(33) 1.1014(5) -0.2126(5)
H53F H 0.34555(31) 1.0212(5) -0.1654(4)
C38F C 0.21950(5) 1.04775(8) -0.21357(7)
H54F H 0.19030(30) 1.0377(4) -0.1873(4)
H55F H 0.21972(27) 1.1095(4) -0.2275(4)
H56E H 0.2605(6) 0.7582(9) -0.0652(8)
H57E H 0.2202(7) 0.8154(10) -0.0394(9)
loop_
_geom_bond_atom_site_label_1
_geom_bond_atom_site_label_2
_geom_bond_site_symmetry_1
_geom_bond_site_symmetry_2
K1 O1 1_555 1_555
K2 O1 1_555 1_555
K3 O1 1_555 1_555
O1 C1 1_555 1_555
O2 K1 1_555 1_555
O3 K1 1_555 1_555
O4 K1 1_555 1_555
O5 C32 1_555 1_555
O6 K2 1_555 1_555
O7 C37 1_555 1_555
O8 K1 1_555 1_555
C1 C2 1_555 1_555
C2 C3 1_555 1_555
C3 H1 1_555 1_555
C4 C3 1_555 1_555
H2 C4 1_555 1_555
C5 C4 1_555 1_555
H3 C5 1_555 1_555
C6 C1 1_555 1_555
H4 C6 1_555 1_555
C7 C2 1_555 1_555
C8 C7 1_555 1_555
H5 C8 1_555 1_555
H6 C8 1_555 1_555
H7 C8 1_555 1_555
C9 C7 1_555 1_555
H8 C9 1_555 1_555
H9 C9 1_555 1_555
H10 C9 1_555 1_555
C10 C7 1_555 1_555
H11 C10 1_555 1_555
H12 C10 1_555 1_555
H13 C10 1_555 1_555
C11 O2 1_555 1_555
C12 C11 1_555 1_555
H14 C12 1_555 1_555
C13 C12 1_555 1_555
H15 C13 1_555 1_555
C14 C13 1_555 1_555
H16 C14 1_555 1_555
C15 C14 1_555 1_555
H17 C15 1_555 1_555
C16 C11 1_555 1_555
C17 C16 1_555 1_555
C18 C17 1_555 1_555
H18 C18 1_555 1_555
H19 C18 1_555 1_555
H20 C18 1_555 1_555
C19 C17 1_555 1_555
H21 C19 1_555 1_555
H22 C19 1_555 1_555
H23 C19 1_555 1_555
C20 C17 1_555 1_555
H24 C20 1_555 1_555
H25 C20 1_555 1_555
H26 C20 1_555 1_555
C21 O3 1_555 1_555
C22 C21 1_555 1_555
C23 C22 1_555 1_555
H27 C23 1_555 1_555
C24 C23 1_555 1_555
H28 C24 1_555 1_555
C25 C24 1_555 1_555
H29 C25 1_555 1_555
C26 C21 1_555 1_555
H30 C26 1_555 1_555
C27 C22 1_555 1_555
C28 C27 1_555 1_555
H31 C28 1_555 1_555
H32 C28 1_555 1_555
H33 C28 1_555 1_555
C29 C27 1_555 1_555
H34 C29 1_555 1_555
H35 C29 1_555 1_555
H36 C29 1_555 1_555
C30 C27 1_555 1_555
H37 C30 1_555 1_555
H38 C30 1_555 1_555
H39 C30 1_555 1_555
C31 O4 1_555 1_555
H40 C31 1_555 1_555
H41 C31 1_555 1_555
C32 C31 1_555 1_555
H42 C32 1_555 1_555
H43 C32 1_555 1_555
C33 O5 1_555 1_555
H44 C33 1_555 1_555
H45 C33 1_555 1_555
C34 O4 1_555 1_555
H46 C34 1_555 1_555
H47 C34 1_555 1_555
C35 O6 1_555 1_555
H48 C35 1_555 1_555
H49 C35 1_555 1_555
C36 O6 1_555 1_555
H50 C36 1_555 1_555
H51 C36 1_555 1_555
C37 C35 1_555 1_555
H52 C37 1_555 1_555
H53 C37 1_555 1_555
C38 O7 1_555 1_555
H54 C38 1_555 1_555
H55 C38 1_555 1_555
H56 O8 1_555 1_555
H57 O8 1_555 1_555
K1E O1E 1_555 1_555
K2E O2 1_555 1_555
K2F O6F 1_555 1_555
K3E O3 1_555 1_555
K3F O7 1_555 1_555
O1E K2E 1_555 1_555
O2E K2 1_555 1_555
O3E K2 1_555 1_555
O4E K1E 1_555 1_555
O5E C32E 1_555 1_555
O6F C35F 1_555 1_555
O6E K2E 1_555 1_555
O7F K3 1_555 1_555
O7C K3E 1_555 1_555
O8E K3 1_555 1_555
C1E O1E 1_555 1_555
C2E C1E 1_555 1_555
C3E C2E 1_555 1_555
H1E C3E 1_555 1_555
C4E C3E 1_555 1_555
H2E C4E 1_555 1_555
C5E C4E 1_555 1_555
H3E C5E 1_555 1_555
C6E C1E 1_555 1_555
H4E C6E 1_555 1_555
C7E C2E 1_555 1_555
C8E C7E 1_555 1_555
H5E C8E 1_555 1_555
H6E C8E 1_555 1_555
H7E C8E 1_555 1_555
C9E C7E 1_555 1_555
H8E C9E 1_555 1_555
H9E C9E 1_555 1_555
H10E C9E 1_555 1_555
C10E C7E 1_555 1_555
H11E C10E 1_555 1_555
H12E C10E 1_555 1_555
H13E C10E 1_555 1_555
C11E O2E 1_555 1_555
C12E C11E 1_555 1_555
H14E C12E 1_555 1_555
C13E C12E 1_555 1_555
H15E C13E 1_555 1_555
C14E C13E 1_555 1_555
H16E C14E 1_555 1_555
C15E C14E 1_555 1_555
H17E C15E 1_555 1_555
C16E C11E 1_555 1_555
C17E C16E 1_555 1_555
C18E C17E 1_555 1_555
H18E C18E 1_555 1_555
H19E C18E 1_555 1_555
H20E C18E 1_555 1_555
C19E C17E 1_555 1_555
H21E C19E 1_555 1_555
H22E C19E 1_555 1_555
H23E C19E 1_555 1_555
C20E C17E 1_555 1_555
H24E C20E 1_555 1_555
H25E C20E 1_555 1_555
H26E C20E 1_555 1_555
C21E O3E 1_555 1_555
C22E C21E 1_555 1_555
C23E C22E 1_555 1_555
H27E C23E 1_555 1_555
C24E C23E 1_555 1_555
H28E C24E 1_555 1_555
C25E C24E 1_555 1_555
H29E C25E 1_555 1_555
C26E C21E 1_555 1_555
H30E C26E 1_555 1_555
C27E C22E 1_555 1_555
C28E C27E 1_555 1_555
H31E C28E 1_555 1_555
H32E C28E 1_555 1_555
H33E C28E 1_555 1_555
C29E C27E 1_555 1_555
H34E C29E 1_555 1_555
H35E C29E 1_555 1_555
H36E C29E 1_555 1_555
C30E C27E 1_555 1_555
H37E C30E 1_555 1_555
H38E C30E 1_555 1_555
H39E C30E 1_555 1_555
C31E O4E 1_555 1_555
H40E C31E 1_555 1_555
H41E C31E 1_555 1_555
C32E C31E 1_555 1_555
H42E C32E 1_555 1_555
H43E C32E 1_555 1_555
C33E O5E 1_555 1_555
H44E C33E 1_555 1_555
H45E C33E 1_555 1_555
C34E O4E 1_555 1_555
H46E C34E 1_555 1_555
H47E C34E 1_555 1_555
C35F H48F 1_555 1_555
H49F C35F 1_555 1_555
C36F O6F 1_555 1_555
H50F C36F 1_555 1_555
H51F C36F 1_555 1_555
C37F O7F 1_555 1_555
H52F C37F 1_555 1_555
H53F C37F 1_555 1_555
C38F O7F 1_555 1_555
H54F C38F 1_555 1_555
H55F C38F 1_555 1_555
H56E O8E 1_555 1_555
H57E O8E 1_555 1_555
K2 O8 1_555 1_555
K3 O2 1_555 1_555
K3 O3E 1_555 1_555
O3 K2E 1_555 1_555
O8 K3E 1_555 1_555
O8 O8E 1_555 1_555
C5 C6 1_555 1_555
C15 C16 1_555 1_555
C25 C26 1_555 1_555
C33 C34 1_555 1_555
C36 C38 1_555 1_555
K1E O2E 1_555 1_555
K1E O3E 1_555 1_555
K1E O8E 1_555 1_555
K2E O8E 1_555 1_555
K3E O1E 1_555 1_555
K3E O2E 1_555 1_555
C5E C6E 1_555 1_555
C15E C16E 1_555 1_555
C25E C26E 1_555 1_555
C33E C34E 1_555 1_555
C35F C37F 1_555 1_555
C36F C38F 1_555 1_555

#END
