
#######################################################################
#
#                 Cambridge Crystallographic Data Centre
#                                CCDC 
#
#######################################################################
#
# If this CIF has been generated from an entry in the Cambridge 
# Structural Database, then it will include bibliographic, chemical, 
# crystal, experimental, refinement or atomic coordinate data resulting 
# from the CCDC's data processing and validation procedures.
#
#######################################################################

data_JIVKIJ
_symmetry_cell_setting           monoclinic
_symmetry_space_group_name_H-M   'C 2/c'
_symmetry_Int_Tables_number      15
_space_group_name_Hall           '-C 2yn'
loop_
_symmetry_equiv_pos_site_id
_symmetry_equiv_pos_as_xyz
1 x,y,z
2 -x,y,1/2-z
3 1/2+x,1/2+y,z
4 1/2-x,1/2+y,1/2-z
5 -x,-y,-z
6 x,-y,1/2+z
7 1/2-x,1/2-y,-z
8 1/2+x,1/2-y,1/2+z
_cell_length_a                   13.1837(16)
_cell_length_b                   9.9030(11)
_cell_length_c                   16.3490(19)
_cell_angle_alpha                90.0
_cell_angle_beta                 98.8190(59)
_cell_angle_gamma                90.0
_cell_volume                     2109.26
loop_
_atom_site_label
_atom_site_type_symbol
_atom_site_fract_x
_atom_site_fract_y
_atom_site_fract_z
Sn1 Sn 0.25000 0.25000 0.00000
Cl1 Cl 0.38113 0.1398 -0.05445
C1 C 0.00000 0.56 -0.25000
H1 H -0.027430 0.618350 -0.208930
N1 N 0.182280 0.343870 -0.115610
N2 N 0.095280 0.487620 -0.202290
C2 C 0.111470 0.437250 -0.125330
C3 C 0.213470 0.334710 -0.191050
C4 C 0.161930 0.421340 -0.245150
H2 H 0.073150 0.466430 -0.085290
H3 H 0.265510 0.268890 -0.201030
H4 H 0.161980 0.442830 -0.300130
C5 C 0.141902 0.091206 -0.003441
C6 C 0.174448 -0.046846 -0.034827
C7 C 0.091578 -0.097256 -0.105287
C8 C 0.080552 0.004521 -0.177651
H5 H 0.065362 0.115217 -0.033303
H6 H 0.143254 0.086688 0.062596
H7 H 0.246507 -0.036219 -0.057683
H8 H 0.182969 -0.118659 0.015310
H9 H 0.113742 -0.194351 -0.126564
H10 H 0.019255 -0.106417 -0.082680
H11 H 0.000320 0.020238 -0.200631
H12 H 0.118302 -0.034780 -0.226611
H13 H 0.115327 0.099169 -0.156237
Sn1A Sn -0.25000 0.25000 -0.50000
Cl1F Cl 0.11887 0.3602 0.05445
H1A H 0.027430 0.618350 -0.291070
N1A N -0.182280 0.343870 -0.384390
N1F N 0.317720 0.156130 0.115610
N2A N -0.095280 0.487620 -0.297710
C2A C -0.111470 0.437250 -0.374670
C3A C -0.213470 0.334710 -0.308950
C4A C -0.161930 0.421340 -0.254850
H2A H -0.073150 0.466430 -0.414710
H3A H -0.265510 0.268890 -0.298970
H4A H -0.161980 0.442830 -0.199870
C5F C 0.358098 0.408794 0.003441
C6F C 0.325552 0.546846 0.034827
C7F C 0.408422 0.597256 0.105287
C8F C 0.419448 0.495479 0.177651
H5F H 0.434638 0.384783 0.033303
H6F H 0.356746 0.413312 -0.062596
H7F H 0.253493 0.536219 0.057683
H8F H 0.317031 0.618659 -0.015310
H9F H 0.386258 0.694351 0.126564
H10F H 0.480745 0.606417 0.082680
H11F H 0.499680 0.479762 0.200631
H12F H 0.381698 0.534780 0.226611
H13F H 0.384673 0.400831 0.156237
loop_
_geom_bond_atom_site_label_1
_geom_bond_atom_site_label_2
_geom_bond_site_symmetry_1
_geom_bond_site_symmetry_2
Sn1 Cl1 1_555 1_555
C1 H1 1_555 1_555
N1 Sn1 1_555 1_555
N2 C1 1_555 1_555
C2 N1 1_555 1_555
C3 N1 1_555 1_555
C4 N2 1_555 1_555
H2 C2 1_555 1_555
H3 C3 1_555 1_555
H4 C4 1_555 1_555
C5 Sn1 1_555 1_555
C6 C5 1_555 1_555
C7 C6 1_555 1_555
C8 C7 1_555 1_555
H5 C5 1_555 1_555
H6 C5 1_555 1_555
H7 C6 1_555 1_555
H8 C6 1_555 1_555
H9 C7 1_555 1_555
H10 C7 1_555 1_555
H11 C8 1_555 1_555
H12 C8 1_555 1_555
H13 C8 1_555 1_555
Sn1A N1A 1_555 1_555
Cl1F Sn1 1_555 1_555
H1A C1 1_555 1_555
N1A C2A 1_555 1_555
N1F Sn1 1_555 1_555
N2A C1 1_555 1_555
C2A N2A 1_555 1_555
C3A N1A 1_555 1_555
C4A N2A 1_555 1_555
H2A C2A 1_555 1_555
H3A C3A 1_555 1_555
H4A C4A 1_555 1_555
C5F Sn1 1_555 1_555
C6F C5F 1_555 1_555
C7F C6F 1_555 1_555
C8F C7F 1_555 1_555
H5F C5F 1_555 1_555
H6F C5F 1_555 1_555
H7F C6F 1_555 1_555
H8F C6F 1_555 1_555
H9F C7F 1_555 1_555
H10F C7F 1_555 1_555
H11F C8F 1_555 1_555
H12F C8F 1_555 1_555
H13F C8F 1_555 1_555
N2 C2 1_555 1_555
C3 C4 1_555 1_555
C3A C4A 1_555 1_555

#END
