
#######################################################################
#
#                 Cambridge Crystallographic Data Centre
#                                CCDC 
#
#######################################################################
#
# If this CIF has been generated from an entry in the Cambridge 
# Structural Database, then it will include bibliographic, chemical, 
# crystal, experimental, refinement or atomic coordinate data resulting 
# from the CCDC's data processing and validation procedures.
#
#######################################################################

data_JIVKOP
_symmetry_cell_setting           monoclinic
_symmetry_space_group_name_H-M   'P 21/n'
_symmetry_Int_Tables_number      14
_space_group_name_Hall           '-P 2yn'
loop_
_symmetry_equiv_pos_site_id
_symmetry_equiv_pos_as_xyz
1 x,y,z
2 1/2-x,1/2+y,1/2-z
3 -x,-y,-z
4 1/2+x,1/2-y,1/2+z
_cell_length_a                   12.62509(47)
_cell_length_b                   15.99103(70)
_cell_length_c                   9.61684(32)
_cell_angle_alpha                90.0
_cell_angle_beta                 91.4961(26)
_cell_angle_gamma                90.0
_cell_volume                     1940.86
loop_
_atom_site_label
_atom_site_type_symbol
_atom_site_fract_x
_atom_site_fract_y
_atom_site_fract_z
Sn1 Sn 0.75270(23) 0.24413(23) 0.62290(35)
Cl1 Cl 0.68445(73) 0.33972(52) 0.4211(11)
Cl2 Cl 0.69829(78) 0.34936(58) 0.8090(10)
N1 N 0.802030 0.147140 0.812070
N2 N 0.892910 0.114010 1.002820
N3 N 0.901120 0.111350 1.252340
N4 N 0.810160 0.141090 1.438350
C1 C 0.862330 0.174730 0.914560
C2 C 0.793260 0.063650 0.837090
C3 C 0.847660 0.041620 0.952860
C4 C 0.959730 0.123230 1.126480
C5 C 0.858590 0.171180 1.330870
C6 C 0.823150 0.056820 1.427900
C7 C 0.878490 0.036790 1.315640
H1 H 0.885230 0.229700 0.92702
H2 H 0.753220 0.027410 0.77286
H3 H 0.859940 -0.007680 1.000700
H4 H 1.014630 0.078810 1.120620
H5 H 0.987240 0.181520 1.130900
H6 H 0.862910 0.227420 1.306230
H7 H 0.791910 0.018950 1.495360
H8 H 0.901760 -0.012280 1.275980
C8 C 0.919770 0.370700 0.621830
H9 H 0.857330 0.403770 0.624160
C9 C 1.018620 0.409000 0.622920
H10 H 1.023740 0.468250 0.626000
C10 C 1.109980 0.360620 0.619500
H11 H 1.177540 0.386800 0.620240
C11 C 1.102490 0.273940 0.614990
H12 H 1.164930 0.240870 0.612660
C12 C 1.003640 0.235640 0.613900
H13 H 0.998520 0.176390 0.610820
C13 C 0.912280 0.284020 0.617320
C14 C 0.559100 0.162520 0.743180
H14 H 0.59342 0.179100 0.827840
C15 C 0.457780 0.128570 0.744560
H15 H 0.422850 0.121940 0.830170
C16 C 0.407570 0.104320 0.620690
H16 H 0.338320 0.081110 0.621630
C17 C 0.458680 0.114020 0.495420
H17 H 0.424360 0.097440 0.410760
C18 C 0.560000 0.147970 0.494040
H18 H 0.594930 0.154600 0.408430
C19 C 0.610210 0.172220 0.617910
Sn1_2 Sn 0.75270(23) 0.24413(23) 1.62290(35)
N4_2 N 0.810160 0.141090 0.438350
loop_
_geom_bond_atom_site_label_1
_geom_bond_atom_site_label_2
_geom_bond_site_symmetry_1
_geom_bond_site_symmetry_2
Sn1 Cl1 1_555 1_555
Cl2 Sn1 1_555 1_555
N1 Sn1 1_555 1_555
N2 C1 1_555 1_555
N3 C4 1_555 1_555
N4 C5 1_555 1_555
C1 N1 1_555 1_555
C2 N1 1_555 1_555
C3 N2 1_555 1_555
C4 N2 1_555 1_555
C5 N3 1_555 1_555
C6 N4 1_555 1_555
C7 N3 1_555 1_555
H1 C1 1_555 1_555
H2 C2 1_555 1_555
H3 C3 1_555 1_555
H4 C4 1_555 1_555
H5 C4 1_555 1_555
H6 C5 1_555 1_555
H7 C6 1_555 1_555
H8 C7 1_555 1_555
C8 H9 1_555 1_555
C9 C8 1_555 1_555
H10 C9 1_555 1_555
C10 C9 1_555 1_555
H11 C10 1_555 1_555
C11 C10 1_555 1_555
H12 C11 1_555 1_555
C12 C11 1_555 1_555
H13 C12 1_555 1_555
C13 Sn1 1_555 1_555
C14 H14 1_555 1_555
C15 C14 1_555 1_555
H15 C15 1_555 1_555
C16 C15 1_555 1_555
H16 C16 1_555 1_555
C17 C16 1_555 1_555
H17 C17 1_555 1_555
C18 C17 1_555 1_555
H18 C18 1_555 1_555
C19 Sn1 1_555 1_555
Sn1_2 N4 1_555 1_555
N4_2 Sn1 1_555 1_555
C2 C3 1_555 1_555
C6 C7 1_555 1_555
C8 C13 1_555 1_555
C12 C13 1_555 1_555
C14 C19 1_555 1_555
C18 C19 1_555 1_555

#END
