
#######################################################################
#
#                 Cambridge Crystallographic Data Centre
#                                CCDC 
#
#######################################################################
#
# If this CIF has been generated from an entry in the Cambridge 
# Structural Database, then it will include bibliographic, chemical, 
# crystal, experimental, refinement or atomic coordinate data resulting 
# from the CCDC's data processing and validation procedures.
#
#######################################################################

data_JIVKEF
_symmetry_cell_setting           monoclinic
_symmetry_space_group_name_H-M   'P 21/n'
_symmetry_Int_Tables_number      14
_space_group_name_Hall           '-P 2yn'
loop_
_symmetry_equiv_pos_site_id
_symmetry_equiv_pos_as_xyz
1 x,y,z
2 1/2-x,1/2+y,1/2-z
3 -x,-y,-z
4 1/2+x,1/2-y,1/2+z
_cell_length_a                   15.33265
_cell_length_b                   8.999898
_cell_length_c                   10.64965
_cell_angle_alpha                90.0
_cell_angle_beta                 107.5691
_cell_angle_gamma                90.0
_cell_volume                     1401.02
loop_
_atom_site_label
_atom_site_type_symbol
_atom_site_fract_x
_atom_site_fract_y
_atom_site_fract_z
Sn1 Sn 0.00000 0.00000 0.00000
Sn2 Sn -0.50000 0.00000 -1.00000
Cl1 Cl 0.11955(45) -0.0395(15) -0.10615(80)
Cl2 Cl -0.5357(10) 0.26380(72) -1.0082(17)
C1 C -0.0064(30) -0.2249(25) 0.0778(34)
C2 C -0.6004(15) -0.0179(56) -0.9003(23)
N1 N -0.109920 -0.029470 -0.203030
N2 N -0.180510 -0.089090 -0.409360
N3 N -0.267520 -0.035730 -0.632830
N4 N -0.388440 0.022400 -0.798610
C3 C -0.100940 -0.055430 -0.319180
C4 C -0.200880 -0.048530 -0.220250
C5 C -0.245690 -0.085220 -0.345020
C6 C -0.194570 -0.123490 -0.546840
C7 C -0.331500 -0.082720 -0.741500
C8 C -0.358530 0.144140 -0.721760
C9 C -0.284780 0.112200 -0.620030
H1 H -0.046790 -0.049260 -0.341570
H2 H -0.226370 -0.032330 -0.147520
H3 H -0.305730 -0.105800 -0.39185
H4 H -0.136080 -0.098370 -0.564270
H5 H -0.214360 -0.228890 -0.563230
H6 H -0.333920 -0.181520 -0.768580
H7 H -0.391090 0.238820 -0.741850
H8 H -0.247190 0.164460 -0.549730
Sn2_2 Sn 0.50000 0.00000 1.00000
Cl1B Cl -0.11955(45) 0.0395(15) 0.10615(80)
Cl2B Cl -0.4643(10) -0.26380(72) -0.9918(17)
C1B C 0.0064(30) 0.2249(25) -0.0778(34)
C2B C -0.3996(15) 0.0179(56) -1.0997(23)
N1B N 0.109920 0.029470 0.203030
N2B N 0.180510 0.089090 0.409360
N3B N 0.267520 0.035730 0.632830
N4B N 0.388440 -0.022400 0.798610
N4B_2 N -0.611560 -0.022400 -1.201390
C3B C 0.100940 0.055430 0.319180
C4B C 0.200880 0.048530 0.220250
C5B C 0.245690 0.085220 0.345020
C6B C 0.194570 0.123490 0.546840
C7B C 0.331500 0.082720 0.741500
C8B C 0.358530 -0.144140 0.721760
C9B C 0.284780 -0.112200 0.620030
H1B H 0.046790 0.049260 0.341570
H2B H 0.226370 0.032330 0.147520
H3B H 0.305730 0.105800 0.39185
H4B H 0.136080 0.098370 0.564270
H5B H 0.214360 0.228890 0.563230
H6B H 0.333920 0.181520 0.768580
H7B H 0.391090 -0.238820 0.741850
H8B H 0.247190 -0.164460 0.549730
loop_
_geom_bond_atom_site_label_1
_geom_bond_atom_site_label_2
_geom_bond_site_symmetry_1
_geom_bond_site_symmetry_2
Sn1 Cl1 1_555 1_555
Sn2 Cl2 1_555 1_555
C1 Sn1 1_555 1_555
C2 Sn2 1_555 1_555
N1 Sn1 1_555 1_555
N2 C3 1_555 1_555
N3 C6 1_555 1_555
N4 Sn2 1_555 1_555
C3 N1 1_555 1_555
C4 N1 1_555 1_555
C5 N2 1_555 1_555
C6 N2 1_555 1_555
C7 N3 1_555 1_555
C8 N4 1_555 1_555
C9 N3 1_555 1_555
H1 C3 1_555 1_555
H2 C4 1_555 1_555
H3 C5 1_555 1_555
H4 C6 1_555 1_555
H5 C6 1_555 1_555
H6 C7 1_555 1_555
H7 C8 1_555 1_555
H8 C9 1_555 1_555
Sn2_2 N4B 1_555 1_555
Cl1B Sn1 1_555 1_555
Cl2B Sn2 1_555 1_555
C1B Sn1 1_555 1_555
C2B Sn2 1_555 1_555
N1B Sn1 1_555 1_555
N2B C3B 1_555 1_555
N3B C6B 1_555 1_555
N4B C7B 1_555 1_555
N4B_2 Sn2 1_555 1_555
C3B N1B 1_555 1_555
C4B N1B 1_555 1_555
C5B N2B 1_555 1_555
C6B N2B 1_555 1_555
C7B N3B 1_555 1_555
C8B N4B 1_555 1_555
C9B N3B 1_555 1_555
H1B C3B 1_555 1_555
H2B C4B 1_555 1_555
H3B C5B 1_555 1_555
H4B C6B 1_555 1_555
H5B C6B 1_555 1_555
H6B C7B 1_555 1_555
H7B C8B 1_555 1_555
H8B C9B 1_555 1_555
N4 C7 1_555 1_555
C4 C5 1_555 1_555
C8 C9 1_555 1_555
C4B C5B 1_555 1_555
C8B C9B 1_555 1_555

#END
