
#######################################################################
#
#                 Cambridge Crystallographic Data Centre
#                                CCDC 
#
#######################################################################
#
# If this CIF has been generated from an entry in the Cambridge 
# Structural Database, then it will include bibliographic, chemical, 
# crystal, experimental, refinement or atomic coordinate data resulting 
# from the CCDC's data processing and validation procedures.
#
#######################################################################

data_JIVREM
_symmetry_cell_setting           orthorhombic
_symmetry_space_group_name_H-M   'P c c n'
_symmetry_Int_Tables_number      56
_space_group_name_Hall           '-P 2ab 2ac'
loop_
_symmetry_equiv_pos_site_id
_symmetry_equiv_pos_as_xyz
1 x,y,z
2 1/2+x,-y,1/2-z
3 -x,1/2+y,1/2-z
4 1/2-x,1/2-y,z
5 -x,-y,-z
6 1/2-x,y,1/2+z
7 x,1/2-y,1/2+z
8 1/2+x,1/2+y,-z
_cell_length_a                   8.74958(13)
_cell_length_b                   13.95144(19)
_cell_length_c                   16.47358(25)
_cell_angle_alpha                90
_cell_angle_beta                 90
_cell_angle_gamma                90
_cell_volume                     2010.92
loop_
_atom_site_label
_atom_site_type_symbol
_atom_site_fract_x
_atom_site_fract_y
_atom_site_fract_z
Zn1 Zn 0.25000 0.25000 0.06656
O1 O 0.33605 0.40039 0.18466
N1 N 0.456330 0.189680 0.110720
N2 N 0.687940 0.139090 0.110040
N3 N 0.833830 -0.000490 0.072390
N4 N 0.200100 0.140400 -0.020600
C1 C 0.568840 0.161150 0.063840
C2 C 0.503160 0.185330 0.189650
C3 C 0.647260 0.153580 0.189640
C4 C 0.835900 0.103260 0.082360
C5 C 0.220070 0.047480 -0.008040
C6 C 0.132260 0.153290 -0.095130
C7 C 0.890040 -0.066230 0.127430
H1 H 0.565560 0.156980 0.006260
H2 H 0.444280 0.201840 0.236080
H3 H 0.709670 0.143050 0.235990
H4 H 0.915650 0.12091 0.122310
H5 H 0.862240 0.133810 0.030000
H6 H 0.265050 0.019290 0.038670
H7 H 0.106100 0.212810 -0.11924
H8 H 0.935810 -0.052380 0.178420
Zn1G Zn 0.75000 -0.25000 -0.06656
O1C O 0.16395 0.09961 0.18466
N1D N 0.543670 -0.189680 -0.110720
N1C N 0.043670 0.310320 0.110720
N2D N 0.312060 -0.139090 -0.110040
N3D N 0.166170 0.000490 -0.072390
N4D N 0.799900 -0.140400 0.020600
N4C N 0.299900 0.359600 -0.020600
C1D C 0.431160 -0.161150 -0.063840
C2D C 0.496840 -0.185330 -0.189650
C3D C 0.352740 -0.153580 -0.189640
C4D C 0.164100 -0.103260 -0.082360
C5D C 0.779930 -0.047480 0.008040
C6D C 0.867740 -0.153290 0.095130
C7D C 0.109960 0.066230 -0.127430
H1D H 0.434440 -0.156980 -0.006260
H2D H 0.555720 -0.201840 -0.236080
H3D H 0.290330 -0.143050 -0.235990
H4D H 0.084350 -0.12091 -0.122310
H5D H 0.137760 -0.133810 -0.030000
H6D H 0.734950 -0.019290 -0.038670
H7D H 0.893900 -0.212810 0.11924
H8D H 0.064190 0.052380 -0.178420
Br1 Br 0.94078 -0.92301 0.34198
O2 O 0.25000 0.75000 -0.92011
loop_
_geom_bond_atom_site_label_1
_geom_bond_atom_site_label_2
_geom_bond_site_symmetry_1
_geom_bond_site_symmetry_2
Zn1 O1 1_555 1_555
N1 Zn1 1_555 1_555
N2 C1 1_555 1_555
N3 C4 1_555 1_555
N4 Zn1 1_555 1_555
C1 N1 1_555 1_555
C2 N1 1_555 1_555
C3 N2 1_555 1_555
C4 N2 1_555 1_555
C5 N4 1_555 1_555
C6 N4 1_555 1_555
C7 N3 1_555 1_555
H1 C1 1_555 1_555
H2 C2 1_555 1_555
H3 C3 1_555 1_555
H4 C4 1_555 1_555
H5 C4 1_555 1_555
H6 C5 1_555 1_555
H7 C6 1_555 1_555
H8 C7 1_555 1_555
Zn1G N1D 1_555 1_555
O1C Zn1 1_555 1_555
N1D C1D 1_555 1_555
N1C Zn1 1_555 1_555
N2D C1D 1_555 1_555
N3D C5 1_555 1_555
N4D Zn1G 1_555 1_555
N4C Zn1 1_555 1_555
C1D H1D 1_555 1_555
C2D N1D 1_555 1_555
C3D N2D 1_555 1_555
C4D N2D 1_555 1_555
C5D N3 1_555 1_555
C6D C7 1_555 1_555
C7D C6 1_555 1_555
H2D C2D 1_555 1_555
H3D C3D 1_555 1_555
H4D C4D 1_555 1_555
H5D C4D 1_555 1_555
H6D C5D 1_555 1_555
H7D C6D 1_555 1_555
H8D C7D 1_555 1_555
C2 C3 1_555 1_555
N3D C4D 1_555 1_555
N3D C7D 1_555 1_555
N4D C5D 1_555 1_555
N4D C6D 1_555 1_555
C2D C3D 1_555 1_555

#END
