
#######################################################################
#
#                 Cambridge Crystallographic Data Centre
#                                CCDC 
#
#######################################################################
#
# If this CIF has been generated from an entry in the Cambridge 
# Structural Database, then it will include bibliographic, chemical, 
# crystal, experimental, refinement or atomic coordinate data resulting 
# from the CCDC's data processing and validation procedures.
#
#######################################################################

data_JIVVUG
_symmetry_cell_setting           triclinic
_symmetry_space_group_name_H-M   'P -1'
_symmetry_Int_Tables_number      2
_space_group_name_Hall           '-P 1'
loop_
_symmetry_equiv_pos_site_id
_symmetry_equiv_pos_as_xyz
1 x,y,z
2 -x,-y,-z
_cell_length_a                   16.2688(3)
_cell_length_b                   18.7141(4)
_cell_length_c                   19.1070(4)
_cell_angle_alpha                116.0870(10)
_cell_angle_beta                 111.5880(10)
_cell_angle_gamma                92.1490(10)
_cell_volume                     4717.78
loop_
_atom_site_label
_atom_site_type_symbol
_atom_site_fract_x
_atom_site_fract_y
_atom_site_fract_z
W1 W 0.163715(14) 0.526198(13) 0.306775(14)
C1 C 0.2844(4) 0.5242(4) 0.4017(4)
N1 N 0.3484(3) 0.5233(3) 0.4536(3)
C2 C 0.2414(4) 0.5918(3) 0.2728(4)
N2 N 0.2810(3) 0.6232(3) 0.2514(3)
C3 C 0.2131(4) 0.6511(4) 0.4123(4)
N3 N 0.2347(4) 0.7176(4) 0.4680(4)
C4 C 0.0504(4) 0.5825(4) 0.2830(4)
N4 N -0.0090(4) 0.6134(3) 0.2680(3)
C5 C 0.0841(4) 0.4740(3) 0.1697(4)
N5 N 0.0398(3) 0.4478(3) 0.0977(3)
C6 C 0.1274(3) 0.5349(3) 0.4065(3)
N6 N 0.1108(3) 0.5377(3) 0.4611(3)
C7 C 0.0781(4) 0.4113(4) 0.2652(4)
N7 N 0.0300(4) 0.3518(3) 0.2434(3)
C8 C 0.2296(4) 0.4379(4) 0.2430(4)
N8 N 0.2688(3) 0.3945(3) 0.2115(3)
Cu1 Cu 0.0000 0.5000 0.0000
C9 C 0.1523(4) 0.6420(3) 0.0687(4)
H1 H 0.1223 0.6499 0.0193
H2 H 0.2173 0.6620 0.0908
N9 N 0.1319(3) 0.5531(3) 0.0404(3)
H3 H 0.1660 0.5469 0.0863
C10 C 0.1214(4) 0.6921(3) 0.1380(4)
H4 H 0.1443 0.6771 0.1830
H5 H 0.1499 0.7494 0.1634
N10 N -0.0250(3) 0.6002(3) 0.0865(3)
H6 H -0.0001 0.5983 0.1366
C11 C 0.0197(4) 0.6836(3) 0.1101(4)
H7 H -0.0054 0.6905 0.0589
C12 C 0.0032(4) 0.7516(4) 0.1820(4)
H8 H -0.0610 0.7470 0.1642
H9 H 0.0318 0.8040 0.1938
H10 H 0.0286 0.7465 0.2331
C13 C 0.2608(4) 0.5249(4) -0.0059(4)
H11 H 0.2706 0.4972 -0.0576
H12 H 0.2821 0.5834 0.0181
C14 C 0.1589(4) 0.5050(3) -0.0302(4)
H13 H 0.1274 0.5163 -0.0776
C15 C -0.1245(4) 0.5862(3) 0.0634(4)
H14 H -0.1325 0.6176 0.1161
C16 C -0.1788(4) 0.6118(4) -0.0026(4)
H15 H -0.1690 0.5834 -0.0541
H16 H -0.1574 0.6702 0.0212
C17 C -0.2808(4) 0.5917(4) -0.0263(4)
H17 H -0.2913 0.6244 0.0241
H18 H -0.3139 0.6058 -0.0704
C18 C 0.3165(4) 0.4993(4) 0.0594(4)
H19 H 0.3798 0.5095 0.0696
H20 H 0.3129 0.5318 0.1137
Cu2 Cu 0.0000 0.5000 0.5000
C19 C -0.1107(4) 0.5405(3) 0.3735(3)
H21 H -0.0621 0.5475 0.3568
N11 N -0.0703(3) 0.5765(3) 0.4694(3)
H22 H -0.1178 0.5758 0.4837
C20 C -0.1846(4) 0.5812(4) 0.3407(4)
H23 H -0.2306 0.5787 0.3610
H24 H -0.1577 0.6384 0.3637
N12 N -0.0724(3) 0.4151(3) 0.3705(3)
H25 H -0.0343 0.4191 0.3467
C21 C -0.2290(4) 0.5386(4) 0.2420(4)
H26 H -0.2778 0.5633 0.2226
H27 H -0.1843 0.5458 0.2218
C22 C -0.2670(4) 0.4478(4) 0.2045(4)
H28 H -0.2932 0.4213 0.1421
H29 H -0.3151 0.4407 0.2211
C23 C -0.1923(4) 0.4074(4) 0.2366(4)
H30 H -0.2184 0.3499 0.2129
H31 H -0.1463 0.4112 0.2167
C24 C -0.1487(4) 0.4490(3) 0.3345(4)
H32 H -0.1955 0.4422 0.3533
C25 C 0.0140(4) 0.6993(3) 0.6135(4)
H33 H -0.0357 0.6838 0.6244
H34 H 0.0283 0.7585 0.6393
C26 C -0.0194(4) 0.6629(3) 0.5166(3)
H35 H -0.0585 0.6947 0.4973
H36 H 0.0323 0.6664 0.5035
C27 C -0.0972(4) 0.3250(3) 0.3401(4)
H37 H -0.1107 0.2962 0.2787
C28 C -0.1824(4) 0.2989(3) 0.3476(4)
H38 H -0.2321 0.3157 0.3174
H39 H -0.1709 0.3241 0.4073
H40 H -0.1977 0.2404 0.3228
Cu3 Cu 0.5000 0.5000 0.5000
C29 C 0.4624(4) 0.3188(4) 0.4180(4)
H41 H 0.4342 0.2695 0.4137
H42 H 0.5272 0.3221 0.4371
N13 N 0.4473(3) 0.3916(3) 0.4829(3)
H43 H 0.3860 0.3860 0.4629
C30 C 0.4233(4) 0.3130(4) 0.3299(4)
H44 H 0.3626 0.3223 0.3176
H45 H 0.4171 0.2573 0.2874
N14 N 0.4740(3) 0.4577(3) 0.3727(3)
H46 H 0.4147 0.4587 0.3478
C31 C 0.4766(4) 0.3711(4) 0.3167(4)
H47 H 0.4441 0.3585 0.2566
C32 C 0.5738(4) 0.3610(4) 0.3314(4)
H48 H 0.6038 0.3995 0.3227
H49 H 0.5715 0.3063 0.2913
H50 H 0.6070 0.3708 0.3892
C33 C 0.5434(4) 0.5837(5) 0.2794(4)
H51 H 0.6062 0.5798 0.2945
H52 H 0.5185 0.5787 0.2224
C34 C 0.4893(4) 0.5128(4) 0.2771(4)
H53 H 0.4252 0.5129 0.2565
H54 H 0.4957 0.4609 0.2378
C35 C 0.5250(4) 0.5224(4) 0.3677(4)
H55 H 0.5888 0.5192 0.3858
C36 C 0.5404(4) 0.6645(4) 0.3421(5)
H56 H 0.5772 0.7073 0.3432
H57 H 0.4783 0.6706 0.3243
C37 C 0.5761(4) 0.6738(4) 0.4328(5)
H58 H 0.5716 0.7264 0.4725
H59 H 0.6397 0.6719 0.4525
C38 C 0.4792(4) 0.3952(4) 0.5682(4)
H60 H 0.5428 0.3913 0.5866
W1A W -0.163715(14) 0.473802(13) -0.306775(14)
C1A C -0.2844(4) 0.4758(4) -0.4017(4)
N1A N -0.3484(3) 0.4767(3) -0.4536(3)
N1A_2 N 0.6516(3) 0.4767(3) 0.5464(3)
C2A C -0.2414(4) 0.4082(3) -0.2728(4)
N2A N -0.2810(3) 0.3768(3) -0.2514(3)
C3A C -0.2131(4) 0.3489(4) -0.4123(4)
N3A N -0.2347(4) 0.2824(4) -0.4680(4)
C4A C -0.0504(4) 0.4175(4) -0.2830(4)
N4A N 0.0090(4) 0.3866(3) -0.2680(3)
C5A C -0.0841(4) 0.5260(3) -0.1697(4)
N5A N -0.0398(3) 0.5522(3) -0.0977(3)
C6A C -0.1274(3) 0.4651(3) -0.4065(3)
N6A N -0.1108(3) 0.4623(3) -0.4611(3)
N6A_2 N -0.1108(3) 0.4623(3) 0.5389(3)
C7A C -0.0781(4) 0.5887(4) -0.2652(4)
N7A N -0.0300(4) 0.6482(3) -0.2434(3)
C8A C -0.2296(4) 0.5621(4) -0.2430(4)
N8A N -0.2688(3) 0.6055(3) -0.2115(3)
C9A C -0.1523(4) 0.3580(3) -0.0687(4)
H1A H -0.1223 0.3501 -0.0193
H2A H -0.2173 0.3380 -0.0908
N9A N -0.1319(3) 0.4469(3) -0.0404(3)
H3A H -0.1660 0.4531 -0.0863
C10A C -0.1214(4) 0.3079(3) -0.1380(4)
H4A H -0.1443 0.3229 -0.1830
H5A H -0.1499 0.2506 -0.1634
N10A N 0.0250(3) 0.3998(3) -0.0865(3)
H6A H 0.0001 0.4017 -0.1366
C11A C -0.0197(4) 0.3164(3) -0.1101(4)
H7A H 0.0054 0.3095 -0.0589
C12A C -0.0032(4) 0.2484(4) -0.1820(4)
H8A H 0.0610 0.2530 -0.1642
H9A H -0.0318 0.1960 -0.1938
H10A H -0.0286 0.2535 -0.2331
C13A C -0.2608(4) 0.4751(4) 0.0059(4)
H11A H -0.2706 0.5028 0.0576
H12A H -0.2821 0.4166 -0.0181
C14A C -0.1589(4) 0.4950(3) 0.0302(4)
H13A H -0.1274 0.4837 0.0776
C15A C 0.1245(4) 0.4138(3) -0.0634(4)
H14A H 0.1325 0.3824 -0.1161
C16A C 0.1788(4) 0.3882(4) 0.0026(4)
H15A H 0.1690 0.4166 0.0541
H16A H 0.1574 0.3298 -0.0212
C17A C 0.2808(4) 0.4083(4) 0.0263(4)
H17A H 0.2913 0.3756 -0.0241
H18A H 0.3139 0.3942 0.0704
C18A C -0.3165(4) 0.5007(4) -0.0594(4)
H19A H -0.3798 0.4905 -0.0696
H20A H -0.3129 0.4682 -0.1137
Cu2_2 Cu 0.0000 0.5000 -0.5000
C19A C 0.1107(4) 0.4595(3) 0.6265(3)
H21A H 0.0621 0.4525 0.6432
N11A N 0.0703(3) 0.4235(3) 0.5306(3)
H22A H 0.1178 0.4242 0.5163
C20A C 0.1846(4) 0.4188(4) 0.6593(4)
H23A H 0.2306 0.4213 0.6390
H24A H 0.1577 0.3616 0.6363
N12A N 0.0724(3) 0.5849(3) 0.6295(3)
H25A H 0.0343 0.5809 0.6533
C21A C 0.2290(4) 0.4614(4) 0.7580(4)
H26A H 0.2778 0.4367 0.7774
H27A H 0.1843 0.4542 0.7782
C22A C 0.2670(4) 0.5522(4) 0.7955(4)
H28A H 0.2932 0.5787 0.8579
H29A H 0.3151 0.5593 0.7789
C23A C 0.1923(4) 0.5926(4) 0.7634(4)
H30A H 0.2184 0.6501 0.7871
H31A H 0.1463 0.5888 0.7833
C24A C 0.1487(4) 0.5510(3) 0.6655(4)
H32A H 0.1955 0.5578 0.6467
C25A C -0.0140(4) 0.3007(3) 0.3865(4)
H33A H 0.0357 0.3162 0.3756
H34A H -0.0283 0.2415 0.3607
C26A C 0.0194(4) 0.3371(3) 0.4834(3)
H35A H 0.0585 0.3053 0.5027
H36A H -0.0323 0.3336 0.4965
C27A C 0.0972(4) 0.6750(3) 0.6599(4)
H37A H 0.1107 0.7038 0.7213
C28A C 0.1824(4) 0.7011(3) 0.6524(4)
H38A H 0.2321 0.6843 0.6826
H39A H 0.1709 0.6759 0.5927
H40A H 0.1977 0.7596 0.6772
Cu3_2 Cu -0.5000 0.5000 -0.5000
C29A C 0.5376(4) 0.6812(4) 0.5820(4)
H41A H 0.5658 0.7305 0.5863
H42A H 0.4728 0.6779 0.5629
N13A N 0.5527(3) 0.6084(3) 0.5171(3)
H43A H 0.6140 0.6140 0.5371
C30A C 0.5767(4) 0.6870(4) 0.6701(4)
H44A H 0.6374 0.6777 0.6824
H45A H 0.5829 0.7427 0.7126
N14A N 0.5260(3) 0.5423(3) 0.6273(3)
H46A H 0.5853 0.5413 0.6522
C31A C 0.5234(4) 0.6289(4) 0.6833(4)
H47A H 0.5559 0.6415 0.7434
C32A C 0.4262(4) 0.6390(4) 0.6686(4)
H48A H 0.3962 0.6005 0.6773
H49A H 0.4285 0.6937 0.7087
H50A H 0.3930 0.6292 0.6108
C33A C 0.4566(4) 0.4163(5) 0.7206(4)
H51A H 0.3938 0.4202 0.7055
H52A H 0.4815 0.4213 0.7776
C34A C 0.5107(4) 0.4872(4) 0.7229(4)
H53A H 0.5748 0.4871 0.7435
H54A H 0.5043 0.5391 0.7622
C35A C 0.4750(4) 0.4776(4) 0.6323(4)
H55A H 0.4112 0.4808 0.6142
C36A C 0.4596(4) 0.3355(4) 0.6579(5)
H56A H 0.4228 0.2927 0.6568
H57A H 0.5217 0.3294 0.6757
C37A C 0.4239(4) 0.3262(4) 0.5672(5)
H58A H 0.4284 0.2736 0.5275
H59A H 0.3603 0.3281 0.5475
C38A C 0.5208(4) 0.6048(4) 0.4318(4)
H60A H 0.4572 0.6087 0.4134
W2 W 0.184460(15) 0.089857(14) 0.342688(15)
C39 C 0.1238(4) 0.0156(3) 0.3815(4)
N15 N 0.0909(3) -0.0177(3) 0.4062(3)
C40 C 0.3067(4) 0.1032(3) 0.3241(4)
N16 N 0.3721(4) 0.1092(3) 0.3154(3)
C41 C 0.2981(4) 0.0818(4) 0.4420(4)
N17 N 0.3563(4) 0.0744(4) 0.4918(4)
C42 C 0.1719(4) 0.1705(4) 0.4589(4)
N18 N 0.1616(4) 0.2103(3) 0.5192(4)
C43 C 0.2123(4) 0.2144(4) 0.3672(4)
N19 N 0.2304(4) 0.2806(3) 0.3806(3)
C44 C 0.0396(4) 0.0838(4) 0.2908(4)
N20 N -0.0372(4) 0.0776(3) 0.2626(4)
C45 C 0.1428(4) 0.0799(3) 0.2164(4)
N21 N 0.1199(4) 0.0739(3) 0.1487(3)
C46 C 0.1783(4) -0.0355(4) 0.2554(4)
N22 N 0.1743(4) -0.1007(3) 0.2062(4)
Cu4 Cu 0.0000 0.0000 0.0000
C47 C -0.1951(6) 0.1107(5) 0.0839(5)
H61 H -0.2375 0.0673 0.0766
H62 H -0.1533 0.1419 0.1446
N23 N -0.0885(4) 0.0179(3) 0.0540(4)
H63 H -0.0542 0.0465 0.1120
C48 C -0.1418(5) 0.0731(4) 0.0312(5)
H64 H -0.1857 0.0410 -0.0295
N24 N 0.0293(4) -0.0997(3) 0.0127(4)
H65 H 0.0729 -0.0772 0.0678
C49 C -0.1459(5) -0.0553(5) 0.0372(5)
H66 H -0.1860 -0.0868 -0.0239
H67 H -0.1834 -0.0389 0.0683
C50 C -0.0880(6) -0.1089(5) 0.0652(5)
H68 H -0.0409 -0.0737 0.1230
H69 H -0.1265 -0.1470 0.0685
C51 C -0.0428(5) -0.1575(4) 0.0097(5)
H70 H -0.0113 -0.1903 0.0343
C52 C -0.1103(6) -0.2159(5) -0.0817(5)
H71 H -0.0784 -0.2451 -0.1147
H72 H -0.1440 -0.1856 -0.1069
H73 H -0.1514 -0.2541 -0.0818
C53 C -0.0778(5) 0.1394(4) 0.0387(5)
H74 H -0.0332 0.1711 0.0991
C54 C -0.1282(6) 0.1986(5) 0.0140(5)
H75 H -0.1690 0.1696 -0.0470
H76 H -0.0844 0.2427 0.0242
C55 C -0.1816(6) 0.2336(5) 0.0646(5)
H77 H -0.1401 0.2686 0.1248
H78 H -0.2162 0.2670 0.0442
C56 C -0.2470(6) 0.1662(6) 0.0566(6)
H79 H -0.2924 0.1344 -0.0026
H80 H -0.2781 0.1910 0.0927
W2A W -0.184460(15) -0.089857(14) -0.342688(15)
C39A C -0.1238(4) -0.0156(3) -0.3815(4)
N15A N -0.0909(3) 0.0177(3) -0.4062(3)
C40A C -0.3067(4) -0.1032(3) -0.3241(4)
N16A N -0.3721(4) -0.1092(3) -0.3154(3)
C41A C -0.2981(4) -0.0818(4) -0.4420(4)
N17A N -0.3563(4) -0.0744(4) -0.4918(4)
C42A C -0.1719(4) -0.1705(4) -0.4589(4)
N18A N -0.1616(4) -0.2103(3) -0.5192(4)
C43A C -0.2123(4) -0.2144(4) -0.3672(4)
N19A N -0.2304(4) -0.2806(3) -0.3806(3)
C44A C -0.0396(4) -0.0838(4) -0.2908(4)
N20A N 0.0372(4) -0.0776(3) -0.2626(4)
C45A C -0.1428(4) -0.0799(3) -0.2164(4)
N21A N -0.1199(4) -0.0739(3) -0.1487(3)
C46A C -0.1783(4) 0.0355(4) -0.2554(4)
N22A N -0.1743(4) 0.1007(3) -0.2062(4)
C47A C 0.1951(6) -0.1107(5) -0.0839(5)
H61A H 0.2375 -0.0673 -0.0766
H62A H 0.1533 -0.1419 -0.1446
N23A N 0.0885(4) -0.0179(3) -0.0540(4)
H63A H 0.0542 -0.0465 -0.1120
C48A C 0.1418(5) -0.0731(4) -0.0312(5)
H64A H 0.1857 -0.0410 0.0295
N24A N -0.0293(4) 0.0997(3) -0.0127(4)
H65A H -0.0729 0.0772 -0.0678
C49A C 0.1459(5) 0.0553(5) -0.0372(5)
H66A H 0.1860 0.0868 0.0239
H67A H 0.1834 0.0389 -0.0683
C50A C 0.0880(6) 0.1089(5) -0.0652(5)
H68A H 0.0409 0.0737 -0.1230
H69A H 0.1265 0.1470 -0.0685
C51A C 0.0428(5) 0.1575(4) -0.0097(5)
H70A H 0.0113 0.1903 -0.0343
C52A C 0.1103(6) 0.2159(5) 0.0817(5)
H71A H 0.0784 0.2451 0.1147
H72A H 0.1440 0.1856 0.1069
H73A H 0.1514 0.2541 0.0818
C53A C 0.0778(5) -0.1394(4) -0.0387(5)
H74A H 0.0332 -0.1711 -0.0991
C54A C 0.1282(6) -0.1986(5) -0.0140(5)
H75A H 0.1690 -0.1696 0.0470
H76A H 0.0844 -0.2427 -0.0242
C55A C 0.1816(6) -0.2336(5) -0.0646(5)
H77A H 0.1401 -0.2686 -0.1248
H78A H 0.2162 -0.2670 -0.0442
C56A C 0.2470(6) -0.1662(6) -0.0566(6)
H79A H 0.2924 -0.1344 0.0026
H80A H 0.2781 -0.1910 -0.0927
Cu5 Cu 1.0000 1.0000 0.5000
C57 C 0.7900(5) 1.0907(4) 0.3576(5)
H81 H 0.7422 1.0414 0.3202
H82 H 0.8206 1.0983 0.3261
H83 H 0.7644 1.1366 0.3789
N25 N 0.9002(3) 1.0128(3) 0.4061(3)
H84 H 0.9288 1.0220 0.3769
C58 C 0.8570(4) 1.0838(4) 0.4324(5)
H85 H 0.8252 1.0777 0.4648
N26 N 0.9446(3) 0.8773(3) 0.4200(3)
H86 H 0.9053 0.8622 0.4376
C59 C 0.8343(4) 0.9317(3) 0.3423(4)
H87 H 0.8053 0.9305 0.2868
C60 C 0.7606(5) 0.9141(4) 0.3665(5)
H88 H 0.7267 0.9564 0.3731
H89 H 0.7877 0.9143 0.4211
C61 C 0.6959(4) 0.8300(4) 0.2958(5)
H90 H 0.6498 0.8181 0.3125
H91 H 0.6654 0.8316 0.2425
C62 C 0.7475(5) 0.7627(4) 0.2813(5)
H92 H 0.7698 0.7554 0.3317
H93 H 0.7063 0.7116 0.2325
C63 C 0.8250(4) 0.7819(4) 0.2648(5)
H94 H 0.8015 0.7787 0.2086
H95 H 0.8597 0.7405 0.2627
C64 C 0.8888(4) 0.8661(3) 0.3319(4)
H96 H 0.9310 0.8766 0.3100
C65 C 1.0094(4) 0.8237(4) 0.4191(4)
H97 H 1.0485 0.8347 0.3952
H98 H 0.9757 0.7669 0.3820
C66 C 0.9324(4) 1.1633(4) 0.4918(5)
H99 H 0.9044 1.2092 0.4979
H100 H 0.9717 1.1637 0.4641
C57A C 1.2100(5) 0.9093(4) 0.6424(5)
H81A H 1.2578 0.9586 0.6798
H82A H 1.1794 0.9017 0.6739
H83A H 1.2356 0.8634 0.6211
N25A N 1.0998(3) 0.9872(3) 0.5939(3)
H84A H 1.0712 0.9780 0.6231
C58A C 1.1430(4) 0.9162(4) 0.5676(5)
H85A H 1.1748 0.9223 0.5352
N26A N 1.0554(3) 1.1227(3) 0.5800(3)
H86A H 1.0947 1.1378 0.5624
C59A C 1.1657(4) 1.0683(3) 0.6577(4)
H87A H 1.1947 1.0695 0.7132
C60A C 1.2394(5) 1.0859(4) 0.6335(5)
H88A H 1.2733 1.0436 0.6269
H89A H 1.2123 1.0857 0.5789
C61A C 1.3041(4) 1.1700(4) 0.7042(5)
H90A H 1.3502 1.1819 0.6875
H91A H 1.3346 1.1684 0.7575
C62A C 1.2525(5) 1.2373(4) 0.7187(5)
H92A H 1.2302 1.2446 0.6683
H93A H 1.2937 1.2884 0.7675
C63A C 1.1750(4) 1.2181(4) 0.7352(5)
H94A H 1.1985 1.2213 0.7914
H95A H 1.1403 1.2595 0.7373
C64A C 1.1112(4) 1.1339(3) 0.6681(4)
H96A H 1.0690 1.1234 0.6900
C65A C 0.9906(4) 1.1763(4) 0.5809(4)
H97A H 0.9515 1.1653 0.6048
H98A H 1.0243 1.2331 0.6180
C66A C 1.0676(4) 0.8367(4) 0.5082(5)
H99A H 1.0956 0.7908 0.5021
H100A H 1.0283 0.8363 0.5359
Cu6 Cu 0.5000 1.0000 0.5000
C67 C 0.2828(4) 0.8531(4) 0.3894(4)
H101 H 0.2596 0.8490 0.3334
H102 H 0.2905 0.9083 0.4320
H103 H 0.2406 0.8166 0.3903
N27 N 0.4984(3) 1.0206(3) 0.4041(3)
H104 H 0.4465 1.0375 0.3868
C68 C 0.3737(4) 0.8300(4) 0.4090(4)
H105 H 0.3636 0.7732 0.3653
N28 N 0.4408(3) 0.8821(3) 0.4041(3)
H106 H 0.4882 0.8574 0.4082
C69 C 0.4127(4) 0.8794(4) 0.3197(4)
H107 H 0.3561 0.8979 0.3069
C70 C 0.3960(4) 0.7943(4) 0.2456(4)
H108 H 0.4501 0.7735 0.2588
H109 H 0.3465 0.7576 0.2389
C71 C 0.3720(4) 0.7962(4) 0.1617(4)
H110 H 0.3145 0.8117 0.1455
H111 H 0.3650 0.7420 0.1163
C72 C 0.4461(4) 0.8572(4) 0.1711(4)
H112 H 0.5022 0.8389 0.1820
H113 H 0.4279 0.8592 0.1177
C73 C 0.4622(4) 0.9425(4) 0.2449(4)
H114 H 0.4079 0.9631 0.2314
H115 H 0.5116 0.9794 0.2518
C74 C 0.4860(4) 0.9403(4) 0.3293(4)
H116 H 0.5430 0.9225 0.3435
C75 C 0.5736(4) 1.0856(4) 0.4262(4)
H117 H 0.5615 1.0936 0.3768
H118 H 0.6301 1.0682 0.4394
C76 C 0.4162(4) 0.8348(4) 0.4980(4)
H119 H 0.4759 0.8234 0.5078
H120 H 0.3790 0.7917 0.4962
C67A C 0.7172(4) 1.1469(4) 0.6106(4)
H101A H 0.7404 1.1510 0.6666
H102A H 0.7095 1.0917 0.5680
H103A H 0.7594 1.1834 0.6097
N27A N 0.5016(3) 0.9794(3) 0.5959(3)
H104A H 0.5535 0.9625 0.6132
C68A C 0.6263(4) 1.1700(4) 0.5910(4)
H105A H 0.6364 1.2268 0.6347
N28A N 0.5592(3) 1.1179(3) 0.5959(3)
H106A H 0.5118 1.1426 0.5918
C69A C 0.5873(4) 1.1206(4) 0.6803(4)
H107A H 0.6439 1.1021 0.6931
C70A C 0.6040(4) 1.2057(4) 0.7544(4)
H108A H 0.5499 1.2265 0.7412
H109A H 0.6535 1.2424 0.7611
C71A C 0.6280(4) 1.2038(4) 0.8383(4)
H110A H 0.6855 1.1883 0.8545
H111A H 0.6350 1.2580 0.8837
C72A C 0.5539(4) 1.1428(4) 0.8289(4)
H112A H 0.4978 1.1611 0.8180
H113A H 0.5721 1.1408 0.8823
C73A C 0.5378(4) 1.0575(4) 0.7551(4)
H114A H 0.5921 1.0369 0.7686
H115A H 0.4884 1.0206 0.7482
C74A C 0.5140(4) 1.0597(4) 0.6707(4)
H116A H 0.4570 1.0775 0.6565
C75A C 0.4264(4) 0.9144(4) 0.5738(4)
H117A H 0.4385 0.9064 0.6232
H118A H 0.3699 0.9318 0.5606
C76A C 0.5838(4) 1.1652(4) 0.5020(4)
H119A H 0.5241 1.1766 0.4922
H120A H 0.6210 1.2083 0.5038
O1 O 0.7573(3) 0.5661(2) 0.4890(3)
loop_
_geom_bond_atom_site_label_1
_geom_bond_atom_site_label_2
_geom_bond_site_symmetry_1
_geom_bond_site_symmetry_2
W1 C1 1_555 1_555
C1 N1 1_555 1_555
N1 Cu3 1_555 1_555
C2 W1 1_555 1_555
N2 C2 1_555 1_555
C3 W1 1_555 1_555
N3 C3 1_555 1_555
C4 W1 1_555 1_555
N4 C4 1_555 1_555
C5 W1 1_555 1_555
N5 C5 1_555 1_555
C6 W1 1_555 1_555
N6 C6 1_555 1_555
C7 W1 1_555 1_555
N7 C7 1_555 1_555
C8 W1 1_555 1_555
N8 C8 1_555 1_555
Cu1 N5 1_555 1_555
C9 H1 1_555 1_555
H2 C9 1_555 1_555
N9 Cu1 1_555 1_555
H3 N9 1_555 1_555
C10 C9 1_555 1_555
H4 C10 1_555 1_555
H5 C10 1_555 1_555
N10 Cu1 1_555 1_555
H6 N10 1_555 1_555
C11 C10 1_555 1_555
H7 C11 1_555 1_555
C12 C11 1_555 1_555
H8 C12 1_555 1_555
H9 C12 1_555 1_555
H10 C12 1_555 1_555
C13 H11 1_555 1_555
H12 C13 1_555 1_555
C14 N9 1_555 1_555
H13 C14 1_555 1_555
C15 N10 1_555 1_555
H14 C15 1_555 1_555
C16 C15 1_555 1_555
H15 C16 1_555 1_555
H16 C16 1_555 1_555
C17 C16 1_555 1_555
H17 C17 1_555 1_555
H18 C17 1_555 1_555
C18 C13 1_555 1_555
H19 C18 1_555 1_555
H20 C18 1_555 1_555
Cu2 N6 1_555 1_555
C19 H21 1_555 1_555
N11 Cu2 1_555 1_555
H22 N11 1_555 1_555
C20 C19 1_555 1_555
H23 C20 1_555 1_555
H24 C20 1_555 1_555
N12 Cu2 1_555 1_555
H25 N12 1_555 1_555
C21 C20 1_555 1_555
H26 C21 1_555 1_555
H27 C21 1_555 1_555
C22 C21 1_555 1_555
H28 C22 1_555 1_555
H29 C22 1_555 1_555
C23 C22 1_555 1_555
H30 C23 1_555 1_555
H31 C23 1_555 1_555
C24 C19 1_555 1_555
H32 C24 1_555 1_555
C25 H33 1_555 1_555
H34 C25 1_555 1_555
C26 N11 1_555 1_555
H35 C26 1_555 1_555
H36 C26 1_555 1_555
C27 N12 1_555 1_555
H37 C27 1_555 1_555
C28 C27 1_555 1_555
H38 C28 1_555 1_555
H39 C28 1_555 1_555
H40 C28 1_555 1_555
Cu3 N13 1_555 1_555
C29 H41 1_555 1_555
H42 C29 1_555 1_555
N13 C29 1_555 1_555
H43 N13 1_555 1_555
C30 C29 1_555 1_555
H44 C30 1_555 1_555
H45 C30 1_555 1_555
N14 Cu3 1_555 1_555
H46 N14 1_555 1_555
C31 C30 1_555 1_555
H47 C31 1_555 1_555
C32 C31 1_555 1_555
H48 C32 1_555 1_555
H49 C32 1_555 1_555
H50 C32 1_555 1_555
C33 H51 1_555 1_555
H52 C33 1_555 1_555
C34 C33 1_555 1_555
H53 C34 1_555 1_555
H54 C34 1_555 1_555
C35 N14 1_555 1_555
H55 C35 1_555 1_555
C36 C33 1_555 1_555
H56 C36 1_555 1_555
H57 C36 1_555 1_555
C37 C36 1_555 1_555
H58 C37 1_555 1_555
H59 C37 1_555 1_555
C38 N13 1_555 1_555
H60 C38 1_555 1_555
W2 C39 1_555 1_555
C39 N15 1_555 1_555
C40 W2 1_555 1_555
N16 C40 1_555 1_555
C41 W2 1_555 1_555
N17 C41 1_555 1_555
C42 W2 1_555 1_555
N18 C42 1_555 1_555
C43 W2 1_555 1_555
N19 C43 1_555 1_555
C44 W2 1_555 1_555
N20 C44 1_555 1_555
C45 W2 1_555 1_555
N21 C45 1_555 1_555
C46 W2 1_555 1_555
N22 C46 1_555 1_555
Cu4 N21 1_555 1_555
C47 H61 1_555 1_555
H62 C47 1_555 1_555
N23 Cu4 1_555 1_555
H63 N23 1_555 1_555
C48 C47 1_555 1_555
H64 C48 1_555 1_555
N24 Cu4 1_555 1_555
H65 N24 1_555 1_555
C49 N23 1_555 1_555
H66 C49 1_555 1_555
H67 C49 1_555 1_555
C50 C49 1_555 1_555
H68 C50 1_555 1_555
H69 C50 1_555 1_555
C51 N24 1_555 1_555
H70 C51 1_555 1_555
C52 C51 1_555 1_555
H71 C52 1_555 1_555
H72 C52 1_555 1_555
H73 C52 1_555 1_555
C53 C48 1_555 1_555
H74 C53 1_555 1_555
C54 C53 1_555 1_555
H75 C54 1_555 1_555
H76 C54 1_555 1_555
C55 C54 1_555 1_555
H77 C55 1_555 1_555
H78 C55 1_555 1_555
C56 C47 1_555 1_555
H79 C56 1_555 1_555
H80 C56 1_555 1_555
Cu5 N25 1_555 1_555
C57 H81 1_555 1_555
H82 C57 1_555 1_555
H83 C57 1_555 1_555
N25 H84 1_555 1_555
C58 C57 1_555 1_555
H85 C58 1_555 1_555
N26 Cu5 1_555 1_555
H86 N26 1_555 1_555
C59 N25 1_555 1_555
H87 C59 1_555 1_555
C60 C59 1_555 1_555
H88 C60 1_555 1_555
H89 C60 1_555 1_555
C61 C60 1_555 1_555
H90 C61 1_555 1_555
H91 C61 1_555 1_555
C62 C61 1_555 1_555
H92 C62 1_555 1_555
H93 C62 1_555 1_555
C63 C62 1_555 1_555
H94 C63 1_555 1_555
H95 C63 1_555 1_555
C64 N26 1_555 1_555
H96 C64 1_555 1_555
C65 N26 1_555 1_555
H97 C65 1_555 1_555
H98 C65 1_555 1_555
C66 C58 1_555 1_555
H99 C66 1_555 1_555
H100 C66 1_555 1_555
Cu6 N27 1_555 1_555
C67 H101 1_555 1_555
H102 C67 1_555 1_555
H103 C67 1_555 1_555
N27 H104 1_555 1_555
C68 C67 1_555 1_555
H105 C68 1_555 1_555
N28 Cu6 1_555 1_555
H106 N28 1_555 1_555
C69 N28 1_555 1_555
H107 C69 1_555 1_555
C70 C69 1_555 1_555
H108 C70 1_555 1_555
H109 C70 1_555 1_555
C71 C70 1_555 1_555
H110 C71 1_555 1_555
H111 C71 1_555 1_555
C72 C71 1_555 1_555
H112 C72 1_555 1_555
H113 C72 1_555 1_555
C73 C72 1_555 1_555
H114 C73 1_555 1_555
H115 C73 1_555 1_555
C74 N27 1_555 1_555
H116 C74 1_555 1_555
C75 N27 1_555 1_555
H117 C75 1_555 1_555
H118 C75 1_555 1_555
C76 C68 1_555 1_555
H119 C76 1_555 1_555
H120 C76 1_555 1_555
W1A C1A 1_555 1_555
C1A N1A 1_555 1_555
N1A Cu3_2 1_555 1_555
N1A_2 Cu3 1_555 1_555
C2A W1A 1_555 1_555
N2A C2A 1_555 1_555
C3A W1A 1_555 1_555
N3A C3A 1_555 1_555
C4A W1A 1_555 1_555
N4A C4A 1_555 1_555
C5A W1A 1_555 1_555
N5A Cu1 1_555 1_555
C6A W1A 1_555 1_555
N6A C6A 1_555 1_555
N6A_2 Cu2 1_555 1_555
C7A W1A 1_555 1_555
N7A C7A 1_555 1_555
C8A W1A 1_555 1_555
N8A C8A 1_555 1_555
C9A H1A 1_555 1_555
H2A C9A 1_555 1_555
N9A Cu1 1_555 1_555
H3A N9A 1_555 1_555
C10A C9A 1_555 1_555
H4A C10A 1_555 1_555
H5A C10A 1_555 1_555
N10A Cu1 1_555 1_555
H6A N10A 1_555 1_555
C11A C10A 1_555 1_555
H7A C11A 1_555 1_555
C12A C11A 1_555 1_555
H8A C12A 1_555 1_555
H9A C12A 1_555 1_555
H10A C12A 1_555 1_555
C13A H11A 1_555 1_555
H12A C13A 1_555 1_555
C14A C15 1_555 1_555
H13A C14A 1_555 1_555
C15A C14 1_555 1_555
H14A C15A 1_555 1_555
C16A C15A 1_555 1_555
H15A C16A 1_555 1_555
H16A C16A 1_555 1_555
C17A C18 1_555 1_555
H17A C17A 1_555 1_555
H18A C17A 1_555 1_555
C18A C17 1_555 1_555
H19A C18A 1_555 1_555
H20A C18A 1_555 1_555
Cu2_2 N6A 1_555 1_555
C19A H21A 1_555 1_555
N11A Cu2 1_555 1_555
H22A N11A 1_555 1_555
C20A C19A 1_555 1_555
H23A C20A 1_555 1_555
H24A C20A 1_555 1_555
N12A Cu2 1_555 1_555
H25A N12A 1_555 1_555
C21A C20A 1_555 1_555
H26A C21A 1_555 1_555
H27A C21A 1_555 1_555
C22A C21A 1_555 1_555
H28A C22A 1_555 1_555
H29A C22A 1_555 1_555
C23A C22A 1_555 1_555
H30A C23A 1_555 1_555
H31A C23A 1_555 1_555
C24A C19A 1_555 1_555
H32A C24A 1_555 1_555
C25A C27 1_555 1_555
H33A C25A 1_555 1_555
H34A C25A 1_555 1_555
C26A N11A 1_555 1_555
H35A C26A 1_555 1_555
H36A C26A 1_555 1_555
C27A C25 1_555 1_555
H37A C27A 1_555 1_555
C28A C27A 1_555 1_555
H38A C28A 1_555 1_555
H39A C28A 1_555 1_555
H40A C28A 1_555 1_555
C29A H41A 1_555 1_555
H42A C29A 1_555 1_555
N13A Cu3 1_555 1_555
H43A N13A 1_555 1_555
C30A C29A 1_555 1_555
H44A C30A 1_555 1_555
H45A C30A 1_555 1_555
N14A Cu3 1_555 1_555
H46A N14A 1_555 1_555
C31A C30A 1_555 1_555
H47A C31A 1_555 1_555
C32A C31A 1_555 1_555
H48A C32A 1_555 1_555
H49A C32A 1_555 1_555
H50A C32A 1_555 1_555
C33A H51A 1_555 1_555
H52A C33A 1_555 1_555
C34A C33A 1_555 1_555
H53A C34A 1_555 1_555
H54A C34A 1_555 1_555
C35A C38 1_555 1_555
H55A C35A 1_555 1_555
C36A C33A 1_555 1_555
H56A C36A 1_555 1_555
H57A C36A 1_555 1_555
C37A C38 1_555 1_555
H58A C37A 1_555 1_555
H59A C37A 1_555 1_555
C38A C35 1_555 1_555
H60A C38A 1_555 1_555
W2A C39A 1_555 1_555
C39A N15A 1_555 1_555
C40A W2A 1_555 1_555
N16A C40A 1_555 1_555
C41A W2A 1_555 1_555
N17A C41A 1_555 1_555
C42A W2A 1_555 1_555
N18A C42A 1_555 1_555
C43A W2A 1_555 1_555
N19A C43A 1_555 1_555
C44A W2A 1_555 1_555
N20A C44A 1_555 1_555
C45A W2A 1_555 1_555
N21A Cu4 1_555 1_555
C46A W2A 1_555 1_555
N22A C46A 1_555 1_555
C47A H61A 1_555 1_555
H62A C47A 1_555 1_555
N23A Cu4 1_555 1_555
H63A N23A 1_555 1_555
C48A C47A 1_555 1_555
H64A C48A 1_555 1_555
N24A Cu4 1_555 1_555
H65A N24A 1_555 1_555
C49A N23A 1_555 1_555
H66A C49A 1_555 1_555
H67A C49A 1_555 1_555
C50A C49A 1_555 1_555
H68A C50A 1_555 1_555
H69A C50A 1_555 1_555
C51A N24A 1_555 1_555
H70A C51A 1_555 1_555
C52A C51A 1_555 1_555
H71A C52A 1_555 1_555
H72A C52A 1_555 1_555
H73A C52A 1_555 1_555
C53A N24 1_555 1_555
H74A C53A 1_555 1_555
C54A C53A 1_555 1_555
H75A C54A 1_555 1_555
H76A C54A 1_555 1_555
C55A C54A 1_555 1_555
H77A C55A 1_555 1_555
H78A C55A 1_555 1_555
C56A C47A 1_555 1_555
H79A C56A 1_555 1_555
H80A C56A 1_555 1_555
C57A H81A 1_555 1_555
H82A C57A 1_555 1_555
H83A C57A 1_555 1_555
N25A Cu5 1_555 1_555
H84A N25A 1_555 1_555
C58A C57A 1_555 1_555
H85A C58A 1_555 1_555
N26A Cu5 1_555 1_555
H86A N26A 1_555 1_555
C59A N25A 1_555 1_555
H87A C59A 1_555 1_555
C60A C59A 1_555 1_555
H88A C60A 1_555 1_555
H89A C60A 1_555 1_555
C61A C60A 1_555 1_555
H90A C61A 1_555 1_555
H91A C61A 1_555 1_555
C62A C61A 1_555 1_555
H92A C62A 1_555 1_555
H93A C62A 1_555 1_555
C63A C62A 1_555 1_555
H94A C63A 1_555 1_555
H95A C63A 1_555 1_555
C64A N26A 1_555 1_555
H96A C64A 1_555 1_555
C65A C66 1_555 1_555
H97A C65A 1_555 1_555
H98A C65A 1_555 1_555
C66A C65 1_555 1_555
H99A C66A 1_555 1_555
H100A C66A 1_555 1_555
C67A H101A 1_555 1_555
H102A C67A 1_555 1_555
H103A C67A 1_555 1_555
N27A Cu6 1_555 1_555
H104A N27A 1_555 1_555
C68A C67A 1_555 1_555
H105A C68A 1_555 1_555
N28A Cu6 1_555 1_555
H106A N28A 1_555 1_555
C69A N28A 1_555 1_555
H107A C69A 1_555 1_555
C70A C69A 1_555 1_555
H108A C70A 1_555 1_555
H109A C70A 1_555 1_555
C71A C70A 1_555 1_555
H110A C71A 1_555 1_555
H111A C71A 1_555 1_555
C72A C71A 1_555 1_555
H112A C72A 1_555 1_555
H113A C72A 1_555 1_555
C73A C72A 1_555 1_555
H114A C73A 1_555 1_555
H115A C73A 1_555 1_555
C74A N27A 1_555 1_555
H116A C74A 1_555 1_555
C75A C76 1_555 1_555
H117A C75A 1_555 1_555
H118A C75A 1_555 1_555
C76A C75 1_555 1_555
H119A C76A 1_555 1_555
H120A C76A 1_555 1_555
C9 N9 1_555 1_555
N10 C11 1_555 1_555
C13 C14 1_555 1_555
C19 N11 1_555 1_555
N12 C24 1_555 1_555
C23 C24 1_555 1_555
C25 C26 1_555 1_555
N14 C31 1_555 1_555
C34 C35 1_555 1_555
C37 C38A 1_555 1_555
N23 C48 1_555 1_555
C50 C51 1_555 1_555
C53 N24A 1_555 1_555
C55 C56 1_555 1_555
N25 C58 1_555 1_555
C59 C64 1_555 1_555
C63 C64 1_555 1_555
C68 N28 1_555 1_555
C69 C74 1_555 1_555
C73 C74 1_555 1_555
C5A N5A 1_555 1_555
C9A N9A 1_555 1_555
N9A C14A 1_555 1_555
N10A C11A 1_555 1_555
N10A C15A 1_555 1_555
C13A C14A 1_555 1_555
C13A C18A 1_555 1_555
C16A C17A 1_555 1_555
C19A N11A 1_555 1_555
N12A C24A 1_555 1_555
N12A C27A 1_555 1_555
C23A C24A 1_555 1_555
C25A C26A 1_555 1_555
C29A N13A 1_555 1_555
N13A C38A 1_555 1_555
N14A C31A 1_555 1_555
N14A C35A 1_555 1_555
C34A C35A 1_555 1_555
C36A C37A 1_555 1_555
C45A N21A 1_555 1_555
N23A C48A 1_555 1_555
C48A C53A 1_555 1_555
C50A C51A 1_555 1_555
C55A C56A 1_555 1_555
N25A C58A 1_555 1_555
C58A C66A 1_555 1_555
N26A C65A 1_555 1_555
C59A C64A 1_555 1_555
C63A C64A 1_555 1_555
N27A C75A 1_555 1_555
C68A N28A 1_555 1_555
C68A C76A 1_555 1_555
C69A C74A 1_555 1_555
C73A C74A 1_555 1_555

#END
