
#######################################################################
#
#                 Cambridge Crystallographic Data Centre
#                                CCDC 
#
#######################################################################
#
# If this CIF has been generated from an entry in the Cambridge 
# Structural Database, then it will include bibliographic, chemical, 
# crystal, experimental, refinement or atomic coordinate data resulting 
# from the CCDC's data processing and validation procedures.
#
#######################################################################

data_JIVXUH
_symmetry_cell_setting           orthorhombic
_symmetry_space_group_name_H-M   'P 21 21 21'
_symmetry_Int_Tables_number      19
_space_group_name_Hall           'P 2ac 2ab'
loop_
_symmetry_equiv_pos_site_id
_symmetry_equiv_pos_as_xyz
1 x,y,z
2 1/2-x,-y,1/2+z
3 1/2+x,1/2-y,-z
4 -x,1/2+y,1/2-z
_cell_length_a                   7.652(3)
_cell_length_b                   11.926(6)
_cell_length_c                   14.498(3)
_cell_angle_alpha                90
_cell_angle_beta                 90
_cell_angle_gamma                90
_cell_volume                     1323.05
loop_
_atom_site_label
_atom_site_type_symbol
_atom_site_fract_x
_atom_site_fract_y
_atom_site_fract_z
Cd1 Cd 0.4023(1) -0.4374(1) 0.2425(1)
S1 S 0.2229(3) -0.2701(2) 0.1567(2)
C1 C 0.3571(11) -0.1684(7) 0.1803(6)
N1 N 0.4497(13) -0.0943(7) 0.1980(7)
S2 S -0.0625(3) -0.6458(2) 0.0657(2)
C2 C 0.0824(12) -0.5919(7) 0.1359(6)
N2 N 0.1864(11) -0.5533(7) 0.1858(6)
N3 N 0.6336(10) -0.3283(6) 0.3079(5)
C3 C 0.7920(10) -0.3579(8) 0.2563(7)
C4 C 0.7527(12) -0.3515(8) 0.1525(7)
N4 N 0.6207(9) -0.4362(6) 0.1269(5)
C5 C 0.5702(13) -0.4239(8) 0.0319(6)
C6 C 0.4611(13) -0.5206(8) -0.0032(6)
C7 C 0.3606(12) -0.4957(8) -0.0886(6)
N5 N 0.2531(10) -0.5879(6) -0.1210(5)
H1 H 0.6106(10) -0.2546(6) 0.3023(5)
H2 H 0.6469(10) -0.3445(6) 0.3681(5)
H3 H 0.8290(10) -0.4331(8) 0.2725(7)
H4 H 0.8857(10) -0.3064(8) 0.2717(7)
H5 H 0.7099(12) -0.2773(8) 0.1371(7)
H6 H 0.8592(12) -0.3646(8) 0.1178(7)
H7 H 0.6754(9) -0.5037(6) 0.1308(5)
H8 H 0.6746(13) -0.4175(8) -0.0056(6)
H9 H 0.5043(13) -0.3549(8) 0.0251(6)
H10 H 0.5375(13) -0.5838(8) -0.0151(6)
H11 H 0.3798(13) -0.5427(8) 0.0448(6)
H12 H 0.2861(12) -0.4314(8) -0.0772(6)
H13 H 0.4421(12) -0.4753(8) -0.1370(6)
H14 H 0.1759(10) -0.6046(6) -0.0762(5)
H15 H 0.3226(10) -0.6481(6) -0.1282(5)
N1C N 0.5503(13) -0.5943(7) 0.3020(7)
N5A N 0.2469(10) -0.4121(6) 0.3790(5)
Cd1C Cd 0.5977(1) 0.0626(1) 0.2575(1)
Cd1A Cd 0.0977(1) -0.5626(1) -0.2575(1)
H14A H 0.3241(10) -0.3954(6) 0.4238(5)
H15A H 0.1774(10) -0.3519(6) 0.3718(5)
loop_
_geom_bond_atom_site_label_1
_geom_bond_atom_site_label_2
_geom_bond_site_symmetry_1
_geom_bond_site_symmetry_2
Cd1 S1 1_555 1_555
S1 C1 1_555 1_555
C1 N1 1_555 1_555
N1 Cd1C 1_555 1_555
S2 C2 1_555 1_555
C2 N2 1_555 1_555
N2 Cd1 1_555 1_555
N3 Cd1 1_555 1_555
C3 N3 1_555 1_555
C4 C3 1_555 1_555
N4 Cd1 1_555 1_555
C5 N4 1_555 1_555
C6 C5 1_555 1_555
C7 C6 1_555 1_555
N5 C7 1_555 1_555
H1 N3 1_555 1_555
H2 N3 1_555 1_555
H3 C3 1_555 1_555
H4 C3 1_555 1_555
H5 C4 1_555 1_555
H6 C4 1_555 1_555
H7 N4 1_555 1_555
H8 C5 1_555 1_555
H9 C5 1_555 1_555
H10 C6 1_555 1_555
H11 C6 1_555 1_555
H12 C7 1_555 1_555
H13 C7 1_555 1_555
H14 N5 1_555 1_555
H15 N5 1_555 1_555
N1C Cd1 1_555 1_555
N5A Cd1 1_555 1_555
Cd1A N5 1_555 1_555
H14A N5A 1_555 1_555
H15A N5A 1_555 1_555
C4 N4 1_555 1_555

#END
