
#######################################################################
#
#                 Cambridge Crystallographic Data Centre
#                                CCDC 
#
#######################################################################
#
# If this CIF has been generated from an entry in the Cambridge 
# Structural Database, then it will include bibliographic, chemical, 
# crystal, experimental, refinement or atomic coordinate data resulting 
# from the CCDC's data processing and validation procedures.
#
#######################################################################

data_JIWBUN
_symmetry_cell_setting           triclinic
_symmetry_space_group_name_H-M   'P -1'
_symmetry_Int_Tables_number      2
_space_group_name_Hall           '-P 1'
loop_
_symmetry_equiv_pos_site_id
_symmetry_equiv_pos_as_xyz
1 x,y,z
2 -x,-y,-z
_cell_length_a                   8.5757(14)
_cell_length_b                   10.2814(17)
_cell_length_c                   12.933(2)
_cell_angle_alpha                101.685(14)
_cell_angle_beta                 100.890(14)
_cell_angle_gamma                98.156(14)
_cell_volume                     1077.15
loop_
_atom_site_label
_atom_site_type_symbol
_atom_site_fract_x
_atom_site_fract_y
_atom_site_fract_z
C1 C -0.3225(4) 0.0763(4) 0.5352(3)
C2 C -0.3189(4) 0.1866(4) 0.6330(3)
C3 C -0.2280(5) 0.1959(4) 0.7343(3)
H1 H -0.1635 0.1325 0.7463
C4 C -0.2335(5) 0.3013(5) 0.8187(4)
H2 H -0.1726 0.3098 0.8881
C5 C -0.3307(5) 0.3934(5) 0.7983(4)
H3 H -0.3358 0.4648 0.8538
C6 C -0.4207(5) 0.3787(4) 0.6939(4)
H4 H -0.4866 0.4405 0.6803
C7 C -0.7859(5) 0.3495(4) 0.3915(3)
C8 C -0.7714(5) 0.2550(4) 0.2899(3)
C9 C -0.8764(5) 0.2363(4) 0.1908(3)
H5 H -0.9603 0.2843 0.1829
C10 C -0.8531(5) 0.1433(5) 0.1026(4)
H6 H -0.9220 0.1275 0.0347
C11 C -0.7264(5) 0.0754(5) 0.1179(4)
H7 H -0.7090 0.0131 0.0601
C12 C -0.6250(5) 0.1002(4) 0.2195(3)
H8 H -0.5399 0.0537 0.2292
C13 C 0.1386(4) 0.2147(4) 0.6787(3)
C14 C 0.1824(5) 0.0143(4) 0.7251(3)
H9 H 0.1685 -0.0795 0.7064
C15 C 0.2686(5) 0.0838(4) 0.8277(4)
H10 H 0.3134 0.0375 0.8771
C16 C 0.2872(5) 0.2237(5) 0.8560(4)
H11 H 0.3432 0.2722 0.9249
C17 C 0.2208(5) 0.2905(4) 0.7795(3)
H12 H 0.2318 0.3842 0.7964
C18 C 0.0630(4) 0.2732(4) 0.5874(3)
O1 O -0.9058(3) 0.4059(3) 0.3865(2)
O2 O -0.4016(3) 0.0879(3) 0.4440(2)
O3 O -0.2510(3) -0.0186(3) 0.5485(2)
O4 O -0.6718(3) 0.3639(3) 0.4750(2)
N1 N 0.1184(4) 0.0785(3) 0.6518(3)
O5 O -0.0071(3) 0.1918(3) 0.4987(2)
O6 O 0.0748(3) 0.3994(3) 0.6066(2)
O7 O -0.3038(4) 0.3744(3) 0.4187(2)
H13 H -0.305(6) 0.351(4) 0.3516(18)
H14 H -0.316(6) 0.456(2) 0.437(3)
Cu1 Cu 0.0000 0.0000 0.5000
Cu2 Cu -0.52145(6) 0.23592(5) 0.45666(4)
Cu3 Cu 0.0000 0.5000 0.5000
N2 N -0.4144(4) 0.2767(3) 0.6124(3)
N3 N -0.6466(4) 0.1893(3) 0.3039(3)
C1A C 0.3225(4) -0.0763(4) 0.4648(3)
C2A C 0.3189(4) -0.1866(4) 0.3670(3)
C3A C 0.2280(5) -0.1959(4) 0.2657(3)
H1A H 0.1635 -0.1325 0.2537
C4A C 0.2335(5) -0.3013(5) 0.1813(4)
H2A H 0.1726 -0.3098 0.1119
C5A C 0.3307(5) -0.3934(5) 0.2017(4)
H3A H 0.3358 -0.4648 0.1462
C6A C 0.4207(5) -0.3787(4) 0.3061(4)
H4A H 0.4866 -0.4405 0.3197
C7_2 C 0.2141(5) 0.3495(4) 0.3915(3)
C8_2 C 0.2286(5) 0.2550(4) 0.2899(3)
C9_2 C 0.1236(5) 0.2363(4) 0.1908(3)
H5_2 H 0.0397 0.2843 0.1829
C10_2 C 0.1469(5) 0.1433(5) 0.1026(4)
H6_2 H 0.0780 0.1275 0.0347
C11_2 C 0.2736(5) 0.0754(5) 0.1179(4)
H7_2 H 0.2910 0.0131 0.0601
C12_2 C 0.3750(5) 0.1002(4) 0.2195(3)
H8_2 H 0.4601 0.0537 0.2292
C13A C -0.1386(4) -0.2147(4) 0.3213(3)
C14A C -0.1824(5) -0.0143(4) 0.2749(3)
H9A H -0.1685 0.0795 0.2936
C15A C -0.2686(5) -0.0838(4) 0.1723(4)
H10A H -0.3134 -0.0375 0.1229
C16A C -0.2872(5) -0.2237(5) 0.1440(4)
H11A H -0.3432 -0.2722 0.0751
C17A C -0.2208(5) -0.2905(4) 0.2205(3)
H12A H -0.2318 -0.3842 0.2036
C18A C -0.0630(4) -0.2732(4) 0.4126(3)
O1_2 O 0.0942(3) 0.4059(3) 0.3865(2)
O1A O -0.0942(3) 0.5941(3) 0.6135(2)
O2A O 0.4016(3) -0.0879(3) 0.5560(2)
O3A O 0.2510(3) 0.0186(3) 0.4515(2)
O4_2 O 0.3282(3) 0.3639(3) 0.4750(2)
O4A O 0.6718(3) -0.3639(3) 0.5250(2)
N1A N -0.1184(4) -0.0785(3) 0.3482(3)
O5A O 0.0071(3) -0.1918(3) 0.5013(2)
O6A O -0.0748(3) -0.3994(3) 0.3934(2)
O6A_2 O -0.0748(3) 0.6006(3) 0.3934(2)
O7A O 0.3038(4) -0.3744(3) 0.5813(2)
H13A H 0.305(6) -0.351(4) 0.6484(18)
H14A H 0.316(6) -0.456(2) 0.563(3)
Cu2A Cu 0.52145(6) -0.23592(5) 0.54334(4)
Cu2_2 Cu 0.47855(6) 0.23592(5) 0.45666(4)
Cu3_2 Cu -1.0000 0.5000 0.5000
Cu3_3 Cu 0.0000 -0.5000 0.5000
N2A N 0.4144(4) -0.2767(3) 0.3876(3)
N3_2 N 0.3534(4) 0.1893(3) 0.3039(3)
N3A N 0.6466(4) -0.1893(3) 0.6961(3)
O8 O 0.7282(4) 0.2559(3) 0.2094(3)
O9 O 0.6001(4) 0.1802(3) 0.0251(3)
O10 O 0.7956(4) 0.3802(4) 0.0854(3)
O11 O 0.5429(4) 0.3751(4) 0.1306(3)
Cl1 Cl 0.66670(12) 0.29810(10) 0.11190(8)
loop_
_geom_bond_atom_site_label_1
_geom_bond_atom_site_label_2
_geom_bond_site_symmetry_1
_geom_bond_site_symmetry_2
C1 C2 1_555 1_555
C2 C3 1_555 1_555
C3 H1 1_555 1_555
C4 C3 1_555 1_555
H2 C4 1_555 1_555
C5 C4 1_555 1_555
H3 C5 1_555 1_555
C6 C5 1_555 1_555
H4 C6 1_555 1_555
C7 C8 1_555 1_555
C8 C9 1_555 1_555
C9 H5 1_555 1_555
C10 C9 1_555 1_555
H6 C10 1_555 1_555
C11 C10 1_555 1_555
H7 C11 1_555 1_555
C12 C11 1_555 1_555
H8 C12 1_555 1_555
C13 C17 1_555 1_555
C14 H9 1_555 1_555
C15 C14 1_555 1_555
H10 C15 1_555 1_555
C16 C15 1_555 1_555
H11 C16 1_555 1_555
C17 C16 1_555 1_555
H12 C17 1_555 1_555
C18 C13 1_555 1_555
O1 C7 1_555 1_555
O2 C1 1_555 1_555
O3 C1 1_555 1_555
O4 C7 1_555 1_555
N1 C13 1_555 1_555
O5 C18 1_555 1_555
O6 C18 1_555 1_555
O7 H13 1_555 1_555
H14 O7 1_555 1_555
Cu1 O3 1_555 1_555
Cu2 O2 1_555 1_555
Cu3 O6 1_555 1_555
N2 C2 1_555 1_555
N3 C8 1_555 1_555
O8 Cl1 1_555 1_555
O9 Cl1 1_555 1_555
O10 Cl1 1_555 1_555
O11 Cl1 1_555 1_555
C1A C2A 1_555 1_555
C2A C3A 1_555 1_555
C3A H1A 1_555 1_555
C4A C3A 1_555 1_555
H2A C4A 1_555 1_555
C5A C4A 1_555 1_555
H3A C5A 1_555 1_555
C6A C5A 1_555 1_555
H4A C6A 1_555 1_555
C7_2 C8_2 1_555 1_555
C8_2 C9_2 1_555 1_555
C9_2 H5_2 1_555 1_555
C10_2 C9_2 1_555 1_555
H6_2 C10_2 1_555 1_555
C11_2 C10_2 1_555 1_555
H7_2 C11_2 1_555 1_555
C12_2 C11_2 1_555 1_555
H8_2 C12_2 1_555 1_555
C13A C17A 1_555 1_555
C14A H9A 1_555 1_555
C15A C14A 1_555 1_555
H10A C15A 1_555 1_555
C16A C15A 1_555 1_555
H11A C16A 1_555 1_555
C17A C16A 1_555 1_555
H12A C17A 1_555 1_555
C18A C13A 1_555 1_555
O1_2 Cu3 1_555 1_555
O1A Cu3 1_555 1_555
O2A C1A 1_555 1_555
O3A Cu1 1_555 1_555
O4_2 C7_2 1_555 1_555
O4A Cu2A 1_555 1_555
N1A Cu1 1_555 1_555
O5A Cu1 1_555 1_555
O6A C18A 1_555 1_555
O6A_2 Cu3 1_555 1_555
O7A H13A 1_555 1_555
H14A O7A 1_555 1_555
Cu2A O2A 1_555 1_555
Cu2_2 O4_2 1_555 1_555
Cu3_2 O1 1_555 1_555
Cu3_3 O6A 1_555 1_555
N2A C2A 1_555 1_555
N3_2 C8_2 1_555 1_555
N3A Cu2A 1_555 1_555
C6 N2 1_555 1_555
C12 N3 1_555 1_555
C14 N1 1_555 1_555
O4 Cu2 1_555 1_555
N1 Cu1 1_555 1_555
O5 Cu1 1_555 1_555
O7 Cu2 1_555 1_555
Cu2 N2 1_555 1_555
Cu2 N3 1_555 1_555
C1A O3A 1_555 1_555
C6A N2A 1_555 1_555
C7_2 O1_2 1_555 1_555
C12_2 N3_2 1_555 1_555
C13A N1A 1_555 1_555
C14A N1A 1_555 1_555
C18A O5A 1_555 1_555
O7A Cu2A 1_555 1_555
Cu2A N2A 1_555 1_555
Cu2_2 N3_2 1_555 1_555

#END
