
#######################################################################
#
#                 Cambridge Crystallographic Data Centre
#                                CCDC 
#
#######################################################################
#
# If this CIF has been generated from an entry in the Cambridge 
# Structural Database, then it will include bibliographic, chemical, 
# crystal, experimental, refinement or atomic coordinate data resulting 
# from the CCDC's data processing and validation procedures.
#
#######################################################################

data_JIWCAU
_symmetry_cell_setting           triclinic
_symmetry_space_group_name_H-M   'P -1'
_symmetry_Int_Tables_number      2
_space_group_name_Hall           '-P 1'
loop_
_symmetry_equiv_pos_site_id
_symmetry_equiv_pos_as_xyz
1 x,y,z
2 -x,-y,-z
_cell_length_a                   8.5487(10)
_cell_length_b                   10.2220(13)
_cell_length_c                   12.8509(19)
_cell_angle_alpha                102.132(12)
_cell_angle_beta                 101.182(11)
_cell_angle_gamma                97.946(10)
_cell_volume                     1058.13
loop_
_atom_site_label
_atom_site_type_symbol
_atom_site_fract_x
_atom_site_fract_y
_atom_site_fract_z
C1 C -0.3232(7) 0.0778(5) 0.5374(5)
C2 C -0.3184(7) 0.1882(5) 0.6346(4)
C3 C -0.2269(7) 0.1989(6) 0.7383(5)
H1 H -0.1620 0.1354 0.7510
C4 C -0.2334(7) 0.3057(6) 0.8230(5)
H2 H -0.1737 0.3147 0.8936
C5 C -0.3306(8) 0.3986(6) 0.8005(5)
H3 H -0.3344 0.4725 0.8557
C6 C -0.4217(8) 0.3811(6) 0.6955(5)
H4 H -0.4905 0.4415 0.6815
C7 C -0.7870(6) 0.3486(5) 0.3904(4)
C8 C -0.7733(7) 0.2531(5) 0.2869(4)
C9 C -0.8779(8) 0.2333(5) 0.1895(4)
H5 H -0.9649 0.2787 0.1825
C10 C -0.8527(8) 0.1439(6) 0.1003(5)
H6 H -0.9189 0.1312 0.0311
C11 C -0.7246(8) 0.0728(6) 0.1168(5)
H7 H -0.7092 0.0076 0.0592
C12 C -0.6229(7) 0.0998(5) 0.2177(5)
H8 H -0.5357 0.0548 0.2273
C13 C 0.1421(7) 0.2152(5) 0.6806(4)
C14 C 0.1857(7) 0.0132(5) 0.7269(5)
H9 H 0.1714 -0.0813 0.7084
C15 C 0.2732(7) 0.0845(5) 0.8293(5)
H10 H 0.3192 0.0386 0.8791
C16 C 0.2931(7) 0.2267(6) 0.8584(5)
H11 H 0.3498 0.2761 0.9280
C17 C 0.2272(8) 0.2915(6) 0.7822(5)
H12 H 0.2399 0.3859 0.7991
C18 C 0.0659(7) 0.2738(5) 0.5898(5)
O1 O -0.9085(5) 0.4038(4) 0.3857(3)
O2 O -0.4012(5) 0.0872(4) 0.4449(3)
O3 O -0.2501(5) -0.0182(4) 0.5517(3)
O4 O -0.6717(5) 0.3641(3) 0.4748(3)
N1 N 0.1199(5) 0.0781(4) 0.6524(4)
O5 O -0.0081(5) 0.1898(3) 0.4997(3)
O6 O 0.0771(5) 0.4017(3) 0.6072(3)
O7 O -0.3043(5) 0.3718(3) 0.4180(3)
H13 H -0.297(8) 0.322(4) 0.357(3)
H14 H -0.310(7) 0.454(2) 0.415(4)
Cu1 Cu 0.0000 0.0000 0.5000
Cu2 Cu -0.52115(8) 0.23623(6) 0.45667(6)
Cu3 Cu 0.0000 0.5000 0.5000
N2 N -0.4129(6) 0.2780(4) 0.6129(4)
N3 N -0.6453(5) 0.1891(4) 0.3029(4)
C1A C 0.3232(7) -0.0778(5) 0.4626(5)
C2A C 0.3184(7) -0.1882(5) 0.3654(4)
C3A C 0.2269(7) -0.1989(6) 0.2617(5)
H1A H 0.1620 -0.1354 0.2490
C4A C 0.2334(7) -0.3057(6) 0.1770(5)
H2A H 0.1737 -0.3147 0.1064
C5A C 0.3306(8) -0.3986(6) 0.1995(5)
H3A H 0.3344 -0.4725 0.1443
C6A C 0.4217(8) -0.3811(6) 0.3045(5)
H4A H 0.4905 -0.4415 0.3185
C7_2 C 0.2130(6) 0.3486(5) 0.3904(4)
C8_2 C 0.2267(7) 0.2531(5) 0.2869(4)
C9_2 C 0.1221(8) 0.2333(5) 0.1895(4)
H5_2 H 0.0351 0.2787 0.1825
C10_2 C 0.1473(8) 0.1439(6) 0.1003(5)
H6_2 H 0.0811 0.1312 0.0311
C11_2 C 0.2754(8) 0.0728(6) 0.1168(5)
H7_2 H 0.2908 0.0076 0.0592
C12_2 C 0.3771(7) 0.0998(5) 0.2177(5)
H8_2 H 0.4643 0.0548 0.2273
C13A C -0.1421(7) -0.2152(5) 0.3194(4)
C14A C -0.1857(7) -0.0132(5) 0.2731(5)
H9A H -0.1714 0.0813 0.2916
C15A C -0.2732(7) -0.0845(5) 0.1707(5)
H10A H -0.3192 -0.0386 0.1209
C16A C -0.2931(7) -0.2267(6) 0.1416(5)
H11A H -0.3498 -0.2761 0.0720
C17A C -0.2272(8) -0.2915(6) 0.2178(5)
H12A H -0.2399 -0.3859 0.2009
C18A C -0.0659(7) -0.2738(5) 0.4102(5)
O1_2 O 0.0915(5) 0.4038(4) 0.3857(3)
O1A O -0.0915(5) 0.5962(4) 0.6143(3)
O2A O 0.4012(5) -0.0872(4) 0.5551(3)
O3A O 0.2501(5) 0.0182(4) 0.4483(3)
O4_2 O 0.3283(5) 0.3641(3) 0.4748(3)
O4A O 0.6717(5) -0.3641(3) 0.5252(3)
N1A N -0.1199(5) -0.0781(4) 0.3476(4)
O5A O 0.0081(5) -0.1898(3) 0.5003(3)
O6A O -0.0771(5) -0.4017(3) 0.3928(3)
O6A_2 O -0.0771(5) 0.5983(3) 0.3928(3)
O7A O 0.3043(5) -0.3718(3) 0.5820(3)
H13A H 0.297(8) -0.322(4) 0.643(3)
H14A H 0.310(7) -0.454(2) 0.585(4)
Cu2A Cu 0.52115(8) -0.23623(6) 0.54333(6)
Cu2_2 Cu 0.47885(8) 0.23623(6) 0.45667(6)
Cu3_2 Cu -1.0000 0.5000 0.5000
Cu3_3 Cu 0.0000 -0.5000 0.5000
N2A N 0.4129(6) -0.2780(4) 0.3871(4)
N3_2 N 0.3547(5) 0.1891(4) 0.3029(4)
N3A N 0.6453(5) -0.1891(4) 0.6971(4)
F1 F 0.7236(5) 0.2577(4) 0.2096(3)
F2 F 0.6003(5) 0.1773(3) 0.0311(3)
F3 F 0.7930(5) 0.3706(4) 0.0867(3)
F4 F 0.5485(5) 0.3726(4) 0.1280(3)
B1 B 0.6694(9) 0.2955(7) 0.1135(7)
loop_
_geom_bond_atom_site_label_1
_geom_bond_atom_site_label_2
_geom_bond_site_symmetry_1
_geom_bond_site_symmetry_2
C1 C2 1_555 1_555
C2 C3 1_555 1_555
C3 H1 1_555 1_555
C4 C3 1_555 1_555
H2 C4 1_555 1_555
C5 C4 1_555 1_555
H3 C5 1_555 1_555
C6 C5 1_555 1_555
H4 C6 1_555 1_555
C7 C8 1_555 1_555
C8 C9 1_555 1_555
C9 H5 1_555 1_555
C10 C9 1_555 1_555
H6 C10 1_555 1_555
C11 C10 1_555 1_555
H7 C11 1_555 1_555
C12 C11 1_555 1_555
H8 C12 1_555 1_555
C13 C17 1_555 1_555
C14 H9 1_555 1_555
C15 C14 1_555 1_555
H10 C15 1_555 1_555
C16 C15 1_555 1_555
H11 C16 1_555 1_555
C17 C16 1_555 1_555
H12 C17 1_555 1_555
C18 C13 1_555 1_555
O1 C7 1_555 1_555
O2 C1 1_555 1_555
O3 C1 1_555 1_555
O4 C7 1_555 1_555
N1 C13 1_555 1_555
O5 C18 1_555 1_555
O6 C18 1_555 1_555
O7 H13 1_555 1_555
H14 O7 1_555 1_555
Cu1 O3 1_555 1_555
Cu2 O2 1_555 1_555
Cu3 O6 1_555 1_555
N2 C2 1_555 1_555
N3 C8 1_555 1_555
F1 B1 1_555 1_555
F2 B1 1_555 1_555
F3 B1 1_555 1_555
F4 B1 1_555 1_555
C1A C2A 1_555 1_555
C2A C3A 1_555 1_555
C3A H1A 1_555 1_555
C4A C3A 1_555 1_555
H2A C4A 1_555 1_555
C5A C4A 1_555 1_555
H3A C5A 1_555 1_555
C6A C5A 1_555 1_555
H4A C6A 1_555 1_555
C7_2 C8_2 1_555 1_555
C8_2 C9_2 1_555 1_555
C9_2 H5_2 1_555 1_555
C10_2 C9_2 1_555 1_555
H6_2 C10_2 1_555 1_555
C11_2 C10_2 1_555 1_555
H7_2 C11_2 1_555 1_555
C12_2 C11_2 1_555 1_555
H8_2 C12_2 1_555 1_555
C13A C17A 1_555 1_555
C14A H9A 1_555 1_555
C15A C14A 1_555 1_555
H10A C15A 1_555 1_555
C16A C15A 1_555 1_555
H11A C16A 1_555 1_555
C17A C16A 1_555 1_555
H12A C17A 1_555 1_555
C18A C13A 1_555 1_555
O1_2 Cu3 1_555 1_555
O1A Cu3 1_555 1_555
O2A C1A 1_555 1_555
O3A Cu1 1_555 1_555
O4_2 C7_2 1_555 1_555
O4A Cu2A 1_555 1_555
N1A Cu1 1_555 1_555
O5A Cu1 1_555 1_555
O6A C18A 1_555 1_555
O6A_2 Cu3 1_555 1_555
O7A H13A 1_555 1_555
H14A O7A 1_555 1_555
Cu2A O2A 1_555 1_555
Cu2_2 O4_2 1_555 1_555
Cu3_2 O1 1_555 1_555
Cu3_3 O6A 1_555 1_555
N2A C2A 1_555 1_555
N3_2 C8_2 1_555 1_555
N3A Cu2A 1_555 1_555
C6 N2 1_555 1_555
C12 N3 1_555 1_555
C14 N1 1_555 1_555
O4 Cu2 1_555 1_555
N1 Cu1 1_555 1_555
O5 Cu1 1_555 1_555
O7 Cu2 1_555 1_555
Cu2 N2 1_555 1_555
Cu2 N3 1_555 1_555
C1A O3A 1_555 1_555
C6A N2A 1_555 1_555
C7_2 O1_2 1_555 1_555
C12_2 N3_2 1_555 1_555
C13A N1A 1_555 1_555
C14A N1A 1_555 1_555
C18A O5A 1_555 1_555
O7A Cu2A 1_555 1_555
Cu2A N2A 1_555 1_555
Cu2_2 N3_2 1_555 1_555

#END
