
#######################################################################
#
#                 Cambridge Crystallographic Data Centre
#                                CCDC 
#
#######################################################################
#
# If this CIF has been generated from an entry in the Cambridge 
# Structural Database, then it will include bibliographic, chemical, 
# crystal, experimental, refinement or atomic coordinate data resulting 
# from the CCDC's data processing and validation procedures.
#
#######################################################################

data_JIWCEY
_symmetry_cell_setting           monoclinic
_symmetry_space_group_name_H-M   'P 21/n'
_symmetry_Int_Tables_number      14
_space_group_name_Hall           '-P 2yn'
loop_
_symmetry_equiv_pos_site_id
_symmetry_equiv_pos_as_xyz
1 x,y,z
2 1/2-x,1/2+y,1/2-z
3 -x,-y,-z
4 1/2+x,1/2-y,1/2+z
_cell_length_a                   6.9597(4)
_cell_length_b                   15.7704(9)
_cell_length_c                   19.2329(8)
_cell_angle_alpha                90
_cell_angle_beta                 99.095(4)
_cell_angle_gamma                90
_cell_volume                     2084.41
loop_
_atom_site_label
_atom_site_type_symbol
_atom_site_fract_x
_atom_site_fract_y
_atom_site_fract_z
C1 C 1.3049(6) 0.3058(3) 0.21627(19)
C2 C 1.1735(6) 0.3749(3) 0.23664(18)
C3 C 1.2183(6) 0.4598(3) 0.23839(19)
H1 H 1.3391 0.4781 0.2295
C4 C 1.0814(6) 0.5178(3) 0.2536(2)
H2 H 1.1088 0.5756 0.2549
C5 C 0.9017(6) 0.4883(3) 0.2669(2)
H3 H 0.8060 0.5261 0.2760
C6 C 0.8683(6) 0.4009(3) 0.26638(18)
H4 H 0.7498 0.3810 0.2762
C7 C 0.6748(6) 0.0707(3) -0.0595(2)
H5 H 0.6233 0.0963 -0.1020
C8 C 0.6862(6) -0.0165(3) -0.0567(2)
H6 H 0.6416 -0.0491 -0.0963
C9 C 0.7659(6) -0.0546(3) 0.00643(19)
H7 H 0.7754 -0.1133 0.0098
C10 C 0.8306(6) -0.0041(3) 0.0640(2)
H8 H 0.8854 -0.0282 0.1067
C11 C 0.8128(6) 0.0823(3) 0.05719(19)
C12 C 0.8788(5) 0.1444(3) 0.11529(19)
C13 C 1.1141(6) 0.1561(3) 0.38846(19)
C14 C 1.1819(6) 0.0946(2) 0.44682(19)
C15 C 1.1838(6) 0.0075(3) 0.4390(2)
H9 H 1.1407 -0.0177 0.3956
C16 C 1.2521(6) -0.0414(3) 0.4980(2)
H10 H 1.2601 -0.1001 0.4941
C17 C 1.3078(6) -0.0025(3) 0.5623(2)
H11 H 1.3496 -0.0345 0.6024
C18 C 1.3004(6) 0.0841(3) 0.5659(2)
H12 H 1.3392 0.1103 0.6091
N1 N 1.0017(5) 0.34500(19) 0.25209(16)
N2 N 0.7343(4) 0.1197(2) -0.00417(14)
N3 N 1.2395(5) 0.1323(2) 0.50948(16)
N4 N 1.0722(5) 0.2503(2) -0.09568(16)
O1 O 1.2516(4) 0.23020(18) 0.22496(14)
O2 O 1.4558(4) 0.32686(19) 0.19217(13)
O3 O 0.9527(4) 0.11594(17) 0.17381(12)
O4 O 0.8553(4) 0.22241(18) 0.10064(12)
O5 O 1.0598(4) 0.12762(18) 0.32788(13)
O6 O 1.1161(4) 0.23377(17) 0.40524(12)
O7 O 1.1135(5) 0.3177(2) -0.12376(15)
O8 O 1.0404(5) 0.18522(19) -0.13050(14)
O9 O 1.0645(4) 0.25047(19) -0.02999(13)
O10 O 0.7135(4) 0.20624(19) 0.24991(13)
H13 H 0.692(5) 0.200(2) 0.2926(11)
H14 H 0.640(5) 0.244(2) 0.2275(16)
O11 O 0.4354(4) 0.2405(2) 0.05645(14)
H15 H 0.443(5) 0.254(3) 0.1011(10)
H16 H 0.319(3) 0.247(3) 0.0350(17)
Cu1 Cu 0.98878(7) 0.21665(3) 0.24435(2)
Cu2 Cu 0.72564(7) 0.24372(3) 0.00363(2)
N3C N 0.7395(5) 0.3677(2) 0.00948(16)
O6C O 0.6161(4) 0.26623(17) -0.09476(12)
Cu2C Cu 1.22564(7) 0.25628(3) 0.50363(2)
loop_
_geom_bond_atom_site_label_1
_geom_bond_atom_site_label_2
_geom_bond_site_symmetry_1
_geom_bond_site_symmetry_2
C1 C2 1_555 1_555
C2 C3 1_555 1_555
C3 H1 1_555 1_555
C4 C3 1_555 1_555
H2 C4 1_555 1_555
C5 C4 1_555 1_555
H3 C5 1_555 1_555
C6 C5 1_555 1_555
H4 C6 1_555 1_555
C7 H5 1_555 1_555
C8 C7 1_555 1_555
H6 C8 1_555 1_555
C9 C8 1_555 1_555
H7 C9 1_555 1_555
C10 C9 1_555 1_555
H8 C10 1_555 1_555
C11 C10 1_555 1_555
C12 C11 1_555 1_555
C13 C14 1_555 1_555
C14 C15 1_555 1_555
C15 H9 1_555 1_555
C16 C15 1_555 1_555
H10 C16 1_555 1_555
C17 C16 1_555 1_555
H11 C17 1_555 1_555
C18 C17 1_555 1_555
H12 C18 1_555 1_555
N1 C2 1_555 1_555
N2 C7 1_555 1_555
N3 C14 1_555 1_555
N4 O7 1_555 1_555
O1 C1 1_555 1_555
O2 C1 1_555 1_555
O3 C12 1_555 1_555
O4 C12 1_555 1_555
O5 C13 1_555 1_555
O6 C13 1_555 1_555
O8 N4 1_555 1_555
O9 N4 1_555 1_555
O10 H13 1_555 1_555
H14 O10 1_555 1_555
O11 H15 1_555 1_555
H16 O11 1_555 1_555
Cu1 N1 1_555 1_555
Cu2 N2 1_555 1_555
N3C Cu2 1_555 1_555
O6C Cu2 1_555 1_555
Cu2C N3 1_555 1_555
C6 N1 1_555 1_555
C11 N2 1_555 1_555
C18 N3 1_555 1_555
O1 Cu1 1_555 1_555
O3 Cu1 1_555 1_555
O4 Cu2 1_555 1_555
O5 Cu1 1_555 1_555
O6 Cu2C 1_555 1_555
O9 Cu2 1_555 1_555
O10 Cu1 1_555 1_555
O11 Cu2 1_555 1_555

#END
