
#######################################################################
#
#                 Cambridge Crystallographic Data Centre
#                                CCDC 
#
#######################################################################
#
# If this CIF has been generated from an entry in the Cambridge 
# Structural Database, then it will include bibliographic, chemical, 
# crystal, experimental, refinement or atomic coordinate data resulting 
# from the CCDC's data processing and validation procedures.
#
#######################################################################

data_JIWQOW
_symmetry_cell_setting           triclinic
_symmetry_space_group_name_H-M   'P -1'
_symmetry_Int_Tables_number      2
_space_group_name_Hall           '-P 1'
loop_
_symmetry_equiv_pos_site_id
_symmetry_equiv_pos_as_xyz
1 x,y,z
2 -x,-y,-z
_cell_length_a                   6.9409(14)
_cell_length_b                   7.5497(15)
_cell_length_c                   22.530(5)
_cell_angle_alpha                84.79(3)
_cell_angle_beta                 88.15(3)
_cell_angle_gamma                75.55(3)
_cell_volume                     1138.48
loop_
_atom_site_label
_atom_site_type_symbol
_atom_site_fract_x
_atom_site_fract_y
_atom_site_fract_z
Nd1 Nd 0.40371(4) 0.56266(3) 0.207400(12)
Nd2 Nd 0.85024(4) -0.26995(3) 0.291970(12)
O1 O 0.5611(6) 0.4626(4) 0.10969(17)
O2 O 0.5095(5) 0.2381(4) 0.17300(16)
O3 O 0.7931(6) -0.1603(4) 0.18196(16)
O4 O 0.4911(6) -0.1764(4) 0.15303(16)
O5 O 0.7148(5) 0.5493(4) 0.36682(16)
O6 O 0.8459(5) 0.2486(4) 0.36116(16)
O7 O 0.4074(6) 0.4186(4) 0.30785(16)
O8 O 0.1240(6) 0.5550(5) 0.35231(17)
O9 O 0.7636(5) 0.4716(4) 0.22945(15)
O10 O 1.0754(5) 0.4923(4) 0.23046(16)
O11 O 0.1688(5) 0.8204(4) 0.25940(16)
O12 O 0.4857(5) 0.7802(4) 0.27710(16)
O13 O 0.1583(5) 0.6863(5) 0.12958(17)
H1 H 0.0785 0.7913 0.1316
H2 H 0.1527 0.6242 0.1003
O14 O 0.8405(6) -0.1138(4) 0.38308(17)
H3 H 0.9312 -0.0604 0.3895
H4 H 0.7466 -0.1130 0.4083
O15 O 0.7276(6) 0.0635(4) 0.27389(17)
H5 H 0.8075 0.1287 0.2622
H6 H 0.6051 0.1141 0.2793
N1 N 0.7502(7) 0.1330(6) -0.0260(2)
N2 N 0.3023(7) 0.2496(6) 0.5110(2)
C1 C 0.5689(8) 0.2959(7) 0.1223(3)
C2 C 0.6468(8) 0.1624(7) 0.0763(2)
C3 C 0.6866(8) 0.2341(7) 0.0192(3)
H7 H 0.6673 0.3607 0.0125
C4 C 0.7730(9) -0.0501(7) -0.0155(3)
H8 H 0.8120 -0.1235 -0.0470
C5 C 0.7409(8) -0.1326(7) 0.0396(2)
H9 H 0.7612 -0.2595 0.0451
C6 C 0.6784(8) -0.0269(6) 0.0870(2)
C7 C 0.6495(8) -0.1262(6) 0.1464(2)
C8 C 0.7245(8) 0.3817(6) 0.3813(2)
C9 C 0.5760(8) 0.3385(6) 0.4266(2)
C10 C 0.6336(8) 0.2632(7) 0.4832(2)
H10 H 0.7660 0.2410 0.4942
C11 C 0.4949(8) 0.2210(7) 0.5232(3)
H11 H 0.5379 0.1696 0.5610
C12 C 0.2427(9) 0.3246(6) 0.4565(2)
H12 H 0.1086 0.3480 0.4473
C13 C 0.3769(8) 0.3697(6) 0.4122(2)
C14 C 0.2964(8) 0.4545(6) 0.3525(2)
C15 C 0.9461(8) 0.4175(6) 0.2126(2)
C16 C 1.0075(9) 0.2662(7) 0.1726(3)
H13 H 0.9657 0.3114 0.1326
H14 H 0.9468 0.1684 0.1861
H15 H 1.1497 0.2211 0.1732
C17 C 0.3083(8) 0.8667(6) 0.2851(2)
C18 C 0.2619(8) 1.0188(7) 0.3247(3)
H16 H 0.1979 0.9817 0.3604
H17 H 0.1749 1.1247 0.3045
H18 H 0.3829 1.0484 0.3347
Nd1_2 Nd 0.40371(4) -0.43734(3) 0.207400(12)
Nd1_3 Nd 1.40371(4) 0.56266(3) 0.207400(12)
Nd2_2 Nd 0.85024(4) 0.73005(3) 0.291970(12)
Nd2_3 Nd -0.14976(4) 0.73005(3) 0.291970(12)
O4_2 O 0.4911(6) 0.8236(4) 0.15303(16)
O5_2 O 0.7148(5) -0.4507(4) 0.36682(16)
O8_2 O 1.1240(6) -0.4450(5) 0.35231(17)
O9_2 O 0.7636(5) -0.5284(4) 0.22945(15)
O10_2 O 0.0754(5) 0.4923(4) 0.23046(16)
O10_3 O 1.0754(5) -0.5077(4) 0.23046(16)
O11_2 O 1.1688(5) -0.1796(4) 0.25940(16)
O12_2 O 0.4857(5) -0.2198(4) 0.27710(16)
loop_
_geom_bond_atom_site_label_1
_geom_bond_atom_site_label_2
_geom_bond_site_symmetry_1
_geom_bond_site_symmetry_2
Nd1 O1 1_555 1_555
Nd2 O3 1_555 1_555
O1 C1 1_555 1_555
O2 Nd1 1_555 1_555
O3 C7 1_555 1_555
O4 C7 1_555 1_555
O5 C8 1_555 1_555
O6 C8 1_555 1_555
O7 Nd1 1_555 1_555
O8 C14 1_555 1_555
O9 Nd1 1_555 1_555
O10 C15 1_555 1_555
O11 Nd1 1_555 1_555
O12 Nd1 1_555 1_555
O13 Nd1 1_555 1_555
H1 O13 1_555 1_555
H2 O13 1_555 1_555
O14 Nd2 1_555 1_555
H3 O14 1_555 1_555
H4 O14 1_555 1_555
O15 Nd2 1_555 1_555
H5 O15 1_555 1_555
H6 O15 1_555 1_555
N1 C3 1_555 1_555
N2 C11 1_555 1_555
C1 O2 1_555 1_555
C2 C1 1_555 1_555
C3 C2 1_555 1_555
H7 C3 1_555 1_555
C4 N1 1_555 1_555
H8 C4 1_555 1_555
C5 C4 1_555 1_555
H9 C5 1_555 1_555
C6 C2 1_555 1_555
C7 C6 1_555 1_555
C8 C9 1_555 1_555
C9 C10 1_555 1_555
C10 H10 1_555 1_555
C11 C10 1_555 1_555
H11 C11 1_555 1_555
C12 N2 1_555 1_555
H12 C12 1_555 1_555
C13 C9 1_555 1_555
C14 O7 1_555 1_555
C15 O9 1_555 1_555
C16 C15 1_555 1_555
H13 C16 1_555 1_555
H14 C16 1_555 1_555
H15 C16 1_555 1_555
C17 O11 1_555 1_555
C18 C17 1_555 1_555
H16 C18 1_555 1_555
H17 C18 1_555 1_555
H18 C18 1_555 1_555
Nd1_2 O4 1_555 1_555
Nd1_3 O10 1_555 1_555
Nd2_2 O5 1_555 1_555
Nd2_3 O8 1_555 1_555
O4_2 Nd1 1_555 1_555
O5_2 Nd2 1_555 1_555
O8_2 Nd2 1_555 1_555
O9_2 Nd2 1_555 1_555
O10_2 Nd1 1_555 1_555
O10_3 Nd2 1_555 1_555
O11_2 Nd2 1_555 1_555
O12_2 Nd2 1_555 1_555
O9 Nd2_2 1_555 1_555
O10 Nd2_2 1_555 1_555
O11 Nd2_3 1_555 1_555
O12 C17 1_555 1_555
O12 Nd2_2 1_555 1_555
C5 C6 1_555 1_555
C12 C13 1_555 1_555
C13 C14 1_555 1_555
Nd1_2 O9_2 1_555 1_555
Nd1_2 O12_2 1_555 1_555
Nd2_3 O10_2 1_555 1_555

#END
