
#######################################################################
#
#                 Cambridge Crystallographic Data Centre
#                                CCDC 
#
#######################################################################
#
# If this CIF has been generated from an entry in the Cambridge 
# Structural Database, then it will include bibliographic, chemical, 
# crystal, experimental, refinement or atomic coordinate data resulting 
# from the CCDC's data processing and validation procedures.
#
#######################################################################

data_JIWRIR
_symmetry_cell_setting           monoclinic
_symmetry_space_group_name_H-M   'P 21/c'
_symmetry_Int_Tables_number      14
_space_group_name_Hall           '-P 2ybc'
loop_
_symmetry_equiv_pos_site_id
_symmetry_equiv_pos_as_xyz
1 x,y,z
2 -x,1/2+y,1/2-z
3 -x,-y,-z
4 x,1/2-y,1/2+z
_cell_length_a                   11.962(2)
_cell_length_b                   6.5552(13)
_cell_length_c                   12.673(3)
_cell_angle_alpha                90
_cell_angle_beta                 91.72(3)
_cell_angle_gamma                90
_cell_volume                     993.284
loop_
_atom_site_label
_atom_site_type_symbol
_atom_site_fract_x
_atom_site_fract_y
_atom_site_fract_z
Pd1 Pd 1.0000 0.0000 1.0000
O1 O 0.84830(14) -0.0827(3) 0.94131(13)
O2 O 0.75280(14) -0.0999(3) 0.78783(14)
O3 O 1.22371(15) -0.2892(3) 0.94924(14)
O4 O 1.33414(15) -0.0638(4) 0.86958(17)
O5 O 0.4167(2) -0.3565(5) 0.5987(2)
H1 H 0.375(4) -0.445(6) 0.630(3)
H2 H 0.388(4) -0.360(8) 0.535(2)
O6 O 0.50115(18) 0.1251(3) 0.66753(16)
H3 H 0.552(3) 0.210(6) 0.649(3)
H4 H 0.458(3) 0.122(6) 0.616(3)
O7 O 0.65958(17) -0.1398(3) 0.50755(16)
H5 H 0.694(3) -0.022(4) 0.516(4)
H6 H 0.710(4) -0.232(7) 0.493(4)
N1 N 1.04227(15) -0.0755(3) 0.85123(15)
C1 C 0.8408(2) -0.0831(4) 0.83888(19)
C2 C 0.95141(19) -0.0729(4) 0.78474(18)
C3 C 0.9600(2) -0.0750(4) 0.67649(18)
H7 H 0.8964 -0.0747 0.6324
C4 C 1.0668(2) -0.0775(4) 0.63491(19)
H8 H 1.0756 -0.0711 0.5623
C5 C 1.1594(2) -0.0897(4) 0.70281(19)
H9 H 1.2308 -0.0944 0.6760
C6 C 1.14490(18) -0.0951(4) 0.81134(18)
C7 C 1.24326(18) -0.1512(4) 0.88523(18)
Na1 Na 0.58233(9) -0.23987(18) 0.67404(8)
O1B O 1.15170(14) 0.0827(3) 1.05869(13)
O2B O 1.24720(14) 0.0999(3) 1.21217(14)
O3B O 0.77629(15) 0.2892(3) 1.05076(14)
O4B O 0.66586(15) 0.0638(4) 1.13042(17)
O4A O 0.66586(15) -0.5638(4) 0.63042(17)
O4C O 1.33414(15) 0.5638(4) 1.36958(17)
O5B O 1.5833(2) 0.3565(5) 1.4013(2)
H1B H 1.625(4) 0.445(6) 1.370(3)
H2B H 1.612(4) 0.360(8) 1.465(2)
O6A O 0.49885(18) -0.3749(3) 0.83247(16)
O6C O 1.50115(18) 0.3749(3) 1.16753(16)
O6B O 1.49885(18) -0.1251(3) 1.33247(16)
H3A H 0.448(3) -0.290(6) 0.851(3)
H3C H 1.552(3) 0.290(6) 1.149(3)
H3B H 1.448(3) -0.210(6) 1.351(3)
H4A H 0.542(3) -0.378(6) 0.884(3)
H4C H 1.458(3) 0.378(6) 1.116(3)
H4B H 1.542(3) -0.122(6) 1.384(3)
O7B O 1.34042(17) 0.1398(3) 1.49245(16)
H5B H 1.306(3) 0.022(4) 1.484(4)
H6B H 1.290(4) 0.232(7) 1.507(4)
N1B N 0.95773(15) 0.0755(3) 1.14877(15)
C1B C 1.1592(2) 0.0831(4) 1.16112(19)
C2B C 1.04859(19) 0.0729(4) 1.21526(18)
C3B C 1.0400(2) 0.0750(4) 1.32351(18)
H7B H 1.1036 0.0747 1.3676
C4B C 0.9332(2) 0.0775(4) 1.36509(19)
H8B H 0.9244 0.0711 1.4377
C5B C 0.8406(2) 0.0897(4) 1.29719(19)
H9B H 0.7692 0.0944 1.3240
C6B C 0.85510(18) 0.0951(4) 1.18866(18)
C7B C 0.75674(18) 0.1512(4) 1.11477(18)
Na1B Na 1.41767(9) 0.23987(18) 1.32596(8)
Na1A Na 1.41767(9) 0.26013(18) 0.82596(8)
Na1A_2 Na 0.41767(9) 0.26013(18) 0.82596(8)
Na1C Na 0.58233(9) -0.26013(18) 1.17404(8)
Na1A_3 Na 0.41767(9) -0.73987(18) 0.82596(8)
loop_
_geom_bond_atom_site_label_1
_geom_bond_atom_site_label_2
_geom_bond_site_symmetry_1
_geom_bond_site_symmetry_2
Pd1 O1 1_555 1_555
O1 C1 1_555 1_555
O2 C1 1_555 1_555
O3 C7 1_555 1_555
O4 C7 1_555 1_555
O5 H1 1_555 1_555
H2 O5 1_555 1_555
O6 H3 1_555 1_555
H4 O6 1_555 1_555
O7 H5 1_555 1_555
H6 O7 1_555 1_555
N1 Pd1 1_555 1_555
C1 C2 1_555 1_555
C2 N1 1_555 1_555
C3 C2 1_555 1_555
H7 C3 1_555 1_555
C4 C3 1_555 1_555
H8 C4 1_555 1_555
C5 C4 1_555 1_555
H9 C5 1_555 1_555
C6 N1 1_555 1_555
C7 C6 1_555 1_555
Na1 O2 1_555 1_555
O1B Pd1 1_555 1_555
O2B C1B 1_555 1_555
O3B C7B 1_555 1_555
O4B C7B 1_555 1_555
O4A Na1 1_555 1_555
O4C Na1B 1_555 1_555
O5B H1B 1_555 1_555
H2B O5B 1_555 1_555
O6A Na1 1_555 1_555
O6C H3C 1_555 1_555
O6B H3B 1_555 1_555
H3A O6A 1_555 1_555
H4A O6A 1_555 1_555
H4C O6C 1_555 1_555
H4B O6B 1_555 1_555
O7B H5B 1_555 1_555
H6B O7B 1_555 1_555
N1B Pd1 1_555 1_555
C1B O1B 1_555 1_555
C2B N1B 1_555 1_555
C3B C2B 1_555 1_555
H7B C3B 1_555 1_555
C4B C3B 1_555 1_555
H8B C4B 1_555 1_555
C5B C4B 1_555 1_555
H9B C5B 1_555 1_555
C6B N1B 1_555 1_555
C7B C6B 1_555 1_555
Na1B O2B 1_555 1_555
Na1A O4 1_555 1_555
Na1A_2 O6 1_555 1_555
Na1C O4B 1_555 1_555
Na1A_3 O6A 1_555 1_555
O5 Na1 1_555 1_555
O6 Na1 1_555 1_555
O7 Na1 1_555 1_555
C5 C6 1_555 1_555
O5B Na1B 1_555 1_555
O6C Na1B 1_555 1_555
O6B Na1B 1_555 1_555
O7B Na1B 1_555 1_555
C1B C2B 1_555 1_555
C5B C6B 1_555 1_555

#END
