
#######################################################################
#
#                 Cambridge Crystallographic Data Centre
#                                CCDC 
#
#######################################################################
#
# If this CIF has been generated from an entry in the Cambridge 
# Structural Database, then it will include bibliographic, chemical, 
# crystal, experimental, refinement or atomic coordinate data resulting 
# from the CCDC's data processing and validation procedures.
#
#######################################################################

data_JIWSAK
_symmetry_cell_setting           triclinic
_symmetry_space_group_name_H-M   'P -1'
_symmetry_Int_Tables_number      2
_space_group_name_Hall           '-P 1'
loop_
_symmetry_equiv_pos_site_id
_symmetry_equiv_pos_as_xyz
1 x,y,z
2 -x,-y,-z
_cell_length_a                   9.100(2)
_cell_length_b                   11.842(3)
_cell_length_c                   12.183(3)
_cell_angle_alpha                79.781(4)
_cell_angle_beta                 74.124(4)
_cell_angle_gamma                84.882(5)
_cell_volume                     1241.61
loop_
_atom_site_label
_atom_site_type_symbol
_atom_site_fract_x
_atom_site_fract_y
_atom_site_fract_z
C1 C 0.4034(6) 0.3302(5) 0.0707(4)
C2 C 0.4771(7) 0.3758(5) -0.0419(4)
H1 H 0.5830 0.3691 -0.0680
C3 C 0.3924(7) 0.4309(5) -0.1149(5)
H2 H 0.4443 0.4612 -0.1899
C4 C 0.1722(7) 0.3974(6) 0.0230(5)
H3 H 0.0659 0.4025 0.0458
C5 C 0.2465(7) 0.3429(6) 0.1032(5)
H4 H 0.1916 0.3151 0.1782
C6 C 0.3970(6) 0.2245(5) 0.2967(4)
H5 H 0.3104 0.1868 0.2897
H6 H 0.4503 0.1701 0.3435
C7 C 0.3386(6) 0.3264(4) 0.3580(4)
C8 C 0.1565(6) 0.8435(5) 0.1496(5)
C9 C 0.2621(7) 0.9237(6) 0.0886(6)
H7 H 0.3149 0.9197 0.0123
C10 C 0.2880(9) 1.0091(7) 0.1420(7)
H8 H 0.3590 1.0627 0.0989
C11 C 0.1178(8) 0.9444(6) 0.3076(6)
H9 H 0.0668 0.9508 0.3838
C12 C 0.0820(7) 0.8564(5) 0.2632(5)
H10 H 0.0086 0.8053 0.3080
C13 C 0.0186(6) 0.6361(5) 0.1989(4)
H11 H -0.0781 0.6741 0.2325
H12 H -0.0042 0.5715 0.1681
C14 C 0.0960(6) 0.5899(4) 0.2948(4)
C15 C 0.2847(6) 0.0380(5) 0.7205(5)
C16 C 0.3196(7) 0.0528(5) 0.6021(5)
H13 H 0.3704 0.1172 0.5581
C17 C 0.2792(7) -0.0281(6) 0.5490(6)
H14 H 0.3034 -0.0153 0.4686
C18 C 0.1732(7) -0.1354(6) 0.7203(6)
H15 H 0.1233 -0.2008 0.7626
C19 C 0.2057(7) -0.0587(5) 0.7803(6)
H16 H 0.1753 -0.0710 0.8607
C20 C 0.4800(6) 0.2141(5) 0.7024(4)
H17 H 0.5395 0.2396 0.7477
H18 H 0.5458 0.1615 0.6559
C21 C 0.4425(6) 0.3176(4) 0.6210(4)
N1 N 0.2409(6) 0.4435(5) -0.0847(4)
N2 N 0.2195(8) 1.0217(6) 0.2509(6)
N3 N 0.2079(6) -0.1237(5) 0.6041(5)
O1 O 0.2002(4) 0.3356(3) 0.4086(3)
O2 O 0.4317(4) 0.3979(3) 0.3598(3)
O3 O 0.0083(4) 0.5451(3) 0.3893(3)
O4 O 0.2354(4) 0.5935(3) 0.2820(3)
O5 O 0.3098(4) 0.3382(3) 0.6122(3)
O6 O 0.5545(4) 0.3776(3) 0.5646(3)
O7 O 0.2627(4) 0.5691(3) 0.6722(3)
H19 H 0.3680 0.5832 0.6633
H20 H 0.2299 0.5084 0.7359
O8 O 0.1084(4) 0.7006(3) 0.5113(3)
H21 H 0.1454 0.7331 0.5649
H22 H 0.0000 0.6926 0.5401
S1 S 0.52388(16) 0.26187(14) 0.15525(11)
S2 S 0.12549(17) 0.73465(13) 0.08118(11)
S3 S 0.32638(19) 0.13432(13) 0.80086(12)
Sm1 Sm 0.23528(3) 0.51043(2) 0.48909(2)
O3A O -0.0083(4) 0.4549(3) 0.6107(3)
O6A O 0.4455(4) 0.6224(3) 0.4354(3)
Sm1A Sm -0.23528(3) 0.48957(2) 0.51091(2)
Sm1A_2 Sm 0.76472(3) 0.48957(2) 0.51091(2)
loop_
_geom_bond_atom_site_label_1
_geom_bond_atom_site_label_2
_geom_bond_site_symmetry_1
_geom_bond_site_symmetry_2
C1 C2 1_555 1_555
C2 H1 1_555 1_555
C3 C2 1_555 1_555
H2 C3 1_555 1_555
C4 H3 1_555 1_555
C5 C1 1_555 1_555
H4 C5 1_555 1_555
C6 H5 1_555 1_555
H6 C6 1_555 1_555
C7 C6 1_555 1_555
C8 C9 1_555 1_555
C9 H7 1_555 1_555
C10 C9 1_555 1_555
H8 C10 1_555 1_555
C11 H9 1_555 1_555
C12 C8 1_555 1_555
H10 C12 1_555 1_555
C13 H11 1_555 1_555
H12 C13 1_555 1_555
C14 C13 1_555 1_555
C15 C16 1_555 1_555
C16 H13 1_555 1_555
C17 C16 1_555 1_555
H14 C17 1_555 1_555
C18 H15 1_555 1_555
C19 C15 1_555 1_555
H16 C19 1_555 1_555
C20 H17 1_555 1_555
H18 C20 1_555 1_555
C21 C20 1_555 1_555
N1 C3 1_555 1_555
N2 C10 1_555 1_555
N3 C17 1_555 1_555
O1 C7 1_555 1_555
O2 C7 1_555 1_555
O3 C14 1_555 1_555
O4 C14 1_555 1_555
O5 C21 1_555 1_555
O6 C21 1_555 1_555
O7 H19 1_555 1_555
H20 O7 1_555 1_555
O8 H21 1_555 1_555
H22 O8 1_555 1_555
S1 C1 1_555 1_555
S2 C8 1_555 1_555
S3 C15 1_555 1_555
Sm1 O1 1_555 1_555
O3A Sm1 1_555 1_555
O6A Sm1 1_555 1_555
Sm1A O3 1_555 1_555
Sm1A_2 O6 1_555 1_555
C4 C5 1_555 1_555
C4 N1 1_555 1_555
C6 S1 1_555 1_555
C11 C12 1_555 1_555
C11 N2 1_555 1_555
C13 S2 1_555 1_555
C18 C19 1_555 1_555
C18 N3 1_555 1_555
C20 S3 1_555 1_555
O2 Sm1 1_555 1_555
O3 Sm1 1_555 1_555
O4 Sm1 1_555 1_555
O5 Sm1 1_555 1_555
O7 Sm1 1_555 1_555
O8 Sm1 1_555 1_555
O3A Sm1A 1_555 1_555

#END
