
#######################################################################
#
#                 Cambridge Crystallographic Data Centre
#                                CCDC 
#
#######################################################################
#
# If this CIF has been generated from an entry in the Cambridge 
# Structural Database, then it will include bibliographic, chemical, 
# crystal, experimental, refinement or atomic coordinate data resulting 
# from the CCDC's data processing and validation procedures.
#
#######################################################################

data_JIWVAM
_symmetry_cell_setting           monoclinic
_symmetry_space_group_name_H-M   'P 21'
_symmetry_Int_Tables_number      4
_space_group_name_Hall           'P 2yb'
loop_
_symmetry_equiv_pos_site_id
_symmetry_equiv_pos_as_xyz
1 x,y,z
2 -x,1/2+y,-z
_cell_length_a                   12.101(6)
_cell_length_b                   7.805(4)
_cell_length_c                   15.415(7)
_cell_angle_alpha                90
_cell_angle_beta                 109.82(4)
_cell_angle_gamma                90
_cell_volume                     1369.68
loop_
_atom_site_label
_atom_site_type_symbol
_atom_site_fract_x
_atom_site_fract_y
_atom_site_fract_z
Cu1 Cu 0.82237(10) 0.24695(36) 0.56510(8)
Cu2 Cu 0.95567(9) 0.24151(32) 1.02409(8)
Cl2 Cl 0.7884(2) -0.2088(4) 0.5316(2)
C1 C 1.0116(8) 0.2032(12) 0.7365(6)
C2 C 1.1181(7) 0.1690(14) 0.9423(6)
C3 C 0.6010(8) 0.2005(16) 0.5895(9)
C4 C 0.5765(9) 0.2910(19) 0.5007(8)
C5 C 0.7961(12) 0.3056(19) 0.3755(8)
C6 C 0.6779(11) 0.3484(18) 0.3845(8)
C7 C 0.8647(10) 0.1879(15) 1.1670(7)
C8 C 0.9972(10) 0.1766(16) 1.2141(7)
C9 C 0.7218(8) 0.1645(15) 1.0066(7)
C10 C 0.7264(9) 0.1288(15) 0.9126(8)
C11 C 1.1415(7) 0.2187(14) 0.7868(6)
C12 C 1.2184(7) 0.2599(19) 0.7389(6)
C13 C 1.3367(8) 0.2753(21) 0.7824(7)
C14 C 1.3832(7) 0.2490(28) 0.8756(7)
C15 C 1.3110(8) 0.2083(16) 0.9260(6)
C16 C 1.1900(8) 0.1950(12) 0.8835(6)
N1 N 0.8842(8) 0.3192(15) 0.4663(6)
N2 N 0.6667(7) 0.2436(16) 0.4614(5)
N3 N 0.7251(7) 0.2312(17) 0.6459(6)
N4 N 1.0536(6) 0.2666(13) 1.1566(5)
N5 N 0.8405(7) 0.1327(11) 1.0726(6)
N6 N 0.8260(6) 0.2266(13) 0.9020(5)
O5 O 0.8632(10) -0.3271(19) 0.5192(12)
O6 O 0.7612(14) -0.1708(31) 0.6026(11)
O7 O 0.6895(8) -0.1708(16) 0.4537(6)
O8 O 0.8614(13) -0.0601(19) 0.5521(18)
O9 O 0.9766(5) 0.2713(12) 0.6565(4)
O10 O 0.9501(5) 0.1267(10) 0.7740(5)
O11 O 1.0736(5) 0.3030(9) 0.9636(4)
O12 O 1.1063(6) 0.0218(9) 0.9730(5)
H1 H 0.596 0.112 0.593
H2 H 0.547 0.220 0.605
H3 H 0.888 0.411 0.479
H4 H 0.935 0.274 0.467
H5 H 0.492 0.284 0.454
H6 H 0.695 0.153 0.471
H7 H 0.798 0.212 0.366
H8 H 0.826 0.339 0.341
H9 H 0.754 0.156 0.693
H10 H 0.726 0.315 0.660
H11 H 0.599 0.328 0.316
H12 H 0.665 0.466 0.391
H13 H 0.825 0.296 1.160
H14 H 0.830 0.111 1.203
H15 H 1.044 0.416 1.169
H16 H 1.101 0.222 1.162
H17 H 1.032 0.041 1.222
H18 H 1.016 0.221 1.270
H19 H 0.702 0.288 1.008
H20 H 0.670 0.105 1.019
H21 H 0.806 0.332 0.886
H22 H 0.850 0.220 0.862
H23 H 0.659 0.155 0.884
H24 H 0.732 0.030 0.893
H25 H 1.203 0.284 0.683
H26 H 1.370 0.282 0.752
H27 H 1.450 0.266 0.904
H28 H 1.352 0.204 0.984
O12A O 0.8937(6) 0.5218(9) 1.0270(5)
Cu2A Cu 1.04433(9) -0.25849(32) 0.97591(8)
Cl1 Cl 0.3839(3) 0.0976(5) 0.2265(2)
O1 O 0.2706(8) 0.0371(15) 0.2225(7)
O2 O 0.4681(8) 0.0496(14) 0.3083(6)
O3 O 0.4077(12) 0.0287(29) 0.1503(8)
O4 O 0.3730(13) 0.2851(16) 0.2238(14)
loop_
_geom_bond_atom_site_label_1
_geom_bond_atom_site_label_2
_geom_bond_site_symmetry_1
_geom_bond_site_symmetry_2
Cu1 N1 1_555 1_555
Cu2 N4 1_555 1_555
Cl1 O1 1_555 1_555
Cl2 O5 1_555 1_555
C1 C11 1_555 1_555
C2 C16 1_555 1_555
C3 C4 1_555 1_555
C4 N2 1_555 1_555
C5 C6 1_555 1_555
C6 N2 1_555 1_555
C7 C8 1_555 1_555
C8 N4 1_555 1_555
C9 C10 1_555 1_555
C10 N6 1_555 1_555
C11 C12 1_555 1_555
C12 C13 1_555 1_555
C13 C14 1_555 1_555
C14 C15 1_555 1_555
C15 C16 1_555 1_555
C16 C11 1_555 1_555
N1 C5 1_555 1_555
N2 Cu1 1_555 1_555
N3 Cu1 1_555 1_555
N4 H15 1_555 1_555
N5 Cu2 1_555 1_555
N6 Cu2 1_555 1_555
O2 Cl1 1_555 1_555
O3 Cl1 1_555 1_555
O4 Cl1 1_555 1_555
O6 Cl2 1_555 1_555
O7 Cl2 1_555 1_555
O8 Cu1 1_555 1_555
O9 Cu1 1_555 1_555
O10 C1 1_555 1_555
O11 Cu2 1_555 1_555
O12 C2 1_555 1_555
H1 C3 1_555 1_555
H2 C3 1_555 1_555
H3 N1 1_555 1_555
H4 N1 1_555 1_555
H5 C4 1_555 1_555
H6 N2 1_555 1_555
H7 C5 1_555 1_555
H8 C5 1_555 1_555
H9 N3 1_555 1_555
H10 N3 1_555 1_555
H11 C6 1_555 1_555
H12 C6 1_555 1_555
H13 C7 1_555 1_555
H14 C7 1_555 1_555
H16 N4 1_555 1_555
H17 C8 1_555 1_555
H18 C8 1_555 1_555
H19 C9 1_555 1_555
H20 C9 1_555 1_555
H21 N6 1_555 1_555
H22 N6 1_555 1_555
H23 C10 1_555 1_555
H24 C10 1_555 1_555
H25 C12 1_555 1_555
H26 C13 1_555 1_555
H27 C14 1_555 1_555
H28 C15 1_555 1_555
O12A Cu2 1_555 1_555
Cu2A O12 1_555 1_555
Cl2 O8 1_555 1_555
C1 O9 1_555 1_555
C2 O11 1_555 1_555
C3 N3 1_555 1_555
C7 N5 1_555 1_555
C9 N5 1_555 1_555

#END
