
#######################################################################
#
#                 Cambridge Crystallographic Data Centre
#                                CCDC 
#
#######################################################################
#
# If this CIF has been generated from an entry in the Cambridge 
# Structural Database, then it will include bibliographic, chemical, 
# crystal, experimental, refinement or atomic coordinate data resulting 
# from the CCDC's data processing and validation procedures.
#
#######################################################################

data_JIXRUE
_symmetry_cell_setting           triclinic
_symmetry_space_group_name_H-M   'P -1'
_symmetry_Int_Tables_number      2
_space_group_name_Hall           '-P 1'
loop_
_symmetry_equiv_pos_site_id
_symmetry_equiv_pos_as_xyz
1 x,y,z
2 -x,-y,-z
_cell_length_a                   7.645(7)
_cell_length_b                   8.230(7)
_cell_length_c                   12.435(9)
_cell_angle_alpha                99.99(8)
_cell_angle_beta                 91.52(7)
_cell_angle_gamma                113.86(8)
_cell_volume                     700.602
loop_
_atom_site_label
_atom_site_type_symbol
_atom_site_fract_x
_atom_site_fract_y
_atom_site_fract_z
K1 K 1.48932(9) -0.23370(8) 0.08337(5)
O1 O 1.7015(2) -0.1200(3) 0.31392(15)
O2 O 2.2491(3) 0.4717(3) 0.19426(17)
O3 O 2.4899(3) 0.4369(3) 0.12041(17)
O4 O 2.4939(3) 0.1218(3) 0.12037(19)
N1 N 1.8973(3) 0.1245(3) 0.44550(16)
N2 N 2.2060(3) 0.3072(3) 0.39583(16)
O5 O 2.3392(3) -0.0143(3) 0.2452(2)
N3 N 1.9860(3) 0.0540(3) 0.26688(17)
N4 N 2.1118(3) 0.3766(3) 0.56693(16)
N5 N 2.3489(3) 0.3829(3) 0.17435(16)
N6 N 2.3826(3) 0.1116(3) 0.19255(17)
C1 C 1.8663(3) 0.0253(3) 0.34520(19)
C2 C 2.1547(3) 0.1957(3) 0.29903(18)
C3 C 2.0694(3) 0.2668(3) 0.46756(18)
O6 O 1.8910(4) -0.1429(5) 0.0506(2)
H1 H 1.9599 -0.0680 0.1038
H2 H 1.8686 -0.0872 0.0042
C4 C 2.2978(3) 0.2300(3) 0.21722(18)
C5 C 2.2903(4) 0.5372(4) 0.5957(2)
H3 H 2.2945 0.5974 0.6697
H4 H 2.2983 0.6175 0.5466
H5 H 2.3965 0.5033 0.5898
C6 C 1.5637(3) -0.1626(4) 0.3936(2)
H6 H 1.4515 -0.2701 0.3618
H7 H 1.5279 -0.0633 0.4148
H8 H 1.6203 -0.1826 0.4571
O7 O 1.1194(7) -0.3261(9) -0.0134(4)
C7 C 1.9789(4) 0.3401(4) 0.6508(2)
H9 H 2.0338 0.4328 0.7159
H10 H 1.9558 0.2242 0.6678
H11 H 1.8596 0.3393 0.6239
H12 H 0.9890 -0.3430 0.0281
H13 H 1.1581 -0.2040 -0.0531
K1_2 K 2.48932(9) 0.76630(8) 0.08337(5)
K1A K 2.51068(9) 0.23370(8) -0.08337(5)
K1_3 K 2.48932(9) -0.23370(8) 0.08337(5)
O2_2 O 1.2491(3) -0.5283(3) 0.19426(17)
O3_2 O 1.4899(3) -0.5631(3) 0.12041(17)
O3A O 1.5101(3) -0.4369(3) -0.12041(17)
O4_2 O 1.4939(3) 0.1218(3) 0.12037(19)
O4A O 1.5061(3) -0.1218(3) -0.12037(19)
O5_2 O 1.3392(3) -0.0143(3) 0.2452(2)
loop_
_geom_bond_atom_site_label_1
_geom_bond_atom_site_label_2
_geom_bond_site_symmetry_1
_geom_bond_site_symmetry_2
K1 O1 1_555 1_555
O1 C1 1_555 1_555
O2 N5 1_555 1_555
O3 N5 1_555 1_555
O4 N6 1_555 1_555
N1 C1 1_555 1_555
N2 C2 1_555 1_555
O5 N6 1_555 1_555
N3 C1 1_555 1_555
N4 C3 1_555 1_555
N5 C4 1_555 1_555
N6 C4 1_555 1_555
C2 N3 1_555 1_555
C3 N1 1_555 1_555
O6 K1 1_555 1_555
H1 O6 1_555 1_555
H2 O6 1_555 1_555
C4 C2 1_555 1_555
C5 N4 1_555 1_555
H3 C5 1_555 1_555
H4 C5 1_555 1_555
H5 C5 1_555 1_555
C6 O1 1_555 1_555
H6 C6 1_555 1_555
H7 C6 1_555 1_555
H8 C6 1_555 1_555
O7 K1 1_555 1_555
C7 N4 1_555 1_555
H9 C7 1_555 1_555
H10 C7 1_555 1_555
H11 C7 1_555 1_555
H12 O7 1_555 1_555
H13 O7 1_555 1_555
K1_2 O2 1_555 1_555
K1A O3 1_555 1_555
K1_3 O4 1_555 1_555
O2_2 K1 1_555 1_555
O3_2 K1 1_555 1_555
O3A K1 1_555 1_555
O4_2 K1 1_555 1_555
O4A K1 1_555 1_555
O5_2 K1 1_555 1_555
O3 K1_2 1_555 1_555
O4 K1A 1_555 1_555
N2 C3 1_555 1_555
O5 K1_3 1_555 1_555

#END
