
#######################################################################
#
#                 Cambridge Crystallographic Data Centre
#                                CCDC 
#
#######################################################################
#
# If this CIF has been generated from an entry in the Cambridge 
# Structural Database, then it will include bibliographic, chemical, 
# crystal, experimental, refinement or atomic coordinate data resulting 
# from the CCDC's data processing and validation procedures.
#
#######################################################################

data_JIYGII
_symmetry_cell_setting           monoclinic
_symmetry_space_group_name_H-M   'P 21/n'
_symmetry_Int_Tables_number      14
_space_group_name_Hall           '-P 2yn'
loop_
_symmetry_equiv_pos_site_id
_symmetry_equiv_pos_as_xyz
1 x,y,z
2 1/2-x,1/2+y,1/2-z
3 -x,-y,-z
4 1/2+x,1/2-y,1/2+z
_cell_length_a                   6.506(4)
_cell_length_b                   9.392(6)
_cell_length_c                   11.217(7)
_cell_angle_alpha                90
_cell_angle_beta                 105.650(12)
_cell_angle_gamma                90
_cell_volume                     659.998
loop_
_atom_site_label
_atom_site_type_symbol
_atom_site_fract_x
_atom_site_fract_y
_atom_site_fract_z
N1 N -0.7980(3) 0.1145(2) -0.53001(19)
Mn1 Mn -0.82345(6) 0.35912(4) -0.53233(4)
C1 C -0.7135(4) -0.1757(3) -0.4919(2)
C2 C -0.6408(4) -0.0787(3) -0.3956(2)
H1 H -0.5619 -0.1092 -0.3178
C3 C -0.6887(4) 0.0638(3) -0.4185(2)
C4 C -0.8622(4) 0.0209(3) -0.6230(2)
H2 H -0.9336 0.0547 -0.7011
C5 C -0.8262(4) -0.1238(3) -0.6073(2)
H3 H -0.8769 -0.1859 -0.6732
C6 C -0.6197(4) 0.1741(3) -0.3175(2)
C7 C -0.6711(4) -0.3326(3) -0.4707(2)
O1 O -0.6779(3) 0.3004(2) -0.34448(17)
O2 O -0.5089(3) 0.1314(2) -0.21496(17)
O3 O -0.8346(3) -0.4128(2) -0.50751(17)
O4 O -0.4866(3) -0.3726(2) -0.41942(18)
Mn1C Mn -0.32345(6) 0.14088(4) -0.03233(4)
Mn1_2 Mn -0.82345(6) -0.64088(4) -0.53233(4)
Mn1B Mn -1.17655(6) -0.35912(4) -0.46767(4)
Mn1B_2 Mn -0.17655(6) -0.35912(4) -0.46767(4)
O2C O -1.0089(3) 0.3686(2) -0.71496(17)
O3_2 O -0.8346(3) 0.5872(2) -0.50751(17)
O3B O -1.1654(3) 0.4128(2) -0.49249(17)
O4B O -0.5134(3) 0.3726(2) -0.58058(18)
loop_
_geom_bond_atom_site_label_1
_geom_bond_atom_site_label_2
_geom_bond_site_symmetry_1
_geom_bond_site_symmetry_2
N1 Mn1 1_555 1_555
Mn1 O1 1_555 1_555
C1 C2 1_555 1_555
C2 H1 1_555 1_555
C3 N1 1_555 1_555
C4 N1 1_555 1_555
H2 C4 1_555 1_555
C5 C1 1_555 1_555
H3 C5 1_555 1_555
C6 C3 1_555 1_555
C7 C1 1_555 1_555
O1 C6 1_555 1_555
O2 C6 1_555 1_555
O3 C7 1_555 1_555
O4 C7 1_555 1_555
Mn1C O2 1_555 1_555
Mn1_2 O3 1_555 1_555
Mn1B O3 1_555 1_555
Mn1B_2 O4 1_555 1_555
O2C Mn1 1_555 1_555
O3_2 Mn1 1_555 1_555
O3B Mn1 1_555 1_555
O4B Mn1 1_555 1_555
C2 C3 1_555 1_555
C4 C5 1_555 1_555

#END
