
#######################################################################
#
#                 Cambridge Crystallographic Data Centre
#                                CCDC 
#
#######################################################################
#
# If this CIF has been generated from an entry in the Cambridge 
# Structural Database, then it will include bibliographic, chemical, 
# crystal, experimental, refinement or atomic coordinate data resulting 
# from the CCDC's data processing and validation procedures.
#
#######################################################################

data_JIYLEI
_symmetry_cell_setting           monoclinic
_symmetry_space_group_name_H-M   'P 21/c'
_symmetry_Int_Tables_number      14
_space_group_name_Hall           '-P 2ybc'
loop_
_symmetry_equiv_pos_site_id
_symmetry_equiv_pos_as_xyz
1 x,y,z
2 -x,1/2+y,1/2-z
3 -x,-y,-z
4 x,1/2-y,1/2+z
_cell_length_a                   12.849(2)
_cell_length_b                   4.9992(3)
_cell_length_c                   15.047(3)
_cell_angle_alpha                90
_cell_angle_beta                 113.91(1)
_cell_angle_gamma                90
_cell_volume                     883.595
loop_
_atom_site_label
_atom_site_type_symbol
_atom_site_fract_x
_atom_site_fract_y
_atom_site_fract_z
Ag1 Ag 0.43274(2) 0.14877(5) 0.24552(2)
N1 N 0.2438(2) -0.3166(5) 0.1565(2)
O1 O 0.2569(2) -0.1028(5) 0.2035(2)
O2 O 0.3224(2) -0.4022(5) 0.1351(2)
O3 O 0.1534(2) -0.4408(6) 0.1321(2)
O4 O 0.3763(2) 0.3886(4) 0.3516(2)
O5 O 0.4977(2) 0.2226(5) 0.1267(2)
C1 C 0.4180(3) 0.6124(6) 0.3813(2)
C2 C 0.3669(3) 0.7815(6) 0.4381(2)
N2 N 0.2522(2) 0.6909(5) 0.4251(2)
C3 C 0.2418(3) 0.4823(7) 0.4764(2)
C4 C 0.1358(3) 0.3945(7) 0.4657(3)
C5 C 0.0405(3) 0.5277(8) 0.4008(3)
C6 C 0.0541(3) 0.7394(9) 0.3497(2)
C7 C 0.1602(3) 0.8179(7) 0.3615(2)
H1 H 0.3618 0.9635 0.4163
H2 H 0.4162 0.7721 0.5059
H3 H 0.3087 0.3932 0.5212
H4 H 0.1280 0.2442 0.5022
H5 H -0.0344 0.4708 0.3921
H6 H -0.0114 0.8337 0.3053
H7 H 0.1694 0.9646 0.3241
Ag1A Ag 0.56726(2) 0.64877(5) 0.25448(2)
Ag1A_2 Ag 0.56726(2) -0.35123(5) 0.25448(2)
C1A C 0.5820(3) 0.1124(6) 0.1187(2)
O5A O 0.5023(2) 0.7226(5) 0.3733(2)
Ag1_2 Ag 0.43274(2) 1.14877(5) 0.24552(2)
O1A O 0.7431(2) 0.3972(5) 0.2965(2)
O4A O 0.6237(2) 0.8886(4) 0.1484(2)
O4A_2 O 0.6237(2) -0.1114(4) 0.1484(2)
C2A C 0.6331(3) 0.2815(6) 0.0619(2)
N1A N 0.7562(2) 0.1834(5) 0.3435(2)
C1A_2 C 0.5820(3) 1.1124(6) 0.1187(2)
N2A N 0.7478(2) 0.1909(5) 0.0749(2)
H1A H 0.6382 0.4635 0.0837
H2A H 0.5838 0.2721 -0.0059
O2A O 0.6776(2) 0.0978(5) 0.3649(2)
O3A O 0.8466(2) 0.0592(6) 0.3679(2)
C3A C 0.7582(3) -0.0177(7) 0.0236(2)
C7A C 0.8398(3) 0.3179(7) 0.1385(2)
C4A C 0.8642(3) -0.1055(7) 0.0343(3)
H3A H 0.6913 -0.1068 -0.0212
C6A C 0.9459(3) 0.2394(9) 0.1503(2)
H7A H 0.8306 0.4646 0.1759
C5A C 0.9595(3) 0.0277(8) 0.0992(3)
H4A H 0.8720 -0.2558 -0.0022
H6A H 1.0114 0.3337 0.1947
H5A H 1.0344 -0.0292 0.1079
loop_
_geom_bond_atom_site_label_1
_geom_bond_atom_site_label_2
_geom_bond_site_symmetry_1
_geom_bond_site_symmetry_2
Ag1 O1 1_555 1_555
N1 O1 1_555 1_555
O2 N1 1_555 1_555
O3 N1 1_555 1_555
O4 Ag1 1_555 1_555
O5 Ag1 1_555 1_555
C1 O4 1_555 1_555
C2 C1 1_555 1_555
N2 C2 1_555 1_555
C3 N2 1_555 1_555
C4 C3 1_555 1_555
C5 C4 1_555 1_555
C6 C5 1_555 1_555
C7 N2 1_555 1_555
H1 C2 1_555 1_555
H2 C2 1_555 1_555
H3 C3 1_555 1_555
H4 C4 1_555 1_555
H5 C5 1_555 1_555
H6 C6 1_555 1_555
H7 C7 1_555 1_555
Ag1A Ag1 1_555 1_555
Ag1A_2 Ag1 1_555 1_555
C1A O5 1_555 1_555
O5A C1 1_555 1_555
Ag1_2 Ag1A 1_555 1_555
O1A Ag1A 1_555 1_555
O4A Ag1A 1_555 1_555
O4A_2 C1A 1_555 1_555
C2A C1A 1_555 1_555
N1A O1A 1_555 1_555
C1A_2 O4A 1_555 1_555
N2A C2A 1_555 1_555
H1A C2A 1_555 1_555
H2A C2A 1_555 1_555
O2A N1A 1_555 1_555
O3A N1A 1_555 1_555
C3A N2A 1_555 1_555
C7A N2A 1_555 1_555
C4A C3A 1_555 1_555
H3A C3A 1_555 1_555
C6A C7A 1_555 1_555
H7A C7A 1_555 1_555
C5A C4A 1_555 1_555
H4A C4A 1_555 1_555
H6A C6A 1_555 1_555
H5A C5A 1_555 1_555
C6 C7 1_555 1_555
Ag1A O5A 1_555 1_555
C6A C5A 1_555 1_555

#END
