
#######################################################################
#
#                 Cambridge Crystallographic Data Centre
#                                CCDC 
#
#######################################################################
#
# If this CIF has been generated from an entry in the Cambridge 
# Structural Database, then it will include bibliographic, chemical, 
# crystal, experimental, refinement or atomic coordinate data resulting 
# from the CCDC's data processing and validation procedures.
#
#######################################################################

data_JIYNOU
_symmetry_cell_setting           orthorhombic
_symmetry_space_group_name_H-M   'P b c a'
_symmetry_Int_Tables_number      61
_space_group_name_Hall           '-P 2ac 2ab'
loop_
_symmetry_equiv_pos_site_id
_symmetry_equiv_pos_as_xyz
1 x,y,z
2 1/2-x,-y,1/2+z
3 1/2+x,1/2-y,-z
4 -x,1/2+y,1/2-z
5 -x,-y,-z
6 1/2+x,y,1/2-z
7 1/2-x,1/2+y,z
8 x,1/2-y,1/2+z
_cell_length_a                   8.527(2)
_cell_length_b                   20.156(3)
_cell_length_c                   17.123(3)
_cell_angle_alpha                90
_cell_angle_beta                 90
_cell_angle_gamma                90
_cell_volume                     2942.93
loop_
_atom_site_label
_atom_site_type_symbol
_atom_site_fract_x
_atom_site_fract_y
_atom_site_fract_z
Co1 Co 0.1205(1) 0.7426(1) 0.6271(1)
Co2 Co 0.5000 1.0000 0.5000
O1 O -0.1289(2) 0.7397(1) 0.6493(1)
O2 O 0.1506(3) 0.6490(1) 0.6786(1)
O3 O 0.0739(2) 0.6937(1) 0.5212(1)
O4 O 0.3637(3) 0.7430(1) 0.6077(1)
O5 O 0.1687(3) 0.7891(1) 0.7331(1)
O6 O 0.3433(3) 1.0297(1) 0.5877(1)
O7 O -0.1417(2) 0.8331(1) 0.5411(1)
O8 O 0.1065(2) 0.8372(1) 0.5798(1)
O9 O 0.1927(2) 0.8622(1) 0.4009(1)
O10 O 0.3769(2) 0.9129(1) 0.4704(1)
O11 O 0.3811(2) 1.0500(1) 0.4126(1)
O12 O -0.1896(2) 0.9387(1) 0.6740(1)
C1 C -0.0040(3) 0.9340(1) 0.5236(1)
C2 C 0.1155(3) 0.9556(1) 0.4748(1)
C3 C -0.1184(3) 0.9778(1) 0.5493(1)
C4 C -0.0132(3) 0.8623(1) 0.5500(1)
C5 C 0.2380(3) 0.9065(1) 0.4463(1)
C6 C -0.2396(3) 0.9539(1) 0.6080(1)
H1 H -0.1627(37) 0.7665(15) 0.6144(17)
H2 H -0.1803(36) 0.7106(15) 0.6355(19)
H3 H 0.2525(38) 0.6426(15) 0.6918(18)
H4 H 0.0889(39) 0.6371(16) 0.7102(18)
H5 H 0.1593(34) 0.6822(15) 0.4972(18)
H6 H 0.0111(37) 0.6656(15) 0.5225(18)
H7 H 0.4038(44) 0.7761(17) 0.6226(21)
H8 H 0.3945(50) 0.7355(21) 0.5779(22)
H9 H 0.2260(38) 0.7765(16) 0.7607(20)
H10 H 0.1027(37) 0.8086(15) 0.7539(19)
H11 H 0.3591(39) 1.0617(16) 0.6091(19)
H12 H 0.2819(37) 1.0079(16) 0.6135(18)
Co1D Co -0.1205(1) 1.2574(1) 0.3729(1)
Co2_2 Co -0.5000 1.0000 0.5000
O1D O 0.1289(2) 1.2603(1) 0.3507(1)
O2D O -0.1506(3) 1.3510(1) 0.3214(1)
O3D O -0.0739(2) 1.3063(1) 0.4788(1)
O4D O -0.3637(3) 1.2570(1) 0.3923(1)
O5D O -0.1687(3) 1.2109(1) 0.2669(1)
O6D O 0.6567(3) 0.9703(1) 0.4123(1)
O7D O 0.1417(2) 1.1669(1) 0.4589(1)
O8D O -0.1065(2) 1.1628(1) 0.4202(1)
O9D O -0.1927(2) 1.1378(1) 0.5991(1)
O10D O -0.3769(2) 1.0871(1) 0.5296(1)
O10D_2 O 0.6231(2) 1.0871(1) 0.5296(1)
O11D O -0.3811(2) 0.9500(1) 0.5874(1)
O11D_2 O 0.6189(2) 0.9500(1) 0.5874(1)
O12D O 0.1896(2) 1.0613(1) 0.3260(1)
C1D C 0.0040(3) 1.0660(1) 0.4764(1)
C2D C -0.1155(3) 1.0444(1) 0.5252(1)
C3D C 0.1184(3) 1.0222(1) 0.4507(1)
C4D C 0.0132(3) 1.1377(1) 0.4500(1)
C5D C -0.2380(3) 1.0935(1) 0.5537(1)
C6D C 0.2396(3) 1.0461(1) 0.3920(1)
H1D H 0.1627(37) 1.2335(15) 0.3856(17)
H2D H 0.1803(36) 1.2894(15) 0.3645(19)
H3D H -0.2525(38) 1.3574(15) 0.3082(18)
H4D H -0.0889(39) 1.3629(16) 0.2898(18)
H5D H -0.1593(34) 1.3178(15) 0.5028(18)
H6D H -0.0111(37) 1.3344(15) 0.4775(18)
H7D H -0.4038(44) 1.2239(17) 0.3774(21)
H8D H -0.3945(50) 1.2645(21) 0.4221(22)
H9D H -0.2260(38) 1.2235(16) 0.2393(20)
H10D H -0.1027(37) 1.1914(15) 0.2461(19)
H11D H 0.6409(39) 0.9383(16) 0.3909(19)
H12D H 0.7181(37) 0.9921(16) 0.3865(18)
O13 O 0.5396(3) 0.1399(1) 0.3224(2)
H13 H 0.5002(41) 0.1115(17) 0.3466(21)
H14 H 0.6155(43) 0.1283(18) 0.3095(22)
O14 O 0.1290(3) 0.5221(1) 0.1994(1)
H15 H 0.0470(43) 0.5412(19) 0.1965(21)
H16 H 0.1786(44) 0.5360(18) 0.2308(22)
O15 O 0.5469(3) 0.1114(1) 0.7942(2)
H17 H 0.4915(39) 0.1216(16) 0.8284(19)
H18 H 0.5630(44) 0.0788(16) 0.7914(21)
loop_
_geom_bond_atom_site_label_1
_geom_bond_atom_site_label_2
_geom_bond_site_symmetry_1
_geom_bond_site_symmetry_2
Co1 O1 1_555 1_555
Co2 O6 1_555 1_555
O1 H1 1_555 1_555
O2 Co1 1_555 1_555
O3 Co1 1_555 1_555
O4 Co1 1_555 1_555
O5 Co1 1_555 1_555
O6 H11 1_555 1_555
O7 C4 1_555 1_555
O8 Co1 1_555 1_555
O9 C5 1_555 1_555
O10 Co2 1_555 1_555
O11 Co2 1_555 1_555
O12 C6 1_555 1_555
C1 C2 1_555 1_555
C2 C5 1_555 1_555
C3 C1 1_555 1_555
C4 O8 1_555 1_555
C5 O10 1_555 1_555
C6 C3 1_555 1_555
H2 O1 1_555 1_555
H3 O2 1_555 1_555
H4 O2 1_555 1_555
H5 O3 1_555 1_555
H6 O3 1_555 1_555
H7 O4 1_555 1_555
H8 O4 1_555 1_555
H9 O5 1_555 1_555
H10 O5 1_555 1_555
H12 O6 1_555 1_555
O13 H13 1_555 1_555
H14 O13 1_555 1_555
O14 H15 1_555 1_555
H16 O14 1_555 1_555
O15 H17 1_555 1_555
H18 O15 1_555 1_555
Co1D O1D 1_555 1_555
Co2_2 O10D 1_555 1_555
O1D H1D 1_555 1_555
O2D Co1D 1_555 1_555
O3D Co1D 1_555 1_555
O4D Co1D 1_555 1_555
O5D Co1D 1_555 1_555
O6D Co2 1_555 1_555
O7D C4D 1_555 1_555
O8D Co1D 1_555 1_555
O9D C5D 1_555 1_555
O10D C5D 1_555 1_555
O10D_2 Co2 1_555 1_555
O11D C6 1_555 1_555
O11D_2 Co2 1_555 1_555
O12D C6D 1_555 1_555
C1D C2D 1_555 1_555
C2D C3 1_555 1_555
C3D C2 1_555 1_555
C4D O8D 1_555 1_555
C5D C2D 1_555 1_555
C6D O11 1_555 1_555
H2D O1D 1_555 1_555
H3D O2D 1_555 1_555
H4D O2D 1_555 1_555
H5D O3D 1_555 1_555
H6D O3D 1_555 1_555
H7D O4D 1_555 1_555
H8D O4D 1_555 1_555
H9D O5D 1_555 1_555
H10D O5D 1_555 1_555
H11D O6D 1_555 1_555
H12D O6D 1_555 1_555
C1 C4 1_555 1_555
Co2_2 O11D 1_555 1_555
C1D C3D 1_555 1_555
C1D C4D 1_555 1_555
C3D C6D 1_555 1_555

#END
