
#######################################################################
#
#                 Cambridge Crystallographic Data Centre
#                                CCDC 
#
#######################################################################
#
# If this CIF has been generated from an entry in the Cambridge 
# Structural Database, then it will include bibliographic, chemical, 
# crystal, experimental, refinement or atomic coordinate data resulting 
# from the CCDC's data processing and validation procedures.
#
#######################################################################

data_JIYNOU03
_symmetry_cell_setting           orthorhombic
_symmetry_space_group_name_H-M   'P b c a'
_symmetry_Int_Tables_number      61
_space_group_name_Hall           '-P 2ac 2ab'
loop_
_symmetry_equiv_pos_site_id
_symmetry_equiv_pos_as_xyz
1 x,y,z
2 1/2-x,-y,1/2+z
3 -x,1/2+y,1/2-z
4 1/2+x,1/2-y,-z
5 -x,-y,-z
6 1/2+x,y,1/2-z
7 x,1/2-y,1/2+z
8 1/2-x,1/2+y,z
_cell_length_a                   17.0348(11)
_cell_length_b                   8.4649(5)
_cell_length_c                   20.0674(11)
_cell_angle_alpha                90
_cell_angle_beta                 90
_cell_angle_gamma                90
_cell_volume                     2893.68
loop_
_atom_site_label
_atom_site_type_symbol
_atom_site_fract_x
_atom_site_fract_y
_atom_site_fract_z
Co1 Co 0.5000 1.0000 0.5000
Co2 Co 0.37310(2) 0.62357(4) 0.75791(2)
C1 C 0.55002(16) 0.6197(3) 0.47796(13)
C2 C 0.52573(16) 0.6158(3) 0.54437(13)
C3 C 0.47603(15) 0.4961(3) 0.56629(12)
C4 C 0.60905(16) 0.7387(3) 0.45353(12)
C5 C 0.55484(17) 0.7370(3) 0.59357(13)
C6 C 0.44987(16) 0.4882(3) 0.63803(13)
O1 O 0.58871(12) 0.8827(2) 0.44999(9)
O2 O 0.67523(12) 0.6882(2) 0.43793(9)
O3 O 0.53061(12) 0.8783(2) 0.58738(9)
O4 O 0.60034(12) 0.6920(2) 0.63820(9)
O5 O 0.42168(12) 0.6100(2) 0.66356(9)
O6 O 0.45730(12) 0.3580(2) 0.66698(9)
O7 O 0.58725(13) 1.1597(2) 0.52984(11)
H1 H 0.6115(17) 1.224(3) 0.5072(13)
H2 H 0.6113(19) 1.147(4) 0.5643(11)
O8 O 0.34966(12) 0.3722(2) 0.76044(10)
H3 H 0.3615(19) 0.325(3) 0.7947(10)
H4 H 0.3860(16) 0.355(5) 0.7337(13)
O9 O 0.47948(13) 0.5735(2) 0.80596(10)
H5 H 0.475(2) 0.512(3) 0.8369(12)
H6 H 0.500(2) 0.655(3) 0.8196(17)
O10 O 0.39314(13) 0.8691(2) 0.75865(10)
H7 H 0.4376(14) 0.899(5) 0.767(2)
H8 H 0.380(2) 0.910(5) 0.7236(13)
O11 O 0.26772(13) 0.6755(3) 0.71014(11)
H9 H 0.2430(19) 0.613(4) 0.6869(16)
H10 H 0.2353(17) 0.735(4) 0.7275(16)
O12 O 0.32179(13) 0.6520(2) 0.85183(10)
H11 H 0.304(2) 0.741(2) 0.858(2)
H12 H 0.2864(18) 0.590(3) 0.862(2)
C1D C 0.44998(16) 0.3803(3) 0.52204(13)
C2D C 0.47427(16) 0.3842(3) 0.45563(13)
C3D C 0.52397(15) 0.5039(3) 0.43371(12)
C4D C 0.39095(16) 0.2613(3) 0.54647(12)
C5D C 0.44516(17) 0.2630(3) 0.40643(13)
C6D C 0.55013(16) 0.5118(3) 0.36197(13)
O1D O 0.41129(12) 0.1173(2) 0.55001(9)
O2D O 0.32477(12) 0.3118(2) 0.56207(9)
O3D O 0.46939(12) 0.1217(2) 0.41262(9)
O4D O 0.39966(12) 0.3080(2) 0.36180(9)
O5D O 0.57832(12) 0.3900(2) 0.33644(9)
O6D O 0.54270(12) 0.6420(2) 0.33302(9)
Co2D Co 0.62690(2) 0.37643(4) 0.24209(2)
O8D O 0.65034(12) 0.6278(2) 0.23956(10)
H3D H 0.6385(19) 0.675(3) 0.2053(10)
H4D H 0.6140(16) 0.645(5) 0.2663(13)
O9D O 0.52052(13) 0.4265(2) 0.19404(10)
H5D H 0.525(2) 0.488(3) 0.1631(12)
H6D H 0.500(2) 0.345(3) 0.1804(17)
O10D O 0.60686(13) 0.1309(2) 0.24135(10)
H7D H 0.5624(14) 0.101(5) 0.233(2)
H8D H 0.620(2) 0.090(5) 0.2764(13)
O11D O 0.73228(13) 0.3245(3) 0.28986(11)
H9D H 0.7570(19) 0.387(4) 0.3131(16)
H10D H 0.7647(17) 0.265(4) 0.2725(16)
O12D O 0.67821(13) 0.3480(2) 0.14817(10)
H11D H 0.696(2) 0.259(2) 0.142(2)
H12D H 0.7136(18) 0.410(3) 0.138(2)
O7D O 0.41275(13) 0.8403(2) 0.47016(11)
H1D H 0.3885(17) 0.776(3) 0.4928(13)
H2D H 0.3887(19) 0.853(4) 0.4357(11)
Co1_2 Co 0.5000 0.0000 0.5000
O1D_2 O 0.41129(12) 1.1173(2) 0.55001(9)
O3D_2 O 0.46939(12) 1.1217(2) 0.41262(9)
O13 O 0.67707(15) 1.0365(3) 0.35765(10)
H13 H 0.654(2) 1.004(4) 0.3910(13)
H14 H 0.698(2) 1.120(3) 0.3683(18)
O14 O 0.70679(14) 0.4543(3) 0.61108(11)
H15 H 0.6684(16) 0.509(4) 0.6194(15)
H16 H 0.706(2) 0.433(4) 0.5717(9)
O15 O 0.80069(14) 0.8724(3) 0.47818(11)
H17 H 0.8072(19) 0.955(3) 0.4589(14)
H18 H 0.765(2) 0.824(3) 0.4652(18)
loop_
_geom_bond_atom_site_label_1
_geom_bond_atom_site_label_2
_geom_bond_site_symmetry_1
_geom_bond_site_symmetry_2
Co1 O1 1_555 1_555
Co2 O5 1_555 1_555
C1 C2 1_555 1_555
C2 C3 1_555 1_555
C3 C6 1_555 1_555
C4 C1 1_555 1_555
C5 C2 1_555 1_555
C6 O5 1_555 1_555
O1 C4 1_555 1_555
O2 C4 1_555 1_555
O3 Co1 1_555 1_555
O4 C5 1_555 1_555
O6 C6 1_555 1_555
O7 Co1 1_555 1_555
H1 O7 1_555 1_555
H2 O7 1_555 1_555
O8 Co2 1_555 1_555
H3 O8 1_555 1_555
H4 O8 1_555 1_555
O9 Co2 1_555 1_555
H5 O9 1_555 1_555
H6 O9 1_555 1_555
O10 Co2 1_555 1_555
H7 O10 1_555 1_555
H8 O10 1_555 1_555
O11 Co2 1_555 1_555
H9 O11 1_555 1_555
H10 O11 1_555 1_555
O12 Co2 1_555 1_555
H11 O12 1_555 1_555
H12 O12 1_555 1_555
O13 H13 1_555 1_555
H14 O13 1_555 1_555
O14 H15 1_555 1_555
H16 O14 1_555 1_555
O15 H17 1_555 1_555
H18 O15 1_555 1_555
C1D C3 1_555 1_555
C2D C1D 1_555 1_555
C3D C1 1_555 1_555
C4D C1D 1_555 1_555
C5D C2D 1_555 1_555
C6D C3D 1_555 1_555
O1D C4D 1_555 1_555
O2D C4D 1_555 1_555
O3D C5D 1_555 1_555
O4D C5D 1_555 1_555
O5D C6D 1_555 1_555
O6D C6D 1_555 1_555
Co2D O5D 1_555 1_555
O8D Co2D 1_555 1_555
H3D O8D 1_555 1_555
H4D O8D 1_555 1_555
O9D Co2D 1_555 1_555
H5D O9D 1_555 1_555
H6D O9D 1_555 1_555
O10D Co2D 1_555 1_555
H7D O10D 1_555 1_555
H8D O10D 1_555 1_555
O11D Co2D 1_555 1_555
H9D O11D 1_555 1_555
H10D O11D 1_555 1_555
O12D Co2D 1_555 1_555
H11D O12D 1_555 1_555
H12D O12D 1_555 1_555
O7D Co1 1_555 1_555
H1D O7D 1_555 1_555
H2D O7D 1_555 1_555
Co1_2 O1D 1_555 1_555
O1D_2 Co1 1_555 1_555
O3D_2 Co1 1_555 1_555
C5 O3 1_555 1_555
C2D C3D 1_555 1_555
O3D Co1_2 1_555 1_555

#END
