
#######################################################################
#
#                 Cambridge Crystallographic Data Centre
#                                CCDC 
#
#######################################################################
#
# If this CIF has been generated from an entry in the Cambridge 
# Structural Database, then it will include bibliographic, chemical, 
# crystal, experimental, refinement or atomic coordinate data resulting 
# from the CCDC's data processing and validation procedures.
#
#######################################################################

data_JIYNOU01
_symmetry_cell_setting           orthorhombic
_symmetry_space_group_name_H-M   'P b c a'
_symmetry_Int_Tables_number      61
_space_group_name_Hall           '-P 2ac 2ab'
loop_
_symmetry_equiv_pos_site_id
_symmetry_equiv_pos_as_xyz
1 x,y,z
2 1/2-x,-y,1/2+z
3 -x,1/2+y,1/2-z
4 1/2+x,1/2-y,-z
5 -x,-y,-z
6 1/2+x,y,1/2-z
7 x,1/2-y,1/2+z
8 1/2-x,1/2+y,z
_cell_length_a                   17.117(6)
_cell_length_b                   8.516(3)
_cell_length_c                   20.140(7)
_cell_angle_alpha                90
_cell_angle_beta                 90
_cell_angle_gamma                90
_cell_volume                     2935.78
loop_
_atom_site_label
_atom_site_type_symbol
_atom_site_fract_x
_atom_site_fract_y
_atom_site_fract_z
Co1 Co 0.0000 0.5000 0.0000
Co2 Co -0.12706(2) 1.12086(4) -0.257330(14)
O1 O -0.08728(9) 0.61804(19) -0.05007(7)
O2 O -0.17410(9) 0.81044(19) -0.06151(8)
O3 O -0.02973(9) 0.62224(19) 0.08714(7)
O4 O -0.09923(10) 0.80774(19) 0.13802(7)
O5 O -0.07945(9) 1.10765(19) -0.16296(7)
O6 O -0.04099(9) 0.85833(19) -0.16719(7)
O7 O -0.08756(12) 0.3429(2) 0.02929(12)
O8 O -0.23306(12) 1.1695(3) -0.21098(12)
O9 O -0.10736(14) 1.3646(2) -0.25746(12)
O10 O -0.17869(12) 1.1501(3) -0.35113(9)
O11 O -0.02138(11) 1.0746(2) -0.30617(9)
O12 O -0.14918(10) 0.8714(2) -0.26003(10)
C1 C -0.04956(12) 0.8808(3) -0.02213(10)
C2 C -0.02560(12) 0.8843(3) 0.04425(10)
C3 C -0.02396(12) 0.9960(3) -0.06631(10)
C4 C -0.10810(14) 0.7611(3) -0.04641(10)
C5 C -0.05390(14) 0.7622(3) 0.09360(11)
C6 C -0.05000(13) 0.9876(3) -0.13790(11)
H1 H -0.1093(17) 0.354(3) 0.0620(14)
H2 H -0.1141(16) 0.285(3) 0.0082(13)
H3 H -0.2564(16) 1.109(3) -0.1948(14)
H4 H -0.2675(17) 1.231(3) -0.2295(13)
H5 H -0.1173(18) 1.401(4) -0.2242(14)
H6 H -0.068(2) 1.400(5) -0.268(2)
H7 H -0.2134(19) 1.091(4) -0.3599(15)
H8 H -0.1927(15) 1.236(3) -0.3592(12)
H9 H -0.0263(13) 1.018(3) -0.3369(11)
H10 H 0.0009(17) 1.166(3) -0.3181(13)
H11 H -0.1430(13) 0.825(3) -0.2919(11)
H12 H -0.1109(16) 0.847(3) -0.2312(13)
C3D C 0.02396(12) 1.0040(3) 0.06631(10)
C1D C 0.04956(12) 1.1192(3) 0.02213(10)
C2D C 0.02560(12) 1.1157(3) -0.04425(10)
C5D C 0.05390(14) 1.2378(3) -0.09360(11)
O3D O 0.02973(9) 1.37776(19) -0.08714(7)
O4D O 0.09923(10) 1.19226(19) -0.13802(7)
C4D C 0.10810(14) 1.2389(3) 0.04641(10)
O1D O 0.08728(9) 1.38196(19) 0.05007(7)
O2D O 0.17410(9) 1.18956(19) 0.06151(8)
C6D C 0.05000(13) 1.0124(3) 0.13790(11)
O5D O 0.07945(9) 0.89235(19) 0.16296(7)
O6D O 0.04099(9) 1.14167(19) 0.16719(7)
O7D O 0.08756(12) 0.6571(2) -0.02929(12)
H1D H 0.1093(17) 0.646(3) -0.0620(14)
H2D H 0.1141(16) 0.715(3) -0.0082(13)
Co2D Co 0.12706(2) 0.87914(4) 0.257330(14)
O8D O 0.23306(12) 0.8305(3) 0.21098(12)
H3D H 0.2564(16) 0.891(3) 0.1948(14)
H4D H 0.2675(17) 0.769(3) 0.2295(13)
O9D O 0.10736(14) 0.6354(2) 0.25746(12)
H5D H 0.1173(18) 0.599(4) 0.2242(14)
H6D H 0.068(2) 0.600(5) 0.268(2)
O10D O 0.17869(12) 0.8499(3) 0.35113(9)
H7D H 0.2134(19) 0.909(4) 0.3599(15)
H8D H 0.1927(15) 0.764(3) 0.3592(12)
O11D O 0.02138(11) 0.9254(2) 0.30617(9)
H9D H 0.0263(13) 0.982(3) 0.3369(11)
H10D H -0.0009(17) 0.834(3) 0.3181(13)
O12D O 0.14918(10) 1.1286(2) 0.26003(10)
H11D H 0.1430(13) 1.175(3) 0.2919(11)
H12D H 0.1109(16) 1.153(3) 0.2312(13)
O1D_2 O 0.08728(9) 0.38196(19) 0.05007(7)
O3D_2 O 0.02973(9) 0.37776(19) -0.08714(7)
Co1_2 Co 0.0000 1.5000 0.0000
O13 O 0.30036(14) 0.3705(3) 0.02220(11)
H13 H 0.3048(16) 0.445(3) 0.0402(13)
H14 H 0.2600(19) 0.318(4) 0.0377(15)
O14 O 0.32311(17) 0.0397(3) 0.14033(12)
H15 H 0.303(2) 0.100(4) 0.1279(18)
H16 H 0.3469(18) -0.002(4) 0.1116(14)
O15 O 0.29390(14) 0.0466(3) 0.38853(13)
H17 H 0.3317(17) -0.005(4) 0.3800(14)
H18 H 0.2935(15) 0.061(3) 0.4237(12)
loop_
_geom_bond_atom_site_label_1
_geom_bond_atom_site_label_2
_geom_bond_site_symmetry_1
_geom_bond_site_symmetry_2
Co1 O1 1_555 1_555
Co2 O5 1_555 1_555
O1 C4 1_555 1_555
O2 C4 1_555 1_555
O3 Co1 1_555 1_555
O4 C5 1_555 1_555
O5 C6 1_555 1_555
O6 C6 1_555 1_555
O7 Co1 1_555 1_555
O8 Co2 1_555 1_555
O9 Co2 1_555 1_555
O10 Co2 1_555 1_555
O11 Co2 1_555 1_555
O12 Co2 1_555 1_555
C1 C2 1_555 1_555
C2 C5 1_555 1_555
C3 C1 1_555 1_555
C4 C1 1_555 1_555
C5 O3 1_555 1_555
C6 C3 1_555 1_555
H1 O7 1_555 1_555
H2 O7 1_555 1_555
H3 O8 1_555 1_555
H4 O8 1_555 1_555
H5 O9 1_555 1_555
H6 O9 1_555 1_555
H7 O10 1_555 1_555
H8 O10 1_555 1_555
H9 O11 1_555 1_555
H10 O11 1_555 1_555
H11 O12 1_555 1_555
H12 O12 1_555 1_555
O13 H13 1_555 1_555
H14 O13 1_555 1_555
O14 H15 1_555 1_555
H16 O14 1_555 1_555
O15 H17 1_555 1_555
H18 O15 1_555 1_555
C3D C2 1_555 1_555
C1D C3D 1_555 1_555
C2D C3 1_555 1_555
C5D C2D 1_555 1_555
O3D C5D 1_555 1_555
O4D C5D 1_555 1_555
C4D C1D 1_555 1_555
O1D C4D 1_555 1_555
O2D C4D 1_555 1_555
C6D C3D 1_555 1_555
O5D C6D 1_555 1_555
O6D C6D 1_555 1_555
O7D Co1 1_555 1_555
H1D O7D 1_555 1_555
H2D O7D 1_555 1_555
Co2D O5D 1_555 1_555
O8D Co2D 1_555 1_555
H3D O8D 1_555 1_555
H4D O8D 1_555 1_555
O9D Co2D 1_555 1_555
H5D O9D 1_555 1_555
H6D O9D 1_555 1_555
O10D Co2D 1_555 1_555
H7D O10D 1_555 1_555
H8D O10D 1_555 1_555
O11D Co2D 1_555 1_555
H9D O11D 1_555 1_555
H10D O11D 1_555 1_555
O12D Co2D 1_555 1_555
H11D O12D 1_555 1_555
H12D O12D 1_555 1_555
O1D_2 Co1 1_555 1_555
O3D_2 Co1 1_555 1_555
Co1_2 O3D 1_555 1_555
C1D C2D 1_555 1_555
O1D Co1_2 1_555 1_555

#END
