
#######################################################################
#
#                 Cambridge Crystallographic Data Centre
#                                CCDC 
#
#######################################################################
#
# If this CIF has been generated from an entry in the Cambridge 
# Structural Database, then it will include bibliographic, chemical, 
# crystal, experimental, refinement or atomic coordinate data resulting 
# from the CCDC's data processing and validation procedures.
#
#######################################################################

data_JIYVUJ
_symmetry_cell_setting           triclinic
_symmetry_space_group_name_H-M   'P -1'
_symmetry_Int_Tables_number      2
_space_group_name_Hall           '-P 1'
loop_
_symmetry_equiv_pos_site_id
_symmetry_equiv_pos_as_xyz
1 x,y,z
2 -x,-y,-z
_cell_length_a                   6.728(1)
_cell_length_b                   7.136(1)
_cell_length_c                   14.786(3)
_cell_angle_alpha                90.25(3)
_cell_angle_beta                 96.24(3)
_cell_angle_gamma                108.62(3)
_cell_volume                     668.172
loop_
_atom_site_label
_atom_site_type_symbol
_atom_site_fract_x
_atom_site_fract_y
_atom_site_fract_z
Cu1 Cu 0.5000 0.5000 0.0000
Cu2 Cu 0.0000 0.5000 0.0000
Cl1 Cl 0.25059(18) -0.48812(15) 0.63322(7)
O1 O 0.2397(4) 0.5182(4) -0.06390(17)
O2 O -0.1830(5) 0.1346(4) -0.0404(2)
B1 B 0.6971(9) 0.8766(7) 0.1685(3)
F1 F 0.5926(5) 0.8480(4) 0.0778(2)
F2 F 0.6028(6) 0.7195(4) 0.22165(18)
F3 F 0.9094(5) 0.8886(5) 0.16671(19)
F4 F 0.6943(4) 1.0495(3) 0.21351(17)
N1 N 0.3389(5) 0.3854(5) 0.1015(2)
N2 N 0.1537(6) 0.4222(5) 0.1112(2)
N3 N 0.2389(5) 0.2730(5) 0.2304(2)
N4 N 0.2213(6) 0.1813(5) 0.3143(2)
C1 C 0.2734(7) 0.0240(6) 0.3149(3)
H1 H 0.3186 -0.0159 0.2615
C2 C 0.2660(7) -0.0966(6) 0.3949(3)
C3 C 0.3050(7) -0.2745(6) 0.3859(3)
H2 H 0.3381 -0.3126 0.3292
C4 C 0.2963(7) -0.3975(6) 0.4586(3)
H3 H 0.3187 -0.5214 0.4517
C5 C 0.2544(7) -0.3367(6) 0.5413(3)
C6 C 0.2180(7) -0.1564(6) 0.5528(3)
H4 H 0.1884 -0.1172 0.6100
C7 C 0.2259(6) -0.0359(6) 0.4790(3)
H5 H 0.2040 0.0882 0.4858
C8 C 0.3878(7) 0.2960(6) 0.1730(3)
H6 H 0.5084 0.2537 0.1832
C9 C 0.0958(7) 0.3540(6) 0.1904(3)
H7 H -0.0263 0.3604 0.2153
H8 H -0.0967 0.1413 -0.0807
H9 H -0.2672 0.0427 -0.0024
H10 H 0.2094 0.4570 -0.1129
Cu2_2 Cu 1.0000 0.5000 0.0000
Cl1A Cl 0.74941(18) 1.48812(15) -0.63322(7)
O1A O 0.7603(4) 0.4818(4) 0.06390(17)
O1A_2 O -0.2397(4) 0.4818(4) 0.06390(17)
O2A O 0.1830(5) 0.8654(4) 0.0404(2)
B1A B 0.3029(9) 0.1234(7) -0.1685(3)
F1A F 0.4074(5) 0.1520(4) -0.0778(2)
F2A F 0.3972(6) 0.2805(4) -0.22165(18)
F3A F 0.0906(5) 0.1114(5) -0.16671(19)
F4A F 0.3057(4) -0.0495(3) -0.21351(17)
N1A N 0.6611(5) 0.6146(5) -0.1015(2)
N2A N 0.8463(6) 0.5778(5) -0.1112(2)
N2A_2 N -0.1537(6) 0.5778(5) -0.1112(2)
N3A N 0.7611(5) 0.7270(5) -0.2304(2)
N4A N 0.7787(6) 0.8187(5) -0.3143(2)
C1A C 0.7266(7) 0.9760(6) -0.3149(3)
H1A H 0.6814 1.0159 -0.2615
C2A C 0.7340(7) 1.0966(6) -0.3949(3)
C3A C 0.6950(7) 1.2745(6) -0.3859(3)
H2A H 0.6619 1.3126 -0.3292
C4A C 0.7037(7) 1.3975(6) -0.4586(3)
H3A H 0.6813 1.5214 -0.4517
C5A C 0.7456(7) 1.3367(6) -0.5413(3)
C6A C 0.7820(7) 1.1564(6) -0.5528(3)
H4A H 0.8116 1.1172 -0.6100
C7A C 0.7741(6) 1.0359(6) -0.4790(3)
H5A H 0.7960 0.9118 -0.4858
C8A C 0.6122(7) 0.7040(6) -0.1730(3)
H6A H 0.4916 0.7463 -0.1832
C9A C 0.9042(7) 0.6460(6) -0.1904(3)
H7A H 1.0263 0.6396 -0.2153
H8A H 0.0967 0.8587 0.0807
H9A H 0.2672 0.9573 0.0024
H10A H 0.7906 0.5430 0.1129
H10A_2 H -0.2094 0.5430 0.1129
loop_
_geom_bond_atom_site_label_1
_geom_bond_atom_site_label_2
_geom_bond_site_symmetry_1
_geom_bond_site_symmetry_2
Cu1 O1 1_555 1_555
Cu2 O1 1_555 1_555
Cl1 C5 1_555 1_555
O1 H10 1_555 1_555
O2 Cu2 1_555 1_555
B1 F1 1_555 1_555
F1 Cu1 1_555 1_555
F2 B1 1_555 1_555
F3 B1 1_555 1_555
F4 B1 1_555 1_555
N1 Cu1 1_555 1_555
N2 Cu2 1_555 1_555
N3 N4 1_555 1_555
N4 C1 1_555 1_555
C1 H1 1_555 1_555
C2 C1 1_555 1_555
C3 C2 1_555 1_555
H2 C3 1_555 1_555
C4 C3 1_555 1_555
H3 C4 1_555 1_555
C5 C4 1_555 1_555
C6 C5 1_555 1_555
H4 C6 1_555 1_555
C7 C2 1_555 1_555
H5 C7 1_555 1_555
C8 N1 1_555 1_555
H6 C8 1_555 1_555
C9 N2 1_555 1_555
H7 C9 1_555 1_555
H8 O2 1_555 1_555
H9 O2 1_555 1_555
Cu2_2 O1A 1_555 1_555
Cl1A C5A 1_555 1_555
O1A Cu1 1_555 1_555
O1A_2 Cu2 1_555 1_555
O2A Cu2 1_555 1_555
B1A F1A 1_555 1_555
F1A Cu1 1_555 1_555
F2A B1A 1_555 1_555
F3A B1A 1_555 1_555
F4A B1A 1_555 1_555
N1A Cu1 1_555 1_555
N2A Cu2_2 1_555 1_555
N2A_2 Cu2 1_555 1_555
N3A N4A 1_555 1_555
N4A C1A 1_555 1_555
C1A H1A 1_555 1_555
C2A C1A 1_555 1_555
C3A C2A 1_555 1_555
H2A C3A 1_555 1_555
C4A C3A 1_555 1_555
H3A C4A 1_555 1_555
C5A C4A 1_555 1_555
C6A C5A 1_555 1_555
H4A C6A 1_555 1_555
C7A C2A 1_555 1_555
H5A C7A 1_555 1_555
C8A N1A 1_555 1_555
H6A C8A 1_555 1_555
C9A N2A 1_555 1_555
H7A C9A 1_555 1_555
H8A O2A 1_555 1_555
H9A O2A 1_555 1_555
H10A O1A 1_555 1_555
H10A_2 O1A_2 1_555 1_555
N1 N2 1_555 1_555
N3 C8 1_555 1_555
N3 C9 1_555 1_555
C6 C7 1_555 1_555
N1A N2A 1_555 1_555
N3A C8A 1_555 1_555
N3A C9A 1_555 1_555
C6A C7A 1_555 1_555

#END
