
#######################################################################
#
#                 Cambridge Crystallographic Data Centre
#                                CCDC 
#
#######################################################################
#
# If this CIF has been generated from an entry in the Cambridge 
# Structural Database, then it will include bibliographic, chemical, 
# crystal, experimental, refinement or atomic coordinate data resulting 
# from the CCDC's data processing and validation procedures.
#
#######################################################################

data_JIYWIY
_symmetry_cell_setting           triclinic
_symmetry_space_group_name_H-M   'P -1'
_symmetry_Int_Tables_number      2
_space_group_name_Hall           '-P 1'
loop_
_symmetry_equiv_pos_site_id
_symmetry_equiv_pos_as_xyz
1 x,y,z
2 -x,-y,-z
_cell_length_a                   6.813(2)
_cell_length_b                   7.163(2)
_cell_length_c                   16.039(3)
_cell_angle_alpha                85.12(3)
_cell_angle_beta                 87.33(3)
_cell_angle_gamma                64.32(3)
_cell_volume                     702.818
loop_
_atom_site_label
_atom_site_type_symbol
_atom_site_fract_x
_atom_site_fract_y
_atom_site_fract_z
Cu1 Cu 0.5000 0.5000 0.0000
Cu2 Cu 0.0000 0.5000 0.0000
Br1 Br 0.45033(17) 0.21750(17) 0.74362(6)
O1 O 0.2197(10) 0.5792(10) -0.0495(4)
O2 O 0.3695(11) 0.8403(11) 0.0652(4)
O3 O -0.2240(11) 0.8407(10) 0.0550(4)
N1 N 0.3840(12) 0.3995(12) 0.1038(5)
N2 N 0.1763(12) 0.4110(12) 0.1060(5)
N3 N 0.2945(12) 0.3432(12) 0.2317(5)
N4 N 0.2779(14) 0.3207(14) 0.3201(5)
C1 C 0.4476(14) 0.2848(15) 0.3609(6)
H1 H 0.5777 0.2690 0.3316
C2 C 0.4443(16) 0.2677(14) 0.4523(6)
C3 C 0.6356(15) 0.2222(16) 0.4939(6)
H2 H 0.7651 0.1993 0.4627
C4 C 0.6390(15) 0.2098(15) 0.5816(6)
H3 H 0.7678 0.1841 0.6104
C5 C 0.4486(16) 0.2362(16) 0.6250(6)
C6 C 0.2566(16) 0.2794(16) 0.5836(6)
H4 H 0.1269 0.2997 0.6142
C7 C 0.2590(15) 0.2919(15) 0.4987(6)
H5 H 0.1296 0.3181 0.4702
C8 C 0.4534(15) 0.3608(15) 0.1813(5)
H6 H 0.5903 0.3474 0.1991
C9 C 0.1282(15) 0.3770(14) 0.1831(6)
H7 H -0.0057 0.3763 0.2019
H8 H 0.1928 0.6350 -0.0805
Cu2_2 Cu 1.0000 0.5000 0.0000
Br1A Br 0.54967(17) 0.78250(17) -0.74362(6)
O1A O 0.7803(10) 0.4208(10) 0.0495(4)
O1A_2 O -0.2197(10) 0.4208(10) 0.0495(4)
O2A O 0.6305(11) 0.1597(11) -0.0652(4)
O3A O 0.2240(11) 0.1593(10) -0.0550(4)
N1A N 0.6160(12) 0.6005(12) -0.1038(5)
N2A N 0.8237(12) 0.5890(12) -0.1060(5)
N2A_2 N -0.1763(12) 0.5890(12) -0.1060(5)
N3A N 0.7055(12) 0.6568(12) -0.2317(5)
N4A N 0.7221(14) 0.6793(14) -0.3201(5)
C1A C 0.5524(14) 0.7152(15) -0.3609(6)
H1A H 0.4223 0.7310 -0.3316
C2A C 0.5557(16) 0.7323(14) -0.4523(6)
C3A C 0.3644(15) 0.7778(16) -0.4939(6)
H2A H 0.2349 0.8007 -0.4627
C4A C 0.3610(15) 0.7902(15) -0.5816(6)
H3A H 0.2322 0.8159 -0.6104
C5A C 0.5514(16) 0.7638(16) -0.6250(6)
C6A C 0.7434(16) 0.7206(16) -0.5836(6)
H4A H 0.8731 0.7003 -0.6142
C7A C 0.7410(15) 0.7081(15) -0.4987(6)
H5A H 0.8704 0.6819 -0.4702
C8A C 0.5466(15) 0.6392(15) -0.1813(5)
H6A H 0.4097 0.6526 -0.1991
C9A C 0.8718(15) 0.6230(14) -0.1831(6)
H7A H 1.0057 0.6237 -0.2019
H8A H 0.8072 0.3650 0.0805
H8A_2 H -0.1928 0.3650 0.0805
O4 O 1.0353(11) -0.0136(11) 0.8467(4)
O5 O 1.0819(11) -0.1081(11) 0.7199(4)
O6 O 0.9403(11) 0.2194(11) 0.7425(4)
N5 N 1.0186(12) 0.0343(13) 0.7679(5)
loop_
_geom_bond_atom_site_label_1
_geom_bond_atom_site_label_2
_geom_bond_site_symmetry_1
_geom_bond_site_symmetry_2
Cu1 O1 1_555 1_555
Cu2 O1 1_555 1_555
Br1 C5 1_555 1_555
O1 H8 1_555 1_555
O2 Cu1 1_555 1_555
O3 Cu2 1_555 1_555
O4 N5 1_555 1_555
O5 N5 1_555 1_555
O6 N5 1_555 1_555
N1 Cu1 1_555 1_555
N2 Cu2 1_555 1_555
N3 N4 1_555 1_555
N4 C1 1_555 1_555
C1 H1 1_555 1_555
C2 C1 1_555 1_555
C3 C2 1_555 1_555
H2 C3 1_555 1_555
C4 C3 1_555 1_555
H3 C4 1_555 1_555
C5 C4 1_555 1_555
C6 C5 1_555 1_555
H4 C6 1_555 1_555
C7 C2 1_555 1_555
H5 C7 1_555 1_555
C8 N1 1_555 1_555
H6 C8 1_555 1_555
C9 N2 1_555 1_555
H7 C9 1_555 1_555
Cu2_2 O1A 1_555 1_555
Br1A C5A 1_555 1_555
O1A Cu1 1_555 1_555
O1A_2 Cu2 1_555 1_555
O2A Cu1 1_555 1_555
O3A Cu2 1_555 1_555
N1A Cu1 1_555 1_555
N2A Cu2_2 1_555 1_555
N2A_2 Cu2 1_555 1_555
N3A N4A 1_555 1_555
N4A C1A 1_555 1_555
C1A H1A 1_555 1_555
C2A C1A 1_555 1_555
C3A C2A 1_555 1_555
H2A C3A 1_555 1_555
C4A C3A 1_555 1_555
H3A C4A 1_555 1_555
C5A C4A 1_555 1_555
C6A C5A 1_555 1_555
H4A C6A 1_555 1_555
C7A C2A 1_555 1_555
H5A C7A 1_555 1_555
C8A N1A 1_555 1_555
H6A C8A 1_555 1_555
C9A N2A 1_555 1_555
H7A C9A 1_555 1_555
H8A O1A 1_555 1_555
H8A_2 O1A_2 1_555 1_555
N1 N2 1_555 1_555
N3 C8 1_555 1_555
N3 C9 1_555 1_555
C6 C7 1_555 1_555
N1A N2A 1_555 1_555
N3A C8A 1_555 1_555
N3A C9A 1_555 1_555
C6A C7A 1_555 1_555

#END
