
#######################################################################
#
#                 Cambridge Crystallographic Data Centre
#                                CCDC 
#
#######################################################################
#
# If this CIF has been generated from an entry in the Cambridge 
# Structural Database, then it will include bibliographic, chemical, 
# crystal, experimental, refinement or atomic coordinate data resulting 
# from the CCDC's data processing and validation procedures.
#
#######################################################################

data_JIYWEU
_symmetry_cell_setting           triclinic
_symmetry_space_group_name_H-M   'P -1'
_symmetry_Int_Tables_number      2
_space_group_name_Hall           '-P 1'
loop_
_symmetry_equiv_pos_site_id
_symmetry_equiv_pos_as_xyz
1 x,y,z
2 -x,-y,-z
_cell_length_a                   6.788(1)
_cell_length_b                   7.062(1)
_cell_length_c                   15.772(1)
_cell_angle_alpha                86.65(1)
_cell_angle_beta                 86.35(1)
_cell_angle_gamma                67.23(1)
_cell_volume                     695.254
loop_
_atom_site_label
_atom_site_type_symbol
_atom_site_fract_x
_atom_site_fract_y
_atom_site_fract_z
Cu1 Cu 0.5000 0.5000 0.0000
Cu2 Cu 0.0000 0.5000 0.0000
Cl1 Cl 0.41198(13) 0.21432(13) 0.74350(4)
O1 O 0.2287(3) 0.5728(3) -0.05049(11)
O2 O 0.3811(3) 0.8397(3) 0.07144(13)
O3 O -0.2138(3) 0.8456(3) 0.04656(13)
N1 N 0.3740(3) 0.4051(4) 0.10556(14)
N2 N 0.1642(3) 0.4220(3) 0.10787(14)
N3 N 0.2788(3) 0.3528(3) 0.23589(13)
N4 N 0.2586(4) 0.3306(4) 0.32469(14)
C1 C 0.4291(5) 0.2868(4) 0.36482(17)
H1 H 0.5606 0.2668 0.3344
C2 C 0.4221(4) 0.2674(4) 0.45763(17)
C3 C 0.6083(5) 0.2284(5) 0.49999(18)
H2 H 0.7369 0.2133 0.4683
C4 C 0.6080(5) 0.2114(5) 0.58854(18)
H3 H 0.7350 0.1833 0.6177
C5 C 0.4167(5) 0.2366(5) 0.63272(17)
C6 C 0.2282(5) 0.2742(5) 0.59215(18)
H4 H 0.0996 0.2894 0.6239
C7 C 0.2338(5) 0.2887(5) 0.50423(18)
H5 H 0.1073 0.3136 0.4752
C8 C 0.4411(4) 0.3642(4) 0.18316(16)
H6 H 0.5796 0.3455 0.1999
C9 C 0.1113(4) 0.3916(4) 0.18721(16)
H7 H -0.0254 0.3963 0.2074
H8 H 0.1802 0.6855 -0.0755
H9 H 0.3197 0.9228 0.0432
H10 H 0.3070 0.8462 0.1027
H11 H -0.1555 0.8730 0.0805
H12 H -0.3153 0.8416 0.0662
Cu2_2 Cu 1.0000 0.5000 0.0000
Cl1A Cl 0.58802(13) 0.78568(13) -0.74350(4)
O1A O 0.7713(3) 0.4272(3) 0.05049(11)
O1A_2 O -0.2287(3) 0.4272(3) 0.05049(11)
O2A O 0.6189(3) 0.1603(3) -0.07144(13)
O3A O 0.2138(3) 0.1544(3) -0.04656(13)
N1A N 0.6260(3) 0.5949(4) -0.10556(14)
N2A N 0.8358(3) 0.5780(3) -0.10787(14)
N2A_2 N -0.1642(3) 0.5780(3) -0.10787(14)
N3A N 0.7212(3) 0.6472(3) -0.23589(13)
N4A N 0.7414(4) 0.6694(4) -0.32469(14)
C1A C 0.5709(5) 0.7132(4) -0.36482(17)
H1A H 0.4394 0.7332 -0.3344
C2A C 0.5779(4) 0.7326(4) -0.45763(17)
C3A C 0.3917(5) 0.7716(5) -0.49999(18)
H2A H 0.2631 0.7867 -0.4683
C4A C 0.3920(5) 0.7886(5) -0.58854(18)
H3A H 0.2650 0.8167 -0.6177
C5A C 0.5833(5) 0.7634(5) -0.63272(17)
C6A C 0.7718(5) 0.7258(5) -0.59215(18)
H4A H 0.9004 0.7106 -0.6239
C7A C 0.7662(5) 0.7113(5) -0.50423(18)
H5A H 0.8927 0.6864 -0.4752
C8A C 0.5589(4) 0.6358(4) -0.18316(16)
H6A H 0.4204 0.6545 -0.1999
C9A C 0.8887(4) 0.6084(4) -0.18721(16)
H7A H 1.0254 0.6037 -0.2074
H8A H 0.8198 0.3145 0.0755
H8A_2 H -0.1802 0.3145 0.0755
H9A H 0.6803 0.0772 -0.0432
H10A H 0.6930 0.1538 -0.1027
H11A H 0.1555 0.1270 -0.0805
H12A H 0.3153 0.1584 -0.0662
O4 O 1.0702(4) -0.0486(4) 0.84360(14)
O5 O 1.0875(4) -0.0968(4) 0.70863(14)
O6 O 0.8963(3) 0.2027(3) 0.75765(15)
N5 N 1.0165(4) 0.0211(4) 0.76891(15)
loop_
_geom_bond_atom_site_label_1
_geom_bond_atom_site_label_2
_geom_bond_site_symmetry_1
_geom_bond_site_symmetry_2
Cu1 O1 1_555 1_555
Cu2 O1 1_555 1_555
Cl1 C5 1_555 1_555
O1 H8 1_555 1_555
O2 Cu1 1_555 1_555
O3 Cu2 1_555 1_555
O4 N5 1_555 1_555
O5 N5 1_555 1_555
O6 N5 1_555 1_555
N1 Cu1 1_555 1_555
N2 Cu2 1_555 1_555
N3 N4 1_555 1_555
N4 C1 1_555 1_555
C1 H1 1_555 1_555
C2 C1 1_555 1_555
C3 C2 1_555 1_555
H2 C3 1_555 1_555
C4 C3 1_555 1_555
H3 C4 1_555 1_555
C5 C4 1_555 1_555
C6 C5 1_555 1_555
H4 C6 1_555 1_555
C7 C2 1_555 1_555
H5 C7 1_555 1_555
C8 N1 1_555 1_555
H6 C8 1_555 1_555
C9 N2 1_555 1_555
H7 C9 1_555 1_555
H9 O2 1_555 1_555
H10 O2 1_555 1_555
H11 O3 1_555 1_555
H12 O3 1_555 1_555
Cu2_2 O1A 1_555 1_555
Cl1A C5A 1_555 1_555
O1A Cu1 1_555 1_555
O1A_2 Cu2 1_555 1_555
O2A Cu1 1_555 1_555
O3A Cu2 1_555 1_555
N1A Cu1 1_555 1_555
N2A Cu2_2 1_555 1_555
N2A_2 Cu2 1_555 1_555
N3A N4A 1_555 1_555
N4A C1A 1_555 1_555
C1A H1A 1_555 1_555
C2A C1A 1_555 1_555
C3A C2A 1_555 1_555
H2A C3A 1_555 1_555
C4A C3A 1_555 1_555
H3A C4A 1_555 1_555
C5A C4A 1_555 1_555
C6A C5A 1_555 1_555
H4A C6A 1_555 1_555
C7A C2A 1_555 1_555
H5A C7A 1_555 1_555
C8A N1A 1_555 1_555
H6A C8A 1_555 1_555
C9A N2A 1_555 1_555
H7A C9A 1_555 1_555
H8A O1A 1_555 1_555
H8A_2 O1A_2 1_555 1_555
H9A O2A 1_555 1_555
H10A O2A 1_555 1_555
H11A O3A 1_555 1_555
H12A O3A 1_555 1_555
N1 N2 1_555 1_555
N3 C8 1_555 1_555
N3 C9 1_555 1_555
C6 C7 1_555 1_555
N1A N2A 1_555 1_555
N3A C8A 1_555 1_555
N3A C9A 1_555 1_555
C6A C7A 1_555 1_555

#END
