
#######################################################################
#
#                 Cambridge Crystallographic Data Centre
#                                CCDC 
#
#######################################################################
#
# If this CIF has been generated from an entry in the Cambridge 
# Structural Database, then it will include bibliographic, chemical, 
# crystal, experimental, refinement or atomic coordinate data resulting 
# from the CCDC's data processing and validation procedures.
#
#######################################################################

data_JIYXIA
_symmetry_cell_setting           monoclinic
_symmetry_space_group_name_H-M   'P 21/c'
_symmetry_Int_Tables_number      14
_space_group_name_Hall           '-P 2ybc'
loop_
_symmetry_equiv_pos_site_id
_symmetry_equiv_pos_as_xyz
1 x,y,z
2 -x,1/2+y,1/2-z
3 -x,-y,-z
4 x,1/2-y,1/2+z
_cell_length_a                   7.2698(6)
_cell_length_b                   14.0055(8)
_cell_length_c                   7.7167(6)
_cell_angle_alpha                90
_cell_angle_beta                 94.479(6)
_cell_angle_gamma                90
_cell_volume                     783.293
loop_
_atom_site_label
_atom_site_type_symbol
_atom_site_fract_x
_atom_site_fract_y
_atom_site_fract_z
C1 C 0.7417(3) 0.66424(14) 0.4218(3)
H1 H 0.8438 0.6242 0.4235
C2 C 0.7417(4) 0.75856(17) 0.3845(3)
H2 H 0.8415 0.7952 0.3556
C3 C 0.4628(3) 0.71432(14) 0.4424(3)
C4 C 0.2635(3) 0.72228(18) 0.4695(3)
H3 H 0.1928 0.7193 0.3593
H4 H 0.2407 0.7820 0.5250
H5 H 0.2283 0.6707 0.5417
C5 C 0.1778(3) 0.50666(13) 0.2086(3)
C6 C -0.2038(3) 0.47256(14) 0.1512(2)
N1 N 0.5661(2) 0.63682(11) 0.45716(18)
N2 N 0.5653(3) 0.78873(13) 0.3979(3)
H6 H 0.5261 0.8461 0.3807
N3 N 0.2827(3) 0.50809(11) 0.3259(3)
N4 N -0.3185(3) 0.45642(15) 0.2394(2)
Cu1 Cu 0.5000 0.5000 0.5000
Pd1 Pd 0.0000 0.5000 0.0000
C5B C -0.1778(3) 0.49334(13) -0.2086(3)
C6B C 0.2038(3) 0.52744(14) -0.1512(2)
N3B N -0.2827(3) 0.49191(11) -0.3259(3)
N4B N 0.3185(3) 0.54358(15) -0.2394(2)
C1B C 0.2583(3) 0.33576(14) 0.5782(3)
H1B H 0.1562 0.3758 0.5765
C2B C 0.2583(4) 0.24144(17) 0.6155(3)
H2B H 0.1585 0.2048 0.6444
C3B C 0.5372(3) 0.28568(14) 0.5576(3)
C4B C 0.7365(3) 0.27772(18) 0.5305(3)
H3B H 0.8072 0.2807 0.6407
H4B H 0.7593 0.2180 0.4750
H5B H 0.7717 0.3293 0.4583
N1B N 0.4339(2) 0.36318(11) 0.54284(18)
N2B N 0.4347(3) 0.21127(13) 0.6021(3)
H6B H 0.4739 0.1539 0.6193
N3B_2 N 0.7173(3) 0.49191(11) 0.6741(3)
N4_2 N 0.6815(3) 0.45642(15) 0.2394(2)
N4B_2 N 0.3185(3) 0.54358(15) 0.7606(2)
Cu1_2 Cu -0.5000 0.5000 -0.5000
Cu1_3 Cu -0.5000 0.5000 0.5000
Cu1_4 Cu 0.5000 0.5000 -0.5000
loop_
_geom_bond_atom_site_label_1
_geom_bond_atom_site_label_2
_geom_bond_site_symmetry_1
_geom_bond_site_symmetry_2
C1 H1 1_555 1_555
C2 C1 1_555 1_555
H2 C2 1_555 1_555
C3 C4 1_555 1_555
C4 H3 1_555 1_555
H4 C4 1_555 1_555
H5 C4 1_555 1_555
C5 N3 1_555 1_555
C6 N4 1_555 1_555
N1 C1 1_555 1_555
N2 C2 1_555 1_555
H6 N2 1_555 1_555
N3 Cu1 1_555 1_555
N4 Cu1_3 1_555 1_555
Cu1 N1 1_555 1_555
Pd1 C5 1_555 1_555
C5B Pd1 1_555 1_555
C6B Pd1 1_555 1_555
N3B C5B 1_555 1_555
N4B C6B 1_555 1_555
C1B H1B 1_555 1_555
C2B C1B 1_555 1_555
H2B C2B 1_555 1_555
C3B C4B 1_555 1_555
C4B H3B 1_555 1_555
H4B C4B 1_555 1_555
H5B C4B 1_555 1_555
N1B Cu1 1_555 1_555
N2B C2B 1_555 1_555
H6B N2B 1_555 1_555
N3B_2 Cu1 1_555 1_555
N4_2 Cu1 1_555 1_555
N4B_2 Cu1 1_555 1_555
Cu1_2 N3B 1_555 1_555
Cu1_4 N4B 1_555 1_555
C3 N1 1_555 1_555
C3 N2 1_555 1_555
C6 Pd1 1_555 1_555
C1B N1B 1_555 1_555
C3B N1B 1_555 1_555
C3B N2B 1_555 1_555

#END
