
#######################################################################
#
#                 Cambridge Crystallographic Data Centre
#                                CCDC 
#
#######################################################################
#
# If this CIF has been generated from an entry in the Cambridge 
# Structural Database, then it will include bibliographic, chemical, 
# crystal, experimental, refinement or atomic coordinate data resulting 
# from the CCDC's data processing and validation procedures.
#
#######################################################################

data_JIYZEY
_symmetry_cell_setting           monoclinic
_symmetry_space_group_name_H-M   'P 21/n'
_symmetry_Int_Tables_number      14
_space_group_name_Hall           '-P 2yn'
loop_
_symmetry_equiv_pos_site_id
_symmetry_equiv_pos_as_xyz
1 x,y,z
2 1/2-x,1/2+y,1/2-z
3 -x,-y,-z
4 1/2+x,1/2-y,1/2+z
_cell_length_a                   13.1423(3)
_cell_length_b                   8.5766(2)
_cell_length_c                   15.1489(3)
_cell_angle_alpha                90
_cell_angle_beta                 101.3230(10)
_cell_angle_gamma                90
_cell_volume                     1674.29
loop_
_atom_site_label
_atom_site_type_symbol
_atom_site_fract_x
_atom_site_fract_y
_atom_site_fract_z
C1 C 0.1391(2) 1.1949(3) 0.35973(18)
C2 C -0.0226(2) 1.3058(3) 0.27222(18)
C3 C 0.2009(2) 1.0718(4) 0.4181(2)
C4 C 0.0289(2) 1.1934(3) 0.33589(18)
C5 C 0.1946(2) 1.3051(3) 0.32434(19)
H1 H 0.2662 1.3096 0.3434
C6 C -0.1869(2) 1.1908(4) 0.2877(2)
H2 H -0.2590 1.1898 0.2725
C7 C 0.1451(2) 1.4116(3) 0.25969(19)
H3 H 0.1848 1.4834 0.2352
C8 C -0.1327(2) 1.2988(4) 0.2500(2)
H4 H -0.1686 1.3696 0.2088
C9 C -0.0302(2) 1.0823(4) 0.3728(2)
H5 H 0.0033 1.0091 0.4137
C10 C -0.1356(3) 1.0811(4) 0.3492(2)
H6 H -0.1736 1.0072 0.3740
C11 C 0.0394(2) 1.4120(3) 0.23191(19)
C12 C 0.3968(2) 0.5838(4) 0.3697(2)
H7 H 0.3250 0.5894 0.3518
C13 C 0.4496(2) 0.4737(4) 0.33026(19)
H8 H 0.4138 0.4066 0.2867
C14 C 0.5565(2) 0.4637(3) 0.35600(19)
H9 H 0.5938 0.3895 0.3307
C15 C 0.6065(2) 0.5673(3) 0.42045(19)
C16 C 0.5473(2) 0.6737(3) 0.45744(19)
H10 H 0.5809 0.7416 0.5015
C17 C -0.0050(2) 1.5143(3) 0.1523(2)
C18 C 0.7781(2) 0.4496(3) 0.46448(19)
C19 C 0.8931(2) 0.4801(3) 0.48332(19)
C20 C 1.0432(2) 0.6253(3) 0.4627(2)
H11 H 1.0720 0.7097 0.4379
C21 C 0.9368(2) 0.6049(4) 0.4458(2)
H12 H 0.8943 0.6752 0.4090
Cd1 Cd 0.359201(15) 0.87658(2) 0.494519(14)
N1 N 0.44404(18) 0.6831(3) 0.43266(16)
N2 N 0.71580(18) 0.5747(3) 0.44800(17)
H13 H 0.739(2) 0.6651(19) 0.465(2)
O1 O 0.25382(17) 1.1128(2) 0.49305(15)
O2 O 0.20444(18) 0.9370(3) 0.38746(15)
O3 O 0.74576(16) 0.3152(2) 0.46347(16)
O4 O 0.05024(19) 1.5414(3) 0.09489(15)
O5 O -0.09556(17) 1.5666(3) 0.14307(15)
C12B C 1.6032(2) 0.4162(4) 0.6303(2)
H7B H 1.6750 0.4106 0.6482
C13B C 1.5504(2) 0.5263(4) 0.66974(19)
H8B H 1.5862 0.5934 0.7133
C14B C 1.4435(2) 0.5363(3) 0.64400(19)
H9B H 1.4062 0.6105 0.6693
C15B C 1.3935(2) 0.4327(3) 0.57955(19)
C16B C 1.4527(2) 0.3263(3) 0.54256(19)
H10B H 1.4191 0.2584 0.4985
C18B C 1.2219(2) 0.5504(3) 0.53552(19)
C19B C 1.1069(2) 0.5199(3) 0.51668(19)
C20B C 0.9568(2) 0.3747(3) 0.5373(2)
H11B H 0.9280 0.2903 0.5621
C21B C 1.0632(2) 0.3951(4) 0.5542(2)
H12B H 1.1057 0.3248 0.5910
N1B N 1.55596(18) 0.3169(3) 0.56734(16)
N2B N 1.28420(18) 0.4253(3) 0.55200(17)
H13B H 1.261(2) 0.3349(19) 0.535(2)
O3B O 1.25424(16) 0.6848(2) 0.53653(16)
C1B C 0.8609(2) -0.1949(3) 0.64027(18)
C2B C 1.0226(2) -0.3058(3) 0.72778(18)
C3B C 0.7991(2) -0.0718(4) 0.5819(2)
C4B C 0.9711(2) -0.1934(3) 0.66411(18)
C5B C 0.8054(2) -0.3051(3) 0.67566(19)
H1B H 0.7338 -0.3096 0.6566
C6B C 1.1869(2) -0.1908(4) 0.7123(2)
H2B H 1.2590 -0.1898 0.7275
C7B C 0.8549(2) -0.4116(3) 0.74031(19)
H3B H 0.8152 -0.4834 0.7648
C8B C 1.1327(2) -0.2988(4) 0.7500(2)
H4B H 1.1686 -0.3696 0.7912
C9B C 1.0302(2) -0.0823(4) 0.6272(2)
H5B H 0.9967 -0.0091 0.5863
C10B C 1.1356(3) -0.0811(4) 0.6508(2)
H6B H 1.1736 -0.0072 0.6260
C11B C 0.9606(2) -0.4120(3) 0.76809(19)
C17B C 1.0050(2) -0.5143(3) 0.8477(2)
Cd1B Cd 0.640799(15) 0.12342(2) 0.505481(14)
O1B O 0.74618(17) -0.1128(2) 0.50695(15)
O2B O 0.79556(18) 0.0630(3) 0.61254(15)
O4B O 0.94976(19) -0.5414(3) 0.90511(15)
O5B O 1.09556(17) -0.5666(3) 0.85693(15)
Cd1_2 Cd 1.359201(15) 0.87658(2) 0.494519(14)
Cd1A Cd 0.140799(15) 1.37658(2) 0.005481(14)
Cd1A_2 Cd 1.140799(15) -0.62342(2) 1.005481(14)
Cd1B_2 Cd 1.640799(15) 0.12342(2) 0.505481(14)
Cd1C Cd -0.140799(15) 1.62342(2) -0.005481(14)
Cd1C_2 Cd 0.859201(15) -0.37658(2) 0.994519(14)
N1B_2 N 0.55596(18) 0.3169(3) 0.56734(16)
O3B_2 O 0.25424(16) 0.6848(2) 0.53653(16)
O4A O 0.44976(19) 0.0414(3) 0.40511(15)
O4A_2 O 0.44976(19) 1.0414(3) 0.40511(15)
O4C O 0.55024(19) -0.0414(3) 0.59489(15)
O4C_2 O 0.55024(19) 0.9586(3) 0.59489(15)
O5A O 0.59556(17) 0.0666(3) 0.35693(15)
O5C O 0.40444(17) 0.9334(3) 0.64307(15)
loop_
_geom_bond_atom_site_label_1
_geom_bond_atom_site_label_2
_geom_bond_site_symmetry_1
_geom_bond_site_symmetry_2
C1 C3 1_555 1_555
C2 C4 1_555 1_555
C3 O1 1_555 1_555
C4 C1 1_555 1_555
C5 C1 1_555 1_555
H1 C5 1_555 1_555
C6 H2 1_555 1_555
C7 C5 1_555 1_555
H3 C7 1_555 1_555
C8 C2 1_555 1_555
H4 C8 1_555 1_555
C9 C4 1_555 1_555
H5 C9 1_555 1_555
C10 C6 1_555 1_555
H6 C10 1_555 1_555
C11 C2 1_555 1_555
C12 H7 1_555 1_555
C13 C12 1_555 1_555
H8 C13 1_555 1_555
C14 C13 1_555 1_555
H9 C14 1_555 1_555
C15 C14 1_555 1_555
C16 C15 1_555 1_555
H10 C16 1_555 1_555
C17 C11 1_555 1_555
C18 C19 1_555 1_555
C19 C21 1_555 1_555
C20 H11 1_555 1_555
C21 C20 1_555 1_555
H12 C21 1_555 1_555
Cd1 N1 1_555 1_555
N1 C12 1_555 1_555
N2 C15 1_555 1_555
H13 N2 1_555 1_555
O1 Cd1 1_555 1_555
O2 C3 1_555 1_555
O3 C18 1_555 1_555
O4 C17 1_555 1_555
O5 C17 1_555 1_555
C12B H7B 1_555 1_555
C13B C12B 1_555 1_555
H8B C13B 1_555 1_555
C14B C13B 1_555 1_555
H9B C14B 1_555 1_555
C15B C14B 1_555 1_555
C16B C15B 1_555 1_555
H10B C16B 1_555 1_555
C18B C19B 1_555 1_555
C19B C20 1_555 1_555
C20B C19 1_555 1_555
H11B C20B 1_555 1_555
C21B C19B 1_555 1_555
H12B C21B 1_555 1_555
N1B C12B 1_555 1_555
N2B C15B 1_555 1_555
H13B N2B 1_555 1_555
O3B C18B 1_555 1_555
C1B C3B 1_555 1_555
C2B C4B 1_555 1_555
C3B O1B 1_555 1_555
C4B C1B 1_555 1_555
C5B C1B 1_555 1_555
H1B C5B 1_555 1_555
C6B H2B 1_555 1_555
C7B C5B 1_555 1_555
H3B C7B 1_555 1_555
C8B C2B 1_555 1_555
H4B C8B 1_555 1_555
C9B C4B 1_555 1_555
H5B C9B 1_555 1_555
C10B C6B 1_555 1_555
H6B C10B 1_555 1_555
C11B C2B 1_555 1_555
C17B C11B 1_555 1_555
Cd1B O3 1_555 1_555
O1B Cd1B 1_555 1_555
O2B C3B 1_555 1_555
O4B C17B 1_555 1_555
O5B C17B 1_555 1_555
Cd1_2 O3B 1_555 1_555
Cd1A O4 1_555 1_555
Cd1A_2 O4B 1_555 1_555
Cd1B_2 N1B 1_555 1_555
Cd1C O4 1_555 1_555
Cd1C_2 O4B 1_555 1_555
N1B_2 Cd1B 1_555 1_555
O3B_2 Cd1 1_555 1_555
O4A Cd1B 1_555 1_555
O4A_2 Cd1 1_555 1_555
O4C Cd1B 1_555 1_555
O4C_2 Cd1 1_555 1_555
O5A Cd1B 1_555 1_555
O5C Cd1 1_555 1_555
C6 C8 1_555 1_555
C7 C11 1_555 1_555
C9 C10 1_555 1_555
C16 N1 1_555 1_555
C18 N2 1_555 1_555
Cd1 O2 1_555 1_555
O5 Cd1C 1_555 1_555
C16B N1B 1_555 1_555
C18B N2B 1_555 1_555
C20B C21B 1_555 1_555
C6B C8B 1_555 1_555
C7B C11B 1_555 1_555
C9B C10B 1_555 1_555
Cd1B O2B 1_555 1_555
O5B Cd1A_2 1_555 1_555

#END
