
#######################################################################
#
#                 Cambridge Crystallographic Data Centre
#                                CCDC 
#
#######################################################################
#
# If this CIF has been generated from an entry in the Cambridge 
# Structural Database, then it will include bibliographic, chemical, 
# crystal, experimental, refinement or atomic coordinate data resulting 
# from the CCDC's data processing and validation procedures.
#
#######################################################################

data_JIZKIO
_symmetry_cell_setting           monoclinic
_symmetry_space_group_name_H-M   'C c'
_symmetry_Int_Tables_number      9
_space_group_name_Hall           'C -2yc'
loop_
_symmetry_equiv_pos_site_id
_symmetry_equiv_pos_as_xyz
1 x,y,z
2 x,-y,1/2+z
3 1/2+x,1/2+y,z
4 1/2+x,1/2-y,1/2+z
_cell_length_a                   15.481(2)
_cell_length_b                   12.2437(11)
_cell_length_c                   9.4722(13)
_cell_angle_alpha                90
_cell_angle_beta                 118.609(5)
_cell_angle_gamma                90
_cell_volume                     1576.2
loop_
_atom_site_label
_atom_site_type_symbol
_atom_site_fract_x
_atom_site_fract_y
_atom_site_fract_z
Zn1 Zn 0.47139(2) 0.18452(2) -0.00246(3)
N1 N 0.50564(16) 0.2375(2) 0.2213(3)
N2 N 0.56068(18) 0.3333(2) 0.6787(3)
H1 H 0.5134 0.3596 0.6914
N3 N 0.65516(18) 0.3252(2) 0.8077(3)
H2 H 0.6743 0.2650 0.8605
N4 N 0.85656(17) 0.5794(2) 0.9385(3)
C1 C 0.87570(19) 0.4865(3) 1.0269(3)
H3 H 0.9368 0.4790 1.1180
C2 C 0.80899(19) 0.4037(2) 0.9878(3)
H4 H 0.8243 0.3417 1.0522
C3 C 0.71829(18) 0.4128(3) 0.8513(3)
C4 C 0.6980(2) 0.5062(2) 0.7605(3)
H5 H 0.6381 0.5147 0.6674
C5 C 0.76894(19) 0.5874(3) 0.8107(3)
H6 H 0.7539 0.6515 0.7508
C6 C 0.5976(2) 0.2395(3) 0.3441(3)
H7 H 0.6490 0.2195 0.3248
C7 C 0.6194(2) 0.2698(3) 0.4971(3)
H8 H 0.6845 0.2711 0.5780
C8 C 0.54496(19) 0.2986(2) 0.5320(3)
C9 C 0.4479(2) 0.2963(3) 0.4020(4)
H9 H 0.3949 0.3148 0.4177
C10 C 0.4334(2) 0.2669(3) 0.2550(3)
H10 H 0.3691 0.2668 0.1709
O1 O 0.56785(17) 0.0670(2) 0.0367(3)
O2 O 0.66811(18) 0.19646(18) 0.0533(3)
O3 O 0.83243(15) 0.1470(2) 0.4004(2)
O4 O 0.93603(14) 0.21152(17) 0.3209(2)
C11 C 0.6510(2) 0.0994(3) 0.0655(3)
C12 C 0.73208(19) 0.0156(3) 0.1212(4)
H11 H 0.7166 -0.0366 0.0352
H12 H 0.7347 -0.0239 0.2120
C13 C 0.8328(2) 0.0649(3) 0.1703(4)
H13 H 0.8806 0.0064 0.2001
H14 H 0.8306 0.1025 0.0785
C14 C 0.86683(19) 0.1444(3) 0.3090(4)
Zn1B Zn 0.97139(2) 0.68452(2) 0.99754(3)
Zn1C Zn 0.97139(2) 0.31548(2) 0.49754(3)
N4B N 0.35656(17) 0.0794(2) -0.0615(3)
O4C O 0.43603(14) 0.28848(17) -0.1791(2)
loop_
_geom_bond_atom_site_label_1
_geom_bond_atom_site_label_2
_geom_bond_site_symmetry_1
_geom_bond_site_symmetry_2
Zn1 N1 1_555 1_555
N1 C6 1_555 1_555
N2 H1 1_555 1_555
N3 N2 1_555 1_555
H2 N3 1_555 1_555
N4 C1 1_555 1_555
C1 H3 1_555 1_555
C2 C1 1_555 1_555
H4 C2 1_555 1_555
C3 N3 1_555 1_555
C4 C3 1_555 1_555
H5 C4 1_555 1_555
C5 N4 1_555 1_555
H6 C5 1_555 1_555
C6 H7 1_555 1_555
C7 C6 1_555 1_555
H8 C7 1_555 1_555
C8 N2 1_555 1_555
C9 C8 1_555 1_555
H9 C9 1_555 1_555
C10 N1 1_555 1_555
H10 C10 1_555 1_555
O1 Zn1 1_555 1_555
O2 C11 1_555 1_555
O3 C14 1_555 1_555
O4 C14 1_555 1_555
C11 O1 1_555 1_555
C12 C11 1_555 1_555
H11 C12 1_555 1_555
H12 C12 1_555 1_555
C13 C12 1_555 1_555
H13 C13 1_555 1_555
H14 C13 1_555 1_555
C14 C13 1_555 1_555
Zn1B N4 1_555 1_555
Zn1C O4 1_555 1_555
N4B Zn1 1_555 1_555
O4C Zn1 1_555 1_555
C2 C3 1_555 1_555
C4 C5 1_555 1_555
C7 C8 1_555 1_555
C9 C10 1_555 1_555

#END
