
#######################################################################
#
#                 Cambridge Crystallographic Data Centre
#                                CCDC 
#
#######################################################################
#
# If this CIF has been generated from an entry in the Cambridge 
# Structural Database, then it will include bibliographic, chemical, 
# crystal, experimental, refinement or atomic coordinate data resulting 
# from the CCDC's data processing and validation procedures.
#
#######################################################################

data_JIZROB
_symmetry_cell_setting           triclinic
_symmetry_space_group_name_H-M   'P -1'
_symmetry_Int_Tables_number      2
_space_group_name_Hall           '-P 1'
loop_
_symmetry_equiv_pos_site_id
_symmetry_equiv_pos_as_xyz
1 x,y,z
2 -x,-y,-z
_cell_length_a                   7.981(5)
_cell_length_b                   8.672(5)
_cell_length_c                   11.828(5)
_cell_angle_alpha                104.092(5)
_cell_angle_beta                 97.985(5)
_cell_angle_gamma                102.840(5)
_cell_volume                     757.842
loop_
_atom_site_label
_atom_site_type_symbol
_atom_site_fract_x
_atom_site_fract_y
_atom_site_fract_z
Co1 Co 0.37727(4) 0.66677(4) 0.58470(3)
V1 V -0.15845(5) 0.02802(5) 0.31688(4)
V2 V 0.23838(6) 0.24012(6) 0.52393(4)
N1 N 1.0423(3) 0.5982(3) 1.25091(19)
O1 O -0.1244(3) -0.0116(3) 0.18224(17)
O2 O -0.2929(3) 0.1490(3) 0.3291(2)
O3 O -0.2455(3) -0.1628(2) 0.34968(17)
N2 N 1.2321(3) 0.6560(3) 1.41977(19)
N3 N 0.6727(3) 0.6061(3) 0.89256(19)
N4 N 0.5405(3) 0.6653(3) 0.7384(2)
C1 C 0.8456(4) 0.5978(3) 1.0747(2)
H1 H 0.8906 0.7115 1.0937
C2 C 0.6451(4) 0.3460(4) 0.9458(2)
H2 H 0.5584 0.2905 0.8778
O4 O 0.5910(3) 0.7810(3) 0.5356(2)
C3 C 0.7195(3) 0.5140(3) 0.9719(2)
O5 O 0.2463(3) 0.4377(3) 0.5684(2)
O6 O 0.0457(3) 0.1352(3) 0.41727(19)
C4 C 0.9045(3) 0.5104(3) 1.1492(2)
C5 C 0.7023(4) 0.2616(4) 1.0228(3)
H3 H 0.6517 0.1490 1.0066
C6 C 0.8335(4) 0.3419(4) 1.1235(3)
H4 H 0.8731 0.2834 1.1731
C7 C 1.1445(4) 0.7572(4) 1.2732(3)
H5 H 1.1355 0.8277 1.2260
C8 C 1.1010(4) 0.5434(4) 1.3436(2)
H6 H 1.0540 0.4394 1.3517
C9 C 1.2595(4) 0.7908(4) 1.3758(3)
H7 H 1.3448 0.8900 1.4117
C10 C 0.5448(4) 0.5516(4) 0.7934(2)
H8 H 0.4688 0.4460 0.7673
C11 C 0.6726(5) 0.8001(4) 0.8045(3)
H9 H 0.7015 0.9003 0.7868
C12 C 0.7550(5) 0.7659(4) 0.8998(3)
H10 H 0.8489 0.8368 0.9586
Co1_2 Co 1.37727(4) 0.66677(4) 1.58470(3)
Co1A Co -0.37727(4) 0.33323(4) 0.41530(3)
V2A V -0.23838(6) -0.24012(6) 0.47607(4)
V2A_2 V 0.76162(6) 0.75988(6) 0.47607(4)
O2A O 0.2929(3) 0.8510(3) 0.6709(2)
O3A O 0.2455(3) 0.1628(2) 0.65032(17)
N2_2 N 0.2321(3) 0.6560(3) 0.41977(19)
O4A O 0.4090(3) 0.2190(3) 0.4644(2)
loop_
_geom_bond_atom_site_label_1
_geom_bond_atom_site_label_2
_geom_bond_site_symmetry_1
_geom_bond_site_symmetry_2
Co1 N4 1_555 1_555
V1 O1 1_555 1_555
V2 O5 1_555 1_555
N1 C4 1_555 1_555
O2 V1 1_555 1_555
O3 V1 1_555 1_555
N2 C8 1_555 1_555
N3 C3 1_555 1_555
N4 C10 1_555 1_555
C1 H1 1_555 1_555
C2 H2 1_555 1_555
O4 Co1 1_555 1_555
C3 C1 1_555 1_555
O5 Co1 1_555 1_555
O6 V1 1_555 1_555
C4 C1 1_555 1_555
C5 C2 1_555 1_555
H3 C5 1_555 1_555
C6 C4 1_555 1_555
H4 C6 1_555 1_555
C7 N1 1_555 1_555
H5 C7 1_555 1_555
C8 N1 1_555 1_555
H6 C8 1_555 1_555
C9 N2 1_555 1_555
H7 C9 1_555 1_555
C10 N3 1_555 1_555
H8 C10 1_555 1_555
C11 N4 1_555 1_555
H9 C11 1_555 1_555
C12 N3 1_555 1_555
H10 C12 1_555 1_555
Co1_2 N2 1_555 1_555
Co1A O2 1_555 1_555
V2A O3 1_555 1_555
V2A_2 O4 1_555 1_555
O2A Co1 1_555 1_555
O3A V2 1_555 1_555
N2_2 Co1 1_555 1_555
O4A V2 1_555 1_555
V2 O6 1_555 1_555
C2 C3 1_555 1_555
C5 C6 1_555 1_555
C7 C9 1_555 1_555
C11 C12 1_555 1_555

#END
