
#######################################################################
#
#                 Cambridge Crystallographic Data Centre
#                                CCDC 
#
#######################################################################
#
# If this CIF has been generated from an entry in the Cambridge 
# Structural Database, then it will include bibliographic, chemical, 
# crystal, experimental, refinement or atomic coordinate data resulting 
# from the CCDC's data processing and validation procedures.
#
#######################################################################

data_JIZXOG
_symmetry_cell_setting           orthorhombic
_symmetry_space_group_name_H-M   'P c c a'
_symmetry_Int_Tables_number      54
_space_group_name_Hall           '-P 2a 2ac'
loop_
_symmetry_equiv_pos_site_id
_symmetry_equiv_pos_as_xyz
1 x,y,z
2 1/2-x,-y,z
3 1/2+x,-y,1/2-z
4 -x,y,1/2-z
5 -x,-y,-z
6 1/2+x,y,-z
7 1/2-x,y,1/2+z
8 x,-y,1/2+z
_cell_length_a                   13.936(3)
_cell_length_b                   9.918(2)
_cell_length_c                   28.670(6)
_cell_angle_alpha                90
_cell_angle_beta                 90
_cell_angle_gamma                90
_cell_volume                     3962.69
loop_
_atom_site_label
_atom_site_type_symbol
_atom_site_fract_x
_atom_site_fract_y
_atom_site_fract_z
C1 C 1.0679(2) 0.1430(4) 0.06917(11)
C2 C 1.1458(2) 0.1398(5) 0.03261(12)
H1 H 1.1927 0.2086 0.0402
H2 H 1.1779 0.0532 0.0344
C3 C 1.1139(2) 0.1610(5) -0.01609(12)
H3 H 1.0882 0.2516 -0.0187
H4 H 1.0619 0.0987 -0.0226
C4 C 1.1894(2) 0.1433(3) -0.05291(10)
C5 C 0.8725(2) -0.0349(4) 0.19808(11)
H5 H 0.8713 -0.1128 0.1800
C6 C 0.8750(2) -0.0483(4) 0.24631(12)
H6 H 0.8757 -0.1334 0.2599
C7 C 0.8766(2) 0.0650(4) 0.27363(10)
H7 H 0.8786 0.0573 0.3059
C8 C 0.8752(2) 0.1923(3) 0.25264(10)
C9 C 0.87312(19) 0.1978(3) 0.20315(10)
C10 C 0.87232(19) 0.3254(3) 0.17885(10)
C11 C 0.8702(2) 0.4349(4) 0.10797(12)
H8 H 0.8683 0.4314 0.0756
C12 C 0.8736(3) 0.5622(4) 0.12986(13)
H9 H 0.8746 0.6412 0.1124
C13 C 0.8753(3) 0.5663(4) 0.17687(14)
H10 H 0.8777 0.6491 0.1920
C14 C 0.8736(2) 0.4475(4) 0.20318(11)
C15 C 0.8748(2) 0.4406(4) 0.25292(11)
C16 C 0.8758(2) 0.3183(4) 0.27567(10)
C17 C 0.8760(2) 0.4874(4) 0.32507(12)
C18 C 0.8782(2) 0.5615(4) 0.36946(13)
C19 C 0.8769(3) 0.4951(6) 0.41194(15)
H11 H 0.8728 0.4016 0.4131
C20 C 0.8819(3) 0.5710(6) 0.45311(15)
H12 H 0.8808 0.5267 0.4817
C21 C 0.8882(3) 0.7056(6) 0.45221(16)
H13 H 0.8920 0.7542 0.4799
C22 C 0.8890(4) 0.7709(6) 0.41045(18)
H14 H 0.8928 0.8645 0.4094
C23 C 0.8841(3) 0.6968(5) 0.36963(16)
H15 H 0.8850 0.7422 0.3413
N1 N 0.87173(16) 0.0842(3) 0.17647(9)
N2 N 0.86944(18) 0.3207(3) 0.13145(9)
N3 N 0.87630(18) 0.3506(3) 0.32242(9)
H16 H 0.8767 0.2950 0.3454
N4 N 0.87482(18) 0.5460(3) 0.28409(10)
O1 O 0.98335(16) 0.1346(3) 0.05561(8)
O2 O 1.0917(2) 0.1500(3) 0.11105(8)
O3 O 1.27300(17) 0.1788(3) -0.04532(8)
O4 O 1.16478(19) 0.0915(2) -0.09158(7)
Co1 Co 0.86830(3) 0.11579(5) 0.099418(14)
O3E O 0.77300(17) 0.1788(3) 0.04532(8)
O4D O 0.83522(19) -0.0915(2) 0.09158(7)
Co1E Co 1.36830(3) 0.11579(5) -0.099418(14)
Co1D Co 1.13170(3) -0.11579(5) -0.099418(14)
loop_
_geom_bond_atom_site_label_1
_geom_bond_atom_site_label_2
_geom_bond_site_symmetry_1
_geom_bond_site_symmetry_2
C1 C2 1_555 1_555
C2 H1 1_555 1_555
H2 C2 1_555 1_555
C3 C2 1_555 1_555
H3 C3 1_555 1_555
H4 C3 1_555 1_555
C4 C3 1_555 1_555
C5 H5 1_555 1_555
C6 C5 1_555 1_555
H6 C6 1_555 1_555
C7 C6 1_555 1_555
H7 C7 1_555 1_555
C8 C7 1_555 1_555
C9 C8 1_555 1_555
C10 C9 1_555 1_555
C11 H8 1_555 1_555
C12 C11 1_555 1_555
H9 C12 1_555 1_555
C13 C12 1_555 1_555
H10 C13 1_555 1_555
C14 C10 1_555 1_555
C15 C14 1_555 1_555
C16 C8 1_555 1_555
C17 C18 1_555 1_555
C18 C19 1_555 1_555
C19 H11 1_555 1_555
C20 C19 1_555 1_555
H12 C20 1_555 1_555
C21 C20 1_555 1_555
H13 C21 1_555 1_555
C22 C21 1_555 1_555
H14 C22 1_555 1_555
C23 C18 1_555 1_555
H15 C23 1_555 1_555
N1 C5 1_555 1_555
N2 C10 1_555 1_555
N3 C16 1_555 1_555
H16 N3 1_555 1_555
N4 C15 1_555 1_555
O1 C1 1_555 1_555
O2 C1 1_555 1_555
O3 C4 1_555 1_555
O4 C4 1_555 1_555
Co1 N1 1_555 1_555
O3E Co1 1_555 1_555
O4D Co1 1_555 1_555
Co1E O3 1_555 1_555
Co1D O4 1_555 1_555
C9 N1 1_555 1_555
C11 N2 1_555 1_555
C13 C14 1_555 1_555
C15 C16 1_555 1_555
C17 N3 1_555 1_555
C17 N4 1_555 1_555
C22 C23 1_555 1_555
N2 Co1 1_555 1_555
O1 Co1 1_555 1_555

#END
