
#######################################################################
#
#                 Cambridge Crystallographic Data Centre
#                                CCDC 
#
#######################################################################
#
# If this CIF has been generated from an entry in the Cambridge 
# Structural Database, then it will include bibliographic, chemical, 
# crystal, experimental, refinement or atomic coordinate data resulting 
# from the CCDC's data processing and validation procedures.
#
#######################################################################

data_JIZYOH
_symmetry_cell_setting           triclinic
_symmetry_space_group_name_H-M   'P -1'
_symmetry_Int_Tables_number      2
_space_group_name_Hall           '-P 1'
loop_
_symmetry_equiv_pos_site_id
_symmetry_equiv_pos_as_xyz
1 x,y,z
2 -x,-y,-z
_cell_length_a                   6.6842(5)
_cell_length_b                   7.5741(6)
_cell_length_c                   20.5755(15)
_cell_angle_alpha                90.1160(10)
_cell_angle_beta                 97.0560(10)
_cell_angle_gamma                97.3350(10)
_cell_volume                     1025.16
loop_
_atom_site_label
_atom_site_type_symbol
_atom_site_fract_x
_atom_site_fract_y
_atom_site_fract_z
C1 C 0.8867(4) 1.3173(3) 0.82943(13)
H1 H 0.9504 1.3865 0.8653
C2 C 0.9761(4) 1.3156(3) 0.77284(13)
H2 H 1.0985 1.3864 0.7692
C3 C 0.8802(4) 1.2063(3) 0.72129(12)
H3 H 0.9436 1.2024 0.6836
C4 C 0.3606(3) 0.5378(3) 0.60004(11)
C5 C 0.2949(3) 0.3908(3) 0.55919(11)
C6 C 0.2805(3) 0.7217(3) 0.51431(11)
H4 H 0.2662 0.8345 0.4981
C7 C 0.4504(4) 0.5296(3) 0.67175(11)
C8 C 0.2875(4) 0.1994(3) 0.58201(11)
O1 O 0.1172(3) 0.1235(2) 0.58849(10)
H5 H 0.795(4) 0.801(4) 0.5635(14)
H6 H 0.904(5) 0.953(4) 0.5907(15)
C9 C 0.1432(4) 0.8321(3) 0.71905(12)
H7 H 0.0886 0.7689 0.6808
C10 C 0.0293(4) 0.8239(3) 0.77116(12)
H8 H -0.0985 0.7571 0.7680
C11 C 0.1101(4) 0.9168(3) 0.82747(12)
H9 H 0.0372 0.9134 0.8632
C12 C 0.3019(3) 1.0164(3) 0.83120(11)
C13 C 0.3965(4) 1.1160(3) 0.89000(11)
C14 C 0.3899(4) 1.2038(3) 0.99604(12)
C15 C 0.2859(5) 1.2098(4) 1.05184(13)
H10 H 0.1530 1.1545 1.0506
C16 C 0.3812(5) 1.2967(4) 1.10698(14)
H11 H 0.3128 1.3000 1.1436
C17 C 0.5817(5) 1.3818(4) 1.10969(13)
H12 H 0.6442 1.4401 1.1481
C18 C 0.6857(5) 1.3799(4) 1.05676(13)
H13 H 0.8184 1.4365 1.0591
C19 C 0.5908(4) 1.2914(3) 0.99813(12)
C20 C 0.5967(4) 1.2104(3) 0.89172(11)
C21 C 0.6994(4) 1.2145(3) 0.83278(11)
C22 C 0.6092(3) 1.1147(3) 0.77747(11)
C23 C 0.4059(3) 1.0151(3) 0.77617(11)
C24 C 0.2274(4) 0.5740(3) 0.47319(12)
H14 H 0.1859 0.5903 0.4290
N1 N 0.3255(3) 0.9250(2) 0.72077(9)
N2 N 0.7022(3) 1.1064(2) 0.72282(9)
N3 N 0.2937(3) 1.1140(3) 0.94131(10)
N4 N 0.6943(3) 1.2943(3) 0.94530(10)
N5 N 0.3517(3) 0.7036(2) 0.57668(9)
N6 N 0.2338(3) 0.4093(2) 0.49495(9)
O2 O 0.5785(3) 0.6628(2) 0.69159(8)
O3 O 0.3913(3) 0.3988(2) 0.70290(8)
O4 O 0.7909(3) 0.8921(3) 0.58904(10)
O5 O 0.4531(3) 0.1362(2) 0.58851(8)
Mn1 Mn 0.53952(5) 0.91697(4) 0.643768(17)
O5_2 O 0.4531(3) 1.1362(2) 0.58851(8)
Mn1_2 Mn 0.53952(5) -0.08303(4) 0.643768(17)
loop_
_geom_bond_atom_site_label_1
_geom_bond_atom_site_label_2
_geom_bond_site_symmetry_1
_geom_bond_site_symmetry_2
C1 H1 1_555 1_555
C2 C1 1_555 1_555
H2 C2 1_555 1_555
C3 C2 1_555 1_555
H3 C3 1_555 1_555
C4 C5 1_555 1_555
C5 C8 1_555 1_555
C6 H4 1_555 1_555
C7 C4 1_555 1_555
C8 O1 1_555 1_555
H5 O4 1_555 1_555
H6 O4 1_555 1_555
C9 H7 1_555 1_555
C10 C9 1_555 1_555
H8 C10 1_555 1_555
C11 C10 1_555 1_555
H9 C11 1_555 1_555
C12 C11 1_555 1_555
C13 C12 1_555 1_555
C14 C15 1_555 1_555
C15 H10 1_555 1_555
C16 C15 1_555 1_555
H11 C16 1_555 1_555
C17 C16 1_555 1_555
H12 C17 1_555 1_555
C18 C17 1_555 1_555
H13 C18 1_555 1_555
C19 C14 1_555 1_555
C20 C13 1_555 1_555
C21 C1 1_555 1_555
C22 C21 1_555 1_555
C23 C12 1_555 1_555
C24 C6 1_555 1_555
H14 C24 1_555 1_555
N1 C9 1_555 1_555
N2 C3 1_555 1_555
N3 C13 1_555 1_555
N4 C19 1_555 1_555
N5 C4 1_555 1_555
N6 C5 1_555 1_555
O2 C7 1_555 1_555
O3 C7 1_555 1_555
O4 Mn1 1_555 1_555
O5 C8 1_555 1_555
Mn1 N1 1_555 1_555
O5_2 Mn1 1_555 1_555
Mn1_2 O5 1_555 1_555
C6 N5 1_555 1_555
C14 N3 1_555 1_555
C18 C19 1_555 1_555
C20 C21 1_555 1_555
C20 N4 1_555 1_555
C22 C23 1_555 1_555
C22 N2 1_555 1_555
C23 N1 1_555 1_555
C24 N6 1_555 1_555
N2 Mn1 1_555 1_555
N5 Mn1 1_555 1_555
O2 Mn1 1_555 1_555

#END
