
#######################################################################
#
#                 Cambridge Crystallographic Data Centre
#                                CCDC 
#
#######################################################################
#
# If this CIF has been generated from an entry in the Cambridge 
# Structural Database, then it will include bibliographic, chemical, 
# crystal, experimental, refinement or atomic coordinate data resulting 
# from the CCDC's data processing and validation procedures.
#
#######################################################################

data_JOBBOS
_symmetry_cell_setting           orthorhombic
_symmetry_space_group_name_H-M   'P b c a'
_symmetry_Int_Tables_number      61
_space_group_name_Hall           '-P 2ac 2ab'
loop_
_symmetry_equiv_pos_site_id
_symmetry_equiv_pos_as_xyz
1 x,y,z
2 1/2-x,-y,1/2+z
3 -x,1/2+y,1/2-z
4 1/2+x,1/2-y,-z
5 -x,-y,-z
6 1/2+x,y,1/2-z
7 x,1/2-y,1/2+z
8 1/2-x,1/2+y,z
_cell_length_a                   12.5194(7)
_cell_length_b                   17.1588(9)
_cell_length_c                   17.5477(10)
_cell_angle_alpha                90
_cell_angle_beta                 90
_cell_angle_gamma                90
_cell_volume                     3769.56
loop_
_atom_site_label
_atom_site_type_symbol
_atom_site_fract_x
_atom_site_fract_y
_atom_site_fract_z
Mn1 Mn 0.319789(16) 0.162010(11) 0.618034(11)
N1 N 0.47595(10) 0.09616(7) 0.60720(7)
O1 O 0.34505(8) 0.11094(6) 0.72650(6)
N2 N 0.29664(9) 0.19706(7) 0.49445(7)
O2 O 0.39951(8) 0.27161(6) 0.63389(7)
C1 C 0.43334(11) 0.07945(7) 0.74120(8)
C2 C 0.51056(11) 0.07022(7) 0.67507(8)
C3 C 0.53987(14) 0.08740(10) 0.54674(10)
H1 H 0.5165 0.1055 0.4996
C4 C 0.67502(14) 0.02792(12) 0.62090(13)
H2 H 0.7423 0.0055 0.6256
C5 C 0.61054(12) 0.03661(10) 0.68401(11)
H3 H 0.6337 0.0202 0.7318
C6 C 0.63925(15) 0.05256(11) 0.55148(12)
H4 H 0.6810 0.0460 0.5081
N3 N 0.19186(9) 0.24710(6) 0.65593(7)
C7 C 0.20803(11) 0.16604(8) 0.46433(8)
C8 C 0.16106(13) 0.19521(11) 0.39920(9)
H5 H 0.0990 0.1731 0.3797
C9 C 0.34165(13) 0.25761(10) 0.45908(9)
H6 H 0.4035 0.2791 0.4796
C10 C 0.30011(15) 0.28963(11) 0.39334(9)
H7 H 0.3335 0.3316 0.3697
C11 C 0.20863(16) 0.25830(11) 0.36368(9)
H8 H 0.1785 0.2793 0.3198
C12 C 0.15980(11) 0.09931(8) 0.50880(8)
O3 O 0.46136(9) 0.05560(7) 0.80459(6)
C13 C 0.02084(13) 0.28984(11) 0.69829(10)
H9 H -0.0500 0.2780 0.7091
C14 C 0.08894(12) 0.23327(9) 0.67072(9)
H10 H 0.0621 0.1835 0.6621
C15 C 0.16443(14) 0.37936(9) 0.69221(11)
H11 H 0.1916 0.4295 0.6978
C16 C 0.22890(12) 0.31959(8) 0.66647(8)
C17 C 0.34640(13) 0.33119(8) 0.65012(9)
O4 O 0.38149(11) 0.39824(7) 0.65518(8)
C18 C 0.05940(15) 0.36374(11) 0.70944(12)
H12 H 0.0152 0.4028 0.7284
O5 O 0.08559(10) 0.06236(7) 0.47979(7)
Na1 Na 0.53860(4) -0.00466(3) 0.90296(3)
O6 O 0.19736(8) 0.08534(6) 0.57375(6)
O4B O 0.61851(11) -0.10176(7) 0.84482(8)
O5E O 0.58559(10) 0.06236(7) 1.02021(7)
O5A O 0.41441(10) -0.06236(7) 0.97979(7)
Na1B Na 0.46140(4) 0.49534(3) 0.59704(3)
Na1E Na 0.03860(4) -0.00466(3) 0.59704(3)
Na1A Na -0.03860(4) 0.00466(3) 0.40296(3)
O6E O 0.69736(8) 0.08534(6) 0.92625(6)
loop_
_geom_bond_atom_site_label_1
_geom_bond_atom_site_label_2
_geom_bond_site_symmetry_1
_geom_bond_site_symmetry_2
Mn1 N1 1_555 1_555
N1 C2 1_555 1_555
O1 Mn1 1_555 1_555
N2 Mn1 1_555 1_555
O2 Mn1 1_555 1_555
C1 O1 1_555 1_555
C2 C1 1_555 1_555
C3 N1 1_555 1_555
H1 C3 1_555 1_555
C4 H2 1_555 1_555
C5 C2 1_555 1_555
H3 C5 1_555 1_555
C6 C3 1_555 1_555
H4 C6 1_555 1_555
N3 Mn1 1_555 1_555
C7 N2 1_555 1_555
C8 C7 1_555 1_555
H5 C8 1_555 1_555
C9 N2 1_555 1_555
H6 C9 1_555 1_555
C10 C9 1_555 1_555
H7 C10 1_555 1_555
C11 C8 1_555 1_555
H8 C11 1_555 1_555
C12 C7 1_555 1_555
O3 C1 1_555 1_555
C13 H9 1_555 1_555
C14 N3 1_555 1_555
H10 C14 1_555 1_555
C15 H11 1_555 1_555
C16 N3 1_555 1_555
C17 O2 1_555 1_555
O4 C17 1_555 1_555
C18 C13 1_555 1_555
H12 C18 1_555 1_555
O5 C12 1_555 1_555
Na1 O3 1_555 1_555
O6 Mn1 1_555 1_555
O4B Na1 1_555 1_555
O5E Na1 1_555 1_555
O5A Na1 1_555 1_555
Na1B O4 1_555 1_555
Na1E O5 1_555 1_555
Na1A O5 1_555 1_555
O6E Na1 1_555 1_555
C4 C5 1_555 1_555
C4 C6 1_555 1_555
C10 C11 1_555 1_555
C12 O6 1_555 1_555
C13 C14 1_555 1_555
C15 C16 1_555 1_555
C15 C18 1_555 1_555
C16 C17 1_555 1_555
O6 Na1E 1_555 1_555

#END
