
#######################################################################
#
#                 Cambridge Crystallographic Data Centre
#                                CCDC 
#
#######################################################################
#
# If this CIF has been generated from an entry in the Cambridge 
# Structural Database, then it will include bibliographic, chemical, 
# crystal, experimental, refinement or atomic coordinate data resulting 
# from the CCDC's data processing and validation procedures.
#
#######################################################################

data_JOBBUY
_symmetry_cell_setting           triclinic
_symmetry_space_group_name_H-M   'P -1'
_symmetry_Int_Tables_number      2
_space_group_name_Hall           '-P 1'
loop_
_symmetry_equiv_pos_site_id
_symmetry_equiv_pos_as_xyz
1 x,y,z
2 -x,-y,-z
_cell_length_a                   7.515(3)
_cell_length_b                   10.796(4)
_cell_length_c                   16.295(6)
_cell_angle_alpha                83.547(5)
_cell_angle_beta                 89.001(6)
_cell_angle_gamma                72.257(5)
_cell_volume                     1250.98
loop_
_atom_site_label
_atom_site_type_symbol
_atom_site_fract_x
_atom_site_fract_y
_atom_site_fract_z
C1 C 0.0504(5) 0.5751(3) 0.8468(2)
C2 C -0.0653(4) 0.6108(3) 0.76825(19)
C3 C -0.2199(5) 0.5707(4) 0.7647(2)
H1 H -0.2443 0.5170 0.8094
C4 C -0.3419(5) 0.6063(4) 0.6976(2)
H2 H -0.4459 0.5769 0.6971
C5 C -0.3064(5) 0.6863(4) 0.6318(2)
H3 H -0.3900 0.7145 0.5872
C6 C -0.1494(5) 0.7243(4) 0.6315(2)
H4 H -0.1267 0.7767 0.5858
C7 C -0.0197(5) 0.6869(3) 0.6984(2)
C8 C 0.1894(5) 0.8003(4) 0.6298(2)
C9 C 0.2143(6) 0.9188(4) 0.6405(3)
H5 H 0.1975 0.9513 0.6915
C10 C 0.2661(6) 0.9887(4) 0.5709(3)
H6 H 0.2806 1.0699 0.5762
C11 C 0.2957(5) 0.9422(4) 0.4962(3)
H7 H 0.3303 0.9910 0.4515
C12 C 0.2749(6) 0.8256(4) 0.4871(3)
H8 H 0.2970 0.7923 0.4364
C13 C 0.2203(6) 0.7551(4) 0.5535(2)
H9 H 0.2040 0.6749 0.5465
C14 C 0.7136(4) 0.3094(3) 0.9301(2)
C15 C 0.7334(5) 0.2044(4) 0.8789(2)
C16 C 0.8759(5) 0.0905(4) 0.8967(2)
H10 H 0.9563 0.0851 0.9407
C17 C 0.9072(6) -0.0155(4) 0.8540(3)
H11 H 1.0081 -0.0899 0.8678
C18 C 0.7857(5) -0.0106(4) 0.7894(3)
H12 H 0.8026 -0.0823 0.7600
C19 C 0.6398(5) 0.1024(4) 0.7695(2)
H13 H 0.5616 0.1059 0.7252
C20 C 0.6045(5) 0.2089(4) 0.8115(2)
C21 C 0.3284(6) 0.3252(4) 0.7290(3)
C22 C 0.3406(6) 0.3830(4) 0.6494(3)
H14 H 0.4385 0.4169 0.6359
C23 C 0.2066(6) 0.3900(4) 0.5899(3)
H15 H 0.2148 0.4286 0.5366
C24 C 0.0603(6) 0.3392(4) 0.6101(3)
H16 H -0.0294 0.3439 0.5703
C25 C 0.0481(6) 0.2814(4) 0.6897(2)
H17 H -0.0497 0.2474 0.7032
C26 C 0.1823(6) 0.2744(4) 0.7492(3)
H18 H 0.1743 0.2357 0.8025
C27 C 0.3326(6) 0.1245(4) 0.9671(2)
H19 H 0.3661 0.0837 1.0224
H20 H 0.4439 0.1190 0.9359
H21 H 0.2587 0.0805 0.9415
C28 C 0.5305(6) 0.1736(4) 1.1360(3)
H22 H 0.4541 0.1242 1.1240
H23 H 0.6304 0.1376 1.1730
Ca1 Ca 0.26683(9) 0.46320(7) 0.99670(4)
N1 N 0.1340(5) 0.7281(3) 0.6978(2)
H24 H 0.186(6) 0.722(4) 0.746(3)
N2 N 0.4637(5) 0.3207(4) 0.7902(2)
H25 H 0.463(6) 0.392(5) 0.808(3)
O1 O 0.2133(3) 0.5829(2) 0.84838(14)
O2 O -0.0230(4) 0.5340(3) 0.91053(16)
O3 O 0.5628(3) 0.4070(2) 0.92741(14)
O4 O 0.8447(4) 0.3079(3) 0.97683(16)
O5 O 0.2262(4) 0.2600(3) 0.96912(17)
H26 H 0.124(6) 0.243(4) 0.958(3)
O6 O 0.4941(4) 0.3056(3) 1.09712(18)
H27 H 0.581(6) 0.333(4) 1.117(3)
Ca1A Ca -0.26683(9) 0.53680(7) 1.00330(4)
Ca1A_2 Ca 0.73317(9) 0.53680(7) 1.00330(4)
O2A O 0.0230(4) 0.4660(3) 1.08947(16)
O3A O 0.4372(3) 0.5930(2) 1.07259(14)
O4A O 0.1553(4) 0.6921(3) 1.02317(16)
loop_
_geom_bond_atom_site_label_1
_geom_bond_atom_site_label_2
_geom_bond_site_symmetry_1
_geom_bond_site_symmetry_2
C1 C2 1_555 1_555
C2 C3 1_555 1_555
C3 H1 1_555 1_555
C4 C3 1_555 1_555
H2 C4 1_555 1_555
C5 C4 1_555 1_555
H3 C5 1_555 1_555
C6 C5 1_555 1_555
H4 C6 1_555 1_555
C7 C2 1_555 1_555
C8 C9 1_555 1_555
C9 H5 1_555 1_555
C10 C9 1_555 1_555
H6 C10 1_555 1_555
C11 C10 1_555 1_555
H7 C11 1_555 1_555
C12 C11 1_555 1_555
H8 C12 1_555 1_555
C13 C8 1_555 1_555
H9 C13 1_555 1_555
C14 C15 1_555 1_555
C15 C16 1_555 1_555
C16 H10 1_555 1_555
C17 C16 1_555 1_555
H11 C17 1_555 1_555
C18 C17 1_555 1_555
H12 C18 1_555 1_555
C19 C18 1_555 1_555
H13 C19 1_555 1_555
C20 C15 1_555 1_555
C21 C22 1_555 1_555
C22 H14 1_555 1_555
C23 C22 1_555 1_555
H15 C23 1_555 1_555
C24 C23 1_555 1_555
H16 C24 1_555 1_555
C25 C24 1_555 1_555
H17 C25 1_555 1_555
C26 C21 1_555 1_555
H18 C26 1_555 1_555
C27 H19 1_555 1_555
H20 C27 1_555 1_555
H21 C27 1_555 1_555
C28 H22 1_555 1_555
H23 C28 1_555 1_555
Ca1 O1 1_555 1_555
N1 C7 1_555 1_555
H24 N1 1_555 1_555
N2 C20 1_555 1_555
H25 N2 1_555 1_555
O1 C1 1_555 1_555
O2 C1 1_555 1_555
O3 C14 1_555 1_555
O4 C14 1_555 1_555
O5 C27 1_555 1_555
H26 O5 1_555 1_555
O6 C28 1_555 1_555
H27 O6 1_555 1_555
Ca1A O2 1_555 1_555
Ca1A_2 O3 1_555 1_555
O2A Ca1 1_555 1_555
O3A Ca1 1_555 1_555
O4A Ca1 1_555 1_555
C6 C7 1_555 1_555
C8 N1 1_555 1_555
C12 C13 1_555 1_555
C19 C20 1_555 1_555
C21 N2 1_555 1_555
C25 C26 1_555 1_555
Ca1 O2 1_555 1_555
Ca1 O3 1_555 1_555
Ca1 O5 1_555 1_555
Ca1 O6 1_555 1_555
O4 Ca1A_2 1_555 1_555
Ca1A O2A 1_555 1_555
Ca1A_2 O3A 1_555 1_555

#END
