
#######################################################################
#
#                 Cambridge Crystallographic Data Centre
#                                CCDC 
#
#######################################################################
#
# If this CIF has been generated from an entry in the Cambridge 
# Structural Database, then it will include bibliographic, chemical, 
# crystal, experimental, refinement or atomic coordinate data resulting 
# from the CCDC's data processing and validation procedures.
#
#######################################################################

data_JOBBUZ
_symmetry_cell_setting           monoclinic
_symmetry_space_group_name_H-M   'C 2/c'
_symmetry_Int_Tables_number      15
_space_group_name_Hall           '-C 2yn'
loop_
_symmetry_equiv_pos_site_id
_symmetry_equiv_pos_as_xyz
1 x,y,z
2 -x,y,1/2-z
3 1/2+x,1/2+y,z
4 1/2-x,1/2+y,1/2-z
5 -x,-y,-z
6 x,-y,1/2+z
7 1/2-x,1/2-y,-z
8 1/2+x,1/2-y,1/2+z
_cell_length_a                   24.4855(8)
_cell_length_b                   12.1360(4)
_cell_length_c                   7.4943(3)
_cell_angle_alpha                90
_cell_angle_beta                 93.055(3)
_cell_angle_gamma                90
_cell_volume                     2223.81
loop_
_atom_site_label
_atom_site_type_symbol
_atom_site_fract_x
_atom_site_fract_y
_atom_site_fract_z
Eu1 Eu 0.5000 0.55696(2) 0.2500
Ag1 Ag 0.7500 0.2500 0.5000
O1 O 0.58075(12) 0.4283(2) 0.2348(4)
O2 O 0.56829(11) 0.3282(2) -0.1710(4)
O3 O 0.52687(11) 0.4017(2) 0.4560(4)
C1 C 0.56536(16) 0.3677(4) 0.3572(5)
N1 N 0.71832(14) 0.3161(3) 0.2512(5)
C2 C 0.74937(17) 0.3751(4) 0.1430(6)
H1 H 0.7842 0.3965 0.1851
C3 C 0.64786(16) 0.3091(3) 0.0162(5)
C4 C 0.68014(17) 0.3729(4) -0.0899(6)
H2 H 0.6671 0.3940 -0.2035
C5 C 0.66801(16) 0.2840(3) 0.1902(5)
C6 C 0.73162(18) 0.4049(4) -0.0269(6)
H3 H 0.7539 0.4461 -0.0983
O4 O 0.57634(12) 0.1777(3) 0.0016(4)
C7 C 0.59261(17) 0.2663(4) -0.0535(6)
N2 N 0.65966(14) 0.1208(3) 0.3632(5)
C8 C 0.63633(16) 0.2176(3) 0.3194(5)
C9 C 0.56057(17) 0.1825(4) 0.4998(5)
H4 H 0.5277 0.2036 0.5465
C10 C 0.58834(17) 0.2548(3) 0.3932(5)
C11 C 0.58202(18) 0.0790(4) 0.5360(6)
H5 H 0.5634 0.0281 0.6028
C12 C 0.63243(19) 0.0535(4) 0.4691(6)
H6 H 0.6481 -0.0142 0.4997
O1A O 0.41925(12) 0.4283(2) 0.2652(4)
O2A O 0.43171(11) 0.3282(2) 0.6710(4)
O3A O 0.47313(11) 0.4017(2) 0.0440(4)
C1A C 0.43464(16) 0.3677(4) 0.1428(5)
N1A N 0.28168(14) 0.3161(3) 0.2488(5)
C2A C 0.25063(17) 0.3751(4) 0.3570(6)
H1A H 0.2158 0.3965 0.3149
C3A C 0.35214(16) 0.3091(3) 0.4838(5)
C4A C 0.31986(17) 0.3729(4) 0.5899(6)
H2A H 0.3329 0.3940 0.7035
C5A C 0.33199(16) 0.2840(3) 0.3098(5)
C6A C 0.26838(18) 0.4049(4) 0.5269(6)
H3A H 0.2461 0.4461 0.5983
O4A O 0.42366(12) 0.1777(3) 0.4984(4)
C7A C 0.40739(17) 0.2663(4) 0.5535(6)
N2A N 0.34034(14) 0.1208(3) 0.1368(5)
C8A C 0.36367(16) 0.2176(3) 0.1806(5)
C9A C 0.43943(17) 0.1825(4) 0.0002(5)
H4A H 0.4723 0.2036 -0.0465
C10A C 0.41166(17) 0.2548(3) 0.1068(5)
C11A C 0.41798(18) 0.0790(4) -0.0360(6)
H5A H 0.4366 0.0281 -0.1028
C12A C 0.36757(19) 0.0535(4) 0.0309(6)
H6A H 0.3519 -0.0142 0.0003
Eu1D Eu 0.5000 0.44304(2) -0.2500
Eu1D_2 Eu 0.5000 0.44304(2) 0.7500
Ag1A Ag 0.2500 0.2500 0.0000
O2D O 0.43171(11) 0.6718(2) 0.1710(4)
O2E O 0.56829(11) 0.6718(2) 0.3290(4)
O3D O 0.47313(11) 0.5983(2) 0.5440(4)
O3E O 0.52687(11) 0.5983(2) -0.0440(4)
N1F N 0.78168(14) 0.1839(3) 0.7488(5)
loop_
_geom_bond_atom_site_label_1
_geom_bond_atom_site_label_2
_geom_bond_site_symmetry_1
_geom_bond_site_symmetry_2
Eu1 O1 1_555 1_555
Ag1 N1 1_555 1_555
O1 C1 1_555 1_555
O2 C7 1_555 1_555
O3 Eu1 1_555 1_555
C1 O3 1_555 1_555
N1 C2 1_555 1_555
C2 H1 1_555 1_555
C3 C4 1_555 1_555
C4 H2 1_555 1_555
C5 N1 1_555 1_555
C6 C2 1_555 1_555
H3 C6 1_555 1_555
O4 C7 1_555 1_555
C7 C3 1_555 1_555
N2 C8 1_555 1_555
C8 C5 1_555 1_555
C9 H4 1_555 1_555
C10 C1 1_555 1_555
C11 C9 1_555 1_555
H5 C11 1_555 1_555
C12 N2 1_555 1_555
H6 C12 1_555 1_555
O1A Eu1 1_555 1_555
O2A C7A 1_555 1_555
O3A Eu1 1_555 1_555
C1A O1A 1_555 1_555
N1A C2A 1_555 1_555
C2A H1A 1_555 1_555
C3A C4A 1_555 1_555
C4A H2A 1_555 1_555
C5A N1A 1_555 1_555
C6A C2A 1_555 1_555
H3A C6A 1_555 1_555
O4A C7A 1_555 1_555
C7A C3A 1_555 1_555
N2A C8A 1_555 1_555
C8A C5A 1_555 1_555
C9A H4A 1_555 1_555
C10A C1A 1_555 1_555
C11A C9A 1_555 1_555
H5A C11A 1_555 1_555
C12A N2A 1_555 1_555
H6A C12A 1_555 1_555
Eu1D O2 1_555 1_555
Eu1D_2 O3 1_555 1_555
Ag1A N1A 1_555 1_555
O2D Eu1 1_555 1_555
O2E Eu1 1_555 1_555
O3D Eu1 1_555 1_555
O3E Eu1 1_555 1_555
N1F Ag1 1_555 1_555
C3 C5 1_555 1_555
C4 C6 1_555 1_555
C8 C10 1_555 1_555
C9 C10 1_555 1_555
C11 C12 1_555 1_555
O2A Eu1D_2 1_555 1_555
O3A C1A 1_555 1_555
O3A Eu1D 1_555 1_555
C3A C5A 1_555 1_555
C4A C6A 1_555 1_555
C8A C10A 1_555 1_555
C9A C10A 1_555 1_555
C11A C12A 1_555 1_555
Eu1D O3E 1_555 1_555
Eu1D_2 O3D 1_555 1_555

#END
