
#######################################################################
#
#                 Cambridge Crystallographic Data Centre
#                                CCDC 
#
#######################################################################
#
# If this CIF has been generated from an entry in the Cambridge 
# Structural Database, then it will include bibliographic, chemical, 
# crystal, experimental, refinement or atomic coordinate data resulting 
# from the CCDC's data processing and validation procedures.
#
#######################################################################

data_JOBCIN01
_symmetry_cell_setting           tetragonal
_symmetry_space_group_name_H-M   'I 41/a c d'
_symmetry_Int_Tables_number      142
_space_group_name_Hall           '-I 4bd 2c'
loop_
_symmetry_equiv_pos_site_id
_symmetry_equiv_pos_as_xyz
1 x,y,z
2 1/4-y,3/4+x,1/4+z
3 -x,1/2-y,z
4 1/4+y,1/4-x,3/4+z
5 x,-y,1/2-z
6 1/2-x,y,-z
7 3/4+y,1/4+x,1/4-z
8 1/4-y,1/4-x,1/4-z
9 1/2+x,1/2+y,1/2+z
10 3/4-y,1/4+x,3/4+z
11 1/2-x,-y,1/2+z
12 3/4+y,3/4-x,1/4+z
13 1/2+x,1/2-y,-z
14 -x,1/2+y,1/2-z
15 1/4+y,3/4+x,3/4-z
16 3/4-y,3/4-x,3/4-z
17 -x,-y,-z
18 3/4+y,1/4-x,3/4-z
19 x,1/2+y,-z
20 3/4-y,3/4+x,1/4-z
21 -x,y,1/2+z
22 1/2+x,-y,z
23 1/4-y,3/4-x,3/4+z
24 3/4+y,3/4+x,3/4+z
25 1/2-x,1/2-y,1/2-z
26 1/4+y,3/4-x,1/4-z
27 1/2+x,y,1/2-z
28 1/4-y,1/4+x,3/4-z
29 1/2-x,1/2+y,z
30 x,1/2-y,1/2+z
31 3/4-y,1/4-x,1/4+z
32 1/4+y,1/4+x,1/4+z
_cell_length_a                   19.7726(6)
_cell_length_b                   19.7726(6)
_cell_length_c                   18.3546(8)
_cell_angle_alpha                90
_cell_angle_beta                 90
_cell_angle_gamma                90
_cell_volume                     7175.84
loop_
_atom_site_label
_atom_site_type_symbol
_atom_site_fract_x
_atom_site_fract_y
_atom_site_fract_z
Cu1 Cu 0.49127(4) 0.18384(4) 1.07152(4)
I1 I 0.383213(19) 0.269272(19) 1.043071(18)
N1 N 0.4734(2) 0.1111(2) 0.9977(2)
N2 N 0.4256(2) 0.0241(2) 0.9441(2)
C1 C 0.4954(3) 0.1071(3) 0.9269(3)
H1 H 0.5257 0.1369 0.9051
C2 C 0.4666(3) 0.0536(3) 0.8936(3)
H2 H 0.4735 0.0397 0.8458
C3 C 0.4314(3) 0.0609(3) 1.0049(3)
H3 H 0.4080 0.0516 1.0477
C4 C 0.3809(3) -0.0342(3) 0.9328(3)
H4 H 0.3754 -0.0578 0.9787
H5 H 0.4025 -0.0651 0.8989
C5 C 0.1992(3) -0.0508(3) 0.8750
H6 H 0.1659 -0.0841 0.8750
C6 C 0.2622(3) -0.0651(3) 0.9041(3)
H7 H 0.2711 -0.1074 0.9239
C7 C 0.3116(3) -0.0159(3) 0.9036(3)
C8 C 0.2966(3) 0.0466(3) 0.8750
H8 H 0.3299 0.0799 0.8750
Cu1B Cu 0.50873(4) 0.31616(4) 1.07152(4)
Cu1Y Cu 0.43384(4) 0.25873(4) 1.17848(4)
Cu1N Cu 0.43384(4) 0.24127(4) 0.67848(4)
Cu1S Cu 0.56616(4) 0.24127(4) 1.17848(4)
I1B I 0.616787(19) 0.230728(19) 1.043071(18)
I1S I 0.480728(19) 0.133213(19) 1.206929(18)
I1Y I 0.519272(19) 0.366787(19) 1.206929(18)
N1N N 0.3611(2) 0.2234(2) 0.7523(2)
N1B N 0.5266(2) 0.3889(2) 0.9977(2)
N2N N 0.2741(2) 0.1756(2) 0.8059(2)
C1N C 0.3571(3) 0.2454(3) 0.8231(3)
H1N H 0.3869 0.2757 0.8449
C2N C 0.3036(3) 0.2166(3) 0.8564(3)
H2N H 0.2897 0.2235 0.9042
C3N C 0.3109(3) 0.1814(3) 0.7451(3)
H3N H 0.3016 0.1580 0.7023
C4N C 0.2158(3) 0.1309(3) 0.8172(3)
H4N H 0.1922 0.1254 0.7713
H5N H 0.1849 0.1525 0.8511
C6N C 0.1849(3) 0.0122(3) 0.8459(3)
H7N H 0.1426 0.0211 0.8261
C7N C 0.2341(3) 0.0616(3) 0.8464(3)
loop_
_geom_bond_atom_site_label_1
_geom_bond_atom_site_label_2
_geom_bond_site_symmetry_1
_geom_bond_site_symmetry_2
Cu1 I1 1_555 1_555
I1 Cu1B 1_555 1_555
N1 Cu1 1_555 1_555
N2 C2 1_555 1_555
C1 N1 1_555 1_555
H1 C1 1_555 1_555
C2 C1 1_555 1_555
H2 C2 1_555 1_555
C3 N1 1_555 1_555
H3 C3 1_555 1_555
C4 N2 1_555 1_555
H4 C4 1_555 1_555
H5 C4 1_555 1_555
C5 H6 1_555 1_555
C6 C5 1_555 1_555
H7 C6 1_555 1_555
C7 C4 1_555 1_555
C8 C7 1_555 1_555
H8 C8 1_555 1_555
Cu1B I1B 1_555 1_555
Cu1Y I1 1_555 1_555
Cu1N N1N 1_555 1_555
Cu1S I1B 1_555 1_555
I1B Cu1 1_555 1_555
I1S Cu1 1_555 1_555
I1Y Cu1B 1_555 1_555
N1N C1N 1_555 1_555
N1B Cu1B 1_555 1_555
N2N C2N 1_555 1_555
C1N H1N 1_555 1_555
C2N C1N 1_555 1_555
H2N C2N 1_555 1_555
C3N N1N 1_555 1_555
H3N C3N 1_555 1_555
C4N N2N 1_555 1_555
H4N C4N 1_555 1_555
H5N C4N 1_555 1_555
C6N C5 1_555 1_555
H7N C6N 1_555 1_555
C7N C8 1_555 1_555
N2 C3 1_555 1_555
C6 C7 1_555 1_555
Cu1Y I1S 1_555 1_555
Cu1Y I1Y 1_555 1_555
Cu1S I1S 1_555 1_555
Cu1S I1Y 1_555 1_555
N2N C3N 1_555 1_555
C4N C7N 1_555 1_555
C6N C7N 1_555 1_555

#END
