
#######################################################################
#
#                 Cambridge Crystallographic Data Centre
#                                CCDC 
#
#######################################################################
#
# If this CIF has been generated from an entry in the Cambridge 
# Structural Database, then it will include bibliographic, chemical, 
# crystal, experimental, refinement or atomic coordinate data resulting 
# from the CCDC's data processing and validation procedures.
#
#######################################################################

data_JOBCUZ
_symmetry_cell_setting           monoclinic
_symmetry_space_group_name_H-M   'P 21/c'
_symmetry_Int_Tables_number      14
_space_group_name_Hall           '-P 2ybc'
loop_
_symmetry_equiv_pos_site_id
_symmetry_equiv_pos_as_xyz
1 x,y,z
2 -x,1/2+y,1/2-z
3 -x,-y,-z
4 x,1/2-y,1/2+z
_cell_length_a                   11.237(3)
_cell_length_b                   21.630(5)
_cell_length_c                   7.723(2)
_cell_angle_alpha                90
_cell_angle_beta                 107.315(3)
_cell_angle_gamma                90
_cell_volume                     1792.06
loop_
_atom_site_label
_atom_site_type_symbol
_atom_site_fract_x
_atom_site_fract_y
_atom_site_fract_z
Cu1 Cu 0.25515(7) 0.31730(3) 0.25217(12)
Cu2 Cu 0.01932(7) 0.26278(3) -0.07516(10)
Cu3 Cu -0.02933(8) 0.34648(3) 0.18974(11)
Br1 Br 0.09423(4) 0.37114(2) -0.01747(7)
Br2 Br -0.12630(4) 0.255842(19) -0.38570(6)
Br3 Br 0.19039(4) 0.31307(2) 0.51083(7)
N1 N 0.4094(4) 0.32000(16) 0.1862(6)
N2 N 0.5314(3) 0.32471(16) 0.0115(6)
N3 N 0.9022(4) 0.41283(16) -0.6956(5)
N4 N 0.8610(3) 0.46832(15) -0.4827(5)
C1 C 0.4144(4) 0.3172(2) 0.0188(7)
C2 C 0.5303(5) 0.3294(2) 0.2935(8)
H1 H 0.5558 0.3328 0.4193
C3 C 0.6054(5) 0.3329(2) 0.1864(7)
C4 C 0.5690(5) 0.3290(2) -0.1531(8)
C5 C 0.5955(4) 0.39476(19) -0.1982(6)
C6 C 0.5103(5) 0.4416(2) -0.1995(8)
C7 C 0.5334(5) 0.5013(2) -0.2379(8)
C8 C 0.6431(4) 0.5159(2) -0.2767(7)
C9 C 0.7303(4) 0.4703(2) -0.2738(6)
C10 C 0.7050(4) 0.40974(19) -0.2349(6)
C11 C 0.9119(4) 0.41635(19) -0.5226(7)
C12 C 0.8423(4) 0.4655(2) -0.7725(7)
C13 C 0.8160(4) 0.5002(2) -0.6421(7)
C14 C 0.8524(5) 0.4869(2) -0.3051(7)
H2 H 0.329(6) 0.310(3) -0.101(9)
H3 H 0.689(6) 0.339(2) 0.207(8)
H4 H 0.503(6) 0.315(3) -0.257(8)
H5 H 0.635(4) 0.302(2) -0.145(6)
H6 H 0.448(4) 0.435(2) -0.183(7)
H7 H 0.463(6) 0.532(3) -0.256(9)
H8 H 0.666(5) 0.560(3) -0.309(8)
H9 H 0.772(4) 0.378(2) -0.211(6)
H10 H 0.952(6) 0.387(3) -0.430(9)
H11 H 0.809(4) 0.4770(18) -0.910(6)
H12 H 0.779(4) 0.541(3) -0.655(7)
H13 H 0.920(5) 0.464(2) -0.200(7)
H14 H 0.870(4) 0.524(2) -0.294(6)
Cu2C Cu 0.01932(7) 0.23722(3) -0.57516(10)
Cu2C_2 Cu 0.01932(7) 0.23722(3) 0.42484(10)
Cu3C Cu -0.02933(8) 0.15352(3) -0.31026(11)
Cu3_2 Cu 0.97067(8) 0.34648(3) -0.81026(11)
Br2C Br -0.12630(4) 0.244158(19) 0.11430(6)
Br3C Br 0.19039(4) 0.18693(2) 0.01083(7)
N3_2 N -0.0978(4) 0.41283(16) 0.3044(5)
loop_
_geom_bond_atom_site_label_1
_geom_bond_atom_site_label_2
_geom_bond_site_symmetry_1
_geom_bond_site_symmetry_2
Cu1 Br1 1_555 1_555
Cu2 Br1 1_555 1_555
Cu3 Br1 1_555 1_555
Br2 Cu2 1_555 1_555
Br3 Cu1 1_555 1_555
N1 Cu1 1_555 1_555
N2 C1 1_555 1_555
N3 C11 1_555 1_555
N4 C11 1_555 1_555
C1 N1 1_555 1_555
C2 N1 1_555 1_555
H1 C2 1_555 1_555
C3 N2 1_555 1_555
C4 N2 1_555 1_555
C5 C4 1_555 1_555
C6 C5 1_555 1_555
C7 C6 1_555 1_555
C8 C7 1_555 1_555
C9 C8 1_555 1_555
C10 C5 1_555 1_555
C11 H10 1_555 1_555
C12 N3 1_555 1_555
C13 N4 1_555 1_555
C14 N4 1_555 1_555
H2 C1 1_555 1_555
H3 C3 1_555 1_555
H4 C4 1_555 1_555
H5 C4 1_555 1_555
H6 C6 1_555 1_555
H7 C7 1_555 1_555
H8 C8 1_555 1_555
H9 C10 1_555 1_555
H11 C12 1_555 1_555
H12 C13 1_555 1_555
H13 C14 1_555 1_555
H14 C14 1_555 1_555
Cu2C Br2 1_555 1_555
Cu2C_2 Br3 1_555 1_555
Cu3C Br2 1_555 1_555
Cu3_2 N3 1_555 1_555
Br2C Cu2 1_555 1_555
Br3C Cu2 1_555 1_555
N3_2 Cu3 1_555 1_555
Cu3 Br2C 1_555 1_555
C2 C3 1_555 1_555
C9 C10 1_555 1_555
C9 C14 1_555 1_555
C12 C13 1_555 1_555
Cu2C_2 Br2C 1_555 1_555

#END
