
#######################################################################
#
#                 Cambridge Crystallographic Data Centre
#                                CCDC 
#
#######################################################################
#
# If this CIF has been generated from an entry in the Cambridge 
# Structural Database, then it will include bibliographic, chemical, 
# crystal, experimental, refinement or atomic coordinate data resulting 
# from the CCDC's data processing and validation procedures.
#
#######################################################################

data_JOBCOT
_symmetry_cell_setting           monoclinic
_symmetry_space_group_name_H-M   'P 21/n'
_symmetry_Int_Tables_number      14
_space_group_name_Hall           '-P 2yn'
loop_
_symmetry_equiv_pos_site_id
_symmetry_equiv_pos_as_xyz
1 x,y,z
2 1/2-x,1/2+y,1/2-z
3 -x,-y,-z
4 1/2+x,1/2-y,1/2+z
_cell_length_a                   18.5436(15)
_cell_length_b                   7.8336(6)
_cell_length_c                   20.7864(19)
_cell_angle_alpha                90
_cell_angle_beta                 104.379(3)
_cell_angle_gamma                90
_cell_volume                     2924.91
loop_
_atom_site_label
_atom_site_type_symbol
_atom_site_fract_x
_atom_site_fract_y
_atom_site_fract_z
Cu1 Cu 0.79104(5) -0.69672(12) -0.49952(5)
Cu2 Cu 0.72211(5) -0.32865(12) -0.47544(5)
I1 I 0.68739(2) -0.64345(5) -0.43430(2)
I2 I 0.82461(3) -0.38419(6) -0.54389(2)
N1 N 0.7395(3) -0.8003(7) -0.5885(3)
N2 N 0.7152(3) -0.9460(8) -0.6828(3)
N3 N 0.4753(3) -1.4980(8) -0.9218(3)
N4 N 0.3889(3) -1.6937(7) -0.9551(3)
N5 N 0.7741(3) -0.2208(7) -0.3880(3)
N6 N 0.8026(3) -0.0582(7) -0.2981(3)
N7 N 1.0405(3) 0.5344(7) -0.0703(3)
N8 N 1.1260(3) 0.7267(7) -0.0278(3)
C1 C 0.7565(4) -0.9352(9) -0.6196(4)
H1 H 0.7929 -1.0141 -0.6003
C2 C 0.6838(4) -0.7202(9) -0.6351(4)
H2 H 0.6601 -0.6199 -0.6279
C3 C 0.6686(4) -0.8079(9) -0.6925(4)
H3 H 0.6334 -0.7801 -0.7314
C4 C 0.7212(4) -1.0787(10) -0.7309(4)
H4 H 0.7646 -1.1486 -0.7124
H5 H 0.7285 -1.0249 -0.7708
C5 C 0.6530(4) -1.1925(9) -0.7493(4)
C6 C 0.6305(4) -1.2828(9) -0.7006(4)
H6 H 0.6562 -1.2708 -0.6564
C7 C 0.5697(4) -1.3912(9) -0.7176(4)
H7 H 0.5545 -1.4513 -0.6847
C8 C 0.5314(4) -1.4102(8) -0.7837(3)
H8 H 0.4909 -1.4840 -0.7951
C9 C 0.5534(4) -1.3194(9) -0.8326(3)
C10 C 0.6142(4) -1.2101(9) -0.8151(4)
H9 H 0.6289 -1.1483 -0.8479
C11 C 0.5105(4) -1.3306(10) -0.9042(4)
H10 H 0.4723 -1.2430 -0.9129
H11 H 0.5440 -1.3078 -0.9323
C12 C 0.4016(4) -1.5295(9) -0.9438(4)
H12 H 0.3647 -1.4464 -0.9500
C13 C 0.4576(4) -1.7697(9) -0.9408(3)
H13 H 0.4663 -1.8857 -0.9448
C14 C 0.5105(4) -1.6513(10) -0.9202(3)
H14 H 0.5616 -1.6701 -0.9072
C15 C 0.7579(4) -0.0811(8) -0.3585(3)
H15 H 0.7195 -0.0069 -0.3778
C16 C 0.8334(4) -0.2922(9) -0.3424(4)
H16 H 0.8574 -0.3927 -0.3487
C17 C 0.8515(4) -0.1945(9) -0.2871(4)
H17 H 0.8894 -0.2149 -0.2492
C18 C 0.7990(4) 0.0822(9) -0.2521(4)
H18 H 0.7924 0.0348 -0.2109
H19 H 0.7559 0.1523 -0.2712
C19 C 0.8676(4) 0.1937(8) -0.2371(3)
C20 C 0.8923(4) 0.2692(8) -0.2883(3)
H20 H 0.8686 0.2459 -0.3323
C21 C 0.9526(4) 0.3796(9) -0.2729(3)
H21 H 0.9691 0.4301 -0.3071
C22 C 0.9885(4) 0.4161(8) -0.2078(3)
H22 H 1.0283 0.4920 -0.1984
C23 C 0.9651(4) 0.3396(8) -0.1568(3)
C24 C 0.9042(4) 0.2284(8) -0.1717(3)
H23 H 0.8880 0.1772 -0.1374
C25 C 1.0060(5) 0.3674(9) -0.0843(4)
H24 H 0.9711 0.3517 -0.0569
H25 H 1.0443 0.2807 -0.0716
C26 C 1.1131(4) 0.5622(8) -0.0392(3)
H26 H 1.1489 0.4770 -0.0276
C27 C 1.0583(4) 0.8063(9) -0.0518(3)
H27 H 1.0501 0.9232 -0.0504
C28 C 1.0062(4) 0.6901(9) -0.0776(3)
H28 H 0.9562 0.7113 -0.0969
Cu1C Cu 0.29104(5) -1.80328(12) -0.99952(5)
Cu2C Cu 1.22211(5) 0.82865(12) 0.02456(5)
N4C N 0.8889(3) -0.8063(7) -0.4551(3)
N8C N 0.6260(3) -0.2267(7) -0.5278(3)
loop_
_geom_bond_atom_site_label_1
_geom_bond_atom_site_label_2
_geom_bond_site_symmetry_1
_geom_bond_site_symmetry_2
Cu1 I1 1_555 1_555
Cu2 I1 1_555 1_555
I2 Cu1 1_555 1_555
N1 Cu1 1_555 1_555
N2 C1 1_555 1_555
N3 C11 1_555 1_555
N4 C12 1_555 1_555
N5 Cu2 1_555 1_555
N6 C15 1_555 1_555
N7 C25 1_555 1_555
N8 C26 1_555 1_555
C1 N1 1_555 1_555
H1 C1 1_555 1_555
C2 N1 1_555 1_555
H2 C2 1_555 1_555
C3 N2 1_555 1_555
H3 C3 1_555 1_555
C4 N2 1_555 1_555
H4 C4 1_555 1_555
H5 C4 1_555 1_555
C5 C4 1_555 1_555
C6 C5 1_555 1_555
H6 C6 1_555 1_555
C7 C6 1_555 1_555
H7 C7 1_555 1_555
C8 C7 1_555 1_555
H8 C8 1_555 1_555
C9 C8 1_555 1_555
C10 C5 1_555 1_555
H9 C10 1_555 1_555
C11 C9 1_555 1_555
H10 C11 1_555 1_555
H11 C11 1_555 1_555
C12 N3 1_555 1_555
H12 C12 1_555 1_555
C13 N4 1_555 1_555
H13 C13 1_555 1_555
C14 N3 1_555 1_555
H14 C14 1_555 1_555
C15 N5 1_555 1_555
H15 C15 1_555 1_555
C16 N5 1_555 1_555
H16 C16 1_555 1_555
C17 N6 1_555 1_555
H17 C17 1_555 1_555
C18 N6 1_555 1_555
H18 C18 1_555 1_555
H19 C18 1_555 1_555
C19 C18 1_555 1_555
C20 C19 1_555 1_555
H20 C20 1_555 1_555
C21 C20 1_555 1_555
H21 C21 1_555 1_555
C22 C21 1_555 1_555
H22 C22 1_555 1_555
C23 C22 1_555 1_555
C24 C19 1_555 1_555
H23 C24 1_555 1_555
C25 C23 1_555 1_555
H24 C25 1_555 1_555
H25 C25 1_555 1_555
C26 N7 1_555 1_555
H26 C26 1_555 1_555
C27 N8 1_555 1_555
H27 C27 1_555 1_555
C28 N7 1_555 1_555
H28 C28 1_555 1_555
Cu1C N4 1_555 1_555
Cu2C N8 1_555 1_555
N4C Cu1 1_555 1_555
N8C Cu2 1_555 1_555
Cu2 I2 1_555 1_555
C2 C3 1_555 1_555
C9 C10 1_555 1_555
C13 C14 1_555 1_555
C16 C17 1_555 1_555
C23 C24 1_555 1_555
C27 C28 1_555 1_555

#END
