
#######################################################################
#
#                 Cambridge Crystallographic Data Centre
#                                CCDC 
#
#######################################################################
#
# If this CIF has been generated from an entry in the Cambridge 
# Structural Database, then it will include bibliographic, chemical, 
# crystal, experimental, refinement or atomic coordinate data resulting 
# from the CCDC's data processing and validation procedures.
#
#######################################################################

data_JOBCIN
_symmetry_cell_setting           tetragonal
_symmetry_space_group_name_H-M   'I 41/a c d'
_symmetry_Int_Tables_number      142
_space_group_name_Hall           '-I 4bd 2c'
loop_
_symmetry_equiv_pos_site_id
_symmetry_equiv_pos_as_xyz
1 x,y,z
2 1/4-y,3/4+x,1/4+z
3 1/4+y,1/4-x,3/4+z
4 1/4+y,3/4+x,3/4-z
5 1/4-y,1/4-x,1/4-z
6 1/2+x,1/2+y,1/2+z
7 3/4-y,1/4+x,3/4+z
8 3/4+y,3/4-x,1/4+z
9 3/4+y,1/4+x,1/4-z
10 1/2-x,-y,1/2+z
11 1/2-x,y,-z
12 x,-y,1/2-z
13 -x,1/2-y,z
14 -x,1/2+y,1/2-z
15 1/2+x,1/2-y,-z
16 3/4-y,3/4-x,3/4-z
17 -x,-y,-z
18 3/4+y,1/4-x,3/4-z
19 3/4-y,3/4+x,1/4-z
20 3/4-y,1/4-x,1/4+z
21 3/4+y,3/4+x,3/4+z
22 1/2-x,1/2-y,1/2-z
23 1/4+y,3/4-x,1/4-z
24 1/4-y,1/4+x,3/4-z
25 1/4-y,3/4-x,3/4+z
26 1/2+x,y,1/2-z
27 1/2+x,-y,z
28 -x,y,1/2+z
29 x,1/2+y,-z
30 x,1/2-y,1/2+z
31 1/2-x,1/2+y,z
32 1/4+y,1/4+x,1/4+z
_cell_length_a                   19.7695(4)
_cell_length_b                   19.7695(4)
_cell_length_c                   18.3435(6)
_cell_angle_alpha                90
_cell_angle_beta                 90
_cell_angle_gamma                90
_cell_volume                     7169.25
loop_
_atom_site_label
_atom_site_type_symbol
_atom_site_fract_x
_atom_site_fract_y
_atom_site_fract_z
Cu1 Cu 0.49117(2) 0.31614(2) 0.07158(2)
I1 I 0.480750(10) 0.366830(11) 0.206890(11)
N1 N 0.47324(13) 0.38890(12) -0.00258(14)
N2 N 0.42560(13) 0.47591(12) -0.05596(13)
C1 C 0.43141(16) 0.43963(16) 0.00521(18)
C2 C 0.49510(19) 0.39242(18) -0.0731(2)
C3 C 0.46625(19) 0.44598(18) -0.10644(18)
C4 C 0.38115(18) 0.53405(16) -0.0668(2)
C5 C 0.31188(15) 0.51610(14) -0.09641(17)
C6 C 0.26174(17) 0.56519(16) -0.09594(19)
C7 C 0.19844(17) 0.55156(17) -0.1250
C8 C 0.29728(15) 0.45272(15) -0.1250
H1 H 0.410(2) 0.446(2) 0.042(2)
H2 H 0.5251(18) 0.3605(18) -0.097(2)
H3 H 0.472(2) 0.460(2) -0.150(2)
H4 H 0.3724(17) 0.5547(19) -0.022(2)
H5 H 0.4003(17) 0.562(2) -0.100(2)
H6 H 0.2728(17) 0.6058(18) -0.0732(18)
H7 H 0.166(2) 0.584(2) -0.1250
H8 H 0.3329(17) 0.4171(17) -0.1250
Cu1V Cu 0.56614(2) 0.25883(2) 0.17842(2)
Cu1R Cu 0.43386(2) 0.24117(2) 0.17842(2)
Cu1L Cu 0.50883(2) 0.18386(2) 0.07158(2)
Cu1O Cu 0.43386(2) 0.25883(2) -0.32158(2)
I1R I 0.383170(11) 0.230750(10) 0.043110(11)
I1V I 0.616830(11) 0.269250(10) 0.043110(11)
I1L I 0.519250(10) 0.133170(11) 0.206890(11)
N1O N 0.36110(12) 0.27676(13) -0.24742(14)
N1V N 0.63890(12) 0.27676(13) 0.25258(14)
N2O N 0.27409(12) 0.32440(13) -0.19404(13)
C1O C 0.31037(16) 0.31859(16) -0.25521(18)
C2O C 0.35758(18) 0.25490(19) -0.1769(2)
C3O C 0.30402(18) 0.28375(19) -0.14356(18)
C4O C 0.21595(16) 0.36885(18) -0.1832(2)
C5O C 0.23390(14) 0.43812(15) -0.15359(17)
C6O C 0.18481(16) 0.48826(17) -0.15406(19)
H1O H 0.304(2) 0.340(2) -0.292(2)
H2O H 0.3895(18) 0.2249(18) -0.153(2)
H3O H 0.290(2) 0.278(2) -0.100(2)
H4O H 0.1953(19) 0.3776(17) -0.228(2)
H5O H 0.188(2) 0.3497(17) -0.150(2)
H6O H 0.1442(18) 0.4772(17) -0.1768(18)
loop_
_geom_bond_atom_site_label_1
_geom_bond_atom_site_label_2
_geom_bond_site_symmetry_1
_geom_bond_site_symmetry_2
Cu1 I1 1_555 1_555
I1 Cu1V 1_555 1_555
N1 Cu1 1_555 1_555
N2 C1 1_555 1_555
C1 N1 1_555 1_555
C2 N1 1_555 1_555
C3 N2 1_555 1_555
C4 N2 1_555 1_555
C5 C4 1_555 1_555
C6 C5 1_555 1_555
C7 C6 1_555 1_555
C8 C5 1_555 1_555
H1 C1 1_555 1_555
H2 C2 1_555 1_555
H3 C3 1_555 1_555
H4 C4 1_555 1_555
H5 C4 1_555 1_555
H6 C6 1_555 1_555
H7 C7 1_555 1_555
H8 C8 1_555 1_555
Cu1V I1V 1_555 1_555
Cu1R I1 1_555 1_555
Cu1L I1R 1_555 1_555
Cu1O N1O 1_555 1_555
I1R Cu1 1_555 1_555
I1V Cu1 1_555 1_555
I1L Cu1V 1_555 1_555
N1O C1O 1_555 1_555
N1V Cu1V 1_555 1_555
N2O C1O 1_555 1_555
C1O H1O 1_555 1_555
C2O N1O 1_555 1_555
C3O N2O 1_555 1_555
C4O N2O 1_555 1_555
C5O C8 1_555 1_555
C6O C7 1_555 1_555
H2O C2O 1_555 1_555
H3O C3O 1_555 1_555
H4O C4O 1_555 1_555
H5O C4O 1_555 1_555
H6O C6O 1_555 1_555
C2 C3 1_555 1_555
Cu1R I1R 1_555 1_555
Cu1R I1L 1_555 1_555
Cu1L I1V 1_555 1_555
Cu1L I1L 1_555 1_555
C2O C3O 1_555 1_555
C4O C5O 1_555 1_555
C5O C6O 1_555 1_555

#END
