
#######################################################################
#
#                 Cambridge Crystallographic Data Centre
#                                CCDC 
#
#######################################################################
#
# If this CIF has been generated from an entry in the Cambridge 
# Structural Database, then it will include bibliographic, chemical, 
# crystal, experimental, refinement or atomic coordinate data resulting 
# from the CCDC's data processing and validation procedures.
#
#######################################################################

data_JOBDAG
_symmetry_cell_setting           monoclinic
_symmetry_space_group_name_H-M   'P 21/c'
_symmetry_Int_Tables_number      14
_space_group_name_Hall           '-P 2ybc'
loop_
_symmetry_equiv_pos_site_id
_symmetry_equiv_pos_as_xyz
1 x,y,z
2 -x,1/2+y,1/2-z
3 -x,-y,-z
4 x,1/2-y,1/2+z
_cell_length_a                   11.339(4)
_cell_length_b                   21.987(5)
_cell_length_c                   7.976(7)
_cell_angle_alpha                90
_cell_angle_beta                 103.857(7)
_cell_angle_gamma                90
_cell_volume                     1930.63
loop_
_atom_site_label
_atom_site_type_symbol
_atom_site_fract_x
_atom_site_fract_y
_atom_site_fract_z
Cu1 Cu 1.26298(6) 0.31012(4) -0.20238(9)
Cu2 Cu 1.47802(6) 0.26932(3) 0.04471(8)
Cu3 Cu 1.49598(6) 0.33938(3) -0.23084(8)
I1 I 1.40186(3) 0.383589(13) 0.02269(4)
I2 I 1.62939(2) 0.259632(12) 0.35317(3)
I3 I 1.29794(3) 0.311900(13) -0.51055(4)
C1 C 1.0739(4) 0.3156(2) -0.0136(6)
H1 H 1.133(4) 0.305(2) 0.092(7)
C2 C 0.9852(4) 0.3315(2) -0.2786(6)
H2 H 0.973(4) 0.343(2) -0.406(6)
C3 C 0.8999(4) 0.3384(2) -0.1867(6)
H3 H 0.8185 0.3482 -0.2296
C4 C 0.9079(5) 0.3330(2) 0.1361(7)
H4 H 0.964(4) 0.3108(19) 0.231(6)
H5 H 0.835(4) 0.316(2) 0.102(6)
C5 C 0.8940(4) 0.3979(2) 0.1897(6)
C6 C 0.9834(5) 0.4413(2) 0.1904(8)
H6 H 1.049(5) 0.429(2) 0.162(6)
C7 C 0.9692(5) 0.4994(2) 0.2411(8)
H7 H 1.0302 0.5278 0.2417
C8 C 0.8662(4) 0.5171(2) 0.2917(7)
H8 H 0.862(5) 0.558(2) 0.341(6)
C9 C 0.7761(4) 0.47498(19) 0.2927(5)
C10 C 0.7906(4) 0.4158(2) 0.2396(6)
H9 H 0.737(5) 0.388(2) 0.237(6)
C11 C 0.5807(4) 0.41864(18) 0.5187(6)
H10 H 0.543(4) 0.396(2) 0.424(6)
C12 C 0.6486(4) 0.4538(2) 0.7705(6)
H11 H 0.659(4) 0.456(2) 0.892(7)
C13 C 0.6875(4) 0.4919(2) 0.6638(6)
H12 H 0.739(4) 0.526(2) 0.682(5)
C14 C 0.6591(4) 0.4947(2) 0.3379(6)
H13 H 0.655(4) 0.539(2) 0.345(5)
H14 H 0.588(4) 0.4845(18) 0.246(5)
N1 N 1.0955(3) 0.31691(17) -0.1682(5)
N2 N 0.9582(3) 0.32809(16) -0.0175(5)
N3 N 0.5818(3) 0.40762(15) 0.6798(4)
N4 N 0.6431(3) 0.46885(15) 0.5006(4)
Cu2C Cu 1.47802(6) 0.23068(3) 0.54471(8)
Cu2C_2 Cu 1.47802(6) 0.23068(3) -0.45529(8)
Cu3C Cu 1.49598(6) 0.16062(3) 0.26916(8)
Cu3_2 Cu 0.49598(6) 0.33938(3) 0.76916(8)
I2C I 1.62939(2) 0.240368(12) -0.14683(3)
I3C I 1.29794(3) 0.188100(13) -0.01055(4)
N3_2 N 1.5818(3) 0.40762(15) -0.3202(4)
loop_
_geom_bond_atom_site_label_1
_geom_bond_atom_site_label_2
_geom_bond_site_symmetry_1
_geom_bond_site_symmetry_2
Cu1 I1 1_555 1_555
Cu2 I1 1_555 1_555
Cu3 I1 1_555 1_555
I2 Cu2 1_555 1_555
I3 Cu1 1_555 1_555
C1 H1 1_555 1_555
C2 H2 1_555 1_555
C3 C2 1_555 1_555
H3 C3 1_555 1_555
C4 H4 1_555 1_555
H5 C4 1_555 1_555
C5 C4 1_555 1_555
C6 C5 1_555 1_555
H6 C6 1_555 1_555
C7 C6 1_555 1_555
H7 C7 1_555 1_555
C8 C7 1_555 1_555
H8 C8 1_555 1_555
C9 C8 1_555 1_555
C10 C5 1_555 1_555
H9 C10 1_555 1_555
C11 H10 1_555 1_555
C12 H11 1_555 1_555
C13 C12 1_555 1_555
H12 C13 1_555 1_555
C14 C9 1_555 1_555
H13 C14 1_555 1_555
H14 C14 1_555 1_555
N1 Cu1 1_555 1_555
N2 C1 1_555 1_555
N3 C11 1_555 1_555
N4 C11 1_555 1_555
Cu2C I2 1_555 1_555
Cu2C_2 I3 1_555 1_555
Cu3C I2 1_555 1_555
Cu3_2 N3 1_555 1_555
I2C Cu2 1_555 1_555
I3C Cu2 1_555 1_555
N3_2 Cu3 1_555 1_555
Cu3 I2C 1_555 1_555
C1 N1 1_555 1_555
C2 N1 1_555 1_555
C3 N2 1_555 1_555
C4 N2 1_555 1_555
C9 C10 1_555 1_555
C12 N3 1_555 1_555
C13 N4 1_555 1_555
C14 N4 1_555 1_555
Cu2C_2 I2C 1_555 1_555

#END
