
#######################################################################
#
#                 Cambridge Crystallographic Data Centre
#                                CCDC 
#
#######################################################################
#
# If this CIF has been generated from an entry in the Cambridge 
# Structural Database, then it will include bibliographic, chemical, 
# crystal, experimental, refinement or atomic coordinate data resulting 
# from the CCDC's data processing and validation procedures.
#
#######################################################################

data_JOBFOV
_symmetry_cell_setting           triclinic
_symmetry_space_group_name_H-M   'P -1'
_symmetry_Int_Tables_number      2
_space_group_name_Hall           '-P 1'
loop_
_symmetry_equiv_pos_site_id
_symmetry_equiv_pos_as_xyz
1 x,y,z
2 -x,-y,-z
_cell_length_a                   8.777(3)
_cell_length_b                   11.736(4)
_cell_length_c                   12.188(4)
_cell_angle_alpha                97.55(2)
_cell_angle_beta                 108.72(2)
_cell_angle_gamma                103.36(2)
_cell_volume                     1127.7
loop_
_atom_site_label
_atom_site_type_symbol
_atom_site_fract_x
_atom_site_fract_y
_atom_site_fract_z
Cu1 Cu 0.2766(2) 0.0648(1) 0.4799(1)
O1 O 0.2329(9) 0.0707(6) 0.6291(6)
N1 N 0.7240(10) 0.4752(7) 0.5375(8)
C1 C 0.6149(12) 0.4044(9) 0.5736(10)
C2 C 0.5277(12) 0.2842(8) 0.5088(9)
C3 C 0.5643(12) 0.2420(8) 0.4107(9)
C4 C 0.6827(12) 0.3196(8) 0.3752(9)
C5 C 0.7567(12) 0.4356(8) 0.4410(10)
C6 C 0.5942(15) 0.4557(9) 0.6868(10)
C7 C 0.7267(13) 0.2801(9) 0.2709(9)
O2 O 0.4240(8) 0.2244(6) 0.5489(6)
C8 C 0.4850(11) 0.1192(8) 0.3382(8)
N2 N 0.3654(10) 0.0453(7) 0.3557(7)
C9 C 0.2801(11) -0.0726(8) 0.2706(8)
C10 C 0.1942(13) -0.1580(10) 0.3331(10)
O3 O 0.8063(8) 0.1851(5) 0.2878(6)
P1 P 1.0016(3) 0.2162(2) 0.3719(3)
O4 O 1.1069(8) 0.3086(5) 0.3320(6)
O5 O 1.0129(9) 0.2753(6) 0.4990(6)
O6 O 1.0330(8) 0.0958(5) 0.3701(6)
O7 O 0.1805(9) -0.1120(6) 0.4276(6)
O8 O 0.1417(11) -0.2671(6) 0.2860(7)
C11 C 0.1424(13) -0.0566(9) 0.1606(9)
C12 C 0.2092(12) 0.0246(9) 0.0927(8)
C13 C 0.2227(13) 0.1457(11) 0.1187(9)
C14 C 0.2883(15) 0.2237(10) 0.0565(12)
C15 C 0.3448(17) 0.1801(13) -0.0293(11)
C16 C 0.3248(15) 0.0607(12) -0.0596(11)
C17 C 0.2584(14) -0.0185(10) 0.0034(10)
H1 H 0.828(13) 0.487(9) 0.429(8)
H2 H 0.463(14) 0.431(9) 0.678(9)
H3 H 0.621(14) 0.560(9) 0.699(9)
H4 H 0.657(9) 0.419(6) 0.757(6)
H5 H 0.628(13) 0.234(8) 0.193(8)
H6 H 0.777(9) 0.328(6) 0.244(6)
H7 H 0.517(8) 0.097(6) 0.262(6)
H8 H 0.366(8) -0.104(6) 0.243(5)
H9 H 0.935(9) 0.280(7) 0.511(6)
H10 H 0.212(14) 0.137(11) 0.644(9)
H11 H 0.139(15) 0.029(11) 0.614(10)
H12 H 0.095(9) -0.137(6) 0.102(6)
H13 H 0.066(12) -0.015(8) 0.212(8)
H14 H 0.191(8) 0.185(6) 0.177(5)
H15 H 0.306(11) 0.320(7) 0.074(7)
H16 H 0.399(14) 0.237(10) -0.088(9)
H17 H 0.383(14) 0.008(10) -0.104(9)
H18 H 0.250(13) -0.106(9) -0.037(9)
O6_2 O 0.0330(8) 0.0958(5) 0.3701(6)
Cu1_2 Cu 1.2766(2) 0.0648(1) 0.4799(1)
O9 O 0.2425(17) 0.3037(11) 0.7379(10)
O10 O -0.0193(22) 0.3672(16) 0.1032(15)
O11 O -0.0966(36) -0.4264(19) 0.0911(20)
loop_
_geom_bond_atom_site_label_1
_geom_bond_atom_site_label_2
_geom_bond_site_symmetry_1
_geom_bond_site_symmetry_2
Cu1 O1 1_555 1_555
O1 H10 1_555 1_555
N1 C1 1_555 1_555
C1 C2 1_555 1_555
C2 C3 1_555 1_555
C3 C4 1_555 1_555
C4 C5 1_555 1_555
C5 N1 1_555 1_555
C6 C1 1_555 1_555
C7 C4 1_555 1_555
O2 Cu1 1_555 1_555
C8 C3 1_555 1_555
N2 Cu1 1_555 1_555
C9 N2 1_555 1_555
C10 C9 1_555 1_555
O3 C7 1_555 1_555
P1 O3 1_555 1_555
O4 P1 1_555 1_555
O5 P1 1_555 1_555
O6 P1 1_555 1_555
O7 Cu1 1_555 1_555
O8 C10 1_555 1_555
C11 C9 1_555 1_555
C12 C11 1_555 1_555
C13 C12 1_555 1_555
C14 C13 1_555 1_555
C15 C14 1_555 1_555
C16 C15 1_555 1_555
C17 C12 1_555 1_555
H1 C5 1_555 1_555
H2 C6 1_555 1_555
H3 C6 1_555 1_555
H4 C6 1_555 1_555
H5 C7 1_555 1_555
H6 C7 1_555 1_555
H7 C8 1_555 1_555
H8 C9 1_555 1_555
H9 O5 1_555 1_555
H11 O1 1_555 1_555
H12 C11 1_555 1_555
H13 C11 1_555 1_555
H14 C13 1_555 1_555
H15 C14 1_555 1_555
H16 C15 1_555 1_555
H17 C16 1_555 1_555
H18 C17 1_555 1_555
O6_2 Cu1 1_555 1_555
Cu1_2 O6 1_555 1_555
C2 O2 1_555 1_555
C8 N2 1_555 1_555
C10 O7 1_555 1_555
C16 C17 1_555 1_555

#END
