
#######################################################################
#
#                 Cambridge Crystallographic Data Centre
#                                CCDC 
#
#######################################################################
#
# If this CIF has been generated from an entry in the Cambridge 
# Structural Database, then it will include bibliographic, chemical, 
# crystal, experimental, refinement or atomic coordinate data resulting 
# from the CCDC's data processing and validation procedures.
#
#######################################################################

data_JOBGIS
_symmetry_cell_setting           tetragonal
_symmetry_space_group_name_H-M   'I 41'
_symmetry_Int_Tables_number      80
_space_group_name_Hall           'I 4bw'
loop_
_symmetry_equiv_pos_site_id
_symmetry_equiv_pos_as_xyz
1 x,y,z
2 -y,1/2+x,1/4+z
3 1/2-x,1/2-y,1/2+z
4 1/2+y,-x,3/4+z
5 1/2+x,1/2+y,1/2+z
6 1/2-y,x,3/4+z
7 -x,-y,z
8 y,1/2-x,1/4+z
_cell_length_a                   17.809(2)
_cell_length_b                   17.809(2)
_cell_length_c                   27.080(8)
_cell_angle_alpha                90
_cell_angle_beta                 90
_cell_angle_gamma                90
_cell_volume                     8588.71
loop_
_atom_site_label
_atom_site_type_symbol
_atom_site_fract_x
_atom_site_fract_y
_atom_site_fract_z
Zn1 Zn 0.49893(6) 0.79936(5) 0.81786(4)
N1 N 0.5256(4) 0.8369(4) 0.7497(3)
N2 N 0.4185(4) 0.7315(4) 0.7868(3)
N3 N 0.4863(5) 0.7410(4) 0.8840(3)
N4 N 0.5958(4) 0.8448(3) 0.8440(2)
C1 C 0.5876(5) 0.8814(4) 0.7382(3)
C2 C 0.4810(5) 0.8360(5) 0.7087(4)
C3 C 0.3859(5) 0.7431(5) 0.7405(4)
C4 C 0.3734(6) 0.6811(5) 0.8117(6)
C5 C 0.4316(7) 0.6898(5) 0.8940(4)
C6 C 0.5260(6) 0.7503(6) 0.9268(4)
C7 C 0.6235(5) 0.8394(5) 0.8900(4)
C8 C 0.6517(4) 0.8811(4) 0.8190(3)
C9 C 0.5803(6) 0.9050(5) 0.6868(4)
H1 H 0.6153 0.9343 0.6687
C10 C 0.5141(5) 0.8773(5) 0.6697(4)
H2 H 0.4939 0.8844 0.6376
C11 C 0.3214(6) 0.6955(6) 0.7357(4)
H3 H 0.2902 0.6914 0.7074
C12 C 0.3133(6) 0.6586(6) 0.7773(4)
H4 H 0.2748 0.6231 0.7842
C13 C 0.4370(6) 0.6696(6) 0.9422(5)
H5 H 0.4061 0.6334 0.9580
C14 C 0.4928(6) 0.7086(5) 0.9647(5)
H6 H 0.5064 0.7077 0.9986
C15 C 0.6961(6) 0.8747(4) 0.8955(3)
H7 H 0.7250 0.8792 0.9249
C16 C 0.7138(5) 0.8993(5) 0.8508(4)
H8 H 0.7588 0.9243 0.8416
C17 C 0.4159(6) 0.7909(5) 0.7050(4)
C18 C 0.3835(8) 0.6592(6) 0.8631(6)
C19 C 0.5902(5) 0.7959(5) 0.9310(4)
C20 C 0.6479(5) 0.8982(4) 0.7686(3)
C21 C 0.3719(5) 0.8001(4) 0.6599(4)
C22 C 0.3301(6) 0.8642(7) 0.6485(5)
H9 H 0.3312 0.9050 0.6711
C23 C 0.2892(7) 0.8711(6) 0.6080(6)
H10 H 0.2608 0.9155 0.6027
C24 C 0.2875(5) 0.8143(6) 0.5734(6)
H11 H 0.2571 0.8202 0.5449
C25 C 0.3290(4) 0.7486(5) 0.5791(3)
H12 H 0.3285 0.7093 0.5553
C26 C 0.3713(4) 0.7448(4) 0.6224(3)
C27 C 0.3212(4) 0.6053(4) 0.8827(2)
C28 C 0.2584(4) 0.6275(4) 0.9095(4)
H13 H 0.2498 0.6792 0.9158
C29 C 0.2084(4) 0.5739(4) 0.9271(3)
H14 H 0.1654 0.5891 0.9454
C30 C 0.2210(4) 0.4982(4) 0.9179(3)
H15 H 0.1868 0.4616 0.9299
C31 C 0.2838(5) 0.4760(4) 0.8912(4)
H16 H 0.2925 0.4242 0.8849
C32 C 0.3339(5) 0.5295(4) 0.8736(4)
H17 H 0.3768 0.5144 0.8553
C33 C 0.6290(5) 0.7951(6) 0.9787(4)
C34 C 0.6323(6) 0.8567(7) 1.0083(4)
H18 H 0.6119 0.9026 0.9966
C35 C 0.6648(6) 0.8554(8) 1.0558(5)
H19 H 0.6633 0.8985 1.0764
C36 C 0.7003(6) 0.7872(11) 1.0723(6)
H20 H 0.7235 0.7836 1.1038
C37 C 0.6987(8) 0.7289(10) 1.0410(6)
H21 H 0.7249 0.6846 1.0501
C38 C 0.6599(7) 0.7291(7) 0.9943(5)
H22 H 0.6559 0.6848 0.9750
C39 C 0.7145(5) 0.9354(5) 0.7434(3)
C40 C 0.7531(6) 0.8937(6) 0.7090(4)
H23 H 0.7399 0.8429 0.7024
C41 C 0.8127(6) 0.9287(7) 0.6839(4)
H24 H 0.8383 0.9024 0.6585
C42 C 0.8341(5) 0.9997(7) 0.6956(5)
H25 H 0.8756 1.0220 0.6790
C43 C 0.7966(7) 1.0393(7) 0.7309(5)
H26 H 0.8103 1.0893 0.7392
C44 C 0.7372(5) 1.0032(6) 0.7543(4)
H27 H 0.7116 1.0294 0.7798
C45 C 0.4163(5) 0.6087(5) 0.6169(3)
C46 C 0.4614(4) 0.5548(4) 0.6447(3)
C47 C 0.5000 0.5000 0.6169(4)
H28 H 0.5000 0.5000 0.5818
C48 C 0.4612(5) 0.5544(4) 0.6952(3)
H29 H 0.4343 0.5917 0.7130
C49 C 0.5000 0.5000 0.7197(4)
H30 H 0.5000 0.5000 0.7548
N5 N 0.4159(4) 0.6799(3) 0.6330(2)
H31 H 0.4510 0.6887 0.6551
O1 O 0.3819(3) 0.5918(3) 0.5777(2)
N1F N 0.4744(4) 0.1631(4) 0.7497(3)
N2F N 0.5815(4) 0.2685(4) 0.7868(3)
N3F N 0.5137(5) 0.2590(4) 0.8840(3)
N4F N 0.4042(4) 0.1552(3) 0.8440(2)
C1F C 0.4124(5) 0.1186(4) 0.7382(3)
C2F C 0.5190(5) 0.1640(5) 0.7087(4)
C3F C 0.6141(5) 0.2569(5) 0.7405(4)
C4F C 0.6266(6) 0.3189(5) 0.8117(6)
C5F C 0.5684(7) 0.3102(5) 0.8940(4)
C6F C 0.4740(6) 0.2497(6) 0.9268(4)
C7F C 0.3765(5) 0.1606(5) 0.8900(4)
C8F C 0.3483(4) 0.1189(4) 0.8190(3)
C9F C 0.4197(6) 0.0950(5) 0.6868(4)
H1F H 0.3847 0.0657 0.6687
C10F C 0.4859(5) 0.1227(5) 0.6697(4)
H2F H 0.5061 0.1156 0.6376
C11F C 0.6786(6) 0.3045(6) 0.7357(4)
H3F H 0.7098 0.3086 0.7074
C12F C 0.6867(6) 0.3414(6) 0.7773(4)
H4F H 0.7252 0.3769 0.7842
C13F C 0.5630(6) 0.3304(6) 0.9422(5)
H5F H 0.5939 0.3666 0.9580
C14F C 0.5072(6) 0.2914(5) 0.9647(5)
H6F H 0.4936 0.2923 0.9986
C15F C 0.3039(6) 0.1253(4) 0.8955(3)
H7F H 0.2750 0.1208 0.9249
C16F C 0.2862(5) 0.1007(5) 0.8508(4)
H8F H 0.2412 0.0757 0.8416
C17F C 0.5841(6) 0.2091(5) 0.7050(4)
C18F C 0.6165(8) 0.3408(6) 0.8631(6)
C19F C 0.4098(5) 0.2041(5) 0.9310(4)
C20F C 0.3521(5) 0.1018(4) 0.7686(3)
C21F C 0.6281(5) 0.1999(4) 0.6599(4)
C22F C 0.6699(6) 0.1358(7) 0.6485(5)
H9F H 0.6688 0.0950 0.6711
C23F C 0.7108(7) 0.1289(6) 0.6080(6)
H10F H 0.7392 0.0845 0.6027
C24F C 0.7125(5) 0.1857(6) 0.5734(6)
H11F H 0.7429 0.1798 0.5449
C25F C 0.6710(4) 0.2514(5) 0.5791(3)
H12F H 0.6715 0.2907 0.5553
C26F C 0.6287(4) 0.2552(4) 0.6224(3)
C27F C 0.6788(4) 0.3947(4) 0.8827(2)
C28F C 0.7416(4) 0.3725(4) 0.9095(4)
H13F H 0.7502 0.3208 0.9158
C29F C 0.7916(4) 0.4261(4) 0.9271(3)
H14F H 0.8346 0.4109 0.9454
C30F C 0.7790(4) 0.5018(4) 0.9179(3)
H15F H 0.8132 0.5384 0.9299
C31F C 0.7162(5) 0.5240(4) 0.8912(4)
H16F H 0.7075 0.5758 0.8849
C32F C 0.6661(5) 0.4705(4) 0.8736(4)
H17F H 0.6232 0.4856 0.8553
C33F C 0.3710(5) 0.2049(6) 0.9787(4)
C34F C 0.3677(6) 0.1433(7) 1.0083(4)
H18F H 0.3881 0.0974 0.9966
C35F C 0.3352(6) 0.1446(8) 1.0558(5)
H19F H 0.3367 0.1015 1.0764
C36F C 0.2997(6) 0.2128(11) 1.0723(6)
H20F H 0.2765 0.2164 1.1038
C37F C 0.3013(8) 0.2711(10) 1.0410(6)
H21F H 0.2751 0.3154 1.0501
C38F C 0.3401(7) 0.2709(7) 0.9943(5)
H22F H 0.3441 0.3152 0.9750
C39F C 0.2855(5) 0.0646(5) 0.7434(3)
C40F C 0.2469(6) 0.1063(6) 0.7090(4)
H23F H 0.2601 0.1571 0.7024
C41F C 0.1873(6) 0.0713(7) 0.6839(4)
H24F H 0.1617 0.0976 0.6585
C42F C 0.1659(5) 0.0003(7) 0.6956(5)
H25F H 0.1244 -0.0220 0.6790
C43F C 0.2034(7) -0.0393(7) 0.7309(5)
H26F H 0.1897 -0.0893 0.7392
C44F C 0.2628(5) -0.0032(6) 0.7543(4)
H27F H 0.2884 -0.0294 0.7798
C45F C 0.5837(5) 0.3913(5) 0.6169(3)
C46F C 0.5386(4) 0.4452(4) 0.6447(3)
C48F C 0.5388(5) 0.4456(4) 0.6952(3)
H29F H 0.5657 0.4083 0.7130
N5F N 0.5841(4) 0.3201(3) 0.6330(2)
H31F H 0.5490 0.3113 0.6551
O1F O 0.6181(3) 0.4082(3) 0.5777(2)
Zn1F Zn 0.50107(6) 0.20064(5) 0.81786(4)
Zn1C Zn 0.29936(5) 0.50107(6) 0.56786(4)
Zn1E Zn 0.70064(5) 0.49893(6) 0.56786(4)
O1A O 0.4082(3) 0.8819(3) 0.8277(2)
O1G O 0.5918(3) 0.1181(3) 0.8277(2)
loop_
_geom_bond_atom_site_label_1
_geom_bond_atom_site_label_2
_geom_bond_site_symmetry_1
_geom_bond_site_symmetry_2
Zn1 N1 1_555 1_555
N1 C1 1_555 1_555
N2 Zn1 1_555 1_555
N3 Zn1 1_555 1_555
N4 Zn1 1_555 1_555
C1 C9 1_555 1_555
C2 N1 1_555 1_555
C3 N2 1_555 1_555
C4 N2 1_555 1_555
C5 N3 1_555 1_555
C6 N3 1_555 1_555
C7 N4 1_555 1_555
C8 N4 1_555 1_555
C9 H1 1_555 1_555
C10 C2 1_555 1_555
H2 C10 1_555 1_555
C11 C3 1_555 1_555
H3 C11 1_555 1_555
C12 C4 1_555 1_555
H4 C12 1_555 1_555
C13 C5 1_555 1_555
H5 C13 1_555 1_555
C14 C6 1_555 1_555
H6 C14 1_555 1_555
C15 C7 1_555 1_555
H7 C15 1_555 1_555
C16 C8 1_555 1_555
H8 C16 1_555 1_555
C17 C2 1_555 1_555
C18 C4 1_555 1_555
C19 C6 1_555 1_555
C20 C1 1_555 1_555
C21 C17 1_555 1_555
C22 C21 1_555 1_555
H9 C22 1_555 1_555
C23 C22 1_555 1_555
H10 C23 1_555 1_555
C24 C23 1_555 1_555
H11 C24 1_555 1_555
C25 C24 1_555 1_555
H12 C25 1_555 1_555
C26 C21 1_555 1_555
C27 C18 1_555 1_555
C28 C27 1_555 1_555
H13 C28 1_555 1_555
C29 C28 1_555 1_555
H14 C29 1_555 1_555
C30 C29 1_555 1_555
H15 C30 1_555 1_555
C31 C30 1_555 1_555
H16 C31 1_555 1_555
C32 C27 1_555 1_555
H17 C32 1_555 1_555
C33 C19 1_555 1_555
C34 C33 1_555 1_555
H18 C34 1_555 1_555
C35 C34 1_555 1_555
H19 C35 1_555 1_555
C36 C35 1_555 1_555
H20 C36 1_555 1_555
C37 C36 1_555 1_555
H21 C37 1_555 1_555
C38 C33 1_555 1_555
H22 C38 1_555 1_555
C39 C20 1_555 1_555
C40 C39 1_555 1_555
H23 C40 1_555 1_555
C41 C40 1_555 1_555
H24 C41 1_555 1_555
C42 C41 1_555 1_555
H25 C42 1_555 1_555
C43 C42 1_555 1_555
H26 C43 1_555 1_555
C44 C39 1_555 1_555
H27 C44 1_555 1_555
C45 C46 1_555 1_555
C46 C47 1_555 1_555
C47 H28 1_555 1_555
C48 C46 1_555 1_555
H29 C48 1_555 1_555
C49 C48 1_555 1_555
H30 C49 1_555 1_555
N5 C26 1_555 1_555
H31 N5 1_555 1_555
O1 C45 1_555 1_555
N1F C1F 1_555 1_555
N2F C3F 1_555 1_555
N3F C5F 1_555 1_555
N4F C7F 1_555 1_555
C1F C9F 1_555 1_555
C2F N1F 1_555 1_555
C3F C11F 1_555 1_555
C4F N2F 1_555 1_555
C5F C13F 1_555 1_555
C6F N3F 1_555 1_555
C7F C15F 1_555 1_555
C8F N4F 1_555 1_555
C9F H1F 1_555 1_555
C10F C2F 1_555 1_555
H2F C10F 1_555 1_555
C11F H3F 1_555 1_555
C12F C4F 1_555 1_555
H4F C12F 1_555 1_555
C13F H5F 1_555 1_555
C14F C6F 1_555 1_555
H6F C14F 1_555 1_555
C15F H7F 1_555 1_555
C16F C8F 1_555 1_555
H8F C16F 1_555 1_555
C17F C2F 1_555 1_555
C18F C4F 1_555 1_555
C19F C6F 1_555 1_555
C20F C1F 1_555 1_555
C21F C17F 1_555 1_555
C22F C21F 1_555 1_555
H9F C22F 1_555 1_555
C23F C22F 1_555 1_555
H10F C23F 1_555 1_555
C24F C23F 1_555 1_555
H11F C24F 1_555 1_555
C25F C24F 1_555 1_555
H12F C25F 1_555 1_555
C26F C21F 1_555 1_555
C27F C18F 1_555 1_555
C28F C27F 1_555 1_555
H13F C28F 1_555 1_555
C29F C28F 1_555 1_555
H14F C29F 1_555 1_555
C30F C29F 1_555 1_555
H15F C30F 1_555 1_555
C31F C30F 1_555 1_555
H16F C31F 1_555 1_555
C32F C27F 1_555 1_555
H17F C32F 1_555 1_555
C33F C19F 1_555 1_555
C34F C33F 1_555 1_555
H18F C34F 1_555 1_555
C35F C34F 1_555 1_555
H19F C35F 1_555 1_555
C36F C35F 1_555 1_555
H20F C36F 1_555 1_555
C37F C36F 1_555 1_555
H21F C37F 1_555 1_555
C38F C33F 1_555 1_555
H22F C38F 1_555 1_555
C39F C20F 1_555 1_555
C40F C39F 1_555 1_555
H23F C40F 1_555 1_555
C41F C40F 1_555 1_555
H24F C41F 1_555 1_555
C42F C41F 1_555 1_555
H25F C42F 1_555 1_555
C43F C42F 1_555 1_555
H26F C43F 1_555 1_555
C44F C39F 1_555 1_555
H27F C44F 1_555 1_555
C45F C46F 1_555 1_555
C46F C47 1_555 1_555
C48F C49 1_555 1_555
H29F C48F 1_555 1_555
N5F C26F 1_555 1_555
H31F N5F 1_555 1_555
O1F C45F 1_555 1_555
Zn1F N1F 1_555 1_555
Zn1C O1 1_555 1_555
Zn1E O1F 1_555 1_555
O1A Zn1 1_555 1_555
O1G Zn1F 1_555 1_555
C3 C17 1_555 1_555
C5 C18 1_555 1_555
C7 C19 1_555 1_555
C8 C20 1_555 1_555
C9 C10 1_555 1_555
C11 C12 1_555 1_555
C13 C14 1_555 1_555
C15 C16 1_555 1_555
C25 C26 1_555 1_555
C31 C32 1_555 1_555
C37 C38 1_555 1_555
C43 C44 1_555 1_555
C45 N5 1_555 1_555
N2F Zn1F 1_555 1_555
N3F Zn1F 1_555 1_555
N4F Zn1F 1_555 1_555
C3F C17F 1_555 1_555
C5F C18F 1_555 1_555
C7F C19F 1_555 1_555
C8F C20F 1_555 1_555
C9F C10F 1_555 1_555
C11F C12F 1_555 1_555
C13F C14F 1_555 1_555
C15F C16F 1_555 1_555
C25F C26F 1_555 1_555
C31F C32F 1_555 1_555
C37F C38F 1_555 1_555
C43F C44F 1_555 1_555
C45F N5F 1_555 1_555
C46F C48F 1_555 1_555

#END
