
#######################################################################
#
#                 Cambridge Crystallographic Data Centre
#                                CCDC 
#
#######################################################################
#
# If this CIF has been generated from an entry in the Cambridge 
# Structural Database, then it will include bibliographic, chemical, 
# crystal, experimental, refinement or atomic coordinate data resulting 
# from the CCDC's data processing and validation procedures.
#
#######################################################################

data_JOBHUF
_symmetry_cell_setting           monoclinic
_symmetry_space_group_name_H-M   'C 2/c'
_symmetry_Int_Tables_number      15
_space_group_name_Hall           '-C 2yn'
loop_
_symmetry_equiv_pos_site_id
_symmetry_equiv_pos_as_xyz
1 x,y,z
2 -x,y,1/2-z
3 1/2+x,1/2+y,z
4 1/2-x,1/2+y,1/2-z
5 -x,-y,-z
6 x,-y,1/2+z
7 1/2-x,1/2-y,-z
8 1/2+x,1/2-y,1/2+z
_cell_length_a                   24.5330(12)
_cell_length_b                   12.0840(6)
_cell_length_c                   7.4465(4)
_cell_angle_alpha                90
_cell_angle_beta                 93.073(4)
_cell_angle_gamma                90
_cell_volume                     2204.39
loop_
_atom_site_label
_atom_site_type_symbol
_atom_site_fract_x
_atom_site_fract_y
_atom_site_fract_z
Tb1 Tb 0.5000 0.55581(2) 0.2500
Ag1 Ag 0.7500 0.7500 0.0000
O1 O 0.57972(10) 0.5716(2) -0.2661(3)
O2 O 0.57575(10) 0.8214(2) -0.5000(4)
O3 O 0.56751(10) 0.6696(2) -0.6714(3)
N1 N 0.65942(12) 0.8793(3) -0.1355(4)
O4 O 0.52709(10) 0.5973(2) -0.0420(3)
N2 N 0.71829(11) 0.6837(3) -0.2495(4)
C1 C 0.63254(15) 0.9461(3) -0.0292(5)
H1 H 0.6485 1.0156 0.0020
C2 C 0.56514(14) 0.6314(3) -0.1412(4)
C3 C 0.58233(16) 0.9202(3) 0.0390(5)
H2 H 0.5636 0.9721 0.1091
C4 C 0.56076(15) 0.8172(3) 0.0018(5)
H3 H 0.5273 0.7957 0.0501
C5 C 0.66802(14) 0.7156(3) -0.3104(5)
C6 C 0.64777(14) 0.6898(3) -0.4846(5)
C7 C 0.67944(14) 0.6266(3) -0.5935(5)
H4 H 0.6659 0.6054 -0.7104
C8 C 0.58815(14) 0.7445(3) -0.1067(5)
C9 C 0.74936(15) 0.6246(3) -0.3594(5)
H5 H 0.7850 0.6032 -0.3166
C10 C 0.63657(14) 0.7813(3) -0.1795(5)
C11 C 0.59211(15) 0.7320(3) -0.5531(5)
C12 C 0.73159(16) 0.5943(4) -0.5297(5)
H6 H 0.7543 0.5521 -0.6031
O1A O 0.42028(10) 0.5716(2) -0.2339(3)
O2A O 0.42425(10) 0.8214(2) 0.0000(4)
O3A O 0.43249(10) 0.6696(2) 0.1714(3)
N1A N 0.34058(12) 0.8793(3) -0.3645(4)
O4A O 0.47291(10) 0.5973(2) -0.4580(3)
N2A N 0.28171(11) 0.6837(3) -0.2505(4)
C1A C 0.36746(15) 0.9461(3) -0.4708(5)
H1A H 0.3515 1.0156 -0.5020
C2A C 0.43486(14) 0.6314(3) -0.3588(4)
C3A C 0.41767(16) 0.9202(3) -0.5390(5)
H2A H 0.4364 0.9721 -0.6091
C4A C 0.43924(15) 0.8172(3) -0.5018(5)
H3A H 0.4727 0.7957 -0.5501
C5A C 0.33198(14) 0.7156(3) -0.1896(5)
C6A C 0.35223(14) 0.6898(3) -0.0154(5)
C7A C 0.32056(14) 0.6266(3) 0.0935(5)
H4A H 0.3341 0.6054 0.2104
C8A C 0.41185(14) 0.7445(3) -0.3933(5)
C9A C 0.25064(15) 0.6246(3) -0.1406(5)
H5A H 0.2150 0.6032 -0.1834
C10A C 0.36343(14) 0.7813(3) -0.3205(5)
C11A C 0.40789(15) 0.7320(3) 0.0531(5)
C12A C 0.26841(16) 0.5943(4) 0.0297(5)
H6A H 0.2457 0.5521 0.1031
Tb1_2 Tb 0.5000 0.55581(2) -0.7500
Tb1D Tb 0.5000 0.44419(2) -0.2500
Ag1A Ag 0.2500 0.7500 -0.5000
O1D O 0.42028(10) 0.4284(2) 0.2661(3)
O1E O 0.57972(10) 0.4284(2) 0.2339(3)
O3_2 O 0.56751(10) 0.6696(2) 0.3286(3)
O4A_2 O 0.47291(10) 0.5973(2) 0.5420(3)
O4D O 0.47291(10) 0.4027(2) 0.0420(3)
O4E O 0.52709(10) 0.4027(2) 0.4580(3)
N2F N 0.78171(11) 0.8163(3) 0.2495(4)
loop_
_geom_bond_atom_site_label_1
_geom_bond_atom_site_label_2
_geom_bond_site_symmetry_1
_geom_bond_site_symmetry_2
Tb1 O4 1_555 1_555
Ag1 N2 1_555 1_555
O1 C2 1_555 1_555
O2 C11 1_555 1_555
O3 C11 1_555 1_555
N1 C1 1_555 1_555
O4 C2 1_555 1_555
N2 C5 1_555 1_555
C1 H1 1_555 1_555
C2 C8 1_555 1_555
C3 C1 1_555 1_555
H2 C3 1_555 1_555
C4 C3 1_555 1_555
H3 C4 1_555 1_555
C5 C6 1_555 1_555
C6 C7 1_555 1_555
C7 H4 1_555 1_555
C8 C4 1_555 1_555
C9 N2 1_555 1_555
H5 C9 1_555 1_555
C10 N1 1_555 1_555
C11 C6 1_555 1_555
C12 C7 1_555 1_555
H6 C12 1_555 1_555
O1A C2A 1_555 1_555
O2A C11A 1_555 1_555
O3A Tb1 1_555 1_555
N1A C1A 1_555 1_555
O4A C2A 1_555 1_555
N2A C5A 1_555 1_555
C1A H1A 1_555 1_555
C2A C8A 1_555 1_555
C3A C1A 1_555 1_555
H2A C3A 1_555 1_555
C4A C3A 1_555 1_555
H3A C4A 1_555 1_555
C5A C6A 1_555 1_555
C6A C7A 1_555 1_555
C7A H4A 1_555 1_555
C8A C4A 1_555 1_555
C9A N2A 1_555 1_555
H5A C9A 1_555 1_555
C10A N1A 1_555 1_555
C11A O3A 1_555 1_555
C12A C7A 1_555 1_555
H6A C12A 1_555 1_555
Tb1_2 O3 1_555 1_555
Tb1D O1 1_555 1_555
Ag1A N2A 1_555 1_555
O1D Tb1 1_555 1_555
O1E Tb1 1_555 1_555
O3_2 Tb1 1_555 1_555
O4A_2 Tb1 1_555 1_555
O4D Tb1 1_555 1_555
O4E Tb1 1_555 1_555
N2F Ag1 1_555 1_555
O4 Tb1D 1_555 1_555
C5 C10 1_555 1_555
C8 C10 1_555 1_555
C9 C12 1_555 1_555
O1A Tb1D 1_555 1_555
O4A Tb1_2 1_555 1_555
O4A Tb1D 1_555 1_555
C5A C10A 1_555 1_555
C6A C11A 1_555 1_555
C8A C10A 1_555 1_555
C9A C12A 1_555 1_555
Tb1D O4D 1_555 1_555

#END
