
#######################################################################
#
#                 Cambridge Crystallographic Data Centre
#                                CCDC 
#
#######################################################################
#
# If this CIF has been generated from an entry in the Cambridge 
# Structural Database, then it will include bibliographic, chemical, 
# crystal, experimental, refinement or atomic coordinate data resulting 
# from the CCDC's data processing and validation procedures.
#
#######################################################################

data_JOBKOC
_symmetry_cell_setting           orthorhombic
_symmetry_space_group_name_H-M   'P b c n'
_symmetry_Int_Tables_number      60
_space_group_name_Hall           '-P 2n 2ab'
loop_
_symmetry_equiv_pos_site_id
_symmetry_equiv_pos_as_xyz
1 x,y,z
2 1/2-x,1/2-y,1/2+z
3 -x,y,1/2-z
4 1/2+x,1/2-y,-z
5 -x,-y,-z
6 1/2+x,1/2+y,1/2-z
7 x,-y,1/2+z
8 1/2-x,1/2+y,z
_cell_length_a                   23.507(5)
_cell_length_b                   12.840(3)
_cell_length_c                   15.962(3)
_cell_angle_alpha                90
_cell_angle_beta                 90
_cell_angle_gamma                90
_cell_volume                     4817.81
loop_
_atom_site_label
_atom_site_type_symbol
_atom_site_fract_x
_atom_site_fract_y
_atom_site_fract_z
Fe1 Fe 0.52209(2) 0.28829(4) 0.11395(3)
Fe2 Fe 0.76751(2) 0.10637(4) 0.00735(3)
N1 N 0.49578(14) 0.1154(2) 0.1304(2)
N2 N 0.59518(12) 0.1925(2) 0.06624(18)
N3 N 0.63477(14) 0.0327(2) 0.0626(2)
N4 N 0.67518(14) 0.1040(2) 0.0395(2)
N5 N 0.74252(13) 0.2719(2) 0.00988(19)
N6 N 0.67231(12) 0.3872(2) 0.02764(19)
N7 N 0.72232(13) 0.4404(2) 0.01273(18)
N8 N 0.29915(15) 0.3724(2) -0.1417(2)
N9 N 0.35803(12) 0.3547(2) 0.00437(17)
N10 N 0.43904(13) 0.3108(3) -0.06116(19)
N11 N 0.44933(13) 0.3115(2) 0.02368(18)
N12 N 0.35159(14) 0.3681(3) 0.1968(2)
N13 N 0.44439(12) 0.3285(2) 0.19381(18)
N14 N 0.42813(13) 0.3383(3) 0.27696(19)
O1 O 0.55701(12) 0.4242(2) 0.04527(19)
H1 H 0.5419 0.4273 -0.0031
H2 H 0.5928 0.4172 0.0403
O2 O 0.74938(13) 0.1008(2) -0.12687(18)
H3 H 0.7326 0.0440 -0.1385
H4 H 0.7805 0.1043 -0.1539
C1 C 0.44486(18) 0.0788(4) 0.1570(3)
H5 H 0.4175 0.1263 0.1746
C2 C 0.4319(2) -0.0250(4) 0.1591(4)
H6 H 0.3966 -0.0473 0.1783
C3 C 0.4717(2) -0.0957(4) 0.1325(4)
H7 H 0.4634 -0.1665 0.1329
C4 C 0.52368(18) -0.0611(3) 0.1053(3)
H8 H 0.5512 -0.1080 0.0872
C5 C 0.53433(16) 0.0453(3) 0.1053(2)
C6 C 0.58828(16) 0.0882(3) 0.0774(2)
C7 C 0.65023(15) 0.1974(2) 0.0428(2)
C8 C 0.68618(14) 0.2881(2) 0.0258(2)
C9 C 0.76247(15) 0.3686(3) 0.0032(2)
H9 H 0.8005 0.3842 -0.0070
C10 C 0.2685(2) 0.3809(4) -0.2117(3)
H10 H 0.2302 0.3984 -0.2074
C11 C 0.2912(3) 0.3648(5) -0.2899(3)
H11 H 0.2684 0.3700 -0.3375
C12 C 0.3475(3) 0.3409(5) -0.2969(3)
H12 H 0.3639 0.3314 -0.3493
C13 C 0.3797(2) 0.3313(5) -0.2262(3)
H13 H 0.4180 0.3144 -0.2297
C14 C 0.35420(18) 0.3469(3) -0.1493(2)
C15 C 0.38488(15) 0.3367(3) -0.0697(2)
C16 C 0.40018(14) 0.3384(3) 0.0589(2)
C17 C 0.39763(14) 0.3461(3) 0.1501(2)
C18 C 0.37394(19) 0.3626(5) 0.2748(3)
H14 H 0.3526 0.3750 0.3229
Fe1B Fe 0.47791(2) 0.28829(4) 0.38605(3)
Fe2C Fe 0.26751(2) 0.39363(4) -0.00735(3)
Fe2G Fe 0.73249(2) 0.60637(4) 0.00735(3)
N7G N 0.77768(13) -0.0596(2) 0.01273(18)
N8C N 0.79915(15) 0.1276(2) 0.1417(2)
N9C N 0.85803(12) 0.1453(2) -0.00437(17)
N14B N 0.57187(13) 0.3383(3) 0.22304(19)
O3 O 0.5301(2) 0.4175(4) 0.8664(3)
H15 H 0.5133 0.3712 0.8953
H16 H 0.5077 0.4401 0.8288
O4 O 0.6845(3) 0.0953(5) 0.7092(4)
H17 H 0.6805 0.0627 0.6632
H18 H 0.6846 0.1605 0.6999
loop_
_geom_bond_atom_site_label_1
_geom_bond_atom_site_label_2
_geom_bond_site_symmetry_1
_geom_bond_site_symmetry_2
Fe1 N1 1_555 1_555
Fe2 N4 1_555 1_555
N1 C1 1_555 1_555
N2 Fe1 1_555 1_555
N3 N4 1_555 1_555
N4 C7 1_555 1_555
N5 Fe2 1_555 1_555
N6 N7 1_555 1_555
N7 C9 1_555 1_555
N8 C10 1_555 1_555
N9 C15 1_555 1_555
N10 N11 1_555 1_555
N11 Fe1 1_555 1_555
N12 C17 1_555 1_555
N13 Fe1 1_555 1_555
N14 N13 1_555 1_555
O1 Fe1 1_555 1_555
H1 O1 1_555 1_555
H2 O1 1_555 1_555
O2 Fe2 1_555 1_555
H3 O2 1_555 1_555
H4 O2 1_555 1_555
C1 H5 1_555 1_555
C2 C1 1_555 1_555
H6 C2 1_555 1_555
C3 C2 1_555 1_555
H7 C3 1_555 1_555
C4 C3 1_555 1_555
H8 C4 1_555 1_555
C5 N1 1_555 1_555
C6 N2 1_555 1_555
C7 N2 1_555 1_555
C8 N5 1_555 1_555
C9 N5 1_555 1_555
H9 C9 1_555 1_555
C10 H10 1_555 1_555
C11 C10 1_555 1_555
H11 C11 1_555 1_555
C12 C11 1_555 1_555
H12 C12 1_555 1_555
C13 C12 1_555 1_555
H13 C13 1_555 1_555
C14 N8 1_555 1_555
C15 N10 1_555 1_555
C16 N9 1_555 1_555
C17 N13 1_555 1_555
C18 N12 1_555 1_555
H14 C18 1_555 1_555
O3 H15 1_555 1_555
H16 O3 1_555 1_555
O4 H17 1_555 1_555
H18 O4 1_555 1_555
Fe1B N14 1_555 1_555
Fe2C N8 1_555 1_555
Fe2G N7 1_555 1_555
N7G Fe2 1_555 1_555
N8C Fe2 1_555 1_555
N9C Fe2 1_555 1_555
N14B Fe1 1_555 1_555
N3 C6 1_555 1_555
N6 C8 1_555 1_555
N9 Fe2C 1_555 1_555
N11 C16 1_555 1_555
N14 C18 1_555 1_555
C4 C5 1_555 1_555
C5 C6 1_555 1_555
C7 C8 1_555 1_555
C13 C14 1_555 1_555
C14 C15 1_555 1_555
C16 C17 1_555 1_555

#END
