
#######################################################################
#
#                 Cambridge Crystallographic Data Centre
#                                CCDC 
#
#######################################################################
#
# If this CIF has been generated from an entry in the Cambridge 
# Structural Database, then it will include bibliographic, chemical, 
# crystal, experimental, refinement or atomic coordinate data resulting 
# from the CCDC's data processing and validation procedures.
#
#######################################################################

data_JOBMOE
_symmetry_cell_setting           monoclinic
_symmetry_space_group_name_H-M   'C c'
_symmetry_Int_Tables_number      9
_space_group_name_Hall           'C -2yc'
loop_
_symmetry_equiv_pos_site_id
_symmetry_equiv_pos_as_xyz
1 x,y,z
2 x,-y,1/2+z
3 1/2+x,1/2+y,z
4 1/2+x,1/2-y,1/2+z
_cell_length_a                   14.050(1)
_cell_length_b                   16.735(2)
_cell_length_c                   8.913(1)
_cell_angle_alpha                90
_cell_angle_beta                 99.032(5)
_cell_angle_gamma                90
_cell_volume                     2069.7
loop_
_atom_site_label
_atom_site_type_symbol
_atom_site_fract_x
_atom_site_fract_y
_atom_site_fract_z
Ag1 Ag 0.49826(5) 0.54937(3) 0.66670(5)
C1 C 0.6709(6) 0.5890(5) 0.4853(10)
N1 N 0.5294(3) 0.6048(3) 0.3476(6)
N2 N 0.5750(4) 0.5811(4) 0.4873(6)
C2 C 0.2869(4) 0.5571(4) 0.4306(7)
C3 C 0.2491(5) 0.6387(4) 0.4674(9)
H1 H 0.1932 0.6322 0.5158
H2 H 0.2322 0.6687 0.3753
H3 H 0.2981 0.6667 0.5345
N3 N 0.3962(4) 0.4736(4) 0.3183(6)
C4 C 0.3669(4) 0.5466(4) 0.3609(7)
C5 C 0.5631(5) 0.6649(5) 0.1037(7)
H4 H 0.5042 0.6380 0.0558
C6 C 0.4259(5) 0.6186(4) 0.3225(8)
H5 H 0.4056 0.6327 0.2168
H6 H 0.4120 0.6637 0.3839
C7 C 0.6828(5) 0.6163(4) 0.3398(7)
H7 H 0.7412 0.6249 0.3056
C8 C 0.5920(4) 0.6280(4) 0.2570(7)
C9 C 0.7420(5) 0.5704(4) 0.6162(8)
H8 H 0.7094 0.5396 0.6868
O1 O 0.1607(4) 0.4967(4) 0.5427(7)
C10 C 0.2376(5) 0.4888(4) 0.4646(7)
C11 C 0.2699(5) 0.4130(5) 0.4307(9)
C12 C 0.0670(6) 0.4917(7) 0.4537(13)
H9 H 0.0712 0.4646 0.3601
H10 H 0.0420 0.5446 0.4323
H11 H 0.0249 0.4627 0.5090
C13 C 0.3485(7) 0.4108(6) 0.3574(11)
H12 H 0.3702 0.3607 0.3330
C14 C 0.5384(6) 0.7540(5) 0.1190(10)
H13 H 0.5957 0.7828 0.1599
H14 H 0.4914 0.7594 0.1858
H15 H 0.5127 0.7751 0.0209
C15 C 0.6371(7) 0.6536(5) 0.0018(8)
H16 H 0.6469 0.5976 -0.0127
H17 H 0.6967 0.6777 0.0474
H18 H 0.6152 0.6784 -0.0946
C16 C 0.7795(6) 0.6461(5) 0.6967(8)
H19 H 0.7263 0.6775 0.7188
H20 H 0.8154 0.6761 0.6328
H21 H 0.8206 0.6327 0.7898
C17 C 0.8250(6) 0.5193(6) 0.5781(12)
H22 H 0.8572 0.5471 0.5063
H23 H 0.8002 0.4695 0.5350
H24 H 0.8698 0.5092 0.6691
C18 C 0.2210(6) 0.3380(5) 0.4753(10)
H25 H 0.2501 0.2921 0.4366
H26 H 0.1537 0.3398 0.4335
H27 H 0.2281 0.3347 0.5840
Ag1A Ag 0.49826(5) 0.45063(3) 0.16670(5)
N3A N 0.3962(4) 0.5264(4) 0.8183(6)
F1 F 0.4768(8) 0.7149(3) 0.6847(12)
B1 B 0.4581(7) 0.7897(5) 0.6605(11)
F2 F 0.3865(6) 0.8060(6) 0.7369(12)
F3 F 0.5337(6) 0.8350(5) 0.7208(8)
F4 F 0.4355(7) 0.8048(4) 0.5137(8)
loop_
_geom_bond_atom_site_label_1
_geom_bond_atom_site_label_2
_geom_bond_site_symmetry_1
_geom_bond_site_symmetry_2
Ag1 N2 1_555 1_555
C1 N2 1_555 1_555
N1 N2 1_555 1_555
C2 C3 1_555 1_555
C3 H1 1_555 1_555
H2 C3 1_555 1_555
H3 C3 1_555 1_555
N3 C4 1_555 1_555
C4 C2 1_555 1_555
C5 H4 1_555 1_555
C6 N1 1_555 1_555
H5 C6 1_555 1_555
H6 C6 1_555 1_555
C7 C1 1_555 1_555
H7 C7 1_555 1_555
C8 N1 1_555 1_555
C9 C1 1_555 1_555
H8 C9 1_555 1_555
O1 C10 1_555 1_555
C10 C2 1_555 1_555
C11 C10 1_555 1_555
C12 O1 1_555 1_555
H9 C12 1_555 1_555
H10 C12 1_555 1_555
H11 C12 1_555 1_555
C13 N3 1_555 1_555
H12 C13 1_555 1_555
C14 C5 1_555 1_555
H13 C14 1_555 1_555
H14 C14 1_555 1_555
H15 C14 1_555 1_555
C15 C5 1_555 1_555
H16 C15 1_555 1_555
H17 C15 1_555 1_555
H18 C15 1_555 1_555
C16 C9 1_555 1_555
H19 C16 1_555 1_555
H20 C16 1_555 1_555
H21 C16 1_555 1_555
C17 C9 1_555 1_555
H22 C17 1_555 1_555
H23 C17 1_555 1_555
H24 C17 1_555 1_555
C18 C11 1_555 1_555
H25 C18 1_555 1_555
H26 C18 1_555 1_555
H27 C18 1_555 1_555
F1 B1 1_555 1_555
B1 F2 1_555 1_555
F3 B1 1_555 1_555
F4 B1 1_555 1_555
Ag1A N3 1_555 1_555
N3A Ag1 1_555 1_555
C4 C6 1_555 1_555
C5 C8 1_555 1_555
C7 C8 1_555 1_555
C11 C13 1_555 1_555

#END
