
#######################################################################
#
#                 Cambridge Crystallographic Data Centre
#                                CCDC 
#
#######################################################################
#
# If this CIF has been generated from an entry in the Cambridge 
# Structural Database, then it will include bibliographic, chemical, 
# crystal, experimental, refinement or atomic coordinate data resulting 
# from the CCDC's data processing and validation procedures.
#
#######################################################################

data_JOBNIZ
_symmetry_cell_setting           orthorhombic
_symmetry_space_group_name_H-M   'P 21 21 21'
_symmetry_Int_Tables_number      19
_space_group_name_Hall           'P 2ac 2ab'
loop_
_symmetry_equiv_pos_site_id
_symmetry_equiv_pos_as_xyz
1 x,y,z
2 1/2-x,-y,1/2+z
3 -x,1/2+y,1/2-z
4 1/2+x,1/2-y,-z
_cell_length_a                   10.6943(17)
_cell_length_b                   11.6521(19)
_cell_length_c                   12.834(2)
_cell_angle_alpha                90
_cell_angle_beta                 90
_cell_angle_gamma                90
_cell_volume                     1599.26
loop_
_atom_site_label
_atom_site_type_symbol
_atom_site_fract_x
_atom_site_fract_y
_atom_site_fract_z
V1 V 0.16093(4) 0.69844(3) 0.60892(3)
V2 V 0.34979(4) 0.83263(3) 0.43412(3)
Cu1 Cu 0.20315(3) 0.41480(2) 0.73019(2)
O1 O 0.27050(16) 0.79999(15) 0.55405(13)
O2 O 0.35122(18) 0.97313(13) 0.41965(14)
O3 O 0.00580(15) 0.72228(16) 0.55941(18)
O4 O 0.27630(19) 0.77325(16) 0.33710(14)
O5 O 0.1617(2) 0.72185(15) 0.73433(13)
O6 O 0.20356(18) 0.56629(13) 0.58812(15)
N1 N 0.39062(19) 0.42584(17) 0.73563(16)
N2 N 0.5821(2) 0.4070(2) 0.79377(17)
H1 H 0.6451 0.3804 0.8277
N3 N 0.19657(19) 0.31062(15) 0.60573(14)
N4 N 0.2365(2) 0.17145(19) 0.49646(18)
H2 H 0.2708 0.1115 0.4697
N5 N 0.1931(2) 0.51311(17) 0.85964(15)
H3 H 0.2513 0.4901 0.9058
H4 H 0.2089 0.5867 0.8430
N6 N 0.01501(18) 0.42145(16) 0.73936(15)
H5 H -0.0163 0.4432 0.6774
H6 H -0.0148 0.3510 0.7538
C1 C 0.4654(3) 0.3667(2) 0.7973(2)
H7 H 0.4400 0.3049 0.8380
C2 C 0.5838(3) 0.4976(3) 0.7268(2)
H8 H 0.6525 0.5423 0.7088
C3 C 0.4654(3) 0.5095(2) 0.6919(2)
H9 H 0.4383 0.5655 0.6455
C4 C 0.2660(3) 0.2193(2) 0.5873(2)
H10 H 0.3276 0.1919 0.6320
C5 C 0.1423(3) 0.2340(2) 0.4533(2)
H11 H 0.1028 0.2206 0.3899
C6 C 0.1180(3) 0.3195(2) 0.5212(2)
H12 H 0.0574 0.3759 0.5123
C7 C 0.0684(3) 0.5042(2) 0.9069(2)
H13 H 0.0537 0.5690 0.9527
H14 H 0.0624 0.4343 0.9477
C8 C -0.0272(3) 0.5029(2) 0.8209(2)
H15 H -0.1077 0.4791 0.8481
H16 H -0.0360 0.5791 0.7915
V2C V -0.15021(4) 0.66737(3) 0.56588(3)
Cu1A Cu 0.29685(3) 0.58520(2) 0.23019(2)
O3C O 0.50580(15) 0.77772(16) 0.44059(18)
O4A O 0.22370(19) 0.22675(16) 0.83710(14)
loop_
_geom_bond_atom_site_label_1
_geom_bond_atom_site_label_2
_geom_bond_site_symmetry_1
_geom_bond_site_symmetry_2
V1 O1 1_555 1_555
V2 O1 1_555 1_555
Cu1 O6 1_555 1_555
O2 V2 1_555 1_555
O3 V1 1_555 1_555
O4 V2 1_555 1_555
O5 V1 1_555 1_555
O6 V1 1_555 1_555
N1 Cu1 1_555 1_555
N2 H1 1_555 1_555
N3 Cu1 1_555 1_555
N4 H2 1_555 1_555
N5 Cu1 1_555 1_555
H3 N5 1_555 1_555
H4 N5 1_555 1_555
N6 Cu1 1_555 1_555
H5 N6 1_555 1_555
H6 N6 1_555 1_555
C1 N1 1_555 1_555
H7 C1 1_555 1_555
C2 N2 1_555 1_555
H8 C2 1_555 1_555
C3 N1 1_555 1_555
H9 C3 1_555 1_555
C4 N3 1_555 1_555
H10 C4 1_555 1_555
C5 N4 1_555 1_555
H11 C5 1_555 1_555
C6 N3 1_555 1_555
H12 C6 1_555 1_555
C7 N5 1_555 1_555
H13 C7 1_555 1_555
H14 C7 1_555 1_555
C8 N6 1_555 1_555
H15 C8 1_555 1_555
H16 C8 1_555 1_555
V2C O3 1_555 1_555
Cu1A O4 1_555 1_555
O3C V2 1_555 1_555
O4A Cu1 1_555 1_555
N2 C1 1_555 1_555
N4 C4 1_555 1_555
C2 C3 1_555 1_555
C5 C6 1_555 1_555
C7 C8 1_555 1_555

#END
