
#######################################################################
#
#                 Cambridge Crystallographic Data Centre
#                                CCDC 
#
#######################################################################
#
# If this CIF has been generated from an entry in the Cambridge 
# Structural Database, then it will include bibliographic, chemical, 
# crystal, experimental, refinement or atomic coordinate data resulting 
# from the CCDC's data processing and validation procedures.
#
#######################################################################

data_JOBNEV
_symmetry_cell_setting           orthorhombic
_symmetry_space_group_name_H-M   'P 21 21 21'
_symmetry_Int_Tables_number      19
_space_group_name_Hall           'P 2ac 2ab'
loop_
_symmetry_equiv_pos_site_id
_symmetry_equiv_pos_as_xyz
1 x,y,z
2 1/2-x,-y,1/2+z
3 1/2+x,1/2-y,-z
4 -x,1/2+y,1/2-z
_cell_length_a                   10.6820(7)
_cell_length_b                   11.6044(7)
_cell_length_c                   12.6888(8)
_cell_angle_alpha                90
_cell_angle_beta                 90
_cell_angle_gamma                90
_cell_volume                     1572.88
loop_
_atom_site_label
_atom_site_type_symbol
_atom_site_fract_x
_atom_site_fract_y
_atom_site_fract_z
V1 V 0.34047(3) 0.30144(2) 0.388981(19)
V2 V 0.15137(3) 0.16803(2) 0.566233(19)
Cu1 Cu 0.296524(19) 0.583937(17) 0.270179(15)
O1 O 0.22983(11) 0.19930(11) 0.44375(9)
O2 O 0.14992(12) 0.02677(10) 0.58205(9)
O3 O 0.49544(11) 0.27673(11) 0.44048(11)
O4 O 0.22591(12) 0.22831(11) 0.66427(9)
O5 O 0.34070(13) 0.27867(10) 0.26164(9)
O6 O 0.29746(12) 0.43425(10) 0.41062(9)
N1 N 0.10933(13) 0.57281(12) 0.26493(11)
N2 N -0.08213(14) 0.59071(15) 0.20499(11)
H1 H -0.1452 0.6174 0.1706
N3 N 0.30423(14) 0.68865(11) 0.39582(10)
N4 N 0.26657(15) 0.82901(13) 0.50676(12)
H2 H 0.2328 0.8893 0.5341
N5 N 0.30609(14) 0.48689(12) 0.13807(10)
H3 H 0.2908 0.4127 0.1542
H4 H 0.2474 0.5104 0.0919
N6 N 0.48475(13) 0.57769(12) 0.26050(11)
H5 H 0.5144 0.6487 0.2466
H6 H 0.5163 0.5550 0.3229
C1 C 0.03404(16) 0.63240(17) 0.20244(14)
H7 H 0.0590 0.6952 0.1620
C2 C -0.08388(16) 0.49787(17) 0.27199(14)
H8 H -0.1524 0.4521 0.2892
C3 C 0.03534(17) 0.48671(17) 0.30797(13)
H9 H 0.0630 0.4301 0.3543
C4 C 0.23467(16) 0.77997(16) 0.41497(14)
H10 H 0.1717 0.8069 0.3707
C5 C 0.36201(18) 0.76649(16) 0.54898(14)
H11 H 0.4030 0.7806 0.6123
C6 C 0.38550(17) 0.67953(16) 0.48035(13)
H12 H 0.4463 0.6230 0.4887
C7 C 0.43078(17) 0.49698(16) 0.08968(13)
H13 H 0.4364 0.5678 0.0494
H14 H 0.4455 0.4327 0.0425
C8 C 0.52682(17) 0.49711(16) 0.17706(14)
H15 H 0.5356 0.4201 0.2059
H16 H 0.6075 0.5213 0.1498
V2B V 0.65137(3) 0.33197(2) 0.433767(19)
Cu1A Cu 0.203476(19) 0.416063(17) 0.770179(15)
O3B O -0.00456(11) 0.22327(11) 0.55952(11)
O4A O 0.27409(12) 0.77169(11) 0.16427(9)
loop_
_geom_bond_atom_site_label_1
_geom_bond_atom_site_label_2
_geom_bond_site_symmetry_1
_geom_bond_site_symmetry_2
V1 O1 1_555 1_555
V2 O1 1_555 1_555
Cu1 O6 1_555 1_555
O2 V2 1_555 1_555
O3 V1 1_555 1_555
O4 V2 1_555 1_555
O5 V1 1_555 1_555
O6 V1 1_555 1_555
N1 Cu1 1_555 1_555
N2 H1 1_555 1_555
N3 Cu1 1_555 1_555
N4 H2 1_555 1_555
N5 Cu1 1_555 1_555
H3 N5 1_555 1_555
H4 N5 1_555 1_555
N6 Cu1 1_555 1_555
H5 N6 1_555 1_555
H6 N6 1_555 1_555
C1 N1 1_555 1_555
H7 C1 1_555 1_555
C2 N2 1_555 1_555
H8 C2 1_555 1_555
C3 N1 1_555 1_555
H9 C3 1_555 1_555
C4 N3 1_555 1_555
H10 C4 1_555 1_555
C5 N4 1_555 1_555
H11 C5 1_555 1_555
C6 N3 1_555 1_555
H12 C6 1_555 1_555
C7 N5 1_555 1_555
H13 C7 1_555 1_555
H14 C7 1_555 1_555
C8 N6 1_555 1_555
H15 C8 1_555 1_555
H16 C8 1_555 1_555
V2B O3 1_555 1_555
Cu1A O4 1_555 1_555
O3B V2 1_555 1_555
O4A Cu1 1_555 1_555
N2 C1 1_555 1_555
N4 C4 1_555 1_555
C2 C3 1_555 1_555
C5 C6 1_555 1_555
C7 C8 1_555 1_555

#END
