
#######################################################################
#
#                 Cambridge Crystallographic Data Centre
#                                CCDC 
#
#######################################################################
#
# If this CIF has been generated from an entry in the Cambridge 
# Structural Database, then it will include bibliographic, chemical, 
# crystal, experimental, refinement or atomic coordinate data resulting 
# from the CCDC's data processing and validation procedures.
#
#######################################################################

data_JOBNAR
_symmetry_cell_setting           monoclinic
_symmetry_space_group_name_H-M   'P 21/a'
_symmetry_Int_Tables_number      14
_space_group_name_Hall           '-P 2yab'
loop_
_symmetry_equiv_pos_site_id
_symmetry_equiv_pos_as_xyz
1 x,y,z
2 1/2-x,1/2+y,-z
3 -x,-y,-z
4 1/2+x,1/2-y,z
_cell_length_a                   8.059(1)
_cell_length_b                   14.707(1)
_cell_length_c                   12.526(1)
_cell_angle_alpha                90
_cell_angle_beta                 90.093(2)
_cell_angle_gamma                90
_cell_volume                     1484.63
loop_
_atom_site_label
_atom_site_type_symbol
_atom_site_fract_x
_atom_site_fract_y
_atom_site_fract_z
Ag1 Ag 0.33434(4) 0.19632(2) 0.40727(3)
N1 N -0.0067(4) 0.2559(2) 0.2787(2)
C1 C 0.0297(5) 0.1700(3) 0.2515(3)
C2 C 0.1116(6) 0.3090(3) 0.1141(4)
C3 C 0.1039(5) 0.1488(3) 0.1542(3)
N2 N -0.0213(4) 0.1204(2) 0.4388(3)
O1 O 0.2296(5) 0.2005(3) -0.0066(3)
N3 N 0.1143(4) 0.1539(2) 0.4894(3)
C4 C -0.1476(6) 0.1112(3) 0.5069(4)
H1 H -0.2521 0.0879 0.4912
C5 C 0.1436(5) 0.2190(3) 0.0855(3)
C6 C 0.1588(8) 0.3894(4) 0.0449(5)
H2 H 0.0831 0.3939 -0.0141
H3 H 0.2696 0.3812 0.0185
H4 H 0.1537 0.4442 0.0866
C7 C 0.0683(6) 0.1669(3) 0.5889(4)
H5 H 0.1368 0.1899 0.6423
C8 C 0.0354(5) 0.3227(3) 0.2102(3)
H6 H 0.0108 0.3823 0.2296
C9 C -0.0117(6) 0.0938(3) 0.3273(3)
H7 H -0.1174 0.0678 0.3064
H8 H 0.0717 0.0467 0.3202
C10 C -0.0949(7) 0.1420(3) 0.6036(4)
H9 H -0.1561 0.1455 0.6664
C11 C 0.1363(11) 0.2018(5) -0.1027(5)
H10 H 0.1245 0.2633 -0.1270
H11 H 0.0285 0.1762 -0.0900
H12 H 0.1927 0.1666 -0.1561
C12 C 0.1420(7) 0.0520(4) 0.1233(4)
H13 H 0.2274 0.0284 0.1690
H14 H 0.1790 0.0502 0.0505
H15 H 0.0437 0.0156 0.1306
Ag1C Ag -0.16566(4) 0.30368(2) 0.40727(3)
N1C N 0.4933(4) 0.2441(2) 0.2787(2)
F1 F 0.5927(6) -0.0018(3) 0.6586(4)
F2 F 0.3352(5) 0.0321(3) 0.7101(5)
F3 F 0.4737(5) 0.1231(3) 0.5960(4)
B1 B 0.4797(7) 0.0653(4) 0.6811(5)
F4 F 0.5528(9) 0.1067(5) 0.7596(4)
loop_
_geom_bond_atom_site_label_1
_geom_bond_atom_site_label_2
_geom_bond_site_symmetry_1
_geom_bond_site_symmetry_2
Ag1 N3 1_555 1_555
N1 C1 1_555 1_555
C1 C3 1_555 1_555
C2 C5 1_555 1_555
C3 C5 1_555 1_555
N2 N3 1_555 1_555
O1 C5 1_555 1_555
N3 C7 1_555 1_555
C4 N2 1_555 1_555
H1 C4 1_555 1_555
C6 C2 1_555 1_555
H2 C6 1_555 1_555
H3 C6 1_555 1_555
H4 C6 1_555 1_555
C7 H5 1_555 1_555
C8 N1 1_555 1_555
H6 C8 1_555 1_555
C9 C1 1_555 1_555
H7 C9 1_555 1_555
H8 C9 1_555 1_555
C10 C4 1_555 1_555
H9 C10 1_555 1_555
C11 O1 1_555 1_555
H10 C11 1_555 1_555
H11 C11 1_555 1_555
H12 C11 1_555 1_555
C12 C3 1_555 1_555
H13 C12 1_555 1_555
H14 C12 1_555 1_555
H15 C12 1_555 1_555
F1 B1 1_555 1_555
F2 B1 1_555 1_555
F3 B1 1_555 1_555
B1 F4 1_555 1_555
Ag1C N1 1_555 1_555
N1C Ag1 1_555 1_555
C2 C8 1_555 1_555
N2 C9 1_555 1_555
C7 C10 1_555 1_555

#END
