
#######################################################################
#
#                 Cambridge Crystallographic Data Centre
#                                CCDC 
#
#######################################################################
#
# If this CIF has been generated from an entry in the Cambridge 
# Structural Database, then it will include bibliographic, chemical, 
# crystal, experimental, refinement or atomic coordinate data resulting 
# from the CCDC's data processing and validation procedures.
#
#######################################################################

data_JOBTOK
_symmetry_cell_setting           triclinic
_symmetry_space_group_name_H-M   'P -1'
_symmetry_Int_Tables_number      2
_space_group_name_Hall           '-P 1'
loop_
_symmetry_equiv_pos_site_id
_symmetry_equiv_pos_as_xyz
1 x,y,z
2 -x,-y,-z
_cell_length_a                   7.4812(3)
_cell_length_b                   8.4178(3)
_cell_length_c                   11.3976(4)
_cell_angle_alpha                80.286(3)
_cell_angle_beta                 73.181(3)
_cell_angle_gamma                67.702(4)
_cell_volume                     634.277
loop_
_atom_site_label
_atom_site_type_symbol
_atom_site_fract_x
_atom_site_fract_y
_atom_site_fract_z
C1 C 0.5345(5) 1.0590(5) 0.7368(3)
C2 C 0.4187(6) 0.7762(5) 0.8712(3)
C3 C 0.5085(5) 1.0335(4) 0.8747(3)
C4 C 0.4674(5) 0.8888(4) 0.9377(3)
C5 C 0.5393(6) 1.1439(5) 0.9378(3)
C6 C 0.0213(5) 0.9234(4) 0.4673(3)
C7 C 0.1750(6) 0.6367(5) 0.4479(4)
C8 C -0.0166(6) 0.8127(5) 0.3115(3)
C9 C 0.1000(7) 0.6516(5) 0.3484(4)
Co1 Co 0.22311(8) 0.78157(6) 0.67159(4)
N1 N 0.1359(4) 0.7732(4) 0.5087(2)
N2 N -0.0559(4) 0.9509(4) 0.3713(2)
O1 O 0.2898(4) 0.8552(3) 0.8110(2)
O2 O 0.5054(5) 0.6181(4) 0.8803(3)
O3 O 0.6593(4) 0.9335(3) 0.6755(2)
O4 O 0.4367(4) 1.1983(3) 0.6906(2)
O5 O 0.4967(4) 0.7864(4) 0.5577(3)
O6 O -0.0352(5) 0.7478(6) 0.7732(4)
O7 O 0.3706(5) 0.5261(4) 0.7210(3)
H1 H 0.570(6) 1.235(5) 0.897(3)
H2 H 0.244(7) 0.536(6) 0.474(4)
H3 H -0.069(6) 0.836(5) 0.235(4)
H4 H 0.130(6) 0.559(6) 0.307(4)
H5 H 0.506(8) 0.815(7) 0.488(5)
H6 H 0.554(8) 0.835(7) 0.582(5)
H7 H -0.137(8) 0.799(6) 0.744(4)
H8 H 0.387(7) 0.433(7) 0.716(4)
H9 H 0.411(9) 0.530(8) 0.771(5)
H10 H -0.038(8) 0.685(7) 0.808(5)
C1A C 0.4655(5) 0.9410(5) 1.2632(3)
C2A C 0.5813(6) 1.2238(5) 1.1288(3)
C3A C 0.4915(5) 0.9665(4) 1.1253(3)
C4A C 0.5326(5) 1.1112(4) 1.0623(3)
C5A C 0.4607(6) 0.8561(5) 1.0622(3)
C6A C -0.0213(5) 1.0766(4) 0.5327(3)
C7A C -0.1750(6) 1.3633(5) 0.5521(4)
C8A C 0.0166(6) 1.1873(5) 0.6885(3)
C9A C -0.1000(7) 1.3484(5) 0.6516(4)
Co1A Co -0.22311(8) 1.21843(6) 0.32841(4)
Co1A_2 Co 0.77689(8) 1.21843(6) 1.32841(4)
N1A N -0.1359(4) 1.2268(4) 0.4913(2)
N2A N 0.0559(4) 1.0491(4) 0.6287(2)
O1A O 0.7102(4) 1.1448(3) 1.1890(2)
O1A_2 O -0.2898(4) 1.1448(3) 0.1890(2)
O2A O 0.4946(5) 1.3819(4) 1.1197(3)
O3A O 0.3407(4) 1.0665(3) 1.3245(2)
O4A O 0.5633(4) 0.8017(3) 1.3094(2)
O5A O -0.4967(4) 1.2136(4) 0.4423(3)
O6A O 0.0352(5) 1.2522(6) 0.2268(4)
O7A O -0.3706(5) 1.4739(4) 0.2790(3)
H1A H 0.430(6) 0.765(5) 1.103(3)
H2A H -0.244(7) 1.464(6) 0.526(4)
H3A H 0.069(6) 1.164(5) 0.765(4)
H4A H -0.130(6) 1.441(6) 0.693(4)
H5A H -0.506(8) 1.185(7) 0.512(5)
H6A H -0.554(8) 1.165(7) 0.418(5)
H7A H 0.137(8) 1.201(6) 0.256(4)
H8A H -0.387(7) 1.567(7) 0.284(4)
H9A H -0.411(9) 1.470(8) 0.229(5)
H10A H 0.038(8) 1.315(7) 0.192(5)
O8 O 0.8894(6) 0.4737(5) 0.9211(3)
O9 O 1.0151(19) 0.1365(15) 0.9711(10)
loop_
_geom_bond_atom_site_label_1
_geom_bond_atom_site_label_2
_geom_bond_site_symmetry_1
_geom_bond_site_symmetry_2
C1 C3 1_555 1_555
C2 C4 1_555 1_555
C3 C4 1_555 1_555
C4 C5A 1_555 1_555
C5 C3 1_555 1_555
C6 N1 1_555 1_555
C7 C9 1_555 1_555
C8 C9 1_555 1_555
C9 H4 1_555 1_555
Co1 N1 1_555 1_555
N1 C7 1_555 1_555
N2 C6 1_555 1_555
O1 C2 1_555 1_555
O2 C2 1_555 1_555
O3 C1 1_555 1_555
O4 C1 1_555 1_555
O5 Co1 1_555 1_555
O6 Co1 1_555 1_555
O7 Co1 1_555 1_555
H1 C5 1_555 1_555
H2 C7 1_555 1_555
H3 C8 1_555 1_555
H5 O5 1_555 1_555
H6 O5 1_555 1_555
H7 O6 1_555 1_555
H8 O7 1_555 1_555
H9 O7 1_555 1_555
H10 O6 1_555 1_555
C1A C3A 1_555 1_555
C2A C4A 1_555 1_555
C3A C4A 1_555 1_555
C4A C5 1_555 1_555
C5A C3A 1_555 1_555
C6A C6 1_555 1_555
C7A C9A 1_555 1_555
C8A C9A 1_555 1_555
C9A H4A 1_555 1_555
Co1A N2 1_555 1_555
Co1A_2 O1A 1_555 1_555
N1A C6A 1_555 1_555
N2A Co1 1_555 1_555
O1A C2A 1_555 1_555
O1A_2 Co1A 1_555 1_555
O2A C2A 1_555 1_555
O3A C1A 1_555 1_555
O4A C1A 1_555 1_555
O5A Co1A 1_555 1_555
O6A Co1A 1_555 1_555
O7A Co1A 1_555 1_555
H1A C5A 1_555 1_555
H2A C7A 1_555 1_555
H3A C8A 1_555 1_555
H5A O5A 1_555 1_555
H6A O5A 1_555 1_555
H7A O6A 1_555 1_555
H8A O7A 1_555 1_555
H9A O7A 1_555 1_555
H10A O6A 1_555 1_555
C8 N2 1_555 1_555
Co1 O1 1_555 1_555
C6A N2A 1_555 1_555
C7A N1A 1_555 1_555
C8A N2A 1_555 1_555
Co1A N1A 1_555 1_555

#END
