
#######################################################################
#
#                 Cambridge Crystallographic Data Centre
#                                CCDC 
#
#######################################################################
#
# If this CIF has been generated from an entry in the Cambridge 
# Structural Database, then it will include bibliographic, chemical, 
# crystal, experimental, refinement or atomic coordinate data resulting 
# from the CCDC's data processing and validation procedures.
#
#######################################################################

data_JOBTUQ
_symmetry_cell_setting           monoclinic
_symmetry_space_group_name_H-M   'C 2/m'
_symmetry_Int_Tables_number      12
_space_group_name_Hall           '-C 2y'
loop_
_symmetry_equiv_pos_site_id
_symmetry_equiv_pos_as_xyz
1 x,y,z
2 1/2+x,1/2+y,z
3 -x,y,-z
4 1/2-x,1/2+y,-z
5 -x,-y,-z
6 1/2-x,1/2-y,-z
7 x,-y,z
8 1/2+x,1/2-y,z
_cell_length_a                   10.265(5)
_cell_length_b                   13.915(5)
_cell_length_c                   13.202(5)
_cell_angle_alpha                90
_cell_angle_beta                 103.104(5)
_cell_angle_gamma                90
_cell_volume                     1836.64
loop_
_atom_site_label
_atom_site_type_symbol
_atom_site_fract_x
_atom_site_fract_y
_atom_site_fract_z
Co1 Co 0.16517(4) 0.20427(3) 0.29323(3)
C1 C 0.3718(5) 0.0000 0.5319(4)
C2 C 0.3295(3) 0.0846(2) 0.4812(3)
C3 C 0.2008(4) 0.0000 0.3479(3)
C4 C 0.0944(4) 0.0000 0.2508(4)
C5 C -0.0522(3) 0.0850(2) 0.1274(3)
C6 C -0.1061(5) 0.0000 0.0832(4)
C7 C 0.4139(3) 0.31947(19) 0.3960(2)
C8 C 0.4565(3) 0.4131(2) 0.4510(2)
C9 C 0.4116(4) 0.5000 0.4040(4)
C10 C 0.0862(3) 0.3208(2) 0.1032(3)
C11 C 0.0345(3) 0.4138(2) 0.0523(2)
C12 C 0.0665(4) 0.5000 0.1039(4)
N1 N 0.0486(3) 0.08494(18) 0.2126(2)
N2 N 0.2428(2) 0.08511(18) 0.3886(2)
O1 O 0.2909(2) 0.30195(16) 0.37841(18)
O2 O 0.0736(2) 0.30796(16) 0.19627(17)
O3 O 0.5016(2) 0.26673(13) 0.37326(17)
O4 O 0.2983(3) 0.16033(18) 0.1991(2)
O5 O 0.1411(3) 0.26530(18) 0.0540(2)
H1 H -0.182(5) 0.0000 0.017(4)
H2 H 0.359(3) 0.140(2) 0.511(2)
H3 H 0.111(5) 0.5000 0.175(4)
H4 H 0.356(5) 0.5000 0.344(4)
H5 H -0.085(3) 0.141(3) 0.103(3)
H6 H 0.437(5) 0.0000 0.607(4)
H7 H 0.269(5) 0.190(4) 0.146(4)
H8 H 0.379(5) 0.169(3) 0.211(3)
Co1F Co 0.16517(4) -0.20427(3) 0.29323(3)
Co1B Co 0.83483(4) 0.20427(3) 0.70677(3)
Co1D Co 0.83483(4) 0.79573(3) 0.70677(3)
Co1G Co 0.66517(4) 0.29573(3) 0.29323(3)
Co1E Co 0.33483(4) 0.29573(3) 0.70677(3)
Co1C Co 0.33483(4) 0.70427(3) 0.70677(3)
Co1F_2 Co 0.16517(4) 0.79573(3) 0.29323(3)
Co1A Co 0.66517(4) 0.70427(3) 0.29323(3)
Co1B_2 Co -0.16517(4) 0.20427(3) -0.29323(3)
Co1D_2 Co -0.16517(4) 0.79573(3) -0.29323(3)
Co1D_3 Co 0.83483(4) -0.20427(3) 0.70677(3)
C1D C 0.6282(5) 0.0000 0.4681(4)
C2F C 0.3295(3) -0.0846(2) 0.4812(3)
C2B C 0.6705(3) 0.0846(2) 0.5188(3)
C2D C 0.6705(3) -0.0846(2) 0.5188(3)
C3D C 0.7992(4) 0.0000 0.6521(3)
C4D C 0.9056(4) 0.0000 0.7492(4)
C5F C -0.0522(3) -0.0850(2) 0.1274(3)
C5B C 1.0522(3) 0.0850(2) 0.8726(3)
C5D C 1.0522(3) -0.0850(2) 0.8726(3)
C6D C 1.1061(5) 0.0000 0.9168(4)
C7B C 0.5861(3) 0.31947(19) 0.6040(2)
C7D C 0.5861(3) 0.68053(19) 0.6040(2)
C7F C 0.4139(3) 0.68053(19) 0.3960(2)
C8B C 0.5435(3) 0.4131(2) 0.5490(2)
C8D C 0.5435(3) 0.5869(2) 0.5490(2)
C8F C 0.4565(3) 0.5869(2) 0.4510(2)
C9D C 0.5884(4) 0.5000 0.5960(4)
C10B C -0.0862(3) 0.3208(2) -0.1032(3)
C10D C -0.0862(3) 0.6792(2) -0.1032(3)
C10F C 0.0862(3) 0.6792(2) 0.1032(3)
C11B C -0.0345(3) 0.4138(2) -0.0523(2)
C11D C -0.0345(3) 0.5862(2) -0.0523(2)
C11F C 0.0345(3) 0.5862(2) 0.0523(2)
C12D C -0.0665(4) 0.5000 -0.1039(4)
N1F N 0.0486(3) -0.08494(18) 0.2126(2)
N1B N 0.9514(3) 0.08494(18) 0.7874(2)
N1D N 0.9514(3) -0.08494(18) 0.7874(2)
N1D_2 N 0.9514(3) 0.91506(18) 0.7874(2)
N2F N 0.2428(2) -0.08511(18) 0.3886(2)
N2B N 0.7572(2) 0.08511(18) 0.6114(2)
N2D N 0.7572(2) -0.08511(18) 0.6114(2)
N2D_2 N 0.7572(2) 0.91489(18) 0.6114(2)
O1B O 0.7091(2) 0.30195(16) 0.62159(18)
O1D O 0.7091(2) 0.69805(16) 0.62159(18)
O1F O 0.2909(2) 0.69805(16) 0.37841(18)
O1F_2 O 0.2909(2) -0.30195(16) 0.37841(18)
O2B O -0.0736(2) 0.30796(16) -0.19627(17)
O2D O -0.0736(2) 0.69204(16) -0.19627(17)
O2F O 0.0736(2) 0.69204(16) 0.19627(17)
O2F_2 O 0.0736(2) -0.30796(16) 0.19627(17)
O2B_2 O 0.9264(2) 0.30796(16) 0.80373(17)
O2D_2 O 0.9264(2) 0.69204(16) 0.80373(17)
O3B O 0.4984(2) 0.26673(13) 0.62674(17)
O3D O 0.4984(2) 0.73327(13) 0.62674(17)
O3F O 0.5016(2) 0.73327(13) 0.37326(17)
O3G O 0.0016(2) 0.23327(13) 0.37326(17)
O3A O 0.0016(2) -0.23327(13) 0.37326(17)
O3E O 0.9984(2) 0.23327(13) 0.62674(17)
O3C O 0.9984(2) 0.76673(13) 0.62674(17)
O4F O 0.2983(3) -0.16033(18) 0.1991(2)
O4B O 0.7017(3) 0.16033(18) 0.8009(2)
O4D O 0.7017(3) 0.83967(18) 0.8009(2)
O5B O -0.1411(3) 0.26530(18) -0.0540(2)
O5D O -0.1411(3) 0.73470(18) -0.0540(2)
O5F O 0.1411(3) 0.73470(18) 0.0540(2)
H1D H 1.182(5) 0.0000 0.983(4)
H2F H 0.359(3) -0.140(2) 0.511(2)
H2B H 0.641(3) 0.140(2) 0.489(2)
H2D H 0.641(3) -0.140(2) 0.489(2)
H3D H -0.111(5) 0.5000 -0.175(4)
H4D H 0.644(5) 0.5000 0.656(4)
H5F H -0.085(3) -0.141(3) 0.103(3)
H5B H 1.085(3) 0.141(3) 0.897(3)
H5D H 1.085(3) -0.141(3) 0.897(3)
H6D H 0.563(5) 0.0000 0.393(4)
H7F H 0.269(5) -0.190(4) 0.146(4)
H7B H 0.731(5) 0.190(4) 0.854(4)
H7D H 0.731(5) 0.810(4) 0.854(4)
H8F H 0.379(5) -0.169(3) 0.211(3)
H8B H 0.621(5) 0.169(3) 0.789(3)
H8D H 0.621(5) 0.831(3) 0.789(3)
loop_
_geom_bond_atom_site_label_1
_geom_bond_atom_site_label_2
_geom_bond_site_symmetry_1
_geom_bond_site_symmetry_2
Co1 N1 1_555 1_555
C1 C2 1_555 1_555
C2 N2 1_555 1_555
C3 C4 1_555 1_555
C4 N1 1_555 1_555
C5 C6 1_555 1_555
C6 H1 1_555 1_555
C7 C8 1_555 1_555
C8 C9 1_555 1_555
C9 H4 1_555 1_555
C10 C11 1_555 1_555
C11 C12 1_555 1_555
C12 H3 1_555 1_555
N1 C5 1_555 1_555
N2 Co1 1_555 1_555
O1 Co1 1_555 1_555
O2 Co1 1_555 1_555
O3 C7 1_555 1_555
O4 Co1 1_555 1_555
O5 C10 1_555 1_555
H2 C2 1_555 1_555
H5 C5 1_555 1_555
H6 C1 1_555 1_555
H7 O4 1_555 1_555
H8 O4 1_555 1_555
Co1F N1F 1_555 1_555
Co1B N1B 1_555 1_555
Co1D N1D_2 1_555 1_555
Co1G O3 1_555 1_555
Co1E O3B 1_555 1_555
Co1C O3D 1_555 1_555
Co1F_2 O1F 1_555 1_555
Co1A O3F 1_555 1_555
Co1B_2 O2B 1_555 1_555
Co1D_2 O2D 1_555 1_555
Co1D_3 N1D 1_555 1_555
C1D C2B 1_555 1_555
C2F C1 1_555 1_555
C2B N2B 1_555 1_555
C2D C1D 1_555 1_555
C3D C4D 1_555 1_555
C4D N1B 1_555 1_555
C5F C6 1_555 1_555
C5B C6D 1_555 1_555
C5D C6D 1_555 1_555
C6D H1D 1_555 1_555
C7B C8B 1_555 1_555
C7D C8D 1_555 1_555
C7F C8F 1_555 1_555
C8B C8 1_555 1_555
C8D C8F 1_555 1_555
C8F C9 1_555 1_555
C9D C8B 1_555 1_555
C10B C11B 1_555 1_555
C10D C11D 1_555 1_555
C10F C11F 1_555 1_555
C11B C11 1_555 1_555
C11D C11F 1_555 1_555
C11F C12 1_555 1_555
C12D C11B 1_555 1_555
N1F C4 1_555 1_555
N1B C5B 1_555 1_555
N1D C4D 1_555 1_555
N2F C3 1_555 1_555
N2B Co1B 1_555 1_555
N2D Co1D_3 1_555 1_555
N2D_2 Co1D 1_555 1_555
O1B Co1B 1_555 1_555
O1D Co1D 1_555 1_555
O1F C7F 1_555 1_555
O1F_2 Co1F 1_555 1_555
O2B C10B 1_555 1_555
O2D C10D 1_555 1_555
O2F Co1F_2 1_555 1_555
O2F_2 Co1F 1_555 1_555
O2B_2 Co1B 1_555 1_555
O2D_2 Co1D 1_555 1_555
O3B C7B 1_555 1_555
O3D C7D 1_555 1_555
O3F C7F 1_555 1_555
O3G Co1 1_555 1_555
O3A Co1F 1_555 1_555
O3E Co1B 1_555 1_555
O3C Co1D 1_555 1_555
O4F Co1F 1_555 1_555
O4B Co1B 1_555 1_555
O4D Co1D 1_555 1_555
O5B C10B 1_555 1_555
O5D C10D 1_555 1_555
O5F C10F 1_555 1_555
H2F C2F 1_555 1_555
H2B C2B 1_555 1_555
H2D C2D 1_555 1_555
H3D C12D 1_555 1_555
H4D C9D 1_555 1_555
H5F C5F 1_555 1_555
H5B C5B 1_555 1_555
H5D C5D 1_555 1_555
H6D C1D 1_555 1_555
H7F O4F 1_555 1_555
H7B O4B 1_555 1_555
H7D O4D 1_555 1_555
H8F O4F 1_555 1_555
H8B O4B 1_555 1_555
H8D O4D 1_555 1_555
C3 N2 1_555 1_555
C7 O1 1_555 1_555
C10 O2 1_555 1_555
Co1F N2F 1_555 1_555
C2F N2F 1_555 1_555
C2D N2D 1_555 1_555
C3D N2B 1_555 1_555
C3D N2D 1_555 1_555
C5F N1F 1_555 1_555
C5D N1D 1_555 1_555
C7B O1B 1_555 1_555
C7D O1D 1_555 1_555
C8D C9D 1_555 1_555
C10F O2F 1_555 1_555
C11D C12D 1_555 1_555

#END
