
#######################################################################
#
#                 Cambridge Crystallographic Data Centre
#                                CCDC 
#
#######################################################################
#
# If this CIF has been generated from an entry in the Cambridge 
# Structural Database, then it will include bibliographic, chemical, 
# crystal, experimental, refinement or atomic coordinate data resulting 
# from the CCDC's data processing and validation procedures.
#
#######################################################################

data_JOBWUS
_symmetry_cell_setting           monoclinic
_symmetry_space_group_name_H-M   'P 21/c'
_symmetry_Int_Tables_number      14
_space_group_name_Hall           '-P 2ybc'
loop_
_symmetry_equiv_pos_site_id
_symmetry_equiv_pos_as_xyz
1 x,y,z
2 x,1/2-y,1/2+z
3 -x,-y,-z
4 -x,1/2+y,1/2-z
_cell_length_a                   9.4946(5)
_cell_length_b                   15.8010(8)
_cell_length_c                   10.3381(5)
_cell_angle_alpha                90
_cell_angle_beta                 92.242(2)
_cell_angle_gamma                90
_cell_volume                     1549.78
loop_
_atom_site_label
_atom_site_type_symbol
_atom_site_fract_x
_atom_site_fract_y
_atom_site_fract_z
Ag1 Ag 0.45679(6) 0.23539(3) 0.60789(6)
S1 S 0.67914(19) 0.34259(9) 0.4056(2)
N1 N 0.2796(5) 0.2381(3) 0.4428(6)
C1 C 0.2299(6) 0.3083(3) 0.3845(7)
H1 H 0.2763 0.3603 0.4036
O1 O 0.6978(6) 0.2714(2) 0.4912(5)
F1 F 0.9171(5) 0.4021(3) 0.5036(6)
N2 N 0.3618(5) 0.1007(3) 0.5816(6)
O2 O 0.5385(5) 0.3765(3) 0.4035(6)
C2 C 0.1171(6) 0.3093(3) 0.2998(7)
F2 F 0.7339(6) 0.4461(3) 0.5994(5)
O3 O 0.7400(6) 0.3361(3) 0.2817(6)
N3 N 0.0508(6) 0.4543(3) 0.2016(7)
F3 F 0.7828(6) 0.4958(2) 0.4142(6)
C3 C 0.0463(7) 0.2339(4) 0.2683(8)
H2 H -0.0333 0.2327 0.2096
C4 C 0.0992(7) 0.1600(3) 0.3281(8)
H3 H 0.0553 0.1070 0.3105
N4 N 0.4853(6) -0.1684(3) 0.7521(6)
C5 C 0.2138(6) 0.1645(3) 0.4115(7)
C6 C 0.2753(7) 0.0873(3) 0.4792(7)
C7 C 0.2390(6) 0.0063(3) 0.4317(7)
H4 H 0.1817 -0.0010 0.3551
C8 C 0.2916(7) -0.0632(3) 0.5032(7)
H5 H 0.2692 -0.1194 0.4770
C9 C 0.3756(6) -0.0485(3) 0.6111(7)
C10 C 0.4098(7) 0.0340(3) 0.6490(7)
H6 H 0.4684 0.0428 0.7244
C11 C 0.0746(7) 0.3891(3) 0.2442(8)
C12 C 0.4363(7) -0.1167(3) 0.6920(7)
C13 C 0.7818(9) 0.4255(4) 0.4852(9)
N4C N 0.5147(6) 0.3316(3) 0.7479(6)
Ag1C Ag 0.54321(6) -0.26461(3) 0.89211(6)
loop_
_geom_bond_atom_site_label_1
_geom_bond_atom_site_label_2
_geom_bond_site_symmetry_1
_geom_bond_site_symmetry_2
Ag1 N1 1_555 1_555
S1 O1 1_555 1_555
N1 C1 1_555 1_555
C1 H1 1_555 1_555
O1 Ag1 1_555 1_555
F1 C13 1_555 1_555
N2 Ag1 1_555 1_555
O2 S1 1_555 1_555
C2 C1 1_555 1_555
F2 C13 1_555 1_555
O3 S1 1_555 1_555
N3 C11 1_555 1_555
F3 C13 1_555 1_555
C3 C2 1_555 1_555
H2 C3 1_555 1_555
C4 C3 1_555 1_555
H3 C4 1_555 1_555
N4 C12 1_555 1_555
C5 N1 1_555 1_555
C6 N2 1_555 1_555
C7 C6 1_555 1_555
H4 C7 1_555 1_555
C8 C7 1_555 1_555
H5 C8 1_555 1_555
C9 C8 1_555 1_555
C10 N2 1_555 1_555
H6 C10 1_555 1_555
C11 C2 1_555 1_555
C12 C9 1_555 1_555
C13 S1 1_555 1_555
N4C Ag1 1_555 1_555
Ag1C N4 1_555 1_555
C4 C5 1_555 1_555
C5 C6 1_555 1_555
C9 C10 1_555 1_555

#END
