
#######################################################################
#
#                 Cambridge Crystallographic Data Centre
#                                CCDC 
#
#######################################################################
#
# If this CIF has been generated from an entry in the Cambridge 
# Structural Database, then it will include bibliographic, chemical, 
# crystal, experimental, refinement or atomic coordinate data resulting 
# from the CCDC's data processing and validation procedures.
#
#######################################################################

data_JOBXAZ
_symmetry_cell_setting           hexagonal
_symmetry_space_group_name_H-M   'P 63/m'
_symmetry_Int_Tables_number      176
_space_group_name_Hall           '-P 6c'
loop_
_symmetry_equiv_pos_site_id
_symmetry_equiv_pos_as_xyz
1 x,y,z
2 -y,x-y,z
3 -x+y,-x,z
4 y,-x+y,1/2+z
5 x-y,x,1/2+z
6 x,y,1/2-z
7 -x,-y,-z
8 y,-x+y,-z
9 x-y,x,-z
10 -y,x-y,1/2-z
11 -x+y,-x,1/2-z
12 -x,-y,1/2+z
_cell_length_a                   17.8017(3)
_cell_length_b                   17.8017(3)
_cell_length_c                   19.61420(10)
_cell_angle_alpha                90
_cell_angle_beta                 90
_cell_angle_gamma                120
_cell_volume                     5383
loop_
_atom_site_label
_atom_site_type_symbol
_atom_site_fract_x
_atom_site_fract_y
_atom_site_fract_z
Ag1 Ag -0.19968(3) -0.33525(3) -0.38953(4)
N1 N -0.2601(4) -0.2446(4) -0.4096(3)
N2 N -0.3514(4) -0.4193(4) -0.4249(4)
N3 N -0.1542(5) 0.0614(5) -0.4167(5)
N4 N -0.5640(6) -0.7198(5) -0.3989(5)
C1 C -0.2118(5) -0.1585(5) -0.4068(4)
H1 H -0.1517 -0.1325 -0.3968
C2 C -0.2477(5) -0.1055(5) -0.4182(4)
C3 C -0.3347(5) -0.1425(5) -0.4329(5)
H2 H -0.3595 -0.1071 -0.4423
C4 C -0.3852(4) -0.2321(4) -0.4338(4)
H3 H -0.4456 -0.2595 -0.4427
C5 C -0.3454(4) -0.2808(4) -0.4212(4)
C6 C -0.3967(4) -0.3776(4) -0.4178(4)
C7 C -0.4851(5) -0.4199(4) -0.4076(4)
H4 H -0.5152 -0.3884 -0.4050
C8 C -0.5305(5) -0.5125(5) -0.4009(4)
H5 H -0.5908 -0.5438 -0.3908
C9 C -0.4845(6) -0.5544(5) -0.4095(4)
C10 C -0.3947(5) -0.5058(5) -0.4202(5)
H6 H -0.3632 -0.5357 -0.4244
C11 C -0.1936(5) -0.0121(5) -0.4159(5)
C12 C -0.5266(6) -0.6456(5) -0.4030(5)
Ag1B Ag -0.13557(4) 0.19968(3) -0.38953(4)
Ag1A Ag -0.66475(3) -0.86443(4) -0.38953(4)
N3A N -0.0614(5) -0.2156(7) -0.4167(5)
N4B N -0.1558(8) -0.4360(6) -0.3989(5)
C13 C -0.1380(14) 0.3055(15) -0.2500
C14 C -0.0481(14) 0.3677(11) -0.2500
H7 H -0.0301 0.4278 -0.2500
C15 C 0.0129(14) 0.3425(15) -0.2500
H8 H 0.0724 0.3860 -0.2500
C16 C -0.0068(16) 0.2619(16) -0.2500
H9 H 0.0367 0.2459 -0.2500
C17 C -0.0953(15) 0.1993(14) -0.2500
H10 H -0.1113 0.1397 -0.2500
C18 C -0.1582(11) 0.2197(12) -0.2500
H11 H -0.2172 0.1749 -0.2500
C19 C -0.207(2) 0.335(2) -0.2500
H12 H -0.1774 0.3987 -0.2498
H13 H -0.2434 0.3125 -0.2093
H14 H -0.2430 0.3130 -0.2909
P1 P -0.3333 0.3333 -0.5326(3)
F1 F -0.2629(5) 0.4107(5) -0.4921(5)
F2 F -0.3410(7) 0.4013(7) -0.5786(7)
F1A F -0.4107(5) 0.3264(7) -0.4921(5)
F1B F -0.3264(7) 0.2629(5) -0.4921(5)
F2A F -0.4013(7) 0.2577(10) -0.5786(7)
F2B F -0.2577(10) 0.3410(7) -0.5786(7)
P2 P 0.3050(3) 0.3720(3) -0.2500
F3 F 0.2028(6) 0.3206(9) -0.2500
F4 F 0.3019(6) 0.4350(6) -0.3065(4)
F5 F 0.4088(6) 0.4268(10) -0.2500
F6 F 0.3088(6) 0.3147(7) -0.3088(5)
F4E F 0.3019(6) 0.4350(6) -0.1935(4)
F6E F 0.3088(6) 0.3147(7) -0.1912(5)
P3? P 1.0000 0.0000 0.7500
F7? F 1.0000 0.0000 0.6785(14)
F8? F 0.928(6) -0.096(4) 0.7500
F9? F 1.052(6) -0.044(10) 0.7500
F10? F 0.995(6) -0.081(4) 0.7500
loop_
_geom_bond_atom_site_label_1
_geom_bond_atom_site_label_2
_geom_bond_site_symmetry_1
_geom_bond_site_symmetry_2
Ag1 N1 1_555 1_555
N1 C1 1_555 1_555
N2 Ag1 1_555 1_555
N3 C11 1_555 1_555
N4 C12 1_555 1_555
C1 H1 1_555 1_555
C2 C1 1_555 1_555
C3 C2 1_555 1_555
H2 C3 1_555 1_555
C4 C3 1_555 1_555
H3 C4 1_555 1_555
C5 N1 1_555 1_555
C6 N2 1_555 1_555
C7 C6 1_555 1_555
H4 C7 1_555 1_555
C8 C7 1_555 1_555
H5 C8 1_555 1_555
C9 C8 1_555 1_555
C10 N2 1_555 1_555
H6 C10 1_555 1_555
C11 C2 1_555 1_555
C12 C9 1_555 1_555
C13 C14 1_555 1_555
C14 H7 1_555 1_555
C15 C14 1_555 1_555
H8 C15 1_555 1_555
C16 C15 1_555 1_555
H9 C16 1_555 1_555
C17 C16 1_555 1_555
H10 C17 1_555 1_555
C18 C13 1_555 1_555
H11 C18 1_555 1_555
C19 C13 1_555 1_555
H12 C19 1_555 1_555
H13 C19 1_555 1_555
H14 C19 1_555 1_555
P1 F1 1_555 1_555
F2 P1 1_555 1_555
P2 F3 1_555 1_555
F4 P2 1_555 1_555
F5 P2 1_555 1_555
F6 P2 1_555 1_555
Ag1B N3 1_555 1_555
Ag1A N4 1_555 1_555
N3A Ag1 1_555 1_555
N4B Ag1 1_555 1_555
F1A P1 1_555 1_555
F1B P1 1_555 1_555
F2A P1 1_555 1_555
F2B P1 1_555 1_555
F4E P2 1_555 1_555
F6E P2 1_555 1_555
C4 C5 1_555 1_555
C5 C6 1_555 1_555
C9 C10 1_555 1_555
C17 C18 1_555 1_555

#END
