
#######################################################################
#
#                 Cambridge Crystallographic Data Centre
#                                CCDC 
#
#######################################################################
#
# If this CIF has been generated from an entry in the Cambridge 
# Structural Database, then it will include bibliographic, chemical, 
# crystal, experimental, refinement or atomic coordinate data resulting 
# from the CCDC's data processing and validation procedures.
#
#######################################################################

data_JOBXAA
_symmetry_cell_setting           monoclinic
_symmetry_space_group_name_H-M   'P 21/c'
_symmetry_Int_Tables_number      14
_space_group_name_Hall           '-P 2ybc'
loop_
_symmetry_equiv_pos_site_id
_symmetry_equiv_pos_as_xyz
1 x,y,z
2 -x,1/2+y,1/2-z
3 -x,-y,-z
4 x,1/2-y,1/2+z
_cell_length_a                   12.5170(2)
_cell_length_b                   7.50000(10)
_cell_length_c                   13.4070(3)
_cell_angle_alpha                90
_cell_angle_beta                 101.7750(10)
_cell_angle_gamma                90
_cell_volume                     1232.13
loop_
_atom_site_label
_atom_site_type_symbol
_atom_site_fract_x
_atom_site_fract_y
_atom_site_fract_z
Pt1 Pt 0.00000 0.00000 0.00000
Tl1 Tl 0.00231(2) -0.14388(3) -0.366930(17)
N1 N 0.0220(5) -0.2764(8) -0.1698(4)
C1 C 0.0146(5) -0.1735(9) -0.1084(5)
C2 C 0.1685(6) 0.0352(8) 0.0346(5)
C3 C 0.2291(6) 0.0195(8) 0.1323(5)
C4 C 0.3401(6) 0.0566(9) 0.1605(5)
C5 C 0.3953(6) 0.1111(8) 0.0879(6)
C6 C 0.3391(6) 0.1250(9) -0.0115(6)
C7 C 0.2294(6) 0.0849(9) -0.0357(5)
F1 F 0.1810(3) -0.0338(6) 0.2100(3)
F2 F 0.3938(4) 0.0398(7) 0.2581(3)
F3 F 0.5016(4) 0.1538(6) 0.1122(4)
F4 F 0.3933(4) 0.1796(6) -0.0846(4)
F5 F 0.1810(4) 0.1060(6) -0.1357(3)
O1 O 0.1723(5) 0.0069(7) -0.4585(5)
C8 C 0.3214(8) -0.0563(14) -0.3283(8)
H1 H 0.3429 -0.1774 -0.3119
H2 H 0.385 0.0185 -0.3174
H3 H 0.2731 -0.0171 -0.2855
C9 C 0.2647(6) -0.0452(9) -0.4363(6)
C10 C 0.3214(10) -0.0985(13) -0.5175(9)
H4 H 0.2714 -0.0941 -0.582
H5 H 0.3811 -0.0184 -0.5184
H6 H 0.3489 -0.2177 -0.505
Pt1C Pt 0.00000 -0.50000 -0.50000
Pt1C_2 Pt 0.00000 0.50000 0.50000
Tl1B Tl -0.00231(2) 0.14388(3) 0.366930(17)
Tl1C Tl 0.00231(2) -0.35612(3) 0.133070(17)
Tl1A Tl -0.00231(2) 0.35612(3) -0.133070(17)
Tl1A_2 Tl -0.00231(2) -0.64388(3) -0.133070(17)
Tl1C_2 Tl 0.00231(2) 0.64388(3) 0.133070(17)
N1B N -0.0220(5) 0.2764(8) 0.1698(4)
N1A N -0.0220(5) 0.2236(8) -0.3302(4)
N1C N 0.0220(5) -0.2236(8) 0.3302(4)
C1B C -0.0146(5) 0.1735(9) 0.1084(5)
C2B C -0.1685(6) -0.0352(8) -0.0346(5)
C3B C -0.2291(6) -0.0195(8) -0.1323(5)
C4B C -0.3401(6) -0.0566(9) -0.1605(5)
C5B C -0.3953(6) -0.1111(8) -0.0879(6)
C6B C -0.3391(6) -0.1250(9) 0.0115(6)
C7B C -0.2294(6) -0.0849(9) 0.0357(5)
F1B F -0.1810(3) 0.0338(6) -0.2100(3)
F2B F -0.3938(4) -0.0398(7) -0.2581(3)
F3B F -0.5016(4) -0.1538(6) -0.1122(4)
F4B F -0.3933(4) -0.1796(6) 0.0846(4)
F5B F -0.1810(4) -0.1060(6) 0.1357(3)
O1B O -0.1723(5) -0.0069(7) 0.4585(5)
C8B C -0.3214(8) 0.0563(14) 0.3283(8)
H1B H -0.3429 0.1774 0.3119
H2B H -0.385 -0.0185 0.3174
H3B H -0.2731 0.0171 0.2855
C9B C -0.2647(6) 0.0452(9) 0.4363(6)
C10B C -0.3214(10) 0.0985(13) 0.5175(9)
H4B H -0.2714 0.0941 0.582
H5B H -0.3811 0.0184 0.5184
H6B H -0.3489 0.2177 0.505
loop_
_geom_bond_atom_site_label_1
_geom_bond_atom_site_label_2
_geom_bond_site_symmetry_1
_geom_bond_site_symmetry_2
Pt1 C1 1_555 1_555
Tl1 N1 1_555 1_555
N1 C1 1_555 1_555
C2 Pt1 1_555 1_555
C3 C2 1_555 1_555
C4 C3 1_555 1_555
C5 C4 1_555 1_555
C6 C5 1_555 1_555
C7 C2 1_555 1_555
F1 C3 1_555 1_555
F2 C4 1_555 1_555
F3 C5 1_555 1_555
F4 C6 1_555 1_555
F5 C7 1_555 1_555
O1 Tl1 1_555 1_555
C8 H1 1_555 1_555
H2 C8 1_555 1_555
H3 C8 1_555 1_555
C9 O1 1_555 1_555
C10 C9 1_555 1_555
H4 C10 1_555 1_555
H5 C10 1_555 1_555
H6 C10 1_555 1_555
Pt1C Tl1 1_555 1_555
Pt1C_2 Tl1B 1_555 1_555
Tl1B N1B 1_555 1_555
Tl1C Pt1 1_555 1_555
Tl1A Pt1 1_555 1_555
Tl1A_2 N1 1_555 1_555
Tl1C_2 N1B 1_555 1_555
N1B C1B 1_555 1_555
N1A Tl1 1_555 1_555
N1C Tl1B 1_555 1_555
C1B Pt1 1_555 1_555
C2B Pt1 1_555 1_555
C3B C2B 1_555 1_555
C4B C3B 1_555 1_555
C5B C4B 1_555 1_555
C6B C5B 1_555 1_555
C7B C2B 1_555 1_555
F1B C3B 1_555 1_555
F2B C4B 1_555 1_555
F3B C5B 1_555 1_555
F4B C6B 1_555 1_555
F5B C7B 1_555 1_555
O1B Tl1B 1_555 1_555
C8B H1B 1_555 1_555
H2B C8B 1_555 1_555
H3B C8B 1_555 1_555
C9B O1B 1_555 1_555
C10B C9B 1_555 1_555
H4B C10B 1_555 1_555
H5B C10B 1_555 1_555
H6B C10B 1_555 1_555
C6 C7 1_555 1_555
C8 C9 1_555 1_555
Tl1C N1C 1_555 1_555
Tl1A N1A 1_555 1_555
C6B C7B 1_555 1_555
C8B C9B 1_555 1_555

#END
