
#######################################################################
#
#                 Cambridge Crystallographic Data Centre
#                                CCDC 
#
#######################################################################
#
# If this CIF has been generated from an entry in the Cambridge 
# Structural Database, then it will include bibliographic, chemical, 
# crystal, experimental, refinement or atomic coordinate data resulting 
# from the CCDC's data processing and validation procedures.
#
#######################################################################

data_JOBYEG
_symmetry_cell_setting           monoclinic
_symmetry_space_group_name_H-M   'P 21/c'
_symmetry_Int_Tables_number      14
_space_group_name_Hall           '-P 2ybc'
loop_
_symmetry_equiv_pos_site_id
_symmetry_equiv_pos_as_xyz
1 x,y,z
2 -x,1/2+y,1/2-z
3 -x,-y,-z
4 x,1/2-y,1/2+z
_cell_length_a                   11.9967(11)
_cell_length_b                   13.2295(12)
_cell_length_c                   7.0045(7)
_cell_angle_alpha                90
_cell_angle_beta                 92.4720(10)
_cell_angle_gamma                90
_cell_volume                     1110.65
loop_
_atom_site_label
_atom_site_type_symbol
_atom_site_fract_x
_atom_site_fract_y
_atom_site_fract_z
C1 C -0.3206(2) 0.2290(2) -0.0927(4)
C2 C -0.2144(2) 0.2569(2) -0.0233(4)
H1 H -0.1970 0.3246 -0.0026
C3 C -0.1354(2) 0.1827(2) 0.0144(4)
C4 C -0.0202(2) 0.2036(2) 0.0804(4)
C5 C -0.1651(3) 0.0826(2) -0.0188(5)
H2 H -0.1125 0.0324 0.0084
C6 C -0.3427(2) 0.1275(2) -0.1246(4)
H3 H -0.4131 0.1087 -0.1728
C7 C -0.4056(2) 0.3046(2) -0.1431(4)
N1 N 0.0242(2) 0.2938(2) 0.1178(5)
N2 N 0.1311(2) 0.2757(2) 0.1649(5)
N3 N 0.1483(2) 0.17823(19) 0.1558(4)
N4 N 0.0550(2) 0.1303(2) 0.1042(4)
N5 N -0.2663(2) 0.05538(19) -0.0882(4)
N6 N -0.5093(2) 0.28265(19) -0.2032(4)
N7 N -0.5547(2) 0.3732(2) -0.2407(4)
N8 N -0.4823(2) 0.4460(2) -0.2070(5)
N9 N -0.3865(2) 0.40389(19) -0.1441(5)
O1 O 0.3199(2) 0.1393(2) -0.1155(4)
O2 O 0.2489(2) 0.0490(2) 0.4565(4)
Zn1 Zn 0.28874(3) 0.09276(2) 0.17125(6)
N5B N 0.2663(2) -0.05538(19) 0.0882(4)
N7C N 0.4453(2) 0.1268(2) 0.2593(4)
Zn1B Zn -0.28874(3) -0.09276(2) -0.17125(6)
Zn1C Zn -0.71126(3) 0.40724(2) -0.32875(6)
O3 O 0.0558(6) 0.5050(6) 0.0547(13)
loop_
_geom_bond_atom_site_label_1
_geom_bond_atom_site_label_2
_geom_bond_site_symmetry_1
_geom_bond_site_symmetry_2
C1 C2 1_555 1_555
C2 H1 1_555 1_555
C3 C2 1_555 1_555
C4 C3 1_555 1_555
C5 C3 1_555 1_555
H2 C5 1_555 1_555
C6 C1 1_555 1_555
H3 C6 1_555 1_555
C7 C1 1_555 1_555
N1 C4 1_555 1_555
N2 N1 1_555 1_555
N3 N2 1_555 1_555
N4 C4 1_555 1_555
N5 C5 1_555 1_555
N6 C7 1_555 1_555
N7 N6 1_555 1_555
N8 N7 1_555 1_555
N9 C7 1_555 1_555
O1 Zn1 1_555 1_555
O2 Zn1 1_555 1_555
Zn1 N3 1_555 1_555
N5B Zn1 1_555 1_555
N7C Zn1 1_555 1_555
Zn1B N5 1_555 1_555
Zn1C N7 1_555 1_555
C6 N5 1_555 1_555
N3 N4 1_555 1_555
N8 N9 1_555 1_555

#END
