
#######################################################################
#
#                 Cambridge Crystallographic Data Centre
#                                CCDC 
#
#######################################################################
#
# If this CIF has been generated from an entry in the Cambridge 
# Structural Database, then it will include bibliographic, chemical, 
# crystal, experimental, refinement or atomic coordinate data resulting 
# from the CCDC's data processing and validation procedures.
#
#######################################################################

data_JOCDEM
_symmetry_cell_setting           monoclinic
_symmetry_space_group_name_H-M   'P 2/c'
_symmetry_Int_Tables_number      13
_space_group_name_Hall           '-P 2yc'
loop_
_symmetry_equiv_pos_site_id
_symmetry_equiv_pos_as_xyz
1 x,y,z
2 -x,y,1/2-z
3 -x,-y,-z
4 x,-y,1/2+z
_cell_length_a                   10.820(6)
_cell_length_b                   10.690(6)
_cell_length_c                   22.803(12)
_cell_angle_alpha                90
_cell_angle_beta                 94.628(10)
_cell_angle_gamma                90
_cell_volume                     2628.93
loop_
_atom_site_label
_atom_site_type_symbol
_atom_site_fract_x
_atom_site_fract_y
_atom_site_fract_z
Sr1 Sr 0.83314(7) 1.20624(6) 0.70260(3)
Sr2 Sr 0.66692(6) 0.85660(6) 0.70483(3)
Sr3 Sr 1.0000 0.62374(9) 0.7500
Sr4 Sr 1.01685(6) 0.90364(6) 0.58804(2)
C1 C 0.7479(7) 1.5185(7) 0.7026(3)
C2 C 0.6254(7) 1.4606(7) 0.6847(3)
C3 C 0.5193(8) 1.5300(8) 0.6752(4)
H1 H 0.5218 1.6166 0.6791
C4 C 0.4111(9) 1.4711(9) 0.6600(4)
H2 H 0.3380 1.5165 0.6536
C5 C 0.4102(8) 1.3449(8) 0.6543(4)
H3 H 0.3365 1.3031 0.6433
C6 C 0.5187(7) 1.2791(7) 0.6647(3)
C7 C 0.5240(8) 1.1413(8) 0.6598(3)
C8 C 0.3572(8) 0.8393(7) 0.6460(3)
C9 C 0.4287(7) 0.8347(7) 0.5924(3)
C10 C 0.3649(8) 0.8446(8) 0.5374(3)
H4 H 0.2792 0.8545 0.5333
C11 C 0.4331(8) 0.8391(10) 0.4897(3)
H5 H 0.3932 0.8410 0.4520
C12 C 0.5565(8) 0.8312(9) 0.4966(3)
H6 H 0.6027 0.8270 0.4640
C13 C 0.6142(7) 0.8293(7) 0.5526(3)
C14 C 0.7501(7) 0.8388(7) 0.5641(3)
C15 C 1.0725(7) 0.5968(7) 0.6274(3)
C16 C 1.1092(6) 0.5888(7) 0.5661(3)
C17 C 1.1527(8) 0.4820(7) 0.5417(3)
H7 H 1.1633 0.4092 0.5639
C18 C 1.1805(8) 0.4841(7) 0.4842(3)
H8 H 1.2103 0.4129 0.4667
C19 C 1.1639(8) 0.5910(7) 0.4535(3)
H9 H 1.1793 0.5935 0.4140
C20 C 1.1249(7) 0.6944(6) 0.4804(3)
C21 C 1.1066(7) 0.8177(7) 0.4500(3)
N1 N 0.6257(5) 1.3369(5) 0.6792(2)
N2 N 0.5495(5) 0.8281(5) 0.5996(2)
N3 N 1.0965(5) 0.6952(5) 0.5359(2)
O1 O 0.8399(5) 1.4479(4) 0.70789(18)
O2 O 0.7504(5) 1.6320(5) 0.7126(2)
O3 O 0.6247(5) 1.0892(5) 0.6687(2)
O4 O 0.4223(5) 1.0886(5) 0.6468(2)
O5 O 0.4215(5) 0.8221(5) 0.69454(18)
O6 O 0.2466(5) 0.8616(5) 0.63994(19)
O7 O 0.7920(4) 0.8628(5) 0.61553(19)
O8 O 0.8192(5) 0.8244(5) 0.52284(19)
O9 O 1.0162(5) 0.6911(4) 0.64218(18)
O10 O 1.1010(5) 0.5076(5) 0.66161(18)
O11 O 1.0750(4) 0.9093(4) 0.47810(18)
O12 O 1.1266(5) 0.8208(5) 0.39705(19)
O13 O 0.9899(5) 1.0077(4) 0.69683(18)
O14 O 0.8902(4) 0.8467(4) 0.7468(2)
O15 O 0.7429(5) 1.0526(5) 0.77500(19)
O16 O 1.1661(5) 1.1096(6) 0.5932(2)
O17 O 1.0712(5) 1.2675(5) 0.6920(2)
S1 S 1.0000 0.9275(3) 0.7500
H10 H 1.237(3) 1.081(7) 0.596(3)
H11 H 1.172(7) 1.135(6) 0.5591(14)
H12 H 1.064(7) 1.341(3) 0.681(3)
H13 H 1.098(7) 1.220(6) 0.667(2)
H14 H 0.690(5) 1.081(6) 0.797(3)
H15 H 0.791(6) 1.015(6) 0.799(2)
O13A O 1.0101(5) 1.0077(4) 0.80317(18)
O14A O 1.1098(4) 0.8467(4) 0.7532(2)
Sr1A Sr 0.16686(7) 1.20624(6) 0.79740(3)
Sr2A Sr 0.33308(6) 0.85660(6) 0.79517(3)
Sr4A Sr -0.01685(6) 0.90364(6) 0.91196(2)
C1A C 0.2521(7) 1.5185(7) 0.7974(3)
C2A C 0.3746(7) 1.4606(7) 0.8153(3)
C3A C 0.4807(8) 1.5300(8) 0.8248(4)
H1A H 0.4782 1.6166 0.8209
C4A C 0.5889(9) 1.4711(9) 0.8400(4)
H2A H 0.6620 1.5165 0.8464
C5A C 0.5898(8) 1.3449(8) 0.8457(4)
H3A H 0.6635 1.3031 0.8567
C6A C 0.4813(7) 1.2791(7) 0.8353(3)
C7A C 0.4760(8) 1.1413(8) 0.8402(3)
C8A C 0.6428(8) 0.8393(7) 0.8540(3)
C9A C 0.5713(7) 0.8347(7) 0.9076(3)
C10A C 0.6351(8) 0.8446(8) 0.9626(3)
H4A H 0.7208 0.8545 0.9667
C11A C 0.5669(8) 0.8391(10) 1.0103(3)
H5A H 0.6068 0.8410 1.0480
C12A C 0.4435(8) 0.8312(9) 1.0034(3)
H6A H 0.3973 0.8270 1.0360
C13A C 0.3858(7) 0.8293(7) 0.9474(3)
C14A C 0.2499(7) 0.8388(7) 0.9359(3)
C15A C -0.0725(7) 0.5968(7) 0.8726(3)
C16A C -0.1092(6) 0.5888(7) 0.9339(3)
C17A C -0.1527(8) 0.4820(7) 0.9583(3)
H7A H -0.1633 0.4092 0.9361
C18A C -0.1805(8) 0.4841(7) 1.0158(3)
H8A H -0.2103 0.4129 1.0333
C19A C -0.1639(8) 0.5910(7) 1.0465(3)
H9A H -0.1793 0.5935 1.0860
C20A C -0.1249(7) 0.6944(6) 1.0196(3)
C21A C -0.1066(7) 0.8177(7) 1.0500(3)
N1A N 0.3743(5) 1.3369(5) 0.8208(2)
N2A N 0.4505(5) 0.8281(5) 0.9004(2)
N3A N -0.0965(5) 0.6952(5) 0.9641(2)
O1A O 0.1601(5) 1.4479(4) 0.79211(18)
O2A O 0.2496(5) 1.6320(5) 0.7874(2)
O3A O 0.3753(5) 1.0892(5) 0.8313(2)
O4A O 0.5777(5) 1.0886(5) 0.8532(2)
O5A O 0.5785(5) 0.8221(5) 0.80546(18)
O6A O 0.7534(5) 0.8616(5) 0.86006(19)
O7A O 0.2080(4) 0.8628(5) 0.88447(19)
O8A O 0.1808(5) 0.8244(5) 0.97716(19)
O9A O -0.0162(5) 0.6911(4) 0.85782(18)
O10A O -0.1010(5) 0.5076(5) 0.83839(18)
O11A O -0.0750(4) 0.9093(4) 1.02190(18)
O12A O -0.1266(5) 0.8208(5) 1.10295(19)
O15A O 0.2571(5) 1.0526(5) 0.72500(19)
O16A O -0.1661(5) 1.1096(6) 0.9068(2)
O17A O -0.0712(5) 1.2675(5) 0.8080(2)
H10A H -0.237(3) 1.081(7) 0.904(3)
H11A H -0.172(7) 1.135(6) 0.9409(14)
H12A H -0.064(7) 1.341(3) 0.819(3)
H13A H -0.098(7) 1.220(6) 0.833(2)
H14A H 0.310(5) 1.081(6) 0.703(3)
H15A H 0.209(6) 1.015(6) 0.701(2)
Sr1_2 Sr -0.16686(7) 1.20624(6) 0.70260(3)
Sr1A_2 Sr 1.16686(7) 1.20624(6) 0.79740(3)
Sr1B Sr 1.16686(7) 0.79376(6) 0.29740(3)
Sr1C Sr -0.16686(7) 0.79376(6) 1.20260(3)
Sr2_2 Sr 0.66692(6) 1.85660(6) 0.70483(3)
Sr2A_2 Sr 0.33308(6) 1.85660(6) 0.79517(3)
Sr2A_3 Sr 1.33308(6) 0.85660(6) 0.79517(3)
Sr3_2 Sr 0.0000 0.62374(9) 0.7500
Sr3_3 Sr 0.0000 1.62374(9) 0.7500
Sr3_4 Sr 1.0000 1.62374(9) 0.7500
Sr4_2 Sr 0.01685(6) 0.90364(6) 0.58804(2)
Sr4A_2 Sr 0.98315(6) 0.90364(6) 0.91196(2)
Sr4B Sr 0.98315(6) 1.09636(6) 0.41196(2)
Sr4C Sr 0.01685(6) 1.09636(6) 1.08804(2)
O1_2 O 0.8399(5) 0.4479(4) 0.70789(18)
O1A_2 O 1.1601(5) 0.4479(4) 0.79211(18)
O2_2 O 0.7504(5) 0.6320(5) 0.7126(2)
O2A_2 O 0.2496(5) 0.6320(5) 0.7874(2)
O2A_3 O 1.2496(5) 0.6320(5) 0.7874(2)
O6_2 O 1.2466(5) 0.8616(5) 0.63994(19)
O6A_2 O -0.2466(5) 0.8616(5) 0.86006(19)
O9A_2 O 0.9838(5) 0.6911(4) 0.85782(18)
O10A_2 O 0.8990(5) 0.5076(5) 0.83839(18)
O11B O 0.9250(4) 1.0907(4) 0.52190(18)
O11C O 0.0750(4) 1.0907(4) 0.97810(18)
O12B O 0.8734(5) 1.1792(5) 0.60295(19)
O12C O 0.1266(5) 1.1792(5) 0.89705(19)
O13A_2 O 0.0101(5) 1.0077(4) 0.80317(18)
O14A_2 O 0.1098(4) 0.8467(4) 0.7532(2)
O17_2 O 0.0712(5) 1.2675(5) 0.6920(2)
O17A_2 O 0.9288(5) 1.2675(5) 0.8080(2)
loop_
_geom_bond_atom_site_label_1
_geom_bond_atom_site_label_2
_geom_bond_site_symmetry_1
_geom_bond_site_symmetry_2
Sr1 N1 1_555 1_555
Sr2 N2 1_555 1_555
Sr3 O9 1_555 1_555
Sr4 N3 1_555 1_555
C1 C2 1_555 1_555
C2 C3 1_555 1_555
C3 H1 1_555 1_555
C4 C3 1_555 1_555
H2 C4 1_555 1_555
C5 C4 1_555 1_555
H3 C5 1_555 1_555
C6 C5 1_555 1_555
C7 C6 1_555 1_555
C8 C9 1_555 1_555
C9 C10 1_555 1_555
C10 H4 1_555 1_555
C11 C10 1_555 1_555
H5 C11 1_555 1_555
C12 C11 1_555 1_555
H6 C12 1_555 1_555
C13 C12 1_555 1_555
C14 C13 1_555 1_555
C15 C16 1_555 1_555
C16 C17 1_555 1_555
C17 H7 1_555 1_555
C18 C17 1_555 1_555
H8 C18 1_555 1_555
C19 C18 1_555 1_555
H9 C19 1_555 1_555
C20 C19 1_555 1_555
C21 C20 1_555 1_555
N1 C2 1_555 1_555
N2 C9 1_555 1_555
N3 C16 1_555 1_555
O1 Sr1 1_555 1_555
O2 C1 1_555 1_555
O3 Sr1 1_555 1_555
O4 C7 1_555 1_555
O5 Sr2 1_555 1_555
O6 C8 1_555 1_555
O7 Sr2 1_555 1_555
O8 Sr4 1_555 1_555
O9 Sr4 1_555 1_555
O10 Sr3 1_555 1_555
O11 Sr4 1_555 1_555
O12 C21 1_555 1_555
O13 Sr1 1_555 1_555
O14 Sr2 1_555 1_555
O15 Sr1 1_555 1_555
O16 Sr4 1_555 1_555
O17 Sr1 1_555 1_555
S1 O13 1_555 1_555
H10 O16 1_555 1_555
H11 O16 1_555 1_555
H12 O17 1_555 1_555
H13 O17 1_555 1_555
H14 O15 1_555 1_555
H15 O15 1_555 1_555
O13A S1 1_555 1_555
O14A Sr3 1_555 1_555
Sr1A N1A 1_555 1_555
Sr2A O5 1_555 1_555
Sr4A N3A 1_555 1_555
C1A C2A 1_555 1_555
C2A C3A 1_555 1_555
C3A H1A 1_555 1_555
C4A C3A 1_555 1_555
H2A C4A 1_555 1_555
C5A C4A 1_555 1_555
H3A C5A 1_555 1_555
C6A C5A 1_555 1_555
C7A C6A 1_555 1_555
C8A C9A 1_555 1_555
C9A C10A 1_555 1_555
C10A H4A 1_555 1_555
C11A C10A 1_555 1_555
H5A C11A 1_555 1_555
C12A C11A 1_555 1_555
H6A C12A 1_555 1_555
C13A C12A 1_555 1_555
C14A C13A 1_555 1_555
C15A C16A 1_555 1_555
C16A C17A 1_555 1_555
C17A H7A 1_555 1_555
C18A C17A 1_555 1_555
H8A C18A 1_555 1_555
C19A C18A 1_555 1_555
H9A C19A 1_555 1_555
C20A C19A 1_555 1_555
C21A C20A 1_555 1_555
N1A C2A 1_555 1_555
N2A Sr2A 1_555 1_555
N3A C16A 1_555 1_555
O1A Sr1A 1_555 1_555
O2A C1A 1_555 1_555
O3A Sr1A 1_555 1_555
O4A C7A 1_555 1_555
O5A Sr2 1_555 1_555
O6A C8A 1_555 1_555
O7A Sr2A 1_555 1_555
O8A Sr4A 1_555 1_555
O9A Sr4A 1_555 1_555
O10A C15A 1_555 1_555
O11A Sr4A 1_555 1_555
O12A C21A 1_555 1_555
O15A Sr1A 1_555 1_555
O16A Sr4A 1_555 1_555
O17A Sr1A 1_555 1_555
H10A O16A 1_555 1_555
H11A O16A 1_555 1_555
H12A O17A 1_555 1_555
H13A O17A 1_555 1_555
H14A O15A 1_555 1_555
H15A O15A 1_555 1_555
Sr1_2 O17A 1_555 1_555
Sr1A_2 O17 1_555 1_555
Sr1B O12 1_555 1_555
Sr1C O12A 1_555 1_555
Sr2_2 O2 1_555 1_555
Sr2A_2 O2A 1_555 1_555
Sr2A_3 O14A 1_555 1_555
Sr3_2 O9A 1_555 1_555
Sr3_3 O1A 1_555 1_555
Sr3_4 O1 1_555 1_555
Sr4_2 O6 1_555 1_555
Sr4A_2 O13A 1_555 1_555
Sr4B O11 1_555 1_555
Sr4C O11A 1_555 1_555
O1_2 Sr3 1_555 1_555
O1A_2 Sr3 1_555 1_555
O2_2 Sr2 1_555 1_555
O2A_2 Sr2A 1_555 1_555
O2A_3 Sr3 1_555 1_555
O6_2 Sr4 1_555 1_555
O6A_2 Sr4A 1_555 1_555
O9A_2 Sr3 1_555 1_555
O10A_2 Sr3 1_555 1_555
O11B Sr4 1_555 1_555
O11C Sr4A 1_555 1_555
O12B Sr1 1_555 1_555
O12C Sr1A 1_555 1_555
O13A_2 Sr1A 1_555 1_555
O14A_2 Sr2A 1_555 1_555
O17_2 Sr1A 1_555 1_555
O17A_2 Sr1 1_555 1_555
Sr2 O3 1_555 1_555
Sr2 O15 1_555 1_555
Sr3 O14 1_555 1_555
Sr3 O2_2 1_555 1_555
Sr4 O7 1_555 1_555
Sr4 O13 1_555 1_555
C1 O1 1_555 1_555
C6 N1 1_555 1_555
C7 O3 1_555 1_555
C8 O5 1_555 1_555
C13 N2 1_555 1_555
C14 O7 1_555 1_555
C14 O8 1_555 1_555
C15 O9 1_555 1_555
C15 O10 1_555 1_555
C20 N3 1_555 1_555
C21 O11 1_555 1_555
O2 Sr3_4 1_555 1_555
O14 S1 1_555 1_555
S1 O14A 1_555 1_555
O13A Sr1A_2 1_555 1_555
Sr2A O3A 1_555 1_555
Sr2A O5A 1_555 1_555
Sr2A O15A 1_555 1_555
Sr4A O7A 1_555 1_555
Sr4A O13A_2 1_555 1_555
C1A O1A 1_555 1_555
C6A N1A 1_555 1_555
C7A O3A 1_555 1_555
C8A O5A 1_555 1_555
C9A N2A 1_555 1_555
C13A N2A 1_555 1_555
C14A O7A 1_555 1_555
C14A O8A 1_555 1_555
C15A O9A 1_555 1_555
C20A N3A 1_555 1_555
C21A O11A 1_555 1_555
O2A Sr3_3 1_555 1_555
O6A Sr4A_2 1_555 1_555
O10A Sr3_2 1_555 1_555
Sr1_2 O17_2 1_555 1_555
Sr1A_2 O17A_2 1_555 1_555
Sr2A_3 O2A_3 1_555 1_555
Sr3_2 O2A_2 1_555 1_555
Sr3_2 O14A_2 1_555 1_555
Sr4A_2 O9A_2 1_555 1_555
Sr4B O11B 1_555 1_555
Sr4C O11C 1_555 1_555

#END
