
#######################################################################
#
#                 Cambridge Crystallographic Data Centre
#                                CCDC 
#
#######################################################################
#
# If this CIF has been generated from an entry in the Cambridge 
# Structural Database, then it will include bibliographic, chemical, 
# crystal, experimental, refinement or atomic coordinate data resulting 
# from the CCDC's data processing and validation procedures.
#
#######################################################################

data_JOCGIS
_symmetry_cell_setting           triclinic
_symmetry_space_group_name_H-M   'P -1'
_symmetry_Int_Tables_number      2
_space_group_name_Hall           '-P 1'
loop_
_symmetry_equiv_pos_site_id
_symmetry_equiv_pos_as_xyz
1 x,y,z
2 -x,-y,-z
_cell_length_a                   8.209(4)
_cell_length_b                   10.023(4)
_cell_length_c                   10.459(5)
_cell_angle_alpha                89.260(8)
_cell_angle_beta                 87.753(8)
_cell_angle_gamma                68.912(7)
_cell_volume                     802.304
loop_
_atom_site_label
_atom_site_type_symbol
_atom_site_fract_x
_atom_site_fract_y
_atom_site_fract_z
Co1 Co 0.5000 0.0000 0.0000
Co2 Co 0.85990(5) -0.08221(4) -0.19508(4)
O1 O 0.7250(3) 0.0234(2) -0.05465(19)
H1 H 0.7644 0.0782 -0.0151
O2 O 0.4578(3) -0.0585(2) -0.18858(19)
O3 O 0.6779(3) -0.0740(2) -0.3276(2)
O4 O -0.0325(3) 0.7068(2) -0.1992(2)
O5 O 0.1332(3) 0.7625(3) -0.0646(3)
N1 N -0.0159(3) 0.0332(3) -0.2935(2)
N2 N 0.1470(3) 0.0984(3) -0.4372(2)
H2 H 0.2343 0.0932 -0.4877
N3 N 0.3550(3) 0.2275(3) -0.0395(3)
C1 C 0.5337(4) -0.0890(3) -0.2943(3)
C2 C 0.4564(4) -0.1570(3) -0.3924(3)
H3 H 0.5326 -0.2559 -0.4044
H4 H 0.4533 -0.1083 -0.4736
C3 C 0.2724(4) -0.1525(3) -0.3560(3)
H5 H 0.2428 -0.2149 -0.4135
H6 H 0.2726 -0.1902 -0.2701
C4 C 0.1341(4) -0.0070(3) -0.3606(3)
C5 C -0.0050(4) 0.2159(3) -0.4202(3)
C6 C -0.0634(5) 0.3492(3) -0.4788(3)
H7 H 0.0049 0.3755 -0.5398
C7 C -0.2272(5) 0.4397(4) -0.4414(4)
H8 H -0.2713 0.5299 -0.4785
C8 C -0.3307(5) 0.4013(4) -0.3495(4)
H9 H -0.4408 0.4666 -0.3265
C9 C -0.2727(5) 0.2686(4) -0.2922(4)
H10 H -0.3416 0.2428 -0.2313
C10 C -0.1076(4) 0.1752(3) -0.3292(3)
C11 C 0.0886(4) 0.6735(3) -0.1194(3)
C12 C 0.1803(4) 0.5160(3) -0.0929(3)
C13 C 0.3066(5) 0.4729(4) -0.0034(3)
H11 H 0.3344 0.5405 0.0421
C14 C 0.3923(4) 0.3291(4) 0.0191(3)
H12 H 0.4803 0.3021 0.0781
C15 C 0.2289(5) 0.2693(4) -0.1241(3)
H13 H 0.1989 0.1996 -0.1645
C16 C 0.1402(4) 0.4115(3) -0.1549(3)
H14 H 0.0553 0.4360 -0.2162
Co2A Co 0.14010(5) 0.08221(4) 0.19508(4)
Co2_2 Co -0.14010(5) 0.91779(4) -0.19508(4)
Co2_3 Co -0.14010(5) -0.08221(4) -0.19508(4)
Co2A_2 Co 1.14010(5) 0.08221(4) 0.19508(4)
Co2A_3 Co 1.14010(5) -0.91779(4) 0.19508(4)
O1A O 0.2750(3) -0.0234(2) 0.05465(19)
H1A H 0.2356 -0.0782 0.0151
O2A O 0.5422(3) 0.0585(2) 0.18858(19)
O3A O 0.3221(3) 0.0740(2) 0.3276(2)
O4A O 1.0325(3) -0.7068(2) 0.1992(2)
O4_2 O 0.9675(3) -0.2932(2) -0.1992(2)
O4A_2 O 0.0325(3) 0.2932(2) 0.1992(2)
O5A O 0.8668(3) -0.7625(3) 0.0646(3)
N1A N 1.0159(3) -0.0332(3) 0.2935(2)
N1_2 N 0.9841(3) 0.0332(3) -0.2935(2)
N1A_2 N 0.0159(3) -0.0332(3) 0.2935(2)
N2A N 0.8530(3) -0.0984(3) 0.4372(2)
H2A H 0.7657 -0.0932 0.4877
N3A N 0.6450(3) -0.2275(3) 0.0395(3)
C1A C 0.4663(4) 0.0890(3) 0.2943(3)
C2A C 0.5436(4) 0.1570(3) 0.3924(3)
H3A H 0.4674 0.2559 0.4044
H4A H 0.5467 0.1083 0.4736
C3A C 0.7276(4) 0.1525(3) 0.3560(3)
H5A H 0.7572 0.2149 0.4135
H6A H 0.7274 0.1902 0.2701
C4A C 0.8659(4) 0.0070(3) 0.3606(3)
C5A C 1.0050(4) -0.2159(3) 0.4202(3)
C6A C 1.0634(5) -0.3492(3) 0.4788(3)
H7A H 0.9951 -0.3755 0.5398
C7A C 1.2272(5) -0.4397(4) 0.4414(4)
H8A H 1.2713 -0.5299 0.4785
C8A C 1.3307(5) -0.4013(4) 0.3495(4)
H9A H 1.4408 -0.4666 0.3265
C9A C 1.2727(5) -0.2686(4) 0.2922(4)
H10A H 1.3416 -0.2428 0.2313
C10A C 1.1076(4) -0.1752(3) 0.3292(3)
C11A C 0.9114(4) -0.6735(3) 0.1194(3)
C12A C 0.8197(4) -0.5160(3) 0.0929(3)
C13A C 0.6934(5) -0.4729(4) 0.0034(3)
H11A H 0.6656 -0.5405 -0.0421
C14A C 0.6077(4) -0.3291(4) -0.0191(3)
H12A H 0.5197 -0.3021 -0.0781
C15A C 0.7711(5) -0.2693(4) 0.1241(3)
H13A H 0.8011 -0.1996 0.1645
C16A C 0.8598(4) -0.4115(3) 0.1549(3)
H14A H 0.9447 -0.4360 0.2162
loop_
_geom_bond_atom_site_label_1
_geom_bond_atom_site_label_2
_geom_bond_site_symmetry_1
_geom_bond_site_symmetry_2
Co1 O1 1_555 1_555
Co2 O1 1_555 1_555
O1 H1 1_555 1_555
O2 Co1 1_555 1_555
O3 Co2 1_555 1_555
O4 C11 1_555 1_555
O5 C11 1_555 1_555
N1 C4 1_555 1_555
N2 H2 1_555 1_555
N3 Co1 1_555 1_555
C1 O2 1_555 1_555
C2 C1 1_555 1_555
H3 C2 1_555 1_555
H4 C2 1_555 1_555
C3 C2 1_555 1_555
H5 C3 1_555 1_555
H6 C3 1_555 1_555
C4 N2 1_555 1_555
C5 N2 1_555 1_555
C6 C5 1_555 1_555
H7 C6 1_555 1_555
C7 C6 1_555 1_555
H8 C7 1_555 1_555
C8 C7 1_555 1_555
H9 C8 1_555 1_555
C9 C8 1_555 1_555
H10 C9 1_555 1_555
C10 N1 1_555 1_555
C11 C12 1_555 1_555
C12 C13 1_555 1_555
C13 H11 1_555 1_555
C14 N3 1_555 1_555
H12 C14 1_555 1_555
C15 N3 1_555 1_555
H13 C15 1_555 1_555
C16 C12 1_555 1_555
H14 C16 1_555 1_555
Co2A O1A 1_555 1_555
Co2_2 O4 1_555 1_555
Co2_3 N1 1_555 1_555
Co2A_2 N1A 1_555 1_555
Co2A_3 O4A 1_555 1_555
O1A Co1 1_555 1_555
H1A O1A 1_555 1_555
O2A Co1 1_555 1_555
O3A Co2A 1_555 1_555
O4A C11A 1_555 1_555
O4_2 Co2 1_555 1_555
O4A_2 Co2A 1_555 1_555
O5A C11A 1_555 1_555
N1A C4A 1_555 1_555
N1_2 Co2 1_555 1_555
N1A_2 Co2A 1_555 1_555
N2A H2A 1_555 1_555
N3A Co1 1_555 1_555
C1A O2A 1_555 1_555
C2A C1A 1_555 1_555
H3A C2A 1_555 1_555
H4A C2A 1_555 1_555
C3A C2A 1_555 1_555
H5A C3A 1_555 1_555
H6A C3A 1_555 1_555
C4A N2A 1_555 1_555
C5A N2A 1_555 1_555
C6A C5A 1_555 1_555
H7A C6A 1_555 1_555
C7A C6A 1_555 1_555
H8A C7A 1_555 1_555
C8A C7A 1_555 1_555
H9A C8A 1_555 1_555
C9A C8A 1_555 1_555
H10A C9A 1_555 1_555
C10A N1A 1_555 1_555
C11A C12A 1_555 1_555
C12A C13A 1_555 1_555
C13A H11A 1_555 1_555
C14A N3A 1_555 1_555
H12A C14A 1_555 1_555
C15A N3A 1_555 1_555
H13A C15A 1_555 1_555
C16A C12A 1_555 1_555
H14A C16A 1_555 1_555
O3 C1 1_555 1_555
C3 C4 1_555 1_555
C5 C10 1_555 1_555
C9 C10 1_555 1_555
C13 C14 1_555 1_555
C15 C16 1_555 1_555
O3A C1A 1_555 1_555
C3A C4A 1_555 1_555
C5A C10A 1_555 1_555
C9A C10A 1_555 1_555
C13A C14A 1_555 1_555
C15A C16A 1_555 1_555

#END
