
#######################################################################
#
#                 Cambridge Crystallographic Data Centre
#                                CCDC 
#
#######################################################################
#
# If this CIF has been generated from an entry in the Cambridge 
# Structural Database, then it will include bibliographic, chemical, 
# crystal, experimental, refinement or atomic coordinate data resulting 
# from the CCDC's data processing and validation procedures.
#
#######################################################################

data_JOCKIW
_symmetry_cell_setting           monoclinic
_symmetry_space_group_name_H-M   'P 21/c'
_symmetry_Int_Tables_number      14
_space_group_name_Hall           '-P 2ybc'
loop_
_symmetry_equiv_pos_site_id
_symmetry_equiv_pos_as_xyz
1 x,y,z
2 -x,1/2+y,1/2-z
3 -x,-y,-z
4 x,1/2-y,1/2+z
_cell_length_a                   9.7073(19)
_cell_length_b                   7.3869(15)
_cell_length_c                   10.727(2)
_cell_angle_alpha                90
_cell_angle_beta                 101.74(3)
_cell_angle_gamma                90
_cell_volume                     753.109
loop_
_atom_site_label
_atom_site_type_symbol
_atom_site_fract_x
_atom_site_fract_y
_atom_site_fract_z
Zn1 Zn 0.50000 0.00000 0.00000
N1 N 0.31323(15) 0.0536(2) -0.14865(14)
N2 N -0.13660(19) 0.0682(3) -0.13628(18)
O1 O -0.22777(12) -0.0657(2) -0.49414(11)
O2 O 0.61205(15) 0.20192(19) -0.06415(15)
O3 O 0.42384(12) 0.18973(16) 0.11736(11)
C1 C -0.10313(16) -0.0281(2) -0.49698(14)
C2 C 0.02245(15) 0.0192(2) -0.40169(14)
C3 C 0.05557(16) 0.0427(2) -0.26969(15)
C4 C 0.19812(17) 0.0511(2) -0.20330(14)
C5 C -0.05066(18) 0.0536(3) -0.19515(16)
H1 H 0.683(2) 0.183(3) -0.088(2)
H2 H 0.566(2) 0.292(3) -0.097(2)
H3 H 0.3473(19) 0.243(3) 0.085(2)
H4 H 0.417(2) 0.139(3) 0.1848(18)
Zn1_2 Zn -0.50000 0.00000 -1.00000
N1B N -0.31323(15) -0.0536(2) -0.85135(14)
N1B_2 N 0.68677(15) -0.0536(2) 0.14865(14)
N2B N 0.13660(19) -0.0682(3) -0.86372(18)
O1B O 0.22777(12) 0.0657(2) -0.50586(11)
O2B O 0.38795(15) -0.20192(19) 0.06415(15)
O3B O 0.57616(12) -0.18973(16) -0.11736(11)
C1B C 0.10313(16) 0.0281(2) -0.50302(14)
C2B C -0.02245(15) -0.0192(2) -0.59831(14)
C3B C -0.05557(16) -0.0427(2) -0.73031(15)
C4B C -0.19812(17) -0.0511(2) -0.79670(14)
C5B C 0.05066(18) -0.0536(3) -0.80485(16)
H1B H 0.317(2) -0.183(3) 0.088(2)
H2B H 0.434(2) -0.292(3) 0.097(2)
H3B H 0.6527(19) -0.243(3) -0.085(2)
H4B H 0.583(2) -0.139(3) -0.1848(18)
O4 O 0.42655(14) 0.02407(18) 0.34245(12)
H5 H 0.356(2) 0.029(3) 0.377(2)
H6 H 0.465(3) -0.079(3) 0.348(3)
loop_
_geom_bond_atom_site_label_1
_geom_bond_atom_site_label_2
_geom_bond_site_symmetry_1
_geom_bond_site_symmetry_2
Zn1 N1 1_555 1_555
N1 C4 1_555 1_555
N2 C5 1_555 1_555
O1 C1 1_555 1_555
O2 Zn1 1_555 1_555
O3 Zn1 1_555 1_555
C1 C2 1_555 1_555
C2 C3 1_555 1_555
C3 C4 1_555 1_555
C5 C3 1_555 1_555
H1 O2 1_555 1_555
H2 O2 1_555 1_555
H3 O3 1_555 1_555
H4 O3 1_555 1_555
O4 H5 1_555 1_555
H6 O4 1_555 1_555
Zn1_2 N1B 1_555 1_555
N1B C4B 1_555 1_555
N1B_2 Zn1 1_555 1_555
N2B C5B 1_555 1_555
O1B C1B 1_555 1_555
O2B Zn1 1_555 1_555
O3B Zn1 1_555 1_555
C1B C2 1_555 1_555
C2B C1 1_555 1_555
C3B C2B 1_555 1_555
C4B C3B 1_555 1_555
C5B C3B 1_555 1_555
H1B O2B 1_555 1_555
H2B O2B 1_555 1_555
H3B O3B 1_555 1_555
H4B O3B 1_555 1_555
C1B C2B 1_555 1_555

#END
