
#######################################################################
#
#                 Cambridge Crystallographic Data Centre
#                                CCDC 
#
#######################################################################
#
# If this CIF has been generated from an entry in the Cambridge 
# Structural Database, then it will include bibliographic, chemical, 
# crystal, experimental, refinement or atomic coordinate data resulting 
# from the CCDC's data processing and validation procedures.
#
#######################################################################

data_JOCKES
_symmetry_cell_setting           monoclinic
_symmetry_space_group_name_H-M   'C 2/m'
_symmetry_Int_Tables_number      12
_space_group_name_Hall           '-C 2y'
loop_
_symmetry_equiv_pos_site_id
_symmetry_equiv_pos_as_xyz
1 x,y,z
2 1/2+x,1/2+y,z
3 -x,y,-z
4 1/2-x,1/2+y,-z
5 -x,-y,-z
6 1/2-x,1/2-y,-z
7 x,-y,z
8 1/2+x,1/2-y,z
_cell_length_a                   10.714(2)
_cell_length_b                   7.1070(10)
_cell_length_c                   9.986(2)
_cell_angle_alpha                90
_cell_angle_beta                 102.65(3)
_cell_angle_gamma                90
_cell_volume                     741.921
loop_
_atom_site_label
_atom_site_type_symbol
_atom_site_fract_x
_atom_site_fract_y
_atom_site_fract_z
Co1 Co 0.00000 0.00000 0.00000
O1 O 0.10257(11) 0.20480(18) -0.07877(12)
C1 C 0.19632(19) 0.00000 0.3039(2)
N1 N 0.13767(17) 0.00000 0.19281(18)
C2 C 0.26655(19) 0.00000 0.44300(19)
C3 C 0.50084(19) 0.00000 0.3977(2)
C4 C 0.40008(19) 0.00000 0.47570(19)
C5 C 0.1940(2) 0.00000 0.5477(2)
N2 N 0.1362(2) 0.00000 0.6314(2)
O2 O 0.50037(15) 0.00000 0.27220(14)
H1 H 0.130(2) 0.293(3) -0.023(2)
H2 H 0.071(2) 0.248(4) -0.154(2)
Co1_2 Co 1.00000 0.00000 1.00000
O1F O 0.10257(11) -0.20480(18) -0.07877(12)
O1D O -0.10257(11) -0.20480(18) 0.07877(12)
O1B O -0.10257(11) 0.20480(18) 0.07877(12)
C1D C 0.80368(19) 0.00000 0.6961(2)
N1D N 0.86233(17) 0.00000 0.80719(18)
N1D_2 N -0.13767(17) 0.00000 -0.19281(18)
C2D C 0.73345(19) 0.00000 0.55700(19)
C3D C 0.49916(19) 0.00000 0.6023(2)
C4D C 0.59992(19) 0.00000 0.52430(19)
C5D C 0.8060(2) 0.00000 0.4523(2)
N2D N 0.8638(2) 0.00000 0.3686(2)
O2D O 0.49963(15) 0.00000 0.72780(14)
H1F H 0.130(2) -0.293(3) -0.023(2)
H1D H -0.130(2) -0.293(3) 0.023(2)
H1B H -0.130(2) 0.293(3) 0.023(2)
H2F H 0.071(2) -0.248(4) -0.154(2)
H2D H -0.071(2) -0.248(4) 0.154(2)
H2B H -0.071(2) 0.248(4) 0.154(2)
O3 O 0.16036(16) 0.50000 0.09427(18)
H3 H 0.119(3) 0.50000 0.159(3)
H4 H 0.2412(19) 0.50000 0.122(5)
loop_
_geom_bond_atom_site_label_1
_geom_bond_atom_site_label_2
_geom_bond_site_symmetry_1
_geom_bond_site_symmetry_2
Co1 O1 1_555 1_555
O1 H1 1_555 1_555
C1 N1 1_555 1_555
N1 Co1 1_555 1_555
C2 C1 1_555 1_555
C3 C4 1_555 1_555
C4 C2 1_555 1_555
C5 C2 1_555 1_555
N2 C5 1_555 1_555
O2 C3 1_555 1_555
H2 O1 1_555 1_555
O3 H3 1_555 1_555
H4 O3 1_555 1_555
Co1_2 N1D 1_555 1_555
O1F Co1 1_555 1_555
O1D Co1 1_555 1_555
O1B Co1 1_555 1_555
C1D N1D 1_555 1_555
N1D_2 Co1 1_555 1_555
C2D C1D 1_555 1_555
C3D C4 1_555 1_555
C4D C3 1_555 1_555
C5D C2D 1_555 1_555
N2D C5D 1_555 1_555
O2D C3D 1_555 1_555
H1F O1F 1_555 1_555
H1D O1D 1_555 1_555
H1B O1B 1_555 1_555
H2F O1F 1_555 1_555
H2D O1D 1_555 1_555
H2B O1B 1_555 1_555
C2D C4D 1_555 1_555
C3D C4D 1_555 1_555

#END
