
#######################################################################
#
#                 Cambridge Crystallographic Data Centre
#                                CCDC 
#
#######################################################################
#
# If this CIF has been generated from an entry in the Cambridge 
# Structural Database, then it will include bibliographic, chemical, 
# crystal, experimental, refinement or atomic coordinate data resulting 
# from the CCDC's data processing and validation procedures.
#
#######################################################################

data_JOCLOD
_symmetry_cell_setting           tetragonal
_symmetry_space_group_name_H-M   'I 41/a c d'
_symmetry_Int_Tables_number      142
_space_group_name_Hall           '-I 4bd 2c'
loop_
_symmetry_equiv_pos_site_id
_symmetry_equiv_pos_as_xyz
1 x,y,z
2 1/4-y,3/4+x,1/4+z
3 1/4+y,1/4-x,3/4+z
4 1/4+y,3/4+x,3/4-z
5 1/4-y,1/4-x,1/4-z
6 1/2+x,1/2+y,1/2+z
7 3/4-y,1/4+x,3/4+z
8 3/4+y,3/4-x,1/4+z
9 3/4+y,1/4+x,1/4-z
10 1/2-x,-y,1/2+z
11 1/2-x,y,-z
12 x,-y,1/2-z
13 -x,1/2-y,z
14 -x,1/2+y,1/2-z
15 1/2+x,1/2-y,-z
16 3/4-y,3/4-x,3/4-z
17 -x,-y,-z
18 3/4+y,1/4-x,3/4-z
19 3/4-y,3/4+x,1/4-z
20 3/4-y,1/4-x,1/4+z
21 3/4+y,3/4+x,3/4+z
22 1/2-x,1/2-y,1/2-z
23 1/4+y,3/4-x,1/4-z
24 1/4-y,1/4+x,3/4-z
25 1/4-y,3/4-x,3/4+z
26 1/2+x,y,1/2-z
27 1/2+x,-y,z
28 -x,y,1/2+z
29 x,1/2+y,-z
30 x,1/2-y,1/2+z
31 1/2-x,1/2+y,z
32 1/4+y,1/4+x,1/4+z
_cell_length_a                   15.645(8)
_cell_length_b                   15.645(8)
_cell_length_c                   19.75(2)
_cell_angle_alpha                90
_cell_angle_beta                 90
_cell_angle_gamma                90
_cell_volume                     4834.13
loop_
_atom_site_label
_atom_site_type_symbol
_atom_site_fract_x
_atom_site_fract_y
_atom_site_fract_z
O2 O 0.3255(4) 0.4023(4) -0.0079(4)
O3 O 0.2975(5) 0.3561(5) 0.0365(3)
O4 O 0.2737(5) 0.3948(7) -0.0612(3)
N2 N 0.2500 0.3836(2) 0.0000
O2J O 0.1745(4) 0.4023(4) 0.0079(4)
O3J O 0.2025(5) 0.3561(5) -0.0365(3)
O4J O 0.2263(5) 0.3948(7) 0.0612(3)
Co1 Co 0.0000 0.2500 0.1250
O1 O 0.09420(13) 0.34420(13) 0.1250
H1 H 0.1312(17) 0.355(2) 0.0935(14)
N1 N 0.06777(13) 0.18031(14) 0.04619(11)
C1 C 0.02823(18) 0.14756(19) -0.00864(14)
H2 H -0.0311 0.1503 -0.0108
C2 C 0.07165(19) 0.1102(2) -0.06151(15)
H3 H 0.0420 0.0880 -0.0983
C3 C 0.15991(18) 0.10613(19) -0.05934(15)
H4 H 0.1903 0.0822 -0.0951
C4 C 0.20261(15) 0.13821(14) -0.00298(12)
C5 C 0.15343(16) 0.17433(15) 0.04816(12)
H5 H 0.1815 0.1957 0.0861
Co1B Co 0.5000 0.2500 -0.1250
Co1A Co 0.0000 -0.2500 0.3750
O1D O -0.09420(13) 0.15580(13) 0.1250
H1H H 0.105(2) 0.3812(17) 0.1565(14)
H1D H -0.105(2) 0.1188(17) 0.1565(14)
H1L H -0.1312(17) 0.145(2) 0.0935(14)
N1J N 0.43223(13) 0.18031(14) -0.04619(11)
N1D N 0.06969(14) 0.18223(13) 0.20381(11)
N1A N 0.06969(14) -0.18223(13) 0.29619(11)
N1H N -0.06969(14) 0.31777(13) 0.20381(11)
N1L N -0.06777(13) 0.31969(14) 0.04619(11)
C1J C 0.47177(18) 0.14756(19) 0.00864(14)
C1D C 0.10244(19) 0.22177(18) 0.25864(14)
C1A C 0.10244(19) -0.22177(18) 0.24136(14)
H2J H 0.5311 0.1503 0.0108
H2D H 0.0997 0.2811 0.2608
H2A H 0.0997 -0.2811 0.2392
C2J C 0.42835(19) 0.1102(2) 0.06151(15)
C2D C 0.1398(2) 0.17835(19) 0.31151(15)
C2A C 0.1398(2) -0.17835(19) 0.18849(15)
H3J H 0.4580 0.0880 0.0983
H3D H 0.1620 0.2080 0.3483
H3A H 0.1620 -0.2080 0.1517
C3J C 0.34009(18) 0.10613(19) 0.05934(15)
C3D C 0.14387(19) 0.09009(18) 0.30934(15)
C3A C 0.14387(19) -0.09009(18) 0.19066(15)
H4J H 0.3097 0.0822 0.0951
H4D H 0.1678 0.0597 0.3451
H4A H 0.1678 -0.0597 0.1549
C4J C 0.29739(15) 0.13821(14) 0.00298(12)
C4D C 0.11179(14) 0.04739(15) 0.25298(12)
C4A C 0.11179(14) -0.04739(15) 0.24702(12)
C5J C 0.34657(16) 0.17433(15) -0.04816(12)
C5D C 0.07567(15) 0.09657(16) 0.20184(12)
C5A C 0.07567(15) -0.09657(16) 0.29816(12)
H5J H 0.3185 0.1957 -0.0861
H5D H 0.0543 0.0685 0.1639
H5A H 0.0543 -0.0685 0.3361
loop_
_geom_bond_atom_site_label_1
_geom_bond_atom_site_label_2
_geom_bond_site_symmetry_1
_geom_bond_site_symmetry_2
Co1 O1 1_555 1_555
O1 H1 1_555 1_555
O2 O3 1_555 1_555
O3 N2 1_555 1_555
O4 O2 1_555 1_555
N1 Co1 1_555 1_555
N2 O2 1_555 1_555
C1 N1 1_555 1_555
H2 C1 1_555 1_555
C2 C1 1_555 1_555
H3 C2 1_555 1_555
C3 C2 1_555 1_555
H4 C3 1_555 1_555
C4 C3 1_555 1_555
C5 N1 1_555 1_555
H5 C5 1_555 1_555
Co1B N1J 1_555 1_555
Co1A N1A 1_555 1_555
O1D Co1 1_555 1_555
H1H O1 1_555 1_555
H1D O1D 1_555 1_555
H1L O1D 1_555 1_555
O2J N2 1_555 1_555
O3J O4 1_555 1_555
O4J O3 1_555 1_555
N1J C1J 1_555 1_555
N1D Co1 1_555 1_555
N1A C1A 1_555 1_555
N1H Co1 1_555 1_555
N1L Co1 1_555 1_555
C1J H2J 1_555 1_555
C1D N1D 1_555 1_555
C1A H2A 1_555 1_555
H2D C1D 1_555 1_555
C2J C1J 1_555 1_555
C2D C1D 1_555 1_555
C2A C1A 1_555 1_555
H3J C2J 1_555 1_555
H3D C2D 1_555 1_555
H3A C2A 1_555 1_555
C3J C2J 1_555 1_555
C3D C2D 1_555 1_555
C3A C2A 1_555 1_555
H4J C3J 1_555 1_555
H4D C3D 1_555 1_555
H4A C3A 1_555 1_555
C4J C4 1_555 1_555
C4D C3D 1_555 1_555
C4A C3A 1_555 1_555
C5J N1J 1_555 1_555
C5D N1D 1_555 1_555
C5A N1A 1_555 1_555
H5J C5J 1_555 1_555
H5D C5D 1_555 1_555
H5A C5A 1_555 1_555
O4 N2 1_555 1_555
N2 O3J 1_555 1_555
N2 O4J 1_555 1_555
C4 C5 1_555 1_555
O2J O3J 1_555 1_555
O2J O4J 1_555 1_555
C3J C4J 1_555 1_555
C4J C5J 1_555 1_555
C4D C4A 1_555 1_555
C4D C5D 1_555 1_555
C4A C5A 1_555 1_555

#END
