
#######################################################################
#
#                 Cambridge Crystallographic Data Centre
#                                CCDC 
#
#######################################################################
#
# If this CIF has been generated from an entry in the Cambridge 
# Structural Database, then it will include bibliographic, chemical, 
# crystal, experimental, refinement or atomic coordinate data resulting 
# from the CCDC's data processing and validation procedures.
#
#######################################################################

data_JOCLIX
_symmetry_cell_setting           monoclinic
_symmetry_space_group_name_H-M   'C 2/c'
_symmetry_Int_Tables_number      15
_space_group_name_Hall           '-C 2yn'
loop_
_symmetry_equiv_pos_site_id
_symmetry_equiv_pos_as_xyz
1 x,y,z
2 1/2+x,1/2+y,z
3 -x,y,1/2-z
4 1/2-x,1/2+y,1/2-z
5 -x,-y,-z
6 1/2-x,1/2-y,-z
7 x,-y,1/2+z
8 1/2+x,1/2-y,1/2+z
_cell_length_a                   24.587(5)
_cell_length_b                   9.996(2)
_cell_length_c                   16.417(4)
_cell_angle_alpha                90
_cell_angle_beta                 118.384(3)
_cell_angle_gamma                90
_cell_volume                     3549.77
loop_
_atom_site_label
_atom_site_type_symbol
_atom_site_fract_x
_atom_site_fract_y
_atom_site_fract_z
Cd1 Cd 0.0000 0.0000 0.0000
O1 O 0.10194(11) -0.0054(2) 0.0559(2)
H1 H 0.1250(15) 0.057(3) 0.088(2)
H2 H 0.1181(16) -0.069(3) 0.044(3)
O2 O 0.00954(12) -0.1355(3) 0.11889(15)
H3 H 0.0420(11) -0.146(4) 0.1686(19)
H4 H -0.0215(12) -0.160(4) 0.126(3)
N1 N 0.01278(9) 0.1975(2) 0.08751(13)
C1 C -0.00089(10) 0.2027(2) 0.15773(15)
H5 H -0.0170 0.1265 0.1709
C2 C 0.00777(10) 0.3156(2) 0.21143(14)
C3 C 0.03149(13) 0.4288(3) 0.19076(18)
H6 H 0.0380 0.5067 0.2252
C4 C 0.04531(14) 0.4244(3) 0.1183(2)
H7 H 0.0610 0.4995 0.1032
C5 C 0.03556(13) 0.3079(3) 0.06898(18)
H8 H 0.0452 0.3056 0.0207
Cd1F Cd 0.0000 0.0000 0.5000
O1D O -0.10194(11) 0.0054(2) -0.0559(2)
H1D H -0.1250(15) -0.057(3) -0.088(2)
H2D H -0.1181(16) 0.069(3) -0.044(3)
O2D O -0.00954(12) 0.1355(3) -0.11889(15)
H3D H -0.0420(11) 0.146(4) -0.1686(19)
H4D H 0.0215(12) 0.160(4) -0.126(3)
N1B N -0.01278(9) 0.1975(2) 0.41249(13)
N1D N -0.01278(9) -0.1975(2) -0.08751(13)
C1B C 0.00089(10) 0.2027(2) 0.34227(15)
H5B H 0.0170 0.1265 0.3291
C2B C -0.00777(10) 0.3156(2) 0.28857(14)
C3B C -0.03149(13) 0.4288(3) 0.30924(18)
H6B H -0.0380 0.5067 0.2748
C4B C -0.04531(14) 0.4244(3) 0.3817(2)
H7B H -0.0610 0.4995 0.3968
C5B C -0.03556(13) 0.3079(3) 0.43102(18)
H8B H -0.0452 0.3056 0.4793
Cl1 Cl 0.12703(4) -0.19161(9) 0.35317(7)
O3 O 0.0955(2) -0.2672(3) 0.3900(4)
O4 O 0.18626(17) -0.1566(5) 0.4201(3)
O5 O 0.13034(19) -0.2690(4) 0.2844(3)
O6 O 0.09155(13) -0.0747(2) 0.3133(2)
N2 N 0.15187(11) 0.2139(3) 0.50682(16)
N3 N 0.17813(10) 0.1747(2) 0.18622(16)
C6 C 0.16600(12) 0.2062(3) 0.43799(19)
H9 H 0.1694 0.1218 0.4170
C7 C 0.17593(11) 0.3173(2) 0.39580(17)
C8 C 0.17148(16) 0.4404(3) 0.4290(2)
H10 H 0.1777 0.5178 0.4031
C9 C 0.1577(2) 0.4488(4) 0.5012(3)
H11 H 0.1548 0.5317 0.5245
C10 C 0.14845(16) 0.3342(4) 0.5378(2)
H12 H 0.1393 0.3407 0.5866
C11 C 0.16717(11) 0.1949(2) 0.25735(19)
H13 H 0.1423 0.1333 0.2667
C12 C 0.19038(11) 0.3014(2) 0.31835(17)
C13 C 0.22720(14) 0.3921(3) 0.3022(2)
H14 H 0.2436 0.4661 0.3404
C14 C 0.23910(15) 0.3716(3) 0.2297(2)
H15 H 0.2640 0.4312 0.2189
C15 C 0.21421(14) 0.2632(3) 0.1733(2)
H16 H 0.2226 0.2504 0.1243
loop_
_geom_bond_atom_site_label_1
_geom_bond_atom_site_label_2
_geom_bond_site_symmetry_1
_geom_bond_site_symmetry_2
Cd1 O1 1_555 1_555
Cl1 O3 1_555 1_555
O1 H1 1_555 1_555
H2 O1 1_555 1_555
O2 Cd1 1_555 1_555
H3 O2 1_555 1_555
H4 O2 1_555 1_555
O4 Cl1 1_555 1_555
O5 Cl1 1_555 1_555
O6 Cl1 1_555 1_555
N1 Cd1 1_555 1_555
N2 C6 1_555 1_555
N3 C11 1_555 1_555
C1 N1 1_555 1_555
H5 C1 1_555 1_555
C2 C1 1_555 1_555
C3 C2 1_555 1_555
H6 C3 1_555 1_555
C4 C3 1_555 1_555
H7 C4 1_555 1_555
C5 N1 1_555 1_555
H8 C5 1_555 1_555
C6 H9 1_555 1_555
C7 C6 1_555 1_555
C8 C7 1_555 1_555
H10 C8 1_555 1_555
C9 C8 1_555 1_555
H11 C9 1_555 1_555
C10 N2 1_555 1_555
H12 C10 1_555 1_555
C11 H13 1_555 1_555
C12 C7 1_555 1_555
C13 C12 1_555 1_555
H14 C13 1_555 1_555
C14 C13 1_555 1_555
H15 C14 1_555 1_555
C15 N3 1_555 1_555
H16 C15 1_555 1_555
Cd1F N1B 1_555 1_555
O1D Cd1 1_555 1_555
H1D O1D 1_555 1_555
H2D O1D 1_555 1_555
O2D Cd1 1_555 1_555
H3D O2D 1_555 1_555
H4D O2D 1_555 1_555
N1B C1B 1_555 1_555
N1D Cd1 1_555 1_555
C1B H5B 1_555 1_555
C2B C2 1_555 1_555
C3B C2B 1_555 1_555
H6B C3B 1_555 1_555
C4B C3B 1_555 1_555
H7B C4B 1_555 1_555
C5B N1B 1_555 1_555
H8B C5B 1_555 1_555
C4 C5 1_555 1_555
C9 C10 1_555 1_555
C11 C12 1_555 1_555
C14 C15 1_555 1_555
C1B C2B 1_555 1_555
C4B C5B 1_555 1_555

#END
