
#######################################################################
#
#                 Cambridge Crystallographic Data Centre
#                                CCDC 
#
#######################################################################
#
# If this CIF has been generated from an entry in the Cambridge 
# Structural Database, then it will include bibliographic, chemical, 
# crystal, experimental, refinement or atomic coordinate data resulting 
# from the CCDC's data processing and validation procedures.
#
#######################################################################

data_JOCLET
_symmetry_cell_setting           monoclinic
_symmetry_space_group_name_H-M   'C 2/c'
_symmetry_Int_Tables_number      15
_space_group_name_Hall           '-C 2yn'
loop_
_symmetry_equiv_pos_site_id
_symmetry_equiv_pos_as_xyz
1 x,y,z
2 1/2+x,1/2+y,z
3 -x,y,1/2-z
4 1/2-x,1/2+y,1/2-z
5 -x,-y,-z
6 1/2-x,1/2-y,-z
7 x,-y,1/2+z
8 1/2+x,1/2-y,1/2+z
_cell_length_a                   24.383(12)
_cell_length_b                   9.970(5)
_cell_length_c                   16.114(8)
_cell_angle_alpha                90
_cell_angle_beta                 117.650(7)
_cell_angle_gamma                90
_cell_volume                     3469.93
loop_
_atom_site_label
_atom_site_type_symbol
_atom_site_fract_x
_atom_site_fract_y
_atom_site_fract_z
Zn1 Zn 0.0000 0.0000 0.0000
O1 O 0.01022(13) 0.1197(3) 0.11319(17)
H1 H -0.0190(13) 0.149(4) 0.123(3)
H2 H 0.0434(11) 0.132(4) 0.1614(19)
O2 O 0.09335(11) 0.0042(3) 0.04713(19)
H3 H 0.1124(16) 0.068(3) 0.036(3)
H4 H 0.1192(15) -0.052(3) 0.085(2)
N1 N 0.01214(12) -0.1865(3) 0.08290(17)
C1 C 0.03516(16) -0.2976(3) 0.0644(2)
H5 H 0.0451 -0.2957 0.0152
C2 C 0.04480(17) -0.4136(4) 0.1141(2)
H6 H 0.0603 -0.4889 0.0980
C3 C 0.03141(16) -0.4186(3) 0.1886(2)
H7 H 0.0382 -0.4967 0.2236
C4 C 0.00765(13) -0.3047(3) 0.2100(2)
C5 C -0.00117(14) -0.1919(3) 0.1555(2)
H8 H -0.0172 -0.1155 0.1694
Zn1F Zn 0.0000 0.0000 0.5000
O1D O -0.01022(13) -0.1197(3) -0.11319(17)
H1D H 0.0190(13) -0.149(4) -0.123(3)
H2D H -0.0434(11) -0.132(4) -0.1614(19)
O2D O -0.09335(11) -0.0042(3) -0.04713(19)
H3D H -0.1124(16) -0.068(3) -0.036(3)
H4D H -0.1192(15) 0.052(3) -0.085(2)
N1B N -0.01214(12) -0.1865(3) 0.41710(17)
N1D N -0.01214(12) 0.1865(3) -0.08290(17)
C1B C -0.03516(16) -0.2976(3) 0.4356(2)
H5B H -0.0451 -0.2957 0.4848
C2B C -0.04480(17) -0.4136(4) 0.3859(2)
H6B H -0.0603 -0.4889 0.4020
C3B C -0.03141(16) -0.4186(3) 0.3114(2)
H7B H -0.0382 -0.4967 0.2764
C4B C -0.00765(13) -0.3047(3) 0.2900(2)
C5B C 0.00117(14) -0.1919(3) 0.3445(2)
H8B H 0.0172 -0.1155 0.3306
Cl1 Cl 0.12289(5) 0.20158(10) 0.34874(7)
O3 O 0.18253(17) 0.1752(6) 0.4185(3)
O4 O 0.1259(2) 0.2759(4) 0.2770(3)
O5 O 0.0887(2) 0.2748(4) 0.3835(4)
O6 O 0.09078(15) 0.0793(3) 0.3129(2)
N2 N 0.17574(13) 0.8332(3) 0.1806(2)
N3 N 0.14874(14) 0.7866(3) 0.5068(2)
C6 C 0.16583(15) 0.8113(3) 0.2540(2)
H9 H 0.1400 0.8707 0.2639
C7 C 0.19125(14) 0.7063(3) 0.3168(2)
C8 C 0.22958(16) 0.6194(4) 0.3002(3)
H10 H 0.2472 0.5461 0.3393
C9 C 0.24144(19) 0.6418(4) 0.2258(3)
H11 H 0.2681 0.5857 0.2153
C10 C 0.21336(17) 0.7478(4) 0.1674(3)
H12 H 0.2207 0.7611 0.1163
C11 C 0.16333(15) 0.7970(3) 0.4366(3)
H13 H 0.1648 0.8822 0.4142
C12 C 0.17644(15) 0.6877(3) 0.3953(2)
C13 C 0.1747(2) 0.5623(4) 0.4308(3)
H14 H 0.1829 0.4857 0.4055
C14 C 0.1607(2) 0.5522(5) 0.5041(3)
H15 H 0.1599 0.4687 0.5292
C15 C 0.14792(19) 0.6651(4) 0.5396(3)
H16 H 0.1383 0.6566 0.5888
loop_
_geom_bond_atom_site_label_1
_geom_bond_atom_site_label_2
_geom_bond_site_symmetry_1
_geom_bond_site_symmetry_2
Zn1 O1 1_555 1_555
O1 H1 1_555 1_555
H2 O1 1_555 1_555
O2 Zn1 1_555 1_555
H3 O2 1_555 1_555
H4 O2 1_555 1_555
N1 Zn1 1_555 1_555
C1 N1 1_555 1_555
H5 C1 1_555 1_555
C2 C1 1_555 1_555
H6 C2 1_555 1_555
C3 C2 1_555 1_555
H7 C3 1_555 1_555
C4 C3 1_555 1_555
C5 N1 1_555 1_555
H8 C5 1_555 1_555
Cl1 O3 1_555 1_555
O4 Cl1 1_555 1_555
O5 Cl1 1_555 1_555
O6 Cl1 1_555 1_555
N2 C6 1_555 1_555
N3 C11 1_555 1_555
C6 H9 1_555 1_555
C7 C6 1_555 1_555
C8 C7 1_555 1_555
H10 C8 1_555 1_555
C9 C8 1_555 1_555
H11 C9 1_555 1_555
C10 N2 1_555 1_555
H12 C10 1_555 1_555
C11 H13 1_555 1_555
C12 C7 1_555 1_555
C13 C12 1_555 1_555
H14 C13 1_555 1_555
C14 C13 1_555 1_555
H15 C14 1_555 1_555
C15 N3 1_555 1_555
H16 C15 1_555 1_555
Zn1F N1B 1_555 1_555
O1D Zn1 1_555 1_555
H1D O1D 1_555 1_555
H2D O1D 1_555 1_555
O2D Zn1 1_555 1_555
H3D O2D 1_555 1_555
H4D O2D 1_555 1_555
N1B C1B 1_555 1_555
N1D Zn1 1_555 1_555
C1B H5B 1_555 1_555
C2B C1B 1_555 1_555
H6B C2B 1_555 1_555
C3B C2B 1_555 1_555
H7B C3B 1_555 1_555
C4B C4 1_555 1_555
C5B N1B 1_555 1_555
H8B C5B 1_555 1_555
C4 C5 1_555 1_555
C9 C10 1_555 1_555
C11 C12 1_555 1_555
C14 C15 1_555 1_555
C3B C4B 1_555 1_555
C4B C5B 1_555 1_555

#END
