
#######################################################################
#
#                 Cambridge Crystallographic Data Centre
#                                CCDC 
#
#######################################################################
#
# If this CIF has been generated from an entry in the Cambridge 
# Structural Database, then it will include bibliographic, chemical, 
# crystal, experimental, refinement or atomic coordinate data resulting 
# from the CCDC's data processing and validation procedures.
#
#######################################################################

data_JOCLAP
_symmetry_cell_setting           monoclinic
_symmetry_space_group_name_H-M   'C 2/c'
_symmetry_Int_Tables_number      15
_space_group_name_Hall           '-C 2yn'
loop_
_symmetry_equiv_pos_site_id
_symmetry_equiv_pos_as_xyz
1 x,y,z
2 1/2+x,1/2+y,z
3 -x,y,1/2-z
4 1/2-x,1/2+y,1/2-z
5 -x,-y,-z
6 1/2-x,1/2-y,-z
7 x,-y,1/2+z
8 1/2+x,1/2-y,1/2+z
_cell_length_a                   24.034(5)
_cell_length_b                   9.913(2)
_cell_length_c                   16.114(3)
_cell_angle_alpha                90
_cell_angle_beta                 117.471(3)
_cell_angle_gamma                90
_cell_volume                     3406.26
loop_
_atom_site_label
_atom_site_type_symbol
_atom_site_fract_x
_atom_site_fract_y
_atom_site_fract_z
Co1 Co 0.0000 0.0000 0.0000
O5 O 0.01300(9) -0.1218(2) 0.11351(13)
H1 H -0.0161(11) -0.156(3) 0.122(2)
H2 H 0.0437(11) -0.110(3) 0.1665(15)
O6 O 0.09397(9) 0.00138(19) 0.04341(14)
H3 H 0.1130(14) -0.063(2) 0.034(2)
H4 H 0.1204(13) 0.056(3) 0.0833(19)
N1 N 0.01225(9) 0.1855(2) 0.08277(13)
C1 C 0.03525(12) 0.2984(3) 0.06340(17)
H5 H 0.0450 0.2968 0.0138
C3 C 0.04503(12) 0.4161(3) 0.11349(18)
H7 H 0.0605 0.4920 0.0971
C5 C 0.03171(11) 0.4208(2) 0.18837(17)
H9 H 0.0387 0.4993 0.2234
C7 C 0.00763(10) 0.3055(2) 0.21033(15)
C9 C -0.00144(10) 0.1916(2) 0.15505(15)
H11 H -0.0180 0.1150 0.1688
Co1F Co 0.0000 0.0000 0.5000
O5D O -0.01300(9) 0.1218(2) -0.11351(13)
H1D H 0.0161(11) 0.156(3) -0.122(2)
H2D H -0.0437(11) 0.110(3) -0.1665(15)
O6D O -0.09397(9) -0.00138(19) -0.04341(14)
H3D H -0.1130(14) 0.063(2) -0.034(2)
H4D H -0.1204(13) -0.056(3) -0.0833(19)
N1B N -0.01225(9) 0.1855(2) 0.41723(13)
N1D N -0.01225(9) -0.1855(2) -0.08277(13)
C1B C -0.03525(12) 0.2984(3) 0.43660(17)
H5B H -0.0450 0.2968 0.4862
C3B C -0.04503(12) 0.4161(3) 0.38651(18)
H7B H -0.0605 0.4920 0.4029
C5B C -0.03171(11) 0.4208(2) 0.31163(17)
H9B H -0.0387 0.4993 0.2766
C7B C -0.00763(10) 0.3055(2) 0.28967(15)
C9B C 0.00144(10) 0.1916(2) 0.34495(15)
H11B H 0.0180 0.1150 0.3312
Cl1 Cl 0.12381(3) -0.19906(7) 0.35048(5)
O1 O 0.08685(16) -0.2693(3) 0.3852(3)
O2 O 0.18374(13) -0.1670(4) 0.42429(19)
O3 O 0.13047(14) -0.2811(3) 0.2832(2)
O4 O 0.09162(10) -0.0762(2) 0.30684(16)
N2 N 0.17640(9) 0.1721(2) 0.17789(15)
N3 N 0.15047(10) 0.2107(2) 0.50602(16)
C2 C 0.21470(12) 0.2588(3) 0.1648(2)
H6 H 0.2229 0.2454 0.1143
C4 C 0.24231(13) 0.3671(3) 0.2236(2)
H8 H 0.2687 0.4253 0.2128
C6 C 0.23028(12) 0.3880(3) 0.29854(19)
H10 H 0.2478 0.4614 0.3380
C8 C 0.19147(10) 0.2978(2) 0.31483(17)
C10 C 0.16615(11) 0.1920(2) 0.25175(18)
H12 H 0.1404 0.1310 0.2616
C11 C 0.14768(14) 0.3328(3) 0.5388(2)
H13 H 0.1381 0.3395 0.5884
C12 C 0.15849(16) 0.4491(3) 0.5019(2)
H14 H 0.1559 0.5329 0.5260
C13 C 0.17316(14) 0.4401(3) 0.4286(2)
H15 H 0.1805 0.5178 0.4029
C14 C 0.17680(11) 0.3140(2) 0.39374(17)
C15 C 0.16514(11) 0.2022(3) 0.43599(18)
H16 H 0.1678 0.1170 0.4140
loop_
_geom_bond_atom_site_label_1
_geom_bond_atom_site_label_2
_geom_bond_site_symmetry_1
_geom_bond_site_symmetry_2
Co1 O5 1_555 1_555
Cl1 O1 1_555 1_555
O2 Cl1 1_555 1_555
O3 Cl1 1_555 1_555
O4 Cl1 1_555 1_555
O5 H1 1_555 1_555
H2 O5 1_555 1_555
O6 Co1 1_555 1_555
H3 O6 1_555 1_555
H4 O6 1_555 1_555
N1 Co1 1_555 1_555
N2 C2 1_555 1_555
N3 C11 1_555 1_555
C1 N1 1_555 1_555
H5 C1 1_555 1_555
C2 H6 1_555 1_555
C3 C1 1_555 1_555
H7 C3 1_555 1_555
C4 C2 1_555 1_555
H8 C4 1_555 1_555
C5 C3 1_555 1_555
H9 C5 1_555 1_555
C6 C4 1_555 1_555
H10 C6 1_555 1_555
C7 C5 1_555 1_555
C8 C6 1_555 1_555
C9 N1 1_555 1_555
H11 C9 1_555 1_555
C10 N2 1_555 1_555
H12 C10 1_555 1_555
C11 H13 1_555 1_555
C12 C11 1_555 1_555
H14 C12 1_555 1_555
C13 C12 1_555 1_555
H15 C13 1_555 1_555
C14 C8 1_555 1_555
C15 N3 1_555 1_555
H16 C15 1_555 1_555
Co1F N1B 1_555 1_555
O5D Co1 1_555 1_555
H1D O5D 1_555 1_555
H2D O5D 1_555 1_555
O6D Co1 1_555 1_555
H3D O6D 1_555 1_555
H4D O6D 1_555 1_555
N1B C1B 1_555 1_555
N1D Co1 1_555 1_555
C1B H5B 1_555 1_555
C3B C1B 1_555 1_555
H7B C3B 1_555 1_555
C5B C3B 1_555 1_555
H9B C5B 1_555 1_555
C7B C7 1_555 1_555
C9B N1B 1_555 1_555
H11B C9B 1_555 1_555
C7 C9 1_555 1_555
C8 C10 1_555 1_555
C13 C14 1_555 1_555
C14 C15 1_555 1_555
C5B C7B 1_555 1_555
C7B C9B 1_555 1_555

#END
