
#######################################################################
#
#                 Cambridge Crystallographic Data Centre
#                                CCDC 
#
#######################################################################
#
# If this CIF has been generated from an entry in the Cambridge 
# Structural Database, then it will include bibliographic, chemical, 
# crystal, experimental, refinement or atomic coordinate data resulting 
# from the CCDC's data processing and validation procedures.
#
#######################################################################

data_JOCTEB
_symmetry_cell_setting           monoclinic
_symmetry_space_group_name_H-M   'P 21/c'
_symmetry_Int_Tables_number      14
_space_group_name_Hall           '-P 2ybc'
loop_
_symmetry_equiv_pos_site_id
_symmetry_equiv_pos_as_xyz
1 x,y,z
2 -x,1/2+y,1/2-z
3 -x,-y,-z
4 x,1/2-y,1/2+z
_cell_length_a                   23.5190(5)
_cell_length_b                   14.3220(3)
_cell_length_c                   15.3060(3)
_cell_angle_alpha                90
_cell_angle_beta                 106.822(1)
_cell_angle_gamma                90
_cell_volume                     4935.04
loop_
_atom_site_label
_atom_site_type_symbol
_atom_site_fract_x
_atom_site_fract_y
_atom_site_fract_z
Fe1 Fe 0.06512(7) 0.50029(9) 0.75990(10)
Au1 Au 0.05369(2) 0.74106(3) 1.01197(3)
Au2 Au 0.07784(2) 0.23779(3) 1.00518(3)
I1 I 0.28471(4) 0.74736(7) 0.87619(7)
I2 I -0.19044(4) 0.64860(7) 0.60110(7)
N1 N 0.1633(4) 0.5161(6) 0.8166(6)
N2 N -0.0329(4) 0.4791(6) 0.7012(6)
N3 N 0.0807(4) 0.4044(6) 0.6614(7)
N4 N 0.0681(4) 0.3874(6) 0.8531(7)
N5 N 0.0500(4) 0.6002(6) 0.8557(7)
N6 N 0.0632(4) 0.6126(6) 0.6666(6)
C1 C 0.1978(6) 0.4405(8) 0.8326(8)
H1 H 0.1805 0.3815 0.8247
C2 C 0.2596(6) 0.4485(10) 0.8609(9)
H2 H 0.2830 0.3950 0.8707
C3 C 0.2863(6) 0.5356(10) 0.8745(9)
H3 H 0.3274 0.5416 0.8929
C4 C 0.2500(5) 0.6129(8) 0.8599(8)
C5 C 0.1882(5) 0.5989(8) 0.8290(8)
H4 H 0.1637 0.6511 0.8168
C6 C -0.0562(6) 0.3926(8) 0.6900(10)
H5 H -0.0304 0.3422 0.7064
C7 C -0.1149(7) 0.3748(10) 0.6562(11)
H6 H -0.1282 0.3134 0.6499
C8 C -0.1545(6) 0.4460(10) 0.6314(11)
H7 H -0.1951 0.4345 0.6100
C9 C -0.1328(6) 0.5350(8) 0.6388(9)
C10 C -0.0714(6) 0.5494(9) 0.6724(8)
H8 H -0.0568 0.6100 0.6749
C11 C 0.0728(5) 0.3318(7) 0.9079(8)
C12 C 0.0508(5) 0.6494(8) 0.9155(8)
C13 C 0.0601(5) 0.6668(8) 0.6116(8)
C14 C 0.0817(5) 0.3548(8) 0.6033(8)
Au1C Au 0.05369(2) 0.75894(3) 0.51197(3)
Au2C Au 0.07784(2) 0.26221(3) 0.50518(3)
C13C C 0.0601(5) 0.8332(8) 1.1116(8)
C14C C 0.0817(5) 0.1452(8) 1.1033(8)
Fe2 Fe 0.42913(7) 0.50047(9) 0.71397(10)
Au3 Au 0.41214(2) 0.25815(3) 0.96459(3)
Au4 Au 0.44864(2) 0.75719(3) 0.96532(3)
I3 I 0.66895(5) 0.50786(8) 0.63752(8)
I4 I 0.21253(4) 0.76003(6) 0.59171(7)
N7 N 0.5258(4) 0.4626(6) 0.7553(7)
N8 N 0.3314(4) 0.5243(7) 0.6654(6)
N9 N 0.4124(4) 0.4030(6) 0.8130(7)
N10 N 0.4416(5) 0.6094(7) 0.8138(7)
N11 N 0.4410(4) 0.5987(6) 0.6159(6)
N12 N 0.4170(5) 0.3892(6) 0.6158(7)
C15 C 0.5512(7) 0.4111(11) 0.8243(11)
H9 H 0.5291 0.3957 0.8637
C16 C 0.6074(7) 0.3772(12) 0.8447(11)
H10 H 0.6222 0.3367 0.8934
C17 C 0.6421(7) 0.4055(11) 0.7899(12)
H11 H 0.6815 0.3864 0.8025
C18 C 0.6181(6) 0.4599(9) 0.7197(9)
C19 C 0.5593(6) 0.4864(8) 0.7022(9)
H12 H 0.5424 0.5226 0.6508
C20 C 0.2937(6) 0.4515(8) 0.6558(8)
H13 H 0.3094 0.3916 0.6668
C21 C 0.2333(6) 0.4622(9) 0.6306(9)
H14 H 0.2089 0.4104 0.6266
C22 C 0.2092(6) 0.5483(9) 0.6115(8)
H15 H 0.1682 0.5568 0.5930
C23 C 0.2473(5) 0.6226(8) 0.6207(7)
C24 C 0.3079(5) 0.6088(8) 0.6467(7)
H16 H 0.3329 0.6599 0.6513
C25 C 0.4110(5) 0.3504(8) 0.8668(9)
C26 C 0.4452(5) 0.6646(8) 0.8694(8)
C27 C 0.4449(5) 0.6508(8) 0.5628(9)
C28 C 0.4148(6) 0.3343(8) 0.5608(9)
Au3C Au 0.41214(2) 0.24185(3) 0.46459(3)
Au4C Au 0.44864(2) 0.74281(3) 0.46532(3)
C27C C 0.4449(5) 0.8492(8) 1.0628(9)
C28C C 0.4148(6) 0.1657(8) 1.0608(9)
I5 I 0.30517(7) 0.32500(9) 0.10289(12)
N13 N 0.1752(5) 0.5394(5) 0.0715(6)
C29 C 0.1324(4) 0.5013(6) 0.1074(6)
H17 H 0.0988 0.5358 0.1070
C30 C 0.1398(4) 0.4117(6) 0.1438(6)
H18 H 0.1111 0.3863 0.1678
C31 C 0.1899(5) 0.3602(5) 0.1444(7)
H19 H 0.1949 0.3002 0.1687
C32 C 0.2327(4) 0.3982(6) 0.1085(7)
C33 C 0.2254(4) 0.4878(7) 0.0720(7)
H20 H 0.2540 0.5133 0.0480
loop_
_geom_bond_atom_site_label_1
_geom_bond_atom_site_label_2
_geom_bond_site_symmetry_1
_geom_bond_site_symmetry_2
Fe1 N1 1_555 1_555
Au1 C12 1_555 1_555
Au2 C11 1_555 1_555
I1 C4 1_555 1_555
I2 C9 1_555 1_555
N1 C1 1_555 1_555
N2 Fe1 1_555 1_555
N3 Fe1 1_555 1_555
N4 Fe1 1_555 1_555
N5 Fe1 1_555 1_555
N6 Fe1 1_555 1_555
C1 H1 1_555 1_555
C2 C1 1_555 1_555
H2 C2 1_555 1_555
C3 C2 1_555 1_555
H3 C3 1_555 1_555
C4 C3 1_555 1_555
C5 N1 1_555 1_555
H4 C5 1_555 1_555
C6 N2 1_555 1_555
H5 C6 1_555 1_555
C7 C6 1_555 1_555
H6 C7 1_555 1_555
C8 C7 1_555 1_555
H7 C8 1_555 1_555
C9 C8 1_555 1_555
C10 N2 1_555 1_555
H8 C10 1_555 1_555
C11 N4 1_555 1_555
C12 N5 1_555 1_555
C13 N6 1_555 1_555
C14 N3 1_555 1_555
Fe2 N7 1_555 1_555
Au3 C25 1_555 1_555
Au4 C26 1_555 1_555
I3 C18 1_555 1_555
I4 C23 1_555 1_555
N7 C15 1_555 1_555
N8 Fe2 1_555 1_555
N9 Fe2 1_555 1_555
N10 Fe2 1_555 1_555
N11 Fe2 1_555 1_555
N12 Fe2 1_555 1_555
C15 H9 1_555 1_555
C16 C15 1_555 1_555
H10 C16 1_555 1_555
C17 C16 1_555 1_555
H11 C17 1_555 1_555
C18 C17 1_555 1_555
C19 N7 1_555 1_555
H12 C19 1_555 1_555
C20 N8 1_555 1_555
H13 C20 1_555 1_555
C21 C20 1_555 1_555
H14 C21 1_555 1_555
C22 C21 1_555 1_555
H15 C22 1_555 1_555
C23 C22 1_555 1_555
C24 N8 1_555 1_555
H16 C24 1_555 1_555
C25 N9 1_555 1_555
C26 N10 1_555 1_555
C27 N11 1_555 1_555
C28 N12 1_555 1_555
I5 C32 1_555 1_555
N13 C29 1_555 1_555
C29 H17 1_555 1_555
C30 C29 1_555 1_555
H18 C30 1_555 1_555
C31 C30 1_555 1_555
H19 C31 1_555 1_555
C32 C31 1_555 1_555
C33 N13 1_555 1_555
H20 C33 1_555 1_555
Au1C C13 1_555 1_555
Au2C C14 1_555 1_555
C13C Au1 1_555 1_555
C14C Au2 1_555 1_555
Au3C C28 1_555 1_555
Au4C C27 1_555 1_555
C27C Au4 1_555 1_555
C28C Au3 1_555 1_555
C4 C5 1_555 1_555
C9 C10 1_555 1_555
C18 C19 1_555 1_555
C23 C24 1_555 1_555
C32 C33 1_555 1_555

#END
