
#######################################################################
#
#                 Cambridge Crystallographic Data Centre
#                                CCDC 
#
#######################################################################
#
# If this CIF has been generated from an entry in the Cambridge 
# Structural Database, then it will include bibliographic, chemical, 
# crystal, experimental, refinement or atomic coordinate data resulting 
# from the CCDC's data processing and validation procedures.
#
#######################################################################

data_JOCTAX
_symmetry_cell_setting           triclinic
_symmetry_space_group_name_H-M   'P -1'
_symmetry_Int_Tables_number      2
_space_group_name_Hall           '-P 1'
loop_
_symmetry_equiv_pos_site_id
_symmetry_equiv_pos_as_xyz
1 x,y,z
2 -x,-y,-z
_cell_length_a                   10.5380(2)
_cell_length_b                   12.9200(3)
_cell_length_c                   15.7420(4)
_cell_angle_alpha                87.842(1)
_cell_angle_beta                 87.568(1)
_cell_angle_gamma                84.632(1)
_cell_volume                     2130.74
loop_
_atom_site_label
_atom_site_type_symbol
_atom_site_fract_x
_atom_site_fract_y
_atom_site_fract_z
Fe1 Fe 0.73022(15) 0.32214(14) -0.06147(11)
Fe2 Fe 0.80640(16) -0.21676(14) -0.53967(12)
Au1 Au 0.76718(5) 0.06457(4) -0.30729(3)
Au2 Au 1.30665(4) -0.20961(4) -0.54492(3)
Au3 Au 0.77542(5) 0.52812(4) 0.21030(3)
Au4 Au 0.22964(4) 0.31798(4) -0.05492(3)
I1 I 0.47610(9) 0.00539(8) 0.17033(7)
I2 I 0.97402(10) 0.70264(10) -0.22117(10)
I3 I 0.47866(9) -0.52247(8) -0.35633(7)
I4 I 0.67620(10) 0.22932(8) -0.68521(6)
N1 N 0.7336(10) 0.1611(8) 0.0014(6)
N2 N 0.7191(9) 0.4813(8) -0.1207(7)
N3 N 0.7475(10) 0.2473(9) -0.1790(7)
N4 N 0.5279(9) 0.3191(9) -0.0571(7)
N5 N 0.7212(10) 0.3870(8) 0.0619(7)
N6 N 0.9321(10) 0.3140(8) -0.0577(7)
N7 N 0.7900(10) -0.3565(9) -0.4533(7)
N8 N 0.8282(9) -0.0879(9) -0.6365(7)
N9 N 0.7895(11) -0.1138(9) -0.4375(7)
N10 N 1.0128(10) -0.2314(9) -0.5338(7)
N11 N 0.8154(10) 0.6768(8) 0.3561(7)
N12 N 0.6022(9) -0.1940(9) -0.5519(7)
C1 C 0.6370(18) 0.1368(16) 0.0566(12)
H1 H 0.5765 0.1890 0.0751
C2 C 0.6282(12) 0.0380(11) 0.0847(9)
C3 C 0.7182(13) -0.0418(11) 0.0585(10)
H2 H 0.7123 -0.1101 0.0781
C4 C 0.8142(13) -0.0169(12) 0.0039(10)
H3 H 0.8754 -0.0686 -0.0146
C5 C 0.8218(12) 0.0854(11) -0.0247(9)
H4 H 0.8882 0.1018 -0.0620
C6 C 0.8214(12) 0.5331(10) -0.1454(9)
H5 H 0.9024 0.5004 -0.1367
C7 C 0.8116(13) 0.6323(11) -0.1828(10)
C8 C 0.6907(17) 0.6849(16) -0.1963(12)
H6 H 0.6808 0.7511 -0.2218
C9 C 0.5873(12) 0.6317(11) -0.1691(9)
H7 H 0.5050 0.6631 -0.1755
C10 C 0.6047(13) 0.5333(11) -0.1328(8)
H8 H 0.5326 0.5006 -0.1155
C11 C 0.7541(11) 0.1819(10) -0.2287(8)
C12 C 0.4177(11) 0.3172(10) -0.0555(9)
C13 C 0.7412(12) 0.4355(11) 0.1175(8)
C14 C 1.0422(12) 0.3127(10) -0.0552(8)
C15 C 0.6768(11) -0.3885(10) -0.4321(8)
H9 H 0.6041 -0.3482 -0.4495
C16 C 0.6628(13) -0.4801(11) -0.3849(8)
C17 C 0.7666(13) -0.5431(12) -0.3593(9)
H10 H 0.7592 -0.6060 -0.3297
C18 C 0.8854(13) -0.5059(13) -0.3809(10)
H11 H 0.9600 -0.5433 -0.3635
C19 C 0.8914(18) -0.4151(15) -0.4273(12)
H12 H 0.9714 -0.3931 -0.4414
C20 C 0.7649(18) 0.0070(15) -0.6331(13)
H13 H 0.7107 0.0227 -0.5863
C21 C 0.7777(13) 0.0819(11) -0.6968(9)
C22 C 0.8548(11) 0.0606(11) -0.7681(8)
H14 H 0.8612 0.1097 -0.8124
C23 C 0.9218(14) -0.0357(12) -0.7714(11)
H15 H 0.9771 -0.0521 -0.8176
C24 C 0.9068(12) -0.1064(12) -0.7069(9)
H16 H 0.9524 -0.1714 -0.7107
C25 C 0.7805(12) -0.0541(10) -0.3861(8)
C26 C 1.1192(13) -0.2269(11) -0.5366(8)
C27 C 0.8044(12) 0.6227(12) 0.3027(9)
C28 C 0.4932(12) -0.1963(10) -0.5512(8)
Fe2_2 Fe 0.80640(16) 0.78324(14) 0.46033(12)
Au2_2 Au 0.30665(4) -0.20961(4) -0.54492(3)
Au4_2 Au 1.22964(4) 0.31798(4) -0.05492(3)
N11_2 N 0.8154(10) -0.3232(8) -0.6439(7)
C14_2 C 0.0422(12) 0.3127(10) -0.0552(8)
C28_2 C 1.4932(12) -0.1963(10) -0.5512(8)
loop_
_geom_bond_atom_site_label_1
_geom_bond_atom_site_label_2
_geom_bond_site_symmetry_1
_geom_bond_site_symmetry_2
Fe1 N1 1_555 1_555
Fe2 N7 1_555 1_555
Au1 C11 1_555 1_555
Au2 C26 1_555 1_555
Au3 C13 1_555 1_555
Au4 C12 1_555 1_555
I1 C2 1_555 1_555
I2 C7 1_555 1_555
I3 C16 1_555 1_555
I4 C21 1_555 1_555
N1 C1 1_555 1_555
N2 Fe1 1_555 1_555
N3 Fe1 1_555 1_555
N4 Fe1 1_555 1_555
N5 Fe1 1_555 1_555
N6 Fe1 1_555 1_555
N7 C15 1_555 1_555
N8 Fe2 1_555 1_555
N9 Fe2 1_555 1_555
N10 Fe2 1_555 1_555
N11 C27 1_555 1_555
N12 Fe2 1_555 1_555
C1 H1 1_555 1_555
C2 C1 1_555 1_555
C3 C2 1_555 1_555
H2 C3 1_555 1_555
C4 C3 1_555 1_555
H3 C4 1_555 1_555
C5 N1 1_555 1_555
H4 C5 1_555 1_555
C6 N2 1_555 1_555
H5 C6 1_555 1_555
C7 C6 1_555 1_555
C8 C7 1_555 1_555
H6 C8 1_555 1_555
C9 C8 1_555 1_555
H7 C9 1_555 1_555
C10 N2 1_555 1_555
H8 C10 1_555 1_555
C11 N3 1_555 1_555
C12 N4 1_555 1_555
C13 N5 1_555 1_555
C14 N6 1_555 1_555
C15 H9 1_555 1_555
C16 C15 1_555 1_555
C17 C16 1_555 1_555
H10 C17 1_555 1_555
C18 C17 1_555 1_555
H11 C18 1_555 1_555
C19 N7 1_555 1_555
H12 C19 1_555 1_555
C20 N8 1_555 1_555
H13 C20 1_555 1_555
C21 C20 1_555 1_555
C22 C21 1_555 1_555
H14 C22 1_555 1_555
C23 C22 1_555 1_555
H15 C23 1_555 1_555
C24 N8 1_555 1_555
H16 C24 1_555 1_555
C25 Au1 1_555 1_555
C26 N10 1_555 1_555
C27 Au3 1_555 1_555
C28 N12 1_555 1_555
Fe2_2 N11 1_555 1_555
Au2_2 C28 1_555 1_555
Au4_2 C14 1_555 1_555
N11_2 Fe2 1_555 1_555
C14_2 Au4 1_555 1_555
C28_2 Au2 1_555 1_555
N9 C25 1_555 1_555
C4 C5 1_555 1_555
C9 C10 1_555 1_555
C18 C19 1_555 1_555
C23 C24 1_555 1_555

#END
