
#######################################################################
#
#                 Cambridge Crystallographic Data Centre
#                                CCDC 
#
#######################################################################
#
# If this CIF has been generated from an entry in the Cambridge 
# Structural Database, then it will include bibliographic, chemical, 
# crystal, experimental, refinement or atomic coordinate data resulting 
# from the CCDC's data processing and validation procedures.
#
#######################################################################

data_JOCTEB01
_symmetry_cell_setting           monoclinic
_symmetry_space_group_name_H-M   'P 21/c'
_symmetry_Int_Tables_number      14
_space_group_name_Hall           '-P 2ybc'
loop_
_symmetry_equiv_pos_site_id
_symmetry_equiv_pos_as_xyz
1 x,y,z
2 -x,1/2+y,1/2-z
3 -x,-y,-z
4 x,1/2-y,1/2+z
_cell_length_a                   23.1960(4)
_cell_length_b                   14.1440(4)
_cell_length_c                   15.0240(6)
_cell_angle_alpha                90
_cell_angle_beta                 107.182(1)
_cell_angle_gamma                90
_cell_volume                     4709.16
loop_
_atom_site_label
_atom_site_type_symbol
_atom_site_fract_x
_atom_site_fract_y
_atom_site_fract_z
Fe1 Fe 0.06545(18) 0.5001(3) 0.7570(3)
Au1 Au 0.05394(5) 0.74108(9) 1.00830(8)
Au2 Au 0.07774(5) 0.23951(9) 1.00444(8)
I1 I 0.28311(9) 0.75099(16) 0.87069(15)
I2 I -0.18944(11) 0.65314(17) 0.60489(18)
N1 N 0.1602(11) 0.5149(19) 0.8116(18)
N2 N -0.0287(13) 0.477(2) 0.699(2)
N3 N 0.0778(12) 0.4091(19) 0.6585(18)
N4 N 0.0687(11) 0.3963(18) 0.8508(17)
N5 N 0.0533(11) 0.5974(18) 0.8511(17)
N6 N 0.0617(11) 0.6082(18) 0.6636(17)
C1 C 0.1953(15) 0.438(2) 0.828(2)
C2 C 0.2601(17) 0.447(3) 0.856(3)
C3 C 0.2865(13) 0.536(2) 0.867(2)
C4 C 0.2487(14) 0.613(2) 0.853(2)
C5 C 0.1852(12) 0.602(2) 0.8240(19)
C6 C -0.0508(15) 0.392(2) 0.692(2)
C7 C -0.1125(16) 0.372(3) 0.657(2)
C8 C -0.1537(15) 0.449(2) 0.633(2)
C9 C -0.1320(17) 0.540(3) 0.637(3)
C10 C -0.0693(15) 0.554(2) 0.672(2)
C11 C 0.0728(13) 0.333(2) 0.908(2)
C12 C 0.0513(14) 0.646(2) 0.905(2)
C13 C 0.0611(14) 0.665(2) 0.609(2)
C14 C 0.0810(12) 0.354(2) 0.6046(19)
Au1C Au 0.05394(5) 0.75892(9) 0.50830(8)
Au2C Au 0.07774(5) 0.26049(9) 0.50444(8)
C13C C 0.0611(14) 0.835(2) 1.109(2)
C14C C 0.0810(12) 0.146(2) 1.1046(19)
Fe2 Fe 0.42886(18) 0.4998(3) 0.7153(3)
Au3 Au 0.41338(5) 0.25633(9) 0.96361(8)
Au4 Au 0.44710(5) 0.75604(11) 0.96865(9)
I3 I 0.66786(12) 0.5055(2) 0.63555(19)
I4 I 0.21223(9) 0.75880(18) 0.58765(15)
N7 N 0.5240(11) 0.4678(18) 0.7603(17)
N8 N 0.3331(12) 0.525(2) 0.6630(19)
N9 N 0.4137(12) 0.4079(19) 0.8088(19)
N10 N 0.4379(12) 0.605(2) 0.8138(19)
N11 N 0.4400(13) 0.597(2) 0.621(2)
N12 N 0.4191(12) 0.3953(19) 0.6172(18)
C15 C 0.5523(19) 0.415(3) 0.839(3)
C16 C 0.611(2) 0.390(4) 0.863(3)
C17 C 0.646(2) 0.405(3) 0.806(3)
C18 C 0.6185(14) 0.462(2) 0.725(2)
C19 C 0.5550(16) 0.488(3) 0.699(2)
C20 C 0.2973(14) 0.447(2) 0.660(2)
C21 C 0.2340(16) 0.454(3) 0.626(2)
C22 C 0.2087(14) 0.542(2) 0.607(2)
C23 C 0.2466(15) 0.624(2) 0.617(2)
C24 C 0.3096(14) 0.612(2) 0.647(2)
C25 C 0.4122(14) 0.352(2) 0.861(2)
C26 C 0.4443(15) 0.664(2) 0.873(2)
C27 C 0.4440(17) 0.651(3) 0.570(3)
C28 C 0.4155(13) 0.333(2) 0.561(2)
Au3C Au 0.41338(5) 0.24367(9) 0.46361(8)
Au4C Au 0.44710(5) 0.74396(11) 0.46865(9)
C27C C 0.4440(17) 0.849(3) 1.070(3)
C28C C 0.4155(13) 0.167(2) 1.061(2)
I5 I 0.30751(14) 0.3261(2) 0.0970(2)
N13 N 0.1709(14) 0.539(2) 0.065(2)
C29 C 0.1350(13) 0.501(2) 0.106(2)
C30 C 0.1392(19) 0.411(3) 0.141(3)
C31 C 0.191(2) 0.363(3) 0.142(3)
C32 C 0.2302(18) 0.403(3) 0.102(3)
C33 C 0.2209(18) 0.493(3) 0.066(3)
loop_
_geom_bond_atom_site_label_1
_geom_bond_atom_site_label_2
_geom_bond_site_symmetry_1
_geom_bond_site_symmetry_2
Fe1 N1 1_555 1_555
Au1 C12 1_555 1_555
Au2 C11 1_555 1_555
I1 C4 1_555 1_555
I2 C9 1_555 1_555
N1 C1 1_555 1_555
N2 Fe1 1_555 1_555
N3 Fe1 1_555 1_555
N4 Fe1 1_555 1_555
N5 Fe1 1_555 1_555
N6 Fe1 1_555 1_555
C1 C2 1_555 1_555
C2 C3 1_555 1_555
C3 C4 1_555 1_555
C4 C5 1_555 1_555
C5 N1 1_555 1_555
C6 N2 1_555 1_555
C7 C6 1_555 1_555
C8 C7 1_555 1_555
C9 C8 1_555 1_555
C10 N2 1_555 1_555
C11 N4 1_555 1_555
C12 N5 1_555 1_555
C13 N6 1_555 1_555
C14 N3 1_555 1_555
Fe2 N7 1_555 1_555
Au3 C25 1_555 1_555
Au4 C26 1_555 1_555
I3 C18 1_555 1_555
I4 C23 1_555 1_555
N7 C15 1_555 1_555
N8 Fe2 1_555 1_555
N9 Fe2 1_555 1_555
N10 Fe2 1_555 1_555
N11 Fe2 1_555 1_555
N12 Fe2 1_555 1_555
C15 C16 1_555 1_555
C16 C17 1_555 1_555
C17 C18 1_555 1_555
C18 C19 1_555 1_555
C19 N7 1_555 1_555
C20 N8 1_555 1_555
C21 C20 1_555 1_555
C22 C21 1_555 1_555
C23 C22 1_555 1_555
C24 N8 1_555 1_555
C25 N9 1_555 1_555
C26 N10 1_555 1_555
C27 N11 1_555 1_555
C28 N12 1_555 1_555
I5 C32 1_555 1_555
N13 C29 1_555 1_555
C29 C30 1_555 1_555
C30 C31 1_555 1_555
C31 C32 1_555 1_555
C32 C33 1_555 1_555
C33 N13 1_555 1_555
Au1C C13 1_555 1_555
Au2C C14 1_555 1_555
C13C Au1 1_555 1_555
C14C Au2 1_555 1_555
Au3C C28 1_555 1_555
Au4C C27 1_555 1_555
C27C Au4 1_555 1_555
C28C Au3 1_555 1_555
C9 C10 1_555 1_555
C23 C24 1_555 1_555

#END
