
#######################################################################
#
#                 Cambridge Crystallographic Data Centre
#                                CCDC 
#
#######################################################################
#
# If this CIF has been generated from an entry in the Cambridge 
# Structural Database, then it will include bibliographic, chemical, 
# crystal, experimental, refinement or atomic coordinate data resulting 
# from the CCDC's data processing and validation procedures.
#
#######################################################################

data_JOCVAZ
_symmetry_cell_setting           monoclinic
_symmetry_space_group_name_H-M   'C 2/c'
_symmetry_Int_Tables_number      15
_space_group_name_Hall           '-C 2yn'
loop_
_symmetry_equiv_pos_site_id
_symmetry_equiv_pos_as_xyz
1 x,y,z
2 1/2+x,1/2+y,z
3 -x,y,1/2-z
4 1/2-x,1/2+y,1/2-z
5 -x,-y,-z
6 1/2-x,1/2-y,-z
7 x,-y,1/2+z
8 1/2+x,1/2-y,1/2+z
_cell_length_a                   21.419(8)
_cell_length_b                   7.515(3)
_cell_length_c                   18.070(7)
_cell_angle_alpha                90
_cell_angle_beta                 108.273(6)
_cell_angle_gamma                90
_cell_volume                     2761.94
loop_
_atom_site_label
_atom_site_type_symbol
_atom_site_fract_x
_atom_site_fract_y
_atom_site_fract_z
Ag1 Ag 0.264029(11) 0.01097(4) 0.027501(17)
N1 N 0.17317(11) -0.1014(4) 0.03133(15)
N2 N -0.14120(11) -0.3917(4) 0.02978(15)
C1 C -0.06769(14) -0.3055(5) -0.03814(18)
H1 H -0.0611 -0.2823 -0.0857
C2 C -0.01629(12) -0.2860(4) 0.02990(16)
C3 C 0.04973(13) -0.2236(4) 0.03058(16)
C4 C 0.10378(14) -0.2271(4) 0.09749(18)
H2 H 0.0994 -0.2716 0.1436
C5 C -0.02966(14) -0.3238(4) 0.09869(17)
H3 H 0.0035 -0.3151 0.1463
C6 C 0.06055(14) -0.1596(4) -0.03604(18)
H4 H 0.0262 -0.1565 -0.0827
C7 C -0.09196(14) -0.3743(5) 0.09619(19)
H5 H -0.1001 -0.3972 0.1429
C8 C 0.12180(14) -0.1004(5) -0.03369(19)
H6 H 0.1277 -0.0578 -0.0793
C9 C 0.16363(14) -0.1651(5) 0.09598(19)
H7 H 0.1990 -0.1676 0.1418
C10 C -0.12848(14) -0.3587(4) -0.03642(19)
H8 H -0.1621 -0.3723 -0.0833
O4 O 0.21745(15) 0.0389(6) -0.12407(19)
H13 H 0.209(2) -0.034(6) -0.154(3)
H14 H 0.223(2) 0.129(7) -0.144(3)
Ag1A Ag 0.764029(11) 0.51097(4) 0.027501(17)
Ag1A_2 Ag -0.235971(11) -0.48903(4) 0.027501(17)
N1A N 0.67317(11) 0.3986(4) 0.03133(15)
N2A N 0.35880(11) 0.1083(4) 0.02978(15)
N2_2 N 0.85880(11) 0.6083(4) 0.02978(15)
C1A C 0.43231(14) 0.1945(5) -0.03814(18)
H1A H 0.4389 0.2177 -0.0857
C2A C 0.48371(12) 0.2140(4) 0.02990(16)
C3A C 0.54973(13) 0.2764(4) 0.03058(16)
C4A C 0.60378(14) 0.2729(4) 0.09749(18)
H2A H 0.5994 0.2284 0.1436
C5A C 0.47034(14) 0.1762(4) 0.09869(17)
H3A H 0.5035 0.1849 0.1463
C6A C 0.56055(14) 0.3404(4) -0.03604(18)
H4A H 0.5262 0.3435 -0.0827
C7A C 0.40804(14) 0.1257(5) 0.09619(19)
H5A H 0.3999 0.1028 0.1429
C8A C 0.62180(14) 0.3996(5) -0.03369(19)
H6A H 0.6277 0.4422 -0.0793
C9A C 0.66363(14) 0.3349(5) 0.09598(19)
H7A H 0.6990 0.3324 0.1418
C10A C 0.37152(14) 0.1413(4) -0.03642(19)
H8A H 0.3379 0.1277 -0.0833
O4A O 0.71745(15) 0.5389(6) -0.12407(19)
H13A H 0.709(2) 0.466(6) -0.154(3)
H14A H 0.723(2) 0.629(7) -0.144(3)
O1 O 0.11575(11) 0.4767(3) 0.23880(15)
C11 C 0.05662(14) 0.2201(4) 0.25152(16)
C12 C 0.11922(15) 0.3159(5) 0.25274(19)
C13 C 0.0000 0.3126(6) 0.2500
O2 O 0.17020(13) 0.2224(4) 0.2668(2)
C14 C 0.05343(17) 0.0362(4) 0.25195(19)
H9 H 0.0913 -0.0266 0.2537
N3 N 0.0000 -0.0576(6) 0.2500
H12 H 0.0000 0.440(6) 0.2500
O1B O -0.11575(11) 0.4767(3) 0.26120(15)
C11B C -0.05662(14) 0.2201(4) 0.24848(16)
C12B C -0.11922(15) 0.3159(5) 0.24726(19)
O2B O -0.17020(13) 0.2224(4) 0.2332(2)
C14B C -0.05343(17) 0.0362(4) 0.24805(19)
H9B H -0.0913 -0.0266 0.2463
O3 O 0.23175(19) 0.6589(5) 0.3031(2)
H10 H 0.256(2) 0.665(7) 0.278(3)
H11 H 0.205(3) 0.598(7) 0.278(3)
loop_
_geom_bond_atom_site_label_1
_geom_bond_atom_site_label_2
_geom_bond_site_symmetry_1
_geom_bond_site_symmetry_2
Ag1 N1 1_555 1_555
N1 C8 1_555 1_555
N2 C7 1_555 1_555
C1 H1 1_555 1_555
C2 C1 1_555 1_555
C3 C2 1_555 1_555
C4 C3 1_555 1_555
H2 C4 1_555 1_555
C5 C2 1_555 1_555
H3 C5 1_555 1_555
C6 C3 1_555 1_555
H4 C6 1_555 1_555
C7 C5 1_555 1_555
H5 C7 1_555 1_555
C8 C6 1_555 1_555
H6 C8 1_555 1_555
C9 N1 1_555 1_555
H7 C9 1_555 1_555
C10 N2 1_555 1_555
H8 C10 1_555 1_555
O1 C12 1_555 1_555
C11 C12 1_555 1_555
C12 O2 1_555 1_555
C13 C11 1_555 1_555
C14 C11 1_555 1_555
H9 C14 1_555 1_555
N3 C14 1_555 1_555
O3 H10 1_555 1_555
H11 O3 1_555 1_555
H12 C13 1_555 1_555
O4 Ag1 1_555 1_555
H13 O4 1_555 1_555
H14 O4 1_555 1_555
Ag1A N1A 1_555 1_555
Ag1A_2 N2 1_555 1_555
N1A C8A 1_555 1_555
N2A Ag1 1_555 1_555
N2_2 Ag1A 1_555 1_555
C1A H1A 1_555 1_555
C2A C1A 1_555 1_555
C3A C2A 1_555 1_555
C4A C3A 1_555 1_555
H2A C4A 1_555 1_555
C5A C2A 1_555 1_555
H3A C5A 1_555 1_555
C6A C3A 1_555 1_555
H4A C6A 1_555 1_555
C7A N2A 1_555 1_555
H5A C7A 1_555 1_555
C8A C6A 1_555 1_555
H6A C8A 1_555 1_555
C9A N1A 1_555 1_555
H7A C9A 1_555 1_555
C10A N2A 1_555 1_555
H8A C10A 1_555 1_555
O1B C12B 1_555 1_555
C11B C13 1_555 1_555
C12B C11B 1_555 1_555
O2B C12B 1_555 1_555
C14B N3 1_555 1_555
H9B C14B 1_555 1_555
O4A Ag1A 1_555 1_555
H13A O4A 1_555 1_555
H14A O4A 1_555 1_555
C1 C10 1_555 1_555
C4 C9 1_555 1_555
C1A C10A 1_555 1_555
C4A C9A 1_555 1_555
C5A C7A 1_555 1_555
C11B C14B 1_555 1_555

#END
