
#######################################################################
#
#                 Cambridge Crystallographic Data Centre
#                                CCDC 
#
#######################################################################
#
# If this CIF has been generated from an entry in the Cambridge 
# Structural Database, then it will include bibliographic, chemical, 
# crystal, experimental, refinement or atomic coordinate data resulting 
# from the CCDC's data processing and validation procedures.
#
#######################################################################

data_JOCVAZ02
_symmetry_cell_setting           monoclinic
_symmetry_space_group_name_H-M   'C 2/c'
_symmetry_Int_Tables_number      15
_space_group_name_Hall           '-C 2yn'
loop_
_symmetry_equiv_pos_site_id
_symmetry_equiv_pos_as_xyz
1 x,y,z
2 -x,y,1/2-z
3 1/2+x,1/2+y,z
4 1/2-x,1/2+y,1/2-z
5 -x,-y,-z
6 x,-y,1/2+z
7 1/2-x,1/2-y,-z
8 1/2+x,1/2-y,1/2+z
_cell_length_a                   21.453(2)
_cell_length_b                   7.5149(8)
_cell_length_c                   18.0723(17)
_cell_angle_alpha                90
_cell_angle_beta                 108.2990(10)
_cell_angle_gamma                90
_cell_volume                     2766.23
loop_
_atom_site_label
_atom_site_type_symbol
_atom_site_fract_x
_atom_site_fract_y
_atom_site_fract_z
Ag1 Ag 0.264014(16) 0.48901(5) 0.52751(2)
C1 C 0.48377(18) 0.2857(5) 0.5299(2)
N2 N 0.35845(16) 0.3913(5) 0.5295(2)
N3 N 0.67308(17) 0.1015(5) 0.5314(2)
O3 O 0.2174(2) 0.4613(5) 0.3759(2)
H1 H 0.2027 0.5423 0.3420
H2 H 0.2218 0.3664 0.3524
C6 C 0.3716(2) 0.3584(6) 0.4636(3)
H7 H 0.3380 0.3709 0.4166
C7 C 0.4322(2) 0.3069(6) 0.4619(3)
H8 H 0.4388 0.2858 0.4142
C8 C 0.4700(2) 0.3228(6) 0.5988(3)
H9 H 0.5029 0.3133 0.6465
C9 C 0.4078(2) 0.3736(6) 0.5961(3)
H10 H 0.3996 0.3968 0.6428
C10 C 0.6216(2) 0.1014(7) 0.4665(3)
H11 H 0.6275 0.0592 0.4208
C11 C 0.5606(2) 0.1601(6) 0.4637(3)
H12 H 0.5263 0.1574 0.4170
C12 C 0.54986(19) 0.2236(5) 0.5306(2)
C13 C 0.6041(2) 0.2276(6) 0.5979(2)
H13 H 0.6001 0.2731 0.6440
C14 C 0.6636(2) 0.1642(7) 0.5959(3)
H14 H 0.6989 0.1652 0.6417
Ag1B Ag 0.764014(16) -0.01099(5) 0.52751(2)
N3B N 0.17308(17) 0.6015(5) 0.5314(2)
N1 N 0.0000 0.5566(8) 0.7500
O1 O 0.11582(18) 0.0239(5) 0.7388(2)
O2 O 0.17038(18) 0.2762(6) 0.7671(3)
C2 C 0.1192(2) 0.1849(7) 0.7531(3)
C3 C 0.0532(3) 0.4630(7) 0.7519(3)
H5 H 0.0909 0.5263 0.7537
C4 C 0.0569(2) 0.2800(6) 0.7515(2)
C5 C 0.0000 0.1870(8) 0.7500
H6 H 0.0000 0.0633 0.7500
O1A O -0.11582(18) 0.0239(5) 0.7612(2)
O2A O -0.17038(18) 0.2762(6) 0.7329(3)
C2A C -0.1192(2) 0.1849(7) 0.7469(3)
C3A C -0.0532(3) 0.4630(7) 0.7481(3)
H5A H -0.0909 0.5263 0.7463
C4A C -0.0569(2) 0.2800(6) 0.7485(2)
O4 O 0.23192(18) 0.8418(5) 0.8031(2)
H3 H 0.1981 0.8999 0.7771
H4 H 0.2575 0.8312 0.7758
loop_
_geom_bond_atom_site_label_1
_geom_bond_atom_site_label_2
_geom_bond_site_symmetry_1
_geom_bond_site_symmetry_2
Ag1 N2 1_555 1_555
C1 C7 1_555 1_555
N1 C3 1_555 1_555
N2 C6 1_555 1_555
N3 C10 1_555 1_555
O1 C2 1_555 1_555
O2 C2 1_555 1_555
O3 Ag1 1_555 1_555
H1 O3 1_555 1_555
H2 O3 1_555 1_555
O4 H3 1_555 1_555
H4 O4 1_555 1_555
C2 C4 1_555 1_555
C3 H5 1_555 1_555
C4 C3 1_555 1_555
C5 C4 1_555 1_555
H6 C5 1_555 1_555
C6 H7 1_555 1_555
C7 C6 1_555 1_555
H8 C7 1_555 1_555
C8 C1 1_555 1_555
H9 C8 1_555 1_555
C9 N2 1_555 1_555
H10 C9 1_555 1_555
C10 H11 1_555 1_555
C11 C10 1_555 1_555
H12 C11 1_555 1_555
C12 C1 1_555 1_555
C13 C12 1_555 1_555
H13 C13 1_555 1_555
C14 N3 1_555 1_555
H14 C14 1_555 1_555
Ag1B N3 1_555 1_555
N3B Ag1 1_555 1_555
O1A C2A 1_555 1_555
O2A C2A 1_555 1_555
C2A C4A 1_555 1_555
C3A N1 1_555 1_555
H5A C3A 1_555 1_555
C4A C5 1_555 1_555
C8 C9 1_555 1_555
C11 C12 1_555 1_555
C13 C14 1_555 1_555
C3A C4A 1_555 1_555

#END
