
#######################################################################
#
#                 Cambridge Crystallographic Data Centre
#                                CCDC 
#
#######################################################################
#
# If this CIF has been generated from an entry in the Cambridge 
# Structural Database, then it will include bibliographic, chemical, 
# crystal, experimental, refinement or atomic coordinate data resulting 
# from the CCDC's data processing and validation procedures.
#
#######################################################################

data_JOCWAB
_symmetry_cell_setting           monoclinic
_symmetry_space_group_name_H-M   'P 21/c'
_symmetry_Int_Tables_number      14
_space_group_name_Hall           '-P 2ybc'
loop_
_symmetry_equiv_pos_site_id
_symmetry_equiv_pos_as_xyz
1 x,y,z
2 -x,1/2+y,1/2-z
3 -x,-y,-z
4 x,1/2-y,1/2+z
_cell_length_a                   10.8739(4)
_cell_length_b                   17.3900(5)
_cell_length_c                   12.0958(4)
_cell_angle_alpha                90
_cell_angle_beta                 108.957(6)
_cell_angle_gamma                90
_cell_volume                     2163.22
loop_
_atom_site_label
_atom_site_type_symbol
_atom_site_fract_x
_atom_site_fract_y
_atom_site_fract_z
Cu1 Cu 0.33338(5) 0.57154(3) 0.12341(4)
Cu2 Cu 0.11351(5) 0.42705(3) 0.05770(4)
Cu3 Cu 0.22971(5) 0.49616(3) 0.33287(4)
N1 N 0.3408(3) 0.58938(18) 0.3671(3)
N2 N 0.3807(3) 0.62016(18) 0.2794(3)
N3 N 0.4630(3) 0.68820(17) 0.4373(3)
N4 N 0.2631(3) 0.53248(18) -0.0390(3)
N5 N 0.1735(3) 0.47367(18) -0.0648(3)
N6 N 0.2521(3) 0.48467(18) -0.2082(3)
N7 N 0.0343(3) 0.39201(18) 0.1757(3)
N8 N 0.0903(3) 0.41713(19) 0.2899(3)
N9 N -0.0376(3) 0.32061(19) 0.2892(3)
O1 O 0.4667(3) 0.86645(15) 0.5883(2)
O2 O 0.3049(3) 0.78511(16) 0.5035(3)
O3 O 0.1626(4) 0.5629(2) -0.4253(3)
O4 O 0.2577(3) 0.47449(17) -0.5046(2)
O5 O -0.0136(3) 0.14069(16) 0.4413(2)
O6 O 0.1347(3) 0.21777(19) 0.4092(3)
O7 O 0.4425(3) 0.46507(16) 0.1728(3)
O8 O 0.2917(3) 0.36059(15) 0.1362(3)
O9 O 0.3784(3) 0.41340(16) 0.3297(2)
O10 O 0.5160(3) 0.34068(16) 0.2494(3)
O11 O 0.1838(2) 0.51984(14) 0.1601(2)
H1 H 0.1223 0.5526 0.1443
S1 S 0.40860(10) 0.39478(6) 0.22315(9)
C1 C 0.3901(4) 0.6315(2) 0.4608(3)
H2 H 0.3771 0.6237 0.5322
C2 C 0.4535(4) 0.6798(2) 0.3249(3)
H3 H 0.4930 0.7117 0.2846
C3 C 0.5229(4) 0.7518(2) 0.5141(3)
H4 H 0.5772 0.7810 0.4795
H5 H 0.5781 0.7317 0.5885
C4 C 0.4204(4) 0.8047(2) 0.5344(3)
C5 C 0.3082(4) 0.5370(2) -0.1267(3)
H6 H 0.3709 0.5720 -0.1316
C6 C 0.1686(4) 0.4470(2) -0.1661(4)
H7 H 0.1146 0.4070 -0.2045
C7 C 0.2908(4) 0.4614(2) -0.3089(3)
H8 H 0.2712 0.4072 -0.3235
H9 H 0.3843 0.4672 -0.2881
C8 C 0.2274(4) 0.5049(3) -0.4216(4)
C9 C -0.0420(4) 0.3340(2) 0.1787(4)
H10 H -0.0917 0.3063 0.1137
C10 C 0.0458(4) 0.3719(2) 0.3554(4)
H11 H 0.0690 0.3751 0.4364
C11 C -0.0888(4) 0.2537(2) 0.3335(4)
H12 H -0.1484 0.2257 0.2687
H13 H -0.1363 0.2705 0.3845
C12 C 0.0228(4) 0.2009(2) 0.4009(4)
Cu1C Cu 0.33338(5) 0.92846(3) 0.62341(4)
Cu2C Cu 0.11351(5) 0.07295(3) 0.55770(4)
Cu3_2 Cu 0.22971(5) 0.49616(3) -0.66713(4)
O1C O 0.4667(3) 0.63355(15) 0.0883(2)
O4_2 O 0.2577(3) 0.47449(17) 0.4954(2)
O5C O -0.0136(3) 0.35931(16) -0.0587(2)
O12 O 0.2018(4) 0.22081(19) 0.1904(4)
H14 H 0.1842 0.2240 0.2550
H15 H 0.2289 0.2659 0.1789
O13 O -0.0437(4) 0.1464(2) 0.1299(3)
H16 H 0.0312 0.1666 0.1369
H17 H -0.0684 0.1230 0.0637
loop_
_geom_bond_atom_site_label_1
_geom_bond_atom_site_label_2
_geom_bond_site_symmetry_1
_geom_bond_site_symmetry_2
Cu1 N2 1_555 1_555
Cu2 N5 1_555 1_555
Cu3 N1 1_555 1_555
N1 N2 1_555 1_555
N2 C2 1_555 1_555
N3 C1 1_555 1_555
N4 Cu1 1_555 1_555
N5 N4 1_555 1_555
N6 C5 1_555 1_555
N7 Cu2 1_555 1_555
N8 Cu3 1_555 1_555
N9 C9 1_555 1_555
O1 C4 1_555 1_555
O2 C4 1_555 1_555
O3 C8 1_555 1_555
O4 C8 1_555 1_555
O5 C12 1_555 1_555
O6 C12 1_555 1_555
O7 Cu1 1_555 1_555
O8 Cu2 1_555 1_555
O9 Cu3 1_555 1_555
O10 S1 1_555 1_555
O11 Cu1 1_555 1_555
H1 O11 1_555 1_555
S1 O7 1_555 1_555
C1 N1 1_555 1_555
H2 C1 1_555 1_555
C2 N3 1_555 1_555
H3 C2 1_555 1_555
C3 N3 1_555 1_555
H4 C3 1_555 1_555
H5 C3 1_555 1_555
C4 C3 1_555 1_555
C5 N4 1_555 1_555
H6 C5 1_555 1_555
C6 N5 1_555 1_555
H7 C6 1_555 1_555
C7 N6 1_555 1_555
H8 C7 1_555 1_555
H9 C7 1_555 1_555
C8 C7 1_555 1_555
C9 N7 1_555 1_555
H10 C9 1_555 1_555
C10 N8 1_555 1_555
H11 C10 1_555 1_555
C11 N9 1_555 1_555
H12 C11 1_555 1_555
H13 C11 1_555 1_555
C12 C11 1_555 1_555
O12 H14 1_555 1_555
H15 O12 1_555 1_555
O13 H16 1_555 1_555
H17 O13 1_555 1_555
Cu1C O1 1_555 1_555
Cu2C O5 1_555 1_555
Cu3_2 O4 1_555 1_555
O1C Cu1 1_555 1_555
O4_2 Cu3 1_555 1_555
O5C Cu2 1_555 1_555
Cu2 O11 1_555 1_555
Cu3 O11 1_555 1_555
N6 C6 1_555 1_555
N7 N8 1_555 1_555
N9 C10 1_555 1_555
O8 S1 1_555 1_555
O9 S1 1_555 1_555

#END
