
#######################################################################
#
#                 Cambridge Crystallographic Data Centre
#                                CCDC 
#
#######################################################################
#
# If this CIF has been generated from an entry in the Cambridge 
# Structural Database, then it will include bibliographic, chemical, 
# crystal, experimental, refinement or atomic coordinate data resulting 
# from the CCDC's data processing and validation procedures.
#
#######################################################################

data_JOCXII
_symmetry_cell_setting           triclinic
_symmetry_space_group_name_H-M   'P -1'
_symmetry_Int_Tables_number      2
_space_group_name_Hall           '-P 1'
loop_
_symmetry_equiv_pos_site_id
_symmetry_equiv_pos_as_xyz
1 x,y,z
2 -x,-y,-z
_cell_length_a                   7.725(2)
_cell_length_b                   10.596(3)
_cell_length_c                   12.892(3)
_cell_angle_alpha                102.75(2)
_cell_angle_beta                 104.64(2)
_cell_angle_gamma                110.59(2)
_cell_volume                     898.215
loop_
_atom_site_label
_atom_site_type_symbol
_atom_site_fract_x
_atom_site_fract_y
_atom_site_fract_z
Mn1 Mn 0.0000 0.0000 1.0000
Mn2 Mn 0.5000 0.5000 1.0000
O1 O 0.1569(6) -0.0400(5) 1.1129(4)
O2 O 0.1954(6) 0.1937(5) 1.0411(4)
O3 O 0.5078(6) 0.3482(5) 1.0964(4)
O4 O 0.2784(6) 0.3642(5) 0.8716(4)
O5 O 0.6834(6) 0.4583(5) 0.9372(4)
O6 O 0.7841(7) 0.3497(6) 0.8164(4)
C1 C 0.4336(9) 0.1960(7) 1.2026(6)
C2 C 0.3226(9) 0.0588(7) 1.2015(5)
C3 C 0.3875(10) 0.0201(8) 1.2957(8)
C4 C 0.5541(11) 0.1126(9) 1.3889(6)
C5 C 0.6632(11) 0.2490(9) 1.3891(6)
C6 C 0.6034(10) 0.2878(8) 1.2955(6)
C7 C 0.3784(9) 0.2475(7) 1.1082(6)
C8 C 0.2808(10) 0.3156(7) 0.7680(6)
C9 C 0.4504(10) 0.3136(8) 0.7468(6)
C10 C 0.4305(12) 0.2483(11) 0.6347(7)
C11 C 0.2541(13) 0.1919(13) 0.5454(7)
C12 C 0.0882(12) 0.1978(12) 0.5686(7)
C13 C 0.1006(10) 0.2563(9) 0.6744(6)
C14 C 0.6492(10) 0.3765(8) 0.8375(6)
O7 O 0.1336(11) -0.0774(7) 0.8835(6)
C15 C 0.2130(22) -0.0165(14) 0.8112(12)
H1 H 0.3035 -0.0867 1.2941
H2 H 0.6003 0.0799 1.4609
H3 H 0.7921 0.3254 1.4623
H4 H 0.6917 0.3927 1.2951
H5 H 0.5584 0.2425 0.6183
H6 H 0.2434 0.1454 0.4590
H7 H -0.0533 0.1534 0.4993
H8 H -0.0294 0.2588 0.6891
H9 H 0.2632 -0.0861 0.7655
H10 H 0.3302 0.0870 0.8581
H11 H 0.0943 -0.0086 0.7486
O1A O -0.1569(6) 0.0400(5) 0.8871(4)
O2A O -0.1954(6) -0.1937(5) 0.9589(4)
O7A O -0.1336(11) 0.0774(7) 1.1165(6)
C15A C -0.2130(22) 0.0165(14) 1.1888(12)
H9A H -0.2632 0.0861 1.2345
H10A H -0.3302 -0.0870 1.1419
H11A H -0.0943 0.0086 1.2514
O3A O 0.4922(6) 0.6518(5) 0.9036(4)
O4A O 0.7216(6) 0.6358(5) 1.1284(4)
O5A O 0.3166(6) 0.5417(5) 1.0628(4)
C7A C 0.6216(9) 0.7525(7) 0.8918(6)
C8A C 0.7192(10) 0.6844(7) 1.2320(6)
C14A C 0.3508(10) 0.6235(8) 1.1625(6)
O2A_2 O 0.8046(6) 0.8063(5) 0.9589(4)
C1A C 0.5664(9) 0.8040(7) 0.7974(6)
C9A C 0.5496(10) 0.6864(8) 1.2532(6)
C13A C 0.8994(10) 0.7437(9) 1.3256(6)
O6A O 0.2159(7) 0.6503(6) 1.1836(4)
Mn1_2 Mn 1.0000 1.0000 1.0000
C2A C 0.6774(9) 0.9412(7) 0.7985(5)
C6A C 0.3966(10) 0.7122(8) 0.7045(6)
C10A C 0.5695(12) 0.7517(11) 1.3653(7)
C12A C 0.9118(12) 0.8022(12) 1.4314(7)
H8A H 1.0294 0.7412 1.3109
O1A_2 O 0.8431(6) 1.0400(5) 0.8871(4)
C3A C 0.6125(10) 0.9799(8) 0.7043(8)
C5A C 0.3368(11) 0.7510(9) 0.6109(6)
H4A H 0.3083 0.6073 0.7049
C11A C 0.7459(13) 0.8081(13) 1.4546(7)
H5A H 0.4416 0.7575 1.3817
H7A H 1.0533 0.8466 1.5007
C4A C 0.4459(11) 0.8874(9) 0.6111(6)
H1A H 0.6965 1.0867 0.7059
H3A H 0.2079 0.6746 0.5377
H6A H 0.7566 0.8546 1.5410
H2A H 0.3997 0.9201 0.5391
Na1 Na 0.0132(4) 0.3075(3) 0.9460(2)
O8 O -0.0961(22) 0.5215(17) 0.6799(12)
C16 C -0.2203(33) 0.5829(22) 0.6299(22)
H12 H -0.2062 0.6769 0.6885
H13 H -0.3751 0.5051 0.5891
H14 H -0.1758 0.6141 0.5588
O9 O -0.1217(8) 0.3290(6) 1.1011(5)
loop_
_geom_bond_atom_site_label_1
_geom_bond_atom_site_label_2
_geom_bond_site_symmetry_1
_geom_bond_site_symmetry_2
Mn1 O1 1_555 1_555
Mn2 O3 1_555 1_555
O1 C2 1_555 1_555
O2 Mn1 1_555 1_555
O3 C7 1_555 1_555
O4 Mn2 1_555 1_555
O5 Mn2 1_555 1_555
O6 C14 1_555 1_555
C1 C2 1_555 1_555
C2 C3 1_555 1_555
C3 C4 1_555 1_555
C4 C5 1_555 1_555
C5 C6 1_555 1_555
C6 C1 1_555 1_555
C7 O2 1_555 1_555
C8 O4 1_555 1_555
C9 C8 1_555 1_555
C10 C9 1_555 1_555
C11 C10 1_555 1_555
C12 C11 1_555 1_555
C13 C8 1_555 1_555
C14 O5 1_555 1_555
O7 Mn1 1_555 1_555
C15 O7 1_555 1_555
O8 C16 1_555 1_555
C16 H12 1_555 1_555
H1 C3 1_555 1_555
H2 C4 1_555 1_555
H3 C5 1_555 1_555
H4 C6 1_555 1_555
H5 C10 1_555 1_555
H6 C11 1_555 1_555
H7 C12 1_555 1_555
H8 C13 1_555 1_555
H9 C15 1_555 1_555
H10 C15 1_555 1_555
H11 C15 1_555 1_555
H13 C16 1_555 1_555
H14 C16 1_555 1_555
O1A Mn1 1_555 1_555
O2A Mn1 1_555 1_555
O7A Mn1 1_555 1_555
C15A O7A 1_555 1_555
H9A C15A 1_555 1_555
H10A C15A 1_555 1_555
H11A C15A 1_555 1_555
O3A Mn2 1_555 1_555
O4A Mn2 1_555 1_555
O5A Mn2 1_555 1_555
C7A O3A 1_555 1_555
C8A O4A 1_555 1_555
C14A O5A 1_555 1_555
O2A_2 C7A 1_555 1_555
C1A C7A 1_555 1_555
C9A C8A 1_555 1_555
C13A C8A 1_555 1_555
O6A C14A 1_555 1_555
Mn1_2 O2A_2 1_555 1_555
C2A C1A 1_555 1_555
C6A C1A 1_555 1_555
C10A C9A 1_555 1_555
C12A C13A 1_555 1_555
H8A C13A 1_555 1_555
O1A_2 Mn1_2 1_555 1_555
C3A C2A 1_555 1_555
C5A C6A 1_555 1_555
H4A C6A 1_555 1_555
C11A C10A 1_555 1_555
H5A C10A 1_555 1_555
H7A C12A 1_555 1_555
C4A C3A 1_555 1_555
H1A C3A 1_555 1_555
H3A C5A 1_555 1_555
H6A C11A 1_555 1_555
H2A C4A 1_555 1_555
C1 C7 1_555 1_555
C9 C14 1_555 1_555
C12 C13 1_555 1_555
C14A C9A 1_555 1_555
C2A O1A_2 1_555 1_555
C12A C11A 1_555 1_555
C5A C4A 1_555 1_555

#END
