
#######################################################################
#
#                 Cambridge Crystallographic Data Centre
#                                CCDC 
#
#######################################################################
#
# If this CIF has been generated from an entry in the Cambridge 
# Structural Database, then it will include bibliographic, chemical, 
# crystal, experimental, refinement or atomic coordinate data resulting 
# from the CCDC's data processing and validation procedures.
#
#######################################################################

data_JOCXEF
_symmetry_cell_setting           monoclinic
_symmetry_space_group_name_H-M   'P 21/c'
_symmetry_Int_Tables_number      14
_space_group_name_Hall           '-P 2ybc'
loop_
_symmetry_equiv_pos_site_id
_symmetry_equiv_pos_as_xyz
1 x,y,z
2 -x,1/2+y,1/2-z
3 -x,-y,-z
4 x,1/2-y,1/2+z
_cell_length_a                   10.764(2)
_cell_length_b                   10.683(2)
_cell_length_c                   15.939(3)
_cell_angle_alpha                90
_cell_angle_beta                 101.57(3)
_cell_angle_gamma                90
_cell_volume                     1795.61
loop_
_atom_site_label
_atom_site_type_symbol
_atom_site_fract_x
_atom_site_fract_y
_atom_site_fract_z
Ag1 Ag -0.38640(9) -0.09880(9) 0.57760(9)
O1 O -0.7252(2) -0.0286(2) 0.3103(2)
O2 O -0.4461(2) -0.2903(3) 0.1955(1)
O3 O -0.4867(2) -0.0920(2) 0.4260(1)
C1 C -0.5342(3) -0.2236(3) 0.2063(2)
C2 C -0.6506(3) -0.2004(3) 0.1392(2)
C3 C -0.6823(3) -0.2451(3) 0.0563(2)
C4 C -0.8023(4) -0.2145(4) 0.0091(2)
C5 C -0.8862(3) -0.1418(4) 0.0442(2)
C6 C -0.8533(3) -0.0951(3) 0.1276(2)
C7 C -0.7333(3) -0.1263(3) 0.1739(2)
C8 C -0.6730(3) -0.0946(3) 0.2642(2)
C9 C -0.5502(2) -0.1560(3) 0.2830(2)
C10 C -0.4653(2) -0.1536(3) 0.3637(2)
C11 C -0.3424(2) -0.2295(3) 0.3745(2)
C12 C -0.2338(3) -0.1530(3) 0.3533(2)
C13 C -0.1299(3) -0.2168(4) 0.3340(2)
C14 C -0.0243(3) -0.1512(4) 0.3210(2)
C15 C -0.0203(3) -0.0231(5) 0.3272(3)
C16 C -0.1224(4) 0.0404(4) 0.3452(3)
C17 C -0.2298(3) -0.0241(3) 0.3575(3)
C18 C -0.3059(3) -0.2848(3) 0.4641(2)
C19 C -0.3577(4) -0.3992(3) 0.4808(2)
C20 C -0.3241(4) -0.4533(4) 0.5615(2)
C21 C -0.2400(4) -0.3949(4) 0.6261(2)
C22 C -0.1877(3) -0.2821(4) 0.6101(2)
C23 C -0.2196(3) -0.2270(3) 0.5294(2)
H1 H -0.606 -0.300 0.031
H2 H -0.835 -0.261 -0.051
H3 H -0.977 -0.120 0.011
H4 H -0.915 -0.037 0.150
H5 H -0.361 -0.297 0.333
H6 H -0.140 -0.298 0.329
H7 H 0.058 -0.196 0.317
H8 H 0.055 0.022 0.319
H9 H -0.126 0.142 0.338
H10 H -0.302 0.022 0.370
H11 H -0.425 -0.439 0.437
H12 H -0.365 -0.541 0.567
H13 H -0.213 -0.445 0.686
H14 H -0.122 -0.243 0.654
H15 H -0.165 -0.160 0.523
Ag1C Ag -0.38640(9) -0.40120(9) 0.07760(9)
Ag1B Ag -0.61360(9) 0.09880(9) 0.42240(9)
O1B O -0.2748(2) 0.0286(2) 0.6897(2)
O2C O -0.4461(2) -0.2097(3) 0.6955(1)
O3B O -0.5133(2) 0.0920(2) 0.5740(1)
loop_
_geom_bond_atom_site_label_1
_geom_bond_atom_site_label_2
_geom_bond_site_symmetry_1
_geom_bond_site_symmetry_2
Ag1 O3 1_555 1_555
O1 C8 1_555 1_555
O2 C1 1_555 1_555
O3 C10 1_555 1_555
C1 C2 1_555 1_555
C2 C3 1_555 1_555
C3 C4 1_555 1_555
C4 C5 1_555 1_555
C5 C6 1_555 1_555
C6 C7 1_555 1_555
C7 C2 1_555 1_555
C8 C7 1_555 1_555
C9 C1 1_555 1_555
C10 C9 1_555 1_555
C11 C10 1_555 1_555
C12 C11 1_555 1_555
C13 C12 1_555 1_555
C14 C13 1_555 1_555
C15 C14 1_555 1_555
C16 C15 1_555 1_555
C17 C12 1_555 1_555
C18 C11 1_555 1_555
C19 C18 1_555 1_555
C20 C19 1_555 1_555
C21 C20 1_555 1_555
C22 C21 1_555 1_555
C23 Ag1 1_555 1_555
H1 C3 1_555 1_555
H2 C4 1_555 1_555
H3 C5 1_555 1_555
H4 C6 1_555 1_555
H5 C11 1_555 1_555
H6 C13 1_555 1_555
H7 C14 1_555 1_555
H8 C15 1_555 1_555
H9 C16 1_555 1_555
H10 C17 1_555 1_555
H11 C19 1_555 1_555
H12 C20 1_555 1_555
H13 C21 1_555 1_555
H14 C22 1_555 1_555
H15 C23 1_555 1_555
Ag1C O2 1_555 1_555
Ag1B O1 1_555 1_555
O1B Ag1 1_555 1_555
O2C Ag1 1_555 1_555
O3B Ag1 1_555 1_555
O3 Ag1B 1_555 1_555
C8 C9 1_555 1_555
C16 C17 1_555 1_555
C18 C23 1_555 1_555
C22 C23 1_555 1_555
Ag1B O3B 1_555 1_555

#END
