
#######################################################################
#
#                 Cambridge Crystallographic Data Centre
#                                CCDC 
#
#######################################################################
#
# If this CIF has been generated from an entry in the Cambridge 
# Structural Database, then it will include bibliographic, chemical, 
# crystal, experimental, refinement or atomic coordinate data resulting 
# from the CCDC's data processing and validation procedures.
#
#######################################################################

data_JOCXOO
_symmetry_cell_setting           triclinic
_symmetry_space_group_name_H-M   'P -1'
_symmetry_Int_Tables_number      2
_space_group_name_Hall           '-P 1'
loop_
_symmetry_equiv_pos_site_id
_symmetry_equiv_pos_as_xyz
1 x,y,z
2 -x,-y,-z
_cell_length_a                   8.060(3)
_cell_length_b                   10.784(3)
_cell_length_c                   12.778(3)
_cell_angle_alpha                103.40(2)
_cell_angle_beta                 104.15(2)
_cell_angle_gamma                109.96(2)
_cell_volume                     949.801
loop_
_atom_site_label
_atom_site_type_symbol
_atom_site_fract_x
_atom_site_fract_y
_atom_site_fract_z
Mn1 Mn 0.0000 0.0000 1.0000
Mn2 Mn 0.5000 0.5000 1.0000
O1 O 0.1511(4) -0.0356(3) 1.1150(2)
O2 O 0.1869(4) 0.1885(3) 1.0412(2)
O3 O 0.4815(4) 0.3437(3) 1.0970(3)
O4 O 0.2825(3) 0.3803(3) 0.8717(2)
O5 O 0.6558(4) 0.4389(3) 0.9287(2)
O6 O 0.7521(4) 0.3621(3) 0.7921(3)
C1 C 0.4178(5) 0.1925(4) 1.2028(3)
C2 C 0.3108(5) 0.0574(4) 1.2014(3)
C3 C 0.3779(6) 0.0157(4) 1.2926(4)
C4 C 0.5421(6) 0.1050(5) 1.3833(4)
C5 C 0.6462(6) 0.2406(5) 1.3873(4)
C6 C 0.5833(6) 0.2817(4) 1.2962(4)
C7 C 0.3606(6) 0.2440(4) 1.1086(4)
C8 C 0.2737(6) 0.3214(4) 0.7655(4)
C9 C 0.4284(6) 0.3145(4) 0.7365(4)
C10 C 0.4010(6) 0.2458(5) 0.6228(4)
C11 C 0.2250(7) 0.1840(6) 0.5365(4)
C12 C 0.0737(7) 0.1934(5) 0.5659(4)
C13 C 0.0966(6) 0.2610(5) 0.6767(4)
C14 C 0.6217(6) 0.3747(4) 0.8227(4)
O7 O 0.1353(5) -0.0756(4) 0.8818(3)
C15 C 0.2102(10) -0.0085(7) 0.8121(6)
H1 H 0.2994 -0.0884 1.2918
H2 H 0.5914 0.0700 1.4524
H3 H 0.7730 0.3118 1.4600
H4 H 0.6644 0.3855 1.2975
H5 H 0.5205 0.2405 0.6012
H6 H 0.2060 0.1301 0.4490
H7 H -0.0647 0.1464 0.5001
H8 H -0.0234 0.2681 0.6964
H9 H 0.2658 -0.0705 0.7647
H10 H 0.3221 0.0940 0.8651
H11 H 0.1007 0.0034 0.7526
O1A O -0.1511(4) 0.0356(3) 0.8850(2)
O2A O -0.1869(4) -0.1885(3) 0.9588(2)
O7A O -0.1353(5) 0.0756(4) 1.1182(3)
C15A C -0.2102(10) 0.0085(7) 1.1879(6)
H9A H -0.2658 0.0705 1.2353
H10A H -0.3221 -0.0940 1.1349
H11A H -0.1007 -0.0034 1.2474
O3A O 0.5185(4) 0.6563(3) 0.9030(3)
O4A O 0.7175(3) 0.6197(3) 1.1283(2)
O5A O 0.3442(4) 0.5611(3) 1.0713(2)
C7A C 0.6394(6) 0.7560(4) 0.8914(4)
C8A C 0.7263(6) 0.6786(4) 1.2345(4)
C14A C 0.3783(6) 0.6253(4) 1.1773(4)
O2A_2 O 0.8131(4) 0.8115(3) 0.9588(2)
C1A C 0.5822(5) 0.8075(4) 0.7972(3)
C9A C 0.5716(6) 0.6855(4) 1.2635(4)
C13A C 0.9034(6) 0.7390(5) 1.3233(4)
O6A O 0.2479(4) 0.6379(3) 1.2079(3)
Mn1_2 Mn 1.0000 1.0000 1.0000
C2A C 0.6892(5) 0.9426(4) 0.7986(3)
C6A C 0.4167(6) 0.7183(4) 0.7038(4)
C10A C 0.5990(6) 0.7542(5) 1.3772(4)
C12A C 0.9263(7) 0.8066(5) 1.4341(4)
H8A H 1.0234 0.7319 1.3036
O1A_2 O 0.8489(4) 1.0356(3) 0.8850(2)
C3A C 0.6221(6) 0.9843(4) 0.7074(4)
C5A C 0.3538(6) 0.7594(5) 0.6127(4)
H4A H 0.3356 0.6145 0.7025
C11A C 0.7750(7) 0.8160(6) 1.4635(4)
H5A H 0.4795 0.7595 1.3988
H7A H 1.0647 0.8536 1.4999
C4A C 0.4579(6) 0.8950(5) 0.6167(4)
H1A H 0.7006 1.0884 0.7082
H3A H 0.2270 0.6882 0.5400
H6A H 0.7940 0.8699 1.5510
H2A H 0.4086 0.9300 0.5476
K1 K -0.0066(1) 0.3238(1) 0.9533(1)
O8 O -0.1002(6) 0.5109(4) 0.6658(4)
C16 C -0.2045(11) 0.5787(8) 0.6213(6)
H12 H -0.1863 0.6680 0.6898
H13 H -0.3520 0.5065 0.5823
H14 H -0.1559 0.6140 0.5573
O9 O -0.1632(5) 0.3187(4) 1.1213(4)
H15 H -0.0814(63) 0.3874(47) 1.1943(38)
H16 H -0.2379(68) 0.3405(55) 1.1205(45)
loop_
_geom_bond_atom_site_label_1
_geom_bond_atom_site_label_2
_geom_bond_site_symmetry_1
_geom_bond_site_symmetry_2
Mn1 O1 1_555 1_555
Mn2 O3 1_555 1_555
O1 C2 1_555 1_555
O2 Mn1 1_555 1_555
O3 C7 1_555 1_555
O4 Mn2 1_555 1_555
O5 Mn2 1_555 1_555
O6 C14 1_555 1_555
C1 C2 1_555 1_555
C2 C3 1_555 1_555
C3 C4 1_555 1_555
C4 C5 1_555 1_555
C5 C6 1_555 1_555
C6 C1 1_555 1_555
C7 O2 1_555 1_555
C8 O4 1_555 1_555
C9 C8 1_555 1_555
C10 C9 1_555 1_555
C11 C10 1_555 1_555
C12 C11 1_555 1_555
C13 C8 1_555 1_555
C14 O5 1_555 1_555
O7 Mn1 1_555 1_555
C15 O7 1_555 1_555
O8 C16 1_555 1_555
C16 H12 1_555 1_555
O9 H15 1_555 1_555
H1 C3 1_555 1_555
H2 C4 1_555 1_555
H3 C5 1_555 1_555
H4 C6 1_555 1_555
H5 C10 1_555 1_555
H6 C11 1_555 1_555
H7 C12 1_555 1_555
H8 C13 1_555 1_555
H9 C15 1_555 1_555
H10 C15 1_555 1_555
H11 C15 1_555 1_555
H13 C16 1_555 1_555
H14 C16 1_555 1_555
H16 O9 1_555 1_555
O1A Mn1 1_555 1_555
O2A Mn1 1_555 1_555
O7A Mn1 1_555 1_555
C15A O7A 1_555 1_555
H9A C15A 1_555 1_555
H10A C15A 1_555 1_555
H11A C15A 1_555 1_555
O3A Mn2 1_555 1_555
O4A Mn2 1_555 1_555
O5A Mn2 1_555 1_555
C7A O3A 1_555 1_555
C8A O4A 1_555 1_555
C14A O5A 1_555 1_555
O2A_2 C7A 1_555 1_555
C1A C7A 1_555 1_555
C9A C8A 1_555 1_555
C13A C8A 1_555 1_555
O6A C14A 1_555 1_555
Mn1_2 O2A_2 1_555 1_555
C2A C1A 1_555 1_555
C6A C1A 1_555 1_555
C10A C9A 1_555 1_555
C12A C13A 1_555 1_555
H8A C13A 1_555 1_555
O1A_2 Mn1_2 1_555 1_555
C3A C2A 1_555 1_555
C5A C6A 1_555 1_555
H4A C6A 1_555 1_555
C11A C10A 1_555 1_555
H5A C10A 1_555 1_555
H7A C12A 1_555 1_555
C4A C3A 1_555 1_555
H1A C3A 1_555 1_555
H3A C5A 1_555 1_555
H6A C11A 1_555 1_555
H2A C4A 1_555 1_555
C1 C7 1_555 1_555
C9 C14 1_555 1_555
C12 C13 1_555 1_555
C14A C9A 1_555 1_555
C2A O1A_2 1_555 1_555
C12A C11A 1_555 1_555
C5A C4A 1_555 1_555

#END
