
#######################################################################
#
#                 Cambridge Crystallographic Data Centre
#                                CCDC 
#
#######################################################################
#
# If this CIF has been generated from an entry in the Cambridge 
# Structural Database, then it will include bibliographic, chemical, 
# crystal, experimental, refinement or atomic coordinate data resulting 
# from the CCDC's data processing and validation procedures.
#
#######################################################################

data_JOCZIL
_symmetry_cell_setting           triclinic
_symmetry_space_group_name_H-M   'P -1'
_symmetry_Int_Tables_number      2
_space_group_name_Hall           '-P 1'
loop_
_symmetry_equiv_pos_site_id
_symmetry_equiv_pos_as_xyz
1 x,y,z
2 -x,-y,-z
_cell_length_a                   13.976(3)
_cell_length_b                   16.723(3)
_cell_length_c                   20.578(4)
_cell_angle_alpha                98.74(2)
_cell_angle_beta                 106.19(3)
_cell_angle_gamma                114.07(3)
_cell_volume                     4018.93
loop_
_atom_site_label
_atom_site_type_symbol
_atom_site_fract_x
_atom_site_fract_y
_atom_site_fract_z
Na1 Na 0.30113(12) 0.16857(12) 0.12152(9)
Na2 Na 0.50065(16) -0.06949(16) 0.59108(11)
O1 O 0.2192(2) 0.13693(18) 0.22695(15)
O2 O 0.2900(3) 0.3018(2) 0.1944(2)
O3 O 0.2563(3) 0.2876(3) 0.0567(2)
O4 O 0.3648(3) 0.1907(2) 0.02151(18)
O5 O 0.3473(2) 0.0447(2) 0.06857(16)
O6 O 0.25535(19) 0.00873(18) 0.17163(14)
O7 O 0.1126(2) 0.0646(2) 0.04242(16)
O8 O 0.4882(4) 0.2640(4) 0.1958(3)
H1 H 0.486(8) 0.233(4) 0.226(3)
H2 H 0.537(4) 0.3213(16) 0.214(3)
O9 O 0.3064(2) -0.2167(2) 0.53554(15)
O10 O 0.5022(3) -0.2156(3) 0.5312(2)
O11 O 0.6955(4) -0.0562(4) 0.5736(4)
O12 O 0.7069(4) 0.0979(5) 0.6381(4)
O13 O 0.5171(3) 0.0981(2) 0.65373(19)
O14 O 0.3139(2) -0.06731(19) 0.59824(15)
O15 O 0.5333(3) -0.0990(4) 0.6963(2)
H3 H 0.484(3) -0.143(3) 0.702(3)
H4 H 0.6011(19) -0.073(3) 0.727(2)
O16 O 0.5000 0.0000 0.5000
O17 O -0.0538(2) -0.0281(2) 0.38862(15)
O18 O -0.0165(2) -0.33119(18) 0.27162(15)
N1 N -0.1663(2) -0.1411(2) 0.28146(18)
N2 N -0.1232(2) -0.2591(2) 0.23662(17)
N3 N -0.1337(2) -0.1820(2) 0.37969(17)
N4 N -0.1430(2) -0.3240(2) 0.32208(17)
C1 C -0.2062(3) -0.2390(3) 0.2552(2)
C2 C -0.1370(3) -0.0828(3) 0.2372(2)
H5 H -0.1296 -0.0239 0.2591
H6 H -0.2000 -0.1100 0.1918
C3 C -0.0299(3) -0.0650(3) 0.2229(2)
C4 C -0.0092(3) -0.1338(3) 0.1944(2)
C5 C -0.0887(3) -0.2355(3) 0.1792(2)
H7 H -0.1559 -0.2542 0.1378
H8 H -0.0517 -0.2705 0.1676
C6 C 0.0479(3) 0.0267(3) 0.2351(2)
H9 H 0.0360 0.0734 0.2558
C7 C 0.1414(3) 0.0495(3) 0.2173(2)
C8 C 0.1597(3) -0.0209(3) 0.1870(2)
C9 C 0.0866(3) -0.1101(3) 0.1768(2)
H10 H 0.1007 -0.1564 0.1578
C10 C 0.2010(4) 0.2107(3) 0.2583(2)
H11 H 0.2028 0.2102 0.3057
H12 H 0.1275 0.2024 0.2297
C11 C 0.2900(4) 0.2979(3) 0.2614(3)
H13 H 0.2795 0.3477 0.2832
H14 H 0.3629 0.3061 0.2910
C12 C 0.2336(5) 0.3417(4) 0.1588(3)
H15 H 0.2480 0.3970 0.1919
H16 H 0.1530 0.2999 0.1404
C13 C 0.2649(6) 0.3644(4) 0.1024(4)
H17 H 0.3422 0.4139 0.1210
H18 H 0.2162 0.3859 0.0759
C14 C 0.3245(5) 0.3135(4) 0.0178(3)
H19 H 0.4015 0.3566 0.0500
H20 H 0.2980 0.3442 -0.0136
C15 C 0.3228(5) 0.2330(4) -0.0245(3)
H21 H 0.2460 0.1898 -0.0569
H22 H 0.3692 0.2522 -0.0522
C16 C 0.3876(5) 0.1246(4) -0.0123(3)
H23 H 0.4428 0.1530 -0.0328
H24 H 0.3189 0.0764 -0.0503
C17 C 0.4319(4) 0.0853(4) 0.0405(3)
H25 H 0.4478 0.0392 0.0183
H26 H 0.5014 0.1330 0.0781
C18 C 0.3681(3) -0.0118(3) 0.1099(3)
H27 H 0.4341 0.0255 0.1533
H28 H 0.3819 -0.0563 0.0834
C19 C 0.2658(3) -0.0603(3) 0.1270(2)
H29 H 0.1987 -0.0939 0.0837
H30 H 0.2744 -0.1035 0.1515
C20 C 0.0826(4) 0.0056(3) -0.0254(3)
H31 H 0.1438 -0.0079 -0.0255
H32 H 0.0716 0.0364 -0.0610
C21 C 0.0214(4) 0.0806(3) 0.0437(3)
H33 H 0.0083 0.1137 0.0102
H34 H 0.0407 0.1187 0.0907
C22 C -0.3222(3) -0.2899(3) 0.1942(2)
C23 C -0.3967(3) -0.2532(3) 0.1866(2)
H35 H -0.3742 -0.1959 0.2167
C24 C -0.5034(4) -0.3019(5) 0.1346(3)
H36 H -0.5520 -0.2763 0.1295
C25 C -0.5395(4) -0.3852(5) 0.0909(3)
H37 H -0.6127 -0.4178 0.0569
C26 C -0.4663(5) -0.4216(4) 0.0974(3)
H38 H -0.4898 -0.4786 0.0664
C27 C -0.3580(4) -0.3748(3) 0.1493(2)
H39 H -0.3099 -0.4008 0.1537
C28 C -0.1105(3) -0.1095(3) 0.3539(2)
C29 C -0.2029(3) -0.2706(3) 0.3244(2)
C30 C -0.0862(3) -0.3067(3) 0.2765(2)
C31 C -0.0887(3) -0.1744(3) 0.4539(2)
H40 H -0.1476 -0.2188 0.4651
H41 H -0.0680 -0.1136 0.4822
C32 C 0.0140(3) -0.1901(3) 0.4748(2)
C33 C 0.0093(3) -0.2703(3) 0.4410(2)
C34 C -0.0987(3) -0.3485(3) 0.3842(2)
H42 H -0.0845 -0.3991 0.3693
H43 H -0.1559 -0.3699 0.4046
C35 C 0.1063(3) -0.2812(3) 0.4606(2)
H44 H 0.1038 -0.3351 0.4382
C36 C 0.2056(3) -0.2124(3) 0.5130(2)
C37 C 0.2105(3) -0.1318(3) 0.5476(2)
C38 C 0.1146(3) -0.1208(3) 0.5278(2)
H45 H 0.1173 -0.0667 0.5499
C39 C 0.3038(3) -0.2998(3) 0.5018(3)
H46 H 0.2912 -0.3061 0.4521
H47 H 0.2438 -0.3530 0.5051
C40 C 0.4171(4) -0.2917(4) 0.5407(3)
H48 H 0.4308 -0.2820 0.5909
H49 H 0.4189 -0.3478 0.5223
C41 C 0.6101(5) -0.2099(5) 0.5609(4)
H50 H 0.6334 -0.1964 0.6120
H51 H 0.6070 -0.2680 0.5418
C42 C 0.6881(6) -0.1396(6) 0.5440(5)
H52 H 0.7619 -0.1365 0.5621
H53 H 0.6639 -0.1529 0.4929
C43 C 0.7863(6) 0.0122(7) 0.6004(5)
H54 H 0.8173 0.0207 0.5637
H55 H 0.8353 -0.0010 0.6358
C44 C 0.7972(5) 0.0971(6) 0.6330(4)
H56 H 0.8547 0.1214 0.6805
H57 H 0.8250 0.1390 0.6068
C45 C 0.7048(5) 0.1782(6) 0.6605(5)
H58 H 0.6767 0.1968 0.6200
H59 H 0.7805 0.2266 0.6906
C46 C 0.6290(5) 0.1617(4) 0.7008(4)
H60 H 0.6534 0.1375 0.7384
H61 H 0.6321 0.2190 0.7222
C47 C 0.4394(4) 0.0738(3) 0.6877(3)
H62 H 0.4458 0.1287 0.7164
H63 H 0.4557 0.0387 0.7186
C48 C 0.3218(3) 0.0172(3) 0.6324(2)
H64 H 0.2664 0.0059 0.6544
H65 H 0.3079 0.0492 0.5982
C49 C -0.3175(3) -0.3235(3) 0.3278(2)
C50 C -0.3691(3) -0.2775(3) 0.3518(2)
H66 H -0.3300 -0.2138 0.3709
C51 C -0.4794(4) -0.3257(5) 0.3474(3)
H67 H -0.5136 -0.2943 0.3641
C52 C -0.5375(4) -0.4181(5) 0.3192(3)
H68 H -0.6120 -0.4497 0.3155
C53 C -0.4874(4) -0.4649(4) 0.2961(3)
H69 H -0.5273 -0.5286 0.2776
C54 C -0.3772(3) -0.4179(3) 0.3000(2)
H70 H -0.3434 -0.4501 0.2838
Na1A Na -0.30113(12) -0.16857(12) -0.12152(9)
Na2A Na -0.50065(16) 0.06949(16) -0.59108(11)
Na2A_2 Na 0.49935(16) 0.06949(16) 0.40892(11)
O1A O -0.2192(2) -0.13693(18) -0.22695(15)
O2A O -0.2900(3) -0.3018(2) -0.1944(2)
O3A O -0.2563(3) -0.2876(3) -0.0567(2)
O4A O -0.3648(3) -0.1907(2) -0.02151(18)
O5A O -0.3473(2) -0.0447(2) -0.06857(16)
O6A O -0.25535(19) -0.00873(18) -0.17163(14)
O7A O -0.1126(2) -0.0646(2) -0.04242(16)
O8A O -0.4882(4) -0.2640(4) -0.1958(3)
H1A H -0.486(8) -0.233(4) -0.226(3)
H2A H -0.537(4) -0.3213(16) -0.214(3)
O9A O -0.3064(2) 0.2167(2) -0.53554(15)
O10A O -0.5022(3) 0.2156(3) -0.5312(2)
O11A O -0.6955(4) 0.0562(4) -0.5736(4)
O12A O -0.7069(4) -0.0979(5) -0.6381(4)
O13A O -0.5171(3) -0.0981(2) -0.65373(19)
O14A O -0.3139(2) 0.06731(19) -0.59824(15)
O15A O -0.5333(3) 0.0990(4) -0.6963(2)
H3A H -0.484(3) 0.143(3) -0.702(3)
H4A H -0.6011(19) 0.073(3) -0.727(2)
O16_2 O -0.5000 0.0000 -0.5000
O17A O 0.0538(2) 0.0281(2) -0.38862(15)
O18A O 0.0165(2) 0.33119(18) -0.27162(15)
N1A N 0.1663(2) 0.1411(2) -0.28146(18)
N2A N 0.1232(2) 0.2591(2) -0.23662(17)
N3A N 0.1337(2) 0.1820(2) -0.37969(17)
N4A N 0.1430(2) 0.3240(2) -0.32208(17)
C1A C 0.2062(3) 0.2390(3) -0.2552(2)
C2A C 0.1370(3) 0.0828(3) -0.2372(2)
H5A H 0.1296 0.0239 -0.2591
H6A H 0.2000 0.1100 -0.1918
C3A C 0.0299(3) 0.0650(3) -0.2229(2)
C4A C 0.0092(3) 0.1338(3) -0.1944(2)
C5A C 0.0887(3) 0.2355(3) -0.1792(2)
H7A H 0.1559 0.2542 -0.1378
H8A H 0.0517 0.2705 -0.1676
C6A C -0.0479(3) -0.0267(3) -0.2351(2)
H9A H -0.0360 -0.0734 -0.2558
C7A C -0.1414(3) -0.0495(3) -0.2173(2)
C8A C -0.1597(3) 0.0209(3) -0.1870(2)
C9A C -0.0866(3) 0.1101(3) -0.1768(2)
H10A H -0.1007 0.1564 -0.1578
C10A C -0.2010(4) -0.2107(3) -0.2583(2)
H11A H -0.2028 -0.2102 -0.3057
H12A H -0.1275 -0.2024 -0.2297
C11A C -0.2900(4) -0.2979(3) -0.2614(3)
H13A H -0.2795 -0.3477 -0.2832
H14A H -0.3629 -0.3061 -0.2910
C12A C -0.2336(5) -0.3417(4) -0.1588(3)
H15A H -0.2480 -0.3970 -0.1919
H16A H -0.1530 -0.2999 -0.1404
C13A C -0.2649(6) -0.3644(4) -0.1024(4)
H17A H -0.3422 -0.4139 -0.1210
H18A H -0.2162 -0.3859 -0.0759
C14A C -0.3245(5) -0.3135(4) -0.0178(3)
H19A H -0.4015 -0.3566 -0.0500
H20A H -0.2980 -0.3442 0.0136
C15A C -0.3228(5) -0.2330(4) 0.0245(3)
H21A H -0.2460 -0.1898 0.0569
H22A H -0.3692 -0.2522 0.0522
C16A C -0.3876(5) -0.1246(4) 0.0123(3)
H23A H -0.4428 -0.1530 0.0328
H24A H -0.3189 -0.0764 0.0503
C17A C -0.4319(4) -0.0853(4) -0.0405(3)
H25A H -0.4478 -0.0392 -0.0183
H26A H -0.5014 -0.1330 -0.0781
C18A C -0.3681(3) 0.0118(3) -0.1099(3)
H27A H -0.4341 -0.0255 -0.1533
H28A H -0.3819 0.0563 -0.0834
C19A C -0.2658(3) 0.0603(3) -0.1270(2)
H29A H -0.1987 0.0939 -0.0837
H30A H -0.2744 0.1035 -0.1515
C20A C -0.0826(4) -0.0056(3) 0.0254(3)
H31A H -0.1438 0.0079 0.0255
H32A H -0.0716 -0.0364 0.0610
C21A C -0.0214(4) -0.0806(3) -0.0437(3)
H33A H -0.0083 -0.1137 -0.0102
H34A H -0.0407 -0.1187 -0.0907
C22A C 0.3222(3) 0.2899(3) -0.1942(2)
C23A C 0.3967(3) 0.2532(3) -0.1866(2)
H35A H 0.3742 0.1959 -0.2167
C24A C 0.5034(4) 0.3019(5) -0.1346(3)
H36A H 0.5520 0.2763 -0.1295
C25A C 0.5395(4) 0.3852(5) -0.0909(3)
H37A H 0.6127 0.4178 -0.0569
C26A C 0.4663(5) 0.4216(4) -0.0974(3)
H38A H 0.4898 0.4786 -0.0664
C27A C 0.3580(4) 0.3748(3) -0.1493(2)
H39A H 0.3099 0.4008 -0.1537
C28A C 0.1105(3) 0.1095(3) -0.3539(2)
C29A C 0.2029(3) 0.2706(3) -0.3244(2)
C30A C 0.0862(3) 0.3067(3) -0.2765(2)
C31A C 0.0887(3) 0.1744(3) -0.4539(2)
H40A H 0.1476 0.2188 -0.4651
H41A H 0.0680 0.1136 -0.4822
C32A C -0.0140(3) 0.1901(3) -0.4748(2)
C33A C -0.0093(3) 0.2703(3) -0.4410(2)
C34A C 0.0987(3) 0.3485(3) -0.3842(2)
H42A H 0.0845 0.3991 -0.3693
H43A H 0.1559 0.3699 -0.4046
C35A C -0.1063(3) 0.2812(3) -0.4606(2)
H44A H -0.1038 0.3351 -0.4382
C36A C -0.2056(3) 0.2124(3) -0.5130(2)
C37A C -0.2105(3) 0.1318(3) -0.5476(2)
C38A C -0.1146(3) 0.1208(3) -0.5278(2)
H45A H -0.1173 0.0667 -0.5499
C39A C -0.3038(3) 0.2998(3) -0.5018(3)
H46A H -0.2912 0.3061 -0.4521
H47A H -0.2438 0.3530 -0.5051
C40A C -0.4171(4) 0.2917(4) -0.5407(3)
H48A H -0.4308 0.2820 -0.5909
H49A H -0.4189 0.3478 -0.5223
C41A C -0.6101(5) 0.2099(5) -0.5609(4)
H50A H -0.6334 0.1964 -0.6120
H51A H -0.6070 0.2680 -0.5418
C42A C -0.6881(6) 0.1396(6) -0.5440(5)
H52A H -0.7619 0.1365 -0.5621
H53A H -0.6639 0.1529 -0.4929
C43A C -0.7863(6) -0.0122(7) -0.6004(5)
H54A H -0.8173 -0.0207 -0.5637
H55A H -0.8353 0.0010 -0.6358
C44A C -0.7972(5) -0.0971(6) -0.6330(4)
H56A H -0.8547 -0.1214 -0.6805
H57A H -0.8250 -0.1390 -0.6068
C45A C -0.7048(5) -0.1782(6) -0.6605(5)
H58A H -0.6767 -0.1968 -0.6200
H59A H -0.7805 -0.2266 -0.6906
C46A C -0.6290(5) -0.1617(4) -0.7008(4)
H60A H -0.6534 -0.1375 -0.7384
H61A H -0.6321 -0.2190 -0.7222
C47A C -0.4394(4) -0.0738(3) -0.6877(3)
H62A H -0.4458 -0.1287 -0.7164
H63A H -0.4557 -0.0387 -0.7186
C48A C -0.3218(3) -0.0172(3) -0.6324(2)
H64A H -0.2664 -0.0059 -0.6544
H65A H -0.3079 -0.0492 -0.5982
C49A C 0.3175(3) 0.3235(3) -0.3278(2)
C50A C 0.3691(3) 0.2775(3) -0.3518(2)
H66A H 0.3300 0.2138 -0.3709
C51A C 0.4794(4) 0.3257(5) -0.3474(3)
H67A H 0.5136 0.2943 -0.3641
C52A C 0.5375(4) 0.4181(5) -0.3192(3)
H68A H 0.6120 0.4497 -0.3155
C53A C 0.4874(4) 0.4649(4) -0.2961(3)
H69A H 0.5273 0.5286 -0.2776
C54A C 0.3772(3) 0.4179(3) -0.3000(2)
H70A H 0.3434 0.4501 -0.2838
O19 O 0.7272(5) 0.4746(5) 0.1650(5)
O20 O 0.6405(5) 0.3532(5) 0.0833(4)
O21 O 1.0803(5) 0.5234(4) 0.3554(3)
O22 O 1.1750(5) 0.5188(6) 0.3023(4)
O23 O 0.9085(4) 0.1519(3) 0.1541(3)
O24 O 0.8163(6) 0.1624(4) 0.0561(3)
O25 O 1.0676(3) 0.3256(3) 0.2452(2)
N5 N 0.7224(6) 0.4078(5) 0.1356(5)
N6 N 1.0931(5) 0.4946(5) 0.3031(3)
N7 N 0.8699(5) 0.1922(4) 0.1183(4)
C55 C 0.8117(5) 0.3853(4) 0.1621(3)
C56 C 0.9083(5) 0.4478(4) 0.2205(3)
H71 H 0.9155 0.5039 0.2427
C57 C 0.9908(4) 0.4260(3) 0.2442(3)
C58 C 0.9859(5) 0.3417(4) 0.2156(3)
C59 C 0.8859(5) 0.2811(4) 0.1560(3)
C60 C 0.7996(5) 0.3020(4) 0.1277(3)
H72 H 0.7362 0.2616 0.0872
O26 O 0.7206(5) 0.3942(4) 0.3204(3)
O27 O 0.8467(5) 0.4454(4) 0.4231(3)
O28 O 1.1033(3) 0.2260(3) 0.3913(2)
O29 O 1.1385(3) 0.3558(3) 0.4581(2)
O30 O 0.6567(4) 0.0947(3) 0.1608(3)
O31 O 0.7129(4) 0.0195(3) 0.2216(3)
O32 O 0.6362(3) 0.2113(3) 0.2627(2)
N8 N 0.7961(5) 0.3912(4) 0.3657(4)
N9 N 1.0770(4) 0.2855(4) 0.4082(3)
N10 N 0.7123(4) 0.0898(4) 0.2167(3)
C61 C 0.8225(5) 0.3165(4) 0.3467(3)
C62 C 0.9304(4) 0.3326(4) 0.3847(3)
H73 H 0.9806 0.3867 0.4216
C63 C 0.9628(4) 0.2679(4) 0.3672(3)
C64 C 0.8905(4) 0.1883(4) 0.3125(3)
H74 H 0.9136 0.1451 0.3007
C65 C 0.7852(4) 0.1736(4) 0.2759(3)
C66 C 0.7392(4) 0.2333(4) 0.2922(3)
O33 O 0.4785(3) 0.4424(2) 0.43506(19)
C67 C 0.3901(4) 0.4552(4) 0.4495(3)
H75 H 0.3185 0.3994 0.4247
H76 H 0.3836 0.5044 0.4324
C68 C 0.5851(4) 0.5216(4) 0.4726(3)
H77 H 0.5849 0.5730 0.4562
H78 H 0.6437 0.5105 0.4634
O33A O 0.5215(3) 0.5576(2) 0.56494(19)
C67A C 0.6099(4) 0.5448(4) 0.5505(3)
H75A H 0.6815 0.6006 0.5753
H76A H 0.6164 0.4956 0.5676
C68A C 0.4149(4) 0.4784(4) 0.5274(3)
H77A H 0.4151 0.4270 0.5438
H78A H 0.3563 0.4895 0.5366
O34 O 0.1026(6) -0.3083(4) 0.1154(5)
O35 O 0.1570(5) -0.4381(5) 0.0672(4)
C69 C 0.0847(9) -0.3343(6) 0.0416(6)
H79 H 0.0945 -0.2829 0.0228
H80 H 0.0093 -0.3849 0.0142
C70 C 0.0800(9) -0.3841(8) 0.1396(6)
H81 H 0.0040 -0.4328 0.1105
H82 H 0.0846 -0.3680 0.1881
C71 C 0.1600(10) -0.4151(8) 0.1367(5)
H83 H 0.2354 -0.3672 0.1678
H84 H 0.1439 -0.4685 0.1535
C72 C 0.1696(9) -0.3614(10) 0.0401(6)
H85 H 0.2438 -0.3097 0.0683
H86 H 0.1649 -0.3778 -0.0084
loop_
_geom_bond_atom_site_label_1
_geom_bond_atom_site_label_2
_geom_bond_site_symmetry_1
_geom_bond_site_symmetry_2
Na1 O1 1_555 1_555
Na2 O9 1_555 1_555
O1 C7 1_555 1_555
O2 Na1 1_555 1_555
O3 Na1 1_555 1_555
O4 Na1 1_555 1_555
O5 Na1 1_555 1_555
O6 Na1 1_555 1_555
O7 Na1 1_555 1_555
O8 Na1 1_555 1_555
H1 O8 1_555 1_555
H2 O8 1_555 1_555
O9 C36 1_555 1_555
O10 Na2 1_555 1_555
O11 Na2 1_555 1_555
O12 Na2 1_555 1_555
O13 Na2 1_555 1_555
O14 Na2 1_555 1_555
O15 Na2 1_555 1_555
H3 O15 1_555 1_555
H4 O15 1_555 1_555
O16 Na2 1_555 1_555
O17 C28 1_555 1_555
O18 C30 1_555 1_555
O19 N5 1_555 1_555
O20 N5 1_555 1_555
O21 N6 1_555 1_555
O22 N6 1_555 1_555
O23 N7 1_555 1_555
O24 N7 1_555 1_555
O25 C58 1_555 1_555
O26 N8 1_555 1_555
O27 N8 1_555 1_555
O28 N9 1_555 1_555
O29 N9 1_555 1_555
O30 N10 1_555 1_555
O31 N10 1_555 1_555
O32 C66 1_555 1_555
O33 C67 1_555 1_555
O34 C69 1_555 1_555
O35 C71 1_555 1_555
N1 C1 1_555 1_555
N2 C1 1_555 1_555
N3 C28 1_555 1_555
N4 C29 1_555 1_555
N5 C55 1_555 1_555
N6 C57 1_555 1_555
N7 C59 1_555 1_555
N8 C61 1_555 1_555
N9 C63 1_555 1_555
N10 C65 1_555 1_555
C1 C22 1_555 1_555
C2 N1 1_555 1_555
H5 C2 1_555 1_555
H6 C2 1_555 1_555
C3 C2 1_555 1_555
C4 C3 1_555 1_555
C5 N2 1_555 1_555
H7 C5 1_555 1_555
H8 C5 1_555 1_555
C6 C3 1_555 1_555
H9 C6 1_555 1_555
C7 C6 1_555 1_555
C8 O6 1_555 1_555
C9 C4 1_555 1_555
H10 C9 1_555 1_555
C10 O1 1_555 1_555
H11 C10 1_555 1_555
H12 C10 1_555 1_555
C11 O2 1_555 1_555
H13 C11 1_555 1_555
H14 C11 1_555 1_555
C12 O2 1_555 1_555
H15 C12 1_555 1_555
H16 C12 1_555 1_555
C13 O3 1_555 1_555
H17 C13 1_555 1_555
H18 C13 1_555 1_555
C14 O3 1_555 1_555
H19 C14 1_555 1_555
H20 C14 1_555 1_555
C15 O4 1_555 1_555
H21 C15 1_555 1_555
H22 C15 1_555 1_555
C16 O4 1_555 1_555
H23 C16 1_555 1_555
H24 C16 1_555 1_555
C17 O5 1_555 1_555
H25 C17 1_555 1_555
H26 C17 1_555 1_555
C18 O5 1_555 1_555
H27 C18 1_555 1_555
H28 C18 1_555 1_555
C19 O6 1_555 1_555
H29 C19 1_555 1_555
H30 C19 1_555 1_555
C20 O7 1_555 1_555
H31 C20 1_555 1_555
H32 C20 1_555 1_555
C21 O7 1_555 1_555
H33 C21 1_555 1_555
H34 C21 1_555 1_555
C22 C23 1_555 1_555
C23 H35 1_555 1_555
C24 C23 1_555 1_555
H36 C24 1_555 1_555
C25 C24 1_555 1_555
H37 C25 1_555 1_555
C26 C25 1_555 1_555
H38 C26 1_555 1_555
C27 C22 1_555 1_555
H39 C27 1_555 1_555
C28 N1 1_555 1_555
C29 N3 1_555 1_555
C30 N2 1_555 1_555
C31 N3 1_555 1_555
H40 C31 1_555 1_555
H41 C31 1_555 1_555
C32 C31 1_555 1_555
C33 C32 1_555 1_555
C34 N4 1_555 1_555
H42 C34 1_555 1_555
H43 C34 1_555 1_555
C35 C33 1_555 1_555
H44 C35 1_555 1_555
C36 C35 1_555 1_555
C37 O14 1_555 1_555
C38 C32 1_555 1_555
H45 C38 1_555 1_555
C39 O9 1_555 1_555
H46 C39 1_555 1_555
H47 C39 1_555 1_555
C40 O10 1_555 1_555
H48 C40 1_555 1_555
H49 C40 1_555 1_555
C41 O10 1_555 1_555
H50 C41 1_555 1_555
H51 C41 1_555 1_555
C42 O11 1_555 1_555
H52 C42 1_555 1_555
H53 C42 1_555 1_555
C43 O11 1_555 1_555
H54 C43 1_555 1_555
H55 C43 1_555 1_555
C44 O12 1_555 1_555
H56 C44 1_555 1_555
H57 C44 1_555 1_555
C45 O12 1_555 1_555
H58 C45 1_555 1_555
H59 C45 1_555 1_555
C46 O13 1_555 1_555
H60 C46 1_555 1_555
H61 C46 1_555 1_555
C47 O13 1_555 1_555
H62 C47 1_555 1_555
H63 C47 1_555 1_555
C48 O14 1_555 1_555
H64 C48 1_555 1_555
H65 C48 1_555 1_555
C49 C29 1_555 1_555
C50 C49 1_555 1_555
H66 C50 1_555 1_555
C51 C50 1_555 1_555
H67 C51 1_555 1_555
C52 C51 1_555 1_555
H68 C52 1_555 1_555
C53 C52 1_555 1_555
H69 C53 1_555 1_555
C54 C49 1_555 1_555
H70 C54 1_555 1_555
C55 C56 1_555 1_555
C56 H71 1_555 1_555
C57 C56 1_555 1_555
C58 C57 1_555 1_555
C59 C58 1_555 1_555
C60 C55 1_555 1_555
H72 C60 1_555 1_555
C61 C62 1_555 1_555
C62 H73 1_555 1_555
C63 C62 1_555 1_555
C64 C63 1_555 1_555
H74 C64 1_555 1_555
C65 C64 1_555 1_555
C66 C61 1_555 1_555
C67 H75 1_555 1_555
H76 C67 1_555 1_555
C68 O33 1_555 1_555
H77 C68 1_555 1_555
H78 C68 1_555 1_555
C69 H79 1_555 1_555
H80 C69 1_555 1_555
C70 O34 1_555 1_555
H81 C70 1_555 1_555
H82 C70 1_555 1_555
C71 C70 1_555 1_555
H83 C71 1_555 1_555
H84 C71 1_555 1_555
C72 O35 1_555 1_555
H85 C72 1_555 1_555
H86 C72 1_555 1_555
Na1A O1A 1_555 1_555
Na2A O9A 1_555 1_555
Na2A_2 O16 1_555 1_555
O1A C7A 1_555 1_555
O2A Na1A 1_555 1_555
O3A Na1A 1_555 1_555
O4A Na1A 1_555 1_555
O5A Na1A 1_555 1_555
O6A Na1A 1_555 1_555
O7A Na1A 1_555 1_555
O8A Na1A 1_555 1_555
H1A O8A 1_555 1_555
H2A O8A 1_555 1_555
O9A C36A 1_555 1_555
O10A Na2A 1_555 1_555
O11A Na2A 1_555 1_555
O12A Na2A 1_555 1_555
O13A Na2A 1_555 1_555
O14A Na2A 1_555 1_555
O15A Na2A 1_555 1_555
H3A O15A 1_555 1_555
H4A O15A 1_555 1_555
O16_2 Na2A 1_555 1_555
O17A C28A 1_555 1_555
O18A C30A 1_555 1_555
O33A C67A 1_555 1_555
N1A C1A 1_555 1_555
N2A C1A 1_555 1_555
N3A C28A 1_555 1_555
N4A C29A 1_555 1_555
C1A C22A 1_555 1_555
C2A N1A 1_555 1_555
H5A C2A 1_555 1_555
H6A C2A 1_555 1_555
C3A C2A 1_555 1_555
C4A C3A 1_555 1_555
C5A N2A 1_555 1_555
H7A C5A 1_555 1_555
H8A C5A 1_555 1_555
C6A C3A 1_555 1_555
H9A C6A 1_555 1_555
C7A C6A 1_555 1_555
C8A O6A 1_555 1_555
C9A C4A 1_555 1_555
H10A C9A 1_555 1_555
C10A O1A 1_555 1_555
H11A C10A 1_555 1_555
H12A C10A 1_555 1_555
C11A O2A 1_555 1_555
H13A C11A 1_555 1_555
H14A C11A 1_555 1_555
C12A O2A 1_555 1_555
H15A C12A 1_555 1_555
H16A C12A 1_555 1_555
C13A O3A 1_555 1_555
H17A C13A 1_555 1_555
H18A C13A 1_555 1_555
C14A O3A 1_555 1_555
H19A C14A 1_555 1_555
H20A C14A 1_555 1_555
C15A O4A 1_555 1_555
H21A C15A 1_555 1_555
H22A C15A 1_555 1_555
C16A O4A 1_555 1_555
H23A C16A 1_555 1_555
H24A C16A 1_555 1_555
C17A O5A 1_555 1_555
H25A C17A 1_555 1_555
H26A C17A 1_555 1_555
C18A O5A 1_555 1_555
H27A C18A 1_555 1_555
H28A C18A 1_555 1_555
C19A O6A 1_555 1_555
H29A C19A 1_555 1_555
H30A C19A 1_555 1_555
C20A C21 1_555 1_555
H31A C20A 1_555 1_555
H32A C20A 1_555 1_555
C21A C20 1_555 1_555
H33A C21A 1_555 1_555
H34A C21A 1_555 1_555
C22A C23A 1_555 1_555
C23A H35A 1_555 1_555
C24A C23A 1_555 1_555
H36A C24A 1_555 1_555
C25A C24A 1_555 1_555
H37A C25A 1_555 1_555
C26A C25A 1_555 1_555
H38A C26A 1_555 1_555
C27A C22A 1_555 1_555
H39A C27A 1_555 1_555
C28A N1A 1_555 1_555
C29A N3A 1_555 1_555
C30A N2A 1_555 1_555
C31A N3A 1_555 1_555
H40A C31A 1_555 1_555
H41A C31A 1_555 1_555
C32A C31A 1_555 1_555
C33A C32A 1_555 1_555
C34A N4A 1_555 1_555
H42A C34A 1_555 1_555
H43A C34A 1_555 1_555
C35A C33A 1_555 1_555
H44A C35A 1_555 1_555
C36A C35A 1_555 1_555
C37A O14A 1_555 1_555
C38A C32A 1_555 1_555
H45A C38A 1_555 1_555
C39A O9A 1_555 1_555
H46A C39A 1_555 1_555
H47A C39A 1_555 1_555
C40A O10A 1_555 1_555
H48A C40A 1_555 1_555
H49A C40A 1_555 1_555
C41A O10A 1_555 1_555
H50A C41A 1_555 1_555
H51A C41A 1_555 1_555
C42A O11A 1_555 1_555
H52A C42A 1_555 1_555
H53A C42A 1_555 1_555
C43A O11A 1_555 1_555
H54A C43A 1_555 1_555
H55A C43A 1_555 1_555
C44A O12A 1_555 1_555
H56A C44A 1_555 1_555
H57A C44A 1_555 1_555
C45A O12A 1_555 1_555
H58A C45A 1_555 1_555
H59A C45A 1_555 1_555
C46A O13A 1_555 1_555
H60A C46A 1_555 1_555
H61A C46A 1_555 1_555
C47A O13A 1_555 1_555
H62A C47A 1_555 1_555
H63A C47A 1_555 1_555
C48A O14A 1_555 1_555
H64A C48A 1_555 1_555
H65A C48A 1_555 1_555
C49A C29A 1_555 1_555
C50A C49A 1_555 1_555
H66A C50A 1_555 1_555
C51A C50A 1_555 1_555
H67A C51A 1_555 1_555
C52A C51A 1_555 1_555
H68A C52A 1_555 1_555
C53A C52A 1_555 1_555
H69A C53A 1_555 1_555
C54A C49A 1_555 1_555
H70A C54A 1_555 1_555
C67A C68 1_555 1_555
H75A C67A 1_555 1_555
H76A C67A 1_555 1_555
C68A C67 1_555 1_555
H77A C68A 1_555 1_555
H78A C68A 1_555 1_555
N4 C30 1_555 1_555
C1 C29 1_555 1_555
C4 C5 1_555 1_555
C7 C8 1_555 1_555
C8 C9 1_555 1_555
C10 C11 1_555 1_555
C12 C13 1_555 1_555
C14 C15 1_555 1_555
C16 C17 1_555 1_555
C18 C19 1_555 1_555
C26 C27 1_555 1_555
C33 C34 1_555 1_555
C36 C37 1_555 1_555
C37 C38 1_555 1_555
C39 C40 1_555 1_555
C41 C42 1_555 1_555
C43 C44 1_555 1_555
C45 C46 1_555 1_555
C47 C48 1_555 1_555
C53 C54 1_555 1_555
C59 C60 1_555 1_555
C65 C66 1_555 1_555
C69 C72 1_555 1_555
O7A C20A 1_555 1_555
O7A C21A 1_555 1_555
O33A C68A 1_555 1_555
N4A C30A 1_555 1_555
C1A C29A 1_555 1_555
C4A C5A 1_555 1_555
C7A C8A 1_555 1_555
C8A C9A 1_555 1_555
C10A C11A 1_555 1_555
C12A C13A 1_555 1_555
C14A C15A 1_555 1_555
C16A C17A 1_555 1_555
C18A C19A 1_555 1_555
C26A C27A 1_555 1_555
C33A C34A 1_555 1_555
C36A C37A 1_555 1_555
C37A C38A 1_555 1_555
C39A C40A 1_555 1_555
C41A C42A 1_555 1_555
C43A C44A 1_555 1_555
C45A C46A 1_555 1_555
C47A C48A 1_555 1_555
C53A C54A 1_555 1_555

#END
