
#######################################################################
#
#                 Cambridge Crystallographic Data Centre
#                                CCDC 
#
#######################################################################
#
# If this CIF has been generated from an entry in the Cambridge 
# Structural Database, then it will include bibliographic, chemical, 
# crystal, experimental, refinement or atomic coordinate data resulting 
# from the CCDC's data processing and validation procedures.
#
#######################################################################

data_JODCIQ
_symmetry_cell_setting           monoclinic
_symmetry_space_group_name_H-M   'I 2/m'
_symmetry_Int_Tables_number      12
_space_group_name_Hall           '-I 2y'
loop_
_symmetry_equiv_pos_site_id
_symmetry_equiv_pos_as_xyz
1 x,y,z
2 -x,y,-z
3 1/2+x,1/2+y,1/2+z
4 1/2-x,1/2+y,1/2-z
5 -x,-y,-z
6 x,-y,z
7 1/2-x,1/2-y,1/2-z
8 1/2+x,1/2-y,1/2+z
_cell_length_a                   19.0377(19)
_cell_length_b                   28.6840(13)
_cell_length_c                   25.7190(12)
_cell_angle_alpha                90
_cell_angle_beta                 98.295(3)
_cell_angle_gamma                90
_cell_volume                     13897.6
loop_
_atom_site_label
_atom_site_type_symbol
_atom_site_fract_x
_atom_site_fract_y
_atom_site_fract_z
C1 C 0.0149(2) 0.08060(13) 0.61517(17)
C2 C 0.13789(17) 0.18376(11) 0.66351(14)
C3 C 0.0504(2) 0.09782(13) 0.82691(16)
C4 C 0.19693(16) 0.19366(11) 0.84702(14)
C5 C 0.06585(18) 0.12122(12) 0.62011(15)
H1 H 0.0762 0.1343 0.5890
C6 C 0.09636(17) 0.13946(11) 0.66340(15)
H2 H 0.0925 0.1248 0.6951
C7 C 0.10521(17) 0.13371(11) 0.84962(15)
H3 H 0.1125 0.1378 0.8859
C8 C 0.14318(16) 0.15946(11) 0.82140(14)
H4 H 0.1365 0.1563 0.7850
C9 C -0.1879(2) -0.06533(14) 0.63205(15)
H5 H -0.1897 -0.0470 0.6020
C10 C -0.2350(2) -0.09991(13) 0.63107(15)
H6 H -0.2701 -0.1033 0.6022
C11 C -0.23201(17) -0.13100(11) 0.67286(14)
C12 C -0.1839(2) -0.11945(12) 0.71646(14)
H7 H -0.1832 -0.1365 0.7473
C13 C -0.13556(19) -0.08190(12) 0.71485(15)
H8 H -0.1016 -0.0764 0.7440
C14 C -0.28438(17) -0.23846(11) 0.98655(14)
H9 H -0.2442 -0.2212 0.9990
C15 C -0.30294(18) -0.24131(11) 0.93253(13)
H10 H -0.2753 -0.2259 0.9109
C16 C -0.36447(17) -0.26771(11) 0.90886(14)
C17 C -0.39935(18) -0.28958(11) 0.94746(14)
H11 H -0.4388 -0.3081 0.9364
C18 C -0.37758(18) -0.28470(12) 1.00060(14)
H12 H -0.4038 -0.3001 1.0232
C19 C 0.36817(18) 0.15573(11) 0.91715(14)
H13 H 0.3243 0.1472 0.9261
C20 C 0.42116(17) 0.12374(11) 0.92674(13)
H14 H 0.4122 0.0945 0.9398
C21 C 0.48969(17) 0.13535(11) 0.91667(13)
C22 C 0.49445(17) 0.17833(11) 0.89335(13)
H15 H 0.5372 0.1874 0.8830
C23 C 0.43724(17) 0.20795(12) 0.88512(13)
H16 H 0.4439 0.2371 0.8707
C24 C 0.21148(17) 0.34558(11) 0.87786(13)
H17 H 0.2565 0.3562 0.8737
C25 C 0.15589(17) 0.37630(11) 0.86835(13)
H18 H 0.1643 0.4062 0.8567
C26 C 0.08965(18) 0.36436(11) 0.87547(14)
C27 C 0.08149(19) 0.31840(11) 0.89261(15)
H19 H 0.0372 0.3079 0.8987
C28 C 0.13872(18) 0.28933(12) 0.90020(14)
H20 H 0.1310 0.2592 0.9114
C29 C 0.16636(18) 0.34419(11) 0.72456(14)
H21 H 0.2112 0.3541 0.7191
C30 C 0.11396(17) 0.37457(11) 0.71669(14)
H22 H 0.1235 0.4042 0.7049
C31 C 0.04449(17) 0.36429(10) 0.72530(14)
C32 C 0.03619(17) 0.31802(11) 0.74222(14)
H23 H -0.0083 0.3078 0.7483
C33 C 0.09312(19) 0.28757(11) 0.74993(14)
H24 H 0.0855 0.2578 0.7624
C34 C -0.27630(17) -0.17450(11) 0.67104(14)
C35 C -0.30921(17) -0.19068(11) 0.62301(14)
H25 H -0.2948 -0.1797 0.5922
C36 C -0.36334(18) -0.22311(10) 0.62043(14)
H26 H -0.3858 -0.2334 0.5879
C37 C -0.38415(18) -0.24039(11) 0.66634(14)
C38 C -0.35071(16) -0.22496(11) 0.71441(14)
C39 C -0.29685(17) -0.19215(11) 0.71713(14)
H27 H -0.2744 -0.1819 0.7496
C40 C -0.37585(17) -0.24897(11) 0.76118(14)
C41 C -0.42894(17) -0.28113(10) 0.74080(14)
C42 C -0.46002(18) -0.30779(12) 0.77596(14)
H28 H -0.4944 -0.3296 0.7632
C43 C -0.44097(17) -0.30281(11) 0.83036(15)
H29 H -0.4640 -0.3204 0.8532
C44 C -0.38655(17) -0.27104(11) 0.85095(14)
C45 C -0.35516(17) -0.24385(10) 0.81545(14)
H30 H -0.3204 -0.2222 0.8279
C46 C 0.66423(16) 0.04271(11) 0.95266(14)
C47 C 0.67553(17) 0.09134(11) 0.95397(13)
H31 H 0.7208 0.1037 0.9634
C48 C 0.61971(17) 0.11902(12) 0.94131(13)
H32 H 0.6275 0.1510 0.9413
C49 C 0.54989(17) 0.10302(11) 0.92797(13)
C50 C 0.53872(17) 0.05639(11) 0.92623(13)
H33 H 0.4930 0.0448 0.9168
C51 C 0.59610(16) 0.02533(10) 0.93860(13)
C52 C 0.02871(17) 0.39666(11) 0.86519(14)
C53 C 0.03949(17) 0.44407(11) 0.86954(13)
H34 H 0.0851 0.4556 0.8797
C54 C -0.01742(15) 0.47491(10) 0.85887(13)
C55 C -0.08460(16) 0.45782(11) 0.84327(14)
C56 C -0.09550(18) 0.40945(11) 0.83862(13)
H35 H -0.1410 0.3979 0.8283
C57 C -0.04029(17) 0.37974(12) 0.84907(14)
H36 H -0.0480 0.3478 0.8456
C58 C -0.01585(17) 0.39569(11) 0.71212(14)
C59 C -0.00445(17) 0.44465(11) 0.71687(13)
H37 H 0.0405 0.4566 0.7283
C60 C -0.06235(17) 0.47409(10) 0.70402(14)
C61 C -0.13092(16) 0.45741(11) 0.68813(14)
C62 C -0.14241(18) 0.40849(11) 0.68526(14)
H38 H -0.1881 0.3968 0.6761
C63 C -0.08654(18) 0.37874(12) 0.69589(14)
H39 H -0.0943 0.3468 0.6926
Co1 Co 0.2500 0.2500 0.7500
Co2 Co 0.28812(2) 0.249941(14) 0.894474(19)
Co3 Co -0.05877(4) 0.0000 0.66656(3)
N1 N -0.13726(14) -0.05458(10) 0.67343(12)
N2 N -0.31986(15) -0.25875(9) 1.02304(11)
N3 N 0.37243(14) 0.19758(9) 0.89647(11)
N4 N 0.20499(14) 0.30025(9) 0.89304(11)
N5 N 0.15925(14) 0.29854(9) 0.74042(11)
O1 O -0.02540(13) 0.07789(9) 0.57167(11)
O2 O 0.01529(12) 0.05470(8) 0.65563(10)
O3 O 0.13551(12) 0.20353(7) 0.61997(9)
O4 O 0.17166(11) 0.19773(8) 0.70733(10)
O5 O 0.04629(13) 0.08660(8) 0.78028(10)
O6 O 0.01318(13) 0.08337(8) 0.86126(11)
O7 O 0.22537(11) 0.22280(7) 0.81932(9)
O8 O 0.21340(11) 0.19451(7) 0.89737(9)
O9 O -0.09136(15) 0.0000 0.58124(12)
H40 H -0.0880 0.0287 0.5736
O10 O -0.01983(16) 0.0000 0.74452(13)
H41 H -0.0156 0.0315 0.7571
S1 S -0.44719(5) -0.28362(3) 0.66956(4)
S2 S 0.73028(6) 0.0000 0.96592(5)
S3 S -0.15025(6) 0.5000 0.82977(5)
S4 S -0.19526(7) 0.5000 0.67393(6)
C19E C 0.36817(18) -0.15573(11) 0.91715(14)
H13E H 0.3243 -0.1472 0.9261
C20E C 0.42116(17) -0.12374(11) 0.92674(13)
H14E H 0.4122 -0.0945 0.9398
C21E C 0.48969(17) -0.13535(11) 0.91667(13)
C22E C 0.49445(17) -0.17833(11) 0.89335(13)
H15E H 0.5372 -0.1874 0.8830
C23E C 0.43724(17) -0.20795(12) 0.88512(13)
H16E H 0.4439 -0.2371 0.8707
C46E C 0.66423(16) -0.04271(11) 0.95266(14)
C47E C 0.67553(17) -0.09134(11) 0.95397(13)
H31E H 0.7208 -0.1037 0.9634
C48E C 0.61971(17) -0.11902(12) 0.94131(13)
H32E H 0.6275 -0.1510 0.9413
C49E C 0.54989(17) -0.10302(11) 0.92797(13)
C50E C 0.53872(17) -0.05639(11) 0.92623(13)
H33E H 0.4930 -0.0448 0.9168
C51E C 0.59610(16) -0.02533(10) 0.93860(13)
N3E N 0.37243(14) -0.19758(9) 0.89647(11)
C24E C 0.21148(17) 0.65442(11) 0.87786(13)
H17E H 0.2565 0.6438 0.8737
C25E C 0.15589(17) 0.62370(11) 0.86835(13)
H18E H 0.1643 0.5938 0.8567
C26E C 0.08965(18) 0.63564(11) 0.87547(14)
C27E C 0.08149(19) 0.68160(11) 0.89261(15)
H19E H 0.0372 0.6921 0.8987
C28E C 0.13872(18) 0.71067(12) 0.90020(14)
H20E H 0.1310 0.7408 0.9114
C52E C 0.02871(17) 0.60334(11) 0.86519(14)
C53E C 0.03949(17) 0.55593(11) 0.86954(13)
H34E H 0.0851 0.5444 0.8797
C54E C -0.01742(15) 0.52509(10) 0.85887(13)
C55E C -0.08460(16) 0.54218(11) 0.84327(14)
C56E C -0.09550(18) 0.59055(11) 0.83862(13)
H35E H -0.1410 0.6021 0.8283
C57E C -0.04029(17) 0.62026(12) 0.84907(14)
H36E H -0.0480 0.6522 0.8456
N4E N 0.20499(14) 0.69975(9) 0.89304(11)
C29E C 0.16636(18) 0.65581(11) 0.72456(14)
H21E H 0.2112 0.6459 0.7191
C30E C 0.11396(17) 0.62543(11) 0.71669(14)
H22E H 0.1235 0.5958 0.7049
C31E C 0.04449(17) 0.63571(10) 0.72530(14)
C32E C 0.03619(17) 0.68198(11) 0.74222(14)
H23E H -0.0083 0.6922 0.7483
C33E C 0.09312(19) 0.71243(11) 0.74993(14)
H24E H 0.0855 0.7422 0.7624
C58E C -0.01585(17) 0.60431(11) 0.71212(14)
C59E C -0.00445(17) 0.55535(11) 0.71687(13)
H37E H 0.0405 0.5434 0.7283
C60E C -0.06235(17) 0.52591(10) 0.70402(14)
C61E C -0.13092(16) 0.54259(11) 0.68813(14)
C62E C -0.14241(18) 0.59151(11) 0.68526(14)
H38E H -0.1881 0.6032 0.6761
C63E C -0.08654(18) 0.62126(12) 0.69589(14)
H39E H -0.0943 0.6532 0.6926
N5E N 0.15925(14) 0.70146(9) 0.74042(11)
H40E H -0.0880 -0.0287 0.5736
H41E H -0.0156 -0.0315 0.7571
C3D C -0.0504(2) -0.09782(13) 1.17309(16)
C4D C -0.19693(16) -0.19366(11) 1.15298(14)
C7D C -0.10521(17) -0.13371(11) 1.15038(15)
H3D H -0.1125 -0.1378 1.1141
C8D C -0.14318(16) -0.15946(11) 1.17860(14)
H4D H -0.1365 -0.1563 1.2150
C9D C 0.1879(2) 0.06533(14) 1.36795(15)
H5D H 0.1897 0.0470 1.3980
C10D C 0.2350(2) 0.09991(13) 1.36893(15)
H6D H 0.2701 0.1033 1.3978
C11D C 0.23201(17) 0.13100(11) 1.32714(14)
C12D C 0.1839(2) 0.11945(12) 1.28354(14)
H7D H 0.1832 0.1365 1.2527
C13D C 0.13556(19) 0.08190(12) 1.28515(15)
H8D H 0.1016 0.0764 1.2560
C14D C 0.28438(17) 0.23846(11) 1.01345(14)
H9D H 0.2442 0.2212 1.0010
C15D C 0.30294(18) 0.24131(11) 1.06747(13)
H10D H 0.2753 0.2259 1.0891
C16D C 0.36447(17) 0.26771(11) 1.09114(14)
C17D C 0.39935(18) 0.28958(11) 1.05254(14)
H11D H 0.4388 0.3081 1.0636
C18D C 0.37758(18) 0.28470(12) 0.99940(14)
H12D H 0.4038 0.3001 0.9768
C34D C 0.27630(17) 0.17450(11) 1.32896(14)
C35D C 0.30921(17) 0.19068(11) 1.37699(14)
H25D H 0.2948 0.1797 1.4078
C36D C 0.36334(18) 0.22311(10) 1.37957(14)
H26D H 0.3858 0.2334 1.4121
C37D C 0.38415(18) 0.24039(11) 1.33366(14)
C38D C 0.35071(16) 0.22496(11) 1.28559(14)
C39D C 0.29685(17) 0.19215(11) 1.28287(14)
H27D H 0.2744 0.1819 1.2504
C40D C 0.37585(17) 0.24897(11) 1.23882(14)
C41D C 0.42894(17) 0.28113(10) 1.25920(14)
C42D C 0.46002(18) 0.30779(12) 1.22404(14)
H28D H 0.4944 0.3296 1.2368
C43D C 0.44097(17) 0.30281(11) 1.16964(15)
H29D H 0.4640 0.3204 1.1468
C44D C 0.38655(17) 0.27104(11) 1.14905(14)
C45D C 0.35516(17) 0.24385(10) 1.18455(14)
H30D H 0.3204 0.2222 1.1721
Co2D Co -0.28812(2) -0.249941(14) 1.105526(19)
N1D N 0.13726(14) 0.05458(10) 1.32657(12)
N2D N 0.31986(15) 0.25875(9) 0.97696(11)
O5D O -0.04629(13) -0.08660(8) 1.21972(10)
O6D O -0.01318(13) -0.08337(8) 1.13874(11)
O7D O -0.22537(11) -0.22280(7) 1.18068(9)
O8D O -0.21340(11) -0.19451(7) 1.10263(9)
S1D S 0.44719(5) 0.28362(3) 1.33044(4)
C1F C 0.4851(2) 0.41940(13) 0.88483(17)
C2F C 0.36211(17) 0.31624(11) 0.83649(14)
C5F C 0.43415(18) 0.37878(12) 0.87989(15)
H1F H 0.4238 0.3657 0.9110
C6F C 0.40364(17) 0.36054(11) 0.83660(15)
H2F H 0.4075 0.3752 0.8049
O1F O 0.52540(13) 0.42211(9) 0.92833(11)
O2F O 0.48471(12) 0.44530(8) 0.84437(10)
O3F O 0.36449(12) 0.29647(7) 0.88003(9)
O4F O 0.32834(11) 0.30227(8) 0.79267(10)
Co1B Co -0.2500 -0.2500 1.2500
Co1C Co 0.2500 0.7500 0.7500
Co2E Co 0.28812(2) -0.249941(14) 0.894474(19)
Co2E_2 Co 0.28812(2) 0.750059(14) 0.894474(19)
Co2F Co 0.21188(2) 0.250059(14) 0.605526(19)
Co3A Co 0.05877(4) 0.0000 1.33344(3)
Co3C Co 0.55877(4) 0.5000 0.83344(3)
N1E N -0.13726(14) 0.05458(10) 0.67343(12)
N3D N -0.37243(14) -0.19758(9) 1.10353(11)
N4D N -0.20499(14) -0.30025(9) 1.10696(11)
N5F N 0.34075(14) 0.20146(9) 0.75958(11)
O2E O 0.01529(12) -0.05470(8) 0.65563(10)
O3B O -0.36449(12) -0.29647(7) 1.11997(9)
O7F O 0.27463(11) 0.27720(7) 0.68068(9)
N6 N 0.86643(17) 0.90165(13) 0.95461(14)
O11 O 0.81437(15) 0.90813(10) 0.91887(11)
O12 O 0.87136(14) 0.92748(9) 0.99498(11)
O13 O 0.90944(14) 0.87072(10) 0.94826(10)
N7 N 0.2148(3) 0.5000 0.7861(2)
O14 O 0.1887(2) 0.5000 0.73839(16)
O15 O 0.28041(19) 0.5000 0.79569(15)
O16 O 0.1870(2) 0.5000 0.82802(17)
O17 O 0.1081(2) 0.0000 0.53713(19)
H42 H 0.1131 0.0124 0.5078
H42E H 0.1131 -0.0124 0.5078
O18 O 0.0517(4) 0.9674(3) 0.0745(3)
H43 H 0.0532 0.9401 0.0876
H44 H 0.0719 0.9864 0.0973
O19 O 1.0000 0.3713(2) 1.0000
H45 H 0.9666 0.3609 1.0154
H45A H 1.0334 0.3609 0.9846
O20 O 0.1333(2) 0.0000 0.62252(15)
H46 H 0.1743 0.0051 0.6395
H46E H 0.1743 -0.0051 0.6395
O21 O 0.1044(2) 0.0000 0.86658(15)
H47 H 0.1348 0.0127 0.8897
H47E H 0.1348 -0.0127 0.8897
O22 O 0.2611(4) 0.5000 0.6289(3)
H48 H 0.2404 0.5215 0.6097
H48E H 0.2404 0.4785 0.6097
O23 O 0.1884(3) 0.0890(2) 0.5352(3)
H49 H 0.1502 0.0775 0.5191
H50 H 0.2220 0.0846 0.5172
O24 O 0.1491(2) 0.0000 0.18763(18)
N8? N 0.3121(4) 0.0315(3) 0.4781(3)
O25? O 0.3114(3) 0.0757(2) 0.4758(2)
O26? O 0.3706(3) 0.0037(15) 0.4762(2)
O27? O 0.2583(2) 0.0000 0.48384(18)
H51? H 0.9895 0.8056 0.9695
H52? H 1.0000 0.7678 1.0000
H53? H 0.1392 0.0058 0.2182
H54? H 0.1932 -0.0058 0.1895
O28? O 0.9954(3) 0.77623(18) 0.9714(2)
H55? H 0.2570 0.5052 0.6608
H56? H 0.1487 -0.0059 0.5543
H57? H 0.1019 0.0070 0.6416
H58? H -0.0632 -0.0127 0.5627
H59? H 0.0260 -0.0146 0.7497
H60? H 0.0629 0.0085 0.8711
H61? H 0.9917 0.3646 0.9675
loop_
_geom_bond_atom_site_label_1
_geom_bond_atom_site_label_2
_geom_bond_site_symmetry_1
_geom_bond_site_symmetry_2
C1 C5 1_555 1_555
C2 C6 1_555 1_555
C3 C7 1_555 1_555
C4 C8 1_555 1_555
C5 H1 1_555 1_555
C6 C5 1_555 1_555
H2 C6 1_555 1_555
C7 H3 1_555 1_555
C8 C7 1_555 1_555
H4 C8 1_555 1_555
C9 H5 1_555 1_555
C10 C9 1_555 1_555
H6 C10 1_555 1_555
C11 C10 1_555 1_555
C12 C11 1_555 1_555
H7 C12 1_555 1_555
C13 C12 1_555 1_555
H8 C13 1_555 1_555
C14 H9 1_555 1_555
C15 C14 1_555 1_555
H10 C15 1_555 1_555
C16 C15 1_555 1_555
C17 C16 1_555 1_555
H11 C17 1_555 1_555
C18 C17 1_555 1_555
H12 C18 1_555 1_555
C19 H13 1_555 1_555
C20 C19 1_555 1_555
H14 C20 1_555 1_555
C21 C20 1_555 1_555
C22 C21 1_555 1_555
H15 C22 1_555 1_555
C23 C22 1_555 1_555
H16 C23 1_555 1_555
C24 H17 1_555 1_555
C25 C24 1_555 1_555
H18 C25 1_555 1_555
C26 C25 1_555 1_555
C27 C26 1_555 1_555
H19 C27 1_555 1_555
C28 C27 1_555 1_555
H20 C28 1_555 1_555
C29 H21 1_555 1_555
C30 C29 1_555 1_555
H22 C30 1_555 1_555
C31 C30 1_555 1_555
C32 C31 1_555 1_555
H23 C32 1_555 1_555
C33 C32 1_555 1_555
H24 C33 1_555 1_555
C34 C11 1_555 1_555
C35 C34 1_555 1_555
H25 C35 1_555 1_555
C36 C35 1_555 1_555
H26 C36 1_555 1_555
C37 C36 1_555 1_555
C38 C37 1_555 1_555
C39 C34 1_555 1_555
H27 C39 1_555 1_555
C40 C38 1_555 1_555
C41 C40 1_555 1_555
C42 C41 1_555 1_555
H28 C42 1_555 1_555
C43 C42 1_555 1_555
H29 C43 1_555 1_555
C44 C16 1_555 1_555
C45 C40 1_555 1_555
H30 C45 1_555 1_555
C46 C47 1_555 1_555
C47 H31 1_555 1_555
C48 C47 1_555 1_555
H32 C48 1_555 1_555
C49 C21 1_555 1_555
C50 C49 1_555 1_555
H33 C50 1_555 1_555
C51 C46 1_555 1_555
C52 C26 1_555 1_555
C53 C52 1_555 1_555
H34 C53 1_555 1_555
C54 C53 1_555 1_555
C55 C54 1_555 1_555
C56 C55 1_555 1_555
H35 C56 1_555 1_555
C57 C52 1_555 1_555
H36 C57 1_555 1_555
C58 C31 1_555 1_555
C59 C58 1_555 1_555
H37 C59 1_555 1_555
C60 C59 1_555 1_555
C61 C60 1_555 1_555
C62 C61 1_555 1_555
H38 C62 1_555 1_555
C63 C58 1_555 1_555
H39 C63 1_555 1_555
Co1 N5 1_555 1_555
Co2 N3 1_555 1_555
Co3 N1 1_555 1_555
N1 C9 1_555 1_555
N2 C14 1_555 1_555
N3 C19 1_555 1_555
N4 C24 1_555 1_555
N5 C29 1_555 1_555
O1 C1 1_555 1_555
O2 C1 1_555 1_555
O3 C2 1_555 1_555
O4 C2 1_555 1_555
O5 C3 1_555 1_555
O6 C3 1_555 1_555
O7 C4 1_555 1_555
O8 C4 1_555 1_555
O9 Co3 1_555 1_555
H40 O9 1_555 1_555
O10 Co3 1_555 1_555
H41 O10 1_555 1_555
S1 C37 1_555 1_555
S2 C46 1_555 1_555
S3 C55 1_555 1_555
S4 C61 1_555 1_555
N6 O11 1_555 1_555
O12 N6 1_555 1_555
O13 N6 1_555 1_555
N7 O14 1_555 1_555
O15 N7 1_555 1_555
O16 N7 1_555 1_555
O17 H42 1_555 1_555
O18 H43 1_555 1_555
H44 O18 1_555 1_555
O19 H45 1_555 1_555
O20 H46 1_555 1_555
O21 H47 1_555 1_555
O22 H48 1_555 1_555
O23 H49 1_555 1_555
H50 O23 1_555 1_555
C19E H13E 1_555 1_555
C20E C19E 1_555 1_555
H14E C20E 1_555 1_555
C21E C20E 1_555 1_555
C22E C21E 1_555 1_555
H15E C22E 1_555 1_555
C23E C22E 1_555 1_555
H16E C23E 1_555 1_555
C46E S2 1_555 1_555
C47E C46E 1_555 1_555
H31E C47E 1_555 1_555
C48E C47E 1_555 1_555
H32E C48E 1_555 1_555
C49E C21E 1_555 1_555
C50E C49E 1_555 1_555
H33E C50E 1_555 1_555
C51E C51 1_555 1_555
N3E C19E 1_555 1_555
C24E H17E 1_555 1_555
C25E C24E 1_555 1_555
H18E C25E 1_555 1_555
C26E C25E 1_555 1_555
C27E C26E 1_555 1_555
H19E C27E 1_555 1_555
C28E C27E 1_555 1_555
H20E C28E 1_555 1_555
C52E C26E 1_555 1_555
C53E C52E 1_555 1_555
H34E C53E 1_555 1_555
C54E C54 1_555 1_555
C55E S3 1_555 1_555
C56E C55E 1_555 1_555
H35E C56E 1_555 1_555
C57E C52E 1_555 1_555
H36E C57E 1_555 1_555
N4E C24E 1_555 1_555
C29E H21E 1_555 1_555
C30E C29E 1_555 1_555
H22E C30E 1_555 1_555
C31E C30E 1_555 1_555
C32E C31E 1_555 1_555
H23E C32E 1_555 1_555
C33E C32E 1_555 1_555
H24E C33E 1_555 1_555
C58E C31E 1_555 1_555
C59E C58E 1_555 1_555
H37E C59E 1_555 1_555
C60E C60 1_555 1_555
C61E S4 1_555 1_555
C62E C61E 1_555 1_555
H38E C62E 1_555 1_555
C63E C58E 1_555 1_555
H39E C63E 1_555 1_555
N5E C29E 1_555 1_555
H40E O9 1_555 1_555
H41E O10 1_555 1_555
C3D C7D 1_555 1_555
C4D C8D 1_555 1_555
C7D H3D 1_555 1_555
C8D C7D 1_555 1_555
H4D C8D 1_555 1_555
C9D H5D 1_555 1_555
C10D C9D 1_555 1_555
H6D C10D 1_555 1_555
C11D C10D 1_555 1_555
C12D C11D 1_555 1_555
H7D C12D 1_555 1_555
C13D C12D 1_555 1_555
H8D C13D 1_555 1_555
C14D H9D 1_555 1_555
C15D C14D 1_555 1_555
H10D C15D 1_555 1_555
C16D C15D 1_555 1_555
C17D C16D 1_555 1_555
H11D C17D 1_555 1_555
C18D C17D 1_555 1_555
H12D C18D 1_555 1_555
C34D C11D 1_555 1_555
C35D C34D 1_555 1_555
H25D C35D 1_555 1_555
C36D C35D 1_555 1_555
H26D C36D 1_555 1_555
C37D C36D 1_555 1_555
C38D C37D 1_555 1_555
C39D C34D 1_555 1_555
H27D C39D 1_555 1_555
C40D C38D 1_555 1_555
C41D C40D 1_555 1_555
C42D C41D 1_555 1_555
H28D C42D 1_555 1_555
C43D C42D 1_555 1_555
H29D C43D 1_555 1_555
C44D C16D 1_555 1_555
C45D C40D 1_555 1_555
H30D C45D 1_555 1_555
Co2D N2 1_555 1_555
N1D C9D 1_555 1_555
N2D Co2 1_555 1_555
O5D C3D 1_555 1_555
O6D C3D 1_555 1_555
O7D C4D 1_555 1_555
O8D C4D 1_555 1_555
S1D C37D 1_555 1_555
C1F C5F 1_555 1_555
C2F C6F 1_555 1_555
C5F H1F 1_555 1_555
C6F C5F 1_555 1_555
H2F C6F 1_555 1_555
O1F C1F 1_555 1_555
O2F C1F 1_555 1_555
O3F Co2 1_555 1_555
O4F Co1 1_555 1_555
Co1B O7D 1_555 1_555
Co1C N5E 1_555 1_555
Co2E N3E 1_555 1_555
Co2E_2 N4E 1_555 1_555
Co2F O3 1_555 1_555
Co3A N1D 1_555 1_555
Co3C O2F 1_555 1_555
N1E Co3 1_555 1_555
N3D Co2D 1_555 1_555
N4D Co2D 1_555 1_555
N5F Co1 1_555 1_555
O2E Co3 1_555 1_555
O3B Co2D 1_555 1_555
O7F Co1 1_555 1_555
H42E O17 1_555 1_555
H45A O19 1_555 1_555
H46E O20 1_555 1_555
H47E O21 1_555 1_555
H48E O22 1_555 1_555
C13 N1 1_555 1_555
C18 N2 1_555 1_555
C23 N3 1_555 1_555
C28 N4 1_555 1_555
C33 N5 1_555 1_555
C38 C39 1_555 1_555
C41 S1 1_555 1_555
C43 C44 1_555 1_555
C44 C45 1_555 1_555
C48 C49 1_555 1_555
C50 C51 1_555 1_555
C56 C57 1_555 1_555
C62 C63 1_555 1_555
Co1 O4 1_555 1_555
Co1 O7 1_555 1_555
Co2 N4 1_555 1_555
Co2 O7 1_555 1_555
Co2 O8 1_555 1_555
Co3 O2 1_555 1_555
C23E N3E 1_555 1_555
C46E C51E 1_555 1_555
C48E C49E 1_555 1_555
C50E C51E 1_555 1_555
C28E N4E 1_555 1_555
C53E C54E 1_555 1_555
C54E C55E 1_555 1_555
C56E C57E 1_555 1_555
C33E N5E 1_555 1_555
C59E C60E 1_555 1_555
C60E C61E 1_555 1_555
C62E C63E 1_555 1_555
C13D N1D 1_555 1_555
C14D N2D 1_555 1_555
C18D N2D 1_555 1_555
C38D C39D 1_555 1_555
C41D S1D 1_555 1_555
C43D C44D 1_555 1_555
C44D C45D 1_555 1_555
Co2D O7D 1_555 1_555
Co2D O8D 1_555 1_555
C2F O3F 1_555 1_555
C2F O4F 1_555 1_555
Co2F O7F 1_555 1_555

#END
