
#######################################################################
#
#                 Cambridge Crystallographic Data Centre
#                                CCDC 
#
#######################################################################
#
# If this CIF has been generated from an entry in the Cambridge 
# Structural Database, then it will include bibliographic, chemical, 
# crystal, experimental, refinement or atomic coordinate data resulting 
# from the CCDC's data processing and validation procedures.
#
#######################################################################

data_JODDUD
_symmetry_cell_setting           triclinic
_symmetry_space_group_name_H-M   'P -1'
_symmetry_Int_Tables_number      2
_space_group_name_Hall           '-P 1'
loop_
_symmetry_equiv_pos_site_id
_symmetry_equiv_pos_as_xyz
1 x,y,z
2 -x,-y,-z
_cell_length_a                   9.0294(4)
_cell_length_b                   9.3373(3)
_cell_length_c                   13.6060(6)
_cell_angle_alpha                98.059(3)
_cell_angle_beta                 105.585(4)
_cell_angle_gamma                97.707(3)
_cell_volume                     1076.15
loop_
_atom_site_label
_atom_site_type_symbol
_atom_site_fract_x
_atom_site_fract_y
_atom_site_fract_z
Cu1 Cu 0.28805(6) 0.48539(5) 0.26462(4)
Cu2 Cu -0.24057(6) 0.00199(5) 0.24825(4)
C1 C 0.5120(5) 0.7722(4) 0.4009(3)
C2 C 0.6145(5) 0.8778(4) 0.3791(3)
C3 C 0.4770(5) 0.7382(4) 0.2351(3)
C4 C 0.4948(5) 0.7426(4) 0.5014(3)
C5 C 0.7377(5) 0.9988(4) 0.4452(3)
C6 C 0.4062(5) 0.6618(4) 0.1277(3)
C7 C 0.4448(6) 0.6989(4) 0.0418(3)
H1 H 0.5238 0.7780 0.0491
C8 C 0.3641(6) 0.6166(5) -0.0551(4)
H2 H 0.3904 0.6382 -0.1136
C9 C 0.2454(6) 0.5032(5) -0.0645(4)
H3 H 0.1870 0.4496 -0.1295
C10 C 0.2141(6) 0.4699(5) 0.0237(4)
H4 H 0.1350 0.3913 0.0173
C11 C 0.1580(5) 0.1410(4) 0.1722(3)
C12 C 0.0297(5) 0.0499(4) 0.1810(3)
C13 C 0.0326(5) 0.2678(4) 0.2570(3)
C14 C 0.2751(5) 0.1021(4) 0.1202(3)
C15 C -0.0324(5) -0.1091(4) 0.1467(4)
C16 C -0.0024(5) 0.4017(4) 0.3101(3)
C17 C -0.1267(5) 0.4099(4) 0.3493(4)
H5 H -0.1967 0.3254 0.3461
C18 C -0.1460(6) 0.5466(5) 0.3938(4)
H6 H -0.2286 0.5548 0.4217
C19 C -0.0426(6) 0.6689(5) 0.3962(4)
H7 H -0.0553 0.7616 0.4243
C20 C 0.0806(5) 0.6535(4) 0.3564(4)
H8 H 0.1513 0.7372 0.3590
N1 N -0.0497(4) 0.1299(3) 0.2354(3)
N2 N 0.1582(4) 0.2803(3) 0.2215(2)
N3 N 0.1022(4) 0.5236(3) 0.3145(3)
N4 N 0.2921(4) 0.5453(3) 0.1180(3)
N5 N 0.4242(4) 0.6854(3) 0.3093(2)
N6 N 0.5926(4) 0.8571(3) 0.2743(2)
O1 O -0.1464(4) -0.1620(3) 0.1710(3)
O2 O 0.0351(4) -0.1880(3) 0.0925(3)
O3 O 0.2435(4) -0.0219(3) 0.0595(3)
O4 O 0.3990(4) 0.1883(3) 0.1356(2)
O5 O 0.4051(4) 0.6352(3) 0.5057(2)
O6 O 0.5798(4) 0.8354(3) 0.5851(2)
O7 O 0.7618(4) 1.0242(3) 0.5418(2)
O8 O 0.8162(4) 1.0721(3) 0.3977(2)
O9 O 0.4931(4) 0.4088(3) 0.2932(3)
O10 O -0.3712(4) 0.0418(4) 0.1106(3)
H9 H 0.133(7) -0.106(6) 0.072(4)
H10 H 0.665(7) 0.919(6) 0.572(4)
H11 H -0.443(6) 0.091(5) 0.116(4)
H12 H 0.504(6) 0.391(5) 0.352(4)
H13 H -0.342(6) 0.051(5) 0.064(4)
H14 H 0.459(7) 0.328(7) 0.248(5)
Cu2_2 Cu 0.75943(6) 1.00199(5) 0.24825(4)
N6_2 N -0.4074(4) -0.1429(3) 0.2743(2)
O8_2 O -0.1838(4) 0.0721(3) 0.3977(2)
loop_
_geom_bond_atom_site_label_1
_geom_bond_atom_site_label_2
_geom_bond_site_symmetry_1
_geom_bond_site_symmetry_2
Cu1 N2 1_555 1_555
Cu2 N1 1_555 1_555
C1 C2 1_555 1_555
C2 C5 1_555 1_555
C3 C6 1_555 1_555
C4 C1 1_555 1_555
C5 O7 1_555 1_555
C6 C7 1_555 1_555
C7 H1 1_555 1_555
C8 C7 1_555 1_555
H2 C8 1_555 1_555
C9 C8 1_555 1_555
H3 C9 1_555 1_555
C10 C9 1_555 1_555
H4 C10 1_555 1_555
C11 C12 1_555 1_555
C12 C15 1_555 1_555
C13 C16 1_555 1_555
C14 C11 1_555 1_555
C15 O1 1_555 1_555
C16 C17 1_555 1_555
C17 H5 1_555 1_555
C18 C17 1_555 1_555
H6 C18 1_555 1_555
C19 C18 1_555 1_555
H7 C19 1_555 1_555
C20 C19 1_555 1_555
H8 C20 1_555 1_555
N1 C12 1_555 1_555
N2 C11 1_555 1_555
N3 Cu1 1_555 1_555
N4 Cu1 1_555 1_555
N5 Cu1 1_555 1_555
N6 C2 1_555 1_555
O1 Cu2 1_555 1_555
O2 C15 1_555 1_555
O3 C14 1_555 1_555
O4 C14 1_555 1_555
O5 C4 1_555 1_555
O6 C4 1_555 1_555
O8 C5 1_555 1_555
O9 Cu1 1_555 1_555
O10 Cu2 1_555 1_555
H9 O2 1_555 1_555
H10 O6 1_555 1_555
H11 O10 1_555 1_555
H12 O9 1_555 1_555
H13 O10 1_555 1_555
H14 O9 1_555 1_555
Cu2_2 N6 1_555 1_555
N6_2 Cu2 1_555 1_555
O8_2 Cu2 1_555 1_555
C1 N5 1_555 1_555
C3 N5 1_555 1_555
C3 N6 1_555 1_555
C6 N4 1_555 1_555
C10 N4 1_555 1_555
C13 N1 1_555 1_555
C13 N2 1_555 1_555
C16 N3 1_555 1_555
C20 N3 1_555 1_555
O8 Cu2_2 1_555 1_555

#END
