
#######################################################################
#
#                 Cambridge Crystallographic Data Centre
#                                CCDC 
#
#######################################################################
#
# If this CIF has been generated from an entry in the Cambridge 
# Structural Database, then it will include bibliographic, chemical, 
# crystal, experimental, refinement or atomic coordinate data resulting 
# from the CCDC's data processing and validation procedures.
#
#######################################################################

data_JODFOZ
_symmetry_cell_setting           monoclinic
_symmetry_space_group_name_H-M   'C c'
_symmetry_Int_Tables_number      9
_space_group_name_Hall           'C -2yc'
loop_
_symmetry_equiv_pos_site_id
_symmetry_equiv_pos_as_xyz
1 x,y,z
2 x,-y,1/2+z
3 1/2+x,1/2+y,z
4 1/2+x,1/2-y,1/2+z
_cell_length_a                   13.3374(10)
_cell_length_b                   24.979(2)
_cell_length_c                   8.5046(7)
_cell_angle_alpha                90
_cell_angle_beta                 99.119(4)
_cell_angle_gamma                90
_cell_volume                     2797.54
loop_
_atom_site_label
_atom_site_type_symbol
_atom_site_fract_x
_atom_site_fract_y
_atom_site_fract_z
C1 C -0.0190(5) -0.6552(4) -0.4754(9)
C2 C 0.0328(5) -0.6839(3) -0.3304(8)
C3 C 0.0770(6) -0.7342(3) -0.3389(10)
H1 H 0.0762 -0.7515 -0.4373
C4 C 0.1235(6) -0.7588(4) -0.1942(11)
H2 H 0.1534 -0.7927 -0.1975
C5 C 0.1253(6) -0.7337(4) -0.0500(11)
C6 C 0.0819(6) -0.6845(4) -0.0451(10)
H3 H 0.0824 -0.6672 0.0532
C7 C 0.0367(5) -0.6596(4) -0.1855(10)
H4 H 0.0083 -0.6253 -0.1804
C8 C 0.1740(6) -0.7568(4) 0.1086(11)
H5 H 0.1699 -0.7364 0.2001
C9 C 0.2193(7) -0.8008(4) 0.1282(12)
H6 H 0.2261 -0.8211 0.0373
C10 C 0.2631(6) -0.8228(4) 0.2866(10)
C11 C 0.2897(6) -0.8758(4) 0.2964(9)
H7 H 0.2812 -0.8973 0.2046
C12 C 0.3294(5) -0.8973(3) 0.4438(8)
H8 H 0.3461 -0.9339 0.4481
C13 C 0.3209(6) -0.8178(4) 0.5713(10)
H9 H 0.3312 -0.7972 0.6651
C14 C 0.2799(7) -0.7928(4) 0.4249(11)
H10 H 0.2642 -0.7561 0.4222
C15 C -0.2736(5) -0.5631(3) -0.6476(8)
C16 C -0.3669(5) -0.5417(3) -0.5969(8)
C17 C -0.3791(6) -0.4871(3) -0.5826(10)
H11 H -0.3304 -0.4632 -0.6100
C18 C -0.4666(6) -0.4680(3) -0.5256(11)
H12 H -0.4738 -0.4310 -0.5111
C19 C -0.5415(5) -0.5019(3) -0.4908(10)
C20 C -0.5277(6) -0.5564(3) -0.5068(10)
H13 H -0.5767 -0.5807 -0.4815
C21 C -0.4402(6) -0.5754(3) -0.5609(9)
H14 H -0.4319 -0.6125 -0.5725
C22 C -0.6297(5) -0.4795(3) -0.4297(9)
H15 H -0.6279 -0.4429 -0.4044
C23 C -0.7113(5) -0.5067(3) -0.4071(9)
H16 H -0.7125 -0.5436 -0.4290
C24 C -0.8004(5) -0.4835(3) -0.3505(8)
C25 C -0.7997(6) -0.4327(3) -0.2773(9)
H17 H -0.7393 -0.4127 -0.2590
C26 C -0.8856(5) -0.4125(3) -0.2330(9)
H18 H -0.8831 -0.3783 -0.1859
C27 C -0.9749(5) -0.4894(3) -0.3168(9)
H19 H -1.0351 -0.5096 -0.3280
C28 C -0.8903(5) -0.5118(3) -0.3652(9)
H20 H -0.8939 -0.5465 -0.4084
Co1 Co -0.10644(8) -0.59642(4) -0.70098(11)
N1 N 0.3454(4) -0.8699(2) 0.5790(7)
N2 N -0.9753(4) -0.4397(2) -0.2542(6)
O1 O -0.2017(3) -0.53249(19) -0.6781(5)
O2 O -0.2608(4) -0.61319(19) -0.6536(5)
O3 O -0.0499(4) -0.6082(2) -0.4630(6)
O4 O -0.0254(4) -0.6774(2) -0.6087(6)
Co1A Co -1.10644(8) -0.40358(4) -0.20098(11)
Co1C Co 0.39356(8) -0.90358(4) 0.79902(11)
N1C N -0.1546(4) -0.6301(2) -0.9210(7)
N2A N 0.0247(4) -0.5603(2) -0.7542(6)
C29 C -0.7070(8) -0.3443(4) -0.816(2)
H21 H -0.7624 -0.3550 -0.7675
C30 C -0.6241(8) -0.3202(5) -0.5503(18)
H22 H -0.5592 -0.3327 -0.4947
H23 H -0.6784 -0.3410 -0.5168
H24 H -0.6327 -0.2827 -0.5255
C31 C -0.5359(8) -0.3097(5) -0.7833(16)
H25 H -0.5124 -0.2757 -0.7362
H26 H -0.5515 -0.3059 -0.8981
H27 H -0.4832 -0.3365 -0.7569
N3 N -0.6271(6) -0.3263(4) -0.7212(14)
O5 O -0.7172(6) -0.3486(4) -0.9613(14)
loop_
_geom_bond_atom_site_label_1
_geom_bond_atom_site_label_2
_geom_bond_site_symmetry_1
_geom_bond_site_symmetry_2
C1 C2 1_555 1_555
C2 C3 1_555 1_555
C3 H1 1_555 1_555
C4 C3 1_555 1_555
H2 C4 1_555 1_555
C5 C4 1_555 1_555
C6 C5 1_555 1_555
H3 C6 1_555 1_555
C7 C2 1_555 1_555
H4 C7 1_555 1_555
C8 C5 1_555 1_555
H5 C8 1_555 1_555
C9 C8 1_555 1_555
H6 C9 1_555 1_555
C10 C9 1_555 1_555
C11 C10 1_555 1_555
H7 C11 1_555 1_555
C12 C11 1_555 1_555
H8 C12 1_555 1_555
C13 H9 1_555 1_555
C14 C10 1_555 1_555
H10 C14 1_555 1_555
C15 C16 1_555 1_555
C16 C17 1_555 1_555
C17 H11 1_555 1_555
C18 C17 1_555 1_555
H12 C18 1_555 1_555
C19 C18 1_555 1_555
C20 C19 1_555 1_555
H13 C20 1_555 1_555
C21 C16 1_555 1_555
H14 C21 1_555 1_555
C22 C19 1_555 1_555
H15 C22 1_555 1_555
C23 C22 1_555 1_555
H16 C23 1_555 1_555
C24 C23 1_555 1_555
C25 C24 1_555 1_555
H17 C25 1_555 1_555
C26 C25 1_555 1_555
H18 C26 1_555 1_555
C27 H19 1_555 1_555
C28 C24 1_555 1_555
H20 C28 1_555 1_555
Co1 O1 1_555 1_555
N1 C12 1_555 1_555
N2 C26 1_555 1_555
O1 C15 1_555 1_555
O2 C15 1_555 1_555
O3 C1 1_555 1_555
O4 C1 1_555 1_555
C29 H21 1_555 1_555
C30 H22 1_555 1_555
H23 C30 1_555 1_555
H24 C30 1_555 1_555
C31 H25 1_555 1_555
H26 C31 1_555 1_555
H27 C31 1_555 1_555
N3 C29 1_555 1_555
O5 C29 1_555 1_555
Co1A N2 1_555 1_555
Co1C N1 1_555 1_555
N1C Co1 1_555 1_555
N2A Co1 1_555 1_555
C6 C7 1_555 1_555
C13 C14 1_555 1_555
C13 N1 1_555 1_555
C20 C21 1_555 1_555
C27 C28 1_555 1_555
C27 N2 1_555 1_555
Co1 O2 1_555 1_555
Co1 O3 1_555 1_555
Co1 O4 1_555 1_555
C30 N3 1_555 1_555
C31 N3 1_555 1_555

#END
