
#######################################################################
#
#                 Cambridge Crystallographic Data Centre
#                                CCDC 
#
#######################################################################
#
# If this CIF has been generated from an entry in the Cambridge 
# Structural Database, then it will include bibliographic, chemical, 
# crystal, experimental, refinement or atomic coordinate data resulting 
# from the CCDC's data processing and validation procedures.
#
#######################################################################

data_JODFIS
_symmetry_cell_setting           monoclinic
_symmetry_space_group_name_H-M   'P 21/c'
_symmetry_Int_Tables_number      14
_space_group_name_Hall           '-P 2ybc'
loop_
_symmetry_equiv_pos_site_id
_symmetry_equiv_pos_as_xyz
1 x,y,z
2 -x,1/2+y,1/2-z
3 -x,-y,-z
4 x,1/2-y,1/2+z
_cell_length_a                   12.3661(3)
_cell_length_b                   22.0755(6)
_cell_length_c                   14.2238(4)
_cell_angle_alpha                90
_cell_angle_beta                 95.997(2)
_cell_angle_gamma                90
_cell_volume                     3861.67
loop_
_atom_site_label
_atom_site_type_symbol
_atom_site_fract_x
_atom_site_fract_y
_atom_site_fract_z
C1 C -0.4812(3) 0.16030(17) 0.1211(3)
H1 H -0.4453 0.1904 0.0907
C2 C -0.4799(3) 0.16303(16) 0.2173(3)
H2 H -0.4433 0.1944 0.2506
C3 C -0.5330(3) 0.11904(15) 0.2656(2)
C4 C -0.5851(3) 0.07329(16) 0.2101(3)
H3 H -0.6212 0.0425 0.2388
C5 C -0.5836(3) 0.07323(16) 0.1141(3)
H4 H -0.6196 0.0423 0.0791
C6 C -0.5306(3) 0.11998(15) 0.3693(3)
C7 C -0.4875(3) 0.16835(17) 0.4227(3)
H5 H -0.4618 0.2022 0.3931
C8 C -0.4829(3) 0.16610(17) 0.5200(3)
H6 H -0.4543 0.1994 0.5540
C9 C -0.5600(3) 0.07367(18) 0.5167(3)
H7 H -0.5861 0.0406 0.5481
C10 C -0.5688(3) 0.07215(16) 0.4188(3)
H8 H -0.6005 0.0389 0.3865
C11 C -0.3250(3) 0.14395(19) -0.0869(3)
C12 C -0.2069(3) 0.13249(17) -0.0905(3)
C13 C -0.1325(3) 0.17885(17) -0.0717(3)
H9 H -0.1561 0.2167 -0.0538
C14 C -0.0239(3) 0.1693(2) -0.0794(3)
H10 H 0.0244 0.2015 -0.0691
C15 C 0.0152(3) 0.1135(2) -0.1018(3)
C16 C -0.0586(3) 0.06684(19) -0.1159(3)
H11 H -0.0341 0.0282 -0.1285
C17 C -0.1684(3) 0.07638(18) -0.1118(3)
H12 H -0.2168 0.0444 -0.1237
C18 C 0.1340(3) 0.1035(2) -0.1150(4)
H13 H 0.1743 0.1398 -0.0987
H14 H 0.1405 0.0934 -0.1798
H15 H 0.1623 0.0709 -0.0750
C19 C -0.6233(3) 0.20266(16) -0.2017(3)
C20 C -0.7023(3) 0.25141(16) -0.2344(3)
C21 C -0.7557(3) 0.28415(17) -0.1709(3)
H16 H -0.7471 0.2739 -0.1071
C22 C -0.8220(3) 0.3322(2) -0.2017(4)
H17 H -0.8570 0.3541 -0.1580
C23 C -0.8373(3) 0.3482(2) -0.2956(4)
C24 C -0.7865(3) 0.31359(19) -0.3597(3)
H18 H -0.7981 0.3224 -0.4238
C25 C -0.7187(3) 0.26608(17) -0.3292(3)
H19 H -0.6840 0.2439 -0.3728
C26 C -0.9039(4) 0.4035(2) -0.3292(4)
H20 H -0.9357 0.4211 -0.2768
H21 H -0.9604 0.3916 -0.3770
H22 H -0.8575 0.4327 -0.3549
C27 C -0.6216(3) 0.02390(16) -0.1980(3)
C28 C -0.6924(3) -0.02960(15) -0.2204(3)
C29 C -0.7346(3) -0.06246(17) -0.1497(3)
H23 H -0.7213 -0.0496 -0.0873
C30 C -0.7953(3) -0.11336(18) -0.1701(3)
H24 H -0.8220 -0.1346 -0.1211
C31 C -0.8178(3) -0.13391(18) -0.2610(4)
C32 C -0.7773(3) -0.10052(19) -0.3327(3)
H25 H -0.7920 -0.1131 -0.3952
C33 C -0.7163(3) -0.04951(17) -0.3127(3)
H26 H -0.6905 -0.0278 -0.3617
C34 C -0.8798(4) -0.19240(19) -0.2835(4)
H27 H -0.8293 -0.2250 -0.2882
H28 H -0.9247 -0.1881 -0.3424
H29 H -0.9248 -0.2010 -0.2340
C35 C -0.2783(3) 0.1042(2) -0.3246(3)
C36 C -0.1654(3) 0.10411(18) -0.3544(3)
C37 C -0.1115(3) 0.1575(2) -0.3643(3)
H30 H -0.1458 0.1941 -0.3542
C38 C -0.0061(4) 0.1574(2) -0.3892(4)
H31 H 0.0286 0.1942 -0.3970
C39 C 0.0480(4) 0.1049(3) -0.4028(4)
C40 C -0.0068(4) 0.0517(2) -0.3927(4)
H32 H 0.0278 0.0151 -0.4020
C41 C -0.1129(3) 0.0511(2) -0.3691(3)
H33 H -0.1484 0.0144 -0.3632
C42 C 0.1664(4) 0.1054(2) -0.4258(4)
H34 H 0.1828 0.1442 -0.4515
H35 H 0.1765 0.0743 -0.4712
H36 H 0.2139 0.0981 -0.3691
N1 N -0.5321(2) 0.11609(13) 0.0683(2)
N2 N -0.5167(2) 0.11935(13) 0.5685(2)
O1 O -0.39230(19) 0.10158(11) -0.12072(18)
O2 O -0.3582(2) 0.19093(12) -0.05287(19)
O3 O -0.5592(2) 0.18473(11) -0.25800(18)
O4 O -0.62602(18) 0.18349(11) -0.11849(18)
O5 O -0.61184(17) 0.04283(10) -0.11398(17)
O6 O -0.57491(18) 0.04670(10) -0.26427(17)
O7 O -0.32111(19) 0.15390(12) -0.30424(17)
O8 O -0.32956(19) 0.05532(12) -0.32064(17)
Zn1 Zn -0.53173(3) 0.116780(17) -0.07269(3)
Zn2 Zn -0.46790(3) 0.112300(18) -0.28399(3)
N2_2 N -0.5167(2) 0.11935(13) -0.4315(2)
Zn2_2 Zn -0.46790(3) 0.112300(18) 0.71601(3)
loop_
_geom_bond_atom_site_label_1
_geom_bond_atom_site_label_2
_geom_bond_site_symmetry_1
_geom_bond_site_symmetry_2
C1 H1 1_555 1_555
C2 C1 1_555 1_555
H2 C2 1_555 1_555
C3 C2 1_555 1_555
C4 C3 1_555 1_555
H3 C4 1_555 1_555
C5 C4 1_555 1_555
H4 C5 1_555 1_555
C6 C3 1_555 1_555
C7 C6 1_555 1_555
H5 C7 1_555 1_555
C8 C7 1_555 1_555
H6 C8 1_555 1_555
C9 H7 1_555 1_555
C10 C6 1_555 1_555
H8 C10 1_555 1_555
C11 C12 1_555 1_555
C12 C13 1_555 1_555
C13 H9 1_555 1_555
C14 C13 1_555 1_555
H10 C14 1_555 1_555
C15 C14 1_555 1_555
C16 C15 1_555 1_555
H11 C16 1_555 1_555
C17 C12 1_555 1_555
H12 C17 1_555 1_555
C18 C15 1_555 1_555
H13 C18 1_555 1_555
H14 C18 1_555 1_555
H15 C18 1_555 1_555
C19 C20 1_555 1_555
C20 C21 1_555 1_555
C21 H16 1_555 1_555
C22 C21 1_555 1_555
H17 C22 1_555 1_555
C23 C22 1_555 1_555
C24 C23 1_555 1_555
H18 C24 1_555 1_555
C25 C20 1_555 1_555
H19 C25 1_555 1_555
C26 C23 1_555 1_555
H20 C26 1_555 1_555
H21 C26 1_555 1_555
H22 C26 1_555 1_555
C27 C28 1_555 1_555
C28 C29 1_555 1_555
C29 H23 1_555 1_555
C30 C29 1_555 1_555
H24 C30 1_555 1_555
C31 C30 1_555 1_555
C32 C31 1_555 1_555
H25 C32 1_555 1_555
C33 C28 1_555 1_555
H26 C33 1_555 1_555
C34 C31 1_555 1_555
H27 C34 1_555 1_555
H28 C34 1_555 1_555
H29 C34 1_555 1_555
C35 C36 1_555 1_555
C36 C37 1_555 1_555
C37 H30 1_555 1_555
C38 C37 1_555 1_555
H31 C38 1_555 1_555
C39 C38 1_555 1_555
C40 C39 1_555 1_555
H32 C40 1_555 1_555
C41 C36 1_555 1_555
H33 C41 1_555 1_555
C42 C39 1_555 1_555
H34 C42 1_555 1_555
H35 C42 1_555 1_555
H36 C42 1_555 1_555
N1 C1 1_555 1_555
N2 C8 1_555 1_555
O1 C11 1_555 1_555
O2 C11 1_555 1_555
O3 C19 1_555 1_555
O4 C19 1_555 1_555
O5 C27 1_555 1_555
O6 C27 1_555 1_555
O7 C35 1_555 1_555
O8 C35 1_555 1_555
Zn1 N1 1_555 1_555
Zn2 O1 1_555 1_555
N2_2 Zn2 1_555 1_555
Zn2_2 N2 1_555 1_555
C5 N1 1_555 1_555
C9 C10 1_555 1_555
C9 N2 1_555 1_555
C16 C17 1_555 1_555
C24 C25 1_555 1_555
C32 C33 1_555 1_555
C40 C41 1_555 1_555
O1 Zn1 1_555 1_555
O3 Zn2 1_555 1_555
O4 Zn1 1_555 1_555
O5 Zn1 1_555 1_555
O6 Zn2 1_555 1_555
O7 Zn2 1_555 1_555
O8 Zn2 1_555 1_555

#END
