
#######################################################################
#
#                 Cambridge Crystallographic Data Centre
#                                CCDC 
#
#######################################################################
#
# If this CIF has been generated from an entry in the Cambridge 
# Structural Database, then it will include bibliographic, chemical, 
# crystal, experimental, refinement or atomic coordinate data resulting 
# from the CCDC's data processing and validation procedures.
#
#######################################################################

data_JODGEP
_symmetry_cell_setting           monoclinic
_symmetry_space_group_name_H-M   'C 2/c'
_symmetry_Int_Tables_number      15
_space_group_name_Hall           '-C 2yn'
loop_
_symmetry_equiv_pos_site_id
_symmetry_equiv_pos_as_xyz
1 x,y,z
2 1/2+x,1/2+y,z
3 -x,y,1/2-z
4 1/2-x,1/2+y,1/2-z
5 -x,-y,-z
6 1/2-x,1/2-y,-z
7 x,-y,1/2+z
8 1/2+x,1/2-y,1/2+z
_cell_length_a                   37.829(9)
_cell_length_b                   6.9457(16)
_cell_length_c                   22.772(5)
_cell_angle_alpha                90
_cell_angle_beta                 125.607(4)
_cell_angle_gamma                90
_cell_volume                     4864.61
loop_
_atom_site_label
_atom_site_type_symbol
_atom_site_fract_x
_atom_site_fract_y
_atom_site_fract_z
Cu1 Cu 0.75392(4) 0.99618(19) -0.00235(7)
Er1 Er 0.807097(16) 1.03018(7) 0.23411(3)
Er2 Er 1.003527(15) 0.76470(7) 0.38941(3)
C1 C 0.6683(3) 1.1134(14) -0.0793(6)
C2 C 0.6866(3) 1.1376(16) -0.0026(6)
C3 C 0.6713(3) 1.2018(14) 0.0364(6)
H1 H 0.6437 1.2464 0.0195
C4 C 0.7078(3) 1.1832(15) 0.1070(5)
C5 C 0.7157(4) 1.2328(17) 0.1785(6)
N1 N 0.7288(3) 1.0917(12) 0.0431(4)
N2 N 0.7422(3) 1.1173(12) 0.1114(4)
O1 O 0.6961(2) 1.0535(10) -0.0904(3)
O2 O 0.6304(2) 1.1490(11) -0.1273(4)
O3 O 0.7505(2) 1.1632(11) 0.2324(4)
O4 O 0.6889(2) 1.3355(11) 0.1785(4)
C6 C 0.8205(3) 0.8548(15) -0.0056(6)
C7 C 0.8382(3) 0.8709(14) 0.0706(6)
C8 C 0.8769(4) 0.8305(15) 0.1366(6)
H2 H 0.9022 0.7802 0.1449
C9 C 0.8691(3) 0.8802(15) 0.1867(6)
C10 C 0.8952(3) 0.8658(15) 0.2658(6)
N3 N 0.8102(3) 0.9429(12) 0.0832(4)
N4 N 0.8285(3) 0.9498(12) 0.1537(5)
O5 O 0.7792(2) 0.8912(10) -0.0494(4)
O6 O 0.8425(2) 0.8092(10) -0.0271(4)
O7 O 0.8764(2) 0.9096(11) 0.2951(4)
O8 O 0.9339(2) 0.8076(10) 0.2994(4)
C11 C 1.0000 0.892(2) 0.2500
C12 C 1.0000 0.668(2) 0.2500
C13 C 0.9952(4) 1.0891(14) 0.4771(6)
O9 O 0.7736(2) 0.7417(11) 0.1827(4)
H3 H 0.7632 0.6856 0.2066
H4 H 0.7495 0.7646 0.1356
O10 O 0.8408(2) 1.2042(10) 0.3435(4)
H5 H 0.8368 1.1601 0.3781
H6 H 0.8695 1.2480 0.3657
O11 O 0.8260(2) 1.3370(11) 0.2208(4)
H7 H 0.8064 1.3776 0.1734
H8 H 0.8550 1.3304 0.2364
O12 O 1.0016(2) 0.9713(10) 0.3011(4)
O13 O 1.0062(2) 0.5922(9) 0.3046(4)
O14 O 0.9925(2) 1.0680(9) 0.4205(4)
O15 O 0.9904(2) 1.2428(10) 0.5011(4)
O16 O 0.9640(2) 0.4938(10) 0.3838(4)
H9 H 0.9809 0.4309 0.4287
H10 H 0.9581 0.4113 0.3462
O17 O 1.0567(2) 0.5282(11) 0.4596(4)
H11 H 1.0714 0.5586 0.5088
H12 H 1.0772 0.5266 0.4488
O18 O 1.0706(2) 0.9117(10) 0.4474(4)
H13 H 1.0898 0.9023 0.4982
H14 H 1.0864 0.8743 0.4294
Cu1C Cu 0.74608(4) 0.49618(19) 0.50235(7)
Cu1C_2 Cu 0.74608(4) 1.49618(19) 0.50235(7)
Er1C Er 0.692903(16) 1.53018(7) 0.26589(3)
Er1C_2 Er 0.692903(16) 0.53018(7) 0.26589(3)
Er2C Er 0.496473(15) 1.26470(7) 0.11059(3)
Er2D Er 0.996473(15) 1.23530(7) 0.61059(3)
Er2B Er 0.996473(15) 0.76470(7) 0.11059(3)
C1C C 0.8317(3) 0.6134(14) 0.5793(6)
C2C C 0.8134(3) 0.6376(16) 0.5026(6)
C3C C 0.8287(3) 0.7018(14) 0.4636(6)
H1C H 0.8563 0.7464 0.4805
C4C C 0.7922(3) 0.6832(15) 0.3930(5)
C5C C 0.7843(4) 0.7328(17) 0.3215(6)
N1C N 0.7712(3) 0.5917(12) 0.4569(4)
N2C N 0.7578(3) 0.6173(12) 0.3886(4)
N2C_2 N 0.7578(3) 1.6173(12) 0.3886(4)
O1C O 0.8039(2) 0.5535(10) 0.5904(3)
O2C O 0.8696(2) 0.6490(11) 0.6273(4)
O3C O 0.7495(2) 0.6632(11) 0.2676(4)
O3C_2 O 0.7495(2) 1.6632(11) 0.2676(4)
O4C O 0.8111(2) 0.8355(11) 0.3215(4)
C6C C 0.6795(3) 1.3548(15) 0.5056(6)
C7C C 0.6618(3) 1.3709(14) 0.4294(6)
C8C C 0.6231(4) 1.3305(15) 0.3634(6)
H2C H 0.5978 1.2802 0.3551
C9C C 0.6309(3) 1.3802(15) 0.3133(6)
C10C C 0.6048(3) 1.3658(15) 0.2342(6)
N3C N 0.6898(3) 1.4429(12) 0.4168(4)
N3C_2 N 0.6898(3) 0.4429(12) 0.4168(4)
N4C N 0.6715(3) 1.4498(12) 0.3463(5)
O5C O 0.7208(2) 1.3912(10) 0.5494(4)
O5C_2 O 0.7208(2) 0.3912(10) 0.5494(4)
O6C O 0.6575(2) 1.3092(10) 0.5271(4)
O7C O 0.6236(2) 1.4096(11) 0.2049(4)
O8C O 0.5661(2) 1.3076(10) 0.2006(4)
C13D C 1.0048(4) 0.9109(14) 0.5229(6)
O9C O 0.7264(2) 1.2417(11) 0.3173(4)
H3C H 0.7368 1.1856 0.2934
H4C H 0.7505 1.2646 0.3644
O10C O 0.6592(2) 1.7042(10) 0.1565(4)
H5C H 0.6632 1.6601 0.1219
H6C H 0.6305 1.7480 0.1343
O11C O 0.6740(2) 1.8370(11) 0.2792(4)
H7C H 0.6936 1.8776 0.3266
H8C H 0.6450 1.8304 0.2636
O12B O 0.9984(2) 0.9713(10) 0.1989(4)
O12C O 0.4984(2) 1.4713(10) 0.1989(4)
O13B O 0.9938(2) 0.5922(9) 0.1954(4)
O13C O 0.4938(2) 1.0922(9) 0.1954(4)
O14D O 1.0075(2) 0.9320(9) 0.5795(4)
O14C O 0.5075(2) 1.5680(9) 0.0795(4)
O15D O 1.0096(2) 0.7572(10) 0.4989(4)
O15G O 0.4904(2) 1.2572(10) 0.0011(4)
O16C O 0.5360(2) 0.9938(10) 0.1162(4)
H9C H 0.5191 0.9309 0.0713
H10C H 0.5419 0.9113 0.1538
O17C O 0.4433(2) 1.0282(11) 0.0404(4)
H11C H 0.4286 1.0586 -0.0088
H12C H 0.4228 1.0266 0.0512
O18C O 0.4294(2) 1.4117(10) 0.0526(4)
H13C H 0.4102 1.4023 0.0018
H14C H 0.4136 1.3743 0.0706
O19 O 0.9306(3) 0.2694(12) 0.2718(4)
H15 H 0.9123 0.3255 0.2257
H16 H 0.9512 0.2034 0.2693
O20 O 0.8911(3) 0.5464(13) 0.3839(6)
H17 H 0.9024 0.6515 0.3743
H18 H 0.8668 0.5847 0.3828
O21 O 1.0688(2) 1.2537(10) 0.3914(4)
H19 H 1.0866 1.3021 0.3790
H20 H 1.0400 1.2320 0.3505
loop_
_geom_bond_atom_site_label_1
_geom_bond_atom_site_label_2
_geom_bond_site_symmetry_1
_geom_bond_site_symmetry_2
Cu1 N1 1_555 1_555
Er1 N2 1_555 1_555
Er2 O8 1_555 1_555
C1 C2 1_555 1_555
C2 C3 1_555 1_555
C3 H1 1_555 1_555
C4 C3 1_555 1_555
C5 C4 1_555 1_555
N1 C2 1_555 1_555
N2 C4 1_555 1_555
O1 Cu1 1_555 1_555
O2 C1 1_555 1_555
O3 Er1 1_555 1_555
O4 C5 1_555 1_555
C6 C7 1_555 1_555
C7 C8 1_555 1_555
C8 H2 1_555 1_555
C9 C8 1_555 1_555
C10 C9 1_555 1_555
N3 Cu1 1_555 1_555
N4 Er1 1_555 1_555
O5 Cu1 1_555 1_555
O6 C6 1_555 1_555
O7 Er1 1_555 1_555
O8 C10 1_555 1_555
C11 C12 1_555 1_555
C12 O13 1_555 1_555
C13 O14 1_555 1_555
O9 Er1 1_555 1_555
H3 O9 1_555 1_555
H4 O9 1_555 1_555
O10 Er1 1_555 1_555
H5 O10 1_555 1_555
H6 O10 1_555 1_555
O11 Er1 1_555 1_555
H7 O11 1_555 1_555
H8 O11 1_555 1_555
O12 Er2 1_555 1_555
O13 Er2 1_555 1_555
O14 Er2 1_555 1_555
O15 C13 1_555 1_555
O16 Er2 1_555 1_555
H9 O16 1_555 1_555
H10 O16 1_555 1_555
O17 Er2 1_555 1_555
H11 O17 1_555 1_555
H12 O17 1_555 1_555
O18 Er2 1_555 1_555
H13 O18 1_555 1_555
H14 O18 1_555 1_555
O19 H15 1_555 1_555
H16 O19 1_555 1_555
O20 H17 1_555 1_555
H18 O20 1_555 1_555
O21 H19 1_555 1_555
H20 O21 1_555 1_555
Cu1C N1C 1_555 1_555
Cu1C_2 N3C 1_555 1_555
Er1C O4 1_555 1_555
Er1C_2 N2C 1_555 1_555
Er2C O8C 1_555 1_555
Er2D O15 1_555 1_555
Er2B O12B 1_555 1_555
C1C C2C 1_555 1_555
C2C C3C 1_555 1_555
C3C H1C 1_555 1_555
C4C C3C 1_555 1_555
C5C C4C 1_555 1_555
N1C C2C 1_555 1_555
N2C C4C 1_555 1_555
N2C_2 Er1C 1_555 1_555
O1C Cu1C 1_555 1_555
O2C C1C 1_555 1_555
O3C Er1C_2 1_555 1_555
O3C_2 Er1C 1_555 1_555
O4C Er1 1_555 1_555
C6C C7C 1_555 1_555
C7C C8C 1_555 1_555
C8C H2C 1_555 1_555
C9C C8C 1_555 1_555
C10C C9C 1_555 1_555
N3C C7C 1_555 1_555
N3C_2 Cu1C 1_555 1_555
N4C Er1C 1_555 1_555
O5C Cu1C_2 1_555 1_555
O5C_2 Cu1C 1_555 1_555
O6C C6C 1_555 1_555
O7C Er1C 1_555 1_555
O8C C10C 1_555 1_555
C13D C13 1_555 1_555
O9C Er1C 1_555 1_555
H3C O9C 1_555 1_555
H4C O9C 1_555 1_555
O10C Er1C 1_555 1_555
H5C O10C 1_555 1_555
H6C O10C 1_555 1_555
O11C Er1C 1_555 1_555
H7C O11C 1_555 1_555
H8C O11C 1_555 1_555
O12B C11 1_555 1_555
O12C Er2C 1_555 1_555
O13B C12 1_555 1_555
O13C Er2C 1_555 1_555
O14D Er2D 1_555 1_555
O14C Er2C 1_555 1_555
O15D Er2 1_555 1_555
O15G Er2C 1_555 1_555
O16C Er2C 1_555 1_555
H9C O16C 1_555 1_555
H10C O16C 1_555 1_555
O17C Er2C 1_555 1_555
H11C O17C 1_555 1_555
H12C O17C 1_555 1_555
O18C Er2C 1_555 1_555
H13C O18C 1_555 1_555
H14C O18C 1_555 1_555
C1 O1 1_555 1_555
C5 O3 1_555 1_555
N1 N2 1_555 1_555
C6 O5 1_555 1_555
C7 N3 1_555 1_555
C9 N4 1_555 1_555
C10 O7 1_555 1_555
N3 N4 1_555 1_555
C11 O12 1_555 1_555
Er2B O13B 1_555 1_555
C1C O1C 1_555 1_555
C5C O3C 1_555 1_555
C5C O4C 1_555 1_555
N1C N2C 1_555 1_555
C6C O5C 1_555 1_555
C9C N4C 1_555 1_555
C10C O7C 1_555 1_555
N3C N4C 1_555 1_555
C13D O14D 1_555 1_555
C13D O15D 1_555 1_555

#END
