
#######################################################################
#
#                 Cambridge Crystallographic Data Centre
#                                CCDC 
#
#######################################################################
#
# If this CIF has been generated from an entry in the Cambridge 
# Structural Database, then it will include bibliographic, chemical, 
# crystal, experimental, refinement or atomic coordinate data resulting 
# from the CCDC's data processing and validation procedures.
#
#######################################################################

data_JODGIU
_symmetry_cell_setting           tetragonal
_symmetry_space_group_name_H-M   'P 4 21 2'
_symmetry_Int_Tables_number      90
_space_group_name_Hall           'P 4ab 2ab'
loop_
_symmetry_equiv_pos_site_id
_symmetry_equiv_pos_as_xyz
1 x,y,z
2 -x,-y,z
3 1/2+x,1/2-y,-z
4 1/2-x,1/2+y,-z
5 -y,-x,-z
6 y,x,-z
7 1/2+y,1/2-x,z
8 1/2-y,1/2+x,z
_cell_length_a                   22.6250(7)
_cell_length_b                   22.6250(7)
_cell_length_c                   12.7634(5)
_cell_angle_alpha                90
_cell_angle_beta                 90
_cell_angle_gamma                90
_cell_volume                     6533.46
loop_
_atom_site_label
_atom_site_type_symbol
_atom_site_fract_x
_atom_site_fract_y
_atom_site_fract_z
C1 C -0.1592(4) 0.2733(4) 0.3352(8)
C2 C -0.1026(4) 0.2776(4) 0.4028(9)
C3 C -0.0565(4) 0.3081(4) 0.3639(9)
H1 H -0.0581 0.3290 0.3003
C4 C -0.0041(4) 0.3061(4) 0.4290(9)
H2 H 0.0292 0.3279 0.4077
C5 C -0.0006(4) 0.2757(4) 0.5153(8)
C6 C -0.0501(4) 0.2455(4) 0.5535(7)
H3 H -0.0488 0.2257 0.6183
C7 C -0.0992(4) 0.2455(4) 0.4958(10)
H4 H -0.1321 0.2235 0.5182
C8 C 0.0580(3) 0.2731(3) 0.5760(8)
C9 C 0.0588(4) 0.2680(4) 0.6872(8)
H5 H 0.0239 0.2695 0.7270
C10 C 0.1131(3) 0.2609(3) 0.7332(8)
H6 H 0.1142 0.2561 0.8063
C11 C 0.1627(4) 0.2660(4) 0.5769(8)
H7 H 0.1981 0.2658 0.5384
C12 C 0.1106(3) 0.2722(3) 0.5229(8)
H8 H 0.1111 0.2759 0.4495
C13 C 0.2818(4) 0.6385(4) 1.1816(9)
C14 C 0.2863(4) 0.5780(4) 1.1269(9)
C15 C 0.2931(4) 0.5767(4) 1.0213(9)
H9 H 0.2971 0.6127 0.9852
C16 C 0.2944(4) 0.5228(4) 0.9628(8)
H10 H 0.3034 0.5232 0.8909
C17 C 0.2827(3) 0.4726(4) 1.0113(9)
C18 C 0.2772(4) 0.4727(4) 1.1265(8)
H11 H 0.2738 0.4375 1.1651
C19 C 0.2774(3) 0.5256(4) 1.1728(7)
H12 H 0.2704 0.5261 1.2454
C20 C 0.2772(4) 0.4163(4) 0.9571(8)
C21 C 0.3047(3) 0.4065(4) 0.8634(8)
H13 H 0.3312 0.4352 0.8383
C22 C 0.2957(4) 0.3570(4) 0.8045(8)
H14 H 0.3147 0.3535 0.7393
C23 C 0.2342(4) 0.3210(4) 0.9320(9)
H15 H 0.2086 0.2910 0.9553
C24 C 0.2423(3) 0.3719(3) 1.0003(9)
H16 H 0.2256 0.3745 1.0675
Co1 Co 0.24340(4) 0.23656(4) 0.75248(12)
N1 N 0.1660(3) 0.2603(3) 0.6808(6)
N2 N 0.2605(3) 0.3133(3) 0.8374(6)
O1 O -0.2041(2) 0.2468(2) 0.3779(5)
O2 O -0.1597(2) 0.2920(2) 0.2419(5)
O3 O 0.2828(2) 0.6843(2) 1.1276(5)
O4 O 0.2748(3) 0.6384(2) 1.2765(5)
Co1B Co -0.25660(4) 0.26344(4) 0.24752(12)
Co1C Co 0.25660(4) 0.73656(4) 1.24752(12)
O1B O 0.2959(2) 0.2532(2) 0.6221(5)
O2B O 0.3403(2) 0.2080(2) 0.7581(5)
O3C O 0.2172(2) 0.1843(2) 0.8724(5)
O4C O 0.2252(3) 0.1384(2) 0.7235(5)
loop_
_geom_bond_atom_site_label_1
_geom_bond_atom_site_label_2
_geom_bond_site_symmetry_1
_geom_bond_site_symmetry_2
C1 C2 1_555 1_555
C2 C3 1_555 1_555
C3 H1 1_555 1_555
C4 C3 1_555 1_555
H2 C4 1_555 1_555
C5 C4 1_555 1_555
C6 C5 1_555 1_555
H3 C6 1_555 1_555
C7 C2 1_555 1_555
H4 C7 1_555 1_555
C8 C5 1_555 1_555
C9 C8 1_555 1_555
H5 C9 1_555 1_555
C10 C9 1_555 1_555
H6 C10 1_555 1_555
C11 H7 1_555 1_555
C12 C8 1_555 1_555
H8 C12 1_555 1_555
C13 C14 1_555 1_555
C14 C15 1_555 1_555
C15 H9 1_555 1_555
C16 C15 1_555 1_555
H10 C16 1_555 1_555
C17 C16 1_555 1_555
C18 C17 1_555 1_555
H11 C18 1_555 1_555
C19 C14 1_555 1_555
H12 C19 1_555 1_555
C20 C17 1_555 1_555
C21 C20 1_555 1_555
H13 C21 1_555 1_555
C22 C21 1_555 1_555
H14 C22 1_555 1_555
C23 H15 1_555 1_555
C24 C20 1_555 1_555
H16 C24 1_555 1_555
Co1 N1 1_555 1_555
N1 C10 1_555 1_555
N2 C22 1_555 1_555
O1 C1 1_555 1_555
O2 C1 1_555 1_555
O3 C13 1_555 1_555
O4 C13 1_555 1_555
Co1B O1 1_555 1_555
Co1C O3 1_555 1_555
O1B Co1 1_555 1_555
O2B Co1 1_555 1_555
O3C Co1 1_555 1_555
O4C Co1 1_555 1_555
C6 C7 1_555 1_555
C11 C12 1_555 1_555
C11 N1 1_555 1_555
C18 C19 1_555 1_555
C23 C24 1_555 1_555
C23 N2 1_555 1_555
Co1 N2 1_555 1_555
O2 Co1B 1_555 1_555
O4 Co1C 1_555 1_555

#END
