
#######################################################################
#
#                 Cambridge Crystallographic Data Centre
#                                CCDC 
#
#######################################################################
#
# If this CIF has been generated from an entry in the Cambridge 
# Structural Database, then it will include bibliographic, chemical, 
# crystal, experimental, refinement or atomic coordinate data resulting 
# from the CCDC's data processing and validation procedures.
#
#######################################################################

data_JODLUL
_symmetry_cell_setting           triclinic
_symmetry_space_group_name_H-M   'P -1'
_symmetry_Int_Tables_number      2
_space_group_name_Hall           '-P 1'
loop_
_symmetry_equiv_pos_site_id
_symmetry_equiv_pos_as_xyz
1 x,y,z
2 -x,-y,-z
_cell_length_a                   6.9421(5)
_cell_length_b                   9.8740(6)
_cell_length_c                   10.4269(6)
_cell_angle_alpha                64.0980(17)
_cell_angle_beta                 75.0294(19)
_cell_angle_gamma                74.6100(20)
_cell_volume                     611.46
loop_
_atom_site_label
_atom_site_type_symbol
_atom_site_fract_x
_atom_site_fract_y
_atom_site_fract_z
Na1 Na 0.68131(10) 0.09241(8) 0.49843(8)
F1 F 0.49808(16) 0.26180(12) 0.62709(12)
F2 F 0.26200(17) 0.49288(12) 0.40879(12)
F3 F 0.62784(15) 0.17461(12) 0.25312(11)
F4 F -0.07198(16) 0.09567(12) 0.61224(12)
F5 F 0.05950(17) 0.43704(13) 0.16587(12)
F6 F -0.04982(16) 0.39757(13) 0.38989(12)
F7 F -0.24566(16) 0.10640(13) 0.87003(12)
F8 F 0.37674(17) 0.09713(12) 0.23826(12)
F9 F -0.05389(17) 0.19912(13) 1.00768(12)
F10 F 0.00255(16) 0.21443(12) 0.31898(12)
F11 F 0.44258(18) 0.31961(13) 0.09073(11)
F12 F 0.35509(18) 0.54622(12) 0.18133(12)
F13 F 0.56379(16) 0.40261(12) 0.32876(12)
F14 F 0.31941(18) 0.27532(14) 0.88320(12)
N1 N 0.3177(2) 0.16566(16) 0.47607(15)
C1 C 0.0324(3) 0.1951(2) 0.87829(19)
C2 C 0.3082(3) 0.2291(2) 0.68161(19)
C3 C 0.0266(3) 0.14719(19) 0.67461(19)
C4 C 0.2958(3) 0.28708(19) 0.33700(19)
C5 C 0.2155(3) 0.18839(19) 0.60253(19)
C6 C -0.0649(3) 0.1497(2) 0.80800(19)
C7 C 0.3692(3) 0.4349(2) 0.31216(19)
C8 C 0.2216(3) 0.2338(2) 0.81521(19)
C9 C 0.4357(3) 0.2214(2) 0.22708(19)
C10 C 0.0756(3) 0.3365(2) 0.30083(19)
Na1_2 Na -0.31869(10) 0.09241(8) 0.49843(8)
Na1A Na 0.31869(10) -0.09241(8) 0.50157(8)
F4_2 F 0.92802(16) 0.09567(12) 0.61224(12)
F8A F 0.62326(17) -0.09713(12) 0.76174(12)
F10_2 F 1.00255(16) 0.21443(12) 0.31898(12)
N1A N 0.6823(2) -0.16566(16) 0.52393(15)
loop_
_geom_bond_atom_site_label_1
_geom_bond_atom_site_label_2
_geom_bond_site_symmetry_1
_geom_bond_site_symmetry_2
Na1 F1 1_555 1_555
F1 C2 1_555 1_555
F2 C7 1_555 1_555
F3 Na1 1_555 1_555
F4 C3 1_555 1_555
F5 C10 1_555 1_555
F6 C10 1_555 1_555
F7 C6 1_555 1_555
F8 C9 1_555 1_555
F9 C1 1_555 1_555
F10 C10 1_555 1_555
F11 C9 1_555 1_555
F12 C7 1_555 1_555
F13 Na1 1_555 1_555
F14 C8 1_555 1_555
N1 Na1 1_555 1_555
C1 C6 1_555 1_555
C2 C5 1_555 1_555
C3 C5 1_555 1_555
C4 N1 1_555 1_555
C5 N1 1_555 1_555
C6 C3 1_555 1_555
C7 F13 1_555 1_555
C8 C1 1_555 1_555
C9 F3 1_555 1_555
C10 C4 1_555 1_555
Na1_2 F4 1_555 1_555
Na1A F8 1_555 1_555
F4_2 Na1 1_555 1_555
F8A Na1 1_555 1_555
F10_2 Na1 1_555 1_555
N1A Na1 1_555 1_555
F10 Na1_2 1_555 1_555
N1 Na1A 1_555 1_555
C2 C8 1_555 1_555
C4 C7 1_555 1_555
C4 C9 1_555 1_555
Na1A N1A 1_555 1_555

#END
