
#######################################################################
#
#                 Cambridge Crystallographic Data Centre
#                                CCDC 
#
#######################################################################
#
# If this CIF has been generated from an entry in the Cambridge 
# Structural Database, then it will include bibliographic, chemical, 
# crystal, experimental, refinement or atomic coordinate data resulting 
# from the CCDC's data processing and validation procedures.
#
#######################################################################

data_JODNEX
_symmetry_cell_setting           monoclinic
_symmetry_space_group_name_H-M   'P 21/c'
_symmetry_Int_Tables_number      14
_space_group_name_Hall           '-P 2ybc'
loop_
_symmetry_equiv_pos_site_id
_symmetry_equiv_pos_as_xyz
1 x,y,z
2 -x,1/2+y,1/2-z
3 -x,-y,-z
4 x,1/2-y,1/2+z
_cell_length_a                   9.0226(4)
_cell_length_b                   29.2686(12)
_cell_length_c                   14.6157(6)
_cell_angle_alpha                90
_cell_angle_beta                 92.4140(10)
_cell_angle_gamma                90
_cell_volume                     3856.27
loop_
_atom_site_label
_atom_site_type_symbol
_atom_site_fract_x
_atom_site_fract_y
_atom_site_fract_z
Cu1 Cu 0.15794(3) 0.191408(8) 0.160410(16)
Cu2 Cu 0.27307(2) 0.293441(8) 0.364020(16)
Cu3 Cu -0.02607(3) 0.069460(8) 0.209748(16)
Cl1 Cl 0.32954(5) 0.239076(16) 0.22549(3)
Cl2 Cl 0.15764(6) 0.131612(16) 0.26009(3)
Cl3 Cl 0.20948(5) 0.158422(15) 0.02683(3)
Cl4 Cl -0.02597(6) 0.238109(18) 0.12460(3)
Cl5 Cl 0.48889(5) 0.326474(16) 0.36058(3)
Cl6 Cl 0.09097(5) 0.006100(16) 0.24091(3)
N1 N 0.20090(18) 0.37150(5) 0.23208(11)
N2 N 0.15010(17) 0.33699(5) 0.27929(11)
N3 N -0.0434(2) 0.38181(6) 0.16643(13)
N4 N -0.09271(19) 0.34780(6) 0.21535(12)
N5 N 0.07511(17) 0.26639(5) 0.36952(11)
N6 N 0.31336(17) 0.23912(5) 0.45331(11)
N7 N 0.44023(18) 0.22870(5) 0.49699(11)
N8 N 0.3230(2) 0.16369(6) 0.55793(12)
N9 N 0.1964(2) 0.17453(6) 0.51495(12)
N10 N -0.00413(17) 0.07059(5) 0.06955(11)
N11 N 0.09602(17) 0.04815(5) 0.02436(11)
N12 N 0.01355(18) 0.08832(6) -0.11020(11)
N13 N -0.08653(18) 0.10996(6) -0.06409(11)
N14 N -0.18103(17) 0.11319(5) 0.17071(11)
N15 N -0.14420(18) 0.07623(5) 0.32849(11)
N16 N -0.13216(19) 0.05083(6) 0.40287(11)
N17 N -0.3222(2) 0.09525(6) 0.46631(12)
N18 N -0.3314(2) 0.12106(6) 0.39236(12)
C1 C 0.1557(3) 0.43125(7) 0.11927(16)
H1 H 0.1411 0.4239 0.0555
H2 H 0.2594 0.4362 0.1332
H3 H 0.1012 0.4585 0.1326
C2 C 0.1021(2) 0.39281(7) 0.17574(13)
C3 C 0.0063(2) 0.32576(6) 0.26977(13)
C4 C -0.03963(19) 0.28634(6) 0.32435(13)
C5 C -0.1824(2) 0.26990(7) 0.33028(14)
H4 H -0.2618 0.2842 0.2994
C6 C -0.2039(2) 0.23152(7) 0.38345(15)
H5 H -0.2991 0.2200 0.3892
C7 C -0.0839(2) 0.21012(7) 0.42825(14)
H6 H -0.0969 0.1838 0.4627
C8 C 0.0555(2) 0.22915(6) 0.42003(13)
C9 C 0.1938(2) 0.21319(6) 0.46583(13)
C10 C 0.4396(2) 0.19215(7) 0.55194(13)
C11 C 0.5751(2) 0.18158(7) 0.60834(14)
H7 H 0.5520 0.1811 0.6718
H8 H 0.6489 0.2045 0.5986
H9 H 0.6126 0.1522 0.5912
C12 C 0.2302(2) 0.03901(8) -0.11365(15)
H10 H 0.2729 0.0142 -0.0787
H11 H 0.3045 0.0618 -0.1227
H12 H 0.1931 0.0279 -0.1720
C13 C 0.1068(2) 0.05924(6) -0.06370(13)
C14 C -0.0890(2) 0.10180(6) 0.02619(12)
C15 C -0.1932(2) 0.12614(6) 0.08328(13)
C16 C -0.2981(2) 0.15784(7) 0.05308(14)
H13 H -0.3049 0.1670 -0.0079
C17 C -0.3928(2) 0.17557(7) 0.11644(15)
H14 H -0.4642 0.1969 0.0979
C18 C -0.3817(2) 0.16165(7) 0.20744(14)
H15 H -0.4453 0.1730 0.2504
C19 C -0.2722(2) 0.13017(7) 0.23180(13)
C20 C -0.2499(2) 0.10833(6) 0.32231(13)
C21 C -0.2317(2) 0.05868(7) 0.46681(13)
C22 C -0.2357(3) 0.02686(8) 0.54542(15)
H16 H -0.1607 0.0039 0.5397
H17 H -0.3314 0.0126 0.5461
H18 H -0.2175 0.0435 0.6014
Cu2C Cu 0.27307(2) 0.206559(8) -0.135980(16)
Cl3C Cl 0.20948(5) 0.341578(15) 0.52683(3)
N19 N -0.5602(3) -0.02826(9) -0.2910(2)
C23 C -0.4970(3) -0.04159(9) -0.2263(2)
C24 C -0.4177(3) -0.05795(8) -0.14292(18)
H19 H -0.3346 -0.0383 -0.1287
H20 H -0.3831 -0.0885 -0.1525
H21 H -0.4834 -0.0577 -0.0930
N20 N -0.3702(2) 0.05006(8) -0.04880(16)
C25 C -0.3770(2) 0.06108(8) -0.12418(18)
C26 C -0.3852(3) 0.07424(8) -0.22125(17)
H22 H -0.3125 0.0974 -0.2318
H23 H -0.4824 0.0859 -0.2370
H24 H -0.3660 0.0480 -0.2584
loop_
_geom_bond_atom_site_label_1
_geom_bond_atom_site_label_2
_geom_bond_site_symmetry_1
_geom_bond_site_symmetry_2
Cu1 Cl1 1_555 1_555
Cu2 Cl1 1_555 1_555
Cu3 Cl2 1_555 1_555
Cl2 Cu1 1_555 1_555
Cl3 Cu1 1_555 1_555
Cl4 Cu1 1_555 1_555
Cl5 Cu2 1_555 1_555
Cl6 Cu3 1_555 1_555
N1 N2 1_555 1_555
N2 Cu2 1_555 1_555
N3 N4 1_555 1_555
N4 C3 1_555 1_555
N5 Cu2 1_555 1_555
N6 Cu2 1_555 1_555
N7 N6 1_555 1_555
N8 N9 1_555 1_555
N9 C9 1_555 1_555
N10 Cu3 1_555 1_555
N11 N10 1_555 1_555
N12 N13 1_555 1_555
N13 C14 1_555 1_555
N14 Cu3 1_555 1_555
N15 Cu3 1_555 1_555
N16 N15 1_555 1_555
N17 N18 1_555 1_555
N18 C20 1_555 1_555
C1 H1 1_555 1_555
H2 C1 1_555 1_555
H3 C1 1_555 1_555
C2 N1 1_555 1_555
C3 N2 1_555 1_555
C4 N5 1_555 1_555
C5 C4 1_555 1_555
H4 C5 1_555 1_555
C6 C5 1_555 1_555
H5 C6 1_555 1_555
C7 C6 1_555 1_555
H6 C7 1_555 1_555
C8 N5 1_555 1_555
C9 N6 1_555 1_555
C10 N7 1_555 1_555
C11 C10 1_555 1_555
H7 C11 1_555 1_555
H8 C11 1_555 1_555
H9 C11 1_555 1_555
C12 H10 1_555 1_555
H11 C12 1_555 1_555
H12 C12 1_555 1_555
C13 N11 1_555 1_555
C14 N10 1_555 1_555
C15 N14 1_555 1_555
C16 C15 1_555 1_555
H13 C16 1_555 1_555
C17 C16 1_555 1_555
H14 C17 1_555 1_555
C18 C17 1_555 1_555
H15 C18 1_555 1_555
C19 N14 1_555 1_555
C20 N15 1_555 1_555
C21 N16 1_555 1_555
C22 C21 1_555 1_555
H16 C22 1_555 1_555
H17 C22 1_555 1_555
H18 C22 1_555 1_555
N19 C23 1_555 1_555
C23 C24 1_555 1_555
C24 H19 1_555 1_555
H20 C24 1_555 1_555
H21 C24 1_555 1_555
N20 C25 1_555 1_555
C25 C26 1_555 1_555
C26 H22 1_555 1_555
H23 C26 1_555 1_555
H24 C26 1_555 1_555
Cu2C Cl3 1_555 1_555
Cl3C Cu2 1_555 1_555
N3 C2 1_555 1_555
N8 C10 1_555 1_555
N12 C13 1_555 1_555
N17 C21 1_555 1_555
C1 C2 1_555 1_555
C3 C4 1_555 1_555
C7 C8 1_555 1_555
C8 C9 1_555 1_555
C12 C13 1_555 1_555
C14 C15 1_555 1_555
C18 C19 1_555 1_555
C19 C20 1_555 1_555

#END
