
#######################################################################
#
#                 Cambridge Crystallographic Data Centre
#                                CCDC 
#
#######################################################################
#
# If this CIF has been generated from an entry in the Cambridge 
# Structural Database, then it will include bibliographic, chemical, 
# crystal, experimental, refinement or atomic coordinate data resulting 
# from the CCDC's data processing and validation procedures.
#
#######################################################################

data_JODPUP
_symmetry_cell_setting           triclinic
_symmetry_space_group_name_H-M   'P -1'
_symmetry_Int_Tables_number      2
_space_group_name_Hall           '-P 1'
loop_
_symmetry_equiv_pos_site_id
_symmetry_equiv_pos_as_xyz
1 x,y,z
2 -x,-y,-z
_cell_length_a                   9.7687(5)
_cell_length_b                   9.8146(5)
_cell_length_c                   10.5982(5)
_cell_angle_alpha                89.256(3)
_cell_angle_beta                 73.098(3)
_cell_angle_gamma                73.041(3)
_cell_volume                     927.073
loop_
_atom_site_label
_atom_site_type_symbol
_atom_site_fract_x
_atom_site_fract_y
_atom_site_fract_z
Mo1 Mo 0.70144(4) 0.72364(4) 0.29503(4)
Mo2 Mo 0.59949(4) 0.45376(4) 0.21880(4)
Mo3 Mo 0.31741(4) 0.53374(4) 0.48137(4)
Mo4 Mo 0.40773(4) 0.80158(4) 0.55717(4)
Cu1 Cu 0.57429(7) 1.03022(6) 0.13739(6)
Cu2 Cu 0.52375(7) 1.23503(7) -0.06894(6)
N1 N 0.3729(4) 1.1709(4) 0.1852(3)
N2 N 0.3579(4) 1.2755(4) 0.0992(4)
N3 N 0.7494(4) 1.0027(4) -0.0224(3)
N4 N 0.7267(4) 1.0996(4) -0.1140(4)
O1 O 0.5886(3) 0.8245(3) 0.2041(3)
O2 O 0.8636(3) 0.7669(3) 0.2457(3)
O3 O 0.7503(3) 0.5456(3) 0.1964(3)
O4 O 0.5953(3) 0.8255(3) 0.4646(3)
O5 O 0.4828(4) 0.5721(3) 0.1461(3)
O6 O 0.6894(4) 0.3118(3) 0.1064(3)
O7 O 0.4462(3) 0.3832(3) 0.3450(3)
O8 O 0.2097(3) 0.4295(3) 0.5725(3)
O9 O 0.2040(3) 0.6395(3) 0.4022(3)
O10 O 0.2918(3) 0.6650(3) 0.6291(3)
O11 O 0.3612(3) 0.9062(3) 0.7012(3)
O12 O 0.2925(4) 0.8958(3) 0.4723(3)
O13 O 0.5094(3) 0.6054(3) 0.4134(3)
C1 C 0.2645(5) 1.1861(5) 0.2998(4)
H1 H 0.2760 1.1151 0.3583
C2 C 0.1374(5) 1.3006(6) 0.3357(5)
H2 H 0.0627 1.3059 0.4151
C3 C 0.1235(5) 1.4072(6) 0.2512(5)
H3 H 0.0405 1.4884 0.2717
C4 C 0.2395(5) 1.3882(5) 0.1332(5)
H4 H 0.2323 1.4600 0.0751
C5 C 0.8821(5) 0.9096(5) -0.0444(4)
H5 H 0.8967 0.8436 0.0178
C6 C 1.0035(6) 0.9035(6) -0.1566(5)
H6 H 1.0962 0.8353 -0.1693
C7 C 0.9802(5) 1.0014(5) -0.2461(5)
H7 H 1.0569 1.0027 -0.3221
C8 C 0.8384(5) 1.0995(5) -0.2205(4)
H8 H 0.8214 1.1676 -0.2805
Mo1A Mo 0.29856(4) 0.27636(4) 0.70497(4)
Mo2A Mo 0.40051(4) 0.54624(4) 0.78120(4)
Mo3A Mo 0.68259(4) 0.46626(4) 0.51863(4)
Mo4A Mo 0.59227(4) 0.19842(4) 0.44283(4)
Cu1A Cu 0.42571(7) 0.96978(6) 0.86261(6)
Cu2A Cu 0.47625(7) 0.76497(7) 0.06894(6)
O1A O 0.4114(3) 1.1755(3) -0.2041(3)
O5A O 0.5172(4) 1.4279(3) -0.1461(3)
O7A O 0.5538(3) 0.6168(3) 0.6550(3)
O8A O 0.7903(3) 0.5705(3) 0.4275(3)
O10A O 0.7082(3) 0.3350(3) 0.3709(3)
O11A O 0.6388(3) 1.0938(3) 0.2988(3)
O13A O 0.4906(3) 0.3946(3) 0.5866(3)
loop_
_geom_bond_atom_site_label_1
_geom_bond_atom_site_label_2
_geom_bond_site_symmetry_1
_geom_bond_site_symmetry_2
Mo1 O1 1_555 1_555
Mo2 O3 1_555 1_555
Mo3 Mo4 1_555 1_555
Mo4 O4 1_555 1_555
Cu1 N1 1_555 1_555
Cu2 N2 1_555 1_555
N1 N2 1_555 1_555
N2 C4 1_555 1_555
N3 Cu1 1_555 1_555
N4 Cu2 1_555 1_555
O1 Cu1 1_555 1_555
O2 Mo1 1_555 1_555
O3 Mo1 1_555 1_555
O4 Mo1 1_555 1_555
O5 Mo2 1_555 1_555
O6 Mo2 1_555 1_555
O7 Mo2 1_555 1_555
O8 Mo3 1_555 1_555
O9 Mo3 1_555 1_555
O10 Mo3 1_555 1_555
O11 Mo4 1_555 1_555
O12 Mo4 1_555 1_555
O13 Mo1 1_555 1_555
C1 N1 1_555 1_555
H1 C1 1_555 1_555
C2 C1 1_555 1_555
H2 C2 1_555 1_555
C3 C2 1_555 1_555
H3 C3 1_555 1_555
C4 C3 1_555 1_555
H4 C4 1_555 1_555
C5 N3 1_555 1_555
H5 C5 1_555 1_555
C6 C5 1_555 1_555
H6 C6 1_555 1_555
C7 C6 1_555 1_555
H7 C7 1_555 1_555
C8 N4 1_555 1_555
H8 C8 1_555 1_555
Mo1A O8 1_555 1_555
Mo2A O10 1_555 1_555
Mo3A O13 1_555 1_555
Mo4A O7 1_555 1_555
Cu1A O11 1_555 1_555
Cu2A O1 1_555 1_555
O1A Cu2 1_555 1_555
O5A Cu2 1_555 1_555
O7A Mo4 1_555 1_555
O8A Mo1 1_555 1_555
O10A Mo2 1_555 1_555
O11A Cu1 1_555 1_555
O13A Mo3 1_555 1_555
Mo2 O13 1_555 1_555
Mo3 O7 1_555 1_555
Mo3 O13 1_555 1_555
Mo4 O10 1_555 1_555
Mo4 O13 1_555 1_555
N3 N4 1_555 1_555
O5 Cu2A 1_555 1_555
C7 C8 1_555 1_555
Mo1A O13A 1_555 1_555
Mo2A O7A 1_555 1_555
Mo2A O13A 1_555 1_555
Mo3A Mo4A 1_555 1_555
Mo3A O7A 1_555 1_555
Mo3A O8A 1_555 1_555
Mo3A O10A 1_555 1_555
Mo3A O13A 1_555 1_555
Mo4A O10A 1_555 1_555
Mo4A O13A 1_555 1_555

#END
