
#######################################################################
#
#                 Cambridge Crystallographic Data Centre
#                                CCDC 
#
#######################################################################
#
# If this CIF has been generated from an entry in the Cambridge 
# Structural Database, then it will include bibliographic, chemical, 
# crystal, experimental, refinement or atomic coordinate data resulting 
# from the CCDC's data processing and validation procedures.
#
#######################################################################

data_JODWOP
_symmetry_cell_setting           rhombohedral
_symmetry_space_group_name_H-M   'R -3'
_symmetry_Int_Tables_number      148
_space_group_name_Hall           '-R 3'
loop_
_symmetry_equiv_pos_site_id
_symmetry_equiv_pos_as_xyz
1 x,y,z
2 -y,x-y,z
3 -x+y,-x,z
4 2/3+x,1/3+y,1/3+z
5 2/3-y,1/3+x-y,1/3+z
6 2/3-x+y,1/3-x,1/3+z
7 1/3+x,2/3+y,2/3+z
8 1/3-y,2/3+x-y,2/3+z
9 1/3-x+y,2/3-x,2/3+z
10 -x,-y,-z
11 y,-x+y,-z
12 x-y,x,-z
13 1/3-x,2/3-y,2/3-z
14 1/3+y,2/3-x+y,2/3-z
15 1/3+x-y,2/3+x,2/3-z
16 2/3-x,1/3-y,1/3-z
17 2/3+y,1/3-x+y,1/3-z
18 2/3+x-y,1/3+x,1/3-z
_cell_length_a                   16.4881(5)
_cell_length_b                   16.4881(5)
_cell_length_c                   16.7919(10)
_cell_angle_alpha                90
_cell_angle_beta                 90
_cell_angle_gamma                120
_cell_volume                     3953.41
loop_
_atom_site_label
_atom_site_type_symbol
_atom_site_fract_x
_atom_site_fract_y
_atom_site_fract_z
Cd1 Cd 0.0000 1.0000 1.0000
Cd2 Cd 0.0000 1.0000 0.79307(3)
O1 O 0.1246(2) 1.0680(2) 0.9164(2)
O2 O 0.1227(2) 1.1407(3) 0.8068(2)
C1 C 0.1562(3) 1.1405(3) 0.8738(3)
C2 C 0.2389(4) 1.2285(4) 0.9016(3)
C3 C 0.2624(5) 1.3123(4) 0.8657(5)
H1 H 0.2262 1.3129 0.8227
C4 C 0.3382(6) 1.3965(5) 0.8914(6)
H2 H 0.3514 1.4531 0.8668
C5 C 0.3920(7) 1.3969(6) 0.9508(6)
C6 C 0.4701(9) 1.4908(9) 0.9743(8)
H3 H 0.4742 1.5422 0.9464
C7 C 0.3717(8) 1.3100(8) 0.9864(6)
H4 H 0.4104 1.3097 1.0274
C8 C 0.2962(6) 1.2265(5) 0.9616(4)
H5 H 0.2838 1.1694 0.9846
O3 O 0.0000 1.0000 0.6616(9)
N1 N 0.129(4) 1.030(5) 0.575(2)
C9 C 0.060(3) 1.003(9) 0.627(3)
C10 C 0.162(7) 0.966(7) 0.551(6)
C11 C 0.150(8) 1.106(7) 0.520(8)
Cd1_2 Cd 1.0000 2.0000 1.0000
Cd1_3 Cd -1.0000 1.0000 1.0000
Cd1_4 Cd 0.0000 0.0000 1.0000
Cd2I Cd 1.0000 2.0000 1.20693(3)
Cd2I_2 Cd 0.0000 1.0000 0.20693(3)
Cd2I_3 Cd -1.0000 1.0000 1.20693(3)
Cd2I_4 Cd 0.0000 0.0000 1.20693(3)
O1I O 0.8754(2) 1.9320(2) 1.0836(2)
O1A O -0.0680(2) 1.0566(3) 0.9164(2)
O1J O -0.9320(2) 0.9434(3) 1.0836(2)
O1B O -0.0566(3) 0.8754(2) 0.9164(2)
O1K O 0.0566(3) 0.1246(2) 1.0836(2)
O1I_2 O -0.1246(2) 0.9320(2) 1.0836(2)
O1J_2 O 0.0680(2) 0.9434(3) 1.0836(2)
O1K_2 O 0.0566(3) 1.1246(2) 1.0836(2)
O2I O 0.8773(2) 1.8593(3) 1.1932(2)
O2A O -0.1407(3) 0.9820(4) 0.8068(2)
O2J O -0.8593(3) 1.0180(4) 1.1932(2)
O2B O 0.0180(4) 0.8773(2) 0.8068(2)
O2K O -0.0180(4) 0.1227(2) 1.1932(2)
O2J_2 O 1.1407(3) 2.0180(4) 1.1932(2)
O2K_2 O 0.9820(4) 2.1227(2) 1.1932(2)
C1I C 0.8438(3) 1.8595(3) 1.1262(3)
C1A C -0.1405(3) 1.0157(4) 0.8738(3)
C1J C -0.8595(3) 0.9843(4) 1.1262(3)
C1B C -0.0157(4) 0.8438(3) 0.8738(3)
C1K C 0.0157(4) 0.1562(3) 1.1262(3)
C2I C 0.7611(4) 1.7715(4) 1.0984(3)
C2A C -0.2285(4) 1.0104(6) 0.9016(3)
C2J C -0.7715(4) 0.9896(6) 1.0984(3)
C2B C -0.0104(6) 0.7611(4) 0.9016(3)
C2K C 0.0104(6) 0.2389(4) 1.0984(3)
C3I C 0.7376(5) 1.6877(4) 1.1343(5)
C3A C -0.3123(4) 0.9501(6) 0.8657(5)
C3J C -0.6877(4) 1.0499(6) 1.1343(5)
C3B C 0.0499(6) 0.7376(5) 0.8657(5)
C3K C -0.0499(6) 0.2624(5) 1.1343(5)
H1I H 0.7738 1.6871 1.1773
H1A H -0.3129 0.9133 0.8227
H1J H -0.6871 1.0867 1.1773
H1B H 0.0867 0.7738 0.8227
H1K H -0.0867 0.2262 1.1773
C4I C 0.6618(6) 1.6035(5) 1.1086(6)
C4A C -0.3965(5) 0.9417(8) 0.8914(6)
C4J C -0.6035(5) 1.0583(8) 1.1086(6)
C4B C 0.0583(8) 0.6618(6) 0.8914(6)
C4K C -0.0583(8) 0.3382(6) 1.1086(6)
H2I H 0.6486 1.5469 1.1332
H2A H -0.4531 0.8983 0.8668
H2J H -0.5469 1.1017 1.1332
H2B H 0.1017 0.6486 0.8668
H2K H -0.1017 0.3514 1.1332
C5I C 0.6080(7) 1.6031(6) 1.0492(6)
C5A C -0.3969(6) 0.9951(9) 0.9508(6)
C5J C -0.6031(6) 1.0049(9) 1.0492(6)
C5B C 0.0049(9) 0.6080(7) 0.9508(6)
C5K C -0.0049(9) 0.3920(7) 1.0492(6)
C6I C 0.5299(9) 1.5092(9) 1.0257(8)
C6A C -0.4908(9) 0.9793(13) 0.9743(8)
C6J C -0.5092(9) 1.0207(13) 1.0257(8)
C6B C 0.0207(13) 0.5299(9) 0.9743(8)
C6K C -0.0207(13) 0.4701(9) 1.0257(8)
H3I H 0.5258 1.4578 1.0536
H3A H -0.5422 0.9320 0.9464
H3J H -0.4578 1.0680 1.0536
H3B H 0.0680 0.5258 0.9464
H3K H -0.0680 0.4742 1.0536
C7I C 0.6283(8) 1.6900(8) 1.0136(6)
C7A C -0.3100(8) 1.0617(11) 0.9864(6)
C7J C -0.6900(8) 0.9383(11) 1.0136(6)
C7B C -0.0617(11) 0.6283(8) 0.9864(6)
C7K C 0.0617(11) 0.3717(8) 1.0136(6)
H4I H 0.5896 1.6903 0.9726
H4A H -0.3097 1.1007 1.0274
H4J H -0.6903 0.8993 0.9726
H4B H -0.1007 0.5896 1.0274
H4K H 0.1007 0.4104 0.9726
C8I C 0.7038(6) 1.7735(5) 1.0384(4)
C8A C -0.2265(5) 1.0697(8) 0.9616(4)
C8J C -0.7735(5) 0.9303(8) 1.0384(4)
C8B C -0.0697(8) 0.7038(6) 0.9616(4)
C8K C 0.0697(8) 0.2962(6) 1.0384(4)
H5I H 0.7162 1.8306 1.0154
H5A H -0.1694 1.1144 0.9846
H5J H -0.8306 0.8856 1.0154
H5B H -0.1144 0.7162 0.9846
H5K H 0.1144 0.2838 1.0154
O3I O 0.0000 1.0000 0.3384(9)
O3I_2 O 1.0000 2.0000 1.3384(9)
N1J N 0.030(5) 0.901(6) 0.425(2)
N1K N 0.099(6) 1.129(4) 0.425(2)
N1A N -0.030(5) 1.099(6) 0.575(2)
N1B N -0.099(6) 0.871(4) 0.575(2)
N1I N -0.129(4) 0.970(5) 0.425(2)
C9J C 0.003(9) 0.943(9) 0.373(3)
C9K C 0.057(9) 1.060(3) 0.373(3)
C9A C -0.003(9) 1.057(9) 0.627(3)
C9B C -0.057(9) 0.940(3) 0.627(3)
C9I C -0.060(3) 0.997(9) 0.373(3)
C10K C 0.196(10) 1.162(7) 0.449(6)
C10A C 0.034(7) 1.196(10) 0.551(6)
C10B C -0.196(10) 0.838(7) 0.551(6)
C10I C -0.162(7) 1.034(7) 0.449(6)
C10J C -0.034(7) 0.804(10) 0.449(6)
C11J C 0.106(7) 0.956(11) 0.480(8)
C11K C 0.044(11) 1.150(8) 0.480(8)
C11I C -0.150(8) 0.894(7) 0.480(8)
C11A C -0.106(7) 1.044(11) 0.520(8)
C11B C -0.044(11) 0.850(8) 0.520(8)
loop_
_geom_bond_atom_site_label_1
_geom_bond_atom_site_label_2
_geom_bond_site_symmetry_1
_geom_bond_site_symmetry_2
Cd1 O1 1_555 1_555
Cd2 O2 1_555 1_555
O1 C1 1_555 1_555
O2 C1 1_555 1_555
C1 C2 1_555 1_555
C2 C3 1_555 1_555
C3 H1 1_555 1_555
C4 C3 1_555 1_555
H2 C4 1_555 1_555
C5 C4 1_555 1_555
C6 C5 1_555 1_555
H3 C6 1_555 1_555
C7 C5 1_555 1_555
H4 C7 1_555 1_555
C8 C2 1_555 1_555
H5 C8 1_555 1_555
O3 Cd2 1_555 1_555
N1 C9 1_555 1_555
C9 O3 1_555 1_555
C10 N1 1_555 1_555
C11 N1 1_555 1_555
Cd1_2 O1I 1_555 1_555
Cd1_3 O1J 1_555 1_555
Cd1_4 O1K 1_555 1_555
Cd2I O2I 1_555 1_555
Cd2I_2 O3I 1_555 1_555
Cd2I_3 O2J 1_555 1_555
Cd2I_4 O2K 1_555 1_555
O1I C1I 1_555 1_555
O1A Cd1 1_555 1_555
O1J C1J 1_555 1_555
O1B Cd1 1_555 1_555
O1K C1K 1_555 1_555
O1I_2 Cd1 1_555 1_555
O1J_2 Cd1 1_555 1_555
O1K_2 Cd1 1_555 1_555
O2I C1I 1_555 1_555
O2A Cd2 1_555 1_555
O2J C1J 1_555 1_555
O2B Cd2 1_555 1_555
O2K C1K 1_555 1_555
O2J_2 Cd2I 1_555 1_555
O2K_2 Cd2I 1_555 1_555
C1I C2I 1_555 1_555
C1A O1A 1_555 1_555
C1J C2J 1_555 1_555
C1B O1B 1_555 1_555
C1K C2K 1_555 1_555
C2I C3I 1_555 1_555
C2A C1A 1_555 1_555
C2J C3J 1_555 1_555
C2B C1B 1_555 1_555
C2K C3K 1_555 1_555
C3I H1I 1_555 1_555
C3A C2A 1_555 1_555
C3J H1J 1_555 1_555
C3B C2B 1_555 1_555
C3K H1K 1_555 1_555
H1A C3A 1_555 1_555
H1B C3B 1_555 1_555
C4I C3I 1_555 1_555
C4A C3A 1_555 1_555
C4J C3J 1_555 1_555
C4B C3B 1_555 1_555
C4K C3K 1_555 1_555
H2I C4I 1_555 1_555
H2A C4A 1_555 1_555
H2J C4J 1_555 1_555
H2B C4B 1_555 1_555
H2K C4K 1_555 1_555
C5I C4I 1_555 1_555
C5A C4A 1_555 1_555
C5J C4J 1_555 1_555
C5B C4B 1_555 1_555
C5K C4K 1_555 1_555
C6I C6 1_555 1_555
C6A C5A 1_555 1_555
C6J C5J 1_555 1_555
C6B C5B 1_555 1_555
C6K C5K 1_555 1_555
H3I C6I 1_555 1_555
H3A C6A 1_555 1_555
H3J C6J 1_555 1_555
H3B C6B 1_555 1_555
H3K C6K 1_555 1_555
C7I C5I 1_555 1_555
C7A C5A 1_555 1_555
C7J C5J 1_555 1_555
C7B C5B 1_555 1_555
C7K C5K 1_555 1_555
H4I C7I 1_555 1_555
H4A C7A 1_555 1_555
H4J C7J 1_555 1_555
H4B C7B 1_555 1_555
H4K C7K 1_555 1_555
C8I C2I 1_555 1_555
C8A C2A 1_555 1_555
C8J C2J 1_555 1_555
C8B C2B 1_555 1_555
C8K C2K 1_555 1_555
H5I C8I 1_555 1_555
H5A C8A 1_555 1_555
H5J C8J 1_555 1_555
H5B C8B 1_555 1_555
H5K C8K 1_555 1_555
O3I C9J 1_555 1_555
O3I_2 Cd2I 1_555 1_555
N1J C9J 1_555 1_555
N1K C9K 1_555 1_555
N1A C9A 1_555 1_555
N1B C9B 1_555 1_555
N1I C9I 1_555 1_555
C9J C9K 1_555 1_555
C9K O3I 1_555 1_555
C9A O3 1_555 1_555
C9B O3 1_555 1_555
C9I O3I 1_555 1_555
C10K C11 1_555 1_555
C10A N1A 1_555 1_555
C10B N1B 1_555 1_555
C10I N1I 1_555 1_555
C10J N1J 1_555 1_555
C11J C10 1_555 1_555
C11K N1K 1_555 1_555
C11I N1I 1_555 1_555
C11A N1A 1_555 1_555
C11B N1B 1_555 1_555
C7 C8 1_555 1_555
C9 C9A 1_555 1_555
C9 C9B 1_555 1_555
O2A C1A 1_555 1_555
O2B C1B 1_555 1_555
C5I C6I 1_555 1_555
C6A C6J 1_555 1_555
C6B C6K 1_555 1_555
C7I C8I 1_555 1_555
C7A C8A 1_555 1_555
C7J C8J 1_555 1_555
C7B C8B 1_555 1_555
C7K C8K 1_555 1_555
N1J C11J 1_555 1_555
N1K C10K 1_555 1_555
C9J C9I 1_555 1_555
C9K C9I 1_555 1_555
C9A C9B 1_555 1_555
C10A C11K 1_555 1_555
C10B C11I 1_555 1_555
C10I C11A 1_555 1_555
C10J C11B 1_555 1_555

#END
