
#######################################################################
#
#                 Cambridge Crystallographic Data Centre
#                                CCDC 
#
#######################################################################
#
# If this CIF has been generated from an entry in the Cambridge 
# Structural Database, then it will include bibliographic, chemical, 
# crystal, experimental, refinement or atomic coordinate data resulting 
# from the CCDC's data processing and validation procedures.
#
#######################################################################

data_JODYIL
_symmetry_cell_setting           monoclinic
_symmetry_space_group_name_H-M   'P 21/c'
_symmetry_Int_Tables_number      14
_space_group_name_Hall           '-P 2ybc'
loop_
_symmetry_equiv_pos_site_id
_symmetry_equiv_pos_as_xyz
1 x,y,z
2 -x,1/2+y,1/2-z
3 -x,-y,-z
4 x,1/2-y,1/2+z
_cell_length_a                   21.447(6)
_cell_length_b                   12.400(4)
_cell_length_c                   10.359(3)
_cell_angle_alpha                90
_cell_angle_beta                 92.397(4)
_cell_angle_gamma                90
_cell_volume                     2752.49
loop_
_atom_site_label
_atom_site_type_symbol
_atom_site_fract_x
_atom_site_fract_y
_atom_site_fract_z
Co1 Co 0.24906(2) 0.49703(5) 0.23149(5)
O1 O 0.23616(14) 0.5237(2) 0.0210(3)
O3 O 0.30420(14) 0.4078(3) 0.1032(3)
O5 O 0.27368(14) 0.4500(3) -0.5854(3)
O7 O 0.21949(16) 0.5652(3) -0.4688(3)
O8 O 0.43545(15) 0.2281(3) -0.3848(3)
H7 H 0.464(2) 0.184(4) -0.388(5)
O9 O 0.42581(19) 0.1695(3) -0.1832(3)
O10 O 0.18067(15) 0.6047(3) 0.2857(3)
H8 H 0.185(2) 0.607(4) 0.3672(18)
H9 H 0.176(2) 0.666(2) 0.251(4)
N1 N 0.17864(17) 0.3720(3) 0.2212(3)
N2 N 0.01245(17) 0.0878(3) 0.0903(4)
N3 N 0.31976(16) 0.6251(3) 0.2453(3)
N4 N 0.47766(16) 0.9282(3) 0.3952(3)
C1 C 0.1264(2) 0.3803(4) 0.1474(5)
H10 H 0.1206 0.4423 0.0978
C2 C 0.0804(2) 0.3024(4) 0.1403(5)
H11 H 0.0455 0.3121 0.0854
C3 C 0.0862(2) 0.2102(4) 0.2146(5)
C4 C 0.1399(2) 0.2016(4) 0.2916(5)
H12 H 0.1463 0.1411 0.3435
C5 C 0.1843(2) 0.2823(4) 0.2923(5)
H13 H 0.2202 0.2738 0.3450
C6 C 0.0370(2) 0.1243(4) 0.2174(5)
H14 H 0.0543 0.0625 0.2638
H15 H 0.0026 0.1514 0.2657
C7 C 0.0622(2) 0.0390(4) 0.0152(5)
H16 H 0.0822 -0.0186 0.0649
H17 H 0.0935 0.0930 -0.0021
C8 C -0.0352(2) 0.0050(4) 0.1099(5)
H18 H -0.0685 0.0358 0.1587
H19 H -0.0167 -0.0536 0.1604
C9 C 0.3674(2) 0.6278(4) 0.3327(4)
H20 H 0.3743 0.5676 0.3849
C10 C 0.4070(2) 0.7151(4) 0.3498(5)
H21 H 0.4398 0.7123 0.4114
C11 C 0.39783(19) 0.8067(4) 0.2752(4)
C12 C 0.3487(2) 0.8025(4) 0.1823(4)
H22 H 0.3413 0.8609 0.1275
C13 C 0.3114(2) 0.7124(4) 0.1714(4)
H23 H 0.2787 0.7125 0.1095
C14 C 0.4362(2) 0.9094(4) 0.2802(4)
H24 H 0.4616 0.9104 0.2049
H25 H 0.4076 0.9699 0.2720
C15 C 0.5141(2) 1.0274(4) 0.3719(4)
H26 H 0.4856 1.0871 0.3552
H27 H 0.5384 1.0174 0.2958
C16 C 0.4425(2) 0.9452(4) 0.5139(4)
H28 H 0.4193 0.8803 0.5328
H29 H 0.4128 1.0034 0.4995
C17 C 0.29532(19) 0.4197(4) -0.1264(4)
C18 C 0.26761(19) 0.4671(3) -0.2359(4)
H30 H 0.2369 0.5192 -0.2273
C19 C 0.28557(19) 0.4371(3) -0.3589(4)
C20 C 0.33235(19) 0.3608(3) -0.3705(4)
H31 H 0.3455 0.3427 -0.4520
C21 C 0.3598(2) 0.3112(3) -0.2621(4)
C22 C 0.34068(19) 0.3411(4) -0.1402(4)
H32 H 0.3586 0.3079 -0.0671
C23 C 0.27729(19) 0.4524(4) 0.0061(4)
C24 C 0.25633(19) 0.4884(4) -0.4795(4)
C25 C 0.4100(2) 0.2285(4) -0.2707(4)
Co1_2 Co 0.24906(2) 0.49703(5) 1.23149(5)
Co1_3 Co 0.24906(2) 0.49703(5) -0.76851(5)
Co1B Co -0.24906(2) -0.49703(5) -0.23149(5)
Co1B_2 Co 0.75094(2) 1.50297(5) 0.76851(5)
O1_2 O 0.23616(14) 0.5237(2) 1.0210(3)
O3_2 O 0.30420(14) 0.4078(3) 1.1032(3)
O5_2 O 0.27368(14) 0.4500(3) 0.4146(3)
O5_3 O 0.27368(14) 0.4500(3) 1.4146(3)
O7_2 O 0.21949(16) 0.5652(3) 0.5312(3)
O8_2 O 0.43545(15) 0.2281(3) 0.6152(3)
H7_2 H 0.464(2) 0.184(4) 0.612(5)
O9_2 O 0.42581(19) 0.1695(3) 0.8168(3)
O10_2 O 0.18067(15) 0.6047(3) 1.2857(3)
H8_2 H 0.185(2) 0.607(4) 1.3672(18)
H9_2 H 0.176(2) 0.666(2) 1.251(4)
N1B N -0.17864(17) -0.3720(3) -0.2212(3)
N1_2 N 0.17864(17) 0.3720(3) 1.2212(3)
N2B N -0.01245(17) -0.0878(3) -0.0903(4)
N3B N 0.68024(16) 1.3749(3) 0.7547(3)
N3_2 N 0.31976(16) 0.6251(3) 1.2453(3)
N4B N 0.52234(16) 1.0718(3) 0.6048(3)
C1B C -0.1264(2) -0.3803(4) -0.1474(5)
H10B H -0.1206 -0.4423 -0.0978
C2B C -0.0804(2) -0.3024(4) -0.1403(5)
H11B H -0.0455 -0.3121 -0.0854
C3B C -0.0862(2) -0.2102(4) -0.2146(5)
C4B C -0.1399(2) -0.2016(4) -0.2916(5)
H12B H -0.1463 -0.1411 -0.3435
C5B C -0.1843(2) -0.2823(4) -0.2923(5)
H13B H -0.2202 -0.2738 -0.3450
C6B C -0.0370(2) -0.1243(4) -0.2174(5)
H14B H -0.0543 -0.0625 -0.2638
H15B H -0.0026 -0.1514 -0.2657
C7B C -0.0622(2) -0.0390(4) -0.0152(5)
H16B H -0.0822 0.0186 -0.0649
H17B H -0.0935 -0.0930 0.0021
C8B C 0.0352(2) -0.0050(4) -0.1099(5)
H18B H 0.0685 -0.0358 -0.1587
H19B H 0.0167 0.0536 -0.1604
C9B C 0.6326(2) 1.3722(4) 0.6673(4)
H20B H 0.6257 1.4324 0.6151
C10B C 0.5930(2) 1.2849(4) 0.6502(5)
H21B H 0.5602 1.2877 0.5886
C11B C 0.60217(19) 1.1933(4) 0.7248(4)
C12B C 0.6513(2) 1.1975(4) 0.8177(4)
H22B H 0.6587 1.1391 0.8725
C13B C 0.6886(2) 1.2876(4) 0.8286(4)
H23B H 0.7213 1.2875 0.8905
C14B C 0.5638(2) 1.0906(4) 0.7198(4)
H24B H 0.5384 1.0896 0.7951
H25B H 0.5924 1.0301 0.7280
C15B C 0.4859(2) 0.9726(4) 0.6281(4)
H26B H 0.5144 0.9129 0.6448
H27B H 0.4616 0.9826 0.7042
C16B C 0.5575(2) 1.0548(4) 0.4861(4)
H28B H 0.5807 1.1197 0.4672
H29B H 0.5872 0.9966 0.5005
C17_2 C 0.29532(19) 0.4197(4) 0.8736(4)
C18_2 C 0.26761(19) 0.4671(3) 0.7641(4)
H30_2 H 0.2369 0.5192 0.7727
C19_2 C 0.28557(19) 0.4371(3) 0.6411(4)
C20_2 C 0.33235(19) 0.3608(3) 0.6295(4)
H31_2 H 0.3455 0.3427 0.5480
C21_2 C 0.3598(2) 0.3112(3) 0.7379(4)
C22_2 C 0.34068(19) 0.3411(4) 0.8598(4)
H32_2 H 0.3586 0.3079 0.9329
C23_2 C 0.27729(19) 0.4524(4) 1.0061(4)
C24_2 C 0.25633(19) 0.4884(4) 0.5205(4)
C25_2 C 0.4100(2) 0.2285(4) 0.7293(4)
O2 O 0.15564(17) 0.8045(3) 0.1910(4)
H1 H 0.143(2) 0.841(4) 0.256(3)
H2 H 0.176(2) 0.848(3) 0.146(4)
O4 O -0.05436(19) 0.2634(3) -0.0344(4)
H3 H -0.083(2) 0.232(4) -0.082(5)
H4 H -0.037(2) 0.213(3) 0.011(5)
O6 O 0.12201(19) 0.5867(4) -0.0984(4)
H5 H 0.1548(17) 0.573(4) -0.054(5)
H6 H 0.103(2) 0.640(3) -0.066(5)
loop_
_geom_bond_atom_site_label_1
_geom_bond_atom_site_label_2
_geom_bond_site_symmetry_1
_geom_bond_site_symmetry_2
Co1 O1 1_555 1_555
O1 C23 1_555 1_555
O2 H1 1_555 1_555
H2 O2 1_555 1_555
O3 Co1 1_555 1_555
O4 H3 1_555 1_555
H4 O4 1_555 1_555
O5 C24 1_555 1_555
O6 H5 1_555 1_555
H6 O6 1_555 1_555
O7 C24 1_555 1_555
O8 H7 1_555 1_555
O9 C25 1_555 1_555
O10 Co1 1_555 1_555
H8 O10 1_555 1_555
H9 O10 1_555 1_555
N1 Co1 1_555 1_555
N2 C6 1_555 1_555
N3 Co1 1_555 1_555
N4 C14 1_555 1_555
C1 N1 1_555 1_555
H10 C1 1_555 1_555
C2 C1 1_555 1_555
H11 C2 1_555 1_555
C3 C2 1_555 1_555
C4 C3 1_555 1_555
H12 C4 1_555 1_555
C5 N1 1_555 1_555
H13 C5 1_555 1_555
C6 C3 1_555 1_555
H14 C6 1_555 1_555
H15 C6 1_555 1_555
C7 N2 1_555 1_555
H16 C7 1_555 1_555
H17 C7 1_555 1_555
C8 N2 1_555 1_555
H18 C8 1_555 1_555
H19 C8 1_555 1_555
C9 N3 1_555 1_555
H20 C9 1_555 1_555
C10 C9 1_555 1_555
H21 C10 1_555 1_555
C11 C10 1_555 1_555
C12 C11 1_555 1_555
H22 C12 1_555 1_555
C13 N3 1_555 1_555
H23 C13 1_555 1_555
C14 C11 1_555 1_555
H24 C14 1_555 1_555
H25 C14 1_555 1_555
C15 N4 1_555 1_555
H26 C15 1_555 1_555
H27 C15 1_555 1_555
C16 N4 1_555 1_555
H28 C16 1_555 1_555
H29 C16 1_555 1_555
C17 C18 1_555 1_555
C18 H30 1_555 1_555
C19 C18 1_555 1_555
C20 C19 1_555 1_555
H31 C20 1_555 1_555
C21 C20 1_555 1_555
C22 C17 1_555 1_555
H32 C22 1_555 1_555
C23 O3 1_555 1_555
C24 C19 1_555 1_555
C25 O8 1_555 1_555
Co1_2 O1_2 1_555 1_555
Co1_3 O5 1_555 1_555
Co1B N1B 1_555 1_555
Co1B_2 N3B 1_555 1_555
O1_2 C23_2 1_555 1_555
O3_2 Co1_2 1_555 1_555
O5_2 Co1 1_555 1_555
O5_3 Co1_2 1_555 1_555
O7_2 C24_2 1_555 1_555
O8_2 H7_2 1_555 1_555
O9_2 C25_2 1_555 1_555
O10_2 Co1_2 1_555 1_555
H8_2 O10_2 1_555 1_555
H9_2 O10_2 1_555 1_555
N1B C1B 1_555 1_555
N1_2 Co1_2 1_555 1_555
N2B C6B 1_555 1_555
N3B C9B 1_555 1_555
N3_2 Co1_2 1_555 1_555
N4B C14B 1_555 1_555
C1B H10B 1_555 1_555
C2B C1B 1_555 1_555
H11B C2B 1_555 1_555
C3B C2B 1_555 1_555
C4B C3B 1_555 1_555
H12B C4B 1_555 1_555
C5B N1B 1_555 1_555
H13B C5B 1_555 1_555
C6B C3B 1_555 1_555
H14B C6B 1_555 1_555
H15B C6B 1_555 1_555
C7B C8 1_555 1_555
H16B C7B 1_555 1_555
H17B C7B 1_555 1_555
C8B C7 1_555 1_555
H18B C8B 1_555 1_555
H19B C8B 1_555 1_555
C9B H20B 1_555 1_555
C10B C9B 1_555 1_555
H21B C10B 1_555 1_555
C11B C10B 1_555 1_555
C12B C11B 1_555 1_555
H22B C12B 1_555 1_555
C13B N3B 1_555 1_555
H23B C13B 1_555 1_555
C14B C11B 1_555 1_555
H24B C14B 1_555 1_555
H25B C14B 1_555 1_555
C15B C16 1_555 1_555
H26B C15B 1_555 1_555
H27B C15B 1_555 1_555
C16B C15 1_555 1_555
H28B C16B 1_555 1_555
H29B C16B 1_555 1_555
C17_2 C18_2 1_555 1_555
C18_2 H30_2 1_555 1_555
C19_2 C18_2 1_555 1_555
C20_2 C19_2 1_555 1_555
H31_2 C20_2 1_555 1_555
C21_2 C20_2 1_555 1_555
C22_2 C17_2 1_555 1_555
H32_2 C22_2 1_555 1_555
C23_2 O3_2 1_555 1_555
C24_2 O5_2 1_555 1_555
C25_2 O8_2 1_555 1_555
C4 C5 1_555 1_555
C12 C13 1_555 1_555
C17 C23 1_555 1_555
C21 C22 1_555 1_555
C21 C25 1_555 1_555
N2B C7B 1_555 1_555
N2B C8B 1_555 1_555
N4B C15B 1_555 1_555
N4B C16B 1_555 1_555
C4B C5B 1_555 1_555
C12B C13B 1_555 1_555
C17_2 C23_2 1_555 1_555
C19_2 C24_2 1_555 1_555
C21_2 C22_2 1_555 1_555
C21_2 C25_2 1_555 1_555

#END
