
#######################################################################
#
#                 Cambridge Crystallographic Data Centre
#                                CCDC 
#
#######################################################################
#
# If this CIF has been generated from an entry in the Cambridge 
# Structural Database, then it will include bibliographic, chemical, 
# crystal, experimental, refinement or atomic coordinate data resulting 
# from the CCDC's data processing and validation procedures.
#
#######################################################################

data_JOFBIQ01
_symmetry_cell_setting           triclinic
_symmetry_space_group_name_H-M   'P -1'
_symmetry_Int_Tables_number      2
_space_group_name_Hall           '-P 1'
loop_
_symmetry_equiv_pos_site_id
_symmetry_equiv_pos_as_xyz
1 x,y,z
2 -x,-y,-z
_cell_length_a                   9.663(7)
_cell_length_b                   10.617(7)
_cell_length_c                   15.114(10)
_cell_angle_alpha                105.678(10)
_cell_angle_beta                 104.772(9)
_cell_angle_gamma                94.021(10)
_cell_volume                     1427.36
loop_
_atom_site_label
_atom_site_type_symbol
_atom_site_fract_x
_atom_site_fract_y
_atom_site_fract_z
Zn1 Zn 0.23133(12) 0.15792(11) 1.01601(8)
Zn2 Zn 0.33058(13) 0.28963(12) 0.48598(8)
V1 V 0.33499(18) 0.34756(16) 0.70739(11)
V2 V 0.14435(18) 0.16376(16) 0.79424(11)
V3 V -0.0824(2) -0.03659(18) 0.58040(12)
V4 V 0.4253(2) 0.45343(17) 1.08211(12)
O1 O 0.4021(7) 0.2900(6) 1.0628(5)
O2 O 0.2715(10) 0.5014(9) 1.0755(8)
O3 O 0.5000 0.5000 1.0000
O4 O 0.2058(7) 0.0957(7) 0.8821(5)
O5 O 0.0681(9) 0.2846(8) 0.8327(6)
O6 O 0.0153(8) 0.0389(9) 0.6999(5)
O7 O -0.2340(11) 0.0231(12) 0.5650(8)
O8 O 0.0000 0.0000 0.5000
O9 O 0.2882(7) 0.2162(7) 0.7510(5)
O10 O 0.5315(9) 0.5273(8) 1.2009(5)
O11 O 0.1966(8) 0.4122(8) 0.6721(6)
O12 O 0.4054(7) 0.2911(7) 0.6152(5)
O13 O -0.1342(10) -0.1920(9) 0.5597(7)
N1 N 0.2897(9) 0.4491(8) 0.4446(6)
N2 N 0.4083(9) 0.3930(8) 0.3219(6)
H1 H 0.4228 0.4162 0.2744
N3 N 0.4671(9) 0.2370(8) 0.4082(6)
N4 N 0.2664(8) 0.0130(7) 1.0756(5)
N5 N 0.1310(8) 0.0924(8) 1.1851(6)
H2 H 0.1157 0.0849 1.2372
N6 N 0.0751(8) 0.2176(7) 1.0755(5)
C1 C 0.2227(10) 0.0069(10) 1.1532(7)
C2 C 0.4792(11) 0.2882(10) 0.3375(7)
C3 C 0.0593(10) 0.1856(9) 1.1533(7)
C4 C 0.3191(11) 0.4689(10) 0.3658(7)
C5 C 0.2651(11) -0.0859(10) 1.1992(8)
H3 H 0.2306 -0.0918 1.2502
C6 C -0.0018(11) 0.3105(10) 1.0487(8)
H4 H 0.0078 0.3323 0.9948
C7 C 0.3541(11) -0.0731(10) 1.0482(8)
H5 H 0.3844 -0.0696 0.9951
C8 C 0.2581(11) 0.5605(10) 0.3247(8)
H6 H 0.2764 0.5690 0.2689
C9 C 0.5637(11) 0.2397(11) 0.2780(8)
H7 H 0.5718 0.2772 0.2302
C10 C 0.1999(13) 0.5253(13) 0.4838(8)
H8 H 0.1770 0.5115 0.5370
C11 C -0.0899(12) 0.3721(11) 1.0949(9)
H9 H -0.1413 0.4339 1.0731
C12 C -0.0277(11) 0.2476(10) 1.2065(8)
H10 H -0.0347 0.2257 1.2609
C13 C -0.1032(12) 0.3409(11) 1.1783(9)
H11 H -0.1621 0.3833 1.2132
C14 C 0.3556(12) -0.1677(11) 1.1711(9)
H12 H 0.3873 -0.2266 1.2049
C15 C 0.5430(13) 0.1375(10) 0.4191(8)
H13 H 0.5388 0.1032 0.4690
C16 C 0.1701(13) 0.6398(12) 0.3658(10)
H14 H 0.1306 0.7034 0.3394
C17 C 0.1420(12) 0.6222(13) 0.4475(9)
H15 H 0.0846 0.6752 0.4775
C18 C 0.4026(13) -0.1655(11) 1.0920(8)
H16 H 0.4631 -0.2230 1.0701
C19 C 0.6343(13) 0.1371(11) 0.2903(9)
H17 H 0.6893 0.1026 0.2497
C20 C 0.6256(13) 0.0841(11) 0.3616(9)
H18 H 0.6742 0.0140 0.3708
Zn1A Zn 0.76867(12) 0.84208(11) 0.98399(8)
Zn2A Zn 0.66942(13) 0.71037(12) 1.51402(8)
Zn2A_2 Zn -0.33058(13) -0.28963(12) 0.51402(8)
V1A V 0.66501(18) 0.65244(16) 1.29261(11)
V2A V 0.85565(18) 0.83624(16) 1.20576(11)
V3A V 0.0824(2) 0.03659(18) 0.41960(12)
V3A_2 V 1.0824(2) 1.03659(18) 1.41960(12)
V4A V 0.5747(2) 0.54657(17) 0.91789(12)
O1A O 0.5979(7) 0.7100(6) 0.9372(5)
O2A O 0.7285(10) 0.4986(9) 0.9245(8)
O4A O 0.7942(7) 0.9043(7) 1.1179(5)
O5A O 0.9319(9) 0.7154(8) 1.1673(6)
O6A O 0.9847(8) 0.9611(9) 1.3001(5)
O6A_2 O -0.0153(8) -0.0389(9) 0.3001(5)
O7A O 0.2340(11) -0.0231(12) 0.4350(8)
O9A O 0.7118(7) 0.7838(7) 1.2490(5)
O10A O 0.4685(9) 0.4727(8) 0.7991(5)
O11A O 0.8034(8) 0.5878(8) 1.3279(6)
O12A O 0.5946(7) 0.7089(7) 1.3848(5)
O13A O 0.1342(10) 0.1920(9) 0.4403(7)
O13_2 O 0.8658(10) 0.8080(9) 1.5597(7)
N1A N 0.7103(9) 0.5509(8) 1.5554(6)
N2A N 0.5917(9) 0.6070(8) 1.6781(6)
H1A H 0.5772 0.5838 1.7256
N3A N 0.5329(9) 0.7630(8) 1.5918(6)
N4A N 0.7336(8) 0.9870(7) 0.9244(5)
N5A N 0.8690(8) 0.9076(8) 0.8149(6)
H2A H 0.8843 0.9151 0.7628
N6A N 0.9249(8) 0.7824(7) 0.9245(5)
C1A C 0.7773(10) 0.9931(10) 0.8468(7)
C2A C 0.5208(11) 0.7118(10) 1.6625(7)
C3A C 0.9407(10) 0.8144(9) 0.8467(7)
C4A C 0.6809(11) 0.5311(10) 1.6342(7)
C5A C 0.7349(11) 1.0859(10) 0.8008(8)
H3A H 0.7694 1.0918 0.7498
C6A C 1.0018(11) 0.6895(10) 0.9513(8)
H4A H 0.9922 0.6677 1.0052
C7A C 0.6459(11) 1.0731(10) 0.9518(8)
H5A H 0.6156 1.0696 1.0049
C8A C 0.7419(11) 0.4395(10) 1.6753(8)
H6A H 0.7236 0.4310 1.7311
C9A C 0.4363(11) 0.7603(11) 1.7220(8)
H7A H 0.4282 0.7228 1.7698
C10A C 0.8001(13) 0.4747(13) 1.5162(8)
H8A H 0.8230 0.4885 1.4630
C11A C 1.0899(12) 0.6279(11) 0.9051(9)
H9A H 1.1413 0.5661 0.9269
C12A C 1.0277(11) 0.7524(10) 0.7935(8)
H10A H 1.0347 0.7743 0.7391
C13A C 1.1032(12) 0.6591(11) 0.8217(9)
H11A H 1.1621 0.6167 0.7868
C14A C 0.6444(12) 1.1677(11) 0.8289(9)
H12A H 0.6127 1.2266 0.7951
C15A C 0.4570(13) 0.8625(10) 1.5809(8)
H13A H 0.4612 0.8968 1.5310
C16A C 0.8299(13) 0.3602(12) 1.6342(10)
H14A H 0.8694 0.2966 1.6606
C17A C 0.8580(12) 0.3778(13) 1.5525(9)
H15A H 0.9154 0.3248 1.5225
C18A C 0.5974(13) 1.1655(11) 0.9080(8)
H16A H 0.5369 1.2230 0.9299
C19A C 0.3657(13) 0.8629(11) 1.7097(9)
H17A H 0.3107 0.8974 1.7503
C20A C 0.3744(13) 0.9159(11) 1.6384(9)
H18A H 0.3258 0.9860 1.6292
loop_
_geom_bond_atom_site_label_1
_geom_bond_atom_site_label_2
_geom_bond_site_symmetry_1
_geom_bond_site_symmetry_2
Zn1 O1 1_555 1_555
Zn2 O12 1_555 1_555
V1 O9 1_555 1_555
V2 O4 1_555 1_555
V3 O6 1_555 1_555
V4 O1 1_555 1_555
O2 V4 1_555 1_555
O3 V4 1_555 1_555
O4 Zn1 1_555 1_555
O5 V2 1_555 1_555
O6 V2 1_555 1_555
O7 V3 1_555 1_555
O8 V3 1_555 1_555
O9 V2 1_555 1_555
O10 V4 1_555 1_555
O11 V1 1_555 1_555
O12 V1 1_555 1_555
O13 V3 1_555 1_555
N1 Zn2 1_555 1_555
N2 H1 1_555 1_555
N3 Zn2 1_555 1_555
N4 Zn1 1_555 1_555
N5 H2 1_555 1_555
N6 Zn1 1_555 1_555
C1 N4 1_555 1_555
C2 N2 1_555 1_555
C3 N5 1_555 1_555
C4 N1 1_555 1_555
C5 C1 1_555 1_555
H3 C5 1_555 1_555
C6 N6 1_555 1_555
H4 C6 1_555 1_555
C7 N4 1_555 1_555
H5 C7 1_555 1_555
C8 C4 1_555 1_555
H6 C8 1_555 1_555
C9 C2 1_555 1_555
H7 C9 1_555 1_555
C10 N1 1_555 1_555
H8 C10 1_555 1_555
C11 C6 1_555 1_555
H9 C11 1_555 1_555
C12 C3 1_555 1_555
H10 C12 1_555 1_555
C13 C11 1_555 1_555
H11 C13 1_555 1_555
C14 C5 1_555 1_555
H12 C14 1_555 1_555
C15 N3 1_555 1_555
H13 C15 1_555 1_555
C16 C8 1_555 1_555
H14 C16 1_555 1_555
C17 C10 1_555 1_555
H15 C17 1_555 1_555
C18 C7 1_555 1_555
H16 C18 1_555 1_555
C19 C9 1_555 1_555
H17 C19 1_555 1_555
C20 C15 1_555 1_555
H18 C20 1_555 1_555
Zn1A O1A 1_555 1_555
Zn2A O12A 1_555 1_555
Zn2A_2 O13 1_555 1_555
V1A O10 1_555 1_555
V2A O4A 1_555 1_555
V3A O8 1_555 1_555
V3A_2 O6A 1_555 1_555
V4A O3 1_555 1_555
O1A V4A 1_555 1_555
O2A V4A 1_555 1_555
O4A Zn1A 1_555 1_555
O5A V2A 1_555 1_555
O6A V2A 1_555 1_555
O6A_2 V3A 1_555 1_555
O7A V3A 1_555 1_555
O9A V1A 1_555 1_555
O10A V1 1_555 1_555
O11A V1A 1_555 1_555
O12A V1A 1_555 1_555
O13A Zn2 1_555 1_555
O13_2 Zn2A 1_555 1_555
N1A Zn2A 1_555 1_555
N2A H1A 1_555 1_555
N3A Zn2A 1_555 1_555
N4A Zn1A 1_555 1_555
N5A H2A 1_555 1_555
N6A Zn1A 1_555 1_555
C1A N4A 1_555 1_555
C2A N2A 1_555 1_555
C3A N5A 1_555 1_555
C4A N1A 1_555 1_555
C5A C1A 1_555 1_555
H3A C5A 1_555 1_555
C6A N6A 1_555 1_555
H4A C6A 1_555 1_555
C7A N4A 1_555 1_555
H5A C7A 1_555 1_555
C8A C4A 1_555 1_555
H6A C8A 1_555 1_555
C9A C2A 1_555 1_555
H7A C9A 1_555 1_555
C10A N1A 1_555 1_555
H8A C10A 1_555 1_555
C11A C6A 1_555 1_555
H9A C11A 1_555 1_555
C12A C3A 1_555 1_555
H10A C12A 1_555 1_555
C13A C11A 1_555 1_555
H11A C13A 1_555 1_555
C14A C5A 1_555 1_555
H12A C14A 1_555 1_555
C15A N3A 1_555 1_555
H13A C15A 1_555 1_555
C16A C8A 1_555 1_555
H14A C16A 1_555 1_555
C17A C10A 1_555 1_555
H15A C17A 1_555 1_555
C18A C7A 1_555 1_555
H16A C18A 1_555 1_555
C19A C9A 1_555 1_555
H17A C19A 1_555 1_555
C20A C15A 1_555 1_555
H18A C20A 1_555 1_555
N2 C4 1_555 1_555
N3 C2 1_555 1_555
N5 C1 1_555 1_555
N6 C3 1_555 1_555
C12 C13 1_555 1_555
C14 C18 1_555 1_555
C16 C17 1_555 1_555
C19 C20 1_555 1_555
V2A O9A 1_555 1_555
V3A O13A 1_555 1_555
V4A O10A 1_555 1_555
N2A C4A 1_555 1_555
N3A C2A 1_555 1_555
N5A C1A 1_555 1_555
N6A C3A 1_555 1_555
C12A C13A 1_555 1_555
C14A C18A 1_555 1_555
C16A C17A 1_555 1_555
C19A C20A 1_555 1_555

#END
