
#######################################################################
#
#                 Cambridge Crystallographic Data Centre
#                                CCDC 
#
#######################################################################
#
# If this CIF has been generated from an entry in the Cambridge 
# Structural Database, then it will include bibliographic, chemical, 
# crystal, experimental, refinement or atomic coordinate data resulting 
# from the CCDC's data processing and validation procedures.
#
#######################################################################

data_JOFCEO
_symmetry_cell_setting           rhombohedral
_symmetry_space_group_name_H-M   'R -3 c'
_symmetry_Int_Tables_number      167
_space_group_name_Hall           '-R 3 2"c'
loop_
_symmetry_equiv_pos_site_id
_symmetry_equiv_pos_as_xyz
1 x,y,z
2 -y,x-y,z
3 -x+y,-x,z
4 y,x,1/2-z
5 -x,-x+y,1/2-z
6 x-y,-y,1/2-z
7 2/3+x,1/3+y,1/3+z
8 2/3-y,1/3+x-y,1/3+z
9 2/3-x+y,1/3-x,1/3+z
10 2/3+y,1/3+x,5/6-z
11 2/3-x,1/3-x+y,5/6-z
12 2/3+x-y,1/3-y,5/6-z
13 1/3+x,2/3+y,2/3+z
14 1/3-y,2/3+x-y,2/3+z
15 1/3-x+y,2/3-x,2/3+z
16 1/3+y,2/3+x,1/6-z
17 1/3-x,2/3-x+y,1/6-z
18 1/3+x-y,2/3-y,1/6-z
19 -x,-y,-z
20 y,-x+y,-z
21 x-y,x,-z
22 -y,-x,1/2+z
23 x,x-y,1/2+z
24 -x+y,y,1/2+z
25 1/3-x,2/3-y,2/3-z
26 1/3+y,2/3-x+y,2/3-z
27 1/3+x-y,2/3+x,2/3-z
28 1/3-y,2/3-x,1/6+z
29 1/3+x,2/3+x-y,1/6+z
30 1/3-x+y,2/3+y,1/6+z
31 2/3-x,1/3-y,1/3-z
32 2/3+y,1/3-x+y,1/3-z
33 2/3+x-y,1/3+x,1/3-z
34 2/3-y,1/3-x,5/6+z
35 2/3+x,1/3+x-y,5/6+z
36 2/3-x+y,1/3+y,5/6+z
_cell_length_a                   18.4310(17)
_cell_length_b                   18.4310(17)
_cell_length_c                   69.911(15)
_cell_angle_alpha                90
_cell_angle_beta                 90
_cell_angle_gamma                120
_cell_volume                     20567.1
loop_
_atom_site_label
_atom_site_type_symbol
_atom_site_fract_x
_atom_site_fract_y
_atom_site_fract_z
Cu1 Cu 0.28408(3) 1.12300(3) 0.901319(7)
N1 N 0.2014(3) 0.7443(3) 1.04200(5)
O1 O 0.3009(2) 1.0563(2) 0.94107(5)
O2 O 0.2213(2) 1.0182(2) 0.91489(4)
O3 O -0.0563(2) 0.7751(2) 0.91626(5)
O4 O -0.0991(2) 0.6912(2) 0.94197(5)
C1 C 0.2384(3) 1.0063(3) 0.93164(7)
C2 C 0.1780(3) 0.9242(3) 0.94058(7)
C3 C 0.0995(3) 0.8778(3) 0.93251(7)
H1 H 0.0860 0.8966 0.9214
C4 C 0.0401(3) 0.8024(3) 0.94104(8)
C5 C 0.0607(4) 0.7748(4) 0.95736(9)
H2 H 0.0211 0.7250 0.9631
C6 C 0.1402(4) 0.8209(4) 0.96535(10)
C7 C 0.1997(4) 0.8965(4) 0.95687(8)
H3 H 0.2531 0.9275 0.9621
C8 C -0.0442(3) 0.7531(3) 0.93225(7)
C9 C 0.2022(6) 0.7471(7) 1.00804(9)
C10 C 0.1993(7) 0.6704(8) 1.00780(10)
H4 H 0.1982 0.6452 0.9962
C11 C 0.1982(6) 0.6323(5) 1.02452(11)
H5 H 0.1951 0.5804 1.0245
C12 C 0.2017(4) 0.6722(4) 1.04136(7)
H6 H 0.2043 0.6479 1.0528
C13 C 0.2028(5) 0.7798(5) 1.02561(8)
H7 H 0.2043 0.8310 1.0260
C14 C 0.2205(6) 0.8103(7) 0.99175(15)
O5 O 0.2715(5) 0.8930(5) 0.99203(10)
N2 N 0.1565(4) 0.7919(4) 0.98247(11)
H8 H 0.1119 0.7525 0.9877
Cu1B Cu -0.16108(4) 0.71592(3) 0.901319(7)
Cu1I Cu -0.21033(3) 0.61741(3) 0.932014(7)
Cu1J Cu 0.38259(3) 1.17225(4) 0.932014(7)
Cu1CA Cu 0.17225(4) 0.78967(3) 1.067986(7)
N1IA N 0.2096(4) 1.0776(3) 0.87533(5)
O1J O 0.3658(2) 1.0887(3) 0.89226(5)
O3A O 0.2249(2) 1.1686(3) 0.91626(5)
O4I O 0.3579(2) 1.2342(2) 0.89136(5)
loop_
_geom_bond_atom_site_label_1
_geom_bond_atom_site_label_2
_geom_bond_site_symmetry_1
_geom_bond_site_symmetry_2
Cu1 O2 1_555 1_555
N1 C12 1_555 1_555
O1 C1 1_555 1_555
O2 C1 1_555 1_555
O3 C8 1_555 1_555
O4 C8 1_555 1_555
C1 C2 1_555 1_555
C2 C3 1_555 1_555
C3 H1 1_555 1_555
C4 C3 1_555 1_555
C5 C4 1_555 1_555
H2 C5 1_555 1_555
C6 C5 1_555 1_555
C7 C2 1_555 1_555
H3 C7 1_555 1_555
C8 C4 1_555 1_555
C9 C10 1_555 1_555
C10 H4 1_555 1_555
C11 C10 1_555 1_555
H5 C11 1_555 1_555
C12 C11 1_555 1_555
H6 C12 1_555 1_555
C13 N1 1_555 1_555
H7 C13 1_555 1_555
C14 C9 1_555 1_555
O5 C14 1_555 1_555
N2 C6 1_555 1_555
H8 N2 1_555 1_555
Cu1B O3 1_555 1_555
Cu1I O4 1_555 1_555
Cu1J Cu1 1_555 1_555
Cu1CA N1 1_555 1_555
N1IA Cu1 1_555 1_555
O1J Cu1 1_555 1_555
O3A Cu1 1_555 1_555
O4I Cu1 1_555 1_555
O1 Cu1J 1_555 1_555
C6 C7 1_555 1_555
C9 C13 1_555 1_555
C14 N2 1_555 1_555
Cu1B Cu1I 1_555 1_555

#END
