
#######################################################################
#
#                 Cambridge Crystallographic Data Centre
#                                CCDC 
#
#######################################################################
#
# If this CIF has been generated from an entry in the Cambridge 
# Structural Database, then it will include bibliographic, chemical, 
# crystal, experimental, refinement or atomic coordinate data resulting 
# from the CCDC's data processing and validation procedures.
#
#######################################################################

data_JOFDOZ
_symmetry_cell_setting           monoclinic
_symmetry_space_group_name_H-M   'P 21/c'
_symmetry_Int_Tables_number      14
_space_group_name_Hall           '-P 2ybc'
loop_
_symmetry_equiv_pos_site_id
_symmetry_equiv_pos_as_xyz
1 x,y,z
2 -x,1/2+y,1/2-z
3 -x,-y,-z
4 x,1/2-y,1/2+z
_cell_length_a                   10.3795(8)
_cell_length_b                   9.2225(7)
_cell_length_c                   18.5726(14)
_cell_angle_alpha                90
_cell_angle_beta                 104.377(2)
_cell_angle_gamma                90
_cell_volume                     1722.18
loop_
_atom_site_label
_atom_site_type_symbol
_atom_site_fract_x
_atom_site_fract_y
_atom_site_fract_z
Sr1 Sr 0.92881(2) 0.04994(2) 0.096981(11)
O1 O 1.14299(15) -0.02927(18) 0.05573(9)
N1 N 1.16845(17) 0.1392(2) 0.17738(10)
C1 C 1.2793(2) 0.0892(3) 0.16134(12)
Sr2 Sr 0.5000 0.0000 0.0000
N2 N 0.44174(17) 0.2750(2) 0.03925(10)
C2 C 1.4046(2) 0.1379(3) 0.19824(13)
H1 H 1.4802 0.0986 0.1875
O2 O 1.36203(15) -0.07308(18) 0.08527(10)
O3 O 0.94671(15) 0.22985(19) 0.20941(9)
C3 C 1.4160(2) 0.2452(3) 0.25119(14)
H2 H 1.4990 0.2816 0.2754
C4 C 1.3016(2) 0.2978(3) 0.26754(14)
H3 H 1.3062 0.3705 0.3028
O4 O 1.05507(17) 0.3979(2) 0.28731(9)
O5 O 0.68736(16) 0.17226(19) 0.09756(10)
C5 C 1.1804(2) 0.2399(2) 0.23040(12)
O6 O 0.73607(19) 0.3664(2) 0.17103(12)
C6 C 1.2590(2) -0.0144(2) 0.09562(13)
C7 C 1.0515(2) 0.2954(3) 0.24471(12)
O7 O 0.28001(14) 0.11604(18) -0.06304(9)
C8 C 0.5277(2) 0.3601(3) 0.08626(13)
O8 O 0.10489(15) 0.24571(19) -0.05558(10)
O9 O 0.96403(17) 0.3069(2) 0.04997(10)
H4 H 0.9954 0.3760 0.0794
H5 H 1.0165 0.3010 0.0215
C9 C 0.4970(3) 0.4990(3) 0.10395(15)
H6 H 0.5601 0.5554 0.1364
C10 C 0.3717(3) 0.5531(3) 0.07294(16)
H7 H 0.3493 0.6472 0.0831
C11 C 0.2802(2) 0.4643(3) 0.02638(15)
H8 H 0.1938 0.4962 0.0063
C12 C 0.3194(2) 0.3275(3) 0.01026(13)
C13 C 0.6598(2) 0.2913(3) 0.11916(14)
C14 C 0.2274(2) 0.2236(3) -0.04045(12)
H9 H 0.820(4) 0.322(4) 0.193(2)
Sr1B Sr 0.07119(2) -0.04994(2) -0.096981(11)
O1B O -0.14299(15) 0.02927(18) -0.05573(9)
N1B N -0.16845(17) -0.1392(2) -0.17738(10)
C1B C -0.2793(2) -0.0892(3) -0.16134(12)
N2B N 0.55826(17) -0.2750(2) -0.03925(10)
C2B C -0.4046(2) -0.1379(3) -0.19824(13)
H1B H -0.4802 -0.0986 -0.1875
O2B O -0.36203(15) 0.07308(18) -0.08527(10)
O3B O 0.05329(15) -0.22985(19) -0.20941(9)
C3B C -0.4160(2) -0.2452(3) -0.25119(14)
H2B H -0.4990 -0.2816 -0.2754
C4B C -0.3016(2) -0.2978(3) -0.26754(14)
H3B H -0.3062 -0.3705 -0.3028
O4B O -0.05507(17) -0.3979(2) -0.28731(9)
O5B O 0.31264(16) -0.17226(19) -0.09756(10)
C5B C -0.1804(2) -0.2399(2) -0.23040(12)
O6B O 0.26393(19) -0.3664(2) -0.17103(12)
C6B C -0.2590(2) 0.0144(2) -0.09562(13)
C7B C -0.0515(2) -0.2954(3) -0.24471(12)
O7B O 0.71999(14) -0.11604(18) 0.06304(9)
C8B C 0.4723(2) -0.3601(3) -0.08626(13)
O8B O 0.89511(15) -0.24571(19) 0.05558(10)
O9B O 0.03597(17) -0.3069(2) -0.04997(10)
H4B H 0.0046 -0.3760 -0.0794
H5B H -0.0165 -0.3010 -0.0215
C9B C 0.5030(3) -0.4990(3) -0.10395(15)
H6B H 0.4399 -0.5554 -0.1364
C10B C 0.6283(3) -0.5531(3) -0.07294(16)
H7B H 0.6507 -0.6472 -0.0831
C11B C 0.7198(2) -0.4643(3) -0.02638(15)
H8B H 0.8062 -0.4962 -0.0063
C12B C 0.6806(2) -0.3275(3) -0.01026(13)
C13B C 0.3402(2) -0.2913(3) -0.11916(14)
C14B C 0.7726(2) -0.2236(3) 0.04045(12)
H9B H 0.180(4) -0.322(4) -0.193(2)
Sr1_2 Sr -0.07119(2) 0.04994(2) 0.096981(11)
Sr1A Sr 1.07119(2) 0.54994(2) 0.403019(11)
Sr1B_2 Sr 1.07119(2) -0.04994(2) -0.096981(11)
Sr1C Sr -0.07119(2) -0.54994(2) -0.403019(11)
O1_2 O 0.14299(15) -0.02927(18) 0.05573(9)
O1B_2 O 0.85701(15) 0.02927(18) -0.05573(9)
Sr2_2 Sr -0.5000 0.0000 0.0000
Sr2_3 Sr 1.5000 0.0000 0.0000
O2_2 O 0.36203(15) -0.07308(18) 0.08527(10)
O2B_2 O 0.63797(15) 0.07308(18) -0.08527(10)
O4A O 0.94493(17) -0.1021(2) 0.21269(9)
O4C O 0.05507(17) 0.1021(2) -0.21269(9)
O10 O 0.0695(3) 0.5492(2) 0.14104(12)
H10 H 0.0200 0.6154 0.1169
H11 H 0.0789 0.5678 0.1869
loop_
_geom_bond_atom_site_label_1
_geom_bond_atom_site_label_2
_geom_bond_site_symmetry_1
_geom_bond_site_symmetry_2
Sr1 O1 1_555 1_555
O1 C6 1_555 1_555
N1 Sr1 1_555 1_555
C1 N1 1_555 1_555
Sr2 N2 1_555 1_555
N2 C8 1_555 1_555
C2 C1 1_555 1_555
H1 C2 1_555 1_555
O2 C6 1_555 1_555
O3 Sr1 1_555 1_555
C3 C2 1_555 1_555
H2 C3 1_555 1_555
C4 C3 1_555 1_555
H3 C4 1_555 1_555
O4 C7 1_555 1_555
O5 Sr1 1_555 1_555
C5 N1 1_555 1_555
O6 C13 1_555 1_555
C6 C1 1_555 1_555
C7 O3 1_555 1_555
O7 Sr2 1_555 1_555
C8 C9 1_555 1_555
O8 C14 1_555 1_555
O9 Sr1 1_555 1_555
H4 O9 1_555 1_555
H5 O9 1_555 1_555
C9 H6 1_555 1_555
C10 C9 1_555 1_555
H7 C10 1_555 1_555
C11 C10 1_555 1_555
H8 C11 1_555 1_555
C12 N2 1_555 1_555
C13 O5 1_555 1_555
C14 O7 1_555 1_555
H9 O6 1_555 1_555
O10 H10 1_555 1_555
H11 O10 1_555 1_555
Sr1B O7 1_555 1_555
O1B Sr1B 1_555 1_555
N1B Sr1B 1_555 1_555
C1B N1B 1_555 1_555
N2B Sr2 1_555 1_555
C2B C1B 1_555 1_555
H1B C2B 1_555 1_555
O2B C6B 1_555 1_555
O3B Sr1B 1_555 1_555
C3B C2B 1_555 1_555
H2B C3B 1_555 1_555
C4B C3B 1_555 1_555
H3B C4B 1_555 1_555
O4B C7B 1_555 1_555
O5B Sr2 1_555 1_555
C5B N1B 1_555 1_555
O6B C13B 1_555 1_555
C6B O1B 1_555 1_555
C7B O3B 1_555 1_555
O7B Sr1 1_555 1_555
C8B N2B 1_555 1_555
O8B Sr1 1_555 1_555
O9B Sr1B 1_555 1_555
H4B O9B 1_555 1_555
H5B O9B 1_555 1_555
C9B C8B 1_555 1_555
H6B C9B 1_555 1_555
C10B C9B 1_555 1_555
H7B C10B 1_555 1_555
C11B C10B 1_555 1_555
H8B C11B 1_555 1_555
C12B N2B 1_555 1_555
C13B O5B 1_555 1_555
C14B O7B 1_555 1_555
H9B O6B 1_555 1_555
Sr1_2 O1B 1_555 1_555
Sr1A O4 1_555 1_555
Sr1B_2 O1 1_555 1_555
Sr1C O4B 1_555 1_555
O1_2 Sr1B 1_555 1_555
O1B_2 Sr1 1_555 1_555
Sr2_2 O2B 1_555 1_555
Sr2_3 O2 1_555 1_555
O2_2 Sr2 1_555 1_555
O2B_2 Sr2 1_555 1_555
O4A Sr1 1_555 1_555
O4C Sr1B 1_555 1_555
Sr2 O5 1_555 1_555
Sr2 O7B 1_555 1_555
C4 C5 1_555 1_555
C5 C7 1_555 1_555
C8 C13 1_555 1_555
O8 Sr1B 1_555 1_555
C11 C12 1_555 1_555
C12 C14 1_555 1_555
Sr1B O5B 1_555 1_555
C1B C6B 1_555 1_555
C4B C5B 1_555 1_555
C5B C7B 1_555 1_555
C8B C13B 1_555 1_555
O8B C14B 1_555 1_555
C11B C12B 1_555 1_555
C12B C14B 1_555 1_555
Sr1_2 O1_2 1_555 1_555
Sr1B_2 O1B_2 1_555 1_555

#END
