
#######################################################################
#
#                 Cambridge Crystallographic Data Centre
#                                CCDC 
#
#######################################################################
#
# If this CIF has been generated from an entry in the Cambridge 
# Structural Database, then it will include bibliographic, chemical, 
# crystal, experimental, refinement or atomic coordinate data resulting 
# from the CCDC's data processing and validation procedures.
#
#######################################################################

data_JOFDUF
_symmetry_cell_setting           orthorhombic
_symmetry_space_group_name_H-M   'I m m m'
_symmetry_Int_Tables_number      71
_space_group_name_Hall           '-I 2 2'
loop_
_symmetry_equiv_pos_site_id
_symmetry_equiv_pos_as_xyz
1 x,y,z
2 -x,-y,z
3 x,-y,-z
4 -x,y,-z
5 1/2+x,1/2+y,1/2+z
6 1/2-x,1/2-y,1/2+z
7 1/2+x,1/2-y,1/2-z
8 1/2-x,1/2+y,1/2-z
9 -x,-y,-z
10 x,y,-z
11 -x,y,z
12 x,-y,z
13 1/2-x,1/2-y,1/2-z
14 1/2+x,1/2+y,1/2-z
15 1/2-x,1/2+y,1/2+z
16 1/2+x,1/2-y,1/2+z
_cell_length_a                   11.419(2)
_cell_length_b                   9.783(2)
_cell_length_c                   14.165(3)
_cell_angle_alpha                90
_cell_angle_beta                 90
_cell_angle_gamma                90
_cell_volume                     1582.4
loop_
_atom_site_label
_atom_site_type_symbol
_atom_site_fract_x
_atom_site_fract_y
_atom_site_fract_z
Zn1 Zn 0.0000 0.5000 0.38394(6)
Cl1 Cl 0.0000 0.6837(2) 0.5000
O1 O 0.0000 0.6135(4) 0.2487(2)
N1 N 0.1893(4) 0.5000 0.3750(3)
C1 C 0.0000 0.5000 0.2062(5)
C2 C 0.0000 0.5000 0.0995(5)
C3 C -0.1075(4) 0.5000 0.0505(4)
C4 C -0.2176(5) 0.5000 0.0980(4)
H1 H -0.2192 0.5000 0.1637
C5 C -0.3193(5) 0.5000 0.0498(4)
H2 H -0.3900 0.5000 0.0824
C6 C 0.2496(3) 0.3854(4) 0.3694(3)
H3 H 0.2085 0.3033 0.3701
C7 C 0.3705(3) 0.3802(4) 0.3625(4)
H4 H 0.4085 0.2962 0.3586
C8 C 0.4347(4) 0.5000 0.3613(3)
O1A O 0.0000 0.3865(4) 0.2487(2)
C3A C 0.1075(4) 0.5000 0.0505(4)
C4A C 0.2176(5) 0.5000 0.0980(4)
H1A H 0.2192 0.5000 0.1637
C5A C 0.3193(5) 0.5000 0.0498(4)
H2A H 0.3900 0.5000 0.0824
O1B O 0.0000 0.3865(4) -0.2487(2)
C1B C 0.0000 0.5000 -0.2062(5)
C2B C 0.0000 0.5000 -0.0995(5)
C3B C -0.1075(4) 0.5000 -0.0505(4)
C4B C -0.2176(5) 0.5000 -0.0980(4)
H1B H -0.2192 0.5000 -0.1637
C5B C -0.3193(5) 0.5000 -0.0498(4)
H2B H -0.3900 0.5000 -0.0824
O1C O 0.0000 0.6135(4) -0.2487(2)
C3C C 0.1075(4) 0.5000 -0.0505(4)
C4C C 0.2176(5) 0.5000 -0.0980(4)
H1C H 0.2192 0.5000 -0.1637
C5C C 0.3193(5) 0.5000 -0.0498(4)
H2C H 0.3900 0.5000 -0.0824
N1A N 0.8107(4) 0.5000 0.3750(3)
C6A C 0.7504(3) 0.6146(4) 0.3694(3)
H3A H 0.7915 0.6967 0.3701
C7A C 0.6295(3) 0.6198(4) 0.3625(4)
H4A H 0.5915 0.7038 0.3586
C8A C 0.5653(4) 0.5000 0.3613(3)
C6J C 0.7504(3) 0.3854(4) 0.3694(3)
H3J H 0.7915 0.3033 0.3701
C7J C 0.6295(3) 0.3802(4) 0.3625(4)
H4J H 0.5915 0.2962 0.3586
C6K C 0.2496(3) 0.6146(4) 0.3694(3)
H3K H 0.2085 0.6967 0.3701
C7K C 0.3705(3) 0.6198(4) 0.3625(4)
H4K H 0.4085 0.7038 0.3586
Cl1A Cl 0.0000 0.3163(2) 0.5000
Zn1B Zn 0.0000 0.5000 -0.38394(6)
N1B N 0.1893(4) 0.5000 -0.3750(3)
C6B C 0.2496(3) 0.6146(4) -0.3694(3)
H3B H 0.2085 0.6967 -0.3701
C7B C 0.3705(3) 0.6198(4) -0.3625(4)
H4B H 0.4085 0.7038 -0.3586
C8B C 0.4347(4) 0.5000 -0.3613(3)
N1C N 0.8107(4) 0.5000 -0.3750(3)
C6C C 0.7504(3) 0.3854(4) -0.3694(3)
H3C H 0.7915 0.3033 -0.3701
C7C C 0.6295(3) 0.3802(4) -0.3625(4)
H4C H 0.5915 0.2962 -0.3586
C8C C 0.5653(4) 0.5000 -0.3613(3)
C6H C 0.7504(3) 0.6146(4) -0.3694(3)
H3H H 0.7915 0.6967 -0.3701
C7H C 0.6295(3) 0.6198(4) -0.3625(4)
H4H H 0.5915 0.7038 -0.3586
C6I C 0.2496(3) 0.3854(4) -0.3694(3)
H3I H 0.2085 0.3033 -0.3701
C7I C 0.3705(3) 0.3802(4) -0.3625(4)
H4I H 0.4085 0.2962 -0.3586
Zn1_2 Zn 1.0000 0.5000 0.38394(6)
Zn1B_2 Zn 0.0000 0.5000 0.61606(6)
Zn1B_3 Zn 1.0000 0.5000 -0.38394(6)
Cl1_2 Cl 0.0000 0.6837(2) -0.5000
Cl1A_2 Cl 0.0000 0.3163(2) -0.5000
N1A_2 N -0.1893(4) 0.5000 0.3750(3)
N1C_2 N -0.1893(4) 0.5000 -0.3750(3)
loop_
_geom_bond_atom_site_label_1
_geom_bond_atom_site_label_2
_geom_bond_site_symmetry_1
_geom_bond_site_symmetry_2
Zn1 Cl1 1_555 1_555
Cl1 Zn1B_2 1_555 1_555
O1 Zn1 1_555 1_555
N1 Zn1 1_555 1_555
C1 O1 1_555 1_555
C2 C1 1_555 1_555
C3 C2 1_555 1_555
C4 C3 1_555 1_555
H1 C4 1_555 1_555
C5 C4 1_555 1_555
H2 C5 1_555 1_555
C6 N1 1_555 1_555
H3 C6 1_555 1_555
C7 C6 1_555 1_555
H4 C7 1_555 1_555
C8 C7 1_555 1_555
O1A Zn1 1_555 1_555
C3A C2 1_555 1_555
C4A C3A 1_555 1_555
H1A C4A 1_555 1_555
C5A C4A 1_555 1_555
H2A C5A 1_555 1_555
O1B C1B 1_555 1_555
C1B C2B 1_555 1_555
C2B C3B 1_555 1_555
C3B C3 1_555 1_555
C4B C3B 1_555 1_555
H1B C4B 1_555 1_555
C5B C5 1_555 1_555
H2B C5B 1_555 1_555
O1C C1B 1_555 1_555
C3C C3A 1_555 1_555
C4C C3C 1_555 1_555
H1C C4C 1_555 1_555
C5C C5A 1_555 1_555
H2C C5C 1_555 1_555
N1A C6A 1_555 1_555
C6A H3A 1_555 1_555
C7A C6A 1_555 1_555
H4A C7A 1_555 1_555
C8A C8 1_555 1_555
C6J N1A 1_555 1_555
H3J C6J 1_555 1_555
C7J C8A 1_555 1_555
H4J C7J 1_555 1_555
C6K N1 1_555 1_555
H3K C6K 1_555 1_555
C7K C8 1_555 1_555
H4K C7K 1_555 1_555
Cl1A Zn1 1_555 1_555
Zn1B O1B 1_555 1_555
N1B Zn1B 1_555 1_555
C6B N1B 1_555 1_555
H3B C6B 1_555 1_555
C7B C6B 1_555 1_555
H4B C7B 1_555 1_555
C8B C7B 1_555 1_555
N1C C6C 1_555 1_555
C6C H3C 1_555 1_555
C7C C6C 1_555 1_555
H4C C7C 1_555 1_555
C8C C8B 1_555 1_555
C6H N1C 1_555 1_555
H3H C6H 1_555 1_555
C7H C8C 1_555 1_555
H4H C7H 1_555 1_555
C6I N1B 1_555 1_555
H3I C6I 1_555 1_555
C7I C8B 1_555 1_555
H4I C7I 1_555 1_555
Zn1_2 N1A 1_555 1_555
Zn1B_2 Cl1A 1_555 1_555
Zn1B_3 N1C 1_555 1_555
Cl1_2 Zn1B 1_555 1_555
Cl1A_2 Zn1B 1_555 1_555
N1A_2 Zn1 1_555 1_555
N1C_2 Zn1B 1_555 1_555
C1 O1A 1_555 1_555
C2B C3C 1_555 1_555
C4B C5B 1_555 1_555
O1C Zn1B 1_555 1_555
C4C C5C 1_555 1_555
C7A C8A 1_555 1_555
C6J C7J 1_555 1_555
C6K C7K 1_555 1_555
C7C C8C 1_555 1_555
C6H C7H 1_555 1_555
C6I C7I 1_555 1_555

#END
