
#######################################################################
#
#                 Cambridge Crystallographic Data Centre
#                                CCDC 
#
#######################################################################
#
# If this CIF has been generated from an entry in the Cambridge 
# Structural Database, then it will include bibliographic, chemical, 
# crystal, experimental, refinement or atomic coordinate data resulting 
# from the CCDC's data processing and validation procedures.
#
#######################################################################

data_JOFFOB
_symmetry_cell_setting           monoclinic
_symmetry_space_group_name_H-M   'P 21/c'
_symmetry_Int_Tables_number      14
_space_group_name_Hall           '-P 2ybc'
loop_
_symmetry_equiv_pos_site_id
_symmetry_equiv_pos_as_xyz
1 x,y,z
2 -x,1/2+y,1/2-z
3 -x,-y,-z
4 x,1/2-y,1/2+z
_cell_length_a                   14.4370(17)
_cell_length_b                   8.4090(10)
_cell_length_c                   19.168(2)
_cell_angle_alpha                90
_cell_angle_beta                 104.5050(10)
_cell_angle_gamma                90
_cell_volume                     2252.84
loop_
_atom_site_label
_atom_site_type_symbol
_atom_site_fract_x
_atom_site_fract_y
_atom_site_fract_z
Cd1 Cd 0.355910(13) 0.90297(2) 0.201823(11)
O1 O 0.50529(15) 0.3520(3) 0.32637(14)
O2 O 0.54544(16) 0.5771(3) 0.38395(13)
O3 O 0.38296(14) 0.6596(3) 0.25918(12)
O4 O 0.25529(17) 0.7732(3) 0.27698(13)
O5 O 0.05853(16) 0.4291(3) 0.39295(14)
O6 O 0.13202(17) 0.3138(3) 0.49164(13)
O7 O 0.46458(17) 1.0361(3) 0.29861(12)
H1 H 0.4620 1.1365 0.3029
H2 H 0.5147 1.0309 0.2830
N1 N 0.13144(19) 0.3833(3) 0.43546(16)
N2 N 0.26127(15) 0.7998(3) 0.09379(12)
N3 N -0.26054(17) 0.8784(3) -0.20033(13)
C1 C 0.39368(19) 0.4589(3) 0.38223(15)
C2 C 0.31313(18) 0.5462(3) 0.34705(14)
C3 C 0.22738(18) 0.5201(3) 0.36516(14)
H3 H 0.1727 0.5756 0.3418
C4 C 0.2236(2) 0.4112(3) 0.41806(15)
C5 C 0.3028(2) 0.3288(4) 0.45486(17)
H4 H 0.2992 0.2588 0.4917
C6 C 0.3874(2) 0.3523(4) 0.43601(18)
H5 H 0.4415 0.2956 0.4597
C7 C 0.4888(2) 0.4686(4) 0.36268(16)
C8 C 0.31702(19) 0.6677(3) 0.29062(15)
C9 C 0.2981(2) 0.7207(4) 0.04680(16)
H6 H 0.3636 0.7012 0.0588
C10 C 0.2442(2) 0.6662(4) -0.01866(16)
H7 H 0.2733 0.6112 -0.0495
C11 C 0.14689(19) 0.6934(3) -0.03830(15)
C12 C 0.10814(19) 0.7720(4) 0.01124(15)
H8 H 0.0426 0.7902 0.0011
C13 C 0.1663(2) 0.8230(4) 0.07507(16)
H9 H 0.1386 0.8766 0.1072
C14 C 0.0837(2) 0.6485(4) -0.11080(16)
H10 H 0.1239 0.6202 -0.1426
H11 H 0.0462 0.7406 -0.1313
C15 C 0.0158(2) 0.5108(4) -0.10855(17)
H12 H -0.0153 0.5285 -0.0698
H13 H 0.0524 0.4131 -0.0983
C16 C -0.0607(2) 0.4923(3) -0.17983(16)
H14 H -0.0302 0.4933 -0.2195
H15 H -0.0925 0.3906 -0.1803
C17 C -0.1920(2) 0.8785(4) -0.23561(17)
H16 H -0.1865 0.9663 -0.2638
C18 C -0.1288(2) 0.7544(3) -0.23219(16)
H17 H -0.0827 0.7590 -0.2584
C19 C -0.1337(2) 0.6236(3) -0.19016(15)
C20 C -0.2065(2) 0.6224(4) -0.15568(18)
H18 H -0.2144 0.5349 -0.1280
C21 C -0.2676(2) 0.7491(4) -0.16170(17)
H19 H -0.3162 0.7448 -0.1378
Cd1A Cd 0.644090(13) 0.40297(2) 0.298177(11)
Cd1B Cd -0.355910(13) 1.09703(2) -0.201823(11)
O1A O 0.49471(15) 0.8520(3) 0.17363(14)
N3B N 0.26054(17) 1.1216(3) 0.20033(13)
O8 O 0.4909(5) 0.8915(6) 0.4360(2)
H20 H 0.5061 0.8021 0.4214
H21 H 0.4807 0.9340 0.3946
loop_
_geom_bond_atom_site_label_1
_geom_bond_atom_site_label_2
_geom_bond_site_symmetry_1
_geom_bond_site_symmetry_2
Cd1 O3 1_555 1_555
O1 C7 1_555 1_555
O2 C7 1_555 1_555
O3 C8 1_555 1_555
O4 Cd1 1_555 1_555
O5 N1 1_555 1_555
O6 N1 1_555 1_555
O7 Cd1 1_555 1_555
H1 O7 1_555 1_555
H2 O7 1_555 1_555
N1 C4 1_555 1_555
N2 Cd1 1_555 1_555
N3 C17 1_555 1_555
C1 C2 1_555 1_555
C2 C3 1_555 1_555
C3 H3 1_555 1_555
C4 C3 1_555 1_555
C5 C4 1_555 1_555
H4 C5 1_555 1_555
C6 C1 1_555 1_555
H5 C6 1_555 1_555
C7 C1 1_555 1_555
C8 O4 1_555 1_555
C9 N2 1_555 1_555
H6 C9 1_555 1_555
C10 C9 1_555 1_555
H7 C10 1_555 1_555
C11 C10 1_555 1_555
C12 C11 1_555 1_555
H8 C12 1_555 1_555
C13 N2 1_555 1_555
H9 C13 1_555 1_555
C14 C11 1_555 1_555
H10 C14 1_555 1_555
H11 C14 1_555 1_555
C15 C14 1_555 1_555
H12 C15 1_555 1_555
H13 C15 1_555 1_555
C16 C15 1_555 1_555
H14 C16 1_555 1_555
H15 C16 1_555 1_555
C17 H16 1_555 1_555
C18 C17 1_555 1_555
H17 C18 1_555 1_555
C19 C16 1_555 1_555
C20 C19 1_555 1_555
H18 C20 1_555 1_555
C21 N3 1_555 1_555
H19 C21 1_555 1_555
O8 H20 1_555 1_555
H21 O8 1_555 1_555
Cd1A O1 1_555 1_555
Cd1B N3 1_555 1_555
O1A Cd1 1_555 1_555
N3B Cd1 1_555 1_555
C2 C8 1_555 1_555
C5 C6 1_555 1_555
C12 C13 1_555 1_555
C18 C19 1_555 1_555
C20 C21 1_555 1_555

#END
