
#######################################################################
#
#                 Cambridge Crystallographic Data Centre
#                                CCDC 
#
#######################################################################
#
# If this CIF has been generated from an entry in the Cambridge 
# Structural Database, then it will include bibliographic, chemical, 
# crystal, experimental, refinement or atomic coordinate data resulting 
# from the CCDC's data processing and validation procedures.
#
#######################################################################

data_JOFFAN
_symmetry_cell_setting           triclinic
_symmetry_space_group_name_H-M   'P -1'
_symmetry_Int_Tables_number      2
_space_group_name_Hall           '-P 1'
loop_
_symmetry_equiv_pos_site_id
_symmetry_equiv_pos_as_xyz
1 x,y,z
2 -x,-y,-z
_cell_length_a                   8.779(2)
_cell_length_b                   10.909(3)
_cell_length_c                   12.739(3)
_cell_angle_alpha                72.45(2)
_cell_angle_beta                 75.13(2)
_cell_angle_gamma                86.47(2)
_cell_volume                     1124.11
loop_
_atom_site_label
_atom_site_type_symbol
_atom_site_fract_x
_atom_site_fract_y
_atom_site_fract_z
Ni1 Ni 0.20976(5) 0.98640(4) 0.12770(4)
O1 O 0.3697(3) 0.9205(2) -0.0016(2)
O2 O 0.1221(3) 0.8506(2) 0.0597(2)
O3 O 0.6372(3) 0.7125(2) -0.0122(3)
O4 O 0.6632(3) 0.8872(2) -0.1658(2)
O5 O 0.1621(3) 1.1302(2) -0.0074(2)
H1 H 0.2034 1.1978 -0.0123
H2 H 0.0736 1.1519 -0.0224
N1 N 0.3011(3) 0.8389(3) 0.2417(3)
N2 N 0.0012(3) 1.0051(3) 0.2466(3)
C1 C 0.2205(4) 0.7599(3) 0.3399(3)
H3 H 0.1119 0.7699 0.3609
C2 C 0.2872(5) 0.6643(3) 0.4124(3)
H4 H 0.2246 0.6131 0.4803
C3 C 0.4509(4) 0.6450(3) 0.3826(3)
C4 C 0.5352(4) 0.7246(3) 0.2785(3)
H5 H 0.6429 0.7134 0.2532
C5 C 0.4588(4) 0.8207(3) 0.2123(3)
H6 H 0.5184 0.8750 0.1448
C6 C 0.5345(5) 0.5458(3) 0.4527(3)
H7 H 0.6440 0.5468 0.4295
C7 C 0.2965(4) 0.7631(3) -0.0794(3)
C8 C 0.4545(4) 0.7343(3) -0.1250(3)
C9 C 0.4804(4) 0.6506(3) -0.1922(4)
C10 C 0.3560(5) 0.5996(4) -0.2170(4)
H8 H 0.3767 0.5461 -0.2634
C11 C 0.2029(5) 0.6288(4) -0.1726(4)
H9 H 0.1199 0.5953 -0.1889
C12 C 0.1733(5) 0.7089(4) -0.1029(4)
H10 H 0.0697 0.7268 -0.0714
C13 C 0.2608(4) 0.8498(3) -0.0034(3)
C14 C 0.5965(4) 0.7829(3) -0.0969(3)
N3 N 0.6402(4) 0.6112(3) -0.2352(3)
C15 C 0.7196(5) 0.6591(4) -0.3453(4)
H11 H 0.6739 0.7239 -0.3933
C16 C 0.8630(5) 0.6164(4) -0.3882(4)
H12 H 0.9137 0.6537 -0.4643
C17 C 0.8502(5) 0.4669(4) -0.2042(4)
H13 H 0.8913 0.4013 -0.1538
C18 C 0.7073(5) 0.5141(4) -0.1659(4)
H14 H 0.6531 0.4795 -0.0902
C19 C -0.1344(5) 0.9577(5) 0.2457(4)
H15 H -0.1340 0.9185 0.1901
C20 C -0.2765(5) 0.9637(5) 0.3232(5)
H16 H -0.3678 0.9297 0.3179
C21 C -0.2829(5) 1.0194(4) 0.4075(4)
C22 C -0.1433(5) 1.0736(5) 0.4053(4)
H17 H -0.1417 1.1164 0.4581
C23 C -0.0048(5) 1.0648(5) 0.3246(4)
H18 H 0.0872 1.1022 0.3253
C24 C -0.4306(4) 1.0256(4) 0.4944(4)
H19 H -0.4253 1.0693 0.5458
C25 C 0.9396(5) 0.5140(4) -0.3188(4)
O6 O 1.0717(3) 0.4700(3) -0.3561(3)
N1A N 0.6989(3) 0.1611(3) 0.7583(3)
C1A C 0.7795(4) 0.2401(3) 0.6601(3)
H3A H 0.8881 0.2301 0.6391
C2A C 0.7128(5) 0.3357(3) 0.5876(3)
H4A H 0.7754 0.3869 0.5197
C3A C 0.5491(4) 0.3550(3) 0.6174(3)
C4A C 0.4648(4) 0.2754(3) 0.7215(3)
H5A H 0.3571 0.2866 0.7468
C5A C 0.5412(4) 0.1793(3) 0.7877(3)
H6A H 0.4816 0.1250 0.8552
C6A C 0.4655(5) 0.4542(3) 0.5473(3)
H7A H 0.3560 0.4532 0.5705
N2A N -1.0012(3) 0.9949(3) 0.7534(3)
C19A C -0.8656(5) 1.0423(5) 0.7543(4)
H15A H -0.8660 1.0815 0.8099
C20A C -0.7235(5) 1.0363(5) 0.6768(5)
H16A H -0.6322 1.0703 0.6821
C21A C -0.7171(5) 0.9806(4) 0.5925(4)
C22A C -0.8567(5) 0.9264(5) 0.5947(4)
H17A H -0.8583 0.8836 0.5419
C23A C -0.9952(5) 0.9352(5) 0.6754(4)
H18A H -1.0872 0.8978 0.6747
C24A C -0.5694(4) 0.9744(4) 0.5056(4)
H19A H -0.5747 0.9307 0.4542
Ni1A Ni -1.20976(5) 1.01360(4) 0.87230(4)
O1A O -1.3697(3) 1.0795(2) 1.0016(2)
O2A O -1.1221(3) 1.1494(2) 0.9403(2)
O3A O -1.6372(3) 1.2875(2) 1.0122(3)
O4A O -1.6632(3) 1.1128(2) 1.1658(2)
O5A O -1.1621(3) 0.8698(2) 1.0074(2)
H1A H -1.2034 0.8022 1.0123
H2A H -1.0736 0.8481 1.0224
C7A C -1.2965(4) 1.2369(3) 1.0794(3)
C8A C -1.4545(4) 1.2657(3) 1.1250(3)
C9A C -1.4804(4) 1.3494(3) 1.1922(4)
C10A C -1.3560(5) 1.4004(4) 1.2170(4)
H8A H -1.3767 1.4539 1.2634
C11A C -1.2029(5) 1.3712(4) 1.1726(4)
H9A H -1.1199 1.4047 1.1889
C12A C -1.1733(5) 1.2911(4) 1.1029(4)
H10A H -1.0697 1.2732 1.0714
C13A C -1.2608(4) 1.1502(3) 1.0034(3)
C14A C -1.5965(4) 1.2171(3) 1.0969(3)
N3A N -1.6402(4) 1.3888(3) 1.2352(3)
C15A C -1.7196(5) 1.3409(4) 1.3453(4)
H11A H -1.6739 1.2761 1.3933
C16A C -1.8630(5) 1.3836(4) 1.3882(4)
H12A H -1.9137 1.3463 1.4643
C17A C -1.8502(5) 1.5331(4) 1.2042(4)
H13A H -1.8913 1.5987 1.1538
C18A C -1.7073(5) 1.4859(4) 1.1659(4)
H14A H -1.6531 1.5205 1.0902
C25A C -1.9396(5) 1.4860(4) 1.3188(4)
O6A O -2.0717(3) 1.5300(3) 1.3561(3)
Ni1_2 Ni -1.79024(5) 0.98640(4) 1.12770(4)
Ni1A_2 Ni 0.79024(5) 0.01360(4) 0.87230(4)
Ni1A_3 Ni 0.79024(5) 1.01360(4) -0.12770(4)
O4_2 O -1.3368(3) 0.8872(2) 0.8342(2)
O4A_2 O 0.3368(3) 1.1128(2) 0.1658(2)
N1A_2 N -1.3011(3) 1.1611(3) 0.7583(3)
loop_
_geom_bond_atom_site_label_1
_geom_bond_atom_site_label_2
_geom_bond_site_symmetry_1
_geom_bond_site_symmetry_2
Ni1 O1 1_555 1_555
O1 C13 1_555 1_555
O2 Ni1 1_555 1_555
O3 C14 1_555 1_555
O4 C14 1_555 1_555
O5 Ni1 1_555 1_555
H1 O5 1_555 1_555
H2 O5 1_555 1_555
N1 Ni1 1_555 1_555
N2 Ni1 1_555 1_555
C1 N1 1_555 1_555
H3 C1 1_555 1_555
C2 C1 1_555 1_555
H4 C2 1_555 1_555
C3 C2 1_555 1_555
C4 C3 1_555 1_555
H5 C4 1_555 1_555
C5 N1 1_555 1_555
H6 C5 1_555 1_555
C6 C3 1_555 1_555
H7 C6 1_555 1_555
C7 C8 1_555 1_555
C8 C9 1_555 1_555
C9 C10 1_555 1_555
C10 H8 1_555 1_555
C11 C10 1_555 1_555
H9 C11 1_555 1_555
C12 C7 1_555 1_555
H10 C12 1_555 1_555
C13 O2 1_555 1_555
C14 C8 1_555 1_555
N3 C9 1_555 1_555
C15 N3 1_555 1_555
H11 C15 1_555 1_555
C16 C15 1_555 1_555
H12 C16 1_555 1_555
C17 H13 1_555 1_555
C18 N3 1_555 1_555
H14 C18 1_555 1_555
C19 N2 1_555 1_555
H15 C19 1_555 1_555
C20 C19 1_555 1_555
H16 C20 1_555 1_555
C21 C20 1_555 1_555
C22 C21 1_555 1_555
H17 C22 1_555 1_555
C23 N2 1_555 1_555
H18 C23 1_555 1_555
C24 C21 1_555 1_555
H19 C24 1_555 1_555
C25 C16 1_555 1_555
O6 C25 1_555 1_555
N1A C1A 1_555 1_555
C1A H3A 1_555 1_555
C2A C1A 1_555 1_555
H4A C2A 1_555 1_555
C3A C2A 1_555 1_555
C4A C3A 1_555 1_555
H5A C4A 1_555 1_555
C5A N1A 1_555 1_555
H6A C5A 1_555 1_555
C6A C6 1_555 1_555
H7A C6A 1_555 1_555
N2A C19A 1_555 1_555
C19A H15A 1_555 1_555
C20A C19A 1_555 1_555
H16A C20A 1_555 1_555
C21A C20A 1_555 1_555
C22A C21A 1_555 1_555
H17A C22A 1_555 1_555
C23A N2A 1_555 1_555
H18A C23A 1_555 1_555
C24A C24 1_555 1_555
H19A C24A 1_555 1_555
Ni1A N2A 1_555 1_555
O1A Ni1A 1_555 1_555
O2A Ni1A 1_555 1_555
O3A C14A 1_555 1_555
O4A C14A 1_555 1_555
O5A Ni1A 1_555 1_555
H1A O5A 1_555 1_555
H2A O5A 1_555 1_555
C7A C8A 1_555 1_555
C8A C9A 1_555 1_555
C9A C10A 1_555 1_555
C10A H8A 1_555 1_555
C11A C10A 1_555 1_555
H9A C11A 1_555 1_555
C12A C7A 1_555 1_555
H10A C12A 1_555 1_555
C13A O1A 1_555 1_555
C14A C8A 1_555 1_555
N3A C9A 1_555 1_555
C15A N3A 1_555 1_555
H11A C15A 1_555 1_555
C16A C15A 1_555 1_555
H12A C16A 1_555 1_555
C17A H13A 1_555 1_555
C18A N3A 1_555 1_555
H14A C18A 1_555 1_555
C25A C16A 1_555 1_555
O6A C25A 1_555 1_555
Ni1_2 O4A 1_555 1_555
Ni1A_2 N1A 1_555 1_555
Ni1A_3 O4 1_555 1_555
O4_2 Ni1A 1_555 1_555
O4A_2 Ni1 1_555 1_555
N1A_2 Ni1A 1_555 1_555
C4 C5 1_555 1_555
C7 C13 1_555 1_555
C11 C12 1_555 1_555
C17 C18 1_555 1_555
C17 C25 1_555 1_555
C22 C23 1_555 1_555
C3A C6A 1_555 1_555
C4A C5A 1_555 1_555
C21A C24A 1_555 1_555
C22A C23A 1_555 1_555
O2A C13A 1_555 1_555
C7A C13A 1_555 1_555
C11A C12A 1_555 1_555
C17A C18A 1_555 1_555
C17A C25A 1_555 1_555

#END
