
#######################################################################
#
#                 Cambridge Crystallographic Data Centre
#                                CCDC 
#
#######################################################################
#
# If this CIF has been generated from an entry in the Cambridge 
# Structural Database, then it will include bibliographic, chemical, 
# crystal, experimental, refinement or atomic coordinate data resulting 
# from the CCDC's data processing and validation procedures.
#
#######################################################################

data_JOFFIV
_symmetry_cell_setting           monoclinic
_symmetry_space_group_name_H-M   'P 21/c'
_symmetry_Int_Tables_number      14
_space_group_name_Hall           '-P 2ybc'
loop_
_symmetry_equiv_pos_site_id
_symmetry_equiv_pos_as_xyz
1 x,y,z
2 -x,1/2+y,1/2-z
3 -x,-y,-z
4 x,1/2-y,1/2+z
_cell_length_a                   14.4175(11)
_cell_length_b                   8.4737(7)
_cell_length_c                   18.0120(14)
_cell_angle_alpha                90
_cell_angle_beta                 106.7220(10)
_cell_angle_gamma                90
_cell_volume                     2107.46
loop_
_atom_site_label
_atom_site_type_symbol
_atom_site_fract_x
_atom_site_fract_y
_atom_site_fract_z
Cd1 Cd 0.354472(14) 0.41736(3) 0.187262(12)
S1 S 0.08754(6) 0.04867(10) -0.14981(5)
S2 S -0.03579(6) -0.03199(10) -0.12935(5)
O1 O 0.50358(18) -0.1394(3) 0.33373(18)
O2 O 0.52887(18) 0.0942(3) 0.38890(16)
O3 O 0.37401(17) 0.1656(3) 0.24398(14)
O4 O 0.2528(2) 0.2943(3) 0.26365(17)
O5 O 0.03041(19) -0.0629(4) 0.3572(2)
O6 O 0.0977(2) -0.1788(4) 0.46556(18)
O7 O 0.4569(2) 0.5500(4) 0.29520(16)
H1 H 0.5088 0.5565 0.2820
H2 H 0.4572 0.6483 0.3046
N1 N 0.1012(2) -0.1097(3) 0.40680(19)
N2 N 0.26001(18) 0.3083(3) 0.06795(14)
N3 N -0.25494(18) 0.3676(3) -0.17645(15)
C1 C 0.3759(2) -0.0363(4) 0.37386(16)
C2 C 0.2977(2) 0.0546(3) 0.33237(16)
C3 C 0.2070(2) 0.0294(3) 0.34301(17)
H3 H 0.1537 0.0878 0.3152
C4 C 0.1973(2) -0.0841(3) 0.39575(18)
C5 C 0.2741(2) -0.1729(4) 0.4379(2)
H4 H 0.2661 -0.2471 0.4736
C6 C 0.3631(2) -0.1495(4) 0.4262(2)
H5 H 0.4156 -0.2101 0.4536
C7 C 0.4771(2) -0.0208(4) 0.36478(18)
C8 C 0.3086(2) 0.1806(3) 0.27610(16)
C9 C 0.1633(2) 0.3071(4) 0.04863(17)
H6 H 0.1329 0.3621 0.0797
C10 C 0.1063(2) 0.2277(4) -0.01558(17)
H7 H 0.0391 0.2291 -0.0270
C11 C 0.1511(2) 0.1462(4) -0.06248(16)
C12 C 0.2515(2) 0.1475(4) -0.04326(18)
H8 H 0.2837 0.0944 -0.0737
C13 C 0.3024(2) 0.2293(4) 0.02189(18)
H9 H 0.3697 0.2297 0.0346
C14 C -0.2720(2) 0.2283(4) -0.1483(2)
H10 H -0.3304 0.2136 -0.1371
C15 C -0.2071(2) 0.1059(4) -0.1353(2)
H11 H -0.2212 0.0106 -0.1154
C16 C -0.1198(2) 0.1268(4) -0.15232(17)
C17 C -0.1036(2) 0.2680(4) -0.18482(19)
H12 H -0.0472 0.2840 -0.1991
C18 C -0.1728(2) 0.3844(4) -0.1956(2)
H13 H -0.1616 0.4795 -0.2174
Cd1A Cd 0.645528(14) -0.08264(3) 0.312738(12)
Cd1B Cd -0.354472(14) 0.58264(3) -0.187262(12)
O1A O 0.49642(18) 0.3606(3) 0.16627(18)
N3B N 0.25494(18) 0.6324(3) 0.17645(15)
O8 O 0.4860(4) 0.4004(5) 0.4360(2)
H14 H 0.4956 0.3075 0.4220
H15 H 0.4737 0.4470 0.3925
loop_
_geom_bond_atom_site_label_1
_geom_bond_atom_site_label_2
_geom_bond_site_symmetry_1
_geom_bond_site_symmetry_2
Cd1 O3 1_555 1_555
S1 S2 1_555 1_555
S2 C16 1_555 1_555
O1 C7 1_555 1_555
O2 C7 1_555 1_555
O3 C8 1_555 1_555
O4 Cd1 1_555 1_555
O5 N1 1_555 1_555
O6 N1 1_555 1_555
O7 Cd1 1_555 1_555
H1 O7 1_555 1_555
H2 O7 1_555 1_555
N1 C4 1_555 1_555
N2 Cd1 1_555 1_555
N3 C14 1_555 1_555
C1 C2 1_555 1_555
C2 C3 1_555 1_555
C3 H3 1_555 1_555
C4 C3 1_555 1_555
C5 C4 1_555 1_555
H4 C5 1_555 1_555
C6 C1 1_555 1_555
H5 C6 1_555 1_555
C7 C1 1_555 1_555
C8 O4 1_555 1_555
C9 N2 1_555 1_555
H6 C9 1_555 1_555
C10 C9 1_555 1_555
H7 C10 1_555 1_555
C11 S1 1_555 1_555
C12 C11 1_555 1_555
H8 C12 1_555 1_555
C13 N2 1_555 1_555
H9 C13 1_555 1_555
C14 H10 1_555 1_555
C15 C14 1_555 1_555
H11 C15 1_555 1_555
C16 C15 1_555 1_555
C17 C16 1_555 1_555
H12 C17 1_555 1_555
C18 N3 1_555 1_555
H13 C18 1_555 1_555
O8 H14 1_555 1_555
H15 O8 1_555 1_555
Cd1A O1 1_555 1_555
Cd1B N3 1_555 1_555
O1A Cd1 1_555 1_555
N3B Cd1 1_555 1_555
C2 C8 1_555 1_555
C5 C6 1_555 1_555
C10 C11 1_555 1_555
C12 C13 1_555 1_555
C17 C18 1_555 1_555

#END
