
#######################################################################
#
#                 Cambridge Crystallographic Data Centre
#                                CCDC 
#
#######################################################################
#
# If this CIF has been generated from an entry in the Cambridge 
# Structural Database, then it will include bibliographic, chemical, 
# crystal, experimental, refinement or atomic coordinate data resulting 
# from the CCDC's data processing and validation procedures.
#
#######################################################################

data_JOFGOC
_symmetry_cell_setting           tetragonal
_symmetry_space_group_name_H-M   'I -4'
_symmetry_Int_Tables_number      82
_space_group_name_Hall           'I -4'
loop_
_symmetry_equiv_pos_site_id
_symmetry_equiv_pos_as_xyz
1 x,y,z
2 -x,-y,z
3 y,-x,-z
4 -y,x,-z
5 1/2+x,1/2+y,1/2+z
6 1/2-x,1/2-y,1/2+z
7 1/2+y,1/2-x,1/2-z
8 1/2-y,1/2+x,1/2-z
_cell_length_a                   20.7937(16)
_cell_length_b                   20.7937(16)
_cell_length_c                   13.515(2)
_cell_angle_alpha                90
_cell_angle_beta                 90
_cell_angle_gamma                90
_cell_volume                     5843.59
loop_
_atom_site_label
_atom_site_type_symbol
_atom_site_fract_x
_atom_site_fract_y
_atom_site_fract_z
Cd1 Cd 0.998765(11) -0.206794(11) 0.618459(16)
C1 C 1.12980(17) -0.27945(15) 0.6774(2)
H1 H 1.1023 -0.3140 0.6665
C2 C 1.19260(18) -0.29153(17) 0.7033(3)
H2 H 1.2068 -0.3336 0.7113
C3 C 1.23453(16) -0.24060(16) 0.7175(2)
H3 H 1.2771 -0.2482 0.7350
C4 C 1.14791(16) -0.17009(15) 0.6813(2)
H4 H 1.1322 -0.1285 0.6743
C5 C 1.21237(15) -0.17788(15) 0.7055(2)
C6 C 1.25678(17) -0.12043(17) 0.7128(2)
H5 H 1.2820 -0.1178 0.6525
H6 H 1.2309 -0.0817 0.7171
C7 C 1.28344(14) -0.10091(14) 0.8888(3)
C8 C 1.33175(16) -0.09245(16) 0.9625(2)
H7 H 1.3744 -0.1019 0.9476
C9 C 1.31607(16) -0.07051(16) 1.0548(3)
H8 H 1.3488 -0.0640 1.1006
C10 C 1.22014(16) -0.08747(18) 0.9158(3)
H9 H 1.1873 -0.0929 0.8698
C11 C 1.20560(17) -0.06618(19) 1.0100(3)
H10 H 1.1630 -0.0573 1.0258
C12 C 1.25321(17) -0.05755(15) 1.0829(2)
C13 C 1.23682(19) -0.03533(16) 1.1840(3)
C14 C 0.87775(17) -0.29408(16) 0.5675(2)
H11 H 0.9116 -0.3228 0.5759
C15 C 0.84149(17) -0.19005(17) 0.5642(2)
H12 H 0.8496 -0.1462 0.5696
C16 C 0.77999(18) -0.2097(2) 0.5452(3)
H13 H 0.7472 -0.1796 0.5383
C17 C 0.76673(18) -0.2758(2) 0.5361(2)
H14 H 0.7252 -0.2900 0.5228
C18 C 0.81698(16) -0.31925(17) 0.5475(2)
C19 C 0.8094(2) -0.39128(19) 0.5423(3)
H15 H 0.8229 -0.4099 0.6048
H16 H 0.7643 -0.4015 0.5329
C20 C 0.82549(18) -0.42939(15) 0.3680(2)
C21 C 0.86678(19) -0.45884(17) 0.2974(3)
H17 H 0.9082 -0.4706 0.3161
C22 C 0.84657(19) -0.47034(16) 0.2015(3)
H18 H 0.8745 -0.4894 0.1565
C23 C 0.7639(2) -0.41112(17) 0.3365(3)
H19 H 0.7365 -0.3898 0.3799
C24 C 0.7434(2) -0.42472(17) 0.2401(3)
H20 H 0.7016 -0.4143 0.2214
C25 C 0.7844(2) -0.45349(15) 0.1717(2)
C26 C 0.7612(2) -0.46710(16) 0.0685(3)
N1 N 1.10673(13) -0.21962(13) 0.6672(2)
N2 N 1.30013(13) -0.12199(14) 0.7961(2)
H21 H 1.3383 -0.1369 0.7872
N3 N 0.89052(13) -0.23099(13) 0.5753(2)
N4 N 0.84671(17) -0.42043(15) 0.4626(2)
H22 H 0.8851 -0.4329 0.4762
O1 O 0.70093(15) -0.46811(13) 0.0521(2)
O2 O 0.80103(15) -0.47881(13) -0.0007(2)
O3 O 1.17744(13) -0.02679(14) 1.2078(2)
O4 O 0.99523(16) -0.09475(14) 0.5967(3)
O5 O 1.28063(13) -0.02588(13) 1.24776(17)
Cd1C Cd 1.206794(11) -0.001235(11) 1.381541(16)
Cd1G Cd 0.706794(11) -0.501235(11) -0.118459(16)
O1F O 1.03189(13) -0.20093(15) 0.4479(2)
O2F O 1.02119(13) -0.30103(15) 0.5007(2)
O3B O 0.97321(14) -0.17744(13) 0.7922(2)
O5B O 0.97412(13) -0.28063(13) 0.75224(17)
O6 O 0.5839(3) -0.4489(4) 0.3501(5)
O7 O 1.1033(6) 0.0532(4) 1.0851(9)
O8 O 1.40864(19) -0.0098(3) 1.2754(4)
O9 O 0.9849(3) -0.4360(2) 0.5166(5)
O10 O 0.60155(17) -0.50593(18) 0.1670(3)
loop_
_geom_bond_atom_site_label_1
_geom_bond_atom_site_label_2
_geom_bond_site_symmetry_1
_geom_bond_site_symmetry_2
Cd1 N1 1_555 1_555
C1 H1 1_555 1_555
C2 C1 1_555 1_555
H2 C2 1_555 1_555
C3 C2 1_555 1_555
H3 C3 1_555 1_555
C4 H4 1_555 1_555
C5 C3 1_555 1_555
C6 C5 1_555 1_555
H5 C6 1_555 1_555
H6 C6 1_555 1_555
C7 C8 1_555 1_555
C8 H7 1_555 1_555
C9 C8 1_555 1_555
H8 C9 1_555 1_555
C10 C7 1_555 1_555
H9 C10 1_555 1_555
C11 C10 1_555 1_555
H10 C11 1_555 1_555
C12 C9 1_555 1_555
C13 C12 1_555 1_555
C14 H11 1_555 1_555
C15 H12 1_555 1_555
C16 C15 1_555 1_555
H13 C16 1_555 1_555
C17 C16 1_555 1_555
H14 C17 1_555 1_555
C18 C14 1_555 1_555
C19 C18 1_555 1_555
H15 C19 1_555 1_555
H16 C19 1_555 1_555
C20 C21 1_555 1_555
C21 H17 1_555 1_555
C22 C21 1_555 1_555
H18 C22 1_555 1_555
C23 C20 1_555 1_555
H19 C23 1_555 1_555
C24 C23 1_555 1_555
H20 C24 1_555 1_555
C25 C22 1_555 1_555
C26 C25 1_555 1_555
N1 C1 1_555 1_555
N2 C6 1_555 1_555
H21 N2 1_555 1_555
N3 Cd1 1_555 1_555
N4 C19 1_555 1_555
H22 N4 1_555 1_555
O1 C26 1_555 1_555
O2 C26 1_555 1_555
O3 C13 1_555 1_555
O4 Cd1 1_555 1_555
O5 C13 1_555 1_555
Cd1C O3 1_555 1_555
Cd1G O1 1_555 1_555
O1F Cd1 1_555 1_555
O2F Cd1 1_555 1_555
O3B Cd1 1_555 1_555
O5B Cd1 1_555 1_555
C4 C5 1_555 1_555
C4 N1 1_555 1_555
C7 N2 1_555 1_555
C11 C12 1_555 1_555
C14 N3 1_555 1_555
C15 N3 1_555 1_555
C17 C18 1_555 1_555
C20 N4 1_555 1_555
C24 C25 1_555 1_555
O2 Cd1G 1_555 1_555
O5 Cd1C 1_555 1_555

#END
