
#######################################################################
#
#                 Cambridge Crystallographic Data Centre
#                                CCDC 
#
#######################################################################
#
# If this CIF has been generated from an entry in the Cambridge 
# Structural Database, then it will include bibliographic, chemical, 
# crystal, experimental, refinement or atomic coordinate data resulting 
# from the CCDC's data processing and validation procedures.
#
#######################################################################

data_JOFGUI
_symmetry_cell_setting           monoclinic
_symmetry_space_group_name_H-M   'P 2/c'
_symmetry_Int_Tables_number      13
_space_group_name_Hall           '-P 2yc'
loop_
_symmetry_equiv_pos_site_id
_symmetry_equiv_pos_as_xyz
1 x,y,z
2 -x,y,1/2-z
3 -x,-y,-z
4 x,-y,1/2+z
_cell_length_a                   10.264(2)
_cell_length_b                   9.1266(14)
_cell_length_c                   15.988(4)
_cell_angle_alpha                90
_cell_angle_beta                 104.330(14)
_cell_angle_gamma                90
_cell_volume                     1451.08
loop_
_atom_site_label
_atom_site_type_symbol
_atom_site_fract_x
_atom_site_fract_y
_atom_site_fract_z
Mn1 Mn -0.18434(5) -0.22207(6) 0.15300(4)
O1 O -0.0252(3) -0.0998(3) 0.12428(19)
O2 O 0.1258(3) -0.2410(3) 0.21102(17)
O3 O 0.5877(3) -0.2554(3) 0.1474(2)
O4 O 0.6746(3) -0.0378(3) 0.14021(19)
N1 N 0.2620(3) 0.2667(3) 0.0009(2)
N2 N 0.1577(3) 0.4590(4) -0.1297(2)
C1 C 0.4372(3) -0.0522(4) 0.1213(2)
C2 C 0.4121(4) 0.0795(4) 0.0764(2)
H1 H 0.4821 0.1282 0.0607
C3 C 0.2827(3) 0.1393(4) 0.0546(2)
C4 C 0.1800(3) 0.0689(4) 0.0814(2)
H2 H 0.0938 0.1084 0.0675
C5 C 0.2052(3) -0.0599(4) 0.1287(2)
C6 C 0.3335(3) -0.1213(4) 0.1481(2)
H3 H 0.3500 -0.2085 0.1789
C7 C 0.5745(3) -0.1193(4) 0.1381(2)
C8 C 0.0944(3) -0.1370(4) 0.1573(2)
C9 C 0.1673(4) 0.3780(5) 0.0147(3)
H4 H 0.1947 0.4150 0.0734
H5 H 0.0781 0.3362 0.0058
C10 C 0.1663(4) 0.4997(4) -0.0481(3)
C11 C 0.1767(4) 0.6459(5) -0.0224(3)
H6 H 0.1826 0.6716 0.0347
C12 C 0.1781(6) 0.7523(5) -0.0843(4)
H7 H 0.1842 0.8509 -0.0692
C13 C 0.1703(6) 0.7105(5) -0.1684(4)
H8 H 0.1717 0.7805 -0.2105
C14 C 0.1604(5) 0.5654(5) -0.1890(3)
H9 H 0.1553 0.5379 -0.2458
H10 H 0.3465 0.3139 0.0097
Mn1_2 Mn 0.81566(5) -0.22207(6) 0.15300(4)
Mn1A Mn 0.18434(5) -0.22207(6) 0.34700(4)
Mn1B Mn 0.18434(5) 0.22207(6) -0.15300(4)
O2A O -0.1258(3) -0.2410(3) 0.28898(17)
O3_2 O -0.4123(3) -0.2554(3) 0.1474(2)
O4_2 O -0.3254(3) -0.0378(3) 0.14021(19)
N1B N -0.2620(3) -0.2667(3) -0.0009(2)
N2B N -0.1577(3) -0.4590(4) 0.1297(2)
O5 O 0.4773(8) 0.4784(7) 0.0898(9)
loop_
_geom_bond_atom_site_label_1
_geom_bond_atom_site_label_2
_geom_bond_site_symmetry_1
_geom_bond_site_symmetry_2
Mn1 O1 1_555 1_555
O1 C8 1_555 1_555
O2 C8 1_555 1_555
O3 C7 1_555 1_555
O4 C7 1_555 1_555
N1 C3 1_555 1_555
N2 C10 1_555 1_555
C1 C2 1_555 1_555
C2 H1 1_555 1_555
C3 C2 1_555 1_555
C4 C3 1_555 1_555
H2 C4 1_555 1_555
C5 C4 1_555 1_555
C6 C1 1_555 1_555
H3 C6 1_555 1_555
C7 C1 1_555 1_555
C8 C5 1_555 1_555
C9 N1 1_555 1_555
H4 C9 1_555 1_555
H5 C9 1_555 1_555
C10 C9 1_555 1_555
C11 C10 1_555 1_555
H6 C11 1_555 1_555
C12 C11 1_555 1_555
H7 C12 1_555 1_555
C13 C12 1_555 1_555
H8 C13 1_555 1_555
C14 N2 1_555 1_555
H9 C14 1_555 1_555
H10 N1 1_555 1_555
Mn1_2 O3 1_555 1_555
Mn1A O2 1_555 1_555
Mn1B N1 1_555 1_555
O2A Mn1 1_555 1_555
O3_2 Mn1 1_555 1_555
O4_2 Mn1 1_555 1_555
N1B Mn1 1_555 1_555
N2B Mn1 1_555 1_555
O4 Mn1_2 1_555 1_555
N2 Mn1B 1_555 1_555
C5 C6 1_555 1_555
C13 C14 1_555 1_555

#END
