
#######################################################################
#
#                 Cambridge Crystallographic Data Centre
#                                CCDC 
#
#######################################################################
#
# If this CIF has been generated from an entry in the Cambridge 
# Structural Database, then it will include bibliographic, chemical, 
# crystal, experimental, refinement or atomic coordinate data resulting 
# from the CCDC's data processing and validation procedures.
#
#######################################################################

data_JOFHAP
_symmetry_cell_setting           monoclinic
_symmetry_space_group_name_H-M   'P 21/c'
_symmetry_Int_Tables_number      14
_space_group_name_Hall           '-P 2ybc'
loop_
_symmetry_equiv_pos_site_id
_symmetry_equiv_pos_as_xyz
1 x,y,z
2 -x,1/2+y,1/2-z
3 -x,-y,-z
4 x,1/2-y,1/2+z
_cell_length_a                   5.714(6)
_cell_length_b                   13.963(14)
_cell_length_c                   16.684(18)
_cell_angle_alpha                90
_cell_angle_beta                 94.911(12)
_cell_angle_gamma                90
_cell_volume                     1326.24
loop_
_atom_site_label
_atom_site_type_symbol
_atom_site_fract_x
_atom_site_fract_y
_atom_site_fract_z
Cu1 Cu 0.23925(8) 0.93425(3) 0.27067(3)
O1 O 0.6044(5) 1.3320(2) 0.28716(16)
O2 O -0.1232(7) 0.8844(4) 0.2245(3)
H1 H -0.0666 0.8619 0.1830
H2 H -0.2555 0.8652 0.2379
O3 O 0.8739(6) 1.3187(3) 0.3914(2)
O4 O 0.6902(5) 1.1277(2) 0.62621(16)
O5 O 0.3460(6) 1.0546(2) 0.62666(18)
N1 N 0.2336(7) 1.0306(3) 0.1818(2)
N2 N 0.0669(6) 1.0457(2) 0.3255(2)
H3 H -0.0378 1.0192 0.3572
C1 C 0.4436(7) 1.1283(3) 0.5048(2)
C2 C 0.2648(7) 1.0826(3) 0.4573(2)
H4 H 0.1689 1.0385 0.4804
C3 C 0.2285(7) 1.1025(3) 0.3756(2)
C4 C 0.3589(7) 1.1747(3) 0.3431(2)
H5 H 0.3274 1.1920 0.2894
C5 C 0.5368(7) 1.2211(3) 0.3907(2)
C6 C 0.5827(7) 1.1962(3) 0.4711(2)
H6 H 0.7062 1.2249 0.5022
C7 C 0.6854(7) 1.2963(3) 0.3547(2)
C8 C 0.4898(7) 1.1011(3) 0.5927(2)
C9 C -0.0672(7) 1.0976(3) 0.2591(2)
H7 H -0.0957 1.1629 0.2756
H8 H -0.2181 1.0667 0.2467
C10 C 0.0681(8) 1.0983(3) 0.1851(2)
C11 C 0.0292(9) 1.1669(3) 0.1252(3)
H9 H -0.0860 1.2134 0.1289
C12 C 0.1605(10) 1.1656(4) 0.0611(3)
H10 H 0.1341 1.2099 0.0197
C13 C 0.3340(11) 1.0970(4) 0.0585(3)
H11 H 0.4274 1.0956 0.0156
C14 C 0.3692(9) 1.0305(4) 0.1197(3)
H12 H 0.4879 0.9851 0.1179
Cu1A Cu 0.76075(8) 1.43425(3) 0.22933(3)
Cu1B Cu 0.76075(8) 1.06575(3) 0.72933(3)
O1A O 0.3956(5) 0.8320(2) 0.21284(16)
O4B O 0.3098(5) 0.8723(2) 0.37379(16)
loop_
_geom_bond_atom_site_label_1
_geom_bond_atom_site_label_2
_geom_bond_site_symmetry_1
_geom_bond_site_symmetry_2
Cu1 O2 1_555 1_555
O1 C7 1_555 1_555
O2 H1 1_555 1_555
H2 O2 1_555 1_555
O3 C7 1_555 1_555
O4 C8 1_555 1_555
O5 C8 1_555 1_555
N1 Cu1 1_555 1_555
N2 Cu1 1_555 1_555
H3 N2 1_555 1_555
C1 C2 1_555 1_555
C2 H4 1_555 1_555
C3 N2 1_555 1_555
C4 C3 1_555 1_555
H5 C4 1_555 1_555
C5 C4 1_555 1_555
C6 C1 1_555 1_555
H6 C6 1_555 1_555
C7 C5 1_555 1_555
C8 C1 1_555 1_555
C9 N2 1_555 1_555
H7 C9 1_555 1_555
H8 C9 1_555 1_555
C10 N1 1_555 1_555
C11 C10 1_555 1_555
H9 C11 1_555 1_555
C12 C11 1_555 1_555
H10 C12 1_555 1_555
C13 C12 1_555 1_555
H11 C13 1_555 1_555
C14 N1 1_555 1_555
H12 C14 1_555 1_555
Cu1A O1 1_555 1_555
Cu1B O4 1_555 1_555
O1A Cu1 1_555 1_555
O4B Cu1 1_555 1_555
C2 C3 1_555 1_555
C5 C6 1_555 1_555
C9 C10 1_555 1_555
C13 C14 1_555 1_555

#END
