
#######################################################################
#
#                 Cambridge Crystallographic Data Centre
#                                CCDC 
#
#######################################################################
#
# If this CIF has been generated from an entry in the Cambridge 
# Structural Database, then it will include bibliographic, chemical, 
# crystal, experimental, refinement or atomic coordinate data resulting 
# from the CCDC's data processing and validation procedures.
#
#######################################################################

data_JOFHIX
_symmetry_cell_setting           triclinic
_symmetry_space_group_name_H-M   'P -1'
_symmetry_Int_Tables_number      2
_space_group_name_Hall           '-P 1'
loop_
_symmetry_equiv_pos_site_id
_symmetry_equiv_pos_as_xyz
1 x,y,z
2 -x,-y,-z
_cell_length_a                   13.4899(8)
_cell_length_b                   13.4928(8)
_cell_length_c                   16.4575(10)
_cell_angle_alpha                102.7640(10)
_cell_angle_beta                 108.8100(10)
_cell_angle_gamma                101.4940(10)
_cell_volume                     2644.11
loop_
_atom_site_label
_atom_site_type_symbol
_atom_site_fract_x
_atom_site_fract_y
_atom_site_fract_z
Ag1 Ag -0.12197(5) -0.86570(7) -0.01161(6)
Ag2 Ag 0.71406(6) -0.03718(5) 0.28633(5)
Ag3 Ag 0.95615(5) 0.00247(5) 0.39888(4)
Ag4 Ag 1.02760(5) 0.19154(5) 0.22399(5)
Ag5 Ag 0.92364(4) -0.03976(5) 0.14273(4)
Ag6 Ag 1.70095(5) 0.32741(5) 0.47236(5)
Ag7 Ag 1.19101(5) -0.18768(5) 0.46265(5)
Ag8 Ag 0.75238(6) -0.72587(6) 0.02968(6)
C1 C 0.1213(6) -0.8591(6) 0.0461(5)
H1 H 0.0976 -0.9222 0.0576
C2 C 0.2233(6) -0.8334(6) 0.0423(5)
H2 H 0.2672 -0.8783 0.0514
C3 C 0.2601(6) -0.7399(6) 0.0246(5)
C4 C 0.1914(6) -0.6764(7) 0.0134(6)
H3 H 0.2130 -0.6127 0.0021
C5 C 0.0910(6) -0.7074(6) 0.0191(6)
H4 H 0.0464 -0.6630 0.0120
C6 C 0.3686(6) -0.7156(6) 0.0143(6)
H5 H 0.3564 -0.7497 -0.0480
H6 H 0.4159 -0.7475 0.0514
C7 C 0.4292(7) -0.5985(7) 0.0390(6)
H7 H 0.4930 -0.5921 0.0232
H8 H 0.3817 -0.5646 0.0043
C8 C 0.4652(7) -0.5417(6) 0.1387(6)
H9 H 0.4015 -0.5515 0.1547
H10 H 0.5148 -0.5742 0.1728
C9 C 0.5215(6) -0.4237(6) 0.1659(5)
C10 C 0.6328(6) -0.3838(7) 0.1932(6)
H11 H 0.6758 -0.4298 0.1921
C11 C 0.6808(7) -0.2755(7) 0.2221(6)
H12 H 0.7564 -0.2507 0.2400
C12 C 0.5178(7) -0.2440(7) 0.1969(6)
H13 H 0.4765 -0.1964 0.1971
C13 C 0.4636(6) -0.3500(7) 0.1665(6)
H14 H 0.3876 -0.3727 0.1463
C14 C 0.8796(6) 0.1814(5) 0.3540(5)
C15 C 0.8730(5) 0.2856(5) 0.3353(4)
C16 C 0.9674(5) 0.3710(5) 0.3800(5)
H15 H 1.0308 0.3617 0.4174
C17 C 0.9677(5) 0.4705(5) 0.3693(5)
C18 C 1.0694(6) 0.5640(6) 0.4198(5)
C19 C 0.8751(6) 0.4820(6) 0.3109(5)
H16 H 0.8750 0.5478 0.3025
C20 C 0.7814(6) 0.3962(6) 0.2643(5)
H17 H 0.7192 0.4055 0.2251
C21 C 0.7789(5) 0.2965(5) 0.2753(5)
C22 C 0.6759(5) 0.2055(5) 0.2226(5)
C23 C 0.6722(5) 0.1103(5) 0.1657(4)
C24 C 0.7719(5) 0.0894(6) 0.1518(5)
C25 C 0.5748(5) 0.0287(5) 0.1228(5)
H18 H 0.5737 -0.0353 0.0865
C26 C 0.4794(5) 0.0401(5) 0.1325(5)
C27 C 0.3753(6) -0.0516(6) 0.0839(5)
C28 C 0.4824(6) 0.1339(6) 0.1878(5)
H19 H 0.4191 0.1421 0.1960
C29 C 0.5787(5) 0.2164(6) 0.2315(5)
H20 H 0.5788 0.2803 0.2674
C30 C 1.7785(7) 0.8918(7) 0.4708(5)
H21 H 1.7644 0.9573 0.4790
C31 C 1.7148(7) 0.8106(7) 0.4878(5)
H22 H 1.6583 0.8216 0.5060
C32 C 1.7358(6) 0.7138(6) 0.4775(5)
C33 C 1.8170(6) 0.7005(6) 0.4471(5)
H23 H 1.8317 0.6354 0.4368
C34 C 1.8766(6) 0.7848(6) 0.4320(5)
H24 H 1.9327 0.7753 0.4126
C35 C 1.6749(7) 0.6261(7) 0.5026(6)
H25 H 1.7268 0.5924 0.5324
H26 H 1.6468 0.6580 0.5459
C36 C 1.5822(7) 0.5422(7) 0.4261(6)
H27 H 1.5577 0.4847 0.4482
H28 H 1.6094 0.5139 0.3809
C37 C 1.4850(7) 0.5768(7) 0.3813(6)
H29 H 1.5012 0.6118 0.3396
H30 H 1.4762 0.6293 0.4272
C38 C 1.3769(6) 0.4909(6) 0.3304(5)
C39 C 1.2780(7) 0.5145(7) 0.3123(6)
H31 H 1.2770 0.5848 0.3268
C40 C 1.1806(7) 0.4326(7) 0.2724(6)
H32 H 1.1154 0.4506 0.2595
C41 C 1.2702(7) 0.3091(7) 0.2648(5)
H33 H 1.2685 0.2381 0.2472
C42 C 1.3709(6) 0.3848(7) 0.3024(5)
H34 H 1.4343 0.3646 0.3089
C43 C 1.1553(5) 0.0053(6) 0.2362(5)
C44 C 1.2521(5) -0.0297(5) 0.2812(5)
C45 C 1.3514(5) 0.0494(6) 0.3298(5)
H35 H 1.3532 0.1196 0.3335
C46 C 1.4475(5) 0.0285(6) 0.3728(5)
C47 C 1.5544(6) 0.1162(6) 0.4219(5)
C48 C 1.4431(6) -0.0747(6) 0.3705(5)
H36 H 1.5063 -0.0906 0.4004
C49 C 1.3454(6) -0.1552(6) 0.3241(5)
H37 H 1.3443 -0.2245 0.3235
C50 C 1.2477(5) -0.1351(6) 0.2779(5)
C51 C 1.1492(5) -0.2301(5) 0.2278(5)
C52 C 1.0475(5) -0.2405(6) 0.2366(5)
C53 C 1.0203(6) -0.1553(5) 0.2937(5)
C54 C 0.9649(6) -0.3365(6) 0.1902(5)
H38 H 0.8965 -0.3414 0.1933
C55 C 0.9795(6) -0.4237(6) 0.1404(5)
C56 C 0.8897(7) -0.5276(7) 0.0962(5)
C57 C 1.0802(6) -0.4134(6) 0.1313(6)
H39 H 1.0927 -0.4711 0.0975
C58 C 1.1610(6) -0.3169(6) 0.1727(5)
H40 H 1.2260 -0.3100 0.1632
N1 N 0.0549(5) -0.7980(5) 0.0342(4)
N2 N 0.6258(5) -0.2045(5) 0.2262(4)
N3 N 1.8583(5) 0.8790(5) 0.4435(4)
N4 N 1.1745(5) 0.3307(5) 0.2517(4)
O1 O 0.7978(4) 0.1294(4) 0.3642(3)
O2 O 0.9628(4) 0.1534(4) 0.3564(4)
O3 O 1.1543(4) 0.5460(4) 0.4675(4)
O4 O 1.0635(4) 0.6526(4) 0.4108(4)
O5 O 0.8417(4) 0.1636(4) 0.1496(3)
O6 O 0.7772(4) -0.0042(4) 0.1462(4)
O7 O 0.3860(4) -0.1384(4) 0.0468(4)
O8 O 0.2886(4) -0.0335(4) 0.0846(4)
O9 O 1.1502(4) 0.0928(4) 0.2721(4)
O10 O 1.0843(4) -0.0591(4) 0.1615(3)
O11 O 1.5503(4) 0.2093(4) 0.4272(4)
O12 O 1.6373(4) 0.0887(4) 0.4535(4)
O13 O 0.9297(4) -0.1376(4) 0.2597(4)
O14 O 1.0872(4) -0.1053(4) 0.3735(3)
O15 O 0.7931(5) -0.5265(5) 0.0833(4)
O16 O 0.9179(5) -0.6094(5) 0.0786(5)
Ag1A Ag 0.12197(5) -0.13430(7) 0.01161(6)
Ag1A_2 Ag 1.12197(5) -0.13430(7) 0.01161(6)
Ag3_2 Ag 1.95615(5) 1.00247(5) 0.39888(4)
Ag6A Ag 1.29905(5) 0.67259(5) 0.52764(5)
Ag7_2 Ag 1.19101(5) 0.81232(5) 0.46265(5)
Ag7A Ag 1.80899(5) 0.18768(5) 0.53735(5)
Ag8A Ag 0.24762(6) -0.27413(6) -0.02968(6)
N3_2 N 0.8583(5) -0.1210(5) 0.4435(4)
O3A O 1.8457(4) 0.4540(4) 0.5325(4)
O4_2 O 1.0635(4) -0.3474(4) 0.4108(4)
O7A O 0.6140(4) -0.8616(4) -0.0468(4)
O8A O -0.2886(4) -0.9665(4) -0.0846(4)
O10A O -0.0843(4) -0.9409(4) -0.1615(3)
O12A O 1.3627(4) -0.0887(4) 0.5465(4)
loop_
_geom_bond_atom_site_label_1
_geom_bond_atom_site_label_2
_geom_bond_site_symmetry_1
_geom_bond_site_symmetry_2
Ag1 N1 1_555 1_555
Ag2 N2 1_555 1_555
Ag3 O2 1_555 1_555
Ag4 N4 1_555 1_555
Ag5 O6 1_555 1_555
Ag6 O11 1_555 1_555
Ag7 O14 1_555 1_555
Ag8 O15 1_555 1_555
C1 H1 1_555 1_555
C2 C1 1_555 1_555
H2 C2 1_555 1_555
C3 C2 1_555 1_555
C4 C3 1_555 1_555
H3 C4 1_555 1_555
C5 C4 1_555 1_555
H4 C5 1_555 1_555
C6 C3 1_555 1_555
H5 C6 1_555 1_555
H6 C6 1_555 1_555
C7 C6 1_555 1_555
H7 C7 1_555 1_555
H8 C7 1_555 1_555
C8 C7 1_555 1_555
H9 C8 1_555 1_555
H10 C8 1_555 1_555
C9 C8 1_555 1_555
C10 C9 1_555 1_555
H11 C10 1_555 1_555
C11 C10 1_555 1_555
H12 C11 1_555 1_555
C12 H13 1_555 1_555
C13 C9 1_555 1_555
H14 C13 1_555 1_555
C14 C15 1_555 1_555
C15 C16 1_555 1_555
C16 H15 1_555 1_555
C17 C16 1_555 1_555
C18 C17 1_555 1_555
C19 C17 1_555 1_555
H16 C19 1_555 1_555
C20 C19 1_555 1_555
H17 C20 1_555 1_555
C21 C15 1_555 1_555
C22 C21 1_555 1_555
C23 C22 1_555 1_555
C24 C23 1_555 1_555
C25 C23 1_555 1_555
H18 C25 1_555 1_555
C26 C25 1_555 1_555
C27 C26 1_555 1_555
C28 C26 1_555 1_555
H19 C28 1_555 1_555
C29 C22 1_555 1_555
H20 C29 1_555 1_555
C30 H21 1_555 1_555
C31 C30 1_555 1_555
H22 C31 1_555 1_555
C32 C31 1_555 1_555
C33 C32 1_555 1_555
H23 C33 1_555 1_555
C34 C33 1_555 1_555
H24 C34 1_555 1_555
C35 C32 1_555 1_555
H25 C35 1_555 1_555
H26 C35 1_555 1_555
C36 C35 1_555 1_555
H27 C36 1_555 1_555
H28 C36 1_555 1_555
C37 C36 1_555 1_555
H29 C37 1_555 1_555
H30 C37 1_555 1_555
C38 C37 1_555 1_555
C39 C38 1_555 1_555
H31 C39 1_555 1_555
C40 C39 1_555 1_555
H32 C40 1_555 1_555
C41 H33 1_555 1_555
C42 C38 1_555 1_555
H34 C42 1_555 1_555
C43 C44 1_555 1_555
C44 C45 1_555 1_555
C45 H35 1_555 1_555
C46 C45 1_555 1_555
C47 C46 1_555 1_555
C48 C46 1_555 1_555
H36 C48 1_555 1_555
C49 C48 1_555 1_555
H37 C49 1_555 1_555
C50 C44 1_555 1_555
C51 C50 1_555 1_555
C52 C51 1_555 1_555
C53 C52 1_555 1_555
C54 C52 1_555 1_555
H38 C54 1_555 1_555
C55 C54 1_555 1_555
C56 C55 1_555 1_555
C57 C55 1_555 1_555
H39 C57 1_555 1_555
C58 C51 1_555 1_555
H40 C58 1_555 1_555
N1 C1 1_555 1_555
N2 C11 1_555 1_555
N3 C30 1_555 1_555
N4 C40 1_555 1_555
O1 Ag2 1_555 1_555
O2 Ag4 1_555 1_555
O3 C18 1_555 1_555
O4 C18 1_555 1_555
O5 Ag4 1_555 1_555
O6 C24 1_555 1_555
O7 C27 1_555 1_555
O8 C27 1_555 1_555
O9 Ag4 1_555 1_555
O10 Ag5 1_555 1_555
O11 C47 1_555 1_555
O12 C47 1_555 1_555
O13 Ag3 1_555 1_555
O14 Ag3 1_555 1_555
O15 C56 1_555 1_555
O16 Ag8 1_555 1_555
Ag1A O8 1_555 1_555
Ag1A_2 O10 1_555 1_555
Ag3_2 N3 1_555 1_555
Ag6A O3 1_555 1_555
Ag7_2 O4 1_555 1_555
Ag7A O12 1_555 1_555
Ag8A O7 1_555 1_555
N3_2 Ag3 1_555 1_555
O3A Ag6 1_555 1_555
O4_2 Ag7 1_555 1_555
O7A Ag8 1_555 1_555
O8A Ag1 1_555 1_555
O10A Ag1 1_555 1_555
O12A Ag7 1_555 1_555
Ag5 O13 1_555 1_555
C5 N1 1_555 1_555
C12 C13 1_555 1_555
C12 N2 1_555 1_555
C14 O1 1_555 1_555
C14 O2 1_555 1_555
C20 C21 1_555 1_555
C24 O5 1_555 1_555
C28 C29 1_555 1_555
C34 N3 1_555 1_555
C41 C42 1_555 1_555
C41 N4 1_555 1_555
C43 O9 1_555 1_555
C43 O10 1_555 1_555
C49 C50 1_555 1_555
C53 O13 1_555 1_555
C53 O14 1_555 1_555
C56 O16 1_555 1_555
C57 C58 1_555 1_555

#END
