
#######################################################################
#
#                 Cambridge Crystallographic Data Centre
#                                CCDC 
#
#######################################################################
#
# If this CIF has been generated from an entry in the Cambridge 
# Structural Database, then it will include bibliographic, chemical, 
# crystal, experimental, refinement or atomic coordinate data resulting 
# from the CCDC's data processing and validation procedures.
#
#######################################################################

data_JOFJUL
_symmetry_cell_setting           monoclinic
_symmetry_space_group_name_H-M   'C 2/c'
_symmetry_Int_Tables_number      15
_space_group_name_Hall           '-C 2yn'
loop_
_symmetry_equiv_pos_site_id
_symmetry_equiv_pos_as_xyz
1 x,y,z
2 -x,y,1/2-z
3 1/2+x,1/2+y,z
4 1/2-x,1/2+y,1/2-z
5 -x,-y,-z
6 x,-y,1/2+z
7 1/2-x,1/2-y,-z
8 1/2+x,1/2-y,1/2+z
_cell_length_a                   16.380(2)
_cell_length_b                   20.382(3)
_cell_length_c                   31.993(4)
_cell_angle_alpha                90
_cell_angle_beta                 97.917(2)
_cell_angle_gamma                90
_cell_volume                     10579.3
loop_
_atom_site_label
_atom_site_type_symbol
_atom_site_fract_x
_atom_site_fract_y
_atom_site_fract_z
P1 P 0.78612(14) 0.43725(11) 0.11893(7)
Mo1 Mo 0.86253(5) 0.35118(4) 0.21315(3)
Mo2 Mo 1.00410(5) 0.43509(4) 0.14840(2)
Mo3 Mo 0.86621(5) 0.53183(4) 0.20742(3)
Mo4 Mo 0.65878(5) 0.33585(4) 0.17357(3)
Mo5 Mo 0.80665(5) 0.26453(4) 0.12293(3)
Mo6 Mo 0.92340(5) 0.36526(4) 0.05493(2)
Mo7 Mo 0.92166(5) 0.53221(4) 0.06633(3)
Mo8 Mo 0.76348(5) 0.61198(4) 0.12174(3)
Mo9 Mo 0.65650(5) 0.51756(4) 0.18380(3)
Mo10 Mo 0.69615(5) 0.34722(4) 0.02869(3)
Mo11 Mo 0.70082(5) 0.51481(4) 0.02363(3)
Mo12 Mo 0.57126(5) 0.43886(4) 0.08263(3)
Cu1 Cu 0.65647(9) 0.79833(8) 0.10687(5)
Cu2 Cu 0.94205(15) 0.68748(12) 0.27543(8)
S1 S 0.55324(17) 0.67121(13) 0.02903(9)
S2 S 0.8096(3) 0.58933(19) 0.33176(13)
O1 O 0.7800(4) 0.3744(3) 0.1446(2)
O2 O 0.8710(4) 0.4406(3) 0.10386(19)
O3 O 0.7739(4) 0.4976(3) 0.14595(19)
O4 O 0.7184(4) 0.4358(3) 0.08088(19)
O5 O 0.9135(5) 0.3226(3) 0.2582(2)
O6 O 1.1007(4) 0.4389(3) 0.1736(2)
O7 O 0.9155(4) 0.5639(3) 0.2524(2)
O8 O 0.9524(4) 0.3781(3) 0.1804(2)
O9 O 0.9491(4) 0.5051(3) 0.1791(2)
O10 O 0.8537(4) 0.4403(3) 0.2231(2)
O11 O 0.7554(4) 0.3317(3) 0.2192(2)
O12 O 0.8623(4) 0.2719(3) 0.1773(2)
O13 O 1.0150(4) 0.3784(3) 0.1039(2)
O14 O 1.0088(4) 0.5091(3) 0.1078(2)
O15 O 0.8398(4) 0.6082(3) 0.1751(2)
O16 O 0.7489(4) 0.5375(3) 0.2209(2)
O17 O 0.5860(4) 0.3029(3) 0.2004(2)
O18 O 0.7022(4) 0.2640(3) 0.1508(2)
O19 O 0.8119(4) 0.1835(3) 0.1139(2)
O20 O 0.8854(4) 0.3000(3) 0.0953(2)
O21 O 0.9739(4) 0.3157(3) 0.0248(2)
O22 O 0.9490(4) 0.4473(3) 0.0378(2)
O23 O 0.9661(4) 0.5852(3) 0.0362(2)
O24 O 0.8667(4) 0.5849(3) 0.09825(19)
O25 O 0.7608(4) 0.6937(3) 0.1128(2)
O26 O 0.6781(4) 0.6004(3) 0.1525(2)
O27 O 0.5780(4) 0.5438(3) 0.2083(2)
O28 O 0.6582(4) 0.4290(3) 0.1935(2)
O29 O 0.6005(4) 0.3676(3) 0.1247(2)
O30 O 0.7271(4) 0.2921(3) 0.0734(2)
O31 O 0.8174(4) 0.3619(3) 0.0293(2)
O32 O 0.8147(4) 0.5182(3) 0.0299(2)
O33 O 0.7111(4) 0.5768(3) 0.0724(2)
O34 O 0.5964(4) 0.4946(3) 0.1272(2)
O35 O 0.6913(4) 0.4334(3) -0.0016(2)
O36 O 0.5903(4) 0.4986(3) 0.0414(2)
O37 O 0.5934(4) 0.3680(3) 0.0428(2)
O38 O 0.6725(4) 0.2969(3) -0.0128(2)
O39 O 0.6749(5) 0.5658(3) -0.0170(2)
O40 O 0.4679(4) 0.4350(4) 0.0774(3)
O41 O 0.7183(8) 0.8783(7) 0.1041(4)
O42 O 0.6820(7) 0.8020(5) 0.1675(3)
O43 O 0.9400(5) 0.7047(4) 0.2155(3)
N1 N 0.5773(5) 0.7275(4) 0.1093(3)
N2 N 0.5477(6) 0.7127(5) 0.1469(3)
N3 N 0.4994(6) 0.6640(5) 0.1420(3)
N4 N 0.4946(5) 0.6450(4) 0.1011(3)
N5 N 0.6511(6) 0.7833(5) 0.0447(3)
N6 N 0.6910(6) 0.8243(4) 0.0204(3)
N7 N 0.6802(5) 0.8030(5) -0.0178(3)
N8 N 0.6333(5) 0.7482(4) -0.0188(3)
N9 N 0.9467(8) 0.6683(6) 0.3370(4)
N10 N 0.9960(8) 0.7009(6) 0.3690(5)
N11 N 0.9684(8) 0.6919(7) 0.4045(4)
N12 N 0.9031(7) 0.6533(6) 0.3969(3)
N13 N 0.8157(7) 0.6772(5) 0.2666(3)
N14 N 0.7616(9) 0.7043(6) 0.2373(4)
N15 N 0.6872(8) 0.6882(7) 0.2400(4)
N16 N 0.6945(7) 0.6479(6) 0.2742(4)
C1 C 0.5435(6) 0.6837(5) 0.0820(3)
C2 C 0.4401(7) 0.5904(5) 0.0836(4)
H1 H 0.3867 0.6075 0.0729
H2 H 0.4349 0.5590 0.1055
H3 H 0.4635 0.5694 0.0611
C3 C 0.6157(6) 0.7371(5) 0.0201(3)
C4 C 0.6109(7) 0.7106(5) -0.0569(4)
H4 H 0.6379 0.6687 -0.0541
H5 H 0.6277 0.7338 -0.0804
H6 H 0.5523 0.7043 -0.0616
C5 C 0.8898(9) 0.6386(6) 0.3562(4)
C6 C 0.8563(8) 0.6326(7) 0.4315(4)
H7 H 0.8899 0.6038 0.4504
H8 H 0.8070 0.6100 0.4196
H9 H 0.8419 0.6705 0.4466
C7 C 0.7731(7) 0.6432(7) 0.2890(4)
C8 C 0.6238(14) 0.6205(13) 0.2915(8)
H10 H 0.6340 0.5751 0.2984
H11 H 0.5755 0.6242 0.2710
H12 H 0.6156 0.6441 0.3165
Cu2A Cu 1.05795(15) 0.68748(12) 0.22457(8)
Cu2C Cu 0.55795(15) 0.18748(12) 0.22457(8)
O17C O 0.9140(4) 0.8029(3) 0.2996(2)
O43A O 1.0600(5) 0.7047(4) 0.2845(3)
O44 O 0.6473(7) 0.9655(5) 0.0582(4)
loop_
_geom_bond_atom_site_label_1
_geom_bond_atom_site_label_2
_geom_bond_site_symmetry_1
_geom_bond_site_symmetry_2
P1 O1 1_555 1_555
Mo1 O1 1_555 1_555
Mo2 O2 1_555 1_555
Mo3 O3 1_555 1_555
Mo4 O1 1_555 1_555
Mo5 O1 1_555 1_555
Mo6 O2 1_555 1_555
Mo7 O2 1_555 1_555
Mo8 O3 1_555 1_555
Mo9 O3 1_555 1_555
Mo10 O4 1_555 1_555
Mo11 O4 1_555 1_555
Mo12 O4 1_555 1_555
Cu1 O25 1_555 1_555
Cu2 O7 1_555 1_555
S1 C1 1_555 1_555
S2 C5 1_555 1_555
O2 P1 1_555 1_555
O3 P1 1_555 1_555
O4 P1 1_555 1_555
O5 Mo1 1_555 1_555
O6 Mo2 1_555 1_555
O7 Mo3 1_555 1_555
O8 Mo1 1_555 1_555
O9 Mo2 1_555 1_555
O10 Mo1 1_555 1_555
O11 Mo1 1_555 1_555
O12 Mo1 1_555 1_555
O13 Mo2 1_555 1_555
O14 Mo2 1_555 1_555
O15 Mo3 1_555 1_555
O16 Mo3 1_555 1_555
O17 Mo4 1_555 1_555
O18 Mo4 1_555 1_555
O19 Mo5 1_555 1_555
O20 Mo5 1_555 1_555
O21 Mo6 1_555 1_555
O22 Mo6 1_555 1_555
O23 Mo7 1_555 1_555
O24 Mo7 1_555 1_555
O25 Mo8 1_555 1_555
O26 Mo8 1_555 1_555
O27 Mo9 1_555 1_555
O28 Mo4 1_555 1_555
O29 Mo4 1_555 1_555
O30 Mo5 1_555 1_555
O31 Mo6 1_555 1_555
O32 Mo7 1_555 1_555
O33 Mo8 1_555 1_555
O34 Mo9 1_555 1_555
O35 Mo10 1_555 1_555
O36 Mo11 1_555 1_555
O37 Mo10 1_555 1_555
O38 Mo10 1_555 1_555
O39 Mo11 1_555 1_555
O40 Mo12 1_555 1_555
O41 Cu1 1_555 1_555
O42 Cu1 1_555 1_555
O43 Cu2 1_555 1_555
N1 Cu1 1_555 1_555
N2 N1 1_555 1_555
N3 N2 1_555 1_555
N4 N3 1_555 1_555
N5 Cu1 1_555 1_555
N6 N5 1_555 1_555
N7 N6 1_555 1_555
N8 N7 1_555 1_555
N9 Cu2 1_555 1_555
N10 N9 1_555 1_555
N11 N10 1_555 1_555
N12 N11 1_555 1_555
N13 Cu2 1_555 1_555
N14 N13 1_555 1_555
N15 N14 1_555 1_555
N16 N15 1_555 1_555
C1 N1 1_555 1_555
C2 N4 1_555 1_555
H1 C2 1_555 1_555
H2 C2 1_555 1_555
H3 C2 1_555 1_555
C3 S1 1_555 1_555
C4 N8 1_555 1_555
H4 C4 1_555 1_555
H5 C4 1_555 1_555
H6 C4 1_555 1_555
C5 N9 1_555 1_555
C6 N12 1_555 1_555
H7 C6 1_555 1_555
H8 C6 1_555 1_555
H9 C6 1_555 1_555
C7 S2 1_555 1_555
C8 N16 1_555 1_555
H10 C8 1_555 1_555
H11 C8 1_555 1_555
H12 C8 1_555 1_555
Cu2A O43 1_555 1_555
Cu2C O17 1_555 1_555
O17C Cu2 1_555 1_555
O43A Cu2 1_555 1_555
Mo2 O8 1_555 1_555
Mo3 O9 1_555 1_555
Mo3 O10 1_555 1_555
Mo4 O11 1_555 1_555
Mo5 O12 1_555 1_555
Mo5 O18 1_555 1_555
Mo6 O13 1_555 1_555
Mo6 O20 1_555 1_555
Mo7 O14 1_555 1_555
Mo7 O22 1_555 1_555
Mo8 O15 1_555 1_555
Mo8 O24 1_555 1_555
Mo9 O16 1_555 1_555
Mo9 O26 1_555 1_555
Mo9 O28 1_555 1_555
Mo10 O30 1_555 1_555
Mo10 O31 1_555 1_555
Mo11 O32 1_555 1_555
Mo11 O33 1_555 1_555
Mo11 O35 1_555 1_555
Mo12 O29 1_555 1_555
Mo12 O34 1_555 1_555
Mo12 O36 1_555 1_555
Mo12 O37 1_555 1_555
N4 C1 1_555 1_555
N5 C3 1_555 1_555
N8 C3 1_555 1_555
N12 C5 1_555 1_555
N13 C7 1_555 1_555
N16 C7 1_555 1_555
Cu2A O43A 1_555 1_555

#END
