
#######################################################################
#
#                 Cambridge Crystallographic Data Centre
#                                CCDC 
#
#######################################################################
#
# If this CIF has been generated from an entry in the Cambridge 
# Structural Database, then it will include bibliographic, chemical, 
# crystal, experimental, refinement or atomic coordinate data resulting 
# from the CCDC's data processing and validation procedures.
#
#######################################################################

data_JOFKIA
_symmetry_cell_setting           rhombohedral
_symmetry_space_group_name_H-M   'R -3'
_symmetry_Int_Tables_number      148
_space_group_name_Hall           '-R 3'
loop_
_symmetry_equiv_pos_site_id
_symmetry_equiv_pos_as_xyz
1 x,y,z
2 -y,x-y,z
3 -x+y,-x,z
4 2/3+x,1/3+y,1/3+z
5 2/3-y,1/3+x-y,1/3+z
6 2/3-x+y,1/3-x,1/3+z
7 1/3+x,2/3+y,2/3+z
8 1/3-y,2/3+x-y,2/3+z
9 1/3-x+y,2/3-x,2/3+z
10 -x,-y,-z
11 y,-x+y,-z
12 x-y,x,-z
13 1/3-x,2/3-y,2/3-z
14 1/3+y,2/3-x+y,2/3-z
15 1/3+x-y,2/3+x,2/3-z
16 2/3-x,1/3-y,1/3-z
17 2/3+y,1/3-x+y,1/3-z
18 2/3+x-y,1/3+x,1/3-z
_cell_length_a                   21.5760(4)
_cell_length_b                   21.5760(4)
_cell_length_c                   8.9043(4)
_cell_angle_alpha                90
_cell_angle_beta                 90
_cell_angle_gamma                120
_cell_volume                     3589.82
loop_
_atom_site_label
_atom_site_type_symbol
_atom_site_fract_x
_atom_site_fract_y
_atom_site_fract_z
Cu1 Cu 0.12252(3) 0.29704(3) 0.03555(5)
O1 O -0.09337(15) 0.14528(16) -0.1750(3)
O2 O 0.02682(17) 0.20088(19) -0.1786(4)
O3 O 0.17960(18) 0.39334(17) 0.1974(3)
H1 H 0.2048 0.4277 0.1449
H2 H 0.1760 0.4012 0.2858
N1 N 0.02317(18) 0.25323(18) 0.1232(4)
N2 N -0.08102(17) 0.22214(18) 0.2342(4)
N3 N -0.09485(18) 0.19543(18) 0.0904(4)
N4 N 0.02556(19) 0.2913(2) 0.3766(4)
H3 H -0.0026 0.2758 0.4524
H4 H 0.0625 0.2876 0.3909
C1 C -0.0325(2) 0.2140(2) 0.0297(4)
C2 C -0.0101(2) 0.2558(2) 0.2500(4)
C3 C -0.0308(2) 0.1858(2) -0.1207(5)
Cu1E Cu -0.15881(4) 0.21081(3) 0.36888(5)
Cu1K Cu -0.17452(4) 0.12252(3) -0.03555(5)
O1J O 0.14528(16) 0.23865(22) 0.1750(3)
N2G N 0.11119(18) 0.36351(25) -0.0991(4)
N3J N 0.19543(18) 0.29028(25) -0.0904(4)
O4 O 0.2817(2) 0.5277(2) 0.0974(5)
H5 H 0.3024 0.5198 0.0263
H6 H 0.2445 0.5282 0.0611
loop_
_geom_bond_atom_site_label_1
_geom_bond_atom_site_label_2
_geom_bond_site_symmetry_1
_geom_bond_site_symmetry_2
Cu1 O3 1_555 1_555
O1 C3 1_555 1_555
O2 C3 1_555 1_555
O3 H1 1_555 1_555
H2 O3 1_555 1_555
N1 Cu1 1_555 1_555
N2 N3 1_555 1_555
N3 C1 1_555 1_555
N4 H3 1_555 1_555
H4 N4 1_555 1_555
C1 N1 1_555 1_555
C2 N1 1_555 1_555
C3 C1 1_555 1_555
O4 H5 1_555 1_555
H6 O4 1_555 1_555
Cu1E N2 1_555 1_555
Cu1K O1 1_555 1_555
O1J Cu1 1_555 1_555
N2G Cu1 1_555 1_555
N3J Cu1 1_555 1_555
N2 C2 1_555 1_555
N3 Cu1K 1_555 1_555
N4 C2 1_555 1_555

#END
