
#######################################################################
#
#                 Cambridge Crystallographic Data Centre
#                                CCDC 
#
#######################################################################
#
# If this CIF has been generated from an entry in the Cambridge 
# Structural Database, then it will include bibliographic, chemical, 
# crystal, experimental, refinement or atomic coordinate data resulting 
# from the CCDC's data processing and validation procedures.
#
#######################################################################

data_JOFKUM
_symmetry_cell_setting           monoclinic
_symmetry_space_group_name_H-M   'P 21/c'
_symmetry_Int_Tables_number      14
_space_group_name_Hall           '-P 2ybc'
loop_
_symmetry_equiv_pos_site_id
_symmetry_equiv_pos_as_xyz
1 x,y,z
2 -x,1/2+y,1/2-z
3 -x,-y,-z
4 x,1/2-y,1/2+z
_cell_length_a                   18.274(3)
_cell_length_b                   16.737(3)
_cell_length_c                   26.438(3)
_cell_angle_alpha                90
_cell_angle_beta                 131.755(7)
_cell_angle_gamma                90
_cell_volume                     6032.23
loop_
_atom_site_label
_atom_site_type_symbol
_atom_site_fract_x
_atom_site_fract_y
_atom_site_fract_z
W1 W 0.64899(3) 1.24017(3) 0.79353(2)
W2 W 0.56330(3) 1.11400(3) 0.66092(2)
W3 W 0.76817(3) 1.06361(3) 0.82390(2)
W4 W 0.88258(3) 1.34749(3) 0.88350(2)
W5 W 0.66424(3) 1.40650(3) 0.70896(2)
W6 W 0.57389(3) 1.28192(3) 0.57565(2)
W7 W 0.70136(3) 1.09233(3) 0.60513(2)
W8 W 0.90431(3) 1.03717(3) 0.76646(2)
W9 W 1.00044(3) 1.17215(3) 0.90981(2)
W10 W 1.00902(3) 1.32983(3) 0.83068(2)
W11 W 0.78921(4) 1.38302(3) 0.65464(2)
W12 W 0.91871(3) 1.19336(3) 0.68950(2)
P1 P 0.78484(17) 1.22188(17) 0.74178(12)
O1 O 0.7201(5) 1.1796(4) 0.7507(3)
O2 O 0.8768(4) 1.2533(4) 0.8106(3)
O3 O 0.7277(5) 1.2917(4) 0.6924(3)
O4 O 0.8140(5) 1.1639(5) 0.7135(3)
O5 O 0.4531(5) 1.0692(5) 0.6088(4)
O6 O 0.7827(6) 0.9851(5) 0.8697(4)
O7 O 0.5485(5) 1.1799(5) 0.7143(4)
O8 O 0.6385(5) 1.0431(5) 0.7370(4)
O9 O 0.7066(5) 1.1394(5) 0.8397(4)
O10 O 0.7751(5) 1.2865(5) 0.8587(3)
O11 O 0.6233(5) 1.3260(5) 0.7379(3)
O12 O 0.5400(5) 1.2086(5) 0.6126(4)
O13 O 0.6276(5) 1.0759(5) 0.6327(4)
O14 O 0.8207(5) 1.0275(5) 0.7852(4)
O15 O 0.8881(5) 1.1199(4) 0.8865(3)
O16 O 0.9065(5) 1.4093(5) 0.9428(4)
O17 O 0.7860(5) 1.4026(5) 0.7996(3)
O18 O 0.6127(6) 1.4913(5) 0.7072(4)
O19 O 0.5633(5) 1.3681(5) 0.6182(4)
O20 O 0.4670(6) 1.2916(6) 0.4947(4)
O21 O 0.6357(5) 1.1924(5) 0.5719(3)
O22 O 0.6405(6) 1.0367(6) 0.5340(4)
O23 O 0.7943(5) 1.0160(5) 0.6738(4)
O24 O 0.9652(6) 0.9495(5) 0.7942(4)
O25 O 0.9841(5) 1.1011(5) 0.8471(3)
O26 O 1.0964(5) 1.1312(5) 0.9849(4)
O27 O 0.9695(5) 1.2623(5) 0.9383(3)
O28 O 0.9775(5) 1.3823(5) 0.8781(4)
O29 O 0.7276(5) 1.4459(5) 0.6790(4)
O30 O 0.6587(6) 1.3493(5) 0.5759(4)
O31 O 0.8061(6) 1.1365(5) 0.6133(4)
O32 O 0.9614(5) 1.0937(5) 0.7368(4)
O33 O 1.0668(5) 1.2466(5) 0.8979(3)
O34 O 0.9042(5) 1.3823(5) 0.7491(4)
O35 O 0.8398(5) 1.2882(5) 0.6490(4)
O36 O 0.9938(5) 1.2500(5) 0.7727(4)
O37 O 1.1087(6) 1.3821(6) 0.8585(4)
O38 O 0.8123(6) 1.4541(5) 0.6217(4)
O39 O 0.9896(6) 1.1974(6) 0.6694(4)
O40 O 0.5903(5) 1.2671(5) 0.8211(4)
Ag1 Ag 0.53360(7) 0.91178(7) 0.72971(5)
Ag2 Ag 1.35861(7) 0.68658(7) 1.05055(6)
Ag3 Ag 1.40037(12) 0.92240(12) 1.10791(10)
S1 S 0.6536(2) 0.7463(2) 0.83279(17)
S2 S 0.97454(19) 0.83000(19) 0.92012(15)
S3 S 0.7790(2) 0.8419(2) 0.76643(15)
S4 S 0.8459(2) 0.5968(2) 0.93795(16)
N1 N 0.6037(6) 0.8962(7) 0.8396(5)
N2 N 0.6126(8) 0.9394(8) 0.8874(6)
N3 N 0.6464(8) 0.8948(9) 0.9394(5)
N4 N 0.6614(7) 0.8240(8) 0.9277(5)
N5 N 1.1472(6) 0.7486(6) 0.9799(4)
N6 N 1.2403(6) 0.7736(6) 1.0122(5)
N7 N 1.2482(6) 0.8503(6) 1.0156(5)
N8 N 1.1579(6) 0.8783(6) 0.9850(4)
N9 N 0.5771(7) 0.8590(6) 0.6704(5)
N10 N 0.5083(7) 0.8611(7) 0.6026(5)
N11 N 0.5468(7) 0.8548(7) 0.5759(4)
N12 N 0.6437(6) 0.8471(6) 0.6282(4)
N13 N 0.6717(7) 0.5138(6) 0.8492(5)
N14 N 0.6308(7) 0.4516(6) 0.8568(5)
N15 N 0.6865(7) 0.4298(6) 0.9192(5)
N16 N 0.7668(7) 0.4768(6) 0.9546(5)
C1 C 0.8241(7) 0.7181(7) 0.8567(5)
C2 C 0.7824(7) 0.7690(7) 0.8797(6)
H1 H 0.7886 0.8250 0.8735
H2 H 0.8202 0.7601 0.9277
C3 C 0.9360(7) 0.7261(7) 0.9063(5)
H3 H 0.9608 0.6972 0.8886
H4 H 0.9640 0.7021 0.9493
C4 C 0.7777(8) 0.7356(7) 0.7831(5)
H5 H 0.7104 0.7169 0.7522
H6 H 0.8129 0.7056 0.7737
C5 C 0.8038(8) 0.6272(7) 0.8567(5)
H7 H 0.8370 0.5958 0.8463
H8 H 0.7340 0.6170 0.8217
C6 C 0.6377(8) 0.8250(9) 0.8679(6)
C7 C 0.7004(9) 0.7580(10) 0.9766(7)
H9 H 0.6763 0.7628 0.9994
H10 H 0.7708 0.7603 1.0092
H11 H 0.6795 0.7079 0.9529
C8 C 1.0980(8) 0.8158(7) 0.9628(6)
C9 C 1.1370(9) 0.9634(7) 0.9776(7)
H12 H 1.1344 0.9802 1.0111
H13 H 1.0750 0.9738 0.9331
H14 H 1.1877 0.9923 0.9837
C10 C 0.6621(8) 0.8495(7) 0.6857(6)
C11 C 0.7085(10) 0.8388(9) 0.6155(7)
H15 H 0.7203 0.7832 0.6146
H16 H 0.7695 0.8651 0.6508
H17 H 0.6790 0.8627 0.5726
C12 C 0.7579(8) 0.5261(7) 0.9117(6)
C13 C 0.8468(9) 0.4672(9) 1.0281(5)
H18 H 0.8457 0.5109 1.0511
H19 H 0.9085 0.4665 1.0391
H20 H 0.8383 0.4178 1.0422
O41 O 1.5118(16) 0.9275(10) 1.2322(10)
O42 O 1.516(3) 0.826(2) 1.1231(17)
Ag1A Ag 0.46640(7) 0.41178(7) 0.77029(5)
Ag2B Ag 0.64139(7) 0.31342(7) 0.94945(6)
Ag2C Ag 0.35861(7) 0.81342(7) 0.55055(6)
Ag3B Ag 0.59963(12) 1.07760(12) 0.89209(10)
N2B N 1.3874(8) 1.0606(8) 1.1126(6)
N10C N 1.5083(7) 0.6389(7) 1.1026(5)
N14A N 0.3692(7) 0.9516(6) 0.6432(5)
N15B N 1.3135(7) 0.5702(6) 1.0808(5)
O43 O 1.429(2) 1.0126(18) 1.0033(16)
O44 O 0.6626(12) 0.6261(10) 0.6431(7)
O45 O 0.8010(13) 0.6355(12) 0.6230(10)
O46 O 0.900(2) 0.5548(16) 0.7946(14)
Ag4? Ag 1.3795(5) 0.9191(5) 1.0401(5)
O47? O 1.520(4) 0.888(3) 1.220(3)
O48? O 1.4657(18) 0.8457(18) 1.0777(14)
O49? O 1.455(6) 0.951(4) 1.039(4)
loop_
_geom_bond_atom_site_label_1
_geom_bond_atom_site_label_2
_geom_bond_site_symmetry_1
_geom_bond_site_symmetry_2
W1 O1 1_555 1_555
W2 O1 1_555 1_555
W3 O1 1_555 1_555
W4 O2 1_555 1_555
W5 O3 1_555 1_555
W6 O3 1_555 1_555
W7 O4 1_555 1_555
W8 O4 1_555 1_555
W9 O2 1_555 1_555
W10 O2 1_555 1_555
W11 O3 1_555 1_555
W12 O4 1_555 1_555
P1 O1 1_555 1_555
O2 P1 1_555 1_555
O3 P1 1_555 1_555
O4 P1 1_555 1_555
O5 W2 1_555 1_555
O6 W3 1_555 1_555
O7 W1 1_555 1_555
O8 W2 1_555 1_555
O9 W1 1_555 1_555
O10 W1 1_555 1_555
O11 W1 1_555 1_555
O12 W2 1_555 1_555
O13 W2 1_555 1_555
O14 W3 1_555 1_555
O15 W3 1_555 1_555
O16 W4 1_555 1_555
O17 W4 1_555 1_555
O18 W5 1_555 1_555
O19 W5 1_555 1_555
O20 W6 1_555 1_555
O21 W6 1_555 1_555
O22 W7 1_555 1_555
O23 W7 1_555 1_555
O24 W8 1_555 1_555
O25 W8 1_555 1_555
O26 W9 1_555 1_555
O27 W4 1_555 1_555
O28 W4 1_555 1_555
O29 W5 1_555 1_555
O30 W6 1_555 1_555
O31 W7 1_555 1_555
O32 W8 1_555 1_555
O33 W9 1_555 1_555
O34 W10 1_555 1_555
O35 W11 1_555 1_555
O36 W10 1_555 1_555
O37 W10 1_555 1_555
O38 W11 1_555 1_555
O39 W12 1_555 1_555
O40 W1 1_555 1_555
Ag1 N1 1_555 1_555
Ag2 N6 1_555 1_555
Ag3 N7 1_555 1_555
S1 C2 1_555 1_555
S2 C3 1_555 1_555
S3 C4 1_555 1_555
S4 C5 1_555 1_555
N1 N2 1_555 1_555
N2 N3 1_555 1_555
N3 N4 1_555 1_555
N4 C6 1_555 1_555
N5 N6 1_555 1_555
N6 N7 1_555 1_555
N7 N8 1_555 1_555
N8 C8 1_555 1_555
N9 Ag1 1_555 1_555
N10 N9 1_555 1_555
N11 N10 1_555 1_555
N12 N11 1_555 1_555
N13 N14 1_555 1_555
N14 N15 1_555 1_555
N15 N16 1_555 1_555
N16 C12 1_555 1_555
C1 C2 1_555 1_555
C2 H1 1_555 1_555
H2 C2 1_555 1_555
C3 C1 1_555 1_555
H3 C3 1_555 1_555
H4 C3 1_555 1_555
C4 C1 1_555 1_555
H5 C4 1_555 1_555
H6 C4 1_555 1_555
C5 C1 1_555 1_555
H7 C5 1_555 1_555
H8 C5 1_555 1_555
C6 S1 1_555 1_555
C7 N4 1_555 1_555
H9 C7 1_555 1_555
H10 C7 1_555 1_555
H11 C7 1_555 1_555
C8 S2 1_555 1_555
C9 N8 1_555 1_555
H12 C9 1_555 1_555
H13 C9 1_555 1_555
H14 C9 1_555 1_555
C10 S3 1_555 1_555
C11 N12 1_555 1_555
H15 C11 1_555 1_555
H16 C11 1_555 1_555
H17 C11 1_555 1_555
C12 S4 1_555 1_555
C13 N16 1_555 1_555
H18 C13 1_555 1_555
H19 C13 1_555 1_555
H20 C13 1_555 1_555
O41 Ag3 1_555 1_555
O42 Ag3 1_555 1_555
Ag1A N14 1_555 1_555
Ag2B N15 1_555 1_555
Ag2C N10 1_555 1_555
Ag3B N2 1_555 1_555
N2B Ag3 1_555 1_555
N10C Ag2 1_555 1_555
N14A Ag1 1_555 1_555
N15B Ag2 1_555 1_555
W2 O7 1_555 1_555
W3 O8 1_555 1_555
W3 O9 1_555 1_555
W4 O10 1_555 1_555
W5 O11 1_555 1_555
W5 O17 1_555 1_555
W6 O12 1_555 1_555
W6 O19 1_555 1_555
W7 O13 1_555 1_555
W7 O21 1_555 1_555
W8 O14 1_555 1_555
W8 O23 1_555 1_555
W9 O15 1_555 1_555
W9 O25 1_555 1_555
W9 O27 1_555 1_555
W10 O28 1_555 1_555
W10 O33 1_555 1_555
W11 O29 1_555 1_555
W11 O30 1_555 1_555
W11 O34 1_555 1_555
W12 O31 1_555 1_555
W12 O32 1_555 1_555
W12 O35 1_555 1_555
W12 O36 1_555 1_555
N1 C6 1_555 1_555
N5 C8 1_555 1_555
N9 C10 1_555 1_555
N12 C10 1_555 1_555
N13 C12 1_555 1_555

#END
