
#######################################################################
#
#                 Cambridge Crystallographic Data Centre
#                                CCDC 
#
#######################################################################
#
# If this CIF has been generated from an entry in the Cambridge 
# Structural Database, then it will include bibliographic, chemical, 
# crystal, experimental, refinement or atomic coordinate data resulting 
# from the CCDC's data processing and validation procedures.
#
#######################################################################

data_JOFKOG
_symmetry_cell_setting           orthorhombic
_symmetry_space_group_name_H-M   'P b c a'
_symmetry_Int_Tables_number      61
_space_group_name_Hall           '-P 2ac 2ab'
loop_
_symmetry_equiv_pos_site_id
_symmetry_equiv_pos_as_xyz
1 x,y,z
2 1/2-x,-y,1/2+z
3 -x,1/2+y,1/2-z
4 1/2+x,1/2-y,-z
5 -x,-y,-z
6 1/2+x,y,1/2-z
7 x,1/2-y,1/2+z
8 1/2-x,1/2+y,z
_cell_length_a                   24.3102(14)
_cell_length_b                   18.5783(11)
_cell_length_c                   25.6814(15)
_cell_angle_alpha                90
_cell_angle_beta                 90
_cell_angle_gamma                90
_cell_volume                     11598.8
loop_
_atom_site_label
_atom_site_type_symbol
_atom_site_fract_x
_atom_site_fract_y
_atom_site_fract_z
P1 P 0.58081(10) 0.68871(14) 0.86350(9)
Mo1 Mo 0.43635(3) 0.71770(5) 0.86857(3)
Mo2 Mo 0.51373(4) 0.80600(6) 0.77469(4)
Mo3 Mo 0.49191(4) 0.62071(6) 0.76480(3)
Mo4 Mo 0.50645(4) 0.61751(5) 0.97132(3)
Mo5 Mo 0.52873(4) 0.80978(5) 0.95832(3)
Mo6 Mo 0.61899(4) 0.87311(5) 0.86240(4)
Mo7 Mo 0.65693(4) 0.75337(5) 0.75530(3)
Mo8 Mo 0.63656(4) 0.56955(5) 0.76929(3)
Mo9 Mo 0.54276(4) 0.50465(5) 0.86949(4)
Mo10 Mo 0.64329(3) 0.56910(5) 0.95318(3)
Mo11 Mo 0.66742(4) 0.76323(6) 0.96202(3)
Mo12 Mo 0.72546(3) 0.66055(5) 0.85365(3)
Ag1 Ag 0.75276(4) 0.94973(5) 0.89938(3)
Ag2 Ag 0.79148(4) 0.88829(5) 1.02616(3)
Ag3 Ag 0.68847(3) 0.79354(4) 1.10520(3)
S1 S 0.67357(11) 0.99502(14) 1.11345(10)
S2 S 0.86018(13) 0.8195(2) 0.81305(11)
O1 O 0.5280(3) 0.7027(5) 0.8331(3)
O2 O 0.5729(3) 0.6245(5) 0.8998(3)
O3 O 0.5937(3) 0.7568(5) 0.8974(3)
O4 O 0.6290(3) 0.6755(5) 0.8270(3)
O5 O 0.3702(3) 0.7368(4) 0.8795(4)
O6 O 0.4905(4) 0.8639(5) 0.7311(3)
O7 O 0.4541(3) 0.5768(5) 0.7212(3)
O8 O 0.4512(4) 0.7936(5) 0.8155(3)
O9 O 0.4907(4) 0.7122(5) 0.7397(3)
O10 O 0.4323(4) 0.6516(5) 0.8149(3)
O11 O 0.4537(4) 0.6535(4) 0.9189(3)
O12 O 0.4727(4) 0.7914(4) 0.9140(3)
O13 O 0.5518(3) 0.8613(5) 0.8201(3)
O14 O 0.5845(3) 0.7758(5) 0.7453(4)
O15 O 0.5618(3) 0.5980(5) 0.7478(4)
O16 O 0.5000(3) 0.5468(5) 0.8210(4)
O17 O 0.4638(3) 0.5954(5) 1.0192(3)
O18 O 0.5217(4) 0.7132(4) 0.9844(3)
O19 O 0.4988(4) 0.8575(4) 1.0057(3)
O20 O 0.5618(3) 0.8837(5) 0.9195(3)
O21 O 0.6329(3) 0.9602(4) 0.8553(4)
O22 O 0.6551(3) 0.8303(5) 0.8099(3)
O23 O 0.6888(3) 0.7932(5) 0.7061(3)
O24 O 0.6521(4) 0.6612(5) 0.7312(3)
O25 O 0.6526(3) 0.5109(4) 0.7224(3)
O26 O 0.6044(4) 0.5169(5) 0.8196(4)
O27 O 0.5295(3) 0.4166(4) 0.8658(3)
O28 O 0.5016(3) 0.5316(5) 0.9266(4)
O29 O 0.5736(3) 0.5840(5) 0.9938(3)
O30 O 0.6042(3) 0.8000(5) 0.9920(3)
O31 O 0.6677(3) 0.8500(5) 0.9153(3)
O32 O 0.7214(4) 0.7234(4) 0.7979(3)
O33 O 0.7022(4) 0.5844(4) 0.8030(3)
O34 O 0.6075(3) 0.4994(5) 0.9179(4)
O35 O 0.6553(4) 0.6697(4) 0.9774(3)
O36 O 0.7134(4) 0.7272(5) 0.9039(3)
O37 O 0.6949(3) 0.5878(4) 0.9036(3)
O38 O 0.6781(3) 0.5222(5) 0.9979(3)
O39 O 0.7153(3) 0.7889(4) 1.0056(3)
O40 O 0.7926(3) 0.6442(5) 0.8564(4)
N1 N 0.7722(4) 0.9174(5) 0.8169(3)
N2 N 0.7386(4) 0.9461(5) 0.7793(4)
N3 N 0.7506(4) 0.9189(5) 0.7350(4)
N4 N 0.7926(4) 0.8716(5) 0.7429(3)
N5 N 0.8209(4) 0.8553(5) 0.9116(3)
N6 N 0.8354(4) 0.8348(6) 0.9602(4)
N7 N 0.8758(5) 0.7914(7) 0.9604(4)
N8 N 0.8881(4) 0.7803(6) 0.9095(4)
N9 N 0.7074(3) 0.9608(5) 1.0136(3)
N10 N 0.7087(4) 0.9952(5) 0.9674(4)
N11 N 0.6876(4) 1.0588(5) 0.9698(3)
N12 N 0.6716(3) 1.0661(5) 1.0196(3)
N13 N 0.6169(3) 0.8674(5) 1.1063(3)
N14 N 0.5640(4) 0.8441(5) 1.1124(3)
N15 N 0.5320(4) 0.8975(5) 1.1222(4)
N16 N 0.5638(4) 0.9575(5) 1.1233(4)
N17 N 0.7827(3) 1.0636(5) 1.1062(3)
N18 N 0.7698(4) 1.1335(5) 1.0951(3)
N19 N 0.8135(3) 1.1729(5) 1.0952(3)
N20 N 0.8563(3) 1.1293(4) 1.1074(3)
N21 N 0.7965(4) 0.8932(4) 1.1118(3)
N22 N 0.7640(4) 0.8496(5) 1.1404(4)
N23 N 0.7736(4) 0.8566(5) 1.1907(3)
N24 N 0.8128(4) 0.9060(5) 1.1941(4)
C1 C 0.8045(4) 0.8711(6) 0.7935(4)
C2 C 0.8164(4) 0.8308(6) 0.7000(4)
H1 H 0.8528 0.8483 0.6929
H2 H 0.7940 0.8365 0.6696
H3 H 0.8182 0.7808 0.7093
C3 C 0.8540(4) 0.8199(6) 0.8803(4)
C4 C 0.9339(7) 0.7337(11) 0.8943(7)
H4 H 0.9214 0.6847 0.8928
H5 H 0.9629 0.7377 0.9194
H6 H 0.9473 0.7480 0.8607
C5 C 0.6826(4) 1.0063(5) 1.0460(4)
C6 C 0.6447(5) 1.1332(6) 1.0362(5)
H7 H 0.6059 1.1299 1.0298
H8 H 0.6596 1.1729 1.0168
H9 H 0.6510 1.1407 1.0727
C7 C 0.6154(4) 0.9383(5) 1.1124(4)
C8 C 0.5397(6) 1.0271(7) 1.1362(6)
H10 H 0.5301 1.0279 1.1725
H11 H 0.5073 1.0346 1.1156
H12 H 0.5658 1.0645 1.1291
C9 C 0.8359(4) 1.0636(5) 1.1147(4)
C10 C 0.9127(4) 1.1575(6) 1.1113(5)
H13 H 0.9188 1.1762 1.1457
H14 H 0.9178 1.1953 1.0862
H15 H 0.9385 1.1195 1.1045
C11 C 0.8264(4) 0.9298(6) 1.1461(4)
C12 C 0.8347(5) 0.9252(8) 1.2450(5)
H16 H 0.8049 0.9352 1.2685
H17 H 0.8575 0.9672 1.2418
H18 H 0.8562 0.8860 1.2584
S3 S 0.87858(12) 0.99029(15) 1.13134(16)
Ag2G Ag 0.70852(4) 0.38829(5) 1.02616(3)
Ag3G Ag 0.81153(3) 1.29354(4) 1.10520(3)
O38G O 0.8219(3) 1.0222(5) 0.9979(3)
N19G N 0.6865(3) 0.6729(5) 1.0952(3)
O45 O 0.0638(4) 0.4969(6) 0.9987(5)
O41? O 0.5322(12) 0.6989(17) 0.8977(11)
O42? O 0.5687(12) 0.6190(18) 0.8275(11)
O43? O 0.5911(10) 0.7512(15) 0.8266(10)
O44? O 0.6327(11) 0.6696(15) 0.8927(10)
loop_
_geom_bond_atom_site_label_1
_geom_bond_atom_site_label_2
_geom_bond_site_symmetry_1
_geom_bond_site_symmetry_2
P1 O1 1_555 1_555
Mo1 O1 1_555 1_555
Mo2 O1 1_555 1_555
Mo3 O1 1_555 1_555
Mo4 O2 1_555 1_555
Mo5 O3 1_555 1_555
Mo6 O3 1_555 1_555
Mo7 O4 1_555 1_555
Mo8 O4 1_555 1_555
Mo9 O2 1_555 1_555
Mo10 O2 1_555 1_555
Mo11 O3 1_555 1_555
Mo12 O4 1_555 1_555
Ag1 N1 1_555 1_555
Ag2 O39 1_555 1_555
Ag3 O39 1_555 1_555
S1 C5 1_555 1_555
S2 C1 1_555 1_555
O2 P1 1_555 1_555
O3 P1 1_555 1_555
O4 P1 1_555 1_555
O5 Mo1 1_555 1_555
O6 Mo2 1_555 1_555
O7 Mo3 1_555 1_555
O8 Mo1 1_555 1_555
O9 Mo2 1_555 1_555
O10 Mo1 1_555 1_555
O11 Mo1 1_555 1_555
O12 Mo1 1_555 1_555
O13 Mo2 1_555 1_555
O14 Mo2 1_555 1_555
O15 Mo3 1_555 1_555
O16 Mo3 1_555 1_555
O17 Mo4 1_555 1_555
O18 Mo4 1_555 1_555
O19 Mo5 1_555 1_555
O20 Mo5 1_555 1_555
O21 Mo6 1_555 1_555
O22 Mo6 1_555 1_555
O23 Mo7 1_555 1_555
O24 Mo7 1_555 1_555
O25 Mo8 1_555 1_555
O26 Mo8 1_555 1_555
O27 Mo9 1_555 1_555
O28 Mo4 1_555 1_555
O29 Mo4 1_555 1_555
O30 Mo5 1_555 1_555
O31 Mo6 1_555 1_555
O32 Mo7 1_555 1_555
O33 Mo8 1_555 1_555
O34 Mo9 1_555 1_555
O35 Mo10 1_555 1_555
O36 Mo11 1_555 1_555
O37 Mo10 1_555 1_555
O38 Mo10 1_555 1_555
O39 Mo11 1_555 1_555
O40 Mo12 1_555 1_555
N1 N2 1_555 1_555
N2 N3 1_555 1_555
N3 N4 1_555 1_555
N4 C1 1_555 1_555
N5 Ag1 1_555 1_555
N6 Ag2 1_555 1_555
N7 N6 1_555 1_555
N8 N7 1_555 1_555
N9 Ag2 1_555 1_555
N10 Ag1 1_555 1_555
N11 N10 1_555 1_555
N12 N11 1_555 1_555
N13 Ag3 1_555 1_555
N14 N13 1_555 1_555
N15 N14 1_555 1_555
N16 N15 1_555 1_555
N17 N18 1_555 1_555
N18 N19 1_555 1_555
N19 N20 1_555 1_555
N20 C9 1_555 1_555
N21 Ag2 1_555 1_555
N22 Ag3 1_555 1_555
N23 N22 1_555 1_555
N24 N23 1_555 1_555
C1 N1 1_555 1_555
C2 N4 1_555 1_555
H1 C2 1_555 1_555
H2 C2 1_555 1_555
H3 C2 1_555 1_555
C3 S2 1_555 1_555
C4 N8 1_555 1_555
H4 C4 1_555 1_555
H5 C4 1_555 1_555
H6 C4 1_555 1_555
C5 N9 1_555 1_555
C6 N12 1_555 1_555
H7 C6 1_555 1_555
H8 C6 1_555 1_555
H9 C6 1_555 1_555
C7 S1 1_555 1_555
C8 N16 1_555 1_555
H10 C8 1_555 1_555
H11 C8 1_555 1_555
H12 C8 1_555 1_555
C9 N17 1_555 1_555
C10 N20 1_555 1_555
H13 C10 1_555 1_555
H14 C10 1_555 1_555
H15 C10 1_555 1_555
C11 N21 1_555 1_555
C12 N24 1_555 1_555
H16 C12 1_555 1_555
H17 C12 1_555 1_555
H18 C12 1_555 1_555
S3 C9 1_555 1_555
Ag2G O38 1_555 1_555
Ag3G N19 1_555 1_555
O38G Ag2 1_555 1_555
N19G Ag3 1_555 1_555
Mo2 O8 1_555 1_555
Mo3 O9 1_555 1_555
Mo3 O10 1_555 1_555
Mo4 O11 1_555 1_555
Mo5 O12 1_555 1_555
Mo5 O18 1_555 1_555
Mo6 O13 1_555 1_555
Mo6 O20 1_555 1_555
Mo7 O14 1_555 1_555
Mo7 O22 1_555 1_555
Mo8 O15 1_555 1_555
Mo8 O24 1_555 1_555
Mo9 O16 1_555 1_555
Mo9 O26 1_555 1_555
Mo9 O28 1_555 1_555
Mo10 O29 1_555 1_555
Mo10 O34 1_555 1_555
Mo11 O30 1_555 1_555
Mo11 O31 1_555 1_555
Mo11 O35 1_555 1_555
Mo12 O32 1_555 1_555
Mo12 O33 1_555 1_555
Mo12 O36 1_555 1_555
Mo12 O37 1_555 1_555
N5 N6 1_555 1_555
N5 C3 1_555 1_555
N8 C3 1_555 1_555
N9 N10 1_555 1_555
N12 C5 1_555 1_555
N13 C7 1_555 1_555
N16 C7 1_555 1_555
N21 N22 1_555 1_555
N24 C11 1_555 1_555
C11 S3 1_555 1_555

#END
