
#######################################################################
#
#                 Cambridge Crystallographic Data Centre
#                                CCDC 
#
#######################################################################
#
# If this CIF has been generated from an entry in the Cambridge 
# Structural Database, then it will include bibliographic, chemical, 
# crystal, experimental, refinement or atomic coordinate data resulting 
# from the CCDC's data processing and validation procedures.
#
#######################################################################

data_JOFKAS
_symmetry_cell_setting           tetragonal
_symmetry_space_group_name_H-M   'P 4 n c'
_symmetry_Int_Tables_number      104
_space_group_name_Hall           'P 4 -2n'
loop_
_symmetry_equiv_pos_site_id
_symmetry_equiv_pos_as_xyz
1 x,y,z
2 -x,-y,z
3 -y,x,z
4 y,-x,z
5 1/2+x,1/2-y,1/2+z
6 1/2-x,1/2+y,1/2+z
7 1/2-y,1/2-x,1/2+z
8 1/2+y,1/2+x,1/2+z
_cell_length_a                   14.703(2)
_cell_length_b                   14.703(2)
_cell_length_c                   19.139(5)
_cell_angle_alpha                90
_cell_angle_beta                 90
_cell_angle_gamma                90
_cell_volume                     4137.43
loop_
_atom_site_label
_atom_site_type_symbol
_atom_site_fract_x
_atom_site_fract_y
_atom_site_fract_z
Cu1 Cu 0.33654(12) 0.53456(14) 0.15134(12)
S1 S 0.1321(3) 0.4827(3) 0.0404(2)
S2 S -0.1299(3) 0.5268(3) 0.2463(2)
N1 N 0.2946(8) 0.4260(8) 0.0960(6)
N2 N 0.3509(7) 0.3545(8) 0.0891(7)
N3 N 0.3205(9) 0.2982(9) 0.0429(7)
N4 N 0.2420(8) 0.3324(8) 0.0185(6)
N5 N -0.2933(9) 0.4384(8) 0.2470(6)
N6 N -0.3458(10) 0.3881(9) 0.2935(8)
N7 N -0.2976(13) 0.3784(11) 0.3492(8)
N8 N -0.2194(10) 0.4199(10) 0.3411(7)
C1 C 0.0000 0.5000 0.1471(8)
C2 C 0.0494(8) 0.4314(9) 0.1004(7)
H1 H 0.0046 0.3984 0.0733
H2 H 0.0807 0.3879 0.1299
C3 C -0.0677(9) 0.4464(10) 0.1915(7)
H3 H -0.0356 0.4028 0.2205
H4 H -0.1096 0.4135 0.1616
C4 C 0.2255(9) 0.4105(9) 0.0536(7)
C5 C 0.1905(13) 0.2903(15) -0.0392(11)
H5 H 0.2228 0.2989 -0.0823
H6 H 0.1316 0.3182 -0.0425
H7 H 0.1835 0.2264 -0.0303
C6 C -0.2178(10) 0.4595(10) 0.2778(7)
C7 C -0.1471(14) 0.4166(16) 0.3933(10)
H8 H -0.1465 0.4724 0.4193
H9 H -0.0895 0.4087 0.3703
H10 H -0.1576 0.3666 0.4244
Cl1 Cl 0.5000 0.5000 0.1639(5)
S1A S -0.1321(3) 0.5173(3) 0.0404(2)
S2A S 0.1299(3) 0.4732(3) 0.2463(2)
N1A N -0.2946(8) 0.5740(8) 0.0960(6)
N2A N -0.3509(7) 0.6455(8) 0.0891(7)
N3A N -0.3205(9) 0.7018(9) 0.0429(7)
N4A N -0.2420(8) 0.6676(8) 0.0185(6)
N5A N 0.2933(9) 0.5616(8) 0.2470(6)
N6A N 0.3458(10) 0.6119(9) 0.2935(8)
N7A N 0.2976(13) 0.6216(11) 0.3492(8)
N8A N 0.2194(10) 0.5801(10) 0.3411(7)
C2A C -0.0494(8) 0.5686(9) 0.1004(7)
H1A H -0.0046 0.6016 0.0733
H2A H -0.0807 0.6121 0.1299
C3A C 0.0677(9) 0.5536(10) 0.1915(7)
H3A H 0.0356 0.5972 0.2205
H4A H 0.1096 0.5865 0.1616
C4A C -0.2255(9) 0.5895(9) 0.0536(7)
C5A C -0.1905(13) 0.7097(15) -0.0392(11)
H5A H -0.2228 0.7011 -0.0823
H6A H -0.1316 0.6818 -0.0425
H7A H -0.1835 0.7736 -0.0303
C6A C 0.2178(10) 0.5405(10) 0.2778(7)
C7A C 0.1471(14) 0.5834(16) 0.3933(10)
H8A H 0.1465 0.5276 0.4193
H9A H 0.0895 0.5913 0.3703
H10A H 0.1576 0.6334 0.4244
Cu1A Cu -0.33654(12) 0.46544(14) 0.15134(12)
Cu1B Cu -0.53456(14) 0.33654(12) 0.15134(12)
S1B S -0.4827(3) 0.1321(3) 0.0404(2)
S2B S -0.5268(3) -0.1299(3) 0.2463(2)
N1B N -0.4260(8) 0.2946(8) 0.0960(6)
N2B N -0.3545(8) 0.3509(7) 0.0891(7)
N3B N -0.2982(9) 0.3205(9) 0.0429(7)
N4B N -0.3324(8) 0.2420(8) 0.0185(6)
N5B N -0.4384(8) -0.2933(9) 0.2470(6)
N6B N -0.3881(9) -0.3458(10) 0.2935(8)
N7B N -0.3784(11) -0.2976(13) 0.3492(8)
N8B N -0.4199(10) -0.2194(10) 0.3411(7)
C1B C -0.5000 0.0000 0.1471(8)
C2B C -0.4314(9) 0.0494(8) 0.1004(7)
H1B H -0.3984 0.0046 0.0733
H2B H -0.3879 0.0807 0.1299
C3B C -0.4464(10) -0.0677(9) 0.1915(7)
H3B H -0.4028 -0.0356 0.2205
H4B H -0.4135 -0.1096 0.1616
C4B C -0.4105(9) 0.2255(9) 0.0536(7)
C5B C -0.2903(15) 0.1905(13) -0.0392(11)
H5B H -0.2989 0.2228 -0.0823
H6B H -0.3182 0.1316 -0.0425
H7B H -0.2264 0.1835 -0.0303
C6B C -0.4595(10) -0.2178(10) 0.2778(7)
C7B C -0.4166(16) -0.1471(14) 0.3933(10)
H8B H -0.4724 -0.1465 0.4193
H9B H -0.4087 -0.0895 0.3703
H10B H -0.3666 -0.1576 0.4244
S1C S -0.5173(3) -0.1321(3) 0.0404(2)
S2C S -0.4732(3) 0.1299(3) 0.2463(2)
N1C N -0.5740(8) -0.2946(8) 0.0960(6)
N2C N -0.6455(8) -0.3509(7) 0.0891(7)
N3C N -0.7018(9) -0.3205(9) 0.0429(7)
N4C N -0.6676(8) -0.2420(8) 0.0185(6)
N5C N -0.5616(8) 0.2933(9) 0.2470(6)
N6C N -0.6119(9) 0.3458(10) 0.2935(8)
N7C N -0.6216(11) 0.2976(13) 0.3492(8)
N8C N -0.5801(10) 0.2194(10) 0.3411(7)
C2C C -0.5686(9) -0.0494(8) 0.1004(7)
H1C H -0.6016 -0.0046 0.0733
H2C H -0.6121 -0.0807 0.1299
C3C C -0.5536(10) 0.0677(9) 0.1915(7)
H3C H -0.5972 0.0356 0.2205
H4C H -0.5865 0.1096 0.1616
C4C C -0.5895(9) -0.2255(9) 0.0536(7)
C5C C -0.7097(15) -0.1905(13) -0.0392(11)
H5C H -0.7011 -0.2228 -0.0823
H6C H -0.6818 -0.1316 -0.0425
H7C H -0.7736 -0.1835 -0.0303
C6C C -0.5405(10) 0.2178(10) 0.2778(7)
C7C C -0.5834(16) 0.1471(14) 0.3933(10)
H8C H -0.5276 0.1465 0.4193
H9C H -0.5913 0.0895 0.3703
H10C H -0.6334 0.1576 0.4244
Cu1C Cu -0.46544(14) -0.33654(12) 0.15134(12)
Cu1_2 Cu -0.66346(12) -0.46544(14) 0.15134(12)
Cu1A_2 Cu 0.66346(12) 0.46544(14) 0.15134(12)
Cu1B_2 Cu 0.46544(14) 0.33654(12) 0.15134(12)
Cu1C_2 Cu -0.46544(14) 0.66346(12) 0.15134(12)
Cu1C_3 Cu 0.53456(14) 0.66346(12) 0.15134(12)
N2_2 N -0.6491(7) 0.3545(8) 0.0891(7)
N2A_2 N -0.3509(7) -0.3545(8) 0.0891(7)
N2C_2 N 0.3545(8) 0.6491(7) 0.0891(7)
Cl1_2 Cl -0.5000 -0.5000 0.1639(5)
Cl1_3 Cl -0.5000 0.5000 0.1639(5)
P1 P 0.5000 0.5000 0.7203(6)
W1 W 0.51100(5) 0.67015(5) 0.58815(3)
W2 W 0.33942(3) 0.68088(3) 0.71947(8)
W3 W 0.50968(6) 0.67140(6) 0.84992(3)
O1 O 0.4404(14) 0.5615(14) 0.6744(11)
O2 O 0.5919(10) 0.5804(9) 0.5561(8)
O3 O 0.5941(13) 0.5927(12) 0.8841(10)
O4 O 0.2647(7) 0.7655(7) 0.7173(16)
O5 O 0.2886(11) 0.6031(11) 0.7895(9)
O6 O 0.5187(11) 0.7541(10) 0.5278(7)
O7 O 0.5989(11) 0.7077(9) 0.6525(9)
O8 O 0.5111(10) 0.7446(12) 0.9134(8)
O9 O 0.4215(14) 0.7230(12) 0.7886(9)
O10 O 0.4254(11) 0.7177(10) 0.6520(8)
O11 O 0.4466(16) 0.5652(16) 0.7676(12)
O1A O 0.5596(14) 0.4385(14) 0.6744(11)
O11A O 0.5534(16) 0.4348(16) 0.7676(12)
O1B O 0.4385(14) 0.4404(14) 0.6744(11)
O11B O 0.4348(16) 0.4466(16) 0.7676(12)
O1C O 0.5615(14) 0.5596(14) 0.6744(11)
O11C O 0.5652(16) 0.5534(16) 0.7676(12)
W1A W 0.48900(5) 0.32985(5) 0.58815(3)
W2A W 0.66058(3) 0.31912(3) 0.71947(8)
W3A W 0.49032(6) 0.32860(6) 0.84992(3)
O2A O 0.4081(10) 0.4196(9) 0.5561(8)
O3A O 0.4059(13) 0.4073(12) 0.8841(10)
O4A O 0.7353(7) 0.2345(7) 0.7173(16)
O5A O 0.7114(11) 0.3969(11) 0.7895(9)
O6A O 0.4813(11) 0.2459(10) 0.5278(7)
O7A O 0.4011(11) 0.2923(9) 0.6525(9)
O8A O 0.4889(10) 0.2554(12) 0.9134(8)
O9A O 0.5785(14) 0.2770(12) 0.7886(9)
O10A O 0.5746(11) 0.2823(10) 0.6520(8)
W1B W 0.32985(5) 0.51100(5) 0.58815(3)
W2B W 0.31912(3) 0.33942(3) 0.71947(8)
W3B W 0.32860(6) 0.50968(6) 0.84992(3)
O2B O 0.4196(9) 0.5919(10) 0.5561(8)
O3B O 0.4073(12) 0.5941(13) 0.8841(10)
O4B O 0.2345(7) 0.2647(7) 0.7173(16)
O5B O 0.3969(11) 0.2886(11) 0.7895(9)
O6B O 0.2459(10) 0.5187(11) 0.5278(7)
O7B O 0.2923(9) 0.5989(11) 0.6525(9)
O8B O 0.2554(12) 0.5111(10) 0.9134(8)
O9B O 0.2770(12) 0.4215(14) 0.7886(9)
O10B O 0.2823(10) 0.4254(11) 0.6520(8)
W1C W 0.67015(5) 0.48900(5) 0.58815(3)
W2C W 0.68088(3) 0.66058(3) 0.71947(8)
W3C W 0.67140(6) 0.49032(6) 0.84992(3)
O2C O 0.5804(9) 0.4081(10) 0.5561(8)
O3C O 0.5927(12) 0.4059(13) 0.8841(10)
O4C O 0.7655(7) 0.7353(7) 0.7173(16)
O5C O 0.6031(11) 0.7114(11) 0.7895(9)
O6C O 0.7541(10) 0.4813(11) 0.5278(7)
O7C O 0.7077(9) 0.4011(11) 0.6525(9)
O8C O 0.7446(12) 0.4889(10) 0.9134(8)
O9C O 0.7230(12) 0.5785(14) 0.7886(9)
O10C O 0.7177(10) 0.5746(11) 0.6520(8)
loop_
_geom_bond_atom_site_label_1
_geom_bond_atom_site_label_2
_geom_bond_site_symmetry_1
_geom_bond_site_symmetry_2
P1 O1 1_555 1_555
W1 O2 1_555 1_555
W2 O1 1_555 1_555
W3 O3 1_555 1_555
O1 O11 1_555 1_555
O2 W1C 1_555 1_555
O3 W3C 1_555 1_555
O4 W2 1_555 1_555
O5 W2 1_555 1_555
O6 W1 1_555 1_555
O7 W1 1_555 1_555
O8 W3 1_555 1_555
O9 W2 1_555 1_555
O10 W1 1_555 1_555
O11 P1 1_555 1_555
Cu1 N1 1_555 1_555
S1 C2 1_555 1_555
S2 C3 1_555 1_555
N1 N2 1_555 1_555
N2 N3 1_555 1_555
N3 N4 1_555 1_555
N4 C4 1_555 1_555
N5 N6 1_555 1_555
N6 N7 1_555 1_555
N7 N8 1_555 1_555
N8 C6 1_555 1_555
C1 C2 1_555 1_555
C2 H1 1_555 1_555
H2 C2 1_555 1_555
C3 C1 1_555 1_555
H3 C3 1_555 1_555
H4 C3 1_555 1_555
C4 S1 1_555 1_555
C5 N4 1_555 1_555
H5 C5 1_555 1_555
H6 C5 1_555 1_555
H7 C5 1_555 1_555
C6 S2 1_555 1_555
C7 N8 1_555 1_555
H8 C7 1_555 1_555
H9 C7 1_555 1_555
H10 C7 1_555 1_555
Cl1 Cu1 1_555 1_555
O1A P1 1_555 1_555
O11A P1 1_555 1_555
O1B P1 1_555 1_555
O11B P1 1_555 1_555
O1C P1 1_555 1_555
O11C P1 1_555 1_555
W1A O1B 1_555 1_555
W2A O1A 1_555 1_555
W3A O11A 1_555 1_555
O2A W1A 1_555 1_555
O3A W3A 1_555 1_555
O4A W2A 1_555 1_555
O5A W2A 1_555 1_555
O6A W1A 1_555 1_555
O7A W1A 1_555 1_555
O8A W3A 1_555 1_555
O9A W2A 1_555 1_555
O10A W1A 1_555 1_555
W1B O1 1_555 1_555
W2B O1B 1_555 1_555
W3B O5 1_555 1_555
O2B W1 1_555 1_555
O3B W3 1_555 1_555
O4B W2B 1_555 1_555
O5B W3A 1_555 1_555
O6B W1B 1_555 1_555
O7B W2 1_555 1_555
O8B W3B 1_555 1_555
O9B W2B 1_555 1_555
O10B W1B 1_555 1_555
W1C O1A 1_555 1_555
W2C O7 1_555 1_555
W3C O11A 1_555 1_555
O2C W1A 1_555 1_555
O3C W3A 1_555 1_555
O4C W2C 1_555 1_555
O5C W3 1_555 1_555
O6C W1C 1_555 1_555
O7C W2A 1_555 1_555
O8C W3C 1_555 1_555
O9C W2C 1_555 1_555
O10C W1C 1_555 1_555
S1A C2A 1_555 1_555
S2A C3A 1_555 1_555
N1A N2A 1_555 1_555
N2A N3A 1_555 1_555
N3A N4A 1_555 1_555
N4A C4A 1_555 1_555
N5A Cu1 1_555 1_555
N6A N5A 1_555 1_555
N7A N6A 1_555 1_555
N8A N7A 1_555 1_555
C2A C1 1_555 1_555
H1A C2A 1_555 1_555
H2A C2A 1_555 1_555
C3A C1 1_555 1_555
H3A C3A 1_555 1_555
H4A C3A 1_555 1_555
C4A S1A 1_555 1_555
C5A N4A 1_555 1_555
H5A C5A 1_555 1_555
H6A C5A 1_555 1_555
H7A C5A 1_555 1_555
C6A S2A 1_555 1_555
C7A N8A 1_555 1_555
H8A C7A 1_555 1_555
H9A C7A 1_555 1_555
H10A C7A 1_555 1_555
Cu1A N5 1_555 1_555
Cu1B N1B 1_555 1_555
S1B C2B 1_555 1_555
S2B C3B 1_555 1_555
N1B N2B 1_555 1_555
N2B Cu1A 1_555 1_555
N3B N2B 1_555 1_555
N4B N3B 1_555 1_555
N5B N6B 1_555 1_555
N6B N7B 1_555 1_555
N7B N8B 1_555 1_555
N8B C6B 1_555 1_555
C1B C2B 1_555 1_555
C2B H1B 1_555 1_555
H2B C2B 1_555 1_555
C3B C1B 1_555 1_555
H3B C3B 1_555 1_555
H4B C3B 1_555 1_555
C4B S1B 1_555 1_555
C5B N4B 1_555 1_555
H5B C5B 1_555 1_555
H6B C5B 1_555 1_555
H7B C5B 1_555 1_555
C6B S2B 1_555 1_555
C7B N8B 1_555 1_555
H8B C7B 1_555 1_555
H9B C7B 1_555 1_555
H10B C7B 1_555 1_555
S1C C2C 1_555 1_555
S2C C3C 1_555 1_555
N1C N2C 1_555 1_555
N2C N3C 1_555 1_555
N3C N4C 1_555 1_555
N4C C4C 1_555 1_555
N5C Cu1B 1_555 1_555
N6C N5C 1_555 1_555
N7C N6C 1_555 1_555
N8C N7C 1_555 1_555
C2C C1B 1_555 1_555
H1C C2C 1_555 1_555
H2C C2C 1_555 1_555
C3C C1B 1_555 1_555
H3C C3C 1_555 1_555
H4C C3C 1_555 1_555
C4C S1C 1_555 1_555
C5C N4C 1_555 1_555
H5C C5C 1_555 1_555
H6C C5C 1_555 1_555
H7C C5C 1_555 1_555
C6C S2C 1_555 1_555
C7C N8C 1_555 1_555
H8C C7C 1_555 1_555
H9C C7C 1_555 1_555
H10C C7C 1_555 1_555
Cu1C N5B 1_555 1_555
Cu1_2 N2C 1_555 1_555
Cu1A_2 Cl1 1_555 1_555
Cu1B_2 N2 1_555 1_555
Cu1C_2 N2A 1_555 1_555
Cu1C_3 Cl1 1_555 1_555
N2_2 Cu1B 1_555 1_555
N2A_2 Cu1C 1_555 1_555
N2C_2 Cu1 1_555 1_555
Cl1_2 Cu1C 1_555 1_555
Cl1_3 Cu1A 1_555 1_555
W1 O1C 1_555 1_555
W2 O10 1_555 1_555
W2 O11 1_555 1_555
W3 O9 1_555 1_555
W3 O11 1_555 1_555
W3 O11C 1_555 1_555
O1 O1B 1_555 1_555
O1 O1C 1_555 1_555
O11 O11B 1_555 1_555
O11 O11C 1_555 1_555
O11 W3B 1_555 1_555
N1 C4 1_555 1_555
N5 C6 1_555 1_555
Cl1 Cu1B_2 1_555 1_555
O1A O11A 1_555 1_555
O1A O1B 1_555 1_555
O1A O1C 1_555 1_555
O11A O11B 1_555 1_555
O11A O11C 1_555 1_555
O11A W2A 1_555 1_555
O1B O11B 1_555 1_555
O11B W3A 1_555 1_555
O11B W2B 1_555 1_555
O11B W3B 1_555 1_555
O1C O11C 1_555 1_555
O1C W2C 1_555 1_555
O11C W2C 1_555 1_555
O11C W3C 1_555 1_555
W2A O10A 1_555 1_555
W3A O9A 1_555 1_555
O2A W1B 1_555 1_555
O3A W3B 1_555 1_555
O5A W3C 1_555 1_555
O7A W2B 1_555 1_555
W1B O2B 1_555 1_555
W1B O7B 1_555 1_555
W2B O5B 1_555 1_555
W2B O10B 1_555 1_555
W3B O3B 1_555 1_555
W3B O9B 1_555 1_555
W1C O2C 1_555 1_555
W1C O7C 1_555 1_555
W2C O5C 1_555 1_555
W2C O10C 1_555 1_555
W3C O3C 1_555 1_555
W3C O9C 1_555 1_555
N1A C4A 1_555 1_555
N1A Cu1A 1_555 1_555
N5A C6A 1_555 1_555
N8A C6A 1_555 1_555
Cu1B Cl1_3 1_555 1_555
N1B C4B 1_555 1_555
N4B C4B 1_555 1_555
N5B C6B 1_555 1_555
N1C C4C 1_555 1_555
N1C Cu1C 1_555 1_555
N5C C6C 1_555 1_555
N8C C6C 1_555 1_555
Cu1_2 Cl1_2 1_555 1_555
Cu1C_2 Cl1_3 1_555 1_555

#END
