
#######################################################################
#
#                 Cambridge Crystallographic Data Centre
#                                CCDC 
#
#######################################################################
#
# If this CIF has been generated from an entry in the Cambridge 
# Structural Database, then it will include bibliographic, chemical, 
# crystal, experimental, refinement or atomic coordinate data resulting 
# from the CCDC's data processing and validation procedures.
#
#######################################################################

data_JOFLIB
_symmetry_cell_setting           orthorhombic
_symmetry_space_group_name_H-M   'P b c a'
_symmetry_Int_Tables_number      61
_space_group_name_Hall           '-P 2ac 2ab'
loop_
_symmetry_equiv_pos_site_id
_symmetry_equiv_pos_as_xyz
1 x,y,z
2 1/2-x,-y,1/2+z
3 1/2+x,1/2-y,-z
4 -x,1/2+y,1/2-z
5 -x,-y,-z
6 1/2+x,y,1/2-z
7 1/2-x,1/2+y,z
8 x,1/2-y,1/2+z
_cell_length_a                   17.2649(5)
_cell_length_b                   10.4680(3)
_cell_length_c                   17.4457(7)
_cell_angle_alpha                90
_cell_angle_beta                 90
_cell_angle_gamma                90
_cell_volume                     3152.94
loop_
_atom_site_label
_atom_site_type_symbol
_atom_site_fract_x
_atom_site_fract_y
_atom_site_fract_z
Zn1 Zn 0.15899(2) 0.35645(4) 0.25629(2)
C1 C 0.2665(2) 0.1243(3) 0.2408(2)
C2 C 0.3280(3) 0.1892(4) 0.1965(3)
H1 H 0.3142 0.2771 0.1890
H2 H 0.3338 0.1482 0.1476
H3 H 0.3760 0.1843 0.2241
C3 C 0.1068(2) 0.4016(3) 0.1137(2)
C4 C 0.05158(19) 0.4536(3) 0.05471(19)
C5 C -0.0156(2) 0.5165(3) 0.0770(2)
H4 H -0.0262 0.5278 0.1288
C6 C 0.0666(2) 0.4377(4) -0.0226(2)
H5 H 0.1115 0.3959 -0.0380
C7 C 0.1014(2) 0.4702(4) 0.3971(2)
C8 C -0.0127(3) 0.5388(6) 0.3241(3)
H6 H -0.0039 0.4589 0.2985
H7 H -0.0101 0.6073 0.2876
H8 H -0.0631 0.5378 0.3475
C9 C 0.2084(3) 0.3920(5) 0.4718(3)
H9 H 0.2032 0.3220 0.4367
H10 H 0.2008 0.3620 0.5232
H11 H 0.2593 0.4282 0.4672
C10 C 0.0389(4) 0.6741(6) 0.4269(4)
H12 H 0.0280 0.7442 0.3921
H13 H -0.0047 0.6661 0.4616
C11 C 0.1053(4) 0.7031(6) 0.4692(4)
H14 H 0.0897 0.7598 0.5103
H15 H 0.1394 0.7516 0.4359
C12 C 0.1505(4) 0.6029(5) 0.5027(4)
H16 H 0.1295 0.5814 0.5526
H17 H 0.2033 0.6325 0.5100
N1 N 0.20194(17) 0.1809(3) 0.26415(17)
N2 N 0.15963(18) 0.0908(3) 0.3011(2)
N3 N 0.19728(19) -0.0157(3) 0.2994(2)
N4 N 0.26504(17) 0.0017(3) 0.26197(17)
N5 N 0.0464(3) 0.5575(4) 0.3831(2)
N6 N 0.15093(19) 0.4887(3) 0.4541(2)
O1 O 0.07975(14) 0.3955(3) 0.18197(14)
O2 O 0.17278(16) 0.3693(3) 0.09648(17)
O3 O 0.10414(16) 0.3708(2) 0.35649(16)
C3D C -0.1068(2) 0.5984(3) -0.1137(2)
C4D C -0.05158(19) 0.5464(3) -0.05471(19)
C5D C 0.0156(2) 0.4835(3) -0.0770(2)
H4D H 0.0262 0.4722 -0.1288
C6D C -0.0666(2) 0.5623(4) 0.0226(2)
H5D H -0.1115 0.6041 0.0380
O1D O -0.07975(14) 0.6045(3) -0.18197(14)
O2D O -0.17278(16) 0.6307(3) -0.09648(17)
Zn1D Zn -0.15899(2) 0.64355(4) -0.25629(2)
C1D C -0.2665(2) 0.8757(3) -0.2408(2)
C2D C -0.3280(3) 0.8108(4) -0.1965(3)
H1D H -0.3142 0.7229 -0.1890
H2D H -0.3338 0.8518 -0.1476
H3D H -0.3760 0.8157 -0.2241
C7D C -0.1014(2) 0.5298(4) -0.3971(2)
C8D C 0.0127(3) 0.4612(6) -0.3241(3)
H6D H 0.0039 0.5411 -0.2985
H7D H 0.0101 0.3927 -0.2876
H8D H 0.0631 0.4622 -0.3475
C9D C -0.2084(3) 0.6080(5) -0.4718(3)
H9D H -0.2032 0.6780 -0.4367
H10D H -0.2008 0.6380 -0.5232
H11D H -0.2593 0.5718 -0.4672
C10D C -0.0389(4) 0.3259(6) -0.4269(4)
H12D H -0.0280 0.2558 -0.3921
H13D H 0.0047 0.3339 -0.4616
C11D C -0.1053(4) 0.2969(6) -0.4692(4)
H14D H -0.0897 0.2402 -0.5103
H15D H -0.1394 0.2484 -0.4359
C12D C -0.1505(4) 0.3971(5) -0.5027(4)
H16D H -0.1295 0.4186 -0.5526
H17D H -0.2033 0.3675 -0.5100
N1D N -0.20194(17) 0.8191(3) -0.26415(17)
N2D N -0.15963(18) 0.9092(3) -0.3011(2)
N3D N -0.19728(19) 1.0157(3) -0.2994(2)
N4D N -0.26504(17) 0.9983(3) -0.26197(17)
N5D N -0.0464(3) 0.4425(4) -0.3831(2)
N6D N -0.15093(19) 0.5113(3) -0.4541(2)
O3D O -0.10414(16) 0.6292(2) -0.35649(16)
Zn1B Zn -0.34101(2) 1.14355(4) -0.25629(2)
Zn1F Zn 0.34101(2) -0.14355(4) 0.25629(2)
N4B N -0.23496(17) 0.4983(3) -0.26197(17)
N4F N 0.23496(17) 0.5017(3) 0.26197(17)
loop_
_geom_bond_atom_site_label_1
_geom_bond_atom_site_label_2
_geom_bond_site_symmetry_1
_geom_bond_site_symmetry_2
Zn1 N1 1_555 1_555
C1 C2 1_555 1_555
C2 H1 1_555 1_555
H2 C2 1_555 1_555
H3 C2 1_555 1_555
C3 C4 1_555 1_555
C4 C5 1_555 1_555
C5 H4 1_555 1_555
C6 C4 1_555 1_555
H5 C6 1_555 1_555
C7 N5 1_555 1_555
C8 H6 1_555 1_555
H7 C8 1_555 1_555
H8 C8 1_555 1_555
C9 H9 1_555 1_555
H10 C9 1_555 1_555
H11 C9 1_555 1_555
C10 H12 1_555 1_555
H13 C10 1_555 1_555
C11 C10 1_555 1_555
H14 C11 1_555 1_555
H15 C11 1_555 1_555
C12 C11 1_555 1_555
H16 C12 1_555 1_555
H17 C12 1_555 1_555
N1 C1 1_555 1_555
N2 N1 1_555 1_555
N3 N2 1_555 1_555
N4 C1 1_555 1_555
N5 C8 1_555 1_555
N6 C7 1_555 1_555
O1 Zn1 1_555 1_555
O2 C3 1_555 1_555
O3 Zn1 1_555 1_555
C3D C4D 1_555 1_555
C4D C5D 1_555 1_555
C5D C6 1_555 1_555
H4D C5D 1_555 1_555
C6D C5 1_555 1_555
H5D C6D 1_555 1_555
O1D C3D 1_555 1_555
O2D C3D 1_555 1_555
Zn1D O1D 1_555 1_555
C1D C2D 1_555 1_555
C2D H1D 1_555 1_555
H2D C2D 1_555 1_555
H3D C2D 1_555 1_555
C7D N5D 1_555 1_555
C8D H6D 1_555 1_555
H7D C8D 1_555 1_555
H8D C8D 1_555 1_555
C9D H9D 1_555 1_555
H10D C9D 1_555 1_555
H11D C9D 1_555 1_555
C10D H12D 1_555 1_555
H13D C10D 1_555 1_555
C11D C10D 1_555 1_555
H14D C11D 1_555 1_555
H15D C11D 1_555 1_555
C12D C11D 1_555 1_555
H16D C12D 1_555 1_555
H17D C12D 1_555 1_555
N1D Zn1D 1_555 1_555
N2D N1D 1_555 1_555
N3D N2D 1_555 1_555
N4D C1D 1_555 1_555
N5D C8D 1_555 1_555
N6D C7D 1_555 1_555
O3D Zn1D 1_555 1_555
Zn1B N4D 1_555 1_555
Zn1F N4 1_555 1_555
N4B Zn1D 1_555 1_555
N4F Zn1 1_555 1_555
C3 O1 1_555 1_555
C7 O3 1_555 1_555
C9 N6 1_555 1_555
C10 N5 1_555 1_555
C12 N6 1_555 1_555
N3 N4 1_555 1_555
C4D C6D 1_555 1_555
C1D N1D 1_555 1_555
C7D O3D 1_555 1_555
C9D N6D 1_555 1_555
C10D N5D 1_555 1_555
C12D N6D 1_555 1_555
N3D N4D 1_555 1_555

#END
