
#######################################################################
#
#                 Cambridge Crystallographic Data Centre
#                                CCDC 
#
#######################################################################
#
# If this CIF has been generated from an entry in the Cambridge 
# Structural Database, then it will include bibliographic, chemical, 
# crystal, experimental, refinement or atomic coordinate data resulting 
# from the CCDC's data processing and validation procedures.
#
#######################################################################

data_JOFLAS
_symmetry_cell_setting           triclinic
_symmetry_space_group_name_H-M   'P -1'
_symmetry_Int_Tables_number      2
_space_group_name_Hall           '-P 1'
loop_
_symmetry_equiv_pos_site_id
_symmetry_equiv_pos_as_xyz
1 x,y,z
2 -x,-y,-z
_cell_length_a                   5.95160(10)
_cell_length_b                   9.0485(2)
_cell_length_c                   10.9071(3)
_cell_angle_alpha                91.1630(10)
_cell_angle_beta                 104.855(2)
_cell_angle_gamma                108.9140(10)
_cell_volume                     533.649
loop_
_atom_site_label
_atom_site_type_symbol
_atom_site_fract_x
_atom_site_fract_y
_atom_site_fract_z
Cu1 Cu 0.5000 -0.5000 -0.5000
O1 O 0.4551(3) -0.45973(18) -0.33593(14)
O2 O 0.6657(3) -0.6216(2) -0.27961(15)
N1 N 0.1739(3) -0.6848(2) -0.54518(17)
N2 N -0.0070(3) -1.0040(2) -0.86973(18)
C1 C -0.0041(4) -0.6901(3) -0.4888(2)
H1 H 0.0280 -0.6096 -0.4228
C2 C -0.2312(5) -0.8080(3) -0.5231(2)
H2 H -0.3541 -0.8076 -0.4822
C3 C -0.2784(5) -0.9267(3) -0.6174(2)
H3 H -0.4354 -1.0077 -0.6436
C4 C -0.0939(5) -0.9265(3) -0.6736(2)
C5 C 0.1267(4) -0.8022(3) -0.6363(2)
H4 H 0.2513 -0.7992 -0.6769
C6 C -0.1325(5) -1.0589(3) -0.7719(2)
H5 H -0.0696 -1.1386 -0.7287
H6 H -0.3118 -1.1100 -0.8130
C7 C -0.1370(5) -0.9215(3) -0.9575(2)
H7 H -0.1476 -0.8311 -0.9096
H8 H -0.3075 -0.9929 -0.9991
C8 C 0.0067(6) -1.1366(3) -0.9418(2)
H9 H -0.1622 -1.2106 -0.9828
H10 H 0.0979 -1.1932 -0.8833
C9 C 0.5535(4) -0.5369(3) -0.2547(2)
C10 C 0.5250(4) -0.5180(2) -0.12248(19)
C11 C 0.3564(4) -0.4504(3) -0.10054(19)
H11 H 0.2574 -0.4167 -0.1693
C12 C 0.6659(4) -0.5671(3) -0.0212(2)
H12 H 0.7800 -0.6137 -0.0357
Cu1_2 Cu 0.5000 -0.5000 0.5000
Cu1_3 Cu -0.5000 -1.5000 -1.5000
O1A O 0.5449(3) -0.54027(18) 0.33593(14)
O1A_2 O 0.5449(3) -0.54027(18) -0.66407(14)
O2A O 0.3343(3) -0.3784(2) 0.27961(15)
N1A N -0.1739(3) -1.3152(2) -1.45482(17)
N1A_2 N 0.8261(3) -0.3152(2) -0.45482(17)
N2A N 0.0070(3) -0.9960(2) -1.13027(18)
C1A C 0.0041(4) -1.3099(3) -1.5112(2)
H1A H -0.0280 -1.3904 -1.5772
C2A C 0.2312(5) -1.1920(3) -1.4769(2)
H2A H 0.3541 -1.1924 -1.5178
C3A C 0.2784(5) -1.0733(3) -1.3826(2)
H3A H 0.4354 -0.9923 -1.3564
C4A C 0.0939(5) -1.0735(3) -1.3264(2)
C5A C -0.1267(4) -1.1978(3) -1.3637(2)
H4A H -0.2513 -1.2008 -1.3231
C6A C 0.1325(5) -0.9411(3) -1.2281(2)
H5A H 0.0696 -0.8614 -1.2713
H6A H 0.3118 -0.8900 -1.1870
C7A C 0.1370(5) -1.0785(3) -1.0425(2)
H7A H 0.1476 -1.1689 -1.0904
H8A H 0.3075 -1.0071 -1.0009
C8A C -0.0067(6) -0.8634(3) -1.0582(2)
H9A H 0.1622 -0.7894 -1.0172
H10A H -0.0979 -0.8068 -1.1167
C9A C 0.4465(4) -0.4631(3) 0.2547(2)
C10A C 0.4750(4) -0.4820(2) 0.12248(19)
C11A C 0.6436(4) -0.5496(3) 0.10054(19)
H11A H 0.7426 -0.5833 0.1693
C12A C 0.3341(4) -0.4329(3) 0.0212(2)
H12A H 0.2200 -0.3863 0.0357
loop_
_geom_bond_atom_site_label_1
_geom_bond_atom_site_label_2
_geom_bond_site_symmetry_1
_geom_bond_site_symmetry_2
Cu1 O1 1_555 1_555
O1 C9 1_555 1_555
O2 C9 1_555 1_555
N1 Cu1 1_555 1_555
N2 C6 1_555 1_555
C1 N1 1_555 1_555
H1 C1 1_555 1_555
C2 C1 1_555 1_555
H2 C2 1_555 1_555
C3 C2 1_555 1_555
H3 C3 1_555 1_555
C4 C3 1_555 1_555
C5 N1 1_555 1_555
H4 C5 1_555 1_555
C6 C4 1_555 1_555
H5 C6 1_555 1_555
H6 C6 1_555 1_555
C7 N2 1_555 1_555
H7 C7 1_555 1_555
H8 C7 1_555 1_555
C8 N2 1_555 1_555
H9 C8 1_555 1_555
H10 C8 1_555 1_555
C9 C10 1_555 1_555
C10 C11 1_555 1_555
C11 H11 1_555 1_555
C12 C10 1_555 1_555
H12 C12 1_555 1_555
Cu1_2 O1A 1_555 1_555
Cu1_3 N1A 1_555 1_555
O1A C9A 1_555 1_555
O1A_2 Cu1 1_555 1_555
O2A C9A 1_555 1_555
N1A C1A 1_555 1_555
N1A_2 Cu1 1_555 1_555
N2A C6A 1_555 1_555
C1A H1A 1_555 1_555
C2A C1A 1_555 1_555
H2A C2A 1_555 1_555
C3A C2A 1_555 1_555
H3A C3A 1_555 1_555
C4A C3A 1_555 1_555
C5A N1A 1_555 1_555
H4A C5A 1_555 1_555
C6A C4A 1_555 1_555
H5A C6A 1_555 1_555
H6A C6A 1_555 1_555
C7A C8 1_555 1_555
H7A C7A 1_555 1_555
H8A C7A 1_555 1_555
C8A C7 1_555 1_555
H9A C8A 1_555 1_555
H10A C8A 1_555 1_555
C9A C10A 1_555 1_555
C10A C11A 1_555 1_555
C11A C12 1_555 1_555
H11A C11A 1_555 1_555
C12A C11 1_555 1_555
H12A C12A 1_555 1_555
C4 C5 1_555 1_555
N2A C7A 1_555 1_555
N2A C8A 1_555 1_555
C4A C5A 1_555 1_555
C10A C12A 1_555 1_555

#END
