
#######################################################################
#
#                 Cambridge Crystallographic Data Centre
#                                CCDC 
#
#######################################################################
#
# If this CIF has been generated from an entry in the Cambridge 
# Structural Database, then it will include bibliographic, chemical, 
# crystal, experimental, refinement or atomic coordinate data resulting 
# from the CCDC's data processing and validation procedures.
#
#######################################################################

data_JOFLEX
_symmetry_cell_setting           triclinic
_symmetry_space_group_name_H-M   'P -1'
_symmetry_Int_Tables_number      2
_space_group_name_Hall           '-P 1'
loop_
_symmetry_equiv_pos_site_id
_symmetry_equiv_pos_as_xyz
1 x,y,z
2 -x,-y,-z
_cell_length_a                   7.3487(9)
_cell_length_b                   7.5397(6)
_cell_length_c                   9.6772(8)
_cell_angle_alpha                76.894(8)
_cell_angle_beta                 68.260(10)
_cell_angle_gamma                65.155(10)
_cell_volume                     450.341
loop_
_atom_site_label
_atom_site_type_symbol
_atom_site_fract_x
_atom_site_fract_y
_atom_site_fract_z
Zn1 Zn 0.60572(5) 0.87265(5) 0.26706(3)
K1 K 0.76764(10) 1.26020(11) -0.03298(7)
O1 O -0.0005(3) 1.1059(3) 0.6973(2)
O2 O 0.5463(4) 0.6008(3) 0.3438(3)
H1 H 0.6629 0.5024 0.3579
H2 H 0.5127 0.5694 0.2745
O3 O 0.2545(3) 1.2217(3) 0.5773(2)
O4 O 0.2898(3) 1.0016(3) 0.2988(2)
H3 H 0.204(3) 0.955(3) 0.297(4)
O5 O 0.3105(3) 1.4700(3) 0.2660(2)
O6 O 0.5516(3) 1.1663(3) 0.2523(2)
O7 O 0.3921(4) 1.2966(5) -0.0234(2)
O8 O 0.1886(3) 1.1757(3) -0.0612(2)
C1 C 0.0961(4) 1.1883(4) 0.5851(3)
C2 C 0.0180(4) 1.2628(4) 0.4505(3)
H4 H -0.0513 1.4044 0.4489
H5 H -0.0870 1.2099 0.4622
C3 C 0.1894(4) 1.2108(4) 0.2999(3)
C4 C 0.3652(4) 1.2891(4) 0.2714(3)
C5 C 0.0832(4) 1.2946(4) 0.1764(3)
H6 H -0.0233 1.2402 0.1959
H7 H 0.0122 1.4355 0.1804
C6 C 0.2365(4) 1.2514(4) 0.0201(3)
Zn1A Zn 0.39428(5) 1.12735(5) -0.26706(3)
Zn1A_2 Zn 0.39428(5) 1.12735(5) 0.73294(3)
K1_2 K -0.23236(10) 1.26020(11) -0.03298(7)
K1_3 K -0.23236(10) 1.26020(11) 0.96702(7)
K1A K 0.23236(10) 0.73980(11) 0.03298(7)
K1A_2 K 0.23236(10) 1.73980(11) 0.03298(7)
O1_2 O 0.9995(3) 1.1059(3) -0.3027(2)
O3A O 0.7455(3) 0.7783(3) 0.4227(2)
O5A O 0.6895(3) 1.5300(3) -0.2660(2)
O7A O 0.6079(4) 1.7034(5) 0.0234(2)
O8_2 O 1.1886(3) 1.1757(3) -0.0612(2)
O8A O 0.8114(3) 0.8243(3) 0.0612(2)
loop_
_geom_bond_atom_site_label_1
_geom_bond_atom_site_label_2
_geom_bond_site_symmetry_1
_geom_bond_site_symmetry_2
Zn1 O2 1_555 1_555
K1 O6 1_555 1_555
O1 C1 1_555 1_555
O2 H1 1_555 1_555
H2 O2 1_555 1_555
O3 C1 1_555 1_555
O4 Zn1 1_555 1_555
H3 O4 1_555 1_555
O5 C4 1_555 1_555
O6 Zn1 1_555 1_555
O7 K1 1_555 1_555
O8 C6 1_555 1_555
C1 C2 1_555 1_555
C2 H4 1_555 1_555
H5 C2 1_555 1_555
C3 O4 1_555 1_555
C4 O6 1_555 1_555
C5 C3 1_555 1_555
H6 C5 1_555 1_555
H7 C5 1_555 1_555
C6 O7 1_555 1_555
Zn1A O8 1_555 1_555
Zn1A_2 O3 1_555 1_555
K1_2 O8 1_555 1_555
K1_3 O1 1_555 1_555
K1A O8 1_555 1_555
K1A_2 O5 1_555 1_555
O1_2 K1 1_555 1_555
O3A Zn1 1_555 1_555
O5A K1 1_555 1_555
O7A K1 1_555 1_555
O8_2 K1 1_555 1_555
O8A Zn1 1_555 1_555
K1 O8A 1_555 1_555
O7 K1A_2 1_555 1_555
C2 C3 1_555 1_555
C3 C4 1_555 1_555
C5 C6 1_555 1_555
K1A_2 O7A 1_555 1_555

#END
