
#######################################################################
#
#                 Cambridge Crystallographic Data Centre
#                                CCDC 
#
#######################################################################
#
# If this CIF has been generated from an entry in the Cambridge 
# Structural Database, then it will include bibliographic, chemical, 
# crystal, experimental, refinement or atomic coordinate data resulting 
# from the CCDC's data processing and validation procedures.
#
#######################################################################

data_JOFNOI
_symmetry_cell_setting           monoclinic
_symmetry_space_group_name_H-M   'P 21/n'
_symmetry_Int_Tables_number      14
_space_group_name_Hall           '-P 2yn'
loop_
_symmetry_equiv_pos_site_id
_symmetry_equiv_pos_as_xyz
1 x,y,z
2 1/2-x,1/2+y,1/2-z
3 -x,-y,-z
4 1/2+x,1/2-y,1/2+z
_cell_length_a                   10.3995(6)
_cell_length_b                   21.867(2)
_cell_length_c                   12.6447(7)
_cell_angle_alpha                90
_cell_angle_beta                 90.020(10)
_cell_angle_gamma                90
_cell_volume                     2875.48
loop_
_atom_site_label
_atom_site_type_symbol
_atom_site_fract_x
_atom_site_fract_y
_atom_site_fract_z
C1 C 0.7970(12) 0.2717(6) 0.2542(10)
H1 H 0.7354 0.2438 0.2312
C2 C 0.8727(14) 0.3026(7) 0.1936(11)
H2 H 0.8716 0.3017 0.1201
C3 C 1.0414(10) 0.3817(5) 0.2164(10)
H3 H 1.0144 0.4213 0.2404
H4 H 1.0432 0.3811 0.1405
H5 H 1.1258 0.3730 0.2432
C4 C 0.9156(11) 0.3253(5) 0.3547(9)
C5 C 0.9752(12) 0.3524(5) 0.4529(8)
H6 H 0.9376 0.3445 0.5182
N1 N 1.0766(7) 0.3862(4) 0.4489(5)
N2 N 1.1015(9) 0.4117(5) 0.5451(7)
C6 C 1.2039(9) 0.4465(4) 0.5443(7)
C7 C 1.2353(10) 0.4811(6) 0.6393(8)
C8 C 1.1777(8) 0.4664(4) 0.7374(8)
H7 H 1.1180 0.4348 0.7402
C9 C 1.2082(14) 0.4986(7) 0.8319(10)
H8 H 1.1761 0.4851 0.8965
C10 C 1.2866(11) 0.5506(6) 0.8276(8)
H9 H 1.3040 0.5734 0.8880
C11 C 1.3385(9) 0.5674(4) 0.7281(7)
H10 H 1.3888 0.6025 0.7233
C12 C 1.3164(8) 0.5327(4) 0.6366(8)
H11 H 1.3556 0.5438 0.5734
C13 C 1.7102(8) 0.2736(4) 0.7389(6)
H12 H 1.7775 0.2483 0.7595
C14 C 1.6321(8) 0.3039(4) 0.8079(7)
H13 H 1.6323 0.3024 0.8814
C15 C 1.4451(11) 0.3791(5) 0.7815(7)
H14 H 1.3666 0.3563 0.7866
H15 H 1.4339 0.4122 0.7325
H16 H 1.4673 0.3952 0.8497
C16 C 1.5801(8) 0.3249(4) 0.6407(6)
C17 C 1.5282(8) 0.3530(4) 0.5484(7)
H17 H 1.5684 0.3464 0.4837
N3 N 1.4264(9) 0.3875(4) 0.5516(7)
N4 N 1.4033(7) 0.4154(3) 0.4538(6)
C18 C 1.2951(9) 0.4445(5) 0.4493(7)
C19 C 1.2663(8) 0.4809(4) 0.3554(7)
C20 C 1.3243(13) 0.4664(6) 0.2594(8)
H18 H 1.3784 0.4327 0.2539
C21 C 1.3005(9) 0.5026(4) 0.1730(7)
H19 H 1.3391 0.4943 0.1082
C22 C 1.2184(11) 0.5516(5) 0.1839(10)
H20 H 1.2039 0.5766 0.1255
C23 C 1.1585(13) 0.5650(6) 0.2748(11)
H21 H 1.1014 0.5976 0.2785
C24 C 1.1824(11) 0.5299(6) 0.3621(8)
H22 H 1.1423 0.5390 0.4259
N5 N 0.8211(9) 0.2861(4) 0.3571(7)
N6 N 0.9541(8) 0.3368(4) 0.2533(6)
N7 N 1.6777(7) 0.2850(4) 0.6353(5)
N8 N 1.5529(9) 0.3372(4) 0.7425(7)
Cd1 Cd 0.74906(8) 0.22902(2) 0.49605(6)
I1 I 0.96006(7) 0.17583(4) 0.58787(6)
I2 I 0.53803(7) 0.17713(4) 0.40817(6)
N7_2 N 0.6777(7) 0.2850(4) 0.6353(5)
Cd1_2 Cd 1.74906(8) 0.22902(2) 0.49605(6)
loop_
_geom_bond_atom_site_label_1
_geom_bond_atom_site_label_2
_geom_bond_site_symmetry_1
_geom_bond_site_symmetry_2
C1 H1 1_555 1_555
C2 C1 1_555 1_555
H2 C2 1_555 1_555
C3 H3 1_555 1_555
H4 C3 1_555 1_555
H5 C3 1_555 1_555
C4 C5 1_555 1_555
C5 H6 1_555 1_555
N1 C5 1_555 1_555
N2 N1 1_555 1_555
C6 N2 1_555 1_555
C7 C6 1_555 1_555
C8 C7 1_555 1_555
H7 C8 1_555 1_555
C9 C8 1_555 1_555
H8 C9 1_555 1_555
C10 C9 1_555 1_555
H9 C10 1_555 1_555
C11 C10 1_555 1_555
H10 C11 1_555 1_555
C12 C7 1_555 1_555
H11 C12 1_555 1_555
C13 H12 1_555 1_555
C14 C13 1_555 1_555
H13 C14 1_555 1_555
C15 H14 1_555 1_555
H15 C15 1_555 1_555
H16 C15 1_555 1_555
C16 C17 1_555 1_555
C17 H17 1_555 1_555
N3 C17 1_555 1_555
N4 N3 1_555 1_555
C18 C6 1_555 1_555
C19 C18 1_555 1_555
C20 C19 1_555 1_555
H18 C20 1_555 1_555
C21 C20 1_555 1_555
H19 C21 1_555 1_555
C22 C21 1_555 1_555
H20 C22 1_555 1_555
C23 C22 1_555 1_555
H21 C23 1_555 1_555
C24 C19 1_555 1_555
H22 C24 1_555 1_555
N5 C1 1_555 1_555
N6 C2 1_555 1_555
N7 C13 1_555 1_555
N8 C14 1_555 1_555
Cd1 N5 1_555 1_555
I1 Cd1 1_555 1_555
I2 Cd1 1_555 1_555
N7_2 Cd1 1_555 1_555
Cd1_2 N7 1_555 1_555
C3 N6 1_555 1_555
C4 N5 1_555 1_555
C4 N6 1_555 1_555
C11 C12 1_555 1_555
C15 N8 1_555 1_555
C16 N7 1_555 1_555
C16 N8 1_555 1_555
N4 C18 1_555 1_555
C23 C24 1_555 1_555

#END
