
#######################################################################
#
#                 Cambridge Crystallographic Data Centre
#                                CCDC 
#
#######################################################################
#
# If this CIF has been generated from an entry in the Cambridge 
# Structural Database, then it will include bibliographic, chemical, 
# crystal, experimental, refinement or atomic coordinate data resulting 
# from the CCDC's data processing and validation procedures.
#
#######################################################################

data_JOFNUO
_symmetry_cell_setting           monoclinic
_symmetry_space_group_name_H-M   'P 21/c'
_symmetry_Int_Tables_number      14
_space_group_name_Hall           '-P 2ybc'
loop_
_symmetry_equiv_pos_site_id
_symmetry_equiv_pos_as_xyz
1 x,y,z
2 -x,1/2+y,1/2-z
3 -x,-y,-z
4 x,1/2-y,1/2+z
_cell_length_a                   16.8336(8)
_cell_length_b                   4.3266(2)
_cell_length_c                   23.7840(10)
_cell_angle_alpha                90
_cell_angle_beta                 102.737(2)
_cell_angle_gamma                90
_cell_volume                     1689.62
loop_
_atom_site_label
_atom_site_type_symbol
_atom_site_fract_x
_atom_site_fract_y
_atom_site_fract_z
Ag1 Ag 0.08604(3) -0.28448(12) 0.05708(2)
Cl1 Cl 0.10417(9) -0.7137(3) -0.00487(6)
N1 N 0.0422(3) 0.0935(11) 0.15952(19)
N2 N 0.1499(3) -0.1729(11) 0.1890(2)
N3 N -0.1718(3) 0.2487(11) 0.0944(2)
H1 H -0.1596 0.3986 0.0727
O1 O -0.1137(3) -0.1085(11) 0.16219(19)
C1 C 0.0933(3) -0.1052(13) 0.1406(2)
C2 C 0.1354(3) -0.0197(14) 0.2366(2)
H2 H 0.1673 -0.0303 0.2749
C3 C 0.0671(3) 0.1478(14) 0.2184(2)
H3 H 0.0411 0.2772 0.2412
C4 C -0.0275(3) 0.2374(13) 0.1223(3)
H4 H -0.0231 0.2116 0.0818
H5 H -0.0264 0.4617 0.1307
C5 C -0.1074(3) 0.1084(14) 0.1289(2)
C6 C -0.2555(3) 0.1901(15) 0.0879(3)
C7 C -0.2893(4) 0.0194(16) 0.1260(3)
H6 H -0.2550 -0.0728 0.1588
C8 C -0.3734(4) -0.017(2) 0.1163(3)
H7 H -0.3963 -0.1332 0.1428
C9 C -0.4241(4) 0.114(2) 0.0683(4)
H8 H -0.4814 0.0866 0.0619
C10 C -0.3919(4) 0.283(2) 0.0301(4)
H9 H -0.4268 0.3723 -0.0028
C11 C -0.3075(4) 0.3241(18) 0.0394(3)
H10 H -0.2852 0.4426 0.0130
C12 C 0.2228(4) -0.3612(14) 0.1889(3)
H11 H 0.2100 -0.5152 0.1574
H12 H 0.2385 -0.4744 0.2258
C13 C 0.2933(3) -0.1611(14) 0.1807(3)
C14 C 0.3500(4) -0.0501(15) 0.2278(3)
H13 H 0.3449 -0.1022 0.2657
C15 C 0.4141(4) 0.1362(17) 0.2203(4)
H14 H 0.4529 0.2103 0.2528
C16 C 0.4211(4) 0.2129(17) 0.1652(4)
H15 H 0.4646 0.3409 0.1596
C17 C 0.3650(4) 0.104(2) 0.1182(4)
H16 H 0.3696 0.1583 0.0804
C18 C 0.3018(4) -0.0852(17) 0.1260(3)
H17 H 0.2640 -0.1633 0.0934
Ag1_2 Ag 0.08604(3) -1.28448(12) 0.05708(2)
Cl1_2 Cl 0.10417(9) 0.2863(3) -0.00487(6)
loop_
_geom_bond_atom_site_label_1
_geom_bond_atom_site_label_2
_geom_bond_site_symmetry_1
_geom_bond_site_symmetry_2
Ag1 Cl1 1_555 1_555
Cl1 Ag1_2 1_555 1_555
N1 C1 1_555 1_555
N2 C1 1_555 1_555
N3 H1 1_555 1_555
O1 C5 1_555 1_555
C1 Ag1 1_555 1_555
C2 N2 1_555 1_555
H2 C2 1_555 1_555
C3 N1 1_555 1_555
H3 C3 1_555 1_555
C4 N1 1_555 1_555
H4 C4 1_555 1_555
H5 C4 1_555 1_555
C5 N3 1_555 1_555
C6 N3 1_555 1_555
C7 C6 1_555 1_555
H6 C7 1_555 1_555
C8 C7 1_555 1_555
H7 C8 1_555 1_555
C9 C8 1_555 1_555
H8 C9 1_555 1_555
C10 C9 1_555 1_555
H9 C10 1_555 1_555
C11 C6 1_555 1_555
H10 C11 1_555 1_555
C12 N2 1_555 1_555
H11 C12 1_555 1_555
H12 C12 1_555 1_555
C13 C12 1_555 1_555
C14 C13 1_555 1_555
H13 C14 1_555 1_555
C15 C14 1_555 1_555
H14 C15 1_555 1_555
C16 C15 1_555 1_555
H15 C16 1_555 1_555
C17 C16 1_555 1_555
H16 C17 1_555 1_555
C18 C13 1_555 1_555
H17 C18 1_555 1_555
Cl1_2 Ag1 1_555 1_555
C2 C3 1_555 1_555
C4 C5 1_555 1_555
C10 C11 1_555 1_555
C17 C18 1_555 1_555

#END
