
#######################################################################
#
#                 Cambridge Crystallographic Data Centre
#                                CCDC 
#
#######################################################################
#
# If this CIF has been generated from an entry in the Cambridge 
# Structural Database, then it will include bibliographic, chemical, 
# crystal, experimental, refinement or atomic coordinate data resulting 
# from the CCDC's data processing and validation procedures.
#
#######################################################################

data_JOFPOL
_symmetry_cell_setting           monoclinic
_symmetry_space_group_name_H-M   'P 21/c'
_symmetry_Int_Tables_number      14
_space_group_name_Hall           '-P 2ybc'
loop_
_symmetry_equiv_pos_site_id
_symmetry_equiv_pos_as_xyz
1 x,y,z
2 -x,1/2+y,1/2-z
3 -x,-y,-z
4 x,1/2-y,1/2+z
_cell_length_a                   14.3307(9)
_cell_length_b                   14.9296(9)
_cell_length_c                   6.5824(4)
_cell_angle_alpha                90
_cell_angle_beta                 92.7430(10)
_cell_angle_gamma                90
_cell_volume                     1406.7
loop_
_atom_site_label
_atom_site_type_symbol
_atom_site_fract_x
_atom_site_fract_y
_atom_site_fract_z
Ag1 Ag 0.24211(2) 0.71270(2) 0.15481(6)
Ag2 Ag 0.74264(2) 0.69917(3) 0.14209(7)
N1 N 0.3971(2) 0.71305(19) 0.1591(4)
N2 N 0.0905(2) 0.7154(2) 0.1216(5)
N3 N 0.5891(2) 0.7136(2) 0.1441(5)
N4 N -0.1019(2) 0.70798(19) 0.1021(5)
C1 C 0.5417(3) 0.7921(2) 0.1436(5)
C2 C -0.0507(3) 0.6324(2) 0.1118(6)
C3 C 0.0397(3) 0.7925(2) 0.1151(5)
C4 C 0.4454(3) 0.6358(2) 0.1515(6)
C5 C -0.0596(3) 0.7876(2) 0.1019(5)
C6 C 0.4424(3) 0.7910(2) 0.1575(5)
N5 N 0.5896(3) 0.8687(2) 0.1348(6)
C7 C -0.1227(3) 0.8698(2) 0.0866(6)
N6 N 0.0854(3) 0.8703(2) 0.1201(6)
C8 C 0.5406(3) 0.6369(2) 0.1469(6)
C9 C 0.3842(3) 0.8755(2) 0.1657(6)
C10 C 0.0445(3) 0.6367(2) 0.1203(6)
O1 O -0.0857(2) 0.94473(19) 0.1107(5)
O2 O 0.4201(3) 0.9471(2) 0.1164(6)
O3 O 0.30126(19) 0.8681(2) 0.2200(5)
O4 O -0.2083(2) 0.8565(2) 0.0458(6)
O5 O 0.2460(3) 0.5454(2) 0.3122(5)
O6 O 0.7479(3) 0.5293(2) 0.0795(7)
H1 H -0.082(3) 0.575(3) 0.114(6)
H2 H 0.566(4) 0.582(4) 0.155(7)
H3 H 0.413(3) 0.579(3) 0.151(6)
H4 H 0.555(4) 0.922(4) 0.109(8)
H5 H 0.051(4) 0.919(4) 0.100(8)
H6 H 0.074(4) 0.585(4) 0.128(8)
H7 H 0.199(4) 0.513(4) 0.337(8)
H8 H 0.734(4) 0.495(5) 0.147(9)
H9 H 0.132(4) 0.873(3) 0.131(7)
H10 H 0.281(5) 0.539(5) 0.398(10)
H11 H 0.740(5) 0.516(6) -0.029(12)
H12 H 0.635(4) 0.868(3) 0.121(7)
Ag2_2 Ag -0.25736(2) 0.69917(3) 0.14209(7)
N4_2 N 0.8981(2) 0.70798(19) 0.1021(5)
O4_2 O 0.7917(2) 0.8565(2) 0.0458(6)
loop_
_geom_bond_atom_site_label_1
_geom_bond_atom_site_label_2
_geom_bond_site_symmetry_1
_geom_bond_site_symmetry_2
Ag1 N1 1_555 1_555
Ag2 N3 1_555 1_555
N1 C4 1_555 1_555
N2 Ag1 1_555 1_555
N3 C1 1_555 1_555
N4 C2 1_555 1_555
C1 C6 1_555 1_555
C2 C10 1_555 1_555
C3 N2 1_555 1_555
C4 C8 1_555 1_555
C5 N4 1_555 1_555
C6 N1 1_555 1_555
N5 C1 1_555 1_555
C7 C5 1_555 1_555
N6 C3 1_555 1_555
C8 N3 1_555 1_555
C9 C6 1_555 1_555
C10 N2 1_555 1_555
O1 C7 1_555 1_555
O2 C9 1_555 1_555
O3 Ag1 1_555 1_555
O4 C7 1_555 1_555
O5 Ag1 1_555 1_555
O6 Ag2 1_555 1_555
H1 C2 1_555 1_555
H2 C8 1_555 1_555
H3 C4 1_555 1_555
H4 N5 1_555 1_555
H5 N6 1_555 1_555
H6 C10 1_555 1_555
H7 O5 1_555 1_555
H8 O6 1_555 1_555
H9 N6 1_555 1_555
H10 O5 1_555 1_555
H11 O6 1_555 1_555
H12 N5 1_555 1_555
Ag2_2 N4 1_555 1_555
N4_2 Ag2 1_555 1_555
O4_2 Ag2 1_555 1_555
C3 C5 1_555 1_555
C9 O3 1_555 1_555
O4 Ag2_2 1_555 1_555

#END
