
#######################################################################
#
#                 Cambridge Crystallographic Data Centre
#                                CCDC 
#
#######################################################################
#
# If this CIF has been generated from an entry in the Cambridge 
# Structural Database, then it will include bibliographic, chemical, 
# crystal, experimental, refinement or atomic coordinate data resulting 
# from the CCDC's data processing and validation procedures.
#
#######################################################################

data_JOFPAW
_symmetry_cell_setting           monoclinic
_symmetry_space_group_name_H-M   'P 21/c'
_symmetry_Int_Tables_number      14
_space_group_name_Hall           '-P 2ybc'
loop_
_symmetry_equiv_pos_site_id
_symmetry_equiv_pos_as_xyz
1 x,y,z
2 -x,1/2+y,1/2-z
3 -x,-y,-z
4 x,1/2-y,1/2+z
_cell_length_a                   16.7917(19)
_cell_length_b                   4.3607(5)
_cell_length_c                   23.609(3)
_cell_angle_alpha                90
_cell_angle_beta                 101.958(2)
_cell_angle_gamma                90
_cell_volume                     1691.22
loop_
_atom_site_label
_atom_site_type_symbol
_atom_site_fract_x
_atom_site_fract_y
_atom_site_fract_z
Ag1 Ag 0.913662(12) 1.28868(5) 0.943292(8)
C1 C 0.90584(14) 1.1022(5) 0.85966(9)
C2 C 0.93166(14) 0.8474(5) 0.78200(9)
H1 H 0.9577 0.7174 0.7591
C3 C 0.86363(14) 1.0112(5) 0.76363(9)
H2 H 0.8320 1.0194 0.7253
C4 C 0.77518(14) 1.3443(6) 0.81207(11)
H3 H 0.7584 1.4533 0.7747
H4 H 0.7868 1.4998 0.8432
C5 C 0.70650(15) 1.1393(5) 0.82166(10)
C6 C 0.64882(15) 1.0317(6) 0.77526(11)
H5 H 0.6510 1.0954 0.7371
C7 C 0.58783(16) 0.8323(6) 0.78357(12)
H6 H 0.5486 0.7577 0.7516
C8 C 0.58560(16) 0.7459(6) 0.83899(13)
C9 C 0.64096(16) 0.8509(6) 0.88641(12)
H7 H 0.6375 0.7893 0.9244
C10 C 0.70170(15) 1.0483(6) 0.87744(11)
H8 H 0.7405 1.1225 0.9096
C11 C 1.02691(14) 0.7635(5) 0.87769(10)
H9 H 1.0270 0.5415 0.8689
H10 H 1.0222 0.7861 0.9186
C12 C 1.10692(14) 0.9014(5) 0.87033(9)
C13 C 1.25473(14) 0.8230(6) 0.91104(10)
C14 C 1.28726(16) 1.0005(6) 0.87297(11)
H11 H 1.2527 1.0902 0.8402
C15 C 1.37091(17) 1.0469(8) 0.88296(12)
H12 H 1.3934 1.1682 0.8567
C16 C 1.42184(17) 0.9181(8) 0.93076(13)
H13 H 1.4790 0.9505 0.9373
C17 C 1.38918(18) 0.7429(7) 0.96874(14)
H14 H 1.4238 0.6562 1.0018
C18 C 1.30612(16) 0.6925(6) 0.95900(12)
H15 H 1.2840 0.5687 0.9851
Cl1 Cl 0.89579(4) 0.71323(13) 1.00562(2)
F1 F 0.52711(9) 0.5456(4) 0.84770(7)
N1 N 0.95664(11) 0.9044(4) 0.84074(7)
N2 N 0.84866(11) 1.1662(4) 0.81158(7)
N3 N 1.17118(12) 0.7559(4) 0.90368(8)
H16 H 1.1591 0.5977 0.9235
O1 O 1.11175(10) 1.1159(4) 0.83812(7)
Ag1_2 Ag 0.913662(12) 0.28868(5) 0.943292(8)
Cl1_2 Cl 0.89579(4) 1.71323(13) 1.00562(2)
loop_
_geom_bond_atom_site_label_1
_geom_bond_atom_site_label_2
_geom_bond_site_symmetry_1
_geom_bond_site_symmetry_2
Ag1 C1 1_555 1_555
C1 N1 1_555 1_555
C2 H1 1_555 1_555
C3 C2 1_555 1_555
H2 C3 1_555 1_555
C4 H3 1_555 1_555
H4 C4 1_555 1_555
C5 C4 1_555 1_555
C6 C5 1_555 1_555
H5 C6 1_555 1_555
C7 C6 1_555 1_555
H6 C7 1_555 1_555
C8 C7 1_555 1_555
C9 C8 1_555 1_555
H7 C9 1_555 1_555
C10 C5 1_555 1_555
H8 C10 1_555 1_555
C11 H9 1_555 1_555
H10 C11 1_555 1_555
C12 C11 1_555 1_555
C13 C14 1_555 1_555
C14 H11 1_555 1_555
C15 C14 1_555 1_555
H12 C15 1_555 1_555
C16 C15 1_555 1_555
H13 C16 1_555 1_555
C17 C16 1_555 1_555
H14 C17 1_555 1_555
C18 C13 1_555 1_555
H15 C18 1_555 1_555
Cl1 Ag1 1_555 1_555
F1 C8 1_555 1_555
N1 C2 1_555 1_555
N2 C1 1_555 1_555
N3 C12 1_555 1_555
H16 N3 1_555 1_555
O1 C12 1_555 1_555
Ag1_2 Cl1 1_555 1_555
Cl1_2 Ag1 1_555 1_555
C3 N2 1_555 1_555
C4 N2 1_555 1_555
C9 C10 1_555 1_555
C11 N1 1_555 1_555
C13 N3 1_555 1_555
C17 C18 1_555 1_555

#END
