
#######################################################################
#
#                 Cambridge Crystallographic Data Centre
#                                CCDC 
#
#######################################################################
#
# If this CIF has been generated from an entry in the Cambridge 
# Structural Database, then it will include bibliographic, chemical, 
# crystal, experimental, refinement or atomic coordinate data resulting 
# from the CCDC's data processing and validation procedures.
#
#######################################################################

data_JOFQIE
_symmetry_cell_setting           orthorhombic
_symmetry_space_group_name_H-M   'C m c a'
_symmetry_Int_Tables_number      64
_space_group_name_Hall           '-C 2bc 2'
loop_
_symmetry_equiv_pos_site_id
_symmetry_equiv_pos_as_xyz
1 x,y,z
2 1/2+x,1/2+y,z
3 -x,1/2+y,1/2-z
4 -x,1/2-y,1/2+z
5 1/2-x,y,1/2-z
6 1/2-x,-y,1/2+z
7 x,-y,-z
8 1/2+x,1/2-y,-z
9 -x,-y,-z
10 1/2-x,1/2-y,-z
11 x,1/2-y,1/2+z
12 x,1/2+y,1/2-z
13 1/2+x,-y,1/2+z
14 1/2+x,y,1/2-z
15 -x,y,z
16 1/2-x,1/2+y,z
_cell_length_a                   21.5003(19)
_cell_length_b                   15.9253(10)
_cell_length_c                   8.3967(5)
_cell_angle_alpha                90
_cell_angle_beta                 90
_cell_angle_gamma                90
_cell_volume                     2875.02
loop_
_atom_site_label
_atom_site_type_symbol
_atom_site_fract_x
_atom_site_fract_y
_atom_site_fract_z
Zn1 Zn 0.5000 0.0000 0.0000
S1 S 0.5000 -0.15291(5) 0.47393(7)
N1 N 0.5000 -0.10213(11) 0.1552(2)
C1 C 0.5000 -0.12266(12) 0.2891(2)
N2 N 0.28080(5) 0.15217(8) 0.43110(14)
C2 C 0.27551(5) 0.23444(8) 0.44666(15)
C3 C 0.31477(6) 0.29347(9) 0.36943(16)
H1 H 0.3067(8) 0.3524(13) 0.382(2)
C4 C 0.36164(6) 0.26458(8) 0.27419(16)
H2 H 0.3876(9) 0.3034(14) 0.221(2)
C5 C 0.41641(5) 0.14109(8) 0.15938(15)
H3 H 0.4443(8) 0.1786(10) 0.106(2)
N3 N 0.42353(5) 0.05951(7) 0.14120(13)
C6 C 0.38171(6) 0.00786(8) 0.21557(18)
H4 H 0.3880(8) -0.0493(13) 0.199(2)
C7 C 0.33399(6) 0.03565(9) 0.30883(16)
H5 H 0.3063(9) -0.0020(10) 0.357(2)
C8 C 0.32711(5) 0.12296(8) 0.33429(15)
C9 C 0.36921(6) 0.17710(8) 0.25569(16)
C2I C 0.22449(5) 0.26556(8) 0.55334(15)
N2I N 0.21920(5) 0.34783(8) 0.56890(14)
C8I C 0.17289(5) 0.37704(8) 0.66571(15)
C7I C 0.16601(6) 0.46435(9) 0.69117(16)
C6I C 0.11829(6) 0.49214(8) 0.78443(18)
N3I N 0.07647(5) 0.44049(7) 0.85880(13)
C5I C 0.08359(5) 0.35891(8) 0.84062(15)
H3I H 0.0557(8) 0.3214(10) 0.894(2)
C9I C 0.13079(6) 0.32290(8) 0.74431(16)
C4I C 0.13836(6) 0.23542(8) 0.72581(16)
C3I C 0.18523(6) 0.20653(9) 0.63057(16)
H1I H 0.1933(8) 0.1476(13) 0.618(2)
H2I H 0.1124(9) 0.1966(14) 0.779(2)
H4I H 0.1120(8) 0.5493(13) 0.801(2)
H5I H 0.1937(9) 0.5020(10) 0.643(2)
S1H S 0.5000 0.15291(5) -0.47393(7)
N1H N 0.5000 0.10213(11) -0.1552(2)
C1H C 0.5000 0.12266(12) -0.2891(2)
N2N N 0.71920(5) 0.15217(8) 0.43110(14)
C2N C 0.72449(5) 0.23444(8) 0.44666(15)
C3N C 0.68523(6) 0.29347(9) 0.36943(16)
H1N H 0.6933(8) 0.3524(13) 0.382(2)
C4N C 0.63836(6) 0.26458(8) 0.27419(16)
H2N H 0.6124(9) 0.3034(14) 0.221(2)
C5N C 0.58359(5) 0.14109(8) 0.15938(15)
H3N H 0.5557(8) 0.1786(10) 0.106(2)
N3N N 0.57647(5) 0.05951(7) 0.14120(13)
C6N C 0.61829(6) 0.00786(8) 0.21557(18)
H4N H 0.6120(8) -0.0493(13) 0.199(2)
C7N C 0.66601(6) 0.03565(9) 0.30883(16)
H5N H 0.6937(9) -0.0020(10) 0.357(2)
C8N C 0.67289(5) 0.12296(8) 0.33429(15)
C9N C 0.63079(6) 0.17710(8) 0.25569(16)
C2G C 0.77551(5) 0.26556(8) 0.55334(15)
N2G N 0.78080(5) 0.34783(8) 0.56890(14)
C8G C 0.82711(5) 0.37704(8) 0.66571(15)
C7G C 0.83399(6) 0.46435(9) 0.69117(16)
C6G C 0.88171(6) 0.49214(8) 0.78443(18)
N3G N 0.92353(5) 0.44049(7) 0.85880(13)
C5G C 0.91641(5) 0.35891(8) 0.84062(15)
H3G H 0.9443(8) 0.3214(10) 0.894(2)
C9G C 0.86921(6) 0.32290(8) 0.74431(16)
C4G C 0.86164(6) 0.23542(8) 0.72581(16)
C3G C 0.81477(6) 0.20653(9) 0.63057(16)
H1G H 0.8067(8) 0.1476(13) 0.618(2)
H2G H 0.8876(9) 0.1966(14) 0.779(2)
H4G H 0.8880(8) 0.5493(13) 0.801(2)
H5G H 0.8063(9) 0.5020(10) 0.643(2)
N3H N 0.57647(5) -0.05951(7) -0.14120(13)
N3F N 0.42353(5) -0.05951(7) -0.14120(13)
Zn1I Zn 0.0000 0.5000 1.0000
Zn1G Zn 1.0000 0.5000 1.0000
loop_
_geom_bond_atom_site_label_1
_geom_bond_atom_site_label_2
_geom_bond_site_symmetry_1
_geom_bond_site_symmetry_2
Zn1 N1 1_555 1_555
S1 C1 1_555 1_555
N1 C1 1_555 1_555
N2 C2 1_555 1_555
C2 C3 1_555 1_555
C3 H1 1_555 1_555
C4 C3 1_555 1_555
H2 C4 1_555 1_555
C5 H3 1_555 1_555
N3 Zn1 1_555 1_555
C6 N3 1_555 1_555
H4 C6 1_555 1_555
C7 C6 1_555 1_555
H5 C7 1_555 1_555
C8 N2 1_555 1_555
C9 C4 1_555 1_555
C2I C2 1_555 1_555
N2I C2I 1_555 1_555
C8I N2I 1_555 1_555
C7I C8I 1_555 1_555
C6I C7I 1_555 1_555
N3I C6I 1_555 1_555
C5I N3I 1_555 1_555
H3I C5I 1_555 1_555
C9I C8I 1_555 1_555
C4I C9I 1_555 1_555
C3I C2I 1_555 1_555
H1I C3I 1_555 1_555
H2I C4I 1_555 1_555
H4I C6I 1_555 1_555
H5I C7I 1_555 1_555
S1H C1H 1_555 1_555
N1H Zn1 1_555 1_555
C1H N1H 1_555 1_555
N2N C2N 1_555 1_555
C2N C3N 1_555 1_555
C3N H1N 1_555 1_555
C4N C3N 1_555 1_555
H2N C4N 1_555 1_555
C5N H3N 1_555 1_555
N3N Zn1 1_555 1_555
C6N N3N 1_555 1_555
H4N C6N 1_555 1_555
C7N C6N 1_555 1_555
H5N C7N 1_555 1_555
C8N N2N 1_555 1_555
C9N C4N 1_555 1_555
C2G C2N 1_555 1_555
N2G C2G 1_555 1_555
C8G N2G 1_555 1_555
C7G C8G 1_555 1_555
C6G C7G 1_555 1_555
N3G C6G 1_555 1_555
C5G N3G 1_555 1_555
H3G C5G 1_555 1_555
C9G C8G 1_555 1_555
C4G C9G 1_555 1_555
C3G C2G 1_555 1_555
H1G C3G 1_555 1_555
H2G C4G 1_555 1_555
H4G C6G 1_555 1_555
H5G C7G 1_555 1_555
N3H Zn1 1_555 1_555
N3F Zn1 1_555 1_555
Zn1I N3I 1_555 1_555
Zn1G N3G 1_555 1_555
C5 N3 1_555 1_555
C5 C9 1_555 1_555
C7 C8 1_555 1_555
C8 C9 1_555 1_555
C5I C9I 1_555 1_555
C4I C3I 1_555 1_555
C5N N3N 1_555 1_555
C5N C9N 1_555 1_555
C7N C8N 1_555 1_555
C8N C9N 1_555 1_555
C5G C9G 1_555 1_555
C4G C3G 1_555 1_555

#END
