
#######################################################################
#
#                 Cambridge Crystallographic Data Centre
#                                CCDC 
#
#######################################################################
#
# If this CIF has been generated from an entry in the Cambridge 
# Structural Database, then it will include bibliographic, chemical, 
# crystal, experimental, refinement or atomic coordinate data resulting 
# from the CCDC's data processing and validation procedures.
#
#######################################################################

data_JOFQUS
_symmetry_cell_setting           monoclinic
_symmetry_space_group_name_H-M   'P 21/n'
_symmetry_Int_Tables_number      14
_space_group_name_Hall           '-P 2yn'
loop_
_symmetry_equiv_pos_site_id
_symmetry_equiv_pos_as_xyz
1 x,y,z
2 1/2-x,1/2+y,1/2-z
3 -x,-y,-z
4 1/2+x,1/2-y,1/2+z
_cell_length_a                   6.2169(4)
_cell_length_b                   10.5404(6)
_cell_length_c                   25.9134(15)
_cell_angle_alpha                90
_cell_angle_beta                 92.9200(10)
_cell_angle_gamma                90
_cell_volume                     1695.86
loop_
_atom_site_label
_atom_site_type_symbol
_atom_site_fract_x
_atom_site_fract_y
_atom_site_fract_z
Gd1 Gd 0.25528(3) 0.125002(18) 0.010520(7)
O1 O 0.5886(4) 0.2251(3) 0.04444(11)
O2 O 0.3047(4) 0.3470(3) 0.04074(12)
O3 O 1.0852(5) 0.5529(3) 0.07244(13)
H1 H 1.1568 0.4888 0.0644
O4 O 0.1396(4) 0.1366(3) 0.09981(10)
O5 O -0.0616(4) 0.0149(3) 0.04895(10)
O6 O -0.4273(5) 0.0531(3) 0.22551(14)
H2 H -0.520(8) -0.004(3) 0.237(2)
O7 O 0.4463(4) -0.0535(2) 0.04495(10)
O8 O 0.6266(5) -0.2244(3) 0.06848(11)
O9 O 0.3185(6) -0.1543(3) 0.23918(13)
H3 H 0.2391 -0.1552 0.2645
O10 O -0.0588(4) 0.2392(3) -0.01446(11)
H4 H -0.0820 0.2804 -0.0440
H5 H -0.0901 0.2978 0.0088
C1 C 0.5039(6) 0.3334(4) 0.05103(16)
C2 C 0.6405(7) 0.4460(4) 0.06627(18)
H6 H 0.5464 0.5144 0.0784
H7 H 0.7113 0.4778 0.0354
C3 C 0.8130(7) 0.4166(4) 0.10857(16)
H8 H 0.7427 0.3981 0.1412
H9 H 0.8934 0.3399 0.0988
C4 C 0.9699(7) 0.5256(4) 0.11746(17)
H10 H 0.8899 0.6022 0.1275
H11 H 1.0737 0.5039 0.1464
C5 C -0.0176(6) 0.0636(4) 0.09350(15)
C6 C -0.1585(7) 0.0288(4) 0.13706(15)
H12 H -0.3036 0.0652 0.1296
H13 H -0.1739 -0.0646 0.1378
C7 C -0.0773(7) 0.0731(5) 0.18988(16)
H14 H -0.0871 0.1667 0.1917
H15 H 0.0761 0.0491 0.1956
C8 C -0.2079(7) 0.0145(5) 0.23230(17)
H16 H -0.1984 -0.0792 0.2307
H17 H -0.1483 0.0424 0.2666
C9 C 0.4819(6) -0.1453(3) 0.07653(14)
C10 C 0.3489(6) -0.1539(4) 0.12335(15)
H18 H 0.1964 -0.1662 0.1116
H19 H 0.3589 -0.0719 0.1419
C11 C 0.4125(7) -0.2591(4) 0.16113(16)
H20 H 0.4013 -0.3418 0.1430
H21 H 0.5645 -0.2472 0.1734
C12 C 0.2717(7) -0.2618(4) 0.20728(16)
H22 H 0.1179 -0.2607 0.1953
H23 H 0.2991 -0.3406 0.2273
Gd1B Gd -0.25528(3) -0.125002(18) -0.010520(7)
Gd1B_2 Gd 0.74472(3) -0.125002(18) -0.010520(7)
O5B O 0.0616(4) -0.0149(3) -0.04895(10)
O7B O 0.5537(4) 0.0535(2) -0.04495(10)
O8B O 0.3734(5) 0.2244(3) -0.06848(11)
O11 O 0.3923(6) 0.2704(3) 0.17660(13)
H24 H 0.464(7) 0.205(4) 0.1922(19)
H25 H 0.292(6) 0.234(4) 0.1560(17)
loop_
_geom_bond_atom_site_label_1
_geom_bond_atom_site_label_2
_geom_bond_site_symmetry_1
_geom_bond_site_symmetry_2
Gd1 O1 1_555 1_555
O1 C1 1_555 1_555
O2 Gd1 1_555 1_555
O3 H1 1_555 1_555
O4 Gd1 1_555 1_555
O5 Gd1 1_555 1_555
O6 H2 1_555 1_555
O7 Gd1 1_555 1_555
O8 C9 1_555 1_555
O9 H3 1_555 1_555
O10 Gd1 1_555 1_555
H4 O10 1_555 1_555
H5 O10 1_555 1_555
C1 O2 1_555 1_555
C2 C1 1_555 1_555
H6 C2 1_555 1_555
H7 C2 1_555 1_555
C3 C2 1_555 1_555
H8 C3 1_555 1_555
H9 C3 1_555 1_555
C4 O3 1_555 1_555
H10 C4 1_555 1_555
H11 C4 1_555 1_555
C5 O4 1_555 1_555
C6 C5 1_555 1_555
H12 C6 1_555 1_555
H13 C6 1_555 1_555
C7 C6 1_555 1_555
H14 C7 1_555 1_555
H15 C7 1_555 1_555
C8 O6 1_555 1_555
H16 C8 1_555 1_555
H17 C8 1_555 1_555
C9 O7 1_555 1_555
C10 C9 1_555 1_555
H18 C10 1_555 1_555
H19 C10 1_555 1_555
C11 C10 1_555 1_555
H20 C11 1_555 1_555
H21 C11 1_555 1_555
C12 O9 1_555 1_555
H22 C12 1_555 1_555
H23 C12 1_555 1_555
O11 H24 1_555 1_555
H25 O11 1_555 1_555
Gd1B O5 1_555 1_555
Gd1B_2 O7 1_555 1_555
O5B Gd1 1_555 1_555
O7B Gd1 1_555 1_555
O8B Gd1 1_555 1_555
O5 C5 1_555 1_555
O8 Gd1B_2 1_555 1_555
C3 C4 1_555 1_555
C7 C8 1_555 1_555
C11 C12 1_555 1_555
Gd1B O5B 1_555 1_555
Gd1B_2 O7B 1_555 1_555

#END
