
#######################################################################
#
#                 Cambridge Crystallographic Data Centre
#                                CCDC 
#
#######################################################################
#
# If this CIF has been generated from an entry in the Cambridge 
# Structural Database, then it will include bibliographic, chemical, 
# crystal, experimental, refinement or atomic coordinate data resulting 
# from the CCDC's data processing and validation procedures.
#
#######################################################################

data_JOFQEA
_symmetry_cell_setting           orthorhombic
_symmetry_space_group_name_H-M   'C m c a'
_symmetry_Int_Tables_number      64
_space_group_name_Hall           '-C 2ac 2'
loop_
_symmetry_equiv_pos_site_id
_symmetry_equiv_pos_as_xyz
1 x,y,z
2 x,1/2-y,1/2+z
3 x,1/2+y,1/2-z
4 1/2+x,1/2+y,z
5 1/2+x,-y,1/2+z
6 1/2+x,y,1/2-z
7 -x,y,z
8 1/2-x,1/2+y,z
9 -x,-y,-z
10 -x,1/2+y,1/2-z
11 -x,1/2-y,1/2+z
12 1/2-x,1/2-y,-z
13 1/2-x,y,1/2-z
14 1/2-x,-y,1/2+z
15 x,-y,-z
16 1/2+x,1/2-y,-z
_cell_length_a                   21.4385(17)
_cell_length_b                   15.9180(10)
_cell_length_c                   8.3683(5)
_cell_angle_alpha                90
_cell_angle_beta                 90
_cell_angle_gamma                90
_cell_volume                     2855.75
loop_
_atom_site_label
_atom_site_type_symbol
_atom_site_fract_x
_atom_site_fract_y
_atom_site_fract_z
Co1 Co 0.5000 0.0000 0.0000
S1 S 0.5000 -0.15307(6) 0.47598(9)
N1 N 0.5000 -0.10009(14) 0.1580(3)
C1 C 0.5000 -0.12144(17) 0.2911(3)
N2 N 0.28077(6) 0.15213(10) 0.43102(19)
C2 C 0.27550(7) 0.23418(11) 0.4466(2)
C3 C 0.31477(7) 0.29331(12) 0.3686(2)
H1 H 0.3068(10) 0.3525(16) 0.379(3)
C4 C 0.36180(7) 0.26439(12) 0.2726(2)
H2 H 0.3896(10) 0.3028(17) 0.221(3)
C5 C 0.41661(7) 0.14068(12) 0.1575(2)
H3 H 0.4447(8) 0.1776(13) 0.101(2)
N3 N 0.42371(6) 0.05947(10) 0.13865(18)
C6 C 0.38164(7) 0.00765(13) 0.2137(2)
H4 H 0.3876(10) -0.0480(18) 0.194(3)
C7 C 0.33412(8) 0.03573(12) 0.3076(2)
H5 H 0.3053(9) -0.0039(16) 0.353(3)
C8 C 0.32722(7) 0.12253(11) 0.3333(2)
C9 C 0.36925(7) 0.17704(11) 0.2542(2)
C2K C 0.22450(7) 0.26582(11) 0.5534(2)
N2K N 0.21923(6) 0.34787(10) 0.56898(19)
C8K C 0.17278(7) 0.37747(11) 0.6667(2)
C7K C 0.16588(8) 0.46427(12) 0.6924(2)
C6K C 0.11836(7) 0.49235(13) 0.7863(2)
N3K N 0.07629(6) 0.44053(10) 0.86135(18)
C5K C 0.08339(7) 0.35932(12) 0.8425(2)
H3K H 0.0553(8) 0.3224(13) 0.899(2)
C9K C 0.13075(7) 0.32296(11) 0.7458(2)
C4K C 0.13820(7) 0.23561(12) 0.7274(2)
C3K C 0.18523(7) 0.20669(12) 0.6314(2)
H1K H 0.1932(10) 0.1475(16) 0.621(3)
H2K H 0.1104(10) 0.1972(17) 0.779(3)
H4K H 0.1124(10) 0.5480(18) 0.806(3)
H5K H 0.1947(9) 0.5039(16) 0.647(3)
S1H S 0.5000 0.15307(6) -0.47598(9)
N1H N 0.5000 0.10009(14) -0.1580(3)
C1H C 0.5000 0.12144(17) -0.2911(3)
N2F N 0.71923(6) 0.15213(10) 0.43102(19)
C2F C 0.72450(7) 0.23418(11) 0.4466(2)
C3F C 0.68523(7) 0.29331(12) 0.3686(2)
H1F H 0.6932(10) 0.3525(16) 0.379(3)
C4F C 0.63820(7) 0.26439(12) 0.2726(2)
H2F H 0.6104(10) 0.3028(17) 0.221(3)
C5F C 0.58339(7) 0.14068(12) 0.1575(2)
H3F H 0.5553(8) 0.1776(13) 0.101(2)
N3F N 0.57629(6) 0.05947(10) 0.13865(18)
C6F C 0.61836(7) 0.00765(13) 0.2137(2)
H4F H 0.6124(10) -0.0480(18) 0.194(3)
C7F C 0.66588(8) 0.03573(12) 0.3076(2)
H5F H 0.6947(9) -0.0039(16) 0.353(3)
C8F C 0.67278(7) 0.12253(11) 0.3333(2)
C9F C 0.63075(7) 0.17704(11) 0.2542(2)
C2O C 0.77550(7) 0.26582(11) 0.5534(2)
N2O N 0.78077(6) 0.34787(10) 0.56898(19)
C8O C 0.82722(7) 0.37747(11) 0.6667(2)
C7O C 0.83412(8) 0.46427(12) 0.6924(2)
C6O C 0.88164(7) 0.49235(13) 0.7863(2)
N3O N 0.92371(6) 0.44053(10) 0.86135(18)
C5O C 0.91661(7) 0.35932(12) 0.8425(2)
H3O H 0.9447(8) 0.3224(13) 0.899(2)
C9O C 0.86925(7) 0.32296(11) 0.7458(2)
C4O C 0.86180(7) 0.23561(12) 0.7274(2)
C3O C 0.81477(7) 0.20669(12) 0.6314(2)
H1O H 0.8068(10) 0.1475(16) 0.621(3)
H2O H 0.8896(10) 0.1972(17) 0.779(3)
H4O H 0.8876(10) 0.5480(18) 0.806(3)
H5O H 0.8053(9) 0.5039(16) 0.647(3)
N3H N 0.57629(6) -0.05947(10) -0.13865(18)
N3N N 0.42371(6) -0.05947(10) -0.13865(18)
Co1K Co 0.0000 0.5000 1.0000
Co1O Co 1.0000 0.5000 1.0000
loop_
_geom_bond_atom_site_label_1
_geom_bond_atom_site_label_2
_geom_bond_site_symmetry_1
_geom_bond_site_symmetry_2
Co1 N1 1_555 1_555
S1 C1 1_555 1_555
N1 C1 1_555 1_555
N2 C2 1_555 1_555
C2 C3 1_555 1_555
C3 H1 1_555 1_555
C4 C3 1_555 1_555
H2 C4 1_555 1_555
C5 H3 1_555 1_555
N3 Co1 1_555 1_555
C6 N3 1_555 1_555
H4 C6 1_555 1_555
C7 C6 1_555 1_555
H5 C7 1_555 1_555
C8 N2 1_555 1_555
C9 C4 1_555 1_555
C2K C2 1_555 1_555
N2K C2K 1_555 1_555
C8K N2K 1_555 1_555
C7K C8K 1_555 1_555
C6K C7K 1_555 1_555
N3K C6K 1_555 1_555
C5K N3K 1_555 1_555
H3K C5K 1_555 1_555
C9K C8K 1_555 1_555
C4K C9K 1_555 1_555
C3K C2K 1_555 1_555
H1K C3K 1_555 1_555
H2K C4K 1_555 1_555
H4K C6K 1_555 1_555
H5K C7K 1_555 1_555
S1H C1H 1_555 1_555
N1H Co1 1_555 1_555
C1H N1H 1_555 1_555
N2F C2F 1_555 1_555
C2F C3F 1_555 1_555
C3F H1F 1_555 1_555
C4F C3F 1_555 1_555
H2F C4F 1_555 1_555
C5F H3F 1_555 1_555
N3F Co1 1_555 1_555
C6F N3F 1_555 1_555
H4F C6F 1_555 1_555
C7F C6F 1_555 1_555
H5F C7F 1_555 1_555
C8F N2F 1_555 1_555
C9F C4F 1_555 1_555
C2O C2F 1_555 1_555
N2O C2O 1_555 1_555
C8O N2O 1_555 1_555
C7O C8O 1_555 1_555
C6O C7O 1_555 1_555
N3O C6O 1_555 1_555
C5O N3O 1_555 1_555
H3O C5O 1_555 1_555
C9O C8O 1_555 1_555
C4O C9O 1_555 1_555
C3O C2O 1_555 1_555
H1O C3O 1_555 1_555
H2O C4O 1_555 1_555
H4O C6O 1_555 1_555
H5O C7O 1_555 1_555
N3H Co1 1_555 1_555
N3N Co1 1_555 1_555
Co1K N3K 1_555 1_555
Co1O N3O 1_555 1_555
C5 C9 1_555 1_555
C5 N3 1_555 1_555
C7 C8 1_555 1_555
C8 C9 1_555 1_555
C5K C9K 1_555 1_555
C4K C3K 1_555 1_555
C5F C9F 1_555 1_555
C5F N3F 1_555 1_555
C7F C8F 1_555 1_555
C8F C9F 1_555 1_555
C5O C9O 1_555 1_555
C4O C3O 1_555 1_555

#END
