
#######################################################################
#
#                 Cambridge Crystallographic Data Centre
#                                CCDC 
#
#######################################################################
#
# If this CIF has been generated from an entry in the Cambridge 
# Structural Database, then it will include bibliographic, chemical, 
# crystal, experimental, refinement or atomic coordinate data resulting 
# from the CCDC's data processing and validation procedures.
#
#######################################################################

data_JOFSOO
_symmetry_cell_setting           monoclinic
_symmetry_space_group_name_H-M   'P 2/c'
_symmetry_Int_Tables_number      13
_space_group_name_Hall           '-P 2yc'
loop_
_symmetry_equiv_pos_site_id
_symmetry_equiv_pos_as_xyz
1 x,y,z
2 -x,y,1/2-z
3 -x,-y,-z
4 x,-y,1/2+z
_cell_length_a                   11.4377(5)
_cell_length_b                   10.9909(4)
_cell_length_c                   23.6256(10)
_cell_angle_alpha                90
_cell_angle_beta                 101.327(2)
_cell_angle_gamma                90
_cell_volume                     2912.14
loop_
_atom_site_label
_atom_site_type_symbol
_atom_site_fract_x
_atom_site_fract_y
_atom_site_fract_z
C1 C 0.4116(6) 0.7858(6) 0.0475(3)
C2 C 0.4594(6) 0.8954(6) 0.0231(3)
C3 C 0.5177(7) 0.8871(6) -0.0221(3)
H1 H 0.5295 0.8112 -0.0375
C4 C 0.4412(6) 1.0108(7) 0.0448(3)
H2 H 0.4006 1.0182 0.0751
C5 C 0.1649(6) 0.6622(5) 0.1722(3)
C6 C 0.0797(6) 0.6723(5) 0.2120(3)
C7 C 0.1217(6) 0.6755(6) 0.2717(3)
H3 H 0.2032 0.6797 0.2866
C8 C -0.0418(6) 0.6726(6) 0.1913(3)
H4 H -0.0706 0.6708 0.1517
C9 C 0.5430(6) 0.5238(6) 0.1826(3)
H5 H 0.5460 0.6080 0.1864
C10 C 0.6311(6) 0.4571(6) 0.2166(3)
H6 H 0.6915 0.4957 0.2425
C11 C 0.6287(6) 0.3302(6) 0.2118(3)
C12 C 0.5345(6) 0.2787(6) 0.1726(3)
H7 H 0.5285 0.1948 0.1679
C13 C 0.4506(6) 0.3549(6) 0.1411(3)
H8 H 0.3876 0.3191 0.1156
C14 C 0.7970(6) 0.2861(6) 0.2912(3)
C15 C 0.8895(6) 0.1921(6) 0.3155(3)
C16 C 0.8555(7) 0.0725(7) 0.3153(4)
H9 H 0.7794 0.0493 0.2968
C17 C 0.9365(7) -0.0151(7) 0.3434(4)
H10 H 0.9122 -0.0959 0.3433
C18 C 1.0480(6) 0.0139(6) 0.3705(3)
C19 C 1.0858(6) 0.1384(6) 0.3708(3)
C20 C 1.1999(6) 0.1752(6) 0.4016(3)
H11 H 1.2523 0.1170 0.4206
C21 C 1.2334(7) 0.2935(7) 0.4038(3)
H12 H 1.3068 0.3166 0.4256
C22 C 1.1571(7) 0.3814(7) 0.3730(4)
H13 H 1.1824 0.4617 0.3727
C23 C 1.0460(6) 0.3501(6) 0.3434(3)
H14 H 0.9961 0.4094 0.3236
C24 C 1.0066(6) 0.2281(6) 0.3430(3)
C25 C 1.1300(7) -0.0834(6) 0.3990(3)
C26 C 1.1349(6) -0.2550(5) 0.4673(3)
C27 C 1.2427(6) -0.3066(6) 0.4614(3)
H15 H 1.2868 -0.2744 0.4359
C28 C 1.2826(6) -0.4085(6) 0.4952(3)
H16 H 1.3543 -0.4440 0.4911
C29 C 1.0732(6) -0.3067(6) 0.5059(3)
H17 H 1.0003 -0.2746 0.5103
C30 C 1.1204(6) -0.4065(6) 0.5380(3)
H18 H 1.0785 -0.4396 0.5643
Cd1 Cd 0.30754(4) 0.59974(4) 0.097886(19)
N1 N 0.4527(5) 0.4757(5) 0.1442(2)
N2 N 0.7164(5) 0.2540(5) 0.2431(2)
N3 N 1.0851(5) -0.1530(5) 0.4365(2)
H19 H 0.7128 0.1858 0.2317
H20 H 1.0128 -0.1291 0.4474
N4 N 1.2241(5) -0.4574(5) 0.5327(2)
O1 O 0.3337(5) 0.7980(5) 0.0772(3)
O2 O 0.4452(5) 0.6824(5) 0.0362(3)
O3 O 0.2757(5) 0.6701(4) 0.1912(2)
O4 O 0.1236(5) 0.6401(5) 0.1195(2)
O5 O 0.7921(5) 0.3838(5) 0.3140(3)
O6 O 1.2297(6) -0.0988(5) 0.3880(3)
C1B C 0.5884(6) 1.2142(6) -0.0475(3)
C2B C 0.5406(6) 1.1046(6) -0.0231(3)
C3B C 0.4823(7) 1.1129(6) 0.0221(3)
H1B H 0.4705 1.1888 0.0375
C4B C 0.5588(6) 0.9892(7) -0.0448(3)
H2B H 0.5994 0.9818 -0.0751
O1B O 0.6663(5) 1.2020(5) -0.0772(3)
O2B O 0.5548(5) 1.3176(5) -0.0362(3)
C5A C -0.1649(6) 0.6622(5) 0.3278(3)
C6A C -0.0797(6) 0.6723(5) 0.2880(3)
C7A C -0.1217(6) 0.6755(6) 0.2283(3)
H3A H -0.2032 0.6797 0.2134
C8A C 0.0418(6) 0.6726(6) 0.3087(3)
H4A H 0.0706 0.6708 0.3483
O3A O -0.2757(5) 0.6701(4) 0.3088(2)
O4A O -0.1236(5) 0.6401(5) 0.3805(2)
C9A C -0.5430(6) 0.5238(6) 0.3174(3)
H5A H -0.5460 0.6080 0.3136
C10A C -0.6311(6) 0.4571(6) 0.2834(3)
H6A H -0.6915 0.4957 0.2575
C11A C -0.6287(6) 0.3302(6) 0.2882(3)
C12A C -0.5345(6) 0.2787(6) 0.3274(3)
H7A H -0.5285 0.1948 0.3321
C13A C -0.4506(6) 0.3549(6) 0.3589(3)
H8A H -0.3876 0.3191 0.3844
C14A C -0.7970(6) 0.2861(6) 0.2088(3)
C15A C -0.8895(6) 0.1921(6) 0.1845(3)
C16A C -0.8555(7) 0.0725(7) 0.1847(4)
H9A H -0.7794 0.0493 0.2032
C17A C -0.9365(7) -0.0151(7) 0.1566(4)
H10A H -0.9122 -0.0959 0.1567
C18A C -1.0480(6) 0.0139(6) 0.1295(3)
C19A C -1.0858(6) 0.1384(6) 0.1292(3)
C20A C -1.1999(6) 0.1752(6) 0.0984(3)
H11A H -1.2523 0.1170 0.0794
C21A C -1.2334(7) 0.2935(7) 0.0962(3)
H12A H -1.3068 0.3166 0.0744
C22A C -1.1571(7) 0.3814(7) 0.1270(4)
H13A H -1.1824 0.4617 0.1273
C23A C -1.0460(6) 0.3501(6) 0.1566(3)
H14A H -0.9961 0.4094 0.1764
C24A C -1.0066(6) 0.2281(6) 0.1570(3)
C25A C -1.1300(7) -0.0834(6) 0.1010(3)
C26A C -1.1349(6) -0.2550(5) 0.0327(3)
C27A C -1.2427(6) -0.3066(6) 0.0386(3)
H15A H -1.2868 -0.2744 0.0641
C28A C -1.2826(6) -0.4085(6) 0.0048(3)
H16A H -1.3543 -0.4440 0.0089
C29A C -1.0732(6) -0.3067(6) -0.0059(3)
H17A H -1.0003 -0.2746 -0.0103
C30A C -1.1204(6) -0.4065(6) -0.0380(3)
H18A H -1.0785 -0.4396 -0.0643
Cd1A Cd -0.30754(4) 0.59974(4) 0.402114(19)
N1A N -0.4527(5) 0.4757(5) 0.3558(2)
N2A N -0.7164(5) 0.2540(5) 0.2569(2)
N3A N -1.0851(5) -0.1530(5) 0.0635(2)
H19A H -0.7128 0.1858 0.2683
H20A H -1.0128 -0.1291 0.0526
N4A N -1.2241(5) -0.4574(5) -0.0327(2)
O5A O -0.7921(5) 0.3838(5) 0.1860(3)
O6A O -1.2297(6) -0.0988(5) 0.1120(3)
Cd1B Cd -1.30754(4) -0.59974(4) -0.097886(19)
Cd1B_2 Cd 0.69246(4) 1.40026(4) -0.097886(19)
Cd1C Cd 1.30754(4) -0.59974(4) 0.597886(19)
N4B N -0.2241(5) 0.4574(5) 0.4673(2)
N4C N 0.2241(5) 0.4574(5) 0.0327(2)
O1A O -0.3337(5) 0.7980(5) 0.4228(3)
O2A O -0.4452(5) 0.6824(5) 0.4638(3)
loop_
_geom_bond_atom_site_label_1
_geom_bond_atom_site_label_2
_geom_bond_site_symmetry_1
_geom_bond_site_symmetry_2
C1 C2 1_555 1_555
C2 C3 1_555 1_555
C3 H1 1_555 1_555
C4 C2 1_555 1_555
H2 C4 1_555 1_555
C5 C6 1_555 1_555
C6 C7 1_555 1_555
C7 H3 1_555 1_555
C8 C6 1_555 1_555
H4 C8 1_555 1_555
C9 H5 1_555 1_555
C10 C9 1_555 1_555
H6 C10 1_555 1_555
C11 C10 1_555 1_555
C12 C11 1_555 1_555
H7 C12 1_555 1_555
C13 C12 1_555 1_555
H8 C13 1_555 1_555
C14 C15 1_555 1_555
C15 C16 1_555 1_555
C16 H9 1_555 1_555
C17 C16 1_555 1_555
H10 C17 1_555 1_555
C18 C17 1_555 1_555
C19 C18 1_555 1_555
C20 C19 1_555 1_555
H11 C20 1_555 1_555
C21 C20 1_555 1_555
H12 C21 1_555 1_555
C22 C21 1_555 1_555
H13 C22 1_555 1_555
C23 C22 1_555 1_555
H14 C23 1_555 1_555
C24 C15 1_555 1_555
C25 C18 1_555 1_555
C26 C27 1_555 1_555
C27 H15 1_555 1_555
C28 C27 1_555 1_555
H16 C28 1_555 1_555
C29 C26 1_555 1_555
H17 C29 1_555 1_555
C30 C29 1_555 1_555
H18 C30 1_555 1_555
Cd1 N1 1_555 1_555
N1 C9 1_555 1_555
N2 C11 1_555 1_555
N3 C25 1_555 1_555
H19 N2 1_555 1_555
H20 N3 1_555 1_555
N4 C28 1_555 1_555
O1 C1 1_555 1_555
O2 C1 1_555 1_555
O3 C5 1_555 1_555
O4 C5 1_555 1_555
O5 C14 1_555 1_555
O6 C25 1_555 1_555
C1B C2B 1_555 1_555
C2B C3B 1_555 1_555
C3B C4 1_555 1_555
H1B C3B 1_555 1_555
C4B C3 1_555 1_555
H2B C4B 1_555 1_555
O1B C1B 1_555 1_555
O2B C1B 1_555 1_555
C5A C6A 1_555 1_555
C6A C7A 1_555 1_555
C7A C8 1_555 1_555
H3A C7A 1_555 1_555
C8A C7 1_555 1_555
H4A C8A 1_555 1_555
O3A C5A 1_555 1_555
O4A C5A 1_555 1_555
C9A H5A 1_555 1_555
C10A C9A 1_555 1_555
H6A C10A 1_555 1_555
C11A C10A 1_555 1_555
C12A C11A 1_555 1_555
H7A C12A 1_555 1_555
C13A C12A 1_555 1_555
H8A C13A 1_555 1_555
C14A C15A 1_555 1_555
C15A C16A 1_555 1_555
C16A H9A 1_555 1_555
C17A C16A 1_555 1_555
H10A C17A 1_555 1_555
C18A C17A 1_555 1_555
C19A C18A 1_555 1_555
C20A C19A 1_555 1_555
H11A C20A 1_555 1_555
C21A C20A 1_555 1_555
H12A C21A 1_555 1_555
C22A C21A 1_555 1_555
H13A C22A 1_555 1_555
C23A C22A 1_555 1_555
H14A C23A 1_555 1_555
C24A C15A 1_555 1_555
C25A C18A 1_555 1_555
C26A C27A 1_555 1_555
C27A H15A 1_555 1_555
C28A C27A 1_555 1_555
H16A C28A 1_555 1_555
C29A C26A 1_555 1_555
H17A C29A 1_555 1_555
C30A C29A 1_555 1_555
H18A C30A 1_555 1_555
Cd1A O3A 1_555 1_555
N1A C9A 1_555 1_555
N2A C11A 1_555 1_555
N3A C25A 1_555 1_555
H19A N2A 1_555 1_555
H20A N3A 1_555 1_555
N4A C28A 1_555 1_555
O5A C14A 1_555 1_555
O6A C25A 1_555 1_555
Cd1B N4A 1_555 1_555
Cd1B_2 O1B 1_555 1_555
Cd1C N4 1_555 1_555
N4B Cd1A 1_555 1_555
N4C Cd1 1_555 1_555
O1A Cd1A 1_555 1_555
O2A Cd1A 1_555 1_555
C13 N1 1_555 1_555
C14 N2 1_555 1_555
C19 C24 1_555 1_555
C23 C24 1_555 1_555
C26 N3 1_555 1_555
C30 N4 1_555 1_555
Cd1 O1 1_555 1_555
Cd1 O2 1_555 1_555
Cd1 O3 1_555 1_555
Cd1 O4 1_555 1_555
C2B C4B 1_555 1_555
O2B Cd1B_2 1_555 1_555
C6A C8A 1_555 1_555
O4A Cd1A 1_555 1_555
C13A N1A 1_555 1_555
C14A N2A 1_555 1_555
C19A C24A 1_555 1_555
C23A C24A 1_555 1_555
C26A N3A 1_555 1_555
C30A N4A 1_555 1_555
Cd1A N1A 1_555 1_555

#END
