
#######################################################################
#
#                 Cambridge Crystallographic Data Centre
#                                CCDC 
#
#######################################################################
#
# If this CIF has been generated from an entry in the Cambridge 
# Structural Database, then it will include bibliographic, chemical, 
# crystal, experimental, refinement or atomic coordinate data resulting 
# from the CCDC's data processing and validation procedures.
#
#######################################################################

data_JOFTIJ
_symmetry_cell_setting           monoclinic
_symmetry_space_group_name_H-M   'P 21/c'
_symmetry_Int_Tables_number      14
_space_group_name_Hall           '-P 2ybc'
loop_
_symmetry_equiv_pos_site_id
_symmetry_equiv_pos_as_xyz
1 x,y,z
2 -x,1/2+y,1/2-z
3 -x,-y,-z
4 x,1/2-y,1/2+z
_cell_length_a                   11.8446(2)
_cell_length_b                   16.2081(2)
_cell_length_c                   15.5426(2)
_cell_angle_alpha                90
_cell_angle_beta                 116.3730(10)
_cell_angle_gamma                90
_cell_volume                     2673.29
loop_
_atom_site_label
_atom_site_type_symbol
_atom_site_fract_x
_atom_site_fract_y
_atom_site_fract_z
C1 C 1.0081(2) 0.52246(16) 1.24136(19)
H1 H 1.0291 0.5061 1.3040
C2 C 0.8868(2) 0.55083(16) 1.18551(19)
H2 H 0.8284 0.5539 1.2102
C3 C 0.8548(2) 0.57465(15) 1.09158(19)
C4 C 0.9497(2) 0.57516(18) 1.0619(2)
H3 H 0.9334 0.5951 1.0013
C5 C 1.0671(2) 0.54616(17) 1.1223(2)
H4 H 1.1291 0.5467 1.1009
C6 C 0.6280(2) 0.61100(17) 1.0346(2)
C7 C 0.5167(2) 0.63112(16) 0.94035(19)
C8 C 0.4888(2) 0.57898(18) 0.8646(2)
H5 H 0.5372 0.5319 0.8725
C9 C 0.3876(3) 0.59589(18) 0.7751(2)
H6 H 0.3679 0.5588 0.7248
C10 C 0.3174(2) 0.66635(17) 0.76080(19)
C11 C 0.3413(2) 0.72173(16) 0.83738(18)
C12 C 0.4426(2) 0.70371(16) 0.92992(18)
C13 C 0.4679(2) 0.75914(16) 1.00656(19)
H7 H 0.5344 0.7484 1.0664
C14 C 0.3967(3) 0.82792(18) 0.9942(2)
H8 H 0.4154 0.8641 1.0452
C15 C 0.2950(2) 0.84462(17) 0.9048(2)
H9 H 0.2455 0.8911 0.8973
C16 C 0.2685(2) 0.79346(17) 0.8291(2)
H10 H 0.2008 0.8057 0.7704
C17 C 0.2125(3) 0.67621(19) 0.6609(2)
C18 C 0.1403(2) 0.76182(18) 0.51489(19)
C19 C 0.1714(3) 0.82949(18) 0.47429(19)
H11 H 0.2370 0.8643 0.5124
C20 C 0.1051(3) 0.84431(19) 0.3784(2)
H12 H 0.1272 0.8890 0.3515
C21 C -0.0231(3) 0.7314(2) 0.3596(2)
H13 H -0.0905 0.6987 0.3196
C22 C 0.0397(2) 0.7116(2) 0.4548(2)
H14 H 0.0163 0.6659 0.4792
C23 C 1.6984(2) 0.82033(15) 1.29657(19)
C24 C 1.4249(2) 0.57686(15) 1.26656(18)
C25 C 1.7922(2) 0.63839(17) 1.58152(18)
C26 C 1.6725(2) 0.74488(14) 1.33997(17)
C27 C 1.7454(2) 0.72580(15) 1.43624(17)
H15 H 1.8126 0.7597 1.4740
C28 C 1.7188(2) 0.65679(15) 1.47636(17)
C29 C 1.6167(2) 0.60709(14) 1.41962(18)
H16 H 1.5985 0.5605 1.4462
C30 C 1.5419(2) 0.62639(14) 1.32399(17)
C31 C 1.5712(2) 0.69455(15) 1.28357(17)
H17 H 1.5232 0.7066 1.2188
N1 N 1.09709(18) 0.51723(13) 1.21009(15)
N2 N 0.73454(19) 0.59534(14) 1.02296(16)
H18 H 0.7321 0.6058 0.9672
N3 N 0.2132(2) 0.74705(14) 0.61232(15)
H19 H 0.2663 0.7834 0.6445
N4 N 0.0087(2) 0.79598(17) 0.32198(18)
O1 O 1.34916(16) 0.60062(11) 1.18540(13)
O2 O 1.41228(15) 0.51253(11) 1.30847(13)
O3 O 1.76529(17) 0.57087(11) 1.60942(13)
O4 O 1.87259(19) 0.68908(14) 1.63346(14)
O5 O 1.6517(2) 0.82884(12) 1.20825(14)
O6 O 1.76933(16) 0.87642(11) 1.35082(13)
O7 O 0.62447(19) 0.60796(15) 1.11131(15)
O8 O 0.149(6) 0.6195(14) 0.617(3)
Zn1 Zn 1.26128(2) 0.449070(16) 1.27616(2)
H20 H -0.038(4) 0.807(2) 0.257(3)
O3B O 1.23471(17) 0.42913(11) 1.39058(13)
O5A O 1.3483(2) 0.32884(12) 1.29175(14)
O6A O 1.23067(16) 0.37642(11) 1.14918(13)
Zn1A Zn 1.73872(2) 0.949070(16) 1.22384(2)
Zn1B Zn 1.73872(2) 0.550930(16) 1.72384(2)
O10 O 0.9023(18) 0.5398(7) 0.4076(12)
O9? O 0.127(3) 0.624(2) 0.631(2)
loop_
_geom_bond_atom_site_label_1
_geom_bond_atom_site_label_2
_geom_bond_site_symmetry_1
_geom_bond_site_symmetry_2
C1 H1 1_555 1_555
C2 C1 1_555 1_555
H2 C2 1_555 1_555
C3 C2 1_555 1_555
C4 C3 1_555 1_555
H3 C4 1_555 1_555
C5 C4 1_555 1_555
H4 C5 1_555 1_555
C6 C7 1_555 1_555
C7 C8 1_555 1_555
C8 H5 1_555 1_555
C9 C8 1_555 1_555
H6 C9 1_555 1_555
C10 C9 1_555 1_555
C11 C10 1_555 1_555
C12 C7 1_555 1_555
C13 C12 1_555 1_555
H7 C13 1_555 1_555
C14 C13 1_555 1_555
H8 C14 1_555 1_555
C15 C14 1_555 1_555
H9 C15 1_555 1_555
C16 C11 1_555 1_555
H10 C16 1_555 1_555
C17 C10 1_555 1_555
C18 C19 1_555 1_555
C19 H11 1_555 1_555
C20 C19 1_555 1_555
H12 C20 1_555 1_555
C21 H13 1_555 1_555
C22 C18 1_555 1_555
H14 C22 1_555 1_555
C23 C26 1_555 1_555
C24 C30 1_555 1_555
C25 C28 1_555 1_555
C26 C27 1_555 1_555
C27 H15 1_555 1_555
C28 C27 1_555 1_555
C29 C28 1_555 1_555
H16 C29 1_555 1_555
C30 C29 1_555 1_555
C31 C26 1_555 1_555
H17 C31 1_555 1_555
N1 C1 1_555 1_555
N2 C3 1_555 1_555
H18 N2 1_555 1_555
N3 C17 1_555 1_555
H19 N3 1_555 1_555
N4 C20 1_555 1_555
O1 C24 1_555 1_555
O2 C24 1_555 1_555
O3 C25 1_555 1_555
O4 C25 1_555 1_555
O5 C23 1_555 1_555
O6 C23 1_555 1_555
O7 C6 1_555 1_555
O8 C17 1_555 1_555
Zn1 N1 1_555 1_555
H20 N4 1_555 1_555
O3B Zn1 1_555 1_555
O5A Zn1 1_555 1_555
O6A Zn1 1_555 1_555
Zn1A O5 1_555 1_555
Zn1B O3 1_555 1_555
C5 N1 1_555 1_555
C6 N2 1_555 1_555
C11 C12 1_555 1_555
C15 C16 1_555 1_555
C18 N3 1_555 1_555
C21 C22 1_555 1_555
C21 N4 1_555 1_555
C30 C31 1_555 1_555
O2 Zn1 1_555 1_555
O6 Zn1A 1_555 1_555

#END
