
#######################################################################
#
#                 Cambridge Crystallographic Data Centre
#                                CCDC 
#
#######################################################################
#
# If this CIF has been generated from an entry in the Cambridge 
# Structural Database, then it will include bibliographic, chemical, 
# crystal, experimental, refinement or atomic coordinate data resulting 
# from the CCDC's data processing and validation procedures.
#
#######################################################################

data_JOFVUX
_symmetry_cell_setting           orthorhombic
_symmetry_space_group_name_H-M   'P b c a'
_symmetry_Int_Tables_number      61
_space_group_name_Hall           '-P 2ac 2ab'
loop_
_symmetry_equiv_pos_site_id
_symmetry_equiv_pos_as_xyz
1 x,y,z
2 1/2-x,-y,1/2+z
3 1/2+x,1/2-y,-z
4 -x,1/2+y,1/2-z
5 -x,-y,-z
6 1/2+x,y,1/2-z
7 1/2-x,1/2+y,z
8 x,1/2-y,1/2+z
_cell_length_a                   17.2460(2)
_cell_length_b                   17.5290(2)
_cell_length_c                   20.6140(4)
_cell_angle_alpha                90
_cell_angle_beta                 90
_cell_angle_gamma                90
_cell_volume                     6231.72
loop_
_atom_site_label
_atom_site_type_symbol
_atom_site_fract_x
_atom_site_fract_y
_atom_site_fract_z
W1 W 0.655949(6) 0.727491(6) 0.135504(5)
Cu1 Cu 0.374362(19) 0.637034(18) 0.197494(16)
Cu2 Cu 0.806108(19) 0.962123(19) 0.022475(15)
Cu3 Cu 0.713247(19) 0.868581(18) -0.087215(16)
N1 N 0.64765(14) 0.62057(16) 0.00341(13)
C1 C 0.59298(15) 0.75405(16) 0.22452(13)
C2 C 0.68029(16) 0.63293(15) 0.19995(13)
N2 N 0.68926(15) 0.58253(15) 0.23506(13)
C3 C 0.65044(14) 0.65780(16) 0.04939(13)
C4 C 0.2291(2) 0.77825(17) 0.14062(16)
C5 C 0.93273(17) 0.84650(16) 0.01730(14)
N3 N 0.49212(14) 0.62753(14) 0.14175(11)
C6 C 0.57139(16) 0.80887(16) 0.10028(13)
O1 O 0.34582(13) 0.47953(14) 0.31475(11)
C7 C 0.72170(15) 0.81098(15) 0.18802(13)
N4 N 0.73106(15) 0.83572(14) 0.01967(12)
C8 C 0.3738(2) 0.78966(19) 0.1560(2)
O2 O 1.01965(13) 0.93829(12) 0.06642(10)
C9 C 0.77606(16) 0.69502(15) 0.11997(13)
C10 C 0.70491(15) 0.79918(15) 0.06063(12)
C11 C 0.46633(19) 0.53421(19) 0.28810(16)
N5 N 0.86602(16) 0.97016(16) 0.10699(12)
N6 N 0.75788(15) 0.85668(15) 0.21468(12)
N7 N 0.52859(15) 0.85218(16) 0.07855(14)
N8 N 0.83987(14) 0.68000(14) 0.10923(13)
N9 N 0.33318(14) 0.53182(14) 0.18706(12)
N10 N 0.89524(14) 0.90932(14) -0.01931(11)
C12 C 0.69011(16) 1.02142(16) -0.05975(14)
O3 O 0.75345(10) 0.96926(10) -0.06336(9)
O4 O 0.31365(11) 0.67237(11) 0.12149(10)
N11 N 0.71007(15) 1.01305(16) 0.05590(12)
C13 C 0.38460(18) 0.46716(16) 0.20254(14)
N12 N 0.16914(16) 0.73488(14) 0.10425(13)
C14 C 0.96873(16) 0.87551(16) 0.07983(13)
N13 N 0.62252(15) 0.92460(15) -0.12316(14)
N14 N 0.38401(17) 0.74865(16) 0.21788(16)
C15 C 0.90936(18) 0.9020(2) 0.12918(14)
N15 N 0.43098(16) 0.60992(16) 0.28042(12)
C16 C 0.64908(16) 1.01033(18) 0.00529(15)
C17 C 0.63604(18) 1.00773(16) -0.11731(15)
C18 C 0.41086(18) 0.46980(17) 0.27303(14)
C19 C 0.30858(19) 0.75357(16) 0.11729(16)
H1 H 0.3144 0.7688 0.0708
N16 N 0.55776(15) 0.76380(15) 0.27177(12)
C20 C 0.54886(16) 0.66157(16) 0.13735(12)
H2 H 0.9992(18) 0.8314(18) 0.0991(15)
H3 H 0.659(2) 1.024(2) -0.155(2)
H4 H 0.926(2) 0.940(2) -0.0291(17)
H5 H 0.6245(19) 0.9584(18) 0.0086(16)
H6 H 0.293(2) 0.531(2) 0.2138(18)
H7 H 0.356(2) 0.417(2) 0.1948(18)
H8 H 0.445(2) 0.421(2) 0.279(2)
H9 H 0.979(2) 0.819(2) -0.0096(18)
H10 H 0.226(2) 0.761(2) 0.188(2)
H11 H 0.725(2) 1.062(3) 0.063(2)
H12 H 0.608(2) 1.050(2) 0.0128(17)
H13 H 0.157(2) 0.757(2) 0.066(2)
H14 H 0.218(2) 0.834(2) 0.1340(17)
H15 H 0.874(2) 0.860(2) 0.1375(16)
H16 H 1.053(2) 0.921(2) 0.0524(19)
H17 H 0.695(2) 0.994(2) 0.089(2)
H18 H 0.891(2) 0.813(2) 0.0281(18)
H19 H 0.934(3) 0.913(2) 0.170(2)
H20 H 0.590(2) 1.039(2) -0.1102(18)
H21 H 0.123(3) 0.732(2) 0.127(2)
H22 H 0.714(2) 1.077(2) -0.0607(18)
H23 H 0.513(2) 0.531(2) 0.2596(18)
H24 H 0.426(3) 0.469(2) 0.174(2)
H25 H 0.874(2) 0.888(2) -0.055(2)
H26 H 0.621(2) 0.913(2) -0.163(2)
H27 H 0.312(3) 0.527(3) 0.145(2)
H28 H 0.399(2) 0.615(2) 0.312(2)
H29 H 0.583(3) 0.912(2) -0.105(2)
H30 H 0.901(3) 1.005(3) 0.098(3)
H31 H 0.314(3) 0.441(3) 0.301(2)
H32 H 0.833(3) 0.986(3) 0.136(2)
H33 H 0.424(3) 0.786(3) 0.133(2)
H34 H 0.482(2) 0.528(2) 0.336(2)
H35 H 0.365(3) 0.841(3) 0.165(2)
H36 H 0.430(3) 0.752(2) 0.235(2)
H37 H 0.465(3) 0.643(3) 0.283(2)
H38 H 0.352(3) 0.762(3) 0.240(3)
Cu3B Cu 0.213247(19) 0.631419(18) 0.087215(16)
O4B O 0.81365(11) 0.82763(11) -0.12149(10)
N12B N 0.66914(16) 0.76512(14) -0.10425(13)
O5 O 0.49957(15) 0.84037(15) 0.93824(13)
H39 H 0.501(3) 0.842(3) 0.976(2)
H40 H 0.455(4) 0.836(3) 0.928(3)
loop_
_geom_bond_atom_site_label_1
_geom_bond_atom_site_label_2
_geom_bond_site_symmetry_1
_geom_bond_site_symmetry_2
W1 C1 1_555 1_555
Cu1 N3 1_555 1_555
Cu2 N4 1_555 1_555
Cu3 N4 1_555 1_555
N1 C3 1_555 1_555
C1 N16 1_555 1_555
C2 W1 1_555 1_555
N2 C2 1_555 1_555
C3 W1 1_555 1_555
C4 N12 1_555 1_555
C5 N10 1_555 1_555
N3 C20 1_555 1_555
C6 W1 1_555 1_555
O1 C18 1_555 1_555
C7 W1 1_555 1_555
N4 C10 1_555 1_555
C8 N14 1_555 1_555
O2 C14 1_555 1_555
C9 W1 1_555 1_555
C10 W1 1_555 1_555
C11 N15 1_555 1_555
N5 Cu2 1_555 1_555
N6 C7 1_555 1_555
N7 C6 1_555 1_555
N8 C9 1_555 1_555
N9 Cu1 1_555 1_555
N10 Cu2 1_555 1_555
C12 O3 1_555 1_555
O3 Cu2 1_555 1_555
O4 Cu1 1_555 1_555
N11 Cu2 1_555 1_555
C13 N9 1_555 1_555
N12 H13 1_555 1_555
C14 C5 1_555 1_555
N13 Cu3 1_555 1_555
N14 Cu1 1_555 1_555
C15 N5 1_555 1_555
N15 Cu1 1_555 1_555
C16 C12 1_555 1_555
C17 C12 1_555 1_555
C18 C11 1_555 1_555
C19 C4 1_555 1_555
H1 C19 1_555 1_555
C20 W1 1_555 1_555
H2 C14 1_555 1_555
H3 C17 1_555 1_555
H4 N10 1_555 1_555
H5 C16 1_555 1_555
H6 N9 1_555 1_555
H7 C13 1_555 1_555
H8 C18 1_555 1_555
H9 C5 1_555 1_555
H10 C4 1_555 1_555
H11 N11 1_555 1_555
H12 C16 1_555 1_555
H14 C4 1_555 1_555
H15 C15 1_555 1_555
H16 O2 1_555 1_555
H17 N11 1_555 1_555
H18 C5 1_555 1_555
H19 C15 1_555 1_555
H20 C17 1_555 1_555
H21 N12 1_555 1_555
H22 C12 1_555 1_555
H23 C11 1_555 1_555
H24 C13 1_555 1_555
H25 N10 1_555 1_555
H26 N13 1_555 1_555
H27 N9 1_555 1_555
H28 N15 1_555 1_555
H29 N13 1_555 1_555
H30 N5 1_555 1_555
H31 O1 1_555 1_555
H32 N5 1_555 1_555
H33 C8 1_555 1_555
H34 C11 1_555 1_555
H35 C8 1_555 1_555
H36 N14 1_555 1_555
H37 N15 1_555 1_555
H38 N14 1_555 1_555
O5 H39 1_555 1_555
H40 O5 1_555 1_555
Cu3B O4 1_555 1_555
O4B Cu3 1_555 1_555
N12B Cu3 1_555 1_555
Cu3 O3 1_555 1_555
C8 C19 1_555 1_555
O4 C19 1_555 1_555
N11 C16 1_555 1_555
C13 C18 1_555 1_555
N12 Cu3B 1_555 1_555
C14 C15 1_555 1_555
N13 C17 1_555 1_555

#END
