
#######################################################################
#
#                 Cambridge Crystallographic Data Centre
#                                CCDC 
#
#######################################################################
#
# If this CIF has been generated from an entry in the Cambridge 
# Structural Database, then it will include bibliographic, chemical, 
# crystal, experimental, refinement or atomic coordinate data resulting 
# from the CCDC's data processing and validation procedures.
#
#######################################################################

data_JOFZOT
_symmetry_cell_setting           monoclinic
_symmetry_space_group_name_H-M   'C 2/c'
_symmetry_Int_Tables_number      15
_space_group_name_Hall           '-C 2yn'
loop_
_symmetry_equiv_pos_site_id
_symmetry_equiv_pos_as_xyz
1 x,y,z
2 1/2+x,1/2+y,z
3 -x,y,1/2-z
4 1/2-x,1/2+y,1/2-z
5 -x,-y,-z
6 1/2-x,1/2-y,-z
7 x,-y,1/2+z
8 1/2+x,1/2-y,1/2+z
_cell_length_a                   29.43(2)
_cell_length_b                   5.371(3)
_cell_length_c                   13.813(6)
_cell_angle_alpha                90
_cell_angle_beta                 107.83(1)
_cell_angle_gamma                90
_cell_volume                     2078.53
loop_
_atom_site_label
_atom_site_type_symbol
_atom_site_fract_x
_atom_site_fract_y
_atom_site_fract_z
Ag1 Ag -0.28109(2) -0.45960(8) 0.45957(3)
O1 O -0.3617(2) -0.5146(9) 0.4834(3)
O2 O -0.3819(2) -0.6884(11) 0.3380(4)
O3 O -0.4344(2) -0.6087(13) 0.4111(5)
N1 N -0.3932(2) -0.6088(10) 0.4098(4)
O4 O -0.3007(1) -0.2171(7) 0.3251(3)
O5 O -0.2399(1) -0.6267(7) 0.6070(3)
C1 C -0.2877(2) 0.0047(9) 0.3212(4)
C2 C -0.3047(2) 0.1362(11) 0.2187(4)
C3 C -0.3383(2) -0.0128(11) 0.1332(4)
N2 N -0.3880(2) -0.0199(8) 0.1386(3)
C4 C -0.4021(2) -0.2065(11) 0.1873(5)
C5 C -0.4477(2) -0.2110(13) 0.1928(5)
C6 C -0.4791(2) -0.0236(13) 0.1471(5)
C7 C -0.4635(2) 0.1677(13) 0.0988(5)
C8 C -0.4180(2) 0.1655(11) 0.0947(4)
H1 H -0.2770 0.1775 0.1989
H2 H -0.3208 0.2863 0.2272
H3 H -0.3266 -0.1804 0.1364
H4 H -0.3388 0.0608 0.0695
H5 H -0.3801 -0.3366 0.2184
H6 H -0.4578 -0.3434 0.2281
H7 H -0.5114 -0.0267 0.1490
H8 H -0.4847 0.3017 0.0683
H9 H -0.4071 0.2970 0.0603
Ag1E Ag -0.21891(2) -0.04040(8) 0.54043(3)
O5E O -0.2601(1) -0.8733(7) 0.3930(3)
Ag1E_2 Ag -0.21891(2) -1.04040(8) 0.54043(3)
O5E_2 O -0.2601(1) 0.1267(7) 0.3930(3)
O1E O -0.1383(2) 0.0146(9) 0.5166(3)
O4E O -0.1993(1) -0.2829(7) 0.6749(3)
O5_2 O -0.2399(1) 0.3733(7) 0.6070(3)
C1E C -0.2123(2) -0.5047(9) 0.6788(4)
N1E N -0.1068(2) 0.1088(10) 0.5902(4)
C2E C -0.1953(2) -0.6362(11) 0.7813(4)
O2E O -0.1181(2) 0.1884(11) 0.6620(4)
O3E O -0.0656(2) 0.1087(13) 0.5889(5)
C3E C -0.1617(2) -0.4872(11) 0.8668(4)
H1E H -0.2230 -0.6775 0.8011
H2E H -0.1792 -0.7863 0.7728
N2E N -0.1120(2) -0.4801(8) 0.8614(3)
H3E H -0.1734 -0.3196 0.8636
H4E H -0.1612 -0.5608 0.9305
C4E C -0.0979(2) -0.2935(11) 0.8127(5)
C8E C -0.0820(2) -0.6655(11) 0.9053(4)
C5E C -0.0523(2) -0.2890(13) 0.8072(5)
H5E H -0.1199 -0.1634 0.7816
C7E C -0.0365(2) -0.6677(13) 0.9012(5)
H9E H -0.0929 -0.7970 0.9397
C6E C -0.0209(2) -0.4764(13) 0.8529(5)
H6E H -0.0422 -0.1566 0.7719
H8E H -0.0153 -0.8017 0.9317
H7E H 0.0114 -0.4733 0.8510
Ag1_2 Ag -0.28109(2) 0.54040(8) 0.45957(3)
loop_
_geom_bond_atom_site_label_1
_geom_bond_atom_site_label_2
_geom_bond_site_symmetry_1
_geom_bond_site_symmetry_2
Ag1 O1 1_555 1_555
O1 N1 1_555 1_555
O2 N1 1_555 1_555
O3 N1 1_555 1_555
O4 Ag1 1_555 1_555
O5 Ag1 1_555 1_555
C1 O4 1_555 1_555
C2 C1 1_555 1_555
C3 C2 1_555 1_555
N2 C3 1_555 1_555
C4 N2 1_555 1_555
C5 C4 1_555 1_555
C6 C5 1_555 1_555
C7 C6 1_555 1_555
C8 N2 1_555 1_555
H1 C2 1_555 1_555
H2 C2 1_555 1_555
H3 C3 1_555 1_555
H4 C3 1_555 1_555
H5 C4 1_555 1_555
H6 C5 1_555 1_555
H7 C6 1_555 1_555
H8 C7 1_555 1_555
H9 C8 1_555 1_555
Ag1E Ag1 1_555 1_555
O5E Ag1 1_555 1_555
Ag1E_2 O5 1_555 1_555
O5E_2 C1 1_555 1_555
O1E Ag1E 1_555 1_555
O4E Ag1E 1_555 1_555
O5_2 Ag1E 1_555 1_555
C1E O5 1_555 1_555
N1E O1E 1_555 1_555
C2E C1E 1_555 1_555
O2E N1E 1_555 1_555
O3E N1E 1_555 1_555
C3E C2E 1_555 1_555
H1E C2E 1_555 1_555
H2E C2E 1_555 1_555
N2E C3E 1_555 1_555
H3E C3E 1_555 1_555
H4E C3E 1_555 1_555
C4E N2E 1_555 1_555
C8E N2E 1_555 1_555
C5E C4E 1_555 1_555
H5E C4E 1_555 1_555
C7E C8E 1_555 1_555
H9E C8E 1_555 1_555
C6E C5E 1_555 1_555
H6E C5E 1_555 1_555
H8E C7E 1_555 1_555
H7E C6E 1_555 1_555
Ag1_2 O5E_2 1_555 1_555
C7 C8 1_555 1_555
Ag1E O5E_2 1_555 1_555
O5E Ag1E_2 1_555 1_555
O4E C1E 1_555 1_555
O5_2 Ag1_2 1_555 1_555
C7E C6E 1_555 1_555

#END
