
#######################################################################
#
#                 Cambridge Crystallographic Data Centre
#                                CCDC 
#
#######################################################################
#
# If this CIF has been generated from an entry in the Cambridge 
# Structural Database, then it will include bibliographic, chemical, 
# crystal, experimental, refinement or atomic coordinate data resulting 
# from the CCDC's data processing and validation procedures.
#
#######################################################################

data_JOFZIN
_symmetry_cell_setting           monoclinic
_symmetry_space_group_name_H-M   'C 2/c'
_symmetry_Int_Tables_number      15
_space_group_name_Hall           '-C 2yn'
loop_
_symmetry_equiv_pos_site_id
_symmetry_equiv_pos_as_xyz
1 x,y,z
2 1/2+x,1/2+y,z
3 -x,y,1/2-z
4 1/2-x,1/2+y,1/2-z
5 -x,-y,-z
6 1/2-x,1/2-y,-z
7 x,-y,1/2+z
8 1/2+x,1/2-y,1/2+z
_cell_length_a                   29.288(6)
_cell_length_b                   5.5476(8)
_cell_length_c                   14.439(2)
_cell_angle_alpha                90
_cell_angle_beta                 107.47(1)
_cell_angle_gamma                90
_cell_volume                     2237.81
loop_
_atom_site_label
_atom_site_type_symbol
_atom_site_fract_x
_atom_site_fract_y
_atom_site_fract_z
Ag1 Ag -0.22425(1) -0.04299(5) 0.54671(2)
O5 O -0.2638(1) 0.1208(4) 0.4054(2)
O6 O -0.2962(1) -0.2135(4) 0.3287(2)
C1 C -0.2870(1) 0.0067(5) 0.3317(2)
C2 C -0.3022(1) 0.1491(6) 0.2383(2)
C3 C -0.3339(1) 0.0192(7) 0.1494(2)
N1 N -0.3848(1) 0.0079(5) 0.1483(2)
C4 C -0.3999(1) -0.1722(6) 0.1934(2)
C5 C -0.4472(1) -0.1849(7) 0.1917(3)
C6 C -0.4784(1) -0.0123(8) 0.1445(3)
C7 C -0.4623(1) 0.1734(8) 0.0990(3)
C8 C -0.4153(1) 0.1792(7) 0.1016(2)
H1 H -0.3193 0.2884 0.2492
H2 H -0.2737 0.1992 0.2238
H3 H -0.3222 -0.1422 0.1488
H4 H -0.3322 0.1030 0.0924
H5 H -0.3777 -0.2933 0.2272
H6 H -0.4580 -0.3151 0.2237
H7 H -0.5114 -0.0195 0.1429
H8 H -0.4839 0.2975 0.0658
H9 H -0.4040 0.3076 0.0697
Ag1E Ag -0.27575(1) -0.45701(5) 0.45329(2)
O5E O -0.2362(1) 0.3792(4) 0.5946(2)
Ag1E_2 Ag -0.27575(1) 0.54299(5) 0.45329(2)
O6E O -0.2038(1) -0.2865(4) 0.6713(2)
O5_2 O -0.2638(1) -0.8792(4) 0.4054(2)
O5E_2 O -0.2362(1) -0.6208(4) 0.5946(2)
C1E C -0.2130(1) 0.4933(5) 0.6683(2)
Ag1_2 Ag -0.22425(1) 0.95701(5) 0.54671(2)
O6E_2 O -0.2038(1) 0.7135(4) 0.6713(2)
C2E C -0.1978(1) 0.3509(6) 0.7617(2)
C3E C -0.1661(1) 0.4808(7) 0.8506(2)
H1E H -0.1807 0.2116 0.7508
H2E H -0.2263 0.3008 0.7762
N1E N -0.1152(1) 0.4921(5) 0.8517(2)
H3E H -0.1778 0.6422 0.8512
H4E H -0.1678 0.3970 0.9076
C4E C -0.1001(1) 0.6722(6) 0.8066(2)
C8E C -0.0847(1) 0.3208(7) 0.8984(2)
C5E C -0.0528(1) 0.6849(7) 0.8083(3)
H5E H -0.1223 0.7933 0.7728
C7E C -0.0377(1) 0.3266(8) 0.9010(3)
H9E H -0.0960 0.1924 0.9303
C6E C -0.0216(1) 0.5123(8) 0.8555(3)
H6E H -0.0420 0.8151 0.7763
H8E H -0.0161 0.2025 0.9342
H7E H 0.0114 0.5195 0.8571
O1 O -0.1422(1) 0.0616(6) 0.5048(2)
O2 O -0.0613(1) 0.0392(8) 0.5938(3)
O3 O -0.1010(2) 0.4121(6) 0.5717(3)
O4 O -0.1179(2) 0.1253(7) 0.6712(2)
Cl1 Cl -0.1052(1) 0.1613(2) 0.5855(1)
loop_
_geom_bond_atom_site_label_1
_geom_bond_atom_site_label_2
_geom_bond_site_symmetry_1
_geom_bond_site_symmetry_2
Ag1 O5 1_555 1_555
O1 Cl1 1_555 1_555
O2 Cl1 1_555 1_555
O3 Cl1 1_555 1_555
O4 Cl1 1_555 1_555
O5 C1 1_555 1_555
O6 C1 1_555 1_555
C1 C2 1_555 1_555
C2 C3 1_555 1_555
C3 N1 1_555 1_555
N1 C4 1_555 1_555
C4 C5 1_555 1_555
C5 C6 1_555 1_555
C6 C7 1_555 1_555
C7 C8 1_555 1_555
C8 N1 1_555 1_555
H1 C2 1_555 1_555
H2 C2 1_555 1_555
H3 C3 1_555 1_555
H4 C3 1_555 1_555
H5 C4 1_555 1_555
H6 C5 1_555 1_555
H7 C6 1_555 1_555
H8 C7 1_555 1_555
H9 C8 1_555 1_555
Ag1E Ag1 1_555 1_555
O5E Ag1 1_555 1_555
Ag1E_2 O5 1_555 1_555
O6E Ag1 1_555 1_555
O5_2 Ag1E 1_555 1_555
O5E_2 Ag1E 1_555 1_555
C1E O5E 1_555 1_555
Ag1_2 Ag1E_2 1_555 1_555
O6E_2 C1E 1_555 1_555
C2E C1E 1_555 1_555
C3E C2E 1_555 1_555
H1E C2E 1_555 1_555
H2E C2E 1_555 1_555
N1E C3E 1_555 1_555
H3E C3E 1_555 1_555
H4E C3E 1_555 1_555
C4E N1E 1_555 1_555
C8E N1E 1_555 1_555
C5E C4E 1_555 1_555
H5E C4E 1_555 1_555
C7E C8E 1_555 1_555
H9E C8E 1_555 1_555
C6E C5E 1_555 1_555
H6E C5E 1_555 1_555
H8E C7E 1_555 1_555
H7E C6E 1_555 1_555
O6 Ag1E 1_555 1_555
O5E Ag1E_2 1_555 1_555
Ag1_2 O6E_2 1_555 1_555
C7E C6E 1_555 1_555

#END
