
#######################################################################
#
#                 Cambridge Crystallographic Data Centre
#                                CCDC 
#
#######################################################################
#
# If this CIF has been generated from an entry in the Cambridge 
# Structural Database, then it will include bibliographic, chemical, 
# crystal, experimental, refinement or atomic coordinate data resulting 
# from the CCDC's data processing and validation procedures.
#
#######################################################################

data_JOFZUZ
_symmetry_cell_setting           monoclinic
_symmetry_space_group_name_H-M   'C 2/c'
_symmetry_Int_Tables_number      15
_space_group_name_Hall           '-C 2yn'
loop_
_symmetry_equiv_pos_site_id
_symmetry_equiv_pos_as_xyz
1 x,y,z
2 1/2+x,1/2+y,z
3 -x,y,1/2-z
4 1/2-x,1/2+y,1/2-z
5 -x,-y,-z
6 1/2-x,1/2-y,-z
7 x,-y,1/2+z
8 1/2+x,1/2-y,1/2+z
_cell_length_a                   18.319(6)
_cell_length_b                   12.440(4)
_cell_length_c                   10.479(2)
_cell_angle_alpha                90
_cell_angle_beta                 119.83(2)
_cell_angle_gamma                90
_cell_volume                     2071.64
loop_
_atom_site_label
_atom_site_type_symbol
_atom_site_fract_x
_atom_site_fract_y
_atom_site_fract_z
Ag1 Ag 0.04475(3) 0.05801(4) 0.17391(4)
O1 O 0.0644(4) 0.2104(4) 0.0382(7)
O2 O 0.1309(3) 0.3568(4) 0.0701(6)
O3 O 0.1237(6) 0.2838(6) 0.2454(9)
N1 N 0.1038(3) 0.2861(4) 0.1187(6)
O4 O 0.1545(3) 0.0069(4) 0.3851(4)
O5 O -0.0886(2) 0.0453(3) -0.0083(4)
C1 C 0.1515(3) 0.0157(4) 0.4998(5)
C2 C 0.2310(3) -0.0106(5) 0.6451(6)
C3 C 0.2666(3) -0.1182(5) 0.6333(6)
N2 N 0.3453(3) -0.1531(4) 0.7725(5)
C4 C 0.3676(5) -0.2629(5) 0.7424(7)
C5 C 0.4147(4) -0.0782(5) 0.8032(8)
C6 C 0.3330(5) -0.1598(7) 0.9017(7)
H1 H 0.2174 -0.0142 0.7224
H2 H 0.2722 0.0447 0.6670
H3 H 0.2800 -0.1132 0.5558
H4 H 0.2242 -0.1722 0.6090
H5 H 0.4173 -0.2883 0.8280
H6 H 0.3779 -0.2589 0.6611
H7 H 0.3220 -0.3117 0.7187
H8 H 0.4011 -0.0077 0.8226
H9 H 0.4228 -0.0752 0.7195
H10 H 0.4655 -0.1030 0.8874
H11 H 0.2878 -0.2086 0.8809
H12 H 0.3196 -0.0897 0.9228
H13 H 0.3838 -0.1853 0.9852
Ag1B Ag -0.04475(3) 0.05801(4) 0.32609(4)
Ag1D Ag -0.04475(3) -0.05801(4) -0.17391(4)
O5D O 0.0886(2) -0.0453(3) 0.0083(4)
C1B C -0.1515(3) 0.0157(4) 0.0002(5)
O5B O 0.0886(2) 0.0453(3) 0.5083(4)
Ag1F Ag 0.04475(3) -0.05801(4) 0.67391(4)
O1B O -0.0644(4) 0.2104(4) 0.4618(7)
O4B O -0.1545(3) 0.0069(4) 0.1149(4)
O5F O -0.0886(2) -0.0453(3) 0.4917(4)
N1B N -0.1038(3) 0.2861(4) 0.3813(6)
O2B O -0.1309(3) 0.3568(4) 0.4299(6)
O3B O -0.1237(6) 0.2838(6) 0.2546(9)
C2B C -0.2310(3) -0.0106(5) -0.1451(6)
C3B C -0.2666(3) -0.1182(5) -0.1333(6)
H1B H -0.2174 -0.0142 -0.2224
H2B H -0.2722 0.0447 -0.1670
N2B N -0.3453(3) -0.1531(4) -0.2725(5)
H3B H -0.2800 -0.1132 -0.0558
H4B H -0.2242 -0.1722 -0.1090
C4B C -0.3676(5) -0.2629(5) -0.2424(7)
C5B C -0.4147(4) -0.0782(5) -0.3032(8)
C6B C -0.3330(5) -0.1598(7) -0.4017(7)
H5B H -0.4173 -0.2883 -0.3280
H6B H -0.3779 -0.2589 -0.1611
H7B H -0.3220 -0.3117 -0.2187
H8B H -0.4011 -0.0077 -0.3226
H9B H -0.4228 -0.0752 -0.2195
H10B H -0.4655 -0.1030 -0.3874
H11B H -0.2878 -0.2086 -0.3809
H12B H -0.3196 -0.0897 -0.4228
H13B H -0.3838 -0.1853 -0.4852
loop_
_geom_bond_atom_site_label_1
_geom_bond_atom_site_label_2
_geom_bond_site_symmetry_1
_geom_bond_site_symmetry_2
Ag1 O1 1_555 1_555
O1 N1 1_555 1_555
O2 N1 1_555 1_555
O3 N1 1_555 1_555
O4 Ag1 1_555 1_555
O5 Ag1 1_555 1_555
C1 O4 1_555 1_555
C2 C1 1_555 1_555
C3 C2 1_555 1_555
N2 C3 1_555 1_555
C4 N2 1_555 1_555
C5 N2 1_555 1_555
C6 N2 1_555 1_555
H1 C2 1_555 1_555
H2 C2 1_555 1_555
H3 C3 1_555 1_555
H4 C3 1_555 1_555
H5 C4 1_555 1_555
H6 C4 1_555 1_555
H7 C4 1_555 1_555
H8 C5 1_555 1_555
H9 C5 1_555 1_555
H10 C5 1_555 1_555
H11 C6 1_555 1_555
H12 C6 1_555 1_555
H13 C6 1_555 1_555
Ag1B Ag1 1_555 1_555
Ag1D O5 1_555 1_555
O5D Ag1 1_555 1_555
C1B O5 1_555 1_555
O5B C1 1_555 1_555
Ag1F O5B 1_555 1_555
O1B Ag1B 1_555 1_555
O4B Ag1B 1_555 1_555
O5F Ag1B 1_555 1_555
N1B O1B 1_555 1_555
O2B N1B 1_555 1_555
O3B N1B 1_555 1_555
C2B C1B 1_555 1_555
C3B C2B 1_555 1_555
H1B C2B 1_555 1_555
H2B C2B 1_555 1_555
N2B C3B 1_555 1_555
H3B C3B 1_555 1_555
H4B C3B 1_555 1_555
C4B N2B 1_555 1_555
C5B N2B 1_555 1_555
C6B N2B 1_555 1_555
H5B C4B 1_555 1_555
H6B C4B 1_555 1_555
H7B C4B 1_555 1_555
H8B C5B 1_555 1_555
H9B C5B 1_555 1_555
H10B C5B 1_555 1_555
H11B C6B 1_555 1_555
H12B C6B 1_555 1_555
H13B C6B 1_555 1_555
Ag1B O5B 1_555 1_555
Ag1D O5D 1_555 1_555
C1B O4B 1_555 1_555
Ag1F O5F 1_555 1_555

#END
