
#######################################################################
#
#                 Cambridge Crystallographic Data Centre
#                                CCDC 
#
#######################################################################
#
# If this CIF has been generated from an entry in the Cambridge 
# Structural Database, then it will include bibliographic, chemical, 
# crystal, experimental, refinement or atomic coordinate data resulting 
# from the CCDC's data processing and validation procedures.
#
#######################################################################

data_JOGDEP
_symmetry_cell_setting           orthorhombic
_symmetry_space_group_name_H-M   'P c c a'
_symmetry_Int_Tables_number      54
_space_group_name_Hall           '-P 2a 2ac'
loop_
_symmetry_equiv_pos_site_id
_symmetry_equiv_pos_as_xyz
1 x,y,z
2 1/2+x,-y,1/2-z
3 -x,y,1/2-z
4 1/2-x,-y,z
5 -x,-y,-z
6 1/2-x,y,1/2+z
7 x,-y,1/2+z
8 1/2+x,y,-z
_cell_length_a                   37.4329(14)
_cell_length_b                   19.7762(8)
_cell_length_c                   18.5622(7)
_cell_angle_alpha                90
_cell_angle_beta                 90
_cell_angle_gamma                90
_cell_volume                     13741.2
loop_
_atom_site_label
_atom_site_type_symbol
_atom_site_fract_x
_atom_site_fract_y
_atom_site_fract_z
Ga1 Ga 0.04982(2) 0.37119(5) -0.58439(5)
Ga2 Ga 0.05799(2) 0.21813(4) -0.49569(5)
Ga3 Ga 0.12870(2) 0.35352(4) -0.49067(5)
Ga4 Ga 0.10940(2) 0.26220(4) -0.66690(5)
Ga5 Ga 0.07951(2) 0.06393(5) -0.41609(5)
Ga6 Ga 0.12526(2) 0.09352(4) -0.57437(5)
Ga7 Ga 0.14535(2) 0.18529(4) -0.39868(5)
Ga8 Ga 0.17204(2) 0.14541(5) -0.72592(5)
Ga9 Ga 0.19626(2) 0.23006(4) -0.56926(5)
Ga10 Ga 0.20818(3) 0.31276(5) -0.40629(6)
S1 S 0.01660(5) 0.29573(11) -0.52289(12)
S2 S 0.06760(6) 0.33802(11) -0.69453(12)
S3 S 0.08842(6) 0.43277(11) -0.51908(13)
S4 S 0.03233(5) 0.13238(11) -0.43581(11)
S5 S 0.08291(5) 0.17522(9) -0.60130(10)
S6 S 0.13293(6) 0.22134(12) -0.76831(12)
S7 S 0.10229(5) 0.26649(10) -0.42484(11)
S8 S 0.15391(5) 0.31183(10) -0.59671(11)
S9 S 0.17093(6) 0.40048(11) -0.42178(15)
S10 S 0.10057(6) 0.00904(10) -0.51286(12)
S11 S 0.14844(6) 0.05145(11) -0.67627(12)
S12 S 0.11998(6) 0.10082(11) -0.33568(12)
S13 S 0.16992(5) 0.14258(9) -0.50422(12)
S14 S 0.22061(6) 0.18762(12) -0.66984(13)
S15 S 0.18871(6) 0.23155(11) -0.33094(13)
S16 S 0.23926(6) 0.27693(13) -0.50291(15)
N1 N 0.01212(18) 0.4407(4) -0.6133(4)
C1 C 0.0132(3) 0.5062(5) -0.5892(6)
C2 C -0.0126(3) 0.5531(6) -0.6119(6)
C3 C -0.0393(3) 0.5346(5) -0.6587(5)
C4 C -0.0395(3) 0.4672(6) -0.6817(6)
C5 C -0.0132(3) 0.4235(5) -0.6596(6)
C6 C -0.0671(3) 0.5832(6) -0.6850(7)
N2 N 0.2494(2) 0.3573(5) -0.3538(5)
C7 C 0.2658(3) 0.3312(6) -0.2988(6)
C8 C 0.2974(3) 0.3563(6) -0.2708(7)
C9 C 0.3120(3) 0.4123(7) -0.2986(7)
C10 C 0.2970(4) 0.4349(7) -0.3602(7)
C11 C 0.2660(3) 0.4065(7) -0.3898(7)
C12 C 0.3471(4) 0.4395(7) -0.2703(7)
N3 N 0.05543(17) -0.0163(3) -0.3676(4)
C13 C 0.0272(3) -0.0442(5) -0.4015(5)
C14 C 0.0106(2) -0.1011(5) -0.3771(5)
C15 C 0.0227(2) -0.1338(4) -0.3164(4)
C16 C 0.0520(2) -0.1057(4) -0.2814(4)
C17 C 0.0678(2) -0.0464(4) -0.3088(4)
C18 C 0.0047(2) -0.1982(4) -0.2911(4)
N4 N -0.19292(19) 0.1088(4) 0.3187(4)
C19 C -0.2231(3) 0.1349(6) 0.3466(6)
C20 C -0.2389(3) 0.1104(6) 0.4092(7)
C21 C -0.2235(3) 0.0572(5) 0.4457(5)
C22 C -0.1922(3) 0.0321(6) 0.4175(7)
C23 C -0.1782(3) 0.0570(6) 0.3549(6)
C24 C -0.2415(3) 0.0332(6) 0.5125(7)
H1 H 0.0325 0.5208 -0.5553
H2 H -0.0116 0.6006 -0.5935
H3 H -0.0589 0.4508 -0.7144
H4 H -0.0132 0.3764 -0.6792
H5 H -0.0838 0.5594 -0.7186
H6 H -0.0808 0.6014 -0.6431
H7 H -0.0553 0.6214 -0.7111
H8 H 0.2549 0.2907 -0.2750
H9 H 0.3094 0.3327 -0.2298
H10 H 0.3088 0.4732 -0.3863
H11 H 0.2564 0.4229 -0.4370
H12 H 0.3537 0.4813 -0.2975
H13 H 0.3445 0.4507 -0.2179
H14 H 0.3662 0.4047 -0.2765
H15 H 0.0180 -0.0224 -0.4464
H16 H -0.0106 -0.1192 -0.4034
H17 H 0.0617 -0.1274 -0.2369
H18 H 0.0889 -0.0266 -0.2834
H19 H 0.0211 -0.2371 -0.3009
H20 H -0.0179 -0.2042 -0.3190
H21 H -0.2653 -0.1738 0.3214
H22 H -0.2385 -0.1312 0.4276
H23 H -0.1795 -0.0051 0.4433
H24 H -0.1560 0.0357 0.3352
H25 H -0.2397 -0.0672 0.5246
H26 H -0.2771 -0.0326 0.5513
Ga1B Ga -0.04982(2) 0.37119(5) 0.08439(5)
Ga2B Ga -0.05799(2) 0.21813(4) -0.00431(5)
Ga3B Ga -0.12870(2) 0.35352(4) -0.00933(5)
Ga4B Ga -0.10940(2) 0.26220(4) 0.16690(5)
Ga5B Ga -0.07951(2) 0.06393(5) -0.08391(5)
Ga6B Ga -0.12526(2) 0.09352(4) 0.07437(5)
Ga7B Ga -0.14535(2) 0.18529(4) -0.10132(5)
Ga8B Ga -0.17204(2) 0.14541(5) 0.22592(5)
Ga8A Ga -0.32796(2) -0.14541(5) 0.22592(5)
Ga9B Ga -0.19626(2) 0.23006(4) 0.06926(5)
Ga10B Ga -0.20818(3) 0.31276(5) -0.09371(6)
S1B S -0.01660(5) 0.29573(11) 0.02289(12)
S2B S -0.06760(6) 0.33802(11) 0.19453(12)
S3B S -0.08842(6) 0.43277(11) 0.01908(13)
S4B S -0.03233(5) 0.13238(11) -0.06419(11)
S5B S -0.08291(5) 0.17522(9) 0.10130(10)
S6B S -0.13293(6) 0.22134(12) 0.26831(12)
S7B S -0.10229(5) 0.26649(10) -0.07516(11)
S8B S -0.15391(5) 0.31183(10) 0.09671(11)
S9B S -0.17093(6) 0.40048(11) -0.07822(15)
S10B S -0.10057(6) 0.00904(10) 0.01286(12)
S11B S -0.14844(6) 0.05145(11) 0.17627(12)
S12B S -0.11998(6) 0.10082(11) -0.16432(12)
S13B S -0.16992(5) 0.14258(9) 0.00422(12)
S14B S -0.22061(6) 0.18762(12) 0.16984(13)
S15B S -0.18871(6) 0.23155(11) -0.16906(13)
S16B S -0.23926(6) 0.27693(13) 0.00291(15)
N1B N -0.01212(18) 0.4407(4) 0.1133(4)
C1B C -0.0132(3) 0.5062(5) 0.0892(6)
C2B C 0.0126(3) 0.5531(6) 0.1119(6)
C3B C 0.0393(3) 0.5346(5) 0.1587(5)
C4B C 0.0395(3) 0.4672(6) 0.1817(6)
C5B C 0.0132(3) 0.4235(5) 0.1596(6)
C6B C 0.0671(3) 0.5832(6) 0.1850(7)
N2B N -0.2494(2) 0.3573(5) -0.1462(5)
C7B C -0.2658(3) 0.3312(6) -0.2012(6)
C8B C -0.2974(3) 0.3563(6) -0.2292(7)
C9B C -0.3120(3) 0.4123(7) -0.2014(7)
C10B C -0.2970(4) 0.4349(7) -0.1398(7)
C11B C -0.2660(3) 0.4065(7) -0.1102(7)
C12B C -0.3471(4) 0.4395(7) -0.2297(7)
N3B N -0.05543(17) -0.0163(3) -0.1324(4)
C13B C -0.0272(3) -0.0442(5) -0.0985(5)
C14B C -0.0106(2) -0.1011(5) -0.1229(5)
C15B C -0.0227(2) -0.1338(4) -0.1836(4)
C16B C -0.0520(2) -0.1057(4) -0.2186(4)
C17B C -0.0678(2) -0.0464(4) -0.1912(4)
C18B C -0.0047(2) -0.1982(4) -0.2089(4)
N4B N 0.19292(19) 0.1088(4) -0.8187(4)
N4C N -0.30708(19) -0.1088(4) 0.3187(4)
C19C C -0.2769(3) -0.1349(6) 0.3466(6)
C20C C -0.2611(3) -0.1104(6) 0.4092(7)
C21C C -0.2765(3) -0.0572(5) 0.4457(5)
C22C C -0.3078(3) -0.0321(6) 0.4175(7)
C23C C -0.3218(3) -0.0570(6) 0.3549(6)
C24C C -0.2585(3) -0.0332(6) 0.5125(7)
H1B H -0.0325 0.5208 0.0553
H2B H 0.0116 0.6006 0.0935
H3B H 0.0589 0.4508 0.2144
H4B H 0.0132 0.3764 0.1792
H5B H 0.0838 0.5594 0.2186
H6B H 0.0808 0.6014 0.1431
H7B H 0.0553 0.6214 0.2111
H8B H -0.2549 0.2907 -0.2250
H9B H -0.3094 0.3327 -0.2702
H10B H -0.3088 0.4732 -0.1137
H11B H -0.2564 0.4229 -0.0630
H12B H -0.3537 0.4813 -0.2025
H13B H -0.3445 0.4507 -0.2821
H14B H -0.3662 0.4047 -0.2235
H15B H -0.0180 -0.0224 -0.0536
H16B H 0.0106 -0.1192 -0.0966
H17B H -0.0617 -0.1274 -0.2631
H18B H -0.0889 -0.0266 -0.2166
H19B H -0.0211 -0.2371 -0.1991
H20B H 0.0179 -0.2042 -0.1810
H21C H -0.2347 0.1738 0.3214
H22C H -0.2615 0.1312 0.4276
H23C H -0.3205 0.0051 0.4433
H24C H -0.3440 -0.0357 0.3352
H25C H -0.2603 0.0672 0.5246
H26C H -0.2229 0.0326 0.5513
loop_
_geom_bond_atom_site_label_1
_geom_bond_atom_site_label_2
_geom_bond_site_symmetry_1
_geom_bond_site_symmetry_2
Ga1 S1 1_555 1_555
Ga2 S1 1_555 1_555
Ga3 S3 1_555 1_555
Ga4 S2 1_555 1_555
Ga5 S4 1_555 1_555
Ga6 S5 1_555 1_555
Ga7 S7 1_555 1_555
Ga8 S6 1_555 1_555
Ga9 S8 1_555 1_555
Ga10 S9 1_555 1_555
S2 Ga1 1_555 1_555
S3 Ga1 1_555 1_555
S4 Ga2 1_555 1_555
S5 Ga2 1_555 1_555
S6 Ga4 1_555 1_555
S7 Ga2 1_555 1_555
S8 Ga3 1_555 1_555
S9 Ga3 1_555 1_555
S10 Ga5 1_555 1_555
S11 Ga6 1_555 1_555
S12 Ga5 1_555 1_555
S13 Ga6 1_555 1_555
S14 Ga8 1_555 1_555
S15 Ga7 1_555 1_555
S16 Ga9 1_555 1_555
N1 Ga1 1_555 1_555
C1 N1 1_555 1_555
C2 C1 1_555 1_555
C3 C2 1_555 1_555
C4 C3 1_555 1_555
C5 N1 1_555 1_555
C6 C3 1_555 1_555
N2 Ga10 1_555 1_555
C7 N2 1_555 1_555
C8 C7 1_555 1_555
C9 C8 1_555 1_555
C10 C9 1_555 1_555
C11 N2 1_555 1_555
C12 C9 1_555 1_555
N3 Ga5 1_555 1_555
C13 N3 1_555 1_555
C14 C13 1_555 1_555
C15 C14 1_555 1_555
C16 C15 1_555 1_555
C17 N3 1_555 1_555
C18 C15 1_555 1_555
N4 C19 1_555 1_555
C19 C20 1_555 1_555
C20 C21 1_555 1_555
C21 C22 1_555 1_555
C22 C23 1_555 1_555
C23 N4 1_555 1_555
C24 C21 1_555 1_555
H1 C1 1_555 1_555
H2 C2 1_555 1_555
H3 C4 1_555 1_555
H4 C5 1_555 1_555
H5 C6 1_555 1_555
H6 C6 1_555 1_555
H7 C6 1_555 1_555
H8 C7 1_555 1_555
H9 C8 1_555 1_555
H10 C10 1_555 1_555
H11 C11 1_555 1_555
H12 C12 1_555 1_555
H13 C12 1_555 1_555
H14 C12 1_555 1_555
H15 C13 1_555 1_555
H16 C14 1_555 1_555
H17 C16 1_555 1_555
H18 C17 1_555 1_555
H19 C18 1_555 1_555
H20 C18 1_555 1_555
H21 C19C 1_555 1_555
H22 C20C 1_555 1_555
H23 C22 1_555 1_555
H24 C23 1_555 1_555
H25 C24C 1_555 1_555
H26 C24C 1_555 1_555
Ga1B S1B 1_555 1_555
Ga2B S1B 1_555 1_555
Ga3B S3B 1_555 1_555
Ga4B S2B 1_555 1_555
Ga5B S4B 1_555 1_555
Ga6B S5B 1_555 1_555
Ga7B S7B 1_555 1_555
Ga8B N4 1_555 1_555
Ga8A N4C 1_555 1_555
Ga9B S8B 1_555 1_555
Ga10B S9B 1_555 1_555
S2B Ga1B 1_555 1_555
S3B Ga1B 1_555 1_555
S4B Ga2B 1_555 1_555
S5B Ga2B 1_555 1_555
S6B Ga4B 1_555 1_555
S7B Ga2B 1_555 1_555
S8B Ga3B 1_555 1_555
S9B Ga3B 1_555 1_555
S10B Ga5B 1_555 1_555
S11B Ga6B 1_555 1_555
S12B Ga5B 1_555 1_555
S13B Ga6B 1_555 1_555
S14B Ga8B 1_555 1_555
S15B Ga7B 1_555 1_555
S16B Ga9B 1_555 1_555
N1B Ga1B 1_555 1_555
C1B N1B 1_555 1_555
C2B C1B 1_555 1_555
C3B C2B 1_555 1_555
C4B C3B 1_555 1_555
C5B N1B 1_555 1_555
C6B C3B 1_555 1_555
N2B Ga10B 1_555 1_555
C7B N2B 1_555 1_555
C8B C7B 1_555 1_555
C9B C8B 1_555 1_555
C10B C9B 1_555 1_555
C11B N2B 1_555 1_555
C12B C9B 1_555 1_555
N3B Ga5B 1_555 1_555
C13B N3B 1_555 1_555
C14B C13B 1_555 1_555
C15B C14B 1_555 1_555
C16B C15B 1_555 1_555
C17B N3B 1_555 1_555
C18B C18 1_555 1_555
N4B Ga8 1_555 1_555
N4C C19C 1_555 1_555
C19C C20C 1_555 1_555
C20C C21C 1_555 1_555
C21C C22C 1_555 1_555
C22C C23C 1_555 1_555
C23C N4C 1_555 1_555
C24C C24 1_555 1_555
H1B C1B 1_555 1_555
H2B C2B 1_555 1_555
H3B C4B 1_555 1_555
H4B C5B 1_555 1_555
H5B C6B 1_555 1_555
H6B C6B 1_555 1_555
H7B C6B 1_555 1_555
H8B C7B 1_555 1_555
H9B C8B 1_555 1_555
H10B C10B 1_555 1_555
H11B C11B 1_555 1_555
H12B C12B 1_555 1_555
H13B C12B 1_555 1_555
H14B C12B 1_555 1_555
H15B C13B 1_555 1_555
H16B C14B 1_555 1_555
H17B C16B 1_555 1_555
H18B C17B 1_555 1_555
H19B C18B 1_555 1_555
H20B C18B 1_555 1_555
H21C C19 1_555 1_555
H22C C20 1_555 1_555
H23C C22C 1_555 1_555
H24C C23C 1_555 1_555
H25C C24 1_555 1_555
H26C C24 1_555 1_555
Ga3 S7 1_555 1_555
Ga4 S5 1_555 1_555
Ga4 S8 1_555 1_555
Ga6 S10 1_555 1_555
Ga7 S12 1_555 1_555
Ga7 S13 1_555 1_555
Ga8 S11 1_555 1_555
Ga9 S13 1_555 1_555
Ga9 S14 1_555 1_555
Ga10 S15 1_555 1_555
Ga10 S16 1_555 1_555
C4 C5 1_555 1_555
C10 C11 1_555 1_555
C16 C17 1_555 1_555
Ga3B S7B 1_555 1_555
Ga4B S5B 1_555 1_555
Ga4B S8B 1_555 1_555
Ga6B S10B 1_555 1_555
Ga7B S12B 1_555 1_555
Ga7B S13B 1_555 1_555
Ga8B S6B 1_555 1_555
Ga8B S11B 1_555 1_555
Ga9B S13B 1_555 1_555
Ga9B S14B 1_555 1_555
Ga10B S15B 1_555 1_555
Ga10B S16B 1_555 1_555
C4B C5B 1_555 1_555
C10B C11B 1_555 1_555
C15B C18B 1_555 1_555
C16B C17B 1_555 1_555
C21C C24C 1_555 1_555

#END
