
#######################################################################
#
#                 Cambridge Crystallographic Data Centre
#                                CCDC 
#
#######################################################################
#
# If this CIF has been generated from an entry in the Cambridge 
# Structural Database, then it will include bibliographic, chemical, 
# crystal, experimental, refinement or atomic coordinate data resulting 
# from the CCDC's data processing and validation procedures.
#
#######################################################################

data_JOGGUJ
_symmetry_cell_setting           triclinic
_symmetry_space_group_name_H-M   'P -1'
_symmetry_Int_Tables_number      2
_space_group_name_Hall           '-P 1'
loop_
_symmetry_equiv_pos_site_id
_symmetry_equiv_pos_as_xyz
1 x,y,z
2 -x,-y,-z
_cell_length_a                   8.5927(9)
_cell_length_b                   8.8124(10)
_cell_length_c                   12.9810(14)
_cell_angle_alpha                71.007(2)
_cell_angle_beta                 72.327(2)
_cell_angle_gamma                65.456(2)
_cell_volume                     829.095
loop_
_atom_site_label
_atom_site_type_symbol
_atom_site_fract_x
_atom_site_fract_y
_atom_site_fract_z
Cd1 Cd 1.5000 -1.0000 0.5000
Br1 Br 1.33202(6) -0.69036(7) 0.36645(4)
N1 N 1.2300(4) -0.9932(4) 0.6097(3)
N2 N 0.5155(4) -0.7325(4) 0.9501(3)
H1 H 0.4523 -0.6519 0.9846
N3 N 0.5300(5) -0.8435(6) 0.6098(3)
N4 N 0.9827(6) -1.2549(6) 1.0368(4)
C1 C 1.1228(5) -0.8582(5) 0.6522(3)
H2 H 1.1564 -0.7636 0.6341
C2 C 0.9635(5) -0.8526(5) 0.7219(3)
H3 H 0.8923 -0.7564 0.7503
C3 C 0.9117(4) -0.9921(5) 0.7487(3)
C4 C 1.0209(5) -1.1303(6) 0.7029(4)
H4 H 0.9889 -1.2252 0.7177
C5 C 1.1780(5) -1.1261(6) 0.6349(4)
H5 H 1.2513 -1.2207 0.6053
C6 C 0.7405(4) -0.9950(5) 0.8291(3)
H6 H 0.7229 -1.0999 0.8330
C7 C 0.5858(4) -0.8422(5) 0.7923(3)
C8 C 0.4834(5) -0.7181(5) 0.8486(3)
C9 C 0.6425(5) -0.8683(5) 0.9978(3)
C10 C 0.7472(5) -0.9947(5) 0.9455(3)
C11 C 0.5500(5) -0.8348(5) 0.6908(3)
C12 C 0.3386(6) -0.5633(6) 0.8097(4)
H7 H 0.3271 -0.5654 0.7390
H8 H 0.3628 -0.4629 0.8025
H9 H 0.2320 -0.5612 0.8625
C13 C 0.6552(6) -0.8629(6) 1.1089(3)
H10 H 0.7474 -0.9635 1.1362
H11 H 0.5467 -0.8591 1.1599
H12 H 0.6795 -0.7627 1.1019
C14 C 0.8760(5) -1.1386(6) 0.9978(4)
N1A N 0.7700(4) -1.0068(4) 0.3903(3)
N2A N 1.4845(4) -1.2675(4) 0.0499(3)
H1A H 1.5477 -1.3481 0.0154
N3A N 1.4700(5) -1.1565(6) 0.3902(3)
N4A N 1.0173(6) -0.7451(6) -0.0368(4)
C1A C 0.8772(5) -1.1418(5) 0.3478(3)
H2A H 0.8436 -1.2364 0.3659
C2A C 1.0365(5) -1.1474(5) 0.2781(3)
H3A H 1.1077 -1.2436 0.2497
C3A C 1.0883(4) -1.0079(5) 0.2513(3)
C4A C 0.9791(5) -0.8697(6) 0.2971(4)
H4A H 1.0111 -0.7748 0.2823
C5A C 0.8220(5) -0.8739(6) 0.3651(4)
H5A H 0.7487 -0.7793 0.3947
C6A C 1.2595(4) -1.0050(5) 0.1709(3)
H6A H 1.2771 -0.9001 0.1670
C7A C 1.4142(4) -1.1578(5) 0.2077(3)
C8A C 1.5166(5) -1.2819(5) 0.1514(3)
C9A C 1.3575(5) -1.1317(5) 0.0022(3)
C10A C 1.2528(5) -1.0053(5) 0.0545(3)
C11A C 1.4500(5) -1.1652(5) 0.3092(3)
C12A C 1.6614(6) -1.4367(6) 0.1903(4)
H7A H 1.6729 -1.4346 0.2610
H8A H 1.6372 -1.5371 0.1975
H9A H 1.7680 -1.4388 0.1375
C13A C 1.3448(6) -1.1371(6) -0.1089(3)
H10A H 1.2526 -1.0365 -0.1362
H11A H 1.4533 -1.1409 -0.1599
H12A H 1.3205 -1.2373 -0.1019
C14A C 1.1240(5) -0.8614(6) 0.0022(4)
Br1A Br 1.66798(6) -1.30964(7) 0.63355(4)
Cd1_2 Cd 0.5000 -1.0000 0.5000
N1A_2 N 1.7700(4) -1.0068(4) 0.3903(3)
N3_2 N 1.5300(5) -0.8435(6) 0.6098(3)
O1 O 0.2620(7) -0.5514(7) 1.1061(4)
H13 H 0.275(7) -0.587(7) 1.169(5)
H14 H 0.194(11) -0.464(11) 1.085(7)
O2 O 1.1365(9) -1.4412(8) 0.5713(6)
H15 H 1.0282 -1.4255 0.5884
H16 H 1.2084 -1.5260 0.5439
loop_
_geom_bond_atom_site_label_1
_geom_bond_atom_site_label_2
_geom_bond_site_symmetry_1
_geom_bond_site_symmetry_2
Cd1 Br1 1_555 1_555
N1 Cd1 1_555 1_555
N2 H1 1_555 1_555
N3 C11 1_555 1_555
N4 C14 1_555 1_555
C1 N1 1_555 1_555
H2 C1 1_555 1_555
C2 C1 1_555 1_555
H3 C2 1_555 1_555
C3 C2 1_555 1_555
C4 C3 1_555 1_555
H4 C4 1_555 1_555
C5 N1 1_555 1_555
H5 C5 1_555 1_555
C6 C3 1_555 1_555
H6 C6 1_555 1_555
C7 C6 1_555 1_555
C8 N2 1_555 1_555
C9 N2 1_555 1_555
C10 C6 1_555 1_555
C11 C7 1_555 1_555
C12 C8 1_555 1_555
H7 C12 1_555 1_555
H8 C12 1_555 1_555
H9 C12 1_555 1_555
C13 C9 1_555 1_555
H10 C13 1_555 1_555
H11 C13 1_555 1_555
H12 C13 1_555 1_555
C14 C10 1_555 1_555
O1 H13 1_555 1_555
H14 O1 1_555 1_555
O2 H15 1_555 1_555
H16 O2 1_555 1_555
N1A C1A 1_555 1_555
N2A H1A 1_555 1_555
N3A Cd1 1_555 1_555
N4A C14A 1_555 1_555
C1A H2A 1_555 1_555
C2A C1A 1_555 1_555
H3A C2A 1_555 1_555
C3A C2A 1_555 1_555
C4A C3A 1_555 1_555
H4A C4A 1_555 1_555
C5A N1A 1_555 1_555
H5A C5A 1_555 1_555
C6A C3A 1_555 1_555
H6A C6A 1_555 1_555
C7A C6A 1_555 1_555
C8A N2A 1_555 1_555
C9A N2A 1_555 1_555
C10A C6A 1_555 1_555
C11A N3A 1_555 1_555
C12A C8A 1_555 1_555
H7A C12A 1_555 1_555
H8A C12A 1_555 1_555
H9A C12A 1_555 1_555
C13A C9A 1_555 1_555
H10A C13A 1_555 1_555
H11A C13A 1_555 1_555
H12A C13A 1_555 1_555
C14A C10A 1_555 1_555
Br1A Cd1 1_555 1_555
Cd1_2 N3 1_555 1_555
N1A_2 Cd1 1_555 1_555
N3_2 Cd1 1_555 1_555
C4 C5 1_555 1_555
C7 C8 1_555 1_555
C9 C10 1_555 1_555
N1A Cd1_2 1_555 1_555
C4A C5A 1_555 1_555
C7A C8A 1_555 1_555
C7A C11A 1_555 1_555
C9A C10A 1_555 1_555

#END
