
#######################################################################
#
#                 Cambridge Crystallographic Data Centre
#                                CCDC 
#
#######################################################################
#
# If this CIF has been generated from an entry in the Cambridge 
# Structural Database, then it will include bibliographic, chemical, 
# crystal, experimental, refinement or atomic coordinate data resulting 
# from the CCDC's data processing and validation procedures.
#
#######################################################################

data_JOGJAS
_symmetry_cell_setting           triclinic
_symmetry_space_group_name_H-M   'P -1'
_symmetry_Int_Tables_number      2
_space_group_name_Hall           '-P 1'
loop_
_symmetry_equiv_pos_site_id
_symmetry_equiv_pos_as_xyz
1 x,y,z
2 -x,-y,-z
_cell_length_a                   8.8495(6)
_cell_length_b                   10.8718(8)
_cell_length_c                   12.1230(8)
_cell_angle_alpha                64.7060(10)
_cell_angle_beta                 79.2720(10)
_cell_angle_gamma                72.4060(10)
_cell_volume                     1003
loop_
_atom_site_label
_atom_site_type_symbol
_atom_site_fract_x
_atom_site_fract_y
_atom_site_fract_z
Cd1 Cd 0.91292(2) 0.33970(2) 0.76009(2)
O1 O 1.1168(2) 0.2294(2) 0.88123(18)
O2 O 1.3028(3) 0.2900(3) 0.73411(19)
O3 O 0.9317(3) 0.1356(2) 0.73813(17)
O4 O 0.9716(3) 0.30856(19) 0.56485(17)
O5 O 1.0509(3) 0.5110(2) 0.67439(18)
H1 H 1.0356 0.5584 0.5883
H2 H 1.1616 0.4681 0.6865
N1 N 0.6723(3) 0.4914(2) 0.6927(2)
N2 N 0.4533(3) 0.3686(3) 0.9820(2)
N3 N 0.6305(3) 0.1869(3) 1.1305(2)
N4 N 0.7292(3) 0.3069(2) 0.92722(19)
N5 N 0.3651(3) 0.2514(3) 1.1795(3)
H3 H 0.3810 0.1893 1.2526
H4 H 0.2708 0.3023 1.1604
N6 N 0.8938(3) 0.1316(3) 1.0719(2)
H5 H 0.9104 0.0685 1.1446
H6 H 0.9719 0.1439 1.0176
C1 C 0.6484(4) 0.5801(4) 0.5764(3)
H7 H 0.7344 0.5848 0.5189
C2 C 0.5002(4) 0.6653(4) 0.5389(3)
H8 H 0.4861 0.7250 0.4572
C3 C 0.3752(4) 0.6597(4) 0.6242(4)
H9 H 0.2748 0.7172 0.6014
C4 C 0.3979(4) 0.5687(3) 0.7443(3)
H10 H 0.3134 0.5639 0.8032
C5 C 0.5476(3) 0.4851(3) 0.7755(3)
C6 C 0.5780(3) 0.3814(3) 0.9034(2)
C7 C 0.4874(4) 0.2690(3) 1.0952(3)
C8 C 0.7495(3) 0.2088(3) 1.0438(2)
C9 C 1.2605(3) 0.2157(3) 0.8391(2)
C10 C 1.3836(3) 0.1048(3) 0.9232(2)
C11 C 1.5432(3) 0.0828(3) 0.8819(2)
H11 H 1.5727 0.1379 0.8024
C12 C 1.6581(3) -0.0198(3) 0.9575(2)
H12 H 1.7643 -0.0324 0.9286
C13 C 0.9608(3) 0.1833(3) 0.6245(2)
C14 C 0.9816(3) 0.0890(3) 0.5592(2)
C15 C 0.9317(4) -0.0337(3) 0.6177(2)
H13 H 0.8857 -0.0567 0.6971
C16 C 0.9497(4) -0.1227(3) 0.5592(2)
H14 H 0.9158 -0.2051 0.5993
O1A O 1.8832(2) -0.2294(2) 1.11877(18)
O2A O 1.6972(3) -0.2900(3) 1.26589(19)
C9A C 1.7395(3) -0.2157(3) 1.1609(2)
C10A C 1.6164(3) -0.1048(3) 1.0768(2)
C11A C 1.4568(3) -0.0828(3) 1.1181(2)
H11A H 1.4273 -0.1379 1.1976
C12A C 1.3419(3) 0.0198(3) 1.0425(2)
H12A H 1.2357 0.0324 1.0714
O3A O 1.0683(3) -0.1356(2) 0.26187(17)
O4A O 1.0284(3) -0.30856(19) 0.43515(17)
C13A C 1.0392(3) -0.1833(3) 0.3755(2)
C14A C 1.0184(3) -0.0890(3) 0.4408(2)
C15A C 1.0683(4) 0.0337(3) 0.3823(2)
H13A H 1.1143 0.0567 0.3029
C16A C 1.0503(4) 0.1227(3) 0.4408(2)
H14A H 1.0842 0.2051 0.4007
Cd1A Cd 1.08708(2) -0.33970(2) 0.23991(2)
O5A O 0.9491(3) -0.5110(2) 0.32561(18)
H1A H 0.9644 -0.5584 0.4117
H2A H 0.8384 -0.4681 0.3135
N1A N 1.3277(3) -0.4914(2) 0.3073(2)
N2A N 1.5467(3) -0.3686(3) 0.0180(2)
N3A N 1.3695(3) -0.1869(3) -0.1305(2)
N4A N 1.2708(3) -0.3069(2) 0.07278(19)
N5A N 1.6349(3) -0.2514(3) -0.1795(3)
H3A H 1.6190 -0.1893 -0.2526
H4A H 1.7292 -0.3023 -0.1604
N6A N 1.1062(3) -0.1316(3) -0.0719(2)
H5A H 1.0896 -0.0685 -0.1446
H6A H 1.0281 -0.1439 -0.0176
C1A C 1.3516(4) -0.5801(4) 0.4236(3)
H7A H 1.2656 -0.5848 0.4811
C2A C 1.4998(4) -0.6653(4) 0.4611(3)
H8A H 1.5139 -0.7250 0.5428
C3A C 1.6248(4) -0.6597(4) 0.3758(4)
H9A H 1.7252 -0.7172 0.3986
C4A C 1.6021(4) -0.5687(3) 0.2557(3)
H10A H 1.6866 -0.5639 0.1968
C5A C 1.4524(3) -0.4851(3) 0.2245(3)
C6A C 1.4220(3) -0.3814(3) 0.0966(2)
C7A C 1.5126(4) -0.2690(3) -0.0952(3)
C8A C 1.2505(3) -0.2088(3) -0.0438(2)
Cd1A_2 Cd 2.08708(2) -0.33970(2) 1.23991(2)
O1A_2 O 0.8832(2) -0.2294(2) 0.11877(18)
loop_
_geom_bond_atom_site_label_1
_geom_bond_atom_site_label_2
_geom_bond_site_symmetry_1
_geom_bond_site_symmetry_2
Cd1 O1 1_555 1_555
O1 C9 1_555 1_555
O2 C9 1_555 1_555
O3 Cd1 1_555 1_555
O4 Cd1 1_555 1_555
O5 Cd1 1_555 1_555
H1 O5 1_555 1_555
H2 O5 1_555 1_555
N1 Cd1 1_555 1_555
N2 C6 1_555 1_555
N3 C7 1_555 1_555
N4 Cd1 1_555 1_555
N5 H3 1_555 1_555
H4 N5 1_555 1_555
N6 H5 1_555 1_555
H6 N6 1_555 1_555
C1 N1 1_555 1_555
H7 C1 1_555 1_555
C2 C1 1_555 1_555
H8 C2 1_555 1_555
C3 C2 1_555 1_555
H9 C3 1_555 1_555
C4 C3 1_555 1_555
H10 C4 1_555 1_555
C5 N1 1_555 1_555
C6 N4 1_555 1_555
C7 N2 1_555 1_555
C8 N3 1_555 1_555
C9 C10 1_555 1_555
C10 C11 1_555 1_555
C11 H11 1_555 1_555
C12 C11 1_555 1_555
H12 C12 1_555 1_555
C13 O3 1_555 1_555
C14 C13 1_555 1_555
C15 C14 1_555 1_555
H13 C15 1_555 1_555
C16 C15 1_555 1_555
H14 C16 1_555 1_555
O1A C9A 1_555 1_555
O2A C9A 1_555 1_555
C9A C10A 1_555 1_555
C10A C12 1_555 1_555
C11A C10A 1_555 1_555
H11A C11A 1_555 1_555
C12A C10 1_555 1_555
H12A C12A 1_555 1_555
O3A C13A 1_555 1_555
O4A C13A 1_555 1_555
C13A C14A 1_555 1_555
C14A C16 1_555 1_555
C15A C14A 1_555 1_555
H13A C15A 1_555 1_555
C16A C14 1_555 1_555
H14A C16A 1_555 1_555
Cd1A O3A 1_555 1_555
O5A Cd1A 1_555 1_555
H1A O5A 1_555 1_555
H2A O5A 1_555 1_555
N1A Cd1A 1_555 1_555
N2A C6A 1_555 1_555
N3A C7A 1_555 1_555
N4A Cd1A 1_555 1_555
N5A H3A 1_555 1_555
H4A N5A 1_555 1_555
N6A H5A 1_555 1_555
H6A N6A 1_555 1_555
C1A N1A 1_555 1_555
H7A C1A 1_555 1_555
C2A C1A 1_555 1_555
H8A C2A 1_555 1_555
C3A C2A 1_555 1_555
H9A C3A 1_555 1_555
C4A C3A 1_555 1_555
H10A C4A 1_555 1_555
C5A N1A 1_555 1_555
C6A N4A 1_555 1_555
C7A N2A 1_555 1_555
C8A N3A 1_555 1_555
Cd1A_2 O1A 1_555 1_555
O1A_2 Cd1A 1_555 1_555
O4 C13 1_555 1_555
N4 C8 1_555 1_555
N5 C7 1_555 1_555
N6 C8 1_555 1_555
C4 C5 1_555 1_555
C5 C6 1_555 1_555
C11A C12A 1_555 1_555
O4A Cd1A 1_555 1_555
C15A C16A 1_555 1_555
N4A C8A 1_555 1_555
N5A C7A 1_555 1_555
N6A C8A 1_555 1_555
C4A C5A 1_555 1_555
C5A C6A 1_555 1_555

#END
