
#######################################################################
#
#                 Cambridge Crystallographic Data Centre
#                                CCDC 
#
#######################################################################
#
# If this CIF has been generated from an entry in the Cambridge 
# Structural Database, then it will include bibliographic, chemical, 
# crystal, experimental, refinement or atomic coordinate data resulting 
# from the CCDC's data processing and validation procedures.
#
#######################################################################

data_JOGQIH
_symmetry_cell_setting           orthorhombic
_symmetry_space_group_name_H-M   'P b c m'
_symmetry_Int_Tables_number      57
_space_group_name_Hall           '-P 2c 2b'
loop_
_symmetry_equiv_pos_site_id
_symmetry_equiv_pos_as_xyz
1 x,y,z
2 -x,-y,1/2+z
3 x,1/2-y,-z
4 -x,1/2+y,1/2-z
5 -x,-y,-z
6 x,y,1/2-z
7 -x,1/2+y,z
8 x,1/2-y,1/2+z
_cell_length_a                   7.2985(4)
_cell_length_b                   16.4843(10)
_cell_length_c                   34.438(2)
_cell_angle_alpha                90
_cell_angle_beta                 90
_cell_angle_gamma                90
_cell_volume                     4143.26
loop_
_atom_site_label
_atom_site_type_symbol
_atom_site_fract_x
_atom_site_fract_y
_atom_site_fract_z
Ni1 Ni 0.59383(7) 0.27774(3) 0.2500
O1 O 0.5076(3) 0.19902(12) 0.20723(6)
O2 O 0.2615(3) 0.26200(14) 0.18284(7)
O3 O 0.5675(4) -0.08155(14) 0.06852(6)
O4 O 0.8393(4) 0.21071(16) 0.2500
O5 O 0.3381(4) 0.33669(16) 0.2500
H1 H 0.2733 0.3195 0.2688
N1 N 0.6895(3) 0.35172(14) 0.29397(6)
N2 N 0.8474(4) 0.39452(16) 0.34400(7)
N3 N 0.9567(5) 0.0837(2) 0.2500
C1 C 0.4134(4) 0.16347(16) 0.14447(8)
C2 C 0.5960(4) 0.07992(18) 0.10223(8)
H2 H 0.7041 0.0517 0.0976
C3 C 0.5732(4) 0.12152(18) 0.13694(8)
H3 H 0.6666 0.1211 0.1553
C4 C 0.5368(5) -0.04301(18) 0.03390(8)
C5 C 0.4829(4) 0.03804(18) 0.03632(8)
C6 C 0.4589(4) 0.08011(17) 0.07445(8)
C7 C 0.4466(5) 0.08006(18) 0.00208(8)
H4 H 0.4079(14) 0.138(2) 0.00346(10)
C8 C 0.2750(5) 0.16228(19) 0.11687(9)
H5 H 0.162(4) 0.1905(11) 0.1217(2)
C9 C 0.2985(5) 0.12098(19) 0.08230(9)
H6 H 0.202(4) 0.12064(19) 0.0637(7)
C10 C 0.5805(5) -0.1669(2) 0.06872(10)
H7 H 0.4753 -0.1898 0.0561
H8 H 0.5857 -0.1860 0.0951
H9 H 0.6896 -0.1834 0.0553
C11 C 0.3905(4) 0.21247(17) 0.18116(8)
C12 C 0.9036(4) 0.2735(2) 0.48158(8)
C13 C 0.8853(4) 0.2785(2) 0.41152(9)
H10 H 0.8577(12) 0.2526(10) 0.3882(9)
C14 C 0.9436(4) 0.3580(2) 0.41100(9)
C15 C 0.8662(4) 0.2364(2) 0.44599(9)
H11 H 0.8274(16) 0.182(2) 0.44549(9)
C16 C 0.9483(5) 0.3552(2) 0.48081(9)
H12 H 0.9644(8) 0.3824(12) 0.5038(10)
C17 C 0.9690(5) 0.3968(2) 0.44642(9)
H13 H 1.0019(14) 0.454(2) 0.44694(9)
C18 C 0.9915(5) 0.4003(3) 0.37347(10)
C19 C 0.6917(5) 0.4392(2) 0.34296(10)
H14 H 0.6575(15) 0.4804(17) 0.3603(7)
C20 C 0.8410(4) 0.34260(18) 0.31394(8)
H15 H 0.928(3) 0.3067(14) 0.3083(2)
C21 C 0.5956(5) 0.4126(2) 0.31207(10)
H16 H 0.483(5) 0.4327(9) 0.3043(3)
C22 C 0.8226(7) 0.1362(3) 0.2500
H17 H 0.697(7) 0.1145(12) 0.2500
C23 C 1.1445(9) 0.1078(4) 0.2500
H18 H 1.1499 0.1665 0.2500
H19 H 1.2016 0.0897 0.2267
C24 C 0.9259(10) -0.0037(3) 0.2500
H20 H 0.7948 -0.0135 0.2500
H21 H 0.9804 -0.0270 0.2725
H22 H 1.008(5) 0.459(2) 0.3784(11)
H23 H 1.105(6) 0.376(2) 0.3629(11)
O1D O 0.4924(3) -0.19902(12) -0.20723(6)
O2D O 0.7385(3) -0.26200(14) -0.18284(7)
O3D O 0.4325(4) 0.08155(14) -0.06852(6)
C1D C 0.5866(4) -0.16347(16) -0.14447(8)
C2D C 0.4040(4) -0.07992(18) -0.10223(8)
H2D H 0.2959 -0.0517 -0.0976
C3D C 0.4268(4) -0.12152(18) -0.13694(8)
H3D H 0.3334 -0.1211 -0.1553
C4D C 0.4632(5) 0.04301(18) -0.03390(8)
C5D C 0.5171(4) -0.03804(18) -0.03632(8)
C6D C 0.5411(4) -0.08011(17) -0.07445(8)
C7D C 0.5534(5) -0.08006(18) -0.00208(8)
H4D H 0.5921(14) -0.138(2) -0.00346(10)
C8D C 0.7250(5) -0.16228(19) -0.11687(9)
H5D H 0.838(4) -0.1905(11) -0.1217(2)
C9D C 0.7015(5) -0.12098(19) -0.08230(9)
H6D H 0.798(4) -0.12064(19) -0.0637(7)
C10D C 0.4195(5) 0.1669(2) -0.06872(10)
H7D H 0.5247 0.1898 -0.0561
H8D H 0.4143 0.1860 -0.0951
H9D H 0.3104 0.1834 -0.0553
C11D C 0.6095(4) -0.21247(17) -0.18116(8)
H19E H 1.2016 0.0897 0.2733
H21E H 0.9804 -0.0270 0.2275
H1E H 0.2733 0.3195 0.2312
N1B N 0.6895(3) 0.14828(14) 0.70603(6)
N2B N 0.8474(4) 0.10548(16) 0.65600(7)
C12B C 0.9036(4) 0.2265(2) 0.51842(8)
C13B C 0.8853(4) 0.2215(2) 0.58848(9)
H10B H 0.8577(12) 0.2474(10) 0.6118(9)
C14B C 0.9436(4) 0.1420(2) 0.58900(9)
C15B C 0.8662(4) 0.2636(2) 0.55401(9)
H11B H 0.8274(16) 0.318(2) 0.55451(9)
C16B C 0.9483(5) 0.1448(2) 0.51919(9)
H12B H 0.9644(8) 0.1176(12) 0.4962(10)
C17B C 0.9690(5) 0.1032(2) 0.55358(9)
H13B H 1.0019(14) 0.046(2) 0.55306(9)
C18B C 0.9915(5) 0.0997(3) 0.62653(10)
C19B C 0.6917(5) 0.0608(2) 0.65704(10)
H14B H 0.6575(15) 0.0196(17) 0.6397(7)
C20B C 0.8410(4) 0.15740(18) 0.68606(8)
H15B H 0.928(3) 0.1933(14) 0.6917(2)
C21B C 0.5956(5) 0.0874(2) 0.68793(10)
H16B H 0.483(5) 0.0673(9) 0.6957(3)
H22B H 1.008(5) 0.041(2) 0.6216(11)
H23B H 1.105(6) 0.124(2) 0.6371(11)
Ni1A Ni 0.40617(7) -0.27774(3) -0.2500
Ni1B Ni 0.59383(7) 0.22226(3) 0.7500
O1E O 0.5076(3) 0.19902(12) 0.29277(6)
N1E N 0.6895(3) 0.35172(14) 0.20603(6)
loop_
_geom_bond_atom_site_label_1
_geom_bond_atom_site_label_2
_geom_bond_site_symmetry_1
_geom_bond_site_symmetry_2
Ni1 O1 1_555 1_555
O1 C11 1_555 1_555
O2 C11 1_555 1_555
O3 C4 1_555 1_555
O4 Ni1 1_555 1_555
O5 Ni1 1_555 1_555
H1 O5 1_555 1_555
N1 Ni1 1_555 1_555
N2 C18 1_555 1_555
N3 C22 1_555 1_555
C1 C3 1_555 1_555
C2 H2 1_555 1_555
C3 C2 1_555 1_555
H3 C3 1_555 1_555
C4 C5 1_555 1_555
C5 C6 1_555 1_555
C6 C2 1_555 1_555
C7 C5 1_555 1_555
H4 C7 1_555 1_555
C8 C1 1_555 1_555
H5 C8 1_555 1_555
C9 C6 1_555 1_555
H6 C9 1_555 1_555
C10 O3 1_555 1_555
H7 C10 1_555 1_555
H8 C10 1_555 1_555
H9 C10 1_555 1_555
C11 C1 1_555 1_555
C12 C15 1_555 1_555
C13 H10 1_555 1_555
C14 C13 1_555 1_555
C15 C13 1_555 1_555
H11 C15 1_555 1_555
C16 C12 1_555 1_555
H12 C16 1_555 1_555
C17 C14 1_555 1_555
H13 C17 1_555 1_555
C18 C14 1_555 1_555
C19 N2 1_555 1_555
H14 C19 1_555 1_555
C20 N1 1_555 1_555
H15 C20 1_555 1_555
C21 N1 1_555 1_555
H16 C21 1_555 1_555
C22 O4 1_555 1_555
H17 C22 1_555 1_555
C23 N3 1_555 1_555
H18 C23 1_555 1_555
H19 C23 1_555 1_555
C24 N3 1_555 1_555
H20 C24 1_555 1_555
H21 C24 1_555 1_555
H22 C18 1_555 1_555
H23 C18 1_555 1_555
O1D C11D 1_555 1_555
O2D C11D 1_555 1_555
O3D C4D 1_555 1_555
C1D C3D 1_555 1_555
C2D H2D 1_555 1_555
C3D C2D 1_555 1_555
H3D C3D 1_555 1_555
C4D C7 1_555 1_555
C5D C4D 1_555 1_555
C6D C2D 1_555 1_555
C7D C4 1_555 1_555
H4D C7D 1_555 1_555
C8D C1D 1_555 1_555
H5D C8D 1_555 1_555
C9D C6D 1_555 1_555
H6D C9D 1_555 1_555
C10D O3D 1_555 1_555
H7D C10D 1_555 1_555
H8D C10D 1_555 1_555
H9D C10D 1_555 1_555
C11D C1D 1_555 1_555
H19E C23 1_555 1_555
H21E C24 1_555 1_555
H1E O5 1_555 1_555
N1B C20B 1_555 1_555
N2B C18B 1_555 1_555
C12B C12 1_555 1_555
C13B H10B 1_555 1_555
C14B C13B 1_555 1_555
C15B C12B 1_555 1_555
H11B C15B 1_555 1_555
C16B C12B 1_555 1_555
H12B C16B 1_555 1_555
C17B C14B 1_555 1_555
H13B C17B 1_555 1_555
C18B C14B 1_555 1_555
C19B N2B 1_555 1_555
H14B C19B 1_555 1_555
C20B N2B 1_555 1_555
H15B C20B 1_555 1_555
C21B N1B 1_555 1_555
H16B C21B 1_555 1_555
H22B C18B 1_555 1_555
H23B C18B 1_555 1_555
Ni1A O1D 1_555 1_555
Ni1B N1B 1_555 1_555
O1E Ni1 1_555 1_555
N1E Ni1 1_555 1_555
N2 C20 1_555 1_555
C8 C9 1_555 1_555
C16 C17 1_555 1_555
C19 C21 1_555 1_555
C5D C6D 1_555 1_555
C5D C7D 1_555 1_555
C8D C9D 1_555 1_555
C13B C15B 1_555 1_555
C16B C17B 1_555 1_555
C19B C21B 1_555 1_555

#END
