
#######################################################################
#
#                 Cambridge Crystallographic Data Centre
#                                CCDC 
#
#######################################################################
#
# If this CIF has been generated from an entry in the Cambridge 
# Structural Database, then it will include bibliographic, chemical, 
# crystal, experimental, refinement or atomic coordinate data resulting 
# from the CCDC's data processing and validation procedures.
#
#######################################################################

data_JOGQAZ
_symmetry_cell_setting           monoclinic
_symmetry_space_group_name_H-M   'P 21/c'
_symmetry_Int_Tables_number      14
_space_group_name_Hall           '-P 2ybc'
loop_
_symmetry_equiv_pos_site_id
_symmetry_equiv_pos_as_xyz
1 x,y,z
2 -x,1/2+y,1/2-z
3 -x,-y,-z
4 x,1/2-y,1/2+z
_cell_length_a                   22.625(2)
_cell_length_b                   14.9276(13)
_cell_length_c                   30.645(2)
_cell_angle_alpha                90
_cell_angle_beta                 128.963(4)
_cell_angle_gamma                90
_cell_volume                     8047.63
loop_
_atom_site_label
_atom_site_type_symbol
_atom_site_fract_x
_atom_site_fract_y
_atom_site_fract_z
Co1 Co 0.06757(2) 0.74605(3) 0.652850(19)
O1 O 0.03367(13) 0.61155(16) 0.64555(11)
H1 H 0.0452 0.5946 0.6765
H2 H -0.0141 0.6076 0.6198
O2 O 0.11132(14) 0.7426(2) 0.73663(11)
O3 O 0.10944(15) 0.87774(16) 0.66676(12)
H3 H 0.1328 0.8950 0.7046
H4 H 0.0681 0.9177 0.6412
O4 O 0.02698(14) 0.74644(17) 0.56842(10)
H5 H 0.0114 0.7988 0.5549
H6 H -0.0095 0.7094 0.5491
N1 N 0.17190(15) 0.69305(19) 0.67737(13)
N2 N 0.29205(15) 0.65560(19) 0.72962(12)
N3 N 0.95716(16) 0.7150(2) 1.12240(14)
N4 N 0.83444(16) 0.6860(2) 1.06561(13)
C1 C 0.52520(18) 0.6512(2) 0.86902(16)
C2 C 0.37150(18) 0.6540(2) 0.77683(15)
C3 C 0.60725(18) 0.6541(2) 0.91901(15)
C4 C 0.39406(19) 0.6644(2) 0.82985(16)
H7 H 0.3580 0.6722 0.8349
C5 C 0.70636(19) 0.6291(2) 1.01755(16)
H8 H 0.7220 0.6058 1.0515
C6 C 0.47010(18) 0.6631(2) 0.87549(15)
H9 H 0.4850 0.6704 0.9113
C7 C 0.63260(18) 0.6219(2) 0.97069(15)
H10 H 0.5980 0.5944 0.9733
C8 C 0.5012(2) 0.6388(3) 0.81545(18)
H11 H 0.5369 0.6294 0.8101
C9 C 0.4249(2) 0.6401(3) 0.76967(17)
H12 H 0.4096 0.6315 0.7338
C10 C 0.75829(19) 0.6716(2) 1.01460(16)
C11 C 0.7355(2) 0.7018(3) 0.96397(17)
H13 H 0.7706 0.7285 0.9616
C12 C 0.66169(19) 0.6928(2) 0.91687(17)
H14 H 0.6472 0.7129 0.8826
C13 C 0.24059(18) 0.7111(2) 0.72309(15)
H15 H 0.2522 0.7568 0.7480
C14 C 0.2534(2) 0.5987(3) 0.68480(17)
H16 H 0.2739 0.5523 0.6778
C15 C 0.1799(2) 0.6227(3) 0.65276(17)
H17 H 0.1405 0.5957 0.6191
C16 C 0.89870(19) 0.6927(2) 1.07175(17)
H18 H 0.9009 0.6826 1.0429
C17 C 0.8524(3) 0.7109(4) 1.1156(2)
H19 H 0.8198 0.7151 1.1243
C18 C 0.9281(2) 0.7283(4) 1.1497(2)
H20 H 0.9565 0.7468 1.1868
H21 H 0.088(2) 0.758(3) 0.7442(18)
H22 H 0.098(4) 0.687(5) 0.747(3)
Co1C Co 1.06757(2) 0.75395(3) 1.152850(19)
N3C N -0.04284(16) 0.7850(2) 0.62240(14)
Co2 Co 0.08429(2) 0.25145(3) 0.661912(19)
O5 O 0.03863(13) 0.12168(15) 0.64804(10)
H23 H 0.0449 0.1047 0.6772
H24 H -0.0086 0.1227 0.6202
O6 O 0.10818(12) 0.25011(14) 0.74046(9)
H25 H 0.0914 0.1943 0.7449
H26 H 0.0819 0.2987 0.7421
O7 O 0.13555(12) 0.37944(15) 0.67742(10)
H27 H 0.1573 0.3987 0.7147
H28 H 0.0976 0.4217 0.6507
O8 O 0.05062(13) 0.25244(17) 0.57968(10)
H29 H 0.0241 0.1979 0.5608
H30 H 0.0949 0.2568 0.5821
N5 N 0.98078(15) 0.18524(19) 1.12919(13)
N6 N 0.18808(15) 0.19062(19) 0.69253(13)
N7 N 0.30927(15) 0.15668(19) 0.74429(13)
N8 N 0.85857(15) 0.15052(19) 1.07260(13)
C19 C 0.1974(2) 0.1199(3) 0.66831(18)
H31 H 0.1583 0.0916 0.6351
C20 C 0.25611(18) 0.2109(2) 0.73729(15)
H32 H 0.2669 0.2573 0.7616
C21 C 0.4418(2) 0.1538(3) 0.78297(17)
H33 H 0.4265 0.1519 0.7468
C22 C 0.38926(18) 0.1577(2) 0.79108(16)
C23 C 0.41248(18) 0.1613(2) 0.84462(15)
H34 H 0.3765 0.1647 0.8501
C24 C 0.48861(18) 0.1599(2) 0.89020(15)
H35 H 0.5036 0.1611 0.9263
C25 C 0.54364(18) 0.1567(2) 0.88295(16)
C26 C 0.5182(2) 0.1527(3) 0.82894(17)
H36 H 0.5536 0.1491 0.8230
C27 C 0.62591(18) 0.1560(2) 0.93232(16)
C28 C 0.65100(17) 0.1197(2) 0.98294(15)
H37 H 0.6156 0.0950 0.9856
C29 C 0.72663(18) 0.1190(2) 1.02954(15)
H38 H 0.7418 0.0956 1.0633
C30 C 0.77975(18) 0.1534(2) 1.02559(16)
C31 C 0.7564(2) 0.1900(3) 0.97558(18)
H39 H 0.7919 0.2141 0.9729
C32 C 0.68024(19) 0.1908(2) 0.92963(16)
H40 H 0.6650 0.2154 0.8961
C33 C 0.91398(19) 0.2044(2) 1.08198(16)
H41 H 0.9054 0.2495 1.0577
C34 C 0.96881(19) 0.1138(3) 1.15068(18)
H42 H 1.0068 0.0846 1.1839
C35 C 0.2713(2) 0.0982(3) 0.69987(18)
H43 H 0.2925 0.0526 0.6930
C36 C 0.8942(2) 0.0912(3) 1.11719(19)
H44 H 0.8717 0.0456 1.1229
Co2C Co 1.08429(2) 0.24855(3) 1.161912(19)
N5C N -0.01922(15) 0.31476(19) 0.62919(13)
O9 O 0.78737(14) 0.37764(16) 1.19858(11)
O10 O 0.85696(13) 0.49290(15) 1.25448(11)
O11 O 0.13527(15) 1.01181(16) 0.74152(12)
O12 O 0.19203(17) 1.12095(18) 0.80602(12)
O13 O 0.52696(14) 0.89414(17) 0.95783(12)
O14 O 0.46322(14) 0.60884(17) 1.03685(12)
C37 C 0.61802(18) 0.6343(2) 1.08263(14)
C38 C 0.51248(18) 0.8243(2) 0.97851(14)
C39 C 0.61044(17) 0.5419(2) 1.07790(14)
H45 H 0.5648 0.5167 1.0475
C40 C 0.37279(18) 0.8675(2) 0.91200(14)
C41 C 0.43581(17) 0.8083(2) 0.95482(14)
C42 C 0.73785(18) 0.5221(2) 1.16495(14)
C43 C 0.68770(18) 0.6698(2) 1.12840(14)
H46 H 0.6950 0.7315 1.1318
C44 C 0.56926(17) 0.7684(2) 1.01908(14)
H47 H 0.6191 0.7805 1.0339
C45 C 0.66957(19) 0.4865(2) 1.11763(15)
H48 H 0.6639 0.4247 1.1129
C46 C 0.55496(17) 0.6939(2) 1.03890(14)
C47 C 0.37932(18) 0.9601(2) 0.91807(14)
H49 H 0.4248 0.9854 0.9485
C48 C 0.31938(19) 1.0144(2) 0.87970(15)
H50 H 0.3242 1.0760 0.8854
C49 C 0.74610(17) 0.6136(2) 1.16888(14)
H51 H 0.7918 0.6385 1.1993
C50 C 0.30349(18) 0.8320(2) 0.86623(14)
H52 H 0.2970 0.7702 0.8626
C51 C 0.47855(18) 0.6776(2) 1.01523(14)
C52 C 0.42196(17) 0.7342(2) 0.97474(14)
H53 H 0.3722 0.7224 0.9600
C53 C 0.25118(19) 0.9794(2) 0.83227(15)
C54 C 0.24354(19) 0.8876(2) 0.82573(15)
H54 H 0.1986 0.8627 0.7944
C55 C 0.79930(19) 0.4594(2) 1.20989(16)
C56 C 0.1869(2) 1.0415(3) 0.78950(17)
C57 C 0.5967(2) 0.8940(3) 0.9678(2)
H55 H 0.6377 0.8974 1.0074
H56 H 0.5989 0.9446 0.9495
H57 H 0.6012 0.8398 0.9532
C58 C 0.3928(3) 0.6093(3) 1.0260(2)
H58 H 0.3807 0.6694 1.0292
H59 H 0.3958 0.5717 1.0528
H60 H 0.3539 0.5872 0.9888
O15 O 0.8920(2) 0.9242(3) 1.04907(18)
O16 O 0.60899(13) 0.90458(19) 0.73676(11)
O17 O 0.38770(13) 0.90435(19) 0.76169(11)
O18 O 0.08753(17) 0.9310(2) 0.45896(15)
O19 O 0.05776(16) 0.8508(3) 0.50348(13)
O20 O 0.93998(18) 0.8934(3) 1.00550(15)
C59 C 0.33826(18) 0.8999(2) 0.65118(14)
C60 C 0.42034(18) 0.8997(2) 0.70242(15)
C61 C 0.57627(17) 0.9014(2) 0.79593(15)
C62 C 0.65784(18) 0.9041(2) 0.84835(15)
C63 C 0.55325(19) 0.9018(2) 0.74228(16)
C64 C 0.51976(19) 0.9000(2) 0.80200(16)
H61 H 0.5344 0.8984 0.8379
C65 C 0.28543(19) 0.8490(2) 0.64825(15)
H62 H 0.3005 0.8151 0.6792
C66 C 0.7895(2) 0.8625(3) 0.90383(19)
H63 H 0.8280 0.8335 0.9065
C67 C 0.2103(2) 0.8471(3) 0.60041(17)
H64 H 0.1757 0.8112 0.5993
C68 C 0.47619(19) 0.9003(2) 0.69626(16)
H65 H 0.4616 0.8995 0.6603
C69 C 0.18614(19) 0.8977(2) 0.55443(16)
C70 C 0.44313(19) 0.9007(2) 0.75645(16)
C71 C 0.3137(2) 0.9514(2) 0.60473(16)
H66 H 0.3481 0.9878 0.6061
C72 C 0.6767(2) 0.9530(2) 0.89409(16)
H67 H 0.6393 0.9864 0.8907
C73 C 0.4087(2) 0.9126(3) 0.81555(17)
H68 H 0.4416 0.9634 0.8343
H69 H 0.4348 0.8593 0.8368
H70 H 0.3639 0.9206 0.8123
C74 C 0.71517(19) 0.8588(2) 0.85384(16)
H71 H 0.7042 0.8255 0.8239
C75 C 0.1046(2) 0.8937(3) 0.5023(2)
C76 C 0.2396(2) 0.9493(2) 0.55720(16)
H72 H 0.2246 0.9830 0.5262
C77 C 0.5878(2) 0.9129(3) 0.68272(17)
H73 H 0.5558 0.9645 0.6643
H74 H 0.5607 0.8602 0.6612
H75 H 0.6326 0.9197 0.6859
C78 C 0.8064(2) 0.9086(3) 0.94937(18)
C79 C 0.7484(2) 0.9530(3) 0.94350(18)
H76 H 0.7587 0.9837 0.9740
C80 C 0.8866(3) 0.9113(4) 1.0052(3)
loop_
_geom_bond_atom_site_label_1
_geom_bond_atom_site_label_2
_geom_bond_site_symmetry_1
_geom_bond_site_symmetry_2
Co1 O1 1_555 1_555
O1 H1 1_555 1_555
H2 O1 1_555 1_555
O2 Co1 1_555 1_555
O3 Co1 1_555 1_555
H3 O3 1_555 1_555
H4 O3 1_555 1_555
O4 Co1 1_555 1_555
H5 O4 1_555 1_555
H6 O4 1_555 1_555
N1 Co1 1_555 1_555
N2 C2 1_555 1_555
N3 C16 1_555 1_555
N4 C10 1_555 1_555
C1 C3 1_555 1_555
C2 C4 1_555 1_555
C3 C7 1_555 1_555
C4 H7 1_555 1_555
C5 H8 1_555 1_555
C6 C1 1_555 1_555
H9 C6 1_555 1_555
C7 C5 1_555 1_555
H10 C7 1_555 1_555
C8 C1 1_555 1_555
H11 C8 1_555 1_555
C9 C2 1_555 1_555
H12 C9 1_555 1_555
C10 C5 1_555 1_555
C11 C10 1_555 1_555
H13 C11 1_555 1_555
C12 C3 1_555 1_555
H14 C12 1_555 1_555
C13 N1 1_555 1_555
H15 C13 1_555 1_555
C14 N2 1_555 1_555
H16 C14 1_555 1_555
C15 N1 1_555 1_555
H17 C15 1_555 1_555
C16 N4 1_555 1_555
H18 C16 1_555 1_555
C17 N4 1_555 1_555
H19 C17 1_555 1_555
C18 N3 1_555 1_555
H20 C18 1_555 1_555
H21 O2 1_555 1_555
H22 O2 1_555 1_555
Co2 O5 1_555 1_555
O5 H23 1_555 1_555
H24 O5 1_555 1_555
O6 Co2 1_555 1_555
H25 O6 1_555 1_555
H26 O6 1_555 1_555
O7 Co2 1_555 1_555
H27 O7 1_555 1_555
H28 O7 1_555 1_555
O8 Co2 1_555 1_555
H29 O8 1_555 1_555
H30 O8 1_555 1_555
N5 C33 1_555 1_555
N6 Co2 1_555 1_555
N7 C20 1_555 1_555
N8 C30 1_555 1_555
C19 N6 1_555 1_555
H31 C19 1_555 1_555
C20 N6 1_555 1_555
H32 C20 1_555 1_555
C21 H33 1_555 1_555
C22 N7 1_555 1_555
C23 C22 1_555 1_555
H34 C23 1_555 1_555
C24 C23 1_555 1_555
H35 C24 1_555 1_555
C25 C24 1_555 1_555
C26 C21 1_555 1_555
H36 C26 1_555 1_555
C27 C25 1_555 1_555
C28 C27 1_555 1_555
H37 C28 1_555 1_555
C29 C28 1_555 1_555
H38 C29 1_555 1_555
C30 C29 1_555 1_555
C31 C30 1_555 1_555
H39 C31 1_555 1_555
C32 C27 1_555 1_555
H40 C32 1_555 1_555
C33 N8 1_555 1_555
H41 C33 1_555 1_555
C34 N5 1_555 1_555
H42 C34 1_555 1_555
C35 N7 1_555 1_555
H43 C35 1_555 1_555
C36 N8 1_555 1_555
H44 C36 1_555 1_555
O9 C55 1_555 1_555
O10 C55 1_555 1_555
O11 C56 1_555 1_555
O12 C56 1_555 1_555
O13 C38 1_555 1_555
O14 C51 1_555 1_555
C37 C39 1_555 1_555
C38 C41 1_555 1_555
C39 H45 1_555 1_555
C40 C41 1_555 1_555
C41 C52 1_555 1_555
C42 C45 1_555 1_555
C43 C37 1_555 1_555
H46 C43 1_555 1_555
C44 C38 1_555 1_555
H47 C44 1_555 1_555
C45 C39 1_555 1_555
H48 C45 1_555 1_555
C46 C37 1_555 1_555
C47 C40 1_555 1_555
H49 C47 1_555 1_555
C48 C47 1_555 1_555
H50 C48 1_555 1_555
C49 C42 1_555 1_555
H51 C49 1_555 1_555
C50 C40 1_555 1_555
H52 C50 1_555 1_555
C51 C46 1_555 1_555
C52 C51 1_555 1_555
H53 C52 1_555 1_555
C53 C48 1_555 1_555
C54 C50 1_555 1_555
H54 C54 1_555 1_555
C55 C42 1_555 1_555
C56 C53 1_555 1_555
C57 O13 1_555 1_555
H55 C57 1_555 1_555
H56 C57 1_555 1_555
H57 C57 1_555 1_555
C58 O14 1_555 1_555
H58 C58 1_555 1_555
H59 C58 1_555 1_555
H60 C58 1_555 1_555
O15 C80 1_555 1_555
O16 C63 1_555 1_555
O17 C70 1_555 1_555
O18 C75 1_555 1_555
O19 C75 1_555 1_555
O20 C80 1_555 1_555
C59 C60 1_555 1_555
C60 C68 1_555 1_555
C61 C62 1_555 1_555
C62 C72 1_555 1_555
C63 C61 1_555 1_555
C64 C61 1_555 1_555
H61 C64 1_555 1_555
C65 C59 1_555 1_555
H62 C65 1_555 1_555
C66 H63 1_555 1_555
C67 C65 1_555 1_555
H64 C67 1_555 1_555
C68 C63 1_555 1_555
H65 C68 1_555 1_555
C69 C67 1_555 1_555
C70 C60 1_555 1_555
C71 C59 1_555 1_555
H66 C71 1_555 1_555
C72 H67 1_555 1_555
C73 O17 1_555 1_555
H68 C73 1_555 1_555
H69 C73 1_555 1_555
H70 C73 1_555 1_555
C74 C62 1_555 1_555
H71 C74 1_555 1_555
C75 C69 1_555 1_555
C76 C69 1_555 1_555
H72 C76 1_555 1_555
C77 O16 1_555 1_555
H73 C77 1_555 1_555
H74 C77 1_555 1_555
H75 C77 1_555 1_555
C78 C66 1_555 1_555
C79 C72 1_555 1_555
H76 C79 1_555 1_555
C80 C78 1_555 1_555
Co1C N3 1_555 1_555
N3C Co1 1_555 1_555
Co2C N5 1_555 1_555
N5C Co2 1_555 1_555
N2 C13 1_555 1_555
C4 C6 1_555 1_555
C8 C9 1_555 1_555
C11 C12 1_555 1_555
C14 C15 1_555 1_555
C17 C18 1_555 1_555
C19 C35 1_555 1_555
C21 C22 1_555 1_555
C25 C26 1_555 1_555
C31 C32 1_555 1_555
C34 C36 1_555 1_555
C43 C49 1_555 1_555
C44 C46 1_555 1_555
C53 C54 1_555 1_555
C64 C70 1_555 1_555
C66 C74 1_555 1_555
C71 C76 1_555 1_555
C78 C79 1_555 1_555

#END
