
#######################################################################
#
#                 Cambridge Crystallographic Data Centre
#                                CCDC 
#
#######################################################################
#
# If this CIF has been generated from an entry in the Cambridge 
# Structural Database, then it will include bibliographic, chemical, 
# crystal, experimental, refinement or atomic coordinate data resulting 
# from the CCDC's data processing and validation procedures.
#
#######################################################################

data_JOGQON
_symmetry_cell_setting           triclinic
_symmetry_space_group_name_H-M   'P -1'
_symmetry_Int_Tables_number      2
_space_group_name_Hall           '-P 1'
loop_
_symmetry_equiv_pos_site_id
_symmetry_equiv_pos_as_xyz
1 x,y,z
2 -x,-y,-z
_cell_length_a                   10.8266(7)
_cell_length_b                   12.4225(7)
_cell_length_c                   16.9020(10)
_cell_angle_alpha                107.5810(10)
_cell_angle_beta                 91.9470(10)
_cell_angle_gamma                99.3780(10)
_cell_volume                     2129.69
loop_
_atom_site_label
_atom_site_type_symbol
_atom_site_fract_x
_atom_site_fract_y
_atom_site_fract_z
Ni1 Ni 0.5000 0.5000 1.0000
Ni2 Ni 0.0000 -0.5000 0.0000
O1 O 0.38299(11) 0.54979(10) 0.92028(7)
O2 O 0.52714(12) 0.65865(12) 0.87098(8)
O3 O 0.34131(11) 0.40453(10) 1.02610(7)
H1 H 0.3620 0.3712 1.0604
H2 H 0.2906 0.4485 1.0473
O4 O -0.15827(11) -0.60432(10) 0.02038(7)
H3 H -0.1382 -0.6358 0.0560
H4 H -0.2136 -0.5640 0.0386
O5 O 0.02108(12) -0.33452(12) -0.12371(8)
O6 O -0.11648(11) -0.46017(10) -0.08466(7)
O7 O -0.39337(16) -0.28083(13) -0.40300(10)
O8 O 0.16557(14) 0.70731(12) 0.55744(9)
N1 N -0.02318(14) -0.35740(12) 0.09863(9)
C1 C -0.08653(18) -0.20238(16) 0.18160(12)
H5 H -0.1320 -0.1442 0.2027
N2 N 0.51337(14) 0.35955(12) 0.89803(9)
C2 C 0.57830(17) 0.21329(16) 0.80526(11)
H6 H 0.6246 0.1575 0.7798
N3 N 0.02018(14) -0.22018(13) 0.21957(9)
C3 C 0.21524(17) 0.50642(15) 0.77768(11)
H7 H 0.1882 0.4732 0.8180
N4 N 0.46948(14) 0.23455(13) 0.77180(9)
C4 C -0.07983(16) -0.40393(15) -0.13458(11)
C5 C -0.41207(18) -0.48055(17) -0.43108(11)
C6 C 0.43434(17) 0.32310(15) 0.83050(11)
H8 H 0.3635 0.3541 0.8239
C7 C 0.60338(17) 0.29048(15) 0.88257(11)
H9 H 0.6712 0.2961 0.9198
C8 C 0.08792(18) 0.51879(17) 0.57004(11)
C9 C 0.00228(18) 0.41598(17) 0.53664(12)
H10 H 0.0030 0.3580 0.5608
C10 C 0.40339(18) 0.17266(15) 0.69235(11)
C11 C 0.08244(18) -0.15271(16) 0.29902(11)
C12 C 0.08346(19) 0.60311(17) 0.53076(12)
C13 C -0.11133(17) -0.28669(16) 0.10768(11)
H11 H -0.1780 -0.2958 0.0686
C14 C -0.32441(18) -0.46262(17) -0.35684(11)
C15 C 0.13570(17) 0.48908(16) 0.70709(11)
H12 H 0.0554 0.4457 0.7013
C16 C 0.27148(19) 0.04620(16) 0.53766(11)
C17 C 0.29634(19) 0.5989(2) 0.65466(13)
H13 H 0.3250 0.6286 0.6129
C18 C -0.35335(18) -0.52609(16) -0.30230(11)
H14 H -0.4261 -0.5816 -0.3140
C19 C -0.21254(19) -0.38093(19) -0.33794(13)
H15 H -0.1908 -0.3380 -0.3736
C20 C 0.33485(17) 0.57281(15) 0.78878(11)
C21 C 0.20405(19) -0.02249(16) 0.45527(11)
C22 C 0.17462(18) 0.53599(17) 0.64462(11)
C23 C -0.16547(17) -0.42627(15) -0.21208(11)
C24 C 0.37528(18) 0.61797(18) 0.72555(12)
H16 H 0.4557 0.6610 0.7313
C25 C -0.27518(17) -0.50781(15) -0.23063(11)
H17 H -0.2966 -0.5506 -0.1949
C26 C 0.4365(3) 0.0732(2) 0.64532(16)
H18 H 0.5033 0.0466 0.6647
C27 C 0.2022(2) -0.14069(17) 0.42389(12)
H19 H 0.2418 -0.1766 0.4558
C28 C -0.13457(18) -0.36359(18) -0.26720(12)
H20 H -0.0606 -0.3096 -0.2560
C29 C 0.2404(2) 0.1475(2) 0.58545(14)
H21 H 0.1738 0.1742 0.5661
C30 C -0.46873(19) -0.59110(18) -0.47829(12)
H22 H -0.4482 -0.6531 -0.4641
C31 C -0.44453(19) -0.38830(18) -0.45363(12)
C32 C 0.3714(3) 0.0114(2) 0.56886(15)
H23 H 0.3962 -0.0558 0.5376
C33 C 0.1428(2) -0.20500(16) 0.34659(12)
H24 H 0.1433 -0.2833 0.3265
C34 C 0.42212(16) 0.59643(15) 0.86557(11)
C35 C 0.1434(2) 0.02826(18) 0.40588(13)
H25 H 0.1435 0.1068 0.4254
C36 C 0.3058(2) 0.2110(2) 0.66179(14)
H26 H 0.2834 0.2798 0.6923
C37 C 0.05466(17) -0.31492(15) 0.16673(11)
H27 H 0.1240 -0.3456 0.1773
C38 C 0.0827(2) -0.03577(17) 0.32805(13)
H28 H 0.0428 -0.0005 0.2959
C39 C -0.4510(2) -0.18846(19) -0.40802(15)
H29 H -0.4398 -0.1769 -0.4612
H30 H -0.4132 -0.1199 -0.3645
H31 H -0.5392 -0.2059 -0.4018
C40 C 0.1266(3) 0.7887(2) 0.62356(19)
H32 H 0.0547 0.8132 0.6045
H33 H 0.1935 0.8536 0.6450
H34 H 0.1047 0.7555 0.6668
O1A O -0.38299(11) 0.45021(10) 0.07972(7)
O2A O -0.52714(12) 0.34135(12) 0.12902(8)
O8A O -0.16557(14) 0.29269(12) 0.44256(9)
C3A C -0.21524(17) 0.49358(15) 0.22232(11)
H7A H -0.1882 0.5268 0.1820
C8A C -0.08792(18) 0.48121(17) 0.42996(11)
C9A C -0.00228(18) 0.58402(17) 0.46336(12)
H10A H -0.0030 0.6420 0.4392
C12A C -0.08346(19) 0.39689(17) 0.46924(12)
C15A C -0.13570(17) 0.51092(16) 0.29291(11)
H12A H -0.0554 0.5543 0.2987
C17A C -0.29634(19) 0.4011(2) 0.34534(13)
H13A H -0.3250 0.3714 0.3871
C20A C -0.33485(17) 0.42719(15) 0.21122(11)
C22A C -0.17462(18) 0.46401(17) 0.35538(11)
C24A C -0.37528(18) 0.38203(18) 0.27445(12)
H16A H -0.4557 0.3390 0.2687
C34A C -0.42212(16) 0.40357(15) 0.13443(11)
C40A C -0.1266(3) 0.2113(2) 0.37644(19)
H32A H -0.0547 0.1868 0.3955
H33A H -0.1935 0.1464 0.3550
H34A H -0.1047 0.2445 0.3332
O5A O -1.02108(12) -0.66548(12) -0.87629(8)
O6A O -0.88352(11) -0.53983(10) -0.91534(7)
O7A O -0.60663(16) -0.71917(13) -0.59700(10)
C4A C -0.92017(16) -0.59607(15) -0.86542(11)
C5A C -0.58793(18) -0.51945(17) -0.56892(11)
C14A C -0.67559(18) -0.53738(17) -0.64316(11)
C18A C -0.64665(18) -0.47391(16) -0.69770(11)
H14A H -0.5739 -0.4184 -0.6860
C19A C -0.78746(19) -0.61907(19) -0.66206(13)
H15A H -0.8092 -0.6620 -0.6264
C23A C -0.83453(17) -0.57373(15) -0.78792(11)
C25A C -0.72482(17) -0.49219(15) -0.76937(11)
H17A H -0.7034 -0.4494 -0.8051
C28A C -0.86543(18) -0.63641(18) -0.73280(12)
H20A H -0.9394 -0.6904 -0.7440
C30A C -0.53127(19) -0.40890(18) -0.52171(12)
H22A H -0.5518 -0.3469 -0.5359
C31A C -0.55547(19) -0.61170(18) -0.54637(12)
C39A C -0.5490(2) -0.81154(19) -0.59198(15)
H29A H -0.5602 -0.8231 -0.5388
H30A H -0.5868 -0.8801 -0.6355
H31A H -0.4608 -0.7941 -0.5982
N1A N 1.02318(14) 1.35740(12) 1.90137(9)
C1A C 1.08653(18) 1.20238(16) 1.81840(12)
H5A H 1.1320 1.1442 1.7973
N2A N 0.48663(14) 0.64045(12) 1.10197(9)
C2A C 0.42170(17) 0.78671(16) 1.19474(11)
H6A H 0.3754 0.8425 1.2202
N3A N 0.97982(14) 1.22018(13) 1.78043(9)
N4A N 0.53052(14) 0.76545(13) 1.22820(9)
C6A C 0.56566(17) 0.67690(15) 1.16950(11)
H8A H 0.6365 0.6459 1.1761
C7A C 0.39662(17) 0.70952(15) 1.11743(11)
H9A H 0.3288 0.7039 1.0802
C10A C 0.59661(18) 0.82734(15) 1.30765(11)
C11A C 0.91756(18) 1.15271(16) 1.70098(11)
C13A C 1.11133(17) 1.28669(16) 1.89232(11)
H11A H 1.1780 1.2958 1.9314
C16A C 0.72852(19) 0.95380(16) 1.46234(11)
C21A C 0.79595(19) 1.02249(16) 1.54473(11)
C26A C 0.5635(3) 0.9268(2) 1.35468(16)
H18A H 0.4967 0.9534 1.3353
C27A C 0.7978(2) 1.14069(17) 1.57611(12)
H19A H 0.7582 1.1766 1.5442
C29A C 0.7596(2) 0.8525(2) 1.41455(14)
H21A H 0.8262 0.8258 1.4339
C32A C 0.6286(3) 0.9886(2) 1.43114(15)
H23A H 0.6038 1.0558 1.4624
C33A C 0.8572(2) 1.20500(16) 1.65341(12)
H24A H 0.8567 1.2833 1.6735
C35A C 0.8566(2) 0.97174(18) 1.59412(13)
H25A H 0.8565 0.8932 1.5746
C36A C 0.6942(2) 0.7890(2) 1.33821(14)
H26A H 0.7166 0.7202 1.3077
C37A C 0.94534(17) 1.31492(15) 1.83327(11)
H27A H 0.8760 1.3456 1.8227
C38A C 0.9173(2) 1.03577(17) 1.67195(13)
H28A H 0.9572 1.0005 1.7041
O3A O 0.65869(11) 0.59547(10) 0.97390(7)
H1A H 0.6380 0.6288 0.9396
H2A H 0.7094 0.5515 0.9527
O4A O 0.15827(11) -0.39568(10) -0.02038(7)
H3A H 0.1382 -0.3642 -0.0560
H4A H 0.2136 -0.4360 -0.0386
Ni1_2 Ni -0.5000 0.5000 0.0000
Ni2_2 Ni -1.0000 -0.5000 -1.0000
Ni2_3 Ni 1.0000 1.5000 2.0000
O1A_2 O 0.61701(11) 0.45021(10) 1.07972(7)
O6A_2 O 0.11648(11) -0.53983(10) 0.08466(7)
N1A_2 N 0.02318(14) -0.64260(12) -0.09863(9)
O9 O 0.8746(2) 0.04922(16) 0.19534(12)
N5 N 0.7068(2) 0.06150(17) 0.11610(15)
C41 C 0.6312(3) -0.0473(3) 0.1156(3)
H35 H 0.6748 -0.0803 0.1502
H36 H 0.6173 -0.0990 0.0596
H37 H 0.5519 -0.0342 0.1366
C42 C 0.6493(3) 0.1267(2) 0.07193(18)
H38 H 0.7057 0.1972 0.0772
H39 H 0.5724 0.1436 0.0952
H40 H 0.6317 0.0826 0.0141
C43 C 0.8207(2) 0.09956(19) 0.15659(15)
H41 H 0.8631 0.1704 0.1554
O10 O 0.3438(2) 0.02518(18) 0.21120(14)
N6 N 0.21757(19) 0.05477(16) 0.11302(14)
C44 C 0.1796(3) 0.1359(2) 0.07447(19)
H42 H 0.0994 0.1525 0.0918
H43 H 0.1734 0.1030 0.0149
H44 H 0.2409 0.2055 0.0912
C45 C 0.1382(3) -0.0581(2) 0.0895(2)
H45 H 0.1736 -0.1057 0.1161
H46 H 0.1330 -0.0923 0.0302
H47 H 0.0556 -0.0508 0.1068
C46 C 0.3105(2) 0.0868(2) 0.17306(18)
H48 H 0.3540 0.1620 0.1874
loop_
_geom_bond_atom_site_label_1
_geom_bond_atom_site_label_2
_geom_bond_site_symmetry_1
_geom_bond_site_symmetry_2
Ni1 O1 1_555 1_555
Ni2 O4 1_555 1_555
O1 C34 1_555 1_555
O2 C34 1_555 1_555
O3 Ni1 1_555 1_555
H1 O3 1_555 1_555
H2 O3 1_555 1_555
O4 H3 1_555 1_555
H4 O4 1_555 1_555
O5 C4 1_555 1_555
O6 Ni2 1_555 1_555
O7 C31 1_555 1_555
O8 C12 1_555 1_555
N1 Ni2 1_555 1_555
C1 H5 1_555 1_555
N2 Ni1 1_555 1_555
C2 H6 1_555 1_555
N3 C1 1_555 1_555
C3 H7 1_555 1_555
N4 C2 1_555 1_555
C4 O6 1_555 1_555
C5 C14 1_555 1_555
C6 N2 1_555 1_555
H8 C6 1_555 1_555
C7 N2 1_555 1_555
H9 C7 1_555 1_555
C8 C9 1_555 1_555
C9 H10 1_555 1_555
C10 N4 1_555 1_555
C11 N3 1_555 1_555
C12 C8 1_555 1_555
C13 N1 1_555 1_555
H11 C13 1_555 1_555
C14 C18 1_555 1_555
C15 C3 1_555 1_555
H12 C15 1_555 1_555
C16 C21 1_555 1_555
C17 H13 1_555 1_555
C18 H14 1_555 1_555
C19 C14 1_555 1_555
H15 C19 1_555 1_555
C20 C3 1_555 1_555
C21 C27 1_555 1_555
C22 C8 1_555 1_555
C23 C4 1_555 1_555
C24 C17 1_555 1_555
H16 C24 1_555 1_555
C25 C18 1_555 1_555
H17 C25 1_555 1_555
C26 C10 1_555 1_555
H18 C26 1_555 1_555
C27 H19 1_555 1_555
C28 C19 1_555 1_555
H20 C28 1_555 1_555
C29 C16 1_555 1_555
H21 C29 1_555 1_555
C30 C5 1_555 1_555
H22 C30 1_555 1_555
C31 C5 1_555 1_555
C32 C16 1_555 1_555
H23 C32 1_555 1_555
C33 C11 1_555 1_555
H24 C33 1_555 1_555
C34 C20 1_555 1_555
C35 C21 1_555 1_555
H25 C35 1_555 1_555
C36 C10 1_555 1_555
H26 C36 1_555 1_555
C37 N1 1_555 1_555
H27 C37 1_555 1_555
C38 C11 1_555 1_555
H28 C38 1_555 1_555
C39 O7 1_555 1_555
H29 C39 1_555 1_555
H30 C39 1_555 1_555
H31 C39 1_555 1_555
C40 O8 1_555 1_555
H32 C40 1_555 1_555
H33 C40 1_555 1_555
H34 C40 1_555 1_555
O9 C43 1_555 1_555
N5 C41 1_555 1_555
C41 H35 1_555 1_555
H36 C41 1_555 1_555
H37 C41 1_555 1_555
C42 N5 1_555 1_555
H38 C42 1_555 1_555
H39 C42 1_555 1_555
H40 C42 1_555 1_555
C43 N5 1_555 1_555
H41 C43 1_555 1_555
O10 C46 1_555 1_555
N6 C44 1_555 1_555
C44 H42 1_555 1_555
H43 C44 1_555 1_555
H44 C44 1_555 1_555
C45 N6 1_555 1_555
H45 C45 1_555 1_555
H46 C45 1_555 1_555
H47 C45 1_555 1_555
C46 N6 1_555 1_555
H48 C46 1_555 1_555
O1A C34A 1_555 1_555
O2A C34A 1_555 1_555
O8A C12A 1_555 1_555
C3A H7A 1_555 1_555
C8A C9A 1_555 1_555
C9A C12 1_555 1_555
H10A C9A 1_555 1_555
C12A C9 1_555 1_555
C15A C3A 1_555 1_555
H12A C15A 1_555 1_555
C17A H13A 1_555 1_555
C20A C3A 1_555 1_555
C22A C8A 1_555 1_555
C24A C17A 1_555 1_555
H16A C24A 1_555 1_555
C34A C20A 1_555 1_555
C40A O8A 1_555 1_555
H32A C40A 1_555 1_555
H33A C40A 1_555 1_555
H34A C40A 1_555 1_555
O5A C4A 1_555 1_555
O6A C4A 1_555 1_555
O7A C31A 1_555 1_555
C4A C23A 1_555 1_555
C5A C14A 1_555 1_555
C14A C18A 1_555 1_555
C18A H14A 1_555 1_555
C19A C14A 1_555 1_555
H15A C19A 1_555 1_555
C23A C25A 1_555 1_555
C25A C18A 1_555 1_555
H17A C25A 1_555 1_555
C28A C19A 1_555 1_555
H20A C28A 1_555 1_555
C30A C31 1_555 1_555
H22A C30A 1_555 1_555
C31A C30 1_555 1_555
C39A O7A 1_555 1_555
H29A C39A 1_555 1_555
H30A C39A 1_555 1_555
H31A C39A 1_555 1_555
N1A C13A 1_555 1_555
C1A H5A 1_555 1_555
N2A Ni1 1_555 1_555
C2A H6A 1_555 1_555
N3A C1A 1_555 1_555
N4A C2A 1_555 1_555
C6A N2A 1_555 1_555
H8A C6A 1_555 1_555
C7A N2A 1_555 1_555
H9A C7A 1_555 1_555
C10A N4A 1_555 1_555
C11A N3A 1_555 1_555
C13A C1A 1_555 1_555
H11A C13A 1_555 1_555
C16A C21A 1_555 1_555
C21A C27A 1_555 1_555
C26A C10A 1_555 1_555
H18A C26A 1_555 1_555
C27A H19A 1_555 1_555
C29A C16A 1_555 1_555
H21A C29A 1_555 1_555
C32A C16A 1_555 1_555
H23A C32A 1_555 1_555
C33A C11A 1_555 1_555
H24A C33A 1_555 1_555
C35A C21A 1_555 1_555
H25A C35A 1_555 1_555
C36A C10A 1_555 1_555
H26A C36A 1_555 1_555
C37A N1A 1_555 1_555
H27A C37A 1_555 1_555
C38A C11A 1_555 1_555
H28A C38A 1_555 1_555
O3A Ni1 1_555 1_555
H1A O3A 1_555 1_555
H2A O3A 1_555 1_555
O4A Ni2 1_555 1_555
H3A O4A 1_555 1_555
H4A O4A 1_555 1_555
Ni1_2 O1A 1_555 1_555
Ni2_2 O6A 1_555 1_555
Ni2_3 N1A 1_555 1_555
O1A_2 Ni1 1_555 1_555
O6A_2 Ni2 1_555 1_555
N1A_2 Ni2 1_555 1_555
C1 C13 1_555 1_555
C2 C7 1_555 1_555
N3 C37 1_555 1_555
N4 C6 1_555 1_555
C15 C22 1_555 1_555
C17 C22 1_555 1_555
C20 C24 1_555 1_555
C23 C25 1_555 1_555
C23 C28 1_555 1_555
C26 C32 1_555 1_555
C27 C33 1_555 1_555
C29 C36 1_555 1_555
C35 C38 1_555 1_555
C8A C12A 1_555 1_555
C15A C22A 1_555 1_555
C17A C22A 1_555 1_555
C20A C24A 1_555 1_555
C5A C30A 1_555 1_555
C5A C31A 1_555 1_555
C23A C28A 1_555 1_555
C2A C7A 1_555 1_555
N3A C37A 1_555 1_555
N4A C6A 1_555 1_555
C26A C32A 1_555 1_555
C27A C33A 1_555 1_555
C29A C36A 1_555 1_555
C35A C38A 1_555 1_555

#END
