
#######################################################################
#
#                 Cambridge Crystallographic Data Centre
#                                CCDC 
#
#######################################################################
#
# If this CIF has been generated from an entry in the Cambridge 
# Structural Database, then it will include bibliographic, chemical, 
# crystal, experimental, refinement or atomic coordinate data resulting 
# from the CCDC's data processing and validation procedures.
#
#######################################################################

data_JOHBOY
_symmetry_cell_setting           orthorhombic
_symmetry_space_group_name_H-M   'P b c a'
_symmetry_Int_Tables_number      61
_space_group_name_Hall           '-P 2ac 2ab'
loop_
_symmetry_equiv_pos_site_id
_symmetry_equiv_pos_as_xyz
1 x,y,z
2 1/2-x,-y,1/2+z
3 -x,1/2+y,1/2-z
4 1/2+x,1/2-y,-z
5 -x,-y,-z
6 1/2+x,y,1/2-z
7 x,1/2-y,1/2+z
8 1/2-x,1/2+y,z
_cell_length_a                   14.0101(5)
_cell_length_b                   15.0958(5)
_cell_length_c                   16.0605(5)
_cell_angle_alpha                90
_cell_angle_beta                 90
_cell_angle_gamma                90
_cell_volume                     3396.69
loop_
_atom_site_label
_atom_site_type_symbol
_atom_site_fract_x
_atom_site_fract_y
_atom_site_fract_z
K1 K 0.74205(3) 0.22794(3) 0.52005(3)
S1 S 0.83306(3) 0.35691(3) 0.66312(3)
S2 S 0.74732(3) 0.51361(3) 0.75109(3)
S3 S 0.55761(3) 0.34468(3) 0.45021(3)
S4 S 0.51284(3) 0.51367(3) 0.36093(3)
S5 S 0.88346(3) 0.33534(3) 0.39073(3)
S6 S 0.99240(3) 0.50528(3) 0.37616(3)
N1 N 0.74195(10) 0.49957(10) 0.59440(10)
N2 N 0.69929(11) 0.58032(9) 0.61124(9)
N3 N 0.65900(11) 0.50001(9) 0.45200(9)
N4 N 0.66132(11) 0.58674(9) 0.42288(9)
N5 N 0.83981(11) 0.49584(9) 0.45992(9)
N6 N 0.86892(11) 0.58341(9) 0.46740(9)
B1 B 0.74532(14) 0.46522(15) 0.50272(13)
C1 C 0.77382(13) 0.45362(12) 0.66117(11)
C2 C 0.69762(14) 0.59514(13) 0.68975(12)
C3 C 0.58436(13) 0.44954(12) 0.42634(11)
C4 C 0.58920(14) 0.60165(13) 0.37492(11)
C5 C 0.89683(13) 0.44350(11) 0.41375(11)
C6 C 0.94658(13) 0.59665(12) 0.42690(11)
H1 H 0.7448(11) 0.3958(13) 0.5039(11)
H2 H 0.6722(14) 0.6447(14) 0.7115(13)
H3 H 0.5792(14) 0.6567(14) 0.3503(12)
H4 H 0.9748(14) 0.6502(13) 0.4261(12)
O1 O 0.60984(12) 0.21399(11) 0.64729(9)
C7 C 0.60365(19) 0.2419(2) 0.73071(15)
H5 H 0.555(2) 0.2010(18) 0.6325(16)
H6 H 0.665(2) 0.2509(16) 0.7520(17)
H7 H 0.563(3) 0.286(2) 0.744(2)
H8 H 0.577(3) 0.198(3) 0.764(3)
K1G K 0.75795(3) 0.72794(3) 0.52005(3)
N2G N 0.80071(11) 0.08032(9) 0.61124(9)
N4G N 0.83868(11) 0.08674(9) 0.42288(9)
N6G N 0.63108(11) 0.08341(9) 0.46740(9)
loop_
_geom_bond_atom_site_label_1
_geom_bond_atom_site_label_2
_geom_bond_site_symmetry_1
_geom_bond_site_symmetry_2
K1 S1 1_555 1_555
S1 C1 1_555 1_555
S2 C1 1_555 1_555
S3 K1 1_555 1_555
S4 C3 1_555 1_555
S5 K1 1_555 1_555
S6 C5 1_555 1_555
N1 N2 1_555 1_555
N2 C2 1_555 1_555
N3 N4 1_555 1_555
N4 C4 1_555 1_555
N5 N6 1_555 1_555
N6 C6 1_555 1_555
B1 N1 1_555 1_555
C1 N1 1_555 1_555
C2 S2 1_555 1_555
C3 S3 1_555 1_555
C4 S4 1_555 1_555
C5 S5 1_555 1_555
C6 S6 1_555 1_555
H1 K1 1_555 1_555
H2 C2 1_555 1_555
H3 C4 1_555 1_555
H4 C6 1_555 1_555
O1 K1 1_555 1_555
C7 O1 1_555 1_555
H5 O1 1_555 1_555
H6 C7 1_555 1_555
H7 C7 1_555 1_555
H8 C7 1_555 1_555
K1G N2 1_555 1_555
N2G K1 1_555 1_555
N4G K1 1_555 1_555
N6G K1 1_555 1_555
N3 B1 1_555 1_555
N3 C3 1_555 1_555
N4 K1G 1_555 1_555
N5 B1 1_555 1_555
N5 C5 1_555 1_555
N6 K1G 1_555 1_555
B1 H1 1_555 1_555

#END
