
#######################################################################
#
#                 Cambridge Crystallographic Data Centre
#                                CCDC 
#
#######################################################################
#
# If this CIF has been generated from an entry in the Cambridge 
# Structural Database, then it will include bibliographic, chemical, 
# crystal, experimental, refinement or atomic coordinate data resulting 
# from the CCDC's data processing and validation procedures.
#
#######################################################################

data_JOHFIX
_symmetry_cell_setting           monoclinic
_symmetry_space_group_name_H-M   'P 21'
_symmetry_Int_Tables_number      4
_space_group_name_Hall           'P 2yb'
loop_
_symmetry_equiv_pos_site_id
_symmetry_equiv_pos_as_xyz
1 x,y,z
2 -x,1/2+y,-z
_cell_length_a                   8.3027(17)
_cell_length_b                   5.6859(11)
_cell_length_c                   12.603(3)
_cell_angle_alpha                90
_cell_angle_beta                 94.01(3)
_cell_angle_gamma                90
_cell_volume                     593.51
loop_
_atom_site_label
_atom_site_type_symbol
_atom_site_fract_x
_atom_site_fract_y
_atom_site_fract_z
Hg1 Hg 0.22497(7) 0.3075(2) 0.48638(4)
O1 O 0.253(6) 0.242(4) 1.1138(19)
O2 O 0.141(6) 0.557(7) 1.054(3)
O3 O 0.0905(17) 0.8715(19) 0.4205(12)
N1 N 0.434(3) -0.266(3) 0.5746(16)
N2 N 0.3217(18) 0.116(2) 0.6206(13)
N3 N 0.210(4) 0.373(5) 1.0387(17)
C1 C 0.385(2) -0.084(4) 0.6014(15)
C2 C 0.298(3) 0.175(3) 0.7242(14)
C3 C 0.350(4) 0.037(3) 0.8118(19)
H1 H 0.4073 -0.0991 0.7995
C4 C 0.320(4) 0.091(5) 0.916(2)
H2 H 0.3505 -0.0095 0.9724
C5 C 0.235(4) 0.322(8) 0.9330(15)
C6 C 0.182(4) 0.452(4) 0.8484(19)
H3 H 0.1208 0.5858 0.8577
C7 C 0.220(3) 0.385(3) 0.7481(16)
H4 H 0.1913 0.4867 0.6921
C8 C 0.112(3) 0.489(3) 0.3569(15)
H5 H 0.1434 0.4207 0.2910
H6 H -0.0046 0.4742 0.3583
C9 C 0.1569(18) 0.736(3) 0.3617(12)
C10 C 0.289(3) 0.806(7) 0.2952(16)
H7 H 0.2447 0.8526 0.2261
H8 H 0.3607 0.6746 0.2881
H9 H 0.3482 0.9346 0.3282
Hg1_2 Hg 0.22497(7) 1.3075(2) 0.48638(4)
Hg1A Hg -0.22497(7) 0.8075(2) 0.51362(4)
O3_2 O 0.0905(17) -0.1285(19) 0.4205(12)
O3A O -0.0905(17) 0.3715(19) 0.5795(12)
loop_
_geom_bond_atom_site_label_1
_geom_bond_atom_site_label_2
_geom_bond_site_symmetry_1
_geom_bond_site_symmetry_2
Hg1 N2 1_555 1_555
O1 N3 1_555 1_555
O2 N3 1_555 1_555
O3 C9 1_555 1_555
N1 C1 1_555 1_555
N2 C1 1_555 1_555
N3 C5 1_555 1_555
C2 N2 1_555 1_555
C3 C2 1_555 1_555
H1 C3 1_555 1_555
C4 C3 1_555 1_555
H2 C4 1_555 1_555
C5 C4 1_555 1_555
C6 C5 1_555 1_555
H3 C6 1_555 1_555
C7 C2 1_555 1_555
H4 C7 1_555 1_555
C8 Hg1 1_555 1_555
H5 C8 1_555 1_555
H6 C8 1_555 1_555
C9 C8 1_555 1_555
C10 C9 1_555 1_555
H7 C10 1_555 1_555
H8 C10 1_555 1_555
H9 C10 1_555 1_555
Hg1_2 O3 1_555 1_555
Hg1A O3 1_555 1_555
O3_2 Hg1 1_555 1_555
O3A Hg1 1_555 1_555
C6 C7 1_555 1_555
Hg1A O3A 1_555 1_555

#END
