
#######################################################################
#
#                 Cambridge Crystallographic Data Centre
#                                CCDC 
#
#######################################################################
#
# If this CIF has been generated from an entry in the Cambridge 
# Structural Database, then it will include bibliographic, chemical, 
# crystal, experimental, refinement or atomic coordinate data resulting 
# from the CCDC's data processing and validation procedures.
#
#######################################################################

data_JOHKEW
_symmetry_cell_setting           triclinic
_symmetry_space_group_name_H-M   'P -1'
_symmetry_Int_Tables_number      2
_space_group_name_Hall           '-P 1'
loop_
_symmetry_equiv_pos_site_id
_symmetry_equiv_pos_as_xyz
1 x,y,z
2 -x,-y,-z
_cell_length_a                   7.354(6)
_cell_length_b                   8.028(2)
_cell_length_c                   8.887(4)
_cell_angle_alpha                110.64(2)
_cell_angle_beta                 107.16(5)
_cell_angle_gamma                98.87(4)
_cell_volume                     449.152
loop_
_atom_site_label
_atom_site_type_symbol
_atom_site_fract_x
_atom_site_fract_y
_atom_site_fract_z
Cu1 Cu 0.88413(9) -0.00094(7) 0.13137(8)
Cl1 Cl 0.7619(2) -0.0665(2) -0.1661(2)
N1 N 0.8212(7) -0.2354(5) 0.1576(6)
N2 N 0.6998(7) -0.4953(5) 0.2188(6)
C1 C 0.7664(7) -0.3586(6) 0.1841(6)
C2 C 0.8161(8) -0.8323(7) 0.3341(7)
C3 C 0.8698(7) -0.7264(6) 0.2564(6)
C4 C 0.7170(8) -0.6836(6) 0.1303(7)
C5 C 0.5989(8) -0.4632(7) 0.3450(7)
C6 C 0.4237(12) -0.4054(12) 0.2935(9)
C7 C 0.3658(13) -0.2789(12) 0.3333(11)
Cl1A Cl 1.2381(2) 0.0665(2) 0.1661(2)
C2_2 C 0.8161(8) 0.1677(7) 0.3341(7)
C3_2 C 0.8698(7) 0.2736(6) 0.2564(6)
Cu1A Cu 1.11587(9) 0.00094(7) -0.13137(8)
Cu1_2 Cu 0.88413(9) -1.00094(7) 0.13137(8)
loop_
_geom_bond_atom_site_label_1
_geom_bond_atom_site_label_2
_geom_bond_site_symmetry_1
_geom_bond_site_symmetry_2
Cu1 Cl1 1_555 1_555
Cl1 Cu1A 1_555 1_555
N1 Cu1 1_555 1_555
N2 C1 1_555 1_555
C1 N1 1_555 1_555
C2 C3 1_555 1_555
C3 C4 1_555 1_555
C4 N2 1_555 1_555
C5 N2 1_555 1_555
C6 C5 1_555 1_555
C7 C6 1_555 1_555
Cl1A Cu1 1_555 1_555
C2_2 Cu1 1_555 1_555
C3_2 Cu1 1_555 1_555
Cu1A Cl1A 1_555 1_555
Cu1_2 C2 1_555 1_555
C3 Cu1_2 1_555 1_555
C2_2 C3_2 1_555 1_555

#END
