
#######################################################################
#
#                 Cambridge Crystallographic Data Centre
#                                CCDC 
#
#######################################################################
#
# If this CIF has been generated from an entry in the Cambridge 
# Structural Database, then it will include bibliographic, chemical, 
# crystal, experimental, refinement or atomic coordinate data resulting 
# from the CCDC's data processing and validation procedures.
#
#######################################################################

data_JOHKIA
_symmetry_cell_setting           monoclinic
_symmetry_space_group_name_H-M   'P 1 1 21/a'
_symmetry_Int_Tables_number      14
_space_group_name_Hall           '-P 2ac'
loop_
_symmetry_equiv_pos_site_id
_symmetry_equiv_pos_as_xyz
1 x,y,z
2 1/2-x,-y,1/2+z
3 -x,-y,-z
4 1/2+x,y,1/2-z
_cell_length_a                   7.996(6)
_cell_length_b                   7.862(7)
_cell_length_c                   15.600(17)
_cell_angle_alpha                90
_cell_angle_beta                 90
_cell_angle_gamma                100.47(6)
_cell_volume                     964.359
loop_
_atom_site_label
_atom_site_type_symbol
_atom_site_fract_x
_atom_site_fract_y
_atom_site_fract_z
Cu1 Cu 0.1816(1) 0.0549(1) 0.0493(1)
Br1 Br 0.1476(1) -0.0257(1) -0.1002(1)
N1 N 0.2627(7) 0.3030(7) 0.0601(4)
N2 N 0.4106(7) 0.5987(7) 0.0925(4)
C1 C 0.3279(8) 0.4393(9) 0.0751(4)
C2 C 0.2967(11) 0.9647(10) 0.1581(6)
C3 C 0.2369(9) 0.8261(9) 0.1069(5)
C4 C 0.3551(9) 0.7498(9) 0.0508(5)
C5 C 0.5217(9) 0.6275(9) 0.1686(5)
C6 C 0.6263(10) 0.4905(11) 0.1751(6)
C7 C 0.6137(11) 0.3771(12) 0.2314(7)
H1 H 0.225(7) 0.996(7) 0.187(4)
H2 H 0.420(7) 1.045(8) 0.169(5)
H3 H 0.116(9) 0.732(10) 0.115(5)
H4 H 0.292(8) 0.705(9) -0.004(5)
H5 H 0.455(7) 0.811(8) 0.039(4)
H6 H 0.606(7) 0.751(7) 0.155(4)
H7 H 0.451(7) 0.627(8) 0.222(4)
H8 H 0.724(10) 0.492(11) 0.135(6)
H9 H 0.686(8) 0.300(9) 0.234(5)
H10 H 0.523(9) 0.380(11) 0.271(6)
Br1B Br -0.1476(1) 0.0257(1) 0.1002(1)
C2_2 C 0.2967(11) -0.0353(10) 0.1581(6)
C3_2 C 0.2369(9) -0.1739(9) 0.1069(5)
Cu1B Cu -0.1816(1) -0.0549(1) -0.0493(1)
Cu1_2 Cu 0.1816(1) 1.0549(1) 0.0493(1)
H1_2 H 0.225(7) -0.004(7) 0.187(4)
H2_2 H 0.420(7) 0.045(8) 0.169(5)
H3_2 H 0.116(9) -0.268(10) 0.115(5)
loop_
_geom_bond_atom_site_label_1
_geom_bond_atom_site_label_2
_geom_bond_site_symmetry_1
_geom_bond_site_symmetry_2
Cu1 Br1 1_555 1_555
Br1 Cu1B 1_555 1_555
N1 Cu1 1_555 1_555
N2 C1 1_555 1_555
C1 N1 1_555 1_555
C2 C3 1_555 1_555
C3 C4 1_555 1_555
C4 N2 1_555 1_555
C5 N2 1_555 1_555
C6 C5 1_555 1_555
C7 C6 1_555 1_555
H1 C2 1_555 1_555
H2 C2 1_555 1_555
H3 C3 1_555 1_555
H4 C4 1_555 1_555
H5 C4 1_555 1_555
H6 C5 1_555 1_555
H7 C5 1_555 1_555
H8 C6 1_555 1_555
H9 C7 1_555 1_555
H10 C7 1_555 1_555
Br1B Cu1 1_555 1_555
C2_2 Cu1 1_555 1_555
C3_2 Cu1 1_555 1_555
Cu1B Br1B 1_555 1_555
Cu1_2 C2 1_555 1_555
H1_2 C2_2 1_555 1_555
H2_2 C2_2 1_555 1_555
H3_2 C3_2 1_555 1_555
C3 Cu1_2 1_555 1_555
C2_2 C3_2 1_555 1_555

#END
