
#######################################################################
#
#                 Cambridge Crystallographic Data Centre
#                                CCDC 
#
#######################################################################
#
# If this CIF has been generated from an entry in the Cambridge 
# Structural Database, then it will include bibliographic, chemical, 
# crystal, experimental, refinement or atomic coordinate data resulting 
# from the CCDC's data processing and validation procedures.
#
#######################################################################

data_JOHLUP
_symmetry_cell_setting           triclinic
_symmetry_space_group_name_H-M   'P -1'
_symmetry_Int_Tables_number      2
_space_group_name_Hall           '-P 1'
loop_
_symmetry_equiv_pos_site_id
_symmetry_equiv_pos_as_xyz
1 x,y,z
2 -x,-y,-z
_cell_length_a                   9.113(4)
_cell_length_b                   12.184(6)
_cell_length_c                   15.398(7)
_cell_angle_alpha                105.448(5)
_cell_angle_beta                 103.501(5)
_cell_angle_gamma                106.108(5)
_cell_volume                     1493.47
loop_
_atom_site_label
_atom_site_type_symbol
_atom_site_fract_x
_atom_site_fract_y
_atom_site_fract_z
Zn1 Zn 0.36399(4) 0.88929(3) 0.81757(3)
C1 C 0.8391(4) 0.9973(3) 1.1260(3)
C2 C 0.5921(4) 0.8230(3) 0.9340(2)
C3 C 0.8796(4) 0.9089(3) 1.0554(2)
C4 C 0.7653(4) 0.8285(3) 0.9672(2)
C5 C 1.0377(5) 0.9115(4) 1.0777(3)
H1 H 1.1132 0.9647 1.1367
C6 C 1.0852(5) 0.8371(4) 1.0147(3)
H2 H 1.1924 0.8422 1.0300
C7 C 0.9715(5) 0.7546(4) 0.9282(3)
H3 H 1.0012 0.7024 0.8856
C8 C 0.8136(4) 0.7506(3) 0.9058(2)
C9 C 0.6961(6) 0.6778(4) 0.7324(3)
H4 H 0.7743 0.7459 0.7326
C10 C 0.5855(6) 0.5969(5) 0.6488(3)
H5 H 0.5877 0.6115 0.5927
C11 C 0.4648(6) 0.4892(5) 0.6437(3)
C12 C 0.4728(5) 0.4782(4) 0.7347(3)
H6 H 0.3983 0.4105 0.7375
C13 C 0.5834(5) 0.5619(3) 0.8157(3)
H7 H 0.5834 0.5511 0.8733
C14 C 0.0823(5) 0.7080(3) 0.6555(3)
H8 H 0.0860 0.7751 0.6370
C15 C -0.0415(5) 0.5979(3) 0.6010(3)
H9 H -0.1198 0.5922 0.5473
C16 C -0.0499(4) 0.4965(3) 0.6256(2)
C17 C 0.0723(5) 0.5112(4) 0.7060(3)
H10 H 0.0729 0.4450 0.7252
C18 C 0.1921(5) 0.6239(3) 0.7571(3)
H11 H 0.2734 0.6318 0.8103
C19 C -0.1856(5) 0.3754(4) 0.5686(3)
H12 H -0.1460 0.3232 0.5282
H13 H -0.2717 0.3886 0.5271
C20 C -0.2548(5) 0.3098(3) 0.6287(3)
H14 H -0.2917 0.3623 0.6707
H15 H -0.1706 0.2926 0.6681
C21 C -0.3958(6) 0.1904(4) 0.5667(3)
H16 H -0.4839 0.2086 0.5320
H17 H -0.3615 0.1418 0.5203
C22 C -0.4557(5) 0.1177(4) 0.6244(3)
C23 C -0.3817(5) 0.0456(5) 0.6536(3)
H18 H -0.2912 0.0402 0.6373
C24 C -0.4381(5) -0.0201(4) 0.7069(3)
H19 H -0.3846 -0.0693 0.7251
C25 C -0.6402(7) 0.0527(5) 0.7027(5)
H20 H -0.7324 0.0552 0.7179
C26 C -0.5895(7) 0.1199(5) 0.6502(5)
H21 H -0.6457 0.1674 0.6317
N1 N 0.1972(3) 0.7223(2) 0.7339(2)
N2 N -0.5655(4) -0.0160(3) 0.7333(2)
N3 N 0.6958(4) 0.6620(3) 0.8164(2)
O1 O 0.5693(3) 0.8764(2) 0.87339(18)
O2 O 0.4878(3) 0.7642(2) 0.95864(19)
O3 O 0.7051(3) 1.0105(2) 1.09311(19)
O4 O 0.9300(4) 1.0510(4) 1.2081(2)
O5 O 0.3617(5) 0.4107(4) 0.5672(2)
Zn1_2 Zn -0.63601(4) -0.11071(3) 0.81757(3)
Zn1A Zn 0.63601(4) 1.11071(3) 1.18243(3)
N2_2 N 0.4345(4) 0.9840(3) 0.7333(2)
O3A O 0.2949(3) 0.9895(2) 0.90689(19)
O6 O 1.0000 0.5000 0.0000
O7 O 0.8910(11) 0.7674(8) 0.2612(8)
O8 O 0.0737(11) 0.0289(9) 0.3754(6)
O9 O 0.5686(8) 0.6285(7) 0.0705(6)
O10 O 0.9031(7) 0.7848(5) 0.4656(4)
loop_
_geom_bond_atom_site_label_1
_geom_bond_atom_site_label_2
_geom_bond_site_symmetry_1
_geom_bond_site_symmetry_2
Zn1 N1 1_555 1_555
C1 C3 1_555 1_555
C2 C4 1_555 1_555
C3 C4 1_555 1_555
C4 C8 1_555 1_555
C5 C3 1_555 1_555
H1 C5 1_555 1_555
C6 C5 1_555 1_555
H2 C6 1_555 1_555
C7 C6 1_555 1_555
H3 C7 1_555 1_555
C8 C7 1_555 1_555
C9 H4 1_555 1_555
C10 C9 1_555 1_555
H5 C10 1_555 1_555
C11 C10 1_555 1_555
C12 C11 1_555 1_555
H6 C12 1_555 1_555
C13 C12 1_555 1_555
H7 C13 1_555 1_555
C14 H8 1_555 1_555
C15 C14 1_555 1_555
H9 C15 1_555 1_555
C16 C15 1_555 1_555
C17 C16 1_555 1_555
H10 C17 1_555 1_555
C18 C17 1_555 1_555
H11 C18 1_555 1_555
C19 C16 1_555 1_555
H12 C19 1_555 1_555
H13 C19 1_555 1_555
C20 C19 1_555 1_555
H14 C20 1_555 1_555
H15 C20 1_555 1_555
C21 C20 1_555 1_555
H16 C21 1_555 1_555
H17 C21 1_555 1_555
C22 C21 1_555 1_555
C23 C22 1_555 1_555
H18 C23 1_555 1_555
C24 C23 1_555 1_555
H19 C24 1_555 1_555
C25 H20 1_555 1_555
C26 C22 1_555 1_555
H21 C26 1_555 1_555
N1 C14 1_555 1_555
N2 C24 1_555 1_555
N3 C8 1_555 1_555
O1 Zn1 1_555 1_555
O2 C2 1_555 1_555
O3 C1 1_555 1_555
O4 C1 1_555 1_555
O5 C11 1_555 1_555
Zn1_2 N2 1_555 1_555
Zn1A O3 1_555 1_555
N2_2 Zn1 1_555 1_555
O3A Zn1 1_555 1_555
C2 O1 1_555 1_555
C9 N3 1_555 1_555
C13 N3 1_555 1_555
C18 N1 1_555 1_555
C25 C26 1_555 1_555
C25 N2 1_555 1_555

#END
