
#######################################################################
#
#                 Cambridge Crystallographic Data Centre
#                                CCDC 
#
#######################################################################
#
# If this CIF has been generated from an entry in the Cambridge 
# Structural Database, then it will include bibliographic, chemical, 
# crystal, experimental, refinement or atomic coordinate data resulting 
# from the CCDC's data processing and validation procedures.
#
#######################################################################

data_JOHLEZ
_symmetry_cell_setting           triclinic
_symmetry_space_group_name_H-M   'P -1'
_symmetry_Int_Tables_number      2
_space_group_name_Hall           '-P 1'
loop_
_symmetry_equiv_pos_site_id
_symmetry_equiv_pos_as_xyz
1 x,y,z
2 -x,-y,-z
_cell_length_a                   6.5496(18)
_cell_length_b                   9.516(3)
_cell_length_c                   10.152(3)
_cell_angle_alpha                83.987(3)
_cell_angle_beta                 87.186(3)
_cell_angle_gamma                87.672(3)
_cell_volume                     628.093
loop_
_atom_site_label
_atom_site_type_symbol
_atom_site_fract_x
_atom_site_fract_y
_atom_site_fract_z
Cd1 Cd 0.31247(2) 0.402097(15) 0.689725(14)
C1 C 0.0872(3) 0.6494(2) 0.6887(2)
C2 C -0.2170(3) 0.7704(2) 0.4894(2)
C3 C -0.0081(3) 0.7971(2) 0.6865(2)
C4 C -0.1528(3) 0.8540(2) 0.5965(2)
C5 C -0.2297(3) 0.9922(2) 0.6018(2)
H1 H -0.3268 1.0291 0.5426
C6 C -0.1630(3) 1.0751(2) 0.6943(2)
H2 H -0.2168 1.1666 0.6979
C7 C -0.0161(3) 1.0215(2) 0.7816(2)
H3 H 0.0326 1.0775 0.8421
C8 C 0.0572(3) 0.8833(2) 0.7774(2)
C9 C 0.1815(4) 0.7240(3) 0.9643(2)
H4 H 0.0531 0.6850 0.9754
C10 C 0.3313(4) 0.6732(3) 1.0463(2)
H5 H 0.3046 0.5993 1.1116
C11 C 0.5281(4) 0.7317(3) 1.0333(2)
C12 C 0.5549(4) 0.8413(3) 0.9287(3)
H6 H 0.6816 0.8823 0.9143
C13 C 0.4016(4) 0.8877(3) 0.8494(2)
H7 H 0.4242 0.9601 0.7820
N1 N 0.2148(3) 0.83001(19) 0.86695(17)
O1 O 0.2660(2) 0.63945(18) 0.63767(18)
O2 O -0.0034(3) 0.54827(17) 0.74885(17)
O3 O 0.6537(3) 0.41355(19) 0.62805(17)
O4 O -0.1284(3) 0.6520(2) 0.4798(2)
O5 O -0.3491(3) 0.8192(2) 0.41117(19)
O6 O 0.6771(3) 0.6920(2) 1.10708(18)
Cd1A Cd -0.31247(2) 0.597903(15) 0.310275(14)
Cd1A_2 Cd 0.68753(2) 0.597903(15) 1.310275(14)
O4A O 0.1284(3) 0.3480(2) 0.5202(2)
O5A O 0.3491(3) 0.1808(2) 0.58883(19)
O6A O 0.3229(3) 0.3080(2) 0.89292(18)
loop_
_geom_bond_atom_site_label_1
_geom_bond_atom_site_label_2
_geom_bond_site_symmetry_1
_geom_bond_site_symmetry_2
Cd1 O1 1_555 1_555
C1 C3 1_555 1_555
C2 C4 1_555 1_555
C3 C4 1_555 1_555
C4 C5 1_555 1_555
C5 H1 1_555 1_555
C6 C5 1_555 1_555
H2 C6 1_555 1_555
C7 C6 1_555 1_555
H3 C7 1_555 1_555
C8 C3 1_555 1_555
C9 H4 1_555 1_555
C10 C9 1_555 1_555
H5 C10 1_555 1_555
C11 C10 1_555 1_555
C12 C11 1_555 1_555
H6 C12 1_555 1_555
C13 C12 1_555 1_555
H7 C13 1_555 1_555
N1 C8 1_555 1_555
O1 C1 1_555 1_555
O2 Cd1 1_555 1_555
O3 Cd1 1_555 1_555
O4 C2 1_555 1_555
O5 C2 1_555 1_555
O6 C11 1_555 1_555
Cd1A O4 1_555 1_555
Cd1A_2 O6 1_555 1_555
O4A Cd1 1_555 1_555
O5A Cd1 1_555 1_555
O6A Cd1 1_555 1_555
C1 O2 1_555 1_555
C7 C8 1_555 1_555
C9 N1 1_555 1_555
C13 N1 1_555 1_555
O5 Cd1A 1_555 1_555

#END
