
#######################################################################
#
#                 Cambridge Crystallographic Data Centre
#                                CCDC 
#
#######################################################################
#
# If this CIF has been generated from an entry in the Cambridge 
# Structural Database, then it will include bibliographic, chemical, 
# crystal, experimental, refinement or atomic coordinate data resulting 
# from the CCDC's data processing and validation procedures.
#
#######################################################################

data_JOHMAW
_symmetry_cell_setting           triclinic
_symmetry_space_group_name_H-M   'P -1'
_symmetry_Int_Tables_number      2
_space_group_name_Hall           '-P 1'
loop_
_symmetry_equiv_pos_site_id
_symmetry_equiv_pos_as_xyz
1 x,y,z
2 -x,-y,-z
_cell_length_a                   8.674(8)
_cell_length_b                   11.168(10)
_cell_length_c                   20.267(18)
_cell_angle_alpha                101.759(10)
_cell_angle_beta                 102.310(9)
_cell_angle_gamma                99.121(10)
_cell_volume                     1835.55
loop_
_atom_site_label
_atom_site_type_symbol
_atom_site_fract_x
_atom_site_fract_y
_atom_site_fract_z
Zn1 Zn 0.50813(4) 1.41779(3) 0.114029(15)
Zn2 Zn -0.32997(4) 0.69200(3) 0.459776(16)
C1 C -0.5925(3) 0.5498(2) 0.35889(14)
C2 C -0.7690(3) 0.4901(2) 0.33052(13)
C3 C -0.8542(3) 0.4174(2) 0.36486(12)
C4 C -0.7715(3) 0.3704(3) 0.42475(15)
C5 C -1.0193(3) 0.3812(2) 0.33894(13)
C6 C -1.1006(3) 0.4162(3) 0.28231(16)
H1 H -1.2126 0.3929 0.2672
C7 C -1.0154(4) 0.4855(3) 0.24848(15)
H2 H -1.0690 0.5091 0.2099
C8 C -0.8502(3) 0.5202(3) 0.27177(14)
H3 H -0.7921 0.5647 0.2476
C9 C -1.2204(4) 0.3455(3) 0.40289(17)
H4 H -1.2251 0.4295 0.4084
C10 C -1.3198(4) 0.2724(3) 0.42825(17)
H5 H -1.3907 0.3067 0.4511
C11 C -1.3177(3) 0.1448(3) 0.42057(15)
C12 C -1.2026(5) 0.1038(3) 0.3873(2)
H6 H -1.1918 0.0212 0.3825
C13 C -1.1073(4) 0.1803(3) 0.3621(2)
H7 H -1.0351 0.1488 0.3389
C14 C 0.7307(3) 1.4748(2) -0.08592(13)
C15 C 0.6658(3) 1.3253(2) 0.01872(13)
C16 C 0.8083(3) 1.3223(2) -0.01349(13)
C17 C 0.8372(3) 1.3902(2) -0.06217(13)
C18 C 0.9713(4) 1.3825(3) -0.08788(15)
H8 H 0.9894 1.4269 -0.1206
C19 C 1.0790(4) 1.3115(3) -0.06669(17)
H9 H 1.1693 1.3088 -0.0843
C20 C 1.0513(4) 1.2447(3) -0.01915(16)
H10 H 1.1225 1.1957 -0.0044
C21 C 0.9174(3) 1.2505(2) 0.00655(13)
C22 C 0.7818(4) 1.0705(3) 0.03745(15)
H11 H 0.7192 1.0440 -0.0083
C23 C 0.7589(4) 0.9991(3) 0.08183(15)
H12 H 0.6823 0.9244 0.0660
C24 C 0.8500(4) 1.0359(3) 0.15271(16)
C25 C 0.9658(4) 1.1494(3) 0.16953(16)
H13 H 1.0317 1.1781 0.2146
C26 C 0.9843(4) 1.2171(3) 0.12305(15)
H14 H 1.0618 1.2913 0.1367
C27 C -0.1872(3) 0.7783(3) 0.35074(15)
H15 H -0.2925 0.7826 0.3306
C28 C -0.0677(4) 0.8176(3) 0.32048(15)
H16 H -0.0928 0.8481 0.2809
C29 C 0.0894(4) 0.8121(3) 0.34859(15)
C30 C 0.1160(4) 0.7611(3) 0.40482(16)
H17 H 0.2194 0.7519 0.4243
C31 C -0.0087(4) 0.7233(3) 0.43264(16)
H18 H 0.0126 0.6883 0.4707
C32 C 0.2263(4) 0.8468(4) 0.3174(2)
H19 H 0.3255 0.8625 0.3537
H20 H 0.2272 0.7741 0.2820
C33 C 0.2331(4) 0.9548(3) 0.28537(17)
H21 H 0.2437 1.0309 0.3207
H22 H 0.1336 0.9437 0.2500
C34 C 0.3746(4) 0.9671(3) 0.25281(18)
H23 H 0.4724 0.9760 0.2888
H24 H 0.3626 0.8897 0.2183
C35 C 0.3968(3) 1.0735(3) 0.21845(15)
C36 C 0.3852(4) 1.1932(3) 0.24817(15)
H25 H 0.3598 1.2104 0.2910
C37 C 0.4109(4) 1.2871(3) 0.21481(15)
H26 H 0.3999 1.3666 0.2355
C38 C 0.4653(4) 1.1541(3) 0.12578(15)
H27 H 0.4955 1.1399 0.0840
C39 C 0.4373(4) 1.0559(3) 0.15571(16)
H28 H 0.4457 0.9767 0.1334
H29 H 0.568(5) 1.557(4) 0.232(2)
H30 H -0.368(5) 0.913(4) 0.467(2)
H31 H 0.613(4) 1.615(3) 0.1912(18)
H32 H -0.443(5) 0.867(4) 0.508(2)
N1 N 0.4508(3) 1.2697(2) 0.15429(11)
N2 N -0.1602(3) 0.7346(2) 0.40725(12)
N3 N -1.1145(3) 0.3010(2) 0.36979(11)
N4 N 0.8921(3) 1.1793(2) 0.05670(11)
O1 O -0.5415(2) 0.5812(2) 0.42428(10)
O2 O -0.8037(3) 0.4023(3) 0.48149(11)
O3 O 0.6982(2) 1.39737(18) 0.07902(9)
O4 O 0.6143(2) 1.48820(18) -0.05822(9)
O5 O 0.6127(3) 1.5558(2) 0.20216(12)
O6 O -0.3872(4) 0.8586(2) 0.48257(17)
O7 O -0.6833(3) 0.2965(2) 0.41414(14)
O8 O -0.5093(2) 0.5724(2) 0.31983(11)
O9 O 0.5359(2) 1.25395(19) -0.01185(10)
O10 O 0.7581(3) 1.5282(2) -0.13098(11)
O11 O 0.8301(3) 0.9736(2) 0.19610(11)
O12 O -1.4109(3) 0.0720(2) 0.44248(13)
Zn1A Zn 0.49187(4) 1.58221(3) -0.114029(15)
Zn2A Zn -0.67003(4) 0.30800(3) 0.540224(16)
O2A O -0.1963(3) 0.5977(3) 0.51851(11)
O4A O 0.3857(2) 1.51180(18) 0.05822(9)
O7A O -0.3167(3) 0.7035(2) 0.58586(14)
O10A O 0.2419(3) 1.4718(2) 0.13098(11)
O13 O 0.5999(3) 0.7625(2) 0.15939(11)
H33 H 0.6141 0.8396 0.1595
H34 H 0.5547 0.7210 0.1178
loop_
_geom_bond_atom_site_label_1
_geom_bond_atom_site_label_2
_geom_bond_site_symmetry_1
_geom_bond_site_symmetry_2
Zn1 N1 1_555 1_555
Zn2 N2 1_555 1_555
C1 C2 1_555 1_555
C2 C3 1_555 1_555
C3 C4 1_555 1_555
C4 O2 1_555 1_555
C5 C3 1_555 1_555
C6 C5 1_555 1_555
H1 C6 1_555 1_555
C7 C6 1_555 1_555
H2 C7 1_555 1_555
C8 C2 1_555 1_555
H3 C8 1_555 1_555
C9 H4 1_555 1_555
C10 C9 1_555 1_555
H5 C10 1_555 1_555
C11 C10 1_555 1_555
C12 C11 1_555 1_555
H6 C12 1_555 1_555
C13 C12 1_555 1_555
H7 C13 1_555 1_555
C14 C17 1_555 1_555
C15 C16 1_555 1_555
C16 C17 1_555 1_555
C17 C18 1_555 1_555
C18 H8 1_555 1_555
C19 C18 1_555 1_555
H9 C19 1_555 1_555
C20 C19 1_555 1_555
H10 C20 1_555 1_555
C21 C16 1_555 1_555
C22 H11 1_555 1_555
C23 C22 1_555 1_555
H12 C23 1_555 1_555
C24 C23 1_555 1_555
C25 C24 1_555 1_555
H13 C25 1_555 1_555
C26 C25 1_555 1_555
H14 C26 1_555 1_555
C27 H15 1_555 1_555
C28 C27 1_555 1_555
H16 C28 1_555 1_555
C29 C28 1_555 1_555
C30 C29 1_555 1_555
H17 C30 1_555 1_555
C31 C30 1_555 1_555
H18 C31 1_555 1_555
C32 C29 1_555 1_555
H19 C32 1_555 1_555
H20 C32 1_555 1_555
C33 C32 1_555 1_555
H21 C33 1_555 1_555
H22 C33 1_555 1_555
C34 C33 1_555 1_555
H23 C34 1_555 1_555
H24 C34 1_555 1_555
C35 C34 1_555 1_555
C36 C35 1_555 1_555
H25 C36 1_555 1_555
C37 C36 1_555 1_555
H26 C37 1_555 1_555
C38 H27 1_555 1_555
C39 C35 1_555 1_555
H28 C39 1_555 1_555
H29 O5 1_555 1_555
H30 O6 1_555 1_555
H31 O5 1_555 1_555
H32 O6 1_555 1_555
N1 C37 1_555 1_555
N2 C27 1_555 1_555
N3 C5 1_555 1_555
N4 C21 1_555 1_555
O1 Zn2 1_555 1_555
O2 Zn2A 1_555 1_555
O3 Zn1 1_555 1_555
O4 C14 1_555 1_555
O5 Zn1 1_555 1_555
O6 Zn2 1_555 1_555
O7 C4 1_555 1_555
O8 C1 1_555 1_555
O9 C15 1_555 1_555
O10 C14 1_555 1_555
O11 C24 1_555 1_555
O12 C11 1_555 1_555
O13 H33 1_555 1_555
H34 O13 1_555 1_555
Zn1A O4 1_555 1_555
Zn2A O7 1_555 1_555
O2A Zn2 1_555 1_555
O4A Zn1 1_555 1_555
O7A Zn2 1_555 1_555
O10A Zn1 1_555 1_555
C1 O1 1_555 1_555
C7 C8 1_555 1_555
C9 N3 1_555 1_555
C13 N3 1_555 1_555
C15 O3 1_555 1_555
C20 C21 1_555 1_555
C22 N4 1_555 1_555
C26 N4 1_555 1_555
C31 N2 1_555 1_555
C38 C39 1_555 1_555
C38 N1 1_555 1_555
O10 Zn1A 1_555 1_555

#END
