
#######################################################################
#
#                 Cambridge Crystallographic Data Centre
#                                CCDC 
#
#######################################################################
#
# If this CIF has been generated from an entry in the Cambridge 
# Structural Database, then it will include bibliographic, chemical, 
# crystal, experimental, refinement or atomic coordinate data resulting 
# from the CCDC's data processing and validation procedures.
#
#######################################################################

data_JOHRAA
_symmetry_cell_setting           triclinic
_symmetry_space_group_name_H-M   'P -1'
_symmetry_Int_Tables_number      2
_space_group_name_Hall           '-P 1'
loop_
_symmetry_equiv_pos_site_id
_symmetry_equiv_pos_as_xyz
1 x,y,z
2 -x,-y,-z
_cell_length_a                   7.6542(7)
_cell_length_b                   8.9027(8)
_cell_length_c                   9.7445(9)
_cell_angle_alpha                116.1160(10)
_cell_angle_beta                 98.4080(10)
_cell_angle_gamma                90.3350(10)
_cell_volume                     587.973
loop_
_atom_site_label
_atom_site_type_symbol
_atom_site_fract_x
_atom_site_fract_y
_atom_site_fract_z
Cd1 Cd 0.5000 0.5000 0.5000
Cu1 Cu 1.0000 0.5000 1.0000
N1 N 0.9662(3) 0.2530(3) 0.8549(3)
N2 N 0.8773(4) -0.0698(3) 0.6218(3)
O1 O 0.8287(3) 0.5156(3) 0.8352(2)
O2 O 0.6721(3) 0.3530(3) 0.6011(3)
O6 O 0.2572(4) 0.4121(4) 0.5611(3)
O7 O 0.4436(5) 0.2803(4) 0.2635(4)
O8 O 1.2514(4) 0.4996(4) 0.8690(3)
C1 C 0.8507(4) 0.2236(4) 0.7261(3)
C2 C 0.8069(4) 0.0621(4) 0.6113(3)
H1 H 0.7256 0.0446 0.5238
C3 C 0.9945(4) -0.0413(4) 0.7480(4)
C4 C 1.0383(4) 0.1222(4) 0.8658(3)
H2 H 1.1195 0.1398 0.9534
C5 C 0.7774(4) 0.3763(4) 0.7187(3)
C6 C 1.0771(5) -0.1891(4) 0.7584(4)
H3 H 0.9865 -0.2648 0.7572
H4 H 1.1604 -0.1511 0.8529
H5 H 1.1372 -0.2459 0.6717
H6 H 0.249(9) 0.311(7) 0.517(7)
H7 H 0.250(7) 0.443(7) 0.660(6)
H8 H 0.470(6) 0.195(5) 0.244(5)
H9 H 0.422(8) 0.284(8) 0.183(6)
H10 H 1.313(7) 0.578(6) 0.916(6)
H11 H 1.304(7) 0.422(7) 0.884(6)
Cu1_2 Cu 0.0000 0.5000 0.0000
N1A N 0.0338(3) 0.7470(3) 0.1451(3)
N1A_2 N 1.0338(3) 0.7470(3) 1.1451(3)
N2A N 0.1227(4) 1.0698(3) 0.3782(3)
O1A O 0.1713(3) 0.4844(3) 0.1648(2)
O1A_2 O 1.1713(3) 0.4844(3) 1.1648(2)
O2A O 0.3279(3) 0.6470(3) 0.3989(3)
O6A O 0.7428(4) 0.5879(4) 0.4389(3)
O7A O 0.5564(5) 0.7197(4) 0.7365(4)
O8A O 0.7486(4) 0.5004(4) 1.1310(3)
C1A C 0.1493(4) 0.7764(4) 0.2739(3)
C2A C 0.1931(4) 0.9379(4) 0.3887(3)
H1A H 0.2744 0.9554 0.4762
C3A C 0.0055(4) 1.0413(4) 0.2520(4)
C4A C -0.0383(4) 0.8778(4) 0.1342(3)
H2A H -0.1195 0.8602 0.0466
C5A C 0.2226(4) 0.6237(4) 0.2813(3)
C6A C -0.0771(5) 1.1891(4) 0.2416(4)
H3A H 0.0135 1.2648 0.2428
H4A H -0.1604 1.1511 0.1471
H5A H -0.1372 1.2459 0.3283
H6A H 0.751(9) 0.689(7) 0.483(7)
H7A H 0.750(7) 0.557(7) 0.340(6)
H8A H 0.530(6) 0.805(5) 0.756(5)
H9A H 0.578(8) 0.716(8) 0.817(6)
H10A H 0.687(7) 0.422(6) 1.084(6)
H11A H 0.696(7) 0.578(7) 1.116(6)
N3 N 0.4939(4) 0.1351(4) 0.8626(4)
O3 O 0.4537(5) 0.2775(4) 0.9482(5)
O4 O 0.4076(5) 0.0410(5) 0.7415(4)
O5 O 0.6245(5) 0.0848(6) 0.9151(5)
loop_
_geom_bond_atom_site_label_1
_geom_bond_atom_site_label_2
_geom_bond_site_symmetry_1
_geom_bond_site_symmetry_2
Cd1 O2 1_555 1_555
Cu1 N1 1_555 1_555
N1 C1 1_555 1_555
N2 C2 1_555 1_555
N3 O3 1_555 1_555
O1 Cu1 1_555 1_555
O2 C5 1_555 1_555
O4 N3 1_555 1_555
O5 N3 1_555 1_555
O6 Cd1 1_555 1_555
O7 Cd1 1_555 1_555
O8 Cu1 1_555 1_555
C1 C2 1_555 1_555
C2 H1 1_555 1_555
C3 N2 1_555 1_555
C4 N1 1_555 1_555
H2 C4 1_555 1_555
C5 O1 1_555 1_555
C6 C3 1_555 1_555
H3 C6 1_555 1_555
H4 C6 1_555 1_555
H5 C6 1_555 1_555
H6 O6 1_555 1_555
H7 O6 1_555 1_555
H8 O7 1_555 1_555
H9 O7 1_555 1_555
H10 O8 1_555 1_555
H11 O8 1_555 1_555
Cu1_2 N1A 1_555 1_555
N1A C1A 1_555 1_555
N1A_2 Cu1 1_555 1_555
N2A C2A 1_555 1_555
O1A Cu1_2 1_555 1_555
O1A_2 Cu1 1_555 1_555
O2A Cd1 1_555 1_555
O6A Cd1 1_555 1_555
O7A Cd1 1_555 1_555
O8A Cu1 1_555 1_555
C1A C2A 1_555 1_555
C2A H1A 1_555 1_555
C3A N2A 1_555 1_555
C4A N1A 1_555 1_555
H2A C4A 1_555 1_555
C5A O1A 1_555 1_555
C6A C3A 1_555 1_555
H3A C6A 1_555 1_555
H4A C6A 1_555 1_555
H5A C6A 1_555 1_555
H6A O6A 1_555 1_555
H7A O6A 1_555 1_555
H8A O7A 1_555 1_555
H9A O7A 1_555 1_555
H10A O8A 1_555 1_555
H11A O8A 1_555 1_555
C1 C5 1_555 1_555
C3 C4 1_555 1_555
O2A C5A 1_555 1_555
C1A C5A 1_555 1_555
C3A C4A 1_555 1_555

#END
