
#######################################################################
#
#                 Cambridge Crystallographic Data Centre
#                                CCDC 
#
#######################################################################
#
# If this CIF has been generated from an entry in the Cambridge 
# Structural Database, then it will include bibliographic, chemical, 
# crystal, experimental, refinement or atomic coordinate data resulting 
# from the CCDC's data processing and validation procedures.
#
#######################################################################

data_JOHYIP
_symmetry_cell_setting           monoclinic
_symmetry_space_group_name_H-M   'P 21/n'
_symmetry_Int_Tables_number      14
_space_group_name_Hall           '-P 2yn'
loop_
_symmetry_equiv_pos_site_id
_symmetry_equiv_pos_as_xyz
1 x,y,z
2 1/2-x,1/2+y,1/2-z
3 -x,-y,-z
4 1/2+x,1/2-y,1/2+z
_cell_length_a                   15.4790(17)
_cell_length_b                   7.3940(8)
_cell_length_c                   21.154(2)
_cell_angle_alpha                90
_cell_angle_beta                 96.132(4)
_cell_angle_gamma                90
_cell_volume                     2407.26
loop_
_atom_site_label
_atom_site_type_symbol
_atom_site_fract_x
_atom_site_fract_y
_atom_site_fract_z
Ag1 Ag 0.12987(7) 0.21555(16) 0.04426(6)
O1 O 0.2335(7) -0.4574(17) 0.1063(6)
N1 N 0.2390(7) 0.0632(18) 0.0227(6)
C1 C 0.2947(10) 0.145(3) -0.0141(10)
H1 H 0.2833 0.2644 -0.0291
O2 O 0.4141(7) -1.6040(14) 0.3840(6)
N2 N 0.3564(9) -0.3637(18) 0.0629(7)
H2 H 0.4065 -0.4062 0.0534
C2 C 0.3671(13) 0.055(3) -0.0296(12)
H3 H 0.4032 0.1061 -0.0585
N3 N 0.3603(9) -0.6087(18) 0.1323(6)
H4 H 0.4160 -0.6111 0.1271
C3 C 0.3862(9) -0.113(3) -0.0018(9)
H5 H 0.4377 -0.1747 -0.0100
N4 N 0.4694(9) -1.4809(17) 0.2973(6)
H6 H 0.5128 -1.4840 0.2736
C4 C 0.3308(10) -0.192(2) 0.0376(8)
N5 N 0.5388(9) -1.7232(19) 0.3528(7)
H7 H 0.5841 -1.6937 0.3331
C5 C 0.2565(10) -0.103(2) 0.0470(7)
H8 H 0.2157 -0.1596 0.0711
N6 N 0.4819(8) -2.1367(16) 0.4350(5)
C6 C 0.3093(12) -0.473(2) 0.1015(7)
C7 C 0.3269(11) -0.7482(19) 0.1729(8)
H9 H 0.2733 -0.8017 0.1508
H10 H 0.3121 -0.6924 0.2129
C8 C 0.3930(10) -0.893(2) 0.1877(7)
H11 H 0.4458 -0.8387 0.2108
H12 H 0.4094 -0.9439 0.1474
C9 C 0.3614(10) -1.0457(19) 0.2278(7)
H13 H 0.3101 -1.1041 0.2043
H14 H 0.3435 -0.9955 0.2677
C10 C 0.4328(11) -1.187(2) 0.2434(8)
H15 H 0.4518 -1.2341 0.2033
H16 H 0.4834 -1.1289 0.2677
C11 C 0.4020(10) -1.347(2) 0.2824(7)
H17 H 0.3829 -1.3000 0.3225
H18 H 0.3514 -1.4052 0.2580
C12 C 0.4697(11) -1.6035(19) 0.3462(8)
C13 C 0.5455(9) -1.8839(19) 0.3866(7)
C14 C 0.6264(10) -1.969(2) 0.3995(8)
H19 H 0.6770 -1.9106 0.3877
C15 C 0.6335(10) -2.132(3) 0.4287(8)
H20 H 0.6887 -2.1890 0.4364
C16 C 0.5617(11) -2.215(2) 0.4471(7)
H21 H 0.5672 -2.3285 0.4683
C17 C 0.4755(9) -1.9731(18) 0.4059(7)
H22 H 0.4199 -1.9180 0.3985
Ag1A Ag 0.37013(7) -2.28445(16) 0.45574(6)
N6A N 0.0181(8) 0.3633(16) 0.0650(5)
F1 F 0.6701(7) -0.5362(18) 0.1084(6)
B1 B 0.578(3) -0.530(7) 0.118(2)
F2 F 0.5409(16) -0.365(4) 0.1051(17)
F3 F 0.574(3) -0.556(7) 0.1885(17)
F4 F 0.5248(16) -0.665(5) 0.0949(18)
O3 O 0.6968(12) -0.625(3) 0.3063(10)
C18 C 0.735(4) -0.756(8) 0.264(3)
H23 H 0.6954 -0.7791 0.2246
H24 H 0.7503 -0.8715 0.2854
C19 C 0.816(3) -0.654(9) 0.249(3)
H25 H 0.8645 -0.7402 0.2483
H26 H 0.8048 -0.5998 0.2058
F5? F 0.5498(16) -0.444(4) 0.0655(13)
F6? F 0.561(3) -0.586(7) 0.163(2)
F7? F 0.625(2) -0.302(4) 0.1615(14)
C20? C 0.841(3) -0.509(7) 0.295(2)
H27? H 0.8699 -0.4071 0.2752
H28? H 0.8802 -0.5549 0.3318
C21? C 0.749(3) -0.453(6) 0.315(3)
H29? H 0.7539 -0.4121 0.3598
H30? H 0.7228 -0.3556 0.2873
B2? B 0.601(4) -0.463(9) 0.131(3)
loop_
_geom_bond_atom_site_label_1
_geom_bond_atom_site_label_2
_geom_bond_site_symmetry_1
_geom_bond_site_symmetry_2
Ag1 N1 1_555 1_555
F1 B1 1_555 1_555
O1 C6 1_555 1_555
N1 C1 1_555 1_555
C1 H1 1_555 1_555
B1 F2 1_555 1_555
O2 C12 1_555 1_555
N2 H2 1_555 1_555
C2 C1 1_555 1_555
H3 C2 1_555 1_555
F3 B1 1_555 1_555
N3 H4 1_555 1_555
C3 C2 1_555 1_555
H5 C3 1_555 1_555
F4 B1 1_555 1_555
N4 H6 1_555 1_555
C4 N2 1_555 1_555
N5 H7 1_555 1_555
C5 N1 1_555 1_555
H8 C5 1_555 1_555
N6 C16 1_555 1_555
C6 N2 1_555 1_555
C7 N3 1_555 1_555
H9 C7 1_555 1_555
H10 C7 1_555 1_555
C8 C7 1_555 1_555
H11 C8 1_555 1_555
H12 C8 1_555 1_555
C9 C8 1_555 1_555
H13 C9 1_555 1_555
H14 C9 1_555 1_555
C10 C9 1_555 1_555
H15 C10 1_555 1_555
H16 C10 1_555 1_555
C11 N4 1_555 1_555
H17 C11 1_555 1_555
H18 C11 1_555 1_555
C12 N4 1_555 1_555
C13 N5 1_555 1_555
C14 C13 1_555 1_555
H19 C14 1_555 1_555
C15 C14 1_555 1_555
H20 C15 1_555 1_555
C16 C15 1_555 1_555
H21 C16 1_555 1_555
C17 N6 1_555 1_555
H22 C17 1_555 1_555
O3 C18 1_555 1_555
C18 H23 1_555 1_555
H24 C18 1_555 1_555
C19 C18 1_555 1_555
H25 C19 1_555 1_555
H26 C19 1_555 1_555
Ag1A N6 1_555 1_555
N6A Ag1 1_555 1_555
N3 C6 1_555 1_555
C3 C4 1_555 1_555
C4 C5 1_555 1_555
N5 C12 1_555 1_555
C10 C11 1_555 1_555
C13 C17 1_555 1_555

#END
