
#######################################################################
#
#                 Cambridge Crystallographic Data Centre
#                                CCDC 
#
#######################################################################
#
# If this CIF has been generated from an entry in the Cambridge 
# Structural Database, then it will include bibliographic, chemical, 
# crystal, experimental, refinement or atomic coordinate data resulting 
# from the CCDC's data processing and validation procedures.
#
#######################################################################

data_JOHYOV
_symmetry_cell_setting           orthorhombic
_symmetry_space_group_name_H-M   'P n a 21'
_symmetry_Int_Tables_number      33
_space_group_name_Hall           'P 2c -2n'
loop_
_symmetry_equiv_pos_site_id
_symmetry_equiv_pos_as_xyz
1 x,y,z
2 -x,-y,1/2+z
3 1/2-x,1/2+y,1/2+z
4 1/2+x,1/2-y,z
_cell_length_a                   34.975(3)
_cell_length_b                   12.5607(11)
_cell_length_c                   5.7537(5)
_cell_angle_alpha                90
_cell_angle_beta                 90
_cell_angle_gamma                90
_cell_volume                     2527.66
loop_
_atom_site_label
_atom_site_type_symbol
_atom_site_fract_x
_atom_site_fract_y
_atom_site_fract_z
Ag1 Ag 0.130313(7) 0.59275(2) 0.14403(8)
O1 O 0.04410(7) 0.2256(2) -0.6907(5)
N1 N 0.08930(8) 0.5072(2) -0.0673(5)
C1 C 0.05298(10) 0.4950(3) 0.0054(7)
H1 H 0.0447 0.5324 0.1399
O2 O 0.13640(7) -0.2181(2) -2.0732(5)
N2 N 0.09246(8) 0.3386(2) -0.5778(5)
H2 H 0.1155 0.3604 -0.6172
C2 C 0.02727(10) 0.4297(3) -0.1097(7)
H3 H 0.0019 0.4220 -0.0526
N3 N 0.10111(8) 0.2249(2) -0.8775(7)
H4 H 0.1243 0.2518 -0.8800
C3 C 0.03859(10) 0.3757(3) -0.3087(6)
H5 H 0.0212 0.3317 -0.3915
N4 N 0.17289(7) -0.1121(2) -1.8474(8)
H6 H 0.1955 -0.0834 -1.8226
C4 C 0.07629(9) 0.3881(3) -0.3832(8)
N5 N 0.20165(8) -0.2140(2) -2.1240(5)
H7 H 0.2229 -0.1891 -2.0633
C5 C 0.10030(10) 0.4548(3) -0.2583(6)
H8 H 0.1258 0.4637 -0.3110
N6 N 0.18048(9) -0.3746(3) -2.6412(6)
C6 C 0.07676(10) 0.2593(3) -0.7165(6)
C7 C 0.09099(11) 0.1448(3) -1.0495(7)
H10 H 0.0704 0.1722 -1.1510
H11 H 0.0815 0.0799 -0.9705
N8 N 0.07635(11) 0.6721(3) 0.4166(7)
C8 C 0.12609(10) 0.1177(3) -1.1957(7)
H12 H 0.1351 0.1826 -1.2767
H13 H 0.1469 0.0928 -1.0926
C9 C 0.11704(9) 0.0318(3) -1.3740(9)
H14 H 0.0957 0.0564 -1.4735
H15 H 0.1084 -0.0331 -1.2917
C10 C 0.15119(10) 0.0036(3) -1.5284(6)
H16 H 0.1599 0.0680 -1.6122
H17 H 0.1726 -0.0221 -1.4306
C11 C 0.14014(12) -0.0819(3) -1.7024(7)
H18 H 0.1306 -0.1454 -1.6182
H19 H 0.1192 -0.0552 -1.8027
C12 C 0.16825(10) -0.1833(3) -2.0169(6)
C13 C 0.20576(10) -0.2803(3) -2.3189(7)
C14 C 0.24235(9) -0.3094(3) -2.3846(8)
H20 H 0.2638 -0.2876 -2.2952
C15 C 0.24729(11) -0.3705(3) -2.5815(7)
H21 H 0.2722 -0.3909 -2.6295
C16 C 0.21567(12) -0.4017(3) -2.7083(7)
H22 H 0.2190 -0.4431 -2.8451
C17 C 0.17516(10) -0.3168(3) -2.4511(7)
H23 H 0.1498 -0.2999 -2.4041
C18 C 0.06414(12) 0.7207(4) 0.5647(9)
C19 C 0.04890(15) 0.7840(5) 0.7593(12)
H24 H 0.0245 0.7537 0.8103
H25 H 0.0449 0.8577 0.7085
H26 H 0.0671 0.7828 0.8886
Ag1_2 Ag 0.130313(7) -0.40725(2) -2.85597(8)
N6_2 N 0.18048(9) 0.6254(3) 0.3588(6)
O3 O 0.19032(8) 0.4279(3) -0.1795(5)
O4 O 0.25119(8) 0.4283(2) -0.1180(6)
O5 O 0.22831(9) 0.3649(3) -0.4404(5)
N7 N 0.22329(11) 0.4076(3) -0.2438(7)
O6 O 0.16905(8) 0.3458(3) -0.7477(6)
H27 H 0.1777(14) 0.384(4) -0.858(12)
H28 H 0.1860(16) 0.361(4) -0.620(10)
O7 O 0.0166(3) 0.0190(7) -0.587(3)
H9? H 0.1606 -0.3953 -0.7237
O8? O 0.0138(7) -0.031(2) -0.707(5)
loop_
_geom_bond_atom_site_label_1
_geom_bond_atom_site_label_2
_geom_bond_site_symmetry_1
_geom_bond_site_symmetry_2
Ag1 N1 1_555 1_555
O1 C6 1_555 1_555
N1 C1 1_555 1_555
C1 H1 1_555 1_555
O2 C12 1_555 1_555
N2 H2 1_555 1_555
C2 C1 1_555 1_555
H3 C2 1_555 1_555
O3 N7 1_555 1_555
N3 H4 1_555 1_555
C3 C2 1_555 1_555
H5 C3 1_555 1_555
O4 N7 1_555 1_555
N4 H6 1_555 1_555
C4 N2 1_555 1_555
O5 N7 1_555 1_555
N5 H7 1_555 1_555
C5 N1 1_555 1_555
H8 C5 1_555 1_555
O6 H27 1_555 1_555
N6 C16 1_555 1_555
C6 N2 1_555 1_555
C7 N3 1_555 1_555
H10 C7 1_555 1_555
H11 C7 1_555 1_555
N8 Ag1 1_555 1_555
C8 C7 1_555 1_555
H12 C8 1_555 1_555
H13 C8 1_555 1_555
C9 C8 1_555 1_555
H14 C9 1_555 1_555
H15 C9 1_555 1_555
C10 C9 1_555 1_555
H16 C10 1_555 1_555
H17 C10 1_555 1_555
C11 N4 1_555 1_555
H18 C11 1_555 1_555
H19 C11 1_555 1_555
C12 N4 1_555 1_555
C13 N5 1_555 1_555
C14 C13 1_555 1_555
H20 C14 1_555 1_555
C15 C14 1_555 1_555
H21 C15 1_555 1_555
C16 C15 1_555 1_555
H22 C16 1_555 1_555
C17 N6 1_555 1_555
H23 C17 1_555 1_555
C18 N8 1_555 1_555
C19 C18 1_555 1_555
H24 C19 1_555 1_555
H25 C19 1_555 1_555
H26 C19 1_555 1_555
H28 O6 1_555 1_555
Ag1_2 N6 1_555 1_555
N6_2 Ag1 1_555 1_555
N3 C6 1_555 1_555
C3 C4 1_555 1_555
C4 C5 1_555 1_555
N5 C12 1_555 1_555
C10 C11 1_555 1_555
C13 C17 1_555 1_555

#END
