
#######################################################################
#
#                 Cambridge Crystallographic Data Centre
#                                CCDC 
#
#######################################################################
#
# If this CIF has been generated from an entry in the Cambridge 
# Structural Database, then it will include bibliographic, chemical, 
# crystal, experimental, refinement or atomic coordinate data resulting 
# from the CCDC's data processing and validation procedures.
#
#######################################################################

data_JOJBUH
_symmetry_cell_setting           monoclinic
_symmetry_space_group_name_H-M   'P 21/c'
_symmetry_Int_Tables_number      14
_space_group_name_Hall           '-P 2ybc'
loop_
_symmetry_equiv_pos_site_id
_symmetry_equiv_pos_as_xyz
1 x,y,z
2 -x,1/2+y,1/2-z
3 -x,-y,-z
4 x,1/2-y,1/2+z
_cell_length_a                   12.3898(2)
_cell_length_b                   8.0417(1)
_cell_length_c                   19.3665(4)
_cell_angle_alpha                90
_cell_angle_beta                 108.163(1)
_cell_angle_gamma                90
_cell_volume                     1833.44
loop_
_atom_site_label
_atom_site_type_symbol
_atom_site_fract_x
_atom_site_fract_y
_atom_site_fract_z
C1 C 0.1931(4) -0.2496(4) 0.6856(2)
C2 C 0.2586(5) -0.3904(5) 0.6894(3)
C3 C 0.3629(5) -0.3980(6) 0.7394(3)
C4 C 0.4014(4) -0.2648(6) 0.7851(3)
C5 C 0.3329(3) -0.1263(5) 0.7798(2)
C6 C 0.3649(3) 0.0225(5) 0.82677(19)
C7 C 0.4664(4) 0.0426(9) 0.8822(3)
C8 C 0.4855(4) 0.1866(10) 0.9214(3)
C9 C 0.4066(4) 0.3106(8) 0.9051(3)
C10 C 0.3071(3) 0.2840(5) 0.8506(2)
C11 C -0.0143(3) 0.3397(3) 0.68572(15)
C12 C -0.0524(2) 0.2160(3) 0.62301(15)
C13 C -0.0606(4) 0.2999(5) 0.54973(19)
C14 C -0.1876(4) 0.3116(5) 0.5320(2)
C15 C -0.1821(3) 0.1914(5) 0.5935(2)
N1 N 0.2295(2) -0.1203(3) 0.73012(16)
N2 N 0.2859(2) 0.1435(4) 0.81216(15)
N3 N 0.0194(3) 0.0656(3) 0.64125(16)
H1 H 0.0486 0.0442 0.6051
H2 H -0.0239 -0.0218 0.6449
O1 O 0.0736(2) 0.3044(3) 0.73789(12)
O2 O -0.0699(2) 0.4689(3) 0.68284(12)
Cu1 Cu 0.14374(3) 0.09060(4) 0.73271(2)
H3 H 0.113(3) -0.246(4) 0.650(2)
H4 H 0.225(3) -0.478(5) 0.661(2)
H5 H 0.416(3) -0.489(5) 0.747(2)
H6 H 0.465(3) -0.268(5) 0.812(2)
H7 H 0.510(4) -0.038(5) 0.889(2)
H8 H 0.548(3) 0.193(5) 0.950(2)
H9 H 0.418(3) 0.402(5) 0.933(2)
H10 H 0.254(3) 0.365(5) 0.838(2)
H11 H -0.042(3) 0.230(5) 0.522(2)
H12 H -0.014(3) 0.393(5) 0.556(2)
H13 H -0.236(3) 0.273(5) 0.483(2)
H14 H -0.213(3) 0.416(5) 0.542(2)
H15 H -0.203(3) 0.069(5) 0.577(2)
H16 H -0.217(3) 0.216(5) 0.624(2)
O2A O 0.0699(2) -0.0311(3) 0.81716(12)
Cu1A Cu -0.14374(3) 0.59060(4) 0.76729(2)
O3 O 0.1858(3) 0.0544(4) 0.55382(18)
O4 O 0.2873(5) 0.2871(7) 0.5422(2)
O5 O 0.2968(4) 0.2011(4) 0.65625(17)
O6 O 0.3781(4) 0.0511(9) 0.5865(4)
Cl1 Cl 0.28699(7) 0.14784(12) 0.58535(5)
O7 O -0.0787(3) 0.7422(4) 0.59152(17)
H17 H -0.066(4) 0.655(6) 0.616(2)
H18 H -0.126(4) 0.735(6) 0.557(3)
loop_
_geom_bond_atom_site_label_1
_geom_bond_atom_site_label_2
_geom_bond_site_symmetry_1
_geom_bond_site_symmetry_2
C1 C2 1_555 1_555
C2 C3 1_555 1_555
C3 C4 1_555 1_555
C4 C5 1_555 1_555
C5 C6 1_555 1_555
C6 C7 1_555 1_555
C7 C8 1_555 1_555
C8 C9 1_555 1_555
C9 C10 1_555 1_555
C10 N2 1_555 1_555
C11 C12 1_555 1_555
C12 C13 1_555 1_555
C13 C14 1_555 1_555
C14 C15 1_555 1_555
C15 C12 1_555 1_555
N1 C1 1_555 1_555
N2 C6 1_555 1_555
N3 C12 1_555 1_555
H1 N3 1_555 1_555
H2 N3 1_555 1_555
O1 C11 1_555 1_555
O2 C11 1_555 1_555
Cu1 N1 1_555 1_555
H3 C1 1_555 1_555
H4 C2 1_555 1_555
H5 C3 1_555 1_555
H6 C4 1_555 1_555
H7 C7 1_555 1_555
H8 C8 1_555 1_555
H9 C9 1_555 1_555
H10 C10 1_555 1_555
H11 C13 1_555 1_555
H12 C13 1_555 1_555
H13 C14 1_555 1_555
H14 C14 1_555 1_555
H15 C15 1_555 1_555
H16 C15 1_555 1_555
O3 Cl1 1_555 1_555
O4 Cl1 1_555 1_555
O5 Cl1 1_555 1_555
O6 Cl1 1_555 1_555
O7 H17 1_555 1_555
H18 O7 1_555 1_555
O2A Cu1 1_555 1_555
Cu1A O2 1_555 1_555
C5 N1 1_555 1_555
N2 Cu1 1_555 1_555
N3 Cu1 1_555 1_555
O1 Cu1 1_555 1_555

#END
