
#######################################################################
#
#                 Cambridge Crystallographic Data Centre
#                                CCDC 
#
#######################################################################
#
# If this CIF has been generated from an entry in the Cambridge 
# Structural Database, then it will include bibliographic, chemical, 
# crystal, experimental, refinement or atomic coordinate data resulting 
# from the CCDC's data processing and validation procedures.
#
#######################################################################

data_JOJBOB
_symmetry_cell_setting           monoclinic
_symmetry_space_group_name_H-M   'P 21/n'
_symmetry_Int_Tables_number      14
_space_group_name_Hall           '-P 2yn'
loop_
_symmetry_equiv_pos_site_id
_symmetry_equiv_pos_as_xyz
1 x,y,z
2 1/2-x,1/2+y,1/2-z
3 -x,-y,-z
4 1/2+x,1/2-y,1/2+z
_cell_length_a                   8.956(8)
_cell_length_b                   14.886(12)
_cell_length_c                   26.49(2)
_cell_angle_alpha                90
_cell_angle_beta                 97.596(17)
_cell_angle_gamma                90
_cell_volume                     3500.63
loop_
_atom_site_label
_atom_site_type_symbol
_atom_site_fract_x
_atom_site_fract_y
_atom_site_fract_z
Zn1 Zn 1.22243(6) 0.41347(4) 1.06170(2)
Zn2 Zn 0.04779(6) -0.05415(4) 1.10982(2)
Zn3 Zn 0.51311(6) 0.23749(4) 0.75453(2)
N1 N 1.0231(4) 0.3588(2) 1.06430(15)
N2 N 0.8094(4) 0.2881(2) 1.05210(14)
N3 N 0.2456(4) 0.0030(2) 1.10259(15)
N4 N 0.4208(4) 0.0735(2) 1.06932(14)
N5 N 0.4622(4) 0.2327(2) 0.82549(15)
N6 N 0.4675(4) 0.2029(2) 0.90611(14)
N7 N 1.2702(4) 0.4099(3) 0.99057(15)
N8 N 1.2765(4) 0.4240(2) 0.90967(14)
N9 N 1.4966(4) 0.5526(2) 0.68067(15)
N10 N 1.3799(4) 0.5237(2) 0.74557(14)
N11 N 0.6959(4) 0.3115(3) 0.74740(15)
N12 N 0.9247(4) 0.3627(2) 0.75981(14)
Cl1 Cl 1.20466(13) 0.55728(8) 1.08639(6)
Cl2 Cl 1.40855(14) 0.34217(9) 1.10825(5)
Cl3 Cl -0.13132(15) 0.01967(9) 1.06191(6)
Cl4 Cl 0.06056(14) -0.20161(8) 1.09366(5)
Cl5 Cl 0.30393(14) 0.27580(8) 0.70538(5)
Cl6 Cl 0.59249(15) 0.10065(9) 0.73854(5)
C1 C 0.9372(5) 0.3060(3) 1.03338(18)
H1 H 0.9620 0.2840 1.0027
C2 C 0.9458(5) 0.3745(3) 1.10431(19)
H2 H 0.9800 0.4096 1.1326
C3 C 0.8145(5) 0.3322(3) 1.09695(18)
H3 H 0.7403 0.3327 1.1184
C4 C 0.6883(5) 0.2342(3) 1.02918(18)
C5 C 0.6159(5) 0.1801(3) 1.05989(18)
H4 H 0.6477 0.1767 1.0947
C6 C 0.4951(5) 0.1311(3) 1.03773(18)
C7 C 0.4479(5) 0.1352(3) 0.98694(18)
H5 H 0.3678 0.1001 0.9722
C8 C 0.5205(5) 0.1916(3) 0.95822(17)
C9 C 0.6426(5) 0.2412(3) 0.97907(18)
H6 H 0.6925 0.2789 0.9588
C10 C 0.2748(5) 0.0557(3) 1.06540(18)
H7 H 0.2029 0.0775 1.0398
C11 C 0.3807(5) -0.0131(3) 1.13109(18)
H8 H 0.3949 -0.0482 1.1604
C12 C 0.4897(5) 0.0290(3) 1.11072(18)
H9 H 0.5922 0.0281 1.1225
C13 C 0.5477(5) 0.2275(3) 0.86962(18)
H10 H 0.6505 0.2394 0.8747
C14 C 0.3214(5) 0.2102(3) 0.8351(2)
H11 H 0.2364 0.2083 0.8108
C15 C 0.3229(5) 0.1913(3) 0.88424(19)
H12 H 0.2414 0.1736 0.9003
C16 C 1.1897(5) 0.4193(3) 0.94617(18)
H13 H 1.0850 0.4222 0.9409
C17 C 1.4151(5) 0.4085(3) 0.98153(18)
H14 H 1.4980 0.4026 1.0065
C18 C 1.4224(5) 0.4165(3) 0.93261(18)
H15 H 1.5090 0.4171 0.9167
C19 C 1.2311(5) 0.4325(3) 0.85694(17)
C20 C 1.3245(5) 0.4762(3) 0.82827(18)
H16 H 1.4135 0.5024 0.8435
C21 C 1.2844(5) 0.4804(3) 0.77686(19)
C22 C 1.1500(5) 0.4459(3) 0.75376(18)
H17 H 1.1210 0.4518 0.7189
C23 C 1.0605(5) 0.4024(3) 0.78410(18)
C24 C 1.0990(5) 0.3941(3) 0.83541(17)
H18 H 1.0375 0.3633 0.8552
C25 C 1.4012(5) 0.4985(3) 0.69865(18)
H19 H 1.3549 0.4495 0.6813
C26 C 1.5372(5) 0.6141(3) 0.71828(19)
H20 H 1.6046 0.6610 0.7161
C27 C 1.4668(5) 0.5973(3) 0.75833(19)
H21 H 1.4752 0.6291 0.7888
C28 C 0.7951(5) 0.3533(3) 0.77921(19)
H22 H 0.7783 0.3740 0.8111
C29 C 0.7659(5) 0.2933(3) 0.70510(19)
H23 H 0.7218 0.2637 0.6760
C30 C 0.9061(5) 0.3245(3) 0.71250(18)
H24 H 0.9772 0.3210 0.6900
Zn2C Zn 1.54779(6) 0.55415(4) 0.60982(2)
N9C N -0.0034(4) -0.0526(2) 1.18067(15)
loop_
_geom_bond_atom_site_label_1
_geom_bond_atom_site_label_2
_geom_bond_site_symmetry_1
_geom_bond_site_symmetry_2
Zn1 N1 1_555 1_555
Zn2 N3 1_555 1_555
Zn3 N5 1_555 1_555
N1 C1 1_555 1_555
N2 C1 1_555 1_555
N3 C10 1_555 1_555
N4 C6 1_555 1_555
N5 C13 1_555 1_555
N6 C8 1_555 1_555
N7 Zn1 1_555 1_555
N8 C16 1_555 1_555
N9 C25 1_555 1_555
N10 C21 1_555 1_555
N11 Zn3 1_555 1_555
N12 C23 1_555 1_555
Cl1 Zn1 1_555 1_555
Cl2 Zn1 1_555 1_555
Cl3 Zn2 1_555 1_555
Cl4 Zn2 1_555 1_555
Cl5 Zn3 1_555 1_555
Cl6 Zn3 1_555 1_555
C1 H1 1_555 1_555
C2 N1 1_555 1_555
H2 C2 1_555 1_555
C3 N2 1_555 1_555
H3 C3 1_555 1_555
C4 N2 1_555 1_555
C5 C4 1_555 1_555
H4 C5 1_555 1_555
C6 C5 1_555 1_555
C7 C6 1_555 1_555
H5 C7 1_555 1_555
C8 C7 1_555 1_555
C9 C4 1_555 1_555
H6 C9 1_555 1_555
C10 N4 1_555 1_555
H7 C10 1_555 1_555
C11 N3 1_555 1_555
H8 C11 1_555 1_555
C12 N4 1_555 1_555
H9 C12 1_555 1_555
C13 N6 1_555 1_555
H10 C13 1_555 1_555
C14 N5 1_555 1_555
H11 C14 1_555 1_555
C15 N6 1_555 1_555
H12 C15 1_555 1_555
C16 N7 1_555 1_555
H13 C16 1_555 1_555
C17 N7 1_555 1_555
H14 C17 1_555 1_555
C18 N8 1_555 1_555
H15 C18 1_555 1_555
C19 N8 1_555 1_555
C20 C19 1_555 1_555
H16 C20 1_555 1_555
C21 C20 1_555 1_555
C22 C21 1_555 1_555
H17 C22 1_555 1_555
C23 C22 1_555 1_555
C24 C19 1_555 1_555
H18 C24 1_555 1_555
C25 N10 1_555 1_555
H19 C25 1_555 1_555
C26 N9 1_555 1_555
H20 C26 1_555 1_555
C27 N10 1_555 1_555
H21 C27 1_555 1_555
C28 N11 1_555 1_555
H22 C28 1_555 1_555
C29 N11 1_555 1_555
H23 C29 1_555 1_555
C30 N12 1_555 1_555
H24 C30 1_555 1_555
Zn2C N9 1_555 1_555
N9C Zn2 1_555 1_555
N12 C28 1_555 1_555
C2 C3 1_555 1_555
C8 C9 1_555 1_555
C11 C12 1_555 1_555
C14 C15 1_555 1_555
C17 C18 1_555 1_555
C23 C24 1_555 1_555
C26 C27 1_555 1_555
C29 C30 1_555 1_555

#END
