
#######################################################################
#
#                 Cambridge Crystallographic Data Centre
#                                CCDC 
#
#######################################################################
#
# If this CIF has been generated from an entry in the Cambridge 
# Structural Database, then it will include bibliographic, chemical, 
# crystal, experimental, refinement or atomic coordinate data resulting 
# from the CCDC's data processing and validation procedures.
#
#######################################################################

data_JOJCAO
_symmetry_cell_setting           orthorhombic
_symmetry_space_group_name_H-M   'P n a 21'
_symmetry_Int_Tables_number      33
_space_group_name_Hall           'P 2c -2n'
loop_
_symmetry_equiv_pos_site_id
_symmetry_equiv_pos_as_xyz
1 x,y,z
2 -x,-y,1/2+z
3 1/2-x,1/2+y,1/2+z
4 1/2+x,1/2-y,z
_cell_length_a                   23.8007(8)
_cell_length_b                   10.3423(3)
_cell_length_c                   8.2427(3)
_cell_angle_alpha                90
_cell_angle_beta                 90
_cell_angle_gamma                90
_cell_volume                     2028.97
loop_
_atom_site_label
_atom_site_type_symbol
_atom_site_fract_x
_atom_site_fract_y
_atom_site_fract_z
C1 C 0.0810(3) 0.1827(7) 0.6382(9)
H1 H 0.0433 0.2067 0.6412
C2 C 0.1115(3) 0.2050(7) 0.4973(10)
H2 H 0.0943 0.2399 0.406
C3 C 0.1675(3) 0.1746(8) 0.4955(10)
H3 H 0.1893 0.1919 0.4045
C4 C 0.1910(3) 0.1175(8) 0.6319(11)
H4 H 0.2288 0.0941 0.6317
C5 C 0.1585(3) 0.0956(7) 0.7681(10)
C6 C 0.1781(3) 0.0344(7) 0.9187(9)
C7 C 0.2346(3) -0.0008(8) 0.9475(12)
H5 H 0.2622 0.0134 0.8695
C8 C 0.2476(3) -0.0565(9) 1.0932(12)
H6 H 0.2845 -0.0812 1.1139
C9 C 0.2072(3) -0.0765(8) 1.2095(11)
H7 H 0.216 -0.1128 1.3096
C10 C 0.1530(3) -0.0407(8) 1.1716(10)
H8 H 0.1249 -0.0556 1.2477
C11 C -0.0102(3) 0.1166(6) 1.2318(8)
C12 C -0.0342(3) 0.2100(6) 1.1058(8)
C13 C -0.0989(3) 0.1991(7) 1.1009(9)
H9 H -0.1091 0.1139 1.0613
H10 H -0.1134 0.2073 1.2104
C14 C -0.1265(3) 0.2996(7) 0.9951(12)
H11 H -0.167 0.2914 1.0035
H12 H -0.1161 0.2848 0.8829
C15 C -0.1092(4) 0.4355(8) 1.0441(13)
H13 H -0.1239 0.4549 1.1512
H14 H -0.1249 0.4975 0.9683
C16 C -0.0451(4) 0.4471(7) 1.0455(14)
H15 H -0.0311 0.4378 0.9357
H16 H -0.0347 0.5325 1.0839
C17 C -0.0183(3) 0.3482(7) 1.1505(11)
H17 H -0.0291 0.3641 1.2622
H18 H 0.0222 0.3574 1.1432
N1 N 0.1036(2) 0.1283(5) 0.7689(7)
N2 N 0.1387(2) 0.0146(6) 1.0303(7)
N3 N -0.0091(3) 0.1746(7) 0.9455(7)
H19 H -0.0042 0.2466 0.8857
H20 H -0.0328 0.1221 0.8916
O1 O 0.03334(19) 0.0516(5) 1.1915(6)
O2 O -0.0318(2) 0.1106(5) 1.3678(6)
Cu1 Cu 0.06402(3) 0.08658(7) 0.97373(11)
O2A O 0.0318(2) -0.1106(5) 0.8678(6)
Cu1A Cu -0.06402(3) -0.08658(7) 1.47373(11)
O3 O 0.1200(19) 0.421(2) 0.926(3)
O4 O 0.1272(5) 0.3038(11) 1.1236(15)
O5 O 0.1605(5) 0.5196(13) 1.126(2)
O6 O 0.2006(9) 0.367(2) 1.002(5)
Cl1 Cl 0.15563(14) 0.4063(3) 1.0463(3)
O7 O -0.0550(3) 0.2856(7) 1.6217(8)
H21 H -0.046 0.2175 1.5226
H22 H -0.0882 0.3558 1.5896
loop_
_geom_bond_atom_site_label_1
_geom_bond_atom_site_label_2
_geom_bond_site_symmetry_1
_geom_bond_site_symmetry_2
C1 H1 1_555 1_555
C2 C1 1_555 1_555
H2 C2 1_555 1_555
C3 C2 1_555 1_555
H3 C3 1_555 1_555
C4 C3 1_555 1_555
H4 C4 1_555 1_555
C5 C4 1_555 1_555
C6 C5 1_555 1_555
C7 C6 1_555 1_555
H5 C7 1_555 1_555
C8 C7 1_555 1_555
H6 C8 1_555 1_555
C9 C8 1_555 1_555
H7 C9 1_555 1_555
C10 C9 1_555 1_555
H8 C10 1_555 1_555
C11 C12 1_555 1_555
C12 C13 1_555 1_555
C13 H9 1_555 1_555
H10 C13 1_555 1_555
C14 C13 1_555 1_555
H11 C14 1_555 1_555
H12 C14 1_555 1_555
C15 C14 1_555 1_555
H13 C15 1_555 1_555
H14 C15 1_555 1_555
C16 C15 1_555 1_555
H15 C16 1_555 1_555
H16 C16 1_555 1_555
C17 C12 1_555 1_555
H17 C17 1_555 1_555
H18 C17 1_555 1_555
N1 C1 1_555 1_555
N2 C6 1_555 1_555
N3 C12 1_555 1_555
H19 N3 1_555 1_555
H20 N3 1_555 1_555
O1 C11 1_555 1_555
O2 C11 1_555 1_555
Cu1 N1 1_555 1_555
O3 Cl1 1_555 1_555
O4 Cl1 1_555 1_555
O5 Cl1 1_555 1_555
O6 Cl1 1_555 1_555
O7 H21 1_555 1_555
H22 O7 1_555 1_555
O2A Cu1 1_555 1_555
Cu1A O2 1_555 1_555
C5 N1 1_555 1_555
C10 N2 1_555 1_555
C16 C17 1_555 1_555
N2 Cu1 1_555 1_555
N3 Cu1 1_555 1_555
O1 Cu1 1_555 1_555

#END
