
#######################################################################
#
#                 Cambridge Crystallographic Data Centre
#                                CCDC 
#
#######################################################################
#
# If this CIF has been generated from an entry in the Cambridge 
# Structural Database, then it will include bibliographic, chemical, 
# crystal, experimental, refinement or atomic coordinate data resulting 
# from the CCDC's data processing and validation procedures.
#
#######################################################################

data_JOJCES
_symmetry_cell_setting           monoclinic
_symmetry_space_group_name_H-M   'P 21/c'
_symmetry_Int_Tables_number      14
_space_group_name_Hall           '-P 2ybc'
loop_
_symmetry_equiv_pos_site_id
_symmetry_equiv_pos_as_xyz
1 x,y,z
2 -x,1/2+y,1/2-z
3 -x,-y,-z
4 x,1/2-y,1/2+z
_cell_length_a                   9.9783(2)
_cell_length_b                   8.1230(2)
_cell_length_c                   23.9669(5)
_cell_angle_alpha                90
_cell_angle_beta                 105.705(1)
_cell_angle_gamma                90
_cell_volume                     1870.09
loop_
_atom_site_label
_atom_site_type_symbol
_atom_site_fract_x
_atom_site_fract_y
_atom_site_fract_z
C1 C 0.8607(3) 1.1231(4) 0.84754(14)
H1 H 0.7947 1.111 0.812
C2 C 0.8613(4) 1.2684(4) 0.87757(16)
H2 H 0.7983 1.3522 0.8625
C3 C 0.9559(4) 1.2850(4) 0.92922(16)
H3 H 0.959 1.3805 0.9509
C4 C 1.0474(4) 1.1590(4) 0.94945(14)
H4 H 1.1135 1.1692 0.985
C5 C 1.0420(3) 1.0166(4) 0.91711(11)
C6 C 1.1356(3) 0.8753(4) 0.93347(11)
C7 C 1.2424(4) 0.8697(5) 0.98236(14)
H5 H 1.2622 0.9592 1.0074
C8 C 1.3206(4) 0.7290(6) 0.99395(18)
H6 H 1.3939 0.7228 1.0275
C9 C 1.2928(4) 0.5977(6) 0.95714(16)
H7 H 1.3452 0.5017 0.9654
C10 C 1.1869(3) 0.6113(4) 0.90836(14)
H8 H 1.1671 0.5237 0.8824
C11 C 0.8833(3) 0.5231(3) 0.75270(12)
C12 C 0.7678(3) 0.6464(3) 0.72922(11)
C13 C 0.6248(3) 0.5766(4) 0.7268(2)
H9 H 0.6171 0.4627 0.7141
H10 H 0.6056 0.5836 0.7643
C14 C 0.5300(4) 0.6834(6) 0.6838(3)
H11 H 0.5065 0.7817 0.7022
H12 H 0.4449 0.6254 0.6649
C15 C 0.6121(6) 0.7275(8) 0.6403(2)
H13 H 0.5781 0.664 0.6051
H14 H 0.6009 0.8435 0.6306
C16 C 0.7619(5) 0.6895(6) 0.66744(16)
H15 H 0.8199 0.7843 0.6659
H16 H 0.7923 0.5976 0.6481
N1 N 0.9487(2) 0.9995(3) 0.86635(10)
N2 N 1.1104(2) 0.7475(3) 0.89675(10)
N3 N 0.7871(3) 0.7960(3) 0.76636(12)
H17 H 0.7154 0.8055 0.7823
H18 H 0.7879 0.8859 0.7445
O1 O 0.9751(2) 0.5655(2) 0.79707(9)
O2 O 0.8845(2) 0.3902(3) 0.72802(10)
Cu1 Cu 0.95957(3) 0.78367(4) 0.827012(14)
O2A O 1.1155(2) 0.8902(3) 0.77198(10)
Cu1A Cu 1.04043(3) 0.28367(4) 0.672988(14)
O3 O 0.8018(3) 0.6784(5) 0.90942(19)
O4 O 0.6349(5) 0.7646(6) 0.95580(18)
O5 O 0.5886(5) 0.5551(6) 0.8924(3)
O6 O 0.6039(6) 0.8051(8) 0.8569(2)
Cl1 Cl 0.65789(8) 0.70350(9) 0.90433(3)
O7 O 0.6915(3) 0.1215(3) 0.70994(11)
H19 H 0.7534 0.2157 0.7111
H20 H 0.6088 0.1487 0.6869
loop_
_geom_bond_atom_site_label_1
_geom_bond_atom_site_label_2
_geom_bond_site_symmetry_1
_geom_bond_site_symmetry_2
C1 H1 1_555 1_555
C2 C1 1_555 1_555
H2 C2 1_555 1_555
C3 C2 1_555 1_555
H3 C3 1_555 1_555
C4 C3 1_555 1_555
H4 C4 1_555 1_555
C5 C4 1_555 1_555
C6 C5 1_555 1_555
C7 C6 1_555 1_555
H5 C7 1_555 1_555
C8 C7 1_555 1_555
H6 C8 1_555 1_555
C9 C8 1_555 1_555
H7 C9 1_555 1_555
C10 C9 1_555 1_555
H8 C10 1_555 1_555
C11 C12 1_555 1_555
C12 C13 1_555 1_555
C13 H9 1_555 1_555
H10 C13 1_555 1_555
C14 C13 1_555 1_555
H11 C14 1_555 1_555
H12 C14 1_555 1_555
C15 C14 1_555 1_555
H13 C15 1_555 1_555
H14 C15 1_555 1_555
C16 C12 1_555 1_555
H15 C16 1_555 1_555
H16 C16 1_555 1_555
N1 C1 1_555 1_555
N2 C6 1_555 1_555
N3 C12 1_555 1_555
H17 N3 1_555 1_555
H18 N3 1_555 1_555
O1 C11 1_555 1_555
O2 C11 1_555 1_555
Cu1 N1 1_555 1_555
O3 Cl1 1_555 1_555
O4 Cl1 1_555 1_555
O5 Cl1 1_555 1_555
O6 Cl1 1_555 1_555
O7 H19 1_555 1_555
H20 O7 1_555 1_555
O2A Cu1 1_555 1_555
Cu1A O2 1_555 1_555
C5 N1 1_555 1_555
C10 N2 1_555 1_555
C15 C16 1_555 1_555
N2 Cu1 1_555 1_555
N3 Cu1 1_555 1_555
O1 Cu1 1_555 1_555

#END
