
#######################################################################
#
#                 Cambridge Crystallographic Data Centre
#                                CCDC 
#
#######################################################################
#
# If this CIF has been generated from an entry in the Cambridge 
# Structural Database, then it will include bibliographic, chemical, 
# crystal, experimental, refinement or atomic coordinate data resulting 
# from the CCDC's data processing and validation procedures.
#
#######################################################################

data_JOJGIA01
_symmetry_cell_setting           monoclinic
_symmetry_space_group_name_H-M   'C 2/c'
_symmetry_Int_Tables_number      15
_space_group_name_Hall           '-C 2yn'
loop_
_symmetry_equiv_pos_site_id
_symmetry_equiv_pos_as_xyz
1 x,y,z
2 -x,y,1/2-z
3 1/2+x,1/2+y,z
4 1/2-x,1/2+y,1/2-z
5 -x,-y,-z
6 x,-y,1/2+z
7 1/2-x,1/2-y,-z
8 1/2+x,1/2-y,1/2+z
_cell_length_a                   19.884(15)
_cell_length_b                   8.133(6)
_cell_length_c                   10.500(8)
_cell_angle_alpha                90
_cell_angle_beta                 108.978(11)
_cell_angle_gamma                90
_cell_volume                     1605.73
loop_
_atom_site_label
_atom_site_type_symbol
_atom_site_fract_x
_atom_site_fract_y
_atom_site_fract_z
Cu1 Cu 0.86193(3) 0.88531(7) 0.59258(6)
O1 O 0.8541(2) 0.9654(5) 0.4071(3)
O2 O 0.91225(19) 0.9624(4) 0.2573(3)
O3 O 1.1595(2) 0.6504(5) 0.8631(4)
O4 O 1.1279(3) 0.4191(6) 0.7537(5)
O5 O 0.76774(19) 0.9515(5) 0.5820(4)
N1 N 0.9547(2) 0.8023(5) 0.5851(4)
C1 C 0.9623(3) 0.8216(6) 0.4638(4)
C2 C 1.0202(3) 0.7583(6) 0.4349(5)
H1 H 1.0255 0.7754 0.3511
C3 C 1.0699(3) 0.6693(7) 0.5329(5)
H2 H 1.1076 0.6194 0.5138
C4 C 1.0636(3) 0.6544(6) 0.6599(5)
C5 C 1.0051(3) 0.7229(6) 0.6835(5)
C6 C 0.9042(3) 0.9221(6) 0.3660(5)
C7 C 1.1205(3) 0.5641(6) 0.7680(5)
H3 H 0.7338 0.9199 0.5141
H4 H 0.7605 1.0482 0.6072
O1A O 1.1459(2) 0.9654(5) 1.0929(3)
O2A O 1.08775(19) 0.9624(4) 1.2427(3)
O3A O 0.8405(2) 0.6504(5) 0.6369(4)
O4A O 0.8721(3) 0.4191(6) 0.7463(5)
N1A N 1.0453(2) 0.8023(5) 0.9149(4)
C1A C 1.0377(3) 0.8216(6) 1.0362(4)
C2A C 0.9798(3) 0.7583(6) 1.0651(5)
H1A H 0.9745 0.7754 1.1489
C3A C 0.9301(3) 0.6693(7) 0.9671(5)
H2A H 0.8924 0.6194 0.9862
C4A C 0.9364(3) 0.6544(6) 0.8401(5)
C5A C 0.9949(3) 0.7229(6) 0.8165(5)
C6A C 1.0958(3) 0.9221(6) 1.1340(5)
C7A C 0.8795(3) 0.5641(6) 0.7320(5)
Cu1A Cu 1.13807(3) 0.88531(7) 0.90742(6)
O5A O 1.23226(19) 0.9515(5) 0.9180(4)
H3A H 1.2662 0.9199 0.9859
H4A H 1.2395 1.0482 0.8928
Cu1D Cu 1.13807(3) 1.11469(7) 1.40742(6)
Cu1E Cu 0.86193(3) 1.11469(7) 0.09258(6)
O2D O 1.08775(19) 1.0376(4) 0.7427(3)
O2E O 0.91225(19) 1.0376(4) 0.7573(3)
O6 O 0.7461(3) 0.2431(6) 0.6573(6)
H5 H 0.7179 0.3248 0.6395
H6 H 0.7849 0.2964 0.6851
loop_
_geom_bond_atom_site_label_1
_geom_bond_atom_site_label_2
_geom_bond_site_symmetry_1
_geom_bond_site_symmetry_2
Cu1 O1 1_555 1_555
O1 C6 1_555 1_555
O2 C6 1_555 1_555
O3 C7 1_555 1_555
O4 C7 1_555 1_555
O5 Cu1 1_555 1_555
N1 Cu1 1_555 1_555
C1 N1 1_555 1_555
C2 C1 1_555 1_555
H1 C2 1_555 1_555
C3 C2 1_555 1_555
H2 C3 1_555 1_555
C4 C3 1_555 1_555
C5 N1 1_555 1_555
C6 C1 1_555 1_555
C7 C4 1_555 1_555
H3 O5 1_555 1_555
H4 O5 1_555 1_555
O6 H5 1_555 1_555
H6 O6 1_555 1_555
O1A C6A 1_555 1_555
O2A C6A 1_555 1_555
O3A Cu1 1_555 1_555
O4A C7A 1_555 1_555
N1A C1A 1_555 1_555
C1A C2A 1_555 1_555
C2A H1A 1_555 1_555
C3A C2A 1_555 1_555
H2A C3A 1_555 1_555
C4A C3A 1_555 1_555
C5A C5 1_555 1_555
C6A C1A 1_555 1_555
C7A O3A 1_555 1_555
Cu1A O3 1_555 1_555
O5A Cu1A 1_555 1_555
H3A O5A 1_555 1_555
H4A O5A 1_555 1_555
Cu1D O2A 1_555 1_555
Cu1E O2 1_555 1_555
O2D Cu1A 1_555 1_555
O2E Cu1 1_555 1_555
C4 C5 1_555 1_555
O1A Cu1A 1_555 1_555
N1A C5A 1_555 1_555
N1A Cu1A 1_555 1_555
C4A C5A 1_555 1_555
C4A C7A 1_555 1_555

#END
