
#######################################################################
#
#                 Cambridge Crystallographic Data Centre
#                                CCDC 
#
#######################################################################
#
# If this CIF has been generated from an entry in the Cambridge 
# Structural Database, then it will include bibliographic, chemical, 
# crystal, experimental, refinement or atomic coordinate data resulting 
# from the CCDC's data processing and validation procedures.
#
#######################################################################

data_JOJGIA
_symmetry_cell_setting           monoclinic
_symmetry_space_group_name_H-M   'C 2/c'
_symmetry_Int_Tables_number      15
_space_group_name_Hall           '-C 2yn'
loop_
_symmetry_equiv_pos_site_id
_symmetry_equiv_pos_as_xyz
1 x,y,z
2 -x,y,1/2-z
3 1/2+x,1/2+y,z
4 1/2-x,1/2+y,1/2-z
5 -x,-y,-z
6 x,-y,1/2+z
7 1/2-x,1/2-y,-z
8 1/2+x,1/2-y,1/2+z
_cell_length_a                   19.981(7)
_cell_length_b                   8.186(3)
_cell_length_c                   10.561(4)
_cell_angle_alpha                90
_cell_angle_beta                 108.901(3)
_cell_angle_gamma                90
_cell_volume                     1634.26
loop_
_atom_site_label
_atom_site_type_symbol
_atom_site_fract_x
_atom_site_fract_y
_atom_site_fract_z
Cu1 Cu 0.138037(13) 0.61425(3) 0.40752(2)
O1 O -0.15951(8) 0.84969(19) 0.13542(16)
O2 O -0.12747(10) 1.0819(2) 0.2469(2)
O3 O 0.14600(8) 0.5357(2) 0.59337(15)
O4 O 0.08761(8) 0.53939(18) 0.74265(14)
N1 N 0.04538(8) 0.6967(2) 0.41530(16)
C1 C -0.00499(10) 0.7750(2) 0.31727(18)
C2 C -0.06371(10) 0.8453(2) 0.34012(19)
C3 C -0.06994(11) 0.8304(3) 0.4676(2)
H1 H -0.1075 0.8797 0.4868
C4 C -0.02007(11) 0.7421(3) 0.5650(2)
H2 H -0.0251 0.7259 0.6486
C5 C 0.03756(10) 0.6782(2) 0.53627(19)
C6 C -0.12089(11) 0.9353(3) 0.2325(2)
C7 C 0.09556(11) 0.5773(3) 0.6340(2)
O5 O 0.23215(8) 0.5486(2) 0.41921(16)
H3 H 0.2597 0.5736 0.4929
H4 H 0.2424 0.4633 0.3890
O1A O 0.15951(8) 0.84969(19) 0.36458(16)
O2A O 0.12747(10) 1.0819(2) 0.2531(2)
O3A O -0.14600(8) 0.5357(2) -0.09337(15)
O4A O -0.08761(8) 0.53939(18) -0.24265(14)
N1A N -0.04538(8) 0.6967(2) 0.08470(16)
C1A C 0.00499(10) 0.7750(2) 0.18273(18)
C2A C 0.06371(10) 0.8453(2) 0.15988(19)
C3A C 0.06994(11) 0.8304(3) 0.0324(2)
H1A H 0.1075 0.8797 0.0132
C4A C 0.02007(11) 0.7421(3) -0.0650(2)
H2A H 0.0251 0.7259 -0.1486
C5A C -0.03756(10) 0.6782(2) -0.03627(19)
C6A C 0.12089(11) 0.9353(3) 0.2675(2)
C7A C -0.09556(11) 0.5773(3) -0.1340(2)
Cu1A Cu -0.138037(13) 0.61425(3) 0.09248(2)
O5A O -0.23215(8) 0.5486(2) 0.08079(16)
H3A H -0.2597 0.5736 0.0071
H4A H -0.2424 0.4633 0.1110
Cu1D Cu -0.138037(13) 0.38575(3) -0.40752(2)
Cu1E Cu 0.138037(13) 0.38575(3) 0.90752(2)
O4D O -0.08761(8) 0.46061(18) 0.25735(14)
O4E O 0.08761(8) 0.46061(18) 0.24265(14)
O6 O 0.24607(11) 0.2439(2) 0.6583(2)
H5 H 0.2843 0.2957 0.6787
H6 H 0.2125 0.3119 0.6377
loop_
_geom_bond_atom_site_label_1
_geom_bond_atom_site_label_2
_geom_bond_site_symmetry_1
_geom_bond_site_symmetry_2
Cu1 O3 1_555 1_555
O1 C6 1_555 1_555
O2 C6 1_555 1_555
O3 C7 1_555 1_555
O4 C7 1_555 1_555
N1 Cu1 1_555 1_555
C1 N1 1_555 1_555
C2 C1 1_555 1_555
C3 C2 1_555 1_555
H1 C3 1_555 1_555
C4 C3 1_555 1_555
H2 C4 1_555 1_555
C5 N1 1_555 1_555
C6 C2 1_555 1_555
C7 C5 1_555 1_555
O5 Cu1 1_555 1_555
H3 O5 1_555 1_555
H4 O5 1_555 1_555
O6 H5 1_555 1_555
H6 O6 1_555 1_555
O1A Cu1 1_555 1_555
O2A C6A 1_555 1_555
O3A C7A 1_555 1_555
O4A C7A 1_555 1_555
N1A C1A 1_555 1_555
C1A C1 1_555 1_555
C2A C1A 1_555 1_555
C3A C2A 1_555 1_555
H1A C3A 1_555 1_555
C4A C3A 1_555 1_555
H2A C4A 1_555 1_555
C5A N1A 1_555 1_555
C6A O1A 1_555 1_555
C7A C5A 1_555 1_555
Cu1A O1 1_555 1_555
O5A Cu1A 1_555 1_555
H3A O5A 1_555 1_555
H4A O5A 1_555 1_555
Cu1D O4A 1_555 1_555
Cu1E O4 1_555 1_555
O4D Cu1A 1_555 1_555
O4E Cu1 1_555 1_555
C4 C5 1_555 1_555
O3A Cu1A 1_555 1_555
N1A Cu1A 1_555 1_555
C2A C6A 1_555 1_555
C4A C5A 1_555 1_555

#END
