
#######################################################################
#
#                 Cambridge Crystallographic Data Centre
#                                CCDC 
#
#######################################################################
#
# If this CIF has been generated from an entry in the Cambridge 
# Structural Database, then it will include bibliographic, chemical, 
# crystal, experimental, refinement or atomic coordinate data resulting 
# from the CCDC's data processing and validation procedures.
#
#######################################################################

data_JOJGOG
_symmetry_cell_setting           orthorhombic
_symmetry_space_group_name_H-M   'P c a 21'
_symmetry_Int_Tables_number      29
_space_group_name_Hall           'P 2c -2ac'
loop_
_symmetry_equiv_pos_site_id
_symmetry_equiv_pos_as_xyz
1 x,y,z
2 -x,-y,1/2+z
3 1/2+x,-y,z
4 1/2-x,y,1/2+z
_cell_length_a                   6.8863(14)
_cell_length_b                   11.318(2)
_cell_length_c                   17.871(4)
_cell_angle_alpha                90
_cell_angle_beta                 90
_cell_angle_gamma                90
_cell_volume                     1392.85
loop_
_atom_site_label
_atom_site_type_symbol
_atom_site_fract_x
_atom_site_fract_y
_atom_site_fract_z
Cd1 Cd 0.67695(7) 0.18404(4) 0.59106(3)
O1 O 0.3908(8) 0.1806(5) 0.5240(3)
H1 H 0.3424 0.2477 0.5243
H2 H 0.3057 0.1290 0.5285
O2 O 0.6424(6) -0.0196(3) 0.5898(5)
O3 O 0.4865(8) -0.1710(4) 0.6437(3)
O4 O 0.6716(8) 0.1422(4) 0.9733(3)
O5 O 0.7649(8) 0.2940(5) 0.9011(3)
H3 H 0.7936 0.3239 0.9414
O6 O 0.3002(8) 0.2845(5) 0.8813(3)
O7 O 0.4115(9) 0.4623(5) 0.9193(3)
H4 H 0.3518 0.4459 0.9576
O8 O 0.7073(8) 0.5642(5) 0.5538(3)
O9 O 0.6996(8) 0.3683(5) 0.5381(3)
N1 N 0.5693(9) 0.1112(5) 0.7114(3)
N2 N 0.6300(9) 0.3349(5) 0.6835(3)
C1 C 0.5655(10) -0.0716(6) 0.6435(4)
C2 C 0.5721(11) -0.0066(7) 0.7179(4)
C3 C 0.5890(10) -0.0633(7) 0.7853(4)
H5 H 0.5803 -0.1451 0.7884
C4 C 0.6195(10) 0.0050(6) 0.8485(4)
H6 H 0.6361 -0.0315 0.8947
C5 C 0.6257(10) 0.1279(6) 0.8435(4)
C6 C 0.5854(10) 0.1799(7) 0.7729(3)
C7 C 0.5720(10) 0.3084(7) 0.7533(4)
C8 C 0.4950(10) 0.3985(6) 0.7998(4)
C9 C 0.5053(11) 0.5151(8) 0.7751(5)
H7 H 0.4649 0.5759 0.8065
C10 C 0.5766(10) 0.5420(7) 0.7029(4)
H8 H 0.5876 0.6194 0.6859
C11 C 0.6295(11) 0.4457(7) 0.6584(4)
C12 C 0.6852(11) 0.4617(6) 0.5776(7)
C13 C 0.3937(11) 0.3745(7) 0.8706(4)
C14 C 0.6872(10) 0.1902(6) 0.9125(4)
Cd1B Cd 0.17695(7) -0.18404(4) 0.59106(3)
Cd1C Cd 0.82305(7) 0.18404(4) 1.09106(3)
O3B O 0.9865(8) 0.1710(4) 0.6437(3)
O4C O 0.8284(8) 0.1422(4) 0.4733(3)
loop_
_geom_bond_atom_site_label_1
_geom_bond_atom_site_label_2
_geom_bond_site_symmetry_1
_geom_bond_site_symmetry_2
Cd1 O1 1_555 1_555
O1 H1 1_555 1_555
H2 O1 1_555 1_555
O2 Cd1 1_555 1_555
O3 C1 1_555 1_555
O4 C14 1_555 1_555
O5 H3 1_555 1_555
O6 C13 1_555 1_555
O7 H4 1_555 1_555
O8 C12 1_555 1_555
O9 Cd1 1_555 1_555
N1 Cd1 1_555 1_555
N2 Cd1 1_555 1_555
C1 O2 1_555 1_555
C2 N1 1_555 1_555
C3 C2 1_555 1_555
H5 C3 1_555 1_555
C4 C3 1_555 1_555
H6 C4 1_555 1_555
C5 C4 1_555 1_555
C6 N1 1_555 1_555
C7 N2 1_555 1_555
C8 C7 1_555 1_555
C9 C8 1_555 1_555
H7 C9 1_555 1_555
C10 C9 1_555 1_555
H8 C10 1_555 1_555
C11 N2 1_555 1_555
C12 O9 1_555 1_555
C13 O7 1_555 1_555
C14 O5 1_555 1_555
Cd1B O3 1_555 1_555
Cd1C O4 1_555 1_555
O3B Cd1 1_555 1_555
O4C Cd1 1_555 1_555
C1 C2 1_555 1_555
C5 C6 1_555 1_555
C5 C14 1_555 1_555
C6 C7 1_555 1_555
C8 C13 1_555 1_555
C10 C11 1_555 1_555
C11 C12 1_555 1_555

#END
