
#######################################################################
#
#                 Cambridge Crystallographic Data Centre
#                                CCDC 
#
#######################################################################
#
# If this CIF has been generated from an entry in the Cambridge 
# Structural Database, then it will include bibliographic, chemical, 
# crystal, experimental, refinement or atomic coordinate data resulting 
# from the CCDC's data processing and validation procedures.
#
#######################################################################

data_JOJHUM01
_symmetry_cell_setting           monoclinic
_symmetry_space_group_name_H-M   'C 2/c'
_symmetry_Int_Tables_number      15
_space_group_name_Hall           '-C 2yn'
loop_
_symmetry_equiv_pos_site_id
_symmetry_equiv_pos_as_xyz
1 x,y,z
2 -x,y,1/2-z
3 1/2+x,1/2+y,z
4 1/2-x,1/2+y,1/2-z
5 -x,-y,-z
6 x,-y,1/2+z
7 1/2-x,1/2-y,-z
8 1/2+x,1/2-y,1/2+z
_cell_length_a                   14.750(3)
_cell_length_b                   8.857(2)
_cell_length_c                   9.503(2)
_cell_angle_alpha                90
_cell_angle_beta                 118.42(3)
_cell_angle_gamma                90
_cell_volume                     1091.86
loop_
_atom_site_label
_atom_site_type_symbol
_atom_site_fract_x
_atom_site_fract_y
_atom_site_fract_z
Cd1 Cd 0.0000 0.535583(15) 0.2500
O1 O -0.03228(9) 0.34712(15) 0.06557(14)
O2 O 0.05506(13) 0.28052(17) -0.06267(17)
N1 N 0.25046(14) -0.05131(19) 0.0670(2)
N2 N 0.32460(13) 0.02896(15) 0.1891(2)
C1 C 0.27659(12) 0.1113(2) 0.24775(19)
H1 H 0.3077 0.1781 0.3332
N3 N 0.17630(10) 0.08377(16) 0.16511(16)
C2 C 0.03356(12) 0.27150(17) 0.04894(17)
C3 C 0.09014(12) 0.15137(19) 0.17684(18)
H2 H 0.1155 0.1969 0.2817
H3 H 0.0418 0.0726 0.1669
N4 N 0.16106(13) -0.01883(19) 0.0519(2)
Cd1D Cd 0.0000 0.464417(15) -0.2500
Cd1B Cd 0.5000 0.035583(15) 0.2500
Cd1D_2 Cd 0.0000 0.464417(15) 0.7500
Cd1B_2 Cd -0.5000 0.035583(15) 0.2500
O1A O 0.03228(9) 0.34712(15) 0.43443(14)
O2A O -0.05506(13) 0.28052(17) 0.56267(17)
O2D O -0.05506(13) 0.71948(17) 0.06267(17)
O2E O 0.05506(13) 0.71948(17) 0.43733(17)
N1A N -0.25046(14) -0.05131(19) 0.4330(2)
N2A N -0.32460(13) 0.02896(15) 0.3109(2)
N2B N -0.17540(13) 0.52896(15) 0.1891(2)
N2C N 0.17540(13) 0.52896(15) 0.3109(2)
C1A C -0.27659(12) 0.1113(2) 0.25225(19)
H1A H -0.3077 0.1781 0.1668
N3A N -0.17630(10) 0.08377(16) 0.33489(16)
C2A C -0.03356(12) 0.27150(17) 0.45106(17)
C3A C -0.09014(12) 0.15137(19) 0.32316(18)
H2A H -0.1155 0.1969 0.2183
H3A H -0.0418 0.0726 0.3331
N4A N -0.16106(13) -0.01883(19) 0.4481(2)
loop_
_geom_bond_atom_site_label_1
_geom_bond_atom_site_label_2
_geom_bond_site_symmetry_1
_geom_bond_site_symmetry_2
Cd1 O1 1_555 1_555
O1 C2 1_555 1_555
O2 C2 1_555 1_555
N1 N2 1_555 1_555
N2 C1 1_555 1_555
C1 H1 1_555 1_555
N3 C1 1_555 1_555
C2 C3 1_555 1_555
C3 N3 1_555 1_555
H2 C3 1_555 1_555
H3 C3 1_555 1_555
N4 N1 1_555 1_555
Cd1D O2 1_555 1_555
Cd1B N2 1_555 1_555
Cd1D_2 O2A 1_555 1_555
Cd1B_2 N2A 1_555 1_555
O1A Cd1 1_555 1_555
O2A C2A 1_555 1_555
O2D Cd1 1_555 1_555
O2E Cd1 1_555 1_555
N1A N2A 1_555 1_555
N2A C1A 1_555 1_555
N2B Cd1 1_555 1_555
N2C Cd1 1_555 1_555
C1A H1A 1_555 1_555
N3A C1A 1_555 1_555
C2A O1A 1_555 1_555
C3A N3A 1_555 1_555
H2A C3A 1_555 1_555
H3A C3A 1_555 1_555
N4A N1A 1_555 1_555
N3 N4 1_555 1_555
N3A N4A 1_555 1_555
C2A C3A 1_555 1_555

#END
