
#######################################################################
#
#                 Cambridge Crystallographic Data Centre
#                                CCDC 
#
#######################################################################
#
# If this CIF has been generated from an entry in the Cambridge 
# Structural Database, then it will include bibliographic, chemical, 
# crystal, experimental, refinement or atomic coordinate data resulting 
# from the CCDC's data processing and validation procedures.
#
#######################################################################

data_JOJJAU
_symmetry_cell_setting           monoclinic
_symmetry_space_group_name_H-M   'P 21/n'
_symmetry_Int_Tables_number      14
_space_group_name_Hall           '-P 2yn'
loop_
_symmetry_equiv_pos_site_id
_symmetry_equiv_pos_as_xyz
1 x,y,z
2 1/2-x,1/2+y,1/2-z
3 -x,-y,-z
4 1/2+x,1/2-y,1/2+z
_cell_length_a                   4.957(3)
_cell_length_b                   13.587(7)
_cell_length_c                   7.817(4)
_cell_angle_alpha                90
_cell_angle_beta                 104.925(11)
_cell_angle_gamma                90
_cell_volume                     508.719
loop_
_atom_site_label
_atom_site_type_symbol
_atom_site_fract_x
_atom_site_fract_y
_atom_site_fract_z
Mn1 Mn 0.0000 1.0000 1.0000
N1 N 0.0402(3) 1.16578(10) 1.0408(2)
N2 N -0.1181(3) 1.31245(10) 1.05089(18)
N3 N 0.0697(3) 1.31658(11) 0.9545(2)
C1 C -0.1341(4) 1.21982(12) 1.1024(2)
H1 H -0.2494 1.1970 1.1706
N4 N 0.1640(3) 1.22802(11) 0.9484(2)
C2 C -0.2636(3) 1.40034(12) 1.0890(2)
H2 H -0.4369 1.3805 1.1149
H3 H -0.3104 1.4418 0.9845
C3 C -0.0916(3) 1.46032(11) 1.2447(2)
O1 O -0.2292(3) 1.51211(8) 1.32361(17)
O2 O 0.1682(2) 1.45557(10) 1.27445(16)
Mn1C Mn -0.5000 1.5000 1.5000
Mn1C_2 Mn 0.5000 1.5000 1.5000
Mn1C_3 Mn 0.5000 0.5000 0.5000
Mn1C_4 Mn -0.5000 0.5000 0.5000
N1B N -0.0402(3) 0.83422(10) 0.9592(2)
N2B N 0.1181(3) 0.68755(10) 0.94911(18)
N3B N -0.0697(3) 0.68342(11) 1.0455(2)
C1B C 0.1341(4) 0.78018(12) 0.8976(2)
H1B H 0.2494 0.8030 0.8294
N4B N -0.1640(3) 0.77198(11) 1.0516(2)
C2B C 0.2636(3) 0.59966(12) 0.9110(2)
H2B H 0.4369 0.6195 0.8851
H3B H 0.3104 0.5582 1.0155
C3B C 0.0916(3) 0.53968(11) 0.7553(2)
O1B O 0.2292(3) 0.48789(8) 0.67639(17)
O1C O 0.2708(3) 0.98789(8) 0.82361(17)
O1A O -0.2708(3) 1.01211(8) 1.17639(17)
O2B O -0.1682(2) 0.54443(10) 0.72555(16)
O2C O -0.3318(2) 1.04443(10) 0.77445(16)
O2A O 0.3318(2) 0.95557(10) 1.22555(16)
loop_
_geom_bond_atom_site_label_1
_geom_bond_atom_site_label_2
_geom_bond_site_symmetry_1
_geom_bond_site_symmetry_2
Mn1 N1 1_555 1_555
N1 C1 1_555 1_555
N2 N3 1_555 1_555
N3 N4 1_555 1_555
C1 N2 1_555 1_555
H1 C1 1_555 1_555
N4 N1 1_555 1_555
C2 N2 1_555 1_555
H2 C2 1_555 1_555
H3 C2 1_555 1_555
C3 C2 1_555 1_555
O1 C3 1_555 1_555
O2 C3 1_555 1_555
Mn1C O1 1_555 1_555
Mn1C_2 O2 1_555 1_555
Mn1C_3 O1B 1_555 1_555
Mn1C_4 O2B 1_555 1_555
N1B Mn1 1_555 1_555
N2B N3B 1_555 1_555
N3B N4B 1_555 1_555
C1B N1B 1_555 1_555
H1B C1B 1_555 1_555
N4B N1B 1_555 1_555
C2B N2B 1_555 1_555
H2B C2B 1_555 1_555
H3B C2B 1_555 1_555
C3B C2B 1_555 1_555
O1B C3B 1_555 1_555
O1C Mn1 1_555 1_555
O1A Mn1 1_555 1_555
O2B C3B 1_555 1_555
O2C Mn1 1_555 1_555
O2A Mn1 1_555 1_555
N2B C1B 1_555 1_555

#END
