
#######################################################################
#
#                 Cambridge Crystallographic Data Centre
#                                CCDC 
#
#######################################################################
#
# If this CIF has been generated from an entry in the Cambridge 
# Structural Database, then it will include bibliographic, chemical, 
# crystal, experimental, refinement or atomic coordinate data resulting 
# from the CCDC's data processing and validation procedures.
#
#######################################################################

data_JOJLUQ
_symmetry_cell_setting           orthorhombic
_symmetry_space_group_name_H-M   'P 21 21 21'
_symmetry_Int_Tables_number      19
_space_group_name_Hall           'P 2ac 2ab'
loop_
_symmetry_equiv_pos_site_id
_symmetry_equiv_pos_as_xyz
1 x,y,z
2 1/2-x,-y,1/2+z
3 -x,1/2+y,1/2-z
4 1/2+x,1/2-y,-z
_cell_length_a                   9.6134(11)
_cell_length_b                   10.0722(12)
_cell_length_c                   16.1700(19)
_cell_angle_alpha                90
_cell_angle_beta                 90
_cell_angle_gamma                90
_cell_volume                     1565.71
loop_
_atom_site_label
_atom_site_type_symbol
_atom_site_fract_x
_atom_site_fract_y
_atom_site_fract_z
Th1 Th 0.01890(4) 0.63916(4) 0.12017(2)
C1 C 0.7119(13) 0.7575(12) 0.0552(7)
C2 C 0.6486(9) 0.6672(10) 0.1194(8)
C3 C 0.5064(11) 0.6714(8) 0.1401(5)
H1 H 0.4452 0.7275 0.1124
C4 C 0.6913(12) 0.4993(12) 0.2116(8)
H2 H 0.7515 0.4371 0.2344
C5 C 0.5530(13) 0.5012(12) 0.2363(7)
H3 H 0.5227 0.4416 0.2764
C6 C 0.3077(12) 0.5938(13) 0.2370(9)
C7 C 0.4612(12) 0.5889(11) 0.2031(6)
C8 C 0.2252(9) 0.2015(9) 0.1196(8)
H4 H 0.2086 0.1311 0.1555
C9 C 0.1688(11) 0.3242(10) 0.1357(7)
C10 C 0.3295(13) 0.2918(14) -0.0004(8)
H5 H 0.3799 0.2826 -0.0492
C11 C 0.2770(14) 0.4147(13) 0.0224(8)
H6 H 0.3012 0.4888 -0.0087
C12 C 0.3063(12) 0.1827(12) 0.0501(8)
C13 C 0.3583(13) 0.0462(13) 0.0288(8)
C14 C 0.0740(11) 0.3431(13) 0.2077(7)
O1 O 0.2247(7) 0.6654(9) 0.1917(5)
O2 O 0.0109(9) 0.4503(6) 0.2156(4)
O3 O 0.0647(8) 0.2447(7) 0.2561(4)
O4 O 0.3269(9) -0.0464(8) 0.0732(5)
O5 O 0.4281(9) 0.0376(8) -0.0383(5)
O6 O 0.8401(8) 0.7700(8) 0.0545(5)
O7 O 0.0769(6) 0.8862(6) 0.1178(5)
O8 O 0.6266(7) 0.8137(7) 0.0050(5)
O9 O 0.2804(10) 0.5280(12) 0.2972(6)
N1 N 0.7397(9) 0.5856(9) 0.1552(5)
N2 N 0.1916(10) 0.4309(9) 0.0884(6)
Th1B Th -0.01890(4) 0.13916(4) 0.37983(2)
Th1C Th 0.51890(4) -0.13916(4) -0.12017(2)
Th1_2 Th 1.01890(4) 0.63916(4) 0.12017(2)
Th1C_2 Th 0.51890(4) 0.86084(4) -0.12017(2)
O3B O -0.0647(8) 0.7447(7) 0.2439(4)
O5C O -0.0719(9) 0.4624(8) 0.0383(5)
O6_2 O -0.1599(8) 0.7700(8) 0.0545(5)
O8C O 0.1266(7) 0.6863(7) -0.0050(5)
N1_2 N -0.2603(9) 0.5856(9) 0.1552(5)
loop_
_geom_bond_atom_site_label_1
_geom_bond_atom_site_label_2
_geom_bond_site_symmetry_1
_geom_bond_site_symmetry_2
Th1 O1 1_555 1_555
C1 C2 1_555 1_555
C2 C3 1_555 1_555
C3 H1 1_555 1_555
C4 H2 1_555 1_555
C5 C4 1_555 1_555
H3 C5 1_555 1_555
C6 C7 1_555 1_555
C7 C3 1_555 1_555
C8 H4 1_555 1_555
C9 C8 1_555 1_555
C10 H5 1_555 1_555
C11 C10 1_555 1_555
H6 C11 1_555 1_555
C12 C8 1_555 1_555
C13 C12 1_555 1_555
C14 C9 1_555 1_555
O1 C6 1_555 1_555
O2 Th1 1_555 1_555
O3 C14 1_555 1_555
O4 C13 1_555 1_555
O5 C13 1_555 1_555
O6 C1 1_555 1_555
O7 Th1 1_555 1_555
O8 C1 1_555 1_555
O9 C6 1_555 1_555
N1 C2 1_555 1_555
N2 Th1 1_555 1_555
Th1B O3 1_555 1_555
Th1C O5 1_555 1_555
Th1_2 O6 1_555 1_555
Th1C_2 O8 1_555 1_555
O3B Th1 1_555 1_555
O5C Th1 1_555 1_555
O6_2 Th1 1_555 1_555
O8C Th1 1_555 1_555
N1_2 Th1 1_555 1_555
C4 N1 1_555 1_555
C5 C7 1_555 1_555
C9 N2 1_555 1_555
C10 C12 1_555 1_555
C11 N2 1_555 1_555
C14 O2 1_555 1_555
N1 Th1_2 1_555 1_555

#END
