
#######################################################################
#
#                 Cambridge Crystallographic Data Centre
#                                CCDC 
#
#######################################################################
#
# If this CIF has been generated from an entry in the Cambridge 
# Structural Database, then it will include bibliographic, chemical, 
# crystal, experimental, refinement or atomic coordinate data resulting 
# from the CCDC's data processing and validation procedures.
#
#######################################################################

data_JOJMAX
_symmetry_cell_setting           triclinic
_symmetry_space_group_name_H-M   'P 1'
_symmetry_Int_Tables_number      1
_space_group_name_Hall           'P 1'
loop_
_symmetry_equiv_pos_site_id
_symmetry_equiv_pos_as_xyz
1 x,y,z
_cell_length_a                   7.9925(5)
_cell_length_b                   9.3928(6)
_cell_length_c                   9.4723(6)
_cell_angle_alpha                69.7890(10)
_cell_angle_beta                 84.9580(10)
_cell_angle_gamma                69.4250(10)
_cell_volume                     624.298
loop_
_atom_site_label
_atom_site_type_symbol
_atom_site_fract_x
_atom_site_fract_y
_atom_site_fract_z
Th1 Th 0.605530(15) 0.730610(15) 0.999680(15)
O1 O 0.5297(5) 0.5253(4) 1.2097(4)
O2 O 0.3931(4) 1.0009(4) 0.8406(4)
O3 O 0.5105(5) 0.3785(5) 1.4473(4)
O4 O 0.2748(4) 0.7299(4) 1.0009(4)
O5 O 0.9274(4) 0.6345(4) 0.9859(4)
O6 O 0.4246(5) 0.8608(4) 1.1727(4)
O7 O 0.4312(5) 0.7705(5) 0.5411(4)
O8 O 0.5057(5) 0.6961(4) 0.7834(4)
N1 N 0.7699(5) 0.4350(4) 0.9907(5)
N2 N 0.7332(5) 0.8534(5) 0.7245(4)
N3 N 0.7825(5) 0.6096(5) 1.2700(4)
C1 C 0.9384(7) 0.5004(7) 1.5563(5)
H1 H 0.9910 0.4639 1.6518
C2 C 0.8008(7) 0.4537(6) 1.5323(6)
H2 H 0.7589 0.3850 1.6116
C3 C 0.5767(6) 0.4665(6) 1.3480(6)
C4 C 0.8930(6) 1.0084(6) 0.5517(5)
C5 C 0.6834(6) 0.3334(6) 1.0051(6)
H3 H 0.5597 0.3706 1.0119
C6 C 0.9965(6) 0.6032(6) 1.4345(5)
C7 C 0.9142(6) 0.6539(6) 1.2951(5)
H4 H 0.9533 0.7231 1.2140
C8 C 0.6439(6) 0.8622(6) 0.6059(5)
C9 C 0.7260(6) 0.5105(6) 1.3885(5)
C10 C 0.9495(6) 0.3804(5) 0.9801(5)
C11 C 0.7672(6) 0.1750(5) 1.0103(5)
C12 C 0.8557(6) 0.9244(6) 0.6966(5)
H5 H 0.9196 0.9177 0.7775
C13 C 0.6699(7) 0.9453(7) 0.4593(6)
H6 H 0.6032 0.9515 0.3804
C14 C 0.7971(7) 1.0197(7) 0.4316(6)
H7 H 0.8178 1.0763 0.3336
C15 C 0.5158(6) 0.7705(6) 0.6449(5)
C16 C 1.0419(6) 0.2268(6) 0.9815(6)
H8 H 1.1653 0.1931 0.9726
C17 C 1.0339(6) 0.5056(5) 0.9675(5)
C18 C 0.9510(6) 0.1210(6) 0.9960(6)
H9 H 1.0120 0.0164 0.9962
O9 O 1.1938(4) 0.4777(4) 0.9418(5)
C19 C 1.1361(7) 0.6691(6) 1.4429(5)
O12 O 1.2001(5) 0.6345(5) 1.5777(4)
O13 O 1.1844(5) 0.7520(6) 1.3289(4)
C20 C 0.6528(6) 0.0702(5) 1.0411(5)
O14 O 0.7129(4) -0.0581(4) 1.0072(4)
O15 O 0.5090(5) 0.1153(4) 1.1025(4)
C21 C 1.0370(7) 1.0808(7) 0.5305(6)
O16 O 1.1209(6) 1.0711(5) 0.6353(4)
O17 O 1.0589(6) 1.1543(6) 0.3888(4)
Th1_2 Th 0.605530(15) -0.269390(15) 0.999680(15)
O14_2 O 0.7129(4) 0.9419(4) 1.0072(4)
O10 O 0.4389(7) 1.2863(5) 0.7585(5)
H10 H 0.449(7) 1.333(6) 0.673(3)
H11 H 0.334(5) 1.307(17) 0.750(16)
O11 O 0.2901(7) 0.2908(7) 0.3036(6)
H12 H 0.318(9) 0.267(8) 0.230(5)
H13 H 0.349(10) 0.308(10) 0.356(7)
loop_
_geom_bond_atom_site_label_1
_geom_bond_atom_site_label_2
_geom_bond_site_symmetry_1
_geom_bond_site_symmetry_2
Th1 O1 1_555 1_555
O1 C3 1_555 1_555
O2 Th1 1_555 1_555
O3 C3 1_555 1_555
O4 Th1 1_555 1_555
O5 Th1 1_555 1_555
O6 Th1 1_555 1_555
O7 C15 1_555 1_555
O8 Th1 1_555 1_555
N1 Th1 1_555 1_555
N2 Th1 1_555 1_555
N3 Th1 1_555 1_555
C1 H1 1_555 1_555
C2 C1 1_555 1_555
H2 C2 1_555 1_555
C3 C9 1_555 1_555
C4 C12 1_555 1_555
C5 N1 1_555 1_555
H3 C5 1_555 1_555
C6 C1 1_555 1_555
C7 N3 1_555 1_555
H4 C7 1_555 1_555
C8 N2 1_555 1_555
C9 N3 1_555 1_555
C10 N1 1_555 1_555
C11 C5 1_555 1_555
C12 N2 1_555 1_555
H5 C12 1_555 1_555
C13 C8 1_555 1_555
H6 C13 1_555 1_555
C14 C4 1_555 1_555
H7 C14 1_555 1_555
C15 O8 1_555 1_555
C16 C10 1_555 1_555
H8 C16 1_555 1_555
C17 O5 1_555 1_555
C18 C11 1_555 1_555
H9 C18 1_555 1_555
O9 C17 1_555 1_555
O10 H10 1_555 1_555
O11 H12 1_555 1_555
H11 O10 1_555 1_555
H13 O11 1_555 1_555
C19 C6 1_555 1_555
O12 C19 1_555 1_555
O13 C19 1_555 1_555
C20 C11 1_555 1_555
O14 C20 1_555 1_555
O15 C20 1_555 1_555
C21 C4 1_555 1_555
O16 C21 1_555 1_555
O17 C21 1_555 1_555
Th1_2 O14 1_555 1_555
O14_2 Th1 1_555 1_555
C2 C9 1_555 1_555
C6 C7 1_555 1_555
C8 C15 1_555 1_555
C10 C17 1_555 1_555
C13 C14 1_555 1_555
C16 C18 1_555 1_555

#END
