
#######################################################################
#
#                 Cambridge Crystallographic Data Centre
#                                CCDC 
#
#######################################################################
#
# If this CIF has been generated from an entry in the Cambridge 
# Structural Database, then it will include bibliographic, chemical, 
# crystal, experimental, refinement or atomic coordinate data resulting 
# from the CCDC's data processing and validation procedures.
#
#######################################################################

data_JOJMIF
_symmetry_cell_setting           monoclinic
_symmetry_space_group_name_H-M   'P 21/n'
_symmetry_Int_Tables_number      14
_space_group_name_Hall           '-P 2yn'
loop_
_symmetry_equiv_pos_site_id
_symmetry_equiv_pos_as_xyz
1 x,y,z
2 1/2-x,1/2+y,1/2-z
3 -x,-y,-z
4 1/2+x,1/2-y,1/2+z
_cell_length_a                   15.4840(8)
_cell_length_b                   7.6582(4)
_cell_length_c                   28.6993(15)
_cell_angle_alpha                90
_cell_angle_beta                 97.9060(10)
_cell_angle_gamma                90
_cell_volume                     3370.8
loop_
_atom_site_label
_atom_site_type_symbol
_atom_site_fract_x
_atom_site_fract_y
_atom_site_fract_z
Th1 Th 0.325055(18) 0.84321(4) 0.134304(9)
Th2 Th 0.201999(18) 0.77199(3) -0.125524(9)
O1 O 0.1738(4) 0.6586(7) -0.05287(18)
O2 O 0.1090(4) 0.6470(7) 0.0114(2)
O3 O 0.1926(3) 0.8786(7) 0.08393(17)
O4 O 0.0646(4) 0.9964(11) 0.0914(2)
O5 O 0.3717(3) 0.7458(6) 0.06444(17)
O6 O 0.4182(4) 0.7537(8) -0.0053(2)
O7 O 0.2451(4) 0.5682(8) 0.1334(2)
O8 O 0.4289(4) 0.5841(9) 0.1487(2)
O9 O 0.2893(3) 1.1258(6) 0.15778(17)
O10 O 0.4682(4) 0.9833(8) 0.1426(2)
O11 O 0.2313(3) 1.3321(7) 0.19845(18)
O12 O 0.1789(3) 1.0536(7) -0.15997(16)
O13 O 0.1572(4) 1.2588(7) -0.21421(19)
O14 O 0.0393(3) 0.8051(7) -0.13850(19)
O15 O 0.1238(4) 0.4983(7) -0.15545(19)
O16 O 0.2971(4) 0.5118(7) -0.10072(19)
N1 N 0.1396(4) 0.9951(8) -0.0622(2)
N2 N 0.0991(4) 1.1945(9) 0.0127(2)
N3 N 0.3384(4) 1.0816(8) 0.0637(2)
N4 N 0.3282(4) 1.2781(8) -0.0190(2)
N5 N 0.1918(4) 0.8809(8) 0.1905(2)
N6 N 0.1342(4) 0.8748(9) -0.3185(2)
N7 N 0.1465(4) 0.8007(8) -0.2231(2)
C1 C 0.1243(6) 1.1637(11) -0.0665(3)
H1 H 0.1290 1.2184 -0.0950
C2 C 0.1014(6) 1.2610(11) -0.0295(3)
H2 H 0.0870 1.3780 -0.0346
C3 C 0.1171(5) 1.0239(10) 0.0182(3)
C4 C 0.1334(5) 0.9225(10) -0.0200(2)
C5 C 0.1387(5) 0.7272(10) -0.0193(3)
C6 C 0.1229(5) 0.9590(11) 0.0684(3)
C7 C 0.3508(5) 1.1103(10) -0.0182(2)
C8 C 0.3572(5) 1.0132(10) 0.0229(2)
C9 C 0.3857(5) 0.8244(10) 0.0260(3)
C10 C 0.1790(5) 1.0452(9) 0.2034(2)
C11 C 0.3178(5) 1.2521(11) 0.0623(3)
H3 H 0.3065 1.3070 0.0897
C12 C 0.3128(6) 1.3469(10) 0.0217(3)
H4 H 0.2981 1.4645 0.0225
C13 C 0.1426(5) 0.7576(10) 0.2067(3)
H5 H 0.1490 0.6419 0.1980
C14 C 0.0819(5) 0.7997(10) 0.2365(3)
H6 H 0.0496 0.7107 0.2478
C15 C 0.2377(5) 1.1792(10) 0.1854(2)
C16 C 0.1449(4) 0.9659(10) -0.2395(3)
C17 C 0.1354(5) 0.7095(10) -0.3024(3)
H7 H 0.1339 0.6175 -0.3237
C18 C 0.1610(5) 1.1056(11) -0.2018(3)
C19 C 0.1387(5) 0.6737(10) -0.2552(3)
H8 H 0.1355 0.5584 -0.2455
C20 C 0.1353(4) 1.0025(9) -0.2872(2)
H9 H 0.195(2) 0.547(10) 0.124(3)
H10 H 0.496(6) 1.060(10) 0.157(3)
H12 H 0.456(7) 0.543(16) 0.129(3)
H13 H 0.254(7) 0.519(13) 0.1584(19)
H14 H 0.444(6) 0.552(13) 0.1753(14)
H17 H 0.503(9) 0.97(2) 0.125(5)
C21 C 0.1245(5) 1.1850(10) -0.3084(2)
O20 O 0.1909(3) 1.2428(7) -0.32510(17)
O21 O 0.0520(4) 1.2502(8) -0.3107(2)
C22 C 0.3696(5) 1.0334(11) -0.0642(3)
O22 O 0.3146(3) 0.9301(7) -0.08457(17)
O23 O 0.4341(4) 1.0881(10) -0.0790(2)
C23 C 0.1169(5) 1.0876(10) 0.2310(2)
N8 N 0.0687(4) 0.9640(9) 0.2493(2)
C24 C 0.0934(5) 1.2720(10) 0.2435(3)
O24 O 0.1248(3) 1.3233(7) 0.28461(18)
O25 O 0.0445(3) 1.3566(7) 0.21471(18)
Th1A Th 0.174945(18) 1.34321(4) 0.365696(9)
Th2A Th 0.298001(18) 1.27199(3) -0.374476(9)
O20A O 0.3091(3) 0.7428(7) -0.17490(17)
O24A O 0.3752(3) 0.8233(7) 0.21539(18)
O17 O 0.4955(6) 0.5393(13) -0.0746(3)
H11 H 0.510(5) 0.475(9) -0.053(2)
H15 H 0.470(8) 0.597(17) -0.058(4)
O18 O 0.0891(7) 0.4651(14) 0.0899(3)
H16 H 0.093(7) 0.514(14) 0.066(2)
H18 H 0.062(15) 0.39(2) 0.099(9)
O19 O 0.0076(12) 0.638(3) 0.1327(8)
loop_
_geom_bond_atom_site_label_1
_geom_bond_atom_site_label_2
_geom_bond_site_symmetry_1
_geom_bond_site_symmetry_2
Th1 O3 1_555 1_555
Th2 O1 1_555 1_555
O1 C5 1_555 1_555
O2 C5 1_555 1_555
O3 C6 1_555 1_555
O4 C6 1_555 1_555
O5 Th1 1_555 1_555
O6 C9 1_555 1_555
O7 Th1 1_555 1_555
O8 Th1 1_555 1_555
O9 Th1 1_555 1_555
O10 Th1 1_555 1_555
O11 C15 1_555 1_555
O12 Th2 1_555 1_555
O13 C18 1_555 1_555
O14 Th2 1_555 1_555
O15 Th2 1_555 1_555
O16 Th2 1_555 1_555
O17 H11 1_555 1_555
O18 H16 1_555 1_555
N1 Th2 1_555 1_555
N2 C2 1_555 1_555
N3 Th1 1_555 1_555
N4 C7 1_555 1_555
N5 Th1 1_555 1_555
N6 C17 1_555 1_555
N7 Th2 1_555 1_555
C1 N1 1_555 1_555
H1 C1 1_555 1_555
C2 C1 1_555 1_555
H2 C2 1_555 1_555
C3 N2 1_555 1_555
C4 N1 1_555 1_555
C5 C4 1_555 1_555
C6 C3 1_555 1_555
C7 C8 1_555 1_555
C8 N3 1_555 1_555
C9 O5 1_555 1_555
C10 N5 1_555 1_555
C11 N3 1_555 1_555
H3 C11 1_555 1_555
C12 N4 1_555 1_555
H4 C12 1_555 1_555
C13 N5 1_555 1_555
H5 C13 1_555 1_555
C14 C13 1_555 1_555
H6 C14 1_555 1_555
C15 O9 1_555 1_555
C16 N7 1_555 1_555
C17 H7 1_555 1_555
C18 O12 1_555 1_555
C19 N7 1_555 1_555
H8 C19 1_555 1_555
C20 N6 1_555 1_555
H9 O7 1_555 1_555
H10 O10 1_555 1_555
H12 O8 1_555 1_555
H13 O7 1_555 1_555
H14 O8 1_555 1_555
H15 O17 1_555 1_555
H17 O10 1_555 1_555
H18 O18 1_555 1_555
C21 C20 1_555 1_555
O20 C21 1_555 1_555
O21 C21 1_555 1_555
C22 C7 1_555 1_555
O22 Th2 1_555 1_555
O23 C22 1_555 1_555
C23 C10 1_555 1_555
N8 C14 1_555 1_555
C24 C23 1_555 1_555
O24 C24 1_555 1_555
O25 C24 1_555 1_555
Th1A O24 1_555 1_555
Th2A O20 1_555 1_555
O20A Th2 1_555 1_555
O24A Th1 1_555 1_555
C3 C4 1_555 1_555
C8 C9 1_555 1_555
C10 C15 1_555 1_555
C11 C12 1_555 1_555
C16 C18 1_555 1_555
C16 C20 1_555 1_555
C17 C19 1_555 1_555
C22 O22 1_555 1_555
C23 N8 1_555 1_555

#END
