
#######################################################################
#
#                 Cambridge Crystallographic Data Centre
#                                CCDC 
#
#######################################################################
#
# If this CIF has been generated from an entry in the Cambridge 
# Structural Database, then it will include bibliographic, chemical, 
# crystal, experimental, refinement or atomic coordinate data resulting 
# from the CCDC's data processing and validation procedures.
#
#######################################################################

data_JOJMEB
_symmetry_cell_setting           monoclinic
_symmetry_space_group_name_H-M   'C 2/c'
_symmetry_Int_Tables_number      15
_space_group_name_Hall           '-C 2yn'
loop_
_symmetry_equiv_pos_site_id
_symmetry_equiv_pos_as_xyz
1 x,y,z
2 1/2+x,1/2+y,z
3 -x,y,1/2-z
4 1/2-x,1/2+y,1/2-z
5 -x,-y,-z
6 1/2-x,1/2-y,-z
7 x,-y,1/2+z
8 1/2+x,1/2-y,1/2+z
_cell_length_a                   17.3951(9)
_cell_length_b                   7.2453(3)
_cell_length_c                   15.2827(9)
_cell_angle_alpha                90
_cell_angle_beta                 117.7440(10)
_cell_angle_gamma                90
_cell_volume                     1704.69
loop_
_atom_site_label
_atom_site_type_symbol
_atom_site_fract_x
_atom_site_fract_y
_atom_site_fract_z
Th1 Th 0.0000 0.22720(2) 0.7500
O1 O 0.04961(15) 0.4846(3) 0.85773(17)
O2 O 0.14088(15) 0.6912(3) 0.96282(17)
O3 O 0.13264(14) -0.2832(3) 0.70932(16)
O4 O 0.08631(15) -0.0385(3) 0.76111(16)
O5 O -0.11831(16) 0.3478(3) 0.77789(19)
C1 C 0.1922(2) 0.3862(4) 0.9653(2)
C2 C 0.1234(2) 0.5362(4) 0.9265(2)
C3 C 0.2744(2) 0.4152(4) 1.0436(2)
H1 H 0.2892 0.5319 1.0719
C4 C 0.0430(2) -0.1582(4) 0.5122(2)
H2 H 0.0734 -0.2687 0.5236
C5 C 0.0391(2) -0.0698(4) 0.5911(2)
C6 C 0.0893(2) -0.1399(4) 0.6955(2)
N1 N 0.16730(17) 0.2213(4) 0.92069(19)
N2 N -0.00443(18) 0.0887(4) 0.5789(2)
H5 H -0.145(3) 0.291(5) 0.800(3)
H6 H -0.123(3) 0.453(3) 0.789(3)
Th1G Th 0.5000 0.27280(2) 1.2500
Th1F Th 0.0000 -0.22720(2) 0.2500
O1E O 0.45039(15) 0.0154(3) 1.14227(17)
O1B O -0.04961(15) 0.4846(3) 0.64227(17)
O2E O 0.35912(15) -0.1912(3) 1.03718(17)
O3D O -0.13264(14) 0.2832(3) 0.29068(16)
O4D O -0.08631(15) 0.0385(3) 0.23889(16)
O4B O -0.08631(15) -0.0385(3) 0.73889(16)
O5B O 0.11831(16) 0.3478(3) 0.72211(19)
C1E C 0.3078(2) 0.1138(4) 1.0347(2)
C2E C 0.3766(2) -0.0362(4) 1.0735(2)
C3E C 0.2256(2) 0.0848(4) 0.9564(2)
H1E H 0.2108 -0.0319 0.9281
C4D C -0.0430(2) 0.1582(4) 0.4878(2)
H2D H -0.0734 0.2687 0.4764
C5D C -0.0391(2) 0.0698(4) 0.4089(2)
C6D C -0.0893(2) 0.1399(4) 0.3045(2)
N1E N 0.33270(17) 0.2787(4) 1.07931(19)
N1B N -0.16730(17) 0.2213(4) 0.57931(19)
N2D N 0.00443(18) -0.0887(4) 0.4211(2)
N2B N 0.00443(18) 0.0887(4) 0.9211(2)
H5B H 0.145(3) 0.291(5) 0.700(3)
H6B H 0.123(3) 0.453(3) 0.711(3)
O6 O -0.20189(17) 0.1591(4) 0.85327(19)
H3 H -0.188(3) 0.202(6) 0.9077(19)
H4 H -0.2518(15) 0.181(5) 0.815(3)
loop_
_geom_bond_atom_site_label_1
_geom_bond_atom_site_label_2
_geom_bond_site_symmetry_1
_geom_bond_site_symmetry_2
Th1 O1 1_555 1_555
O1 C2 1_555 1_555
O2 C2 1_555 1_555
O3 C6 1_555 1_555
O4 Th1 1_555 1_555
O5 Th1 1_555 1_555
O6 H3 1_555 1_555
C1 C2 1_555 1_555
C3 C1 1_555 1_555
H1 C3 1_555 1_555
C4 H2 1_555 1_555
C5 C4 1_555 1_555
C6 O4 1_555 1_555
N1 Th1 1_555 1_555
N2 Th1 1_555 1_555
H4 O6 1_555 1_555
H5 O5 1_555 1_555
H6 O5 1_555 1_555
Th1G O1E 1_555 1_555
Th1F O4D 1_555 1_555
O1E C2E 1_555 1_555
O1B Th1 1_555 1_555
O2E C2E 1_555 1_555
O3D C6D 1_555 1_555
O4D C6D 1_555 1_555
O4B Th1 1_555 1_555
O5B Th1 1_555 1_555
C1E C2E 1_555 1_555
C3E N1 1_555 1_555
H1E C3E 1_555 1_555
C4D N2 1_555 1_555
H2D C4D 1_555 1_555
C5D C4D 1_555 1_555
C6D C5D 1_555 1_555
N1E C3 1_555 1_555
N1B Th1 1_555 1_555
N2D C4 1_555 1_555
N2B Th1 1_555 1_555
H5B O5B 1_555 1_555
H6B O5B 1_555 1_555
C1 N1 1_555 1_555
C5 C6 1_555 1_555
C5 N2 1_555 1_555
Th1G N1E 1_555 1_555
Th1F N2D 1_555 1_555
C1E C3E 1_555 1_555
C1E N1E 1_555 1_555
C5D N2D 1_555 1_555

#END
