
#######################################################################
#
#                 Cambridge Crystallographic Data Centre
#                                CCDC 
#
#######################################################################
#
# If this CIF has been generated from an entry in the Cambridge 
# Structural Database, then it will include bibliographic, chemical, 
# crystal, experimental, refinement or atomic coordinate data resulting 
# from the CCDC's data processing and validation procedures.
#
#######################################################################

data_JOKFIY
_symmetry_cell_setting           monoclinic
_symmetry_space_group_name_H-M   'C 2/c'
_symmetry_Int_Tables_number      15
_space_group_name_Hall           '-C 2yn'
loop_
_symmetry_equiv_pos_site_id
_symmetry_equiv_pos_as_xyz
1 x,y,z
2 1/2+x,1/2+y,z
3 -x,y,1/2-z
4 1/2-x,1/2+y,1/2-z
5 -x,-y,-z
6 1/2-x,1/2-y,-z
7 x,-y,1/2+z
8 1/2+x,1/2-y,1/2+z
_cell_length_a                   15.612(3)
_cell_length_b                   10.288(2)
_cell_length_c                   15.736(4)
_cell_angle_alpha                90
_cell_angle_beta                 90.70(2)
_cell_angle_gamma                90
_cell_volume                     2527.27
loop_
_atom_site_label
_atom_site_type_symbol
_atom_site_fract_x
_atom_site_fract_y
_atom_site_fract_z
Cr1 Cr 0.2500 0.2500 0.0000
Na1 Na 0.0000 -0.0191(2) -0.2500
N1 N 0.1614(2) 0.1143(3) -0.0270(2)
N2 N 0.1481(2) 0.0584(3) -0.0917(2)
N3 N 0.1317(2) 0.0000(3) -0.1529(2)
N4 N 0.3185(2) 0.1941(3) -0.1019(2)
N5 N 0.3777(2) 0.2527(3) -0.1315(1)
N6 N 0.4348(2) 0.3051(3) -0.1619(2)
N7 N 0.1839(2) 0.3866(3) -0.0753(2)
C1 C 0.2252(2) 0.4687(3) -0.1269(2)
C2 C 0.1835(2) 0.5617(4) -0.1750(2)
C3 C 0.0959(3) 0.5746(4) -0.1691(2)
C4 C 0.0524(2) 0.4911(4) -0.1164(2)
C5 C 0.0978(2) 0.3987(3) -0.0709(2)
N8 N -0.0684(2) 0.1512(3) -0.1607(2)
C6 C -0.0692(2) 0.1417(4) -0.0766(2)
C7 C -0.1147(3) 0.2237(3) -0.0251(3)
C8 C -0.1630(3) 0.3204(4) -0.0611(3)
C9 C -0.1626(3) 0.3334(4) -0.1480(3)
C10 C -0.1148(2) 0.2468(4) -0.1946(2)
H1 H 0.2941 0.4617 -0.1307
H2 H 0.2192 0.6241 -0.2169
H3 H 0.0621 0.6481 -0.2052
H4 H -0.0163 0.4980 -0.1107
H5 H 0.0631 0.3334 -0.0301
H6 H -0.0319 0.0653 -0.0469
H7 H -0.1125 0.2117 0.0431
H8 H -0.2005 0.3851 -0.0223
H9 H -0.1989 0.4095 -0.1792
H10 H -0.1150 0.2574 -0.2629
N3B N -0.1317(2) 0.0000(3) -0.3471(2)
N2B N -0.1481(2) 0.0584(3) -0.4083(2)
N1B N -0.1614(2) 0.1143(3) -0.4730(2)
Cr1B Cr -0.2500 0.2500 -0.5000
N6C N 0.0652(2) -0.1949(3) -0.3381(2)
N8B N 0.0684(2) 0.1512(3) -0.3393(2)
N1E N 0.3386(2) 0.3857(3) 0.0270(2)
N4E N 0.1815(2) 0.3059(3) 0.1019(2)
N7E N 0.3161(2) 0.1134(3) 0.0753(2)
N6A N -0.0652(2) -0.1949(3) -0.1619(2)
C6B C 0.0692(2) 0.1417(4) -0.4234(2)
C10B C 0.1148(2) 0.2468(4) -0.3054(2)
N2E N 0.3519(2) 0.4416(3) 0.0917(2)
C1E C 0.2748(2) 0.0313(3) 0.1269(2)
C5E C 0.4022(2) 0.1013(3) 0.0709(2)
Na1A Na 0.5000 0.4809(2) -0.2500
C7B C 0.1147(3) 0.2237(3) -0.4749(3)
H6B H 0.0319 0.0653 -0.4531
C9B C 0.1626(3) 0.3334(4) -0.3520(3)
H10B H 0.1150 0.2574 -0.2371
N3E N 0.3683(2) 0.5000(3) 0.1529(2)
C2E C 0.3165(2) -0.0617(4) 0.1750(2)
H1E H 0.2059 0.0383 0.1307
C4E C 0.4476(2) 0.0089(4) 0.1164(2)
H5E H 0.4369 0.1666 0.0301
C8B C 0.1630(3) 0.3204(4) -0.4389(3)
H7B H 0.1125 0.2117 -0.5431
H9B H 0.1989 0.4095 -0.3208
Na1E Na 0.5000 0.5191(2) 0.2500
C3E C 0.4041(3) -0.0746(4) 0.1691(2)
H2E H 0.2808 -0.1241 0.2169
H4E H 0.5163 0.0020 0.1107
H8B H 0.2005 0.3851 -0.4777
H3E H 0.4379 -0.1481 0.2052
loop_
_geom_bond_atom_site_label_1
_geom_bond_atom_site_label_2
_geom_bond_site_symmetry_1
_geom_bond_site_symmetry_2
Cr1 N1 1_555 1_555
Na1 N3 1_555 1_555
N1 N2 1_555 1_555
N2 N3 1_555 1_555
N4 Cr1 1_555 1_555
N5 N4 1_555 1_555
N6 N5 1_555 1_555
N7 Cr1 1_555 1_555
C1 N7 1_555 1_555
C2 C1 1_555 1_555
C3 C2 1_555 1_555
C4 C3 1_555 1_555
C5 N7 1_555 1_555
N8 Na1 1_555 1_555
C6 N8 1_555 1_555
C7 C6 1_555 1_555
C8 C7 1_555 1_555
C9 C8 1_555 1_555
C10 N8 1_555 1_555
H1 C1 1_555 1_555
H2 C2 1_555 1_555
H3 C3 1_555 1_555
H4 C4 1_555 1_555
H5 C5 1_555 1_555
H6 C6 1_555 1_555
H7 C7 1_555 1_555
H8 C8 1_555 1_555
H9 C9 1_555 1_555
H10 C10 1_555 1_555
N3B Na1 1_555 1_555
N2B N3B 1_555 1_555
N1B N2B 1_555 1_555
Cr1B N1B 1_555 1_555
N6C Na1 1_555 1_555
N8B Na1 1_555 1_555
N1E Cr1 1_555 1_555
N4E Cr1 1_555 1_555
N7E Cr1 1_555 1_555
N6A Na1 1_555 1_555
C6B N8B 1_555 1_555
C10B N8B 1_555 1_555
N2E N1E 1_555 1_555
C1E N7E 1_555 1_555
C5E N7E 1_555 1_555
Na1A N6 1_555 1_555
C7B C6B 1_555 1_555
H6B C6B 1_555 1_555
C9B C10B 1_555 1_555
H10B C10B 1_555 1_555
N3E N2E 1_555 1_555
C2E C1E 1_555 1_555
H1E C1E 1_555 1_555
C4E C5E 1_555 1_555
H5E C5E 1_555 1_555
C8B C7B 1_555 1_555
H7B C7B 1_555 1_555
H9B C9B 1_555 1_555
Na1E N3E 1_555 1_555
C3E C2E 1_555 1_555
H2E C2E 1_555 1_555
H4E C4E 1_555 1_555
H8B C8B 1_555 1_555
H3E C3E 1_555 1_555
C4 C5 1_555 1_555
C9 C10 1_555 1_555
C9B C8B 1_555 1_555
C4E C3E 1_555 1_555

#END
