
#######################################################################
#
#                 Cambridge Crystallographic Data Centre
#                                CCDC 
#
#######################################################################
#
# If this CIF has been generated from an entry in the Cambridge 
# Structural Database, then it will include bibliographic, chemical, 
# crystal, experimental, refinement or atomic coordinate data resulting 
# from the CCDC's data processing and validation procedures.
#
#######################################################################

data_JOKHAU
_symmetry_cell_setting           triclinic
_symmetry_space_group_name_H-M   'P -1'
_symmetry_Int_Tables_number      2
_space_group_name_Hall           '-P 1'
loop_
_symmetry_equiv_pos_site_id
_symmetry_equiv_pos_as_xyz
1 x,y,z
2 -x,-y,-z
_cell_length_a                   7.4883(7)
_cell_length_b                   10.3740(10)
_cell_length_c                   10.3836(10)
_cell_angle_alpha                89.284(2)
_cell_angle_beta                 83.3730(10)
_cell_angle_gamma                75.614(2)
_cell_volume                     776.012
loop_
_atom_site_label
_atom_site_type_symbol
_atom_site_fract_x
_atom_site_fract_y
_atom_site_fract_z
O6 O 0.7061(4) 0.3599(3) 0.3613(3)
H9 H 0.6029 0.4146 0.3854
H10 H 0.7390 0.3130 0.4263
Cu1 Cu 0.21592(5) 0.88590(4) 0.29293(4)
O1 O 0.0021(3) 1.0448(2) 0.3451(2)
O2 O 0.3734(3) 0.6974(2) 0.2760(3)
O3 O -0.2860(3) 1.0955(2) 0.4481(2)
O4 O 0.3480(4) 0.4876(2) 0.2970(3)
O5 O 0.8633(3) 1.1419(3) -0.0745(2)
N1 N 0.4008(4) 0.9814(3) 0.2250(2)
N2 N 0.0336(3) 0.7959(3) 0.3576(2)
N3 N 0.8172(6) 1.2872(4) 0.0917(4)
H1 H 0.7649 1.3094 0.1691
C1 C 0.3642(5) 1.1145(3) 0.2313(3)
H2 H 0.2525 1.1612 0.2760
C2 C 0.4852(5) 1.1849(3) 0.1744(3)
H3 H 0.4561 1.2773 0.1815
C3 C 0.6514(4) 1.1158(3) 0.1063(3)
C4 C 0.6898(4) 0.9783(3) 0.0993(3)
H4 H 0.7997 0.9294 0.0539
C5 C 0.5630(4) 0.9147(3) 0.1605(3)
H5 H 0.5907 0.8222 0.1571
C6 C 0.7867(5) 1.1835(4) 0.0331(3)
C7 C 0.9323(11) 1.3697(8) 0.0247(7)
C8 C 1.0534(19) 1.4010(14) 0.0628(13)
C9 C 0.8618(17) 1.4962(11) 0.0216(9)
C10 C -0.1450(4) 1.0157(3) 0.3979(3)
C11 C -0.1361(4) 0.8679(3) 0.3994(3)
C12 C -0.2775(5) 0.8062(4) 0.4346(3)
H6 H -0.3963 0.8551 0.4654
C13 C -0.2359(5) 0.6673(4) 0.4225(3)
H7 H -0.3288 0.6230 0.4438
C14 C -0.0574(5) 0.5953(3) 0.3790(3)
H8 H -0.0294 0.5031 0.3708
C15 C 0.0777(5) 0.6635(3) 0.3480(3)
C16 C 0.2840(5) 0.6088(3) 0.3033(3)
O5A O 1.1367(3) 1.8581(3) 0.0745(2)
N1A N 1.5992(4) 2.0186(3) -0.2250(2)
N3A N 1.1828(6) 1.7128(4) -0.0917(4)
H1A H 1.2351 1.6906 -0.1691
C1A C 1.6358(5) 1.8855(3) -0.2313(3)
H2A H 1.7475 1.8388 -0.2760
C2A C 1.5148(5) 1.8151(3) -0.1744(3)
H3A H 1.5439 1.7227 -0.1815
C3A C 1.3486(4) 1.8842(3) -0.1063(3)
C4A C 1.3102(4) 2.0217(3) -0.0993(3)
H4A H 1.2003 2.0706 -0.0539
C5A C 1.4370(4) 2.0853(3) -0.1605(3)
H5A H 1.4093 2.1778 -0.1571
C6A C 1.2133(5) 1.8165(4) -0.0331(3)
C7A C 1.0677(11) 1.6303(8) -0.0247(7)
C8A C 0.9466(19) 1.5990(14) -0.0628(13)
C9A C 1.1382(17) 1.5038(11) -0.0216(9)
Cu1A Cu 0.78408(5) 1.11410(4) -0.29293(4)
O1A O 0.9979(3) 0.9552(2) -0.3451(2)
O2A O 0.6266(3) 1.3026(2) -0.2760(3)
O3A O 1.2860(3) 0.9045(2) -0.4481(2)
O4A O 0.6520(4) 1.5124(2) -0.2970(3)
N2A N 0.9664(3) 1.2041(3) -0.3576(2)
C10A C 1.1450(4) 0.9843(3) -0.3979(3)
C11A C 1.1361(4) 1.1321(3) -0.3994(3)
C12A C 1.2775(5) 1.1938(4) -0.4346(3)
H6A H 1.3963 1.1449 -0.4654
C13A C 1.2359(5) 1.3327(4) -0.4225(3)
H7A H 1.3288 1.3770 -0.4438
C14A C 1.0574(5) 1.4047(3) -0.3790(3)
H8A H 1.0294 1.4969 -0.3708
C15A C 0.9223(5) 1.3365(3) -0.3480(3)
C16A C 0.7160(5) 1.3912(3) -0.3033(3)
Cu1_2 Cu 1.21592(5) 1.88590(4) 0.29293(4)
Cu1A_2 Cu 1.78408(5) 2.11410(4) -0.29293(4)
O5A_2 O 0.1367(3) 0.8581(3) 0.0745(2)
N1A_2 N 0.5992(4) 1.0186(3) -0.2250(2)
loop_
_geom_bond_atom_site_label_1
_geom_bond_atom_site_label_2
_geom_bond_site_symmetry_1
_geom_bond_site_symmetry_2
Cu1 O1 1_555 1_555
O1 C10 1_555 1_555
O2 Cu1 1_555 1_555
O3 C10 1_555 1_555
O4 C16 1_555 1_555
O5 C6 1_555 1_555
N1 Cu1 1_555 1_555
N2 Cu1 1_555 1_555
N3 H1 1_555 1_555
C1 N1 1_555 1_555
H2 C1 1_555 1_555
C2 C1 1_555 1_555
H3 C2 1_555 1_555
C3 C2 1_555 1_555
C4 C3 1_555 1_555
H4 C4 1_555 1_555
C5 N1 1_555 1_555
H5 C5 1_555 1_555
C6 N3 1_555 1_555
C7 N3 1_555 1_555
C8 C7 1_555 1_555
C9 C7 1_555 1_555
C10 C11 1_555 1_555
C11 N2 1_555 1_555
C12 C11 1_555 1_555
H6 C12 1_555 1_555
C13 C12 1_555 1_555
H7 C13 1_555 1_555
C14 C13 1_555 1_555
H8 C14 1_555 1_555
C15 N2 1_555 1_555
C16 O2 1_555 1_555
O6 H9 1_555 1_555
H10 O6 1_555 1_555
O5A C6A 1_555 1_555
N1A C1A 1_555 1_555
N3A H1A 1_555 1_555
C1A H2A 1_555 1_555
C2A C1A 1_555 1_555
H3A C2A 1_555 1_555
C3A C2A 1_555 1_555
C4A C3A 1_555 1_555
H4A C4A 1_555 1_555
C5A N1A 1_555 1_555
H5A C5A 1_555 1_555
C6A N3A 1_555 1_555
C7A N3A 1_555 1_555
C8A C9 1_555 1_555
C9A C8 1_555 1_555
Cu1A O5 1_555 1_555
O1A Cu1A 1_555 1_555
O2A Cu1A 1_555 1_555
O3A C10A 1_555 1_555
O4A C16A 1_555 1_555
N2A Cu1A 1_555 1_555
C10A O1A 1_555 1_555
C11A N2A 1_555 1_555
C12A C11A 1_555 1_555
H6A C12A 1_555 1_555
C13A C12A 1_555 1_555
H7A C13A 1_555 1_555
C14A C13A 1_555 1_555
H8A C14A 1_555 1_555
C15A N2A 1_555 1_555
C16A O2A 1_555 1_555
Cu1_2 O5A 1_555 1_555
Cu1A_2 N1A 1_555 1_555
O5A_2 Cu1 1_555 1_555
N1A_2 Cu1A 1_555 1_555
C3 C6 1_555 1_555
C4 C5 1_555 1_555
C8 C9 1_555 1_555
C14 C15 1_555 1_555
C15 C16 1_555 1_555
C3A C6A 1_555 1_555
C4A C5A 1_555 1_555
C7A C8A 1_555 1_555
C7A C9A 1_555 1_555
C8A C9A 1_555 1_555
C10A C11A 1_555 1_555
C14A C15A 1_555 1_555
C15A C16A 1_555 1_555

#END
