
#######################################################################
#
#                 Cambridge Crystallographic Data Centre
#                                CCDC 
#
#######################################################################
#
# If this CIF has been generated from an entry in the Cambridge 
# Structural Database, then it will include bibliographic, chemical, 
# crystal, experimental, refinement or atomic coordinate data resulting 
# from the CCDC's data processing and validation procedures.
#
#######################################################################

data_JOKHIC
_symmetry_cell_setting           triclinic
_symmetry_space_group_name_H-M   'P -1'
_symmetry_Int_Tables_number      2
_space_group_name_Hall           '-P 1'
loop_
_symmetry_equiv_pos_site_id
_symmetry_equiv_pos_as_xyz
1 x,y,z
2 -x,-y,-z
_cell_length_a                   10.0355(8)
_cell_length_b                   11.9217(9)
_cell_length_c                   12.0148(9)
_cell_angle_alpha                96.4150(10)
_cell_angle_beta                 97.8910(10)
_cell_angle_gamma                111.8040(10)
_cell_volume                     1301.12
loop_
_atom_site_label
_atom_site_type_symbol
_atom_site_fract_x
_atom_site_fract_y
_atom_site_fract_z
Cu1 Cu 0.98653(3) 0.32518(3) 0.27399(3)
O1 O 0.78914(16) 0.30259(15) 0.20357(15)
O2 O 0.9920(2) 0.38051(17) 0.46073(16)
H1 H 0.9062 0.3749 0.4661
H2 H 1.0235 0.3532 0.5165
O3 O 0.06581(18) 0.27808(19) 0.08125(16)
O4 O 0.67810(19) 0.31760(18) 0.35019(16)
O5 O 0.18499(16) 0.33684(15) 0.26060(14)
O6 O 0.9174(2) -0.25657(19) 0.3796(2)
O7 O 1.3617(3) 0.9483(2) 0.2568(2)
N1 N 0.9286(2) 0.14812(19) 0.30182(18)
N2 N 1.0594(2) 0.50645(18) 0.25755(17)
N3 N 0.7124(2) -0.26026(18) 0.43811(18)
H3 H 0.6564 -0.2218 0.4486
N4 N 1.2458(3) 0.8824(2) 0.0743(2)
H4 H 1.1845 0.8202 0.0254
C1 C 0.8055(3) 0.0923(3) 0.3384(3)
H5 H 0.7420 0.1321 0.3433
C2 C 0.7672(3) -0.0224(3) 0.3695(3)
H6 H 0.6799 -0.0578 0.3947
C3 C 0.8587(3) -0.0836(2) 0.3631(2)
C4 C 0.9861(3) -0.0259(3) 0.3254(3)
H7 H 1.0512 -0.0641 0.3194
C5 C 1.0174(3) 0.0886(3) 0.2964(3)
H8 H 1.1047 0.1261 0.2718
C6 C 0.8309(3) -0.2076(2) 0.3951(2)
C7 C 0.6752(3) -0.3821(2) 0.4680(2)
H9 H 0.7342 -0.3754 0.5414
H10 H 0.6981 -0.4333 0.4115
C8 C 0.5154(3) -0.4422(2) 0.4738(2)
H11 H 0.4567 -0.4633 0.3975
H12 H 0.4879 -0.3849 0.5192
C9 C 1.0065(3) 0.5391(2) 0.1642(2)
H13 H 0.9230 0.4816 0.1154
C10 C 1.0693(3) 0.6537(2) 0.1364(2)
H14 H 1.0291 0.6719 0.0699
C11 C 1.1924(3) 0.7416(2) 0.2081(2)
C12 C 1.2442(3) 0.7098(2) 0.3072(2)
H15 H 1.3243 0.7672 0.3594
C13 C 1.1766(3) 0.5928(2) 0.3283(2)
H16 H 1.2141 0.5727 0.3948
C14 C 1.2730(3) 0.8674(2) 0.1816(2)
C15 C 1.3137(4) 0.9986(3) 0.0333(3)
H17 H 1.3569 1.0651 0.0984
H18 H 1.2382 1.0139 -0.0142
C16 C 1.4310(4) 0.9989(3) -0.0348(3)
H19 H 1.3906 0.9265 -0.0941
H20 H 1.4559 1.0701 -0.0720
C17 C 0.6853(2) 0.3146(2) 0.2479(2)
C18 C 0.5639(2) 0.3225(2) 0.1635(2)
C19 C 0.4351(2) 0.3181(2) 0.1977(2)
H21 H 0.4259 0.3152 0.2734
C20 C 0.3205(2) 0.3179(2) 0.1182(2)
C21 C 0.1799(2) 0.3107(2) 0.1542(2)
C22 C 0.3359(3) 0.3254(2) 0.0061(2)
H22 H 0.2581 0.3244 -0.0466
C23 C 0.4649(3) 0.3345(2) -0.0292(2)
C24 C 0.4822(3) 0.3449(3) -0.1506(2)
H23 H 0.4180 0.3802 -0.1840
H24 H 0.4581 0.2648 -0.1936
H25 H 0.5816 0.3963 -0.1516
C25 C 0.5774(3) 0.3317(2) 0.0510(2)
H26 H 0.6640 0.3361 0.0285
O6A O 0.0826(2) -0.74343(19) 0.6204(2)
N1A N 0.0714(2) -1.14812(19) 0.69818(18)
N3A N 0.2876(2) -0.73974(18) 0.56189(18)
H3A H 0.3436 -0.7782 0.5514
C1A C 0.1945(3) -1.0923(3) 0.6616(3)
H5A H 0.2580 -1.1321 0.6567
C2A C 0.2328(3) -0.9776(3) 0.6305(3)
H6A H 0.3201 -0.9422 0.6053
C3A C 0.1413(3) -0.9164(2) 0.6369(2)
C4A C 0.0139(3) -0.9741(3) 0.6746(3)
H7A H -0.0512 -0.9359 0.6806
C5A C -0.0174(3) -1.0886(3) 0.7036(3)
H8A H -0.1047 -1.1261 0.7282
C6A C 0.1691(3) -0.7924(2) 0.6049(2)
C7A C 0.3248(3) -0.6179(2) 0.5320(2)
H9A H 0.2658 -0.6246 0.4586
H10A H 0.3019 -0.5667 0.5885
C8A C 0.4846(3) -0.5578(2) 0.5262(2)
H11A H 0.5433 -0.5367 0.6025
H12A H 0.5121 -0.6151 0.4808
O7A O 1.6383(3) 1.0517(2) -0.2568(2)
N2A N 1.9406(2) 1.49355(18) -0.25755(17)
N4A N 1.7542(3) 1.1176(2) -0.0743(2)
H4A H 1.8155 1.1798 -0.0254
C9A C 1.9935(3) 1.4609(2) -0.1642(2)
H13A H 2.0770 1.5184 -0.1154
C10A C 1.9307(3) 1.3463(2) -0.1364(2)
H14A H 1.9709 1.3281 -0.0699
C11A C 1.8076(3) 1.2584(2) -0.2081(2)
C12A C 1.7558(3) 1.2902(2) -0.3072(2)
H15A H 1.6757 1.2328 -0.3594
C13A C 1.8234(3) 1.4072(2) -0.3283(2)
H16A H 1.7859 1.4273 -0.3948
C14A C 1.7270(3) 1.1326(2) -0.1816(2)
C15A C 1.6863(4) 1.0014(3) -0.0333(3)
H17A H 1.6431 0.9349 -0.0984
H18A H 1.7618 0.9861 0.0142
C16A C 1.5690(4) 1.0011(3) 0.0348(3)
H19A H 1.6094 1.0735 0.0941
H20A H 1.5441 0.9299 0.0720
Cu1A Cu 0.01347(3) -1.32518(3) 0.72601(3)
O1A O 0.21086(16) -1.30259(15) 0.79643(15)
O2A O 0.0080(2) -1.38051(17) 0.53927(16)
H1A H 0.0938 -1.3749 0.5339
H2A H -0.0235 -1.3532 0.4835
O3A O 0.93419(18) -1.27808(19) 0.91875(16)
O4A O 0.32190(19) -1.31760(18) 0.64981(16)
O5A O 0.81501(16) -1.33684(15) 0.73940(14)
C17A C 0.3147(2) -1.3146(2) 0.7521(2)
C18A C 0.4361(2) -1.3225(2) 0.8365(2)
C19A C 0.5649(2) -1.3181(2) 0.8023(2)
H21A H 0.5741 -1.3152 0.7266
C20A C 0.6795(2) -1.3179(2) 0.8818(2)
C21A C 0.8201(2) -1.3107(2) 0.8458(2)
C22A C 0.6641(3) -1.3254(2) 0.9939(2)
H22A H 0.7419 -1.3244 1.0466
C23A C 0.5351(3) -1.3345(2) 1.0292(2)
C24A C 0.5178(3) -1.3449(3) 1.1506(2)
H23A H 0.5820 -1.3802 1.1840
H24A H 0.5419 -1.2648 1.1936
H25A H 0.4184 -1.3963 1.1516
C25A C 0.4226(3) -1.3317(2) 0.9490(2)
H26A H 0.3360 -1.3361 0.9715
Cu1_2 Cu -0.01347(3) 0.32518(3) 0.27399(3)
Cu1A_2 Cu 1.01347(3) -1.32518(3) 0.72601(3)
Cu1A_3 Cu 2.01347(3) 1.67482(3) -0.27399(3)
O3_2 O 1.06581(18) 0.27808(19) 0.08125(16)
O3A_2 O -0.06581(18) -1.27808(19) 0.91875(16)
O5_2 O 1.18499(16) 0.33684(15) 0.26060(14)
O5A_2 O -0.18499(16) -1.33684(15) 0.73940(14)
N2A_2 N -0.0594(2) -1.50645(18) 0.74245(17)
O8 O 0.4630(3) 0.14166(19) 0.44787(19)
H27 H 0.4202 0.0847 0.3902
H28 H 0.5430 0.1896 0.4331
loop_
_geom_bond_atom_site_label_1
_geom_bond_atom_site_label_2
_geom_bond_site_symmetry_1
_geom_bond_site_symmetry_2
Cu1 O1 1_555 1_555
O1 C17 1_555 1_555
O2 Cu1 1_555 1_555
H1 O2 1_555 1_555
H2 O2 1_555 1_555
O3 C21 1_555 1_555
O4 C17 1_555 1_555
O5 C21 1_555 1_555
O6 C6 1_555 1_555
O7 C14 1_555 1_555
N1 Cu1 1_555 1_555
N2 Cu1 1_555 1_555
N3 H3 1_555 1_555
N4 H4 1_555 1_555
C1 N1 1_555 1_555
H5 C1 1_555 1_555
C2 C1 1_555 1_555
H6 C2 1_555 1_555
C3 C2 1_555 1_555
C4 C3 1_555 1_555
H7 C4 1_555 1_555
C5 N1 1_555 1_555
H8 C5 1_555 1_555
C6 N3 1_555 1_555
C7 N3 1_555 1_555
H9 C7 1_555 1_555
H10 C7 1_555 1_555
C8 C7 1_555 1_555
H11 C8 1_555 1_555
H12 C8 1_555 1_555
C9 N2 1_555 1_555
H13 C9 1_555 1_555
C10 C9 1_555 1_555
H14 C10 1_555 1_555
C11 C10 1_555 1_555
C12 C11 1_555 1_555
H15 C12 1_555 1_555
C13 N2 1_555 1_555
H16 C13 1_555 1_555
C14 N4 1_555 1_555
C15 N4 1_555 1_555
H17 C15 1_555 1_555
H18 C15 1_555 1_555
C16 C15 1_555 1_555
H19 C16 1_555 1_555
H20 C16 1_555 1_555
C17 C18 1_555 1_555
C18 C19 1_555 1_555
C19 H21 1_555 1_555
C20 C19 1_555 1_555
C21 C20 1_555 1_555
C22 C20 1_555 1_555
H22 C22 1_555 1_555
C23 C22 1_555 1_555
C24 C23 1_555 1_555
H23 C24 1_555 1_555
H24 C24 1_555 1_555
H25 C24 1_555 1_555
C25 C18 1_555 1_555
H26 C25 1_555 1_555
O8 H27 1_555 1_555
H28 O8 1_555 1_555
O6A C6A 1_555 1_555
N1A C1A 1_555 1_555
N3A H3A 1_555 1_555
C1A H5A 1_555 1_555
C2A C1A 1_555 1_555
H6A C2A 1_555 1_555
C3A C2A 1_555 1_555
C4A C3A 1_555 1_555
H7A C4A 1_555 1_555
C5A N1A 1_555 1_555
H8A C5A 1_555 1_555
C6A N3A 1_555 1_555
C7A N3A 1_555 1_555
H9A C7A 1_555 1_555
H10A C7A 1_555 1_555
C8A C8 1_555 1_555
H11A C8A 1_555 1_555
H12A C8A 1_555 1_555
O7A C14A 1_555 1_555
N2A C9A 1_555 1_555
N4A H4A 1_555 1_555
C9A H13A 1_555 1_555
C10A C9A 1_555 1_555
H14A C10A 1_555 1_555
C11A C10A 1_555 1_555
C12A C11A 1_555 1_555
H15A C12A 1_555 1_555
C13A N2A 1_555 1_555
H16A C13A 1_555 1_555
C14A N4A 1_555 1_555
C15A N4A 1_555 1_555
H17A C15A 1_555 1_555
H18A C15A 1_555 1_555
C16A C16 1_555 1_555
H19A C16A 1_555 1_555
H20A C16A 1_555 1_555
Cu1A N1A 1_555 1_555
O1A Cu1A 1_555 1_555
O2A Cu1A 1_555 1_555
H1A O2A 1_555 1_555
H2A O2A 1_555 1_555
O3A C21A 1_555 1_555
O4A C17A 1_555 1_555
O5A C21A 1_555 1_555
C17A O1A 1_555 1_555
C18A C17A 1_555 1_555
C19A C18A 1_555 1_555
H21A C19A 1_555 1_555
C20A C19A 1_555 1_555
C21A C20A 1_555 1_555
C22A C20A 1_555 1_555
H22A C22A 1_555 1_555
C23A C22A 1_555 1_555
C24A C23A 1_555 1_555
H23A C24A 1_555 1_555
H24A C24A 1_555 1_555
H25A C24A 1_555 1_555
C25A C18A 1_555 1_555
H26A C25A 1_555 1_555
Cu1_2 O3 1_555 1_555
Cu1A_2 O3A 1_555 1_555
Cu1A_3 N2A 1_555 1_555
O3_2 Cu1 1_555 1_555
O3A_2 Cu1A 1_555 1_555
O5_2 Cu1 1_555 1_555
O5A_2 Cu1A 1_555 1_555
N2A_2 Cu1A 1_555 1_555
O5 Cu1_2 1_555 1_555
C3 C6 1_555 1_555
C4 C5 1_555 1_555
C11 C14 1_555 1_555
C12 C13 1_555 1_555
C23 C25 1_555 1_555
C3A C6A 1_555 1_555
C4A C5A 1_555 1_555
C7A C8A 1_555 1_555
C11A C14A 1_555 1_555
C12A C13A 1_555 1_555
C15A C16A 1_555 1_555
O5A Cu1A_2 1_555 1_555
C23A C25A 1_555 1_555

#END
