
#######################################################################
#
#                 Cambridge Crystallographic Data Centre
#                                CCDC 
#
#######################################################################
#
# If this CIF has been generated from an entry in the Cambridge 
# Structural Database, then it will include bibliographic, chemical, 
# crystal, experimental, refinement or atomic coordinate data resulting 
# from the CCDC's data processing and validation procedures.
#
#######################################################################

data_JOKJEZ
_symmetry_cell_setting           orthorhombic
_symmetry_space_group_name_H-M   'P c n n'
_symmetry_Int_Tables_number      52
_space_group_name_Hall           '-P 2ab 2c'
loop_
_symmetry_equiv_pos_site_id
_symmetry_equiv_pos_as_xyz
1 x,y,z
2 1/2-x,1/2-y,z
3 x,-y,1/2-z
4 1/2-x,1/2+y,1/2-z
5 -x,-y,-z
6 1/2+x,1/2+y,-z
7 -x,y,1/2+z
8 1/2+x,1/2-y,1/2+z
_cell_length_a                   9.7547(4)
_cell_length_b                   24.8590(14)
_cell_length_c                   26.5314(11)
_cell_angle_alpha                90
_cell_angle_beta                 90
_cell_angle_gamma                90
_cell_volume                     6433.65
loop_
_atom_site_label
_atom_site_type_symbol
_atom_site_fract_x
_atom_site_fract_y
_atom_site_fract_z
Pr1 Pr 1.01066(3) 0.251768(10) 0.338998(12)
O1 O 0.8319(4) 0.18988(13) 0.35085(13)
O2 O 0.6253(3) 0.16828(14) 0.32317(13)
O3 O 1.1135(4) 0.19286(14) 0.40893(13)
O4 O 1.3276(4) 0.19244(14) 0.38087(15)
O5 O 1.1386(3) 0.18037(14) 0.29860(15)
O6 O 0.9069(3) 0.28148(14) 0.42244(13)
O7 O 1.3518(4) 0.20033(15) 0.27415(14)
O8 O 0.9076(4) 0.22982(16) 0.25333(14)
O9 O 1.0629(5) 0.24871(17) 0.19381(18)
H1 H 1.0897 0.2703 0.2150
O10 O 1.0110(5) 0.24299(19) 0.4878(2)
H2 H 1.0519 0.2274 0.4651
C1 C 0.7407(5) 0.1561(2) 0.33994(18)
C2 C 1.2587(6) 0.1209(2) 0.4327(2)
C3 C 0.9464(5) 0.2258(2) 0.2097(2)
C4 C 1.2322(5) 0.1725(2) 0.4060(2)
C5 C 0.7749(5) 0.0978(2) 0.3492(2)
C6 C 1.2448(5) 0.1698(2) 0.2743(2)
C7 C 0.8701(6) 0.1961(2) 0.1705(2)
C8 C 1.2499(6) 0.1194(2) 0.2443(2)
C9 C 0.7492(5) 0.1710(2) 0.1835(2)
H3 H 0.7208 0.1707 0.2170
C10 C 0.9263(5) 0.2777(2) 0.4684(2)
C11 C 0.8959(5) 0.0839(2) 0.37052(17)
H4 H 0.9602 0.1104 0.3778
C12 C 0.6700(6) 0.1461(2) 0.1471(2)
H5 H 0.5872 0.1300 0.1557
C13 C 1.1607(7) 0.0982(3) 0.4636(2)
H6 H 1.0767 0.1153 0.4678
C14 C 0.7154(8) 0.1455(3) 0.0975(2)
H7 H 0.6629 0.1287 0.0728
C15 C 0.7640(5) 0.3517(2) 0.4870(2)
H8 H 0.7488 0.3552 0.4526
C16 C 0.9256(6) 0.0300(2) 0.3817(2)
H9 H 1.0103 0.0209 0.3953
C17 C 1.3802(7) 0.0943(3) 0.4258(3)
H10 H 1.4468 0.1086 0.4046
C18 C 0.8542(6) 0.3128(2) 0.50460(19)
C19 C 0.6966(6) 0.3851(3) 0.5203(2)
H11 H 0.6383 0.4119 0.5085
C20 C 0.8352(9) 0.1691(3) 0.0848(2)
H12 H 0.8645 0.1682 0.0515
C21 C 0.9150(7) 0.1945(3) 0.1208(2)
H13 H 0.9978 0.2103 0.1118
C22 C 1.1323(13) 0.0465(3) 0.2045(3)
H14 H 1.0509 0.0289 0.1967
C23 C 0.7176(7) 0.3780(3) 0.5722(3)
H15 H 0.6691 0.3989 0.5951
C24 C 1.1277(8) 0.0932(2) 0.2324(2)
H16 H 1.0441 0.1071 0.2431
C25 C 1.4039(10) 0.0460(4) 0.4505(5)
H17 H 1.4872 0.0284 0.4461
C26 C 1.3693(13) 0.0505(4) 0.1993(4)
H18 H 1.4510 0.0359 0.1875
C27 C 0.8325(8) -0.0081(3) 0.3727(4)
H19 H 0.8503 -0.0437 0.3814
C28 C 1.3728(9) 0.0989(3) 0.2289(3)
H20 H 1.4552 0.1155 0.2371
C29 C 0.8757(7) 0.3080(3) 0.5558(2)
H21 H 0.9365 0.2822 0.5680
C30 C 0.8072(11) 0.3412(4) 0.5889(3)
H22 H 0.8233 0.3381 0.6233
C31 C 1.1858(10) 0.0499(3) 0.4884(3)
H23 H 1.1204 0.0353 0.5100
C32 C 0.6785(9) 0.0591(3) 0.3402(4)
H24 H 0.5930 0.0683 0.3274
C33 C 1.3080(13) 0.0241(4) 0.4808(5)
H25 H 1.3250 -0.0087 0.4966
C34 C 0.7109(11) 0.0056(4) 0.3506(6)
H26 H 0.6485 -0.0213 0.3423
C35 C 1.2499(15) 0.0261(4) 0.1884(3)
H27 H 1.2499 -0.0053 0.1694
Pr1A Pr 0.48934(3) 0.248232(10) 0.338998(12)
Pr1A_2 Pr 1.48934(3) 0.248232(10) 0.338998(12)
O2A O 0.8747(3) 0.33172(14) 0.32317(13)
O4A O 1.1724(4) 0.30756(14) 0.38087(15)
O7A O 1.1482(4) 0.29967(15) 0.27415(14)
loop_
_geom_bond_atom_site_label_1
_geom_bond_atom_site_label_2
_geom_bond_site_symmetry_1
_geom_bond_site_symmetry_2
Pr1 O1 1_555 1_555
O1 C1 1_555 1_555
O2 C1 1_555 1_555
O3 Pr1 1_555 1_555
O4 C4 1_555 1_555
O5 Pr1 1_555 1_555
O6 Pr1 1_555 1_555
O7 C6 1_555 1_555
O8 Pr1 1_555 1_555
O9 H1 1_555 1_555
O10 H2 1_555 1_555
C1 C5 1_555 1_555
C2 C4 1_555 1_555
C3 O8 1_555 1_555
C4 O3 1_555 1_555
C5 C11 1_555 1_555
C6 O5 1_555 1_555
C7 C3 1_555 1_555
C8 C6 1_555 1_555
C9 C7 1_555 1_555
H3 C9 1_555 1_555
C10 O6 1_555 1_555
C11 H4 1_555 1_555
C12 C9 1_555 1_555
H5 C12 1_555 1_555
C13 C2 1_555 1_555
H6 C13 1_555 1_555
C14 C12 1_555 1_555
H7 C14 1_555 1_555
C15 H8 1_555 1_555
C16 C11 1_555 1_555
H9 C16 1_555 1_555
C17 C2 1_555 1_555
H10 C17 1_555 1_555
C18 C10 1_555 1_555
C19 C15 1_555 1_555
H11 C19 1_555 1_555
C20 C14 1_555 1_555
H12 C20 1_555 1_555
C21 C7 1_555 1_555
H13 C21 1_555 1_555
C22 H14 1_555 1_555
C23 C19 1_555 1_555
H15 C23 1_555 1_555
C24 C8 1_555 1_555
H16 C24 1_555 1_555
C25 C17 1_555 1_555
H17 C25 1_555 1_555
C26 H18 1_555 1_555
C27 C16 1_555 1_555
H19 C27 1_555 1_555
C28 C8 1_555 1_555
H20 C28 1_555 1_555
C29 C18 1_555 1_555
H21 C29 1_555 1_555
C30 C23 1_555 1_555
H22 C30 1_555 1_555
C31 C13 1_555 1_555
H23 C31 1_555 1_555
C32 C5 1_555 1_555
H24 C32 1_555 1_555
C33 C25 1_555 1_555
H25 C33 1_555 1_555
C34 C27 1_555 1_555
H26 C34 1_555 1_555
C35 C22 1_555 1_555
H27 C35 1_555 1_555
Pr1A O2 1_555 1_555
Pr1A_2 O4 1_555 1_555
O2A Pr1 1_555 1_555
O4A Pr1 1_555 1_555
O7A Pr1 1_555 1_555
O7 Pr1A_2 1_555 1_555
O9 C3 1_555 1_555
O10 C10 1_555 1_555
C15 C18 1_555 1_555
C20 C21 1_555 1_555
C22 C24 1_555 1_555
C26 C28 1_555 1_555
C26 C35 1_555 1_555
C29 C30 1_555 1_555
C31 C33 1_555 1_555
C32 C34 1_555 1_555

#END
