
#######################################################################
#
#                 Cambridge Crystallographic Data Centre
#                                CCDC 
#
#######################################################################
#
# If this CIF has been generated from an entry in the Cambridge 
# Structural Database, then it will include bibliographic, chemical, 
# crystal, experimental, refinement or atomic coordinate data resulting 
# from the CCDC's data processing and validation procedures.
#
#######################################################################

data_JOKKAX
_symmetry_cell_setting           triclinic
_symmetry_space_group_name_H-M   'P -1'
_symmetry_Int_Tables_number      2
_space_group_name_Hall           '-P 1'
loop_
_symmetry_equiv_pos_site_id
_symmetry_equiv_pos_as_xyz
1 x,y,z
2 -x,-y,-z
_cell_length_a                   6.7600(14)
_cell_length_b                   10.443(2)
_cell_length_c                   10.455(2)
_cell_angle_alpha                62.83(3)
_cell_angle_beta                 83.72(3)
_cell_angle_gamma                71.82(3)
_cell_volume                     623.37
loop_
_atom_site_label
_atom_site_type_symbol
_atom_site_fract_x
_atom_site_fract_y
_atom_site_fract_z
Ni1 Ni 0.5000 0.0000 0.5000
Na1 Na 0.25919(13) 0.53018(10) 0.90125(9)
O1 O -0.2843(2) 1.06459(16) 1.04349(16)
O2 O 0.7041(2) -0.04644(16) 0.76356(15)
O3 O 0.1067(2) 0.67474(16) 1.43179(15)
O4 O 0.4113(2) 0.41017(17) 0.75972(16)
N1 N 0.5110(2) 0.14377(18) 0.56727(17)
O5 O 0.0174(2) 0.61214(17) 1.04366(16)
N2 N -0.0914(2) 0.87669(18) 1.24220(17)
N3 N 0.5610(3) 0.18105(18) 0.76417(17)
H1 H 0.6140 0.1448 0.8492
N4 N 0.3676(3) 0.37931(18) 0.56479(17)
H2 H 0.2968 0.4726 0.5194
O6 O 0.5020(3) 0.3313(2) 1.1026(2)
C1 C 0.4450(3) 0.3288(2) 0.7006(2)
O7 O 0.0737(3) 0.7453(2) 0.6787(2)
N5 N -0.1343(3) 0.83907(19) 1.04290(17)
H3 H -0.1905 0.8753 0.9588
C2 C -0.0130(3) 0.6938(2) 1.1031(2)
C3 C 0.0297(3) 0.7324(2) 1.3085(2)
N6 N 0.0695(3) 0.64439(19) 1.23638(18)
H4 H 0.1508 0.5537 1.2781
C4 C -0.1730(3) 0.9325(2) 1.1090(2)
C5 C 0.3966(3) 0.2892(2) 0.4968(2)
C6 C 0.5983(3) 0.0866(2) 0.7002(2)
O8 O 0.3166(2) 0.34074(16) 0.37560(15)
O9 O 0.2451(3) -0.0215(2) 0.60016(19)
H5 H 0.2265 -0.0997 0.6111
H6 H 0.061(5) 0.728(4) 0.612(4)
H7 H 0.551(6) 0.239(5) 1.101(4)
H8 H -0.046(6) 0.793(4) 0.692(4)
H9 H 0.453(6) 0.316(4) 1.176(4)
H10 H 0.190(5) 0.029(4) 0.653(3)
Na1A Na -0.25919(13) 0.46982(10) 1.09875(9)
O1A O 0.2843(2) -0.06459(16) 0.95651(16)
O2A O -0.7041(2) 1.04644(16) 1.23644(15)
O3A O -0.1067(2) 0.32526(16) 0.56821(15)
O4A O -0.4113(2) 0.58983(17) 1.24028(16)
N1A N -0.5110(2) 0.85623(18) 1.43273(17)
O5A O -0.0174(2) 0.38786(17) 0.95634(16)
N2A N 0.0914(2) 0.12331(18) 0.75780(17)
N3A N -0.5610(3) 0.81895(18) 1.23583(17)
H1A H -0.6140 0.8552 1.1508
N4A N -0.3676(3) 0.62069(18) 1.43521(17)
H2A H -0.2968 0.5274 1.4806
O6A O -0.5020(3) 0.6687(2) 0.8974(2)
C1A C -0.4450(3) 0.6712(2) 1.2994(2)
O7A O -0.0737(3) 0.2547(2) 1.3213(2)
N5A N 0.1343(3) 0.16093(19) 0.95710(17)
H3A H 0.1905 0.1247 1.0412
C2A C 0.0130(3) 0.3062(2) 0.8969(2)
C3A C -0.0297(3) 0.2676(2) 0.6915(2)
N6A N -0.0695(3) 0.35561(19) 0.76362(18)
H4A H -0.1508 0.4463 0.7219
C4A C 0.1730(3) 0.0675(2) 0.8910(2)
C5A C -0.3966(3) 0.7108(2) 1.5032(2)
C6A C -0.5983(3) 0.9134(2) 1.2998(2)
O8A O -0.3166(2) 0.65926(16) 1.62440(15)
H6A H -0.061(5) 0.272(4) 1.388(4)
H7A H -0.551(6) 0.761(5) 0.899(4)
H8A H 0.046(6) 0.207(4) 1.308(4)
H9A H -0.453(6) 0.684(4) 0.824(4)
O9A O 0.7549(3) 0.0215(2) 0.39984(19)
H5A H 0.7735 0.0997 0.3889
H10A H 0.810(5) -0.029(4) 0.347(3)
Ni1_2 Ni -0.5000 1.0000 1.5000
Na1_2 Na -0.74081(13) 0.53018(10) 0.90125(9)
Na1A_2 Na 0.74081(13) 0.46982(10) 1.09875(9)
N1A_2 N 0.4890(2) -0.14377(18) 0.43273(17)
O6_2 O -0.4980(3) 0.3313(2) 1.1026(2)
O6A_2 O 0.4980(3) 0.6687(2) 0.8974(2)
loop_
_geom_bond_atom_site_label_1
_geom_bond_atom_site_label_2
_geom_bond_site_symmetry_1
_geom_bond_site_symmetry_2
Ni1 N1 1_555 1_555
Na1 O4 1_555 1_555
O1 C4 1_555 1_555
O2 C6 1_555 1_555
O3 C3 1_555 1_555
O4 C1 1_555 1_555
N1 C5 1_555 1_555
O5 Na1 1_555 1_555
N2 C3 1_555 1_555
N3 H1 1_555 1_555
N4 H2 1_555 1_555
O6 Na1 1_555 1_555
C1 N3 1_555 1_555
O7 Na1 1_555 1_555
N5 H3 1_555 1_555
C2 O5 1_555 1_555
C3 N6 1_555 1_555
N6 C2 1_555 1_555
H4 N6 1_555 1_555
C4 N2 1_555 1_555
C5 N4 1_555 1_555
C6 N1 1_555 1_555
O8 C5 1_555 1_555
O9 Ni1 1_555 1_555
H5 O9 1_555 1_555
H6 O7 1_555 1_555
H7 O6 1_555 1_555
H8 O7 1_555 1_555
H9 O6 1_555 1_555
H10 O9 1_555 1_555
Na1A O5 1_555 1_555
O1A C4A 1_555 1_555
O2A C6A 1_555 1_555
O3A C3A 1_555 1_555
O4A Na1A 1_555 1_555
N1A C5A 1_555 1_555
O5A Na1 1_555 1_555
N2A C3A 1_555 1_555
N3A H1A 1_555 1_555
N4A H2A 1_555 1_555
O6A Na1A 1_555 1_555
C1A O4A 1_555 1_555
O7A Na1A 1_555 1_555
N5A H3A 1_555 1_555
C2A O5A 1_555 1_555
C3A N6A 1_555 1_555
N6A C2A 1_555 1_555
H4A N6A 1_555 1_555
C4A N2A 1_555 1_555
C5A N4A 1_555 1_555
C6A N1A 1_555 1_555
O8A C5A 1_555 1_555
H6A O7A 1_555 1_555
H7A O6A 1_555 1_555
H8A O7A 1_555 1_555
H9A O6A 1_555 1_555
O9A Ni1 1_555 1_555
H5A O9A 1_555 1_555
H10A O9A 1_555 1_555
Ni1_2 N1A 1_555 1_555
Na1_2 O6A 1_555 1_555
Na1A_2 O6 1_555 1_555
N1A_2 Ni1 1_555 1_555
O6_2 Na1A 1_555 1_555
O6A_2 Na1 1_555 1_555
N3 C6 1_555 1_555
N4 C1 1_555 1_555
N5 C2 1_555 1_555
N5 C4 1_555 1_555
Na1A O5A 1_555 1_555
N3A C1A 1_555 1_555
N3A C6A 1_555 1_555
N4A C1A 1_555 1_555
N5A C2A 1_555 1_555
N5A C4A 1_555 1_555
Na1_2 O6_2 1_555 1_555
Na1A_2 O6A_2 1_555 1_555

#END
