
#######################################################################
#
#                 Cambridge Crystallographic Data Centre
#                                CCDC 
#
#######################################################################
#
# If this CIF has been generated from an entry in the Cambridge 
# Structural Database, then it will include bibliographic, chemical, 
# crystal, experimental, refinement or atomic coordinate data resulting 
# from the CCDC's data processing and validation procedures.
#
#######################################################################

data_JOKNII
_symmetry_cell_setting           monoclinic
_symmetry_space_group_name_H-M   'P 21/n'
_symmetry_Int_Tables_number      14
_space_group_name_Hall           '-P 2yn'
loop_
_symmetry_equiv_pos_site_id
_symmetry_equiv_pos_as_xyz
1 x,y,z
2 1/2-x,1/2+y,1/2-z
3 -x,-y,-z
4 1/2+x,1/2-y,1/2+z
_cell_length_a                   15.7243(5)
_cell_length_b                   8.3116(3)
_cell_length_c                   23.1718(8)
_cell_angle_alpha                90
_cell_angle_beta                 107.827(2)
_cell_angle_gamma                90
_cell_volume                     2883.01
loop_
_atom_site_label
_atom_site_type_symbol
_atom_site_fract_x
_atom_site_fract_y
_atom_site_fract_z
Na1 Na 0.37179(7) -0.30078(13) 0.07700(5)
S1 S 0.53708(4) 0.33708(8) 0.27044(3)
N1 N 0.51264(15) 0.1363(3) 0.26977(10)
O1 O 0.58065(13) 0.3538(2) 0.22533(9)
O2 O 0.58288(13) 0.3834(2) 0.33144(9)
O3 O 0.50910(13) -0.1650(3) 0.09588(9)
O4 O 0.63843(13) -0.0479(2) 0.14679(9)
O5 O 0.68684(13) -0.0014(2) 0.31097(8)
O6 O 0.62808(12) -0.2109(2) 0.25015(8)
O7 O 0.49108(13) -0.0772(2) 0.32539(9)
O8 O 0.44285(13) 0.1704(2) 0.34011(8)
O9 O 0.44661(14) 0.4632(3) 0.06282(10)
O10 O 0.54075(12) 0.2550(2) 0.09081(8)
O11 O 0.24888(14) 0.5137(3) 0.04981(9)
O12 O 0.22101(14) 0.3035(2) -0.01316(8)
O13 O 0.14852(14) -0.0207(3) 0.12345(10)
O14 O 0.12128(13) 0.2170(3) 0.07534(9)
O15 O 0.35557(14) -0.2394(2) 0.17524(9)
O16 O 0.30238(13) -0.0720(2) 0.23154(9)
C1 C 0.42083(18) 0.0933(3) 0.14254(11)
C2 C 0.40009(18) 0.2283(3) 0.10241(12)
C3 C 0.30754(18) 0.2527(3) 0.08597(12)
C4 C 0.27004(18) 0.1346(3) 0.11451(12)
C5 C 0.34222(18) 0.0383(3) 0.15012(12)
C6 C 0.50972(18) 0.0222(3) 0.17348(12)
C7 C 0.54802(18) 0.0307(3) 0.23381(12)
C8 C 0.55191(19) -0.0736(3) 0.13470(12)
C9 C 0.6828(2) -0.1486(4) 0.11419(16)
H1 H 0.7462 -0.1196 0.1255
H2 H 0.6554 -0.1331 0.0705
H3 H 0.6771 -0.2617 0.1245
C10 C 0.62935(18) -0.0609(3) 0.26923(12)
C11 C 0.70706(19) -0.3054(4) 0.27983(14)
H4 H 0.7021 -0.4115 0.2606
H5 H 0.7122 -0.3183 0.3228
H6 H 0.7602 -0.2502 0.2761
C12 C 0.48259(18) 0.0639(3) 0.31470(12)
C13 C 0.4057(2) 0.1096(4) 0.38572(14)
H7 H 0.3709 0.1945 0.3973
H8 H 0.4543 0.0756 0.4214
H9 H 0.3669 0.0176 0.3694
C14 C 0.4329(2) 0.4329(4) 0.24663(14)
H10 H 0.4414 0.5483 0.2418
H11 H 0.4019 0.4164 0.2770
H12 H 0.3971 0.3875 0.2078
C15 C 0.46270(19) 0.3278(3) 0.08350(12)
C16 C 0.6105(2) 0.3509(4) 0.08009(15)
H13 H 0.6574 0.2802 0.0747
H14 H 0.6359 0.4222 0.1148
H15 H 0.5858 0.4156 0.0434
C17 C 0.25681(17) 0.3725(3) 0.04078(12)
C18 C 0.1687(2) 0.4091(4) -0.06062(14)
H16 H 0.1413 0.3462 -0.0974
H17 H 0.2075 0.4918 -0.0692
H18 H 0.1217 0.4605 -0.0473
C19 C 0.17634(19) 0.0994(3) 0.10602(12)
C20 C 0.02744(19) 0.1858(4) 0.06313(15)
H19 H -0.0071 0.2670 0.0349
H20 H 0.0123 0.1904 0.1011
H21 H 0.0132 0.0787 0.0451
C21 C 0.33426(17) -0.1058(3) 0.18570(12)
C22 C 0.2884(2) -0.2097(4) 0.26522(14)
H22 H 0.2625 -0.1748 0.2966
H23 H 0.3457 -0.2631 0.2843
H24 H 0.2476 -0.2851 0.2377
O17 O 0.29301(15) -0.1065(3) 0.00866(11)
H25 H 0.3046 -0.0133 0.0242
C23 C 0.1993(2) -0.1121(4) -0.02281(17)
H26 H 0.1864 -0.2044 -0.0504
H27 H 0.1812 -0.0127 -0.0461
H28 H 0.1661 -0.1230 0.0065
Na1_2 Na 0.37179(7) 0.69922(13) 0.07700(5)
O9_2 O 0.44661(14) -0.5368(3) 0.06282(10)
O11_2 O 0.24888(14) -0.4863(3) 0.04981(9)
loop_
_geom_bond_atom_site_label_1
_geom_bond_atom_site_label_2
_geom_bond_site_symmetry_1
_geom_bond_site_symmetry_2
Na1 O3 1_555 1_555
S1 N1 1_555 1_555
N1 C7 1_555 1_555
O1 S1 1_555 1_555
O2 S1 1_555 1_555
O3 C8 1_555 1_555
O4 C8 1_555 1_555
O5 C10 1_555 1_555
O6 C10 1_555 1_555
O7 C12 1_555 1_555
O8 C12 1_555 1_555
O9 C15 1_555 1_555
O10 C15 1_555 1_555
O11 C17 1_555 1_555
O12 C17 1_555 1_555
O13 C19 1_555 1_555
O14 C19 1_555 1_555
O15 Na1 1_555 1_555
O16 C21 1_555 1_555
C1 C2 1_555 1_555
C2 C3 1_555 1_555
C3 C4 1_555 1_555
C4 C5 1_555 1_555
C5 C1 1_555 1_555
C6 C1 1_555 1_555
C7 C6 1_555 1_555
C8 C6 1_555 1_555
C9 O4 1_555 1_555
H1 C9 1_555 1_555
H2 C9 1_555 1_555
H3 C9 1_555 1_555
C10 C7 1_555 1_555
C11 O6 1_555 1_555
H4 C11 1_555 1_555
H5 C11 1_555 1_555
H6 C11 1_555 1_555
C12 N1 1_555 1_555
C13 O8 1_555 1_555
H7 C13 1_555 1_555
H8 C13 1_555 1_555
H9 C13 1_555 1_555
C14 S1 1_555 1_555
H10 C14 1_555 1_555
H11 C14 1_555 1_555
H12 C14 1_555 1_555
C15 C2 1_555 1_555
C16 O10 1_555 1_555
H13 C16 1_555 1_555
H14 C16 1_555 1_555
H15 C16 1_555 1_555
C17 C3 1_555 1_555
C18 O12 1_555 1_555
H16 C18 1_555 1_555
H17 C18 1_555 1_555
H18 C18 1_555 1_555
C19 C4 1_555 1_555
C20 O14 1_555 1_555
H19 C20 1_555 1_555
H20 C20 1_555 1_555
H21 C20 1_555 1_555
C21 O15 1_555 1_555
C22 O16 1_555 1_555
H22 C22 1_555 1_555
H23 C22 1_555 1_555
H24 C22 1_555 1_555
O17 Na1 1_555 1_555
H25 O17 1_555 1_555
C23 O17 1_555 1_555
H26 C23 1_555 1_555
H27 C23 1_555 1_555
H28 C23 1_555 1_555
Na1_2 O9 1_555 1_555
O9_2 Na1 1_555 1_555
O11_2 Na1 1_555 1_555
O11 Na1_2 1_555 1_555
C5 C21 1_555 1_555

#END
