
#######################################################################
#
#                 Cambridge Crystallographic Data Centre
#                                CCDC 
#
#######################################################################
#
# If this CIF has been generated from an entry in the Cambridge 
# Structural Database, then it will include bibliographic, chemical, 
# crystal, experimental, refinement or atomic coordinate data resulting 
# from the CCDC's data processing and validation procedures.
#
#######################################################################

data_JOKNOO
_symmetry_cell_setting           monoclinic
_symmetry_space_group_name_H-M   'P 21/n'
_symmetry_Int_Tables_number      14
_space_group_name_Hall           '-P 2yn'
loop_
_symmetry_equiv_pos_site_id
_symmetry_equiv_pos_as_xyz
1 x,y,z
2 1/2-x,1/2+y,1/2-z
3 -x,-y,-z
4 1/2+x,1/2-y,1/2+z
_cell_length_a                   16.2227(17)
_cell_length_b                   8.2682(9)
_cell_length_c                   22.467(2)
_cell_angle_alpha                90
_cell_angle_beta                 105.964(2)
_cell_angle_gamma                90
_cell_volume                     2897.34
loop_
_atom_site_label
_atom_site_type_symbol
_atom_site_fract_x
_atom_site_fract_y
_atom_site_fract_z
K1 K 0.87241(4) 0.46264(8) 0.06778(3)
O1 O 0.75914(15) 0.6435(3) -0.01321(11)
O2 O 1.02699(13) 0.5990(3) 0.09503(10)
O3 O 0.87810(14) 0.5017(2) 0.19031(10)
C1 C 0.85931(17) 0.7743(3) 0.15588(12)
O4 O 0.94146(13) 1.1862(2) 0.04491(10)
O5 O 0.75215(13) 1.2251(2) 0.04201(10)
H1 H 0.755(3) 0.749(6) -0.013(2)
C2 C 0.6731(2) 0.5983(4) -0.04160(16)
C3 C 1.06481(17) 0.6865(3) 0.13697(13)
C4 C 0.85343(17) 0.6372(3) 0.19653(13)
C5 C 0.93384(17) 0.8375(3) 0.14604(12)
C6 C 0.78776(17) 0.8571(3) 0.11750(12)
H2 H 0.6577 0.6286 -0.0854
H3 H 0.6352 0.6539 -0.0211
H4 H 0.6670 0.4811 -0.0379
O6 O 1.14856(12) 0.7134(2) 0.15145(9)
C7 C 1.02042(16) 0.7743(3) 0.17768(12)
O7 O 0.81752(13) 0.6798(2) 0.24102(9)
C8 C 0.90937(17) 0.9643(3) 0.10126(12)
C9 C 0.81904(17) 0.9752(3) 0.08462(12)
C10 C 0.70009(17) 0.8059(3) 0.11056(12)
C11 C 1.1946(2) 0.6120(4) 0.11836(16)
C12 C 1.05405(16) 0.7784(3) 0.23911(12)
C13 C 0.7974(2) 0.5456(4) 0.27615(16)
C14 C 0.96478(17) 1.0672(3) 0.07707(12)
C15 C 0.76462(16) 1.0829(3) 0.03678(12)
O8 O 0.67899(13) 0.6785(2) 0.12879(10)
O9 O 0.64134(12) 0.9164(2) 0.08084(9)
H5 H 1.2565 0.6267 0.1361
H6 H 1.1787 0.6428 0.0745
H7 H 1.1797 0.4984 0.1222
N1 N 1.01807(14) 0.8782(3) 0.27770(10)
C16 C 1.13246(17) 0.6876(3) 0.27389(12)
H8 H 0.7694 0.5864 0.3066
H9 H 0.8504 0.4892 0.2976
H10 H 0.7589 0.4704 0.2480
O10 O 1.04643(12) 1.0160(2) 0.09337(9)
O11 O 0.72668(12) 0.9986(2) -0.01481(9)
C17 C 0.55309(17) 0.8709(4) 0.07354(14)
S1 S 1.03118(5) 1.08338(8) 0.27608(3)
C18 C 0.99180(17) 0.8004(3) 0.32465(13)
O12 O 1.18680(13) 0.7419(3) 0.31702(9)
O13 O 1.13270(12) 0.5381(2) 0.25124(9)
C19 C 1.1076(2) 1.1216(4) 0.07742(16)
C20 C 0.6641(2) 1.0871(4) -0.06204(14)
H11 H 0.5154 0.9612 0.0553
H12 H 0.5451 0.8441 0.1141
H13 H 0.5389 0.7765 0.0462
O14 O 1.07464(14) 1.1087(2) 0.22992(10)
O15 O 1.06982(13) 1.1371(2) 0.33775(9)
C21 C 0.92617(19) 1.1572(4) 0.25091(14)
O16 O 1.00289(13) 0.6577(2) 0.33506(9)
O17 O 0.95202(14) 0.9027(2) 0.35297(9)
C22 C 1.21057(19) 0.4460(4) 0.27647(15)
H14 H 1.1655 1.0779 0.0943
H15 H 1.1042 1.2293 0.0948
H16 H 1.0948 1.1294 0.0323
H17 H 0.6335 1.0120 -0.0944
H18 H 0.6933 1.1691 -0.0803
H19 H 0.6231 1.1398 -0.0434
H20 H 0.9275 1.2748 0.2457
H21 H 0.8955 1.1311 0.2817
H22 H 0.8967 1.1070 0.2112
C23 C 0.9196(2) 0.8361(4) 0.40143(15)
H23 H 1.2056 0.3404 0.2560
H24 H 1.2193 0.4306 0.3210
H25 H 1.2595 0.5049 0.2694
H26 H 0.8884 0.9200 0.4171
H27 H 0.9676 0.7972 0.4352
H28 H 0.8809 0.7459 0.3849
K1_2 K 0.87241(4) 1.46264(8) 0.06778(3)
O4_2 O 0.94146(13) 0.1862(2) 0.04491(10)
O5_2 O 0.75215(13) 0.2251(2) 0.04201(10)
loop_
_geom_bond_atom_site_label_1
_geom_bond_atom_site_label_2
_geom_bond_site_symmetry_1
_geom_bond_site_symmetry_2
K1 O1 1_555 1_555
O1 H1 1_555 1_555
O2 K1 1_555 1_555
O3 K1 1_555 1_555
C1 C4 1_555 1_555
O4 C14 1_555 1_555
O5 C15 1_555 1_555
C2 O1 1_555 1_555
C3 O2 1_555 1_555
C4 O3 1_555 1_555
C5 C1 1_555 1_555
C6 C1 1_555 1_555
H2 C2 1_555 1_555
H3 C2 1_555 1_555
H4 C2 1_555 1_555
O6 C3 1_555 1_555
C7 C3 1_555 1_555
O7 C4 1_555 1_555
C8 C5 1_555 1_555
C9 C6 1_555 1_555
C10 C6 1_555 1_555
C11 O6 1_555 1_555
C12 C7 1_555 1_555
C13 O7 1_555 1_555
C14 C8 1_555 1_555
C15 C9 1_555 1_555
O8 C10 1_555 1_555
O9 C10 1_555 1_555
H5 C11 1_555 1_555
H6 C11 1_555 1_555
H7 C11 1_555 1_555
N1 C12 1_555 1_555
C16 C12 1_555 1_555
H8 C13 1_555 1_555
H9 C13 1_555 1_555
H10 C13 1_555 1_555
O10 C14 1_555 1_555
O11 C15 1_555 1_555
C17 O9 1_555 1_555
S1 N1 1_555 1_555
C18 N1 1_555 1_555
O12 C16 1_555 1_555
O13 C16 1_555 1_555
C19 O10 1_555 1_555
C20 O11 1_555 1_555
H11 C17 1_555 1_555
H12 C17 1_555 1_555
H13 C17 1_555 1_555
O14 S1 1_555 1_555
O15 S1 1_555 1_555
C21 S1 1_555 1_555
O16 C18 1_555 1_555
O17 C18 1_555 1_555
C22 O13 1_555 1_555
H14 C19 1_555 1_555
H15 C19 1_555 1_555
H16 C19 1_555 1_555
H17 C20 1_555 1_555
H18 C20 1_555 1_555
H19 C20 1_555 1_555
H20 C21 1_555 1_555
H21 C21 1_555 1_555
H22 C21 1_555 1_555
C23 O17 1_555 1_555
H23 C22 1_555 1_555
H24 C22 1_555 1_555
H25 C22 1_555 1_555
H26 C23 1_555 1_555
H27 C23 1_555 1_555
H28 C23 1_555 1_555
K1_2 O4 1_555 1_555
O4_2 K1 1_555 1_555
O5_2 K1 1_555 1_555
O5 K1_2 1_555 1_555
C5 C7 1_555 1_555
C8 C9 1_555 1_555

#END
