
#######################################################################
#
#                 Cambridge Crystallographic Data Centre
#                                CCDC 
#
#######################################################################
#
# If this CIF has been generated from an entry in the Cambridge 
# Structural Database, then it will include bibliographic, chemical, 
# crystal, experimental, refinement or atomic coordinate data resulting 
# from the CCDC's data processing and validation procedures.
#
#######################################################################

data_JOLHOH10
_symmetry_cell_setting           triclinic
_symmetry_space_group_name_H-M   'P -1'
_symmetry_Int_Tables_number      2
_space_group_name_Hall           '-P 1'
loop_
_symmetry_equiv_pos_site_id
_symmetry_equiv_pos_as_xyz
1 x,y,z
2 -x,-y,-z
_cell_length_a                   8.900(6)
_cell_length_b                   12.537(9)
_cell_length_c                   12.887(9)
_cell_angle_alpha                72.34(5)
_cell_angle_beta                 78.06(5)
_cell_angle_gamma                88.23(6)
_cell_volume                     1339.73
loop_
_atom_site_label
_atom_site_type_symbol
_atom_site_fract_x
_atom_site_fract_y
_atom_site_fract_z
Cu1 Cu 0.2223(2) 0.8560(1) 0.2442(1)
Cu2 Cu 0.3366(2) 0.7245(1) 0.1199(1)
Cu3 Cu 0.2510(2) 0.6250(1) 0.3488(1)
Cu4 Cu 0.5504(2) 0.6746(1) 0.2576(1)
C1 C 0.5470(13) 0.9205(8) 0.1313(8)
C2 C 0.6040(15) 1.0969(10) 0.1776(11)
C3 C 0.4405(13) 1.0497(9) 0.2169(10)
C4 C 0.0029(12) 0.6471(9) 0.2350(9)
C5 C -0.1762(18) 0.4771(11) 0.3300(16)
C6 C -0.0247(16) 0.4759(10) 0.3661(11)
C7 C 0.4428(13) 0.7757(9) 0.4354(9)
C8 C 0.7052(15) 0.7673(11) 0.4068(12)
C9 C 0.6728(17) 0.8409(15) 0.4797(15)
C10 C 0.3696(13) 0.4846(9) 0.1960(10)
C11 C 0.2695(14) 0.5266(11) 0.0382(11)
C12 C 0.2878(22) 0.4015(12) 0.0580(13)
C13 C 0.0614(15) 1.0677(10) 0.1541(10)
C14 C -0.0067(17) 1.1689(11) 0.1448(12)
C15 C -0.0564(17) 1.2008(12) 0.2381(14)
C16 C -0.0347(19) 1.1306(12) 0.3356(14)
C17 C 0.0353(16) 1.0299(11) 0.3414(10)
N1 N 0.4200(11) 0.9499(7) 0.1810(7)
N2 N 0.0591(11) 0.5833(7) 0.3164(7)
N3 N 0.5623(11) 0.7450(8) 0.3769(8)
N4 N 0.3357(12) 0.5647(8) 0.1157(8)
N5 N 0.0798(11) 0.9975(8) 0.2509(8)
S1 S 0.5698(3) 0.8049(2) 0.0826(2)
S2 S 0.7126(4) 1.0004(3) 0.1131(3)
S3 S 0.0848(4) 0.7765(2) 0.1472(2)
S4 S 0.8359(4) 0.5966(3) 0.2070(3)
S5 S 0.2504(3) 0.7570(2) 0.4297(2)
S6 S 0.4739(4) 0.8453(3) 0.5287(3)
S7 S 0.4355(4) 0.5000(2) 0.3095(3)
S8 S 0.3422(5) 0.3477(3) 0.1920(4)
S4_2 S -0.1641(4) 0.5966(3) 0.2070(3)
Cu4_2 Cu -0.4496(2) 0.6746(1) 0.2576(1)
loop_
_geom_bond_atom_site_label_1
_geom_bond_atom_site_label_2
_geom_bond_site_symmetry_1
_geom_bond_site_symmetry_2
Cu1 Cu2 1_555 1_555
Cu2 Cu3 1_555 1_555
Cu3 Cu1 1_555 1_555
Cu4 Cu2 1_555 1_555
C1 N1 1_555 1_555
C2 C3 1_555 1_555
C3 N1 1_555 1_555
C4 N2 1_555 1_555
C5 C6 1_555 1_555
C6 N2 1_555 1_555
C7 N3 1_555 1_555
C8 C9 1_555 1_555
C9 S6 1_555 1_555
C10 N4 1_555 1_555
C11 C12 1_555 1_555
C12 S8 1_555 1_555
C13 C14 1_555 1_555
C14 C15 1_555 1_555
C15 C16 1_555 1_555
C16 C17 1_555 1_555
C17 N5 1_555 1_555
N1 Cu1 1_555 1_555
N2 Cu3 1_555 1_555
N3 Cu4 1_555 1_555
N4 Cu2 1_555 1_555
N5 Cu1 1_555 1_555
S1 Cu2 1_555 1_555
S2 C1 1_555 1_555
S3 Cu1 1_555 1_555
S4 Cu4 1_555 1_555
S5 Cu1 1_555 1_555
S6 C7 1_555 1_555
S7 Cu3 1_555 1_555
S8 C10 1_555 1_555
S4_2 C4 1_555 1_555
Cu4_2 S4_2 1_555 1_555
Cu2 S3 1_555 1_555
Cu3 Cu4 1_555 1_555
Cu3 S5 1_555 1_555
Cu4 S7 1_555 1_555
Cu4 S1 1_555 1_555
C1 S1 1_555 1_555
C2 S2 1_555 1_555
C4 S3 1_555 1_555
C5 S4_2 1_555 1_555
C7 S5 1_555 1_555
C8 N3 1_555 1_555
C10 S7 1_555 1_555
C11 N4 1_555 1_555
C13 N5 1_555 1_555

#END
