
#######################################################################
#
#                 Cambridge Crystallographic Data Centre
#                                CCDC 
#
#######################################################################
#
# If this CIF has been generated from an entry in the Cambridge 
# Structural Database, then it will include bibliographic, chemical, 
# crystal, experimental, refinement or atomic coordinate data resulting 
# from the CCDC's data processing and validation procedures.
#
#######################################################################

data_JOLSEK
_symmetry_cell_setting           monoclinic
_symmetry_space_group_name_H-M   'P 21'
_symmetry_Int_Tables_number      4
_space_group_name_Hall           'P 2yb'
loop_
_symmetry_equiv_pos_site_id
_symmetry_equiv_pos_as_xyz
1 x,y,z
2 -x,1/2+y,-z
_cell_length_a                   15.285(3)
_cell_length_b                   5.7077(11)
_cell_length_c                   16.907(3)
_cell_angle_alpha                90
_cell_angle_beta                 98.912(5)
_cell_angle_gamma                90
_cell_volume                     1457.2
loop_
_atom_site_label
_atom_site_type_symbol
_atom_site_fract_x
_atom_site_fract_y
_atom_site_fract_z
Cd1 Cd 0.19261(4) 0.18695(14) 0.72123(3)
O1 O 0.1296(4) 0.4926(12) 0.7730(4)
O2 O 0.0870(4) 0.9237(11) 0.7429(4)
O3 O 0.2691(4) -0.1035(12) 0.6671(4)
O4 O 0.3001(4) -0.5428(13) 0.7010(4)
O5 O 0.2671(4) 0.0952(11) 0.8478(4)
O6 O 0.1125(4) 0.2837(11) 0.5991(4)
N1 N 0.3365(6) -0.1926(17) 0.9255(6)
N2 N 0.1040(6) 0.5686(16) 0.5051(5)
P1 P 0.07575(14) 0.7027(7) 0.78742(12)
P2 P 0.32813(12) -0.3125(8) 0.66868(11)
C1 C 0.0968(6) 0.7584(15) 0.8946(5)
C2 C 0.0731(6) 0.9701(18) 0.9253(6)
H1 H 0.0463 1.0881 0.8900
C3 C 0.0880(6) 1.0113(18) 1.0071(6)
H2 H 0.0709 1.1564 1.0276
C4 C 0.1278(7) 0.8421(19) 1.0587(6)
H3 H 0.1376 0.8699 1.1148
C5 C 0.1535(6) 0.6302(18) 1.0286(5)
H4 H 0.1821 0.5144 1.0639
C6 C 0.1372(6) 0.5888(16) 0.9464(6)
H5 H 0.1539 0.4435 0.9258
C7 C -0.0404(6) 0.6246(14) 0.7649(5)
C8 C -0.0665(6) 0.4061(16) 0.7320(5)
H6 H -0.0230 0.2925 0.7248
C9 C -0.1559(6) 0.3542(17) 0.7098(5)
H7 H -0.1731 0.2061 0.6868
C10 C -0.2197(7) 0.5162(17) 0.7209(6)
H8 H -0.2805 0.4796 0.7054
C11 C -0.1955(6) 0.7323(17) 0.7546(5)
H9 H -0.2396 0.8435 0.7624
C12 C -0.1063(6) 0.7859(16) 0.7770(6)
H10 H -0.0898 0.9334 0.8007
C13 C 0.3520(6) -0.3608(16) 0.5683(5)
C14 C 0.3256(6) -0.5671(17) 0.5281(6)
H11 H 0.2962 -0.6851 0.5537
C15 C 0.3424(6) -0.6013(19) 0.4493(6)
H12 H 0.3237 -0.7419 0.4217
C16 C 0.3858(7) -0.431(2) 0.4120(6)
H13 H 0.3966 -0.4549 0.3588
C17 C 0.4136(7) -0.2266(19) 0.4524(6)
H14 H 0.4445 -0.1109 0.4273
C18 C 0.3961(6) -0.1909(18) 0.5303(6)
H15 H 0.4144 -0.0495 0.5575
C19 C 0.4344(6) -0.2360(15) 0.7290(5)
C20 C 0.4484(6) -0.0156(17) 0.7645(5)
H16 H 0.4046 0.1025 0.7525
C21 C 0.5250(7) 0.0340(18) 0.8169(6)
H17 H 0.5328 0.1821 0.8427
C22 C 0.5909(7) -0.1376(19) 0.8313(6)
H18 H 0.6440 -0.1058 0.8669
C23 C 0.5793(6) -0.352(2) 0.7940(6)
H19 H 0.6247 -0.4671 0.8036
C24 C 0.5015(7) -0.4013(17) 0.7424(6)
H20 H 0.4943 -0.5490 0.7163
C25 C 0.2902(6) -0.1099(18) 0.8601(5)
H21 H 0.2727 -0.2183 0.8180
C26 C 0.3643(10) -0.033(2) 0.9927(7)
H22 H 0.4237 0.0268 0.9893
H23 H 0.3653 -0.1180 1.0432
H24 H 0.3226 0.0977 0.9903
C27 C 0.3684(8) -0.434(2) 0.9320(8)
H25 H 0.3390 -0.5248 0.8864
H26 H 0.3551 -0.5030 0.9819
H27 H 0.4326 -0.4357 0.9323
C28 C 0.1175(6) 0.4939(17) 0.5806(5)
H28 H 0.1314 0.6059 0.6222
C29 C 0.1208(8) 0.815(2) 0.4874(7)
H29 H 0.1254 0.9072 0.5368
H30 H 0.0719 0.8751 0.4483
H31 H 0.1763 0.8272 0.4654
C30 C 0.0834(7) 0.4068(16) 0.4372(5)
H32 H 0.0625 0.2576 0.4560
H33 H 0.1368 0.3798 0.4130
H34 H 0.0372 0.4751 0.3972
Cd1_2 Cd 0.19261(4) -0.81305(14) 0.72123(3)
Cd1_3 Cd 0.19261(4) 1.18695(14) 0.72123(3)
O2_2 O 0.0870(4) -0.0763(11) 0.7429(4)
O4_2 O 0.3001(4) 0.4572(13) 0.7010(4)
loop_
_geom_bond_atom_site_label_1
_geom_bond_atom_site_label_2
_geom_bond_site_symmetry_1
_geom_bond_site_symmetry_2
Cd1 O1 1_555 1_555
O1 P1 1_555 1_555
O2 P1 1_555 1_555
O3 Cd1 1_555 1_555
O4 P2 1_555 1_555
O5 Cd1 1_555 1_555
O6 Cd1 1_555 1_555
N1 C25 1_555 1_555
N2 C28 1_555 1_555
P1 C1 1_555 1_555
P2 O3 1_555 1_555
C1 C2 1_555 1_555
C2 H1 1_555 1_555
C3 C2 1_555 1_555
H2 C3 1_555 1_555
C4 C3 1_555 1_555
H3 C4 1_555 1_555
C5 C4 1_555 1_555
H4 C5 1_555 1_555
C6 C1 1_555 1_555
H5 C6 1_555 1_555
C7 P1 1_555 1_555
C8 C7 1_555 1_555
H6 C8 1_555 1_555
C9 C8 1_555 1_555
H7 C9 1_555 1_555
C10 C9 1_555 1_555
H8 C10 1_555 1_555
C11 C10 1_555 1_555
H9 C11 1_555 1_555
C12 C7 1_555 1_555
H10 C12 1_555 1_555
C13 P2 1_555 1_555
C14 C13 1_555 1_555
H11 C14 1_555 1_555
C15 C14 1_555 1_555
H12 C15 1_555 1_555
C16 C15 1_555 1_555
H13 C16 1_555 1_555
C17 C16 1_555 1_555
H14 C17 1_555 1_555
C18 C13 1_555 1_555
H15 C18 1_555 1_555
C19 P2 1_555 1_555
C20 C19 1_555 1_555
H16 C20 1_555 1_555
C21 C20 1_555 1_555
H17 C21 1_555 1_555
C22 C21 1_555 1_555
H18 C22 1_555 1_555
C23 C22 1_555 1_555
H19 C23 1_555 1_555
C24 C19 1_555 1_555
H20 C24 1_555 1_555
C25 O5 1_555 1_555
H21 C25 1_555 1_555
C26 N1 1_555 1_555
H22 C26 1_555 1_555
H23 C26 1_555 1_555
H24 C26 1_555 1_555
C27 N1 1_555 1_555
H25 C27 1_555 1_555
H26 C27 1_555 1_555
H27 C27 1_555 1_555
C28 O6 1_555 1_555
H28 C28 1_555 1_555
C29 N2 1_555 1_555
H29 C29 1_555 1_555
H30 C29 1_555 1_555
H31 C29 1_555 1_555
C30 N2 1_555 1_555
H32 C30 1_555 1_555
H33 C30 1_555 1_555
H34 C30 1_555 1_555
Cd1_2 O4 1_555 1_555
Cd1_3 O2 1_555 1_555
O2_2 Cd1 1_555 1_555
O4_2 Cd1 1_555 1_555
C5 C6 1_555 1_555
C11 C12 1_555 1_555
C17 C18 1_555 1_555
C23 C24 1_555 1_555

#END
