
#######################################################################
#
#                 Cambridge Crystallographic Data Centre
#                                CCDC 
#
#######################################################################
#
# If this CIF has been generated from an entry in the Cambridge 
# Structural Database, then it will include bibliographic, chemical, 
# crystal, experimental, refinement or atomic coordinate data resulting 
# from the CCDC's data processing and validation procedures.
#
#######################################################################

data_JOLSIO
_symmetry_cell_setting           orthorhombic
_symmetry_space_group_name_H-M   'P c a 21'
_symmetry_Int_Tables_number      29
_space_group_name_Hall           'P 2c -2ac'
loop_
_symmetry_equiv_pos_site_id
_symmetry_equiv_pos_as_xyz
1 x,y,z
2 -x,-y,1/2+z
3 1/2+x,-y,z
4 1/2-x,y,1/2+z
_cell_length_a                   23.695(2)
_cell_length_b                   12.8861(12)
_cell_length_c                   11.1594(10)
_cell_angle_alpha                90
_cell_angle_beta                 90
_cell_angle_gamma                90
_cell_volume                     3407.37
loop_
_atom_site_label
_atom_site_type_symbol
_atom_site_fract_x
_atom_site_fract_y
_atom_site_fract_z
Cd1 Cd 0.26337(2) 0.00576(3) 0.49304(17)
P1 P 0.2550(2) -0.17052(11) 0.2486(2)
P2 P 0.2541(2) 0.18215(11) 0.7376(2)
O1 O 0.25947(19) -0.1405(3) 0.3791(5)
O2 O 0.22963(18) -0.0952(3) 0.1619(5)
O3 O 0.2575(2) 0.1516(3) 0.6086(5)
O4 O 0.22853(18) 0.1077(3) 0.8258(5)
N1 N 0.36474(17) 0.0043(4) 0.4958(18)
N2 N 0.66424(18) -0.0064(3) 0.4971(17)
C1 C 0.2154(3) -0.2908(5) 0.2380(7)
C2 C 0.2171(3) -0.3654(5) 0.3261(8)
H1 H 0.2385 -0.3530 0.3966
C3 C 0.1880(4) -0.4586(6) 0.3138(9)
H2 H 0.1893 -0.5087 0.3761
C4 C 0.1580(6) -0.4778(9) 0.2137(16)
H3 H 0.1390 -0.5422 0.2044
C5 C 0.1548(4) -0.4021(7) 0.1228(10)
H4 H 0.1321 -0.4143 0.0542
C6 C 0.1845(3) -0.3106(6) 0.1328(8)
H5 H 0.1840 -0.2614 0.0694
C7 C 0.3249(3) -0.2063(4) 0.1974(6)
C8 C 0.3342(3) -0.2304(5) 0.0780(7)
H6 H 0.3032 -0.2290 0.0239
C9 C 0.3869(3) -0.2565(5) 0.0351(7)
H7 H 0.3924 -0.2738 -0.0468
C10 C 0.4316(3) -0.2566(6) 0.1146(8)
H8 H 0.4684 -0.2730 0.0864
C11 C 0.4235(3) -0.2330(6) 0.2368(8)
H9 H 0.4545 -0.2331 0.2910
C12 C 0.3706(3) -0.2099(5) 0.2756(7)
H10 H 0.3646 -0.1959 0.3582
C13 C 0.2143(3) 0.3022(5) 0.7493(7)
C14 C 0.1823(3) 0.3216(6) 0.8499(8)
H11 H 0.1803 0.2712 0.9118
C15 C 0.1528(4) 0.4153(7) 0.8613(11)
H12 H 0.1317 0.4286 0.9321
C16 C 0.1540(6) 0.4878(7) 0.7721(17)
H13 H 0.1325 0.5496 0.7787
C17 C 0.1872(4) 0.4699(7) 0.6714(8)
H14 H 0.1898 0.5214 0.6107
C18 C 0.2165(3) 0.3777(5) 0.6591(7)
H15 H 0.2382 0.3654 0.5890
C19 C 0.3241(3) 0.2182(5) 0.7866(7)
C20 C 0.3331(3) 0.2423(5) 0.9074(7)
H16 H 0.3027 0.2403 0.9627
C21 C 0.3870(3) 0.2694(5) 0.9457(8)
H17 H 0.3931 0.2864 1.0275
C22 C 0.4316(3) 0.2719(6) 0.8670(9)
H18 H 0.4683 0.2903 0.8941
C23 C 0.4227(3) 0.2479(6) 0.7496(9)
H19 H 0.4537 0.2487 0.6957
C24 C 0.3684(3) 0.2218(5) 0.7062(7)
H20 H 0.3626 0.2071 0.6237
C25 C 0.3948(3) 0.0662(5) 0.4213(6)
H21 H 0.3751 0.1102 0.3673
C26 C 0.4535(3) 0.0679(5) 0.4209(6)
H22 H 0.4728 0.1173 0.3729
C27 C 0.48342(19) 0.0002(4) 0.488(3)
C28 C 0.3936(3) -0.0595(5) 0.5653(7)
H23 H 0.3729 -0.1044 0.6166
C29 C 0.5460(2) -0.0025(4) 0.490(2)
C30 C 0.5763(5) -0.0213(7) 0.5960(10)
H24 H 0.5566 -0.0338 0.6688
C31 C 0.6352(4) -0.0214(6) 0.5945(9)
H25 H 0.6548 -0.0329 0.6675
C32 C 0.6347(5) 0.0126(6) 0.3927(11)
H26 H 0.6556 0.0260 0.3216
C33 C 0.5772(5) 0.0132(5) 0.3863(10)
H27 H 0.5588 0.0243 0.3118
C34 C 0.4519(3) -0.0654(5) 0.5683(6)
H28 H 0.4705 -0.1113 0.6218
Cd1B Cd 0.76337(2) -0.00576(3) 0.49304(17)
Cd1C Cd 0.23663(2) 0.00576(3) -0.00696(17)
Cd1C_2 Cd 0.23663(2) 0.00576(3) 0.99304(17)
O2C O 0.27037(18) -0.0952(3) 0.6619(5)
O4C O 0.27147(18) 0.1077(3) 0.3258(5)
N2B N 0.16424(18) 0.0064(3) 0.4971(17)
O5 O 0.5225(3) 0.2435(6) 0.2704(7)
N3 N 0.5041(4) 0.4099(6) 0.2251(8)
C35 C 0.5092(5) 0.3119(9) 0.1916(11)
H29 H 0.5032 0.2924 0.1105
C36 C 0.4943(7) 0.4802(13) 0.1267(19)
H30 H 0.4809 0.4410 0.0570
H31 H 0.5295 0.5159 0.1063
H32 H 0.4657 0.5314 0.1499
C37 C 0.5063(6) 0.4500(15) 0.3392(16)
H33 H 0.4889 0.4011 0.3953
H34 H 0.4860 0.5161 0.3416
H35 H 0.5458 0.4613 0.3620
loop_
_geom_bond_atom_site_label_1
_geom_bond_atom_site_label_2
_geom_bond_site_symmetry_1
_geom_bond_site_symmetry_2
Cd1 O1 1_555 1_555
P1 O1 1_555 1_555
P2 O3 1_555 1_555
O2 P1 1_555 1_555
O3 Cd1 1_555 1_555
O4 P2 1_555 1_555
N1 Cd1 1_555 1_555
N2 C31 1_555 1_555
C1 P1 1_555 1_555
C2 C1 1_555 1_555
H1 C2 1_555 1_555
C3 C2 1_555 1_555
H2 C3 1_555 1_555
C4 C3 1_555 1_555
H3 C4 1_555 1_555
C5 C4 1_555 1_555
H4 C5 1_555 1_555
C6 C1 1_555 1_555
H5 C6 1_555 1_555
C7 P1 1_555 1_555
C8 C7 1_555 1_555
H6 C8 1_555 1_555
C9 C8 1_555 1_555
H7 C9 1_555 1_555
C10 C9 1_555 1_555
H8 C10 1_555 1_555
C11 C10 1_555 1_555
H9 C11 1_555 1_555
C12 C7 1_555 1_555
H10 C12 1_555 1_555
C13 P2 1_555 1_555
C14 C13 1_555 1_555
H11 C14 1_555 1_555
C15 C14 1_555 1_555
H12 C15 1_555 1_555
C16 C15 1_555 1_555
H13 C16 1_555 1_555
C17 C16 1_555 1_555
H14 C17 1_555 1_555
C18 C13 1_555 1_555
H15 C18 1_555 1_555
C19 P2 1_555 1_555
C20 C19 1_555 1_555
H16 C20 1_555 1_555
C21 C20 1_555 1_555
H17 C21 1_555 1_555
C22 C21 1_555 1_555
H18 C22 1_555 1_555
C23 C22 1_555 1_555
H19 C23 1_555 1_555
C24 C19 1_555 1_555
H20 C24 1_555 1_555
C25 N1 1_555 1_555
H21 C25 1_555 1_555
C26 C25 1_555 1_555
H22 C26 1_555 1_555
C27 C26 1_555 1_555
C28 N1 1_555 1_555
H23 C28 1_555 1_555
C29 C27 1_555 1_555
C30 C29 1_555 1_555
H24 C30 1_555 1_555
C31 C30 1_555 1_555
H25 C31 1_555 1_555
C32 N2 1_555 1_555
H26 C32 1_555 1_555
C33 C29 1_555 1_555
H27 C33 1_555 1_555
C34 C27 1_555 1_555
H28 C34 1_555 1_555
O5 C35 1_555 1_555
N3 C35 1_555 1_555
C35 H29 1_555 1_555
C36 N3 1_555 1_555
H30 C36 1_555 1_555
H31 C36 1_555 1_555
H32 C36 1_555 1_555
C37 N3 1_555 1_555
H33 C37 1_555 1_555
H34 C37 1_555 1_555
H35 C37 1_555 1_555
Cd1B N2 1_555 1_555
Cd1C O2 1_555 1_555
Cd1C_2 O4 1_555 1_555
O2C Cd1 1_555 1_555
O4C Cd1 1_555 1_555
N2B Cd1 1_555 1_555
C5 C6 1_555 1_555
C11 C12 1_555 1_555
C17 C18 1_555 1_555
C23 C24 1_555 1_555
C28 C34 1_555 1_555
C32 C33 1_555 1_555

#END
