
#######################################################################
#
#                 Cambridge Crystallographic Data Centre
#                                CCDC 
#
#######################################################################
#
# If this CIF has been generated from an entry in the Cambridge 
# Structural Database, then it will include bibliographic, chemical, 
# crystal, experimental, refinement or atomic coordinate data resulting 
# from the CCDC's data processing and validation procedures.
#
#######################################################################

data_JOLSAG
_symmetry_cell_setting           orthorhombic
_symmetry_space_group_name_H-M   'F d d 2'
_symmetry_Int_Tables_number      43
_space_group_name_Hall           'F 2 -2d'
loop_
_symmetry_equiv_pos_site_id
_symmetry_equiv_pos_as_xyz
1 x,y,z
2 -x,-y,z
3 1/4-x,1/4+y,1/4+z
4 1/4+x,1/4-y,1/4+z
5 x,1/2+y,1/2+z
6 -x,1/2-y,1/2+z
7 1/4-x,3/4+y,3/4+z
8 1/4+x,3/4-y,3/4+z
9 1/2+x,y,1/2+z
10 1/2-x,-y,1/2+z
11 3/4-x,1/4+y,3/4+z
12 3/4+x,1/4-y,3/4+z
13 1/2+x,1/2+y,z
14 1/2-x,1/2-y,z
15 3/4-x,3/4+y,1/4+z
16 3/4+x,3/4-y,1/4+z
_cell_length_a                   20.672(3)
_cell_length_b                   27.303(4)
_cell_length_c                   11.7677(15)
_cell_angle_alpha                90
_cell_angle_beta                 90
_cell_angle_gamma                90
_cell_volume                     6641.78
loop_
_atom_site_label
_atom_site_type_symbol
_atom_site_fract_x
_atom_site_fract_y
_atom_site_fract_z
Cu1 Cu 0.303308(17) 0.202654(12) -0.00115(5)
Cl1 Cl 0.32406(3) 0.28618(2) 0.00000(9)
Cl2 Cl 0.32698(4) 0.12273(2) -0.00055(9)
S1 S 0.31138(4) 0.20719(3) 0.20135(7)
S2 S 0.30591(4) 0.20587(3) 0.79896(7)
O1 O 0.40551(13) 0.23491(9) 0.6017(2)
O2 O 0.43778(13) 0.24380(9) 0.3506(2)
C1 C 0.26124(17) 0.15663(12) 0.2532(4)
H1 H 0.2167 0.1605 0.2238
H2 H 0.2786 0.1253 0.2236
C2 C 0.25942(17) 0.15469(13) 0.3808(3)
C3 C 0.29516(19) 0.11985(13) 0.4403(3)
H3 H 0.3201 0.0962 0.4005
C4 C 0.29392(17) 0.12002(13) 0.5591(3)
H4 H 0.3184 0.0962 0.5994
C5 C 0.25799(16) 0.15397(12) 0.6192(3)
C6 C 0.22232(17) 0.18857(13) 0.5584(3)
H5 H 0.1977 0.2124 0.5983
C7 C 0.22224(18) 0.18870(13) 0.4404(3)
H6 H 0.1968 0.2120 0.4002
C8 C 0.25712(15) 0.15503(11) 0.7467(4)
H7 H 0.2744 0.1238 0.7768
H8 H 0.2120 0.1587 0.7739
C9 C 0.38732(16) 0.18512(12) 0.7647(3)
H9 H 0.4087 0.1728 0.8343
H10 H 0.3850 0.1579 0.7093
C10 C 0.42657(16) 0.22665(12) 0.7152(3)
H11 H 0.4204 0.2567 0.7611
H12 H 0.4731 0.2181 0.7158
C11 C 0.44071(17) 0.27292(13) 0.5471(3)
H13 H 0.4711 0.2878 0.6023
H14 H 0.4102 0.2987 0.5221
C12 C 0.47830(16) 0.25465(13) 0.4458(3)
H15 H 0.5103 0.2798 0.4233
H16 H 0.5023 0.2247 0.4676
C13 C 0.42008(19) 0.19382(13) 0.3433(3)
H17 H 0.3874 0.1861 0.4022
H18 H 0.4585 0.1729 0.3567
C14 C 0.39247(18) 0.18345(14) 0.2265(3)
H19 H 0.3918 0.1475 0.2148
H20 H 0.4219 0.1976 0.1689
Cu1_2 Cu 0.303308(17) 0.202654(12) 0.99885(5)
Cu1M Cu 0.196692(17) 0.297346(12) -0.00115(5)
Cl1M Cl 0.17594(3) 0.21382(2) 0.00000(9)
S2_2 S 0.30591(4) 0.20587(3) -0.20104(7)
loop_
_geom_bond_atom_site_label_1
_geom_bond_atom_site_label_2
_geom_bond_site_symmetry_1
_geom_bond_site_symmetry_2
Cu1 Cl1 1_555 1_555
Cl1 Cu1M 1_555 1_555
Cl2 Cu1 1_555 1_555
S1 Cu1 1_555 1_555
S2 C8 1_555 1_555
O1 C10 1_555 1_555
O2 C12 1_555 1_555
C1 S1 1_555 1_555
H1 C1 1_555 1_555
H2 C1 1_555 1_555
C2 C1 1_555 1_555
C3 C2 1_555 1_555
H3 C3 1_555 1_555
C4 C3 1_555 1_555
H4 C4 1_555 1_555
C5 C4 1_555 1_555
C6 C5 1_555 1_555
H5 C6 1_555 1_555
C7 C2 1_555 1_555
H6 C7 1_555 1_555
C8 C5 1_555 1_555
H7 C8 1_555 1_555
H8 C8 1_555 1_555
C9 S2 1_555 1_555
H9 C9 1_555 1_555
H10 C9 1_555 1_555
C10 C9 1_555 1_555
H11 C10 1_555 1_555
H12 C10 1_555 1_555
C11 O1 1_555 1_555
H13 C11 1_555 1_555
H14 C11 1_555 1_555
C12 C11 1_555 1_555
H15 C12 1_555 1_555
H16 C12 1_555 1_555
C13 O2 1_555 1_555
H17 C13 1_555 1_555
H18 C13 1_555 1_555
C14 S1 1_555 1_555
H19 C14 1_555 1_555
H20 C14 1_555 1_555
Cu1_2 S2 1_555 1_555
Cu1M Cl1M 1_555 1_555
Cl1M Cu1 1_555 1_555
S2_2 Cu1 1_555 1_555
C6 C7 1_555 1_555
C13 C14 1_555 1_555

#END
