
#######################################################################
#
#                 Cambridge Crystallographic Data Centre
#                                CCDC 
#
#######################################################################
#
# If this CIF has been generated from an entry in the Cambridge 
# Structural Database, then it will include bibliographic, chemical, 
# crystal, experimental, refinement or atomic coordinate data resulting 
# from the CCDC's data processing and validation procedures.
#
#######################################################################

data_JOLTAH
_symmetry_cell_setting           triclinic
_symmetry_space_group_name_H-M   'P -1'
_symmetry_Int_Tables_number      2
_space_group_name_Hall           '-P 1'
loop_
_symmetry_equiv_pos_site_id
_symmetry_equiv_pos_as_xyz
1 x,y,z
2 -x,-y,-z
_cell_length_a                   9.9608(8)
_cell_length_b                   10.548(1)
_cell_length_c                   11.1137(13)
_cell_angle_alpha                108.408(10)
_cell_angle_beta                 99.712(8)
_cell_angle_gamma                96.218(7)
_cell_volume                     1075.63
loop_
_atom_site_label
_atom_site_type_symbol
_atom_site_fract_x
_atom_site_fract_y
_atom_site_fract_z
Cd1 Cd 0.2003 0.4745 -0.3484
O1 O 0.2938(3) 0.3056(3) -0.3109(3)
O2 O 0.0964(3) 0.1703(3) -0.3308(4)
O3 O 0.1638(3) -0.3079(3) -0.3392(3)
O4 O 0.3703(3) -0.3291(3) -0.2447(3)
O5 O 0.3495(3) 0.7442(3) 0.4431(3)
O6 O -0.0197(3) 0.3582(3) -0.4081(3)
H1 H -0.062(7) 0.348(5) -0.486(3)
H2 H -0.008(4) 0.284(2) -0.395(4)
N1 N 0.1777(4) 0.5373(3) -0.1233(3)
N2 N 0.3224(3) 0.4441(3) 0.2666(3)
N3 N 0.2603(3) 0.4284(3) 0.4456(3)
C1 C 0.2243(4) 0.2018(4) -0.3023(4)
C2 C 0.3073(4) 0.1123(4) -0.2493(4)
C3 C 0.2554(4) -0.0238(4) -0.2775(4)
H3 H 0.1655 -0.0596 -0.3250
C4 C 0.3364(4) -0.1067(4) -0.2356(4)
C5 C 0.4687(4) -0.0521(4) -0.1616(4)
H4 H 0.5233 -0.1077 -0.1334
C6 C 0.5207(4) 0.0836(4) -0.1294(4)
H5 H 0.6089 0.1203 -0.0780
C7 C 0.4395(4) 0.1646(4) -0.1747(4)
H6 H 0.4747 0.2559 -0.1545
C8 C 0.2878(4) -0.2566(4) -0.2744(4)
C9 C 0.0959(4) 0.6216(4) -0.0742(4)
H7 H 0.0359 0.6496 -0.1305
C10 C 0.0956(4) 0.6697(5) 0.0562(4)
H8 H 0.0360 0.7283 0.0868
C11 C 0.1849(4) 0.6298(4) 0.1410(4)
H9 H 0.1854 0.6598 0.2293
C12 C 0.2741(4) 0.5438(4) 0.0918(4)
C13 C 0.2656(4) 0.4996(4) -0.0396(4)
H10 H 0.3236 0.4405 -0.0730
C14 C 0.3811(4) 0.5007(4) 0.1793(4)
H11 H 0.4253 0.4337 0.1255
H12 H 0.4517 0.5788 0.2305
C15 C 0.2469(4) 0.3161(4) 0.2318(4)
C16 C 0.2170(4) 0.2077(4) 0.1144(4)
H13 H 0.2433 0.2153 0.0402
C17 C 0.1458(4) 0.0886(4) 0.1157(4)
H14 H 0.1255 0.0127 0.0405
C18 C 0.1037(4) 0.0781(4) 0.2256(4)
H15 H 0.0543 -0.0038 0.2213
C19 C 0.1330(4) 0.1862(4) 0.3412(4)
H16 H 0.1047 0.1787 0.4146
C20 C 0.2067(4) 0.3067(4) 0.3427(4)
C21 C 0.3293(4) 0.5069(4) 0.3958(4)
C22 C 0.4179(4) 0.6411(4) 0.4678(4)
H17 H 0.4369 0.6558 0.5601
H18 H 0.5053 0.6439 0.4404
C23 C 0.4289(4) 0.8712(4) 0.4739(4)
C24 C 0.3670(4) 0.9621(4) 0.4287(4)
H19 H 0.2766 0.9367 0.3804
C25 C 0.5623(4) 0.9090(4) 0.5457(4)
H20 H 0.6048 0.8480 0.5770
O5A O 0.6505(3) 1.2558(3) 0.5569(3)
N1A N 0.8223(4) 1.4627(3) 1.1233(3)
N2A N 0.6776(3) 1.5559(3) 0.7334(3)
N3A N 0.7397(3) 1.5716(3) 0.5544(3)
C9A C 0.9041(4) 1.3784(4) 1.0742(4)
H7A H 0.9641 1.3504 1.1305
C10A C 0.9044(4) 1.3303(5) 0.9438(4)
H8A H 0.9640 1.2717 0.9132
C11A C 0.8151(4) 1.3702(4) 0.8590(4)
H9A H 0.8146 1.3402 0.7707
C12A C 0.7259(4) 1.4562(4) 0.9082(4)
C13A C 0.7344(4) 1.5004(4) 1.0396(4)
H10A H 0.6764 1.5595 1.0730
C14A C 0.6189(4) 1.4993(4) 0.8207(4)
H11A H 0.5747 1.5663 0.8745
H12A H 0.5483 1.4212 0.7695
C15A C 0.7531(4) 1.6839(4) 0.7682(4)
C16A C 0.7830(4) 1.7923(4) 0.8856(4)
H13A H 0.7567 1.7847 0.9598
C17A C 0.8542(4) 1.9114(4) 0.8843(4)
H14A H 0.8745 1.9873 0.9595
C18A C 0.8963(4) 1.9219(4) 0.7744(4)
H15A H 0.9457 2.0038 0.7787
C19A C 0.8670(4) 1.8138(4) 0.6588(4)
H16A H 0.8953 1.8213 0.5854
C20A C 0.7933(4) 1.6933(4) 0.6573(4)
C21A C 0.6707(4) 1.4931(4) 0.6042(4)
C22A C 0.5821(4) 1.3589(4) 0.5322(4)
H17A H 0.5631 1.3442 0.4399
H18A H 0.4947 1.3561 0.5596
C23A C 0.5711(4) 1.1288(4) 0.5261(4)
C24A C 0.6330(4) 1.0379(4) 0.5713(4)
H19A H 0.7234 1.0633 0.6196
C25A C 0.4377(4) 1.0910(4) 0.4543(4)
H20A H 0.3952 1.1520 0.4230
Cd1A Cd 0.7997 1.5255 0.3484
O1A O 0.7062(3) 1.6944(3) 0.3109(3)
O2A O 0.9036(3) 1.8297(3) 0.3308(4)
O3A O 0.8362(3) 2.3079(3) 0.3392(3)
O4A O 0.6297(3) 2.3291(3) 0.2447(3)
O6A O 1.0197(3) 1.6418(3) 0.4081(3)
H1A H 1.062(7) 1.652(5) 0.486(3)
H2A H 1.008(4) 1.716(2) 0.395(4)
C1A C 0.7757(4) 1.7982(4) 0.3023(4)
C2A C 0.6927(4) 1.8877(4) 0.2493(4)
C3A C 0.7446(4) 2.0238(4) 0.2775(4)
H3A H 0.8345 2.0596 0.3250
C4A C 0.6636(4) 2.1067(4) 0.2356(4)
C5A C 0.5313(4) 2.0521(4) 0.1616(4)
H4A H 0.4767 2.1077 0.1334
C6A C 0.4793(4) 1.9164(4) 0.1294(4)
H5A H 0.3911 1.8797 0.0780
C7A C 0.5605(4) 1.8354(4) 0.1747(4)
H6A H 0.5253 1.7441 0.1545
C8A C 0.7122(4) 2.2566(4) 0.2744(4)
Cd1_2 Cd 0.2003 -0.5255 -0.3484
Cd1_3 Cd 0.2003 0.4745 0.6516
Cd1A_2 Cd 0.7997 1.5255 1.3484
Cd1A_3 Cd 0.7997 2.5255 0.3484
O3_2 O 0.1638(3) 0.6921(3) -0.3392(3)
O3A_2 O 0.8362(3) 1.3079(3) 0.3392(3)
O4_2 O 0.3703(3) 0.6709(3) -0.2447(3)
O4A_2 O 0.6297(3) 1.3291(3) 0.2447(3)
N1A_2 N 0.8223(4) 1.4627(3) 0.1233(3)
N3_2 N 0.2603(3) 0.4284(3) -0.5544(3)
loop_
_geom_bond_atom_site_label_1
_geom_bond_atom_site_label_2
_geom_bond_site_symmetry_1
_geom_bond_site_symmetry_2
Cd1 O1 1_555 1_555
O1 C1 1_555 1_555
O2 C1 1_555 1_555
O3 C8 1_555 1_555
O4 C8 1_555 1_555
O5 C22 1_555 1_555
O6 Cd1 1_555 1_555
H1 O6 1_555 1_555
H2 O6 1_555 1_555
N1 Cd1 1_555 1_555
N2 C14 1_555 1_555
N3 C20 1_555 1_555
C1 C2 1_555 1_555
C2 C3 1_555 1_555
C3 H3 1_555 1_555
C4 C3 1_555 1_555
C5 C4 1_555 1_555
H4 C5 1_555 1_555
C6 C5 1_555 1_555
H5 C6 1_555 1_555
C7 C2 1_555 1_555
H6 C7 1_555 1_555
C8 C4 1_555 1_555
C9 N1 1_555 1_555
H7 C9 1_555 1_555
C10 C9 1_555 1_555
H8 C10 1_555 1_555
C11 C10 1_555 1_555
H9 C11 1_555 1_555
C12 C11 1_555 1_555
C13 N1 1_555 1_555
H10 C13 1_555 1_555
C14 C12 1_555 1_555
H11 C14 1_555 1_555
H12 C14 1_555 1_555
C15 N2 1_555 1_555
C16 C15 1_555 1_555
H13 C16 1_555 1_555
C17 C16 1_555 1_555
H14 C17 1_555 1_555
C18 C17 1_555 1_555
H15 C18 1_555 1_555
C19 C18 1_555 1_555
H16 C19 1_555 1_555
C20 C15 1_555 1_555
C21 N2 1_555 1_555
C22 C21 1_555 1_555
H17 C22 1_555 1_555
H18 C22 1_555 1_555
C23 O5 1_555 1_555
C24 C23 1_555 1_555
H19 C24 1_555 1_555
C25 C23 1_555 1_555
H20 C25 1_555 1_555
O5A C22A 1_555 1_555
N1A C9A 1_555 1_555
N2A C14A 1_555 1_555
N3A C20A 1_555 1_555
C9A H7A 1_555 1_555
C10A C9A 1_555 1_555
H8A C10A 1_555 1_555
C11A C10A 1_555 1_555
H9A C11A 1_555 1_555
C12A C11A 1_555 1_555
C13A N1A 1_555 1_555
H10A C13A 1_555 1_555
C14A C12A 1_555 1_555
H11A C14A 1_555 1_555
H12A C14A 1_555 1_555
C15A N2A 1_555 1_555
C16A C15A 1_555 1_555
H13A C16A 1_555 1_555
C17A C16A 1_555 1_555
H14A C17A 1_555 1_555
C18A C17A 1_555 1_555
H15A C18A 1_555 1_555
C19A C18A 1_555 1_555
H16A C19A 1_555 1_555
C20A C15A 1_555 1_555
C21A N2A 1_555 1_555
C22A C21A 1_555 1_555
H17A C22A 1_555 1_555
H18A C22A 1_555 1_555
C23A O5A 1_555 1_555
C24A C25 1_555 1_555
H19A C24A 1_555 1_555
C25A C24 1_555 1_555
H20A C25A 1_555 1_555
Cd1A N3A 1_555 1_555
O1A Cd1A 1_555 1_555
O2A C1A 1_555 1_555
O3A C8A 1_555 1_555
O4A C8A 1_555 1_555
O6A Cd1A 1_555 1_555
H1A O6A 1_555 1_555
H2A O6A 1_555 1_555
C1A O1A 1_555 1_555
C2A C1A 1_555 1_555
C3A C2A 1_555 1_555
H3A C3A 1_555 1_555
C4A C3A 1_555 1_555
C5A C4A 1_555 1_555
H4A C5A 1_555 1_555
C6A C5A 1_555 1_555
H5A C6A 1_555 1_555
C7A C2A 1_555 1_555
H6A C7A 1_555 1_555
C8A C4A 1_555 1_555
Cd1_2 O3 1_555 1_555
Cd1_3 N3 1_555 1_555
Cd1A_2 N1A 1_555 1_555
Cd1A_3 O3A 1_555 1_555
O3_2 Cd1 1_555 1_555
O3A_2 Cd1A 1_555 1_555
O4_2 Cd1 1_555 1_555
O4A_2 Cd1A 1_555 1_555
N1A_2 Cd1A 1_555 1_555
N3_2 Cd1 1_555 1_555
O4 Cd1_2 1_555 1_555
N3 C21 1_555 1_555
C6 C7 1_555 1_555
C12 C13 1_555 1_555
C19 C20 1_555 1_555
N3A C21A 1_555 1_555
C12A C13A 1_555 1_555
C19A C20A 1_555 1_555
C23A C24A 1_555 1_555
C23A C25A 1_555 1_555
O4A Cd1A_3 1_555 1_555
C6A C7A 1_555 1_555

#END
