
#######################################################################
#
#                 Cambridge Crystallographic Data Centre
#                                CCDC 
#
#######################################################################
#
# If this CIF has been generated from an entry in the Cambridge 
# Structural Database, then it will include bibliographic, chemical, 
# crystal, experimental, refinement or atomic coordinate data resulting 
# from the CCDC's data processing and validation procedures.
#
#######################################################################

data_JOLTIP
_symmetry_cell_setting           monoclinic
_symmetry_space_group_name_H-M   'P n'
_symmetry_Int_Tables_number      7
_space_group_name_Hall           'P -2yac'
loop_
_symmetry_equiv_pos_site_id
_symmetry_equiv_pos_as_xyz
1 x,y,z
2 1/2+x,-y,1/2+z
_cell_length_a                   5.2268(3)
_cell_length_b                   34.1050(15)
_cell_length_c                   19.4604(8)
_cell_angle_alpha                90
_cell_angle_beta                 90.00
_cell_angle_gamma                90
_cell_volume                     3469.01
loop_
_atom_site_label
_atom_site_type_symbol
_atom_site_fract_x
_atom_site_fract_y
_atom_site_fract_z
Cd1 Cd -0.97307(17) -0.49741(3) -0.35725(5)
Cd2 Cd 1.02274(15) 0.00247(3) -0.27769(5)
S1 S 1.1265(7) -0.00928(11) -0.00585(18)
S2 S -0.8708(8) -0.50882(12) -0.6289(2)
O1 O -0.2368(19) -0.2876(2) -0.4160(5)
O2 O 0.3342(18) -0.2097(3) -0.2192(5)
O3 O 1.167(2) -0.0094(3) -0.1587(5)
O4 O 0.803(2) 0.0210(3) -0.1802(5)
O5 O 0.9030(19) 0.0145(3) 0.1797(5)
O6 O 1.2471(19) -0.0155(3) 0.1381(5)
O7 O -0.818(2) -0.5104(3) -0.4750(5)
O8 O -1.185(2) -0.4802(3) -0.4550(5)
O9 O -0.746(2) -0.5147(3) -0.7720(5)
O10 O -1.103(2) -0.4851(3) -0.8131(6)
O11 O -1.668(2) -0.7096(3) -0.4176(5)
O12 O -2.2397(18) -0.7870(2) -0.2203(5)
N1 N -0.814(3) -0.4335(3) -0.3511(6)
N2 N -0.429(2) -0.3506(4) -0.5128(7)
N3 N -0.468(3) -0.2950(4) -0.5742(7)
N4 N 0.570(2) -0.2063(3) -0.0605(7)
N5 N 0.513(2) -0.1486(3) -0.1140(7)
N6 N 0.894(2) -0.0632(3) -0.2739(6)
N7 N -2.823(2) -0.9327(3) -0.2840(6)
N8 N -1.485(2) -0.6475(4) -0.5211(7)
N9 N -1.434(2) -0.7052(3) -0.5749(6)
N10 N -1.101(3) -0.5629(3) -0.3622(7)
N11 N -2.434(2) -0.8491(3) -0.1222(6)
N12 N -2.472(3) -0.7945(3) -0.0611(7)
C1 C -0.909(3) -0.4051(5) -0.3140(8)
H1 H -1.0327 -0.4115 -0.2816
C2 C -0.839(3) -0.3665(4) -0.3193(9)
H2 H -0.9145 -0.3473 -0.2920
C3 C -0.649(3) -0.3572(4) -0.3677(8)
H3 H -0.5898 -0.3316 -0.3717
C4 C -0.551(3) -0.3858(4) -0.4086(8)
C5 C -0.630(3) -0.4237(3) -0.3977(8)
H4 H -0.5539 -0.4436 -0.4232
C6 C -0.344(3) -0.3773(4) -0.4619(8)
H5 H -0.1952 -0.3665 -0.4390
H6 H -0.2932 -0.4016 -0.4837
C7 C -0.616(3) -0.3575(4) -0.5622(7)
C8 C -0.771(3) -0.3891(5) -0.5756(9)
H7 H -0.7637 -0.4118 -0.5494
C9 C -0.934(4) -0.3852(6) -0.6289(11)
H8 H -1.0358 -0.4068 -0.6398
C10 C -0.961(3) -0.3536(7) -0.6665(9)
H9 H -1.0788 -0.3535 -0.7024
C11 C -0.816(3) -0.3199(5) -0.6532(8)
H10 H -0.8330 -0.2971 -0.6791
C12 C -0.645(3) -0.3226(4) -0.5992(7)
C13 C -0.350(3) -0.3115(3) -0.5246(7)
C14 C -0.136(3) -0.2929(3) -0.4831(6)
H11 H 0.0127 -0.3098 -0.4820
H12 H -0.0869 -0.2679 -0.5029
C15 C -0.085(3) -0.2685(4) -0.3682(7)
C16 C -0.167(3) -0.2698(4) -0.3013(7)
H13 H -0.3121 -0.2845 -0.2908
C17 C -0.043(3) -0.2502(4) -0.2486(7)
H14 H -0.1057 -0.2508 -0.2039
C18 C 0.180(3) -0.2293(4) -0.2651(7)
C19 C 0.263(3) -0.2281(4) -0.3327(7)
H15 H 0.4107 -0.2143 -0.3435
C20 C 0.133(3) -0.2465(4) -0.3833(8)
H16 H 0.1893 -0.2445 -0.4285
C21 C 0.242(3) -0.2046(3) -0.1493(7)
H17 H 0.0903 -0.1883 -0.1493
H18 H 0.1977 -0.2298 -0.1298
C22 C 0.441(3) -0.1862(4) -0.1082(7)
C23 C 0.736(3) -0.1795(3) -0.0337(7)
C24 C 0.929(3) -0.1841(4) 0.0164(8)
H19 H 0.9550 -0.2080 0.0383
C25 C 1.074(3) -0.1525(5) 0.0313(9)
H20 H 1.2015 -0.1555 0.0643
C26 C 1.048(3) -0.1154(5) 0.0003(9)
H21 H 1.1568 -0.0949 0.0116
C27 C 0.853(3) -0.1104(4) -0.0476(9)
H22 H 0.8189 -0.0860 -0.0667
C28 C 0.714(3) -0.1433(4) -0.0656(7)
C29 C 0.429(3) -0.1192(4) -0.1654(8)
H23 H 0.3830 -0.0952 -0.1418
H24 H 0.2767 -0.1289 -0.1884
C30 C 0.629(3) -0.1104(4) -0.2181(8)
C31 C 0.743(3) -0.1393(4) -0.2564(8)
H25 H 0.6961 -0.1654 -0.2498
C32 C 0.923(3) -0.1300(4) -0.3043(10)
H26 H 0.9933 -0.1495 -0.3319
C33 C 1.001(3) -0.0925(5) -0.3119(8)
H27 H 1.1289 -0.0866 -0.3434
C34 C 0.712(3) -0.0729(4) -0.2284(8)
H28 H 0.6381 -0.0530 -0.2025
C35 C 0.976(3) 0.0040(4) -0.1373(8)
C36 C 0.918(3) 0.0059(3) -0.0667(7)
C37 C 0.704(3) 0.0221(4) -0.0362(7)
H29 H 0.5678 0.0330 -0.0604
C38 C 0.718(3) 0.0202(4) 0.0380(7)
H30 H 0.5902 0.0293 0.0672
C39 C 0.945(2) 0.0032(3) 0.0605(6)
C40 C 1.035(2) 0.0003(3) 0.1291(6)
C41 C -2.635(3) -0.9234(4) -0.2392(8)
H31 H -2.5618 -0.9432 -0.2130
C42 C -2.547(2) -0.8856(4) -0.2310(7)
C43 C -2.653(3) -0.8568(4) -0.2688(7)
H32 H -2.6062 -0.8308 -0.2613
C44 C -2.832(3) -0.8657(4) -0.3185(8)
H33 H -2.8963 -0.8465 -0.3478
C45 C -2.912(3) -0.9045(5) -0.3229(8)
H34 H -3.0360 -0.9108 -0.3554
C46 C -1.026(4) -0.4928(5) -0.4920(9)
C47 C -1.087(3) -0.4928(4) -0.5688(7)
C48 C -1.286(3) -0.4784(5) -0.5994(8)
H35 H -1.4220 -0.4674 -0.5751
C49 C -1.284(3) -0.4804(4) -0.6738(7)
H36 H -1.4177 -0.4718 -0.7014
C50 C -1.076(3) -0.4956(4) -0.6974(7)
C51 C -0.998(3) -0.5908(6) -0.3247(9)
H37 H -0.8762 -0.5838 -0.2922
C52 C -1.063(4) -0.6307(4) -0.3315(9)
H38 H -0.9808 -0.6502 -0.3065
C53 C -1.262(3) -0.6393(4) -0.3788(9)
H39 H -1.3236 -0.6648 -0.3826
C54 C -1.361(3) -0.6102(4) -0.4187(7)
C55 C -1.282(3) -0.5728(3) -0.4065(7)
H40 H -1.3611 -0.5527 -0.4311
C56 C -1.568(3) -0.6194(4) -0.4714(8)
H41 H -1.7180 -0.6295 -0.4478
H42 H -1.6169 -0.5954 -0.4947
C57 C -1.290(3) -0.6423(3) -0.5693(7)
C58 C -1.142(3) -0.6107(4) -0.5878(8)
H43 H -1.1616 -0.5861 -0.5679
C59 C -0.955(3) -0.6182(6) -0.6397(10)
H44 H -0.8520 -0.5973 -0.6532
C60 C -0.916(3) -0.6515(6) -0.6694(9)
H45 H -0.7865 -0.6539 -0.7019
C61 C -1.068(3) -0.6841(5) -0.6530(8)
H46 H -1.0412 -0.7083 -0.6740
C62 C -1.263(3) -0.6789(4) -0.6031(7)
C63 C -1.567(2) -0.6867(4) -0.5272(7)
C64 C -1.761(3) -0.7042(4) -0.4867(8)
H47 H -1.8092 -0.7294 -0.5061
H48 H -1.9119 -0.6876 -0.4862
C65 C -1.819(3) -0.7287(4) -0.3711(7)
C66 C -1.743(3) -0.7268(3) -0.3044(7)
H49 H -1.6012 -0.7116 -0.2931
C67 C -1.874(3) -0.7472(4) -0.2515(7)
H50 H -1.8122 -0.7465 -0.2067
C68 C -2.090(3) -0.7677(3) -0.2669(7)
C69 C -2.169(3) -0.7694(4) -0.3354(7)
H51 H -2.3131 -0.7842 -0.3463
C70 C -2.042(3) -0.7499(4) -0.3877(7)
H52 H -2.1026 -0.7508 -0.4327
C71 C -2.138(3) -0.7925(4) -0.1538(7)
H53 H -2.0944 -0.7675 -0.1331
H54 H -1.9856 -0.8087 -0.1555
C72 C -2.350(3) -0.8130(4) -0.1121(7)
C73 C -2.641(3) -0.8227(4) -0.0375(7)
C74 C -2.811(3) -0.8194(4) 0.0139(9)
H55 H -2.8241 -0.7961 0.0385
C75 C -2.961(3) -0.8497(5) 0.0290(9)
H56 H -3.0805 -0.8472 0.0641
C76 C -2.942(3) -0.8868(4) -0.0079(8)
H57 H -3.0431 -0.9080 0.0049
C77 C -2.776(3) -0.8902(4) -0.0608(8)
H58 H -2.7654 -0.9130 -0.0868
C78 C -2.618(3) -0.8566(4) -0.0746(7)
C79 C -2.348(3) -0.8780(4) -0.1756(8)
H59 H -2.3071 -0.9027 -0.1532
H60 H -2.1934 -0.8683 -0.1971
C80 C -0.939(4) -0.4999(5) -0.7721(11)
Cd1A Cd -1.47307(17) -0.50259(3) -0.85725(5)
Cd1A_2 Cd -0.47307(17) -0.50259(3) -0.85725(5)
Cd2_2 Cd -2.97726(15) -0.99753(3) -0.27769(5)
Cd2A Cd 0.52274(15) -0.00247(3) 0.22231(5)
Cd2A_2 Cd 1.52274(15) -0.00247(3) 0.22231(5)
O5A O 1.4030(19) -0.0145(3) -0.3203(5)
O6A O 0.7471(19) 0.0155(3) -0.3619(5)
O9A O -1.246(2) -0.4853(3) -0.2720(5)
O10A O -0.603(2) -0.5149(3) -0.3131(6)
N7_2 N 1.177(2) 0.0673(3) -0.2840(6)
loop_
_geom_bond_atom_site_label_1
_geom_bond_atom_site_label_2
_geom_bond_site_symmetry_1
_geom_bond_site_symmetry_2
Cd1 O7 1_555 1_555
Cd2 O3 1_555 1_555
S1 C36 1_555 1_555
S2 C47 1_555 1_555
O1 C14 1_555 1_555
O2 C18 1_555 1_555
O3 C35 1_555 1_555
O4 Cd2 1_555 1_555
O5 C40 1_555 1_555
O6 C40 1_555 1_555
O7 C46 1_555 1_555
O8 Cd1 1_555 1_555
O9 C80 1_555 1_555
O10 C80 1_555 1_555
O11 C64 1_555 1_555
O12 C68 1_555 1_555
N1 Cd1 1_555 1_555
N2 C6 1_555 1_555
N3 C12 1_555 1_555
N4 C22 1_555 1_555
N5 C22 1_555 1_555
N6 Cd2 1_555 1_555
N7 C41 1_555 1_555
N8 C56 1_555 1_555
N9 C62 1_555 1_555
N10 Cd1 1_555 1_555
N11 C72 1_555 1_555
N12 C72 1_555 1_555
C1 N1 1_555 1_555
H1 C1 1_555 1_555
C2 C1 1_555 1_555
H2 C2 1_555 1_555
C3 C2 1_555 1_555
H3 C3 1_555 1_555
C4 C3 1_555 1_555
C5 N1 1_555 1_555
H4 C5 1_555 1_555
C6 C4 1_555 1_555
H5 C6 1_555 1_555
H6 C6 1_555 1_555
C7 N2 1_555 1_555
C8 C7 1_555 1_555
H7 C8 1_555 1_555
C9 C8 1_555 1_555
H8 C9 1_555 1_555
C10 C9 1_555 1_555
H9 C10 1_555 1_555
C11 C10 1_555 1_555
H10 C11 1_555 1_555
C12 C7 1_555 1_555
C13 N2 1_555 1_555
C14 C13 1_555 1_555
H11 C14 1_555 1_555
H12 C14 1_555 1_555
C15 O1 1_555 1_555
C16 C15 1_555 1_555
H13 C16 1_555 1_555
C17 C16 1_555 1_555
H14 C17 1_555 1_555
C18 C17 1_555 1_555
C19 C18 1_555 1_555
H15 C19 1_555 1_555
C20 C15 1_555 1_555
H16 C20 1_555 1_555
C21 O2 1_555 1_555
H17 C21 1_555 1_555
H18 C21 1_555 1_555
C22 C21 1_555 1_555
C23 N4 1_555 1_555
C24 C23 1_555 1_555
H19 C24 1_555 1_555
C25 C24 1_555 1_555
H20 C25 1_555 1_555
C26 C25 1_555 1_555
H21 C26 1_555 1_555
C27 C26 1_555 1_555
H22 C27 1_555 1_555
C28 N5 1_555 1_555
C29 N5 1_555 1_555
H23 C29 1_555 1_555
H24 C29 1_555 1_555
C30 C29 1_555 1_555
C31 C30 1_555 1_555
H25 C31 1_555 1_555
C32 C31 1_555 1_555
H26 C32 1_555 1_555
C33 N6 1_555 1_555
H27 C33 1_555 1_555
C34 N6 1_555 1_555
H28 C34 1_555 1_555
C35 O4 1_555 1_555
C36 C35 1_555 1_555
C37 C36 1_555 1_555
H29 C37 1_555 1_555
C38 C37 1_555 1_555
H30 C38 1_555 1_555
C39 S1 1_555 1_555
C40 C39 1_555 1_555
C41 H31 1_555 1_555
C42 C41 1_555 1_555
C43 C42 1_555 1_555
H32 C43 1_555 1_555
C44 C43 1_555 1_555
H33 C44 1_555 1_555
C45 N7 1_555 1_555
H34 C45 1_555 1_555
C46 O8 1_555 1_555
C47 C46 1_555 1_555
C48 C47 1_555 1_555
H35 C48 1_555 1_555
C49 C48 1_555 1_555
H36 C49 1_555 1_555
C50 S2 1_555 1_555
C51 N10 1_555 1_555
H37 C51 1_555 1_555
C52 C51 1_555 1_555
H38 C52 1_555 1_555
C53 C52 1_555 1_555
H39 C53 1_555 1_555
C54 C53 1_555 1_555
C55 N10 1_555 1_555
H40 C55 1_555 1_555
C56 C54 1_555 1_555
H41 C56 1_555 1_555
H42 C56 1_555 1_555
C57 N8 1_555 1_555
C58 C57 1_555 1_555
H43 C58 1_555 1_555
C59 C58 1_555 1_555
H44 C59 1_555 1_555
C60 C59 1_555 1_555
H45 C60 1_555 1_555
C61 C60 1_555 1_555
H46 C61 1_555 1_555
C62 C57 1_555 1_555
C63 N8 1_555 1_555
C64 C63 1_555 1_555
H47 C64 1_555 1_555
H48 C64 1_555 1_555
C65 O11 1_555 1_555
C66 C65 1_555 1_555
H49 C66 1_555 1_555
C67 C66 1_555 1_555
H50 C67 1_555 1_555
C68 C67 1_555 1_555
C69 C68 1_555 1_555
H51 C69 1_555 1_555
C70 C65 1_555 1_555
H52 C70 1_555 1_555
C71 O12 1_555 1_555
H53 C71 1_555 1_555
H54 C71 1_555 1_555
C72 C71 1_555 1_555
C73 N12 1_555 1_555
C74 C73 1_555 1_555
H55 C74 1_555 1_555
C75 C74 1_555 1_555
H56 C75 1_555 1_555
C76 C75 1_555 1_555
H57 C76 1_555 1_555
C77 C76 1_555 1_555
H58 C77 1_555 1_555
C78 N11 1_555 1_555
C79 N11 1_555 1_555
H59 C79 1_555 1_555
H60 C79 1_555 1_555
C80 C50 1_555 1_555
Cd1A O10 1_555 1_555
Cd1A_2 O9 1_555 1_555
Cd2_2 N7 1_555 1_555
Cd2A O5 1_555 1_555
Cd2A_2 O6 1_555 1_555
O5A Cd2 1_555 1_555
O6A Cd2 1_555 1_555
O9A Cd1 1_555 1_555
O10A Cd1 1_555 1_555
N7_2 Cd2 1_555 1_555
N3 C13 1_555 1_555
N9 C63 1_555 1_555
C4 C5 1_555 1_555
C11 C12 1_555 1_555
C19 C20 1_555 1_555
C23 C28 1_555 1_555
C27 C28 1_555 1_555
C30 C34 1_555 1_555
C32 C33 1_555 1_555
C38 C39 1_555 1_555
C42 C79 1_555 1_555
C44 C45 1_555 1_555
C49 C50 1_555 1_555
C54 C55 1_555 1_555
C61 C62 1_555 1_555
C69 C70 1_555 1_555
C73 C78 1_555 1_555
C77 C78 1_555 1_555

#END
