
#######################################################################
#
#                 Cambridge Crystallographic Data Centre
#                                CCDC 
#
#######################################################################
#
# If this CIF has been generated from an entry in the Cambridge 
# Structural Database, then it will include bibliographic, chemical, 
# crystal, experimental, refinement or atomic coordinate data resulting 
# from the CCDC's data processing and validation procedures.
#
#######################################################################

data_JOLTEL
_symmetry_cell_setting           triclinic
_symmetry_space_group_name_H-M   'P -1'
_symmetry_Int_Tables_number      2
_space_group_name_Hall           '-P 1'
loop_
_symmetry_equiv_pos_site_id
_symmetry_equiv_pos_as_xyz
1 x,y,z
2 -x,-y,-z
_cell_length_a                   9.9952(13)
_cell_length_b                   10.2937(18)
_cell_length_c                   10.7956(16)
_cell_angle_alpha                108.729(14)
_cell_angle_beta                 99.812(12)
_cell_angle_gamma                94.992(12)
_cell_volume                     1024.51
loop_
_atom_site_label
_atom_site_type_symbol
_atom_site_fract_x
_atom_site_fract_y
_atom_site_fract_z
Co1 Co 0.29681(4) 0.02439(4) -0.15672(4)
O1 O 0.4134(2) 0.3277(2) -0.1703(2)
O2 O 0.2192(2) 0.1934(2) -0.18258(19)
O3 O 0.1535(2) -0.2463(2) 0.0464(2)
N1 N 0.1803(3) 0.0607(3) 0.2286(2)
N2 N 0.2458(3) 0.0726(3) 0.0431(2)
C1 C 0.3564(3) 0.4229(3) 0.3859(3)
H1 H 0.3753 0.5007 0.4633
C2 C 0.1360(3) -0.4665(3) 0.0671(3)
H2 H 0.2274 -0.4440 0.1123
C3 C 0.2529(3) 0.5295(3) -0.2197(3)
H3 H 0.3433 0.5635 -0.1737
C4 C 0.0659(3) 0.3411(3) -0.3174(3)
H4 H 0.0300 0.2490 -0.3354
C5 C 0.4004(3) 0.4311(3) 0.2717(3)
H5 H 0.4495 0.5139 0.2757
C6 C -0.0635(3) -0.4056(3) -0.0461(3)
H6 H -0.1062 -0.3418 -0.0769
C7 C 0.0380(3) 0.5646(3) -0.3333(3)
H7 H -0.0167 0.6223 -0.3620
C8 C 0.1723(3) 0.6177(3) -0.2618(3)
C9 C -0.0149(3) 0.4259(4) -0.3623(3)
H8 H -0.1040 0.3907 -0.4114
C10 C 0.2854(3) 0.3014(3) 0.3858(3)
H9 H 0.2577 0.2943 0.4616
C11 C 0.4094(4) -0.1671(4) 0.4487(3)
H10 H 0.4712 -0.2262 0.4185
C12 C 0.0831(3) -0.1393(3) 0.0226(3)
H11 H -0.0020 -0.1393 0.0544
H12 H 0.0613 -0.1545 -0.0725
C13 C 0.3730(3) 0.3198(3) 0.1536(3)
H13 H 0.4035 0.3265 0.0788
C14 C 0.1741(3) -0.0040(3) 0.0953(3)
C15 C 0.2004(3) 0.3915(3) -0.2456(3)
C16 C 0.2273(3) -0.0414(3) 0.4082(3)
C17 C 0.1205(3) 0.0060(3) 0.3193(3)
H14 H 0.0492 -0.0718 0.2674
H15 H 0.0781 0.0772 0.3755
C18 C 0.0729(3) -0.3717(3) 0.0209(3)
C19 C 0.2855(3) 0.2989(3) -0.1949(3)
C20 C 0.3196(3) -0.1287(3) 0.3597(3)
H16 H 0.3206 -0.1604 0.2690
C21 C 0.2327(3) 0.0045(3) 0.5450(3)
H17 H 0.1716 0.0634 0.5777
C22 C 0.2578(3) 0.1906(3) 0.2659(3)
C23 C 0.2987(3) 0.1974(3) 0.1494(3)
C24 C 0.4069(3) -0.1168(3) 0.5840(3)
H18 H 0.4675 -0.1442 0.6430
C25 C 0.2217(3) 0.7680(3) -0.2232(3)
O4 O 0.3424(2) 0.8225(2) -0.15650(19)
O5 O 0.1398(2) 0.8463(2) -0.2547(2)
N3 N 0.3208(3) -0.0308(3) 0.6332(2)
O6 O 0.4990(2) 0.1210(2) -0.09931(19)
H19 H 0.5316 0.1377 -0.0137
H20 H 0.5068 0.2008 -0.1129
O3A O -0.1535(2) -0.7537(2) -0.0464(2)
N1A N -0.1803(3) -1.0607(3) -0.2286(2)
N2A N -0.2458(3) -1.0726(3) -0.0431(2)
C1A C -0.3564(3) -1.4229(3) -0.3859(3)
H1A H -0.3753 -1.5007 -0.4633
C2A C -0.1360(3) -0.5335(3) -0.0671(3)
H2A H -0.2274 -0.5560 -0.1123
C5A C -0.4004(3) -1.4311(3) -0.2717(3)
H5A H -0.4495 -1.5139 -0.2757
C6A C 0.0635(3) -0.5944(3) 0.0461(3)
H6A H 0.1062 -0.6582 0.0769
C10A C -0.2854(3) -1.3014(3) -0.3858(3)
H9A H -0.2577 -1.2943 -0.4616
C11A C -0.4094(4) -0.8329(4) -0.4487(3)
H10A H -0.4712 -0.7738 -0.4185
C12A C -0.0831(3) -0.8607(3) -0.0226(3)
H11A H 0.0020 -0.8607 -0.0544
H12A H -0.0613 -0.8455 0.0725
C13A C -0.3730(3) -1.3198(3) -0.1536(3)
H13A H -0.4035 -1.3265 -0.0788
C14A C -0.1741(3) -0.9960(3) -0.0953(3)
C16A C -0.2273(3) -0.9586(3) -0.4082(3)
C17A C -0.1205(3) -1.0060(3) -0.3193(3)
H14A H -0.0492 -0.9282 -0.2674
H15A H -0.0781 -1.0772 -0.3755
C18A C -0.0729(3) -0.6283(3) -0.0209(3)
C20A C -0.3196(3) -0.8713(3) -0.3597(3)
H16A H -0.3206 -0.8396 -0.2690
C21A C -0.2327(3) -1.0045(3) -0.5450(3)
H17A H -0.1716 -1.0634 -0.5777
C22A C -0.2578(3) -1.1906(3) -0.2659(3)
C23A C -0.2987(3) -1.1974(3) -0.1494(3)
C24A C -0.4069(3) -0.8832(3) -0.5840(3)
H18A H -0.4675 -0.8558 -0.6430
N3A N -0.3208(3) -0.9692(3) -0.6332(2)
Co1A Co -0.29681(4) -1.02439(4) -0.84328(4)
O1A O -0.4134(2) -1.3277(2) -0.8297(2)
O2A O -0.2192(2) -1.1934(2) -0.81742(19)
C3A C -0.2529(3) -1.5295(3) -0.7803(3)
H3A H -0.3433 -1.5635 -0.8263
C4A C -0.0659(3) -1.3411(3) -0.6826(3)
H4A H -0.0300 -1.2490 -0.6646
C7A C -0.0380(3) -1.5646(3) -0.6667(3)
H7A H 0.0167 -1.6223 -0.6380
C8A C -0.1723(3) -1.6177(3) -0.7382(3)
C9A C 0.0149(3) -1.4259(4) -0.6377(3)
H8A H 0.1040 -1.3907 -0.5886
C15A C -0.2004(3) -1.3915(3) -0.7544(3)
C19A C -0.2855(3) -1.2989(3) -0.8051(3)
C25A C -0.2217(3) -1.7680(3) -0.7768(3)
O4A O -0.3424(2) -1.8225(2) -0.84350(19)
O5A O -0.1398(2) -1.8463(2) -0.7453(2)
O6A O -0.4990(2) -1.1210(2) -0.90069(19)
H19A H -0.5316 -1.1377 -0.9863
H20A H -0.5068 -1.2008 -0.8871
Co1_2 Co 0.29681(4) 0.02439(4) 0.84328(4)
Co1_3 Co 0.29681(4) 1.02439(4) -0.15672(4)
Co1A_2 Co -0.29681(4) -2.02439(4) -0.84328(4)
Co1A_3 Co -0.29681(4) -1.02439(4) 0.15672(4)
N2A_2 N -0.2458(3) -1.0726(3) -1.0431(2)
O4_2 O 0.3424(2) -0.1775(2) -0.15650(19)
O4A_2 O -0.3424(2) -0.8225(2) -0.84350(19)
O5_2 O 0.1398(2) -0.1537(2) -0.2547(2)
O5A_2 O -0.1398(2) -0.8463(2) -0.7453(2)
N3_2 N 0.3208(3) -0.0308(3) -0.3668(2)
loop_
_geom_bond_atom_site_label_1
_geom_bond_atom_site_label_2
_geom_bond_site_symmetry_1
_geom_bond_site_symmetry_2
Co1 O2 1_555 1_555
O1 C19 1_555 1_555
O2 C19 1_555 1_555
O3 C12 1_555 1_555
N1 C14 1_555 1_555
N2 Co1 1_555 1_555
C1 H1 1_555 1_555
C2 H2 1_555 1_555
C3 H3 1_555 1_555
C4 H4 1_555 1_555
C5 C1 1_555 1_555
H5 C5 1_555 1_555
C6 H6 1_555 1_555
C7 H7 1_555 1_555
C8 C3 1_555 1_555
C9 C4 1_555 1_555
H8 C9 1_555 1_555
C10 C1 1_555 1_555
H9 C10 1_555 1_555
C11 H10 1_555 1_555
C12 H11 1_555 1_555
H12 C12 1_555 1_555
C13 C5 1_555 1_555
H13 C13 1_555 1_555
C14 N2 1_555 1_555
C15 C3 1_555 1_555
C16 C17 1_555 1_555
C17 N1 1_555 1_555
H14 C17 1_555 1_555
H15 C17 1_555 1_555
C18 O3 1_555 1_555
C19 C15 1_555 1_555
C20 C11 1_555 1_555
H16 C20 1_555 1_555
C21 C16 1_555 1_555
H17 C21 1_555 1_555
C22 N1 1_555 1_555
C23 N2 1_555 1_555
C24 C11 1_555 1_555
H18 C24 1_555 1_555
C25 C8 1_555 1_555
O4 C25 1_555 1_555
O5 C25 1_555 1_555
N3 C21 1_555 1_555
O6 Co1 1_555 1_555
H19 O6 1_555 1_555
H20 O6 1_555 1_555
O3A C12A 1_555 1_555
N1A C14A 1_555 1_555
N2A C14A 1_555 1_555
C1A H1A 1_555 1_555
C2A C6 1_555 1_555
H2A C2A 1_555 1_555
C5A C1A 1_555 1_555
H5A C5A 1_555 1_555
C6A C2 1_555 1_555
H6A C6A 1_555 1_555
C10A C1A 1_555 1_555
H9A C10A 1_555 1_555
C11A H10A 1_555 1_555
C12A H11A 1_555 1_555
H12A C12A 1_555 1_555
C13A C5A 1_555 1_555
H13A C13A 1_555 1_555
C14A C12A 1_555 1_555
C16A C17A 1_555 1_555
C17A N1A 1_555 1_555
H14A C17A 1_555 1_555
H15A C17A 1_555 1_555
C18A O3A 1_555 1_555
C20A C11A 1_555 1_555
H16A C20A 1_555 1_555
C21A C16A 1_555 1_555
H17A C21A 1_555 1_555
C22A N1A 1_555 1_555
C23A N2A 1_555 1_555
C24A C11A 1_555 1_555
H18A C24A 1_555 1_555
N3A C21A 1_555 1_555
Co1A N3A 1_555 1_555
O1A C19A 1_555 1_555
O2A Co1A 1_555 1_555
C3A H3A 1_555 1_555
C4A H4A 1_555 1_555
C7A H7A 1_555 1_555
C8A C3A 1_555 1_555
C9A C4A 1_555 1_555
H8A C9A 1_555 1_555
C15A C3A 1_555 1_555
C19A O2A 1_555 1_555
C25A C8A 1_555 1_555
O4A C25A 1_555 1_555
O5A C25A 1_555 1_555
O6A Co1A 1_555 1_555
H19A O6A 1_555 1_555
H20A O6A 1_555 1_555
Co1_2 N3 1_555 1_555
Co1_3 O4 1_555 1_555
Co1A_2 O4A 1_555 1_555
Co1A_3 N2A 1_555 1_555
N2A_2 Co1A 1_555 1_555
O4_2 Co1 1_555 1_555
O4A_2 Co1A 1_555 1_555
O5_2 Co1 1_555 1_555
O5A_2 Co1A 1_555 1_555
N3_2 Co1 1_555 1_555
C2 C18 1_555 1_555
C4 C15 1_555 1_555
C6 C18 1_555 1_555
C7 C8 1_555 1_555
C7 C9 1_555 1_555
C10 C22 1_555 1_555
C12 C14 1_555 1_555
C13 C23 1_555 1_555
C16 C20 1_555 1_555
C22 C23 1_555 1_555
C24 N3 1_555 1_555
O5 Co1_3 1_555 1_555
C2A C18A 1_555 1_555
C6A C18A 1_555 1_555
C10A C22A 1_555 1_555
C13A C23A 1_555 1_555
C16A C20A 1_555 1_555
C22A C23A 1_555 1_555
C24A N3A 1_555 1_555
C4A C15A 1_555 1_555
C7A C8A 1_555 1_555
C7A C9A 1_555 1_555
C15A C19A 1_555 1_555
O5A Co1A_2 1_555 1_555

#END
