
#######################################################################
#
#                 Cambridge Crystallographic Data Centre
#                                CCDC 
#
#######################################################################
#
# If this CIF has been generated from an entry in the Cambridge 
# Structural Database, then it will include bibliographic, chemical, 
# crystal, experimental, refinement or atomic coordinate data resulting 
# from the CCDC's data processing and validation procedures.
#
#######################################################################

data_JOLVOX
_symmetry_cell_setting           monoclinic
_symmetry_space_group_name_H-M   'C 2'
_symmetry_Int_Tables_number      5
_space_group_name_Hall           'C 2y'
loop_
_symmetry_equiv_pos_site_id
_symmetry_equiv_pos_as_xyz
1 x,y,z
2 -x,y,-z
3 1/2+x,1/2+y,z
4 1/2-x,1/2+y,-z
_cell_length_a                   18.7430(3)
_cell_length_b                   10.7164(2)
_cell_length_c                   15.8474(2)
_cell_angle_alpha                90
_cell_angle_beta                 95.4380(10)
_cell_angle_gamma                90
_cell_volume                     3168.74
loop_
_atom_site_label
_atom_site_type_symbol
_atom_site_fract_x
_atom_site_fract_y
_atom_site_fract_z
Fe1 Fe 0.957592(14) 0.36134(3) 0.680636(16)
N1 N 0.86094(11) 0.07852(18) 0.82167(13)
N2 N 0.82839(11) 0.63960(19) 0.77349(12)
N3 N 0.88458(10) 0.50273(17) 0.70551(11)
N4 N 0.88926(11) 0.57759(18) 0.77415(12)
N5 N 0.78375(10) 0.6073(2) 0.70596(11)
N6 N 0.85797(10) 0.28142(18) 0.81929(11)
N7 N 0.83398(11) 0.18340(19) 0.85484(12)
N8 N 0.90189(9) 0.24458(17) 0.76113(11)
N9 N 1.02990(10) 0.41453(18) 0.78782(11)
N10 N 1.02901(10) 0.3766(2) 0.86958(11)
N11 N 1.08538(12) 0.4229(2) 0.91384(13)
N12 N 1.12445(12) 0.4907(2) 0.86393(13)
C1 C 0.74135(12) 0.3792(2) 0.42340(14)
H1 H 0.7253 0.3523 0.3691
C2 C 0.81964(12) 0.5224(2) 0.66409(12)
C3 C 0.72531(12) 0.5045(2) 0.54485(14)
H2 H 0.6978 0.5601 0.5731
C4 C 0.80576(12) 0.3359(2) 0.46171(13)
H3 H 0.8320 0.2787 0.4332
C5 C 0.83269(10) 0.3766(2) 0.54304(12)
C6 C 0.70016(13) 0.4628(2) 0.46533(15)
H4 H 0.6562 0.4903 0.4399
C7 C 0.79214(12) 0.4642(2) 0.58432(13)
C8 C 0.90300(12) 0.1204(2) 0.76361(13)
C9 C 0.94204(11) 0.0384(2) 0.71003(13)
C10 C 0.99302(11) 0.0881(2) 0.65778(13)
C11 C 1.01289(13) -0.1231(2) 0.60863(15)
H5 H 1.0364 -0.1768 0.5744
C12 C 0.96365(15) -0.1711(2) 0.65993(17)
H6 H 0.9545 -0.2563 0.6610
C13 C 1.02764(12) 0.0035(2) 0.60750(15)
H7 H 1.0611 0.0332 0.5727
C14 C 0.92841(13) -0.0901(2) 0.70932(15)
H8 H 0.8947 -0.1216 0.7431
C15 C 1.07623(11) 0.53261(19) 0.63077(13)
C16 C 1.20114(14) 0.6814(2) 0.65306(17)
H9 H 1.2428 0.7288 0.6603
C17 C 1.11354(12) 0.5463(2) 0.71176(14)
C18 C 1.10220(12) 0.5979(2) 0.56222(14)
H10 H 1.0778 0.5916 0.5085
C19 C 1.17573(13) 0.6202(2) 0.72103(16)
H11 H 1.2005 0.6281 0.7744
C20 C 1.08951(12) 0.4843(2) 0.78579(13)
C21 C 1.16309(13) 0.6706(2) 0.57363(15)
H12 H 1.1789 0.7130 0.5277
O1 O 0.89509(8) 0.33158(14) 0.57685(9)
O2 O 1.01893(8) 0.46088(16) 0.61554(9)
O3 O 1.01093(8) 0.20844(15) 0.65591(10)
Na1 Na 1.0000 0.31894(12) 0.5000
H13 H 0.977(7) 0.251(19) 0.638(13)
Na2 Na 1.0000 0.79567(15) 1.0000
O4 O 1.07578(12) 0.6334(2) 1.05162(13)
O5 O 0.96561(16) 0.7731(3) 1.13904(15)
H14 H 1.0389(12) 0.663(3) 1.0767(18)
H15 H 1.0665(19) 0.588(3) 1.0956(18)
H16 H 0.958(2) 0.841(3) 1.105(2)
H17 H 0.9218(19) 0.748(9) 1.132(6)
Na3 Na 0.81892(6) 0.92720(10) 1.05583(7)
O6 O 0.69664(11) 0.95379(19) 1.06844(11)
H18 H 0.666(2) 0.895(4) 1.110(2)
H19 H 0.7389(18) 0.963(7) 1.095(4)
O7 O 0.91883(11) 0.9654(2) 0.97898(13)
H20 H 0.8953(18) 0.974(4) 0.9281(15)
H21 H 0.9499(14) 1.017(3) 0.993(2)
Na4 Na 0.79525(6) 0.68211(9) 0.91570(5)
O8 O 0.79660(10) 0.71004(17) 1.06104(10)
H22 H 0.828(3) 0.647(7) 1.058(4)
H23 H 0.7540(18) 0.700(3) 1.084(2)
O9 O 0.77295(11) 0.89967(17) 0.89852(13)
H24 H 0.7540(18) 0.884(4) 0.839(2)
O10 O 0.83236(11) 1.15022(19) 1.08534(13)
H25 H 0.866(3) 1.166(6) 1.137(4)
H26 H 0.858(3) 1.208(5) 1.054(3)
O11 O 0.85759(14) 0.9118(2) 1.20499(14)
H27 H 0.8583 0.9815 1.2263
H28 H 0.8499(18) 0.864(4) 1.248(2)
Fe1A Fe 1.042408(14) 0.36134(3) 0.319364(16)
N1A N 1.13906(11) 0.07852(18) 0.17833(13)
N2A N 1.17161(11) 0.63960(19) 0.22651(12)
N3A N 1.11542(10) 0.50273(17) 0.29449(11)
N4A N 1.11074(11) 0.57759(18) 0.22585(12)
N5A N 1.21625(10) 0.6073(2) 0.29404(11)
N6A N 1.14203(10) 0.28142(18) 0.18071(11)
N7A N 1.16602(11) 0.18340(19) 0.14516(12)
N8A N 1.09811(9) 0.24458(17) 0.23887(11)
N9A N 0.97010(10) 0.41453(18) 0.21218(11)
N10A N 0.97099(10) 0.3766(2) 0.13042(11)
N11A N 0.91462(12) 0.4229(2) 0.08616(13)
N12A N 0.87555(12) 0.4907(2) 0.13607(13)
C1A C 1.25865(12) 0.3792(2) 0.57660(14)
H1A H 1.2747 0.3523 0.6309
C2A C 1.18036(12) 0.5224(2) 0.33591(12)
C3A C 1.27469(12) 0.5045(2) 0.45515(14)
H2A H 1.3022 0.5601 0.4269
C4A C 1.19424(12) 0.3359(2) 0.53829(13)
H3A H 1.1680 0.2787 0.5668
C5A C 1.16731(10) 0.3766(2) 0.45696(12)
C6A C 1.29984(13) 0.4628(2) 0.53467(15)
H4A H 1.3438 0.4903 0.5601
C7A C 1.20786(12) 0.4642(2) 0.41568(13)
C8A C 1.09700(12) 0.1204(2) 0.23639(13)
C9A C 1.05796(11) 0.0384(2) 0.28997(13)
C10A C 1.00698(11) 0.0881(2) 0.34222(13)
C11A C 0.98711(13) -0.1231(2) 0.39137(15)
H5A H 0.9636 -0.1768 0.4256
C12A C 1.03635(15) -0.1711(2) 0.34007(17)
H6A H 1.0455 -0.2563 0.3390
C13A C 0.97236(12) 0.0035(2) 0.39250(15)
H7A H 0.9389 0.0332 0.4273
C14A C 1.07159(13) -0.0901(2) 0.29068(15)
H8A H 1.1053 -0.1216 0.2569
C15A C 0.92377(11) 0.53261(19) 0.36923(13)
C16A C 0.79886(14) 0.6814(2) 0.34694(17)
H9A H 0.7572 0.7288 0.3397
C17A C 0.88646(12) 0.5463(2) 0.28824(14)
C18A C 0.89780(12) 0.5979(2) 0.43778(14)
H10A H 0.9222 0.5916 0.4915
C19A C 0.82427(13) 0.6202(2) 0.27897(16)
H11A H 0.7995 0.6281 0.2256
C20A C 0.91049(12) 0.4843(2) 0.21421(13)
C21A C 0.83691(13) 0.6706(2) 0.42637(15)
H12A H 0.8211 0.7130 0.4723
O1A O 1.10491(8) 0.33158(14) 0.42315(9)
O2A O 0.98107(8) 0.46088(16) 0.38446(9)
O3A O 0.98907(8) 0.20844(15) 0.34409(10)
H13A H 1.023(7) 0.251(19) 0.362(13)
Na3A Na 1.18108(6) 0.92720(10) -0.05583(7)
O6A O 1.30336(11) 0.95379(19) -0.06844(11)
H18A H 1.334(2) 0.895(4) -0.110(2)
H19A H 1.2611(18) 0.963(7) -0.095(4)
O7A O 1.08117(11) 0.9654(2) 0.02102(13)
H20A H 1.1047(18) 0.974(4) 0.0719(15)
H21A H 1.0501(14) 1.017(3) 0.007(2)
Na4A Na 1.20475(6) 0.68211(9) 0.08430(5)
O8A O 1.20340(10) 0.71004(17) -0.06104(10)
H22A H 1.172(3) 0.647(7) -0.058(4)
H23A H 1.2460(18) 0.700(3) -0.084(2)
O9A O 1.22705(11) 0.89967(17) 0.10148(13)
H24A H 1.2460(18) 0.884(4) 0.161(2)
O10A O 1.16764(11) 1.15022(19) -0.08534(13)
H25A H 1.134(3) 1.166(6) -0.137(4)
H26A H 1.142(3) 1.208(5) -0.054(3)
O11A O 1.14241(14) 0.9118(2) -0.20499(14)
H27A H 1.1417 0.9815 -0.2263
H28A H 1.1501(18) 0.864(4) -0.248(2)
O4A O 0.92422(12) 0.6334(2) 0.94838(13)
H14A H 0.9611(12) 0.663(3) 0.9233(18)
H15A H 0.9335(19) 0.588(3) 0.9044(18)
O5A O 1.03439(16) 0.7731(3) 0.86096(15)
H16A H 1.042(2) 0.841(3) 0.895(2)
H17A H 1.0782(19) 0.748(9) 0.868(6)
Na2_2 Na 1.0000 0.79567(15) 0.0000
O4_2 O 1.07578(12) 0.6334(2) 0.05162(13)
O6B O 1.19664(11) 0.45379(19) 0.06844(11)
O6C O 0.80336(11) 0.45379(19) 0.93156(11)
O7A_2 O 1.08117(11) 0.9654(2) 1.02102(13)
Na4A_2 Na 1.20475(6) 0.68211(9) 1.08430(5)
Na4B Na 1.29525(6) 1.18211(9) -0.08430(5)
Na4C Na 0.70475(6) 1.18211(9) 1.08430(5)
O10B O 1.33236(11) 0.65022(19) 0.08534(13)
O10C O 0.66764(11) 0.65022(19) 0.91466(13)
O12 O 1.0000 0.1945(3) 0.0000
H29 H 0.988(3) 0.227(5) 0.045(2)
H29A H 1.012(3) 0.227(5) -0.045(2)
O13 O 0.64405(11) 0.6657(2) 0.74604(12)
H30 H 0.6828(19) 0.651(4) 0.716(2)
H31 H 0.6145(19) 0.713(4) 0.716(2)
loop_
_geom_bond_atom_site_label_1
_geom_bond_atom_site_label_2
_geom_bond_site_symmetry_1
_geom_bond_site_symmetry_2
Fe1 N3 1_555 1_555
N1 N7 1_555 1_555
N2 N4 1_555 1_555
N3 N4 1_555 1_555
N5 N2 1_555 1_555
N6 N7 1_555 1_555
N8 Fe1 1_555 1_555
N9 Fe1 1_555 1_555
N10 N9 1_555 1_555
N11 N10 1_555 1_555
N12 N11 1_555 1_555
C1 H1 1_555 1_555
C2 N3 1_555 1_555
C3 H2 1_555 1_555
C4 C1 1_555 1_555
H3 C4 1_555 1_555
C5 C4 1_555 1_555
C6 C1 1_555 1_555
H4 C6 1_555 1_555
C7 C2 1_555 1_555
C8 N1 1_555 1_555
C9 C8 1_555 1_555
C10 C9 1_555 1_555
C11 H5 1_555 1_555
C12 C11 1_555 1_555
H6 C12 1_555 1_555
C13 C10 1_555 1_555
H7 C13 1_555 1_555
C14 C9 1_555 1_555
H8 C14 1_555 1_555
C15 C17 1_555 1_555
C16 H9 1_555 1_555
C17 C19 1_555 1_555
C18 C15 1_555 1_555
H10 C18 1_555 1_555
C19 C16 1_555 1_555
H11 C19 1_555 1_555
C20 N9 1_555 1_555
C21 C16 1_555 1_555
H12 C21 1_555 1_555
O1 Fe1 1_555 1_555
O2 Fe1 1_555 1_555
O3 Fe1 1_555 1_555
Na1 O1 1_555 1_555
H13 O3 1_555 1_555
Na2 O4 1_555 1_555
O4 H14 1_555 1_555
O5 Na2 1_555 1_555
H15 O4 1_555 1_555
H16 O5 1_555 1_555
H17 O5 1_555 1_555
Na3 O6 1_555 1_555
O6 H18 1_555 1_555
H19 O6 1_555 1_555
O7 Na2 1_555 1_555
H20 O7 1_555 1_555
H21 O7 1_555 1_555
Na4 N2 1_555 1_555
O8 Na3 1_555 1_555
H22 O8 1_555 1_555
H23 O8 1_555 1_555
O9 Na3 1_555 1_555
H24 O9 1_555 1_555
O10 Na3 1_555 1_555
H25 O10 1_555 1_555
H26 O10 1_555 1_555
O11 Na3 1_555 1_555
H27 O11 1_555 1_555
H28 O11 1_555 1_555
O12 H29 1_555 1_555
O13 H30 1_555 1_555
H31 O13 1_555 1_555
Fe1A N3A 1_555 1_555
N1A N7A 1_555 1_555
N2A N4A 1_555 1_555
N3A N4A 1_555 1_555
N5A N2A 1_555 1_555
N6A N7A 1_555 1_555
N8A Fe1A 1_555 1_555
N9A Fe1A 1_555 1_555
N10A N9A 1_555 1_555
N11A N10A 1_555 1_555
N12A N11A 1_555 1_555
C1A H1A 1_555 1_555
C2A N3A 1_555 1_555
C3A H2A 1_555 1_555
C4A C1A 1_555 1_555
H3A C4A 1_555 1_555
C5A C4A 1_555 1_555
C6A C1A 1_555 1_555
H4A C6A 1_555 1_555
C7A C2A 1_555 1_555
C8A N1A 1_555 1_555
C9A C8A 1_555 1_555
C10A C9A 1_555 1_555
C11A H5A 1_555 1_555
C12A C11A 1_555 1_555
H6A C12A 1_555 1_555
C13A C10A 1_555 1_555
H7A C13A 1_555 1_555
C14A C9A 1_555 1_555
H8A C14A 1_555 1_555
C15A C17A 1_555 1_555
C16A H9A 1_555 1_555
C17A C19A 1_555 1_555
C18A C15A 1_555 1_555
H10A C18A 1_555 1_555
C19A C16A 1_555 1_555
H11A C19A 1_555 1_555
C20A N9A 1_555 1_555
C21A C16A 1_555 1_555
H12A C21A 1_555 1_555
O1A Na1 1_555 1_555
O2A Na1 1_555 1_555
O3A Na1 1_555 1_555
H13A O3A 1_555 1_555
Na3A O6A 1_555 1_555
O6A H18A 1_555 1_555
H19A O6A 1_555 1_555
O7A Na3A 1_555 1_555
H20A O7A 1_555 1_555
H21A O7A 1_555 1_555
Na4A N2A 1_555 1_555
O8A Na3A 1_555 1_555
H22A O8A 1_555 1_555
H23A O8A 1_555 1_555
O9A Na3A 1_555 1_555
H24A O9A 1_555 1_555
O10A Na3A 1_555 1_555
H25A O10A 1_555 1_555
H26A O10A 1_555 1_555
O11A Na3A 1_555 1_555
H27A O11A 1_555 1_555
H28A O11A 1_555 1_555
O4A Na2 1_555 1_555
H14A O4A 1_555 1_555
H15A O4A 1_555 1_555
O5A Na2 1_555 1_555
H16A O5A 1_555 1_555
H17A O5A 1_555 1_555
Na2_2 O7A 1_555 1_555
O4_2 Na4A 1_555 1_555
O6B Na4A 1_555 1_555
O6C Na4 1_555 1_555
O7A_2 Na2 1_555 1_555
Na4A_2 O4 1_555 1_555
Na4B O6A 1_555 1_555
Na4C O6 1_555 1_555
O10B Na4A 1_555 1_555
O10C Na4 1_555 1_555
H29A O12 1_555 1_555
N5 C2 1_555 1_555
N6 N8 1_555 1_555
N8 C8 1_555 1_555
N12 C20 1_555 1_555
C3 C6 1_555 1_555
C3 C7 1_555 1_555
C5 C7 1_555 1_555
C5 O1 1_555 1_555
C10 O3 1_555 1_555
C11 C13 1_555 1_555
C12 C14 1_555 1_555
C15 O2 1_555 1_555
C17 C20 1_555 1_555
C18 C21 1_555 1_555
O2 Na1 1_555 1_555
O3 Na1 1_555 1_555
Na3 O7 1_555 1_555
Na4 O8 1_555 1_555
Na4 O9 1_555 1_555
Na4 O4A 1_555 1_555
O10 Na4C 1_555 1_555
Fe1A O1A 1_555 1_555
Fe1A O2A 1_555 1_555
Fe1A O3A 1_555 1_555
N5A C2A 1_555 1_555
N6A N8A 1_555 1_555
N8A C8A 1_555 1_555
N12A C20A 1_555 1_555
C3A C6A 1_555 1_555
C3A C7A 1_555 1_555
C5A C7A 1_555 1_555
C5A O1A 1_555 1_555
C10A O3A 1_555 1_555
C11A C13A 1_555 1_555
C12A C14A 1_555 1_555
C15A O2A 1_555 1_555
C17A C20A 1_555 1_555
C18A C21A 1_555 1_555
Na4A O8A 1_555 1_555
Na4A O9A 1_555 1_555
O10A Na4B 1_555 1_555
Na2_2 O4_2 1_555 1_555

#END
