
#######################################################################
#
#                 Cambridge Crystallographic Data Centre
#                                CCDC 
#
#######################################################################
#
# If this CIF has been generated from an entry in the Cambridge 
# Structural Database, then it will include bibliographic, chemical, 
# crystal, experimental, refinement or atomic coordinate data resulting 
# from the CCDC's data processing and validation procedures.
#
#######################################################################

data_JOMFOI
_symmetry_cell_setting           orthorhombic
_symmetry_space_group_name_H-M   'P b c a'
_symmetry_Int_Tables_number      61
_space_group_name_Hall           '-P 2ac 2ab'
loop_
_symmetry_equiv_pos_site_id
_symmetry_equiv_pos_as_xyz
1 x,y,z
2 1/2-x,-y,1/2+z
3 -x,1/2+y,1/2-z
4 1/2+x,1/2-y,-z
5 -x,-y,-z
6 1/2+x,y,1/2-z
7 x,1/2-y,1/2+z
8 1/2-x,1/2+y,z
_cell_length_a                   14.8265(14)
_cell_length_b                   14.6916(18)
_cell_length_c                   17.3287(18)
_cell_angle_alpha                90
_cell_angle_beta                 90
_cell_angle_gamma                90
_cell_volume                     3774.62
loop_
_atom_site_label
_atom_site_type_symbol
_atom_site_fract_x
_atom_site_fract_y
_atom_site_fract_z
Zn1 Zn 0.19667(5) 0.54799(5) 0.08029(4)
C1 C 0.2952(5) 0.4260(6) -0.0215(6)
H1 H 0.2537 0.3809 -0.0091
C2 C 0.4079(5) 0.4948(5) -0.0775(4)
C3 C 0.3634(4) 0.5539(4) -0.0284(4)
C4 C 0.3919(5) 0.6407(5) -0.0187(4)
H2 H 0.3629 0.6811 0.0143
C5 C 0.4668(6) 0.6653(6) -0.0609(5)
H3 H 0.4894 0.7240 -0.0556
C6 C 0.5094(6) 0.6064(7) -0.1106(5)
H4 H 0.5590 0.6267 -0.1385
C7 C 0.4812(6) 0.5207(6) -0.1199(5)
H5 H 0.5100 0.4807 -0.1534
C8 C 0.3942(7) 0.3200(7) -0.0997(6)
H6 H 0.4588 0.3166 -0.1082
H7 H 0.3752 0.2709 -0.0660
C9 C 0.3448(7) 0.3218(6) -0.1701(6)
H8 H 0.3700 0.3651 -0.2064
H9 H 0.2816 0.3358 -0.1615
C10 C 0.0772(7) 0.4070(9) 0.0621(6)
C11 C 0.2348(5) 0.0580(4) -0.2794(4)
H10 H 0.1943 0.1027 -0.2951
C12 C 0.3374(5) -0.0121(6) -0.2130(4)
C13 C 0.3123(4) -0.0643(4) -0.2757(4)
C14 C 0.3506(5) -0.1487(5) -0.2888(4)
H11 H 0.3334 -0.1850 -0.3303
C15 C 0.4157(5) -0.1760(6) -0.2370(6)
H12 H 0.4440 -0.2319 -0.2439
C16 C 0.4401(6) -0.1213(9) -0.1741(6)
H13 H 0.4845 -0.1418 -0.1404
C17 C 0.4009(6) -0.0397(7) -0.1612(5)
H14 H 0.4165 -0.0041 -0.1189
C18 C 0.2928(7) 0.1476(7) -0.1687(5)
H15 H 0.3105 0.1302 -0.1169
H16 H 0.2344 0.1772 -0.1656
C19 C 0.3595(9) 0.2120(7) -0.2004(7)
H17 H 0.4194 0.1920 -0.1856
H18 H 0.3561 0.2105 -0.2563
O1 O 0.0908(4) 0.4844(5) 0.0502(4)
O2 O 0.1170(7) 0.3584(7) 0.0915(5)
N1 N 0.2923(3) 0.5070(4) 0.0058(3)
N2 N 0.3647(6) 0.4133(6) -0.0698(5)
N3 N 0.2470(3) -0.0178(3) -0.3165(3)
N4 N 0.2854(4) 0.0653(4) -0.2174(3)
Cl1 Cl 0.16946(17) 0.69530(15) 0.07356(13)
Zn1F Zn 0.19667(5) -0.04799(5) -0.41971(4)
N3F N 0.2470(3) 0.5178(3) 0.1835(3)
loop_
_geom_bond_atom_site_label_1
_geom_bond_atom_site_label_2
_geom_bond_site_symmetry_1
_geom_bond_site_symmetry_2
Zn1 O1 1_555 1_555
C1 H1 1_555 1_555
C2 C3 1_555 1_555
C3 C4 1_555 1_555
C4 H2 1_555 1_555
C5 C4 1_555 1_555
H3 C5 1_555 1_555
C6 C5 1_555 1_555
H4 C6 1_555 1_555
C7 C2 1_555 1_555
H5 C7 1_555 1_555
C8 H6 1_555 1_555
H7 C8 1_555 1_555
C9 C8 1_555 1_555
H8 C9 1_555 1_555
H9 C9 1_555 1_555
C10 O1 1_555 1_555
C11 H10 1_555 1_555
C12 C13 1_555 1_555
C13 C14 1_555 1_555
C14 H11 1_555 1_555
C15 C14 1_555 1_555
H12 C15 1_555 1_555
C16 C15 1_555 1_555
H13 C16 1_555 1_555
C17 C12 1_555 1_555
H14 C17 1_555 1_555
C18 H15 1_555 1_555
H16 C18 1_555 1_555
C19 C9 1_555 1_555
H17 C19 1_555 1_555
H18 C19 1_555 1_555
O2 C10 1_555 1_555
N1 Zn1 1_555 1_555
N2 C1 1_555 1_555
N3 C11 1_555 1_555
N4 C11 1_555 1_555
Cl1 Zn1 1_555 1_555
Zn1F N3 1_555 1_555
N3F Zn1 1_555 1_555
C1 N1 1_555 1_555
C2 N2 1_555 1_555
C3 N1 1_555 1_555
C6 C7 1_555 1_555
C8 N2 1_555 1_555
C12 N4 1_555 1_555
C13 N3 1_555 1_555
C16 C17 1_555 1_555
C18 C19 1_555 1_555
C18 N4 1_555 1_555

#END
