
#######################################################################
#
#                 Cambridge Crystallographic Data Centre
#                                CCDC 
#
#######################################################################
#
# If this CIF has been generated from an entry in the Cambridge 
# Structural Database, then it will include bibliographic, chemical, 
# crystal, experimental, refinement or atomic coordinate data resulting 
# from the CCDC's data processing and validation procedures.
#
#######################################################################

data_JOMFEY
_symmetry_cell_setting           monoclinic
_symmetry_space_group_name_H-M   'P 21/c'
_symmetry_Int_Tables_number      14
_space_group_name_Hall           '-P 2ybc'
loop_
_symmetry_equiv_pos_site_id
_symmetry_equiv_pos_as_xyz
1 x,y,z
2 -x,1/2+y,1/2-z
3 -x,-y,-z
4 x,1/2-y,1/2+z
_cell_length_a                   14.9090(9)
_cell_length_b                   9.1546(5)
_cell_length_c                   14.7095(10)
_cell_angle_alpha                90
_cell_angle_beta                 95.705(6)
_cell_angle_gamma                90
_cell_volume                     1997.7
loop_
_atom_site_label
_atom_site_type_symbol
_atom_site_fract_x
_atom_site_fract_y
_atom_site_fract_z
Cd1 Cd 0.754018(13) 0.48370(2) 0.173892(15)
C1 C 0.6697(2) 0.6997(4) -0.0280(2)
H1 H 0.7281 0.6619 -0.0069
H2 H 0.6729 0.8042 -0.0328
H3 H 0.6503 0.6590 -0.0868
C2 C 0.60440(19) 0.6599(3) 0.03775(19)
C3 C 0.47660(18) 0.6465(3) 0.10137(19)
C4 C 0.54202(18) 0.5630(3) 0.15034(19)
C5 C 0.5211(2) 0.4819(4) 0.2248(2)
H4 H 0.5639 0.4227 0.2571
C6 C 0.4352(2) 0.4920(4) 0.2492(2)
H5 H 0.4191 0.4369 0.2981
C7 C 0.3718(2) 0.5820(4) 0.2030(2)
H6 H 0.3152 0.5904 0.2241
C8 C 0.38970(19) 0.6596(3) 0.1270(2)
H7 H 0.3463 0.7174 0.0946
C9 C 0.4720(2) 0.8008(3) -0.0409(2)
H8 H 0.4142 0.7579 -0.0621
H9 H 0.5076 0.8059 -0.0926
C10 C 0.4571(2) 0.9546(3) -0.0062(2)
H10 H 0.4136 1.0039 -0.0491
H11 H 0.4317 0.9483 0.0518
C11 C 0.7995(2) 0.8659(4) 0.1610(2)
H12 H 0.7820 0.9197 0.1061
H13 H 0.8182 0.9328 0.2096
H14 H 0.7494 0.8093 0.1773
C12 C 0.87529(19) 0.7672(3) 0.14571(19)
C13 C 1.01263(18) 0.6933(3) 0.12493(18)
C14 C 0.95632(18) 0.5733(3) 0.13095(18)
C15 C 0.9889(2) 0.4320(3) 0.1245(2)
H15 H 0.9518 0.3512 0.1287
C16 C 1.0784(2) 0.4167(4) 0.1117(2)
H16 H 1.1026 0.3236 0.1073
C17 C 1.1337(2) 0.5381(4) 0.1052(2)
H17 H 1.1938 0.5236 0.0954
C18 C 1.1029(2) 0.6776(4) 0.1126(2)
H18 H 1.1407 0.7579 0.1095
C19 C 0.9874(2) 0.9689(3) 0.1294(2)
H19 H 1.0511 0.9761 0.1501
H20 H 0.9546 1.0263 0.1706
C20 C 0.9710(2) 1.0326(3) 0.0337(2)
H21 H 0.9082 1.0180 0.0114
H22 H 0.9818 1.1371 0.0371
N1 N 0.62231(15) 0.5747(3) 0.10932(16)
N2 N 0.51802(15) 0.7070(2) 0.02962(16)
N3 N 0.87030(15) 0.6230(2) 0.14371(16)
N4 N 0.95926(16) 0.8154(3) 0.13411(16)
Cl1 Cl 0.76923(6) 0.24265(9) 0.11116(7)
Cl2 Cl 0.75088(6) 0.51546(11) 0.33746(6)
C1B C 0.3303(2) 1.3003(4) 0.0280(2)
H1B H 0.2719 1.3381 0.0069
H2B H 0.3271 1.1958 0.0328
H3B H 0.3497 1.3410 0.0868
C2B C 0.39560(19) 1.3401(3) -0.03775(19)
C3B C 0.52340(18) 1.3535(3) -0.10137(19)
C4B C 0.45798(18) 1.4370(3) -0.15034(19)
C5B C 0.4789(2) 1.5181(4) -0.2248(2)
H4B H 0.4361 1.5773 -0.2571
C6B C 0.5648(2) 1.5080(4) -0.2492(2)
H5B H 0.5809 1.5631 -0.2981
C7B C 0.6282(2) 1.4180(4) -0.2030(2)
H6B H 0.6848 1.4096 -0.2241
C8B C 0.61030(19) 1.3404(3) -0.1270(2)
H7B H 0.6537 1.2826 -0.0946
C9B C 0.5280(2) 1.1992(3) 0.0409(2)
H8B H 0.5858 1.2421 0.0621
H9B H 0.4924 1.1941 0.0926
C10B C 0.5429(2) 1.0454(3) 0.0062(2)
H10B H 0.5864 0.9961 0.0491
H11B H 0.5683 1.0517 -0.0518
N1B N 0.37769(15) 1.4253(3) -0.10932(16)
N2B N 0.48198(15) 1.2930(2) -0.02962(16)
C11B C 1.2005(2) 1.1341(4) -0.1610(2)
H12B H 1.2180 1.0803 -0.1061
H13B H 1.1818 1.0672 -0.2096
H14B H 1.2506 1.1907 -0.1773
C12B C 1.12471(19) 1.2328(3) -0.14571(19)
C13B C 0.98737(18) 1.3067(3) -0.12493(18)
C14B C 1.04368(18) 1.4267(3) -0.13095(18)
C15B C 1.0111(2) 1.5680(3) -0.1245(2)
H15B H 1.0482 1.6488 -0.1287
C16B C 0.9216(2) 1.5833(4) -0.1117(2)
H16B H 0.8974 1.6764 -0.1073
C17B C 0.8663(2) 1.4619(4) -0.1052(2)
H17B H 0.8062 1.4764 -0.0954
C18B C 0.8971(2) 1.3224(4) -0.1126(2)
H18B H 0.8593 1.2421 -0.1095
C19B C 1.0126(2) 1.0311(3) -0.1294(2)
H19B H 0.9489 1.0239 -0.1501
H20B H 1.0454 0.9737 -0.1706
C20B C 1.0290(2) 0.9674(3) -0.0337(2)
H21B H 1.0918 0.9820 -0.0114
H22B H 1.0182 0.8629 -0.0371
N3B N 1.12970(15) 1.3770(2) -0.14371(16)
N4B N 1.04074(16) 1.1846(3) -0.13411(16)
Cd1B Cd 0.245982(13) 1.51630(2) -0.173892(15)
Cl1B Cl 0.23077(6) 1.75735(9) -0.11116(7)
Cl2B Cl 0.24912(6) 1.48454(11) -0.33746(6)
Cd1B_2 Cd 1.245982(13) 1.51630(2) -0.173892(15)
N3B_2 N 0.12970(15) 1.3770(2) -0.14371(16)
loop_
_geom_bond_atom_site_label_1
_geom_bond_atom_site_label_2
_geom_bond_site_symmetry_1
_geom_bond_site_symmetry_2
Cd1 N1 1_555 1_555
C1 H1 1_555 1_555
H2 C1 1_555 1_555
H3 C1 1_555 1_555
C2 C1 1_555 1_555
C3 C4 1_555 1_555
C4 C5 1_555 1_555
C5 H4 1_555 1_555
C6 C5 1_555 1_555
H5 C6 1_555 1_555
C7 C6 1_555 1_555
H6 C7 1_555 1_555
C8 C3 1_555 1_555
H7 C8 1_555 1_555
C9 H8 1_555 1_555
H9 C9 1_555 1_555
C10 C9 1_555 1_555
H10 C10 1_555 1_555
H11 C10 1_555 1_555
C11 H12 1_555 1_555
H13 C11 1_555 1_555
H14 C11 1_555 1_555
C12 C11 1_555 1_555
C13 C14 1_555 1_555
C14 C15 1_555 1_555
C15 H15 1_555 1_555
C16 C15 1_555 1_555
H16 C16 1_555 1_555
C17 C16 1_555 1_555
H17 C17 1_555 1_555
C18 C13 1_555 1_555
H18 C18 1_555 1_555
C19 H19 1_555 1_555
H20 C19 1_555 1_555
C20 C19 1_555 1_555
H21 C20 1_555 1_555
H22 C20 1_555 1_555
N1 C2 1_555 1_555
N2 C2 1_555 1_555
N3 Cd1 1_555 1_555
N4 C12 1_555 1_555
Cl1 Cd1 1_555 1_555
Cl2 Cd1 1_555 1_555
C1B H1B 1_555 1_555
H2B C1B 1_555 1_555
H3B C1B 1_555 1_555
C2B C1B 1_555 1_555
C3B C4B 1_555 1_555
C4B C5B 1_555 1_555
C5B H4B 1_555 1_555
C6B C5B 1_555 1_555
H5B C6B 1_555 1_555
C7B C6B 1_555 1_555
H6B C7B 1_555 1_555
C8B C3B 1_555 1_555
H7B C8B 1_555 1_555
C9B H8B 1_555 1_555
H9B C9B 1_555 1_555
C10B C10 1_555 1_555
H10B C10B 1_555 1_555
H11B C10B 1_555 1_555
N1B C2B 1_555 1_555
N2B C2B 1_555 1_555
C11B H12B 1_555 1_555
H13B C11B 1_555 1_555
H14B C11B 1_555 1_555
C12B C11B 1_555 1_555
C13B C14B 1_555 1_555
C14B C15B 1_555 1_555
C15B H15B 1_555 1_555
C16B C15B 1_555 1_555
H16B C16B 1_555 1_555
C17B C16B 1_555 1_555
H17B C17B 1_555 1_555
C18B C13B 1_555 1_555
H18B C18B 1_555 1_555
C19B H19B 1_555 1_555
H20B C19B 1_555 1_555
C20B C20 1_555 1_555
H21B C20B 1_555 1_555
H22B C20B 1_555 1_555
N3B C12B 1_555 1_555
N4B C12B 1_555 1_555
Cd1B N1B 1_555 1_555
Cl1B Cd1B 1_555 1_555
Cl2B Cd1B 1_555 1_555
Cd1B_2 N3B 1_555 1_555
N3B_2 Cd1B 1_555 1_555
C3 N2 1_555 1_555
C4 N1 1_555 1_555
C7 C8 1_555 1_555
C9 N2 1_555 1_555
C12 N3 1_555 1_555
C13 N4 1_555 1_555
C14 N3 1_555 1_555
C17 C18 1_555 1_555
C19 N4 1_555 1_555
C3B N2B 1_555 1_555
C4B N1B 1_555 1_555
C7B C8B 1_555 1_555
C9B C10B 1_555 1_555
C9B N2B 1_555 1_555
C13B N4B 1_555 1_555
C14B N3B 1_555 1_555
C17B C18B 1_555 1_555
C19B C20B 1_555 1_555
C19B N4B 1_555 1_555

#END
