
#######################################################################
#
#                 Cambridge Crystallographic Data Centre
#                                CCDC 
#
#######################################################################
#
# If this CIF has been generated from an entry in the Cambridge 
# Structural Database, then it will include bibliographic, chemical, 
# crystal, experimental, refinement or atomic coordinate data resulting 
# from the CCDC's data processing and validation procedures.
#
#######################################################################

data_JOMGAV
_symmetry_cell_setting           monoclinic
_symmetry_space_group_name_H-M   'C 2/c'
_symmetry_Int_Tables_number      15
_space_group_name_Hall           '-C 2yn'
loop_
_symmetry_equiv_pos_site_id
_symmetry_equiv_pos_as_xyz
1 x,y,z
2 -x,y,1/2-z
3 1/2+x,1/2+y,z
4 1/2-x,1/2+y,1/2-z
5 -x,-y,-z
6 x,-y,1/2+z
7 1/2-x,1/2-y,-z
8 1/2+x,1/2-y,1/2+z
_cell_length_a                   22.500(2)
_cell_length_b                   8.7615(6)
_cell_length_c                   16.2774(12)
_cell_angle_alpha                90
_cell_angle_beta                 100.531(8)
_cell_angle_gamma                90
_cell_volume                     3154.78
loop_
_atom_site_label
_atom_site_type_symbol
_atom_site_fract_x
_atom_site_fract_y
_atom_site_fract_z
Cd1 Cd 0.0000 0.18577(3) 0.2500
C1 C 0.06771(13) -0.1252(3) 0.1649(2)
H1 H 0.0820 -0.0434 0.2026
H2 H 0.0939 -0.1365 0.1249
H3 H 0.0674 -0.2184 0.1959
C2 C 0.00583(11) -0.0905(3) 0.12088(15)
C3 C -0.07919(12) -0.1039(3) 0.02953(15)
C4 C -0.08363(11) 0.0069(2) 0.08930(14)
C5 C -0.13652(12) 0.0905(3) 0.08476(17)
H4 H -0.1404 0.1647 0.1243
C6 C -0.18282(14) 0.0591(4) 0.0195(2)
H5 H -0.2187 0.1137 0.0148
C7 C -0.17762(14) -0.0510(4) -0.0393(2)
H6 H -0.2101 -0.0688 -0.0825
C8 C -0.12585(14) -0.1349(3) -0.03595(18)
H7 H -0.1223 -0.2089 -0.0757
C9 C 0.00389(13) -0.2820(3) 0.00405(16)
H8 H 0.0476 -0.2725 0.0149
H9 H -0.0102 -0.2657 -0.0553
C10 C -0.01279(13) -0.4413(3) 0.02636(16)
H10 H -0.0565 -0.4509 0.0173
H11 H 0.0029 -0.4602 0.0850
C11 C 0.09092(12) 0.3875(3) 0.25653(16)
C12 C 0.13634(12) 0.5107(3) 0.25249(17)
C13 C 0.16274(14) 0.5263(3) 0.1835(2)
H12 H 0.1530 0.4590 0.1389
C14 C 0.20413(17) 0.6430(5) 0.1802(3)
H13 H 0.2222 0.6537 0.1335
C15 C 0.21819(16) 0.7413(5) 0.2453(4)
H14 H 0.2461 0.8188 0.2429
C16 C 0.19211(18) 0.7279(4) 0.3137(3)
H15 H 0.2018 0.7965 0.3577
C17 C 0.15135(14) 0.6128(3) 0.3177(2)
H16 H 0.1336 0.6035 0.3649
O1 O 0.08140(9) 0.2907(2) 0.19998(12)
O2 O 0.06379(10) 0.3855(2) 0.31698(12)
N1 N -0.02957(9) 0.0130(2) 0.14567(12)
N2 N -0.02170(10) -0.1632(2) 0.05100(12)
C1D C -0.06771(13) -0.8748(3) -0.1649(2)
H1D H -0.0820 -0.9566 -0.2026
H2D H -0.0939 -0.8635 -0.1249
H3D H -0.0674 -0.7816 -0.1959
C2D C -0.00583(11) -0.9095(3) -0.12088(15)
C3D C 0.07919(12) -0.8961(3) -0.02953(15)
C4D C 0.08363(11) -1.0069(2) -0.08930(14)
C5D C 0.13652(12) -1.0905(3) -0.08476(17)
H4D H 0.1404 -1.1647 -0.1243
C6D C 0.18282(14) -1.0591(4) -0.0195(2)
H5D H 0.2187 -1.1137 -0.0148
C7D C 0.17762(14) -0.9490(4) 0.0393(2)
H6D H 0.2101 -0.9312 0.0825
C8D C 0.12585(14) -0.8651(3) 0.03595(18)
H7D H 0.1223 -0.7911 0.0757
C9D C -0.00389(13) -0.7180(3) -0.00405(16)
H8D H -0.0476 -0.7275 -0.0149
H9D H 0.0102 -0.7343 0.0553
C10D C 0.01279(13) -0.5587(3) -0.02636(16)
H10D H 0.0565 -0.5491 -0.0173
H11D H -0.0029 -0.5398 -0.0850
N1D N 0.02957(9) -1.0130(2) -0.14567(12)
N2D N 0.02170(10) -0.8368(2) -0.05100(12)
C11A C -0.09092(12) 0.3875(3) 0.24347(16)
C12A C -0.13634(12) 0.5107(3) 0.24751(17)
C13A C -0.16274(14) 0.5263(3) 0.3165(2)
H12A H -0.1530 0.4590 0.3611
C14A C -0.20413(17) 0.6430(5) 0.3198(3)
H13A H -0.2222 0.6537 0.3665
C15A C -0.21819(16) 0.7413(5) 0.2547(4)
H14A H -0.2461 0.8188 0.2571
C16A C -0.19211(18) 0.7279(4) 0.1863(3)
H15A H -0.2018 0.7965 0.1423
C17A C -0.15135(14) 0.6128(3) 0.1823(2)
H16A H -0.1336 0.6035 0.1351
O1A O -0.08140(9) 0.2907(2) 0.30002(12)
O2A O -0.06379(10) 0.3855(2) 0.18302(12)
Cd1D Cd 0.0000 -1.18577(3) -0.2500
N1A N 0.02957(9) 0.0130(2) 0.35433(12)
loop_
_geom_bond_atom_site_label_1
_geom_bond_atom_site_label_2
_geom_bond_site_symmetry_1
_geom_bond_site_symmetry_2
Cd1 O1 1_555 1_555
C1 H1 1_555 1_555
H2 C1 1_555 1_555
H3 C1 1_555 1_555
C2 C1 1_555 1_555
C3 C4 1_555 1_555
C4 C5 1_555 1_555
C5 H4 1_555 1_555
C6 C5 1_555 1_555
H5 C6 1_555 1_555
C7 C6 1_555 1_555
H6 C7 1_555 1_555
C8 C3 1_555 1_555
H7 C8 1_555 1_555
C9 H8 1_555 1_555
H9 C9 1_555 1_555
C10 C9 1_555 1_555
H10 C10 1_555 1_555
H11 C10 1_555 1_555
C11 C12 1_555 1_555
C12 C13 1_555 1_555
C13 H12 1_555 1_555
C14 C13 1_555 1_555
H13 C14 1_555 1_555
C15 C14 1_555 1_555
H14 C15 1_555 1_555
C16 C15 1_555 1_555
H15 C16 1_555 1_555
C17 C12 1_555 1_555
H16 C17 1_555 1_555
O1 C11 1_555 1_555
O2 Cd1 1_555 1_555
N1 Cd1 1_555 1_555
N2 C2 1_555 1_555
C1D H1D 1_555 1_555
H2D C1D 1_555 1_555
H3D C1D 1_555 1_555
C2D C1D 1_555 1_555
C3D C4D 1_555 1_555
C4D C5D 1_555 1_555
C5D H4D 1_555 1_555
C6D C5D 1_555 1_555
H5D C6D 1_555 1_555
C7D C6D 1_555 1_555
H6D C7D 1_555 1_555
C8D C3D 1_555 1_555
H7D C8D 1_555 1_555
C9D H8D 1_555 1_555
H9D C9D 1_555 1_555
C10D C10 1_555 1_555
H10D C10D 1_555 1_555
H11D C10D 1_555 1_555
N1D C2D 1_555 1_555
N2D C2D 1_555 1_555
C11A C12A 1_555 1_555
C12A C13A 1_555 1_555
C13A H12A 1_555 1_555
C14A C13A 1_555 1_555
H13A C14A 1_555 1_555
C15A C14A 1_555 1_555
H14A C15A 1_555 1_555
C16A C15A 1_555 1_555
H15A C16A 1_555 1_555
C17A C12A 1_555 1_555
H16A C17A 1_555 1_555
O1A Cd1 1_555 1_555
O2A Cd1 1_555 1_555
Cd1D N1D 1_555 1_555
N1A Cd1 1_555 1_555
C2 N1 1_555 1_555
C3 N2 1_555 1_555
C4 N1 1_555 1_555
C7 C8 1_555 1_555
C9 N2 1_555 1_555
C11 O2 1_555 1_555
C16 C17 1_555 1_555
C3D N2D 1_555 1_555
C4D N1D 1_555 1_555
C7D C8D 1_555 1_555
C9D C10D 1_555 1_555
C9D N2D 1_555 1_555
C11A O1A 1_555 1_555
C11A O2A 1_555 1_555
C16A C17A 1_555 1_555

#END
