
#######################################################################
#
#                 Cambridge Crystallographic Data Centre
#                                CCDC 
#
#######################################################################
#
# If this CIF has been generated from an entry in the Cambridge 
# Structural Database, then it will include bibliographic, chemical, 
# crystal, experimental, refinement or atomic coordinate data resulting 
# from the CCDC's data processing and validation procedures.
#
#######################################################################

data_JOMJIG
_symmetry_cell_setting           orthorhombic
_symmetry_space_group_name_H-M   'P c a 21'
_symmetry_Int_Tables_number      29
_space_group_name_Hall           'P 2c -2ac'
loop_
_symmetry_equiv_pos_site_id
_symmetry_equiv_pos_as_xyz
1 x,y,z
2 -x,-y,1/2+z
3 1/2+x,-y,z
4 1/2-x,y,1/2+z
_cell_length_a                   18.295(2)
_cell_length_b                   9.4645(9)
_cell_length_c                   18.4063(17)
_cell_angle_alpha                90
_cell_angle_beta                 90
_cell_angle_gamma                90
_cell_volume                     3187.11
loop_
_atom_site_label
_atom_site_type_symbol
_atom_site_fract_x
_atom_site_fract_y
_atom_site_fract_z
Zn1 Zn 0.720773(18) 0.43137(3) -0.06266(2)
C1 C 0.7936(2) 0.7364(4) -0.1378(2)
H1 H 0.7487 0.6870 -0.1472
H2 H 0.8237 0.7344 -0.1805
H3 H 0.7830 0.8326 -0.1252
C2 C 0.83256(19) 0.6672(3) -0.07706(19)
C3 C 0.9158(2) 0.6302(4) 0.00694(19)
C4 C 0.85973(19) 0.5322(4) 0.01328(18)
C5 C 0.8635(2) 0.4302(4) 0.0675(2)
H4 H 0.8259 0.3651 0.0735
C6 C 0.9231(3) 0.4273(5) 0.1116(2)
H5 H 0.9272 0.3570 0.1467
C7 C 0.9781(3) 0.5281(7) 0.1050(3)
H6 H 1.0166 0.5270 0.1379
C8 C 0.9773(3) 0.6289(5) 0.0517(2)
H7 H 1.0155 0.6927 0.0457
C9 C 0.9448(2) 0.8261(4) -0.0791(2)
H8 H 0.9316 0.8460 -0.1291
H9 H 0.9950 0.7933 -0.0786
C10 C 0.9396(2) 0.9596(4) -0.0359(2)
H10 H 0.9510 0.9399 0.0146
H11 H 0.8900 0.9957 -0.0381
C11 C 0.9920(2) 1.0702(3) -0.0649(3)
H12 H 0.9793 1.0922 -0.1148
H13 H 1.0413 1.0322 -0.0646
C12 C 0.9901(2) 1.2031(4) -0.0206(3)
H14 H 1.0084 1.1832 0.0278
H15 H 0.9399 1.2348 -0.0160
C13 C 1.1453(3) 1.2877(5) 0.0259(3)
H16 H 1.1960 1.2830 0.0125
H17 H 1.1402 1.3421 0.0696
H18 H 1.1270 1.1939 0.0339
C14 C 1.1024(2) 1.3568(3) -0.0345(2)
C15 C 1.07078(19) 1.4922(4) -0.12382(19)
C16 C 1.0125(2) 1.3999(4) -0.1091(2)
C17 C 0.9468(2) 1.4060(5) -0.1478(3)
H19 H 0.9084 1.3442 -0.1384
C18 C 0.9422(3) 1.5086(5) -0.2006(2)
H20 H 0.8996 1.5164 -0.2278
C19 C 1.0000(3) 1.6014(5) -0.2145(2)
H21 H 0.9946 1.6693 -0.2506
C20 C 1.0641(2) 1.5959(4) -0.1768(2)
H22 H 1.1019 1.6591 -0.1862
C21 C 0.66335(19) 0.2473(4) 0.04869(18)
C22 C 0.7380(2) 0.3359(4) 0.3066(2)
C23 C 0.6988(2) 0.2435(4) 0.25149(19)
C24 C 0.6594(2) 0.1278(4) 0.2722(2)
H23 H 0.6593 0.0999 0.3206
C25 C 0.6193(3) 0.0510(4) 0.2213(2)
C26 C 0.6207(2) 0.0913(4) 0.1495(2)
H24 H 0.5946 0.0400 0.1150
C27 C 0.66087(19) 0.2086(4) 0.12873(18)
C28 C 0.6994(2) 0.2841(4) 0.17966(18)
H25 H 0.7261 0.3631 0.1655
O1 O 0.5813(2) -0.0642(4) 0.2450(2)
H26 H 0.5430 -0.0710 0.2221
O2 O 0.74273(16) 0.2865(3) 0.37087(14)
O3 O 0.7613(2) 0.4524(3) 0.28897(19)
O4 O 0.70607(16) 0.3485(3) 0.03363(14)
O5 O 0.62581(16) 0.1806(3) 0.00530(13)
N1 N 1.12661(16) 1.4608(3) -0.07565(17)
N2 N 1.03468(16) 1.3181(3) -0.0536(2)
N3 N 0.80749(18) 0.5593(3) -0.04029(15)
N4 N 0.89751(16) 0.7139(3) -0.05152(17)
Zn1B Zn 1.220773(18) 1.56863(3) -0.06266(2)
Zn1C Zn 0.779227(18) 0.43137(3) 0.43734(2)
O2C O 0.75727(16) 0.2865(3) -0.12913(14)
N1B N 0.62661(16) 0.5392(3) -0.07565(17)
loop_
_geom_bond_atom_site_label_1
_geom_bond_atom_site_label_2
_geom_bond_site_symmetry_1
_geom_bond_site_symmetry_2
Zn1 O4 1_555 1_555
C1 H1 1_555 1_555
H2 C1 1_555 1_555
H3 C1 1_555 1_555
C2 C1 1_555 1_555
C3 C4 1_555 1_555
C4 C5 1_555 1_555
C5 H4 1_555 1_555
C6 C5 1_555 1_555
H5 C6 1_555 1_555
C7 C6 1_555 1_555
H6 C7 1_555 1_555
C8 C3 1_555 1_555
H7 C8 1_555 1_555
C9 H8 1_555 1_555
H9 C9 1_555 1_555
C10 C9 1_555 1_555
H10 C10 1_555 1_555
H11 C10 1_555 1_555
C11 C10 1_555 1_555
H12 C11 1_555 1_555
H13 C11 1_555 1_555
C12 C11 1_555 1_555
H14 C12 1_555 1_555
H15 C12 1_555 1_555
C13 H16 1_555 1_555
H17 C13 1_555 1_555
H18 C13 1_555 1_555
C14 C13 1_555 1_555
C15 C16 1_555 1_555
C16 C17 1_555 1_555
C17 H19 1_555 1_555
C18 C17 1_555 1_555
H20 C18 1_555 1_555
C19 C18 1_555 1_555
H21 C19 1_555 1_555
C20 C15 1_555 1_555
H22 C20 1_555 1_555
C21 C27 1_555 1_555
C22 C23 1_555 1_555
C23 C24 1_555 1_555
C24 H23 1_555 1_555
C25 C24 1_555 1_555
C26 C25 1_555 1_555
H24 C26 1_555 1_555
C27 C26 1_555 1_555
C28 C23 1_555 1_555
H25 C28 1_555 1_555
O1 C25 1_555 1_555
H26 O1 1_555 1_555
O2 C22 1_555 1_555
O3 C22 1_555 1_555
O4 C21 1_555 1_555
O5 C21 1_555 1_555
N1 C14 1_555 1_555
N2 C12 1_555 1_555
N3 Zn1 1_555 1_555
N4 C2 1_555 1_555
Zn1B N1 1_555 1_555
Zn1C O2 1_555 1_555
O2C Zn1 1_555 1_555
N1B Zn1 1_555 1_555
C2 N3 1_555 1_555
C3 N4 1_555 1_555
C4 N3 1_555 1_555
C7 C8 1_555 1_555
C9 N4 1_555 1_555
C14 N2 1_555 1_555
C15 N1 1_555 1_555
C16 N2 1_555 1_555
C19 C20 1_555 1_555
C27 C28 1_555 1_555

#END
