
#######################################################################
#
#                 Cambridge Crystallographic Data Centre
#                                CCDC 
#
#######################################################################
#
# If this CIF has been generated from an entry in the Cambridge 
# Structural Database, then it will include bibliographic, chemical, 
# crystal, experimental, refinement or atomic coordinate data resulting 
# from the CCDC's data processing and validation procedures.
#
#######################################################################

data_JOMVIQ01
_symmetry_cell_setting           orthorhombic
_symmetry_space_group_name_H-M   'F d d 2'
_symmetry_Int_Tables_number      43
_space_group_name_Hall           'F 2 -2d'
loop_
_symmetry_equiv_pos_site_id
_symmetry_equiv_pos_as_xyz
1 x,y,z
2 -x,-y,z
3 1/4+x,1/4-y,1/4+z
4 1/4-x,1/4+y,1/4+z
5 x,1/2+y,1/2+z
6 -x,1/2-y,1/2+z
7 1/4+x,3/4-y,3/4+z
8 1/4-x,3/4+y,3/4+z
9 1/2+x,y,1/2+z
10 1/2-x,-y,1/2+z
11 3/4+x,1/4-y,3/4+z
12 3/4-x,1/4+y,3/4+z
13 1/2+x,1/2+y,z
14 1/2-x,1/2-y,z
15 3/4+x,3/4-y,1/4+z
16 3/4-x,3/4+y,1/4+z
_cell_length_a                   20.6215(4)
_cell_length_b                   36.4257(2)
_cell_length_c                   6.24080(10)
_cell_angle_alpha                90
_cell_angle_beta                 90
_cell_angle_gamma                90
_cell_volume                     4687.79
loop_
_atom_site_label
_atom_site_type_symbol
_atom_site_fract_x
_atom_site_fract_y
_atom_site_fract_z
Cd1 Cd 0.0000 0.0000 0.61916(10)
O1 O -0.06810(18) 0.05585(9) 0.6607(7)
O2 O -0.07649(18) 0.01888(10) 0.3830(9)
N1 N -0.43586(19) 0.02950(10) -0.6356(11)
C1 C -0.0940(2) 0.04685(13) 0.4890(8)
C2 C -0.1488(2) 0.06972(11) 0.4007(8)
C3 C -0.1715(2) 0.09966(13) 0.5169(9)
H1 H -0.1555(18) 0.1073(10) 0.639(7)
C4 C -0.2240(3) 0.11996(15) 0.4362(9)
H2 H -0.235(2) 0.1386(13) 0.513(8)
C5 C -0.2531(2) 0.11015(15) 0.2469(9)
H3 H -0.294(3) 0.1255(13) 0.196(9)
C6 C -0.2317(2) 0.08001(12) 0.1276(9)
C7 C -0.1782(3) 0.06018(15) 0.2078(9)
H4 H -0.163(3) 0.0411(14) 0.147(11)
C8 C -0.2656(2) 0.06681(14) -0.0641(8)
H5 H -0.240(2) 0.0482(12) -0.184(8)
C9 C -0.3263(2) 0.07579(13) -0.1195(10)
H6 H -0.353(3) 0.0919(16) -0.006(10)
C10 C -0.3614(2) 0.06032(12) -0.3040(7)
C11 C -0.4296(3) 0.06323(13) -0.3093(8)
H7 H -0.451(2) 0.0739(13) -0.180(9)
C12 C -0.4636(2) 0.04755(13) -0.4724(8)
H8 H -0.509(2) 0.0500(13) -0.492(8)
C13 C -0.3706(2) 0.02699(11) -0.6322(10)
H9 H -0.354(2) 0.0120(11) -0.746(8)
C14 C -0.3335(3) 0.04197(17) -0.4730(10)
H10 H -0.299(2) 0.0422(12) -0.482(7)
O1A O 0.06810(18) -0.05585(9) 0.6607(7)
O2A O 0.07649(18) -0.01888(10) 0.3830(9)
N1A N 0.43586(19) -0.02950(10) -0.6356(11)
C1A C 0.0940(2) -0.04685(13) 0.4890(8)
C2A C 0.1488(2) -0.06972(11) 0.4007(8)
C3A C 0.1715(2) -0.09966(13) 0.5169(9)
H1A H 0.1555(18) -0.1073(10) 0.639(7)
C4A C 0.2240(3) -0.11996(15) 0.4362(9)
H2A H 0.235(2) -0.1386(13) 0.513(8)
C5A C 0.2531(2) -0.11015(15) 0.2469(9)
H3A H 0.294(3) -0.1255(13) 0.196(9)
C6A C 0.2317(2) -0.08001(12) 0.1276(9)
C7A C 0.1782(3) -0.06018(15) 0.2078(9)
H4A H 0.163(3) -0.0411(14) 0.147(11)
C8A C 0.2656(2) -0.06681(14) -0.0641(8)
H5A H 0.240(2) -0.0482(12) -0.184(8)
C9A C 0.3263(2) -0.07579(13) -0.1195(10)
H6A H 0.353(3) -0.0919(16) -0.006(10)
C10A C 0.3614(2) -0.06032(12) -0.3040(7)
C11A C 0.4296(3) -0.06323(13) -0.3093(8)
H7A H 0.451(2) -0.0739(13) -0.180(9)
C12A C 0.4636(2) -0.04755(13) -0.4724(8)
H8A H 0.509(2) -0.0500(13) -0.492(8)
C13A C 0.3706(2) -0.02699(11) -0.6322(10)
H9A H 0.354(2) -0.0120(11) -0.746(8)
C14A C 0.3335(3) -0.04197(17) -0.4730(10)
H10A H 0.299(2) -0.0422(12) -0.482(7)
N1H N 0.06414(19) 0.02950(10) 0.8644(11)
N1I N -0.06414(19) -0.02950(10) 0.8644(11)
Cd1H Cd -0.5000 0.0000 -0.88084(10)
Cd1H_2 Cd 0.5000 0.0000 -0.88084(10)
loop_
_geom_bond_atom_site_label_1
_geom_bond_atom_site_label_2
_geom_bond_site_symmetry_1
_geom_bond_site_symmetry_2
Cd1 O1 1_555 1_555
O1 C1 1_555 1_555
O2 Cd1 1_555 1_555
N1 C12 1_555 1_555
C1 O2 1_555 1_555
C2 C1 1_555 1_555
C3 C2 1_555 1_555
H1 C3 1_555 1_555
C4 C3 1_555 1_555
H2 C4 1_555 1_555
C5 C4 1_555 1_555
H3 C5 1_555 1_555
C6 C5 1_555 1_555
C7 C2 1_555 1_555
H4 C7 1_555 1_555
C8 C6 1_555 1_555
H5 C8 1_555 1_555
C9 C8 1_555 1_555
H6 C9 1_555 1_555
C10 C9 1_555 1_555
C11 C10 1_555 1_555
H7 C11 1_555 1_555
C12 C11 1_555 1_555
H8 C12 1_555 1_555
C13 N1 1_555 1_555
H9 C13 1_555 1_555
C14 C10 1_555 1_555
H10 C14 1_555 1_555
O1A Cd1 1_555 1_555
O2A Cd1 1_555 1_555
N1A C12A 1_555 1_555
C1A O1A 1_555 1_555
C2A C1A 1_555 1_555
C3A C2A 1_555 1_555
H1A C3A 1_555 1_555
C4A C3A 1_555 1_555
H2A C4A 1_555 1_555
C5A C4A 1_555 1_555
H3A C5A 1_555 1_555
C6A C5A 1_555 1_555
C7A C2A 1_555 1_555
H4A C7A 1_555 1_555
C8A C6A 1_555 1_555
H5A C8A 1_555 1_555
C9A C8A 1_555 1_555
H6A C9A 1_555 1_555
C10A C9A 1_555 1_555
C11A C10A 1_555 1_555
H7A C11A 1_555 1_555
C12A C11A 1_555 1_555
H8A C12A 1_555 1_555
C13A N1A 1_555 1_555
H9A C13A 1_555 1_555
C14A C10A 1_555 1_555
H10A C14A 1_555 1_555
N1H Cd1 1_555 1_555
N1I Cd1 1_555 1_555
Cd1H N1 1_555 1_555
Cd1H_2 N1A 1_555 1_555
C6 C7 1_555 1_555
C13 C14 1_555 1_555
O2A C1A 1_555 1_555
C6A C7A 1_555 1_555
C13A C14A 1_555 1_555

#END
