
#######################################################################
#
#                 Cambridge Crystallographic Data Centre
#                                CCDC 
#
#######################################################################
#
# If this CIF has been generated from an entry in the Cambridge 
# Structural Database, then it will include bibliographic, chemical, 
# crystal, experimental, refinement or atomic coordinate data resulting 
# from the CCDC's data processing and validation procedures.
#
#######################################################################

data_JOMVIQ
_symmetry_cell_setting           orthorhombic
_symmetry_space_group_name_H-M   'F d d 2'
_symmetry_Int_Tables_number      43
_space_group_name_Hall           'F 2 -2d'
loop_
_symmetry_equiv_pos_site_id
_symmetry_equiv_pos_as_xyz
1 x,y,z
2 x,1/2+y,1/2+z
3 1/2+x,y,1/2+z
4 1/2+x,1/2+y,z
5 1/4-x,1/4+y,1/4+z
6 1/4-x,3/4+y,3/4+z
7 3/4-x,1/4+y,3/4+z
8 3/4-x,3/4+y,1/4+z
9 1/4+x,1/4-y,1/4+z
10 1/4+x,3/4-y,3/4+z
11 3/4+x,1/4-y,3/4+z
12 3/4+x,3/4-y,1/4+z
13 1/2-x,-y,1/2+z
14 1/2-x,1/2-y,z
15 -x,-y,z
16 -x,1/2-y,1/2+z
_cell_length_a                   20.6215(4)
_cell_length_b                   36.4257(2)
_cell_length_c                   6.2408(1)
_cell_angle_alpha                90
_cell_angle_beta                 90
_cell_angle_gamma                90
_cell_volume                     4687.79
loop_
_atom_site_label
_atom_site_type_symbol
_atom_site_fract_x
_atom_site_fract_y
_atom_site_fract_z
Cd1 Cd 0.0000 0.0000 0.3491(4)
O1 O -0.0682(2) 0.05575(12) 0.3914(8)
C1 C -0.0940(3) 0.04687(16) 0.219(1)
O2 O -0.0767(2) 0.01891(13) 0.112(1)
C2 C -0.1490(2) 0.06973(14) 0.1307(9)
C3 C -0.1780(3) 0.06021(17) -0.061(1)
C4 C -0.2319(2) 0.07990(14) -0.1414(11)
C5 C -0.2532(3) 0.11025(16) -0.022(1)
C6 C -0.2239(3) 0.12022(17) 0.1655(11)
C7 C -0.1716(3) 0.09991(15) 0.247(1)
C8 C -0.2655(3) 0.06697(15) -0.3336(9)
C9 C -0.3264(3) 0.07565(15) -0.3873(12)
C10 C -0.3612(3) 0.06053(14) -0.5721(9)
C11 C -0.3331(3) 0.04226(19) -0.7426(11)
C12 C -0.3707(2) 0.02683(14) -0.9024(12)
N1 N 0.0642(2) 0.02949(14) 0.5945(13)
C13 C 0.0363(3) 0.04758(16) 0.759(1)
C14 C -0.4301(3) 0.06309(17) -0.579(1)
H1 H -0.1616 0.0400 -0.1403
H2 H -0.2889 0.1243 -0.0735
H3 H -0.2391 0.1411 0.2416
H4 H -0.1519 0.1065 0.3789
H5 H -0.2423 0.0512 -0.4276
H6 H -0.3486 0.0928 -0.2994
H7 H -0.2872 0.0404 -0.7505
H8 H -0.3497 0.0138 -1.0146
H9 H -0.0097 0.0495 0.7616
H10 H -0.4525 0.0758 -0.4686
O1N O 0.0682(2) -0.05575(12) 0.3914(8)
O2N O 0.0767(2) -0.01891(13) 0.112(1)
C12B C 0.1293(2) 0.02683(14) 0.5976(12)
C11B C 0.1669(3) 0.04226(19) 0.7574(11)
C10B C 0.1388(3) 0.06053(14) 0.9279(9)
C9B C 0.1736(3) 0.07565(15) 1.1127(12)
C8B C 0.2345(3) 0.06697(15) 1.1664(9)
C4B C 0.2681(2) 0.07990(14) 1.3586(11)
C3B C 0.3220(3) 0.06021(17) 1.439(1)
C2B C 0.3510(2) 0.06973(14) 1.6307(9)
C1B C 0.4060(3) 0.04687(16) 1.719(1)
O1B O 0.4318(2) 0.05575(12) 1.8914(8)
Cd1B Cd 0.5000 0.0000 1.8491(4)
O2B O 0.4233(2) 0.01891(13) 1.612(1)
C7B C 0.3284(3) 0.09991(15) 1.747(1)
C6B C 0.2761(3) 0.12022(17) 1.6655(11)
C5B C 0.2468(3) 0.11025(16) 1.478(1)
H2B H 0.2111 0.1243 1.4265
H3B H 0.2609 0.1411 1.7416
H4B H 0.3481 0.1065 1.8789
H1B H 0.3384 0.0400 1.3597
H5B H 0.2577 0.0512 1.0724
H6B H 0.1514 0.0928 1.2006
C14B C 0.0699(3) 0.06309(17) 0.921(1)
H10B H 0.0475 0.0758 1.0314
H7B H 0.2128 0.0404 0.7495
H8B H 0.1503 0.0138 0.4854
N1N N -0.0642(2) -0.02949(14) 0.5945(13)
C13B C -0.4637(3) 0.04758(16) -0.741(1)
N1B N -0.4358(2) 0.02949(14) -0.9055(13)
Cd1B_2 Cd -0.5000 0.0000 -1.1509(4)
H9B H -0.5097 0.0495 -0.7384
loop_
_geom_bond_atom_site_label_1
_geom_bond_atom_site_label_2
_geom_bond_site_symmetry_1
_geom_bond_site_symmetry_2
Cd1 O1 1_555 1_555
O1 C1 1_555 1_555
C1 O2 1_555 1_555
O2 Cd1 1_555 1_555
C2 C1 1_555 1_555
C3 C2 1_555 1_555
C4 C3 1_555 1_555
C5 C4 1_555 1_555
C6 C5 1_555 1_555
C7 C2 1_555 1_555
C8 C4 1_555 1_555
C9 C8 1_555 1_555
C10 C9 1_555 1_555
C11 C10 1_555 1_555
C12 C11 1_555 1_555
N1 Cd1 1_555 1_555
C13 N1 1_555 1_555
C14 C10 1_555 1_555
H1 C3 1_555 1_555
H2 C5 1_555 1_555
H3 C6 1_555 1_555
H4 C7 1_555 1_555
H5 C8 1_555 1_555
H6 C9 1_555 1_555
H7 C11 1_555 1_555
H8 C12 1_555 1_555
H9 C13 1_555 1_555
H10 C14 1_555 1_555
O1N Cd1 1_555 1_555
O2N Cd1 1_555 1_555
C12B N1 1_555 1_555
C11B C12B 1_555 1_555
C10B C11B 1_555 1_555
C9B C10B 1_555 1_555
C8B C9B 1_555 1_555
C4B C8B 1_555 1_555
C3B C4B 1_555 1_555
C2B C3B 1_555 1_555
C1B C2B 1_555 1_555
O1B C1B 1_555 1_555
Cd1B O1B 1_555 1_555
O2B C1B 1_555 1_555
C7B C2B 1_555 1_555
C6B C7B 1_555 1_555
C5B C4B 1_555 1_555
H2B C5B 1_555 1_555
H3B C6B 1_555 1_555
H4B C7B 1_555 1_555
H1B C3B 1_555 1_555
H5B C8B 1_555 1_555
H6B C9B 1_555 1_555
C14B C13 1_555 1_555
H10B C14B 1_555 1_555
H7B C11B 1_555 1_555
H8B C12B 1_555 1_555
N1N Cd1 1_555 1_555
C13B C14 1_555 1_555
N1B C12 1_555 1_555
Cd1B_2 N1B 1_555 1_555
H9B C13B 1_555 1_555
C6 C7 1_555 1_555
C10B C14B 1_555 1_555
Cd1B O2B 1_555 1_555
C6B C5B 1_555 1_555
C13B N1B 1_555 1_555

#END
