
#######################################################################
#
#                 Cambridge Crystallographic Data Centre
#                                CCDC 
#
#######################################################################
#
# If this CIF has been generated from an entry in the Cambridge 
# Structural Database, then it will include bibliographic, chemical, 
# crystal, experimental, refinement or atomic coordinate data resulting 
# from the CCDC's data processing and validation procedures.
#
#######################################################################

data_JOMWAJ01
_symmetry_cell_setting           tetragonal
_symmetry_space_group_name_H-M   'P 43 21 2'
_symmetry_Int_Tables_number      96
_space_group_name_Hall           'P 4nw 2abw'
loop_
_symmetry_equiv_pos_site_id
_symmetry_equiv_pos_as_xyz
1 x,y,z
2 -x,-y,1/2+z
3 1/2-y,1/2+x,3/4+z
4 1/2+y,1/2-x,1/4+z
5 1/2-x,1/2+y,3/4-z
6 1/2+x,1/2-y,1/4-z
7 y,x,-z
8 -y,-x,1/2-z
_cell_length_a                   7.7094(2)
_cell_length_b                   7.7094(2)
_cell_length_c                   20.3266(7)
_cell_angle_alpha                90
_cell_angle_beta                 90
_cell_angle_gamma                90
_cell_volume                     1208.11
loop_
_atom_site_label
_atom_site_type_symbol
_atom_site_fract_x
_atom_site_fract_y
_atom_site_fract_z
Zn1 Zn 0.31869(9) 0.31869(9) 0.0000
O1 O 0.4014(8) 0.1422(6) 0.0655(2)
C1 C 0.3509(8) -0.3098(9) 0.0334(3)
H1 H 0.3183 -0.3002 -0.0115
N1 N 0.3622(7) -0.4673(7) 0.0591(3)
C2 C 0.3830(9) -0.1610(9) 0.0671(3)
C3 C 0.4379(8) -0.1752(10) 0.1317(3)
H2 H 0.4667 -0.0746 0.1564
C4 C 0.4499(9) -0.3353(10) 0.1592(3)
H3 H 0.4862 -0.3477 0.2036
C5 C 0.4094(9) -0.4786(9) 0.1227(4)
H4 H 0.4148 -0.5896 0.1428
C6 C 0.3595(9) 0.0073(8) 0.0339(3)
O2 O 0.2936(8) 0.0155(6) -0.0212(2)
O1F O 0.1422(6) 0.4014(8) -0.0655(2)
C1F C -0.3098(9) 0.3509(8) -0.0334(3)
H1F H -0.3002 0.3183 0.0115
N1F N -0.4673(7) 0.3622(7) -0.0591(3)
C2F C -0.1610(9) 0.3830(9) -0.0671(3)
C3F C -0.1752(10) 0.4379(8) -0.1317(3)
H2F H -0.0746 0.4667 -0.1564
C4F C -0.3353(10) 0.4499(9) -0.1592(3)
H3F H -0.3477 0.4862 -0.2036
C5F C -0.4786(9) 0.4094(9) -0.1227(4)
H4F H -0.5896 0.4148 -0.1428
C6F C 0.0073(8) 0.3595(9) -0.0339(3)
O2F O 0.0155(6) 0.2936(8) 0.0212(2)
N1_2 N 0.3622(7) 0.5327(7) 0.0591(3)
N1F_2 N 0.5327(7) 0.3622(7) -0.0591(3)
Zn1_2 Zn 0.31869(9) -0.68131(9) 0.0000
Zn1_3 Zn -0.68131(9) 0.31869(9) 0.0000
loop_
_geom_bond_atom_site_label_1
_geom_bond_atom_site_label_2
_geom_bond_site_symmetry_1
_geom_bond_site_symmetry_2
Zn1 O1 1_555 1_555
O1 C6 1_555 1_555
C1 H1 1_555 1_555
N1 C1 1_555 1_555
C2 C1 1_555 1_555
C3 C2 1_555 1_555
H2 C3 1_555 1_555
C4 C3 1_555 1_555
H3 C4 1_555 1_555
C5 N1 1_555 1_555
H4 C5 1_555 1_555
C6 C2 1_555 1_555
O2 Zn1 1_555 1_555
O1F Zn1 1_555 1_555
C1F H1F 1_555 1_555
N1F C1F 1_555 1_555
C2F C1F 1_555 1_555
C3F C2F 1_555 1_555
H2F C3F 1_555 1_555
C4F C3F 1_555 1_555
H3F C4F 1_555 1_555
C5F N1F 1_555 1_555
H4F C5F 1_555 1_555
C6F O1F 1_555 1_555
O2F Zn1 1_555 1_555
N1_2 Zn1 1_555 1_555
N1F_2 Zn1 1_555 1_555
Zn1_2 N1 1_555 1_555
Zn1_3 N1F 1_555 1_555
C4 C5 1_555 1_555
C6 O2 1_555 1_555
C2F C6F 1_555 1_555
C4F C5F 1_555 1_555
C6F O2F 1_555 1_555

#END
