
#######################################################################
#
#                 Cambridge Crystallographic Data Centre
#                                CCDC 
#
#######################################################################
#
# If this CIF has been generated from an entry in the Cambridge 
# Structural Database, then it will include bibliographic, chemical, 
# crystal, experimental, refinement or atomic coordinate data resulting 
# from the CCDC's data processing and validation procedures.
#
#######################################################################

data_JOMWAJ
_symmetry_cell_setting           tetragonal
_symmetry_space_group_name_H-M   'P 43 21 2'
_symmetry_Int_Tables_number      96
_space_group_name_Hall           'P 4nw 2abw'
loop_
_symmetry_equiv_pos_site_id
_symmetry_equiv_pos_as_xyz
1 x,y,z
2 1/2-y,1/2+x,3/4+z
3 -x,-y,1/2+z
4 1/2+y,1/2-x,1/4+z
5 1/2-x,1/2+y,3/4-z
6 y,x,-z
7 1/2+x,1/2-y,1/4-z
8 -y,-x,1/2-z
_cell_length_a                   7.7094(2)
_cell_length_b                   7.7094(2)
_cell_length_c                   20.3266(7)
_cell_angle_alpha                90
_cell_angle_beta                 90
_cell_angle_gamma                90
_cell_volume                     1208.11
loop_
_atom_site_label
_atom_site_type_symbol
_atom_site_fract_x
_atom_site_fract_y
_atom_site_fract_z
Zn1 Zn -0.1815(1) -0.1815(1) 0.5000
O1 O -0.0996(6) -0.3567(8) 0.5654(3)
C1 C -0.1420(9) -0.493(1) 0.5337(3)
O2 O -0.2047(6) -0.4847(9) 0.4789(3)
C2 C 0.337(1) -0.1159(9) 0.4324(4)
C3 C 0.3256(11) -0.0635(8) 0.3685(3)
C4 C 0.1644(12) -0.051(1) 0.3400(4)
C5 C 0.022(1) -0.0897(9) 0.3781(4)
N1 N 0.0314(8) -0.1368(8) 0.4401(3)
C6 C 0.1913(9) -0.1488(7) 0.4667(3)
H1 H 0.4278 -0.0369 0.3436
H2 H 0.1519 -0.0162 0.2956
H3 H -0.0910 -0.0805 0.3582
H4 H 0.2007 -0.1821 0.5117
O1E O -0.3567(8) -0.0996(6) 0.4346(3)
O2E O -0.4847(9) -0.2047(6) 0.5211(3)
C1E C 0.507(1) -0.1420(9) 0.4663(3)
O1E_2 O 0.6433(8) -0.0996(6) 0.4346(3)
Zn1_2 Zn 0.8185(1) -0.1815(1) 0.5000
O2E_2 O 0.5153(9) -0.2047(6) 0.5211(3)
N1E N -0.1368(8) 0.0314(8) 0.5599(3)
C2E C -0.1159(9) -0.663(1) 0.5676(4)
C3E C -0.0635(8) -0.6744(11) 0.6315(3)
C4E C -0.051(1) -0.8356(12) 0.6600(4)
C5E C -0.0897(9) -0.978(1) 0.6219(4)
H2E H -0.0162 -0.8481 0.7044
H1E H -0.0369 -0.5722 0.6564
C6E C -0.1488(7) -0.8087(9) 0.5333(3)
N1E_2 N -0.1368(8) -0.9686(8) 0.5599(3)
H4E H -0.1821 -0.7993 0.4883
Zn1_3 Zn -0.1815(1) -1.1815(1) 0.5000
H3E H -0.0805 -1.0910 0.6418
loop_
_geom_bond_atom_site_label_1
_geom_bond_atom_site_label_2
_geom_bond_site_symmetry_1
_geom_bond_site_symmetry_2
Zn1 O1 1_555 1_555
O1 C1 1_555 1_555
C1 O2 1_555 1_555
O2 Zn1 1_555 1_555
C2 C3 1_555 1_555
C3 C4 1_555 1_555
C4 C5 1_555 1_555
C5 N1 1_555 1_555
N1 Zn1 1_555 1_555
C6 C2 1_555 1_555
H1 C3 1_555 1_555
H2 C4 1_555 1_555
H3 C5 1_555 1_555
H4 C6 1_555 1_555
O1E Zn1 1_555 1_555
O2E Zn1 1_555 1_555
C1E C2 1_555 1_555
O1E_2 C1E 1_555 1_555
Zn1_2 O1E_2 1_555 1_555
O2E_2 C1E 1_555 1_555
N1E Zn1 1_555 1_555
C2E C1 1_555 1_555
C3E C2E 1_555 1_555
C4E C3E 1_555 1_555
C5E C4E 1_555 1_555
H2E C4E 1_555 1_555
H1E C3E 1_555 1_555
C6E C2E 1_555 1_555
N1E_2 C5E 1_555 1_555
H4E C6E 1_555 1_555
Zn1_3 N1E_2 1_555 1_555
H3E C5E 1_555 1_555
N1 C6 1_555 1_555
Zn1_2 O2E_2 1_555 1_555
C6E N1E_2 1_555 1_555

#END
