
#######################################################################
#
#                 Cambridge Crystallographic Data Centre
#                                CCDC 
#
#######################################################################
#
# If this CIF has been generated from an entry in the Cambridge 
# Structural Database, then it will include bibliographic, chemical, 
# crystal, experimental, refinement or atomic coordinate data resulting 
# from the CCDC's data processing and validation procedures.
#
#######################################################################

data_JOMWUF
_symmetry_cell_setting           monoclinic
_symmetry_space_group_name_H-M   'C c'
_symmetry_Int_Tables_number      9
_space_group_name_Hall           'C -2yc'
loop_
_symmetry_equiv_pos_site_id
_symmetry_equiv_pos_as_xyz
1 x,y,z
2 x,-y,1/2+z
3 1/2+x,1/2+y,z
4 1/2+x,1/2-y,1/2+z
_cell_length_a                   10.983(7)
_cell_length_b                   14.913(10)
_cell_length_c                   17.827(11)
_cell_angle_alpha                90
_cell_angle_beta                 96.627(11)
_cell_angle_gamma                90
_cell_volume                     2900.37
loop_
_atom_site_label
_atom_site_type_symbol
_atom_site_fract_x
_atom_site_fract_y
_atom_site_fract_z
Zn1 Zn 0.94983(6) 0.42306(3) 0.07483(4)
C1 C 1.4374(6) 0.2499(5) 0.0399(3)
H1 H 1.4803 0.2009 0.0617
N1 N 1.0387(5) 0.3579(3) 0.1683(3)
N2 N 1.3597(5) 0.1528(3) 0.4908(3)
C2 C 1.4165(6) 0.1773(4) 0.4322(3)
H2 H 1.4994 0.1637 0.4332
C3 C 1.1174(5) 0.4958(4) -0.0257(3)
C4 C 0.9821(6) 0.3166(4) 0.2198(3)
H3 H 0.8971 0.3122 0.2120
C5 C 1.1831(4) 0.4139(4) -0.1370(3)
C6 C 1.3597(6) 0.2214(4) 0.3702(3)
H4 H 1.4044 0.2380 0.3312
C7 C 1.0420(6) 0.2797(4) 0.2844(4)
H5 H 0.9975 0.2523 0.3193
C8 C 0.4999(5) 0.5734(4) 0.2016(3)
C9 C 0.5911(5) 0.5909(3) 0.1557(3)
C10 C 0.6832(5) 0.5301(3) 0.2708(3)
O1 O 1.0981(3) 0.4493(3) 0.03086(19)
C11 C 1.1682(6) 0.2833(4) 0.2973(3)
C12 C 1.2361(6) 0.2412(4) 0.3658(3)
C13 C 1.2267(5) 0.3255(4) -0.1322(3)
C14 C 1.3837(5) 0.4052(4) 0.0453(3)
H6 H 1.3915 0.4602 0.0700
C15 C 0.7148(5) 0.5629(3) 0.1949(3)
H7 H 0.7682 0.6156 0.2023
C16 C 1.1072(5) 0.4420(4) -0.1995(3)
H8 H 1.0774 0.5004 -0.2025
C17 C 1.3672(5) 0.2405(4) -0.0287(3)
H9 H 1.3621 0.1855 -0.0534
C18 C 1.3038(5) 0.3148(3) -0.0604(3)
C19 C 1.2286(5) 0.4649(3) -0.0655(3)
H10 H 1.2769 0.5170 -0.0779
C20 C 0.5566(5) 0.5365(4) 0.2728(3)
C21 C 1.1592(6) 0.3607(4) 0.1802(3)
H11 H 1.2014 0.3878 0.1439
C22 C 0.7756(6) 0.4926(5) 0.1501(3)
C23 C 0.3779(6) 0.5942(4) 0.1781(3)
H12 H 0.3170 0.5840 0.2092
C24 C 1.3107(4) 0.3967(3) -0.0229(3)
C25 C 1.4446(8) 0.3307(4) 0.0762(5)
H13 H 1.4917 0.3356 0.1229
C26 C 1.2268(5) 0.3254(4) 0.2441(3)
H14 H 1.3118 0.3305 0.2505
C27 C 1.1773(6) 0.2172(4) 0.4279(3)
H15 H 1.0949 0.2312 0.4288
C28 C 1.1964(6) 0.2661(4) -0.1903(3)
H16 H 1.2270 0.2079 -0.1879
C29 C 0.5807(7) 0.4828(4) 0.3989(3)
H17 H 0.5471 0.4673 0.4427
C30 C 0.7572(6) 0.4991(4) 0.3327(3)
H18 H 0.8413 0.4938 0.3316
C31 C 0.5626(7) 0.6264(4) 0.0846(3)
H19 H 0.6234 0.6369 0.0534
C32 C 0.3503(8) 0.6308(4) 0.1066(4)
H20 H 0.2696 0.6452 0.0891
C33 C 0.4420(10) 0.6461(4) 0.0609(4)
H21 H 0.4215 0.6703 0.0131
C34 C 1.2400(5) 0.1731(4) 0.4878(3)
H22 H 1.1980 0.1565 0.5281
C35 C 1.0756(6) 0.3814(5) -0.2582(3)
H23 H 1.0251 0.3992 -0.3011
C36 C 1.1197(6) 0.2949(5) -0.2521(3)
H24 H 1.0969 0.2547 -0.2911
C37 C 0.7046(7) 0.4759(4) 0.3970(3)
H25 H 0.7541 0.4554 0.4394
O2 O 0.7465(4) 0.4137(3) 0.1521(2)
O3 O 0.8595(3) 0.5223(2) 0.1116(2)
O4 O 1.0551(4) 0.5574(3) -0.0527(2)
C38 C 0.5050(6) 0.5123(4) 0.3369(4)
H26 H 0.4208 0.5160 0.3381
Zn1C Zn 1.44983(6) 0.07694(3) 0.57483(4)
N2C N 0.8597(5) 0.3472(3) -0.0092(3)
loop_
_geom_bond_atom_site_label_1
_geom_bond_atom_site_label_2
_geom_bond_site_symmetry_1
_geom_bond_site_symmetry_2
Zn1 N1 1_555 1_555
C1 H1 1_555 1_555
N1 C4 1_555 1_555
N2 C2 1_555 1_555
C2 H2 1_555 1_555
C3 O1 1_555 1_555
C4 H3 1_555 1_555
C5 C13 1_555 1_555
C6 C2 1_555 1_555
H4 C6 1_555 1_555
C7 C4 1_555 1_555
H5 C7 1_555 1_555
C8 C9 1_555 1_555
C9 C15 1_555 1_555
C10 C15 1_555 1_555
O1 Zn1 1_555 1_555
C11 C7 1_555 1_555
C12 C6 1_555 1_555
C13 C18 1_555 1_555
C14 H6 1_555 1_555
C15 H7 1_555 1_555
C16 C5 1_555 1_555
H8 C16 1_555 1_555
C17 C1 1_555 1_555
H9 C17 1_555 1_555
C18 C17 1_555 1_555
C19 C3 1_555 1_555
H10 C19 1_555 1_555
C20 C8 1_555 1_555
C21 N1 1_555 1_555
H11 C21 1_555 1_555
C22 C15 1_555 1_555
C23 C8 1_555 1_555
H12 C23 1_555 1_555
C24 C14 1_555 1_555
C25 C1 1_555 1_555
H13 C25 1_555 1_555
C26 C11 1_555 1_555
H14 C26 1_555 1_555
C27 C12 1_555 1_555
H15 C27 1_555 1_555
C28 C13 1_555 1_555
H16 C28 1_555 1_555
C29 H17 1_555 1_555
C30 C10 1_555 1_555
H18 C30 1_555 1_555
C31 C9 1_555 1_555
H19 C31 1_555 1_555
C32 C23 1_555 1_555
H20 C32 1_555 1_555
C33 C31 1_555 1_555
H21 C33 1_555 1_555
C34 N2 1_555 1_555
H22 C34 1_555 1_555
C35 C16 1_555 1_555
H23 C35 1_555 1_555
C36 C28 1_555 1_555
H24 C36 1_555 1_555
C37 C29 1_555 1_555
H25 C37 1_555 1_555
O2 C22 1_555 1_555
O3 Zn1 1_555 1_555
O4 C3 1_555 1_555
C38 C20 1_555 1_555
H26 C38 1_555 1_555
Zn1C N2 1_555 1_555
N2C Zn1 1_555 1_555
C5 C19 1_555 1_555
C10 C20 1_555 1_555
C11 C12 1_555 1_555
C14 C25 1_555 1_555
C18 C24 1_555 1_555
C19 C24 1_555 1_555
C21 C26 1_555 1_555
C22 O3 1_555 1_555
C27 C34 1_555 1_555
C29 C38 1_555 1_555
C30 C37 1_555 1_555
C32 C33 1_555 1_555
C35 C36 1_555 1_555

#END
