
#######################################################################
#
#                 Cambridge Crystallographic Data Centre
#                                CCDC 
#
#######################################################################
#
# If this CIF has been generated from an entry in the Cambridge 
# Structural Database, then it will include bibliographic, chemical, 
# crystal, experimental, refinement or atomic coordinate data resulting 
# from the CCDC's data processing and validation procedures.
#
#######################################################################

data_JOMXOA
_symmetry_cell_setting           monoclinic
_symmetry_space_group_name_H-M   'P 21/n'
_symmetry_Int_Tables_number      14
_space_group_name_Hall           '-P 2yn'
loop_
_symmetry_equiv_pos_site_id
_symmetry_equiv_pos_as_xyz
1 x,y,z
2 1/2-x,1/2+y,1/2-z
3 -x,-y,-z
4 1/2+x,1/2-y,1/2+z
_cell_length_a                   6.489(4)
_cell_length_b                   18.016(10)
_cell_length_c                   10.704(6)
_cell_angle_alpha                90
_cell_angle_beta                 103.744(6)
_cell_angle_gamma                90
_cell_volume                     1215.53
loop_
_atom_site_label
_atom_site_type_symbol
_atom_site_fract_x
_atom_site_fract_y
_atom_site_fract_z
Zn1 Zn 0.06294(5) 0.406273(19) -0.03782(3)
O1 O 0.7169(4) 0.1938(2) -0.3308(4)
O2 O 0.4062(4) 0.15357(13) -0.4394(2)
O3 O 0.2919(4) 0.46683(13) 0.0607(2)
O4 O 0.1681(4) 0.55275(13) 0.1736(2)
N1 N 0.2119(4) 0.34334(15) -0.1461(2)
C1 C 0.5243(6) 0.1941(2) -0.3547(3)
C2 C 0.4122(5) 0.24600(18) -0.2814(3)
C3 C 0.1954(6) 0.2582(2) -0.3183(3)
H1 H 0.1133 0.2334 -0.3891
C4 C 0.1021(6) 0.3072(2) -0.2497(3)
H2 H -0.0432 0.3155 -0.2766
C5 C 0.4223(5) 0.33252(18) -0.1108(3)
H3 H 0.5011 0.3584 -0.0404
C6 C 0.5255(5) 0.28463(18) -0.1750(3)
H4 H 0.6714 0.2781 -0.1472
C7 C 0.3085(5) 0.50791(17) 0.1577(3)
C8 C 0.5122(5) 0.50525(17) 0.2602(3)
C9 C 0.5482(5) 0.55200(19) 0.3655(3)
H5 H 0.4429 0.5852 0.3746
C10 C 0.7367(6) 0.5504(2) 0.4570(3)
H6 H 0.7570 0.5834 0.5257
C11 C 0.8967(5) 0.50127(18) 0.4499(3)
C12 C 0.8612(7) 0.4560(3) 0.3423(4)
H7 H 0.9676 0.4236 0.3322
C13 C 0.6722(6) 0.4575(2) 0.2494(4)
H8 H 0.6532 0.4260 0.1789
O3B O 1.7081(4) 0.53317(13) 0.9393(2)
O4B O 1.8319(4) 0.44725(13) 0.8264(2)
C7B C 1.6915(5) 0.49209(17) 0.8423(3)
C8B C 1.4878(5) 0.49475(17) 0.7398(3)
C9B C 1.4518(5) 0.44800(19) 0.6345(3)
H5B H 1.5571 0.4148 0.6254
C10B C 1.2633(6) 0.4496(2) 0.5430(3)
H6B H 1.2430 0.4166 0.4743
C11B C 1.1033(5) 0.49873(18) 0.5501(3)
C12B C 1.1388(7) 0.5440(3) 0.6577(4)
H7B H 1.0324 0.5764 0.6678
C13B C 1.3278(6) 0.5425(2) 0.7506(4)
H8B H 1.3468 0.5740 0.8211
Zn1B Zn -0.06294(5) 0.593727(19) 0.03782(3)
O1B O -0.7169(4) 0.8062(2) 0.3308(4)
O2B O -0.4062(4) 0.84643(13) 0.4394(2)
N1B N -0.2119(4) 0.65666(15) 0.1461(2)
C1B C -0.5243(6) 0.8059(2) 0.3547(3)
C2B C -0.4122(5) 0.75400(18) 0.2814(3)
C3B C -0.1954(6) 0.7418(2) 0.3183(3)
H1B H -0.1133 0.7666 0.3891
C4B C -0.1021(6) 0.6928(2) 0.2497(3)
H2B H 0.0432 0.6845 0.2766
C5B C -0.4223(5) 0.66748(18) 0.1108(3)
H3B H -0.5011 0.6416 0.0404
C6B C -0.5255(5) 0.71537(18) 0.1750(3)
H4B H -0.6714 0.7219 0.1472
Zn1_2 Zn 2.06294(5) 0.406273(19) 0.96218(3)
Zn1A Zn -0.56294(5) 0.906273(19) 0.53782(3)
Zn1B_2 Zn 1.93706(5) 0.593727(19) 1.03782(3)
Zn1C Zn 0.56294(5) 0.093727(19) -0.53782(3)
O2A O 0.0938(4) 0.65357(13) -0.0606(2)
O2C O -0.0938(4) 0.34643(13) 0.0606(2)
O3B_2 O -0.2919(4) 0.53317(13) -0.0607(2)
O4B_2 O -0.1681(4) 0.44725(13) -0.1736(2)
loop_
_geom_bond_atom_site_label_1
_geom_bond_atom_site_label_2
_geom_bond_site_symmetry_1
_geom_bond_site_symmetry_2
Zn1 O3 1_555 1_555
O1 C1 1_555 1_555
O2 C1 1_555 1_555
O3 C7 1_555 1_555
O4 C7 1_555 1_555
N1 Zn1 1_555 1_555
C1 C2 1_555 1_555
C2 C3 1_555 1_555
C3 H1 1_555 1_555
C4 N1 1_555 1_555
H2 C4 1_555 1_555
C5 N1 1_555 1_555
H3 C5 1_555 1_555
C6 C2 1_555 1_555
H4 C6 1_555 1_555
C7 C8 1_555 1_555
C8 C9 1_555 1_555
C9 H5 1_555 1_555
C10 C9 1_555 1_555
H6 C10 1_555 1_555
C11 C10 1_555 1_555
C12 C11 1_555 1_555
H7 C12 1_555 1_555
C13 C8 1_555 1_555
H8 C13 1_555 1_555
O3B C7B 1_555 1_555
O4B C7B 1_555 1_555
C7B C8B 1_555 1_555
C8B C9B 1_555 1_555
C9B H5B 1_555 1_555
C10B C9B 1_555 1_555
H6B C10B 1_555 1_555
C11B C11 1_555 1_555
C12B C11B 1_555 1_555
H7B C12B 1_555 1_555
C13B C8B 1_555 1_555
H8B C13B 1_555 1_555
Zn1B O4 1_555 1_555
O1B C1B 1_555 1_555
O2B C1B 1_555 1_555
N1B Zn1B 1_555 1_555
C1B C2B 1_555 1_555
C2B C3B 1_555 1_555
C3B H1B 1_555 1_555
C4B N1B 1_555 1_555
H2B C4B 1_555 1_555
C5B N1B 1_555 1_555
H3B C5B 1_555 1_555
C6B C2B 1_555 1_555
H4B C6B 1_555 1_555
Zn1_2 O4B 1_555 1_555
Zn1A O2B 1_555 1_555
Zn1B_2 O3B 1_555 1_555
Zn1C O2 1_555 1_555
O2A Zn1B 1_555 1_555
O2C Zn1 1_555 1_555
O3B_2 Zn1B 1_555 1_555
O4B_2 Zn1 1_555 1_555
C3 C4 1_555 1_555
C5 C6 1_555 1_555
C12 C13 1_555 1_555
C10B C11B 1_555 1_555
C12B C13B 1_555 1_555
C3B C4B 1_555 1_555
C5B C6B 1_555 1_555

#END
