
#######################################################################
#
#                 Cambridge Crystallographic Data Centre
#                                CCDC 
#
#######################################################################
#
# If this CIF has been generated from an entry in the Cambridge 
# Structural Database, then it will include bibliographic, chemical, 
# crystal, experimental, refinement or atomic coordinate data resulting 
# from the CCDC's data processing and validation procedures.
#
#######################################################################

data_JOMXAM
_symmetry_cell_setting           orthorhombic
_symmetry_space_group_name_H-M   'P b c n'
_symmetry_Int_Tables_number      60
_space_group_name_Hall           '-P 2n 2ab'
loop_
_symmetry_equiv_pos_site_id
_symmetry_equiv_pos_as_xyz
1 x,y,z
2 1/2-x,1/2-y,1/2+z
3 -x,y,1/2-z
4 1/2+x,1/2-y,-z
5 -x,-y,-z
6 1/2+x,1/2+y,1/2-z
7 x,-y,1/2+z
8 1/2-x,1/2+y,z
_cell_length_a                   27.632(6)
_cell_length_b                   11.441(2)
_cell_length_c                   10.047(2)
_cell_angle_alpha                90
_cell_angle_beta                 90
_cell_angle_gamma                90
_cell_volume                     3176.24
loop_
_atom_site_label
_atom_site_type_symbol
_atom_site_fract_x
_atom_site_fract_y
_atom_site_fract_z
N1 N 0.5000 0.1155(3) 0.2500
C1 C 0.46088(11) 0.1764(3) 0.2119(3)
H1 H 0.4333 0.1354 0.1867
Co1 Co 0.5000 0.92886(5) 0.2500
N2 N 0.5000 0.7369(3) 0.2500
O1 O 0.56307(7) 0.92314(17) 0.1313(2)
C2 C 0.47895(10) 0.5542(3) 0.1470(3)
H2 H 0.4637 0.5155 0.0773
O2 O 0.61346(7) 0.83507(19) 0.2750(2)
C3 C 0.48075(10) 0.6751(3) 0.1486(3)
H3 H 0.4681 0.7157 0.0764
C4 C 0.65112(10) 0.9016(3) -0.0416(3)
H4 H 0.6462 0.9807 -0.0254
C5 C 0.5000 0.4905(4) 0.2500
C6 C 0.66551(10) 0.6601(3) -0.0922(3)
C7 C 0.63816(10) 0.6978(3) 0.0208(3)
C8 C 0.63108(10) 0.8216(3) 0.0426(3)
C9 C 0.61710(11) 0.6122(3) 0.1037(3)
H5 H 0.5994 0.6357 0.1777
C10 C 0.5000 0.3610(4) 0.2500
C11 C 0.60076(10) 0.8621(3) 0.1602(3)
C12 C 0.67964(11) 0.8672(3) -0.1546(3)
C13 C 0.62231(11) 0.4941(3) 0.0774(3)
H6 H 0.6079 0.4393 0.1332
C14 C 0.68672(10) 0.7466(3) -0.1816(3)
C15 C 0.64909(12) 0.4569(3) -0.0328(3)
H7 H 0.6523 0.3775 -0.0507
C16 C 0.71387(12) 0.7150(3) -0.2948(3)
H8 H 0.7191 0.6364 -0.3134
C17 C 0.67082(11) 0.5384(3) -0.1151(3)
H9 H 0.6893 0.5129 -0.1869
C18 C 0.72585(12) 0.9178(3) -0.3516(3)
H10 H 0.7389 0.9738 -0.4082
C19 C 0.45968(11) 0.2975(3) 0.2084(3)
H11 H 0.4321 0.3361 0.1785
C20 C 0.73266(12) 0.7988(3) -0.3781(4)
H12 H 0.7501 0.7762 -0.4529
C21 C 0.69975(11) 0.9514(3) -0.2412(3)
H13 H 0.6953 1.0305 -0.2235
O3 O 0.45655(7) 0.92379(17) 0.0756(2)
H14 H 0.4486 0.9746 0.0179
H15 H 0.4294 0.8960 0.1131
C1B C 0.53912(11) 0.1764(3) 0.2881(3)
H1B H 0.5667 0.1354 0.3133
C2B C 0.52105(10) 0.5542(3) 0.3530(3)
H2B H 0.5363 0.5155 0.4227
C3B C 0.51925(10) 0.6751(3) 0.3514(3)
H3B H 0.5319 0.7157 0.4236
C19B C 0.54032(11) 0.2975(3) 0.2916(3)
H11B H 0.5679 0.3361 0.3215
O1B O 0.43693(7) 0.92314(17) 0.3687(2)
O2B O 0.38654(7) 0.83507(19) 0.2250(2)
C4B C 0.34888(10) 0.9016(3) 0.5416(3)
H4B H 0.3538 0.9807 0.5254
C6B C 0.33449(10) 0.6601(3) 0.5922(3)
C7B C 0.36184(10) 0.6978(3) 0.4792(3)
C8B C 0.36892(10) 0.8216(3) 0.4574(3)
C9B C 0.38290(11) 0.6122(3) 0.3963(3)
H5B H 0.4006 0.6357 0.3223
C11B C 0.39924(10) 0.8621(3) 0.3398(3)
C12B C 0.32036(11) 0.8672(3) 0.6546(3)
C13B C 0.37769(11) 0.4941(3) 0.4226(3)
H6B H 0.3921 0.4393 0.3668
C14B C 0.31328(10) 0.7466(3) 0.6816(3)
C15B C 0.35091(12) 0.4569(3) 0.5328(3)
H7B H 0.3477 0.3775 0.5507
C16B C 0.28613(12) 0.7150(3) 0.7948(3)
H8B H 0.2809 0.6364 0.8134
C17B C 0.32918(11) 0.5384(3) 0.6151(3)
H9B H 0.3107 0.5129 0.6869
C18B C 0.27415(12) 0.9178(3) 0.8516(3)
H10B H 0.2611 0.9738 0.9082
C20B C 0.26734(12) 0.7988(3) 0.8781(4)
H12B H 0.2499 0.7762 0.9529
C21B C 0.30025(11) 0.9514(3) 0.7412(3)
H13B H 0.3047 1.0305 0.7235
O3B O 0.54345(7) 0.92379(17) 0.4244(2)
H14B H 0.5514 0.9746 0.4821
H15B H 0.5706 0.8960 0.3869
N1_2 N 0.5000 1.1155(3) 0.2500
Co1_2 Co 0.5000 -0.07114(5) 0.2500
loop_
_geom_bond_atom_site_label_1
_geom_bond_atom_site_label_2
_geom_bond_site_symmetry_1
_geom_bond_site_symmetry_2
N1 C1 1_555 1_555
C1 H1 1_555 1_555
Co1 N2 1_555 1_555
N2 C3 1_555 1_555
O1 Co1 1_555 1_555
C2 H2 1_555 1_555
O2 C11 1_555 1_555
C3 C2 1_555 1_555
H3 C3 1_555 1_555
C4 H4 1_555 1_555
C5 C2 1_555 1_555
C6 C7 1_555 1_555
C7 C8 1_555 1_555
C8 C4 1_555 1_555
C9 C7 1_555 1_555
H5 C9 1_555 1_555
C10 C5 1_555 1_555
C11 O1 1_555 1_555
C12 C4 1_555 1_555
C13 C9 1_555 1_555
H6 C13 1_555 1_555
C14 C6 1_555 1_555
C15 C13 1_555 1_555
H7 C15 1_555 1_555
C16 C14 1_555 1_555
H8 C16 1_555 1_555
C17 C6 1_555 1_555
H9 C17 1_555 1_555
C18 H10 1_555 1_555
C19 C1 1_555 1_555
H11 C19 1_555 1_555
C20 C16 1_555 1_555
H12 C20 1_555 1_555
C21 C12 1_555 1_555
H13 C21 1_555 1_555
O3 Co1 1_555 1_555
H14 O3 1_555 1_555
H15 O3 1_555 1_555
C1B N1 1_555 1_555
H1B C1B 1_555 1_555
C2B C5 1_555 1_555
H2B C2B 1_555 1_555
C3B N2 1_555 1_555
H3B C3B 1_555 1_555
C19B C10 1_555 1_555
H11B C19B 1_555 1_555
O1B Co1 1_555 1_555
O2B C11B 1_555 1_555
C4B H4B 1_555 1_555
C6B C7B 1_555 1_555
C7B C8B 1_555 1_555
C8B C4B 1_555 1_555
C9B C7B 1_555 1_555
H5B C9B 1_555 1_555
C11B O1B 1_555 1_555
C12B C4B 1_555 1_555
C13B C9B 1_555 1_555
H6B C13B 1_555 1_555
C14B C6B 1_555 1_555
C15B C13B 1_555 1_555
H7B C15B 1_555 1_555
C16B C14B 1_555 1_555
H8B C16B 1_555 1_555
C17B C6B 1_555 1_555
H9B C17B 1_555 1_555
C18B H10B 1_555 1_555
C20B C16B 1_555 1_555
H12B C20B 1_555 1_555
C21B C12B 1_555 1_555
H13B C21B 1_555 1_555
O3B Co1 1_555 1_555
H14B O3B 1_555 1_555
H15B O3B 1_555 1_555
N1_2 Co1 1_555 1_555
Co1_2 N1 1_555 1_555
C8 C11 1_555 1_555
C10 C19 1_555 1_555
C12 C14 1_555 1_555
C15 C17 1_555 1_555
C18 C20 1_555 1_555
C18 C21 1_555 1_555
C1B C19B 1_555 1_555
C2B C3B 1_555 1_555
C8B C11B 1_555 1_555
C12B C14B 1_555 1_555
C15B C17B 1_555 1_555
C18B C20B 1_555 1_555
C18B C21B 1_555 1_555

#END
