
#######################################################################
#
#                 Cambridge Crystallographic Data Centre
#                                CCDC 
#
#######################################################################
#
# If this CIF has been generated from an entry in the Cambridge 
# Structural Database, then it will include bibliographic, chemical, 
# crystal, experimental, refinement or atomic coordinate data resulting 
# from the CCDC's data processing and validation procedures.
#
#######################################################################

data_JOMXEQ
_symmetry_cell_setting           monoclinic
_symmetry_space_group_name_H-M   'P 21/c'
_symmetry_Int_Tables_number      14
_space_group_name_Hall           '-P 2ybc'
loop_
_symmetry_equiv_pos_site_id
_symmetry_equiv_pos_as_xyz
1 x,y,z
2 -x,1/2+y,1/2-z
3 -x,-y,-z
4 x,1/2-y,1/2+z
_cell_length_a                   18.173(4)
_cell_length_b                   14.091(3)
_cell_length_c                   21.977(4)
_cell_angle_alpha                90
_cell_angle_beta                 97.58(3)
_cell_angle_gamma                90
_cell_volume                     5578.6
loop_
_atom_site_label
_atom_site_type_symbol
_atom_site_fract_x
_atom_site_fract_y
_atom_site_fract_z
O1 O 0.62101(17) 1.1042(2) 0.53842(16)
Zn1 Zn 0.48805(3) 0.89956(4) 0.47210(2)
Zn2 Zn 0.54824(3) 1.04400(4) 0.38090(2)
Zn3 Zn 0.63559(3) 0.83513(4) 0.39043(2)
O2 O 0.54243(16) 0.89438(19) 0.39966(13)
O3 O 0.47779(16) 1.05391(19) 0.44658(13)
O4 O 0.64747(17) 1.0464(2) 0.44887(15)
N1 N 0.4926(2) 0.7490(2) 0.48707(17)
O5 O 0.72480(18) 0.8194(2) 0.44739(17)
O6 O 0.45308(18) 1.0381(3) 0.31725(14)
O7 O 0.6180(2) 1.0212(2) 0.31266(15)
C1 C 0.3095(3) 1.0804(4) 0.2649(2)
H1 H 0.3400 1.1301 0.2805
O8 O 0.4299(2) 0.8827(3) 0.31274(17)
N2 N 0.5613(2) 1.1930(3) 0.36379(17)
C2 C 0.7424(2) 1.0282(3) 0.1234(2)
N3 N 0.6136(2) 1.6907(3) 0.37183(17)
C3 C 0.6651(3) 1.0730(3) 0.5034(2)
C4 C 0.4122(3) 0.9669(4) 0.3031(2)
C5 C 0.7230(3) 0.8317(3) 0.5055(3)
O9 O 0.66757(19) 0.8570(3) 0.52814(18)
C6 C 0.9329(3) 0.7937(3) 0.6190(2)
C7 C 0.7454(2) 1.0726(3) 0.5300(2)
C8 C 0.7950(3) 0.8140(3) 0.5452(2)
C9 C 0.8371(3) 1.0937(3) 0.6185(2)
H2 H 0.8482 1.1081 0.6599
C10 C 0.2397(3) 1.1005(4) 0.2350(2)
H3 H 0.2237 1.1631 0.2316
C11 C 0.8751(3) 1.0517(3) 0.5229(2)
H4 H 0.9124 1.0386 0.4989
C12 C 0.9734(3) 1.0710(3) 0.6136(2)
C13 C 0.6824(2) 0.9805(3) 0.2312(2)
O10 O 0.6660(2) 0.8764(3) 0.31188(16)
C14 C 0.1181(3) 1.0491(4) 0.1758(2)
C15 C 0.7066(3) 1.0948(3) 0.1554(2)
H5 H 0.7027 1.1570 0.1411
C16 C 0.1929(3) 1.0284(3) 0.2098(2)
C17 C 0.7643(3) 1.0944(3) 0.5920(2)
H6 H 0.7272 1.1095 0.6157
C18 C 1.0313(3) 1.0944(3) 0.5812(2)
H7 H 1.0211 1.1102 0.5399
C19 C 0.8021(3) 1.0504(3) 0.4961(2)
H8 H 0.7909 1.0344 0.4549
C20 C 0.2194(3) 0.9364(4) 0.2174(2)
H9 H 0.1896 0.8864 0.2015
C21 C 0.6526(3) 0.9587(4) 0.2903(2)
C22 C 0.3348(3) 0.9895(4) 0.2720(2)
C23 C 0.8545(3) 0.7706(3) 0.5229(2)
H10 H 0.8489 0.7481 0.4828
C24 C 0.8945(3) 1.0721(3) 0.5848(2)
C25 C 0.9218(3) 0.7603(4) 0.5591(2)
H11 H 0.9606 0.7304 0.5431
C26 C 0.6768(3) 1.0712(3) 0.2079(2)
H12 H 0.6524 1.1174 0.2279
C27 C 0.5532(3) 1.6546(4) 0.3399(2)
H13 H 0.5176 1.6965 0.3212
C28 C 0.5082(3) 1.2490(4) 0.3392(3)
H14 H 0.4631 1.2217 0.3233
C29 C 1.0069(3) 0.7915(3) 0.6566(3)
C30 C 0.7753(2) 1.0549(3) 0.0667(2)
C31 C 0.8359(3) 1.0119(4) -0.0202(2)
H15 H 0.8547 0.9650 -0.0436
C32 C 0.6247(3) 1.2340(4) 0.3805(3)
H16 H 0.6651 1.1957 0.3945
C33 C 0.2891(3) 0.9173(4) 0.2482(2)
H17 H 0.3052 0.8547 0.2529
C34 C 1.1042(3) 1.0947(4) 0.6095(3)
H18 H 1.1423 1.1102 0.5870
C35 C 0.7807(3) 1.1476(4) 0.0481(3)
H19 H 0.7616 1.1951 0.0709
C36 C 0.8040(3) 0.8424(3) 0.6061(2)
H20 H 0.7640 0.8682 0.6228
C37 C 0.7471(3) 0.9370(4) 0.1469(2)
H21 H 0.7703 0.8901 0.1266
C38 C 0.1012(3) 1.1368(4) 0.1482(2)
H22 H 0.1367 1.1848 0.1520
C39 C 0.8032(3) 0.9864(4) 0.0309(2)
H23 H 0.8000 0.9226 0.0412
C40 C 0.8717(3) 0.8326(4) 0.6421(2)
H24 H 0.8767 0.8526 0.6827
C41 C 0.6633(3) 1.6281(4) 0.3966(3)
H25 H 0.7070 1.6508 0.4186
C42 C 1.1452(5) 0.7996(5) 0.7273(5)
H26 H 1.1913 0.8033 0.7512
C43 C 1.0638(3) 1.0478(4) 0.7028(3)
H27 H 1.0747 1.0313 0.7440
C44 C 0.8409(3) 1.1042(5) -0.0367(2)
H28 H 0.8631 1.1206 -0.0710
C45 C 0.8128(3) 1.1732(4) -0.0023(3)
H29 H 0.8155 1.2367 -0.0132
C46 C 0.0632(3) 0.9803(4) 0.1685(2)
H30 H 0.0727 0.9212 0.1866
C47 C 0.7177(3) 0.9142(4) 0.2001(2)
H31 H 0.7222 0.8524 0.2150
C48 C 1.1204(3) 1.0723(4) 0.6703(3)
H32 H 1.1692 1.0737 0.6894
C49 C 1.0828(5) 0.7820(5) 0.7543(3)
H33 H 1.0872 0.7731 0.7966
C50 C 0.9908(3) 1.0472(4) 0.6753(2)
H34 H 0.9531 1.0308 0.6981
C51 C 1.0706(3) 0.8086(4) 0.6302(3)
H35 H 1.0670 0.8182 0.5881
C52 C 1.0137(4) 0.7773(4) 0.7200(3)
H36 H 0.9719 0.7648 0.7390
C53 C 0.0323(4) 1.1534(5) 0.1151(3)
H37 H 0.0217 1.2124 0.0971
C54 C 0.4982(3) 0.5516(3) 0.4976(2)
C55 C 0.5795(3) 1.3895(3) 0.3576(2)
C56 C 0.5906(3) 1.4942(3) 0.35987(19)
C57 C 0.5398(3) 1.5586(3) 0.3326(2)
H38 H 0.4964 1.5375 0.3093
C58 C 0.6539(3) 1.5325(4) 0.3917(3)
H39 H 0.6909 1.4924 0.4101
C59 C 0.5483(3) 0.7053(4) 0.5184(3)
H40 H 0.5874 0.7416 0.5376
C60 C -0.0049(3) 0.9974(5) 0.1350(3)
H41 H -0.0407 0.9498 0.1303
C61 C 0.5525(3) 0.6087(4) 0.5248(3)
H42 H 0.5936 0.5818 0.5482
C62 C -0.0201(3) 1.0835(5) 0.1087(3)
H43 H -0.0663 1.0950 0.0863
C63 C 0.5152(3) 1.3468(4) 0.3354(3)
H44 H 0.4753 1.3830 0.3174
C64 C 0.6357(3) 1.3291(4) 0.3789(3)
H45 H 0.6825 1.3536 0.3927
C65 C 1.1392(4) 0.8119(5) 0.6652(4)
H46 H 1.1816 0.8224 0.6465
C66 C 0.4389(4) 0.6939(4) 0.4624(3)
H47 H 0.3971 0.7222 0.4409
C67 C 0.4408(4) 0.5980(4) 0.4663(3)
H48 H 0.4011 0.5633 0.4466
H49 H 0.4310 1.0648 0.4408
H50 H 0.5150 0.8790 0.3663
N1B N 0.5074(2) 0.2510(2) 0.51293(17)
C54B C 0.5018(3) 0.4484(3) 0.5024(2)
C59B C 0.4517(3) 0.2947(4) 0.4816(3)
H40B H 0.4126 0.2584 0.4624
C61B C 0.4475(3) 0.3913(4) 0.4752(3)
H42B H 0.4064 0.4182 0.4518
C66B C 0.5611(4) 0.3061(4) 0.5376(3)
H47B H 0.6029 0.2778 0.5591
C67B C 0.5592(4) 0.4020(4) 0.5337(3)
H48B H 0.5989 0.4367 0.5534
O1B O 0.37899(17) -0.1042(2) 0.46158(16)
Zn1B Zn 0.51195(3) 0.10044(4) 0.52790(2)
Zn2B Zn 0.45176(3) -0.04400(4) 0.61910(2)
Zn3B Zn 0.36441(3) 0.16487(4) 0.60957(2)
O2B O 0.45757(16) 0.10562(19) 0.60034(13)
O3B O 0.52221(16) -0.05391(19) 0.55342(13)
O4B O 0.35253(17) -0.0464(2) 0.55113(15)
O5B O 0.27520(18) 0.1806(2) 0.55261(17)
O6B O 0.54692(18) -0.0381(3) 0.68275(14)
O7B O 0.3820(2) -0.0212(2) 0.68734(15)
C1B C 0.6905(3) -0.0804(4) 0.7351(2)
H1B H 0.6600 -0.1301 0.7195
O8B O 0.5701(2) 0.1173(3) 0.68726(17)
N2B N 0.4387(2) -0.1930(3) 0.63621(17)
C2B C 0.2576(2) -0.0282(3) 0.8766(2)
N3B N 0.3864(2) -0.6907(3) 0.62817(17)
C3B C 0.3349(3) -0.0730(3) 0.4966(2)
C4B C 0.5878(3) 0.0331(4) 0.6969(2)
C5B C 0.2770(3) 0.1683(3) 0.4945(3)
O9B O 0.33243(19) 0.1430(3) 0.47186(18)
C6B C 0.0671(3) 0.2063(3) 0.3810(2)
C7B C 0.2546(2) -0.0726(3) 0.4700(2)
C8B C 0.2050(3) 0.1860(3) 0.4548(2)
C9B C 0.1629(3) -0.0937(3) 0.3815(2)
H2B H 0.1518 -0.1081 0.3401
C10B C 0.7603(3) -0.1005(4) 0.7650(2)
H3B H 0.7763 -0.1631 0.7684
C11B C 0.1249(3) -0.0517(3) 0.4771(2)
H4B H 0.0876 -0.0386 0.5011
C12B C 0.0266(3) -0.0710(3) 0.3864(2)
C13B C 0.3176(2) 0.0195(3) 0.7688(2)
O10B O 0.3340(2) 0.1236(3) 0.68812(16)
C14B C 0.8819(3) -0.0491(4) 0.8242(2)
C15B C 0.2934(3) -0.0948(3) 0.8446(2)
H5B H 0.2973 -0.1570 0.8589
C16B C 0.8071(3) -0.0284(3) 0.7902(2)
C17B C 0.2357(3) -0.0944(3) 0.4080(2)
H6B H 0.2728 -0.1095 0.3843
C18B C -0.0313(3) -0.0944(3) 0.4188(2)
H7B H -0.0211 -0.1102 0.4601
C19B C 0.1979(3) -0.0504(3) 0.5039(2)
H8B H 0.2091 -0.0344 0.5451
C20B C 0.7806(3) 0.0636(4) 0.7826(2)
H9B H 0.8104 0.1136 0.7985
C21B C 0.3474(3) 0.0413(4) 0.7097(2)
C22B C 0.6652(3) 0.0105(4) 0.7280(2)
C23B C 0.1455(3) 0.2294(3) 0.4771(2)
H10B H 0.1511 0.2519 0.5172
C24B C 0.1055(3) -0.0721(3) 0.4152(2)
C25B C 0.0782(3) 0.2397(4) 0.4409(2)
H11B H 0.0394 0.2696 0.4569
C26B C 0.3232(3) -0.0712(3) 0.7921(2)
H12B H 0.3476 -0.1174 0.7721
C27B C 0.4468(3) -0.6546(4) 0.6601(2)
H13B H 0.4824 -0.6965 0.6788
C28B C 0.4918(3) -0.2490(4) 0.6608(3)
H14B H 0.5369 -0.2217 0.6767
C29B C -0.0069(3) 0.2085(3) 0.3434(3)
C30B C 0.2247(2) -0.0549(3) 0.9333(2)
C31B C 0.1641(3) -0.0119(4) 1.0202(2)
H15B H 0.1453 0.0350 1.0436
C32B C 0.3753(3) -0.2340(4) 0.6195(3)
H16B H 0.3349 -0.1957 0.6055
C33B C 0.7109(3) 0.0827(4) 0.7518(2)
H17B H 0.6948 0.1453 0.7471
C34B C -0.1042(3) -0.0947(4) 0.3905(3)
H18B H -0.1423 -0.1102 0.4130
C35B C 0.2193(3) -0.1476(4) 0.9519(3)
H19B H 0.2384 -0.1951 0.9291
C36B C 0.1960(3) 0.1576(3) 0.3939(2)
H20B H 0.2360 0.1318 0.3772
C37B C 0.2529(3) 0.0630(4) 0.8531(2)
H21B H 0.2297 0.1099 0.8734
C38B C 0.8988(3) -0.1368(4) 0.8518(2)
H22B H 0.8633 -0.1848 0.8480
C39B C 0.1968(3) 0.0136(4) 0.9691(2)
H23B H 0.2000 0.0774 0.9588
C40B C 0.1283(3) 0.1674(4) 0.3579(2)
H24B H 0.1233 0.1474 0.3173
C41B C 0.3367(3) -0.6281(4) 0.6034(3)
H25B H 0.2930 -0.6508 0.5814
C42B C -0.1452(5) 0.2004(5) 0.2727(5)
H26B H -0.1913 0.1967 0.2488
C43B C -0.0638(3) -0.0478(4) 0.2972(3)
H27B H -0.0747 -0.0313 0.2560
C44B C 0.1591(3) -0.1042(5) 1.0367(2)
H28B H 0.1369 -0.1206 1.0710
C45B C 0.1872(3) -0.1732(4) 1.0023(3)
H29B H 0.1845 -0.2367 1.0132
C46B C 0.9368(3) 0.0197(4) 0.8315(2)
H30B H 0.9273 0.0788 0.8134
C47B C 0.2823(3) 0.0858(4) 0.7999(2)
H31B H 0.2778 0.1476 0.7850
C48B C -0.1204(3) -0.0723(4) 0.3297(3)
H32B H -0.1692 -0.0737 0.3106
C49B C -0.0828(5) 0.2180(5) 0.2457(3)
H33B H -0.0872 0.2269 0.2034
C50B C 0.0092(3) -0.0472(4) 0.3247(2)
H34B H 0.0469 -0.0308 0.3019
C51B C -0.0706(3) 0.1914(4) 0.3698(3)
H35B H -0.0670 0.1818 0.4119
C52B C -0.0137(4) 0.2227(4) 0.2800(3)
H36B H 0.0281 0.2352 0.2610
C53B C 0.9677(4) -0.1534(5) 0.8849(3)
H37B H 0.9783 -0.2124 0.9029
C55B C 0.4205(3) -0.3895(3) 0.6424(2)
C56B C 0.4094(3) -0.4942(3) 0.64013(19)
C57B C 0.4602(3) -0.5586(3) 0.6674(2)
H38B H 0.5036 -0.5375 0.6907
C58B C 0.3461(3) -0.5325(4) 0.6083(3)
H39B H 0.3091 -0.4924 0.5899
C60B C 1.0049(3) 0.0026(5) 0.8650(3)
H41B H 1.0407 0.0502 0.8697
C62B C 1.0201(3) -0.0835(5) 0.8913(3)
H43B H 1.0663 -0.0950 0.9137
C63B C 0.4848(3) -0.3468(4) 0.6646(3)
H44B H 0.5247 -0.3830 0.6826
C64B C 0.3643(3) -0.3291(4) 0.6211(3)
H45B H 0.3175 -0.3536 0.6073
C65B C -0.1392(4) 0.1881(5) 0.3348(4)
H46B H -0.1816 0.1776 0.3535
H49B H 0.5690 -0.0648 0.5592
H50B H 0.4850 0.1210 0.6337
O1_2 O 0.62101(17) 0.1042(2) 0.53842(16)
O1B_2 O 0.37899(17) 0.8958(2) 0.46158(16)
Zn1_2 Zn 0.48805(3) -0.10044(4) 0.47210(2)
Zn1B_2 Zn 0.51195(3) 1.10044(4) 0.52790(2)
Zn3_2 Zn 0.63559(3) 1.83513(4) 0.39043(2)
Zn3B_2 Zn 0.36441(3) -0.83513(4) 0.60957(2)
O3_2 O 0.47779(16) 0.05391(19) 0.44658(13)
O3B_2 O 0.52221(16) 0.94609(19) 0.55342(13)
N3_2 N 0.6136(2) 0.6907(3) 0.37183(17)
N3B_2 N 0.3864(2) 0.3093(3) 0.62817(17)
loop_
_geom_bond_atom_site_label_1
_geom_bond_atom_site_label_2
_geom_bond_site_symmetry_1
_geom_bond_site_symmetry_2
O1 C3 1_555 1_555
Zn1 O2 1_555 1_555
Zn2 O2 1_555 1_555
Zn3 O2 1_555 1_555
O2 H50 1_555 1_555
O3 Zn1 1_555 1_555
O4 Zn2 1_555 1_555
N1 Zn1 1_555 1_555
O5 Zn3 1_555 1_555
O6 Zn2 1_555 1_555
O7 Zn2 1_555 1_555
C1 H1 1_555 1_555
O8 C4 1_555 1_555
N2 Zn2 1_555 1_555
C2 C15 1_555 1_555
N3 C27 1_555 1_555
C3 O4 1_555 1_555
C4 O6 1_555 1_555
C5 O5 1_555 1_555
O9 C5 1_555 1_555
C6 C25 1_555 1_555
C7 C3 1_555 1_555
C8 C5 1_555 1_555
C9 H2 1_555 1_555
C10 C1 1_555 1_555
H3 C10 1_555 1_555
C11 H4 1_555 1_555
C12 C18 1_555 1_555
C13 C21 1_555 1_555
O10 Zn3 1_555 1_555
C14 C16 1_555 1_555
C15 H5 1_555 1_555
C16 C10 1_555 1_555
C17 C7 1_555 1_555
H6 C17 1_555 1_555
C18 H7 1_555 1_555
C19 C7 1_555 1_555
H8 C19 1_555 1_555
C20 C16 1_555 1_555
H9 C20 1_555 1_555
C21 O7 1_555 1_555
C22 C1 1_555 1_555
C23 C8 1_555 1_555
H10 C23 1_555 1_555
C24 C9 1_555 1_555
C25 C23 1_555 1_555
H11 C25 1_555 1_555
C26 C13 1_555 1_555
H12 C26 1_555 1_555
C27 H13 1_555 1_555
C28 N2 1_555 1_555
H14 C28 1_555 1_555
C29 C6 1_555 1_555
C30 C2 1_555 1_555
C31 H15 1_555 1_555
C32 N2 1_555 1_555
H16 C32 1_555 1_555
C33 C20 1_555 1_555
H17 C33 1_555 1_555
C34 C18 1_555 1_555
H18 C34 1_555 1_555
C35 C30 1_555 1_555
H19 C35 1_555 1_555
C36 C8 1_555 1_555
H20 C36 1_555 1_555
C37 C2 1_555 1_555
H21 C37 1_555 1_555
C38 C14 1_555 1_555
H22 C38 1_555 1_555
C39 C30 1_555 1_555
H23 C39 1_555 1_555
C40 C6 1_555 1_555
H24 C40 1_555 1_555
C41 N3 1_555 1_555
H25 C41 1_555 1_555
C42 H26 1_555 1_555
C43 H27 1_555 1_555
C44 C31 1_555 1_555
H28 C44 1_555 1_555
C45 C35 1_555 1_555
H29 C45 1_555 1_555
C46 C14 1_555 1_555
H30 C46 1_555 1_555
C47 C13 1_555 1_555
H31 C47 1_555 1_555
C48 C34 1_555 1_555
H32 C48 1_555 1_555
C49 C42 1_555 1_555
H33 C49 1_555 1_555
C50 C12 1_555 1_555
H34 C50 1_555 1_555
C51 C29 1_555 1_555
H35 C51 1_555 1_555
C52 C29 1_555 1_555
H36 C52 1_555 1_555
C53 C38 1_555 1_555
H37 C53 1_555 1_555
C54 C61 1_555 1_555
C55 C56 1_555 1_555
C56 C57 1_555 1_555
C57 C27 1_555 1_555
H38 C57 1_555 1_555
C58 C41 1_555 1_555
H39 C58 1_555 1_555
C59 N1 1_555 1_555
H40 C59 1_555 1_555
C60 C46 1_555 1_555
H41 C60 1_555 1_555
C61 C59 1_555 1_555
H42 C61 1_555 1_555
C62 C53 1_555 1_555
H43 C62 1_555 1_555
C63 C28 1_555 1_555
H44 C63 1_555 1_555
C64 C32 1_555 1_555
H45 C64 1_555 1_555
C65 C42 1_555 1_555
H46 C65 1_555 1_555
C66 N1 1_555 1_555
H47 C66 1_555 1_555
C67 C54 1_555 1_555
H48 C67 1_555 1_555
H49 O3 1_555 1_555
N1B C59B 1_555 1_555
C54B C54 1_555 1_555
C59B H40B 1_555 1_555
C61B C54B 1_555 1_555
H42B C61B 1_555 1_555
C66B N1B 1_555 1_555
H47B C66B 1_555 1_555
C67B C54B 1_555 1_555
H48B C67B 1_555 1_555
O1B C3B 1_555 1_555
Zn1B N1B 1_555 1_555
Zn2B O2B 1_555 1_555
Zn3B O2B 1_555 1_555
O2B Zn1B 1_555 1_555
O3B Zn1B 1_555 1_555
O4B Zn2B 1_555 1_555
O5B Zn3B 1_555 1_555
O6B Zn2B 1_555 1_555
O7B Zn2B 1_555 1_555
C1B H1B 1_555 1_555
O8B C4B 1_555 1_555
N2B Zn2B 1_555 1_555
C2B C15B 1_555 1_555
N3B C27B 1_555 1_555
C3B O4B 1_555 1_555
C4B O6B 1_555 1_555
C5B O5B 1_555 1_555
O9B C5B 1_555 1_555
C6B C25B 1_555 1_555
C7B C3B 1_555 1_555
C8B C5B 1_555 1_555
C9B H2B 1_555 1_555
C10B C1B 1_555 1_555
H3B C10B 1_555 1_555
C11B H4B 1_555 1_555
C12B C18B 1_555 1_555
C13B C21B 1_555 1_555
O10B Zn3B 1_555 1_555
C14B C16B 1_555 1_555
C15B H5B 1_555 1_555
C16B C10B 1_555 1_555
C17B C7B 1_555 1_555
H6B C17B 1_555 1_555
C18B H7B 1_555 1_555
C19B C7B 1_555 1_555
H8B C19B 1_555 1_555
C20B C16B 1_555 1_555
H9B C20B 1_555 1_555
C21B O7B 1_555 1_555
C22B C1B 1_555 1_555
C23B C8B 1_555 1_555
H10B C23B 1_555 1_555
C24B C9B 1_555 1_555
C25B C23B 1_555 1_555
H11B C25B 1_555 1_555
C26B C13B 1_555 1_555
H12B C26B 1_555 1_555
C27B H13B 1_555 1_555
C28B N2B 1_555 1_555
H14B C28B 1_555 1_555
C29B C6B 1_555 1_555
C30B C2B 1_555 1_555
C31B H15B 1_555 1_555
C32B N2B 1_555 1_555
H16B C32B 1_555 1_555
C33B C20B 1_555 1_555
H17B C33B 1_555 1_555
C34B C18B 1_555 1_555
H18B C34B 1_555 1_555
C35B C30B 1_555 1_555
H19B C35B 1_555 1_555
C36B C8B 1_555 1_555
H20B C36B 1_555 1_555
C37B C2B 1_555 1_555
H21B C37B 1_555 1_555
C38B C14B 1_555 1_555
H22B C38B 1_555 1_555
C39B C30B 1_555 1_555
H23B C39B 1_555 1_555
C40B C6B 1_555 1_555
H24B C40B 1_555 1_555
C41B N3B 1_555 1_555
H25B C41B 1_555 1_555
C42B H26B 1_555 1_555
C43B H27B 1_555 1_555
C44B C31B 1_555 1_555
H28B C44B 1_555 1_555
C45B C35B 1_555 1_555
H29B C45B 1_555 1_555
C46B C14B 1_555 1_555
H30B C46B 1_555 1_555
C47B C13B 1_555 1_555
H31B C47B 1_555 1_555
C48B C34B 1_555 1_555
H32B C48B 1_555 1_555
C49B C42B 1_555 1_555
H33B C49B 1_555 1_555
C50B C12B 1_555 1_555
H34B C50B 1_555 1_555
C51B C29B 1_555 1_555
H35B C51B 1_555 1_555
C52B C29B 1_555 1_555
H36B C52B 1_555 1_555
C53B C38B 1_555 1_555
H37B C53B 1_555 1_555
C55B C56B 1_555 1_555
C56B C57B 1_555 1_555
C57B C27B 1_555 1_555
H38B C57B 1_555 1_555
C58B C41B 1_555 1_555
H39B C58B 1_555 1_555
C60B C46B 1_555 1_555
H41B C60B 1_555 1_555
C62B C53B 1_555 1_555
H43B C62B 1_555 1_555
C63B C28B 1_555 1_555
H44B C63B 1_555 1_555
C64B C32B 1_555 1_555
H45B C64B 1_555 1_555
C65B C42B 1_555 1_555
H46B C65B 1_555 1_555
H49B O3B 1_555 1_555
H50B O2B 1_555 1_555
O1_2 Zn1B 1_555 1_555
O1B_2 Zn1 1_555 1_555
Zn1_2 O1B 1_555 1_555
Zn1B_2 O1 1_555 1_555
Zn3_2 N3 1_555 1_555
Zn3B_2 N3B 1_555 1_555
O3_2 Zn1B 1_555 1_555
O3B_2 Zn1 1_555 1_555
N3_2 Zn3 1_555 1_555
N3B_2 Zn3B 1_555 1_555
Zn2 O3 1_555 1_555
O3 Zn1B_2 1_555 1_555
C4 C22 1_555 1_555
C9 C17 1_555 1_555
C11 C19 1_555 1_555
C11 C24 1_555 1_555
C12 C24 1_555 1_555
O10 C21 1_555 1_555
C15 C26 1_555 1_555
C22 C33 1_555 1_555
C31 C39 1_555 1_555
C36 C40 1_555 1_555
C37 C47 1_555 1_555
C43 C48 1_555 1_555
C43 C50 1_555 1_555
C44 C45 1_555 1_555
C49 C52 1_555 1_555
C51 C65 1_555 1_555
C55 C63 1_555 1_555
C55 C64 1_555 1_555
C56 C58 1_555 1_555
C60 C62 1_555 1_555
C66 C67 1_555 1_555
C59B C61B 1_555 1_555
C66B C67B 1_555 1_555
Zn2B O3B 1_555 1_555
O3B Zn1_2 1_555 1_555
C4B C22B 1_555 1_555
C9B C17B 1_555 1_555
C11B C19B 1_555 1_555
C11B C24B 1_555 1_555
C12B C24B 1_555 1_555
O10B C21B 1_555 1_555
C15B C26B 1_555 1_555
C22B C33B 1_555 1_555
C31B C39B 1_555 1_555
C36B C40B 1_555 1_555
C37B C47B 1_555 1_555
C43B C48B 1_555 1_555
C43B C50B 1_555 1_555
C44B C45B 1_555 1_555
C49B C52B 1_555 1_555
C51B C65B 1_555 1_555
C55B C63B 1_555 1_555
C55B C64B 1_555 1_555
C56B C58B 1_555 1_555
C60B C62B 1_555 1_555
Zn1_2 O3_2 1_555 1_555
Zn1B_2 O3B_2 1_555 1_555

#END
