
#######################################################################
#
#                 Cambridge Crystallographic Data Centre
#                                CCDC 
#
#######################################################################
#
# If this CIF has been generated from an entry in the Cambridge 
# Structural Database, then it will include bibliographic, chemical, 
# crystal, experimental, refinement or atomic coordinate data resulting 
# from the CCDC's data processing and validation procedures.
#
#######################################################################

data_JOMYAN
_symmetry_cell_setting           triclinic
_symmetry_space_group_name_H-M   'P -1'
_symmetry_Int_Tables_number      2
_space_group_name_Hall           '-P 1'
loop_
_symmetry_equiv_pos_site_id
_symmetry_equiv_pos_as_xyz
1 x,y,z
2 -x,-y,-z
_cell_length_a                   10.101(3)
_cell_length_b                   15.191(4)
_cell_length_c                   23.331(6)
_cell_angle_alpha                87.722(4)
_cell_angle_beta                 88.484(4)
_cell_angle_gamma                88.785(5)
_cell_volume                     3575.2
loop_
_atom_site_label
_atom_site_type_symbol
_atom_site_fract_x
_atom_site_fract_y
_atom_site_fract_z
Cd1 Cd 0.02686(3) 0.61665(2) 0.019214(15)
Cd2 Cd 0.10387(4) 1.11562(3) -0.347087(17)
O1 O 0.2238(4) 0.6746(2) 0.06314(15)
O2 O 0.0427(4) 0.6502(3) 0.11516(16)
O3 O 0.5406(4) 0.8069(3) 0.30445(19)
H1 H 0.5705 0.8406 0.3290
O4 O 0.3466(4) 0.8399(3) 0.34503(18)
O5 O 0.1011(4) 0.6515(3) -0.07593(16)
O6 O -0.0031(4) 0.7548(3) -0.02835(16)
O7 O 0.1467(6) 0.9512(3) -0.3131(2)
O8 O 0.0657(6) 1.0536(3) -0.2604(2)
O9 O 0.0903(6) 1.2600(4) -0.3176(3)
O10 O 0.1109(6) 1.2465(4) -0.4092(3)
O11 O -0.0143(7) 1.7110(4) -0.3699(3)
O12 O 0.0690(7) 1.6972(4) -0.4603(3)
H2 H 0.0483 1.7497 -0.4626
O13 O -0.1388(3) 0.5174(2) -0.02665(13)
O14 O -0.1971(4) 0.6051(3) 0.04233(18)
O15 O 0.1784(4) 1.0514(3) -0.43227(16)
O16 O 0.3293(4) 1.1001(3) -0.37674(16)
C1 C 0.2276(5) 0.7024(3) 0.1627(2)
C2 C 0.1544(5) 0.7241(4) 0.2109(2)
H3 H 0.0633 0.7160 0.2121
C3 C 0.2151(6) 0.7577(4) 0.2572(2)
H4 H 0.1643 0.7733 0.2892
C4 C 0.3508(5) 0.7685(3) 0.2567(2)
C5 C 0.4270(5) 0.7430(3) 0.2089(2)
H5 H 0.5187 0.7477 0.2085
C6 C 0.3647(5) 0.7107(3) 0.1623(2)
H6 H 0.4149 0.6943 0.1303
C7 C 0.1604(5) 0.6731(3) 0.1094(2)
C8 C 0.4109(6) 0.8084(4) 0.3059(2)
C9 C 0.0714(5) 0.7920(4) -0.1227(2)
C10 C 0.1357(7) 0.7684(4) -0.1731(3)
H7 H 0.1722 0.7119 -0.1757
C11 C 0.1467(7) 0.8273(4) -0.2197(3)
H8 H 0.1894 0.8100 -0.2534
C12 C 0.0944(5) 0.9118(4) -0.2162(2)
C13 C 0.0348(6) 0.9357(4) -0.1661(3)
H9 H 0.0016 0.9929 -0.1630
C14 C 0.0228(6) 0.8778(4) -0.1204(3)
H10 H -0.0189 0.8962 -0.0868
C15 C 0.0547(5) 0.7283(4) -0.0722(2)
C16 C 0.1047(9) 0.9756(5) -0.2668(3)
C17 C 0.0880(12) 1.3905(7) -0.3757(5)
C18 C 0.1155(11) 1.4267(6) -0.4309(5)
H11 H 0.1414 1.3905 -0.4606
C19 C 0.1036(11) 1.5173(6) -0.4407(5)
H12 H 0.1287 1.5427 -0.4761
C20 C 0.0546(12) 1.5692(7) -0.3978(5)
C21 C 0.0291(11) 1.5336(6) -0.3439(5)
H13 H 0.0001 1.5697 -0.3147
C22 C 0.0463(11) 1.4442(6) -0.3328(5)
H14 H 0.0295 1.4203 -0.2960
C23 C 0.0969(10) 1.2920(6) -0.3661(4)
C24 C 0.0274(12) 1.6643(7) -0.4134(5)
C25 C -0.3677(4) 0.5242(3) 0.0028(2)
C26 C -0.4565(5) 0.5386(3) 0.0485(2)
H15 H -0.4273 0.5645 0.0812
C27 C -0.4129(5) 0.4852(3) -0.0456(2)
H16 H -0.3548 0.4751 -0.0763
C28 C -0.2259(5) 0.5499(3) 0.0068(2)
C29 C 0.4023(5) 1.0323(3) -0.4628(2)
C30 C 0.3680(6) 0.9913(4) -0.5117(2)
H17 H 0.2791 0.9853 -0.5198
C31 C 0.5351(5) 1.0410(4) -0.4509(2)
H18 H 0.5593 1.0685 -0.4179
C32 C 0.2972(6) 1.0637(4) -0.4215(2)
O17 O -0.1033(4) 1.0949(4) -0.3824(2)
H19 H -0.1332 1.0611 -0.4070
H20 H -0.1746 1.1094 -0.3647
O13A O -0.8612(3) 0.4826(2) 0.02665(13)
O14A O -0.8029(4) 0.3949(3) -0.04233(18)
C25A C -0.6323(4) 0.4758(3) -0.0028(2)
C26A C -0.5435(5) 0.4614(3) -0.0485(2)
H15A H -0.5727 0.4355 -0.0812
C27A C -0.5871(5) 0.5148(3) 0.0456(2)
H16A H -0.6452 0.5249 0.0763
C28A C -0.7741(5) 0.4501(3) -0.0068(2)
O15A O 0.8216(4) 0.9486(3) -0.56773(16)
O16A O 0.6707(4) 0.8999(3) -0.62326(16)
C29A C 0.5977(5) 0.9677(3) -0.5372(2)
C30A C 0.6320(6) 1.0087(4) -0.4883(2)
H17A H 0.7209 1.0147 -0.4802
C31A C 0.4649(5) 0.9590(4) -0.5491(2)
H18A H 0.4407 0.9315 -0.5821
C32A C 0.7028(6) 0.9363(4) -0.5785(2)
Cd1A Cd -1.02686(3) 0.38335(2) -0.019214(15)
Cd2A Cd -1.10387(4) -0.11562(3) 0.347087(17)
O1A O -1.2238(4) 0.3254(2) -0.06314(15)
O2A O -1.0427(4) 0.3498(3) -0.11516(16)
O3A O -1.5406(4) 0.1931(3) -0.30445(19)
H1A H -1.5705 0.1594 -0.3290
O4A O -1.3466(4) 0.1601(3) -0.34503(18)
O5A O -1.1011(4) 0.3485(3) 0.07593(16)
O6A O -0.9969(4) 0.2452(3) 0.02835(16)
O7A O -1.1467(6) 0.0488(3) 0.3131(2)
O8A O -1.0657(6) -0.0536(3) 0.2604(2)
O9A O -1.0903(6) -0.2600(4) 0.3176(3)
O10A O -1.1109(6) -0.2465(4) 0.4092(3)
O11A O -0.9857(7) -0.7110(4) 0.3699(3)
O12A O -1.0690(7) -0.6972(4) 0.4603(3)
H2A H -1.0483 -0.7497 0.4626
C1A C -1.2276(5) 0.2976(3) -0.1627(2)
C2A C -1.1544(5) 0.2759(4) -0.2109(2)
H3A H -1.0633 0.2840 -0.2121
C3A C -1.2151(6) 0.2423(4) -0.2572(2)
H4A H -1.1643 0.2267 -0.2892
C4A C -1.3508(5) 0.2315(3) -0.2567(2)
C5A C -1.4270(5) 0.2570(3) -0.2089(2)
H5A H -1.5187 0.2523 -0.2085
C6A C -1.3647(5) 0.2893(3) -0.1623(2)
H6A H -1.4149 0.3057 -0.1303
C7A C -1.1604(5) 0.3269(3) -0.1094(2)
C8A C -1.4109(6) 0.1916(4) -0.3059(2)
C9A C -1.0714(5) 0.2080(4) 0.1227(2)
C10A C -1.1357(7) 0.2316(4) 0.1731(3)
H7A H -1.1722 0.2881 0.1757
C11A C -1.1467(7) 0.1727(4) 0.2197(3)
H8A H -1.1894 0.1900 0.2534
C12A C -1.0944(5) 0.0882(4) 0.2162(2)
C13A C -1.0348(6) 0.0643(4) 0.1661(3)
H9A H -1.0016 0.0071 0.1630
C14A C -1.0228(6) 0.1222(4) 0.1204(3)
H10A H -0.9811 0.1038 0.0868
C15A C -1.0547(5) 0.2717(4) 0.0722(2)
C16A C -1.1047(9) 0.0244(5) 0.2668(3)
C17A C -1.0880(12) -0.3905(7) 0.3757(5)
C18A C -1.1155(11) -0.4267(6) 0.4309(5)
H11A H -1.1414 -0.3905 0.4606
C19A C -1.1036(11) -0.5173(6) 0.4407(5)
H12A H -1.1287 -0.5427 0.4761
C20A C -1.0546(12) -0.5692(7) 0.3978(5)
C21A C -1.0291(11) -0.5336(6) 0.3439(5)
H13A H -1.0001 -0.5697 0.3147
C22A C -1.0463(11) -0.4442(6) 0.3328(5)
H14A H -1.0295 -0.4203 0.2960
C23A C -1.0969(10) -0.2920(6) 0.3661(4)
C24A C -1.0274(12) -0.6643(7) 0.4134(5)
O17A O -0.8967(4) -0.0949(4) 0.3824(2)
H19A H -0.8668 -0.0611 0.4070
H20A H -0.8254 -0.1094 0.3647
Cd1_2 Cd -0.97314(3) 0.61665(2) 0.019214(15)
Cd1A_2 Cd -0.02686(3) 0.38335(2) -0.019214(15)
Cd2A_2 Cd 0.89613(4) 0.88438(3) -0.652913(17)
O13_2 O -1.1388(3) 0.5174(2) -0.02665(13)
O13A_2 O 0.1388(3) 0.4826(2) 0.02665(13)
O15A_2 O -1.1784(4) -0.0514(3) 0.43227(16)
O16A_2 O -1.3293(4) -0.1001(3) 0.37674(16)
P1 P 0.53406(16) 1.55187(10) -0.31067(6)
C33 C 0.4795(13) 1.6449(6) -0.3514(4)
C34 C 0.3517(13) 1.6843(5) -0.3411(4)
H21 H 0.2982 1.6612 -0.3114
C35 C 0.3049(13) 1.7559(5) -0.3738(4)
H22 H 0.2217 1.7817 -0.3677
C36 C 0.3942(13) 1.7861(6) -0.4171(4)
H23 H 0.3656 1.8337 -0.4402
C37 C 0.5150(13) 1.7541(5) -0.4286(4)
H24 H 0.5683 1.7787 -0.4579
C38 C 0.5585(13) 1.6816(5) -0.3947(4)
H25 H 0.6427 1.6577 -0.4015
C39 C 0.5804(6) 1.4716(4) -0.3620(2)
C40 C 0.4898(9) 1.4529(6) -0.4032(3)
H26 H 0.4078 1.4819 -0.4037
C41 C 0.5213(11) 1.3913(7) -0.4436(4)
H27 H 0.4595 1.3780 -0.4706
C42 C 0.6402(11) 1.3505(7) -0.4440(4)
H28 H 0.6604 1.3099 -0.4719
C43 C 0.7322(8) 1.3676(6) -0.4043(4)
H29 H 0.8147 1.3393 -0.4054
C44 C 0.7010(7) 1.4282(5) -0.3620(3)
H30 H 0.7619 1.4389 -0.3340
C45 C 0.4070(6) 1.5090(4) -0.2626(2)
C46 C 0.3662(7) 1.5578(5) -0.2159(3)
H31 H 0.4027 1.6125 -0.2106
C47 C 0.2715(7) 1.5254(6) -0.1775(3)
H32 H 0.2420 1.5587 -0.1470
C48 C 0.2218(7) 1.4446(6) -0.1846(3)
H33 H 0.1583 1.4225 -0.1586
C49 C 0.2635(8) 1.3952(5) -0.2292(4)
H34 H 0.2295 1.3394 -0.2330
C50 C 0.3557(7) 1.4272(4) -0.2689(3)
H35 H 0.3829 1.3936 -0.2997
C51 C 0.6695(6) 1.5795(4) -0.2675(2)
C52 C 0.7212(7) 1.6638(4) -0.2686(3)
H36 H 0.6899 1.7072 -0.2943
C53 C 0.8186(7) 1.6818(4) -0.2315(3)
H37 H 0.8535 1.7380 -0.2323
C54 C 0.8662(8) 1.6189(5) -0.1930(3)
H38 H 0.9321 1.6325 -0.1679
C55 C 0.8155(8) 1.5360(5) -0.1919(3)
H39 H 0.8476 1.4930 -0.1662
C56 C 0.7176(7) 1.5158(4) -0.2287(3)
H40 H 0.6834 1.4594 -0.2275
P2 P 0.54603(13) 0.97865(8) -0.14135(6)
C57 C 0.4243(5) 1.0654(3) -0.1308(2)
C58 C 0.3196(7) 1.0799(5) -0.1673(4)
H41 H 0.3104 1.0444 -0.1984
C59 C 0.2286(7) 1.1473(5) -0.1574(4)
H42 H 0.1571 1.1554 -0.1815
C60 C 0.2413(6) 1.2014(4) -0.1137(3)
H43 H 0.1800 1.2469 -0.1080
C61 C 0.3452(7) 1.1887(4) -0.0776(3)
H44 H 0.3536 1.2255 -0.0471
C62 C 0.4373(6) 1.1220(4) -0.0860(2)
H45 H 0.5083 1.1148 -0.0616
C63 C 0.6881(5) 1.0073(3) -0.1028(2)
C64 C 0.7128(6) 0.9639(4) -0.0500(2)
H46 H 0.6641 0.9151 -0.0379
C65 C 0.8103(7) 0.9947(5) -0.0164(3)
H47 H 0.8284 0.9661 0.0186
C66 C 0.8812(7) 1.0676(5) -0.0343(3)
H48 H 0.9448 1.0888 -0.0106
C67 C 0.8595(6) 1.1095(4) -0.0866(3)
H49 H 0.9106 1.1572 -0.0988
C68 C 0.7615(6) 1.0802(3) -0.1209(3)
H50 H 0.7446 1.1091 -0.1559
C69 C 0.4889(5) 0.8750(3) -0.1117(2)
C70 C 0.5540(8) 0.7981(4) -0.1281(3)
H51 H 0.6185 0.8001 -0.1572
C71 C 0.5220(9) 0.7186(4) -0.1007(4)
H52 H 0.5652 0.6670 -0.1116
C72 C 0.4272(7) 0.7155(4) -0.0575(3)
H53 H 0.4076 0.6620 -0.0387
C73 C 0.3611(6) 0.7913(4) -0.0421(3)
H54 H 0.2961 0.7888 -0.0132
C74 C 0.3907(6) 0.8712(4) -0.0694(2)
H55 H 0.3446 0.9222 -0.0594
C75 C 0.5877(5) 0.9623(3) -0.2153(2)
C76 C 0.7167(7) 0.9625(5) -0.2351(3)
H56 H 0.7836 0.9779 -0.2110
C77 C 0.7478(8) 0.9397(6) -0.2910(3)
H57 H 0.8357 0.9384 -0.3038
C78 C 0.6515(8) 0.9193(5) -0.3266(3)
H58 H 0.6729 0.9045 -0.3640
C79 C 0.5259(9) 0.9203(7) -0.3084(3)
H59 H 0.4599 0.9085 -0.3338
C80 C 0.4912(7) 0.9387(6) -0.2521(3)
H60 H 0.4035 0.9350 -0.2393
O18 O 0.0365(10) 1.8734(8) -0.5035(3)
H61 H 0.1123 1.8597 -0.5138
H62 H -0.0318 1.9070 -0.5028
O19 O -0.0153(10) 1.8781(5) -0.3909(4)
H63 H 0.0390 1.8822 -0.4193
H64 H 0.0640 1.8841 -0.3806
O20 O 0.778(6) 1.757(3) -0.479(3)
H65 H 0.7468 1.7376 -0.5093
H66 H 0.8092 1.8085 -0.4769
loop_
_geom_bond_atom_site_label_1
_geom_bond_atom_site_label_2
_geom_bond_site_symmetry_1
_geom_bond_site_symmetry_2
Cd1 O1 1_555 1_555
Cd2 O7 1_555 1_555
O1 C7 1_555 1_555
O2 Cd1 1_555 1_555
O3 H1 1_555 1_555
O4 C8 1_555 1_555
O5 Cd1 1_555 1_555
O6 Cd1 1_555 1_555
O7 C16 1_555 1_555
O8 Cd2 1_555 1_555
O9 Cd2 1_555 1_555
O10 Cd2 1_555 1_555
O11 C24 1_555 1_555
O12 H2 1_555 1_555
O13 Cd1 1_555 1_555
O14 Cd1 1_555 1_555
O15 Cd2 1_555 1_555
O16 Cd2 1_555 1_555
C1 C2 1_555 1_555
C2 H3 1_555 1_555
C3 C2 1_555 1_555
H4 C3 1_555 1_555
C4 C3 1_555 1_555
C5 C4 1_555 1_555
H5 C5 1_555 1_555
C6 C1 1_555 1_555
H6 C6 1_555 1_555
C7 O2 1_555 1_555
C8 O3 1_555 1_555
C9 C10 1_555 1_555
C10 H7 1_555 1_555
C11 C10 1_555 1_555
H8 C11 1_555 1_555
C12 C11 1_555 1_555
C13 C12 1_555 1_555
H9 C13 1_555 1_555
C14 C9 1_555 1_555
H10 C14 1_555 1_555
C15 O5 1_555 1_555
C16 O8 1_555 1_555
C17 C18 1_555 1_555
C18 H11 1_555 1_555
C19 C18 1_555 1_555
H12 C19 1_555 1_555
C20 C19 1_555 1_555
C21 C20 1_555 1_555
H13 C21 1_555 1_555
C22 C17 1_555 1_555
H14 C22 1_555 1_555
C23 O9 1_555 1_555
C24 O12 1_555 1_555
C25 C26 1_555 1_555
C26 H15 1_555 1_555
C27 C25 1_555 1_555
H16 C27 1_555 1_555
C28 O13 1_555 1_555
C29 C30 1_555 1_555
C30 H17 1_555 1_555
C31 C29 1_555 1_555
H18 C31 1_555 1_555
C32 O15 1_555 1_555
O17 Cd2 1_555 1_555
H19 O17 1_555 1_555
H20 O17 1_555 1_555
P1 C33 1_555 1_555
C33 C34 1_555 1_555
C34 H21 1_555 1_555
C35 C34 1_555 1_555
H22 C35 1_555 1_555
C36 C35 1_555 1_555
H23 C36 1_555 1_555
C37 C36 1_555 1_555
H24 C37 1_555 1_555
C38 C33 1_555 1_555
H25 C38 1_555 1_555
C39 P1 1_555 1_555
C40 C39 1_555 1_555
H26 C40 1_555 1_555
C41 C40 1_555 1_555
H27 C41 1_555 1_555
C42 C41 1_555 1_555
H28 C42 1_555 1_555
C43 C42 1_555 1_555
H29 C43 1_555 1_555
C44 C39 1_555 1_555
H30 C44 1_555 1_555
C45 P1 1_555 1_555
C46 C45 1_555 1_555
H31 C46 1_555 1_555
C47 C46 1_555 1_555
H32 C47 1_555 1_555
C48 C47 1_555 1_555
H33 C48 1_555 1_555
C49 C48 1_555 1_555
H34 C49 1_555 1_555
C50 C45 1_555 1_555
H35 C50 1_555 1_555
C51 P1 1_555 1_555
C52 C51 1_555 1_555
H36 C52 1_555 1_555
C53 C52 1_555 1_555
H37 C53 1_555 1_555
C54 C53 1_555 1_555
H38 C54 1_555 1_555
C55 C54 1_555 1_555
H39 C55 1_555 1_555
C56 C51 1_555 1_555
H40 C56 1_555 1_555
P2 C57 1_555 1_555
C57 C58 1_555 1_555
C58 H41 1_555 1_555
C59 C58 1_555 1_555
H42 C59 1_555 1_555
C60 C59 1_555 1_555
H43 C60 1_555 1_555
C61 C60 1_555 1_555
H44 C61 1_555 1_555
C62 C57 1_555 1_555
H45 C62 1_555 1_555
C63 P2 1_555 1_555
C64 C63 1_555 1_555
H46 C64 1_555 1_555
C65 C64 1_555 1_555
H47 C65 1_555 1_555
C66 C65 1_555 1_555
H48 C66 1_555 1_555
C67 C66 1_555 1_555
H49 C67 1_555 1_555
C68 C63 1_555 1_555
H50 C68 1_555 1_555
C69 P2 1_555 1_555
C70 C69 1_555 1_555
H51 C70 1_555 1_555
C71 C70 1_555 1_555
H52 C71 1_555 1_555
C72 C71 1_555 1_555
H53 C72 1_555 1_555
C73 C72 1_555 1_555
H54 C73 1_555 1_555
C74 C69 1_555 1_555
H55 C74 1_555 1_555
C75 P2 1_555 1_555
C76 C75 1_555 1_555
H56 C76 1_555 1_555
C77 C76 1_555 1_555
H57 C77 1_555 1_555
C78 C77 1_555 1_555
H58 C78 1_555 1_555
C79 C78 1_555 1_555
H59 C79 1_555 1_555
C80 C75 1_555 1_555
H60 C80 1_555 1_555
O18 H61 1_555 1_555
H62 O18 1_555 1_555
O19 H63 1_555 1_555
H64 O19 1_555 1_555
O20 H65 1_555 1_555
H66 O20 1_555 1_555
O13A C28A 1_555 1_555
O14A C28A 1_555 1_555
C25A C26A 1_555 1_555
C26A C27 1_555 1_555
H15A C26A 1_555 1_555
C27A C26 1_555 1_555
H16A C27A 1_555 1_555
C28A C25A 1_555 1_555
O15A C32A 1_555 1_555
O16A C32A 1_555 1_555
C29A C30A 1_555 1_555
C30A C31 1_555 1_555
H17A C30A 1_555 1_555
C31A C30 1_555 1_555
H18A C31A 1_555 1_555
C32A C29A 1_555 1_555
Cd1A O13A 1_555 1_555
Cd2A O7A 1_555 1_555
O1A Cd1A 1_555 1_555
O2A Cd1A 1_555 1_555
O3A H1A 1_555 1_555
O4A C8A 1_555 1_555
O5A Cd1A 1_555 1_555
O6A Cd1A 1_555 1_555
O7A C16A 1_555 1_555
O8A Cd2A 1_555 1_555
O9A Cd2A 1_555 1_555
O10A Cd2A 1_555 1_555
O11A C24A 1_555 1_555
O12A H2A 1_555 1_555
C1A C2A 1_555 1_555
C2A H3A 1_555 1_555
C3A C2A 1_555 1_555
H4A C3A 1_555 1_555
C4A C3A 1_555 1_555
C5A C4A 1_555 1_555
H5A C5A 1_555 1_555
C6A C1A 1_555 1_555
H6A C6A 1_555 1_555
C7A O1A 1_555 1_555
C8A O3A 1_555 1_555
C9A C10A 1_555 1_555
C10A H7A 1_555 1_555
C11A C10A 1_555 1_555
H8A C11A 1_555 1_555
C12A C11A 1_555 1_555
C13A C12A 1_555 1_555
H9A C13A 1_555 1_555
C14A C9A 1_555 1_555
H10A C14A 1_555 1_555
C15A O5A 1_555 1_555
C16A O8A 1_555 1_555
C17A C18A 1_555 1_555
C18A H11A 1_555 1_555
C19A C18A 1_555 1_555
H12A C19A 1_555 1_555
C20A C19A 1_555 1_555
C21A C20A 1_555 1_555
H13A C21A 1_555 1_555
C22A C17A 1_555 1_555
H14A C22A 1_555 1_555
C23A O9A 1_555 1_555
C24A O12A 1_555 1_555
O17A Cd2A 1_555 1_555
H19A O17A 1_555 1_555
H20A O17A 1_555 1_555
Cd1_2 O13A 1_555 1_555
Cd1A_2 O13 1_555 1_555
Cd2A_2 O15A 1_555 1_555
O13_2 Cd1A 1_555 1_555
O13A_2 Cd1 1_555 1_555
O15A_2 Cd2A 1_555 1_555
O16A_2 Cd2A 1_555 1_555
O6 C15 1_555 1_555
O10 C23 1_555 1_555
O14 C28 1_555 1_555
O16 C32 1_555 1_555
C1 C7 1_555 1_555
C4 C8 1_555 1_555
C5 C6 1_555 1_555
C9 C15 1_555 1_555
C12 C16 1_555 1_555
C13 C14 1_555 1_555
C17 C23 1_555 1_555
C20 C24 1_555 1_555
C21 C22 1_555 1_555
C25 C28 1_555 1_555
C29 C32 1_555 1_555
C37 C38 1_555 1_555
C43 C44 1_555 1_555
C49 C50 1_555 1_555
C55 C56 1_555 1_555
C61 C62 1_555 1_555
C67 C68 1_555 1_555
C73 C74 1_555 1_555
C79 C80 1_555 1_555
O14A Cd1A 1_555 1_555
C25A C27A 1_555 1_555
O16A Cd2A_2 1_555 1_555
C29A C31A 1_555 1_555
O2A C7A 1_555 1_555
O6A C15A 1_555 1_555
O10A C23A 1_555 1_555
C1A C7A 1_555 1_555
C4A C8A 1_555 1_555
C5A C6A 1_555 1_555
C9A C15A 1_555 1_555
C12A C16A 1_555 1_555
C13A C14A 1_555 1_555
C17A C23A 1_555 1_555
C20A C24A 1_555 1_555
C21A C22A 1_555 1_555
Cd1_2 O13_2 1_555 1_555
Cd1A_2 O13A_2 1_555 1_555

#END
