
#######################################################################
#
#                 Cambridge Crystallographic Data Centre
#                                CCDC 
#
#######################################################################
#
# If this CIF has been generated from an entry in the Cambridge 
# Structural Database, then it will include bibliographic, chemical, 
# crystal, experimental, refinement or atomic coordinate data resulting 
# from the CCDC's data processing and validation procedures.
#
#######################################################################

data_JONGIE
_symmetry_cell_setting           tetragonal
_symmetry_space_group_name_H-M   'I 4/m'
_symmetry_Int_Tables_number      87
_space_group_name_Hall           '-I 4'
loop_
_symmetry_equiv_pos_site_id
_symmetry_equiv_pos_as_xyz
1 x,y,z
2 -x,-y,z
3 -y,x,z
4 y,-x,z
5 1/2+x,1/2+y,1/2+z
6 1/2-x,1/2-y,1/2+z
7 1/2-y,1/2+x,1/2+z
8 1/2+y,1/2-x,1/2+z
9 -x,-y,-z
10 x,y,-z
11 y,-x,-z
12 -y,x,-z
13 1/2-x,1/2-y,1/2-z
14 1/2+x,1/2+y,1/2-z
15 1/2+y,1/2-x,1/2-z
16 1/2-y,1/2+x,1/2-z
_cell_length_a                   15.164(5)
_cell_length_b                   15.164(5)
_cell_length_c                   23.519(5)
_cell_angle_alpha                90
_cell_angle_beta                 90
_cell_angle_gamma                90
_cell_volume                     5408.12
loop_
_atom_site_label
_atom_site_type_symbol
_atom_site_fract_x
_atom_site_fract_y
_atom_site_fract_z
C1 C 0.7109(7) 0.0750(6) 0.2790(5)
C2 C 0.7152(6) 0.1674(6) 0.3048(4)
C3 C 0.7928(7) 0.1982(7) 0.3297(5)
H1 H 0.8426 0.1626 0.3313
C4 C 0.6438(5) 0.2228(6) 0.3033(3)
H2 H 0.5909 0.2036 0.2876
C5 C 0.7946(6) 0.2825(7) 0.3518(5)
H3 H 0.8461 0.3035 0.3684
C6 C 0.6506(6) 0.3070(6) 0.3250(4)
H4 H 0.6030 0.3454 0.3221
C7 C 0.7279(6) 0.4246(5) 0.3768(4)
H5 H 0.6778 0.4590 0.3640
H6 H 0.7811 0.4545 0.3645
C8 C 0.7268(6) 0.4193(5) 0.4404(4)
C9 C 0.8067(7) 0.4303(8) 0.4704(4)
H7 H 0.8593 0.4376 0.4506
C10 C 0.6492(6) 0.4075(6) 0.4701(4)
H8 H 0.5966 0.3994 0.4505
N1 N 0.5000 0.0000 0.3699(7)
N2 N 0.7243(4) 0.3338(5) 0.3499(3)
O1 O 0.4776(7) 0.0672(5) 0.3453(4)
O2 O 0.7810(7) 0.0386(8) 0.2697(7)
O3 O 0.6419(5) 0.0486(5) 0.2632(4)
O4 O 0.5000 0.0000 0.4243(8)
Gd1 Gd 0.5000 0.0000 0.2500
C1I C 0.7109(7) 0.0750(6) 0.7210(5)
C2I C 0.7152(6) 0.1674(6) 0.6952(4)
C3I C 0.7928(7) 0.1982(7) 0.6703(5)
H1I H 0.8426 0.1626 0.6687
C4I C 0.6438(5) 0.2228(6) 0.6967(3)
H2I H 0.5909 0.2036 0.7124
C5I C 0.7946(6) 0.2825(7) 0.6482(5)
H3I H 0.8461 0.3035 0.6316
C6I C 0.6506(6) 0.3070(6) 0.6750(4)
H4I H 0.6030 0.3454 0.6779
C7I C 0.7279(6) 0.4246(5) 0.6232(4)
H5I H 0.6778 0.4590 0.6360
H6I H 0.7811 0.4545 0.6355
C8I C 0.7268(6) 0.4193(5) 0.5596(4)
C9I C 0.8067(7) 0.4303(8) 0.5296(4)
H7I H 0.8593 0.4376 0.5494
C10I C 0.6492(6) 0.4075(6) 0.5299(4)
H8I H 0.5966 0.3994 0.5495
N2I N 0.7243(4) 0.3338(5) 0.6501(3)
O2I O 0.7810(7) 0.0386(8) 0.7303(7)
O3I O 0.6419(5) 0.0486(5) 0.7368(4)
O1A O 0.5224(7) -0.0672(5) 0.3453(4)
C1A C 0.2891(7) -0.0750(6) 0.2790(5)
C2A C 0.2848(6) -0.1674(6) 0.3048(4)
C3A C 0.2072(7) -0.1982(7) 0.3297(5)
H1A H 0.1574 -0.1626 0.3313
C4A C 0.3562(5) -0.2228(6) 0.3033(3)
H2A H 0.4091 -0.2036 0.2876
C5A C 0.2054(6) -0.2825(7) 0.3518(5)
H3A H 0.1539 -0.3035 0.3684
C6A C 0.3494(6) -0.3070(6) 0.3250(4)
H4A H 0.3970 -0.3454 0.3221
C7A C 0.2721(6) -0.4246(5) 0.3768(4)
H5A H 0.3222 -0.4590 0.3640
H6A H 0.2189 -0.4545 0.3645
C8A C 0.2732(6) -0.4193(5) 0.4404(4)
C9A C 0.1933(7) -0.4303(8) 0.4704(4)
H7A H 0.1407 -0.4376 0.4506
C10A C 0.3508(6) -0.4075(6) 0.4701(4)
H8A H 0.4034 -0.3994 0.4505
N2A N 0.2757(4) -0.3338(5) 0.3499(3)
O2A O 0.2190(7) -0.0386(8) 0.2697(7)
O3A O 0.3581(5) -0.0486(5) 0.2632(4)
C1H C 0.2891(7) -0.0750(6) 0.7210(5)
C2H C 0.2848(6) -0.1674(6) 0.6952(4)
C3H C 0.2072(7) -0.1982(7) 0.6703(5)
H1H H 0.1574 -0.1626 0.6687
C4H C 0.3562(5) -0.2228(6) 0.6967(3)
H2H H 0.4091 -0.2036 0.7124
C5H C 0.2054(6) -0.2825(7) 0.6482(5)
H3H H 0.1539 -0.3035 0.6316
C6H C 0.3494(6) -0.3070(6) 0.6750(4)
H4H H 0.3970 -0.3454 0.6779
C7H C 0.2721(6) -0.4246(5) 0.6232(4)
H5H H 0.3222 -0.4590 0.6360
H6H H 0.2189 -0.4545 0.6355
C8H C 0.2732(6) -0.4193(5) 0.5596(4)
C9H C 0.1933(7) -0.4303(8) 0.5296(4)
H7H H 0.1407 -0.4376 0.5494
C10H C 0.3508(6) -0.4075(6) 0.5299(4)
H8H H 0.4034 -0.3994 0.5495
N2H N 0.2757(4) -0.3338(5) 0.6501(3)
O2H O 0.2190(7) -0.0386(8) 0.7303(7)
O3H O 0.3581(5) -0.0486(5) 0.7368(4)
N1N N 0.5000 0.0000 0.1301(7)
O1N O 0.5672(5) 0.0224(7) 0.1547(4)
O4N O 0.5000 0.0000 0.0757(8)
O1O O 0.4328(5) -0.0224(7) 0.1547(4)
O3N O 0.5486(5) -0.1419(5) 0.2368(4)
O3O O 0.4514(5) 0.1419(5) 0.2368(4)
Gd1F Gd 0.5000 0.0000 0.7500
O5 O 0.717(3) 0.100(3) 0.5000
Cl1 Cl 0.5000 0.5000 0.3511(2)
O6 O 1.0000 0.0000 0.340(3)
loop_
_geom_bond_atom_site_label_1
_geom_bond_atom_site_label_2
_geom_bond_site_symmetry_1
_geom_bond_site_symmetry_2
C1 C2 1_555 1_555
C2 C3 1_555 1_555
C3 H1 1_555 1_555
C4 C2 1_555 1_555
H2 C4 1_555 1_555
C5 C3 1_555 1_555
H3 C5 1_555 1_555
C6 C4 1_555 1_555
H4 C6 1_555 1_555
C7 H5 1_555 1_555
H6 C7 1_555 1_555
C8 C7 1_555 1_555
C9 C8 1_555 1_555
H7 C9 1_555 1_555
C10 C8 1_555 1_555
H8 C10 1_555 1_555
N1 O1 1_555 1_555
N2 C5 1_555 1_555
O1 Gd1 1_555 1_555
O2 C1 1_555 1_555
O3 C1 1_555 1_555
O4 N1 1_555 1_555
Gd1 O3 1_555 1_555
C1I C2I 1_555 1_555
C2I C3I 1_555 1_555
C3I H1I 1_555 1_555
C4I C2I 1_555 1_555
H2I C4I 1_555 1_555
C5I C3I 1_555 1_555
H3I C5I 1_555 1_555
C6I C4I 1_555 1_555
H4I C6I 1_555 1_555
C7I H5I 1_555 1_555
H6I C7I 1_555 1_555
C8I C7I 1_555 1_555
C9I C9 1_555 1_555
H7I C9I 1_555 1_555
C10I C10 1_555 1_555
H8I C10I 1_555 1_555
N2I C5I 1_555 1_555
O2I C1I 1_555 1_555
O3I C1I 1_555 1_555
O1A N1 1_555 1_555
C1A C2A 1_555 1_555
C2A C3A 1_555 1_555
C3A H1A 1_555 1_555
C4A C2A 1_555 1_555
H2A C4A 1_555 1_555
C5A C3A 1_555 1_555
H3A C5A 1_555 1_555
C6A C4A 1_555 1_555
H4A C6A 1_555 1_555
C7A H5A 1_555 1_555
H6A C7A 1_555 1_555
C8A C7A 1_555 1_555
C9A C8A 1_555 1_555
H7A C9A 1_555 1_555
C10A C8A 1_555 1_555
H8A C10A 1_555 1_555
N2A C5A 1_555 1_555
O2A C1A 1_555 1_555
O3A Gd1 1_555 1_555
C1H C2H 1_555 1_555
C2H C3H 1_555 1_555
C3H H1H 1_555 1_555
C4H C2H 1_555 1_555
H2H C4H 1_555 1_555
C5H C3H 1_555 1_555
H3H C5H 1_555 1_555
C6H C4H 1_555 1_555
H4H C6H 1_555 1_555
C7H H5H 1_555 1_555
H6H C7H 1_555 1_555
C8H C7H 1_555 1_555
C9H C9A 1_555 1_555
H7H C9H 1_555 1_555
C10H C10A 1_555 1_555
H8H C10H 1_555 1_555
N2H C5H 1_555 1_555
O2H C1H 1_555 1_555
O3H C1H 1_555 1_555
N1N O1N 1_555 1_555
O1N Gd1 1_555 1_555
O4N N1N 1_555 1_555
O1O Gd1 1_555 1_555
O3N Gd1 1_555 1_555
O3O Gd1 1_555 1_555
Gd1F O3I 1_555 1_555
C6 N2 1_555 1_555
C7 N2 1_555 1_555
Gd1 O1A 1_555 1_555
C6I N2I 1_555 1_555
C7I N2I 1_555 1_555
C8I C9I 1_555 1_555
C8I C10I 1_555 1_555
C1A O3A 1_555 1_555
C6A N2A 1_555 1_555
C7A N2A 1_555 1_555
C6H N2H 1_555 1_555
C7H N2H 1_555 1_555
C8H C9H 1_555 1_555
C8H C10H 1_555 1_555
O3H Gd1F 1_555 1_555
N1N O1O 1_555 1_555

#END
