
#######################################################################
#
#                 Cambridge Crystallographic Data Centre
#                                CCDC 
#
#######################################################################
#
# If this CIF has been generated from an entry in the Cambridge 
# Structural Database, then it will include bibliographic, chemical, 
# crystal, experimental, refinement or atomic coordinate data resulting 
# from the CCDC's data processing and validation procedures.
#
#######################################################################

data_JONGEA
_symmetry_cell_setting           tetragonal
_symmetry_space_group_name_H-M   'I 4/m'
_symmetry_Int_Tables_number      87
_space_group_name_Hall           '-I 4'
loop_
_symmetry_equiv_pos_site_id
_symmetry_equiv_pos_as_xyz
1 x,y,z
2 -x,-y,z
3 -y,x,z
4 y,-x,z
5 1/2+x,1/2+y,1/2+z
6 1/2-x,1/2-y,1/2+z
7 1/2-y,1/2+x,1/2+z
8 1/2+y,1/2-x,1/2+z
9 -x,-y,-z
10 x,y,-z
11 y,-x,-z
12 -y,x,-z
13 1/2-x,1/2-y,1/2-z
14 1/2+x,1/2+y,1/2-z
15 1/2+y,1/2-x,1/2-z
16 1/2-y,1/2+x,1/2-z
_cell_length_a                   15.181(5)
_cell_length_b                   15.181(5)
_cell_length_c                   23.369(5)
_cell_angle_alpha                90
_cell_angle_beta                 90
_cell_angle_gamma                90
_cell_volume                     5385.68
loop_
_atom_site_label
_atom_site_type_symbol
_atom_site_fract_x
_atom_site_fract_y
_atom_site_fract_z
C1 C 0.206(2) 0.5752(15) 0.2795(10)
C2 C 0.2143(15) 0.6667(14) 0.3055(8)
C3 C 0.1432(13) 0.7226(15) 0.3019(7)
H1 H 0.0911 0.7042 0.2848
C4 C 0.1505(13) 0.8064(14) 0.3241(8)
H2 H 0.1027 0.8444 0.3206
C5 C 0.2893(14) 0.6970(16) 0.3308(10)
H3 H 0.3390 0.6614 0.3332
C6 C 0.2901(15) 0.7832(17) 0.3533(8)
H4 H 0.3411 0.8035 0.3710
C7 C 0.2248(12) 0.9229(11) 0.3769(8)
H5 H 0.1738 0.9560 0.3641
H6 H 0.2770 0.9538 0.3639
C8 C 0.2250(12) 0.9202(10) 0.4404(8)
C9 C 0.1487(11) 0.9076(10) 0.4699(7)
H7 H 0.0963 0.8989 0.4501
C10 C 0.3026(13) 0.9313(13) 0.4696(8)
H8 H 0.3551 0.9388 0.4496
N1 N 0.2227(12) 0.8354(11) 0.3504(6)
N2 N 0.0000 0.5000 0.3717(13)
O1 O 0.1391(11) 0.5479(10) 0.2643(7)
O2 O 0.2787(13) 0.5400(12) 0.2696(10)
O3 O -0.0236(12) 0.5657(9) 0.3458(6)
O4 O 0.0000 0.5000 0.4262(11)
Eu1 Eu 0.0000 0.5000 0.2500
C1I C 0.206(2) 0.5752(15) 0.7205(10)
C2I C 0.2143(15) 0.6667(14) 0.6945(8)
C3I C 0.1432(13) 0.7226(15) 0.6981(7)
H1I H 0.0911 0.7042 0.7152
C4I C 0.1505(13) 0.8064(14) 0.6759(8)
H2I H 0.1027 0.8444 0.6794
C5I C 0.2893(14) 0.6970(16) 0.6692(10)
H3I H 0.3390 0.6614 0.6668
C6I C 0.2901(15) 0.7832(17) 0.6467(8)
H4I H 0.3411 0.8035 0.6290
C7I C 0.2248(12) 0.9229(11) 0.6231(8)
H5I H 0.1738 0.9560 0.6359
H6I H 0.2770 0.9538 0.6361
C8I C 0.2250(12) 0.9202(10) 0.5596(8)
C9I C 0.1487(11) 0.9076(10) 0.5301(7)
H7I H 0.0963 0.8989 0.5499
C10I C 0.3026(13) 0.9313(13) 0.5304(8)
H8I H 0.3551 0.9388 0.5504
N1I N 0.2227(12) 0.8354(11) 0.6496(6)
O1I O 0.1391(11) 0.5479(10) 0.7357(7)
O2I O 0.2787(13) 0.5400(12) 0.7304(10)
O3A O 0.0236(12) 0.4343(9) 0.3458(6)
C1A C -0.206(2) 0.4248(15) 0.2795(10)
C2A C -0.2143(15) 0.3333(14) 0.3055(8)
C3A C -0.1432(13) 0.2774(15) 0.3019(7)
H1A H -0.0911 0.2958 0.2848
C4A C -0.1505(13) 0.1936(14) 0.3241(8)
H2A H -0.1027 0.1556 0.3206
C5A C -0.2893(14) 0.3030(16) 0.3308(10)
H3A H -0.3390 0.3386 0.3332
C6A C -0.2901(15) 0.2168(17) 0.3533(8)
H4A H -0.3411 0.1965 0.3710
C7A C -0.2248(12) 0.0771(11) 0.3769(8)
H5A H -0.1738 0.0440 0.3641
H6A H -0.2770 0.0462 0.3639
C8A C -0.2250(12) 0.0798(10) 0.4404(8)
C9A C -0.1487(11) 0.0924(10) 0.4699(7)
H7A H -0.0963 0.1011 0.4501
C10A C -0.3026(13) 0.0687(13) 0.4696(8)
H8A H -0.3551 0.0612 0.4496
N1A N -0.2227(12) 0.1646(11) 0.3504(6)
O1A O -0.1391(11) 0.4521(10) 0.2643(7)
O2A O -0.2787(13) 0.4600(12) 0.2696(10)
C1H C -0.206(2) 0.4248(15) 0.7205(10)
C2H C -0.2143(15) 0.3333(14) 0.6945(8)
C3H C -0.1432(13) 0.2774(15) 0.6981(7)
H1H H -0.0911 0.2958 0.7152
C4H C -0.1505(13) 0.1936(14) 0.6759(8)
H2H H -0.1027 0.1556 0.6794
C5H C -0.2893(14) 0.3030(16) 0.6692(10)
H3H H -0.3390 0.3386 0.6668
C6H C -0.2901(15) 0.2168(17) 0.6467(8)
H4H H -0.3411 0.1965 0.6290
C7H C -0.2248(12) 0.0771(11) 0.6231(8)
H5H H -0.1738 0.0440 0.6359
H6H H -0.2770 0.0462 0.6361
C8H C -0.2250(12) 0.0798(10) 0.5596(8)
C9H C -0.1487(11) 0.0924(10) 0.5301(7)
H7H H -0.0963 0.1011 0.5499
C10H C -0.3026(13) 0.0687(13) 0.5304(8)
H8H H -0.3551 0.0612 0.5504
N1H N -0.2227(12) 0.1646(11) 0.6496(6)
O1H O -0.1391(11) 0.4521(10) 0.7357(7)
O2H O -0.2787(13) 0.4600(12) 0.7304(10)
N2N N 0.0000 0.5000 0.1283(13)
O3N O 0.0657(9) 0.5236(12) 0.1542(6)
O4N O 0.0000 0.5000 0.0738(11)
O3O O -0.0657(9) 0.4764(12) 0.1542(6)
O1N O 0.0479(10) 0.3609(11) 0.2357(7)
O1O O -0.0479(10) 0.6391(11) 0.2357(7)
Eu1F Eu 0.0000 0.5000 0.7500
O5 O 0.216(4) 0.596(4) 0.5000
O6 O 0.5000 0.5000 0.334(4)
Cl1 Cl 0.0000 1.0000 0.3509(4)
loop_
_geom_bond_atom_site_label_1
_geom_bond_atom_site_label_2
_geom_bond_site_symmetry_1
_geom_bond_site_symmetry_2
C1 C2 1_555 1_555
C2 C3 1_555 1_555
C3 H1 1_555 1_555
C4 C3 1_555 1_555
H2 C4 1_555 1_555
C5 C2 1_555 1_555
H3 C5 1_555 1_555
C6 C5 1_555 1_555
H4 C6 1_555 1_555
C7 H5 1_555 1_555
H6 C7 1_555 1_555
C8 C7 1_555 1_555
C9 C8 1_555 1_555
H7 C9 1_555 1_555
C10 C8 1_555 1_555
H8 C10 1_555 1_555
N1 C4 1_555 1_555
N2 O3 1_555 1_555
O1 C1 1_555 1_555
O2 C1 1_555 1_555
O3 Eu1 1_555 1_555
O4 N2 1_555 1_555
Eu1 O1 1_555 1_555
C1I C2I 1_555 1_555
C2I C3I 1_555 1_555
C3I H1I 1_555 1_555
C4I C3I 1_555 1_555
H2I C4I 1_555 1_555
C5I C2I 1_555 1_555
H3I C5I 1_555 1_555
C6I C5I 1_555 1_555
H4I C6I 1_555 1_555
C7I H5I 1_555 1_555
H6I C7I 1_555 1_555
C8I C7I 1_555 1_555
C9I C9 1_555 1_555
H7I C9I 1_555 1_555
C10I C10 1_555 1_555
H8I C10I 1_555 1_555
N1I C4I 1_555 1_555
O1I C1I 1_555 1_555
O2I C1I 1_555 1_555
O3A N2 1_555 1_555
C1A C2A 1_555 1_555
C2A C3A 1_555 1_555
C3A H1A 1_555 1_555
C4A C3A 1_555 1_555
H2A C4A 1_555 1_555
C5A C2A 1_555 1_555
H3A C5A 1_555 1_555
C6A C5A 1_555 1_555
H4A C6A 1_555 1_555
C7A H5A 1_555 1_555
H6A C7A 1_555 1_555
C8A C7A 1_555 1_555
C9A C8A 1_555 1_555
H7A C9A 1_555 1_555
C10A C8A 1_555 1_555
H8A C10A 1_555 1_555
N1A C4A 1_555 1_555
O1A Eu1 1_555 1_555
O2A C1A 1_555 1_555
C1H C2H 1_555 1_555
C2H C3H 1_555 1_555
C3H H1H 1_555 1_555
C4H C3H 1_555 1_555
H2H C4H 1_555 1_555
C5H C2H 1_555 1_555
H3H C5H 1_555 1_555
C6H C5H 1_555 1_555
H4H C6H 1_555 1_555
C7H H5H 1_555 1_555
H6H C7H 1_555 1_555
C8H C7H 1_555 1_555
C9H C9A 1_555 1_555
H7H C9H 1_555 1_555
C10H C10A 1_555 1_555
H8H C10H 1_555 1_555
N1H C4H 1_555 1_555
O1H C1H 1_555 1_555
O2H C1H 1_555 1_555
N2N O3N 1_555 1_555
O3N Eu1 1_555 1_555
O4N N2N 1_555 1_555
O3O Eu1 1_555 1_555
O1N Eu1 1_555 1_555
O1O Eu1 1_555 1_555
Eu1F O1I 1_555 1_555
C6 N1 1_555 1_555
C7 N1 1_555 1_555
Eu1 O3A 1_555 1_555
C6I N1I 1_555 1_555
C7I N1I 1_555 1_555
C8I C9I 1_555 1_555
C8I C10I 1_555 1_555
C1A O1A 1_555 1_555
C6A N1A 1_555 1_555
C7A N1A 1_555 1_555
C6H N1H 1_555 1_555
C7H N1H 1_555 1_555
C8H C9H 1_555 1_555
C8H C10H 1_555 1_555
O1H Eu1F 1_555 1_555
N2N O3O 1_555 1_555

#END
