
#######################################################################
#
#                 Cambridge Crystallographic Data Centre
#                                CCDC 
#
#######################################################################
#
# If this CIF has been generated from an entry in the Cambridge 
# Structural Database, then it will include bibliographic, chemical, 
# crystal, experimental, refinement or atomic coordinate data resulting 
# from the CCDC's data processing and validation procedures.
#
#######################################################################

data_JONGOK
_symmetry_cell_setting           tetragonal
_symmetry_space_group_name_H-M   'I 4/m'
_symmetry_Int_Tables_number      87
_space_group_name_Hall           '-I 4'
loop_
_symmetry_equiv_pos_site_id
_symmetry_equiv_pos_as_xyz
1 x,y,z
2 -x,-y,z
3 -y,x,z
4 y,-x,z
5 1/2+x,1/2+y,1/2+z
6 1/2-x,1/2-y,1/2+z
7 1/2-y,1/2+x,1/2+z
8 1/2+y,1/2-x,1/2+z
9 -x,-y,-z
10 x,y,-z
11 y,-x,-z
12 -y,x,-z
13 1/2-x,1/2-y,1/2-z
14 1/2+x,1/2+y,1/2-z
15 1/2+y,1/2-x,1/2-z
16 1/2-y,1/2+x,1/2-z
_cell_length_a                   15.160(5)
_cell_length_b                   15.160(5)
_cell_length_c                   23.388(5)
_cell_angle_alpha                90
_cell_angle_beta                 90
_cell_angle_gamma                90
_cell_volume                     5375.16
loop_
_atom_site_label
_atom_site_type_symbol
_atom_site_fract_x
_atom_site_fract_y
_atom_site_fract_z
Tb1 Tb 0.5000 0.0000 0.2500
N1 N 0.7239(5) 0.3345(6) 0.3499(4)
C1 C 0.7133(7) 0.1669(7) 0.3055(4)
C2 C 0.7258(7) 0.4187(6) 0.4407(4)
C3 C 0.7272(7) 0.4233(7) 0.3767(5)
H1 H 0.6771 0.4577 0.3636
H2 H 0.7804 0.4533 0.3644
O1 O 0.4768(7) 0.0667(6) 0.3453(4)
C4 C 0.6500(7) 0.3059(8) 0.3249(5)
H3 H 0.6019 0.3437 0.3222
C5 C 0.6432(7) 0.2220(7) 0.3029(4)
H4 H 0.5907 0.2032 0.2864
C6 C 0.6483(7) 0.4075(6) 0.4701(4)
H5 H 0.5957 0.3999 0.4502
O2 O 0.7791(9) 0.0393(9) 0.2698(8)
C7 C 0.7089(10) 0.0738(8) 0.2785(6)
C8 C 0.7916(8) 0.2839(8) 0.3511(6)
H6 H 0.8442 0.3051 0.3663
N2 N 0.5000 0.0000 0.3725(9)
C9 C 0.8037(8) 0.4287(9) 0.4704(5)
H7 H 0.8564 0.4355 0.4506
C10 C 0.7882(8) 0.1977(10) 0.3301(6)
H8 H 0.8374 0.1614 0.3330
O3 O 0.6400(6) 0.0481(6) 0.2647(4)
O4 O 0.5000 0.0000 0.4244(10)
N1I N 0.7239(5) 0.3345(6) 0.6501(4)
C1I C 0.7133(7) 0.1669(7) 0.6945(4)
C2I C 0.7258(7) 0.4187(6) 0.5593(4)
C3I C 0.7272(7) 0.4233(7) 0.6233(5)
H1I H 0.6771 0.4577 0.6364
H2I H 0.7804 0.4533 0.6356
C4I C 0.6500(7) 0.3059(8) 0.6751(5)
H3I H 0.6019 0.3437 0.6778
C5I C 0.6432(7) 0.2220(7) 0.6971(4)
H4I H 0.5907 0.2032 0.7136
C6I C 0.6483(7) 0.4075(6) 0.5299(4)
H5I H 0.5957 0.3999 0.5498
O2I O 0.7791(9) 0.0393(9) 0.7302(8)
C7I C 0.7089(10) 0.0738(8) 0.7215(6)
C8I C 0.7916(8) 0.2839(8) 0.6489(6)
H6I H 0.8442 0.3051 0.6337
C9I C 0.8037(8) 0.4287(9) 0.5296(5)
H7I H 0.8564 0.4355 0.5494
C10I C 0.7882(8) 0.1977(10) 0.6699(6)
H8I H 0.8374 0.1614 0.6670
O3I O 0.6400(6) 0.0481(6) 0.7353(4)
O1A O 0.5232(7) -0.0667(6) 0.3453(4)
N1A N 0.2761(5) -0.3345(6) 0.3499(4)
C1A C 0.2867(7) -0.1669(7) 0.3055(4)
C2A C 0.2742(7) -0.4187(6) 0.4407(4)
C3A C 0.2728(7) -0.4233(7) 0.3767(5)
H1A H 0.3229 -0.4577 0.3636
H2A H 0.2196 -0.4533 0.3644
C4A C 0.3500(7) -0.3059(8) 0.3249(5)
H3A H 0.3981 -0.3437 0.3222
C5A C 0.3568(7) -0.2220(7) 0.3029(4)
H4A H 0.4093 -0.2032 0.2864
C6A C 0.3517(7) -0.4075(6) 0.4701(4)
H5A H 0.4043 -0.3999 0.4502
O2A O 0.2209(9) -0.0393(9) 0.2698(8)
C7A C 0.2911(10) -0.0738(8) 0.2785(6)
C8A C 0.2084(8) -0.2839(8) 0.3511(6)
H6A H 0.1558 -0.3051 0.3663
C9A C 0.1963(8) -0.4287(9) 0.4704(5)
H7A H 0.1436 -0.4355 0.4506
C10A C 0.2118(8) -0.1977(10) 0.3301(6)
H8A H 0.1626 -0.1614 0.3330
O3A O 0.3600(6) -0.0481(6) 0.2647(4)
N1H N 0.2761(5) -0.3345(6) 0.6501(4)
C1H C 0.2867(7) -0.1669(7) 0.6945(4)
C2H C 0.2742(7) -0.4187(6) 0.5593(4)
C3H C 0.2728(7) -0.4233(7) 0.6233(5)
H1H H 0.3229 -0.4577 0.6364
H2H H 0.2196 -0.4533 0.6356
C4H C 0.3500(7) -0.3059(8) 0.6751(5)
H3H H 0.3981 -0.3437 0.6778
C5H C 0.3568(7) -0.2220(7) 0.6971(4)
H4H H 0.4093 -0.2032 0.7136
C6H C 0.3517(7) -0.4075(6) 0.5299(4)
H5H H 0.4043 -0.3999 0.5498
O2H O 0.2209(9) -0.0393(9) 0.7302(8)
C7H C 0.2911(10) -0.0738(8) 0.7215(6)
C8H C 0.2084(8) -0.2839(8) 0.6489(6)
H6H H 0.1558 -0.3051 0.6337
C9H C 0.1963(8) -0.4287(9) 0.5296(5)
H7H H 0.1436 -0.4355 0.5494
C10H C 0.2118(8) -0.1977(10) 0.6699(6)
H8H H 0.1626 -0.1614 0.6670
O3H O 0.3600(6) -0.0481(6) 0.7353(4)
O1N O 0.5667(6) 0.0232(7) 0.1547(4)
N2N N 0.5000 0.0000 0.1275(9)
O4N O 0.5000 0.0000 0.0756(10)
O1O O 0.4333(6) -0.0232(7) 0.1547(4)
Tb1F Tb 0.5000 0.0000 0.7500
O3N O 0.5481(6) -0.1400(6) 0.2353(4)
O3O O 0.4519(6) 0.1400(6) 0.2353(4)
Cl1 Cl 0.5000 0.5000 0.3515(3)
O5 O 1.0000 0.0000 0.337(3)
O6 O 0.716(3) 0.104(3) 0.5000
loop_
_geom_bond_atom_site_label_1
_geom_bond_atom_site_label_2
_geom_bond_site_symmetry_1
_geom_bond_site_symmetry_2
Tb1 O1 1_555 1_555
N1 C3 1_555 1_555
C1 C5 1_555 1_555
C2 C3 1_555 1_555
C3 H1 1_555 1_555
H2 C3 1_555 1_555
O1 N2 1_555 1_555
C4 N1 1_555 1_555
H3 C4 1_555 1_555
C5 C4 1_555 1_555
H4 C5 1_555 1_555
C6 C2 1_555 1_555
H5 C6 1_555 1_555
O2 C7 1_555 1_555
C7 C1 1_555 1_555
C8 N1 1_555 1_555
H6 C8 1_555 1_555
N2 O4 1_555 1_555
C9 C2 1_555 1_555
H7 C9 1_555 1_555
C10 C1 1_555 1_555
H8 C10 1_555 1_555
O3 Tb1 1_555 1_555
N1I C3I 1_555 1_555
C1I C5I 1_555 1_555
C2I C3I 1_555 1_555
C3I H1I 1_555 1_555
H2I C3I 1_555 1_555
C4I N1I 1_555 1_555
H3I C4I 1_555 1_555
C5I C4I 1_555 1_555
H4I C5I 1_555 1_555
C6I C6 1_555 1_555
H5I C6I 1_555 1_555
O2I C7I 1_555 1_555
C7I C1I 1_555 1_555
C8I N1I 1_555 1_555
H6I C8I 1_555 1_555
C9I C9 1_555 1_555
H7I C9I 1_555 1_555
C10I C1I 1_555 1_555
H8I C10I 1_555 1_555
O3I C7I 1_555 1_555
O1A Tb1 1_555 1_555
N1A C3A 1_555 1_555
C1A C5A 1_555 1_555
C2A C3A 1_555 1_555
C3A H1A 1_555 1_555
H2A C3A 1_555 1_555
C4A N1A 1_555 1_555
H3A C4A 1_555 1_555
C5A C4A 1_555 1_555
H4A C5A 1_555 1_555
C6A C2A 1_555 1_555
H5A C6A 1_555 1_555
O2A C7A 1_555 1_555
C7A C1A 1_555 1_555
C8A N1A 1_555 1_555
H6A C8A 1_555 1_555
C9A C2A 1_555 1_555
H7A C9A 1_555 1_555
C10A C1A 1_555 1_555
H8A C10A 1_555 1_555
O3A Tb1 1_555 1_555
N1H C3H 1_555 1_555
C1H C5H 1_555 1_555
C2H C3H 1_555 1_555
C3H H1H 1_555 1_555
H2H C3H 1_555 1_555
C4H N1H 1_555 1_555
H3H C4H 1_555 1_555
C5H C4H 1_555 1_555
H4H C5H 1_555 1_555
C6H C6A 1_555 1_555
H5H C6H 1_555 1_555
O2H C7H 1_555 1_555
C7H C1H 1_555 1_555
C8H N1H 1_555 1_555
H6H C8H 1_555 1_555
C9H C9A 1_555 1_555
H7H C9H 1_555 1_555
C10H C1H 1_555 1_555
H8H C10H 1_555 1_555
O3H C7H 1_555 1_555
O1N Tb1 1_555 1_555
N2N O1N 1_555 1_555
O4N N2N 1_555 1_555
O1O Tb1 1_555 1_555
Tb1F O3I 1_555 1_555
O3N Tb1 1_555 1_555
O3O Tb1 1_555 1_555
C7 O3 1_555 1_555
C8 C10 1_555 1_555
N2 O1A 1_555 1_555
C2I C6I 1_555 1_555
C2I C9I 1_555 1_555
C8I C10I 1_555 1_555
C7A O3A 1_555 1_555
C8A C10A 1_555 1_555
C2H C6H 1_555 1_555
C2H C9H 1_555 1_555
C8H C10H 1_555 1_555
O3H Tb1F 1_555 1_555
N2N O1O 1_555 1_555

#END
