
#######################################################################
#
#                 Cambridge Crystallographic Data Centre
#                                CCDC 
#
#######################################################################
#
# If this CIF has been generated from an entry in the Cambridge 
# Structural Database, then it will include bibliographic, chemical, 
# crystal, experimental, refinement or atomic coordinate data resulting 
# from the CCDC's data processing and validation procedures.
#
#######################################################################

data_JONJED
_symmetry_cell_setting           triclinic
_symmetry_space_group_name_H-M   'P -1'
_symmetry_Int_Tables_number      2
_space_group_name_Hall           '-P 1'
loop_
_symmetry_equiv_pos_site_id
_symmetry_equiv_pos_as_xyz
1 x,y,z
2 -x,-y,-z
_cell_length_a                   11.4696(4)
_cell_length_b                   11.6432(5)
_cell_length_c                   13.4883(5)
_cell_angle_alpha                84.488(2)
_cell_angle_beta                 82.801(2)
_cell_angle_gamma                61.108(2)
_cell_volume                     1563.33
loop_
_atom_site_label
_atom_site_type_symbol
_atom_site_fract_x
_atom_site_fract_y
_atom_site_fract_z
Ni1 Ni 0.85439(4) 0.03498(4) 0.47877(3)
Ni2 Ni 0.35826(4) 0.51640(4) 0.04573(3)
O1 O 0.4518(2) 0.6285(2) 0.01920(18)
O2 O 0.9849(2) 0.1052(2) 0.43773(16)
N1 N 0.2617(3) 0.4052(3) 0.0375(2)
N2 N 0.2831(3) 0.5817(3) -0.0883(2)
N3 N 0.4177(3) 0.4485(3) 0.1850(3)
N4 N 0.5117(4) 0.3847(4) 0.3470(3)
N5 N 0.7082(3) 0.1798(3) 0.3936(2)
N6 N 0.1805(3) 0.6604(3) 0.1184(2)
N7 N -0.0095(4) 0.7327(4) 0.2478(3)
N8 N 0.7755(3) 0.1633(3) 0.5904(2)
N9 N 0.7198(3) -0.0219(3) 0.5544(2)
N10 N -0.0851(3) 0.9055(3) 0.3663(2)
C1 C 0.2385(4) 0.3329(4) 0.1115(3)
H1 H 0.2739 0.3229 0.1721
C2 C 0.1624(5) 0.2715(4) 0.1008(4)
H2 H 0.1484 0.2204 0.1535
C3 C 0.1092(4) 0.2866(4) 0.0135(4)
H3 H 0.0570 0.2475 0.0058
C4 C 0.1333(4) 0.3604(4) -0.0638(3)
H4 H 0.0990 0.3709 -0.1249
C5 C 0.2096(4) 0.4189(4) -0.0490(3)
C6 C 0.2385(4) 0.5002(4) -0.1318(3)
H5 H 0.1555 0.5582 -0.1627
C7 C 0.3413(6) 0.4159(5) -0.2108(4)
H6 H 0.3441 0.4701 -0.2684
H7 H 0.3180 0.3525 -0.2294
H8 H 0.4274 0.3712 -0.1851
C8 C 0.2527(4) 0.6953(4) -0.1271(3)
H9 H 0.1994 0.7238 -0.1802
C9 C 0.2948(4) 0.7848(4) -0.0951(3)
C10 C 0.2407(4) 0.9119(4) -0.1405(3)
H10 H 0.1781 0.9360 -0.1866
C11 C 0.2785(5) 1.0004(4) -0.1183(4)
H11 H 0.2418 1.0839 -0.1490
C12 C 0.3713(4) 0.9652(4) -0.0501(3)
H12 H 0.3967 1.0257 -0.0348
C13 C 0.4266(4) 0.8427(4) -0.0046(3)
H13 H 0.4887 0.8222 0.0413
C14 C 0.3927(4) 0.7462(4) -0.0248(3)
C15 C 0.4668(4) 0.4124(4) 0.2585(3)
C16 C 0.6194(4) 0.2730(4) 0.3673(3)
C17 C 0.0944(4) 0.6983(4) 0.1805(3)
C18 C 0.6913(4) -0.1114(4) 0.5258(3)
H14 H 0.7319 -0.1512 0.4654
C19 C 0.6051(5) -0.1472(5) 0.5815(4)
H15 H 0.5883 -0.2107 0.5596
C20 C 0.5440(5) -0.0883(5) 0.6698(4)
H16 H 0.4846 -0.1106 0.7088
C21 C 0.5717(5) 0.0043(5) 0.6999(4)
H17 H 0.5311 0.0456 0.7598
C22 C 0.6604(4) 0.0360(4) 0.6407(3)
C23 C 0.6987(5) 0.1325(4) 0.6731(3)
H18 H 0.6181 0.2129 0.6941
C24 C 0.7926(7) 0.0690(6) 0.7639(3)
H19 H 0.8775 -0.0009 0.7399
H20 H 0.7505 0.0350 0.8155
H21 H 0.8057 0.1351 0.7904
C25 C 0.7698(4) 0.2752(4) 0.5832(3)
H22 H 0.7141 0.3350 0.6312
C26 C 0.8429(4) 0.3185(4) 0.5062(3)
C27 C 0.8091(5) 0.4515(4) 0.5017(4)
H23 H 0.7401 0.5079 0.5458
C28 C 0.8747(5) 0.5009(5) 0.4342(4)
H24 H 0.8513 0.5894 0.4332
C29 C 0.9752(5) 0.4189(5) 0.3679(4)
H25 H 1.0196 0.4518 0.3212
C30 C 1.0104(4) 0.2875(4) 0.3707(3)
H26 H 1.0793 0.2333 0.3256
C31 C 0.9466(4) 0.2321(4) 0.4388(3)
C32 C -0.0441(4) 0.8261(4) 0.3096(3)
Ni1_2 Ni -0.14561(4) 1.03498(4) 0.47877(3)
Ni1A Ni 1.14561(4) -0.03498(4) 0.52123(3)
Ni2A Ni 0.64174(4) 0.48360(4) -0.04573(3)
O1A O 0.5482(2) 0.3715(2) -0.01920(18)
O2A O 1.0151(2) -0.1052(2) 0.56227(16)
N10_2 N 0.9149(3) -0.0945(3) 0.3663(2)
loop_
_geom_bond_atom_site_label_1
_geom_bond_atom_site_label_2
_geom_bond_site_symmetry_1
_geom_bond_site_symmetry_2
Ni1 O2 1_555 1_555
Ni2 O1 1_555 1_555
O1 C14 1_555 1_555
O2 C31 1_555 1_555
N1 Ni2 1_555 1_555
N2 Ni2 1_555 1_555
N3 Ni2 1_555 1_555
N4 C15 1_555 1_555
N5 Ni1 1_555 1_555
N6 Ni2 1_555 1_555
N7 C17 1_555 1_555
N8 Ni1 1_555 1_555
N9 Ni1 1_555 1_555
N10 C32 1_555 1_555
C1 N1 1_555 1_555
H1 C1 1_555 1_555
C2 C1 1_555 1_555
H2 C2 1_555 1_555
C3 C2 1_555 1_555
H3 C3 1_555 1_555
C4 C3 1_555 1_555
H4 C4 1_555 1_555
C5 N1 1_555 1_555
C6 N2 1_555 1_555
H5 C6 1_555 1_555
C7 C6 1_555 1_555
H6 C7 1_555 1_555
H7 C7 1_555 1_555
H8 C7 1_555 1_555
C8 N2 1_555 1_555
H9 C8 1_555 1_555
C9 C8 1_555 1_555
C10 C9 1_555 1_555
H10 C10 1_555 1_555
C11 C10 1_555 1_555
H11 C11 1_555 1_555
C12 C11 1_555 1_555
H12 C12 1_555 1_555
C13 C12 1_555 1_555
H13 C13 1_555 1_555
C14 C9 1_555 1_555
C15 N3 1_555 1_555
C16 N4 1_555 1_555
C17 N6 1_555 1_555
C18 N9 1_555 1_555
H14 C18 1_555 1_555
C19 C18 1_555 1_555
H15 C19 1_555 1_555
C20 C19 1_555 1_555
H16 C20 1_555 1_555
C21 C20 1_555 1_555
H17 C21 1_555 1_555
C22 N9 1_555 1_555
C23 N8 1_555 1_555
H18 C23 1_555 1_555
C24 C23 1_555 1_555
H19 C24 1_555 1_555
H20 C24 1_555 1_555
H21 C24 1_555 1_555
C25 N8 1_555 1_555
H22 C25 1_555 1_555
C26 C25 1_555 1_555
C27 C26 1_555 1_555
H23 C27 1_555 1_555
C28 C27 1_555 1_555
H24 C28 1_555 1_555
C29 C28 1_555 1_555
H25 C29 1_555 1_555
C30 C29 1_555 1_555
H26 C30 1_555 1_555
C31 C26 1_555 1_555
C32 N7 1_555 1_555
Ni1_2 N10 1_555 1_555
Ni1A O2 1_555 1_555
Ni2A O1 1_555 1_555
O1A Ni2 1_555 1_555
O2A Ni1 1_555 1_555
N10_2 Ni1 1_555 1_555
N5 C16 1_555 1_555
C4 C5 1_555 1_555
C5 C6 1_555 1_555
C13 C14 1_555 1_555
C21 C22 1_555 1_555
C22 C23 1_555 1_555
C30 C31 1_555 1_555
Ni1A O2A 1_555 1_555
Ni2A O1A 1_555 1_555

#END
