
#######################################################################
#
#                 Cambridge Crystallographic Data Centre
#                                CCDC 
#
#######################################################################
#
# If this CIF has been generated from an entry in the Cambridge 
# Structural Database, then it will include bibliographic, chemical, 
# crystal, experimental, refinement or atomic coordinate data resulting 
# from the CCDC's data processing and validation procedures.
#
#######################################################################

data_JONJIH
_symmetry_cell_setting           triclinic
_symmetry_space_group_name_H-M   'P -1'
_symmetry_Int_Tables_number      2
_space_group_name_Hall           '-P 1'
loop_
_symmetry_equiv_pos_site_id
_symmetry_equiv_pos_as_xyz
1 x,y,z
2 -x,-y,-z
_cell_length_a                   9.0326(8)
_cell_length_b                   9.2075(12)
_cell_length_c                   17.277(2)
_cell_angle_alpha                102.916(11)
_cell_angle_beta                 91.393(9)
_cell_angle_gamma                111.202(10)
_cell_volume                     1296.96
loop_
_atom_site_label
_atom_site_type_symbol
_atom_site_fract_x
_atom_site_fract_y
_atom_site_fract_z
Mn1 Mn -0.25195(7) 0.47674(8) 0.24770(4)
Mn2 Mn 0.09908(7) 0.49366(7) 0.24511(4)
Mn3 Mn 0.40599(7) 0.45923(7) 0.25126(4)
O1 O -0.0182(3) 0.5789(3) 0.31700(16)
O2 O 0.2920(3) 0.5730(3) 0.31580(16)
O3 O 0.5783(3) 0.5157(3) 0.32894(17)
O4 O -0.0837(3) 0.4164(4) 0.17113(17)
O5 O 0.2294(3) 0.4171(3) 0.17433(16)
O6 O 0.5118(3) 0.3490(3) 0.18302(17)
O7 O 0.0222(3) 0.2606(3) 0.28773(18)
O8 O 0.2614(3) 0.2400(4) 0.29045(19)
O9 O -0.2762(4) 0.2602(4) 0.2902(3)
H1 H -0.197(5) 0.235(9) 0.291(4)
O10 O 0.2293(4) 0.7318(4) 0.2073(2)
H2 H 0.322(3) 0.739(8) 0.201(4)
O11 O 0.5284(3) 0.6941(4) 0.20994(18)
O12 O 0.7744(3) 0.6863(4) 0.2066(2)
C1 C 0.0252(5) 0.6373(6) 0.4005(3)
H3 H -0.0688 0.5953 0.4270
H4 H 0.0592 0.7535 0.4140
C2 C 0.1577(5) 0.5940(6) 0.4332(3)
H5 H 0.1203 0.4778 0.4227
H6 H 0.1759 0.6366 0.4907
C3 C 0.3188(5) 0.6547(5) 0.3994(2)
C4 C 0.4413(6) 0.6103(6) 0.4396(3)
H7 H 0.3924 0.4980 0.4405
H8 H 0.4681 0.6733 0.4947
C5 C 0.5982(5) 0.6355(6) 0.4005(3)
H9 H 0.6361 0.7403 0.3888
H10 H 0.6789 0.6343 0.4381
C6 C 0.3734(6) 0.8356(6) 0.4064(3)
H11 H 0.2915 0.8570 0.3801
H12 H 0.4697 0.8709 0.3816
H13 H 0.3933 0.8924 0.4618
C7 C -0.0848(5) 0.3498(5) 0.0894(3)
H14 H -0.0433 0.4366 0.0630
H15 H -0.1944 0.2864 0.0662
C8 C 0.0137(5) 0.2432(5) 0.0726(3)
H16 H -0.0218 0.1629 0.1032
H17 H -0.0099 0.1868 0.0165
C9 C 0.1957(5) 0.3301(5) 0.0920(2)
C10 C 0.2731(5) 0.2052(5) 0.0821(3)
H18 H 0.2457 0.1405 0.0273
H19 H 0.2272 0.1342 0.1165
C11 C 0.4566(5) 0.2741(6) 0.1015(3)
H20 H 0.4950 0.1876 0.0848
H21 H 0.5026 0.3520 0.0704
C12 C 0.2643(5) 0.4488(5) 0.0399(3)
H22 H 0.2138 0.5257 0.0476
H23 H 0.2445 0.3910 -0.0153
H24 H 0.3774 0.5038 0.0550
C13 C 0.1187(5) 0.1979(5) 0.3045(3)
C14 C 0.0594(6) 0.0603(6) 0.3458(3)
H25 H 0.0223 -0.0403 0.3049
H26 H 0.1497 0.0631 0.3784
C15 C -0.0698(8) 0.0591(7) 0.3968(4)
H27 H -0.0975 -0.0323 0.4194
H28 H -0.1618 0.0528 0.3652
H29 H -0.0339 0.1560 0.4391
C16 C 0.6703(5) 0.7434(5) 0.1938(3)
C17 C 0.7283(5) 0.8867(5) 0.1556(3)
H30 H 0.7948 0.9813 0.1963
H31 H 0.7949 0.8656 0.1149
C18 C 0.5973(5) 0.9246(5) 0.1180(3)
H32 H 0.6447 1.0155 0.0960
H33 H 0.5320 0.9488 0.1580
H34 H 0.5325 0.8332 0.0763
C19 C -0.4023(5) 0.1583(5) 0.3237(3)
H35 H -0.3727 0.0747 0.3355
H36 H -0.4972 0.1111 0.2862
H37 H -0.4222 0.2201 0.3720
C20 C 0.1802(6) 0.8249(6) 0.1658(3)
H38 H 0.2713 0.9169 0.1621
H39 H 0.1041 0.8601 0.1941
H40 H 0.1317 0.7613 0.1131
Mn1_2 Mn 0.74805(7) 0.47674(8) 0.24770(4)
O3_2 O -0.4217(3) 0.5157(3) 0.32894(17)
O6_2 O -0.4882(3) 0.3490(3) 0.18302(17)
O12_2 O -0.2256(3) 0.6863(4) 0.2066(2)
loop_
_geom_bond_atom_site_label_1
_geom_bond_atom_site_label_2
_geom_bond_site_symmetry_1
_geom_bond_site_symmetry_2
Mn1 O1 1_555 1_555
Mn2 O1 1_555 1_555
Mn3 O2 1_555 1_555
O1 C1 1_555 1_555
O2 Mn2 1_555 1_555
O3 Mn3 1_555 1_555
O4 Mn1 1_555 1_555
O5 Mn2 1_555 1_555
O6 Mn3 1_555 1_555
O7 Mn2 1_555 1_555
O8 Mn3 1_555 1_555
O9 Mn1 1_555 1_555
H1 O9 1_555 1_555
O10 Mn2 1_555 1_555
H2 O10 1_555 1_555
O11 Mn3 1_555 1_555
O12 C16 1_555 1_555
C1 H3 1_555 1_555
H4 C1 1_555 1_555
C2 C1 1_555 1_555
H5 C2 1_555 1_555
H6 C2 1_555 1_555
C3 O2 1_555 1_555
C4 C3 1_555 1_555
H7 C4 1_555 1_555
H8 C4 1_555 1_555
C5 O3 1_555 1_555
H9 C5 1_555 1_555
H10 C5 1_555 1_555
C6 C3 1_555 1_555
H11 C6 1_555 1_555
H12 C6 1_555 1_555
H13 C6 1_555 1_555
C7 O4 1_555 1_555
H14 C7 1_555 1_555
H15 C7 1_555 1_555
C8 C7 1_555 1_555
H16 C8 1_555 1_555
H17 C8 1_555 1_555
C9 O5 1_555 1_555
C10 C9 1_555 1_555
H18 C10 1_555 1_555
H19 C10 1_555 1_555
C11 O6 1_555 1_555
H20 C11 1_555 1_555
H21 C11 1_555 1_555
C12 C9 1_555 1_555
H22 C12 1_555 1_555
H23 C12 1_555 1_555
H24 C12 1_555 1_555
C13 O7 1_555 1_555
C14 C13 1_555 1_555
H25 C14 1_555 1_555
H26 C14 1_555 1_555
C15 C14 1_555 1_555
H27 C15 1_555 1_555
H28 C15 1_555 1_555
H29 C15 1_555 1_555
C16 O11 1_555 1_555
C17 C16 1_555 1_555
H30 C17 1_555 1_555
H31 C17 1_555 1_555
C18 C17 1_555 1_555
H32 C18 1_555 1_555
H33 C18 1_555 1_555
H34 C18 1_555 1_555
C19 O9 1_555 1_555
H35 C19 1_555 1_555
H36 C19 1_555 1_555
H37 C19 1_555 1_555
C20 O10 1_555 1_555
H38 C20 1_555 1_555
H39 C20 1_555 1_555
H40 C20 1_555 1_555
Mn1_2 O3 1_555 1_555
O3_2 Mn1 1_555 1_555
O6_2 Mn1 1_555 1_555
O12_2 Mn1 1_555 1_555
Mn2 O4 1_555 1_555
Mn3 O5 1_555 1_555
O6 Mn1_2 1_555 1_555
O8 C13 1_555 1_555
O12 Mn1_2 1_555 1_555
C2 C3 1_555 1_555
C4 C5 1_555 1_555
C8 C9 1_555 1_555
C10 C11 1_555 1_555

#END
