
#######################################################################
#
#                 Cambridge Crystallographic Data Centre
#                                CCDC 
#
#######################################################################
#
# If this CIF has been generated from an entry in the Cambridge 
# Structural Database, then it will include bibliographic, chemical, 
# crystal, experimental, refinement or atomic coordinate data resulting 
# from the CCDC's data processing and validation procedures.
#
#######################################################################

data_JONKEE
_symmetry_cell_setting           cubic
_symmetry_space_group_name_H-M   'F d -3 c'
_symmetry_Int_Tables_number      228
_space_group_name_Hall           '-F 4ud 2vw 3'
loop_
_symmetry_equiv_pos_site_id
_symmetry_equiv_pos_as_xyz
1 x,y,z
2 -y,1/4+x,3/4+z
3 3/4-x,1/4-y,1/2+z
4 3/4+y,-x,1/4+z
5 x,1/4-y,1/4-z
6 3/4+y,1/4+x,-z
7 3/4-x,y,3/4-z
8 -y,-x,1/2-z
9 z,x,y
10 -x,1/4+z,3/4+y
11 3/4-z,1/4-x,1/2+y
12 3/4+x,-z,1/4+y
13 z,1/4-x,1/4-y
14 3/4+x,1/4+z,-y
15 3/4-z,x,3/4-y
16 -x,-z,1/2-y
17 y,z,x
18 1/2-z,-y,-x
19 -z,3/4+y,1/4+x
20 1/4+z,3/4+y,-x
21 3/4+z,-y,1/4+x
22 y,3/4-z,3/4-x
23 1/4-y,1/4-z,x
24 1/4-y,1/2+z,3/4-x
25 x,1/2+y,1/2+z
26 -y,3/4+x,1/4+z
27 3/4-x,3/4-y,z
28 3/4+y,1/2-x,3/4+z
29 x,3/4-y,3/4-z
30 3/4+y,3/4+x,1/2-z
31 3/4-x,1/2+y,1/4-z
32 -y,1/2-x,-z
33 z,1/2+x,1/2+y
34 -x,3/4+z,1/4+y
35 3/4-z,3/4-x,y
36 3/4+x,1/2-z,3/4+y
37 z,3/4-x,3/4-y
38 3/4+x,3/4+z,1/2-y
39 3/4-z,1/2+x,1/4-y
40 -x,1/2-z,-y
41 y,1/2+z,1/2+x
42 1/2-z,1/2-y,1/2-x
43 -z,1/4+y,3/4+x
44 1/4+z,1/4+y,1/2-x
45 3/4+z,1/2-y,3/4+x
46 y,1/4-z,1/4-x
47 1/4-y,3/4-z,1/2+x
48 1/4-y,z,1/4-x
49 1/2+x,y,1/2+z
50 1/2-y,1/4+x,1/4+z
51 1/4-x,1/4-y,z
52 1/4+y,-x,3/4+z
53 1/2+x,1/4-y,3/4-z
54 1/4+y,1/4+x,1/2-z
55 1/4-x,y,1/4-z
56 1/2-y,-x,-z
57 1/2+z,x,1/2+y
58 1/2-x,1/4+z,1/4+y
59 1/4-z,1/4-x,y
60 1/4+x,-z,3/4+y
61 1/2+z,1/4-x,3/4-y
62 1/4+x,1/4+z,1/2-y
63 1/4-z,x,1/4-y
64 1/2-x,-z,-y
65 1/2+y,z,1/2+x
66 -z,-y,1/2-x
67 1/2-z,3/4+y,3/4+x
68 3/4+z,3/4+y,1/2-x
69 1/4+z,-y,3/4+x
70 1/2+y,3/4-z,1/4-x
71 3/4-y,1/4-z,1/2+x
72 3/4-y,1/2+z,1/4-x
73 1/2+x,1/2+y,z
74 1/2-y,3/4+x,3/4+z
75 1/4-x,3/4-y,1/2+z
76 1/4+y,1/2-x,1/4+z
77 1/2+x,3/4-y,1/4-z
78 1/4+y,3/4+x,-z
79 1/4-x,1/2+y,3/4-z
80 1/2-y,1/2-x,1/2-z
81 1/2+z,1/2+x,y
82 1/2-x,3/4+z,3/4+y
83 1/4-z,3/4-x,1/2+y
84 1/4+x,1/2-z,1/4+y
85 1/2+z,3/4-x,1/4-y
86 1/4+x,3/4+z,-y
87 1/4-z,1/2+x,3/4-y
88 1/2-x,1/2-z,1/2-y
89 1/2+y,1/2+z,x
90 -z,1/2-y,-x
91 1/2-z,1/4+y,1/4+x
92 3/4+z,1/4+y,-x
93 1/4+z,1/2-y,1/4+x
94 1/2+y,1/4-z,3/4-x
95 3/4-y,3/4-z,x
96 3/4-y,z,3/4-x
97 -x,-y,-z
98 y,3/4-x,1/4-z
99 1/4+x,3/4+y,1/2-z
100 1/4-y,x,3/4-z
101 -x,3/4+y,3/4+z
102 1/4-y,3/4-x,z
103 1/4+x,-y,1/4+z
104 y,x,1/2+z
105 -z,-x,-y
106 x,3/4-z,1/4-y
107 1/4+z,3/4+x,1/2-y
108 1/4-x,z,3/4-y
109 -z,3/4+x,3/4+y
110 1/4-x,3/4-z,y
111 1/4+z,-x,1/4+y
112 x,z,1/2+y
113 -y,-z,-x
114 1/2+z,y,x
115 z,1/4-y,3/4-x
116 3/4-z,1/4-y,x
117 1/4-z,y,3/4-x
118 -y,1/4+z,1/4+x
119 3/4+y,3/4+z,-x
120 3/4+y,1/2-z,1/4+x
121 -x,1/2-y,1/2-z
122 y,1/4-x,3/4-z
123 1/4+x,1/4+y,-z
124 1/4-y,1/2+x,1/4-z
125 -x,1/4+y,1/4+z
126 1/4-y,1/4-x,1/2+z
127 1/4+x,1/2-y,3/4+z
128 y,1/2+x,z
129 -z,1/2-x,1/2-y
130 x,1/4-z,3/4-y
131 1/4+z,1/4+x,-y
132 1/4-x,1/2+z,1/4-y
133 -z,1/4+x,1/4+y
134 1/4-x,1/4-z,1/2+y
135 1/4+z,1/2-x,3/4+y
136 x,1/2+z,y
137 -y,1/2-z,1/2-x
138 1/2+z,1/2+y,1/2+x
139 z,3/4-y,1/4-x
140 3/4-z,3/4-y,1/2+x
141 1/4-z,1/2+y,1/4-x
142 -y,3/4+z,3/4+x
143 3/4+y,1/4+z,1/2-x
144 3/4+y,-z,3/4+x
145 1/2-x,-y,1/2-z
146 1/2+y,3/4-x,3/4-z
147 3/4+x,3/4+y,-z
148 3/4-y,x,1/4-z
149 1/2-x,3/4+y,1/4+z
150 3/4-y,3/4-x,1/2+z
151 3/4+x,-y,3/4+z
152 1/2+y,x,z
153 1/2-z,-x,1/2-y
154 1/2+x,3/4-z,3/4-y
155 3/4+z,3/4+x,-y
156 3/4-x,z,1/4-y
157 1/2-z,3/4+x,1/4+y
158 3/4-x,3/4-z,1/2+y
159 3/4+z,-x,3/4+y
160 1/2+x,z,y
161 1/2-y,-z,1/2-x
162 z,y,1/2+x
163 1/2+z,1/4-y,1/4-x
164 1/4-z,1/4-y,1/2+x
165 3/4-z,y,1/4-x
166 1/2-y,1/4+z,3/4+x
167 1/4+y,3/4+z,1/2-x
168 1/4+y,1/2-z,3/4+x
169 1/2-x,1/2-y,-z
170 1/2+y,1/4-x,1/4-z
171 3/4+x,1/4+y,1/2-z
172 3/4-y,1/2+x,3/4-z
173 1/2-x,1/4+y,3/4+z
174 3/4-y,1/4-x,z
175 3/4+x,1/2-y,1/4+z
176 1/2+y,1/2+x,1/2+z
177 1/2-z,1/2-x,-y
178 1/2+x,1/4-z,1/4-y
179 3/4+z,1/4+x,1/2-y
180 3/4-x,1/2+z,3/4-y
181 1/2-z,1/4+x,3/4+y
182 3/4-x,1/4-z,y
183 3/4+z,1/2-x,1/4+y
184 1/2+x,1/2+z,1/2+y
185 1/2-y,1/2-z,-x
186 z,1/2+y,x
187 1/2+z,3/4-y,3/4-x
188 1/4-z,3/4-y,x
189 3/4-z,1/2+y,3/4-x
190 1/2-y,3/4+z,1/4+x
191 1/4+y,1/4+z,-x
192 1/4+y,-z,1/4+x
_cell_length_a                   47.0072(3)
_cell_length_b                   47.0072(3)
_cell_length_c                   47.0072(3)
_cell_angle_alpha                90
_cell_angle_beta                 90
_cell_angle_gamma                90
_cell_volume                     103871
loop_
_atom_site_label
_atom_site_type_symbol
_atom_site_fract_x
_atom_site_fract_y
_atom_site_fract_z
Cu1 Cu 0.376693(9) 0.412797(9) 0.529505(9)
Cu2 Cu 0.350037(9) 0.475430(9) 0.557950(9)
N1 N 0.35846(5) 0.47281(5) 0.51647(5)
N2 N 0.37086(5) 0.44880(5) 0.50452(5)
N3 N 0.39342(5) 0.42807(5) 0.56541(5)
N4 N 0.38591(5) 0.45514(5) 0.57553(5)
N5 N 0.35839(5) 0.51677(6) 0.40799(5)
N6 N 0.38795(5) 0.51573(5) 0.40967(5)
C1 C 0.34820(7) 0.50436(7) 0.43064(6)
H1 H 0.3290 0.5019 0.4348
N7 N 0.37040(6) 0.49569(6) 0.44704(5)
C2 C 0.37679(7) 0.45450(7) 0.47806(6)
H2 H 0.3852 0.4421 0.4651
N8 N 0.48153(5) 0.43822(5) 0.64324(5)
N9 N 0.44046(5) 0.43652(5) 0.62232(5)
N10 N 0.46175(5) 0.42572(5) 0.66165(5)
N11 N 0.42011(5) 0.43877(5) 0.60141(5)
C3 C 0.40189(6) 0.46092(6) 0.59725(6)
H3 H 0.4011 0.4774 0.6082
C4 C 0.43733(6) 0.42510(7) 0.64864(7)
H4 H 0.4205 0.4180 0.6562
C5 C 0.41405(7) 0.41872(6) 0.58133(6)
H5 H 0.4232 0.4013 0.5793
C6 C 0.35769(7) 0.49248(7) 0.49719(6)
H6 H 0.3508 0.5109 0.4997
C7 C 0.39464(7) 0.50334(7) 0.43355(6)
H7 H 0.4130 0.5003 0.4402
C8 C 0.46810(6) 0.44479(7) 0.61991(7)
H8 H 0.4761 0.4537 0.6042
N12 N 0.36856(6) 0.48185(6) 0.47271(5)
Cu1P Cu 0.412797(9) 0.529505(9) 0.376693(9)
Cu1QC Cu 0.337203(9) 0.529505(9) 0.373307(9)
Cu2SC Cu 0.475430(9) 0.399963(9) 0.692050(9)
Cu2HD Cu 0.524570(9) 0.442050(9) 0.649963(9)
N5HA N 0.34201(5) 0.39161(5) 0.51677(6)
N6H N 0.40967(5) 0.38795(5) 0.51573(5)
N8ZC N 0.35676(5) 0.51847(5) 0.56178(5)
N10QE N 0.32428(5) 0.46175(5) 0.58835(5)
O1 O 0.43876(6) 0.50030(6) 0.63688(6)
O2 O 0.40570(6) 0.52543(6) 0.61582(7)
O3 O 0.43863(8) 0.54680(7) 0.63891(9)
N13 N 0.42756(7) 0.52413(7) 0.63096(7)
O4 O 0.46133(6) 0.48600(7) 0.44863(7)
N14 N 0.46526(7) 0.46526(7) 0.46526(7)
O4H O 0.44863(7) 0.46133(6) 0.48600(7)
O4P O 0.48600(7) 0.44863(7) 0.46133(6)
O5 O 0.41488(9) 0.40831(8) 0.44381(7)
N15 N 0.42257(9) 0.42257(9) 0.42257(9)
O5H O 0.44381(7) 0.41488(9) 0.40831(8)
O5P O 0.40831(8) 0.44381(7) 0.41488(9)
N16 N 0.29001(12) 0.45999(12) 0.45999(12)
O6 O 0.28644(10) 0.47647(11) 0.44068(11)
O6HA O 0.30932(11) 0.46356(10) 0.47647(11)
O6QC O 0.27353(11) 0.44068(11) 0.46356(10)
loop_
_geom_bond_atom_site_label_1
_geom_bond_atom_site_label_2
_geom_bond_site_symmetry_1
_geom_bond_site_symmetry_2
Cu1 N2 1_555 1_555
Cu2 N1 1_555 1_555
N1 N2 1_555 1_555
N2 C2 1_555 1_555
N3 Cu1 1_555 1_555
N4 Cu2 1_555 1_555
N5 N6 1_555 1_555
N6 C7 1_555 1_555
C1 N5 1_555 1_555
H1 C1 1_555 1_555
N7 C1 1_555 1_555
C2 H2 1_555 1_555
N8 N10 1_555 1_555
N9 N11 1_555 1_555
N10 C4 1_555 1_555
N11 C3 1_555 1_555
C3 N4 1_555 1_555
H3 C3 1_555 1_555
C4 N9 1_555 1_555
H4 C4 1_555 1_555
C5 N3 1_555 1_555
H5 C5 1_555 1_555
C6 N1 1_555 1_555
H6 C6 1_555 1_555
C7 N7 1_555 1_555
H7 C7 1_555 1_555
C8 N8 1_555 1_555
H8 C8 1_555 1_555
N12 N7 1_555 1_555
O1 N13 1_555 1_555
O2 N13 1_555 1_555
O3 N13 1_555 1_555
O4 N14 1_555 1_555
N14 O4H 1_555 1_555
O5 N15 1_555 1_555
N15 O5H 1_555 1_555
N16 O6 1_555 1_555
Cu1P N6 1_555 1_555
Cu1QC N5 1_555 1_555
Cu2SC N10 1_555 1_555
Cu2HD N8 1_555 1_555
N5HA Cu1 1_555 1_555
N6H Cu1 1_555 1_555
N8ZC Cu2 1_555 1_555
N10QE Cu2 1_555 1_555
O4P N14 1_555 1_555
O5P N15 1_555 1_555
O6HA N16 1_555 1_555
O6QC N16 1_555 1_555
N3 N4 1_555 1_555
C2 N12 1_555 1_555
N9 C8 1_555 1_555
N11 C5 1_555 1_555
C6 N12 1_555 1_555

#END
