
#######################################################################
#
#                 Cambridge Crystallographic Data Centre
#                                CCDC 
#
#######################################################################
#
# If this CIF has been generated from an entry in the Cambridge 
# Structural Database, then it will include bibliographic, chemical, 
# crystal, experimental, refinement or atomic coordinate data resulting 
# from the CCDC's data processing and validation procedures.
#
#######################################################################

data_JOPLUX
_symmetry_cell_setting           triclinic
_symmetry_space_group_name_H-M   'P -1'
_symmetry_Int_Tables_number      2
_space_group_name_Hall           '-P 1'
loop_
_symmetry_equiv_pos_site_id
_symmetry_equiv_pos_as_xyz
1 x,y,z
2 -x,-y,-z
_cell_length_a                   13.0134(6)
_cell_length_b                   14.0376(6)
_cell_length_c                   15.1132(8)
_cell_angle_alpha                108.626(4)
_cell_angle_beta                 98.790(4)
_cell_angle_gamma                95.209(4)
_cell_volume                     2556.62
loop_
_atom_site_label
_atom_site_type_symbol
_atom_site_fract_x
_atom_site_fract_y
_atom_site_fract_z
Cu1 Cu 0.62084(6) 0.28352(6) 0.51785(6)
Cu2 Cu 0.91915(6) 0.21545(7) 0.61576(6)
N1 N 0.6135(4) 0.3540(4) 0.4195(3)
C1 C 0.6036(5) 0.3099(5) 0.3264(4)
H1 H 0.5976 0.2395 0.3014
C2 C 0.6018(5) 0.3650(6) 0.2653(5)
H2 H 0.5961 0.3323 0.2003
C3 C 0.6085(5) 0.4698(6) 0.3021(5)
H3 H 0.6080 0.5083 0.2621
C4 C 0.6161(4) 0.5165(6) 0.3989(5)
H4 H 0.6192 0.5866 0.4249
C5 C 0.6190(4) 0.4567(5) 0.4562(5)
N2 N 0.6329(4) 0.4245(4) 0.6001(4)
C6 C 0.6303(4) 0.4971(5) 0.5602(5)
C7 C 0.6383(5) 0.5980(5) 0.6168(5)
H5 H 0.6345 0.6488 0.5898
C8 C 0.6523(5) 0.6212(5) 0.7144(5)
H6 H 0.6596 0.6886 0.7537
C9 C 0.6553(5) 0.5448(5) 0.7541(5)
H7 H 0.6641 0.5605 0.8196
C10 C 0.6450(4) 0.4437(5) 0.6941(4)
N3 N 0.6554(4) 0.2680(4) 0.6478(3)
C11 C 0.6543(5) 0.3530(5) 0.7214(4)
C12 C 0.6627(5) 0.3514(6) 0.8131(5)
H8 H 0.6595 0.4097 0.8631
C13 C 0.6761(6) 0.2611(7) 0.8291(5)
H9 H 0.6820 0.2586 0.8903
C14 C 0.6807(5) 0.1759(6) 0.7550(5)
H10 H 0.6917 0.1158 0.7661
C15 C 0.6691(5) 0.1790(5) 0.6635(5)
H11 H 0.6705 0.1206 0.6128
N4 N 0.8971(4) 0.3563(4) 0.6135(4)
C16 C 0.8877(5) 0.3875(6) 0.5377(5)
H12 H 0.8818 0.3395 0.4775
C17 C 0.8866(5) 0.4896(5) 0.5458(6)
H13 H 0.8778 0.5086 0.4919
C18 C 0.8984(5) 0.5608(6) 0.6340(6)
H14 H 0.8984 0.6291 0.6408
C19 C 0.9105(5) 0.5308(5) 0.7134(6)
H15 H 0.9200 0.5788 0.7740
C20 C 0.9084(5) 0.4286(5) 0.7015(5)
N5 N 0.9409(4) 0.2895(4) 0.7508(4)
C21 C 0.9233(5) 0.3858(5) 0.7788(5)
C22 C 0.9160(5) 0.4340(6) 0.8733(5)
H16 H 0.9016 0.5004 0.8936
C23 C 0.9305(6) 0.3819(7) 0.9359(5)
H17 H 0.9240 0.4130 0.9987
C24 C 0.9548(6) 0.2825(6) 0.9069(5)
H18 H 0.9677 0.2480 0.9498
C25 C 0.9588(5) 0.2380(5) 0.8112(4)
N6 N 0.9410(4) 0.1000(4) 0.6668(3)
C26 C 0.9724(5) 0.1313(5) 0.7629(4)
C27 C 1.0141(5) 0.0685(6) 0.8073(5)
H19 H 1.0370 0.0917 0.8729
C28 C 1.0219(5) -0.0305(5) 0.7529(5)
H20 H 1.0510 -0.0739 0.7817
C29 C 0.9860(5) -0.0630(5) 0.6563(5)
H21 H 0.9881 -0.1296 0.6190
C30 C 0.9468(5) 0.0042(5) 0.6152(4)
H22 H 0.9237 -0.0177 0.5496
C31 C 0.6276(4) -0.0523(4) 0.3274(4)
H23 H 0.5765 -0.0106 0.3553
C32 C 0.6388(4) -0.1395(4) 0.3669(3)
H24 H 0.5716 -0.1849 0.3491
C33 C 0.7221(4) -0.1979(4) 0.3264(4)
H25 H 0.7895 -0.1529 0.3447
C34 C 0.6904(4) -0.2407(5) 0.2188(4)
H26 H 0.6244 -0.2879 0.2011
C35 C 0.6761(4) -0.1593(5) 0.1762(4)
H27 H 0.7436 -0.1157 0.1885
C36 C 0.5959(4) -0.0952(5) 0.2191(4)
H28 H 0.5267 -0.1373 0.2011
P1 P 0.75650(11) 0.12336(11) 0.41392(10)
O1 O 0.7297(3) 0.0073(3) 0.3483(2)
O2 O 0.8031(3) 0.1789(3) 0.3517(3)
O3 O 0.6571(3) 0.1585(3) 0.4406(3)
O4 O 0.8432(3) 0.1300(3) 0.4937(3)
P2 P 0.62939(11) -0.14890(11) 0.53918(10)
O5 O 0.6670(3) -0.0960(3) 0.4678(2)
O6 O 0.5931(3) -0.0570(3) 0.6099(3)
O7 O 0.7261(3) -0.1757(3) 0.5909(3)
O8 O 0.5446(3) -0.2363(3) 0.4881(3)
P3 P 0.84120(11) -0.30111(12) 0.41014(10)
O9 O 0.7315(3) -0.2810(3) 0.3629(3)
O10 O 0.9260(3) -0.2201(3) 0.4164(3)
O11 O 0.8240(3) -0.3071(3) 0.5071(3)
O12 O 0.8542(3) -0.4098(3) 0.3522(3)
P4 P 0.75416(13) -0.41328(14) 0.11960(12)
O13 O 0.7725(3) -0.2956(3) 0.1828(3)
O14 O 0.6382(4) -0.4516(4) 0.0989(4)
O15 O 0.7955(5) -0.4131(4) 0.0284(3)
O16 O 0.8205(4) -0.4674(4) 0.1713(3)
P5 P 0.70730(15) -0.18463(17) 0.00158(12)
O17 O 0.6389(3) -0.2053(3) 0.0752(3)
O18 O 0.7862(4) -0.2578(5) -0.0157(3)
O19 O 0.7530(4) -0.0740(5) 0.0367(3)
O20 O 0.6216(4) -0.2170(4) -0.0906(3)
P6 P 0.48253(12) 0.01840(13) 0.14431(11)
O21 O 0.5911(3) -0.0126(3) 0.1821(3)
O22 O 0.4227(4) -0.0793(4) 0.0613(3)
O23 O 0.5138(4) 0.0987(4) 0.1032(3)
O24 O 0.4209(4) 0.0483(4) 0.2206(3)
Cu1A Cu 0.37916(6) -0.28352(6) 0.48215(6)
Cu2A Cu 1.08085(6) -0.21545(7) 0.38424(6)
O8A O 0.4554(3) 0.2363(3) 0.5119(3)
O10A O 1.0740(3) 0.2201(3) 0.5836(3)
O25 O 0.8905(6) 0.7586(5) 0.8445(5)
O26 O 0.9093(9) 0.1983(8) 0.0884(8)
O27 O 0.7777(9) -0.6780(7) 0.0897(8)
O28 O 0.5720(10) 0.3242(14) 1.0161(8)
O29 O 0.4908(17) 0.4265(15) 1.034(2)
O30 O 0.7569(5) 0.1369(5) 0.1731(4)
O31 O 0.8966(5) 0.0133(6) -0.0283(5)
O32 O 0.7815(4) -0.0986(5) 0.7858(3)
loop_
_geom_bond_atom_site_label_1
_geom_bond_atom_site_label_2
_geom_bond_site_symmetry_1
_geom_bond_site_symmetry_2
Cu1 N1 1_555 1_555
Cu2 N4 1_555 1_555
N1 C1 1_555 1_555
C1 H1 1_555 1_555
C2 C1 1_555 1_555
H2 C2 1_555 1_555
C3 C2 1_555 1_555
H3 C3 1_555 1_555
C4 C3 1_555 1_555
H4 C4 1_555 1_555
C5 N1 1_555 1_555
N2 Cu1 1_555 1_555
C6 C5 1_555 1_555
C7 C6 1_555 1_555
H5 C7 1_555 1_555
C8 C7 1_555 1_555
H6 C8 1_555 1_555
C9 C8 1_555 1_555
H7 C9 1_555 1_555
C10 N2 1_555 1_555
N3 Cu1 1_555 1_555
C11 C10 1_555 1_555
C12 C11 1_555 1_555
H8 C12 1_555 1_555
C13 C12 1_555 1_555
H9 C13 1_555 1_555
C14 C13 1_555 1_555
H10 C14 1_555 1_555
C15 N3 1_555 1_555
H11 C15 1_555 1_555
N4 C16 1_555 1_555
C16 H12 1_555 1_555
C17 C16 1_555 1_555
H13 C17 1_555 1_555
C18 C17 1_555 1_555
H14 C18 1_555 1_555
C19 C18 1_555 1_555
H15 C19 1_555 1_555
C20 N4 1_555 1_555
N5 Cu2 1_555 1_555
C21 C20 1_555 1_555
C22 C21 1_555 1_555
H16 C22 1_555 1_555
C23 C22 1_555 1_555
H17 C23 1_555 1_555
C24 C23 1_555 1_555
H18 C24 1_555 1_555
C25 N5 1_555 1_555
N6 Cu2 1_555 1_555
C26 C25 1_555 1_555
C27 C26 1_555 1_555
H19 C27 1_555 1_555
C28 C27 1_555 1_555
H20 C28 1_555 1_555
C29 C28 1_555 1_555
H21 C29 1_555 1_555
C30 N6 1_555 1_555
H22 C30 1_555 1_555
C31 H23 1_555 1_555
C32 C31 1_555 1_555
H24 C32 1_555 1_555
C33 C32 1_555 1_555
H25 C33 1_555 1_555
C34 C33 1_555 1_555
H26 C34 1_555 1_555
C35 C34 1_555 1_555
H27 C35 1_555 1_555
C36 C31 1_555 1_555
H28 C36 1_555 1_555
P1 O1 1_555 1_555
O1 C31 1_555 1_555
O2 P1 1_555 1_555
O3 Cu1 1_555 1_555
O4 Cu2 1_555 1_555
P2 O5 1_555 1_555
O5 C32 1_555 1_555
O6 P2 1_555 1_555
O7 P2 1_555 1_555
O8 P2 1_555 1_555
P3 O9 1_555 1_555
O9 C33 1_555 1_555
O10 P3 1_555 1_555
O11 P3 1_555 1_555
O12 P3 1_555 1_555
P4 O13 1_555 1_555
O13 C34 1_555 1_555
O14 P4 1_555 1_555
O15 P4 1_555 1_555
O16 P4 1_555 1_555
P5 O17 1_555 1_555
O17 C35 1_555 1_555
O18 P5 1_555 1_555
O19 P5 1_555 1_555
O20 P5 1_555 1_555
P6 O21 1_555 1_555
O21 C36 1_555 1_555
O22 P6 1_555 1_555
O23 P6 1_555 1_555
O24 P6 1_555 1_555
Cu1A O8 1_555 1_555
Cu2A O10 1_555 1_555
O8A Cu1 1_555 1_555
O10A Cu2 1_555 1_555
C4 C5 1_555 1_555
N2 C6 1_555 1_555
C9 C10 1_555 1_555
N3 C11 1_555 1_555
C14 C15 1_555 1_555
C19 C20 1_555 1_555
N5 C21 1_555 1_555
C24 C25 1_555 1_555
N6 C26 1_555 1_555
C29 C30 1_555 1_555
C35 C36 1_555 1_555
P1 O3 1_555 1_555
P1 O4 1_555 1_555

#END
