
#######################################################################
#
#                 Cambridge Crystallographic Data Centre
#                                CCDC 
#
#######################################################################
#
# If this CIF has been generated from an entry in the Cambridge 
# Structural Database, then it will include bibliographic, chemical, 
# crystal, experimental, refinement or atomic coordinate data resulting 
# from the CCDC's data processing and validation procedures.
#
#######################################################################

data_JOQDOI
_symmetry_cell_setting           orthorhombic
_symmetry_space_group_name_H-M   'C c c a'
_symmetry_Int_Tables_number      68
_space_group_name_Hall           '-C 2b 2ac'
loop_
_symmetry_equiv_pos_site_id
_symmetry_equiv_pos_as_xyz
1 x,y,z
2 1/2-x,y,1/2+z
3 x,-y,1/2+z
4 1/2+x,1/2+y,z
5 -x,1/2+y,1/2+z
6 1/2+x,1/2-y,1/2+z
7 1/2+x,y,-z
8 x,1/2+y,-z
9 -x,-y,-z
10 1/2+x,-y,1/2-z
11 -x,y,1/2-z
12 1/2-x,1/2-y,-z
13 x,1/2-y,1/2-z
14 1/2-x,1/2+y,1/2-z
15 1/2-x,-y,z
16 -x,1/2-y,z
_cell_length_a                   11.883(1)
_cell_length_b                   19.049(1)
_cell_length_c                   17.415(1)
_cell_angle_alpha                90
_cell_angle_beta                 90
_cell_angle_gamma                90
_cell_volume                     3942.05
loop_
_atom_site_label
_atom_site_type_symbol
_atom_site_fract_x
_atom_site_fract_y
_atom_site_fract_z
Ni1 Ni 0.5000 -0.2500 0.07108(4)
N1 N 0.5871(4) -0.3447(2) 0.0776(2)
C1 C 0.6340(4) -0.3665(2) 0.1420(2)
H1 H 0.6229 -0.3391 0.1877
C2 C 0.6979(4) -0.4263(2) 0.1470(2)
H2 H 0.7316 -0.4390 0.1952
C3 C 0.7141(4) -0.4679(2) 0.0842(2)
C4 C 0.6618(7) -0.4473(3) 0.0181(3)
H3 H 0.6692 -0.4751 -0.0276
C5 C 0.5988(8) -0.3871(4) 0.0168(3)
H4 H 0.5612 -0.3747 -0.0301
N2 N 0.5000 -0.2500 -0.0478(3)
C6 C 0.4111(4) -0.2709(3) -0.0872(3)
H5 H 0.3457 -0.2863 -0.0596
C7 C 0.4084(4) -0.2715(3) -0.1667(3)
H6 H 0.3420 -0.2870 -0.1931
C8 C 0.5000 -0.2500 -0.2073(3)
N3 N 0.6691(6) -0.1690(4) 0.1342(4)
O1 O 0.6529(5) -0.1916(4) 0.0731(3)
O2 O 0.7363(6) -0.1342(4) 0.1626(3)
O3 O 0.6037(6) -0.2040(3) 0.1787(4)
C3N C 0.7859(4) -0.5321(2) 0.0842(2)
C2N C 0.8021(4) -0.5737(2) 0.1470(2)
C1N C 0.8660(4) -0.6335(2) 0.1420(2)
N1N N 0.9129(4) -0.6553(2) 0.0776(2)
Ni1N Ni 1.0000 -0.7500 0.07108(4)
N1C N 1.0871(4) -0.8447(2) 0.0776(2)
N2N N 1.0000 -0.7500 -0.0478(3)
O1N O 0.8471(5) -0.8084(4) 0.0731(3)
N3N N 0.8309(6) -0.8310(4) 0.1342(4)
O2N O 0.7637(6) -0.8658(4) 0.1626(3)
O3N O 0.8963(6) -0.7960(3) 0.1787(4)
O1C O 1.1529(5) -0.6916(4) 0.0731(3)
N3C N 1.1691(6) -0.6690(4) 0.1342(4)
O2C O 1.2363(6) -0.6342(4) 0.1626(3)
O3C O 1.1037(6) -0.7040(3) 0.1787(4)
C5N C 0.9012(8) -0.6129(4) 0.0168(3)
C4N C 0.8382(7) -0.5527(3) 0.0181(3)
H3N H 0.8308 -0.5249 -0.0276
H4N H 0.9388 -0.6253 -0.0301
H1N H 0.8771 -0.6609 0.1877
H2N H 0.7684 -0.5610 0.1952
N1O N 0.4129(4) -0.1553(2) 0.0776(2)
O1O O 0.3471(5) -0.3084(4) 0.0731(3)
C6O C 0.5889(4) -0.2291(3) -0.0872(3)
C7O C 0.5916(4) -0.2285(3) -0.1667(3)
C8J C 0.5000 -0.2500 -0.2927(3)
H6O H 0.6580 -0.2130 -0.1931
H5O H 0.6543 -0.2137 -0.0596
C1O C 0.3660(4) -0.1335(2) 0.1420(2)
C5O C 0.4012(8) -0.1129(4) 0.0168(3)
N3O N 0.3309(6) -0.3310(4) 0.1342(4)
C7J C 0.5916(4) -0.2715(3) -0.3333(3)
C7L C 0.4084(4) -0.2285(3) -0.3333(3)
H1O H 0.3771 -0.1609 0.1877
C2O C 0.3021(4) -0.0737(2) 0.1470(2)
C4O C 0.3382(7) -0.0527(3) 0.0181(3)
H4O H 0.4388 -0.1253 -0.0301
O2O O 0.2637(6) -0.3658(4) 0.1626(3)
O3O O 0.3963(6) -0.2960(3) 0.1787(4)
C6J C 0.5889(4) -0.2709(3) -0.4128(3)
H6J H 0.6580 -0.2870 -0.3069
C6L C 0.4111(4) -0.2291(3) -0.4128(3)
H6L H 0.3420 -0.2130 -0.3069
H2O H 0.2684 -0.0610 0.1952
C3O C 0.2859(4) -0.0321(2) 0.0842(2)
H3O H 0.3308 -0.0249 -0.0276
N2J N 0.5000 -0.2500 -0.4522(3)
H5J H 0.6543 -0.2863 -0.4404
H5L H 0.3457 -0.2137 -0.4404
C3C C 0.2141(4) 0.0321(2) 0.0842(2)
Ni1J Ni 0.5000 -0.2500 -0.57108(4)
C2C C 0.1979(4) 0.0737(2) 0.1470(2)
C4C C 0.1618(7) 0.0527(3) 0.0181(3)
C1C C 0.1340(4) 0.1335(2) 0.1420(2)
H2C H 0.2316 0.0610 0.1952
H3C H 0.1692 0.0249 -0.0276
C5C C 0.0988(8) 0.1129(4) 0.0168(3)
N1C_2 N 0.0871(4) 0.1553(2) 0.0776(2)
H1C H 0.1229 0.1609 0.1877
H4C H 0.0612 0.1253 -0.0301
Ni1C Ni 0.0000 0.2500 0.07108(4)
loop_
_geom_bond_atom_site_label_1
_geom_bond_atom_site_label_2
_geom_bond_site_symmetry_1
_geom_bond_site_symmetry_2
Ni1 N1 1_555 1_555
N1 C1 1_555 1_555
C1 H1 1_555 1_555
C2 C1 1_555 1_555
H2 C2 1_555 1_555
C3 C2 1_555 1_555
C4 C3 1_555 1_555
H3 C4 1_555 1_555
C5 N1 1_555 1_555
H4 C5 1_555 1_555
N2 Ni1 1_555 1_555
C6 N2 1_555 1_555
H5 C6 1_555 1_555
C7 C6 1_555 1_555
H6 C7 1_555 1_555
C8 C7 1_555 1_555
N3 O1 1_555 1_555
O1 Ni1 1_555 1_555
O2 N3 1_555 1_555
O3 N3 1_555 1_555
C3N C3 1_555 1_555
C2N C3N 1_555 1_555
C1N C2N 1_555 1_555
N1N C1N 1_555 1_555
Ni1N N1N 1_555 1_555
N1C Ni1N 1_555 1_555
N2N Ni1N 1_555 1_555
O1N Ni1N 1_555 1_555
N3N O1N 1_555 1_555
O2N N3N 1_555 1_555
O3N N3N 1_555 1_555
O1C Ni1N 1_555 1_555
N3C O1C 1_555 1_555
O2C N3C 1_555 1_555
O3C N3C 1_555 1_555
C5N N1N 1_555 1_555
C4N C3N 1_555 1_555
H3N C4N 1_555 1_555
H4N C5N 1_555 1_555
H1N C1N 1_555 1_555
H2N C2N 1_555 1_555
N1O Ni1 1_555 1_555
O1O Ni1 1_555 1_555
C6O N2 1_555 1_555
C7O C8 1_555 1_555
C8J C8 1_555 1_555
H6O C7O 1_555 1_555
H5O C6O 1_555 1_555
C1O N1O 1_555 1_555
C5O N1O 1_555 1_555
N3O O1O 1_555 1_555
C7J C8J 1_555 1_555
C7L C8J 1_555 1_555
H1O C1O 1_555 1_555
C2O C1O 1_555 1_555
C4O C5O 1_555 1_555
H4O C5O 1_555 1_555
O2O N3O 1_555 1_555
O3O N3O 1_555 1_555
C6J C7J 1_555 1_555
H6J C7J 1_555 1_555
C6L C7L 1_555 1_555
H6L C7L 1_555 1_555
H2O C2O 1_555 1_555
C3O C2O 1_555 1_555
H3O C4O 1_555 1_555
N2J C6J 1_555 1_555
H5J C6J 1_555 1_555
H5L C6L 1_555 1_555
C3C C3O 1_555 1_555
Ni1J N2J 1_555 1_555
C2C C3C 1_555 1_555
C4C C3C 1_555 1_555
C1C C2C 1_555 1_555
H2C C2C 1_555 1_555
H3C C4C 1_555 1_555
C5C C4C 1_555 1_555
N1C_2 C1C 1_555 1_555
H1C C1C 1_555 1_555
H4C C5C 1_555 1_555
Ni1C N1C_2 1_555 1_555
C4 C5 1_555 1_555
C5N C4N 1_555 1_555
C6O C7O 1_555 1_555
C4O C3O 1_555 1_555
C6L N2J 1_555 1_555
C5C N1C_2 1_555 1_555

#END
