
#######################################################################
#
#                 Cambridge Crystallographic Data Centre
#                                CCDC 
#
#######################################################################
#
# If this CIF has been generated from an entry in the Cambridge 
# Structural Database, then it will include bibliographic, chemical, 
# crystal, experimental, refinement or atomic coordinate data resulting 
# from the CCDC's data processing and validation procedures.
#
#######################################################################

data_JOQJIK
_symmetry_cell_setting           orthorhombic
_symmetry_space_group_name_H-M   'P b c a'
_symmetry_Int_Tables_number      61
_space_group_name_Hall           '-P 2ac 2ab'
loop_
_symmetry_equiv_pos_site_id
_symmetry_equiv_pos_as_xyz
1 x,y,z
2 1/2-x,-y,1/2+z
3 -x,1/2+y,1/2-z
4 1/2+x,1/2-y,-z
5 -x,-y,-z
6 1/2+x,y,1/2-z
7 x,1/2-y,1/2+z
8 1/2-x,1/2+y,z
_cell_length_a                   12.4377(3)
_cell_length_b                   12.2724(4)
_cell_length_c                   21.0852(6)
_cell_angle_alpha                90
_cell_angle_beta                 90
_cell_angle_gamma                90
_cell_volume                     3218.45
loop_
_atom_site_label
_atom_site_type_symbol
_atom_site_fract_x
_atom_site_fract_y
_atom_site_fract_z
Sb1 Sb 0.485294(14) 0.719042(15) 0.576966(9)
Sb2 Sb 0.790558(14) 0.709503(15) 0.589263(9)
Mn1 Mn 0.64911(3) 0.49213(3) 0.50802(2)
Mn2 Mn 0.68725(3) 0.77693(3) 0.43506(2)
S1 S 0.51107(5) 0.64915(6) 0.47044(3)
S2 S 0.63125(5) 0.59407(6) 0.61906(3)
S3 S 0.80846(5) 0.62712(6) 0.48574(3)
S4 S 0.69859(5) 0.86651(6) 0.55165(3)
S5 S 0.34019(5) 0.59526(6) 0.60082(3)
N1 N 0.68097(18) 0.69357(18) 0.34163(11)
N2 N 0.63269(18) 0.5723(2) 0.27017(12)
N3 N 0.4278(2) 0.4094(2) 0.09002(12)
H1 H 0.485(2) 0.398(3) 0.0668(15)
H2 H 0.397(2) 0.474(3) 0.0768(15)
C1 C 0.6065(2) 0.6230(2) 0.32379(14)
H3 H 0.5419 0.6101 0.3466
C2 C 0.7597(2) 0.6862(2) 0.29588(14)
H4 H 0.8242 0.7276 0.2954
C3 C 0.7315(2) 0.6114(3) 0.25174(14)
H5 H 0.7717 0.5902 0.2155
C4 C 0.5724(3) 0.4815(2) 0.24269(14)
H6 H 0.5121 0.4629 0.2713
H7 H 0.6202 0.4170 0.2402
C5 C 0.5283(2) 0.5049(2) 0.17761(14)
H8 H 0.5880 0.5119 0.1469
H9 H 0.4879 0.5745 0.1782
C6 C 0.4541(2) 0.4123(2) 0.15774(13)
H10 H 0.4884 0.3424 0.1694
H11 H 0.3864 0.4183 0.1821
Mn1D Mn 0.35089(3) 0.50787(3) 0.49198(2)
Mn1G Mn 0.85089(3) 0.99213(3) 0.50802(2)
Mn2B Mn 0.31275(3) 0.27693(3) 0.06494(2)
Mn2C Mn 0.18725(3) 0.72307(3) 0.56494(2)
S1D S 0.48893(5) 0.35085(6) 0.52956(3)
S4G S 0.80141(5) 0.36651(6) 0.55165(3)
S5C S 0.84019(5) 0.90474(6) 0.39918(3)
S5D S 0.65981(5) 0.40474(6) 0.39918(3)
N3B N 0.5722(2) 0.9094(2) 0.40998(12)
loop_
_geom_bond_atom_site_label_1
_geom_bond_atom_site_label_2
_geom_bond_site_symmetry_1
_geom_bond_site_symmetry_2
Sb1 S1 1_555 1_555
Sb2 S2 1_555 1_555
Mn1 S1 1_555 1_555
Mn2 S1 1_555 1_555
S1 Mn1D 1_555 1_555
S2 Sb1 1_555 1_555
S3 Sb2 1_555 1_555
S4 Sb2 1_555 1_555
S5 Sb1 1_555 1_555
N1 Mn2 1_555 1_555
N2 C1 1_555 1_555
N3 H1 1_555 1_555
H2 N3 1_555 1_555
C1 N1 1_555 1_555
H3 C1 1_555 1_555
C2 N1 1_555 1_555
H4 C2 1_555 1_555
C3 N2 1_555 1_555
H5 C3 1_555 1_555
C4 N2 1_555 1_555
H6 C4 1_555 1_555
H7 C4 1_555 1_555
C5 C4 1_555 1_555
H8 C5 1_555 1_555
H9 C5 1_555 1_555
C6 N3 1_555 1_555
H10 C6 1_555 1_555
H11 C6 1_555 1_555
Mn1D S5 1_555 1_555
Mn1G S4 1_555 1_555
Mn2B N3 1_555 1_555
Mn2C S5 1_555 1_555
S1D Mn1 1_555 1_555
S4G Mn1 1_555 1_555
S5C Mn2 1_555 1_555
S5D Mn1 1_555 1_555
N3B Mn2 1_555 1_555
Mn1 S2 1_555 1_555
Mn1 S3 1_555 1_555
Mn2 S3 1_555 1_555
Mn2 S4 1_555 1_555
C2 C3 1_555 1_555
C5 C6 1_555 1_555
Mn1D S1D 1_555 1_555
Mn1G S5C 1_555 1_555

#END
