
#######################################################################
#
#                 Cambridge Crystallographic Data Centre
#                                CCDC 
#
#######################################################################
#
# If this CIF has been generated from an entry in the Cambridge 
# Structural Database, then it will include bibliographic, chemical, 
# crystal, experimental, refinement or atomic coordinate data resulting 
# from the CCDC's data processing and validation procedures.
#
#######################################################################

data_JOQPUC
_symmetry_cell_setting           monoclinic
_symmetry_space_group_name_H-M   'P 21/n'
_symmetry_Int_Tables_number      14
_space_group_name_Hall           '-P 2yn'
loop_
_symmetry_equiv_pos_site_id
_symmetry_equiv_pos_as_xyz
1 x,y,z
2 1/2-x,1/2+y,1/2-z
3 -x,-y,-z
4 1/2+x,1/2-y,1/2+z
_cell_length_a                   13.0822(12)
_cell_length_b                   9.7472(8)
_cell_length_c                   18.0158(16)
_cell_angle_alpha                90
_cell_angle_beta                 108.963(3)
_cell_angle_gamma                90
_cell_volume                     2172.6
loop_
_atom_site_label
_atom_site_type_symbol
_atom_site_fract_x
_atom_site_fract_y
_atom_site_fract_z
Co1 Co 0.30850(2) -0.04388(3) 1.073137(16)
Co2 Co 0.5000 0.0000 1.0000
Br1 Br 0.157520(19) -0.14621(3) 1.100893(15)
C1 C 0.20229(17) 0.2086(3) 0.86997(12)
C2 C 0.24155(18) 0.2648(3) 0.81321(13)
H1 H 0.3163 0.2589 0.8193
C3 C 0.17147(18) 0.3289(3) 0.74820(14)
H2 H 0.1981 0.3657 0.7092
C4 C 0.06129(17) 0.3401(2) 0.73918(12)
C5 C 0.02305(18) 0.2852(3) 0.79597(13)
H3 H -0.0514 0.2930 0.7905
C6 C 0.09282(17) 0.2188(3) 0.86093(13)
H4 H 0.0658 0.1802 0.8993
C7 C 0.27679(17) 0.1354(2) 0.93916(13)
C8 C -0.01296(18) 0.4070(2) 0.66740(12)
O1 O 0.37441(12) 0.12361(17) 0.94273(9)
O2 O 0.23727(12) 0.08922(18) 0.98899(8)
O3 O -0.10503(12) 0.44661(17) 0.66888(9)
O4 O 0.01876(13) 0.41953(18) 0.60935(8)
C9 C 0.46745(17) -0.3846(2) 1.03232(13)
C10 C 0.50888(19) -0.4984(3) 1.07877(14)
H5 H 0.5149 -0.4973 1.1327
C11 C 0.45861(18) -0.3872(3) 0.95248(13)
H6 H 0.4303 -0.3100 0.9201
C12 C 0.42918(17) -0.2626(3) 1.06669(13)
O5 O 0.39241(11) -0.15718(15) 1.02041(8)
O6 O 0.42828(14) -0.26376(18) 1.13465(9)
C9B C 0.53255(17) -0.6154(2) 0.96768(13)
C10B C 0.49112(19) -0.5016(3) 0.92123(14)
H5B H 0.4851 -0.5027 0.8673
C11B C 0.54139(18) -0.6128(3) 1.04752(13)
H6B H 0.5697 -0.6900 1.0799
C12B C 0.57082(17) -0.7374(3) 0.93331(13)
O5B O 0.60759(11) -0.84282(15) 0.97959(8)
O6B O 0.57172(14) -0.73624(18) 0.86535(9)
Co1B Co 0.69150(2) -0.95612(3) 0.926863(16)
Br1B Br 0.842480(19) -0.85379(3) 0.899107(15)
C1B C 0.79771(17) -1.2086(3) 1.13003(12)
C2B C 0.75845(18) -1.2648(3) 1.18679(13)
H1B H 0.6837 -1.2589 1.1807
C3B C 0.82853(18) -1.3289(3) 1.25180(14)
H2B H 0.8019 -1.3657 1.2908
C4B C 0.93871(17) -1.3401(2) 1.26082(12)
C5B C 0.97695(18) -1.2852(3) 1.20403(13)
H3B H 1.0514 -1.2930 1.2095
C6B C 0.90718(17) -1.2188(3) 1.13907(13)
H4B H 0.9342 -1.1802 1.1007
C7B C 0.72321(17) -1.1354(2) 1.06084(13)
C8B C 1.01296(18) -1.4070(2) 1.33260(12)
O1B O 0.62559(12) -1.12361(17) 1.05727(9)
O2B O 0.76273(12) -1.08922(18) 1.01101(8)
O3B O 1.10503(12) -1.44661(17) 1.33112(9)
O4B O 0.98124(13) -1.41953(18) 1.39065(8)
Co1A Co 1.19150(2) -1.54388(3) 1.426863(16)
Co1C Co -0.19150(2) 0.54388(3) 0.573137(16)
Co2_2 Co 0.5000 -1.0000 1.0000
Co2A Co 0.0000 0.5000 0.5000
Co2A_2 Co 1.0000 -1.5000 1.5000
O1B_2 O 0.62559(12) -0.12361(17) 1.05727(9)
O3A O 0.60503(12) -1.05339(17) 0.83112(9)
O3C O 0.39497(12) 0.05339(17) 1.16888(9)
O4A O 0.48124(13) -0.08047(18) 0.89065(8)
O4C O 0.51876(13) 0.08047(18) 1.10935(8)
O5B_2 O 0.60759(11) 0.15718(15) 0.97959(8)
N1 N -0.1936(2) 0.6086(3) 0.83553(14)
N2 N -0.07448(19) 0.7663(3) 0.84255(13)
C13 C -0.2650(3) 0.4928(4) 0.8060(2)
H7 H -0.3033 0.4705 0.8431
H8 H -0.2225 0.4134 0.8000
H9 H -0.3176 0.5165 0.7550
C14 C 0.1474(3) 0.5768(4) 0.9267(2)
H10 H 0.1715 0.4850 0.9176
H11 H 0.0724 0.5722 0.9263
H12 H 0.1936 0.6110 0.9777
C15 C 0.1546(3) 0.6752(4) 0.8609(2)
H13 H 0.2303 0.6766 0.8609
H14 H 0.1094 0.6378 0.8097
C16 C 0.1193(3) 0.8220(3) 0.8679(2)
H15 H 0.1315 0.8425 0.9240
H16 H 0.1651 0.8851 0.8494
C17 C 0.0057(2) 0.8491(4) 0.82339(17)
H17 H -0.0094 0.9467 0.8309
H18 H -0.0042 0.8362 0.7670
C18 C -0.1274(3) 0.6684(3) 0.79890(17)
H19 H -0.1217 0.6418 0.7497
C19 C -0.1729(3) 0.6749(4) 0.90538(18)
H20 H -0.2033 0.6528 0.9451
C20 C -0.1005(2) 0.7794(3) 0.90893(15)
H21 H -0.0747 0.8461 0.9492
loop_
_geom_bond_atom_site_label_1
_geom_bond_atom_site_label_2
_geom_bond_site_symmetry_1
_geom_bond_site_symmetry_2
Co1 Br1 1_555 1_555
Co2 O1 1_555 1_555
C1 C2 1_555 1_555
C2 H1 1_555 1_555
C3 C2 1_555 1_555
H2 C3 1_555 1_555
C4 C3 1_555 1_555
C5 C4 1_555 1_555
H3 C5 1_555 1_555
C6 C1 1_555 1_555
H4 C6 1_555 1_555
C7 C1 1_555 1_555
C8 C4 1_555 1_555
O1 C7 1_555 1_555
O2 Co1 1_555 1_555
O3 C8 1_555 1_555
O4 C8 1_555 1_555
C9 C10 1_555 1_555
C10 H5 1_555 1_555
C11 C9 1_555 1_555
H6 C11 1_555 1_555
C12 C9 1_555 1_555
O5 Co1 1_555 1_555
O6 C12 1_555 1_555
N1 C13 1_555 1_555
N2 C17 1_555 1_555
C13 H7 1_555 1_555
H8 C13 1_555 1_555
H9 C13 1_555 1_555
C14 H10 1_555 1_555
H11 C14 1_555 1_555
H12 C14 1_555 1_555
C15 C14 1_555 1_555
H13 C15 1_555 1_555
H14 C15 1_555 1_555
C16 C15 1_555 1_555
H15 C16 1_555 1_555
H16 C16 1_555 1_555
C17 C16 1_555 1_555
H17 C17 1_555 1_555
H18 C17 1_555 1_555
C18 N1 1_555 1_555
H19 C18 1_555 1_555
C19 N1 1_555 1_555
H20 C19 1_555 1_555
C20 N2 1_555 1_555
H21 C20 1_555 1_555
C9B C10B 1_555 1_555
C10B C11 1_555 1_555
H5B C10B 1_555 1_555
C11B C10 1_555 1_555
H6B C11B 1_555 1_555
C12B C9B 1_555 1_555
O5B C12B 1_555 1_555
O6B C12B 1_555 1_555
Co1B O5B 1_555 1_555
Br1B Co1B 1_555 1_555
C1B C2B 1_555 1_555
C2B H1B 1_555 1_555
C3B C2B 1_555 1_555
H2B C3B 1_555 1_555
C4B C3B 1_555 1_555
C5B C4B 1_555 1_555
H3B C5B 1_555 1_555
C6B C1B 1_555 1_555
H4B C6B 1_555 1_555
C7B C1B 1_555 1_555
C8B C4B 1_555 1_555
O1B C7B 1_555 1_555
O2B Co1B 1_555 1_555
O3B C8B 1_555 1_555
O4B C8B 1_555 1_555
Co1A O3B 1_555 1_555
Co1C O3 1_555 1_555
Co2_2 O5B 1_555 1_555
Co2A O4 1_555 1_555
Co2A_2 O4B 1_555 1_555
O1B_2 Co2 1_555 1_555
O3A Co1B 1_555 1_555
O3C Co1 1_555 1_555
O4A Co2 1_555 1_555
O4C Co2 1_555 1_555
O5B_2 Co2 1_555 1_555
Co2 O5 1_555 1_555
C5 C6 1_555 1_555
C7 O2 1_555 1_555
C12 O5 1_555 1_555
N2 C18 1_555 1_555
C19 C20 1_555 1_555
C9B C11B 1_555 1_555
C5B C6B 1_555 1_555
C7B O2B 1_555 1_555
O1B Co2_2 1_555 1_555

#END
