
#######################################################################
#
#                 Cambridge Crystallographic Data Centre
#                                CCDC 
#
#######################################################################
#
# If this CIF has been generated from an entry in the Cambridge 
# Structural Database, then it will include bibliographic, chemical, 
# crystal, experimental, refinement or atomic coordinate data resulting 
# from the CCDC's data processing and validation procedures.
#
#######################################################################

data_JOQQUB
_symmetry_cell_setting           monoclinic
_symmetry_space_group_name_H-M   'P 21/n'
_symmetry_Int_Tables_number      14
_space_group_name_Hall           '-P 2yn'
loop_
_symmetry_equiv_pos_site_id
_symmetry_equiv_pos_as_xyz
1 x,y,z
2 1/2-x,1/2+y,1/2-z
3 -x,-y,-z
4 1/2+x,1/2-y,1/2+z
_cell_length_a                   19.696(7)
_cell_length_b                   12.650(3)
_cell_length_c                   21.066(7)
_cell_angle_alpha                90
_cell_angle_beta                 106.01(1)
_cell_angle_gamma                90
_cell_volume                     5045.11
loop_
_atom_site_label
_atom_site_type_symbol
_atom_site_fract_x
_atom_site_fract_y
_atom_site_fract_z
Sn1 Sn 0.27684(1) 0.15693(2) 0.24135(1)
S1 S 0.03727(5) -0.11934(8) 0.25127(5)
O1 O 0.1877(1) 0.1293(2) 0.2739(1)
O2 O 0.1978(2) -0.1529(2) 0.1685(2)
O3 O 0.0861(1) -0.1699(2) 0.3064(1)
O4 O -0.0281(1) -0.1719(2) 0.2209(2)
N1 N 0.3471(2) 0.0780(3) 0.1756(2)
N2 N 0.2495(2) 0.0095(3) 0.1915(2)
N3 N 0.0785(2) -0.0965(3) 0.1964(2)
C1 C 0.4028(2) 0.0834(3) 0.1509(2)
C2 C 0.4176(2) 0.0038(4) 0.1120(2)
C3 C 0.3731(2) -0.0822(4) 0.0990(2)
C4 C 0.3159(2) -0.0905(4) 0.1237(2)
C5 C 0.3036(2) -0.0068(3) 0.1621(2)
C6 C 0.1969(2) -0.0628(3) 0.1900(2)
C7 C 0.1389(2) -0.0265(3) 0.2153(2)
C8 C 0.1368(2) 0.0599(3) 0.2529(2)
C9 C 0.0732(2) 0.0836(3) 0.2764(2)
C10 C 0.0650(2) 0.1835(3) 0.3024(2)
C11 C 0.0081(2) 0.2052(4) 0.3258(2)
C12 C -0.0428(2) 0.1291(4) 0.3240(2)
C13 C -0.0365(2) 0.0301(3) 0.2988(2)
C14 C 0.0217(2) 0.0073(3) 0.2763(2)
C15 C 0.0372(3) -0.0908(5) 0.1268(2)
C16 C 0.3560(2) 0.1218(4) 0.3287(2)
C17 C 0.3302(3) 0.1019(6) 0.3883(3)
C18 C 0.3863(5) 0.070(1) 0.4476(4)
C19 C 0.360(1) 0.043(1) 0.5010(6)
C20 C 0.2394(2) 0.2833(4) 0.1749(2)
C21 C 0.1958(3) 0.2510(5) 0.1064(3)
C22 C 0.1229(3) 0.2187(6) 0.1022(3)
C23 C 0.0773(5) 0.1982(9) 0.0364(4)
H1 H 0.4329 0.1434 0.1605
H2 H 0.4573 0.0081 0.0948
H3 H 0.3823 -0.1375 0.0720
H4 H 0.2859 -0.1506 0.1151
H5 H 0.0994 0.2367 0.3037
H6 H 0.0037 0.2731 0.3433
H7 H -0.0822 0.1450 0.3402
H8 H -0.0717 -0.0220 0.2969
H9 H -0.0047 -0.1438 0.1184
H10 H 0.0178 -0.0145 0.1160
H11 H 0.0694 -0.1100 0.0968
H12 H 0.3826 0.0546 0.3203
H13 H 0.3909 0.1853 0.3392
H14 H 0.2927 0.0418 0.3771
H15 H 0.3068 0.1708 0.3991
H16 H 0.4212 0.1334 0.4619
H17 H 0.4131 0.0058 0.4357
H18 H 0.4016 0.0213 0.5413
H19 H 0.3333 0.1069 0.5137
H20 H 0.3253 -0.0207 0.4876
H21 H 0.2082 0.3317 0.1953
H22 H 0.2829 0.3257 0.1700
H23 H 0.2211 0.1879 0.0908
H24 H 0.1938 0.3148 0.0748
H25 H 0.0998 0.2786 0.1230
H26 H 0.1253 0.1499 0.1298
H27 H 0.0275 0.1761 0.0394
H28 H 0.0732 0.2662 0.0078
H29 H 0.0987 0.1375 0.0146
O2A O 0.3022(2) 0.3471(2) 0.3315(2)
Sn1A Sn 0.22316(1) -0.34307(2) 0.25865(1)
Sn2 Sn 0.73062(1) -0.00480(2) 0.21196(1)
S2 S 0.82235(6) 0.27451(8) 0.44481(5)
O5 O 0.7948(1) 0.0266(2) 0.3060(1)
O6 O 0.6935(1) 0.3239(2) 0.2570(1)
O7 O 0.8081(2) 0.3383(3) 0.4957(1)
O8 O 0.8791(2) 0.3032(3) 0.4182(1)
N4 N 0.6380(1) 0.0804(2) 0.1225(1)
N5 N 0.6908(1) 0.1537(2) 0.2198(1)
N6 N 0.7503(2) 0.2675(2) 0.3840(1)
C24 C 0.5908(2) 0.0747(3) 0.0630(2)
C25 C 0.5442(2) 0.1558(3) 0.0380(2)
C26 C 0.5468(2) 0.2443(4) 0.0763(2)
C27 C 0.5945(2) 0.2525(3) 0.1372(2)
C28 C 0.6405(2) 0.1682(3) 0.1597(2)
C29 C 0.7110(2) 0.2300(3) 0.2663(2)
C30 C 0.7527(2) 0.1941(3) 0.3325(2)
C31 C 0.7858(2) 0.0989(3) 0.3482(2)
C32 C 0.8161(2) 0.0683(3) 0.4186(2)
C33 C 0.8257(3) -0.0374(4) 0.4358(2)
C34 C 0.8506(4) -0.0657(4) 0.5011(3)
C35 C 0.8645(4) 0.0083(5) 0.5509(3)
C36 C 0.8555(3) 0.1126(4) 0.5355(2)
C37 C 0.8325(2) 0.1427(3) 0.4694(2)
C38 C 0.6835(2) 0.2647(3) 0.4027(2)
C39 C 0.8017(2) 0.0207(3) 0.1540(2)
C40 C 0.8197(3) 0.1341(4) 0.1449(3)
C41 C 0.8702(4) 0.1482(6) 0.1023(4)
C42 C 0.8434(6) 0.115(1) 0.0350(4)
C43 C 0.6548(2) -0.1039(3) 0.2365(2)
C44 C 0.5987(3) -0.0511(5) 0.2577(3)
C45 C 0.5942(5) -0.030(1) 0.3121(4)
C46 C 0.5306(5) 0.016(1) 0.3255(5)
H30 H 0.5895 0.0129 0.0371
H31 H 0.5113 0.1505 -0.0044
H32 H 0.5149 0.3009 0.0603
H33 H 0.5962 0.3141 0.1635
H34 H 0.8150 -0.0903 0.4025
H35 H 0.8586 -0.1383 0.5121
H36 H 0.8802 -0.0135 0.5957
H37 H 0.8648 0.1644 0.5694
H38 H 0.6856 0.3195 0.4399
H39 H 0.6417 0.2832 0.3618
H40 H 0.6760 0.1895 0.4194
H41 H 0.8485 -0.0188 0.1765
H42 H 0.7793 -0.0115 0.1075
H43 H 0.8430 0.1665 0.1912
H44 H 0.7732 0.1744 0.1228
H45 H 0.9156 0.1047 0.1235
H46 H 0.8830 0.2280 0.1024
H47 H 0.8815 0.1278 0.0101
H48 H 0.8309 0.0350 0.0336
H49 H 0.7983 0.1583 0.0125
H50 H 0.6311 -0.1489 0.1950
H51 H 0.6816 -0.1534 0.2746
H52 H 0.5542 -0.0970 0.2373
H53 H 0.5934 0.0217 0.2339
H54 H 0.6351 0.0224 0.3319
H55 H 0.6035 -0.1008 0.3384
H56 H 0.5396 0.0267 0.3761
H57 H 0.5195 0.0886 0.3017
H58 H 0.4879 -0.0346 0.3081
O6A O 0.8065(1) -0.1761(2) 0.2430(1)
Sn2A Sn 0.76938(1) 0.49520(2) 0.28804(1)
loop_
_geom_bond_atom_site_label_1
_geom_bond_atom_site_label_2
_geom_bond_site_symmetry_1
_geom_bond_site_symmetry_2
Sn1 O1 1_555 1_555
S1 O3 1_555 1_555
O1 C8 1_555 1_555
O2 C6 1_555 1_555
O4 S1 1_555 1_555
N1 Sn1 1_555 1_555
N2 Sn1 1_555 1_555
N3 S1 1_555 1_555
C1 N1 1_555 1_555
C2 C1 1_555 1_555
C3 C2 1_555 1_555
C4 C3 1_555 1_555
C5 N1 1_555 1_555
C6 N2 1_555 1_555
C7 N3 1_555 1_555
C8 C7 1_555 1_555
C9 C8 1_555 1_555
C10 C9 1_555 1_555
C11 C10 1_555 1_555
C12 C11 1_555 1_555
C13 C12 1_555 1_555
C14 S1 1_555 1_555
C15 N3 1_555 1_555
C16 Sn1 1_555 1_555
C17 C16 1_555 1_555
C18 C17 1_555 1_555
C19 C18 1_555 1_555
C20 Sn1 1_555 1_555
C21 C20 1_555 1_555
C22 C21 1_555 1_555
C23 C22 1_555 1_555
Sn2 O5 1_555 1_555
S2 O7 1_555 1_555
O5 C31 1_555 1_555
O6 C29 1_555 1_555
O8 S2 1_555 1_555
N4 Sn2 1_555 1_555
N5 Sn2 1_555 1_555
N6 S2 1_555 1_555
C24 N4 1_555 1_555
C25 C24 1_555 1_555
C26 C25 1_555 1_555
C27 C26 1_555 1_555
C28 N4 1_555 1_555
C29 N5 1_555 1_555
C30 N6 1_555 1_555
C31 C30 1_555 1_555
C32 C31 1_555 1_555
C33 C32 1_555 1_555
C34 C33 1_555 1_555
C35 C34 1_555 1_555
C36 C35 1_555 1_555
C37 S2 1_555 1_555
C38 N6 1_555 1_555
C39 Sn2 1_555 1_555
C40 C39 1_555 1_555
C41 C40 1_555 1_555
C42 C41 1_555 1_555
C43 Sn2 1_555 1_555
C44 C43 1_555 1_555
C45 C44 1_555 1_555
C46 C45 1_555 1_555
H1 C1 1_555 1_555
H2 C2 1_555 1_555
H3 C3 1_555 1_555
H4 C4 1_555 1_555
H5 C10 1_555 1_555
H6 C11 1_555 1_555
H7 C12 1_555 1_555
H8 C13 1_555 1_555
H9 C15 1_555 1_555
H10 C15 1_555 1_555
H11 C15 1_555 1_555
H12 C16 1_555 1_555
H13 C16 1_555 1_555
H14 C17 1_555 1_555
H15 C17 1_555 1_555
H16 C18 1_555 1_555
H17 C18 1_555 1_555
H18 C19 1_555 1_555
H19 C19 1_555 1_555
H20 C19 1_555 1_555
H21 C20 1_555 1_555
H22 C20 1_555 1_555
H23 C21 1_555 1_555
H24 C21 1_555 1_555
H25 C22 1_555 1_555
H26 C22 1_555 1_555
H27 C23 1_555 1_555
H28 C23 1_555 1_555
H29 C23 1_555 1_555
H30 C24 1_555 1_555
H31 C25 1_555 1_555
H32 C26 1_555 1_555
H33 C27 1_555 1_555
H34 C33 1_555 1_555
H35 C34 1_555 1_555
H36 C35 1_555 1_555
H37 C36 1_555 1_555
H38 C38 1_555 1_555
H39 C38 1_555 1_555
H40 C38 1_555 1_555
H41 C39 1_555 1_555
H42 C39 1_555 1_555
H43 C40 1_555 1_555
H44 C40 1_555 1_555
H45 C41 1_555 1_555
H46 C41 1_555 1_555
H47 C42 1_555 1_555
H48 C42 1_555 1_555
H49 C42 1_555 1_555
H50 C43 1_555 1_555
H51 C43 1_555 1_555
H52 C44 1_555 1_555
H53 C44 1_555 1_555
H54 C45 1_555 1_555
H55 C45 1_555 1_555
H56 C46 1_555 1_555
H57 C46 1_555 1_555
H58 C46 1_555 1_555
O2A Sn1 1_555 1_555
Sn1A O2 1_555 1_555
O6A Sn2 1_555 1_555
Sn2A O6 1_555 1_555
N2 C5 1_555 1_555
C4 C5 1_555 1_555
C6 C7 1_555 1_555
C9 C14 1_555 1_555
C13 C14 1_555 1_555
N5 C28 1_555 1_555
C27 C28 1_555 1_555
C29 C30 1_555 1_555
C32 C37 1_555 1_555
C36 C37 1_555 1_555

#END
