
#######################################################################
#
#                 Cambridge Crystallographic Data Centre
#                                CCDC 
#
#######################################################################
#
# If this CIF has been generated from an entry in the Cambridge 
# Structural Database, then it will include bibliographic, chemical, 
# crystal, experimental, refinement or atomic coordinate data resulting 
# from the CCDC's data processing and validation procedures.
#
#######################################################################

data_JOQQAJ
_symmetry_cell_setting           monoclinic
_symmetry_space_group_name_H-M   'C 2/c'
_symmetry_Int_Tables_number      15
_space_group_name_Hall           '-C 2yn'
loop_
_symmetry_equiv_pos_site_id
_symmetry_equiv_pos_as_xyz
1 x,y,z
2 -x,y,1/2-z
3 1/2+x,1/2+y,z
4 1/2-x,1/2+y,1/2-z
5 -x,-y,-z
6 x,-y,1/2+z
7 1/2-x,1/2-y,-z
8 1/2+x,1/2-y,1/2+z
_cell_length_a                   33.093(3)
_cell_length_b                   9.6403(9)
_cell_length_c                   18.5130(19)
_cell_angle_alpha                90
_cell_angle_beta                 92.954(5)
_cell_angle_gamma                90
_cell_volume                     5898.29
loop_
_atom_site_label
_atom_site_type_symbol
_atom_site_fract_x
_atom_site_fract_y
_atom_site_fract_z
Co1 Co 0.152060(10) 0.29562(3) 0.485805(18)
Co2 Co 0.2500 0.2500 0.5000
O1 O 0.22613(5) 0.18137(17) 0.40192(9)
O2 O 0.20335(5) 0.40590(17) 0.50405(9)
O3 O 0.15867(5) 0.17542(19) 0.40142(9)
O4 O 0.21623(5) -0.11685(17) 0.05945(9)
O5 O 0.15388(5) -0.1900(2) 0.07809(10)
C1 C 0.22751(8) 0.6327(2) 0.48001(14)
C2 C 0.18609(8) -0.1271(3) 0.09666(14)
C3 C 0.24738(8) 0.6409(3) 0.54838(13)
H1 H 0.2456 0.5657 0.5812
O6 O 0.10718(8) 0.4359(3) 0.49823(16)
C4 C 0.19248(8) 0.1514(3) 0.37459(13)
C5 C 0.20187(8) 0.5097(3) 0.45949(15)
C6 C 0.18774(8) -0.0577(3) 0.16957(14)
C7 C 0.19147(8) 0.0774(3) 0.30308(14)
C8 C 0.23039(9) 0.7426(3) 0.43132(15)
H2 H 0.2172 0.7374 0.3846
C9 C 0.22474(8) 0.0632(3) 0.26541(15)
H3 H 0.2496 0.1003 0.2849
C10 C 0.22432(8) -0.0040(3) 0.19871(14)
H4 H 0.2485 -0.0131 0.1735
C11 C 0.15443(9) 0.0230(4) 0.27428(16)
H5 H 0.1305 0.0316 0.3002
C12 C 0.15345(9) -0.0427(4) 0.20815(17)
H6 H 0.1285 -0.0785 0.1886
O7 O 0.17895(6) 0.51083(19) 0.40386(11)
O8 O 0.07901(9) 0.2387(3) 0.47331(19)
C13 C 0.07818(10) 0.3636(4) 0.4886(2)
C14 C 0.03750(10) 0.4331(4) 0.4951(2)
C15 C 0.00338(13) 0.3641(6) 0.4749(3)
H7 H 0.0044 0.2714 0.4577
C16 C 0.03499(13) 0.5645(5) 0.5198(3)
H8 H 0.0592 0.6119 0.5344
O2F O 0.29665(5) 1.09410(17) 0.49595(9)
C1F C 0.27249(8) 0.8673(2) 0.51999(14)
C3F C 0.25262(8) 0.8591(3) 0.45162(13)
H1F H 0.2544 0.9343 0.4188
C5F C 0.29813(8) 0.9903(3) 0.54051(15)
C8F C 0.26961(9) 0.7574(3) 0.56868(15)
H2F H 0.2828 0.7626 0.6154
O7F O 0.32105(6) 0.98917(19) 0.59614(11)
O6D O -0.10718(8) 0.5641(3) 0.50177(16)
O8D O -0.07901(9) 0.7613(3) 0.52669(19)
C13D C -0.07818(10) 0.6364(4) 0.5114(2)
C14D C -0.03750(10) 0.5669(4) 0.5049(2)
C15D C -0.00338(13) 0.6359(6) 0.5251(3)
H7D H -0.0044 0.7286 0.5423
C16D C -0.03499(13) 0.4355(5) 0.4802(3)
H8D H -0.0592 0.3881 0.4656
Co1D Co -0.152060(10) 0.70438(3) 0.514195(18)
O1D O -0.22613(5) 0.81863(17) 0.59808(9)
O3D O -0.15867(5) 0.82458(19) 0.59858(9)
O4D O -0.21623(5) 1.11685(17) 0.94055(9)
O5D O -0.15388(5) 1.1900(2) 0.92191(10)
C2D C -0.18609(8) 1.1271(3) 0.90334(14)
C4D C -0.19248(8) 0.8486(3) 0.62541(13)
C6D C -0.18774(8) 1.0577(3) 0.83043(14)
C7D C -0.19147(8) 0.9226(3) 0.69692(14)
C9D C -0.22474(8) 0.9368(3) 0.73459(15)
H3D H -0.2496 0.8997 0.7151
C10D C -0.22432(8) 1.0040(3) 0.80129(14)
H4D H -0.2485 1.0131 0.8265
C11D C -0.15443(9) 0.9770(4) 0.72572(16)
H5D H -0.1305 0.9684 0.6998
C12D C -0.15345(9) 1.0427(4) 0.79185(17)
H6D H -0.1285 1.0785 0.8114
Co1A Co -0.152060(10) 1.29562(3) 1.014195(18)
Co1E Co 0.152060(10) -0.29562(3) -0.014195(18)
Co1F Co 0.347940(10) 1.20438(3) 0.514195(18)
Co2_2 Co 0.2500 1.2500 0.5000
Co2A Co -0.2500 1.2500 1.0000
Co2B Co -0.2500 0.7500 0.5000
Co2C Co 0.2500 -0.2500 0.0000
O1F O 0.27387(5) 0.31863(17) 0.59808(9)
O2D O -0.20335(5) 0.59410(17) 0.49595(9)
O2F_2 O 0.29665(5) 0.09410(17) 0.49595(9)
O4C O 0.28377(5) 0.38315(17) 0.44055(9)
O4E O 0.21623(5) 0.11685(17) 0.55945(9)
O5A O -0.15388(5) 0.8100(2) 0.42191(10)
O5E O 0.15388(5) 0.1900(2) 0.57809(10)
N1 N 0.0813(3) -0.2627(8) 0.3609(5)
C17 C 0.0642(4) -0.4101(14) 0.3213(8)
H9 H 0.0834 -0.4855 0.3328
H10 H 0.0617 -0.3971 0.2688
H11 H 0.0377 -0.4336 0.3392
C18 C 0.1081(2) -0.2770(8) 0.4070(4)
H12 H 0.1245 -0.3574 0.4135
C19 C 0.0830(2) -0.0744(8) 0.4194(4)
H13 H 0.0753 0.0122 0.4388
C20 C 0.0690(3) -0.1284(10) 0.3624(5)
H14 H 0.0524 -0.0834 0.3262
N2 N 0.11122(17) -0.1607(6) 0.4482(3)
C21 C 0.1369(2) -0.1361(7) 0.4999(4)
H15 H 0.1277 -0.0504 0.5235
H16 H 0.1625 -0.1123 0.4774
C22 C 0.1477(3) -0.2337(11) 0.5584(5)
H17 H 0.1759 -0.2000 0.5656
H18 H 0.1503 -0.3143 0.5259
C23 C 0.1491(4) -0.3291(12) 0.6345(6)
H19 H 0.1274 -0.3938 0.6176
H20 H 0.1347 -0.2602 0.6633
C24 C 0.1661(3) -0.4324(9) 0.7104(5)
H21 H 0.1703 -0.3751 0.7545
H22 H 0.1915 -0.4817 0.7009
C25 C 0.1211(7) -0.563(2) 0.7197(14)
H23 H 0.1268 -0.6235 0.7615
H24 H 0.1179 -0.6195 0.6758
H25 H 0.0961 -0.5112 0.7264
loop_
_geom_bond_atom_site_label_1
_geom_bond_atom_site_label_2
_geom_bond_site_symmetry_1
_geom_bond_site_symmetry_2
Co1 O2 1_555 1_555
Co2 O1 1_555 1_555
O1 C4 1_555 1_555
O2 Co2 1_555 1_555
O3 Co1 1_555 1_555
O4 C2 1_555 1_555
O5 C2 1_555 1_555
C1 C3 1_555 1_555
C2 C6 1_555 1_555
C3 H1 1_555 1_555
O6 Co1 1_555 1_555
C4 O3 1_555 1_555
C5 O2 1_555 1_555
C6 C10 1_555 1_555
C7 C4 1_555 1_555
C8 C1 1_555 1_555
H2 C8 1_555 1_555
C9 C7 1_555 1_555
H3 C9 1_555 1_555
C10 C9 1_555 1_555
H4 C10 1_555 1_555
C11 C7 1_555 1_555
H5 C11 1_555 1_555
C12 C6 1_555 1_555
H6 C12 1_555 1_555
O7 C5 1_555 1_555
O8 C13 1_555 1_555
C13 O6 1_555 1_555
C14 C13 1_555 1_555
C15 C14 1_555 1_555
H7 C15 1_555 1_555
C16 C14 1_555 1_555
H8 C16 1_555 1_555
N1 C17 1_555 1_555
C17 H9 1_555 1_555
H10 C17 1_555 1_555
H11 C17 1_555 1_555
C18 N1 1_555 1_555
H12 C18 1_555 1_555
C19 H13 1_555 1_555
C20 N1 1_555 1_555
H14 C20 1_555 1_555
N2 C18 1_555 1_555
C21 N2 1_555 1_555
H15 C21 1_555 1_555
H16 C21 1_555 1_555
C22 C21 1_555 1_555
H17 C22 1_555 1_555
H18 C22 1_555 1_555
C23 C22 1_555 1_555
H19 C23 1_555 1_555
H20 C23 1_555 1_555
C24 C23 1_555 1_555
H21 C24 1_555 1_555
H22 C24 1_555 1_555
C25 C24 1_555 1_555
H23 C25 1_555 1_555
H24 C25 1_555 1_555
H25 C25 1_555 1_555
O2F C5F 1_555 1_555
C1F C3F 1_555 1_555
C3F C8 1_555 1_555
H1F C3F 1_555 1_555
C5F C1F 1_555 1_555
C8F C3 1_555 1_555
H2F C8F 1_555 1_555
O7F C5F 1_555 1_555
O6D C13D 1_555 1_555
O8D C13D 1_555 1_555
C13D C14D 1_555 1_555
C14D C15D 1_555 1_555
C15D C16 1_555 1_555
H7D C15D 1_555 1_555
C16D C15 1_555 1_555
H8D C16D 1_555 1_555
Co1D O6D 1_555 1_555
O1D C4D 1_555 1_555
O3D Co1D 1_555 1_555
O4D C2D 1_555 1_555
O5D C2D 1_555 1_555
C2D C6D 1_555 1_555
C4D O3D 1_555 1_555
C6D C10D 1_555 1_555
C7D C4D 1_555 1_555
C9D C7D 1_555 1_555
H3D C9D 1_555 1_555
C10D C9D 1_555 1_555
H4D C10D 1_555 1_555
C11D C7D 1_555 1_555
H5D C11D 1_555 1_555
C12D C6D 1_555 1_555
H6D C12D 1_555 1_555
Co1A O5D 1_555 1_555
Co1E O5 1_555 1_555
Co1F O2F 1_555 1_555
Co2_2 O2F 1_555 1_555
Co2A O4D 1_555 1_555
Co2B O1D 1_555 1_555
Co2C O4 1_555 1_555
O1F Co2 1_555 1_555
O2D Co1D 1_555 1_555
O2F_2 Co2 1_555 1_555
O4C Co2 1_555 1_555
O4E Co2 1_555 1_555
O5A Co1D 1_555 1_555
O5E Co1 1_555 1_555
C1 C5 1_555 1_555
C11 C12 1_555 1_555
C19 C20 1_555 1_555
C19 N2 1_555 1_555
C1F C8F 1_555 1_555
C14D C16D 1_555 1_555
C11D C12D 1_555 1_555
Co2B O2D 1_555 1_555

#END
