
#######################################################################
#
#                 Cambridge Crystallographic Data Centre
#                                CCDC 
#
#######################################################################
#
# If this CIF has been generated from an entry in the Cambridge 
# Structural Database, then it will include bibliographic, chemical, 
# crystal, experimental, refinement or atomic coordinate data resulting 
# from the CCDC's data processing and validation procedures.
#
#######################################################################

data_JOQRUE
_symmetry_cell_setting           monoclinic
_symmetry_space_group_name_H-M   'C 2/c'
_symmetry_Int_Tables_number      15
_space_group_name_Hall           '-C 2yn'
loop_
_symmetry_equiv_pos_site_id
_symmetry_equiv_pos_as_xyz
1 x,y,z
2 -x,y,1/2-z
3 1/2+x,1/2+y,z
4 1/2-x,1/2+y,1/2-z
5 -x,-y,-z
6 x,-y,1/2+z
7 1/2-x,1/2-y,-z
8 1/2+x,1/2-y,1/2+z
_cell_length_a                   20.8634(7)
_cell_length_b                   21.3369(8)
_cell_length_c                   22.7994(8)
_cell_angle_alpha                90
_cell_angle_beta                 98.646(2)
_cell_angle_gamma                90
_cell_volume                     10034
loop_
_atom_site_label
_atom_site_type_symbol
_atom_site_fract_x
_atom_site_fract_y
_atom_site_fract_z
Cu1 Cu 0.11320(2) 0.18791(2) 0.788233(19)
Cu2 Cu 0.09915(2) 0.08675(2) 0.731584(19)
Cu3 Cu 0.54510(2) 0.02265(3) 0.71866(2)
Cu4 Cu 0.44289(2) 0.24821(2) 0.723627(18)
N1 N 0.09941(19) 0.23659(19) 1.01764(16)
N2 N 0.09926(14) 0.13676(16) 0.85711(12)
N3 N 0.09183(14) 0.04345(16) 0.80478(13)
N4 N 0.07576(15) -0.15409(16) 0.79239(13)
N5 N 0.06046(16) 0.42692(17) 0.70999(14)
N6 N 0.07904(14) 0.22907(16) 0.71255(13)
N7 N 0.07396(14) 0.13572(16) 0.66085(12)
N8 N 0.0880(2) 0.0353(2) 0.50323(15)
N9 N 0.20070(18) 0.0702(2) 0.72193(18)
N10 N 0.39851(16) 0.04854(17) 0.70908(15)
N11 N 0.48132(16) 0.05145(17) 0.65256(14)
N12 N 0.5421(3) 0.0864(2) 0.48751(17)
N13 N 0.21371(14) 0.21064(17) 0.80017(13)
N14 N 0.41628(13) 0.23021(15) 0.80019(13)
N15 N 0.52225(14) 0.22697(16) 0.84863(13)
N16 N 0.65712(17) 0.2100(2) 1.00594(15)
C1 C 0.1097(3) 0.2626(2) 0.9665(2)
H1 H 0.1172 0.3056 0.9661
C2 C 0.1100(2) 0.2303(2) 0.91503(19)
H2 H 0.1177 0.2518 0.8813
C3 C 0.09914(17) 0.1672(2) 0.91165(15)
C4 C 0.0856(4) 0.1402(3) 0.9640(2)
H3 H 0.0757 0.0977 0.9652
C5 C 0.0869(3) 0.1764(3) 1.0138(2)
H4 H 0.0780 0.1565 1.0480
C6 C 0.09352(17) 0.0750(2) 0.85515(16)
H5 H 0.0906 0.0532 0.8899
C7 C 0.08929(19) -0.1169(2) 0.74836(15)
H6 H 0.0950 -0.1357 0.7127
C8 C 0.09527(19) -0.0535(2) 0.75246(16)
H7 H 0.1053 -0.0308 0.7202
C9 C 0.08647(17) -0.02147(19) 0.80469(15)
C10 C 0.07175(18) -0.0594(2) 0.85065(15)
H8 H 0.0652 -0.0417 0.8865
C11 C 0.06695(18) -0.1235(2) 0.84245(16)
H9 H 0.0568 -0.1474 0.8739
C12 C 0.09693(19) 0.3945(2) 0.75420(16)
H10 H 0.1191 0.4172 0.7857
C13 C 0.10327(18) 0.3311(2) 0.75567(16)
H11 H 0.1291 0.3121 0.7875
C14 C 0.07115(17) 0.29443(19) 0.70949(16)
C15 C 0.03187(18) 0.3270(2) 0.66400(16)
H12 H 0.0081 0.3054 0.6326
C16 C 0.02892(19) 0.3914(2) 0.66648(17)
H13 H 0.0030 0.4119 0.6355
C17 C 0.06973(17) 0.1967(2) 0.66239(16)
H14 H 0.0598 0.2184 0.6268
C18 C 0.1030(3) 0.0952(3) 0.50845(19)
H15 H 0.1174 0.1144 0.4762
C19 C 0.0990(2) 0.1321(2) 0.55776(17)
H16 H 0.1119 0.1738 0.5584
C20 C 0.07544(19) 0.1059(2) 0.60675(16)
C21 C 0.0580(2) 0.0423(2) 0.60141(16)
H17 H 0.0417 0.0222 0.6322
C22 C 0.0651(2) 0.0099(2) 0.55055(19)
H18 H 0.0533 -0.0322 0.5485
C23 C 0.25659(18) 0.1933(2) 0.84681(17)
H19 H 0.2404 0.1757 0.8789
C24 C 0.32280(18) 0.1994(2) 0.85139(17)
H20 H 0.3496 0.1873 0.8859
C25 C 0.34930(17) 0.2241(2) 0.80359(16)
C26 C 0.30545(18) 0.2437(2) 0.75510(17)
H21 H 0.3203 0.2616 0.7225
C27 C 0.23980(18) 0.2363(2) 0.75547(16)
H22 H 0.2117 0.2500 0.7224
C28 C 0.45899(17) 0.22389(19) 0.84900(15)
H23 H 0.4440 0.2170 0.8849
C29 C 0.6732(2) 0.2177(3) 0.9524(2)
H24 H 0.7171 0.2204 0.9495
C30 C 0.6297(2) 0.2222(3) 0.90056(19)
H25 H 0.6449 0.2262 0.8644
C31 C 0.56416(18) 0.2208(2) 0.90193(16)
C32 C 0.54710(19) 0.2147(2) 0.95852(17)
H26 H 0.5037 0.2149 0.9635
C33 C 0.5944(2) 0.2085(2) 1.00677(17)
H27 H 0.5809 0.2026 1.0434
C34 C 0.2410(2) 0.0419(3) 0.7616(2)
H28 H 0.2253 0.0253 0.7943
C35 C 0.3062(2) 0.0347(3) 0.75838(19)
H29 H 0.3326 0.0140 0.7888
C36 C 0.33274(19) 0.0575(2) 0.71147(19)
C37 C 0.2918(3) 0.0925(4) 0.6725(3)
H30 H 0.3073 0.1122 0.6410
C38 C 0.2271(3) 0.0991(4) 0.6792(3)
H31 H 0.2009 0.1248 0.6527
C39 C 0.4203(2) 0.0591(2) 0.65893(18)
H32 H 0.3912 0.0725 0.6264
C40 C 0.5815(3) 0.0865(3) 0.5380(2)
H33 H 0.6251 0.0943 0.5368
C41 C 0.5631(2) 0.0759(2) 0.5934(2)
H34 H 0.5934 0.0780 0.6277
C42 C 0.4989(2) 0.0622(2) 0.59621(18)
C43 C 0.4577(2) 0.0607(2) 0.5429(2)
H35 H 0.4140 0.0520 0.5422
C44 C 0.4807(3) 0.0719(3) 0.4918(2)
H36 H 0.4516 0.0693 0.4567
Cu3A Cu 0.45490(2) 0.02265(3) 0.78134(2)
Cu3B Cu 0.04510(2) 0.52265(3) 0.71866(2)
Cu4A Cu 0.55711(2) 0.24821(2) 0.776373(18)
Cu4C Cu 0.05711(2) -0.25179(2) 0.776373(18)
N4C N 0.42424(15) 0.34591(16) 0.70761(13)
N5B N 0.56046(16) -0.07308(17) 0.70999(14)
N10A N 0.60149(16) 0.04854(17) 0.79092(15)
N15A N 0.47775(14) 0.22697(16) 0.65137(13)
C45 C 0.7364(3) 0.13948(15) 1.1355(3)
O1 O 0.7042(7) 0.0858(4) 1.1115(6)
O3 O 0.7579(3) 0.0910(6) 0.3670(9)
C46 C 0.7151(8) 0.1369(8) 0.3815(8)
O2? O 0.7207(3) 0.20236(17) 1.1238(2)
O4? O 0.6388(2) 0.0786(5) 0.4057(3)
C47? C 0.6973(5) 0.0499(9) 0.4295(7)
loop_
_geom_bond_atom_site_label_1
_geom_bond_atom_site_label_2
_geom_bond_site_symmetry_1
_geom_bond_site_symmetry_2
Cu1 Cu2 1_555 1_555
Cu2 N3 1_555 1_555
Cu3 N11 1_555 1_555
Cu4 N14 1_555 1_555
N1 C1 1_555 1_555
N2 Cu1 1_555 1_555
N3 C6 1_555 1_555
N4 C7 1_555 1_555
N5 C12 1_555 1_555
N6 Cu1 1_555 1_555
N7 Cu2 1_555 1_555
N8 C18 1_555 1_555
N9 Cu2 1_555 1_555
N10 C36 1_555 1_555
N11 C39 1_555 1_555
N12 C40 1_555 1_555
N13 Cu1 1_555 1_555
N14 C25 1_555 1_555
N15 C28 1_555 1_555
N16 C29 1_555 1_555
C1 H1 1_555 1_555
C2 C1 1_555 1_555
H2 C2 1_555 1_555
C3 N2 1_555 1_555
C4 C3 1_555 1_555
H3 C4 1_555 1_555
C5 N1 1_555 1_555
H4 C5 1_555 1_555
C6 N2 1_555 1_555
H5 C6 1_555 1_555
C7 H6 1_555 1_555
C8 C7 1_555 1_555
H7 C8 1_555 1_555
C9 N3 1_555 1_555
C10 C9 1_555 1_555
H8 C10 1_555 1_555
C11 N4 1_555 1_555
H9 C11 1_555 1_555
C12 H10 1_555 1_555
C13 C12 1_555 1_555
H11 C13 1_555 1_555
C14 N6 1_555 1_555
C15 C14 1_555 1_555
H12 C15 1_555 1_555
C16 N5 1_555 1_555
H13 C16 1_555 1_555
C17 N6 1_555 1_555
H14 C17 1_555 1_555
C18 H15 1_555 1_555
C19 C18 1_555 1_555
H16 C19 1_555 1_555
C20 N7 1_555 1_555
C21 C20 1_555 1_555
H17 C21 1_555 1_555
C22 N8 1_555 1_555
H18 C22 1_555 1_555
C23 N13 1_555 1_555
H19 C23 1_555 1_555
C24 C23 1_555 1_555
H20 C24 1_555 1_555
C25 C24 1_555 1_555
C26 C25 1_555 1_555
H21 C26 1_555 1_555
C27 N13 1_555 1_555
H22 C27 1_555 1_555
C28 N14 1_555 1_555
H23 C28 1_555 1_555
C29 H24 1_555 1_555
C30 C29 1_555 1_555
H25 C30 1_555 1_555
C31 N15 1_555 1_555
C32 C31 1_555 1_555
H26 C32 1_555 1_555
C33 N16 1_555 1_555
H27 C33 1_555 1_555
C34 N9 1_555 1_555
H28 C34 1_555 1_555
C35 C34 1_555 1_555
H29 C35 1_555 1_555
C36 C35 1_555 1_555
C37 C36 1_555 1_555
H30 C37 1_555 1_555
C38 N9 1_555 1_555
H31 C38 1_555 1_555
C39 N10 1_555 1_555
H32 C39 1_555 1_555
C40 H33 1_555 1_555
C41 C40 1_555 1_555
H34 C41 1_555 1_555
C42 N11 1_555 1_555
C43 C42 1_555 1_555
H35 C43 1_555 1_555
C44 N12 1_555 1_555
H36 C44 1_555 1_555
C45 O1 1_555 1_555
O3 C46 1_555 1_555
Cu3A Cu3 1_555 1_555
Cu3B N5 1_555 1_555
Cu4A Cu4 1_555 1_555
Cu4C N4 1_555 1_555
N4C Cu4 1_555 1_555
N5B Cu3 1_555 1_555
N10A Cu3 1_555 1_555
N15A Cu4 1_555 1_555
N7 C17 1_555 1_555
N10 Cu3A 1_555 1_555
N15 Cu4A 1_555 1_555
C2 C3 1_555 1_555
C4 C5 1_555 1_555
C8 C9 1_555 1_555
C10 C11 1_555 1_555
C13 C14 1_555 1_555
C15 C16 1_555 1_555
C19 C20 1_555 1_555
C21 C22 1_555 1_555
C26 C27 1_555 1_555
C30 C31 1_555 1_555
C32 C33 1_555 1_555
C37 C38 1_555 1_555
C41 C42 1_555 1_555
C43 C44 1_555 1_555

#END
