
#######################################################################
#
#                 Cambridge Crystallographic Data Centre
#                                CCDC 
#
#######################################################################
#
# If this CIF has been generated from an entry in the Cambridge 
# Structural Database, then it will include bibliographic, chemical, 
# crystal, experimental, refinement or atomic coordinate data resulting 
# from the CCDC's data processing and validation procedures.
#
#######################################################################

data_JOQROY
_symmetry_cell_setting           monoclinic
_symmetry_space_group_name_H-M   'P 21/c'
_symmetry_Int_Tables_number      14
_space_group_name_Hall           '-P 2ybc'
loop_
_symmetry_equiv_pos_site_id
_symmetry_equiv_pos_as_xyz
1 x,y,z
2 -x,1/2+y,1/2-z
3 -x,-y,-z
4 x,1/2-y,1/2+z
_cell_length_a                   10.5252(2)
_cell_length_b                   11.1791(2)
_cell_length_c                   13.0198(2)
_cell_angle_alpha                90
_cell_angle_beta                 106.2320(10)
_cell_angle_gamma                90
_cell_volume                     1470.87
loop_
_atom_site_label
_atom_site_type_symbol
_atom_site_fract_x
_atom_site_fract_y
_atom_site_fract_z
Cu1 Cu 0.419160(16) 0.583420(16) 0.461520(13)
N1 N -0.11712(13) 0.48806(14) 0.29032(12)
N2 N 0.28284(12) 0.47197(11) 0.47474(10)
N3 N 0.44264(12) 0.36861(11) 0.60221(9)
N4 N 0.53834(12) 0.18344(12) 0.89517(10)
C1 C -0.03661(17) 0.58337(15) 0.30762(14)
H1 H -0.0714 0.6558 0.2773
C2 C 0.09424(16) 0.58148(14) 0.36734(13)
H2 H 0.1449 0.6508 0.3757
C3 C 0.15039(14) 0.47462(13) 0.41526(11)
C4 C 0.06831(15) 0.37345(15) 0.39597(13)
H3 H 0.1007 0.2994 0.4239
C5 C -0.06143(17) 0.38551(16) 0.33483(15)
H4 H -0.1143 0.3174 0.3236
C6 C 0.31724(14) 0.39361(13) 0.55446(11)
H5 H 0.2514 0.3554 0.5772
C7 C 0.47002(14) 0.30609(13) 0.69865(11)
C8 C 0.40273(15) 0.32703(14) 0.77602(12)
H6 H 0.3341 0.3823 0.7634
C9 C 0.43993(15) 0.26437(14) 0.87119(12)
H7 H 0.3943 0.2790 0.9216
C10 C 0.60138(15) 0.16289(14) 0.82001(12)
H8 H 0.6683 0.1058 0.8342
C11 C 0.57226(15) 0.22178(14) 0.72329(12)
H9 H 0.6202 0.2056 0.6748
Cu1A Cu 0.580840(16) 0.083420(16) 1.038480(13)
Cu1B Cu 0.580840(16) 0.416580(16) 0.538480(13)
N3B N 0.55736(12) 0.63139(11) 0.39779(9)
N4A N 0.46166(12) 0.68344(12) 0.60483(10)
O1 O 0.2258(2) 0.10978(15) 0.52906(16)
C12 C 0.2781(3) 0.0077(2) 0.4924(2)
H10 H 0.3700 -0.0036 0.5322
H11 H 0.2726 0.0156 0.4171
C13 C 0.1964(2) -0.09445(19) 0.50992(18)
H12 H 0.2467 -0.1683 0.5205
H13 H 0.1181 -0.1042 0.4499
C14 C 0.1591(2) -0.0587(2) 0.6116(2)
H14 H 0.0646 -0.0669 0.6016
H15 H 0.2061 -0.1071 0.6721
C15 C 0.2015(3) 0.0715(2) 0.6274(2)
H16 H 0.1323 0.1195 0.6428
H17 H 0.2811 0.0792 0.6865
loop_
_geom_bond_atom_site_label_1
_geom_bond_atom_site_label_2
_geom_bond_site_symmetry_1
_geom_bond_site_symmetry_2
Cu1 N2 1_555 1_555
N1 C1 1_555 1_555
N2 C3 1_555 1_555
N3 C6 1_555 1_555
N4 C9 1_555 1_555
C1 H1 1_555 1_555
C2 C1 1_555 1_555
H2 C2 1_555 1_555
C3 C2 1_555 1_555
C4 C3 1_555 1_555
H3 C4 1_555 1_555
C5 N1 1_555 1_555
H4 C5 1_555 1_555
C6 N2 1_555 1_555
H5 C6 1_555 1_555
C7 N3 1_555 1_555
C8 C7 1_555 1_555
H6 C8 1_555 1_555
C9 C8 1_555 1_555
H7 C9 1_555 1_555
C10 N4 1_555 1_555
H8 C10 1_555 1_555
C11 C7 1_555 1_555
H9 C11 1_555 1_555
O1 C12 1_555 1_555
C12 H10 1_555 1_555
H11 C12 1_555 1_555
C13 C12 1_555 1_555
H12 C13 1_555 1_555
H13 C13 1_555 1_555
C14 C13 1_555 1_555
H14 C14 1_555 1_555
H15 C14 1_555 1_555
C15 O1 1_555 1_555
H16 C15 1_555 1_555
H17 C15 1_555 1_555
Cu1A N4 1_555 1_555
Cu1B Cu1 1_555 1_555
N3B Cu1 1_555 1_555
N4A Cu1 1_555 1_555
N3 Cu1B 1_555 1_555
C4 C5 1_555 1_555
C10 C11 1_555 1_555
C14 C15 1_555 1_555

#END
