
#######################################################################
#
#                 Cambridge Crystallographic Data Centre
#                                CCDC 
#
#######################################################################
#
# If this CIF has been generated from an entry in the Cambridge 
# Structural Database, then it will include bibliographic, chemical, 
# crystal, experimental, refinement or atomic coordinate data resulting 
# from the CCDC's data processing and validation procedures.
#
#######################################################################

data_JOQREO
_symmetry_cell_setting           monoclinic
_symmetry_space_group_name_H-M   'P 21/c'
_symmetry_Int_Tables_number      14
_space_group_name_Hall           '-P 2ybc'
loop_
_symmetry_equiv_pos_site_id
_symmetry_equiv_pos_as_xyz
1 x,y,z
2 -x,1/2+y,1/2-z
3 -x,-y,-z
4 x,1/2-y,1/2+z
_cell_length_a                   10.6688(3)
_cell_length_b                   11.4952(3)
_cell_length_c                   12.9734(3)
_cell_angle_alpha                90
_cell_angle_beta                 106.7220(10)
_cell_angle_gamma                90
_cell_volume                     1523.78
loop_
_atom_site_label
_atom_site_type_symbol
_atom_site_fract_x
_atom_site_fract_y
_atom_site_fract_z
Cu1 Cu 0.42339(2) 0.58461(2) 0.463020(19)
N1 N -0.1086(2) 0.5051(3) 0.2946(2)
N2 N 0.28669(16) 0.47938(15) 0.47834(13)
N3 N 0.44270(16) 0.37523(15) 0.60563(13)
N4 N 0.53773(18) 0.19051(17) 0.89766(15)
C1 C -0.0285(3) 0.5948(3) 0.3138(3)
H1 H -0.0620 0.6662 0.2849
C2 C 0.1022(3) 0.5909(2) 0.3739(2)
H2 H 0.1536 0.6576 0.3840
C3 C 0.15447(19) 0.48593(19) 0.41846(16)
C4 C 0.0716(2) 0.3908(2) 0.3975(2)
H3 H 0.1020 0.3179 0.4244
C5 C -0.0563(3) 0.4054(3) 0.3363(3)
H4 H -0.1100 0.3400 0.3235
C6 C 0.31932(19) 0.40273(16) 0.55753(16)
H5 H 0.2535 0.3671 0.5801
C7 C 0.4368(2) 0.2653(2) 0.87155(18)
H6 H 0.3888 0.2757 0.9204
C8 C 0.4001(2) 0.3275(2) 0.77706(17)
H7 H 0.3295 0.3784 0.7635
C9 C 0.46943(19) 0.31368(17) 0.70151(16)
C10 C 0.5742(2) 0.2361(2) 0.72893(18)
H8 H 0.6247 0.2244 0.6821
C11 C 0.6031(2) 0.1770(2) 0.82427(19)
H9 H 0.6722 0.1244 0.8392
Cu1A Cu 0.57661(2) 0.08461(2) 1.036980(19)
Cu1B Cu 0.57661(2) 0.41539(2) 0.536980(19)
N3B N 0.55730(16) 0.62477(15) 0.39437(13)
N4A N 0.46227(18) 0.69051(17) 0.60234(15)
O1 O 0.1950(6) 0.1355(3) 0.5093(4)
C12 C 0.2305(9) 0.0264(6) 0.6630(5)
H10 H 0.2097 0.0969 0.6941
H11 H 0.3183 0.0032 0.7003
H12 H 0.1707 -0.0338 0.6692
C13 C 0.2200(6) 0.0454(4) 0.5519(4)
C14 C 0.2554(12) -0.0507(7) 0.4942(6)
H13 H 0.2352 -0.0315 0.4192
H14 H 0.2072 -0.1187 0.5028
H15 H 0.3475 -0.0658 0.5223
loop_
_geom_bond_atom_site_label_1
_geom_bond_atom_site_label_2
_geom_bond_site_symmetry_1
_geom_bond_site_symmetry_2
Cu1 N2 1_555 1_555
N1 C1 1_555 1_555
N2 C3 1_555 1_555
N3 C6 1_555 1_555
N4 C7 1_555 1_555
C1 H1 1_555 1_555
C2 C1 1_555 1_555
H2 C2 1_555 1_555
C3 C2 1_555 1_555
C4 C3 1_555 1_555
H3 C4 1_555 1_555
C5 N1 1_555 1_555
H4 C5 1_555 1_555
C6 N2 1_555 1_555
H5 C6 1_555 1_555
C7 H6 1_555 1_555
C8 C7 1_555 1_555
H7 C8 1_555 1_555
C9 N3 1_555 1_555
C10 C9 1_555 1_555
H8 C10 1_555 1_555
C11 N4 1_555 1_555
H9 C11 1_555 1_555
O1 C13 1_555 1_555
C12 H10 1_555 1_555
H11 C12 1_555 1_555
H12 C12 1_555 1_555
C13 C12 1_555 1_555
C14 C13 1_555 1_555
H13 C14 1_555 1_555
H14 C14 1_555 1_555
H15 C14 1_555 1_555
Cu1A N4 1_555 1_555
Cu1B Cu1 1_555 1_555
N3B Cu1 1_555 1_555
N4A Cu1 1_555 1_555
N3 Cu1B 1_555 1_555
C4 C5 1_555 1_555
C8 C9 1_555 1_555
C10 C11 1_555 1_555

#END
