
#######################################################################
#
#                 Cambridge Crystallographic Data Centre
#                                CCDC 
#
#######################################################################
#
# If this CIF has been generated from an entry in the Cambridge 
# Structural Database, then it will include bibliographic, chemical, 
# crystal, experimental, refinement or atomic coordinate data resulting 
# from the CCDC's data processing and validation procedures.
#
#######################################################################

data_JOQSEP
_symmetry_cell_setting           monoclinic
_symmetry_space_group_name_H-M   'C 2/c'
_symmetry_Int_Tables_number      15
_space_group_name_Hall           '-C 2yn'
loop_
_symmetry_equiv_pos_site_id
_symmetry_equiv_pos_as_xyz
1 x,y,z
2 -x,y,1/2-z
3 1/2+x,1/2+y,z
4 1/2-x,1/2+y,1/2-z
5 -x,-y,-z
6 x,-y,1/2+z
7 1/2-x,1/2-y,-z
8 1/2+x,1/2-y,1/2+z
_cell_length_a                   21.0123(5)
_cell_length_b                   21.4061(5)
_cell_length_c                   22.6642(5)
_cell_angle_alpha                90
_cell_angle_beta                 99.4950(10)
_cell_angle_gamma                90
_cell_volume                     10054.5
loop_
_atom_site_label
_atom_site_type_symbol
_atom_site_fract_x
_atom_site_fract_y
_atom_site_fract_z
Cu1 Cu 0.11445(3) 0.19060(3) 0.78724(3)
Cu2 Cu 0.10387(3) 0.08905(3) 0.73168(3)
Cu3 Cu 0.54363(3) 0.02167(3) 0.71713(3)
Cu4 Cu 0.44320(3) 0.25245(3) 0.72297(3)
N1 N 0.0979(2) 0.2409(2) 1.0176(2)
N2 N 0.1013(2) 0.1403(2) 0.85686(18)
N3 N 0.0936(2) 0.04716(19) 0.80508(18)
N4 N 0.0751(2) -0.1494(2) 0.79263(19)
N5 N 0.0570(2) 0.4265(2) 0.70703(19)
N6 N 0.0784(2) 0.23001(19) 0.70983(19)
N7 N 0.0755(2) 0.1361(2) 0.65924(19)
N8 N 0.0866(3) 0.0348(3) 0.5016(2)
N9 N 0.2028(2) 0.0767(2) 0.7243(2)
N10 N 0.3989(2) 0.0502(2) 0.7107(2)
N11 N 0.4792(2) 0.05266(19) 0.65233(19)
N12 N 0.5326(2) 0.0885(2) 0.4834(2)
N13 N 0.2153(2) 0.2152(2) 0.7991(2)
N14 N 0.4158(2) 0.23466(19) 0.79940(19)
N15 N 0.5213(2) 0.23098(19) 0.84860(19)
N16 N 0.6594(2) 0.2159(2) 1.0076(2)
C1 C 0.1206(3) 0.2638(3) 0.9707(3)
H1 H 0.1364 0.3045 0.9736
C2 C 0.1226(3) 0.2320(3) 0.9184(3)
H2 H 0.1389 0.2513 0.8873
C3 C 0.1002(3) 0.1710(2) 0.9120(2)
C4 C 0.0747(3) 0.1472(3) 0.9598(2)
H3 H 0.0571 0.1072 0.9577
C5 C 0.0752(3) 0.1827(3) 1.0105(3)
H4 H 0.0585 0.1649 1.0421
C6 C 0.0947(2) 0.0790(2) 0.8551(2)
H5 H 0.0908 0.0576 0.8901
C7 C 0.0919(3) -0.1135(2) 0.7493(2)
H6 H 0.0996 -0.1329 0.7145
C8 C 0.0984(3) -0.0497(2) 0.7530(2)
H7 H 0.1102 -0.0275 0.7212
C9 C 0.0871(2) -0.0177(2) 0.8046(2)
C10 C 0.0703(3) -0.0552(2) 0.8498(2)
H8 H 0.0636 -0.0373 0.8857
C11 C 0.0636(3) -0.1190(2) 0.8412(2)
H9 H 0.0501 -0.1424 0.8715
C12 C 0.0925(3) 0.3951(2) 0.7523(2)
H10 H 0.1138 0.4181 0.7844
C13 C 0.0993(3) 0.3314(2) 0.7543(2)
H11 H 0.1243 0.3124 0.7871
C14 C 0.0685(3) 0.2948(2) 0.7067(2)
C15 C 0.0300(3) 0.3269(2) 0.6603(2)
H12 H 0.0072 0.3050 0.6282
C16 C 0.0259(3) 0.3916(3) 0.6624(2)
H13 H 0.0000 0.4119 0.6310
C17 C 0.0688(3) 0.1974(2) 0.6599(2)
H14 H 0.0569 0.2183 0.6238
C18 C 0.1023(4) 0.0945(3) 0.5072(3)
H15 H 0.1170 0.1132 0.4749
C19 C 0.0991(3) 0.1317(3) 0.5560(2)
H16 H 0.1114 0.1734 0.5563
C20 C 0.0769(3) 0.1052(3) 0.6054(2)
C21 C 0.0609(3) 0.0419(3) 0.6005(2)
H17 H 0.0468 0.0215 0.6322
C22 C 0.0660(3) 0.0100(3) 0.5498(3)
H18 H 0.0543 -0.0319 0.5481
C23 C 0.2585(3) 0.1935(2) 0.8441(2)
H19 H 0.2427 0.1735 0.8751
C24 C 0.3248(3) 0.1984(2) 0.8486(2)
H20 H 0.3520 0.1823 0.8816
C25 C 0.3502(3) 0.2282(2) 0.8022(2)
C26 C 0.3049(3) 0.2520(3) 0.7558(2)
H21 H 0.3189 0.2733 0.7245
C27 C 0.2400(3) 0.2444(3) 0.7555(2)
H22 H 0.2115 0.2605 0.7233
C28 C 0.4582(2) 0.2275(2) 0.8486(2)
H23 H 0.4436 0.2199 0.8845
C29 C 0.6748(3) 0.2276(3) 0.9535(3)
H24 H 0.7180 0.2329 0.9506
C30 C 0.6297(3) 0.2322(3) 0.9020(3)
H25 H 0.6434 0.2401 0.8658
C31 C 0.5643(3) 0.2252(2) 0.9033(2)
C32 C 0.5487(3) 0.2130(2) 0.9592(2)
H26 H 0.5058 0.2078 0.9638
C33 C 0.5967(3) 0.2088(2) 1.0078(2)
H27 H 0.5842 0.2001 1.0444
C34 C 0.2437(3) 0.0421(3) 0.7629(2)
H28 H 0.2273 0.0224 0.7937
C35 C 0.3073(3) 0.0339(3) 0.7599(2)
H29 H 0.3330 0.0099 0.7887
C36 C 0.3341(3) 0.0615(2) 0.7139(2)
C37 C 0.2929(3) 0.1001(3) 0.6757(3)
H30 H 0.3085 0.1221 0.6457
C38 C 0.2292(3) 0.1058(3) 0.6823(3)
H31 H 0.2028 0.1315 0.6556
C39 C 0.4189(3) 0.0622(2) 0.6596(2)
H32 H 0.3897 0.0778 0.6277
C40 C 0.5740(3) 0.0904(2) 0.5351(3)
H33 H 0.6168 0.1006 0.5336
C41 C 0.5577(3) 0.0785(2) 0.5900(2)
H34 H 0.5890 0.0805 0.6242
C42 C 0.4945(3) 0.0634(2) 0.5950(2)
C43 C 0.4517(3) 0.0587(2) 0.5417(2)
H35 H 0.4092 0.0465 0.5418
C44 C 0.4725(2) 0.07224(18) 0.48798(17)
H36 H 0.4425 0.0698 0.4530
Cu3A Cu 0.45637(3) 0.02167(3) 0.78287(3)
Cu3B Cu 0.04363(3) 0.52167(3) 0.71713(3)
Cu4A Cu 0.55680(3) 0.25245(3) 0.77703(3)
Cu4C Cu 0.05680(3) -0.24755(3) 0.77703(3)
N4C N 0.4249(2) 0.3506(2) 0.70737(19)
N5B N 0.5570(2) -0.0735(2) 0.70703(19)
N10A N 0.6011(2) 0.0502(2) 0.7893(2)
N15A N 0.4787(2) 0.23098(19) 0.65140(19)
O1 O 0.3262(2) -0.04882(18) 0.88264(17)
C45 C 0.2966(2) -0.10578(18) 0.86074(17)
H37 H 0.3280 -0.1394 0.8664
H38 H 0.2800 -0.1022 0.8183
C46 C 0.2456(2) -0.11851(18) 0.89292(17)
H39 H 0.2529 -0.1581 0.9137
H40 H 0.2049 -0.1209 0.8656
C47 C 0.2435(2) -0.06942(18) 0.93471(17)
H41 H 0.2019 -0.0487 0.9270
H42 H 0.2499 -0.0860 0.9751
C48 C 0.2934(2) -0.02635(18) 0.92836(17)
H43 H 0.3231 -0.0227 0.9657
H44 H 0.2751 0.0146 0.9177
O2 O 0.1890(4) 0.4305(4) 0.9146(4)
C49 C 0.1945(14) 0.3701(13) 0.8835(12)
C50 C 0.2534(15) 0.3642(14) 0.8704(13)
C51 C 0.2927(15) 0.4300(14) 0.8841(13)
C52 C 0.2621(14) 0.4567(13) 0.9354(12)
C53? C 0.2114(13) 0.4001(13) 0.9664(12)
H45? H 0.2079 0.4267 1.0004
H46? H 0.1862 0.3626 0.9695
C54? C 0.2673(13) 0.3865(13) 0.9663(12)
H47? H 0.2747 0.3452 0.9838
H48? H 0.2940 0.4155 0.9924
C55? C 0.2908(14) 0.3862(15) 0.9058(12)
H49? H 0.3321 0.4073 0.9087
H50? H 0.2952 0.3439 0.8919
C56? C 0.2452(15) 0.4170(15) 0.8691(12)
H51? H 0.2275 0.3917 0.8348
H52? H 0.2616 0.4558 0.8554
loop_
_geom_bond_atom_site_label_1
_geom_bond_atom_site_label_2
_geom_bond_site_symmetry_1
_geom_bond_site_symmetry_2
Cu1 Cu2 1_555 1_555
Cu2 N3 1_555 1_555
Cu3 N11 1_555 1_555
Cu4 N14 1_555 1_555
N1 C1 1_555 1_555
N2 Cu1 1_555 1_555
N3 C6 1_555 1_555
N4 C7 1_555 1_555
N5 C12 1_555 1_555
N6 Cu1 1_555 1_555
N7 Cu2 1_555 1_555
N8 C18 1_555 1_555
N9 Cu2 1_555 1_555
N10 C36 1_555 1_555
N11 C39 1_555 1_555
N12 C40 1_555 1_555
N13 Cu1 1_555 1_555
N14 C25 1_555 1_555
N15 C28 1_555 1_555
N16 C29 1_555 1_555
C1 H1 1_555 1_555
C2 C1 1_555 1_555
H2 C2 1_555 1_555
C3 N2 1_555 1_555
C4 C3 1_555 1_555
H3 C4 1_555 1_555
C5 N1 1_555 1_555
H4 C5 1_555 1_555
C6 N2 1_555 1_555
H5 C6 1_555 1_555
C7 H6 1_555 1_555
C8 C7 1_555 1_555
H7 C8 1_555 1_555
C9 N3 1_555 1_555
C10 C9 1_555 1_555
H8 C10 1_555 1_555
C11 N4 1_555 1_555
H9 C11 1_555 1_555
C12 H10 1_555 1_555
C13 C12 1_555 1_555
H11 C13 1_555 1_555
C14 N6 1_555 1_555
C15 C14 1_555 1_555
H12 C15 1_555 1_555
C16 N5 1_555 1_555
H13 C16 1_555 1_555
C17 N6 1_555 1_555
H14 C17 1_555 1_555
C18 H15 1_555 1_555
C19 C18 1_555 1_555
H16 C19 1_555 1_555
C20 N7 1_555 1_555
C21 C20 1_555 1_555
H17 C21 1_555 1_555
C22 N8 1_555 1_555
H18 C22 1_555 1_555
C23 N13 1_555 1_555
H19 C23 1_555 1_555
C24 C23 1_555 1_555
H20 C24 1_555 1_555
C25 C24 1_555 1_555
C26 C25 1_555 1_555
H21 C26 1_555 1_555
C27 N13 1_555 1_555
H22 C27 1_555 1_555
C28 N14 1_555 1_555
H23 C28 1_555 1_555
C29 H24 1_555 1_555
C30 C29 1_555 1_555
H25 C30 1_555 1_555
C31 N15 1_555 1_555
C32 C31 1_555 1_555
H26 C32 1_555 1_555
C33 N16 1_555 1_555
H27 C33 1_555 1_555
C34 N9 1_555 1_555
H28 C34 1_555 1_555
C35 C34 1_555 1_555
H29 C35 1_555 1_555
C36 C35 1_555 1_555
C37 C36 1_555 1_555
H30 C37 1_555 1_555
C38 N9 1_555 1_555
H31 C38 1_555 1_555
C39 N10 1_555 1_555
H32 C39 1_555 1_555
C40 H33 1_555 1_555
C41 C40 1_555 1_555
H34 C41 1_555 1_555
C42 N11 1_555 1_555
C43 C42 1_555 1_555
H35 C43 1_555 1_555
C44 N12 1_555 1_555
H36 C44 1_555 1_555
O1 C45 1_555 1_555
C45 H37 1_555 1_555
H38 C45 1_555 1_555
C46 C45 1_555 1_555
H39 C46 1_555 1_555
H40 C46 1_555 1_555
C47 C46 1_555 1_555
H41 C47 1_555 1_555
H42 C47 1_555 1_555
C48 O1 1_555 1_555
H43 C48 1_555 1_555
H44 C48 1_555 1_555
O2 C49 1_555 1_555
C49 C50 1_555 1_555
C50 C51 1_555 1_555
C51 C52 1_555 1_555
C52 O2 1_555 1_555
Cu3A Cu3 1_555 1_555
Cu3B N5 1_555 1_555
Cu4A Cu4 1_555 1_555
Cu4C N4 1_555 1_555
N4C Cu4 1_555 1_555
N5B Cu3 1_555 1_555
N10A Cu3 1_555 1_555
N15A Cu4 1_555 1_555
N7 C17 1_555 1_555
N10 Cu3A 1_555 1_555
N15 Cu4A 1_555 1_555
C2 C3 1_555 1_555
C4 C5 1_555 1_555
C8 C9 1_555 1_555
C10 C11 1_555 1_555
C13 C14 1_555 1_555
C15 C16 1_555 1_555
C19 C20 1_555 1_555
C21 C22 1_555 1_555
C26 C27 1_555 1_555
C30 C31 1_555 1_555
C32 C33 1_555 1_555
C37 C38 1_555 1_555
C41 C42 1_555 1_555
C43 C44 1_555 1_555
C47 C48 1_555 1_555

#END
