
#######################################################################
#
#                 Cambridge Crystallographic Data Centre
#                                CCDC 
#
#######################################################################
#
# If this CIF has been generated from an entry in the Cambridge 
# Structural Database, then it will include bibliographic, chemical, 
# crystal, experimental, refinement or atomic coordinate data resulting 
# from the CCDC's data processing and validation procedures.
#
#######################################################################

data_JOQXOE
_symmetry_cell_setting           monoclinic
_symmetry_space_group_name_H-M   'P 21/n'
_symmetry_Int_Tables_number      14
_space_group_name_Hall           '-P 2yn'
loop_
_symmetry_equiv_pos_site_id
_symmetry_equiv_pos_as_xyz
1 x,y,z
2 1/2-x,1/2+y,1/2-z
3 -x,-y,-z
4 1/2+x,1/2-y,1/2+z
_cell_length_a                   12.9273(11)
_cell_length_b                   9.3874(9)
_cell_length_c                   18.2110(16)
_cell_angle_alpha                90
_cell_angle_beta                 107.861(4)
_cell_angle_gamma                90
_cell_volume                     2103.46
loop_
_atom_site_label
_atom_site_type_symbol
_atom_site_fract_x
_atom_site_fract_y
_atom_site_fract_z
Co1 Co -0.19989(5) 0.02992(7) 0.07094(4)
Co2 Co 0.0000 0.0000 0.0000
Br1 Br -0.35085(4) 0.15138(7) 0.09248(3)
C1 C 0.0590(4) -0.1624(6) 0.2345(3)
C2 C 0.0229(4) -0.2076(6) 0.2953(3)
H1 H -0.0501 -0.1978 0.2916
C3 C 0.0929(4) -0.2660(6) 0.3602(3)
H2 H 0.0675 -0.2938 0.4006
C4 C 0.2025(4) -0.2840(6) 0.3663(3)
C5 C 0.2402(4) -0.2403(6) 0.3065(3)
H3 H 0.3131 -0.2517 0.3101
C6 C 0.1695(4) -0.1801(6) 0.2417(3)
H4 H 0.1953 -0.1504 0.2018
C7 C -0.0173(4) -0.1059(5) 0.1624(3)
C8 C 0.2767(4) -0.3584(5) 0.4344(3)
O1 O 0.0116(3) -0.0977(4) 0.1040(2)
O2 O -0.1126(3) -0.0695(4) 0.16429(19)
O3 O 0.3736(3) -0.3765(4) 0.4370(2)
O4 O 0.2361(3) -0.3957(4) 0.48652(18)
C9 C -0.0342(4) 0.3827(5) 0.0344(3)
C10 C 0.0281(4) 0.4933(6) 0.0792(4)
H5 H 0.0466 0.4884 0.1327
C11 C 0.0623(5) 0.6088(6) 0.0455(3)
H6 H 0.1038 0.6803 0.0761
C12 C -0.0710(4) 0.2604(5) 0.0719(3)
O5 O -0.1094(3) 0.1520(4) 0.02624(19)
O6 O -0.0650(3) 0.2617(4) 0.1402(2)
C9B C 0.0342(4) 0.6173(5) -0.0344(3)
C10B C -0.0281(4) 0.5067(6) -0.0792(4)
H5B H -0.0466 0.5116 -0.1327
C11B C -0.0623(5) 0.3912(6) -0.0455(3)
H6B H -0.1038 0.3197 -0.0761
C12B C 0.0710(4) 0.7396(5) -0.0719(3)
O5B O 0.1094(3) 0.8480(4) -0.02624(19)
O6B O 0.0650(3) 0.7383(4) -0.1402(2)
Co1B Co 0.19989(5) -0.02992(7) -0.07094(4)
Br1B Br 0.35085(4) -0.15138(7) -0.09248(3)
C1B C -0.0590(4) 0.1624(6) -0.2345(3)
C2B C -0.0229(4) 0.2076(6) -0.2953(3)
H1B H 0.0501 0.1978 -0.2916
C3B C -0.0929(4) 0.2660(6) -0.3602(3)
H2B H -0.0675 0.2938 -0.4006
C4B C -0.2025(4) 0.2840(6) -0.3663(3)
C5B C -0.2402(4) 0.2403(6) -0.3065(3)
H3B H -0.3131 0.2517 -0.3101
C6B C -0.1695(4) 0.1801(6) -0.2417(3)
H4B H -0.1953 0.1504 -0.2018
C7B C 0.0173(4) 0.1059(5) -0.1624(3)
C8B C -0.2767(4) 0.3584(5) -0.4344(3)
O1B O -0.0116(3) 0.0977(4) -0.1040(2)
O2B O 0.1126(3) 0.0695(4) -0.16429(19)
O3B O -0.3736(3) 0.3765(4) -0.4370(2)
O4B O -0.2361(3) 0.3957(4) -0.48652(18)
Co1A Co -0.30011(5) 0.52992(7) -0.57094(4)
Co1B_2 Co 0.19989(5) 0.97008(7) -0.07094(4)
Co1C Co 0.30011(5) -0.52992(7) 0.57094(4)
Co2_2 Co 0.0000 1.0000 0.0000
Co2A Co -0.5000 0.5000 -0.5000
Co2A_2 Co 0.5000 -0.5000 0.5000
O3A O 0.1264(3) 0.1235(4) 0.0630(2)
O3C O -0.1264(3) -0.1235(4) -0.0630(2)
O4A O 0.2639(3) 0.1043(4) 0.01348(18)
O4C O -0.2639(3) -0.1043(4) -0.01348(18)
O5B_2 O 0.1094(3) -0.1520(4) -0.02624(19)
N1 N -0.2992(4) 0.5981(6) 0.1729(3)
C13 C -0.2160(6) 0.4943(8) 0.2093(5)
H7 H -0.2228 0.4677 0.2585
H8 H -0.1455 0.5351 0.2164
H9 H -0.2246 0.4114 0.1770
N2 N -0.4360(4) 0.7396(5) 0.1502(3)
C14 C -0.6344(6) 0.7301(11) 0.1216(5)
H10 H -0.6950 0.7819 0.1282
H11 H -0.6296 0.6387 0.1460
H12 H -0.6443 0.7174 0.0675
C15 C -0.5323(6) 0.8115(10) 0.1573(5)
H13 H -0.5382 0.9043 0.1329
H14 H -0.5239 0.8263 0.2115
C16 C -0.3965(6) 0.7474(7) 0.0899(4)
H15 H -0.4232 0.8053 0.0468
C17 C -0.3134(5) 0.6587(7) 0.1024(4)
H16 H -0.2724 0.6410 0.0694
C18 C -0.3728(5) 0.6487(7) 0.2007(3)
H17 H -0.3804 0.6253 0.2484
loop_
_geom_bond_atom_site_label_1
_geom_bond_atom_site_label_2
_geom_bond_site_symmetry_1
_geom_bond_site_symmetry_2
Co1 Br1 1_555 1_555
Co2 O1 1_555 1_555
C1 C2 1_555 1_555
C2 H1 1_555 1_555
C3 C2 1_555 1_555
H2 C3 1_555 1_555
C4 C3 1_555 1_555
C5 C4 1_555 1_555
H3 C5 1_555 1_555
C6 C1 1_555 1_555
H4 C6 1_555 1_555
C7 C1 1_555 1_555
C8 C4 1_555 1_555
O1 C7 1_555 1_555
O2 Co1 1_555 1_555
O3 C8 1_555 1_555
O4 C8 1_555 1_555
C9 C10 1_555 1_555
C10 H5 1_555 1_555
C11 C10 1_555 1_555
H6 C11 1_555 1_555
C12 C9 1_555 1_555
O5 Co1 1_555 1_555
O6 C12 1_555 1_555
N1 C13 1_555 1_555
C13 H7 1_555 1_555
H8 C13 1_555 1_555
H9 C13 1_555 1_555
N2 C15 1_555 1_555
C14 H10 1_555 1_555
H11 C14 1_555 1_555
H12 C14 1_555 1_555
C15 C14 1_555 1_555
H13 C15 1_555 1_555
H14 C15 1_555 1_555
C16 N2 1_555 1_555
H15 C16 1_555 1_555
C17 N1 1_555 1_555
H16 C17 1_555 1_555
C18 N1 1_555 1_555
H17 C18 1_555 1_555
C9B C11 1_555 1_555
C10B C9B 1_555 1_555
H5B C10B 1_555 1_555
C11B C9 1_555 1_555
H6B C11B 1_555 1_555
C12B C9B 1_555 1_555
O5B C12B 1_555 1_555
O6B C12B 1_555 1_555
Co1B Br1B 1_555 1_555
C1B C2B 1_555 1_555
C2B H1B 1_555 1_555
C3B C2B 1_555 1_555
H2B C3B 1_555 1_555
C4B C3B 1_555 1_555
C5B C4B 1_555 1_555
H3B C5B 1_555 1_555
C6B C1B 1_555 1_555
H4B C6B 1_555 1_555
C7B C1B 1_555 1_555
C8B C4B 1_555 1_555
O1B Co2 1_555 1_555
O2B Co1B 1_555 1_555
O3B C8B 1_555 1_555
O4B C8B 1_555 1_555
Co1A O4B 1_555 1_555
Co1B_2 O5B 1_555 1_555
Co1C O4 1_555 1_555
Co2_2 O5B 1_555 1_555
Co2A O3B 1_555 1_555
Co2A_2 O3 1_555 1_555
O3A Co2 1_555 1_555
O3C Co2 1_555 1_555
O4A Co1B 1_555 1_555
O4C Co1 1_555 1_555
O5B_2 Co2 1_555 1_555
Co2 O5 1_555 1_555
C5 C6 1_555 1_555
C7 O2 1_555 1_555
C12 O5 1_555 1_555
N2 C18 1_555 1_555
C16 C17 1_555 1_555
C10B C11B 1_555 1_555
Co1B O5B_2 1_555 1_555
C5B C6B 1_555 1_555
C7B O1B 1_555 1_555
C7B O2B 1_555 1_555

#END
