
#######################################################################
#
#                 Cambridge Crystallographic Data Centre
#                                CCDC 
#
#######################################################################
#
# If this CIF has been generated from an entry in the Cambridge 
# Structural Database, then it will include bibliographic, chemical, 
# crystal, experimental, refinement or atomic coordinate data resulting 
# from the CCDC's data processing and validation procedures.
#
#######################################################################

data_JOQXUK
_symmetry_cell_setting           monoclinic
_symmetry_space_group_name_H-M   'P 21/n'
_symmetry_Int_Tables_number      14
_space_group_name_Hall           '-P 2yn'
loop_
_symmetry_equiv_pos_site_id
_symmetry_equiv_pos_as_xyz
1 x,y,z
2 1/2-x,1/2+y,1/2-z
3 -x,-y,-z
4 1/2+x,1/2-y,1/2+z
_cell_length_a                   12.9773(6)
_cell_length_b                   9.4496(4)
_cell_length_c                   18.2310(9)
_cell_angle_alpha                90
_cell_angle_beta                 108.237(2)
_cell_angle_gamma                90
_cell_volume                     2123.38
loop_
_atom_site_label
_atom_site_type_symbol
_atom_site_fract_x
_atom_site_fract_y
_atom_site_fract_z
Co1 Co 0.80325(3) 0.03284(4) 0.07235(2)
Co2 Co 1.0000 0.0000 0.0000
Br1 Br 0.65423(3) 0.14722(4) 0.09911(2)
O1 O 0.89181(15) -0.0709(2) 0.16322(11)
O2 O 1.02110(17) -0.0883(2) 0.10655(11)
O3 O 1.23276(16) -0.4047(2) 0.48643(11)
O4 O 1.37360(15) -0.3723(2) 0.44261(12)
O5 O 0.89090(14) 0.15323(19) 0.02546(11)
O6 O 0.93400(19) 0.2630(2) 0.13893(12)
C1 C 0.9866(2) -0.1044(3) 0.16243(15)
C2 C 1.0617(2) -0.1689(3) 0.23442(15)
C3 C 1.1717(2) -0.1807(3) 0.24350(17)
H1 H 1.1990 -0.1470 0.2041
C4 C 1.2418(2) -0.2409(3) 0.30928(16)
H2 H 1.3170 -0.2487 0.3152
C5 C 1.2016(2) -0.2900(3) 0.36685(15)
C6 C 1.0920(2) -0.2779(3) 0.35820(16)
H3 H 1.0648 -0.3117 0.3976
C7 C 1.0221(2) -0.2170(3) 0.29250(16)
H4 H 0.9472 -0.2079 0.2871
C8 C 1.2759(2) -0.3609(3) 0.43773(16)
C9 C 0.9306(2) 0.2610(3) 0.07091(16)
C10 C 0.9675(2) 0.3837(3) 0.03416(16)
C11 C 0.9446(2) 0.3895(3) -0.04556(16)
H5 H 0.9065 0.3139 -0.0768
C12 C 1.0227(2) 0.4946(3) 0.07975(15)
H6 H 1.0382 0.4912 0.1342
O5B O 1.10910(14) 0.84677(19) -0.02546(11)
O6B O 1.06600(19) 0.7370(2) -0.13893(12)
C9B C 1.0694(2) 0.7390(3) -0.07091(16)
C10B C 1.0325(2) 0.6163(3) -0.03416(16)
C11B C 1.0554(2) 0.6105(3) 0.04556(16)
H5B H 1.0935 0.6861 0.0768
C12B C 0.9773(2) 0.5054(3) -0.07975(15)
H6B H 0.9618 0.5088 -0.1342
Co1B Co 1.19675(3) -0.03284(4) -0.07235(2)
Br1B Br 1.34577(3) -0.14722(4) -0.09911(2)
O1B O 1.10819(15) 0.0709(2) -0.16322(11)
O2B O 0.97890(17) 0.0883(2) -0.10655(11)
O3B O 0.76724(16) 0.4047(2) -0.48643(11)
O4B O 0.62640(15) 0.3723(2) -0.44261(12)
C1B C 1.0134(2) 0.1044(3) -0.16243(15)
C2B C 0.9383(2) 0.1689(3) -0.23442(15)
C3B C 0.8283(2) 0.1807(3) -0.24350(17)
H1B H 0.8010 0.1470 -0.2041
C4B C 0.7582(2) 0.2409(3) -0.30928(16)
H2B H 0.6830 0.2487 -0.3152
C5B C 0.7984(2) 0.2900(3) -0.36685(15)
C6B C 0.9080(2) 0.2779(3) -0.35820(16)
H3B H 0.9352 0.3117 -0.3976
C7B C 0.9779(2) 0.2170(3) -0.29250(16)
H4B H 1.0528 0.2079 -0.2871
C8B C 0.7241(2) 0.3609(3) -0.43773(16)
Co1A Co 0.69675(3) 0.53284(4) -0.57235(2)
Co1B_2 Co 1.19675(3) 0.96716(4) -0.07235(2)
Co1C Co 1.30325(3) -0.53284(4) 0.57235(2)
Co2_2 Co 1.0000 1.0000 0.0000
Co2A Co 0.5000 0.5000 -0.5000
Co2A_2 Co 1.5000 -0.5000 0.5000
O3A O 1.26724(16) 0.0953(2) 0.01357(11)
O3C O 0.73276(16) -0.0953(2) -0.01357(11)
O4A O 1.12640(15) 0.1277(2) 0.05739(12)
O4C O 0.87360(15) -0.1277(2) -0.05739(12)
O5B_2 O 1.10910(14) -0.15323(19) -0.02546(11)
C13 C 0.7810(2) -0.5094(3) 0.20328(15)
H7 H 0.7873 -0.5275 0.2574
H8 H 0.8514 -0.4787 0.1997
H9 H 0.7583 -0.5962 0.1732
C14 C 0.6284(3) -0.3423(4) 0.2023(2)
H10 H 0.6202 -0.3630 0.2512
C15 C 0.6870(3) -0.3436(5) 0.1039(3)
H11 H 0.7277 -0.3665 0.0703
C16 C 0.4762(5) -0.1706(6) 0.1575(4)
H12 H 0.4879 -0.1517 0.2130
H13 H 0.4733 -0.0781 0.1315
C17 C 0.6070(3) -0.2509(4) 0.0896(2)
H14 H 0.5809 -0.1944 0.0445
C18 C 0.3732(3) -0.2402(4) 0.1258(2)
H15 H 0.3286 -0.2079 0.1577
H16 H 0.3404 -0.1971 0.0742
C19 C 0.3539(5) -0.3751(7) 0.1157(7)
H17 H 0.3737 -0.4073 0.0708
H18 H 0.2766 -0.3929 0.1070
H19 H 0.3969 -0.4266 0.1618
N1 N 0.7008(3) -0.3990(4) 0.1729(2)
N2 N 0.5693(3) -0.2507(3) 0.15010(18)
C20? C 0.7008(3) -0.3990(4) 0.1729(2)
H20? H 0.7536 -0.4679 0.1974
C21? C 0.7673(17) -0.4198(18) 0.0772(14)
H21? H 0.8204 -0.4654 0.1213
H22? H 0.8046 -0.3529 0.0531
H23? H 0.7306 -0.4919 0.0394
N3? N 0.6870(3) -0.3436(5) 0.1039(3)
loop_
_geom_bond_atom_site_label_1
_geom_bond_atom_site_label_2
_geom_bond_site_symmetry_1
_geom_bond_site_symmetry_2
Co1 Br1 1_555 1_555
Co2 O2 1_555 1_555
O1 Co1 1_555 1_555
O2 C1 1_555 1_555
O3 C8 1_555 1_555
O4 C8 1_555 1_555
O5 Co1 1_555 1_555
O6 C9 1_555 1_555
C1 O1 1_555 1_555
C2 C1 1_555 1_555
C3 C2 1_555 1_555
H1 C3 1_555 1_555
C4 C3 1_555 1_555
H2 C4 1_555 1_555
C5 C4 1_555 1_555
C6 C5 1_555 1_555
H3 C6 1_555 1_555
C7 C2 1_555 1_555
H4 C7 1_555 1_555
C8 C5 1_555 1_555
C9 O5 1_555 1_555
C10 C9 1_555 1_555
C11 C10 1_555 1_555
H5 C11 1_555 1_555
C12 C10 1_555 1_555
H6 C12 1_555 1_555
C13 H7 1_555 1_555
H8 C13 1_555 1_555
H9 C13 1_555 1_555
C14 H10 1_555 1_555
C15 H11 1_555 1_555
C16 H12 1_555 1_555
H13 C16 1_555 1_555
C17 C15 1_555 1_555
H14 C17 1_555 1_555
C18 C16 1_555 1_555
H15 C18 1_555 1_555
H16 C18 1_555 1_555
C19 C18 1_555 1_555
H17 C19 1_555 1_555
H18 C19 1_555 1_555
H19 C19 1_555 1_555
N1 C13 1_555 1_555
N2 C14 1_555 1_555
O5B C9B 1_555 1_555
O6B C9B 1_555 1_555
C9B C10B 1_555 1_555
C10B C11B 1_555 1_555
C11B C12 1_555 1_555
H5B C11B 1_555 1_555
C12B C11 1_555 1_555
H6B C12B 1_555 1_555
Co1B Br1B 1_555 1_555
O1B Co1B 1_555 1_555
O2B Co2 1_555 1_555
O3B C8B 1_555 1_555
O4B C8B 1_555 1_555
C1B O1B 1_555 1_555
C2B C1B 1_555 1_555
C3B C2B 1_555 1_555
H1B C3B 1_555 1_555
C4B C3B 1_555 1_555
H2B C4B 1_555 1_555
C5B C4B 1_555 1_555
C6B C5B 1_555 1_555
H3B C6B 1_555 1_555
C7B C2B 1_555 1_555
H4B C7B 1_555 1_555
C8B C5B 1_555 1_555
Co1A O3B 1_555 1_555
Co1B_2 O5B 1_555 1_555
Co1C O3 1_555 1_555
Co2_2 O5B 1_555 1_555
Co2A O4B 1_555 1_555
Co2A_2 O4 1_555 1_555
O3A Co1B 1_555 1_555
O3C Co1 1_555 1_555
O4A Co2 1_555 1_555
O4C Co2 1_555 1_555
O5B_2 Co2 1_555 1_555
Co2 O5 1_555 1_555
C6 C7 1_555 1_555
C14 N1 1_555 1_555
C15 N1 1_555 1_555
C16 N2 1_555 1_555
C17 N2 1_555 1_555
C10B C12B 1_555 1_555
Co1B O5B_2 1_555 1_555
O2B C1B 1_555 1_555
C6B C7B 1_555 1_555

#END
