
#######################################################################
#
#                 Cambridge Crystallographic Data Centre
#                                CCDC 
#
#######################################################################
#
# If this CIF has been generated from an entry in the Cambridge 
# Structural Database, then it will include bibliographic, chemical, 
# crystal, experimental, refinement or atomic coordinate data resulting 
# from the CCDC's data processing and validation procedures.
#
#######################################################################

data_JORCAW
_symmetry_cell_setting           monoclinic
_symmetry_space_group_name_H-M   'P 21/c'
_symmetry_Int_Tables_number      14
_space_group_name_Hall           '-P 2ybc'
loop_
_symmetry_equiv_pos_site_id
_symmetry_equiv_pos_as_xyz
1 x,y,z
2 -x,1/2+y,1/2-z
3 -x,-y,-z
4 x,1/2-y,1/2+z
_cell_length_a                   7.6349(3)
_cell_length_b                   17.1484(5)
_cell_length_c                   8.4454(3)
_cell_angle_alpha                90
_cell_angle_beta                 104.922(4)
_cell_angle_gamma                90
_cell_volume                     1068.44
loop_
_atom_site_label
_atom_site_type_symbol
_atom_site_fract_x
_atom_site_fract_y
_atom_site_fract_z
Gd1 Gd 0.27927(3) 0.717312(12) 0.57024(2)
C1 C 0.2223(6) 0.9808(3) 0.4370(5)
C2 C 0.2395(7) 0.8990(3) 0.3814(6)
C3 C 0.1314(7) 1.0377(3) 0.3306(5)
H1 H 0.0841 1.0264 0.2201
C4 C 0.1113(6) 1.1121(2) 0.3902(5)
C5 C 0.1902(7) 1.1267(3) 0.5534(6)
H2 H 0.1779 1.1764 0.5936
C6 C 0.0050(7) 1.1741(3) 0.2823(6)
C7 C 0.2941(7) 1.0016(3) 0.5990(6)
H3 H 0.3528 0.9632 0.6712
C8 C 0.6412(8) 0.8575(3) 0.9541(6)
H4 H 0.7510 0.8332 1.0191
H5 H 0.6743 0.9049 0.9061
C9 C 0.5439(7) 0.8030(3) 0.8219(6)
N1 N 0.2845(6) 1.0729(2) 0.6581(5)
O1 O 0.2499(5) 0.84721(19) 0.4893(4)
O2 O -0.0522(5) 1.1585(2) 0.1321(4)
O3 O -0.0237(5) 1.23729(19) 0.3479(4)
O4 O 0.6004(6) 0.7860(2) 0.7017(5)
O5 O 0.2430(5) 0.88798(19) 0.2367(4)
O6 O 0.3952(5) 0.77404(19) 0.8376(4)
O7 O 0.5205(5) 0.8756(2) 1.0564(4)
H6 H 0.5149 0.8381 1.1152
Gd1A Gd -0.27927(3) 1.217312(12) -0.07024(2)
Gd1B Gd -0.27927(3) 1.282688(12) 0.42976(2)
Gd1C Gd 0.27927(3) 0.782688(12) 0.07024(2)
Gd1C_2 Gd 0.27927(3) 0.782688(12) 1.07024(2)
O2A O 0.0522(5) 0.6585(2) 0.3679(4)
O3B O 0.0237(5) 0.76271(19) 0.6521(4)
O5C O 0.2430(5) 0.61202(19) 0.7367(4)
O6C O 0.3952(5) 0.72596(19) 0.3376(4)
O7C O 0.5205(5) 0.6244(2) 0.5564(4)
loop_
_geom_bond_atom_site_label_1
_geom_bond_atom_site_label_2
_geom_bond_site_symmetry_1
_geom_bond_site_symmetry_2
Gd1 O1 1_555 1_555
C1 C2 1_555 1_555
C2 O1 1_555 1_555
C3 C1 1_555 1_555
H1 C3 1_555 1_555
C4 C3 1_555 1_555
C5 C4 1_555 1_555
H2 C5 1_555 1_555
C6 C4 1_555 1_555
C7 C1 1_555 1_555
H3 C7 1_555 1_555
C8 H4 1_555 1_555
H5 C8 1_555 1_555
C9 C8 1_555 1_555
N1 C5 1_555 1_555
O2 C6 1_555 1_555
O3 C6 1_555 1_555
O4 Gd1 1_555 1_555
O5 C2 1_555 1_555
O6 Gd1 1_555 1_555
O7 C8 1_555 1_555
H6 O7 1_555 1_555
Gd1A O2 1_555 1_555
Gd1B O3 1_555 1_555
Gd1C O5 1_555 1_555
Gd1C_2 O6 1_555 1_555
O2A Gd1 1_555 1_555
O3B Gd1 1_555 1_555
O5C Gd1 1_555 1_555
O6C Gd1 1_555 1_555
O7C Gd1 1_555 1_555
C7 N1 1_555 1_555
C9 O4 1_555 1_555
C9 O6 1_555 1_555
O7 Gd1C_2 1_555 1_555
Gd1C O6C 1_555 1_555

#END
