
#######################################################################
#
#                 Cambridge Crystallographic Data Centre
#                                CCDC 
#
#######################################################################
#
# If this CIF has been generated from an entry in the Cambridge 
# Structural Database, then it will include bibliographic, chemical, 
# crystal, experimental, refinement or atomic coordinate data resulting 
# from the CCDC's data processing and validation procedures.
#
#######################################################################

data_JORCEA
_symmetry_cell_setting           monoclinic
_symmetry_space_group_name_H-M   'P 21/c'
_symmetry_Int_Tables_number      14
_space_group_name_Hall           '-P 2ybc'
loop_
_symmetry_equiv_pos_site_id
_symmetry_equiv_pos_as_xyz
1 x,y,z
2 -x,1/2+y,1/2-z
3 -x,-y,-z
4 x,1/2-y,1/2+z
_cell_length_a                   7.6339(5)
_cell_length_b                   17.0720(9)
_cell_length_c                   8.3853(4)
_cell_angle_alpha                90
_cell_angle_beta                 104.517(6)
_cell_angle_gamma                90
_cell_volume                     1057.93
loop_
_atom_site_label
_atom_site_type_symbol
_atom_site_fract_x
_atom_site_fract_y
_atom_site_fract_z
Tb1 Tb 0.22182(3) 0.282393(14) 0.92967(3)
C1 C 0.2584(7) 0.1017(3) 1.1162(6)
C2 C 0.2786(7) 0.0189(3) 1.0640(6)
C3 C 0.3697(7) -0.0375(3) 1.1708(6)
H1 H 0.4170 -0.0257 1.2815
C4 C 0.2048(7) -0.0028(3) 0.9019(6)
H2 H 0.1438 0.0351 0.8291
C5 C 0.3906(7) -0.1122(3) 1.1120(6)
C6 C 0.3114(8) -0.1276(3) 0.9479(6)
H3 H 0.3251 -0.1773 0.9075
C7 C 0.4963(7) -0.1744(3) 1.2199(7)
C8 C -0.0414(8) 0.1978(3) 0.6803(7)
C9 C -0.1376(8) 0.1434(4) 0.5449(7)
H4 H -0.1720 0.0957 0.5921
H5 H -0.2465 0.1682 0.4799
N1 N 0.2162(6) -0.0746(3) 0.8446(5)
O1 O 0.2487(6) 0.1527(2) 1.0087(5)
O2 O 0.2570(6) 0.1127(2) 1.2640(5)
O3 O 0.5538(6) -0.1582(3) 1.3696(5)
O4 O 0.5248(5) -0.2377(2) 1.1533(5)
O5 O 0.1066(5) 0.2263(2) 0.6630(4)
O6 O -0.0997(6) 0.2136(3) 0.7993(6)
O7 O -0.0184(5) 0.1252(3) 0.4425(5)
H6 H -0.0130 0.1628 0.3829
Tb1A Tb 0.77818(3) -0.217607(14) 1.57033(3)
Tb1B Tb 0.77818(3) -0.282393(14) 1.07033(3)
Tb1C Tb 0.22182(3) 0.217607(14) 0.42967(3)
Tb1C_2 Tb 0.22182(3) 0.217607(14) 1.42967(3)
O2C O 0.2570(6) 0.3873(2) 0.7640(5)
O3A O 0.4462(6) 0.3418(3) 1.1304(5)
O4B O 0.4752(5) 0.2377(2) 0.8467(5)
O5C O 0.1066(5) 0.2737(2) 1.1630(4)
O7C O -0.0184(5) 0.3748(3) 0.9425(5)
loop_
_geom_bond_atom_site_label_1
_geom_bond_atom_site_label_2
_geom_bond_site_symmetry_1
_geom_bond_site_symmetry_2
Tb1 O1 1_555 1_555
C1 C2 1_555 1_555
C2 C3 1_555 1_555
C3 H1 1_555 1_555
C4 C2 1_555 1_555
H2 C4 1_555 1_555
C5 C3 1_555 1_555
C6 C5 1_555 1_555
H3 C6 1_555 1_555
C7 C5 1_555 1_555
C8 C9 1_555 1_555
C9 H4 1_555 1_555
H5 C9 1_555 1_555
N1 C4 1_555 1_555
O1 C1 1_555 1_555
O2 C1 1_555 1_555
O3 C7 1_555 1_555
O4 C7 1_555 1_555
O5 Tb1 1_555 1_555
O6 Tb1 1_555 1_555
O7 C9 1_555 1_555
H6 O7 1_555 1_555
Tb1A O3 1_555 1_555
Tb1B O4 1_555 1_555
Tb1C O5 1_555 1_555
Tb1C_2 O2 1_555 1_555
O2C Tb1 1_555 1_555
O3A Tb1 1_555 1_555
O4B Tb1 1_555 1_555
O5C Tb1 1_555 1_555
O7C Tb1 1_555 1_555
C6 N1 1_555 1_555
C8 O5 1_555 1_555
C8 O6 1_555 1_555
O7 Tb1C 1_555 1_555
Tb1C_2 O5C 1_555 1_555

#END
