
#######################################################################
#
#                 Cambridge Crystallographic Data Centre
#                                CCDC 
#
#######################################################################
#
# If this CIF has been generated from an entry in the Cambridge 
# Structural Database, then it will include bibliographic, chemical, 
# crystal, experimental, refinement or atomic coordinate data resulting 
# from the CCDC's data processing and validation procedures.
#
#######################################################################

data_JORDOL
_symmetry_cell_setting           monoclinic
_symmetry_space_group_name_H-M   'C 2/c'
_symmetry_Int_Tables_number      15
_space_group_name_Hall           '-C 2yn'
loop_
_symmetry_equiv_pos_site_id
_symmetry_equiv_pos_as_xyz
1 x,y,z
2 -x,y,1/2-z
3 1/2+x,1/2+y,z
4 1/2-x,1/2+y,1/2-z
5 -x,-y,-z
6 x,-y,1/2+z
7 1/2-x,1/2-y,-z
8 1/2+x,1/2-y,1/2+z
_cell_length_a                   14.1072(10)
_cell_length_b                   11.1298(8)
_cell_length_c                   15.0715(12)
_cell_angle_alpha                90
_cell_angle_beta                 92.040(7)
_cell_angle_gamma                90
_cell_volume                     2364.88
loop_
_atom_site_label
_atom_site_type_symbol
_atom_site_fract_x
_atom_site_fract_y
_atom_site_fract_z
Tb1 Tb -0.13967(3) 0.32869(4) -0.03853(3)
C1 C 0.1610(7) -0.0732(8) 0.0640(6)
C2 C 0.2157(7) 0.2885(10) 0.1298(8)
H1 H 0.2283 0.3680 0.1451
C3 C 0.1426(6) 0.2645(8) 0.0656(7)
C4 C -0.0649(7) -0.0335(10) 0.2026(7)
H2 H -0.1113 -0.0763 0.1707
C5 C 0.2505(7) 0.0889(10) 0.1452(7)
H3 H 0.2885 0.0286 0.1701
C6 C -0.0669(7) 0.0908(9) 0.1983(6)
C7 C -0.1364(7) 0.1555(10) 0.1379(7)
C8 C 0.0000 0.1518(14) 0.2500
H4 H 0.0000 0.2354 0.2500
C9 C 0.1221(7) 0.1461(9) 0.0468(7)
H5 H 0.0708 0.1267 0.0092
C10 C 0.1776(7) 0.0570(8) 0.0837(6)
C11 C 0.0938(6) 0.3665(8) 0.0185(7)
O1 O 0.0793(5) -0.1117(6) 0.0558(5)
O2 O 0.2325(5) -0.1426(6) 0.0584(5)
O3 O -0.2179(5) 0.1108(7) 0.1257(5)
O4 O -0.1049(5) 0.2468(7) 0.1013(5)
O5 O -0.1056(5) 0.3046(8) -0.1879(5)
H6 H -0.0682 0.2491 -0.2034
H7 H -0.1305 0.3512 -0.2269
O6 O 0.1271(5) 0.4705(7) 0.0323(6)
O7 O 0.0235(5) 0.3450(6) -0.0316(5)
N1 N 0.0000 -0.0948(12) 0.2500
N2 N 0.2673(6) 0.2025(8) 0.1691(6)
C4A C 0.0649(7) -0.0335(10) 0.2974(7)
H2A H 0.1113 -0.0763 0.3293
C6A C 0.0669(7) 0.0908(9) 0.3017(6)
C7A C 0.1364(7) 0.1555(10) 0.3621(7)
O3A O 0.2179(5) 0.1108(7) 0.3743(5)
O4A O 0.1049(5) 0.2468(7) 0.3987(5)
Tb1A Tb 0.13967(3) 0.32869(4) 0.53853(3)
C1A C -0.1610(7) -0.0732(8) 0.4360(6)
C2A C -0.2157(7) 0.2885(10) 0.3702(8)
H1A H -0.2283 0.3680 0.3549
C3A C -0.1426(6) 0.2645(8) 0.4344(7)
C5A C -0.2505(7) 0.0889(10) 0.3548(7)
H3A H -0.2885 0.0286 0.3299
C9A C -0.1221(7) 0.1461(9) 0.4532(7)
H5A H -0.0708 0.1267 0.4908
C10A C -0.1776(7) 0.0570(8) 0.4163(6)
C11A C -0.0938(6) 0.3665(8) 0.4815(7)
O1A O -0.0793(5) -0.1117(6) 0.4442(5)
O2A O -0.2325(5) -0.1426(6) 0.4416(5)
O5A O 0.1056(5) 0.3046(8) 0.6879(5)
H6A H 0.0682 0.2491 0.7034
H7A H 0.1305 0.3512 0.7269
O6A O -0.1271(5) 0.4705(7) 0.4677(6)
O7A O -0.0235(5) 0.3450(6) 0.5316(5)
N2A N -0.2673(6) 0.2025(8) 0.3309(6)
Tb1B Tb 0.36033(3) -0.17131(4) -0.03853(3)
Tb1C Tb -0.36033(3) -0.17131(4) 0.53853(3)
Tb1D Tb 0.13967(3) -0.32869(4) 0.03853(3)
Tb1D_2 Tb 0.13967(3) 0.67131(4) 0.03853(3)
Tb1E Tb -0.13967(3) -0.32869(4) 0.46147(3)
Tb1E_2 Tb -0.13967(3) 0.67131(4) 0.46147(3)
Tb1F Tb -0.36033(3) 0.17131(4) 0.03853(3)
Tb1G Tb 0.36033(3) 0.17131(4) 0.46147(3)
O1D O -0.0793(5) 0.1117(6) -0.0558(5)
O1E O 0.0793(5) 0.1117(6) 0.5558(5)
O2B O -0.2675(5) 0.3574(6) 0.0584(5)
O2C O 0.2675(5) 0.3574(6) 0.4416(5)
O2D O -0.2325(5) 0.1426(6) -0.0584(5)
O2E O 0.2325(5) 0.1426(6) 0.5584(5)
O3F O -0.2821(5) 0.3892(7) -0.1257(5)
O3G O 0.2821(5) 0.3892(7) 0.6257(5)
O6D O -0.1271(5) 0.5295(7) -0.0323(6)
O6E O 0.1271(5) 0.5295(7) 0.5323(6)
loop_
_geom_bond_atom_site_label_1
_geom_bond_atom_site_label_2
_geom_bond_site_symmetry_1
_geom_bond_site_symmetry_2
Tb1 O4 1_555 1_555
C1 C10 1_555 1_555
C2 H1 1_555 1_555
C3 C2 1_555 1_555
C4 H2 1_555 1_555
C5 H3 1_555 1_555
C6 C4 1_555 1_555
C7 C6 1_555 1_555
C8 C6 1_555 1_555
H4 C8 1_555 1_555
C9 C3 1_555 1_555
H5 C9 1_555 1_555
C10 C5 1_555 1_555
C11 C3 1_555 1_555
O1 C1 1_555 1_555
O2 C1 1_555 1_555
O3 C7 1_555 1_555
O4 C7 1_555 1_555
O5 Tb1 1_555 1_555
H6 O5 1_555 1_555
H7 O5 1_555 1_555
O6 C11 1_555 1_555
O7 Tb1 1_555 1_555
N1 C4 1_555 1_555
N2 C2 1_555 1_555
C4A N1 1_555 1_555
H2A C4A 1_555 1_555
C6A C8 1_555 1_555
C7A C6A 1_555 1_555
O3A C7A 1_555 1_555
O4A C7A 1_555 1_555
Tb1A O4A 1_555 1_555
C1A C10A 1_555 1_555
C2A H1A 1_555 1_555
C3A C2A 1_555 1_555
C5A H3A 1_555 1_555
C9A C3A 1_555 1_555
H5A C9A 1_555 1_555
C10A C5A 1_555 1_555
C11A C3A 1_555 1_555
O1A C1A 1_555 1_555
O2A C1A 1_555 1_555
O5A Tb1A 1_555 1_555
H6A O5A 1_555 1_555
H7A O5A 1_555 1_555
O6A C11A 1_555 1_555
O7A Tb1A 1_555 1_555
N2A C2A 1_555 1_555
Tb1B O2 1_555 1_555
Tb1C O2A 1_555 1_555
Tb1D O1 1_555 1_555
Tb1D_2 O6 1_555 1_555
Tb1E O1A 1_555 1_555
Tb1E_2 O6A 1_555 1_555
Tb1F O3 1_555 1_555
Tb1G O3A 1_555 1_555
O1D Tb1 1_555 1_555
O1E Tb1A 1_555 1_555
O2B Tb1 1_555 1_555
O2C Tb1A 1_555 1_555
O2D Tb1 1_555 1_555
O2E Tb1A 1_555 1_555
O3F Tb1 1_555 1_555
O3G Tb1A 1_555 1_555
O6D Tb1 1_555 1_555
O6E Tb1A 1_555 1_555
C5 N2 1_555 1_555
C9 C10 1_555 1_555
C11 O7 1_555 1_555
O2 Tb1D 1_555 1_555
C4A C6A 1_555 1_555
C5A N2A 1_555 1_555
C9A C10A 1_555 1_555
C11A O7A 1_555 1_555
O2A Tb1E 1_555 1_555
Tb1F O2B 1_555 1_555
Tb1F O2D 1_555 1_555
Tb1G O2C 1_555 1_555
Tb1G O2E 1_555 1_555

#END
