
#######################################################################
#
#                 Cambridge Crystallographic Data Centre
#                                CCDC 
#
#######################################################################
#
# If this CIF has been generated from an entry in the Cambridge 
# Structural Database, then it will include bibliographic, chemical, 
# crystal, experimental, refinement or atomic coordinate data resulting 
# from the CCDC's data processing and validation procedures.
#
#######################################################################

data_JORDIF
_symmetry_cell_setting           monoclinic
_symmetry_space_group_name_H-M   'P 21/c'
_symmetry_Int_Tables_number      14
_space_group_name_Hall           '-P 2ybc'
loop_
_symmetry_equiv_pos_site_id
_symmetry_equiv_pos_as_xyz
1 x,y,z
2 -x,1/2+y,1/2-z
3 -x,-y,-z
4 x,1/2-y,1/2+z
_cell_length_a                   10.2899(3)
_cell_length_b                   12.2282(4)
_cell_length_c                   10.1888(7)
_cell_angle_alpha                90
_cell_angle_beta                 91.531(4)
_cell_angle_gamma                90
_cell_volume                     1281.57
loop_
_atom_site_label
_atom_site_type_symbol
_atom_site_fract_x
_atom_site_fract_y
_atom_site_fract_z
Gd1 Gd 0.87366(2) 0.355968(19) 0.01096(3)
C1 C 0.6951(5) 0.3147(4) 0.2934(6)
C2 C 0.5626(6) 0.3587(4) 0.3242(6)
C3 C 0.5117(7) 0.3432(6) 0.4466(7)
H1 H 0.5611 0.3038 0.5080
C4 C 0.4911(5) 0.4180(5) 0.2324(6)
H2 H 0.5230 0.4304 0.1492
C5 C 0.3266(6) 0.4389(6) 0.3921(7)
H3 H 0.2459 0.4666 0.4143
C6 C 0.3707(5) 0.4589(5) 0.2663(6)
C7 C 0.2892(5) 0.5239(5) 0.1701(6)
C8 C 1.1302(6) 0.3650(5) -0.1187(7)
C9 C 1.2578(10) 0.3577(8) -0.1849(14)
H4 H 1.2963 0.4290 -0.1890
H5 H 1.2444 0.3296 -0.2722
H6 H 1.3147 0.3096 -0.1360
N1 N 0.3949(6) 0.3814(7) 0.4835(7)
O1 O 0.7610(4) 0.2715(4) 0.3820(4)
O2 O 0.7298(4) 0.3254(4) 0.1772(5)
O3 O 0.1715(3) 0.5494(3) 0.2020(4)
O4 O 0.3341(4) 0.5527(4) 0.0645(4)
O5 O 1.0983(4) 0.4528(3) -0.0641(5)
O6 O 1.0549(4) 0.2849(3) -0.1162(4)
O7 O 0.9290(5) 0.1702(3) 0.0905(5)
H7 H 0.8842 0.1551 0.1534
O8 O 1.0147(5) 0.3730(4) 0.2025(5)
H8 H 1.0131 0.3161 0.2449
Gd1B Gd 0.12634(2) 0.644032(19) -0.01096(3)
Gd1B_2 Gd 1.12634(2) 0.644032(19) -0.01096(3)
Gd1C Gd 0.87366(2) 0.144032(19) 0.51096(3)
O1C O 0.7610(4) 0.2285(4) -0.1180(4)
O3B O 0.8285(3) 0.4506(3) -0.2020(4)
O4B O 0.6659(4) 0.4473(4) -0.0645(4)
O5B O 0.9017(4) 0.5472(3) 0.0641(5)
O9 O 0.117(2) 0.0105(16) 0.1048(17)
loop_
_geom_bond_atom_site_label_1
_geom_bond_atom_site_label_2
_geom_bond_site_symmetry_1
_geom_bond_site_symmetry_2
Gd1 O2 1_555 1_555
C1 C2 1_555 1_555
C2 C3 1_555 1_555
C3 H1 1_555 1_555
C4 C2 1_555 1_555
H2 C4 1_555 1_555
C5 H3 1_555 1_555
C6 C4 1_555 1_555
C7 C6 1_555 1_555
C8 C9 1_555 1_555
C9 H4 1_555 1_555
H5 C9 1_555 1_555
H6 C9 1_555 1_555
N1 C3 1_555 1_555
O1 C1 1_555 1_555
O2 C1 1_555 1_555
O3 C7 1_555 1_555
O4 C7 1_555 1_555
O5 Gd1 1_555 1_555
O6 Gd1 1_555 1_555
O7 Gd1 1_555 1_555
H7 O7 1_555 1_555
O8 Gd1 1_555 1_555
H8 O8 1_555 1_555
Gd1B O3 1_555 1_555
Gd1B_2 O5 1_555 1_555
Gd1C O1 1_555 1_555
O1C Gd1 1_555 1_555
O3B Gd1 1_555 1_555
O4B Gd1 1_555 1_555
O5B Gd1 1_555 1_555
C5 C6 1_555 1_555
C5 N1 1_555 1_555
C8 O5 1_555 1_555
C8 O6 1_555 1_555
O4 Gd1B 1_555 1_555
Gd1B_2 O5B 1_555 1_555

#END
