
#######################################################################
#
#                 Cambridge Crystallographic Data Centre
#                                CCDC 
#
#######################################################################
#
# If this CIF has been generated from an entry in the Cambridge 
# Structural Database, then it will include bibliographic, chemical, 
# crystal, experimental, refinement or atomic coordinate data resulting 
# from the CCDC's data processing and validation procedures.
#
#######################################################################

data_JORDAX
_symmetry_cell_setting           monoclinic
_symmetry_space_group_name_H-M   'C 2/c'
_symmetry_Int_Tables_number      15
_space_group_name_Hall           '-C 2yn'
loop_
_symmetry_equiv_pos_site_id
_symmetry_equiv_pos_as_xyz
1 x,y,z
2 -x,y,1/2-z
3 1/2+x,1/2+y,z
4 1/2-x,1/2+y,1/2-z
5 -x,-y,-z
6 x,-y,1/2+z
7 1/2-x,1/2-y,-z
8 1/2+x,1/2-y,1/2+z
_cell_length_a                   15.890(2)
_cell_length_b                   9.0934(14)
_cell_length_c                   18.737(3)
_cell_angle_alpha                90
_cell_angle_beta                 111.075(2)
_cell_angle_gamma                90
_cell_volume                     2526.29
loop_
_atom_site_label
_atom_site_type_symbol
_atom_site_fract_x
_atom_site_fract_y
_atom_site_fract_z
Eu1 Eu 0.24011(4) 0.92263(6) 0.43086(3)
C1 C 0.1872(9) 0.8563(14) 0.2713(8)
O1 O 0.1340(7) 0.9243(11) 0.2983(5)
O2 O 0.2689(6) 0.8370(12) 0.3127(5)
O3 O -0.1106(6) 0.8852(11) 0.0423(6)
O4 O -0.1082(6) 0.6748(11) -0.0223(5)
O5 O 0.3060(7) 1.0649(10) 0.5493(6)
O6 O 0.2884(7) 0.8369(10) 0.5740(5)
O7 O 0.1515(7) 1.1497(10) 0.4081(7)
H1 H 0.0972 1.1520 0.4165
H2 H 0.1721 1.2336 0.3912
N1 N 0.1677(7) 0.6300(12) 0.1003(6)
C2 C 0.0600(9) 0.8206(14) 0.1462(7)
H3 H 0.0239 0.8841 0.1616
C3 C 0.1492(8) 0.7942(14) 0.1935(7)
C4 C 0.0262(8) 0.7506(14) 0.0759(7)
C5 C 0.1996(8) 0.6979(14) 0.1672(7)
H4 H 0.2592 0.6802 0.1984
C6 C 0.0813(8) 0.6548(14) 0.0551(7)
H5 H 0.0579 0.6062 0.0084
C7 C -0.0720(8) 0.7709(14) 0.0267(7)
C8 C 0.3721(14) 0.979(3) 0.6833(9)
H6 H 0.3363 1.0317 0.7066
H7 H 0.4266 1.0327 0.6908
H8 H 0.3867 0.8836 0.7063
C9 C 0.3183(9) 0.9620(14) 0.5967(7)
Eu1A Eu -0.24011(4) 0.92263(6) 0.06914(3)
Eu1C Eu 0.25989(4) 0.42263(6) 0.06914(3)
Eu1F Eu 0.25989(4) 0.57737(6) 0.56914(3)
Eu1G Eu -0.25989(4) 0.57737(6) -0.06914(3)
O3A O 0.1106(6) 0.8852(11) 0.4577(6)
O4G O 0.3918(6) 0.8252(11) 0.4777(5)
O6F O 0.2116(7) 0.6631(10) 0.4260(5)
N1C N 0.3323(7) 1.1300(12) 0.3997(6)
O8 O 0.9583(14) 0.798(3) 0.8292(19)
loop_
_geom_bond_atom_site_label_1
_geom_bond_atom_site_label_2
_geom_bond_site_symmetry_1
_geom_bond_site_symmetry_2
Eu1 O1 1_555 1_555
C1 O1 1_555 1_555
O2 Eu1 1_555 1_555
O3 C7 1_555 1_555
O4 C7 1_555 1_555
O5 Eu1 1_555 1_555
O6 Eu1 1_555 1_555
O7 Eu1 1_555 1_555
H1 O7 1_555 1_555
H2 O7 1_555 1_555
N1 C5 1_555 1_555
C2 H3 1_555 1_555
C3 C1 1_555 1_555
C4 C2 1_555 1_555
C5 C3 1_555 1_555
H4 C5 1_555 1_555
C6 N1 1_555 1_555
H5 C6 1_555 1_555
C7 C4 1_555 1_555
C8 H6 1_555 1_555
H7 C8 1_555 1_555
H8 C8 1_555 1_555
C9 O5 1_555 1_555
Eu1A O3 1_555 1_555
Eu1C N1 1_555 1_555
Eu1F O6 1_555 1_555
Eu1G O4 1_555 1_555
O3A Eu1 1_555 1_555
O4G Eu1 1_555 1_555
O6F Eu1 1_555 1_555
N1C Eu1 1_555 1_555
C1 O2 1_555 1_555
O6 C9 1_555 1_555
C2 C3 1_555 1_555
C4 C6 1_555 1_555
C8 C9 1_555 1_555
Eu1F O6F 1_555 1_555

#END
