
#######################################################################
#
#                 Cambridge Crystallographic Data Centre
#                                CCDC 
#
#######################################################################
#
# If this CIF has been generated from an entry in the Cambridge 
# Structural Database, then it will include bibliographic, chemical, 
# crystal, experimental, refinement or atomic coordinate data resulting 
# from the CCDC's data processing and validation procedures.
#
#######################################################################

data_JORJUV
_symmetry_cell_setting           monoclinic
_symmetry_space_group_name_H-M   'C 2/c'
_symmetry_Int_Tables_number      15
_space_group_name_Hall           '-C 2yn'
loop_
_symmetry_equiv_pos_site_id
_symmetry_equiv_pos_as_xyz
1 x,y,z
2 1/2+x,1/2+y,z
3 -x,y,1/2-z
4 1/2-x,1/2+y,1/2-z
5 -x,-y,-z
6 1/2-x,1/2-y,-z
7 x,-y,1/2+z
8 1/2+x,1/2-y,1/2+z
_cell_length_a                   17.584(4)
_cell_length_b                   10.771(3)
_cell_length_c                   7.887(2)
_cell_angle_alpha                90
_cell_angle_beta                 91.28(2)
_cell_angle_gamma                90
_cell_volume                     1493.4
loop_
_atom_site_label
_atom_site_type_symbol
_atom_site_fract_x
_atom_site_fract_y
_atom_site_fract_z
Ca1 Ca 0.00000 0.04784(3) 0.2500
O1 O -0.10195(6) 0.1665(1) 0.3728(1)
F1 F -0.23949(5) -0.2267(1) 0.2501(1)
F2 F -0.02325(6) -0.3527(1) 0.5662(2)
O2 O -0.05865(5) -0.1018(1) 0.4875(1)
O3 O -0.09080(6) -0.1246(1) 0.2176(1)
C1 C -0.12949(6) -0.2822(1) 0.4077(1)
C2 C -0.20231(7) -0.3118(1) 0.3476(2)
C3 C -0.23917(8) -0.4216(1) 0.3825(2)
C4 C -0.20103(10) -0.5090(1) 0.4802(2)
C5 C -0.12829(10) -0.4863(1) 0.5428(2)
C6 C -0.09455(8) -0.3738(1) 0.5057(2)
C7 C -0.09058(7) -0.1610(1) 0.3682(1)
H1 H -0.123 0.245 0.340
H2 H -0.105 0.158 0.494
H3 H -0.296 -0.438 0.335
H4 H -0.228 -0.596 0.507
H5 H -0.0988 -0.554 0.619
O1B O 0.10195(6) 0.1665(1) 0.1272(1)
H1B H 0.123 0.245 0.160
H2B H 0.105 0.158 0.006
Ca1D Ca 0.00000 -0.04784(3) 0.7500
O2D O 0.05865(5) 0.1018(1) 0.5125(1)
O2B O 0.05865(5) -0.1018(1) 0.0125(1)
Ca1F Ca 0.00000 -0.04784(3) -0.2500
O2F O -0.05865(5) 0.1018(1) -0.0125(1)
O3B O 0.09080(6) -0.1246(1) 0.2824(1)
C7B C 0.09058(7) -0.1610(1) 0.1318(1)
C1B C 0.12949(6) -0.2822(1) 0.0923(1)
C2B C 0.20231(7) -0.3118(1) 0.1524(2)
F1B F 0.23949(5) -0.2267(1) 0.2499(1)
C3B C 0.23917(8) -0.4216(1) 0.1175(2)
C4B C 0.20103(10) -0.5090(1) 0.0198(2)
C5B C 0.12829(10) -0.4863(1) -0.0428(2)
C6B C 0.09455(8) -0.3738(1) -0.0057(2)
F2B F 0.02325(6) -0.3527(1) -0.0662(2)
H5B H 0.0988 -0.554 -0.119
H4B H 0.228 -0.596 -0.007
H3B H 0.296 -0.438 0.165
loop_
_geom_bond_atom_site_label_1
_geom_bond_atom_site_label_2
_geom_bond_site_symmetry_1
_geom_bond_site_symmetry_2
Ca1 O1 1_555 1_555
O1 H1 1_555 1_555
F1 C2 1_555 1_555
F2 C6 1_555 1_555
O2 Ca1 1_555 1_555
O3 Ca1 1_555 1_555
C1 C2 1_555 1_555
C2 C3 1_555 1_555
C3 C4 1_555 1_555
C4 C5 1_555 1_555
C5 C6 1_555 1_555
C6 C1 1_555 1_555
C7 O2 1_555 1_555
H2 O1 1_555 1_555
H3 C3 1_555 1_555
H4 C4 1_555 1_555
H5 C5 1_555 1_555
O1B Ca1 1_555 1_555
H1B O1B 1_555 1_555
H2B O1B 1_555 1_555
Ca1D O2 1_555 1_555
O2D Ca1 1_555 1_555
O2B Ca1 1_555 1_555
Ca1F O2B 1_555 1_555
O2F Ca1 1_555 1_555
O3B Ca1 1_555 1_555
C7B O2B 1_555 1_555
C1B C7B 1_555 1_555
C2B C1B 1_555 1_555
F1B C2B 1_555 1_555
C3B C2B 1_555 1_555
C4B C3B 1_555 1_555
C5B C4B 1_555 1_555
C6B C1B 1_555 1_555
F2B C6B 1_555 1_555
H5B C5B 1_555 1_555
H4B C4B 1_555 1_555
H3B C3B 1_555 1_555
O3 C7 1_555 1_555
C1 C7 1_555 1_555
Ca1D O2D 1_555 1_555
Ca1F O2F 1_555 1_555
O3B C7B 1_555 1_555
C5B C6B 1_555 1_555

#END
