
#######################################################################
#
#                 Cambridge Crystallographic Data Centre
#                                CCDC 
#
#######################################################################
#
# If this CIF has been generated from an entry in the Cambridge 
# Structural Database, then it will include bibliographic, chemical, 
# crystal, experimental, refinement or atomic coordinate data resulting 
# from the CCDC's data processing and validation procedures.
#
#######################################################################

data_JORPUD
_symmetry_cell_setting           rhombohedral
_symmetry_space_group_name_H-M   'R -3'
_symmetry_Int_Tables_number      148
_space_group_name_Hall           '-R 3'
loop_
_symmetry_equiv_pos_site_id
_symmetry_equiv_pos_as_xyz
1 x,y,z
2 -y,x-y,z
3 -x+y,-x,z
4 2/3+x,1/3+y,1/3+z
5 2/3-y,1/3+x-y,1/3+z
6 2/3-x+y,1/3-x,1/3+z
7 1/3+x,2/3+y,2/3+z
8 1/3-y,2/3+x-y,2/3+z
9 1/3-x+y,2/3-x,2/3+z
10 -x,-y,-z
11 y,-x+y,-z
12 x-y,x,-z
13 1/3-x,2/3-y,2/3-z
14 1/3+y,2/3-x+y,2/3-z
15 1/3+x-y,2/3+x,2/3-z
16 2/3-x,1/3-y,1/3-z
17 2/3+y,1/3-x+y,1/3-z
18 2/3+x-y,1/3+x,1/3-z
_cell_length_a                   14.0339(6)
_cell_length_b                   14.0339(6)
_cell_length_c                   21.2738(10)
_cell_angle_alpha                90
_cell_angle_beta                 90
_cell_angle_gamma                120
_cell_volume                     3628.54
loop_
_atom_site_label
_atom_site_type_symbol
_atom_site_fract_x
_atom_site_fract_y
_atom_site_fract_z
Fe1 Fe 0.57207(3) 0.68558(3) 0.62950(2)
O1 O 0.71269(17) 0.79002(16) 0.68350(11)
O2 O 0.43896(17) 0.58336(18) 0.56712(11)
O3 O 0.28557(17) 0.48061(25) 0.62207(10)
O4 O 0.66503(19) 0.7522(2) 0.54675(11)
O5 O 0.71915(24) 0.95058(18) 0.69776(12)
C1 C 0.9475(2) 1.0614(2) 0.70555(15)
H1 H 0.9123 1.1026 0.7062
C2 C 0.3385(3) 0.5234(3) 0.57247(16)
H2 H 0.2974 0.5082 0.5358
C3 C 0.8847(2) 0.9467(2) 0.70507(15)
C4 C 0.7620(2) 0.8914(2) 0.69564(14)
N1 N 0.6976(3) 0.7499(3) 0.44380(15)
H3 H 0.6801 0.7102 0.4104
C5 C 0.6470(3) 0.7047(3) 0.49601(18)
H4 H 0.5930 0.6307 0.4948
C6 C 0.7816(6) 0.8636(4) 0.4397(2)
H5 H 0.8032 0.8934 0.4813
H6 H 0.7537 0.9038 0.4173
H7 H 0.8442 0.8695 0.4178
O1A O 1.20998(16) 0.92267(23) 0.68350(11)
C1A C 0.9386(2) 0.8861(3) 0.70555(15)
H1A H 0.8974 0.8097 0.7062
C3A C 1.0533(2) 0.9380(3) 0.70507(15)
C4A C 1.1086(2) 0.8706(3) 0.69564(14)
O5A O 1.04942(18) 0.76857(30) 0.69776(12)
O1B O 1.07733(23) 1.28731(17) 0.68350(11)
C1B C 1.1139(3) 1.0525(2) 0.70555(15)
H1B H 1.1903 1.0877 0.7062
C3B C 1.0620(3) 1.1153(2) 0.70507(15)
C4B C 1.1294(3) 1.2380(2) 0.69564(14)
O5B O 1.23143(30) 1.28085(24) 0.69776(12)
Fe1A Fe 0.31442(3) 0.88649(4) 0.62950(2)
O2A O 0.41664(18) 0.85560(25) 0.56712(11)
O3A O 0.51939(25) 0.80496(30) 0.62207(10)
O4A O 0.2478(2) 0.91283(28) 0.54675(11)
C2A C 0.4766(3) 0.8151(4) 0.57247(16)
H2A H 0.4918 0.7892 0.5358
N1A N 0.2501(3) 0.9477(4) 0.44380(15)
H3A H 0.2898 0.9699 0.4104
C5A C 0.2953(3) 0.9423(4) 0.49601(18)
H4A H 0.3693 0.9623 0.4948
C6A C 0.1364(4) 0.9180(7) 0.4397(2)
H5A H 0.1066 0.9098 0.4813
H6A H 0.0962 0.8499 0.4173
H7A H 0.1305 0.9747 0.4178
Fe1B Fe 0.11351(4) 0.42793(3) 0.62950(2)
O2B O 0.14440(25) 0.56104(17) 0.56712(11)
O3B O 0.19504(30) 0.71443(17) 0.62207(10)
O4B O 0.08717(28) 0.33497(19) 0.54675(11)
C2B C 0.1849(4) 0.6615(3) 0.57247(16)
H2B H 0.2108 0.7026 0.5358
N1B N 0.0523(4) 0.3024(3) 0.44380(15)
H3B H 0.0301 0.3199 0.4104
C5B C 0.0577(4) 0.3530(3) 0.49601(18)
H4B H 0.0377 0.4070 0.4948
C6B C 0.0820(7) 0.2184(6) 0.4397(2)
H5B H 0.0902 0.1968 0.4813
H6B H 0.1501 0.2463 0.4173
H7B H 0.0253 0.1558 0.4178
Fe1A_2 Fe 1.31442(3) 0.88649(4) 0.62950(2)
Fe1B_2 Fe 1.11351(4) 1.42793(3) 0.62950(2)
Fe1O Fe 0.09460(3) 0.64775(3) 0.70383(2)
Fe1O_2 Fe 1.09460(3) 0.64775(3) 0.70383(2)
Fe1P Fe 0.35225(3) 0.44684(4) 0.70383(2)
Fe1P_2 Fe 1.35225(3) 1.44684(4) 0.70383(2)
Fe1Q Fe 0.55316(4) 0.90540(3) 0.70383(2)
O1A_2 O 0.20998(16) 0.92267(23) 0.68350(11)
O1B_2 O 0.07733(23) 0.28731(17) 0.68350(11)
O3O O 0.38110(17) 0.85272(25) 0.71126(10)
O3P O 0.14728(25) 0.52837(30) 0.71126(10)
O3Q O 0.47163(30) 0.61890(17) 0.71126(10)
O5O O -0.05248(24) 0.38275(18) 0.63557(12)
O5P O 0.61725(18) 0.56476(30) 0.63557(12)
O5Q O 0.43524(30) 1.05248(24) 0.63557(12)
loop_
_geom_bond_atom_site_label_1
_geom_bond_atom_site_label_2
_geom_bond_site_symmetry_1
_geom_bond_site_symmetry_2
Fe1 O1 1_555 1_555
O1 C4 1_555 1_555
O2 Fe1 1_555 1_555
O3 C2 1_555 1_555
O4 Fe1 1_555 1_555
O5 C4 1_555 1_555
C1 H1 1_555 1_555
C2 O2 1_555 1_555
H2 C2 1_555 1_555
C3 C1 1_555 1_555
C4 C3 1_555 1_555
N1 H3 1_555 1_555
C5 O4 1_555 1_555
H4 C5 1_555 1_555
C6 N1 1_555 1_555
H5 C6 1_555 1_555
H6 C6 1_555 1_555
H7 C6 1_555 1_555
O1A C4A 1_555 1_555
C1A C3 1_555 1_555
H1A C1A 1_555 1_555
C3A C1A 1_555 1_555
C4A C3A 1_555 1_555
O5A C4A 1_555 1_555
O1B C4B 1_555 1_555
C1B C3A 1_555 1_555
H1B C1B 1_555 1_555
C3B C1 1_555 1_555
C4B C3B 1_555 1_555
O5B C4B 1_555 1_555
Fe1A O2A 1_555 1_555
O2A C2A 1_555 1_555
O3A Fe1 1_555 1_555
O4A Fe1A 1_555 1_555
C2A O3A 1_555 1_555
H2A C2A 1_555 1_555
N1A H3A 1_555 1_555
C5A O4A 1_555 1_555
H4A C5A 1_555 1_555
C6A N1A 1_555 1_555
H5A C6A 1_555 1_555
H6A C6A 1_555 1_555
H7A C6A 1_555 1_555
Fe1B O3 1_555 1_555
O2B Fe1B 1_555 1_555
O3B Fe1A 1_555 1_555
O4B Fe1B 1_555 1_555
C2B O2B 1_555 1_555
H2B C2B 1_555 1_555
N1B H3B 1_555 1_555
C5B O4B 1_555 1_555
H4B C5B 1_555 1_555
C6B N1B 1_555 1_555
H5B C6B 1_555 1_555
H6B C6B 1_555 1_555
H7B C6B 1_555 1_555
Fe1A_2 O1A 1_555 1_555
Fe1B_2 O1B 1_555 1_555
Fe1O O3B 1_555 1_555
Fe1O_2 O5A 1_555 1_555
Fe1P O3 1_555 1_555
Fe1P_2 O5B 1_555 1_555
Fe1Q O5 1_555 1_555
O1A_2 Fe1A 1_555 1_555
O1B_2 Fe1B 1_555 1_555
O3O Fe1A 1_555 1_555
O3P Fe1B 1_555 1_555
O3Q Fe1 1_555 1_555
O5O Fe1B 1_555 1_555
O5P Fe1 1_555 1_555
O5Q Fe1A 1_555 1_555
N1 C5 1_555 1_555
C1B C3B 1_555 1_555
O3A Fe1Q 1_555 1_555
N1A C5A 1_555 1_555
O3B C2B 1_555 1_555
N1B C5B 1_555 1_555
Fe1O O3P 1_555 1_555
Fe1P O3Q 1_555 1_555
Fe1Q O3O 1_555 1_555

#END
