
#######################################################################
#
#                 Cambridge Crystallographic Data Centre
#                                CCDC 
#
#######################################################################
#
# If this CIF has been generated from an entry in the Cambridge 
# Structural Database, then it will include bibliographic, chemical, 
# crystal, experimental, refinement or atomic coordinate data resulting 
# from the CCDC's data processing and validation procedures.
#
#######################################################################

data_JORQAK
_symmetry_cell_setting           hexagonal
_symmetry_space_group_name_H-M   'P 63/m m c'
_symmetry_Int_Tables_number      194
_space_group_name_Hall           "-P 6c 2'c"
loop_
_symmetry_equiv_pos_site_id
_symmetry_equiv_pos_as_xyz
1 x,y,z
2 x-y,x,1/2+z
3 y,-x+y,1/2+z
4 -y,x-y,z
5 -x+y,-x,z
6 x-y,-y,-z
7 -x,-x+y,-z
8 -x,-y,1/2+z
9 y,x,-z
10 -y,-x,1/2-z
11 -x+y,y,1/2-z
12 x,x-y,1/2-z
13 -x,-y,-z
14 -x+y,-x,1/2-z
15 -y,x-y,1/2-z
16 y,-x+y,-z
17 x-y,x,-z
18 -x+y,y,z
19 x,x-y,z
20 x,y,1/2-z
21 -y,-x,z
22 y,x,1/2+z
23 x-y,-y,1/2+z
24 -x,-x+y,1/2+z
_cell_length_a                   19.9724(9)
_cell_length_b                   19.9724(9)
_cell_length_c                   26.0567(9)
_cell_angle_alpha                90
_cell_angle_beta                 90
_cell_angle_gamma                120
_cell_volume                     9001.41
loop_
_atom_site_label
_atom_site_type_symbol
_atom_site_fract_x
_atom_site_fract_y
_atom_site_fract_z
C1 C 0.8217(4) 0.6435(8) 0.6708(4)
C2 C 0.8054(5) 0.6108(9) 0.6180(5)
C3 C 0.8546(5) 0.5901(5) 0.5937(3)
H1 H 0.8987(5) 0.5981(5) 0.6109(3)
C4 C 0.8409(5) 0.5586(5) 0.5457(3)
C5 C 0.8983(5) 0.5396(5) 0.5217(3)
C6 C 0.5781(7) 0.6120(8) 0.750000
C7 C 0.4751(4) 0.5249(4) 0.6757(5)
Fe1 Fe 1.03962(8) 0.51981(4) 0.55057(5)
Fe2 Fe 0.76585(10) 0.71473(11) 0.750000
O1 O 0.6424(8) 0.6608(7) 0.750000
O2 O 0.4741(3) 0.5259(3) 0.6287(4)
O3 O 0.9524(4) 0.5495(4) 0.5502(3)
O4 O 0.8849(4) 0.5135(4) 0.4781(3)
Pd1 Pd 0.47600(4) 0.52400(4) 0.750000
O5 O 0.7740(4) 0.6560(5) 0.6894(3)
O6 O 0.8945(4) 0.7890(7) 0.750000
C8 C 0.7727(3) 0.5454(7) 0.5195(4)
C3Q C 0.7355(7) 0.5901(5) 0.5937(3)
H1Q H 0.6994(7) 0.5981(5) 0.6109(3)
C4Q C 0.7177(7) 0.5586(5) 0.5457(3)
C5Q C 0.6413(7) 0.5396(5) 0.5217(3)
O3Q O 0.5971(6) 0.5495(4) 0.5502(3)
O4Q O 0.6286(6) 0.5135(4) 0.4781(3)
O5Q O 0.8820(6) 0.6560(5) 0.6894(3)
C1C C 0.3565(8) 0.1782(9) 0.6708(4)
C2C C 0.3892(9) 0.1946(10) 0.6180(5)
C3C C 0.4099(5) 0.2645(7) 0.5937(3)
H1C H 0.4019(5) 0.3006(7) 0.6109(3)
C4C C 0.4414(5) 0.2823(7) 0.5457(3)
C5C C 0.4604(5) 0.3587(7) 0.5217(3)
C6C C 0.3880(8) -0.0339(11) 0.750000
Fe1C Fe 0.48019(4) 0.51981(9) 0.55057(5)
Fe2C Fe 0.28527(11) 0.05112(15) 0.750000
O1C O 0.3392(7) -0.0184(11) 0.750000
O3C O 0.4505(4) 0.4029(6) 0.5502(3)
O4C O 0.4865(4) 0.3714(6) 0.4781(3)
O5C O 0.3440(5) 0.1180(6) 0.6894(3)
C8C C 0.4546(7) 0.2273(8) 0.5195(4)
C3T C 0.4099(5) 0.1454(5) 0.5937(3)
H1T H 0.4019(5) 0.1013(5) 0.6109(3)
C4T C 0.4414(5) 0.1591(5) 0.5457(3)
C5T C 0.4604(5) 0.1017(5) 0.5217(3)
O3T O 0.4505(4) 0.0476(4) 0.5502(3)
O4T O 0.4865(4) 0.1151(4) 0.4781(3)
O5T O 0.3440(5) 0.2260(4) 0.6894(3)
C7D C 1.0498(6) 0.5249(4) 0.6757(5)
O2D O 1.0518(4) 0.5259(3) 0.6287(4)
C6I C 0.3880(8) 0.4219(7) 0.750000
C7I C 0.4751(4) 0.5249(4) 0.8243(5)
Fe1D Fe 0.48019(9) -0.03962(8) 0.55057(5)
Fe1E Fe 0.51981(9) 0.48019(4) 0.44943(5)
Fe1F Fe 0.96038(8) 0.48019(9) 0.44943(5)
Fe1H Fe 0.51981(4) 0.03962(8) 0.44943(5)
Fe2I Fe 0.28527(11) 0.23415(10) 0.750000
Fe2J Fe 0.94888(15) 0.71473(11) 0.750000
O3R O 0.9524(4) 0.4029(6) 0.5502(3)
O4E O 0.3714(6) 0.4865(4) 0.5219(3)
O4F O 1.1151(4) 0.6286(6) 0.5219(3)
O4L O 1.1151(4) 0.4865(4) 0.5219(3)
O4O O 0.5135(4) 0.6286(6) 0.5219(3)
Pd1C Pd 0.47600(4) -0.04800(6) 0.750000
Pd1D Pd 1.04800(6) 0.52400(4) 0.750000
O5N O 0.3440(5) 0.1180(6) 0.8106(3)
O5S O 0.7740(4) 0.6560(5) 0.8106(3)
O6C O 0.2110(7) 0.1055(8) 0.750000
loop_
_geom_bond_atom_site_label_1
_geom_bond_atom_site_label_2
_geom_bond_site_symmetry_1
_geom_bond_site_symmetry_2
C1 C2 1_555 1_555
C2 C3 1_555 1_555
C3 H1 1_555 1_555
C4 C3 1_555 1_555
C5 C4 1_555 1_555
C6 O1 1_555 1_555
C7 O2 1_555 1_555
Fe1 O3 1_555 1_555
Fe2 O1 1_555 1_555
O2 Fe1C 1_555 1_555
O3 C5 1_555 1_555
O4 C5 1_555 1_555
Pd1 C6 1_555 1_555
O5 C1 1_555 1_555
O6 Fe2 1_555 1_555
C8 C4 1_555 1_555
C3Q C2 1_555 1_555
H1Q C3Q 1_555 1_555
C4Q C8 1_555 1_555
C5Q C4Q 1_555 1_555
O3Q C5Q 1_555 1_555
O4Q C5Q 1_555 1_555
O5Q C1 1_555 1_555
C1C C2C 1_555 1_555
C2C C3C 1_555 1_555
C3C H1C 1_555 1_555
C4C C3C 1_555 1_555
C5C C4C 1_555 1_555
C6C O1C 1_555 1_555
Fe1C O3Q 1_555 1_555
Fe2C O1C 1_555 1_555
O3C C5C 1_555 1_555
O4C C5C 1_555 1_555
O5C C1C 1_555 1_555
C8C C4C 1_555 1_555
C3T C2C 1_555 1_555
H1T C3T 1_555 1_555
C4T C8C 1_555 1_555
C5T C4T 1_555 1_555
O3T C5T 1_555 1_555
O4T C5T 1_555 1_555
O5T C1C 1_555 1_555
C7D O2D 1_555 1_555
O2D Fe1 1_555 1_555
C6I Pd1 1_555 1_555
C7I Pd1 1_555 1_555
Fe1D O3T 1_555 1_555
Fe1E O4Q 1_555 1_555
Fe1F Fe1 1_555 1_555
Fe1H O4T 1_555 1_555
Fe2I O5T 1_555 1_555
Fe2J O6 1_555 1_555
O3R Fe1 1_555 1_555
O4E Fe1C 1_555 1_555
O4F Fe1 1_555 1_555
O4L Fe1 1_555 1_555
O4O Fe1C 1_555 1_555
Pd1C C6C 1_555 1_555
Pd1D C7D 1_555 1_555
O5N Fe2C 1_555 1_555
O5S Fe2 1_555 1_555
O6C Fe2C 1_555 1_555
C7 Pd1 1_555 1_555
Fe2 O5 1_555 1_555
O4 Fe1F 1_555 1_555
C3Q C4Q 1_555 1_555
O5Q Fe2J 1_555 1_555
Fe1C O3C 1_555 1_555
Fe1C Fe1E 1_555 1_555
Fe2C O5C 1_555 1_555
O4C Fe1E 1_555 1_555
C3T C4T 1_555 1_555
Fe1D Fe1H 1_555 1_555
Fe2I O6C 1_555 1_555

#END
