
#######################################################################
#
#                 Cambridge Crystallographic Data Centre
#                                CCDC 
#
#######################################################################
#
# If this CIF has been generated from an entry in the Cambridge 
# Structural Database, then it will include bibliographic, chemical, 
# crystal, experimental, refinement or atomic coordinate data resulting 
# from the CCDC's data processing and validation procedures.
#
#######################################################################

data_JORQOY
_symmetry_cell_setting           tetragonal
_symmetry_space_group_name_H-M   'I 41/a c d'
_symmetry_Int_Tables_number      142
_space_group_name_Hall           '-I 4bd 2c'
loop_
_symmetry_equiv_pos_site_id
_symmetry_equiv_pos_as_xyz
1 x,y,z
2 1/2-x,-y,1/2+z
3 1/4-y,3/4+x,1/4+z
4 1/4+y,1/4-x,3/4+z
5 1/2-x,y,-z
6 x,-y,1/2-z
7 1/4+y,3/4+x,3/4-z
8 1/4-y,1/4-x,1/4-z
9 1/2+x,1/2+y,1/2+z
10 -x,1/2-y,z
11 3/4-y,1/4+x,3/4+z
12 3/4+y,3/4-x,1/4+z
13 -x,1/2+y,1/2-z
14 1/2+x,1/2-y,-z
15 3/4+y,1/4+x,1/4-z
16 3/4-y,3/4-x,3/4-z
17 -x,-y,-z
18 1/2+x,y,1/2-z
19 3/4+y,1/4-x,3/4-z
20 3/4-y,3/4+x,1/4-z
21 1/2+x,-y,z
22 -x,y,1/2+z
23 3/4-y,1/4-x,1/4+z
24 3/4+y,3/4+x,3/4+z
25 1/2-x,1/2-y,1/2-z
26 x,1/2+y,-z
27 1/4+y,3/4-x,1/4-z
28 1/4-y,1/4+x,3/4-z
29 x,1/2-y,1/2+z
30 1/2-x,1/2+y,z
31 1/4-y,3/4-x,3/4+z
32 1/4+y,1/4+x,1/4+z
_cell_length_a                   23.1175(6)
_cell_length_b                   23.1175(6)
_cell_length_c                   28.1024(15)
_cell_angle_alpha                90
_cell_angle_beta                 90
_cell_angle_gamma                90
_cell_volume                     15018.5
loop_
_atom_site_label
_atom_site_type_symbol
_atom_site_fract_x
_atom_site_fract_y
_atom_site_fract_z
Ag1 Ag 0.443006(11) 0.503874(12) 0.473778(10)
C1 C 0.31294(14) 0.50459(14) 0.53322(12)
H1 H 0.3457 0.5088 0.5540
H2 H 0.2783 0.5010 0.5519
H3 H 0.3100 0.5380 0.5130
C2 C 0.32037(13) 0.45245(13) 0.50371(11)
C3 C 0.28037(13) 0.40968(13) 0.49264(12)
C4 C 0.30946(14) 0.37211(14) 0.46336(13)
C5 C 0.29091(19) 0.31884(16) 0.43833(17)
H4 H 0.2626 0.3285 0.4147
H5 H 0.2744 0.2923 0.4608
H6 H 0.3237 0.3012 0.4233
C6 C 0.59540(18) 0.44469(15) 0.33318(14)
H7 H 0.6362 0.4394 0.3381
H8 H 0.5889 0.4600 0.3019
H9 H 0.5760 0.4081 0.3362
C7 C 0.57259(13) 0.48528(13) 0.36889(12)
C8 C 0.57551(13) 0.54440(13) 0.37162(11)
C9 C 0.54602(14) 0.55891(13) 0.41273(12)
C10 C 0.53674(19) 0.61691(15) 0.43290(15)
H10 H 0.5077 0.6368 0.4147
H11 H 0.5723 0.6384 0.4318
H12 H 0.5242 0.6134 0.4653
C11 C 0.50985(18) 0.6141(2) 0.29066(18)
H13 H 0.4967 0.6534 0.2899
H14 H 0.4889 0.5931 0.3146
H15 H 0.5034 0.5964 0.2602
C12 C 0.57212(15) 0.61277(15) 0.30188(13)
C13 C 0.60091(14) 0.58411(13) 0.33681(11)
C14 C 0.65868(14) 0.60078(14) 0.33175(12)
C15 C 0.70863(16) 0.5821(2) 0.36005(15)
H16 H 0.7434 0.5976 0.3464
H17 H 0.7106 0.5406 0.3602
H18 H 0.7046 0.5959 0.3921
N1 N 0.37052(11) 0.44166(11) 0.48322(10)
N2 N 0.36274(12) 0.39250(12) 0.45887(10)
H19 H 0.3893 0.3761 0.4422
N3 N 0.52622(12) 0.51187(11) 0.43407(9)
N4 N 0.54310(11) 0.46772(11) 0.40668(9)
H20 H 0.5357 0.4320 0.4129
N5 N 0.61118(13) 0.64327(12) 0.27777(10)
H21 H 0.6032 0.6645 0.2535
N6 N 0.66417(12) 0.63684(12) 0.29587(10)
C1D C 0.18706(14) 0.50459(14) 0.46678(12)
H1D H 0.1543 0.5088 0.4460
H2D H 0.2217 0.5010 0.4481
H3D H 0.1900 0.5380 0.4870
C2D C 0.17963(13) 0.45245(13) 0.49629(11)
C3D C 0.21963(13) 0.40968(13) 0.50736(12)
C4D C 0.19054(14) 0.37211(14) 0.53664(13)
C5D C 0.20909(19) 0.31884(16) 0.56167(17)
H4D H 0.2374 0.3285 0.5853
H5D H 0.2256 0.2923 0.5392
H6D H 0.1763 0.3012 0.5767
N1D N 0.12948(11) 0.44166(11) 0.51678(10)
N2D N 0.13726(12) 0.39250(12) 0.54113(10)
H19D H 0.1107 0.3761 0.5578
Ag1D Ag 0.056994(11) 0.503874(12) 0.526222(10)
C6D C -0.09540(18) 0.44469(15) 0.66682(14)
H7D H -0.1362 0.4394 0.6619
H8D H -0.0889 0.4600 0.6981
H9D H -0.0760 0.4081 0.6638
C7D C -0.07259(13) 0.48528(13) 0.63111(12)
C8D C -0.07551(13) 0.54440(13) 0.62838(11)
C9D C -0.04602(14) 0.55891(13) 0.58727(12)
C10D C -0.03674(19) 0.61691(15) 0.56710(15)
H10D H -0.0077 0.6368 0.5853
H11D H -0.0723 0.6384 0.5682
H12D H -0.0242 0.6134 0.5347
C11D C -0.00985(18) 0.6141(2) 0.70934(18)
H13D H 0.0033 0.6534 0.7101
H14D H 0.0111 0.5931 0.6854
H15D H -0.0034 0.5964 0.7398
C12D C -0.07212(15) 0.61277(15) 0.69812(13)
C13D C -0.10091(14) 0.58411(13) 0.66319(11)
C14D C -0.15868(14) 0.60078(14) 0.66825(12)
C15D C -0.20863(16) 0.5821(2) 0.63995(15)
H16D H -0.2434 0.5976 0.6536
H17D H -0.2106 0.5406 0.6398
H18D H -0.2046 0.5959 0.6079
N3D N -0.02622(12) 0.51187(11) 0.56593(9)
N4D N -0.04310(11) 0.46772(11) 0.59332(9)
H20D H -0.0357 0.4320 0.5871
N5D N -0.11118(13) 0.64327(12) 0.72223(10)
H21D H -0.1032 0.6645 0.7465
N6D N -0.16417(12) 0.63684(12) 0.70413(10)
Ag1P Ag 0.556994(11) 0.496126(12) 0.526222(10)
Ag1T Ag -0.056994(11) 0.496126(12) 0.473778(10)
Ag1AA Ag 0.746126(12) 0.693006(11) 0.276222(10)
Ag1EA Ag -0.246126(12) 0.693006(11) 0.723778(10)
N3P N 0.47378(12) 0.48813(11) 0.56593(9)
N3T N 0.02622(12) 0.48813(11) 0.43407(9)
N6R N 0.38684(12) 0.58583(12) 0.45413(10)
N6V N 0.11316(12) 0.58583(12) 0.54587(10)
C16 C 0.50271(16) 0.33335(13) 0.43648(12)
C17 C 0.4781(2) 0.27285(19) 0.44165(19)
H22 H 0.4675 0.2846 0.4736
H23 H 0.4581 0.2963 0.4183
O1 O 0.4673(2) 0.37109(16) 0.42278(19)
O2 O 0.5529(2) 0.3441(2) 0.44446(17)
C16I C 0.49729(16) 0.16665(13) 0.43648(12)
C17I C 0.5219(2) 0.22715(19) 0.44165(19)
H22I H 0.5325 0.2154 0.4736
H23I H 0.5419 0.2037 0.4183
O1I O 0.5327(2) 0.12891(16) 0.42278(19)
O2I O 0.4471(2) 0.1559(2) 0.44446(17)
C18? C 0.5265(8) 0.2711(8) 0.4358(7)
H24? H 0.5388 0.2813 0.4039
H25? H 0.5490 0.2912 0.4598
O3? O 0.4572(8) 0.3434(6) 0.4169(8)
O4? O 0.5349(9) 0.3699(8) 0.4538(7)
loop_
_geom_bond_atom_site_label_1
_geom_bond_atom_site_label_2
_geom_bond_site_symmetry_1
_geom_bond_site_symmetry_2
Ag1 N1 1_555 1_555
C1 H1 1_555 1_555
H2 C1 1_555 1_555
H3 C1 1_555 1_555
C2 C1 1_555 1_555
C3 C2 1_555 1_555
C4 C3 1_555 1_555
C5 C4 1_555 1_555
H4 C5 1_555 1_555
H5 C5 1_555 1_555
H6 C5 1_555 1_555
C6 H7 1_555 1_555
H8 C6 1_555 1_555
H9 C6 1_555 1_555
C7 C6 1_555 1_555
C8 C7 1_555 1_555
C9 C8 1_555 1_555
C10 C9 1_555 1_555
H10 C10 1_555 1_555
H11 C10 1_555 1_555
H12 C10 1_555 1_555
C11 H13 1_555 1_555
H14 C11 1_555 1_555
H15 C11 1_555 1_555
C12 C11 1_555 1_555
C13 C8 1_555 1_555
C14 C13 1_555 1_555
C15 C14 1_555 1_555
H16 C15 1_555 1_555
H17 C15 1_555 1_555
H18 C15 1_555 1_555
N1 C2 1_555 1_555
N2 C4 1_555 1_555
H19 N2 1_555 1_555
N3 Ag1 1_555 1_555
N4 C7 1_555 1_555
H20 N4 1_555 1_555
N5 C12 1_555 1_555
H21 N5 1_555 1_555
N6 C14 1_555 1_555
C16 C17 1_555 1_555
C17 H22 1_555 1_555
H23 C17 1_555 1_555
O1 C16 1_555 1_555
O2 C16 1_555 1_555
C1D H1D 1_555 1_555
H2D C1D 1_555 1_555
H3D C1D 1_555 1_555
C2D C1D 1_555 1_555
C3D C3 1_555 1_555
C4D C3D 1_555 1_555
C5D C4D 1_555 1_555
H4D C5D 1_555 1_555
H5D C5D 1_555 1_555
H6D C5D 1_555 1_555
N1D C2D 1_555 1_555
N2D C4D 1_555 1_555
H19D N2D 1_555 1_555
Ag1D N1D 1_555 1_555
C6D H7D 1_555 1_555
H8D C6D 1_555 1_555
H9D C6D 1_555 1_555
C7D C6D 1_555 1_555
C8D C7D 1_555 1_555
C9D C8D 1_555 1_555
C10D C9D 1_555 1_555
H10D C10D 1_555 1_555
H11D C10D 1_555 1_555
H12D C10D 1_555 1_555
C11D H13D 1_555 1_555
H14D C11D 1_555 1_555
H15D C11D 1_555 1_555
C12D C11D 1_555 1_555
C13D C8D 1_555 1_555
C14D C13D 1_555 1_555
C15D C14D 1_555 1_555
H16D C15D 1_555 1_555
H17D C15D 1_555 1_555
H18D C15D 1_555 1_555
N3D Ag1D 1_555 1_555
N4D C7D 1_555 1_555
H20D N4D 1_555 1_555
N5D C12D 1_555 1_555
H21D N5D 1_555 1_555
N6D C14D 1_555 1_555
Ag1P N3 1_555 1_555
Ag1T N3D 1_555 1_555
Ag1AA N6 1_555 1_555
Ag1EA N6D 1_555 1_555
N3P Ag1 1_555 1_555
N3T Ag1D 1_555 1_555
N6R Ag1 1_555 1_555
N6V Ag1D 1_555 1_555
C16I C17I 1_555 1_555
C17I C17 1_555 1_555
H22I C17I 1_555 1_555
H23I C17I 1_555 1_555
O1I C16I 1_555 1_555
O2I C16I 1_555 1_555
C9 N3 1_555 1_555
C12 C13 1_555 1_555
N1 N2 1_555 1_555
N3 N4 1_555 1_555
N5 N6 1_555 1_555
C2D C3D 1_555 1_555
N1D N2D 1_555 1_555
C9D N3D 1_555 1_555
C12D C13D 1_555 1_555
N3D N4D 1_555 1_555
N5D N6D 1_555 1_555
Ag1P N3P 1_555 1_555
Ag1T N3T 1_555 1_555

#END
