
#######################################################################
#
#                 Cambridge Crystallographic Data Centre
#                                CCDC 
#
#######################################################################
#
# If this CIF has been generated from an entry in the Cambridge 
# Structural Database, then it will include bibliographic, chemical, 
# crystal, experimental, refinement or atomic coordinate data resulting 
# from the CCDC's data processing and validation procedures.
#
#######################################################################

data_JORROZ
_symmetry_cell_setting           monoclinic
_symmetry_space_group_name_H-M   'P 21/n'
_symmetry_Int_Tables_number      14
_space_group_name_Hall           '-P 2yn'
loop_
_symmetry_equiv_pos_site_id
_symmetry_equiv_pos_as_xyz
1 x,y,z
2 1/2-x,1/2+y,1/2-z
3 -x,-y,-z
4 1/2+x,1/2-y,1/2+z
_cell_length_a                   13.1085(12)
_cell_length_b                   16.6562(16)
_cell_length_c                   13.6422(14)
_cell_angle_alpha                90
_cell_angle_beta                 92.1850(10)
_cell_angle_gamma                90
_cell_volume                     2976.44
loop_
_atom_site_label
_atom_site_type_symbol
_atom_site_fract_x
_atom_site_fract_y
_atom_site_fract_z
Zn1 Zn 0.38658(5) 0.45631(4) 1.14038(4)
N1 N 0.3001(4) 0.5375(3) 1.0648(4)
N2 N 0.2497(5) 0.6260(3) 0.9546(4)
N3 N 0.2164(7) 0.9015(5) 1.0891(5)
C1 C 0.2097(6) 1.0057(4) 1.1766(6)
H1 H 0.2160 1.0585 1.1980
O1 O 0.4202(3) 0.3736(2) 1.0481(3)
O2 O 0.3484(3) 0.2679(2) 1.1165(3)
O3 O 0.3680(3) 0.1293(2) 1.0390(3)
H2 H 0.3414 0.1636 1.0728
O4 O 0.0185(3) -0.0117(2) 0.6614(3)
O5 O 0.0586(3) 0.0835(3) 0.7680(4)
O6 O 0.2298(3) 0.0806(2) 0.8618(3)
H3 H 0.1677 0.0862 0.8567
C2 C 0.3964(4) 0.3000(3) 1.0510(4)
C3 C 0.4449(4) 0.1190(3) 0.8857(4)
C4 C 0.4146(4) 0.1655(3) 0.9631(4)
C5 C 0.4306(4) 0.2501(3) 0.9655(4)
C6 C 0.4777(4) 0.2861(3) 0.8881(4)
H4 H 0.4882 0.3413 0.8894
C7 C 0.5099(4) 0.2423(3) 0.8078(4)
C8 C 0.4939(4) 0.1566(3) 0.8074(4)
C9 C 0.5317(4) 0.1144(4) 0.7247(4)
H5 H 0.5247 0.0589 0.7214
C10 C 0.5778(5) 0.1541(4) 0.6504(5)
H6 H 0.6008 0.1249 0.5975
C11 C 0.5911(5) 0.2367(4) 0.6521(5)
H7 H 0.6231 0.2624 0.6011
C12 C 0.5569(5) 0.2798(4) 0.7289(5)
H8 H 0.5648 0.3353 0.7292
C13 C 0.4310(4) 0.0287(3) 0.8874(4)
H9 H 0.4077 0.0138 0.9516
H10 H 0.4973 0.0041 0.8803
C14 C 0.0805(4) 0.0229(3) 0.7211(4)
C15 C 0.3569(4) -0.0078(3) 0.8098(4)
C16 C 0.2590(4) 0.0209(3) 0.8012(4)
C17 C 0.1865(4) -0.0105(3) 0.7307(4)
C18 C 0.2166(4) -0.0714(3) 0.6704(4)
H11 H 0.1708 -0.0907 0.6222
C19 C 0.3136(4) -0.1053(3) 0.6792(4)
C20 C 0.3857(4) -0.0731(3) 0.7507(4)
C21 C 0.4830(5) -0.1126(4) 0.7587(5)
H12 H 0.5322 -0.0933 0.8037
C22 C 0.5055(5) -0.1765(4) 0.7033(5)
H13 H 0.5691 -0.2008 0.7118
C23 C 0.4350(5) -0.2073(4) 0.6327(5)
H14 H 0.4522 -0.2509 0.5942
C24 C 0.3408(5) -0.1722(4) 0.6214(5)
H15 H 0.2938 -0.1926 0.5751
C25 C 0.3278(5) 0.5864(4) 0.9961(4)
H16 H 0.3950 0.5929 0.9782
C26 C 0.1964(6) 0.5474(4) 1.0647(7)
H17 H 0.1531 0.5201 1.1056
C27 C 0.1663(7) 0.6016(5) 0.9979(7)
H18 H 0.0998 0.6189 0.9844
C28 C 0.2535(8) 0.6809(4) 0.8716(5)
H19 H 0.3116 0.6661 0.8334
H20 H 0.1926 0.6724 0.8303
C29 C 0.2608(11) 0.7626(6) 0.8923(7)
H21 H 0.2025 0.7866 0.8575
H22 H 0.3203 0.7807 0.8584
C30 C 0.2675(9) 0.8057(6) 0.9919(7)
H23 H 0.2663 0.7670 1.0450
H24 H 0.3302 0.8364 0.9985
C31 C 0.1808(9) 0.8578(7) 0.9947(7)
H25 H 0.1173 0.8289 1.0018
H26 H 0.1752 0.8934 0.9385
C32 C 0.2251(7) 0.9818(5) 1.0849(6)
H27 H 0.2388 1.0134 1.0307
N4 N 0.1836(4) 0.9435(3) 1.2349(4)
C33 C 0.1898(8) 0.8821(5) 1.1809(6)
H28 H 0.1777 0.8300 1.2018
Zn1A Zn 0.11342(5) 0.95631(4) 1.35962(4)
Zn1C Zn -0.11342(5) 0.04369(4) 0.64038(4)
O4C O 0.5185(3) 0.5117(2) 1.1614(3)
N4A N 0.3164(4) 0.4435(3) 1.2651(4)
loop_
_geom_bond_atom_site_label_1
_geom_bond_atom_site_label_2
_geom_bond_site_symmetry_1
_geom_bond_site_symmetry_2
Zn1 N1 1_555 1_555
N1 C25 1_555 1_555
N2 C25 1_555 1_555
N3 C31 1_555 1_555
C1 H1 1_555 1_555
O1 Zn1 1_555 1_555
O2 C2 1_555 1_555
O3 H2 1_555 1_555
O4 C14 1_555 1_555
O5 C14 1_555 1_555
O6 H3 1_555 1_555
C2 O1 1_555 1_555
C3 C4 1_555 1_555
C4 O3 1_555 1_555
C5 C2 1_555 1_555
C6 C5 1_555 1_555
H4 C6 1_555 1_555
C7 C6 1_555 1_555
C8 C3 1_555 1_555
C9 C8 1_555 1_555
H5 C9 1_555 1_555
C10 C9 1_555 1_555
H6 C10 1_555 1_555
C11 C10 1_555 1_555
H7 C11 1_555 1_555
C12 C7 1_555 1_555
H8 C12 1_555 1_555
C13 C3 1_555 1_555
H9 C13 1_555 1_555
H10 C13 1_555 1_555
C14 C17 1_555 1_555
C15 C13 1_555 1_555
C16 O6 1_555 1_555
C17 C16 1_555 1_555
C18 C17 1_555 1_555
H11 C18 1_555 1_555
C19 C18 1_555 1_555
C20 C15 1_555 1_555
C21 C20 1_555 1_555
H12 C21 1_555 1_555
C22 C21 1_555 1_555
H13 C22 1_555 1_555
C23 C22 1_555 1_555
H14 C23 1_555 1_555
C24 C19 1_555 1_555
H15 C24 1_555 1_555
C25 H16 1_555 1_555
C26 N1 1_555 1_555
H17 C26 1_555 1_555
C27 N2 1_555 1_555
H18 C27 1_555 1_555
C28 N2 1_555 1_555
H19 C28 1_555 1_555
H20 C28 1_555 1_555
C29 C28 1_555 1_555
H21 C29 1_555 1_555
H22 C29 1_555 1_555
C30 C29 1_555 1_555
H23 C30 1_555 1_555
H24 C30 1_555 1_555
C31 C30 1_555 1_555
H25 C31 1_555 1_555
H26 C31 1_555 1_555
C32 N3 1_555 1_555
H27 C32 1_555 1_555
N4 C1 1_555 1_555
C33 N3 1_555 1_555
H28 C33 1_555 1_555
Zn1A N4 1_555 1_555
Zn1C O4 1_555 1_555
O4C Zn1 1_555 1_555
N4A Zn1 1_555 1_555
C1 C32 1_555 1_555
C4 C5 1_555 1_555
C7 C8 1_555 1_555
C11 C12 1_555 1_555
C15 C16 1_555 1_555
C19 C20 1_555 1_555
C23 C24 1_555 1_555
C26 C27 1_555 1_555
N4 C33 1_555 1_555

#END
