
#######################################################################
#
#                 Cambridge Crystallographic Data Centre
#                                CCDC 
#
#######################################################################
#
# If this CIF has been generated from an entry in the Cambridge 
# Structural Database, then it will include bibliographic, chemical, 
# crystal, experimental, refinement or atomic coordinate data resulting 
# from the CCDC's data processing and validation procedures.
#
#######################################################################

data_JORRUF
_symmetry_cell_setting           triclinic
_symmetry_space_group_name_H-M   'P -1'
_symmetry_Int_Tables_number      2
_space_group_name_Hall           '-P 1'
loop_
_symmetry_equiv_pos_site_id
_symmetry_equiv_pos_as_xyz
1 x,y,z
2 -x,-y,-z
_cell_length_a                   11.0849(13)
_cell_length_b                   11.6224(14)
_cell_length_c                   13.0516(15)
_cell_angle_alpha                71.1410(10)
_cell_angle_beta                 86.977(2)
_cell_angle_gamma                69.7960(10)
_cell_volume                     1490.01
loop_
_atom_site_label
_atom_site_type_symbol
_atom_site_fract_x
_atom_site_fract_y
_atom_site_fract_z
Cd1 Cd 0.49115(5) 0.20208(5) 1.13691(4)
O1 O 0.5951(4) 0.2147(4) 0.9773(3)
O2 O 0.6777(5) 0.3691(5) 0.9581(4)
O3 O 0.8275(4) 0.4148(4) 0.8084(3)
H1 H 0.7924 0.4156 0.8652
O4 O 1.3199(4) -0.0279(4) 0.7584(4)
O5 O 1.4636(5) 0.0172(4) 0.8318(4)
O6 O 1.1154(4) 0.1537(4) 0.6561(3)
H2 H 1.1735 0.0829 0.6718
O7 O 0.5325(6) 0.3896(5) 1.1168(4)
H3 H 0.5807 0.3825 1.0647
H4 H 0.4700 0.4611 1.0948
N1 N 0.4213(6) 0.2446(6) 1.2905(5)
N2 N 0.4009(6) 0.3160(6) 1.4288(5)
N3 N 0.2977(5) 0.2301(5) 1.0699(4)
N4 N 0.1561(6) 0.1771(6) 1.0019(4)
C1 C 0.6590(6) 0.2823(7) 0.9280(5)
C2 C 0.8506(6) 0.3164(6) 0.6738(5)
C3 C 0.7971(6) 0.3324(6) 0.7680(5)
C4 C 0.7144(6) 0.2667(5) 0.8243(5)
C5 C 0.6826(6) 0.1885(6) 0.7806(5)
H5 H 0.6282 0.1451 0.8166
C6 C 0.7304(7) 0.1716(6) 0.6818(5)
C7 C 0.8160(6) 0.2353(6) 0.6291(5)
C8 C 0.8604(7) 0.2160(7) 0.5302(5)
H6 H 0.9179 0.2549 0.4937
C9 C 0.8206(8) 0.1414(8) 0.4873(6)
H7 H 0.8500 0.1315 0.4215
C10 C 0.7354(9) 0.0792(8) 0.5419(7)
H8 H 0.7094 0.0280 0.5123
C11 C 0.6919(8) 0.0941(7) 0.6365(6)
H9 H 0.6359 0.0528 0.6723
C12 C 0.9331(6) 0.3956(6) 0.6184(5)
H10 H 0.9468 0.3889 0.5462
H11 H 0.8853 0.4858 0.6100
C13 C 1.3592(7) 0.0525(7) 0.7796(5)
C14 C 1.0627(6) 0.3584(6) 0.6751(5)
C15 C 1.1511(7) 0.2356(7) 0.6935(5)
C16 C 1.2746(6) 0.1912(7) 0.7467(5)
C17 C 1.3091(6) 0.2784(7) 0.7772(5)
H12 H 1.3908 0.2521 0.8102
C18 C 1.2262(7) 0.4051(7) 0.7606(5)
C19 C 1.1003(7) 0.4459(7) 0.7116(5)
C20 C 1.0169(7) 0.5725(7) 0.7019(5)
H13 H 0.9334 0.6014 0.6715
C21 C 1.0570(8) 0.6534(7) 0.7365(6)
H14 H 1.0005 0.7369 0.7281
C22 C 1.1813(8) 0.6135(8) 0.7844(6)
H15 H 1.2067 0.6695 0.8081
C23 C 1.2637(7) 0.4924(7) 0.7956(5)
H16 H 1.3465 0.4657 0.8268
C24 C 0.4558(8) 0.3130(8) 1.3378(6)
H17 H 0.5136 0.3554 1.3096
C25 C 0.3329(9) 0.2100(8) 1.3527(8)
H18 H 0.2864 0.1630 1.3389
C26 C 0.3199(10) 0.2525(8) 1.4385(7)
H19 H 0.2648 0.2398 1.4938
C27 C 0.4158(8) 0.3825(8) 1.5039(6)
H20 H 0.3314 0.4357 1.5172
H21 H 0.4561 0.3183 1.5727
C28 C 0.4940(8) 0.4643(7) 1.4607(6)
H22 H 0.4550 0.5275 1.3912
H23 H 0.5793 0.4109 1.4491
C29 C 0.2794(7) 0.1446(6) 1.0332(5)
H24 H 0.3446 0.0702 1.0294
C30 C 0.0903(7) 0.2895(7) 1.0201(6)
H25 H 0.0024 0.3356 1.0069
C31 C 0.1788(7) 0.3208(7) 1.0614(6)
H26 H 0.1608 0.3946 1.0813
C32 C 0.1044(6) 0.1034(6) 0.9557(5)
H27 H 0.1758 0.0363 0.9395
H28 H 0.0561 0.1610 0.8877
C33 C 0.0197(6) 0.0418(6) 1.0266(5)
H29 H -0.0566 0.1082 1.0378
H30 H 0.0648 -0.0120 1.0967
N1A N 0.5787(6) 0.7554(6) 1.7095(5)
N2A N 0.5991(6) 0.6840(6) 1.5712(5)
C24A C 0.5442(8) 0.6870(8) 1.6622(6)
H17A H 0.4864 0.6446 1.6904
C25A C 0.6671(9) 0.7900(8) 1.6473(8)
H18A H 0.7136 0.8370 1.6611
C26A C 0.6801(10) 0.7475(8) 1.5615(7)
H19A H 0.7352 0.7602 1.5062
C27A C 0.5842(8) 0.6175(8) 1.4961(6)
H20A H 0.6686 0.5643 1.4828
H21A H 0.5439 0.6817 1.4273
C28A C 0.5060(8) 0.5357(7) 1.5393(6)
H22A H 0.5450 0.4725 1.6088
H23A H 0.4207 0.5891 1.5509
N3A N -0.2977(5) -0.2301(5) 0.9301(4)
N4A N -0.1561(6) -0.1771(6) 0.9981(4)
C29A C -0.2794(7) -0.1446(6) 0.9668(5)
H24A H -0.3446 -0.0702 0.9706
C30A C -0.0903(7) -0.2895(7) 0.9799(6)
H25A H -0.0024 -0.3356 0.9931
C31A C -0.1788(7) -0.3208(7) 0.9386(6)
H26A H -0.1608 -0.3946 0.9187
C32A C -0.1044(6) -0.1034(6) 1.0443(5)
H27A H -0.1758 -0.0363 1.0605
H28A H -0.0561 -0.1610 1.1123
C33A C -0.0197(6) -0.0418(6) 0.9734(5)
H29A H 0.0566 -0.1082 0.9622
H30A H -0.0648 0.0120 0.9033
Cd1A Cd -0.49115(5) -0.20208(5) 0.86309(4)
O1A O -0.5951(4) -0.2147(4) 1.0227(3)
O2A O -0.6777(5) -0.3691(5) 1.0419(4)
O3A O -0.8275(4) -0.4148(4) 1.1916(3)
H1A H -0.7924 -0.4156 1.1348
O4A O -1.3199(4) 0.0279(4) 1.2416(4)
O5A O -1.4636(5) -0.0172(4) 1.1682(4)
O6A O -1.1154(4) -0.1537(4) 1.3439(3)
H2A H -1.1735 -0.0829 1.3282
O7A O -0.5325(6) -0.3896(5) 0.8832(4)
H3A H -0.5807 -0.3825 0.9353
H4A H -0.4700 -0.4611 0.9052
C1A C -0.6590(6) -0.2823(7) 1.0720(5)
C2A C -0.8506(6) -0.3164(6) 1.3262(5)
C3A C -0.7971(6) -0.3324(6) 1.2320(5)
C4A C -0.7144(6) -0.2667(5) 1.1757(5)
C5A C -0.6826(6) -0.1885(6) 1.2194(5)
H5A H -0.6282 -0.1451 1.1834
C6A C -0.7304(7) -0.1716(6) 1.3182(5)
C7A C -0.8160(6) -0.2353(6) 1.3709(5)
C8A C -0.8604(7) -0.2160(7) 1.4698(5)
H6A H -0.9179 -0.2549 1.5063
C9A C -0.8206(8) -0.1414(8) 1.5127(6)
H7A H -0.8500 -0.1315 1.5785
C10A C -0.7354(9) -0.0792(8) 1.4581(7)
H8A H -0.7094 -0.0280 1.4877
C11A C -0.6919(8) -0.0941(7) 1.3635(6)
H9A H -0.6359 -0.0528 1.3277
C12A C -0.9331(6) -0.3956(6) 1.3816(5)
H10A H -0.9468 -0.3889 1.4538
H11A H -0.8853 -0.4858 1.3900
C13A C -1.3592(7) -0.0525(7) 1.2204(5)
C14A C -1.0627(6) -0.3584(6) 1.3249(5)
C15A C -1.1511(7) -0.2356(7) 1.3065(5)
C16A C -1.2746(6) -0.1912(7) 1.2533(5)
C17A C -1.3091(6) -0.2784(7) 1.2228(5)
H12A H -1.3908 -0.2521 1.1898
C18A C -1.2262(7) -0.4051(7) 1.2394(5)
C19A C -1.1003(7) -0.4459(7) 1.2884(5)
C20A C -1.0169(7) -0.5725(7) 1.2981(5)
H13A H -0.9334 -0.6014 1.3285
C21A C -1.0570(8) -0.6534(7) 1.2635(6)
H14A H -1.0005 -0.7369 1.2719
C22A C -1.1813(8) -0.6135(8) 1.2156(6)
H15A H -1.2067 -0.6695 1.1919
C23A C -1.2637(7) -0.4924(7) 1.2044(5)
H16A H -1.3465 -0.4657 1.1732
Cd1_2 Cd -1.50885(5) 0.20208(5) 1.13691(4)
Cd1A_2 Cd 0.50885(5) 0.79792(5) 1.86309(4)
Cd1A_3 Cd 1.50885(5) -0.20208(5) 0.86309(4)
O4_2 O -0.6801(4) -0.0279(4) 0.7584(4)
O4A_2 O 0.6801(4) 0.0279(4) 1.2416(4)
O5_2 O -0.5364(5) 0.0172(4) 0.8318(4)
O5A_2 O 0.5364(5) -0.0172(4) 1.1682(4)
N1A_2 N -0.4213(6) -0.2446(6) 0.7095(5)
loop_
_geom_bond_atom_site_label_1
_geom_bond_atom_site_label_2
_geom_bond_site_symmetry_1
_geom_bond_site_symmetry_2
Cd1 O1 1_555 1_555
O1 C1 1_555 1_555
O2 C1 1_555 1_555
O3 H1 1_555 1_555
O4 C13 1_555 1_555
O5 C13 1_555 1_555
O6 H2 1_555 1_555
O7 Cd1 1_555 1_555
H3 O7 1_555 1_555
H4 O7 1_555 1_555
N1 Cd1 1_555 1_555
N2 C24 1_555 1_555
N3 Cd1 1_555 1_555
N4 C29 1_555 1_555
C1 C4 1_555 1_555
C2 C3 1_555 1_555
C3 O3 1_555 1_555
C4 C3 1_555 1_555
C5 C4 1_555 1_555
H5 C5 1_555 1_555
C6 C5 1_555 1_555
C7 C2 1_555 1_555
C8 C7 1_555 1_555
H6 C8 1_555 1_555
C9 C8 1_555 1_555
H7 C9 1_555 1_555
C10 C9 1_555 1_555
H8 C10 1_555 1_555
C11 C6 1_555 1_555
H9 C11 1_555 1_555
C12 C2 1_555 1_555
H10 C12 1_555 1_555
H11 C12 1_555 1_555
C13 C16 1_555 1_555
C14 C12 1_555 1_555
C15 O6 1_555 1_555
C16 C15 1_555 1_555
C17 C16 1_555 1_555
H12 C17 1_555 1_555
C18 C17 1_555 1_555
C19 C14 1_555 1_555
C20 C19 1_555 1_555
H13 C20 1_555 1_555
C21 C20 1_555 1_555
H14 C21 1_555 1_555
C22 C21 1_555 1_555
H15 C22 1_555 1_555
C23 C18 1_555 1_555
H16 C23 1_555 1_555
C24 N1 1_555 1_555
H17 C24 1_555 1_555
C25 N1 1_555 1_555
H18 C25 1_555 1_555
C26 N2 1_555 1_555
H19 C26 1_555 1_555
C27 N2 1_555 1_555
H20 C27 1_555 1_555
H21 C27 1_555 1_555
C28 C27 1_555 1_555
H22 C28 1_555 1_555
H23 C28 1_555 1_555
C29 N3 1_555 1_555
H24 C29 1_555 1_555
C30 N4 1_555 1_555
H25 C30 1_555 1_555
C31 N3 1_555 1_555
H26 C31 1_555 1_555
C32 N4 1_555 1_555
H27 C32 1_555 1_555
H28 C32 1_555 1_555
C33 C32 1_555 1_555
H29 C33 1_555 1_555
H30 C33 1_555 1_555
N1A C24A 1_555 1_555
N2A C24A 1_555 1_555
C24A H17A 1_555 1_555
C25A N1A 1_555 1_555
H18A C25A 1_555 1_555
C26A N2A 1_555 1_555
H19A C26A 1_555 1_555
C27A N2A 1_555 1_555
H20A C27A 1_555 1_555
H21A C27A 1_555 1_555
C28A C28 1_555 1_555
H22A C28A 1_555 1_555
H23A C28A 1_555 1_555
N3A C29A 1_555 1_555
N4A C29A 1_555 1_555
C29A H24A 1_555 1_555
C30A N4A 1_555 1_555
H25A C30A 1_555 1_555
C31A N3A 1_555 1_555
H26A C31A 1_555 1_555
C32A N4A 1_555 1_555
H27A C32A 1_555 1_555
H28A C32A 1_555 1_555
C33A C33 1_555 1_555
H29A C33A 1_555 1_555
H30A C33A 1_555 1_555
Cd1A N3A 1_555 1_555
O1A Cd1A 1_555 1_555
O2A C1A 1_555 1_555
O3A H1A 1_555 1_555
O4A C13A 1_555 1_555
O5A C13A 1_555 1_555
O6A H2A 1_555 1_555
O7A Cd1A 1_555 1_555
H3A O7A 1_555 1_555
H4A O7A 1_555 1_555
C1A O1A 1_555 1_555
C2A C3A 1_555 1_555
C3A O3A 1_555 1_555
C4A C1A 1_555 1_555
C5A C4A 1_555 1_555
H5A C5A 1_555 1_555
C6A C5A 1_555 1_555
C7A C2A 1_555 1_555
C8A C7A 1_555 1_555
H6A C8A 1_555 1_555
C9A C8A 1_555 1_555
H7A C9A 1_555 1_555
C10A C9A 1_555 1_555
H8A C10A 1_555 1_555
C11A C6A 1_555 1_555
H9A C11A 1_555 1_555
C12A C2A 1_555 1_555
H10A C12A 1_555 1_555
H11A C12A 1_555 1_555
C13A C16A 1_555 1_555
C14A C12A 1_555 1_555
C15A O6A 1_555 1_555
C16A C15A 1_555 1_555
C17A C16A 1_555 1_555
H12A C17A 1_555 1_555
C18A C17A 1_555 1_555
C19A C14A 1_555 1_555
C20A C19A 1_555 1_555
H13A C20A 1_555 1_555
C21A C20A 1_555 1_555
H14A C21A 1_555 1_555
C22A C21A 1_555 1_555
H15A C22A 1_555 1_555
C23A C18A 1_555 1_555
H16A C23A 1_555 1_555
Cd1_2 O4A 1_555 1_555
Cd1A_2 N1A 1_555 1_555
Cd1A_3 O4 1_555 1_555
O4_2 Cd1A 1_555 1_555
O4A_2 Cd1 1_555 1_555
O5_2 Cd1A 1_555 1_555
O5A_2 Cd1 1_555 1_555
N1A_2 Cd1A 1_555 1_555
O5 Cd1A_3 1_555 1_555
C6 C7 1_555 1_555
C10 C11 1_555 1_555
C14 C15 1_555 1_555
C18 C19 1_555 1_555
C22 C23 1_555 1_555
C25 C26 1_555 1_555
C30 C31 1_555 1_555
C25A C26A 1_555 1_555
C27A C28A 1_555 1_555
C30A C31A 1_555 1_555
C32A C33A 1_555 1_555
O5A Cd1_2 1_555 1_555
C3A C4A 1_555 1_555
C6A C7A 1_555 1_555
C10A C11A 1_555 1_555
C14A C15A 1_555 1_555
C18A C19A 1_555 1_555
C22A C23A 1_555 1_555

#END
