
#######################################################################
#
#                 Cambridge Crystallographic Data Centre
#                                CCDC 
#
#######################################################################
#
# If this CIF has been generated from an entry in the Cambridge 
# Structural Database, then it will include bibliographic, chemical, 
# crystal, experimental, refinement or atomic coordinate data resulting 
# from the CCDC's data processing and validation procedures.
#
#######################################################################

data_JORRUD
_symmetry_cell_setting           monoclinic
_symmetry_space_group_name_H-M   'P 21/c'
_symmetry_Int_Tables_number      14
_space_group_name_Hall           '-P 2ybc'
loop_
_symmetry_equiv_pos_site_id
_symmetry_equiv_pos_as_xyz
1 x,y,z
2 -x,1/2+y,1/2-z
3 -x,-y,-z
4 x,1/2-y,1/2+z
_cell_length_a                   8.292(2)
_cell_length_b                   14.086(3)
_cell_length_c                   11.315(2)
_cell_angle_alpha                90
_cell_angle_beta                 104.55(3)
_cell_angle_gamma                90
_cell_volume                     1279.22
loop_
_atom_site_label
_atom_site_type_symbol
_atom_site_fract_x
_atom_site_fract_y
_atom_site_fract_z
N3 N -0.3914(2) -0.5321(1) 0.2652(1)
C4 C -0.5535(2) -0.5663(1) 0.2779(2)
C5 C -0.4150(3) -0.4480(2) 0.1873(2)
C6 C -0.3006(2) -0.6044(2) 0.2149(2)
N4 N -0.6898(2) -0.6632(1) 0.4084(1)
C7 C -0.5353(2) -0.6459(1) 0.3701(2)
C8 C -0.8250(2) -0.6935(1) 0.3048(2)
C9 C -0.6577(3) -0.7363(1) 0.5036(2)
H3 H -0.3405 -0.5134 0.3362
H4 H -0.6872 -0.6164 0.4563
H6 H -0.6169(24) -0.5118(14) 0.3059(18)
H7 H -0.6213(19) -0.5845(11) 0.1958(16)
H8 H -0.3060(27) -0.4255(14) 0.1803(18)
H9 H -0.4719(28) -0.3960(16) 0.2244(21)
H10 H -0.4872(26) -0.4607(16) 0.1054(22)
H11 H -0.1884(25) -0.5768(14) 0.2108(17)
H12 H -0.3622(23) -0.6239(14) 0.1344(20)
H13 H -0.2816(24) -0.6623(16) 0.2716(20)
H14 H -0.4452(22) -0.6293(14) 0.4454(18)
H15 H -0.4994(22) -0.7064(14) 0.3373(18)
H16 H -0.9237(26) -0.7085(15) 0.3343(19)
H17 H -0.8013(24) -0.7505(16) 0.2602(19)
H18 H -0.8510(21) -0.6438(14) 0.2436(17)
H19 H -0.7604(23) -0.7498(13) 0.5290(17)
H20 H -0.5680(24) -0.7174(13) 0.5751(20)
H21 H -0.6201(24) -0.8004(15) 0.4724(19)
Li1 Li 0.0388(3) -0.0752(2) 0.9295(2)
O1 O -0.1691(1) -0.0279(1) 0.9723(1)
C1 C 0.1035(2) -0.2113(1) 0.5146(1)
N1 N 0.1010(2) -0.2906(1) 0.4863(1)
C2 C 0.0741(2) -0.0924(1) 0.6607(2)
N2 N 0.0486(2) -0.0711(1) 0.7530(1)
C3 C 0.1035(3) -0.1169(1) 0.5490(2)
H1 H 0.2432(27) 0.0102(15) 1.0935(22)
H2 H 0.2171(27) 0.0687(16) 0.9851(23)
H5 H 0.1236(27) -0.0700(16) 0.5001(21)
Li1C Li 0.0388(3) -0.4248(2) 0.4295(2)
Li1B Li -0.0388(3) 0.0752(2) 1.0705(2)
O1B O 0.1691(1) 0.0279(1) 1.0277(1)
N1C N 0.1010(2) -0.2094(1) 0.9863(1)
N1A N -0.1010(2) 0.2094(1) 1.0137(1)
C1A C -0.1035(2) 0.2887(1) 0.9854(1)
C3A C -0.1035(3) 0.3831(1) 0.9510(2)
C2A C -0.0741(2) 0.4076(1) 0.8393(2)
N2A N -0.0486(2) 0.4289(1) 0.7470(1)
Li1A Li -0.0388(3) 0.4248(2) 0.5705(2)
H5A H -0.1236(27) 0.4300(16) 0.9999(21)
N2B N -0.0486(2) 0.0711(1) 1.2470(1)
H1B H -0.2432(27) -0.0102(15) 0.9065(22)
H2B H -0.2171(27) -0.0687(16) 1.0149(23)
loop_
_geom_bond_atom_site_label_1
_geom_bond_atom_site_label_2
_geom_bond_site_symmetry_1
_geom_bond_site_symmetry_2
Li1 O1 1_555 1_555
O1 Li1B 1_555 1_555
C1 N1 1_555 1_555
N1 Li1C 1_555 1_555
C2 N2 1_555 1_555
N2 Li1 1_555 1_555
C3 C1 1_555 1_555
N3 C4 1_555 1_555
C4 C7 1_555 1_555
C5 N3 1_555 1_555
C6 N3 1_555 1_555
N4 C7 1_555 1_555
C7 H14 1_555 1_555
C8 N4 1_555 1_555
C9 N4 1_555 1_555
H1 O1B 1_555 1_555
H2 O1B 1_555 1_555
H3 N3 1_555 1_555
H4 N4 1_555 1_555
H5 C3 1_555 1_555
H6 C4 1_555 1_555
H7 C4 1_555 1_555
H8 C5 1_555 1_555
H9 C5 1_555 1_555
H10 C5 1_555 1_555
H11 C6 1_555 1_555
H12 C6 1_555 1_555
H13 C6 1_555 1_555
H15 C7 1_555 1_555
H16 C8 1_555 1_555
H17 C8 1_555 1_555
H18 C8 1_555 1_555
H19 C9 1_555 1_555
H20 C9 1_555 1_555
H21 C9 1_555 1_555
Li1B O1B 1_555 1_555
O1B Li1 1_555 1_555
N1C Li1 1_555 1_555
N1A Li1B 1_555 1_555
C1A N1A 1_555 1_555
C3A C1A 1_555 1_555
C2A C3A 1_555 1_555
N2A C2A 1_555 1_555
Li1A N2A 1_555 1_555
H5A C3A 1_555 1_555
N2B Li1B 1_555 1_555
H1B O1 1_555 1_555
H2B O1 1_555 1_555
C2 C3 1_555 1_555

#END
