
#######################################################################
#
#                 Cambridge Crystallographic Data Centre
#                                CCDC 
#
#######################################################################
#
# If this CIF has been generated from an entry in the Cambridge 
# Structural Database, then it will include bibliographic, chemical, 
# crystal, experimental, refinement or atomic coordinate data resulting 
# from the CCDC's data processing and validation procedures.
#
#######################################################################

data_JORWAO
_symmetry_cell_setting           triclinic
_symmetry_space_group_name_H-M   'P -1'
_symmetry_Int_Tables_number      2
_space_group_name_Hall           '-P 1'
loop_
_symmetry_equiv_pos_site_id
_symmetry_equiv_pos_as_xyz
1 x,y,z
2 -x,-y,-z
_cell_length_a                   11.253(2)
_cell_length_b                   13.138(3)
_cell_length_c                   18.920(2)
_cell_angle_alpha                89.39(1)
_cell_angle_beta                 89.22(1)
_cell_angle_gamma                71.50(2)
_cell_volume                     2652.32
loop_
_atom_site_label
_atom_site_type_symbol
_atom_site_fract_x
_atom_site_fract_y
_atom_site_fract_z
Sn1 Sn 0.02994(9) 0.21426(9) 0.24026(6)
Sn2 Sn -0.46867(9) 0.22002(9) 0.27648(6)
O1 O -0.1168(8) 0.2335(9) 0.1618(5)
O2 O -0.2774(9) 0.1904(9) 0.2120(5)
O3 O -0.6249(8) 0.2556(9) 0.3529(6)
O4 O -0.7810(9) 0.2076(9) 0.3066(6)
O5 O -0.4018(8) 0.2460(8) 0.0816(6)
O6 O -0.9130(8) 0.2635(8) 0.4341(5)
C1 C -0.228(1) 0.227(1) 0.1621(8)
C2 C -0.736(1) 0.247(1) 0.3565(8)
C3 C -0.056(1) 0.375(1) 0.2724(9)
C4 C 0.016(1) 0.080(1) 0.3048(9)
C5 C 0.165(1) 0.201(1) 0.1581(9)
C6 C -0.498(1) 0.082(1) 0.230(1)
C7 C -0.548(1) 0.377(1) 0.2224(7)
C8 C -0.349(1) 0.223(1) 0.3622(9)
C9 C -0.290(1) 0.266(1) 0.0950(8)
C10 C -0.260(1) 0.321(1) 0.038(1)
C11 C -0.359(1) 0.336(1) -0.0099(9)
C12 C -0.440(1) 0.289(1) 0.0158(9)
C13 C -0.560(1) 0.275(1) -0.0073(8)
C14 C -0.669(2) 0.344(2) 0.039(1)
C15 C -0.557(2) 0.157(2) -0.003(1)
C16 C -0.584(2) 0.324(2) -0.085(1)
C17 C -0.801(1) 0.286(1) 0.4209(8)
C18 C -0.773(1) 0.339(1) 0.4717(8)
C19 C -0.873(1) 0.353(1) 0.5281(9)
C20 C -0.953(1) 0.303(1) 0.5015(9)
C21 C -1.073(2) 0.287(1) 0.5259(9)
C22 C -1.180(1) 0.348(2) 0.474(1)
C23 C -1.056(2) 0.165(2) 0.531(1)
C24 C -1.102(2) 0.339(2) 0.599(1)
C25 C -0.018(1) 0.450(1) 0.227(1)
C26 C -0.077(2) 0.478(1) 0.1613(9)
C27 C -0.034(2) 0.543(2) 0.111(1)
C28 C 0.069(2) 0.576(2) 0.127(1)
C29 C 0.124(2) 0.550(2) 0.196(1)
C30 C 0.088(2) 0.483(1) 0.239(1)
C31 C 0.101(1) -0.024(1) 0.2734(8)
C32 C 0.050(2) -0.084(2) 0.230(1)
C33 C 0.137(3) -0.182(2) 0.206(2)
C34 C 0.260(2) -0.215(2) 0.225(1)
C35 C 0.306(2) -0.153(2) 0.270(1)
C36 C 0.227(2) -0.058(2) 0.296(1)
C37 C 0.149(1) 0.140(1) 0.0934(8)
C38 C 0.207(2) 0.029(2) 0.088(1)
C39 C 0.196(2) -0.024(2) 0.023(1)
C40 C 0.122(2) 0.037(2) -0.030(1)
C41 C 0.065(2) 0.144(2) -0.023(1)
C42 C 0.077(2) 0.198(2) 0.038(1)
C43 C -0.396(1) -0.018(1) 0.2369(8)
C44 C -0.319(2) -0.064(1) 0.1799(9)
C45 C -0.227(2) -0.166(2) 0.190(1)
C46 C -0.208(2) -0.217(1) 0.255(1)
C47 C -0.282(2) -0.173(2) 0.312(1)
C48 C -0.375(2) -0.074(1) 0.303(1)
C49 C -0.513(2) 0.460(1) 0.270(1)
C50 C -0.566(2) 0.493(1) 0.335(1)
C51 C -0.523(3) 0.566(2) 0.370(1)
C52 C -0.431(2) 0.607(2) 0.348(2)
C53 C -0.377(2) 0.574(1) 0.278(1)
C54 C -0.414(1) 0.499(1) 0.2448(9)
C55 C -0.352(1) 0.151(1) 0.4254(8)
C56 C -0.279(1) 0.043(1) 0.431(1)
C57 C -0.289(2) -0.022(2) 0.4917(9)
C58 C -0.370(2) 0.022(1) 0.5443(9)
C59 C -0.445(2) 0.129(2) 0.538(1)
C60 C -0.435(2) 0.194(1) 0.483(1)
O4_2 O 0.2190(9) 0.2076(9) 0.3066(6)
Sn1_2 Sn -0.97006(9) 0.21426(9) 0.24026(6)
loop_
_geom_bond_atom_site_label_1
_geom_bond_atom_site_label_2
_geom_bond_site_symmetry_1
_geom_bond_site_symmetry_2
Sn1 O1 1_555 1_555
Sn2 O2 1_555 1_555
O1 C1 1_555 1_555
O2 C1 1_555 1_555
O3 Sn2 1_555 1_555
O4 C2 1_555 1_555
O5 C9 1_555 1_555
O6 C17 1_555 1_555
C1 C9 1_555 1_555
C2 O3 1_555 1_555
C3 Sn1 1_555 1_555
C4 Sn1 1_555 1_555
C5 Sn1 1_555 1_555
C6 Sn2 1_555 1_555
C7 Sn2 1_555 1_555
C8 Sn2 1_555 1_555
C9 C10 1_555 1_555
C10 C11 1_555 1_555
C11 C12 1_555 1_555
C12 O5 1_555 1_555
C13 C12 1_555 1_555
C14 C13 1_555 1_555
C15 C13 1_555 1_555
C16 C13 1_555 1_555
C17 C2 1_555 1_555
C18 C17 1_555 1_555
C19 C18 1_555 1_555
C20 O6 1_555 1_555
C21 C20 1_555 1_555
C22 C21 1_555 1_555
C23 C21 1_555 1_555
C24 C21 1_555 1_555
C25 C3 1_555 1_555
C26 C25 1_555 1_555
C27 C26 1_555 1_555
C28 C27 1_555 1_555
C29 C28 1_555 1_555
C30 C25 1_555 1_555
C31 C4 1_555 1_555
C32 C31 1_555 1_555
C33 C32 1_555 1_555
C34 C33 1_555 1_555
C35 C34 1_555 1_555
C36 C31 1_555 1_555
C37 C5 1_555 1_555
C38 C37 1_555 1_555
C39 C38 1_555 1_555
C40 C39 1_555 1_555
C41 C40 1_555 1_555
C42 C37 1_555 1_555
C43 C6 1_555 1_555
C44 C43 1_555 1_555
C45 C44 1_555 1_555
C46 C45 1_555 1_555
C47 C46 1_555 1_555
C48 C43 1_555 1_555
C49 C7 1_555 1_555
C50 C49 1_555 1_555
C51 C50 1_555 1_555
C52 C51 1_555 1_555
C53 C52 1_555 1_555
C54 C49 1_555 1_555
C55 C8 1_555 1_555
C56 C55 1_555 1_555
C57 C56 1_555 1_555
C58 C57 1_555 1_555
C59 C58 1_555 1_555
C60 C55 1_555 1_555
O4_2 Sn1 1_555 1_555
Sn1_2 O4 1_555 1_555
C19 C20 1_555 1_555
C29 C30 1_555 1_555
C35 C36 1_555 1_555
C41 C42 1_555 1_555
C47 C48 1_555 1_555
C53 C54 1_555 1_555
C59 C60 1_555 1_555

#END
