
#######################################################################
#
#                 Cambridge Crystallographic Data Centre
#                                CCDC 
#
#######################################################################
#
# If this CIF has been generated from an entry in the Cambridge 
# Structural Database, then it will include bibliographic, chemical, 
# crystal, experimental, refinement or atomic coordinate data resulting 
# from the CCDC's data processing and validation procedures.
#
#######################################################################

data_JORYOG
_symmetry_cell_setting           orthorhombic
_symmetry_space_group_name_H-M   'A b a 2'
_symmetry_Int_Tables_number      41
_space_group_name_Hall           'A 2 -2ab'
loop_
_symmetry_equiv_pos_site_id
_symmetry_equiv_pos_as_xyz
1 x,y,z
2 -x,-y,z
3 1/2+x,1/2-y,z
4 1/2-x,1/2+y,z
5 x,1/2+y,1/2+z
6 -x,1/2-y,1/2+z
7 1/2+x,-y,1/2+z
8 1/2-x,y,1/2+z
_cell_length_a                   22.712(5)
_cell_length_b                   34.599(8)
_cell_length_c                   9.858(2)
_cell_angle_alpha                90
_cell_angle_beta                 90
_cell_angle_gamma                90
_cell_volume                     7746.54
loop_
_atom_site_label
_atom_site_type_symbol
_atom_site_fract_x
_atom_site_fract_y
_atom_site_fract_z
Ag1 Ag 0.39348(3) 0.37275(2) 0.25995(8)
Ag2 Ag 0.63172(3) 0.34637(2) -0.59043(9)
C1 C 0.3964(5) 0.2722(3) 0.3345(11)
H1 H 0.4271 0.2580 0.3794
H2 H 0.4133 0.2886 0.2665
H3 H 0.3695 0.2544 0.2925
C2 C 0.3645(4) 0.2959(2) 0.4343(10)
C3 C 0.3400(4) 0.2852(3) 0.5573(9)
C4 C 0.3145(4) 0.3179(3) 0.6082(10)
C5 C 0.2795(6) 0.3250(3) 0.7339(12)
H4 H 0.2394 0.3174 0.7189
H5 H 0.2809 0.3520 0.7565
H6 H 0.2957 0.3101 0.8071
C6 C 0.4111(5) 0.2530(3) 0.8171(11)
H7 H 0.3974 0.2550 0.9090
H8 H 0.4178 0.2784 0.7813
H9 H 0.4472 0.2386 0.8150
C7 C 0.3652(4) 0.2326(3) 0.7320(10)
C8 C 0.3367(4) 0.2460(3) 0.6166(9)
C9 C 0.3023(4) 0.2160(3) 0.5745(10)
C10 C 0.2617(6) 0.2122(3) 0.4559(14)
H10 H 0.2657 0.1869 0.4172
H11 H 0.2715 0.2313 0.3890
H12 H 0.2218 0.2160 0.4853
C11 C 0.5196(5) 0.3275(3) 0.0717(11)
H13 H 0.5350 0.3396 0.1518
H14 H 0.5515 0.3200 0.0136
H15 H 0.4973 0.3050 0.0967
C12 C 0.4817(5) 0.3546(3) 0.0003(10)
C13 C 0.4901(4) 0.3731(3) -0.1221(9)
C14 C 0.4399(4) 0.3951(3) -0.1439(10)
C15 C 0.4235(5) 0.4207(3) -0.2601(12)
H16 H 0.3829 0.4282 -0.2518
H17 H 0.4290 0.4070 -0.3438
H18 H 0.4479 0.4434 -0.2593
C16 C 0.4966(5) 0.3424(4) -0.4321(11)
H19 H 0.4829 0.3624 -0.4917
H20 H 0.4649 0.3340 -0.3752
H21 H 0.5109 0.3211 -0.4848
C17 C 0.5454(4) 0.3578(3) -0.3458(10)
C18 C 0.5428(4) 0.3719(3) -0.2109(8)
C19 C 0.5995(4) 0.3828(3) -0.1822(10)
C20 C 0.6260(4) 0.4004(4) -0.0597(11)
H22 H 0.6680 0.3976 -0.0633
H23 H 0.6111 0.3876 0.0197
H24 H 0.6160 0.4273 -0.0560
C21 C 0.5200(5) 0.4327(3) 0.2315(13)
H25 H 0.5114 0.4390 0.1388
H26 H 0.5201 0.4051 0.2427
H27 H 0.5579 0.4429 0.2553
C22 C 0.4738(4) 0.4502(3) 0.3223(11)
C23 C 0.4763(4) 0.4857(2) 0.3893(10)
C24 C 0.4233(4) 0.4891(2) 0.4564(9)
C25 C 0.3990(4) 0.5199(3) 0.5484(12)
H28 H 0.3638 0.5106 0.5913
H29 H 0.3900 0.5426 0.4963
H30 H 0.4277 0.5262 0.6165
C26 C 0.7390(6) 0.5750(4) -0.9565(17)
C27 C 0.7097(6) 0.5370(3) -0.9368(14)
H31 H 0.7156 0.5211 -1.0167
H32 H 0.6677 0.5409 -0.9252
C28 C 0.7343(6) 0.5166(3) -0.8145(14)
H33 H 0.7297 0.5325 -0.7340
H34 H 0.7758 0.5111 -0.8270
C29 C 0.6986(5) 0.4788(3) -0.8013(16)
H35 H 0.6732 0.4798 -0.7223
H36 H 0.6744 0.4748 -0.8811
C30 C 0.7418(5) 0.4472(3) -0.7874(15)
H37 H 0.7698 0.4545 -0.7177
H38 H 0.7633 0.4451 -0.8720
C31 C 0.7174(5) 0.4072(3) -0.7520(17)
N1 N 0.3571(3) 0.33324(19) 0.4104(10)
N2 N 0.3270(3) 0.3460(2) 0.5196(8)
H39 H 0.3169 0.3697 0.5309
N3 N 0.3133(4) 0.1860(2) 0.6564(9)
H40 H 0.2976 0.1636 0.6472
N4 N 0.3513(3) 0.1952(2) 0.7540(9)
N5 N 0.4288(4) 0.3636(2) 0.0498(8)
N6 N 0.4048(3) 0.3879(3) -0.0406(8)
H41 H 0.3703 0.3978 -0.0319
N7 N 0.5998(4) 0.3609(2) -0.3936(9)
N8 N 0.6322(4) 0.3763(2) -0.2934(8)
H42 H 0.6692 0.3812 -0.2995
N9 N 0.4221(3) 0.4321(2) 0.3456(9)
N10 N 0.3925(3) 0.4563(2) 0.4269(8)
H43 H 0.3577 0.4516 0.4572
O1 O 0.6704(3) 0.4041(2) -0.6931(8)
O2 O 0.7473(3) 0.37985(18) -0.7964(8)
O3 O 0.7051(4) 0.6022(3) -0.9686(11)
O4 O 0.7931(3) 0.57795(19) -0.9707(8)
C21A C 0.4800(5) 0.5673(3) 0.2315(13)
H25A H 0.4886 0.5610 0.1388
H26A H 0.4799 0.5949 0.2427
H27A H 0.4421 0.5571 0.2553
C22A C 0.5262(4) 0.5498(3) 0.3223(11)
C23A C 0.5237(4) 0.5143(2) 0.3893(10)
C24A C 0.5767(4) 0.5109(2) 0.4564(9)
C25A C 0.6010(4) 0.4801(3) 0.5484(12)
H28A H 0.6362 0.4894 0.5913
H29A H 0.6100 0.4574 0.4963
H30A H 0.5723 0.4738 0.6165
N9A N 0.5779(3) 0.5679(2) 0.3456(9)
N10A N 0.6075(3) 0.5437(2) 0.4269(8)
H43A H 0.6423 0.5484 0.4572
Ag1A Ag 0.60652(3) 0.62725(2) 0.25995(8)
Ag2A Ag 0.36828(3) 0.65363(2) -0.59043(9)
C1A C 0.6036(5) 0.7278(3) 0.3345(11)
H1A H 0.5729 0.7420 0.3794
H2A H 0.5867 0.7114 0.2665
H3A H 0.6305 0.7456 0.2925
C2A C 0.6355(4) 0.7041(2) 0.4343(10)
C3A C 0.6600(4) 0.7148(3) 0.5573(9)
C4A C 0.6855(4) 0.6821(3) 0.6082(10)
C5A C 0.7205(6) 0.6750(3) 0.7339(12)
H4A H 0.7606 0.6826 0.7189
H5A H 0.7191 0.6480 0.7565
H6A H 0.7043 0.6899 0.8071
C6A C 0.5889(5) 0.7470(3) 0.8171(11)
H7A H 0.6026 0.7450 0.9090
H8A H 0.5822 0.7216 0.7813
H9A H 0.5528 0.7614 0.8150
C7A C 0.6348(4) 0.7674(3) 0.7320(10)
C8A C 0.6633(4) 0.7540(3) 0.6166(9)
C9A C 0.6977(4) 0.7840(3) 0.5745(10)
C10A C 0.7383(6) 0.7878(3) 0.4559(14)
H10A H 0.7343 0.8131 0.4172
H11A H 0.7285 0.7687 0.3890
H12A H 0.7782 0.7840 0.4853
C11A C 0.4804(5) 0.6725(3) 0.0717(11)
H13A H 0.4650 0.6604 0.1518
H14A H 0.4485 0.6800 0.0136
H15A H 0.5027 0.6950 0.0967
C12A C 0.5183(5) 0.6454(3) 0.0003(10)
C13A C 0.5099(4) 0.6269(3) -0.1221(9)
C14A C 0.5601(4) 0.6049(3) -0.1439(10)
C15A C 0.5765(5) 0.5793(3) -0.2601(12)
H16A H 0.6171 0.5718 -0.2518
H17A H 0.5710 0.5930 -0.3438
H18A H 0.5521 0.5566 -0.2593
C16A C 0.5034(5) 0.6576(4) -0.4321(11)
H19A H 0.5171 0.6376 -0.4917
H20A H 0.5351 0.6660 -0.3752
H21A H 0.4891 0.6789 -0.4848
C17A C 0.4546(4) 0.6422(3) -0.3458(10)
C18A C 0.4572(4) 0.6281(3) -0.2109(8)
C19A C 0.4005(4) 0.6172(3) -0.1822(10)
C20A C 0.3740(4) 0.5996(4) -0.0597(11)
H22A H 0.3320 0.6024 -0.0633
H23A H 0.3889 0.6124 0.0197
H24A H 0.3840 0.5727 -0.0560
C26A C 0.2610(6) 0.4250(4) -0.9565(17)
C27A C 0.2903(6) 0.4630(3) -0.9368(14)
H31A H 0.2844 0.4789 -1.0167
H32A H 0.3323 0.4591 -0.9252
C28A C 0.2657(6) 0.4834(3) -0.8145(14)
H33A H 0.2703 0.4675 -0.7340
H34A H 0.2242 0.4889 -0.8270
C29A C 0.3014(5) 0.5212(3) -0.8013(16)
H35A H 0.3268 0.5202 -0.7223
H36A H 0.3256 0.5252 -0.8811
C30A C 0.2582(5) 0.5528(3) -0.7874(15)
H37A H 0.2302 0.5455 -0.7177
H38A H 0.2367 0.5549 -0.8720
C31A C 0.2826(5) 0.5928(3) -0.7520(17)
N1A N 0.6429(3) 0.66676(19) 0.4104(10)
N2A N 0.6730(3) 0.6540(2) 0.5196(8)
H39A H 0.6831 0.6303 0.5309
N3A N 0.6867(4) 0.8140(2) 0.6564(9)
H40A H 0.7024 0.8364 0.6472
N4A N 0.6487(3) 0.8048(2) 0.7540(9)
N5A N 0.5712(4) 0.6364(2) 0.0498(8)
N6A N 0.5952(3) 0.6121(3) -0.0406(8)
H41A H 0.6297 0.6022 -0.0319
N7A N 0.4002(4) 0.6391(2) -0.3936(9)
N8A N 0.3678(4) 0.6237(2) -0.2934(8)
H42A H 0.3308 0.6188 -0.2995
O1A O 0.3296(3) 0.5959(2) -0.6931(8)
O2A O 0.2527(3) 0.62015(18) -0.7964(8)
O3A O 0.2949(4) 0.3978(3) -0.9686(11)
O4A O 0.2069(3) 0.42205(19) -0.9707(8)
Ag2D Ag 0.63172(3) 0.84637(2) 0.90957(9)
Ag2E Ag 0.36828(3) 0.15363(2) 0.90957(9)
N4D N 0.3513(3) 0.6952(2) -0.7460(9)
N4E N 0.6487(3) 0.3048(2) -0.7460(9)
loop_
_geom_bond_atom_site_label_1
_geom_bond_atom_site_label_2
_geom_bond_site_symmetry_1
_geom_bond_site_symmetry_2
Ag1 N1 1_555 1_555
Ag2 N7 1_555 1_555
C1 H1 1_555 1_555
H2 C1 1_555 1_555
H3 C1 1_555 1_555
C2 C1 1_555 1_555
C3 C2 1_555 1_555
C4 C3 1_555 1_555
C5 C4 1_555 1_555
H4 C5 1_555 1_555
H5 C5 1_555 1_555
H6 C5 1_555 1_555
C6 H7 1_555 1_555
H8 C6 1_555 1_555
H9 C6 1_555 1_555
C7 C6 1_555 1_555
C8 C3 1_555 1_555
C9 C8 1_555 1_555
C10 C9 1_555 1_555
H10 C10 1_555 1_555
H11 C10 1_555 1_555
H12 C10 1_555 1_555
C11 H13 1_555 1_555
H14 C11 1_555 1_555
H15 C11 1_555 1_555
C12 C11 1_555 1_555
C13 C12 1_555 1_555
C14 C13 1_555 1_555
C15 C14 1_555 1_555
H16 C15 1_555 1_555
H17 C15 1_555 1_555
H18 C15 1_555 1_555
C16 H19 1_555 1_555
H20 C16 1_555 1_555
H21 C16 1_555 1_555
C17 C16 1_555 1_555
C18 C13 1_555 1_555
C19 C18 1_555 1_555
C20 C19 1_555 1_555
H22 C20 1_555 1_555
H23 C20 1_555 1_555
H24 C20 1_555 1_555
C21 H25 1_555 1_555
H26 C21 1_555 1_555
H27 C21 1_555 1_555
C22 C21 1_555 1_555
C23 C22 1_555 1_555
C24 C23 1_555 1_555
C25 C24 1_555 1_555
H28 C25 1_555 1_555
H29 C25 1_555 1_555
H30 C25 1_555 1_555
C26 C27 1_555 1_555
C27 H31 1_555 1_555
H32 C27 1_555 1_555
C28 C27 1_555 1_555
H33 C28 1_555 1_555
H34 C28 1_555 1_555
C29 C28 1_555 1_555
H35 C29 1_555 1_555
H36 C29 1_555 1_555
C30 C29 1_555 1_555
H37 C30 1_555 1_555
H38 C30 1_555 1_555
C31 C30 1_555 1_555
N1 C2 1_555 1_555
N2 C4 1_555 1_555
H39 N2 1_555 1_555
N3 C9 1_555 1_555
H40 N3 1_555 1_555
N4 C7 1_555 1_555
N5 Ag1 1_555 1_555
N6 C14 1_555 1_555
H41 N6 1_555 1_555
N7 C17 1_555 1_555
N8 C19 1_555 1_555
H42 N8 1_555 1_555
N9 Ag1 1_555 1_555
N10 C24 1_555 1_555
H43 N10 1_555 1_555
O1 Ag2 1_555 1_555
O2 C31 1_555 1_555
O3 C26 1_555 1_555
O4 C26 1_555 1_555
C21A H25A 1_555 1_555
H26A C21A 1_555 1_555
H27A C21A 1_555 1_555
C22A C21A 1_555 1_555
C23A C23 1_555 1_555
C24A C23A 1_555 1_555
C25A C24A 1_555 1_555
H28A C25A 1_555 1_555
H29A C25A 1_555 1_555
H30A C25A 1_555 1_555
N9A C22A 1_555 1_555
N10A C24A 1_555 1_555
H43A N10A 1_555 1_555
Ag1A N9A 1_555 1_555
Ag2A N7A 1_555 1_555
C1A H1A 1_555 1_555
H2A C1A 1_555 1_555
H3A C1A 1_555 1_555
C2A C1A 1_555 1_555
C3A C2A 1_555 1_555
C4A C3A 1_555 1_555
C5A C4A 1_555 1_555
H4A C5A 1_555 1_555
H5A C5A 1_555 1_555
H6A C5A 1_555 1_555
C6A H7A 1_555 1_555
H8A C6A 1_555 1_555
H9A C6A 1_555 1_555
C7A C6A 1_555 1_555
C8A C3A 1_555 1_555
C9A C8A 1_555 1_555
C10A C9A 1_555 1_555
H10A C10A 1_555 1_555
H11A C10A 1_555 1_555
H12A C10A 1_555 1_555
C11A H13A 1_555 1_555
H14A C11A 1_555 1_555
H15A C11A 1_555 1_555
C12A C11A 1_555 1_555
C13A C12A 1_555 1_555
C14A C13A 1_555 1_555
C15A C14A 1_555 1_555
H16A C15A 1_555 1_555
H17A C15A 1_555 1_555
H18A C15A 1_555 1_555
C16A H19A 1_555 1_555
H20A C16A 1_555 1_555
H21A C16A 1_555 1_555
C17A C16A 1_555 1_555
C18A C13A 1_555 1_555
C19A C18A 1_555 1_555
C20A C19A 1_555 1_555
H22A C20A 1_555 1_555
H23A C20A 1_555 1_555
H24A C20A 1_555 1_555
C26A C27A 1_555 1_555
C27A H31A 1_555 1_555
H32A C27A 1_555 1_555
C28A C27A 1_555 1_555
H33A C28A 1_555 1_555
H34A C28A 1_555 1_555
C29A C28A 1_555 1_555
H35A C29A 1_555 1_555
H36A C29A 1_555 1_555
C30A C29A 1_555 1_555
H37A C30A 1_555 1_555
H38A C30A 1_555 1_555
C31A C30A 1_555 1_555
N1A Ag1A 1_555 1_555
N2A C4A 1_555 1_555
H39A N2A 1_555 1_555
N3A C9A 1_555 1_555
H40A N3A 1_555 1_555
N4A C7A 1_555 1_555
N5A Ag1A 1_555 1_555
N6A C14A 1_555 1_555
H41A N6A 1_555 1_555
N7A C17A 1_555 1_555
N8A C19A 1_555 1_555
H42A N8A 1_555 1_555
O1A Ag2A 1_555 1_555
O2A C31A 1_555 1_555
O3A C26A 1_555 1_555
O4A C26A 1_555 1_555
Ag2D N4A 1_555 1_555
Ag2E N4 1_555 1_555
N4D Ag2A 1_555 1_555
N4E Ag2 1_555 1_555
C7 C8 1_555 1_555
C12 N5 1_555 1_555
C17 C18 1_555 1_555
C22 N9 1_555 1_555
C31 O1 1_555 1_555
N1 N2 1_555 1_555
N3 N4 1_555 1_555
N5 N6 1_555 1_555
N7 N8 1_555 1_555
N9 N10 1_555 1_555
C22A C23A 1_555 1_555
N9A N10A 1_555 1_555
C2A N1A 1_555 1_555
C7A C8A 1_555 1_555
C12A N5A 1_555 1_555
C17A C18A 1_555 1_555
C31A O1A 1_555 1_555
N1A N2A 1_555 1_555
N3A N4A 1_555 1_555
N5A N6A 1_555 1_555
N7A N8A 1_555 1_555

#END
