
#######################################################################
#
#                 Cambridge Crystallographic Data Centre
#                                CCDC 
#
#######################################################################
#
# If this CIF has been generated from an entry in the Cambridge 
# Structural Database, then it will include bibliographic, chemical, 
# crystal, experimental, refinement or atomic coordinate data resulting 
# from the CCDC's data processing and validation procedures.
#
#######################################################################

data_JORYIA
_symmetry_cell_setting           orthorhombic
_symmetry_space_group_name_H-M   'A b a 2'
_symmetry_Int_Tables_number      41
_space_group_name_Hall           'A 2 -2ab'
loop_
_symmetry_equiv_pos_site_id
_symmetry_equiv_pos_as_xyz
1 x,y,z
2 -x,-y,z
3 1/2+x,1/2-y,z
4 1/2-x,1/2+y,z
5 x,1/2+y,1/2+z
6 -x,1/2-y,1/2+z
7 1/2+x,-y,1/2+z
8 1/2-x,y,1/2+z
_cell_length_a                   23.3260(6)
_cell_length_b                   32.240(2)
_cell_length_c                   9.8621(14)
_cell_angle_alpha                90
_cell_angle_beta                 90
_cell_angle_gamma                90
_cell_volume                     7416.6
loop_
_atom_site_label
_atom_site_type_symbol
_atom_site_fract_x
_atom_site_fract_y
_atom_site_fract_z
Ag1 Ag 0.38776(3) 0.368955(17) 0.72226(7)
Ag2 Ag 0.36623(3) 0.14246(2) 1.39306(7)
C1 C 0.3843(5) 0.2639(3) 0.8143(10)
H1 H 0.3583 0.2419 0.7916
H2 H 0.4184 0.2524 0.8539
H3 H 0.3942 0.2790 0.7337
C2 C 0.3567(3) 0.2922(2) 0.9122(8)
C3 C 0.3349(3) 0.2823(2) 1.0389(7)
C4 C 0.3141(3) 0.3196(2) 1.0892(8)
C5 C 0.2842(5) 0.3299(3) 1.2194(12)
H4 H 0.2496 0.3139 1.2266
H5 H 0.2748 0.3589 1.2207
H6 H 0.3089 0.3236 1.2945
C6 C 0.4087(5) 0.2471(3) 1.2927(11)
H7 H 0.3913 0.2605 1.3694
H8 H 0.4276 0.2675 1.2375
H9 H 0.4362 0.2271 1.3236
C7 C 0.3638(3) 0.2260(2) 1.2116(8)
C8 C 0.3325(3) 0.24119(19) 1.1042(7)
C9 C 0.2969(4) 0.2090(2) 1.0634(9)
C10 C 0.2524(6) 0.2062(4) 0.9566(14)
H10 H 0.2581 0.1814 0.9046
H11 H 0.2551 0.2299 0.8980
H12 H 0.2151 0.2055 0.9979
C11 C 0.5179(4) 0.4277(3) 0.7191(13)
H13 H 0.5245 0.4001 0.7523
H14 H 0.5527 0.4435 0.7257
H15 H 0.5059 0.4265 0.6261
C12 C 0.4735(3) 0.4474(2) 0.7998(8)
C13 C 0.4758(3) 0.4852(2) 0.8698(7)
C14 C 0.4233(3) 0.49024(19) 0.9299(7)
C15 C 0.4007(3) 0.5240(2) 1.0178(9)
H16 H 0.3731 0.5400 0.9681
H17 H 0.4317 0.5416 1.0456
H18 H 0.3828 0.5121 1.0964
C16 C 0.5094(4) 0.3191(3) 0.5387(10)
H19 H 0.4892 0.3090 0.6166
H20 H 0.5451 0.3312 0.5670
H21 H 0.5168 0.2966 0.4774
C17 C 0.4744(3) 0.3510(2) 0.4696(7)
C18 C 0.4877(3) 0.3725(3) 0.3501(8)
C19 C 0.4409(3) 0.3982(3) 0.3276(9)
C20 C 0.4300(4) 0.4284(4) 0.2161(13)
H22 H 0.4016 0.4173 0.1557
H23 H 0.4649 0.4332 0.1670
H24 H 0.4165 0.4540 0.2536
C21 C 0.4991(4) 0.3440(4) 0.0409(10)
H25 H 0.4896 0.3650 -0.0242
H26 H 0.4656 0.3370 0.0927
H27 H 0.5128 0.3198 -0.0054
C22 C 0.5441(3) 0.3597(3) 0.1327(9)
C23 C 0.5404(3) 0.3714(2) 0.2693(8)
C24 C 0.5951(3) 0.3837(3) 0.3090(9)
C25 C 0.6176(4) 0.4004(4) 0.4339(10)
H28 H 0.6578 0.3943 0.4401
H29 H 0.5979 0.3880 0.5093
H30 H 0.6120 0.4299 0.4355
C26 C 0.2695(3) 0.0801(2) 1.2488(10)
C27 C 0.2396(4) 0.0379(3) 1.2450(14)
H31 H 0.1989 0.0425 1.2581
H32 H 0.2444 0.0265 1.1547
C28 C 0.2584(4) 0.0058(2) 1.3447(10)
H33 H 0.2585 0.0182 1.4343
H34 H 0.2976 -0.0020 1.3236
C29 C 0.2226(4) -0.0331(3) 1.3496(11)
H35 H 0.2248 -0.0463 1.2614
H36 H 0.1830 -0.0249 1.3634
C30 C 0.2376(3) -0.0656(2) 1.4570(10)
N1 N 0.3507(2) 0.33210(15) 0.8861(7)
N2 N 0.3242(3) 0.34805(17) 0.9953(6)
H37 H 0.3149 0.3737 1.0032
N3 N 0.3489(3) 0.18656(16) 1.2345(7)
N4 N 0.3081(3) 0.17740(18) 1.1453(7)
H38 H 0.2911 0.1538 1.1412
N5 N 0.4217(3) 0.4305(2) 0.8181(7)
N6 N 0.3924(2) 0.45649(16) 0.8963(7)
H39 H 0.3577 0.4523 0.9225
N7 N 0.4221(2) 0.36240(19) 0.5151(6)
N8 N 0.4032(3) 0.3906(2) 0.4255(7)
H40 H 0.3703 0.4024 0.4309
N9 N 0.6278(3) 0.3801(2) 0.1959(7)
H41 H 0.6633 0.3871 0.1919
N10 N 0.5983(3) 0.3643(2) 0.0908(7)
O1 O 0.3180(3) 0.0820(2) 1.3030(9)
O2 O 0.2451(2) 0.10880(15) 1.1923(7)
O3 O 0.2005(3) -0.0872(3) 1.5032(9)
O4 O 0.2901(2) -0.07012(17) 1.4861(7)
C11A C 0.4821(4) 0.5723(3) 0.7191(13)
H13A H 0.4755 0.5999 0.7523
H14A H 0.4473 0.5565 0.7257
H15A H 0.4941 0.5735 0.6261
C12A C 0.5265(3) 0.5526(2) 0.7998(8)
C13A C 0.5242(3) 0.5148(2) 0.8698(7)
C14A C 0.5767(3) 0.50976(19) 0.9299(7)
C15A C 0.5993(3) 0.4760(2) 1.0178(9)
H16A H 0.6269 0.4600 0.9681
H17A H 0.5683 0.4584 1.0456
H18A H 0.6172 0.4879 1.0964
N5A N 0.5783(3) 0.5695(2) 0.8181(7)
N6A N 0.6076(2) 0.54351(16) 0.8963(7)
H39A H 0.6423 0.5477 0.9225
Ag1A Ag 0.61224(3) 0.631045(17) 0.72226(7)
Ag2A Ag 0.63377(3) 0.85754(2) 1.39306(7)
C1A C 0.6157(5) 0.7361(3) 0.8143(10)
H1A H 0.6417 0.7581 0.7916
H2A H 0.5816 0.7476 0.8539
H3A H 0.6058 0.7210 0.7337
C2A C 0.6433(3) 0.7078(2) 0.9122(8)
C3A C 0.6651(3) 0.7177(2) 1.0389(7)
C4A C 0.6859(3) 0.6804(2) 1.0892(8)
C5A C 0.7158(5) 0.6701(3) 1.2194(12)
H4A H 0.7504 0.6861 1.2266
H5A H 0.7252 0.6411 1.2207
H6A H 0.6911 0.6764 1.2945
C6A C 0.5913(5) 0.7529(3) 1.2927(11)
H7A H 0.6087 0.7395 1.3694
H8A H 0.5724 0.7325 1.2375
H9A H 0.5638 0.7729 1.3236
C7A C 0.6362(3) 0.7740(2) 1.2116(8)
C8A C 0.6675(3) 0.75881(19) 1.1042(7)
C9A C 0.7031(4) 0.7910(2) 1.0634(9)
C10A C 0.7476(6) 0.7938(4) 0.9566(14)
H10A H 0.7419 0.8186 0.9046
H11A H 0.7449 0.7701 0.8980
H12A H 0.7849 0.7945 0.9979
C16A C 0.4906(4) 0.6809(3) 0.5387(10)
H19A H 0.5108 0.6910 0.6166
H20A H 0.4549 0.6688 0.5670
H21A H 0.4832 0.7034 0.4774
C17A C 0.5256(3) 0.6490(2) 0.4696(7)
C18A C 0.5123(3) 0.6275(3) 0.3501(8)
C19A C 0.5591(3) 0.6018(3) 0.3276(9)
C20A C 0.5700(4) 0.5716(4) 0.2161(13)
H22A H 0.5984 0.5827 0.1557
H23A H 0.5351 0.5668 0.1670
H24A H 0.5835 0.5460 0.2536
C21A C 0.5009(4) 0.6560(4) 0.0409(10)
H25A H 0.5104 0.6350 -0.0242
H26A H 0.5344 0.6630 0.0927
H27A H 0.4872 0.6802 -0.0054
C22A C 0.4559(3) 0.6403(3) 0.1327(9)
C23A C 0.4596(3) 0.6286(2) 0.2693(8)
C24A C 0.4049(3) 0.6163(3) 0.3090(9)
C25A C 0.3824(4) 0.5996(4) 0.4339(10)
H28A H 0.3422 0.6057 0.4401
H29A H 0.4021 0.6120 0.5093
H30A H 0.3880 0.5701 0.4355
C26A C 0.7305(3) 0.9199(2) 1.2488(10)
C27A C 0.7604(4) 0.9621(3) 1.2450(14)
H31A H 0.8011 0.9575 1.2581
H32A H 0.7556 0.9735 1.1547
C28A C 0.7416(4) 0.9942(2) 1.3447(10)
H33A H 0.7415 0.9818 1.4343
H34A H 0.7024 1.0020 1.3236
C29A C 0.7774(4) 1.0331(3) 1.3496(11)
H35A H 0.7752 1.0463 1.2614
H36A H 0.8170 1.0249 1.3634
C30A C 0.7624(3) 1.0656(2) 1.4570(10)
N1A N 0.6493(2) 0.66790(15) 0.8861(7)
N2A N 0.6758(3) 0.65195(17) 0.9953(6)
H37A H 0.6851 0.6263 1.0032
N3A N 0.6511(3) 0.81344(16) 1.2345(7)
N4A N 0.6919(3) 0.82260(18) 1.1453(7)
H38A H 0.7089 0.8462 1.1412
N7A N 0.5779(2) 0.63760(19) 0.5151(6)
N8A N 0.5968(3) 0.6094(2) 0.4255(7)
H40A H 0.6297 0.5976 0.4309
N9A N 0.3722(3) 0.6199(2) 0.1959(7)
H41A H 0.3367 0.6129 0.1919
N10A N 0.4017(3) 0.6357(2) 0.0908(7)
O1A O 0.6820(3) 0.9180(2) 1.3030(9)
O2A O 0.7549(2) 0.89120(15) 1.1923(7)
O3A O 0.7995(3) 1.0872(3) 1.5032(9)
O4A O 0.7099(2) 1.07012(17) 1.4861(7)
Ag2D Ag 0.36623(3) 0.64246(2) -0.10694(7)
Ag2E Ag 0.63377(3) 0.35754(2) -0.10694(7)
N10D N 0.5983(3) 0.8643(2) 1.5908(7)
N10E N 0.4017(3) 0.1357(2) 1.5908(7)
loop_
_geom_bond_atom_site_label_1
_geom_bond_atom_site_label_2
_geom_bond_site_symmetry_1
_geom_bond_site_symmetry_2
Ag1 N1 1_555 1_555
Ag2 N3 1_555 1_555
C1 H1 1_555 1_555
H2 C1 1_555 1_555
H3 C1 1_555 1_555
C2 C1 1_555 1_555
C3 C2 1_555 1_555
C4 C3 1_555 1_555
C5 C4 1_555 1_555
H4 C5 1_555 1_555
H5 C5 1_555 1_555
H6 C5 1_555 1_555
C6 H7 1_555 1_555
H8 C6 1_555 1_555
H9 C6 1_555 1_555
C7 C6 1_555 1_555
C8 C3 1_555 1_555
C9 C8 1_555 1_555
C10 C9 1_555 1_555
H10 C10 1_555 1_555
H11 C10 1_555 1_555
H12 C10 1_555 1_555
C11 H13 1_555 1_555
H14 C11 1_555 1_555
H15 C11 1_555 1_555
C12 C11 1_555 1_555
C13 C12 1_555 1_555
C14 C13 1_555 1_555
C15 C14 1_555 1_555
H16 C15 1_555 1_555
H17 C15 1_555 1_555
H18 C15 1_555 1_555
C16 H19 1_555 1_555
H20 C16 1_555 1_555
H21 C16 1_555 1_555
C17 C16 1_555 1_555
C18 C17 1_555 1_555
C19 C18 1_555 1_555
C20 C19 1_555 1_555
H22 C20 1_555 1_555
H23 C20 1_555 1_555
H24 C20 1_555 1_555
C21 H25 1_555 1_555
H26 C21 1_555 1_555
H27 C21 1_555 1_555
C22 C21 1_555 1_555
C23 C18 1_555 1_555
C24 C23 1_555 1_555
C25 C24 1_555 1_555
H28 C25 1_555 1_555
H29 C25 1_555 1_555
H30 C25 1_555 1_555
C26 C27 1_555 1_555
C27 H31 1_555 1_555
H32 C27 1_555 1_555
C28 C27 1_555 1_555
H33 C28 1_555 1_555
H34 C28 1_555 1_555
C29 C28 1_555 1_555
H35 C29 1_555 1_555
H36 C29 1_555 1_555
C30 C29 1_555 1_555
N1 C2 1_555 1_555
N2 C4 1_555 1_555
H37 N2 1_555 1_555
N3 C7 1_555 1_555
N4 C9 1_555 1_555
H38 N4 1_555 1_555
N5 Ag1 1_555 1_555
N6 C14 1_555 1_555
H39 N6 1_555 1_555
N7 Ag1 1_555 1_555
N8 C19 1_555 1_555
H40 N8 1_555 1_555
N9 C24 1_555 1_555
H41 N9 1_555 1_555
N10 C22 1_555 1_555
O1 Ag2 1_555 1_555
O2 C26 1_555 1_555
O3 C30 1_555 1_555
O4 C30 1_555 1_555
C11A H13A 1_555 1_555
H14A C11A 1_555 1_555
H15A C11A 1_555 1_555
C12A C11A 1_555 1_555
C13A C13 1_555 1_555
C14A C13A 1_555 1_555
C15A C14A 1_555 1_555
H16A C15A 1_555 1_555
H17A C15A 1_555 1_555
H18A C15A 1_555 1_555
N5A C12A 1_555 1_555
N6A C14A 1_555 1_555
H39A N6A 1_555 1_555
Ag1A N5A 1_555 1_555
Ag2A N3A 1_555 1_555
C1A H1A 1_555 1_555
H2A C1A 1_555 1_555
H3A C1A 1_555 1_555
C2A C1A 1_555 1_555
C3A C2A 1_555 1_555
C4A C3A 1_555 1_555
C5A C4A 1_555 1_555
H4A C5A 1_555 1_555
H5A C5A 1_555 1_555
H6A C5A 1_555 1_555
C6A H7A 1_555 1_555
H8A C6A 1_555 1_555
H9A C6A 1_555 1_555
C7A C6A 1_555 1_555
C8A C3A 1_555 1_555
C9A C8A 1_555 1_555
C10A C9A 1_555 1_555
H10A C10A 1_555 1_555
H11A C10A 1_555 1_555
H12A C10A 1_555 1_555
C16A H19A 1_555 1_555
H20A C16A 1_555 1_555
H21A C16A 1_555 1_555
C17A C16A 1_555 1_555
C18A C17A 1_555 1_555
C19A C18A 1_555 1_555
C20A C19A 1_555 1_555
H22A C20A 1_555 1_555
H23A C20A 1_555 1_555
H24A C20A 1_555 1_555
C21A H25A 1_555 1_555
H26A C21A 1_555 1_555
H27A C21A 1_555 1_555
C22A C21A 1_555 1_555
C23A C18A 1_555 1_555
C24A C23A 1_555 1_555
C25A C24A 1_555 1_555
H28A C25A 1_555 1_555
H29A C25A 1_555 1_555
H30A C25A 1_555 1_555
C26A C27A 1_555 1_555
C27A H31A 1_555 1_555
H32A C27A 1_555 1_555
C28A C27A 1_555 1_555
H33A C28A 1_555 1_555
H34A C28A 1_555 1_555
C29A C28A 1_555 1_555
H35A C29A 1_555 1_555
H36A C29A 1_555 1_555
C30A C29A 1_555 1_555
N1A Ag1A 1_555 1_555
N2A C4A 1_555 1_555
H37A N2A 1_555 1_555
N3A C7A 1_555 1_555
N4A C9A 1_555 1_555
H38A N4A 1_555 1_555
N7A Ag1A 1_555 1_555
N8A C19A 1_555 1_555
H40A N8A 1_555 1_555
N9A C24A 1_555 1_555
H41A N9A 1_555 1_555
N10A C22A 1_555 1_555
O1A Ag2A 1_555 1_555
O2A C26A 1_555 1_555
O3A C30A 1_555 1_555
O4A C30A 1_555 1_555
Ag2D N10A 1_555 1_555
Ag2E N10 1_555 1_555
N10D Ag2A 1_555 1_555
N10E Ag2 1_555 1_555
C7 C8 1_555 1_555
C12 N5 1_555 1_555
C17 N7 1_555 1_555
C22 C23 1_555 1_555
C26 O1 1_555 1_555
N1 N2 1_555 1_555
N3 N4 1_555 1_555
N5 N6 1_555 1_555
N7 N8 1_555 1_555
N9 N10 1_555 1_555
C12A C13A 1_555 1_555
N5A N6A 1_555 1_555
C2A N1A 1_555 1_555
C7A C8A 1_555 1_555
C17A N7A 1_555 1_555
C22A C23A 1_555 1_555
C26A O1A 1_555 1_555
N1A N2A 1_555 1_555
N3A N4A 1_555 1_555
N7A N8A 1_555 1_555
N9A N10A 1_555 1_555

#END
