
#######################################################################
#
#                 Cambridge Crystallographic Data Centre
#                                CCDC 
#
#######################################################################
#
# If this CIF has been generated from an entry in the Cambridge 
# Structural Database, then it will include bibliographic, chemical, 
# crystal, experimental, refinement or atomic coordinate data resulting 
# from the CCDC's data processing and validation procedures.
#
#######################################################################

data_JORZEX
_symmetry_cell_setting           monoclinic
_symmetry_space_group_name_H-M   'C 2/c'
_symmetry_Int_Tables_number      15
_space_group_name_Hall           '-C 2yn'
loop_
_symmetry_equiv_pos_site_id
_symmetry_equiv_pos_as_xyz
1 x,y,z
2 -x,y,1/2-z
3 1/2+x,1/2+y,z
4 1/2-x,1/2+y,1/2-z
5 -x,-y,-z
6 x,-y,1/2+z
7 1/2-x,1/2-y,-z
8 1/2+x,1/2-y,1/2+z
_cell_length_a                   35.034(14)
_cell_length_b                   10.387(4)
_cell_length_c                   30.465(13)
_cell_angle_alpha                90
_cell_angle_beta                 113.813(7)
_cell_angle_gamma                90
_cell_volume                     10142.4
loop_
_atom_site_label
_atom_site_type_symbol
_atom_site_fract_x
_atom_site_fract_y
_atom_site_fract_z
Ag1 Ag 0.392506(17) -0.07006(5) 0.31401(2)
Ag2 Ag 0.274985(17) 0.72023(5) 0.39775(2)
C1 C 0.3773(2) -0.1175(8) 0.4341(3)
H1 H 0.3848 -0.0351 0.4494
H2 H 0.3671 -0.1719 0.4526
H3 H 0.3559 -0.1067 0.4025
C2 C 0.4149(2) -0.1785(6) 0.4308(3)
C3 C 0.4486(2) -0.2398(6) 0.4680(2)
C4 C 0.4746(2) -0.2787(6) 0.4461(3)
C5 C 0.5153(2) -0.3479(8) 0.4667(3)
H4 H 0.5105 -0.4390 0.4627
H5 H 0.5292 -0.3283 0.5003
H6 H 0.5324 -0.3209 0.4506
C6 C 0.3977(2) -0.4320(7) 0.5085(3)
H7 H 0.3961 -0.4995 0.5292
H8 H 0.4023 -0.4687 0.4821
H9 H 0.3720 -0.3843 0.4965
C7 C 0.4330(2) -0.3437(6) 0.5361(3)
C8 C 0.4545(2) -0.2581(6) 0.5182(2)
C9 C 0.4836(2) -0.1966(6) 0.5589(2)
C10 C 0.5146(3) -0.0943(8) 0.5632(3)
H10 H 0.5191 -0.0424 0.5909
H11 H 0.5043 -0.0413 0.5350
H12 H 0.5405 -0.1333 0.5665
C11 C 0.4236(2) 0.4428(6) 0.3691(3)
H13 H 0.4522 0.4151 0.3814
H14 H 0.4183 0.4852 0.3941
H15 H 0.4184 0.5015 0.3430
C12 C 0.3951(2) 0.3268(6) 0.3515(2)
C13 C 0.3581(2) 0.2972(6) 0.3552(2)
C14 C 0.3467(2) 0.1735(6) 0.3333(2)
C15 C 0.3079(2) 0.0964(6) 0.3258(3)
H16 H 0.2861 0.1188 0.2954
H17 H 0.2989 0.1154 0.3510
H18 H 0.3139 0.0062 0.3261
C16 C 0.3173(3) 0.5824(7) 0.3238(3)
H19 H 0.2900 0.6189 0.3076
H20 H 0.3242 0.5322 0.3016
H21 H 0.3373 0.6503 0.3366
C17 C 0.3178(2) 0.4986(6) 0.3636(2)
C18 C 0.33498(19) 0.3751(6) 0.3771(2)
C19 C 0.3275(2) 0.3426(6) 0.4166(3)
C20 C 0.3396(3) 0.2276(7) 0.4496(3)
H22 H 0.3410 0.2521 0.4805
H23 H 0.3664 0.1966 0.4526
H24 H 0.3192 0.1608 0.4365
C21 C 0.2121(2) 1.2025(7) 0.4069(3)
H25 H 0.1858 1.1979 0.4096
H26 H 0.2131 1.2790 0.3897
H27 H 0.2343 1.2047 0.4384
C22 C 0.2172(2) 1.0866(6) 0.3805(2)
C23 C 0.1972(2) 1.0504(6) 0.3326(2)
C24 C 0.2143(2) 0.9314(6) 0.3286(2)
C25 C 0.2048(2) 0.8454(7) 0.2861(2)
H28 H 0.2228 0.8667 0.2704
H29 H 0.1762 0.8571 0.2641
H30 H 0.2092 0.7573 0.2964
C26 C 0.2049(2) 1.3264(7) 0.2856(3)
H31 H 0.2236 1.2872 0.2735
H32 H 0.2189 1.3365 0.3197
H33 H 0.1964 1.4093 0.2709
C27 C 0.1673(2) 1.2425(6) 0.2740(2)
C28 C 0.16368(19) 1.1207(6) 0.2939(2)
C29 C 0.1231(2) 1.0849(6) 0.2701(2)
C30 C 0.0993(2) 0.9688(7) 0.2756(3)
H34 H 0.1014 0.9648 0.3080
H35 H 0.1110 0.8920 0.2685
H36 H 0.0705 0.9759 0.2539
C31 C 0.3039(2) 0.8413(9) 0.5109(3)
C32 C 0.3268(4) 0.8116(10) 0.5644(3)
H37 H 0.3172 0.7289 0.5708
H38 H 0.3564 0.8036 0.5719
C33 C 0.3216(4) 0.9026(12) 0.5951(4)
H39 H 0.2919 0.9123 0.5866
H40 H 0.3318 0.9845 0.5890
C34 C 0.3433(3) 0.8760(13) 0.6505(4)
H41 H 0.3300 0.9285 0.6667
H42 H 0.3390 0.7865 0.6564
C35 C 0.3865(3) 0.9024(12) 0.6704(4)
H43 H 0.3992 0.8515 0.6531
H44 H 0.3981 0.8724 0.7034
C36 C 0.4000(3) 1.0424(11) 0.6703(4)
H45 H 0.3843 1.0817 0.6393
H46 H 0.3952 1.0913 0.6947
C37 C 0.4465(3) 1.0413(11) 0.6807(4)
H47 H 0.4615 1.0022 0.7119
H48 H 0.4507 0.9876 0.6570
C38 C 0.4641(2) 1.1675(8) 0.6803(3)
H49 H 0.4636 1.2148 0.7076
H50 H 0.4452 1.2116 0.6517
C39 C 0.5081(2) 1.1798(8) 0.6818(2)
N1 N 0.41958(18) -0.1802(5) 0.38968(19)
N2 N 0.45658(19) -0.2423(5) 0.4007(2)
H51 H 0.4672 -0.2564 0.3801
N3 N 0.4787(2) -0.2451(5) 0.5973(2)
H52 H 0.4932 -0.2221 0.6264
N4 N 0.44767(18) -0.3353(6) 0.5840(2)
N5 N 0.37502(17) 0.1327(5) 0.31848(19)
N6 N 0.40399(17) 0.2277(5) 0.3292(2)
H53 H 0.4256 0.2246 0.3225
N7 N 0.30004(17) 0.5366(5) 0.3929(2)
N8 N 0.30590(16) 0.4402(5) 0.4247(2)
H54 H 0.2970 0.4410 0.4472
N9 N 0.24352(16) 0.8967(5) 0.37256(18)
N10 N 0.24406(16) 0.9920(5) 0.40315(18)
H55 H 0.2597 0.9920 0.4334
N11 N 0.10386(16) 1.1776(5) 0.23803(18)
H56 H 0.0779 1.1754 0.2188
N12 N 0.12995(16) 1.2746(5) 0.23959(18)
O1 O 0.29912(18) 0.7466(6) 0.48391(19)
O2 O 0.29283(16) 0.9531(5) 0.49671(18)
O3 O 0.51917(13) 1.2936(4) 0.67619(16)
O4 O 0.53116(15) 1.0840(5) 0.68882(18)
Ag1C Ag 0.107494(17) 1.42994(5) 0.18599(2)
Ag1D Ag 0.607494(17) 1.07006(5) 0.68599(2)
N12C N 0.37005(16) -0.2254(5) 0.26041(18)
O4D O 0.46884(15) -0.0840(5) 0.31118(18)
O5 O 0.28436(17) 0.4970(5) 0.49863(19)
H57 H 0.2609 0.5027 0.5006
H58 H 0.2916 0.5720 0.4939
O6 O 0.5000 0.6786(6) 0.7500
H59 H 0.4890 0.6202 0.7292
H59A H 0.5110 0.6202 0.7708
O7 O 0.52913(13) 0.8261(4) 0.69398(15)
H60 H 0.5192 0.7923 0.7125
H61 H 0.5277 0.9075 0.6957
O8 O 0.46994(18) 0.5146(5) 0.67052(18)
H62 H 0.4689 0.5587 0.6466
H63 H 0.4856 0.4496 0.6740
loop_
_geom_bond_atom_site_label_1
_geom_bond_atom_site_label_2
_geom_bond_site_symmetry_1
_geom_bond_site_symmetry_2
Ag1 N1 1_555 1_555
Ag2 N7 1_555 1_555
C1 H1 1_555 1_555
H2 C1 1_555 1_555
H3 C1 1_555 1_555
C2 C1 1_555 1_555
C3 C2 1_555 1_555
C4 C3 1_555 1_555
C5 C4 1_555 1_555
H4 C5 1_555 1_555
H5 C5 1_555 1_555
H6 C5 1_555 1_555
C6 H7 1_555 1_555
H8 C6 1_555 1_555
H9 C6 1_555 1_555
C7 C6 1_555 1_555
C8 C3 1_555 1_555
C9 C8 1_555 1_555
C10 C9 1_555 1_555
H10 C10 1_555 1_555
H11 C10 1_555 1_555
H12 C10 1_555 1_555
C11 H13 1_555 1_555
H14 C11 1_555 1_555
H15 C11 1_555 1_555
C12 C11 1_555 1_555
C13 C12 1_555 1_555
C14 C13 1_555 1_555
C15 C14 1_555 1_555
H16 C15 1_555 1_555
H17 C15 1_555 1_555
H18 C15 1_555 1_555
C16 H19 1_555 1_555
H20 C16 1_555 1_555
H21 C16 1_555 1_555
C17 C16 1_555 1_555
C18 C13 1_555 1_555
C19 C18 1_555 1_555
C20 C19 1_555 1_555
H22 C20 1_555 1_555
H23 C20 1_555 1_555
H24 C20 1_555 1_555
C21 H25 1_555 1_555
H26 C21 1_555 1_555
H27 C21 1_555 1_555
C22 C21 1_555 1_555
C23 C22 1_555 1_555
C24 C23 1_555 1_555
C25 C24 1_555 1_555
H28 C25 1_555 1_555
H29 C25 1_555 1_555
H30 C25 1_555 1_555
C26 H31 1_555 1_555
H32 C26 1_555 1_555
H33 C26 1_555 1_555
C27 C26 1_555 1_555
C28 C23 1_555 1_555
C29 C28 1_555 1_555
C30 C29 1_555 1_555
H34 C30 1_555 1_555
H35 C30 1_555 1_555
H36 C30 1_555 1_555
C31 C32 1_555 1_555
C32 H37 1_555 1_555
H38 C32 1_555 1_555
C33 C32 1_555 1_555
H39 C33 1_555 1_555
H40 C33 1_555 1_555
C34 C33 1_555 1_555
H41 C34 1_555 1_555
H42 C34 1_555 1_555
C35 C34 1_555 1_555
H43 C35 1_555 1_555
H44 C35 1_555 1_555
C36 C35 1_555 1_555
H45 C36 1_555 1_555
H46 C36 1_555 1_555
C37 C36 1_555 1_555
H47 C37 1_555 1_555
H48 C37 1_555 1_555
C38 C37 1_555 1_555
H49 C38 1_555 1_555
H50 C38 1_555 1_555
C39 C38 1_555 1_555
N1 C2 1_555 1_555
N2 C4 1_555 1_555
H51 N2 1_555 1_555
N3 C9 1_555 1_555
H52 N3 1_555 1_555
N4 C7 1_555 1_555
N5 Ag1 1_555 1_555
N6 C12 1_555 1_555
H53 N6 1_555 1_555
N7 C17 1_555 1_555
N8 C19 1_555 1_555
H54 N8 1_555 1_555
N9 Ag2 1_555 1_555
N10 C22 1_555 1_555
H55 N10 1_555 1_555
N11 C29 1_555 1_555
H56 N11 1_555 1_555
N12 C27 1_555 1_555
O1 Ag2 1_555 1_555
O2 C31 1_555 1_555
O3 C39 1_555 1_555
O4 C39 1_555 1_555
O5 H57 1_555 1_555
H58 O5 1_555 1_555
O6 H59 1_555 1_555
O7 H60 1_555 1_555
H61 O7 1_555 1_555
O8 H62 1_555 1_555
H63 O8 1_555 1_555
Ag1C N12 1_555 1_555
Ag1D O4 1_555 1_555
N12C Ag1 1_555 1_555
O4D Ag1 1_555 1_555
H59A O6 1_555 1_555
C7 C8 1_555 1_555
C14 N5 1_555 1_555
C17 C18 1_555 1_555
C24 N9 1_555 1_555
C27 C28 1_555 1_555
C31 O1 1_555 1_555
N1 N2 1_555 1_555
N3 N4 1_555 1_555
N5 N6 1_555 1_555
N7 N8 1_555 1_555
N9 N10 1_555 1_555
N11 N12 1_555 1_555

#END
