
#######################################################################
#
#                 Cambridge Crystallographic Data Centre
#                                CCDC 
#
#######################################################################
#
# If this CIF has been generated from an entry in the Cambridge 
# Structural Database, then it will include bibliographic, chemical, 
# crystal, experimental, refinement or atomic coordinate data resulting 
# from the CCDC's data processing and validation procedures.
#
#######################################################################

data_JOSJOS
_symmetry_cell_setting           monoclinic
_symmetry_space_group_name_H-M   'P 21/c'
_symmetry_Int_Tables_number      14
_space_group_name_Hall           '-P 2ybc'
loop_
_symmetry_equiv_pos_site_id
_symmetry_equiv_pos_as_xyz
1 x,y,z
2 -x,1/2+y,1/2-z
3 -x,-y,-z
4 x,1/2-y,1/2+z
_cell_length_a                   14.580(3)
_cell_length_b                   7.1880(14)
_cell_length_c                   20.756(7)
_cell_angle_alpha                90
_cell_angle_beta                 126.16(2)
_cell_angle_gamma                90
_cell_volume                     1756.24
loop_
_atom_site_label
_atom_site_type_symbol
_atom_site_fract_x
_atom_site_fract_y
_atom_site_fract_z
O1 O 0.1739(4) 1.2887(6) 0.4951(3)
Er1 Er -0.00687(2) 0.71001(3) 0.628057(13)
C1 C 0.2997(5) 1.0885(9) 0.8237(3)
H1 H 0.3214 1.1368 0.8725
C2 C 0.5740(5) 1.0672(9) 0.7014(3)
H2 H 0.6505 1.0346 0.7315
C3 C 0.3672(5) 1.1158(9) 0.7960(3)
H3 H 0.4354 1.1805 0.8273
C4 C 0.2322(5) 0.9345(8) 0.6798(3)
C5 C 0.5885(6) 1.1673(10) 0.5921(4)
O2 O 0.6869(4) 1.1138(9) 0.6258(3)
C6 C 0.1819(6) 0.8327(9) 0.6006(4)
C7 C 0.3471(5) 1.1834(9) 0.6145(3)
C8 C 0.1133(5) 0.9602(8) 0.7941(3)
C9 C 0.5225(5) 1.1432(9) 0.6262(3)
C10 C 0.3312(5) 1.0452(8) 0.7209(3)
O3 O -0.0709(5) 1.0252(7) 0.5945(3)
H4 H -0.0233 1.1140 0.6155
H5 H -0.1415 1.0482 0.5617
C11 C 0.3970(5) 1.0925(9) 0.6887(3)
O4 O 0.0303(4) 0.8531(6) 0.7479(2)
O5 O 0.1281(4) 1.0517(6) 0.8512(2)
C12 C 0.1992(5) 0.9863(8) 0.7752(3)
O6 O 0.1942(5) 1.3164(9) 0.6102(3)
O7 O 0.5319(4) 1.2530(9) 0.5216(3)
H6 H 0.5765 1.2848 0.5118
O8 O 0.2305(4) 0.8430(8) 0.5671(3)
C13 C 0.5122(5) 1.0389(9) 0.7325(3)
H7 H 0.5473 0.9844 0.7825
O9 O 0.0902(4) 0.7448(7) 0.5727(3)
O10 O -0.0081(4) 0.4069(6) 0.5774(2)
H8 H 0.0526 0.3640 0.5860
O11 O 0.1265(4) 0.5072(6) 0.7322(2)
H9 H 0.1939 0.5441 0.7673
H10 H 0.1068 0.3975 0.7344
N1 N 0.1688(4) 0.9064(7) 0.7069(3)
C14 C 0.2288(5) 1.2697(9) 0.5700(4)
C15 C 0.4088(6) 1.2045(8) 0.5830(4)
H11 H 0.3747 1.2592 0.5331
H12 H -0.0596(18) 0.386(12) 0.5283(15)
O1B O -0.1739(4) 0.7113(6) 0.5049(3)
Er1A Er 0.00687(2) 1.21001(3) 0.871943(13)
Er1B Er 0.00687(2) 1.28999(3) 0.371943(13)
O5A O -0.1281(4) 0.5517(6) 0.6488(2)
O12 O 0.6670(5) 0.3639(9) 0.4842(4)
H13 H 0.7293 0.4233 0.5080
H14 H 0.6520 0.2802 0.4504
loop_
_geom_bond_atom_site_label_1
_geom_bond_atom_site_label_2
_geom_bond_site_symmetry_1
_geom_bond_site_symmetry_2
O1 C14 1_555 1_555
Er1 O3 1_555 1_555
C1 H1 1_555 1_555
C2 H2 1_555 1_555
C3 C1 1_555 1_555
H3 C3 1_555 1_555
C4 C6 1_555 1_555
C5 O2 1_555 1_555
C6 O8 1_555 1_555
C7 C11 1_555 1_555
C8 O4 1_555 1_555
C9 C2 1_555 1_555
C10 C3 1_555 1_555
O3 H4 1_555 1_555
H5 O3 1_555 1_555
C11 C10 1_555 1_555
O4 Er1 1_555 1_555
O5 C8 1_555 1_555
C12 C1 1_555 1_555
O6 C14 1_555 1_555
O7 C5 1_555 1_555
H6 O7 1_555 1_555
C13 C2 1_555 1_555
H7 C13 1_555 1_555
O9 Er1 1_555 1_555
O10 Er1 1_555 1_555
H8 O10 1_555 1_555
O11 Er1 1_555 1_555
H9 O11 1_555 1_555
H10 O11 1_555 1_555
N1 Er1 1_555 1_555
C14 C7 1_555 1_555
C15 C7 1_555 1_555
H11 C15 1_555 1_555
H12 O10 1_555 1_555
O12 H13 1_555 1_555
H14 O12 1_555 1_555
O1B Er1 1_555 1_555
Er1A O5 1_555 1_555
Er1B O1 1_555 1_555
O5A Er1 1_555 1_555
C4 C10 1_555 1_555
C4 N1 1_555 1_555
C5 C9 1_555 1_555
C6 O9 1_555 1_555
C8 C12 1_555 1_555
C9 C15 1_555 1_555
C11 C13 1_555 1_555
C12 N1 1_555 1_555

#END
