
#######################################################################
#
#                 Cambridge Crystallographic Data Centre
#                                CCDC 
#
#######################################################################
#
# If this CIF has been generated from an entry in the Cambridge 
# Structural Database, then it will include bibliographic, chemical, 
# crystal, experimental, refinement or atomic coordinate data resulting 
# from the CCDC's data processing and validation procedures.
#
#######################################################################

data_JOSJIM
_symmetry_cell_setting           monoclinic
_symmetry_space_group_name_H-M   'P 21/c'
_symmetry_Int_Tables_number      14
_space_group_name_Hall           '-P 2ybc'
loop_
_symmetry_equiv_pos_site_id
_symmetry_equiv_pos_as_xyz
1 x,y,z
2 -x,1/2+y,1/2-z
3 -x,-y,-z
4 x,1/2-y,1/2+z
_cell_length_a                   14.496(3)
_cell_length_b                   7.1990(14)
_cell_length_c                   20.714(7)
_cell_angle_alpha                90
_cell_angle_beta                 126.33(2)
_cell_angle_gamma                90
_cell_volume                     1741.46
loop_
_atom_site_label
_atom_site_type_symbol
_atom_site_fract_x
_atom_site_fract_y
_atom_site_fract_z
H1 H 0.233(9) 0.887(15) 1.019(6)
O1 O 0.1666(3) 0.8680(5) 0.9843(3)
H2 H 0.190(6) 0.799(8) 0.969(4)
Dy1 Dy 0.492890(11) 0.291264(19) 0.627825(7)
O2 O 0.6752(2) -0.2897(3) 0.49620(14)
C1 C 0.9102(3) -0.2046(4) 0.58339(19)
O3 O 0.6278(2) 0.4975(4) 0.73293(15)
O4 O 0.4928(2) 0.5947(4) 0.57719(15)
N1 N 0.6711(2) 0.0955(4) 0.70746(14)
C2 C 0.7304(3) -0.2683(5) 0.57147(19)
O5 O 0.5929(2) 0.2566(4) 0.57318(14)
O6 O 1.0326(2) -0.2526(5) 0.52151(17)
O7 O 0.6968(2) -0.3157(4) 0.61178(17)
O8 O 0.7332(2) 0.1566(4) 0.56799(17)
C3 C 0.8992(2) -0.0907(4) 0.68878(17)
C4 C 1.0142(3) -0.0377(5) 0.73221(19)
O9 O 0.53231(19) 0.1486(3) 0.74863(13)
C5 C 0.7018(3) 0.0144(4) 0.77611(17)
O10 O 1.1872(2) -0.1131(5) 0.62405(15)
O11 O 0.4268(3) -0.0249(5) 0.5935(2)
C6 C 1.0237(3) -0.1426(5) 0.62544(18)
C7 C 0.7339(3) 0.0675(4) 0.67998(17)
C8 C 0.6855(3) 0.1669(5) 0.60140(19)
C9 C 0.8690(3) -0.1117(5) 0.79628(19)
C10 C 0.8332(2) -0.0444(4) 0.72140(17)
C11 C 1.0763(3) -0.0654(5) 0.70134(19)
C12 C 0.6153(3) 0.0406(4) 0.79421(17)
O12 O 0.63017(19) -0.0511(3) 0.85154(13)
C13 C 0.8489(3) -0.1839(4) 0.61498(18)
C14 C 1.0890(3) -0.1666(5) 0.5910(2)
C15 C 0.8023(3) -0.0872(5) 0.82356(19)
H3 H 1.149(3) -0.031(6) 0.729(2)
H4 H 0.928(4) -0.180(6) 0.825(3)
H5 H 0.826(3) -0.134(5) 0.873(2)
H6 H 0.868(3) -0.258(5) 0.529(2)
H7 H 1.052(3) 0.012(5) 0.785(2)
H8 H 0.592(3) 0.551(6) 0.744(2)
H9 H 0.682(4) 0.456(7) 0.776(3)
H10 H 0.548(4) 0.621(7) 0.587(3)
H11 H 0.447(4) 0.623(7) 0.531(3)
H12 H 0.374(7) -0.058(11) 0.553(5)
H13 H 0.456(5) -0.104(9) 0.611(3)
H14 H 1.073(4) -0.285(6) 0.509(3)
Dy1A Dy 0.507110(11) -0.208736(19) 0.872175(7)
Dy1B Dy 0.507110(11) -0.291264(19) 0.372175(7)
O2B O 0.3248(2) 0.2897(3) 0.50380(14)
O12A O 0.36983(19) 0.4489(3) 0.64846(13)
loop_
_geom_bond_atom_site_label_1
_geom_bond_atom_site_label_2
_geom_bond_site_symmetry_1
_geom_bond_site_symmetry_2
H1 O1 1_555 1_555
O1 H2 1_555 1_555
Dy1 O3 1_555 1_555
O2 C2 1_555 1_555
C1 C6 1_555 1_555
O3 H8 1_555 1_555
O4 Dy1 1_555 1_555
N1 Dy1 1_555 1_555
C2 O7 1_555 1_555
O5 Dy1 1_555 1_555
O6 C14 1_555 1_555
O8 C8 1_555 1_555
C3 C4 1_555 1_555
C4 C11 1_555 1_555
O9 Dy1 1_555 1_555
C5 N1 1_555 1_555
O10 C14 1_555 1_555
O11 Dy1 1_555 1_555
C6 C11 1_555 1_555
C7 N1 1_555 1_555
C8 O5 1_555 1_555
C9 C10 1_555 1_555
C10 C3 1_555 1_555
C11 H3 1_555 1_555
C12 O9 1_555 1_555
O12 C12 1_555 1_555
C13 C1 1_555 1_555
C14 C6 1_555 1_555
C15 C5 1_555 1_555
H4 C9 1_555 1_555
H5 C15 1_555 1_555
H6 C1 1_555 1_555
H7 C4 1_555 1_555
H9 O3 1_555 1_555
H10 O4 1_555 1_555
H11 O4 1_555 1_555
H12 O11 1_555 1_555
H13 O11 1_555 1_555
H14 O6 1_555 1_555
Dy1A O12 1_555 1_555
Dy1B O2 1_555 1_555
O2B Dy1 1_555 1_555
O12A Dy1 1_555 1_555
C2 C13 1_555 1_555
C3 C13 1_555 1_555
C5 C12 1_555 1_555
C7 C8 1_555 1_555
C7 C10 1_555 1_555
C9 C15 1_555 1_555

#END
