
#######################################################################
#
#                 Cambridge Crystallographic Data Centre
#                                CCDC 
#
#######################################################################
#
# If this CIF has been generated from an entry in the Cambridge 
# Structural Database, then it will include bibliographic, chemical, 
# crystal, experimental, refinement or atomic coordinate data resulting 
# from the CCDC's data processing and validation procedures.
#
#######################################################################

data_JOSKEJ
_symmetry_cell_setting           monoclinic
_symmetry_space_group_name_H-M   'P 21/c'
_symmetry_Int_Tables_number      14
_space_group_name_Hall           '-P 2ybc'
loop_
_symmetry_equiv_pos_site_id
_symmetry_equiv_pos_as_xyz
1 x,y,z
2 -x,1/2+y,1/2-z
3 -x,-y,-z
4 x,1/2-y,1/2+z
_cell_length_a                   14.448(3)
_cell_length_b                   7.1938(14)
_cell_length_c                   20.630(7)
_cell_angle_alpha                90
_cell_angle_beta                 126.15(2)
_cell_angle_gamma                90
_cell_volume                     1731.39
loop_
_atom_site_label
_atom_site_type_symbol
_atom_site_fract_x
_atom_site_fract_y
_atom_site_fract_z
Tb1 Tb 0.50733(2) 0.70782(5) 0.872325(17)
O1 O 0.3238(4) 1.2916(7) 1.0026(3)
C1 C 0.0894(6) 1.2052(10) 0.9166(4)
N1 N 0.3280(4) 0.9040(8) 0.7921(3)
O2 O 0.5080(4) 0.4032(7) 0.9232(3)
H1 H 0.4467 0.3601 0.9143
O3 O 0.2659(5) 0.8441(9) 0.9316(3)
C2 C 0.2696(6) 1.2687(10) 0.9281(4)
O4 O 0.4054(4) 0.7445(8) 0.9260(3)
C3 C 0.1001(5) 1.0900(10) 0.8117(4)
O5 O -0.0325(5) 1.2544(10) 0.9789(4)
O6 O 0.3019(5) 1.3150(9) 0.8871(4)
O7 O -0.1871(4) 1.1133(10) 0.8758(3)
H2 H -0.2131 1.1558 0.8988
C4 C 0.1660(5) 1.0433(10) 0.7786(4)
O8 O 0.4663(4) 0.8511(8) 0.7509(3)
C5 C -0.0161(6) 1.0363(11) 0.7673(4)
C6 C 0.2973(5) 0.9858(10) 0.7241(4)
C7 C 0.3122(6) 0.8328(11) 0.8980(4)
C8 C -0.0242(5) 1.1430(10) 0.8747(4)
C9 C 0.3840(6) 0.9584(11) 0.7057(4)
C10 C 0.1506(6) 1.1852(9) 0.8850(4)
O9 O 0.5737(6) 1.0233(9) 0.9065(4)
H3 H 0.5259 1.1124 0.8855
H4 H 0.6449 1.0457 0.9395
C11 C 0.1295(6) 1.1103(11) 0.7037(4)
C12 C -0.0764(6) 1.0647(11) 0.7989(4)
C13 C 0.2653(6) 0.9320(10) 0.8199(4)
C14 C 0.1970(6) 1.0862(11) 0.6766(4)
C15 C -0.0899(6) 1.1684(12) 0.9084(5)
O10 O 0.3736(4) 0.5033(7) 0.7665(3)
H5 H 0.3054 0.5392 0.7309
H6 H 0.3943 0.3942 0.7644
O11 O 0.3681(4) 1.0500(8) 0.6482(3)
H7 H -0.155(8) 1.029(15) 0.774(5)
H8 H 0.076(9) 1.213(14) 0.681(6)
H9 H 0.137(9) 1.267(13) 0.973(6)
H10 H 0.176(8) 1.114(15) 0.620(5)
H11 H -0.062(8) 1.002(14) 0.710(6)
H12 H 0.5620(11) 0.342(10) 0.963(4)
Tb1A Tb 0.49267(2) 1.20782(5) 0.627675(17)
Tb1B Tb 0.49267(2) 1.29218(5) 1.127675(17)
O1B O 0.6762(4) 0.7084(7) 0.9974(3)
O11A O 0.6319(4) 0.5500(8) 0.8518(3)
O12 O 0.1680(5) 0.6340(10) 0.9835(4)
H13 H 0.1059 0.6957 0.9594
H14 H 0.1860 0.5625 1.0222
loop_
_geom_bond_atom_site_label_1
_geom_bond_atom_site_label_2
_geom_bond_site_symmetry_1
_geom_bond_site_symmetry_2
Tb1 N1 1_555 1_555
O1 C2 1_555 1_555
C1 C8 1_555 1_555
N1 C6 1_555 1_555
O2 Tb1 1_555 1_555
H1 O2 1_555 1_555
O3 C7 1_555 1_555
C2 O6 1_555 1_555
O4 Tb1 1_555 1_555
C3 C4 1_555 1_555
O5 C15 1_555 1_555
O7 H2 1_555 1_555
C4 C11 1_555 1_555
O8 Tb1 1_555 1_555
C5 C3 1_555 1_555
C6 C9 1_555 1_555
C7 O4 1_555 1_555
C8 C12 1_555 1_555
C9 O8 1_555 1_555
C10 C1 1_555 1_555
O9 Tb1 1_555 1_555
H3 O9 1_555 1_555
H4 O9 1_555 1_555
C11 C14 1_555 1_555
C12 C5 1_555 1_555
C13 N1 1_555 1_555
C14 C6 1_555 1_555
C15 O7 1_555 1_555
O10 Tb1 1_555 1_555
H5 O10 1_555 1_555
H6 O10 1_555 1_555
O11 C9 1_555 1_555
H7 C12 1_555 1_555
H8 C11 1_555 1_555
H9 C1 1_555 1_555
H10 C14 1_555 1_555
H11 C5 1_555 1_555
H12 O2 1_555 1_555
O12 H13 1_555 1_555
H14 O12 1_555 1_555
Tb1A O11 1_555 1_555
Tb1B O1 1_555 1_555
O1B Tb1 1_555 1_555
O11A Tb1 1_555 1_555
C2 C10 1_555 1_555
C3 C10 1_555 1_555
C4 C13 1_555 1_555
C7 C13 1_555 1_555
C8 C15 1_555 1_555

#END
