
#######################################################################
#
#                 Cambridge Crystallographic Data Centre
#                                CCDC 
#
#######################################################################
#
# If this CIF has been generated from an entry in the Cambridge 
# Structural Database, then it will include bibliographic, chemical, 
# crystal, experimental, refinement or atomic coordinate data resulting 
# from the CCDC's data processing and validation procedures.
#
#######################################################################

data_JOSMIP
_symmetry_cell_setting           triclinic
_symmetry_space_group_name_H-M   'P -1'
_symmetry_Int_Tables_number      2
_space_group_name_Hall           '-P 1'
loop_
_symmetry_equiv_pos_site_id
_symmetry_equiv_pos_as_xyz
1 x,y,z
2 -x,-y,-z
_cell_length_a                   6.9200(14)
_cell_length_b                   10.760(2)
_cell_length_c                   12.246(2)
_cell_angle_alpha                69.62(3)
_cell_angle_beta                 87.57(3)
_cell_angle_gamma                79.86(3)
_cell_volume                     841.223
loop_
_atom_site_label
_atom_site_type_symbol
_atom_site_fract_x
_atom_site_fract_y
_atom_site_fract_z
Eu1 Eu 0.67708(6) -0.34819(4) 0.93076(4)
O1 O 0.3456(8) -0.4064(6) 1.0093(5)
O2 O 0.0205(9) -0.3522(6) 0.9809(6)
O3 O 0.7324(9) -0.1435(6) 0.7907(6)
O4 O 0.6682(12) 0.0782(7) 0.7032(8)
O5 O 0.2199(11) 0.6000(7) 0.3090(6)
O6 O 0.2667(11) 0.6891(6) 0.4432(6)
H1 H 0.2549 0.7589 0.3865
O7 O 0.2821(9) 0.4446(6) 0.8541(5)
O8 O 0.3440(11) 0.2237(6) 0.9241(5)
O9 O 0.4942(10) -0.3549(7) 0.7667(6)
H2 H 0.4527 -0.4238 0.7657
H3 H 0.4840 -0.2930 0.6996
O10 O 0.8957(10) -0.4240(7) 0.7950(6)
H4 H 0.8636 -0.4789 0.7661
H5 H 1.0035 -0.3951 0.7767
N1 N 0.3882(11) -0.1560(7) 0.8781(6)
C1 C 0.2089(13) -0.1754(8) 0.9194(7)
C2 C 0.0533(13) -0.0704(8) 0.9020(8)
H6 H -0.0682 -0.0863 0.9339
C3 C 0.0805(13) 0.0595(9) 0.8361(8)
H7 H -0.0203 0.1324 0.8262
C4 C 0.2625(12) 0.0782(8) 0.7852(7)
C5 C 0.4130(13) -0.0327(8) 0.8116(7)
C6 C 0.6182(14) -0.0280(9) 0.7644(8)
C7 C 0.1879(13) -0.3210(8) 0.9759(7)
C8 C 0.2730(12) 0.2132(9) 0.6954(7)
C9 C 0.2839(13) 0.3299(8) 0.7189(7)
C10 C 0.3043(13) 0.3303(8) 0.8391(7)
C11 C 0.2738(13) 0.4514(8) 0.6231(8)
H8 H 0.2828 0.5298 0.6371
C12 C 0.2511(12) 0.4585(8) 0.5105(8)
C13 C 0.2439(13) 0.5887(9) 0.4097(8)
C14 C 0.2437(16) 0.3410(10) 0.4883(8)
H9 H 0.2335 0.3437 0.4121
C15 C 0.2515(15) 0.2204(9) 0.5800(8)
H10 H 0.2423 0.1428 0.5647
Eu1_2 Eu -0.32292(6) -0.34819(4) 0.93076(4)
Eu1A Eu 0.32292(6) -0.65181(4) 1.06924(4)
Eu1A_2 Eu 0.32292(6) 0.34819(4) 1.06924(4)
O1A O 0.6544(8) -0.5936(6) 0.9907(5)
O2_2 O 1.0205(9) -0.3522(6) 0.9809(6)
O7A O 0.7179(9) -0.4446(6) 1.1459(5)
O8A O 0.6560(11) -0.2237(6) 1.0759(5)
O11 O 0.969(4) 0.932(3) 0.585(2)
H11 H 0.9947 0.8644 0.6477
H12 H 0.8781 0.9897 0.5977
O13 O 0.372(3) 0.8743(17) 0.5822(14)
H15 H 0.3195 0.8476 0.5179
H16 H 0.2668 0.9185 0.6068
O12? O 1.106(4) 0.830(3) 0.655(2)
H13? H 1.1759 0.8269 0.5973
H14? H 0.9855 0.8409 0.6373
loop_
_geom_bond_atom_site_label_1
_geom_bond_atom_site_label_2
_geom_bond_site_symmetry_1
_geom_bond_site_symmetry_2
Eu1 O1 1_555 1_555
O1 C7 1_555 1_555
O2 C7 1_555 1_555
O3 Eu1 1_555 1_555
O4 C6 1_555 1_555
O5 C13 1_555 1_555
O6 H1 1_555 1_555
O7 C10 1_555 1_555
O8 C10 1_555 1_555
O9 Eu1 1_555 1_555
H2 O9 1_555 1_555
H3 O9 1_555 1_555
O10 Eu1 1_555 1_555
H4 O10 1_555 1_555
H5 O10 1_555 1_555
N1 Eu1 1_555 1_555
C1 N1 1_555 1_555
C2 C1 1_555 1_555
H6 C2 1_555 1_555
C3 C2 1_555 1_555
H7 C3 1_555 1_555
C4 C3 1_555 1_555
C5 N1 1_555 1_555
C6 O3 1_555 1_555
C7 C1 1_555 1_555
C8 C4 1_555 1_555
C9 C8 1_555 1_555
C10 C9 1_555 1_555
C11 C9 1_555 1_555
H8 C11 1_555 1_555
C12 C11 1_555 1_555
C13 O6 1_555 1_555
C14 C12 1_555 1_555
H9 C14 1_555 1_555
C15 C8 1_555 1_555
H10 C15 1_555 1_555
O11 H11 1_555 1_555
H12 O11 1_555 1_555
O13 H15 1_555 1_555
H16 O13 1_555 1_555
Eu1_2 O2 1_555 1_555
Eu1A O1 1_555 1_555
Eu1A_2 O7 1_555 1_555
O1A Eu1 1_555 1_555
O2_2 Eu1 1_555 1_555
O7A Eu1 1_555 1_555
O8A Eu1 1_555 1_555
O8 Eu1A_2 1_555 1_555
C4 C5 1_555 1_555
C5 C6 1_555 1_555
C12 C13 1_555 1_555
C14 C15 1_555 1_555
Eu1A O1A 1_555 1_555

#END
