
#######################################################################
#
#                 Cambridge Crystallographic Data Centre
#                                CCDC 
#
#######################################################################
#
# If this CIF has been generated from an entry in the Cambridge 
# Structural Database, then it will include bibliographic, chemical, 
# crystal, experimental, refinement or atomic coordinate data resulting 
# from the CCDC's data processing and validation procedures.
#
#######################################################################

data_JOSPUC
_symmetry_cell_setting           triclinic
_symmetry_space_group_name_H-M   'P -1'
_symmetry_Int_Tables_number      2
_space_group_name_Hall           '-P 1'
loop_
_symmetry_equiv_pos_site_id
_symmetry_equiv_pos_as_xyz
1 x,y,z
2 -x,-y,-z
_cell_length_a                   12.855(2)
_cell_length_b                   13.501(2)
_cell_length_c                   5.8864(6)
_cell_angle_alpha                102.60(1)
_cell_angle_beta                 103.24(1)
_cell_angle_gamma                110.235(9)
_cell_volume                     882.248
loop_
_atom_site_label
_atom_site_type_symbol
_atom_site_fract_x
_atom_site_fract_y
_atom_site_fract_z
Cd1 Cd 0.25001(1) 0.24998(1) 0.02041(2)
Cd2 Cd 0.00000 0.00000 0.00000
Cd3 Cd 0.50000 0.50000 0.50000
Cl1 Cl 0.19950(3) 0.03914(3) -0.09281(7)
Cl2 Cl 0.30046(3) 0.46084(3) 0.16849(7)
P1 P 0.10740(3) 0.26467(3) 0.45162(6)
P2 P 0.39260(3) 0.23533(3) 0.57957(6)
O1 O 0.1007(1) 0.1952(1) 0.2019(2)
O2 O 0.1112(1) 0.2098(1) 0.6508(2)
O3 O 0.3993(1) 0.3049(1) 0.4067(2)
O4 O 0.3887(1) 0.2903(1) 0.8301(2)
O5 O -0.0732(1) 0.0491(1) -0.3219(2)
O6 O 0.5733(1) 0.4515(1) 0.2022(2)
C1 C -0.0095(1) 0.3089(1) 0.4202(3)
C2 C -0.0838(2) 0.2948(2) 0.1912(3)
C3 C -0.1663(2) 0.3396(2) 0.1786(4)
C4 C -0.1748(2) 0.3986(2) 0.3947(5)
C5 C -0.1028(2) 0.4109(2) 0.6214(4)
C6 C -0.0195(2) 0.3667(2) 0.6366(3)
C7 C 0.5092(1) 0.1911(1) 0.6207(3)
C8 C 0.5194(2) 0.1329(2) 0.7886(3)
C9 C 0.6026(2) 0.0884(2) 0.8125(4)
C10 C 0.6755(2) 0.1016(2) 0.6726(4)
C11 C 0.6666(2) 0.1603(2) 0.5057(4)
C12 C 0.5839(2) 0.2051(2) 0.4803(3)
Cl1A Cl -0.19950(3) -0.03914(3) 0.09281(7)
P1A P -0.10740(3) -0.26467(3) -0.45162(6)
O1A O -0.1007(1) -0.1952(1) -0.2019(2)
O2A O -0.1112(1) -0.2098(1) -0.6508(2)
C1A C 0.0095(1) -0.3089(1) -0.4202(3)
C2A C 0.0838(2) -0.2948(2) -0.1912(3)
C3A C 0.1663(2) -0.3396(2) -0.1786(4)
C4A C 0.1748(2) -0.3986(2) -0.3947(5)
C5A C 0.1028(2) -0.4109(2) -0.6214(4)
C6A C 0.0195(2) -0.3667(2) -0.6366(3)
O5A O 0.0732(1) -0.0491(1) 0.3219(2)
Cd1A Cd -0.25001(1) -0.24998(1) -0.02041(2)
P2_2 P 0.39260(3) 0.23533(3) -0.42043(6)
O3_2 O 0.3993(1) 0.3049(1) -0.5933(2)
O4_2 O 0.3887(1) 0.2903(1) -0.1699(2)
C7_2 C 0.5092(1) 0.1911(1) -0.3793(3)
C8_2 C 0.5194(2) 0.1329(2) -0.2114(3)
C9_2 C 0.6026(2) 0.0884(2) -0.1875(4)
C10_2 C 0.6755(2) 0.1016(2) -0.3274(4)
C11_2 C 0.6666(2) 0.1603(2) -0.4943(4)
C12_2 C 0.5839(2) 0.2051(2) -0.5197(3)
Cl2A Cl -0.30046(3) -0.46084(3) -0.16849(7)
O6A O 0.4267(1) 0.5485(1) 0.7978(2)
O2_2 O 0.1112(1) 0.2098(1) -0.3492(2)
Cl2A_2 Cl 0.69954(3) 0.53916(3) 0.83151(7)
O3A O 0.6007(1) 0.6951(1) 0.5933(2)
Cd1_2 Cd 0.25001(1) 0.24998(1) 1.02041(2)
Cd1A_2 Cd -0.25001(1) -0.24998(1) -1.02041(2)
O2A_2 O -0.1112(1) -0.2098(1) 0.3492(2)
O3A_2 O -0.3993(1) -0.3049(1) -0.4067(2)
O4A O -0.3887(1) -0.2903(1) 0.1699(2)
Cd1_3 Cd 0.25001(1) 0.24998(1) -0.97959(2)
Cd3_2 Cd 0.50000 0.50000 -0.50000
Cd3_3 Cd -0.50000 -0.50000 -0.50000
loop_
_geom_bond_atom_site_label_1
_geom_bond_atom_site_label_2
_geom_bond_site_symmetry_1
_geom_bond_site_symmetry_2
Cd1 Cl1 1_555 1_555
Cd2 Cl1 1_555 1_555
Cd3 Cl2 1_555 1_555
Cl2 Cd1 1_555 1_555
P1 O1 1_555 1_555
P2 O3 1_555 1_555
O1 Cd1 1_555 1_555
O2 P1 1_555 1_555
O3 Cd1 1_555 1_555
O4 P2 1_555 1_555
O5 Cd2 1_555 1_555
O6 Cd3 1_555 1_555
C1 P1 1_555 1_555
C2 C1 1_555 1_555
C3 C2 1_555 1_555
C4 C3 1_555 1_555
C5 C4 1_555 1_555
C6 C1 1_555 1_555
C7 P2 1_555 1_555
C8 C7 1_555 1_555
C9 C8 1_555 1_555
C10 C9 1_555 1_555
C11 C10 1_555 1_555
C12 C7 1_555 1_555
Cl1A Cd2 1_555 1_555
P1A O1A 1_555 1_555
O1A Cd2 1_555 1_555
O2A P1A 1_555 1_555
C1A P1A 1_555 1_555
C2A C1A 1_555 1_555
C3A C2A 1_555 1_555
C4A C3A 1_555 1_555
C5A C4A 1_555 1_555
C6A C1A 1_555 1_555
O5A Cd2 1_555 1_555
Cd1A Cl1A 1_555 1_555
P2_2 O3_2 1_555 1_555
O3_2 Cd1_3 1_555 1_555
O4_2 Cd1 1_555 1_555
C7_2 P2_2 1_555 1_555
C8_2 C7_2 1_555 1_555
C9_2 C8_2 1_555 1_555
C10_2 C9_2 1_555 1_555
C11_2 C10_2 1_555 1_555
C12_2 C7_2 1_555 1_555
Cl2A Cd1A 1_555 1_555
O6A Cd3 1_555 1_555
O2_2 Cd1 1_555 1_555
Cl2A_2 Cd3 1_555 1_555
O3A Cd3 1_555 1_555
Cd1_2 O2 1_555 1_555
Cd1A_2 O2A 1_555 1_555
O2A_2 Cd1A 1_555 1_555
O3A_2 Cd1A 1_555 1_555
O4A Cd1A 1_555 1_555
Cd3_2 O3_2 1_555 1_555
Cd3_3 Cl2A 1_555 1_555
Cd2 O1 1_555 1_555
Cd3 O3 1_555 1_555
O4 Cd1_2 1_555 1_555
C5 C6 1_555 1_555
C11 C12 1_555 1_555
O1A Cd1A 1_555 1_555
C5A C6A 1_555 1_555
P2_2 O4_2 1_555 1_555
C11_2 C12_2 1_555 1_555
O3A_2 Cd3_3 1_555 1_555

#END
