
#######################################################################
#
#                 Cambridge Crystallographic Data Centre
#                                CCDC 
#
#######################################################################
#
# If this CIF has been generated from an entry in the Cambridge 
# Structural Database, then it will include bibliographic, chemical, 
# crystal, experimental, refinement or atomic coordinate data resulting 
# from the CCDC's data processing and validation procedures.
#
#######################################################################

data_JOSQEN
_symmetry_cell_setting           monoclinic
_symmetry_space_group_name_H-M   'P 21/c'
_symmetry_Int_Tables_number      14
_space_group_name_Hall           '-P 2ybc'
loop_
_symmetry_equiv_pos_site_id
_symmetry_equiv_pos_as_xyz
1 x,y,z
2 -x,1/2+y,1/2-z
3 -x,-y,-z
4 x,1/2-y,1/2+z
_cell_length_a                   11.994(2)
_cell_length_b                   12.367(2)
_cell_length_c                   12.552(3)
_cell_angle_alpha                90
_cell_angle_beta                 116.36(1)
_cell_angle_gamma                90
_cell_volume                     1668.25
loop_
_atom_site_label
_atom_site_type_symbol
_atom_site_fract_x
_atom_site_fract_y
_atom_site_fract_z
C1 C 0.3786(6) -0.1852(5) 0.1386(5)
C2 C 0.2539(6) -0.1538(5) 0.0745(5)
N1 N 0.1534(6) -0.1230(5) 0.0305(5)
C3 C 0.4464(6) -0.1343(5) 0.2494(5)
N2 N 0.4952(6) -0.0877(5) 0.3372(5)
C4 C 0.4312(6) -0.2689(5) 0.1021(5)
N3 N 0.4751(5) -0.3377(5) 0.0718(5)
N7 N 0.0877(5) 0.0399(4) 0.2134(5)
C9 C 0.2224(6) 0.0167(5) 0.2753(5)
C10 C 0.0254(6) -0.0308(5) 0.2692(6)
C11 C 0.0694(6) 0.1555(5) 0.2382(5)
N8 N 0.2781(5) 0.0362(4) 0.4059(4)
C12 C 0.2087(6) -0.0347(6) 0.4543(5)
C13 C 0.2517(5) 0.1511(5) 0.4240(6)
N9 N 0.0747(5) -0.0106(4) 0.3975(5)
N10 N 0.1178(5) 0.1757(4) 0.3664(5)
C14 C 0.0556(6) 0.1031(6) 0.4164(6)
O1 O 0.1320(4) 0.1287(4) -0.0096(4)
H1 H 0.2367(6) -0.0671(5) 0.2605(5)
H2 H 0.2692(6) 0.0677(5) 0.2380(5)
H3 H 0.0410(6) -0.1146(5) 0.2554(6)
H4 H -0.0733(6) -0.0143(5) 0.2271(6)
H5 H -0.0288(6) 0.1740(5) 0.1952(5)
H6 H 0.1176(6) 0.2073(5) 0.2031(5)
H7 H 0.2453(6) -0.0212(6) 0.5489(5)
H8 H 0.2221(6) -0.1183(6) 0.4381(5)
H9 H 0.2978(5) 0.2035(5) 0.3871(6)
H10 H 0.2878(5) 0.1662(5) 0.5182(6)
H11 H -0.0430(6) 0.1201(6) 0.3742(6)
H12 H 0.0927(6) 0.1179(6) 0.5108(6)
H13 H 0.213(1) 0.112(2) 0.022(2)
H14 H 0.119(2) 0.186(1) -0.060(2)
Cd1 Cd 0.5000 0.0000 0.5000
Cd2 Cd 0.0000 0.0000 0.0000
N1B N -0.1534(6) 0.1230(5) -0.0305(5)
N7B N -0.0877(5) -0.0399(4) -0.2134(5)
O1B O -0.1320(4) -0.1287(4) 0.0096(4)
H13B H -0.213(1) -0.112(2) -0.022(2)
H14B H -0.119(2) -0.186(1) 0.060(2)
C1B C 0.6214(6) 0.1852(5) 0.8614(5)
C2B C 0.7461(6) 0.1538(5) 0.9255(5)
N1B_2 N 0.8466(6) 0.1230(5) 0.9695(5)
C3B C 0.5536(6) 0.1343(5) 0.7506(5)
N2B N 0.5048(6) 0.0877(5) 0.6628(5)
C4B C 0.5688(6) 0.2689(5) 0.8979(5)
N3B N 0.5249(5) 0.3377(5) 0.9282(5)
N7B_2 N 0.9123(5) -0.0399(4) 0.7866(5)
C9B C 0.7776(6) -0.0167(5) 0.7247(5)
C10B C 0.9746(6) 0.0308(5) 0.7308(6)
C11B C 0.9306(6) -0.1555(5) 0.7618(5)
N8B N 0.7219(5) -0.0362(4) 0.5941(4)
C12B C 0.7913(6) 0.0347(6) 0.5457(5)
C13B C 0.7483(5) -0.1511(5) 0.5760(6)
N9B N 0.9253(5) 0.0106(4) 0.6025(5)
N10B N 0.8822(5) -0.1757(4) 0.6336(5)
C14B C 0.9444(6) -0.1031(6) 0.5836(6)
H1B H 0.7633(6) 0.0671(5) 0.7395(5)
H2B H 0.7308(6) -0.0677(5) 0.7620(5)
H3B H 0.9590(6) 0.1146(5) 0.7446(6)
H4B H 1.0733(6) 0.0143(5) 0.7729(6)
H5B H 1.0288(6) -0.1740(5) 0.8048(5)
H6B H 0.8824(6) -0.2073(5) 0.7969(5)
H7B H 0.7547(6) 0.0212(6) 0.4511(5)
H8B H 0.7779(6) 0.1183(6) 0.5619(5)
H9B H 0.7022(5) -0.2035(5) 0.6129(6)
H10B H 0.7122(5) -0.1662(5) 0.4818(6)
H11B H 1.0430(6) -0.1201(6) 0.6258(6)
H12B H 0.9073(6) -0.1179(6) 0.4892(6)
Cd2B Cd 1.0000 0.0000 1.0000
N3A N 0.5249(5) 0.1623(5) 0.4282(5)
N3C N 0.4751(5) -0.1623(5) 0.5718(5)
Cd1A Cd 0.5000 -0.5000 0.0000
Cd1C Cd 0.5000 0.5000 1.0000
C5 C 0.6245(6) 0.0693(6) 0.1709(6)
C6 C 0.4962(7) 0.0866(6) 0.1297(7)
N4 N 0.3912(6) 0.1007(6) 0.0964(6)
C7 C 0.7020(6) 0.1566(6) 0.1796(6)
N5 N 0.7673(6) 0.2279(5) 0.1880(6)
C8 C 0.6758(7) -0.0354(7) 0.2046(7)
N6 N 0.7209(6) -0.1176(6) 0.2341(7)
loop_
_geom_bond_atom_site_label_1
_geom_bond_atom_site_label_2
_geom_bond_site_symmetry_1
_geom_bond_site_symmetry_2
C1 C2 1_555 1_555
C2 N1 1_555 1_555
N1 Cd2 1_555 1_555
C3 C1 1_555 1_555
N2 C3 1_555 1_555
C4 C1 1_555 1_555
N3 C4 1_555 1_555
C5 C6 1_555 1_555
C6 N4 1_555 1_555
C7 C5 1_555 1_555
N5 C7 1_555 1_555
C8 C5 1_555 1_555
N6 C8 1_555 1_555
N7 C9 1_555 1_555
C9 N8 1_555 1_555
C10 N7 1_555 1_555
C11 N7 1_555 1_555
N8 C12 1_555 1_555
C12 N9 1_555 1_555
C13 N8 1_555 1_555
N9 C10 1_555 1_555
N10 C11 1_555 1_555
C14 N9 1_555 1_555
O1 H13 1_555 1_555
H1 C9 1_555 1_555
H2 C9 1_555 1_555
H3 C10 1_555 1_555
H4 C10 1_555 1_555
H5 C11 1_555 1_555
H6 C11 1_555 1_555
H7 C12 1_555 1_555
H8 C12 1_555 1_555
H9 C13 1_555 1_555
H10 C13 1_555 1_555
H11 C14 1_555 1_555
H12 C14 1_555 1_555
H14 O1 1_555 1_555
Cd1 N2 1_555 1_555
Cd2 N7 1_555 1_555
N1B Cd2 1_555 1_555
N7B Cd2 1_555 1_555
O1B Cd2 1_555 1_555
H13B O1B 1_555 1_555
H14B O1B 1_555 1_555
C1B C2B 1_555 1_555
C2B N1B_2 1_555 1_555
N1B_2 Cd2B 1_555 1_555
C3B C1B 1_555 1_555
N2B Cd1 1_555 1_555
C4B C1B 1_555 1_555
N3B C4B 1_555 1_555
N7B_2 C9B 1_555 1_555
C9B N8B 1_555 1_555
C10B N7B_2 1_555 1_555
C11B N7B_2 1_555 1_555
N8B Cd1 1_555 1_555
C12B N8B 1_555 1_555
C13B N8B 1_555 1_555
N9B C10B 1_555 1_555
N10B C11B 1_555 1_555
C14B N9B 1_555 1_555
H1B C9B 1_555 1_555
H2B C9B 1_555 1_555
H3B C10B 1_555 1_555
H4B C10B 1_555 1_555
H5B C11B 1_555 1_555
H6B C11B 1_555 1_555
H7B C12B 1_555 1_555
H8B C12B 1_555 1_555
H9B C13B 1_555 1_555
H10B C13B 1_555 1_555
H11B C14B 1_555 1_555
H12B C14B 1_555 1_555
Cd2B N7B_2 1_555 1_555
N3A Cd1 1_555 1_555
N3C Cd1 1_555 1_555
Cd1A N3 1_555 1_555
Cd1C N3B 1_555 1_555
N8 Cd1 1_555 1_555
C13 N10 1_555 1_555
N10 C14 1_555 1_555
O1 Cd2 1_555 1_555
C3B N2B 1_555 1_555
C12B N9B 1_555 1_555
C13B N10B 1_555 1_555
N10B C14B 1_555 1_555

#END
