
#######################################################################
#
#                 Cambridge Crystallographic Data Centre
#                                CCDC 
#
#######################################################################
#
# If this CIF has been generated from an entry in the Cambridge 
# Structural Database, then it will include bibliographic, chemical, 
# crystal, experimental, refinement or atomic coordinate data resulting 
# from the CCDC's data processing and validation procedures.
#
#######################################################################

data_JOSTIW
_symmetry_cell_setting           monoclinic
_symmetry_space_group_name_H-M   'C 2/c'
_symmetry_Int_Tables_number      15
_space_group_name_Hall           '-C 2yn'
loop_
_symmetry_equiv_pos_site_id
_symmetry_equiv_pos_as_xyz
1 x,y,z
2 -x,y,1/2-z
3 1/2+x,1/2+y,z
4 1/2-x,1/2+y,1/2-z
5 -x,-y,-z
6 x,-y,1/2+z
7 1/2-x,1/2-y,-z
8 1/2+x,1/2-y,1/2+z
_cell_length_a                   22.4842(17)
_cell_length_b                   12.1743(8)
_cell_length_c                   20.2747(14)
_cell_angle_alpha                90
_cell_angle_beta                 114.591(8)
_cell_angle_gamma                90
_cell_volume                     5046.42
loop_
_atom_site_label
_atom_site_type_symbol
_atom_site_fract_x
_atom_site_fract_y
_atom_site_fract_z
Sb1 Sb 0.688285(11) 0.09553(2) 0.727375(13)
Sb2 Sb 0.816961(11) 0.31137(2) 0.833773(14)
Sb3 Sb 0.981392(11) 0.48725(2) 0.903003(15)
S1 S 0.58659(4) 0.15541(8) 0.63031(6)
S2 S 0.73437(4) -0.01430(7) 0.65938(6)
S3 S 0.74130(5) 0.26159(8) 0.70875(6)
S4 S 0.89214(4) 0.38147(9) 0.78893(6)
S5 S 0.94219(5) 0.39174(8) 0.97944(6)
Sb2C Sb 0.683039(11) -0.18863(2) 0.666227(14)
Sb3C Sb 0.518608(11) -0.01275(2) 0.596997(15)
Sb3D Sb 1.018608(11) 0.51275(2) 1.096997(15)
S1C S 0.91341(4) 0.65541(8) 0.86969(6)
S2C S 0.76563(4) 0.48570(7) 0.84062(6)
S5D S 1.05781(5) 0.60826(8) 1.02056(6)
Ni1 Ni 0.5000 0.49514(5) 0.2500
N1 N 0.55848(14) 0.3788(3) 0.32468(17)
N2 N 0.45430(14) 0.4840(3) 0.32194(17)
C1 C 0.61224(18) 0.3299(3) 0.3258(2)
H1 H 0.6242 0.3433 0.2867
C2 C 0.65130(18) 0.2607(3) 0.3812(2)
H2 H 0.6895 0.2290 0.3801
C3 C 0.63468(18) 0.2377(3) 0.4381(2)
C4 C 0.57790(18) 0.2862(3) 0.4356(2)
H3 H 0.5643 0.2721 0.4734
C5 C 0.54101(16) 0.3543(3) 0.37938(19)
C6 C 0.48202(16) 0.4118(3) 0.3770(2)
C7 C 0.45761(18) 0.3939(3) 0.4286(2)
H4 H 0.4783 0.3423 0.4665
C8 C 0.40322(19) 0.4509(3) 0.4251(2)
C9 C 0.3753(2) 0.5252(4) 0.3689(2)
H5 H 0.3380 0.5665 0.3647
C10 C 0.40162(19) 0.5392(3) 0.3189(2)
H6 H 0.3815 0.5902 0.2805
C11 C 0.6760(2) 0.1662(3) 0.5012(2)
H7 H 0.6915 0.2094 0.5460
H8 H 0.7136 0.1385 0.4936
H9 H 0.6498 0.1042 0.5050
C12 C 0.3758(2) 0.4308(4) 0.4799(3)
H10 H 0.3600 0.3550 0.4756
H11 H 0.3395 0.4815 0.4712
H12 H 0.4100 0.4428 0.5287
N3 N 0.44117(15) 0.6291(3) 0.19655(17)
C13 C 0.38018(19) 0.6232(4) 0.1442(2)
H13 H 0.3609 0.5529 0.1292
C14 C 0.3442(2) 0.7162(4) 0.1109(2)
H14 H 0.3010 0.7087 0.0743
C15 C 0.3713(2) 0.8194(4) 0.1312(2)
C16 C 0.4337(2) 0.8255(3) 0.1880(2)
H15 H 0.4533 0.8950 0.2051
C17 C 0.46724(18) 0.7287(3) 0.2196(2)
C18 C 0.3361(3) 0.9213(4) 0.0942(3)
H16 H 0.3471 0.9383 0.0533
H17 H 0.3493 0.9825 0.1287
H18 H 0.2888 0.9097 0.0763
N3A N 0.55883(15) 0.6291(3) 0.30345(17)
C13A C 0.61982(19) 0.6232(4) 0.3558(2)
H13A H 0.6391 0.5529 0.3708
C14A C 0.6558(2) 0.7162(4) 0.3891(2)
H14A H 0.6990 0.7087 0.4257
C15A C 0.6287(2) 0.8194(4) 0.3688(2)
C16A C 0.5663(2) 0.8255(3) 0.3120(2)
H15A H 0.5467 0.8950 0.2949
C17A C 0.53276(18) 0.7287(3) 0.2804(2)
C18A C 0.6639(3) 0.9213(4) 0.4058(3)
H16A H 0.6529 0.9383 0.4467
H17A H 0.6507 0.9825 0.3713
H18A H 0.7112 0.9097 0.4237
N1A N 0.44152(14) 0.3788(3) 0.17532(17)
N2A N 0.54570(14) 0.4840(3) 0.17806(17)
C1A C 0.38776(18) 0.3299(3) 0.1742(2)
H1A H 0.3758 0.3433 0.2133
C2A C 0.34870(18) 0.2607(3) 0.1188(2)
H2A H 0.3105 0.2290 0.1199
C3A C 0.36532(18) 0.2377(3) 0.0619(2)
C4A C 0.42210(18) 0.2862(3) 0.0644(2)
H3A H 0.4357 0.2721 0.0266
C5A C 0.45899(16) 0.3543(3) 0.12062(19)
C6A C 0.51798(16) 0.4118(3) 0.1230(2)
C7A C 0.54239(18) 0.3939(3) 0.0714(2)
H4A H 0.5217 0.3423 0.0335
C8A C 0.59678(19) 0.4509(3) 0.0749(2)
C9A C 0.6247(2) 0.5252(4) 0.1311(2)
H5A H 0.6620 0.5665 0.1353
C10A C 0.59838(19) 0.5392(3) 0.1811(2)
H6A H 0.6185 0.5902 0.2195
C11A C 0.3240(2) 0.1662(3) -0.0012(2)
H7A H 0.3085 0.2094 -0.0460
H8A H 0.2864 0.1385 0.0064
H9A H 0.3502 0.1042 -0.0050
C12A C 0.6242(2) 0.4308(4) 0.0201(3)
H10A H 0.6400 0.3550 0.0244
H11A H 0.6605 0.4815 0.0288
H12A H 0.5900 0.4428 -0.0287
loop_
_geom_bond_atom_site_label_1
_geom_bond_atom_site_label_2
_geom_bond_site_symmetry_1
_geom_bond_site_symmetry_2
Sb1 S1 1_555 1_555
Sb2 S3 1_555 1_555
Sb3 S4 1_555 1_555
S1 Sb3C 1_555 1_555
S2 Sb1 1_555 1_555
S3 Sb1 1_555 1_555
S4 Sb2 1_555 1_555
S5 Sb3 1_555 1_555
Ni1 N1 1_555 1_555
N1 C1 1_555 1_555
N2 Ni1 1_555 1_555
C1 H1 1_555 1_555
C2 C1 1_555 1_555
H2 C2 1_555 1_555
C3 C2 1_555 1_555
C4 C3 1_555 1_555
H3 C4 1_555 1_555
C5 N1 1_555 1_555
C6 N2 1_555 1_555
C7 C6 1_555 1_555
H4 C7 1_555 1_555
C8 C7 1_555 1_555
C9 C8 1_555 1_555
H5 C9 1_555 1_555
C10 N2 1_555 1_555
H6 C10 1_555 1_555
C11 C3 1_555 1_555
H7 C11 1_555 1_555
H8 C11 1_555 1_555
H9 C11 1_555 1_555
C12 C8 1_555 1_555
H10 C12 1_555 1_555
H11 C12 1_555 1_555
H12 C12 1_555 1_555
N3 Ni1 1_555 1_555
C13 N3 1_555 1_555
H13 C13 1_555 1_555
C14 C13 1_555 1_555
H14 C14 1_555 1_555
C15 C14 1_555 1_555
C16 C15 1_555 1_555
H15 C16 1_555 1_555
C17 N3 1_555 1_555
C18 C15 1_555 1_555
H16 C18 1_555 1_555
H17 C18 1_555 1_555
H18 C18 1_555 1_555
Sb2C S2 1_555 1_555
Sb3D S5 1_555 1_555
S1C Sb3 1_555 1_555
S2C Sb2 1_555 1_555
S5D Sb3 1_555 1_555
N3A Ni1 1_555 1_555
C13A N3A 1_555 1_555
H13A C13A 1_555 1_555
C14A C13A 1_555 1_555
H14A C14A 1_555 1_555
C15A C14A 1_555 1_555
C16A C15A 1_555 1_555
H15A C16A 1_555 1_555
C17A C17 1_555 1_555
C18A C15A 1_555 1_555
H16A C18A 1_555 1_555
H17A C18A 1_555 1_555
H18A C18A 1_555 1_555
N1A Ni1 1_555 1_555
N2A Ni1 1_555 1_555
C1A N1A 1_555 1_555
H1A C1A 1_555 1_555
C2A C1A 1_555 1_555
H2A C2A 1_555 1_555
C3A C2A 1_555 1_555
C4A C3A 1_555 1_555
H3A C4A 1_555 1_555
C5A N1A 1_555 1_555
C6A N2A 1_555 1_555
C7A C6A 1_555 1_555
H4A C7A 1_555 1_555
C8A C7A 1_555 1_555
C9A C8A 1_555 1_555
H5A C9A 1_555 1_555
C10A N2A 1_555 1_555
H6A C10A 1_555 1_555
C11A C3A 1_555 1_555
H7A C11A 1_555 1_555
H8A C11A 1_555 1_555
H9A C11A 1_555 1_555
C12A C8A 1_555 1_555
H10A C12A 1_555 1_555
H11A C12A 1_555 1_555
H12A C12A 1_555 1_555
C4 C5 1_555 1_555
C5 C6 1_555 1_555
C9 C10 1_555 1_555
C16 C17 1_555 1_555
Sb3D S5D 1_555 1_555
N3A C17A 1_555 1_555
C16A C17A 1_555 1_555
C4A C5A 1_555 1_555
C5A C6A 1_555 1_555
C9A C10A 1_555 1_555

#END
