
#######################################################################
#
#                 Cambridge Crystallographic Data Centre
#                                CCDC 
#
#######################################################################
#
# If this CIF has been generated from an entry in the Cambridge 
# Structural Database, then it will include bibliographic, chemical, 
# crystal, experimental, refinement or atomic coordinate data resulting 
# from the CCDC's data processing and validation procedures.
#
#######################################################################

data_JOSTES
_symmetry_cell_setting           orthorhombic
_symmetry_space_group_name_H-M   'P b c n'
_symmetry_Int_Tables_number      60
_space_group_name_Hall           '-P 2n 2ab'
loop_
_symmetry_equiv_pos_site_id
_symmetry_equiv_pos_as_xyz
1 x,y,z
2 1/2-x,1/2-y,1/2+z
3 -x,y,1/2-z
4 1/2+x,1/2-y,-z
5 -x,-y,-z
6 1/2+x,1/2+y,1/2-z
7 x,-y,1/2+z
8 1/2-x,1/2+y,z
_cell_length_a                   15.4627(9)
_cell_length_b                   10.8693(5)
_cell_length_c                   26.1711(14)
_cell_angle_alpha                90
_cell_angle_beta                 90
_cell_angle_gamma                90
_cell_volume                     4398.54
loop_
_atom_site_label
_atom_site_type_symbol
_atom_site_fract_x
_atom_site_fract_y
_atom_site_fract_z
Sb1 Sb 0.382181(16) 0.49287(2) 0.490462(11)
Sb2 Sb 0.412452(15) 0.16300(2) 0.498591(10)
Sb3 Sb 0.668544(15) 0.17166(2) 0.494792(11)
S1 S 0.26485(6) 0.36368(11) 0.43434(4)
S2 S 0.49915(6) 0.39190(10) 0.44617(4)
S3 S 0.36562(6) 0.33115(9) 0.55616(4)
S4 S 0.54287(5) 0.11395(10) 0.54851(4)
S5 S 0.67920(6) -0.02524(10) 0.44805(4)
Sb1D Sb 0.617819(16) 0.50713(2) 0.509538(11)
Sb2D Sb 0.587548(15) -0.16300(2) 0.501409(10)
Sb3C Sb 0.168544(15) 0.32834(2) 0.505208(11)
S1C S 0.76485(6) 0.13632(11) 0.56566(4)
S2D S 0.50085(6) 0.60810(10) 0.55383(4)
S5D S 0.32080(6) 0.02524(10) 0.55195(4)
Ni1 Ni 0.5000 0.64842(7) 0.7500
N1 N 0.5657(3) 0.5134(3) 0.70988(14)
N2 N 0.6154(2) 0.6407(4) 0.79150(15)
C1 C 0.5350(4) 0.4491(5) 0.6703(2)
H1 H 0.4795 0.4690 0.6571
C2 C 0.5816(4) 0.3541(5) 0.6479(3)
H2 H 0.5592 0.3108 0.6192
C3 C 0.6608(5) 0.3243(6) 0.6681(3)
H3 H 0.6939 0.2597 0.6534
C4 C 0.6925(4) 0.3878(5) 0.7097(3)
H4 H 0.7465 0.3662 0.7245
C5 C 0.6437(3) 0.4838(4) 0.72940(19)
C6 C 0.6752(3) 0.5622(5) 0.77221(18)
C7 C 0.7594(3) 0.5615(6) 0.7910(2)
H5 H 0.8010 0.5065 0.7772
C8 C 0.7816(3) 0.6409(7) 0.8296(2)
H6 H 0.8390 0.6411 0.8426
C9 C 0.7211(3) 0.7201(7) 0.8493(2)
H7 H 0.7358 0.7760 0.8758
C10 C 0.6385(3) 0.7164(5) 0.8296(2)
H8 H 0.5961 0.7697 0.8437
N3 N 0.5476(2) 0.7951(3) 0.70775(14)
C11 C 0.5961(3) 0.7861(5) 0.66550(18)
H9 H 0.6090 0.7068 0.6522
C12 C 0.6280(3) 0.8887(5) 0.64064(18)
H10 H 0.6628 0.8802 0.6109
C13 C 0.6085(3) 1.0034(5) 0.6597(2)
H11 H 0.6298 1.0750 0.6431
C14 C 0.5574(3) 1.0146(5) 0.7033(2)
H12 H 0.5431 1.0932 0.7168
C15 C 0.5278(3) 0.9069(4) 0.72661(18)
N3B N 0.4524(2) 0.7951(3) 0.79225(14)
C11B C 0.4039(3) 0.7861(5) 0.83450(18)
H9B H 0.3910 0.7068 0.8478
C12B C 0.3720(3) 0.8887(5) 0.85936(18)
H10B H 0.3372 0.8802 0.8891
C13B C 0.3915(3) 1.0034(5) 0.8403(2)
H11B H 0.3702 1.0750 0.8569
C14B C 0.4426(3) 1.0146(5) 0.7967(2)
H12B H 0.4569 1.0932 0.7832
C15B C 0.4722(3) 0.9069(4) 0.77339(18)
N1B N 0.4343(3) 0.5134(3) 0.79012(14)
N2B N 0.3846(2) 0.6407(4) 0.70850(15)
C1B C 0.4650(4) 0.4491(5) 0.8297(2)
H1B H 0.5205 0.4690 0.8429
C2B C 0.4184(4) 0.3541(5) 0.8521(3)
H2B H 0.4408 0.3108 0.8808
C3B C 0.3392(5) 0.3243(6) 0.8319(3)
H3B H 0.3061 0.2597 0.8466
C4B C 0.3075(4) 0.3878(5) 0.7903(3)
H4B H 0.2535 0.3662 0.7755
C5B C 0.3563(3) 0.4838(4) 0.77060(19)
C6B C 0.3248(3) 0.5622(5) 0.72779(18)
C7B C 0.2406(3) 0.5615(6) 0.7090(2)
H5B H 0.1990 0.5065 0.7228
C8B C 0.2184(3) 0.6409(7) 0.6704(2)
H6B H 0.1610 0.6411 0.6574
C9B C 0.2789(3) 0.7201(7) 0.6507(2)
H7B H 0.2642 0.7760 0.6242
C10B C 0.3615(3) 0.7164(5) 0.6704(2)
H8B H 0.4039 0.7697 0.6563
loop_
_geom_bond_atom_site_label_1
_geom_bond_atom_site_label_2
_geom_bond_site_symmetry_1
_geom_bond_site_symmetry_2
Sb1 S1 1_555 1_555
Sb2 S3 1_555 1_555
Sb3 S4 1_555 1_555
S1 Sb3C 1_555 1_555
S2 Sb1 1_555 1_555
S3 Sb1 1_555 1_555
S4 Sb2 1_555 1_555
S5 Sb3 1_555 1_555
Ni1 N1 1_555 1_555
N1 C1 1_555 1_555
N2 Ni1 1_555 1_555
C1 H1 1_555 1_555
C2 C1 1_555 1_555
H2 C2 1_555 1_555
C3 C2 1_555 1_555
H3 C3 1_555 1_555
C4 C3 1_555 1_555
H4 C4 1_555 1_555
C5 N1 1_555 1_555
C6 N2 1_555 1_555
C7 C6 1_555 1_555
H5 C7 1_555 1_555
C8 C7 1_555 1_555
H6 C8 1_555 1_555
C9 C8 1_555 1_555
H7 C9 1_555 1_555
C10 N2 1_555 1_555
H8 C10 1_555 1_555
N3 Ni1 1_555 1_555
C11 N3 1_555 1_555
H9 C11 1_555 1_555
C12 C11 1_555 1_555
H10 C12 1_555 1_555
C13 C12 1_555 1_555
H11 C13 1_555 1_555
C14 C13 1_555 1_555
H12 C14 1_555 1_555
C15 N3 1_555 1_555
Sb1D S2 1_555 1_555
Sb2D S5 1_555 1_555
S1C Sb3 1_555 1_555
S2D Sb1 1_555 1_555
S5D Sb2 1_555 1_555
N3B Ni1 1_555 1_555
C11B N3B 1_555 1_555
H9B C11B 1_555 1_555
C12B C11B 1_555 1_555
H10B C12B 1_555 1_555
C13B C12B 1_555 1_555
H11B C13B 1_555 1_555
C14B C13B 1_555 1_555
H12B C14B 1_555 1_555
C15B C15 1_555 1_555
N1B Ni1 1_555 1_555
N2B Ni1 1_555 1_555
C1B N1B 1_555 1_555
H1B C1B 1_555 1_555
C2B C1B 1_555 1_555
H2B C2B 1_555 1_555
C3B C2B 1_555 1_555
H3B C3B 1_555 1_555
C4B C3B 1_555 1_555
H4B C4B 1_555 1_555
C5B N1B 1_555 1_555
C6B N2B 1_555 1_555
C7B C6B 1_555 1_555
H5B C7B 1_555 1_555
C8B C7B 1_555 1_555
H6B C8B 1_555 1_555
C9B C8B 1_555 1_555
H7B C9B 1_555 1_555
C10B N2B 1_555 1_555
H8B C10B 1_555 1_555
C4 C5 1_555 1_555
C5 C6 1_555 1_555
C9 C10 1_555 1_555
C14 C15 1_555 1_555
Sb1D S2D 1_555 1_555
N3B C15B 1_555 1_555
C14B C15B 1_555 1_555
C4B C5B 1_555 1_555
C5B C6B 1_555 1_555
C9B C10B 1_555 1_555

#END
