
#######################################################################
#
#                 Cambridge Crystallographic Data Centre
#                                CCDC 
#
#######################################################################
#
# If this CIF has been generated from an entry in the Cambridge 
# Structural Database, then it will include bibliographic, chemical, 
# crystal, experimental, refinement or atomic coordinate data resulting 
# from the CCDC's data processing and validation procedures.
#
#######################################################################

data_JOSVOE
_symmetry_cell_setting           orthorhombic
_symmetry_space_group_name_H-M   'P b c n'
_symmetry_Int_Tables_number      60
_space_group_name_Hall           '-P 2n 2ab'
loop_
_symmetry_equiv_pos_site_id
_symmetry_equiv_pos_as_xyz
1 x,y,z
2 1/2-x,1/2-y,1/2+z
3 -x,y,1/2-z
4 1/2+x,1/2-y,-z
5 -x,-y,-z
6 1/2+x,1/2+y,1/2-z
7 x,-y,1/2+z
8 1/2-x,1/2+y,z
_cell_length_a                   15.4439(4)
_cell_length_b                   10.8132(3)
_cell_length_c                   25.9551(6)
_cell_angle_alpha                90
_cell_angle_beta                 90
_cell_angle_gamma                90
_cell_volume                     4334.45
loop_
_atom_site_label
_atom_site_type_symbol
_atom_site_fract_x
_atom_site_fract_y
_atom_site_fract_z
Sb1 Sb 0.38183(2) 0.49288(3) 0.490240(13)
Sb2 Sb 0.412442(19) 0.16210(3) 0.498805(12)
Sb3 Sb 0.668482(19) 0.17293(3) 0.494712(14)
S1 S 0.26442(7) 0.36496(13) 0.43383(5)
S2 S 0.49899(8) 0.39044(12) 0.44629(5)
S3 S 0.36430(7) 0.33101(11) 0.55656(5)
S4 S 0.54309(7) 0.11447(11) 0.54906(5)
S5 S 0.67869(8) -0.02387(12) 0.44699(5)
Sb1D Sb 0.61817(2) 0.50712(3) 0.509760(13)
Sb2D Sb 0.587558(19) -0.16210(3) 0.501195(12)
Sb3C Sb 0.168482(19) 0.32707(3) 0.505288(14)
S1C S 0.76442(7) 0.13504(13) 0.56617(5)
S2D S 0.50101(8) 0.60956(12) 0.55371(5)
S5D S 0.32131(8) 0.02387(12) 0.55301(5)
Fe1 Fe 0.5000 0.65296(9) 0.7500
N1 N 0.5569(3) 0.5218(4) 0.71033(17)
N2 N 0.6095(3) 0.6482(4) 0.78854(17)
C1 C 0.5236(4) 0.4584(5) 0.6707(2)
H1 H 0.4675 0.4800 0.6587
C2 C 0.5673(5) 0.3623(6) 0.6465(3)
H2 H 0.5420 0.3194 0.6183
C3 C 0.6476(5) 0.3316(6) 0.6642(3)
H3 H 0.6792 0.2667 0.6482
C4 C 0.6831(4) 0.3945(6) 0.7054(3)
H4 H 0.7387 0.3725 0.7182
C5 C 0.6370(3) 0.4897(5) 0.7279(2)
C6 C 0.6693(3) 0.5678(5) 0.7700(2)
C7 C 0.7530(4) 0.5643(7) 0.7898(3)
H5 H 0.7939 0.5069 0.7765
C8 C 0.7764(4) 0.6439(7) 0.8287(3)
H6 H 0.8335 0.6427 0.8423
C9 C 0.7155(4) 0.7259(7) 0.8476(2)
H7 H 0.7299 0.7820 0.8744
C10 C 0.6340(4) 0.7244(6) 0.8269(2)
H8 H 0.5923 0.7803 0.8403
N3 N 0.5472(3) 0.7900(4) 0.70911(17)
C11 C 0.5968(3) 0.7806(5) 0.6668(2)
H9 H 0.6089 0.7004 0.6536
C12 C 0.6309(3) 0.8818(5) 0.6415(2)
H10 H 0.6667 0.8717 0.6120
C13 C 0.6117(4) 0.9981(6) 0.6603(2)
H11 H 0.6341 1.0697 0.6437
C14 C 0.5598(4) 1.0097(5) 0.7031(2)
H12 H 0.5458 1.0893 0.7161
C15 C 0.5282(3) 0.9045(5) 0.7272(2)
N3B N 0.4528(3) 0.7900(4) 0.79089(17)
C11B C 0.4032(3) 0.7806(5) 0.8332(2)
H9B H 0.3911 0.7004 0.8464
C12B C 0.3691(3) 0.8818(5) 0.8585(2)
H10B H 0.3333 0.8717 0.8880
C13B C 0.3883(4) 0.9981(6) 0.8397(2)
H11B H 0.3659 1.0697 0.8563
C14B C 0.4402(4) 1.0097(5) 0.7969(2)
H12B H 0.4542 1.0893 0.7839
C15B C 0.4718(3) 0.9045(5) 0.7728(2)
N1B N 0.4431(3) 0.5218(4) 0.78967(17)
N2B N 0.3905(3) 0.6482(4) 0.71146(17)
C1B C 0.4764(4) 0.4584(5) 0.8293(2)
H1B H 0.5325 0.4800 0.8413
C2B C 0.4327(5) 0.3623(6) 0.8535(3)
H2B H 0.4580 0.3194 0.8817
C3B C 0.3524(5) 0.3316(6) 0.8358(3)
H3B H 0.3208 0.2667 0.8518
C4B C 0.3169(4) 0.3945(6) 0.7946(3)
H4B H 0.2613 0.3725 0.7818
C5B C 0.3630(3) 0.4897(5) 0.7721(2)
C6B C 0.3307(3) 0.5678(5) 0.7300(2)
C7B C 0.2470(4) 0.5643(7) 0.7102(3)
H5B H 0.2061 0.5069 0.7235
C8B C 0.2236(4) 0.6439(7) 0.6713(3)
H6B H 0.1665 0.6427 0.6577
C9B C 0.2845(4) 0.7259(7) 0.6524(2)
H7B H 0.2701 0.7820 0.6256
C10B C 0.3660(4) 0.7244(6) 0.6731(2)
H8B H 0.4077 0.7803 0.6597
loop_
_geom_bond_atom_site_label_1
_geom_bond_atom_site_label_2
_geom_bond_site_symmetry_1
_geom_bond_site_symmetry_2
Sb1 S1 1_555 1_555
Sb2 S3 1_555 1_555
Sb3 S4 1_555 1_555
S1 Sb3C 1_555 1_555
S2 Sb1 1_555 1_555
S3 Sb1 1_555 1_555
S4 Sb2 1_555 1_555
S5 Sb3 1_555 1_555
Fe1 N1 1_555 1_555
N1 C1 1_555 1_555
N2 Fe1 1_555 1_555
C1 H1 1_555 1_555
C2 C1 1_555 1_555
H2 C2 1_555 1_555
C3 C2 1_555 1_555
H3 C3 1_555 1_555
C4 C3 1_555 1_555
H4 C4 1_555 1_555
C5 N1 1_555 1_555
C6 N2 1_555 1_555
C7 C6 1_555 1_555
H5 C7 1_555 1_555
C8 C7 1_555 1_555
H6 C8 1_555 1_555
C9 C8 1_555 1_555
H7 C9 1_555 1_555
C10 N2 1_555 1_555
H8 C10 1_555 1_555
N3 Fe1 1_555 1_555
C11 N3 1_555 1_555
H9 C11 1_555 1_555
C12 C11 1_555 1_555
H10 C12 1_555 1_555
C13 C12 1_555 1_555
H11 C13 1_555 1_555
C14 C13 1_555 1_555
H12 C14 1_555 1_555
C15 N3 1_555 1_555
Sb1D S2 1_555 1_555
Sb2D S5 1_555 1_555
S1C Sb3 1_555 1_555
S2D Sb1 1_555 1_555
S5D Sb2 1_555 1_555
N3B Fe1 1_555 1_555
C11B N3B 1_555 1_555
H9B C11B 1_555 1_555
C12B C11B 1_555 1_555
H10B C12B 1_555 1_555
C13B C12B 1_555 1_555
H11B C13B 1_555 1_555
C14B C13B 1_555 1_555
H12B C14B 1_555 1_555
C15B C15 1_555 1_555
N1B Fe1 1_555 1_555
N2B Fe1 1_555 1_555
C1B N1B 1_555 1_555
H1B C1B 1_555 1_555
C2B C1B 1_555 1_555
H2B C2B 1_555 1_555
C3B C2B 1_555 1_555
H3B C3B 1_555 1_555
C4B C3B 1_555 1_555
H4B C4B 1_555 1_555
C5B N1B 1_555 1_555
C6B N2B 1_555 1_555
C7B C6B 1_555 1_555
H5B C7B 1_555 1_555
C8B C7B 1_555 1_555
H6B C8B 1_555 1_555
C9B C8B 1_555 1_555
H7B C9B 1_555 1_555
C10B N2B 1_555 1_555
H8B C10B 1_555 1_555
C4 C5 1_555 1_555
C5 C6 1_555 1_555
C9 C10 1_555 1_555
C14 C15 1_555 1_555
Sb1D S2D 1_555 1_555
N3B C15B 1_555 1_555
C14B C15B 1_555 1_555
C4B C5B 1_555 1_555
C5B C6B 1_555 1_555
C9B C10B 1_555 1_555

#END
