
#######################################################################
#
#                 Cambridge Crystallographic Data Centre
#                                CCDC 
#
#######################################################################
#
# If this CIF has been generated from an entry in the Cambridge 
# Structural Database, then it will include bibliographic, chemical, 
# crystal, experimental, refinement or atomic coordinate data resulting 
# from the CCDC's data processing and validation procedures.
#
#######################################################################

data_JOTXOF
_symmetry_cell_setting           triclinic
_symmetry_space_group_name_H-M   'P -1'
_symmetry_Int_Tables_number      2
_space_group_name_Hall           '-P 1'
loop_
_symmetry_equiv_pos_site_id
_symmetry_equiv_pos_as_xyz
1 x,y,z
2 -x,-y,-z
_cell_length_a                   7.247(5)
_cell_length_b                   9.093(3)
_cell_length_c                   9.626(5)
_cell_angle_alpha                107.93(4)
_cell_angle_beta                 99.41(5)
_cell_angle_gamma                92.97(4)
_cell_volume                     591.86
loop_
_atom_site_label
_atom_site_type_symbol
_atom_site_fract_x
_atom_site_fract_y
_atom_site_fract_z
Hg1 Hg 0.50000 0.50000 0.50000
Cl1 Cl 0.5799(9) 0.5893(5) 0.7547(5)
Hg2 Hg 0.06538(10) 0.22956(8) 0.62707(7)
Cl2 Cl 0.2262(7) 0.2243(6) 0.8541(5)
Cl3 Cl -0.1483(8) 0.3129(8) 0.4692(6)
O1 O 0.1538(18) 0.0252(15) 0.4000(15)
O2 O 0.3722(17) 0.2190(13) 0.5188(12)
C1 C 0.3041(22) 0.0951(18) 0.4185(18)
C2 C 0.4360(19) 0.0335(17) 0.3032(14)
N1 N 0.3294(18) -0.0854(15) 0.1637(15)
C3 C 0.2516(24) -0.0418(20) 0.0496(18)
C4 C 0.1604(24) -0.1528(20) -0.0818(19)
C5 C 0.1469(25) -0.3107(20) -0.0942(20)
C6 C 0.2267(24) -0.3542(22) 0.0263(21)
C7 C 0.3175(22) -0.2370(16) 0.1579(20)
Cl1A Cl 0.4201(9) 0.4107(5) 0.2453(5)
O1A O 0.8462(18) 0.9748(15) 0.6000(15)
O2A O 0.6278(17) 0.7810(13) 0.4812(12)
C1A C 0.6959(22) 0.9049(18) 0.5815(18)
C2A C 0.5640(19) 0.9665(17) 0.6968(14)
N1A N 0.6706(18) 1.0854(15) 0.8363(15)
C3A C 0.7484(24) 1.0418(20) 0.9504(18)
C4A C 0.8396(24) 1.1528(20) 1.0818(19)
C5A C 0.8531(25) 1.3107(20) 1.0942(20)
C6A C 0.7733(24) 1.3542(22) 0.9737(21)
C7A C 0.6825(22) 1.2370(16) 0.8421(20)
Hg2A Hg 0.93462(10) 0.77044(8) 0.37293(7)
Cl2A Cl 0.7738(7) 0.7757(6) 0.1459(5)
Cl3A Cl 1.1483(8) 0.6871(8) 0.5308(6)
O1A_2 O -0.1538(18) -0.0252(15) 0.6000(15)
Hg2A_2 Hg -0.06538(10) -0.22956(8) 0.37293(7)
Hg2_2 Hg 1.06538(10) 1.22956(8) 0.62707(7)
O1_2 O 1.1538(18) 1.0252(15) 0.4000(15)
loop_
_geom_bond_atom_site_label_1
_geom_bond_atom_site_label_2
_geom_bond_site_symmetry_1
_geom_bond_site_symmetry_2
Hg1 Cl1 1_555 1_555
Hg2 Cl2 1_555 1_555
Cl3 Hg2 1_555 1_555
O1 Hg2 1_555 1_555
O2 Hg1 1_555 1_555
C1 O1 1_555 1_555
C2 C1 1_555 1_555
N1 C2 1_555 1_555
C3 N1 1_555 1_555
C4 C3 1_555 1_555
C5 C4 1_555 1_555
C6 C5 1_555 1_555
C7 N1 1_555 1_555
Cl1A Hg1 1_555 1_555
O1A C1A 1_555 1_555
O2A Hg1 1_555 1_555
C1A O2A 1_555 1_555
C2A C1A 1_555 1_555
N1A C2A 1_555 1_555
C3A N1A 1_555 1_555
C4A C3A 1_555 1_555
C5A C4A 1_555 1_555
C6A C5A 1_555 1_555
C7A N1A 1_555 1_555
Hg2A O1A 1_555 1_555
Cl2A Hg2A 1_555 1_555
Cl3A Hg2A 1_555 1_555
O1A_2 Hg2 1_555 1_555
Hg2A_2 O1 1_555 1_555
Hg2_2 O1A 1_555 1_555
O1_2 Hg2A 1_555 1_555
Hg2 O2 1_555 1_555
O2 C1 1_555 1_555
C6 C7 1_555 1_555
O2A Hg2A 1_555 1_555
C6A C7A 1_555 1_555
O1A_2 Hg2A_2 1_555 1_555
Hg2_2 O1_2 1_555 1_555

#END
