
#######################################################################
#
#                 Cambridge Crystallographic Data Centre
#                                CCDC 
#
#######################################################################
#
# If this CIF has been generated from an entry in the Cambridge 
# Structural Database, then it will include bibliographic, chemical, 
# crystal, experimental, refinement or atomic coordinate data resulting 
# from the CCDC's data processing and validation procedures.
#
#######################################################################

data_JOTYEY
_symmetry_cell_setting           triclinic
_symmetry_space_group_name_H-M   'P -1'
_symmetry_Int_Tables_number      2
_space_group_name_Hall           '-P 1'
loop_
_symmetry_equiv_pos_site_id
_symmetry_equiv_pos_as_xyz
1 x,y,z
2 -x,-y,-z
_cell_length_a                   10.5932(6)
_cell_length_b                   11.2839(7)
_cell_length_c                   12.4946(7)
_cell_angle_alpha                104.453(3)
_cell_angle_beta                 97.774(3)
_cell_angle_gamma                101.699(3)
_cell_volume                     1388.73
loop_
_atom_site_label
_atom_site_type_symbol
_atom_site_fract_x
_atom_site_fract_y
_atom_site_fract_z
Pb1 Pb 0.482743(6) 0.574088(6) 0.193649(5)
Pb2 Pb 0.176552(6) 0.503792(7) -0.081590(5)
F1 F 0.34413(14) 0.93188(14) 0.50042(11)
F2 F 0.12901(14) 0.09016(13) -0.03010(12)
O1 O 0.46400(14) 0.79704(16) 0.31304(14)
O2 O 0.31352(14) 0.62897(13) 0.31065(11)
O3 O 0.28927(13) 0.39318(12) 0.04887(11)
O4 O 0.30791(15) 0.28634(13) -0.12014(11)
O5 O 0.24287(14) 0.66290(14) 0.09534(11)
O6 O 0.03357(15) 0.65324(16) 0.04092(13)
O7 O 0.57486(13) 0.40025(12) 0.06286(11)
O8 O 0.70517(14) 0.30019(14) 0.13763(13)
O9 O -0.03820(19) 0.51347(18) -0.23777(17)
H1 H -0.0427(13) 0.5864(5) -0.2029(13)
H2 H -0.1099(8) 0.4603(8) -0.2694(16)
N1 N 0.68778(17) 0.59057(15) 0.34015(13)
N2 N 0.45705(15) 0.41848(15) 0.30590(12)
C1 C 0.7969(2) 0.6832(2) 0.36253(17)
H3 H 0.7995 0.7438 0.3214
C2 C 0.9068(2) 0.6956(2) 0.44302(18)
H4 H 0.9838 0.7612 0.4550
C3 C 0.9007(2) 0.6103(2) 0.50434(19)
H5 H 0.9731 0.6172 0.5615
C4 C 0.7888(2) 0.5144(2) 0.48251(17)
H6 H 0.7841 0.4544 0.5242
C5 C 0.6833(2) 0.50531(19) 0.40006(15)
C6 C 0.5591(2) 0.40756(18) 0.37633(15)
C7 C 0.5463(3) 0.3097(2) 0.42618(18)
H7 H 0.6200 0.2999 0.4726
C8 C 0.4252(3) 0.2273(2) 0.4072(2)
H8 H 0.4144 0.1616 0.4426
C9 C 0.3196(2) 0.2395(2) 0.33738(18)
H9 H 0.2355 0.1831 0.3237
C10 C 0.3401(2) 0.3364(2) 0.28797(16)
H10 H 0.2681 0.3455 0.2390
C11 C 0.2455(2) 0.90727(19) 0.41078(17)
C12 C 0.1498(2) 0.9742(2) 0.42018(19)
H11 H 0.1534 1.0370 0.4880
C13 C 0.0499(2) 0.9479(2) 0.32977(19)
H12 H -0.0165 0.9932 0.3344
C14 C 0.0449(2) 0.8560(2) 0.23162(18)
H13 H -0.0255 0.8382 0.1696
C15 C 0.14153(19) 0.78950(17) 0.22271(15)
C16 C 0.24440(18) 0.81555(17) 0.31441(15)
C17 C 0.34923(19) 0.74300(19) 0.31325(15)
C18 C 0.13798(19) 0.69495(18) 0.11241(15)
C19 C 0.3911(2) -0.0014(2) 0.11627(18)
H14 H 0.4049 -0.0681 0.1466
C20 C 0.2674(2) -0.0052(2) 0.06227(18)
H15 H 0.1955 -0.0750 0.0530
C21 C 0.2508(2) 0.0944(2) 0.02222(17)
C22 C 0.35060(18) 0.19828(17) 0.03081(14)
C23 C 0.47638(18) 0.19931(17) 0.08417(14)
C24 C 0.4943(2) 0.09882(19) 0.12621(17)
H16 H 0.5796 0.1000 0.1624
C25 C 0.59300(18) 0.30561(18) 0.09583(15)
C26 C 0.31646(18) 0.30160(17) -0.01681(15)
Pb1A Pb 0.517257(6) 0.425912(6) -0.193649(5)
Pb2A Pb -0.176552(6) 0.496208(7) 0.081590(5)
Pb2A_2 Pb 0.823448(6) 0.496208(7) 0.081590(5)
O4A O 0.69209(15) 0.71366(13) 0.12014(11)
O6A O -0.03357(15) 0.34676(16) -0.04092(13)
O7A O 0.42514(13) 0.59975(12) -0.06286(11)
O8A O 0.29483(14) 0.69981(14) -0.13763(13)
O10 O 0.29759(18) 0.05185(17) -0.27745(14)
H17 H 0.3674(5) 0.0685(16) -0.3016(7)
H18 H 0.2876(9) 0.1058(10) -0.2216(7)
O11 O 1.1655(2) 0.8060(2) 0.70018(18)
H19 H 1.1966(12) 0.8178(8) 0.6443(5)
H20 H 1.1995(12) 0.7633(7) 0.7369(6)
O12 O 0.0334(2) 0.2279(3) 0.1818(2)
H21 H 0.0122(13) 0.2293(13) 0.1147(5)
H22 H -0.0288(7) 0.215(2) 0.2173(6)
loop_
_geom_bond_atom_site_label_1
_geom_bond_atom_site_label_2
_geom_bond_site_symmetry_1
_geom_bond_site_symmetry_2
Pb1 O1 1_555 1_555
Pb2 O3 1_555 1_555
F1 C11 1_555 1_555
F2 C21 1_555 1_555
O1 C17 1_555 1_555
O2 Pb1 1_555 1_555
O3 Pb1 1_555 1_555
O4 C26 1_555 1_555
O5 Pb2 1_555 1_555
O6 Pb2 1_555 1_555
O7 Pb1 1_555 1_555
O8 C25 1_555 1_555
O9 Pb2 1_555 1_555
H1 O9 1_555 1_555
H2 O9 1_555 1_555
N1 Pb1 1_555 1_555
N2 Pb1 1_555 1_555
C1 N1 1_555 1_555
H3 C1 1_555 1_555
C2 C1 1_555 1_555
H4 C2 1_555 1_555
C3 C2 1_555 1_555
H5 C3 1_555 1_555
C4 C3 1_555 1_555
H6 C4 1_555 1_555
C5 N1 1_555 1_555
C6 N2 1_555 1_555
C7 C6 1_555 1_555
H7 C7 1_555 1_555
C8 C7 1_555 1_555
H8 C8 1_555 1_555
C9 C8 1_555 1_555
H9 C9 1_555 1_555
C10 N2 1_555 1_555
H10 C10 1_555 1_555
C11 C12 1_555 1_555
C12 H11 1_555 1_555
C13 C12 1_555 1_555
H12 C13 1_555 1_555
C14 C13 1_555 1_555
H13 C14 1_555 1_555
C15 C14 1_555 1_555
C16 C11 1_555 1_555
C17 O2 1_555 1_555
C18 O5 1_555 1_555
C19 H14 1_555 1_555
C20 C19 1_555 1_555
H15 C20 1_555 1_555
C21 C20 1_555 1_555
C22 C21 1_555 1_555
C23 C22 1_555 1_555
C24 C19 1_555 1_555
H16 C24 1_555 1_555
C25 O7 1_555 1_555
C26 O3 1_555 1_555
O10 H17 1_555 1_555
H18 O10 1_555 1_555
O11 H19 1_555 1_555
H20 O11 1_555 1_555
O12 H21 1_555 1_555
H22 O12 1_555 1_555
Pb1A O4 1_555 1_555
Pb2A O6 1_555 1_555
Pb2A_2 O7 1_555 1_555
O4A Pb1 1_555 1_555
O6A Pb2 1_555 1_555
O7A Pb2 1_555 1_555
O8A Pb2 1_555 1_555
O6 C18 1_555 1_555
O8 Pb2A_2 1_555 1_555
C4 C5 1_555 1_555
C5 C6 1_555 1_555
C9 C10 1_555 1_555
C15 C16 1_555 1_555
C15 C18 1_555 1_555
C16 C17 1_555 1_555
C22 C26 1_555 1_555
C23 C24 1_555 1_555
C23 C25 1_555 1_555
Pb1A O7A 1_555 1_555
Pb2A O6A 1_555 1_555

#END
