
#######################################################################
#
#                 Cambridge Crystallographic Data Centre
#                                CCDC 
#
#######################################################################
#
# If this CIF has been generated from an entry in the Cambridge 
# Structural Database, then it will include bibliographic, chemical, 
# crystal, experimental, refinement or atomic coordinate data resulting 
# from the CCDC's data processing and validation procedures.
#
#######################################################################

data_JOVCII
_symmetry_cell_setting           monoclinic
_symmetry_space_group_name_H-M   'P 21/c'
_symmetry_Int_Tables_number      14
_space_group_name_Hall           '-P 2ybc'
loop_
_symmetry_equiv_pos_site_id
_symmetry_equiv_pos_as_xyz
1 x,y,z
2 -x,1/2+y,1/2-z
3 -x,-y,-z
4 x,1/2-y,1/2+z
_cell_length_a                   8.2952(7)
_cell_length_b                   12.5326(6)
_cell_length_c                   13.6203(7)
_cell_angle_alpha                90
_cell_angle_beta                 105.379(6)
_cell_angle_gamma                90
_cell_volume                     1365.27
loop_
_atom_site_label
_atom_site_type_symbol
_atom_site_fract_x
_atom_site_fract_y
_atom_site_fract_z
Co1 Co 1.0000 0.0000 1.0000
O1 O 0.9923(3) -0.12725(16) 1.09984(15)
O2 O 1.2599(3) -0.01979(18) 1.04088(17)
H1 H 1.3037 0.0231 1.0024
H2 H 1.3175 -0.0872 1.0387
O3 O 0.7837(5) -0.49924(19) 1.09056(19)
H3 H 0.7610 -0.5214 1.0318
N1 N 0.9665(3) -0.3863(2) 1.37643(18)
O4 O 0.7230(3) -0.1237(2) 1.1020(2)
O5 O 0.7861(5) -0.3438(2) 1.01596(18)
C1 C 0.8731(4) -0.3520(2) 1.1959(2)
C2 C 0.8105(5) -0.3962(3) 1.0910(2)
C3 C 0.9988(4) -0.2821(2) 1.3906(2)
H4 H 1.0429 -0.2574 1.4567
C4 C 0.9701(5) -0.2097(3) 1.3121(2)
H5 H 0.9940 -0.1380 1.3261
C5 C 0.9042(4) -0.4189(2) 1.2796(2)
H6 H 0.8805 -0.4911 1.2682
C6 C 0.8696(5) -0.1590(2) 1.1287(2)
C7 C 0.9057(4) -0.2428(2) 1.2123(2)
O1B O 1.0077(3) 0.12725(16) 0.90016(15)
O2B O 0.7401(3) 0.01979(18) 0.95912(17)
H1B H 0.6963 -0.0231 0.9976
H2B H 0.6825 0.0872 0.9613
O3B O 1.2163(5) 0.49924(19) 0.90944(19)
H3B H 1.2390 0.5214 0.9682
N1B N 1.0335(3) 0.3863(2) 0.62357(18)
O4B O 1.2770(3) 0.1237(2) 0.8980(2)
O5B O 1.2139(5) 0.3438(2) 0.98404(18)
C1B C 1.1269(4) 0.3520(2) 0.8041(2)
C2B C 1.1895(5) 0.3962(3) 0.9090(2)
C3B C 1.0012(4) 0.2821(2) 0.6094(2)
H4B H 0.9571 0.2574 0.5433
C4B C 1.0299(5) 0.2097(3) 0.6879(2)
H5B H 1.0060 0.1380 0.6739
C5B C 1.0958(4) 0.4189(2) 0.7204(2)
H6B H 1.1195 0.4911 0.7318
C6B C 1.1304(5) 0.1590(2) 0.8713(2)
C7B C 1.0943(4) 0.2428(2) 0.7877(2)
Co1A Co 1.0000 -0.5000 1.5000
Co1A_2 Co 1.0000 0.5000 0.5000
N1A N 1.0335(3) 0.1137(2) 1.12357(18)
N1C N 0.9665(3) -0.1137(2) 0.87643(18)
S1 S 1.30273(18) -0.46653(11) 1.18150(9)
O6 O 1.3167(5) -0.4121(2) 1.0848(2)
C8 C 1.3919(8) -0.3750(6) 1.2782(4)
H7 H 1.3194 -0.3144 1.2733
H8 H 1.4985 -0.3521 1.2708
H9 H 1.4065 -0.4085 1.3434
C9 C 1.4576(7) -0.5658(4) 1.2082(4)
H10 H 1.4255 -0.6231 1.1602
H11 H 1.4702 -0.5925 1.2759
H12 H 1.5618 -0.5361 1.2031
O7 O 1.4056(4) -0.2110(2) 1.0250(3)
H13 H 1.3910 -0.2731 1.0468
H14 H 1.5102 -0.1980 1.0461
loop_
_geom_bond_atom_site_label_1
_geom_bond_atom_site_label_2
_geom_bond_site_symmetry_1
_geom_bond_site_symmetry_2
Co1 O1 1_555 1_555
O1 C6 1_555 1_555
O2 Co1 1_555 1_555
H1 O2 1_555 1_555
H2 O2 1_555 1_555
O3 H3 1_555 1_555
N1 C3 1_555 1_555
O4 C6 1_555 1_555
O5 C2 1_555 1_555
C1 C2 1_555 1_555
C2 O3 1_555 1_555
C3 H4 1_555 1_555
C4 C3 1_555 1_555
H5 C4 1_555 1_555
C5 N1 1_555 1_555
H6 C5 1_555 1_555
C6 C7 1_555 1_555
C7 C1 1_555 1_555
S1 O6 1_555 1_555
C8 S1 1_555 1_555
H7 C8 1_555 1_555
H8 C8 1_555 1_555
H9 C8 1_555 1_555
C9 S1 1_555 1_555
H10 C9 1_555 1_555
H11 C9 1_555 1_555
H12 C9 1_555 1_555
O7 H13 1_555 1_555
H14 O7 1_555 1_555
O1B Co1 1_555 1_555
O2B Co1 1_555 1_555
H1B O2B 1_555 1_555
H2B O2B 1_555 1_555
O3B H3B 1_555 1_555
N1B C3B 1_555 1_555
O4B C6B 1_555 1_555
O5B C2B 1_555 1_555
C1B C2B 1_555 1_555
C2B O3B 1_555 1_555
C3B H4B 1_555 1_555
C4B C3B 1_555 1_555
H5B C4B 1_555 1_555
C5B N1B 1_555 1_555
H6B C5B 1_555 1_555
C6B O1B 1_555 1_555
C7B C1B 1_555 1_555
Co1A N1 1_555 1_555
Co1A_2 N1B 1_555 1_555
N1A Co1 1_555 1_555
N1C Co1 1_555 1_555
C1 C5 1_555 1_555
C4 C7 1_555 1_555
C1B C5B 1_555 1_555
C4B C7B 1_555 1_555
C6B C7B 1_555 1_555

#END
