
#######################################################################
#
#                 Cambridge Crystallographic Data Centre
#                                CCDC 
#
#######################################################################
#
# If this CIF has been generated from an entry in the Cambridge 
# Structural Database, then it will include bibliographic, chemical, 
# crystal, experimental, refinement or atomic coordinate data resulting 
# from the CCDC's data processing and validation procedures.
#
#######################################################################

data_JOVCEE
_symmetry_cell_setting           monoclinic
_symmetry_space_group_name_H-M   'P 21/n'
_symmetry_Int_Tables_number      14
_space_group_name_Hall           '-P 2yn'
loop_
_symmetry_equiv_pos_site_id
_symmetry_equiv_pos_as_xyz
1 x,y,z
2 1/2-x,1/2+y,1/2-z
3 -x,-y,-z
4 1/2+x,1/2-y,1/2+z
_cell_length_a                   8.8311(7)
_cell_length_b                   11.0546(7)
_cell_length_c                   12.8617(7)
_cell_angle_alpha                90
_cell_angle_beta                 104.586(7)
_cell_angle_gamma                90
_cell_volume                     1215.15
loop_
_atom_site_label
_atom_site_type_symbol
_atom_site_fract_x
_atom_site_fract_y
_atom_site_fract_z
Cu1 Cu 1 0.000 1
O1 O 0.6148(3) -0.5397(2) 0.92451(18)
H1 H 0.6427 -0.5726 0.9834
O2 O 0.8810(3) -0.1350(2) 0.91704(16)
N1 N 0.5643(3) -0.3930(2) 0.62958(19)
C1 C 0.7374(5) -0.1609(3) 0.9029(2)
C2 C 0.6432(4) -0.3701(3) 0.8213(2)
O3 O 0.7640(4) -0.3886(3) 1.00780(19)
O4 O 1.2179(3) -0.0723(3) 0.9284(2)
H2 H 1.2926 -0.0268 0.9689
H3 H 1.2671 -0.1332 0.9402
O5 O 0.6425(4) -0.1186(3) 0.9474(2)
C3 C 0.6797(4) -0.4320(3) 0.9291(2)
C4 C 0.5843(4) -0.4384(3) 0.7291(2)
H4 H 0.5576 -0.5187 0.7366
C5 C 0.6779(4) -0.2489(3) 0.8106(2)
C6 C 0.6543(4) -0.2032(3) 0.7074(2)
H5 H 0.6759 -0.1223 0.6974
C7 C 0.5993(4) -0.2765(3) 0.6198(2)
H6 H 0.586 -0.2441 0.5514
O1B O 1.3852(3) 0.5397(2) 1.07549(18)
H1B H 1.3573 0.5726 1.0166
O2B O 1.1190(3) 0.1350(2) 1.08296(16)
N1B N 1.4357(3) 0.3930(2) 1.37042(19)
C1B C 1.2626(5) 0.1609(3) 1.0971(2)
C2B C 1.3568(4) 0.3701(3) 1.1787(2)
O3B O 1.2360(4) 0.3886(3) 0.99220(19)
O4B O 0.7821(3) 0.0723(3) 1.0716(2)
H2B H 0.7074 0.0268 1.0311
H3B H 0.7329 0.1332 1.0598
O5B O 1.3575(4) 0.1186(3) 1.0526(2)
C3B C 1.3203(4) 0.4320(3) 1.0709(2)
C4B C 1.4157(4) 0.4384(3) 1.2709(2)
H4B H 1.4424 0.5187 1.2634
C5B C 1.3221(4) 0.2489(3) 1.1894(2)
C6B C 1.3457(4) 0.2032(3) 1.2926(2)
H5B H 1.3241 0.1223 1.3026
C7B C 1.4007(4) 0.2765(3) 1.3802(2)
H6B H 1.414 0.2441 1.4486
Cu1A Cu 0.5 -0.500 0.5
Cu1A_2 Cu 1.5 0.500 1.5
N1A N 0.9357(3) 0.1070(2) 0.87042(19)
N1C N 1.0643(3) -0.1070(2) 1.12958(19)
S1 S 1.23201(13) -0.37971(10) 0.79654(8)
C8 C 1.2095(7) -0.2572(5) 0.7063(4)
H7 H 1.3107 -0.2293 0.7019
H8 H 1.1551 -0.1926 0.7313
H9 H 1.1506 -0.2828 0.6365
O6 O 1.2886(4) -0.3263(3) 0.9065(2)
C9 C 1.0378(7) -0.4113(8) 0.7846(6)
H10 H 1.0291 -0.4777 0.8308
H11 H 0.9884 -0.4323 0.7115
H12 H 0.9873 -0.3414 0.8049
loop_
_geom_bond_atom_site_label_1
_geom_bond_atom_site_label_2
_geom_bond_site_symmetry_1
_geom_bond_site_symmetry_2
Cu1 O2 1_555 1_555
O1 H1 1_555 1_555
O2 C1 1_555 1_555
N1 C4 1_555 1_555
C1 O5 1_555 1_555
C2 C3 1_555 1_555
O3 C3 1_555 1_555
O4 Cu1 1_555 1_555
H2 O4 1_555 1_555
H3 O4 1_555 1_555
C3 O1 1_555 1_555
C4 C2 1_555 1_555
H4 C4 1_555 1_555
C5 C1 1_555 1_555
C6 C5 1_555 1_555
H5 C6 1_555 1_555
C7 N1 1_555 1_555
H6 C7 1_555 1_555
S1 C8 1_555 1_555
C8 H7 1_555 1_555
H8 C8 1_555 1_555
H9 C8 1_555 1_555
O6 S1 1_555 1_555
C9 S1 1_555 1_555
H10 C9 1_555 1_555
H11 C9 1_555 1_555
H12 C9 1_555 1_555
O1B H1B 1_555 1_555
O2B Cu1 1_555 1_555
N1B C4B 1_555 1_555
C1B O2B 1_555 1_555
C2B C3B 1_555 1_555
O3B C3B 1_555 1_555
O4B Cu1 1_555 1_555
H2B O4B 1_555 1_555
H3B O4B 1_555 1_555
O5B C1B 1_555 1_555
C3B O1B 1_555 1_555
C4B C2B 1_555 1_555
H4B C4B 1_555 1_555
C5B C1B 1_555 1_555
C6B C5B 1_555 1_555
H5B C6B 1_555 1_555
C7B N1B 1_555 1_555
H6B C7B 1_555 1_555
Cu1A N1 1_555 1_555
Cu1A_2 N1B 1_555 1_555
N1A Cu1 1_555 1_555
N1C Cu1 1_555 1_555
C2 C5 1_555 1_555
C6 C7 1_555 1_555
C2B C5B 1_555 1_555
C6B C7B 1_555 1_555

#END
