
#######################################################################
#
#                 Cambridge Crystallographic Data Centre
#                                CCDC 
#
#######################################################################
#
# If this CIF has been generated from an entry in the Cambridge 
# Structural Database, then it will include bibliographic, chemical, 
# crystal, experimental, refinement or atomic coordinate data resulting 
# from the CCDC's data processing and validation procedures.
#
#######################################################################

data_JOVDUT
_symmetry_cell_setting           monoclinic
_symmetry_space_group_name_H-M   'P 21/c'
_symmetry_Int_Tables_number      14
_space_group_name_Hall           '-P 2ybc'
loop_
_symmetry_equiv_pos_site_id
_symmetry_equiv_pos_as_xyz
1 x,y,z
2 -x,1/2+y,1/2-z
3 -x,-y,-z
4 x,1/2-y,1/2+z
_cell_length_a                   9.543(1)
_cell_length_b                   9.828(1)
_cell_length_c                   9.926(1)
_cell_angle_alpha                90
_cell_angle_beta                 118.63(1)
_cell_angle_gamma                90
_cell_volume                     817.121
loop_
_atom_site_label
_atom_site_type_symbol
_atom_site_fract_x
_atom_site_fract_y
_atom_site_fract_z
Eu1 Eu 0.23988(1) 0.44752(1) 0.87119(1)
O1 O 0.5111(2) 0.5952(2) 0.9094(2)
O2 O 0.1750(2) 0.5823(2) 0.6395(2)
O3 O 0.2530(2) 0.8167(2) 0.4506(2)
O4 O 0.6183(2) 0.8329(2) 0.7409(2)
O5 O -0.0300(2) 0.5156(2) 0.8130(2)
O6 O -0.1996(2) 0.5491(2) 0.9058(2)
O7 O 0.0425(2) 0.3281(2) 0.6438(2)
O8 O 0.2078(3) 0.2126(2) 0.9308(2)
C1 C 0.4522(2) 0.6605(2) 0.7854(2)
C2 C 0.2933(2) 0.6532(2) 0.6583(2)
C3 C 0.3310(2) 0.7580(2) 0.5768(2)
C4 C 0.4956(2) 0.7653(2) 0.7073(2)
C5 C -0.0668(2) 0.5193(2) 0.9188(2)
H1 H -0.041 0.271 0.641
H2 H 0.000 0.375 0.555
H3 H 0.166 0.125 0.889
H4 H 0.270 0.188 1.027
C5B C 0.0668(2) 0.4807(2) 1.0812(2)
O5B O 0.0300(2) 0.4844(2) 1.1870(2)
O6B O 0.1996(2) 0.4509(2) 1.0942(2)
O1B O 0.4889(2) 0.4048(2) 1.0906(2)
O2B O 0.8250(2) 0.4177(2) 1.3605(2)
O3B O 0.7470(2) 0.1833(2) 1.5494(2)
O4B O 0.3817(2) 0.1671(2) 1.2591(2)
C1B C 0.5478(2) 0.3395(2) 1.2146(2)
C2B C 0.7067(2) 0.3468(2) 1.3417(2)
C3B C 0.6690(2) 0.2420(2) 1.4232(2)
C4B C 0.5044(2) 0.2347(2) 1.2927(2)
Eu1B Eu 0.76012(1) 0.55248(1) 1.12881(1)
O7B O 0.9575(2) 0.6719(2) 1.3562(2)
H1B H 1.041 0.729 1.359
H2B H 1.000 0.625 1.445
O8B O 0.7922(3) 0.7874(2) 1.0692(2)
H3B H 0.834 0.875 1.111
H4B H 0.730 0.812 0.973
O3C O 0.2530(2) 0.6833(2) 0.9506(2)
O4A O 0.3817(2) 0.3329(2) 0.7591(2)
Eu1C Eu 0.23988(1) 1.05248(1) 0.37119(1)
Eu1A Eu 0.76012(1) 0.94752(1) 0.62881(1)
Eu1B_2 Eu -0.23988(1) 0.55248(1) 1.12881(1)
Eu1A_2 Eu 0.76012(1) -0.05248(1) 1.62881(1)
Eu1C_2 Eu 0.23988(1) 0.05248(1) 1.37119(1)
O3A O 0.7470(2) 0.3167(2) 1.0494(2)
O4C O 0.6183(2) 0.6671(2) 1.2409(2)
O5B_2 O 1.0300(2) 0.4844(2) 1.1870(2)
O6_2 O 0.8004(2) 0.5491(2) 0.9058(2)
loop_
_geom_bond_atom_site_label_1
_geom_bond_atom_site_label_2
_geom_bond_site_symmetry_1
_geom_bond_site_symmetry_2
Eu1 O1 1_555 1_555
O1 C1 1_555 1_555
O2 Eu1 1_555 1_555
O3 C3 1_555 1_555
O4 C4 1_555 1_555
O5 Eu1 1_555 1_555
O6 C5 1_555 1_555
O7 Eu1 1_555 1_555
O8 Eu1 1_555 1_555
C1 C2 1_555 1_555
C2 O2 1_555 1_555
C3 C2 1_555 1_555
C4 C1 1_555 1_555
C5 O5 1_555 1_555
H1 O7 1_555 1_555
H2 O7 1_555 1_555
H3 O8 1_555 1_555
H4 O8 1_555 1_555
C5B C5 1_555 1_555
O5B C5B 1_555 1_555
O6B Eu1 1_555 1_555
O1B Eu1 1_555 1_555
O2B C2B 1_555 1_555
O3B C3B 1_555 1_555
O4B C4B 1_555 1_555
C1B O1B 1_555 1_555
C2B C1B 1_555 1_555
C3B C2B 1_555 1_555
C4B C1B 1_555 1_555
Eu1B O1 1_555 1_555
O7B Eu1B 1_555 1_555
H1B O7B 1_555 1_555
H2B O7B 1_555 1_555
O8B Eu1B 1_555 1_555
H3B O8B 1_555 1_555
H4B O8B 1_555 1_555
O3C Eu1 1_555 1_555
O4A Eu1 1_555 1_555
Eu1C O3 1_555 1_555
Eu1A O4 1_555 1_555
Eu1B_2 O6 1_555 1_555
Eu1A_2 O3B 1_555 1_555
Eu1C_2 O4B 1_555 1_555
O3A Eu1B 1_555 1_555
O4C Eu1B 1_555 1_555
O5B_2 Eu1B 1_555 1_555
O6_2 Eu1B 1_555 1_555
C3 C4 1_555 1_555
C5B O6B 1_555 1_555
O5B Eu1B_2 1_555 1_555
O1B Eu1B 1_555 1_555
O2B Eu1B 1_555 1_555
C3B C4B 1_555 1_555

#END
