
#######################################################################
#
#                 Cambridge Crystallographic Data Centre
#                                CCDC 
#
#######################################################################
#
# If this CIF has been generated from an entry in the Cambridge 
# Structural Database, then it will include bibliographic, chemical, 
# crystal, experimental, refinement or atomic coordinate data resulting 
# from the CCDC's data processing and validation procedures.
#
#######################################################################

data_JOVKIQ
_symmetry_cell_setting           triclinic
_symmetry_space_group_name_H-M   'P -1'
_symmetry_Int_Tables_number      2
_space_group_name_Hall           '-P 1'
loop_
_symmetry_equiv_pos_site_id
_symmetry_equiv_pos_as_xyz
1 x,y,z
2 -x,-y,-z
_cell_length_a                   12.9640(2)
_cell_length_b                   14.7824(2)
_cell_length_c                   17.7705(3)
_cell_angle_alpha                75.4610(10)
_cell_angle_beta                 77.9370(10)
_cell_angle_gamma                75.7810(10)
_cell_volume                     3155.84
loop_
_atom_site_label
_atom_site_type_symbol
_atom_site_fract_x
_atom_site_fract_y
_atom_site_fract_z
C1 C 0.11830(19) 0.97027(16) 0.73440(14)
C2 C 0.1650(2) 0.87892(16) 0.77499(14)
C3 C 0.1502(2) 0.79922(18) 0.75352(16)
H1 H 0.1831 0.7374 0.7790
C4 C 0.0893(3) 0.80736(19) 0.69644(17)
H2 H 0.0807 0.7519 0.6826
C5 C 0.0407(2) 0.89699(19) 0.65937(17)
H3 H -0.0023 0.9026 0.6206
C6 C 0.0537(2) 0.97919(17) 0.67784(15)
C7 C -0.0027(2) 1.07411(17) 0.63705(16)
C8 C 0.0290(2) 1.10807(17) 0.55663(16)
C9 C -0.0301(2) 1.19261(19) 0.51841(19)
H4 H -0.0082 1.2152 0.4638
C10 C -0.1194(2) 1.24490(19) 0.5570(2)
C11 C -0.1485(2) 1.2113(2) 0.6369(2)
H5 H -0.2086 1.2473 0.6647
C12 C -0.0928(2) 1.12671(19) 0.67777(18)
C13 C 0.1262(2) 1.0548(2) 0.51097(17)
H6 H 0.1085 0.9985 0.5011
H7 H 0.1858 1.0346 0.5415
H8 H 0.1475 1.0967 0.4607
C14 C -0.1841(3) 1.3350(2) 0.5142(2)
H9 H -0.1450 1.3542 0.4613
H10 H -0.1954 1.3859 0.5432
H11 H -0.2540 1.3236 0.5104
C15 C -0.1313(2) 1.0908(2) 0.76387(19)
H12 H -0.2005 1.1311 0.7802
H13 H -0.0782 1.0931 0.7950
H14 H -0.1402 1.0248 0.7723
C16 C 0.2231(2) 0.86507(16) 0.84222(15)
C17 C 0.1636(2) 0.88051(18) 0.91511(16)
C18 C 0.2165(3) 0.8585(2) 0.98024(18)
H15 H 0.1762 0.8693 1.0295
C19 C 0.3260(3) 0.8215(2) 0.97504(19)
C20 C 0.3832(3) 0.8081(2) 0.9026(2)
H16 H 0.4588 0.7839 0.8980
C21 C 0.3341(2) 0.82903(19) 0.83587(17)
C22 C 0.0436(2) 0.9174(2) 0.92484(17)
H17 H 0.0281 0.9853 0.8997
H18 H 0.0140 0.9092 0.9810
H19 H 0.0105 0.8817 0.9002
C23 C 0.3805(4) 0.7947(3) 1.0475(2)
H20 H 0.3836 0.7268 1.0712
H21 H 0.3394 0.8331 1.0857
H22 H 0.4538 0.8069 1.0324
C24 C 0.4009(3) 0.8132(3) 0.7587(2)
H23 H 0.4772 0.8070 0.7614
H24 H 0.3790 0.8676 0.7167
H25 H 0.3903 0.7547 0.7476
C25 C 0.30191(19) 1.37906(16) 0.72830(15)
C26 C 0.2485(2) 1.44398(18) 0.77710(17)
C27 C 0.2704(3) 1.5351(2) 0.7579(2)
H26 H 0.2337 1.5792 0.7902
C28 C 0.3445(3) 1.5634(2) 0.6927(2)
H27 H 0.3569 1.6266 0.6795
C29 C 0.3997(3) 1.4980(2) 0.6477(2)
H28 H 0.4517 1.5164 0.6037
C30 C 0.3812(2) 1.40536(17) 0.66516(17)
C31 C 0.44812(19) 1.33801(17) 0.61497(16)
C32 C 0.5287(2) 1.26380(18) 0.64507(16)
C33 C 0.5944(2) 1.20555(19) 0.59561(18)
H29 H 0.6493 1.1552 0.6159
C34 C 0.5819(2) 1.21901(19) 0.51793(18)
C35 C 0.5018(2) 1.29300(19) 0.48962(17)
H30 H 0.4921 1.3031 0.4364
C36 C 0.4353(2) 1.35297(17) 0.53669(16)
C37 C 0.5459(3) 1.2473(2) 0.72874(19)
H31 H 0.5608 1.3051 0.7380
H32 H 0.6072 1.1942 0.7386
H33 H 0.4810 1.2317 0.7643
C38 C 0.6537(3) 1.1544(2) 0.4653(2)
C39 C 0.3506(2) 1.4339(2) 0.5013(2)
H34 H 0.3761 1.4939 0.4890
H35 H 0.2836 1.4388 0.5390
H36 H 0.3376 1.4212 0.4529
C40 C 0.1689(2) 1.41908(17) 0.84859(15)
C41 C 0.0605(2) 1.46236(18) 0.85081(16)
C42 C -0.0117(2) 1.4393(2) 0.91910(18)
H37 H -0.0857 1.4688 0.9205
C43 C 0.0212(3) 1.3749(2) 0.98453(17)
C44 C 0.1299(3) 1.3358(2) 0.98209(18)
H38 H 0.1542 1.2927 1.0274
C45 C 0.2043(2) 1.3574(2) 0.91576(17)
C46 C 0.0171(3) 1.5348(2) 0.7826(2)
H39 H -0.0544 1.5263 0.7795
H40 H 0.0658 1.5259 0.7336
H41 H 0.0117 1.5992 0.7903
C47 C -0.0596(3) 1.3478(3) 1.0567(2)
H42 H -0.1084 1.4056 1.0699
H43 H -0.0215 1.3134 1.1010
H44 H -0.1013 1.3067 1.0459
C48 C 0.3228(3) 1.3164(3) 0.9165(2)
H45 H 0.3341 1.2810 0.9697
H46 H 0.3627 1.3683 0.9005
H47 H 0.3487 1.2731 0.8798
C49 C 0.1345(2) 1.3028(2) 0.56000(16)
H48 H 0.1820 1.2498 0.5418
C50 C 0.0923(2) 1.3800(2) 0.50481(16)
H49 H 0.1112 1.3790 0.4504
C51 C 0.0236(2) 1.45758(16) 0.52835(14)
C52 C 0.0007(4) 1.4528(3) 0.60725(19)
H50 H -0.0469 1.5044 0.6272
C53 C 0.0462(4) 1.3734(2) 0.65854(19)
H51 H 0.0284 1.3727 0.7133
C54 C 0.2911(3) 1.0847(3) 0.93117(19)
H52 H 0.2171 1.1104 0.9462
C55 C 0.3563(3) 1.0540(3) 0.98854(19)
H53 H 0.3267 1.0593 1.0413
C56 C 0.4634(2) 1.01604(17) 0.96991(15)
C57 C 0.4985(3) 1.0098(3) 0.89345(19)
H54 H 0.5719 0.9830 0.8773
C58 C 0.4285(3) 1.0419(3) 0.83904(18)
H55 H 0.4559 1.0359 0.7862
N1 N 0.11216(17) 1.29902(14) 0.63645(12)
N2 N 0.32569(18) 1.08031(14) 0.85648(12)
O1 O 0.13560(13) 1.04848(11) 0.75107(10)
O2 O 0.27622(12) 1.29225(10) 0.74238(9)
Th1 Th 0.20587(2) 1.16920(2) 0.74570(2)
B1 B 0.0344(3) 1.2154(2) 0.85176(18)
B2 B 0.3505(3) 1.1009(2) 0.6318(2)
H56 H 0.014(2) 1.215(2) 0.7919(19)
H57 H 0.263(3) 1.109(2) 0.6220(18)
H58 H 0.406(2) 1.074(2) 0.5850(19)
H59 H -0.035(3) 1.230(2) 0.8930(19)
H60 H 0.078(3) 1.145(2) 0.8696(19)
H61 H 0.088(3) 1.262(2) 0.8379(19)
H62 H 0.354(3) 1.051(3) 0.690(2)
H63 H 0.354(3) 1.174(3) 0.634(2)
C49A C -0.1345(2) 1.6972(2) 0.44000(16)
H48A H -0.1820 1.7502 0.4582
C50A C -0.0923(2) 1.6200(2) 0.49519(16)
H49A H -0.1112 1.6210 0.5496
C51A C -0.0236(2) 1.54242(16) 0.47165(14)
C52A C -0.0007(4) 1.5472(3) 0.39275(19)
H50A H 0.0469 1.4956 0.3728
C53A C -0.0462(4) 1.6266(2) 0.34146(19)
H51A H -0.0284 1.6273 0.2867
N1A N -0.11216(17) 1.70098(14) 0.36355(12)
C54A C 0.7089(3) 0.9153(3) 1.06883(19)
H52A H 0.7829 0.8896 1.0538
C55A C 0.6437(3) 0.9460(3) 1.01146(19)
H53A H 0.6733 0.9407 0.9587
C56A C 0.5366(2) 0.98396(17) 1.03009(15)
C57A C 0.5015(3) 0.9902(3) 1.10655(19)
H54A H 0.4281 1.0170 1.1227
C58A C 0.5715(3) 0.9581(3) 1.16096(18)
H55A H 0.5441 0.9641 1.2138
N2A N 0.67431(18) 0.91969(14) 1.14352(12)
C1A C -0.11830(19) 2.02973(16) 0.26560(14)
C2A C -0.1650(2) 2.12108(16) 0.22501(14)
C3A C -0.1502(2) 2.20078(18) 0.24648(16)
H1A H -0.1831 2.2626 0.2210
C4A C -0.0893(3) 2.19264(19) 0.30356(17)
H2A H -0.0807 2.2481 0.3174
C5A C -0.0407(2) 2.10301(19) 0.34063(17)
H3A H 0.0023 2.0974 0.3794
C6A C -0.0537(2) 2.02081(17) 0.32216(15)
C7A C 0.0027(2) 1.92589(17) 0.36295(16)
C8A C -0.0290(2) 1.89193(17) 0.44337(16)
C9A C 0.0301(2) 1.80739(19) 0.48159(19)
H4A H 0.0082 1.7848 0.5362
C10A C 0.1194(2) 1.75510(19) 0.4430(2)
C11A C 0.1485(2) 1.7887(2) 0.3631(2)
H5A H 0.2086 1.7527 0.3353
C12A C 0.0928(2) 1.87329(19) 0.32223(18)
C13A C -0.1262(2) 1.9452(2) 0.48903(17)
H6A H -0.1085 2.0015 0.4989
H7A H -0.1858 1.9654 0.4585
H8A H -0.1475 1.9033 0.5393
C14A C 0.1841(3) 1.6650(2) 0.4858(2)
H9A H 0.1450 1.6458 0.5387
H10A H 0.1954 1.6141 0.4568
H11A H 0.2540 1.6764 0.4896
C15A C 0.1313(2) 1.9092(2) 0.23613(19)
H12A H 0.2005 1.8689 0.2198
H13A H 0.0782 1.9069 0.2050
H14A H 0.1402 1.9752 0.2277
C16A C -0.2231(2) 2.13493(16) 0.15778(15)
C17A C -0.1636(2) 2.11949(18) 0.08489(16)
C18A C -0.2165(3) 2.1415(2) 0.01976(18)
H15A H -0.1762 2.1307 -0.0295
C19A C -0.3260(3) 2.1785(2) 0.02496(19)
C20A C -0.3832(3) 2.1919(2) 0.0974(2)
H16A H -0.4588 2.2161 0.1020
C21A C -0.3341(2) 2.17097(19) 0.16413(17)
C22A C -0.0436(2) 2.0826(2) 0.07516(17)
H17A H -0.0281 2.0147 0.1003
H18A H -0.0140 2.0908 0.0190
H19A H -0.0105 2.1183 0.0998
C23A C -0.3805(4) 2.2053(3) -0.0475(2)
H20A H -0.3836 2.2732 -0.0712
H21A H -0.3394 2.1669 -0.0857
H22A H -0.4538 2.1931 -0.0324
C24A C -0.4009(3) 2.1868(3) 0.2413(2)
H23A H -0.4772 2.1930 0.2386
H24A H -0.3790 2.1324 0.2833
H25A H -0.3903 2.2453 0.2524
C25A C -0.30191(19) 1.62094(16) 0.27170(15)
C26A C -0.2485(2) 1.55602(18) 0.22290(17)
C27A C -0.2704(3) 1.4649(2) 0.2421(2)
H26A H -0.2337 1.4208 0.2098
C28A C -0.3445(3) 1.4366(2) 0.3073(2)
H27A H -0.3569 1.3734 0.3205
C29A C -0.3997(3) 1.5020(2) 0.3523(2)
H28A H -0.4517 1.4836 0.3963
C30A C -0.3812(2) 1.59464(17) 0.33484(17)
C31A C -0.44812(19) 1.66199(17) 0.38503(16)
C32A C -0.5287(2) 1.73620(18) 0.35493(16)
C33A C -0.5944(2) 1.79445(19) 0.40439(18)
H29A H -0.6493 1.8448 0.3841
C34A C -0.5819(2) 1.78099(19) 0.48207(18)
C35A C -0.5018(2) 1.70700(19) 0.51038(17)
H30A H -0.4921 1.6969 0.5636
C36A C -0.4353(2) 1.64703(17) 0.46331(16)
C37A C -0.5459(3) 1.7527(2) 0.27126(19)
H31A H -0.5608 1.6949 0.2620
H32A H -0.6072 1.8058 0.2614
H33A H -0.4810 1.7683 0.2357
C38A C -0.6537(3) 1.8456(2) 0.5347(2)
C39A C -0.3506(2) 1.5661(2) 0.4987(2)
H34A H -0.3761 1.5061 0.5110
H35A H -0.2836 1.5612 0.4610
H36A H -0.3376 1.5788 0.5471
C40A C -0.1689(2) 1.58092(17) 0.15141(15)
C41A C -0.0605(2) 1.53764(18) 0.14919(16)
C42A C 0.0117(2) 1.5607(2) 0.08090(18)
H37A H 0.0857 1.5312 0.0795
C43A C -0.0212(3) 1.6251(2) 0.01547(17)
C44A C -0.1299(3) 1.6642(2) 0.01791(18)
H38A H -0.1542 1.7073 -0.0274
C45A C -0.2043(2) 1.6426(2) 0.08424(17)
C46A C -0.0171(3) 1.4652(2) 0.2174(2)
H39A H 0.0544 1.4737 0.2205
H40A H -0.0658 1.4741 0.2664
H41A H -0.0117 1.4008 0.2097
C47A C 0.0596(3) 1.6522(3) -0.0567(2)
H42A H 0.1084 1.5944 -0.0699
H43A H 0.0215 1.6866 -0.1010
H44A H 0.1013 1.6933 -0.0459
C48A C -0.3228(3) 1.6836(3) 0.0835(2)
H45A H -0.3341 1.7190 0.0303
H46A H -0.3627 1.6317 0.0995
H47A H -0.3487 1.7269 0.1202
O1A O -0.13560(13) 1.95152(11) 0.24893(10)
O2A O -0.27622(12) 1.70775(10) 0.25762(9)
Th1A Th -0.20587(2) 1.83080(2) 0.25430(2)
B1A B -0.0344(3) 1.7846(2) 0.14824(18)
B2A B -0.3505(3) 1.8991(2) 0.3682(2)
H56A H -0.014(2) 1.785(2) 0.2081(19)
H57A H -0.263(3) 1.891(2) 0.3780(18)
H58A H -0.406(2) 1.926(2) 0.4150(19)
H59A H 0.035(3) 1.770(2) 0.1070(19)
H60A H -0.078(3) 1.855(2) 0.1304(19)
H61A H -0.088(3) 1.738(2) 0.1621(19)
H62A H -0.354(3) 1.949(3) 0.310(2)
H63A H -0.354(3) 1.826(3) 0.366(2)
N2A_2 N -0.32569(18) 1.91969(14) 0.14352(12)
Th1A_2 Th 0.79413(2) 0.83080(2) 1.25430(2)
C59 C 0.6581(6) 0.4963(7) 0.9661(5)
H64 H 0.5851 0.5303 0.9828
H65 H 0.7105 0.5331 0.9682
H66 H 0.6723 0.4335 1.0012
C60 C 0.6678(5) 0.4842(5) 0.8839(4)
C61 C 0.7460(4) 0.4111(4) 0.8611(4)
H67 H 0.7916 0.3707 0.8968
C62 C 0.7583(5) 0.3963(4) 0.7860(4)
H68 H 0.8125 0.3462 0.7689
C63 C 0.6893(8) 0.4569(6) 0.7357(4)
H69 H 0.6913 0.4539 0.6827
C64 C 0.6105(8) 0.5283(6) 0.7789(10)
H70 H 0.5591 0.5705 0.7485
C65 C 0.6014(14) 0.5405(13) 0.8378(10)
H71 H 0.5472 0.5903 0.8552
C66 C 0.7918(5) 0.8068(6) 0.8047(3)
H72 H 0.7603 0.8590 0.8325
H73 H 0.8690 0.8050 0.7875
H74 H 0.7812 0.7461 0.8401
C67 C 0.7391(4) 0.8221(4) 0.7359(3)
C68 C 0.7380(4) 0.7476(4) 0.7038(4)
H75 H 0.7719 0.6846 0.7261
C69 C 0.6867(4) 0.7642(5) 0.6376(4)
H76 H 0.6884 0.7126 0.6143
C70 C 0.6358(4) 0.8521(5) 0.6075(3)
H77 H 0.6008 0.8633 0.5631
C71 C 0.6351(4) 0.9279(4) 0.6428(3)
H78 H 0.5980 0.9906 0.6229
C72 C 0.6862(3) 0.9115(3) 0.7037(3)
H79 H 0.6862 0.9637 0.7258
loop_
_geom_bond_atom_site_label_1
_geom_bond_atom_site_label_2
_geom_bond_site_symmetry_1
_geom_bond_site_symmetry_2
C1 C2 1_555 1_555
C2 C3 1_555 1_555
C3 H1 1_555 1_555
C4 C3 1_555 1_555
H2 C4 1_555 1_555
C5 C4 1_555 1_555
H3 C5 1_555 1_555
C6 C1 1_555 1_555
C7 C6 1_555 1_555
C8 C7 1_555 1_555
C9 C8 1_555 1_555
H4 C9 1_555 1_555
C10 C9 1_555 1_555
C11 C10 1_555 1_555
H5 C11 1_555 1_555
C12 C7 1_555 1_555
C13 C8 1_555 1_555
H6 C13 1_555 1_555
H7 C13 1_555 1_555
H8 C13 1_555 1_555
C14 C10 1_555 1_555
H9 C14 1_555 1_555
H10 C14 1_555 1_555
H11 C14 1_555 1_555
C15 C12 1_555 1_555
H12 C15 1_555 1_555
H13 C15 1_555 1_555
H14 C15 1_555 1_555
C16 C2 1_555 1_555
C17 C16 1_555 1_555
C18 C17 1_555 1_555
H15 C18 1_555 1_555
C19 C18 1_555 1_555
C20 C19 1_555 1_555
H16 C20 1_555 1_555
C21 C16 1_555 1_555
C22 C17 1_555 1_555
H17 C22 1_555 1_555
H18 C22 1_555 1_555
H19 C22 1_555 1_555
C23 C19 1_555 1_555
H20 C23 1_555 1_555
H21 C23 1_555 1_555
H22 C23 1_555 1_555
C24 C21 1_555 1_555
H23 C24 1_555 1_555
H24 C24 1_555 1_555
H25 C24 1_555 1_555
C25 C26 1_555 1_555
C26 C27 1_555 1_555
C27 H26 1_555 1_555
C28 C27 1_555 1_555
H27 C28 1_555 1_555
C29 C28 1_555 1_555
H28 C29 1_555 1_555
C30 C25 1_555 1_555
C31 C30 1_555 1_555
C32 C31 1_555 1_555
C33 C32 1_555 1_555
H29 C33 1_555 1_555
C34 C33 1_555 1_555
C35 C34 1_555 1_555
H30 C35 1_555 1_555
C36 C31 1_555 1_555
C37 C32 1_555 1_555
H31 C37 1_555 1_555
H32 C37 1_555 1_555
H33 C37 1_555 1_555
C38 C34 1_555 1_555
C39 C36 1_555 1_555
H34 C39 1_555 1_555
H35 C39 1_555 1_555
H36 C39 1_555 1_555
C40 C26 1_555 1_555
C41 C40 1_555 1_555
C42 C41 1_555 1_555
H37 C42 1_555 1_555
C43 C42 1_555 1_555
C44 C43 1_555 1_555
H38 C44 1_555 1_555
C45 C40 1_555 1_555
C46 C41 1_555 1_555
H39 C46 1_555 1_555
H40 C46 1_555 1_555
H41 C46 1_555 1_555
C47 C43 1_555 1_555
H42 C47 1_555 1_555
H43 C47 1_555 1_555
H44 C47 1_555 1_555
C48 C45 1_555 1_555
H45 C48 1_555 1_555
H46 C48 1_555 1_555
H47 C48 1_555 1_555
C49 H48 1_555 1_555
C50 C49 1_555 1_555
H49 C50 1_555 1_555
C51 C50 1_555 1_555
C52 C51 1_555 1_555
H50 C52 1_555 1_555
C53 C52 1_555 1_555
H51 C53 1_555 1_555
C54 H52 1_555 1_555
C55 C54 1_555 1_555
H53 C55 1_555 1_555
C56 C55 1_555 1_555
C57 C56 1_555 1_555
H54 C57 1_555 1_555
C58 C57 1_555 1_555
H55 C58 1_555 1_555
N1 C49 1_555 1_555
N2 C54 1_555 1_555
O1 C1 1_555 1_555
O2 C25 1_555 1_555
Th1 N1 1_555 1_555
B1 H56 1_555 1_555
B2 H57 1_555 1_555
H56 Th1 1_555 1_555
H58 B2 1_555 1_555
H59 B1 1_555 1_555
H60 Th1 1_555 1_555
H61 Th1 1_555 1_555
H62 B2 1_555 1_555
H63 Th1 1_555 1_555
C59 H64 1_555 1_555
H65 C59 1_555 1_555
H66 C59 1_555 1_555
C60 C59 1_555 1_555
C61 C60 1_555 1_555
H67 C61 1_555 1_555
C62 C61 1_555 1_555
H68 C62 1_555 1_555
C63 C62 1_555 1_555
H69 C63 1_555 1_555
C64 C63 1_555 1_555
H70 C64 1_555 1_555
C65 C60 1_555 1_555
H71 C65 1_555 1_555
C66 H72 1_555 1_555
H73 C66 1_555 1_555
H74 C66 1_555 1_555
C67 C66 1_555 1_555
C68 C67 1_555 1_555
H75 C68 1_555 1_555
C69 C68 1_555 1_555
H76 C69 1_555 1_555
C70 C69 1_555 1_555
H77 C70 1_555 1_555
C71 C70 1_555 1_555
H78 C71 1_555 1_555
C72 C67 1_555 1_555
H79 C72 1_555 1_555
C49A H48A 1_555 1_555
C50A C49A 1_555 1_555
H49A C50A 1_555 1_555
C51A C51 1_555 1_555
C52A C51A 1_555 1_555
H50A C52A 1_555 1_555
C53A C52A 1_555 1_555
H51A C53A 1_555 1_555
N1A C49A 1_555 1_555
C54A H52A 1_555 1_555
C55A C54A 1_555 1_555
H53A C55A 1_555 1_555
C56A C56 1_555 1_555
C57A C56A 1_555 1_555
H54A C57A 1_555 1_555
C58A C57A 1_555 1_555
H55A C58A 1_555 1_555
N2A C54A 1_555 1_555
C1A C2A 1_555 1_555
C2A C3A 1_555 1_555
C3A H1A 1_555 1_555
C4A C3A 1_555 1_555
H2A C4A 1_555 1_555
C5A C4A 1_555 1_555
H3A C5A 1_555 1_555
C6A C1A 1_555 1_555
C7A C6A 1_555 1_555
C8A C7A 1_555 1_555
C9A C8A 1_555 1_555
H4A C9A 1_555 1_555
C10A C9A 1_555 1_555
C11A C10A 1_555 1_555
H5A C11A 1_555 1_555
C12A C7A 1_555 1_555
C13A C8A 1_555 1_555
H6A C13A 1_555 1_555
H7A C13A 1_555 1_555
H8A C13A 1_555 1_555
C14A C10A 1_555 1_555
H9A C14A 1_555 1_555
H10A C14A 1_555 1_555
H11A C14A 1_555 1_555
C15A C12A 1_555 1_555
H12A C15A 1_555 1_555
H13A C15A 1_555 1_555
H14A C15A 1_555 1_555
C16A C2A 1_555 1_555
C17A C16A 1_555 1_555
C18A C17A 1_555 1_555
H15A C18A 1_555 1_555
C19A C18A 1_555 1_555
C20A C19A 1_555 1_555
H16A C20A 1_555 1_555
C21A C16A 1_555 1_555
C22A C17A 1_555 1_555
H17A C22A 1_555 1_555
H18A C22A 1_555 1_555
H19A C22A 1_555 1_555
C23A C19A 1_555 1_555
H20A C23A 1_555 1_555
H21A C23A 1_555 1_555
H22A C23A 1_555 1_555
C24A C21A 1_555 1_555
H23A C24A 1_555 1_555
H24A C24A 1_555 1_555
H25A C24A 1_555 1_555
C25A C26A 1_555 1_555
C26A C27A 1_555 1_555
C27A H26A 1_555 1_555
C28A C27A 1_555 1_555
H27A C28A 1_555 1_555
C29A C28A 1_555 1_555
H28A C29A 1_555 1_555
C30A C25A 1_555 1_555
C31A C30A 1_555 1_555
C32A C31A 1_555 1_555
C33A C32A 1_555 1_555
H29A C33A 1_555 1_555
C34A C33A 1_555 1_555
C35A C34A 1_555 1_555
H30A C35A 1_555 1_555
C36A C31A 1_555 1_555
C37A C32A 1_555 1_555
H31A C37A 1_555 1_555
H32A C37A 1_555 1_555
H33A C37A 1_555 1_555
C38A C34A 1_555 1_555
C39A C36A 1_555 1_555
H34A C39A 1_555 1_555
H35A C39A 1_555 1_555
H36A C39A 1_555 1_555
C40A C26A 1_555 1_555
C41A C40A 1_555 1_555
C42A C41A 1_555 1_555
H37A C42A 1_555 1_555
C43A C42A 1_555 1_555
C44A C43A 1_555 1_555
H38A C44A 1_555 1_555
C45A C40A 1_555 1_555
C46A C41A 1_555 1_555
H39A C46A 1_555 1_555
H40A C46A 1_555 1_555
H41A C46A 1_555 1_555
C47A C43A 1_555 1_555
H42A C47A 1_555 1_555
H43A C47A 1_555 1_555
H44A C47A 1_555 1_555
C48A C45A 1_555 1_555
H45A C48A 1_555 1_555
H46A C48A 1_555 1_555
H47A C48A 1_555 1_555
O1A C1A 1_555 1_555
O2A C25A 1_555 1_555
Th1A N1A 1_555 1_555
B1A H56A 1_555 1_555
B2A H57A 1_555 1_555
H56A Th1A 1_555 1_555
H58A B2A 1_555 1_555
H59A B1A 1_555 1_555
H60A Th1A 1_555 1_555
H61A Th1A 1_555 1_555
H62A B2A 1_555 1_555
H63A Th1A 1_555 1_555
N2A_2 Th1A 1_555 1_555
Th1A_2 N2A 1_555 1_555
C5 C6 1_555 1_555
C11 C12 1_555 1_555
C20 C21 1_555 1_555
C29 C30 1_555 1_555
C35 C36 1_555 1_555
C44 C45 1_555 1_555
C53 N1 1_555 1_555
C58 N2 1_555 1_555
N2 Th1 1_555 1_555
O1 Th1 1_555 1_555
O2 Th1 1_555 1_555
B1 H60 1_555 1_555
B1 H61 1_555 1_555
B2 H63 1_555 1_555
C64 C65 1_555 1_555
C71 C72 1_555 1_555
C50A C51A 1_555 1_555
C53A N1A 1_555 1_555
C55A C56A 1_555 1_555
C58A N2A 1_555 1_555
C5A C6A 1_555 1_555
C11A C12A 1_555 1_555
C20A C21A 1_555 1_555
C29A C30A 1_555 1_555
C35A C36A 1_555 1_555
C44A C45A 1_555 1_555
O1A Th1A 1_555 1_555
O2A Th1A 1_555 1_555
B1A H60A 1_555 1_555
B1A H61A 1_555 1_555
B2A H63A 1_555 1_555

#END
