
#######################################################################
#
#                 Cambridge Crystallographic Data Centre
#                                CCDC 
#
#######################################################################
#
# If this CIF has been generated from an entry in the Cambridge 
# Structural Database, then it will include bibliographic, chemical, 
# crystal, experimental, refinement or atomic coordinate data resulting 
# from the CCDC's data processing and validation procedures.
#
#######################################################################

data_JOVKOW
_symmetry_cell_setting           triclinic
_symmetry_space_group_name_H-M   'P -1'
_symmetry_Int_Tables_number      2
_space_group_name_Hall           '-P 1'
loop_
_symmetry_equiv_pos_site_id
_symmetry_equiv_pos_as_xyz
1 x,y,z
2 -x,-y,-z
_cell_length_a                   13.342(5)
_cell_length_b                   14.040(5)
_cell_length_c                   23.743(5)
_cell_angle_alpha                95.480(5)
_cell_angle_beta                 104.752(5)
_cell_angle_gamma                110.128(5)
_cell_volume                     3955.31
loop_
_atom_site_label
_atom_site_type_symbol
_atom_site_fract_x
_atom_site_fract_y
_atom_site_fract_z
C1 C 0.9144(4) 0.2634(4) 0.7392(2)
C2 C 0.9208(4) 0.1753(4) 0.7610(2)
C3 C 0.8215(5) 0.0876(5) 0.7500(3)
H1 H 0.8249 0.0286 0.7657
C4 C 0.7193(5) 0.0855(5) 0.7168(4)
H2 H 0.6529 0.0258 0.7097
C5 C 0.7146(5) 0.1714(5) 0.6939(3)
H3 H 0.6442 0.1695 0.6707
C6 C 0.8095(4) 0.2602(5) 0.7039(3)
C7 C 0.7946(5) 0.3447(5) 0.6739(3)
C8 C 0.7705(5) 0.4208(5) 0.7022(4)
C9 C 0.7489(6) 0.4964(7) 0.6707(5)
H4 H 0.7322 0.5497 0.6891
C10 C 0.7528(8) 0.4907(8) 0.6117(6)
C11 C 0.7718(8) 0.4140(8) 0.5857(5)
H5 H 0.7699 0.4100 0.5453
C12 C 0.7941(6) 0.3405(7) 0.6142(4)
C13 C 0.7681(6) 0.4247(6) 0.7649(4)
H6 H 0.7162 0.3579 0.7683
H7 H 0.7432 0.4795 0.7763
H8 H 0.8436 0.4391 0.7913
C14 C 0.7249(14) 0.5796(9) 0.5838(7)
H9 H 0.7728 0.6466 0.6105
H10 H 0.6460 0.5678 0.5785
H11 H 0.7386 0.5796 0.5452
C15 C 0.8128(8) 0.2539(8) 0.5807(4)
H12 H 0.7456 0.1901 0.5707
H13 H 0.8771 0.2430 0.6057
H14 H 0.8277 0.2727 0.5441
C16 C 1.0281(4) 0.1665(4) 0.7926(2)
C17 C 1.0515(5) 0.1557(4) 0.8531(3)
C18 C 1.1485(5) 0.1421(5) 0.8799(3)
H15 H 1.1643 0.1355 0.9203
C19 C 1.2253(5) 0.1376(4) 0.8498(3)
C20 C 1.1984(5) 0.1441(4) 0.7905(3)
H16 H 1.2481 0.1394 0.7689
C21 C 1.1017(4) 0.1573(4) 0.7616(2)
C22 C 0.9717(6) 0.1522(5) 0.8882(3)
H17 H 0.9322 0.0804 0.8907
H18 H 0.9171 0.1801 0.8685
H19 H 1.0137 0.1939 0.9283
C23 C 1.3317(5) 0.1247(5) 0.8813(3)
H20 H 1.3472 0.0782 0.8543
H21 H 1.3230 0.0952 0.9164
H22 H 1.3942 0.1924 0.8937
C24 C 1.0725(5) 0.1558(5) 0.6962(2)
H23 H 1.1220 0.1320 0.6797
H24 H 1.0819 0.2257 0.6895
H25 H 0.9943 0.1086 0.6766
C25 C 1.3785(4) 0.7470(4) 0.7976(2)
C26 C 1.4002(4) 0.8339(4) 0.8408(2)
C27 C 1.4982(5) 0.9216(5) 0.8511(3)
H26 H 1.5129 0.9804 0.8800
C28 C 1.5737(5) 0.9251(5) 0.8207(4)
H27 H 1.6414 0.9843 0.8298
C29 C 1.5501(5) 0.8424(5) 0.7773(3)
H28 H 1.6011 0.8462 0.7553
C30 C 1.4529(4) 0.7518(4) 0.7642(3)
C31 C 1.4352(5) 0.6660(5) 0.7162(3)
C32 C 1.4876(5) 0.5957(5) 0.7296(3)
C33 C 1.4860(7) 0.5259(7) 0.6846(4)
H29 H 1.5261 0.4824 0.6943
C34 C 1.4307(9) 0.5167(7) 0.6279(5)
C35 C 1.3760(8) 0.5839(8) 0.6140(4)
H30 H 1.3358 0.5779 0.5737
C36 C 1.3787(6) 0.6618(6) 0.6585(3)
C37 C 1.5475(6) 0.5960(6) 0.7925(4)
H31 H 1.4928 0.5727 0.8141
H32 H 1.6012 0.6664 0.8121
H33 H 1.5876 0.5493 0.7924
C38 C 1.4270(14) 0.4366(10) 0.5763(6)
H34 H 1.4459 0.3812 0.5925
H35 H 1.4812 0.4714 0.5564
H36 H 1.3514 0.4071 0.5476
C39 C 1.3269(7) 0.7409(7) 0.6434(4)
H37 H 1.2790 0.7430 0.6683
H38 H 1.2817 0.7212 0.6015
H39 H 1.3866 0.8094 0.6508
C40 C 1.3218(4) 0.8416(4) 0.8745(2)
C41 C 1.2216(4) 0.8536(4) 0.8454(2)
C42 C 1.1550(5) 0.8711(4) 0.8782(3)
H40 H 1.0873 0.8780 0.8580
C43 C 1.1831(5) 0.8789(5) 0.9383(3)
C44 C 1.2807(5) 0.8683(4) 0.9666(3)
H41 H 1.3006 0.8724 1.0084
C45 C 1.3530(5) 0.8513(4) 0.9360(3)
C46 C 1.1938(5) 0.8576(5) 0.7805(2)
H42 H 1.1194 0.8606 0.7666
H43 H 1.1939 0.7956 0.7578
H44 H 1.2498 0.9194 0.7746
C47 C 1.1101(6) 0.9014(6) 0.9730(3)
H45 H 1.0520 0.8362 0.9736
H46 H 1.0747 0.9456 0.9539
H47 H 1.1565 0.9368 1.0138
C48 C 1.4647(5) 0.8477(5) 0.9725(3)
H48 H 1.4912 0.8094 0.9470
H49 H 1.4531 0.8129 1.0056
H50 H 1.5207 0.9184 0.9883
C49 C 1.3716(5) 0.5866(4) 0.9054(2)
H51 H 1.3693 0.6502 0.8961
C50 C 1.4523(5) 0.5893(4) 0.9571(2)
H52 H 1.5038 0.6540 0.9816
C51 C 1.4577(4) 0.5001(4) 0.9725(2)
C52 C 1.3808(5) 0.4100(5) 0.9345(3)
H53 H 1.3802 0.3452 0.9431
C53 C 1.3041(5) 0.4130(5) 0.8837(3)
H54 H 1.2528 0.3493 0.8580
C54 C 1.0544(7) 0.5747(7) 0.6335(3)
H55 H 1.0515 0.6273 0.6607
C55 C 1.0195(7) 0.5750(7) 0.5732(3)
H56 H 0.9946 0.6274 0.5605
C56 C 1.0207(5) 0.5016(8) 0.5325(2)
C57 C 1.0622(7) 0.4340(10) 0.5546(3)
H57 H 1.0682 0.3821 0.5284
C58 C 1.0965(7) 0.4392(9) 0.6155(3)
H58 H 1.1263 0.3903 0.6293
C59 C 1.0998(5) 0.5938(5) 0.9056(2)
H59 H 1.1324 0.6583 0.8950
C60 C 1.0670(5) 0.5943(4) 0.9560(2)
H60 H 1.0766 0.6580 0.9788
C61 C 1.0200(4) 0.5024(4) 0.9733(2)
C62 C 1.0067(7) 0.4127(5) 0.9374(3)
H61 H 0.9737 0.3472 0.9469
C63 C 1.0421(6) 0.4194(5) 0.8873(3)
H62 H 1.0325 0.3568 0.8633
N1 N 1.2986(3) 0.4993(3) 0.86918(16)
N2 N 1.0907(4) 0.5066(5) 0.6552(2)
N3 N 1.0885(3) 0.5075(3) 0.87078(17)
O1 O 1.0075(3) 0.3517(3) 0.75068(14)
O2 O 1.2872(3) 0.6588(3) 0.78789(14)
Cl1 Cl 1.01492(10) 0.61463(11) 0.76488(6)
Cl2 Cl 1.26623(11) 0.40210(12) 0.73581(6)
Th1 Th 1.147259(14) 0.505212(15) 0.771105(7)
C49A C 1.6284(5) 0.4134(4) 1.0946(2)
H51A H 1.6307 0.3498 1.1039
C50A C 1.5477(5) 0.4107(4) 1.0429(2)
H52A H 1.4962 0.3460 1.0184
C51A C 1.5423(4) 0.4999(4) 1.0275(2)
C52A C 1.6192(5) 0.5900(5) 1.0655(3)
H53A H 1.6198 0.6548 1.0569
C53A C 1.6959(5) 0.5870(5) 1.1163(3)
H54A H 1.7472 0.6507 1.1420
N1A N 1.7014(3) 0.5007(3) 1.13082(16)
C54A C 0.9456(7) 0.4253(7) 0.3665(3)
H55A H 0.9485 0.3727 0.3393
C55A C 0.9805(7) 0.4250(7) 0.4268(3)
H56A H 1.0054 0.3726 0.4395
C56A C 0.9793(5) 0.4984(8) 0.4675(2)
C57A C 0.9378(7) 0.5660(10) 0.4454(3)
H57A H 0.9318 0.6179 0.4716
C58A C 0.9035(7) 0.5608(9) 0.3845(3)
H58A H 0.8737 0.6097 0.3707
N2A N 0.9093(4) 0.4934(5) 0.3448(2)
C59A C 0.9002(5) 0.4062(5) 1.0944(2)
H59A H 0.8676 0.3417 1.1050
C60A C 0.9330(5) 0.4057(4) 1.0440(2)
H60A H 0.9234 0.3420 1.0212
C61A C 0.9800(4) 0.4976(4) 1.0267(2)
C62A C 0.9933(7) 0.5873(5) 1.0626(3)
H61A H 1.0263 0.6528 1.0531
C63A C 0.9579(6) 0.5806(5) 1.1127(3)
H62A H 0.9675 0.6432 1.1367
N3A N 0.9115(3) 0.4925(3) 1.12922(17)
C1A C 1.0856(4) 0.7366(4) 0.2608(2)
C2A C 1.0792(4) 0.8247(4) 0.2390(2)
C3A C 1.1785(5) 0.9124(5) 0.2500(3)
H1A H 1.1751 0.9714 0.2343
C4A C 1.2807(5) 0.9145(5) 0.2832(4)
H2A H 1.3471 0.9742 0.2903
C5A C 1.2854(5) 0.8286(5) 0.3061(3)
H3A H 1.3558 0.8305 0.3293
C6A C 1.1905(4) 0.7398(5) 0.2961(3)
C7A C 1.2054(5) 0.6553(5) 0.3261(3)
C8A C 1.2295(5) 0.5792(5) 0.2978(4)
C9A C 1.2511(6) 0.5036(7) 0.3293(5)
H4A H 1.2678 0.4503 0.3109
C10A C 1.2472(8) 0.5093(8) 0.3883(6)
C11A C 1.2282(8) 0.5860(8) 0.4143(5)
H5A H 1.2301 0.5900 0.4547
C12A C 1.2059(6) 0.6595(7) 0.3858(4)
C13A C 1.2319(6) 0.5753(6) 0.2351(4)
H6A H 1.2838 0.6421 0.2317
H7A H 1.2568 0.5205 0.2237
H8A H 1.1564 0.5609 0.2087
C14A C 1.2751(14) 0.4204(9) 0.4162(7)
H9A H 1.2272 0.3534 0.3895
H10A H 1.3540 0.4322 0.4215
H11A H 1.2614 0.4204 0.4548
C15A C 1.1872(8) 0.7461(8) 0.4193(4)
H12A H 1.2544 0.8099 0.4293
H13A H 1.1229 0.7570 0.3943
H14A H 1.1723 0.7273 0.4559
C16A C 0.9719(4) 0.8335(4) 0.2074(2)
C17A C 0.9485(5) 0.8443(4) 0.1469(3)
C18A C 0.8515(5) 0.8579(5) 0.1201(3)
H15A H 0.8357 0.8645 0.0797
C19A C 0.7747(5) 0.8624(4) 0.1502(3)
C20A C 0.8016(5) 0.8559(4) 0.2095(3)
H16A H 0.7519 0.8606 0.2311
C21A C 0.8983(4) 0.8427(4) 0.2384(2)
C22A C 1.0283(6) 0.8478(5) 0.1118(3)
H17A H 1.0678 0.9196 0.1093
H18A H 1.0829 0.8199 0.1315
H19A H 0.9863 0.8061 0.0717
C23A C 0.6683(5) 0.8753(5) 0.1187(3)
H20A H 0.6528 0.9218 0.1457
H21A H 0.6770 0.9048 0.0836
H22A H 0.6058 0.8076 0.1063
C24A C 0.9275(5) 0.8442(5) 0.3038(2)
H23A H 0.8780 0.8680 0.3203
H24A H 0.9181 0.7743 0.3105
H25A H 1.0057 0.8914 0.3234
C25A C 0.6215(4) 0.2530(4) 0.2024(2)
C26A C 0.5998(4) 0.1661(4) 0.1592(2)
C27A C 0.5018(5) 0.0784(5) 0.1489(3)
H26A H 0.4871 0.0196 0.1200
C28A C 0.4263(5) 0.0749(5) 0.1793(4)
H27A H 0.3586 0.0157 0.1702
C29A C 0.4499(5) 0.1576(5) 0.2227(3)
H28A H 0.3989 0.1538 0.2447
C30A C 0.5471(4) 0.2482(4) 0.2358(3)
C31A C 0.5648(5) 0.3340(5) 0.2838(3)
C32A C 0.5124(5) 0.4043(5) 0.2704(3)
C33A C 0.5140(7) 0.4741(7) 0.3154(4)
H29A H 0.4739 0.5176 0.3057
C34A C 0.5693(9) 0.4833(7) 0.3721(5)
C35A C 0.6240(8) 0.4161(8) 0.3860(4)
H30A H 0.6642 0.4221 0.4263
C36A C 0.6213(6) 0.3382(6) 0.3415(3)
C37A C 0.4525(6) 0.4040(6) 0.2075(4)
H31A H 0.5072 0.4273 0.1859
H32A H 0.3988 0.3336 0.1879
H33A H 0.4124 0.4507 0.2076
C38A C 0.5730(14) 0.5634(10) 0.4237(6)
H34A H 0.5541 0.6188 0.4075
H35A H 0.5188 0.5286 0.4436
H36A H 0.6486 0.5929 0.4524
C39A C 0.6731(7) 0.2591(7) 0.3566(4)
H37A H 0.7210 0.2570 0.3317
H38A H 0.7183 0.2788 0.3985
H39A H 0.6134 0.1906 0.3492
C40A C 0.6782(4) 0.1584(4) 0.1255(2)
C41A C 0.7784(4) 0.1464(4) 0.1546(2)
C42A C 0.8450(5) 0.1289(4) 0.1218(3)
H40A H 0.9127 0.1220 0.1420
C43A C 0.8169(5) 0.1211(5) 0.0617(3)
C44A C 0.7193(5) 0.1317(4) 0.0334(3)
H41A H 0.6994 0.1276 -0.0084
C45A C 0.6470(5) 0.1487(4) 0.0640(3)
C46A C 0.8062(5) 0.1424(5) 0.2195(2)
H42A H 0.8806 0.1394 0.2334
H43A H 0.8061 0.2044 0.2422
H44A H 0.7502 0.0806 0.2254
C47A C 0.8899(6) 0.0986(6) 0.0270(3)
H45A H 0.9480 0.1638 0.0264
H46A H 0.9253 0.0544 0.0461
H47A H 0.8435 0.0632 -0.0138
C48A C 0.5353(5) 0.1523(5) 0.0275(3)
H48A H 0.5088 0.1906 0.0530
H49A H 0.5469 0.1871 -0.0056
H50A H 0.4793 0.0816 0.0117
O1A O 0.9925(3) 0.6483(3) 0.24932(14)
O2A O 0.7128(3) 0.3412(3) 0.21211(14)
Cl1A Cl 0.98508(10) 0.38537(11) 0.23512(6)
Cl2A Cl 0.73377(11) 0.59790(12) 0.26419(6)
Th1A Th 0.852741(14) 0.494788(15) 0.228895(7)
N1A_2 N 0.7014(3) 0.5007(3) 0.13082(16)
N3A_2 N 0.9115(3) 0.4925(3) 0.12922(17)
Th1A_2 Th 0.852741(14) 0.494788(15) 1.228895(7)
Th1A_3 Th 1.852741(14) 0.494788(15) 1.228895(7)
N4 N 0.3242(5) 0.0889(6) 0.6339(2)
C64 C 0.3553(6) 0.1950(6) 0.6514(3)
H63 H 0.3276 0.2327 0.6246
C65 C 0.4270(6) 0.2458(4) 0.7082(3)
H64 H 0.4483 0.3183 0.7202
C66 C 0.4676(5) 0.1906(5) 0.7474(2)
C67 C 0.4365(5) 0.0845(5) 0.7299(3)
H65 H 0.4643 0.0468 0.7567
C68 C 0.3648(6) 0.0337(4) 0.6731(3)
H66 H 0.3436 -0.0388 0.6611
C69 C 0.6916(10) 0.2661(10) 0.8924(6)
H67 H 0.7449 0.2400 0.9121
C70 C 0.6227(8) 0.2112(8) 0.8367(5)
H68 H 0.6293 0.1513 0.8185
C71 C 0.5458(7) 0.2463(7) 0.8093(4)
C72 C 0.5374(8) 0.3310(8) 0.8354(5)
H69 H 0.4801 0.3528 0.8158
C73 C 0.6094(9) 0.3859(9) 0.8893(5)
H70 H 0.6046 0.4481 0.9056
N5 N 0.6918(8) 0.3526(9) 0.9219(4)
N6 N 0.4701(7) 0.1241(7) 0.5390(3)
C74 C 0.5014(5) 0.2195(6) 0.5220(4)
H71 H 0.5640 0.2770 0.5476
C75 C 0.4410(7) 0.2306(5) 0.4677(4)
H72 H 0.4624 0.2958 0.4561
C76 C 0.3494(7) 0.1464(7) 0.4304(3)
C77 C 0.3181(6) 0.0510(6) 0.4473(4)
H73 H 0.2555 -0.0065 0.4217
C78 C 0.3785(8) 0.0399(6) 0.5016(4)
H74 H 0.3572 -0.0253 0.5132
N7 N 0.1236(6) 0.1729(6) 0.2757(3)
C79 C 0.2393(7) 0.2221(6) 0.2896(4)
H75 H 0.2706 0.2628 0.2640
C80 C 0.3093(5) 0.2116(7) 0.3410(4)
H76 H 0.3884 0.2451 0.3506
C81 C 0.2635(7) 0.1520(7) 0.3785(3)
C82 C 0.1478(7) 0.1028(6) 0.3646(4)
H77 H 0.1165 0.0621 0.3902
C83 C 0.0778(5) 0.1133(7) 0.3131(4)
H78 H -0.0012 0.0797 0.3036
C84 C 0.8538(7) 0.7121(9) 0.8644(5)
H79 H 0.8858 0.6916 0.8363
C85 C 0.8341(8) 0.7983(9) 0.8637(4)
H80 H 0.8532 0.8387 0.8353
C86 C 0.7872(8) 0.8310(8) 0.9024(6)
H81 H 0.7727 0.8924 0.9003
C87 C 0.7618(8) 0.7757(12) 0.9436(5)
H82 H 0.7305 0.7989 0.9712
C88 C 0.7808(9) 0.6855(12) 0.9460(5)
H83 H 0.7620 0.6461 0.9749
C89 C 0.8285(8) 0.6521(8) 0.9051(6)
H84 H 0.8426 0.5903 0.9059
loop_
_geom_bond_atom_site_label_1
_geom_bond_atom_site_label_2
_geom_bond_site_symmetry_1
_geom_bond_site_symmetry_2
C1 C2 1_555 1_555
C2 C3 1_555 1_555
C3 H1 1_555 1_555
C4 C3 1_555 1_555
H2 C4 1_555 1_555
C5 C4 1_555 1_555
H3 C5 1_555 1_555
C6 C1 1_555 1_555
C7 C6 1_555 1_555
C8 C7 1_555 1_555
C9 C8 1_555 1_555
H4 C9 1_555 1_555
C10 C9 1_555 1_555
C11 C10 1_555 1_555
H5 C11 1_555 1_555
C12 C7 1_555 1_555
C13 C8 1_555 1_555
H6 C13 1_555 1_555
H7 C13 1_555 1_555
H8 C13 1_555 1_555
C14 C10 1_555 1_555
H9 C14 1_555 1_555
H10 C14 1_555 1_555
H11 C14 1_555 1_555
C15 C12 1_555 1_555
H12 C15 1_555 1_555
H13 C15 1_555 1_555
H14 C15 1_555 1_555
C16 C2 1_555 1_555
C17 C16 1_555 1_555
C18 C17 1_555 1_555
H15 C18 1_555 1_555
C19 C18 1_555 1_555
C20 C19 1_555 1_555
H16 C20 1_555 1_555
C21 C16 1_555 1_555
C22 C17 1_555 1_555
H17 C22 1_555 1_555
H18 C22 1_555 1_555
H19 C22 1_555 1_555
C23 C19 1_555 1_555
H20 C23 1_555 1_555
H21 C23 1_555 1_555
H22 C23 1_555 1_555
C24 C21 1_555 1_555
H23 C24 1_555 1_555
H24 C24 1_555 1_555
H25 C24 1_555 1_555
C25 C26 1_555 1_555
C26 C27 1_555 1_555
C27 H26 1_555 1_555
C28 C27 1_555 1_555
H27 C28 1_555 1_555
C29 C28 1_555 1_555
H28 C29 1_555 1_555
C30 C25 1_555 1_555
C31 C30 1_555 1_555
C32 C31 1_555 1_555
C33 C32 1_555 1_555
H29 C33 1_555 1_555
C34 C33 1_555 1_555
C35 C34 1_555 1_555
H30 C35 1_555 1_555
C36 C31 1_555 1_555
C37 C32 1_555 1_555
H31 C37 1_555 1_555
H32 C37 1_555 1_555
H33 C37 1_555 1_555
C38 C34 1_555 1_555
H34 C38 1_555 1_555
H35 C38 1_555 1_555
H36 C38 1_555 1_555
C39 C36 1_555 1_555
H37 C39 1_555 1_555
H38 C39 1_555 1_555
H39 C39 1_555 1_555
C40 C26 1_555 1_555
C41 C40 1_555 1_555
C42 C41 1_555 1_555
H40 C42 1_555 1_555
C43 C42 1_555 1_555
C44 C43 1_555 1_555
H41 C44 1_555 1_555
C45 C40 1_555 1_555
C46 C41 1_555 1_555
H42 C46 1_555 1_555
H43 C46 1_555 1_555
H44 C46 1_555 1_555
C47 C43 1_555 1_555
H45 C47 1_555 1_555
H46 C47 1_555 1_555
H47 C47 1_555 1_555
C48 C45 1_555 1_555
H48 C48 1_555 1_555
H49 C48 1_555 1_555
H50 C48 1_555 1_555
C49 H51 1_555 1_555
C50 C49 1_555 1_555
H52 C50 1_555 1_555
C51 C50 1_555 1_555
C52 C51 1_555 1_555
H53 C52 1_555 1_555
C53 C52 1_555 1_555
H54 C53 1_555 1_555
C54 H55 1_555 1_555
C55 C54 1_555 1_555
H56 C55 1_555 1_555
C56 C55 1_555 1_555
C57 C56 1_555 1_555
H57 C57 1_555 1_555
C58 C57 1_555 1_555
H58 C58 1_555 1_555
C59 H59 1_555 1_555
C60 C59 1_555 1_555
H60 C60 1_555 1_555
C61 C60 1_555 1_555
C62 C61 1_555 1_555
H61 C62 1_555 1_555
C63 C62 1_555 1_555
H62 C63 1_555 1_555
N1 C49 1_555 1_555
N2 C54 1_555 1_555
N3 C59 1_555 1_555
O1 C1 1_555 1_555
O2 C25 1_555 1_555
Cl1 Th1 1_555 1_555
Cl2 Th1 1_555 1_555
Th1 N1 1_555 1_555
N4 C64 1_555 1_555
C64 H63 1_555 1_555
C65 C64 1_555 1_555
H64 C65 1_555 1_555
C66 C65 1_555 1_555
C67 C66 1_555 1_555
H65 C67 1_555 1_555
C68 N4 1_555 1_555
H66 C68 1_555 1_555
C69 H67 1_555 1_555
C70 C69 1_555 1_555
H68 C70 1_555 1_555
C71 C66 1_555 1_555
C72 C71 1_555 1_555
H69 C72 1_555 1_555
C73 C72 1_555 1_555
H70 C73 1_555 1_555
N5 C69 1_555 1_555
N6 C74 1_555 1_555
C74 H71 1_555 1_555
C75 C74 1_555 1_555
H72 C75 1_555 1_555
C76 C75 1_555 1_555
C77 C76 1_555 1_555
H73 C77 1_555 1_555
C78 N6 1_555 1_555
H74 C78 1_555 1_555
N7 C79 1_555 1_555
C79 H75 1_555 1_555
C80 C79 1_555 1_555
H76 C80 1_555 1_555
C81 C76 1_555 1_555
C82 C81 1_555 1_555
H77 C82 1_555 1_555
C83 N7 1_555 1_555
H78 C83 1_555 1_555
C84 H79 1_555 1_555
C85 C84 1_555 1_555
H80 C85 1_555 1_555
C86 C85 1_555 1_555
H81 C86 1_555 1_555
C87 C86 1_555 1_555
H82 C87 1_555 1_555
C88 C87 1_555 1_555
H83 C88 1_555 1_555
C89 C84 1_555 1_555
H84 C89 1_555 1_555
C49A H51A 1_555 1_555
C50A C49A 1_555 1_555
H52A C50A 1_555 1_555
C51A C51 1_555 1_555
C52A C51A 1_555 1_555
H53A C52A 1_555 1_555
C53A C52A 1_555 1_555
H54A C53A 1_555 1_555
N1A C49A 1_555 1_555
C54A H55A 1_555 1_555
C55A C54A 1_555 1_555
H56A C55A 1_555 1_555
C56A C56 1_555 1_555
C57A C56A 1_555 1_555
H57A C57A 1_555 1_555
C58A C57A 1_555 1_555
H58A C58A 1_555 1_555
N2A C54A 1_555 1_555
C59A H59A 1_555 1_555
C60A C59A 1_555 1_555
H60A C60A 1_555 1_555
C61A C61 1_555 1_555
C62A C61A 1_555 1_555
H61A C62A 1_555 1_555
C63A C62A 1_555 1_555
H62A C63A 1_555 1_555
N3A C59A 1_555 1_555
C1A C2A 1_555 1_555
C2A C3A 1_555 1_555
C3A H1A 1_555 1_555
C4A C3A 1_555 1_555
H2A C4A 1_555 1_555
C5A C4A 1_555 1_555
H3A C5A 1_555 1_555
C6A C1A 1_555 1_555
C7A C6A 1_555 1_555
C8A C7A 1_555 1_555
C9A C8A 1_555 1_555
H4A C9A 1_555 1_555
C10A C9A 1_555 1_555
C11A C10A 1_555 1_555
H5A C11A 1_555 1_555
C12A C7A 1_555 1_555
C13A C8A 1_555 1_555
H6A C13A 1_555 1_555
H7A C13A 1_555 1_555
H8A C13A 1_555 1_555
C14A C10A 1_555 1_555
H9A C14A 1_555 1_555
H10A C14A 1_555 1_555
H11A C14A 1_555 1_555
C15A C12A 1_555 1_555
H12A C15A 1_555 1_555
H13A C15A 1_555 1_555
H14A C15A 1_555 1_555
C16A C2A 1_555 1_555
C17A C16A 1_555 1_555
C18A C17A 1_555 1_555
H15A C18A 1_555 1_555
C19A C18A 1_555 1_555
C20A C19A 1_555 1_555
H16A C20A 1_555 1_555
C21A C16A 1_555 1_555
C22A C17A 1_555 1_555
H17A C22A 1_555 1_555
H18A C22A 1_555 1_555
H19A C22A 1_555 1_555
C23A C19A 1_555 1_555
H20A C23A 1_555 1_555
H21A C23A 1_555 1_555
H22A C23A 1_555 1_555
C24A C21A 1_555 1_555
H23A C24A 1_555 1_555
H24A C24A 1_555 1_555
H25A C24A 1_555 1_555
C25A C26A 1_555 1_555
C26A C27A 1_555 1_555
C27A H26A 1_555 1_555
C28A C27A 1_555 1_555
H27A C28A 1_555 1_555
C29A C28A 1_555 1_555
H28A C29A 1_555 1_555
C30A C25A 1_555 1_555
C31A C30A 1_555 1_555
C32A C31A 1_555 1_555
C33A C32A 1_555 1_555
H29A C33A 1_555 1_555
C34A C33A 1_555 1_555
C35A C34A 1_555 1_555
H30A C35A 1_555 1_555
C36A C31A 1_555 1_555
C37A C32A 1_555 1_555
H31A C37A 1_555 1_555
H32A C37A 1_555 1_555
H33A C37A 1_555 1_555
C38A C34A 1_555 1_555
H34A C38A 1_555 1_555
H35A C38A 1_555 1_555
H36A C38A 1_555 1_555
C39A C36A 1_555 1_555
H37A C39A 1_555 1_555
H38A C39A 1_555 1_555
H39A C39A 1_555 1_555
C40A C26A 1_555 1_555
C41A C40A 1_555 1_555
C42A C41A 1_555 1_555
H40A C42A 1_555 1_555
C43A C42A 1_555 1_555
C44A C43A 1_555 1_555
H41A C44A 1_555 1_555
C45A C40A 1_555 1_555
C46A C41A 1_555 1_555
H42A C46A 1_555 1_555
H43A C46A 1_555 1_555
H44A C46A 1_555 1_555
C47A C43A 1_555 1_555
H45A C47A 1_555 1_555
H46A C47A 1_555 1_555
H47A C47A 1_555 1_555
C48A C45A 1_555 1_555
H48A C48A 1_555 1_555
H49A C48A 1_555 1_555
H50A C48A 1_555 1_555
O1A C1A 1_555 1_555
O2A C25A 1_555 1_555
Cl1A Th1A 1_555 1_555
Cl2A Th1A 1_555 1_555
Th1A N2A 1_555 1_555
N1A_2 Th1A 1_555 1_555
N3A_2 Th1A 1_555 1_555
Th1A_2 N3A 1_555 1_555
Th1A_3 N1A 1_555 1_555
C5 C6 1_555 1_555
C11 C12 1_555 1_555
C20 C21 1_555 1_555
C29 C30 1_555 1_555
C35 C36 1_555 1_555
C44 C45 1_555 1_555
C53 N1 1_555 1_555
C58 N2 1_555 1_555
C63 N3 1_555 1_555
N2 Th1 1_555 1_555
N3 Th1 1_555 1_555
O1 Th1 1_555 1_555
O2 Th1 1_555 1_555
C67 C68 1_555 1_555
C70 C71 1_555 1_555
C73 N5 1_555 1_555
C77 C78 1_555 1_555
C80 C81 1_555 1_555
C82 C83 1_555 1_555
C88 C89 1_555 1_555
C50A C51A 1_555 1_555
C53A N1A 1_555 1_555
C55A C56A 1_555 1_555
C58A N2A 1_555 1_555
C60A C61A 1_555 1_555
C63A N3A 1_555 1_555
C5A C6A 1_555 1_555
C11A C12A 1_555 1_555
C20A C21A 1_555 1_555
C29A C30A 1_555 1_555
C35A C36A 1_555 1_555
C44A C45A 1_555 1_555
O1A Th1A 1_555 1_555
O2A Th1A 1_555 1_555

#END
