
#######################################################################
#
#                 Cambridge Crystallographic Data Centre
#                                CCDC 
#
#######################################################################
#
# If this CIF has been generated from an entry in the Cambridge 
# Structural Database, then it will include bibliographic, chemical, 
# crystal, experimental, refinement or atomic coordinate data resulting 
# from the CCDC's data processing and validation procedures.
#
#######################################################################

data_JOVLAH10
_symmetry_cell_setting           monoclinic
_symmetry_space_group_name_H-M   'C 2/c'
_symmetry_Int_Tables_number      15
_space_group_name_Hall           '-C 2yn'
loop_
_symmetry_equiv_pos_site_id
_symmetry_equiv_pos_as_xyz
1 x,y,z
2 1/2+x,1/2+y,z
3 -x,y,1/2-z
4 1/2-x,1/2+y,1/2-z
5 -x,-y,-z
6 1/2-x,1/2-y,-z
7 x,-y,1/2+z
8 1/2+x,1/2-y,1/2+z
_cell_length_a                   14.673(3)
_cell_length_b                   16.930(4)
_cell_length_c                   14.383(4)
_cell_angle_alpha                90
_cell_angle_beta                 118.77(2)
_cell_angle_gamma                90
_cell_volume                     3131.89
loop_
_atom_site_label
_atom_site_type_symbol
_atom_site_fract_x
_atom_site_fract_y
_atom_site_fract_z
Lu1 Lu 0.2265(1) 0.2894(1) 0.2327(1)
O1 O 0.3977(4) 0.3325(2) 0.3464(4)
O2 O 0.2848(3) 0.4243(3) 0.2570(4)
O3 O 0.4013(4) 0.7023(3) 0.3086(5)
O4 O 0.5679(4) 0.7373(3) 0.4053(4)
O5 O 0.7707(4) 0.3930(3) 0.5528(4)
O6 O 0.8248(4) 0.5161(3) 0.5921(5)
O11 O 0.0957(4) 0.3449(3) 0.0809(4)
O12 O 0.3109(4) 0.1740(3) 0.2365(4)
O13 O 0.2750(5) 0.2293(4) 0.3981(4)
O14 O 0.1301(6) 0.3510(3) 0.2982(6)
O15 O 0.2853(4) 0.2951(3) 0.1111(4)
C1 C 0.4641(4) 0.4635(3) 0.3623(5)
C2 C 0.4414(4) 0.5443(3) 0.3400(5)
C3 C 0.5227(4) 0.5995(3) 0.3850(5)
C4 C 0.6237(4) 0.5757(3) 0.4481(5)
C5 C 0.6469(5) 0.4947(3) 0.4693(5)
C6 C 0.5652(5) 0.4398(3) 0.4270(5)
C7 C 0.3772(4) 0.4041(3) 0.3186(5)
C8 C 0.4960(5) 0.6870(3) 0.3658(5)
C9 C 0.7553(4) 0.4660(3) 0.5428(5)
O3C O 0.0987(4) 0.2023(3) 0.1914(5)
Lu1C Lu 0.2735(1) 0.7894(1) 0.2673(1)
O7 O 0.4536(4) 0.2158(3) 0.1153(5)
O8 O 0.5000 0.0773(4) 0.2500
O9 O 0.9859(9) 0.4730(7) 0.0582(10)
O10 O 0.3268(5) 0.0535(4) 0.3685(5)
loop_
_geom_bond_atom_site_label_1
_geom_bond_atom_site_label_2
_geom_bond_site_symmetry_1
_geom_bond_site_symmetry_2
Lu1 O1 1_555 1_555
O1 C7 1_555 1_555
O2 Lu1 1_555 1_555
O3 C8 1_555 1_555
O4 C8 1_555 1_555
O5 C9 1_555 1_555
O6 C9 1_555 1_555
O11 Lu1 1_555 1_555
O12 Lu1 1_555 1_555
O13 Lu1 1_555 1_555
O14 Lu1 1_555 1_555
O15 Lu1 1_555 1_555
C1 C2 1_555 1_555
C2 C3 1_555 1_555
C3 C4 1_555 1_555
C4 C5 1_555 1_555
C5 C6 1_555 1_555
C6 C1 1_555 1_555
C7 O2 1_555 1_555
C8 C3 1_555 1_555
C9 C5 1_555 1_555
O3C Lu1 1_555 1_555
Lu1C O3 1_555 1_555
C1 C7 1_555 1_555

#END
