
#######################################################################
#
#                 Cambridge Crystallographic Data Centre
#                                CCDC 
#
#######################################################################
#
# If this CIF has been generated from an entry in the Cambridge 
# Structural Database, then it will include bibliographic, chemical, 
# crystal, experimental, refinement or atomic coordinate data resulting 
# from the CCDC's data processing and validation procedures.
#
#######################################################################

data_JOVLIR
_symmetry_cell_setting           monoclinic
_symmetry_space_group_name_H-M   'P 21/n'
_symmetry_Int_Tables_number      14
_space_group_name_Hall           '-P 2yn'
loop_
_symmetry_equiv_pos_site_id
_symmetry_equiv_pos_as_xyz
1 x,y,z
2 1/2-x,1/2+y,1/2-z
3 -x,-y,-z
4 1/2+x,1/2-y,1/2+z
_cell_length_a                   16.088(8)
_cell_length_b                   13.258(6)
_cell_length_c                   21.990(11)
_cell_angle_alpha                90
_cell_angle_beta                 108.196(9)
_cell_angle_gamma                90
_cell_volume                     4455.8
loop_
_atom_site_label
_atom_site_type_symbol
_atom_site_fract_x
_atom_site_fract_y
_atom_site_fract_z
Fe1 Fe 0.76947(5) 0.60040(6) 0.08703(3)
Fe2 Fe 0.72291(5) 0.29735(6) 0.21151(4)
C1 C 0.7398(4) 0.4803(4) 0.1194(3)
C2 C 0.7712(4) 0.6625(4) 0.1647(3)
C3 C 0.7620(4) 0.8034(5) 0.0242(3)
H1 H 0.7016 0.7949 0.0091
C4 C 0.7973(5) 0.8912(5) 0.0097(4)
H2 H 0.7613 0.9405 -0.0152
C5 C 0.8860(5) 0.9054(5) 0.0321(4)
H3 H 0.9112 0.9639 0.0225
C6 C 0.9366(5) 0.8313(5) 0.0690(4)
H4 H 0.9968 0.8402 0.0854
C7 C 0.8993(4) 0.7438(5) 0.0819(3)
C8 C 0.9464(4) 0.6585(5) 0.1224(3)
C9 C 1.0362(4) 0.6602(6) 0.1533(3)
H5 H 1.0698 0.7161 0.1507
C10 C 1.0751(5) 0.5731(6) 0.1893(3)
H6 H 1.1347 0.5716 0.2115
C11 C 1.0231(5) 0.4919(5) 0.1904(3)
H7 H 1.0473 0.4338 0.2127
C12 C 0.9354(4) 0.4967(5) 0.1585(3)
H8 H 0.9010 0.4412 0.1604
C13 C 0.5878(4) 0.6711(5) 0.0707(4)
H9 H 0.6096 0.6937 0.1127
C14 C 0.5009(5) 0.6844(5) 0.0398(4)
H10 H 0.4663 0.7182 0.0601
C15 C 0.4648(5) 0.6485(6) -0.0204(4)
H11 H 0.4051 0.6547 -0.0416
C16 C 0.5189(5) 0.6029(5) -0.0490(3)
H12 H 0.4965 0.5789 -0.0907
C17 C 0.6089(4) 0.5920(5) -0.0156(3)
C18 C 0.6753(5) 0.5428(5) -0.0411(3)
C19 C 0.6555(6) 0.5034(6) -0.1015(4)
H13 H 0.5991 0.5069 -0.1301
C20 C 0.7210(6) 0.4592(7) -0.1179(4)
H14 H 0.7096 0.4330 -0.1589
C21 C 0.8049(7) 0.4519(7) -0.0750(4)
H15 H 0.8498 0.4211 -0.0864
C22 C 0.8192(5) 0.4930(5) -0.0132(3)
H16 H 0.8746 0.4878 0.0167
C23 C 0.9124(4) 0.2522(5) 0.2374(4)
C24 C 0.9752(5) 0.1922(6) 0.2206(5)
H17 H 0.9567 0.1461 0.1873
C25 C 1.0662(6) 0.2020(8) 0.2543(6)
H18 H 1.1070 0.1647 0.2418
C26 C 1.0914(7) 0.2634(9) 0.3025(6)
H19 H 1.1507 0.2665 0.3254
C27 C 1.0331(6) 0.3254(7) 0.3215(5)
H20 H 1.0540 0.3687 0.3562
C28 C 0.9414(5) 0.3217(6) 0.2871(4)
C29 C 0.8858(6) 0.3891(6) 0.3078(4)
H21 H 0.9130 0.4325 0.3414
C30 C 0.7529(6) 0.4637(6) 0.3120(4)
H22 H 0.7477 0.4347 0.3512
H23 H 0.7844 0.5270 0.3228
C31 C 0.6674(6) 0.4824(6) 0.2684(4)
H24 H 0.6708 0.5315 0.2366
H25 H 0.6298 0.5095 0.2914
C32 C 0.5514(5) 0.3623(5) 0.2301(3)
H26 H 0.5192 0.4021 0.2494
C33 C 0.5087(4) 0.2731(5) 0.1931(3)
C34 C 0.4216(4) 0.2538(6) 0.1905(3)
H27 H 0.3952 0.2963 0.2127
C35 C 0.3747(5) 0.1757(6) 0.1570(4)
H28 H 0.3177 0.1639 0.1569
C36 C 0.4131(5) 0.1137(6) 0.1227(4)
H29 H 0.3814 0.0600 0.0995
C37 C 0.4979(4) 0.1301(5) 0.1225(3)
H30 H 0.5222 0.0882 0.0986
C38 C 0.5474(4) 0.2094(4) 0.1578(3)
N1 N 0.7224(3) 0.4070(4) 0.1419(2)
N2 N 0.7761(3) 0.7016(3) 0.2130(2)
N3 N 0.8121(3) 0.7287(3) 0.0596(2)
N4 N 0.8960(3) 0.5779(4) 0.1242(2)
N5 N 0.6432(3) 0.6285(4) 0.0455(2)
N6 N 0.7579(3) 0.5378(4) 0.0031(2)
N7 N 0.8014(4) 0.3956(4) 0.2844(3)
N8 N 0.6308(4) 0.3877(4) 0.2370(3)
O1 O 0.8287(3) 0.2396(3) 0.2034(2)
O2 O 0.6283(2) 0.2239(3) 0.15442(17)
Fe2A Fe 0.77709(5) 0.79735(6) 0.28849(4)
N2A N 0.7239(3) 0.2016(3) 0.2870(2)
C39 C 0.2327(16) 0.830(2) 0.0511(13)
H31 H 0.2842 0.8625 0.0786
H32 H 0.2250 0.7661 0.0688
H33 H 0.1826 0.8721 0.0475
C40 C 0.3089(11) 0.8639(9) -0.0250(6)
H34 H 0.3094 0.8591 -0.0671
C41 C 0.1738(13) 0.7775(15) -0.0612(10)
H35 H 0.1834 0.7749 -0.1021
H36 H 0.1244 0.8200 -0.0640
H37 H 0.1626 0.7108 -0.0487
N9 N 0.2432(8) 0.8142(9) -0.0186(5)
O3 O 0.3678(7) 0.9128(7) 0.0046(6)
C42 C 1.1409(7) 0.2865(8) 0.1146(5)
H38 H 1.1902 0.2955 0.0994
H39 H 1.1338 0.2161 0.1220
H40 H 1.1504 0.3230 0.1539
C43 C 1.0645(7) 0.3231(8) 0.0683(5)
N10 N 1.0046(6) 0.3535(8) 0.0319(5)
O4 O 0.9281(9) 0.4243(11) 0.4561(6)
P1 P 0.18368(15) 0.9573(2) 0.17925(14)
F1 F 0.1012(4) 0.9537(6) 0.2022(4)
F2 F 0.2436(5) 0.9242(7) 0.2463(4)
F3 F 0.1284(4) 1.0053(6) 0.1170(3)
F4 F 0.1684(4) 0.8460(5) 0.1569(4)
F5 F 0.2673(4) 0.9627(5) 0.1565(4)
F6 F 0.2056(4) 1.0699(5) 0.2084(4)
loop_
_geom_bond_atom_site_label_1
_geom_bond_atom_site_label_2
_geom_bond_site_symmetry_1
_geom_bond_site_symmetry_2
Fe1 C1 1_555 1_555
Fe2 N1 1_555 1_555
C1 N1 1_555 1_555
C2 Fe1 1_555 1_555
C3 H1 1_555 1_555
C4 C3 1_555 1_555
H2 C4 1_555 1_555
C5 C4 1_555 1_555
H3 C5 1_555 1_555
C6 C5 1_555 1_555
H4 C6 1_555 1_555
C7 C6 1_555 1_555
C8 C7 1_555 1_555
C9 C8 1_555 1_555
H5 C9 1_555 1_555
C10 C9 1_555 1_555
H6 C10 1_555 1_555
C11 C10 1_555 1_555
H7 C11 1_555 1_555
C12 C11 1_555 1_555
H8 C12 1_555 1_555
C13 H9 1_555 1_555
C14 C13 1_555 1_555
H10 C14 1_555 1_555
C15 C14 1_555 1_555
H11 C15 1_555 1_555
C16 C15 1_555 1_555
H12 C16 1_555 1_555
C17 C16 1_555 1_555
C18 C17 1_555 1_555
C19 C18 1_555 1_555
H13 C19 1_555 1_555
C20 C19 1_555 1_555
H14 C20 1_555 1_555
C21 C20 1_555 1_555
H15 C21 1_555 1_555
C22 C21 1_555 1_555
H16 C22 1_555 1_555
C23 C24 1_555 1_555
C24 H17 1_555 1_555
C25 C24 1_555 1_555
H18 C25 1_555 1_555
C26 C25 1_555 1_555
H19 C26 1_555 1_555
C27 C26 1_555 1_555
H20 C27 1_555 1_555
C28 C23 1_555 1_555
C29 C28 1_555 1_555
H21 C29 1_555 1_555
C30 H22 1_555 1_555
H23 C30 1_555 1_555
C31 C30 1_555 1_555
H24 C31 1_555 1_555
H25 C31 1_555 1_555
C32 H26 1_555 1_555
C33 C32 1_555 1_555
C34 C33 1_555 1_555
H27 C34 1_555 1_555
C35 C34 1_555 1_555
H28 C35 1_555 1_555
C36 C35 1_555 1_555
H29 C36 1_555 1_555
C37 C36 1_555 1_555
H30 C37 1_555 1_555
C38 C33 1_555 1_555
N2 C2 1_555 1_555
N3 Fe1 1_555 1_555
N4 Fe1 1_555 1_555
N5 Fe1 1_555 1_555
N6 Fe1 1_555 1_555
N7 Fe2 1_555 1_555
N8 Fe2 1_555 1_555
O1 Fe2 1_555 1_555
O2 Fe2 1_555 1_555
C39 H31 1_555 1_555
H32 C39 1_555 1_555
H33 C39 1_555 1_555
C40 H34 1_555 1_555
C41 H35 1_555 1_555
H36 C41 1_555 1_555
H37 C41 1_555 1_555
N9 C39 1_555 1_555
O3 C40 1_555 1_555
C42 H38 1_555 1_555
H39 C42 1_555 1_555
H40 C42 1_555 1_555
C43 C42 1_555 1_555
N10 C43 1_555 1_555
P1 F1 1_555 1_555
F2 P1 1_555 1_555
F3 P1 1_555 1_555
F4 P1 1_555 1_555
F5 P1 1_555 1_555
F6 P1 1_555 1_555
Fe2A N2 1_555 1_555
N2A Fe2 1_555 1_555
C3 N3 1_555 1_555
C7 N3 1_555 1_555
C8 N4 1_555 1_555
C12 N4 1_555 1_555
C13 N5 1_555 1_555
C17 N5 1_555 1_555
C18 N6 1_555 1_555
C22 N6 1_555 1_555
C23 O1 1_555 1_555
C27 C28 1_555 1_555
C29 N7 1_555 1_555
C30 N7 1_555 1_555
C31 N8 1_555 1_555
C32 N8 1_555 1_555
C37 C38 1_555 1_555
C38 O2 1_555 1_555
C40 N9 1_555 1_555
C41 N9 1_555 1_555

#END
