
#######################################################################
#
#                 Cambridge Crystallographic Data Centre
#                                CCDC 
#
#######################################################################
#
# If this CIF has been generated from an entry in the Cambridge 
# Structural Database, then it will include bibliographic, chemical, 
# crystal, experimental, refinement or atomic coordinate data resulting 
# from the CCDC's data processing and validation procedures.
#
#######################################################################

data_JOVLOX
_symmetry_cell_setting           monoclinic
_symmetry_space_group_name_H-M   'P 21/n'
_symmetry_Int_Tables_number      14
_space_group_name_Hall           '-P 2yn'
loop_
_symmetry_equiv_pos_site_id
_symmetry_equiv_pos_as_xyz
1 x,y,z
2 1/2-x,1/2+y,1/2-z
3 -x,-y,-z
4 1/2+x,1/2-y,1/2+z
_cell_length_a                   16.747(7)
_cell_length_b                   13.494(5)
_cell_length_c                   22.504(10)
_cell_angle_alpha                90
_cell_angle_beta                 105.667(7)
_cell_angle_gamma                90
_cell_volume                     4896.6
loop_
_atom_site_label
_atom_site_type_symbol
_atom_site_fract_x
_atom_site_fract_y
_atom_site_fract_z
Fe1 Fe 0.75370(3) -0.10314(4) -0.41571(2)
Fe2 Fe 0.73096(3) 0.19833(4) -0.28255(2)
C1 C 0.7299(2) 0.0163(3) -0.38004(17)
C2 C 0.7488(2) -0.1664(3) -0.34202(18)
C3 C 0.8123(3) 0.0051(3) -0.5136(2)
H1 H 0.8657 0.0043 -0.4873
C4 C 0.7985(4) 0.0508(4) -0.5719(2)
H2 H 0.8427 0.0787 -0.5837
C5 C 0.7205(4) 0.0542(4) -0.6109(2)
H3 H 0.7112 0.0850 -0.6492
C6 C 0.6548(3) 0.0112(4) -0.5931(2)
C7 C 0.6736(3) -0.0340(3) -0.53493(17)
C8 C 0.5697(4) 0.0097(4) -0.6295(2)
H4 H 0.5554 0.0412 -0.6676
C9 C 0.5107(4) -0.0359(4) -0.6098(2)
H5 H 0.4565 -0.0352 -0.6348
C10 C 0.5283(3) -0.0857(3) -0.5517(2)
C11 C 0.6105(2) -0.0820(3) -0.51425(18)
C12 C 0.4711(3) -0.1380(4) -0.5287(3)
H6 H 0.4162 -0.1434 -0.5521
C13 C 0.4957(3) -0.1805(4) -0.4728(3)
H7 H 0.4578 -0.2153 -0.4573
C14 C 0.5777(2) -0.1723(3) -0.4380(2)
H8 H 0.5932 -0.2020 -0.3993
C15 C 0.9169(3) -0.0148(3) -0.3467(2)
H9 H 0.8885 0.0420 -0.3408
C16 C 1.0027(3) -0.0192(4) -0.3200(2)
H10 H 1.0303 0.0342 -0.2973
C17 C 1.0456(3) -0.1025(4) -0.3273(2)
H11 H 1.1024 -0.1063 -0.3092
C18 C 1.0038(2) -0.1817(4) -0.3620(2)
C19 C 0.9181(2) -0.1711(3) -0.38771(17)
C20 C 1.0415(3) -0.2728(4) -0.3723(2)
H12 H 1.0983 -0.2812 -0.3558
C21 C 0.9967(3) -0.3462(4) -0.4053(2)
H13 H 1.0231 -0.4048 -0.4107
C22 C 0.9101(3) -0.3371(3) -0.4323(2)
C23 C 0.8714(2) -0.2490(3) -0.42296(17)
C24 C 0.8592(3) -0.4104(4) -0.4680(2)
H14 H 0.8817 -0.4704 -0.4759
C25 C 0.7763(3) -0.3926(3) -0.4911(2)
H15 H 0.7423 -0.4404 -0.5149
C26 C 0.7428(3) -0.3030(3) -0.4790(2)
H16 H 0.6862 -0.2922 -0.4954
C27 C 0.5653(2) 0.2851(3) -0.32967(18)
C28 C 0.5159(3) 0.3572(3) -0.3675(2)
H17 H 0.5390 0.3976 -0.3921
C29 C 0.4343(3) 0.3688(5) -0.3687(3)
H18 H 0.4029 0.4178 -0.3934
C30 C 0.3978(3) 0.3086(5) -0.3337(3)
H19 H 0.3421 0.3167 -0.3353
C31 C 0.4439(3) 0.2375(4) -0.2968(3)
H20 H 0.4192 0.1968 -0.2735
C32 C 0.5283(3) 0.2251(3) -0.2936(2)
C33 C 0.5714(3) 0.1470(3) -0.2538(2)
H21 H 0.5415 0.1106 -0.2320
C34 C 0.6874(8) 0.0581(13) -0.1928(8)
H22 H 0.6494 0.0061 -0.1884
H23 H 0.7028 0.0961 -0.1548
C35 C 0.7649(15) 0.0134(13) -0.2065(10)
H24 H 0.7995 -0.0194 -0.1703
H25 H 0.7496 -0.0339 -0.2401
C36 C 0.8872(3) 0.1073(3) -0.2061(2)
H26 H 0.9154 0.0620 -0.1768
C37 C 0.9365(3) 0.1794(3) -0.2275(2)
C38 C 1.0229(3) 0.1781(4) -0.2010(3)
H27 H 1.0451 0.1328 -0.1697
C39 C 1.0742(4) 0.2404(5) -0.2193(4)
H28 H 1.1310 0.2381 -0.2005
C40 C 1.0431(3) 0.3072(5) -0.2656(3)
H29 H 1.0789 0.3495 -0.2786
C41 C 0.9583(3) 0.3121(4) -0.2934(2)
H30 H 0.9378 0.3579 -0.3246
C42 C 0.9029(2) 0.2481(3) -0.27450(19)
N1 N 0.7169(2) 0.0868(3) -0.35494(15)
N2 N 0.7502(2) -0.2051(3) -0.29613(16)
N3 N 0.7517(2) -0.0366(2) -0.49530(14)
N4 N 0.63530(19) -0.1241(2) -0.45747(14)
N5 N 0.87427(18) -0.0886(2) -0.38038(14)
N6 N 0.78820(19) -0.2322(2) -0.44505(14)
N7 N 0.6476(2) 0.1240(3) -0.24617(17)
N8 N 0.8081(2) 0.0998(3) -0.22392(15)
O1 O 0.64339(16) 0.2767(2) -0.33106(12)
O2 O 0.82337(16) 0.2545(2) -0.30345(13)
Fe2A Fe 0.76904(3) -0.30167(4) -0.21745(2)
N2A N 0.7498(2) 0.2949(3) -0.20387(16)
C45 C 0.7210(5) -0.2392(6) -0.0448(3)
H35 H 0.7350 -0.2410 -0.0834
H36 H 0.6651 -0.2160 -0.0514
H37 H 0.7258 -0.3045 -0.0273
C46 C 0.7648(6) -0.1617(6) 0.0552(3)
H38 H 0.8053 -0.1163 0.0787
H39 H 0.7707 -0.2247 0.0758
H40 H 0.7102 -0.1361 0.0515
C47 C 0.8339(5) -0.1309(6) -0.0217(5)
H41 H 0.8370 -0.1410 -0.0619
N9 N 0.7766(3) -0.1734(3) -0.00320(19)
O3 O 0.8874(3) -0.0744(5) 0.0147(4)
C48 C 0.0123(5) 0.1745(6) -0.4521(4)
H42 H -0.0411 0.2015 -0.4728
H43 H 0.0061 0.1269 -0.4220
H44 H 0.0357 0.1428 -0.4817
C49 C 0.1506(4) 0.2309(6) -0.3870(4)
H45 H 0.1786 0.2908 -0.3700
H46 H 0.1794 0.2006 -0.4137
H47 H 0.1494 0.1861 -0.3541
C50 C 0.0409(4) 0.3473(5) -0.4256(3)
H48 H 0.0792 0.3956 -0.4071
N10 N 0.0668(3) 0.2539(4) -0.4216(2)
O4 O -0.0291(4) 0.3746(4) -0.4515(3)
O5 O 1.0666(3) -0.0838(4) 0.0521(2)
P1 P 0.23077(7) 0.53197(10) -0.28585(6)
F1 F 0.1679(7) 0.5214(11) -0.3505(5)
F2 F 0.1585(5) 0.5447(7) -0.2532(4)
F3 F 0.2972(5) 0.5475(7) -0.2216(4)
F4 F 0.3048(5) 0.5206(10) -0.3165(4)
F5 F 0.22726(19) 0.6457(2) -0.30350(19)
F6 F 0.2340(2) 0.4187(2) -0.26737(19)
C43? C 0.6804(13) 0.0224(18) -0.2219(16)
H31? H 0.6483 -0.0053 -0.1959
H32? H 0.6789 -0.0230 -0.2556
C44? C 0.765(2) 0.042(2) -0.1867(16)
H33? H 0.7937 -0.0200 -0.1743
H34? H 0.7648 0.0788 -0.1496
F7? F 0.2099(10) 0.4902(11) -0.3531(4)
F8? F 0.1354(4) 0.5311(8) -0.2926(6)
F9? F 0.3240(5) 0.5300(11) -0.2841(6)
F10? F 0.2517(10) 0.5690(10) -0.2185(4)
loop_
_geom_bond_atom_site_label_1
_geom_bond_atom_site_label_2
_geom_bond_site_symmetry_1
_geom_bond_site_symmetry_2
Fe1 C1 1_555 1_555
Fe2 N1 1_555 1_555
C1 N1 1_555 1_555
C2 Fe1 1_555 1_555
C3 H1 1_555 1_555
C4 C3 1_555 1_555
H2 C4 1_555 1_555
C5 C4 1_555 1_555
H3 C5 1_555 1_555
C6 C5 1_555 1_555
C7 C6 1_555 1_555
C8 C6 1_555 1_555
H4 C8 1_555 1_555
C9 C8 1_555 1_555
H5 C9 1_555 1_555
C10 C9 1_555 1_555
C11 C7 1_555 1_555
C12 C10 1_555 1_555
H6 C12 1_555 1_555
C13 C12 1_555 1_555
H7 C13 1_555 1_555
C14 C13 1_555 1_555
H8 C14 1_555 1_555
C15 H9 1_555 1_555
C16 C15 1_555 1_555
H10 C16 1_555 1_555
C17 C16 1_555 1_555
H11 C17 1_555 1_555
C18 C17 1_555 1_555
C19 C18 1_555 1_555
C20 C18 1_555 1_555
H12 C20 1_555 1_555
C21 C20 1_555 1_555
H13 C21 1_555 1_555
C22 C21 1_555 1_555
C23 C19 1_555 1_555
C24 C22 1_555 1_555
H14 C24 1_555 1_555
C25 C24 1_555 1_555
H15 C25 1_555 1_555
C26 C25 1_555 1_555
H16 C26 1_555 1_555
C27 C28 1_555 1_555
C28 H17 1_555 1_555
C29 C28 1_555 1_555
H18 C29 1_555 1_555
C30 C29 1_555 1_555
H19 C30 1_555 1_555
C31 C30 1_555 1_555
H20 C31 1_555 1_555
C32 C27 1_555 1_555
C33 C32 1_555 1_555
H21 C33 1_555 1_555
C34 H22 1_555 1_555
H23 C34 1_555 1_555
C35 C34 1_555 1_555
H24 C35 1_555 1_555
H25 C35 1_555 1_555
C36 H26 1_555 1_555
C37 C36 1_555 1_555
C38 C37 1_555 1_555
H27 C38 1_555 1_555
C39 C38 1_555 1_555
H28 C39 1_555 1_555
C40 C39 1_555 1_555
H29 C40 1_555 1_555
C41 C40 1_555 1_555
H30 C41 1_555 1_555
C42 C37 1_555 1_555
N2 C2 1_555 1_555
N3 Fe1 1_555 1_555
N4 Fe1 1_555 1_555
N5 Fe1 1_555 1_555
N6 Fe1 1_555 1_555
N7 Fe2 1_555 1_555
N8 Fe2 1_555 1_555
O1 Fe2 1_555 1_555
O2 Fe2 1_555 1_555
C45 H35 1_555 1_555
H36 C45 1_555 1_555
H37 C45 1_555 1_555
C46 H38 1_555 1_555
H39 C46 1_555 1_555
H40 C46 1_555 1_555
C47 H41 1_555 1_555
N9 C45 1_555 1_555
O3 C47 1_555 1_555
C48 H42 1_555 1_555
H43 C48 1_555 1_555
H44 C48 1_555 1_555
C49 H45 1_555 1_555
H46 C49 1_555 1_555
H47 C49 1_555 1_555
C50 H48 1_555 1_555
N10 C48 1_555 1_555
O4 C50 1_555 1_555
P1 F1 1_555 1_555
F2 P1 1_555 1_555
F3 P1 1_555 1_555
F4 P1 1_555 1_555
F5 P1 1_555 1_555
F6 P1 1_555 1_555
Fe2A N2 1_555 1_555
N2A Fe2 1_555 1_555
C3 N3 1_555 1_555
C7 N3 1_555 1_555
C10 C11 1_555 1_555
C11 N4 1_555 1_555
C14 N4 1_555 1_555
C15 N5 1_555 1_555
C19 N5 1_555 1_555
C22 C23 1_555 1_555
C23 N6 1_555 1_555
C26 N6 1_555 1_555
C27 O1 1_555 1_555
C31 C32 1_555 1_555
C33 N7 1_555 1_555
C34 N7 1_555 1_555
C35 N8 1_555 1_555
C36 N8 1_555 1_555
C41 C42 1_555 1_555
C42 O2 1_555 1_555
C46 N9 1_555 1_555
C47 N9 1_555 1_555
C49 N10 1_555 1_555
C50 N10 1_555 1_555

#END
