
#######################################################################
#
#                 Cambridge Crystallographic Data Centre
#                                CCDC 
#
#######################################################################
#
# If this CIF has been generated from an entry in the Cambridge 
# Structural Database, then it will include bibliographic, chemical, 
# crystal, experimental, refinement or atomic coordinate data resulting 
# from the CCDC's data processing and validation procedures.
#
#######################################################################

data_JOVNUF
_symmetry_cell_setting           monoclinic
_symmetry_space_group_name_H-M   'P 2/c'
_symmetry_Int_Tables_number      13
_space_group_name_Hall           '-P 2yc'
loop_
_symmetry_equiv_pos_site_id
_symmetry_equiv_pos_as_xyz
1 x,y,z
2 -x,y,1/2-z
3 -x,-y,-z
4 x,-y,1/2+z
_cell_length_a                   19.693(4)
_cell_length_b                   16.245(3)
_cell_length_c                   26.761(8)
_cell_angle_alpha                90
_cell_angle_beta                 132.800(18)
_cell_angle_gamma                90
_cell_volume                     6281.6
loop_
_atom_site_label
_atom_site_type_symbol
_atom_site_fract_x
_atom_site_fract_y
_atom_site_fract_z
Mo1 Mo 0.15863(8) 0.17971(5) 0.30471(5)
Mo2 Mo 0.22587(7) 0.02414(6) 0.41502(5)
Mo3 Mo 0.06418(8) 0.16286(5) 0.37392(5)
Mo4 Mo 0.05038(6) -0.12838(5) 0.37084(4)
Mo5 Mo -0.12309(7) 0.01013(5) 0.30425(5)
Mo6 Mo -0.15273(6) -0.14522(5) 0.20525(4)
P1 P 0.0000 0.01705(19) 0.2500
O1 O 0.2309(7) 0.2476(5) 0.3149(5)
O2 O 0.1706(6) 0.0887(5) 0.2612(4)
O3 O 0.2507(5) 0.1107(4) 0.3854(4)
O4 O 0.1300(6) 0.2249(5) 0.3518(4)
O5 O 0.3267(7) 0.0054(6) 0.4929(4)
O6 O 0.1739(6) 0.1066(4) 0.4368(4)
O7 O 0.0698(7) 0.2348(5) 0.4214(5)
O8 O -0.0468(6) 0.2005(4) 0.2804(4)
O9 O 0.0781(5) 0.0717(4) 0.3099(3)
O10 O 0.1407(5) -0.0511(4) 0.4116(4)
O11 O -0.0114(6) 0.0850(4) 0.3638(4)
O12 O 0.0974(5) -0.1997(4) 0.4314(3)
O13 O -0.0261(5) -0.0722(4) 0.3747(4)
O14 O -0.0374(5) -0.0375(4) 0.2726(3)
O15 O -0.1759(6) 0.0302(4) 0.3321(4)
O16 O -0.0636(5) -0.1900(4) 0.2904(3)
O17 O -0.1875(5) -0.0772(5) 0.2478(4)
O18 O -0.0965(5) -0.1656(4) 0.1734(3)
O19 O -0.2180(5) -0.0543(4) 0.1385(4)
O20 O -0.2371(5) -0.2146(4) 0.1663(4)
O9A O -0.0781(5) 0.0717(4) 0.1901(3)
O14A O 0.0374(5) -0.0375(4) 0.2274(3)
Mo1A Mo -0.15863(8) 0.17971(5) 0.19529(5)
Mo2A Mo -0.22587(7) 0.02414(6) 0.08498(5)
Mo3A Mo -0.06418(8) 0.16286(5) 0.12608(5)
Mo4A Mo -0.05038(6) -0.12838(5) 0.12916(4)
Mo5A Mo 0.12309(7) 0.01013(5) 0.19575(5)
Mo6A Mo 0.15273(6) -0.14522(5) 0.29475(4)
O1A O -0.2309(7) 0.2476(5) 0.1851(5)
O2A O -0.1706(6) 0.0887(5) 0.2388(4)
O3A O -0.2507(5) 0.1107(4) 0.1146(4)
O4A O -0.1300(6) 0.2249(5) 0.1482(4)
O5A O -0.3267(7) 0.0054(6) 0.0071(4)
O6A O -0.1739(6) 0.1066(4) 0.0632(4)
O7A O -0.0698(7) 0.2348(5) 0.0786(5)
O8A O 0.0468(6) 0.2005(4) 0.2196(4)
O10A O -0.1407(5) -0.0511(4) 0.0884(4)
O11A O 0.0114(6) 0.0850(4) 0.1362(4)
O12A O -0.0974(5) -0.1997(4) 0.0686(3)
O13A O 0.0261(5) -0.0722(4) 0.1253(4)
O15A O 0.1759(6) 0.0302(4) 0.1679(4)
O16A O 0.0636(5) -0.1900(4) 0.2096(3)
O17A O 0.1875(5) -0.0772(5) 0.2522(4)
O18A O 0.0965(5) -0.1656(4) 0.3266(3)
O19A O 0.2180(5) -0.0543(4) 0.3615(4)
O20A O 0.2371(5) -0.2146(4) 0.3337(4)
Zn1 Zn 0.5000 0.60209(10) 0.2500
Zn2 Zn 0.5000 0.84836(11) 0.2500
F1 F 0.5000 0.7254(5) 0.2500
O21 O 0.5000 0.4657(6) 0.2500
O22 O 0.5000 0.9798(8) 0.2500
O23 O 0.0669(6) 0.5747(5) -0.0634(4)
O24 O 0.2831(6) 0.6051(5) -0.0779(5)
O25 O 0.9171(6) 0.6330(5) 0.3588(5)
O26 O 0.7144(5) 0.5996(5) 0.1288(4)
O27 O 0.3571(5) 0.8426(5) 0.1933(4)
O28 O 0.5271(6) 0.8446(6) 0.3412(4)
N1 N 0.3894(6) 0.5979(5) 0.1407(5)
N2 N 0.1737(6) 0.5935(5) -0.0723(5)
N3 N 0.6007(6) 0.6029(5) 0.2421(4)
N4 N 0.8150(6) 0.6207(5) 0.2432(5)
N5 N 0.2022(6) 0.8609(6) 0.1135(5)
N6 N 0.5248(10) 0.8476(9) 0.4225(7)
C1 C 0.3809(9) 0.5375(8) 0.1044(6)
H1 H 0.4262 0.4952 0.1277
C2 C 0.3103(10) 0.5311(8) 0.0343(7)
H2 H 0.3064 0.4860 0.0098
C3 C 0.2461(7) 0.5939(7) 0.0022(5)
C4 C 0.2539(9) 0.6544(8) 0.0395(6)
H3 H 0.2073 0.6955 0.0181
C5 C 0.3277(8) 0.6577(7) 0.1078(6)
H4 H 0.3351 0.7043 0.1325
C6 C 0.0816(7) 0.5843(6) -0.1006(6)
C7 C 0.0098(8) 0.5879(6) -0.1758(6)
C8 C -0.0810(7) 0.5863(6) -0.2069(6)
H5 H -0.0968 0.5840 -0.1804
C9 C 0.0353(7) 0.5899(5) -0.2140(5)
C10 C 0.1281(7) 0.5899(6) -0.1831(5)
C11 C 0.1507(9) 0.5881(7) -0.2218(6)
H6 H 0.2139 0.5881 -0.2000
C12 C 0.2022(8) 0.5968(6) -0.1073(6)
C13 C 0.6034(7) 0.6664(6) 0.2108(6)
H7 H 0.5567 0.7074 0.1892
C14 C 0.6713(7) 0.6735(7) 0.2093(6)
H8 H 0.6708 0.7183 0.1862
C15 C 0.7419(8) 0.6137(7) 0.2424(6)
C16 C 0.7355(8) 0.5481(7) 0.2718(7)
H9 H 0.7801 0.5052 0.2930
C17 C 0.6644(8) 0.5452(7) 0.2702(7)
H10 H 0.6610 0.4993 0.2904
C18 C 0.9058(8) 0.6273(6) 0.3086(7)
C19 C 0.9837(7) 0.6273(6) 0.3108(6)
C20 C 1.0716(7) 0.6262(6) 0.3721(5)
H11 H 1.0836 0.6272 0.4129
C21 C 0.9614(7) 0.6241(5) 0.2480(5)
C22 C 0.8702(7) 0.6237(6) 0.1844(6)
C23 C 0.8538(8) 0.6235(6) 0.1257(6)
H12 H 0.7918 0.6216 0.0828
C24 C 0.7928(7) 0.6133(6) 0.1808(6)
C25 C 0.2873(7) 0.8798(6) 0.1418(5)
C26 C 0.2837(8) 0.9451(8) 0.1026(6)
H13 H 0.2967 0.9227 0.0754
H14 H 0.3297 0.9884 0.1332
C27 C 0.1873(10) 0.9795(8) 0.0567(6)
H15 H 0.1639 0.9929 0.0112
H16 H 0.1850 1.0296 0.0766
C28 C 0.1315(8) 0.9095(7) 0.0523(5)
H17 H 0.0849 0.9310 0.0528
H18 H 0.0997 0.8764 0.0105
C29 C 0.1790(9) 0.7952(7) 0.1367(7)
H19 H 0.1566 0.7472 0.1069
H20 H 0.1305 0.8143 0.1354
H21 H 0.2341 0.7800 0.1835
C30 C 0.4934(8) 0.8720(8) 0.3631(7)
C31 C 0.4150(10) 0.9298(10) 0.3301(8)
H22 H 0.3553 0.9011 0.2950
H23 H 0.4198 0.9757 0.3083
C32 C 0.4219(12) 0.9612(12) 0.3862(9)
H24 H 0.3600 0.9711 0.3700
H25 H 0.4589 1.0124 0.4065
C33 C 0.4716(15) 0.8889(12) 0.4368(10)
H26 H 0.5137 0.9091 0.4844
H27 H 0.4263 0.8505 0.4293
C34 C 0.5951(14) 0.7881(12) 0.4658(9)
H28 H 0.6123 0.7627 0.4425
H29 H 0.5722 0.7456 0.4772
H30 H 0.6495 0.8148 0.5077
O23A O -0.0669(6) 0.5747(5) -0.4366(4)
O24A O -0.2831(6) 0.6051(5) -0.4221(5)
N1A N -0.3894(6) 0.5979(5) -0.6407(5)
N2A N -0.1737(6) 0.5935(5) -0.4277(5)
C1A C -0.3809(9) 0.5375(8) -0.6044(6)
H1A H -0.4262 0.4952 -0.6277
C2A C -0.3103(10) 0.5311(8) -0.5343(7)
H2A H -0.3064 0.4860 -0.5098
C3A C -0.2461(7) 0.5939(7) -0.5022(5)
C4A C -0.2539(9) 0.6544(8) -0.5395(6)
H3A H -0.2073 0.6955 -0.5181
C5A C -0.3277(8) 0.6577(7) -0.6078(6)
H4A H -0.3351 0.7043 -0.6325
C6A C -0.0816(7) 0.5843(6) -0.3994(6)
C7A C -0.0098(8) 0.5879(6) -0.3242(6)
C8A C 0.0810(7) 0.5863(6) -0.2931(6)
H5A H 0.0968 0.5840 -0.3196
C9A C -0.0353(7) 0.5899(5) -0.2860(5)
C10A C -0.1281(7) 0.5899(6) -0.3169(5)
C11A C -0.1507(9) 0.5881(7) -0.2782(6)
H6A H -0.2139 0.5881 -0.3000
C12A C -0.2022(8) 0.5968(6) -0.3927(6)
O25A O 1.0829(6) 0.6330(5) 0.1412(5)
O26A O 1.2856(5) 0.5996(5) 0.3712(4)
N3A N 1.3993(6) 0.6029(5) 0.2579(4)
N4A N 1.1850(6) 0.6207(5) 0.2568(5)
C13A C 1.3966(7) 0.6664(6) 0.2892(6)
H7A H 1.4433 0.7074 0.3108
C14A C 1.3287(7) 0.6735(7) 0.2907(6)
H8A H 1.3292 0.7183 0.3138
C15A C 1.2581(8) 0.6137(7) 0.2576(6)
C16A C 1.2645(8) 0.5481(7) 0.2282(7)
H9A H 1.2199 0.5052 0.2070
C17A C 1.3356(8) 0.5452(7) 0.2298(7)
H10A H 1.3390 0.4993 0.2096
C18A C 1.0942(8) 0.6273(6) 0.1914(7)
C19A C 1.0163(7) 0.6273(6) 0.1892(6)
C20A C 0.9284(7) 0.6262(6) 0.1279(5)
H11A H 0.9164 0.6272 0.0871
C21A C 1.0386(7) 0.6241(5) 0.2520(5)
C22A C 1.1298(7) 0.6237(6) 0.3156(6)
C23A C 1.1462(8) 0.6235(6) 0.3743(6)
H12A H 1.2082 0.6216 0.4172
C24A C 1.2072(7) 0.6133(6) 0.3192(6)
O27A O 0.6429(5) 0.8426(5) 0.3067(4)
N5A N 0.7978(6) 0.8609(6) 0.3865(5)
C25A C 0.7127(7) 0.8798(6) 0.3582(5)
C26A C 0.7163(8) 0.9451(8) 0.3974(6)
H13A H 0.7033 0.9227 0.4246
H14A H 0.6703 0.9884 0.3668
C27A C 0.8127(10) 0.9795(8) 0.4433(6)
H15A H 0.8361 0.9929 0.4888
H16A H 0.8150 1.0296 0.4234
C28A C 0.8685(8) 0.9095(7) 0.4477(5)
H17A H 0.9151 0.9310 0.4472
H18A H 0.9003 0.8764 0.4895
C29A C 0.8210(9) 0.7952(7) 0.3633(7)
H19A H 0.8434 0.7472 0.3931
H20A H 0.8695 0.8143 0.3646
H21A H 0.7659 0.7800 0.3165
O28A O 0.4729(6) 0.8446(6) 0.1588(4)
N6A N 0.4752(10) 0.8476(9) 0.0775(7)
C30A C 0.5066(8) 0.8720(8) 0.1369(7)
C31A C 0.5850(10) 0.9298(10) 0.1699(8)
H22A H 0.6447 0.9011 0.2050
H23A H 0.5802 0.9757 0.1917
C32A C 0.5781(12) 0.9612(12) 0.1138(9)
H24A H 0.6400 0.9711 0.1300
H25A H 0.5411 1.0124 0.0935
C33A C 0.5284(15) 0.8889(12) 0.0632(10)
H26A H 0.4863 0.9091 0.0156
H27A H 0.5737 0.8505 0.0707
C34A C 0.4049(14) 0.7881(12) 0.0342(9)
H28A H 0.3877 0.7627 0.0575
H29A H 0.4278 0.7456 0.0228
H30A H 0.3505 0.8148 -0.0077
Zn1_2 Zn -0.5000 0.60209(10) -0.7500
Zn1_3 Zn 1.5000 0.60209(10) 0.2500
N1A_2 N 0.6106(6) 0.5979(5) 0.3593(5)
N3A_2 N 0.3993(6) 0.6029(5) 0.2579(4)
loop_
_geom_bond_atom_site_label_1
_geom_bond_atom_site_label_2
_geom_bond_site_symmetry_1
_geom_bond_site_symmetry_2
Mo1 O1 1_555 1_555
Mo2 O3 1_555 1_555
Mo3 O4 1_555 1_555
Mo4 O10 1_555 1_555
Mo5 O11 1_555 1_555
Mo6 O14 1_555 1_555
P1 O9 1_555 1_555
O2 Mo1 1_555 1_555
O3 Mo1 1_555 1_555
O4 Mo1 1_555 1_555
O5 Mo2 1_555 1_555
O6 Mo2 1_555 1_555
O7 Mo3 1_555 1_555
O8 Mo3 1_555 1_555
O9 Mo1 1_555 1_555
O10 Mo2 1_555 1_555
O11 Mo3 1_555 1_555
O12 Mo4 1_555 1_555
O13 Mo4 1_555 1_555
O14 Mo4 1_555 1_555
O15 Mo5 1_555 1_555
O16 Mo4 1_555 1_555
O17 Mo5 1_555 1_555
O18 Mo6 1_555 1_555
O19 Mo6 1_555 1_555
O20 Mo6 1_555 1_555
Zn1 F1 1_555 1_555
Zn2 F1 1_555 1_555
O21 Zn1 1_555 1_555
O22 Zn2 1_555 1_555
O23 C6 1_555 1_555
O24 C12 1_555 1_555
O25 C18 1_555 1_555
O26 C24 1_555 1_555
O27 Zn2 1_555 1_555
O28 Zn2 1_555 1_555
N1 Zn1 1_555 1_555
N2 C3 1_555 1_555
N3 Zn1 1_555 1_555
N4 C15 1_555 1_555
N5 C25 1_555 1_555
N6 C30 1_555 1_555
C1 N1 1_555 1_555
H1 C1 1_555 1_555
C2 C1 1_555 1_555
H2 C2 1_555 1_555
C3 C2 1_555 1_555
C4 C3 1_555 1_555
H3 C4 1_555 1_555
C5 N1 1_555 1_555
H4 C5 1_555 1_555
C6 N2 1_555 1_555
C7 C6 1_555 1_555
C8 C7 1_555 1_555
H5 C8 1_555 1_555
C9 C7 1_555 1_555
C10 C9 1_555 1_555
C11 C10 1_555 1_555
H6 C11 1_555 1_555
C12 N2 1_555 1_555
C13 N3 1_555 1_555
H7 C13 1_555 1_555
C14 C13 1_555 1_555
H8 C14 1_555 1_555
C15 C14 1_555 1_555
C16 C15 1_555 1_555
H9 C16 1_555 1_555
C17 N3 1_555 1_555
H10 C17 1_555 1_555
C18 N4 1_555 1_555
C19 C18 1_555 1_555
C20 C19 1_555 1_555
H11 C20 1_555 1_555
C21 C19 1_555 1_555
C22 C21 1_555 1_555
C23 C22 1_555 1_555
H12 C23 1_555 1_555
C24 N4 1_555 1_555
C25 O27 1_555 1_555
C26 C25 1_555 1_555
H13 C26 1_555 1_555
H14 C26 1_555 1_555
C27 C26 1_555 1_555
H15 C27 1_555 1_555
H16 C27 1_555 1_555
C28 N5 1_555 1_555
H17 C28 1_555 1_555
H18 C28 1_555 1_555
C29 N5 1_555 1_555
H19 C29 1_555 1_555
H20 C29 1_555 1_555
H21 C29 1_555 1_555
C30 O28 1_555 1_555
C31 C30 1_555 1_555
H22 C31 1_555 1_555
H23 C31 1_555 1_555
C32 C31 1_555 1_555
H24 C32 1_555 1_555
H25 C32 1_555 1_555
C33 N6 1_555 1_555
H26 C33 1_555 1_555
H27 C33 1_555 1_555
C34 N6 1_555 1_555
H28 C34 1_555 1_555
H29 C34 1_555 1_555
H30 C34 1_555 1_555
O9A P1 1_555 1_555
O14A P1 1_555 1_555
Mo1A O8 1_555 1_555
Mo2A O19 1_555 1_555
Mo3A O9A 1_555 1_555
Mo4A O18 1_555 1_555
Mo5A O2 1_555 1_555
Mo6A O14A 1_555 1_555
O1A Mo1A 1_555 1_555
O2A Mo5 1_555 1_555
O3A Mo1A 1_555 1_555
O4A Mo1A 1_555 1_555
O5A Mo2A 1_555 1_555
O6A Mo2A 1_555 1_555
O7A Mo3A 1_555 1_555
O8A Mo1 1_555 1_555
O10A Mo2A 1_555 1_555
O11A Mo3A 1_555 1_555
O12A Mo4A 1_555 1_555
O13A Mo4A 1_555 1_555
O15A Mo5A 1_555 1_555
O16A Mo4A 1_555 1_555
O17A Mo5A 1_555 1_555
O18A Mo4 1_555 1_555
O19A Mo2 1_555 1_555
O20A Mo6A 1_555 1_555
O23A C6A 1_555 1_555
O24A C12A 1_555 1_555
N1A C1A 1_555 1_555
N2A C3A 1_555 1_555
C1A H1A 1_555 1_555
C2A C1A 1_555 1_555
H2A C2A 1_555 1_555
C3A C2A 1_555 1_555
C4A C3A 1_555 1_555
H3A C4A 1_555 1_555
C5A N1A 1_555 1_555
H4A C5A 1_555 1_555
C6A N2A 1_555 1_555
C7A C6A 1_555 1_555
C8A C11 1_555 1_555
H5A C8A 1_555 1_555
C9A C9 1_555 1_555
C10A C9A 1_555 1_555
C11A C8 1_555 1_555
H6A C11A 1_555 1_555
C12A N2A 1_555 1_555
O25A C18A 1_555 1_555
O26A C24A 1_555 1_555
N3A C13A 1_555 1_555
N4A C15A 1_555 1_555
C13A H7A 1_555 1_555
C14A C13A 1_555 1_555
H8A C14A 1_555 1_555
C15A C14A 1_555 1_555
C16A C15A 1_555 1_555
H9A C16A 1_555 1_555
C17A N3A 1_555 1_555
H10A C17A 1_555 1_555
C18A N4A 1_555 1_555
C19A C18A 1_555 1_555
C20A C23 1_555 1_555
H11A C20A 1_555 1_555
C21A C21 1_555 1_555
C22A C21A 1_555 1_555
C23A C20 1_555 1_555
H12A C23A 1_555 1_555
C24A N4A 1_555 1_555
O27A Zn2 1_555 1_555
N5A C25A 1_555 1_555
C25A O27A 1_555 1_555
C26A C25A 1_555 1_555
H13A C26A 1_555 1_555
H14A C26A 1_555 1_555
C27A C26A 1_555 1_555
H15A C27A 1_555 1_555
H16A C27A 1_555 1_555
C28A N5A 1_555 1_555
H17A C28A 1_555 1_555
H18A C28A 1_555 1_555
C29A N5A 1_555 1_555
H19A C29A 1_555 1_555
H20A C29A 1_555 1_555
H21A C29A 1_555 1_555
O28A Zn2 1_555 1_555
N6A C30A 1_555 1_555
C30A O28A 1_555 1_555
C31A C30A 1_555 1_555
H22A C31A 1_555 1_555
H23A C31A 1_555 1_555
C32A C31A 1_555 1_555
H24A C32A 1_555 1_555
H25A C32A 1_555 1_555
C33A N6A 1_555 1_555
H26A C33A 1_555 1_555
H27A C33A 1_555 1_555
C34A N6A 1_555 1_555
H28A C34A 1_555 1_555
H29A C34A 1_555 1_555
H30A C34A 1_555 1_555
Zn1_2 N1A 1_555 1_555
Zn1_3 N3A 1_555 1_555
N1A_2 Zn1 1_555 1_555
N3A_2 Zn1 1_555 1_555
Mo2 O9 1_555 1_555
Mo3 O6 1_555 1_555
Mo3 O9 1_555 1_555
Mo5 O13 1_555 1_555
Mo5 O14 1_555 1_555
Mo6 O16 1_555 1_555
Mo6 O17 1_555 1_555
P1 O14 1_555 1_555
C4 C5 1_555 1_555
C10 C12 1_555 1_555
C16 C17 1_555 1_555
C22 C24 1_555 1_555
C27 C28 1_555 1_555
C32 C33 1_555 1_555
O9A Mo1A 1_555 1_555
O9A Mo2A 1_555 1_555
O14A Mo4A 1_555 1_555
O14A Mo5A 1_555 1_555
Mo1A O2A 1_555 1_555
Mo2A O3A 1_555 1_555
Mo3A O4A 1_555 1_555
Mo3A O6A 1_555 1_555
Mo3A O8A 1_555 1_555
Mo4A O10A 1_555 1_555
Mo5A O11A 1_555 1_555
Mo5A O13A 1_555 1_555
Mo6A O16A 1_555 1_555
Mo6A O17A 1_555 1_555
Mo6A O18A 1_555 1_555
Mo6A O19A 1_555 1_555
C4A C5A 1_555 1_555
C7A C8A 1_555 1_555
C7A C9A 1_555 1_555
C10A C11A 1_555 1_555
C10A C12A 1_555 1_555
C16A C17A 1_555 1_555
C19A C20A 1_555 1_555
C19A C21A 1_555 1_555
C22A C23A 1_555 1_555
C22A C24A 1_555 1_555
C27A C28A 1_555 1_555
C32A C33A 1_555 1_555

#END
