
#######################################################################
#
#                 Cambridge Crystallographic Data Centre
#                                CCDC 
#
#######################################################################
#
# If this CIF has been generated from an entry in the Cambridge 
# Structural Database, then it will include bibliographic, chemical, 
# crystal, experimental, refinement or atomic coordinate data resulting 
# from the CCDC's data processing and validation procedures.
#
#######################################################################

data_JOVPOB
_symmetry_cell_setting           monoclinic
_symmetry_space_group_name_H-M   'P 21/n'
_symmetry_Int_Tables_number      14
_space_group_name_Hall           '-P 2yn'
loop_
_symmetry_equiv_pos_site_id
_symmetry_equiv_pos_as_xyz
1 x,y,z
2 1/2-x,1/2+y,1/2-z
3 -x,-y,-z
4 1/2+x,1/2-y,1/2+z
_cell_length_a                   12.948(4)
_cell_length_b                   14.609(5)
_cell_length_c                   24.110(7)
_cell_angle_alpha                90
_cell_angle_beta                 98.196(18)
_cell_angle_gamma                90
_cell_volume                     4514
loop_
_atom_site_label
_atom_site_type_symbol
_atom_site_fract_x
_atom_site_fract_y
_atom_site_fract_z
Fe1 Fe 0.50372(5) 0.52492(5) 0.31606(2)
Mn1 Mn 0.29732(5) 0.83081(6) 0.29409(3)
B1 B 0.6423(5) 0.4120(5) 0.4023(2)
N1 N 0.6360(3) 0.3666(3) 0.34531(17)
N2 N 0.5823(3) 0.4119(3) 0.30014(15)
N3 N 0.5329(3) 0.4178(3) 0.41879(14)
N4 N 0.4589(3) 0.4660(3) 0.38382(14)
N5 N 0.6860(3) 0.5091(3) 0.39963(15)
N6 N 0.6306(3) 0.5721(3) 0.36391(14)
N7 N 0.3055(3) 0.4494(4) 0.24463(17)
N8 N 0.5605(4) 0.6228(4) 0.21100(19)
N9 N 0.3832(3) 0.7020(4) 0.33164(18)
N10 N 0.1772(3) 0.7479(4) 0.2728(2)
N11 N 0.3338(3) 0.7934(4) 0.22049(17)
C1 C 0.7445(6) 0.2262(6) 0.3662(3)
H1 H 0.8013 0.2591 0.3872
H2 H 0.7716 0.1783 0.3451
H3 H 0.7017 0.1999 0.3915
C2 C 0.6814(4) 0.2892(4) 0.3277(2)
C3 C 0.6564(5) 0.2875(5) 0.2704(3)
H4 H 0.6767 0.2428 0.2467
C4 C 0.5972(4) 0.3622(5) 0.2542(2)
C5 C 0.5560(5) 0.3924(5) 0.1955(2)
H5 H 0.4838 0.4089 0.1935
H6 H 0.5627 0.3431 0.1699
H7 H 0.5951 0.4442 0.1857
C6 C 0.5527(5) 0.3308(5) 0.5095(2)
H8 H 0.5145 0.3265 0.5407
H9 H 0.6184 0.3604 0.5211
H10 H 0.5648 0.2704 0.4960
C7 C 0.4918(4) 0.3846(4) 0.46425(18)
C8 C 0.3892(4) 0.4125(4) 0.45671(19)
H11 H 0.3408 0.4003 0.4807
C9 C 0.3705(4) 0.4618(4) 0.40741(19)
C10 C 0.2697(4) 0.5061(5) 0.3821(2)
H12 H 0.2685 0.5685 0.3945
H13 H 0.2120 0.4734 0.3936
H14 H 0.2643 0.5046 0.3420
C11 C 0.8496(4) 0.5000(5) 0.4674(3)
H15 H 0.8817 0.4533 0.4476
H16 H 0.8153 0.4723 0.4959
H17 H 0.9021 0.5417 0.4844
C12 C 0.7715(3) 0.5510(5) 0.42734(19)
C13 C 0.7698(4) 0.6406(5) 0.4099(2)
H18 H 0.8184 0.6857 0.4222
C14 C 0.6824(3) 0.6507(4) 0.37083(19)
C15 C 0.6482(4) 0.7394(5) 0.3401(2)
H19 H 0.6415 0.7294 0.3004
H20 H 0.6994 0.7862 0.3506
H21 H 0.5822 0.7585 0.3499
C16 C 0.3799(4) 0.4797(4) 0.27070(19)
C17 C 0.5412(4) 0.5860(4) 0.2507(2)
C18 C 0.4284(4) 0.6345(4) 0.32743(18)
C19 C 0.4903(4) 0.9258(4) 0.2766(2)
C20 C 0.5723(5) 0.9835(5) 0.2981(3)
H22 H 0.5762 1.0049 0.3346
C21 C 0.6475(6) 1.0095(6) 0.2661(4)
H23 H 0.7005 1.0489 0.2813
C22 C 0.6458(6) 0.9789(7) 0.2132(4)
H24 H 0.6970 0.9972 0.1921
C23 C 0.5674(6) 0.9201(7) 0.1907(3)
H25 H 0.5669 0.8978 0.1545
C24 C 0.4864(4) 0.8927(5) 0.2224(2)
C25 C 0.4115(5) 0.8276(6) 0.1981(2)
H26 H 0.4185 0.8073 0.1622
C26 C 0.2715(5) 0.7145(8) 0.1961(3)
H27 H 0.3031 0.6597 0.2149
C27 C 0.2686(7) 0.6992(12) 0.1356(4)
H28 H 0.2632 0.7584 0.1172
H29 H 0.3348 0.6727 0.1297
C28 C 0.1933(8) 0.6464(10) 0.1101(4)
H30 H 0.2132 0.5831 0.1174
H31 H 0.1886 0.6563 0.0701
C29 C 0.0840(6) 0.6607(8) 0.1270(3)
H32 H 0.0522 0.7142 0.1078
H33 H 0.0407 0.6082 0.1148
C30 C 0.0865(6) 0.6728(9) 0.1885(4)
H34 H 0.0211 0.7001 0.1951
H35 H 0.0911 0.6129 0.2059
C31 C 0.1630(6) 0.7233(9) 0.2131(3)
H36 H 0.1425 0.7829 0.1965
C32 C 0.1222(4) 0.7102(5) 0.3100(3)
H37 H 0.0753 0.6644 0.2967
C33 C 0.1280(4) 0.7321(5) 0.3661(2)
C34 C 0.0617(5) 0.6840(6) 0.3988(4)
H38 H 0.0200 0.6360 0.3835
C35 C 0.0610(6) 0.7107(8) 0.4540(3)
H39 H 0.0179 0.6794 0.4752
C36 C 0.1190(6) 0.7789(8) 0.4778(3)
H40 H 0.1154 0.7957 0.5147
C37 C 0.1846(5) 0.8244(6) 0.4470(2)
H41 H 0.2271 0.8704 0.4644
C38 C 0.1902(4) 0.8042(5) 0.3902(2)
O1 O 0.4177(3) 0.9034(3) 0.30926(13)
O2 O 0.2538(3) 0.8555(3) 0.36341(13)
H42 H 0.677(4) 0.369(4) 0.423(2)
Mn1A Mn 0.20268(5) 0.33081(6) 0.20591(3)
N7A N 0.1945(3) 0.9494(4) 0.25537(17)
C39 C 0.4727(14) 0.5556(14) 0.0718(5)
H43 H 0.5264 0.5121 0.0673
H44 H 0.4320 0.5676 0.0361
H45 H 0.4284 0.5313 0.0970
O3 O 0.5192(7) 0.6388(10) 0.0943(3)
H46 H 0.5160 0.6774 0.0694
C40 C 0.6331(15) 1.0032(14) 0.4611(6)
H47 H 0.6258 1.0046 0.5002
H48 H 0.5729 0.9744 0.4404
H49 H 0.6390 1.0646 0.4478
O4 O 0.7493(19) 0.939(3) 0.4516(8)
H50 H 0.7838 0.9289 0.4822
O5 O 0.4575(9) 0.9173(7) 0.4417(3)
loop_
_geom_bond_atom_site_label_1
_geom_bond_atom_site_label_2
_geom_bond_site_symmetry_1
_geom_bond_site_symmetry_2
Fe1 N2 1_555 1_555
Mn1 N9 1_555 1_555
B1 N1 1_555 1_555
N1 N2 1_555 1_555
N2 C4 1_555 1_555
N3 B1 1_555 1_555
N4 Fe1 1_555 1_555
N5 B1 1_555 1_555
N6 Fe1 1_555 1_555
N7 C16 1_555 1_555
N8 C17 1_555 1_555
N9 C18 1_555 1_555
N10 Mn1 1_555 1_555
N11 Mn1 1_555 1_555
C1 H1 1_555 1_555
H2 C1 1_555 1_555
H3 C1 1_555 1_555
C2 N1 1_555 1_555
C3 C2 1_555 1_555
H4 C3 1_555 1_555
C4 C3 1_555 1_555
C5 C4 1_555 1_555
H5 C5 1_555 1_555
H6 C5 1_555 1_555
H7 C5 1_555 1_555
C6 H8 1_555 1_555
H9 C6 1_555 1_555
H10 C6 1_555 1_555
C7 N3 1_555 1_555
C8 C7 1_555 1_555
H11 C8 1_555 1_555
C9 N4 1_555 1_555
C10 C9 1_555 1_555
H12 C10 1_555 1_555
H13 C10 1_555 1_555
H14 C10 1_555 1_555
C11 H15 1_555 1_555
H16 C11 1_555 1_555
H17 C11 1_555 1_555
C12 N5 1_555 1_555
C13 C12 1_555 1_555
H18 C13 1_555 1_555
C14 N6 1_555 1_555
C15 C14 1_555 1_555
H19 C15 1_555 1_555
H20 C15 1_555 1_555
H21 C15 1_555 1_555
C16 Fe1 1_555 1_555
C17 Fe1 1_555 1_555
C18 Fe1 1_555 1_555
C19 C20 1_555 1_555
C20 H22 1_555 1_555
C21 C20 1_555 1_555
H23 C21 1_555 1_555
C22 C21 1_555 1_555
H24 C22 1_555 1_555
C23 C22 1_555 1_555
H25 C23 1_555 1_555
C24 C19 1_555 1_555
C25 N11 1_555 1_555
H26 C25 1_555 1_555
C26 N11 1_555 1_555
H27 C26 1_555 1_555
C27 C26 1_555 1_555
H28 C27 1_555 1_555
H29 C27 1_555 1_555
C28 C27 1_555 1_555
H30 C28 1_555 1_555
H31 C28 1_555 1_555
C29 C28 1_555 1_555
H32 C29 1_555 1_555
H33 C29 1_555 1_555
C30 C29 1_555 1_555
H34 C30 1_555 1_555
H35 C30 1_555 1_555
C31 N10 1_555 1_555
H36 C31 1_555 1_555
C32 N10 1_555 1_555
H37 C32 1_555 1_555
C33 C32 1_555 1_555
C34 C33 1_555 1_555
H38 C34 1_555 1_555
C35 C34 1_555 1_555
H39 C35 1_555 1_555
C36 C35 1_555 1_555
H40 C36 1_555 1_555
C37 C36 1_555 1_555
H41 C37 1_555 1_555
C38 C33 1_555 1_555
O1 Mn1 1_555 1_555
O2 Mn1 1_555 1_555
H42 B1 1_555 1_555
C39 H43 1_555 1_555
H44 C39 1_555 1_555
H45 C39 1_555 1_555
O3 C39 1_555 1_555
H46 O3 1_555 1_555
C40 H47 1_555 1_555
H48 C40 1_555 1_555
H49 C40 1_555 1_555
O4 C40 1_555 1_555
H50 O4 1_555 1_555
Mn1A N7 1_555 1_555
N7A Mn1 1_555 1_555
N3 N4 1_555 1_555
N5 N6 1_555 1_555
C1 C2 1_555 1_555
C6 C7 1_555 1_555
C8 C9 1_555 1_555
C11 C12 1_555 1_555
C13 C14 1_555 1_555
C19 O1 1_555 1_555
C23 C24 1_555 1_555
C24 C25 1_555 1_555
C26 C31 1_555 1_555
C30 C31 1_555 1_555
C37 C38 1_555 1_555
C38 O2 1_555 1_555

#END
