
#######################################################################
#
#                 Cambridge Crystallographic Data Centre
#                                CCDC 
#
#######################################################################
#
# If this CIF has been generated from an entry in the Cambridge 
# Structural Database, then it will include bibliographic, chemical, 
# crystal, experimental, refinement or atomic coordinate data resulting 
# from the CCDC's data processing and validation procedures.
#
#######################################################################

data_JOVQAO
_symmetry_cell_setting           triclinic
_symmetry_space_group_name_H-M   'P -1'
_symmetry_Int_Tables_number      2
_space_group_name_Hall           '-P 1'
loop_
_symmetry_equiv_pos_site_id
_symmetry_equiv_pos_as_xyz
1 x,y,z
2 -x,-y,-z
_cell_length_a                   8.6754(6)
_cell_length_b                   8.7753(7)
_cell_length_c                   19.8063(15)
_cell_angle_alpha                81.7620(10)
_cell_angle_beta                 83.5130(10)
_cell_angle_gamma                76.059(2)
_cell_volume                     1443.48
loop_
_atom_site_label
_atom_site_type_symbol
_atom_site_fract_x
_atom_site_fract_y
_atom_site_fract_z
C1 C 0.2665(6) 0.4340(6) 0.1961(2)
C2 C 0.4053(6) 0.4324(6) 0.2361(2)
C3 C 0.3760(6) 0.5215(7) 0.2910(3)
H1 H 0.2732 0.5783 0.3021
C4 C 0.4995(7) 0.5258(7) 0.3291(3)
H2 H 0.4781 0.5821 0.3668
C5 C 0.6837(6) 0.3601(7) 0.2568(3)
H3 H 0.7876 0.3070 0.2451
C6 C 0.5615(6) 0.3501(6) 0.2190(2)
C7 C 0.6102(5) 0.2485(6) 0.1623(2)
C8 C 0.6371(5) 0.0520(5) 0.1030(2)
C9 C 0.7207(5) 0.1592(5) 0.0696(2)
C10 C 0.6284(5) -0.0888(5) 0.0770(2)
C11 C 0.5491(5) -0.2050(5) 0.1084(2)
H4 H 0.4958 -0.1964 0.1516
C12 C 0.5506(5) -0.3321(5) 0.0748(2)
H5 H 0.4988 -0.4105 0.0951
C13 C 0.6311(5) -0.3423(5) 0.0095(2)
H6 H 0.6314 -0.4286 -0.0129
C14 C 0.7062(5) -0.1079(5) 0.0112(2)
C15 C 0.7926(5) 0.0046(5) -0.0249(2)
C16 C 0.8032(5) 0.1394(5) 0.0030(2)
C17 C 0.8907(5) 0.2420(5) -0.0358(2)
H7 H 0.9007 0.3329 -0.0192
C18 C 0.9612(6) 0.2045(6) -0.0989(2)
H8 H 1.0203 0.2702 -0.1253
C19 C 0.9446(5) 0.0690(6) -0.1234(2)
H9 H 0.9931 0.0465 -0.1663
C20 C 0.1957(6) 0.0702(6) 0.2501(2)
C21 C 0.1362(5) 0.0471(6) 0.3244(2)
C22 C 0.0270(8) 0.1653(10) 0.3526(3)
H10 H -0.0110 0.2605 0.3259
C23 C -0.0275(9) 0.1436(10) 0.4211(3)
H11 H -0.1054 0.2239 0.4388
C24 C 0.0278(6) 0.0108(7) 0.4632(2)
C25 C 0.1421(9) -0.1030(7) 0.4343(3)
H12 H 0.1845 -0.1964 0.4612
C26 C 0.1963(9) -0.0820(7) 0.3657(3)
H13 H 0.2769 -0.1604 0.3481
C27 C 0.6535(6) 0.4475(7) 0.3116(3)
H14 H 0.7364 0.4534 0.3364
N1 N 0.7053(4) 0.2834(4) 0.10782(19)
N2 N 0.7065(4) -0.2342(4) -0.02155(18)
N3 N 0.8620(4) -0.0297(4) -0.08773(17)
N4 N 0.5704(5) 0.1102(5) 0.16268(19)
O1 O 0.3024(4) 0.3683(4) 0.14130(15)
O2 O 0.1275(4) 0.4984(4) 0.21616(17)
O3 O 0.1046(4) 0.1704(4) 0.21119(15)
O4 O 0.3285(4) -0.0098(4) 0.23124(17)
O5 O -0.0301(4) 0.4240(4) 0.10420(17)
Cu1 Cu 0.18500(7) 0.22084(7) 0.11672(3)
H15 H -0.024(5) 0.458(6) 0.1415(14)
H16 H -0.106(4) 0.377(6) 0.108(2)
H17 H 0.505(6) 0.074(6) 0.190(3)
C20A C -0.1957(6) -0.0702(6) 0.7499(2)
C21A C -0.1362(5) -0.0471(6) 0.6756(2)
C22A C -0.0270(8) -0.1653(10) 0.6474(3)
H10A H 0.0110 -0.2605 0.6741
C23A C 0.0275(9) -0.1436(10) 0.5789(3)
H11A H 0.1054 -0.2239 0.5612
C24A C -0.0278(6) -0.0108(7) 0.5368(2)
C25A C -0.1421(9) 0.1030(7) 0.5657(3)
H12A H -0.1845 0.1964 0.5388
C26A C -0.1963(9) 0.0820(7) 0.6343(3)
H13A H -0.2769 0.1604 0.6519
O3A O -0.1046(4) -0.1704(4) 0.78881(15)
O4A O -0.3285(4) 0.0098(4) 0.76876(17)
C1A C -0.2665(6) -0.4340(6) 0.8039(2)
C2A C -0.4053(6) -0.4324(6) 0.7639(2)
C3A C -0.3760(6) -0.5215(7) 0.7090(3)
H1A H -0.2732 -0.5783 0.6979
C4A C -0.4995(7) -0.5258(7) 0.6709(3)
H2A H -0.4781 -0.5821 0.6332
C5A C -0.6837(6) -0.3601(7) 0.7432(3)
H3A H -0.7876 -0.3070 0.7549
C6A C -0.5615(6) -0.3501(6) 0.7810(2)
C7A C -0.6102(5) -0.2485(6) 0.8377(2)
C8A C -0.6371(5) -0.0520(5) 0.8970(2)
C9A C -0.7207(5) -0.1592(5) 0.9304(2)
C10A C -0.6284(5) 0.0888(5) 0.9230(2)
C11A C -0.5491(5) 0.2050(5) 0.8916(2)
H4A H -0.4958 0.1964 0.8484
C12A C -0.5506(5) 0.3321(5) 0.9252(2)
H5A H -0.4988 0.4105 0.9049
C13A C -0.6311(5) 0.3423(5) 0.9905(2)
H6A H -0.6314 0.4286 1.0129
C14A C -0.7062(5) 0.1079(5) 0.9888(2)
C15A C -0.7926(5) -0.0046(5) 1.0249(2)
C16A C -0.8032(5) -0.1394(5) 0.9970(2)
C17A C -0.8907(5) -0.2420(5) 1.0358(2)
H7A H -0.9007 -0.3329 1.0192
C18A C -0.9612(6) -0.2045(6) 1.0989(2)
H8A H -1.0203 -0.2702 1.1253
C19A C -0.9446(5) -0.0690(6) 1.1234(2)
H9A H -0.9931 -0.0465 1.1663
C27A C -0.6535(6) -0.4475(7) 0.6884(3)
H14A H -0.7364 -0.4534 0.6636
N1A N -0.7053(4) -0.2834(4) 0.89218(19)
N2A N -0.7065(4) 0.2342(4) 1.02155(18)
N3A N -0.8620(4) 0.0297(4) 1.08773(17)
N4A N -0.5704(5) -0.1102(5) 0.83732(19)
O1A O -0.3024(4) -0.3683(4) 0.85870(15)
O2A O -0.1275(4) -0.4984(4) 0.78384(17)
O5A O 0.0301(4) -0.4240(4) 0.89580(17)
Cu1A Cu -0.18500(7) -0.22084(7) 0.88328(3)
H15A H 0.024(5) -0.458(6) 0.8585(14)
H16A H 0.106(4) -0.377(6) 0.892(2)
H17A H -0.505(6) -0.074(6) 0.810(3)
N2_2 N -0.2935(4) -0.2342(4) 0.97845(18)
N2A_2 N 0.2935(4) 0.2342(4) 0.02155(18)
N3_2 N -0.1380(4) -0.0297(4) 0.91227(17)
N3A_2 N 0.1380(4) 0.0297(4) 0.08773(17)
Cu1_2 Cu -0.81500(7) 0.22084(7) 1.11672(3)
Cu1A_2 Cu 0.81500(7) -0.22084(7) -0.11672(3)
C28 C 0.8501(7) -0.2460(7) 0.3043(3)
C29 C 0.7480(7) -0.1766(7) 0.3640(3)
C30 C 0.7582(8) -0.2482(8) 0.4294(3)
H18 H 0.8309 -0.3439 0.4388
C31 C 0.6592(8) -0.1777(8) 0.4822(3)
H19 H 0.6670 -0.2286 0.5266
C32 C 0.5517(6) -0.0375(7) 0.4713(3)
C33 C 0.5435(10) 0.0320(9) 0.4043(3)
H20 H 0.4703 0.1272 0.3946
C34 C 0.6415(10) -0.0361(9) 0.3512(3)
H21 H 0.6344 0.0142 0.3067
O6 O 0.8352(6) -0.1887(6) 0.2459(2)
O7 O 0.9587(4) -0.3759(5) 0.32216(19)
C28A C 0.1499(7) 0.2460(7) 0.6957(3)
C29A C 0.2520(7) 0.1766(7) 0.6360(3)
C30A C 0.2418(8) 0.2482(8) 0.5706(3)
H18A H 0.1691 0.3439 0.5612
C31A C 0.3408(8) 0.1777(8) 0.5178(3)
H19A H 0.3330 0.2286 0.4734
C32A C 0.4483(6) 0.0375(7) 0.5287(3)
C33A C 0.4565(10) -0.0320(9) 0.5957(3)
H20A H 0.5297 -0.1272 0.6054
C34A C 0.3585(10) 0.0361(9) 0.6488(3)
H21A H 0.3656 -0.0142 0.6933
O6A O 0.1648(6) 0.1887(6) 0.7541(2)
O7A O 0.0413(4) 0.3759(5) 0.67784(19)
loop_
_geom_bond_atom_site_label_1
_geom_bond_atom_site_label_2
_geom_bond_site_symmetry_1
_geom_bond_site_symmetry_2
C1 C2 1_555 1_555
C2 C3 1_555 1_555
C3 H1 1_555 1_555
C4 C3 1_555 1_555
H2 C4 1_555 1_555
C5 H3 1_555 1_555
C6 C2 1_555 1_555
C7 C6 1_555 1_555
C8 C9 1_555 1_555
C9 C16 1_555 1_555
C10 C8 1_555 1_555
C11 C10 1_555 1_555
H4 C11 1_555 1_555
C12 C11 1_555 1_555
H5 C12 1_555 1_555
C13 C12 1_555 1_555
H6 C13 1_555 1_555
C14 C10 1_555 1_555
C15 C14 1_555 1_555
C16 C15 1_555 1_555
C17 C16 1_555 1_555
H7 C17 1_555 1_555
C18 C17 1_555 1_555
H8 C18 1_555 1_555
C19 C18 1_555 1_555
H9 C19 1_555 1_555
C20 C21 1_555 1_555
C21 C22 1_555 1_555
C22 H10 1_555 1_555
C23 C22 1_555 1_555
H11 C23 1_555 1_555
C24 C23 1_555 1_555
C25 C24 1_555 1_555
H12 C25 1_555 1_555
C26 C21 1_555 1_555
H13 C26 1_555 1_555
C27 C4 1_555 1_555
H14 C27 1_555 1_555
N1 C7 1_555 1_555
N2 C13 1_555 1_555
N3 C15 1_555 1_555
N4 C7 1_555 1_555
O1 C1 1_555 1_555
O2 C1 1_555 1_555
O3 C20 1_555 1_555
O4 C20 1_555 1_555
O5 Cu1 1_555 1_555
Cu1 O1 1_555 1_555
H15 O5 1_555 1_555
H16 O5 1_555 1_555
H17 N4 1_555 1_555
C28 C29 1_555 1_555
C29 C30 1_555 1_555
C30 H18 1_555 1_555
C31 C30 1_555 1_555
H19 C31 1_555 1_555
C32 C31 1_555 1_555
C33 C32 1_555 1_555
H20 C33 1_555 1_555
C34 C29 1_555 1_555
H21 C34 1_555 1_555
O6 C28 1_555 1_555
O7 C28 1_555 1_555
C20A C21A 1_555 1_555
C21A C22A 1_555 1_555
C22A H10A 1_555 1_555
C23A C22A 1_555 1_555
H11A C23A 1_555 1_555
C24A C24 1_555 1_555
C25A C24A 1_555 1_555
H12A C25A 1_555 1_555
C26A C21A 1_555 1_555
H13A C26A 1_555 1_555
O3A C20A 1_555 1_555
O4A C20A 1_555 1_555
C1A C2A 1_555 1_555
C2A C3A 1_555 1_555
C3A H1A 1_555 1_555
C4A C3A 1_555 1_555
H2A C4A 1_555 1_555
C5A H3A 1_555 1_555
C6A C2A 1_555 1_555
C7A C6A 1_555 1_555
C8A C9A 1_555 1_555
C9A C16A 1_555 1_555
C10A C8A 1_555 1_555
C11A C10A 1_555 1_555
H4A C11A 1_555 1_555
C12A C11A 1_555 1_555
H5A C12A 1_555 1_555
C13A C12A 1_555 1_555
H6A C13A 1_555 1_555
C14A C10A 1_555 1_555
C15A C14A 1_555 1_555
C16A C15A 1_555 1_555
C17A C16A 1_555 1_555
H7A C17A 1_555 1_555
C18A C17A 1_555 1_555
H8A C18A 1_555 1_555
C19A C18A 1_555 1_555
H9A C19A 1_555 1_555
C27A C4A 1_555 1_555
H14A C27A 1_555 1_555
N1A C7A 1_555 1_555
N2A C13A 1_555 1_555
N3A C15A 1_555 1_555
N4A C7A 1_555 1_555
O1A C1A 1_555 1_555
O2A C1A 1_555 1_555
O5A Cu1A 1_555 1_555
Cu1A O3A 1_555 1_555
H15A O5A 1_555 1_555
H16A O5A 1_555 1_555
H17A N4A 1_555 1_555
N2_2 Cu1A 1_555 1_555
N2A_2 Cu1 1_555 1_555
N3_2 Cu1A 1_555 1_555
N3A_2 Cu1 1_555 1_555
Cu1_2 N2A 1_555 1_555
Cu1A_2 N2 1_555 1_555
C28A C29A 1_555 1_555
C29A C30A 1_555 1_555
C30A H18A 1_555 1_555
C31A C30A 1_555 1_555
H19A C31A 1_555 1_555
C32A C32 1_555 1_555
C33A C32A 1_555 1_555
H20A C33A 1_555 1_555
C34A C29A 1_555 1_555
H21A C34A 1_555 1_555
O6A C28A 1_555 1_555
O7A C28A 1_555 1_555
C5 C6 1_555 1_555
C5 C27 1_555 1_555
C8 N4 1_555 1_555
C9 N1 1_555 1_555
C14 N2 1_555 1_555
C19 N3 1_555 1_555
C25 C26 1_555 1_555
N3 Cu1A_2 1_555 1_555
O3 Cu1 1_555 1_555
C33 C34 1_555 1_555
C23A C24A 1_555 1_555
C25A C26A 1_555 1_555
C5A C6A 1_555 1_555
C5A C27A 1_555 1_555
C8A N4A 1_555 1_555
C9A N1A 1_555 1_555
C14A N2A 1_555 1_555
C19A N3A 1_555 1_555
N3A Cu1_2 1_555 1_555
O1A Cu1A 1_555 1_555
C31A C32A 1_555 1_555
C33A C34A 1_555 1_555

#END
