
#######################################################################
#
#                 Cambridge Crystallographic Data Centre
#                                CCDC 
#
#######################################################################
#
# If this CIF has been generated from an entry in the Cambridge 
# Structural Database, then it will include bibliographic, chemical, 
# crystal, experimental, refinement or atomic coordinate data resulting 
# from the CCDC's data processing and validation procedures.
#
#######################################################################

data_JOVSUI
_symmetry_cell_setting           monoclinic
_symmetry_space_group_name_H-M   'P 21/m'
_symmetry_Int_Tables_number      11
_space_group_name_Hall           '-P 2yb'
loop_
_symmetry_equiv_pos_site_id
_symmetry_equiv_pos_as_xyz
1 x,y,z
2 -x,1/2+y,-z
3 -x,-y,-z
4 x,1/2-y,z
_cell_length_a                   6.0070(4)
_cell_length_b                   22.329(1)
_cell_length_c                   5.8015(3)
_cell_angle_alpha                90
_cell_angle_beta                 105.784(5)
_cell_angle_gamma                90
_cell_volume                     748.816
loop_
_atom_site_label
_atom_site_type_symbol
_atom_site_fract_x
_atom_site_fract_y
_atom_site_fract_z
Cu1 Cu 0.41466(3) 0.25000 0.14609(3)
O1 O 0.4121(1) 0.33709(5) 0.1360(2)
O2 O 0.0954(2) 0.33490(5) 0.2638(2)
O3 O 0.2931(2) 0.48660(5) 0.6331(2)
O4 O 0.7565(2) 0.2500 0.0680(3)
O5 O 0.5374(3) 0.2500 0.5017(3)
O6 O 0.2203(3) 0.2500 -0.1926(3)
N1 N 0.0668(2) 0.45853(5) 0.2664(2)
C1 C 0.2469(2) 0.36223(5) 0.1997(2)
C2 C 0.2477(2) 0.42979(6) 0.1860(2)
C3 C 0.1069(2) 0.48468(5) 0.4789(2)
H1 H -0.066(3) 0.4602(9) 0.191(3)
H2 H 0.849(4) 0.2135(9) 0.113(4)
H3 H 0.633(6) 0.280(2) 0.554(7)
H4 H 0.146(3) 0.2206(9) -0.229(4)
H5 H 0.383(3) 0.446(1) 0.278(4)
H6 H 0.216(3) 0.441(1) 0.0223
O1C O 0.4121(1) 0.16291(5) 0.1360(2)
H2C H 0.849(4) 0.2865(9) 0.113(4)
H3C H 0.633(6) 0.220(2) 0.554(7)
H4C H 0.146(3) 0.2794(9) -0.229(4)
C3B C -0.1069(2) 0.51532(5) 0.5211(2)
O3B O -0.2931(2) 0.51340(5) 0.3669(2)
N1B N -0.0668(2) 0.54147(5) 0.7336(2)
C2B C -0.2477(2) 0.57021(6) 0.8140(2)
H1B H 0.066(3) 0.5398(9) 0.809(3)
C1B C -0.2469(2) 0.63777(5) 0.8003(2)
H5B H -0.383(3) 0.554(1) 0.722(4)
H6B H -0.216(3) 0.559(1) 0.9777
O1B O -0.4121(1) 0.66291(5) 0.8640(2)
O2B O -0.0954(2) 0.66510(5) 0.7362(2)
Cu1B Cu -0.41466(3) 0.75000 0.85391(3)
O7 O 0.3376(2) -0.08960(6) 0.1257(2)
H7 H 0.402(4) -0.106(1) 0.044(4)
H8 H 0.421(3) -0.072(1) 0.202(4)
O8 O 0.1066(3) 0.6670(1) 0.3565(3)
O9? O 0.0094(4) 0.6437(1) 0.3189(4)
loop_
_geom_bond_atom_site_label_1
_geom_bond_atom_site_label_2
_geom_bond_site_symmetry_1
_geom_bond_site_symmetry_2
Cu1 O1 1_555 1_555
O1 C1 1_555 1_555
O2 C1 1_555 1_555
O3 C3 1_555 1_555
O4 Cu1 1_555 1_555
O5 Cu1 1_555 1_555
O6 Cu1 1_555 1_555
O7 H7 1_555 1_555
N1 C2 1_555 1_555
C1 C2 1_555 1_555
C2 H5 1_555 1_555
C3 N1 1_555 1_555
H1 N1 1_555 1_555
H2 O4 1_555 1_555
H3 O5 1_555 1_555
H4 O6 1_555 1_555
H6 C2 1_555 1_555
H8 O7 1_555 1_555
O1C Cu1 1_555 1_555
H2C O4 1_555 1_555
H3C O5 1_555 1_555
H4C O6 1_555 1_555
C3B C3 1_555 1_555
O3B C3B 1_555 1_555
N1B C3B 1_555 1_555
C2B N1B 1_555 1_555
H1B N1B 1_555 1_555
C1B C2B 1_555 1_555
H5B C2B 1_555 1_555
H6B C2B 1_555 1_555
O1B C1B 1_555 1_555
O2B C1B 1_555 1_555
Cu1B O1B 1_555 1_555

#END
