
#######################################################################
#
#                 Cambridge Crystallographic Data Centre
#                                CCDC 
#
#######################################################################
#
# If this CIF has been generated from an entry in the Cambridge 
# Structural Database, then it will include bibliographic, chemical, 
# crystal, experimental, refinement or atomic coordinate data resulting 
# from the CCDC's data processing and validation procedures.
#
#######################################################################

data_JOVWUM
_symmetry_cell_setting           triclinic
_symmetry_space_group_name_H-M   'P -1'
_symmetry_Int_Tables_number      2
_space_group_name_Hall           '-P 1'
loop_
_symmetry_equiv_pos_site_id
_symmetry_equiv_pos_as_xyz
1 x,y,z
2 -x,-y,-z
_cell_length_a                   6.641(9)
_cell_length_b                   6.888(8)
_cell_length_c                   10.309(2)
_cell_angle_alpha                71.63(13)
_cell_angle_beta                 82.08(14)
_cell_angle_gamma                65.58(9)
_cell_volume                     407.484
loop_
_atom_site_label
_atom_site_type_symbol
_atom_site_fract_x
_atom_site_fract_y
_atom_site_fract_z
Cd1 Cd 0.3268(1) 0.3285(1) 0.4981(1)
Br1 Br 0.3605(2) -0.0826(2) 0.6575(1)
Br2 Br 0.0071(2) 0.5124(2) 0.6774(1)
O1 O 0.4116(13) 0.6424(12) 0.3922(7)
N1 N 0.3548(15) 0.7644(14) 0.2632(8)
C1 C 0.2040(19) 0.9727(18) 0.2410(10)
C2 C 0.1415(21) 1.1002(19) 0.1101(12)
C3 C 0.2321(20) 1.0120(20) 0.0030(11)
C4 C 0.3901(22) 0.7942(19) 0.0308(11)
C5 C 0.4502(20) 0.6713(18) 0.1618(11)
H1 H 0.1394 1.0322 0.3165
H2 H 0.0350 1.2510 0.0928
H3 H 0.1873 1.0981 -0.0893
H4 H 0.4575 0.7309 -0.0430
H5 H 0.5582 0.5209 0.1817
Br1A Br 0.6395(2) 0.0826(2) 0.3425(1)
Br2A Br -0.0071(2) 0.4876(2) 0.3226(1)
O1A O 0.5884(13) 0.3576(12) 0.6078(7)
Cd1A Cd 0.6732(1) -0.3285(1) 0.5019(1)
Cd1A_2 Cd -0.3268(1) 0.6715(1) 0.5019(1)
Cd1A_3 Cd 0.6732(1) 0.6715(1) 0.5019(1)
loop_
_geom_bond_atom_site_label_1
_geom_bond_atom_site_label_2
_geom_bond_site_symmetry_1
_geom_bond_site_symmetry_2
Cd1 Br1 1_555 1_555
Br1 Cd1A 1_555 1_555
Br2 Cd1 1_555 1_555
O1 Cd1 1_555 1_555
N1 O1 1_555 1_555
C1 N1 1_555 1_555
C2 C1 1_555 1_555
C3 C2 1_555 1_555
C4 C3 1_555 1_555
C5 N1 1_555 1_555
H1 C1 1_555 1_555
H2 C2 1_555 1_555
H3 C3 1_555 1_555
H4 C4 1_555 1_555
H5 C5 1_555 1_555
Br1A Cd1 1_555 1_555
Br2A Cd1 1_555 1_555
O1A Cd1 1_555 1_555
Cd1A Br1A 1_555 1_555
Cd1A_2 Br2 1_555 1_555
Cd1A_3 O1 1_555 1_555
C4 C5 1_555 1_555
Br2A Cd1A_2 1_555 1_555
O1A Cd1A_3 1_555 1_555

#END
