
#######################################################################
#
#                 Cambridge Crystallographic Data Centre
#                                CCDC 
#
#######################################################################
#
# If this CIF has been generated from an entry in the Cambridge 
# Structural Database, then it will include bibliographic, chemical, 
# crystal, experimental, refinement or atomic coordinate data resulting 
# from the CCDC's data processing and validation procedures.
#
#######################################################################

data_JOVWOG
_symmetry_cell_setting           orthorhombic
_symmetry_space_group_name_H-M   'P b c a'
_symmetry_Int_Tables_number      61
_space_group_name_Hall           '-P 2ac 2ab'
loop_
_symmetry_equiv_pos_site_id
_symmetry_equiv_pos_as_xyz
1 x,y,z
2 1/2-x,1/2+y,z
3 x,1/2-y,1/2+z
4 1/2-x,-y,1/2+z
5 -x,-y,-z
6 1/2+x,1/2-y,-z
7 -x,1/2+y,1/2-z
8 1/2+x,y,1/2-z
_cell_length_a                   11.102(17)
_cell_length_b                   7.672(5)
_cell_length_c                   22.653(18)
_cell_angle_alpha                90
_cell_angle_beta                 90
_cell_angle_gamma                90
_cell_volume                     1929.46
loop_
_atom_site_label
_atom_site_type_symbol
_atom_site_fract_x
_atom_site_fract_y
_atom_site_fract_z
Cd1 Cd 0.0000 0.0000 0.5000
Cd2 Cd -0.2317(1) -0.2866(1) 0.4197(1)
Cl1 Cl -0.2159(3) -0.5412(4) 0.3449(1)
Cl2 Cl -0.0044(2) -0.2501(4) 0.4241(2)
Cl3 Cl -0.2634(3) -0.5378(3) 0.5028(1)
O1 O -0.4394(7) -0.3240(10) 0.4264(4)
N1 N -0.5140(8) -0.2809(12) 0.3810(5)
C1 C -0.5089(12) -0.3610(16) 0.3292(5)
C2 C -0.5858(13) -0.3147(19) 0.2845(7)
C3 C -0.6709(13) -0.1924(22) 0.2952(7)
C4 C -0.6745(15) -0.1117(21) 0.3484(7)
C5 C -0.5941(11) -0.1546(17) 0.3926(7)
H1 H -0.4509 -0.4520 0.3229
H2 H -0.5794 -0.3681 0.2463
H3 H -0.7285 -0.1628 0.2652
H4 H -0.7339 -0.0233 0.3555
H5 H -0.5956 -0.0964 0.4301
Cd2A Cd -0.2683(1) -0.7866(1) 0.4197(1)
Cl1A Cl -0.2841(3) -0.0412(4) 0.3449(1)
Cd1A Cd -0.5000 -0.5000 0.5000
Cl2D Cl 0.0044(2) 0.2501(4) 0.5759(2)
Cd2D Cd 0.2317(1) 0.2866(1) 0.5803(1)
Cl1D Cl 0.2159(3) 0.5412(4) 0.6551(1)
Cl1E Cl 0.2841(3) 0.0412(4) 0.6551(1)
Cl3E Cl 0.2366(3) 0.0378(3) 0.4972(1)
Cl3A Cl -0.2366(3) -0.0378(3) 0.5028(1)
Cd2A_2 Cd -0.2683(1) 0.2134(1) 0.4197(1)
Cl1_2 Cl -0.2159(3) 0.4588(4) 0.3449(1)
Cl2A Cl -0.4956(2) 0.2499(4) 0.4241(2)
Cl3_2 Cl -0.2634(3) 0.4622(3) 0.5028(1)
O1A O -0.0606(7) 0.1760(10) 0.4264(4)
O1E O 0.0606(7) -0.1760(10) 0.5736(4)
Cd2E Cd 0.2683(1) -0.2134(1) 0.5803(1)
Cl1D_2 Cl 0.2159(3) -0.4588(4) 0.6551(1)
Cl2E Cl 0.4956(2) -0.2499(4) 0.5759(2)
Cl3D Cl 0.2634(3) -0.4622(3) 0.4972(1)
N1E N -0.0140(8) -0.2191(12) 0.6190(5)
C1E C -0.0089(12) -0.1390(16) 0.6708(5)
C2E C -0.0858(13) -0.1853(19) 0.7155(7)
C3E C -0.1709(13) -0.3076(22) 0.7048(7)
C4E C -0.1745(15) -0.3883(21) 0.6516(7)
C5E C -0.0941(11) -0.3454(17) 0.6074(7)
H5E H -0.0956 -0.4036 0.5699
H4E H -0.2339 -0.4767 0.6445
H3E H -0.2285 -0.3372 0.7348
H2E H -0.0794 -0.1319 0.7537
H1E H 0.0491 -0.0480 0.6771
N1A N 0.0140(8) 0.2191(12) 0.3810(5)
C1A C 0.0089(12) 0.1390(16) 0.3292(5)
C2A C 0.0858(13) 0.1853(19) 0.2845(7)
C3A C 0.1709(13) 0.3076(22) 0.2952(7)
C4A C 0.1745(15) 0.3883(21) 0.3484(7)
C5A C 0.0941(11) 0.3454(17) 0.3926(7)
H5A H 0.0956 0.4036 0.4301
H4A H 0.2339 0.4767 0.3555
H3A H 0.2285 0.3372 0.2652
H2A H 0.0794 0.1319 0.2463
H1A H -0.0491 0.0480 0.3229
Cl3D_2 Cl 0.2634(3) 0.5378(3) 0.4972(1)
Cd1A_2 Cd 0.5000 0.5000 0.5000
Cd2E_2 Cd 0.2683(1) 0.7866(1) 0.5803(1)
O1D O 0.4394(7) 0.3240(10) 0.5736(4)
Cl2E_2 Cl 0.4956(2) 0.7501(4) 0.5759(2)
Cl2A_2 Cl 0.5044(2) 0.2499(4) 0.4241(2)
Cl3_3 Cl 0.7366(3) 0.4622(3) 0.5028(1)
O1_2 O 0.5606(7) 0.6760(10) 0.4264(4)
N1D N 0.5140(8) 0.2809(12) 0.6190(5)
C1D C 0.5089(12) 0.3610(16) 0.6708(5)
C2D C 0.5858(13) 0.3147(19) 0.7155(7)
C3D C 0.6709(13) 0.1924(22) 0.7048(7)
C4D C 0.6745(15) 0.1117(21) 0.6516(7)
C5D C 0.5941(11) 0.1546(17) 0.6074(7)
H5D H 0.5956 0.0964 0.5699
H4D H 0.7339 0.0233 0.6445
H3D H 0.7285 0.1628 0.7348
H2D H 0.5794 0.3681 0.7537
H1D H 0.4509 0.4520 0.6771
Cd2_2 Cd -0.2317(1) 0.7134(1) 0.4197(1)
Cd2D_2 Cd 0.2317(1) -0.7134(1) 0.5803(1)
loop_
_geom_bond_atom_site_label_1
_geom_bond_atom_site_label_2
_geom_bond_site_symmetry_1
_geom_bond_site_symmetry_2
Cd1 Cl2 1_555 1_555
Cd2 Cl1 1_555 1_555
Cl1 Cd2A 1_555 1_555
Cl2 Cd2 1_555 1_555
Cl3 Cd2 1_555 1_555
O1 Cd2 1_555 1_555
N1 O1 1_555 1_555
C1 N1 1_555 1_555
C2 C1 1_555 1_555
C3 C2 1_555 1_555
C4 C3 1_555 1_555
C5 N1 1_555 1_555
H1 C1 1_555 1_555
H2 C2 1_555 1_555
H3 C3 1_555 1_555
H4 C4 1_555 1_555
H5 C5 1_555 1_555
Cd2A Cl3 1_555 1_555
Cl1A Cd2 1_555 1_555
Cd1A Cl3 1_555 1_555
Cl2D Cd1 1_555 1_555
Cd2D Cl2D 1_555 1_555
Cl1D Cd2D 1_555 1_555
Cl1E Cd2D 1_555 1_555
Cl3E Cd1 1_555 1_555
Cl3A Cd1 1_555 1_555
Cd2A_2 Cl1A 1_555 1_555
Cl1_2 Cd2A_2 1_555 1_555
Cl2A Cd2A_2 1_555 1_555
Cl3_2 Cd2A_2 1_555 1_555
O1A Cd1 1_555 1_555
O1E Cd1 1_555 1_555
Cd2E Cl1E 1_555 1_555
Cl1D_2 Cd2E 1_555 1_555
Cl2E Cd2E 1_555 1_555
Cl3D Cd2E 1_555 1_555
N1E O1E 1_555 1_555
C1E N1E 1_555 1_555
C2E C1E 1_555 1_555
C3E C2E 1_555 1_555
C4E C3E 1_555 1_555
C5E N1E 1_555 1_555
H5E C5E 1_555 1_555
H4E C4E 1_555 1_555
H3E C3E 1_555 1_555
H2E C2E 1_555 1_555
H1E C1E 1_555 1_555
N1A O1A 1_555 1_555
C1A N1A 1_555 1_555
C2A C1A 1_555 1_555
C3A C2A 1_555 1_555
C4A C3A 1_555 1_555
C5A N1A 1_555 1_555
H5A C5A 1_555 1_555
H4A C4A 1_555 1_555
H3A C3A 1_555 1_555
H2A C2A 1_555 1_555
H1A C1A 1_555 1_555
Cl3D_2 Cd2D 1_555 1_555
Cd1A_2 Cl3D_2 1_555 1_555
Cd2E_2 Cl1D 1_555 1_555
O1D Cd2D 1_555 1_555
Cl2E_2 Cd1A_2 1_555 1_555
Cl2A_2 Cd1A_2 1_555 1_555
Cl3_3 Cd1A_2 1_555 1_555
O1_2 Cd1A_2 1_555 1_555
N1D O1D 1_555 1_555
C1D N1D 1_555 1_555
C2D C1D 1_555 1_555
C3D C2D 1_555 1_555
C4D C3D 1_555 1_555
C5D N1D 1_555 1_555
H5D C5D 1_555 1_555
H4D C4D 1_555 1_555
H3D C3D 1_555 1_555
H2D C2D 1_555 1_555
H1D C1D 1_555 1_555
Cd2_2 Cl1_2 1_555 1_555
Cd2D_2 Cl1D_2 1_555 1_555
Cd2 Cl3A 1_555 1_555
O1 Cd1A 1_555 1_555
C4 C5 1_555 1_555
Cd2D Cl3E 1_555 1_555
Cl3E Cd2E 1_555 1_555
Cl3A Cd2A_2 1_555 1_555
Cd2A_2 O1A 1_555 1_555
Cl3_2 Cd2_2 1_555 1_555
O1E Cd2E 1_555 1_555
Cl3D Cd2D_2 1_555 1_555
C4E C5E 1_555 1_555
C4A C5A 1_555 1_555
Cl3D_2 Cd2E_2 1_555 1_555
Cd1A_2 O1D 1_555 1_555
Cd2E_2 Cl2E_2 1_555 1_555
C4D C5D 1_555 1_555

#END
