
#######################################################################
#
#                 Cambridge Crystallographic Data Centre
#                                CCDC 
#
#######################################################################
#
# If this CIF has been generated from an entry in the Cambridge 
# Structural Database, then it will include bibliographic, chemical, 
# crystal, experimental, refinement or atomic coordinate data resulting 
# from the CCDC's data processing and validation procedures.
#
#######################################################################

data_JOVWUO
_symmetry_cell_setting           monoclinic
_symmetry_space_group_name_H-M   'C c'
_symmetry_Int_Tables_number      9
_space_group_name_Hall           'C -2yc'
loop_
_symmetry_equiv_pos_site_id
_symmetry_equiv_pos_as_xyz
1 x,y,z
2 x,-y,1/2+z
3 1/2+x,1/2+y,z
4 1/2+x,1/2-y,1/2+z
_cell_length_a                   7.206(3)
_cell_length_b                   31.379(12)
_cell_length_c                   7.218(3)
_cell_angle_alpha                90
_cell_angle_beta                 99.271(7)
_cell_angle_gamma                90
_cell_volume                     1610.79
loop_
_atom_site_label
_atom_site_type_symbol
_atom_site_fract_x
_atom_site_fract_y
_atom_site_fract_z
Pb1 Pb 0.62953(17) 0.82357(2) 0.39384(17)
Pb2 Pb 0.67855(10) 0.74888(2) 0.92724(10)
Cl1 Cl 0.6651(8) 0.84190(17) 0.7703(8)
P1 P 0.1141(8) 0.85127(16) 0.4502(7)
P2 P 0.2619(7) 0.77732(15) 0.9453(7)
O1 O 0.015(3) 0.8813(5) 0.305(2)
O2 O -0.006(2) 0.8126(5) 0.485(2)
O3 O 0.298(2) 0.8341(5) 0.413(2)
O4 O 0.316(2) 0.7620(5) 0.761(2)
O5 O 0.119(2) 0.7492(4) 1.019(2)
O6 O 0.441(2) 0.7842(4) 1.085(2)
O7 O 0.851(3) 1.0506(5) 0.882(3)
O8 O 0.588(3) 1.0891(5) 0.890(3)
N1 N 0.253(2) 0.8649(5) 0.842(2)
H1 H 0.3634 0.8543 0.8206
C1 C 0.157(4) 0.8846(6) 0.662(3)
H2 H 0.2760 0.8932 0.6312
H3 H 0.1170 0.9138 0.6585
C2 C 0.137(5) 0.8278(5) 0.908(5)
H4 H 0.0277 0.8234 0.8149
H5 H 0.0956 0.8360 1.0224
C3 C 0.291(3) 0.8969(7) 0.997(3)
H6 H 0.1729 0.9102 0.9512
H7 H 0.2525 0.8925 1.1168
C4 C 0.390(4) 0.9371(7) 0.953(3)
C5 C 0.287(3) 0.9762(7) 0.926(3)
H8 H 0.1529 0.9759 0.9211
C6 C 0.383(5) 1.0133(8) 0.905(3)
H9 H 0.3145 1.0397 0.8920
C7 C 0.571(3) 1.0142(7) 0.908(3)
C8 C 0.673(4) 0.9759(7) 0.932(4)
H10 H 0.8072 0.9761 0.9356
C9 C 0.583(3) 0.9382(7) 0.956(3)
H11 H 0.6533 0.9121 0.9739
C10 C 0.681(4) 1.0544(7) 0.893(4)
Pb1_2 Pb -0.37047(17) 0.82357(2) 0.39384(17)
Pb1_3 Pb 0.62953(17) 0.82357(2) 1.39384(17)
Pb1A Pb 0.62953(17) 1.17643(2) 0.89384(17)
Pb1C Pb 0.12953(17) 0.67643(2) 0.89384(17)
Pb2C Pb 0.17855(10) 0.75112(2) 0.42724(10)
Pb2C_2 Pb 0.17855(10) 0.75112(2) 1.42724(10)
O2_2 O 0.994(2) 0.8126(5) 0.485(2)
O2C O 0.494(2) 0.6874(5) 0.985(2)
O3C O 0.798(2) 0.6659(5) 0.913(2)
O4C O 0.816(2) 0.7380(5) 1.261(2)
O5C O 0.619(2) 0.7508(4) 0.519(2)
O6_2 O 0.441(2) 0.7842(4) 0.085(2)
O8A O 0.588(3) 0.9109(5) 0.390(3)
loop_
_geom_bond_atom_site_label_1
_geom_bond_atom_site_label_2
_geom_bond_site_symmetry_1
_geom_bond_site_symmetry_2
Pb1 Cl1 1_555 1_555
Pb2 Cl1 1_555 1_555
P1 O1 1_555 1_555
P2 O4 1_555 1_555
O2 P1 1_555 1_555
O3 Pb1 1_555 1_555
O4 Pb2 1_555 1_555
O5 P2 1_555 1_555
O6 Pb2 1_555 1_555
O7 C10 1_555 1_555
O8 C10 1_555 1_555
N1 H1 1_555 1_555
C1 P1 1_555 1_555
H2 C1 1_555 1_555
H3 C1 1_555 1_555
C2 P2 1_555 1_555
H4 C2 1_555 1_555
H5 C2 1_555 1_555
C3 N1 1_555 1_555
H6 C3 1_555 1_555
H7 C3 1_555 1_555
C4 C3 1_555 1_555
C5 C4 1_555 1_555
H8 C5 1_555 1_555
C6 C5 1_555 1_555
H9 C6 1_555 1_555
C7 C6 1_555 1_555
C8 C7 1_555 1_555
H10 C8 1_555 1_555
C9 C4 1_555 1_555
H11 C9 1_555 1_555
C10 C7 1_555 1_555
Pb1_2 O2 1_555 1_555
Pb1_3 O6 1_555 1_555
Pb1A O8 1_555 1_555
Pb1C O5 1_555 1_555
Pb2C O2 1_555 1_555
Pb2C_2 O5 1_555 1_555
O2_2 Pb1 1_555 1_555
O2C Pb2 1_555 1_555
O3C Pb2 1_555 1_555
O4C Pb2 1_555 1_555
O5C Pb1 1_555 1_555
O6_2 Pb1 1_555 1_555
O8A Pb1 1_555 1_555
Pb2 O5C 1_555 1_555
P1 O3 1_555 1_555
P2 O6 1_555 1_555
O3 Pb2C 1_555 1_555
O4 Pb2C 1_555 1_555
N1 C1 1_555 1_555
N1 C2 1_555 1_555
C8 C9 1_555 1_555
Pb1C O2C 1_555 1_555

#END
