
#######################################################################
#
#                 Cambridge Crystallographic Data Centre
#                                CCDC 
#
#######################################################################
#
# If this CIF has been generated from an entry in the Cambridge 
# Structural Database, then it will include bibliographic, chemical, 
# crystal, experimental, refinement or atomic coordinate data resulting 
# from the CCDC's data processing and validation procedures.
#
#######################################################################

data_JOVXOJ
_symmetry_cell_setting           triclinic
_symmetry_space_group_name_H-M   'P -1'
_symmetry_Int_Tables_number      2
_space_group_name_Hall           '-P 1'
loop_
_symmetry_equiv_pos_site_id
_symmetry_equiv_pos_as_xyz
1 x,y,z
2 -x,-y,-z
_cell_length_a                   10.1586(13)
_cell_length_b                   12.5673(16)
_cell_length_c                   25.139(2)
_cell_angle_alpha                79.781(2)
_cell_angle_beta                 78.947(3)
_cell_angle_gamma                87.008(2)
_cell_volume                     3099.35
loop_
_atom_site_label
_atom_site_type_symbol
_atom_site_fract_x
_atom_site_fract_y
_atom_site_fract_z
C1 C 0.7088(5) 0.5038(4) 0.96180(18)
H1 H 0.6449 0.5556 0.9722
C2 C 0.6982(5) 0.3990(4) 0.9924(2)
H2 H 0.6282 0.3811 1.0220
C3 C 0.7953(5) 0.3227(4) 0.97723(18)
C4 C 0.8956(5) 0.3517(4) 0.9336(2)
H3 H 0.9606 0.3007 0.9232
C5 C 0.9019(5) 0.4565(4) 0.90457(19)
H4 H 0.9722 0.4753 0.8752
C6 C 0.7988(5) 0.2173(4) 1.0118(2)
H5 H 0.7875 0.2277 1.0498
H6 H 0.8869 0.1847 1.0023
C7 C 0.6974(5) 0.1405(4) 1.0082(2)
H7 H 0.7010 0.1398 0.9694
H8 H 0.6103 0.1707 1.0220
C8 C 0.7001(5) 0.0229(4) 1.03662(19)
H9 H 0.7668 0.0132 1.0601
H10 H 0.6133 0.0049 1.0596
C9 C 0.8426(5) -0.2112(4) 0.96985(18)
H11 H 0.9024 -0.2684 0.9767
C10 C 0.8155(5) -0.1391(4) 1.0053(2)
H12 H 0.8547 -0.1510 1.0364
C11 C 0.7311(5) -0.0478(4) 0.99717(19)
C12 C 0.6800(5) -0.0369(4) 0.9478(2)
H13 H 0.6302 0.0248 0.9373
C13 C 0.7025(4) -0.1161(4) 0.91452(19)
H14 H 0.6595 -0.1094 0.8846
C14 C 0.4633(5) 0.7078(3) 0.81492(19)
C15 C 0.3307(5) 0.6966(4) 0.8433(2)
H15 H 0.3136 0.6791 0.8815
C16 C 0.2231(4) 0.7113(4) 0.81490(19)
C17 C 0.2481(5) 0.7357(4) 0.75838(18)
H16 H 0.1769 0.7435 0.7395
C18 C 0.3852(5) 0.7496(4) 0.72764(18)
C19 C 0.4915(5) 0.7340(4) 0.75648(18)
H17 H 0.5797 0.7407 0.7376
C20 C 0.5737(5) 0.6935(4) 0.84778(19)
C21 C 0.0868(5) 0.6943(4) 0.84784(19)
C22 C 0.4083(5) 0.7770(4) 0.67112(19)
C23 C 0.4335(5) 0.8029(4) 0.62071(19)
C24 C 0.4617(5) 0.8273(4) 0.56287(18)
C25 C 0.3558(5) 0.8393(4) 0.53285(18)
H18 H 0.2675 0.8303 0.5513
C26 C 0.3842(5) 0.8650(4) 0.47513(17)
C27 C 0.5148(4) 0.8878(3) 0.44912(18)
H19 H 0.5329 0.9113 0.4113
C28 C 0.6202(5) 0.8765(4) 0.47820(19)
C29 C 0.5973(5) 0.8463(4) 0.53343(18)
H20 H 0.6684 0.8378 0.5524
C30 C 0.2727(5) 0.8764(4) 0.44239(18)
C31 C 0.7597(5) 0.8947(4) 0.44564(19)
C32 C 0.0330(4) 1.1200(4) 0.41538(19)
H21 H 0.0067 1.0976 0.4531
C33 C 0.0514(5) 1.2327(4) 0.39342(19)
H22 H 0.0302 1.2814 0.4178
C34 C 0.0985(5) 1.2745(4) 0.3384(2)
C35 C 0.1074(5) 1.1881(4) 0.30501(19)
H23 H 0.1226 1.2059 0.2668
C36 C 0.0936(5) 1.0825(4) 0.32947(19)
H24 H 0.1141 1.0299 0.3072
C37 C 0.1343(5) 1.3851(3) 0.31354(19)
H25 H 0.2188 1.3851 0.2879
H26 H 0.1458 1.4251 0.3419
C38 C 0.0281(5) 1.4388(4) 0.28405(19)
H27 H -0.0544 1.4452 0.3102
H28 H 0.0108 1.3955 0.2579
C39 C 0.0737(5) 1.5506(4) 0.25398(18)
H29 H 0.1648 1.5452 0.2341
H30 H 0.0168 1.5770 0.2274
C40 C 0.1644(5) 1.7470(4) 0.34080(19)
H31 H 0.2422 1.7718 0.3486
C41 C 0.1737(5) 1.6674(4) 0.3064(2)
H32 H 0.2587 1.6409 0.2933
C42 C 0.0684(5) 1.6276(4) 0.29147(19)
C43 C -0.0505(5) 1.6754(4) 0.31134(19)
H33 H -0.1285 1.6569 0.3011
C44 C -0.0589(5) 1.7510(4) 0.34642(19)
H34 H -0.1433 1.7782 0.3598
N1 N 0.8063(4) 0.5328(3) 0.91834(15)
N2 N 0.7838(4) -0.2015(3) 0.92426(15)
N3 N 0.0528(4) 1.0498(3) 0.38304(15)
N4 N 0.0461(4) 1.7862(3) 0.36183(16)
O1 O 0.6938(3) 0.7064(2) 0.82129(12)
O2 O 0.5447(3) 0.6705(2) 0.89875(12)
O3 O 0.0695(3) 0.6772(2) 0.89834(13)
O4 O -0.0121(3) 0.7022(2) 0.82060(12)
O5 O 0.8582(3) 0.8664(2) 0.47083(13)
O6 O 0.7758(3) 0.9307(3) 0.39569(14)
O7 O 0.3032(3) 0.9023(2) 0.39195(12)
O8 O 0.1550(3) 0.8567(2) 0.46798(12)
Zn1 Zn 0.81791(6) 0.68351(5) 0.87322(2)
Zn2 Zn 0.02753(6) 0.89083(5) 0.41708(2)
N2_2 N 0.7838(4) 0.7985(3) 0.92426(15)
N4_2 N 0.0461(4) 0.7862(3) 0.36183(16)
O4_2 O 0.9879(3) 0.7022(2) 0.82060(12)
O5_2 O -0.1418(3) 0.8664(2) 0.47083(13)
Zn1_2 Zn -0.18209(6) 0.68351(5) 0.87322(2)
Zn1_3 Zn 0.81791(6) -0.31649(5) 0.87322(2)
Zn2_2 Zn 0.02753(6) 1.89083(5) 0.41708(2)
Zn2_3 Zn 1.02753(6) 0.89083(5) 0.41708(2)
loop_
_geom_bond_atom_site_label_1
_geom_bond_atom_site_label_2
_geom_bond_site_symmetry_1
_geom_bond_site_symmetry_2
C1 H1 1_555 1_555
C2 C1 1_555 1_555
H2 C2 1_555 1_555
C3 C2 1_555 1_555
C4 C3 1_555 1_555
H3 C4 1_555 1_555
C5 C4 1_555 1_555
H4 C5 1_555 1_555
C6 C3 1_555 1_555
H5 C6 1_555 1_555
H6 C6 1_555 1_555
C7 C6 1_555 1_555
H7 C7 1_555 1_555
H8 C7 1_555 1_555
C8 C7 1_555 1_555
H9 C8 1_555 1_555
H10 C8 1_555 1_555
C9 H11 1_555 1_555
C10 C9 1_555 1_555
H12 C10 1_555 1_555
C11 C8 1_555 1_555
C12 C11 1_555 1_555
H13 C12 1_555 1_555
C13 C12 1_555 1_555
H14 C13 1_555 1_555
C14 C15 1_555 1_555
C15 H15 1_555 1_555
C16 C15 1_555 1_555
C17 C16 1_555 1_555
H16 C17 1_555 1_555
C18 C17 1_555 1_555
C19 C14 1_555 1_555
H17 C19 1_555 1_555
C20 C14 1_555 1_555
C21 C16 1_555 1_555
C22 C18 1_555 1_555
C23 C22 1_555 1_555
C24 C23 1_555 1_555
C25 C24 1_555 1_555
H18 C25 1_555 1_555
C26 C25 1_555 1_555
C27 C26 1_555 1_555
H19 C27 1_555 1_555
C28 C27 1_555 1_555
C29 C24 1_555 1_555
H20 C29 1_555 1_555
C30 C26 1_555 1_555
C31 C28 1_555 1_555
C32 H21 1_555 1_555
C33 C32 1_555 1_555
H22 C33 1_555 1_555
C34 C33 1_555 1_555
C35 C34 1_555 1_555
H23 C35 1_555 1_555
C36 C35 1_555 1_555
H24 C36 1_555 1_555
C37 C34 1_555 1_555
H25 C37 1_555 1_555
H26 C37 1_555 1_555
C38 C37 1_555 1_555
H27 C38 1_555 1_555
H28 C38 1_555 1_555
C39 C38 1_555 1_555
H29 C39 1_555 1_555
H30 C39 1_555 1_555
C40 H31 1_555 1_555
C41 C40 1_555 1_555
H32 C41 1_555 1_555
C42 C39 1_555 1_555
C43 C42 1_555 1_555
H33 C43 1_555 1_555
C44 C43 1_555 1_555
H34 C44 1_555 1_555
N1 C1 1_555 1_555
N2 C9 1_555 1_555
N3 C32 1_555 1_555
N4 C40 1_555 1_555
O1 C20 1_555 1_555
O2 C20 1_555 1_555
O3 C21 1_555 1_555
O4 C21 1_555 1_555
O5 C31 1_555 1_555
O6 C31 1_555 1_555
O7 C30 1_555 1_555
O8 C30 1_555 1_555
Zn1 N1 1_555 1_555
Zn2 N3 1_555 1_555
N2_2 Zn1 1_555 1_555
N4_2 Zn2 1_555 1_555
O4_2 Zn1 1_555 1_555
O5_2 Zn2 1_555 1_555
Zn1_2 O4 1_555 1_555
Zn1_3 N2 1_555 1_555
Zn2_2 N4 1_555 1_555
Zn2_3 O5 1_555 1_555
C5 N1 1_555 1_555
C10 C11 1_555 1_555
C13 N2 1_555 1_555
C18 C19 1_555 1_555
C28 C29 1_555 1_555
C36 N3 1_555 1_555
C41 C42 1_555 1_555
C44 N4 1_555 1_555
O1 Zn1 1_555 1_555
O8 Zn2 1_555 1_555

#END
