
#######################################################################
#
#                 Cambridge Crystallographic Data Centre
#                                CCDC 
#
#######################################################################
#
# If this CIF has been generated from an entry in the Cambridge 
# Structural Database, then it will include bibliographic, chemical, 
# crystal, experimental, refinement or atomic coordinate data resulting 
# from the CCDC's data processing and validation procedures.
#
#######################################################################

data_JOVXAT
_symmetry_cell_setting           orthorhombic
_symmetry_space_group_name_H-M   'P b c a'
_symmetry_Int_Tables_number      61
_space_group_name_Hall           '-P 2ac 2ab'
loop_
_symmetry_equiv_pos_site_id
_symmetry_equiv_pos_as_xyz
1 x,y,z
2 1/2-x,-y,1/2+z
3 1/2+x,1/2-y,-z
4 -x,1/2+y,1/2-z
5 -x,-y,-z
6 1/2+x,y,1/2-z
7 1/2-x,1/2+y,z
8 x,1/2-y,1/2+z
_cell_length_a                   15.455(7)
_cell_length_b                   13.442(14)
_cell_length_c                   23.181(12)
_cell_angle_alpha                90
_cell_angle_beta                 90
_cell_angle_gamma                90
_cell_volume                     4815.76
loop_
_atom_site_label
_atom_site_type_symbol
_atom_site_fract_x
_atom_site_fract_y
_atom_site_fract_z
Cd1 Cd 0.7204(1) -0.2216(1) 0.3891(1)
Cd2 Cd 0.6988(1) 0.0337(1) 0.3111(1)
I1 I 0.7219(1) -0.1577(1) 0.5041(1)
I2 I 0.8438(1) -0.0821(1) 0.3332(1)
I3 I 0.8676(1) -0.3682(1) 0.4072(1)
I4 I 0.6363(1) 0.0375(1) 0.2006(1)
O1 O 0.7291(5) -0.3123(6) 0.3041(3)
N1 N 0.6757(6) -0.2941(7) 0.2588(4)
C1 C 0.5921(9) -0.3159(9) 0.2626(5)
C2 C 0.5395(9) -0.2994(10) 0.2167(6)
C3 C 0.5748(10) -0.2643(10) 0.1654(5)
C4 C 0.6632(9) -0.2417(9) 0.1622(5)
C5 C 0.7126(8) -0.2582(9) 0.2107(5)
O2 O 0.6005(5) -0.3195(6) 0.3999(3)
N2 N 0.5795(6) -0.3529(7) 0.4521(4)
C6 C 0.6367(8) -0.4103(9) 0.4822(5)
C7 C 0.6140(8) -0.4418(9) 0.5362(5)
C8 C 0.5354(7) -0.4227(9) 0.5608(5)
C9 C 0.4785(8) -0.3663(9) 0.5277(5)
C10 C 0.5008(8) -0.3320(10) 0.4738(5)
O3 O 0.6208(5) -0.1149(5) 0.3416(3)
N3 N 0.5376(6) -0.1002(7) 0.3574(4)
C11 C 0.5174(8) -0.0927(9) 0.4134(5)
C12 C 0.4328(9) -0.0719(10) 0.4293(6)
C13 C 0.3720(9) -0.0569(10) 0.3868(6)
C14 C 0.3949(9) -0.0664(10) 0.3298(6)
C15 C 0.4786(8) -0.0883(9) 0.3147(5)
H1 H 0.5689 -0.3432 0.2976
H2 H 0.4785 -0.3118 0.2195
H3 H 0.5385 -0.2556 0.1321
H4 H 0.6883 -0.2157 0.1274
H5 H 0.7734 -0.2440 0.2100
H6 H 0.6916 -0.4282 0.4658
H7 H 0.6555 -0.4794 0.5581
H8 H 0.5202 -0.4467 0.5985
H9 H 0.4223 -0.3509 0.5429
H10 H 0.4605 -0.2932 0.4518
H11 H 0.5611 -0.1019 0.4424
H12 H 0.4170 -0.0678 0.4692
H13 H 0.3136 -0.0400 0.3970
H14 H 0.3520 -0.0576 0.3003
H15 H 0.4949 -0.0950 0.2749
I3F I 0.6324(1) 0.1318(1) 0.4072(1)
O1F O 0.7709(5) 0.1877(6) 0.3041(3)
Cd2F Cd 0.8012(1) -0.4663(1) 0.3111(1)
Cd1F Cd 0.7796(1) 0.2784(1) 0.3891(1)
N1F N 0.8243(6) 0.2059(7) 0.2588(4)
I2F I 0.6562(1) -0.5821(1) 0.3332(1)
I4F I 0.8637(1) -0.4625(1) 0.2006(1)
O3F O 0.8792(5) -0.6149(5) 0.3416(3)
I1F I 0.7781(1) 0.3423(1) 0.5041(1)
I2F_2 I 0.6562(1) 0.4179(1) 0.3332(1)
O2F O 0.8995(5) 0.1805(6) 0.3999(3)
O3F_2 O 0.8792(5) 0.3851(5) 0.3416(3)
C1F C 0.9079(9) 0.1841(9) 0.2626(5)
C5F C 0.7874(8) 0.2418(9) 0.2107(5)
Cd1F_2 Cd 0.7796(1) -0.7216(1) 0.3891(1)
N3F N 0.9624(6) -0.6002(7) 0.3574(4)
N2F N 0.9205(6) 0.1471(7) 0.4521(4)
C2F C 0.9605(9) 0.2006(10) 0.2167(6)
H1F H 0.9311 0.1568 0.2976
C4F C 0.8368(9) 0.2583(9) 0.1622(5)
H5F H 0.7266 0.2560 0.2100
C11F C 0.9826(8) -0.5927(9) 0.4134(5)
C15F C 1.0214(8) -0.5883(9) 0.3147(5)
C6F C 0.8633(8) 0.0897(9) 0.4822(5)
C10F C 0.9992(8) 0.1680(10) 0.4738(5)
C3F C 0.9252(10) 0.2357(10) 0.1654(5)
H2F H 1.0215 0.1882 0.2195
H4F H 0.8117 0.2843 0.1274
C12F C 1.0672(9) -0.5719(10) 0.4293(6)
H11F H 0.9389 -0.6019 0.4424
C14F C 1.1051(9) -0.5664(10) 0.3298(6)
H15F H 1.0051 -0.5950 0.2749
C7F C 0.8860(8) 0.0582(9) 0.5362(5)
H6F H 0.8084 0.0718 0.4658
C9F C 1.0215(8) 0.1337(9) 0.5277(5)
H10F H 1.0395 0.2068 0.4518
H3F H 0.9615 0.2444 0.1321
C13F C 1.1280(9) -0.5569(10) 0.3868(6)
H12F H 1.0830 -0.5678 0.4692
H14F H 1.1480 -0.5576 0.3003
C8F C 0.9646(7) 0.0773(9) 0.5608(5)
H7F H 0.8445 0.0206 0.5581
H9F H 1.0777 0.1491 0.5429
H13F H 1.1864 -0.5400 0.3970
H8F H 0.9798 0.0533 0.5985
loop_
_geom_bond_atom_site_label_1
_geom_bond_atom_site_label_2
_geom_bond_site_symmetry_1
_geom_bond_site_symmetry_2
Cd1 I1 1_555 1_555
Cd2 I2 1_555 1_555
I2 Cd1 1_555 1_555
I3 Cd1 1_555 1_555
I4 Cd2 1_555 1_555
O1 Cd1 1_555 1_555
N1 O1 1_555 1_555
C1 N1 1_555 1_555
C2 C1 1_555 1_555
C3 C2 1_555 1_555
C4 C3 1_555 1_555
C5 N1 1_555 1_555
O2 Cd1 1_555 1_555
N2 O2 1_555 1_555
C6 N2 1_555 1_555
C7 C6 1_555 1_555
C8 C7 1_555 1_555
C9 C8 1_555 1_555
C10 N2 1_555 1_555
O3 Cd1 1_555 1_555
N3 O3 1_555 1_555
C11 N3 1_555 1_555
C12 C11 1_555 1_555
C13 C12 1_555 1_555
C14 C13 1_555 1_555
C15 N3 1_555 1_555
H1 C1 1_555 1_555
H2 C2 1_555 1_555
H3 C3 1_555 1_555
H4 C4 1_555 1_555
H5 C5 1_555 1_555
H6 C6 1_555 1_555
H7 C7 1_555 1_555
H8 C8 1_555 1_555
H9 C9 1_555 1_555
H10 C10 1_555 1_555
H11 C11 1_555 1_555
H12 C12 1_555 1_555
H13 C13 1_555 1_555
H14 C14 1_555 1_555
H15 C15 1_555 1_555
I3F Cd2 1_555 1_555
O1F Cd2 1_555 1_555
Cd2F I3 1_555 1_555
Cd1F I3F 1_555 1_555
N1F O1F 1_555 1_555
I2F Cd2F 1_555 1_555
I4F Cd2F 1_555 1_555
O3F Cd2F 1_555 1_555
I1F Cd1F 1_555 1_555
I2F_2 Cd1F 1_555 1_555
O2F Cd1F 1_555 1_555
O3F_2 Cd1F 1_555 1_555
C1F N1F 1_555 1_555
C5F N1F 1_555 1_555
Cd1F_2 I2F 1_555 1_555
N3F O3F 1_555 1_555
N2F O2F 1_555 1_555
C2F C1F 1_555 1_555
H1F C1F 1_555 1_555
C4F C5F 1_555 1_555
H5F C5F 1_555 1_555
C11F N3F 1_555 1_555
C15F N3F 1_555 1_555
C6F N2F 1_555 1_555
C10F N2F 1_555 1_555
C3F C2F 1_555 1_555
H2F C2F 1_555 1_555
H4F C4F 1_555 1_555
C12F C11F 1_555 1_555
H11F C11F 1_555 1_555
C14F C15F 1_555 1_555
H15F C15F 1_555 1_555
C7F C6F 1_555 1_555
H6F C6F 1_555 1_555
C9F C10F 1_555 1_555
H10F C10F 1_555 1_555
H3F C3F 1_555 1_555
C13F C12F 1_555 1_555
H12F C12F 1_555 1_555
H14F C14F 1_555 1_555
C8F C7F 1_555 1_555
H7F C7F 1_555 1_555
H9F C9F 1_555 1_555
H13F C13F 1_555 1_555
H8F C8F 1_555 1_555
Cd2 O3 1_555 1_555
O1 Cd2F 1_555 1_555
C4 C5 1_555 1_555
C9 C10 1_555 1_555
C14 C15 1_555 1_555
O1F Cd1F 1_555 1_555
O3F Cd1F_2 1_555 1_555
C4F C3F 1_555 1_555
C14F C13F 1_555 1_555
C9F C8F 1_555 1_555

#END
