
#######################################################################
#
#                 Cambridge Crystallographic Data Centre
#                                CCDC 
#
#######################################################################
#
# If this CIF has been generated from an entry in the Cambridge 
# Structural Database, then it will include bibliographic, chemical, 
# crystal, experimental, refinement or atomic coordinate data resulting 
# from the CCDC's data processing and validation procedures.
#
#######################################################################

data_JOVYEA
_symmetry_cell_setting           monoclinic
_symmetry_space_group_name_H-M   'P 21/c'
_symmetry_Int_Tables_number      14
_space_group_name_Hall           '-P 2ybc'
loop_
_symmetry_equiv_pos_site_id
_symmetry_equiv_pos_as_xyz
1 x,y,z
2 -x,1/2+y,1/2-z
3 -x,-y,-z
4 x,1/2-y,1/2+z
_cell_length_a                   13.477(5)
_cell_length_b                   19.642(6)
_cell_length_c                   19.357(7)
_cell_angle_alpha                90
_cell_angle_beta                 104.218(5)
_cell_angle_gamma                90
_cell_volume                     4967.13
loop_
_atom_site_label
_atom_site_type_symbol
_atom_site_fract_x
_atom_site_fract_y
_atom_site_fract_z
Ni1 Ni 0.73513(6) 0.11837(4) 0.58660(4)
Ni2 Ni 0.31378(6) 0.13614(4) -0.11796(4)
O1 O 0.7235(4) 0.0060(2) 0.5828(2)
O2 O 0.7134(4) -0.2976(3) 0.7130(3)
O3 O 0.6852(4) -0.2554(2) 0.6046(3)
O4 O 0.6970(4) 0.5338(3) 0.6384(3)
O5 O 0.7782(4) 0.0621(2) 0.6835(2)
O6 O 0.7729(4) 0.2093(2) 0.6360(3)
O7 O 0.6532(6) 0.2816(3) 0.5773(3)
N1 N 1.5837(4) 0.1210(3) 0.5959(3)
N2 N 0.4680(4) 0.1320(3) -0.1196(3)
N3 N 0.3509(4) 0.1181(3) -0.0088(3)
N4 N 0.6793(4) 0.1336(3) 0.4763(3)
N5 N 1.1542(4) 0.1364(3) -0.1319(3)
O8 O 1.0267(5) 0.3992(3) 0.8760(3)
O9 O 0.7397(5) 0.5446(3) 0.7565(3)
N6 N 0.9931(5) 0.3519(4) 0.8354(4)
C1 C 0.8513(8) -0.1165(4) 0.7994(4)
N7 N 0.8852(4) 0.1165(3) 0.5720(3)
C2 C 1.4516(5) 0.1637(4) 0.6475(4)
H1 H 1.4329 0.1909 0.6828
C3 C 0.7572(5) 0.0071(3) 0.6505(3)
C4 C 0.8660(5) 0.4296(4) 0.7653(4)
H2 H 0.8935 0.4647 0.7982
C5 C 1.2665(5) 0.1325(5) 0.6033(4)
H3 H 1.2550 0.0972 0.6370
H4 H 1.2553 0.1774 0.6234
C6 C 1.5559(5) 0.1597(4) 0.6451(3)
H5 H 1.6063 0.1845 0.6786
C7 C 0.7360(5) 0.5136(3) 0.7018(4)
C8 C 0.8686(5) 0.3121(4) 0.7289(4)
H6 H 0.8986 0.2681 0.7364
C9 C 1.4080(5) 0.0884(4) 0.5495(4)
H7 H 1.3595 0.0630 0.5153
C10 C 0.7125(5) -0.2483(4) 0.6713(4)
C11 C 0.9843(5) 0.1378(4) -0.2092(4)
H8 H 0.9424 0.1354 -0.2564
C12 C 0.7504(6) -0.1806(3) 0.7022(4)
C13 C 0.8087(7) -0.1777(4) 0.7720(4)
H9 H 0.8192 -0.2176 0.8007
C14 C 0.9456(6) 0.0631(4) 0.5829(5)
H10 H 0.9214 0.0222 0.5992
C15 C 1.3769(5) 0.1284(4) 0.5989(4)
C16 C 0.5901(6) 0.0988(4) -0.1843(4)
H11 H 0.6029 0.0828 -0.2276
C17 C 0.9070(6) 0.3648(4) 0.7744(4)
O10 O 1.0302(6) 0.2956(4) 0.8443(5)
C18 C 0.7843(5) 0.3243(3) 0.6711(4)
C19 C 0.6708(6) 0.1102(5) -0.1259(5)
C20 C 1.5105(5) 0.0859(4) 0.5503(4)
H12 H 1.5306 0.0575 0.5164
C21 C 1.0904(5) 0.1353(4) -0.1974(4)
H13 H 1.1191 0.1326 -0.2375
C22 C 0.7736(5) -0.0585(3) 0.6908(3)
C23 C 0.5460(5) 0.1446(4) -0.0634(4)
H14 H 0.5320 0.1616 -0.0208
C24 C 0.3459(6) 0.1674(4) 0.0371(4)
H15 H 0.3167 0.2097 0.0190
C25 C 0.7340(5) -0.1207(3) 0.6616(4)
H16 H 0.6953 -0.1225 0.6135
C26 C 0.5895(6) 0.1421(4) 0.3299(4)
C27 C 0.5653(7) 0.1878(4) 0.3773(4)
H17 H 0.5174 0.2232 0.3606
C28 C 0.7445(5) 0.3904(3) 0.6604(4)
H18 H 0.6896 0.3996 0.6203
C29 C 0.3948(6) 0.0603(4) 0.0193(4)
H19 H 0.3977 0.0237 -0.0122
C30 C 0.3815(8) 0.1597(5) 0.1104(4)
H20 H 0.3723 0.1956 0.1411
C31 C 0.6110(6) 0.1820(4) 0.4493(4)
H21 H 0.5930 0.2139 0.4811
C32 C 0.4294(6) 0.1014(4) 0.1386(4)
C33 C 0.6589(6) 0.0906(5) 0.3577(4)
H22 H 0.6765 0.0572 0.3272
C34 C 0.7793(6) 0.0954(5) -0.1297(6)
H23 H 0.8218 0.0869 -0.0810
H24 H 0.7799 0.0535 -0.1580
C35 C 0.6478(6) 0.1336(5) -0.0657(5)
H25 H 0.7014 0.1425 -0.0246
C36 C 0.7839(5) 0.4427(3) 0.7074(3)
O11 O 0.9259(11) -0.1667(4) 0.9065(4)
C37 C 0.4359(7) 0.0503(4) 0.0903(4)
H26 H 0.4688 0.0085 0.1067
C38 C 0.4897(5) 0.1108(4) -0.1798(4)
H27 H 0.4353 0.1037 -0.2208
C39 C 0.8257(6) 0.1527(5) -0.1626(5)
H28 H 0.8129 0.1962 -0.1405
H29 H 0.7919 0.1552 -0.2141
C40 C 1.0812(5) 0.1210(4) 0.5466(4)
O12 O 0.9527(12) -0.0614(5) 0.8961(5)
C41 C 1.0060(6) 0.1433(6) -0.0849(5)
H30 H 0.9788 0.1454 -0.0440
C42 C 1.0191(6) 0.1767(5) 0.5349(5)
H31 H 1.0427 0.2183 0.5196
C43 C 0.7018(6) 0.0888(4) 0.4303(4)
H32 H 0.7498 0.0538 0.4485
C44 C 0.8346(7) -0.0567(4) 0.7609(4)
H33 H 0.8638 -0.0152 0.7814
C45 C 0.9406(6) 0.1439(5) -0.1533(4)
C46 C 0.9184(6) 0.1723(4) 0.5458(6)
H34 H 0.8738 0.2103 0.5341
C47 C 0.7327(6) 0.2675(4) 0.6226(4)
C48 C 1.1878(5) 0.1234(5) 0.5337(5)
H35 H 1.2015 0.0806 0.5107
H36 H 1.1924 0.1616 0.5014
C49 C 1.0440(6) 0.0639(5) 0.5715(5)
H37 H 1.0855 0.0243 0.5813
C50 C 0.5429(7) 0.1491(5) 0.2510(4)
H38 H 0.5029 0.1919 0.2427
H39 H 0.5990 0.1534 0.2265
C51 C 1.1094(6) 0.1398(6) -0.0773(5)
H40 H 1.1523 0.1399 -0.0304
C52 C 0.4751(8) 0.0922(5) 0.2177(4)
H41 H 0.4188 0.0877 0.2420
H42 H 0.5149 0.0493 0.2253
N8 N 0.9169(11) -0.1152(5) 0.8716(4)
Ni1_2 Ni 1.73513(6) 0.11837(4) 0.58660(4)
Ni2_2 Ni 1.31378(6) 0.13614(4) -0.11796(4)
Ni2A Ni 0.68622(6) -0.36386(4) 0.61796(4)
Ni2A_2 Ni 0.68622(6) 0.63614(4) 0.61796(4)
O2A O 0.2866(4) 0.2024(3) -0.2130(3)
O3A O 0.3148(4) 0.2446(2) -0.1046(3)
O4A O 0.3030(4) 0.0338(3) -0.1384(3)
N1_2 N 0.5837(4) 0.1210(3) 0.5959(3)
N5_2 N 0.1542(4) 0.1364(3) -0.1319(3)
loop_
_geom_bond_atom_site_label_1
_geom_bond_atom_site_label_2
_geom_bond_site_symmetry_1
_geom_bond_site_symmetry_2
Ni1 O1 1_555 1_555
Ni2 N2 1_555 1_555
O1 C3 1_555 1_555
O2 C10 1_555 1_555
O3 C10 1_555 1_555
O4 C7 1_555 1_555
O5 Ni1 1_555 1_555
O6 Ni1 1_555 1_555
O7 C47 1_555 1_555
N1 C6 1_555 1_555
N2 C23 1_555 1_555
N3 Ni2 1_555 1_555
N4 Ni1 1_555 1_555
N5 C21 1_555 1_555
O8 N6 1_555 1_555
O9 C7 1_555 1_555
N6 C17 1_555 1_555
C1 C13 1_555 1_555
N7 Ni1 1_555 1_555
C2 H1 1_555 1_555
C3 O5 1_555 1_555
C4 H2 1_555 1_555
C5 H3 1_555 1_555
H4 C5 1_555 1_555
C6 C2 1_555 1_555
H5 C6 1_555 1_555
C7 C36 1_555 1_555
C8 H6 1_555 1_555
C9 H7 1_555 1_555
C10 C12 1_555 1_555
C11 H8 1_555 1_555
C12 C13 1_555 1_555
C13 H9 1_555 1_555
C14 N7 1_555 1_555
H10 C14 1_555 1_555
C15 C2 1_555 1_555
C16 H11 1_555 1_555
C17 C4 1_555 1_555
O10 N6 1_555 1_555
C18 C8 1_555 1_555
C19 C16 1_555 1_555
C20 N1 1_555 1_555
H12 C20 1_555 1_555
C21 C11 1_555 1_555
H13 C21 1_555 1_555
C22 C3 1_555 1_555
C23 H14 1_555 1_555
C24 N3 1_555 1_555
H15 C24 1_555 1_555
C25 C12 1_555 1_555
H16 C25 1_555 1_555
C26 C27 1_555 1_555
C27 H17 1_555 1_555
C28 C18 1_555 1_555
H18 C28 1_555 1_555
C29 N3 1_555 1_555
H19 C29 1_555 1_555
C30 C24 1_555 1_555
H20 C30 1_555 1_555
C31 N4 1_555 1_555
H21 C31 1_555 1_555
C32 C30 1_555 1_555
C33 C26 1_555 1_555
H22 C33 1_555 1_555
C34 C19 1_555 1_555
H23 C34 1_555 1_555
H24 C34 1_555 1_555
C35 C19 1_555 1_555
H25 C35 1_555 1_555
C36 C4 1_555 1_555
O11 N8 1_555 1_555
C37 C29 1_555 1_555
H26 C37 1_555 1_555
C38 N2 1_555 1_555
H27 C38 1_555 1_555
C39 C34 1_555 1_555
H28 C39 1_555 1_555
H29 C39 1_555 1_555
C40 C42 1_555 1_555
O12 N8 1_555 1_555
C41 H30 1_555 1_555
C42 H31 1_555 1_555
C43 N4 1_555 1_555
H32 C43 1_555 1_555
C44 C1 1_555 1_555
H33 C44 1_555 1_555
C45 C11 1_555 1_555
C46 N7 1_555 1_555
H34 C46 1_555 1_555
C47 O6 1_555 1_555
C48 C5 1_555 1_555
H35 C48 1_555 1_555
H36 C48 1_555 1_555
C49 C14 1_555 1_555
H37 C49 1_555 1_555
C50 C26 1_555 1_555
H38 C50 1_555 1_555
H39 C50 1_555 1_555
C51 N5 1_555 1_555
H40 C51 1_555 1_555
C52 C32 1_555 1_555
H41 C52 1_555 1_555
H42 C52 1_555 1_555
N8 C1 1_555 1_555
Ni1_2 N1 1_555 1_555
Ni2_2 N5 1_555 1_555
Ni2A O2 1_555 1_555
Ni2A_2 O4 1_555 1_555
O2A Ni2 1_555 1_555
O3A Ni2 1_555 1_555
O4A Ni2 1_555 1_555
N1_2 Ni1 1_555 1_555
N5_2 Ni2 1_555 1_555
O3 Ni2A 1_555 1_555
C5 C15 1_555 1_555
C8 C17 1_555 1_555
C9 C15 1_555 1_555
C9 C20 1_555 1_555
C16 C38 1_555 1_555
C18 C47 1_555 1_555
C22 C25 1_555 1_555
C22 C44 1_555 1_555
C23 C35 1_555 1_555
C27 C31 1_555 1_555
C28 C36 1_555 1_555
C32 C37 1_555 1_555
C33 C43 1_555 1_555
C39 C45 1_555 1_555
C40 C48 1_555 1_555
C40 C49 1_555 1_555
C41 C45 1_555 1_555
C41 C51 1_555 1_555
C42 C46 1_555 1_555
C50 C52 1_555 1_555

#END
