
#######################################################################
#
#                 Cambridge Crystallographic Data Centre
#                                CCDC 
#
#######################################################################
#
# If this CIF has been generated from an entry in the Cambridge 
# Structural Database, then it will include bibliographic, chemical, 
# crystal, experimental, refinement or atomic coordinate data resulting 
# from the CCDC's data processing and validation procedures.
#
#######################################################################

data_JOVYIE
_symmetry_cell_setting           triclinic
_symmetry_space_group_name_H-M   'P -1'
_symmetry_Int_Tables_number      2
_space_group_name_Hall           '-P 1'
loop_
_symmetry_equiv_pos_site_id
_symmetry_equiv_pos_as_xyz
1 x,y,z
2 -x,-y,-z
_cell_length_a                   12.796(3)
_cell_length_b                   15.619(4)
_cell_length_c                   17.879(4)
_cell_angle_alpha                110.526(3)
_cell_angle_beta                 109.400(3)
_cell_angle_gamma                91.00
_cell_volume                     3119.96
loop_
_atom_site_label
_atom_site_type_symbol
_atom_site_fract_x
_atom_site_fract_y
_atom_site_fract_z
Co1 Co 1.0000 0.5000 0.0000
Co2 Co 1.22903(3) 0.41003(2) -0.04800(2)
Co3 Co 1.75414(3) 0.87798(2) 0.42148(2)
O1 O 1.19496(16) 0.34923(14) 0.02814(13)
O2 O 1.08950(15) 0.33347(12) -0.14990(12)
O3 O 1.17231(13) 0.53608(11) 0.01560(11)
O4 O 1.02481(15) 0.38196(12) 0.02817(13)
O5 O 1.34972(15) 0.52113(12) 0.06190(13)
O6 O 1.07582(18) 0.85070(16) 0.13266(16)
O7 O 1.62961(16) 0.76797(14) 0.30914(13)
N1 N 1.33797(18) 0.31281(14) -0.06830(14)
C1 C 1.30112(19) 0.66693(16) 0.12943(15)
C2 C 1.1626(2) 0.19033(18) 0.05663(18)
H1 H 1.2228 0.1996 0.0408
C3 C 1.27318(19) 0.56892(16) 0.06679(15)
C4 C 1.1042(2) 0.33551(16) 0.03694(15)
C5 C 1.2545(2) 0.81728(16) 0.18601(16)
C6 C 1.4399(2) 0.78911(17) 0.24927(16)
N2 N 1.26404(19) 0.47346(15) -0.12904(15)
C7 C 0.9074(2) 0.29433(16) -0.25423(15)
C8 C 1.2227(2) 0.72688(16) 0.12591(16)
H2 H 1.1508 0.7073 0.0846
O8 O 1.58354(19) 0.90209(15) 0.36852(15)
C9 C 0.9939(2) 0.35677(16) -0.17012(15)
C10 C 1.4092(2) 0.69770(17) 0.19029(16)
H3 H 1.4615 0.6571 0.1917
N3 N 1.5413(2) 0.04073(18) -0.04684(19)
N4 N 1.1705(2) 0.88040(15) 0.18526(15)
C11 C 0.9261(2) 0.20565(17) -0.29761(16)
H4 H 0.9928 0.1855 -0.2745
C12 C 0.7468(2) 0.1780(2) -0.40974(18)
H5 H 0.6922 0.1397 -0.4612
O9 O 1.3216(2) 0.07578(17) 0.0678(2)
C13 C 1.0881(2) 0.25395(17) 0.06046(17)
C14 C 1.5574(2) 0.8211(2) 0.31282(18)
C15 C 0.9984(2) 0.23939(19) 0.0836(2)
H6 H 0.9471 0.2808 0.0863
O10 O 1.1990(2) 0.95876(15) 0.23974(17)
C16 C 1.3612(2) 0.84905(17) 0.24726(16)
H7 H 1.3799 0.9098 0.2866
C17 C 1.1486(2) 0.11302(19) 0.0760(2)
O11 O 1.2095(2) -0.03069(19) 0.0711(2)
C18 C 1.0589(3) 0.0977(2) 0.0991(2)
H8 H 1.0481 0.0461 0.1118
C19 C 0.8461(2) 0.14752(18) -0.37479(16)
N5 N 0.8902(3) 0.1467(2) 0.1268(3)
N6 N 0.6274(3) 0.2994(2) -0.4048(2)
C20 C 1.4777(3) 0.1775(2) -0.0831(2)
C21 C 1.2292(3) 0.0445(2) 0.0710(2)
C22 C 1.3683(3) 0.1600(2) -0.1394(2)
H9 H 1.3399 0.1025 -0.1837
C23 C 0.7308(2) 0.2659(2) -0.36671(18)
C24 C 0.8082(2) 0.32496(19) -0.28927(17)
H10 H 0.7943 0.3837 -0.2613
C25 C 1.2067(3) 0.5399(2) -0.1454(2)
H11 H 1.1531 0.5580 -0.1208
C26 C 1.3030(3) 0.5572(2) -0.2345(2)
C27 C 1.3392(3) 0.4484(2) -0.1667(2)
H12 H 1.3791 0.4016 -0.1572
N7 N 1.4234(3) 0.5929(2) -0.3068(2)
O12 O 0.8320(3) 0.2068(2) 0.1368(4)
C28 C 1.4450(2) 0.3300(2) -0.0151(2)
H13 H 1.4725 0.3888 0.0274
C29 C 1.3012(3) 0.2283(2) -0.12974(19)
H14 H 1.2273 0.2149 -0.1676
C30 C 1.4315(3) -0.0197(2) -0.0877(2)
H15 H 1.4162 -0.0521 -0.1483
H16 H 1.3726 0.0174 -0.0815
C31 C 1.5533(3) 0.1039(2) -0.0901(3)
H17 H 1.5372 0.0676 -0.1502
H18 H 1.6306 0.1340 -0.0654
C32 C 1.5664(3) 0.0891(2) 0.0451(2)
H19 H 1.5099 0.1281 0.0539
H20 H 1.6386 0.1284 0.0710
C33 C 1.5157(3) 0.2654(2) -0.0203(2)
H21 H 1.5892 0.2804 0.0184
C34 C 1.3167(4) 0.6003(3) -0.2953(3)
H22 H 1.2570 0.5704 -0.3506
H23 H 1.3088 0.6651 -0.2736
O13 O 0.8700(3) 0.0741(3) 0.1321(3)
C35 C 1.5264(3) 0.6105(3) -0.3949(2)
H24 H 1.5393 0.5466 -0.4105
H25 H 1.5215 0.6290 -0.4423
C36 C 0.9864(3) 0.1621(2) 0.1026(3)
N8 N 1.6208(3) 0.6695(2) -0.31801(19)
C37 C 1.3608(3) 0.4880(3) -0.2188(2)
H26 H 1.4142 0.4681 -0.2432
C38 C 1.5190(4) 0.6488(3) -0.2311(2)
H27 H 1.5234 0.6301 -0.1840
H28 H 1.5090 0.7134 -0.2146
C39 C 1.2233(3) 0.5818(2) -0.1964(2)
H29 H 1.1811 0.6274 -0.2059
C40 C 1.6262(3) 0.6377(4) -0.2486(2)
H30 H 1.6893 0.6737 -0.1973
H31 H 1.6367 0.5733 -0.2651
O14 O 0.96356(16) 0.42746(12) -0.12820(11)
O15 O 0.9609(2) 0.02960(15) -0.39133(16)
N9 N 1.8907(2) 0.80532(17) 0.42049(16)
N10 N 1.7270(2) 0.80906(18) -0.49942(17)
C41 C 1.8799(3) 0.7233(2) 0.3574(2)
H32 H 1.8188 0.7073 0.3064
C42 C 0.8686(3) 0.05248(18) -0.42109(18)
C43 C 1.9820(3) 0.8290(2) 0.4913(2)
H33 H 1.9928 0.8866 0.5347
C44 C 1.4187(3) 0.6181(3) -0.3793(2)
H34 H 1.4032 0.6810 -0.3678
H35 H 1.3581 0.5776 -0.4303
C45 C 1.7442(4) 0.8536(3) -0.4164(2)
H36 H 1.7561 0.9179 -0.3946
C46 C 1.7093(3) 0.7173(2) -0.5280(2)
H37 H 1.6949 0.6843 -0.5858
O16 O 0.7881(2) 0.00323(15) -0.48697(15)
C47 C 1.9550(3) 0.6619(2) 0.3649(2)
H38 H 1.9438 0.6057 0.3197
C48 C 2.0612(3) 0.7711(2) 0.5028(2)
H39 H 2.1242 0.7906 0.5529
C49 C 2.0476(3) 0.6843(2) 0.4402(2)
C50 C 1.7290(3) 0.7143(3) -0.3916(3)
C51 C 1.7264(3) 0.6649(4) -0.3325(3)
H40 H 1.7351 0.6007 -0.3580
H41 H 1.7883 0.6935 -0.2783
O17 O 0.5578(3) 0.2491(3) -0.4691(3)
O18 O 0.6150(4) 0.3761(3) -0.3703(3)
C52 C 1.7111(4) 0.6680(3) -0.4768(3)
H42 H 1.7002 0.6037 -0.5000
C53 C 1.7451(4) 0.8101(3) -0.3616(3)
H43 H 1.7566 0.8448 -0.3045
O19 O 1.8047(2) 0.93705(19) 0.34362(17)
N11 N 2.0800(3) 0.5503(2) 0.4855(2)
C54 C 2.1255(3) 0.6167(3) 0.4582(3)
H44 H 2.1407 0.5828 0.4070
H45 H 2.1960 0.6509 0.5027
C55 C 2.0369(3) 0.5942(3) 0.5530(3)
H46 H 1.9717 0.6214 0.5314
H47 H 2.0935 0.6431 0.6000
C56 C 1.9949(4) 0.4777(3) 0.4153(3)
H48 H 2.0231 0.4485 0.3698
H49 H 1.9292 0.5038 0.3925
N1A N 1.66203(18) -0.31281(14) 0.06830(14)
N3A N 1.4587(2) -0.04073(18) 0.04684(19)
C20A C 1.5223(3) -0.1775(2) 0.0831(2)
C22A C 1.6317(3) -0.1600(2) 0.1394(2)
H9A H 1.6601 -0.1025 0.1837
C28A C 1.5550(2) -0.3300(2) 0.0151(2)
H13A H 1.5275 -0.3888 -0.0274
C29A C 1.6988(3) -0.2283(2) 0.12974(19)
H14A H 1.7727 -0.2149 0.1676
C30A C 1.5685(3) 0.0197(2) 0.0877(2)
H15A H 1.5838 0.0521 0.1483
H16A H 1.6274 -0.0174 0.0815
C31A C 1.4467(3) -0.1039(2) 0.0901(3)
H17A H 1.4628 -0.0676 0.1502
H18A H 1.3694 -0.1340 0.0654
C32A C 1.4336(3) -0.0891(2) -0.0451(2)
H19A H 1.4901 -0.1281 -0.0539
H20A H 1.3614 -0.1284 -0.0710
C33A C 1.4843(3) -0.2654(2) 0.0203(2)
H21A H 1.4108 -0.2804 -0.0184
N9A N 2.1093(2) 0.19468(17) 0.57951(16)
C41A C 2.1201(3) 0.2767(2) 0.6426(2)
H32A H 2.1812 0.2927 0.6936
C43A C 2.0180(3) 0.1710(2) 0.5087(2)
H33A H 2.0072 0.1134 0.4653
C47A C 2.0450(3) 0.3381(2) 0.6351(2)
H38A H 2.0562 0.3943 0.6803
C48A C 1.9388(3) 0.2289(2) 0.4972(2)
H39A H 1.8758 0.2094 0.4471
C49A C 1.9524(3) 0.3157(2) 0.5598(2)
N11A N 1.9200(3) 0.4497(2) 0.5145(2)
C54A C 1.8745(3) 0.3833(3) 0.5418(3)
H44A H 1.8593 0.4172 0.5930
H45A H 1.8040 0.3491 0.4973
C55A C 1.9631(3) 0.4058(3) 0.4470(3)
H46A H 2.0283 0.3786 0.4686
H47A H 1.9065 0.3569 0.4000
C56A C 2.0051(4) 0.5223(3) 0.5847(3)
H48A H 1.9769 0.5515 0.6302
H49A H 2.0708 0.4962 0.6075
Co2A Co 0.77097(3) 0.58997(2) 0.04800(2)
Co3A Co 0.24586(3) 0.12202(2) -0.42148(2)
O1A O 0.80504(16) 0.65077(14) -0.02814(13)
O2A O 0.91050(15) 0.66653(12) 0.14990(12)
O3A O 0.82769(13) 0.46392(11) -0.01560(11)
O4A O 0.97519(15) 0.61804(12) -0.02817(13)
O5A O 0.65028(15) 0.47887(12) -0.06190(13)
O6A O 0.92418(18) 0.14930(16) -0.13266(16)
O7A O 0.37039(16) 0.23203(14) -0.30914(13)
C1A C 0.69888(19) 0.33307(16) -0.12943(15)
C2A C 0.8374(2) 0.80967(18) -0.05663(18)
H1A H 0.7772 0.8004 -0.0408
C3A C 0.72682(19) 0.43108(16) -0.06679(15)
C4A C 0.8958(2) 0.66449(16) -0.03694(15)
C5A C 0.7455(2) 0.18272(16) -0.18601(16)
C6A C 0.5601(2) 0.21089(17) -0.24927(16)
N2A N 0.73596(19) 0.52654(15) 0.12904(15)
C7A C 1.0926(2) 0.70567(16) 0.25423(15)
C8A C 0.7773(2) 0.27312(16) -0.12591(16)
H2A H 0.8492 0.2927 -0.0846
O8A O 0.41646(19) 0.09791(15) -0.36852(15)
C9A C 1.0061(2) 0.64323(16) 0.17012(15)
C10A C 0.5908(2) 0.30230(17) -0.19029(16)
H3A H 0.5385 0.3429 -0.1917
N4A N 0.8295(2) 0.11960(15) -0.18526(15)
C11A C 1.0739(2) 0.79435(17) 0.29761(16)
H4A H 1.0072 0.8145 0.2745
C12A C 1.2532(2) 0.8220(2) 0.40974(18)
H5A H 1.3078 0.8603 0.4612
O9A O 0.6784(2) 0.92422(17) -0.0678(2)
C13A C 0.9119(2) 0.74605(17) -0.06046(17)
C14A C 0.4426(2) 0.1789(2) -0.31282(18)
C15A C 1.0016(2) 0.76061(19) -0.0836(2)
H6A H 1.0529 0.7192 -0.0863
O10A O 0.8010(2) 0.04124(15) -0.23974(17)
C16A C 0.6388(2) 0.15095(17) -0.24726(16)
H7A H 0.6201 0.0902 -0.2866
C17A C 0.8514(2) 0.88698(19) -0.0760(2)
O11A O 0.7905(2) 1.03069(19) -0.0711(2)
C18A C 0.9411(3) 0.9023(2) -0.0991(2)
H8A H 0.9519 0.9539 -0.1118
C19A C 1.1539(2) 0.85248(18) 0.37479(16)
N5A N 1.1098(3) 0.8533(2) -0.1268(3)
N6A N 1.3726(3) 0.7006(2) 0.4048(2)
C21A C 0.7708(3) 0.9555(2) -0.0710(2)
C23A C 1.2692(2) 0.7341(2) 0.36671(18)
C24A C 1.1918(2) 0.67504(19) 0.28927(17)
H10A H 1.2057 0.6163 0.2613
C25A C 0.7933(3) 0.4601(2) 0.1454(2)
H11A H 0.8469 0.4420 0.1208
C26A C 0.6970(3) 0.4428(2) 0.2345(2)
C27A C 0.6608(3) 0.5516(2) 0.1667(2)
H12A H 0.6209 0.5984 0.1572
N7A N 0.5766(3) 0.4071(2) 0.3068(2)
O12A O 1.1680(3) 0.7932(2) -0.1368(4)
C34A C 0.6833(4) 0.3997(3) 0.2953(3)
H22A H 0.7430 0.4296 0.3506
H23A H 0.6912 0.3349 0.2736
O13A O 1.1300(3) 0.9259(3) -0.1321(3)
C35A C 0.4736(3) 0.3895(3) 0.3949(2)
H24A H 0.4607 0.4534 0.4105
H25A H 0.4785 0.3710 0.4423
C36A C 1.0136(3) 0.8379(2) -0.1026(3)
N8A N 0.3792(3) 0.3305(2) 0.31801(19)
C37A C 0.6392(3) 0.5120(3) 0.2188(2)
H26A H 0.5858 0.5319 0.2432
C38A C 0.4810(4) 0.3512(3) 0.2311(2)
H27A H 0.4766 0.3699 0.1840
H28A H 0.4910 0.2866 0.2146
C39A C 0.7767(3) 0.4182(2) 0.1964(2)
H29A H 0.8189 0.3726 0.2059
C40A C 0.3738(3) 0.3623(4) 0.2486(2)
H30A H 0.3107 0.3263 0.1973
H31A H 0.3633 0.4267 0.2651
O14A O 1.03644(16) 0.57254(12) 0.12820(11)
O15A O 1.0391(2) 0.97040(15) 0.39133(16)
N10A N 0.2730(2) 0.19094(18) 0.49942(17)
C42A C 1.1314(3) 0.94752(18) 0.42109(18)
C44A C 0.5813(3) 0.3819(3) 0.3793(2)
H34A H 0.5968 0.3190 0.3678
H35A H 0.6419 0.4224 0.4303
C45A C 0.2558(4) 0.1464(3) 0.4164(2)
H36A H 0.2439 0.0821 0.3946
C46A C 0.2907(3) 0.2827(2) 0.5280(2)
H37A H 0.3051 0.3157 0.5858
O16A O 1.2119(2) 0.99677(15) 0.48697(15)
C50A C 0.2710(3) 0.2857(3) 0.3916(3)
C51A C 0.2736(3) 0.3351(4) 0.3325(3)
H40A H 0.2649 0.3993 0.3580
H41A H 0.2117 0.3065 0.2783
O17A O 1.4422(3) 0.7509(3) 0.4691(3)
O18A O 1.3850(4) 0.6239(3) 0.3703(3)
C52A C 0.2889(4) 0.3320(3) 0.4768(3)
H42A H 0.2998 0.3963 0.5000
C53A C 0.2549(4) 0.1899(3) 0.3616(3)
H43A H 0.2434 0.1552 0.3045
O19A O 0.1953(2) 0.06295(19) -0.34362(17)
Co2A_2 Co 1.77097(3) -0.41003(2) 0.04800(2)
Co3_2 Co 0.75414(3) -0.12202(2) -0.57852(2)
Co3_3 Co 1.75414(3) 0.87798(2) -0.57852(2)
Co3A_2 Co 0.24586(3) 0.12202(2) 0.57852(2)
Co3A_3 Co 1.24586(3) 1.12202(2) 0.57852(2)
Co3A_4 Co 2.24586(3) 0.12202(2) 0.57852(2)
N1A_2 N 0.66203(18) 0.68719(14) 0.06830(14)
N9A_2 N 0.1093(2) 0.19468(17) -0.42049(16)
N10_2 N 1.7270(2) 0.80906(18) 0.50058(17)
N10A_2 N 0.2730(2) 0.19094(18) -0.50058(17)
O16_2 O 1.7881(2) 1.00323(15) 0.51303(15)
O16A_2 O 0.2119(2) -0.00323(15) -0.51303(15)
O20 O 1.4665(8) 1.1329(6) 0.2845(7)
O21 O 1.6589(12) 1.0737(6) 0.3329(6)
O22 O 1.4754(9) 1.0422(7) 0.4379(9)
loop_
_geom_bond_atom_site_label_1
_geom_bond_atom_site_label_2
_geom_bond_site_symmetry_1
_geom_bond_site_symmetry_2
Co1 O3 1_555 1_555
Co2 O1 1_555 1_555
Co3 O7 1_555 1_555
O1 C4 1_555 1_555
O2 Co2 1_555 1_555
O3 Co2 1_555 1_555
O4 Co1 1_555 1_555
O5 Co2 1_555 1_555
O6 N4 1_555 1_555
O7 C14 1_555 1_555
N1 Co2 1_555 1_555
C1 C3 1_555 1_555
C2 H1 1_555 1_555
C3 O3 1_555 1_555
C4 O4 1_555 1_555
C5 C8 1_555 1_555
C6 C10 1_555 1_555
N2 Co2 1_555 1_555
C7 C9 1_555 1_555
C8 C1 1_555 1_555
H2 C8 1_555 1_555
O8 Co3 1_555 1_555
C9 O2 1_555 1_555
C10 C1 1_555 1_555
H3 C10 1_555 1_555
N3 C30 1_555 1_555
N4 C5 1_555 1_555
C11 C7 1_555 1_555
H4 C11 1_555 1_555
C12 H5 1_555 1_555
O9 C21 1_555 1_555
C13 C2 1_555 1_555
C14 C6 1_555 1_555
C15 C13 1_555 1_555
H6 C15 1_555 1_555
O10 N4 1_555 1_555
C16 C5 1_555 1_555
H7 C16 1_555 1_555
C17 C2 1_555 1_555
O11 C21 1_555 1_555
C18 C17 1_555 1_555
H8 C18 1_555 1_555
C19 C11 1_555 1_555
N5 O12 1_555 1_555
N6 C23 1_555 1_555
C20 C22 1_555 1_555
C21 C17 1_555 1_555
C22 H9 1_555 1_555
C23 C12 1_555 1_555
C24 C7 1_555 1_555
H10 C24 1_555 1_555
C25 N2 1_555 1_555
H11 C25 1_555 1_555
C26 C34 1_555 1_555
C27 N2 1_555 1_555
H12 C27 1_555 1_555
N7 C34 1_555 1_555
C28 N1 1_555 1_555
H13 C28 1_555 1_555
C29 N1 1_555 1_555
H14 C29 1_555 1_555
C30 H15 1_555 1_555
H16 C30 1_555 1_555
C31 N3 1_555 1_555
H17 C31 1_555 1_555
H18 C31 1_555 1_555
C32 N3 1_555 1_555
H19 C32 1_555 1_555
H20 C32 1_555 1_555
C33 C20 1_555 1_555
H21 C33 1_555 1_555
C34 H22 1_555 1_555
H23 C34 1_555 1_555
O13 N5 1_555 1_555
C35 H24 1_555 1_555
H25 C35 1_555 1_555
C36 C15 1_555 1_555
N8 C35 1_555 1_555
C37 C26 1_555 1_555
H26 C37 1_555 1_555
C38 N7 1_555 1_555
H27 C38 1_555 1_555
H28 C38 1_555 1_555
C39 C25 1_555 1_555
H29 C39 1_555 1_555
C40 N8 1_555 1_555
H30 C40 1_555 1_555
H31 C40 1_555 1_555
O14 Co1 1_555 1_555
O15 C42 1_555 1_555
N9 Co3 1_555 1_555
N10 C45 1_555 1_555
C41 N9 1_555 1_555
H32 C41 1_555 1_555
C42 C19 1_555 1_555
C43 N9 1_555 1_555
H33 C43 1_555 1_555
C44 N7 1_555 1_555
H34 C44 1_555 1_555
H35 C44 1_555 1_555
C45 H36 1_555 1_555
C46 N10 1_555 1_555
H37 C46 1_555 1_555
O16 C42 1_555 1_555
C47 C41 1_555 1_555
H38 C47 1_555 1_555
C48 C43 1_555 1_555
H39 C48 1_555 1_555
C49 C47 1_555 1_555
C50 C51 1_555 1_555
C51 N8 1_555 1_555
H40 C51 1_555 1_555
H41 C51 1_555 1_555
O17 N6 1_555 1_555
O18 N6 1_555 1_555
C52 C46 1_555 1_555
H42 C52 1_555 1_555
C53 C45 1_555 1_555
H43 C53 1_555 1_555
O19 Co3 1_555 1_555
N11 C54 1_555 1_555
C54 C49 1_555 1_555
H44 C54 1_555 1_555
H45 C54 1_555 1_555
C55 N11 1_555 1_555
H46 C55 1_555 1_555
H47 C55 1_555 1_555
C56 N11 1_555 1_555
H48 C56 1_555 1_555
H49 C56 1_555 1_555
N1A C28A 1_555 1_555
N3A C30A 1_555 1_555
C20A C22A 1_555 1_555
C22A H9A 1_555 1_555
C28A H13A 1_555 1_555
C29A N1A 1_555 1_555
H14A C29A 1_555 1_555
C30A C32 1_555 1_555
H15A C30A 1_555 1_555
H16A C30A 1_555 1_555
C31A N3A 1_555 1_555
H17A C31A 1_555 1_555
H18A C31A 1_555 1_555
C32A C30 1_555 1_555
H19A C32A 1_555 1_555
H20A C32A 1_555 1_555
C33A C20A 1_555 1_555
H21A C33A 1_555 1_555
N9A C41A 1_555 1_555
C41A H32A 1_555 1_555
C43A N9A 1_555 1_555
H33A C43A 1_555 1_555
C47A C41A 1_555 1_555
H38A C47A 1_555 1_555
C48A C43A 1_555 1_555
H39A C48A 1_555 1_555
C49A C47A 1_555 1_555
N11A C54A 1_555 1_555
C54A C49A 1_555 1_555
H44A C54A 1_555 1_555
H45A C54A 1_555 1_555
C55A C56 1_555 1_555
H46A C55A 1_555 1_555
H47A C55A 1_555 1_555
C56A C55 1_555 1_555
H48A C56A 1_555 1_555
H49A C56A 1_555 1_555
Co2A O1A 1_555 1_555
Co3A O7A 1_555 1_555
O1A C4A 1_555 1_555
O2A Co2A 1_555 1_555
O3A Co1 1_555 1_555
O4A Co1 1_555 1_555
O5A Co2A 1_555 1_555
O6A N4A 1_555 1_555
O7A C14A 1_555 1_555
C1A C3A 1_555 1_555
C2A H1A 1_555 1_555
C3A O3A 1_555 1_555
C4A O4A 1_555 1_555
C5A C8A 1_555 1_555
C6A C10A 1_555 1_555
N2A Co2A 1_555 1_555
C7A C9A 1_555 1_555
C8A C1A 1_555 1_555
H2A C8A 1_555 1_555
O8A Co3A 1_555 1_555
C9A O2A 1_555 1_555
C10A C1A 1_555 1_555
H3A C10A 1_555 1_555
N4A C5A 1_555 1_555
C11A C7A 1_555 1_555
H4A C11A 1_555 1_555
C12A H5A 1_555 1_555
O9A C21A 1_555 1_555
C13A C2A 1_555 1_555
C14A C6A 1_555 1_555
C15A C13A 1_555 1_555
H6A C15A 1_555 1_555
O10A N4A 1_555 1_555
C16A C5A 1_555 1_555
H7A C16A 1_555 1_555
C17A C2A 1_555 1_555
O11A C21A 1_555 1_555
C18A C17A 1_555 1_555
H8A C18A 1_555 1_555
C19A C11A 1_555 1_555
N5A O12A 1_555 1_555
N6A C23A 1_555 1_555
C21A C17A 1_555 1_555
C23A C12A 1_555 1_555
C24A C7A 1_555 1_555
H10A C24A 1_555 1_555
C25A N2A 1_555 1_555
H11A C25A 1_555 1_555
C26A C34A 1_555 1_555
C27A N2A 1_555 1_555
H12A C27A 1_555 1_555
N7A C34A 1_555 1_555
C34A H22A 1_555 1_555
H23A C34A 1_555 1_555
O13A N5A 1_555 1_555
C35A H24A 1_555 1_555
H25A C35A 1_555 1_555
C36A C15A 1_555 1_555
N8A C35A 1_555 1_555
C37A C26A 1_555 1_555
H26A C37A 1_555 1_555
C38A N7A 1_555 1_555
H27A C38A 1_555 1_555
H28A C38A 1_555 1_555
C39A C25A 1_555 1_555
H29A C39A 1_555 1_555
C40A N8A 1_555 1_555
H30A C40A 1_555 1_555
H31A C40A 1_555 1_555
O14A Co1 1_555 1_555
O15A C42A 1_555 1_555
N10A C45A 1_555 1_555
C42A C19A 1_555 1_555
C44A N7A 1_555 1_555
H34A C44A 1_555 1_555
H35A C44A 1_555 1_555
C45A H36A 1_555 1_555
C46A N10A 1_555 1_555
H37A C46A 1_555 1_555
O16A C42A 1_555 1_555
C50A C51A 1_555 1_555
C51A N8A 1_555 1_555
H40A C51A 1_555 1_555
H41A C51A 1_555 1_555
O17A N6A 1_555 1_555
O18A N6A 1_555 1_555
C52A C46A 1_555 1_555
H42A C52A 1_555 1_555
C53A C45A 1_555 1_555
H43A C53A 1_555 1_555
O19A Co3A 1_555 1_555
Co2A_2 N1A 1_555 1_555
Co3_2 O16 1_555 1_555
Co3_3 N10 1_555 1_555
Co3A_2 N10A 1_555 1_555
Co3A_3 O16A 1_555 1_555
Co3A_4 N9A 1_555 1_555
N1A_2 Co2A 1_555 1_555
N9A_2 Co3A 1_555 1_555
N10_2 Co3 1_555 1_555
N10A_2 Co3A 1_555 1_555
O16_2 Co3 1_555 1_555
O16A_2 Co3A 1_555 1_555
O5 C3 1_555 1_555
C4 C13 1_555 1_555
C6 C16 1_555 1_555
O8 C14 1_555 1_555
C9 O14 1_555 1_555
C12 C19 1_555 1_555
C18 C36 1_555 1_555
N5 C36 1_555 1_555
C20 C31 1_555 1_555
C22 C29 1_555 1_555
C23 C24 1_555 1_555
C26 C39 1_555 1_555
C27 C37 1_555 1_555
C28 C33 1_555 1_555
C35 C44 1_555 1_555
C38 C40 1_555 1_555
C48 C49 1_555 1_555
C50 C52 1_555 1_555
C50 C53 1_555 1_555
N3A C32A 1_555 1_555
C20A C31A 1_555 1_555
C22A C29A 1_555 1_555
C28A C33A 1_555 1_555
C48A C49A 1_555 1_555
N11A C55A 1_555 1_555
N11A C56A 1_555 1_555
Co2A O3A 1_555 1_555
O5A C3A 1_555 1_555
C4A C13A 1_555 1_555
C6A C16A 1_555 1_555
O8A C14A 1_555 1_555
C9A O14A 1_555 1_555
C12A C19A 1_555 1_555
C18A C36A 1_555 1_555
N5A C36A 1_555 1_555
C23A C24A 1_555 1_555
C26A C39A 1_555 1_555
C27A C37A 1_555 1_555
C35A C44A 1_555 1_555
C38A C40A 1_555 1_555
C50A C52A 1_555 1_555
C50A C53A 1_555 1_555

#END
