
#######################################################################
#
#                 Cambridge Crystallographic Data Centre
#                                CCDC 
#
#######################################################################
#
# If this CIF has been generated from an entry in the Cambridge 
# Structural Database, then it will include bibliographic, chemical, 
# crystal, experimental, refinement or atomic coordinate data resulting 
# from the CCDC's data processing and validation procedures.
#
#######################################################################

data_JOWDII01
_symmetry_cell_setting           monoclinic
_symmetry_space_group_name_H-M   'P 21/a'
_symmetry_Int_Tables_number      14
_space_group_name_Hall           '-P 2yab'
loop_
_symmetry_equiv_pos_site_id
_symmetry_equiv_pos_as_xyz
1 x,y,z
2 1/2-x,1/2+y,-z
3 -x,-y,-z
4 1/2+x,1/2-y,z
_cell_length_a                   9.894(6)
_cell_length_b                   16.171(8)
_cell_length_c                   10.702(7)
_cell_angle_alpha                90
_cell_angle_beta                 106.76(5)
_cell_angle_gamma                90
_cell_volume                     1639.54
loop_
_atom_site_label
_atom_site_type_symbol
_atom_site_fract_x
_atom_site_fract_y
_atom_site_fract_z
Cu1 Cu 0.0697(1) 0.1691(1) 0.2417(1)
N1 N -0.0079(9) 0.2546(6) 0.3449(8)
N2 N -0.1314(9) 0.1759(6) 0.1270(8)
N3 N -0.3458(10) 0.2398(6) 0.1130(9)
N4 N -0.2252(9) 0.3169(6) 0.3441(8)
C1 C -0.1868(13) 0.1364(8) 0.0139(12)
C2 C -0.3247(14) 0.1496(9) -0.0532(11)
C3 C -0.4031(12) 0.2014(8) -0.0019(11)
C4 C -0.2143(10) 0.2237(7) 0.1708(9)
C5 C -0.1480(11) 0.2677(7) 0.2941(10)
C6 C 0.0560(13) 0.2939(9) 0.4546(12)
C7 C -0.0174(12) 0.3480(9) 0.5111(11)
C8 C -0.1578(12) 0.3555(8) 0.4553(12)
O2 O 0.0277(10) 0.0705(6) 0.3842(9)
O3 O 0.1168(9) 0.0738(5) 0.1426(8)
H3 H -0.034(10) 0.031(6) 0.332(12)
H4 H -0.035(10) 0.106(7) 0.411(12)
H5 H 0.125(15) 0.030(5) 0.201(8)
H6 H 0.091(14) 0.048(6) 0.060(5)
H7 H 0.155 0.284 0.496
H8 H 0.030 0.380 0.588
H9 H -0.211 0.390 0.497
H10 H -0.130 0.100 -0.020
H11 H -0.366 0.122 -0.136
H12 H -0.501 0.212 -0.049
N3C N 0.1542(10) 0.2602(6) 0.1130(9)
N4C N 0.2748(9) 0.1831(6) 0.3441(8)
Cu1C Cu -0.4303(1) 0.3309(1) 0.2417(1)
Cl1 Cl 0.4212(5) 0.3577(3) 0.7013(4)
O4 O 0.4058(15) 0.3547(9) 0.5713(11)
O5 O 0.3119(16) 0.4206(10) 0.7151(14)
O7 O 0.3918(27) 0.2844(17) 0.7412(22)
O9 O 0.5425(32) 0.4191(20) 0.7362(28)
Cl2 Cl 0.3948(4) -0.0174(3) 0.7453(4)
O11 O 0.3664(18) 0.0658(11) 0.7385(16)
O13 O 0.3098(20) -0.0852(12) 0.6939(21)
O15 O 0.5308(18) -0.0202(11) 0.7242(18)
O17 O 0.4401(21) -0.0255(12) 0.8889(20)
O1 O 0.2831(11) 0.1070(7) -0.0020(10)
H1 H 0.274(14) 0.161(4) -0.042(13)
H2 H 0.353(11) 0.082(7) -0.038(12)
O6? O 0.4872(42) 0.4062(27) 0.8025(40)
O8? O 0.3113(42) 0.2865(23) 0.7133(36)
O10? O 0.5176(48) 0.3401(31) 0.8174(44)
O12? O 0.5092(44) -0.0750(27) 0.7879(40)
O14? O 0.4229(65) -0.0027(34) 0.6269(58)
O16? O 0.3190(51) -0.0353(30) 0.6039(47)
O18? O 0.3136(61) -0.0467(37) 0.8332(58)
loop_
_geom_bond_atom_site_label_1
_geom_bond_atom_site_label_2
_geom_bond_site_symmetry_1
_geom_bond_site_symmetry_2
Cu1 N1 1_555 1_555
Cl1 O4 1_555 1_555
Cl2 O11 1_555 1_555
N1 C5 1_555 1_555
N2 Cu1 1_555 1_555
N3 C3 1_555 1_555
N4 C5 1_555 1_555
C1 N2 1_555 1_555
C2 C1 1_555 1_555
C3 C2 1_555 1_555
C4 N2 1_555 1_555
C5 C4 1_555 1_555
C6 N1 1_555 1_555
C7 C6 1_555 1_555
C8 N4 1_555 1_555
O1 H1 1_555 1_555
O2 Cu1 1_555 1_555
O3 Cu1 1_555 1_555
O5 Cl1 1_555 1_555
O7 Cl1 1_555 1_555
O9 Cl1 1_555 1_555
O13 Cl2 1_555 1_555
O15 Cl2 1_555 1_555
O17 Cl2 1_555 1_555
H2 O1 1_555 1_555
H3 O2 1_555 1_555
H4 O2 1_555 1_555
H5 O3 1_555 1_555
H6 O3 1_555 1_555
H7 C6 1_555 1_555
H8 C7 1_555 1_555
H9 C8 1_555 1_555
H10 C1 1_555 1_555
H11 C2 1_555 1_555
H12 C3 1_555 1_555
N3C Cu1 1_555 1_555
N4C Cu1 1_555 1_555
Cu1C N3 1_555 1_555
N3 C4 1_555 1_555
N4 Cu1C 1_555 1_555
C7 C8 1_555 1_555

#END
