
#######################################################################
#
#                 Cambridge Crystallographic Data Centre
#                                CCDC 
#
#######################################################################
#
# If this CIF has been generated from an entry in the Cambridge 
# Structural Database, then it will include bibliographic, chemical, 
# crystal, experimental, refinement or atomic coordinate data resulting 
# from the CCDC's data processing and validation procedures.
#
#######################################################################

data_JOWDOO
_symmetry_cell_setting           orthorhombic
_symmetry_space_group_name_H-M   'P b c a'
_symmetry_Int_Tables_number      61
_space_group_name_Hall           '-P 2ac 2ab'
loop_
_symmetry_equiv_pos_site_id
_symmetry_equiv_pos_as_xyz
1 x,y,z
2 1/2-x,1/2+y,z
3 x,1/2-y,1/2+z
4 1/2-x,-y,1/2+z
5 -x,-y,-z
6 1/2+x,1/2-y,-z
7 -x,1/2+y,1/2-z
8 1/2+x,y,1/2-z
_cell_length_a                   20.041(9)
_cell_length_b                   10.056(3)
_cell_length_c                   21.447(7)
_cell_angle_alpha                90
_cell_angle_beta                 90
_cell_angle_gamma                90
_cell_volume                     4322.26
loop_
_atom_site_label
_atom_site_type_symbol
_atom_site_fract_x
_atom_site_fract_y
_atom_site_fract_z
Cl1 Cl 0.3967(1) 0.1197(3) 0.1589(1)
O3 O 0.4071(6) 0.0886(10) 0.2213(4)
O4 O 0.3738(6) 0.0104(10) 0.1249(5)
O5 O 0.3476(5) 0.2205(9) 0.1568(6)
O6 O 0.4598(6) 0.1578(13) 0.1371(6)
Cu1 Cu 0.0887(1) 0.1115(1) 0.1723(1)
O1 O 0.1285(4) -0.0253(7) 0.1022(3)
O2 O 0.1689(4) 0.2485(9) 0.1400(4)
N1 N 0.0229(4) 0.1933(7) 0.1133(3)
N2 N 0.0493(3) 0.2709(7) 0.2284(3)
N3 N -0.0263(4) 0.4506(7) 0.2930(3)
N4 N -0.1459(3) 0.5293(7) 0.2610(4)
C1 C 0.0224(5) 0.1678(11) 0.0532(5)
C2 C -0.0126(6) 0.2403(11) 0.0100(5)
C3 C -0.0480(6) 0.3478(11) 0.0311(5)
C4 C -0.0469(5) 0.3796(10) 0.0948(5)
C5 C -0.0135(4) 0.2970(9) 0.1341(4)
C6 C -0.0061(5) 0.3238(9) 0.2019(4)
C7 C 0.0666(5) 0.3103(11) 0.2840(5)
C8 C 0.0321(5) 0.4106(10) 0.3155(4)
C9 C -0.0489(4) 0.4015(9) 0.2397(4)
C10 C -0.1200(5) 0.4283(8) 0.2281(4)
C11 C -0.1606(5) 0.3475(10) 0.1918(5)
C12 C -0.2290(5) 0.3769(11) 0.1886(5)
C13 C -0.2532(5) 0.4834(11) 0.2204(5)
C14 C -0.2129(5) 0.5566(10) 0.2565(5)
H1 H 0.0471 0.0915 0.0393
H2 H -0.0111 0.2184 -0.0335
H3 H -0.0728 0.4030 0.0028
H4 H -0.0708 0.4546 0.1112
H5 H 0.1049 0.2708 0.3035
H6 H 0.0502 0.4519 0.3522
H7 H -0.1420 0.2751 0.1684
H8 H -0.2589 0.3217 0.1650
H9 H -0.2994 0.5073 0.2165
H10 H -0.2311 0.6291 0.2801
N3F N 0.0263(4) -0.0494(7) 0.2070(3)
Cu1F Cu -0.0887(1) 0.6115(1) 0.3277(1)
N4F N 0.1459(3) 0.0293(7) 0.2390(4)
Cl2? Cl 0.1790(2) 0.1712(4) 0.4459(2)
O7? O 0.2436(6) 0.2176(15) 0.4494(6)
O8? O 0.1524(8) 0.1351(21) 0.4981(7)
O9? O 0.1557(7) 0.1601(14) 0.3896(6)
O10? O 0.1423(17) 0.3071(22) 0.4429(14)
O11? O 0.2001(16) 0.0149(22) 0.4423(12)
O12? O 0.2443(4) 0.0879(12) 0.0600(4)
O13? O 0.3609(6) 0.0428(18) 0.4134(7)
loop_
_geom_bond_atom_site_label_1
_geom_bond_atom_site_label_2
_geom_bond_site_symmetry_1
_geom_bond_site_symmetry_2
Cu1 O1 1_555 1_555
Cl1 O3 1_555 1_555
O2 Cu1 1_555 1_555
O4 Cl1 1_555 1_555
O5 Cl1 1_555 1_555
O6 Cl1 1_555 1_555
N1 Cu1 1_555 1_555
N2 Cu1 1_555 1_555
N3 C8 1_555 1_555
N4 C10 1_555 1_555
C1 N1 1_555 1_555
C2 C1 1_555 1_555
C3 C2 1_555 1_555
C4 C3 1_555 1_555
C5 N1 1_555 1_555
C6 N2 1_555 1_555
C7 N2 1_555 1_555
C8 C7 1_555 1_555
C9 N3 1_555 1_555
C10 C9 1_555 1_555
C11 C10 1_555 1_555
C12 C11 1_555 1_555
C13 C12 1_555 1_555
C14 N4 1_555 1_555
H1 C1 1_555 1_555
H2 C2 1_555 1_555
H3 C3 1_555 1_555
H4 C4 1_555 1_555
H5 C7 1_555 1_555
H6 C8 1_555 1_555
H7 C11 1_555 1_555
H8 C12 1_555 1_555
H9 C13 1_555 1_555
H10 C14 1_555 1_555
N3F Cu1 1_555 1_555
Cu1F N3 1_555 1_555
N4F Cu1 1_555 1_555
N4 Cu1F 1_555 1_555
C4 C5 1_555 1_555
C5 C6 1_555 1_555
C6 C9 1_555 1_555
C13 C14 1_555 1_555

#END
