
#######################################################################
#
#                 Cambridge Crystallographic Data Centre
#                                CCDC 
#
#######################################################################
#
# If this CIF has been generated from an entry in the Cambridge 
# Structural Database, then it will include bibliographic, chemical, 
# crystal, experimental, refinement or atomic coordinate data resulting 
# from the CCDC's data processing and validation procedures.
#
#######################################################################

data_JOWJEK
_symmetry_cell_setting           orthorhombic
_symmetry_space_group_name_H-M   'P b c n'
_symmetry_Int_Tables_number      60
_space_group_name_Hall           '-P 2n 2ab'
loop_
_symmetry_equiv_pos_site_id
_symmetry_equiv_pos_as_xyz
1 x,y,z
2 1/2-x,1/2-y,1/2+z
3 1/2+x,1/2-y,-z
4 -x,y,1/2-z
5 -x,-y,-z
6 1/2+x,1/2+y,1/2-z
7 1/2-x,1/2+y,z
8 x,-y,1/2+z
_cell_length_a                   15.641(8)
_cell_length_b                   16.009(7)
_cell_length_c                   12.108(9)
_cell_angle_alpha                90
_cell_angle_beta                 90
_cell_angle_gamma                90
_cell_volume                     3031.8
loop_
_atom_site_label
_atom_site_type_symbol
_atom_site_fract_x
_atom_site_fract_y
_atom_site_fract_z
Cu1 Cu 1.0000 0.1034(1) 0.7500
Cu2 Cu 1.0000 0.5211 0.7500
N1 N 1.0000 0.2306(6) 0.7500
N2 N 1.0000 0.4025(6) 0.7500
N3 N 0.9984(5) 0.0410(4) 0.6013(6)
N4 N 1.0000 0.6396(6) 0.7500
N5 N 1.0000 0.8103(7) 0.7500
C1 C 1.0710(5) 0.2736(5) 0.7225(6)
C2 C 1.0711(6) 0.3596(5) 0.7247(7)
C3 C 1.1505(6) 0.2257(6) 0.6941(8)
C4 C 1.1501(7) 0.4097(6) 0.701(1)
C5 C 0.9349(6) 0.0521(5) 0.5273(8)
C6 C 1.0631(5) -0.0102(5) 0.5758(7)
C7 C 0.8628(7) 0.1084(7) 0.556(1)
C8 C 1.1327(6) -0.0232(6) 0.6586(8)
C9 C 1.0506(6) 0.6819(6) 0.8196(8)
C10 C 1.0490(6) 0.7677(6) 0.8206(9)
C11 C 1.1065(7) 0.6322(7) 0.894(1)
C12 C 1.1012(8) 0.8183(7) 0.902(1)
H1 H 1.1684 0.1913 0.7547
H2 H 1.1408 0.1901 0.6316
H3 H 1.1963 0.2629 0.6763
H4 H 1.1973 0.3751 0.6851
H5 H 1.1406 0.4470 0.6400
H6 H 1.1646 0.4443 0.7643
H7 H 0.8349 0.0906 0.6215
H8 H 0.8220 0.1096 0.4970
H9 H 0.8838 0.1640 0.5668
H10 H 1.1602 0.0282 0.6769
H11 H 1.1753 -0.0611 0.6311
H12 H 1.1100 -0.0468 0.7256
H13 H 1.1417 0.6667 0.9401
H14 H 1.1445 0.5958 0.8528
H15 H 1.0732 0.5967 0.9419
H16 H 1.0662 0.8522 0.9474
H17 H 1.1405 0.8559 0.8627
H18 H 1.1361 0.7834 0.9474
N3C N 1.0016(5) 0.0410(4) 0.8987(6)
C1C C 0.9290(5) 0.2736(5) 0.7775(6)
C2C C 0.9289(6) 0.3596(5) 0.7753(7)
C9C C 0.9494(6) 0.6819(6) 0.6804(8)
C6D C 0.9369(5) 0.0102(5) 0.4242(7)
C5D C 1.0651(6) -0.0521(5) 0.4727(8)
C10C C 0.9510(6) 0.7677(6) 0.6794(9)
C5C C 1.0651(6) 0.0521(5) 0.9727(8)
C6C C 0.9369(5) -0.0102(5) 0.9242(7)
C3C C 0.8495(6) 0.2257(6) 0.8059(8)
C4C C 0.8499(7) 0.4097(6) 0.799(1)
C11C C 0.8935(7) 0.6322(7) 0.606(1)
N3D N 1.0016(5) -0.0410(4) 0.3987(6)
C8D C 0.8673(6) 0.0232(6) 0.3414(8)
C7D C 1.1372(7) -0.1084(7) 0.444(1)
C12C C 0.8988(8) 0.8183(7) 0.598(1)
C6G C 1.0631(5) 0.0102(5) 1.0758(7)
C7C C 1.1372(7) 0.1084(7) 0.944(1)
C5G C 0.9349(6) -0.0521(5) 1.0273(8)
C8C C 0.8673(6) -0.0232(6) 0.8414(8)
H1C H 0.8316 0.1913 0.7453
H2C H 0.8592 0.1901 0.8684
H3C H 0.8037 0.2629 0.8237
H4C H 0.8027 0.3751 0.8149
H5C H 0.8594 0.4470 0.8600
H6C H 0.8354 0.4443 0.7357
H13C H 0.8583 0.6667 0.5599
H14C H 0.8555 0.5958 0.6472
H15C H 0.9268 0.5967 0.5581
Cu1D Cu 1.0000 -0.1034(1) 0.2500
H10D H 0.8398 -0.0282 0.3231
H11D H 0.8247 0.0611 0.3689
H12D H 0.8900 0.0468 0.2744
H7D H 1.1651 -0.0906 0.3785
H8D H 1.1780 -0.1096 0.5030
H9D H 1.1162 -0.1640 0.4332
H16C H 0.9338 0.8522 0.5526
H17C H 0.8595 0.8559 0.6373
H18C H 0.8639 0.7834 0.5526
N3G N 0.9984(5) -0.0410(4) 1.1013(6)
C8G C 1.1327(6) 0.0232(6) 1.1586(8)
H7C H 1.1651 0.0906 0.8785
H8C H 1.1780 0.1096 1.0030
H9C H 1.1162 0.1640 0.9332
C7G C 0.8628(7) -0.1084(7) 1.056(1)
H10C H 0.8398 0.0282 0.8231
H11C H 0.8247 -0.0611 0.8689
H12C H 0.8900 -0.0468 0.7744
N1D N 1.0000 -0.2306(6) 0.2500
N3G_2 N 0.9984(5) -0.0410(4) 0.1013(6)
Cu1D_2 Cu 1.0000 -0.1034(1) 1.2500
H10G H 1.1602 -0.0282 1.1769
H11G H 1.1753 0.0611 1.1311
H12G H 1.1100 0.0468 1.2256
H7G H 0.8349 -0.0906 1.1215
H8G H 0.8220 -0.1096 0.9970
H9G H 0.8838 -0.1640 1.0668
C1D C 0.9290(5) -0.2736(5) 0.2775(6)
C1G C 1.0710(5) -0.2736(5) 0.2225(6)
C2D C 0.9289(6) -0.3596(5) 0.2753(7)
C3D C 0.8495(6) -0.2257(6) 0.3059(8)
C2G C 1.0711(6) -0.3596(5) 0.2247(7)
C3G C 1.1505(6) -0.2257(6) 0.1941(8)
N2D N 1.0000 -0.4025(6) 0.2500
C4D C 0.8499(7) -0.4097(6) 0.299(1)
H1D H 0.8316 -0.1913 0.2453
H2D H 0.8592 -0.1901 0.3684
H3D H 0.8037 -0.2629 0.3237
C4G C 1.1501(7) -0.4097(6) 0.201(1)
H1G H 1.1684 -0.1913 0.2547
H2G H 1.1408 -0.1901 0.1316
H3G H 1.1963 -0.2629 0.1763
Cu2D Cu 1.0000 -0.5211 0.2500
H4D H 0.8027 -0.3751 0.3149
H5D H 0.8594 -0.4470 0.3600
H6D H 0.8354 -0.4443 0.2357
H4G H 1.1973 -0.3751 0.1851
H5G H 1.1406 -0.4470 0.1400
H6G H 1.1646 -0.4443 0.2643
N4D N 1.0000 -0.6396(6) 0.2500
C9D C 0.9494(6) -0.6819(6) 0.1804(8)
C9G C 1.0506(6) -0.6819(6) 0.3196(8)
C10D C 0.9510(6) -0.7677(6) 0.1794(9)
C11D C 0.8935(7) -0.6322(7) 0.106(1)
C10G C 1.0490(6) -0.7677(6) 0.3206(9)
C11G C 1.1065(7) -0.6322(7) 0.394(1)
N5D N 1.0000 -0.8103(7) 0.2500
C12D C 0.8988(8) -0.8183(7) 0.098(1)
H13D H 0.8583 -0.6667 0.0599
H14D H 0.8555 -0.5958 0.1472
H15D H 0.9268 -0.5967 0.0581
C12G C 1.1012(8) -0.8183(7) 0.402(1)
H13G H 1.1417 -0.6667 0.4401
H14G H 1.1445 -0.5958 0.3528
H15G H 1.0732 -0.5967 0.4419
H16D H 0.9338 -0.8522 0.0526
H17D H 0.8595 -0.8559 0.1373
H18D H 0.8639 -0.7834 0.0526
H16G H 1.0662 -0.8522 0.4474
H17G H 1.1405 -0.8559 0.3627
H18G H 1.1361 -0.7834 0.4474
Cl1 Cl 0.3356(2) 0.1182(2) 0.5178(3)
O1 O 0.3160(6) 0.1250(7) 0.6308(8)
O2 O 0.2746(7) 0.0600(7) 0.4692(9)
O3 O 0.4158(6) 0.083(1) 0.5044(9)
O4 O 0.325(1) 0.1925(6) 0.464(1)
loop_
_geom_bond_atom_site_label_1
_geom_bond_atom_site_label_2
_geom_bond_site_symmetry_1
_geom_bond_site_symmetry_2
Cu1 N1 1_555 1_555
Cu2 N2 1_555 1_555
Cl1 O1 1_555 1_555
O2 Cl1 1_555 1_555
O3 Cl1 1_555 1_555
O4 Cl1 1_555 1_555
N1 C1 1_555 1_555
N2 C2 1_555 1_555
N3 Cu1 1_555 1_555
N4 Cu2 1_555 1_555
N5 C10 1_555 1_555
C1 C2 1_555 1_555
C2 C4 1_555 1_555
C3 C1 1_555 1_555
C4 H4 1_555 1_555
C5 N3 1_555 1_555
C6 N3 1_555 1_555
C7 C5 1_555 1_555
C8 C6 1_555 1_555
C9 N4 1_555 1_555
C10 C9 1_555 1_555
C11 C9 1_555 1_555
C12 C10 1_555 1_555
H1 C3 1_555 1_555
H2 C3 1_555 1_555
H3 C3 1_555 1_555
H5 C4 1_555 1_555
H6 C4 1_555 1_555
H7 C7 1_555 1_555
H8 C7 1_555 1_555
H9 C7 1_555 1_555
H10 C8 1_555 1_555
H11 C8 1_555 1_555
H12 C8 1_555 1_555
H13 C11 1_555 1_555
H14 C11 1_555 1_555
H15 C11 1_555 1_555
H16 C12 1_555 1_555
H17 C12 1_555 1_555
H18 C12 1_555 1_555
N3C Cu1 1_555 1_555
C1C N1 1_555 1_555
C2C N2 1_555 1_555
C9C N4 1_555 1_555
C6D C5 1_555 1_555
C5D C6 1_555 1_555
C10C N5 1_555 1_555
C5C N3C 1_555 1_555
C6C N3C 1_555 1_555
C3C C1C 1_555 1_555
C4C C2C 1_555 1_555
C11C C9C 1_555 1_555
N3D C6D 1_555 1_555
C8D C6D 1_555 1_555
C7D C5D 1_555 1_555
C12C C10C 1_555 1_555
C6G C5C 1_555 1_555
C7C C5C 1_555 1_555
C5G C6C 1_555 1_555
C8C C6C 1_555 1_555
H1C C3C 1_555 1_555
H2C C3C 1_555 1_555
H3C C3C 1_555 1_555
H4C C4C 1_555 1_555
H5C C4C 1_555 1_555
H6C C4C 1_555 1_555
H13C C11C 1_555 1_555
H14C C11C 1_555 1_555
H15C C11C 1_555 1_555
Cu1D N3D 1_555 1_555
H10D C8D 1_555 1_555
H11D C8D 1_555 1_555
H12D C8D 1_555 1_555
H7D C7D 1_555 1_555
H8D C7D 1_555 1_555
H9D C7D 1_555 1_555
H16C C12C 1_555 1_555
H17C C12C 1_555 1_555
H18C C12C 1_555 1_555
N3G C6G 1_555 1_555
C8G C6G 1_555 1_555
H7C C7C 1_555 1_555
H8C C7C 1_555 1_555
H9C C7C 1_555 1_555
C7G C5G 1_555 1_555
H10C C8C 1_555 1_555
H11C C8C 1_555 1_555
H12C C8C 1_555 1_555
N1D Cu1D 1_555 1_555
N3G_2 Cu1D 1_555 1_555
Cu1D_2 N3G 1_555 1_555
H10G C8G 1_555 1_555
H11G C8G 1_555 1_555
H12G C8G 1_555 1_555
H7G C7G 1_555 1_555
H8G C7G 1_555 1_555
H9G C7G 1_555 1_555
C1D N1D 1_555 1_555
C1G N1D 1_555 1_555
C2D C1D 1_555 1_555
C3D C1D 1_555 1_555
C2G C1G 1_555 1_555
C3G C1G 1_555 1_555
N2D C2D 1_555 1_555
C4D C2D 1_555 1_555
H1D C3D 1_555 1_555
H2D C3D 1_555 1_555
H3D C3D 1_555 1_555
C4G C2G 1_555 1_555
H1G C3G 1_555 1_555
H2G C3G 1_555 1_555
H3G C3G 1_555 1_555
Cu2D N2D 1_555 1_555
H4D C4D 1_555 1_555
H5D C4D 1_555 1_555
H6D C4D 1_555 1_555
H4G C4G 1_555 1_555
H5G C4G 1_555 1_555
H6G C4G 1_555 1_555
N4D Cu2D 1_555 1_555
C9D N4D 1_555 1_555
C9G N4D 1_555 1_555
C10D C9D 1_555 1_555
C11D C9D 1_555 1_555
C10G C9G 1_555 1_555
C11G C9G 1_555 1_555
N5D C10D 1_555 1_555
C12D C10D 1_555 1_555
H13D C11D 1_555 1_555
H14D C11D 1_555 1_555
H15D C11D 1_555 1_555
C12G C10G 1_555 1_555
H13G C11G 1_555 1_555
H14G C11G 1_555 1_555
H15G C11G 1_555 1_555
H16D C12D 1_555 1_555
H17D C12D 1_555 1_555
H18D C12D 1_555 1_555
H16G C12G 1_555 1_555
H17G C12G 1_555 1_555
H18G C12G 1_555 1_555
C1C C2C 1_555 1_555
C9C C10C 1_555 1_555
C5D N3D 1_555 1_555
C5G N3G 1_555 1_555
C2G N2D 1_555 1_555
C10G N5D 1_555 1_555

#END
