
#######################################################################
#
#                 Cambridge Crystallographic Data Centre
#                                CCDC 
#
#######################################################################
#
# If this CIF has been generated from an entry in the Cambridge 
# Structural Database, then it will include bibliographic, chemical, 
# crystal, experimental, refinement or atomic coordinate data resulting 
# from the CCDC's data processing and validation procedures.
#
#######################################################################

data_JOWYEZ
_symmetry_cell_setting           monoclinic
_symmetry_space_group_name_H-M   'P 21/n'
_symmetry_Int_Tables_number      14
_space_group_name_Hall           '-P 2yn'
loop_
_symmetry_equiv_pos_site_id
_symmetry_equiv_pos_as_xyz
1 x,y,z
2 1/2-x,1/2+y,1/2-z
3 -x,-y,-z
4 1/2+x,1/2-y,1/2+z
_cell_length_a                   12.112(3)
_cell_length_b                   27.006(3)
_cell_length_c                   13.515(2)
_cell_angle_alpha                90
_cell_angle_beta                 91.891(12)
_cell_angle_gamma                90
_cell_volume                     4418.3
loop_
_atom_site_label
_atom_site_type_symbol
_atom_site_fract_x
_atom_site_fract_y
_atom_site_fract_z
Au1 Au 1.0000 0.5000 0.0000
Au2 Au 0.5000 0.5000 0.0000
Tl1 Tl 0.24754(3) 0.48414(1) -0.00973(2)
P1 P 0.28235(16) 0.34507(6) 0.06113(13)
P2 P 0.18623(17) 0.42164(6) -0.27619(12)
O1 O 0.2056(4) 0.44171(14) -0.1753(3)
O2 O 0.2417(4) 0.39675(13) 0.0469(3)
C1 C 1.0126(5) 0.55808(19) -0.0976(4)
C2 C 0.9535(5) 0.56041(19) -0.1857(4)
C3 C 0.9597(5) 0.5984(2) -0.2533(4)
C4 C 1.0327(6) 0.6367(2) -0.2314(5)
C5 C 1.0929(6) 0.6371(2) -0.1441(5)
C6 C 1.0815(5) 0.5979(2) -0.0784(5)
F1 F 0.8816(3) 0.52350(12) -0.2099(2)
F2 F 0.9037(4) 0.59823(15) -0.3396(3)
F3 F 1.0433(4) 0.67414(13) -0.2979(3)
F4 F 1.1587(4) 0.67576(13) -0.1227(3)
F5 F 1.1429(3) 0.60064(12) 0.0066(3)
C7 C 0.4219(6) 0.3366(2) 0.0293(5)
C8 C 0.4619(6) 0.3617(2) -0.0538(5)
C9 C 0.5653(7) 0.3565(3) -0.0834(6)
C10 C 0.6383(7) 0.3255(3) -0.0302(6)
C11 C 0.6009(7) 0.2990(2) 0.0508(6)
C12 C 0.4952(6) 0.3042(2) 0.0808(5)
C13 C 0.2741(5) 0.32640(19) 0.1884(5)
C14 C 0.3257(6) 0.3557(2) 0.2586(5)
C15 C 0.3215(7) 0.3440(3) 0.3585(5)
C16 C 0.2626(8) 0.3028(3) 0.3876(6)
C17 C 0.2095(8) 0.2744(3) 0.3165(6)
C18 C 0.2156(7) 0.2852(2) 0.2169(5)
C19 C 0.2011(6) 0.3023(2) -0.0130(5)
C20 C 0.0957(7) 0.3144(3) -0.0444(5)
C21 C 0.0323(7) 0.2824(3) -0.1002(6)
C22 C 0.0744(7) 0.2368(3) -0.1251(6)
C23 C 0.1797(8) 0.2244(3) -0.0969(6)
C24 C 0.2434(7) 0.2565(2) -0.0407(5)
C25 C 0.0546(6) 0.3902(2) -0.2883(5)
C26 C 0.0322(7) 0.3550(2) -0.3624(5)
C27 C -0.0735(8) 0.3349(3) -0.3710(6)
C28 C -0.1541(7) 0.3495(3) -0.3094(6)
C29 C -0.1340(7) 0.3845(3) -0.2375(6)
C30 C -0.0279(7) 0.4045(3) -0.2278(5)
C31 C 0.2899(6) 0.3785(2) -0.3099(4)
C32 C 0.3829(7) 0.3925(3) -0.3608(5)
C33 C 0.4659(7) 0.3593(3) -0.3804(5)
C34 C 0.4585(8) 0.3111(3) -0.3498(6)
C35 C 0.3677(8) 0.2967(3) -0.2993(6)
C36 C 0.2839(7) 0.3295(2) -0.2783(5)
C37 C 0.1804(5) 0.4702(2) -0.3686(4)
C38 C 0.1758(5) 0.5186(2) -0.3384(5)
C39 C 0.1618(6) 0.5557(2) -0.4087(6)
C40 C 0.1556(6) 0.5444(3) -0.5059(5)
C41 C 0.1585(7) 0.4972(3) -0.5365(5)
C42 C 0.1713(6) 0.4593(2) -0.4691(5)
C43 C 0.5112(5) 0.4782(2) 0.1456(4)
C44 C 0.5775(6) 0.4395(2) 0.1771(5)
C45 C 0.5859(8) 0.4236(3) 0.2742(6)
C46 C 0.5265(9) 0.4462(4) 0.3418(6)
C47 C 0.4596(8) 0.4846(4) 0.3169(6)
C48 C 0.4523(7) 0.4992(3) 0.2175(5)
F6 F 0.6434(4) 0.41664(13) 0.1125(3)
F7 F 0.6501(6) 0.38436(19) 0.2981(4)
F8 F 0.5338(6) 0.4308(2) 0.4371(4)
F9 F 0.4012(6) 0.5079(3) 0.3849(4)
F10 F 0.3823(4) 0.53727(19) 0.1962(3)
Tl1B Tl 0.75246(3) 0.51586(1) 0.00973(2)
Au1_2 Au 0.0000 0.5000 0.0000
Tl1_2 Tl 1.24754(3) 0.48414(1) -0.00973(2)
C1B C 0.9874(5) 0.44192(19) 0.0976(4)
C2B C 1.0465(5) 0.43959(19) 0.1857(4)
C3B C 1.0403(5) 0.4016(2) 0.2533(4)
C4B C 0.9673(6) 0.3633(2) 0.2314(5)
C5B C 0.9071(6) 0.3629(2) 0.1441(5)
C6B C 0.9185(5) 0.4021(2) 0.0784(5)
F5B F 0.8571(3) 0.39936(12) -0.0066(3)
F4B F 0.8413(4) 0.32424(13) 0.1227(3)
F3B F 0.9567(4) 0.32586(13) 0.2979(3)
F2B F 1.0963(4) 0.40177(15) 0.3396(3)
F1B F 1.1184(3) 0.47650(12) 0.2099(2)
O1B O 0.7944(4) 0.55829(14) 0.1753(3)
P2B P 0.81377(17) 0.57836(6) 0.27619(12)
C25B C 0.9454(6) 0.6098(2) 0.2883(5)
C26B C 0.9678(7) 0.6450(2) 0.3624(5)
C27B C 1.0735(8) 0.6651(3) 0.3710(6)
C28B C 1.1541(7) 0.6505(3) 0.3094(6)
C29B C 1.1340(7) 0.6155(3) 0.2375(6)
C30B C 1.0279(7) 0.5955(3) 0.2278(5)
C31B C 0.7101(6) 0.6215(2) 0.3099(4)
C32B C 0.6171(7) 0.6075(3) 0.3608(5)
C33B C 0.5341(7) 0.6407(3) 0.3804(5)
C34B C 0.5415(8) 0.6889(3) 0.3498(6)
C35B C 0.6323(8) 0.7033(3) 0.2993(6)
C36B C 0.7161(7) 0.6705(2) 0.2783(5)
C37B C 0.8196(5) 0.5298(2) 0.3686(4)
C38B C 0.8242(5) 0.4814(2) 0.3384(5)
C39B C 0.8382(6) 0.4443(2) 0.4087(6)
C40B C 0.8444(6) 0.4556(3) 0.5059(5)
C41B C 0.8415(7) 0.5028(3) 0.5365(5)
C42B C 0.8287(6) 0.5407(2) 0.4691(5)
O2B O 0.7583(4) 0.60325(13) -0.0469(3)
P1B P 0.71765(16) 0.65493(6) -0.06113(13)
C7B C 0.5781(6) 0.6634(2) -0.0293(5)
C8B C 0.5381(6) 0.6383(2) 0.0538(5)
C9B C 0.4347(7) 0.6435(3) 0.0834(6)
C10B C 0.3617(7) 0.6745(3) 0.0302(6)
C11B C 0.3991(7) 0.7010(2) -0.0508(6)
C12B C 0.5048(6) 0.6958(2) -0.0808(5)
C13B C 0.7259(5) 0.67360(19) -0.1884(5)
C14B C 0.6743(6) 0.6443(2) -0.2586(5)
C15B C 0.6785(7) 0.6560(3) -0.3585(5)
C16B C 0.7374(8) 0.6972(3) -0.3876(6)
C17B C 0.7905(8) 0.7256(3) -0.3165(6)
C18B C 0.7844(7) 0.7148(2) -0.2169(5)
C19B C 0.7989(6) 0.6977(2) 0.0130(5)
C20B C 0.9043(7) 0.6856(3) 0.0444(5)
C21B C 0.9677(7) 0.7176(3) 0.1002(6)
C22B C 0.9256(7) 0.7632(3) 0.1251(6)
C23B C 0.8203(8) 0.7756(3) 0.0969(6)
C24B C 0.7566(7) 0.7435(2) 0.0407(5)
C43B C 0.4888(5) 0.5218(2) -0.1456(4)
C44B C 0.4225(6) 0.5605(2) -0.1771(5)
C45B C 0.4141(8) 0.5764(3) -0.2742(6)
C46B C 0.4735(9) 0.5538(4) -0.3418(6)
C47B C 0.5404(8) 0.5154(4) -0.3169(6)
C48B C 0.5477(7) 0.5008(3) -0.2175(5)
F10B F 0.6177(4) 0.46273(19) -0.1962(3)
F9B F 0.5988(6) 0.4921(3) -0.3849(4)
F8B F 0.4662(6) 0.5692(2) -0.4371(4)
F7B F 0.3499(6) 0.61564(19) -0.2981(4)
F6B F 0.3566(4) 0.58336(13) -0.1125(3)
loop_
_geom_bond_atom_site_label_1
_geom_bond_atom_site_label_2
_geom_bond_site_symmetry_1
_geom_bond_site_symmetry_2
Au1 C1 1_555 1_555
Au2 Tl1 1_555 1_555
Tl1 O1 1_555 1_555
P1 O2 1_555 1_555
P2 O1 1_555 1_555
O2 Tl1 1_555 1_555
C1 C2 1_555 1_555
C2 C3 1_555 1_555
C3 C4 1_555 1_555
C4 C5 1_555 1_555
C5 C6 1_555 1_555
C6 C1 1_555 1_555
F1 C2 1_555 1_555
F2 C3 1_555 1_555
F3 C4 1_555 1_555
F4 C5 1_555 1_555
F5 C6 1_555 1_555
C7 P1 1_555 1_555
C8 C7 1_555 1_555
C9 C8 1_555 1_555
C10 C9 1_555 1_555
C11 C10 1_555 1_555
C12 C7 1_555 1_555
C13 P1 1_555 1_555
C14 C13 1_555 1_555
C15 C14 1_555 1_555
C16 C15 1_555 1_555
C17 C16 1_555 1_555
C18 C13 1_555 1_555
C19 P1 1_555 1_555
C20 C19 1_555 1_555
C21 C20 1_555 1_555
C22 C21 1_555 1_555
C23 C22 1_555 1_555
C24 C19 1_555 1_555
C25 P2 1_555 1_555
C26 C25 1_555 1_555
C27 C26 1_555 1_555
C28 C27 1_555 1_555
C29 C28 1_555 1_555
C30 C25 1_555 1_555
C31 P2 1_555 1_555
C32 C31 1_555 1_555
C33 C32 1_555 1_555
C34 C33 1_555 1_555
C35 C34 1_555 1_555
C36 C31 1_555 1_555
C37 P2 1_555 1_555
C38 C37 1_555 1_555
C39 C38 1_555 1_555
C40 C39 1_555 1_555
C41 C40 1_555 1_555
C42 C37 1_555 1_555
C43 Au2 1_555 1_555
C44 C43 1_555 1_555
C45 C44 1_555 1_555
C46 C45 1_555 1_555
C47 C46 1_555 1_555
C48 C43 1_555 1_555
F6 C44 1_555 1_555
F7 C45 1_555 1_555
F8 C46 1_555 1_555
F9 C47 1_555 1_555
F10 C48 1_555 1_555
Tl1B Au1 1_555 1_555
Au1_2 Tl1 1_555 1_555
Tl1_2 Au1 1_555 1_555
C1B Au1 1_555 1_555
C2B C1B 1_555 1_555
C3B C2B 1_555 1_555
C4B C3B 1_555 1_555
C5B C4B 1_555 1_555
C6B C1B 1_555 1_555
F5B C6B 1_555 1_555
F4B C5B 1_555 1_555
F3B C4B 1_555 1_555
F2B C3B 1_555 1_555
F1B C2B 1_555 1_555
O1B Tl1B 1_555 1_555
P2B O1B 1_555 1_555
C25B P2B 1_555 1_555
C26B C25B 1_555 1_555
C27B C26B 1_555 1_555
C28B C27B 1_555 1_555
C29B C28B 1_555 1_555
C30B C25B 1_555 1_555
C31B P2B 1_555 1_555
C32B C31B 1_555 1_555
C33B C32B 1_555 1_555
C34B C33B 1_555 1_555
C35B C34B 1_555 1_555
C36B C31B 1_555 1_555
C37B P2B 1_555 1_555
C38B C37B 1_555 1_555
C39B C38B 1_555 1_555
C40B C39B 1_555 1_555
C41B C40B 1_555 1_555
C42B C37B 1_555 1_555
O2B Tl1B 1_555 1_555
P1B O2B 1_555 1_555
C7B P1B 1_555 1_555
C8B C7B 1_555 1_555
C9B C8B 1_555 1_555
C10B C9B 1_555 1_555
C11B C10B 1_555 1_555
C12B C7B 1_555 1_555
C13B P1B 1_555 1_555
C14B C13B 1_555 1_555
C15B C14B 1_555 1_555
C16B C15B 1_555 1_555
C17B C16B 1_555 1_555
C18B C13B 1_555 1_555
C19B P1B 1_555 1_555
C20B C19B 1_555 1_555
C21B C20B 1_555 1_555
C22B C21B 1_555 1_555
C23B C22B 1_555 1_555
C24B C19B 1_555 1_555
C43B Au2 1_555 1_555
C44B C43B 1_555 1_555
C45B C44B 1_555 1_555
C46B C45B 1_555 1_555
C47B C46B 1_555 1_555
C48B C43B 1_555 1_555
F10B C48B 1_555 1_555
F9B C47B 1_555 1_555
F8B C46B 1_555 1_555
F7B C45B 1_555 1_555
F6B C44B 1_555 1_555
Au2 Tl1B 1_555 1_555
C11 C12 1_555 1_555
C17 C18 1_555 1_555
C23 C24 1_555 1_555
C29 C30 1_555 1_555
C35 C36 1_555 1_555
C41 C42 1_555 1_555
C47 C48 1_555 1_555
C5B C6B 1_555 1_555
C29B C30B 1_555 1_555
C35B C36B 1_555 1_555
C41B C42B 1_555 1_555
C11B C12B 1_555 1_555
C17B C18B 1_555 1_555
C23B C24B 1_555 1_555
C47B C48B 1_555 1_555

#END
