
#######################################################################
#
#                 Cambridge Crystallographic Data Centre
#                                CCDC 
#
#######################################################################
#
# If this CIF has been generated from an entry in the Cambridge 
# Structural Database, then it will include bibliographic, chemical, 
# crystal, experimental, refinement or atomic coordinate data resulting 
# from the CCDC's data processing and validation procedures.
#
#######################################################################

data_JOXMUG
_symmetry_cell_setting           orthorhombic
_symmetry_space_group_name_H-M   'F d d d'
_symmetry_Int_Tables_number      70
_space_group_name_Hall           '-F 2uv 2vw'
loop_
_symmetry_equiv_pos_site_id
_symmetry_equiv_pos_as_xyz
1 x,y,z
2 1/4-x,1/4-y,z
3 x,1/4-y,1/4-z
4 1/4-x,y,1/4-z
5 x,1/2+y,1/2+z
6 1/4-x,3/4-y,1/2+z
7 x,3/4-y,3/4-z
8 1/4-x,1/2+y,3/4-z
9 1/2+x,y,1/2+z
10 3/4-x,1/4-y,1/2+z
11 1/2+x,1/4-y,3/4-z
12 3/4-x,y,3/4-z
13 1/2+x,1/2+y,z
14 3/4-x,3/4-y,z
15 1/2+x,3/4-y,1/4-z
16 3/4-x,1/2+y,1/4-z
17 -x,-y,-z
18 3/4+x,3/4+y,-z
19 -x,3/4+y,3/4+z
20 3/4+x,-y,3/4+z
21 -x,1/2-y,1/2-z
22 3/4+x,1/4+y,1/2-z
23 -x,1/4+y,1/4+z
24 3/4+x,1/2-y,1/4+z
25 1/2-x,-y,1/2-z
26 1/4+x,3/4+y,1/2-z
27 1/2-x,3/4+y,1/4+z
28 1/4+x,-y,1/4+z
29 1/2-x,1/2-y,-z
30 1/4+x,1/4+y,-z
31 1/2-x,1/4+y,3/4+z
32 1/4+x,1/2-y,3/4+z
_cell_length_a                   12.2035(3)
_cell_length_b                   22.5755(6)
_cell_length_c                   24.7498(5)
_cell_angle_alpha                90
_cell_angle_beta                 90
_cell_angle_gamma                90
_cell_volume                     6818.57
loop_
_atom_site_label
_atom_site_type_symbol
_atom_site_fract_x
_atom_site_fract_y
_atom_site_fract_z
In1 In 0.3750 0.3750 -0.1250
Cu1 Cu 0.6250 0.1250 0.1250
O1 O 0.5139(3) 0.32849(17) -0.07881(15)
O2 O 0.3429(3) 0.30418(18) -0.06239(15)
N1 N 0.5509(4) 0.1831(2) 0.0741(2)
C1 C 0.6178(6) 0.2244(4) 0.0525(4)
H1 H 0.6903 0.2278 0.0662
C2 C 0.5859(6) 0.2623(3) 0.0113(3)
H2 H 0.6358 0.2905 -0.0031
C3 C 0.4811(5) 0.2583(2) -0.0084(2)
C4 C 0.4104(5) 0.2180(3) 0.0142(2)
H3 H 0.3366 0.2154 0.0021
C5 C 0.4488(5) 0.1810(2) 0.0552(2)
H4 H 0.3996 0.1529 0.0704
C6 C 0.4445(5) 0.2993(2) -0.0524(2)
O1A O 0.7361(3) -0.07849(17) -0.07881(15)
O2A O 0.9071(3) -0.05418(18) -0.06239(15)
N1A N 0.6991(4) 0.0669(2) 0.0741(2)
C1A C 0.6322(6) 0.0256(4) 0.0525(4)
H1A H 0.5597 0.0222 0.0662
C2A C 0.6641(6) -0.0123(3) 0.0113(3)
H2A H 0.6142 -0.0405 -0.0031
C3A C 0.7689(5) -0.0083(2) -0.0084(2)
C4A C 0.8396(5) 0.0320(3) 0.0142(2)
H3A H 0.9134 0.0346 0.0021
C5A C 0.8012(5) 0.0690(2) 0.0552(2)
H4A H 0.8504 0.0971 0.0704
C6A C 0.8055(5) -0.0493(2) -0.0524(2)
O1B O 0.5139(3) -0.07849(17) 0.32881(15)
O2B O 0.3429(3) -0.05418(18) 0.31239(15)
N1B N 0.5509(4) 0.0669(2) 0.1759(2)
C1B C 0.6178(6) 0.0256(4) 0.1975(4)
H1B H 0.6903 0.0222 0.1838
C2B C 0.5859(6) -0.0123(3) 0.2387(3)
H2B H 0.6358 -0.0405 0.2531
C3B C 0.4811(5) -0.0083(2) 0.2584(2)
C4B C 0.4104(5) 0.0320(3) 0.2358(2)
H3B H 0.3366 0.0346 0.2479
C5B C 0.4488(5) 0.0690(2) 0.1948(2)
H4B H 0.3996 0.0971 0.1796
C6B C 0.4445(5) -0.0493(2) 0.3024(2)
O1C O 0.7361(3) 0.32849(17) 0.32881(15)
O2C O 0.9071(3) 0.30418(18) 0.31239(15)
N1C N 0.6991(4) 0.1831(2) 0.1759(2)
C1C C 0.6322(6) 0.2244(4) 0.1975(4)
H1C H 0.5597 0.2278 0.1838
C2C C 0.6641(6) 0.2623(3) 0.2387(3)
H2C H 0.6142 0.2905 0.2531
C3C C 0.7689(5) 0.2583(2) 0.2584(2)
C4C C 0.8396(5) 0.2180(3) 0.2358(2)
H3C H 0.9134 0.2154 0.2479
C5C C 0.8012(5) 0.1810(2) 0.1948(2)
H4C H 0.8504 0.1529 0.1796
C6C C 0.8055(5) 0.2993(2) 0.3024(2)
In1A In 0.8750 -0.1250 -0.1250
In1B In 0.3750 -0.1250 0.3750
In1C In 0.8750 0.3750 0.3750
O1F O 0.5139(3) 0.42151(17) -0.17119(15)
O1K O 0.2361(3) 0.32849(17) -0.17119(15)
O1M O 0.2361(3) 0.42151(17) -0.07881(15)
O2F O 0.3429(3) 0.44582(18) -0.18761(15)
O2K O 0.4071(3) 0.30418(18) -0.18761(15)
O2M O 0.4071(3) 0.44582(18) -0.06239(15)
loop_
_geom_bond_atom_site_label_1
_geom_bond_atom_site_label_2
_geom_bond_site_symmetry_1
_geom_bond_site_symmetry_2
In1 O1 1_555 1_555
Cu1 N1 1_555 1_555
O1 C6 1_555 1_555
O2 In1 1_555 1_555
N1 C1 1_555 1_555
C1 H1 1_555 1_555
C2 C1 1_555 1_555
H2 C2 1_555 1_555
C3 C2 1_555 1_555
C4 C3 1_555 1_555
H3 C4 1_555 1_555
C5 N1 1_555 1_555
H4 C5 1_555 1_555
C6 O2 1_555 1_555
O1A C6A 1_555 1_555
O2A C6A 1_555 1_555
N1A Cu1 1_555 1_555
C1A N1A 1_555 1_555
H1A C1A 1_555 1_555
C2A C1A 1_555 1_555
H2A C2A 1_555 1_555
C3A C2A 1_555 1_555
C4A C3A 1_555 1_555
H3A C4A 1_555 1_555
C5A N1A 1_555 1_555
H4A C5A 1_555 1_555
C6A C3A 1_555 1_555
O1B C6B 1_555 1_555
O2B C6B 1_555 1_555
N1B Cu1 1_555 1_555
C1B N1B 1_555 1_555
H1B C1B 1_555 1_555
C2B C1B 1_555 1_555
H2B C2B 1_555 1_555
C3B C2B 1_555 1_555
C4B C3B 1_555 1_555
H3B C4B 1_555 1_555
C5B N1B 1_555 1_555
H4B C5B 1_555 1_555
C6B C3B 1_555 1_555
O1C C6C 1_555 1_555
O2C C6C 1_555 1_555
N1C Cu1 1_555 1_555
C1C N1C 1_555 1_555
H1C C1C 1_555 1_555
C2C C1C 1_555 1_555
H2C C2C 1_555 1_555
C3C C2C 1_555 1_555
C4C C3C 1_555 1_555
H3C C4C 1_555 1_555
C5C N1C 1_555 1_555
H4C C5C 1_555 1_555
C6C C3C 1_555 1_555
In1A O1A 1_555 1_555
In1B O1B 1_555 1_555
In1C O1C 1_555 1_555
O1F In1 1_555 1_555
O1K In1 1_555 1_555
O1M In1 1_555 1_555
O2F In1 1_555 1_555
O2K In1 1_555 1_555
O2M In1 1_555 1_555
C3 C6 1_555 1_555
C4 C5 1_555 1_555
O2A In1A 1_555 1_555
C4A C5A 1_555 1_555
O2B In1B 1_555 1_555
C4B C5B 1_555 1_555
O2C In1C 1_555 1_555
C4C C5C 1_555 1_555

#END
