
#######################################################################
#
#                 Cambridge Crystallographic Data Centre
#                                CCDC 
#
#######################################################################
#
# If this CIF has been generated from an entry in the Cambridge 
# Structural Database, then it will include bibliographic, chemical, 
# crystal, experimental, refinement or atomic coordinate data resulting 
# from the CCDC's data processing and validation procedures.
#
#######################################################################

data_JOXNAN
_symmetry_cell_setting           tetragonal
_symmetry_space_group_name_H-M   'I -4 2 d'
_symmetry_Int_Tables_number      122
_space_group_name_Hall           'I -4 2bw'
loop_
_symmetry_equiv_pos_site_id
_symmetry_equiv_pos_as_xyz
1 x,y,z
2 y,-x,-z
3 -x,-y,z
4 -y,x,-z
5 x,1/2-y,1/4-z
6 -x,1/2+y,1/4-z
7 -y,1/2-x,1/4+z
8 y,1/2+x,1/4+z
9 1/2+x,1/2+y,1/2+z
10 1/2+y,1/2-x,1/2-z
11 1/2-x,1/2-y,1/2+z
12 1/2-y,1/2+x,1/2-z
13 1/2+x,-y,3/4-z
14 1/2-x,y,3/4-z
15 1/2-y,-x,3/4+z
16 1/2+y,x,3/4+z
_cell_length_a                   20.338(3)
_cell_length_b                   20.338(3)
_cell_length_c                   18.381(5)
_cell_angle_alpha                90
_cell_angle_beta                 90
_cell_angle_gamma                90
_cell_volume                     7603.01
loop_
_atom_site_label
_atom_site_type_symbol
_atom_site_fract_x
_atom_site_fract_y
_atom_site_fract_z
I1 I -0.38799(3) -0.01603(3) -0.16737(3)
In1 In -0.2500 0.14445(4) -0.6250
Cu1 Cu -0.43714(5) -0.00576(6) -0.30243(5)
O1 O -0.3078(3) 0.1036(3) -0.5364(4)
O2 O -0.2154(3) 0.0489(3) -0.5569(4)
O3 O -0.1848(3) -0.1682(3) -0.4337(3)
O4 O -0.2415(3) -0.1879(3) -0.3338(4)
N1 N -0.3581(4) -0.0233(4) -0.3675(4)
C1 C -0.3413(5) 0.0189(4) -0.4221(5)
H1 H -0.3673 0.0571 -0.4296
C2 C -0.2875(4) 0.0081(4) -0.4673(4)
C3 C -0.2508(4) -0.0486(4) -0.4567(5)
H2 H -0.2131 -0.0573 -0.4855
C4 C -0.2711(4) -0.0934(4) -0.4012(4)
C5 C -0.3243(5) -0.0797(4) -0.3596(5)
H3 H -0.3381 -0.1107 -0.3240
C6 C -0.2679(5) 0.0547(4) -0.5222(5)
C7 C -0.2305(4) -0.1533(4) -0.3870(5)
I1A I -0.01603(3) 0.38799(3) -0.83263(3)
Cu1A Cu -0.00576(6) 0.43714(5) -0.69757(5)
O1A O 0.1036(3) 0.3078(3) -0.4636(4)
O2A O 0.0489(3) 0.2154(3) -0.4431(4)
O3A O -0.1682(3) 0.1848(3) -0.5663(3)
O4A O -0.1879(3) 0.2415(3) -0.6662(4)
N1A N -0.0233(4) 0.3581(4) -0.6325(4)
C1A C 0.0189(4) 0.3413(5) -0.5779(5)
H1A H 0.0571 0.3673 -0.5704
C2A C 0.0081(4) 0.2875(4) -0.5327(4)
C3A C -0.0486(4) 0.2508(4) -0.5433(5)
H2A H -0.0573 0.2131 -0.5145
C4A C -0.0934(4) 0.2711(4) -0.5988(4)
C5A C -0.0797(4) 0.3243(5) -0.6404(5)
H3A H -0.1107 0.3381 -0.6760
C6A C 0.0547(4) 0.2679(5) -0.4778(5)
C7A C -0.1533(4) 0.2305(4) -0.6130(5)
I1H I 0.11201(3) 0.48397(3) -0.66737(3)
I1I I -0.51603(3) -0.11201(3) -0.33263(3)
I1J I -0.11201(3) 0.51603(3) -0.66737(3)
I1K I -0.48397(3) 0.11201(3) -0.33263(3)
In1A In 0.14445(4) 0.2500 -0.3750
In1C In -0.14445(4) -0.2500 -0.3750
Cu1H Cu 0.06286(5) 0.49424(6) -0.80243(5)
Cu1I Cu -0.50576(6) -0.06286(5) -0.19757(5)
Cu1J Cu -0.06286(5) 0.50576(6) -0.80243(5)
Cu1K Cu -0.49424(6) 0.06286(5) -0.19757(5)
O1M O -0.1922(3) 0.1036(3) -0.7136(4)
O2M O -0.2846(3) 0.0489(3) -0.6931(4)
O3N O -0.3318(3) 0.1848(3) -0.6837(3)
O4N O -0.3121(3) 0.2415(3) -0.5838(4)
loop_
_geom_bond_atom_site_label_1
_geom_bond_atom_site_label_2
_geom_bond_site_symmetry_1
_geom_bond_site_symmetry_2
I1 Cu1 1_555 1_555
In1 O1 1_555 1_555
Cu1 N1 1_555 1_555
O1 C6 1_555 1_555
O2 In1 1_555 1_555
O3 C7 1_555 1_555
O4 C7 1_555 1_555
N1 C1 1_555 1_555
C1 H1 1_555 1_555
C2 C1 1_555 1_555
C3 C2 1_555 1_555
H2 C3 1_555 1_555
C4 C3 1_555 1_555
C5 N1 1_555 1_555
H3 C5 1_555 1_555
C6 O2 1_555 1_555
C7 C4 1_555 1_555
I1A Cu1A 1_555 1_555
Cu1A N1A 1_555 1_555
O1A C6A 1_555 1_555
O2A C6A 1_555 1_555
O3A In1 1_555 1_555
O4A In1 1_555 1_555
N1A C1A 1_555 1_555
C1A H1A 1_555 1_555
C2A C1A 1_555 1_555
C3A C2A 1_555 1_555
H2A C3A 1_555 1_555
C4A C3A 1_555 1_555
C5A N1A 1_555 1_555
H3A C5A 1_555 1_555
C6A C2A 1_555 1_555
C7A O3A 1_555 1_555
I1H Cu1A 1_555 1_555
I1I Cu1 1_555 1_555
I1J Cu1A 1_555 1_555
I1K Cu1 1_555 1_555
In1A O1A 1_555 1_555
In1C O3 1_555 1_555
Cu1H I1A 1_555 1_555
Cu1I I1 1_555 1_555
Cu1J I1A 1_555 1_555
Cu1K I1 1_555 1_555
O1M In1 1_555 1_555
O2M In1 1_555 1_555
O3N In1 1_555 1_555
O4N In1 1_555 1_555
O4 In1C 1_555 1_555
C2 C6 1_555 1_555
C4 C5 1_555 1_555
O2A In1A 1_555 1_555
O4A C7A 1_555 1_555
C4A C5A 1_555 1_555
C4A C7A 1_555 1_555
I1H Cu1H 1_555 1_555
I1I Cu1I 1_555 1_555
I1J Cu1J 1_555 1_555
I1K Cu1K 1_555 1_555

#END
