
#######################################################################
#
#                 Cambridge Crystallographic Data Centre
#                                CCDC 
#
#######################################################################
#
# If this CIF has been generated from an entry in the Cambridge 
# Structural Database, then it will include bibliographic, chemical, 
# crystal, experimental, refinement or atomic coordinate data resulting 
# from the CCDC's data processing and validation procedures.
#
#######################################################################

data_JOXPOD
_symmetry_cell_setting           triclinic
_symmetry_space_group_name_H-M   'P -1'
_symmetry_Int_Tables_number      2
_space_group_name_Hall           '-P 1'
loop_
_symmetry_equiv_pos_site_id
_symmetry_equiv_pos_as_xyz
1 x,y,z
2 -x,-y,-z
_cell_length_a                   6.6739(4)
_cell_length_b                   10.0822(6)
_cell_length_c                   14.9383(8)
_cell_angle_alpha                99.695(5)
_cell_angle_beta                 101.871(5)
_cell_angle_gamma                105.780(5)
_cell_volume                     919.341
loop_
_atom_site_label
_atom_site_type_symbol
_atom_site_fract_x
_atom_site_fract_y
_atom_site_fract_z
Ag1 Ag 0.41385(10) 0.17716(6) 0.19920(4)
C1 C -0.2701(15) -0.1403(9) 0.1151(6)
H1 H -0.2824 -0.2058 0.1523
C2 C -0.3346(13) -0.1875(8) 0.0202(6)
H2 H -0.3950 -0.2847 -0.0058
C3 C -0.2311(10) 0.0403(7) 0.0019(4)
C4 C -0.1688(11) 0.0870(8) 0.0999(5)
C5 C -0.0742(10) 0.2413(7) 0.1517(4)
C6 C -0.2066(11) 0.1386(7) -0.0628(5)
C7 C 0.5949(12) 0.1804(8) 0.4091(5)
H3 H 0.5466 0.0837 0.3816
C8 C 0.6862(11) 0.2258(7) 0.5060(5)
H4 H 0.7005 0.1600 0.5416
C9 C 0.7368(9) 0.4556(7) 0.4939(4)
C10 C 0.6501(9) 0.4097(7) 0.3961(4)
C11 C 0.6415(10) 0.5093(7) 0.3313(4)
C12 C 0.8144(9) 0.6110(7) 0.5438(4)
Tb1 Tb 0.10784(4) 0.51512(3) 0.271217(18)
N1 N -0.1887(11) -0.0008(7) 0.1567(5)
N2 N -0.3150(9) -0.1004(6) -0.0373(4)
N3 N 0.5739(9) 0.2694(6) 0.3545(4)
N4 N 0.7535(9) 0.3647(6) 0.5478(4)
O1 O 0.1259(8) 0.2998(5) 0.1737(3)
O2 O -0.1981(7) 0.3040(5) 0.1780(3)
O3 O -0.1396(10) 0.2708(5) -0.0239(4)
O4 O -0.2514(10) 0.0853(6) -0.1482(4)
O5 O 0.4678(7) 0.5321(5) 0.3035(3)
O6 O 0.8083(7) 0.5589(5) 0.3063(3)
O7 O 0.7808(9) 0.6979(5) 0.4997(3)
O8 O 0.9092(8) 0.6391(5) 0.6303(3)
O9 O -0.0051(11) 0.5434(7) 0.1174(4)
H5 H 0.0243 0.6100 0.0890
H6 H -0.0885 0.4672 0.0784
O10 O 0.2782(8) 0.7548(5) 0.2768(3)
H7 H 0.4142 0.7737 0.2957
H8 H 0.2546 0.8216 0.2524
Ag1_2 Ag -0.58615(10) 0.17716(6) 0.19920(4)
Ag1A Ag -0.41385(10) -0.17716(6) -0.19920(4)
Tb1_2 Tb 1.10784(4) 0.51512(3) 0.271217(18)
Tb1A Tb 0.89216(4) 0.48488(3) 0.728783(18)
N2A N 0.3150(9) 0.1004(6) 0.0373(4)
N4A N 0.2465(9) 0.6353(6) 0.4522(4)
O2_2 O 0.8019(7) 0.3040(5) 0.1780(3)
O4A O 0.2514(10) -0.0853(6) 0.1482(4)
O6_2 O -0.1917(7) 0.5589(5) 0.3063(3)
O8A O 0.0908(8) 0.3609(5) 0.3697(3)
O11 O 0.0596(11) 0.0337(7) 0.3544(5)
H9 H 0.0957 0.1043 0.4012
H10 H -0.0108 0.0505 0.3058
O12 O 0.6831(9) 0.8735(7) 0.3844(5)
H11 H 0.7947 0.9351 0.3799
H12 H 0.7154 0.8382 0.4311
loop_
_geom_bond_atom_site_label_1
_geom_bond_atom_site_label_2
_geom_bond_site_symmetry_1
_geom_bond_site_symmetry_2
Ag1 N3 1_555 1_555
C1 H1 1_555 1_555
C2 C1 1_555 1_555
H2 C2 1_555 1_555
C3 C4 1_555 1_555
C4 C5 1_555 1_555
C5 O1 1_555 1_555
C6 C3 1_555 1_555
C7 H3 1_555 1_555
C8 C7 1_555 1_555
H4 C8 1_555 1_555
C9 C10 1_555 1_555
C10 C11 1_555 1_555
C11 O5 1_555 1_555
C12 C9 1_555 1_555
Tb1 O1 1_555 1_555
N1 C1 1_555 1_555
N2 C2 1_555 1_555
N3 C7 1_555 1_555
N4 C8 1_555 1_555
O1 Ag1 1_555 1_555
O2 C5 1_555 1_555
O3 C6 1_555 1_555
O4 C6 1_555 1_555
O5 Tb1 1_555 1_555
O6 C11 1_555 1_555
O7 C12 1_555 1_555
O8 C12 1_555 1_555
O9 Tb1 1_555 1_555
H5 O9 1_555 1_555
H6 O9 1_555 1_555
O10 Tb1 1_555 1_555
H7 O10 1_555 1_555
H8 O10 1_555 1_555
O11 H9 1_555 1_555
H10 O11 1_555 1_555
O12 H11 1_555 1_555
H12 O12 1_555 1_555
Ag1_2 O2 1_555 1_555
Ag1A N2 1_555 1_555
Tb1_2 O6 1_555 1_555
Tb1A N4 1_555 1_555
N2A Ag1 1_555 1_555
N4A Tb1 1_555 1_555
O2_2 Ag1 1_555 1_555
O4A Ag1 1_555 1_555
O6_2 Tb1 1_555 1_555
O8A Tb1 1_555 1_555
C3 N2 1_555 1_555
C4 N1 1_555 1_555
C9 N4 1_555 1_555
C10 N3 1_555 1_555
Tb1 O2 1_555 1_555
O4 Ag1A 1_555 1_555
O8 Tb1A 1_555 1_555
Tb1_2 O2_2 1_555 1_555

#END
