
#######################################################################
#
#                 Cambridge Crystallographic Data Centre
#                                CCDC 
#
#######################################################################
#
# If this CIF has been generated from an entry in the Cambridge 
# Structural Database, then it will include bibliographic, chemical, 
# crystal, experimental, refinement or atomic coordinate data resulting 
# from the CCDC's data processing and validation procedures.
#
#######################################################################

data_JOXPUJ
_symmetry_cell_setting           triclinic
_symmetry_space_group_name_H-M   'P -1'
_symmetry_Int_Tables_number      2
_space_group_name_Hall           '-P 1'
loop_
_symmetry_equiv_pos_site_id
_symmetry_equiv_pos_as_xyz
1 x,y,z
2 -x,-y,-z
_cell_length_a                   6.6630(7)
_cell_length_b                   10.0416(9)
_cell_length_c                   14.9312(14)
_cell_angle_alpha                99.561(8)
_cell_angle_beta                 101.678(9)
_cell_angle_gamma                105.824(9)
_cell_volume                     914.921
loop_
_atom_site_label
_atom_site_type_symbol
_atom_site_fract_x
_atom_site_fract_y
_atom_site_fract_z
Ag1 Ag 0.41448(10) 0.17604(7) 0.19983(4)
C1 C -0.2709(14) -0.1424(10) 0.1156(6)
H1 H -0.2852 -0.2082 0.1529
C2 C -0.3358(12) -0.1905(9) 0.0197(6)
H2 H -0.3958 -0.2879 -0.0065
C3 C -0.2314(10) 0.0393(7) 0.0029(4)
C4 C -0.1690(11) 0.0863(8) 0.1006(5)
C5 C -0.0720(11) 0.2408(8) 0.1535(5)
C6 C -0.2061(12) 0.1400(8) -0.0618(5)
C7 C 0.5957(13) 0.1796(8) 0.4104(5)
H3 H 0.5471 0.0824 0.3832
C8 C 0.6872(11) 0.2254(8) 0.5067(5)
H4 H 0.7029 0.1597 0.5426
C9 C 0.7371(10) 0.4557(7) 0.4940(4)
C10 C 0.6497(10) 0.4091(7) 0.3957(4)
C11 C 0.6444(10) 0.5107(7) 0.3308(4)
C12 C 0.8140(10) 0.6121(8) 0.5443(4)
Dy1 Dy 0.10890(4) 0.51383(3) 0.271535(19)
N1 N -0.1880(11) -0.0043(8) 0.1569(5)
N2 N -0.3145(9) -0.1003(7) -0.0368(4)
N3 N 0.5748(9) 0.2690(6) 0.3553(4)
N4 N 0.7532(8) 0.3651(6) 0.5482(4)
O1 O 0.1278(7) 0.2985(6) 0.1749(3)
O2 O -0.1976(7) 0.3038(5) 0.1795(3)
O3 O -0.1410(10) 0.2710(6) -0.0229(4)
O4 O -0.2514(10) 0.0869(6) -0.1476(4)
O5 O 0.4680(7) 0.5315(5) 0.3023(3)
O6 O 0.8104(7) 0.5576(5) 0.3049(3)
O7 O 0.7828(9) 0.6994(6) 0.4997(3)
O8 O 0.9090(7) 0.6403(5) 0.6308(3)
O9 O -0.0004(10) 0.5411(7) 0.1181(4)
H5 H 0.0290 0.6077 0.0897
H6 H -0.0838 0.4649 0.0791
O10 O 0.2771(8) 0.7510(6) 0.2761(3)
H7 H 0.4132 0.7699 0.2950
H8 H 0.2535 0.8178 0.2517
Ag1_2 Ag -0.58552(10) 0.17604(7) 0.19983(4)
Ag1A Ag -0.41448(10) -0.17604(7) -0.19983(4)
Dy1_2 Dy 1.10890(4) 0.51383(3) 0.271535(19)
Dy1A Dy 0.89110(4) 0.48617(3) 0.728465(19)
N2A N 0.3145(9) 0.1003(7) 0.0368(4)
N4A N 0.2468(8) 0.6349(6) 0.4518(4)
O2_2 O 0.8024(7) 0.3038(5) 0.1795(3)
O4A O 0.2514(10) -0.0869(6) 0.1476(4)
O6_2 O -0.1896(7) 0.5576(5) 0.3049(3)
O8A O 0.0910(7) 0.3597(5) 0.3692(3)
O11 O 0.0638(11) 0.0326(7) 0.3542(4)
H9 H 0.0998 0.1032 0.4010
H10 H -0.0066 0.0494 0.3056
O12 O 0.6828(9) 0.8748(7) 0.3838(4)
H11 H 0.7944 0.9364 0.3794
H12 H 0.7151 0.8395 0.4306
loop_
_geom_bond_atom_site_label_1
_geom_bond_atom_site_label_2
_geom_bond_site_symmetry_1
_geom_bond_site_symmetry_2
Ag1 N3 1_555 1_555
C1 H1 1_555 1_555
C2 C1 1_555 1_555
H2 C2 1_555 1_555
C3 C4 1_555 1_555
C4 C5 1_555 1_555
C5 O1 1_555 1_555
C6 C3 1_555 1_555
C7 H3 1_555 1_555
C8 C7 1_555 1_555
H4 C8 1_555 1_555
C9 C10 1_555 1_555
C10 C11 1_555 1_555
C11 O5 1_555 1_555
C12 C9 1_555 1_555
Dy1 O1 1_555 1_555
N1 C1 1_555 1_555
N2 C2 1_555 1_555
N3 C7 1_555 1_555
N4 C8 1_555 1_555
O1 Ag1 1_555 1_555
O2 C5 1_555 1_555
O3 C6 1_555 1_555
O4 C6 1_555 1_555
O5 Dy1 1_555 1_555
O6 C11 1_555 1_555
O7 C12 1_555 1_555
O8 C12 1_555 1_555
O9 Dy1 1_555 1_555
H5 O9 1_555 1_555
H6 O9 1_555 1_555
O10 Dy1 1_555 1_555
H7 O10 1_555 1_555
H8 O10 1_555 1_555
O11 H9 1_555 1_555
H10 O11 1_555 1_555
O12 H11 1_555 1_555
H12 O12 1_555 1_555
Ag1_2 O2 1_555 1_555
Ag1A N2 1_555 1_555
Dy1_2 O6 1_555 1_555
Dy1A N4 1_555 1_555
N2A Ag1 1_555 1_555
N4A Dy1 1_555 1_555
O2_2 Ag1 1_555 1_555
O4A Ag1 1_555 1_555
O6_2 Dy1 1_555 1_555
O8A Dy1 1_555 1_555
C3 N2 1_555 1_555
C4 N1 1_555 1_555
C9 N4 1_555 1_555
C10 N3 1_555 1_555
Dy1 O2 1_555 1_555
O4 Ag1A 1_555 1_555
O8 Dy1A 1_555 1_555
Dy1_2 O2_2 1_555 1_555

#END
