
#######################################################################
#
#                 Cambridge Crystallographic Data Centre
#                                CCDC 
#
#######################################################################
#
# If this CIF has been generated from an entry in the Cambridge 
# Structural Database, then it will include bibliographic, chemical, 
# crystal, experimental, refinement or atomic coordinate data resulting 
# from the CCDC's data processing and validation procedures.
#
#######################################################################

data_JOXPET
_symmetry_cell_setting           monoclinic
_symmetry_space_group_name_H-M   'C 2/c'
_symmetry_Int_Tables_number      15
_space_group_name_Hall           '-C 2yn'
loop_
_symmetry_equiv_pos_site_id
_symmetry_equiv_pos_as_xyz
1 x,y,z
2 -x,y,1/2-z
3 1/2+x,1/2+y,z
4 1/2-x,1/2+y,1/2-z
5 -x,-y,-z
6 x,-y,1/2+z
7 1/2-x,1/2-y,-z
8 1/2+x,1/2-y,1/2+z
_cell_length_a                   11.2970(11)
_cell_length_b                   9.6083(10)
_cell_length_c                   14.7567(15)
_cell_angle_alpha                90
_cell_angle_beta                 91.536(9)
_cell_angle_gamma                90
_cell_volume                     1601.19
loop_
_atom_site_label
_atom_site_type_symbol
_atom_site_fract_x
_atom_site_fract_y
_atom_site_fract_z
Ag1 Ag 0.56263(5) 0.70122(6) 0.56813(3)
Ag2 Ag 0.61586(5) 0.76451(6) 0.28973(3)
C1 C 0.8523(5) 0.3972(6) 0.4984(3)
C2 C 0.7557(5) 0.4885(6) 0.4965(3)
C3 C 0.7513(5) 0.4790(6) 0.6511(4)
H1 H 0.7183 0.5057 0.7055
C4 C 0.7048(6) 0.5538(7) 0.4100(4)
C5 C 0.9076(5) 0.3497(6) 0.4116(4)
C6 C 0.8481(5) 0.3881(7) 0.6530(4)
H2 H 0.8782 0.3553 0.7082
N1 N 0.8978(4) 0.3481(5) 0.5762(3)
N2 N 0.7049(4) 0.5284(5) 0.5734(3)
O1 O 0.7660(4) 0.6457(5) 0.3751(3)
O2 O 0.6046(4) 0.5174(5) 0.3838(3)
O3 O 0.8398(4) 0.3466(5) 0.3431(3)
O4 O 1.0144(4) 0.3166(5) 0.4164(3)
Ag1B Ag 1.06263(5) 0.20122(6) 0.56813(3)
Ag1F Ag 0.93737(5) 0.79878(6) 0.43187(3)
Ag2B Ag 1.11586(5) 0.26451(6) 0.28973(3)
Ag2C Ag 0.88414(5) 0.26451(6) 0.21027(3)
N1B N 0.3978(4) 0.8481(5) 0.5762(3)
O1F O 0.7340(4) 0.8543(5) 0.6249(3)
O3C O 0.6602(4) 0.8466(5) 0.1569(3)
O4B O 0.5144(4) 0.8166(5) 0.4164(3)
O5 O 0.5000 0.6414(8) 0.7500
H3 H 0.457(6) 0.590(6) 0.715(4)
H3A H 0.543(6) 0.590(6) 0.785(4)
loop_
_geom_bond_atom_site_label_1
_geom_bond_atom_site_label_2
_geom_bond_site_symmetry_1
_geom_bond_site_symmetry_2
Ag1 N2 1_555 1_555
Ag2 O1 1_555 1_555
C1 C2 1_555 1_555
C2 C4 1_555 1_555
C3 H1 1_555 1_555
C4 O1 1_555 1_555
C5 C1 1_555 1_555
C6 C3 1_555 1_555
H2 C6 1_555 1_555
N1 C1 1_555 1_555
N2 C2 1_555 1_555
O1 Ag1F 1_555 1_555
O2 C4 1_555 1_555
O3 C5 1_555 1_555
O4 C5 1_555 1_555
O5 H3 1_555 1_555
Ag1B N1 1_555 1_555
Ag2B O4 1_555 1_555
Ag2C O3 1_555 1_555
N1B Ag1 1_555 1_555
O1F Ag1 1_555 1_555
O3C Ag2 1_555 1_555
O4B Ag1 1_555 1_555
H3A O5 1_555 1_555
Ag2 O4B 1_555 1_555
C3 N2 1_555 1_555
C6 N1 1_555 1_555
O4 Ag1B 1_555 1_555

#END
