
#######################################################################
#
#                 Cambridge Crystallographic Data Centre
#                                CCDC 
#
#######################################################################
#
# If this CIF has been generated from an entry in the Cambridge 
# Structural Database, then it will include bibliographic, chemical, 
# crystal, experimental, refinement or atomic coordinate data resulting 
# from the CCDC's data processing and validation procedures.
#
#######################################################################

data_JOXQEU
_symmetry_cell_setting           triclinic
_symmetry_space_group_name_H-M   'P -1'
_symmetry_Int_Tables_number      2
_space_group_name_Hall           '-P 1'
loop_
_symmetry_equiv_pos_site_id
_symmetry_equiv_pos_as_xyz
1 x,y,z
2 -x,-y,-z
_cell_length_a                   6.6298(4)
_cell_length_b                   10.0444(10)
_cell_length_c                   14.8892(15)
_cell_angle_alpha                99.418(8)
_cell_angle_beta                 101.793(7)
_cell_angle_gamma                105.825(7)
_cell_volume                     908.108
loop_
_atom_site_label
_atom_site_type_symbol
_atom_site_fract_x
_atom_site_fract_y
_atom_site_fract_z
Ag1 Ag 0.4152(2) 0.17480(15) 0.20032(9)
C1 C -0.271(3) -0.143(2) 0.1173(13)
H1 H -0.2888 -0.2090 0.1546
C2 C -0.333(3) -0.1890(18) 0.0175(15)
H2 H -0.3886 -0.2861 -0.0098
C3 C -0.228(3) 0.0411(16) 0.0031(11)
C4 C -0.169(3) 0.0863(17) 0.1018(11)
C5 C -0.068(3) 0.2436(17) 0.1546(10)
C6 C -0.205(3) 0.1404(18) -0.0614(12)
C7 C 0.601(3) 0.1812(19) 0.4124(12)
H3 H 0.5563 0.0840 0.3859
C8 C 0.690(3) 0.229(2) 0.5085(11)
H4 H 0.7070 0.1629 0.5444
C9 C 0.736(2) 0.4549(17) 0.4951(11)
C10 C 0.651(2) 0.4103(18) 0.3952(11)
C11 C 0.644(2) 0.5115(15) 0.3280(11)
C12 C 0.815(2) 0.6125(17) 0.5437(11)
Er1 Er 0.10926(10) 0.51246(7) 0.27165(4)
N1 N -0.188(3) -0.0045(19) 0.1569(11)
N2 N -0.315(2) -0.0999(16) -0.0373(10)
N3 N 0.576(2) 0.2698(14) 0.3553(9)
N4 N 0.754(2) 0.3672(15) 0.5517(9)
O1 O 0.1295(18) 0.3003(13) 0.1763(8)
O2 O -0.1960(19) 0.3025(12) 0.1802(8)
O3 O -0.141(2) 0.2722(14) -0.0215(9)
O4 O -0.252(2) 0.0880(13) -0.1478(8)
O5 O 0.4640(17) 0.5290(11) 0.2974(8)
O6 O 0.8108(17) 0.5541(12) 0.3045(8)
O7 O 0.785(2) 0.7007(14) 0.5000(8)
O8 O 0.9074(18) 0.6412(12) 0.6311(8)
O9 O 0.001(2) 0.5402(15) 0.1193(9)
H5 H 0.0300 0.6068 0.0908
H6 H -0.0828 0.4640 0.0802
O10 O 0.275(2) 0.7486(13) 0.2766(9)
H7 H 0.4108 0.7675 0.2955
H8 H 0.2512 0.8154 0.2522
Ag1_2 Ag -0.5848(2) 0.17480(15) 0.20032(9)
Ag1A Ag -0.4152(2) -0.17480(15) -0.20032(9)
Er1_2 Er 1.10926(10) 0.51246(7) 0.27165(4)
Er1A Er 0.89074(10) 0.48754(7) 0.72835(4)
N2A N 0.315(2) 0.0999(16) 0.0373(10)
N4A N 0.246(2) 0.6328(15) 0.4483(9)
O2_2 O 0.8040(19) 0.3025(12) 0.1802(8)
O4A O 0.252(2) -0.0880(13) 0.1478(8)
O6_2 O -0.1892(17) 0.5541(12) 0.3045(8)
O8A O 0.0926(18) 0.3588(12) 0.3689(8)
O11 O 0.068(3) 0.0326(17) 0.3546(12)
H9 H 0.1043 0.1033 0.4013
H10 H -0.0021 0.0494 0.3059
O12 O 0.686(2) 0.8724(18) 0.3834(13)
H11 H 0.7975 0.9341 0.3790
H12 H 0.7182 0.8371 0.4301
loop_
_geom_bond_atom_site_label_1
_geom_bond_atom_site_label_2
_geom_bond_site_symmetry_1
_geom_bond_site_symmetry_2
Ag1 N3 1_555 1_555
C1 H1 1_555 1_555
C2 C1 1_555 1_555
H2 C2 1_555 1_555
C3 C4 1_555 1_555
C4 C5 1_555 1_555
C5 O1 1_555 1_555
C6 C3 1_555 1_555
C7 H3 1_555 1_555
C8 C7 1_555 1_555
H4 C8 1_555 1_555
C9 C10 1_555 1_555
C10 C11 1_555 1_555
C11 O5 1_555 1_555
C12 C9 1_555 1_555
Er1 O1 1_555 1_555
N1 C1 1_555 1_555
N2 C2 1_555 1_555
N3 C7 1_555 1_555
N4 C8 1_555 1_555
O1 Ag1 1_555 1_555
O2 C5 1_555 1_555
O3 C6 1_555 1_555
O4 C6 1_555 1_555
O5 Er1 1_555 1_555
O6 C11 1_555 1_555
O7 C12 1_555 1_555
O8 C12 1_555 1_555
O9 Er1 1_555 1_555
H5 O9 1_555 1_555
H6 O9 1_555 1_555
O10 Er1 1_555 1_555
H7 O10 1_555 1_555
H8 O10 1_555 1_555
O11 H9 1_555 1_555
H10 O11 1_555 1_555
O12 H11 1_555 1_555
H12 O12 1_555 1_555
Ag1_2 O2 1_555 1_555
Ag1A N2 1_555 1_555
Er1_2 O6 1_555 1_555
Er1A N4 1_555 1_555
N2A Ag1 1_555 1_555
N4A Er1 1_555 1_555
O2_2 Ag1 1_555 1_555
O4A Ag1 1_555 1_555
O6_2 Er1 1_555 1_555
O8A Er1 1_555 1_555
C3 N2 1_555 1_555
C4 N1 1_555 1_555
C9 N4 1_555 1_555
C10 N3 1_555 1_555
Er1 O2 1_555 1_555
O4 Ag1A 1_555 1_555
O8 Er1A 1_555 1_555
Er1_2 O2_2 1_555 1_555

#END
