
#######################################################################
#
#                 Cambridge Crystallographic Data Centre
#                                CCDC 
#
#######################################################################
#
# If this CIF has been generated from an entry in the Cambridge 
# Structural Database, then it will include bibliographic, chemical, 
# crystal, experimental, refinement or atomic coordinate data resulting 
# from the CCDC's data processing and validation procedures.
#
#######################################################################

data_JOYNIU10
_symmetry_cell_setting           orthorhombic
_symmetry_space_group_name_H-M   'P c 21 b'
_symmetry_Int_Tables_number      29
_space_group_name_Hall           'P -2bc -2c'
loop_
_symmetry_equiv_pos_site_id
_symmetry_equiv_pos_as_xyz
1 x,y,z
2 x,1/2+y,1/2-z
3 -x,y,1/2+z
4 -x,1/2+y,-z
_cell_length_a                   7.904
_cell_length_b                   24.816
_cell_length_c                   34.289
_cell_angle_alpha                90
_cell_angle_beta                 90
_cell_angle_gamma                90
_cell_volume                     6725.64
loop_
_atom_site_label
_atom_site_type_symbol
_atom_site_fract_x
_atom_site_fract_y
_atom_site_fract_z
Cu1 Cu 0.3563(3) 0.4570(1) 0.44627(7)
Br1 Br 0.1451(3) 0.3860(1) 0.44077(7)
N1 N 0.438(2) 0.5340(6) 0.4456(5)
C1 C 0.474(3) 0.5566(9) 0.4078(7)
C2 C 0.465(3) 0.5698(8) 0.4777(6)
C3 C 0.311(3) 0.5583(9) 0.5071(6)
N2 N 0.355(2) 0.4580(7) 0.5046(4)
C4 C 0.374(2) 0.4118(7) 0.5249(5)
C5 C 0.370(3) 0.4045(8) 0.5638(6)
C6 C 0.341(3) 0.4544(8) 0.5862(6)
C7 C 0.321(3) 0.5042(8) 0.5664(6)
C8 C 0.337(2) 0.5057(7) 0.5269(5)
N3 N 0.386(2) 0.4684(7) 0.3889(5)
C9 C 0.354(3) 0.4291(9) 0.3600(6)
C10 C 0.390(3) 0.4414(9) 0.3202(6)
C11 C 0.459(3) 0.4910(9) 0.3135(7)
C12 C 0.441(2) 0.5169(8) 0.3779(6)
C13 C 0.477(3) 0.5327(9) 0.3374(7)
Cu2 Cu -0.1465(3) 0.3565(1) 0.48561(6)
Br2 Br 0.6464(3) 0.3890(1) 0.44011(7)
N4 N -0.069(2) 0.3118(6) 0.5287(5)
C14 C -0.049(3) 0.2650(8) 0.5213(6)
C15 C -0.045(2) 0.3311(7) 0.5699(5)
C16 C -0.193(3) 0.3695(8) 0.5770(6)
N5 N -0.145(2) 0.4255(6) 0.5168(4)
C17 C -0.142(3) 0.2740(8) 0.4207(6)
C18 C -0.116(3) 0.2210(9) 0.4046(6)
C19 C -0.052(3) 0.181(1) 0.4290(8)
C20 C -0.034(3) 0.1956(9) 0.4696(7)
C21 C -0.068(3) 0.2456(8) 0.4831(6)
N6 N -0.124(2) 0.2872(6) 0.4578(4)
C22 C -0.128(3) 0.4727(8) 0.4985(5)
C23 C -0.131(3) 0.5246(8) 0.5150(6)
C24 C -0.151(3) 0.5240(9) 0.5599(7)
C25 C -0.163(2) 0.4767(7) 0.5765(5)
C26 C -0.163(2) 0.4240(7) 0.5590(5)
Br2_2 Br -0.3536(3) 0.3890(1) 0.44011(7)
Cu2_2 Cu 0.8535(3) 0.3565(1) 0.48561(6)
Cu3 Cu 0.3038(3) 0.2243(1) 0.30337(7)
Br3 Br 0.0974(3) 0.2937(1) 0.30952(7)
N7 N 0.388(2) 0.1508(6) 0.3080(5)
C27 C 0.407(2) 0.1288(7) 0.3389(6)
C28 C 0.391(3) 0.1143(9) 0.2685(7)
C29 C 0.249(2) 0.1268(8) 0.2462(5)
N8 N 0.345(2) 0.2171(6) 0.3612(5)
C30 C 0.327(3) 0.2574(7) 0.3884(5)
C31 C 0.380(3) 0.2475(9) 0.4276(7)
C32 C 0.422(3) 0.192(1) 0.4391(8)
C33 C 0.443(3) 0.154(1) 0.4089(7)
C34 C 0.380(3) 0.1672(9) 0.3742(7)
N9 N 0.297(2) 0.2232(7) 0.2441(4)
C35 C 0.314(3) 0.2729(8) 0.2279(6)
C36 C 0.301(3) 0.2783(8) 0.1842(6)
C37 C 0.275(3) 0.2323(9) 0.1648(6)
C38 C 0.263(3) 0.1839(9) 0.1834(7)
C39 C 0.273(3) 0.1790(8) 0.2233(6)
Cu4 Cu -0.1978(3) 0.3256(1) 0.26556(7)
Br4 Br 0.5947(3) 0.2925(1) 0.31157(6)
N10 N -0.119(2) 0.3742(7) 0.2204(4)
C40 C -0.084(2) 0.4220(8) 0.2283(5)
C41 C -0.118(2) 0.3511(8) 0.1799(5)
C42 C -0.260(3) 0.3131(8) 0.1729(3)
N11 N -0.166(2) 0.3936(6) 0.2923(4)
C43 C -0.176(2) 0.4038(7) 0.3345(6)
C44 C -0.124(3) 0.4510(9) 0.3491(6)
C45 C -0.063(3) 0.498(1) 0.3242(8)
C46 C -0.058(2) 0.4865(8) 0.2831(5)
C47 C -0.105(3) 0.4343(8) 0.2744(6)
N12 N -0.201(2) 0.2618(7) 0.2336(5)
C48 C -0.180(3) 0.2150(8) 0.2499(6)
C49 C -0.184(3) 0.1645(7) 0.2306(5)
C50 C -0.210(3) 0.1631(9) 0.1914(7)
C51 C -0.229(3) 0.2123(9) 0.1736(6)
C52 C -0.232(2) 0.2612(8) 0.1949(6)
Br4_2 Br -0.4053(3) 0.2925(1) 0.31157(6)
Cu4_2 Cu 0.8022(3) 0.3256(1) 0.26556(7)
P1 P -0.0099(9) 0.1061(3) 0.0849(2)
F1 F -0.033(2) 0.1660(6) 0.0975(4)
F2 F 0.093(2) 0.0960(7) 0.1247(5)
F3 F 0.023(2) 0.0430(6) 0.0742(4)
F4 F -0.138(2) 0.1133(8) 0.0538(6)
F5 F -0.167(2) 0.0843(8) 0.1122(6)
F6 F 0.145(2) 0.1238(6) 0.0625(5)
P2 P -0.0974(9) 0.0782(3) 0.3374(2)
F7 F -0.066(2) 0.1359(8) 0.3256(5)
F8 F 0.019(2) 0.0589(6) 0.2987(4)
F9 F -0.129(2) 0.0183(6) 0.3486(4)
F10 F -0.256(2) 0.0753(8) 0.3064(6)
F11 F -0.209(2) 0.0985(7) 0.3672(5)
F12 F 0.067(2) 0.0812(6) 0.3611(5)
P3 P 0.5349(8) 0.2397(3) 0.0524(2)
F13 F 0.401(2) 0.2078(7) 0.0290(5)
F14 F 0.546(2) 0.1908(6) 0.0853(5)
F15 F 0.511(2) 0.2884(6) 0.0249(4)
F16 F 0.405(2) 0.2670(8) 0.0787(6)
F17 F 0.667(2) 0.2750(8) 0.0775(6)
F18 F 0.670(2) 0.2135(7) 0.0273(5)
P4 P 0.3932(9) 0.4444(3) 0.1947(2)
F19 F 0.395(2) 0.3962(8) 0.2258(6)
F20 F 0.279(2) 0.4764(6) 0.2257(5)
F21 F 0.508(2) 0.4116(7) 0.1665(5)
F22 F 0.234(2) 0.4205(7) 0.1767(5)
F23 F 0.390(2) 0.4923(6) 0.1673(4)
F24 F 0.550(3) 0.472(1) 0.2157(9)
loop_
_geom_bond_atom_site_label_1
_geom_bond_atom_site_label_2
_geom_bond_site_symmetry_1
_geom_bond_site_symmetry_2
Cu1 Br1 1_555 1_555
Br1 Cu2 1_555 1_555
N1 Cu1 1_555 1_555
C1 N1 1_555 1_555
C2 N1 1_555 1_555
C3 C2 1_555 1_555
N2 Cu1 1_555 1_555
C4 N2 1_555 1_555
C5 C4 1_555 1_555
C6 C5 1_555 1_555
C7 C6 1_555 1_555
C8 C3 1_555 1_555
N3 Cu1 1_555 1_555
C9 N3 1_555 1_555
C10 C9 1_555 1_555
C11 C10 1_555 1_555
C12 C1 1_555 1_555
C13 C11 1_555 1_555
Cu2 N4 1_555 1_555
Br2 Cu1 1_555 1_555
N4 C14 1_555 1_555
C14 C21 1_555 1_555
C15 N4 1_555 1_555
C16 C15 1_555 1_555
N5 Cu2 1_555 1_555
C17 C18 1_555 1_555
C18 C19 1_555 1_555
C19 C20 1_555 1_555
C20 C21 1_555 1_555
C21 N6 1_555 1_555
N6 Cu2 1_555 1_555
C22 N5 1_555 1_555
C23 C22 1_555 1_555
C24 C23 1_555 1_555
C25 C24 1_555 1_555
C26 C16 1_555 1_555
Cu3 Br3 1_555 1_555
Br3 Cu4 1_555 1_555
N7 Cu3 1_555 1_555
C27 N7 1_555 1_555
C28 N7 1_555 1_555
C29 C28 1_555 1_555
N8 Cu3 1_555 1_555
C30 N8 1_555 1_555
C31 C30 1_555 1_555
C32 C31 1_555 1_555
C33 C32 1_555 1_555
C34 C27 1_555 1_555
N9 Cu3 1_555 1_555
C35 N9 1_555 1_555
C36 C35 1_555 1_555
C37 C36 1_555 1_555
C38 C37 1_555 1_555
C39 C29 1_555 1_555
Cu4 N10 1_555 1_555
Br4 Cu3 1_555 1_555
N10 C40 1_555 1_555
C40 C47 1_555 1_555
C41 N10 1_555 1_555
C42 C41 1_555 1_555
N11 Cu4 1_555 1_555
C43 N11 1_555 1_555
C44 C43 1_555 1_555
C45 C44 1_555 1_555
C46 C45 1_555 1_555
C47 N11 1_555 1_555
N12 Cu4 1_555 1_555
C48 N12 1_555 1_555
C49 C48 1_555 1_555
C50 C49 1_555 1_555
C51 C50 1_555 1_555
C52 C42 1_555 1_555
P1 F1 1_555 1_555
F2 P1 1_555 1_555
F3 P1 1_555 1_555
F4 P1 1_555 1_555
F5 P1 1_555 1_555
F6 P1 1_555 1_555
P2 F7 1_555 1_555
F8 P2 1_555 1_555
F9 P2 1_555 1_555
F10 P2 1_555 1_555
F11 P2 1_555 1_555
F12 P2 1_555 1_555
P3 F13 1_555 1_555
F14 P3 1_555 1_555
F15 P3 1_555 1_555
F16 P3 1_555 1_555
F17 P3 1_555 1_555
F18 P3 1_555 1_555
P4 F19 1_555 1_555
F20 P4 1_555 1_555
F21 P4 1_555 1_555
F22 P4 1_555 1_555
F23 P4 1_555 1_555
F24 P4 1_555 1_555
Br2_2 Cu2 1_555 1_555
Cu2_2 Br2 1_555 1_555
Br4_2 Cu4 1_555 1_555
Cu4_2 Br4 1_555 1_555
N2 C8 1_555 1_555
C7 C8 1_555 1_555
N3 C12 1_555 1_555
C12 C13 1_555 1_555
N5 C26 1_555 1_555
C17 N6 1_555 1_555
C25 C26 1_555 1_555
N8 C34 1_555 1_555
C33 C34 1_555 1_555
N9 C39 1_555 1_555
C38 C39 1_555 1_555
C46 C47 1_555 1_555
N12 C52 1_555 1_555
C51 C52 1_555 1_555

#END
