
#######################################################################
#
#                 Cambridge Crystallographic Data Centre
#                                CCDC 
#
#######################################################################
#
# If this CIF has been generated from an entry in the Cambridge 
# Structural Database, then it will include bibliographic, chemical, 
# crystal, experimental, refinement or atomic coordinate data resulting 
# from the CCDC's data processing and validation procedures.
#
#######################################################################

data_JOYXUQ
_symmetry_cell_setting           monoclinic
_symmetry_space_group_name_H-M   'P 21/c'
_symmetry_Int_Tables_number      14
_space_group_name_Hall           '-P 2ybc'
loop_
_symmetry_equiv_pos_site_id
_symmetry_equiv_pos_as_xyz
1 x,y,z
2 -x,1/2+y,1/2-z
3 -x,-y,-z
4 x,1/2-y,1/2+z
_cell_length_a                   16.98(1)
_cell_length_b                   14.823(6)
_cell_length_c                   17.33(1)
_cell_angle_alpha                90
_cell_angle_beta                 105.70(6)
_cell_angle_gamma                90
_cell_volume                     4199.13
loop_
_atom_site_label
_atom_site_type_symbol
_atom_site_fract_x
_atom_site_fract_y
_atom_site_fract_z
Sn1 Sn -0.51883(3) -0.49278(3) 0.26161(3)
C1 C -0.4041(4) -0.5586(4) 0.2914(4)
C2 C -0.3421(5) -0.5434(5) 0.3618(4)
C3 C -0.2677(5) -0.5877(6) 0.3750(5)
C4 C -0.2514(5) -0.6446(6) 0.3210(5)
C5 C -0.3115(5) -0.6617(5) 0.2510(5)
C6 C -0.3862(4) -0.6191(5) 0.2365(4)
C7 C -0.6005(4) -0.4815(4) 0.3317(4)
C8 C -0.6435(5) -0.5530(6) 0.3499(5)
C9 C -0.7052(6) -0.5464(6) 0.3882(6)
C10 C -0.7270(6) -0.4641(7) 0.4091(5)
C11 C -0.6873(5) -0.3905(6) 0.3934(5)
C12 C -0.6265(5) -0.3968(5) 0.3553(5)
C13 C -0.5357(4) -0.4076(4) 0.1604(4)
C14 C -0.5925(5) -0.3378(5) 0.1446(5)
C15 C -0.6004(6) -0.2826(6) 0.0793(5)
C16 C -0.5542(6) -0.2954(6) 0.0279(6)
C17 C -0.5004(5) -0.3653(7) 0.0401(6)
C18 C -0.4903(5) -0.4203(5) 0.1077(5)
C19 C -0.3883(4) -0.2282(4) 0.3875(4)
C20 C -0.4378(4) -0.2903(4) 0.3296(4)
O1 O -0.4457(3) -0.3703(3) 0.3433(3)
C21 C -0.3847(4) -0.1369(4) 0.3672(4)
O2 O -0.4226(3) -0.1101(3) 0.2948(3)
C22 C -0.3363(4) -0.0799(4) 0.4251(4)
C23 C -0.2942(5) -0.1121(5) 0.4979(4)
C24 C -0.2980(5) -0.2029(5) 0.5175(4)
C25 C -0.3452(5) -0.2592(4) 0.4644(4)
H1 H -0.3521 -0.5020 0.4022
H2 H -0.2252 -0.5784 0.4252
H3 H -0.1974 -0.6730 0.3304
H4 H -0.3007 -0.7038 0.2112
H5 H -0.4295 -0.6313 0.1866
H6 H -0.6306 -0.6139 0.3323
H7 H -0.7319 -0.6008 0.4008
H8 H -0.7726 -0.4588 0.4350
H9 H -0.7026 -0.3305 0.4098
H10 H -0.6002 -0.3408 0.3441
H11 H -0.6276 -0.3273 0.1809
H12 H -0.6398 -0.2337 0.0705
H13 H -0.5594 -0.2548 -0.0176
H14 H -0.4692 -0.3770 0.0006
H15 H -0.4491 -0.4680 0.1185
H16 H -0.4671 -0.2669 0.2770
H17 H -0.3330 -0.0163 0.4123
H18 H -0.2623 -0.0702 0.5382
H19 H -0.2649 -0.2254 0.5697
H20 H -0.3486 -0.3225 0.4789
O2A O -0.5774(3) -0.6101(3) 0.2052(3)
Sn1A Sn -0.48117(3) 0.00722(3) 0.23839(3)
Sn2 Sn -0.00911(3) -0.68068(3) 0.74426(3)
C26 C -0.0865(4) -0.7509(4) 0.6448(4)
C27 C -0.0798(5) -0.7369(5) 0.5677(4)
C28 C -0.1293(6) -0.7873(6) 0.5039(5)
C29 C -0.1829(5) -0.8482(6) 0.5175(5)
C30 C -0.1886(5) -0.8625(5) 0.5926(6)
C31 C -0.1393(4) -0.8146(5) 0.6573(5)
C32 C 0.1174(4) -0.6738(5) 0.7560(4)
C33 C 0.1597(5) -0.7515(5) 0.7431(5)
C34 C 0.2410(5) -0.7472(6) 0.7463(5)
C35 C 0.2841(5) -0.6686(7) 0.7664(5)
C36 C 0.2445(5) -0.5921(6) 0.7775(5)
C37 C 0.1630(4) -0.5948(5) 0.7718(4)
C38 C -0.0610(4) -0.5873(4) 0.8081(4)
C39 C -0.0155(5) -0.5249(5) 0.8625(4)
C40 C -0.0529(5) -0.4633(5) 0.8998(5)
C41 C -0.1348(5) -0.4615(5) 0.8850(5)
C42 C -0.1820(5) -0.5203(6) 0.8310(5)
C43 C -0.1449(5) -0.5834(5) 0.7943(4)
C44 C -0.0488(4) -0.4102(4) 0.5944(4)
C45 C -0.0180(4) -0.4758(4) 0.6568(4)
O3 O -0.0231(3) -0.5573(3) 0.6466(3)
C46 C -0.0381(4) -0.3182(4) 0.6134(4)
O4 O 0.0076(3) -0.2941(3) 0.6841(3)
C47 C -0.0758(5) -0.2566(5) 0.5534(4)
C48 C -0.1198(5) -0.2859(5) 0.4797(5)
C49 C -0.1277(5) -0.3775(5) 0.4598(4)
C50 C -0.0919(4) -0.4380(4) 0.5171(4)
H21 H -0.0404 -0.6940 0.5579
H22 H -0.1251 -0.7793 0.4499
H23 H -0.2175 -0.8823 0.4738
H24 H -0.2279 -0.9072 0.6013
H25 H -0.1426 -0.8265 0.7117
H26 H 0.1300 -0.8092 0.7332
H27 H 0.2687 -0.8000 0.7328
H28 H 0.3434 -0.6661 0.7744
H29 H 0.2742 -0.5345 0.7889
H30 H 0.1348 -0.5390 0.7788
H31 H 0.0450 -0.5265 0.8752
H32 H -0.0184 -0.4204 0.9373
H33 H -0.1588 -0.4169 0.9128
H34 H -0.2417 -0.5159 0.8197
H35 H -0.1789 -0.6268 0.7566
H36 H 0.0089 -0.4534 0.7105
H37 H -0.0695 -0.1922 0.5646
H38 H -0.1453 -0.2412 0.4400
H39 H -0.1580 -0.3969 0.4062
H40 H -0.0969 -0.5016 0.5051
O4A O -0.0076(3) -0.7941(3) 0.8159(3)
Sn2A Sn 0.00911(3) -0.18068(3) 0.75574(3)
loop_
_geom_bond_atom_site_label_1
_geom_bond_atom_site_label_2
_geom_bond_site_symmetry_1
_geom_bond_site_symmetry_2
Sn1 C1 1_555 1_555
C1 C2 1_555 1_555
C2 C3 1_555 1_555
C3 C4 1_555 1_555
C4 C5 1_555 1_555
C5 C6 1_555 1_555
C6 C1 1_555 1_555
C7 Sn1 1_555 1_555
C8 C7 1_555 1_555
C9 C8 1_555 1_555
C10 C9 1_555 1_555
C11 C10 1_555 1_555
C12 C7 1_555 1_555
C13 Sn1 1_555 1_555
C14 C13 1_555 1_555
C15 C14 1_555 1_555
C16 C15 1_555 1_555
C17 C16 1_555 1_555
C18 C13 1_555 1_555
C19 C20 1_555 1_555
C20 O1 1_555 1_555
O1 Sn1 1_555 1_555
C21 C19 1_555 1_555
O2 C21 1_555 1_555
C22 C21 1_555 1_555
C23 C22 1_555 1_555
C24 C23 1_555 1_555
C25 C19 1_555 1_555
Sn2 C26 1_555 1_555
C26 C27 1_555 1_555
C27 C28 1_555 1_555
C28 C29 1_555 1_555
C29 C30 1_555 1_555
C30 C31 1_555 1_555
C31 C26 1_555 1_555
C32 Sn2 1_555 1_555
C33 C32 1_555 1_555
C34 C33 1_555 1_555
C35 C34 1_555 1_555
C36 C35 1_555 1_555
C37 C32 1_555 1_555
C38 Sn2 1_555 1_555
C39 C38 1_555 1_555
C40 C39 1_555 1_555
C41 C40 1_555 1_555
C42 C41 1_555 1_555
C43 C38 1_555 1_555
C44 C45 1_555 1_555
C45 O3 1_555 1_555
O3 Sn2 1_555 1_555
C46 C44 1_555 1_555
O4 C46 1_555 1_555
C47 C46 1_555 1_555
C48 C47 1_555 1_555
C49 C48 1_555 1_555
C50 C44 1_555 1_555
H1 C2 1_555 1_555
H2 C3 1_555 1_555
H3 C4 1_555 1_555
H4 C5 1_555 1_555
H5 C6 1_555 1_555
H6 C8 1_555 1_555
H7 C9 1_555 1_555
H8 C10 1_555 1_555
H9 C11 1_555 1_555
H10 C12 1_555 1_555
H11 C14 1_555 1_555
H12 C15 1_555 1_555
H13 C16 1_555 1_555
H14 C17 1_555 1_555
H15 C18 1_555 1_555
H16 C20 1_555 1_555
H17 C22 1_555 1_555
H18 C23 1_555 1_555
H19 C24 1_555 1_555
H20 C25 1_555 1_555
H21 C27 1_555 1_555
H22 C28 1_555 1_555
H23 C29 1_555 1_555
H24 C30 1_555 1_555
H25 C31 1_555 1_555
H26 C33 1_555 1_555
H27 C34 1_555 1_555
H28 C35 1_555 1_555
H29 C36 1_555 1_555
H30 C37 1_555 1_555
H31 C39 1_555 1_555
H32 C40 1_555 1_555
H33 C41 1_555 1_555
H34 C42 1_555 1_555
H35 C43 1_555 1_555
H36 C45 1_555 1_555
H37 C47 1_555 1_555
H38 C48 1_555 1_555
H39 C49 1_555 1_555
H40 C50 1_555 1_555
O2A Sn1 1_555 1_555
Sn1A O2 1_555 1_555
O4A Sn2 1_555 1_555
Sn2A O4 1_555 1_555
C11 C12 1_555 1_555
C17 C18 1_555 1_555
C24 C25 1_555 1_555
C36 C37 1_555 1_555
C42 C43 1_555 1_555
C49 C50 1_555 1_555

#END
