
#######################################################################
#
#                 Cambridge Crystallographic Data Centre
#                                CCDC 
#
#######################################################################
#
# If this CIF has been generated from an entry in the Cambridge 
# Structural Database, then it will include bibliographic, chemical, 
# crystal, experimental, refinement or atomic coordinate data resulting 
# from the CCDC's data processing and validation procedures.
#
#######################################################################

data_JOYZEE
_symmetry_cell_setting           monoclinic
_symmetry_space_group_name_H-M   'P 21'
_symmetry_Int_Tables_number      4
_space_group_name_Hall           'P 2yb'
loop_
_symmetry_equiv_pos_site_id
_symmetry_equiv_pos_as_xyz
1 x,y,z
2 -x,1/2+y,-z
_cell_length_a                   4.8075(2)
_cell_length_b                   9.4727(5)
_cell_length_c                   9.7014(4)
_cell_angle_alpha                90
_cell_angle_beta                 95.763(4)
_cell_angle_gamma                90
_cell_volume                     439.569
loop_
_atom_site_label
_atom_site_type_symbol
_atom_site_fract_x
_atom_site_fract_y
_atom_site_fract_z
Zn1 Zn 0.7994(2) -0.00446(9) 0.78154(10)
N1 N 0.5848(19) 0.0884(13) 0.6092(10)
H1 H 0.69(3) 0.113(13) 0.537(9)
H2 H 0.485(17) 0.004(4) 0.587(7)
C1 C 0.442(2) 0.2133(13) 0.6508(12)
H3 H 0.2651 0.1872 0.6834
H4 H 0.4048 0.2762 0.5722
C2 C 0.627(2) 0.2888(11) 0.7670(12)
O1 O 0.8269(18) 0.2222(9) 0.8289(10)
N2 N 0.573(2) 0.4190(11) 0.7946(10)
H5 H 0.4363 0.4620 0.7486
C3 C 0.7487(19) 0.4937(16) 0.9051(10)
H6 H 0.9374 0.4534 0.9129
C4 C 0.630(2) 0.4809(17) 1.0443(11)
O2 O 0.3721(15) 0.4629(9) 1.0432(7)
O3 O 0.7908(13) 0.4865(12) 1.1566(7)
C5 C 0.766(3) 0.6501(13) 0.8703(12)
H7 H 0.5778 0.6887 0.8602
H8 H 0.8691 0.6980 0.9477
C6 C 0.903(2) 0.6824(13) 0.7404(13)
O4 O 0.8439(17) 0.8044(10) 0.6865(8)
O5 O 1.0663(17) 0.5984(10) 0.6929(8)
Zn1_2 Zn 0.7994(2) 0.99554(9) 0.78154(10)
Zn1A Zn 0.2006(2) 0.49554(9) 1.21846(10)
Zn1A_2 Zn 1.2006(2) 0.49554(9) 1.21846(10)
O2A O 0.6279(15) -0.0371(9) 0.9568(7)
O3A O 1.2092(13) -0.0135(12) 0.8434(7)
O4_2 O 0.8439(17) -0.1956(10) 0.6865(8)
O6 O 0.8305(17) 0.3886(10) 0.5113(8)
H9 H 0.89(3) 0.352(13) 0.429(9)
H10 H 0.94(3) 0.471(10) 0.539(12)
loop_
_geom_bond_atom_site_label_1
_geom_bond_atom_site_label_2
_geom_bond_site_symmetry_1
_geom_bond_site_symmetry_2
Zn1 N1 1_555 1_555
N1 H1 1_555 1_555
H2 N1 1_555 1_555
C1 N1 1_555 1_555
H3 C1 1_555 1_555
H4 C1 1_555 1_555
C2 C1 1_555 1_555
O1 Zn1 1_555 1_555
N2 C2 1_555 1_555
H5 N2 1_555 1_555
C3 N2 1_555 1_555
H6 C3 1_555 1_555
C4 C3 1_555 1_555
O2 C4 1_555 1_555
O3 C4 1_555 1_555
C5 C3 1_555 1_555
H7 C5 1_555 1_555
H8 C5 1_555 1_555
C6 C5 1_555 1_555
O4 C6 1_555 1_555
O5 C6 1_555 1_555
O6 H9 1_555 1_555
H10 O6 1_555 1_555
Zn1_2 O4 1_555 1_555
Zn1A O2 1_555 1_555
Zn1A_2 O3 1_555 1_555
O2A Zn1 1_555 1_555
O3A Zn1 1_555 1_555
O4_2 Zn1 1_555 1_555
C2 O1 1_555 1_555

#END
