
#######################################################################
#
#                 Cambridge Crystallographic Data Centre
#                                CCDC 
#
#######################################################################
#
# If this CIF has been generated from an entry in the Cambridge 
# Structural Database, then it will include bibliographic, chemical, 
# crystal, experimental, refinement or atomic coordinate data resulting 
# from the CCDC's data processing and validation procedures.
#
#######################################################################

data_JOZGUA
_symmetry_cell_setting           monoclinic
_symmetry_space_group_name_H-M   'P 21/n'
_symmetry_Int_Tables_number      14
_space_group_name_Hall           '-P 2yn'
loop_
_symmetry_equiv_pos_site_id
_symmetry_equiv_pos_as_xyz
1 x,y,z
2 1/2-x,1/2+y,1/2-z
3 -x,-y,-z
4 1/2+x,1/2-y,1/2+z
_cell_length_a                   14.575(3)
_cell_length_b                   7.363(2)
_cell_length_c                   19.755(4)
_cell_angle_alpha                90
_cell_angle_beta                 98.95(3)
_cell_angle_gamma                90
_cell_volume                     2094.21
loop_
_atom_site_label
_atom_site_type_symbol
_atom_site_fract_x
_atom_site_fract_y
_atom_site_fract_z
Gd1 Gd 0.2955(1) 0.0411(1) 0.1386(1)
N1 N 0.1793(8) -0.0177(19) 0.0307(6)
C1 C 0.1729(9) 0.0969(24) -0.0217(7)
C2 C 0.2375(10) 0.2519(26) -0.0111(8)
O1 O 0.2945(7) 0.2519(15) 0.0443(5)
O2 O 0.2374(9) 0.3707(18) -0.0559(6)
C3 C 0.1094(12) 0.0635(29) -0.0836(8)
C4 C 0.0570(12) -0.0889(26) -0.0872(9)
C5 C 0.0645(10) -0.2134(27) -0.0325(9)
C6 C 0.1262(10) -0.1634(22) 0.0256(8)
C7 C 0.1411(10) -0.2870(25) 0.0899(8)
O3 O 0.1976(7) -0.2249(16) 0.1395(5)
O4 O 0.0965(8) -0.4300(19) 0.0874(6)
N2 N 0.4647(8) 0.1029(20) 0.1270(5)
C8 C 0.5055(10) 0.2517(22) 0.1539(7)
C9 C 0.4459(11) 0.3705(23) 0.1911(8)
O5 O 0.3653(7) 0.3120(16) 0.1936(5)
O6 O 0.4800(7) 0.5162(16) 0.2146(7)
C10 C 0.5993(12) 0.2831(28) 0.1500(9)
C11 C 0.6479(11) 0.1581(33) 0.1184(9)
C12 C 0.6052(11) 0.0083(24) 0.0900(10)
C13 C 0.5107(10) -0.0166(28) 0.0949(7)
C14 C 0.4539(11) -0.1739(26) 0.0657(8)
O7 O 0.3668(8) -0.1731(17) 0.0686(5)
O8 O 0.4938(8) -0.3038(19) 0.0388(7)
Ag1 Ag 0.3786(1) 0.5031(3) 0.0066(1)
O9 O 0.3956(8) -0.1547(16) 0.2193(5)
O10 O 0.1615(7) 0.2413(16) 0.1440(5)
O11 O 0.2462(7) 0.0490(16) 0.2509(5)
H1 H 0.1042 0.1469 -0.1214
H2 H 0.0137 -0.1127 -0.1280
H3 H 0.0298 -0.3246 -0.0351
H4 H 0.6294 0.3914 0.1693
H5 H 0.7125 0.1774 0.1164
H6 H 0.6382 -0.0793 0.0671
Ag1_2 Ag 0.3786(1) -0.4969(3) 0.0066(1)
Ag1B Ag 0.6214(1) -0.5031(3) -0.0066(1)
O8_2 O 0.4938(8) 0.6962(19) 0.0388(7)
O8B O 0.5062(8) 0.3038(19) -0.0388(7)
O1B O 0.7055(7) -0.2519(15) -0.0443(5)
O2B O 0.7626(9) -0.3707(18) 0.0559(6)
O8B_2 O 0.5062(8) -0.6962(19) -0.0388(7)
C14B C 0.5461(11) 0.1739(26) -0.0657(8)
Ag1B_2 Ag 0.6214(1) 0.4969(3) -0.0066(1)
Gd1B Gd 0.7045(1) -0.0411(1) -0.1386(1)
C2B C 0.7625(10) -0.2519(26) 0.0111(8)
C13B C 0.4893(10) 0.0166(28) -0.0949(7)
O7B O 0.6332(8) 0.1731(17) -0.0686(5)
N1B N 0.8207(8) 0.0177(19) -0.0307(6)
O3B O 0.8024(7) 0.2249(16) -0.1395(5)
N2B N 0.5353(8) -0.1029(20) -0.1270(5)
O5B O 0.6347(7) -0.3120(16) -0.1936(5)
O9B O 0.6044(8) 0.1547(16) -0.2193(5)
O10B O 0.8385(7) -0.2413(16) -0.1440(5)
O11B O 0.7538(7) -0.0490(16) -0.2509(5)
C1B C 0.8271(9) -0.0969(24) 0.0217(7)
C12B C 0.3948(11) -0.0083(24) -0.0900(10)
C6B C 0.8738(10) 0.1634(22) -0.0256(8)
C7B C 0.8589(10) 0.2870(25) -0.0899(8)
C8B C 0.4945(10) -0.2517(22) -0.1539(7)
C9B C 0.5541(11) -0.3705(23) -0.1911(8)
C3B C 0.8906(12) -0.0635(29) 0.0836(8)
C11B C 0.3521(11) -0.1581(33) -0.1184(9)
H6B H 0.3618 0.0793 -0.0671
C5B C 0.9355(10) 0.2134(27) 0.0325(9)
O4B O 0.9035(8) 0.4300(19) -0.0874(6)
C10B C 0.4007(12) -0.2831(28) -0.1500(9)
O6B O 0.5200(7) -0.5162(16) -0.2146(7)
C4B C 0.9430(12) 0.0889(26) 0.0872(9)
H1B H 0.8958 -0.1469 0.1214
H5B H 0.2875 -0.1774 -0.1164
H3B H 0.9702 0.3246 0.0351
H4B H 0.3706 -0.3914 -0.1693
H2B H 0.9863 0.1127 0.1280
O12 O 0.1970(9) 0.4604(23) -0.1918(6)
O13 O 0.5103(9) 0.0440(26) 0.3033(7)
O14 O 0.6619(10) 0.6731(26) 0.2561(8)
loop_
_geom_bond_atom_site_label_1
_geom_bond_atom_site_label_2
_geom_bond_site_symmetry_1
_geom_bond_site_symmetry_2
Gd1 N1 1_555 1_555
N1 C1 1_555 1_555
C1 C2 1_555 1_555
C2 O1 1_555 1_555
O1 Gd1 1_555 1_555
O2 C2 1_555 1_555
C3 C1 1_555 1_555
C4 C3 1_555 1_555
C5 C4 1_555 1_555
C6 N1 1_555 1_555
C7 C6 1_555 1_555
O3 Gd1 1_555 1_555
O4 C7 1_555 1_555
N2 Gd1 1_555 1_555
C8 N2 1_555 1_555
C9 C8 1_555 1_555
O5 Gd1 1_555 1_555
O6 C9 1_555 1_555
C10 C8 1_555 1_555
C11 C10 1_555 1_555
C12 C11 1_555 1_555
C13 N2 1_555 1_555
C14 C13 1_555 1_555
O7 Gd1 1_555 1_555
O8 C14 1_555 1_555
Ag1 O1 1_555 1_555
O9 Gd1 1_555 1_555
O10 Gd1 1_555 1_555
O11 Gd1 1_555 1_555
H1 C3 1_555 1_555
H2 C4 1_555 1_555
H3 C5 1_555 1_555
H4 C10 1_555 1_555
H5 C11 1_555 1_555
H6 C12 1_555 1_555
Ag1_2 O8 1_555 1_555
Ag1B O8 1_555 1_555
O8_2 Ag1 1_555 1_555
O8B Ag1 1_555 1_555
O1B Ag1B 1_555 1_555
O2B Ag1B 1_555 1_555
O8B_2 Ag1B 1_555 1_555
C14B O8B 1_555 1_555
Ag1B_2 O8B 1_555 1_555
Gd1B O1B 1_555 1_555
C2B O1B 1_555 1_555
C13B C14B 1_555 1_555
O7B C14B 1_555 1_555
N1B Gd1B 1_555 1_555
O3B Gd1B 1_555 1_555
N2B Gd1B 1_555 1_555
O5B Gd1B 1_555 1_555
O9B Gd1B 1_555 1_555
O10B Gd1B 1_555 1_555
O11B Gd1B 1_555 1_555
C1B C2B 1_555 1_555
C12B C13B 1_555 1_555
C6B N1B 1_555 1_555
C7B O3B 1_555 1_555
C8B N2B 1_555 1_555
C9B O5B 1_555 1_555
C3B C1B 1_555 1_555
C11B C12B 1_555 1_555
H6B C12B 1_555 1_555
C5B C6B 1_555 1_555
O4B C7B 1_555 1_555
C10B C8B 1_555 1_555
O6B C9B 1_555 1_555
C4B C3B 1_555 1_555
H1B C3B 1_555 1_555
H5B C11B 1_555 1_555
H3B C5B 1_555 1_555
H4B C10B 1_555 1_555
H2B C4B 1_555 1_555
O2 Ag1 1_555 1_555
C5 C6 1_555 1_555
C7 O3 1_555 1_555
C9 O5 1_555 1_555
C12 C13 1_555 1_555
C14 O7 1_555 1_555
O2B C2B 1_555 1_555
Gd1B O7B 1_555 1_555
C13B N2B 1_555 1_555
N1B C1B 1_555 1_555
C6B C7B 1_555 1_555
C8B C9B 1_555 1_555
C11B C10B 1_555 1_555
C5B C4B 1_555 1_555

#END
