
#######################################################################
#
#                 Cambridge Crystallographic Data Centre
#                                CCDC 
#
#######################################################################
#
# If this CIF has been generated from an entry in the Cambridge 
# Structural Database, then it will include bibliographic, chemical, 
# crystal, experimental, refinement or atomic coordinate data resulting 
# from the CCDC's data processing and validation procedures.
#
#######################################################################

data_JOZXUR01
_symmetry_cell_setting           orthorhombic
_symmetry_space_group_name_H-M   'P b c a'
_symmetry_Int_Tables_number      61
_space_group_name_Hall           '-P 2ac 2ab'
loop_
_symmetry_equiv_pos_site_id
_symmetry_equiv_pos_as_xyz
1 x,y,z
2 1/2-x,-y,1/2+z
3 1/2+x,1/2-y,-z
4 -x,1/2+y,1/2-z
5 -x,-y,-z
6 1/2+x,y,1/2-z
7 1/2-x,1/2+y,z
8 x,1/2-y,1/2+z
_cell_length_a                   12.823(2)
_cell_length_b                   9.914(3)
_cell_length_c                   19.750(4)
_cell_angle_alpha                90
_cell_angle_beta                 90
_cell_angle_gamma                90
_cell_volume                     2510.76
loop_
_atom_site_label
_atom_site_type_symbol
_atom_site_fract_x
_atom_site_fract_y
_atom_site_fract_z
Cu1 Cu 0.5000 0.0000 0.5000
N1 N 0.47632(11) 0.19848(16) 0.53736(8)
O1 O 0.44674(10) 0.05961(13) 0.41204(6)
O2 O 0.57951(10) 0.19366(14) 0.37546(7)
O3 O 0.27523(11) 0.04857(18) 0.34879(8)
H1 H 0.3202 0.0241 0.3772
O4 O 0.18495(10) 0.40747(14) 0.51719(7)
H2 H 0.1670 0.3707 0.5537
C1 C 0.48894(14) 0.14920(18) 0.37046(9)
C2 C 0.41954(14) 0.19821(18) 0.31420(9)
C3 C 0.31793(15) 0.1450(2) 0.30623(10)
C4 C 0.25545(16) 0.1931(2) 0.25288(10)
H3 H 0.1874 0.1575 0.2464
C5 C 0.29349(18) 0.2944(2) 0.20895(11)
H4 H 0.2499 0.3263 0.1735
C6 C 0.39342(17) 0.3487(2) 0.21621(11)
H5 H 0.4178 0.4173 0.1866
C7 C 0.45618(15) 0.2994(2) 0.26805(10)
H6 H 0.5250 0.3336 0.2730
C8 C 0.39096(13) 0.27442(18) 0.52158(9)
H7 H 0.3417 0.2374 0.4908
C9 C 0.37049(13) 0.40755(18) 0.54852(9)
C10 C 0.44305(14) 0.4660(2) 0.59259(10)
H8 H 0.4323 0.5534 0.6111
C11 C 0.53255(15) 0.39003(19) 0.60831(10)
H9 H 0.5843 0.4266 0.6374
C12 C 0.54597(14) 0.25659(19) 0.58029(10)
H10 H 0.6065 0.2069 0.5925
C13 C 0.27487(14) 0.49186(18) 0.52884(11)
H11 H 0.2592 0.5569 0.5655
H12 H 0.2905 0.5438 0.4873
Cu1F Cu 0.0000 0.5000 0.5000
Cu1F_2 Cu 1.0000 -0.5000 0.5000
N1D N 0.52368(11) -0.19848(16) 0.46264(8)
O1D O 0.55326(10) -0.05961(13) 0.58796(6)
O2D O 0.42049(10) -0.19366(14) 0.62454(7)
O3D O 0.72477(11) -0.04857(18) 0.65121(8)
H1D H 0.6798 -0.0241 0.6228
O4D O 0.81505(10) -0.40747(14) 0.48281(7)
O4F O 0.31505(10) -0.09253(14) 0.51719(7)
O4B O 0.68495(10) 0.09253(14) 0.48281(7)
H2D H 0.8330 -0.3707 0.4463
H2F H 0.3330 -0.1293 0.5537
H2B H 0.6670 0.1293 0.4463
C1D C 0.51106(14) -0.14920(18) 0.62954(9)
C2D C 0.58046(14) -0.19821(18) 0.68580(9)
C3D C 0.68207(15) -0.1450(2) 0.69377(10)
C4D C 0.74455(16) -0.1931(2) 0.74712(10)
H3D H 0.8126 -0.1575 0.7536
C5D C 0.70651(18) -0.2944(2) 0.79105(11)
H4D H 0.7501 -0.3263 0.8265
C6D C 0.60658(17) -0.3487(2) 0.78379(11)
H5D H 0.5822 -0.4173 0.8134
C7D C 0.54382(15) -0.2994(2) 0.73195(10)
H6D H 0.4750 -0.3336 0.7270
C8D C 0.60904(13) -0.27442(18) 0.47842(9)
H7D H 0.6583 -0.2374 0.5092
C9D C 0.62951(13) -0.40755(18) 0.45148(9)
C10D C 0.55695(14) -0.4660(2) 0.40741(10)
H8D H 0.5677 -0.5534 0.3889
C11D C 0.46745(15) -0.39003(19) 0.39169(10)
H9D H 0.4157 -0.4266 0.3626
C12D C 0.45403(14) -0.25659(19) 0.41971(10)
H10D H 0.3935 -0.2069 0.4075
C13D C 0.72513(14) -0.49186(18) 0.47116(11)
H11D H 0.7408 -0.5569 0.4345
H12D H 0.7095 -0.5438 0.5127
loop_
_geom_bond_atom_site_label_1
_geom_bond_atom_site_label_2
_geom_bond_site_symmetry_1
_geom_bond_site_symmetry_2
Cu1 N1 1_555 1_555
N1 C8 1_555 1_555
O1 Cu1 1_555 1_555
O2 C1 1_555 1_555
O3 H1 1_555 1_555
O4 H2 1_555 1_555
C1 O1 1_555 1_555
C2 C1 1_555 1_555
C3 O3 1_555 1_555
C4 C3 1_555 1_555
H3 C4 1_555 1_555
C5 C4 1_555 1_555
H4 C5 1_555 1_555
C6 C5 1_555 1_555
H5 C6 1_555 1_555
C7 C2 1_555 1_555
H6 C7 1_555 1_555
C8 H7 1_555 1_555
C9 C8 1_555 1_555
C10 C9 1_555 1_555
H8 C10 1_555 1_555
C11 C10 1_555 1_555
H9 C11 1_555 1_555
C12 N1 1_555 1_555
H10 C12 1_555 1_555
C13 O4 1_555 1_555
H11 C13 1_555 1_555
H12 C13 1_555 1_555
Cu1F O4 1_555 1_555
Cu1F_2 O4D 1_555 1_555
N1D Cu1 1_555 1_555
O1D Cu1 1_555 1_555
O2D C1D 1_555 1_555
O3D H1D 1_555 1_555
O4D H2D 1_555 1_555
O4F Cu1 1_555 1_555
O4B Cu1 1_555 1_555
H2F O4F 1_555 1_555
H2B O4B 1_555 1_555
C1D O1D 1_555 1_555
C2D C1D 1_555 1_555
C3D O3D 1_555 1_555
C4D C3D 1_555 1_555
H3D C4D 1_555 1_555
C5D C4D 1_555 1_555
H4D C5D 1_555 1_555
C6D C5D 1_555 1_555
H5D C6D 1_555 1_555
C7D C2D 1_555 1_555
H6D C7D 1_555 1_555
C8D N1D 1_555 1_555
H7D C8D 1_555 1_555
C9D C8D 1_555 1_555
C10D C9D 1_555 1_555
H8D C10D 1_555 1_555
C11D C10D 1_555 1_555
H9D C11D 1_555 1_555
C12D N1D 1_555 1_555
H10D C12D 1_555 1_555
C13D O4D 1_555 1_555
H11D C13D 1_555 1_555
H12D C13D 1_555 1_555
C2 C3 1_555 1_555
C6 C7 1_555 1_555
C9 C13 1_555 1_555
C11 C12 1_555 1_555
C2D C3D 1_555 1_555
C6D C7D 1_555 1_555
C9D C13D 1_555 1_555
C11D C12D 1_555 1_555

#END
