
#######################################################################
#
#                 Cambridge Crystallographic Data Centre
#                                CCDC 
#
#######################################################################
#
# If this CIF has been generated from an entry in the Cambridge 
# Structural Database, then it will include bibliographic, chemical, 
# crystal, experimental, refinement or atomic coordinate data resulting 
# from the CCDC's data processing and validation procedures.
#
#######################################################################

data_JUBHIX
_symmetry_cell_setting           monoclinic
_symmetry_space_group_name_H-M   'P 21/a'
_symmetry_Int_Tables_number      14
_space_group_name_Hall           '-P 2yab'
loop_
_symmetry_equiv_pos_site_id
_symmetry_equiv_pos_as_xyz
1 x,y,z
2 1/2-x,1/2+y,-z
3 -x,-y,-z
4 1/2+x,1/2-y,z
_cell_length_a                   16.525(2)
_cell_length_b                   15.386(2)
_cell_length_c                   19.751(2)
_cell_angle_alpha                90
_cell_angle_beta                 113.82(1)
_cell_angle_gamma                90
_cell_volume                     4594
loop_
_atom_site_label
_atom_site_type_symbol
_atom_site_fract_x
_atom_site_fract_y
_atom_site_fract_z
Sn1 Sn 0.20143(2) 0.22048(3) -0.04107(2)
S1 S -0.05549(9) 0.4386(1) -0.13954(9)
O1 O 0.0791(2) 0.2898(3) -0.0964(2)
O2 O 0.0928(3) 0.2877(3) -0.2033(2)
N1 N 0.1627(3) 0.6392(3) -0.0401(3)
C1 C 0.1647(3) 0.1063(4) -0.1068(3)
C2 C 0.0769(4) 0.0837(5) -0.1434(3)
C3 C 0.0514(5) 0.0096(5) -0.1853(4)
C4 C 0.1133(5) -0.0421(5) -0.1944(4)
C5 C 0.1998(5) -0.0213(5) -0.1609(3)
C6 C 0.2261(4) 0.0518(4) -0.1165(3)
C7 C 0.2845(3) 0.3124(4) -0.0607(3)
C8 C 0.3007(4) 0.3066(4) -0.1247(3)
C9 C 0.3497(4) 0.3677(5) -0.1409(3)
C10 C 0.3852(4) 0.4363(5) -0.0940(4)
C11 C 0.3709(4) 0.4431(5) -0.0309(4)
C12 C 0.3213(4) 0.3813(4) -0.0140(3)
C13 C 0.1742(4) 0.2255(4) 0.0558(3)
C14 C 0.2337(5) 0.2552(5) 0.1224(3)
C15 C 0.2118(6) 0.2590(5) 0.1825(4)
C16 C 0.1327(5) 0.2303(6) 0.1789(4)
C17 C 0.0749(5) 0.1998(6) 0.1136(4)
C18 C 0.0931(4) 0.1975(5) 0.0517(4)
C19 C 0.0558(4) 0.3109(4) -0.1637(3)
C20 C -0.0247(4) 0.3703(4) -0.1974(3)
C21 C 0.0299(3) 0.5147(4) -0.1051(3)
C22 C 0.1081(3) 0.5124(4) -0.1150(3)
C23 C 0.1706(4) 0.5748(4) -0.0825(3)
C24 C 0.0871(4) 0.6410(4) -0.0306(3)
C25 C 0.0206(4) 0.5814(4) -0.0619(3)
H1 H 0.033 0.121 -0.140
H2 H -0.009 -0.007 -0.207
H3 H 0.095 -0.092 -0.225
H4 H 0.243 -0.058 -0.167
H5 H 0.287 0.066 -0.092
H6 H 0.277 0.259 -0.157
H7 H 0.359 0.363 -0.185
H8 H 0.420 0.479 -0.105
H9 H 0.396 0.491 0.002
H10 H 0.312 0.386 0.030
H11 H 0.291 0.272 0.126
H12 H 0.253 0.283 0.228
H13 H 0.119 0.232 0.221
H14 H 0.019 0.179 0.111
H15 H 0.051 0.177 0.006
H16 H -0.014 0.407 -0.231
H17 H -0.074 0.334 -0.223
H18 H 0.118 0.467 -0.144
H19 H 0.223 0.573 -0.091
H20 H 0.079 0.686 -0.001
H21 H -0.032 0.586 -0.054
N1A N 0.3373(3) 0.1392(3) 0.0401(3)
Sn1A Sn 0.29857(2) 0.72048(3) 0.04107(2)
Sn2 Sn 0.73378(2) 0.20656(3) -0.46236(2)
S2 S 0.57503(9) 0.4266(1) -0.36458(8)
O3 O 0.6663(2) 0.2786(3) -0.4079(2)
O4 O 0.7850(2) 0.2785(3) -0.3012(2)
N2 N 0.7041(3) 0.6221(4) -0.4621(3)
C26 C 0.7577(4) 0.0966(4) -0.3916(3)
C27 C 0.7053(4) 0.0843(4) -0.3531(3)
C28 C 0.7181(6) 0.0138(5) -0.3073(4)
C29 C 0.7827(6) -0.0439(5) -0.2987(5)
C30 C 0.8354(6) -0.0317(5) -0.3349(5)
C31 C 0.8235(5) 0.0377(4) -0.3811(4)
C32 C 0.8340(3) 0.2995(4) -0.4471(3)
C33 C 0.9137(3) 0.2961(4) -0.3866(3)
C34 C 0.9776(4) 0.3576(5) -0.3761(3)
C35 C 0.9627(4) 0.4247(5) -0.4259(4)
C36 C 0.8856(4) 0.4294(5) -0.4850(4)
C37 C 0.8218(4) 0.3663(5) -0.4967(4)
C38 C 0.6134(4) 0.2077(4) -0.5604(3)
C39 C 0.6089(5) 0.2161(7) -0.6309(4)
C40 C 0.5294(5) 0.2084(8) -0.6915(4)
C41 C 0.4541(5) 0.1937(7) -0.6830(4)
C42 C 0.4566(4) 0.1856(6) -0.6153(4)
C43 C 0.5355(4) 0.1932(5) -0.5542(3)
C44 C 0.7096(3) 0.3004(4) -0.3396(3)
C45 C 0.6614(4) 0.3568(4) -0.3054(3)
C46 C 0.6297(4) 0.5012(4) -0.3976(3)
C47 C 0.7176(4) 0.4943(5) -0.3884(3)
C48 C 0.7494(4) 0.5555(5) -0.4214(4)
C49 C 0.6204(4) 0.6293(4) -0.4685(3)
C50 C 0.5821(4) 0.5716(4) -0.4373(3)
H22 H 0.660 0.126 -0.359
H23 H 0.681 0.006 -0.282
H24 H 0.791 -0.093 -0.267
H25 H 0.881 -0.073 -0.328
H26 H 0.861 0.046 -0.406
H27 H 0.924 0.250 -0.352
H28 H 1.033 0.354 -0.334
H29 H 1.007 0.468 -0.418
H30 H 0.875 0.476 -0.519
H31 H 0.768 0.368 -0.540
H32 H 0.662 0.227 -0.638
H33 H 0.528 0.214 -0.740
H34 H 0.400 0.189 -0.725
H35 H 0.404 0.175 -0.609
H36 H 0.536 0.188 -0.506
H37 H 0.636 0.319 -0.281
H38 H 0.705 0.393 -0.270
H39 H 0.754 0.448 -0.360
H40 H 0.809 0.551 -0.415
H41 H 0.586 0.677 -0.496
H42 H 0.523 0.580 -0.443
N2A N 0.7959(3) 0.1221(4) -0.5379(3)
Sn2A Sn 0.76622(2) 0.70656(3) -0.53764(2)
loop_
_geom_bond_atom_site_label_1
_geom_bond_atom_site_label_2
_geom_bond_site_symmetry_1
_geom_bond_site_symmetry_2
Sn1 O1 1_555 1_555
S1 C20 1_555 1_555
O1 C19 1_555 1_555
O2 C19 1_555 1_555
N1 C23 1_555 1_555
C1 Sn1 1_555 1_555
C2 C1 1_555 1_555
C3 C2 1_555 1_555
C4 C3 1_555 1_555
C5 C4 1_555 1_555
C6 C1 1_555 1_555
C7 Sn1 1_555 1_555
C8 C7 1_555 1_555
C9 C8 1_555 1_555
C10 C9 1_555 1_555
C11 C10 1_555 1_555
C12 C7 1_555 1_555
C13 Sn1 1_555 1_555
C14 C13 1_555 1_555
C15 C14 1_555 1_555
C16 C15 1_555 1_555
C17 C16 1_555 1_555
C18 C13 1_555 1_555
C19 C20 1_555 1_555
C20 H16 1_555 1_555
C21 S1 1_555 1_555
C22 C21 1_555 1_555
C23 C22 1_555 1_555
C24 N1 1_555 1_555
C25 C21 1_555 1_555
Sn2 O3 1_555 1_555
S2 C45 1_555 1_555
O3 C44 1_555 1_555
O4 C44 1_555 1_555
N2 C48 1_555 1_555
C26 Sn2 1_555 1_555
C27 C26 1_555 1_555
C28 C27 1_555 1_555
C29 C28 1_555 1_555
C30 C29 1_555 1_555
C31 C26 1_555 1_555
C32 Sn2 1_555 1_555
C33 C32 1_555 1_555
C34 C33 1_555 1_555
C35 C34 1_555 1_555
C36 C35 1_555 1_555
C37 C32 1_555 1_555
C38 Sn2 1_555 1_555
C39 C38 1_555 1_555
C40 C39 1_555 1_555
C41 C40 1_555 1_555
C42 C41 1_555 1_555
C43 C38 1_555 1_555
C44 C45 1_555 1_555
C45 H37 1_555 1_555
C46 S2 1_555 1_555
C47 C46 1_555 1_555
C48 C47 1_555 1_555
C49 N2 1_555 1_555
C50 C46 1_555 1_555
H1 C2 1_555 1_555
H2 C3 1_555 1_555
H3 C4 1_555 1_555
H4 C5 1_555 1_555
H5 C6 1_555 1_555
H6 C8 1_555 1_555
H7 C9 1_555 1_555
H8 C10 1_555 1_555
H9 C11 1_555 1_555
H10 C12 1_555 1_555
H11 C14 1_555 1_555
H12 C15 1_555 1_555
H13 C16 1_555 1_555
H14 C17 1_555 1_555
H15 C18 1_555 1_555
H17 C20 1_555 1_555
H18 C22 1_555 1_555
H19 C23 1_555 1_555
H20 C24 1_555 1_555
H21 C25 1_555 1_555
H22 C27 1_555 1_555
H23 C28 1_555 1_555
H24 C29 1_555 1_555
H25 C30 1_555 1_555
H26 C31 1_555 1_555
H27 C33 1_555 1_555
H28 C34 1_555 1_555
H29 C35 1_555 1_555
H30 C36 1_555 1_555
H31 C37 1_555 1_555
H32 C39 1_555 1_555
H33 C40 1_555 1_555
H34 C41 1_555 1_555
H35 C42 1_555 1_555
H36 C43 1_555 1_555
H38 C45 1_555 1_555
H39 C47 1_555 1_555
H40 C48 1_555 1_555
H41 C49 1_555 1_555
H42 C50 1_555 1_555
N1A Sn1 1_555 1_555
Sn1A N1 1_555 1_555
N2A Sn2 1_555 1_555
Sn2A N2 1_555 1_555
C5 C6 1_555 1_555
C11 C12 1_555 1_555
C17 C18 1_555 1_555
C24 C25 1_555 1_555
C30 C31 1_555 1_555
C36 C37 1_555 1_555
C42 C43 1_555 1_555
C49 C50 1_555 1_555

#END
