
#######################################################################
#
#                 Cambridge Crystallographic Data Centre
#                                CCDC 
#
#######################################################################
#
# If this CIF has been generated from an entry in the Cambridge 
# Structural Database, then it will include bibliographic, chemical, 
# crystal, experimental, refinement or atomic coordinate data resulting 
# from the CCDC's data processing and validation procedures.
#
#######################################################################

data_JUCMOL
_symmetry_cell_setting           triclinic
_symmetry_space_group_name_H-M   'P -1'
_symmetry_Int_Tables_number      2
_space_group_name_Hall           '-P 1'
loop_
_symmetry_equiv_pos_site_id
_symmetry_equiv_pos_as_xyz
1 x,y,z
2 -x,-y,-z
_cell_length_a                   12.1360(11)
_cell_length_b                   13.8042(12)
_cell_length_c                   16.8375(15)
_cell_angle_alpha                90.625(2)
_cell_angle_beta                 101.3250(10)
_cell_angle_gamma                105.2930(10)
_cell_volume                     2662.02
loop_
_atom_site_label
_atom_site_type_symbol
_atom_site_fract_x
_atom_site_fract_y
_atom_site_fract_z
Cu1 Cu 0.29457(4) 0.23344(3) -0.07182(2)
Cu2 Cu 0.29752(4) 0.72809(3) 0.43533(2)
O1 O 0.2697(2) 0.15182(17) -0.17340(13)
O2 O 0.1815(2) 0.02488(18) -0.10844(13)
O3 O 0.3077(2) 0.17597(18) -0.35973(14)
O4 O 0.4546(2) 0.16080(17) -0.26281(13)
O5 O 0.3132(2) -0.18937(18) -0.46568(13)
O6 O 0.1549(2) -0.30058(18) -0.44219(14)
O7 O 0.1675(2) 0.51621(18) 0.38732(14)
O8 O 0.2761(2) 0.64520(17) 0.33481(13)
O9 O 0.3241(2) 0.68524(18) 0.16339(15)
O10 O 0.4679(2) 0.65021(18) 0.25243(14)
H1 H 0.4961 0.7130 0.2560
O11 O 0.3079(2) 0.31515(18) 0.02804(13)
O12 O 0.1660(2) 0.19554(18) 0.06207(14)
O13 O 0.4208(2) 0.36575(19) -0.11237(15)
H2 H 0.4476 0.4169 -0.0798
H3 H 0.4242 0.3855 -0.1591
O14 O 0.4179(2) 0.85614(18) 0.38618(15)
H4 H 0.4404 0.9184 0.3982
H5 H 0.4415 0.8462 0.3439
N1 N 0.4313(2) 0.1804(2) -0.02161(16)
N2 N 0.7712(2) 0.1699(2) -0.09796(16)
H6 H 0.7583 0.2326 -0.0968
H7 H 0.8223 0.1658 -0.0507
N3 N 1.1497(2) 0.2760(2) -0.11757(16)
N4 N 0.4326(2) 0.6744(2) 0.49074(16)
N5 N 0.7743(2) 0.6689(2) 0.41671(16)
H8 H 0.7534 0.7281 0.4101
H9 H 0.8280 0.6762 0.4648
N6 N 1.1521(2) 0.7701(2) 0.38897(16)
C1 C 0.5920(3) 0.1192(3) -0.0419(2)
C2 C 0.4967(3) 0.1554(3) -0.0705(2)
H10 H 0.4764 0.1631 -0.1270
C3 C 0.4617(3) 0.1704(3) 0.0581(2)
H11 H 0.4166 0.1880 0.0932
C4 C 0.5567(3) 0.1352(3) 0.0913(2)
H12 H 0.5764 0.1295 0.1482
C5 C 0.6222(3) 0.1088(3) 0.0409(2)
H13 H 0.6870 0.0837 0.0625
C6 C 0.6576(3) 0.0909(3) -0.1019(2)
H14 H 0.6733 0.0253 -0.0895
H15 H 0.6094 0.0840 -0.1574
C7 C 0.8257(3) 0.1580(3) -0.1691(2)
H16 H 0.7738 0.1670 -0.2200
H17 H 0.8366 0.0896 -0.1724
C8 C 0.9423(3) 0.2357(3) -0.1587(2)
C9 C 1.0447(3) 0.2091(3) -0.13069(19)
H18 H 1.0403 0.1408 -0.1204
C10 C 1.1560(3) 0.3723(3) -0.1327(2)
H19 H 1.2304 0.4202 -0.1228
C11 C 1.0580(3) 0.4042(3) -0.1623(2)
H20 H 1.0648 0.4726 -0.1737
C12 C 0.9491(3) 0.3346(3) -0.1752(2)
H21 H 0.8803 0.3548 -0.1951
C13 C 0.5994(3) 0.6172(2) 0.4781(2)
C14 C 0.5009(3) 0.6476(3) 0.4453(2)
H22 H 0.4806 0.6497 0.3881
C15 C 0.4624(3) 0.6711(3) 0.5716(2)
H23 H 0.4148 0.6895 0.6044
C16 C 0.5596(3) 0.6421(3) 0.6088(2)
H24 H 0.5783 0.6407 0.6662
C17 C 0.6295(3) 0.6150(3) 0.5615(2)
H25 H 0.6970 0.5952 0.5859
C18 C 0.6681(3) 0.5854(3) 0.4219(2)
H26 H 0.6924 0.5255 0.4419
H27 H 0.6179 0.5666 0.3671
C19 C 0.8299(3) 0.6500(3) 0.3480(2)
H28 H 0.7772 0.6523 0.2956
H29 H 0.8434 0.5823 0.3506
C20 C 0.9441(3) 0.7285(3) 0.3537(2)
C21 C 1.0472(3) 0.7031(3) 0.3792(2)
H30 H 1.0439 0.6352 0.3903
C22 C 1.1563(3) 0.8663(3) 0.3743(2)
H31 H 1.2302 0.9147 0.3831
C23 C 1.0575(3) 0.8974(3) 0.3472(2)
H32 H 1.0632 0.9656 0.3360
C24 C 0.9500(3) 0.8277(3) 0.3364(2)
H33 H 0.8806 0.8474 0.3173
C25 C 0.2278(3) -0.0124(3) -0.23486(19)
C26 C 0.2860(3) 0.0216(3) -0.29745(19)
C27 C 0.2855(3) -0.0463(3) -0.35888(19)
H34 H 0.3234 -0.0228 -0.4020
C28 C 0.2304(3) -0.1484(3) -0.35849(19)
C29 C 0.1732(3) -0.1823(3) -0.2957(2)
H35 H 0.1349 -0.2517 -0.2947
C30 C 0.1725(3) -0.1146(3) -0.2352(2)
H36 H 0.1334 -0.1383 -0.1926
C31 C 0.2245(3) 0.0581(3) -0.16721(19)
C32 C 0.3528(3) 0.1291(3) -0.30559(19)
C33 C 0.2307(3) -0.2193(3) -0.4259(2)
C34 C 0.2189(3) 0.4872(3) 0.26116(19)
C35 C 0.2926(3) 0.5199(3) 0.20657(19)
C36 C 0.2961(3) 0.4534(3) 0.1455(2)
H37 H 0.3474 0.4755 0.1093
C37 C 0.2258(3) 0.3551(3) 0.13628(19)
C38 C 0.1479(3) 0.3245(3) 0.1875(2)
H38 H 0.0961 0.2586 0.1797
C39 C 0.1458(3) 0.3896(3) 0.2495(2)
H39 H 0.0935 0.3675 0.2849
C40 C 0.2190(3) 0.5527(3) 0.33300(19)
C41 C 0.3626(3) 0.6269(3) 0.20700(19)
C42 C 0.2320(3) 0.2825(3) 0.07093(19)
Cu1_2 Cu 1.29457(4) 0.23344(3) -0.07182(2)
Cu2_2 Cu 0.29752(4) -0.27191(3) -0.56467(2)
Cu2_3 Cu 1.29752(4) 0.72809(3) 0.43533(2)
O5_2 O 0.3132(2) 0.81063(18) 0.53432(13)
N3_2 N 0.1497(2) 0.2760(2) -0.11757(16)
N6_2 N 0.1521(2) 0.7701(2) 0.38897(16)
Cl1 Cl 0.6352(2) 0.39317(15) 0.22411(12)
O15 O 0.6019(4) 0.4846(3) 0.2305(2)
O16 O 0.7283(4) 0.3955(3) 0.2973(3)
O17 O 0.6826(4) 0.3879(3) 0.1553(2)
O18 O 0.5410(4) 0.3087(3) 0.2273(3)
O23 O 0.9221(2) 0.1380(2) 0.03401(17)
H40 H 0.9953 0.1520 0.0425
H41 H 0.8983 0.0782 0.0462
O24 O 0.4163(3) 0.1087(2) 0.25404(16)
H42 H 0.3461 0.1070 0.2522
H43 H 0.4537 0.1696 0.2568
O25 O 0.4624(2) 0.06081(19) 0.41226(15)
H44 H 0.5298 0.1003 0.4257
H45 H 0.4394 0.0654 0.3624
O26 O 0.2877(3) 0.1110(2) 0.47184(16)
H46 H 0.3501 0.1193 0.4548
H47 H 0.3064 0.1361 0.5199
O27 O 0.1806(3) 0.0855(2) 0.20696(17)
H48 H 0.1618 0.1134 0.2448
H49 H 0.1741 0.1210 0.1670
O28 O 0.1315(3) 0.1594(2) 0.34839(18)
H50 H 0.0995 0.1971 0.3697
H51 H 0.1734 0.1386 0.3865
O29 O 0.0737(2) 0.32808(19) 0.43673(14)
H52 H 0.0911 0.3805 0.4117
H53 H 0.0007 0.3110 0.4310
O30 O 0.4647(6) 0.5578(5) 0.9644(4)
O31 O 0.8916(10) 0.5022(8) 0.4468(7)
Cl2? Cl 0.6726(9) 0.3883(7) 0.2290(6)
O19? O 0.6208(14) 0.4668(11) 0.2461(12)
O20? O 0.6685(15) 0.3777(16) 0.1429(6)
O21? O 0.7947(11) 0.4152(12) 0.2721(9)
O22? O 0.6117(16) 0.2943(9) 0.2563(11)
loop_
_geom_bond_atom_site_label_1
_geom_bond_atom_site_label_2
_geom_bond_site_symmetry_1
_geom_bond_site_symmetry_2
Cu1 O1 1_555 1_555
Cu2 O8 1_555 1_555
O1 C31 1_555 1_555
O2 C31 1_555 1_555
O3 C32 1_555 1_555
O4 C32 1_555 1_555
O5 C33 1_555 1_555
O6 C33 1_555 1_555
O7 C40 1_555 1_555
O8 C40 1_555 1_555
O9 C41 1_555 1_555
O10 H1 1_555 1_555
O11 Cu1 1_555 1_555
O12 C42 1_555 1_555
O13 Cu1 1_555 1_555
H2 O13 1_555 1_555
H3 O13 1_555 1_555
O14 Cu2 1_555 1_555
H4 O14 1_555 1_555
H5 O14 1_555 1_555
N1 Cu1 1_555 1_555
N2 H6 1_555 1_555
H7 N2 1_555 1_555
N3 C9 1_555 1_555
N4 Cu2 1_555 1_555
N5 H8 1_555 1_555
H9 N5 1_555 1_555
N6 C21 1_555 1_555
C1 C2 1_555 1_555
C2 N1 1_555 1_555
H10 C2 1_555 1_555
C3 N1 1_555 1_555
H11 C3 1_555 1_555
C4 C3 1_555 1_555
H12 C4 1_555 1_555
C5 C1 1_555 1_555
H13 C5 1_555 1_555
C6 N2 1_555 1_555
H14 C6 1_555 1_555
H15 C6 1_555 1_555
C7 N2 1_555 1_555
H16 C7 1_555 1_555
H17 C7 1_555 1_555
C8 C7 1_555 1_555
C9 C8 1_555 1_555
H18 C9 1_555 1_555
C10 N3 1_555 1_555
H19 C10 1_555 1_555
C11 C10 1_555 1_555
H20 C11 1_555 1_555
C12 C8 1_555 1_555
H21 C12 1_555 1_555
C13 C14 1_555 1_555
C14 N4 1_555 1_555
H22 C14 1_555 1_555
C15 N4 1_555 1_555
H23 C15 1_555 1_555
C16 C15 1_555 1_555
H24 C16 1_555 1_555
C17 C13 1_555 1_555
H25 C17 1_555 1_555
C18 N5 1_555 1_555
H26 C18 1_555 1_555
H27 C18 1_555 1_555
C19 N5 1_555 1_555
H28 C19 1_555 1_555
H29 C19 1_555 1_555
C20 C19 1_555 1_555
C21 C20 1_555 1_555
H30 C21 1_555 1_555
C22 N6 1_555 1_555
H31 C22 1_555 1_555
C23 C22 1_555 1_555
H32 C23 1_555 1_555
C24 C20 1_555 1_555
H33 C24 1_555 1_555
C25 C26 1_555 1_555
C26 C27 1_555 1_555
C27 H34 1_555 1_555
C28 C27 1_555 1_555
C29 C28 1_555 1_555
H35 C29 1_555 1_555
C30 C25 1_555 1_555
H36 C30 1_555 1_555
C31 C25 1_555 1_555
C32 C26 1_555 1_555
C33 C28 1_555 1_555
C34 C35 1_555 1_555
C35 C36 1_555 1_555
C36 H37 1_555 1_555
C37 C36 1_555 1_555
C38 C37 1_555 1_555
H38 C38 1_555 1_555
C39 C34 1_555 1_555
H39 C39 1_555 1_555
C40 C34 1_555 1_555
C41 O10 1_555 1_555
C42 O11 1_555 1_555
Cl1 O15 1_555 1_555
O16 Cl1 1_555 1_555
O17 Cl1 1_555 1_555
O18 Cl1 1_555 1_555
O23 H40 1_555 1_555
H41 O23 1_555 1_555
O24 H42 1_555 1_555
H43 O24 1_555 1_555
O25 H44 1_555 1_555
H45 O25 1_555 1_555
O26 H46 1_555 1_555
H47 O26 1_555 1_555
O27 H48 1_555 1_555
H49 O27 1_555 1_555
O28 H50 1_555 1_555
H51 O28 1_555 1_555
O29 H52 1_555 1_555
H53 O29 1_555 1_555
Cu1_2 N3 1_555 1_555
Cu2_2 O5 1_555 1_555
Cu2_3 N6 1_555 1_555
O5_2 Cu2 1_555 1_555
N3_2 Cu1 1_555 1_555
N6_2 Cu2 1_555 1_555
C1 C6 1_555 1_555
C4 C5 1_555 1_555
C11 C12 1_555 1_555
C13 C18 1_555 1_555
C16 C17 1_555 1_555
C23 C24 1_555 1_555
C29 C30 1_555 1_555
C35 C41 1_555 1_555
C37 C42 1_555 1_555
C38 C39 1_555 1_555

#END
