
#######################################################################
#
#                 Cambridge Crystallographic Data Centre
#                                CCDC 
#
#######################################################################
#
# If this CIF has been generated from an entry in the Cambridge 
# Structural Database, then it will include bibliographic, chemical, 
# crystal, experimental, refinement or atomic coordinate data resulting 
# from the CCDC's data processing and validation procedures.
#
#######################################################################

data_JUCRII
_symmetry_cell_setting           monoclinic
_symmetry_space_group_name_H-M   'P 21/c'
_symmetry_Int_Tables_number      14
_space_group_name_Hall           '-P 2ybc'
loop_
_symmetry_equiv_pos_site_id
_symmetry_equiv_pos_as_xyz
1 x,y,z
2 -x,1/2+y,1/2-z
3 -x,-y,-z
4 x,1/2-y,1/2+z
_cell_length_a                   10.986(4)
_cell_length_b                   16.002(6)
_cell_length_c                   6.088(3)
_cell_angle_alpha                90
_cell_angle_beta                 102.47(3)
_cell_angle_gamma                90
_cell_volume                     1045.01
loop_
_atom_site_label
_atom_site_type_symbol
_atom_site_fract_x
_atom_site_fract_y
_atom_site_fract_z
Zn1 Zn 0.2166(2) 0.2135(1) 0.0267(2)
N1 N 0.103(1) 0.272(1) 0.191(2)
N2 N 0.005(1) 0.302(1) 0.107(2)
N3 N -0.085(1) 0.333(1) 0.033(2)
N4 N 0.334(1) 0.226(1) 0.366(1)
N5 N 0.417(1) 0.180(1) 0.438(1)
N6 N 0.497(1) 0.136(1) 0.511(2)
N7 N 0.242(1) 0.089(1) 0.004(1)
C1 C 0.199(1) 0.029(1) 0.124(2)
C2 C 0.230(1) -0.054(1) 0.101(2)
C3 C 0.305(1) -0.076(1) -0.043(2)
C4 C 0.345(1) -0.014(1) -0.166(2)
C5 C 0.313(1) 0.065(1) -0.136(2)
C6 C 0.112(1) 0.053(1) 0.269(2)
C7 C 0.338(1) -0.165(1) -0.065(2)
H1 H 0.194(1) -0.101(1) 0.196(2)
H2 H 0.402(1) -0.029(1) -0.285(2)
H3 H 0.347(1) 0.114(1) -0.232(2)
H4 H 0.050(6) 0.103(4) 0.194(9)
H5 H 0.053(7) 0.001(2) 0.292(14)
H6 H 0.161(4) 0.073(5) 0.434(6)
H7 H 0.270(5) -0.195(3) -0.198(11)
H8 H 0.341(9) -0.200(3) 0.088(7)
H9 H 0.428(4) -0.171(3) -0.109(16)
N1C N 0.103(1) 0.228(1) -0.309(2)
N4C N 0.334(1) 0.274(1) -0.134(1)
Zn1C Zn 0.2166(2) 0.2865(1) 0.5267(2)
loop_
_geom_bond_atom_site_label_1
_geom_bond_atom_site_label_2
_geom_bond_site_symmetry_1
_geom_bond_site_symmetry_2
Zn1 N1 1_555 1_555
N1 N2 1_555 1_555
N2 N3 1_555 1_555
N4 Zn1 1_555 1_555
N5 N4 1_555 1_555
N6 N5 1_555 1_555
N7 Zn1 1_555 1_555
C1 N7 1_555 1_555
C2 C1 1_555 1_555
C3 C2 1_555 1_555
C4 C3 1_555 1_555
C5 N7 1_555 1_555
C6 C1 1_555 1_555
C7 C3 1_555 1_555
H1 C2 1_555 1_555
H2 C4 1_555 1_555
H3 C5 1_555 1_555
H4 C6 1_555 1_555
H5 C6 1_555 1_555
H6 C6 1_555 1_555
H7 C7 1_555 1_555
H8 C7 1_555 1_555
H9 C7 1_555 1_555
N1C Zn1 1_555 1_555
N4C Zn1 1_555 1_555
Zn1C N1 1_555 1_555
N4 Zn1C 1_555 1_555
C4 C5 1_555 1_555

#END
