
#######################################################################
#
#                 Cambridge Crystallographic Data Centre
#                                CCDC 
#
#######################################################################
#
# If this CIF has been generated from an entry in the Cambridge 
# Structural Database, then it will include bibliographic, chemical, 
# crystal, experimental, refinement or atomic coordinate data resulting 
# from the CCDC's data processing and validation procedures.
#
#######################################################################

data_JUCRUU
_symmetry_cell_setting           monoclinic
_symmetry_space_group_name_H-M   'P 21/c'
_symmetry_Int_Tables_number      14
_space_group_name_Hall           '-P 2ybc'
loop_
_symmetry_equiv_pos_site_id
_symmetry_equiv_pos_as_xyz
1 x,y,z
2 -x,1/2+y,1/2-z
3 -x,-y,-z
4 x,1/2-y,1/2+z
_cell_length_a                   6.021(2)
_cell_length_b                   20.379(7)
_cell_length_c                   8.538(3)
_cell_angle_alpha                90
_cell_angle_beta                 90.77(3)
_cell_angle_gamma                90
_cell_volume                     1047.53
loop_
_atom_site_label
_atom_site_type_symbol
_atom_site_fract_x
_atom_site_fract_y
_atom_site_fract_z
Zn1 Zn 0.2551(1) 0.0179(1) 0.0514(1)
N1 N 0.0466(9) -0.0572(3) 0.0831(8)
N2 N 0.1102(9) -0.1127(3) 0.0593(8)
N3 N 0.1674(10) -0.1650(3) 0.0374(9)
N4 N 0.4500(8) 0.0271(3) -0.1344(7)
N5 N 0.3877(9) 0.0405(3) -0.2659(8)
N6 N 0.3280(11) 0.05314 -0.3889(9)
N7 N 0.217(1) 0.091(1) 0.203(1)
C1 C 0.052(1) 0.087(1) 0.307(1)
C2 C -0.003(1) 0.140(1) 0.400(1)
C3 C 0.110(1) 0.198(1) 0.386(1)
C4 C 0.278(1) 0.202(1) 0.278(1)
C5 C 0.325(1) 0.148(1) 0.191(1)
C6 C -0.186(1) 0.131(1) 0.517(1)
C7 C 0.404(2) 0.264(1) 0.254(1)
H1 H -0.038(1) 0.041(1) 0.320(1)
H2 H 0.068(1) 0.239(1) 0.458(1)
H3 H 0.457(1) 0.151(1) 0.107(1)
H4 H -0.172(8) 0.085(2) 0.579(6)
H5 H -0.349(3) 0.132(3) 0.462(4)
H6 H -0.181(9) 0.171(2) 0.602(5)
H7 H 0.526(8) 0.272(2) 0.347(4)
H8 H 0.295(6) 0.306(1) 0.250(8)
H9 H 0.494(9) 0.263(2) 0.145(4)
N1B N -0.0466(9) 0.0572(3) -0.0831(8)
N4B N 0.5500(8) -0.0271(3) 0.1344(7)
Zn1B Zn -0.2551(1) -0.0179(1) -0.0514(1)
Zn1B_2 Zn 0.7449(1) -0.0179(1) -0.0514(1)
loop_
_geom_bond_atom_site_label_1
_geom_bond_atom_site_label_2
_geom_bond_site_symmetry_1
_geom_bond_site_symmetry_2
Zn1 N1 1_555 1_555
N1 N2 1_555 1_555
N2 N3 1_555 1_555
N4 Zn1 1_555 1_555
N5 N4 1_555 1_555
N6 N5 1_555 1_555
N7 Zn1 1_555 1_555
C1 N7 1_555 1_555
C2 C1 1_555 1_555
C3 C2 1_555 1_555
C4 C3 1_555 1_555
C5 N7 1_555 1_555
C6 C2 1_555 1_555
C7 C4 1_555 1_555
H1 C1 1_555 1_555
H2 C3 1_555 1_555
H3 C5 1_555 1_555
H4 C6 1_555 1_555
H5 C6 1_555 1_555
H6 C6 1_555 1_555
H7 C7 1_555 1_555
H8 C7 1_555 1_555
H9 C7 1_555 1_555
N1B Zn1 1_555 1_555
N4B Zn1 1_555 1_555
Zn1B N1 1_555 1_555
Zn1B_2 N4 1_555 1_555
C4 C5 1_555 1_555
N1B Zn1B 1_555 1_555
N4B Zn1B_2 1_555 1_555

#END
