
#######################################################################
#
#                 Cambridge Crystallographic Data Centre
#                                CCDC 
#
#######################################################################
#
# If this CIF has been generated from an entry in the Cambridge 
# Structural Database, then it will include bibliographic, chemical, 
# crystal, experimental, refinement or atomic coordinate data resulting 
# from the CCDC's data processing and validation procedures.
#
#######################################################################

data_JUDGAS
_symmetry_cell_setting           triclinic
_symmetry_space_group_name_H-M   'P -1'
_symmetry_Int_Tables_number      2
_space_group_name_Hall           '-P 1'
loop_
_symmetry_equiv_pos_site_id
_symmetry_equiv_pos_as_xyz
1 x,y,z
2 -x,-y,-z
_cell_length_a                   8.5608(8)
_cell_length_b                   9.0331(9)
_cell_length_c                   11.1343(12)
_cell_angle_alpha                92.821(3)
_cell_angle_beta                 107.049(3)
_cell_angle_gamma                96.058(3)
_cell_volume                     815.672
loop_
_atom_site_label
_atom_site_type_symbol
_atom_site_fract_x
_atom_site_fract_y
_atom_site_fract_z
Th1 Th 0.85917(2) 0.70982(2) -0.07543(2)
O1 O 0.6212(3) 0.8695(2) -0.1577(2)
O2 O 0.8501(3) 0.5961(2) 0.11735(19)
O3 O 0.8349(2) 0.8911(2) 0.09017(18)
O4 O 0.2285(2) 0.5504(2) 0.1206(2)
O5 O 1.0367(2) 1.0793(2) 0.1542(2)
O6 O 0.1283(2) 0.7620(2) 0.0704(2)
O7 O 0.9571(3) 0.3879(2) 0.1748(2)
O8 O 0.5603(2) 0.6728(2) -0.0704(2)
O9 O 0.7117(3) 0.6583(3) -0.3042(2)
H1 H 0.707(5) 0.568(2) -0.353(3)
H2 H 0.658(4) 0.727(3) -0.357(3)
O10 O 0.3786(3) 0.8254(3) -0.1325(3)
N1 N 0.7134(3) 0.7538(2) 0.2737(2)
H3 H 0.7328 0.7426 0.1914
N2 N 0.5151(3) 0.7915(3) -0.1216(3)
C1 C 0.7479(3) 0.9175(3) 0.3170(3)
H4 H 0.7513 0.9293 0.4048
H5 H 0.6575 0.9671 0.2688
C2 C 0.2444(3) 0.6893(3) 0.1193(3)
C3 C 0.8297(4) 0.5065(3) 0.3089(3)
H6 H 0.9018 0.4556 0.3735
H7 H 0.7193 0.454 0.2897
C4 C 0.8841(3) 0.4963(3) 0.1921(3)
C5 C 0.8299(3) 0.6652(3) 0.3619(3)
H8 H 0.8007 0.6608 0.4396
H9 H 0.9406 0.7173 0.3825
C6 C 0.9082(3) 0.9949(3) 0.3037(3)
H10 H 0.9195 1.0991 0.3341
H11 H 0.9987 0.951 0.3584
C7 C 0.9260(3) 0.9881(3) 0.1726(3)
C8 C 0.5373(3) 0.6892(3) 0.2561(3)
H12 H 0.5194 0.5879 0.2171
H13 H 0.5203 0.6841 0.3383
C9 C 0.4123(3) 0.7775(3) 0.1767(3)
H14 H 0.4524 0.8146 0.1095
H15 H 0.4017 0.8632 0.2284
Th1_2 Th -0.14083(2) 0.70982(2) -0.07543(2)
Th1A Th 0.14083(2) 0.29018(2) 0.07543(2)
Th1A_2 Th 1.14083(2) 0.29018(2) 0.07543(2)
Th1A_3 Th 1.14083(2) 1.29018(2) 0.07543(2)
O4A O 0.7715(2) 0.4496(2) -0.1206(2)
O5A O 0.9633(2) 0.9207(2) -0.1542(2)
O6_2 O 1.1283(2) 0.7620(2) 0.0704(2)
O7A O 1.0429(3) 0.6121(2) -0.1748(2)
loop_
_geom_bond_atom_site_label_1
_geom_bond_atom_site_label_2
_geom_bond_site_symmetry_1
_geom_bond_site_symmetry_2
Th1 O1 1_555 1_555
O1 N2 1_555 1_555
O2 Th1 1_555 1_555
O3 Th1 1_555 1_555
O4 C2 1_555 1_555
O5 C7 1_555 1_555
O6 C2 1_555 1_555
O7 C4 1_555 1_555
O8 Th1 1_555 1_555
O9 Th1 1_555 1_555
H1 O9 1_555 1_555
H2 O9 1_555 1_555
O10 N2 1_555 1_555
N1 H3 1_555 1_555
N2 O8 1_555 1_555
C1 N1 1_555 1_555
H4 C1 1_555 1_555
H5 C1 1_555 1_555
C2 C9 1_555 1_555
C3 H6 1_555 1_555
H7 C3 1_555 1_555
C4 O2 1_555 1_555
C5 N1 1_555 1_555
H8 C5 1_555 1_555
H9 C5 1_555 1_555
C6 C1 1_555 1_555
H10 C6 1_555 1_555
H11 C6 1_555 1_555
C7 O3 1_555 1_555
C8 N1 1_555 1_555
H12 C8 1_555 1_555
H13 C8 1_555 1_555
C9 C8 1_555 1_555
H14 C9 1_555 1_555
H15 C9 1_555 1_555
Th1_2 O6 1_555 1_555
Th1A O4 1_555 1_555
Th1A_2 O7 1_555 1_555
Th1A_3 O5 1_555 1_555
O4A Th1 1_555 1_555
O5A Th1 1_555 1_555
O6_2 Th1 1_555 1_555
O7A Th1 1_555 1_555
C3 C4 1_555 1_555
C3 C5 1_555 1_555
C6 C7 1_555 1_555

#END
