
#######################################################################
#
#                 Cambridge Crystallographic Data Centre
#                                CCDC 
#
#######################################################################
#
# If this CIF has been generated from an entry in the Cambridge 
# Structural Database, then it will include bibliographic, chemical, 
# crystal, experimental, refinement or atomic coordinate data resulting 
# from the CCDC's data processing and validation procedures.
#
#######################################################################

data_JUDGIA
_symmetry_cell_setting           triclinic
_symmetry_space_group_name_H-M   'P -1'
_symmetry_Int_Tables_number      2
_space_group_name_Hall           '-P 1'
loop_
_symmetry_equiv_pos_site_id
_symmetry_equiv_pos_as_xyz
1 x,y,z
2 -x,-y,-z
_cell_length_a                   9.8450(6)
_cell_length_b                   11.0807(7)
_cell_length_c                   12.7574(8)
_cell_angle_alpha                67.288(2)
_cell_angle_beta                 89.853(2)
_cell_angle_gamma                84.338(2)
_cell_volume                     1276.56
loop_
_atom_site_label
_atom_site_type_symbol
_atom_site_fract_x
_atom_site_fract_y
_atom_site_fract_z
Th1 Th 0.71789(2) 0.13441(2) 0.33970(2)
Fe1 Fe 0.92639(4) -0.12589(4) 0.57092(4)
O1 O 0.8027(2) -0.0937(2) 0.44108(18)
O2 O 1.0411(2) -0.1367(2) 0.70294(18)
O3 O 1.1085(2) -0.0809(2) 0.49522(17)
O4 O 0.7241(3) -0.0022(2) 0.22875(19)
O5 O 0.3972(2) -0.1533(2) 0.5016(2)
O6 O 0.7808(2) -0.1506(2) 0.6843(2)
O7 O 1.2583(3) -0.2814(2) 0.8546(2)
O8 O 0.5274(2) -0.0079(2) 0.3888(2)
O9 O 0.9527(2) -0.3154(2) 0.6016(2)
O10 O 0.8893(3) -0.4977(2) 0.5958(2)
O11 O 0.4934(3) 0.2437(3) 0.2507(3)
H1 H 0.473(5) 0.331(2) 0.197(3)
H2 H 0.419(3) 0.198(4) 0.283(4)
O12 O 0.7333(3) 0.3549(3) 0.3371(3)
H3 H 0.721(6) 0.378(5) 0.401(3)
H4 H 0.749(5) 0.431(3) 0.275(3)
O13 O 0.6623(3) -0.1917(3) 0.2336(2)
O14 O 0.7417(3) -0.1809(3) 0.8632(3)
O15 O 0.8846(3) 0.1054(3) 0.7246(2)
O16 O 1.0113(4) 0.1237(3) 0.8631(2)
H5 H 0.9769 0.2024 0.8345
O17 O 1.1983(3) -0.4056(4) 1.0263(2)
C1 C 0.9751(3) -0.1749(3) 0.8076(3)
C2 C 0.7493(3) -0.1884(3) 0.4080(3)
C3 C 0.7092(3) -0.1235(3) 0.2794(3)
C4 C 0.5082(3) -0.1227(3) 0.4536(3)
C5 C 0.9015(3) -0.3786(3) 0.5489(3)
C6 C 0.8201(3) -0.1671(4) 0.7850(3)
C7 C 0.8569(3) -0.3052(3) 0.4253(3)
H6 H 0.8187 -0.3664 0.3965
H7 H 0.9375 -0.2728 0.3805
C8 C 0.6214(3) -0.2338(3) 0.4756(3)
H8 H 0.5868 -0.303 0.4549
H9 H 0.647 -0.2731 0.5578
C9 C 1.0228(4) -0.3193(3) 0.8819(3)
H10 H 0.9636 -0.35 0.9479
H11 H 1.0132 -0.374 0.8372
C10 C 1.0015(4) -0.0881(3) 0.8718(3)
H12 H 0.9533 -0.1198 0.9442
H13 H 1.1005 -0.1 0.8913
C11 C 1.1704(4) -0.3371(3) 0.9242(3)
C12 C 0.9585(4) 0.0566(4) 0.8105(3)
Th1A Th 0.28211(2) -0.13441(2) 0.66030(2)
Th1A_2 Th 1.28211(2) -0.13441(2) 0.66030(2)
Fe1A Fe 1.07361(4) 0.12589(4) 0.42908(4)
O2A O 0.9589(2) 0.1367(2) 0.29706(18)
O3A O 0.8915(2) 0.0809(2) 0.50478(17)
O5A O 0.6028(2) 0.1533(2) 0.4984(2)
O7A O 0.7417(3) 0.2814(2) 0.1454(2)
N1 N 0.6198(5) -0.0842(7) 1.0050(4)
H14 H 0.6453 -0.1132 1.0799
H15 H 0.6809 -0.1239 0.9715
C13 C 0.6240(5) 0.0556(6) 0.9532(4)
H16 H 0.6031 0.087 0.8705
H17 H 0.7167 0.0773 0.964
C14 C 0.4788(5) -0.1238(6) 0.9943(4)
H18 H 0.4531 -0.0989 0.9131
H19 H 0.4794 -0.2204 1.0334
N1A N 0.3802(5) 0.0842(7) 0.9950(4)
H14A H 0.3547 0.1132 0.9201
H15A H 0.3191 0.1239 1.0285
C13A C 0.3760(5) -0.0556(6) 1.0468(4)
H16A H 0.3969 -0.087 1.1295
H17A H 0.2833 -0.0773 1.036
C14A C 0.5212(5) 0.1238(6) 1.0057(4)
H18A H 0.5469 0.0989 1.0869
H19A H 0.5206 0.2204 0.9666
O18 O 0.9668(4) 0.3718(3) 0.8136(2)
O19 O 0.7603(6) 0.5859(4) 0.1540(6)
O20 O 0.5536(5) 0.5042(5) -0.1162(7)
O21 O 0.6873(9) 0.3969(9) 0.5314(7)
O22 O 0.4803(9) -0.3862(10) 0.2878(10)
loop_
_geom_bond_atom_site_label_1
_geom_bond_atom_site_label_2
_geom_bond_site_symmetry_1
_geom_bond_site_symmetry_2
Th1 O1 1_555 1_555
Fe1 O1 1_555 1_555
O1 C2 1_555 1_555
O2 Fe1 1_555 1_555
O3 Fe1 1_555 1_555
O4 Th1 1_555 1_555
O5 C4 1_555 1_555
O6 Fe1 1_555 1_555
O7 C11 1_555 1_555
O8 Th1 1_555 1_555
O9 Fe1 1_555 1_555
O10 C5 1_555 1_555
O11 Th1 1_555 1_555
H1 O11 1_555 1_555
H2 O11 1_555 1_555
O12 Th1 1_555 1_555
H3 O12 1_555 1_555
H4 O12 1_555 1_555
O13 C3 1_555 1_555
O14 C6 1_555 1_555
O15 C12 1_555 1_555
O16 H5 1_555 1_555
O17 C11 1_555 1_555
C1 O2 1_555 1_555
C2 C3 1_555 1_555
C3 O4 1_555 1_555
C4 O8 1_555 1_555
C5 O9 1_555 1_555
C6 O6 1_555 1_555
C7 C2 1_555 1_555
H6 C7 1_555 1_555
H7 C7 1_555 1_555
C8 C2 1_555 1_555
H8 C8 1_555 1_555
H9 C8 1_555 1_555
C9 C1 1_555 1_555
H10 C9 1_555 1_555
H11 C9 1_555 1_555
C10 C1 1_555 1_555
H12 C10 1_555 1_555
H13 C10 1_555 1_555
C11 C9 1_555 1_555
C12 O16 1_555 1_555
N1 H14 1_555 1_555
H15 N1 1_555 1_555
C13 N1 1_555 1_555
H16 C13 1_555 1_555
H17 C13 1_555 1_555
C14 N1 1_555 1_555
H18 C14 1_555 1_555
H19 C14 1_555 1_555
Th1A O5 1_555 1_555
Th1A_2 O2 1_555 1_555
Fe1A O3 1_555 1_555
O2A Th1 1_555 1_555
O3A Th1 1_555 1_555
O5A Th1 1_555 1_555
O7A Th1 1_555 1_555
N1A H14A 1_555 1_555
H15A N1A 1_555 1_555
C13A C14 1_555 1_555
H16A C13A 1_555 1_555
H17A C13A 1_555 1_555
C14A C13 1_555 1_555
H18A C14A 1_555 1_555
H19A C14A 1_555 1_555
Fe1 O3A 1_555 1_555
O3 Th1A_2 1_555 1_555
O7 Th1A_2 1_555 1_555
C1 C6 1_555 1_555
C4 C8 1_555 1_555
C5 C7 1_555 1_555
C10 C12 1_555 1_555
Fe1A O2A 1_555 1_555
Fe1A O3A 1_555 1_555
N1A C13A 1_555 1_555
N1A C14A 1_555 1_555

#END
