
#######################################################################
#
#                 Cambridge Crystallographic Data Centre
#                                CCDC 
#
#######################################################################
#
# If this CIF has been generated from an entry in the Cambridge 
# Structural Database, then it will include bibliographic, chemical, 
# crystal, experimental, refinement or atomic coordinate data resulting 
# from the CCDC's data processing and validation procedures.
#
#######################################################################

data_JUDHAR
_symmetry_cell_setting           triclinic
_symmetry_space_group_name_H-M   'P -1'
_symmetry_Int_Tables_number      2
_space_group_name_Hall           '-P 1'
loop_
_symmetry_equiv_pos_site_id
_symmetry_equiv_pos_as_xyz
1 x,y,z
2 -x,-y,-z
_cell_length_a                   10.7592(3)
_cell_length_b                   11.1192(3)
_cell_length_c                   12.6225(3)
_cell_angle_alpha                75.091(1)
_cell_angle_beta                 71.181(1)
_cell_angle_gamma                69.131(1)
_cell_volume                     1318.16
loop_
_atom_site_label
_atom_site_type_symbol
_atom_site_fract_x
_atom_site_fract_y
_atom_site_fract_z
Mo1 Mo 0.2019(1) 0.0685(1) -0.0677(1)
Mo2 Mo -0.5475(1) -0.1664(1) 0.6571(1)
Mo3 Mo -0.0628(1) -0.1461(1) 0.3345(1)
Fe1 Fe -0.3765(1) -0.1569(1) 0.3584(1)
Fe2 Fe -0.1219(1) 0.1526(1) 0.1440(1)
O1 O 0.3132(8) 0.0724(6) 0.0018(6)
O2 O 0.0331(7) 0.1501(6) 0.0062(5)
O3 O -0.2370(6) -0.1615(5) 0.2068(4)
O4 O -0.2260(6) 0.1007(5) 0.0684(5)
O5 O -0.7172(6) -0.1777(6) 0.7198(5)
O6 O -0.5115(6) -0.1616(6) 0.5090(5)
O7 O -0.5657(7) 0.3050(6) 0.2898(6)
O8 O -0.4734(6) 0.0274(5) 0.3118(5)
O9 O -0.2417(6) -0.1326(6) 0.4149(4)
O10 O 0.0175(7) -0.1276(7) 0.4231(6)
O11 O 0.0190(6) -0.3012(6) 0.3014(6)
O12 O -0.0397(6) -0.0225(6) 0.2085(5)
N1 N -0.3110(6) -0.3655(6) 0.4017(5)
N2 N -0.4960(7) -0.2206(7) 0.2878(5)
N3 N -0.0262(7) 0.2477(7) 0.2111(6)
N4 N -0.2011(7) 0.3581(6) 0.0833(5)
C1 C -0.2203(9) -0.4323(9) 0.4639(7)
C2 C -0.1874(9) -0.5660(8) 0.4970(7)
C3 C -0.2476(10) -0.6355(9) 0.4631(8)
C4 C -0.3418(9) -0.5661(8) 0.3991(7)
C5 C -0.3721(8) -0.4309(8) 0.3692(7)
C6 C -0.4774(8) -0.3509(8) 0.3066(7)
C7 C -0.5549(9) -0.4000(8) 0.2708(7)
C8 C -0.6550(9) -0.3165(10) 0.2177(7)
C9 C -0.6732(10) -0.1837(10) 0.1972(8)
C10 C -0.5906(10) -0.1397(9) 0.2337(7)
C11 C 0.0643(9) 0.1823(9) 0.2751(7)
C12 C 0.1340(9) 0.2439(10) 0.3097(8)
C13 C 0.1040(10) 0.3787(10) 0.2793(8)
C14 C 0.0085(10) 0.4460(10) 0.2150(7)
C15 C -0.0539(9) 0.3790(9) 0.1816(7)
C16 C -0.1570(8) 0.4409(7) 0.1125(6)
C17 C -0.2004(10) 0.5738(8) 0.0773(7)
C18 C -0.2926(10) 0.6229(9) 0.0091(8)
C19 C -0.3385(9) 0.5385(9) -0.0203(8)
C20 C -0.2907(9) 0.4069(8) 0.0181(7)
H1 H -0.1776(9) -0.3866(9) 0.4858(7)
H2 H -0.1254(9) -0.6087(8) 0.5415(7)
H3 H -0.2258(10) -0.7257(9) 0.4826(8)
H4 H -0.3851(9) -0.6101(8) 0.3760(7)
H5 H -0.5397(9) -0.4896(8) 0.2824(7)
H6 H -0.7099(9) -0.3492(10) 0.1960(7)
H7 H -0.7386(10) -0.1256(10) 0.1602(8)
H8 H -0.6014(10) -0.0508(9) 0.2201(7)
H9 H 0.0808(9) 0.0927(9) 0.2971(7)
H10 H 0.1981(9) 0.1966(10) 0.3516(8)
H11 H 0.1472(10) 0.4236(10) 0.3016(8)
H12 H -0.0128(10) 0.5362(10) 0.1948(7)
H13 H -0.1689(10) 0.6295(8) 0.0985(7)
H14 H -0.3227(10) 0.7121(9) -0.0164(8)
H15 H -0.4005(9) 0.5695(9) -0.0652(8)
H16 H -0.3216(9) 0.3496(8) -0.0017(7)
O4A O 0.2260(6) -0.1007(5) -0.0684(5)
Mo1A Mo -0.2019(1) -0.0685(1) 0.0677(1)
Fe2A Fe -0.8781(1) -0.1526(1) 0.8560(1)
O2A O -1.0331(7) -0.1501(6) 0.9938(5)
Mo1A_2 Mo -1.2019(1) -0.0685(1) 1.0677(1)
O2_2 O -0.9669(7) 0.1501(6) 1.0062(5)
Mo1_2 Mo -0.7981(1) 0.0685(1) 0.9323(1)
O1_2 O -0.6868(8) 0.0724(6) 1.0018(6)
O3A O -0.7630(6) 0.1615(5) 0.7932(4)
Fe1A Fe -0.6235(1) 0.1569(1) 0.6416(1)
O6A O -0.4885(6) 0.1616(6) 0.4910(5)
Mo2A Mo -0.4525(1) 0.1664(1) 0.3429(1)
O5A O -0.2828(6) 0.1777(6) 0.2802(5)
O8A O -0.5266(6) -0.0274(5) 0.6882(5)
O7A O -0.4343(7) -0.3050(6) 0.7102(6)
O9A O -0.7583(6) 0.1326(6) 0.5851(4)
Mo3A Mo -0.9372(1) 0.1461(1) 0.6655(1)
O10A O -1.0175(7) 0.1276(7) 0.5769(6)
O11A O -1.0190(6) 0.3012(6) 0.6986(6)
O12A O -0.9603(6) 0.0225(6) 0.7915(5)
O4A_2 O -0.7740(6) -0.1007(5) 0.9316(5)
N3A N -0.9738(7) -0.2477(7) 0.7889(6)
C11A C -1.0643(9) -0.1823(9) 0.7249(7)
C12A C -1.1340(9) -0.2439(10) 0.6903(8)
C13A C -1.1040(10) -0.3787(10) 0.7207(8)
C14A C -1.0085(10) -0.4460(10) 0.7850(7)
C15A C -0.9461(9) -0.3790(9) 0.8184(7)
C16A C -0.8430(8) -0.4409(7) 0.8875(6)
N4A N -0.7989(7) -0.3581(6) 0.9167(5)
C20A C -0.7093(9) -0.4069(8) 0.9819(7)
C19A C -0.6615(9) -0.5385(9) 1.0203(8)
C18A C -0.7074(10) -0.6229(9) 0.9909(8)
C17A C -0.7996(10) -0.5738(8) 0.9227(7)
H13A H -0.8311(10) -0.6295(8) 0.9015(7)
H14A H -0.6773(10) -0.7121(9) 1.0164(8)
H15A H -0.5995(9) -0.5695(9) 1.0652(8)
H16A H -0.6784(9) -0.3496(8) 1.0017(7)
H12A H -0.9872(10) -0.5362(10) 0.8052(7)
H11A H -1.1472(10) -0.4236(10) 0.6984(8)
H10A H -1.1981(9) -0.1966(10) 0.6484(8)
H9A H -1.0808(9) -0.0927(9) 0.7029(7)
N1A N -0.6890(6) 0.3655(6) 0.5983(5)
C1A C -0.7797(9) 0.4323(9) 0.5361(7)
C2A C -0.8126(9) 0.5660(8) 0.5030(7)
C3A C -0.7524(10) 0.6355(9) 0.5369(8)
C4A C -0.6582(9) 0.5661(8) 0.6009(7)
C5A C -0.6279(8) 0.4309(8) 0.6308(7)
C6A C -0.5226(8) 0.3509(8) 0.6934(7)
N2A N -0.5040(7) 0.2206(7) 0.7122(5)
C10A C -0.4094(10) 0.1397(9) 0.7663(7)
C9A C -0.3268(10) 0.1837(10) 0.8028(8)
C8A C -0.3450(9) 0.3165(10) 0.7823(7)
C7A C -0.4451(9) 0.4000(8) 0.7292(7)
H5A H -0.4603(9) 0.4896(8) 0.7176(7)
H6A H -0.2901(9) 0.3492(10) 0.8040(7)
H7A H -0.2614(10) 0.1256(10) 0.8398(8)
H8A H -0.3986(10) 0.0508(9) 0.7799(7)
H4A H -0.6149(9) 0.6101(8) 0.6240(7)
H3A H -0.7742(10) 0.7257(9) 0.5174(8)
H2A H -0.8746(9) 0.6087(8) 0.4585(7)
H1A H -0.8224(9) 0.3866(9) 0.5142(7)
O3A_2 O 0.2370(6) 0.1615(5) -0.2068(4)
O13 O 0.2321(28) -0.0462(27) 0.4378(23)
loop_
_geom_bond_atom_site_label_1
_geom_bond_atom_site_label_2
_geom_bond_site_symmetry_1
_geom_bond_site_symmetry_2
Mo1 O1 1_555 1_555
Mo2 O5 1_555 1_555
Mo3 O9 1_555 1_555
Fe1 O3 1_555 1_555
Fe2 O2 1_555 1_555
O2 Mo1 1_555 1_555
O3 Mo1A 1_555 1_555
O4 Fe2 1_555 1_555
O5 Fe2A 1_555 1_555
O6 Mo2 1_555 1_555
O7 Mo2A 1_555 1_555
O8 Fe1 1_555 1_555
O9 Fe1 1_555 1_555
O10 Mo3 1_555 1_555
O11 Mo3 1_555 1_555
O12 Mo3 1_555 1_555
N1 Fe1 1_555 1_555
N2 Fe1 1_555 1_555
N3 Fe2 1_555 1_555
N4 Fe2 1_555 1_555
C1 N1 1_555 1_555
C2 C1 1_555 1_555
C3 C2 1_555 1_555
C4 C3 1_555 1_555
C5 N1 1_555 1_555
C6 N2 1_555 1_555
C7 C6 1_555 1_555
C8 C7 1_555 1_555
C9 C8 1_555 1_555
C10 N2 1_555 1_555
C11 N3 1_555 1_555
C12 C11 1_555 1_555
C13 C12 1_555 1_555
C14 C13 1_555 1_555
C15 N3 1_555 1_555
C16 N4 1_555 1_555
C17 C16 1_555 1_555
C18 C17 1_555 1_555
C19 C18 1_555 1_555
C20 N4 1_555 1_555
H1 C1 1_555 1_555
H2 C2 1_555 1_555
H3 C3 1_555 1_555
H4 C4 1_555 1_555
H5 C7 1_555 1_555
H6 C8 1_555 1_555
H7 C9 1_555 1_555
H8 C10 1_555 1_555
H9 C11 1_555 1_555
H10 C12 1_555 1_555
H11 C13 1_555 1_555
H12 C14 1_555 1_555
H13 C17 1_555 1_555
H14 C18 1_555 1_555
H15 C19 1_555 1_555
H16 C20 1_555 1_555
O4A Mo1 1_555 1_555
Mo1A O4 1_555 1_555
Fe2A O2A 1_555 1_555
O2A Mo1A_2 1_555 1_555
O2_2 Mo1_2 1_555 1_555
Mo1_2 O1_2 1_555 1_555
O3A Mo1_2 1_555 1_555
Fe1A O3A 1_555 1_555
O6A Fe1A 1_555 1_555
Mo2A O8 1_555 1_555
O5A Fe2 1_555 1_555
O8A Mo2 1_555 1_555
O7A Mo2 1_555 1_555
O9A Fe1A 1_555 1_555
Mo3A O9A 1_555 1_555
O10A Mo3A 1_555 1_555
O11A Mo3A 1_555 1_555
O12A Fe2A 1_555 1_555
O4A_2 Fe2A 1_555 1_555
N3A Fe2A 1_555 1_555
C11A N3A 1_555 1_555
C12A C11A 1_555 1_555
C13A C12A 1_555 1_555
C14A C13A 1_555 1_555
C15A N3A 1_555 1_555
C16A C15A 1_555 1_555
N4A Fe2A 1_555 1_555
C20A N4A 1_555 1_555
C19A C20A 1_555 1_555
C18A C19A 1_555 1_555
C17A C16A 1_555 1_555
H13A C17A 1_555 1_555
H14A C18A 1_555 1_555
H15A C19A 1_555 1_555
H16A C20A 1_555 1_555
H12A C14A 1_555 1_555
H11A C13A 1_555 1_555
H10A C12A 1_555 1_555
H9A C11A 1_555 1_555
N1A Fe1A 1_555 1_555
C1A N1A 1_555 1_555
C2A C1A 1_555 1_555
C3A C2A 1_555 1_555
C4A C3A 1_555 1_555
C5A N1A 1_555 1_555
C6A C5A 1_555 1_555
N2A Fe1A 1_555 1_555
C10A N2A 1_555 1_555
C9A C10A 1_555 1_555
C8A C9A 1_555 1_555
C7A C6A 1_555 1_555
H5A C7A 1_555 1_555
H6A C8A 1_555 1_555
H7A C9A 1_555 1_555
H8A C10A 1_555 1_555
H4A C4A 1_555 1_555
H3A C3A 1_555 1_555
H2A C2A 1_555 1_555
H1A C1A 1_555 1_555
O3A_2 Mo1 1_555 1_555
Fe1 O6 1_555 1_555
Fe2 O12 1_555 1_555
C4 C5 1_555 1_555
C5 C6 1_555 1_555
C9 C10 1_555 1_555
C14 C15 1_555 1_555
C15 C16 1_555 1_555
C19 C20 1_555 1_555
Mo1_2 O4A_2 1_555 1_555
Fe1A O8A 1_555 1_555
O6A Mo2A 1_555 1_555
Mo2A O5A 1_555 1_555
Mo3A O12A 1_555 1_555
C14A C15A 1_555 1_555
C16A N4A 1_555 1_555
C18A C17A 1_555 1_555
C4A C5A 1_555 1_555
C6A N2A 1_555 1_555
C8A C7A 1_555 1_555

#END
