
#######################################################################
#
#                 Cambridge Crystallographic Data Centre
#                                CCDC 
#
#######################################################################
#
# If this CIF has been generated from an entry in the Cambridge 
# Structural Database, then it will include bibliographic, chemical, 
# crystal, experimental, refinement or atomic coordinate data resulting 
# from the CCDC's data processing and validation procedures.
#
#######################################################################

data_JUDKIC
_symmetry_cell_setting           monoclinic
_symmetry_space_group_name_H-M   'C 2/c'
_symmetry_Int_Tables_number      15
_space_group_name_Hall           '-C 2yn'
loop_
_symmetry_equiv_pos_site_id
_symmetry_equiv_pos_as_xyz
1 x,y,z
2 1/2+x,1/2+y,z
3 -x,y,1/2-z
4 1/2-x,1/2+y,1/2-z
5 -x,-y,-z
6 1/2-x,1/2-y,-z
7 x,-y,1/2+z
8 1/2+x,1/2-y,1/2+z
_cell_length_a                   12.447(2)
_cell_length_b                   16.103(2)
_cell_length_c                   9.889(2)
_cell_angle_alpha                90
_cell_angle_beta                 111.51(1)
_cell_angle_gamma                90
_cell_volume                     1844.05
loop_
_atom_site_label
_atom_site_type_symbol
_atom_site_fract_x
_atom_site_fract_y
_atom_site_fract_z
Cu1 Cu 0.3194(1) 0.29281(7) 0.1274(1)
Cl1 Cl 0.3160(2) 0.3174(1) -0.1064(2)
S1 S 0.5000 0.2326(1) 0.2500
S2 S 0.2569(3) 0.4018(1) 0.2264(3)
C1 C 0.4810(8) 0.1552(6) 0.3735(8)
C2 C 0.515(1) 0.0734(6) 0.3261(9)
C3 C 0.3765(9) 0.4343(9) 0.352(1)
C4 C 0.372(1) 0.415(1) 0.501(1)
C5 C 0.285(2) 0.369(1) 0.487(1)
C6 C 0.197(1) 0.3610(8) 0.353(1)
H1 H 0.402(1) 0.154(1) 0.366(1)
H2 H 0.530(1) 0.168(1) 0.472(1)
H3 H 0.476(1) 0.029(1) 0.353(1)
H4 H 0.597(1) 0.066(1) 0.372(1)
H5 H 0.384(1) 0.493(1) 0.342(1)
H6 H 0.441(1) 0.406(1) 0.341(1)
H7 H 0.366(1) 0.466(1) 0.548(1)
H8 H 0.441(1) 0.386(1) 0.559(1)
H9 H 0.314(2) 0.315(1) 0.517(1)
H10 H 0.250(2) 0.391(1) 0.552(1)
H11 H 0.175(1) 0.304(1) 0.333(1)
H12 H 0.130(1) 0.392(1) 0.350(1)
Cu1E Cu 0.1806(1) 0.20719(7) -0.1274(1)
Cl1E Cl 0.1840(2) 0.1826(1) 0.1064(2)
Cu1B Cu 0.6806(1) 0.29281(7) 0.3726(1)
C1B C 0.5190(8) 0.1552(6) 0.1265(8)
C2B C 0.485(1) 0.0734(6) 0.1739(9)
S1E S 0.0000 0.2674(1) -0.2500
S2E S 0.2431(3) 0.0982(1) -0.2264(3)
H1B H 0.598(1) 0.154(1) 0.134(1)
H2B H 0.470(1) 0.168(1) 0.028(1)
H3B H 0.524(1) 0.029(1) 0.147(1)
H4B H 0.403(1) 0.066(1) 0.128(1)
C3E C 0.1235(9) 0.0657(9) -0.352(1)
C6E C 0.303(1) 0.1390(8) -0.353(1)
C4E C 0.128(1) 0.085(1) -0.501(1)
H5E H 0.116(1) 0.007(1) -0.342(1)
H6E H 0.059(1) 0.094(1) -0.341(1)
C5E C 0.215(2) 0.131(1) -0.487(1)
H11E H 0.325(1) 0.196(1) -0.333(1)
H12E H 0.370(1) 0.108(1) -0.350(1)
H7E H 0.134(1) 0.034(1) -0.548(1)
H8E H 0.059(1) 0.114(1) -0.559(1)
H9E H 0.186(2) 0.185(1) -0.517(1)
H10E H 0.250(2) 0.109(1) -0.552(1)
loop_
_geom_bond_atom_site_label_1
_geom_bond_atom_site_label_2
_geom_bond_site_symmetry_1
_geom_bond_site_symmetry_2
Cu1 Cl1 1_555 1_555
Cl1 Cu1E 1_555 1_555
S1 Cu1 1_555 1_555
S2 Cu1 1_555 1_555
C1 S1 1_555 1_555
C2 C1 1_555 1_555
C3 S2 1_555 1_555
C4 C3 1_555 1_555
C5 C4 1_555 1_555
C6 S2 1_555 1_555
H1 C1 1_555 1_555
H2 C1 1_555 1_555
H3 C2 1_555 1_555
H4 C2 1_555 1_555
H5 C3 1_555 1_555
H6 C3 1_555 1_555
H7 C4 1_555 1_555
H8 C4 1_555 1_555
H9 C5 1_555 1_555
H10 C5 1_555 1_555
H11 C6 1_555 1_555
H12 C6 1_555 1_555
Cu1E Cu1 1_555 1_555
Cl1E Cu1 1_555 1_555
Cu1B S1 1_555 1_555
C1B S1 1_555 1_555
C2B C2 1_555 1_555
S1E Cu1E 1_555 1_555
S2E Cu1E 1_555 1_555
H1B C1B 1_555 1_555
H2B C1B 1_555 1_555
H3B C2B 1_555 1_555
H4B C2B 1_555 1_555
C3E S2E 1_555 1_555
C6E S2E 1_555 1_555
C4E C3E 1_555 1_555
H5E C3E 1_555 1_555
H6E C3E 1_555 1_555
C5E C6E 1_555 1_555
H11E C6E 1_555 1_555
H12E C6E 1_555 1_555
H7E C4E 1_555 1_555
H8E C4E 1_555 1_555
H9E C5E 1_555 1_555
H10E C5E 1_555 1_555
C5 C6 1_555 1_555
Cu1E Cl1E 1_555 1_555
C1B C2B 1_555 1_555
C4E C5E 1_555 1_555

#END
