
#######################################################################
#
#                 Cambridge Crystallographic Data Centre
#                                CCDC 
#
#######################################################################
#
# If this CIF has been generated from an entry in the Cambridge 
# Structural Database, then it will include bibliographic, chemical, 
# crystal, experimental, refinement or atomic coordinate data resulting 
# from the CCDC's data processing and validation procedures.
#
#######################################################################

data_JUDKOI
_symmetry_cell_setting           monoclinic
_symmetry_space_group_name_H-M   'C 2/c'
_symmetry_Int_Tables_number      15
_space_group_name_Hall           '-C 2yn'
loop_
_symmetry_equiv_pos_site_id
_symmetry_equiv_pos_as_xyz
1 x,y,z
2 1/2+x,1/2+y,z
3 -x,y,1/2-z
4 1/2-x,1/2+y,1/2-z
5 -x,-y,-z
6 1/2-x,1/2-y,-z
7 x,-y,1/2+z
8 1/2+x,1/2-y,1/2+z
_cell_length_a                   11.596(2)
_cell_length_b                   16.387(3)
_cell_length_c                   10.151(2)
_cell_angle_alpha                90
_cell_angle_beta                 109.44(2)
_cell_angle_gamma                90
_cell_volume                     1818.96
loop_
_atom_site_label
_atom_site_type_symbol
_atom_site_fract_x
_atom_site_fract_y
_atom_site_fract_z
Cu1 Cu 0.18708(2) 0.21213(1) 0.37411(2)
Br1 Br 0.34215(2) 0.32321(1) 0.40199(2)
S1 S 0.00000 0.27233(4) 0.25000
S2 S 0.2630(1) 0.10395(3) 0.2868(1)
C1 C 0.0275(2) 0.34830(1) 0.1316(2)
C2 C -0.0171(2) 0.42935(1) 0.1711(2)
C3 C 0.1317(2) 0.05177(1) 0.1606(2)
C4 C 0.1465(2) 0.06288(1) 0.0185(2)
C5 C 0.2068(2) 0.14539(1) 0.0201(2)
C6 C 0.3175(2) 0.14698(1) 0.1515(2)
H1 H 0.117(2) 0.354(1) 0.152(2)
H2 H -0.014(2) 0.331(1) 0.039(2)
H3 H 0.018(2) 0.476(1) 0.139(2)
H4 H -0.099(2) 0.432(1) 0.133(2)
H5 H 0.141(2) -0.006(1) 0.189(2)
H6 H 0.057(2) 0.076(1) 0.165(2)
H7 H 0.200(2) 0.021(1) 0.003(2)
H8 H 0.068(2) 0.060(1) -0.058(2)
H9 H 0.223(2) 0.156(1) -0.070(3)
H10 H 0.146(2) 0.190(1) 0.027(2)
H11 H 0.383(1) 0.111(1) 0.142(2)
H12 H 0.352(2) 0.198(1) 0.187(2)
Cu1E Cu 0.31292(2) 0.28787(1) 0.62589(2)
Br1E Br 0.15785(2) 0.17679(1) 0.59801(2)
Cu1B Cu -0.18708(2) 0.21213(1) 0.12589(2)
C1B C -0.0275(2) 0.34830(1) 0.3684(2)
C2B C 0.0171(2) 0.42935(1) 0.3289(2)
S1E S 0.50000 0.22767(4) 0.75000
S2E S 0.2370(1) 0.39605(3) 0.7132(1)
H1B H -0.117(2) 0.354(1) 0.348(2)
H2B H 0.014(2) 0.331(1) 0.461(2)
H3B H -0.018(2) 0.476(1) 0.361(2)
H4B H 0.099(2) 0.432(1) 0.367(2)
C3E C 0.3683(2) 0.44823(1) 0.8394(2)
C6E C 0.1825(2) 0.35302(1) 0.8485(2)
C4E C 0.3535(2) 0.43712(1) 0.9815(2)
H5E H 0.359(2) 0.506(1) 0.811(2)
H6E H 0.443(2) 0.424(1) 0.835(2)
C5E C 0.2932(2) 0.35461(1) 0.9799(2)
H11E H 0.117(1) 0.389(1) 0.858(2)
H12E H 0.148(2) 0.302(1) 0.813(2)
H7E H 0.300(2) 0.479(1) 0.997(2)
H8E H 0.432(2) 0.440(1) 1.058(2)
H9E H 0.277(2) 0.344(1) 1.070(3)
H10E H 0.354(2) 0.310(1) 0.973(2)
loop_
_geom_bond_atom_site_label_1
_geom_bond_atom_site_label_2
_geom_bond_site_symmetry_1
_geom_bond_site_symmetry_2
Cu1 Br1 1_555 1_555
Br1 Cu1E 1_555 1_555
S1 Cu1 1_555 1_555
S2 Cu1 1_555 1_555
C1 S1 1_555 1_555
C2 C1 1_555 1_555
C3 S2 1_555 1_555
C4 C3 1_555 1_555
C5 C4 1_555 1_555
C6 S2 1_555 1_555
H1 C1 1_555 1_555
H2 C1 1_555 1_555
H3 C2 1_555 1_555
H4 C2 1_555 1_555
H5 C3 1_555 1_555
H6 C3 1_555 1_555
H7 C4 1_555 1_555
H8 C4 1_555 1_555
H9 C5 1_555 1_555
H10 C5 1_555 1_555
H11 C6 1_555 1_555
H12 C6 1_555 1_555
Cu1E Cu1 1_555 1_555
Br1E Cu1 1_555 1_555
Cu1B S1 1_555 1_555
C1B S1 1_555 1_555
C2B C2 1_555 1_555
S1E Cu1E 1_555 1_555
S2E Cu1E 1_555 1_555
H1B C1B 1_555 1_555
H2B C1B 1_555 1_555
H3B C2B 1_555 1_555
H4B C2B 1_555 1_555
C3E S2E 1_555 1_555
C6E S2E 1_555 1_555
C4E C3E 1_555 1_555
H5E C3E 1_555 1_555
H6E C3E 1_555 1_555
C5E C6E 1_555 1_555
H11E C6E 1_555 1_555
H12E C6E 1_555 1_555
H7E C4E 1_555 1_555
H8E C4E 1_555 1_555
H9E C5E 1_555 1_555
H10E C5E 1_555 1_555
C5 C6 1_555 1_555
Cu1E Br1E 1_555 1_555
C1B C2B 1_555 1_555
C4E C5E 1_555 1_555

#END
