
#######################################################################
#
#                 Cambridge Crystallographic Data Centre
#                                CCDC 
#
#######################################################################
#
# If this CIF has been generated from an entry in the Cambridge 
# Structural Database, then it will include bibliographic, chemical, 
# crystal, experimental, refinement or atomic coordinate data resulting 
# from the CCDC's data processing and validation procedures.
#
#######################################################################

data_JUDMAW
_symmetry_cell_setting           triclinic
_symmetry_space_group_name_H-M   'P -1'
_symmetry_Int_Tables_number      2
_space_group_name_Hall           '-P 1'
loop_
_symmetry_equiv_pos_site_id
_symmetry_equiv_pos_as_xyz
1 x,y,z
2 -x,-y,-z
_cell_length_a                   10.9239(2)
_cell_length_b                   11.0210(3)
_cell_length_c                   13.5564(3)
_cell_angle_alpha                88.30
_cell_angle_beta                 88.4970(10)
_cell_angle_gamma                65.2930(10)
_cell_volume                     1481.86
loop_
_atom_site_label
_atom_site_type_symbol
_atom_site_fract_x
_atom_site_fract_y
_atom_site_fract_z
Mo1 Mo -0.0480(1) -0.0854(1) 0.1377(1)
Mo2 Mo 0.0478(1) 0.1335(1) 0.3705(1)
Mo3 Mo 0.2009(1) -0.3010(1) 0.3674(1)
Mo4 Mo 0.3591(1) -0.2192(1) 0.1565(1)
Fe1 Fe 0.1251(1) 0.1116(1) 0.1061(1)
Fe2 Fe -0.1511(1) -0.0422(1) 0.3903(1)
O1 O -0.0342(4) 0.0663(4) 0.1027(3)
O2 O 0.1100(5) -0.2061(4) 0.1703(3)
O3 O 0.1127(5) 0.1444(4) -0.0400(3)
O4 O -0.1573(4) -0.0578(4) 0.2415(3)
O5 O -0.1069(4) 0.1128(4) 0.3715(3)
O6 O 0.0126(5) 0.2972(4) 0.3875(3)
O7 O -0.1618(4) -0.0318(4) 0.5367(3)
O8 O 0.1314(4) 0.0857(4) 0.2535(3)
O9 O 0.0341(4) -0.1737(4) 0.3952(3)
O10 O 0.1874(5) -0.4356(4) 0.3187(4)
O11 O 0.2846(5) -0.3546(5) 0.4759(3)
O12 O 0.3164(5) -0.2446(5) 0.2906(3)
O13 O 0.3895(6) -0.3559(5) 0.0874(4)
O14 O 0.5127(5) -0.2131(6) 0.1686(4)
O15 O 0.2618(4) -0.0666(4) 0.0885(3)
N1 N -0.0021(5) 0.3200(5) 0.1231(4)
N2 N 0.2627(5) 0.2030(5) 0.1100(4)
N3 N -0.3615(5) 0.0816(5) 0.3798(4)
N4 N -0.2409(5) -0.1831(5) 0.3972(4)
C1 C -0.1379(7) 0.3721(7) 0.1274(5)
C2 C -0.2162(7) 0.5081(7) 0.1393(5)
C3 C -0.1529(8) 0.5918(7) 0.1468(6)
C4 C -0.0129(7) 0.5391(6) 0.1418(5)
C5 C 0.0602(6) 0.4029(6) 0.1286(4)
C6 C 0.2089(6) 0.3376(6) 0.1178(4)
C7 C 0.2909(7) 0.4075(7) 0.1134(5)
C8 C 0.4290(7) 0.3366(7) 0.1011(5)
C9 C 0.4842(7) 0.1976(7) 0.0947(5)
C10 C 0.3978(7) 0.1343(7) 0.1003(5)
C11 C -0.4137(6) 0.2163(6) 0.3706(4)
C12 C -0.5495(7) 0.2916(7) 0.3569(5)
C13 C -0.6352(6) 0.2280(7) 0.3511(5)
C14 C -0.5824(6) 0.0901(7) 0.3611(5)
C15 C -0.4444(6) 0.0188(6) 0.3759(4)
C16 C -0.3773(6) -0.1300(6) 0.3895(4)
C17 C -0.4470(6) -0.2107(7) 0.3942(5)
C18 C -0.3746(7) -0.3484(7) 0.4064(5)
C19 C -0.2353(7) -0.4026(7) 0.4119(5)
C20 C -0.1718(6) -0.3162(6) 0.4077(5)
H1 H -0.1808(7) 0.3153(7) 0.1223(5)
H2 H -0.3097(7) 0.5415(7) 0.1422(5)
H3 H -0.2031(8) 0.6829(7) 0.1550(6)
H4 H 0.0313(7) 0.5946(6) 0.1473(5)
H5 H 0.2532(7) 0.5000(7) 0.1188(5)
H6 H 0.4847(7) 0.3815(7) 0.0970(5)
H7 H 0.5767(7) 0.1486(7) 0.0868(5)
H8 H 0.4339(7) 0.0416(7) 0.0973(5)
H9 H -0.3565(6) 0.2592(6) 0.3736(4)
H10 H -0.5835(7) 0.3842(7) 0.3517(5)
H11 H -0.7268(6) 0.2774(7) 0.3405(5)
H12 H -0.6382(6) 0.0457(7) 0.3580(5)
H13 H -0.5403(6) -0.1735(7) 0.3892(5)
H14 H -0.4196(7) -0.4038(7) 0.4108(5)
H15 H -0.1855(7) -0.4944(7) 0.4182(5)
H16 H -0.0785(6) -0.3517(6) 0.4123(5)
O7A O 0.1618(4) 0.0318(4) 0.4633(3)
O3A O -0.1127(5) -0.1444(4) 0.0400(3)
Mo2A Mo -0.0478(1) -0.1335(1) 0.6295(1)
Fe2A Fe 0.1511(1) 0.0422(1) 0.6097(1)
Mo1A Mo 0.0480(1) 0.0854(1) -0.1377(1)
O5A O 0.1069(4) -0.1128(4) 0.6285(3)
O6A O -0.0126(5) -0.2972(4) 0.6125(3)
O8A O -0.1314(4) -0.0857(4) 0.7465(3)
O4A O 0.1573(4) 0.0578(4) 0.7585(3)
O9A O -0.0341(4) 0.1737(4) 0.6048(3)
N3A N 0.3615(5) -0.0816(5) 0.6202(4)
N4A N 0.2409(5) 0.1831(5) 0.6028(4)
Fe1A Fe -0.1251(1) -0.1116(1) 0.8939(1)
Mo1A_2 Mo 0.0480(1) 0.0854(1) 0.8623(1)
Mo3A Mo -0.2009(1) 0.3010(1) 0.6326(1)
C11A C 0.4137(6) -0.2163(6) 0.6294(4)
C15A C 0.4444(6) -0.0188(6) 0.6241(4)
C16A C 0.3773(6) 0.1300(6) 0.6105(4)
C20A C 0.1718(6) 0.3162(6) 0.5923(5)
O1A O 0.0342(4) -0.0663(4) 0.8973(3)
O3A_2 O -0.1127(5) -0.1444(4) 1.0400(3)
O15A O -0.2618(4) 0.0666(4) 0.9115(3)
N1A N 0.0021(5) -0.3200(5) 0.8769(4)
N2A N -0.2627(5) -0.2030(5) 0.8900(4)
O10A O -0.1874(5) 0.4356(4) 0.6813(4)
O11A O -0.2846(5) 0.3546(5) 0.5241(3)
O12A O -0.3164(5) 0.2446(5) 0.7094(3)
C12A C 0.5495(7) -0.2916(7) 0.6431(5)
H9A H 0.3565(6) -0.2592(6) 0.6264(4)
C14A C 0.5824(6) -0.0901(7) 0.6389(5)
C17A C 0.4470(6) 0.2107(7) 0.6058(5)
C19A C 0.2353(7) 0.4026(7) 0.5881(5)
H16A H 0.0785(6) 0.3517(6) 0.5877(5)
Mo1_2 Mo -0.0480(1) -0.0854(1) 1.1377(1)
Mo4A Mo -0.3591(1) 0.2192(1) 0.8435(1)
C1A C 0.1379(7) -0.3721(7) 0.8726(5)
C5A C -0.0602(6) -0.4029(6) 0.8714(4)
C6A C -0.2089(6) -0.3376(6) 0.8822(4)
C10A C -0.3978(7) -0.1343(7) 0.8997(5)
C13A C 0.6352(6) -0.2280(7) 0.6489(5)
H10A H 0.5835(7) -0.3842(7) 0.6483(5)
H12A H 0.6382(6) -0.0457(7) 0.6420(5)
C18A C 0.3746(7) 0.3484(7) 0.5936(5)
H13A H 0.5403(6) 0.1735(7) 0.6108(5)
H15A H 0.1855(7) 0.4944(7) 0.5818(5)
O1_2 O -0.0342(4) 0.0663(4) 1.1027(3)
O2_2 O 0.1100(5) -0.2061(4) 1.1703(3)
O4_2 O -0.1573(4) -0.0578(4) 1.2415(3)
O13A O -0.3895(6) 0.3559(5) 0.9126(4)
O14A O -0.5127(5) 0.2131(6) 0.8314(4)
C2A C 0.2162(7) -0.5081(7) 0.8607(5)
H1A H 0.1808(7) -0.3153(7) 0.8777(5)
C4A C 0.0129(7) -0.5391(6) 0.8582(5)
C7A C -0.2909(7) -0.4075(7) 0.8866(5)
C9A C -0.4842(7) -0.1976(7) 0.9053(5)
H8A H -0.4339(7) -0.0416(7) 0.9027(5)
H11A H 0.7268(6) -0.2774(7) 0.6595(5)
H14A H 0.4196(7) 0.4038(7) 0.5892(5)
C3A C 0.1529(8) -0.5918(7) 0.8532(6)
H2A H 0.3097(7) -0.5415(7) 0.8578(5)
H4A H -0.0313(7) -0.5946(6) 0.8527(5)
C8A C -0.4290(7) -0.3366(7) 0.8989(5)
H5A H -0.2532(7) -0.5000(7) 0.8812(5)
H7A H -0.5767(7) -0.1486(7) 0.9132(5)
H3A H 0.2031(8) -0.6829(7) 0.8450(6)
H6A H -0.4847(7) -0.3815(7) 0.9030(5)
loop_
_geom_bond_atom_site_label_1
_geom_bond_atom_site_label_2
_geom_bond_site_symmetry_1
_geom_bond_site_symmetry_2
Mo1 O1 1_555 1_555
Mo2 O5 1_555 1_555
Mo3 O9 1_555 1_555
Mo4 O12 1_555 1_555
Fe1 O1 1_555 1_555
Fe2 O4 1_555 1_555
O2 Mo1 1_555 1_555
O3 Fe1 1_555 1_555
O4 Mo1 1_555 1_555
O5 Fe2 1_555 1_555
O6 Mo2 1_555 1_555
O7 Fe2 1_555 1_555
O8 Mo2 1_555 1_555
O9 Fe2 1_555 1_555
O10 Mo3 1_555 1_555
O11 Mo3 1_555 1_555
O12 Mo3 1_555 1_555
O13 Mo4 1_555 1_555
O14 Mo4 1_555 1_555
O15 Mo4 1_555 1_555
N1 Fe1 1_555 1_555
N2 Fe1 1_555 1_555
N3 Fe2 1_555 1_555
N4 Fe2 1_555 1_555
C1 N1 1_555 1_555
C2 C1 1_555 1_555
C3 C2 1_555 1_555
C4 C3 1_555 1_555
C5 N1 1_555 1_555
C6 N2 1_555 1_555
C7 C6 1_555 1_555
C8 C7 1_555 1_555
C9 C8 1_555 1_555
C10 N2 1_555 1_555
C11 N3 1_555 1_555
C12 C11 1_555 1_555
C13 C12 1_555 1_555
C14 C13 1_555 1_555
C15 N3 1_555 1_555
C16 N4 1_555 1_555
C17 C16 1_555 1_555
C18 C17 1_555 1_555
C19 C18 1_555 1_555
C20 N4 1_555 1_555
H1 C1 1_555 1_555
H2 C2 1_555 1_555
H3 C3 1_555 1_555
H4 C4 1_555 1_555
H5 C7 1_555 1_555
H6 C8 1_555 1_555
H7 C9 1_555 1_555
H8 C10 1_555 1_555
H9 C11 1_555 1_555
H10 C12 1_555 1_555
H11 C13 1_555 1_555
H12 C14 1_555 1_555
H13 C17 1_555 1_555
H14 C18 1_555 1_555
H15 C19 1_555 1_555
H16 C20 1_555 1_555
O7A Mo2 1_555 1_555
O3A Mo1 1_555 1_555
Mo2A O7 1_555 1_555
Fe2A O7A 1_555 1_555
Mo1A O3 1_555 1_555
O5A Mo2A 1_555 1_555
O6A Mo2A 1_555 1_555
O8A Mo2A 1_555 1_555
O4A Fe2A 1_555 1_555
O9A Fe2A 1_555 1_555
N3A Fe2A 1_555 1_555
N4A Fe2A 1_555 1_555
Fe1A O8A 1_555 1_555
Mo1A_2 O4A 1_555 1_555
Mo3A O9A 1_555 1_555
C11A N3A 1_555 1_555
C15A N3A 1_555 1_555
C16A N4A 1_555 1_555
C20A N4A 1_555 1_555
O1A Fe1A 1_555 1_555
O3A_2 Fe1A 1_555 1_555
O15A Fe1A 1_555 1_555
N1A Fe1A 1_555 1_555
N2A Fe1A 1_555 1_555
O10A Mo3A 1_555 1_555
O11A Mo3A 1_555 1_555
O12A Mo3A 1_555 1_555
C12A C11A 1_555 1_555
H9A C11A 1_555 1_555
C14A C15A 1_555 1_555
C17A C16A 1_555 1_555
C19A C20A 1_555 1_555
H16A C20A 1_555 1_555
Mo1_2 O3A_2 1_555 1_555
Mo4A O15A 1_555 1_555
C1A N1A 1_555 1_555
C5A N1A 1_555 1_555
C6A N2A 1_555 1_555
C10A N2A 1_555 1_555
C13A C12A 1_555 1_555
H10A C12A 1_555 1_555
H12A C14A 1_555 1_555
C18A C17A 1_555 1_555
H13A C17A 1_555 1_555
H15A C19A 1_555 1_555
O1_2 Mo1_2 1_555 1_555
O2_2 Mo1_2 1_555 1_555
O4_2 Mo1_2 1_555 1_555
O13A Mo4A 1_555 1_555
O14A Mo4A 1_555 1_555
C2A C1A 1_555 1_555
H1A C1A 1_555 1_555
C4A C5A 1_555 1_555
C7A C6A 1_555 1_555
C9A C10A 1_555 1_555
H8A C10A 1_555 1_555
H11A C13A 1_555 1_555
H14A C18A 1_555 1_555
C3A C2A 1_555 1_555
H2A C2A 1_555 1_555
H4A C4A 1_555 1_555
C8A C7A 1_555 1_555
H5A C7A 1_555 1_555
H7A C9A 1_555 1_555
H3A C3A 1_555 1_555
H6A C8A 1_555 1_555
Fe1 O8 1_555 1_555
Fe1 O15 1_555 1_555
C4 C5 1_555 1_555
C5 C6 1_555 1_555
C9 C10 1_555 1_555
C14 C15 1_555 1_555
C15 C16 1_555 1_555
C19 C20 1_555 1_555
Fe2A O5A 1_555 1_555
Mo1A_2 O1A 1_555 1_555
C15A C16A 1_555 1_555
O12A Mo4A 1_555 1_555
C14A C13A 1_555 1_555
C19A C18A 1_555 1_555
C5A C6A 1_555 1_555
C4A C3A 1_555 1_555
C9A C8A 1_555 1_555

#END
