
#######################################################################
#
#                 Cambridge Crystallographic Data Centre
#                                CCDC 
#
#######################################################################
#
# If this CIF has been generated from an entry in the Cambridge 
# Structural Database, then it will include bibliographic, chemical, 
# crystal, experimental, refinement or atomic coordinate data resulting 
# from the CCDC's data processing and validation procedures.
#
#######################################################################

data_JUDQIK
_symmetry_cell_setting           trigonal
_symmetry_space_group_name_H-M   'P 31 2 1'
_symmetry_Int_Tables_number      152
_space_group_name_Hall           'P 31 2"'
loop_
_symmetry_equiv_pos_site_id
_symmetry_equiv_pos_as_xyz
1 x,y,z
2 -y,x-y,1/3+z
3 -x+y,-x,2/3+z
4 x-y,-y,2/3-z
5 -x,-x+y,1/3-z
6 y,x,-z
_cell_length_a                   12.0911(5)
_cell_length_b                   12.0911(5)
_cell_length_c                   9.3478(8)
_cell_angle_alpha                90
_cell_angle_beta                 90
_cell_angle_gamma                120
_cell_volume                     1183.51
loop_
_atom_site_label
_atom_site_type_symbol
_atom_site_fract_x
_atom_site_fract_y
_atom_site_fract_z
Ag1 Ag 1.0000 -0.09991(7) 0.1667
C1 C 1.0614(9) -0.3891(8) 0.6238(9)
H1 H 1.1330 -0.3536 0.6913
C2 C 1.0716(11) -0.4883(11) 0.5308(10)
H2 H 1.0034 -0.5227 0.4607
H3 H 1.1523 -0.4475 0.4799
C3 C 1.0630(10) -0.5955(9) 0.6218(11)
H4 H 1.1359 -0.5624 0.6856
H5 H 1.0650 -0.6593 0.5608
C4 C 1.0088(8) -0.2918(9) 0.4107(8)
H6 H 0.9657 -0.3658 0.3563
C5 C 1.1183(8) -0.1598(7) 0.5808(8)
H7 H 1.1649 -0.1254 0.6643
N1 N 1.0199(7) -0.1818(6) 0.3768(7)
N2 N 1.0900(6) -0.0957(7) 0.4864(7)
N3 N 1.0695(7) -0.2828(6) 0.5379(7)
C1D C 0.9386(9) -0.4505(12) 0.7095(9)
H1D H 0.8670 -0.4866 0.6420
C2D C 0.9284(11) -0.5599(16) 0.8025(10)
H2D H 0.9966 -0.5261 0.8726
H3D H 0.8477 -0.5998 0.8534
C3D C 0.9370(10) -0.6585(13) 0.7115(11)
H4D H 0.8641 -0.6983 0.6477
H5D H 0.9350 -0.7243 0.7725
C4D C 0.9912(8) -0.3006(12) 0.9226(8)
H6D H 1.0343 -0.3315 0.9770
C5D C 0.8817(8) -0.2781(11) 0.7525(8)
H7D H 0.8351 -0.2903 0.6690
N1D N 0.9801(7) -0.2017(9) 0.9565(7)
N2D N 0.9100(6) -0.1857(9) 0.8469(7)
N3D N 0.9305(7) -0.3523(9) 0.7954(7)
Ag1_2 Ag 1.0000 -0.09991(7) 1.1667
Ag1A Ag 1.09991(7) 0.09991(7) 0.5000
Ag1B Ag 0.90009(7) 0.0000 0.8334
N1D_2 N 0.9801(7) -0.2017(9) -0.0435(7)
N2B N 0.8143(9) -0.0900(6) 0.1531(7)
N2C N 1.1857(9) 0.0957(7) 0.1803(7)
O1 O 0.677(2) 0.273(2) 0.084(3)
H8 H 0.7315 0.3024 0.1512
H9 H 0.6219 0.1957 0.1042
O2 O 1.0000 0.503(2) 0.1667
H10 H 1.0000 0.4326 0.1667
O3? O 1.0000 0.345(2) 0.1667
H11? H 1.0000 0.4156 0.1667
loop_
_geom_bond_atom_site_label_1
_geom_bond_atom_site_label_2
_geom_bond_site_symmetry_1
_geom_bond_site_symmetry_2
Ag1 N1 1_555 1_555
C1 H1 1_555 1_555
C2 C1 1_555 1_555
H2 C2 1_555 1_555
H3 C2 1_555 1_555
C3 C2 1_555 1_555
H4 C3 1_555 1_555
H5 C3 1_555 1_555
C4 H6 1_555 1_555
C5 H7 1_555 1_555
N1 C4 1_555 1_555
N2 C5 1_555 1_555
N3 C1 1_555 1_555
O1 H8 1_555 1_555
H9 O1 1_555 1_555
O2 H10 1_555 1_555
C1D C1 1_555 1_555
H1D C1D 1_555 1_555
C2D C1D 1_555 1_555
H2D C2D 1_555 1_555
H3D C2D 1_555 1_555
C3D C3 1_555 1_555
H4D C3D 1_555 1_555
H5D C3D 1_555 1_555
C4D H6D 1_555 1_555
C5D H7D 1_555 1_555
N1D C4D 1_555 1_555
N2D C5D 1_555 1_555
N3D C1D 1_555 1_555
Ag1_2 N1D 1_555 1_555
Ag1A N2 1_555 1_555
Ag1B N2D 1_555 1_555
N1D_2 Ag1 1_555 1_555
N2B Ag1 1_555 1_555
N2C Ag1 1_555 1_555
C4 N3 1_555 1_555
C5 N3 1_555 1_555
N1 N2 1_555 1_555
C2D C3D 1_555 1_555
C4D N3D 1_555 1_555
C5D N3D 1_555 1_555
N1D N2D 1_555 1_555

#END
