
#######################################################################
#
#                 Cambridge Crystallographic Data Centre
#                                CCDC 
#
#######################################################################
#
# If this CIF has been generated from an entry in the Cambridge 
# Structural Database, then it will include bibliographic, chemical, 
# crystal, experimental, refinement or atomic coordinate data resulting 
# from the CCDC's data processing and validation procedures.
#
#######################################################################

data_JUDQAC
_symmetry_cell_setting           triclinic
_symmetry_space_group_name_H-M   'P -1'
_symmetry_Int_Tables_number      2
_space_group_name_Hall           '-P 1'
loop_
_symmetry_equiv_pos_site_id
_symmetry_equiv_pos_as_xyz
1 x,y,z
2 -x,-y,-z
_cell_length_a                   8.5736(19)
_cell_length_b                   10.436(2)
_cell_length_c                   11.995(3)
_cell_angle_alpha                66.935(4)
_cell_angle_beta                 74.909(4)
_cell_angle_gamma                86.261(4)
_cell_volume                     952.576
loop_
_atom_site_label
_atom_site_type_symbol
_atom_site_fract_x
_atom_site_fract_y
_atom_site_fract_z
Gd1 Gd 0.70405(2) 0.58490(2) 0.35685(2)
O1 O 0.9125(2) 0.6791(2) 0.42359(19)
O2 O 0.7823(3) 0.8257(2) 0.2924(2)
C1 C 0.8833(3) 0.8042(3) 0.3572(3)
C2 C 0.9677(4) 0.9226(3) 0.3583(3)
H1 H 1.0409 0.9043 0.4096
C3 C 0.9441(4) 1.0536(3) 0.2897(3)
H2 H 0.8717 1.0679 0.2383
C4 C 1.0198(5) 1.1810(4) 0.2850(4)
H3 H 1.0823 1.1543 0.3479
H4 H 0.9351 1.2433 0.3026
H5 H 1.0916 1.2292 0.2015
O3 O 0.6697(2) 0.6961(2) 0.14263(19)
O4 O 0.4656(2) 0.6984(2) 0.29592(18)
C5 C 0.5295(4) 0.7343(3) 0.1787(3)
C6 C 0.4403(4) 0.8186(3) 0.0863(3)
H6 H 0.4902 0.8407 0.0000
C7 C 0.2955(4) 0.8650(3) 0.1167(3)
H7 H 0.2472 0.8412 0.2034
C8 C 0.2001(4) 0.9514(4) 0.0276(4)
H8 H 0.1901 1.0447 0.0294
H9 H 0.0923 0.9074 0.0522
H10 H 0.2555 0.9589 -0.0574
O5 O 0.6599(2) 0.3918(2) 0.29775(19)
O6 O 0.4728(2) 0.3951(2) 0.46150(18)
C9 C 0.5367(3) 0.3364(3) 0.3847(3)
C10 C 0.4608(4) 0.2047(3) 0.4001(3)
H11 H 0.3789 0.1579 0.4743
C11 C 0.5028(4) 0.1499(3) 0.3145(3)
H12 H 0.5870 0.1972 0.2422
C12 C 0.4292(4) 0.0203(3) 0.3217(3)
H13 H 0.3514 -0.0232 0.4033
H14 H 0.5143 -0.0447 0.3117
H15 H 0.3736 0.0437 0.2549
N1 N 0.9800(3) 0.5708(3) 0.2158(2)
C13 C 1.1048(4) 0.5131(3) 0.2642(3)
H16 H 1.0905 0.4850 0.3518
C14 C 1.2515(4) 0.4924(3) 0.1945(3)
H17 H 1.3348 0.4504 0.2343
C15 C 1.2781(3) 0.5333(3) 0.0651(3)
C16 C 1.1504(4) 0.5943(3) 0.0139(3)
H18 H 1.1625 0.6245 -0.0737
C17 C 1.0055(4) 0.6110(3) 0.0907(3)
H19 H 0.9200 0.6527 0.0534
C18 C 1.4304(4) 0.5157(3) -0.0161(3)
H20 H 1.4300 0.5275 -0.0987
O7 O 0.7943(2) 0.3827(2) 0.51072(19)
H21 H 0.726(2) 0.345(3) 0.5811(14)
H22 H 0.8863(15) 0.366(3) 0.526(3)
N1A N 2.0200(3) 0.4292(3) -0.2158(2)
C13A C 1.8952(4) 0.4869(3) -0.2642(3)
H16A H 1.9095 0.5150 -0.3518
C14A C 1.7485(4) 0.5076(3) -0.1945(3)
H17A H 1.6652 0.5496 -0.2343
C15A C 1.7219(3) 0.4667(3) -0.0651(3)
C16A C 1.8496(4) 0.4057(3) -0.0139(3)
H18A H 1.8375 0.3755 0.0737
C17A C 1.9945(4) 0.3890(3) -0.0907(3)
H19A H 2.0800 0.3473 -0.0534
C18A C 1.5696(4) 0.4843(3) 0.0161(3)
H20A H 1.5700 0.4725 0.0987
Gd1A Gd 0.29595(2) 0.41510(2) 0.64315(2)
O1A O 0.0875(2) 0.3209(2) 0.57641(19)
O2A O 0.2177(3) 0.1743(2) 0.7076(2)
C1A C 0.1167(3) 0.1958(3) 0.6428(3)
C2A C 0.0323(4) 0.0774(3) 0.6417(3)
H1A H -0.0409 0.0957 0.5904
C3A C 0.0559(4) -0.0536(3) 0.7103(3)
H2A H 0.1283 -0.0679 0.7617
C4A C -0.0198(5) -0.1810(4) 0.7150(4)
H3A H -0.0823 -0.1543 0.6521
H4A H 0.0649 -0.2433 0.6974
H5A H -0.0916 -0.2292 0.7985
O3A O 0.3303(2) 0.3039(2) 0.85737(19)
O4A O 0.5344(2) 0.3016(2) 0.70408(18)
C5A C 0.4705(4) 0.2657(3) 0.8213(3)
C6A C 0.5597(4) 0.1814(3) 0.9137(3)
H6A H 0.5098 0.1593 1.0000
C7A C 0.7045(4) 0.1350(3) 0.8833(3)
H7A H 0.7528 0.1588 0.7966
C8A C 0.7999(4) 0.0486(4) 0.9724(4)
H8A H 0.8099 -0.0447 0.9706
H9A H 0.9077 0.0926 0.9478
H10A H 0.7445 0.0411 1.0574
O5A O 0.3401(2) 0.6082(2) 0.70225(19)
O6A O 0.5272(2) 0.6049(2) 0.53850(18)
C9A C 0.4633(3) 0.6636(3) 0.6153(3)
C10A C 0.5392(4) 0.7953(3) 0.5999(3)
H11A H 0.6211 0.8421 0.5257
C11A C 0.4972(4) 0.8501(3) 0.6855(3)
H12A H 0.4130 0.8028 0.7578
C12A C 0.5708(4) 0.9797(3) 0.6783(3)
H13A H 0.6486 1.0232 0.5967
H14A H 0.4857 1.0447 0.6883
H15A H 0.6264 0.9563 0.7451
O7A O 0.2057(2) 0.6173(2) 0.48928(19)
H21A H 0.274(2) 0.655(3) 0.4189(14)
H22A H 0.1137(15) 0.634(3) 0.474(3)
Gd1A_2 Gd 2.29595(2) 0.41510(2) -0.35685(2)
N1A_2 N 0.0200(3) 0.4292(3) 0.7842(2)
loop_
_geom_bond_atom_site_label_1
_geom_bond_atom_site_label_2
_geom_bond_site_symmetry_1
_geom_bond_site_symmetry_2
Gd1 O1 1_555 1_555
O1 C1 1_555 1_555
O2 Gd1 1_555 1_555
C1 O2 1_555 1_555
C2 C1 1_555 1_555
H1 C2 1_555 1_555
C3 C2 1_555 1_555
H2 C3 1_555 1_555
C4 C3 1_555 1_555
H3 C4 1_555 1_555
H4 C4 1_555 1_555
H5 C4 1_555 1_555
O3 Gd1 1_555 1_555
O4 Gd1 1_555 1_555
C5 O3 1_555 1_555
C6 C5 1_555 1_555
H6 C6 1_555 1_555
C7 C6 1_555 1_555
H7 C7 1_555 1_555
C8 C7 1_555 1_555
H8 C8 1_555 1_555
H9 C8 1_555 1_555
H10 C8 1_555 1_555
O5 Gd1 1_555 1_555
O6 Gd1 1_555 1_555
C9 O5 1_555 1_555
C10 C9 1_555 1_555
H11 C10 1_555 1_555
C11 C10 1_555 1_555
H12 C11 1_555 1_555
C12 C11 1_555 1_555
H13 C12 1_555 1_555
H14 C12 1_555 1_555
H15 C12 1_555 1_555
N1 Gd1 1_555 1_555
C13 N1 1_555 1_555
H16 C13 1_555 1_555
C14 C13 1_555 1_555
H17 C14 1_555 1_555
C15 C14 1_555 1_555
C16 C15 1_555 1_555
H18 C16 1_555 1_555
C17 N1 1_555 1_555
H19 C17 1_555 1_555
C18 C15 1_555 1_555
H20 C18 1_555 1_555
O7 Gd1 1_555 1_555
H21 O7 1_555 1_555
H22 O7 1_555 1_555
N1A C13A 1_555 1_555
C13A H16A 1_555 1_555
C14A C13A 1_555 1_555
H17A C14A 1_555 1_555
C15A C14A 1_555 1_555
C16A C15A 1_555 1_555
H18A C16A 1_555 1_555
C17A N1A 1_555 1_555
H19A C17A 1_555 1_555
C18A C18 1_555 1_555
H20A C18A 1_555 1_555
Gd1A O6 1_555 1_555
O1A Gd1A 1_555 1_555
O2A Gd1A 1_555 1_555
C1A O1A 1_555 1_555
C2A C1A 1_555 1_555
H1A C2A 1_555 1_555
C3A C2A 1_555 1_555
H2A C3A 1_555 1_555
C4A C3A 1_555 1_555
H3A C4A 1_555 1_555
H4A C4A 1_555 1_555
H5A C4A 1_555 1_555
O3A Gd1A 1_555 1_555
O4A Gd1A 1_555 1_555
C5A O3A 1_555 1_555
C6A C5A 1_555 1_555
H6A C6A 1_555 1_555
C7A C6A 1_555 1_555
H7A C7A 1_555 1_555
C8A C7A 1_555 1_555
H8A C8A 1_555 1_555
H9A C8A 1_555 1_555
H10A C8A 1_555 1_555
O5A Gd1A 1_555 1_555
O6A Gd1 1_555 1_555
C9A O5A 1_555 1_555
C10A C9A 1_555 1_555
H11A C10A 1_555 1_555
C11A C10A 1_555 1_555
H12A C11A 1_555 1_555
C12A C11A 1_555 1_555
H13A C12A 1_555 1_555
H14A C12A 1_555 1_555
H15A C12A 1_555 1_555
O7A Gd1A 1_555 1_555
H21A O7A 1_555 1_555
H22A O7A 1_555 1_555
Gd1A_2 N1A 1_555 1_555
N1A_2 Gd1A 1_555 1_555
O4 C5 1_555 1_555
O6 C9 1_555 1_555
C16 C17 1_555 1_555
C15A C18A 1_555 1_555
C16A C17A 1_555 1_555
Gd1A O6A 1_555 1_555
O2A C1A 1_555 1_555
O4A C5A 1_555 1_555
O6A C9A 1_555 1_555

#END
