
#######################################################################
#
#                 Cambridge Crystallographic Data Centre
#                                CCDC 
#
#######################################################################
#
# If this CIF has been generated from an entry in the Cambridge 
# Structural Database, then it will include bibliographic, chemical, 
# crystal, experimental, refinement or atomic coordinate data resulting 
# from the CCDC's data processing and validation procedures.
#
#######################################################################

data_JUDWAI
_symmetry_cell_setting           triclinic
_symmetry_space_group_name_H-M   'P -1'
_symmetry_Int_Tables_number      2
_space_group_name_Hall           '-P 1'
loop_
_symmetry_equiv_pos_site_id
_symmetry_equiv_pos_as_xyz
1 x,y,z
2 -x,-y,-z
_cell_length_a                   8.3580(18)
_cell_length_b                   12.2070(9)
_cell_length_c                   13.146(3)
_cell_angle_alpha                72.886(17)
_cell_angle_beta                 81.607(16)
_cell_angle_gamma                86.142(13)
_cell_volume                     1267.7
loop_
_atom_site_label
_atom_site_type_symbol
_atom_site_fract_x
_atom_site_fract_y
_atom_site_fract_z
C1 C 0.2664(6) 0.2502(5) 0.2593(5)
C2 C 0.2529(7) 0.3560(5) 0.1834(5)
C3 C 0.1455(7) 0.4396(5) 0.2040(5)
H1 H 0.1395 0.512 0.1517
C4 C 0.0462(7) 0.4179(5) 0.3013(5)
H2 H -0.029 0.475 0.3159
C5 C 0.0570(6) 0.3127(5) 0.3770(5)
C6 C 0.1663(6) 0.2281(5) 0.3584(4)
C7 C 0.6022(7) -0.2169(5) 0.4143(4)
C8 C 0.7027(7) -0.3063(5) 0.3936(5)
C9 C 0.7051(7) -0.4129(5) 0.4670(5)
H3 H 0.7765 -0.4714 0.451
C10 C 0.6048(7) -0.4361(5) 0.5640(5)
H4 H 0.605 -0.51 0.6145
C11 C 0.5046(6) -0.3488(5) 0.5852(5)
C12 C 0.5021(6) -0.2389(5) 0.5125(4)
C13 C 0.2976(8) -0.2695(6) 0.2461(5)
H5 H 0.2175 -0.3309 0.2747
H6 H 0.3531 -0.2631 0.3056
C14 C 0.4195(9) -0.2942(6) 0.1563(6)
H7 H 0.512 -0.3423 0.1854
H8 H 0.3681 -0.3328 0.1133
C15 C 0.4723(9) -0.1750(7) 0.0904(6)
H9 H 0.5053 -0.1718 0.0141
H10 H 0.5636 -0.151 0.1184
C16 C 0.3229(9) -0.1002(7) 0.1030(6)
H11 H 0.353 -0.0269 0.1118
H12 H 0.2659 -0.0833 0.0389
C17 C 0.0655(9) 0.1668(7) 0.0365(6)
H13 H 0.081 0.1189 -0.0134
H14 H 0.1726 0.1786 0.0549
C18 C -0.0139(9) 0.2815(6) -0.0153(6)
H15 H 0.0663 0.343 -0.0403
H16 H -0.0665 0.2778 -0.0769
C19 C -0.1378(11) 0.3016(8) 0.0739(6)
H17 H -0.1012 0.3608 0.1025
H18 H -0.2431 0.3269 0.0476
C20 C -0.1513(13) 0.1929(10) 0.1552(9)
H19 H -0.1354 0.2033 0.2249
H20 H -0.2615 0.1638 0.1627
S1 S 0.40418(17) 0.14290(13) 0.23572(11)
S2 S 0.18543(16) 0.09367(11) 0.45295(11)
S3 S 0.59863(17) -0.08154(12) 0.32041(11)
S4 S 0.38173(15) -0.12637(11) 0.54332(11)
Cl1 Cl 0.3738(2) 0.38637(14) 0.06073(13)
Cl2 Cl -0.06800(17) 0.29078(13) 0.49823(12)
Cl3 Cl 0.37732(19) -0.37940(13) 0.70632(12)
Cl4 Cl 0.83174(19) -0.28175(14) 0.27393(13)
Fe1 Fe 0.42392(9) 0.02360(7) 0.39793(6)
O1 O 0.2214(6) -0.1632(4) 0.1965(4)
O2 O -0.0379(7) 0.1124(5) 0.1304(4)
K1 K 0.01616(18) -0.04819(13) 0.30809(11)
S2A S -0.18543(16) -0.09367(11) 0.54705(11)
S3_2 S -0.40137(17) -0.08154(12) 0.32041(11)
S4A S 0.61827(15) 0.12637(11) 0.45668(11)
Cl2A Cl 0.06800(17) -0.29078(13) 0.50177(12)
Cl4_2 Cl -0.16826(19) -0.28175(14) 0.27393(13)
Fe1A Fe 0.57608(9) -0.02360(7) 0.60207(6)
K1_2 K 1.01616(18) -0.04819(13) 0.30809(11)
K1A K -0.01616(18) 0.04819(13) 0.69191(11)
loop_
_geom_bond_atom_site_label_1
_geom_bond_atom_site_label_2
_geom_bond_site_symmetry_1
_geom_bond_site_symmetry_2
C1 C2 1_555 1_555
C2 C3 1_555 1_555
C3 H1 1_555 1_555
C4 C3 1_555 1_555
H2 C4 1_555 1_555
C5 C4 1_555 1_555
C6 C1 1_555 1_555
C7 C8 1_555 1_555
C8 C9 1_555 1_555
C9 H3 1_555 1_555
C10 C9 1_555 1_555
H4 C10 1_555 1_555
C11 C10 1_555 1_555
C12 C7 1_555 1_555
C13 H5 1_555 1_555
H6 C13 1_555 1_555
C14 C13 1_555 1_555
H7 C14 1_555 1_555
H8 C14 1_555 1_555
C15 C14 1_555 1_555
H9 C15 1_555 1_555
H10 C15 1_555 1_555
C16 C15 1_555 1_555
H11 C16 1_555 1_555
H12 C16 1_555 1_555
C17 H13 1_555 1_555
H14 C17 1_555 1_555
C18 C17 1_555 1_555
H15 C18 1_555 1_555
H16 C18 1_555 1_555
C19 C18 1_555 1_555
H17 C19 1_555 1_555
H18 C19 1_555 1_555
C20 C19 1_555 1_555
H19 C20 1_555 1_555
H20 C20 1_555 1_555
S1 C1 1_555 1_555
S2 C6 1_555 1_555
S3 C7 1_555 1_555
S4 C12 1_555 1_555
Cl1 C2 1_555 1_555
Cl2 C5 1_555 1_555
Cl3 C11 1_555 1_555
Cl4 C8 1_555 1_555
Fe1 S1 1_555 1_555
O1 C13 1_555 1_555
O2 C17 1_555 1_555
K1 S2 1_555 1_555
S2A K1 1_555 1_555
S3_2 K1 1_555 1_555
S4A Fe1 1_555 1_555
Cl2A K1 1_555 1_555
Cl4_2 K1 1_555 1_555
Fe1A S4 1_555 1_555
K1_2 S3 1_555 1_555
K1A S2 1_555 1_555
C5 C6 1_555 1_555
C11 C12 1_555 1_555
C16 O1 1_555 1_555
C20 O2 1_555 1_555
S2 Fe1 1_555 1_555
S3 Fe1 1_555 1_555
S4 Fe1 1_555 1_555
Cl2 K1A 1_555 1_555
Cl4 K1_2 1_555 1_555
Fe1 Fe1A 1_555 1_555
O1 K1 1_555 1_555
O2 K1 1_555 1_555
S2A K1A 1_555 1_555
S4A Fe1A 1_555 1_555

#END
