
#######################################################################
#
#                 Cambridge Crystallographic Data Centre
#                                CCDC 
#
#######################################################################
#
# If this CIF has been generated from an entry in the Cambridge 
# Structural Database, then it will include bibliographic, chemical, 
# crystal, experimental, refinement or atomic coordinate data resulting 
# from the CCDC's data processing and validation procedures.
#
#######################################################################

data_JUFBAP
_symmetry_cell_setting           monoclinic
_symmetry_space_group_name_H-M   'C 2/c'
_symmetry_Int_Tables_number      15
_space_group_name_Hall           '-C 2yn'
loop_
_symmetry_equiv_pos_site_id
_symmetry_equiv_pos_as_xyz
1 x,y,z
2 -x,y,1/2-z
3 1/2+x,1/2+y,z
4 1/2-x,1/2+y,1/2-z
5 -x,-y,-z
6 x,-y,1/2+z
7 1/2-x,1/2-y,-z
8 1/2+x,1/2-y,1/2+z
_cell_length_a                   17.733(2)
_cell_length_b                   8.1319(11)
_cell_length_c                   26.416(4)
_cell_angle_alpha                90
_cell_angle_beta                 101.854(2)
_cell_angle_gamma                90
_cell_volume                     3728.03
loop_
_atom_site_label
_atom_site_type_symbol
_atom_site_fract_x
_atom_site_fract_y
_atom_site_fract_z
N1 N 0.04458(12) -0.2298(2) -0.16802(6)
C1 C 0.10682(14) -0.1479(3) -0.14687(8)
H1 H 0.1365 -0.0879 -0.1655
C2 C 0.01856(14) -0.2999(3) -0.12746(8)
H2 H -0.0248 -0.3664 -0.1306
Co1 Co 0.0000 0.23591(4) 0.2500
O1 O 0.0000 0.4928(3) 0.2500
H3 H 0.0268 0.5495 0.2332
O2 O 0.0000 -0.0228(3) 0.2500
H4 H 0.0234 -0.0909 0.2343
O3 O 0.37060(8) 0.1110(2) 0.03970(6)
N2 N 0.12255(11) -0.1612(2) -0.09485(6)
N3 N 0.21165(10) 0.2332(2) 0.19533(6)
N4 N 0.11559(11) 0.2424(2) 0.23681(7)
C3 C 0.25771(14) -0.0835(3) -0.07601(8)
H5 H 0.2614 -0.1251 -0.1082
C4 C 0.32192(13) -0.0152(3) -0.04473(8)
H6 H 0.3688 -0.0073 -0.0552
C5 C 0.31282(12) 0.0410(3) 0.00312(8)
C6 C 0.24334(11) 0.0314(3) 0.02000(7)
C7 C 0.17872(12) -0.0348(3) -0.01232(7)
H7 H 0.1316 -0.0407 -0.0022
C8 C 0.18725(12) -0.0916(3) -0.06037(7)
C9 C 0.25978(11) 0.0992(3) 0.07197(7)
C10 C 0.33747(12) 0.1433(3) 0.08155(8)
C11 C 0.37558(13) 0.2089(3) 0.12769(9)
H8 H 0.4276 0.2356 0.1334
C12 C 0.33251(12) 0.2334(3) 0.16548(8)
H9 H 0.3564 0.2750 0.1976
C13 C 0.25416(11) 0.1968(2) 0.15602(7)
C14 C 0.21653(11) 0.1287(3) 0.10949(7)
H10 H 0.1643 0.1035 0.1036
C15 C 0.23260(14) 0.3419(3) 0.23581(9)
H11 H 0.2784 0.4010 0.2443
C16 C 0.17326(14) 0.3452(3) 0.26069(9)
H12 H 0.1717 0.4083 0.2898
C17 C 0.14118(12) 0.1768(3) 0.19782(7)
H13 H 0.1138 0.1008 0.1749
C18 C 0.06538(15) -0.2578(3) -0.08237(9)
H14 H 0.0600 -0.2881 -0.0493
H3A H -0.0268 0.5495 0.2668
H4A H -0.0234 -0.0909 0.2657
N1A N -0.04458(12) -0.2298(2) 0.66802(6)
C1A C -0.10682(14) -0.1479(3) 0.64687(8)
H1A H -0.1365 -0.0879 0.6655
C2A C -0.01856(14) -0.2999(3) 0.62746(8)
H2A H 0.0248 -0.3664 0.6306
O3A O -0.37060(8) 0.1110(2) 0.46030(6)
N2A N -0.12255(11) -0.1612(2) 0.59485(6)
N3A N -0.21165(10) 0.2332(2) 0.30467(6)
N4A N -0.11559(11) 0.2424(2) 0.26319(7)
C3A C -0.25771(14) -0.0835(3) 0.57601(8)
H5A H -0.2614 -0.1251 0.6082
C4A C -0.32192(13) -0.0152(3) 0.54473(8)
H6A H -0.3688 -0.0073 0.5552
C5A C -0.31282(12) 0.0410(3) 0.49688(8)
C6A C -0.24334(11) 0.0314(3) 0.48000(7)
C7A C -0.17872(12) -0.0348(3) 0.51232(7)
H7A H -0.1316 -0.0407 0.5022
C8A C -0.18725(12) -0.0916(3) 0.56037(7)
C9A C -0.25978(11) 0.0992(3) 0.42803(7)
C10A C -0.33747(12) 0.1433(3) 0.41845(8)
C11A C -0.37558(13) 0.2089(3) 0.37231(9)
H8A H -0.4276 0.2356 0.3666
C12A C -0.33251(12) 0.2334(3) 0.33452(8)
H9A H -0.3564 0.2750 0.3024
C13A C -0.25416(11) 0.1968(2) 0.34398(7)
C14A C -0.21653(11) 0.1287(3) 0.39051(7)
H10A H -0.1643 0.1035 0.3964
C15A C -0.23260(14) 0.3419(3) 0.26419(9)
H11A H -0.2784 0.4010 0.2557
C16A C -0.17326(14) 0.3452(3) 0.23931(9)
H12A H -0.1717 0.4083 0.2102
C17A C -0.14118(12) 0.1768(3) 0.30218(7)
H13A H -0.1138 0.1008 0.3251
C18A C -0.06538(15) -0.2578(3) 0.58237(9)
H14A H -0.0600 -0.2881 0.5493
N1D N -0.04458(12) 0.2298(2) 0.16802(6)
N1E N 0.04458(12) 0.2298(2) 0.33198(6)
Co1D Co 0.0000 -0.23591(4) -0.2500
Co1D_2 Co 0.0000 -0.23591(4) 0.7500
O4 O 0.0173(4) 0.8107(9) 0.0304(2)
H15 H -0.0184 0.7494 0.0369
H16 H 0.0386 0.8362 0.0612
O5 O 0.07262(14) 0.7392(2) 0.20550(9)
O6 O 0.11234(19) 0.5944(4) 0.14909(13)
O7 O 0.0906(3) 0.8446(4) 0.13619(12)
N5 N 0.09266(14) 0.7270(3) 0.16345(9)
loop_
_geom_bond_atom_site_label_1
_geom_bond_atom_site_label_2
_geom_bond_site_symmetry_1
_geom_bond_site_symmetry_2
N1 C1 1_555 1_555
C1 H1 1_555 1_555
C2 N1 1_555 1_555
H2 C2 1_555 1_555
Co1 O1 1_555 1_555
O1 H3 1_555 1_555
O2 Co1 1_555 1_555
H4 O2 1_555 1_555
O3 C5 1_555 1_555
N2 C1 1_555 1_555
N3 C13 1_555 1_555
N4 Co1 1_555 1_555
C3 H5 1_555 1_555
C4 C3 1_555 1_555
H6 C4 1_555 1_555
C5 C4 1_555 1_555
C6 C5 1_555 1_555
C7 C6 1_555 1_555
H7 C7 1_555 1_555
C8 N2 1_555 1_555
C9 C6 1_555 1_555
C10 O3 1_555 1_555
C11 C10 1_555 1_555
H8 C11 1_555 1_555
C12 C11 1_555 1_555
H9 C12 1_555 1_555
C13 C12 1_555 1_555
C14 C9 1_555 1_555
H10 C14 1_555 1_555
C15 N3 1_555 1_555
H11 C15 1_555 1_555
C16 N4 1_555 1_555
H12 C16 1_555 1_555
C17 N3 1_555 1_555
H13 C17 1_555 1_555
C18 C2 1_555 1_555
H14 C18 1_555 1_555
O4 H15 1_555 1_555
H16 O4 1_555 1_555
O5 N5 1_555 1_555
O6 N5 1_555 1_555
O7 N5 1_555 1_555
H3A O1 1_555 1_555
H4A O2 1_555 1_555
N1A C1A 1_555 1_555
C1A H1A 1_555 1_555
C2A N1A 1_555 1_555
H2A C2A 1_555 1_555
O3A C5A 1_555 1_555
N2A C1A 1_555 1_555
N3A C13A 1_555 1_555
N4A Co1 1_555 1_555
C3A H5A 1_555 1_555
C4A C3A 1_555 1_555
H6A C4A 1_555 1_555
C5A C4A 1_555 1_555
C6A C5A 1_555 1_555
C7A C6A 1_555 1_555
H7A C7A 1_555 1_555
C8A N2A 1_555 1_555
C9A C6A 1_555 1_555
C10A O3A 1_555 1_555
C11A C10A 1_555 1_555
H8A C11A 1_555 1_555
C12A C11A 1_555 1_555
H9A C12A 1_555 1_555
C13A C12A 1_555 1_555
C14A C9A 1_555 1_555
H10A C14A 1_555 1_555
C15A N3A 1_555 1_555
H11A C15A 1_555 1_555
C16A N4A 1_555 1_555
H12A C16A 1_555 1_555
C17A N3A 1_555 1_555
H13A C17A 1_555 1_555
C18A C2A 1_555 1_555
H14A C18A 1_555 1_555
N1D Co1 1_555 1_555
N1E Co1 1_555 1_555
Co1D N1 1_555 1_555
Co1D_2 N1A 1_555 1_555
N2 C18 1_555 1_555
N4 C17 1_555 1_555
C3 C8 1_555 1_555
C7 C8 1_555 1_555
C9 C10 1_555 1_555
C13 C14 1_555 1_555
C15 C16 1_555 1_555
N2A C18A 1_555 1_555
N4A C17A 1_555 1_555
C3A C8A 1_555 1_555
C7A C8A 1_555 1_555
C9A C10A 1_555 1_555
C13A C14A 1_555 1_555
C15A C16A 1_555 1_555

#END
