
#######################################################################
#
#                 Cambridge Crystallographic Data Centre
#                                CCDC 
#
#######################################################################
#
# If this CIF has been generated from an entry in the Cambridge 
# Structural Database, then it will include bibliographic, chemical, 
# crystal, experimental, refinement or atomic coordinate data resulting 
# from the CCDC's data processing and validation procedures.
#
#######################################################################

data_JUFBET
_symmetry_cell_setting           monoclinic
_symmetry_space_group_name_H-M   'P 21/c'
_symmetry_Int_Tables_number      14
_space_group_name_Hall           '-P 2ybc'
loop_
_symmetry_equiv_pos_site_id
_symmetry_equiv_pos_as_xyz
1 x,y,z
2 -x,1/2+y,1/2-z
3 -x,-y,-z
4 x,1/2-y,1/2+z
_cell_length_a                   11.8328(9)
_cell_length_b                   23.8489(18)
_cell_length_c                   13.5413(8)
_cell_angle_alpha                90
_cell_angle_beta                 120.368(5)
_cell_angle_gamma                90
_cell_volume                     3297.04
loop_
_atom_site_label
_atom_site_type_symbol
_atom_site_fract_x
_atom_site_fract_y
_atom_site_fract_z
O1 O 0.9927(4) 0.3161(2) 0.6558(5)
H1 H 0.9344 0.3421 0.6393
H2 H 1.0576 0.3336 0.6530
Co1 Co 0.66698(4) 0.235178(16) 0.51961(3)
O2 O 0.7146(2) 0.31477(9) 0.52874(19)
N1 N 0.5150(3) -0.22449(10) 0.5100(2)
O3 O 0.9838(2) -0.08597(8) 0.3521(2)
N2 N 0.7940(3) 0.12427(10) 0.3604(2)
O4 O 1.2004(3) 0.70929(10) 0.82705(19)
N3 N 0.7158(3) 0.19147(10) 0.4191(2)
O5 O 0.5646(3) 0.31191(9) 0.3458(2)
C1 C 0.7411(3) -0.11063(12) 0.4312(3)
H3 H 0.6812 -0.0898 0.4412
C2 C 0.7878(3) 0.02319(12) 0.3726(3)
H4 H 0.7189 0.0262 0.3868
C3 C 1.0731(3) 0.64062(13) 0.6912(3)
C4 C 0.6414(3) 0.33806(12) 0.4304(3)
N4 N 0.6813(2) -0.19420(10) 0.4962(2)
C5 C 0.7509(3) 0.13848(12) 0.4315(3)
H5 H 0.7464 0.1140 0.4829
C6 C 0.9415(3) -0.03176(12) 0.3468(3)
C7 C 0.8292(3) 0.60224(12) 0.5132(3)
C8 C 0.9086(3) -0.11792(13) 0.3822(3)
C9 C 0.7559(3) -0.16759(12) 0.4531(3)
C10 C 0.8403(3) -0.02882(12) 0.3714(2)
C11 C 0.8181(3) -0.08585(12) 0.3938(3)
C12 C 0.6983(3) 0.58085(13) 0.4145(3)
C13 C 0.9608(4) 0.67151(13) 0.6544(3)
H6 H 0.9661 0.7060 0.6886
C14 C 0.9943(3) 0.01511(13) 0.3247(3)
H7 H 1.0612 0.0122 0.3078
C15 C 0.8411(3) 0.07016(12) 0.3521(2)
C16 C 0.6849(3) 0.51635(12) 0.4148(3)
C17 C 0.6551(3) 0.40058(12) 0.4257(3)
C18 C 0.6178(3) 0.48505(13) 0.3163(3)
H8 H 0.5819 0.5026 0.2453
C19 C 0.8445(3) -0.19953(13) 0.4379(3)
H9 H 0.8502 -0.2379 0.4520
O6 O 1.2882(3) 0.62488(12) 0.8450(2)
C20 C 0.6282(3) -0.23553(14) 0.6109(3)
H10 H 0.6328 -0.2534 0.6739
C21 C 0.6033(3) 0.42713(13) 0.3220(3)
H11 H 0.5582 0.4064 0.2548
C22 C 0.9427(3) 0.06641(13) 0.3289(3)
H12 H 0.9766 0.0990 0.3161
F1 F 0.4688(3) 0.57958(12) 0.3430(4)
C23 C 1.1981(4) 0.65870(15) 0.7947(3)
F2 F 0.7759(4) 0.57165(15) 0.2828(2)
C24 C 0.5506(3) -0.19971(13) 0.4425(3)
H13 H 0.4930 -0.1878 0.3681
C25 C 0.5809(4) 0.60541(18) 0.4196(6)
C26 C 1.0640(3) 0.59021(14) 0.6361(3)
H14 H 1.1385 0.5685 0.6593
C27 C 0.8409(4) 0.65304(14) 0.5688(3)
H15 H 0.7666 0.6746 0.5477
F3 F 0.5619(3) 0.65989(11) 0.3902(3)
C28 C 0.7199(4) 0.43224(14) 0.5230(3)
H16 H 0.7559 0.4146 0.5938
C29 C 0.7333(4) 0.48917(13) 0.5191(3)
H17 H 0.7750 0.5097 0.5868
F4 F 0.5751(4) 0.59695(12) 0.2095(2)
C30 C 0.7375(4) 0.21238(14) 0.3352(3)
H18 H 0.7202 0.2490 0.3077
C31 C 0.7312(3) -0.21661(15) 0.6047(3)
H19 H 0.8188 -0.2182 0.6620
C32 C 0.9442(3) 0.57218(14) 0.5466(3)
H20 H 0.9405 0.5393 0.5080
F5 F 0.7285(4) 0.65497(11) 0.3134(2)
F6 F 0.5948(3) 0.59923(14) 0.5207(4)
C33 C 0.9239(3) -0.17557(13) 0.4025(3)
H21 H 0.9839 -0.1965 0.3927
C34 C 0.7872(4) 0.17214(14) 0.2991(3)
H22 H 0.8120 0.1755 0.2443
C35 C 0.6946(6) 0.60104(19) 0.3038(4)
Co1A Co 1.33302(4) 0.735178(16) 0.98039(3)
Co1B Co 0.33302(4) -0.235178(16) 0.48039(3)
N1B N 0.4850(3) 0.22449(10) 0.4900(2)
O4A O 0.7996(3) 0.20929(10) 0.67295(19)
O7 O 0.3604(6) 0.5211(2) 0.9566(5)
H23 H 0.2797 0.5168 0.9358
H24 H 0.3759 0.5563 0.9578
loop_
_geom_bond_atom_site_label_1
_geom_bond_atom_site_label_2
_geom_bond_site_symmetry_1
_geom_bond_site_symmetry_2
O1 H1 1_555 1_555
H2 O1 1_555 1_555
Co1 O2 1_555 1_555
O2 C4 1_555 1_555
N1 C20 1_555 1_555
O3 C6 1_555 1_555
N2 C5 1_555 1_555
O4 C23 1_555 1_555
N3 Co1 1_555 1_555
O5 C4 1_555 1_555
C1 H3 1_555 1_555
C2 H4 1_555 1_555
C3 C13 1_555 1_555
C4 C17 1_555 1_555
N4 C9 1_555 1_555
C5 N3 1_555 1_555
H5 C5 1_555 1_555
C6 C10 1_555 1_555
C7 C12 1_555 1_555
C8 O3 1_555 1_555
C9 C1 1_555 1_555
C10 C2 1_555 1_555
C11 C1 1_555 1_555
C12 C16 1_555 1_555
C13 H6 1_555 1_555
C14 C6 1_555 1_555
H7 C14 1_555 1_555
C15 N2 1_555 1_555
C16 C18 1_555 1_555
C17 C21 1_555 1_555
C18 H8 1_555 1_555
C19 C9 1_555 1_555
H9 C19 1_555 1_555
O6 C23 1_555 1_555
C20 H10 1_555 1_555
C21 C18 1_555 1_555
H11 C21 1_555 1_555
C22 C14 1_555 1_555
H12 C22 1_555 1_555
F1 C25 1_555 1_555
C23 C3 1_555 1_555
F2 C35 1_555 1_555
C24 N1 1_555 1_555
H13 C24 1_555 1_555
C25 C12 1_555 1_555
C26 C3 1_555 1_555
H14 C26 1_555 1_555
C27 C7 1_555 1_555
H15 C27 1_555 1_555
F3 C25 1_555 1_555
C28 C17 1_555 1_555
H16 C28 1_555 1_555
C29 C16 1_555 1_555
H17 C29 1_555 1_555
F4 C35 1_555 1_555
C30 N3 1_555 1_555
H18 C30 1_555 1_555
C31 N4 1_555 1_555
H19 C31 1_555 1_555
C32 C7 1_555 1_555
H20 C32 1_555 1_555
F5 C35 1_555 1_555
F6 C25 1_555 1_555
C33 C8 1_555 1_555
H21 C33 1_555 1_555
C34 N2 1_555 1_555
H22 C34 1_555 1_555
C35 C12 1_555 1_555
O7 H23 1_555 1_555
H24 O7 1_555 1_555
Co1A O4 1_555 1_555
Co1B N1 1_555 1_555
N1B Co1 1_555 1_555
O4A Co1 1_555 1_555
C2 C15 1_555 1_555
N4 C24 1_555 1_555
C8 C11 1_555 1_555
C10 C11 1_555 1_555
C13 C27 1_555 1_555
C15 C22 1_555 1_555
C19 C33 1_555 1_555
C20 C31 1_555 1_555
C26 C32 1_555 1_555
C28 C29 1_555 1_555
C30 C34 1_555 1_555

#END
