
#######################################################################
#
#                 Cambridge Crystallographic Data Centre
#                                CCDC 
#
#######################################################################
#
# If this CIF has been generated from an entry in the Cambridge 
# Structural Database, then it will include bibliographic, chemical, 
# crystal, experimental, refinement or atomic coordinate data resulting 
# from the CCDC's data processing and validation procedures.
#
#######################################################################

data_JUFBOD
_symmetry_cell_setting           monoclinic
_symmetry_space_group_name_H-M   'C 2/c'
_symmetry_Int_Tables_number      15
_space_group_name_Hall           '-C 2yn'
loop_
_symmetry_equiv_pos_site_id
_symmetry_equiv_pos_as_xyz
1 x,y,z
2 -x,y,1/2-z
3 1/2+x,1/2+y,z
4 1/2-x,1/2+y,1/2-z
5 -x,-y,-z
6 x,-y,1/2+z
7 1/2-x,1/2-y,-z
8 1/2+x,1/2-y,1/2+z
_cell_length_a                   22.639(7)
_cell_length_b                   22.322(7)
_cell_length_c                   14.117(5)
_cell_angle_alpha                90
_cell_angle_beta                 108.630(5)
_cell_angle_gamma                90
_cell_volume                     6760.18
loop_
_atom_site_label
_atom_site_type_symbol
_atom_site_fract_x
_atom_site_fract_y
_atom_site_fract_z
C1 C 0.2259(3) 0.3138(3) 0.2842(5)
C2 C 0.1910(2) 0.3023(2) 0.3575(4)
C3 C 0.2171(2) 0.3141(2) 0.4571(4)
H1 H 0.2553 0.3338 0.4791
C4 C 0.1883(2) 0.2975(2) 0.5263(4)
H2 H 0.2061 0.3073 0.5935
C5 C 0.1320(2) 0.2658(2) 0.4934(4)
C6 C 0.1037(3) 0.2557(3) 0.3908(4)
H3 H 0.0652 0.2365 0.3678
C7 C 0.1333(3) 0.2745(2) 0.3242(4)
H4 H 0.1142 0.2683 0.2561
C8 C -0.1403(3) 0.2232(3) 0.5712(5)
C9 C -0.0764(3) 0.2245(3) 0.5613(5)
C10 C -0.0628(3) 0.2620(3) 0.4914(4)
H5 H -0.0948 0.2831 0.4457
C11 C -0.0026(2) 0.2679(2) 0.4897(4)
H6 H 0.0060 0.2933 0.4435
C12 C 0.0457(3) 0.2356(3) 0.5576(5)
C13 C 0.0312(3) 0.1951(4) 0.6226(6)
H7 H 0.0623 0.1716 0.6654
C14 C -0.0296(3) 0.1903(4) 0.6226(6)
H8 H -0.0389 0.1630 0.6655
C15 C 0.3165(3) 0.1639(3) 0.2100(4)
H9 H 0.3554 0.1726 0.2043
C16 C 0.2202(3) 0.1705(3) 0.2029(5)
H10 H 0.1801 0.1855 0.1910
C17 C 0.2400(2) 0.1166(3) 0.2427(4)
H11 H 0.2169 0.0878 0.2630
C18 C 0.3422(2) 0.0610(2) 0.2797(4)
C19 C 0.3155(3) 0.0040(2) 0.2676(4)
H12 H 0.2724 -0.0002 0.2434
C20 C 0.3527(2) -0.0461(2) 0.2911(4)
H13 H 0.3355 -0.0844 0.2830
C21 C 0.4162(2) -0.0378(2) 0.3272(4)
C22 C 0.4443(2) 0.0189(2) 0.3424(3)
C23 C 0.4067(2) 0.0695(2) 0.3178(4)
H14 H 0.4238 0.1077 0.3265
C24 C 0.5177(2) -0.0535(2) 0.3862(4)
C25 C 0.5103(2) 0.0083(2) 0.3808(4)
C26 C 0.5633(2) 0.0440(2) 0.4105(4)
H15 H 0.5598 0.0856 0.4072
C27 C 0.6212(2) 0.0170(2) 0.4450(4)
C28 C 0.6267(2) -0.0449(2) 0.4490(4)
H16 H 0.6661 -0.0620 0.4723
C29 C 0.5753(2) -0.0813(2) 0.4195(4)
H17 H 0.5790 -0.1228 0.4217
C30 C 0.6789(2) 0.1081(3) 0.5170(4)
H18 H 0.6447 0.1288 0.5234
C31 C 0.7361(3) 0.0382(3) 0.4799(4)
H19 H 0.7493 0.0031 0.4577
C32 C 0.7708(3) 0.0856(3) 0.5200(5)
H20 H 0.8133 0.0883 0.5301
Co1 Co 0.25561(3) 0.28547(4) 0.11317(6)
N1 N 0.2683(2) 0.2003(2) 0.1826(4)
N2 N 0.30236(19) 0.11251(19) 0.2472(3)
N3 N 0.7363(2) 0.1302(2) 0.5449(3)
N4 N 0.67548(19) 0.05227(18) 0.4782(3)
N5 N 0.1081(2) 0.2437(2) 0.5654(4)
H21 H 0.1307 0.2286 0.6116
O1 O 0.2820(2) 0.3268(2) 0.3161(4)
O2 O 0.1957(2) 0.3048(2) 0.1910(3)
O3 O -0.14934(19) 0.1955(2) 0.6424(3)
O4 O -0.18507(18) 0.2500(2) 0.5090(3)
O5 O 0.45989(17) -0.08231(14) 0.3536(3)
Co1A Co -0.25561(3) 0.28547(4) 0.38683(6)
Co1G Co -0.24439(3) 0.21453(4) 0.61317(6)
Co1G_2 Co 0.75561(3) 0.21453(4) 0.61317(6)
N3G N 0.2363(2) 0.3698(2) 0.0449(3)
O3G O 0.35066(19) 0.3045(2) 0.1424(3)
O4A O 0.18507(18) 0.2500(2) -0.0090(3)
O4G O 0.31493(18) 0.2500(2) 0.0090(3)
O6 O 0.8238(4) 0.9362(4) 0.3887(12)
H22 H 0.8518 0.9365 0.3572
H23 H 0.8435 0.9293 0.4525
loop_
_geom_bond_atom_site_label_1
_geom_bond_atom_site_label_2
_geom_bond_site_symmetry_1
_geom_bond_site_symmetry_2
C1 C2 1_555 1_555
C2 C3 1_555 1_555
C3 H1 1_555 1_555
C4 C3 1_555 1_555
H2 C4 1_555 1_555
C5 C4 1_555 1_555
C6 C5 1_555 1_555
H3 C6 1_555 1_555
C7 C2 1_555 1_555
H4 C7 1_555 1_555
C8 C9 1_555 1_555
C9 C10 1_555 1_555
C10 H5 1_555 1_555
C11 C10 1_555 1_555
H6 C11 1_555 1_555
C12 C11 1_555 1_555
C13 C12 1_555 1_555
H7 C13 1_555 1_555
C14 C9 1_555 1_555
H8 C14 1_555 1_555
C15 H9 1_555 1_555
C16 H10 1_555 1_555
C17 C16 1_555 1_555
H11 C17 1_555 1_555
C18 C19 1_555 1_555
C19 H12 1_555 1_555
C20 C19 1_555 1_555
H13 C20 1_555 1_555
C21 C20 1_555 1_555
C22 C21 1_555 1_555
C23 C18 1_555 1_555
H14 C23 1_555 1_555
C24 C25 1_555 1_555
C25 C22 1_555 1_555
C26 C25 1_555 1_555
H15 C26 1_555 1_555
C27 C26 1_555 1_555
C28 C27 1_555 1_555
H16 C28 1_555 1_555
C29 C24 1_555 1_555
H17 C29 1_555 1_555
C30 H18 1_555 1_555
C31 H19 1_555 1_555
C32 C31 1_555 1_555
H20 C32 1_555 1_555
Co1 N1 1_555 1_555
N1 C15 1_555 1_555
N2 C15 1_555 1_555
N3 C30 1_555 1_555
N4 C27 1_555 1_555
N5 C5 1_555 1_555
H21 N5 1_555 1_555
O1 C1 1_555 1_555
O2 C1 1_555 1_555
O3 C8 1_555 1_555
O4 C8 1_555 1_555
O5 C21 1_555 1_555
O6 H22 1_555 1_555
H23 O6 1_555 1_555
Co1A O4 1_555 1_555
Co1G O3 1_555 1_555
Co1G_2 N3 1_555 1_555
N3G Co1 1_555 1_555
O3G Co1 1_555 1_555
O4A Co1 1_555 1_555
O4G Co1 1_555 1_555
C6 C7 1_555 1_555
C12 N5 1_555 1_555
C13 C14 1_555 1_555
C16 N1 1_555 1_555
C17 N2 1_555 1_555
C18 N2 1_555 1_555
C22 C23 1_555 1_555
C24 O5 1_555 1_555
C28 C29 1_555 1_555
C30 N4 1_555 1_555
C31 N4 1_555 1_555
C32 N3 1_555 1_555
Co1 O2 1_555 1_555
O4 Co1G 1_555 1_555

#END
