
#######################################################################
#
#                 Cambridge Crystallographic Data Centre
#                                CCDC 
#
#######################################################################
#
# If this CIF has been generated from an entry in the Cambridge 
# Structural Database, then it will include bibliographic, chemical, 
# crystal, experimental, refinement or atomic coordinate data resulting 
# from the CCDC's data processing and validation procedures.
#
#######################################################################

data_JUFFUN
_symmetry_cell_setting           monoclinic
_symmetry_space_group_name_H-M   'P 21/n'
_symmetry_Int_Tables_number      14
_space_group_name_Hall           '-P 2yn'
loop_
_symmetry_equiv_pos_site_id
_symmetry_equiv_pos_as_xyz
1 x,y,z
2 1/2-x,1/2+y,1/2-z
3 -x,-y,-z
4 1/2+x,1/2-y,1/2+z
_cell_length_a                   9.0642(10)
_cell_length_b                   19.594(2)
_cell_length_c                   12.6956(15)
_cell_angle_alpha                90
_cell_angle_beta                 104.058(6)
_cell_angle_gamma                90
_cell_volume                     2187.26
loop_
_atom_site_label
_atom_site_type_symbol
_atom_site_fract_x
_atom_site_fract_y
_atom_site_fract_z
Zn1 Zn 0.21960(4) 0.24011(2) 0.31580(3)
O1 O -0.1917(3) 0.34812(13) -0.1185(2)
O2 O -0.0880(3) 0.27616(12) 0.0123(2)
O3 O 0.0980(3) 0.20487(13) 0.1709(2)
N1 N 0.0340(3) 0.24286(17) 0.3891(2)
N2 N 0.4121(3) 0.27739(15) 0.2684(2)
N3 N 0.1864(3) 0.34936(15) 0.3263(2)
C1 C 0.1235(4) 0.3583(2) 0.4221(3)
H1 H 0.0786 0.4045 0.4210
H2 H 0.2058 0.3540 0.4891
C2 C 0.0035(4) 0.3053(2) 0.4219(3)
C3 C -0.1284(4) 0.3180(2) 0.4567(3)
H3 H -0.1493 0.3623 0.4796
C4 C -0.2286(4) 0.2645(3) 0.4570(3)
H4 H -0.3200 0.2720 0.4793
C5 C -0.1946(5) 0.2003(3) 0.4248(3)
H5 H -0.2606 0.1629 0.4263
C6 C -0.0629(5) 0.1915(2) 0.3902(3)
H6 H -0.0403 0.1476 0.3665
C7 C 0.3370(4) 0.38261(18) 0.3407(3)
H7 H 0.3892 0.3835 0.4188
H8 H 0.3228 0.4304 0.3146
C8 C 0.4343(4) 0.34495(17) 0.2787(3)
C9 C 0.5447(4) 0.3780(2) 0.2391(3)
H9 H 0.5600 0.4258 0.2485
C10 C 0.6335(4) 0.3393(2) 0.1849(3)
H10 H 0.7076 0.3608 0.1546
C11 C 0.6122(4) 0.2702(2) 0.1761(3)
H11 H 0.6732 0.2431 0.1413
C12 C 0.5004(4) 0.2402(2) 0.2185(3)
H12 H 0.4857 0.1922 0.2121
C13 C 0.0737(4) 0.37552(18) 0.2292(3)
H13 H 0.0461 0.4228 0.2442
H14 H -0.0196 0.3474 0.2180
C14 C 0.1270(4) 0.37553(17) 0.1246(3)
H15 H 0.1668 0.3298 0.1132
H16 H 0.2107 0.4089 0.1307
C15 C -0.0033(4) 0.39398(18) 0.0271(3)
H17 H -0.0706 0.4271 0.0514
H18 H 0.0403 0.4172 -0.0277
C16 C -0.0994(4) 0.33442(18) -0.0272(3)
H19 H 0.069(5) 0.1644(6) 0.157(3)
H20 H 0.052(4) 0.2272(15) 0.116(2)
Zn1C Zn -0.28040(4) 0.25989(2) -0.18420(3)
O1C O 0.3083(3) 0.15188(13) 0.3815(2)
Cl1 Cl 0.6192(9) 0.0456(4) 0.2034(6)
O4 O 0.4617(6) 0.0529(3) 0.1502(5)
O5 O 0.6759(8) -0.0161(3) 0.1657(5)
O6 O 0.6352(7) 0.0413(3) 0.3179(5)
O7 O 0.7013(13) 0.1040(5) 0.1798(10)
O8 O 0.1485(14) 0.0232(6) -0.0180(9)
O9 O 0.1444(6) 0.0281(2) 0.3448(4)
O10 O 0.0100(8) 0.0728(4) 0.1480(6)
O11 O 0.0711(11) -0.0117(5) 0.5364(7)
Cl2? Cl 0.6975(6) 0.0397(2) 0.2142(4)
O12? O 0.5624(14) 0.0819(7) 0.1997(12)
O13? O 0.667(2) -0.0115(7) 0.1317(11)
O14? O 0.7274(19) 0.0110(7) 0.3199(9)
O15? O 0.8223(15) 0.0817(7) 0.2025(12)
O16? O 0.0549(19) 0.0055(9) -0.0334(14)
O17? O 0.202(2) 0.0317(10) 0.3232(15)
O18? O 0.1587(17) 0.0891(7) 0.0996(11)
O19? O 0.147(4) -0.0190(17) 0.507(2)
Cl3? Cl 0.618(2) 0.0415(10) 0.1978(15)
O20? O 0.4849(15) 0.0606(7) 0.2323(11)
O21? O 0.5725(17) 0.0061(7) 0.0959(10)
O22? O 0.7081(16) -0.0040(7) 0.2771(11)
O23? O 0.703(3) 0.1013(11) 0.183(2)
O24? O 0.2914(14) 0.0271(6) 0.0570(11)
O25? O 0.0544(18) 0.0729(9) 0.1224(14)
loop_
_geom_bond_atom_site_label_1
_geom_bond_atom_site_label_2
_geom_bond_site_symmetry_1
_geom_bond_site_symmetry_2
Zn1 O3 1_555 1_555
O1 C16 1_555 1_555
O2 C16 1_555 1_555
O3 H19 1_555 1_555
N1 Zn1 1_555 1_555
N2 Zn1 1_555 1_555
N3 Zn1 1_555 1_555
C1 N3 1_555 1_555
H1 C1 1_555 1_555
H2 C1 1_555 1_555
C2 N1 1_555 1_555
C3 C2 1_555 1_555
H3 C3 1_555 1_555
C4 C3 1_555 1_555
H4 C4 1_555 1_555
C5 C4 1_555 1_555
H5 C5 1_555 1_555
C6 N1 1_555 1_555
H6 C6 1_555 1_555
C7 N3 1_555 1_555
H7 C7 1_555 1_555
H8 C7 1_555 1_555
C8 N2 1_555 1_555
C9 C8 1_555 1_555
H9 C9 1_555 1_555
C10 C9 1_555 1_555
H10 C10 1_555 1_555
C11 C10 1_555 1_555
H11 C11 1_555 1_555
C12 N2 1_555 1_555
H12 C12 1_555 1_555
C13 N3 1_555 1_555
H13 C13 1_555 1_555
H14 C13 1_555 1_555
C14 C13 1_555 1_555
H15 C14 1_555 1_555
H16 C14 1_555 1_555
C15 C14 1_555 1_555
H17 C15 1_555 1_555
H18 C15 1_555 1_555
C16 C15 1_555 1_555
H20 O3 1_555 1_555
Cl1 O4 1_555 1_555
O5 Cl1 1_555 1_555
O6 Cl1 1_555 1_555
O7 Cl1 1_555 1_555
Zn1C O1 1_555 1_555
O1C Zn1 1_555 1_555
C1 C2 1_555 1_555
C5 C6 1_555 1_555
C7 C8 1_555 1_555
C11 C12 1_555 1_555

#END
