
#######################################################################
#
#                 Cambridge Crystallographic Data Centre
#                                CCDC 
#
#######################################################################
#
# If this CIF has been generated from an entry in the Cambridge 
# Structural Database, then it will include bibliographic, chemical, 
# crystal, experimental, refinement or atomic coordinate data resulting 
# from the CCDC's data processing and validation procedures.
#
#######################################################################

data_JUFGOI
_symmetry_cell_setting           orthorhombic
_symmetry_space_group_name_H-M   'P n a 21'
_symmetry_Int_Tables_number      33
_space_group_name_Hall           'P 2c -2n'
loop_
_symmetry_equiv_pos_site_id
_symmetry_equiv_pos_as_xyz
1 x,y,z
2 -x,-y,1/2+z
3 1/2-x,1/2+y,1/2+z
4 1/2+x,1/2-y,z
_cell_length_a                   14.1032(2)
_cell_length_b                   17.7710(2)
_cell_length_c                   15.8877(2)
_cell_angle_alpha                90
_cell_angle_beta                 90
_cell_angle_gamma                90
_cell_volume                     3981.9
loop_
_atom_site_label
_atom_site_type_symbol
_atom_site_fract_x
_atom_site_fract_y
_atom_site_fract_z
Cu1 Cu 0.32688(5) 0.55599(4) 0.14638(11)
O1 O 0.6153(3) 0.4651(2) -0.2442(3)
O2 O 0.5193(3) 0.5271(3) -0.3309(3)
O3 O 0.1939(2) 0.6191(2) 0.1987(2)
N1 N 0.2490(3) 0.4633(2) 0.1371(3)
N2 N 0.3934(3) 0.6534(3) 0.1293(3)
N3 N 0.2845(3) 0.5710(3) 0.0265(3)
C1 C 0.1898(4) 0.4633(3) 0.0705(4)
C2 C 0.1335(4) 0.4017(3) 0.0528(4)
H1 H 0.0945 0.4017 0.0041
C3 C 0.1337(5) 0.3393(3) 0.1065(5)
H2 H 0.0942 0.2971 0.0959
C4 C 0.1935(5) 0.3413(3) 0.1757(4)
H3 H 0.1954 0.2999 0.2136
C5 C 0.2495(4) 0.4023(3) 0.1893(4)
H4 H 0.2904 0.4025 0.2368
C6 C 0.1886(4) 0.5359(3) 0.0214(4)
H5 H 0.1721 0.5258 -0.0381
H6 H 0.1404 0.5705 0.0450
C7 C 0.3650(4) 0.6899(4) 0.0588(4)
C8 C 0.4064(4) 0.7549(3) 0.0342(4)
H7 H 0.3870 0.7791 -0.0163
C9 C 0.4780(4) 0.7861(4) 0.0839(5)
H8 H 0.5071 0.8322 0.0682
C10 C 0.5056(4) 0.7493(4) 0.1555(5)
H9 H 0.5539 0.7699 0.1902
C11 C 0.4634(4) 0.6829(4) 0.1769(4)
H10 H 0.4835 0.6571 0.2261
C12 C 0.2832(4) 0.6528(4) 0.0128(4)
H11 H 0.2225 0.6738 0.0335
H12 H 0.2881 0.6636 -0.0482
C13 C 0.3454(4) 0.5273(4) -0.0368(4)
H13 H 0.3363 0.4728 -0.0266
H14 H 0.3218 0.5383 -0.0941
C14 C 0.4474(5) 0.5435(5) -0.0343(5)
H15 H 0.4732 0.5283 0.0210
H16 H 0.4573 0.5984 -0.0406
C15 C 0.5021(5) 0.5018(5) -0.1050(5)
H17 H 0.5710 0.5097 -0.0971
H18 H 0.4895 0.4471 -0.1006
C16 C 0.4751(6) 0.5275(5) -0.1870(5)
H19 H 0.4705 0.5831 -0.1853
H20 H 0.4109 0.5079 -0.1994
C17 C 0.5399(4) 0.5061(4) -0.2598(5)
H21 H 0.206(5) 0.6632(16) 0.214(4)
H22 H 0.155(4) 0.602(3) 0.234(3)
Cu1A Cu 0.67312(5) 0.44401(4) -0.35362(11)
O1A O 0.3847(3) 0.5349(2) 0.2558(3)
O2A O 0.4807(3) 0.4729(3) 0.1691(3)
Cu2 Cu 0.15956(5) 0.56992(4) 0.44521(11)
O4 O -0.1024(2) 0.4507(2) 0.8335(2)
O5 O -0.0019(3) 0.4908(2) 0.9289(2)
O6 O 0.3017(2) 0.62123(19) 0.3866(2)
N4 N 0.1036(3) 0.6721(2) 0.4581(3)
N5 N 0.2289(3) 0.4738(2) 0.4598(3)
N6 N 0.2044(3) 0.5890(2) 0.5653(3)
C18 C 0.1412(4) 0.7112(3) 0.5232(4)
C19 C 0.1067(4) 0.7820(3) 0.5470(4)
H23 H 0.1323 0.8078 0.5941
C20 C 0.0345(5) 0.8132(3) 0.5000(5)
H24 H 0.0104 0.8616 0.5139
C21 C -0.0027(4) 0.7740(4) 0.4329(5)
H25 H -0.0521 0.7955 0.4001
C22 C 0.0320(4) 0.7038(4) 0.4133(4)
H26 H 0.0053 0.6769 0.3673
C23 C 0.2218(3) 0.6717(3) 0.5667(4)
H27 H 0.2822 0.6833 0.5377
H28 H 0.2267 0.6894 0.6256
C24 C 0.2862(4) 0.4728(3) 0.5274(3)
C25 C 0.3398(4) 0.4090(3) 0.5465(4)
H29 H 0.3789 0.4083 0.5952
C26 C 0.3355(5) 0.3473(4) 0.4943(5)
H30 H 0.3723 0.3038 0.5059
C27 C 0.2761(5) 0.3499(3) 0.4239(4)
H31 H 0.2725 0.3083 0.3865
C28 C 0.2232(4) 0.4130(3) 0.4097(4)
H32 H 0.1811 0.4139 0.3630
C29 C 0.2919(3) 0.5444(3) 0.5767(3)
H33 H 0.3006 0.5327 0.6371
H34 H 0.3473 0.5741 0.5577
C30 C 0.1311(4) 0.5715(3) 0.6309(3)
H35 H 0.0754 0.6043 0.6215
H36 H 0.1575 0.5840 0.6870
C31 C 0.0982(4) 0.4901(3) 0.6320(3)
H37 H 0.1523 0.4569 0.6460
H38 H 0.0747 0.4759 0.5754
C32 C 0.0187(4) 0.4792(3) 0.6972(3)
H39 H -0.0342 0.5137 0.6835
H40 H -0.0055 0.4271 0.6931
C33 C 0.0507(4) 0.4938(3) 0.7867(3)
H41 H 0.1075 0.4626 0.7978
H42 H 0.0704 0.5472 0.7910
C34 C -0.0210(4) 0.4784(3) 0.8546(3)
H43 H 0.292(5) 0.660(2) 0.357(3)
H44 H 0.322(5) 0.589(3) 0.352(3)
Cu2A Cu -0.15956(5) 0.43008(4) 0.94521(11)
O4A O 0.1024(2) 0.5493(2) 0.3335(2)
O5A O 0.0019(3) 0.5092(2) 0.4289(2)
Cl1 Cl 0.45249(19) 0.21795(11) 0.32323(16)
O7 O 0.5034(9) 0.2857(6) 0.3499(6)
O8 O 0.4129(7) 0.1906(5) 0.3947(6)
O9 O 0.5205(8) 0.1674(7) 0.2937(8)
O10 O 0.4032(10) 0.2386(8) 0.2540(9)
Cl2 Cl 0.2439(5) 0.8158(4) 0.2822(4)
O11 O 0.2094(11) 0.7477(5) 0.3201(9)
O12 O 0.1747(8) 0.8743(6) 0.2922(8)
O13 O 0.2609(10) 0.8031(8) 0.1943(4)
O14 O 0.3308(7) 0.8378(8) 0.3224(9)
O19 O 0.7137(13) 0.3405(11) 0.2989(12)
O20 O 0.5824(4) 0.3330(3) 0.1772(4)
O15? O 0.2058(8) 0.8707(7) 0.2425(7)
O16? O 0.3545(5) 0.8166(7) 0.2686(8)
O17? O 0.2566(9) 0.8511(6) 0.3813(4)
O18? O 0.2158(8) 0.7482(4) 0.2965(8)
Cl3? Cl 0.2582(4) 0.8216(4) 0.2972(4)
loop_
_geom_bond_atom_site_label_1
_geom_bond_atom_site_label_2
_geom_bond_site_symmetry_1
_geom_bond_site_symmetry_2
Cu1 O3 1_555 1_555
O1 C17 1_555 1_555
O2 C17 1_555 1_555
O3 H21 1_555 1_555
N1 Cu1 1_555 1_555
N2 Cu1 1_555 1_555
N3 Cu1 1_555 1_555
C1 N1 1_555 1_555
C2 C1 1_555 1_555
H1 C2 1_555 1_555
C3 C2 1_555 1_555
H2 C3 1_555 1_555
C4 C3 1_555 1_555
H3 C4 1_555 1_555
C5 N1 1_555 1_555
H4 C5 1_555 1_555
C6 N3 1_555 1_555
H5 C6 1_555 1_555
H6 C6 1_555 1_555
C7 N2 1_555 1_555
C8 C7 1_555 1_555
H7 C8 1_555 1_555
C9 C8 1_555 1_555
H8 C9 1_555 1_555
C10 C9 1_555 1_555
H9 C10 1_555 1_555
C11 N2 1_555 1_555
H10 C11 1_555 1_555
C12 N3 1_555 1_555
H11 C12 1_555 1_555
H12 C12 1_555 1_555
C13 N3 1_555 1_555
H13 C13 1_555 1_555
H14 C13 1_555 1_555
C14 C13 1_555 1_555
H15 C14 1_555 1_555
H16 C14 1_555 1_555
C15 C14 1_555 1_555
H17 C15 1_555 1_555
H18 C15 1_555 1_555
C16 C15 1_555 1_555
H19 C16 1_555 1_555
H20 C16 1_555 1_555
C17 C16 1_555 1_555
H22 O3 1_555 1_555
Cu2 O6 1_555 1_555
O4 C34 1_555 1_555
O5 C34 1_555 1_555
O6 H43 1_555 1_555
N4 Cu2 1_555 1_555
N5 Cu2 1_555 1_555
N6 Cu2 1_555 1_555
C18 N4 1_555 1_555
C19 C18 1_555 1_555
H23 C19 1_555 1_555
C20 C19 1_555 1_555
H24 C20 1_555 1_555
C21 C20 1_555 1_555
H25 C21 1_555 1_555
C22 N4 1_555 1_555
H26 C22 1_555 1_555
C23 N6 1_555 1_555
H27 C23 1_555 1_555
H28 C23 1_555 1_555
C24 N5 1_555 1_555
C25 C24 1_555 1_555
H29 C25 1_555 1_555
C26 C25 1_555 1_555
H30 C26 1_555 1_555
C27 C26 1_555 1_555
H31 C27 1_555 1_555
C28 N5 1_555 1_555
H32 C28 1_555 1_555
C29 N6 1_555 1_555
H33 C29 1_555 1_555
H34 C29 1_555 1_555
C30 N6 1_555 1_555
H35 C30 1_555 1_555
H36 C30 1_555 1_555
C31 C30 1_555 1_555
H37 C31 1_555 1_555
H38 C31 1_555 1_555
C32 C31 1_555 1_555
H39 C32 1_555 1_555
H40 C32 1_555 1_555
C33 C32 1_555 1_555
H41 C33 1_555 1_555
H42 C33 1_555 1_555
C34 C33 1_555 1_555
H44 O6 1_555 1_555
Cl1 O7 1_555 1_555
O8 Cl1 1_555 1_555
O9 Cl1 1_555 1_555
O10 Cl1 1_555 1_555
Cl2 O11 1_555 1_555
O12 Cl2 1_555 1_555
O13 Cl2 1_555 1_555
O14 Cl2 1_555 1_555
Cu1A O1 1_555 1_555
O1A Cu1 1_555 1_555
O2A Cu1 1_555 1_555
Cu2A O4 1_555 1_555
O4A Cu2 1_555 1_555
O5A Cu2 1_555 1_555
O2 Cu1A 1_555 1_555
C1 C6 1_555 1_555
C4 C5 1_555 1_555
C7 C12 1_555 1_555
C10 C11 1_555 1_555
O5 Cu2A 1_555 1_555
C18 C23 1_555 1_555
C21 C22 1_555 1_555
C24 C29 1_555 1_555
C27 C28 1_555 1_555

#END
