
#######################################################################
#
#                 Cambridge Crystallographic Data Centre
#                                CCDC 
#
#######################################################################
#
# If this CIF has been generated from an entry in the Cambridge 
# Structural Database, then it will include bibliographic, chemical, 
# crystal, experimental, refinement or atomic coordinate data resulting 
# from the CCDC's data processing and validation procedures.
#
#######################################################################

data_JUFGUO
_symmetry_cell_setting           orthorhombic
_symmetry_space_group_name_H-M   'P c a 21'
_symmetry_Int_Tables_number      29
_space_group_name_Hall           'P 2c -2ac'
loop_
_symmetry_equiv_pos_site_id
_symmetry_equiv_pos_as_xyz
1 x,y,z
2 -x,-y,1/2+z
3 1/2-x,y,1/2+z
4 1/2+x,-y,z
_cell_length_a                   13.0446(3)
_cell_length_b                   8.8181(2)
_cell_length_c                   19.3686(5)
_cell_angle_alpha                90
_cell_angle_beta                 90
_cell_angle_gamma                90
_cell_volume                     2227.94
loop_
_atom_site_label
_atom_site_type_symbol
_atom_site_fract_x
_atom_site_fract_y
_atom_site_fract_z
Cu1 Cu 0.69814(3) 0.11449(4) 0.37145(5)
O1 O 0.3690(3) -0.1102(3) -0.03831(18)
O2 O 0.4887(2) 0.0050(4) -0.09958(18)
O3 O 0.8567(2) 0.2102(3) 0.39186(15)
N1 N 0.6499(2) 0.3174(4) 0.3438(2)
N2 N 0.7537(2) -0.0950(3) 0.3763(3)
N3 N 0.7231(3) 0.0868(4) 0.2689(2)
C1 C 0.7415(4) 0.2398(5) 0.2407(3)
H1 H 0.7265 0.2409 0.1906
H2 H 0.8142 0.2684 0.2474
C2 C 0.6725(4) 0.3516(5) 0.2778(3)
C3 C 0.6375(5) 0.4829(6) 0.2473(4)
H3 H 0.6510 0.5052 0.2001
C4 C 0.5809(5) 0.5822(7) 0.2892(4)
H4 H 0.5545 0.6730 0.2697
C5 C 0.5629(4) 0.5522(6) 0.3563(4)
H5 H 0.5277 0.6234 0.3845
C6 C 0.5970(3) 0.4139(5) 0.3838(4)
H6 H 0.5828 0.3888 0.4306
C7 C 0.8127(3) -0.0185(6) 0.2650(3)
H7 H 0.8772 0.0388 0.2720
H8 H 0.8154 -0.0665 0.2188
C8 C 0.8021(3) -0.1389(5) 0.3199(3)
C9 C 0.8429(4) -0.2853(6) 0.3133(3)
H9 H 0.8768 -0.3156 0.2722
C10 C 0.8329(3) -0.3823(5) 0.3670(5)
H10 H 0.8598 -0.4820 0.3632
C11 C 0.7838(4) -0.3383(6) 0.4276(3)
H11 H 0.7768 -0.4058 0.4656
C12 C 0.7455(4) -0.1912(5) 0.4301(3)
H12 H 0.7125 -0.1574 0.4710
C13 C 0.6279(3) 0.0163(5) 0.2393(2)
H13 H 0.5695 0.0848 0.2488
H14 H 0.6147 -0.0799 0.2642
C14 C 0.6298(4) -0.0173(6) 0.1619(3)
H15 H 0.6250 0.0790 0.1358
H16 H 0.6956 -0.0665 0.1497
C15 C 0.5434(7) -0.1182(6) 0.1420(3)
H17 H 0.4787 -0.0720 0.1584
H18 H 0.5517 -0.2163 0.1662
C16 C 0.5337(5) -0.1492(6) 0.0648(3)
H19 H 0.5984 -0.1950 0.0480
H20 H 0.4782 -0.2241 0.0573
C17 C 0.5114(4) -0.0120(6) 0.0232(3)
H21 H 0.5771 0.0393 0.0124
H22 H 0.4701 0.0585 0.0516
C18 C 0.4552(3) -0.0410(5) -0.0435(3)
H23 H 0.857(4) 0.259(5) 0.4292(15)
H24 H 0.908(3) 0.152(5) 0.394(2)
Cu1A Cu 0.30186(3) -0.11449(4) -0.12855(5)
O1A O 0.6310(3) 0.1102(3) 0.46169(18)
O2A O 0.5113(2) -0.0050(4) 0.40042(18)
Cl1 Cl 0.39072(14) 0.38734(14) 0.11496(9)
O4 O 0.4736(5) 0.3007(8) 0.1484(3)
O5 O 0.3036(5) 0.2937(8) 0.1182(4)
O6 O 0.3837(5) 0.5226(5) 0.1528(3)
O7 O 0.4148(5) 0.4142(7) 0.0445(3)
O8 O 0.6257(5) 0.3748(6) 0.0078(3)
O9 O 0.7781(5) 0.2522(7) 0.0745(4)
loop_
_geom_bond_atom_site_label_1
_geom_bond_atom_site_label_2
_geom_bond_site_symmetry_1
_geom_bond_site_symmetry_2
Cu1 O3 1_555 1_555
O1 C18 1_555 1_555
O2 C18 1_555 1_555
O3 H23 1_555 1_555
N1 Cu1 1_555 1_555
N2 Cu1 1_555 1_555
N3 Cu1 1_555 1_555
C1 N3 1_555 1_555
H1 C1 1_555 1_555
H2 C1 1_555 1_555
C2 N1 1_555 1_555
C3 C2 1_555 1_555
H3 C3 1_555 1_555
C4 C3 1_555 1_555
H4 C4 1_555 1_555
C5 C4 1_555 1_555
H5 C5 1_555 1_555
C6 N1 1_555 1_555
H6 C6 1_555 1_555
C7 N3 1_555 1_555
H7 C7 1_555 1_555
H8 C7 1_555 1_555
C8 N2 1_555 1_555
C9 C8 1_555 1_555
H9 C9 1_555 1_555
C10 C9 1_555 1_555
H10 C10 1_555 1_555
C11 C10 1_555 1_555
H11 C11 1_555 1_555
C12 N2 1_555 1_555
H12 C12 1_555 1_555
C13 N3 1_555 1_555
H13 C13 1_555 1_555
H14 C13 1_555 1_555
C14 C13 1_555 1_555
H15 C14 1_555 1_555
H16 C14 1_555 1_555
C15 C14 1_555 1_555
H17 C15 1_555 1_555
H18 C15 1_555 1_555
C16 C15 1_555 1_555
H19 C16 1_555 1_555
H20 C16 1_555 1_555
C17 C16 1_555 1_555
H21 C17 1_555 1_555
H22 C17 1_555 1_555
C18 C17 1_555 1_555
H24 O3 1_555 1_555
Cl1 O4 1_555 1_555
O5 Cl1 1_555 1_555
O6 Cl1 1_555 1_555
O7 Cl1 1_555 1_555
Cu1A O1 1_555 1_555
O1A Cu1 1_555 1_555
O2A Cu1 1_555 1_555
O2 Cu1A 1_555 1_555
C1 C2 1_555 1_555
C5 C6 1_555 1_555
C7 C8 1_555 1_555
C11 C12 1_555 1_555

#END
