
#######################################################################
#
#                 Cambridge Crystallographic Data Centre
#                                CCDC 
#
#######################################################################
#
# If this CIF has been generated from an entry in the Cambridge 
# Structural Database, then it will include bibliographic, chemical, 
# crystal, experimental, refinement or atomic coordinate data resulting 
# from the CCDC's data processing and validation procedures.
#
#######################################################################

data_JUFQUY
_symmetry_cell_setting           monoclinic
_symmetry_space_group_name_H-M   'P 21/n'
_symmetry_Int_Tables_number      14
_space_group_name_Hall           '-P 2yn'
loop_
_symmetry_equiv_pos_site_id
_symmetry_equiv_pos_as_xyz
1 x,y,z
2 1/2-x,1/2+y,1/2-z
3 -x,-y,-z
4 1/2+x,1/2-y,1/2+z
_cell_length_a                   8.6320(2)
_cell_length_b                   12.1470(3)
_cell_length_c                   9.4520(2)
_cell_angle_alpha                90
_cell_angle_beta                 96.8790(10)
_cell_angle_gamma                90
_cell_volume                     983.935
loop_
_atom_site_label
_atom_site_type_symbol
_atom_site_fract_x
_atom_site_fract_y
_atom_site_fract_z
Nd1 Nd 0.36344(2) 0.637518(16) 0.901876(18)
N1 N 0.2396(4) 0.6646(2) 1.1531(3)
C1 C 0.1333(4) 0.7347(3) 1.1898(4)
H1 H 0.0721 0.7708 1.1164
N2 N 0.1065(3) 0.7580(2) 1.3229(3)
C2 C 0.2034(4) 0.7120(3) 1.4276(3)
C3 C 0.3143(4) 0.6359(3) 1.4020(3)
H2 H 0.3795 0.6032 1.4756
C4 C 0.3235(4) 0.6108(3) 1.2603(3)
C5 C 0.4224(4) 0.5196(3) 1.2153(4)
O1 O 0.3952(3) 0.4909(2) 1.0841(2)
O2 O 0.5229(3) 0.4740(2) 1.3001(2)
C6 C 0.1778(4) 0.7465(3) 1.5781(3)
O3 O 0.0565(3) 0.7988(2) 1.5918(2)
O4 O 0.2819(3) 0.7183(2) 1.6748(2)
O5 O 0.0584(3) 0.6374(2) 0.8646(3)
N3 N 0.0495(4) 0.5576(3) 0.7788(3)
O6 O 0.1711(3) 0.4976(2) 0.7786(3)
O7 O -0.0684(4) 0.5392(3) 0.6967(3)
O8 O 0.3090(3) 0.8359(2) 0.9418(2)
H3 H 0.3111 0.8804 0.8716
H4 H 0.3395 0.8758 1.0147
Nd1_2 Nd 0.36344(2) 0.637518(16) 1.901876(18)
Nd1B Nd 0.63656(2) 0.362482(16) 1.098124(18)
Nd1C Nd -0.13656(2) 0.862482(16) 1.401876(18)
N2C N 0.6065(3) 0.7420(2) 0.8229(3)
O1B O 0.6048(3) 0.5091(2) 0.9159(2)
O2B O 0.4771(3) 0.5260(2) 0.6999(2)
O3C O 0.5565(3) 0.7012(2) 1.0918(2)
O4_2 O 0.2819(3) 0.7183(2) 0.6748(2)
loop_
_geom_bond_atom_site_label_1
_geom_bond_atom_site_label_2
_geom_bond_site_symmetry_1
_geom_bond_site_symmetry_2
Nd1 N1 1_555 1_555
N1 C1 1_555 1_555
C1 H1 1_555 1_555
N2 C1 1_555 1_555
C2 N2 1_555 1_555
C3 C2 1_555 1_555
H2 C3 1_555 1_555
C4 N1 1_555 1_555
C5 C4 1_555 1_555
O1 Nd1 1_555 1_555
O2 C5 1_555 1_555
C6 C2 1_555 1_555
O3 C6 1_555 1_555
O4 C6 1_555 1_555
O5 Nd1 1_555 1_555
N3 O5 1_555 1_555
O6 Nd1 1_555 1_555
O7 N3 1_555 1_555
O8 Nd1 1_555 1_555
H3 O8 1_555 1_555
H4 O8 1_555 1_555
Nd1_2 O4 1_555 1_555
Nd1B O1 1_555 1_555
Nd1C N2 1_555 1_555
N2C Nd1 1_555 1_555
O1B Nd1 1_555 1_555
O2B Nd1 1_555 1_555
O3C Nd1 1_555 1_555
O4_2 Nd1 1_555 1_555
C3 C4 1_555 1_555
C5 O1 1_555 1_555
O2 Nd1B 1_555 1_555
O3 Nd1C 1_555 1_555
N3 O6 1_555 1_555
Nd1B O1B 1_555 1_555

#END
