
#######################################################################
#
#                 Cambridge Crystallographic Data Centre
#                                CCDC 
#
#######################################################################
#
# If this CIF has been generated from an entry in the Cambridge 
# Structural Database, then it will include bibliographic, chemical, 
# crystal, experimental, refinement or atomic coordinate data resulting 
# from the CCDC's data processing and validation procedures.
#
#######################################################################

data_JUFREJ
_symmetry_cell_setting           hexagonal
_symmetry_space_group_name_H-M   'P 63'
_symmetry_Int_Tables_number      173
_space_group_name_Hall           'P 6c'
loop_
_symmetry_equiv_pos_site_id
_symmetry_equiv_pos_as_xyz
1 x,y,z
2 -x,-y,1/2+z
3 -y,x-y,z
4 -x+y,-x,z
5 x-y,x,1/2+z
6 y,-x+y,1/2+z
_cell_length_a                   15.8956(4)
_cell_length_b                   15.8956(4)
_cell_length_c                   7.6028(2)
_cell_angle_alpha                90
_cell_angle_beta                 90
_cell_angle_gamma                120
_cell_volume                     1663.64
loop_
_atom_site_label
_atom_site_type_symbol
_atom_site_fract_x
_atom_site_fract_y
_atom_site_fract_z
Gd1 Gd 0.370211(10) 0.185107(10) 0.25515(4)
N1 N 0.5012(2) 0.1524(2) 0.4014(4)
C1 C 0.5934(2) 0.1866(2) 0.3507(4)
H1 H 0.6195 0.2388 0.2730
N2 N 0.6513(2) 0.1524(2) 0.4017(4)
C2 C 0.6124(2) 0.0760(2) 0.5114(5)
C3 C 0.5179(3) 0.0354(3) 0.5708(5)
H2 H 0.4916 -0.0172 0.6476
C4 C 0.4636(2) 0.0764(2) 0.5108(5)
C5 C 0.3570(3) 0.0334(3) 0.5581(5)
O1 O 0.31327(18) 0.07236(19) 0.4925(4)
O2 O 0.32137(18) -0.03986(19) 0.6556(4)
C6 C 0.6763(3) 0.0328(3) 0.5576(5)
O3 O 0.75941(18) 0.07272(19) 0.4923(4)
O4 O 0.63888(19) -0.03946(19) 0.6554(4)
O5 O 0.3745(2) 0.1870(2) -0.0764(4)
N3 N 0.4657(3) 0.2330(3) -0.0865(5)
O6 O 0.51105(19) 0.2553(2) 0.0618(4)
O7 O 0.5083(3) 0.2540(4) -0.2259(6)
O8 O 0.20275(17) 0.10117(18) 0.1720(4)
H3 H 0.1687 0.0436 0.2128
H4 H 0.1725 0.1301 0.2075
Gd1A Gd 0.629789(10) -0.185107(10) 0.75515(4)
Gd1B Gd 0.814893(10) 0.185104(14) 0.25515(4)
Gd1E Gd 0.185107(10) -0.185104(14) 0.75515(4)
N2C N 0.5011(3) 0.3487(2) 0.4017(4)
O2D O 0.36123(26) 0.32137(18) 0.1556(4)
O3C O 0.31331(26) 0.24059(18) 0.4923(4)
O4A O 0.36112(19) 0.03946(19) 0.1554(4)
O9 O 0.09129(18) -0.09146(18) 0.2614(7)
H5 H 0.1147 -0.1171 0.3390
H6 H 0.1111 -0.1110 0.1596
loop_
_geom_bond_atom_site_label_1
_geom_bond_atom_site_label_2
_geom_bond_site_symmetry_1
_geom_bond_site_symmetry_2
Gd1 N1 1_555 1_555
N1 C1 1_555 1_555
C1 H1 1_555 1_555
N2 C1 1_555 1_555
C2 N2 1_555 1_555
C3 C2 1_555 1_555
H2 C3 1_555 1_555
C4 N1 1_555 1_555
C5 C4 1_555 1_555
O1 Gd1 1_555 1_555
O2 C5 1_555 1_555
C6 C2 1_555 1_555
O3 C6 1_555 1_555
O4 C6 1_555 1_555
O5 Gd1 1_555 1_555
N3 O5 1_555 1_555
O6 Gd1 1_555 1_555
O7 N3 1_555 1_555
O8 Gd1 1_555 1_555
H3 O8 1_555 1_555
H4 O8 1_555 1_555
O9 H5 1_555 1_555
H6 O9 1_555 1_555
Gd1A O4 1_555 1_555
Gd1B N2 1_555 1_555
Gd1E O2 1_555 1_555
N2C Gd1 1_555 1_555
O2D Gd1 1_555 1_555
O3C Gd1 1_555 1_555
O4A Gd1 1_555 1_555
C3 C4 1_555 1_555
C5 O1 1_555 1_555
O3 Gd1B 1_555 1_555
N3 O6 1_555 1_555

#END
