
#######################################################################
#
#                 Cambridge Crystallographic Data Centre
#                                CCDC 
#
#######################################################################
#
# If this CIF has been generated from an entry in the Cambridge 
# Structural Database, then it will include bibliographic, chemical, 
# crystal, experimental, refinement or atomic coordinate data resulting 
# from the CCDC's data processing and validation procedures.
#
#######################################################################

data_JUFXOZ
_symmetry_cell_setting           triclinic
_symmetry_space_group_name_H-M   'P -1'
_symmetry_Int_Tables_number      2
_space_group_name_Hall           '-P 1'
loop_
_symmetry_equiv_pos_site_id
_symmetry_equiv_pos_as_xyz
1 x,y,z
2 -x,-y,-z
_cell_length_a                   7.7391(15)
_cell_length_b                   10.6004(19)
_cell_length_c                   10.6159(19)
_cell_angle_alpha                112.867(10)
_cell_angle_beta                 90.411(13)
_cell_angle_gamma                104.192(10)
_cell_volume                     772.833
loop_
_atom_site_label
_atom_site_type_symbol
_atom_site_fract_x
_atom_site_fract_y
_atom_site_fract_z
Cu1 Cu 0.50268(4) 0.23363(3) 0.76455(3)
K1 K 0.82029(10) 0.19096(7) 0.49184(7)
K2 K 0.80028(11) 0.51691(8) 0.14863(7)
C1 C 0.3343(3) 0.2414(3) 0.3963(2)
C2 C 0.3886(3) 0.1380(3) 0.2879(3)
C3 C 0.4133(4) 0.1544(3) 0.1651(3)
H1 H 0.4512 0.0864 0.0934
C4 C 0.3826(4) 0.2701(3) 0.1475(3)
C5 C 0.3275(4) 0.3735(3) 0.2553(3)
C6 C 0.3035(4) 0.3577(3) 0.3789(3)
H2 H 0.2663 0.4260 0.4508
C7 C 0.3227(4) 0.2355(3) 0.5358(3)
C8 C 0.4038(4) 0.0008(3) 0.2930(2)
C9 C 0.3981(4) 0.2730(3) 0.0071(3)
C10 C 0.3091(4) 0.5083(3) 0.2463(3)
O1 O 0.2030(3) 0.2735(2) 0.6053(2)
O2 O 0.4480(3) 0.1924(2) 0.57214(18)
O3 O 0.2667(3) -0.0833(2) 0.3040(2)
O4 O 0.5536(3) -0.02732(19) 0.27529(19)
O5 O 0.5481(3) 0.2678(2) -0.03986(18)
O6 O 0.2663(3) 0.2726(2) -0.0597(2)
O7 O 0.4337(3) 0.5628(2) 0.1894(2)
O8 O 0.1861(3) 0.5593(2) 0.2976(2)
O9 O 0.8641(4) 0.3601(4) 0.3236(4)
H3 H 0.963(4) 0.422(4) 0.341(5)
H4 H 0.866(7) 0.294(4) 0.248(3)
O10 O 0.9477(4) -0.0132(4) 0.3075(4)
H5 H 0.946(8) 0.021(7) 0.247(6)
H6 H 1.048(4) -0.032(7) 0.306(6)
O11 O 0.9407(5) 0.3187(4) -0.0308(5)
H7 H 1.046(4) 0.309(8) -0.039(7)
H8 H 0.897(9) 0.267(7) 0.014(8)
Cu1_2 Cu 0.50268(4) 0.23363(3) -0.23545(3)
Cu1A Cu 0.49732(4) -0.23363(3) 0.23545(3)
Cu1A_2 Cu 0.49732(4) 0.76637(3) 0.23545(3)
K1_2 K -0.17971(10) 0.19096(7) 0.49184(7)
K1A K 0.17971(10) -0.19096(7) 0.50816(7)
K1A_2 K 0.17971(10) 0.80904(7) 0.50816(7)
K2_2 K -0.19972(11) 0.51691(8) 0.14863(7)
K2A K 0.19972(11) 0.48309(8) -0.14863(7)
K2A_2 K 0.19972(11) 0.48309(8) 0.85137(7)
K2A_3 K 1.19972(11) 0.48309(8) -0.14863(7)
O1_2 O 1.2030(3) 0.2735(2) 0.6053(2)
O1A O 0.7970(3) 0.7265(2) 0.3947(2)
O3A O 0.7333(3) 0.0833(2) 0.6960(2)
O4A O 0.4464(3) 0.02732(19) 0.72471(19)
O5_2 O 0.5481(3) 0.2678(2) 0.96014(18)
O6_2 O 0.2663(3) 0.2726(2) 0.9403(2)
O6A O 0.7337(3) 0.7274(2) 0.0597(2)
O7A O 0.5663(3) 0.4372(2) 0.8106(2)
O8_2 O 1.1861(3) 0.5593(2) 0.2976(2)
O8A O 0.8139(3) 0.4407(2) 0.7024(2)
O11A O 1.0593(5) 0.6813(4) 0.0308(5)
O12 O 0.8887(10) 0.0893(8) 0.1143(7)
loop_
_geom_bond_atom_site_label_1
_geom_bond_atom_site_label_2
_geom_bond_site_symmetry_1
_geom_bond_site_symmetry_2
Cu1 O2 1_555 1_555
K1 O2 1_555 1_555
K2 O5 1_555 1_555
C1 C2 1_555 1_555
C2 C3 1_555 1_555
C3 H1 1_555 1_555
C4 C3 1_555 1_555
C5 C4 1_555 1_555
C6 C1 1_555 1_555
H2 C6 1_555 1_555
C7 C1 1_555 1_555
C8 C2 1_555 1_555
C9 C4 1_555 1_555
C10 C5 1_555 1_555
O1 C7 1_555 1_555
O2 C7 1_555 1_555
O3 C8 1_555 1_555
O4 K1 1_555 1_555
O5 C9 1_555 1_555
O6 C9 1_555 1_555
O7 K2 1_555 1_555
O8 C10 1_555 1_555
O9 K1 1_555 1_555
H3 O9 1_555 1_555
H4 O9 1_555 1_555
O10 K1 1_555 1_555
H5 O10 1_555 1_555
H6 O10 1_555 1_555
O11 K2 1_555 1_555
H7 O11 1_555 1_555
H8 O11 1_555 1_555
Cu1_2 O5 1_555 1_555
Cu1A O3 1_555 1_555
Cu1A_2 O7 1_555 1_555
K1_2 O1 1_555 1_555
K1A O3 1_555 1_555
K1A_2 O8 1_555 1_555
K2_2 O8 1_555 1_555
K2A O6 1_555 1_555
K2A_2 O1 1_555 1_555
K2A_3 O11 1_555 1_555
O1_2 K1 1_555 1_555
O1A K2 1_555 1_555
O3A Cu1 1_555 1_555
O4A Cu1 1_555 1_555
O5_2 Cu1 1_555 1_555
O6_2 Cu1 1_555 1_555
O6A K2 1_555 1_555
O7A Cu1 1_555 1_555
O8_2 K2 1_555 1_555
O8A K1 1_555 1_555
O11A K2 1_555 1_555
K1 O3A 1_555 1_555
K2 O9 1_555 1_555
C5 C6 1_555 1_555
C8 O4 1_555 1_555
C10 O7 1_555 1_555
O4 Cu1A 1_555 1_555
O6 Cu1_2 1_555 1_555
Cu1A_2 O6A 1_555 1_555
K1A O4A 1_555 1_555
K2A_2 O6_2 1_555 1_555
K2A_2 O7A 1_555 1_555
K2A_3 O11A 1_555 1_555

#END
