
#######################################################################
#
#                 Cambridge Crystallographic Data Centre
#                                CCDC 
#
#######################################################################
#
# If this CIF has been generated from an entry in the Cambridge 
# Structural Database, then it will include bibliographic, chemical, 
# crystal, experimental, refinement or atomic coordinate data resulting 
# from the CCDC's data processing and validation procedures.
#
#######################################################################

data_JUFXUF
_symmetry_cell_setting           monoclinic
_symmetry_space_group_name_H-M   'C 2/c'
_symmetry_Int_Tables_number      15
_space_group_name_Hall           '-C 2yn'
loop_
_symmetry_equiv_pos_site_id
_symmetry_equiv_pos_as_xyz
1 x,y,z
2 -x,y,1/2-z
3 1/2+x,1/2+y,z
4 1/2-x,1/2+y,1/2-z
5 -x,-y,-z
6 x,-y,1/2+z
7 1/2-x,1/2-y,-z
8 1/2+x,1/2-y,1/2+z
_cell_length_a                   6.8940(5)
_cell_length_b                   16.3377(11)
_cell_length_c                   12.9381(9)
_cell_angle_alpha                90
_cell_angle_beta                 99.666(2)
_cell_angle_gamma                90
_cell_volume                     1436.56
loop_
_atom_site_label
_atom_site_type_symbol
_atom_site_fract_x
_atom_site_fract_y
_atom_site_fract_z
Cu1 Cu 0.5000 0.51222(2) 0.7500
Na1 Na 0.82351(8) 0.40012(3) 0.63321(4)
C1 C 0.70390(19) 0.67631(8) 0.54458(10)
C2 C 0.72402(18) 0.67889(7) 0.43951(10)
C3 C 0.76957(19) 0.75261(8) 0.39555(10)
H1 H 0.7827 0.7545 0.3237
C4 C 0.6727(2) 0.59790(8) 0.60006(10)
C5 C 0.69376(19) 0.60605(7) 0.36820(10)
O1 O 0.78567(16) 0.54037(6) 0.59587(9)
O2 O 0.53142(15) 0.59977(6) 0.65290(8)
O3 O 0.82406(15) 0.58551(6) 0.31828(8)
O4 O 0.52703(14) 0.57080(6) 0.36032(8)
O5 O 0.86811(16) 0.39613(7) 0.45692(9)
H2 H 0.7640(18) 0.4152(13) 0.4253(17)
H3 H 0.962(2) 0.4206(14) 0.4393(19)
O6 O 0.77637(18) 0.25673(7) 0.63646(10)
H4 H 0.869(3) 0.2232(13) 0.651(2)
H5 H 0.682(3) 0.2302(14) 0.602(2)
C1F C 0.79610(19) 0.82369(8) 0.45542(10)
C2F C 0.77598(18) 0.82111(7) 0.56049(10)
C3F C 0.73043(19) 0.74739(8) 0.60445(10)
H1F H 0.7173 0.7455 0.6763
C4F C 0.8273(2) 0.90210(8) 0.39994(10)
C5F C 0.80624(19) 0.89395(7) 0.63180(10)
O1F O 0.71433(16) 0.95963(6) 0.40413(9)
O2F O 0.96858(15) 0.90023(6) 0.34710(8)
O3F O 0.67594(15) 0.91449(6) 0.68172(8)
O4F O 0.97297(14) 0.92920(6) 0.63968(8)
Na1E Na 0.82351(8) 0.59988(3) 0.13321(4)
O5E O 0.86811(16) 0.60387(7) -0.04308(9)
H2E H 0.7640(18) 0.5848(13) -0.0747(17)
H3E H 0.962(2) 0.5794(14) -0.0607(19)
O6E O 0.77637(18) 0.74327(7) 0.13646(10)
H4E H 0.869(3) 0.7768(13) 0.151(2)
H5E H 0.682(3) 0.7698(14) 0.102(2)
Cu1B Cu 1.0000 1.01222(2) 0.7500
Cu1D Cu 0.5000 0.48778(2) 0.2500
Cu1F Cu 1.0000 0.98778(2) 0.2500
Na1B Na 0.32351(8) 0.90012(3) 0.63321(4)
Na1B_2 Na 1.32351(8) 0.90012(3) 0.63321(4)
Na1C Na 0.67649(8) 0.90012(3) 0.86679(4)
Na1D Na 0.17649(8) 0.59988(3) 0.36679(4)
Na1D_2 Na 1.17649(8) 0.59988(3) 0.36679(4)
Na1F Na 0.67649(8) 1.09988(3) 0.36679(4)
O1E O 0.78567(16) 0.45963(6) 0.09587(9)
O2A O 0.46858(15) 0.59977(6) 0.84710(8)
O3A O 1.17594(15) 0.58551(6) 0.18172(8)
O3D O 0.17594(15) 0.41449(6) 0.68172(8)
O3D_2 O 1.17594(15) 0.41449(6) 0.68172(8)
O3E O 0.82406(15) 0.41449(6) 0.81828(8)
O4A O 0.47297(14) 0.57080(6) 0.13968(8)
O4D O 0.47297(14) 0.42920(6) 0.63968(8)
O4E O 0.52703(14) 0.42920(6) 0.86032(8)
loop_
_geom_bond_atom_site_label_1
_geom_bond_atom_site_label_2
_geom_bond_site_symmetry_1
_geom_bond_site_symmetry_2
Cu1 O2 1_555 1_555
Na1 O1 1_555 1_555
C1 C2 1_555 1_555
C2 C3 1_555 1_555
C3 H1 1_555 1_555
C4 C1 1_555 1_555
C5 C2 1_555 1_555
O1 C4 1_555 1_555
O2 C4 1_555 1_555
O3 C5 1_555 1_555
O4 C5 1_555 1_555
O5 Na1 1_555 1_555
H2 O5 1_555 1_555
H3 O5 1_555 1_555
O6 Na1 1_555 1_555
H4 O6 1_555 1_555
H5 O6 1_555 1_555
C1F C3 1_555 1_555
C2F C1F 1_555 1_555
C3F C1 1_555 1_555
H1F C3F 1_555 1_555
C4F C1F 1_555 1_555
C5F C2F 1_555 1_555
O1F C4F 1_555 1_555
O2F C4F 1_555 1_555
O3F C5F 1_555 1_555
O4F C5F 1_555 1_555
Na1E O3 1_555 1_555
O5E Na1E 1_555 1_555
H2E O5E 1_555 1_555
H3E O5E 1_555 1_555
O6E Na1E 1_555 1_555
H4E O6E 1_555 1_555
H5E O6E 1_555 1_555
Cu1B O3F 1_555 1_555
Cu1D O3 1_555 1_555
Cu1F O2F 1_555 1_555
Na1B O3F 1_555 1_555
Na1B_2 O4F 1_555 1_555
Na1C O3F 1_555 1_555
Na1D O4 1_555 1_555
Na1D_2 O3 1_555 1_555
Na1F O1F 1_555 1_555
O1E Na1E 1_555 1_555
O2A Cu1 1_555 1_555
O3A Na1E 1_555 1_555
O3D Cu1 1_555 1_555
O3D_2 Na1 1_555 1_555
O3E Cu1 1_555 1_555
O4A Na1E 1_555 1_555
O4D Cu1 1_555 1_555
O4E Cu1 1_555 1_555
Na1 O3E 1_555 1_555
Na1 O4D 1_555 1_555
O4 Cu1D 1_555 1_555
C2F C3F 1_555 1_555
O4F Cu1B 1_555 1_555
Cu1D O4A 1_555 1_555
Na1D_2 O3A 1_555 1_555

#END
