
#######################################################################
#
#                 Cambridge Crystallographic Data Centre
#                                CCDC 
#
#######################################################################
#
# If this CIF has been generated from an entry in the Cambridge 
# Structural Database, then it will include bibliographic, chemical, 
# crystal, experimental, refinement or atomic coordinate data resulting 
# from the CCDC's data processing and validation procedures.
#
#######################################################################

data_JUFYIU
_symmetry_cell_setting           monoclinic
_symmetry_space_group_name_H-M   'P 21/c'
_symmetry_Int_Tables_number      14
_space_group_name_Hall           '-P 2ybc'
loop_
_symmetry_equiv_pos_site_id
_symmetry_equiv_pos_as_xyz
1 x,y,z
2 -x,1/2+y,1/2-z
3 -x,-y,-z
4 x,1/2-y,1/2+z
_cell_length_a                   8.2343(7)
_cell_length_b                   19.5788(16)
_cell_length_c                   10.9336(9)
_cell_angle_alpha                90
_cell_angle_beta                 100.371(2)
_cell_angle_gamma                90
_cell_volume                     1733.89
loop_
_atom_site_label
_atom_site_type_symbol
_atom_site_fract_x
_atom_site_fract_y
_atom_site_fract_z
Cu1 Cu 0.83314(5) 0.45250(2) 0.89782(4)
Cu2 Cu 0.5000 0.5000 0.5000
C1 C 0.8395(4) 0.66351(16) 1.0096(3)
C2 C 0.7750(4) 0.68894(16) 1.1110(3)
C3 C 0.8240(4) 0.75331(17) 1.1570(3)
H1 H 0.7758 0.7720 1.2223
C4 C 0.9423(4) 0.79108(16) 1.1097(3)
C5 C 1.0156(4) 0.76329(16) 1.0157(3)
C6 C 0.9604(4) 0.70035(16) 0.9644(3)
H2 H 1.0062 0.6824 0.8974
C7 C 0.7812(4) 0.59822(17) 0.9446(3)
C8 C 0.6659(4) 0.64542(17) 1.1778(3)
C9 C 0.9959(4) 0.86051(16) 1.1651(3)
C10 C 1.1592(4) 0.79754(17) 0.9718(3)
O1 O 0.6383(3) 0.59621(12) 0.8820(2)
O2 O 0.8864(3) 0.55000(11) 0.9523(2)
O3 O 0.5903(3) 0.67395(12) 1.2537(2)
O4 O 0.6609(3) 0.58208(12) 1.1559(2)
O5 O 0.8844(3) 0.90389(12) 1.1621(2)
O6 O 1.1460(3) 0.86896(12) 1.2108(2)
O7 O 1.1364(3) 0.85293(13) 0.9162(2)
O8 O 1.2942(3) 0.76500(14) 0.9959(3)
N1 N 0.7057(4) 0.44458(17) 1.0385(3)
H3 H 0.761(5) 0.422(2) 1.101(4)
H4 H 0.687(5) 0.485(2) 1.068(4)
H5 H 0.620(6) 0.427(2) 1.020(4)
N2 N 0.7626(4) 0.35864(16) 0.8355(3)
H6 H 0.669(6) 0.361(2) 0.796(4)
H7 H 0.753(5) 0.325(2) 0.897(4)
H8 H 0.814(5) 0.342(2) 0.783(4)
N3 N 0.9735(4) 0.46379(15) 0.7697(3)
H9 H 0.944(5) 0.434(2) 0.711(4)
H10 H 0.959(5) 0.506(2) 0.747(4)
H11 H 1.070(6) 0.454(2) 0.803(4)
N4 N 0.7369(4) 0.48656(18) 0.4760(3)
H12 H 0.769(6) 0.447(3) 0.499(4)
H13 H 0.803(6) 0.519(2) 0.513(4)
H14 H 0.749(6) 0.489(2) 0.405(5)
N5 N 0.5438(4) 0.60261(17) 0.5061(3)
H15 H 0.460(6) 0.621(2) 0.523(4)
H16 H 0.621(6) 0.611(2) 0.560(4)
H17 H 0.572(5) 0.617(2) 0.436(4)
O9 O 0.5715(3) 0.48664(14) 0.7313(2)
H18 H 0.507(6) 0.464(2) 0.754(4)
H19 H 0.584(6) 0.524(2) 0.763(4)
Cu1B Cu 0.16686(5) 0.54750(2) 0.10218(4)
C1B C 0.1605(4) 0.33649(16) -0.0096(3)
C2B C 0.2250(4) 0.31106(16) -0.1110(3)
C3B C 0.1760(4) 0.24669(17) -0.1570(3)
H1B H 0.2242 0.2280 -0.2223
C4B C 0.0577(4) 0.20892(16) -0.1097(3)
C5B C -0.0156(4) 0.23671(16) -0.0157(3)
C6B C 0.0396(4) 0.29965(16) 0.0356(3)
H2B H -0.0062 0.3176 0.1026
C7B C 0.2188(4) 0.40178(17) 0.0554(3)
C8B C 0.3341(4) 0.35458(17) -0.1778(3)
C9B C 0.0041(4) 0.13949(16) -0.1651(3)
C10B C -0.1592(4) 0.20246(17) 0.0282(3)
O1B O 0.3617(3) 0.40379(12) 0.1180(2)
O2B O 0.1136(3) 0.45000(11) 0.0477(2)
O3B O 0.4097(3) 0.32605(12) -0.2537(2)
O4B O 0.3391(3) 0.41792(12) -0.1559(2)
O5B O 0.1156(3) 0.09611(12) -0.1621(2)
O6B O -0.1460(3) 0.13104(12) -0.2108(2)
O7B O -0.1364(3) 0.14707(13) 0.0838(2)
O8B O -0.2942(3) 0.23500(14) 0.0041(3)
N1B N 0.2943(4) 0.55542(17) -0.0385(3)
H3B H 0.239(5) 0.578(2) -0.101(4)
H4B H 0.313(5) 0.515(2) -0.068(4)
H5B H 0.380(6) 0.573(2) -0.020(4)
N2B N 0.2374(4) 0.64136(16) 0.1645(3)
H6B H 0.331(6) 0.639(2) 0.204(4)
H7B H 0.247(5) 0.675(2) 0.103(4)
H8B H 0.186(5) 0.658(2) 0.217(4)
N3B N 0.0265(4) 0.53621(15) 0.2303(3)
H9B H 0.056(5) 0.566(2) 0.289(4)
H10B H 0.041(5) 0.494(2) 0.253(4)
H11B H -0.070(6) 0.546(2) 0.197(4)
N4B N 0.2631(4) 0.51344(18) 0.5240(3)
H12B H 0.231(6) 0.553(3) 0.501(4)
H13B H 0.197(6) 0.481(2) 0.487(4)
H14B H 0.251(6) 0.511(2) 0.595(5)
N5B N 0.4562(4) 0.39739(17) 0.4939(3)
H15B H 0.540(6) 0.379(2) 0.477(4)
H16B H 0.379(6) 0.389(2) 0.440(4)
H17B H 0.428(5) 0.383(2) 0.564(4)
O9B O 0.4285(3) 0.51336(14) 0.2687(2)
H18B H 0.493(6) 0.536(2) 0.246(4)
H19B H 0.416(6) 0.476(2) 0.237(4)
Cu1_2 Cu -0.16686(5) 0.45250(2) -0.10218(4)
Cu1B_2 Cu 1.16686(5) 0.54750(2) 1.10218(4)
O2_2 O -0.1136(3) 0.55000(11) -0.0477(2)
O2B_2 O 1.1136(3) 0.45000(11) 1.0477(2)
N6 N 0.4291(4) 0.79176(17) 1.3051(3)
H20 H 0.503(6) 0.824(2) 1.331(4)
H21 H 0.397(5) 0.772(2) 1.375(4)
H22 H 0.471(6) 0.761(2) 1.277(4)
H23 H 0.346(6) 0.807(2) 1.261(4)
loop_
_geom_bond_atom_site_label_1
_geom_bond_atom_site_label_2
_geom_bond_site_symmetry_1
_geom_bond_site_symmetry_2
Cu1 O2 1_555 1_555
Cu2 N4 1_555 1_555
C1 C2 1_555 1_555
C2 C3 1_555 1_555
C3 H1 1_555 1_555
C4 C3 1_555 1_555
C5 C4 1_555 1_555
C6 C1 1_555 1_555
H2 C6 1_555 1_555
C7 C1 1_555 1_555
C8 C2 1_555 1_555
C9 C4 1_555 1_555
C10 C5 1_555 1_555
O1 C7 1_555 1_555
O2 C7 1_555 1_555
O3 C8 1_555 1_555
O4 C8 1_555 1_555
O5 C9 1_555 1_555
O6 C9 1_555 1_555
O7 C10 1_555 1_555
O8 C10 1_555 1_555
N1 Cu1 1_555 1_555
H3 N1 1_555 1_555
H4 N1 1_555 1_555
H5 N1 1_555 1_555
N2 Cu1 1_555 1_555
H6 N2 1_555 1_555
H7 N2 1_555 1_555
H8 N2 1_555 1_555
N3 Cu1 1_555 1_555
H9 N3 1_555 1_555
H10 N3 1_555 1_555
H11 N3 1_555 1_555
N4 H12 1_555 1_555
H13 N4 1_555 1_555
H14 N4 1_555 1_555
N5 Cu2 1_555 1_555
H15 N5 1_555 1_555
H16 N5 1_555 1_555
H17 N5 1_555 1_555
O9 Cu1 1_555 1_555
H18 O9 1_555 1_555
H19 O9 1_555 1_555
N6 H20 1_555 1_555
H21 N6 1_555 1_555
H22 N6 1_555 1_555
H23 N6 1_555 1_555
Cu1B O2B 1_555 1_555
C1B C2B 1_555 1_555
C2B C3B 1_555 1_555
C3B H1B 1_555 1_555
C4B C3B 1_555 1_555
C5B C4B 1_555 1_555
C6B C1B 1_555 1_555
H2B C6B 1_555 1_555
C7B C1B 1_555 1_555
C8B C2B 1_555 1_555
C9B C4B 1_555 1_555
C10B C5B 1_555 1_555
O1B C7B 1_555 1_555
O2B C7B 1_555 1_555
O3B C8B 1_555 1_555
O4B C8B 1_555 1_555
O5B C9B 1_555 1_555
O6B C9B 1_555 1_555
O7B C10B 1_555 1_555
O8B C10B 1_555 1_555
N1B Cu1B 1_555 1_555
H3B N1B 1_555 1_555
H4B N1B 1_555 1_555
H5B N1B 1_555 1_555
N2B Cu1B 1_555 1_555
H6B N2B 1_555 1_555
H7B N2B 1_555 1_555
H8B N2B 1_555 1_555
N3B Cu1B 1_555 1_555
H9B N3B 1_555 1_555
H10B N3B 1_555 1_555
H11B N3B 1_555 1_555
N4B Cu2 1_555 1_555
H12B N4B 1_555 1_555
H13B N4B 1_555 1_555
H14B N4B 1_555 1_555
N5B Cu2 1_555 1_555
H15B N5B 1_555 1_555
H16B N5B 1_555 1_555
H17B N5B 1_555 1_555
O9B Cu2 1_555 1_555
H18B O9B 1_555 1_555
H19B O9B 1_555 1_555
Cu1_2 O2B 1_555 1_555
Cu1B_2 O2 1_555 1_555
O2_2 Cu1B 1_555 1_555
O2B_2 Cu1 1_555 1_555
Cu2 O9 1_555 1_555
C5 C6 1_555 1_555
Cu1B O9B 1_555 1_555
C5B C6B 1_555 1_555
Cu1_2 O2_2 1_555 1_555
Cu1B_2 O2B_2 1_555 1_555

#END
