
#######################################################################
#
#                 Cambridge Crystallographic Data Centre
#                                CCDC 
#
#######################################################################
#
# If this CIF has been generated from an entry in the Cambridge 
# Structural Database, then it will include bibliographic, chemical, 
# crystal, experimental, refinement or atomic coordinate data resulting 
# from the CCDC's data processing and validation procedures.
#
#######################################################################

data_JUGBIY
_symmetry_cell_setting           monoclinic
_symmetry_space_group_name_H-M   'C 2/c'
_symmetry_Int_Tables_number      15
_space_group_name_Hall           '-C 2yn'
loop_
_symmetry_equiv_pos_site_id
_symmetry_equiv_pos_as_xyz
1 x,y,z
2 -x,y,1/2-z
3 1/2+x,1/2+y,z
4 1/2-x,1/2+y,1/2-z
5 -x,-y,-z
6 x,-y,1/2+z
7 1/2-x,1/2-y,-z
8 1/2+x,1/2-y,1/2+z
_cell_length_a                   33.900(3)
_cell_length_b                   11.3215(12)
_cell_length_c                   12.7557(13)
_cell_angle_alpha                90
_cell_angle_beta                 98.0050(10)
_cell_angle_gamma                90
_cell_volume                     4847.92
loop_
_atom_site_label
_atom_site_type_symbol
_atom_site_fract_x
_atom_site_fract_y
_atom_site_fract_z
Ni1 Ni 0.100534(15) -0.19089(4) 0.14015(4)
C1 C 0.26268(14) 0.5682(4) 0.3595(4)
C2 C 0.22028(14) 0.5529(3) 0.3750(3)
C3 C 0.20528(16) 0.6160(4) 0.4541(4)
H1 H 0.2221 0.6647 0.4989
C4 C 0.16571(16) 0.6071(4) 0.4669(4)
H2 H 0.1558 0.6502 0.5195
C5 C 0.14092(15) 0.5340(4) 0.4013(4)
H3 H 0.1142 0.5280 0.4102
C6 C 0.15500(12) 0.4690(3) 0.3220(3)
C7 C 0.19479(12) 0.4783(3) 0.3101(3)
H4 H 0.2047 0.4341 0.2582
C8 C 0.12877(12) 0.3884(3) 0.2501(3)
C9 C 0.09426(12) 0.4280(3) 0.1853(4)
C10 C 0.08089(14) 0.5546(4) 0.1846(4)
C11 C 0.07204(13) 0.3487(4) 0.1192(4)
H5 H 0.0498 0.3753 0.0744
C12 C 0.08234(13) 0.2297(3) 0.1184(4)
H6 H 0.0671 0.1778 0.0728
C13 C 0.11496(12) 0.1886(3) 0.1848(3)
C14 C 0.13800(12) 0.2691(3) 0.2485(3)
H7 H 0.1605 0.2421 0.2918
C15 C 0.12406(11) 0.0598(3) 0.1949(3)
C16 C 0.04806(18) -0.0920(4) -0.0480(5)
H8 H 0.0526 -0.0218 -0.0104
C17 C 0.02206(17) -0.0899(4) -0.1423(5)
H9 H 0.0102 -0.0191 -0.1664
C18 C 0.01378(12) -0.1904(3) -0.2001(4)
C19 C 0.03246(14) -0.2924(4) -0.1586(4)
H10 H 0.0274 -0.3641 -0.1936
C20 C 0.05844(13) -0.2876(3) -0.0656(4)
H11 H 0.0710 -0.3572 -0.0407
C21 C 0.16862(12) -0.1358(3) 0.0149(3)
H12 H 0.1525 -0.0733 -0.0121
C22 C 0.20469(13) -0.1500(4) -0.0204(3)
H13 H 0.2121 -0.0981 -0.0707
C23 C 0.23041(11) -0.2408(3) 0.0176(3)
C24 C 0.21620(14) -0.3132(4) 0.0907(4)
H14 H 0.2317 -0.3764 0.1191
C25 C 0.18007(14) -0.2941(4) 0.1221(5)
H15 H 0.1719 -0.3451 0.1721
N1 N 0.06681(10) -0.1890(3) -0.0086(3)
N2 N 0.15553(10) -0.2062(3) 0.0856(3)
O1 O 0.28583(12) 0.6291(4) 0.4152(4)
O2 O 0.27237(10) 0.5072(3) 0.2779(3)
H16 H 0.2957 0.5206 0.2711
O3 O 0.10226(8) 0.6292(2) 0.1505(2)
O4 O 0.04832(15) 0.5752(4) 0.2120(6)
O5 O 0.15325(8) 0.0275(2) 0.2602(2)
O6 O 0.10080(8) -0.0098(2) 0.1398(2)
O7 O 0.12665(11) -0.1828(3) 0.2998(3)
H17 H 0.1380 -0.1192 0.3112
H18 H 0.1376 -0.2209 0.3077
O8 O 0.04570(12) -0.1871(3) 0.2019(4)
H19 H 0.0500 -0.1783 0.2663
H20 H 0.0451 -0.2611 0.2175
C16A C -0.04806(18) -0.0920(4) -0.4520(5)
H8A H -0.0526 -0.0218 -0.4896
C17A C -0.02206(17) -0.0899(4) -0.3577(5)
H9A H -0.0102 -0.0191 -0.3336
C18A C -0.01378(12) -0.1904(3) -0.2999(4)
C19A C -0.03246(14) -0.2924(4) -0.3414(4)
H10A H -0.0274 -0.3641 -0.3064
C20A C -0.05844(13) -0.2876(3) -0.4344(4)
H11A H -0.0710 -0.3572 -0.4593
N1A N -0.06681(10) -0.1890(3) -0.4914(3)
C21F C 0.33138(12) -0.3642(3) -0.0149(3)
H12F H 0.3475 -0.4267 0.0121
C22F C 0.29531(13) -0.3500(4) 0.0204(3)
H13F H 0.2879 -0.4019 0.0707
C23F C 0.26959(11) -0.2592(3) -0.0176(3)
C24F C 0.28380(14) -0.1868(4) -0.0907(4)
H14F H 0.2683 -0.1236 -0.1191
C25F C 0.31993(14) -0.2059(4) -0.1221(5)
H15F H 0.3281 -0.1549 -0.1721
N2F N 0.34447(10) -0.2938(3) -0.0856(3)
Ni1A Ni -0.100534(15) -0.19089(4) -0.64015(4)
C1A C -0.26268(14) 0.5682(4) -0.8595(4)
C2A C -0.22028(14) 0.5529(3) -0.8750(3)
C3A C -0.20528(16) 0.6160(4) -0.9541(4)
H1A H -0.2221 0.6647 -0.9989
C4A C -0.16571(16) 0.6071(4) -0.9669(4)
H2A H -0.1558 0.6502 -1.0195
C5A C -0.14092(15) 0.5340(4) -0.9013(4)
H3A H -0.1142 0.5280 -0.9102
C6A C -0.15500(12) 0.4690(3) -0.8220(3)
C7A C -0.19479(12) 0.4783(3) -0.8101(3)
H4A H -0.2047 0.4341 -0.7582
C8A C -0.12877(12) 0.3884(3) -0.7501(3)
C9A C -0.09426(12) 0.4280(3) -0.6853(4)
C10A C -0.08089(14) 0.5546(4) -0.6846(4)
C11A C -0.07204(13) 0.3487(4) -0.6192(4)
H5A H -0.0498 0.3753 -0.5744
C12A C -0.08234(13) 0.2297(3) -0.6184(4)
H6A H -0.0671 0.1778 -0.5728
C13A C -0.11496(12) 0.1886(3) -0.6848(3)
C14A C -0.13800(12) 0.2691(3) -0.7485(3)
H7A H -0.1605 0.2421 -0.7918
C15A C -0.12406(11) 0.0598(3) -0.6949(3)
O1A O -0.28583(12) 0.6291(4) -0.9152(4)
O2A O -0.27237(10) 0.5072(3) -0.7779(3)
H16A H -0.2957 0.5206 -0.7711
O3A O -0.10226(8) 0.6292(2) -0.6505(2)
O4A O -0.04832(15) 0.5752(4) -0.7120(6)
O5A O -0.15325(8) 0.0275(2) -0.7602(2)
O6A O -0.10080(8) -0.0098(2) -0.6398(2)
O7A O -0.12665(11) -0.1828(3) -0.7998(3)
H17A H -0.1380 -0.1192 -0.8112
H18A H -0.1376 -0.2209 -0.8077
O8A O -0.04570(12) -0.1871(3) -0.7019(4)
H19A H -0.0500 -0.1783 -0.7663
H20A H -0.0451 -0.2611 -0.7175
Ni1_2 Ni 0.100534(15) 0.80911(4) 0.14015(4)
Ni1A_2 Ni -0.100534(15) 0.80911(4) -0.64015(4)
Ni1F Ni 0.399466(15) -0.30911(4) -0.14015(4)
N2A N -0.15553(10) -0.2062(3) -0.5856(3)
O3_2 O 0.10226(8) -0.3708(2) 0.1505(2)
O3A_2 O -0.10226(8) -0.3708(2) -0.6505(2)
loop_
_geom_bond_atom_site_label_1
_geom_bond_atom_site_label_2
_geom_bond_site_symmetry_1
_geom_bond_site_symmetry_2
Ni1 N1 1_555 1_555
C1 C2 1_555 1_555
C2 C3 1_555 1_555
C3 H1 1_555 1_555
C4 C3 1_555 1_555
H2 C4 1_555 1_555
C5 C4 1_555 1_555
H3 C5 1_555 1_555
C6 C5 1_555 1_555
C7 C2 1_555 1_555
H4 C7 1_555 1_555
C8 C6 1_555 1_555
C9 C8 1_555 1_555
C10 C9 1_555 1_555
C11 C9 1_555 1_555
H5 C11 1_555 1_555
C12 C11 1_555 1_555
H6 C12 1_555 1_555
C13 C12 1_555 1_555
C14 C8 1_555 1_555
H7 C14 1_555 1_555
C15 C13 1_555 1_555
C16 H8 1_555 1_555
C17 C16 1_555 1_555
H9 C17 1_555 1_555
C18 C17 1_555 1_555
C19 C18 1_555 1_555
H10 C19 1_555 1_555
C20 C19 1_555 1_555
H11 C20 1_555 1_555
C21 H12 1_555 1_555
C22 C21 1_555 1_555
H13 C22 1_555 1_555
C23 C22 1_555 1_555
C24 C23 1_555 1_555
H14 C24 1_555 1_555
C25 C24 1_555 1_555
H15 C25 1_555 1_555
N1 C16 1_555 1_555
N2 Ni1 1_555 1_555
O1 C1 1_555 1_555
O2 C1 1_555 1_555
H16 O2 1_555 1_555
O3 C10 1_555 1_555
O4 C10 1_555 1_555
O5 C15 1_555 1_555
O6 Ni1 1_555 1_555
O7 Ni1 1_555 1_555
H17 O7 1_555 1_555
H18 O7 1_555 1_555
O8 Ni1 1_555 1_555
H19 O8 1_555 1_555
H20 O8 1_555 1_555
C16A H8A 1_555 1_555
C17A C16A 1_555 1_555
H9A C17A 1_555 1_555
C18A C18 1_555 1_555
C19A C18A 1_555 1_555
H10A C19A 1_555 1_555
C20A C19A 1_555 1_555
H11A C20A 1_555 1_555
N1A C16A 1_555 1_555
C21F H12F 1_555 1_555
C22F C21F 1_555 1_555
H13F C22F 1_555 1_555
C23F C23 1_555 1_555
C24F C23F 1_555 1_555
H14F C24F 1_555 1_555
C25F C24F 1_555 1_555
H15F C25F 1_555 1_555
N2F C21F 1_555 1_555
Ni1A N1A 1_555 1_555
C1A C2A 1_555 1_555
C2A C3A 1_555 1_555
C3A H1A 1_555 1_555
C4A C3A 1_555 1_555
H2A C4A 1_555 1_555
C5A C4A 1_555 1_555
H3A C5A 1_555 1_555
C6A C5A 1_555 1_555
C7A C2A 1_555 1_555
H4A C7A 1_555 1_555
C8A C6A 1_555 1_555
C9A C8A 1_555 1_555
C10A C9A 1_555 1_555
C11A C9A 1_555 1_555
H5A C11A 1_555 1_555
C12A C11A 1_555 1_555
H6A C12A 1_555 1_555
C13A C12A 1_555 1_555
C14A C8A 1_555 1_555
H7A C14A 1_555 1_555
C15A C13A 1_555 1_555
O1A C1A 1_555 1_555
O2A C1A 1_555 1_555
H16A O2A 1_555 1_555
O3A C10A 1_555 1_555
O4A C10A 1_555 1_555
O5A C15A 1_555 1_555
O6A Ni1A 1_555 1_555
O7A Ni1A 1_555 1_555
H17A O7A 1_555 1_555
H18A O7A 1_555 1_555
O8A Ni1A 1_555 1_555
H19A O8A 1_555 1_555
H20A O8A 1_555 1_555
Ni1_2 O3 1_555 1_555
Ni1A_2 O3A 1_555 1_555
Ni1F N2F 1_555 1_555
N2A Ni1A 1_555 1_555
O3_2 Ni1 1_555 1_555
O3A_2 Ni1A 1_555 1_555
C6 C7 1_555 1_555
C13 C14 1_555 1_555
C15 O6 1_555 1_555
C20 N1 1_555 1_555
C21 N2 1_555 1_555
C25 N2 1_555 1_555
C17A C18A 1_555 1_555
C20A N1A 1_555 1_555
C22F C23F 1_555 1_555
C25F N2F 1_555 1_555
C6A C7A 1_555 1_555
C13A C14A 1_555 1_555
C15A O6A 1_555 1_555

#END
