
#######################################################################
#
#                 Cambridge Crystallographic Data Centre
#                                CCDC 
#
#######################################################################
#
# If this CIF has been generated from an entry in the Cambridge 
# Structural Database, then it will include bibliographic, chemical, 
# crystal, experimental, refinement or atomic coordinate data resulting 
# from the CCDC's data processing and validation procedures.
#
#######################################################################

data_JUGDUM
_symmetry_cell_setting           monoclinic
_symmetry_space_group_name_H-M   'P 21/c'
_symmetry_Int_Tables_number      14
_space_group_name_Hall           '-P 2ybc'
loop_
_symmetry_equiv_pos_site_id
_symmetry_equiv_pos_as_xyz
1 x,y,z
2 -x,1/2+y,1/2-z
3 -x,-y,-z
4 x,1/2-y,1/2+z
_cell_length_a                   17.5919(10)
_cell_length_b                   8.4719(5)
_cell_length_c                   8.5825(5)
_cell_angle_alpha                90
_cell_angle_beta                 98.9190(10)
_cell_angle_gamma                90
_cell_volume                     1263.64
loop_
_atom_site_label
_atom_site_type_symbol
_atom_site_fract_x
_atom_site_fract_y
_atom_site_fract_z
Zn1 Zn 0.191258(12) 0.50233(2) 0.77747(3)
O1 O 0.10822(8) 0.44841(18) 1.60376(15)
O2 O 0.19228(8) 0.53675(19) 1.45620(18)
O3 O 0.24976(8) 0.30794(18) 0.79950(18)
O4 O 0.32223(10) 0.39381(19) 1.01735(19)
O5 O 0.23029(11) 0.71383(19) 0.76233(19)
N1 N 0.13650(9) 0.52955(19) 0.97026(19)
N2 N 0.08003(10) 0.6394(2) 0.97155(19)
N3 N 0.05092(9) 0.6262(2) 1.09951(19)
N4 N 0.08827(9) 0.50651(18) 1.1829(2)
N5 N 0.41338(9) 0.1323(2) 1.0435(2)
N6 N 0.40958(15) 0.0328(3) 1.1631(3)
N7 N 0.47182(15) 0.0521(3) 1.2617(3)
N8 N 0.51633(11) 0.1629(3) 1.2108(3)
C1 C 0.14064(11) 0.4493(3) 1.1026(2)
C2 C 0.06654(12) 0.4564(3) 1.3323(2)
C3 C 0.12888(11) 0.4847(2) 1.4721(2)
C4 C 0.47831(14) 0.2117(4) 1.0777(3)
C5 C 0.35075(13) 0.1447(3) 0.9113(3)
C6 C 0.30528(11) 0.2965(2) 0.9137(2)
H1 H 0.1733(12) 0.371(3) 1.136(3)
H2 H 0.0208(15) 0.512(3) 1.343(3)
H3 H 0.0540(14) 0.354(3) 1.325(3)
H4 H 0.4914(16) 0.298(4) 1.020(3)
H5 H 0.3177(14) 0.062(3) 0.919(3)
H6 H 0.3686(13) 0.132(3) 0.818(3)
H7 H 0.2665(10) 0.732(3) 0.712(3)
H8 H 0.2331(14) 0.778(3) 0.836(2)
Zn1_2 Zn 0.191258(12) 0.50233(2) 1.77747(3)
O1_2 O 0.10822(8) 0.44841(18) 0.60376(15)
O6 O 0.33366(10) 0.7907(2) 0.5907(2)
H9 H 0.3289(13) 0.886(2) 0.569(3)
H10 H 0.3750(11) 0.776(3) 0.648(3)
loop_
_geom_bond_atom_site_label_1
_geom_bond_atom_site_label_2
_geom_bond_site_symmetry_1
_geom_bond_site_symmetry_2
Zn1 O3 1_555 1_555
O1 C3 1_555 1_555
O2 C3 1_555 1_555
O3 C6 1_555 1_555
O4 C6 1_555 1_555
O5 Zn1 1_555 1_555
N1 Zn1 1_555 1_555
N2 N1 1_555 1_555
N3 N2 1_555 1_555
N4 N3 1_555 1_555
N5 N6 1_555 1_555
N6 N7 1_555 1_555
N7 N8 1_555 1_555
N8 C4 1_555 1_555
C1 N1 1_555 1_555
C2 N4 1_555 1_555
C3 C2 1_555 1_555
C4 N5 1_555 1_555
C5 N5 1_555 1_555
C6 C5 1_555 1_555
H1 C1 1_555 1_555
H2 C2 1_555 1_555
H3 C2 1_555 1_555
H4 C4 1_555 1_555
H5 C5 1_555 1_555
H6 C5 1_555 1_555
H7 O5 1_555 1_555
H8 O5 1_555 1_555
O6 H9 1_555 1_555
H10 O6 1_555 1_555
Zn1_2 O1 1_555 1_555
O1_2 Zn1 1_555 1_555
N4 C1 1_555 1_555

#END
