
#######################################################################
#
#                 Cambridge Crystallographic Data Centre
#                                CCDC 
#
#######################################################################
#
# If this CIF has been generated from an entry in the Cambridge 
# Structural Database, then it will include bibliographic, chemical, 
# crystal, experimental, refinement or atomic coordinate data resulting 
# from the CCDC's data processing and validation procedures.
#
#######################################################################

data_JUGDIA
_symmetry_cell_setting           monoclinic
_symmetry_space_group_name_H-M   'C 2/c'
_symmetry_Int_Tables_number      15
_space_group_name_Hall           '-C 2yn'
loop_
_symmetry_equiv_pos_site_id
_symmetry_equiv_pos_as_xyz
1 x,y,z
2 -x,y,1/2-z
3 1/2+x,1/2+y,z
4 1/2-x,1/2+y,1/2-z
5 -x,-y,-z
6 x,-y,1/2+z
7 1/2-x,1/2-y,-z
8 1/2+x,1/2-y,1/2+z
_cell_length_a                   15.8873(10)
_cell_length_b                   4.9282(3)
_cell_length_c                   30.1864(19)
_cell_angle_alpha                90
_cell_angle_beta                 100.7350(10)
_cell_angle_gamma                90
_cell_volume                     2322.11
loop_
_atom_site_label
_atom_site_type_symbol
_atom_site_fract_x
_atom_site_fract_y
_atom_site_fract_z
Mn1 Mn 0.0000 0.5000 0.0000
O1 O 0.09715(9) 0.2616(3) -0.02142(5)
O2 O 0.08925(9) -0.1573(3) 0.00589(4)
O3 O 0.03939(10) 0.8144(4) 0.20120(5)
O4 O 0.16487(12) 0.9596(4) 0.24027(6)
N1 N 0.17963(11) 0.0999(4) -0.08623(6)
N2 N 0.24663(12) 0.2685(4) -0.08296(7)
N3 N 0.23220(13) 0.4215(5) -0.11815(7)
N4 N 0.15642(15) 0.3602(5) -0.14423(7)
N5 N 0.11975(11) 0.5358(3) 0.14229(5)
N6 N 0.07734(13) 0.3016(4) 0.14412(6)
N7 N 0.03617(12) 0.2542(4) 0.10356(6)
N8 N 0.05188(10) 0.4549(3) 0.07544(5)
C1 C 0.11330(12) 0.0147(4) -0.01931(6)
C2 C 0.17101(16) -0.0920(5) -0.05051(8)
H1 H 0.2273 -0.1302 -0.0329
H2 H 0.1476 -0.2609 -0.0640
C3 C 0.12550(18) 0.1623(6) -0.12339(8)
C4 C 0.11621(14) 0.8160(5) 0.20900(6)
C5 C 0.17080(13) 0.6541(5) 0.18276(6)
H3 H 0.2143 0.7712 0.1743
H4 H 0.1996 0.5104 0.2017
C6 C 0.10349(13) 0.6256(4) 0.10016(6)
H5 H 0.1263(13) 0.778(5) 0.0912(7)
H6 H 0.074(2) 0.080(7) -0.1340(10)
H7 H 0.1378(19) 1.052(7) 0.2532(11)
O1D O -0.09715(9) -0.2616(3) 0.02142(5)
O2D O -0.08925(9) 0.1573(3) -0.00589(4)
N1D N -0.17963(11) -0.0999(4) 0.08623(6)
N2D N -0.24663(12) -0.2685(4) 0.08296(7)
N3D N -0.23220(13) -0.4215(5) 0.11815(7)
N4D N -0.15642(15) -0.3602(5) 0.14423(7)
C1D C -0.11330(12) -0.0147(4) 0.01931(6)
C2D C -0.17101(16) 0.0920(5) 0.05051(8)
H1D H -0.2273 0.1302 0.0329
H2D H -0.1476 0.2609 0.0640
C3D C -0.12550(18) -0.1623(6) 0.12339(8)
H6D H -0.074(2) -0.080(7) 0.1340(10)
O3D O -0.03939(10) 0.1856(4) -0.20120(5)
O4D O -0.16487(12) 0.0404(4) -0.24027(6)
N5D N -0.11975(11) 0.4642(3) -0.14229(5)
N6D N -0.07734(13) 0.6984(4) -0.14412(6)
N7D N -0.03617(12) 0.7458(4) -0.10356(6)
N8D N -0.05188(10) 0.5451(3) -0.07544(5)
C4D C -0.11621(14) 0.1840(5) -0.20900(6)
C5D C -0.17080(13) 0.3459(5) -0.18276(6)
H3D H -0.2143 0.2288 -0.1743
H4D H -0.1996 0.4896 -0.2017
C6D C -0.10349(13) 0.3744(4) -0.10016(6)
H5D H -0.1263(13) 0.222(5) -0.0912(7)
H7D H -0.1378(19) -0.052(7) -0.2532(11)
Mn1_2 Mn 0.0000 -0.5000 0.0000
O1D_2 O -0.09715(9) 0.7384(3) 0.02142(5)
O2_2 O 0.08925(9) 0.8427(3) 0.00589(4)
O5 O 0.08085(16) 0.2830(5) 0.28318(8)
H8 H 0.094(2) 0.336(6) 0.3096(6)
H9 H 0.098(2) 0.396(6) 0.2661(8)
loop_
_geom_bond_atom_site_label_1
_geom_bond_atom_site_label_2
_geom_bond_site_symmetry_1
_geom_bond_site_symmetry_2
Mn1 O1 1_555 1_555
O1 C1 1_555 1_555
O2 C1 1_555 1_555
O3 C4 1_555 1_555
O4 C4 1_555 1_555
N1 N2 1_555 1_555
N2 N3 1_555 1_555
N3 N4 1_555 1_555
N4 C3 1_555 1_555
N5 N6 1_555 1_555
N6 N7 1_555 1_555
N7 N8 1_555 1_555
N8 Mn1 1_555 1_555
C1 C2 1_555 1_555
C2 N1 1_555 1_555
H1 C2 1_555 1_555
H2 C2 1_555 1_555
C3 N1 1_555 1_555
C4 C5 1_555 1_555
C5 N5 1_555 1_555
H3 C5 1_555 1_555
H4 C5 1_555 1_555
C6 N5 1_555 1_555
H5 C6 1_555 1_555
H6 C3 1_555 1_555
H7 O4 1_555 1_555
O5 H8 1_555 1_555
H9 O5 1_555 1_555
O1D C1D 1_555 1_555
O2D Mn1 1_555 1_555
N1D N2D 1_555 1_555
N2D N3D 1_555 1_555
N3D N4D 1_555 1_555
N4D C3D 1_555 1_555
C1D O2D 1_555 1_555
C2D N1D 1_555 1_555
H1D C2D 1_555 1_555
H2D C2D 1_555 1_555
C3D N1D 1_555 1_555
H6D C3D 1_555 1_555
O3D C4D 1_555 1_555
O4D C4D 1_555 1_555
N5D N6D 1_555 1_555
N6D N7D 1_555 1_555
N7D N8D 1_555 1_555
N8D Mn1 1_555 1_555
C4D C5D 1_555 1_555
C5D N5D 1_555 1_555
H3D C5D 1_555 1_555
H4D C5D 1_555 1_555
C6D N5D 1_555 1_555
H5D C6D 1_555 1_555
H7D O4D 1_555 1_555
Mn1_2 O2 1_555 1_555
O1D_2 Mn1 1_555 1_555
O2_2 Mn1 1_555 1_555
N8 C6 1_555 1_555
O1D Mn1_2 1_555 1_555
C1D C2D 1_555 1_555
N8D C6D 1_555 1_555

#END
