
#######################################################################
#
#                 Cambridge Crystallographic Data Centre
#                                CCDC 
#
#######################################################################
#
# If this CIF has been generated from an entry in the Cambridge 
# Structural Database, then it will include bibliographic, chemical, 
# crystal, experimental, refinement or atomic coordinate data resulting 
# from the CCDC's data processing and validation procedures.
#
#######################################################################

data_JUGGOJ
_symmetry_cell_setting           triclinic
_symmetry_space_group_name_H-M   'P -1'
_symmetry_Int_Tables_number      2
_space_group_name_Hall           '-P 1'
loop_
_symmetry_equiv_pos_site_id
_symmetry_equiv_pos_as_xyz
1 x,y,z
2 -x,-y,-z
_cell_length_a                   15.700(13)
_cell_length_b                   25.45(2)
_cell_length_c                   25.65(2)
_cell_angle_alpha                98.882(18)
_cell_angle_beta                 90.229(12)
_cell_angle_gamma                107.872(12)
_cell_volume                     9622.91
loop_
_atom_site_label
_atom_site_type_symbol
_atom_site_fract_x
_atom_site_fract_y
_atom_site_fract_z
V1 V 1.15902(8) 0.33920(5) 0.26058(5)
V2 V 1.10714(8) 0.24735(5) 0.32451(5)
V3 V 0.87946(8) 0.18131(5) 0.15977(5)
V4 V 1.06860(8) 0.33517(5) 0.39091(5)
V5 V 0.92976(8) 0.18884(5) 0.36518(5)
V6 V 0.76663(8) 0.14007(5) 0.25267(5)
V7 V 1.00718(9) 0.29655(5) 0.14398(5)
V8 V 1.06914(8) 0.40353(5) 0.20424(5)
V9 V 0.73864(8) 0.18606(5) 0.35319(5)
V10 V 0.64371(8) 0.24075(5) 0.28633(5)
V11 V 0.92732(8) 0.39654(5) 0.38544(4)
V12 V 0.87689(8) 0.39288(5) 0.18210(5)
V13 V 0.69784(8) 0.32294(5) 0.21157(5)
V14 V 0.77449(8) 0.38877(5) 0.30805(5)
V15 V 0.81990(8) 0.66076(5) 0.23943(5)
V16 V 0.85967(8) 0.75262(5) 0.17548(5)
V17 V 0.73351(8) 0.66493(5) 0.10909(5)
V18 V 0.66571(8) 0.59648(5) 0.29571(5)
V19 V 0.53072(8) 0.60345(5) 0.11452(4)
V20 V 0.71063(8) 0.70340(5) 0.35596(5)
V21 V 0.48416(8) 0.60713(5) 0.31789(5)
V22 V 0.74087(8) 0.81118(5) 0.13472(5)
V23 V 0.55265(8) 0.81396(5) 0.14681(5)
V24 V 0.62650(8) 0.86000(5) 0.24721(5)
V25 V 0.69823(8) 0.81874(5) 0.34025(5)
V26 V 0.38568(8) 0.61124(5) 0.19196(4)
V27 V 0.37499(8) 0.67707(5) 0.28848(5)
V28 V 0.40311(8) 0.75923(5) 0.21369(5)
As1 As 0.88884(5) 0.78599(3) 0.31048(3)
As2 As 0.84019(5) 0.87382(3) 0.24900(3)
As3 As 0.59618(5) 0.71595(3) 0.05187(3)
As4 As 0.40112(5) 0.68524(3) 0.09872(3)
As5 As 0.68471(5) 0.55341(3) 0.16504(3)
As6 As 0.48802(5) 0.52143(3) 0.20978(3)
As7 As 0.52843(5) 0.72820(3) 0.39446(3)
As8 As 0.48078(5) 0.81698(3) 0.33385(3)
As9 As 0.88028(5) 0.28406(3) 0.44812(3)
As10 As 0.71604(5) 0.31480(3) 0.40126(3)
As11 As 0.96658(5) 0.47861(3) 0.29020(3)
As12 As 1.13135(5) 0.44661(3) 0.33492(3)
As13 As 1.10285(5) 0.21403(3) 0.18953(3)
As14 As 0.96641(5) 0.12614(3) 0.25092(3)
As15 As 0.80017(5) 0.27177(3) 0.10554(3)
As16 As 0.66373(5) 0.18302(3) 0.16607(3)
Cd1 Cd 0.70281(3) 0.50460(2) 0.38684(2)
Cd2 Cd 0.19826(3) 0.49546(2) 0.11314(2)
O1 O 0.6687(3) 0.84310(19) 0.18008(18)
O2 O 0.8253(3) 0.15668(19) 0.31985(18)
O3 O 0.7827(3) 0.3043(2) 0.45085(18)
O4 O 0.4782(3) 0.6955(2) 0.04916(19)
O5 O 0.5798(3) 0.5086(2) 0.1776(2)
O6 O 0.7117(3) 0.5955(2) 0.22563(18)
O7 O 1.1354(3) 0.3266(2) 0.33058(18)
O8 O 0.9461(3) 0.3338(2) 0.41355(19)
O9 O 0.9781(3) 0.4362(2) 0.23329(18)
O10 O 1.0997(3) 0.3366(2) 0.19532(18)
O11 O 1.0275(3) 0.2558(2) 0.37911(18)
O12 O 1.0714(3) 0.4916(2) 0.3223(2)
O13 O 1.1164(3) 0.4044(2) 0.27417(18)
O14 O 0.8090(3) 0.67346(19) 0.16918(18)
O15 O 0.5393(3) 0.2206(2) 0.2906(2)
O16 O 0.3183(4) 0.7792(2) 0.2094(2)
O17 O 0.7632(3) 0.6635(2) 0.30468(18)
O18 O 0.7369(3) 0.8506(2) 0.27715(19)
O19 O 0.9052(3) 0.8515(2) 0.2906(2)
O20 O 0.4431(3) 0.6423(2) 0.13102(18)
O21 O 0.6124(3) 0.6661(2) 0.08677(19)
O22 O 1.1220(3) 0.25659(19) 0.25034(18)
O23 O 0.7714(3) 0.74422(19) 0.12110(17)
O24 O 0.8005(3) 0.3574(2) 0.36926(18)
O25 O 0.6912(3) 0.1800(2) 0.28385(19)
O26 O 0.7334(4) 0.8649(2) 0.3891(2)
O27 O 0.5419(3) 0.56431(19) 0.26654(18)
O28 O 1.0536(3) 0.1483(2) 0.2093(2)
O29 O 0.8652(3) 0.7435(2) 0.24979(18)
O30 O 0.6980(3) 0.2527(2) 0.35857(19)
O31 O 0.3672(3) 0.68095(19) 0.21486(18)
O32 O 0.4451(3) 0.74710(19) 0.14132(19)
O33 O 0.6864(3) 0.3194(2) 0.28492(18)
O34 O 0.4043(3) 0.6106(2) 0.26392(18)
O35 O 1.0040(3) 0.1786(2) 0.30475(19)
O36 O 0.7852(3) 0.3196(2) 0.15677(18)
O37 O 0.4238(3) 0.7585(2) 0.28945(19)
O38 O 0.9692(3) 0.36145(19) 0.15942(18)
O39 O 0.8258(3) 0.8219(2) 0.19512(18)
O40 O 0.7938(3) 0.38867(19) 0.23637(18)
O41 O 0.7611(3) 0.1720(2) 0.18800(19)
O42 O 0.8799(3) 0.2503(2) 0.13554(19)
O43 O 0.6653(3) 0.2416(2) 0.21045(19)
O44 O 0.4782(3) 0.5749(2) 0.17650(18)
O45 O 0.6195(3) 0.7717(2) 0.10267(18)
O46 O 0.7800(3) 0.7743(2) 0.33142(19)
O47 O 0.6077(3) 0.6387(2) 0.34038(18)
O48 O 0.9033(3) 0.4253(2) 0.32335(18)
O49 O 0.8865(3) 0.1495(2) 0.22272(19)
O50 O 0.4904(3) 0.5568(2) 0.06670(18)
O51 O 0.5110(3) 0.8197(2) 0.21593(19)
O52 O 0.4653(3) 0.6802(2) 0.34330(18)
O53 O 0.6476(3) 0.5990(2) 0.13299(19)
O54 O 0.8480(3) 0.2283(2) 0.39718(19)
O55 O 1.1405(3) 0.4491(2) 0.1775(2)
O56 O 0.9580(3) 0.7700(2) 0.1561(2)
O57 O 0.4917(3) 0.7861(2) 0.38843(19)
O58 O 1.0485(3) 0.4009(2) 0.36665(19)
O59 O 0.6298(3) 0.7499(2) 0.36397(19)
O60 O 0.9002(4) 0.6382(2) 0.2451(2)
O61 O 0.2931(3) 0.5659(2) 0.17119(19)
O62 O 0.9337(3) 0.4431(2) 0.43342(18)
O63 O 0.7505(4) 0.7044(2) 0.4114(2)
O64 O 1.1341(4) 0.3570(2) 0.4405(2)
O65 O 0.5891(3) 0.8278(2) 0.31187(19)
O66 O 1.0462(4) 0.2957(2) 0.0886(2)
O67 O 1.1881(3) 0.2307(2) 0.3440(2)
O68 O 0.7769(4) 0.6432(2) 0.0596(2)
O69 O 0.7272(3) 0.4342(2) 0.3287(2)
O70 O 0.8686(4) 0.1352(2) 0.1109(2)
O71 O 0.6909(4) 0.5509(2) 0.3227(2)
O72 O 1.0055(3) 0.2256(2) 0.16894(19)
O73 O 0.7055(3) 0.2142(2) 0.1116(2)
O74 O 0.9368(4) 0.1473(2) 0.4038(2)
O75 O 0.6166(4) 0.3365(2) 0.1874(2)
O76 O 1.2620(3) 0.3618(2) 0.2550(2)
O77 O 0.8652(4) 0.4341(2) 0.1454(2)
O78 O 0.5338(4) 0.8572(2) 0.1142(2)
O79 O 0.2801(4) 0.6634(2) 0.3126(2)
O80 O 0.4306(4) 0.5661(2) 0.3545(2)
O81 O 0.7894(3) 0.8527(2) 0.0963(2)
O82 O 0.7099(4) 0.0769(2) 0.2406(2)
O83 O 0.6768(4) 0.1430(2) 0.3854(2)
O84 O 0.6335(4) 0.9232(2) 0.2592(2)
C1 C 0.7113(5) 0.4368(3) 0.4810(3)
H1 H 0.6562 0.4137 0.4654
C2 C 0.7392(5) 0.4261(3) 0.5271(3)
C3 C 0.8193(6) 0.4612(3) 0.5492(3)
H2 H 0.8421 0.4557 0.5807
C4 C 0.8661(6) 0.5045(3) 0.5248(3)
H3 H 0.9195 0.5296 0.5407
C5 C 0.8355(5) 0.5109(3) 0.4781(3)
C6 C 0.8869(5) 0.5535(3) 0.4472(3)
C7 C 0.9761(5) 0.5815(3) 0.4591(3)
H4 H 1.0052 0.5749 0.4879
C8 C 1.0218(6) 0.6186(4) 0.4288(3)
H5 H 1.0824 0.6375 0.4368
C9 C 0.9801(6) 0.6285(4) 0.3870(4)
C10 C 0.8919(6) 0.5990(4) 0.3771(3)
H6 H 0.8618 0.6050 0.3484
C11 C 1.0302(8) 0.6686(6) 0.3526(5)
H7 H 1.0032 0.6976 0.3524
H8 H 1.0283 0.6490 0.3172
H9 H 1.0914 0.6848 0.3659
C12 C 0.6863(6) 0.3778(4) 0.5509(4)
H10 H 0.6503 0.3899 0.5774
H11 H 0.7262 0.3620 0.5669
H12 H 0.6482 0.3500 0.5240
C13 C 0.2746(5) 0.5634(3) 0.0190(3)
H13 H 0.2429 0.5866 0.0345
C14 C 0.3129(5) 0.5741(3) -0.0270(3)
C15 C 0.3578(5) 0.5388(3) -0.0491(3)
H14 H 0.3854 0.5442 -0.0807
C16 C 0.3621(5) 0.4956(3) -0.0247(3)
H15 H 0.3910 0.4707 -0.0403
C17 C 0.3241(5) 0.4889(3) 0.0224(3)
C18 C 0.3338(5) 0.4465(3) 0.0526(3)
C19 C 0.3946(6) 0.4186(3) 0.0407(3)
H16 H 0.4301 0.4249 0.0120
C20 C 0.4022(6) 0.3818(4) 0.0713(4)
H17 H 0.4436 0.3626 0.0635
C21 C 0.3513(7) 0.3722(4) 0.1128(4)
C22 C 0.2927(6) 0.4014(4) 0.1223(3)
H18 H 0.2561 0.3951 0.1506
C23 C 0.3604(10) 0.3321(6) 0.1471(5)
H19 H 0.3299 0.2946 0.1300
H20 H 0.3346 0.3394 0.1802
H21 H 0.4228 0.3365 0.1532
C24 C 0.3090(7) 0.6223(4) -0.0513(4)
H22 H 0.2804 0.6445 -0.0284
H23 H 0.2754 0.6091 -0.0847
H24 H 0.3687 0.6448 -0.0568
C25 C 0.1204(5) 0.5971(3) 0.1433(3)
H25 H 0.1780 0.6147 0.1585
C26 C 0.0578(6) 0.6253(4) 0.1509(4)
C27 C -0.0244(6) 0.5980(4) 0.1282(4)
H26 H -0.0692 0.6150 0.1327
C28 C -0.0432(5) 0.5474(3) 0.0994(3)
H27 H -0.1004 0.5293 0.0839
C29 C 0.0222(5) 0.5220(3) 0.0928(3)
C30 C 0.0077(5) 0.4668(3) 0.0605(3)
C31 C -0.0698(6) 0.4382(4) 0.0316(3)
H28 H -0.1169 0.4532 0.0319
C32 C -0.0782(6) 0.3876(4) 0.0022(4)
H29 H -0.1316 0.3677 -0.0172
C33 C -0.0091(6) 0.3658(3) 0.0008(3)
C34 C 0.0662(5) 0.3973(3) 0.0308(3)
H30 H 0.1146 0.3834 0.0311
C35 C -0.0159(7) 0.3104(4) -0.0305(4)
H31 H -0.0667 0.2989 -0.0553
H32 H -0.0230 0.2834 -0.0072
H33 H 0.0377 0.3130 -0.0492
C36 C 0.0838(7) 0.6817(4) 0.1838(5)
H34 H 0.0828 0.7090 0.1621
H35 H 0.1431 0.6902 0.1995
H36 H 0.0423 0.6822 0.2112
C37 C 0.5222(5) 0.4029(3) 0.3559(3)
H37 H 0.5621 0.3858 0.3398
C38 C 0.4331(5) 0.3745(4) 0.3487(4)
C39 C 0.3780(5) 0.4014(4) 0.3718(4)
H38 H 0.3164 0.3838 0.3677
C40 C 0.4092(5) 0.4527(4) 0.4005(3)
H39 H 0.3697 0.4707 0.4156
C41 C 0.4998(5) 0.4783(3) 0.4073(3)
C42 C 0.5410(5) 0.5333(3) 0.4392(3)
C43 C 0.4914(6) 0.5616(4) 0.4681(3)
H40 H 0.4293 0.5465 0.4677
C44 C 0.5341(6) 0.6120(4) 0.4976(3)
H41 H 0.5008 0.6318 0.5171
C45 C 0.6239(6) 0.6339(3) 0.4992(3)
C46 C 0.6688(5) 0.6032(3) 0.4692(3)
H42 H 0.7308 0.6176 0.4689
C47 C 0.4019(6) 0.3180(4) 0.3169(5)
H43 H 0.3473 0.2966 0.3301
H44 H 0.4467 0.2998 0.3192
H45 H 0.3915 0.3209 0.2807
C48 C 0.6735(7) 0.6889(4) 0.5310(4)
H46 H 0.6826 0.7176 0.5094
H47 H 0.7306 0.6878 0.5435
H48 H 0.6396 0.6968 0.5605
N1 N 0.7569(4) 0.4776(2) 0.4569(2)
N2 N 0.8467(4) 0.5622(3) 0.4063(2)
N3 N 0.6284(4) 0.5544(3) 0.4409(2)
N4 N 0.5556(4) 0.4530(3) 0.3840(2)
N5 N 0.2794(4) 0.5223(2) 0.0433(2)
N6 N 0.2847(4) 0.4383(3) 0.0934(2)
N7 N 0.1026(4) 0.5467(3) 0.1156(2)
N8 N 0.0740(4) 0.4456(2) 0.0591(2)
Cd2_2 Cd 1.19826(3) 0.49546(2) 0.11314(2)
O55_2 O 0.1405(3) 0.4491(2) 0.1775(2)
Cd3 Cd 0.78921(4) 0.06972(3) 0.56034(2)
C49 C 0.9591(6) 0.1621(4) 0.5291(3)
H49 H 0.9162 0.1776 0.5192
C50 C 1.0466(6) 0.1932(4) 0.5298(3)
C51 C 1.1061(6) 0.1706(4) 0.5453(4)
H50 H 1.1667 0.1909 0.5476
C52 C 1.0798(6) 0.1184(4) 0.5579(4)
H51 H 1.1224 0.1030 0.5683
C53 C 0.9912(6) 0.0885(4) 0.5553(3)
C54 C 0.9557(7) 0.0320(4) 0.5664(3)
C55 C 1.0071(9) -0.0017(5) 0.5720(4)
H52 H 1.0691 0.0130 0.5715
C56 C 0.9713(12) -0.0544(6) 0.5781(5)
H53 H 1.0083 -0.0763 0.5809
C57 C 0.8826(11) -0.0767(4) 0.5802(4)
C58 C 0.8318(9) -0.0413(4) 0.5744(4)
H54 H 0.7697 -0.0554 0.5747
C59 C 0.8360(12) -0.1360(5) 0.5846(5)
H55 H 0.8359 -0.1593 0.5513
H56 H 0.7754 -0.1401 0.5938
H57 H 0.8666 -0.1470 0.6114
C60 C 1.0741(7) 0.2494(4) 0.5128(4)
H58 H 1.0883 0.2781 0.5434
H59 H 1.0258 0.2529 0.4919
H60 H 1.1258 0.2532 0.4920
C61 C 0.7678(6) 0.0390(3) 0.4371(4)
H61 H 0.8213 0.0683 0.4394
C62 C 0.7371(6) 0.0082(3) 0.3886(3)
C63 C 0.6613(7) -0.0352(4) 0.3885(4)
H62 H 0.6380 -0.0587 0.3569
C64 C 0.6185(7) -0.0452(4) 0.4333(4)
H63 H 0.5662 -0.0752 0.4321
C65 C 0.6514(6) -0.0121(3) 0.4791(3)
C66 C 0.6078(6) -0.0192(4) 0.5288(4)
C67 C 0.5243(8) -0.0529(5) 0.5323(4)
H64 H 0.4930 -0.0755 0.5019
C68 C 0.4852(9) -0.0549(6) 0.5779(5)
H65 H 0.4266 -0.0779 0.5793
C69 C 0.5308(9) -0.0236(6) 0.6222(5)
C70 C 0.6147(7) 0.0091(5) 0.6165(4)
H66 H 0.6475 0.0314 0.6466
C71 C 0.4920(10) -0.0247(8) 0.6757(5)
H67 H 0.4300 -0.0468 0.6717
H68 H 0.4973 0.0128 0.6921
H69 H 0.5241 -0.0407 0.6973
C72 C 0.7859(8) 0.0202(4) 0.3412(4)
H70 H 0.7544 -0.0061 0.3112
H71 H 0.8449 0.0172 0.3455
H72 H 0.7905 0.0575 0.3359
C73 C 0.8516(6) 0.0921(4) 0.6820(4)
H73 H 0.8605 0.0575 0.6729
C74 C 0.8741(7) 0.1188(5) 0.7323(4)
C75 C 0.8650(9) 0.1707(6) 0.7426(5)
H74 H 0.8823 0.1918 0.7761
C76 C 0.8325(8) 0.1920(5) 0.7065(4)
H75 H 0.8263 0.2275 0.7145
C77 C 0.8078(6) 0.1608(4) 0.6564(3)
C78 C 0.7675(5) 0.1797(3) 0.6155(3)
C79 C 0.7454(6) 0.2280(4) 0.6221(4)
H76 H 0.7623 0.2529 0.6536
C80 C 0.7002(6) 0.2400(4) 0.5843(4)
H77 H 0.6850 0.2729 0.5900
C81 C 0.6758(6) 0.2053(4) 0.5374(4)
C82 C 0.7042(6) 0.1587(4) 0.5316(4)
H78 H 0.6916 0.1347 0.4994
C83 C 0.6180(7) 0.2131(4) 0.4968(4)
H79 H 0.5565 0.1950 0.5031
H80 H 0.6318 0.1971 0.4628
H81 H 0.6275 0.2523 0.4978
C84 C 0.9089(8) 0.0930(6) 0.7717(4)
H82 H 0.8646 0.0821 0.7969
H83 H 0.9623 0.1195 0.7895
H84 H 0.9226 0.0606 0.7542
N9 N 0.9305(5) 0.1113(3) 0.5416(3)
N10 N 0.8683(6) 0.0112(3) 0.5685(3)
N11 N 0.7263(5) 0.0298(3) 0.4809(3)
N12 N 0.6529(5) 0.0114(3) 0.5718(3)
N13 N 0.8184(5) 0.1117(3) 0.6454(3)
N14 N 0.7482(4) 0.1462(3) 0.5692(3)
Cd4 Cd 0.28049(4) 0.06969(3) 0.06038(2)
C85 C 0.2038(6) 0.1616(4) 0.0292(3)
H85 H 0.2621 0.1770 0.0194
C86 C 0.1460(7) 0.1933(4) 0.0298(3)
C87 C 0.0628(7) 0.1700(4) 0.0454(4)
H86 H 0.0220 0.1900 0.0477
C88 C 0.0386(6) 0.1182(5) 0.0577(4)
H87 H -0.0193 0.1025 0.0680
C89 C 0.0973(6) 0.0883(4) 0.0554(3)
C90 C 0.0762(7) 0.0317(4) 0.0659(3)
C91 C -0.0089(8) -0.0017(5) 0.0716(5)
H88 H -0.0563 0.0129 0.0703
C92 C -0.0253(10) -0.0535(6) 0.0787(5)
H89 H -0.0839 -0.0750 0.0826
C93 C 0.0417(10) -0.0765(4) 0.0806(4)
C94 C 0.1272(8) -0.0417(4) 0.0745(4)
H90 H 0.1753 -0.0558 0.0746
C95 C 0.0278(11) -0.1362(5) 0.0849(5)
H91 H -0.0232 -0.1494 0.1053
H92 H 0.0801 -0.1395 0.1019
H93 H 0.0175 -0.1582 0.0502
C96 C 0.1760(7) 0.2492(4) 0.0128(4)
H94 H 0.1350 0.2503 -0.0145
H95 H 0.2349 0.2557 -0.0003
H96 H 0.1775 0.2776 0.0425
C97 C 0.2721(6) 0.0389(3) -0.0632(4)
H97 H 0.2485 0.0685 -0.0616
C98 C 0.2717(6) 0.0080(3) -0.1109(3)
C99 C 0.3035(7) -0.0350(4) -0.1111(4)
H98 H 0.3039 -0.0580 -0.1430
C100 C 0.3352(7) -0.0461(4) -0.0663(4)
H99 H 0.3562 -0.0766 -0.0671
C101 C 0.3357(6) -0.0119(3) -0.0204(3)
C102 C 0.3723(7) -0.0189(4) 0.0287(4)
C103 C 0.4240(9) -0.0529(5) 0.0324(4)
H100 H 0.4334 -0.0750 0.0019
C104 C 0.4611(10) -0.0552(5) 0.0781(5)
H101 H 0.4975 -0.0777 0.0797
C105 C 0.4453(10) -0.0243(6) 0.1223(5)
C106 C 0.3935(8) 0.0086(5) 0.1162(4)
H102 H 0.3829 0.0307 0.1463
C107 C 0.4825(12) -0.0258(8) 0.1759(5)
H103 H 0.5302 -0.0421 0.1720
H104 H 0.4359 -0.0479 0.1949
H105 H 0.5051 0.0116 0.1952
C108 C 0.2348(8) 0.0212(4) -0.1588(4)
H106 H 0.2809 0.0301 -0.1834
H107 H 0.2132 0.0526 -0.1491
H108 H 0.1862 -0.0106 -0.1749
C109 C 0.2405(7) 0.0925(4) 0.1820(4)
H109 H 0.1976 0.0576 0.1731
C110 C 0.2444(8) 0.1196(5) 0.2325(4)
C111 C 0.3058(10) 0.1708(6) 0.2428(5)
H110 H 0.3108 0.1918 0.2764
C112 C 0.3597(8) 0.1919(5) 0.2059(5)
H111 H 0.4015 0.2274 0.2137
C113 C 0.3531(6) 0.1610(4) 0.1562(4)
C114 C 0.4116(6) 0.1793(4) 0.1158(3)
C115 C 0.4832(6) 0.2282(4) 0.1224(4)
H112 H 0.4917 0.2532 0.1539
C116 C 0.5401(6) 0.2402(4) 0.0844(4)
H113 H 0.5880 0.2732 0.0900
C117 C 0.5297(6) 0.2052(4) 0.0375(4)
C118 C 0.4544(6) 0.1588(4) 0.0324(3)
H114 H 0.4429 0.1346 0.0003
C119 C 0.5958(6) 0.2136(4) -0.0030(4)
H115 H 0.6181 0.2526 -0.0056
H116 H 0.5680 0.1927 -0.0364
H117 H 0.6445 0.2009 0.0064
C120 C 0.1845(9) 0.0934(6) 0.2717(4)
H118 H 0.1568 0.1195 0.2894
H119 H 0.2186 0.0830 0.2972
H120 H 0.1390 0.0607 0.2543
N15 N 0.1811(5) 0.1117(3) 0.0416(3)
N16 N 0.1421(6) 0.0109(3) 0.0684(3)
N17 N 0.3034(5) 0.0302(3) -0.0186(3)
N18 N 0.3577(5) 0.0115(3) 0.0714(3)
N19 N 0.2927(5) 0.1118(3) 0.1449(3)
N20 N 0.3988(5) 0.1464(3) 0.0691(3)
O85 O 0.9053(9) 0.2905(5) 0.2729(5)
O86 O 0.6151(9) 0.7093(5) 0.2268(5)
O87 O 0.374(2) 0.8961(10) 0.2615(12)
O88 O 0.7370(9) 0.4839(6) 0.2259(5)
O89 O 0.478(2) 0.1016(11) 0.2402(14)
O90 O 0.2464(11) 0.5133(7) 0.2782(6)
loop_
_geom_bond_atom_site_label_1
_geom_bond_atom_site_label_2
_geom_bond_site_symmetry_1
_geom_bond_site_symmetry_2
V1 O7 1_555 1_555
V2 O7 1_555 1_555
V3 O41 1_555 1_555
V4 O7 1_555 1_555
V5 O2 1_555 1_555
V6 V9 1_555 1_555
V7 V8 1_555 1_555
V8 O9 1_555 1_555
V9 O2 1_555 1_555
V10 O15 1_555 1_555
V11 O8 1_555 1_555
V12 O9 1_555 1_555
V13 V14 1_555 1_555
V14 O24 1_555 1_555
V15 O6 1_555 1_555
V16 V17 1_555 1_555
V17 O14 1_555 1_555
V18 V20 1_555 1_555
V19 O20 1_555 1_555
V20 O17 1_555 1_555
V21 O27 1_555 1_555
V22 O1 1_555 1_555
V23 V24 1_555 1_555
V24 O1 1_555 1_555
V25 O18 1_555 1_555
V26 V27 1_555 1_555
V27 O31 1_555 1_555
V28 O16 1_555 1_555
As1 O19 1_555 1_555
As2 O18 1_555 1_555
As3 O4 1_555 1_555
As4 O4 1_555 1_555
As5 O5 1_555 1_555
As6 O5 1_555 1_555
As7 O52 1_555 1_555
As8 O37 1_555 1_555
As9 O3 1_555 1_555
As10 O3 1_555 1_555
As11 O9 1_555 1_555
As12 O12 1_555 1_555
As13 O22 1_555 1_555
As14 O28 1_555 1_555
As15 O36 1_555 1_555
As16 O41 1_555 1_555
Cd1 O69 1_555 1_555
Cd2 O61 1_555 1_555
O1 V23 1_555 1_555
O2 V6 1_555 1_555
O6 V18 1_555 1_555
O8 V4 1_555 1_555
O10 V1 1_555 1_555
O11 V2 1_555 1_555
O12 As11 1_555 1_555
O13 V1 1_555 1_555
O14 V15 1_555 1_555
O17 V15 1_555 1_555
O18 V24 1_555 1_555
O19 As2 1_555 1_555
O20 V26 1_555 1_555
O21 V17 1_555 1_555
O22 V1 1_555 1_555
O23 V16 1_555 1_555
O24 V11 1_555 1_555
O25 V6 1_555 1_555
O26 V25 1_555 1_555
O27 V18 1_555 1_555
O28 As13 1_555 1_555
O29 V15 1_555 1_555
O30 V9 1_555 1_555
O31 V26 1_555 1_555
O32 V23 1_555 1_555
O33 V10 1_555 1_555
O34 V21 1_555 1_555
O35 V2 1_555 1_555
O36 V12 1_555 1_555
O37 V27 1_555 1_555
O38 V7 1_555 1_555
O39 V16 1_555 1_555
O40 V12 1_555 1_555
O41 V6 1_555 1_555
O42 V3 1_555 1_555
O43 V10 1_555 1_555
O44 V19 1_555 1_555
O45 V22 1_555 1_555
O46 V20 1_555 1_555
O47 V18 1_555 1_555
O48 V11 1_555 1_555
O49 V3 1_555 1_555
O50 V19 1_555 1_555
O51 V23 1_555 1_555
O52 V21 1_555 1_555
O53 V17 1_555 1_555
O54 V5 1_555 1_555
O55 V8 1_555 1_555
O56 V16 1_555 1_555
O57 As7 1_555 1_555
O58 V4 1_555 1_555
O59 V20 1_555 1_555
O60 V15 1_555 1_555
O61 V26 1_555 1_555
O62 V11 1_555 1_555
O63 V20 1_555 1_555
O64 V4 1_555 1_555
O65 V24 1_555 1_555
O66 V7 1_555 1_555
O67 V2 1_555 1_555
O68 V17 1_555 1_555
O69 V14 1_555 1_555
O70 V3 1_555 1_555
O71 V18 1_555 1_555
O72 V3 1_555 1_555
O73 As15 1_555 1_555
O74 V5 1_555 1_555
O75 V13 1_555 1_555
O76 V1 1_555 1_555
O77 V12 1_555 1_555
O78 V23 1_555 1_555
O79 V27 1_555 1_555
O80 V21 1_555 1_555
O81 V22 1_555 1_555
O82 V6 1_555 1_555
O83 V9 1_555 1_555
O84 V24 1_555 1_555
C1 H1 1_555 1_555
C2 C1 1_555 1_555
C3 C2 1_555 1_555
H2 C3 1_555 1_555
C4 C3 1_555 1_555
H3 C4 1_555 1_555
C5 C4 1_555 1_555
C6 C5 1_555 1_555
C7 C6 1_555 1_555
H4 C7 1_555 1_555
C8 C7 1_555 1_555
H5 C8 1_555 1_555
C9 C8 1_555 1_555
C10 C9 1_555 1_555
H6 C10 1_555 1_555
C11 C9 1_555 1_555
H7 C11 1_555 1_555
H8 C11 1_555 1_555
H9 C11 1_555 1_555
C12 C2 1_555 1_555
H10 C12 1_555 1_555
H11 C12 1_555 1_555
H12 C12 1_555 1_555
C13 H13 1_555 1_555
C14 C13 1_555 1_555
C15 C14 1_555 1_555
H14 C15 1_555 1_555
C16 C15 1_555 1_555
H15 C16 1_555 1_555
C17 C16 1_555 1_555
C18 C17 1_555 1_555
C19 C18 1_555 1_555
H16 C19 1_555 1_555
C20 C19 1_555 1_555
H17 C20 1_555 1_555
C21 C20 1_555 1_555
C22 C21 1_555 1_555
H18 C22 1_555 1_555
C23 C21 1_555 1_555
H19 C23 1_555 1_555
H20 C23 1_555 1_555
H21 C23 1_555 1_555
C24 C14 1_555 1_555
H22 C24 1_555 1_555
H23 C24 1_555 1_555
H24 C24 1_555 1_555
C25 H25 1_555 1_555
C26 C25 1_555 1_555
C27 C26 1_555 1_555
H26 C27 1_555 1_555
C28 C27 1_555 1_555
H27 C28 1_555 1_555
C29 C28 1_555 1_555
C30 C29 1_555 1_555
C31 C30 1_555 1_555
H28 C31 1_555 1_555
C32 C31 1_555 1_555
H29 C32 1_555 1_555
C33 C32 1_555 1_555
C34 C33 1_555 1_555
H30 C34 1_555 1_555
C35 C33 1_555 1_555
H31 C35 1_555 1_555
H32 C35 1_555 1_555
H33 C35 1_555 1_555
C36 C26 1_555 1_555
H34 C36 1_555 1_555
H35 C36 1_555 1_555
H36 C36 1_555 1_555
C37 H37 1_555 1_555
C38 C37 1_555 1_555
C39 C38 1_555 1_555
H38 C39 1_555 1_555
C40 C39 1_555 1_555
H39 C40 1_555 1_555
C41 C40 1_555 1_555
C42 C41 1_555 1_555
C43 C42 1_555 1_555
H40 C43 1_555 1_555
C44 C43 1_555 1_555
H41 C44 1_555 1_555
C45 C44 1_555 1_555
C46 C45 1_555 1_555
H42 C46 1_555 1_555
C47 C38 1_555 1_555
H43 C47 1_555 1_555
H44 C47 1_555 1_555
H45 C47 1_555 1_555
C48 C45 1_555 1_555
H46 C48 1_555 1_555
H47 C48 1_555 1_555
H48 C48 1_555 1_555
N1 Cd1 1_555 1_555
N2 Cd1 1_555 1_555
N3 Cd1 1_555 1_555
N4 Cd1 1_555 1_555
N5 Cd2 1_555 1_555
N6 Cd2 1_555 1_555
N7 Cd2 1_555 1_555
N8 Cd2 1_555 1_555
Cd3 N9 1_555 1_555
C49 H49 1_555 1_555
C50 C49 1_555 1_555
C51 C50 1_555 1_555
H50 C51 1_555 1_555
C52 C51 1_555 1_555
H51 C52 1_555 1_555
C53 C52 1_555 1_555
C54 C53 1_555 1_555
C55 C54 1_555 1_555
H52 C55 1_555 1_555
C56 C55 1_555 1_555
H53 C56 1_555 1_555
C57 C56 1_555 1_555
C58 C57 1_555 1_555
H54 C58 1_555 1_555
C59 C57 1_555 1_555
H55 C59 1_555 1_555
H56 C59 1_555 1_555
H57 C59 1_555 1_555
C60 C50 1_555 1_555
H58 C60 1_555 1_555
H59 C60 1_555 1_555
H60 C60 1_555 1_555
C61 H61 1_555 1_555
C62 C61 1_555 1_555
C63 C62 1_555 1_555
H62 C63 1_555 1_555
C64 C63 1_555 1_555
H63 C64 1_555 1_555
C65 C64 1_555 1_555
C66 C65 1_555 1_555
C67 C66 1_555 1_555
H64 C67 1_555 1_555
C68 C67 1_555 1_555
H65 C68 1_555 1_555
C69 C68 1_555 1_555
C70 C69 1_555 1_555
H66 C70 1_555 1_555
C71 C69 1_555 1_555
H67 C71 1_555 1_555
H68 C71 1_555 1_555
H69 C71 1_555 1_555
C72 C62 1_555 1_555
H70 C72 1_555 1_555
H71 C72 1_555 1_555
H72 C72 1_555 1_555
C73 H73 1_555 1_555
C74 C73 1_555 1_555
C75 C74 1_555 1_555
H74 C75 1_555 1_555
C76 C75 1_555 1_555
H75 C76 1_555 1_555
C77 C76 1_555 1_555
C78 C77 1_555 1_555
C79 C78 1_555 1_555
H76 C79 1_555 1_555
C80 C79 1_555 1_555
H77 C80 1_555 1_555
C81 C80 1_555 1_555
C82 C81 1_555 1_555
H78 C82 1_555 1_555
C83 C81 1_555 1_555
H79 C83 1_555 1_555
H80 C83 1_555 1_555
H81 C83 1_555 1_555
C84 C74 1_555 1_555
H82 C84 1_555 1_555
H83 C84 1_555 1_555
H84 C84 1_555 1_555
N9 C49 1_555 1_555
N10 Cd3 1_555 1_555
N11 Cd3 1_555 1_555
N12 Cd3 1_555 1_555
N13 Cd3 1_555 1_555
N14 Cd3 1_555 1_555
Cd4 N15 1_555 1_555
C85 H85 1_555 1_555
C86 C85 1_555 1_555
C87 C86 1_555 1_555
H86 C87 1_555 1_555
C88 C87 1_555 1_555
H87 C88 1_555 1_555
C89 C88 1_555 1_555
C90 C89 1_555 1_555
C91 C90 1_555 1_555
H88 C91 1_555 1_555
C92 C91 1_555 1_555
H89 C92 1_555 1_555
C93 C92 1_555 1_555
C94 C93 1_555 1_555
H90 C94 1_555 1_555
C95 C93 1_555 1_555
H91 C95 1_555 1_555
H92 C95 1_555 1_555
H93 C95 1_555 1_555
C96 C86 1_555 1_555
H94 C96 1_555 1_555
H95 C96 1_555 1_555
H96 C96 1_555 1_555
C97 H97 1_555 1_555
C98 C97 1_555 1_555
C99 C98 1_555 1_555
H98 C99 1_555 1_555
C100 C99 1_555 1_555
H99 C100 1_555 1_555
C101 C100 1_555 1_555
C102 C101 1_555 1_555
C103 C102 1_555 1_555
H100 C103 1_555 1_555
C104 C103 1_555 1_555
H101 C104 1_555 1_555
C105 C104 1_555 1_555
C106 C105 1_555 1_555
H102 C106 1_555 1_555
C107 C105 1_555 1_555
H103 C107 1_555 1_555
H104 C107 1_555 1_555
H105 C107 1_555 1_555
C108 C98 1_555 1_555
H106 C108 1_555 1_555
H107 C108 1_555 1_555
H108 C108 1_555 1_555
C109 H109 1_555 1_555
C110 C109 1_555 1_555
C111 C110 1_555 1_555
H110 C111 1_555 1_555
C112 C111 1_555 1_555
H111 C112 1_555 1_555
C113 C112 1_555 1_555
C114 C113 1_555 1_555
C115 C114 1_555 1_555
H112 C115 1_555 1_555
C116 C115 1_555 1_555
H113 C116 1_555 1_555
C117 C116 1_555 1_555
C118 C117 1_555 1_555
H114 C118 1_555 1_555
C119 C117 1_555 1_555
H115 C119 1_555 1_555
H116 C119 1_555 1_555
H117 C119 1_555 1_555
C120 C110 1_555 1_555
H118 C120 1_555 1_555
H119 C120 1_555 1_555
H120 C120 1_555 1_555
N15 C85 1_555 1_555
N16 Cd4 1_555 1_555
N17 Cd4 1_555 1_555
N18 Cd4 1_555 1_555
N19 Cd4 1_555 1_555
N20 Cd4 1_555 1_555
Cd2_2 O55 1_555 1_555
O55_2 Cd2 1_555 1_555
V2 O22 1_555 1_555
V4 O11 1_555 1_555
V5 O11 1_555 1_555
V5 O35 1_555 1_555
V6 O49 1_555 1_555
V7 O10 1_555 1_555
V7 O42 1_555 1_555
V7 O72 1_555 1_555
V8 O10 1_555 1_555
V8 O13 1_555 1_555
V8 O38 1_555 1_555
V9 O25 1_555 1_555
V9 O54 1_555 1_555
V10 O25 1_555 1_555
V10 O30 1_555 1_555
V11 O58 1_555 1_555
V12 O38 1_555 1_555
V13 O33 1_555 1_555
V13 O36 1_555 1_555
V13 O40 1_555 1_555
V13 O43 1_555 1_555
V14 O33 1_555 1_555
V14 O40 1_555 1_555
V14 O48 1_555 1_555
V16 O14 1_555 1_555
V16 O29 1_555 1_555
V17 O23 1_555 1_555
V18 O17 1_555 1_555
V19 O21 1_555 1_555
V19 O53 1_555 1_555
V20 O47 1_555 1_555
V21 O47 1_555 1_555
V22 O23 1_555 1_555
V22 O39 1_555 1_555
V23 O45 1_555 1_555
V24 O51 1_555 1_555
V25 O46 1_555 1_555
V25 O59 1_555 1_555
V25 O65 1_555 1_555
V26 O34 1_555 1_555
V26 O44 1_555 1_555
V27 O34 1_555 1_555
V27 O52 1_555 1_555
V28 O31 1_555 1_555
V28 O32 1_555 1_555
V28 O37 1_555 1_555
V28 O51 1_555 1_555
As1 O29 1_555 1_555
As1 O46 1_555 1_555
As2 O39 1_555 1_555
As3 O21 1_555 1_555
As3 O45 1_555 1_555
As4 O20 1_555 1_555
As4 O32 1_555 1_555
As5 O6 1_555 1_555
As5 O53 1_555 1_555
As6 O27 1_555 1_555
As6 O44 1_555 1_555
As7 O59 1_555 1_555
As8 O57 1_555 1_555
As8 O65 1_555 1_555
As9 O8 1_555 1_555
As9 O54 1_555 1_555
As10 O24 1_555 1_555
As10 O30 1_555 1_555
As11 O48 1_555 1_555
As12 O13 1_555 1_555
As12 O58 1_555 1_555
As13 O72 1_555 1_555
As14 O35 1_555 1_555
As14 O49 1_555 1_555
As15 O42 1_555 1_555
As16 O43 1_555 1_555
As16 O73 1_555 1_555
Cd1 O71 1_555 1_555
C1 N1 1_555 1_555
C5 N1 1_555 1_555
C6 N2 1_555 1_555
C10 N2 1_555 1_555
C13 N5 1_555 1_555
C17 N5 1_555 1_555
C18 N6 1_555 1_555
C22 N6 1_555 1_555
C25 N7 1_555 1_555
C29 N7 1_555 1_555
C30 N8 1_555 1_555
C34 N8 1_555 1_555
C37 N4 1_555 1_555
C41 N4 1_555 1_555
C42 N3 1_555 1_555
C46 N3 1_555 1_555
C53 N9 1_555 1_555
C54 N10 1_555 1_555
C58 N10 1_555 1_555
C61 N11 1_555 1_555
C65 N11 1_555 1_555
C66 N12 1_555 1_555
C70 N12 1_555 1_555
C73 N13 1_555 1_555
C77 N13 1_555 1_555
C78 N14 1_555 1_555
C82 N14 1_555 1_555
C89 N15 1_555 1_555
C90 N16 1_555 1_555
C94 N16 1_555 1_555
C97 N17 1_555 1_555
C101 N17 1_555 1_555
C102 N18 1_555 1_555
C106 N18 1_555 1_555
C109 N19 1_555 1_555
C113 N19 1_555 1_555
C114 N20 1_555 1_555
C118 N20 1_555 1_555

#END
