
#######################################################################
#
#                 Cambridge Crystallographic Data Centre
#                                CCDC 
#
#######################################################################
#
# If this CIF has been generated from an entry in the Cambridge 
# Structural Database, then it will include bibliographic, chemical, 
# crystal, experimental, refinement or atomic coordinate data resulting 
# from the CCDC's data processing and validation procedures.
#
#######################################################################

data_JUGLEE
_symmetry_cell_setting           triclinic
_symmetry_space_group_name_H-M   'P -1'
_symmetry_Int_Tables_number      2
_space_group_name_Hall           '-P 1'
loop_
_symmetry_equiv_pos_site_id
_symmetry_equiv_pos_as_xyz
1 x,y,z
2 -x,-y,-z
_cell_length_a                   13.984(3)
_cell_length_b                   15.990(3)
_cell_length_c                   19.551(4)
_cell_angle_alpha                81.83(3)
_cell_angle_beta                 75.48(3)
_cell_angle_gamma                70.58(3)
_cell_volume                     3983.01
loop_
_atom_site_label
_atom_site_type_symbol
_atom_site_fract_x
_atom_site_fract_y
_atom_site_fract_z
Cd1 Cd 0.48449(4) 0.65886(4) 0.14597(3)
Cd2 Cd 0.86086(4) -0.31207(4) 0.40959(3)
F1 F 0.6663(5) 0.2190(4) 0.4044(3)
F2 F 0.5191(5) 0.1974(4) 0.3897(3)
O1 O 0.5713(6) 0.5096(4) 0.1343(3)
O2 O 0.4964(5) 0.5396(4) 0.2435(3)
O3 O 0.3955(7) 0.8225(5) 0.1293(5)
O4 O 0.3950(6) 0.7615(6) 0.2362(4)
O5 O 0.3009(10) 0.8987(9) 0.2241(8)
O6 O 0.8508(4) -0.1998(4) 0.3138(3)
O7 O 0.7824(5) -0.1564(4) 0.4221(3)
O8 O 0.9421(5) -0.4151(5) 0.3180(3)
O9 O 0.9299(6) -0.4817(5) 0.4215(4)
O10 O 0.9941(7) -0.5598(6) 0.3293(6)
N1 N 0.5293(5) 0.6676(5) 0.0199(3)
N2 N 0.8143(5) 0.6736(5) -0.4662(4)
N3 N 0.3185(4) 0.6483(4) 0.1457(4)
N4 N -0.3583(7) 0.6808(7) 0.1455(5)
N5 N 1.0243(5) -0.3091(5) 0.4144(4)
N6 N 1.7046(5) -0.3317(4) 0.4087(4)
N7 N 0.9588(6) -0.4872(6) 0.3553(5)
N8 N 0.3622(8) 0.8276(7) 0.1947(8)
N9 N 0.6846(6) 0.1047(4) 0.3315(3)
N10 N 0.6226(6) 0.2626(4) 0.2912(3)
C1 C 0.2786(8) 0.6693(8) 0.0883(5)
H1 H 0.3159 0.6913 0.0476
C2 C 0.2613(6) 0.6188(6) 0.2032(4)
H2 H 0.2856 0.6060 0.2449
C3 C 0.1676(6) 0.6064(7) 0.2044(5)
H3 H 0.1299 0.5859 0.2458
C4 C 0.1309(6) 0.6251(6) 0.1420(5)
C5 C 0.1873(8) 0.6604(10) 0.0860(5)
H4 H 0.1622 0.6790 0.0448
C6 C 0.0293(6) 0.6124(6) 0.1399(5)
H5 H 0.0360 0.5882 0.0956
H6 H 0.0123 0.5705 0.1783
C7 C -0.0551(7) 0.6986(7) 0.1468(6)
H7 H -0.0366 0.7395 0.1081
H8 H -0.0588 0.7227 0.1905
C8 C -0.1606(9) 0.6953(9) 0.1468(7)
C9 C -0.1748(11) 0.6574(11) 0.0939(8)
H9 H -0.1186 0.6308 0.0586
C10 C -0.2829(11) 0.6588(11) 0.0929(8)
H10 H -0.2945 0.6431 0.0524
C11 C -0.3296(10) 0.7042(10) 0.1889(7)
H11 H -0.3817 0.7202 0.2293
C12 C -0.2389(10) 0.7132(10) 0.1943(7)
H12 H -0.2360 0.7339 0.2356
C13 C 0.5203(8) 0.7456(7) -0.0193(5)
H13 H 0.4917 0.7976 0.0045
C14 C 0.5501(9) 0.7534(8) -0.0913(5)
H14 H 0.5433 0.8086 -0.1158
C15 C 0.5939(10) 0.6701(9) -0.1290(6)
C16 C 0.6009(11) 0.5969(9) -0.0884(5)
H15 H 0.6273 0.5431 -0.1097
C17 C 0.5721(8) 0.5953(6) -0.0172(5)
H16 H 0.5827 0.5402 0.0078
C18 C 0.6280(9) 0.6774(9) -0.2155(6)
H17 H 0.6079 0.6352 -0.2353
H18 H 0.5948 0.7367 -0.2340
C19 C 0.7330(9) 0.6588(9) -0.2322(6)
H19 H 0.7676 0.5998 -0.2137
H20 H 0.7544 0.7021 -0.2148
C20 C 0.7555(9) 0.6655(9) -0.3182(6)
C21 C 0.7676(11) 0.7407(9) -0.3565(6)
H21 H 0.7567 0.7913 -0.3335
C22 C 0.7960(8) 0.7420(8) -0.4290(5)
H22 H 0.8028 0.7947 -0.4535
C23 C 0.8009(7) 0.5996(6) -0.4305(4)
H23 H 0.8136 0.5497 -0.4547
C24 C 0.7686(8) 0.5963(8) -0.3581(5)
H24 H 0.7550 0.5452 -0.3349
C25 C 0.5524(6) 0.4852(5) 0.1992(4)
C26 C 0.5933(6) 0.3878(5) 0.2212(4)
C27 C 0.6534(7) 0.3211(6) 0.1779(4)
C28 C 0.6874(8) 0.3293(6) 0.0970(5)
H25 H 0.6413 0.3820 0.0787
H26 H 0.6852 0.2782 0.0776
H27 H 0.7569 0.3329 0.0839
C29 C 0.5726(6) 0.3506(5) 0.2915(4)
C30 C 0.5151(8) 0.3947(6) 0.3559(5)
H28 H 0.4528 0.3784 0.3737
H29 H 0.4973 0.4579 0.3460
H30 H 0.5571 0.3770 0.3906
C31 C 0.6742(6) 0.2403(5) 0.2202(4)
C32 C 0.7318(6) 0.1509(5) 0.2073(4)
C33 C 0.7831(9) 0.1313(7) 0.1319(5)
C34 C 0.7348(10) 0.1070(8) 0.0880(6)
H31 H 0.6694 0.0999 0.1048
C35 C 0.7888(11) 0.0928(8) 0.0150(6)
H32 H 0.7578 0.0805 -0.0176
C36 C 0.8864(12) 0.0983(9) -0.0034(7)
H33 H 0.9226 0.0847 -0.0494
C37 C 0.9389(11) 0.1220(8) 0.0384(7)
H34 H 1.0054 0.1266 0.0210
C38 C 0.8848(9) 0.1389(7) 0.1092(6)
H35 H 0.9154 0.1547 0.1404
C39 C 0.7400(7) 0.0848(6) 0.2606(4)
C40 C 0.7899(6) -0.0107(6) 0.2597(4)
C41 C 0.8567(9) -0.0614(6) 0.1969(5)
H36 H 0.8565 -0.1220 0.2050
H37 H 0.9264 -0.0597 0.1900
H38 H 0.8299 -0.0352 0.1555
C42 C 0.7696(7) -0.0455(5) 0.3289(4)
C43 C 0.7032(7) 0.0260(5) 0.3725(5)
C44 C 0.6599(10) 0.0255(7) 0.4513(4)
H39 H 0.6784 0.0681 0.4709
H40 H 0.6881 -0.0327 0.4726
H41 H 0.5856 0.0406 0.4604
C45 C 0.8033(7) -0.1410(5) 0.3568(5)
C46 C 1.0758(7) -0.2679(8) 0.3639(6)
H42 H 1.0477 -0.2445 0.3243
C47 C 1.1673(9) -0.2568(10) 0.3651(6)
H43 H 1.1999 -0.2256 0.3280
C48 C 1.2111(8) -0.2935(8) 0.4234(7)
C49 C 1.1613(7) -0.3417(8) 0.4739(6)
H44 H 1.1908 -0.3717 0.5116
C50 C 1.0668(7) -0.3455(6) 0.4683(5)
H45 H 1.0313 -0.3755 0.5046
C51 C 1.3139(8) -0.2782(9) 0.4289(7)
H46 H 1.3219 -0.2258 0.3995
H47 H 1.3093 -0.2678 0.4775
C52 C 1.4008(8) -0.3514(8) 0.4075(7)
H48 H 1.4028 -0.3622 0.3595
H49 H 1.3917 -0.4032 0.4375
C53 C 1.5071(7) -0.3424(7) 0.4095(6)
C54 C 1.5957(8) -0.3934(8) 0.3663(6)
H50 H 1.5929 -0.4307 0.3349
C55 C 1.6871(8) -0.3858(7) 0.3724(6)
H51 H 1.7463 -0.4251 0.3469
C56 C 1.6169(5) -0.2845(6) 0.4494(4)
H52 H 1.6227 -0.2468 0.4791
C57 C 1.5174(6) -0.2862(6) 0.4518(5)
H53 H 1.4596 -0.2503 0.4811
B1 B 0.6180(10) 0.1940(7) 0.3586(6)
Cd1_2 Cd -0.51551(4) 0.65886(4) 0.14597(3)
Cd2_2 Cd 0.86086(4) 0.68793(4) -0.59041(3)
Cd2_3 Cd 1.86086(4) -0.31207(4) 0.40959(3)
N2_2 N 0.8143(5) -0.3264(5) 0.5338(4)
N4_2 N 0.6417(7) 0.6808(7) 0.1455(5)
N6_2 N 0.7046(5) -0.3317(4) 0.4087(4)
loop_
_geom_bond_atom_site_label_1
_geom_bond_atom_site_label_2
_geom_bond_site_symmetry_1
_geom_bond_site_symmetry_2
Cd1 O1 1_555 1_555
Cd2 O6 1_555 1_555
F1 B1 1_555 1_555
F2 B1 1_555 1_555
O1 C25 1_555 1_555
O2 Cd1 1_555 1_555
O3 Cd1 1_555 1_555
O4 Cd1 1_555 1_555
O5 N8 1_555 1_555
O6 C45 1_555 1_555
O7 Cd2 1_555 1_555
O8 Cd2 1_555 1_555
O9 Cd2 1_555 1_555
O10 N7 1_555 1_555
N1 Cd1 1_555 1_555
N2 C22 1_555 1_555
N3 Cd1 1_555 1_555
N4 C10 1_555 1_555
N5 Cd2 1_555 1_555
N6 C55 1_555 1_555
N7 O8 1_555 1_555
N8 O3 1_555 1_555
N9 C39 1_555 1_555
N10 C29 1_555 1_555
C1 N3 1_555 1_555
H1 C1 1_555 1_555
C2 N3 1_555 1_555
H2 C2 1_555 1_555
C3 C2 1_555 1_555
H3 C3 1_555 1_555
C4 C3 1_555 1_555
C5 C1 1_555 1_555
H4 C5 1_555 1_555
C6 C4 1_555 1_555
H5 C6 1_555 1_555
H6 C6 1_555 1_555
C7 C6 1_555 1_555
H7 C7 1_555 1_555
H8 C7 1_555 1_555
C8 C7 1_555 1_555
C9 C8 1_555 1_555
H9 C9 1_555 1_555
C10 C9 1_555 1_555
H10 C10 1_555 1_555
C11 N4 1_555 1_555
H11 C11 1_555 1_555
C12 C8 1_555 1_555
H12 C12 1_555 1_555
C13 N1 1_555 1_555
H13 C13 1_555 1_555
C14 C13 1_555 1_555
H14 C14 1_555 1_555
C15 C14 1_555 1_555
C16 C15 1_555 1_555
H15 C16 1_555 1_555
C17 N1 1_555 1_555
H16 C17 1_555 1_555
C18 C15 1_555 1_555
H17 C18 1_555 1_555
H18 C18 1_555 1_555
C19 C18 1_555 1_555
H19 C19 1_555 1_555
H20 C19 1_555 1_555
C20 C19 1_555 1_555
C21 C20 1_555 1_555
H21 C21 1_555 1_555
C22 C21 1_555 1_555
H22 C22 1_555 1_555
C23 N2 1_555 1_555
H23 C23 1_555 1_555
C24 C20 1_555 1_555
H24 C24 1_555 1_555
C25 O2 1_555 1_555
C26 C25 1_555 1_555
C27 C26 1_555 1_555
C28 C27 1_555 1_555
H25 C28 1_555 1_555
H26 C28 1_555 1_555
H27 C28 1_555 1_555
C29 C26 1_555 1_555
C30 C29 1_555 1_555
H28 C30 1_555 1_555
H29 C30 1_555 1_555
H30 C30 1_555 1_555
C31 N10 1_555 1_555
C32 C31 1_555 1_555
C33 C32 1_555 1_555
C34 C33 1_555 1_555
H31 C34 1_555 1_555
C35 C34 1_555 1_555
H32 C35 1_555 1_555
C36 C35 1_555 1_555
H33 C36 1_555 1_555
C37 C36 1_555 1_555
H34 C37 1_555 1_555
C38 C33 1_555 1_555
H35 C38 1_555 1_555
C39 C32 1_555 1_555
C40 C39 1_555 1_555
C41 C40 1_555 1_555
H36 C41 1_555 1_555
H37 C41 1_555 1_555
H38 C41 1_555 1_555
C42 C40 1_555 1_555
C43 N9 1_555 1_555
C44 C43 1_555 1_555
H39 C44 1_555 1_555
H40 C44 1_555 1_555
H41 C44 1_555 1_555
C45 O7 1_555 1_555
C46 N5 1_555 1_555
H42 C46 1_555 1_555
C47 C46 1_555 1_555
H43 C47 1_555 1_555
C48 C47 1_555 1_555
C49 C48 1_555 1_555
H44 C49 1_555 1_555
C50 N5 1_555 1_555
H45 C50 1_555 1_555
C51 C48 1_555 1_555
H46 C51 1_555 1_555
H47 C51 1_555 1_555
C52 C51 1_555 1_555
H48 C52 1_555 1_555
H49 C52 1_555 1_555
C53 C52 1_555 1_555
C54 C53 1_555 1_555
H50 C54 1_555 1_555
C55 C54 1_555 1_555
H51 C55 1_555 1_555
C56 N6 1_555 1_555
H52 C56 1_555 1_555
C57 C53 1_555 1_555
H53 C57 1_555 1_555
B1 N9 1_555 1_555
Cd1_2 N4 1_555 1_555
Cd2_2 N2 1_555 1_555
Cd2_3 N6 1_555 1_555
N2_2 Cd2 1_555 1_555
N4_2 Cd1 1_555 1_555
N6_2 Cd2 1_555 1_555
O4 N8 1_555 1_555
O9 N7 1_555 1_555
N10 B1 1_555 1_555
C4 C5 1_555 1_555
C11 C12 1_555 1_555
C16 C17 1_555 1_555
C23 C24 1_555 1_555
C27 C31 1_555 1_555
C37 C38 1_555 1_555
C42 C43 1_555 1_555
C42 C45 1_555 1_555
C49 C50 1_555 1_555
C56 C57 1_555 1_555

#END
