
#######################################################################
#
#                 Cambridge Crystallographic Data Centre
#                                CCDC 
#
#######################################################################
#
# If this CIF has been generated from an entry in the Cambridge 
# Structural Database, then it will include bibliographic, chemical, 
# crystal, experimental, refinement or atomic coordinate data resulting 
# from the CCDC's data processing and validation procedures.
#
#######################################################################

data_JUGLII
_symmetry_cell_setting           monoclinic
_symmetry_space_group_name_H-M   'P 21/c'
_symmetry_Int_Tables_number      14
_space_group_name_Hall           '-P 2ybc'
loop_
_symmetry_equiv_pos_site_id
_symmetry_equiv_pos_as_xyz
1 x,y,z
2 -x,1/2+y,1/2-z
3 -x,-y,-z
4 x,1/2-y,1/2+z
_cell_length_a                   11.134(2)
_cell_length_b                   28.426(6)
_cell_length_c                   10.754(2)
_cell_angle_alpha                90
_cell_angle_beta                 110.95(3)
_cell_angle_gamma                90
_cell_volume                     3178.59
loop_
_atom_site_label
_atom_site_type_symbol
_atom_site_fract_x
_atom_site_fract_y
_atom_site_fract_z
Cd1 Cd 0.70628(6) 1.022763(19) 0.96847(6)
F1 F 0.7148(7) 0.7355(2) 1.0108(6)
F2 F 0.8418(5) 0.7465(2) 0.8869(7)
O1 O 0.5799(6) 0.9604(2) 0.8593(7)
O2 O 0.7718(7) 0.9394(2) 0.9928(7)
O3 O 0.3851(9) 0.5929(2) 0.5472(10)
O4 O 0.5670(12) 0.5704(3) 0.7002(10)
O5 O 0.8950(6) 1.0590(2) 1.1055(7)
O6 O 0.6633(6) 1.0125(2) 1.1621(6)
H1 H 0.6121 1.0331 1.1722
H2 H 0.6368 0.9845 1.1633
N1 N 0.6264(7) 0.7169(2) 0.7761(7)
N2 N 0.6633(6) 0.8010(2) 0.8515(7)
N3 N 0.7920(9) 1.0303(3) 0.7989(8)
N4 N 0.9819(10) 1.1209(4) 1.2383(10)
C1 C 0.4929(11) 0.6015(3) 0.6325(11)
C2 C 0.5313(8) 0.6523(3) 0.6624(9)
C3 C 0.6281(9) 0.6689(3) 0.7731(9)
C4 C 0.7271(11) 0.6411(4) 0.8784(12)
H3 H 0.7870 0.6278 0.8424
H4 H 0.6858 0.6162 0.9085
H5 H 0.7720 0.6612 0.9519
C5 C 0.5237(7) 0.7317(3) 0.6619(8)
C6 C 0.4643(9) 0.6914(3) 0.5860(9)
C7 C 0.3592(10) 0.6895(3) 0.4521(9)
H6 H 0.3648 0.6605 0.4089
H7 H 0.3682 0.7155 0.3990
H8 H 0.2773 0.6914 0.4627
C8 C 0.4913(7) 0.7794(3) 0.6467(8)
C9 C 0.3759(8) 0.7937(3) 0.5273(9)
C10 C 0.2533(10) 0.7866(4) 0.5294(12)
H9 H 0.2435 0.7740 0.6049
C11 C 0.1460(11) 0.7981(6) 0.4206(16)
H10 H 0.0642 0.7913 0.4204
C12 C 0.1617(14) 0.8204(6) 0.3079(15)
H11 H 0.0909 0.8298 0.2350
C13 C 0.2831(13) 0.8274(5) 0.3112(12)
H12 H 0.2946 0.8420 0.2388
C14 C 0.3898(10) 0.8140(4) 0.4165(9)
H13 H 0.4714 0.8185 0.4134
C15 C 0.5572(7) 0.8143(3) 0.7391(8)
C16 C 0.5410(8) 0.8635(3) 0.7458(9)
C17 C 0.4400(11) 0.8940(3) 0.6459(12)
H14 H 0.4229 0.9210 0.6903
H15 H 0.3623 0.8762 0.6067
H16 H 0.4709 0.9040 0.5775
C18 C 0.6376(8) 0.8791(3) 0.8634(9)
C19 C 0.7110(9) 0.8393(3) 0.9266(9)
C20 C 0.8219(9) 0.8365(4) 1.0562(10)
H17 H 0.8202 0.8067 1.0978
H18 H 0.8156 0.8614 1.1137
H19 H 0.9011 0.8394 1.0403
C21 C 0.6663(8) 0.9292(3) 0.9125(9)
C22 C 0.9172(10) 1.0403(4) 0.8235(11)
H20 H 0.9684 1.0482 0.9103
C23 C 0.9739(11) 1.0395(4) 0.7292(11)
H21 H 1.0599 1.0477 0.7514
C24 C 0.8988(12) 1.0261(4) 0.5976(11)
C25 C 0.9613(13) 1.0224(4) 0.4929(12)
H22 H 0.8949 1.0234 0.4050
H23 H 1.0173 1.0493 0.5010
C26 C 0.7711(13) 1.0163(5) 0.5695(12)
H24 H 0.7182 1.0080 0.4837
C27 C 0.7233(13) 1.0190(4) 0.6699(13)
H25 H 0.6363 1.0126 0.6482
C28 C 0.8876(12) 1.0932(4) 1.1736(12)
H26 H 0.8076 1.0996 1.1788
C29 C 0.9569(16) 1.1609(5) 1.3175(16)
H27 H 0.8659 1.1661 1.2902
H28 H 0.9980 1.1888 1.3023
H29 H 0.9908 1.1531 1.4105
C30 C 1.1084(15) 1.1105(6) 1.2457(17)
H30 H 1.1487 1.0900 1.3200
H31 H 1.1570 1.1391 1.2571
H32 H 1.1055 1.0952 1.1650
B1 B 0.7164(10) 0.7492(4) 0.8864(11)
N3B N 1.2080(9) 0.9697(3) 0.2011(8)
C22B C 1.0828(10) 0.9597(4) 0.1765(11)
H20B H 1.0316 0.9518 0.0897
C23B C 1.0261(11) 0.9605(4) 0.2708(11)
H21B H 0.9401 0.9523 0.2486
C24B C 1.1012(12) 0.9739(4) 0.4024(11)
C25B C 1.0387(13) 0.9776(4) 0.5071(12)
H22B H 1.1051 0.9766 0.5950
H23B H 0.9827 0.9507 0.4990
C26B C 1.2289(13) 0.9837(5) 0.4305(12)
H24B H 1.2818 0.9920 0.5163
C27B C 1.2767(13) 0.9810(4) 0.3301(13)
H25B H 1.3637 0.9874 0.3518
Cd1B Cd 1.29372(6) 0.977237(19) 0.03153(6)
F1B F 1.2852(7) 1.2645(2) -0.0108(6)
F2B F 1.1582(5) 1.2535(2) 0.1131(7)
O1B O 1.4201(6) 1.0396(2) 0.1407(7)
O2B O 1.2282(7) 1.0606(2) 0.0072(7)
O3B O 1.6149(9) 1.4071(2) 0.4528(10)
O4B O 1.4330(12) 1.4296(3) 0.2998(10)
O5B O 1.1050(6) 0.9410(2) -0.1055(7)
O6B O 1.3367(6) 0.9875(2) -0.1621(6)
H1B H 1.3879 0.9669 -0.1722
H2B H 1.3632 1.0155 -0.1633
N1B N 1.3736(7) 1.2831(2) 0.2239(7)
N2B N 1.3367(6) 1.1990(2) 0.1485(7)
N4B N 1.0181(10) 0.8791(4) -0.2383(10)
C1B C 1.5071(11) 1.3985(3) 0.3675(11)
C2B C 1.4687(8) 1.3477(3) 0.3376(9)
C3B C 1.3719(9) 1.3311(3) 0.2269(9)
C4B C 1.2729(11) 1.3589(4) 0.1216(12)
H3B H 1.2130 1.3722 0.1576
H4B H 1.3142 1.3838 0.0915
H5B H 1.2280 1.3388 0.0481
C5B C 1.4763(7) 1.2683(3) 0.3381(8)
C6B C 1.5357(9) 1.3086(3) 0.4140(9)
C7B C 1.6408(10) 1.3105(3) 0.5479(9)
H6B H 1.6352 1.3395 0.5911
H7B H 1.6318 1.2845 0.6010
H8B H 1.7227 1.3086 0.5373
C8B C 1.5087(7) 1.2206(3) 0.3533(8)
C9B C 1.6241(8) 1.2063(3) 0.4727(9)
C10B C 1.7467(10) 1.2134(4) 0.4706(12)
H9B H 1.7565 1.2260 0.3951
C11B C 1.8540(11) 1.2019(6) 0.5794(16)
H10B H 1.9358 1.2087 0.5796
C12B C 1.8383(14) 1.1796(6) 0.6921(15)
H11B H 1.9091 1.1702 0.7650
C13B C 1.7169(13) 1.1726(5) 0.6888(12)
H12B H 1.7054 1.1580 0.7612
C14B C 1.6102(10) 1.1860(4) 0.5835(9)
H13B H 1.5286 1.1815 0.5866
C15B C 1.4428(7) 1.1857(3) 0.2609(8)
C16B C 1.4590(8) 1.1365(3) 0.2542(9)
C17B C 1.5600(11) 1.1060(3) 0.3541(12)
H14B H 1.5771 1.0790 0.3097
H15B H 1.6377 1.1238 0.3933
H16B H 1.5291 1.0960 0.4225
C18B C 1.3624(8) 1.1209(3) 0.1366(9)
C19B C 1.2890(9) 1.1607(3) 0.0734(9)
C20B C 1.1781(9) 1.1635(4) -0.0562(10)
H17B H 1.1798 1.1933 -0.0978
H18B H 1.1844 1.1386 -0.1137
H19B H 1.0989 1.1606 -0.0403
C21B C 1.3337(8) 1.0708(3) 0.0875(9)
C28B C 1.1124(12) 0.9068(4) -0.1736(12)
H26B H 1.1924 0.9004 -0.1788
C29B C 1.0431(16) 0.8391(5) -0.3175(16)
H27B H 1.1341 0.8339 -0.2902
H28B H 1.0020 0.8112 -0.3023
H29B H 1.0092 0.8469 -0.4105
C30B C 0.8916(15) 0.8895(6) -0.2457(17)
H30B H 0.8513 0.9100 -0.3200
H31B H 0.8430 0.8609 -0.2571
H32B H 0.8945 0.9048 -0.1650
B1B B 1.2836(10) 1.2508(4) 0.1136(11)
Cd1A Cd 0.29372(6) 0.522763(19) 0.53153(6)
Cd1C Cd 1.70628(6) 1.477237(19) 0.46847(6)
O3A O 0.6149(9) 1.0929(2) 0.9528(10)
O3C O 1.3851(9) 0.9071(2) 0.0472(10)
loop_
_geom_bond_atom_site_label_1
_geom_bond_atom_site_label_2
_geom_bond_site_symmetry_1
_geom_bond_site_symmetry_2
Cd1 O1 1_555 1_555
F1 B1 1_555 1_555
F2 B1 1_555 1_555
O1 C21 1_555 1_555
O2 Cd1 1_555 1_555
O3 C1 1_555 1_555
O4 C1 1_555 1_555
O5 Cd1 1_555 1_555
O6 Cd1 1_555 1_555
H1 O6 1_555 1_555
H2 O6 1_555 1_555
N1 C3 1_555 1_555
N2 C15 1_555 1_555
N3 Cd1 1_555 1_555
N4 C28 1_555 1_555
C1 C2 1_555 1_555
C2 C3 1_555 1_555
C3 C4 1_555 1_555
C4 H3 1_555 1_555
H4 C4 1_555 1_555
H5 C4 1_555 1_555
C5 N1 1_555 1_555
C6 C2 1_555 1_555
C7 C6 1_555 1_555
H6 C7 1_555 1_555
H7 C7 1_555 1_555
H8 C7 1_555 1_555
C8 C5 1_555 1_555
C9 C8 1_555 1_555
C10 C9 1_555 1_555
H9 C10 1_555 1_555
C11 C10 1_555 1_555
H10 C11 1_555 1_555
C12 C11 1_555 1_555
H11 C12 1_555 1_555
C13 C12 1_555 1_555
H12 C13 1_555 1_555
C14 C9 1_555 1_555
H13 C14 1_555 1_555
C15 C8 1_555 1_555
C16 C15 1_555 1_555
C17 C16 1_555 1_555
H14 C17 1_555 1_555
H15 C17 1_555 1_555
H16 C17 1_555 1_555
C18 C16 1_555 1_555
C19 N2 1_555 1_555
C20 C19 1_555 1_555
H17 C20 1_555 1_555
H18 C20 1_555 1_555
H19 C20 1_555 1_555
C21 O2 1_555 1_555
C22 N3 1_555 1_555
H20 C22 1_555 1_555
C23 C22 1_555 1_555
H21 C23 1_555 1_555
C24 C23 1_555 1_555
C25 C24 1_555 1_555
H22 C25 1_555 1_555
H23 C25 1_555 1_555
C26 C24 1_555 1_555
H24 C26 1_555 1_555
C27 N3 1_555 1_555
H25 C27 1_555 1_555
C28 O5 1_555 1_555
H26 C28 1_555 1_555
C29 N4 1_555 1_555
H27 C29 1_555 1_555
H28 C29 1_555 1_555
H29 C29 1_555 1_555
C30 N4 1_555 1_555
H30 C30 1_555 1_555
H31 C30 1_555 1_555
H32 C30 1_555 1_555
B1 N1 1_555 1_555
N3B C22B 1_555 1_555
C22B H20B 1_555 1_555
C23B C22B 1_555 1_555
H21B C23B 1_555 1_555
C24B C23B 1_555 1_555
C25B C25 1_555 1_555
H22B C25B 1_555 1_555
H23B C25B 1_555 1_555
C26B C24B 1_555 1_555
H24B C26B 1_555 1_555
C27B N3B 1_555 1_555
H25B C27B 1_555 1_555
Cd1B N3B 1_555 1_555
F1B B1B 1_555 1_555
F2B B1B 1_555 1_555
O1B Cd1B 1_555 1_555
O2B Cd1B 1_555 1_555
O3B C1B 1_555 1_555
O4B C1B 1_555 1_555
O5B Cd1B 1_555 1_555
O6B Cd1B 1_555 1_555
H1B O6B 1_555 1_555
H2B O6B 1_555 1_555
N1B C3B 1_555 1_555
N2B C15B 1_555 1_555
N4B C28B 1_555 1_555
C1B C2B 1_555 1_555
C2B C3B 1_555 1_555
C3B C4B 1_555 1_555
C4B H3B 1_555 1_555
H4B C4B 1_555 1_555
H5B C4B 1_555 1_555
C5B N1B 1_555 1_555
C6B C2B 1_555 1_555
C7B C6B 1_555 1_555
H6B C7B 1_555 1_555
H7B C7B 1_555 1_555
H8B C7B 1_555 1_555
C8B C5B 1_555 1_555
C9B C8B 1_555 1_555
C10B C9B 1_555 1_555
H9B C10B 1_555 1_555
C11B C10B 1_555 1_555
H10B C11B 1_555 1_555
C12B C11B 1_555 1_555
H11B C12B 1_555 1_555
C13B C12B 1_555 1_555
H12B C13B 1_555 1_555
C14B C9B 1_555 1_555
H13B C14B 1_555 1_555
C15B C8B 1_555 1_555
C16B C15B 1_555 1_555
C17B C16B 1_555 1_555
H14B C17B 1_555 1_555
H15B C17B 1_555 1_555
H16B C17B 1_555 1_555
C18B C16B 1_555 1_555
C19B N2B 1_555 1_555
C20B C19B 1_555 1_555
H17B C20B 1_555 1_555
H18B C20B 1_555 1_555
H19B C20B 1_555 1_555
C21B O1B 1_555 1_555
C28B O5B 1_555 1_555
H26B C28B 1_555 1_555
C29B N4B 1_555 1_555
H27B C29B 1_555 1_555
H28B C29B 1_555 1_555
H29B C29B 1_555 1_555
C30B N4B 1_555 1_555
H30B C30B 1_555 1_555
H31B C30B 1_555 1_555
H32B C30B 1_555 1_555
B1B N1B 1_555 1_555
Cd1A O3 1_555 1_555
Cd1C O3B 1_555 1_555
O3A Cd1 1_555 1_555
O3C Cd1B 1_555 1_555
N2 B1 1_555 1_555
C5 C6 1_555 1_555
C13 C14 1_555 1_555
C18 C19 1_555 1_555
C18 C21 1_555 1_555
C26 C27 1_555 1_555
C24B C25B 1_555 1_555
C26B C27B 1_555 1_555
O2B C21B 1_555 1_555
N2B B1B 1_555 1_555
C5B C6B 1_555 1_555
C13B C14B 1_555 1_555
C18B C19B 1_555 1_555
C18B C21B 1_555 1_555

#END
