
#######################################################################
#
#                 Cambridge Crystallographic Data Centre
#                                CCDC 
#
#######################################################################
#
# If this CIF has been generated from an entry in the Cambridge 
# Structural Database, then it will include bibliographic, chemical, 
# crystal, experimental, refinement or atomic coordinate data resulting 
# from the CCDC's data processing and validation procedures.
#
#######################################################################

data_JUGMUV
_symmetry_cell_setting           monoclinic
_symmetry_space_group_name_H-M   'C c'
_symmetry_Int_Tables_number      9
_space_group_name_Hall           'C -2yc'
loop_
_symmetry_equiv_pos_site_id
_symmetry_equiv_pos_as_xyz
1 x,y,z
2 x,-y,1/2+z
3 1/2+x,1/2+y,z
4 1/2+x,1/2-y,1/2+z
_cell_length_a                   15.3447(8)
_cell_length_b                   18.3643(9)
_cell_length_c                   6.5826(3)
_cell_angle_alpha                90
_cell_angle_beta                 90.7230(10)
_cell_angle_gamma                90
_cell_volume                     1854.79
loop_
_atom_site_label
_atom_site_type_symbol
_atom_site_fract_x
_atom_site_fract_y
_atom_site_fract_z
Cd1 Cd -0.08465(2) 0.051182(7) 0.70746(3)
N1 N 0.11339(17) 0.31656(12) 0.1146(3)
N2 N 0.3257(2) 0.34760(17) 0.3257(5)
N3 N 0.37385(16) 0.30186(12) 0.4546(4)
N4 N 0.23889(14) 0.26088(11) 0.4295(3)
N5 N 0.0200(2) 0.13853(17) 0.6022(5)
N6 N -0.1581(3) 0.0387(2) 0.3964(6)
N7 N -0.21120(16) 0.07973(13) 0.3214(3)
N8 N -0.2633(2) 0.11725(15) 0.2512(4)
N9 N -0.0024(3) 0.0340(2) 1.0037(6)
N10 N 0.07544(18) 0.03142(13) 1.0102(4)
N11 N 0.1500(2) 0.0305(2) 1.0226(5)
C1 C 0.17174(17) 0.35954(14) 0.2118(4)
C2 C 0.0462(2) 0.35019(17) 0.0251(4)
H1 H 0.0050 0.3218 -0.0429
C3 C 0.0341(2) 0.4246(2) 0.0272(5)
H2 H -0.0142 0.4454 -0.0369
C4 C 0.0951(2) 0.46800(16) 0.1265(5)
H3 H 0.0892 0.5184 0.1292
C5 C 0.1646(2) 0.43399(14) 0.2212(4)
H4 H 0.2064 0.4613 0.2909
C6 C 0.24555(19) 0.32287(14) 0.3135(4)
C7 C 0.31928(18) 0.25153(15) 0.5171(4)
C8 C 0.16124(18) 0.22118(13) 0.4843(4)
C9 C 0.11978(18) 0.17606(14) 0.3453(4)
H5 H 0.1388 0.1726 0.2120
C10 C 0.04939(18) 0.13642(14) 0.4113(4)
H6 H 0.0206 0.1065 0.3183
C11 C 0.06185(18) 0.18255(14) 0.7332(4)
H7 H 0.0425 0.1847 0.8664
C12 C 0.13239(18) 0.22493(14) 0.6801(4)
H8 H 0.1596 0.2552 0.7748
C13 C 0.34038(19) 0.19612(15) 0.6723(4)
C14 C 0.3882(2) 0.21771(19) 0.8400(5)
H9 H 0.4064 0.2658 0.8521
C15 C 0.4093(3) 0.1680(2) 0.9906(6)
H10 H 0.4441 0.1820 1.1006
C16 C 0.3786(3) 0.0975(2) 0.9772(7)
H11 H 0.3911 0.0645 1.0806
C17 C 0.3307(3) 0.0765(2) 0.8152(7)
H12 H 0.3100 0.0290 0.8080
C18 C 0.3118(2) 0.12483(15) 0.6583(5)
H13 H 0.2801 0.1094 0.5449
Cd1A Cd -0.08465(2) -0.051182(7) 0.20746(3)
Cd1A_2 Cd -0.08465(2) -0.051182(7) 1.20746(3)
Cd1C Cd 0.41535(2) 0.448818(7) 0.20746(3)
N2C N -0.1743(2) 0.15240(17) 0.8257(5)
N6A N -0.1581(3) -0.0387(2) 0.8964(6)
N9A N -0.0024(3) -0.0340(2) 0.5037(6)
loop_
_geom_bond_atom_site_label_1
_geom_bond_atom_site_label_2
_geom_bond_site_symmetry_1
_geom_bond_site_symmetry_2
Cd1 N5 1_555 1_555
N1 C1 1_555 1_555
N2 N3 1_555 1_555
N3 C7 1_555 1_555
N4 C6 1_555 1_555
N5 C10 1_555 1_555
N6 Cd1 1_555 1_555
N7 N6 1_555 1_555
N8 N7 1_555 1_555
N9 Cd1 1_555 1_555
N10 N9 1_555 1_555
N11 N10 1_555 1_555
C1 C5 1_555 1_555
C2 N1 1_555 1_555
H1 C2 1_555 1_555
C3 C2 1_555 1_555
H2 C3 1_555 1_555
C4 C3 1_555 1_555
H3 C4 1_555 1_555
C5 C4 1_555 1_555
H4 C5 1_555 1_555
C6 N2 1_555 1_555
C7 N4 1_555 1_555
C8 N4 1_555 1_555
C9 C8 1_555 1_555
H5 C9 1_555 1_555
C10 C9 1_555 1_555
H6 C10 1_555 1_555
C11 N5 1_555 1_555
H7 C11 1_555 1_555
C12 C8 1_555 1_555
H8 C12 1_555 1_555
C13 C7 1_555 1_555
C14 C13 1_555 1_555
H9 C14 1_555 1_555
C15 C14 1_555 1_555
H10 C15 1_555 1_555
C16 C15 1_555 1_555
H11 C16 1_555 1_555
C17 C16 1_555 1_555
H12 C17 1_555 1_555
C18 C13 1_555 1_555
H13 C18 1_555 1_555
Cd1A N6 1_555 1_555
Cd1A_2 N9 1_555 1_555
Cd1C N2 1_555 1_555
N2C Cd1 1_555 1_555
N6A Cd1 1_555 1_555
N9A Cd1 1_555 1_555
C1 C6 1_555 1_555
C11 C12 1_555 1_555
C17 C18 1_555 1_555
Cd1A N9A 1_555 1_555
Cd1A_2 N6A 1_555 1_555

#END
