
#######################################################################
#
#                 Cambridge Crystallographic Data Centre
#                                CCDC 
#
#######################################################################
#
# If this CIF has been generated from an entry in the Cambridge 
# Structural Database, then it will include bibliographic, chemical, 
# crystal, experimental, refinement or atomic coordinate data resulting 
# from the CCDC's data processing and validation procedures.
#
#######################################################################

data_JUGMOP
_symmetry_cell_setting           monoclinic
_symmetry_space_group_name_H-M   'P 21/n'
_symmetry_Int_Tables_number      14
_space_group_name_Hall           '-P 2yn'
loop_
_symmetry_equiv_pos_site_id
_symmetry_equiv_pos_as_xyz
1 x,y,z
2 1/2-x,1/2+y,1/2-z
3 -x,-y,-z
4 1/2+x,1/2-y,1/2+z
_cell_length_a                   10.0604(8)
_cell_length_b                   16.4223(12)
_cell_length_c                   13.4937(10)
_cell_angle_alpha                90
_cell_angle_beta                 109.1400(10)
_cell_angle_gamma                90
_cell_volume                     2106.12
loop_
_atom_site_label
_atom_site_type_symbol
_atom_site_fract_x
_atom_site_fract_y
_atom_site_fract_z
Cd1 Cd 1.079475(17) 1.001327(10) 0.859499(13)
S1 S 1.50606(9) 1.00291(5) 0.76971(8)
S2 S 1.23011(7) 0.87873(4) 0.95693(6)
N1 N 0.9097(2) 0.94835(12) 0.69876(16)
N2 N 0.8652(2) 0.94793(11) 0.89031(15)
N3 N 0.8427(2) 0.92136(12) 0.98088(15)
N4 N 0.7337(2) 0.83870(11) 0.85249(15)
N5 N 0.5295(2) 0.62463(12) 0.71237(15)
N6 N 1.2287(2) 1.01805(12) 0.76428(17)
N7 N 1.0222(3) 0.75712(15) 0.9246(2)
C1 C 0.7959(3) 0.90939(14) 0.70584(19)
C2 C 0.9115(3) 0.96730(18) 0.6034(2)
H1 H 0.9911 0.9954 0.5974
C3 C 0.8029(3) 0.94808(18) 0.5123(2)
H2 H 0.8087 0.9623 0.4456
C4 C 0.6867(3) 0.90810(17) 0.5203(2)
H3 H 0.6106 0.8944 0.4591
C5 C 0.6823(3) 0.88824(16) 0.6186(2)
H4 H 0.6033 0.8607 0.6264
C6 C 0.7993(2) 0.89732(14) 0.81420(18)
C7 C 0.7641(2) 0.85548(14) 0.95730(18)
C8 C 0.6608(3) 0.76665(14) 0.80119(18)
C9 C 0.7269(3) 0.71450(15) 0.7510(2)
H5 H 0.8176 0.7263 0.7472
C10 C 0.6549(3) 0.64442(15) 0.7066(2)
H6 H 0.6973 0.6088 0.6703
C11 C 0.4688(3) 0.67585(15) 0.76202(19)
H7 H 0.3796 0.6617 0.7670
C12 C 0.5303(3) 0.74847(14) 0.80648(19)
H8 H 0.4837 0.7844 0.8395
C13 C 0.7190(3) 0.80388(15) 1.02923(19)
C14 C 0.6236(3) 0.83275(17) 1.0754(2)
H9 H 0.5843 0.8857 1.0592
C15 C 0.5861(4) 0.7835(2) 1.1456(2)
H10 H 0.5222 0.8032 1.1785
C16 C 0.6404(4) 0.7067(2) 1.1676(2)
H11 H 0.6146 0.6736 1.2161
C17 C 0.7326(4) 0.67684(18) 1.1199(2)
H12 H 0.7684 0.6230 1.1346
C18 C 0.7732(3) 0.72511(15) 1.0504(2)
H13 H 0.8370 0.7049 1.0177
C19 C 1.3438(3) 1.01111(15) 0.7680(2)
C20 C 1.1075(3) 0.80803(17) 0.9369(2)
Cd1A Cd 0.420525(17) 0.501327(10) 0.640501(13)
Cd1B Cd 0.920525(17) 0.998673(10) 1.140501(13)
N3B N 1.1573(2) 1.07864(12) 1.01912(15)
N5A N 0.9705(2) 1.12463(12) 0.78763(15)
loop_
_geom_bond_atom_site_label_1
_geom_bond_atom_site_label_2
_geom_bond_site_symmetry_1
_geom_bond_site_symmetry_2
Cd1 S2 1_555 1_555
S1 C19 1_555 1_555
S2 C20 1_555 1_555
N1 Cd1 1_555 1_555
N2 Cd1 1_555 1_555
N3 N2 1_555 1_555
N4 C6 1_555 1_555
N5 C10 1_555 1_555
N6 Cd1 1_555 1_555
N7 C20 1_555 1_555
C1 N1 1_555 1_555
C2 N1 1_555 1_555
H1 C2 1_555 1_555
C3 C2 1_555 1_555
H2 C3 1_555 1_555
C4 C3 1_555 1_555
H3 C4 1_555 1_555
C5 C1 1_555 1_555
H4 C5 1_555 1_555
C6 N2 1_555 1_555
C7 N3 1_555 1_555
C8 N4 1_555 1_555
C9 C8 1_555 1_555
H5 C9 1_555 1_555
C10 C9 1_555 1_555
H6 C10 1_555 1_555
C11 N5 1_555 1_555
H7 C11 1_555 1_555
C12 C8 1_555 1_555
H8 C12 1_555 1_555
C13 C7 1_555 1_555
C14 C13 1_555 1_555
H9 C14 1_555 1_555
C15 C14 1_555 1_555
H10 C15 1_555 1_555
C16 C15 1_555 1_555
H11 C16 1_555 1_555
C17 C16 1_555 1_555
H12 C17 1_555 1_555
C18 C13 1_555 1_555
H13 C18 1_555 1_555
C19 N6 1_555 1_555
Cd1A N5 1_555 1_555
Cd1B N3 1_555 1_555
N3B Cd1 1_555 1_555
N5A Cd1 1_555 1_555
N4 C7 1_555 1_555
C1 C6 1_555 1_555
C4 C5 1_555 1_555
C11 C12 1_555 1_555
C17 C18 1_555 1_555

#END
