
#######################################################################
#
#                 Cambridge Crystallographic Data Centre
#                                CCDC 
#
#######################################################################
#
# If this CIF has been generated from an entry in the Cambridge 
# Structural Database, then it will include bibliographic, chemical, 
# crystal, experimental, refinement or atomic coordinate data resulting 
# from the CCDC's data processing and validation procedures.
#
#######################################################################

data_JUGQUX
_symmetry_cell_setting           triclinic
_symmetry_space_group_name_H-M   'P -1'
_symmetry_Int_Tables_number      2
_space_group_name_Hall           '-P 1'
loop_
_symmetry_equiv_pos_site_id
_symmetry_equiv_pos_as_xyz
1 x,y,z
2 -x,-y,-z
_cell_length_a                   7.5526(10)
_cell_length_b                   9.0298(10)
_cell_length_c                   11.106(3)
_cell_angle_alpha                102.006(10)
_cell_angle_beta                 108.74(2)
_cell_angle_gamma                102.895(15)
_cell_volume                     666.3
loop_
_atom_site_label
_atom_site_type_symbol
_atom_site_fract_x
_atom_site_fract_y
_atom_site_fract_z
Cu1 Cu 1.0000 1.0000 1.0000
Cl1 Cl 1.14841(14) 1.10152(9) 0.87520(8)
S1 S 1.32009(11) 1.32059(10) 1.18854(7)
N1 N 1.0630(3) 0.7970(3) 0.9483(2)
C1 C 0.7522(5) 1.2075(4) 1.0014(3)
H1 H 0.6532(5) 1.1142(4) 0.9439(3)
C2 C 0.7031(5) 1.3444(4) 1.0313(4)
H2 H 0.5736(5) 1.3438(4) 0.9939(4)
C3 C 0.8487(5) 1.4821(4) 1.1174(3)
H3 H 0.8188(5) 1.5759(4) 1.1402(3)
C4 C 1.0392(5) 1.4794(4) 1.1694(3)
H4 H 1.1401(5) 1.5715(4) 1.2272(3)
C5 C 1.0784(4) 1.3371(3) 1.1343(3)
C6 C 1.4111(4) 1.4243(4) 1.3608(3)
C7 C 1.5551(4) 1.5723(4) 1.4152(3)
F1 F 1.3878(3) 1.3544(2) 1.6655(2)
C8 C 1.3587(4) 1.3536(3) 1.4493(3)
F2 F 1.2228(3) 1.2101(2) 1.4030(2)
Cl1A Cl 0.85159(14) 0.89848(9) 1.12480(8)
N1A N 0.9370(3) 1.2030(3) 1.0517(2)
C7A C 1.4449(4) 1.4277(4) 1.5848(3)
C6A C 1.5889(4) 1.5757(4) 1.6392(3)
S1A S 1.67991(11) 1.67941(10) 1.81146(7)
C5A C 1.9216(4) 1.6629(3) 1.8657(3)
N1_2 N 2.0630(3) 1.7970(3) 1.9483(2)
Cu1_2 Cu 2.0000 2.0000 2.0000
C1A C 2.2478(5) 1.7925(4) 1.9986(3)
H1A H 2.3468(5) 1.8858(4) 2.0561(3)
C2A C 2.2969(5) 1.6556(4) 1.9687(4)
H2A H 2.4264(5) 1.6562(4) 2.0061(4)
C3A C 2.1513(5) 1.5179(4) 1.8826(3)
H3A H 2.1812(5) 1.4241(4) 1.8598(3)
C4A C 1.9608(5) 1.5206(4) 1.8306(3)
H4A H 1.8599(5) 1.4285(4) 1.7728(3)
C8A C 1.6413(4) 1.6464(3) 1.5507(3)
F2A F 1.7772(3) 1.7899(2) 1.5970(2)
F1A F 1.6122(3) 1.6456(2) 1.3345(2)
C9 C -0.2108(5) 0.1246(4) 0.4049(3)
H5 H -0.1527(5) 0.0590(4) 0.3571(3)
Cl2 Cl -0.09816(15) 0.15054(12) 0.57518(9)
Cl3 Cl -0.1720(2) 0.3083(2) 0.3718(2)
Cl4 Cl -0.4628(2) 0.0258(2) 0.34713(11)
loop_
_geom_bond_atom_site_label_1
_geom_bond_atom_site_label_2
_geom_bond_site_symmetry_1
_geom_bond_site_symmetry_2
Cu1 Cl1 1_555 1_555
S1 C5 1_555 1_555
N1 Cu1 1_555 1_555
C1 H1 1_555 1_555
C2 C1 1_555 1_555
H2 C2 1_555 1_555
C3 C2 1_555 1_555
H3 C3 1_555 1_555
C4 C3 1_555 1_555
H4 C4 1_555 1_555
C5 C4 1_555 1_555
C6 S1 1_555 1_555
C7 C6 1_555 1_555
F1 C7A 1_555 1_555
C8 C6 1_555 1_555
F2 C8 1_555 1_555
C9 H5 1_555 1_555
Cl2 C9 1_555 1_555
Cl3 C9 1_555 1_555
Cl4 C9 1_555 1_555
Cl1A Cu1 1_555 1_555
N1A Cu1 1_555 1_555
C7A C8 1_555 1_555
C6A C7A 1_555 1_555
S1A C6A 1_555 1_555
C5A S1A 1_555 1_555
N1_2 C5A 1_555 1_555
Cu1_2 N1_2 1_555 1_555
C1A N1_2 1_555 1_555
H1A C1A 1_555 1_555
C2A C1A 1_555 1_555
H2A C2A 1_555 1_555
C3A C2A 1_555 1_555
H3A C3A 1_555 1_555
C4A C5A 1_555 1_555
H4A C4A 1_555 1_555
C8A C7 1_555 1_555
F2A C8A 1_555 1_555
F1A C7 1_555 1_555
C1 N1A 1_555 1_555
C5 N1A 1_555 1_555
C6A C8A 1_555 1_555
C3A C4A 1_555 1_555

#END
