
#######################################################################
#
#                 Cambridge Crystallographic Data Centre
#                                CCDC 
#
#######################################################################
#
# If this CIF has been generated from an entry in the Cambridge 
# Structural Database, then it will include bibliographic, chemical, 
# crystal, experimental, refinement or atomic coordinate data resulting 
# from the CCDC's data processing and validation procedures.
#
#######################################################################

data_JUGWAJ
_symmetry_cell_setting           monoclinic
_symmetry_space_group_name_H-M   'P 21/n'
_symmetry_Int_Tables_number      14
_space_group_name_Hall           '-P 2yn'
loop_
_symmetry_equiv_pos_site_id
_symmetry_equiv_pos_as_xyz
1 x,y,z
2 1/2-x,1/2+y,1/2-z
3 -x,-y,-z
4 1/2+x,1/2-y,1/2+z
_cell_length_a                   17.162(9)
_cell_length_b                   18.595(6)
_cell_length_c                   12.774(5)
_cell_angle_alpha                90
_cell_angle_beta                 106.64(3)
_cell_angle_gamma                90
_cell_volume                     3905.82
loop_
_atom_site_label
_atom_site_type_symbol
_atom_site_fract_x
_atom_site_fract_y
_atom_site_fract_z
Mn1 Mn 0.28083(8) 0.25897(7) 0.1768(1)
Mn2 Mn 0.30588(8) 0.22095(7) 0.6886(1)
O1 O 0.2687(4) 0.1576(3) 0.1729(5)
O2 O 0.1682(3) 0.2658(3) 0.1427(4)
O3 O 0.3163(3) 0.3232(3) 0.6978(5)
O4 O 0.1924(3) 0.2337(3) 0.6460(4)
O5 O 0.3145(3) 0.2534(3) 0.3542(4)
O6 O 0.3085(3) 0.2191(3) 0.5177(4)
O7 O 0.3174(3) 0.2199(3) -0.1387(4)
O8 O 0.2800(3) 0.2667(3) 0.0037(4)
N1 N 0.4022(4) 0.2472(4) 0.2051(5)
N2 N 0.2868(4) 0.3680(3) 0.1800(5)
N3 N 0.4286(4) 0.2133(3) 0.7324(5)
N4 N 0.2892(4) 0.1134(3) 0.6776(5)
C1 C 0.4366(5) 0.1903(5) 0.1799(7)
C2 C 0.4614(6) 0.3037(5) 0.2591(8)
C3 C 0.4367(5) 0.3772(5) 0.2155(8)
C4 C 0.3613(6) 0.4051(5) 0.2399(7)
C5 C 0.2281(5) 0.4079(4) 0.1228(7)
C6 C 0.3936(5) 0.1251(5) 0.1356(7)
C7 C 0.3123(6) 0.1124(4) 0.1374(7)
C8 C 0.2788(6) 0.0452(5) 0.1003(9)
C9 C 0.3253(8) -0.0037(5) 0.058(1)
C10 C 0.4050(8) 0.0093(6) 0.0561(9)
C11 C 0.4384(7) 0.0743(5) 0.0961(8)
C12 C 0.1493(5) 0.3832(4) 0.0645(7)
C13 C 0.1229(5) 0.3148(4) 0.0747(6)
C14 C 0.0401(5) 0.2969(5) 0.0187(7)
C15 C -0.0082(5) 0.3481(5) -0.0482(7)
C16 C 0.0178(6) 0.4164(5) -0.0579(8)
C17 C 0.0963(6) 0.4341(5) -0.0034(8)
C18 C 0.4754(5) 0.2633(5) 0.7157(6)
C19 C 0.4718(6) 0.1472(5) 0.7836(7)
C20 C 0.4343(6) 0.0796(5) 0.7241(7)
C21 C 0.3518(6) 0.0628(5) 0.7377(7)
C22 C 0.2215(6) 0.0838(5) 0.6235(7)
C23 C 0.4513(5) 0.3349(4) 0.6763(7)
C24 C 0.3744(5) 0.3595(4) 0.6711(6)
C25 C 0.3574(6) 0.4328(5) 0.6436(7)
C26 C 0.4157(6) 0.4745(5) 0.6187(8)
C27 C 0.4924(6) 0.4492(5) 0.6199(8)
C28 C 0.5092(6) 0.3792(5) 0.6524(7)
C29 C 0.1474(5) 0.1202(4) 0.5668(7)
C30 C 0.1356(5) 0.1926(5) 0.5834(6)
C31 C 0.0578(5) 0.2208(5) 0.5326(6)
C32 C -0.0036(6) 0.1784(5) 0.4678(7)
C33 C 0.0087(6) 0.1070(5) 0.4520(7)
C34 C 0.0842(6) 0.0782(5) 0.5008(8)
C35 C 0.2840(5) 0.2569(5) 0.4327(6)
C36 C 0.2118(7) 0.3035(6) 0.4213(7)
C37 C 0.2696(5) 0.2240(4) -0.0782(6)
C38 C 0.1953(6) 0.1784(5) -0.1017(7)
H1 H 0.4938 0.1916 0.1917
H2 H 0.4660 0.3033 0.3351
H3 H 0.5124 0.2927 0.2483
H4 H 0.4800 0.4093 0.2472
H5 H 0.4268 0.3762 0.1387
H6 H 0.3558 0.4547 0.2211
H7 H 0.3681 0.3997 0.3159
H8 H 0.2389 0.4579 0.1195
H9 H 0.2257 0.0328 0.1034
H10 H 0.3006 -0.0481 0.0296
H11 H 0.4348 -0.0253 0.0281
H12 H 0.4928 0.0850 0.0964
H13 H 0.0191 0.2508 0.0271
H14 H -0.0616 0.3351 -0.0898
H15 H -0.0177 0.4509 -0.1018
H16 H 0.1154 0.4812 -0.0107
H17 H 0.5315 0.2518 0.7311
H18 H 0.5268 0.1500 0.7831
H19 H 0.4694 0.1445 0.8571
H20 H 0.4288 0.0855 0.6486
H21 H 0.4696 0.0403 0.7519
H22 H 0.3550 0.0651 0.8131
H23 H 0.3366 0.0156 0.7112
H24 H 0.2208 0.0328 0.6207
H25 H 0.3063 0.4529 0.6429
H26 H 0.4031 0.5234 0.5989
H27 H 0.5308 0.4787 0.5994
H28 H 0.5619 0.3605 0.6588
H29 H 0.0473 0.2700 0.5429
H30 H -0.0550 0.1993 0.4332
H31 H -0.0336 0.0780 0.4078
H32 H 0.0936 0.0288 0.4899
H33 H 0.2251 0.3517 0.4083
H34 H 0.1684 0.2872 0.3615
H35 H 0.1958 0.3015 0.4864
H36 H 0.1485 0.2083 -0.1175
H37 H 0.1930 0.1485 -0.1629
H38 H 0.1972 0.1494 -0.0399
O7_2 O 0.3174(3) 0.2199(3) 0.8613(4)
Mn2_2 Mn 0.30588(8) 0.22095(7) -0.3114(1)
O9 O 0.2689(6) 0.0862(4) 0.3801(7)
O10 O 0.1339(5) 0.3692(4) 0.7060(8)
O11 O 0.2867(4) 0.3976(3) 0.8855(5)
loop_
_geom_bond_atom_site_label_1
_geom_bond_atom_site_label_2
_geom_bond_site_symmetry_1
_geom_bond_site_symmetry_2
Mn1 O1 1_555 1_555
Mn2 O3 1_555 1_555
O1 C7 1_555 1_555
O2 Mn1 1_555 1_555
O3 C24 1_555 1_555
O4 Mn2 1_555 1_555
O5 Mn1 1_555 1_555
O6 Mn2 1_555 1_555
O7 C37 1_555 1_555
O8 Mn1 1_555 1_555
N1 Mn1 1_555 1_555
N2 Mn1 1_555 1_555
N3 Mn2 1_555 1_555
N4 Mn2 1_555 1_555
C1 N1 1_555 1_555
C2 N1 1_555 1_555
C3 C2 1_555 1_555
C4 N2 1_555 1_555
C5 N2 1_555 1_555
C6 C1 1_555 1_555
C7 C6 1_555 1_555
C8 C7 1_555 1_555
C9 C8 1_555 1_555
C10 C9 1_555 1_555
C11 C6 1_555 1_555
C12 C5 1_555 1_555
C13 O2 1_555 1_555
C14 C13 1_555 1_555
C15 C14 1_555 1_555
C16 C15 1_555 1_555
C17 C12 1_555 1_555
C18 N3 1_555 1_555
C19 N3 1_555 1_555
C20 C19 1_555 1_555
C21 N4 1_555 1_555
C22 N4 1_555 1_555
C23 C18 1_555 1_555
C24 C23 1_555 1_555
C25 C24 1_555 1_555
C26 C25 1_555 1_555
C27 C26 1_555 1_555
C28 C23 1_555 1_555
C29 C22 1_555 1_555
C30 O4 1_555 1_555
C31 C30 1_555 1_555
C32 C31 1_555 1_555
C33 C32 1_555 1_555
C34 C29 1_555 1_555
C35 O5 1_555 1_555
C36 C35 1_555 1_555
C37 O8 1_555 1_555
C38 C37 1_555 1_555
H1 C1 1_555 1_555
H2 C2 1_555 1_555
H3 C2 1_555 1_555
H4 C3 1_555 1_555
H5 C3 1_555 1_555
H6 C4 1_555 1_555
H7 C4 1_555 1_555
H8 C5 1_555 1_555
H9 C8 1_555 1_555
H10 C9 1_555 1_555
H11 C10 1_555 1_555
H12 C11 1_555 1_555
H13 C14 1_555 1_555
H14 C15 1_555 1_555
H15 C16 1_555 1_555
H16 C17 1_555 1_555
H17 C18 1_555 1_555
H18 C19 1_555 1_555
H19 C19 1_555 1_555
H20 C20 1_555 1_555
H21 C20 1_555 1_555
H22 C21 1_555 1_555
H23 C21 1_555 1_555
H24 C22 1_555 1_555
H25 C25 1_555 1_555
H26 C26 1_555 1_555
H27 C27 1_555 1_555
H28 C28 1_555 1_555
H29 C31 1_555 1_555
H30 C32 1_555 1_555
H31 C33 1_555 1_555
H32 C34 1_555 1_555
H33 C36 1_555 1_555
H34 C36 1_555 1_555
H35 C36 1_555 1_555
H36 C38 1_555 1_555
H37 C38 1_555 1_555
H38 C38 1_555 1_555
O7_2 Mn2 1_555 1_555
Mn2_2 O7 1_555 1_555
O6 C35 1_555 1_555
C3 C4 1_555 1_555
C10 C11 1_555 1_555
C12 C13 1_555 1_555
C16 C17 1_555 1_555
C20 C21 1_555 1_555
C27 C28 1_555 1_555
C29 C30 1_555 1_555
C33 C34 1_555 1_555

#END
