
#######################################################################
#
#                 Cambridge Crystallographic Data Centre
#                                CCDC 
#
#######################################################################
#
# If this CIF has been generated from an entry in the Cambridge 
# Structural Database, then it will include bibliographic, chemical, 
# crystal, experimental, refinement or atomic coordinate data resulting 
# from the CCDC's data processing and validation procedures.
#
#######################################################################

data_JUHJED
_symmetry_cell_setting           monoclinic
_symmetry_space_group_name_H-M   'P 21/c'
_symmetry_Int_Tables_number      14
_space_group_name_Hall           '-P 2ybc'
loop_
_symmetry_equiv_pos_site_id
_symmetry_equiv_pos_as_xyz
1 x,y,z
2 -x,1/2+y,1/2-z
3 -x,-y,-z
4 x,1/2-y,1/2+z
_cell_length_a                   11.923(2)
_cell_length_b                   22.659(5)
_cell_length_c                   11.257(2)
_cell_angle_alpha                90
_cell_angle_beta                 111.34(3)
_cell_angle_gamma                90
_cell_volume                     2832.71
loop_
_atom_site_label
_atom_site_type_symbol
_atom_site_fract_x
_atom_site_fract_y
_atom_site_fract_z
U1 U 0.23171(2) 0.52534(2) 0.44891(2)
O1 O 0.1787(4) 0.50112(18) 0.2903(4)
O2 O 0.2873(4) 0.54794(17) 0.6081(4)
O3 O 0.6357(3) 0.55975(15) 0.4914(4)
O4 O 0.4238(3) 0.55419(15) 0.4436(3)
O5 O 0.5579(4) 0.56961(16) 0.6634(3)
S1 S 0.53798(11) 0.58026(5) 0.53141(11)
C1 C 0.5079(6) 0.8451(3) 0.4551(7)
H1 H 0.5788 0.8623 0.5168
H2 H 0.4378 0.8599 0.4683
H3 H 0.5037 0.8552 0.3708
C2 C 0.5130(5) 0.7788(2) 0.4700(6)
C3 C 0.5631(6) 0.7431(2) 0.4012(6)
H4 H 0.5910 0.7603 0.3422
C4 C 0.5720(5) 0.6822(2) 0.4192(5)
H5 H 0.6071 0.6590 0.3741
C5 C 0.5282(5) 0.6570(2) 0.5045(5)
C6 C 0.4753(5) 0.6914(2) 0.5732(5)
H6 H 0.4452 0.6738 0.6301
C7 C 0.4686(5) 0.7518(2) 0.5553(6)
H7 H 0.4338 0.7749 0.6010
O6 O 0.2889(4) 0.63882(18) 0.1924(4)
O7 O 0.2179(4) 0.62121(16) 0.3673(4)
O8 O 0.0743(4) 0.63238(18) 0.1504(4)
S2 S 0.19241(12) 0.64860(5) 0.23975(12)
C8 C 0.1496(7) 0.9091(3) 0.3314(7)
H8 H 0.1185 0.9136 0.3985
H9 H 0.0945 0.9265 0.2545
H10 H 0.2262 0.9285 0.3551
C9 C 0.1646(5) 0.8440(2) 0.3095(6)
C10 C 0.2123(6) 0.8251(2) 0.2210(6)
H11 H 0.2368 0.8527 0.1743
C11 C 0.2242(5) 0.7652(2) 0.2007(5)
H12 H 0.2569 0.7527 0.1416
C12 C 0.1867(5) 0.7246(2) 0.2699(5)
C13 C 0.1373(5) 0.7426(2) 0.3578(5)
H13 H 0.1112 0.7148 0.4029
C14 C 0.1271(5) 0.8019(2) 0.3777(5)
H14 H 0.0949 0.8142 0.4375
O9 O -0.0487(5) 0.4317(2) 0.5525(6)
O10 O 0.1239(4) 0.44645(17) 0.4962(4)
O11 O 0.1425(6) 0.4561(2) 0.7174(5)
S3 S 0.08330(14) 0.42703(6) 0.59887(16)
C15 C 0.1861(7) 0.1653(3) 0.6681(8)
H15 H 0.1321 0.1444 0.5956
H16 H 0.1734 0.1527 0.7437
H17 H 0.2677 0.1571 0.6768
C16 C 0.1627(5) 0.2308(2) 0.6496(6)
C17 C 0.1070(5) 0.2547(2) 0.5285(5)
H18 H 0.0844 0.2300 0.4576
C18 C 0.0846(5) 0.3150(2) 0.5120(5)
H19 H 0.0486 0.3307 0.4306
C19 C 0.1166(5) 0.3511(2) 0.6178(5)
C20 C 0.1739(5) 0.3285(2) 0.7400(5)
H20 H 0.1966 0.3534 0.8106
C21 C 0.1969(5) 0.2682(2) 0.7551(5)
H21 H 0.2355 0.2527 0.8363
U1B U -0.23171(2) 0.47466(2) 0.55109(2)
U1B_2 U 0.76829(2) 0.47466(2) 0.55109(2)
O3B O 0.3643(3) 0.44025(15) 0.5086(4)
O9B O 0.0487(5) 0.5683(2) 0.4475(6)
O12 O 0.3878(8) 0.4830(6) 0.8560(8)
H22 H 0.4492 0.4693 0.8439
H23 H 0.3386 0.4969 0.7864
O13 O 0.4007(5) 0.5325(2) 0.1786(5)
H24 H 0.3975 0.5699 0.1825
H25 H 0.4318 0.5185 0.2535
O14 O 0.2795(6) 0.4592(2) 0.0098(6)
O15 O 0.9418(5) 0.5353(2) 0.0630(7)
loop_
_geom_bond_atom_site_label_1
_geom_bond_atom_site_label_2
_geom_bond_site_symmetry_1
_geom_bond_site_symmetry_2
U1 O1 1_555 1_555
O2 U1 1_555 1_555
O3 S1 1_555 1_555
O4 U1 1_555 1_555
O5 S1 1_555 1_555
S1 O4 1_555 1_555
C1 H1 1_555 1_555
H2 C1 1_555 1_555
H3 C1 1_555 1_555
C2 C1 1_555 1_555
C3 C2 1_555 1_555
H4 C3 1_555 1_555
C4 C3 1_555 1_555
H5 C4 1_555 1_555
C5 S1 1_555 1_555
C6 C5 1_555 1_555
H6 C6 1_555 1_555
C7 C2 1_555 1_555
H7 C7 1_555 1_555
O6 S2 1_555 1_555
O7 U1 1_555 1_555
O8 S2 1_555 1_555
S2 O7 1_555 1_555
C8 H8 1_555 1_555
H9 C8 1_555 1_555
H10 C8 1_555 1_555
C9 C8 1_555 1_555
C10 C9 1_555 1_555
H11 C10 1_555 1_555
C11 C10 1_555 1_555
H12 C11 1_555 1_555
C12 S2 1_555 1_555
C13 C12 1_555 1_555
H13 C13 1_555 1_555
C14 C9 1_555 1_555
H14 C14 1_555 1_555
O9 S3 1_555 1_555
O10 U1 1_555 1_555
O11 S3 1_555 1_555
S3 O10 1_555 1_555
C15 H15 1_555 1_555
H16 C15 1_555 1_555
H17 C15 1_555 1_555
C16 C15 1_555 1_555
C17 C16 1_555 1_555
H18 C17 1_555 1_555
C18 C17 1_555 1_555
H19 C18 1_555 1_555
C19 S3 1_555 1_555
C20 C19 1_555 1_555
H20 C20 1_555 1_555
C21 C16 1_555 1_555
H21 C21 1_555 1_555
O12 H22 1_555 1_555
H23 O12 1_555 1_555
O13 H24 1_555 1_555
H25 O13 1_555 1_555
U1B O9 1_555 1_555
U1B_2 O3 1_555 1_555
O3B U1 1_555 1_555
O9B U1 1_555 1_555
C4 C5 1_555 1_555
C6 C7 1_555 1_555
C11 C12 1_555 1_555
C13 C14 1_555 1_555
C18 C19 1_555 1_555
C20 C21 1_555 1_555

#END
