
#######################################################################
#
#                 Cambridge Crystallographic Data Centre
#                                CCDC 
#
#######################################################################
#
# If this CIF has been generated from an entry in the Cambridge 
# Structural Database, then it will include bibliographic, chemical, 
# crystal, experimental, refinement or atomic coordinate data resulting 
# from the CCDC's data processing and validation procedures.
#
#######################################################################

data_JUHKEC
_symmetry_cell_setting           orthorhombic
_symmetry_space_group_name_H-M   'P b c n'
_symmetry_Int_Tables_number      60
_space_group_name_Hall           '-P 2n 2ab'
loop_
_symmetry_equiv_pos_site_id
_symmetry_equiv_pos_as_xyz
1 x,y,z
2 1/2-x,1/2+y,z
3 x,-y,1/2+z
4 1/2-x,1/2-y,1/2+z
5 -x,-y,-z
6 1/2+x,1/2-y,-z
7 -x,y,1/2-z
8 1/2+x,1/2+y,1/2-z
_cell_length_a                   10.801(2)
_cell_length_b                   10.301(2)
_cell_length_c                   33.246(8)
_cell_angle_alpha                90
_cell_angle_beta                 90
_cell_angle_gamma                90
_cell_volume                     3698.99
loop_
_atom_site_label
_atom_site_type_symbol
_atom_site_fract_x
_atom_site_fract_y
_atom_site_fract_z
La1 La 0.1306(1) 0.1505(1) 0.01098(4)
P1 P -0.1388(5) 0.1608(6) 0.0530(1)
P2 P 0.2278(5) 0.4233(6) 0.0818(2)
O1 O 0.238(1) 0.316(1) 0.0507(4)
O2 O 0.337(1) 0.041(1) -0.0091(5)
O3 O 0.304(1) 0.540(1) 0.0725(4)
O4 O -0.263(1) 0.205(1) 0.0388(3)
O5 O -0.083(1) 0.054(1) 0.0264(3)
O6 O -0.039(1) 0.268(1) 0.0537(4)
O7 O -0.018(1) 0.245(1) -0.0422(5)
O8 O 0.090(1) 0.463(1) 0.0859(4)
C1 C -0.156(2) 0.097(2) 0.1033(6)
C2 C -0.218(2) 0.183(2) 0.1329(6)
C3 C -0.342(2) 0.179(2) 0.1416(7)
C4 C -0.394(3) 0.255(3) 0.1696(8)
C5 C -0.323(3) 0.348(4) 0.1884(8)
C6 C -0.201(3) 0.363(4) 0.1816(7)
C7 C -0.149(2) 0.276(3) 0.1527(7)
C8 C 0.273(2) 0.358(3) 0.1309(6)
C9 C 0.268(2) 0.452(2) 0.1645(5)
C10 C 0.165(2) 0.482(3) 0.1861(7)
C11 C 0.168(3) 0.570(4) 0.2169(8)
C12 C 0.279(4) 0.625(3) 0.2283(8)
C13 C 0.377(4) 0.602(4) 0.2054(8)
C14 C 0.375(4) 0.519(2) 0.1747(6)
O5D O 0.083(1) -0.054(1) -0.0264(3)
O3A O 0.196(1) 0.040(1) 0.0725(4)
La1D La -0.1306(1) -0.1505(1) -0.01098(4)
La1A La 0.3694(1) 0.6505(1) 0.01098(4)
O4E O 0.237(1) 0.295(1) -0.0388(3)
La1E La -0.3694(1) 0.3495(1) -0.01098(4)
loop_
_geom_bond_atom_site_label_1
_geom_bond_atom_site_label_2
_geom_bond_site_symmetry_1
_geom_bond_site_symmetry_2
La1 O1 1_555 1_555
P1 O4 1_555 1_555
P2 O1 1_555 1_555
O2 La1 1_555 1_555
O3 P2 1_555 1_555
O4 La1E 1_555 1_555
O5 La1 1_555 1_555
O6 La1 1_555 1_555
O7 La1 1_555 1_555
O8 P2 1_555 1_555
C1 P1 1_555 1_555
C2 C1 1_555 1_555
C3 C2 1_555 1_555
C4 C3 1_555 1_555
C5 C4 1_555 1_555
C6 C5 1_555 1_555
C7 C2 1_555 1_555
C8 P2 1_555 1_555
C9 C8 1_555 1_555
C10 C9 1_555 1_555
C11 C10 1_555 1_555
C12 C11 1_555 1_555
C13 C12 1_555 1_555
C14 C9 1_555 1_555
O5D La1 1_555 1_555
O3A La1 1_555 1_555
La1D O5 1_555 1_555
La1A O3 1_555 1_555
O4E La1 1_555 1_555
P1 O5 1_555 1_555
P1 O6 1_555 1_555
C6 C7 1_555 1_555
C13 C14 1_555 1_555
O5D La1D 1_555 1_555

#END
