
#######################################################################
#
#                 Cambridge Crystallographic Data Centre
#                                CCDC 
#
#######################################################################
#
# If this CIF has been generated from an entry in the Cambridge 
# Structural Database, then it will include bibliographic, chemical, 
# crystal, experimental, refinement or atomic coordinate data resulting 
# from the CCDC's data processing and validation procedures.
#
#######################################################################

data_JUHKAY01
_symmetry_cell_setting           triclinic
_symmetry_space_group_name_H-M   'P -1'
_symmetry_Int_Tables_number      2
_space_group_name_Hall           '-P 1'
loop_
_symmetry_equiv_pos_site_id
_symmetry_equiv_pos_as_xyz
1 x,y,z
2 -x,-y,-z
_cell_length_a                   11.204(4)
_cell_length_b                   15.663(9)
_cell_length_c                   8.391(4)
_cell_angle_alpha                94.36(4)
_cell_angle_beta                 108.86(3)
_cell_angle_gamma                89.70(4)
_cell_volume                     1389.14
loop_
_atom_site_label
_atom_site_type_symbol
_atom_site_fract_x
_atom_site_fract_y
_atom_site_fract_z
La1 La 0.1278(2) 0.0256(2) 0.2391(3)
La2 La 0.3757(2) -0.0198(2) -0.2674(3)
P1 P -0.065(1) 0.1237(8) 0.531(1)
P2 P 0.191(1) -0.1247(7) -0.017(1)
P3 P 0.454(1) 0.1194(7) 0.530(1)
P4 P 0.319(1) 0.1205(1) 0.001(1)
O1 O 0.443(2) 0.070(1) 0.055(3)
O2 O 0.328(2) 0.070(1) 0.464(2)
O3 O 0.016(2) 0.115(1) 0.414(2)
O4 O 0.244(2) 0.105(1) -0.190(3)
O5 O -0.184(2) 0.069(1) 0.493(2)
O6 O 0.262(2) -0.095(1) 0.172(3)
O7 O 0.261(2) -0.108(1) -0.135(2)
O8 O 0.080(2) -0.067(1) -0.029(2)
O9 O 0.533(2) 0.101(1) 0.418(2)
O10 O 0.529(2) 0.099(1) 0.709(2)
O11 O 0.223(2) 0.109(1) 0.094(2)
O12 O 0.003(2) 0.098(1) 0.718(2)
H1 H 0.3563 -0.0968 0.2253
H2 H 0.1526 0.1025 -0.2257
C1 C -0.090(2) 0.237(1) 0.535(2)
C2 C -0.001(2) 0.296(1) 0.523(2)
C3 C -0.022(2) 0.384(1) 0.543(3)
C4 C -0.130(2) 0.412(1) 0.575(3)
C5 C -0.219(2) 0.353(1) 0.587(2)
C6 C -0.198(2) 0.266(1) 0.567(2)
H3 H 0.062(2) 0.277(2) 0.502(3)
H4 H 0.039(2) 0.424(1) 0.535(4)
H5 H -0.144(3) 0.472(1) 0.588(4)
H6 H -0.292(2) 0.373(2) 0.608(4)
H7 H -0.259(2) 0.225(2) 0.575(3)
C7 C 0.138(2) -0.234(1) -0.048(2)
C8 C 0.028(2) -0.263(1) -0.024(2)
C9 C 0.002(2) -0.350(1) -0.034(3)
C10 C 0.086(2) -0.409(1) -0.067(2)
C11 C 0.196(2) -0.381(1) -0.090(2)
C12 C 0.222(1) -0.294(1) -0.081(2)
H8 H -0.029(2) -0.222(1) -0.002(3)
H9 H -0.073(2) -0.369(2) -0.018(4)
H10 H 0.068(3) -0.469(1) -0.073(3)
H11 H 0.253(2) -0.422(1) -0.112(3)
H12 H 0.297(2) -0.274(2) -0.097(3)
C13 C 0.411(2) 0.230(1) 0.541(2)
C14 C 0.306(1) 0.266(1) 0.429(2)
C15 C 0.290(2) 0.355(1) 0.440(2)
C16 C 0.379(2) 0.407(1) 0.563(2)
C17 C 0.484(2) 0.371(1) 0.675(2)
C18 C 0.500(1) 0.283(1) 0.664(2)
H13 H 0.245(2) 0.230(1) 0.346(3)
H14 H 0.281(2) 0.379(2) 0.364(3)
H15 H 0.368(3) 0.467(1) 0.570(3)
H16 H 0.544(2) 0.407(1) 0.759(3)
H17 H 0.571(2) 0.258(1) 0.741(3)
C19 C 0.355(2) 0.234(1) 0.027(2)
C20 C 0.279(1) 0.293(1) -0.076(2)
C21 C 0.310(2) 0.380(1) -0.047(2)
C22 C 0.417(2) 0.409(1) 0.085(2)
C23 C 0.493(2) 0.350(1) 0.188(2)
C24 C 0.462(2) 0.263(1) 0.159(2)
H18 H 0.206(2) 0.273(2) -0.166(2)
H19 H 0.258(2) 0.420(1) -0.117(3)
H20 H 0.438(3) 0.468(1) 0.105(3)
H21 H 0.566(2) 0.370(2) 0.278(3)
H22 H 0.514(2) 0.223(1) 0.229(3)
O5A O 0.184(2) -0.069(1) 0.507(2)
O8A O -0.080(2) 0.067(1) 0.029(2)
O12A O -0.003(2) -0.098(1) 0.282(2)
O1A O 0.557(2) -0.070(1) -0.055(3)
O2_2 O 0.328(2) 0.070(1) -0.536(2)
O5A_2 O 0.184(2) -0.069(1) -0.493(2)
O9A O 0.467(2) -0.101(1) -0.418(2)
O10_2 O 0.529(2) 0.099(1) -0.291(2)
La2A La 0.6243(2) 0.0198(2) 0.2674(3)
La2_2 La 0.3757(2) -0.0198(2) 0.7326(3)
La1A La -0.1278(2) -0.0256(2) 0.7609(3)
La2A_2 La -0.3757(2) 0.0198(2) 0.2674(3)
La1A_2 La -0.1278(2) -0.0256(2) -0.2391(3)
loop_
_geom_bond_atom_site_label_1
_geom_bond_atom_site_label_2
_geom_bond_site_symmetry_1
_geom_bond_site_symmetry_2
La1 O2 1_555 1_555
La2 O1 1_555 1_555
P1 O3 1_555 1_555
P2 O6 1_555 1_555
P3 O2 1_555 1_555
P4 O1 1_555 1_555
O1 La2A 1_555 1_555
O2 La2_2 1_555 1_555
O3 La1 1_555 1_555
O4 La2 1_555 1_555
O5 P1 1_555 1_555
O6 La1 1_555 1_555
O7 La2 1_555 1_555
O8 La1 1_555 1_555
O9 P3 1_555 1_555
O10 P3 1_555 1_555
O11 La1 1_555 1_555
O12 P1 1_555 1_555
H1 O6 1_555 1_555
H2 O4 1_555 1_555
C1 P1 1_555 1_555
C2 C1 1_555 1_555
C3 C2 1_555 1_555
C4 C3 1_555 1_555
C5 C4 1_555 1_555
C6 C1 1_555 1_555
H3 C2 1_555 1_555
H4 C3 1_555 1_555
H5 C4 1_555 1_555
H6 C5 1_555 1_555
H7 C6 1_555 1_555
C7 P2 1_555 1_555
C8 C7 1_555 1_555
C9 C8 1_555 1_555
C10 C9 1_555 1_555
C11 C10 1_555 1_555
C12 C7 1_555 1_555
H8 C8 1_555 1_555
H9 C9 1_555 1_555
H10 C10 1_555 1_555
H11 C11 1_555 1_555
H12 C12 1_555 1_555
C13 P3 1_555 1_555
C14 C13 1_555 1_555
C15 C14 1_555 1_555
C16 C15 1_555 1_555
C17 C16 1_555 1_555
C18 C13 1_555 1_555
H13 C14 1_555 1_555
H14 C15 1_555 1_555
H15 C16 1_555 1_555
H16 C17 1_555 1_555
H17 C18 1_555 1_555
C19 P4 1_555 1_555
C20 C19 1_555 1_555
C21 C20 1_555 1_555
C22 C21 1_555 1_555
C23 C22 1_555 1_555
C24 C19 1_555 1_555
H18 C20 1_555 1_555
H19 C21 1_555 1_555
H20 C22 1_555 1_555
H21 C23 1_555 1_555
H22 C24 1_555 1_555
O5A La1 1_555 1_555
O8A La1 1_555 1_555
O12A La1 1_555 1_555
O1A La2 1_555 1_555
O2_2 La2 1_555 1_555
O5A_2 La2 1_555 1_555
O9A La2 1_555 1_555
O10_2 La2 1_555 1_555
La2A O9 1_555 1_555
La2_2 O10 1_555 1_555
La1A O5 1_555 1_555
La2A_2 O5 1_555 1_555
La1A_2 O8 1_555 1_555
P2 O7 1_555 1_555
P2 O8 1_555 1_555
P4 O4 1_555 1_555
P4 O11 1_555 1_555
O12 La1A 1_555 1_555
C5 C6 1_555 1_555
C11 C12 1_555 1_555
C17 C18 1_555 1_555
C23 C24 1_555 1_555
O5A La2_2 1_555 1_555
O8A La1A_2 1_555 1_555
O1A La2A 1_555 1_555

#END
