
#######################################################################
#
#                 Cambridge Crystallographic Data Centre
#                                CCDC 
#
#######################################################################
#
# If this CIF has been generated from an entry in the Cambridge 
# Structural Database, then it will include bibliographic, chemical, 
# crystal, experimental, refinement or atomic coordinate data resulting 
# from the CCDC's data processing and validation procedures.
#
#######################################################################

data_JUHLUV
_symmetry_cell_setting           monoclinic
_symmetry_space_group_name_H-M   'P 21/c'
_symmetry_Int_Tables_number      14
_space_group_name_Hall           '-P 2ybc'
loop_
_symmetry_equiv_pos_site_id
_symmetry_equiv_pos_as_xyz
1 x,y,z
2 -x,1/2+y,1/2-z
3 -x,-y,-z
4 x,1/2-y,1/2+z
_cell_length_a                   11.7730(13)
_cell_length_b                   19.686(2)
_cell_length_c                   9.4109(10)
_cell_angle_alpha                90
_cell_angle_beta                 107.0280(10)
_cell_angle_gamma                90
_cell_volume                     2085.49
loop_
_atom_site_label
_atom_site_type_symbol
_atom_site_fract_x
_atom_site_fract_y
_atom_site_fract_z
Cd1 Cd 0.79561(6) 0.01457(3) 0.43721(7)
Cd2 Cd 0.99772(5) 0.04095(4) 0.18082(7)
Cl1 Cl 0.83180(19) 0.10681(11) 0.2679(2)
Cl2 Cl 0.9626(2) -0.05519(12) 0.3469(2)
Cl3 Cl 0.85186(19) 0.02862(13) -0.0778(2)
O1 O 1.1675(5) 0.0637(3) 0.3785(6)
O2 O 1.3303(6) 0.1263(4) 0.4487(8)
N1 N 0.7502(6) 0.1106(4) 0.5801(7)
N2 N 0.5862(6) 0.0216(4) 0.4386(8)
N3 N 0.6543(6) -0.0512(4) 0.2407(8)
N4 N 1.0771(7) 0.1445(4) 0.1419(8)
C1 C 0.8199(8) 0.1673(5) 0.6111(11)
H1 H 0.8951 0.1654 0.5978
C2 C 0.7854(9) 0.2259(5) 0.6601(12)
H2 H 0.8358 0.2634 0.6809
C3 C 0.6746(10) 0.2290(5) 0.6784(13)
H3 H 0.6491 0.2693 0.7104
C4 C 0.6010(9) 0.1744(5) 0.6508(11)
H4 H 0.5256 0.1759 0.6637
C5 C 0.6453(9) 0.1155(5) 0.6015(11)
C6 C 0.5708(8) 0.0532(5) 0.5590(12)
C7 C 0.5183(8) -0.0301(5) 0.3759(11)
C8 C 0.5426(8) -0.0535(5) 0.2412(10)
C9 C 0.4541(9) -0.0764(5) 0.1173(11)
H5 H 0.3759 -0.0784 0.1200
C10 C 0.4818(8) -0.0964(5) -0.0108(11)
H6 H 0.4225 -0.1092 -0.0960
C11 C 0.6006(10) -0.0967(5) -0.0072(11)
H7 H 0.6240 -0.1134 -0.0867
C12 C 0.6825(8) -0.0715(5) 0.1177(10)
H8 H 0.7613 -0.0682 0.1177
C13 C 1.0293(9) 0.1874(6) 0.0324(11)
H9 H 0.9608 0.1744 -0.0408
C14 C 1.0769(13) 0.2508(6) 0.0222(14)
H10 H 1.0403 0.2800 -0.0554
C15 C 1.1759(11) 0.2695(6) 0.1252(14)
H11 H 1.2078 0.3124 0.1212
C16 C 1.2306(10) 0.2255(6) 0.2368(12)
H12 H 1.3013 0.2376 0.3072
C17 C 1.1794(8) 0.1630(5) 0.2436(10)
C18 C 1.2288(8) 0.1140(5) 0.3675(9)
N1B N 0.2498(6) -0.1106(4) 0.4199(7)
N2B N 0.4138(6) -0.0216(4) 0.5614(8)
N3B N 0.3457(6) 0.0512(4) 0.7593(8)
C1B C 0.1801(8) -0.1673(5) 0.3889(11)
H1B H 0.1049 -0.1654 0.4022
C2B C 0.2146(9) -0.2259(5) 0.3399(12)
H2B H 0.1642 -0.2634 0.3191
C3B C 0.3254(10) -0.2290(5) 0.3216(13)
H3B H 0.3509 -0.2693 0.2896
C4B C 0.3990(9) -0.1744(5) 0.3492(11)
H4B H 0.4744 -0.1759 0.3363
C5B C 0.3547(9) -0.1155(5) 0.3985(11)
C6B C 0.4292(8) -0.0532(5) 0.4410(12)
C7B C 0.4817(8) 0.0301(5) 0.6241(11)
C8B C 0.4574(8) 0.0535(5) 0.7588(10)
C9B C 0.5459(9) 0.0764(5) 0.8827(11)
H5B H 0.6241 0.0784 0.8800
C10B C 0.5182(8) 0.0964(5) 1.0108(11)
H6B H 0.5775 0.1092 1.0960
C11B C 0.3994(10) 0.0967(5) 1.0072(11)
H7B H 0.3760 0.1134 1.0867
C12B C 0.3175(8) 0.0715(5) 0.8823(10)
H8B H 0.2387 0.0682 0.8823
Cd1B Cd 0.20439(6) -0.01457(3) 0.56279(7)
Cd2B Cd 0.00228(5) -0.04095(4) 0.81918(7)
Cl1B Cl 0.16820(19) -0.10681(11) 0.7321(2)
Cl2B Cl 0.0374(2) 0.05519(12) 0.6531(2)
Cl3B Cl 0.14814(19) -0.02862(13) 1.0778(2)
O1B O -0.1675(5) -0.0637(3) 0.6215(6)
O2B O -0.3303(6) -0.1263(4) 0.5513(8)
N4B N -0.0771(7) -0.1445(4) 0.8581(8)
C13B C -0.0293(9) -0.1874(6) 0.9676(11)
H9B H 0.0392 -0.1744 1.0408
C14B C -0.0769(13) -0.2508(6) 0.9778(14)
H10B H -0.0403 -0.2800 1.0554
C15B C -0.1759(11) -0.2695(6) 0.8748(14)
H11B H -0.2078 -0.3124 0.8788
C16B C -0.2306(10) -0.2255(6) 0.7632(12)
H12B H -0.3013 -0.2376 0.6928
C17B C -0.1794(8) -0.1630(5) 0.7564(10)
C18B C -0.2288(8) -0.1140(5) 0.6325(9)
Cd1_2 Cd -0.20439(6) 0.01457(3) 0.43721(7)
Cd1B_2 Cd 1.20439(6) -0.01457(3) 0.56279(7)
Cd2_2 Cd -0.00228(5) 0.04095(4) 1.18082(7)
Cd2B_2 Cd 1.00228(5) -0.04095(4) -0.18082(7)
Cl2_2 Cl -0.0374(2) -0.05519(12) 0.3469(2)
Cl2B_2 Cl 1.0374(2) 0.05519(12) 0.6531(2)
Cl3_2 Cl -0.14814(19) 0.02862(13) 0.9222(2)
Cl3B_2 Cl 1.14814(19) -0.02862(13) 0.0778(2)
O1_2 O 0.1675(5) 0.0637(3) 0.3785(6)
O1B_2 O 0.8325(5) -0.0637(3) 0.6215(6)
loop_
_geom_bond_atom_site_label_1
_geom_bond_atom_site_label_2
_geom_bond_site_symmetry_1
_geom_bond_site_symmetry_2
Cd1 Cl1 1_555 1_555
Cd2 Cl1 1_555 1_555
Cl2 Cd1 1_555 1_555
Cl3 Cd2 1_555 1_555
O1 Cd2 1_555 1_555
O2 C18 1_555 1_555
N1 Cd1 1_555 1_555
N2 Cd1 1_555 1_555
N3 Cd1 1_555 1_555
N4 Cd2 1_555 1_555
C1 N1 1_555 1_555
H1 C1 1_555 1_555
C2 C1 1_555 1_555
H2 C2 1_555 1_555
C3 C2 1_555 1_555
H3 C3 1_555 1_555
C4 C3 1_555 1_555
H4 C4 1_555 1_555
C5 N1 1_555 1_555
C6 N2 1_555 1_555
C7 N2 1_555 1_555
C8 N3 1_555 1_555
C9 C8 1_555 1_555
H5 C9 1_555 1_555
C10 C9 1_555 1_555
H6 C10 1_555 1_555
C11 C10 1_555 1_555
H7 C11 1_555 1_555
C12 N3 1_555 1_555
H8 C12 1_555 1_555
C13 N4 1_555 1_555
H9 C13 1_555 1_555
C14 C13 1_555 1_555
H10 C14 1_555 1_555
C15 C14 1_555 1_555
H11 C15 1_555 1_555
C16 C15 1_555 1_555
H12 C16 1_555 1_555
C17 N4 1_555 1_555
C18 O1 1_555 1_555
N1B C1B 1_555 1_555
N2B C6B 1_555 1_555
N3B C8B 1_555 1_555
C1B H1B 1_555 1_555
C2B C1B 1_555 1_555
H2B C2B 1_555 1_555
C3B C2B 1_555 1_555
H3B C3B 1_555 1_555
C4B C3B 1_555 1_555
H4B C4B 1_555 1_555
C5B N1B 1_555 1_555
C6B C7 1_555 1_555
C7B C6 1_555 1_555
C8B C7B 1_555 1_555
C9B C8B 1_555 1_555
H5B C9B 1_555 1_555
C10B C9B 1_555 1_555
H6B C10B 1_555 1_555
C11B C10B 1_555 1_555
H7B C11B 1_555 1_555
C12B N3B 1_555 1_555
H8B C12B 1_555 1_555
Cd1B N1B 1_555 1_555
Cd2B Cl1B 1_555 1_555
Cl1B Cd1B 1_555 1_555
Cl2B Cd1B 1_555 1_555
Cl3B Cd2B 1_555 1_555
O1B Cd2B 1_555 1_555
O2B C18B 1_555 1_555
N4B Cd2B 1_555 1_555
C13B N4B 1_555 1_555
H9B C13B 1_555 1_555
C14B C13B 1_555 1_555
H10B C14B 1_555 1_555
C15B C14B 1_555 1_555
H11B C15B 1_555 1_555
C16B C15B 1_555 1_555
H12B C16B 1_555 1_555
C17B N4B 1_555 1_555
C18B O1B 1_555 1_555
Cd1_2 Cl2B 1_555 1_555
Cd1B_2 Cl2 1_555 1_555
Cd2_2 Cl3B 1_555 1_555
Cd2B_2 Cl3 1_555 1_555
Cl2_2 Cd1B 1_555 1_555
Cl2B_2 Cd1 1_555 1_555
Cl3_2 Cd2B 1_555 1_555
Cl3B_2 Cd2 1_555 1_555
O1_2 Cd1B 1_555 1_555
O1B_2 Cd1 1_555 1_555
Cd2 Cl2 1_555 1_555
O1 Cd1B_2 1_555 1_555
C4 C5 1_555 1_555
C5 C6 1_555 1_555
C7 C8 1_555 1_555
C11 C12 1_555 1_555
C16 C17 1_555 1_555
C17 C18 1_555 1_555
N2B C7B 1_555 1_555
N2B Cd1B 1_555 1_555
N3B Cd1B 1_555 1_555
C4B C5B 1_555 1_555
C5B C6B 1_555 1_555
C11B C12B 1_555 1_555
Cd2B Cl2B 1_555 1_555
O1B Cd1_2 1_555 1_555
C16B C17B 1_555 1_555
C17B C18B 1_555 1_555
Cd1_2 Cl2_2 1_555 1_555
Cd1B_2 Cl2B_2 1_555 1_555
Cd2_2 Cl3_2 1_555 1_555
Cd2B_2 Cl3B_2 1_555 1_555

#END
