
#######################################################################
#
#                 Cambridge Crystallographic Data Centre
#                                CCDC 
#
#######################################################################
#
# If this CIF has been generated from an entry in the Cambridge 
# Structural Database, then it will include bibliographic, chemical, 
# crystal, experimental, refinement or atomic coordinate data resulting 
# from the CCDC's data processing and validation procedures.
#
#######################################################################

data_JUHMOQ
_symmetry_cell_setting           monoclinic
_symmetry_space_group_name_H-M   'P 21/c'
_symmetry_Int_Tables_number      14
_space_group_name_Hall           '-P 2ybc'
loop_
_symmetry_equiv_pos_site_id
_symmetry_equiv_pos_as_xyz
1 x,y,z
2 -x,1/2+y,1/2-z
3 -x,-y,-z
4 x,1/2-y,1/2+z
_cell_length_a                   19.5538(15)
_cell_length_b                   16.2417(12)
_cell_length_c                   27.985(2)
_cell_angle_alpha                90
_cell_angle_beta                 94.8630(10)
_cell_angle_gamma                90
_cell_volume                     8855.68
loop_
_atom_site_label
_atom_site_type_symbol
_atom_site_fract_x
_atom_site_fract_y
_atom_site_fract_z
N1 N 0.99960(15) 0.57588(16) 0.42854(11)
C1 C 0.93955(17) 0.6203(2) 0.41766(14)
C2 C 0.9118(2) 0.6668(3) 0.4530(2)
H1 H 0.8716 0.6965 0.4457
C3 C 0.9441(3) 0.6688(3) 0.49917(17)
H2 H 0.9255 0.6999 0.5228
C4 C 1.0041(3) 0.6243(3) 0.51005(11)
H3 H 1.0257 0.6257 0.5410
C5 C 1.0319(2) 0.5779(2) 0.47473(12)
H4 H 1.0721 0.5481 0.4820
N2 N 1.0673(2) 0.6469(2) 0.34175(12)
C6 C 1.0112(2) 0.6978(3) 0.33018(19)
C7 C 1.0211(4) 0.7813(3) 0.3221(2)
H5 H 0.9835 0.8153 0.3144
C8 C 1.0871(4) 0.8138(2) 0.3256(2)
H6 H 1.0937 0.8696 0.3202
C9 C 1.1432(3) 0.7628(4) 0.3372(2)
H7 H 1.1873 0.7846 0.3395
C10 C 1.1333(2) 0.6794(3) 0.34524(19)
H8 H 1.1708 0.6453 0.3530
Cd1 Cd 1.04392(2) 0.51295(3) 0.362811(18)
Cl1 Cl 1.14661(7) 0.45211(11) 0.40364(7)
N3 N 1.0438(2) 0.4956(3) 0.27675(18)
N4 N 0.9365(2) 0.5649(2) 0.3083(4)
N5 N 0.9748(2) 0.3967(3) 0.34746(18)
N6 N 0.8808(3) 0.5489(4) 0.3646(3)
H9 H 0.8578 0.5302 0.3870
C11 C 1.0929(3) 0.4596(4) 0.2544(2)
H10 H 1.1290 0.4337 0.2723
C12 C 1.0915(4) 0.4598(5) 0.2040(3)
H11 H 1.1255 0.4330 0.1887
C13 C 1.0390(4) 0.5000(5) 0.1777(3)
H12 H 1.0388 0.5058 0.1447
C14 C 0.9875(4) 0.5309(5) 0.2021(3)
H13 H 0.9480 0.5511 0.1853
C15 C 0.9931(3) 0.5324(4) 0.2504(3)
C16 C 0.9342(7) 0.5943(16) 0.2613(4)
H14 H 0.9472 0.6518 0.2591
H15 H 0.8909 0.5838 0.2427
C17 C 0.8906(3) 0.5103(2) 0.3194(3)
H16 H 0.8488 0.5161 0.2977
C18 C 0.9129(3) 0.4141(5) 0.3229(2)
C19 C 0.8829(5) 0.3560(5) 0.2942(3)
H17 H 0.8425 0.3698 0.2759
C20 C 0.9080(6) 0.2771(6) 0.2900(4)
H18 H 0.8840 0.2376 0.2712
C21 C 0.9704(5) 0.2591(5) 0.3148(3)
H19 H 0.9907 0.2076 0.3123
C22 C 1.0024(3) 0.3211(4) 0.3440(2)
H20 H 1.0439 0.3095 0.3614
C23 C 0.9189(4) 0.6279(3) 0.36431(13)
H21 H 0.8800 0.6655 0.3660
C24 C 0.9406(3) 0.6542(2) 0.31755(19)
H22 H 0.9067 0.6872 0.2982
N7 N 0.25737(16) -0.2071(2) 0.55552(11)
C25 C 0.2356(2) -0.2886(2) 0.55571(18)
H23 H 0.2622 -0.3297 0.5435
C26 C 0.1739(3) -0.3086(3) 0.5742(2)
H24 H 0.1593 -0.3631 0.5743
C27 C 0.1340(2) -0.2472(4) 0.5925(2)
H25 H 0.0928 -0.2605 0.6048
C28 C 0.1559(2) -0.1657(4) 0.5923(2)
H26 H 0.1292 -0.1246 0.6045
C29 C 0.2175(2) -0.1457(2) 0.57381(17)
Cd2 Cd 0.401837(16) -0.20728(2) 0.253397(13)
Cd3 Cd 0.317256(17) -0.02065(2) 0.313500(12)
Cd4 Cd 0.30250(2) -0.16449(3) 0.480655(15)
Cd5 Cd 0.181961(18) 0.11771(2) 0.392823(13)
Cd6 Cd 0.291358(16) 0.21076(2) 0.282046(13)
Cd7 Cd 0.26329(2) 0.26595(3) 0.126048(15)
Cl2 Cl 0.44083(6) -0.06006(7) 0.29182(5)
Cl3 Cl 0.28297(6) -0.15990(8) 0.26806(5)
Cl4 Cl 0.33913(7) -0.10508(8) 0.39647(4)
Cl5 Cl 0.34117(10) -0.30460(11) 0.46432(8)
Cl6 Cl 0.35103(6) 0.12284(7) 0.35467(4)
Cl7 Cl 0.28829(6) 0.07100(7) 0.23699(4)
Cl8 Cl 0.18929(6) -0.00513(8) 0.33538(5)
Cl9 Cl 0.06741(7) 0.13550(10) 0.42010(5)
Cl10 Cl 0.17715(6) 0.21980(8) 0.32287(5)
Cl11 Cl 0.22078(7) 0.28229(9) 0.20838(5)
Cl12 Cl 0.27064(8) 0.12279(9) 0.10045(6)
Cl13 Cl 0.37670(7) 0.32895(8) 0.13987(5)
Cl14 Cl 0.17780(9) 0.35058(11) 0.07959(6)
N8 N 0.64637(19) 0.1620(2) 0.27282(15)
N9 N 0.51056(16) 0.2077(2) 0.28755(13)
N10 N 0.58690(18) 0.3468(2) 0.32165(14)
N11 N 0.32475(17) 0.3435(2) 0.31320(13)
N12 N 0.40306(16) 0.2498(2) 0.25179(13)
H27 H 0.3620 0.2486 0.2381
N13 N 0.53016(17) 0.2246(2) 0.18831(13)
N14 N 0.26353(18) -0.0398(3) 0.52265(14)
N15 N 0.3947(2) -0.0948(2) 0.51714(14)
N16 N 0.25482(18) 0.1942(2) 0.44486(13)
N17 N 0.24386(17) 0.0264(2) 0.45009(13)
H28 H 0.2312 0.0240 0.4199
N18 N 0.1839(2) -0.1441(2) 0.46221(14)
C30 C 0.7074(3) 0.1352(3) 0.2600(2)
H29 H 0.7343 0.1711 0.2436
C31 C 0.7316(3) 0.0571(3) 0.2699(2)
H30 H 0.7737 0.0409 0.2601
C32 C 0.6945(3) 0.0044(3) 0.2938(2)
H31 H 0.7114 -0.0476 0.3023
C33 C 0.6305(3) 0.0289(3) 0.30563(18)
H32 H 0.6023 -0.0078 0.3202
C34 C 0.6087(2) 0.1083(3) 0.29559(17)
C35 C 0.5448(2) 0.1380(3) 0.31516(16)
H33 H 0.5557 0.1555 0.3481
H34 H 0.5127 0.0925 0.3155
C36 C 0.4811(2) 0.2699(3) 0.31835(16)
H35 H 0.4528 0.2425 0.3409
C37 C 0.5354(2) 0.3223(3) 0.34592(17)
C38 C 0.5304(3) 0.3440(3) 0.39407(19)
H36 H 0.4938 0.3257 0.4104
C39 C 0.5809(3) 0.3931(3) 0.4167(2)
H37 H 0.5801 0.4056 0.4491
C40 C 0.6311(3) 0.4226(3) 0.3915(2)
H38 H 0.6634 0.4591 0.4057
C41 C 0.6348(3) 0.3984(3) 0.34403(19)
H39 H 0.6705 0.4178 0.3272
C42 C 0.4346(2) 0.3175(3) 0.28083(16)
H40 H 0.4634 0.3503 0.2610
C43 C 0.3861(2) 0.3733(3) 0.30351(17)
C44 C 0.4064(3) 0.4539(3) 0.3174(2)
H41 H 0.4494 0.4732 0.3107
C45 C 0.3645(3) 0.5027(3) 0.3401(3)
H42 H 0.3766 0.5568 0.3478
C46 C 0.3025(3) 0.4703(3) 0.3518(2)
H43 H 0.2742 0.5009 0.3701
C47 C 0.2831(3) 0.3935(3) 0.3364(2)
H44 H 0.2396 0.3747 0.3421
C48 C 0.4560(2) 0.1834(3) 0.25049(15)
H45 H 0.4359 0.1312 0.2600
C49 C 0.4792(2) 0.1739(3) 0.20072(16)
C50 C 0.4448(2) 0.1231(3) 0.16761(17)
H46 H 0.4098 0.0893 0.1768
C51 C 0.4619(3) 0.1223(3) 0.12077(18)
H47 H 0.4392 0.0875 0.0983
C52 C 0.5127(2) 0.1735(3) 0.10798(18)
H48 H 0.5246 0.1751 0.0765
C53 C 0.5456(2) 0.2224(3) 0.14248(17)
H49 H 0.5808 0.2562 0.1337
C54 C 0.2440(3) -0.0622(4) 0.57253(18)
H50 H 0.2841 -0.0573 0.5953
H51 H 0.2095 -0.0241 0.5820
C55 C 0.3182(2) 0.0236(3) 0.52329(16)
H52 H 0.3111 0.0649 0.5479
C56 C 0.3884(2) -0.0191(3) 0.53463(17)
C57 C 0.4413(3) 0.0173(4) 0.56341(19)
H53 H 0.4351 0.0696 0.5759
C58 C 0.5026(3) -0.0226(4) 0.57375(19)
H54 H 0.5381 0.0015 0.5931
C59 C 0.5095(3) -0.0990(4) 0.5544(2)
H55 H 0.5507 -0.1273 0.5601
C60 C 0.4568(3) -0.1339(4) 0.52717(18)
H56 H 0.4628 -0.1862 0.5147
C61 C 0.3067(2) 0.0634(3) 0.47269(16)
H57 H 0.3450 0.0474 0.4542
C62 C 0.3035(2) 0.1559(3) 0.47414(16)
C63 C 0.3515(3) 0.2013(3) 0.50193(19)
H58 H 0.3857 0.1748 0.5213
C64 C 0.3485(3) 0.2861(4) 0.5009(2)
H59 H 0.3810 0.3168 0.5193
C65 C 0.2968(4) 0.3259(4) 0.4723(2)
H60 H 0.2929 0.3830 0.4720
C66 C 0.2519(3) 0.2768(3) 0.4447(2)
H61 H 0.2177 0.3022 0.4247
C67 C 0.2064(2) -0.0061(3) 0.49018(17)
H62 H 0.1828 0.0384 0.5058
C68 C 0.1571(2) -0.0732(3) 0.47390(18)
C69 C 0.0866(3) -0.0620(4) 0.4739(2)
H63 H 0.0687 -0.0116 0.4825
C70 C 0.0439(3) -0.1265(4) 0.4610(3)
H64 H -0.0034 -0.1205 0.4606
C71 C 0.0718(3) -0.2001(4) 0.4486(3)
H65 H 0.0440 -0.2441 0.4381
C72 C 0.1422(3) -0.2072(4) 0.4521(2)
H66 H 0.1614 -0.2586 0.4473
Cd2A Cd 0.598163(16) 0.29272(2) 0.246603(13)
N8A N 0.35363(19) -0.3380(2) 0.22718(15)
N9A N 0.48944(16) -0.2923(2) 0.21245(13)
N10A N 0.41310(18) -0.1532(2) 0.17835(14)
N13A N 0.46984(17) -0.2754(2) 0.31169(13)
O1 O 0.2117(6) 0.9920(6) 0.0197(4)
O2 O 0.2720(9) 0.6982(9) 0.3631(6)
loop_
_geom_bond_atom_site_label_1
_geom_bond_atom_site_label_2
_geom_bond_site_symmetry_1
_geom_bond_site_symmetry_2
N1 C1 1_555 1_555
C1 C2 1_555 1_555
C2 H1 1_555 1_555
C3 C2 1_555 1_555
H2 C3 1_555 1_555
C4 C3 1_555 1_555
H3 C4 1_555 1_555
C5 N1 1_555 1_555
H4 C5 1_555 1_555
N2 C6 1_555 1_555
C6 C7 1_555 1_555
C7 H5 1_555 1_555
C8 C7 1_555 1_555
H6 C8 1_555 1_555
C9 C8 1_555 1_555
H7 C9 1_555 1_555
C10 N2 1_555 1_555
H8 C10 1_555 1_555
Cd1 N1 1_555 1_555
Cl1 Cd1 1_555 1_555
N3 Cd1 1_555 1_555
N4 Cd1 1_555 1_555
N5 Cd1 1_555 1_555
N6 H9 1_555 1_555
C11 N3 1_555 1_555
H10 C11 1_555 1_555
C12 C11 1_555 1_555
H11 C12 1_555 1_555
C13 C12 1_555 1_555
H12 C13 1_555 1_555
C14 C13 1_555 1_555
H13 C14 1_555 1_555
C15 N3 1_555 1_555
C16 N4 1_555 1_555
H14 C16 1_555 1_555
H15 C16 1_555 1_555
C17 N4 1_555 1_555
H16 C17 1_555 1_555
C18 N5 1_555 1_555
C19 C18 1_555 1_555
H17 C19 1_555 1_555
C20 C19 1_555 1_555
H18 C20 1_555 1_555
C21 C20 1_555 1_555
H19 C21 1_555 1_555
C22 N5 1_555 1_555
H20 C22 1_555 1_555
C23 C1 1_555 1_555
H21 C23 1_555 1_555
C24 C6 1_555 1_555
H22 C24 1_555 1_555
N7 C25 1_555 1_555
C25 H23 1_555 1_555
C26 C25 1_555 1_555
H24 C26 1_555 1_555
C27 C26 1_555 1_555
H25 C27 1_555 1_555
C28 C27 1_555 1_555
H26 C28 1_555 1_555
C29 N7 1_555 1_555
Cd2 Cl2 1_555 1_555
Cd3 Cl2 1_555 1_555
Cd4 N7 1_555 1_555
Cd5 Cl8 1_555 1_555
Cd6 Cl6 1_555 1_555
Cd7 Cl11 1_555 1_555
Cl3 Cd2 1_555 1_555
Cl4 Cd3 1_555 1_555
Cl5 Cd4 1_555 1_555
Cl6 Cd3 1_555 1_555
Cl7 Cd3 1_555 1_555
Cl8 Cd3 1_555 1_555
Cl9 Cd5 1_555 1_555
Cl10 Cd5 1_555 1_555
Cl11 Cd6 1_555 1_555
Cl12 Cd7 1_555 1_555
Cl13 Cd7 1_555 1_555
Cl14 Cd7 1_555 1_555
N8 C30 1_555 1_555
N9 C35 1_555 1_555
N10 C37 1_555 1_555
N11 Cd6 1_555 1_555
N12 Cd6 1_555 1_555
H27 N12 1_555 1_555
N13 C49 1_555 1_555
N14 Cd4 1_555 1_555
N15 Cd4 1_555 1_555
N16 Cd5 1_555 1_555
N17 Cd5 1_555 1_555
H28 N17 1_555 1_555
N18 Cd4 1_555 1_555
C30 H29 1_555 1_555
C31 C30 1_555 1_555
H30 C31 1_555 1_555
C32 C31 1_555 1_555
H31 C32 1_555 1_555
C33 C32 1_555 1_555
H32 C33 1_555 1_555
C34 N8 1_555 1_555
C35 C34 1_555 1_555
H33 C35 1_555 1_555
H34 C35 1_555 1_555
C36 N9 1_555 1_555
H35 C36 1_555 1_555
C37 C36 1_555 1_555
C38 C37 1_555 1_555
H36 C38 1_555 1_555
C39 C38 1_555 1_555
H37 C39 1_555 1_555
C40 C39 1_555 1_555
H38 C40 1_555 1_555
C41 N10 1_555 1_555
H39 C41 1_555 1_555
C42 N12 1_555 1_555
H40 C42 1_555 1_555
C43 N11 1_555 1_555
C44 C43 1_555 1_555
H41 C44 1_555 1_555
C45 C44 1_555 1_555
H42 C45 1_555 1_555
C46 C45 1_555 1_555
H43 C46 1_555 1_555
C47 N11 1_555 1_555
H44 C47 1_555 1_555
C48 N9 1_555 1_555
H45 C48 1_555 1_555
C49 C48 1_555 1_555
C50 C49 1_555 1_555
H46 C50 1_555 1_555
C51 C50 1_555 1_555
H47 C51 1_555 1_555
C52 C51 1_555 1_555
H48 C52 1_555 1_555
C53 N13 1_555 1_555
H49 C53 1_555 1_555
C54 C29 1_555 1_555
H50 C54 1_555 1_555
H51 C54 1_555 1_555
C55 N14 1_555 1_555
H52 C55 1_555 1_555
C56 N15 1_555 1_555
C57 C56 1_555 1_555
H53 C57 1_555 1_555
C58 C57 1_555 1_555
H54 C58 1_555 1_555
C59 C58 1_555 1_555
H55 C59 1_555 1_555
C60 N15 1_555 1_555
H56 C60 1_555 1_555
C61 N17 1_555 1_555
H57 C61 1_555 1_555
C62 N16 1_555 1_555
C63 C62 1_555 1_555
H58 C63 1_555 1_555
C64 C63 1_555 1_555
H59 C64 1_555 1_555
C65 C64 1_555 1_555
H60 C65 1_555 1_555
C66 N16 1_555 1_555
H61 C66 1_555 1_555
C67 N14 1_555 1_555
H62 C67 1_555 1_555
C68 N18 1_555 1_555
C69 C68 1_555 1_555
H63 C69 1_555 1_555
C70 C69 1_555 1_555
H64 C70 1_555 1_555
C71 C70 1_555 1_555
H65 C71 1_555 1_555
C72 N18 1_555 1_555
H66 C72 1_555 1_555
Cd2A N8 1_555 1_555
N8A Cd2 1_555 1_555
N9A Cd2 1_555 1_555
N10A Cd2 1_555 1_555
N13A Cd2 1_555 1_555
C4 C5 1_555 1_555
N2 Cd1 1_555 1_555
C9 C10 1_555 1_555
N4 C24 1_555 1_555
N6 C17 1_555 1_555
N6 C23 1_555 1_555
C14 C15 1_555 1_555
C15 C16 1_555 1_555
C17 C18 1_555 1_555
C21 C22 1_555 1_555
C23 C24 1_555 1_555
C28 C29 1_555 1_555
Cd3 Cl3 1_555 1_555
Cd4 Cl4 1_555 1_555
Cd6 Cl7 1_555 1_555
Cd6 Cl10 1_555 1_555
N9 Cd2A 1_555 1_555
N10 Cd2A 1_555 1_555
N12 C48 1_555 1_555
N13 Cd2A 1_555 1_555
N14 C54 1_555 1_555
N17 C67 1_555 1_555
C33 C34 1_555 1_555
C36 C42 1_555 1_555
C40 C41 1_555 1_555
C42 C43 1_555 1_555
C46 C47 1_555 1_555
C52 C53 1_555 1_555
C55 C56 1_555 1_555
C55 C61 1_555 1_555
C59 C60 1_555 1_555
C61 C62 1_555 1_555
C65 C66 1_555 1_555
C67 C68 1_555 1_555
C71 C72 1_555 1_555

#END
