
#######################################################################
#
#                 Cambridge Crystallographic Data Centre
#                                CCDC 
#
#######################################################################
#
# If this CIF has been generated from an entry in the Cambridge 
# Structural Database, then it will include bibliographic, chemical, 
# crystal, experimental, refinement or atomic coordinate data resulting 
# from the CCDC's data processing and validation procedures.
#
#######################################################################

data_JUHNUX
_symmetry_cell_setting           monoclinic
_symmetry_space_group_name_H-M   'P 21'
_symmetry_Int_Tables_number      4
_space_group_name_Hall           'P 2yb'
loop_
_symmetry_equiv_pos_site_id
_symmetry_equiv_pos_as_xyz
1 x,y,z
2 -x,1/2+y,-z
_cell_length_a                   12.5349(3)
_cell_length_b                   7.92586(17)
_cell_length_c                   16.7543(4)
_cell_angle_alpha                90
_cell_angle_beta                 91.7027(19)
_cell_angle_gamma                90
_cell_volume                     1663.8
loop_
_atom_site_label
_atom_site_type_symbol
_atom_site_fract_x
_atom_site_fract_y
_atom_site_fract_z
Ce1 Ce 0.50355(4) 0.62730(7) 0.54410(3)
O1 O 0.6114(6) 0.8636(8) 0.4579(4)
O2 O 0.7020(5) 0.6960(9) 0.5404(4)
O3 O 0.4339(5) 0.9470(9) 0.5669(4)
O4 O 0.3506(6) 0.7304(9) 0.6187(4)
O5 O 0.3768(6) 0.6718(8) 0.4359(4)
O6 O 0.4058(6) 0.9171(9) 0.3749(4)
O7 O 0.5700(6) 0.7633(10) 0.6832(4)
O8 O 0.7461(7) 0.7236(11) 0.6956(5)
H1 H 0.7458 0.7391 0.6472
Br1 Br 0.90580(11) 1.02343(17) 0.23062(7)
Br2 Br 1.12643(9) 0.81401(17) 0.51282(7)
Br3 Br 0.42416(11) 1.45164(15) 0.79361(8)
Br4 Br 0.15163(11) 0.92693(19) 0.88543(7)
Br5 Br 0.18276(13) 0.8980(2) 0.09122(8)
Br6 Br 0.00152(11) 0.4483(2) 0.30983(8)
Br7 Br 0.88911(12) 0.8992(2) 0.98847(8)
Br8 Br 0.44025(13) 0.9471(3) 0.97996(9)
C1 C 0.7025(8) 0.8032(13) 0.4856(6)
C2 C 0.8044(8) 0.8499(13) 0.4498(6)
C3 C 0.8054(8) 0.9196(13) 0.3711(6)
H2 H 0.7422 0.9447 0.3431
C4 C 0.9044(8) 0.9487(13) 0.3376(6)
C5 C 0.9996(9) 0.9200(14) 0.3792(6)
H3 H 1.0644 0.9459 0.3564
C6 C 0.9971(9) 0.8529(13) 0.4544(7)
C7 C 0.9015(8) 0.8128(13) 0.4891(6)
H4 H 0.9020 0.7609 0.5389
C8 C 0.3766(9) 0.8870(13) 0.6212(6)
C9 C 0.3462(9) 0.9884(12) 0.6914(6)
C10 C 0.3892(8) 1.1466(14) 0.7059(6)
H5 H 0.4348 1.1950 0.6695
C11 C 0.3641(9) 1.2326(13) 0.7750(7)
C12 C 0.2914(10) 1.1740(15) 0.8269(6)
H6 H 0.2705 1.2378 0.8704
C13 C 0.2500(9) 1.0144(15) 0.8120(6)
C14 C 0.2729(8) 0.9253(13) 0.7453(6)
H7 H 0.2398 0.8220 0.7355
C15 C 0.3584(8) 0.7784(13) 0.3805(6)
C16 C 0.2735(8) 0.7381(11) 0.3183(6)
C17 C 0.2694(9) 0.8209(15) 0.2455(6)
H8 H 0.3219 0.8990 0.2333
C18 C 0.1881(10) 0.7876(14) 0.1915(6)
C19 C 0.1078(9) 0.6765(13) 0.2080(6)
H9 H 0.0517 0.6569 0.1715
C20 C 0.1133(8) 0.5945(13) 0.2810(6)
C21 C 0.1954(8) 0.6213(15) 0.3353(5)
H10 H 0.1986 0.5615 0.3831
C22 C 0.6535(10) 0.7659(14) 0.7232(7)
C23 C 0.6596(9) 0.8171(14) 0.8083(6)
C24 C 0.7574(9) 0.8295(15) 0.8513(7)
H11 H 0.8211 0.8011 0.8277
C25 C 0.7565(11) 0.8849(17) 0.9293(7)
C26 C 0.6645(11) 0.9230(16) 0.9679(7)
H12 H 0.6665 0.9575 1.0210
C27 C 0.5698(11) 0.9087(18) 0.9260(7)
C28 C 0.5627(10) 0.8595(15) 0.8480(7)
H13 H 0.4968 0.8535 0.8211
Ce1A Ce 0.49645(4) 1.12730(7) 0.45590(3)
O1A O 0.3886(6) 0.3636(8) 0.5421(4)
O3A O 0.5661(5) 0.4470(9) 0.4331(4)
O6A O 0.5942(6) 0.4171(9) 0.6251(4)
loop_
_geom_bond_atom_site_label_1
_geom_bond_atom_site_label_2
_geom_bond_site_symmetry_1
_geom_bond_site_symmetry_2
Ce1 O1 1_555 1_555
O1 C1 1_555 1_555
O2 Ce1 1_555 1_555
O3 Ce1 1_555 1_555
O4 Ce1 1_555 1_555
O5 Ce1 1_555 1_555
O6 C15 1_555 1_555
O7 Ce1 1_555 1_555
O8 H1 1_555 1_555
Br1 C4 1_555 1_555
Br2 C6 1_555 1_555
Br3 C11 1_555 1_555
Br4 C13 1_555 1_555
Br5 C18 1_555 1_555
Br6 C20 1_555 1_555
Br7 C25 1_555 1_555
Br8 C27 1_555 1_555
C1 O2 1_555 1_555
C2 C1 1_555 1_555
C3 C2 1_555 1_555
H2 C3 1_555 1_555
C4 C3 1_555 1_555
C5 C4 1_555 1_555
H3 C5 1_555 1_555
C6 C5 1_555 1_555
C7 C2 1_555 1_555
H4 C7 1_555 1_555
C8 O3 1_555 1_555
C9 C8 1_555 1_555
C10 C9 1_555 1_555
H5 C10 1_555 1_555
C11 C10 1_555 1_555
C12 C11 1_555 1_555
H6 C12 1_555 1_555
C13 C12 1_555 1_555
C14 C9 1_555 1_555
H7 C14 1_555 1_555
C15 O5 1_555 1_555
C16 C15 1_555 1_555
C17 C16 1_555 1_555
H8 C17 1_555 1_555
C18 C17 1_555 1_555
C19 C18 1_555 1_555
H9 C19 1_555 1_555
C20 C19 1_555 1_555
C21 C16 1_555 1_555
H10 C21 1_555 1_555
C22 O7 1_555 1_555
C23 C22 1_555 1_555
C24 C23 1_555 1_555
H11 C24 1_555 1_555
C25 C24 1_555 1_555
C26 C25 1_555 1_555
H12 C26 1_555 1_555
C27 C26 1_555 1_555
C28 C23 1_555 1_555
H13 C28 1_555 1_555
Ce1A O1 1_555 1_555
O1A Ce1 1_555 1_555
O3A Ce1 1_555 1_555
O6A Ce1 1_555 1_555
O3 Ce1A 1_555 1_555
O4 C8 1_555 1_555
O6 Ce1A 1_555 1_555
O8 C22 1_555 1_555
C6 C7 1_555 1_555
C13 C14 1_555 1_555
C20 C21 1_555 1_555
C27 C28 1_555 1_555

#END
