
#######################################################################
#
#                 Cambridge Crystallographic Data Centre
#                                CCDC 
#
#######################################################################
#
# If this CIF has been generated from an entry in the Cambridge 
# Structural Database, then it will include bibliographic, chemical, 
# crystal, experimental, refinement or atomic coordinate data resulting 
# from the CCDC's data processing and validation procedures.
#
#######################################################################

data_JUHTIR
_symmetry_cell_setting           triclinic
_symmetry_space_group_name_H-M   'P -1'
_symmetry_Int_Tables_number      2
_space_group_name_Hall           '-P 1'
loop_
_symmetry_equiv_pos_site_id
_symmetry_equiv_pos_as_xyz
1 x,y,z
2 -x,-y,-z
_cell_length_a                   12.0877(18)
_cell_length_b                   12.4169(18)
_cell_length_c                   16.3010(18)
_cell_angle_alpha                106.261(2)
_cell_angle_beta                 109.509(2)
_cell_angle_gamma                93.014(2)
_cell_volume                     2184.88
loop_
_atom_site_label
_atom_site_type_symbol
_atom_site_fract_x
_atom_site_fract_y
_atom_site_fract_z
Cu1 Cu 0.41453(10) 0.35080(10) 0.39122(8)
Cu2 Cu 0.12126(11) 0.93735(11) 0.95308(8)
V1 V 0.58080(11) 0.60970(11) 0.26700(8)
V2 V 0.42255(13) 0.38019(11) 0.17893(8)
V3 V 0.76557(12) 0.35459(12) 0.03174(9)
V4 V 0.69090(12) 0.77664(12) 0.01650(9)
V5 V 0.69435(16) 0.77473(15) 0.20318(10)
As1 As 0.58469(18) 0.18599(15) 0.08559(14)
As2 As 0.73989(16) 0.40868(16) 0.24556(11)
O1 O 0.5899(5) 0.4461(4) 0.2298(4)
O2 O 0.4569(5) 0.2576(4) 0.0901(3)
O3 O 0.6807(6) 0.3246(5) -0.1004(4)
O4 O 0.6138(5) 0.6558(5) 0.3757(3)
O5 O 0.4546(5) 0.2634(5) -0.2201(4)
O6 O 0.7216(5) 0.6385(6) 0.2386(4)
O7 O 0.7199(5) 0.6445(5) -0.0693(4)
O8 O 0.2312(6) 1.1109(5) 0.9767(4)
O9 O 0.7778(6) 0.7228(5) 0.1182(4)
O10 O 0.6289(6) 0.2447(5) 0.0194(4)
O11 O 0.8818(5) 0.2984(6) 0.0482(4)
O12 O 0.3897(6) 0.3309(5) 0.2512(4)
O13 O 0.7728(7) 0.8829(7) 0.2854(4)
O14 O 0.8051(6) 0.5095(6) 0.0337(5)
O15 O 0.7558(6) 0.4292(7) 0.1520(4)
O16 O 0.5733(8) 0.0969(6) -0.1585(6)
O17 O 0.6810(8) 0.2469(8) 0.2003(7)
N1 N 0.5055(6) 0.2349(6) 0.4175(5)
N2 N 0.3241(7) 0.4675(6) 0.4195(5)
N3 N 0.8664(6) 0.0386(6) 0.9230(5)
N4 N 0.0759(7) 0.8739(6) 0.8239(5)
C1 C 0.5444(8) 0.1667(8) 0.3561(6)
H1 H 0.5274 0.1767 0.2990
C2 C 0.6084(8) 0.0827(8) 0.3754(6)
H2 H 0.6317 0.0358 0.3307
C3 C 0.6388(9) 0.0671(9) 0.4613(6)
C4 C 0.5341(8) 0.2205(9) 0.4990(6)
H3 H 0.5100 0.2685 0.5426
C5 C 0.3187(9) 0.5054(8) 0.5024(6)
H4 H 0.3652 0.4780 0.5480
C6 C 0.2601(9) 0.5121(9) 0.3579(7)
H5 H 0.2648 0.4892 0.2999
C7 C 0.1876(9) 0.5896(9) 0.3739(7)
H6 H 0.1430 0.6164 0.3273
C8 C 0.1085(9) 0.9302(8) 0.7731(6)
H7 H 0.1634 0.9969 0.8032
C9 C 0.0000(10) 0.7765(9) 0.7765(7)
H8 H -0.0222 0.7340 0.8088
C10 C 0.5974(10) 0.1388(9) 0.5222(6)
H9 H 0.6129 0.1312 0.5800
C11 C 0.0636(9) 0.8925(8) 0.6790(6)
H10 H 0.0886 0.9340 0.6472
C12 C -0.0174(9) 0.7947(8) 0.6311(6)
C13 C 0.9287(9) 0.1160(8) 0.9047(7)
H11 H 0.9831 0.1741 0.9535
C14 C 0.9150(11) 0.1124(10) 0.8183(8)
H12 H 0.9620 0.1664 0.8092
C15 C 0.8328(10) 0.0304(11) 0.7430(8)
C16 C 0.7740(9) -0.0490(10) 0.7626(7)
H13 H 0.7210 -0.1093 0.7150
C17 C 0.7913(9) -0.0421(9) 0.8520(7)
H14 H 0.7476 -0.0973 0.8625
C18 C -0.0722(10) 0.7514(10) 0.5271(7)
H15 H -0.1545 0.7176 0.5086
H16 H -0.0714 0.8150 0.5037
C19 C -0.0077(10) 0.6645(10) 0.4851(8)
H17 H 0.0090 0.6107 0.5192
H18 H -0.0589 0.6227 0.4225
C20 C -0.0470(10) 0.7359(9) 0.6818(7)
H19 H -0.0995 0.6676 0.6523
C21 C 0.2484(10) 0.5826(9) 0.5246(7)
H20 H 0.2458 0.6048 0.5833
C22 C 0.1812(10) 0.6276(9) 0.4595(8)
C23 C 0.1061(11) 0.7165(11) 0.4847(10)
H21 H 0.1510 0.7698 0.5450
H22 H 0.0886 0.7585 0.4411
C24 C 0.7048(13) -0.0288(12) 0.4782(8)
H23 H 0.7821 -0.0147 0.4739
H24 H 0.6615 -0.0987 0.4299
C25 C 0.7234(11) -0.0464(11) 0.5736(9)
H25 H 0.6505 -0.0402 0.5861
H26 H 0.7421 -0.1218 0.5717
C26 C 0.8212(12) 0.0398(12) 0.6478(9)
H27 H 0.8060 0.1152 0.6460
H28 H 0.8954 0.0291 0.6383
O18 O 0.5869(5) 0.4581(4) -0.2074(3)
O19 O 0.4005(6) 0.1824(6) -0.0965(4)
O20 O 0.8312(7) 0.4704(7) -0.1355(6)
V6 V 0.5343(3) 0.2103(2) -0.12173(19)
As3 As 0.70034(18) 0.36415(17) -0.18710(12)
V7 V 0.7334(3) 0.4796(3) -0.11021(19)
O21 O 0.9392(7) 0.6165(12) 0.2185(7)
As4 As 0.9028(9) 0.6333(10) 0.1434(8)
Cu2A Cu 0.87874(11) 0.06265(11) 1.04692(8)
V1A V 0.41920(11) 0.39030(11) -0.26700(8)
V2A V 0.57745(13) 0.61981(11) -0.17893(8)
V4A V 0.30910(12) 0.22336(12) -0.01650(9)
V4A_2 V 0.30910(12) 1.22336(12) 0.98350(9)
V5A V 0.30565(16) 0.22527(15) -0.20318(10)
O2A O 0.5431(5) 0.7424(4) -0.0901(3)
O5A O 0.5454(5) 0.7366(5) 0.2201(4)
O7A O 0.2801(5) 0.3555(5) 0.0693(4)
O8A O 0.7688(6) 0.8891(5) 0.0233(4)
N3A N 0.1336(6) 0.9614(6) 1.0770(5)
O18A O 0.4131(5) 0.5419(4) 0.2074(3)
O19A O 0.5995(6) 0.8176(6) 0.0965(4)
O22 O 0.5000 0.5000 0.0000
As5? As 0.8388(10) 0.5553(10) -0.0654(9)
As6? As 0.3740(13) 0.6757(12) 0.1784(8)
As7? As 0.4499(10) 0.8763(8) 0.0930(9)
As8? As 0.7494(7) 0.4803(8) 0.2164(5)
As9? As 0.8999(3) 0.6216(3) 0.10060(19)
As10? As 0.8589(2) 0.5892(3) -0.02213(18)
As11? As 0.83432(17) 0.52567(18) 0.24722(12)
V8? V 0.6188(3) 0.3058(3) 0.14866(18)
As12? As 0.5409(3) 0.1108(2) -0.05584(18)
As13? As 0.60508(16) 0.20868(15) -0.20191(11)
V9? V 0.8145(2) 0.6114(2) 0.16881(18)
loop_
_geom_bond_atom_site_label_1
_geom_bond_atom_site_label_2
_geom_bond_site_symmetry_1
_geom_bond_site_symmetry_2
Cu1 O12 1_555 1_555
Cu2 O8 1_555 1_555
V1 O1 1_555 1_555
V2 O1 1_555 1_555
V3 O3 1_555 1_555
V4 O7 1_555 1_555
V5 O6 1_555 1_555
As1 O2 1_555 1_555
As2 O1 1_555 1_555
O2 V2 1_555 1_555
O3 V6 1_555 1_555
O4 V1 1_555 1_555
O5 V6 1_555 1_555
O6 V1 1_555 1_555
O7 V7 1_555 1_555
O8 V4A_2 1_555 1_555
O9 V4 1_555 1_555
O10 V3 1_555 1_555
O11 V3 1_555 1_555
O12 V2 1_555 1_555
O13 V5 1_555 1_555
O14 V3 1_555 1_555
O15 V3 1_555 1_555
O16 V6 1_555 1_555
O17 As1 1_555 1_555
N1 Cu1 1_555 1_555
N2 Cu1 1_555 1_555
N3 C13 1_555 1_555
N4 Cu2 1_555 1_555
C1 N1 1_555 1_555
H1 C1 1_555 1_555
C2 C1 1_555 1_555
H2 C2 1_555 1_555
C3 C2 1_555 1_555
C4 N1 1_555 1_555
H3 C4 1_555 1_555
C5 N2 1_555 1_555
H4 C5 1_555 1_555
C6 N2 1_555 1_555
H5 C6 1_555 1_555
C7 C6 1_555 1_555
H6 C7 1_555 1_555
C8 N4 1_555 1_555
H7 C8 1_555 1_555
C9 N4 1_555 1_555
H8 C9 1_555 1_555
C10 C3 1_555 1_555
H9 C10 1_555 1_555
C11 C8 1_555 1_555
H10 C11 1_555 1_555
C12 C11 1_555 1_555
C13 H11 1_555 1_555
C14 C13 1_555 1_555
H12 C14 1_555 1_555
C15 C14 1_555 1_555
C16 C15 1_555 1_555
H13 C16 1_555 1_555
C17 N3 1_555 1_555
H14 C17 1_555 1_555
C18 C12 1_555 1_555
H15 C18 1_555 1_555
H16 C18 1_555 1_555
C19 C18 1_555 1_555
H17 C19 1_555 1_555
H18 C19 1_555 1_555
C20 C9 1_555 1_555
H19 C20 1_555 1_555
C21 C5 1_555 1_555
H20 C21 1_555 1_555
C22 C7 1_555 1_555
C23 C19 1_555 1_555
H21 C23 1_555 1_555
H22 C23 1_555 1_555
C24 C3 1_555 1_555
H23 C24 1_555 1_555
H24 C24 1_555 1_555
C25 C24 1_555 1_555
H25 C25 1_555 1_555
H26 C25 1_555 1_555
C26 C15 1_555 1_555
H27 C26 1_555 1_555
H28 C26 1_555 1_555
O18 As3 1_555 1_555
O19 V6 1_555 1_555
O20 As3 1_555 1_555
V6 O10 1_555 1_555
As3 O3 1_555 1_555
V7 O3 1_555 1_555
O21 As4 1_555 1_555
As4 O9 1_555 1_555
Cu2A N3 1_555 1_555
V1A O5 1_555 1_555
V2A O7 1_555 1_555
V4A O2 1_555 1_555
V5A O5 1_555 1_555
O2A V4 1_555 1_555
O5A V1 1_555 1_555
O7A V2 1_555 1_555
O8A V4 1_555 1_555
N3A Cu2 1_555 1_555
O18A V1 1_555 1_555
O19A V4 1_555 1_555
V2 O18A 1_555 1_555
V5 O9 1_555 1_555
V5 O5A 1_555 1_555
V5 O19A 1_555 1_555
As1 O10 1_555 1_555
As2 O15 1_555 1_555
As2 O17 1_555 1_555
O14 V7 1_555 1_555
O14 As4 1_555 1_555
C4 C10 1_555 1_555
C12 C20 1_555 1_555
C16 C17 1_555 1_555
C21 C22 1_555 1_555
C22 C23 1_555 1_555
C25 C26 1_555 1_555
O18 V7 1_555 1_555
O18 V1A 1_555 1_555
O18 V2A 1_555 1_555
O19 V4A 1_555 1_555
O19 V5A 1_555 1_555
O20 V7 1_555 1_555
V2A O2A 1_555 1_555
V4A O7A 1_555 1_555

#END
