
#######################################################################
#
#                 Cambridge Crystallographic Data Centre
#                                CCDC 
#
#######################################################################
#
# If this CIF has been generated from an entry in the Cambridge 
# Structural Database, then it will include bibliographic, chemical, 
# crystal, experimental, refinement or atomic coordinate data resulting 
# from the CCDC's data processing and validation procedures.
#
#######################################################################

data_JUHWUG
_symmetry_cell_setting           triclinic
_symmetry_space_group_name_H-M   'P -1'
_symmetry_Int_Tables_number      2
_space_group_name_Hall           '-P 1'
loop_
_symmetry_equiv_pos_site_id
_symmetry_equiv_pos_as_xyz
1 x,y,z
2 -x,-y,-z
_cell_length_a                   10.196(3)
_cell_length_b                   14.230(4)
_cell_length_c                   16.164(4)
_cell_angle_alpha                74.925(17)
_cell_angle_beta                 78.792(17)
_cell_angle_gamma                79.635(15)
_cell_volume                     2200.51
loop_
_atom_site_label
_atom_site_type_symbol
_atom_site_fract_x
_atom_site_fract_y
_atom_site_fract_z
Ru1 Ru 0.47159(9) 0.92582(6) 0.04210(5)
Ru2 Ru 0.48413(10) 0.49622(7) 0.43276(5)
F1 F 0.9274(8) 1.0468(5) -0.1939(4)
F2 F 0.8249(8) 0.9237(6) -0.1867(5)
F3 F 1.0299(10) 0.9278(7) -0.2503(5)
F4 F 0.3700(8) 1.1447(6) -0.2901(5)
F5 F 0.2500(7) 1.0541(5) -0.1879(5)
F6 F 0.2101(8) 1.0841(6) -0.3198(5)
F7 F 0.7640(9) 0.2626(5) 0.3247(4)
F8 F 0.9666(8) 0.2073(6) 0.3517(5)
F9 F 0.8578(8) 0.3361(5) 0.3947(5)
F10 F 0.3065(8) 0.2460(6) 0.5223(5)
F11 F 0.1700(8) 0.3246(7) 0.4302(5)
F12 F 0.1290(9) 0.1849(6) 0.5138(6)
O1 O 0.6698(7) 0.8718(5) 0.0351(4)
O2 O 0.7246(8) 1.0181(5) -0.0490(5)
O3 O 0.4628(7) 0.8861(6) -0.0700(5)
O4 O 0.5164(7) 1.0332(6) -0.1523(5)
O5 O 0.5808(8) 0.3569(5) 0.4505(4)
O6 O 0.6139(8) 0.3648(5) 0.5829(4)
O7 O 0.3040(8) 0.4451(6) 0.4869(5)
O8 O 0.3354(8) 0.4511(6) 0.6195(4)
N1 N 0.4191(10) 0.7786(7) 0.1162(5)
N2 N 0.4496(9) 0.4976(7) 0.3001(5)
C1 C 0.7575(12) 0.9273(7) -0.0103(7)
C2 C 0.9018(11) 0.8821(7) -0.0170(7)
C3 C 0.9893(13) 0.8932(8) -0.0965(8)
C4 C 0.9414(14) 0.9481(9) -0.1810(8)
C5 C 1.1278(13) 0.8504(10) -0.0972(9)
C6 C 1.1697(13) 0.8002(9) -0.0199(9)
C7 C 1.0875(15) 0.7903(11) 0.0551(9)
C8 C 0.9484(13) 0.8278(9) 0.0582(8)
C9 C 0.4865(12) 0.9457(9) -0.1418(7)
C10 C 0.4802(13) 0.9142(9) -0.2213(7)
C11 C 0.4049(12) 0.9714(10) -0.2851(7)
C12 C 0.3083(15) 1.0630(11) -0.2720(9)
C13 C 0.4095(14) 0.9399(13) -0.3605(9)
C14 C 0.4938(15) 0.8565(13) -0.3755(9)
C15 C 0.5647(14) 0.7964(12) -0.3110(9)
C16 C 0.5597(13) 0.8272(9) -0.2358(8)
C17 C 0.6287(13) 0.3213(9) 0.5225(7)
C18 C 0.7014(13) 0.2170(8) 0.5355(7)
C19 C 0.7916(14) 0.1830(9) 0.4701(8)
C20 C 0.8452(15) 0.2474(10) 0.3848(8)
C21 C 0.8448(14) 0.0818(9) 0.4862(8)
C22 C 0.8054(14) 0.0189(9) 0.5654(9)
C23 C 0.7227(14) 0.0559(10) 0.6319(9)
C24 C 0.6712(14) 0.1563(9) 0.6150(8)
C25 C 0.2684(12) 0.4305(9) 0.5686(7)
C26 C 0.1381(13) 0.3932(8) 0.6061(7)
C27 C 0.0941(13) 0.3189(10) 0.5801(8)
C28 C 0.1722(16) 0.2691(11) 0.5133(9)
C29 C -0.0353(14) 0.2896(11) 0.6182(10)
C30 C -0.1133(14) 0.3308(12) 0.6808(9)
C31 C -0.0717(14) 0.4064(10) 0.7064(9)
C32 C 0.0505(14) 0.4354(11) 0.6697(8)
C33 C 0.4245(10) 0.6932(7) 0.1307(6)
C34 C 0.4396(11) 0.5932(8) 0.1447(6)
C35 C 0.4442(11) 0.5410(8) 0.2299(7)
C36 C 0.4723(10) 0.5459(8) 0.0716(7)
C37 C 0.4778(11) 0.4447(8) 0.0845(7)
C38 C 0.4916(11) 0.6015(8) -0.0163(7)
H1 H 1.1893 0.85667 -0.14997
H2 H 1.26134 0.77141 -0.02039
H3 H 1.122 0.75782 0.10727
H4 H 0.88813 0.8156 0.11142
H5 H 0.35393 0.97623 -0.40216
H6 H 0.50348 0.83999 -0.42984
H7 H 0.61541 0.73547 -0.31855
H8 H 0.61166 0.78836 -0.19302
H9 H 0.90754 0.05686 0.4427
H10 H 0.83526 -0.04966 0.57404
H11 H 0.70137 0.01424 0.6876
H12 H 0.61421 0.18247 0.6599
H13 H -0.06675 0.24093 0.59938
H14 H -0.19707 0.30833 0.70778
H15 H -0.1283 0.43692 0.74882
H16 H 0.07804 0.48631 0.68766
H17 H 0.46004 0.40612 0.14202
H18 H 0.48336 0.67111 -0.02797
N1A N 0.5809(10) 0.2214(7) -0.1162(5)
N2A N 0.5504(9) 0.5024(7) -0.3001(5)
C33A C 0.5755(10) 0.3068(7) -0.1307(6)
C34A C 0.5604(11) 0.4068(8) -0.1447(6)
C35A C 0.5558(11) 0.4590(8) -0.2299(7)
C36A C 0.5277(10) 0.4541(8) -0.0716(7)
C37A C 0.5222(11) 0.5553(8) -0.0845(7)
C38A C 0.5084(11) 0.3985(8) 0.0163(7)
H17A H 0.53996 0.59388 -0.14202
H18A H 0.51664 0.32889 0.02797
Ru1A Ru 0.52841(9) 0.07418(6) -0.04210(5)
Ru2A Ru 0.51587(10) 0.50378(7) -0.43276(5)
F1A F 0.0726(8) -0.0468(5) 0.1939(4)
F2A F 0.1751(8) 0.0763(6) 0.1867(5)
F3A F -0.0299(10) 0.0722(7) 0.2503(5)
F4A F 0.6300(8) -0.1447(6) 0.2901(5)
F5A F 0.7500(7) -0.0541(5) 0.1879(5)
F6A F 0.7899(8) -0.0841(6) 0.3198(5)
F7A F 0.2360(9) 0.7374(5) -0.3247(4)
F8A F 0.0334(8) 0.7927(6) -0.3517(5)
F9A F 0.1422(8) 0.6639(5) -0.3947(5)
F10A F 0.6935(8) 0.7540(6) -0.5223(5)
F11A F 0.8300(8) 0.6754(7) -0.4302(5)
F12A F 0.8710(9) 0.8151(6) -0.5138(6)
O1A O 0.3302(7) 0.1282(5) -0.0351(4)
O2A O 0.2754(8) -0.0181(5) 0.0490(5)
O3A O 0.5372(7) 0.1139(6) 0.0700(5)
O4A O 0.4836(7) -0.0332(6) 0.1523(5)
O5A O 0.4192(8) 0.6431(5) -0.4505(4)
O6A O 0.3861(8) 0.6352(5) -0.5829(4)
O7A O 0.6960(8) 0.5549(6) -0.4869(5)
O8A O 0.6646(8) 0.5489(6) -0.6195(4)
C1A C 0.2425(12) 0.0727(7) 0.0103(7)
C2A C 0.0982(11) 0.1179(7) 0.0170(7)
C3A C 0.0107(13) 0.1068(8) 0.0965(8)
C4A C 0.0586(14) 0.0519(9) 0.1810(8)
C5A C -0.1278(13) 0.1496(10) 0.0972(9)
C6A C -0.1697(13) 0.1998(9) 0.0199(9)
C7A C -0.0875(15) 0.2097(11) -0.0551(9)
C8A C 0.0516(13) 0.1722(9) -0.0582(8)
C9A C 0.5135(12) 0.0543(9) 0.1418(7)
C10A C 0.5198(13) 0.0858(9) 0.2213(7)
C11A C 0.5951(12) 0.0286(10) 0.2851(7)
C12A C 0.6917(15) -0.0630(11) 0.2720(9)
C13A C 0.5905(14) 0.0601(13) 0.3605(9)
C14A C 0.5062(15) 0.1435(13) 0.3755(9)
C15A C 0.4353(14) 0.2036(12) 0.3110(9)
C16A C 0.4403(13) 0.1728(9) 0.2358(8)
C17A C 0.3713(13) 0.6787(9) -0.5225(7)
C18A C 0.2986(13) 0.7830(8) -0.5355(7)
C19A C 0.2084(14) 0.8170(9) -0.4701(8)
C20A C 0.1548(15) 0.7526(10) -0.3848(8)
C21A C 0.1552(14) 0.9182(9) -0.4862(8)
C22A C 0.1946(14) 0.9811(9) -0.5654(9)
C23A C 0.2773(14) 0.9441(10) -0.6319(9)
C24A C 0.3288(14) 0.8437(9) -0.6150(8)
C25A C 0.7316(12) 0.5695(9) -0.5686(7)
C26A C 0.8619(13) 0.6068(8) -0.6061(7)
C27A C 0.9059(13) 0.6811(10) -0.5801(8)
C28A C 0.8278(16) 0.7309(11) -0.5133(9)
C29A C 1.0353(14) 0.7104(11) -0.6182(10)
C30A C 1.1133(14) 0.6692(12) -0.6808(9)
C31A C 1.0717(14) 0.5936(10) -0.7064(9)
C32A C 0.9495(14) 0.5646(11) -0.6697(8)
H1A H -0.1893 0.14333 0.14997
H2A H -0.26134 0.22859 0.02039
H3A H -0.122 0.24218 -0.10727
H4A H 0.11187 0.1844 -0.11142
H5A H 0.64607 0.02377 0.40216
H6A H 0.49652 0.16001 0.42984
H7A H 0.38459 0.26453 0.31855
H8A H 0.38834 0.21164 0.19302
H9A H 0.09246 0.94314 -0.4427
H10A H 0.16474 1.04966 -0.57404
H11A H 0.29863 0.98576 -0.6876
H12A H 0.38579 0.81753 -0.6599
H13A H 1.06675 0.75907 -0.59938
H14A H 1.19707 0.69167 -0.70778
H15A H 1.1283 0.56308 -0.74882
H16A H 0.92196 0.51369 -0.68766
Ru1_2 Ru 0.47159(9) -0.07418(6) 0.04210(5)
Ru1A_2 Ru 0.52841(9) 1.07418(6) -0.04210(5)
Ru2_2 Ru 0.48413(10) 0.49622(7) -0.56724(5)
Ru2A_2 Ru 0.51587(10) 0.50378(7) 0.56724(5)
O2_2 O 0.7246(8) 0.0181(5) -0.0490(5)
O2A_2 O 0.2754(8) 0.9819(5) 0.0490(5)
O4_2 O 0.5164(7) 0.0332(6) -0.1523(5)
O4A_2 O 0.4836(7) 0.9668(6) 0.1523(5)
O6_2 O 0.6139(8) 0.3648(5) -0.4171(4)
O6A_2 O 0.3861(8) 0.6352(5) 0.4171(4)
O8_2 O 0.3354(8) 0.4511(6) -0.3805(4)
O8A_2 O 0.6646(8) 0.5489(6) 0.3805(4)
O9 O 0.8587(11) 0.5441(10) -0.1490(7)
O10 O 0.8140(13) 0.6937(9) -0.1231(8)
N3 N 0.8291(12) 0.6022(10) -0.1016(9)
C39 C 0.8199(14) 0.5608(10) -0.0029(9)
C40 C 0.8377(14) 0.4579(10) 0.0224(10)
C41 C 0.8248(16) 0.4205(11) 0.1136(10)
C42 C 0.7890(15) 0.4827(11) 0.1716(10)
C43 C 0.7743(16) 0.5786(12) 0.1391(10)
C44 C 0.7916(13) 0.6208(10) 0.0508(10)
H19 H 0.85669 0.41702 -0.01774
H20 H 0.84083 0.35149 0.13606
H21 H 0.77574 0.45642 0.23252
H22 H 0.75077 0.62071 0.17818
H23 H 0.78341 0.69007 0.02945
loop_
_geom_bond_atom_site_label_1
_geom_bond_atom_site_label_2
_geom_bond_site_symmetry_1
_geom_bond_site_symmetry_2
Ru1 O1 1_555 1_555
Ru2 O5 1_555 1_555
F1 C4 1_555 1_555
F2 C4 1_555 1_555
F3 C4 1_555 1_555
F4 C12 1_555 1_555
F5 C12 1_555 1_555
F6 C12 1_555 1_555
F7 C20 1_555 1_555
F8 C20 1_555 1_555
F9 C20 1_555 1_555
F10 C28 1_555 1_555
F11 C28 1_555 1_555
F12 C28 1_555 1_555
O1 C1 1_555 1_555
O2 C1 1_555 1_555
O3 Ru1 1_555 1_555
O4 C9 1_555 1_555
O5 C17 1_555 1_555
O6 C17 1_555 1_555
O7 Ru2 1_555 1_555
O8 C25 1_555 1_555
N1 Ru1 1_555 1_555
N2 Ru2 1_555 1_555
C1 C2 1_555 1_555
C2 C3 1_555 1_555
C3 C4 1_555 1_555
C5 C3 1_555 1_555
C6 C5 1_555 1_555
C7 C6 1_555 1_555
C8 C2 1_555 1_555
C9 O3 1_555 1_555
C10 C9 1_555 1_555
C11 C10 1_555 1_555
C12 C11 1_555 1_555
C13 C11 1_555 1_555
C14 C13 1_555 1_555
C15 C14 1_555 1_555
C16 C10 1_555 1_555
C17 C18 1_555 1_555
C18 C19 1_555 1_555
C19 C20 1_555 1_555
C21 C19 1_555 1_555
C22 C21 1_555 1_555
C23 C22 1_555 1_555
C24 C18 1_555 1_555
C25 O7 1_555 1_555
C26 C25 1_555 1_555
C27 C26 1_555 1_555
C28 C27 1_555 1_555
C29 C27 1_555 1_555
C30 C29 1_555 1_555
C31 C30 1_555 1_555
C32 C26 1_555 1_555
C33 N1 1_555 1_555
C34 C33 1_555 1_555
C35 N2 1_555 1_555
C36 C34 1_555 1_555
C37 C36 1_555 1_555
C38 C36 1_555 1_555
H1 C5 1_555 1_555
H2 C6 1_555 1_555
H3 C7 1_555 1_555
H4 C8 1_555 1_555
H5 C13 1_555 1_555
H6 C14 1_555 1_555
H7 C15 1_555 1_555
H8 C16 1_555 1_555
H9 C21 1_555 1_555
H10 C22 1_555 1_555
H11 C23 1_555 1_555
H12 C24 1_555 1_555
H13 C29 1_555 1_555
H14 C30 1_555 1_555
H15 C31 1_555 1_555
H16 C32 1_555 1_555
H17 C37 1_555 1_555
H18 C38 1_555 1_555
O9 N3 1_555 1_555
O10 N3 1_555 1_555
N3 C39 1_555 1_555
C39 C40 1_555 1_555
C40 C41 1_555 1_555
C41 C42 1_555 1_555
C42 C43 1_555 1_555
C43 C44 1_555 1_555
C44 C39 1_555 1_555
H19 C40 1_555 1_555
H20 C41 1_555 1_555
H21 C42 1_555 1_555
H22 C43 1_555 1_555
H23 C44 1_555 1_555
N1A C33A 1_555 1_555
N2A C35A 1_555 1_555
C33A C34A 1_555 1_555
C34A C35A 1_555 1_555
C36A C34A 1_555 1_555
C37A C38 1_555 1_555
C38A C37 1_555 1_555
H17A C37A 1_555 1_555
H18A C38A 1_555 1_555
Ru1A N1A 1_555 1_555
Ru2A N2A 1_555 1_555
F1A C4A 1_555 1_555
F2A C4A 1_555 1_555
F3A C4A 1_555 1_555
F4A C12A 1_555 1_555
F5A C12A 1_555 1_555
F6A C12A 1_555 1_555
F7A C20A 1_555 1_555
F8A C20A 1_555 1_555
F9A C20A 1_555 1_555
F10A C28A 1_555 1_555
F11A C28A 1_555 1_555
F12A C28A 1_555 1_555
O1A Ru1A 1_555 1_555
O2A C1A 1_555 1_555
O3A Ru1A 1_555 1_555
O4A C9A 1_555 1_555
O5A Ru2A 1_555 1_555
O6A C17A 1_555 1_555
O7A Ru2A 1_555 1_555
O8A C25A 1_555 1_555
C1A O1A 1_555 1_555
C2A C1A 1_555 1_555
C3A C2A 1_555 1_555
C4A C3A 1_555 1_555
C5A C3A 1_555 1_555
C6A C5A 1_555 1_555
C7A C6A 1_555 1_555
C8A C2A 1_555 1_555
C9A O3A 1_555 1_555
C10A C9A 1_555 1_555
C11A C10A 1_555 1_555
C12A C11A 1_555 1_555
C13A C11A 1_555 1_555
C14A C13A 1_555 1_555
C15A C14A 1_555 1_555
C16A C10A 1_555 1_555
C17A O5A 1_555 1_555
C18A C17A 1_555 1_555
C19A C18A 1_555 1_555
C20A C19A 1_555 1_555
C21A C19A 1_555 1_555
C22A C21A 1_555 1_555
C23A C22A 1_555 1_555
C24A C18A 1_555 1_555
C25A O7A 1_555 1_555
C26A C25A 1_555 1_555
C27A C26A 1_555 1_555
C28A C27A 1_555 1_555
C29A C27A 1_555 1_555
C30A C29A 1_555 1_555
C31A C30A 1_555 1_555
C32A C26A 1_555 1_555
H1A C5A 1_555 1_555
H2A C6A 1_555 1_555
H3A C7A 1_555 1_555
H4A C8A 1_555 1_555
H5A C13A 1_555 1_555
H6A C14A 1_555 1_555
H7A C15A 1_555 1_555
H8A C16A 1_555 1_555
H9A C21A 1_555 1_555
H10A C22A 1_555 1_555
H11A C23A 1_555 1_555
H12A C24A 1_555 1_555
H13A C29A 1_555 1_555
H14A C30A 1_555 1_555
H15A C31A 1_555 1_555
H16A C32A 1_555 1_555
Ru1_2 Ru1A 1_555 1_555
Ru1A_2 Ru1 1_555 1_555
Ru2_2 Ru2A 1_555 1_555
Ru2A_2 Ru2 1_555 1_555
O2_2 Ru1A 1_555 1_555
O2A_2 Ru1 1_555 1_555
O4_2 Ru1A 1_555 1_555
O4A_2 Ru1 1_555 1_555
O6_2 Ru2A 1_555 1_555
O6A_2 Ru2 1_555 1_555
O8_2 Ru2A 1_555 1_555
O8A_2 Ru2 1_555 1_555
O2 Ru1A_2 1_555 1_555
O4 Ru1A_2 1_555 1_555
O6 Ru2A_2 1_555 1_555
O8 Ru2A_2 1_555 1_555
C7 C8 1_555 1_555
C15 C16 1_555 1_555
C23 C24 1_555 1_555
C31 C32 1_555 1_555
C34 C35 1_555 1_555
C36A C37A 1_555 1_555
C36A C38A 1_555 1_555
O2A Ru1_2 1_555 1_555
O4A Ru1_2 1_555 1_555
O6A Ru2_2 1_555 1_555
O8A Ru2_2 1_555 1_555
C7A C8A 1_555 1_555
C15A C16A 1_555 1_555
C23A C24A 1_555 1_555
C31A C32A 1_555 1_555

#END
