
#######################################################################
#
#                 Cambridge Crystallographic Data Centre
#                                CCDC 
#
#######################################################################
#
# If this CIF has been generated from an entry in the Cambridge 
# Structural Database, then it will include bibliographic, chemical, 
# crystal, experimental, refinement or atomic coordinate data resulting 
# from the CCDC's data processing and validation procedures.
#
#######################################################################

data_JUHWOA
_symmetry_cell_setting           triclinic
_symmetry_space_group_name_H-M   'P -1'
_symmetry_Int_Tables_number      2
_space_group_name_Hall           '-P 1'
loop_
_symmetry_equiv_pos_site_id
_symmetry_equiv_pos_as_xyz
1 x,y,z
2 -x,-y,-z
_cell_length_a                   11.624(4)
_cell_length_b                   15.454(5)
_cell_length_c                   15.732(5)
_cell_angle_alpha                96.213(3)
_cell_angle_beta                 108.752(3)
_cell_angle_gamma                107.136(3)
_cell_volume                     2492.1
loop_
_atom_site_label
_atom_site_type_symbol
_atom_site_fract_x
_atom_site_fract_y
_atom_site_fract_z
Ru1 Ru 0.56795(5) 0.50471(4) 0.07267(4)
Ru2 Ru 0.95672(5) 0.92199(4) 0.46809(4)
S1 S 0.7671(2) 0.28816(13) 0.37334(14)
O1 O 0.5905(5) 0.6400(3) 0.1059(3)
O2 O 0.4559(5) 0.6312(3) -0.0360(3)
O3 O 0.4148(5) 0.4735(4) 0.1114(3)
O4 O 0.2798(5) 0.4634(4) -0.0317(3)
O5 O 0.9422(4) 0.9488(3) 0.3422(3)
O6 O 1.0271(5) 1.1017(3) 0.4050(3)
O7 O 0.7766(4) 0.9279(3) 0.4408(3)
O8 O 0.8626(5) 1.0801(3) 0.5052(3)
N1 N 0.6897(7) 0.5197(4) 0.2182(4)
N2 N 0.8813(6) 0.7683(4) 0.4163(4)
N3 N 0.7707(6) 0.3910(4) 0.3607(4)
N4 N 0.8998(6) 0.3103(4) 0.4575(4)
C1 C 0.7609(7) 0.5517(5) 0.2931(5)
C2 C 0.8507(7) 0.5957(5) 0.3814(5)
C3 C 0.8701(7) 0.6912(5) 0.4017(5)
C4 C 0.9233(7) 0.5485(5) 0.4403(4)
C5 C 0.8831(7) 0.4508(5) 0.4274(4)
C6 C 1.0412(7) 0.5972(5) 0.5165(4)
C7 C 0.5273(7) 0.6753(5) 0.0467(5)
C8 C 0.5351(7) 0.7726(5) 0.0763(5)
C9 C 0.6189(7) 0.8251(5) 0.1635(5)
C10 C 0.6238(8) 0.9133(5) 0.1924(6)
C11 C 0.5417(8) 0.9518(6) 0.1355(6)
C12 C 0.5476(10) 1.0480(6) 0.1697(6)
C13 C 0.4566(9) 0.8988(6) 0.0493(6)
C14 C 0.4535(8) 0.8099(5) 0.0189(5)
C15 C 0.3008(8) 0.4598(5) 0.0515(6)
C16 C 0.1933(8) 0.4422(6) 0.0866(6)
C17 C 0.2211(11) 0.4546(7) 0.1816(7)
C18 C 0.1178(11) 0.4396(8) 0.2170(8)
C19 C -0.0057(11) 0.4154(7) 0.1572(8)
C20 C -0.1139(12) 0.4013(10) 0.1887(11)
C21 C -0.0353(11) 0.4005(8) 0.0622(8)
C22 C 0.0690(10) 0.4172(7) 0.0279(7)
C23 C 0.9767(7) 1.0340(5) 0.3357(5)
C24 C 0.9558(7) 1.0534(5) 0.2424(5)
C25 C 0.9118(8) 0.9833(6) 0.1657(6)
C26 C 0.8895(9) 1.0032(6) 0.0788(6)
C27 C 0.9147(9) 1.0950(7) 0.0691(6)
C28 C 0.8944(11) 1.1179(7) -0.0253(7)
C29 C 0.9601(10) 1.1670(7) 0.1468(6)
C30 C 0.9791(9) 1.1448(6) 0.2329(6)
C31 C 0.7662(7) 1.0060(5) 0.4603(5)
C32 C 0.6353(6) 1.0121(5) 0.4278(5)
C33 C 0.5273(8) 0.9354(6) 0.3690(6)
C34 C 0.4068(8) 0.9423(6) 0.3371(5)
C35 C 0.3879(8) 1.0245(6) 0.3617(6)
C36 C 0.2539(8) 1.0294(8) 0.3257(7)
C37 C 0.4929(8) 1.1007(6) 0.4194(5)
C38 C 0.6157(7) 1.0942(5) 0.4522(5)
H1 H 0.67355 0.79947 0.20362
H2 H 0.68355 0.94887 0.25168
H3 H 0.48715 1.04479 0.20163
H4 H 0.52363 1.07695 0.11743
H5 H 0.63593 1.0851 0.21242
H6 H 0.39948 0.92346 0.01014
H7 H 0.39553 0.77471 -0.04095
H8 H 0.30848 0.473 0.22313
H9 H 0.13671 0.44684 0.28128
H10 H -0.08399 0.4417 0.24969
H11 H -0.14731 0.33624 0.19226
H12 H -0.18298 0.41643 0.14514
H13 H -0.12302 0.37959 0.02063
H14 H 0.04991 0.41056 -0.03639
H15 H 0.89655 0.92084 0.17193
H16 H 0.85704 0.95419 0.02594
H17 H 0.82348 1.0662 -0.07264
H18 H 0.97423 1.12761 -0.03769
H19 H 0.87266 1.17445 -0.02635
H20 H 0.97783 1.22974 0.14124
H21 H 1.00838 1.19305 0.28604
H22 H 0.53796 0.87845 0.35129
H23 H 0.3348 0.88981 0.29731
H24 H 0.18968 0.96858 0.31817
H25 H 0.23787 1.0468 0.26597
H26 H 0.2469 1.07598 0.36931
H27 H 0.4813 1.15742 0.43651
H28 H 0.68732 1.14682 0.49207
S1A S 1.2329(2) 0.71184(13) 0.62666(14)
N1A N 1.3103(7) 0.4803(4) 0.7818(4)
N2A N 1.1187(6) 0.2317(4) 0.5837(4)
N3A N 1.2293(6) 0.6090(4) 0.6393(4)
N4A N 1.1002(6) 0.6897(4) 0.5425(4)
C1A C 1.2391(7) 0.4483(5) 0.7069(5)
C2A C 1.1493(7) 0.4043(5) 0.6186(5)
C3A C 1.1299(7) 0.3088(5) 0.5983(5)
C4A C 1.0767(7) 0.4515(5) 0.5597(4)
C5A C 1.1169(7) 0.5492(5) 0.5726(4)
C6A C 0.9588(7) 0.4028(5) 0.4835(4)
Ru1A Ru 0.43205(5) 0.49529(4) -0.07267(4)
O1A O 0.4095(5) 0.3600(3) -0.1059(3)
O2A O 0.5441(5) 0.3688(3) 0.0360(3)
O3A O 0.5852(5) 0.5265(4) -0.1114(3)
O4A O 0.7202(5) 0.5366(4) 0.0317(3)
C7A C 0.4727(7) 0.3247(5) -0.0467(5)
C8A C 0.4649(7) 0.2274(5) -0.0763(5)
C9A C 0.3811(7) 0.1749(5) -0.1635(5)
C10A C 0.3762(8) 0.0867(5) -0.1924(6)
C11A C 0.4583(8) 0.0482(6) -0.1355(6)
C12A C 0.4524(10) -0.0480(6) -0.1697(6)
C13A C 0.5434(9) 0.1012(6) -0.0493(6)
C14A C 0.5465(8) 0.1901(5) -0.0189(5)
C15A C 0.6992(8) 0.5402(5) -0.0515(6)
C16A C 0.8067(8) 0.5578(6) -0.0866(6)
C17A C 0.7789(11) 0.5454(7) -0.1816(7)
C18A C 0.8822(11) 0.5604(8) -0.2170(8)
C19A C 1.0057(11) 0.5846(7) -0.1572(8)
C20A C 1.1139(12) 0.5987(10) -0.1887(11)
C21A C 1.0353(11) 0.5995(8) -0.0622(8)
C22A C 0.9310(10) 0.5828(7) -0.0279(7)
H1A H 0.32645 0.20053 -0.20362
H2A H 0.31645 0.05113 -0.25168
H3A H 0.51285 -0.04479 -0.20163
H4A H 0.47637 -0.07695 -0.11743
H5A H 0.36407 -0.0851 -0.21242
H6A H 0.60052 0.07654 -0.01014
H7A H 0.60447 0.22529 0.04095
H8A H 0.69152 0.527 -0.22313
H9A H 0.86329 0.55316 -0.28128
H10A H 1.08399 0.5583 -0.24969
H11A H 1.14731 0.66376 -0.19226
H12A H 1.18298 0.58357 -0.14514
H13A H 1.12302 0.62041 -0.02063
H14A H 0.95009 0.58944 0.03639
Ru2A Ru 1.04328(5) 1.07801(4) 0.53191(4)
O5A O 1.0578(4) 1.0512(3) 0.6578(3)
O6A O 0.9729(5) 0.8983(3) 0.5950(3)
O7A O 1.2234(4) 1.0721(3) 0.5592(3)
O8A O 1.1374(5) 0.9199(3) 0.4948(3)
C23A C 1.0233(7) 0.9660(5) 0.6643(5)
C24A C 1.0442(7) 0.9466(5) 0.7576(5)
C25A C 1.0882(8) 1.0167(6) 0.8343(6)
C26A C 1.1105(9) 0.9968(6) 0.9212(6)
C27A C 1.0853(9) 0.9050(7) 0.9309(6)
C28A C 1.1056(11) 0.8821(7) 1.0253(7)
C29A C 1.0399(10) 0.8330(7) 0.8532(6)
C30A C 1.0209(9) 0.8552(6) 0.7671(6)
C31A C 1.2338(7) 0.9940(5) 0.5397(5)
C32A C 1.3647(6) 0.9879(5) 0.5722(5)
C33A C 1.4727(8) 1.0646(6) 0.6310(6)
C34A C 1.5932(8) 1.0577(6) 0.6629(5)
C35A C 1.6121(8) 0.9755(6) 0.6383(6)
C36A C 1.7461(8) 0.9706(8) 0.6743(7)
C37A C 1.5071(8) 0.8993(6) 0.5806(5)
C38A C 1.3843(7) 0.9058(5) 0.5478(5)
H15A H 1.10345 1.07916 0.82807
H16A H 1.14296 1.04581 0.97406
H17A H 1.17652 0.9338 1.07264
H18A H 1.02577 0.87239 1.03769
H19A H 1.12734 0.82555 1.02635
H20A H 1.02217 0.77026 0.85876
H21A H 0.99162 0.80695 0.71396
H22A H 1.46204 1.12155 0.64871
H23A H 1.6652 1.11019 0.70269
H24A H 1.81032 1.03142 0.68183
H25A H 1.76213 0.9532 0.73403
H26A H 1.7531 0.92402 0.63069
H27A H 1.5187 0.84258 0.56349
H28A H 1.31268 0.85318 0.50793
Ru1A_2 Ru 1.43205(5) 0.49529(4) 0.92733(4)
Ru2A_2 Ru 1.04328(5) 0.07801(4) 0.53191(4)
N1A_2 N 0.3103(7) 0.4803(4) -0.2182(4)
N2A_2 N 1.1187(6) 1.2317(4) 0.5837(4)
Cl1 Cl 0.7256(3) 0.76055(18) 0.9287(2)
Cl2 Cl 0.5710(3) 0.78435(18) 0.7520(2)
C39 C 0.5938(13) 0.7080(8) 0.8209(7)
H29 H 0.60993 0.65715 0.78811
H30 H 0.51336 0.68021 0.83242
C40 C -0.0036(9) 0.7307(7) 0.2155(7)
C41 C 0.1222(9) 0.7136(6) 0.2443(6)
C42 C 0.1753(10) 0.6961(6) 0.3300(6)
C43 C 0.2926(10) 0.6807(7) 0.3570(6)
C44 C 0.3631(10) 0.6816(7) 0.2994(7)
C45 C 0.4916(11) 0.6680(8) 0.3292(8)
C46 C 0.3095(9) 0.6968(7) 0.2127(6)
C47 C 0.1893(9) 0.7127(7) 0.1863(6)
H31 H -0.07556 0.67131 0.18661
H32 H -0.00482 0.77087 0.17143
H33 H -0.01286 0.76094 0.26976
H34 H 0.1308 0.69457 0.37132
H35 H 0.32604 0.66921 0.41656
H36 H 0.49439 0.62758 0.37311
H37 H 0.56134 0.72832 0.3585
H38 H 0.50307 0.63918 0.27526
H39 H 0.35274 0.69658 0.17068
H40 H 0.15418 0.7232 0.12654
C48 C 0.3839(10) 0.4916(7) 0.5096(7)
C49 C 0.4893(10) 0.5712(7) 0.5535(6)
C50 C 0.6102(9) 0.5815(7) 0.5446(7)
C51 C 0.7234(11) 0.6698(8) 0.5889(8)
H41 H 0.30442 0.48692 0.51691
H42 H 0.48148 0.62032 0.59043
H43 H 0.77447 0.6667 0.65087
H44 H 0.69245 0.72207 0.59301
H45 H 0.77777 0.67878 0.55183
C48A C 0.6161(10) 0.5084(7) 0.4904(7)
C49A C 0.5107(10) 0.4288(7) 0.4465(6)
C50A C 0.3898(9) 0.4185(7) 0.4554(7)
C51A C 0.2766(11) 0.3302(8) 0.4111(8)
H41A H 0.69558 0.51308 0.48309
H42A H 0.51852 0.37968 0.40957
H43A H 0.22553 0.3333 0.34913
H44A H 0.30755 0.27793 0.40699
H45A H 0.22223 0.32122 0.44817
loop_
_geom_bond_atom_site_label_1
_geom_bond_atom_site_label_2
_geom_bond_site_symmetry_1
_geom_bond_site_symmetry_2
Ru1 O1 1_555 1_555
Ru2 O5 1_555 1_555
S1 N3 1_555 1_555
O1 C7 1_555 1_555
O2 C7 1_555 1_555
O3 Ru1 1_555 1_555
O4 C15 1_555 1_555
O5 C23 1_555 1_555
O6 C23 1_555 1_555
O7 Ru2 1_555 1_555
O8 C31 1_555 1_555
N1 Ru1 1_555 1_555
N2 Ru2 1_555 1_555
N3 C5 1_555 1_555
N4 S1 1_555 1_555
C1 N1 1_555 1_555
C2 C1 1_555 1_555
C3 N2 1_555 1_555
C4 C2 1_555 1_555
C5 C4 1_555 1_555
C6 C4 1_555 1_555
C7 C8 1_555 1_555
C8 C9 1_555 1_555
C9 C10 1_555 1_555
C10 C11 1_555 1_555
C11 C12 1_555 1_555
C12 H3 1_555 1_555
C13 C11 1_555 1_555
C14 C8 1_555 1_555
C15 O3 1_555 1_555
C16 C15 1_555 1_555
C17 C16 1_555 1_555
C18 C17 1_555 1_555
C19 C18 1_555 1_555
C20 C19 1_555 1_555
C21 C19 1_555 1_555
C22 C16 1_555 1_555
C23 C24 1_555 1_555
C24 C25 1_555 1_555
C25 C26 1_555 1_555
C26 C27 1_555 1_555
C27 C28 1_555 1_555
C28 H17 1_555 1_555
C29 C27 1_555 1_555
C30 C24 1_555 1_555
C31 O7 1_555 1_555
C32 C31 1_555 1_555
C33 C32 1_555 1_555
C34 C33 1_555 1_555
C35 C34 1_555 1_555
C36 C35 1_555 1_555
C37 C35 1_555 1_555
C38 C32 1_555 1_555
H1 C9 1_555 1_555
H2 C10 1_555 1_555
H4 C12 1_555 1_555
H5 C12 1_555 1_555
H6 C13 1_555 1_555
H7 C14 1_555 1_555
H8 C17 1_555 1_555
H9 C18 1_555 1_555
H10 C20 1_555 1_555
H11 C20 1_555 1_555
H12 C20 1_555 1_555
H13 C21 1_555 1_555
H14 C22 1_555 1_555
H15 C25 1_555 1_555
H16 C26 1_555 1_555
H18 C28 1_555 1_555
H19 C28 1_555 1_555
H20 C29 1_555 1_555
H21 C30 1_555 1_555
H22 C33 1_555 1_555
H23 C34 1_555 1_555
H24 C36 1_555 1_555
H25 C36 1_555 1_555
H26 C36 1_555 1_555
H27 C37 1_555 1_555
H28 C38 1_555 1_555
Cl1 C39 1_555 1_555
Cl2 C39 1_555 1_555
C39 H29 1_555 1_555
H30 C39 1_555 1_555
C40 C41 1_555 1_555
C41 C42 1_555 1_555
C42 C43 1_555 1_555
C43 C44 1_555 1_555
C44 C45 1_555 1_555
C45 H36 1_555 1_555
C46 C44 1_555 1_555
C47 C41 1_555 1_555
H31 C40 1_555 1_555
H32 C40 1_555 1_555
H33 C40 1_555 1_555
H34 C42 1_555 1_555
H35 C43 1_555 1_555
H37 C45 1_555 1_555
H38 C45 1_555 1_555
H39 C46 1_555 1_555
H40 C47 1_555 1_555
C48 C49 1_555 1_555
C49 C50 1_555 1_555
C50 C51 1_555 1_555
C51 H43 1_555 1_555
H41 C48 1_555 1_555
H42 C49 1_555 1_555
H44 C51 1_555 1_555
H45 C51 1_555 1_555
S1A N3A 1_555 1_555
N1A C1A 1_555 1_555
N2A C3A 1_555 1_555
N3A C5A 1_555 1_555
N4A C6 1_555 1_555
C1A C2A 1_555 1_555
C2A C3A 1_555 1_555
C4A C2A 1_555 1_555
C5A C6 1_555 1_555
C6A N4 1_555 1_555
Ru1A Ru1 1_555 1_555
O1A Ru1A 1_555 1_555
O2A Ru1 1_555 1_555
O3A Ru1A 1_555 1_555
O4A Ru1 1_555 1_555
C7A O1A 1_555 1_555
C8A C7A 1_555 1_555
C9A C8A 1_555 1_555
C10A C9A 1_555 1_555
C11A C10A 1_555 1_555
C12A C11A 1_555 1_555
C13A C11A 1_555 1_555
C14A C8A 1_555 1_555
C15A O3A 1_555 1_555
C16A C15A 1_555 1_555
C17A C16A 1_555 1_555
C18A C17A 1_555 1_555
C19A C18A 1_555 1_555
C20A C19A 1_555 1_555
C21A C19A 1_555 1_555
C22A C16A 1_555 1_555
H1A C9A 1_555 1_555
H2A C10A 1_555 1_555
H3A C12A 1_555 1_555
H4A C12A 1_555 1_555
H5A C12A 1_555 1_555
H6A C13A 1_555 1_555
H7A C14A 1_555 1_555
H8A C17A 1_555 1_555
H9A C18A 1_555 1_555
H10A C20A 1_555 1_555
H11A C20A 1_555 1_555
H12A C20A 1_555 1_555
H13A C21A 1_555 1_555
H14A C22A 1_555 1_555
Ru2A Ru2 1_555 1_555
O5A Ru2A 1_555 1_555
O6A Ru2 1_555 1_555
O7A Ru2A 1_555 1_555
O8A Ru2 1_555 1_555
C23A O5A 1_555 1_555
C24A C23A 1_555 1_555
C25A C24A 1_555 1_555
C26A C25A 1_555 1_555
C27A C26A 1_555 1_555
C28A C27A 1_555 1_555
C29A C27A 1_555 1_555
C30A C24A 1_555 1_555
C31A O7A 1_555 1_555
C32A C31A 1_555 1_555
C33A C32A 1_555 1_555
C34A C33A 1_555 1_555
C35A C34A 1_555 1_555
C36A C35A 1_555 1_555
C37A C35A 1_555 1_555
C38A C32A 1_555 1_555
H15A C25A 1_555 1_555
H16A C26A 1_555 1_555
H17A C28A 1_555 1_555
H18A C28A 1_555 1_555
H19A C28A 1_555 1_555
H20A C29A 1_555 1_555
H21A C30A 1_555 1_555
H22A C33A 1_555 1_555
H23A C34A 1_555 1_555
H24A C36A 1_555 1_555
H25A C36A 1_555 1_555
H26A C36A 1_555 1_555
H27A C37A 1_555 1_555
H28A C38A 1_555 1_555
Ru1A_2 N1A 1_555 1_555
Ru2A_2 N2A 1_555 1_555
N1A_2 Ru1A 1_555 1_555
N2A_2 Ru2A 1_555 1_555
C48A C50 1_555 1_555
C49A C48A 1_555 1_555
C50A C48 1_555 1_555
C51A C50A 1_555 1_555
H41A C48A 1_555 1_555
H42A C49A 1_555 1_555
H43A C51A 1_555 1_555
H44A C51A 1_555 1_555
H45A C51A 1_555 1_555
O2 Ru1A 1_555 1_555
O4 Ru1A 1_555 1_555
O6 Ru2A 1_555 1_555
O8 Ru2A 1_555 1_555
C2 C3 1_555 1_555
C5 C6A 1_555 1_555
C13 C14 1_555 1_555
C21 C22 1_555 1_555
C29 C30 1_555 1_555
C37 C38 1_555 1_555
C46 C47 1_555 1_555
S1A N4A 1_555 1_555
C4A C5A 1_555 1_555
C4A C6A 1_555 1_555
O2A C7A 1_555 1_555
O4A C15A 1_555 1_555
C13A C14A 1_555 1_555
C21A C22A 1_555 1_555
O6A C23A 1_555 1_555
O8A C31A 1_555 1_555
C29A C30A 1_555 1_555
C37A C38A 1_555 1_555
C49A C50A 1_555 1_555

#END
