
#######################################################################
#
#                 Cambridge Crystallographic Data Centre
#                                CCDC 
#
#######################################################################
#
# If this CIF has been generated from an entry in the Cambridge 
# Structural Database, then it will include bibliographic, chemical, 
# crystal, experimental, refinement or atomic coordinate data resulting 
# from the CCDC's data processing and validation procedures.
#
#######################################################################

data_JUHYUI
_symmetry_cell_setting           triclinic
_symmetry_space_group_name_H-M   'P -1'
_symmetry_Int_Tables_number      2
_space_group_name_Hall           '-P 1'
loop_
_symmetry_equiv_pos_site_id
_symmetry_equiv_pos_as_xyz
1 x,y,z
2 -x,-y,-z
_cell_length_a                   15.265(2)
_cell_length_b                   15.593(2)
_cell_length_c                   16.937(2)
_cell_angle_alpha                88.974(3)
_cell_angle_beta                 72.615(2)
_cell_angle_gamma                84.665(3)
_cell_volume                     3830.43
loop_
_atom_site_label
_atom_site_type_symbol
_atom_site_fract_x
_atom_site_fract_y
_atom_site_fract_z
Cd1 Cd 0.42166(4) 0.44168(4) 0.77839(4)
N1 N 0.4671(5) 0.3105(4) 0.7119(4)
N2 N 0.2720(4) 0.4155(4) 0.8460(4)
O1 O 0.3762(4) 0.5834(3) 0.7516(4)
O2 O 0.4882(4) 0.5172(3) 0.6534(4)
O3 O 0.4677(4) 0.3879(4) 0.8969(4)
O4 O 0.5391(4) 0.4897(4) 0.8206(4)
C1 C 0.4585(6) 0.2365(5) 0.7512(5)
C2 C 0.5104(6) 0.3057(5) 0.6318(6)
C3 C 0.2533(6) 0.3733(5) 0.9174(5)
C4 C 0.1989(6) 0.4457(5) 0.8225(5)
H1 H 0.4311 0.2385 0.8082
C5 C 0.4871(5) 0.1564(5) 0.7142(5)
C6 C 0.5440(6) 0.2290(5) 0.5880(5)
H2 H 0.5191 0.3570 0.6028
H3 H 0.3022 0.3524 0.9365
C7 C 0.1662(6) 0.3592(5) 0.9639(5)
C8 C 0.1087(5) 0.4359(5) 0.8670(5)
H4 H 0.2096 0.4752 0.7728
H5 H 0.4754 0.1065 0.7450
C9 C 0.5343(5) 0.1517(5) 0.6291(5)
H6 H 0.5729 0.2298 0.5313
H7 H 0.1575 0.3277 1.0124
C10 C 0.0910(6) 0.3909(5) 0.9399(5)
H8 H 0.0605 0.4594 0.8481
C11 C 0.5701(6) 0.0687(5) 0.5848(5)
C12 C -0.0046(5) 0.3791(5) 0.9939(5)
N3 N 0.6319(5) 0.0765(4) 0.5092(4)
C13 C 0.5373(5) -0.0102(5) 0.6156(5)
N4 N -0.0099(4) 0.3505(4) 1.0699(4)
C14 C -0.0827(5) 0.3965(5) 0.9677(5)
C15 C 0.6610(6) 0.0044(5) 0.4638(5)
H9 H 0.4962 -0.0132 0.6684
C16 C 0.5673(5) -0.0847(5) 0.5656(5)
C17 C -0.0938(5) 0.3393(5) 1.1209(5)
H10 H -0.0765 0.4151 0.9140
C18 C -0.1692(5) 0.3862(5) 1.0209(5)
C19 C 0.6290(5) -0.0746(5) 0.4884(5)
C20 C 0.7285(6) 0.0142(5) 0.3805(5)
C21 C 0.5336(6) -0.1689(5) 0.5949(5)
C22 C -0.1742(5) 0.3569(5) 1.0996(5)
C23 C -0.0944(5) 0.3089(5) 1.2054(5)
C24 C -0.2528(5) 0.4061(5) 0.9920(5)
H11 H 0.6493 -0.1217 0.4525
C25 C 0.7235(6) -0.0262(5) 0.3121(5)
C26 C 0.8018(7) 0.0613(5) 0.3714(6)
C27 C 0.4503(6) -0.1753(5) 0.6569(5)
C28 C 0.5844(6) -0.2457(5) 0.5600(5)
H12 H -0.2309 0.3490 1.1376
C29 C -0.1720(6) 0.3173(5) 1.2729(5)
C30 C -0.0137(6) 0.2722(5) 1.2188(5)
C31 C -0.3286(6) 0.3595(6) 1.0200(6)
C32 C -0.2525(6) 0.4682(5) 0.9336(5)
C33 C 0.7876(6) -0.0143(5) 0.2371(5)
H13 H 0.6769 -0.0618 0.3159
H14 H 0.8091 0.0892 0.4168
C34 C 0.8654(7) 0.0674(6) 0.2939(6)
H15 H 0.4139 -0.1255 0.6800
C35 C 0.4214(6) -0.2554(5) 0.6843(5)
C36 C 0.5513(6) -0.3244(5) 0.5882(5)
H16 H 0.6399 -0.2442 0.5183
C37 C -0.1654(7) 0.2894(6) 1.3489(5)
H17 H -0.2279 0.3414 1.2674
H18 H 0.0408 0.2663 1.1754
C38 C -0.0148(6) 0.2449(5) 1.2959(6)
H19 H -0.3315 0.3204 1.0626
C39 C -0.3996(6) 0.3700(6) 0.9857(5)
C40 C -0.3259(7) 0.4818(6) 0.9012(5)
H20 H -0.2028 0.5014 0.9157
N5 N 0.8593(6) 0.0297(5) 0.2265(5)
H21 H 0.7795 -0.0392 0.1905
H22 H 0.9150 0.0996 0.2890
H23 H 0.3661 -0.2581 0.7261
C41 C 0.4722(6) -0.3304(5) 0.6514(5)
H24 H 0.5844 -0.3748 0.5630
N6 N -0.0905(6) 0.2528(5) 1.3639(5)
H25 H -0.2186 0.2970 1.3936
H26 H 0.0399 0.2190 1.3026
H27 H -0.4486 0.3360 1.0034
C42 C -0.3993(6) 0.4308(5) 0.9249(5)
H28 H -0.3260 0.5256 0.8631
C43 C 0.4418(6) -0.4144(5) 0.6872(6)
C44 C -0.4698(6) 0.4379(6) 0.8782(6)
O1_2 O 0.3762(4) -0.4166(3) 0.7516(4)
O2_2 O 0.4882(4) -0.4828(3) 0.6534(4)
O3_2 O -0.5323(4) 0.3879(4) 0.8969(4)
O4_2 O -0.4609(4) 0.4897(4) 0.8206(4)
Cd1_2 Cd 0.42166(4) -0.55832(4) 0.77839(4)
Cd1_3 Cd -0.57834(4) 0.44168(4) 0.77839(4)
Cd2 Cd 0.34730(4) 1.04988(4) 0.19576(4)
O5 O 0.2569(4) 0.9681(4) 0.3064(4)
O6 O 0.3532(4) 0.9026(3) 0.1959(4)
O7 O 0.5005(4) 1.0528(4) 0.1840(4)
O8 O 0.4589(4) 1.1055(4) 0.0798(4)
N7 N 0.3043(5) 1.1738(4) 0.2724(5)
N8 N 0.2419(5) 1.0732(4) 0.1245(4)
C45 C 0.3424(8) 1.2452(6) 0.2431(6)
C46 C 0.2367(6) 1.1794(5) 0.3436(6)
N9 N 0.1462(5) 1.4088(4) 0.4749(4)
C47 C 0.2072(6) 1.4149(6) 0.4011(5)
C48 C 0.1111(6) 1.4824(5) 0.5180(5)
N10 N -0.0738(6) 1.4509(6) 0.7611(5)
C49 C -0.0542(8) 1.5261(7) 0.7316(6)
C50 C -0.0399(7) 1.3866(7) 0.7108(6)
C51 C 0.2963(6) 1.9006(5) 0.2663(6)
H29 H 0.3900 1.2418 0.1936
C52 C 0.3151(7) 1.3250(6) 0.2824(6)
H30 H 0.3443 1.3734 0.2600
C53 C 0.2437(6) 1.3308(5) 0.3555(5)
C54 C 0.2035(6) 1.2564(5) 0.3858(6)
H31 H 0.1544 1.2582 0.4343
H32 H 0.2107 1.1294 0.3658
C55 C 0.2387(6) 1.4912(5) 0.3680(5)
H33 H 0.2859 1.4911 0.3183
C56 C 0.2004(6) 1.5689(5) 0.4085(5)
C57 C 0.1343(6) 1.5635(5) 0.4859(5)
C58 C 0.2275(6) 1.6547(5) 0.3712(5)
H34 H 0.1060 1.6133 0.5157
C59 C 0.0444(6) 1.4731(6) 0.6013(6)
H35 H -0.0805 1.5734 0.7661
C60 C 0.0026(8) 1.5428(6) 0.6529(6)
H36 H 0.0122 1.5989 0.6354
C61 C 0.0196(7) 1.3932(6) 0.6309(6)
H37 H 0.0423 1.3442 0.5979
H38 H -0.0563 1.3321 0.7292
C62 C 0.2052(7) 1.7281(5) 0.4191(5)
C63 C 0.2718(7) 1.6630(6) 0.2890(5)
H39 H 0.1741 1.7246 0.4752
C64 C 0.2282(7) 1.8068(5) 0.3853(5)
H40 H 0.2142 1.8554 0.4194
C65 C 0.2712(6) 1.8149(5) 0.3028(5)
C66 C 0.2941(7) 1.7412(5) 0.2543(6)
H41 H 0.3246 1.7446 0.1980
H42 H 0.2874 1.6140 0.2554
C67 C 0.1550(6) 1.0587(5) 0.1548(5)
C68 C 0.2674(6) 1.1015(6) 0.0494(6)
N11 N 0.0916(4) 1.1564(4) -0.0948(4)
C69 C 0.0530(6) 1.1298(5) -0.0169(5)
C70 C 0.0370(6) 1.1735(5) -0.1428(5)
N12 N 0.1934(6) 1.2219(5) -0.3931(5)
C71 C 0.2158(7) 1.2506(6) -0.3277(7)
C72 C 0.1171(7) 1.1807(6) -0.3763(6)
C73 C -0.4799(6) 1.0870(5) 0.1134(6)
H43 H 0.1350 1.0367 0.2080
C74 C 0.0908(6) 1.0746(5) 0.1109(5)
H44 H 0.0301 1.0623 0.1349
C75 C 0.1166(6) 1.1083(5) 0.0329(5)
C76 C 0.2084(6) 1.1209(6) 0.0023(6)
H45 H 0.2311 1.1427 -0.0507
H46 H 0.3295 1.1093 0.0257
C77 C -0.0406(5) 1.1228(5) 0.0143(5)
H47 H -0.0648 1.1032 0.0679
C78 C -0.0990(6) 1.1446(5) -0.0333(5)
C79 C -0.0562(6) 1.1703(5) -0.1139(5)
C80 C -0.1975(5) 1.1376(5) 0.0014(5)
H48 H -0.0920 1.1857 -0.1486
C81 C 0.0866(6) 1.1939(5) -0.2292(5)
H49 H 0.2676 1.2809 -0.3376
C82 C 0.1656(6) 1.2370(5) -0.2470(6)
H50 H 0.1848 1.2569 -0.2040
C83 C 0.0608(6) 1.1648(5) -0.2955(5)
H51 H 0.0083 1.1358 -0.2868
H52 H 0.0999 1.1612 -0.4206
C84 C -0.2354(6) 1.1331(6) 0.0856(5)
C85 C -0.2568(6) 1.1341(5) -0.0445(5)
H53 H -0.1987 1.1414 0.1194
C86 C -0.3264(7) 1.1166(6) 0.1221(6)
H54 H -0.3485 1.1109 0.1792
C87 C -0.3842(6) 1.1084(5) 0.0745(5)
C88 C -0.3490(6) 1.1189(5) -0.0093(6)
H55 H -0.3868 1.1157 -0.0430
H56 H -0.2350 1.1422 -0.1013
Cd2_2 Cd 0.34730(4) 2.04988(4) 0.19576(4)
O5_2 O 0.2569(4) 1.9681(4) 0.3064(4)
O6_2 O 0.3532(4) 1.9026(3) 0.1959(4)
Cd2_3 Cd -0.65270(4) 1.04988(4) 0.19576(4)
O7_2 O -0.4995(4) 1.0528(4) 0.1840(4)
O8_2 O -0.5411(4) 1.1055(4) 0.0798(4)
O9 O 0.9945(5) 0.1307(4) 0.4704(4)
O10 O 0.0684(5) 0.9768(5) 0.3837(5)
O11 O 0.4009(7) 0.2552(7) 0.0024(9)
O12 O 0.5927(14) 0.4658(10) 0.4863(10)
loop_
_geom_bond_atom_site_label_1
_geom_bond_atom_site_label_2
_geom_bond_site_symmetry_1
_geom_bond_site_symmetry_2
Cd1 N1 1_555 1_555
N1 C1 1_555 1_555
N2 Cd1 1_555 1_555
O1 Cd1 1_555 1_555
O2 Cd1 1_555 1_555
O3 Cd1 1_555 1_555
O4 Cd1 1_555 1_555
C1 H1 1_555 1_555
C2 N1 1_555 1_555
C3 N2 1_555 1_555
C4 N2 1_555 1_555
C5 C1 1_555 1_555
C6 C2 1_555 1_555
H2 C2 1_555 1_555
H3 C3 1_555 1_555
C7 C3 1_555 1_555
C8 C4 1_555 1_555
H4 C4 1_555 1_555
H5 C5 1_555 1_555
C9 C5 1_555 1_555
H6 C6 1_555 1_555
H7 C7 1_555 1_555
C10 C7 1_555 1_555
H8 C8 1_555 1_555
C11 C9 1_555 1_555
C12 C10 1_555 1_555
N3 C11 1_555 1_555
C13 C11 1_555 1_555
N4 C12 1_555 1_555
C14 C12 1_555 1_555
C15 N3 1_555 1_555
H9 C13 1_555 1_555
C16 C13 1_555 1_555
C17 N4 1_555 1_555
H10 C14 1_555 1_555
C18 C14 1_555 1_555
C19 C15 1_555 1_555
C20 C15 1_555 1_555
C21 C16 1_555 1_555
C22 C17 1_555 1_555
C23 C17 1_555 1_555
C24 C18 1_555 1_555
H11 C19 1_555 1_555
C25 C20 1_555 1_555
C26 C20 1_555 1_555
C27 C21 1_555 1_555
C28 C21 1_555 1_555
H12 C22 1_555 1_555
C29 C23 1_555 1_555
C30 C23 1_555 1_555
C31 C24 1_555 1_555
C32 C24 1_555 1_555
C33 C25 1_555 1_555
H13 C25 1_555 1_555
H14 C26 1_555 1_555
C34 C26 1_555 1_555
H15 C27 1_555 1_555
C35 C27 1_555 1_555
C36 C28 1_555 1_555
H16 C28 1_555 1_555
C37 C29 1_555 1_555
H17 C29 1_555 1_555
H18 C30 1_555 1_555
C38 C30 1_555 1_555
H19 C31 1_555 1_555
C39 C31 1_555 1_555
C40 C32 1_555 1_555
H20 C32 1_555 1_555
N5 C33 1_555 1_555
H21 C33 1_555 1_555
H22 C34 1_555 1_555
H23 C35 1_555 1_555
C41 C35 1_555 1_555
H24 C36 1_555 1_555
N6 C37 1_555 1_555
H25 C37 1_555 1_555
H26 C38 1_555 1_555
H27 C39 1_555 1_555
C42 C39 1_555 1_555
H28 C40 1_555 1_555
C43 C41 1_555 1_555
C44 C42 1_555 1_555
Cd2 O5 1_555 1_555
O6 Cd2 1_555 1_555
O7 Cd2 1_555 1_555
O8 Cd2 1_555 1_555
N7 Cd2 1_555 1_555
N8 Cd2 1_555 1_555
C45 N7 1_555 1_555
C46 N7 1_555 1_555
N9 C47 1_555 1_555
C47 C53 1_555 1_555
C48 N9 1_555 1_555
N10 C49 1_555 1_555
C49 H35 1_555 1_555
C50 N10 1_555 1_555
C51 C65 1_555 1_555
H29 C45 1_555 1_555
C52 C45 1_555 1_555
H30 C52 1_555 1_555
C53 C52 1_555 1_555
C54 C46 1_555 1_555
H31 C54 1_555 1_555
H32 C46 1_555 1_555
C55 C47 1_555 1_555
H33 C55 1_555 1_555
C56 C55 1_555 1_555
C57 C48 1_555 1_555
C58 C56 1_555 1_555
H34 C57 1_555 1_555
C59 C48 1_555 1_555
C60 C49 1_555 1_555
H36 C60 1_555 1_555
C61 C50 1_555 1_555
H37 C61 1_555 1_555
H38 C50 1_555 1_555
C62 C58 1_555 1_555
C63 C58 1_555 1_555
H39 C62 1_555 1_555
C64 C62 1_555 1_555
H40 C64 1_555 1_555
C65 C64 1_555 1_555
C66 C63 1_555 1_555
H41 C66 1_555 1_555
H42 C63 1_555 1_555
C67 N8 1_555 1_555
C68 N8 1_555 1_555
N11 C69 1_555 1_555
C69 C75 1_555 1_555
C70 N11 1_555 1_555
N12 C71 1_555 1_555
C71 H49 1_555 1_555
C72 N12 1_555 1_555
C73 C87 1_555 1_555
H43 C67 1_555 1_555
C74 C67 1_555 1_555
H44 C74 1_555 1_555
C75 C74 1_555 1_555
C76 C68 1_555 1_555
H45 C76 1_555 1_555
H46 C68 1_555 1_555
C77 C69 1_555 1_555
H47 C77 1_555 1_555
C78 C77 1_555 1_555
C79 C70 1_555 1_555
C80 C78 1_555 1_555
H48 C79 1_555 1_555
C81 C70 1_555 1_555
C82 C71 1_555 1_555
H50 C82 1_555 1_555
C83 C72 1_555 1_555
H51 C83 1_555 1_555
H52 C72 1_555 1_555
C84 C80 1_555 1_555
C85 C80 1_555 1_555
H53 C84 1_555 1_555
C86 C84 1_555 1_555
H54 C86 1_555 1_555
C87 C86 1_555 1_555
C88 C85 1_555 1_555
H55 C88 1_555 1_555
H56 C85 1_555 1_555
O1_2 C43 1_555 1_555
O2_2 C43 1_555 1_555
O3_2 C44 1_555 1_555
O4_2 C44 1_555 1_555
Cd1_2 O1_2 1_555 1_555
Cd1_3 O3_2 1_555 1_555
Cd2_2 O5_2 1_555 1_555
O5_2 C51 1_555 1_555
O6_2 C51 1_555 1_555
Cd2_3 O7_2 1_555 1_555
O7_2 C73 1_555 1_555
O8_2 C73 1_555 1_555
C6 C9 1_555 1_555
C8 C10 1_555 1_555
C16 C19 1_555 1_555
C18 C22 1_555 1_555
C34 N5 1_555 1_555
C36 C41 1_555 1_555
C38 N6 1_555 1_555
C40 C42 1_555 1_555
C53 C54 1_555 1_555
C56 C57 1_555 1_555
C59 C60 1_555 1_555
C59 C61 1_555 1_555
C65 C66 1_555 1_555
C75 C76 1_555 1_555
C78 C79 1_555 1_555
C81 C82 1_555 1_555
C81 C83 1_555 1_555
C87 C88 1_555 1_555
O2_2 Cd1_2 1_555 1_555
O4_2 Cd1_3 1_555 1_555
Cd2_2 O6_2 1_555 1_555
Cd2_3 O8_2 1_555 1_555

#END
