
#######################################################################
#
#                 Cambridge Crystallographic Data Centre
#                                CCDC 
#
#######################################################################
#
# If this CIF has been generated from an entry in the Cambridge 
# Structural Database, then it will include bibliographic, chemical, 
# crystal, experimental, refinement or atomic coordinate data resulting 
# from the CCDC's data processing and validation procedures.
#
#######################################################################

data_JUHZOD
_symmetry_cell_setting           monoclinic
_symmetry_space_group_name_H-M   'C 2/c'
_symmetry_Int_Tables_number      15
_space_group_name_Hall           '-C 2yn'
loop_
_symmetry_equiv_pos_site_id
_symmetry_equiv_pos_as_xyz
1 x,y,z
2 -x,y,1/2-z
3 1/2+x,1/2+y,z
4 1/2-x,1/2+y,1/2-z
5 -x,-y,-z
6 x,-y,1/2+z
7 1/2-x,1/2-y,-z
8 1/2+x,1/2-y,1/2+z
_cell_length_a                   18.259(5)
_cell_length_b                   17.191(4)
_cell_length_c                   16.371(4)
_cell_angle_alpha                90
_cell_angle_beta                 113.367(4)
_cell_angle_gamma                90
_cell_volume                     4717.24
loop_
_atom_site_label
_atom_site_type_symbol
_atom_site_fract_x
_atom_site_fract_y
_atom_site_fract_z
Zn1 Zn 0.063597(15) 0.334996(15) 0.184482(17)
Cl1 Cl 0.06582(5) -0.44119(4) 0.17487(6)
O1 O -0.03395(10) 0.40667(10) 0.13359(12)
N1 N 0.12259(12) -0.05171(11) 0.23399(14)
N2 N -0.00316(12) -0.05036(11) 0.13233(14)
N3 N 0.13980(11) 0.23532(11) 0.24500(12)
N4 N -0.01148(11) 0.23655(11) 0.12951(13)
N5 N -0.34451(13) 0.57517(14) 0.05139(15)
H1 H -0.3772 0.6078 0.0154
H2 H -0.3549 0.5551 0.0938
C1 C 0.05924(14) -0.18009(14) 0.18009(16)
C2 C 0.05848(14) -0.09416(14) 0.18121(16)
C3 C 0.10571(16) -0.22163(15) 0.25498(18)
H3 H 0.1369 -0.1950 0.3065
C4 C -0.13367(13) 0.51814(13) 0.01997(15)
H4 H -0.0862 0.5071 0.0140
C5 C -0.09509(14) 0.42294(13) 0.14634(15)
C6 C 0.10669(17) -0.30185(15) 0.25469(18)
H5 H 0.1374 -0.3293 0.3057
C7 C -0.22038(14) 0.50193(14) 0.09797(15)
H6 H -0.2307 0.4792 0.1439
C8 C 0.02321(14) 0.02456(13) 0.15589(16)
C9 C -0.08667(15) 0.23960(15) 0.07038(17)
H7 H -0.1100 0.2880 0.0517
C10 C -0.27449(14) 0.55463(14) 0.04102(16)
C11 C -0.13165(15) 0.17315(15) 0.03550(18)
H8 H -0.1842 0.1775 -0.0055
C12 C 0.21523(15) 0.23806(15) 0.30302(17)
H9 H 0.2397 0.2863 0.3198
C13 C 0.10106(14) 0.02513(13) 0.21878(16)
C14 C 0.22475(14) 0.09934(15) 0.31491(17)
H10 H 0.2537 0.0544 0.3388
C15 C -0.15074(13) 0.48306(13) 0.08652(15)
C16 C -0.09837(15) 0.10150(15) 0.06172(18)
H11 H -0.1280 0.0566 0.0393
C17 C 0.25882(15) 0.17126(15) 0.33948(17)
H12 H 0.3113 0.1754 0.3807
C18 C -0.01871(14) 0.09625(14) 0.12316(16)
C19 C 0.10493(13) 0.16507(13) 0.21997(15)
C20 C 0.14515(14) 0.09475(13) 0.25286(15)
C21 C 0.02234(13) 0.16574(13) 0.15574(15)
C22 C 0.06144(16) -0.34041(14) 0.17766(18)
C23 C 0.01309(16) -0.22062(15) 0.10376(17)
H13 H -0.0189 -0.1934 0.0531
C24 C 0.01408(16) -0.30108(15) 0.10203(18)
H14 H -0.0168 -0.3281 0.0506
C25 C -0.18808(14) 0.57004(14) -0.03779(15)
C26 C -0.25807(14) 0.58713(14) -0.02741(16)
H15 H -0.2947 0.6210 -0.0671
O2 O -0.10183(9) 0.62659(10) -0.09601(11)
O3 O -0.11637(10) 0.39181(10) 0.20296(12)
O4 O -0.22957(10) 0.61448(11) -0.18665(11)
C27 C -0.17325(13) 0.60652(13) -0.11361(15)
H16 H 0.1694(18) -0.0693(17) 0.267(2)
Zn1A Zn -0.063597(15) 0.334996(15) 0.315518(17)
Zn1D Zn -0.063597(15) 0.665004(15) -0.184482(17)
O2D O 0.10183(9) 0.37341(10) 0.09601(11)
O3A O 0.11637(10) 0.39181(10) 0.29704(12)
loop_
_geom_bond_atom_site_label_1
_geom_bond_atom_site_label_2
_geom_bond_site_symmetry_1
_geom_bond_site_symmetry_2
Zn1 O1 1_555 1_555
Cl1 C22 1_555 1_555
O1 C5 1_555 1_555
N1 C2 1_555 1_555
N2 C2 1_555 1_555
N3 Zn1 1_555 1_555
N4 Zn1 1_555 1_555
N5 H1 1_555 1_555
H2 N5 1_555 1_555
C1 C2 1_555 1_555
C3 C1 1_555 1_555
H3 C3 1_555 1_555
C4 H4 1_555 1_555
C5 C15 1_555 1_555
C6 C3 1_555 1_555
H5 C6 1_555 1_555
C7 H6 1_555 1_555
C8 N2 1_555 1_555
C9 N4 1_555 1_555
H7 C9 1_555 1_555
C10 N5 1_555 1_555
C11 C9 1_555 1_555
H8 C11 1_555 1_555
C12 N3 1_555 1_555
H9 C12 1_555 1_555
C13 N1 1_555 1_555
C14 H10 1_555 1_555
C15 C4 1_555 1_555
C16 C11 1_555 1_555
H11 C16 1_555 1_555
C17 C12 1_555 1_555
H12 C17 1_555 1_555
C18 C8 1_555 1_555
C19 N3 1_555 1_555
C20 C13 1_555 1_555
C21 N4 1_555 1_555
C22 C6 1_555 1_555
C23 C1 1_555 1_555
H13 C23 1_555 1_555
C24 C22 1_555 1_555
H14 C24 1_555 1_555
C25 C4 1_555 1_555
C26 C10 1_555 1_555
H15 C26 1_555 1_555
O2 C27 1_555 1_555
O3 C5 1_555 1_555
O4 C27 1_555 1_555
C27 C25 1_555 1_555
H16 N1 1_555 1_555
Zn1A O3 1_555 1_555
Zn1D O2 1_555 1_555
O2D Zn1 1_555 1_555
O3A Zn1 1_555 1_555
C7 C10 1_555 1_555
C7 C15 1_555 1_555
C8 C13 1_555 1_555
C14 C17 1_555 1_555
C14 C20 1_555 1_555
C16 C18 1_555 1_555
C18 C21 1_555 1_555
C19 C20 1_555 1_555
C19 C21 1_555 1_555
C23 C24 1_555 1_555
C25 C26 1_555 1_555

#END
