
#######################################################################
#
#                 Cambridge Crystallographic Data Centre
#                                CCDC 
#
#######################################################################
#
# If this CIF has been generated from an entry in the Cambridge 
# Structural Database, then it will include bibliographic, chemical, 
# crystal, experimental, refinement or atomic coordinate data resulting 
# from the CCDC's data processing and validation procedures.
#
#######################################################################

data_JUJKEG
_symmetry_cell_setting           triclinic
_symmetry_space_group_name_H-M   'P -1'
_symmetry_Int_Tables_number      2
_space_group_name_Hall           '-P 1'
loop_
_symmetry_equiv_pos_site_id
_symmetry_equiv_pos_as_xyz
1 x,y,z
2 -x,-y,-z
_cell_length_a                   11.1563(4)
_cell_length_b                   14.0857(5)
_cell_length_c                   16.1004(6)
_cell_angle_alpha                108.865(3)
_cell_angle_beta                 94.701(2)
_cell_angle_gamma                99.566(2)
_cell_volume                     2335.79
loop_
_atom_site_label
_atom_site_type_symbol
_atom_site_fract_x
_atom_site_fract_y
_atom_site_fract_z
Lu1 Lu 0.06594(2) 0.20645(2) 0.54456(2)
Lu2 Lu -0.40853(2) 0.20448(2) 0.05377(2)
S1 S -0.44721(11) 0.28696(10) 0.58875(9)
S2 S 0.07816(10) 0.29202(10) 0.08685(9)
S3 S -0.22225(11) 0.06054(9) 0.26238(8)
O1 O -0.0374(3) 0.0839(3) 0.4177(2)
O2 O -0.7185(3) 0.2648(3) 0.5942(2)
O3 O -0.1934(3) 0.2702(3) 0.0962(2)
C1 C -0.3384(4) -0.0270(4) 0.1846(3)
O4 O -0.2508(3) 0.1196(3) -0.0093(2)
C2 C 0.1354(4) 0.4441(4) 0.5349(3)
O5 O 0.3445(3) 0.3668(3) 0.1196(3)
O6 O -0.0656(3) -0.0821(3) 0.4006(2)
N1 N 0.0528(3) 0.2958(3) 0.7052(3)
O7 O -0.3908(3) 0.0937(2) 0.1236(2)
C3 C -0.3032(5) 0.2375(5) -0.2137(4)
H1 H -0.2920 0.1911 -0.2672
C4 C -0.4266(5) 0.4554(5) 0.3285(4)
H2 H -0.4171 0.5263 0.3477
N2 N 0.1074(3) 0.3972(3) 0.5937(3)
C5 C 0.1840(5) 0.2504(5) 0.2866(4)
H3 H 0.1934 0.2049 0.2322
O8 O -0.4935(3) -0.0686(2) 0.0634(2)
C6 C -0.4667(5) 0.2984(5) 0.3565(4)
H4 H -0.4856 0.2612 0.3937
N3 N -0.4239(3) 0.2990(3) 0.2126(3)
O9 O 0.3969(3) 0.2190(3) 0.0473(2)
N4 N -0.3787(3) 0.3924(3) 0.0950(3)
C7 C 0.0626(5) 0.4512(5) 0.8269(4)
H5 H 0.0759 0.5224 0.8487
C8 C -0.2823(5) 0.3404(5) -0.1991(4)
H6 H -0.2558 0.3653 -0.2429
O10 O -0.7745(3) 0.1216(3) 0.4791(2)
C9 C 0.2223(5) 0.3533(5) 0.3066(4)
H7 H 0.2579 0.3786 0.2658
N5 N 0.1183(3) 0.2770(3) 0.4281(3)
N6 N -0.3599(3) 0.2667(3) -0.0679(3)
O11 O -0.1806(3) 0.3654(3) 0.6226(3)
C10 C -0.3806(5) 0.5575(4) 0.1984(4)
H8 H -0.3859 0.5978 0.2560
C11 C 0.1448(5) 0.5496(4) 0.5561(4)
H9 H 0.1609 0.5804 0.5140
O12 O -0.1268(3) 0.2223(3) 0.5420(3)
C12 C -0.3517(5) 0.5405(4) 0.0511(4)
H10 H -0.3404 0.5686 0.0067
C13 C -0.4124(4) 0.0014(4) 0.1185(3)
C14 C 0.0172(5) 0.2909(5) 0.8489(4)
H11 H -0.0007 0.2523 0.8851
C15 C 0.1873(4) 0.2247(4) 0.0429(3)
C16 C -0.4535(6) 0.4028(5) 0.3862(4)
H12 H -0.4624 0.4380 0.4444
C17 C 0.1057(5) 0.5609(4) 0.7009(4)
H13 H 0.0972 0.5995 0.7583
C18 C -0.3366(4) 0.2228(4) 0.5443(3)
C19 C -0.0905(4) -0.0074(4) 0.3817(3)
C20 C 0.0936(4) 0.4545(4) 0.6755(3)
C21 C -0.3569(4) 0.4364(4) 0.0337(3)
C22 C -0.3634(5) 0.6010(4) 0.1343(4)
H14 H -0.3597 0.6708 0.1473
C23 C -0.1672(4) 0.1927(4) 0.0397(3)
C24 C -0.2041(4) 0.2756(4) 0.5730(3)
C25 C 0.3202(4) 0.2769(4) 0.0737(3)
C26 C -0.4138(4) 0.4013(4) 0.2417(3)
C27 C -0.4515(5) 0.2500(5) 0.2704(4)
H15 H -0.4607 0.1791 0.2505
C28 C 0.1545(4) 0.3785(4) 0.4466(3)
C29 C -0.1913(4) -0.0308(4) 0.3061(3)
C30 C 0.0243(5) 0.2442(4) 0.7603(4)
H16 H 0.0085 0.1730 0.7374
C31 C 0.1315(5) 0.2147(4) 0.3478(4)
H17 H 0.1039 0.1444 0.3330
C32 C -0.3899(4) 0.4521(4) 0.1759(3)
C33 C 0.0685(4) 0.3991(4) 0.7380(3)
C34 C 0.1301(5) 0.6068(4) 0.6395(4)
H18 H 0.1368 0.6772 0.6547
C35 C -0.3394(4) 0.3685(4) -0.0543(3)
C36 C -0.3006(5) 0.4069(5) -0.1197(4)
H19 H -0.2874 0.4770 -0.1095
C37 C -0.3414(5) 0.2048(4) -0.1465(3)
H20 H -0.3554 0.1348 -0.1564
C38 C -0.5627(4) 0.1845(4) 0.5265(3)
C39 C -0.6922(4) 0.1904(4) 0.5338(3)
C40 C -0.0377(4) 0.1894(4) 0.0294(3)
C41 C 0.2078(5) 0.4188(4) 0.3870(4)
H21 H 0.2332 0.4892 0.4016
C42 C 0.0370(6) 0.3959(5) 0.8821(4)
H22 H 0.0331 0.4295 0.9417
C43 C 0.0063(4) 0.1091(4) -0.0221(4)
H23 H -0.0430 0.0475 -0.0592
C44 C -0.3860(4) 0.1280(4) 0.4846(4)
H24 H -0.3398 0.0825 0.4541
C45 C -0.2681(4) -0.1227(4) 0.2629(4)
H25 H -0.2670 -0.1809 0.2780
C46 C 0.1355(5) 0.1304(4) -0.0124(4)
H26 H 0.1806 0.0832 -0.0418
C47 C -0.5158(4) 0.1069(4) 0.4743(4)
H27 H -0.5643 0.0459 0.4356
C48 C -0.3494(4) -0.1199(4) 0.1927(4)
H28 H -0.4058 -0.1772 0.1552
Lu1_2 Lu -0.93406(2) 0.20645(2) 0.54456(2)
Lu1A Lu -0.06594(2) -0.20645(2) 0.45544(2)
Lu2_2 Lu 0.59147(2) 0.20448(2) 0.05377(2)
Lu2A Lu -0.59147(2) -0.20448(2) -0.05377(2)
O2_2 O 0.2815(3) 0.2648(3) 0.5942(2)
O6A O 0.0656(3) 0.0821(3) 0.5994(2)
O8A O -0.5065(3) 0.0686(2) -0.0634(2)
O9_2 O -0.6031(3) 0.2190(3) 0.0473(2)
O10_2 O 0.2255(3) 0.1216(3) 0.4791(2)
O13 O 0.7878(7) 0.0244(6) 0.6954(6)
O14 O -0.2938(5) -0.0565(5) -0.1557(4)
loop_
_geom_bond_atom_site_label_1
_geom_bond_atom_site_label_2
_geom_bond_site_symmetry_1
_geom_bond_site_symmetry_2
Lu1 O1 1_555 1_555
Lu2 O3 1_555 1_555
S1 C18 1_555 1_555
S2 C15 1_555 1_555
S3 C1 1_555 1_555
O1 C19 1_555 1_555
O2 C39 1_555 1_555
O3 C23 1_555 1_555
C1 C13 1_555 1_555
O4 Lu2 1_555 1_555
C2 N2 1_555 1_555
O5 C25 1_555 1_555
O6 C19 1_555 1_555
N1 Lu1 1_555 1_555
O7 Lu2 1_555 1_555
C3 H1 1_555 1_555
C4 H2 1_555 1_555
N2 Lu1 1_555 1_555
C5 H3 1_555 1_555
O8 C13 1_555 1_555
C6 H4 1_555 1_555
N3 Lu2 1_555 1_555
O9 C25 1_555 1_555
N4 Lu2 1_555 1_555
C7 H5 1_555 1_555
C8 C3 1_555 1_555
H6 C8 1_555 1_555
O10 C39 1_555 1_555
C9 C5 1_555 1_555
H7 C9 1_555 1_555
N5 Lu1 1_555 1_555
N6 Lu2 1_555 1_555
O11 C24 1_555 1_555
C10 H8 1_555 1_555
C11 C2 1_555 1_555
H9 C11 1_555 1_555
O12 Lu1 1_555 1_555
C12 H10 1_555 1_555
C13 O7 1_555 1_555
C14 H11 1_555 1_555
C15 C25 1_555 1_555
C16 C4 1_555 1_555
H12 C16 1_555 1_555
C17 H13 1_555 1_555
C18 C24 1_555 1_555
C19 C29 1_555 1_555
C20 N2 1_555 1_555
C21 N4 1_555 1_555
C22 C10 1_555 1_555
H14 C22 1_555 1_555
C23 O4 1_555 1_555
C24 O12 1_555 1_555
C26 C4 1_555 1_555
C27 C6 1_555 1_555
H15 C27 1_555 1_555
C28 C2 1_555 1_555
C29 S3 1_555 1_555
C30 N1 1_555 1_555
H16 C30 1_555 1_555
C31 C5 1_555 1_555
H17 C31 1_555 1_555
C32 N4 1_555 1_555
C33 N1 1_555 1_555
C34 C11 1_555 1_555
H18 C34 1_555 1_555
C35 N6 1_555 1_555
C36 C8 1_555 1_555
H19 C36 1_555 1_555
C37 C3 1_555 1_555
H20 C37 1_555 1_555
C38 S1 1_555 1_555
C39 C38 1_555 1_555
C40 S2 1_555 1_555
C41 C9 1_555 1_555
H21 C41 1_555 1_555
C42 C7 1_555 1_555
H22 C42 1_555 1_555
C43 C40 1_555 1_555
H23 C43 1_555 1_555
C44 C18 1_555 1_555
H24 C44 1_555 1_555
C45 C29 1_555 1_555
H25 C45 1_555 1_555
C46 C15 1_555 1_555
H26 C46 1_555 1_555
C47 C38 1_555 1_555
H27 C47 1_555 1_555
C48 C1 1_555 1_555
H28 C48 1_555 1_555
Lu1_2 O2 1_555 1_555
Lu1A O6 1_555 1_555
Lu2_2 O9 1_555 1_555
Lu2A O8 1_555 1_555
O2_2 Lu1 1_555 1_555
O6A Lu1 1_555 1_555
O8A Lu2 1_555 1_555
O9_2 Lu2 1_555 1_555
O10_2 Lu1 1_555 1_555
C6 C16 1_555 1_555
N3 C26 1_555 1_555
N3 C27 1_555 1_555
C7 C33 1_555 1_555
O10 Lu1_2 1_555 1_555
N5 C28 1_555 1_555
N5 C31 1_555 1_555
N6 C37 1_555 1_555
C10 C32 1_555 1_555
C12 C21 1_555 1_555
C12 C22 1_555 1_555
C14 C30 1_555 1_555
C14 C42 1_555 1_555
C17 C20 1_555 1_555
C17 C34 1_555 1_555
C20 C33 1_555 1_555
C21 C35 1_555 1_555
C23 C40 1_555 1_555
C26 C32 1_555 1_555
C28 C41 1_555 1_555
C35 C36 1_555 1_555
C43 C46 1_555 1_555
C44 C47 1_555 1_555
C45 C48 1_555 1_555

#END
