
#######################################################################
#
#                 Cambridge Crystallographic Data Centre
#                                CCDC 
#
#######################################################################
#
# If this CIF has been generated from an entry in the Cambridge 
# Structural Database, then it will include bibliographic, chemical, 
# crystal, experimental, refinement or atomic coordinate data resulting 
# from the CCDC's data processing and validation procedures.
#
#######################################################################

data_JUJMUY
_symmetry_cell_setting           rhombohedral
_symmetry_space_group_name_H-M   'R -3 c'
_symmetry_Int_Tables_number      167
_space_group_name_Hall           '-R 3 2"c'
loop_
_symmetry_equiv_pos_site_id
_symmetry_equiv_pos_as_xyz
1 x,y,z
2 -y,x-y,z
3 -x+y,-x,z
4 y,x,1/2-z
5 x-y,-y,1/2-z
6 -x,-x+y,1/2-z
7 2/3+x,1/3+y,1/3+z
8 2/3-y,1/3+x-y,1/3+z
9 2/3-x+y,1/3-x,1/3+z
10 2/3+y,1/3+x,5/6-z
11 2/3+x-y,1/3-y,5/6-z
12 2/3-x,1/3-x+y,5/6-z
13 1/3+x,2/3+y,2/3+z
14 1/3-y,2/3+x-y,2/3+z
15 1/3-x+y,2/3-x,2/3+z
16 1/3+y,2/3+x,1/6-z
17 1/3+x-y,2/3-y,1/6-z
18 1/3-x,2/3-x+y,1/6-z
19 -x,-y,-z
20 y,-x+y,-z
21 x-y,x,-z
22 -y,-x,1/2+z
23 -x+y,y,1/2+z
24 x,x-y,1/2+z
25 1/3-x,2/3-y,2/3-z
26 1/3+y,2/3-x+y,2/3-z
27 1/3+x-y,2/3+x,2/3-z
28 1/3-y,2/3-x,1/6+z
29 1/3-x+y,2/3+y,1/6+z
30 1/3+x,2/3+x-y,1/6+z
31 2/3-x,1/3-y,1/3-z
32 2/3+y,1/3-x+y,1/3-z
33 2/3+x-y,1/3+x,1/3-z
34 2/3-y,1/3-x,5/6+z
35 2/3-x+y,1/3+y,5/6+z
36 2/3+x,1/3+x-y,5/6+z
_cell_length_a                   18.653(3)
_cell_length_b                   18.653(3)
_cell_length_c                   65.066(13)
_cell_angle_alpha                90
_cell_angle_beta                 90
_cell_angle_gamma                120
_cell_volume                     19605.7
loop_
_atom_site_label
_atom_site_type_symbol
_atom_site_fract_x
_atom_site_fract_y
_atom_site_fract_z
Zn1 Zn 0.3333 0.6667 0.221467(6)
Zn2 Zn 0.359613(14) 0.584346(13) 0.260999(3)
N1 N 0.44921(12) 0.34215(13) 0.16590(3)
O1 O 0.3333 0.6667 0.25120(4)
O2 O 0.38177(11) 0.60353(11) 0.21113(3)
O3 O 0.39276(10) 0.53742(10) 0.23881(2)
O4 O 0.11436(10) 0.14577(10) 0.11469(2)
O5 O 0.17474(9) 0.07053(9) 0.10678(2)
C1 C 0.39688(13) 0.55177(13) 0.21969(3)
C2 C 0.41899(13) 0.50201(13) 0.20592(3)
C3 C 0.42992(14) 0.43887(14) 0.21389(3)
H1 H 0.4294 0.4312 0.2283
C4 C 0.44161(13) 0.38704(14) 0.20068(3)
H2 H 0.4482 0.3434 0.2061
C5 C 0.44362(13) 0.39874(14) 0.17961(3)
C6 C 0.43818(16) 0.46555(15) 0.17165(4)
H3 H 0.4432 0.4758 0.1573
C7 C 0.42543(14) 0.51671(14) 0.18477(4)
H4 H 0.4211 0.5617 0.1794
C8 C 0.51629(16) 0.32450(18) 0.16905(4)
H5 H 0.4936 0.2681 0.1743
H6 H 0.5559 0.3640 0.1790
H7 H 0.5444 0.3296 0.1559
C9 C 0.17376(13) 0.13101(13) 0.11566(3)
C10 C 0.24618(13) 0.18732(13) 0.12830(3)
C11 C 0.24432(14) 0.24733(14) 0.14058(3)
H8 H 0.1968 0.2536 0.1404
C12 C 0.31016(14) 0.29789(15) 0.15304(4)
H9 H 0.3067 0.3374 0.1616
C13 C 0.38252(14) 0.29195(14) 0.15337(3)
C14 C 0.38463(14) 0.23218(15) 0.14069(4)
H10 H 0.4327 0.2269 0.1405
C15 C 0.31781(13) 0.18093(13) 0.12851(4)
H11 H 0.3205 0.1406 0.1201
Zn2A Zn 0.415654(13) 0.775267(19) 0.260999(3)
N1A N 0.65785(13) 1.10706(18) 0.16590(3)
O2A O 0.39647(11) 0.77824(16) 0.21113(3)
O3A O 0.46258(10) 0.85534(14) 0.23881(2)
O4A O 0.85423(10) 0.96859(14) 0.11469(2)
O5A O 0.92947(9) 1.10421(13) 0.10678(2)
C1A C 0.44823(13) 0.84511(18) 0.21969(3)
C2A C 0.49799(13) 0.91698(18) 0.20592(3)
C3A C 0.56113(14) 0.99105(20) 0.21389(3)
H1A H 0.5688 0.9982 0.2283
C4A C 0.61296(14) 1.05457(19) 0.20068(3)
H2A H 0.6566 1.1048 0.2061
C5A C 0.60126(14) 1.04488(19) 0.17961(3)
C6A C 0.53445(15) 0.97263(22) 0.17165(4)
H3A H 0.5242 0.9674 0.1573
C7A C 0.48329(14) 0.90872(20) 0.18477(4)
H4A H 0.4383 0.8594 0.1794
C8A C 0.67550(18) 1.19179(24) 0.16905(4)
H5A H 0.7319 1.2255 0.1743
H6A H 0.6360 1.1919 0.1790
H7A H 0.6704 1.2148 0.1559
C9A C 0.86899(13) 1.04275(18) 0.11566(3)
C10A C 0.81268(13) 1.05886(18) 0.12830(3)
C11A C 0.75267(14) 0.99699(20) 0.14058(3)
H8A H 0.7464 0.9432 0.1404
C12A C 0.70211(15) 1.01227(21) 0.15304(4)
H9A H 0.6626 0.9693 0.1616
C13A C 0.70805(14) 1.09057(20) 0.15337(3)
C14A C 0.76782(15) 1.15245(21) 0.14069(4)
H10A H 0.7731 1.2058 0.1405
C15A C 0.81907(13) 1.13688(18) 0.12851(4)
H11A H 0.8594 1.1799 0.1201
Zn2B Zn 0.224733(19) 0.640387(14) 0.260999(3)
N1B N -0.10706(18) 0.55079(12) 0.16590(3)
O2B O 0.22176(16) 0.61823(11) 0.21113(3)
O3B O 0.14466(14) 0.60724(10) 0.23881(2)
O4B O 0.03141(14) 0.88564(10) 0.11469(2)
O5B O -0.10421(13) 0.82526(9) 0.10678(2)
C1B C 0.15489(18) 0.60312(13) 0.21969(3)
C2B C 0.08302(18) 0.58101(13) 0.20592(3)
C3B C 0.00895(20) 0.57008(14) 0.21389(3)
H1B H 0.0018 0.5706 0.2283
C4B C -0.05457(19) 0.55839(13) 0.20068(3)
H2B H -0.1048 0.5518 0.2061
C5B C -0.04488(19) 0.55638(13) 0.17961(3)
C6B C 0.02737(22) 0.56182(16) 0.17165(4)
H3B H 0.0326 0.5568 0.1573
C7B C 0.09128(20) 0.57457(14) 0.18477(4)
H4B H 0.1406 0.5789 0.1794
C8B C -0.19179(24) 0.48371(16) 0.16905(4)
H5B H -0.2255 0.5064 0.1743
H6B H -0.1919 0.4441 0.1790
H7B H -0.2148 0.4556 0.1559
C9B C -0.04275(18) 0.82624(13) 0.11566(3)
C10B C -0.05886(18) 0.75382(13) 0.12830(3)
C11B C 0.00301(20) 0.75568(14) 0.14058(3)
H8B H 0.0568 0.8032 0.1404
C12B C -0.01227(21) 0.68984(14) 0.15304(4)
H9B H 0.0307 0.6933 0.1616
C13B C -0.09057(20) 0.61748(14) 0.15337(3)
C14B C -0.15245(21) 0.61537(14) 0.14069(4)
H10B H -0.2058 0.5673 0.1405
C15B C -0.13688(18) 0.68219(13) 0.12851(4)
H11B H -0.1799 0.6795 0.1201
Zn2GA Zn 0.082321(13) -0.026280(14) 0.094332(3)
Zn2GA_2 Zn 0.082321(13) 0.973720(14) 0.094332(3)
Zn2HA Zn -0.108600(19) 0.917679(13) 0.094332(3)
Zn2HA_2 Zn 0.891400(19) 0.917679(13) 0.094332(3)
Zn2IA Zn 0.026280(14) 0.108600(19) 0.094332(3)
Zn2IA_2 Zn 1.026280(14) 1.108600(19) 0.094332(3)
O4AA O 0.18756(10) 0.55231(10) 0.28136(2)
O4BA O 0.36474(14) 0.81244(10) 0.28136(2)
O4CA O 0.44769(10) 0.63526(14) 0.28136(2)
O5AA O 0.26280(9) 0.49193(9) 0.27345(2)
O5BA O 0.22912(13) 0.73720(9) 0.27345(2)
O5CA O 0.50807(9) 0.77088(13) 0.27345(2)
C16 C 0.4851(11) 0.0972(10) 0.1314(2)
H12 H 0.4489 0.1189 0.1353
H13 H 0.5254 0.1084 0.1423
H14 H 0.4518 0.0374 0.1291
C17 C 0.5325(19) 0.141(3) 0.1109(3)
H15 H 0.5680 0.2009 0.1134
H16 H 0.5686 0.1183 0.1068
C18 C 0.4710(13) 0.1264(14) 0.0935(2)
H17 H 0.4201 0.1210 0.0997
H18 H 0.4557 0.0729 0.0869
C19 C 0.501(3) 0.194(2) 0.0763(4)
H19 H 0.4878 0.2376 0.0803
H20 H 0.5612 0.2200 0.0744
C20 C 0.4544(13) 0.1507(12) 0.05609(18)
H21 H 0.4566 0.0998 0.0531
H22 H 0.3963 0.1386 0.0560
C21 C 0.509(2) 0.2211(17) 0.0421(6)
H23 H 0.4960 0.2655 0.0435
H24 H 0.5002 0.2015 0.0278
H25 H 0.5673 0.2421 0.0458
C16O C 0.4305(10) 0.1518(11) 0.0353(2)
H12O H 0.4522 0.1156 0.0314
H13O H 0.4417 0.1921 0.0244
H14O H 0.3707 0.1185 0.0376
C17O C 0.474(3) 0.1992(19) 0.0558(3)
H15O H 0.5342 0.2347 0.0533
H16O H 0.4516 0.2353 0.0599
C18O C 0.4597(14) 0.1377(13) 0.0732(2)
H17O H 0.4543 0.0868 0.0670
H18O H 0.4062 0.1224 0.0798
C19O C 0.527(2) 0.168(3) 0.0904(4)
H19O H 0.5709 0.1545 0.0864
H20O H 0.5533 0.2279 0.0923
C20O C 0.4840(12) 0.1211(13) 0.11058(18)
H21O H 0.4331 0.1233 0.1136
H22O H 0.4719 0.0630 0.1107
C21O C 0.5544(17) 0.176(2) 0.1246(6)
H23O H 0.5988 0.1627 0.1232
H24O H 0.5348 0.1669 0.1389
H25O H 0.5754 0.2340 0.1209
C22 C 0.2636(8) 0.1606(8) 0.05458(19)
H26 H 0.3184 0.1795 0.0486
H27 H 0.2217 0.1388 0.0437
H28 H 0.2514 0.1169 0.0647
C23 C 0.2627(6) 0.2307(10) 0.06484(19)
H29 H 0.2167 0.2080 0.0749
H30 H 0.2502 0.2614 0.0544
C24 C 0.3403(6) 0.2912(7) 0.07585(18)
H31 H 0.3855 0.3178 0.0656
H32 H 0.3556 0.2601 0.0855
C25 C 0.3352(8) 0.3602(7) 0.08800(17)
H33 H 0.3164 0.3886 0.0784
H34 H 0.2919 0.3332 0.0986
C26 C 0.4118(7) 0.4243(7) 0.0982(2)
H35 H 0.4561 0.4498 0.0878
H36 H 0.4292 0.3966 0.1084
C27 C 0.4056(16) 0.4936(18) 0.1092(4)
H37 H 0.3657 0.5042 0.1020
H38 H 0.4600 0.5440 0.1092
H39 H 0.3870 0.4769 0.1234
C22P C 0.4363(11) 0.5061(8) 0.11209(19)
H26P H 0.4722 0.4872 0.1181
H27P H 0.4162 0.5279 0.1230
H28P H 0.4678 0.5498 0.1020
C23P C 0.3653(12) 0.4360(10) 0.10183(19)
H29P H 0.3420 0.4587 0.0918
H30P H 0.3221 0.4053 0.1123
C24P C 0.3824(9) 0.3755(7) 0.09082(18)
H31P H 0.4010 0.3489 0.1011
H32P H 0.4288 0.4066 0.0812
C25P C 0.3083(11) 0.3065(7) 0.07867(17)
H33P H 0.2611 0.2781 0.0883
H34P H 0.2920 0.3335 0.0681
C26P C 0.3208(10) 0.2424(7) 0.0685(2)
H35P H 0.3396 0.2169 0.0789
H36P H 0.3659 0.2701 0.0583
C27P C 0.2453(24) 0.1731(18) 0.0575(4)
H37P H 0.1948 0.1625 0.0647
H38P H 0.2493 0.1227 0.0575
H39P H 0.2434 0.1898 0.0433
loop_
_geom_bond_atom_site_label_1
_geom_bond_atom_site_label_2
_geom_bond_site_symmetry_1
_geom_bond_site_symmetry_2
Zn1 O1 1_555 1_555
Zn2 O1 1_555 1_555
N1 C5 1_555 1_555
O1 Zn2A 1_555 1_555
O2 Zn1 1_555 1_555
O3 Zn2 1_555 1_555
O4 C9 1_555 1_555
O5 C9 1_555 1_555
C1 O2 1_555 1_555
C2 C1 1_555 1_555
C3 C2 1_555 1_555
H1 C3 1_555 1_555
C4 C3 1_555 1_555
H2 C4 1_555 1_555
C5 C4 1_555 1_555
C6 C5 1_555 1_555
H3 C6 1_555 1_555
C7 C2 1_555 1_555
H4 C7 1_555 1_555
C8 N1 1_555 1_555
H5 C8 1_555 1_555
H6 C8 1_555 1_555
H7 C8 1_555 1_555
C9 C10 1_555 1_555
C10 C11 1_555 1_555
C11 H8 1_555 1_555
C12 C11 1_555 1_555
H9 C12 1_555 1_555
C13 N1 1_555 1_555
C14 C13 1_555 1_555
H10 C14 1_555 1_555
C15 C10 1_555 1_555
H11 C15 1_555 1_555
C16 H12 1_555 1_555
H13 C16 1_555 1_555
H14 C16 1_555 1_555
C17 C16 1_555 1_555
H15 C17 1_555 1_555
H16 C17 1_555 1_555
C18 C17 1_555 1_555
H17 C18 1_555 1_555
H18 C18 1_555 1_555
C19 C18 1_555 1_555
H19 C19 1_555 1_555
H20 C19 1_555 1_555
C20 C19 1_555 1_555
H21 C20 1_555 1_555
H22 C20 1_555 1_555
C21 C20 1_555 1_555
H23 C21 1_555 1_555
H24 C21 1_555 1_555
H25 C21 1_555 1_555
C22 H26 1_555 1_555
H27 C22 1_555 1_555
H28 C22 1_555 1_555
C23 C22 1_555 1_555
H29 C23 1_555 1_555
H30 C23 1_555 1_555
C24 C23 1_555 1_555
H31 C24 1_555 1_555
H32 C24 1_555 1_555
C25 C24 1_555 1_555
H33 C25 1_555 1_555
H34 C25 1_555 1_555
C26 C25 1_555 1_555
H35 C26 1_555 1_555
H36 C26 1_555 1_555
C27 C26 1_555 1_555
H37 C27 1_555 1_555
H38 C27 1_555 1_555
H39 C27 1_555 1_555
Zn2A O3A 1_555 1_555
N1A C5A 1_555 1_555
O2A Zn1 1_555 1_555
O3A C1A 1_555 1_555
O4A C9A 1_555 1_555
O5A C9A 1_555 1_555
C1A O2A 1_555 1_555
C2A C1A 1_555 1_555
C3A C2A 1_555 1_555
H1A C3A 1_555 1_555
C4A C3A 1_555 1_555
H2A C4A 1_555 1_555
C5A C4A 1_555 1_555
C6A C5A 1_555 1_555
H3A C6A 1_555 1_555
C7A C2A 1_555 1_555
H4A C7A 1_555 1_555
C8A N1A 1_555 1_555
H5A C8A 1_555 1_555
H6A C8A 1_555 1_555
H7A C8A 1_555 1_555
C9A C10A 1_555 1_555
C10A C11A 1_555 1_555
C11A H8A 1_555 1_555
C12A C11A 1_555 1_555
H9A C12A 1_555 1_555
C13A N1A 1_555 1_555
C14A C13A 1_555 1_555
H10A C14A 1_555 1_555
C15A C10A 1_555 1_555
H11A C15A 1_555 1_555
Zn2B O1 1_555 1_555
N1B C5B 1_555 1_555
O2B Zn1 1_555 1_555
O3B Zn2B 1_555 1_555
O4B C9B 1_555 1_555
O5B C9B 1_555 1_555
C1B O2B 1_555 1_555
C2B C1B 1_555 1_555
C3B C2B 1_555 1_555
H1B C3B 1_555 1_555
C4B C3B 1_555 1_555
H2B C4B 1_555 1_555
C5B C4B 1_555 1_555
C6B C5B 1_555 1_555
H3B C6B 1_555 1_555
C7B C2B 1_555 1_555
H4B C7B 1_555 1_555
C8B N1B 1_555 1_555
H5B C8B 1_555 1_555
H6B C8B 1_555 1_555
H7B C8B 1_555 1_555
C9B C10B 1_555 1_555
C10B C11B 1_555 1_555
C11B H8B 1_555 1_555
C12B C11B 1_555 1_555
H9B C12B 1_555 1_555
C13B N1B 1_555 1_555
C14B C13B 1_555 1_555
H10B C14B 1_555 1_555
C15B C10B 1_555 1_555
H11B C15B 1_555 1_555
Zn2GA O5 1_555 1_555
Zn2GA_2 O4B 1_555 1_555
Zn2HA O5B 1_555 1_555
Zn2HA_2 O4A 1_555 1_555
Zn2IA O4 1_555 1_555
Zn2IA_2 O5A 1_555 1_555
O4AA Zn2B 1_555 1_555
O4BA Zn2A 1_555 1_555
O4CA Zn2 1_555 1_555
O5AA Zn2 1_555 1_555
O5BA Zn2B 1_555 1_555
O5CA Zn2A 1_555 1_555
C16O H12O 1_555 1_555
H13O C16O 1_555 1_555
H14O C16O 1_555 1_555
C17O C16O 1_555 1_555
H15O C17O 1_555 1_555
H16O C17O 1_555 1_555
C18O C17O 1_555 1_555
H17O C18O 1_555 1_555
H18O C18O 1_555 1_555
C19O C18O 1_555 1_555
H19O C19O 1_555 1_555
H20O C19O 1_555 1_555
C20O C19O 1_555 1_555
H21O C20O 1_555 1_555
H22O C20O 1_555 1_555
C21O C20O 1_555 1_555
H23O C21O 1_555 1_555
H24O C21O 1_555 1_555
H25O C21O 1_555 1_555
C22P H26P 1_555 1_555
H27P C22P 1_555 1_555
H28P C22P 1_555 1_555
C23P C22P 1_555 1_555
H29P C23P 1_555 1_555
H30P C23P 1_555 1_555
C24P C23P 1_555 1_555
H31P C24P 1_555 1_555
H32P C24P 1_555 1_555
C25P C24P 1_555 1_555
H33P C25P 1_555 1_555
H34P C25P 1_555 1_555
C26P C25P 1_555 1_555
H35P C26P 1_555 1_555
H36P C26P 1_555 1_555
C27P C26P 1_555 1_555
H37P C27P 1_555 1_555
H38P C27P 1_555 1_555
H39P C27P 1_555 1_555
O3 C1 1_555 1_555
C6 C7 1_555 1_555
C12 C13 1_555 1_555
C14 C15 1_555 1_555
C6A C7A 1_555 1_555
C12A C13A 1_555 1_555
C14A C15A 1_555 1_555
O3B C1B 1_555 1_555
C6B C7B 1_555 1_555
C12B C13B 1_555 1_555
C14B C15B 1_555 1_555

#END
