
#######################################################################
#
#                 Cambridge Crystallographic Data Centre
#                                CCDC 
#
#######################################################################
#
# If this CIF has been generated from an entry in the Cambridge 
# Structural Database, then it will include bibliographic, chemical, 
# crystal, experimental, refinement or atomic coordinate data resulting 
# from the CCDC's data processing and validation procedures.
#
#######################################################################

data_JUJPEJ
_symmetry_cell_setting           triclinic
_symmetry_space_group_name_H-M   'P -1'
_symmetry_Int_Tables_number      2
_space_group_name_Hall           '-P 1'
loop_
_symmetry_equiv_pos_site_id
_symmetry_equiv_pos_as_xyz
1 x,y,z
2 -x,-y,-z
_cell_length_a                   8.693(7)
_cell_length_b                   9.980(14)
_cell_length_c                   9.980(14)
_cell_angle_alpha                79.86(5)
_cell_angle_beta                 118.77(7)
_cell_angle_gamma                74.34(5)
_cell_volume                     681.067
loop_
_atom_site_label
_atom_site_type_symbol
_atom_site_fract_x
_atom_site_fract_y
_atom_site_fract_z
Cu1 Cu 0.0000 0.0000 0.0000
S1 S -0.5083(3) 0.4625(2) -0.3014(2)
S2 S -0.6623(2) 0.2553(2) -0.5066(2)
O1 O -0.6629(6) 0.1892(5) -0.6236(5)
O2 O -0.7624(6) 0.4160(4) -0.5658(5)
N1 N 1.0560(6) 0.0085(5) 0.2671(5)
N2 N -0.4420(6) 0.1951(5) -0.3557(6)
N3 N -0.2146(6) 0.2128(5) -0.1178(6)
N4 N -0.1743(8) 0.3114(5) -0.0369(6)
N5 N -0.1941(6) -0.0898(5) -0.0464(6)
C1 C -0.7722(7) 0.1779(6) -0.4268(6)
C2 C -0.3848(7) 0.2737(6) -0.2600(6)
C3 C -0.3143(15) 0.5708(8) -0.0584(9)
C4 C -0.1918(19) 0.5366(11) 0.1071(11)
C5 C -0.3129(10) 0.4431(7) -0.1165(7)
C6 C -0.7041(7) 0.0229(6) -0.3600(6)
C7 C -0.7962(7) -0.0397(6) -0.3045(6)
C8 C 0.9608(7) -0.0523(5) 0.3193(6)
C9 C 1.0233(7) -0.2066(6) 0.3819(6)
C10 C -0.9305(7) 0.2692(6) -0.4354(6)
H1 H 1.023(8) 0.106(7) 0.267(7)
H2 H 1.163(8) -0.045(7) 0.304(7)
H3 H -0.149(9) -0.198(7) -0.020(8)
H4 H -0.290(9) -0.060(7) -0.149(8)
H5 H -0.240(9) -0.075(7) 0.009(8)
H6 H -0.458 0.631 -0.091
H7 H -0.278 0.643 -0.121
H8 H -0.205 0.637 0.135
H9 H -0.046 0.478 0.143
H10 H -0.226 0.466 0.173
H11 H -0.613(8) -0.041(7) -0.372(8)
H12 H -0.761(8) -0.153(7) -0.271(8)
H13 H 1.145(9) -0.273(7) 0.392(8)
H14 H -0.983(9) 0.378(7) -0.478(8)
Cu1_2 Cu 1.0000 0.0000 0.0000
N1A N -0.0560(6) -0.0085(5) -0.2671(5)
C7A C 0.7962(7) 0.0397(6) 0.3045(6)
C6A C 0.7041(7) -0.0229(6) 0.3600(6)
C1A C 0.7722(7) -0.1779(6) 0.4268(6)
S2A S 0.6623(2) -0.2553(2) 0.5066(2)
O1A O 0.6629(6) -0.1892(5) 0.6236(5)
O2A O 0.7624(6) -0.4160(4) 0.5658(5)
N2A N 0.4420(6) -0.1951(5) 0.3557(6)
C2A C 0.3848(7) -0.2737(6) 0.2600(6)
S1A S 0.5083(3) -0.4625(2) 0.3014(2)
C5A C 0.3129(10) -0.4431(7) 0.1165(7)
N4A N 0.1743(8) -0.3114(5) 0.0369(6)
N3A N 0.2146(6) -0.2128(5) 0.1178(6)
N1_2 N 0.0560(6) 0.0085(5) 0.2671(5)
N5A N 0.1941(6) 0.0898(5) 0.0464(6)
H3A H 0.149(9) 0.198(7) 0.020(8)
H4A H 0.290(9) 0.060(7) 0.149(8)
H5A H 0.240(9) 0.075(7) -0.009(8)
C3A C 0.3143(15) -0.5708(8) 0.0584(9)
C4A C 0.1918(19) -0.5366(11) -0.1071(11)
H8A H 0.205 -0.637 -0.135
H9A H 0.046 -0.478 -0.143
H10A H 0.226 -0.466 -0.173
H6A H 0.458 -0.631 0.091
H7A H 0.278 -0.643 0.121
C10A C 0.9305(7) -0.2692(6) 0.4354(6)
H14A H 0.983(9) -0.378(7) 0.478(8)
H11A H 0.613(8) 0.041(7) 0.372(8)
H12A H 0.761(8) 0.153(7) 0.271(8)
H1A H -0.023(8) -0.106(7) -0.267(7)
H2A H -0.163(8) 0.045(7) -0.304(7)
C8A C -0.9608(7) 0.0523(5) -0.3193(6)
C9A C -1.0233(7) 0.2066(6) -0.3819(6)
H13A H -1.145(9) 0.273(7) -0.392(8)
N1A_2 N -1.0560(6) -0.0085(5) -0.2671(5)
H1_2 H 0.023(8) 0.106(7) 0.267(7)
H2_2 H 0.163(8) -0.045(7) 0.304(7)
Cu1_3 Cu -1.0000 0.0000 0.0000
H1A_2 H -1.023(8) -0.106(7) -0.267(7)
H2A_2 H -1.163(8) 0.045(7) -0.304(7)
loop_
_geom_bond_atom_site_label_1
_geom_bond_atom_site_label_2
_geom_bond_site_symmetry_1
_geom_bond_site_symmetry_2
Cu1 N3 1_555 1_555
S1 C2 1_555 1_555
S2 O1 1_555 1_555
O2 S2 1_555 1_555
N1 C8 1_555 1_555
N2 S2 1_555 1_555
N3 N4 1_555 1_555
N4 C5 1_555 1_555
N5 Cu1 1_555 1_555
C1 S2 1_555 1_555
C2 N2 1_555 1_555
C3 C4 1_555 1_555
C4 H8 1_555 1_555
C5 S1 1_555 1_555
C6 C1 1_555 1_555
C7 C6 1_555 1_555
C8 C9 1_555 1_555
C9 H13 1_555 1_555
C10 C1 1_555 1_555
H1 N1 1_555 1_555
H2 N1 1_555 1_555
H3 N5 1_555 1_555
H4 N5 1_555 1_555
H5 N5 1_555 1_555
H6 C3 1_555 1_555
H7 C3 1_555 1_555
H9 C4 1_555 1_555
H10 C4 1_555 1_555
H11 C6 1_555 1_555
H12 C7 1_555 1_555
H14 C10 1_555 1_555
Cu1_2 N1 1_555 1_555
N1A Cu1 1_555 1_555
C7A C8 1_555 1_555
C6A C7A 1_555 1_555
C1A C6A 1_555 1_555
S2A C1A 1_555 1_555
O1A S2A 1_555 1_555
O2A S2A 1_555 1_555
N2A S2A 1_555 1_555
C2A N2A 1_555 1_555
S1A C2A 1_555 1_555
C5A S1A 1_555 1_555
N4A C5A 1_555 1_555
N3A Cu1 1_555 1_555
N1_2 Cu1 1_555 1_555
N5A Cu1 1_555 1_555
H3A N5A 1_555 1_555
H4A N5A 1_555 1_555
H5A N5A 1_555 1_555
C3A C5A 1_555 1_555
C4A C3A 1_555 1_555
H8A C4A 1_555 1_555
H9A C4A 1_555 1_555
H10A C4A 1_555 1_555
H6A C3A 1_555 1_555
H7A C3A 1_555 1_555
C10A C9 1_555 1_555
H14A C10A 1_555 1_555
H11A C6A 1_555 1_555
H12A C7A 1_555 1_555
H1A N1A 1_555 1_555
H2A N1A 1_555 1_555
C8A C7 1_555 1_555
C9A C10 1_555 1_555
H13A C9A 1_555 1_555
N1A_2 C8A 1_555 1_555
H1_2 N1_2 1_555 1_555
H2_2 N1_2 1_555 1_555
Cu1_3 N1A_2 1_555 1_555
H1A_2 N1A_2 1_555 1_555
H2A_2 N1A_2 1_555 1_555
N3 C2 1_555 1_555
C3 C5 1_555 1_555
C1A C10A 1_555 1_555
C2A N3A 1_555 1_555
N4A N3A 1_555 1_555
C8A C9A 1_555 1_555

#END
