
#######################################################################
#
#                 Cambridge Crystallographic Data Centre
#                                CCDC 
#
#######################################################################
#
# If this CIF has been generated from an entry in the Cambridge 
# Structural Database, then it will include bibliographic, chemical, 
# crystal, experimental, refinement or atomic coordinate data resulting 
# from the CCDC's data processing and validation procedures.
#
#######################################################################

data_JUJSUE
_symmetry_cell_setting           monoclinic
_symmetry_space_group_name_H-M   'C 2/c'
_symmetry_Int_Tables_number      15
_space_group_name_Hall           '-C 2yn'
loop_
_symmetry_equiv_pos_site_id
_symmetry_equiv_pos_as_xyz
1 x,y,z
2 -x,y,1/2-z
3 1/2+x,1/2+y,z
4 1/2-x,1/2+y,1/2-z
5 -x,-y,-z
6 x,-y,1/2+z
7 1/2-x,1/2-y,-z
8 1/2+x,1/2-y,1/2+z
_cell_length_a                   12.595(4)
_cell_length_b                   11.220(4)
_cell_length_c                   19.450(7)
_cell_angle_alpha                90
_cell_angle_beta                 102.049(13)
_cell_angle_gamma                90
_cell_volume                     2688.04
loop_
_atom_site_label
_atom_site_type_symbol
_atom_site_fract_x
_atom_site_fract_y
_atom_site_fract_z
Ag1 Ag 0.5000 0.5000 0.5000
O1 O 0.1049(2) 0.3461(4) 0.45613(16)
N1 N 0.1039(2) 0.3985(3) 0.56804(15)
H1 H 0.0638 0.3999 0.5988
N2 N 0.3870(3) 0.4910(3) 0.57016(18)
C1 C -0.2294(2) 0.2827(3) 0.53098(17)
C2 C -0.0566(2) 0.3057(3) 0.49621(17)
C3 C 0.2101(2) 0.4457(3) 0.58948(18)
C4 C 0.2870(3) 0.4444(3) 0.54781(19)
H2 H 0.2691 0.4105 0.5032
C5 C -0.1210(3) 0.3261(3) 0.54336(18)
H3 H -0.0936 0.3690 0.5841
C6 C 0.0585(2) 0.3513(3) 0.50459(18)
C7 C -0.0978(3) 0.2404(3) 0.43425(19)
H4 H -0.0538 0.2264 0.4022
C8 C -0.2024(3) 0.1974(4) 0.42083(19)
H5 H -0.2284 0.1548 0.3797
C9 C 0.4121(3) 0.5412(4) 0.6335(2)
H6 H 0.4803 0.5754 0.6483
C10 C 0.2378(4) 0.4950(4) 0.6555(3)
H7 H 0.1884 0.4955 0.6850
C11 C 0.3402(4) 0.5440(5) 0.6776(3)
H8 H 0.3601 0.5785 0.7219
O1F O -0.6049(2) 0.1539(4) 0.54387(16)
N1F N -0.6039(2) 0.1015(3) 0.43196(15)
H1F H -0.5638 0.1001 0.4012
N2F N -0.8870(3) 0.0090(3) 0.42984(18)
C1F C -0.2706(2) 0.2173(3) 0.46902(17)
C2F C -0.4434(2) 0.1943(3) 0.50379(17)
C3F C -0.7101(2) 0.0543(3) 0.41052(18)
C4F C -0.7870(3) 0.0556(3) 0.45219(19)
H2F H -0.7691 0.0895 0.4968
C5F C -0.3790(3) 0.1739(3) 0.45664(18)
H3F H -0.4064 0.1310 0.4159
C6F C -0.5585(2) 0.1487(3) 0.49541(18)
C7F C -0.4022(3) 0.2596(3) 0.56575(19)
H4F H -0.4462 0.2736 0.5978
C8F C -0.2976(3) 0.3026(4) 0.57917(19)
H5F H -0.2716 0.3452 0.6203
C9F C -0.9121(3) -0.0412(4) 0.3665(2)
H6F H -0.9803 -0.0754 0.3517
C10F C -0.7378(4) 0.0050(4) 0.3445(3)
H7F H -0.6884 0.0045 0.3150
C11F C -0.8402(4) -0.0440(5) 0.3224(3)
H8F H -0.8601 -0.0785 0.2781
Ag1B Ag -1.0000 0.0000 0.5000
N2D N 0.6130(3) 0.5090(3) 0.42984(18)
F1 F -0.0032(4) 0.4468(5) 0.69412(19)
B1 B 0.0000 0.3715(7) 0.7500
F2 F -0.1168(8) 0.3521(11) 0.7276(6)
F1A F 0.0032(4) 0.4468(5) 0.80588(19)
F2A F 0.1168(8) 0.3521(11) 0.7724(6)
N3 N 0.6661(4) 0.6051(5) 0.6198(3)
C12 C 0.7432(5) 0.6430(5) 0.6532(3)
C13 C 0.8412(5) 0.6916(6) 0.6951(3)
H9 H 0.8981 0.6333 0.7001
H10 H 0.8290 0.7125 0.7407
H11 H 0.8619 0.7614 0.6726
F3? F 0.0439(8) 0.2860(11) 0.7221(6)
loop_
_geom_bond_atom_site_label_1
_geom_bond_atom_site_label_2
_geom_bond_site_symmetry_1
_geom_bond_site_symmetry_2
Ag1 N2 1_555 1_555
O1 C6 1_555 1_555
N1 H1 1_555 1_555
N2 C4 1_555 1_555
C1 C5 1_555 1_555
C2 C5 1_555 1_555
C3 N1 1_555 1_555
C4 C3 1_555 1_555
H2 C4 1_555 1_555
C5 H3 1_555 1_555
C6 N1 1_555 1_555
C7 C2 1_555 1_555
H4 C7 1_555 1_555
C8 C7 1_555 1_555
H5 C8 1_555 1_555
C9 N2 1_555 1_555
H6 C9 1_555 1_555
C10 C3 1_555 1_555
H7 C10 1_555 1_555
C11 C9 1_555 1_555
H8 C11 1_555 1_555
F1 B1 1_555 1_555
B1 F2 1_555 1_555
N3 C12 1_555 1_555
C12 C13 1_555 1_555
C13 H9 1_555 1_555
H10 C13 1_555 1_555
H11 C13 1_555 1_555
O1F C6F 1_555 1_555
N1F H1F 1_555 1_555
N2F C4F 1_555 1_555
C1F C1 1_555 1_555
C2F C5F 1_555 1_555
C3F N1F 1_555 1_555
C4F C3F 1_555 1_555
H2F C4F 1_555 1_555
C5F C1F 1_555 1_555
H3F C5F 1_555 1_555
C6F N1F 1_555 1_555
C7F C2F 1_555 1_555
H4F C7F 1_555 1_555
C8F C1 1_555 1_555
H5F C8F 1_555 1_555
C9F N2F 1_555 1_555
H6F C9F 1_555 1_555
C10F C3F 1_555 1_555
H7F C10F 1_555 1_555
C11F C9F 1_555 1_555
H8F C11F 1_555 1_555
Ag1B N2F 1_555 1_555
N2D Ag1 1_555 1_555
F1A B1 1_555 1_555
F2A B1 1_555 1_555
C2 C6 1_555 1_555
C8 C1F 1_555 1_555
C10 C11 1_555 1_555
C2F C6F 1_555 1_555
C7F C8F 1_555 1_555
C10F C11F 1_555 1_555

#END
