
#######################################################################
#
#                 Cambridge Crystallographic Data Centre
#                                CCDC 
#
#######################################################################
#
# If this CIF has been generated from an entry in the Cambridge 
# Structural Database, then it will include bibliographic, chemical, 
# crystal, experimental, refinement or atomic coordinate data resulting 
# from the CCDC's data processing and validation procedures.
#
#######################################################################

data_JUJTUF
_symmetry_cell_setting           monoclinic
_symmetry_space_group_name_H-M   'P 21/n'
_symmetry_Int_Tables_number      14
_space_group_name_Hall           '-P 2yn'
loop_
_symmetry_equiv_pos_site_id
_symmetry_equiv_pos_as_xyz
1 x,y,z
2 1/2-x,1/2+y,1/2-z
3 -x,-y,-z
4 1/2+x,1/2-y,1/2+z
_cell_length_a                   14.0183(7)
_cell_length_b                   7.0259(4)
_cell_length_c                   19.4666(10)
_cell_angle_alpha                90
_cell_angle_beta                 104.8720(10)
_cell_angle_gamma                90
_cell_volume                     1853.06
loop_
_atom_site_label
_atom_site_type_symbol
_atom_site_fract_x
_atom_site_fract_y
_atom_site_fract_z
Cd1 Cd 0.80206(2) 0.51983(2) 0.29759(2)
C1 C 1.07634(15) 1.2899(3) 0.03766(11)
H1 H 1.1337 1.2272 0.0333
C2 C 1.02646(15) 1.2216(3) 0.08456(11)
C3 C 0.94118(15) 1.3171(3) 0.09296(11)
H2 H 0.9075 1.2709 0.1255
C4 C 0.90782(16) 1.4757(3) 0.05395(12)
H3 H 0.8514 1.5384 0.0602
C5 C 0.95682(15) 1.5477(3) 0.00413(11)
C6 C 1.06779(16) 1.0478(3) 0.12682(12)
C7 C 1.01594(14) 0.7762(3) 0.19031(10)
C8 C 1.10501(15) 0.6807(3) 0.21402(12)
H4 H 1.1619 0.7216 0.2012
C9 C 1.10746(17) 0.5232(3) 0.25719(14)
H5 H 1.1667 0.4553 0.2737
C10 C 1.02392(16) 0.4651(3) 0.27613(11)
H6 H 1.0269 0.3567 0.3049
C11 C 0.93493(14) 0.7097(3) 0.21186(10)
H7 H 0.8745 0.7739 0.1956
C12 C 0.79528(15) 0.5293(2) 0.43451(10)
C13 C 0.79572(18) 0.5408(3) 0.51276(11)
H8 H 0.7273 0.5369 0.5165
H9 H 0.8295 0.4282 0.5372
C14 C 0.84514(15) 0.7173(3) 0.55089(10)
C15 C 0.79148(17) 0.8431(4) 0.58113(12)
H10 H 0.7251 0.8168 0.5791
C16 C 1.16056(14) 0.9683(2) 0.66675(10)
C17 C 1.09530(18) 0.9668(3) 0.59235(11)
H11 H 1.0987 1.0915 0.5706
H12 H 1.1201 0.8718 0.5644
C18 C 0.98857(15) 0.9220(3) 0.58936(10)
C19 C 0.94474(14) 0.7563(3) 0.55655(9)
H13 H 0.9826 0.6695 0.5379
C20 C 0.9324(2) 1.0477(3) 0.61794(13)
H14 H 0.9610 1.1606 0.6398
C21 C 0.8352(2) 1.0077(4) 0.61443(16)
H15 H 0.7981 1.0923 0.6347
O1 O 1.15508(12) 1.0082(2) 0.14081(12)
O2 O 0.87435(10) 0.5507(2) 0.41728(7)
O3 O 0.71552(11) 0.4953(2) 0.38848(8)
O4 O 1.17936(13) 0.8183(2) 0.70183(8)
O5 O 1.19919(12) 1.1192(2) 0.69438(8)
N1 N 0.99893(12) 0.9385(2) 0.14676(9)
H16 H 0.9377 0.9734 0.1307
N2 N 0.93810(12) 0.5598(2) 0.25439(8)
C1B C 0.92366(15) 1.7101(3) -0.03766(11)
H1B H 0.8663 1.7728 -0.0333
C2B C 0.97354(15) 1.7784(3) -0.08456(11)
C3B C 1.05882(15) 1.6829(3) -0.09296(11)
H2B H 1.0925 1.7291 -0.1255
C4B C 1.09218(16) 1.5243(3) -0.05395(12)
H3B H 1.1486 1.4616 -0.0602
C5B C 1.04318(15) 1.4523(3) -0.00413(11)
C6B C 0.93221(16) 1.9522(3) -0.12682(12)
C7B C 0.98406(14) 2.2238(3) -0.19031(10)
C8B C 0.89499(15) 2.3193(3) -0.21402(12)
H4B H 0.8381 2.2784 -0.2012
C9B C 0.89254(17) 2.4768(3) -0.25719(14)
H5B H 0.8333 2.5447 -0.2737
C10B C 0.97608(16) 2.5349(3) -0.27613(11)
H6B H 0.9731 2.6433 -0.3049
C11B C 1.06507(14) 2.2903(3) -0.21186(10)
H7B H 1.1255 2.2261 -0.1956
O1B O 0.84492(12) 1.9918(2) -0.14081(12)
N1B N 1.00107(12) 2.0615(2) -0.14676(9)
H16B H 1.0623 2.0266 -0.1307
N2B N 1.06190(12) 2.4402(2) -0.25439(8)
Cd1B Cd 1.19794(2) 0.48017(2) 0.70241(2)
C12B C 1.20472(15) 0.4707(2) 0.56549(10)
C13B C 1.20428(18) 0.4592(3) 0.48724(11)
H8B H 1.2727 0.4631 0.4835
H9B H 1.1705 0.5718 0.4628
C14B C 1.15486(15) 0.2827(3) 0.44911(10)
C15B C 1.20852(17) 0.1569(4) 0.41887(12)
H10B H 1.2749 0.1832 0.4209
C16B C 0.83944(14) 0.0317(2) 0.33325(10)
C17B C 0.90470(18) 0.0332(3) 0.40765(11)
H11B H 0.9013 -0.0915 0.4294
H12B H 0.8799 0.1282 0.4356
C18B C 1.01143(15) 0.0780(3) 0.41064(10)
C19B C 1.05526(14) 0.2437(3) 0.44345(9)
H13B H 1.0174 0.3305 0.4621
C20B C 1.0676(2) -0.0477(3) 0.38206(13)
H14B H 1.0390 -0.1606 0.3602
C21B C 1.1648(2) -0.0077(4) 0.38557(16)
H15B H 1.2019 -0.0923 0.3653
O2B O 1.12565(10) 0.4493(2) 0.58272(7)
O3B O 1.28448(11) 0.5047(2) 0.61152(8)
O4B O 0.82064(13) 0.1817(2) 0.29817(8)
O5B O 0.80081(12) -0.1192(2) 0.30562(8)
Cd1_2 Cd 0.80206(2) -0.48017(2) 0.29759(2)
Cd1A Cd 0.69794(2) 0.01983(2) 0.20241(2)
Cd1B_2 Cd 1.19794(2) 1.48017(2) 0.70241(2)
Cd1B_3 Cd 1.19794(2) 2.48017(2) -0.29759(2)
Cd1C Cd 1.30206(2) 0.98017(2) 0.79759(2)
O4A O 1.32064(13) 0.3183(2) 0.79817(8)
O4C O 0.67936(13) 0.6817(2) 0.20183(8)
O5_2 O 1.19919(12) 0.1192(2) 0.69438(8)
O5A O 1.30081(12) 0.6192(2) 0.80562(8)
O5B_2 O 0.80081(12) 0.8808(2) 0.30562(8)
O5C O 0.69919(12) 0.3808(2) 0.19438(8)
N2B_2 N 1.06190(12) 0.4402(2) 0.74561(8)
loop_
_geom_bond_atom_site_label_1
_geom_bond_atom_site_label_2
_geom_bond_site_symmetry_1
_geom_bond_site_symmetry_2
Cd1 O2 1_555 1_555
C1 H1 1_555 1_555
C2 C1 1_555 1_555
C3 C2 1_555 1_555
H2 C3 1_555 1_555
C4 C3 1_555 1_555
H3 C4 1_555 1_555
C5 C4 1_555 1_555
C6 C2 1_555 1_555
C7 C8 1_555 1_555
C8 H4 1_555 1_555
C9 C8 1_555 1_555
H5 C9 1_555 1_555
C10 C9 1_555 1_555
H6 C10 1_555 1_555
C11 C7 1_555 1_555
H7 C11 1_555 1_555
C12 C13 1_555 1_555
C13 H8 1_555 1_555
H9 C13 1_555 1_555
C14 C13 1_555 1_555
C15 C14 1_555 1_555
H10 C15 1_555 1_555
C16 C17 1_555 1_555
C17 H11 1_555 1_555
H12 C17 1_555 1_555
C18 C17 1_555 1_555
C19 C14 1_555 1_555
H13 C19 1_555 1_555
C20 C18 1_555 1_555
H14 C20 1_555 1_555
C21 C15 1_555 1_555
H15 C21 1_555 1_555
O1 C6 1_555 1_555
O2 C12 1_555 1_555
O3 Cd1 1_555 1_555
O4 C16 1_555 1_555
O5 C16 1_555 1_555
N1 C6 1_555 1_555
H16 N1 1_555 1_555
N2 Cd1 1_555 1_555
C1B C5 1_555 1_555
H1B C1B 1_555 1_555
C2B C1B 1_555 1_555
C3B C2B 1_555 1_555
H2B C3B 1_555 1_555
C4B C3B 1_555 1_555
H3B C4B 1_555 1_555
C5B C1 1_555 1_555
C6B C2B 1_555 1_555
C7B C8B 1_555 1_555
C8B H4B 1_555 1_555
C9B C8B 1_555 1_555
H5B C9B 1_555 1_555
C10B C9B 1_555 1_555
H6B C10B 1_555 1_555
C11B C7B 1_555 1_555
H7B C11B 1_555 1_555
O1B C6B 1_555 1_555
N1B C6B 1_555 1_555
H16B N1B 1_555 1_555
N2B C10B 1_555 1_555
Cd1B O4 1_555 1_555
C12B C13B 1_555 1_555
C13B H8B 1_555 1_555
H9B C13B 1_555 1_555
C14B C13B 1_555 1_555
C15B C14B 1_555 1_555
H10B C15B 1_555 1_555
C16B C17B 1_555 1_555
C17B H11B 1_555 1_555
H12B C17B 1_555 1_555
C18B C17B 1_555 1_555
C19B C14B 1_555 1_555
H13B C19B 1_555 1_555
C20B C18B 1_555 1_555
H14B C20B 1_555 1_555
C21B C15B 1_555 1_555
H15B C21B 1_555 1_555
O2B Cd1B 1_555 1_555
O3B Cd1B 1_555 1_555
O4B Cd1 1_555 1_555
O5B C16B 1_555 1_555
Cd1_2 O5B 1_555 1_555
Cd1A O4B 1_555 1_555
Cd1B_2 O5 1_555 1_555
Cd1B_3 N2B 1_555 1_555
Cd1C O4 1_555 1_555
O4A Cd1B 1_555 1_555
O4C Cd1 1_555 1_555
O5_2 Cd1B 1_555 1_555
O5A Cd1B 1_555 1_555
O5B_2 Cd1 1_555 1_555
O5C Cd1 1_555 1_555
N2B_2 Cd1B 1_555 1_555
C5 C5B 1_555 1_555
C7 N1 1_555 1_555
C10 N2 1_555 1_555
C11 N2 1_555 1_555
C12 O3 1_555 1_555
C18 C19 1_555 1_555
C20 C21 1_555 1_555
O5 Cd1C 1_555 1_555
C4B C5B 1_555 1_555
C7B N1B 1_555 1_555
C11B N2B 1_555 1_555
C12B O2B 1_555 1_555
C12B O3B 1_555 1_555
C16B O4B 1_555 1_555
C18B C19B 1_555 1_555
C20B C21B 1_555 1_555
O5B Cd1A 1_555 1_555
Cd1A O5C 1_555 1_555
Cd1C O5A 1_555 1_555

#END
