
#######################################################################
#
#                 Cambridge Crystallographic Data Centre
#                                CCDC 
#
#######################################################################
#
# If this CIF has been generated from an entry in the Cambridge 
# Structural Database, then it will include bibliographic, chemical, 
# crystal, experimental, refinement or atomic coordinate data resulting 
# from the CCDC's data processing and validation procedures.
#
#######################################################################

data_JUJTOZ
_symmetry_cell_setting           monoclinic
_symmetry_space_group_name_H-M   'P 21/n'
_symmetry_Int_Tables_number      14
_space_group_name_Hall           '-P 2yn'
loop_
_symmetry_equiv_pos_site_id
_symmetry_equiv_pos_as_xyz
1 x,y,z
2 1/2-x,1/2+y,1/2-z
3 -x,-y,-z
4 1/2+x,1/2-y,1/2+z
_cell_length_a                   16.117(5)
_cell_length_b                   8.978(2)
_cell_length_c                   22.390(6)
_cell_angle_alpha                90
_cell_angle_beta                 110.865(10)
_cell_angle_gamma                90
_cell_volume                     3027.34
loop_
_atom_site_label
_atom_site_type_symbol
_atom_site_fract_x
_atom_site_fract_y
_atom_site_fract_z
Co1 Co 0.71760(5) 0.78824(7) 0.29843(3)
C1 C 0.5711(4) -0.1717(6) 0.7157(3)
C2 C 0.4656(4) -0.2821(6) 0.7603(2)
C3 C 0.5184(4) -0.3954(6) 0.7975(3)
H1 H 0.5755 -0.4127 0.7979
C4 C 0.4831(4) -0.4807(6) 0.8336(3)
H2 H 0.5162 -0.5590 0.8577
C5 C 0.4010(4) -0.4528(6) 0.8347(2)
H3 H 0.3796 -0.5124 0.8600
C6 C 0.3825(4) -0.2625(6) 0.7635(2)
H4 H 0.3468 -0.1885 0.7380
C7 C 0.7720(4) 0.4499(6) 0.1040(3)
C8 C 0.6893(4) 0.9826(5) 0.1822(2)
C9 C 0.6377(4) 1.0063(6) 0.1127(2)
H5 H 0.6704 1.0747 0.0957
H6 H 0.5816 1.0529 0.1082
C10 C 0.6193(4) 0.8650(5) 0.0729(2)
C11 C 0.5338(4) 0.8277(6) 0.0329(3)
H7 H 0.4860 0.8867 0.0321
C12 C 0.5197(4) 0.7040(6) -0.0056(3)
H8 H 0.4627 0.6806 -0.0332
C13 C 0.5909(4) 0.6141(6) -0.0032(3)
H9 H 0.5810 0.5310 -0.0296
C14 C 0.6752(4) 0.6452(6) 0.0373(2)
C15 C 0.6888(4) 0.7723(6) 0.0754(2)
H10 H 0.7458 0.7951 0.1030
C16 C 0.7527(4) 0.5423(6) 0.0440(3)
H11 H 0.7382 0.4775 0.0070
H12 H 0.8047 0.6003 0.0466
C17 C 0.5125(4) 0.7715(6) 0.2585(3)
H13 H 0.5132 0.8425 0.2284
C18 C 0.4321(4) 0.7281(7) 0.2609(3)
H14 H 0.3796 0.7677 0.2323
C19 C 0.4299(4) 0.6253(6) 0.3058(3)
H15 H 0.3758 0.5951 0.3079
C20 C 0.5080(4) 0.5674(6) 0.3477(3)
C21 C 0.5869(4) 0.6149(6) 0.3414(3)
H16 H 0.6401 0.5749 0.3687
C22 C 0.5729(4) 0.4077(6) 0.4436(3)
C23 C 0.5509(4) 0.3037(6) 0.4888(3)
C24 C 0.4643(4) 0.2698(6) 0.4860(3)
H17 H 0.4157 0.3141 0.4550
C25 C 0.4516(4) 0.1729(6) 0.5282(3)
H18 H 0.3939 0.1516 0.5256
C26 C 0.5230(4) 0.1034(6) 0.5761(2)
C27 C 0.6097(4) 0.1370(6) 0.5794(3)
C28 C 0.6215(4) 0.2386(6) 0.5349(3)
H19 H 0.6787 0.2617 0.5370
C29 C 0.6814(4) 0.0667(7) 0.6277(3)
H20 H 0.7394 0.0885 0.6312
C30 C 0.6671(4) -0.0312(7) 0.6688(3)
H21 H 0.7153 -0.0778 0.6991
C31 C 0.5807(4) -0.0642(6) 0.6667(2)
C32 C 0.5108(4) 0.0008(6) 0.6209(3)
H22 H 0.4534 -0.0221 0.6186
N1 N 0.4897(3) -0.1885(5) 0.7186(2)
H23 H 0.4478 -0.1363 0.6922
N2 N 0.3491(3) -0.3419(5) 0.8005(2)
N3 N 0.5899(3) 0.7160(5) 0.2976(2)
N4 N 0.5039(3) 0.4633(5) 0.3934(2)
H24 H 0.4519 0.4310 0.3893
O1 O 0.6364(3) -0.2375(5) 0.7512(2)
O2 O 0.8201(3) 0.5022(4) 0.15688(18)
O3 O 0.7348(3) 0.3242(4) 0.10038(18)
O4 O 0.6664(2) 0.8727(4) 0.20878(16)
O5 O 0.7506(2) 1.0710(4) 0.21129(17)
O6 O 0.6493(3) 0.4396(5) 0.4521(2)
Co1A Co 0.78240(5) 0.28824(7) 0.20157(3)
Co1A_2 Co 0.78240(5) 1.28824(7) 0.20157(3)
Co1C Co 0.21760(5) -0.28824(7) 0.79843(3)
N2C N 0.8491(3) 0.8419(5) 0.3005(2)
O2A O 0.6799(3) 1.0022(4) 0.34312(18)
O3A O 0.7652(3) 0.8242(4) 0.39962(18)
O5A O 0.7494(2) 0.5710(4) 0.28871(17)
N5 N 0.3083(4) 0.9587(6) 0.1041(3)
C33 C 0.2975(6) 0.8223(9) 0.0664(4)
H25 H 0.2580 0.7558 0.0768
H26 H 0.3542 0.7752 0.0759
H27 H 0.2732 0.8465 0.0217
C34 C 0.3746(5) 1.0638(9) 0.1025(4)
H28 H 0.3761 1.1457 0.1304
H29 H 0.3604 1.1001 0.0596
H30 H 0.4316 1.0159 0.1163
C35 C 0.2515(5) 0.9896(8) 0.1332(3)
H31 H 0.2593 1.0805 0.1543
O7 O 0.1910(3) 0.9137(5) 0.1353(2)
loop_
_geom_bond_atom_site_label_1
_geom_bond_atom_site_label_2
_geom_bond_site_symmetry_1
_geom_bond_site_symmetry_2
Co1 N3 1_555 1_555
C1 C31 1_555 1_555
C2 C3 1_555 1_555
C3 H1 1_555 1_555
C4 C3 1_555 1_555
H2 C4 1_555 1_555
C5 C4 1_555 1_555
H3 C5 1_555 1_555
C6 C2 1_555 1_555
H4 C6 1_555 1_555
C7 C16 1_555 1_555
C8 C9 1_555 1_555
C9 H5 1_555 1_555
H6 C9 1_555 1_555
C10 C9 1_555 1_555
C11 C10 1_555 1_555
H7 C11 1_555 1_555
C12 C11 1_555 1_555
H8 C12 1_555 1_555
C13 C12 1_555 1_555
H9 C13 1_555 1_555
C14 C13 1_555 1_555
C15 C10 1_555 1_555
H10 C15 1_555 1_555
C16 C14 1_555 1_555
H11 C16 1_555 1_555
H12 C16 1_555 1_555
C17 H13 1_555 1_555
C18 C17 1_555 1_555
H14 C18 1_555 1_555
C19 C18 1_555 1_555
H15 C19 1_555 1_555
C20 C19 1_555 1_555
C21 C20 1_555 1_555
H16 C21 1_555 1_555
C22 C23 1_555 1_555
C23 C24 1_555 1_555
C24 H17 1_555 1_555
C25 C24 1_555 1_555
H18 C25 1_555 1_555
C26 C25 1_555 1_555
C27 C26 1_555 1_555
C28 C23 1_555 1_555
H19 C28 1_555 1_555
C29 C27 1_555 1_555
H20 C29 1_555 1_555
C30 C29 1_555 1_555
H21 C30 1_555 1_555
C31 C30 1_555 1_555
C32 C26 1_555 1_555
H22 C32 1_555 1_555
N1 C1 1_555 1_555
H23 N1 1_555 1_555
N2 C5 1_555 1_555
N3 C17 1_555 1_555
N4 C20 1_555 1_555
H24 N4 1_555 1_555
O1 C1 1_555 1_555
O2 C7 1_555 1_555
O3 C7 1_555 1_555
O4 Co1 1_555 1_555
O5 C8 1_555 1_555
O6 C22 1_555 1_555
N5 C33 1_555 1_555
C33 H25 1_555 1_555
H26 C33 1_555 1_555
H27 C33 1_555 1_555
C34 N5 1_555 1_555
H28 C34 1_555 1_555
H29 C34 1_555 1_555
H30 C34 1_555 1_555
C35 N5 1_555 1_555
H31 C35 1_555 1_555
O7 C35 1_555 1_555
Co1A O2 1_555 1_555
Co1A_2 O5 1_555 1_555
Co1C N2 1_555 1_555
N2C Co1 1_555 1_555
O2A Co1 1_555 1_555
O3A Co1 1_555 1_555
O5A Co1 1_555 1_555
C2 N1 1_555 1_555
C6 N2 1_555 1_555
C8 O4 1_555 1_555
C14 C15 1_555 1_555
C21 N3 1_555 1_555
C22 N4 1_555 1_555
C27 C28 1_555 1_555
C31 C32 1_555 1_555
O3 Co1A 1_555 1_555

#END
