
#######################################################################
#
#                 Cambridge Crystallographic Data Centre
#                                CCDC 
#
#######################################################################
#
# If this CIF has been generated from an entry in the Cambridge 
# Structural Database, then it will include bibliographic, chemical, 
# crystal, experimental, refinement or atomic coordinate data resulting 
# from the CCDC's data processing and validation procedures.
#
#######################################################################

data_JUJVER
_symmetry_cell_setting           triclinic
_symmetry_space_group_name_H-M   'P -1'
_symmetry_Int_Tables_number      2
_space_group_name_Hall           '-P 1'
loop_
_symmetry_equiv_pos_site_id
_symmetry_equiv_pos_as_xyz
1 x,y,z
2 -x,-y,-z
_cell_length_a                   11.394(6)
_cell_length_b                   14.357(9)
_cell_length_c                   14.395(8)
_cell_angle_alpha                101.559(19)
_cell_angle_beta                 112.430(18)
_cell_angle_gamma                101.040(18)
_cell_volume                     2037.01
loop_
_atom_site_label
_atom_site_type_symbol
_atom_site_fract_x
_atom_site_fract_y
_atom_site_fract_z
C1 C -0.0686(7) 0.2778(5) -0.0005(5)
C2 C -0.1237(7) 0.2822(5) 0.0791(5)
C3 C -0.2269(7) 0.2045(6) 0.0645(6)
H1 H -0.2614 0.1487 0.0059
C4 C -0.2806(8) 0.2091(7) 0.1380(6)
H2 H -0.3495 0.1566 0.1295
C5 C -0.2279(7) 0.2939(7) 0.2228(5)
C6 C -0.1253(8) 0.3706(6) 0.2386(6)
H3 H -0.0905 0.4260 0.2978
C7 C -0.0730(7) 0.3661(5) 0.1669(5)
H4 H -0.0036 0.4191 0.1768
C8 C -0.0403(9) 0.3492(6) 0.7205(6)
C9 C -0.0994(7) 0.3420(5) 0.6084(5)
C10 C -0.0474(8) 0.2992(6) 0.5426(5)
H5 H 0.0285 0.2794 0.5706
C11 C -0.1101(7) 0.2865(7) 0.4351(5)
H6 H -0.0761 0.2588 0.3906
C12 C -0.2212(8) 0.3148(7) 0.3959(6)
C13 C -0.2724(8) 0.3570(7) 0.4601(6)
H7 H -0.3480 0.3771 0.4316
C14 C -0.2126(9) 0.3695(7) 0.5653(6)
H8 H -0.2486 0.3968 0.6084
C15 C 0.3137(7) 0.5132(5) -0.0607(6)
H9 H 0.3058 0.4702 -0.1219
C16 C 0.4111(8) 0.6020(6) -0.0162(6)
H10 H 0.4684 0.6187 -0.0461
C17 C 0.4228(8) 0.6672(6) 0.0751(6)
H11 H 0.4874 0.7288 0.1071
C18 C 0.3363(7) 0.6380(5) 0.1167(5)
C19 C 0.2410(7) 0.5472(5) 0.0660(5)
H12 H 0.1819 0.5286 0.0938
C20 C 0.4447(9) 0.7644(6) 0.2878(6)
C21 C 0.4156(10) 0.8209(6) 0.3739(7)
C22 C 0.2968(10) 0.8449(6) 0.3538(7)
H13 H 0.2345 0.8297 0.2843
C23 C 0.2685(9) 0.8902(6) 0.4333(7)
H14 H 0.1883 0.9046 0.4189
C24 C 0.3642(8) 0.9132(6) 0.5346(7)
C25 C 0.3369(10) 0.9612(6) 0.6249(7)
H15 H 0.2557 0.9732 0.6123
C26 C 0.4309(9) 0.9854(6) 0.7213(7)
C27 C 0.5544(11) 0.9675(7) 0.7393(8)
H16 H 0.6198 0.9872 0.8083
C28 C 0.5825(10) 0.9231(8) 0.6609(7)
H17 H 0.6635 0.9102 0.6752
C29 C 0.4863(8) 0.8984(6) 0.5607(7)
C30 C 0.5139(10) 0.8487(7) 0.4734(7)
H18 H 0.5955 0.8372 0.4865
C31 C 0.4169(8) 1.0316(5) 0.8159(6)
C32 C 0.2235(7) 1.1952(5) 0.8666(5)
H19 H 0.1899 1.2018 0.7991
C33 C 0.2959(7) 1.1266(5) 0.8868(5)
C34 C 0.3444(8) 1.1186(6) 0.9886(6)
H20 H 0.3904 1.0729 1.0057
C35 C 0.3232(9) 1.1787(6) 1.0620(6)
H21 H 0.3579 1.1759 1.1309
C36 C 0.2523(8) 1.2426(6) 1.0366(6)
H22 H 0.2390 1.2823 1.0889
N1 N 0.2289(5) 0.4846(4) -0.0211(4)
N2 N 0.3394(6) 0.6985(4) 0.2091(5)
H23 H 0.2654 0.6912 0.2138
N3 N 0.3152(7) 1.0737(4) 0.8039(5)
H24 H 0.2594 1.0670 0.7408
N4 N 0.2009(6) 1.2513(4) 0.9405(4)
O1 O 0.0170(5) 0.3565(4) 0.0133(4)
O2 O -0.1045(6) 0.2027(4) -0.0732(5)
O3 O -0.2941(5) 0.3003(6) 0.2899(4)
O4 O -0.0917(6) 0.3771(4) 0.7788(4)
O5 O 0.0639(7) 0.3225(4) 0.7571(4)
O6 O 0.5570(6) 0.7777(4) 0.2902(4)
O7 O 0.4951(6) 1.0335(5) 0.9013(5)
Zn1 Zn 0.08619(8) 0.34804(6) -0.09105(6)
N4_2 N 0.2009(6) 0.2513(4) -0.0595(4)
O4_2 O -0.0917(6) 0.3771(4) -0.2212(4)
O5_2 O 0.0639(7) 0.3225(4) -0.2429(4)
Zn1_2 Zn 0.08619(8) 0.34804(6) 0.90895(6)
Zn1_3 Zn 0.08619(8) 1.34804(6) 0.90895(6)
C37 C 0.9548(19) 0.9742(15) 0.8535(14)
H25 H 1.0279 0.9648 0.9086
H26 H 0.8765 0.9575 0.8647
H27 H 0.9755 1.0424 0.8542
C38 C 0.881(2) 0.8041(15) 0.7336(13)
H28 H 0.9364 0.7834 0.7900
H29 H 0.8827 0.7713 0.6691
H30 H 0.7918 0.7869 0.7261
C39 C 0.9496(17) 0.9535(19) 0.6904(15)
H31 H 0.9795 1.0224 0.7076
N5 N 0.9325(10) 0.9136(12) 0.7576(10)
O8 O 0.9265(14) 0.9005(15) 0.6016(10)
O9 O -0.4262(16) 0.5483(11) 0.3656(12)
O11 O 0.1496(12) 1.1167(9) 0.6104(7)
O10? O -0.339(4) 0.561(3) 0.311(3)
loop_
_geom_bond_atom_site_label_1
_geom_bond_atom_site_label_2
_geom_bond_site_symmetry_1
_geom_bond_site_symmetry_2
C1 C2 1_555 1_555
C2 C3 1_555 1_555
C3 H1 1_555 1_555
C4 C3 1_555 1_555
H2 C4 1_555 1_555
C5 C4 1_555 1_555
C6 C5 1_555 1_555
H3 C6 1_555 1_555
C7 C2 1_555 1_555
H4 C7 1_555 1_555
C8 C9 1_555 1_555
C9 C10 1_555 1_555
C10 H5 1_555 1_555
C11 C10 1_555 1_555
H6 C11 1_555 1_555
C12 C11 1_555 1_555
C13 C12 1_555 1_555
H7 C13 1_555 1_555
C14 C9 1_555 1_555
H8 C14 1_555 1_555
C15 H9 1_555 1_555
C16 C15 1_555 1_555
H10 C16 1_555 1_555
C17 C16 1_555 1_555
H11 C17 1_555 1_555
C18 C17 1_555 1_555
C19 C18 1_555 1_555
H12 C19 1_555 1_555
C20 C21 1_555 1_555
C21 C22 1_555 1_555
C22 H13 1_555 1_555
C23 C22 1_555 1_555
H14 C23 1_555 1_555
C24 C23 1_555 1_555
C25 C24 1_555 1_555
H15 C25 1_555 1_555
C26 C25 1_555 1_555
C27 C26 1_555 1_555
H16 C27 1_555 1_555
C28 C27 1_555 1_555
H17 C28 1_555 1_555
C29 C24 1_555 1_555
C30 C21 1_555 1_555
H18 C30 1_555 1_555
C31 C26 1_555 1_555
C32 H19 1_555 1_555
C33 C32 1_555 1_555
C34 C33 1_555 1_555
H20 C34 1_555 1_555
C35 C34 1_555 1_555
H21 C35 1_555 1_555
C36 C35 1_555 1_555
H22 C36 1_555 1_555
N1 C15 1_555 1_555
N2 C18 1_555 1_555
H23 N2 1_555 1_555
N3 C31 1_555 1_555
H24 N3 1_555 1_555
N4 C32 1_555 1_555
O1 C1 1_555 1_555
O2 C1 1_555 1_555
O3 C5 1_555 1_555
O4 C8 1_555 1_555
O5 C8 1_555 1_555
O6 C20 1_555 1_555
O7 C31 1_555 1_555
Zn1 N1 1_555 1_555
C37 H25 1_555 1_555
H26 C37 1_555 1_555
H27 C37 1_555 1_555
C38 H28 1_555 1_555
H29 C38 1_555 1_555
H30 C38 1_555 1_555
C39 H31 1_555 1_555
N5 C37 1_555 1_555
O8 C39 1_555 1_555
N4_2 Zn1 1_555 1_555
O4_2 Zn1 1_555 1_555
O5_2 Zn1 1_555 1_555
Zn1_2 O4 1_555 1_555
Zn1_3 N4 1_555 1_555
C6 C7 1_555 1_555
C12 O3 1_555 1_555
C13 C14 1_555 1_555
C19 N1 1_555 1_555
C20 N2 1_555 1_555
C28 C29 1_555 1_555
C29 C30 1_555 1_555
C33 N3 1_555 1_555
C36 N4 1_555 1_555
O1 Zn1 1_555 1_555
O5 Zn1_2 1_555 1_555
C38 N5 1_555 1_555
C39 N5 1_555 1_555

#END
