
#######################################################################
#
#                 Cambridge Crystallographic Data Centre
#                                CCDC 
#
#######################################################################
#
# If this CIF has been generated from an entry in the Cambridge 
# Structural Database, then it will include bibliographic, chemical, 
# crystal, experimental, refinement or atomic coordinate data resulting 
# from the CCDC's data processing and validation procedures.
#
#######################################################################

data_JUJVIV
_symmetry_cell_setting           triclinic
_symmetry_space_group_name_H-M   'P -1'
_symmetry_Int_Tables_number      2
_space_group_name_Hall           '-P 1'
loop_
_symmetry_equiv_pos_site_id
_symmetry_equiv_pos_as_xyz
1 x,y,z
2 -x,-y,-z
_cell_length_a                   11.305(2)
_cell_length_b                   14.497(3)
_cell_length_c                   16.410(3)
_cell_angle_alpha                70.12(3)
_cell_angle_beta                 89.32(4)
_cell_angle_gamma                73.80(3)
_cell_volume                     2418.44
loop_
_atom_site_label
_atom_site_type_symbol
_atom_site_fract_x
_atom_site_fract_y
_atom_site_fract_z
Nd1 Nd 0.05688(2) 0.30800(2) 0.56066(2)
Nd2 Nd 0.54205(2) 0.29966(2) 1.05147(2)
S1 S 0.27831(8) 0.43660(6) 0.77250(6)
S2 S -0.44144(7) 0.20710(7) 0.58753(6)
S3 S 0.04152(8) 0.21101(7) 1.09106(6)
N1 N 0.1144(2) 0.1077(2) 0.59875(18)
C1 C 0.5946(3) 0.0401(3) 1.1804(2)
N2 N 0.6052(2) 0.0984(2) 1.09932(18)
C2 C 0.3937(3) 0.5170(3) 0.8706(2)
O1 O -0.7100(2) 0.23012(18) 0.59101(16)
O2 O -0.7748(2) 0.38411(18) 0.49058(16)
C3 C 0.1078(4) -0.0554(3) 0.6949(3)
H1 H 0.1009 -0.0974 0.7508
N3 N 0.1311(3) 0.2367(2) 0.43623(19)
O3 O -0.1269(2) 0.2653(2) 0.53779(18)
C4 C 0.5541(4) 0.0885(4) 1.3912(3)
H2 H 0.5607 0.0528 1.4508
O4 O 0.3581(2) 0.2580(2) 1.0314(2)
O5 O -0.2884(2) 0.3760(2) 0.97739(18)
C5 C 0.1657(4) 0.6181(3) 0.6763(2)
H3 H 0.1150 0.6743 0.6320
O6 O 0.1286(2) 0.38904(18) 0.65258(16)
C6 C 0.0859(4) 0.0312(3) 0.8340(3)
H4 H 0.1089 -0.0399 0.8509
C7 C 0.6507(3) 0.1187(3) 0.9511(2)
O7 O -0.1405(2) 0.4132(2) 0.60988(17)
C8 C 0.5780(4) 0.0358(3) 1.3343(2)
H5 H 0.6003 -0.0355 1.3546
O8 O -0.1712(2) 0.1235(2) 0.61928(19)
O9 O 0.0411(2) 0.54945(18) 0.56634(15)
O10 O 0.3114(2) 0.1278(2) 1.1288(2)
C9 C 0.1549(3) 0.1369(3) 0.4484(2)
O11 O -0.2259(2) 0.2308(2) 1.08963(18)
O12 O 0.4421(3) 0.4275(2) 0.91882(17)
C10 C 0.1979(4) 0.0991(4) 0.3827(3)
H6 H 0.2146 0.0295 0.3922
N4 N 0.0482(3) 0.1944(2) 0.72062(18)
C11 C 0.6281(4) -0.1067(3) 1.1398(3)
H7 H 0.6335 -0.1755 1.1531
N5 N 0.6168(3) 0.2193(2) 0.93344(19)
C12 C 0.2155(5) 0.1647(4) 0.3043(3)
H8 H 0.2427 0.1402 0.2597
C13 C 0.0601(4) 0.0781(4) 0.8947(3)
H9 H 0.0658 0.0387 0.9534
C14 C 0.6078(4) -0.0643(3) 1.2035(3)
H10 H 0.6030 -0.1042 1.2607
N6 N 0.5379(3) 0.1949(2) 1.21470(18)
C15 C 0.0264(5) 0.1817(4) 0.8691(3)
H11 H 0.0063 0.2144 0.9095
O13 O 0.4128(3) 0.5941(2) 0.87781(18)
C16 C 0.1758(3) 0.5203(2) 0.6855(2)
C17 C 0.6403(4) -0.0491(3) 1.0577(3)
H12 H 0.6546 -0.0778 1.0144
C18 C 0.1102(3) 0.4836(2) 0.63062(19)
C19 C 0.3061(3) 0.5348(2) 0.7962(2)
C20 C 0.1018(3) 0.0467(3) 0.6778(2)
C21 C 0.7193(5) 0.1394(5) 0.8083(3)
H13 H 0.7533 0.1121 0.7667
C22 C -0.3338(3) 0.2674(3) 0.5424(2)
C23 C -0.5600(3) 0.3116(3) 0.5286(2)
C24 C 0.1350(3) 0.0691(3) 0.5341(2)
O14 O 0.3395(3) 0.4135(2) 1.0923(2)
C25 C -0.0756(3) 0.3107(3) 1.0252(2)
C26 C 0.2844(3) 0.2124(3) 1.0707(3)
C27 C -0.2001(3) 0.2126(3) 0.5699(2)
C28 C 0.0224(4) 0.2376(3) 0.7818(3)
H14 H 0.0009 0.3087 0.7645
C29 C 0.1237(5) -0.0931(3) 0.6290(3)
H15 H 0.1248 -0.1605 0.6391
C30 C 0.7032(5) 0.0761(4) 0.8904(3)
H16 H 0.7276 0.0053 0.9046
C31 C 0.0770(3) 0.0921(3) 0.7467(2)
C32 C 0.2393(4) 0.6271(3) 0.7402(3)
H17 H 0.2417 0.6894 0.7434
C33 C 0.1501(3) 0.2667(3) 1.0423(3)
C34 C 0.5682(3) 0.0913(3) 1.2458(2)
C35 C 0.5208(5) 0.1929(4) 1.3605(3)
H18 H 0.5036 0.2294 1.3982
C36 C 0.6309(3) 0.0544(3) 1.0388(3)
C37 C -0.6893(3) 0.3083(3) 0.5376(2)
C38 C 0.1382(4) -0.0319(3) 0.5480(3)
H19 H 0.1501 -0.0572 0.5025
C39 C -0.0324(4) 0.3847(3) 0.9684(3)
H20 H -0.0825 0.4449 0.9278
C40 C 0.5134(4) 0.2426(3) 1.2725(3)
H21 H 0.4899 0.3139 1.2516
C41 C -0.5178(3) 0.3888(3) 0.4769(3)
H22 H -0.5691 0.4514 0.4404
C42 C -0.3882(3) 0.3635(3) 0.4848(3)
H23 H -0.3442 0.4077 0.4540
C43 C 0.1494(4) 0.2985(3) 0.3595(3)
H24 H 0.1319 0.3681 0.3504
C44 C 0.1931(5) 0.2648(4) 0.2920(3)
H25 H 0.2066 0.3104 0.2396
C45 C -0.2042(3) 0.3057(3) 1.0313(3)
C46 C 0.0974(4) 0.3587(3) 0.9788(3)
H26 H 0.1427 0.4003 0.9455
C47 C 0.6326(5) 0.2783(4) 0.8550(3)
H27 H 0.6077 0.3489 0.8418
C48 C 0.6842(5) 0.2407(4) 0.7912(3)
H28 H 0.6942 0.2854 0.7372
Nd1_2 Nd -0.94312(2) 0.30800(2) 0.56066(2)
Nd1A Nd -0.05688(2) 0.69200(2) 0.43934(2)
Nd2_2 Nd -0.45795(2) 0.29966(2) 1.05147(2)
Nd2A Nd 0.45795(2) 0.70034(2) 0.94853(2)
O1_2 O 0.2900(2) 0.23012(18) 0.59101(16)
O2_2 O 0.2252(2) 0.38411(18) 0.49058(16)
O5_2 O 0.7116(2) 0.3760(2) 0.97739(18)
O9A O -0.0411(2) 0.45055(18) 0.43366(15)
O11_2 O 0.7741(2) 0.2308(2) 1.08963(18)
O13A O 0.5872(3) 0.4059(2) 1.12219(18)
loop_
_geom_bond_atom_site_label_1
_geom_bond_atom_site_label_2
_geom_bond_site_symmetry_1
_geom_bond_site_symmetry_2
Nd1 N1 1_555 1_555
Nd2 N2 1_555 1_555
S1 C16 1_555 1_555
S2 C22 1_555 1_555
S3 C25 1_555 1_555
N1 C20 1_555 1_555
C1 N2 1_555 1_555
N2 C36 1_555 1_555
C2 O12 1_555 1_555
O1 C37 1_555 1_555
O2 C37 1_555 1_555
C3 H1 1_555 1_555
N3 Nd1 1_555 1_555
O3 Nd1 1_555 1_555
C4 H2 1_555 1_555
O4 Nd2 1_555 1_555
O5 C45 1_555 1_555
C5 H3 1_555 1_555
O6 Nd1 1_555 1_555
C6 H4 1_555 1_555
C7 N5 1_555 1_555
O7 Nd1 1_555 1_555
C8 C4 1_555 1_555
H5 C8 1_555 1_555
O8 C27 1_555 1_555
O9 C18 1_555 1_555
O10 C26 1_555 1_555
C9 N3 1_555 1_555
O11 C45 1_555 1_555
O12 Nd2 1_555 1_555
C10 C9 1_555 1_555
H6 C10 1_555 1_555
N4 Nd1 1_555 1_555
C11 H7 1_555 1_555
N5 Nd2 1_555 1_555
C12 C10 1_555 1_555
H8 C12 1_555 1_555
C13 C6 1_555 1_555
H9 C13 1_555 1_555
C14 C1 1_555 1_555
H10 C14 1_555 1_555
N6 Nd2 1_555 1_555
C15 C13 1_555 1_555
H11 C15 1_555 1_555
O13 C2 1_555 1_555
C16 C5 1_555 1_555
C17 C11 1_555 1_555
H12 C17 1_555 1_555
C18 O6 1_555 1_555
C19 S1 1_555 1_555
C20 C3 1_555 1_555
C21 H13 1_555 1_555
C22 C27 1_555 1_555
C23 S2 1_555 1_555
C24 N1 1_555 1_555
O14 Nd2 1_555 1_555
C25 C39 1_555 1_555
C26 O4 1_555 1_555
C27 O3 1_555 1_555
C28 N4 1_555 1_555
H14 C28 1_555 1_555
C29 C3 1_555 1_555
H15 C29 1_555 1_555
C30 C7 1_555 1_555
H16 C30 1_555 1_555
C31 C6 1_555 1_555
C32 C5 1_555 1_555
H17 C32 1_555 1_555
C33 S3 1_555 1_555
C34 C1 1_555 1_555
C35 C4 1_555 1_555
H18 C35 1_555 1_555
C36 C7 1_555 1_555
C37 C23 1_555 1_555
C38 C24 1_555 1_555
H19 C38 1_555 1_555
C39 H20 1_555 1_555
C40 N6 1_555 1_555
H21 C40 1_555 1_555
C41 C23 1_555 1_555
H22 C41 1_555 1_555
C42 C22 1_555 1_555
H23 C42 1_555 1_555
C43 N3 1_555 1_555
H24 C43 1_555 1_555
C44 C12 1_555 1_555
H25 C44 1_555 1_555
C45 C25 1_555 1_555
C46 C33 1_555 1_555
H26 C46 1_555 1_555
C47 N5 1_555 1_555
H27 C47 1_555 1_555
C48 C21 1_555 1_555
H28 C48 1_555 1_555
Nd1_2 O1 1_555 1_555
Nd1A O9 1_555 1_555
Nd2_2 O5 1_555 1_555
Nd2A O13 1_555 1_555
O1_2 Nd1 1_555 1_555
O2_2 Nd1 1_555 1_555
O5_2 Nd2 1_555 1_555
O9A Nd1 1_555 1_555
O11_2 Nd2 1_555 1_555
O13A Nd2 1_555 1_555
C2 C19 1_555 1_555
O2 Nd1_2 1_555 1_555
C8 C34 1_555 1_555
C9 C24 1_555 1_555
O11 Nd2_2 1_555 1_555
N4 C31 1_555 1_555
C11 C14 1_555 1_555
N6 C34 1_555 1_555
C15 C28 1_555 1_555
C16 C18 1_555 1_555
C17 C36 1_555 1_555
C19 C32 1_555 1_555
C20 C31 1_555 1_555
C21 C30 1_555 1_555
C26 C33 1_555 1_555
C29 C38 1_555 1_555
C35 C40 1_555 1_555
C39 C46 1_555 1_555
C41 C42 1_555 1_555
C43 C44 1_555 1_555
C47 C48 1_555 1_555

#END
