
#######################################################################
#
#                 Cambridge Crystallographic Data Centre
#                                CCDC 
#
#######################################################################
#
# If this CIF has been generated from an entry in the Cambridge 
# Structural Database, then it will include bibliographic, chemical, 
# crystal, experimental, refinement or atomic coordinate data resulting 
# from the CCDC's data processing and validation procedures.
#
#######################################################################

data_JUJVOB
_symmetry_cell_setting           triclinic
_symmetry_space_group_name_H-M   'P -1'
_symmetry_Int_Tables_number      2
_space_group_name_Hall           '-P 1'
loop_
_symmetry_equiv_pos_site_id
_symmetry_equiv_pos_as_xyz
1 x,y,z
2 -x,-y,-z
_cell_length_a                   11.2941(3)
_cell_length_b                   14.5181(4)
_cell_length_c                   16.4145(4)
_cell_angle_alpha                70.151(4)
_cell_angle_beta                 89.570(5)
_cell_angle_gamma                74.061(5)
_cell_volume                     2423.28
loop_
_atom_site_label
_atom_site_type_symbol
_atom_site_fract_x
_atom_site_fract_y
_atom_site_fract_z
Sm1 Sm 0.05837(2) 0.30657(2) 0.06071(2)
O1 O 0.2249(2) 0.38359(17) -0.00905(15)
O2 O 0.28899(19) 0.23029(17) 0.09235(15)
O3 O -0.0390(2) 0.44749(17) -0.06505(14)
N1 N 0.1147(2) 0.10865(19) 0.09881(17)
N2 N 0.0481(3) 0.1966(2) 0.21993(17)
N3 N 0.1306(3) 0.2377(2) -0.06357(18)
O4 O -0.1375(2) 0.41168(18) 0.10862(16)
O5 O 0.1265(2) 0.39146(17) 0.14972(14)
O6 O -0.1246(2) 0.26488(18) 0.03772(17)
C1 C -0.1091(3) 0.5147(2) -0.12903(19)
C2 C 0.1025(3) 0.0476(2) 0.1789(2)
C3 C 0.1354(3) 0.0694(2) 0.0346(2)
C4 C 0.0769(3) 0.0939(2) 0.2467(2)
C5 C 0.0219(4) 0.2412(3) 0.2805(2)
C6 C 0.1548(3) 0.1376(3) -0.0517(2)
C7 C 0.1495(4) 0.3000(3) -0.1403(2)
C8 C -0.1982(3) 0.2123(3) 0.0695(2)
C9 C -0.1750(3) 0.4789(2) -0.18529(19)
C10 C 0.1086(4) -0.0551(3) 0.1965(3)
C11 C 0.1386(4) -0.0320(3) 0.0489(3)
C12 C 0.0844(3) 0.0343(3) 0.3340(2)
H1 H 0.0008 0.3122 0.2627
C13 C 0.0249(4) 0.1860(3) 0.3677(3)
C14 C 0.1963(4) 0.0990(3) -0.1161(3)
H2 H 0.1337 0.3691 -0.1489
C15 C 0.1913(4) 0.2668(4) -0.2080(3)
O7 O -0.1699(2) 0.12244(18) 0.11898(17)
C16 C -0.3326(3) 0.2669(3) 0.0428(2)
S1 S -0.27729(8) 0.56337(6) -0.27242(5)
C17 C -0.1656(4) 0.3815(3) -0.1766(2)
H3 H 0.1018 -0.0968 0.2526
C18 C 0.1246(4) -0.0931(3) 0.1305(3)
H4 H 0.1500 -0.0574 0.0036
H5 H 0.1059 -0.0366 0.3513
C19 C 0.0594(4) 0.0817(3) 0.3949(3)
H6 H 0.0039 0.2193 0.4075
H7 H 0.2121 0.0296 -0.1063
C20 C 0.2143(4) 0.1658(4) -0.1962(3)
H8 H 0.2036 0.3127 -0.2605
S2 S -0.44077(7) 0.20643(6) 0.08813(6)
C21 C -0.3879(3) 0.3637(3) -0.0149(3)
C22 C -0.3065(3) 0.4657(2) -0.2970(2)
C23 C -0.2400(4) 0.3734(3) -0.2402(2)
H9 H -0.1148 0.3252 -0.1327
H10 H 0.1261 -0.1605 0.1409
H11 H 0.0660 0.0429 0.4537
H12 H 0.2415 0.1417 -0.2408
C24 C -0.5600(3) 0.3109(2) 0.0292(2)
C25 C -0.5177(3) 0.3881(3) -0.0224(2)
H13 H -0.3443 0.4082 -0.0456
C26 C -0.3938(3) 0.4833(2) -0.37172(19)
H14 H -0.2434 0.3114 -0.2432
C27 C -0.6893(3) 0.3079(2) 0.0381(2)
H15 H -0.5691 0.4506 -0.0589
O8 O -0.4148(3) 0.40623(19) -0.37863(16)
O9 O -0.4404(2) 0.57239(18) -0.42112(16)
Sm2 Sm -0.45823(2) 0.29969(2) -0.44819(2)
O10 O -0.2282(2) 0.23177(18) -0.40942(16)
O11 O -0.2901(2) 0.37710(18) -0.52151(16)
N4 N -0.4629(3) 0.1966(2) -0.28599(18)
N5 N -0.3839(3) 0.2233(2) -0.56712(18)
N6 N -0.3950(2) 0.10077(19) -0.40102(17)
O12 O -0.6601(2) 0.4118(2) -0.40671(18)
O13 O -0.6410(2) 0.2580(2) -0.46851(18)
C28 C -0.4328(3) 0.0935(3) -0.2546(2)
C29 C -0.4872(4) 0.2458(3) -0.2290(2)
C30 C -0.3499(3) 0.1214(3) -0.5498(2)
C31 C -0.3672(4) 0.2834(3) -0.6460(3)
C32 C -0.4064(3) 0.0421(2) -0.3199(2)
C33 C -0.3689(3) 0.0569(3) -0.4622(2)
C34 C -0.7151(3) 0.2117(3) -0.4295(2)
C35 C -0.4241(3) 0.0386(3) -0.1662(2)
H16 H -0.5092 0.3169 -0.2501
C36 C -0.4810(4) 0.1952(4) -0.1403(3)
C37 C -0.2982(4) 0.0798(3) -0.6108(3)
H17 H -0.3906 0.3538 -0.6586
C38 C -0.3171(4) 0.2464(4) -0.7093(3)
C39 C -0.3929(4) -0.0624(3) -0.2969(3)
C40 C -0.3597(4) -0.0465(3) -0.4428(3)
O14 O -0.6887(2) 0.1262(2) -0.37186(17)
C41 C -0.8500(3) 0.2670(3) -0.4576(2)
H18 H -0.4029 -0.0324 -0.1460
C42 C -0.4472(4) 0.0903(3) -0.1090(3)
H19 H -0.4994 0.2316 -0.1026
H20 H -0.2742 0.0093 -0.5974
C43 C -0.2824(5) 0.1446(4) -0.6926(3)
H21 H -0.3072 0.2912 -0.7632
H22 H -0.3981 -0.1018 -0.2397
C44 C -0.3718(4) -0.1061(3) -0.3600(3)
H23 H -0.3453 -0.0749 -0.4862
S3 S -0.95891(8) 0.21036(7) -0.40867(6)
C45 C -0.9029(3) 0.3597(3) -0.5206(3)
H24 H -0.4399 0.0545 -0.0494
H25 H -0.2486 0.1182 -0.7347
H26 H -0.3659 -0.1749 -0.3468
C46 C -1.0771(3) 0.3111(3) -0.4738(2)
C47 C -1.0325(3) 0.3851(3) -0.5303(3)
H27 H -0.8578 0.4017 -0.5536
C48 C -1.2057(3) 0.3062(3) -0.4679(2)
H28 H -1.0826 0.4454 -0.5706
O5A O -0.1265(2) 0.60854(17) -0.14972(14)
Sm1A Sm -0.05837(2) 0.69343(2) -0.06071(2)
O1_2 O -0.7751(2) 0.38359(17) -0.00905(15)
O2_2 O -0.71101(19) 0.23029(17) 0.09235(15)
Sm2A Sm -0.54177(2) 0.70031(2) -0.55181(2)
Sm1_2 Sm -0.94163(2) 0.30657(2) 0.06071(2)
O9A O -0.5596(2) 0.42761(18) -0.57888(16)
O11_2 O -1.2901(2) 0.37710(18) -0.52151(16)
O10_2 O -1.2282(2) 0.23177(18) -0.40942(16)
Sm2_2 Sm -1.45823(2) 0.29969(2) -0.44819(2)
loop_
_geom_bond_atom_site_label_1
_geom_bond_atom_site_label_2
_geom_bond_site_symmetry_1
_geom_bond_site_symmetry_2
Sm1 O1 1_555 1_555
O2 Sm1 1_555 1_555
O3 Sm1 1_555 1_555
N1 Sm1 1_555 1_555
N2 Sm1 1_555 1_555
N3 Sm1 1_555 1_555
O4 Sm1 1_555 1_555
O5 Sm1 1_555 1_555
O6 Sm1 1_555 1_555
C1 O3 1_555 1_555
C2 N1 1_555 1_555
C3 N1 1_555 1_555
C4 N2 1_555 1_555
C5 N2 1_555 1_555
C6 N3 1_555 1_555
C7 N3 1_555 1_555
C8 O6 1_555 1_555
C9 C1 1_555 1_555
C10 C2 1_555 1_555
C11 C3 1_555 1_555
C12 C4 1_555 1_555
H1 C5 1_555 1_555
C13 C5 1_555 1_555
C14 C6 1_555 1_555
H2 C7 1_555 1_555
C15 C7 1_555 1_555
O7 C8 1_555 1_555
C16 C8 1_555 1_555
S1 C9 1_555 1_555
C17 C9 1_555 1_555
H3 C10 1_555 1_555
C18 C10 1_555 1_555
H4 C11 1_555 1_555
H5 C12 1_555 1_555
C19 C12 1_555 1_555
H6 C13 1_555 1_555
H7 C14 1_555 1_555
C20 C14 1_555 1_555
H8 C15 1_555 1_555
S2 C16 1_555 1_555
C21 C16 1_555 1_555
C22 S1 1_555 1_555
C23 C17 1_555 1_555
H9 C17 1_555 1_555
H10 C18 1_555 1_555
H11 C19 1_555 1_555
H12 C20 1_555 1_555
C24 S2 1_555 1_555
C25 C21 1_555 1_555
H13 C21 1_555 1_555
C26 C22 1_555 1_555
H14 C23 1_555 1_555
C27 C24 1_555 1_555
H15 C25 1_555 1_555
O8 C26 1_555 1_555
O9 C26 1_555 1_555
Sm2 O8 1_555 1_555
O10 Sm2 1_555 1_555
O11 Sm2 1_555 1_555
N4 Sm2 1_555 1_555
N5 Sm2 1_555 1_555
N6 Sm2 1_555 1_555
O12 Sm2 1_555 1_555
O13 Sm2 1_555 1_555
C28 N4 1_555 1_555
C29 N4 1_555 1_555
C30 N5 1_555 1_555
C31 N5 1_555 1_555
C32 N6 1_555 1_555
C33 N6 1_555 1_555
C34 O13 1_555 1_555
C35 C28 1_555 1_555
H16 C29 1_555 1_555
C36 C29 1_555 1_555
C37 C30 1_555 1_555
H17 C31 1_555 1_555
C38 C31 1_555 1_555
C39 C32 1_555 1_555
C40 C33 1_555 1_555
O14 C34 1_555 1_555
C41 C34 1_555 1_555
H18 C35 1_555 1_555
C42 C35 1_555 1_555
H19 C36 1_555 1_555
H20 C37 1_555 1_555
C43 C37 1_555 1_555
H21 C38 1_555 1_555
H22 C39 1_555 1_555
C44 C39 1_555 1_555
H23 C40 1_555 1_555
S3 C41 1_555 1_555
C45 C41 1_555 1_555
H24 C42 1_555 1_555
H25 C43 1_555 1_555
H26 C44 1_555 1_555
C46 S3 1_555 1_555
C47 C45 1_555 1_555
H27 C45 1_555 1_555
C48 C46 1_555 1_555
H28 C47 1_555 1_555
O5A C1 1_555 1_555
Sm1A O5A 1_555 1_555
O1_2 C27 1_555 1_555
O2_2 C27 1_555 1_555
Sm2A O9 1_555 1_555
Sm1_2 O1_2 1_555 1_555
O9A Sm2 1_555 1_555
O11_2 C48 1_555 1_555
O10_2 C48 1_555 1_555
Sm2_2 O11_2 1_555 1_555
C2 C4 1_555 1_555
C3 C6 1_555 1_555
C11 C18 1_555 1_555
C13 C19 1_555 1_555
C15 C20 1_555 1_555
C22 C23 1_555 1_555
C24 C25 1_555 1_555
C28 C32 1_555 1_555
C30 C33 1_555 1_555
C36 C42 1_555 1_555
C38 C43 1_555 1_555
C40 C44 1_555 1_555
C46 C47 1_555 1_555
O2_2 Sm1_2 1_555 1_555
O10_2 Sm2_2 1_555 1_555

#END
