
#######################################################################
#
#                 Cambridge Crystallographic Data Centre
#                                CCDC 
#
#######################################################################
#
# If this CIF has been generated from an entry in the Cambridge 
# Structural Database, then it will include bibliographic, chemical, 
# crystal, experimental, refinement or atomic coordinate data resulting 
# from the CCDC's data processing and validation procedures.
#
#######################################################################

data_JUJVUH
_symmetry_cell_setting           triclinic
_symmetry_space_group_name_H-M   'P -1'
_symmetry_Int_Tables_number      2
_space_group_name_Hall           '-P 1'
loop_
_symmetry_equiv_pos_site_id
_symmetry_equiv_pos_as_xyz
1 x,y,z
2 -x,-y,-z
_cell_length_a                   9.990(6)
_cell_length_b                   14.334(7)
_cell_length_c                   18.575(7)
_cell_angle_alpha                110.283(6)
_cell_angle_beta                 99.536(5)
_cell_angle_gamma                99.030(5)
_cell_volume                     2393.48
loop_
_atom_site_label
_atom_site_type_symbol
_atom_site_fract_x
_atom_site_fract_y
_atom_site_fract_z
Eu1 Eu 0.53750(2) 0.70831(2) 0.05787(2)
Eu2 Eu 0.04913(2) 0.69557(2) -0.44115(2)
S1 S 0.35194(13) 0.79510(10) 0.32543(7)
S2 S 0.84884(15) 0.77951(11) -0.17832(7)
S3 S 0.25770(15) 0.56416(9) -0.22011(7)
O1 O 0.0966(4) 0.4437(3) -0.44899(18)
O2 O 0.9877(4) 0.7645(2) -0.31064(19)
O3 O 0.4988(4) 0.7713(3) 0.19395(19)
O4 O 0.8619(4) 0.6128(3) -0.39354(19)
O5 O 0.0992(4) 0.7393(3) 0.4534(2)
O6 O 0.3884(4) 0.5807(3) -0.0573(2)
O7 O 0.1448(4) 0.6044(3) -0.3639(2)
N1 N 0.0872(4) 0.8920(3) -0.3945(2)
O8 O 0.3768(4) 0.4159(3) -0.0886(2)
O9 O 0.3529(4) 0.6296(3) 0.1080(2)
N2 N -0.1690(4) 0.7644(3) -0.4675(2)
N3 N 0.5883(4) 0.9064(3) 0.1055(2)
O10 O 0.2163(4) 0.5950(3) -0.5133(2)
O11 O 0.2687(4) 0.8760(3) 0.4756(2)
N4 N 0.3288(4) 0.7851(3) 0.0305(3)
N5 N 0.2969(4) 0.8017(3) -0.3662(2)
C1 C 0.2014(5) 0.4808(4) -0.3156(3)
N6 N 0.7889(4) 0.8081(3) 0.1330(2)
C2 C 0.3442(6) 0.8882(4) 0.0538(3)
C3 C 0.3606(5) 0.4909(4) -0.1064(3)
C4 C 0.3290(5) 0.9050(4) -0.3392(3)
C5 C -0.1598(5) 0.8657(4) -0.4477(3)
C6 C 0.2163(5) 0.9530(3) -0.3608(3)
C7 C 0.2202(5) 0.7365(4) 0.3546(3)
C8 C 0.1425(5) 0.5116(3) -0.3814(3)
C9 C 0.3026(5) 0.4710(4) -0.1890(3)
O12 O 0.7692(5) 0.8609(4) -0.0285(3)
C10 C 0.8267(5) 0.9115(4) 0.1606(3)
C11 C 0.3982(5) 0.7557(4) -0.3486(3)
H1 H 0.3776 0.6847 -0.3673
C12 C -0.0179(5) 0.9325(4) -0.4147(3)
C13 C 0.1970(5) 0.7901(4) 0.4349(3)
C14 C 0.8938(5) 0.6855(4) -0.3269(3)
C15 C 1.0569(6) 0.9129(6) 0.2210(4)
H2 H 1.1460 0.9482 0.2517
C16 C 0.7189(5) 0.9642(4) 0.1406(3)
C17 C 0.5604(6) 0.9130(5) -0.2756(4)
H3 H 0.6479 0.9505 -0.2437
O13 O 0.6331(6) 0.7161(5) -0.0429(3)
C18 C 0.7202(6) 0.5971(5) -0.2712(3)
H4 H 0.6897 0.5354 -0.3146
C19 C 0.1533(6) 0.6428(4) 0.2984(3)
H5 H 0.0805 0.5994 0.3046
C20 C 0.8171(5) 0.6774(4) -0.2670(3)
C21 C -0.2977(6) 0.7023(5) -0.4958(3)
H6 H -0.3058 0.6323 -0.5102
C22 C 0.9598(6) 0.9653(5) 0.2054(3)
H7 H 0.9830 1.0364 0.2245
C23 C 0.2007(6) 0.7245(5) -0.0001(4)
H8 H 0.1916 0.6542 -0.0166
C24 C 0.4873(6) 0.9520(4) 0.0871(3)
C25 C 0.3148(5) 0.6943(4) 0.2354(3)
C26 C 0.6473(7) 1.1135(4) 0.1366(4)
H9 H 0.6672 1.1829 0.1463
C27 C 1.0226(6) 0.8093(6) 0.1916(4)
H10 H 1.0881 0.7727 0.2005
C28 C 0.2721(6) 0.3797(4) -0.2523(3)
H11 H 0.2868 0.3190 -0.2483
C29 C 0.3939(5) 0.6988(4) 0.1759(3)
C30 C 0.2056(6) 0.6183(4) 0.2297(3)
H12 H 0.1703 0.5578 0.1855
C31 C 0.7318(6) 0.7145(5) -0.1461(3)
C32 C 0.8867(6) 0.7588(5) 0.1475(3)
H13 H 0.8632 0.6877 0.1273
C33 C 0.1367(7) 1.0965(4) -0.3710(3)
H14 H 0.1528 1.1652 -0.3637
C34 C 0.0057(7) 1.0354(4) -0.4050(3)
H15 H -0.0672 1.0620 -0.4216
C35 C 0.6705(7) 0.6188(5) -0.2008(4)
H16 H 0.6036 0.5726 -0.1931
C36 C 0.2276(7) 0.9276(5) 0.0455(4)
H17 H 0.2374 0.9978 0.0611
C37 C 0.2179(6) 0.3873(4) -0.3218(3)
H18 H 0.1941 0.3319 -0.3699
C38 C -0.2782(6) 0.9042(5) -0.4566(4)
H19 H -0.2694 0.9740 -0.4434
C39 C 0.4603(6) 0.9629(4) -0.2938(3)
H20 H 0.4804 1.0339 -0.2760
C40 C 0.2442(7) 1.0571(4) -0.3477(3)
H21 H 0.3336 1.0984 -0.3238
C41 C 0.5144(7) 1.0554(4) 0.1006(3)
H22 H 0.4436 1.0847 0.0856
C42 C -0.4086(6) 0.8388(6) -0.4852(4)
H23 H -0.4886 0.8637 -0.4911
C43 C 0.7042(7) 0.7677(6) -0.0648(4)
C44 C 0.5306(6) 0.8085(5) -0.3045(4)
H24 H 0.5984 0.7740 -0.2946
C45 C 0.0816(7) 0.7603(6) -0.0085(4)
H25 H -0.0061 0.7158 -0.0289
C46 C 0.7512(7) 1.0694(4) 0.1583(4)
H26 H 0.8410 1.1087 0.1843
C47 C -0.4177(6) 0.7370(5) -0.5046(4)
H27 H -0.5044 0.6913 -0.5236
C48 C 0.0963(7) 0.8628(6) 0.0142(4)
H28 H 0.0180 0.8896 0.0086
Eu1A Eu 0.46250(2) 0.29169(2) -0.05787(2)
Eu2_2 Eu 0.04913(2) 0.69557(2) 0.55885(2)
Eu2_3 Eu 1.04913(2) 0.69557(2) -0.44115(2)
Eu2A Eu -0.04913(2) 0.30443(2) -0.55885(2)
O1A O -0.0966(4) 0.5563(3) -0.55101(18)
O2_2 O -0.0123(4) 0.7645(2) -0.31064(19)
O4_2 O -0.1381(4) 0.6128(3) -0.39354(19)
O5_2 O 0.0992(4) 0.7393(3) -0.5466(2)
O8A O 0.6232(4) 0.5841(3) 0.0886(2)
O14 O 0.8676(9) 0.5409(6) -0.0211(5)
loop_
_geom_bond_atom_site_label_1
_geom_bond_atom_site_label_2
_geom_bond_site_symmetry_1
_geom_bond_site_symmetry_2
Eu1 O3 1_555 1_555
Eu2 O7 1_555 1_555
S1 C7 1_555 1_555
S2 C20 1_555 1_555
S3 C1 1_555 1_555
O1 C8 1_555 1_555
O2 C14 1_555 1_555
O3 C29 1_555 1_555
O4 C14 1_555 1_555
O5 C13 1_555 1_555
O6 Eu1 1_555 1_555
O7 C8 1_555 1_555
N1 Eu2 1_555 1_555
O8 C3 1_555 1_555
O9 Eu1 1_555 1_555
N2 Eu2 1_555 1_555
N3 Eu1 1_555 1_555
O10 Eu2 1_555 1_555
O11 C13 1_555 1_555
N4 Eu1 1_555 1_555
N5 Eu2 1_555 1_555
C1 C8 1_555 1_555
N6 Eu1 1_555 1_555
C2 N4 1_555 1_555
C3 O6 1_555 1_555
C4 N5 1_555 1_555
C5 N2 1_555 1_555
C6 N1 1_555 1_555
C7 C13 1_555 1_555
C9 S3 1_555 1_555
O12 C43 1_555 1_555
C10 N6 1_555 1_555
C11 N5 1_555 1_555
H1 C11 1_555 1_555
C12 N1 1_555 1_555
C14 C20 1_555 1_555
C15 H2 1_555 1_555
C16 N3 1_555 1_555
C17 H3 1_555 1_555
O13 Eu1 1_555 1_555
C18 H4 1_555 1_555
C19 C7 1_555 1_555
H5 C19 1_555 1_555
C20 C18 1_555 1_555
C21 N2 1_555 1_555
H6 C21 1_555 1_555
C22 C10 1_555 1_555
H7 C22 1_555 1_555
C23 N4 1_555 1_555
H8 C23 1_555 1_555
C24 N3 1_555 1_555
C25 S1 1_555 1_555
C26 H9 1_555 1_555
C27 C15 1_555 1_555
H10 C27 1_555 1_555
C28 C9 1_555 1_555
H11 C28 1_555 1_555
C29 O9 1_555 1_555
C30 C19 1_555 1_555
H12 C30 1_555 1_555
C31 S2 1_555 1_555
C32 N6 1_555 1_555
H13 C32 1_555 1_555
C33 H14 1_555 1_555
C34 C12 1_555 1_555
H15 C34 1_555 1_555
C35 C18 1_555 1_555
H16 C35 1_555 1_555
C36 C2 1_555 1_555
H17 C36 1_555 1_555
C37 C1 1_555 1_555
H18 C37 1_555 1_555
C38 C5 1_555 1_555
H19 C38 1_555 1_555
C39 C4 1_555 1_555
H20 C39 1_555 1_555
C40 C6 1_555 1_555
H21 C40 1_555 1_555
C41 C24 1_555 1_555
H22 C41 1_555 1_555
C42 C38 1_555 1_555
H23 C42 1_555 1_555
C43 O13 1_555 1_555
C44 C11 1_555 1_555
H24 C44 1_555 1_555
C45 C23 1_555 1_555
H25 C45 1_555 1_555
C46 C16 1_555 1_555
H26 C46 1_555 1_555
C47 C21 1_555 1_555
H27 C47 1_555 1_555
C48 C36 1_555 1_555
H28 C48 1_555 1_555
Eu1A O8 1_555 1_555
Eu2_2 O5 1_555 1_555
Eu2_3 O2 1_555 1_555
Eu2A O1 1_555 1_555
O1A Eu2 1_555 1_555
O2_2 Eu2 1_555 1_555
O4_2 Eu2 1_555 1_555
O5_2 Eu2 1_555 1_555
O8A Eu1 1_555 1_555
O4 Eu2_3 1_555 1_555
C2 C24 1_555 1_555
C3 C9 1_555 1_555
C4 C6 1_555 1_555
C5 C12 1_555 1_555
C10 C16 1_555 1_555
C15 C22 1_555 1_555
C17 C39 1_555 1_555
C17 C44 1_555 1_555
C25 C29 1_555 1_555
C25 C30 1_555 1_555
C26 C41 1_555 1_555
C26 C46 1_555 1_555
C27 C32 1_555 1_555
C28 C37 1_555 1_555
C31 C35 1_555 1_555
C31 C43 1_555 1_555
C33 C34 1_555 1_555
C33 C40 1_555 1_555
C42 C47 1_555 1_555
C45 C48 1_555 1_555

#END
