
#######################################################################
#
#                 Cambridge Crystallographic Data Centre
#                                CCDC 
#
#######################################################################
#
# If this CIF has been generated from an entry in the Cambridge 
# Structural Database, then it will include bibliographic, chemical, 
# crystal, experimental, refinement or atomic coordinate data resulting 
# from the CCDC's data processing and validation procedures.
#
#######################################################################

data_JUJWAO
_symmetry_cell_setting           triclinic
_symmetry_space_group_name_H-M   'P -1'
_symmetry_Int_Tables_number      2
_space_group_name_Hall           '-P 1'
loop_
_symmetry_equiv_pos_site_id
_symmetry_equiv_pos_as_xyz
1 x,y,z
2 -x,-y,-z
_cell_length_a                   9.998(6)
_cell_length_b                   14.333(6)
_cell_length_c                   18.542(7)
_cell_angle_alpha                110.286(5)
_cell_angle_beta                 99.753(4)
_cell_angle_gamma                98.966(5)
_cell_volume                     2389.17
loop_
_atom_site_label
_atom_site_type_symbol
_atom_site_fract_x
_atom_site_fract_y
_atom_site_fract_z
Gd1 Gd 0.96358(2) 0.29145(2) 0.44126(2)
O1 O 1.0018(3) 0.2282(2) 0.30565(15)
O2 O 1.1464(3) 0.3713(2) 0.39156(15)
N1 N 0.7118(3) 0.1930(2) 0.36661(18)
N2 N 0.9121(3) 0.0944(2) 0.39456(17)
N3 N 1.1708(3) 0.2161(3) 0.4695(2)
O3 O 0.8662(4) 0.2853(3) 0.5414(2)
O4 O 1.1120(3) 0.41887(19) 0.55655(14)
O5 O 0.8763(3) 0.4156(2) 0.41283(16)
C1 C 1.1067(4) 0.3024(3) 0.3238(2)
C2 C 0.6733(4) 0.0899(3) 0.3396(2)
C3 C 0.6138(4) 0.2426(3) 0.3525(3)
C4 C 0.7818(4) 0.0372(3) 0.3593(2)
C5 C 1.0137(4) 0.0493(3) 0.4130(2)
C6 C 1.1573(4) 0.1145(3) 0.4470(2)
C7 C 1.2995(4) 0.2772(4) 0.5003(3)
C8 C 0.7923(5) 0.2309(4) 0.5652(2)
C9 C 1.1393(3) 0.5092(3) 0.6054(2)
C10 C 1.1839(4) 0.3054(3) 0.2633(2)
C11 C 0.5391(4) 0.0339(4) 0.2941(3)
H1 H 0.6378 0.3137 0.3729
C12 C 0.4782(4) 0.1930(4) 0.3088(3)
C13 C 0.7493(5) -0.0677(3) 0.3418(3)
C14 C 0.9864(5) -0.0544(3) 0.3993(3)
C15 C 1.2737(5) 0.0734(4) 0.4545(3)
H2 H 1.3086 0.3474 0.5165
C16 C 1.4182(5) 0.2412(4) 0.5091(3)
C17 C 0.7675(4) 0.2848(3) 0.6462(2)
O6 O 0.7332(4) 0.1386(3) 0.52841(19)
C18 C 1.1981(4) 0.5295(3) 0.6887(2)
S1 S 1.14837(10) 0.20429(7) 0.17396(6)
C19 C 1.2922(4) 0.3812(3) 0.2694(2)
C20 C 0.4423(5) 0.0882(4) 0.2791(3)
H3 H 0.4130 0.2301 0.3000
H4 H 0.6591 -0.1067 0.3162
C21 C 0.8537(5) -0.1125(3) 0.3632(3)
H5 H 1.0573 -0.0837 0.4144
H6 H 1.2633 0.0031 0.4386
C22 C 1.4045(5) 0.1383(4) 0.4859(3)
H7 H 1.5057 0.2859 0.5304
S2 S 0.64933(10) 0.21918(8) 0.67818(6)
C23 C 0.8283(5) 0.3800(4) 0.7009(3)
C24 C 1.2274(4) 0.6213(3) 0.7519(2)
S3 S 1.24207(11) 0.43578(7) 0.71974(5)
C25 C 1.2795(4) 0.2637(3) 0.1446(2)
C26 C 1.3464(4) 0.3577(3) 0.2019(2)
H8 H 1.3263 0.4419 0.3137
H9 H 0.3526 0.0535 0.2486
H10 H 0.8338 -0.1821 0.3532
H11 H 1.4832 0.1118 0.4911
C27 C 0.6812(4) 0.3219(3) 0.7669(2)
C28 C 0.7798(5) 0.4017(3) 0.7706(3)
H12 H 0.8951 0.4262 0.6933
H13 H 1.2100 0.6813 0.7475
C29 C 1.2856(5) 0.6150(3) 0.8228(2)
C30 C 1.2998(4) 0.5199(3) 0.8159(2)
C31 C 1.3042(4) 0.2099(3) 0.0647(2)
H14 H 1.4199 0.4013 0.1966
C32 C 0.6047(4) 0.3143(3) 0.8268(2)
H15 H 0.8114 0.4634 0.8141
H16 H 1.3125 0.6709 0.8709
C33 C 1.3588(3) 0.4884(3) 0.8813(2)
O7 O 1.4003(3) 0.2609(2) 0.04618(15)
O8 O 1.2323(3) 0.1236(2) 0.02417(16)
O9 O 0.5106(3) 0.23582(19) 0.81060(14)
O10 O 0.6373(3) 0.38753(19) 0.89371(15)
O11 O 1.4044(3) 0.55637(19) 0.94954(14)
O12 O 1.3557(3) 0.39540(19) 0.86371(15)
Gd2 Gd 1.45026(2) 0.30456(2) -0.05921(2)
N4 N 1.4126(3) 0.1089(2) 0.89454(17)
N5 N 1.2024(3) 0.1995(2) 0.86576(18)
O13 O 1.2853(3) 0.4043(2) 1.01262(17)
N6 N 1.6681(3) 0.2363(2) 0.96729(18)
C34 C 1.2828(4) 0.0480(3) 0.8607(2)
C35 C 1.5170(4) 0.0678(3) 0.9146(2)
C36 C 1.1013(4) 0.2448(3) 0.8479(3)
C37 C 1.1708(4) 0.0961(3) 0.8393(2)
C38 C 1.6588(4) 0.1355(3) 0.9476(2)
C39 C 1.7971(4) 0.2987(3) 0.9958(3)
C40 C 1.2556(5) -0.0557(3) 0.8479(2)
C41 C 1.4947(5) -0.0347(3) 0.9051(3)
H17 H 1.1222 0.3159 0.8667
C42 C 0.9694(4) 0.1932(4) 0.8038(3)
C43 C 1.0386(4) 0.0393(3) 0.7937(2)
C44 C 1.7782(5) 0.0962(4) 0.9558(3)
C45 C 1.9174(5) 0.2640(4) 1.0053(3)
H18 H 1.8051 0.3686 1.0098
C46 C 1.3621(5) -0.0958(3) 0.8712(3)
H19 H 1.1662 -0.0968 0.8238
H20 H 1.5680 -0.0613 0.9215
C47 C 0.9380(4) 0.0883(4) 0.7756(3)
H21 H 0.9026 0.2282 0.7932
H22 H 1.0183 -0.0317 0.7755
C48 C 1.9081(5) 0.1616(4) 0.9852(3)
H23 H 1.7693 0.0262 0.9414
H24 H 2.0041 0.3098 1.0251
H25 H 1.3452 -0.1644 0.8642
H26 H 0.8496 0.0508 0.7446
H27 H 1.9880 0.1367 0.9914
O5A O 1.1237(3) 0.5844(2) 0.58717(16)
Gd1A Gd 1.03642(2) 0.70855(2) 0.55874(2)
Gd2_2 Gd 0.45026(2) 0.30456(2) 0.94079(2)
Gd2A Gd 1.54974(2) 0.69544(2) 1.05921(2)
Gd2_3 Gd 1.45026(2) 0.30456(2) 0.94079(2)
O10_2 O 1.6373(3) 0.38753(19) 0.89371(15)
O9_2 O 1.5106(3) 0.23582(19) 0.81060(14)
O11A O 1.5956(3) 0.44363(19) 1.05046(14)
O7_2 O 1.4003(3) 0.2609(2) 1.04618(15)
O14 O 0.6337(7) 0.4586(4) 0.5222(4)
loop_
_geom_bond_atom_site_label_1
_geom_bond_atom_site_label_2
_geom_bond_site_symmetry_1
_geom_bond_site_symmetry_2
Gd1 O1 1_555 1_555
O1 C1 1_555 1_555
O2 Gd1 1_555 1_555
N1 Gd1 1_555 1_555
N2 Gd1 1_555 1_555
N3 Gd1 1_555 1_555
O3 Gd1 1_555 1_555
O4 Gd1 1_555 1_555
O5 Gd1 1_555 1_555
C1 O2 1_555 1_555
C2 N1 1_555 1_555
C3 N1 1_555 1_555
C4 N2 1_555 1_555
C5 N2 1_555 1_555
C6 N3 1_555 1_555
C7 N3 1_555 1_555
C8 O3 1_555 1_555
C9 O4 1_555 1_555
C10 C1 1_555 1_555
C11 C2 1_555 1_555
H1 C3 1_555 1_555
C12 C3 1_555 1_555
C13 C4 1_555 1_555
C14 C5 1_555 1_555
C15 C6 1_555 1_555
H2 C7 1_555 1_555
C16 C7 1_555 1_555
C17 C8 1_555 1_555
O6 C8 1_555 1_555
C18 C9 1_555 1_555
S1 C10 1_555 1_555
C19 C10 1_555 1_555
C20 C11 1_555 1_555
H3 C12 1_555 1_555
H4 C13 1_555 1_555
C21 C13 1_555 1_555
H5 C14 1_555 1_555
H6 C15 1_555 1_555
C22 C15 1_555 1_555
H7 C16 1_555 1_555
S2 C17 1_555 1_555
C23 C17 1_555 1_555
C24 C18 1_555 1_555
S3 C18 1_555 1_555
C25 S1 1_555 1_555
C26 C19 1_555 1_555
H8 C19 1_555 1_555
H9 C20 1_555 1_555
H10 C21 1_555 1_555
H11 C22 1_555 1_555
C27 S2 1_555 1_555
C28 C23 1_555 1_555
H12 C23 1_555 1_555
H13 C24 1_555 1_555
C29 C24 1_555 1_555
C30 S3 1_555 1_555
C31 C25 1_555 1_555
H14 C26 1_555 1_555
C32 C27 1_555 1_555
H15 C28 1_555 1_555
H16 C29 1_555 1_555
C33 C30 1_555 1_555
O7 C31 1_555 1_555
O8 C31 1_555 1_555
O9 C32 1_555 1_555
O10 C32 1_555 1_555
O11 C33 1_555 1_555
O12 C33 1_555 1_555
Gd2 O7 1_555 1_555
N4 C34 1_555 1_555
N5 C36 1_555 1_555
O13 Gd2_3 1_555 1_555
N6 C38 1_555 1_555
C34 C37 1_555 1_555
C35 N4 1_555 1_555
C36 H17 1_555 1_555
C37 N5 1_555 1_555
C38 C35 1_555 1_555
C39 N6 1_555 1_555
C40 C34 1_555 1_555
C41 C35 1_555 1_555
C42 C36 1_555 1_555
C43 C37 1_555 1_555
C44 C38 1_555 1_555
C45 C39 1_555 1_555
H18 C39 1_555 1_555
C46 C40 1_555 1_555
H19 C40 1_555 1_555
H20 C41 1_555 1_555
C47 C42 1_555 1_555
H21 C42 1_555 1_555
H22 C43 1_555 1_555
C48 C44 1_555 1_555
H23 C44 1_555 1_555
H24 C45 1_555 1_555
H25 C46 1_555 1_555
H26 C47 1_555 1_555
H27 C48 1_555 1_555
O5A C9 1_555 1_555
Gd1A O5A 1_555 1_555
Gd2_2 O9 1_555 1_555
Gd2A O11 1_555 1_555
Gd2_3 O12 1_555 1_555
O10_2 Gd2_3 1_555 1_555
O9_2 Gd2_3 1_555 1_555
O11A Gd2_3 1_555 1_555
O7_2 Gd2_3 1_555 1_555
C2 C4 1_555 1_555
C5 C6 1_555 1_555
C12 C20 1_555 1_555
C14 C21 1_555 1_555
C16 C22 1_555 1_555
C25 C26 1_555 1_555
C27 C28 1_555 1_555
C29 C30 1_555 1_555
O10 Gd2_2 1_555 1_555
N4 Gd2_3 1_555 1_555
N5 Gd2_3 1_555 1_555
N6 Gd2_3 1_555 1_555
C41 C46 1_555 1_555
C43 C47 1_555 1_555
C45 C48 1_555 1_555

#END
