
#######################################################################
#
#                 Cambridge Crystallographic Data Centre
#                                CCDC 
#
#######################################################################
#
# If this CIF has been generated from an entry in the Cambridge 
# Structural Database, then it will include bibliographic, chemical, 
# crystal, experimental, refinement or atomic coordinate data resulting 
# from the CCDC's data processing and validation procedures.
#
#######################################################################

data_JUJYIY
_symmetry_cell_setting           triclinic
_symmetry_space_group_name_H-M   'P -1'
_symmetry_Int_Tables_number      2
_space_group_name_Hall           '-P 1'
loop_
_symmetry_equiv_pos_site_id
_symmetry_equiv_pos_as_xyz
1 x,y,z
2 -x,-y,-z
_cell_length_a                   9.2565(14)
_cell_length_b                   10.1736(15)
_cell_length_c                   15.405(2)
_cell_angle_alpha                95.282(3)
_cell_angle_beta                 105.188(2)
_cell_angle_gamma                91.394(2)
_cell_volume                     1392.33
loop_
_atom_site_label
_atom_site_type_symbol
_atom_site_fract_x
_atom_site_fract_y
_atom_site_fract_z
Co1 Co 0.5000 1.0000 1.0000
Co2 Co 0.66282(4) 0.91829(3) 1.19192(2)
Co3 Co 0.30074(4) 0.58265(3) 0.93341(2)
P1 P 0.61607(8) 0.71252(6) 1.00263(5)
O1 O 0.6712(2) 0.60442(17) 1.06220(13)
O2 O 0.5819(2) 0.83341(16) 1.05928(12)
O3 O 0.4857(2) 0.66650(17) 0.92107(13)
O4 O 0.5190(2) 0.94445(17) 0.86779(12)
O5 O 0.5934(2) 0.8730(2) 0.74726(13)
O6 O 1.1646(2) 0.98114(18) 0.83916(12)
O7 O 1.2923(2) 0.90533(17) 0.96776(13)
O8 O 1.2505(2) 0.65059(18) 1.04393(13)
O9 O 1.2171(2) 0.81805(18) 1.13852(13)
O10 O 0.6825(2) 1.03708(19) 1.31563(13)
H1 H 0.6757 0.9909 1.3578
H2 H 0.6037 1.0795 1.2985
O11 O 0.5018(2) 0.80374(18) 1.23048(13)
H3 H 0.5188 0.7223 1.2230
H4 H 0.4130 0.8171 1.2008
N1 N 0.1432(3) 0.6083(2) 0.82023(16)
N2 N -0.0698(3) 0.6177(2) 0.71642(16)
N3 N -0.0456(3) 0.2849(2) 0.68360(16)
N4 N 0.1735(3) 0.2028(2) 0.74147(16)
C1 C 0.7700(3) 0.7683(2) 0.96085(18)
C2 C 0.7592(3) 0.8472(2) 0.88924(18)
C3 C 0.8920(3) 0.8900(2) 0.87051(18)
H5 H 0.8858 0.9381 0.8198
C4 C 1.0324(3) 0.8641(2) 0.92399(17)
C5 C 1.0419(3) 0.7872(2) 0.99588(18)
C6 C 0.9108(3) 0.7378(3) 1.01100(19)
H6 H 0.9174 0.6810 1.0574
C7 C 0.6133(3) 0.8907(2) 0.83108(18)
C8 C 1.1743(3) 0.9214(2) 0.90843(18)
C9 C 1.1831(3) 0.7542(3) 1.06349(18)
C10 C -0.0030(3) 0.5807(3) 0.79824(19)
H7 H -0.0542 0.5401 0.8355
C11 C 0.1702(4) 0.6673(3) 0.7486(2)
H8 H 0.2655 0.6993 0.7449
C12 C 0.0400(4) 0.6726(3) 0.6846(2)
H9 H 0.0271 0.7077 0.6281
C13 C -0.2313(3) 0.6050(3) 0.6711(2)
H10 H -0.2672 0.6936 0.6575
H11 H -0.2851 0.5717 0.7130
C14 C -0.2696(3) 0.5137(3) 0.58477(19)
C15 C -0.3209(3) 0.5674(3) 0.5029(2)
H12 H -0.3226 0.6607 0.5025
C16 C -0.3692(3) 0.4875(3) 0.4223(2)
H13 H -0.4050 0.5258 0.3671
C17 C -0.3653(4) 0.3516(3) 0.4221(2)
H14 H -0.3991 0.2960 0.3670
C18 C -0.3119(3) 0.2976(3) 0.5026(2)
H15 H -0.3078 0.2044 0.5022
C19 C -0.2643(3) 0.3759(3) 0.58403(19)
C20 C -0.2060(3) 0.3103(3) 0.6693(2)
H16 H -0.2199 0.3679 0.7216
H17 H -0.2638 0.2257 0.6651
C21 C 0.0328(3) 0.2100(3) 0.7453(2)
H18 H -0.0079 0.1675 0.7867
C22 C 0.0513(3) 0.3276(3) 0.6371(2)
H19 H 0.0289 0.3821 0.5889
C23 C 0.1842(3) 0.2773(3) 0.6730(2)
H20 H 0.2725 0.2912 0.6540
Co2A Co 0.33718(4) 0.08171(3) 0.80808(2)
Co3A Co 0.69926(4) 0.41735(3) 1.06659(2)
P1A P 0.38393(8) 0.28748(6) 0.99737(5)
O1A O 0.3288(2) 0.39558(17) 0.93780(13)
O2A O 0.4181(2) 0.16659(16) 0.94072(12)
O3A O 0.5143(2) 0.33350(17) 1.07893(13)
O4A O 0.4810(2) 0.05555(17) 1.13221(12)
O5A O 0.4066(2) 0.1270(2) 1.25274(13)
O6A O -0.1646(2) 0.01886(18) 1.16084(12)
O7A O -0.2923(2) 0.09467(17) 1.03224(13)
O8A O -0.2505(2) 0.34941(18) 0.95607(13)
O9A O -0.2171(2) 0.18195(18) 0.86148(13)
O10A O 0.3175(2) -0.03708(19) 0.68437(13)
H1A H 0.3243 0.0091 0.6422
H2A H 0.3963 -0.0795 0.7015
O11A O 0.4982(2) 0.19626(18) 0.76952(13)
H3A H 0.4812 0.2777 0.7770
H4A H 0.5870 0.1829 0.7992
N1A N 0.8568(3) 0.3917(2) 1.17977(16)
N2A N 1.0698(3) 0.3823(2) 1.28358(16)
N3A N 1.0456(3) 0.7151(2) 1.31640(16)
N4A N 0.8265(3) 0.7972(2) 1.25853(16)
C1A C 0.2300(3) 0.2317(2) 1.03915(18)
C2A C 0.2408(3) 0.1528(2) 1.11076(18)
C3A C 0.1080(3) 0.1100(2) 1.12949(18)
H5A H 0.1142 0.0619 1.1802
C4A C -0.0324(3) 0.1359(2) 1.07601(17)
C5A C -0.0419(3) 0.2128(2) 1.00412(18)
C6A C 0.0892(3) 0.2622(3) 0.98900(19)
H6A H 0.0826 0.3190 0.9426
C7A C 0.3867(3) 0.1093(2) 1.16892(18)
C8A C -0.1743(3) 0.0786(2) 1.09157(18)
C9A C -0.1831(3) 0.2458(3) 0.93651(18)
C10A C 1.0030(3) 0.4193(3) 1.20176(19)
H7A H 1.0542 0.4599 1.1645
C11A C 0.8298(4) 0.3327(3) 1.2514(2)
H8A H 0.7345 0.3007 1.2551
C12A C 0.9600(4) 0.3274(3) 1.3154(2)
H9A H 0.9729 0.2923 1.3719
C13A C 1.2313(3) 0.3950(3) 1.3289(2)
H10A H 1.2672 0.3064 1.3425
H11A H 1.2851 0.4283 1.2870
C14A C 1.2696(3) 0.4863(3) 1.41523(19)
C15A C 1.3209(3) 0.4326(3) 1.4971(2)
H12A H 1.3226 0.3393 1.4975
C16A C 1.3692(3) 0.5125(3) 1.5777(2)
H13A H 1.4050 0.4742 1.6329
C17A C 1.3653(4) 0.6484(3) 1.5779(2)
H14A H 1.3991 0.7040 1.6330
C18A C 1.3119(3) 0.7024(3) 1.4974(2)
H15A H 1.3078 0.7956 1.4978
C19A C 1.2643(3) 0.6241(3) 1.41597(19)
C20A C 1.2060(3) 0.6897(3) 1.3307(2)
H16A H 1.2199 0.6321 1.2784
H17A H 1.2638 0.7743 1.3349
C21A C 0.9672(3) 0.7900(3) 1.2547(2)
H18A H 1.0079 0.8325 1.2133
C22A C 0.9487(3) 0.6724(3) 1.3629(2)
H19A H 0.9711 0.6179 1.4111
C23A C 0.8158(3) 0.7227(3) 1.3270(2)
H20A H 0.7275 0.7088 1.3460
Co1_2 Co -0.5000 0.0000 1.0000
Co1_3 Co 0.5000 0.0000 1.0000
Co1_4 Co 1.5000 1.0000 1.0000
Co2_2 Co -0.33718(4) -0.08171(3) 1.19192(2)
Co2_3 Co 0.66282(4) -0.08171(3) 1.19192(2)
Co2A_2 Co 0.33718(4) 1.08171(3) 0.80808(2)
Co2A_3 Co 1.33718(4) 1.08171(3) 0.80808(2)
Co3_2 Co 1.30074(4) 0.58265(3) 0.93341(2)
Co3A_2 Co -0.30074(4) 0.41735(3) 1.06659(2)
O2A_2 O 0.4181(2) 1.16659(16) 0.94072(12)
O4_2 O 0.5190(2) -0.05555(17) 0.86779(12)
O4A_2 O 0.4810(2) 1.05555(17) 1.13221(12)
O6_2 O 0.1646(2) -0.01886(18) 0.83916(12)
O6A_2 O 0.8354(2) 1.01886(18) 1.16084(12)
O7_2 O 0.2923(2) 0.90533(17) 0.96776(13)
O7A_2 O 0.7077(2) 1.09467(17) 1.03224(13)
O8_2 O 0.2505(2) 0.65059(18) 1.04393(13)
O8A_2 O 0.7495(2) 0.34941(18) 0.95607(13)
O12 O 1.0054(4) 0.0445(4) 0.4132(3)
H21 H 0.9822 0.0836 0.4584
H22 H 0.9272 0.0294 0.3694
O14 O 0.4146(2) 0.5311(2) 0.19225(14)
H25 H 0.3540 0.5682 0.1506
H26 H 0.4517 0.4664 0.1680
O15 O 0.5858(4) 0.8959(3) 0.4371(2)
H27 H 0.4988 0.9256 0.4212
H28 H 0.6144 0.8973 0.4943
O16 O 0.7088(4) 0.9718(3) 0.61597(19)
H29 H 0.6791 0.9368 0.6567
H30 H 0.7945 0.9449 0.6146
O13? O 1.1439(19) 0.0611(16) 0.5182(11)
H23? H 1.0946 0.1066 0.5485
H24? H 1.0727 0.0189 0.4780
loop_
_geom_bond_atom_site_label_1
_geom_bond_atom_site_label_2
_geom_bond_site_symmetry_1
_geom_bond_site_symmetry_2
Co1 O2 1_555 1_555
Co2 O2 1_555 1_555
Co3 O3 1_555 1_555
P1 O1 1_555 1_555
O1 Co3A 1_555 1_555
O2 P1 1_555 1_555
O3 P1 1_555 1_555
O4 Co1 1_555 1_555
O5 C7 1_555 1_555
O6 C8 1_555 1_555
O7 C8 1_555 1_555
O8 C9 1_555 1_555
O9 C9 1_555 1_555
O10 Co2 1_555 1_555
H1 O10 1_555 1_555
H2 O10 1_555 1_555
O11 Co2 1_555 1_555
H3 O11 1_555 1_555
H4 O11 1_555 1_555
N1 Co3 1_555 1_555
N2 C10 1_555 1_555
N3 C20 1_555 1_555
N4 C21 1_555 1_555
C1 P1 1_555 1_555
C2 C1 1_555 1_555
C3 C2 1_555 1_555
H5 C3 1_555 1_555
C4 C3 1_555 1_555
C5 C4 1_555 1_555
C6 C1 1_555 1_555
H6 C6 1_555 1_555
C7 O4 1_555 1_555
C8 C4 1_555 1_555
C9 C5 1_555 1_555
C10 N1 1_555 1_555
H7 C10 1_555 1_555
C11 N1 1_555 1_555
H8 C11 1_555 1_555
C12 N2 1_555 1_555
H9 C12 1_555 1_555
C13 N2 1_555 1_555
H10 C13 1_555 1_555
H11 C13 1_555 1_555
C14 C13 1_555 1_555
C15 C14 1_555 1_555
H12 C15 1_555 1_555
C16 C15 1_555 1_555
H13 C16 1_555 1_555
C17 C16 1_555 1_555
H14 C17 1_555 1_555
C18 C17 1_555 1_555
H15 C18 1_555 1_555
C19 C14 1_555 1_555
C20 C19 1_555 1_555
H16 C20 1_555 1_555
H17 C20 1_555 1_555
C21 N3 1_555 1_555
H18 C21 1_555 1_555
C22 N3 1_555 1_555
H19 C22 1_555 1_555
C23 N4 1_555 1_555
H20 C23 1_555 1_555
O12 H21 1_555 1_555
H22 O12 1_555 1_555
O14 H25 1_555 1_555
H26 O14 1_555 1_555
O15 H27 1_555 1_555
H28 O15 1_555 1_555
O16 H29 1_555 1_555
H30 O16 1_555 1_555
Co2A N4 1_555 1_555
Co3A O3A 1_555 1_555
P1A O1A 1_555 1_555
O1A Co3 1_555 1_555
O2A Co2A 1_555 1_555
O3A P1A 1_555 1_555
O4A C7A 1_555 1_555
O5A C7A 1_555 1_555
O6A C8A 1_555 1_555
O7A C8A 1_555 1_555
O8A C9A 1_555 1_555
O9A C9A 1_555 1_555
O10A Co2A 1_555 1_555
H1A O10A 1_555 1_555
H2A O10A 1_555 1_555
O11A Co2A 1_555 1_555
H3A O11A 1_555 1_555
H4A O11A 1_555 1_555
N1A Co3A 1_555 1_555
N2A C10A 1_555 1_555
N3A C20A 1_555 1_555
N4A Co2 1_555 1_555
C1A P1A 1_555 1_555
C2A C1A 1_555 1_555
C3A C2A 1_555 1_555
H5A C3A 1_555 1_555
C4A C3A 1_555 1_555
C5A C4A 1_555 1_555
C6A C1A 1_555 1_555
H6A C6A 1_555 1_555
C7A C2A 1_555 1_555
C8A C4A 1_555 1_555
C9A C5A 1_555 1_555
C10A N1A 1_555 1_555
H7A C10A 1_555 1_555
C11A N1A 1_555 1_555
H8A C11A 1_555 1_555
C12A N2A 1_555 1_555
H9A C12A 1_555 1_555
C13A N2A 1_555 1_555
H10A C13A 1_555 1_555
H11A C13A 1_555 1_555
C14A C13A 1_555 1_555
C15A C14A 1_555 1_555
H12A C15A 1_555 1_555
C16A C15A 1_555 1_555
H13A C16A 1_555 1_555
C17A C16A 1_555 1_555
H14A C17A 1_555 1_555
C18A C17A 1_555 1_555
H15A C18A 1_555 1_555
C19A C14A 1_555 1_555
C20A C19A 1_555 1_555
H16A C20A 1_555 1_555
H17A C20A 1_555 1_555
C21A N3A 1_555 1_555
H18A C21A 1_555 1_555
C22A N3A 1_555 1_555
H19A C22A 1_555 1_555
C23A N4A 1_555 1_555
H20A C23A 1_555 1_555
Co1_2 O7A 1_555 1_555
Co1_3 O2A 1_555 1_555
Co1_4 O7 1_555 1_555
Co2_2 O6A 1_555 1_555
Co2_3 O4A 1_555 1_555
Co2A_2 O4 1_555 1_555
Co2A_3 O6 1_555 1_555
Co3_2 O8 1_555 1_555
Co3A_2 O8A 1_555 1_555
O2A_2 Co1 1_555 1_555
O4_2 Co2A 1_555 1_555
O4A_2 Co1 1_555 1_555
O6_2 Co2A 1_555 1_555
O6A_2 Co2 1_555 1_555
O7_2 Co1 1_555 1_555
O7A_2 Co1 1_555 1_555
O8_2 Co3 1_555 1_555
O8A_2 Co3A 1_555 1_555
Co2 O4A_2 1_555 1_555
C2 C7 1_555 1_555
C5 C6 1_555 1_555
C11 C12 1_555 1_555
C18 C19 1_555 1_555
C22 C23 1_555 1_555
P1A O2A 1_555 1_555
O4A Co1_3 1_555 1_555
N4A C21A 1_555 1_555
C5A C6A 1_555 1_555
C11A C12A 1_555 1_555
C18A C19A 1_555 1_555
C22A C23A 1_555 1_555
Co1_3 O4_2 1_555 1_555
Co2A_2 O2A_2 1_555 1_555

#END
