
#######################################################################
#
#                 Cambridge Crystallographic Data Centre
#                                CCDC 
#
#######################################################################
#
# If this CIF has been generated from an entry in the Cambridge 
# Structural Database, then it will include bibliographic, chemical, 
# crystal, experimental, refinement or atomic coordinate data resulting 
# from the CCDC's data processing and validation procedures.
#
#######################################################################

data_JUJZIZ
_symmetry_cell_setting           triclinic
_symmetry_space_group_name_H-M   'P -1'
_symmetry_Int_Tables_number      2
_space_group_name_Hall           '-P 1'
loop_
_symmetry_equiv_pos_site_id
_symmetry_equiv_pos_as_xyz
1 x,y,z
2 -x,-y,-z
_cell_length_a                   9.247(4)
_cell_length_b                   9.970(5)
_cell_length_c                   15.025(8)
_cell_angle_alpha                100.151(9)
_cell_angle_beta                 91.372(9)
_cell_angle_gamma                91.776(9)
_cell_volume                     1362.25
loop_
_atom_site_label
_atom_site_type_symbol
_atom_site_fract_x
_atom_site_fract_y
_atom_site_fract_z
Co1 Co 1.0000 1.0000 0.0000
Co2 Co 1.06792(6) 0.84395(6) -0.19347(4)
Co3 Co 0.82937(6) 0.61331(6) 0.06252(4)
P1 P 1.11377(11) 0.71019(11) -0.00617(8)
O1 O 1.1387(3) 0.5755(3) -0.06563(19)
O2 O 1.0508(3) 0.8082(3) -0.06195(18)
O3 O 1.0232(3) 0.6971(3) 0.07560(19)
O4 O 1.0840(3) 0.9976(3) 0.13207(18)
O5 O 1.2136(3) 0.9633(3) 0.2512(2)
O6 O 1.7432(3) 1.0448(3) 0.15950(19)
O7 O 1.8068(3) 0.9153(3) 0.03119(19)
O8 O 1.7245(3) 0.6297(3) -0.04902(19)
O9 O 1.6493(3) 0.7621(3) -0.14274(19)
O10 O 0.8907(3) 0.7111(3) -0.23268(19)
H1 H 0.8077 0.7306 -0.2120
H2 H 0.9142 0.6336 -0.2220
O11 O 1.0368(3) 0.9266(3) -0.31165(19)
H3 H 0.9536 0.9607 -0.3074
H4 H 1.0470 0.8786 -0.3636
N1 N 0.7114(4) 0.6773(4) 0.1700(2)
N2 N 0.6264(4) 0.8099(4) 0.2871(2)
N3 N 0.3978(4) 0.5990(4) 0.6844(2)
N4 N 0.1997(4) 0.6873(3) 0.7435(2)
C1 C 1.2868(4) 0.7839(4) 0.0343(3)
C2 C 1.3120(4) 0.8910(4) 0.1079(3)
C3 C 1.4536(4) 0.9406(4) 0.1261(3)
H5 H 1.4730 1.0092 0.1779
C4 C 1.5677(4) 0.8950(4) 0.0724(3)
C5 C 1.5412(4) 0.7893(4) -0.0011(3)
C6 C 1.4023(4) 0.7349(4) -0.0184(3)
H6 H 1.3848 0.6617 -0.0676
C7 C 1.1943(4) 0.9528(4) 0.1685(3)
C8 C 1.7171(4) 0.9571(4) 0.0890(3)
C9 C 1.6498(4) 0.7290(4) -0.0680(3)
C10 C 0.7423(5) 0.7799(5) 0.2365(3)
H7 H 0.8341 0.8262 0.2471
C11 C 0.5691(5) 0.6399(5) 0.1791(3)
H8 H 0.5164 0.5680 0.1407
C12 C 0.5160(5) 0.7215(4) 0.2511(3)
H9 H 0.4205 0.7181 0.2726
C13 C 0.6201(6) 0.9155(5) 0.3683(3)
H10 H 0.5377 0.9747 0.3623
H11 H 0.7103 0.9729 0.3757
C14 C 0.6016(5) 0.8478(4) 0.4499(3)
C15 C 0.4650(5) 0.8051(5) 0.4698(3)
H12 H 0.3830 0.8305 0.4381
C16 C 0.4465(5) 0.7255(5) 0.5354(3)
H13 H 0.3519 0.6944 0.5473
C17 C 0.5636(5) 0.6908(4) 0.5839(3)
C18 C 0.7022(5) 0.7396(5) 0.5666(3)
H14 H 0.7840 0.7196 0.6008
C19 C 0.7190(5) 0.8167(5) 0.4998(3)
H15 H 0.8130 0.8490 0.4879
C20 C 0.5453(4) 0.5994(4) 0.6526(3)
H16 H 0.5697 0.5054 0.6254
H17 H 0.6131 0.6308 0.7046
C21 C 0.3406(5) 0.7044(4) 0.7390(3)
H18 H 0.3951 0.7815 0.7702
C22 C 0.2859(5) 0.5107(4) 0.6513(3)
H19 H 0.2918 0.4273 0.6101
C23 C 0.1659(5) 0.5648(5) 0.6884(3)
H20 H 0.0713 0.5243 0.6780
Co2A Co 0.93208(6) 0.15605(6) 0.19347(4)
Co3A Co 1.17063(6) 0.38669(6) -0.06252(4)
P1A P 0.88623(11) 0.28981(11) 0.00617(8)
O1A O 0.8613(3) 0.4245(3) 0.06563(19)
O2A O 0.9492(3) 0.1918(3) 0.06195(18)
O3A O 0.9768(3) 0.3029(3) -0.07560(19)
O4A O 0.9160(3) 0.0024(3) -0.13207(18)
O5A O 0.7864(3) 0.0367(3) -0.2512(2)
O6A O 0.2568(3) -0.0448(3) -0.15950(19)
O7A O 0.1932(3) 0.0847(3) -0.03119(19)
O8A O 0.2755(3) 0.3703(3) 0.04902(19)
O9A O 0.3507(3) 0.2379(3) 0.14274(19)
O10A O 1.1093(3) 0.2889(3) 0.23268(19)
H1A H 1.1923 0.2694 0.2120
H2A H 1.0858 0.3664 0.2220
O11A O 0.9632(3) 0.0734(3) 0.31165(19)
H3A H 1.0464 0.0393 0.3074
H4A H 0.9530 0.1214 0.3636
N1A N 1.2886(4) 0.3227(4) -0.1700(2)
N2A N 1.3736(4) 0.1901(4) -0.2871(2)
N3A N 1.6022(4) 0.4010(4) -0.6844(2)
N4A N 1.8003(4) 0.3127(3) -0.7435(2)
C1A C 0.7132(4) 0.2161(4) -0.0343(3)
C2A C 0.6880(4) 0.1090(4) -0.1079(3)
C3A C 0.5464(4) 0.0594(4) -0.1261(3)
H5A H 0.5270 -0.0092 -0.1779
C4A C 0.4323(4) 0.1050(4) -0.0724(3)
C5A C 0.4588(4) 0.2107(4) 0.0011(3)
C6A C 0.5977(4) 0.2651(4) 0.0184(3)
H6A H 0.6152 0.3383 0.0676
C7A C 0.8057(4) 0.0472(4) -0.1685(3)
C8A C 0.2829(4) 0.0429(4) -0.0890(3)
C9A C 0.3502(4) 0.2710(4) 0.0680(3)
C10A C 1.2577(5) 0.2201(5) -0.2365(3)
H7A H 1.1659 0.1738 -0.2471
C11A C 1.4309(5) 0.3601(5) -0.1791(3)
H8A H 1.4836 0.4320 -0.1407
C12A C 1.4840(5) 0.2785(4) -0.2511(3)
H9A H 1.5795 0.2819 -0.2726
C13A C 1.3799(6) 0.0845(5) -0.3683(3)
H10A H 1.4623 0.0253 -0.3623
H11A H 1.2897 0.0271 -0.3757
C14A C 1.3984(5) 0.1522(4) -0.4499(3)
C15A C 1.5350(5) 0.1949(5) -0.4698(3)
H12A H 1.6170 0.1695 -0.4381
C16A C 1.5535(5) 0.2745(5) -0.5354(3)
H13A H 1.6481 0.3056 -0.5473
C17A C 1.4364(5) 0.3092(4) -0.5839(3)
C18A C 1.2978(5) 0.2604(5) -0.5666(3)
H14A H 1.2160 0.2804 -0.6008
C19A C 1.2810(5) 0.1833(5) -0.4998(3)
H15A H 1.1870 0.1510 -0.4879
C20A C 1.4547(4) 0.4006(4) -0.6526(3)
H16A H 1.4303 0.4946 -0.6254
H17A H 1.3869 0.3692 -0.7046
C21A C 1.6594(5) 0.2956(4) -0.7390(3)
H18A H 1.6049 0.2185 -0.7702
C22A C 1.7141(5) 0.4893(4) -0.6513(3)
H19A H 1.7082 0.5727 -0.6101
C23A C 1.8341(5) 0.4352(5) -0.6884(3)
H20A H 1.9287 0.4757 -0.6780
Co1_2 Co 0.0000 0.0000 0.0000
Co1_3 Co 1.0000 0.0000 0.0000
Co1_4 Co 2.0000 1.0000 0.0000
Co2_2 Co 0.06792(6) -0.15605(6) -0.19347(4)
Co2_3 Co 0.06792(6) 0.84395(6) 0.80653(4)
Co2_4 Co 1.06792(6) -0.15605(6) -0.19347(4)
Co2A_2 Co 0.93208(6) 1.15605(6) 0.19347(4)
Co2A_3 Co 1.93208(6) 0.15605(6) -0.80653(4)
Co2A_4 Co 1.93208(6) 1.15605(6) 0.19347(4)
Co3_2 Co 1.82937(6) 0.61331(6) 0.06252(4)
Co3A_2 Co 0.17063(6) 0.38669(6) -0.06252(4)
O2A_2 O 0.9492(3) 1.1918(3) 0.06195(18)
O4_2 O 1.0840(3) -0.0024(3) 0.13207(18)
O4A_2 O 0.9160(3) 1.0024(3) -0.13207(18)
O6_2 O 0.7432(3) 0.0448(3) 0.15950(19)
O6A_2 O 1.2568(3) 0.9552(3) -0.15950(19)
O7_2 O 0.8068(3) 0.9153(3) 0.03119(19)
O7A_2 O 1.1932(3) 1.0847(3) -0.03119(19)
O8_2 O 0.7245(3) 0.6297(3) -0.04902(19)
O8A_2 O 1.2755(3) 0.3703(3) 0.04902(19)
N4_2 N 1.1997(4) 0.6873(3) -0.2565(2)
N4A_2 N 0.8003(4) 0.3127(3) 0.2565(2)
O12 O 0.8362(3) 0.4491(3) 0.80709(19)
H21 H 0.7858 0.4998 0.8448
H22 H 0.8847 0.4033 0.8393
O13 O 0.8574(4) 0.2510(3) 0.6520(2)
H23 H 0.8500 0.1793 0.6752
H24 H 0.8530 0.3216 0.6928
O14 O 0.9330(4) 0.2556(4) 0.4753(2)
H25 H 0.9182 0.3335 0.4620
H26 H 0.9186 0.2557 0.5310
loop_
_geom_bond_atom_site_label_1
_geom_bond_atom_site_label_2
_geom_bond_site_symmetry_1
_geom_bond_site_symmetry_2
Co1 O2 1_555 1_555
Co2 O2 1_555 1_555
Co3 O3 1_555 1_555
P1 O1 1_555 1_555
O1 Co3A 1_555 1_555
O2 P1 1_555 1_555
O3 P1 1_555 1_555
O4 Co1 1_555 1_555
O5 C7 1_555 1_555
O6 C8 1_555 1_555
O7 C8 1_555 1_555
O8 C9 1_555 1_555
O9 C9 1_555 1_555
O10 Co2 1_555 1_555
H1 O10 1_555 1_555
H2 O10 1_555 1_555
O11 Co2 1_555 1_555
H3 O11 1_555 1_555
H4 O11 1_555 1_555
N1 Co3 1_555 1_555
N2 C10 1_555 1_555
N3 C20 1_555 1_555
N4 C21 1_555 1_555
C1 P1 1_555 1_555
C2 C1 1_555 1_555
C3 C2 1_555 1_555
H5 C3 1_555 1_555
C4 C3 1_555 1_555
C5 C4 1_555 1_555
C6 C1 1_555 1_555
H6 C6 1_555 1_555
C7 O4 1_555 1_555
C8 C4 1_555 1_555
C9 C5 1_555 1_555
C10 N1 1_555 1_555
H7 C10 1_555 1_555
C11 N1 1_555 1_555
H8 C11 1_555 1_555
C12 N2 1_555 1_555
H9 C12 1_555 1_555
C13 N2 1_555 1_555
H10 C13 1_555 1_555
H11 C13 1_555 1_555
C14 C13 1_555 1_555
C15 C14 1_555 1_555
H12 C15 1_555 1_555
C16 C15 1_555 1_555
H13 C16 1_555 1_555
C17 C16 1_555 1_555
C18 C17 1_555 1_555
H14 C18 1_555 1_555
C19 C14 1_555 1_555
H15 C19 1_555 1_555
C20 C17 1_555 1_555
H16 C20 1_555 1_555
H17 C20 1_555 1_555
C21 N3 1_555 1_555
H18 C21 1_555 1_555
C22 N3 1_555 1_555
H19 C22 1_555 1_555
C23 N4 1_555 1_555
H20 C23 1_555 1_555
O12 H21 1_555 1_555
H22 O12 1_555 1_555
O13 H23 1_555 1_555
H24 O13 1_555 1_555
O14 H25 1_555 1_555
H26 O14 1_555 1_555
Co2A O2A 1_555 1_555
Co3A O3A 1_555 1_555
P1A O1A 1_555 1_555
O1A Co3 1_555 1_555
O2A P1A 1_555 1_555
O3A P1A 1_555 1_555
O4A C7A 1_555 1_555
O5A C7A 1_555 1_555
O6A C8A 1_555 1_555
O7A C8A 1_555 1_555
O8A C9A 1_555 1_555
O9A C9A 1_555 1_555
O10A Co2A 1_555 1_555
H1A O10A 1_555 1_555
H2A O10A 1_555 1_555
O11A Co2A 1_555 1_555
H3A O11A 1_555 1_555
H4A O11A 1_555 1_555
N1A Co3A 1_555 1_555
N2A C10A 1_555 1_555
N3A C20A 1_555 1_555
N4A C21A 1_555 1_555
C1A P1A 1_555 1_555
C2A C1A 1_555 1_555
C3A C2A 1_555 1_555
H5A C3A 1_555 1_555
C4A C3A 1_555 1_555
C5A C4A 1_555 1_555
C6A C1A 1_555 1_555
H6A C6A 1_555 1_555
C7A C2A 1_555 1_555
C8A C4A 1_555 1_555
C9A C5A 1_555 1_555
C10A N1A 1_555 1_555
H7A C10A 1_555 1_555
C11A N1A 1_555 1_555
H8A C11A 1_555 1_555
C12A N2A 1_555 1_555
H9A C12A 1_555 1_555
C13A N2A 1_555 1_555
H10A C13A 1_555 1_555
H11A C13A 1_555 1_555
C14A C13A 1_555 1_555
C15A C14A 1_555 1_555
H12A C15A 1_555 1_555
C16A C15A 1_555 1_555
H13A C16A 1_555 1_555
C17A C16A 1_555 1_555
C18A C17A 1_555 1_555
H14A C18A 1_555 1_555
C19A C14A 1_555 1_555
H15A C19A 1_555 1_555
C20A C17A 1_555 1_555
H16A C20A 1_555 1_555
H17A C20A 1_555 1_555
C21A N3A 1_555 1_555
H18A C21A 1_555 1_555
C22A N3A 1_555 1_555
H19A C22A 1_555 1_555
C23A N4A 1_555 1_555
H20A C23A 1_555 1_555
Co1_2 O7A 1_555 1_555
Co1_3 O2A 1_555 1_555
Co1_4 O7 1_555 1_555
Co2_2 O6A 1_555 1_555
Co2_3 N4 1_555 1_555
Co2_4 O4A 1_555 1_555
Co2A_2 O4 1_555 1_555
Co2A_3 N4A 1_555 1_555
Co2A_4 O6 1_555 1_555
Co3_2 O8 1_555 1_555
Co3A_2 O8A 1_555 1_555
O2A_2 Co1 1_555 1_555
O4_2 Co2A 1_555 1_555
O4A_2 Co1 1_555 1_555
O6_2 Co2A 1_555 1_555
O6A_2 Co2 1_555 1_555
O7_2 Co1 1_555 1_555
O7A_2 Co1 1_555 1_555
O8_2 Co3 1_555 1_555
O8A_2 Co3A 1_555 1_555
N4_2 Co2 1_555 1_555
N4A_2 Co2A 1_555 1_555
Co2 O4A_2 1_555 1_555
C2 C7 1_555 1_555
C5 C6 1_555 1_555
C11 C12 1_555 1_555
C18 C19 1_555 1_555
C22 C23 1_555 1_555
O4A Co1_3 1_555 1_555
C5A C6A 1_555 1_555
C11A C12A 1_555 1_555
C18A C19A 1_555 1_555
C22A C23A 1_555 1_555
Co1_3 O4_2 1_555 1_555
Co2A_2 O2A_2 1_555 1_555

#END
