
#######################################################################
#
#                 Cambridge Crystallographic Data Centre
#                                CCDC 
#
#######################################################################
#
# If this CIF has been generated from an entry in the Cambridge 
# Structural Database, then it will include bibliographic, chemical, 
# crystal, experimental, refinement or atomic coordinate data resulting 
# from the CCDC's data processing and validation procedures.
#
#######################################################################

data_JUKGUT
_symmetry_cell_setting           monoclinic
_symmetry_space_group_name_H-M   'C 2/c'
_symmetry_Int_Tables_number      15
_space_group_name_Hall           '-C 2yn'
loop_
_symmetry_equiv_pos_site_id
_symmetry_equiv_pos_as_xyz
1 x,y,z
2 -x,y,1/2-z
3 1/2+x,1/2+y,z
4 1/2-x,1/2+y,1/2-z
5 -x,-y,-z
6 x,-y,1/2+z
7 1/2-x,1/2-y,-z
8 1/2+x,1/2-y,1/2+z
_cell_length_a                   21.523(2)
_cell_length_b                   22.114(2)
_cell_length_c                   8.7346(9)
_cell_angle_alpha                90
_cell_angle_beta                 95.5760(10)
_cell_angle_gamma                90
_cell_volume                     4137.65
loop_
_atom_site_label
_atom_site_type_symbol
_atom_site_fract_x
_atom_site_fract_y
_atom_site_fract_z
C1 C 0.09122(16) 0.32909(13) 1.2049(3)
C2 C 0.15185(19) 0.29462(17) 1.1938(4)
H1 H 0.1838 0.3114 1.2677
H2 H 0.1457 0.2527 1.2214
C3 C 0.15896(18) 0.25112(19) 0.9403(4)
C4 C 0.12559(17) 0.2007(2) 0.9661(4)
H3 H 0.1090 0.1959 1.0597
C5 C 0.11597(16) 0.1563(2) 0.8536(4)
H4 H 0.0935 0.1218 0.8741
C6 C 0.13915(16) 0.16233(19) 0.7117(3)
C7 C 0.1717(2) 0.2145(2) 0.6866(4)
H5 H 0.1870 0.2204 0.5917
C8 C 0.1822(2) 0.25818(19) 0.7986(4)
H6 H 0.2050 0.2926 0.7791
C9 C 0.12345(15) 0.1166(2) 0.5797(3)
C10 C 0.1149(2) 0.0524(2) 0.6431(4)
C11 C 0.06122(18) 0.1383(3) 0.4944(4)
C12 C 0.17511(14) 0.11158(17) 0.4697(3)
C13 C 0.23697(14) 0.10595(16) 0.5300(3)
H7 H 0.2468 0.1088 0.6358
C14 C 0.28449(14) 0.09625(16) 0.4365(3)
H8 H 0.3257 0.0935 0.4792
C15 C 0.27009(13) 0.09066(14) 0.2784(3)
C16 C 0.20933(14) 0.09697(17) 0.2168(3)
H9 H 0.1997 0.0946 0.1108
C17 C 0.16221(15) 0.10687(18) 0.3118(3)
H10 H 0.1212 0.1104 0.2684
C18 C 0.30311(13) 0.06536(15) 0.0350(3)
H11 H 0.2866 0.1009 -0.0201
H12 H 0.2710 0.0344 0.0269
C19 C 0.35997(12) 0.04283(13) -0.0354(3)
F1 F 0.11358(14) 0.01062(13) 0.5317(3)
F2 F 0.16153(12) 0.03788(12) 0.7473(2)
F3 F 0.06142(12) 0.04550(15) 0.7082(3)
F4 F 0.01964(10) 0.15298(17) 0.5930(3)
F5 F 0.03387(11) 0.09663(18) 0.3993(3)
F6 F 0.06899(12) 0.18809(16) 0.4120(3)
O1 O 0.08026(11) 0.34115(10) 1.3399(2)
O2 O 0.05898(10) 0.34347(9) 1.0835(2)
O3 O 0.17339(13) 0.29671(12) 1.0447(3)
O4 O 0.31924(9) 0.08011(10) 0.1926(2)
O5 O 0.35476(8) 0.03921(9) -0.17935(19)
O6 O 0.40850(8) 0.02670(9) 0.04462(19)
O7 O 0.04820(9) 0.41685(8) 1.62040(19)
H13 H 0.0493 0.3914 1.6643
O8 O 0.5000 -0.04421(10) 0.2500
Zn1 Zn 0.428720(13) 0.010752(14) 0.26937(3)
Zn2 Zn 0.015967(15) 0.397432(13) 1.41711(3)
C1A C -0.09122(16) 0.32909(13) 1.2951(3)
C2A C -0.15185(19) 0.29462(17) 1.3062(4)
H1A H -0.1838 0.3114 1.2323
H2A H -0.1457 0.2527 1.2786
C3A C -0.15896(18) 0.25112(19) 1.5597(4)
C4A C -0.12559(17) 0.2007(2) 1.5339(4)
H3A H -0.1090 0.1959 1.4403
C5A C -0.11597(16) 0.1563(2) 1.6464(4)
H4A H -0.0935 0.1218 1.6259
C6A C -0.13915(16) 0.16233(19) 1.7883(3)
C7A C -0.1717(2) 0.2145(2) 1.8134(4)
H5A H -0.1870 0.2204 1.9083
C8A C -0.1822(2) 0.25818(19) 1.7014(4)
H6A H -0.2050 0.2926 1.7209
C9A C -0.12345(15) 0.1166(2) 1.9203(3)
C10A C -0.1149(2) 0.0524(2) 1.8569(4)
C11A C -0.06122(18) 0.1383(3) 2.0056(4)
C12A C -0.17511(14) 0.11158(17) 2.0303(3)
C13A C -0.23697(14) 0.10595(16) 1.9700(3)
H7A H -0.2468 0.1088 1.8642
C14A C -0.28449(14) 0.09625(16) 2.0635(3)
H8A H -0.3257 0.0935 2.0208
C15A C -0.27009(13) 0.09066(14) 2.2216(3)
C16A C -0.20933(14) 0.09697(17) 2.2832(3)
H9A H -0.1997 0.0946 2.3892
C17A C -0.16221(15) 0.10687(18) 2.1882(3)
H10A H -0.1212 0.1104 2.2316
C18A C -0.30311(13) 0.06536(15) 2.4650(3)
H11A H -0.2866 0.1009 2.5201
H12A H -0.2710 0.0344 2.4731
C19A C -0.35997(12) 0.04283(13) 2.5354(3)
F1A F -0.11358(14) 0.01062(13) 1.9683(3)
F2A F -0.16153(12) 0.03788(12) 1.7527(2)
F3A F -0.06142(12) 0.04550(15) 1.7918(3)
F4A F -0.01964(10) 0.15298(17) 1.9070(3)
F5A F -0.03387(11) 0.09663(18) 2.1007(3)
F6A F -0.06899(12) 0.18809(16) 2.0880(3)
O1A O -0.08026(11) 0.34115(10) 1.1601(2)
O2A O -0.05898(10) 0.34347(9) 1.4165(2)
O3A O -0.17339(13) 0.29671(12) 1.4553(3)
O4A O -0.31924(9) 0.08011(10) 2.3074(2)
O5A O -0.35476(8) 0.03921(9) 2.67935(19)
O6A O -0.40850(8) 0.02670(9) 2.45538(19)
O7A O -0.04820(9) 0.41685(8) 0.87960(19)
H13A H -0.0493 0.3914 0.8357
Zn1A Zn -0.428720(13) 0.010752(14) 2.23063(3)
Zn2A Zn -0.015967(15) 0.397432(13) 1.08289(3)
O5D O -0.35476(8) -0.03921(9) 2.17935(19)
O5E O 0.35476(8) -0.03921(9) 0.32065(19)
O7F O 0.45180(9) 0.08315(8) 0.37960(19)
O7G O -0.45180(9) 0.08315(8) 2.12040(19)
O8_2 O -0.5000 -0.04421(10) 2.2500
O8B O 0.0000 0.45579(10) 1.2500
Zn1A_2 Zn 0.571280(13) 0.010752(14) 0.23063(3)
Zn1D Zn -0.428720(13) -0.010752(14) 2.73063(3)
Zn1E Zn 0.428720(13) -0.010752(14) -0.23063(3)
Zn1F Zn 0.071280(13) 0.489248(14) 1.73063(3)
Zn1G Zn -0.071280(13) 0.489248(14) 0.76937(3)
Zn2B Zn 0.515967(15) -0.102568(13) 0.41711(3)
Zn2C Zn 0.484033(15) -0.102568(13) 0.08289(3)
O9 O 0.0000 0.6936(2) 0.2500
H14 H 0.0015 0.7146 0.1719
H14A H -0.0015 0.7146 0.3281
loop_
_geom_bond_atom_site_label_1
_geom_bond_atom_site_label_2
_geom_bond_site_symmetry_1
_geom_bond_site_symmetry_2
C1 C2 1_555 1_555
C2 H1 1_555 1_555
H2 C2 1_555 1_555
C3 C4 1_555 1_555
C4 H3 1_555 1_555
C5 C4 1_555 1_555
H4 C5 1_555 1_555
C6 C5 1_555 1_555
C7 C6 1_555 1_555
H5 C7 1_555 1_555
C8 C3 1_555 1_555
H6 C8 1_555 1_555
C9 C6 1_555 1_555
C10 C9 1_555 1_555
C11 C9 1_555 1_555
C12 C9 1_555 1_555
C13 C12 1_555 1_555
H7 C13 1_555 1_555
C14 C13 1_555 1_555
H8 C14 1_555 1_555
C15 C14 1_555 1_555
C16 C15 1_555 1_555
H9 C16 1_555 1_555
C17 C12 1_555 1_555
H10 C17 1_555 1_555
C18 H11 1_555 1_555
H12 C18 1_555 1_555
C19 C18 1_555 1_555
F1 C10 1_555 1_555
F2 C10 1_555 1_555
F3 C10 1_555 1_555
F4 C11 1_555 1_555
F5 C11 1_555 1_555
F6 C11 1_555 1_555
O1 C1 1_555 1_555
O2 C1 1_555 1_555
O3 C2 1_555 1_555
O4 C15 1_555 1_555
O5 C19 1_555 1_555
O6 C19 1_555 1_555
O7 H13 1_555 1_555
O8 Zn1 1_555 1_555
Zn1 O6 1_555 1_555
Zn2 O1 1_555 1_555
O9 H14 1_555 1_555
C1A C2A 1_555 1_555
C2A H1A 1_555 1_555
H2A C2A 1_555 1_555
C3A C4A 1_555 1_555
C4A H3A 1_555 1_555
C5A C4A 1_555 1_555
H4A C5A 1_555 1_555
C6A C5A 1_555 1_555
C7A C6A 1_555 1_555
H5A C7A 1_555 1_555
C8A C3A 1_555 1_555
H6A C8A 1_555 1_555
C9A C6A 1_555 1_555
C10A C9A 1_555 1_555
C11A C9A 1_555 1_555
C12A C9A 1_555 1_555
C13A C12A 1_555 1_555
H7A C13A 1_555 1_555
C14A C13A 1_555 1_555
H8A C14A 1_555 1_555
C15A C14A 1_555 1_555
C16A C15A 1_555 1_555
H9A C16A 1_555 1_555
C17A C12A 1_555 1_555
H10A C17A 1_555 1_555
C18A H11A 1_555 1_555
H12A C18A 1_555 1_555
C19A C18A 1_555 1_555
F1A C10A 1_555 1_555
F2A C10A 1_555 1_555
F3A C10A 1_555 1_555
F4A C11A 1_555 1_555
F5A C11A 1_555 1_555
F6A C11A 1_555 1_555
O1A C1A 1_555 1_555
O2A Zn2 1_555 1_555
O3A C2A 1_555 1_555
O4A C15A 1_555 1_555
O5A C19A 1_555 1_555
O6A C19A 1_555 1_555
O7A H13A 1_555 1_555
Zn1A O6A 1_555 1_555
Zn2A O2 1_555 1_555
O5D Zn1A 1_555 1_555
O5E Zn1 1_555 1_555
O7F Zn1 1_555 1_555
O7G Zn1A 1_555 1_555
O8_2 Zn1A 1_555 1_555
O8B Zn2 1_555 1_555
Zn1A_2 O8 1_555 1_555
Zn1D O5A 1_555 1_555
Zn1E O5 1_555 1_555
Zn1F O7 1_555 1_555
Zn1G O7A 1_555 1_555
Zn2B O8 1_555 1_555
Zn2C O8 1_555 1_555
H14A O9 1_555 1_555
C3 O3 1_555 1_555
C7 C8 1_555 1_555
C16 C17 1_555 1_555
C18 O4 1_555 1_555
O7 Zn2 1_555 1_555
C1A O2A 1_555 1_555
C3A O3A 1_555 1_555
C7A C8A 1_555 1_555
C16A C17A 1_555 1_555
C18A O4A 1_555 1_555
O1A Zn2A 1_555 1_555
O7A Zn2A 1_555 1_555
Zn2A O8B 1_555 1_555

#END
