
#######################################################################
#
#                 Cambridge Crystallographic Data Centre
#                                CCDC 
#
#######################################################################
#
# If this CIF has been generated from an entry in the Cambridge 
# Structural Database, then it will include bibliographic, chemical, 
# crystal, experimental, refinement or atomic coordinate data resulting 
# from the CCDC's data processing and validation procedures.
#
#######################################################################

data_JUKHEE
_symmetry_cell_setting           triclinic
_symmetry_space_group_name_H-M   'P -1'
_symmetry_Int_Tables_number      2
_space_group_name_Hall           '-P 1'
loop_
_symmetry_equiv_pos_site_id
_symmetry_equiv_pos_as_xyz
1 x,y,z
2 -x,-y,-z
_cell_length_a                   8.5455(6)
_cell_length_b                   17.1099(12)
_cell_length_c                   27.4862(18)
_cell_angle_alpha                87.2300(10)
_cell_angle_beta                 87.2550(10)
_cell_angle_gamma                86.9490(10)
_cell_volume                     4004.3
loop_
_atom_site_label
_atom_site_type_symbol
_atom_site_fract_x
_atom_site_fract_y
_atom_site_fract_z
C1 C 0.8778(3) -0.19957(15) 0.62758(9)
C2 C 0.9435(3) -0.28233(16) 0.63319(9)
H1 H 0.9705 -0.2932 0.6668
H2 H 0.8635 -0.3177 0.6259
C3 C 1.0597(3) -0.31185(15) 0.55462(9)
C4 C 0.9210(3) -0.30422(16) 0.53095(10)
H3 H 0.8312 -0.2828 0.5467
C5 C 0.9149(3) -0.32829(16) 0.48386(10)
H4 H 0.8197 -0.3235 0.4687
C6 C 1.0451(3) -0.35912(15) 0.45864(9)
C7 C 1.1871(3) -0.35969(16) 0.48156(10)
H5 H 1.2792 -0.3752 0.4645
C8 C 1.1941(3) -0.33784(16) 0.52879(9)
H6 H 1.2900 -0.3405 0.5436
C9 C 1.0412(4) -0.38933(16) 0.40681(10)
C10 C 0.8844(5) -0.4282(2) 0.39902(14)
C11 C 1.0550(5) -0.3180(2) 0.37130(11)
C12 C 1.1734(4) -0.45203(15) 0.39702(10)
C13 C 1.2615(4) -0.45604(17) 0.35366(10)
H7 H 1.2381 -0.4203 0.3281
C14 C 1.3830(4) -0.51129(17) 0.34702(10)
H8 H 1.4386 -0.5132 0.3171
C15 C 1.4221(4) -0.56384(16) 0.38472(10)
C16 C 1.3315(4) -0.56250(17) 0.42758(10)
H9 H 1.3544 -0.5988 0.4529
C17 C 1.2087(4) -0.50874(17) 0.43353(10)
H10 H 1.1477 -0.5100 0.4625
C18 C 1.6385(3) -0.62029(18) 0.33938(10)
H11 H 1.7347 -0.6513 0.3453
H12 H 1.6668 -0.5675 0.3296
C19 C 1.5576(3) -0.65435(15) 0.29812(9)
C20 C 0.3817(3) -0.09761(15) 0.68670(9)
C21 C 0.2100(3) -0.07583(15) 0.69842(11)
H13 H 0.1460 -0.1102 0.6817
H14 H 0.1884 -0.0844 0.7332
C22 C 0.2286(3) 0.06051(16) 0.70974(10)
C23 C 0.3165(4) 0.04885(16) 0.75020(10)
H15 H 0.3398 -0.0018 0.7626
C24 C 0.3704(4) 0.11216(17) 0.77263(10)
H16 H 0.4291 0.1032 0.8002
C25 C 0.3398(3) 0.18828(15) 0.75534(10)
C26 C 0.2510(4) 0.19840(17) 0.71437(11)
H17 H 0.2281 0.2489 0.7017
C27 C 0.1961(4) 0.13607(17) 0.69194(11)
H18 H 0.1366 0.1448 0.6646
C28 C 0.4066(3) 0.26040(16) 0.77655(12)
C29 C 0.5545(4) 0.2784(2) 0.7441(2)
C30 C 0.4514(5) 0.2448(2) 0.82991(17)
C31 C 0.2856(3) 0.33175(15) 0.77636(10)
C32 C 0.3235(3) 0.40817(16) 0.76552(11)
H19 H 0.4272 0.4187 0.7571
C33 C 0.2118(3) 0.46940(16) 0.76680(11)
H20 H 0.2404 0.5202 0.7587
C34 C 0.0582(3) 0.45544(15) 0.78005(10)
C35 C 0.0190(3) 0.37916(16) 0.79278(11)
H21 H -0.0835 0.3690 0.8030
C36 C 0.1311(3) 0.31884(16) 0.79034(11)
H22 H 0.1024 0.2680 0.7983
C37 C -0.0366(3) 0.58538(14) 0.75900(10)
H23 H -0.0100 0.5790 0.7247
H24 H 0.0506 0.6086 0.7732
C38 C -0.1827(3) 0.63924(15) 0.76450(9)
C39 C 0.7844(3) -0.04988(15) 0.72893(9)
C40 C 0.8403(3) 0.01225(15) 0.76018(9)
H25 H 0.9264 0.0381 0.7430
H26 H 0.7557 0.0513 0.7657
C41 C 0.9069(3) 0.03292(15) 0.84117(9)
C42 C 0.9054(4) 0.00288(17) 0.88858(10)
H27 H 0.9002 -0.0508 0.8950
C43 C 0.9117(4) 0.05184(17) 0.92637(10)
H28 H 0.9099 0.0307 0.9582
C44 C 0.9206(3) 0.13204(15) 0.91838(9)
C45 C 0.9286(3) 0.16073(16) 0.87077(10)
H29 H 0.9384 0.2141 0.8643
C46 C 0.9224(3) 0.11177(16) 0.83224(9)
H30 H 0.9287 0.1324 0.8003
C47 C 0.9205(3) 0.18382(16) 0.96296(9)
C48 C 0.8814(5) 0.2710(2) 0.94927(12)
C49 C 1.0879(4) 0.1762(2) 0.98180(11)
C50 C 0.7963(3) 0.15863(17) 1.00211(9)
C51 C 0.6503(4) 0.1379(2) 0.98789(11)
H31 H 0.6330 0.1361 0.9548
C52 C 0.5317(4) 0.1200(2) 1.02109(11)
H32 H 0.4359 0.1059 1.0104
C53 C 0.5536(4) 0.12273(19) 1.07036(11)
C54 C 0.6976(4) 0.14156(19) 1.08537(10)
H33 H 0.7149 0.1422 1.1185
C55 C 0.8165(3) 0.15954(18) 1.05169(10)
H34 H 0.9127 0.1726 1.0626
C56 C 0.4318(4) 0.12264(18) 1.15064(10)
H35 H 0.5233 0.0951 1.1640
H36 H 0.3396 0.1029 1.1681
C57 C 0.4387(3) 0.20864(16) 1.15891(10)
C58 C 0.5361(3) -0.18531(17) 0.55238(12)
H37 H 0.5000 -0.2166 0.5787
C59 C 0.5139(4) -0.2083(2) 0.50530(13)
H38 H 0.4630 -0.2539 0.5007
C60 C 0.5665(4) -0.1640(2) 0.46629(12)
H39 H 0.5526 -0.1792 0.4348
C61 C 0.6418(3) -0.09526(17) 0.47364(10)
C62 C 0.7011(4) -0.0444(2) 0.43527(10)
H40 H 0.6879 -0.0561 0.4031
C63 C 0.7751(4) 0.0197(2) 0.44444(10)
H41 H 0.8138 0.0511 0.4185
C64 C 0.7961(3) 0.04093(16) 0.49310(10)
C65 C 0.8738(4) 0.10666(18) 0.50476(12)
H42 H 0.9164 0.1394 0.4802
C66 C 0.8867(4) 0.12234(18) 0.55198(13)
H43 H 0.9377 0.1663 0.5600
C67 C 0.8238(4) 0.07273(17) 0.58878(11)
H44 H 0.8344 0.0844 0.6211
C68 C 0.7366(3) -0.00673(14) 0.53217(9)
C69 C 0.6591(3) -0.07615(15) 0.52214(9)
C70 C 0.8482(4) 0.2535(2) 1.17894(11)
H45 H 0.8136 0.2168 1.2025
C71 C 1.0011(4) 0.2448(3) 1.15941(14)
H46 H 1.0670 0.2029 1.1697
C72 C 1.0522(4) 0.2981(3) 1.12532(14)
H47 H 1.1537 0.2924 1.1118
C73 C 0.9547(4) 0.3616(2) 1.11019(12)
C74 C 0.9967(6) 0.4223(3) 1.07556(15)
H48 H 1.0978 0.4210 1.0614
C75 C 0.8962(6) 0.4806(3) 1.06274(15)
H49 H 0.9294 0.5191 1.0401
C76 C 0.7371(5) 0.4861(2) 1.08288(12)
C77 C 0.6241(7) 0.5435(3) 1.06999(15)
H50 H 0.6484 0.5820 1.0462
C78 C 0.4784(7) 0.5441(2) 1.09189(16)
H51 H 0.4022 0.5821 1.0827
C79 C 0.4438(5) 0.48698(19) 1.12829(13)
H52 H 0.3446 0.4885 1.1438
C80 C 0.6921(4) 0.42946(18) 1.11851(10)
C81 C 0.8012(4) 0.36583(18) 1.13170(10)
F1 F 0.8508(3) -0.47912(13) 0.43527(9)
F2 F 0.8922(3) -0.46724(15) 0.35807(8)
F3 F 0.7611(3) -0.37714(15) 0.39564(8)
F4 F 0.9509(3) -0.25990(11) 0.38351(6)
F5 F 1.1958(3) -0.28887(10) 0.37213(7)
F6 F 1.0296(3) -0.33233(12) 0.32520(6)
F7 F 0.6480(2) 0.21359(13) 0.73876(11)
F8 F 0.5184(3) 0.30560(13) 0.70011(10)
F9 F 0.6431(2) 0.33047(14) 0.76257(12)
F10 F 0.4887(3) 0.31044(14) 0.84943(10)
F11 F 0.3353(3) 0.21501(14) 0.85653(7)
F12 F 0.5761(3) 0.19469(13) 0.83433(10)
F13 F 0.7492(3) 0.27981(11) 0.92530(8)
F14 F 0.8584(3) 0.31338(11) 0.98888(7)
F15 F 0.9939(3) 0.30495(11) 0.92168(7)
F16 F 1.1963(2) 0.18599(13) 0.94604(7)
F17 F 1.1186(2) 0.10613(12) 1.00298(6)
F18 F 1.1140(2) 0.22901(12) 1.01477(7)
N1 N 0.6063(3) -0.12100(12) 0.56092(7)
N2 N 0.7496(3) 0.00957(12) 0.57930(8)
N3 N 0.7498(3) 0.31228(13) 1.16530(8)
N4 N 0.5477(3) 0.43106(13) 1.14133(8)
O1 O 0.7490(2) -0.18526(9) 0.65257(6)
O2 O 0.9401(2) -0.15069(11) 0.60074(7)
O3 O 1.0789(2) -0.29718(12) 0.60213(6)
O4 O 1.5452(2) -0.61801(11) 0.38349(6)
O5 O 1.4466(2) -0.69606(10) 0.30841(6)
O6 O 1.6158(2) -0.63691(11) 0.25622(7)
O7 O 0.4401(2) -0.15218(11) 0.71208(8)
O8 O 0.4476(2) -0.05926(12) 0.65296(7)
O9 O 0.1659(2) 0.00328(11) 0.68474(7)
O10 O -0.0621(2) 0.51146(11) 0.78236(8)
O11 O -0.2984(2) 0.61273(11) 0.78728(7)
O12 O -0.1699(2) 0.70664(10) 0.74472(6)
O13 O 0.7657(2) -0.11724(10) 0.74687(6)
O14 O 0.7601(3) -0.02420(11) 0.68644(6)
O15 O 0.8904(2) -0.01968(10) 0.80555(6)
O16 O 0.4261(3) 0.10601(14) 1.10051(8)
O17 O 0.4284(2) 0.25857(12) 1.12574(7)
O18 O 0.4612(2) 0.22609(10) 1.20280(6)
Zn1 Zn 0.65345(3) -0.212788(16) 0.724603(10)
Zn2 Zn 0.66989(4) -0.075887(17) 0.630250(10)
Zn3 Zn 0.51492(4) 0.341054(17) 1.194301(11)
O5A O 0.5534(2) -0.30394(10) 0.69159(6)
O6_2 O 0.6158(2) 0.36309(11) 1.25622(7)
O11A O 0.2984(2) 0.38727(11) 1.21272(7)
O12_2 O 0.8301(2) -0.29336(10) 0.74472(6)
O18A O 0.5388(2) -0.22609(10) 0.79720(6)
Zn1_2 Zn -0.34655(3) 0.787212(16) 0.724603(10)
Zn1A Zn 0.34655(3) 0.212788(16) 1.275397(10)
Zn1A_2 Zn 1.34655(3) -0.787212(16) 0.275397(10)
Zn3_2 Zn 1.51492(4) -0.658946(17) 0.194301(11)
Zn3A Zn -0.51492(4) 0.658946(17) 0.805699(11)
O19 O 0.5674(6) 0.6650(2) 0.96890(14)
H53 H 0.4979 0.6478 0.9881
H54 H 0.5285 0.6894 0.9451
loop_
_geom_bond_atom_site_label_1
_geom_bond_atom_site_label_2
_geom_bond_site_symmetry_1
_geom_bond_site_symmetry_2
C1 C2 1_555 1_555
C2 H1 1_555 1_555
H2 C2 1_555 1_555
C3 C4 1_555 1_555
C4 H3 1_555 1_555
C5 C4 1_555 1_555
H4 C5 1_555 1_555
C6 C5 1_555 1_555
C7 C6 1_555 1_555
H5 C7 1_555 1_555
C8 C3 1_555 1_555
H6 C8 1_555 1_555
C9 C6 1_555 1_555
C10 C9 1_555 1_555
C11 C9 1_555 1_555
C12 C9 1_555 1_555
C13 C12 1_555 1_555
H7 C13 1_555 1_555
C14 C13 1_555 1_555
H8 C14 1_555 1_555
C15 C14 1_555 1_555
C16 C15 1_555 1_555
H9 C16 1_555 1_555
C17 C12 1_555 1_555
H10 C17 1_555 1_555
C18 H11 1_555 1_555
H12 C18 1_555 1_555
C19 C18 1_555 1_555
C20 C21 1_555 1_555
C21 H13 1_555 1_555
H14 C21 1_555 1_555
C22 C23 1_555 1_555
C23 H15 1_555 1_555
C24 C23 1_555 1_555
H16 C24 1_555 1_555
C25 C24 1_555 1_555
C26 C25 1_555 1_555
H17 C26 1_555 1_555
C27 C22 1_555 1_555
H18 C27 1_555 1_555
C28 C25 1_555 1_555
C29 C28 1_555 1_555
C30 C28 1_555 1_555
C31 C28 1_555 1_555
C32 C31 1_555 1_555
H19 C32 1_555 1_555
C33 C32 1_555 1_555
H20 C33 1_555 1_555
C34 C33 1_555 1_555
C35 C34 1_555 1_555
H21 C35 1_555 1_555
C36 C31 1_555 1_555
H22 C36 1_555 1_555
C37 H23 1_555 1_555
H24 C37 1_555 1_555
C38 C37 1_555 1_555
C39 C40 1_555 1_555
C40 H25 1_555 1_555
H26 C40 1_555 1_555
C41 C42 1_555 1_555
C42 H27 1_555 1_555
C43 C42 1_555 1_555
H28 C43 1_555 1_555
C44 C43 1_555 1_555
C45 C44 1_555 1_555
H29 C45 1_555 1_555
C46 C41 1_555 1_555
H30 C46 1_555 1_555
C47 C44 1_555 1_555
C48 C47 1_555 1_555
C49 C47 1_555 1_555
C50 C47 1_555 1_555
C51 C50 1_555 1_555
H31 C51 1_555 1_555
C52 C51 1_555 1_555
H32 C52 1_555 1_555
C53 C52 1_555 1_555
C54 C53 1_555 1_555
H33 C54 1_555 1_555
C55 C50 1_555 1_555
H34 C55 1_555 1_555
C56 H35 1_555 1_555
H36 C56 1_555 1_555
C57 C56 1_555 1_555
C58 H37 1_555 1_555
C59 C58 1_555 1_555
H38 C59 1_555 1_555
C60 C59 1_555 1_555
H39 C60 1_555 1_555
C61 C60 1_555 1_555
C62 C61 1_555 1_555
H40 C62 1_555 1_555
C63 C62 1_555 1_555
H41 C63 1_555 1_555
C64 C63 1_555 1_555
C65 C64 1_555 1_555
H42 C65 1_555 1_555
C66 C65 1_555 1_555
H43 C66 1_555 1_555
C67 C66 1_555 1_555
H44 C67 1_555 1_555
C68 C64 1_555 1_555
C69 C61 1_555 1_555
C70 H45 1_555 1_555
C71 C70 1_555 1_555
H46 C71 1_555 1_555
C72 C71 1_555 1_555
H47 C72 1_555 1_555
C73 C72 1_555 1_555
C74 C73 1_555 1_555
H48 C74 1_555 1_555
C75 C74 1_555 1_555
H49 C75 1_555 1_555
C76 C75 1_555 1_555
C77 C76 1_555 1_555
H50 C77 1_555 1_555
C78 C77 1_555 1_555
H51 C78 1_555 1_555
C79 C78 1_555 1_555
H52 C79 1_555 1_555
C80 C76 1_555 1_555
C81 C73 1_555 1_555
F1 C10 1_555 1_555
F2 C10 1_555 1_555
F3 C10 1_555 1_555
F4 C11 1_555 1_555
F5 C11 1_555 1_555
F6 C11 1_555 1_555
F7 C29 1_555 1_555
F8 C29 1_555 1_555
F9 C29 1_555 1_555
F10 C30 1_555 1_555
F11 C30 1_555 1_555
F12 C30 1_555 1_555
F13 C48 1_555 1_555
F14 C48 1_555 1_555
F15 C48 1_555 1_555
F16 C49 1_555 1_555
F17 C49 1_555 1_555
F18 C49 1_555 1_555
N1 C58 1_555 1_555
N2 C67 1_555 1_555
N3 C70 1_555 1_555
N4 C79 1_555 1_555
O1 C1 1_555 1_555
O2 C1 1_555 1_555
O3 C2 1_555 1_555
O4 C15 1_555 1_555
O5 C19 1_555 1_555
O6 C19 1_555 1_555
O7 C20 1_555 1_555
O8 C20 1_555 1_555
O9 C21 1_555 1_555
O10 C34 1_555 1_555
O11 C38 1_555 1_555
O12 C38 1_555 1_555
O13 C39 1_555 1_555
O14 C39 1_555 1_555
O15 C40 1_555 1_555
O16 C53 1_555 1_555
O17 C57 1_555 1_555
O18 C57 1_555 1_555
Zn1 O1 1_555 1_555
Zn2 N1 1_555 1_555
Zn3 N3 1_555 1_555
O19 H53 1_555 1_555
H54 O19 1_555 1_555
O5A Zn1 1_555 1_555
O6_2 Zn3 1_555 1_555
O11A Zn3 1_555 1_555
O12_2 Zn1 1_555 1_555
O18A Zn1 1_555 1_555
Zn1_2 O12 1_555 1_555
Zn1A O18 1_555 1_555
Zn1A_2 O5 1_555 1_555
Zn3_2 O6 1_555 1_555
Zn3A O11 1_555 1_555
C3 O3 1_555 1_555
C7 C8 1_555 1_555
C16 C17 1_555 1_555
C18 O4 1_555 1_555
C22 O9 1_555 1_555
C26 C27 1_555 1_555
C35 C36 1_555 1_555
C37 O10 1_555 1_555
C41 O15 1_555 1_555
C45 C46 1_555 1_555
C54 C55 1_555 1_555
C56 O16 1_555 1_555
C68 C69 1_555 1_555
C68 N2 1_555 1_555
C69 N1 1_555 1_555
C80 C81 1_555 1_555
C80 N4 1_555 1_555
C81 N3 1_555 1_555
N2 Zn2 1_555 1_555
N4 Zn3 1_555 1_555
O1 Zn2 1_555 1_555
O7 Zn1 1_555 1_555
O8 Zn2 1_555 1_555
O13 Zn1 1_555 1_555
O14 Zn2 1_555 1_555
O17 Zn3 1_555 1_555
O18 Zn3 1_555 1_555

#END
