
#######################################################################
#
#                 Cambridge Crystallographic Data Centre
#                                CCDC 
#
#######################################################################
#
# If this CIF has been generated from an entry in the Cambridge 
# Structural Database, then it will include bibliographic, chemical, 
# crystal, experimental, refinement or atomic coordinate data resulting 
# from the CCDC's data processing and validation procedures.
#
#######################################################################

data_JUKHAA
_symmetry_cell_setting           orthorhombic
_symmetry_space_group_name_H-M   'P c a 21'
_symmetry_Int_Tables_number      29
_space_group_name_Hall           'P 2c -2ac'
loop_
_symmetry_equiv_pos_site_id
_symmetry_equiv_pos_as_xyz
1 x,y,z
2 -x,-y,1/2+z
3 1/2+x,-y,z
4 1/2-x,y,1/2+z
_cell_length_a                   7.1037(6)
_cell_length_b                   12.7915(10)
_cell_length_c                   31.132(3)
_cell_angle_alpha                90
_cell_angle_beta                 90
_cell_angle_gamma                90
_cell_volume                     2828.87
loop_
_atom_site_label
_atom_site_type_symbol
_atom_site_fract_x
_atom_site_fract_y
_atom_site_fract_z
O1 O 1.3534(3) 1.18649(16) -0.09148(7)
O2 O 1.3700(4) 1.02121(18) -0.11333(8)
C1 C 1.3197(4) 1.0892(2) -0.08803(10)
Zn1 Zn 0.49891(5) 0.75979(2) 0.35884(2)
N1 N 0.3938(4) 0.6495(2) 0.31012(10)
N2 N 0.5027(3) 0.6104(2) 0.38943(9)
C2 C 0.4030(4) 0.5483(2) 0.32061(11)
C3 C 0.3188(6) 0.4993(3) 0.24932(13)
H1 H 0.2948 0.4484 0.2287
C4 C 0.3672(5) 0.4708(3) 0.29038(12)
H2 H 0.3760 0.4006 0.2979
C5 C 0.4653(5) 0.4255(3) 0.38258(13)
H3 H 0.4363 0.3680 0.3656
C6 C 0.4581(4) 0.5260(2) 0.36564(11)
C7 C 0.5510(5) 0.5953(3) 0.43053(11)
H4 H 0.5812 0.6535 0.4471
C8 C 0.3442(6) 0.6766(3) 0.27051(13)
H5 H 0.3349 0.7472 0.2638
C9 C 0.3059(6) 0.6033(4) 0.23878(13)
H6 H 0.2723 0.6240 0.2112
C10 C 0.5580(5) 0.4986(3) 0.44947(12)
H7 H 0.5904 0.4916 0.4783
C11 C 0.5162(5) 0.4126(3) 0.42497(14)
H8 H 0.5222 0.3460 0.4369
O3 O 0.6385(3) 0.8317(2) 0.31170(8)
O4 O 1.0398(3) 0.9173(2) 0.25977(7)
C12 C 0.8154(4) 0.8394(2) 0.31051(10)
C13 C 0.8911(5) 0.9382(2) 0.28982(11)
H9 H 0.7893 0.9738 0.2751
H10 H 0.9379 0.9846 0.3121
O5 O 0.9279(4) 0.77503(18) 0.32491(9)
C14 C 0.8119(5) 0.8376(3) 0.21112(11)
H11 H 0.7138 0.8440 0.2307
C15 C 0.9199(5) 0.7845(3) 0.14100(10)
C16 C 1.0986(5) 0.8213(3) 0.15190(11)
H12 H 1.1959 0.8161 0.1320
C17 C 1.1333(5) 0.8649(3) 0.19132(11)
H13 H 1.2533 0.8892 0.1979
C18 C 0.7810(5) 0.7927(3) 0.17155(11)
H14 H 0.6617 0.7670 0.1653
C19 C 0.9901(5) 0.8730(3) 0.22143(11)
C20 C 1.1545(4) 0.9050(2) -0.00629(10)
C21 C 0.9982(5) 0.7899(3) 0.06106(11)
C22 C 1.0954(6) 0.7405(3) 0.02826(11)
H15 H 1.1080 0.6681 0.0286
C23 C 1.0623(5) 0.9559(2) 0.02665(10)
H16 H 1.0527 1.0284 0.0266
C24 C 1.1742(5) 0.7977(3) -0.00511(11)
H17 H 1.2405 0.7636 -0.0267
C25 C 0.8941(5) 0.7300(3) 0.09711(10)
C26 C 0.6859(6) 0.7237(4) 0.08360(12)
C27 C 0.9838(5) 0.8977(3) 0.05983(11)
H18 H 0.9200 0.9321 0.0817
C28 C 0.9711(7) 0.6177(3) 0.10258(13)
O6 O 1.2309(3) 0.95169(18) -0.04124(7)
C29 C 1.2089(5) 1.0612(2) -0.04814(10)
H19 H 1.2560 1.1000 -0.0236
H20 H 1.0770 1.0782 -0.0521
O7 O 0.2470(3) 0.8252(2) 0.36831(9)
H21 H 0.1728 0.8037 0.3502
F1 F 0.6015(3) 0.8161(2) 0.08595(8)
F2 F 0.5842(4) 0.6572(2) 0.10706(8)
F3 F 0.8996(5) 0.57139(19) 0.13793(8)
F4 F 0.9259(5) 0.55366(18) 0.06985(8)
F5 F 1.1566(4) 0.61661(19) 0.10668(9)
F6 F 0.6688(4) 0.6915(2) 0.04260(8)
H22 H 0.226(7) 0.883(4) 0.3783(16)
O1A O 0.6466(3) 0.81351(16) 0.40852(7)
Zn1A Zn 1.50109(5) 1.24021(2) -0.14116(2)
loop_
_geom_bond_atom_site_label_1
_geom_bond_atom_site_label_2
_geom_bond_site_symmetry_1
_geom_bond_site_symmetry_2
O1 C1 1_555 1_555
O2 C1 1_555 1_555
C1 C29 1_555 1_555
Zn1 N1 1_555 1_555
N1 C2 1_555 1_555
N2 Zn1 1_555 1_555
C2 C4 1_555 1_555
C3 H1 1_555 1_555
C4 C3 1_555 1_555
H2 C4 1_555 1_555
C5 H3 1_555 1_555
C6 N2 1_555 1_555
C7 N2 1_555 1_555
H4 C7 1_555 1_555
C8 N1 1_555 1_555
H5 C8 1_555 1_555
C9 C3 1_555 1_555
H6 C9 1_555 1_555
C10 C7 1_555 1_555
H7 C10 1_555 1_555
C11 C5 1_555 1_555
H8 C11 1_555 1_555
O3 Zn1 1_555 1_555
O4 C13 1_555 1_555
C12 O3 1_555 1_555
C13 C12 1_555 1_555
H9 C13 1_555 1_555
H10 C13 1_555 1_555
O5 C12 1_555 1_555
C14 H11 1_555 1_555
C15 C16 1_555 1_555
C16 H12 1_555 1_555
C17 C16 1_555 1_555
H13 C17 1_555 1_555
C18 C14 1_555 1_555
H14 C18 1_555 1_555
C19 O4 1_555 1_555
C20 C23 1_555 1_555
C21 C22 1_555 1_555
C22 H15 1_555 1_555
C23 H16 1_555 1_555
C24 C20 1_555 1_555
H17 C24 1_555 1_555
C25 C15 1_555 1_555
C26 C25 1_555 1_555
C27 C21 1_555 1_555
H18 C27 1_555 1_555
C28 C25 1_555 1_555
O6 C20 1_555 1_555
C29 O6 1_555 1_555
H19 C29 1_555 1_555
H20 C29 1_555 1_555
O7 Zn1 1_555 1_555
H21 O7 1_555 1_555
F1 C26 1_555 1_555
F2 C26 1_555 1_555
F3 C28 1_555 1_555
F4 C28 1_555 1_555
F5 C28 1_555 1_555
F6 C26 1_555 1_555
H22 O7 1_555 1_555
O1A Zn1 1_555 1_555
Zn1A O1 1_555 1_555
C2 C6 1_555 1_555
C5 C6 1_555 1_555
C8 C9 1_555 1_555
C10 C11 1_555 1_555
C14 C19 1_555 1_555
C15 C18 1_555 1_555
C17 C19 1_555 1_555
C21 C25 1_555 1_555
C22 C24 1_555 1_555
C23 C27 1_555 1_555

#END
