
#######################################################################
#
#                 Cambridge Crystallographic Data Centre
#                                CCDC 
#
#######################################################################
#
# If this CIF has been generated from an entry in the Cambridge 
# Structural Database, then it will include bibliographic, chemical, 
# crystal, experimental, refinement or atomic coordinate data resulting 
# from the CCDC's data processing and validation procedures.
#
#######################################################################

data_JUKKIL
_symmetry_cell_setting           monoclinic
_symmetry_space_group_name_H-M   'C c'
_symmetry_Int_Tables_number      9
_space_group_name_Hall           'C -2yc'
loop_
_symmetry_equiv_pos_site_id
_symmetry_equiv_pos_as_xyz
1 x,y,z
2 x,-y,1/2+z
3 1/2+x,1/2+y,z
4 1/2+x,1/2-y,1/2+z
_cell_length_a                   9.6827(10)
_cell_length_b                   27.686(3)
_cell_length_c                   9.1050(7)
_cell_angle_alpha                90
_cell_angle_beta                 121.794(3)
_cell_angle_gamma                90
_cell_volume                     2074.57
loop_
_atom_site_label
_atom_site_type_symbol
_atom_site_fract_x
_atom_site_fract_y
_atom_site_fract_z
Nd1 Nd -0.02568(13) 0.50916(3) -0.00127(13)
O1 O 0.124(2) 0.4833(7) 0.299(3)
O2 O 0.261(3) 0.4615(8) 0.570(3)
O3 O -0.177(2) 0.4341(7) -0.004(3)
H1 H -0.1940 0.4151 -0.0899
H2 H -0.2718 0.4419 -0.0184
O4 O 0.131(2) 0.4350(7) 0.001(3)
H3 H 0.0957 0.4082 0.0282
H4 H 0.2382 0.4383 0.0803
O5 O 0.825(3) 0.4839(8) 0.697(3)
O6 O 0.700(2) 0.4601(8) 0.429(3)
C1 C 0.252(4) 0.4674(10) 0.433(4)
C2 C 0.388(3) 0.4572(9) 0.421(3)
H5 H 0.3855 0.4785 0.3330
H6 H 0.3795 0.4234 0.3816
C3 C 0.549(3) 0.4636(9) 0.590(3)
H7 H 0.5678 0.4351 0.6639
H8 H 0.5416 0.4923 0.6499
C4 C 0.701(3) 0.4699(9) 0.567(4)
O7 O -0.094(2) 0.5837(7) -0.174(2)
O8 O 0.059(2) 0.5861(7) 0.172(3)
C5 C -0.066(4) 0.6254(7) -0.096(4)
C6 C 0.035(4) 0.6249(7) 0.106(4)
Nd2 Nd -0.00800(15) 0.74104(3) -0.00265(14)
O9 O -0.106(2) 0.6662(7) -0.174(2)
O10 O 0.086(3) 0.6646(7) 0.173(3)
O11 O 0.146(3) 0.7666(6) 0.299(3)
O12 O 0.287(3) 0.7914(8) 0.569(3)
O13 O -0.294(3) 0.7902(10) 0.429(3)
O14 O -0.156(3) 0.7653(9) 0.697(3)
O15 O -0.154(2) 0.8154(6) 0.000(3)
H9 H -0.1895 0.8113 0.0699
H10 H -0.2366 0.8212 -0.1049
O16 O 0.147(2) 0.8150(7) -0.005(3)
C7 C 0.147(4) 0.7804(9) 0.432(4)
C8 C -0.012(4) 0.7860(12) 0.422(4)
H11 H -0.0723 0.8127 0.3408
H12 H -0.0758 0.7561 0.3693
C9 C -0.015(4) 0.7953(11) 0.580(4)
H13 H 0.0734 0.7765 0.6765
H14 H 0.0080 0.8299 0.6101
C10 C -0.164(4) 0.7834(11) 0.566(4)
Nd1_2 Nd 0.97432(13) 0.50916(3) 0.99873(13)
Nd1A Nd -0.02568(13) 0.49084(3) 0.49873(13)
Nd1A_2 Nd 0.97432(13) 0.49084(3) 0.49873(13)
O1A O 0.124(2) 0.5167(7) -0.201(3)
O2A O 0.261(3) 0.5385(8) 0.070(3)
O5_2 O -0.175(3) 0.4839(8) -0.303(3)
O5A O -0.175(3) 0.5161(8) 0.197(3)
O6A O -0.300(2) 0.5399(8) -0.071(3)
Nd2_2 Nd -0.00800(15) 0.74104(3) 0.99735(14)
Nd2C Nd -0.50800(15) 0.75896(3) 0.49735(14)
Nd2C_2 Nd 0.49200(15) 0.75896(3) 0.49735(14)
O11C O -0.354(3) 0.7334(6) -0.201(3)
O12C O -0.213(3) 0.7086(8) 0.069(3)
O13C O 0.206(3) 0.7098(10) -0.071(3)
O14_2 O -0.156(3) 0.7653(9) -0.303(3)
O14C O 0.344(3) 0.7347(9) 0.197(3)
O17 O 0.488(3) 0.5931(8) 0.363(3)
O18 O 0.842(3) 0.6547(9) 0.359(3)
O19 O 0.484(5) 0.5977(13) 0.647(5)
O20 O 0.141(5) 0.6540(12) 0.650(5)
loop_
_geom_bond_atom_site_label_1
_geom_bond_atom_site_label_2
_geom_bond_site_symmetry_1
_geom_bond_site_symmetry_2
Nd1 O1 1_555 1_555
O1 C1 1_555 1_555
O2 C1 1_555 1_555
O3 Nd1 1_555 1_555
H1 O3 1_555 1_555
H2 O3 1_555 1_555
O4 Nd1 1_555 1_555
H3 O4 1_555 1_555
H4 O4 1_555 1_555
O5 C4 1_555 1_555
O6 C4 1_555 1_555
C1 C2 1_555 1_555
C2 H5 1_555 1_555
H6 C2 1_555 1_555
C3 C2 1_555 1_555
H7 C3 1_555 1_555
H8 C3 1_555 1_555
C4 C3 1_555 1_555
O7 Nd1 1_555 1_555
O8 Nd1 1_555 1_555
C5 O7 1_555 1_555
C6 O8 1_555 1_555
Nd2 O9 1_555 1_555
O9 C5 1_555 1_555
O10 C6 1_555 1_555
O11 Nd2 1_555 1_555
O12 C7 1_555 1_555
O13 C10 1_555 1_555
O14 C10 1_555 1_555
O15 Nd2 1_555 1_555
H9 O15 1_555 1_555
H10 O15 1_555 1_555
O16 Nd2 1_555 1_555
C7 O11 1_555 1_555
C8 C7 1_555 1_555
H11 C8 1_555 1_555
H12 C8 1_555 1_555
C9 C8 1_555 1_555
H13 C9 1_555 1_555
H14 C9 1_555 1_555
C10 C9 1_555 1_555
Nd1_2 O5 1_555 1_555
Nd1A O1 1_555 1_555
Nd1A_2 O5 1_555 1_555
O1A Nd1 1_555 1_555
O2A Nd1 1_555 1_555
O5_2 Nd1 1_555 1_555
O5A Nd1 1_555 1_555
O6A Nd1 1_555 1_555
Nd2_2 O14 1_555 1_555
Nd2C O13 1_555 1_555
Nd2C_2 O11 1_555 1_555
O11C Nd2 1_555 1_555
O12C Nd2 1_555 1_555
O13C Nd2 1_555 1_555
O14_2 Nd2 1_555 1_555
O14C Nd2 1_555 1_555
O2 Nd1A 1_555 1_555
O6 Nd1A_2 1_555 1_555
C5 C6 1_555 1_555
Nd2 O10 1_555 1_555
O12 Nd2C_2 1_555 1_555
O14 Nd2C 1_555 1_555
Nd1A O5A 1_555 1_555
Nd2C_2 O14C 1_555 1_555

#END
