
#######################################################################
#
#                 Cambridge Crystallographic Data Centre
#                                CCDC 
#
#######################################################################
#
# If this CIF has been generated from an entry in the Cambridge 
# Structural Database, then it will include bibliographic, chemical, 
# crystal, experimental, refinement or atomic coordinate data resulting 
# from the CCDC's data processing and validation procedures.
#
#######################################################################

data_JUKMEJ01
_symmetry_cell_setting           orthorhombic
_symmetry_space_group_name_H-M   'P 21 21 2'
_symmetry_Int_Tables_number      18
_space_group_name_Hall           'P 2 2ab'
loop_
_symmetry_equiv_pos_site_id
_symmetry_equiv_pos_as_xyz
1 x,y,z
2 -x,-y,z
3 1/2+x,1/2-y,-z
4 1/2-x,1/2+y,-z
_cell_length_a                   17.420(3)
_cell_length_b                   20.468(4)
_cell_length_c                   5.0236(9)
_cell_angle_alpha                90
_cell_angle_beta                 90
_cell_angle_gamma                90
_cell_volume                     1791.18
loop_
_atom_site_label
_atom_site_type_symbol
_atom_site_fract_x
_atom_site_fract_y
_atom_site_fract_z
Ca1 Ca 0.34883(5) 0.35264(4) -0.20917(19)
O1 O 0.45407(19) 0.30140(16) 0.0117(6)
O2 O 0.41231(18) 0.31633(16) 0.4244(6)
C1 C 0.4625(3) 0.3007(2) 0.2622(10)
C2 C 0.5390(3) 0.2762(2) 0.3733(9)
H1 H 0.5790 0.2780 0.2307
C3 C 0.5309(3) 0.2053(2) 0.4730(10)
H2 H 0.4948 0.2052 0.6278
C4 C 0.6082(3) 0.1779(2) 0.5670(11)
H3 H 0.6014 0.1327 0.6263
H4 H 0.6275 0.2044 0.7150
H5 H 0.6450 0.1792 0.4197
C5 C 0.4972(3) 0.1615(2) 0.2567(11)
H6 H 0.5293 0.1640 0.0968
H7 H 0.4451 0.1761 0.2140
H8 H 0.4957 0.1163 0.3203
N1 N 0.5618(2) 0.3200(2) 0.5979(9)
H9 H 0.555(3) 0.3630(15) 0.531(10)
H10 H 0.6135(16) 0.316(2) 0.643(10)
H11 H 0.533(2) 0.316(2) 0.753(7)
O3 O 0.28902(19) 0.40409(16) 0.1345(6)
O4 O 0.27071(19) 0.43074(15) 0.5593(6)
C6 C 0.2706(2) 0.4429(2) 0.3134(10)
C7 C 0.2425(2) 0.5106(2) 0.2318(9)
H12 H 0.2605 0.5428 0.3683
C8 C 0.1548(3) 0.5134(2) 0.2202(10)
H13 H 0.1353 0.4910 0.3835
C9 C 0.1220(3) 0.4771(3) -0.0178(10)
H14 H 0.0671 0.4691 0.0108
H15 H 0.1487 0.4353 -0.0389
H16 H 0.1289 0.5035 -0.1788
C10 C 0.1253(3) 0.5836(2) 0.2296(12)
H17 H 0.1416 0.6068 0.0687
H18 H 0.1462 0.6057 0.3868
H19 H 0.0691 0.5833 0.2394
N2 N 0.2789(3) 0.5280(2) -0.0302(9)
H20 H 0.3323(16) 0.534(2) -0.009(11)
H21 H 0.259(3) 0.5669(16) -0.102(10)
H22 H 0.273(3) 0.4950(19) -0.157(8)
O5 O 0.4365(2) 0.44084(18) -0.2268(8)
H23 H 0.440(3) 0.461(3) -0.367(8)
H24 H 0.461(3) 0.443(3) -0.087(8)
O6 O 0.2724(2) 0.25919(16) -0.2121(8)
H25 H 0.267(3) 0.231(2) -0.096(9)
H26 H 0.272(3) 0.237(2) -0.347(8)
Ca1_2 Ca 0.34883(5) 0.35264(4) 0.79083(19)
O2_2 O 0.41231(18) 0.31633(16) -0.5756(6)
O4_2 O 0.27071(19) 0.43074(15) -0.4407(6)
Cl1 Cl 0.56640(15) 0.45083(15) 0.3190(9)
Cl3 Cl 0.74092(6) 0.32958(5) 0.7175(2)
Cl2? Cl 0.56996(15) 0.42884(18) 0.1590(9)
loop_
_geom_bond_atom_site_label_1
_geom_bond_atom_site_label_2
_geom_bond_site_symmetry_1
_geom_bond_site_symmetry_2
Ca1 O1 1_555 1_555
O1 C1 1_555 1_555
O2 C1 1_555 1_555
C1 C2 1_555 1_555
C2 H1 1_555 1_555
C3 C2 1_555 1_555
H2 C3 1_555 1_555
C4 C3 1_555 1_555
H3 C4 1_555 1_555
H4 C4 1_555 1_555
H5 C4 1_555 1_555
C5 C3 1_555 1_555
H6 C5 1_555 1_555
H7 C5 1_555 1_555
H8 C5 1_555 1_555
N1 C2 1_555 1_555
H9 N1 1_555 1_555
H10 N1 1_555 1_555
H11 N1 1_555 1_555
O3 Ca1 1_555 1_555
O4 C6 1_555 1_555
C6 O3 1_555 1_555
C7 C6 1_555 1_555
H12 C7 1_555 1_555
C8 C7 1_555 1_555
H13 C8 1_555 1_555
C9 C8 1_555 1_555
H14 C9 1_555 1_555
H15 C9 1_555 1_555
H16 C9 1_555 1_555
C10 C8 1_555 1_555
H17 C10 1_555 1_555
H18 C10 1_555 1_555
H19 C10 1_555 1_555
N2 C7 1_555 1_555
H20 N2 1_555 1_555
H21 N2 1_555 1_555
H22 N2 1_555 1_555
O5 Ca1 1_555 1_555
H23 O5 1_555 1_555
H24 O5 1_555 1_555
O6 Ca1 1_555 1_555
H25 O6 1_555 1_555
H26 O6 1_555 1_555
Ca1_2 O2 1_555 1_555
O2_2 Ca1 1_555 1_555
O4_2 Ca1 1_555 1_555
O4 Ca1_2 1_555 1_555

#END
