
#######################################################################
#
#                 Cambridge Crystallographic Data Centre
#                                CCDC 
#
#######################################################################
#
# If this CIF has been generated from an entry in the Cambridge 
# Structural Database, then it will include bibliographic, chemical, 
# crystal, experimental, refinement or atomic coordinate data resulting 
# from the CCDC's data processing and validation procedures.
#
#######################################################################

data_JUKMEJ
_symmetry_cell_setting           triclinic
_symmetry_space_group_name_H-M   'P 1'
_symmetry_Int_Tables_number      1
_space_group_name_Hall           'P 1'
loop_
_symmetry_equiv_pos_site_id
_symmetry_equiv_pos_as_xyz
1 x,y,z
_cell_length_a                   4.9856(18)
_cell_length_b                   9.542(4)
_cell_length_c                   10.303(4)
_cell_angle_alpha                77.743(6)
_cell_angle_beta                 76.975(7)
_cell_angle_gamma                83.919(7)
_cell_volume                     465.775
loop_
_atom_site_label
_atom_site_type_symbol
_atom_site_fract_x
_atom_site_fract_y
_atom_site_fract_z
Ca1 Ca 0.1186(2) 0.40992(13) 0.19734(12)
O1 O 0.4223(9) 0.2514(5) 0.0720(4)
O2 O 0.8163(10) 0.3046(5) 0.1110(5)
C1 C 0.6802(13) 0.2586(7) 0.0437(6)
C2 C 0.8346(13) 0.2019(7) -0.0838(6)
H1 H 0.7305 0.2385 -0.1578
C3 C 0.8544(15) 0.0358(7) -0.0584(7)
H2 H 0.6614 0.0040 -0.0314
C4 C 0.9983(17) -0.0311(8) 0.0580(8)
H3 H 1.1868 0.0004 0.0362
H4 H 1.0039 -0.1361 0.0710
H5 H 0.8966 -0.0007 0.1415
C5 C 0.9901(18) -0.0176(8) -0.1889(8)
H6 H 1.1874 -0.0013 -0.2110
H7 H 0.9044 0.0349 -0.2633
H8 H 0.9655 -0.1205 -0.1761
N1 N 1.1109(12) 0.2632(6) -0.1268(5)
H9 H 1.223(15) 0.236(8) -0.064(7)
H10 H 1.076(18) 0.362(4) -0.146(9)
H11 H 1.214(16) 0.238(9) -0.206(6)
O3 O 0.2494(10) 0.5531(5) 0.3340(5)
O4 O 0.7078(10) 0.5305(5) 0.2733(5)
C6 C 0.4894(13) 0.5668(6) 0.3474(6)
C7 C 0.5176(13) 0.6376(7) 0.4639(6)
H12 H 0.3423 0.6309 0.5342
C8 C 0.5846(15) 0.7958(7) 0.4124(7)
H13 H 0.7712 0.7995 0.3509
C9 C 0.5907(19) 0.8691(8) 0.5307(9)
H14 H 0.4108 0.8639 0.5936
H15 H 0.6316 0.9700 0.4953
H16 H 0.7336 0.8203 0.5787
C10 C 0.3719(18) 0.8776(8) 0.3304(9)
H17 H 0.1890 0.8790 0.3903
H18 H 0.3669 0.8291 0.2562
H19 H 0.4252 0.9763 0.2928
N2 N 0.7472(12) 0.5572(6) 0.5242(5)
H20 H 0.915(11) 0.564(9) 0.464(7)
H21 H 0.715(18) 0.460(4) 0.550(9)
H22 H 0.758(19) 0.589(9) 0.601(6)
O5 O 0.2686(12) 0.5832(6) 0.0002(6)
H23 H 0.189(18) 0.594(11) -0.064(7)
H24 H 0.424(12) 0.606(10) -0.042(9)
O6 O 0.0931(11) 0.2362(6) 0.4001(5)
H25 H -0.064(12) 0.225(10) 0.449(8)
H26 H 0.232(14) 0.242(10) 0.430(9)
Ca1_2 Ca 1.1186(2) 0.40992(13) 0.19734(12)
O2_2 O -0.1837(10) 0.3046(5) 0.1110(5)
O4_2 O -0.2922(10) 0.5305(5) 0.2733(5)
Cl1 Cl 0.5100(3) 0.25017(16) 0.59263(15)
Cl2 Cl 0.8762(4) 0.58546(17) 0.80228(16)
loop_
_geom_bond_atom_site_label_1
_geom_bond_atom_site_label_2
_geom_bond_site_symmetry_1
_geom_bond_site_symmetry_2
Ca1 O1 1_555 1_555
O1 C1 1_555 1_555
O2 C1 1_555 1_555
C1 C2 1_555 1_555
C2 H1 1_555 1_555
C3 C2 1_555 1_555
H2 C3 1_555 1_555
C4 C3 1_555 1_555
H3 C4 1_555 1_555
H4 C4 1_555 1_555
H5 C4 1_555 1_555
C5 C3 1_555 1_555
H6 C5 1_555 1_555
H7 C5 1_555 1_555
H8 C5 1_555 1_555
N1 C2 1_555 1_555
H9 N1 1_555 1_555
H10 N1 1_555 1_555
H11 N1 1_555 1_555
O3 Ca1 1_555 1_555
O4 C6 1_555 1_555
C6 O3 1_555 1_555
C7 C6 1_555 1_555
H12 C7 1_555 1_555
C8 C7 1_555 1_555
H13 C8 1_555 1_555
C9 C8 1_555 1_555
H14 C9 1_555 1_555
H15 C9 1_555 1_555
H16 C9 1_555 1_555
C10 C8 1_555 1_555
H17 C10 1_555 1_555
H18 C10 1_555 1_555
H19 C10 1_555 1_555
N2 C7 1_555 1_555
H20 N2 1_555 1_555
H21 N2 1_555 1_555
H22 N2 1_555 1_555
O5 Ca1 1_555 1_555
H23 O5 1_555 1_555
H24 O5 1_555 1_555
O6 Ca1 1_555 1_555
H25 O6 1_555 1_555
H26 O6 1_555 1_555
Ca1_2 O2 1_555 1_555
O2_2 Ca1 1_555 1_555
O4_2 Ca1 1_555 1_555
O4 Ca1_2 1_555 1_555

#END
