
#######################################################################
#
#                 Cambridge Crystallographic Data Centre
#                                CCDC 
#
#######################################################################
#
# If this CIF has been generated from an entry in the Cambridge 
# Structural Database, then it will include bibliographic, chemical, 
# crystal, experimental, refinement or atomic coordinate data resulting 
# from the CCDC's data processing and validation procedures.
#
#######################################################################

data_JUKNAG
_symmetry_cell_setting           orthorhombic
_symmetry_space_group_name_H-M   'P c c a'
_symmetry_Int_Tables_number      54
_space_group_name_Hall           '-P 2a 2ac'
loop_
_symmetry_equiv_pos_site_id
_symmetry_equiv_pos_as_xyz
1 x,y,z
2 1/2-x,-y,z
3 1/2+x,-y,1/2-z
4 -x,y,1/2-z
5 -x,-y,-z
6 1/2+x,y,-z
7 1/2-x,y,1/2+z
8 x,-y,1/2+z
_cell_length_a                   24.657(7)
_cell_length_b                   10.010(3)
_cell_length_c                   7.710(2)
_cell_angle_alpha                90
_cell_angle_beta                 90
_cell_angle_gamma                90
_cell_volume                     1902.96
loop_
_atom_site_label
_atom_site_type_symbol
_atom_site_fract_x
_atom_site_fract_y
_atom_site_fract_z
Ca1 Ca 0.0000 0.05411(14) 0.2500
O1 O -0.06085(14) 0.2030(4) 0.3905(5)
H1 H -0.060(2) 0.187(6) 0.491(5)
H2 H -0.0915(16) 0.209(5) 0.360(7)
O2 O 0.04127(13) 0.1094(3) 0.5162(5)
O3 O 0.07585(13) 0.1010(4) 0.7782(5)
N1 N 0.17602(17) 0.1456(4) 0.6560(6)
H3 H 0.2094(15) 0.178(5) 0.606(6)
H4 H 0.171(2) 0.176(5) 0.774(4)
H5 H 0.1784(19) 0.052(3) 0.629(6)
C1 C 0.1773(2) 0.4273(5) 0.5344(9)
H6 H 0.1734 0.5238 0.5520
H7 H 0.1833 0.4091 0.4109
H8 H 0.2083 0.3946 0.6015
C2 C 0.0761(2) 0.4168(5) 0.5094(9)
H9 H 0.0765 0.3968 0.3850
H10 H 0.0762 0.5138 0.5264
H11 H 0.0434 0.3786 0.5619
C3 C 0.12592(19) 0.3566(5) 0.5943(8)
H12 H 0.1226 0.3706 0.7223
C4 C 0.12878(18) 0.2058(5) 0.5617(7)
H13 H 0.1336 0.1902 0.4345
C5 C 0.07820(19) 0.1334(5) 0.6210(7)
O1C O 0.06085(14) 0.2030(4) 0.1095(5)
H1C H 0.060(2) 0.187(6) 0.009(5)
H2C H 0.0915(16) 0.209(5) 0.140(7)
O2C O -0.04127(13) 0.1094(3) -0.0162(5)
O3C O -0.07585(13) 0.1010(4) -0.2782(5)
N1C N -0.17602(17) 0.1456(4) -0.1560(6)
H3C H -0.2094(15) 0.178(5) -0.106(6)
H4C H -0.171(2) 0.176(5) -0.274(4)
H5C H -0.1784(19) 0.052(3) -0.129(6)
C1C C -0.1773(2) 0.4273(5) -0.0344(9)
H6C H -0.1734 0.5238 -0.0520
H7C H -0.1833 0.4091 0.0891
H8C H -0.2083 0.3946 -0.1015
C2C C -0.0761(2) 0.4168(5) -0.0094(9)
H9C H -0.0765 0.3968 0.1150
H10C H -0.0762 0.5138 -0.0264
H11C H -0.0434 0.3786 -0.0619
C3C C -0.12592(19) 0.3566(5) -0.0943(8)
H12C H -0.1226 0.3706 -0.2223
C4C C -0.12878(18) 0.2058(5) -0.0617(7)
H13C H -0.1336 0.1902 0.0655
C5C C -0.07820(19) 0.1334(5) -0.1210(7)
Ca1D Ca 0.0000 -0.05411(14) -0.2500
Ca1D_2 Ca 0.0000 -0.05411(14) 0.7500
O2D O -0.04127(13) -0.1094(3) 0.4838(5)
O2G O 0.04127(13) -0.1094(3) 0.0162(5)
O3D O -0.07585(13) -0.1010(4) 0.2218(5)
O3G O 0.07585(13) -0.1010(4) 0.2782(5)
Br1 Br 0.19248(2) 0.17909(5) 0.09234(7)
loop_
_geom_bond_atom_site_label_1
_geom_bond_atom_site_label_2
_geom_bond_site_symmetry_1
_geom_bond_site_symmetry_2
Ca1 O1 1_555 1_555
O1 H1 1_555 1_555
H2 O1 1_555 1_555
O2 Ca1 1_555 1_555
O3 C5 1_555 1_555
N1 H3 1_555 1_555
H4 N1 1_555 1_555
H5 N1 1_555 1_555
C1 H6 1_555 1_555
H7 C1 1_555 1_555
H8 C1 1_555 1_555
C2 H9 1_555 1_555
H10 C2 1_555 1_555
H11 C2 1_555 1_555
C3 C1 1_555 1_555
H12 C3 1_555 1_555
C4 N1 1_555 1_555
H13 C4 1_555 1_555
C5 O2 1_555 1_555
O1C Ca1 1_555 1_555
H1C O1C 1_555 1_555
H2C O1C 1_555 1_555
O2C Ca1 1_555 1_555
O3C C5C 1_555 1_555
N1C H3C 1_555 1_555
H4C N1C 1_555 1_555
H5C N1C 1_555 1_555
C1C H6C 1_555 1_555
H7C C1C 1_555 1_555
H8C C1C 1_555 1_555
C2C H9C 1_555 1_555
H10C C2C 1_555 1_555
H11C C2C 1_555 1_555
C3C C1C 1_555 1_555
H12C C3C 1_555 1_555
C4C N1C 1_555 1_555
H13C C4C 1_555 1_555
C5C O2C 1_555 1_555
Ca1D O2C 1_555 1_555
Ca1D_2 O2 1_555 1_555
O2D Ca1 1_555 1_555
O2G Ca1 1_555 1_555
O3D Ca1 1_555 1_555
O3G Ca1 1_555 1_555
O3 Ca1D_2 1_555 1_555
C2 C3 1_555 1_555
C3 C4 1_555 1_555
C4 C5 1_555 1_555
O3C Ca1D 1_555 1_555
C2C C3C 1_555 1_555
C3C C4C 1_555 1_555
C4C C5C 1_555 1_555
Ca1D O2G 1_555 1_555
Ca1D_2 O2D 1_555 1_555

#END
