
#######################################################################
#
#                 Cambridge Crystallographic Data Centre
#                                CCDC 
#
#######################################################################
#
# If this CIF has been generated from an entry in the Cambridge 
# Structural Database, then it will include bibliographic, chemical, 
# crystal, experimental, refinement or atomic coordinate data resulting 
# from the CCDC's data processing and validation procedures.
#
#######################################################################

data_JUKROY
_symmetry_cell_setting           orthorhombic
_symmetry_space_group_name_H-M   'P 21 21 21'
_symmetry_Int_Tables_number      19
_space_group_name_Hall           'P 2ac 2ab'
loop_
_symmetry_equiv_pos_site_id
_symmetry_equiv_pos_as_xyz
1 x,y,z
2 1/2-x,-y,1/2+z
3 1/2+x,1/2-y,-z
4 -x,1/2+y,1/2-z
_cell_length_a                   14.048(2)
_cell_length_b                   16.997(2)
_cell_length_c                   7.5397(8)
_cell_angle_alpha                90
_cell_angle_beta                 90
_cell_angle_gamma                90
_cell_volume                     1800.28
loop_
_atom_site_label
_atom_site_type_symbol
_atom_site_fract_x
_atom_site_fract_y
_atom_site_fract_z
Zn1 Zn 0.42768(6) 0.32721(5) 0.27779(16)
O1 O 0.4190(4) 0.3290(4) -0.0119(8)
O2 O 0.4256(4) 0.3243(4) -0.4372(8)
O3 O 0.5874(6) 0.4573(5) -0.4408(11)
O4 O 0.5859(5) 0.4623(4) -0.0115(10)
O5 O 0.4850(4) 0.4374(3) 0.2806(10)
H1 H 0.517(11) 0.445(11) 0.190(11)
H2 H 0.519(12) 0.444(11) 0.370(11)
N1 N 0.2827(5) 0.3556(4) 0.2756(13)
N2 N 0.3650(4) 0.2131(4) 0.2684(11)
H3 H 0.361(10) 0.195(8) 0.385(4)
N3 N 0.5488(4) 0.2560(4) 0.2618(10)
C1 C 0.4275(6) 0.1618(5) 0.1777(12)
H4 H 0.4170 0.1663 0.0482
H5 H 0.4145 0.1068 0.2131
C2 C 0.5310(6) 0.1828(5) 0.2218(14)
C3 C 0.6025(6) 0.1280(6) 0.1899(16)
H6 H 0.5884 0.0771 0.1450
C4 C 0.7165(5) 0.2265(5) 0.2675(13)
H7 H 0.7803 0.2440 0.2806
C5 C 0.6963(6) 0.1511(5) 0.2267(17)
H8 H 0.7460 0.1133 0.2229
C6 C 0.6408(5) 0.2774(5) 0.2895(15)
H9 H 0.6537 0.3299 0.3258
C7 C 0.2679(6) 0.2185(5) 0.2035(15)
H10 H 0.2297 0.1747 0.2525
H11 H 0.2675 0.2140 0.0726
C8 C 0.2244(5) 0.2961(5) 0.2580(13)
C9 C 0.1261(5) 0.3078(5) 0.2672(14)
H12 H 0.0845 0.2653 0.2409
C10 C 0.0887(7) 0.3791(6) 0.3132(15)
H13 H 0.0218 0.3869 0.3189
C11 C 0.1503(9) 0.4388(8) 0.351(2)
H14 H 0.1272 0.4873 0.3963
C12 C 0.2470(7) 0.4280(6) 0.3217(17)
H15 H 0.2891 0.4714 0.3340
C13 C 0.4654(6) 0.3623(5) -0.1237(12)
C14 C 0.4696(6) 0.3616(5) -0.3208(11)
C15 C 0.5427(6) 0.4216(5) -0.3241(11)
C16 C 0.5418(7) 0.4249(6) -0.1298(14)
Zn1_2 Zn 0.42768(6) 0.32721(5) -0.72221(16)
O2_2 O 0.4256(4) 0.3243(4) 0.5628(8)
O6 O 0.3452(6) 0.1144(5) 0.5871(13)
H16 H 0.366(17) 0.071(2) 0.56(3)
H17 H 0.322(15) 0.109(13) 0.685(7)
O7 O 0.2741(5) 0.0750(4) 0.9112(12)
H18 H 0.315(11) 0.040(9) 0.92(3)
H19 H 0.219(7) 0.064(12) 0.94(3)
loop_
_geom_bond_atom_site_label_1
_geom_bond_atom_site_label_2
_geom_bond_site_symmetry_1
_geom_bond_site_symmetry_2
Zn1 O1 1_555 1_555
O1 C13 1_555 1_555
O2 C14 1_555 1_555
O3 C15 1_555 1_555
O4 C16 1_555 1_555
O5 Zn1 1_555 1_555
H1 O5 1_555 1_555
H2 O5 1_555 1_555
N1 Zn1 1_555 1_555
N2 Zn1 1_555 1_555
H3 N2 1_555 1_555
N3 Zn1 1_555 1_555
C1 N2 1_555 1_555
H4 C1 1_555 1_555
H5 C1 1_555 1_555
C2 N3 1_555 1_555
C3 C2 1_555 1_555
H6 C3 1_555 1_555
C4 H7 1_555 1_555
C5 C3 1_555 1_555
H8 C5 1_555 1_555
C6 N3 1_555 1_555
H9 C6 1_555 1_555
C7 N2 1_555 1_555
H10 C7 1_555 1_555
H11 C7 1_555 1_555
C8 N1 1_555 1_555
C9 C8 1_555 1_555
H12 C9 1_555 1_555
C10 C9 1_555 1_555
H13 C10 1_555 1_555
C11 C10 1_555 1_555
H14 C11 1_555 1_555
C12 N1 1_555 1_555
H15 C12 1_555 1_555
C13 C14 1_555 1_555
C14 C15 1_555 1_555
C15 C16 1_555 1_555
C16 C13 1_555 1_555
O6 H16 1_555 1_555
H17 O6 1_555 1_555
O7 H18 1_555 1_555
H19 O7 1_555 1_555
Zn1_2 O2 1_555 1_555
O2_2 Zn1 1_555 1_555
C1 C2 1_555 1_555
C4 C5 1_555 1_555
C4 C6 1_555 1_555
C7 C8 1_555 1_555
C11 C12 1_555 1_555

#END
