
#######################################################################
#
#                 Cambridge Crystallographic Data Centre
#                                CCDC 
#
#######################################################################
#
# If this CIF has been generated from an entry in the Cambridge 
# Structural Database, then it will include bibliographic, chemical, 
# crystal, experimental, refinement or atomic coordinate data resulting 
# from the CCDC's data processing and validation procedures.
#
#######################################################################

data_JUKREO
_symmetry_cell_setting           monoclinic
_symmetry_space_group_name_H-M   'P 21/n'
_symmetry_Int_Tables_number      14
_space_group_name_Hall           '-P 2yn'
loop_
_symmetry_equiv_pos_site_id
_symmetry_equiv_pos_as_xyz
1 x,y,z
2 1/2-x,1/2+y,1/2-z
3 -x,-y,-z
4 1/2+x,1/2-y,1/2+z
_cell_length_a                   9.3546(9)
_cell_length_b                   16.1070(6)
_cell_length_c                   26.7487(12)
_cell_angle_alpha                90
_cell_angle_beta                 90.420(4)
_cell_angle_gamma                90
_cell_volume                     4030.24
loop_
_atom_site_label
_atom_site_type_symbol
_atom_site_fract_x
_atom_site_fract_y
_atom_site_fract_z
Cu1 Cu 0.87637(3) 0.22068(2) 0.366354(13)
Cu2 Cu 0.79250(3) 0.05423(2) 0.186547(12)
N1 N 1.0533(3) 0.19627(17) 0.32808(9)
C1 C 1.0795(3) 0.0970(2) 0.39545(11)
H1 H 1.0276 0.0451 0.3874
H2 H 1.1605 0.0830 0.4179
C2 C 1.1350(3) 0.1359(2) 0.34803(11)
C3 C 1.2185(3) 0.2090(2) 0.26084(12)
H3 H 1.2466 0.2362 0.2310
C4 C 1.0941(3) 0.2320(2) 0.28507(11)
H4 H 1.0360 0.2743 0.2708
C5 C 1.3008(3) 0.1457(2) 0.28093(13)
H5 H 1.3852 0.1281 0.2645
C6 C 1.2592(3) 0.1083(2) 0.32512(12)
H6 H 1.3144 0.0648 0.3395
O1 O 0.8324(2) 0.12829(13) 0.24503(7)
C7 C 0.4844(3) 0.6642(2) 0.35531(12)
H7 H 0.4424 0.6644 0.3229
C8 C 0.4778(3) 0.7048(2) 0.44059(12)
H8 H 0.4327 0.7330 0.4674
C9 C 0.6048(3) 0.6629(2) 0.44854(11)
H9 H 0.6472 0.6612 0.4809
C10 C 0.4166(3) 0.7055(2) 0.39331(13)
H10 H 0.3293 0.7341 0.3873
C11 C 0.6697(3) 0.6231(2) 0.40861(11)
C12 C 0.8126(3) 0.5811(2) 0.41145(11)
H11 H 0.8890 0.6217 0.4041
H12 H 0.8288 0.5594 0.4457
N2 N 0.6091(3) 0.62329(17) 0.36267(9)
N3 N 0.9816(2) 0.15627(16) 0.42088(9)
C13 C 0.8808(3) 0.1119(2) 0.45494(11)
H13 H 0.9025 0.1272 0.4900
H14 H 0.8943 0.0512 0.4514
N4 N 0.7029(2) 0.18318(17) 0.40329(9)
C14 C 0.7280(3) 0.1337(2) 0.44291(11)
C15 C 0.6178(3) 0.1035(2) 0.47219(11)
H15 H 0.6377 0.0674 0.4995
C16 C 0.4784(3) 0.1265(2) 0.46113(12)
H16 H 0.4010 0.1064 0.4805
C17 C 0.5674(3) 0.2066(2) 0.39303(11)
H17 H 0.5496 0.2427 0.3656
C18 C 0.4545(3) 0.1793(2) 0.42131(12)
H18 H 0.3600 0.1969 0.4134
O2 O 0.9851(2) -0.01846(15) 0.19924(8)
H19 H 1.033(5) -0.020(3) 0.1728(18)
H20 H 0.990(5) -0.063(3) 0.2150(17)
O3 O 0.7768(2) 0.28741(14) 0.31691(7)
C19 C 1.0641(3) 0.2213(2) 0.44862(11)
H21 H 1.1398 0.2442 0.4269
H22 H 1.1102 0.1966 0.4785
N5 N 0.8966(2) 0.32837(16) 0.42598(8)
C20 C 0.9643(3) 0.28967(19) 0.46422(11)
C21 C 0.9665(3) 0.4928(2) 0.35828(10)
H23 H 1.0044 0.4452 0.3777
H24 H 1.0289 0.5413 0.3648
N6 N 0.8498(3) 0.48921(17) 0.27688(9)
C22 C 0.8451(3) 0.4730(2) 0.22728(11)
H25 H 0.7597 0.4842 0.2091
C23 C 0.9689(3) 0.4722(2) 0.30320(11)
N7 N 0.8185(2) 0.51185(16) 0.37501(9)
C24 C 0.8087(3) 0.39157(19) 0.43633(10)
C25 C 0.8497(3) 0.3756(2) 0.52467(11)
H26 H 0.8327 0.3916 0.5583
C26 C 0.9438(3) 0.3113(2) 0.51403(11)
H27 H 0.9928 0.2828 0.5401
C27 C 0.7811(3) 0.4160(2) 0.48566(10)
H28 H 0.7160 0.4598 0.4922
C28 C 1.0864(3) 0.4257(2) 0.22892(12)
H29 H 1.1688 0.4056 0.2123
C29 C 1.0899(3) 0.4407(2) 0.28020(12)
H30 H 1.1739 0.4294 0.2992
C30 C 0.9608(3) 0.4407(2) 0.20250(12)
H31 H 0.9548 0.4288 0.1678
C31 C 0.7395(3) 0.43604(19) 0.39274(10)
H32 H 0.7306 0.3966 0.3645
H33 H 0.6417 0.4528 0.4024
O4 O 0.5126(2) 0.34412(15) 0.24467(8)
C32 C 0.5981(3) 0.2852(2) 0.24552(10)
C33 C 0.7428(3) 0.1872(2) 0.24580(10)
C34 C 0.7191(3) 0.2582(2) 0.27676(10)
C35 C 0.6174(3) 0.2091(2) 0.21430(11)
O5 O 0.5548(2) 0.17511(15) 0.17937(8)
Cu2A Cu 0.70750(3) 0.55423(2) 0.313453(12)
N2A N 0.8909(3) 0.12329(17) 0.13733(9)
N6A N 0.6502(3) -0.01079(17) 0.22312(9)
N7A N 0.6815(2) 0.01185(16) 0.12499(9)
Cl1 Cl 0.31333(7) 0.40783(5) 0.41149(3)
O6 O 0.2012(2) 0.41471(16) 0.44798(8)
O7 O 0.4448(2) 0.38423(18) 0.43591(9)
O8 O 0.2750(3) 0.34603(16) 0.37459(8)
O9 O 0.3309(3) 0.48727(16) 0.38682(9)
Cl2 Cl 0.77534(8) 0.88852(5) 0.41707(3)
O10 O 0.6231(2) 0.87597(18) 0.41730(9)
O11 O 0.8472(3) 0.81235(18) 0.40487(11)
O12 O 0.8209(2) 0.91470(16) 0.46640(8)
O13 O 0.8106(3) 0.95240(16) 0.38140(8)
O14 O 0.3189(3) 0.9450(2) 0.40506(10)
H34 H 0.261(5) 0.915(3) 0.3883(17)
H35 H 0.400(7) 0.917(4) 0.408(2)
O15 O 0.1286(3) 0.8442(2) 0.34963(12)
H36 H 0.066(6) 0.829(4) 0.368(2)
H37 H 0.101(5) 0.847(3) 0.3221(19)
loop_
_geom_bond_atom_site_label_1
_geom_bond_atom_site_label_2
_geom_bond_site_symmetry_1
_geom_bond_site_symmetry_2
Cu1 N1 1_555 1_555
Cu2 O1 1_555 1_555
N1 C2 1_555 1_555
C1 H1 1_555 1_555
H2 C1 1_555 1_555
C2 C1 1_555 1_555
C3 H3 1_555 1_555
C4 N1 1_555 1_555
H4 C4 1_555 1_555
C5 C3 1_555 1_555
H5 C5 1_555 1_555
C6 C2 1_555 1_555
H6 C6 1_555 1_555
O1 C33 1_555 1_555
C7 H7 1_555 1_555
C8 H8 1_555 1_555
C9 C8 1_555 1_555
H9 C9 1_555 1_555
C10 C7 1_555 1_555
H10 C10 1_555 1_555
C11 C9 1_555 1_555
C12 C11 1_555 1_555
H11 C12 1_555 1_555
H12 C12 1_555 1_555
N2 C7 1_555 1_555
N3 Cu1 1_555 1_555
C13 N3 1_555 1_555
H13 C13 1_555 1_555
H14 C13 1_555 1_555
N4 Cu1 1_555 1_555
C14 C13 1_555 1_555
C15 C14 1_555 1_555
H15 C15 1_555 1_555
C16 C15 1_555 1_555
H16 C16 1_555 1_555
C17 N4 1_555 1_555
H17 C17 1_555 1_555
C18 C16 1_555 1_555
H18 C18 1_555 1_555
O2 Cu2 1_555 1_555
H19 O2 1_555 1_555
H20 O2 1_555 1_555
O3 Cu1 1_555 1_555
C19 N3 1_555 1_555
H21 C19 1_555 1_555
H22 C19 1_555 1_555
N5 Cu1 1_555 1_555
C20 C19 1_555 1_555
C21 H23 1_555 1_555
H24 C21 1_555 1_555
N6 C22 1_555 1_555
C22 H25 1_555 1_555
C23 C21 1_555 1_555
N7 C12 1_555 1_555
C24 N5 1_555 1_555
C25 H26 1_555 1_555
C26 C20 1_555 1_555
H27 C26 1_555 1_555
C27 C24 1_555 1_555
H28 C27 1_555 1_555
C28 H29 1_555 1_555
C29 C23 1_555 1_555
H30 C29 1_555 1_555
C30 C22 1_555 1_555
H31 C30 1_555 1_555
C31 N7 1_555 1_555
H32 C31 1_555 1_555
H33 C31 1_555 1_555
O4 C32 1_555 1_555
C32 C34 1_555 1_555
C33 C34 1_555 1_555
C34 O3 1_555 1_555
C35 C32 1_555 1_555
O5 C35 1_555 1_555
Cl1 O6 1_555 1_555
O7 Cl1 1_555 1_555
O8 Cl1 1_555 1_555
O9 Cl1 1_555 1_555
Cl2 O10 1_555 1_555
O11 Cl2 1_555 1_555
O12 Cl2 1_555 1_555
O13 Cl2 1_555 1_555
O14 H34 1_555 1_555
H35 O14 1_555 1_555
O15 H36 1_555 1_555
H37 O15 1_555 1_555
Cu2A N2 1_555 1_555
N2A Cu2 1_555 1_555
N6A Cu2 1_555 1_555
N7A Cu2 1_555 1_555
C1 N3 1_555 1_555
C3 C4 1_555 1_555
C5 C6 1_555 1_555
C8 C10 1_555 1_555
C11 N2 1_555 1_555
N4 C14 1_555 1_555
C17 C18 1_555 1_555
N5 C20 1_555 1_555
C21 N7 1_555 1_555
N6 C23 1_555 1_555
N6 Cu2A 1_555 1_555
N7 Cu2A 1_555 1_555
C24 C31 1_555 1_555
C25 C26 1_555 1_555
C25 C27 1_555 1_555
C28 C29 1_555 1_555
C28 C30 1_555 1_555
C33 C35 1_555 1_555

#END
