
#######################################################################
#
#                 Cambridge Crystallographic Data Centre
#                                CCDC 
#
#######################################################################
#
# If this CIF has been generated from an entry in the Cambridge 
# Structural Database, then it will include bibliographic, chemical, 
# crystal, experimental, refinement or atomic coordinate data resulting 
# from the CCDC's data processing and validation procedures.
#
#######################################################################

data_JUKVEQ
_symmetry_cell_setting           orthorhombic
_symmetry_space_group_name_H-M   'P 21 21 21'
_symmetry_Int_Tables_number      19
_space_group_name_Hall           'P 2ac 2ab'
loop_
_symmetry_equiv_pos_site_id
_symmetry_equiv_pos_as_xyz
1 x,y,z
2 1/2+x,1/2-y,-z
3 -x,1/2+y,1/2-z
4 1/2-x,-y,1/2+z
_cell_length_a                   8.2149(1)
_cell_length_b                   11.6635(2)
_cell_length_c                   12.7420(1)
_cell_angle_alpha                90
_cell_angle_beta                 90
_cell_angle_gamma                90
_cell_volume                     1220.87
loop_
_atom_site_label
_atom_site_type_symbol
_atom_site_fract_x
_atom_site_fract_y
_atom_site_fract_z
Zn1 Zn 0.39613(2) 0.423557(16) 0.752358(17)
O1 O 0.18573(19) 0.32240(14) 0.91473(11)
O2 O 0.28792(16) 0.27694(12) 0.75711(14)
O3 O 0.51777(18) 0.45174(15) 0.62402(13)
O4 O 0.69391(19) 0.31470(14) 0.67029(12)
N1 N 0.20984(19) 0.53762(14) 0.73116(12)
N2 N 0.5371(2) 0.48118(16) 0.87088(14)
C1 C 0.1853(2) 0.26685(16) 0.83275(15)
C2 C 0.0494(2) 0.18288(17) 0.81205(15)
C3 C 0.0385(2) 0.12712(19) 0.71630(16)
C4 C 0.0927(2) 0.55480(18) 0.80255(15)
C5 C 0.1993(2) 0.59204(17) 0.63825(14)
C6 C -0.0720(2) 0.16501(17) 0.88589(15)
C7 C 0.6519(2) 0.39576(18) 0.61601(15)
C8 C 0.7614(2) 0.43953(18) 0.52989(16)
C9 C 0.8944(3) 0.37510(19) 0.49675(17)
C10 C 0.5088(3) 0.58265(19) 0.91658(18)
C11 C 0.6654(2) 0.4188(2) 0.90328(15)
C12 C 0.7314(3) 0.54399(18) 0.48133(16)
H1 H 0.1197 0.1382 0.6641
H2 H 0.0995 0.5163 0.8681
H3 H 0.2822 0.5798 0.5875
H4 H -0.0678 0.2024 0.9521
H5 H 0.9184 0.3034 0.5286
H6 H 0.4190 0.6273 0.8932
H7 H 0.6854 0.3465 0.8712
H8 H 0.6406 0.5893 0.5018
C4B C -0.0927(2) 0.05480(18) 0.69745(15)
N1B N -0.20984(19) 0.03762(14) 0.76884(12)
Zn1B Zn -0.39613(2) -0.076443(16) 0.747642(17)
Zn1C Zn 1.10387(2) 0.576443(16) 0.252358(17)
N2C N 0.9629(2) 0.51882(16) 0.37088(14)
C10C C 0.9912(3) 0.41735(19) 0.41658(18)
H6C H 1.0810 0.3727 0.3932
C11C C 0.8346(2) 0.5812(2) 0.40328(15)
C5B C -0.1993(2) 0.09204(17) 0.86175(14)
H2B H -0.0995 0.0163 0.6319
C3B C -0.0385(2) 0.62712(19) 0.78370(16)
C9C C 0.6056(3) 0.62490(19) 0.99675(17)
C6B C 0.0720(2) 0.66501(17) 0.61411(15)
C2B C -0.0494(2) 0.68288(17) 0.68795(15)
C1B C -0.1853(2) 0.76685(16) 0.66725(15)
O1B O -0.18573(19) 0.82240(14) 0.58527(11)
O2B O -0.28792(16) 0.77694(12) 0.74289(14)
Zn1B_2 Zn -0.39613(2) 0.923557(16) 0.747642(17)
H4B H 0.0678 0.7024 0.5479
C12C C 0.7686(3) 0.45601(18) 0.98133(16)
C8C C 0.7386(2) 0.56047(18) 1.02989(16)
C7C C 0.8481(2) 0.60424(18) 1.11601(15)
O3C O 0.98223(18) 0.54826(15) 1.12402(13)
Zn1C_2 Zn 1.10387(2) 0.576443(16) 1.252358(17)
O2C O 1.21208(16) 0.72306(12) 1.25711(14)
N1C N 1.29016(19) 0.46238(14) 1.23116(12)
N2C_2 N 0.9629(2) 0.51882(16) 1.37088(14)
O4C O 0.80609(19) 0.68530(14) 1.17029(12)
H8C H 0.8594 0.4107 1.0018
H7C H 0.8146 0.6535 0.3712
H3B H -0.2822 0.0798 0.9125
H1B H -0.1197 0.6382 0.8359
H5C H 0.5816 0.6966 1.0286
loop_
_geom_bond_atom_site_label_1
_geom_bond_atom_site_label_2
_geom_bond_site_symmetry_1
_geom_bond_site_symmetry_2
Zn1 O2 1_555 1_555
O1 C1 1_555 1_555
O2 C1 1_555 1_555
O3 Zn1 1_555 1_555
O4 C7 1_555 1_555
N1 Zn1 1_555 1_555
N2 Zn1 1_555 1_555
C1 C2 1_555 1_555
C2 C3 1_555 1_555
C3 H1 1_555 1_555
C4 N1 1_555 1_555
C5 N1 1_555 1_555
C6 C2 1_555 1_555
C7 O3 1_555 1_555
C8 C7 1_555 1_555
C9 C8 1_555 1_555
C10 N2 1_555 1_555
C11 N2 1_555 1_555
C12 C8 1_555 1_555
H2 C4 1_555 1_555
H3 C5 1_555 1_555
H4 C6 1_555 1_555
H5 C9 1_555 1_555
H6 C10 1_555 1_555
H7 C11 1_555 1_555
H8 C12 1_555 1_555
C4B C3 1_555 1_555
N1B C4B 1_555 1_555
Zn1B N1B 1_555 1_555
Zn1C N2C 1_555 1_555
N2C C10C 1_555 1_555
C10C C9 1_555 1_555
H6C C10C 1_555 1_555
C11C C12 1_555 1_555
C5B C6 1_555 1_555
H2B C4B 1_555 1_555
C3B C4 1_555 1_555
C9C C10 1_555 1_555
C6B C5 1_555 1_555
C2B C3B 1_555 1_555
C1B C2B 1_555 1_555
O1B C1B 1_555 1_555
O2B C1B 1_555 1_555
Zn1B_2 O2B 1_555 1_555
H4B C6B 1_555 1_555
C12C C11 1_555 1_555
C8C C9C 1_555 1_555
C7C C8C 1_555 1_555
O3C C7C 1_555 1_555
Zn1C_2 O3C 1_555 1_555
O2C Zn1C_2 1_555 1_555
N1C Zn1C_2 1_555 1_555
N2C_2 Zn1C_2 1_555 1_555
O4C C7C 1_555 1_555
H8C C12C 1_555 1_555
H7C C11C 1_555 1_555
H3B C5B 1_555 1_555
H1B C3B 1_555 1_555
H5C C9C 1_555 1_555
N1B C5B 1_555 1_555
N2C C11C 1_555 1_555
C6B C2B 1_555 1_555
C12C C8C 1_555 1_555

#END
