
#######################################################################
#
#                 Cambridge Crystallographic Data Centre
#                                CCDC 
#
#######################################################################
#
# If this CIF has been generated from an entry in the Cambridge 
# Structural Database, then it will include bibliographic, chemical, 
# crystal, experimental, refinement or atomic coordinate data resulting 
# from the CCDC's data processing and validation procedures.
#
#######################################################################

data_JUKVEQ01
_symmetry_cell_setting           orthorhombic
_symmetry_space_group_name_H-M   'P 21 21 21'
_symmetry_Int_Tables_number      19
_space_group_name_Hall           'P 2ac 2ab'
loop_
_symmetry_equiv_pos_site_id
_symmetry_equiv_pos_as_xyz
1 x,y,z
2 1/2-x,-y,1/2+z
3 -x,1/2+y,1/2-z
4 1/2+x,1/2-y,-z
_cell_length_a                   8.1614(5)
_cell_length_b                   11.9032(9)
_cell_length_c                   12.8351(9)
_cell_angle_alpha                90
_cell_angle_beta                 90
_cell_angle_gamma                90
_cell_volume                     1246.89
loop_
_atom_site_label
_atom_site_type_symbol
_atom_site_fract_x
_atom_site_fract_y
_atom_site_fract_z
Zn1 Zn 0.89399(6) 0.42758(6) 0.24835(7)
N1 N 1.0330(7) 0.4821(6) 0.1283(5)
N2 N 0.7092(5) 0.5408(4) 0.2694(4)
O1 O 1.4803(6) 0.5437(5) -0.1267(4)
O2 O 1.3065(6) 0.6822(5) -0.1693(4)
O3 O 0.2158(4) 0.7849(3) 0.2553(4)
O4 O 0.3156(5) 0.8255(4) 0.4123(3)
C1 C 1.3472(9) 0.6017(7) -0.1161(5)
C2 C 1.1620(8) 0.4228(8) 0.0967(5)
H1 H 1.1847 0.3549 0.1295
C3 C 1.2632(8) 0.4579(7) 0.0173(5)
H2 H 1.3504 0.4132 -0.0039
C4 C 1.2348(8) 0.5594(8) -0.0305(6)
C5 C 1.1055(8) 0.6208(6) 0.0033(6)
H3 H 1.0830 0.6902 -0.0267
C6 C 1.0069(8) 0.5801(8) 0.0825(5)
H4 H 0.9187 0.6234 0.1045
C7 C 0.3174(8) 0.7725(6) 0.3308(5)
C8 C 0.6978(7) 0.5966(6) 0.3602(5)
H5 H 0.7792 0.5851 0.4098
C9 C 0.5719(7) 0.6702(6) 0.3842(5)
H6 H 0.5686 0.7066 0.4483
C10 C 0.4511(8) 0.6882(6) 0.3105(5)
C11 C 0.4601(8) 0.6305(6) 0.2172(5)
H7 H 0.3797 0.6398 0.1666
C12 C 0.5903(7) 0.5589(6) 0.2003(5)
H8 H 0.5954 0.5211 0.1370
Zn1A Zn 1.60601(6) 0.57242(6) -0.25165(7)
Zn1B Zn 0.10601(6) 0.92758(6) 0.25165(7)
O1A O 1.0197(6) 0.4563(5) 0.3733(4)
O3B O 0.7842(4) 0.2849(3) 0.2447(4)
loop_
_geom_bond_atom_site_label_1
_geom_bond_atom_site_label_2
_geom_bond_site_symmetry_1
_geom_bond_site_symmetry_2
Zn1 N1 1_555 1_555
N1 C2 1_555 1_555
N2 Zn1 1_555 1_555
O1 C1 1_555 1_555
O2 C1 1_555 1_555
O3 C7 1_555 1_555
O4 C7 1_555 1_555
C1 C4 1_555 1_555
C2 H1 1_555 1_555
C3 C2 1_555 1_555
H2 C3 1_555 1_555
C4 C3 1_555 1_555
C5 C4 1_555 1_555
H3 C5 1_555 1_555
C6 N1 1_555 1_555
H4 C6 1_555 1_555
C7 C10 1_555 1_555
C8 N2 1_555 1_555
H5 C8 1_555 1_555
C9 C8 1_555 1_555
H6 C9 1_555 1_555
C10 C9 1_555 1_555
C11 C10 1_555 1_555
H7 C11 1_555 1_555
C12 N2 1_555 1_555
H8 C12 1_555 1_555
Zn1A O1 1_555 1_555
Zn1B O3 1_555 1_555
O1A Zn1 1_555 1_555
O3B Zn1 1_555 1_555
C5 C6 1_555 1_555
C11 C12 1_555 1_555

#END
