
#######################################################################
#
#                 Cambridge Crystallographic Data Centre
#                                CCDC 
#
#######################################################################
#
# If this CIF has been generated from an entry in the Cambridge 
# Structural Database, then it will include bibliographic, chemical, 
# crystal, experimental, refinement or atomic coordinate data resulting 
# from the CCDC's data processing and validation procedures.
#
#######################################################################

data_JUKXIY
_symmetry_cell_setting           orthorhombic
_symmetry_space_group_name_H-M   'P 21 21 2'
_symmetry_Int_Tables_number      18
_space_group_name_Hall           'P 2 2ab'
loop_
_symmetry_equiv_pos_site_id
_symmetry_equiv_pos_as_xyz
1 x,y,z
2 -x,-y,z
3 1/2-x,1/2+y,-z
4 1/2+x,1/2-y,-z
_cell_length_a                   6.497(3)
_cell_length_b                   8.931(2)
_cell_length_c                   8.931(3)
_cell_angle_alpha                90
_cell_angle_beta                 90
_cell_angle_gamma                90
_cell_volume                     518.219
loop_
_atom_site_label
_atom_site_type_symbol
_atom_site_fract_x
_atom_site_fract_y
_atom_site_fract_z
Mn1 Mn 0.0000 0.5000 0.45299(11)
O1 O -0.3081(6) 0.0948(4) 0.3817(4)
O2 O -0.2433(7) 0.3375(4) 0.4249(4)
N1 N 0.1069(8) 0.3284(5) 0.2796(5)
C1 C 0.2809(11) 0.3337(7) 0.2047(6)
C2 C 0.3535(9) 0.2121(7) 0.1207(6)
C3 C 0.2404(9) 0.0828(6) 0.1205(6)
C4 C 0.0600(9) 0.0722(6) 0.2020(6)
C5 C -0.0058(12) 0.2004(5) 0.2790(5)
C6 C -0.2023(9) 0.2112(6) 0.3704(6)
H1 H 0.362(10) 0.417(6) 0.217(7)
H2 H 0.281(10) -0.003(8) 0.072(6)
H3 H 0.475(6) 0.214(7) 0.069(5)
N1A N -0.1069(8) -0.3284(5) 0.2796(5)
C1A C -0.2809(11) -0.3337(7) 0.2047(6)
C2A C -0.3535(9) -0.2121(7) 0.1207(6)
C3A C -0.2404(9) -0.0828(6) 0.1205(6)
C4A C -0.0600(9) -0.0722(6) 0.2020(6)
C5A C 0.0058(12) -0.2004(5) 0.2790(5)
C6A C 0.2023(9) -0.2112(6) 0.3704(6)
H1A H -0.362(10) -0.417(6) 0.217(7)
H2A H -0.281(10) 0.003(8) 0.072(6)
H3A H -0.475(6) -0.214(7) 0.069(5)
O1A O 0.3081(6) -0.0948(4) 0.3817(4)
O2A O 0.2433(7) -0.3375(4) 0.4249(4)
Mn1_2 Mn 0.0000 -0.5000 0.45299(11)
Mn1B Mn -0.5000 0.0000 0.54701(11)
Mn1B_2 Mn 0.5000 0.0000 0.54701(11)
O1B O -0.1919(6) 0.5948(4) 0.6183(4)
O1C O 0.1919(6) 0.4052(4) 0.6183(4)
O2A_2 O 0.2433(7) 0.6625(4) 0.4249(4)
N1A_2 N -0.1069(8) 0.6716(5) 0.2796(5)
loop_
_geom_bond_atom_site_label_1
_geom_bond_atom_site_label_2
_geom_bond_site_symmetry_1
_geom_bond_site_symmetry_2
Mn1 O2 1_555 1_555
O1 C6 1_555 1_555
O2 C6 1_555 1_555
N1 Mn1 1_555 1_555
C1 N1 1_555 1_555
C2 C1 1_555 1_555
C3 C2 1_555 1_555
C4 C3 1_555 1_555
C5 N1 1_555 1_555
C6 C5 1_555 1_555
H1 C1 1_555 1_555
H2 C3 1_555 1_555
H3 C2 1_555 1_555
N1A C1A 1_555 1_555
C1A C2A 1_555 1_555
C2A C3A 1_555 1_555
C3A C4A 1_555 1_555
C4A C4 1_555 1_555
C5A N1A 1_555 1_555
C6A C5A 1_555 1_555
H1A C1A 1_555 1_555
H2A C3A 1_555 1_555
H3A C2A 1_555 1_555
O1A C6A 1_555 1_555
O2A C6A 1_555 1_555
Mn1_2 N1A 1_555 1_555
Mn1B O1 1_555 1_555
Mn1B_2 O1A 1_555 1_555
O1B Mn1 1_555 1_555
O1C Mn1 1_555 1_555
O2A_2 Mn1 1_555 1_555
N1A_2 Mn1 1_555 1_555
C4 C5 1_555 1_555
C4A C5A 1_555 1_555
O2A Mn1_2 1_555 1_555

#END
