
#######################################################################
#
#                 Cambridge Crystallographic Data Centre
#                                CCDC 
#
#######################################################################
#
# If this CIF has been generated from an entry in the Cambridge 
# Structural Database, then it will include bibliographic, chemical, 
# crystal, experimental, refinement or atomic coordinate data resulting 
# from the CCDC's data processing and validation procedures.
#
#######################################################################

data_JUKXIW
_symmetry_cell_setting           monoclinic
_symmetry_space_group_name_H-M   'C c'
_symmetry_Int_Tables_number      9
_space_group_name_Hall           'C -2yc'
loop_
_symmetry_equiv_pos_site_id
_symmetry_equiv_pos_as_xyz
1 x,y,z
2 1/2+x,1/2+y,z
3 x,-y,1/2+z
4 1/2+x,1/2-y,1/2+z
_cell_length_a                   12.0137(2)
_cell_length_b                   22.3435(4)
_cell_length_c                   7.7738(1)
_cell_angle_alpha                90
_cell_angle_beta                 123.509(1)
_cell_angle_gamma                90
_cell_volume                     1739.89
loop_
_atom_site_label
_atom_site_type_symbol
_atom_site_fract_x
_atom_site_fract_y
_atom_site_fract_z
Cd1 Cd 0.02817(14) 0.111907(14) 0.2497(2)
N1 N -0.6598(6) 0.4351(3) -1.317(1)
C1 C -0.7796(8) 0.4068(3) -1.4255(12)
C2 C -0.8992(7) 0.4359(4) -1.4916(12)
C3 C -0.8986(6) 0.4959(3) -1.451(1)
C4 C -0.7766(6) 0.5254(3) -1.3446(11)
C5 C -0.6589(6) 0.4937(3) -1.2799(11)
C6 C -1.0217(7) 0.5307(4) -1.5164(11)
C7 C -1.1382(7) 0.5069(3) -1.5811(13)
C8 C -1.2566(7) 0.5454(4) -1.6396(11)
O1 O -1.2478(5) 0.6012(2) -1.6389(8)
O2 O -1.3638(5) 0.5191(2) -1.687(1)
O3 O -0.0654(7) 0.2045(3) 0.058(1)
C9 C -0.0858(9) 0.1770(5) -0.0974(13)
O4 O -0.0562(6) 0.1240(3) -0.0891(9)
C10 C -0.1549(9) 0.2047(4) -0.3108(13)
C11 C -0.2010(12) 0.2569(5) -0.3525(15)
C12 C -0.267(1) 0.2834(5) -0.5638(12)
C13 C -0.2977(8) 0.3440(4) -0.5847(11)
C14 C -0.3612(7) 0.3698(4) -0.7760(11)
N2 N -0.3962(8) 0.3398(3) -0.946(1)
C15 C -0.3728(14) 0.2818(4) -0.9285(14)
C16 C -0.3036(16) 0.2538(5) -0.7448(17)
H1 H -0.7818 0.3656 -1.4576
H2 H -0.9810 0.4144 -1.5647
H3 H -0.7728 0.5669 -1.3159
H4 H -0.5761 0.5144 -1.2078
H5 H -1.0154 0.5731 -1.5110
H6 H -1.1480 0.4647 -1.5913
H7 H -0.1638 0.1810 -0.4194
H8 H -0.1939 0.2806 -0.2454
H9 H -0.2748 0.3673 -0.4674
H10 H -0.3813 0.4113 -0.7876
H11 H -0.4061 0.2587 -1.0502
H12 H -0.2794 0.2130 -0.7388
Cd1A Cd -1.47183(14) 0.611907(14) -1.7503(2)
Cd1C Cd -0.47183(14) 0.388093(14) -1.2503(2)
O1B O -0.2478(5) 0.3988(2) -1.1389(8)
O2B O -0.3638(5) 0.4809(2) -1.187(1)
O3C O -0.5654(7) 0.2955(3) -1.442(1)
O4C O -0.5562(6) 0.3760(3) -1.5891(9)
O5 O -0.5305(9) 0.1733(3) -0.3179(12)
loop_
_geom_bond_atom_site_label_1
_geom_bond_atom_site_label_2
_geom_bond_site_symmetry_1
_geom_bond_site_symmetry_2
Cd1 O3 1_555 1_555
N1 C1 1_555 1_555
C1 C2 1_555 1_555
C2 C3 1_555 1_555
C3 C4 1_555 1_555
C4 C5 1_555 1_555
C5 N1 1_555 1_555
C6 C3 1_555 1_555
C7 C6 1_555 1_555
C8 C7 1_555 1_555
O1 C8 1_555 1_555
O2 C8 1_555 1_555
O3 C9 1_555 1_555
C9 O4 1_555 1_555
O4 Cd1 1_555 1_555
C10 C9 1_555 1_555
C11 C10 1_555 1_555
C12 C11 1_555 1_555
C13 C12 1_555 1_555
C14 C13 1_555 1_555
N2 C14 1_555 1_555
C15 N2 1_555 1_555
C16 C12 1_555 1_555
H1 C1 1_555 1_555
H2 C2 1_555 1_555
H3 C4 1_555 1_555
H4 C5 1_555 1_555
H5 C6 1_555 1_555
H6 C7 1_555 1_555
H7 C10 1_555 1_555
H8 C11 1_555 1_555
H9 C13 1_555 1_555
H10 C14 1_555 1_555
H11 C15 1_555 1_555
H12 C16 1_555 1_555
Cd1A O1 1_555 1_555
Cd1C N1 1_555 1_555
O1B Cd1C 1_555 1_555
O2B Cd1C 1_555 1_555
O3C Cd1C 1_555 1_555
O4C Cd1C 1_555 1_555
O2 Cd1A 1_555 1_555
N2 Cd1C 1_555 1_555
C15 C16 1_555 1_555

#END
