
#######################################################################
#
#                 Cambridge Crystallographic Data Centre
#                                CCDC 
#
#######################################################################
#
# If this CIF has been generated from an entry in the Cambridge 
# Structural Database, then it will include bibliographic, chemical, 
# crystal, experimental, refinement or atomic coordinate data resulting 
# from the CCDC's data processing and validation procedures.
#
#######################################################################

data_JUKZOE
_symmetry_cell_setting           monoclinic
_symmetry_space_group_name_H-M   'C 2/c'
_symmetry_Int_Tables_number      15
_space_group_name_Hall           '-C 2yn'
loop_
_symmetry_equiv_pos_site_id
_symmetry_equiv_pos_as_xyz
1 x,y,z
2 x,-y,1/2+z
3 1/2+x,1/2+y,z
4 1/2+x,1/2-y,1/2+z
5 -x,-y,-z
6 -x,y,1/2-z
7 1/2-x,1/2-y,-z
8 1/2-x,1/2+y,1/2-z
_cell_length_a                   31.020(8)
_cell_length_b                   4.12(1)
_cell_length_c                   11.907(7)
_cell_angle_alpha                90
_cell_angle_beta                 97.44(4)
_cell_angle_gamma                90
_cell_volume                     1508.93
loop_
_atom_site_label
_atom_site_type_symbol
_atom_site_fract_x
_atom_site_fract_y
_atom_site_fract_z
K1 K 0.04147(3) 0.1289(2) -0.36567(5)
S1 S 0.04481(3) 0.6168(2) -0.14339(6)
O1 O 0.08072(7) 0.3648(6) 0.0459(2)
C1 C 0.12701(10) 0.3366(8) -0.0948(2)
C2 C 0.1375(1) 0.4195(10) -0.2009(3)
C3 C 0.1770(1) 0.329(1) -0.2336(3)
C4 C 0.2062(1) 0.156(1) -0.1614(4)
C5 C 0.1965(1) 0.073(1) -0.0562(4)
C6 C 0.1575(1) 0.1605(10) -0.0231(3)
C7 C 0.08504(10) 0.4303(7) -0.0538(2)
H1 H 0.1182(10) 0.546(8) -0.246(2)
H2 H 0.181(1) 0.401(9) -0.304(3)
H3 H 0.235(1) 0.103(10) -0.180(3)
H4 H 0.216(1) -0.04(1) -0.009(3)
H5 H 0.152(1) 0.108(9) 0.043(3)
K1E K -0.04147(3) 0.1289(2) -0.13433(5)
S1E S -0.04481(3) 0.6168(2) -0.35661(6)
O1A O 0.08072(7) -0.3648(6) -0.4541(2)
K1A K 0.04147(3) -0.1289(2) 0.13433(5)
O1A_2 O 0.08072(7) 0.6352(6) -0.4541(2)
K1A_2 K 0.04147(3) 0.8711(2) 0.13433(5)
loop_
_geom_bond_atom_site_label_1
_geom_bond_atom_site_label_2
_geom_bond_site_symmetry_1
_geom_bond_site_symmetry_2
K1 S1 1_555 1_555
S1 C7 1_555 1_555
O1 C7 1_555 1_555
C1 C2 1_555 1_555
C2 C3 1_555 1_555
C3 C4 1_555 1_555
C4 C5 1_555 1_555
C5 C6 1_555 1_555
C6 C1 1_555 1_555
C7 C1 1_555 1_555
H1 C2 1_555 1_555
H2 C3 1_555 1_555
H3 C4 1_555 1_555
H4 C5 1_555 1_555
H5 C6 1_555 1_555
K1E S1 1_555 1_555
S1E K1 1_555 1_555
O1A K1 1_555 1_555
K1A O1 1_555 1_555
O1A_2 K1 1_555 1_555
K1A_2 O1 1_555 1_555
K1E S1E 1_555 1_555

#END
