
#######################################################################
#
#                 Cambridge Crystallographic Data Centre
#                                CCDC 
#
#######################################################################
#
# If this CIF has been generated from an entry in the Cambridge 
# Structural Database, then it will include bibliographic, chemical, 
# crystal, experimental, refinement or atomic coordinate data resulting 
# from the CCDC's data processing and validation procedures.
#
#######################################################################

data_JUKZIA
_symmetry_cell_setting           triclinic
_symmetry_space_group_name_H-M   'P -1'
_symmetry_Int_Tables_number      2
_space_group_name_Hall           '-P 1'
loop_
_symmetry_equiv_pos_site_id
_symmetry_equiv_pos_as_xyz
1 x,y,z
2 -x,-y,-z
_cell_length_a                   10.3749(6)
_cell_length_b                   12.1800(6)
_cell_length_c                   20.3338(11)
_cell_angle_alpha                84.386(2)
_cell_angle_beta                 85.967(2)
_cell_angle_gamma                85.635(2)
_cell_volume                     2544.64
loop_
_atom_site_label
_atom_site_type_symbol
_atom_site_fract_x
_atom_site_fract_y
_atom_site_fract_z
Zn1 Zn 0.34356(6) 0.68161(5) -0.00311(3)
Zn2 Zn 0.46138(6) 0.71596(5) 0.13032(3)
Zn3 Zn 0.68274(6) 0.67168(5) 0.02256(3)
Zn4 Zn 0.21677(7) 0.57567(6) 0.45903(3)
Zn5 Zn 0.38525(6) 0.69773(5) 0.34583(3)
Zn6 Zn 0.50112(6) 0.70951(5) 0.48318(3)
O1 O 0.1353(3) 0.7870(3) -0.01580(19)
O2 O 0.3039(3) 0.7690(3) 0.07393(18)
O3 O 0.6222(3) 0.6550(3) 0.18240(18)
O4 O 0.7822(4) 0.6453(3) 0.1027(2)
O5 O 0.5068(3) 0.6302(3) 0.04602(18)
O6 O 0.5589(4) 0.8559(3) 0.09655(19)
O7 O 0.6745(3) 0.8320(3) 0.00107(19)
O8 O 0.1957(3) 0.3822(3) 0.04714(19)
O9 O 0.3632(3) 0.5770(3) 0.17175(19)
H1 H 0.3478 0.5791 0.2152
H2 H 0.4108 0.5150 0.1647
O10 O 0.4066(4) 0.7457(3) -0.08887(19)
O11 O 0.5054(4) 0.5846(3) -0.1121(2)
O12 O 0.2650(3) 0.5393(3) 0.00089(19)
O13 O 0.5989(4) 0.8807(3) 0.4887(2)
O14 O 0.4792(4) 0.8030(3) 0.39875(19)
O15 O 0.2849(3) 0.5831(3) 0.30111(19)
O16 O 0.1596(4) 0.5042(4) 0.3847(2)
O17 O 0.3980(4) 0.6035(3) 0.43692(18)
O18 O 0.1198(4) 0.7189(3) 0.4652(2)
O19 O 0.2093(4) 0.7870(3) 0.3679(2)
O20 O 0.5597(4) 0.6125(3) 0.31416(19)
H3 H 0.5610 0.5427 0.3307
H4 H 0.5779 0.6237 0.2727
O21 O 0.1589(4) 0.4833(3) 0.53771(19)
O22 O 0.3341(4) 0.3783(3) 0.51063(19)
O23 O 0.3728(4) 0.7329(3) 0.55590(19)
O24 O 0.4464(4) 0.5757(3) 0.6078(2)
N1 N 0.3602(4) 0.8057(3) 0.2043(2)
N2 N 0.4205(4) 0.8157(3) 0.2646(2)
C1 C 0.1870(5) 0.8121(4) 0.0913(3)
C2 C 0.0919(5) 0.8237(4) 0.0439(3)
C3 C -0.0333(5) 0.8665(4) 0.0591(3)
H5 H -0.0960 0.8742 0.0268
C4 C -0.0658(5) 0.8982(5) 0.1230(3)
H6 H -0.1515 0.9268 0.1343
C5 C 0.0248(5) 0.8882(5) 0.1691(3)
H7 H 0.0009 0.9101 0.2121
C6 C 0.1521(5) 0.8465(4) 0.1548(3)
C7 C 0.2396(5) 0.8410(4) 0.2074(3)
H8 H 0.2050 0.8659 0.2483
C8 C 0.5091(5) 0.8850(4) 0.2579(3)
H9 H 0.5299 0.9171 0.2143
C9 C 0.5804(5) 0.9190(4) 0.3105(3)
C10 C 0.6740(6) 0.9970(5) 0.2929(3)
H10 H 0.6919 1.0212 0.2475
C11 C 0.7392(6) 1.0384(5) 0.3404(3)
H11 H 0.8010 1.0915 0.3277
C12 C 0.7158(5) 1.0034(5) 0.4064(3)
H12 H 0.7608 1.0332 0.4389
C13 C 0.6274(5) 0.9253(5) 0.4258(3)
C14 C 0.5597(5) 0.8796(4) 0.3776(3)
C15 C 0.0422(6) 0.7919(5) -0.0659(3)
H13 H 0.0114 0.8697 -0.0781
H14 H -0.0335 0.7504 -0.0487
C16 C 0.1084(7) 0.7410(7) -0.1262(4)
H15 H 0.0459 0.7407 -0.1601
H16 H 0.1413 0.6650 -0.1132
H17 H 0.1806 0.7847 -0.1440
C17 C 0.4764(6) 0.6843(5) -0.1257(3)
C18 C 0.5282(10) 0.7379(7) -0.1913(4)
H18 H 0.4860 0.8124 -0.1992
H19 H 0.5102 0.6934 -0.2268
H20 H 0.6219 0.7428 -0.1905
C19 C 0.1906(5) 0.4865(4) 0.0433(3)
C20 C 0.0957(5) 0.5449(5) 0.0883(3)
H21 H 0.0460 0.4907 0.1162
H22 H 0.0366 0.5951 0.0620
H23 H 0.1418 0.5876 0.1164
C21 C 0.6220(5) 0.8908(5) 0.0451(3)
C22 C 0.6424(5) 1.0137(4) 0.0343(3)
H24 H 0.5782 1.0542 0.0621
H25 H 0.6326 1.0397 -0.0123
H26 H 0.7297 1.0263 0.0461
C23 C 0.7410(6) 0.6428(5) 0.1626(3)
C24 C 0.8386(6) 0.6238(7) 0.2131(3)
H27 H 0.8050 0.6573 0.2533
H28 H 0.9185 0.6573 0.1958
H29 H 0.8569 0.5441 0.2235
C25 C 0.6722(6) 0.9142(5) 0.5406(3)
H30 H 0.6553 0.9945 0.5446
H31 H 0.7661 0.8985 0.5304
C26 C 0.6288(6) 0.8487(5) 0.6045(3)
H32 H 0.6491 0.7696 0.6005
H33 H 0.5351 0.8628 0.6131
H34 H 0.6740 0.8713 0.6411
C27 C 0.3651(6) 0.6570(5) 0.6021(3)
C28 C 0.2497(7) 0.6636(5) 0.6511(3)
H35 H 0.2768 0.6843 0.6931
H36 H 0.2126 0.5914 0.6584
H37 H 0.1844 0.7192 0.6337
C29 C 0.1344(5) 0.7955(5) 0.4186(3)
C30 C 0.0542(6) 0.9021(5) 0.4243(3)
H38 H -0.0174 0.9061 0.3951
H39 H 0.1082 0.9643 0.4115
H40 H 0.0194 0.9057 0.4702
C31 C 0.2308(5) 0.3950(5) 0.5470(3)
C32 C 0.1893(6) 0.3124(5) 0.6015(3)
H41 H 0.2529 0.3043 0.6354
H42 H 0.1832 0.2411 0.5839
H43 H 0.1046 0.3375 0.6212
C33 C 0.2031(6) 0.5146(5) 0.3248(3)
C34 C 0.1517(7) 0.4399(6) 0.2789(3)
H44 H 0.1566 0.4753 0.2335
H45 H 0.0614 0.4267 0.2928
H46 H 0.2039 0.3693 0.2808
Zn3A Zn 0.31726(6) 0.32832(5) -0.02256(3)
Zn6A Zn 0.49888(6) 0.29049(5) 0.51682(3)
O8A O 0.8043(3) 0.6178(3) -0.04714(19)
O22A O 0.6659(4) 0.6217(3) 0.48937(19)
O25 O 0.0712(5) 0.2786(4) 0.4284(3)
H47 H 0.0119 0.2771 0.4608
H48 H 0.0840 0.3469 0.4143
loop_
_geom_bond_atom_site_label_1
_geom_bond_atom_site_label_2
_geom_bond_site_symmetry_1
_geom_bond_site_symmetry_2
Zn1 O1 1_555 1_555
Zn2 O2 1_555 1_555
Zn3 O4 1_555 1_555
Zn4 O16 1_555 1_555
Zn5 O14 1_555 1_555
Zn6 O13 1_555 1_555
O1 C2 1_555 1_555
O2 Zn1 1_555 1_555
O3 Zn2 1_555 1_555
O4 C23 1_555 1_555
O5 Zn1 1_555 1_555
O6 Zn2 1_555 1_555
O7 Zn3 1_555 1_555
O8 C19 1_555 1_555
O9 Zn2 1_555 1_555
H1 O9 1_555 1_555
H2 O9 1_555 1_555
O10 Zn1 1_555 1_555
O11 C17 1_555 1_555
O12 Zn1 1_555 1_555
O13 C13 1_555 1_555
O14 Zn6 1_555 1_555
O15 Zn5 1_555 1_555
O16 C33 1_555 1_555
O17 Zn4 1_555 1_555
O18 Zn4 1_555 1_555
O19 Zn5 1_555 1_555
O20 Zn5 1_555 1_555
H3 O20 1_555 1_555
H4 O20 1_555 1_555
O21 Zn4 1_555 1_555
O22 C31 1_555 1_555
O23 Zn6 1_555 1_555
O24 C27 1_555 1_555
N1 Zn2 1_555 1_555
N2 Zn5 1_555 1_555
C1 O2 1_555 1_555
C2 C1 1_555 1_555
C3 C2 1_555 1_555
H5 C3 1_555 1_555
C4 C3 1_555 1_555
H6 C4 1_555 1_555
C5 C4 1_555 1_555
H7 C5 1_555 1_555
C6 C1 1_555 1_555
C7 N1 1_555 1_555
H8 C7 1_555 1_555
C8 N2 1_555 1_555
H9 C8 1_555 1_555
C9 C8 1_555 1_555
C10 C9 1_555 1_555
H10 C10 1_555 1_555
C11 C10 1_555 1_555
H11 C11 1_555 1_555
C12 C11 1_555 1_555
H12 C12 1_555 1_555
C13 C12 1_555 1_555
C14 O14 1_555 1_555
C15 O1 1_555 1_555
H13 C15 1_555 1_555
H14 C15 1_555 1_555
C16 C15 1_555 1_555
H15 C16 1_555 1_555
H16 C16 1_555 1_555
H17 C16 1_555 1_555
C17 O10 1_555 1_555
C18 C17 1_555 1_555
H18 C18 1_555 1_555
H19 C18 1_555 1_555
H20 C18 1_555 1_555
C19 O12 1_555 1_555
C20 C19 1_555 1_555
H21 C20 1_555 1_555
H22 C20 1_555 1_555
H23 C20 1_555 1_555
C21 O6 1_555 1_555
C22 C21 1_555 1_555
H24 C22 1_555 1_555
H25 C22 1_555 1_555
H26 C22 1_555 1_555
C23 O3 1_555 1_555
C24 C23 1_555 1_555
H27 C24 1_555 1_555
H28 C24 1_555 1_555
H29 C24 1_555 1_555
C25 O13 1_555 1_555
H30 C25 1_555 1_555
H31 C25 1_555 1_555
C26 C25 1_555 1_555
H32 C26 1_555 1_555
H33 C26 1_555 1_555
H34 C26 1_555 1_555
C27 O23 1_555 1_555
C28 C27 1_555 1_555
H35 C28 1_555 1_555
H36 C28 1_555 1_555
H37 C28 1_555 1_555
C29 O18 1_555 1_555
C30 C29 1_555 1_555
H38 C30 1_555 1_555
H39 C30 1_555 1_555
H40 C30 1_555 1_555
C31 O21 1_555 1_555
C32 C31 1_555 1_555
H41 C32 1_555 1_555
H42 C32 1_555 1_555
H43 C32 1_555 1_555
C33 O15 1_555 1_555
C34 C33 1_555 1_555
H44 C34 1_555 1_555
H45 C34 1_555 1_555
H46 C34 1_555 1_555
O25 H47 1_555 1_555
H48 O25 1_555 1_555
Zn3A O8 1_555 1_555
Zn6A O22 1_555 1_555
O8A Zn3 1_555 1_555
O22A Zn6 1_555 1_555
Zn2 O5 1_555 1_555
Zn3 O5 1_555 1_555
Zn5 O17 1_555 1_555
Zn6 O17 1_555 1_555
O7 C21 1_555 1_555
O19 C29 1_555 1_555
N1 N2 1_555 1_555
C5 C6 1_555 1_555
C6 C7 1_555 1_555
C9 C14 1_555 1_555
C13 C14 1_555 1_555

#END
