
#######################################################################
#
#                 Cambridge Crystallographic Data Centre
#                                CCDC 
#
#######################################################################
#
# If this CIF has been generated from an entry in the Cambridge 
# Structural Database, then it will include bibliographic, chemical, 
# crystal, experimental, refinement or atomic coordinate data resulting 
# from the CCDC's data processing and validation procedures.
#
#######################################################################

data_JULDEB
_symmetry_cell_setting           triclinic
_symmetry_space_group_name_H-M   'P -1'
_symmetry_Int_Tables_number      2
_space_group_name_Hall           '-P 1'
loop_
_symmetry_equiv_pos_site_id
_symmetry_equiv_pos_as_xyz
1 x,y,z
2 -x,-y,-z
_cell_length_a                   7.4431(3)
_cell_length_b                   8.059(3)
_cell_length_c                   8.894(4)
_cell_angle_alpha                106.321(3)
_cell_angle_beta                 99.673(2)
_cell_angle_gamma                111.667(4)
_cell_volume                     453.194
loop_
_atom_site_label
_atom_site_type_symbol
_atom_site_fract_x
_atom_site_fract_y
_atom_site_fract_z
Pd1 Pd 0.0000 0.0000 0.0000
Cu1 Cu 0.0000 -0.5000 -0.5000
O1 O -0.1675(3) -0.4299(4) -0.6975(3)
H1 H -0.292(8) -0.509(8) -0.759(7)
N1 N 0.0342(4) -0.2619(4) -0.3187(3)
N2 N 0.4540(5) 0.2966(6) 0.1065(4)
N3 N 0.2199(4) -0.3485(3) -0.5762(3)
C1 C 0.0259(4) -0.1617(4) -0.2031(4)
C2 C 0.2897(5) 0.1882(5) 0.0669(4)
C3 C -0.0426(6) -0.3575(9) -0.7855(7)
H2 H -0.0879 -0.4532 -0.8957
H3 H -0.0538 -0.2444 -0.7949
C4 C 0.1739(5) -0.3049(5) -0.7062(4)
C5 C 0.3244(6) -0.2144(6) -0.7690(5)
H4 H 0.2910 -0.1840 -0.8599
C6 C 0.5207(6) -0.1705(6) -0.6965(5)
H5 H 0.6222 -0.1108 -0.7381
C7 C 0.5678(5) -0.2146(6) -0.5624(5)
H6 H 0.7013 -0.1851 -0.5109
C8 C 0.4131(5) -0.3037(5) -0.5054(4)
H7 H 0.4443 -0.3340 -0.4140
O1A O 0.1675(3) -0.5701(4) -0.3025(3)
H1A H 0.292(8) -0.491(8) -0.241(7)
N1A N -0.0342(4) -0.7381(4) -0.6813(3)
N3A N -0.2199(4) -0.6515(3) -0.4238(3)
C1A C -0.0259(4) -0.8383(4) -0.7969(4)
C3A C 0.0426(6) -0.6425(9) -0.2145(7)
H2A H 0.0879 -0.5468 -0.1043
H3A H 0.0538 -0.7556 -0.2051
C4A C -0.1739(5) -0.6951(5) -0.2938(4)
C5A C -0.3244(6) -0.7856(6) -0.2310(5)
H4A H -0.2910 -0.8160 -0.1401
C6A C -0.5207(6) -0.8295(6) -0.3035(5)
H5A H -0.6222 -0.8892 -0.2619
C7A C -0.5678(5) -0.7854(6) -0.4376(5)
H6A H -0.7013 -0.8149 -0.4891
C8A C -0.4131(5) -0.6963(5) -0.4946(4)
H7A H -0.4443 -0.6660 -0.5860
N2A N -0.4540(5) -0.2966(6) -0.1065(4)
C2A C -0.2897(5) -0.1882(5) -0.0669(4)
Pd1_2 Pd 0.0000 -1.0000 -1.0000
C1A_2 C -0.0259(4) 0.1617(4) 0.2031(4)
loop_
_geom_bond_atom_site_label_1
_geom_bond_atom_site_label_2
_geom_bond_site_symmetry_1
_geom_bond_site_symmetry_2
Pd1 C1 1_555 1_555
Cu1 O1 1_555 1_555
O1 H1 1_555 1_555
N1 Cu1 1_555 1_555
N2 C2 1_555 1_555
N3 Cu1 1_555 1_555
C1 N1 1_555 1_555
C2 Pd1 1_555 1_555
C3 O1 1_555 1_555
H2 C3 1_555 1_555
H3 C3 1_555 1_555
C4 N3 1_555 1_555
C5 C4 1_555 1_555
H4 C5 1_555 1_555
C6 C5 1_555 1_555
H5 C6 1_555 1_555
C7 C6 1_555 1_555
H6 C7 1_555 1_555
C8 N3 1_555 1_555
H7 C8 1_555 1_555
O1A Cu1 1_555 1_555
H1A O1A 1_555 1_555
N1A Cu1 1_555 1_555
N3A Cu1 1_555 1_555
C1A N1A 1_555 1_555
C3A O1A 1_555 1_555
H2A C3A 1_555 1_555
H3A C3A 1_555 1_555
C4A N3A 1_555 1_555
C5A C4A 1_555 1_555
H4A C5A 1_555 1_555
C6A C5A 1_555 1_555
H5A C6A 1_555 1_555
C7A C6A 1_555 1_555
H6A C7A 1_555 1_555
C8A N3A 1_555 1_555
H7A C8A 1_555 1_555
N2A C2A 1_555 1_555
C2A Pd1 1_555 1_555
Pd1_2 C1A 1_555 1_555
C1A_2 Pd1 1_555 1_555
C3 C4 1_555 1_555
C7 C8 1_555 1_555
C3A C4A 1_555 1_555
C7A C8A 1_555 1_555

#END
