
#######################################################################
#
#                 Cambridge Crystallographic Data Centre
#                                CCDC 
#
#######################################################################
#
# If this CIF has been generated from an entry in the Cambridge 
# Structural Database, then it will include bibliographic, chemical, 
# crystal, experimental, refinement or atomic coordinate data resulting 
# from the CCDC's data processing and validation procedures.
#
#######################################################################

data_JULDIF
_symmetry_cell_setting           triclinic
_symmetry_space_group_name_H-M   'P -1'
_symmetry_Int_Tables_number      2
_space_group_name_Hall           '-P 1'
loop_
_symmetry_equiv_pos_site_id
_symmetry_equiv_pos_as_xyz
1 x,y,z
2 -x,-y,-z
_cell_length_a                   7.3114(2)
_cell_length_b                   7.7572(2)
_cell_length_c                   9.0886(3)
_cell_angle_alpha                106.409(3)
_cell_angle_beta                 99.405(2)
_cell_angle_gamma                110.159(3)
_cell_volume                     444.294
loop_
_atom_site_label
_atom_site_type_symbol
_atom_site_fract_x
_atom_site_fract_y
_atom_site_fract_z
Pt1 Pt 0.0000 0.0000 0.0000
Cu1 Cu 0.0000 -0.5000 -0.5000
O1 O -0.1597(3) -0.4186(3) -0.6981(2)
H1 H -0.264(6) -0.490(5) -0.746(4)
N1 N 0.4598(4) 0.2960(4) 0.1062(3)
N2 N 0.0342(4) -0.2561(3) -0.3206(3)
N3 N 0.2279(4) -0.3479(3) -0.5709(3)
C1 C 0.2934(4) 0.1867(4) 0.0662(3)
C2 C 0.0252(4) -0.1582(4) -0.2036(3)
C3 C 0.1868(4) -0.3153(4) -0.7071(3)
C4 C 0.3420(5) -0.2261(4) -0.7674(3)
H2 H 0.3113 -0.2018 -0.8609
C5 C 0.5407(5) -0.1743(4) -0.6876(4)
H3 H 0.6455 -0.1180 -0.7280
C6 C 0.5830(5) -0.2069(4) -0.5465(4)
H4 H 0.7165 -0.1718 -0.4899
C7 C 0.4228(4) -0.2928(4) -0.4912(3)
H5 H 0.4509 -0.3132 -0.3955
C8 C -0.0333(5) -0.3857(5) -0.7980(4)
H6 H -0.0493 -0.2876 -0.8392
H7 H -0.0737 -0.5071 -0.8884
O1A O 0.1597(3) -0.5814(3) -0.3019(2)
H1A H 0.264(6) -0.510(5) -0.254(4)
N2A N -0.0342(4) -0.7439(3) -0.6794(3)
N3A N -0.2279(4) -0.6521(3) -0.4291(3)
C2A C -0.0252(4) -0.8418(4) -0.7964(3)
C3A C -0.1868(4) -0.6847(4) -0.2929(3)
C4A C -0.3420(5) -0.7739(4) -0.2326(3)
H2A H -0.3113 -0.7982 -0.1391
C5A C -0.5407(5) -0.8257(4) -0.3124(4)
H3A H -0.6455 -0.8820 -0.2720
C6A C -0.5830(5) -0.7931(4) -0.4535(4)
H4A H -0.7165 -0.8282 -0.5101
C7A C -0.4228(4) -0.7072(4) -0.5088(3)
H5A H -0.4509 -0.6868 -0.6045
C8A C 0.0333(5) -0.6143(5) -0.2020(4)
H6A H 0.0493 -0.7124 -0.1608
H7A H 0.0737 -0.4929 -0.1116
N1A N -0.4598(4) -0.2960(4) -0.1062(3)
C1A C -0.2934(4) -0.1867(4) -0.0662(3)
Pt1_2 Pt 0.0000 -1.0000 -1.0000
C2A_2 C -0.0252(4) 0.1582(4) 0.2036(3)
loop_
_geom_bond_atom_site_label_1
_geom_bond_atom_site_label_2
_geom_bond_site_symmetry_1
_geom_bond_site_symmetry_2
Pt1 C1 1_555 1_555
Cu1 O1 1_555 1_555
O1 H1 1_555 1_555
N1 C1 1_555 1_555
N2 Cu1 1_555 1_555
N3 Cu1 1_555 1_555
C2 Pt1 1_555 1_555
C3 N3 1_555 1_555
C4 C3 1_555 1_555
H2 C4 1_555 1_555
C5 C4 1_555 1_555
H3 C5 1_555 1_555
C6 C5 1_555 1_555
H4 C6 1_555 1_555
C7 N3 1_555 1_555
H5 C7 1_555 1_555
C8 O1 1_555 1_555
H6 C8 1_555 1_555
H7 C8 1_555 1_555
O1A Cu1 1_555 1_555
H1A O1A 1_555 1_555
N2A Cu1 1_555 1_555
N3A Cu1 1_555 1_555
C2A N2A 1_555 1_555
C3A N3A 1_555 1_555
C4A C3A 1_555 1_555
H2A C4A 1_555 1_555
C5A C4A 1_555 1_555
H3A C5A 1_555 1_555
C6A C5A 1_555 1_555
H4A C6A 1_555 1_555
C7A N3A 1_555 1_555
H5A C7A 1_555 1_555
C8A O1A 1_555 1_555
H6A C8A 1_555 1_555
H7A C8A 1_555 1_555
N1A C1A 1_555 1_555
C1A Pt1 1_555 1_555
Pt1_2 C2A 1_555 1_555
C2A_2 Pt1 1_555 1_555
N2 C2 1_555 1_555
C3 C8 1_555 1_555
C6 C7 1_555 1_555
C3A C8A 1_555 1_555
C6A C7A 1_555 1_555

#END
