
#######################################################################
#
#                 Cambridge Crystallographic Data Centre
#                                CCDC 
#
#######################################################################
#
# If this CIF has been generated from an entry in the Cambridge 
# Structural Database, then it will include bibliographic, chemical, 
# crystal, experimental, refinement or atomic coordinate data resulting 
# from the CCDC's data processing and validation procedures.
#
#######################################################################

data_JULHIH
_symmetry_cell_setting           orthorhombic
_symmetry_space_group_name_H-M   'P b c a'
_symmetry_Int_Tables_number      61
_space_group_name_Hall           '-P 2ac 2ab'
loop_
_symmetry_equiv_pos_site_id
_symmetry_equiv_pos_as_xyz
1 x,y,z
2 1/2-x,1/2+y,z
3 x,1/2-y,1/2+z
4 1/2+x,y,1/2-z
5 -x,-y,-z
6 1/2+x,1/2-y,-z
7 -x,1/2+y,1/2-z
8 1/2-x,-y,1/2+z
_cell_length_a                   20.858(2)
_cell_length_b                   10.880(2)
_cell_length_c                   7.743(2)
_cell_angle_alpha                90
_cell_angle_beta                 90
_cell_angle_gamma                90
_cell_volume                     1757.16
loop_
_atom_site_label
_atom_site_type_symbol
_atom_site_fract_x
_atom_site_fract_y
_atom_site_fract_z
K1 K -0.04895(6) -0.05176(10) 0.7200(1)
S1 S 0.04141(7) 0.1615(1) 0.8900(2)
O1 O 0.0712(2) 0.0231(3) 0.6243(4)
O2 O 0.3614(2) 0.1392(3) 0.7831(4)
C1 C 0.1628(2) 0.1094(4) 0.7566(6)
C2 C 0.1900(2) 0.2042(4) 0.8520(6)
C3 C 0.2558(2) 0.2195(4) 0.8618(6)
C4 C 0.2958(2) 0.1354(4) 0.7795(6)
C5 C 0.2692(2) 0.0393(4) 0.6846(6)
C6 C 0.2037(2) 0.0275(4) 0.6726(6)
C7 C 0.0913(2) 0.0914(4) 0.7415(6)
C8 C 0.3910(2) 0.2363(5) 0.8808(8)
H1 H 0.1621 0.2589 0.9153
H2 H 0.2749 0.2870 0.9258
H3 H 0.2973 -0.0171 0.6267
H4 H 0.1857 -0.0381 0.6040
H5 H 0.3816 0.2255 1.0026
H6 H 0.3733 0.3147 0.8479
H7 H 0.4355 0.2374 0.8656
O1D O -0.0712(2) -0.0231(3) 0.3757(4)
K1D K 0.04895(6) 0.05176(10) 0.2800(1)
loop_
_geom_bond_atom_site_label_1
_geom_bond_atom_site_label_2
_geom_bond_site_symmetry_1
_geom_bond_site_symmetry_2
K1 S1 1_555 1_555
S1 C7 1_555 1_555
O1 K1 1_555 1_555
O2 C4 1_555 1_555
C1 C2 1_555 1_555
C2 C3 1_555 1_555
C3 C4 1_555 1_555
C4 C5 1_555 1_555
C5 C6 1_555 1_555
C6 C1 1_555 1_555
C7 O1 1_555 1_555
C8 O2 1_555 1_555
H1 C2 1_555 1_555
H2 C3 1_555 1_555
H3 C5 1_555 1_555
H4 C6 1_555 1_555
H5 C8 1_555 1_555
H6 C8 1_555 1_555
H7 C8 1_555 1_555
O1D K1 1_555 1_555
K1D O1 1_555 1_555
C1 C7 1_555 1_555
O1D K1D 1_555 1_555

#END
