
#######################################################################
#
#                 Cambridge Crystallographic Data Centre
#                                CCDC 
#
#######################################################################
#
# If this CIF has been generated from an entry in the Cambridge 
# Structural Database, then it will include bibliographic, chemical, 
# crystal, experimental, refinement or atomic coordinate data resulting 
# from the CCDC's data processing and validation procedures.
#
#######################################################################

data_JULWOE01
_symmetry_cell_setting           monoclinic
_symmetry_space_group_name_H-M   'P 21/n'
_symmetry_Int_Tables_number      14
_space_group_name_Hall           '-P 2yn'
loop_
_symmetry_equiv_pos_site_id
_symmetry_equiv_pos_as_xyz
1 x,y,z
2 1/2-x,1/2+y,1/2-z
3 -x,-y,-z
4 1/2+x,1/2-y,1/2+z
_cell_length_a                   4.22840(10)
_cell_length_b                   14.3638(7)
_cell_length_c                   13.6840(5)
_cell_angle_alpha                90
_cell_angle_beta                 95.241(3)
_cell_angle_gamma                90
_cell_volume                     827.635
loop_
_atom_site_label
_atom_site_type_symbol
_atom_site_fract_x
_atom_site_fract_y
_atom_site_fract_z
I1 I 0.75396(12) 0.52445(5) 0.14015(4)
Cu1 Cu 0.2399(3) 0.44689(11) 0.05455(9)
N1 N -0.402(2) 0.1516(9) -0.0834(6)
O1 O -0.5269(17) 0.2111(7) -0.1387(5)
C1 C 0.168(2) 0.1533(10) 0.1373(7)
H1 H 0.26(3) 0.104(9) 0.186(9)
N2 N 0.481(2) 0.2828(11) 0.2018(6)
H2 H 0.57(3) 0.343(8) 0.206(8)
H3 H 0.53(2) 0.243(7) 0.246(7)
C2 C -0.171(2) 0.1819(8) -0.0058(6)
C3 C 0.2617(19) 0.2470(9) 0.1345(6)
C4 C -0.049(3) 0.1218(11) 0.0666(8)
H4 H -0.09(2) 0.067(6) 0.063(7)
N3 N 0.1431(16) 0.3075(6) 0.0640(5)
C5 C -0.076(2) 0.2725(9) -0.0043(6)
H5 H -0.145(19) 0.314(6) -0.045(6)
O2 O -0.466(2) 0.0690(8) -0.0898(6)
I1_2 I -0.24604(12) 0.52445(5) 0.14015(4)
I1B I 0.24604(12) 0.47555(5) -0.14015(4)
Cu1_2 Cu 1.2399(3) 0.44689(11) 0.05455(9)
Cu1B Cu 0.7601(3) 0.55311(11) -0.05455(9)
loop_
_geom_bond_atom_site_label_1
_geom_bond_atom_site_label_2
_geom_bond_site_symmetry_1
_geom_bond_site_symmetry_2
I1 Cu1 1_555 1_555
Cu1 N3 1_555 1_555
N1 O1 1_555 1_555
C1 H1 1_555 1_555
N2 H2 1_555 1_555
H3 N2 1_555 1_555
C2 N1 1_555 1_555
C3 C1 1_555 1_555
C4 C1 1_555 1_555
H4 C4 1_555 1_555
N3 C3 1_555 1_555
C5 C2 1_555 1_555
H5 C5 1_555 1_555
O2 N1 1_555 1_555
I1_2 Cu1 1_555 1_555
I1B Cu1 1_555 1_555
Cu1_2 I1 1_555 1_555
Cu1B I1 1_555 1_555
N2 C3 1_555 1_555
C2 C4 1_555 1_555
N3 C5 1_555 1_555
I1B Cu1B 1_555 1_555

#END
