
#######################################################################
#
#                 Cambridge Crystallographic Data Centre
#                                CCDC 
#
#######################################################################
#
# If this CIF has been generated from an entry in the Cambridge 
# Structural Database, then it will include bibliographic, chemical, 
# crystal, experimental, refinement or atomic coordinate data resulting 
# from the CCDC's data processing and validation procedures.
#
#######################################################################

data_JULWOE
_symmetry_cell_setting           monoclinic
_symmetry_space_group_name_H-M   'P n'
_symmetry_Int_Tables_number      7
_space_group_name_Hall           'P -2yac'
loop_
_symmetry_equiv_pos_site_id
_symmetry_equiv_pos_as_xyz
1 x,y,z
2 1/2+x,-y,1/2+z
_cell_length_a                   4.19820(10)
_cell_length_b                   14.3433(3)
_cell_length_c                   13.6017(3)
_cell_angle_alpha                90
_cell_angle_beta                 94.707(2)
_cell_angle_gamma                90
_cell_volume                     816.278
loop_
_atom_site_label
_atom_site_type_symbol
_atom_site_fract_x
_atom_site_fract_y
_atom_site_fract_z
C1 C 0.6943(13) -0.0892(4) 0.3852(4)
C2 C 0.8264(15) -0.1515(5) 0.4553(5)
C3 C 1.0416(13) -0.1191(4) 0.5250(4)
H1 H 1.1362 -0.1603 0.5737
C4 C 1.1283(15) -0.0244(4) 0.5265(4)
C5 C 0.7849(13) 0.0034(4) 0.3893(4)
H2 H 0.6901 0.0451 0.3411
C6 C 0.9406(14) 0.4559(4) 0.3999(4)
C7 C 1.0387(13) 0.5470(4) 0.3985(4)
C8 C 0.9206(15) 0.6069(5) 0.3252(5)
C9 C 0.7013(14) 0.5726(5) 0.2547(5)
C10 C 0.6044(16) 0.4785(4) 0.2582(5)
Cu1 Cu 1.09163(16) 0.17651(6) 0.45540(5)
Cu2 Cu 0.62418(16) 0.28184(5) 0.34643(5)
I1 I 1.11143(6) 0.20567(2) 0.25787(3)
I2 I 0.60652(7) 0.25582(3) 0.53936(3)
N1 N 1.0000(10) 0.0369(3) 0.4582(3)
N2 N 0.4614(13) -0.1202(4) 0.3059(4)
N3 N 1.3469(12) 0.0082(4) 0.5949(3)
H3 H 1.4026 0.0673 0.5945
H4 H 1.4352 -0.0295 0.6404
N4 N 0.7241(10) 0.4213(3) 0.3315(3)
N5 N 1.2726(12) 0.5772(4) 0.4755(4)
O1 O 0.4081(12) -0.2027(4) 0.2990(3)
O2 O 0.3315(11) -0.0602(3) 0.2515(3)
N6 N 0.3906(12) 0.4428(4) 0.1916(3)
H5 H 0.3319 0.3841 0.1961
H6 H 0.3072 0.4777 0.1428
O3 O 1.3372(13) 0.6598(4) 0.4819(4)
O4 O 1.3931(11) 0.5194(3) 0.5325(3)
H7 H 0.748(14) -0.214(4) 0.445(4)
H8 H 1.018(15) 0.424(5) 0.445(5)
H9 H 0.986(14) 0.668(4) 0.325(4)
H10 H 0.611(14) 0.601(4) 0.207(4)
Cu1_2 Cu 0.09163(16) 0.17651(6) 0.45540(5)
Cu2_2 Cu 1.62418(16) 0.28184(5) 0.34643(5)
I1_2 I 0.11143(6) 0.20567(2) 0.25787(3)
I2_2 I 1.60652(7) 0.25582(3) 0.53936(3)
loop_
_geom_bond_atom_site_label_1
_geom_bond_atom_site_label_2
_geom_bond_site_symmetry_1
_geom_bond_site_symmetry_2
C1 C2 1_555 1_555
C2 C3 1_555 1_555
C3 H1 1_555 1_555
C4 C3 1_555 1_555
C5 C1 1_555 1_555
H2 C5 1_555 1_555
C6 C7 1_555 1_555
C7 C8 1_555 1_555
C8 C9 1_555 1_555
C9 C10 1_555 1_555
C10 N4 1_555 1_555
Cu1 I1 1_555 1_555
Cu2 I1 1_555 1_555
I1 Cu2_2 1_555 1_555
I2 Cu1 1_555 1_555
N1 C4 1_555 1_555
N2 C1 1_555 1_555
N3 C4 1_555 1_555
H3 N3 1_555 1_555
H4 N3 1_555 1_555
N4 C6 1_555 1_555
N5 C7 1_555 1_555
O1 N2 1_555 1_555
O2 N2 1_555 1_555
N6 C10 1_555 1_555
H5 N6 1_555 1_555
H6 N6 1_555 1_555
O3 N5 1_555 1_555
O4 N5 1_555 1_555
H7 C2 1_555 1_555
H8 C6 1_555 1_555
H9 C8 1_555 1_555
H10 C9 1_555 1_555
Cu1_2 I2 1_555 1_555
Cu2_2 I2_2 1_555 1_555
I1_2 Cu2 1_555 1_555
I2_2 Cu1 1_555 1_555
C5 N1 1_555 1_555
Cu1 N1 1_555 1_555
Cu2 I2 1_555 1_555
Cu2 N4 1_555 1_555
Cu1_2 I1_2 1_555 1_555

#END
