
#######################################################################
#
#                 Cambridge Crystallographic Data Centre
#                                CCDC 
#
#######################################################################
#
# If this CIF has been generated from an entry in the Cambridge 
# Structural Database, then it will include bibliographic, chemical, 
# crystal, experimental, refinement or atomic coordinate data resulting 
# from the CCDC's data processing and validation procedures.
#
#######################################################################

data_JULWOE02
_symmetry_cell_setting           monoclinic
_symmetry_space_group_name_H-M   'P 21/c'
_symmetry_Int_Tables_number      14
_space_group_name_Hall           '-P 2ybc'
loop_
_symmetry_equiv_pos_site_id
_symmetry_equiv_pos_as_xyz
1 x,y,z
2 -x,1/2+y,1/2-z
3 -x,-y,-z
4 x,1/2-y,1/2+z
_cell_length_a                   4.07080(10)
_cell_length_b                   7.5386(2)
_cell_length_c                   28.2779(7)
_cell_angle_alpha                90
_cell_angle_beta                 90.8800(10)
_cell_angle_gamma                90
_cell_volume                     867.694
loop_
_atom_site_label
_atom_site_type_symbol
_atom_site_fract_x
_atom_site_fract_y
_atom_site_fract_z
I1 I 1.27913(5) -0.25864(3) 0.48858(2)
Cu1 Cu 1.22782(12) 0.08662(6) 0.47230(2)
N1 N 1.1109(7) 0.1076(4) 0.40094(9)
C1 C 0.9445(9) -0.0268(5) 0.38107(12)
C2 C 1.1653(9) 0.2529(5) 0.37419(12)
H1 H 0.9031 -0.1271 0.3992
C3 C 0.8326(9) -0.0227(5) 0.33511(12)
C4 C 1.0552(11) 0.2628(6) 0.32663(13)
N2 N 1.3259(10) 0.3871(5) 0.39458(12)
C5 C 0.8882(10) 0.1249(6) 0.30736(13)
N3 N 0.6535(9) -0.1728(5) 0.31642(13)
H2 H 1.0973 0.3634 0.3087
H3 H 1.3902 0.3790 0.4236
H4 H 1.3653 0.4819 0.3787
H5 H 0.8125 0.1292 0.2762
O1 O 0.6185(11) -0.3034(5) 0.34122(13)
O2 O 0.5397(10) -0.1633(5) 0.27623(11)
Cu1B Cu 0.77218(12) -0.08662(6) 0.52770(2)
Cu1B_2 Cu 1.77218(12) -0.08662(6) 0.52770(2)
I1B I 0.72087(5) 0.25864(3) 0.51142(2)
I1B_2 I 1.72087(5) 0.25864(3) 0.51142(2)
loop_
_geom_bond_atom_site_label_1
_geom_bond_atom_site_label_2
_geom_bond_site_symmetry_1
_geom_bond_site_symmetry_2
I1 Cu1 1_555 1_555
Cu1 N1 1_555 1_555
N1 C1 1_555 1_555
C1 H1 1_555 1_555
C2 N1 1_555 1_555
C3 C1 1_555 1_555
C4 C2 1_555 1_555
N2 C2 1_555 1_555
C5 C3 1_555 1_555
N3 C3 1_555 1_555
H2 C4 1_555 1_555
H3 N2 1_555 1_555
H4 N2 1_555 1_555
H5 C5 1_555 1_555
O1 N3 1_555 1_555
O2 N3 1_555 1_555
Cu1B I1 1_555 1_555
Cu1B_2 I1 1_555 1_555
I1B Cu1 1_555 1_555
I1B_2 Cu1 1_555 1_555
C4 C5 1_555 1_555
Cu1B I1B 1_555 1_555
Cu1B_2 I1B_2 1_555 1_555

#END
