
#######################################################################
#
#                 Cambridge Crystallographic Data Centre
#                                CCDC 
#
#######################################################################
#
# If this CIF has been generated from an entry in the Cambridge 
# Structural Database, then it will include bibliographic, chemical, 
# crystal, experimental, refinement or atomic coordinate data resulting 
# from the CCDC's data processing and validation procedures.
#
#######################################################################

data_JUMCIF
_symmetry_cell_setting           triclinic
_symmetry_space_group_name_H-M   'P -1'
_symmetry_Int_Tables_number      2
_space_group_name_Hall           '-P 1'
loop_
_symmetry_equiv_pos_site_id
_symmetry_equiv_pos_as_xyz
1 x,y,z
2 -x,-y,-z
_cell_length_a                   8.4111(5)
_cell_length_b                   9.8304(18)
_cell_length_c                   13.1372(19)
_cell_angle_alpha                78.489(13)
_cell_angle_beta                 84.242(7)
_cell_angle_gamma                70.193(8)
_cell_volume                     1000.79
loop_
_atom_site_label
_atom_site_type_symbol
_atom_site_fract_x
_atom_site_fract_y
_atom_site_fract_z
Ag1 Ag 0.95455(3) 0.25296(3) 0.65473(2)
O1 O 0.7834(3) 0.7028(3) 0.5406(2)
O2 O 0.9381(3) 0.4944(3) 0.62215(19)
N1 N 1.1153(3) 0.0224(3) 0.62318(19)
N2 N 0.7776(3) 0.0949(3) 0.68957(19)
N3 N 0.0750(3) 0.1866(3) 0.9307(2)
N4 N -0.5880(3) 0.3364(3) 1.0989(2)
N5 N 0.0983(3) 0.2276(3) 0.8351(2)
C1 C 0.6078(3) 0.1266(3) 0.7294(2)
C2 C 1.0355(3) -0.0788(3) 0.6345(2)
N6 N 0.8098(3) 0.5701(3) 0.5703(2)
C3 C -0.2372(4) 0.2695(4) 0.9048(3)
H1 H -0.2217 0.2789 0.8330
C4 C 0.3176(4) 0.2823(4) 0.7190(2)
H2 H 0.2341 0.3634 0.6855
C5 C 1.2786(4) -0.0189(4) 0.5926(2)
H3 H 1.3357 0.0488 0.5854
C6 C 0.8570(4) -0.0326(3) 0.6708(2)
H4 H 0.7998 -0.1005 0.6805
C7 C -0.3980(4) 0.3055(4) 0.9475(3)
H5 H -0.4893 0.3364 0.9043
C8 C -0.4279(4) 0.2966(3) 1.0562(2)
C9 C 0.2749(4) 0.1910(4) 0.8045(2)
C10 C 1.1153(4) -0.2187(4) 0.6139(3)
H6 H 1.0564 -0.2852 0.6213
C11 C 0.3990(4) 0.0704(4) 0.8539(3)
H7 H 0.3711 0.0116 0.9128
C12 C 1.2847(4) -0.2590(4) 0.5818(3)
H8 H 1.3414 -0.3529 0.5677
C13 C 0.5643(4) 0.0367(4) 0.8162(3)
H9 H 0.6470 -0.0460 0.8487
C14 C 1.3667(4) -0.1575(4) 0.5712(2)
H10 H 1.4802 -0.1816 0.5500
C15 C -0.1235(4) 0.2038(4) 1.0737(3)
H11 H -0.0311 0.1659 1.1164
C16 C -0.0961(4) 0.2192(4) 0.9664(3)
C17 C 0.4851(4) 0.2524(4) 0.6835(2)
H12 H 0.5149 0.3167 0.6291
C18 C -0.2847(4) 0.2437(4) 1.1180(3)
H13 H -0.2989 0.2354 1.1899
C19 C -0.6149(5) 0.3435(5) 1.2088(3)
H14 H -0.7340 0.3734 1.2259
H15 H -0.5683 0.4133 1.2244
H16 H -0.5604 0.2484 1.2488
C20 C -0.7350(4) 0.3828(5) 1.0358(3)
H17 H -0.8357 0.4070 1.0794
H18 H -0.7325 0.3046 1.0014
H19 H -0.7344 0.4676 0.9849
O3 O 0.7110(4) 0.5098(3) 0.5516(2)
Ag1_2 Ag -0.04545(3) 0.25296(3) 0.65473(2)
N5_2 N 1.0983(3) 0.2276(3) 0.8351(2)
loop_
_geom_bond_atom_site_label_1
_geom_bond_atom_site_label_2
_geom_bond_site_symmetry_1
_geom_bond_site_symmetry_2
Ag1 O2 1_555 1_555
O1 N6 1_555 1_555
O2 N6 1_555 1_555
N1 Ag1 1_555 1_555
N2 Ag1 1_555 1_555
N3 N5 1_555 1_555
N4 C8 1_555 1_555
N5 C9 1_555 1_555
C1 N2 1_555 1_555
C2 N1 1_555 1_555
N6 O3 1_555 1_555
C3 H1 1_555 1_555
C4 H2 1_555 1_555
C5 N1 1_555 1_555
H3 C5 1_555 1_555
C6 N2 1_555 1_555
H4 C6 1_555 1_555
C7 C3 1_555 1_555
H5 C7 1_555 1_555
C8 C7 1_555 1_555
C9 C4 1_555 1_555
C10 C2 1_555 1_555
H6 C10 1_555 1_555
C11 C9 1_555 1_555
H7 C11 1_555 1_555
C12 C10 1_555 1_555
H8 C12 1_555 1_555
C13 C1 1_555 1_555
H9 C13 1_555 1_555
C14 C5 1_555 1_555
H10 C14 1_555 1_555
C15 H11 1_555 1_555
C16 N3 1_555 1_555
C17 C1 1_555 1_555
H12 C17 1_555 1_555
C18 C8 1_555 1_555
H13 C18 1_555 1_555
C19 N4 1_555 1_555
H14 C19 1_555 1_555
H15 C19 1_555 1_555
H16 C19 1_555 1_555
C20 N4 1_555 1_555
H17 C20 1_555 1_555
H18 C20 1_555 1_555
H19 C20 1_555 1_555
Ag1_2 N5 1_555 1_555
N5_2 Ag1 1_555 1_555
C2 C6 1_555 1_555
C3 C16 1_555 1_555
C4 C17 1_555 1_555
C11 C13 1_555 1_555
C12 C14 1_555 1_555
C15 C16 1_555 1_555
C15 C18 1_555 1_555

#END
