
#######################################################################
#
#                 Cambridge Crystallographic Data Centre
#                                CCDC 
#
#######################################################################
#
# If this CIF has been generated from an entry in the Cambridge 
# Structural Database, then it will include bibliographic, chemical, 
# crystal, experimental, refinement or atomic coordinate data resulting 
# from the CCDC's data processing and validation procedures.
#
#######################################################################

data_JUMLEK
_symmetry_cell_setting           monoclinic
_symmetry_space_group_name_H-M   'P 21'
_symmetry_Int_Tables_number      4
_space_group_name_Hall           'P 2yb'
loop_
_symmetry_equiv_pos_site_id
_symmetry_equiv_pos_as_xyz
1 x,y,z
2 -x,1/2+y,-z
_cell_length_a                   11.9429(2)
_cell_length_b                   8.6874(2)
_cell_length_c                   24.1577(5)
_cell_angle_alpha                90
_cell_angle_beta                 100.984(2)
_cell_angle_gamma                90
_cell_volume                     2460.51
loop_
_atom_site_label
_atom_site_type_symbol
_atom_site_fract_x
_atom_site_fract_y
_atom_site_fract_z
Ag1 Ag 0.22688(4) 0.78361(6) -0.18452(2)
Ag2 Ag 0.17799(5) 1.02437(7) -0.27773(2)
O1 O 0.0437(5) 0.7242(7) -0.1511(3)
O2 O 0.0273(5) 0.9292(7) -0.2067(3)
O3 O -0.4061(6) 0.9276(7) -0.2243(3)
O4 O -0.3608(5) 1.1512(7) -0.1815(3)
N1 N -0.1045(6) 0.3983(8) -0.6485(3)
N2 N 0.2100(6) 0.6347(8) -0.2565(3)
N3 N 0.7571(6) 0.6890(8) 0.2136(3)
N4 N 0.3099(5) 0.9152(7) -0.1108(2)
C1 C 0.2629(6) 0.9210(8) -0.0642(3)
H1 H 0.1962 0.8661 -0.0638
C2 C 0.8174(7) 0.7309(9) 0.1746(4)
H2 H 0.8892 0.6876 0.1761
C3 C -0.1601(7) 0.3668(11) -0.6083(4)
H3 H -0.2379 0.3875 -0.6143
C4 C 0.0920(9) 0.4507(13) -0.3158(5)
H4 H 0.0211 0.4042 -0.3266
C5 C 0.1099(8) 0.5521(13) -0.2710(4)
H5 H 0.0529 0.5651 -0.2500
C6 C 0.7778(6) 0.8359(9) 0.1321(3)
H6 H 0.8225 0.8616 0.1059
C7 C 0.3105(6) 1.0057(9) -0.0169(3)
H7 H 0.2765 1.0073 0.0147
C8 C 0.4057(6) 0.9934(8) -0.1109(3)
H8 H 0.4390 0.9889 -0.1427
C9 C -0.3032(6) 0.9217(9) -0.1300(3)
H9 H -0.3337 0.8180 -0.1314
H10 H -0.3232 0.9721 -0.0974
C10 C -0.1412(6) 0.8427(8) -0.1750(3)
H11 H -0.1750 0.7410 -0.1803
H12 H -0.1772 0.9059 -0.2065
C11 C 0.6117(6) 0.8628(9) 0.1713(3)
H13 H 0.5416 0.9083 0.1722
C12 C 0.6225(6) 1.0053(9) 0.0801(3)
H14 H 0.6792 1.0821 0.0759
H15 H 0.6083 0.9439 0.0460
C13 C 0.6579(6) 0.7555(9) 0.2119(3)
H16 H 0.6163 0.7294 0.2394
C14 C -0.1272(6) 0.8024(9) -0.0708(3)
H17 H -0.0470 0.7797 -0.0689
H18 H -0.1690 0.7062 -0.0770
C15 C 0.4121(6) 1.0902(8) -0.0175(3)
C16 C 0.4569(6) 1.0804(8) -0.0658(3)
H19 H 0.5234 1.1340 -0.0679
C17 C 0.6721(6) 0.9015(8) 0.1291(3)
C18 C -0.1075(8) 0.3032(12) -0.5568(4)
H20 H -0.1511 0.2814 -0.5297
C19 C 0.4647(6) 1.1846(8) 0.0327(3)
H21 H 0.4075 1.2543 0.0419
H22 H 0.5256 1.2465 0.0228
C20 C -0.3600(6) 1.0057(9) -0.1817(3)
C21 C 0.5134(6) 1.0871(8) 0.0853(3)
H23 H 0.5279 1.1536 0.1182
H24 H 0.4571 1.0114 0.0911
C22 C -0.1686(6) 0.9111(8) -0.1210(3)
C23 C 0.1624(11) 0.2963(13) -0.3902(4)
H25 H 0.1246 0.2080 -0.3774
H26 H 0.2366 0.2628 -0.3963
C24 C 0.2790(8) 0.5008(10) -0.3295(4)
H27 H 0.3384 0.4859 -0.3488
C25 C 0.1787(9) 0.4174(10) -0.3449(4)
C26 C 0.0034(8) 0.2733(11) -0.5457(3)
C27 C -0.0147(6) 0.8290(8) -0.1768(3)
C28 C -0.1124(6) 1.0745(8) -0.1089(3)
H28 H -0.0316 1.0676 -0.1094
H29 H -0.1465 1.1453 -0.1384
C29 C -0.0881(7) 1.0261(11) -0.0030(3)
H30 H -0.0060 1.0138 0.0026
H31 H -0.1063 1.0696 0.0312
C30 C 0.2910(7) 0.6044(10) -0.2865(4)
H32 H 0.3597 0.6573 -0.2773
C31 C -0.1438(7) 0.8735(10) -0.0138(3)
H33 H -0.2248 0.8844 -0.0141
H34 H -0.1125 0.8040 0.0166
C32 C 0.0676(10) 0.2166(11) -0.4880(4)
H35 H 0.1390 0.1691 -0.4922
H36 H 0.0221 0.1398 -0.4732
C33 C 0.0608(10) 0.298(2) -0.5880(4)
H37 H 0.1378 0.2738 -0.5833
C34 C 0.0919(8) 0.3537(10) -0.4461(3)
H38 H 0.1335 0.4334 -0.4618
H39 H 0.0205 0.3971 -0.4398
C35 C -0.1282(7) 1.1362(9) -0.0524(4)
H40 H -0.2084 1.1587 -0.0543
H41 H -0.0866 1.2322 -0.0451
C36 C 0.0038(10) 0.3608(19) -0.6386(5)
H42 H 0.0450 0.3769 -0.6671
Ag2A Ag -0.17799(5) 0.52437(7) -0.72227(2)
Ag2A_2 Ag 0.82201(5) 0.52437(7) 0.27773(2)
N1A N 0.1045(6) 0.8983(8) -0.3515(3)
N3A N 0.2429(6) 1.1890(8) -0.2136(3)
O5 O -0.2732(5) 0.4269(7) -0.1274(3)
O6 O -0.4131(6) 0.6127(7) -0.2087(3)
O7 O 0.4117(6) 0.9913(9) -0.3095(3)
O8 O -0.3959(7) 0.3436(8) -0.2709(4)
O9 O -0.0522(8) 0.4426(10) -0.1464(5)
O10 O -0.0859(7) 0.1412(11) -0.2764(5)
O11 O -0.1590(10) 0.4161(14) -0.2569(6)
O12 O 0.4184(12) 0.296(2) -0.4706(6)
O13 O 0.5094(15) 0.2138(16) -0.3716(6)
O14 O -0.2743(17) 0.977(2) -0.3119(6)
O15 O -0.2495(17) 0.6610(19) -0.3292(7)
O16 O -0.4575(19) 0.285(4) -0.6117(10)
O17 O 0.369(2) 0.012(4) -0.4927(12)
loop_
_geom_bond_atom_site_label_1
_geom_bond_atom_site_label_2
_geom_bond_site_symmetry_1
_geom_bond_site_symmetry_2
Ag1 Ag2 1_555 1_555
Ag2 N1A 1_555 1_555
O1 Ag1 1_555 1_555
O2 Ag1 1_555 1_555
O3 C20 1_555 1_555
O4 C20 1_555 1_555
N1 C3 1_555 1_555
N2 Ag1 1_555 1_555
N3 C2 1_555 1_555
N4 Ag1 1_555 1_555
C1 N4 1_555 1_555
H1 C1 1_555 1_555
C2 H2 1_555 1_555
C3 H3 1_555 1_555
C4 H4 1_555 1_555
C5 N2 1_555 1_555
H5 C5 1_555 1_555
C6 C2 1_555 1_555
H6 C6 1_555 1_555
C7 C1 1_555 1_555
H7 C7 1_555 1_555
C8 N4 1_555 1_555
H8 C8 1_555 1_555
C9 H9 1_555 1_555
H10 C9 1_555 1_555
C10 H11 1_555 1_555
H12 C10 1_555 1_555
C11 H13 1_555 1_555
C12 H14 1_555 1_555
H15 C12 1_555 1_555
C13 N3 1_555 1_555
H16 C13 1_555 1_555
C14 H17 1_555 1_555
H18 C14 1_555 1_555
C15 C7 1_555 1_555
C16 C8 1_555 1_555
H19 C16 1_555 1_555
C17 C6 1_555 1_555
C18 C3 1_555 1_555
H20 C18 1_555 1_555
C19 C15 1_555 1_555
H21 C19 1_555 1_555
H22 C19 1_555 1_555
C20 C9 1_555 1_555
C21 C12 1_555 1_555
H23 C21 1_555 1_555
H24 C21 1_555 1_555
C22 C9 1_555 1_555
C23 H25 1_555 1_555
H26 C23 1_555 1_555
C24 H27 1_555 1_555
C25 C4 1_555 1_555
C26 C18 1_555 1_555
C27 O1 1_555 1_555
C28 C22 1_555 1_555
H28 C28 1_555 1_555
H29 C28 1_555 1_555
C29 H30 1_555 1_555
H31 C29 1_555 1_555
C30 N2 1_555 1_555
H32 C30 1_555 1_555
C31 C14 1_555 1_555
H33 C31 1_555 1_555
H34 C31 1_555 1_555
C32 C26 1_555 1_555
H35 C32 1_555 1_555
H36 C32 1_555 1_555
C33 C26 1_555 1_555
H37 C33 1_555 1_555
C34 C23 1_555 1_555
H38 C34 1_555 1_555
H39 C34 1_555 1_555
C35 C28 1_555 1_555
H40 C35 1_555 1_555
H41 C35 1_555 1_555
C36 N1 1_555 1_555
H42 C36 1_555 1_555
Ag2A N1 1_555 1_555
Ag2A_2 N3 1_555 1_555
N3A Ag2 1_555 1_555
O2 C27 1_555 1_555
C4 C5 1_555 1_555
C10 C22 1_555 1_555
C10 C27 1_555 1_555
C11 C13 1_555 1_555
C11 C17 1_555 1_555
C12 C17 1_555 1_555
C14 C22 1_555 1_555
C15 C16 1_555 1_555
C19 C21 1_555 1_555
C23 C25 1_555 1_555
C24 C25 1_555 1_555
C24 C30 1_555 1_555
C29 C31 1_555 1_555
C29 C35 1_555 1_555
C32 C34 1_555 1_555
C33 C36 1_555 1_555

#END
