
#######################################################################
#
#                 Cambridge Crystallographic Data Centre
#                                CCDC 
#
#######################################################################
#
# If this CIF has been generated from an entry in the Cambridge 
# Structural Database, then it will include bibliographic, chemical, 
# crystal, experimental, refinement or atomic coordinate data resulting 
# from the CCDC's data processing and validation procedures.
#
#######################################################################

data_JUMPOW
_symmetry_cell_setting           monoclinic
_symmetry_space_group_name_H-M   'P 21/c'
_symmetry_Int_Tables_number      14
_space_group_name_Hall           '-P 2ybc'
loop_
_symmetry_equiv_pos_site_id
_symmetry_equiv_pos_as_xyz
1 x,y,z
2 -x,1/2+y,1/2-z
3 -x,-y,-z
4 x,1/2-y,1/2+z
_cell_length_a                   12.116(1)
_cell_length_b                   14.112(1)
_cell_length_c                   22.031(2)
_cell_angle_alpha                90
_cell_angle_beta                 116.05(1)
_cell_angle_gamma                90
_cell_volume                     3384.21
loop_
_atom_site_label
_atom_site_type_symbol
_atom_site_fract_x
_atom_site_fract_y
_atom_site_fract_z
Mo1 Mo 0.64356(2) 0.33384(2) 0.18110(1)
Mo2 Mo 0.43669(2) 0.36431(2) 0.25288(1)
Cu1 Cu 0.42050(3) 0.16727(3) 0.15513(2)
Cu2 Cu 0.62560(3) 0.16078(3) 0.29213(2)
O1 O 0.6602(2) 0.4532(2) 0.1828(1)
O2 O 0.6234(2) 0.3026(2) 0.1028(1)
O3 O 0.4438(2) 0.4837(2) 0.2424(1)
O4 O 0.4460(2) 0.3527(2) 0.3312(1)
O5 O 0.6174(2) 0.3375(2) 0.2777(1)
O6 O 0.4591(2) 0.3353(2) 0.15851(9)
O7 O 0.6476(2) 0.1499(2) 0.3815(1)
O8 O 0.6027(2) 0.1795(1) 0.19674(9)
O9 O 0.8068(2) 0.2962(2) 0.2377(1)
O10 O 0.3971(2) 0.1349(2) 0.0683(1)
O11 O 0.4496(2) 0.2026(1) 0.2489(1)
O12 O 0.2676(2) 0.3397(2) 0.1983(1)
N1 N 0.7902(2) 0.1288(2) 0.3089(1)
N2 N 0.2525(2) 0.1543(2) 0.1393(1)
C1 C 0.3738(3) 0.3821(3) 0.0977(2)
C2 C 0.7100(3) 0.3748(3) 0.3400(2)
C3 C 0.7538(3) 0.1358(2) 0.4340(2)
C4 C 0.7571(3) 0.1295(3) 0.4982(2)
C5 C 0.8655(4) 0.1162(3) 0.5558(2)
C6 C 0.9761(4) 0.1092(3) 0.5522(2)
C7 C 0.9770(3) 0.1147(3) 0.4908(2)
C8 C 0.8681(3) 0.1262(2) 0.4305(2)
C9 C 0.8792(3) 0.1228(2) 0.3684(2)
C10 C 0.8117(3) 0.1224(2) 0.2475(2)
C11 C 0.6848(3) 0.1132(2) 0.1885(2)
C12 C 0.8739(3) 0.2132(2) 0.2404(2)
C13 C 0.8900(3) 0.0367(2) 0.2496(2)
C14 C 0.2890(3) 0.1338(3) 0.0151(2)
C15 C 0.2855(3) 0.1293(3) -0.0492(2)
C16 C 0.1777(4) 0.1291(3) -0.1069(2)
C17 C 0.0655(4) 0.1307(3) -0.1038(2)
C18 C 0.0650(3) 0.1356(3) -0.0421(2)
C19 C 0.1747(3) 0.1373(3) 0.0184(2)
C20 C 0.1628(3) 0.1454(3) 0.0802(2)
C21 C 0.2324(3) 0.1676(2) 0.2008(2)
C22 C 0.3572(3) 0.1512(3) 0.2599(2)
C23 C 0.1891(3) 0.2688(3) 0.2044(2)
C24 C 0.1383(3) 0.0988(3) 0.2045(2)
H1 H 0.783(3) 0.357(3) 0.341(2)
H2 H 0.701(3) 0.348(3) 0.381(2)
H3 H 0.698(3) 0.439(3) 0.346(2)
H4 H 0.404(3) 0.457(3) 0.103(2)
H5 H 0.299(3) 0.377(3) 0.098(2)
H6 H 0.375(3) 0.357(3) 0.063(2)
H7 H 0.692(3) 0.138(3) 0.503(2)
H8 H 0.865(3) 0.116(3) 0.600(2)
H9 H 1.047(3) 0.104(3) 0.591(2)
H10 H 1.047(3) 0.109(2) 0.485(2)
H11 H 0.958(3) 0.116(2) 0.373(1)
H12 H 0.687(2) 0.122(2) 0.146(1)
H13 H 0.658(2) 0.054(2) 0.188(1)
H14 H 0.885(3) 0.209(2) 0.200(2)
H15 H 0.951(3) 0.223(2) 0.279(2)
H16 H 0.856(3) -0.020(3) 0.256(2)
H17 H 0.891(3) 0.029(2) 0.207(2)
H18 H 0.974(3) 0.039(3) 0.285(2)
H19 H 0.360(3) 0.124(2) -0.052(2)
H20 H 0.177(3) 0.126(2) -0.148(2)
H21 H -0.016(3) 0.129(3) -0.146(2)
H22 H -0.012(3) 0.142(3) -0.038(2)
H23 H 0.083(3) 0.150(2) 0.076(2)
H24 H 0.376(3) 0.086(2) 0.263(2)
H25 H 0.361(3) 0.176(2) 0.299(2)
H26 H 0.180(2) 0.277(2) 0.245(2)
H27 H 0.113(3) 0.278(2) 0.166(2)
H28 H 0.058(3) 0.109(3) 0.169(2)
H29 H 0.158(3) 0.036(3) 0.205(2)
H30 H 0.139(3) 0.102(2) 0.246(2)
Cu2A Cu 0.37440(3) 0.66078(3) 0.20787(2)
O3A O 0.5562(2) -0.0163(2) 0.2576(1)
C25 C 0.2844(4) 0.1176(4) 0.4088(2)
C26 C 0.4168(4) 0.1151(6) 0.4389(2)
N3 N 0.1823(4) 0.1202(4) 0.3845(3)
H31 H 0.452 0.087 0.489
H32 H 0.450 0.186 0.441
H33 H 0.447 0.071 0.409
C27 C 0.8575(4) 0.1262(4) 0.0574(3)
C28 C 0.7569(4) 0.1233(3) 0.0294(2)
N4 N 0.6226(4) 0.1208(4) -0.0067(2)
H34 H 0.899 0.112 0.024
H35 H 0.887 0.074 0.097
H36 H 0.885 0.196 0.079
loop_
_geom_bond_atom_site_label_1
_geom_bond_atom_site_label_2
_geom_bond_site_symmetry_1
_geom_bond_site_symmetry_2
Mo1 O1 1_555 1_555
Mo2 O3 1_555 1_555
Cu1 O6 1_555 1_555
Cu2 O5 1_555 1_555
O2 Mo1 1_555 1_555
O3 Cu2A 1_555 1_555
O4 Mo2 1_555 1_555
O5 Mo1 1_555 1_555
O6 Mo1 1_555 1_555
O7 Cu2 1_555 1_555
O8 Mo1 1_555 1_555
O9 Mo1 1_555 1_555
O10 Cu1 1_555 1_555
O11 Mo2 1_555 1_555
O12 Mo2 1_555 1_555
N1 Cu2 1_555 1_555
N2 Cu1 1_555 1_555
C1 O6 1_555 1_555
C2 O5 1_555 1_555
C3 O7 1_555 1_555
C4 C3 1_555 1_555
C5 C4 1_555 1_555
C6 C5 1_555 1_555
C7 C6 1_555 1_555
C8 C3 1_555 1_555
C9 N1 1_555 1_555
C10 N1 1_555 1_555
C11 O8 1_555 1_555
C12 O9 1_555 1_555
C13 C10 1_555 1_555
C14 O10 1_555 1_555
C15 C14 1_555 1_555
C16 C15 1_555 1_555
C17 C16 1_555 1_555
C18 C17 1_555 1_555
C19 C14 1_555 1_555
C20 N2 1_555 1_555
C21 N2 1_555 1_555
C22 O11 1_555 1_555
C23 O12 1_555 1_555
C24 C21 1_555 1_555
H1 C2 1_555 1_555
H2 C2 1_555 1_555
H3 C2 1_555 1_555
H4 C1 1_555 1_555
H5 C1 1_555 1_555
H6 C1 1_555 1_555
H7 C4 1_555 1_555
H8 C5 1_555 1_555
H9 C6 1_555 1_555
H10 C7 1_555 1_555
H11 C9 1_555 1_555
H12 C11 1_555 1_555
H13 C11 1_555 1_555
H14 C12 1_555 1_555
H15 C12 1_555 1_555
H16 C13 1_555 1_555
H17 C13 1_555 1_555
H18 C13 1_555 1_555
H19 C15 1_555 1_555
H20 C16 1_555 1_555
H21 C17 1_555 1_555
H22 C18 1_555 1_555
H23 C20 1_555 1_555
H24 C22 1_555 1_555
H25 C22 1_555 1_555
H26 C23 1_555 1_555
H27 C23 1_555 1_555
H28 C24 1_555 1_555
H29 C24 1_555 1_555
H30 C24 1_555 1_555
C25 C26 1_555 1_555
C26 H31 1_555 1_555
N3 C25 1_555 1_555
H32 C26 1_555 1_555
H33 C26 1_555 1_555
C27 C28 1_555 1_555
C28 N4 1_555 1_555
H34 C27 1_555 1_555
H35 C27 1_555 1_555
H36 C27 1_555 1_555
O3A Cu2 1_555 1_555
Mo2 O5 1_555 1_555
Mo2 O6 1_555 1_555
Cu1 O8 1_555 1_555
Cu1 O11 1_555 1_555
Cu2 O8 1_555 1_555
Cu2 O11 1_555 1_555
C7 C8 1_555 1_555
C8 C9 1_555 1_555
C10 C11 1_555 1_555
C10 C12 1_555 1_555
C18 C19 1_555 1_555
C19 C20 1_555 1_555
C21 C22 1_555 1_555
C21 C23 1_555 1_555

#END
