
#######################################################################
#
#                 Cambridge Crystallographic Data Centre
#                                CCDC 
#
#######################################################################
#
# If this CIF has been generated from an entry in the Cambridge 
# Structural Database, then it will include bibliographic, chemical, 
# crystal, experimental, refinement or atomic coordinate data resulting 
# from the CCDC's data processing and validation procedures.
#
#######################################################################

data_JUMQIT
_symmetry_cell_setting           triclinic
_symmetry_space_group_name_H-M   'P -1'
_symmetry_Int_Tables_number      2
_space_group_name_Hall           '-P 1'
loop_
_symmetry_equiv_pos_site_id
_symmetry_equiv_pos_as_xyz
1 x,y,z
2 -x,-y,-z
_cell_length_a                   9.2206(18)
_cell_length_b                   14.881(3)
_cell_length_c                   15.697(3)
_cell_angle_alpha                115.13(3)
_cell_angle_beta                 92.57(3)
_cell_angle_gamma                99.02(3)
_cell_volume                     1910.82
loop_
_atom_site_label
_atom_site_type_symbol
_atom_site_fract_x
_atom_site_fract_y
_atom_site_fract_z
C1 C 0.6982(4) 0.4996(2) 0.4298(2)
C2 C 0.8072(4) 0.5303(3) 0.5060(3)
H1 H 0.8793 0.4925 0.5043
C3 C 0.8036(4) 0.6188(3) 0.5836(3)
H2 H 0.8745 0.6416 0.6360
C4 C 0.6955(4) 0.6756(3) 0.5857(2)
H3 H 0.6987 0.7366 0.6386
C5 C 0.5845(4) 0.6439(2) 0.5119(2)
H4 H 0.5109 0.6809 0.5146
C6 C 0.5873(3) 0.5541(2) 0.4331(2)
C7 C 0.5479(4) 0.4243(2) 0.2971(2)
H5 H 0.5064 0.3771 0.2362
C8 C 0.7606(4) 0.3397(2) 0.3024(3)
H6 H 0.8633 0.3697 0.3284
H7 H 0.7535 0.3163 0.2343
C9 C 0.7142(4) 0.2502(2) 0.3235(2)
H8 H 0.7037 0.2745 0.3905
H9 H 0.7915 0.2105 0.3105
C10 C 0.5696(4) 0.1824(2) 0.2658(3)
C11 C 0.5569(4) 0.6280(2) 0.1036(2)
C12 C 0.6835(5) 0.6398(3) 0.0628(3)
H10 H 0.6807 0.6492 0.0079
C13 C 0.8147(5) 0.6371(4) 0.1070(3)
H11 H 0.9021 0.6447 0.0813
C14 C 0.8183(5) 0.6233(3) 0.1896(3)
H12 H 0.9084 0.6221 0.2179
C15 C 0.6926(4) 0.6113(3) 0.2299(3)
H13 H 0.6963 0.6027 0.2852
C16 C 0.5596(4) 0.6124(2) 0.1858(2)
C17 C 0.3348(4) 0.6129(2) 0.1444(2)
H14 H 0.2332 0.6102 0.1435
C18 C 0.3521(5) 0.6402(2) -0.0026(2)
H15 H 0.2454 0.6182 -0.0137
H16 H 0.3925 0.5982 -0.0587
H17 H 0.3615 0.7527 -0.0448
H18 H 0.4966 0.7717 0.0289
C19 C 0.3903(4) 0.7488(3) 0.0137(2)
C20 C 0.3159(4) 0.8204(2) 0.0928(2)
C21 C -0.0421(4) 0.0820(2) 0.1141(2)
C22 C -0.1922(4) 0.0631(3) 0.0843(2)
H19 H -0.2291 0.0914 0.0474
C23 C -0.2832(4) 0.0013(3) 0.1112(3)
H20 H -0.3845 -0.0134 0.0922
C24 C -0.2266(5) -0.0404(3) 0.1671(3)
H21 H -0.2913 -0.0825 0.1845
C25 C -0.0789(4) -0.0211(3) 0.1969(2)
H22 H -0.0430 -0.0485 0.2350
C26 C 0.0150(4) 0.0395(2) 0.1692(2)
C27 C 0.1991(4) 0.1273(2) 0.1399(2)
H23 H 0.2945 0.1578 0.1385
C28 C 0.0705(4) 0.1949(2) 0.0415(2)
H24 H -0.0057 0.1578 -0.0123
H25 H 0.1644 0.2023 0.0173
C29 C 0.0374(4) 0.2982(2) 0.1002(2)
H26 H -0.0408 0.2917 0.1377
H27 H 0.0011 0.3243 0.0579
C30 C 0.1702(4) 0.3738(3) 0.1659(2)
C31 C 0.2333(4) -0.0126(2) 0.4881(2)
C32 C 0.2540(5) 0.0234(3) 0.5865(3)
H28 H 0.1972 -0.0073 0.6178
C33 C 0.3645(5) 0.1077(3) 0.6341(3)
H29 H 0.3830 0.1343 0.6998
C34 C 0.4489(5) 0.1539(3) 0.5879(3)
H30 H 0.5224 0.2103 0.6234
C35 C 0.4269(4) 0.1186(3) 0.4903(3)
H31 H 0.4837 0.1498 0.4593
C36 C 0.3157(4) 0.0344(2) 0.4413(2)
C37 C 0.1665(4) -0.0960(3) 0.3352(2)
H32 H 0.1185 -0.1460 0.2771
C38 C 0.0271(4) -0.1667(3) 0.4340(3)
H33 H -0.0380 -0.2083 0.3753
H34 H -0.0324 -0.1298 0.4813
H35 H 0.1668 -0.1932 0.5222
H36 H 0.0198 -0.2744 0.4833
C39 C 0.0966(4) -0.2348(3) 0.4663(2)
C40 C 0.1746(4) -0.3058(2) 0.3915(3)
Co1 Co 0.32345(5) 0.55155(3) 0.30056(3)
Co2 Co 0.32922(5) 0.01930(3) 0.23756(3)
N1 N 0.6705(3) 0.41719(19) 0.34160(19)
N2 N 0.4922(3) 0.50414(19) 0.34732(19)
N3 N 0.4109(3) 0.6267(2) 0.07899(19)
N4 N 0.4166(3) 0.60352(19) 0.21057(18)
N5 N 0.0772(3) 0.13735(19) 0.09694(18)
N6 N 0.1692(3) 0.0693(2) 0.18463(18)
N7 N 0.1369(3) -0.09493(19) 0.4189(2)
N8 N 0.2697(3) -0.0197(2) 0.34315(19)
O1 O 0.5051(3) 0.12506(17) 0.30027(17)
O2 O 0.5253(3) 0.18533(18) 0.19245(17)
O3 O 0.3908(3) 0.90985(17) 0.13428(17)
O4 O 0.1963(3) 0.7915(2) 0.11151(18)
O5 O 0.1414(3) 0.44936(17) 0.23596(17)
O6 O 0.2965(3) 0.36114(19) 0.14708(17)
O7 O 0.2652(3) -0.34774(16) 0.41892(15)
O8 O 0.1488(3) -0.32337(18) 0.30716(17)
Co1_2 Co 0.32345(5) -0.44845(3) 0.30056(3)
Co2_2 Co 0.32922(5) 1.01930(3) 0.23756(3)
O3_2 O 0.3908(3) -0.09015(17) 0.13428(17)
O7_2 O 0.2652(3) 0.65226(16) 0.41892(15)
loop_
_geom_bond_atom_site_label_1
_geom_bond_atom_site_label_2
_geom_bond_site_symmetry_1
_geom_bond_site_symmetry_2
C1 C2 1_555 1_555
C2 H1 1_555 1_555
C3 C2 1_555 1_555
H2 C3 1_555 1_555
C4 C3 1_555 1_555
H3 C4 1_555 1_555
C5 C4 1_555 1_555
H4 C5 1_555 1_555
C6 C1 1_555 1_555
C7 H5 1_555 1_555
C8 H6 1_555 1_555
H7 C8 1_555 1_555
C9 C8 1_555 1_555
H8 C9 1_555 1_555
H9 C9 1_555 1_555
C10 C9 1_555 1_555
C11 C12 1_555 1_555
C12 H10 1_555 1_555
C13 C12 1_555 1_555
H11 C13 1_555 1_555
C14 C13 1_555 1_555
H12 C14 1_555 1_555
C15 C14 1_555 1_555
H13 C15 1_555 1_555
C16 C11 1_555 1_555
C17 H14 1_555 1_555
C18 H15 1_555 1_555
H16 C18 1_555 1_555
H17 C19 1_555 1_555
H18 C19 1_555 1_555
C19 C18 1_555 1_555
C20 C19 1_555 1_555
C21 C22 1_555 1_555
C22 H19 1_555 1_555
C23 C22 1_555 1_555
H20 C23 1_555 1_555
C24 C23 1_555 1_555
H21 C24 1_555 1_555
C25 C24 1_555 1_555
H22 C25 1_555 1_555
C26 C21 1_555 1_555
C27 H23 1_555 1_555
C28 H24 1_555 1_555
H25 C28 1_555 1_555
C29 C28 1_555 1_555
H26 C29 1_555 1_555
H27 C29 1_555 1_555
C30 C29 1_555 1_555
C31 C32 1_555 1_555
C32 H28 1_555 1_555
C33 C32 1_555 1_555
H29 C33 1_555 1_555
C34 C33 1_555 1_555
H30 C34 1_555 1_555
C35 C34 1_555 1_555
H31 C35 1_555 1_555
C36 C31 1_555 1_555
C37 H32 1_555 1_555
C38 H33 1_555 1_555
H34 C38 1_555 1_555
H35 C39 1_555 1_555
H36 C39 1_555 1_555
C39 C38 1_555 1_555
C40 C39 1_555 1_555
Co1 N2 1_555 1_555
Co2 N6 1_555 1_555
N1 C1 1_555 1_555
N2 C6 1_555 1_555
N3 C11 1_555 1_555
N4 C16 1_555 1_555
N5 C21 1_555 1_555
N6 C26 1_555 1_555
N7 C31 1_555 1_555
N8 C36 1_555 1_555
O1 C10 1_555 1_555
O2 C10 1_555 1_555
O3 C20 1_555 1_555
O4 C20 1_555 1_555
O5 C30 1_555 1_555
O6 C30 1_555 1_555
O7 C40 1_555 1_555
O8 C40 1_555 1_555
Co1_2 O7 1_555 1_555
Co2_2 O3 1_555 1_555
O3_2 Co2 1_555 1_555
O7_2 Co1 1_555 1_555
C5 C6 1_555 1_555
C7 N1 1_555 1_555
C7 N2 1_555 1_555
C8 N1 1_555 1_555
C15 C16 1_555 1_555
C17 N3 1_555 1_555
C17 N4 1_555 1_555
C18 N3 1_555 1_555
C25 C26 1_555 1_555
C27 N5 1_555 1_555
C27 N6 1_555 1_555
C28 N5 1_555 1_555
C35 C36 1_555 1_555
C37 N7 1_555 1_555
C37 N8 1_555 1_555
C38 N7 1_555 1_555
Co1 N4 1_555 1_555
Co1 O5 1_555 1_555
Co2 N8 1_555 1_555
Co2 O1 1_555 1_555

#END
