
#######################################################################
#
#                 Cambridge Crystallographic Data Centre
#                                CCDC 
#
#######################################################################
#
# If this CIF has been generated from an entry in the Cambridge 
# Structural Database, then it will include bibliographic, chemical, 
# crystal, experimental, refinement or atomic coordinate data resulting 
# from the CCDC's data processing and validation procedures.
#
#######################################################################

data_JUMQOZ
_symmetry_cell_setting           monoclinic
_symmetry_space_group_name_H-M   'P 2/c'
_symmetry_Int_Tables_number      13
_space_group_name_Hall           '-P 2yc'
loop_
_symmetry_equiv_pos_site_id
_symmetry_equiv_pos_as_xyz
1 x,y,z
2 -x,y,1/2-z
3 -x,-y,-z
4 x,-y,1/2+z
_cell_length_a                   26.010(11)
_cell_length_b                   10.830(5)
_cell_length_c                   15.972(7)
_cell_angle_alpha                90
_cell_angle_beta                 90.758(7)
_cell_angle_gamma                90
_cell_volume                     4498.73
loop_
_atom_site_label
_atom_site_type_symbol
_atom_site_fract_x
_atom_site_fract_y
_atom_site_fract_z
C1 C 0.25013(9) 0.4975(2) 0.38272(15)
C2 C 0.22796(10) 0.6148(2) 0.38263(18)
H1 H 0.1940 0.6271 0.3659
C3 C 0.25859(11) 0.7112(3) 0.40840(19)
H2 H 0.2450 0.7907 0.4090
C4 C 0.30980(10) 0.6929(2) 0.43384(18)
H3 H 0.3291 0.7602 0.4522
C5 C 0.33231(10) 0.5773(2) 0.43235(16)
H4 H 0.3664 0.5658 0.4490
C6 C 0.30199(9) 0.4786(2) 0.40500(15)
C7 C 0.27018(9) 0.3016(2) 0.36726(16)
H5 H 0.2670 0.2180 0.3551
C8 C 0.17942(9) 0.3545(3) 0.32635(16)
H6 H 0.1784 0.2688 0.3087
H7 H 0.1731 0.4054 0.2773
C9 C 0.13685(9) 0.3767(3) 0.38915(17)
H8 H 0.1397 0.4607 0.4098
H9 H 0.1039 0.3693 0.3604
C10 C 0.13751(9) 0.2901(2) 0.46276(16)
C11 C 0.49461(9) 0.0122(2) 0.10977(14)
C12 C 0.47554(10) -0.1061(2) 0.12099(17)
H10 H 0.4406 -0.1231 0.1153
C13 C 0.51036(12) -0.1971(3) 0.14084(18)
H11 H 0.4989 -0.2776 0.1484
C14 C 0.56275(11) -0.1707(3) 0.14994(17)
H12 H 0.5853 -0.2343 0.1639
C15 C 0.58202(10) -0.0529(2) 0.13881(16)
H13 H 0.6170 -0.0364 0.1450
C16 C 0.54713(9) 0.0403(2) 0.11790(14)
C17 C 0.50788(9) 0.2084(2) 0.08027(15)
H14 H 0.5015 0.2898 0.0646
C18 C 0.41546(9) 0.1407(3) 0.07120(15)
H15 H 0.4038 0.0821 0.0292
H16 H 0.4101 0.2231 0.0488
C19 C 0.38326(9) 0.1253(3) 0.14902(16)
H17 H 0.3911 0.0456 0.1737
H18 H 0.3473 0.1244 0.1322
C20 C 0.39077(9) 0.2240(2) 0.21588(15)
C21 C 0.25530(10) 0.4709(2) 0.65643(15)
C22 C 0.27777(11) 0.5878(3) 0.65866(19)
H19 H 0.3116 0.5991 0.6764
C23 C 0.24768(12) 0.6851(3) 0.6335(2)
H20 H 0.2616 0.7642 0.6336
C24 C 0.19642(12) 0.6688(3) 0.60746(19)
H21 H 0.1773 0.7369 0.5900
C25 C 0.17393(10) 0.5544(3) 0.60723(17)
H22 H 0.1398 0.5442 0.5906
C26 C 0.20371(9) 0.4532(2) 0.63271(15)
C27 C 0.23457(10) 0.2748(3) 0.66732(17)
H23 H 0.2373 0.1905 0.6778
C28 C 0.32530(9) 0.3223(3) 0.70966(16)
H24 H 0.3266 0.2342 0.7203
H25 H 0.3309 0.3644 0.7626
C29 C 0.36829(9) 0.3566(3) 0.65044(16)
H26 H 0.4010 0.3411 0.6785
H27 H 0.3663 0.4444 0.6391
C30 C 0.36772(9) 0.2876(2) 0.56725(16)
C31 C -0.00807(9) 0.0170(2) 0.60966(15)
C32 C -0.03049(11) -0.0993(3) 0.60871(19)
H28 H -0.0645 -0.1106 0.5916
C33 C -0.00040(12) -0.1967(3) 0.6340(2)
H29 H -0.0145 -0.2756 0.6348
C34 C 0.05135(12) -0.1804(3) 0.65889(19)
H30 H 0.0706 -0.2483 0.6761
C35 C 0.07398(11) -0.0644(3) 0.65803(17)
H31 H 0.1082 -0.0536 0.6741
C36 C 0.04388(10) 0.0355(2) 0.63240(15)
C37 C 0.01254(10) 0.2131(3) 0.59614(17)
H32 H 0.0097 0.2970 0.5847
C38 C -0.07872(10) 0.1634(3) 0.55702(17)
H33 H -0.0856 0.1175 0.5059
H34 H -0.0801 0.2506 0.5434
C39 C -0.12029(10) 0.1343(3) 0.61984(17)
H35 H -0.1536 0.1495 0.5938
H36 H -0.1185 0.0471 0.6337
C40 C -0.11648(9) 0.2085(2) 0.70003(16)
Cu1 Cu 0.383076(11) 0.27348(3) 0.396014(19)
Cu2 Cu 0.123863(11) 0.24351(3) 0.631152(19)
N1 N 0.23105(7) 0.38244(19) 0.36050(13)
N2 N 0.31386(7) 0.35403(18) 0.39316(13)
N3 N 0.47072(7) 0.12217(19) 0.08681(12)
N4 N 0.55409(7) 0.16537(19) 0.09838(12)
N5 N 0.27396(8) 0.3542(2) 0.67710(13)
N6 N 0.19193(8) 0.3279(2) 0.64153(13)
N7 N -0.02683(8) 0.1330(2) 0.58794(13)
N8 N 0.05557(8) 0.1602(2) 0.62210(13)
O1 O 0.11113(7) 0.32869(17) 0.52557(11)
O2 O 0.16029(8) 0.19179(19) 0.46168(14)
O3 O 0.36802(6) 0.20038(16) 0.28440(11)
O4 O 0.41668(8) 0.31730(19) 0.20169(12)
O5 O 0.39504(6) 0.33667(16) 0.51062(10)
O6 O 0.34281(8) 0.19215(18) 0.55948(12)
O7 O -0.09555(9) 0.30962(19) 0.70184(14)
O8 O -0.13749(7) 0.15773(17) 0.76342(11)
O9 O 0.42943(8) 0.45034(18) 0.34539(13)
H37 H 0.4162 0.5200 0.3336
H38 H 0.4408 0.4250 0.2988
Cu1A Cu 0.616924(11) 0.27348(3) 0.103986(19)
Cu2A Cu -0.123863(11) 0.24351(3) 0.868848(19)
N4A N 0.44591(7) 0.16537(19) 0.40162(12)
O8A O 0.13749(7) 0.15773(17) 0.73658(11)
O10 O 0.46635(9) 0.5163(2) 0.58423(18)
H39 H 0.4946 0.5182 0.5581
H40 H 0.4474 0.4612 0.5617
O11 O 0.29759(9) -0.00939(19) 0.48478(16)
H41 H 0.3100 0.0512 0.5122
H42 H 0.2926 0.0047 0.4329
O12 O 0.19905(10) -0.0134(2) 0.54999(16)
H43 H 0.1837 0.0557 0.5523
H44 H 0.2305 0.0061 0.5444
O13 O 0.29615(8) 0.0038(2) 0.30576(15)
H45 H 0.2689 0.0103 0.2761
H46 H 0.3156 0.0600 0.2869
O14 O 0.20565(8) 0.0393(2) 0.22276(17)
H47 H 0.1884 -0.0194 0.2010
H48 H 0.1978 0.0398 0.2743
O15 O 0.04885(10) 0.4881(2) 0.21658(19)
H49 H 0.0417 0.4908 0.2683
H50 H 0.0683 0.5503 0.2101
O16 O 0.04537(9) 0.5271(2) 0.53985(18)
H51 H 0.0663 0.4669 0.5415
H52 H 0.0166 0.4971 0.5539
loop_
_geom_bond_atom_site_label_1
_geom_bond_atom_site_label_2
_geom_bond_site_symmetry_1
_geom_bond_site_symmetry_2
C1 C2 1_555 1_555
C2 H1 1_555 1_555
C3 C2 1_555 1_555
H2 C3 1_555 1_555
C4 C3 1_555 1_555
H3 C4 1_555 1_555
C5 C4 1_555 1_555
H4 C5 1_555 1_555
C6 C1 1_555 1_555
C7 H5 1_555 1_555
C8 H6 1_555 1_555
H7 C8 1_555 1_555
C9 C8 1_555 1_555
H8 C9 1_555 1_555
H9 C9 1_555 1_555
C10 C9 1_555 1_555
C11 C12 1_555 1_555
C12 H10 1_555 1_555
C13 C12 1_555 1_555
H11 C13 1_555 1_555
C14 C13 1_555 1_555
H12 C14 1_555 1_555
C15 C14 1_555 1_555
H13 C15 1_555 1_555
C16 C11 1_555 1_555
C17 H14 1_555 1_555
C18 H15 1_555 1_555
H16 C18 1_555 1_555
C19 C18 1_555 1_555
H17 C19 1_555 1_555
H18 C19 1_555 1_555
C20 C19 1_555 1_555
C21 C22 1_555 1_555
C22 H19 1_555 1_555
C23 C22 1_555 1_555
H20 C23 1_555 1_555
C24 C23 1_555 1_555
H21 C24 1_555 1_555
C25 C24 1_555 1_555
H22 C25 1_555 1_555
C26 C21 1_555 1_555
C27 H23 1_555 1_555
C28 H24 1_555 1_555
H25 C28 1_555 1_555
C29 C28 1_555 1_555
H26 C29 1_555 1_555
H27 C29 1_555 1_555
C30 C29 1_555 1_555
C31 C32 1_555 1_555
C32 H28 1_555 1_555
C33 C32 1_555 1_555
H29 C33 1_555 1_555
C34 C33 1_555 1_555
H30 C34 1_555 1_555
C35 C34 1_555 1_555
H31 C35 1_555 1_555
C36 C31 1_555 1_555
C37 H32 1_555 1_555
C38 H33 1_555 1_555
H34 C38 1_555 1_555
C39 C38 1_555 1_555
H35 C39 1_555 1_555
H36 C39 1_555 1_555
C40 C39 1_555 1_555
Cu1 N2 1_555 1_555
Cu2 N6 1_555 1_555
N1 C1 1_555 1_555
N2 C6 1_555 1_555
N3 C11 1_555 1_555
N4 C16 1_555 1_555
N5 C21 1_555 1_555
N6 C26 1_555 1_555
N7 C31 1_555 1_555
N8 C36 1_555 1_555
O1 C10 1_555 1_555
O2 C10 1_555 1_555
O3 C20 1_555 1_555
O4 C20 1_555 1_555
O5 C30 1_555 1_555
O6 C30 1_555 1_555
O7 C40 1_555 1_555
O8 C40 1_555 1_555
O9 Cu1 1_555 1_555
H37 O9 1_555 1_555
H38 O9 1_555 1_555
O10 H39 1_555 1_555
H40 O10 1_555 1_555
O11 H41 1_555 1_555
H42 O11 1_555 1_555
O12 H43 1_555 1_555
H44 O12 1_555 1_555
O13 H45 1_555 1_555
H46 O13 1_555 1_555
O14 H47 1_555 1_555
H48 O14 1_555 1_555
O15 H49 1_555 1_555
H50 O15 1_555 1_555
O16 H51 1_555 1_555
H52 O16 1_555 1_555
Cu1A N4 1_555 1_555
Cu2A O8 1_555 1_555
N4A Cu1 1_555 1_555
O8A Cu2 1_555 1_555
C5 C6 1_555 1_555
C7 N1 1_555 1_555
C7 N2 1_555 1_555
C8 N1 1_555 1_555
C15 C16 1_555 1_555
C17 N3 1_555 1_555
C17 N4 1_555 1_555
C18 N3 1_555 1_555
C25 C26 1_555 1_555
C27 N5 1_555 1_555
C27 N6 1_555 1_555
C28 N5 1_555 1_555
C35 C36 1_555 1_555
C37 N7 1_555 1_555
C37 N8 1_555 1_555
C38 N7 1_555 1_555
Cu1 O3 1_555 1_555
Cu1 O5 1_555 1_555
Cu2 N8 1_555 1_555
Cu2 O1 1_555 1_555

#END
