
#######################################################################
#
#                 Cambridge Crystallographic Data Centre
#                                CCDC 
#
#######################################################################
#
# If this CIF has been generated from an entry in the Cambridge 
# Structural Database, then it will include bibliographic, chemical, 
# crystal, experimental, refinement or atomic coordinate data resulting 
# from the CCDC's data processing and validation procedures.
#
#######################################################################

data_JUMRIU
_symmetry_cell_setting           monoclinic
_symmetry_space_group_name_H-M   'P 2/c'
_symmetry_Int_Tables_number      13
_space_group_name_Hall           '-P 2yc'
loop_
_symmetry_equiv_pos_site_id
_symmetry_equiv_pos_as_xyz
1 x,y,z
2 -x,y,1/2-z
3 -x,-y,-z
4 x,-y,1/2+z
_cell_length_a                   14.897(8)
_cell_length_b                   10.377(6)
_cell_length_c                   8.216(5)
_cell_angle_alpha                90
_cell_angle_beta                 90.647(8)
_cell_angle_gamma                90
_cell_volume                     1270
loop_
_atom_site_label
_atom_site_type_symbol
_atom_site_fract_x
_atom_site_fract_y
_atom_site_fract_z
Hg1 Hg 0.5000 1.05133(3) 0.2500
Hg2 Hg 0.5000 1.5000 0.0000
Cl1 Cl 0.51011(8) 1.21276(11) 0.00717(12)
Cl2 Cl 0.62208(8) 1.51407(12) 0.18093(16)
O1 O 0.0345(2) 0.6301(4) 0.0854(5)
O2 O 0.1140(3) 0.5151(4) -0.0856(6)
H1 H 0.0628 0.5044 -0.1302
N1 N 0.2437(2) 0.8619(3) 0.2226(4)
N2 N 0.3613(2) 0.9899(3) 0.2402(4)
C1 C 0.2128(3) 0.9837(5) 0.1864(5)
C2 C 0.1273(4) 1.0303(6) 0.1473(7)
H2 H 0.0776 0.9764 0.1399
C3 C 0.1212(4) 1.1603(7) 0.1206(6)
H3 H 0.0654 1.1952 0.0941
C4 C 0.1947(4) 1.2425(6) 0.1312(6)
H4 H 0.1868 1.3301 0.1118
C5 C 0.2797(3) 1.1967(5) 0.1702(5)
H5 H 0.3292 1.2511 0.1775
C6 C 0.2869(3) 1.0652(4) 0.1977(5)
C7 C 0.3330(3) 0.8708(4) 0.2525(5)
H6 H 0.3697 0.8011 0.2784
C8 C 0.1915(3) 0.7436(5) 0.2159(5)
H7 H 0.1323 0.7640 0.2565
H8 H 0.2173 0.6768 0.2845
C9 C 0.1853(3) 0.6925(5) 0.0422(6)
H9 H 0.1825 0.7646 -0.0329
H10 H 0.2390 0.6433 0.0185
C10 C 0.1043(3) 0.6085(4) 0.0164(5)
Cl1A Cl 0.48989(8) 1.21276(11) 0.49283(12)
O1A O 0.9655(2) 0.6301(4) 0.4146(5)
O2A O 0.8860(3) 0.5151(4) 0.5856(6)
H1A H 0.9372 0.5044 0.6302
N1A N 0.7563(2) 0.8619(3) 0.2774(4)
N2A N 0.6387(2) 0.9899(3) 0.2598(4)
C1A C 0.7872(3) 0.9837(5) 0.3136(5)
C2A C 0.8727(4) 1.0303(6) 0.3527(7)
H2A H 0.9224 0.9764 0.3601
C3A C 0.8788(4) 1.1603(7) 0.3794(6)
H3A H 0.9346 1.1952 0.4059
C4A C 0.8053(4) 1.2425(6) 0.3688(6)
H4A H 0.8132 1.3301 0.3882
C5A C 0.7203(3) 1.1967(5) 0.3298(5)
H5A H 0.6708 1.2511 0.3225
C6A C 0.7131(3) 1.0652(4) 0.3023(5)
C7A C 0.6670(3) 0.8708(4) 0.2475(5)
H6A H 0.6303 0.8011 0.2216
C8A C 0.8085(3) 0.7436(5) 0.2841(5)
H7A H 0.8677 0.7640 0.2435
H8A H 0.7827 0.6768 0.2155
C9A C 0.8147(3) 0.6925(5) 0.4578(6)
H9A H 0.8175 0.7646 0.5329
H10A H 0.7610 0.6433 0.4815
C10A C 0.8957(3) 0.6085(4) 0.4836(5)
Cl2B Cl 0.37792(8) 1.48593(12) -0.18093(16)
Hg2A Hg 0.5000 1.5000 0.5000
Cl1B Cl 0.48989(8) 1.78724(11) -0.00717(12)
loop_
_geom_bond_atom_site_label_1
_geom_bond_atom_site_label_2
_geom_bond_site_symmetry_1
_geom_bond_site_symmetry_2
Hg1 Cl1 1_555 1_555
Hg2 Cl1 1_555 1_555
Cl2 Hg2 1_555 1_555
O1 C10 1_555 1_555
O2 H1 1_555 1_555
N1 C1 1_555 1_555
N2 Hg1 1_555 1_555
C1 C2 1_555 1_555
C2 H2 1_555 1_555
C3 C2 1_555 1_555
H3 C3 1_555 1_555
C4 C3 1_555 1_555
H4 C4 1_555 1_555
C5 C4 1_555 1_555
H5 C5 1_555 1_555
C6 N2 1_555 1_555
C7 N1 1_555 1_555
H6 C7 1_555 1_555
C8 N1 1_555 1_555
H7 C8 1_555 1_555
H8 C8 1_555 1_555
C9 C8 1_555 1_555
H9 C9 1_555 1_555
H10 C9 1_555 1_555
C10 O2 1_555 1_555
Cl1A Hg1 1_555 1_555
O1A C10A 1_555 1_555
O2A H1A 1_555 1_555
N1A C1A 1_555 1_555
N2A Hg1 1_555 1_555
C1A C2A 1_555 1_555
C2A H2A 1_555 1_555
C3A C2A 1_555 1_555
H3A C3A 1_555 1_555
C4A C3A 1_555 1_555
H4A C4A 1_555 1_555
C5A C4A 1_555 1_555
H5A C5A 1_555 1_555
C6A N2A 1_555 1_555
C7A N1A 1_555 1_555
H6A C7A 1_555 1_555
C8A N1A 1_555 1_555
H7A C8A 1_555 1_555
H8A C8A 1_555 1_555
C9A C8A 1_555 1_555
H9A C9A 1_555 1_555
H10A C9A 1_555 1_555
C10A O2A 1_555 1_555
Cl2B Hg2 1_555 1_555
Hg2A Cl1A 1_555 1_555
Cl1B Hg2 1_555 1_555
N2 C7 1_555 1_555
C1 C6 1_555 1_555
C5 C6 1_555 1_555
C9 C10 1_555 1_555
N2A C7A 1_555 1_555
C1A C6A 1_555 1_555
C5A C6A 1_555 1_555
C9A C10A 1_555 1_555

#END
