
#######################################################################
#
#                 Cambridge Crystallographic Data Centre
#                                CCDC 
#
#######################################################################
#
# If this CIF has been generated from an entry in the Cambridge 
# Structural Database, then it will include bibliographic, chemical, 
# crystal, experimental, refinement or atomic coordinate data resulting 
# from the CCDC's data processing and validation procedures.
#
#######################################################################

data_JUMRAM
_symmetry_cell_setting           monoclinic
_symmetry_space_group_name_H-M   'P 21/c'
_symmetry_Int_Tables_number      14
_space_group_name_Hall           '-P 2ybc'
loop_
_symmetry_equiv_pos_site_id
_symmetry_equiv_pos_as_xyz
1 x,y,z
2 -x,1/2+y,1/2-z
3 -x,-y,-z
4 x,1/2-y,1/2+z
_cell_length_a                   13.2788(2)
_cell_length_b                   8.36930(10)
_cell_length_c                   16.8959(4)
_cell_angle_alpha                90
_cell_angle_beta                 102.025(2)
_cell_angle_gamma                90
_cell_volume                     1836.51
loop_
_atom_site_label
_atom_site_type_symbol
_atom_site_fract_x
_atom_site_fract_y
_atom_site_fract_z
C1 C 0.89385(15) 0.6369(3) 0.99681(13)
C2 C 0.9042(2) 0.7314(3) 0.93113(16)
H1 H 0.9459 0.8218 0.9375
C3 C 0.8502(2) 0.6848(3) 0.85703(15)
H2 H 0.8552 0.7454 0.8119
C4 C 0.78750(19) 0.5492(3) 0.84671(15)
H3 H 0.7532 0.5205 0.7949
C5 C 0.77554(18) 0.4573(3) 0.91171(14)
H4 H 0.7325 0.3685 0.9049
C6 C 0.83029(15) 0.5021(2) 0.98803(13)
C7 C 0.89828(17) 0.5266(3) 1.11448(14)
H5 H 0.9157 0.5081 1.1699
C8 C 1.01497(17) 0.7641(3) 1.11770(16)
H6 H 1.0432 0.8177 1.0763
H7 H 1.0705 0.7057 1.1520
H8 H 1.0343 0.9465 1.1990
H9 H 0.9425 0.8346 1.2067
C9 C 0.97567(17) 0.8886(3) 1.16822(14)
C10 C 0.90055(15) 1.0089(2) 1.12177(14)
C11 C 0.51895(15) 0.1030(2) 0.90209(13)
C12 C 0.41570(17) 0.1029(3) 0.86363(16)
H10 H 0.3913 0.0411 0.8179
C13 C 0.35174(19) 0.1991(4) 0.89686(19)
H11 H 0.2821 0.2034 0.8727
C14 C 0.3881(2) 0.2902(3) 0.96555(19)
H12 H 0.3423 0.3547 0.9857
C15 C 0.49022(19) 0.2877(3) 1.00475(16)
H13 H 0.5140 0.3481 1.0511
C16 C 0.55602(16) 0.1907(3) 0.97180(13)
C17 C 0.68390(16) 0.0579(2) 0.94434(13)
H14 H 0.7495 0.0162 0.9471
C18 C 0.60046(18) -0.0866(3) 0.81719(13)
H15 H 0.5449 -0.1628 0.8148
H16 H 0.6646 -0.1458 0.8254
H17 H 0.5340 0.0849 0.7373
H18 H 0.5584 -0.0713 0.6942
C19 C 0.58537(17) 0.0028(3) 0.73756(13)
C20 C 0.68103(17) 0.0806(3) 0.71904(13)
N1 N 0.93619(13) 0.6493(2) 1.07831(11)
N2 N 0.83446(14) 0.4355(2) 1.06425(11)
N3 N 0.60274(13) 0.0210(2) 0.88554(10)
N4 N 0.66129(13) 0.1593(2) 0.99783(11)
O1 O 0.85126(13) 1.09217(19) 1.16490(10)
O2 O 0.89112(12) 1.0247(2) 1.04864(10)
O3 O 0.66078(13) 0.1848(2) 0.66235(10)
O4 O 0.76684(13) 0.0398(2) 0.75403(12)
Zn1 Zn 0.75883(2) 0.24399(3) 1.098033(15)
O1_2 O 0.85126(13) 0.09217(19) 1.16490(10)
O3C O 0.66078(13) 0.3152(2) 1.16235(10)
Zn1_2 Zn 0.75883(2) 1.24399(3) 1.098033(15)
Zn1C Zn 0.75883(2) 0.25601(3) 0.598033(15)
loop_
_geom_bond_atom_site_label_1
_geom_bond_atom_site_label_2
_geom_bond_site_symmetry_1
_geom_bond_site_symmetry_2
C1 C2 1_555 1_555
C2 H1 1_555 1_555
C3 C2 1_555 1_555
H2 C3 1_555 1_555
C4 C3 1_555 1_555
H3 C4 1_555 1_555
C5 C4 1_555 1_555
H4 C5 1_555 1_555
C6 C1 1_555 1_555
C7 H5 1_555 1_555
C8 H6 1_555 1_555
H7 C8 1_555 1_555
H8 C9 1_555 1_555
H9 C9 1_555 1_555
C9 C8 1_555 1_555
C10 C9 1_555 1_555
C11 C12 1_555 1_555
C12 H10 1_555 1_555
C13 C12 1_555 1_555
H11 C13 1_555 1_555
C14 C13 1_555 1_555
H12 C14 1_555 1_555
C15 C14 1_555 1_555
H13 C15 1_555 1_555
C16 C11 1_555 1_555
C17 H14 1_555 1_555
C18 H15 1_555 1_555
H16 C18 1_555 1_555
H17 C19 1_555 1_555
H18 C19 1_555 1_555
C19 C18 1_555 1_555
C20 C19 1_555 1_555
N1 C1 1_555 1_555
N2 C6 1_555 1_555
N3 C11 1_555 1_555
N4 C16 1_555 1_555
O1 C10 1_555 1_555
O2 C10 1_555 1_555
O3 C20 1_555 1_555
O4 C20 1_555 1_555
Zn1 N2 1_555 1_555
O1_2 Zn1 1_555 1_555
O3C Zn1 1_555 1_555
Zn1_2 O1 1_555 1_555
Zn1C O3 1_555 1_555
C5 C6 1_555 1_555
C7 N1 1_555 1_555
C7 N2 1_555 1_555
C8 N1 1_555 1_555
C15 C16 1_555 1_555
C17 N3 1_555 1_555
C17 N4 1_555 1_555
C18 N3 1_555 1_555
N4 Zn1 1_555 1_555

#END
