
#######################################################################
#
#                 Cambridge Crystallographic Data Centre
#                                CCDC 
#
#######################################################################
#
# If this CIF has been generated from an entry in the Cambridge 
# Structural Database, then it will include bibliographic, chemical, 
# crystal, experimental, refinement or atomic coordinate data resulting 
# from the CCDC's data processing and validation procedures.
#
#######################################################################

data_JUMSIV
_symmetry_cell_setting           monoclinic
_symmetry_space_group_name_H-M   'C 2/c'
_symmetry_Int_Tables_number      15
_space_group_name_Hall           '-C 2yn'
loop_
_symmetry_equiv_pos_site_id
_symmetry_equiv_pos_as_xyz
1 x,y,z
2 -x,y,1/2-z
3 1/2+x,1/2+y,z
4 1/2-x,1/2+y,1/2-z
5 -x,-y,-z
6 x,-y,1/2+z
7 1/2-x,1/2-y,-z
8 1/2+x,1/2-y,1/2+z
_cell_length_a                   22.685(2)
_cell_length_b                   9.0735(9)
_cell_length_c                   22.724(2)
_cell_angle_alpha                90
_cell_angle_beta                 112.179(12)
_cell_angle_gamma                90
_cell_volume                     4331.25
loop_
_atom_site_label
_atom_site_type_symbol
_atom_site_fract_x
_atom_site_fract_y
_atom_site_fract_z
Ag1 Ag 0.019754(14) 0.07903(4) 0.061490(15)
N1 N 0.47581(15) 0.2485(4) 0.48897(16)
C1 C 0.4789(2) 0.0734(5) 0.4109(2)
H1 H 0.5013 0.0340 0.3878
C2 C -0.1338(2) -0.0877(5) 0.1236(3)
H2 H -0.1238 -0.0458 0.1660
C3 C 0.3884(2) 0.0870(5) 0.4382(3)
H3 H 0.3481 0.0549 0.4342
O1 O -0.09564(17) -0.0350(4) 0.04004(17)
C4 C 0.41882(18) 0.0206(5) 0.4022(2)
C5 C 0.2242(2) -0.0563(5) 0.1509(2)
H4 H 0.2595 -0.0473 0.1398
C6 C 0.32607(19) -0.0511(5) 0.3028(2)
H5 H 0.3356 0.0301 0.2801
H6 H 0.2969 -0.0151 0.3216
C7 C 0.3874(2) -0.1009(5) 0.3557(2)
H7 H 0.3780 -0.1825 0.3783
H8 H 0.4168 -0.1361 0.3370
C8 C 0.1192(2) -0.0732(5) 0.1798(2)
H9 H 0.0835 -0.0780 0.1904
C9 C 0.23050(19) -0.1217(4) 0.2082(2)
C10 C -0.12485(19) -0.2527(5) 0.1312(2)
C11 C -0.1511(2) -0.3494(5) 0.0815(2)
H10 H -0.1752 -0.3122 0.0415
C12 C 0.1661(2) -0.0049(5) 0.1107(2)
H11 H 0.1630 0.0366 0.0722
C13 C 0.50536(19) 0.1853(5) 0.4544(2)
H12 H 0.5459 0.2184 0.4598
N2 N 0.11314(15) -0.0115(4) 0.12430(16)
C14 C 0.41713(19) 0.1991(5) 0.4795(2)
H13 H 0.3950 0.2429 0.5020
C15 C 0.29373(19) -0.1735(5) 0.2558(2)
H14 H 0.3210 -0.2033 0.2337
H15 H 0.2872 -0.2583 0.2786
C16 C -0.0842(2) -0.0256(5) 0.0976(2)
C17 C 0.1759(2) -0.1302(5) 0.2222(2)
H16 H 0.1775 -0.1739 0.2598
C18 C -0.0880(2) -0.3136(8) 0.1911(3)
H17 H -0.0687 -0.2526 0.2260
C19 C -0.1427(3) -0.4994(6) 0.0890(4)
H18 H -0.1615 -0.5617 0.0545
O2 O -0.03414(18) 0.0260(5) 0.1374(2)
C20 C -0.1072(3) -0.5565(8) 0.1467(5)
H19 H -0.1012 -0.6579 0.1512
C21 C -0.0806(3) -0.4683(9) 0.1974(4)
H20 H -0.0573 -0.5092 0.2369
C22 C -0.2002(2) -0.0427(6) 0.0833(4)
H21 H -0.2294 -0.0888 0.0998
H22 H -0.2103 -0.0788 0.0405
C23 C -0.2104(3) 0.1233(6) 0.0810(5)
H23 H -0.2536 0.1453 0.0541
H24 H -0.1820 0.1697 0.0643
H25 H -0.2020 0.1594 0.1231
Ag1G Ag 0.519754(14) 0.42097(4) 0.561490(15)
N1G N -0.02419(15) 0.2515(4) -0.01103(16)
O3 O 0.0000 0.1820(14) 0.2500
loop_
_geom_bond_atom_site_label_1
_geom_bond_atom_site_label_2
_geom_bond_site_symmetry_1
_geom_bond_site_symmetry_2
Ag1 O1 1_555 1_555
N1 C13 1_555 1_555
C1 H1 1_555 1_555
C2 H2 1_555 1_555
C3 H3 1_555 1_555
O1 C16 1_555 1_555
C4 C1 1_555 1_555
C5 H4 1_555 1_555
C6 H5 1_555 1_555
H6 C6 1_555 1_555
C7 C4 1_555 1_555
H7 C7 1_555 1_555
H8 C7 1_555 1_555
C8 H9 1_555 1_555
C9 C5 1_555 1_555
C10 C2 1_555 1_555
C11 C10 1_555 1_555
H10 C11 1_555 1_555
C12 C5 1_555 1_555
H11 C12 1_555 1_555
C13 C1 1_555 1_555
H12 C13 1_555 1_555
N2 Ag1 1_555 1_555
C14 N1 1_555 1_555
H13 C14 1_555 1_555
C15 C6 1_555 1_555
H14 C15 1_555 1_555
H15 C15 1_555 1_555
C16 C2 1_555 1_555
C17 C8 1_555 1_555
H16 C17 1_555 1_555
C18 C10 1_555 1_555
H17 C18 1_555 1_555
C19 C11 1_555 1_555
H18 C19 1_555 1_555
O2 Ag1 1_555 1_555
C20 C19 1_555 1_555
H19 C20 1_555 1_555
C21 C18 1_555 1_555
H20 C21 1_555 1_555
C22 C2 1_555 1_555
H21 C22 1_555 1_555
H22 C22 1_555 1_555
C23 C22 1_555 1_555
H23 C23 1_555 1_555
H24 C23 1_555 1_555
H25 C23 1_555 1_555
Ag1G N1 1_555 1_555
N1G Ag1 1_555 1_555
C3 C4 1_555 1_555
C3 C14 1_555 1_555
C6 C7 1_555 1_555
C8 N2 1_555 1_555
C9 C15 1_555 1_555
C9 C17 1_555 1_555
C12 N2 1_555 1_555
C16 O2 1_555 1_555
C20 C21 1_555 1_555

#END
