
#######################################################################
#
#                 Cambridge Crystallographic Data Centre
#                                CCDC 
#
#######################################################################
#
# If this CIF has been generated from an entry in the Cambridge 
# Structural Database, then it will include bibliographic, chemical, 
# crystal, experimental, refinement or atomic coordinate data resulting 
# from the CCDC's data processing and validation procedures.
#
#######################################################################

data_JUMSOB
_symmetry_cell_setting           monoclinic
_symmetry_space_group_name_H-M   'P 21/c'
_symmetry_Int_Tables_number      14
_space_group_name_Hall           '-P 2ybc'
loop_
_symmetry_equiv_pos_site_id
_symmetry_equiv_pos_as_xyz
1 x,y,z
2 -x,1/2+y,1/2-z
3 -x,-y,-z
4 x,1/2-y,1/2+z
_cell_length_a                   8.6221(16)
_cell_length_b                   25.685(5)
_cell_length_c                   20.625(4)
_cell_angle_alpha                90
_cell_angle_beta                 97.571(3)
_cell_angle_gamma                90
_cell_volume                     4527.77
loop_
_atom_site_label
_atom_site_type_symbol
_atom_site_fract_x
_atom_site_fract_y
_atom_site_fract_z
Ag1 Ag 0.37447(4) 0.614789(13) 0.267083(18)
C1 C 0.3913(6) 0.2033(2) 0.2306(3)
H1 H 0.3904 0.1971 0.1851
C2 C 0.1744(6) 0.61437(19) 0.4997(2)
H2 H 0.1068 0.6415 0.4820
N1 N 0.4847(5) 0.17430(14) 0.27334(19)
O1 O 0.2752(4) 0.68291(14) 0.36854(16)
O2 O 0.4878(4) 0.63333(13) 0.38231(16)
N2 N 0.2546(4) 0.54276(14) 0.28829(18)
C3 C 0.4139(7) 0.7697(2) 0.4790(3)
O3 O 0.3416(5) 0.81055(15) 0.4923(2)
C4 C 0.2354(5) 0.34824(17) 0.3234(2)
H3 H 0.2562 0.3510 0.2775
H4 H 0.3340 0.3560 0.3521
C5 C 0.1548(5) 0.44288(17) 0.3201(2)
C6 C 0.4079(6) 0.66949(17) 0.4779(2)
H5 H 0.5222 0.6693 0.4945
C7 C 0.3877(6) 0.2214(2) 0.3588(2)
H6 H 0.3892 0.2266 0.4045
C8 C 0.3351(6) 0.62088(18) 0.5043(2)
C9 C 0.3901(6) 0.66224(17) 0.4034(2)
C10 C 0.2117(5) 0.47831(17) 0.3681(2)
H7 H 0.2179 0.4690 0.4129
C11 C 0.2918(5) 0.25165(16) 0.3154(2)
O4 O 0.5370(5) 0.76851(15) 0.4528(2)
C12 C 0.4812(7) 0.1838(2) 0.3365(2)
H8 H 0.5465 0.1637 0.3678
C13 C 0.4305(6) 0.58072(18) 0.5297(2)
H9 H 0.5408 0.5844 0.5328
C14 C 0.1838(6) 0.29323(18) 0.3365(3)
H10 H 0.0773 0.2877 0.3131
H11 H 0.1783 0.2893 0.3839
C15 C 0.2093(7) 0.5289(2) 0.5462(2)
H12 H 0.1666 0.4976 0.5607
C16 C 0.1450(5) 0.46001(19) 0.2560(2)
H13 H 0.1036 0.4376 0.2213
C17 C 0.1112(6) 0.5685(2) 0.5207(2)
H14 H 0.0010 0.5643 0.5174
C18 C 0.3397(7) 0.7194(2) 0.4999(2)
H15 H 0.3486 0.7190 0.5482
H16 H 0.2269 0.7201 0.4828
C19 C 0.2963(7) 0.2420(2) 0.2503(3)
H17 H 0.2334 0.2621 0.2183
C20 C 0.1107(6) 0.38823(18) 0.3358(3)
H18 H 0.0108 0.3791 0.3089
H19 H 0.0940 0.3865 0.3823
C21 C 0.1946(6) 0.50912(19) 0.2422(2)
H20 H 0.1859 0.5197 0.1977
C22 C 0.3671(7) 0.53489(19) 0.5508(2)
H21 H 0.4343 0.5076 0.5684
C23 C 0.2596(5) 0.52726(18) 0.3507(2)
H22 H 0.2976 0.5509 0.3844
Ag2 Ag 0.13279(5) 0.696886(14) 0.24135(2)
C24 C 0.0948(7) 1.1107(2) 0.3075(3)
H23 H 0.0705 1.1214 0.3491
N3 N 0.0187(5) 1.13304(15) 0.2548(2)
N4 N 0.2506(4) 0.76817(15) 0.2337(2)
C25 C 0.3698(6) 1.01703(18) 0.2402(3)
H24 H 0.4525 1.0205 0.2781
H25 H 0.4182 1.0237 0.2001
C26 C 0.3771(5) 0.86757(17) 0.2307(2)
C27 C 0.2077(7) 1.0727(2) 0.3053(3)
H26 H 0.2582 1.0577 0.3446
C28 C 0.3842(7) 0.8393(2) 0.2882(3)
H27 H 0.4330 0.8538 0.3281
C29 C 0.4363(5) 0.92241(17) 0.2309(3)
H28 H 0.4795 0.9292 0.1895
H29 H 0.5218 0.9269 0.2675
C30 C 0.0541(6) 1.11725(19) 0.1975(3)
H30 H 0.0003 1.1324 0.1589
C31 C 0.1657(6) 1.07979(19) 0.1912(3)
H31 H 0.1868 1.0697 0.1490
C32 C 0.3073(6) 0.84391(18) 0.1749(2)
H32 H 0.3017 0.8614 0.1341
C33 C 0.2464(6) 1.05697(17) 0.2456(3)
C34 C 0.2451(6) 0.79466(18) 0.1780(2)
H33 H 0.1964 0.7790 0.1388
C35 C 0.3063(5) 0.96156(17) 0.2380(3)
H34 H 0.2222 0.9580 0.2007
H35 H 0.2607 0.9542 0.2787
C36 C 0.3208(7) 0.7905(2) 0.2873(3)
H36 H 0.3276 0.7718 0.3272
Ag1A Ag 0.62553(4) 0.114789(13) 0.232917(18)
N1A N 0.5153(5) 0.67430(14) 0.22666(19)
Ag2A Ag -0.13279(5) 1.196886(14) 0.25865(2)
N3A N -0.0187(5) 0.63304(15) 0.2452(2)
O5 O 0.7680(5) 0.61432(17) 0.4629(2)
O6 O 0.0113(5) 0.74021(17) 0.3722(2)
O7 O 0.7033(5) 0.85232(18) 0.4088(2)
O8 O 0.0649(7) 0.7941(2) 0.5575(3)
O9 O 0.9669(6) 0.84405(18) 0.3413(2)
O10 O -0.1583(6) 0.72553(18) 0.4776(2)
O11 O 0.5347(6) 0.8937(2) 0.5351(3)
O12 O 0.5083(6) 0.94278(18) 0.4100(2)
O13 O 0.2126(6) 0.8963(2) 0.4199(2)
O14 O 0.3522(7) 0.9592(2) 0.6023(3)
O15 O 0.8553(7) 0.8770(2) 0.5303(3)
O16 O 0.0723(7) 0.9527(2) 0.5147(3)
loop_
_geom_bond_atom_site_label_1
_geom_bond_atom_site_label_2
_geom_bond_site_symmetry_1
_geom_bond_site_symmetry_2
Ag1 O2 1_555 1_555
C1 H1 1_555 1_555
C2 H2 1_555 1_555
N1 C1 1_555 1_555
O1 C9 1_555 1_555
O2 C9 1_555 1_555
N2 Ag1 1_555 1_555
C3 O3 1_555 1_555
C4 H3 1_555 1_555
H4 C4 1_555 1_555
C5 C10 1_555 1_555
C6 H5 1_555 1_555
C7 H6 1_555 1_555
C8 C2 1_555 1_555
C9 C6 1_555 1_555
C10 H7 1_555 1_555
C11 C7 1_555 1_555
O4 C3 1_555 1_555
C12 N1 1_555 1_555
H8 C12 1_555 1_555
C13 C8 1_555 1_555
H9 C13 1_555 1_555
C14 C4 1_555 1_555
H10 C14 1_555 1_555
H11 C14 1_555 1_555
C15 H12 1_555 1_555
C16 C5 1_555 1_555
H13 C16 1_555 1_555
C17 C2 1_555 1_555
H14 C17 1_555 1_555
C18 C3 1_555 1_555
H15 C18 1_555 1_555
H16 C18 1_555 1_555
C19 C1 1_555 1_555
H17 C19 1_555 1_555
C20 C4 1_555 1_555
H18 C20 1_555 1_555
H19 C20 1_555 1_555
C21 N2 1_555 1_555
H20 C21 1_555 1_555
C22 C13 1_555 1_555
H21 C22 1_555 1_555
C23 N2 1_555 1_555
H22 C23 1_555 1_555
Ag2 O1 1_555 1_555
C24 H23 1_555 1_555
N3 C24 1_555 1_555
N4 Ag2 1_555 1_555
C25 H24 1_555 1_555
H25 C25 1_555 1_555
C26 C28 1_555 1_555
C27 C24 1_555 1_555
H26 C27 1_555 1_555
C28 H27 1_555 1_555
C29 C26 1_555 1_555
H28 C29 1_555 1_555
H29 C29 1_555 1_555
C30 N3 1_555 1_555
H30 C30 1_555 1_555
C31 C30 1_555 1_555
H31 C31 1_555 1_555
C32 C26 1_555 1_555
H32 C32 1_555 1_555
C33 C25 1_555 1_555
C34 N4 1_555 1_555
H33 C34 1_555 1_555
C35 C25 1_555 1_555
H34 C35 1_555 1_555
H35 C35 1_555 1_555
C36 N4 1_555 1_555
H36 C36 1_555 1_555
Ag1A N1 1_555 1_555
N1A Ag1 1_555 1_555
Ag2A N3 1_555 1_555
N3A Ag2 1_555 1_555
C5 C20 1_555 1_555
C6 C8 1_555 1_555
C6 C18 1_555 1_555
C7 C12 1_555 1_555
C10 C23 1_555 1_555
C11 C14 1_555 1_555
C11 C19 1_555 1_555
C15 C17 1_555 1_555
C15 C22 1_555 1_555
C16 C21 1_555 1_555
C27 C33 1_555 1_555
C28 C36 1_555 1_555
C29 C35 1_555 1_555
C31 C33 1_555 1_555
C32 C34 1_555 1_555

#END
