
#######################################################################
#
#                 Cambridge Crystallographic Data Centre
#                                CCDC 
#
#######################################################################
#
# If this CIF has been generated from an entry in the Cambridge 
# Structural Database, then it will include bibliographic, chemical, 
# crystal, experimental, refinement or atomic coordinate data resulting 
# from the CCDC's data processing and validation procedures.
#
#######################################################################

data_JUMYOH
_symmetry_cell_setting           orthorhombic
_symmetry_space_group_name_H-M   'P b c a'
_symmetry_Int_Tables_number      61
_space_group_name_Hall           '-P 2ac 2ab'
loop_
_symmetry_equiv_pos_site_id
_symmetry_equiv_pos_as_xyz
1 x,y,z
2 1/2-x,-y,1/2+z
3 -x,1/2+y,1/2-z
4 1/2+x,1/2-y,-z
5 -x,-y,-z
6 1/2+x,y,1/2-z
7 x,1/2-y,1/2+z
8 1/2-x,1/2+y,z
_cell_length_a                   16.332
_cell_length_b                   13.566
_cell_length_c                   16.939
_cell_angle_alpha                90
_cell_angle_beta                 90
_cell_angle_gamma                90
_cell_volume                     3753
loop_
_atom_site_label
_atom_site_type_symbol
_atom_site_fract_x
_atom_site_fract_y
_atom_site_fract_z
Co1 Co 0.56637(3) 0.50951(3) 0.61754(3)
O1 O 0.55870(14) 0.47889(19) 0.38706(14)
O2 O 0.60496(17) 0.51878(16) 0.50536(14)
O3 O 0.92637(15) 0.49073(17) 0.24231(16)
O4 O 0.80871(16) 0.48190(17) 0.18313(16)
N1 N 0.57530(16) 0.66819(19) 0.62627(15)
N2 N 0.56885(16) 1.35148(19) 0.61146(16)
C1 C 0.6136(2) 0.4829(2) 0.4378(2)
C2 C 0.5945(2) 0.8708(2) 0.6508(2)
C3 C 0.8510(2) 0.4749(2) 0.2447(2)
C4 C 0.6037(3) 0.9799(2) 0.6606(2)
H1 H 0.6607 0.9953 0.6707
H2 H 0.5721 1.0011 0.7061
C5 C 0.5196(2) 0.7202(2) 0.6657(2)
H3 H 0.4741 0.6877 0.6859
C6 C 0.5267(2) 0.8203(2) 0.6780(2)
H4 H 0.4856 0.8540 0.7047
C7 C 0.6529(2) 0.8152(2) 0.6117(2)
H5 H 0.7005 0.8450 0.5932
C8 C 0.5186(2) 1.3029(3) 0.5643(2)
H6 H 0.4800 1.3386 0.5358
C9 C 0.6407(2) 0.7159(2) 0.6002(2)
H7 H 0.6803 0.6805 0.5727
C10 C 0.7315(2) 0.4811(2) 0.3409(2)
H8 H 0.7349 0.5525 0.3432
H9 H 0.6939 0.4639 0.2988
C11 C 0.5759(2) 1.1461(2) 0.5970(2)
C12 C 0.5205(2) 1.2022(3) 0.5552(2)
H10 H 0.4841 1.1718 0.5206
C13 C 0.6227(2) 1.2972(3) 0.6512(2)
H11 H 0.6589 1.3294 0.6848
C14 C 0.6981(2) 0.4436(3) 0.4175(2)
H12 H 0.7347 0.4692 0.4585
C15 C 0.8150(2) 0.4398(3) 0.3220(2)
H13 H 0.8516 0.4648 0.3632
C16 C 0.6281(2) 1.1968(3) 0.6453(2)
H14 H 0.6674 1.1629 0.6743
C17 C 0.5754(3) 1.0354(3) 0.5891(3)
H15 H 0.5202 1.0144 0.5765
H16 H 0.6102 1.0173 0.5449
C18 C 0.7859(3) 0.2915(4) 0.4042(3)
H17 H 0.8238 0.3071 0.4465
H18 H 0.7816 0.2204 0.4007
C19 C 0.7026(3) 0.3342(3) 0.4239(3)
H19 H 0.6623 0.3055 0.3886
H20 H 0.6882 0.3150 0.4773
C20 C 0.8192(3) 0.3309(3) 0.3276(3)
H21 H 0.8759 0.3104 0.3222
H22 H 0.7886 0.3024 0.2842
Co1_2 Co 0.56637(3) 1.50951(3) 0.61754(3)
Co1A Co 0.93363(3) 0.49049(3) 0.11754(3)
Co1D Co 0.43363(3) 0.49049(3) 0.38246(3)
O1D O 0.44130(14) 0.52111(19) 0.61294(14)
O3A O 0.57363(15) 0.50927(17) 0.74231(16)
O4A O 0.69129(16) 0.51810(17) 0.68313(16)
N2_2 N 0.56885(16) 0.35148(19) 0.61146(16)
loop_
_geom_bond_atom_site_label_1
_geom_bond_atom_site_label_2
_geom_bond_site_symmetry_1
_geom_bond_site_symmetry_2
Co1 O2 1_555 1_555
O1 C1 1_555 1_555
O2 C1 1_555 1_555
O3 C3 1_555 1_555
O4 C3 1_555 1_555
N1 Co1 1_555 1_555
N2 C8 1_555 1_555
C1 C14 1_555 1_555
C2 C4 1_555 1_555
C3 C15 1_555 1_555
C4 H1 1_555 1_555
H2 C4 1_555 1_555
C5 N1 1_555 1_555
H3 C5 1_555 1_555
C6 C2 1_555 1_555
H4 C6 1_555 1_555
C7 C2 1_555 1_555
H5 C7 1_555 1_555
C8 H6 1_555 1_555
C9 N1 1_555 1_555
H7 C9 1_555 1_555
C10 H8 1_555 1_555
H9 C10 1_555 1_555
C11 C12 1_555 1_555
C12 C8 1_555 1_555
H10 C12 1_555 1_555
C13 N2 1_555 1_555
H11 C13 1_555 1_555
C14 C10 1_555 1_555
H12 C14 1_555 1_555
C15 C10 1_555 1_555
H13 C15 1_555 1_555
C16 C11 1_555 1_555
H14 C16 1_555 1_555
C17 C4 1_555 1_555
H15 C17 1_555 1_555
H16 C17 1_555 1_555
C18 H17 1_555 1_555
H18 C18 1_555 1_555
C19 C14 1_555 1_555
H19 C19 1_555 1_555
H20 C19 1_555 1_555
C20 C15 1_555 1_555
H21 C20 1_555 1_555
H22 C20 1_555 1_555
Co1_2 N2 1_555 1_555
Co1A O3 1_555 1_555
Co1D O1 1_555 1_555
O1D Co1 1_555 1_555
O3A Co1 1_555 1_555
O4A Co1 1_555 1_555
N2_2 Co1 1_555 1_555
O4 Co1A 1_555 1_555
C5 C6 1_555 1_555
C7 C9 1_555 1_555
C11 C17 1_555 1_555
C13 C16 1_555 1_555
C18 C19 1_555 1_555
C18 C20 1_555 1_555

#END
