
#######################################################################
#
#                 Cambridge Crystallographic Data Centre
#                                CCDC 
#
#######################################################################
#
# If this CIF has been generated from an entry in the Cambridge 
# Structural Database, then it will include bibliographic, chemical, 
# crystal, experimental, refinement or atomic coordinate data resulting 
# from the CCDC's data processing and validation procedures.
#
#######################################################################

data_JUMZUO
_symmetry_cell_setting           triclinic
_symmetry_space_group_name_H-M   'P -1'
_symmetry_Int_Tables_number      2
_space_group_name_Hall           '-P 1'
loop_
_symmetry_equiv_pos_site_id
_symmetry_equiv_pos_as_xyz
1 x,y,z
2 -x,-y,-z
_cell_length_a                   9.2245(18)
_cell_length_b                   10.030(2)
_cell_length_c                   24.641(5)
_cell_angle_alpha                97.80(3)
_cell_angle_beta                 100.45(3)
_cell_angle_gamma                101.12(3)
_cell_volume                     2165.23
loop_
_atom_site_label
_atom_site_type_symbol
_atom_site_fract_x
_atom_site_fract_y
_atom_site_fract_z
Ni1 Ni 0.89455(3) 0.38398(2) 0.318993(10)
Ni2 Ni 0.73172(3) 0.12764(2) 0.205117(11)
O1 O 0.80522(16) 0.30614(13) 0.17952(6)
O2 O 0.82032(16) 0.47128(13) 0.25264(6)
O3 O 0.27595(13) -0.20911(13) -0.28720(6)
O4 O 0.34094(14) -0.37410(14) -0.33827(6)
O5 O 0.93072(14) -0.31800(13) -0.29286(6)
O6 O 1.05590(15) -0.11469(14) -0.23877(7)
O7 O 0.74996(16) 0.98499(13) 0.13693(6)
O8 O 0.68192(15) 0.91256(12) 0.21050(6)
O9 O 0.69476(15) 0.19907(14) -0.25971(7)
O10 O 0.7637(3) 0.54756(17) 0.01298(7)
N1 N 1.02902(19) 0.57420(17) 0.35398(7)
N2 N 1.2357(2) 0.73779(17) 0.38237(8)
N3 N 0.95844(18) 0.31130(18) 0.39363(7)
N4 N 1.1219(2) 0.2716(2) 0.46263(8)
N5 N 0.51411(18) 0.13199(16) 0.16923(7)
N6 N 0.26928(19) 0.06741(19) 0.13588(8)
C1 C 0.8085(2) 0.42858(18) 0.20157(9)
C2 C 0.7888(2) 0.52839(19) 0.16205(9)
C3 C 0.7893(3) 0.4891(2) 0.10589(9)
H1 H 0.8019 0.4015 0.0928
C4 C 0.7707(3) 0.5817(2) 0.06919(9)
C5 C 0.7553(3) 0.7123(2) 0.08839(9)
H2 H 0.7482 0.7751 0.0641
C6 C 0.7504(2) 0.75021(19) 0.14445(8)
C7 C 0.7689(2) 0.65921(18) 0.18108(8)
H3 H 0.7680 0.6855 0.2187
C8 C 0.7252(2) 0.89044(19) 0.16468(9)
C9 C 0.7248(5) 0.4053(3) -0.01189(13)
H4 H 0.6529 0.3544 0.0063
H5 H 0.8143 0.3672 -0.0077
C10 C 0.6546(4) 0.3935(4) -0.07442(13)
H6 H 0.5965 0.2998 -0.0886
H7 H 0.5848 0.4544 -0.0779
C11 C 0.7622(3) 0.4268(3) -0.10907(11)
H8 H 0.8302 0.3641 -0.1069
H9 H 0.8222 0.5198 -0.0947
C12 C 0.3762(2) -0.25658(19) -0.30931(8)
C13 C 0.53018(19) -0.16652(19) -0.29836(8)
C14 C 0.5475(2) -0.02596(19) -0.28655(8)
H10 H 0.4626 0.0119 -0.2892
C15 C 0.6912(2) 0.06041(19) -0.27061(8)
C16 C 0.8174(2) 0.0053(2) -0.26532(8)
H11 H 0.9134 0.0627 -0.2538
C17 C 0.8000(2) -0.13866(19) -0.27740(8)
C18 C 0.6585(2) -0.2240(2) -0.29475(8)
H12 H 0.6476 -0.3190 -0.3040
C19 C 0.9401(2) -0.1967(2) -0.26879(8)
C20 C 0.8303(2) 0.2942(2) -0.23018(9)
H13 H 0.8772 0.2590 -0.1983
H14 H 0.9013 0.3088 -0.2546
C21 C 0.7884(3) 0.4256(2) -0.21109(11)
H15 H 0.7398 0.4573 -0.2437
H16 H 0.8802 0.4944 -0.1936
C22 C 0.6852(3) 0.4170(3) -0.17056(11)
H17 H 0.6312 0.4907 -0.1729
H18 H 0.6108 0.3303 -0.1822
C23 C 0.3963(2) 0.0284(2) 0.15446(9)
H19 H 0.4009 -0.0626 0.1567
C24 C 0.3078(3) 0.2062(3) 0.13839(16)
H20 H 0.2437 0.2633 0.1274
C25 C 0.4568(3) 0.2440(3) 0.15996(15)
H21 H 0.5133 0.3344 0.1675
C26 C 0.1158(3) -0.0179(3) 0.11541(10)
H22 H 0.0501 0.0123 0.1388
H23 H 0.1170 -0.1133 0.1182
C27 C 0.0545(2) -0.0090(2) 0.05594(10)
C28 C -0.0618(3) 0.0572(3) 0.04253(11)
H24 H -0.1036 0.0964 0.0707
C29 C 0.1169(3) -0.0653(3) 0.01360(11)
H25 H 0.1962 -0.1089 0.0225
C30 C 0.9908(2) 0.6992(2) 0.35916(9)
H26 H 0.8926 0.7125 0.3515
C31 C 1.1172(3) 0.8010(2) 0.37712(10)
H27 H 1.1221 0.8954 0.3844
C32 C 1.1775(2) 0.6017(2) 0.36806(9)
H28 H 1.2349 0.5350 0.3681
C33 C 1.3984(3) 0.8023(2) 0.39566(10)
H29 H 1.4229 0.8485 0.3653
H30 H 1.4554 0.7308 0.3984
C34 C 1.4461(3) 0.9057(2) 0.44998(9)
C35 C 1.3871(3) 0.8867(2) 0.49635(10)
H31 H 1.3094 0.8102 0.4940
C36 C 1.5602(3) 1.0223(2) 0.45372(10)
H32 H 1.6004 1.0384 0.4226
C37 C 1.0883(3) 0.2769(3) 0.40793(10)
H33 H 1.1496 0.2585 0.3831
C38 C 0.9073(3) 0.3260(3) 0.44111(11)
H34 H 0.8158 0.3489 0.4443
C39 C 1.0080(3) 0.3025(4) 0.48350(13)
H35 H 0.9990 0.3072 0.5207
C40 C 1.2693(3) 0.2540(3) 0.49311(13)
H36 H 1.2958 0.1745 0.4735
H37 H 1.2614 0.2377 0.5305
C41 C 1.3903(3) 0.3809(3) 0.49702(11)
C42 C 1.4233(3) 0.4858(3) 0.54218(11)
H38 H 1.3725 0.4770 0.5713
C43 C 1.4686(3) 0.3951(3) 0.45502(11)
H39 H 1.4489 0.3241 0.4244
N1A N 1.97098(19) 1.42580(17) 0.64602(7)
N2A N 1.7643(2) 1.26221(17) 0.61763(8)
C30A C 2.0092(2) 1.3008(2) 0.64084(9)
H26A H 2.1074 1.2875 0.6485
C31A C 1.8828(3) 1.1990(2) 0.62288(10)
H27A H 1.8779 1.1046 0.6156
C32A C 1.8225(2) 1.3983(2) 0.63194(9)
H28A H 1.7651 1.4650 0.6319
C33A C 1.6016(3) 1.1977(2) 0.60434(10)
H29A H 1.5771 1.1515 0.6347
H30A H 1.5446 1.2692 0.6016
C34A C 1.5539(3) 1.0943(2) 0.55002(9)
C35A C 1.6129(3) 1.1133(2) 0.50365(10)
H31A H 1.6906 1.1898 0.5060
C36A C 1.4398(3) 0.9777(2) 0.54628(10)
H32A H 1.3996 0.9616 0.5774
N3A N 2.04156(18) 0.68870(18) 0.60637(7)
N4A N 1.8781(2) 0.7284(2) 0.53737(8)
C37A C 1.9117(3) 0.7231(3) 0.59207(10)
H33A H 1.8504 0.7415 0.6169
C38A C 2.0927(3) 0.6740(3) 0.55889(11)
H34A H 2.1842 0.6511 0.5557
C39A C 1.9920(3) 0.6975(4) 0.51650(13)
H35A H 2.0010 0.6928 0.4793
C40A C 1.7307(3) 0.7460(3) 0.50689(13)
H36A H 1.7042 0.8255 0.5265
H37A H 1.7386 0.7623 0.4695
C41A C 1.6097(3) 0.6191(3) 0.50298(11)
C42A C 1.5767(3) 0.5142(3) 0.45782(11)
H38A H 1.6275 0.5230 0.4287
C43A C 1.5314(3) 0.6049(3) 0.54498(11)
H39A H 1.5511 0.6759 0.5756
N5A N -0.51411(18) -0.13199(16) -0.16923(7)
N6A N -0.26928(19) -0.06741(19) -0.13588(8)
C23A C -0.3963(2) -0.0284(2) -0.15446(9)
H19A H -0.4009 0.0626 -0.1567
C24A C -0.3078(3) -0.2062(3) -0.13839(16)
H20A H -0.2437 -0.2633 -0.1274
C25A C -0.4568(3) -0.2440(3) -0.15996(15)
H21A H -0.5133 -0.3344 -0.1675
C26A C -0.1158(3) 0.0179(3) -0.11541(10)
H22A H -0.0501 -0.0123 -0.1388
H23A H -0.1170 0.1133 -0.1182
C27A C -0.0545(2) 0.0090(2) -0.05594(10)
C28A C 0.0618(3) -0.0572(3) -0.04253(11)
H24A H 0.1036 -0.0964 -0.0707
C29A C -0.1169(3) 0.0653(3) -0.01360(11)
H25A H -0.1962 0.1089 -0.0225
Ni1A Ni -0.89455(3) -0.38398(2) -0.318993(10)
Ni2A Ni -0.73172(3) -0.12764(2) -0.205117(11)
O1A O -0.80522(16) -0.30614(13) -0.17952(6)
O2A O -0.82032(16) -0.47128(13) -0.25264(6)
O3A O -0.27595(13) 0.20911(13) 0.28720(6)
O4A O -0.34094(14) 0.37410(14) 0.33827(6)
O5A O -0.93072(14) 0.31800(13) 0.29286(6)
O6A O -1.05590(15) 0.11469(14) 0.23877(7)
O7A O -0.74996(16) -0.98499(13) -0.13693(6)
O8A O -0.68192(15) -0.91256(12) -0.21050(6)
O9A O -0.69476(15) -0.19907(14) 0.25971(7)
O10A O -0.7637(3) -0.54756(17) -0.01298(7)
C1A C -0.8085(2) -0.42858(18) -0.20157(9)
C2A C -0.7888(2) -0.52839(19) -0.16205(9)
C3A C -0.7893(3) -0.4891(2) -0.10589(9)
H1A H -0.8019 -0.4015 -0.0928
C4A C -0.7707(3) -0.5817(2) -0.06919(9)
C5A C -0.7553(3) -0.7123(2) -0.08839(9)
H2A H -0.7482 -0.7751 -0.0641
C6A C -0.7504(2) -0.75021(19) -0.14445(8)
C7A C -0.7689(2) -0.65921(18) -0.18108(8)
H3A H -0.7680 -0.6855 -0.2187
C8A C -0.7252(2) -0.89044(19) -0.16468(9)
C9A C -0.7248(5) -0.4053(3) 0.01189(13)
H4A H -0.6529 -0.3544 -0.0063
H5A H -0.8143 -0.3672 0.0077
C10A C -0.6546(4) -0.3935(4) 0.07442(13)
H6A H -0.5965 -0.2998 0.0886
H7A H -0.5848 -0.4544 0.0779
C11A C -0.7622(3) -0.4268(3) 0.10907(11)
H8A H -0.8302 -0.3641 0.1069
H9A H -0.8222 -0.5198 0.0947
C12A C -0.3762(2) 0.25658(19) 0.30931(8)
C13A C -0.53018(19) 0.16652(19) 0.29836(8)
C14A C -0.5475(2) 0.02596(19) 0.28655(8)
H10A H -0.4626 -0.0119 0.2892
C15A C -0.6912(2) -0.06041(19) 0.27061(8)
C16A C -0.8174(2) -0.0053(2) 0.26532(8)
H11A H -0.9134 -0.0627 0.2538
C17A C -0.8000(2) 0.13866(19) 0.27740(8)
C18A C -0.6585(2) 0.2240(2) 0.29475(8)
H12A H -0.6476 0.3190 0.3040
C19A C -0.9401(2) 0.1967(2) 0.26879(8)
C20A C -0.8303(2) -0.2942(2) 0.23018(9)
H13A H -0.8772 -0.2590 0.1983
H14A H -0.9013 -0.3088 0.2546
C21A C -0.7884(3) -0.4256(2) 0.21109(11)
H15A H -0.7398 -0.4573 0.2437
H16A H -0.8802 -0.4944 0.1936
C22A C -0.6852(3) -0.4170(3) 0.17056(11)
H17A H -0.6312 -0.4907 0.1729
H18A H -0.6108 -0.3303 0.1822
Ni1_2 Ni -1.10545(3) 0.38398(2) 0.318993(10)
Ni1_3 Ni -0.10545(3) 0.38398(2) 0.318993(10)
Ni1A_2 Ni 0.10545(3) -0.38398(2) -0.318993(10)
Ni1A_3 Ni 1.10545(3) -0.38398(2) -0.318993(10)
Ni1A_4 Ni 2.10545(3) 0.61602(2) 0.681007(10)
Ni1A_5 Ni 2.10545(3) 1.61602(2) 0.681007(10)
Ni2_2 Ni -1.26828(3) 0.12764(2) 0.205117(11)
Ni2_3 Ni -0.26828(3) 0.12764(2) 0.205117(11)
Ni2_4 Ni 0.73172(3) 1.12764(2) 0.205117(11)
Ni2A_2 Ni -0.73172(3) -1.12764(2) -0.205117(11)
Ni2A_3 Ni 0.26828(3) -0.12764(2) -0.205117(11)
Ni2A_4 Ni 1.26828(3) -0.12764(2) -0.205117(11)
O3_2 O -0.72405(13) -0.20911(13) -0.28720(6)
O3A_2 O 0.72405(13) 0.20911(13) 0.28720(6)
O4_2 O -0.65906(14) -0.37410(14) -0.33827(6)
O4A_2 O 0.65906(14) 0.37410(14) 0.33827(6)
O5_2 O -1.06928(14) -0.31800(13) -0.29286(6)
O5A_2 O 1.06928(14) 0.31800(13) 0.29286(6)
O6_2 O -0.94410(15) -0.11469(14) -0.23877(7)
O6A_2 O 0.94410(15) 0.11469(14) 0.23877(7)
O7_2 O 0.74996(16) -0.01501(13) 0.13693(6)
O7A_2 O -0.74996(16) 0.01501(13) -0.13693(6)
O8_2 O 0.68192(15) -0.08744(12) 0.21050(6)
O8A_2 O -0.68192(15) 0.08744(12) -0.21050(6)
N1A_2 N -1.02902(19) -0.57420(17) -0.35398(7)
N3A_2 N -0.95844(18) -0.31130(18) -0.39363(7)
O11 O 0.8153(3) 0.9501(3) 0.33237(13)
H40 H 0.7835 0.9987 0.3567
H41 H 0.9113 0.9659 0.3393
O12 O 0.5764(3) 0.6316(3) 0.31382(17)
H42 H 0.5814 0.7157 0.3088
H43 H 0.6106 0.6295 0.3481
O13 O 0.5620(10) 0.0694(16) 0.0421(3)
H44 H 0.4726 0.0852 0.0390
H45 H 0.6259 0.1387 0.0382
loop_
_geom_bond_atom_site_label_1
_geom_bond_atom_site_label_2
_geom_bond_site_symmetry_1
_geom_bond_site_symmetry_2
Ni1 O2 1_555 1_555
Ni2 O1 1_555 1_555
O1 C1 1_555 1_555
O2 C1 1_555 1_555
O3 C12 1_555 1_555
O4 C12 1_555 1_555
O5 C19 1_555 1_555
O6 C19 1_555 1_555
O7 C8 1_555 1_555
O8 C8 1_555 1_555
O9 C15 1_555 1_555
O10 C4 1_555 1_555
N1 Ni1 1_555 1_555
N2 C31 1_555 1_555
N3 Ni1 1_555 1_555
N4 C37 1_555 1_555
N5 Ni2 1_555 1_555
N6 C23 1_555 1_555
C1 C2 1_555 1_555
C2 C3 1_555 1_555
C3 H1 1_555 1_555
C4 C3 1_555 1_555
C5 C4 1_555 1_555
H2 C5 1_555 1_555
C6 C5 1_555 1_555
C7 C2 1_555 1_555
H3 C7 1_555 1_555
C8 C6 1_555 1_555
C9 O10 1_555 1_555
H4 C9 1_555 1_555
H5 C9 1_555 1_555
C10 C9 1_555 1_555
H6 C10 1_555 1_555
H7 C10 1_555 1_555
C11 C10 1_555 1_555
H8 C11 1_555 1_555
H9 C11 1_555 1_555
C12 C13 1_555 1_555
C13 C14 1_555 1_555
C14 H10 1_555 1_555
C15 C14 1_555 1_555
C16 C15 1_555 1_555
H11 C16 1_555 1_555
C17 C16 1_555 1_555
C18 C13 1_555 1_555
H12 C18 1_555 1_555
C19 C17 1_555 1_555
C20 O9 1_555 1_555
H13 C20 1_555 1_555
H14 C20 1_555 1_555
C21 C20 1_555 1_555
H15 C21 1_555 1_555
H16 C21 1_555 1_555
C22 C11 1_555 1_555
H17 C22 1_555 1_555
H18 C22 1_555 1_555
C23 N5 1_555 1_555
H19 C23 1_555 1_555
C24 N6 1_555 1_555
H20 C24 1_555 1_555
C25 N5 1_555 1_555
H21 C25 1_555 1_555
C26 N6 1_555 1_555
H22 C26 1_555 1_555
H23 C26 1_555 1_555
C27 C26 1_555 1_555
C28 C27 1_555 1_555
H24 C28 1_555 1_555
C29 C27 1_555 1_555
H25 C29 1_555 1_555
C30 N1 1_555 1_555
H26 C30 1_555 1_555
C31 C30 1_555 1_555
H27 C31 1_555 1_555
C32 N1 1_555 1_555
H28 C32 1_555 1_555
C33 N2 1_555 1_555
H29 C33 1_555 1_555
H30 C33 1_555 1_555
C34 C33 1_555 1_555
C35 C34 1_555 1_555
H31 C35 1_555 1_555
C36 C34 1_555 1_555
H32 C36 1_555 1_555
C37 N3 1_555 1_555
H33 C37 1_555 1_555
C38 N3 1_555 1_555
H34 C38 1_555 1_555
C39 N4 1_555 1_555
H35 C39 1_555 1_555
C40 N4 1_555 1_555
H36 C40 1_555 1_555
H37 C40 1_555 1_555
C41 C40 1_555 1_555
C42 C41 1_555 1_555
H38 C42 1_555 1_555
C43 C41 1_555 1_555
H39 C43 1_555 1_555
O11 H40 1_555 1_555
H41 O11 1_555 1_555
O12 H42 1_555 1_555
H43 O12 1_555 1_555
O13 H44 1_555 1_555
H45 O13 1_555 1_555
N1A C30A 1_555 1_555
N2A C31A 1_555 1_555
C30A H26A 1_555 1_555
C31A C30A 1_555 1_555
H27A C31A 1_555 1_555
C32A N1A 1_555 1_555
H28A C32A 1_555 1_555
C33A N2A 1_555 1_555
H29A C33A 1_555 1_555
H30A C33A 1_555 1_555
C34A C33A 1_555 1_555
C35A C36 1_555 1_555
H31A C35A 1_555 1_555
C36A C35 1_555 1_555
H32A C36A 1_555 1_555
N3A C37A 1_555 1_555
N4A C37A 1_555 1_555
C37A H33A 1_555 1_555
C38A N3A 1_555 1_555
H34A C38A 1_555 1_555
C39A N4A 1_555 1_555
H35A C39A 1_555 1_555
C40A N4A 1_555 1_555
H36A C40A 1_555 1_555
H37A C40A 1_555 1_555
C41A C40A 1_555 1_555
C42A C43 1_555 1_555
H38A C42A 1_555 1_555
C43A C42 1_555 1_555
H39A C43A 1_555 1_555
N5A C23A 1_555 1_555
N6A C23A 1_555 1_555
C23A H19A 1_555 1_555
C24A N6A 1_555 1_555
H20A C24A 1_555 1_555
C25A N5A 1_555 1_555
H21A C25A 1_555 1_555
C26A N6A 1_555 1_555
H22A C26A 1_555 1_555
H23A C26A 1_555 1_555
C27A C26A 1_555 1_555
C28A C29 1_555 1_555
H24A C28A 1_555 1_555
C29A C28 1_555 1_555
H25A C29A 1_555 1_555
Ni1A O2A 1_555 1_555
Ni2A N5A 1_555 1_555
O1A Ni2A 1_555 1_555
O2A C1A 1_555 1_555
O3A C12A 1_555 1_555
O4A C12A 1_555 1_555
O5A C19A 1_555 1_555
O6A C19A 1_555 1_555
O7A C8A 1_555 1_555
O8A C8A 1_555 1_555
O9A C15A 1_555 1_555
O10A C4A 1_555 1_555
C1A O1A 1_555 1_555
C2A C1A 1_555 1_555
C3A C2A 1_555 1_555
H1A C3A 1_555 1_555
C4A C3A 1_555 1_555
C5A C4A 1_555 1_555
H2A C5A 1_555 1_555
C6A C5A 1_555 1_555
C7A C2A 1_555 1_555
H3A C7A 1_555 1_555
C8A C6A 1_555 1_555
C9A O10A 1_555 1_555
H4A C9A 1_555 1_555
H5A C9A 1_555 1_555
C10A C9A 1_555 1_555
H6A C10A 1_555 1_555
H7A C10A 1_555 1_555
C11A C10A 1_555 1_555
H8A C11A 1_555 1_555
H9A C11A 1_555 1_555
C12A C13A 1_555 1_555
C13A C14A 1_555 1_555
C14A H10A 1_555 1_555
C15A C14A 1_555 1_555
C16A C15A 1_555 1_555
H11A C16A 1_555 1_555
C17A C16A 1_555 1_555
C18A C13A 1_555 1_555
H12A C18A 1_555 1_555
C19A C17A 1_555 1_555
C20A O9A 1_555 1_555
H13A C20A 1_555 1_555
H14A C20A 1_555 1_555
C21A C20A 1_555 1_555
H15A C21A 1_555 1_555
H16A C21A 1_555 1_555
C22A C11A 1_555 1_555
H17A C22A 1_555 1_555
H18A C22A 1_555 1_555
Ni1_2 O5A 1_555 1_555
Ni1_3 O3A 1_555 1_555
Ni1A_2 O3 1_555 1_555
Ni1A_3 O5 1_555 1_555
Ni1A_4 N3A 1_555 1_555
Ni1A_5 N1A 1_555 1_555
Ni2_2 O6A 1_555 1_555
Ni2_3 O3A 1_555 1_555
Ni2_4 O7 1_555 1_555
Ni2A_2 O7A 1_555 1_555
Ni2A_3 O3 1_555 1_555
Ni2A_4 O6 1_555 1_555
O3_2 Ni1A 1_555 1_555
O3A_2 Ni1 1_555 1_555
O4_2 Ni1A 1_555 1_555
O4A_2 Ni1 1_555 1_555
O5_2 Ni1A 1_555 1_555
O5A_2 Ni1 1_555 1_555
O6_2 Ni2A 1_555 1_555
O6A_2 Ni2 1_555 1_555
O7_2 Ni2 1_555 1_555
O7A_2 Ni2A 1_555 1_555
O8_2 Ni2 1_555 1_555
O8A_2 Ni2A 1_555 1_555
N1A_2 Ni1A 1_555 1_555
N3A_2 Ni1A 1_555 1_555
Ni2 O3A_2 1_555 1_555
O4 Ni1A_2 1_555 1_555
O8 Ni2_4 1_555 1_555
N2 C32 1_555 1_555
C6 C7 1_555 1_555
C17 C18 1_555 1_555
C21 C22 1_555 1_555
C24 C25 1_555 1_555
C38 C39 1_555 1_555
N2A C32A 1_555 1_555
C34A C35A 1_555 1_555
C34A C36A 1_555 1_555
C38A C39A 1_555 1_555
C41A C42A 1_555 1_555
C41A C43A 1_555 1_555
C24A C25A 1_555 1_555
C27A C28A 1_555 1_555
C27A C29A 1_555 1_555
Ni2A O3_2 1_555 1_555
O4A Ni1_3 1_555 1_555
O8A Ni2A_2 1_555 1_555
C6A C7A 1_555 1_555
C17A C18A 1_555 1_555
C21A C22A 1_555 1_555

#END
