
#######################################################################
#
#                 Cambridge Crystallographic Data Centre
#                                CCDC 
#
#######################################################################
#
# If this CIF has been generated from an entry in the Cambridge 
# Structural Database, then it will include bibliographic, chemical, 
# crystal, experimental, refinement or atomic coordinate data resulting 
# from the CCDC's data processing and validation procedures.
#
#######################################################################

data_JUMZOI
_symmetry_cell_setting           triclinic
_symmetry_space_group_name_H-M   'P -1'
_symmetry_Int_Tables_number      2
_space_group_name_Hall           '-P 1'
loop_
_symmetry_equiv_pos_site_id
_symmetry_equiv_pos_as_xyz
1 x,y,z
2 -x,-y,-z
_cell_length_a                   10.234(2)
_cell_length_b                   10.388(2)
_cell_length_c                   15.930(3)
_cell_angle_alpha                79.20(3)
_cell_angle_beta                 81.64(3)
_cell_angle_gamma                87.35(3)
_cell_volume                     1645.54
loop_
_atom_site_label
_atom_site_type_symbol
_atom_site_fract_x
_atom_site_fract_y
_atom_site_fract_z
Ni1 Ni 0.34241(3) 0.47962(4) 0.32454(3)
O1 O 0.2406(2) 0.4983(2) 0.21376(14)
O2 O 0.1397(2) 0.4380(2) 0.34630(14)
O3 O 0.3835(2) 0.4383(3) 0.45026(15)
H1 H 0.4645 0.4164 0.4504
H2 H 0.3531 0.4833 0.4884
O4 O -0.3595(2) 0.4495(3) 0.39469(17)
O5 O -0.46331(19) 0.5316(2) 0.28242(15)
O6 O -0.1192(3) 0.6612(3) 0.03237(17)
N1 N -0.6027(3) 1.2876(3) 0.30801(18)
N2 N -0.4951(3) 1.1255(3) 0.25294(19)
N3 N 0.2911(3) 0.6822(3) 0.31244(17)
N4 N 0.1802(3) 0.8714(3) 0.31614(17)
C1 C 0.1359(3) 0.4763(3) 0.2665(2)
C2 C 0.0054(3) 0.5046(3) 0.2344(2)
C3 C 0.0067(3) 0.5636(3) 0.1479(2)
H3 H 0.0865 0.5767 0.1115
C4 C -0.1103(3) 0.6023(3) 0.1166(2)
C5 C -0.2283(3) 0.5820(3) 0.1718(2)
H4 H -0.3073 0.6091 0.1509
C6 C -0.2313(3) 0.5218(3) 0.2580(2)
C7 C -0.1133(3) 0.4840(3) 0.2893(2)
H5 H -0.1135 0.4449 0.3468
C8 C -0.3616(3) 0.4997(3) 0.3170(2)
C9 C 0.0008(4) 0.7014(4) -0.0237(3)
H6 H -0.0173 0.7202 -0.0829
H7 H 0.0648 0.6295 -0.0187
C10 C 0.0603(4) 0.8208(4) -0.0038(3)
H8 H 0.0830 0.8001 0.0543
H9 H 0.1415 0.8409 -0.0430
C11 C -0.0290(4) 0.9410(4) -0.0110(3)
H10 H -0.0499 0.9630 -0.0695
H11 H -0.1111 0.9203 0.0272
C12 C 0.3235(3) 0.7668(3) 0.2330(2)
C13 C 0.4031(4) 0.7478(4) 0.1578(2)
H12 H 0.4498 0.6694 0.1547
C14 C 0.4103(4) 0.8491(4) 0.0882(2)
H13 H 0.4627 0.8380 0.0371
C15 C 0.3424(4) 0.9674(4) 0.0910(3)
H14 H 0.3506 1.0332 0.0423
C16 C 0.2632(3) 0.9890(4) 0.1648(2)
H15 H 0.2179 1.0681 0.1677
C17 C 0.2546(3) 0.8852(3) 0.2353(2)
C18 C 0.2052(3) 0.7474(3) 0.3596(2)
C19 C 0.1391(3) 0.6958(4) 0.4483(2)
H16 H 0.1520 0.7565 0.4857
H17 H 0.1810 0.6130 0.4699
C20 C -0.0087(4) 0.6750(4) 0.4534(3)
H18 H -0.0514 0.7568 0.4331
H19 H -0.0452 0.6424 0.5121
H20 H -0.0224 0.6127 0.4181
C21 C 0.0936(3) 0.9736(3) 0.3444(2)
H21 H 0.1421 1.0545 0.3334
H22 H 0.0668 0.9503 0.4061
C22 C -0.0289(3) 0.9967(3) 0.2996(2)
C23 C -0.0934(3) 1.1177(3) 0.2943(2)
H23 H -0.0567 1.1857 0.3130
C24 C -0.2116(4) 1.1381(3) 0.2615(3)
H24 H -0.2543 1.2194 0.2587
C25 C -0.2673(3) 1.0380(3) 0.2326(2)
C26 C -0.2002(3) 0.9190(4) 0.2349(2)
H25 H -0.2352 0.8520 0.2142
C27 C -0.0815(3) 0.8985(3) 0.2678(2)
H26 H -0.0369 0.8184 0.2684
C28 C -0.6196(3) 1.1727(3) 0.3691(2)
C29 C -0.6915(4) 1.1489(4) 0.4521(2)
H27 H -0.7380 1.2159 0.4755
C30 C -0.6907(4) 1.0223(5) 0.4978(3)
H28 H -0.7394 1.0035 0.5525
C31 C -0.6186(4) 0.9212(4) 0.4641(3)
H29 H -0.6187 0.8375 0.4974
C32 C -0.5481(4) 0.9429(4) 0.3833(3)
H30 H -0.5004 0.8758 0.3607
C33 C -0.5509(3) 1.0709(4) 0.3358(2)
C34 C -0.5284(3) 1.2552(3) 0.2393(2)
C35 C -0.4922(4) 1.3441(4) 0.1552(2)
H31 H -0.4018 1.3249 0.1323
H32 H -0.4966 1.4340 0.1644
C36 C -0.5823(5) 1.3307(4) 0.0890(3)
H33 H -0.5831 1.2407 0.0825
H34 H -0.5502 1.3839 0.0345
H35 H -0.6703 1.3590 0.1084
C37 C -0.3986(3) 1.0571(4) 0.1991(3)
H36 H -0.3860 1.1070 0.1407
H37 H -0.4325 0.9722 0.1971
O1A O -0.2406(2) 1.5017(2) -0.21376(14)
O2A O -0.1397(2) 1.5620(2) -0.34630(14)
O4A O 0.3595(2) 1.5505(3) -0.39469(17)
O5A O 0.46331(19) 1.4684(2) -0.28242(15)
O6A O 0.1192(3) 1.3388(3) -0.03237(17)
C1A C -0.1359(3) 1.5237(3) -0.2665(2)
C2A C -0.0054(3) 1.4954(3) -0.2344(2)
C3A C -0.0067(3) 1.4364(3) -0.1479(2)
H3A H -0.0865 1.4233 -0.1115
C4A C 0.1103(3) 1.3977(3) -0.1166(2)
C5A C 0.2283(3) 1.4180(3) -0.1718(2)
H4A H 0.3073 1.3909 -0.1509
C6A C 0.2313(3) 1.4782(3) -0.2580(2)
C7A C 0.1133(3) 1.5160(3) -0.2893(2)
H5A H 0.1135 1.5551 -0.3468
C8A C 0.3616(3) 1.5003(3) -0.3170(2)
C9A C -0.0008(4) 1.2986(4) 0.0237(3)
H6A H 0.0173 1.2798 0.0829
H7A H -0.0648 1.3705 0.0187
C10A C -0.0603(4) 1.1792(4) 0.0038(3)
H8A H -0.0830 1.1999 -0.0543
H9A H -0.1415 1.1591 0.0430
C11A C 0.0290(4) 1.0590(4) 0.0110(3)
H10A H 0.0499 1.0370 0.0695
H11A H 0.1111 1.0797 -0.0272
Ni1A Ni -0.34241(3) 1.52038(4) -0.32454(3)
O3A O -0.3835(2) 1.5617(3) -0.45026(15)
H1A H -0.4645 1.5836 -0.4504
H2A H -0.3531 1.5167 -0.4884
N1A N 0.6027(3) 0.7124(3) -0.30801(18)
N2A N 0.4951(3) 0.8745(3) -0.25294(19)
N3A N -0.2911(3) 1.3178(3) -0.31244(17)
N4A N -0.1802(3) 1.1286(3) -0.31614(17)
C12A C -0.3235(3) 1.2332(3) -0.2330(2)
C13A C -0.4031(4) 1.2522(4) -0.1578(2)
H12A H -0.4498 1.3306 -0.1547
C14A C -0.4103(4) 1.1509(4) -0.0882(2)
H13A H -0.4627 1.1620 -0.0371
C15A C -0.3424(4) 1.0326(4) -0.0910(3)
H14A H -0.3506 0.9668 -0.0423
C16A C -0.2632(3) 1.0110(4) -0.1648(2)
H15A H -0.2179 0.9319 -0.1677
C17A C -0.2546(3) 1.1148(3) -0.2353(2)
C18A C -0.2052(3) 1.2526(3) -0.3596(2)
C19A C -0.1391(3) 1.3042(4) -0.4483(2)
H16A H -0.1520 1.2435 -0.4857
H17A H -0.1810 1.3870 -0.4699
C20A C 0.0087(4) 1.3250(4) -0.4534(3)
H18A H 0.0514 1.2432 -0.4331
H19A H 0.0452 1.3576 -0.5121
H20A H 0.0224 1.3873 -0.4181
C21A C -0.0936(3) 1.0264(3) -0.3444(2)
H21A H -0.1421 0.9455 -0.3334
H22A H -0.0668 1.0497 -0.4061
C22A C 0.0289(3) 1.0033(3) -0.2996(2)
C23A C 0.0934(3) 0.8823(3) -0.2943(2)
H23A H 0.0567 0.8143 -0.3130
C24A C 0.2116(4) 0.8619(3) -0.2615(3)
H24A H 0.2543 0.7806 -0.2587
C25A C 0.2673(3) 0.9620(3) -0.2326(2)
C26A C 0.2002(3) 1.0810(4) -0.2349(2)
H25A H 0.2352 1.1480 -0.2142
C27A C 0.0815(3) 1.1015(3) -0.2678(2)
H26A H 0.0369 1.1816 -0.2684
C28A C 0.6196(3) 0.8273(3) -0.3691(2)
C29A C 0.6915(4) 0.8511(4) -0.4521(2)
H27A H 0.7380 0.7841 -0.4755
C30A C 0.6907(4) 0.9777(5) -0.4978(3)
H28A H 0.7394 0.9965 -0.5525
C31A C 0.6186(4) 1.0788(4) -0.4641(3)
H29A H 0.6187 1.1625 -0.4974
C32A C 0.5481(4) 1.0571(4) -0.3833(3)
H30A H 0.5004 1.1242 -0.3607
C33A C 0.5509(3) 0.9291(4) -0.3358(2)
C34A C 0.5284(3) 0.7448(3) -0.2393(2)
C35A C 0.4922(4) 0.6559(4) -0.1552(2)
H31A H 0.4018 0.6751 -0.1323
H32A H 0.4966 0.5660 -0.1644
C36A C 0.5823(5) 0.6693(4) -0.0890(3)
H33A H 0.5831 0.7593 -0.0825
H34A H 0.5502 0.6161 -0.0345
H35A H 0.6703 0.6410 -0.1084
C37A C 0.3986(3) 0.9429(4) -0.1991(3)
H36A H 0.3860 0.8930 -0.1407
H37A H 0.4325 1.0278 -0.1971
Ni1_2 Ni -0.65759(3) 0.47962(4) 0.32454(3)
Ni1_3 Ni -0.65759(3) 1.47962(4) 0.32454(3)
Ni1A_2 Ni 0.65759(3) 0.52038(4) -0.32454(3)
Ni1A_3 Ni 0.65759(3) 1.52038(4) -0.32454(3)
O5_2 O 0.53669(19) 0.5316(2) 0.28242(15)
O5A_2 O -0.53669(19) 1.4684(2) -0.28242(15)
N1_2 N 0.3973(3) 0.2876(3) 0.30801(18)
N1A_2 N -0.3973(3) 1.7124(3) -0.30801(18)
loop_
_geom_bond_atom_site_label_1
_geom_bond_atom_site_label_2
_geom_bond_site_symmetry_1
_geom_bond_site_symmetry_2
Ni1 O1 1_555 1_555
O1 C1 1_555 1_555
O2 Ni1 1_555 1_555
O3 Ni1 1_555 1_555
H1 O3 1_555 1_555
H2 O3 1_555 1_555
O4 C8 1_555 1_555
O5 C8 1_555 1_555
O6 C4 1_555 1_555
N1 C28 1_555 1_555
N2 C33 1_555 1_555
N3 Ni1 1_555 1_555
N4 C17 1_555 1_555
C1 O2 1_555 1_555
C2 C1 1_555 1_555
C3 C2 1_555 1_555
H3 C3 1_555 1_555
C4 C3 1_555 1_555
C5 C4 1_555 1_555
H4 C5 1_555 1_555
C6 C5 1_555 1_555
C7 C2 1_555 1_555
H5 C7 1_555 1_555
C8 C6 1_555 1_555
C9 O6 1_555 1_555
H6 C9 1_555 1_555
H7 C9 1_555 1_555
C10 C9 1_555 1_555
H8 C10 1_555 1_555
H9 C10 1_555 1_555
C11 C10 1_555 1_555
H10 C11 1_555 1_555
H11 C11 1_555 1_555
C12 N3 1_555 1_555
C13 C12 1_555 1_555
H12 C13 1_555 1_555
C14 C13 1_555 1_555
H13 C14 1_555 1_555
C15 C14 1_555 1_555
H14 C15 1_555 1_555
C16 C15 1_555 1_555
H15 C16 1_555 1_555
C17 C12 1_555 1_555
C18 N3 1_555 1_555
C19 C18 1_555 1_555
H16 C19 1_555 1_555
H17 C19 1_555 1_555
C20 C19 1_555 1_555
H18 C20 1_555 1_555
H19 C20 1_555 1_555
H20 C20 1_555 1_555
C21 N4 1_555 1_555
H21 C21 1_555 1_555
H22 C21 1_555 1_555
C22 C21 1_555 1_555
C23 C22 1_555 1_555
H23 C23 1_555 1_555
C24 C23 1_555 1_555
H24 C24 1_555 1_555
C25 C24 1_555 1_555
C26 C25 1_555 1_555
H25 C26 1_555 1_555
C27 C22 1_555 1_555
H26 C27 1_555 1_555
C28 C29 1_555 1_555
C29 H27 1_555 1_555
C30 C29 1_555 1_555
H28 C30 1_555 1_555
C31 C30 1_555 1_555
H29 C31 1_555 1_555
C32 C31 1_555 1_555
H30 C32 1_555 1_555
C33 C28 1_555 1_555
C34 N1 1_555 1_555
C35 C34 1_555 1_555
H31 C35 1_555 1_555
H32 C35 1_555 1_555
C36 C35 1_555 1_555
H33 C36 1_555 1_555
H34 C36 1_555 1_555
H35 C36 1_555 1_555
C37 N2 1_555 1_555
H36 C37 1_555 1_555
H37 C37 1_555 1_555
O1A C1A 1_555 1_555
O2A C1A 1_555 1_555
O4A C8A 1_555 1_555
O5A C8A 1_555 1_555
O6A C4A 1_555 1_555
C1A C2A 1_555 1_555
C2A C3A 1_555 1_555
C3A H3A 1_555 1_555
C4A C3A 1_555 1_555
C5A C4A 1_555 1_555
H4A C5A 1_555 1_555
C6A C5A 1_555 1_555
C7A C2A 1_555 1_555
H5A C7A 1_555 1_555
C8A C6A 1_555 1_555
C9A O6A 1_555 1_555
H6A C9A 1_555 1_555
H7A C9A 1_555 1_555
C10A C9A 1_555 1_555
H8A C10A 1_555 1_555
H9A C10A 1_555 1_555
C11A C11 1_555 1_555
H10A C11A 1_555 1_555
H11A C11A 1_555 1_555
Ni1A O1A 1_555 1_555
O3A Ni1A 1_555 1_555
H1A O3A 1_555 1_555
H2A O3A 1_555 1_555
N1A C28A 1_555 1_555
N2A C33A 1_555 1_555
N3A Ni1A 1_555 1_555
N4A C17A 1_555 1_555
C12A N3A 1_555 1_555
C13A C12A 1_555 1_555
H12A C13A 1_555 1_555
C14A C13A 1_555 1_555
H13A C14A 1_555 1_555
C15A C14A 1_555 1_555
H14A C15A 1_555 1_555
C16A C15A 1_555 1_555
H15A C16A 1_555 1_555
C17A C12A 1_555 1_555
C18A N3A 1_555 1_555
C19A C18A 1_555 1_555
H16A C19A 1_555 1_555
H17A C19A 1_555 1_555
C20A C19A 1_555 1_555
H18A C20A 1_555 1_555
H19A C20A 1_555 1_555
H20A C20A 1_555 1_555
C21A N4A 1_555 1_555
H21A C21A 1_555 1_555
H22A C21A 1_555 1_555
C22A C21A 1_555 1_555
C23A C22A 1_555 1_555
H23A C23A 1_555 1_555
C24A C23A 1_555 1_555
H24A C24A 1_555 1_555
C25A C24A 1_555 1_555
C26A C25A 1_555 1_555
H25A C26A 1_555 1_555
C27A C22A 1_555 1_555
H26A C27A 1_555 1_555
C28A C29A 1_555 1_555
C29A H27A 1_555 1_555
C30A C29A 1_555 1_555
H28A C30A 1_555 1_555
C31A C30A 1_555 1_555
H29A C31A 1_555 1_555
C32A C31A 1_555 1_555
H30A C32A 1_555 1_555
C33A C28A 1_555 1_555
C34A N1A 1_555 1_555
C35A C34A 1_555 1_555
H31A C35A 1_555 1_555
H32A C35A 1_555 1_555
C36A C35A 1_555 1_555
H33A C36A 1_555 1_555
H34A C36A 1_555 1_555
H35A C36A 1_555 1_555
C37A N2A 1_555 1_555
H36A C37A 1_555 1_555
H37A C37A 1_555 1_555
Ni1_2 O5 1_555 1_555
Ni1_3 N1 1_555 1_555
Ni1A_2 N1A 1_555 1_555
Ni1A_3 O5A 1_555 1_555
O5_2 Ni1 1_555 1_555
O5A_2 Ni1A 1_555 1_555
N1_2 Ni1 1_555 1_555
N1A_2 Ni1A 1_555 1_555
N2 C34 1_555 1_555
N4 C18 1_555 1_555
C6 C7 1_555 1_555
C16 C17 1_555 1_555
C25 C37 1_555 1_555
C26 C27 1_555 1_555
C32 C33 1_555 1_555
O2A Ni1A 1_555 1_555
C6A C7A 1_555 1_555
C10A C11A 1_555 1_555
N2A C34A 1_555 1_555
N4A C18A 1_555 1_555
C16A C17A 1_555 1_555
C25A C37A 1_555 1_555
C26A C27A 1_555 1_555
C32A C33A 1_555 1_555

#END
