
#######################################################################
#
#                 Cambridge Crystallographic Data Centre
#                                CCDC 
#
#######################################################################
#
# If this CIF has been generated from an entry in the Cambridge 
# Structural Database, then it will include bibliographic, chemical, 
# crystal, experimental, refinement or atomic coordinate data resulting 
# from the CCDC's data processing and validation procedures.
#
#######################################################################

data_JUMZIC
_symmetry_cell_setting           monoclinic
_symmetry_space_group_name_H-M   'P 21/c'
_symmetry_Int_Tables_number      14
_space_group_name_Hall           '-P 2ybc'
loop_
_symmetry_equiv_pos_site_id
_symmetry_equiv_pos_as_xyz
1 x,y,z
2 -x,1/2+y,1/2-z
3 -x,-y,-z
4 x,1/2-y,1/2+z
_cell_length_a                   8.0255(16)
_cell_length_b                   17.606(4)
_cell_length_c                   17.138(3)
_cell_angle_alpha                90
_cell_angle_beta                 103.29(3)
_cell_angle_gamma                90
_cell_volume                     2356.7
loop_
_atom_site_label
_atom_site_type_symbol
_atom_site_fract_x
_atom_site_fract_y
_atom_site_fract_z
O7 O 0.6130(4) 0.3073(2) 0.9320(2)
H19 H 0.5334 0.3071 0.9573
H20 H 0.6912 0.3409 0.9393
O8 O 0.8683(5) 0.4170(2) 0.9592(2)
H21 H 0.8468 0.4565 0.9833
H22 H 0.9306 0.4239 0.9266
Ni1 Ni 0.63516(5) 0.65020(3) 0.85955(3)
O1 O 0.6388(3) 0.69298(16) 0.98393(14)
O2 O 0.7917(3) 0.74047(16) 0.90377(14)
O3 O 0.8359(3) 0.57523(16) 0.91494(15)
H1 H 0.8789 0.5963 0.9597
H2 H 0.8926 0.5619 0.8810
O4 O 0.9312(4) 0.9203(2) 1.28401(19)
O5 O 0.7004(3) 0.84659(15) 1.25091(14)
O6 O 1.2782(5) 0.8739(3) 1.0897(3)
N1 N 0.4796(4) 0.55636(17) 0.83882(18)
N2 N -0.4266(3) 0.22142(17) 0.68188(18)
C1 C 0.7529(4) 0.7396(2) 0.9712(2)
C2 C 0.8477(5) 0.7893(3) 1.0358(2)
C3 C 1.0061(6) 0.8156(4) 1.0273(3)
H3 H 1.0450 0.8038 0.9816
C4 C 1.1043(7) 0.8591(4) 1.0871(3)
C5 C 1.0454(7) 0.8795(4) 1.1532(3)
H4 H 1.1117 0.9107 1.1921
C6 C 0.8868(5) 0.8538(3) 1.1624(2)
C7 C 0.7921(4) 0.8063(2) 1.1040(2)
H5 H 0.6899 0.7857 1.1111
C8 C 0.8367(5) 0.8757(2) 1.2381(2)
C9 C 1.3210(7) 0.8847(4) 1.0116(4)
H6 H 1.3957 0.8544 0.9910
C10 C 0.4102(5) 0.5280(3) 0.8971(3)
H7 H 0.4369 0.5508 0.9473
C11 C 0.3007(6) 0.4662(3) 0.8850(3)
H8 H 0.2556 0.4480 0.9267
C12 C 0.2589(5) 0.4320(2) 0.8113(3)
C13 C 0.3322(5) 0.4612(3) 0.7524(3)
H9 H 0.3083 0.4390 0.7018
C14 C 0.4402(5) 0.5228(2) 0.7676(3)
H10 H 0.4872 0.5415 0.7266
C15 C 0.1327(6) 0.3676(3) 0.7950(4)
H11 H 0.1110 0.3496 0.8452
H12 H 0.1812 0.3259 0.7705
C16 C -0.0337(6) 0.3917(3) 0.7403(4)
H13 H -0.0798 0.4342 0.7646
H14 H -0.0109 0.4094 0.6901
C17 C -0.1659(5) 0.3304(2) 0.7225(3)
C18 C -0.3150(6) 0.3356(3) 0.7485(3)
H15 H -0.3313 0.3763 0.7805
C19 C -0.4406(5) 0.2813(3) 0.7278(3)
H16 H -0.5399 0.2865 0.7466
C20 C -0.2787(4) 0.2145(2) 0.6586(2)
H17 H -0.2633 0.1723 0.6284
C21 C -0.1494(5) 0.2669(3) 0.6773(3)
H18 H -0.0496 0.2596 0.6594
C22 C 1.4597(11) 0.9519(6) 1.0263(6)
C23 C 1.4561(13) 1.0422(7) 1.0479(6)
O1B O 2.3612(3) 1.30702(16) 1.01607(14)
O2B O 2.2083(3) 1.25953(16) 1.09623(14)
O4B O 2.0688(4) 1.0797(2) 0.71599(19)
O5B O 2.2996(3) 1.15341(15) 0.74909(14)
O6B O 1.7218(5) 1.1261(3) 0.9103(3)
C1B C 2.2471(4) 1.2604(2) 1.0288(2)
C2B C 2.1523(5) 1.2107(3) 0.9642(2)
C3B C 1.9939(6) 1.1844(4) 0.9727(3)
H3B H 1.9550 1.1962 1.0184
C4B C 1.8957(7) 1.1409(4) 0.9129(3)
C5B C 1.9546(7) 1.1205(4) 0.8468(3)
H4B H 1.8883 1.0893 0.8079
C6B C 2.1132(5) 1.1462(3) 0.8376(2)
C7B C 2.2079(4) 1.1937(2) 0.8960(2)
H5B H 2.3101 1.2143 0.8889
C8B C 2.1633(5) 1.1243(2) 0.7619(2)
C9B C 1.6790(7) 1.1153(4) 0.9884(4)
H6B H 1.6043 1.1456 1.0090
C22B C 1.5403(11) 1.0481(6) 0.9737(6)
C23B C 1.5439(13) 0.9578(7) 0.9521(6)
Ni1B Ni 2.36484(5) 1.34980(3) 1.14045(3)
O3B O 2.1641(3) 1.42477(16) 1.08506(15)
H1B H 2.1211 1.4037 1.0403
H2B H 2.1074 1.4381 1.1190
N1B N 2.5204(4) 1.44364(17) 1.16118(18)
N2B N 3.4266(3) 1.77858(17) 1.31812(18)
C10B C 2.5898(5) 1.4720(3) 1.1029(3)
H7B H 2.5631 1.4492 1.0527
C11B C 2.6993(6) 1.5338(3) 1.1150(3)
H8B H 2.7444 1.5520 1.0733
C12B C 2.7411(5) 1.5680(2) 1.1887(3)
C13B C 2.6678(5) 1.5388(3) 1.2476(3)
H9B H 2.6917 1.5610 1.2982
C14B C 2.5598(5) 1.4772(2) 1.2324(3)
H10B H 2.5128 1.4585 1.2734
C15B C 2.8673(6) 1.6324(3) 1.2050(4)
H11B H 2.8890 1.6504 1.1548
H12B H 2.8188 1.6741 1.2295
C16B C 3.0337(6) 1.6083(3) 1.2597(4)
H13B H 3.0798 1.5658 1.2354
H14B H 3.0109 1.5906 1.3099
C17B C 3.1659(5) 1.6696(2) 1.2775(3)
C18B C 3.3150(6) 1.6644(3) 1.2515(3)
H15B H 3.3313 1.6237 1.2195
C19B C 3.4406(5) 1.7187(3) 1.2722(3)
H16B H 3.5399 1.7135 1.2534
C20B C 3.2787(4) 1.7855(2) 1.3414(2)
H17B H 3.2633 1.8277 1.3716
C21B C 3.1494(5) 1.7331(3) 1.3227(3)
H18B H 3.0496 1.7404 1.3406
Ni1A Ni -0.63516(5) 0.15020(3) 0.64045(3)
Ni1A_2 Ni 2.36484(5) 1.15020(3) 0.64045(3)
Ni1C Ni 0.63516(5) 0.84980(3) 1.35955(3)
Ni1C_2 Ni 3.63516(5) 1.84980(3) 1.35955(3)
O5A O 2.2996(3) 1.34659(15) 1.24909(14)
O5C O 0.7004(3) 0.65341(15) 0.75091(14)
N2A N 0.4266(3) 0.72142(17) 0.81812(18)
N2C N 2.5734(3) 1.27858(17) 1.18188(18)
C24? C 1.2675(12) 1.0164(6) 1.0190(6)
C25? C 1.2433(10) 0.9394(6) 0.9781(5)
loop_
_geom_bond_atom_site_label_1
_geom_bond_atom_site_label_2
_geom_bond_site_symmetry_1
_geom_bond_site_symmetry_2
Ni1 O1 1_555 1_555
O1 C1 1_555 1_555
O2 Ni1 1_555 1_555
O3 Ni1 1_555 1_555
H1 O3 1_555 1_555
H2 O3 1_555 1_555
O4 C8 1_555 1_555
O5 C8 1_555 1_555
O6 C4 1_555 1_555
N1 Ni1 1_555 1_555
N2 C19 1_555 1_555
C1 O2 1_555 1_555
C2 C1 1_555 1_555
C3 C2 1_555 1_555
H3 C3 1_555 1_555
C4 C3 1_555 1_555
C5 C4 1_555 1_555
H4 C5 1_555 1_555
C6 C5 1_555 1_555
C7 C2 1_555 1_555
H5 C7 1_555 1_555
C8 C6 1_555 1_555
C9 O6 1_555 1_555
H6 C9 1_555 1_555
C10 N1 1_555 1_555
H7 C10 1_555 1_555
C11 C10 1_555 1_555
H8 C11 1_555 1_555
C12 C11 1_555 1_555
C13 C12 1_555 1_555
H9 C13 1_555 1_555
C14 N1 1_555 1_555
H10 C14 1_555 1_555
C15 C12 1_555 1_555
H11 C15 1_555 1_555
H12 C15 1_555 1_555
C16 C15 1_555 1_555
H13 C16 1_555 1_555
H14 C16 1_555 1_555
C17 C16 1_555 1_555
C18 C17 1_555 1_555
H15 C18 1_555 1_555
C19 C18 1_555 1_555
H16 C19 1_555 1_555
C20 N2 1_555 1_555
H17 C20 1_555 1_555
C21 C17 1_555 1_555
H18 C21 1_555 1_555
C22 C9 1_555 1_555
C23 C22 1_555 1_555
O7 H19 1_555 1_555
H20 O7 1_555 1_555
O8 H21 1_555 1_555
H22 O8 1_555 1_555
O1B C1B 1_555 1_555
O2B C1B 1_555 1_555
O4B C8B 1_555 1_555
O5B C8B 1_555 1_555
O6B C4B 1_555 1_555
C1B C2B 1_555 1_555
C2B C3B 1_555 1_555
C3B H3B 1_555 1_555
C4B C3B 1_555 1_555
C5B C4B 1_555 1_555
H4B C5B 1_555 1_555
C6B C5B 1_555 1_555
C7B C2B 1_555 1_555
H5B C7B 1_555 1_555
C8B C6B 1_555 1_555
C9B O6B 1_555 1_555
H6B C9B 1_555 1_555
C22B C23 1_555 1_555
C23B C22 1_555 1_555
Ni1B O1B 1_555 1_555
O3B Ni1B 1_555 1_555
H1B O3B 1_555 1_555
H2B O3B 1_555 1_555
N1B Ni1B 1_555 1_555
N2B C19B 1_555 1_555
C10B N1B 1_555 1_555
H7B C10B 1_555 1_555
C11B C10B 1_555 1_555
H8B C11B 1_555 1_555
C12B C11B 1_555 1_555
C13B C12B 1_555 1_555
H9B C13B 1_555 1_555
C14B N1B 1_555 1_555
H10B C14B 1_555 1_555
C15B C12B 1_555 1_555
H11B C15B 1_555 1_555
H12B C15B 1_555 1_555
C16B C15B 1_555 1_555
H13B C16B 1_555 1_555
H14B C16B 1_555 1_555
C17B C16B 1_555 1_555
C18B C17B 1_555 1_555
H15B C18B 1_555 1_555
C19B C18B 1_555 1_555
H16B C19B 1_555 1_555
C20B N2B 1_555 1_555
H17B C20B 1_555 1_555
C21B C17B 1_555 1_555
H18B C21B 1_555 1_555
Ni1A N2 1_555 1_555
Ni1A_2 O5B 1_555 1_555
Ni1C O5 1_555 1_555
Ni1C_2 N2B 1_555 1_555
O5A Ni1B 1_555 1_555
O5C Ni1 1_555 1_555
N2A Ni1 1_555 1_555
N2C Ni1B 1_555 1_555
C6 C7 1_555 1_555
C13 C14 1_555 1_555
C20 C21 1_555 1_555
O2B Ni1B 1_555 1_555
C6B C7B 1_555 1_555
C9B C22B 1_555 1_555
C22B C23B 1_555 1_555
C13B C14B 1_555 1_555
C20B C21B 1_555 1_555

#END
