
#######################################################################
#
#                 Cambridge Crystallographic Data Centre
#                                CCDC 
#
#######################################################################
#
# If this CIF has been generated from an entry in the Cambridge 
# Structural Database, then it will include bibliographic, chemical, 
# crystal, experimental, refinement or atomic coordinate data resulting 
# from the CCDC's data processing and validation procedures.
#
#######################################################################

data_JUNDUT
_symmetry_cell_setting           monoclinic
_symmetry_space_group_name_H-M   'P 21/c'
_symmetry_Int_Tables_number      14
_space_group_name_Hall           '-P 2ybc'
loop_
_symmetry_equiv_pos_site_id
_symmetry_equiv_pos_as_xyz
1 x,y,z
2 -x,1/2+y,1/2-z
3 -x,-y,-z
4 x,1/2-y,1/2+z
_cell_length_a                   14.450(2)
_cell_length_b                   9.2033(12)
_cell_length_c                   6.7339(5)
_cell_angle_alpha                90
_cell_angle_beta                 92.836(8)
_cell_angle_gamma                90
_cell_volume                     894.429
loop_
_atom_site_label
_atom_site_type_symbol
_atom_site_fract_x
_atom_site_fract_y
_atom_site_fract_z
Fe1 Fe 0.23220(5) 0.66310(8) 0.18908(12)
Cl1 Cl 0.14991(9) 0.86692(14) 0.0350(2)
Cl2 Cl 0.33389(9) 0.68076(15) -0.10377(19)
N1 N 0.1240(3) 0.4861(5) 0.0968(6)
N2 N 0.0202(3) 0.3127(5) 0.0837(7)
H1 H -0.0323 0.2698 0.0639
N3 N 0.0980(3) 0.2476(5) 0.1591(7)
N4 N 0.3034(3) 0.4618(5) 0.2590(6)
C1 C 0.0356(3) 0.4525(6) 0.0440(7)
C2 C 0.1581(3) 0.3561(6) 0.1657(7)
C3 C 0.2556(3) 0.3372(6) 0.2355(7)
C4 C 0.2951(4) 0.2009(6) 0.2670(8)
H2 H 0.2596 0.1169 0.2521
C5 C 0.3884(4) 0.1936(6) 0.3212(8)
H3 H 0.4168 0.1041 0.3438
C6 C 0.4393(4) 0.3209(6) 0.3415(8)
H4 H 0.5024 0.3177 0.3752
C7 C 0.3951(4) 0.4518(6) 0.3110(8)
H5 H 0.4294 0.5369 0.3267
N1B N -0.1240(3) 0.5139(5) -0.0968(6)
N2B N -0.0202(3) 0.6873(5) -0.0837(7)
H1B H 0.0323 0.7302 -0.0639
N3B N -0.0980(3) 0.7524(5) -0.1591(7)
N4B N -0.3034(3) 0.5382(5) -0.2590(6)
C1B C -0.0356(3) 0.5475(6) -0.0440(7)
C2B C -0.1581(3) 0.6439(6) -0.1657(7)
C3B C -0.2556(3) 0.6628(6) -0.2355(7)
C4B C -0.2951(4) 0.7991(6) -0.2670(8)
H2B H -0.2596 0.8831 -0.2521
C5B C -0.3884(4) 0.8064(6) -0.3212(8)
H3B H -0.4168 0.8959 -0.3438
C6B C -0.4393(4) 0.6791(6) -0.3415(8)
H4B H -0.5024 0.6823 -0.3752
C7B C -0.3951(4) 0.5482(6) -0.3110(8)
H5B H -0.4294 0.4631 -0.3267
Fe1B Fe -0.23220(5) 0.33690(8) -0.18908(12)
Cl1B Cl -0.14991(9) 0.13308(14) -0.0350(2)
Cl2B Cl -0.33389(9) 0.31924(15) 0.10377(19)
Fe1A Fe -0.23220(5) 0.16310(8) 0.31092(12)
Fe1C Fe 0.23220(5) 0.83690(8) -0.31092(12)
Cl1A Cl -0.14991(9) 0.36692(14) -0.5350(2)
Cl1C Cl 0.14991(9) 0.63308(14) 0.5350(2)
Cl2A Cl -0.33389(9) 0.18076(15) -0.39623(19)
Cl2C Cl 0.33389(9) 0.81924(15) 0.39623(19)
loop_
_geom_bond_atom_site_label_1
_geom_bond_atom_site_label_2
_geom_bond_site_symmetry_1
_geom_bond_site_symmetry_2
Fe1 Cl1 1_555 1_555
Cl1 Fe1C 1_555 1_555
Cl2 Fe1 1_555 1_555
N1 Fe1 1_555 1_555
N2 H1 1_555 1_555
N3 N2 1_555 1_555
N4 Fe1 1_555 1_555
C1 N1 1_555 1_555
C2 N1 1_555 1_555
C3 N4 1_555 1_555
C4 C3 1_555 1_555
H2 C4 1_555 1_555
C5 C4 1_555 1_555
H3 C5 1_555 1_555
C6 C5 1_555 1_555
H4 C6 1_555 1_555
C7 N4 1_555 1_555
H5 C7 1_555 1_555
N1B C1B 1_555 1_555
N2B H1B 1_555 1_555
N3B N2B 1_555 1_555
N4B C3B 1_555 1_555
C1B C1 1_555 1_555
C2B N1B 1_555 1_555
C3B C2B 1_555 1_555
C4B C3B 1_555 1_555
H2B C4B 1_555 1_555
C5B C4B 1_555 1_555
H3B C5B 1_555 1_555
C6B C5B 1_555 1_555
H4B C6B 1_555 1_555
C7B N4B 1_555 1_555
H5B C7B 1_555 1_555
Fe1B N1B 1_555 1_555
Cl1B Fe1B 1_555 1_555
Cl2B Fe1B 1_555 1_555
Fe1A Cl1B 1_555 1_555
Fe1C Cl2 1_555 1_555
Cl1A Fe1B 1_555 1_555
Cl1C Fe1 1_555 1_555
Cl2A Fe1B 1_555 1_555
Cl2C Fe1 1_555 1_555
N2 C1 1_555 1_555
N3 C2 1_555 1_555
C2 C3 1_555 1_555
C6 C7 1_555 1_555
N2B C1B 1_555 1_555
N3B C2B 1_555 1_555
N4B Fe1B 1_555 1_555
C6B C7B 1_555 1_555
Cl2B Fe1A 1_555 1_555

#END
