
#######################################################################
#
#                 Cambridge Crystallographic Data Centre
#                                CCDC 
#
#######################################################################
#
# If this CIF has been generated from an entry in the Cambridge 
# Structural Database, then it will include bibliographic, chemical, 
# crystal, experimental, refinement or atomic coordinate data resulting 
# from the CCDC's data processing and validation procedures.
#
#######################################################################

data_JUNSAO04
_symmetry_cell_setting           tetragonal
_symmetry_space_group_name_H-M   'P 43'
_symmetry_Int_Tables_number      78
_space_group_name_Hall           'P 4cw'
loop_
_symmetry_equiv_pos_site_id
_symmetry_equiv_pos_as_xyz
1 x,y,z
2 -y,x,3/4+z
3 -x,-y,1/2+z
4 y,-x,1/4+z
_cell_length_a                   12.1871(3)
_cell_length_b                   12.1871(3)
_cell_length_c                   15.1107(4)
_cell_angle_alpha                90
_cell_angle_beta                 90
_cell_angle_gamma                90
_cell_volume                     2244.32
loop_
_atom_site_label
_atom_site_type_symbol
_atom_site_fract_x
_atom_site_fract_y
_atom_site_fract_z
Tb1 Tb 0.48058(3) 0.44836(3) 0.22364(3)
O1 O 0.6285(5) 0.5870(5) 0.2497(3)
O2 O 0.3809(6) 0.6148(6) 0.1903(4)
O3 O 0.4010(5) 0.5763(5) 0.3301(4)
O4 O 0.5952(5) 0.5337(5) 0.1151(4)
O5 O 0.6448(5) 0.3347(6) 0.2097(4)
O6 O 0.4235(5) 0.2515(5) 0.2351(4)
O7 O 0.2976(6) 0.3768(6) 0.2590(4)
C1 C 0.3513(8) 0.6394(8) 0.2737(5)
Zn1 Zn 0.32492(9) 0.70244(8) 0.09191(6)
H1 H 0.6334 0.2780 0.1740
H2 H 0.6657 0.3084 0.2618
O8 O 0.2896(5) 0.7157(5) 0.2904(4)
N1 N 0.1681(5) 0.6196(4) 0.0927(4)
N2 N 0.2103(4) 0.8260(4) 0.0756(3)
N3 N 0.4175(4) 0.8538(5) 0.0949(4)
C2 C 0.4008(8) 0.6524(8) -0.0846(6)
C3 C 0.0770(4) 0.6871(5) 0.0823(4)
C4 C 0.1542(4) 0.5092(5) 0.1129(4)
C5 C 0.0997(4) 0.7994(5) 0.0691(4)
C6 C 0.2440(4) 0.9342(4) 0.0653(4)
C7 C 0.3575(5) 0.9486(4) 0.0781(4)
C8 C 0.5290(5) 0.8607(5) 0.1132(5)
O9 O 0.3345(5) 0.7205(6) -0.1134(4)
C9 C -0.0280(5) 0.6441(4) 0.0922(5)
C10 C 0.0492(4) 0.4663(6) 0.1227(5)
H3 H 0.2151 0.4641 0.1198
C11 C 0.0228(5) 0.8810(4) 0.0524(4)
C12 C 0.1671(3) 1.0158(5) 0.0486(4)
C13 C 0.4091(4) 1.0503(6) 0.0798(6)
H4 H 0.5691 0.7973 0.1244
C14 C 0.5806(6) 0.9624(4) 0.1149(6)
H5 H -0.0889 0.6893 0.0852
C15 C -0.0418(6) 0.5337(5) 0.1123(5)
H6 H 0.0399 0.3924 0.1362
C16 C 0.0565(4) 0.9893(5) 0.0422(4)
H7 H -0.0513 0.8633 0.0481
H8 H 0.1896 1.0882 0.0418
C17 C 0.5207(5) 1.0572(6) 0.0982(6)
H9 H 0.3690 1.1137 0.0687
H10 H 0.6552 0.9670 0.1273
H11 H -0.1121 0.5050 0.1189
C18 C -0.0294(5) 1.0789(5) 0.0289(5)
H12 H 0.5552 1.1252 0.0994
C19 C -0.1390(4) 1.0492(5) 0.0206(5)
C20 C 0.0004(5) 1.1890(4) 0.0265(4)
H13 H -0.1589 0.9755 0.0222
C21 C -0.2189(5) 1.1295(4) 0.0099(5)
C22 C -0.0795(4) 1.2693(5) 0.0158(4)
H14 H 0.0737 1.2089 0.0320
C23 C -0.1892(5) 1.2396(5) 0.0076(4)
H15 H -0.2923 1.1096 0.0044
H16 H -0.0596 1.3430 0.0142
C24 C -0.2790(9) 1.3271(8) -0.0018(5)
O3A O 0.4237(5) 0.4010(5) 0.0801(4)
O4C O 0.5337(5) 0.4048(5) 0.3651(4)
Tb1C Tb 0.44836(3) 0.51942(3) 0.47364(3)
Tb1A Tb 0.55164(3) 0.48058(3) -0.02636(3)
O1A O 0.4130(5) 0.6285(5) -0.0003(3)
O4A O 0.4663(5) 0.5952(5) -0.1349(4)
Tb1B Tb 0.51942(3) 0.55164(3) -0.27636(3)
O6A O -0.2515(5) 1.4235(5) -0.0149(4)
O7A O -0.3768(6) 1.2976(6) 0.0090(4)
Tb1A_2 Tb -0.44836(3) 1.48058(3) -0.02636(3)
loop_
_geom_bond_atom_site_label_1
_geom_bond_atom_site_label_2
_geom_bond_site_symmetry_1
_geom_bond_site_symmetry_2
Tb1 O1 1_555 1_555
O2 Tb1 1_555 1_555
O3 Tb1 1_555 1_555
O4 Tb1 1_555 1_555
O5 Tb1 1_555 1_555
O6 Tb1 1_555 1_555
O7 Tb1 1_555 1_555
C1 O2 1_555 1_555
Zn1 O2 1_555 1_555
H1 O5 1_555 1_555
H2 O5 1_555 1_555
O8 C1 1_555 1_555
N1 Zn1 1_555 1_555
N2 Zn1 1_555 1_555
N3 Zn1 1_555 1_555
C2 O9 1_555 1_555
C3 N1 1_555 1_555
C4 N1 1_555 1_555
C5 N2 1_555 1_555
C6 N2 1_555 1_555
C7 N3 1_555 1_555
C8 N3 1_555 1_555
C9 C3 1_555 1_555
C10 C4 1_555 1_555
H3 C4 1_555 1_555
C11 C5 1_555 1_555
C12 C6 1_555 1_555
C13 C7 1_555 1_555
H4 C8 1_555 1_555
C14 C8 1_555 1_555
H5 C9 1_555 1_555
C15 C9 1_555 1_555
H6 C10 1_555 1_555
C16 C11 1_555 1_555
H7 C11 1_555 1_555
H8 C12 1_555 1_555
C17 C13 1_555 1_555
H9 C13 1_555 1_555
H10 C14 1_555 1_555
H11 C15 1_555 1_555
C18 C16 1_555 1_555
H12 C17 1_555 1_555
C19 C18 1_555 1_555
C20 C18 1_555 1_555
H13 C19 1_555 1_555
C21 C19 1_555 1_555
C22 C20 1_555 1_555
H14 C20 1_555 1_555
C23 C21 1_555 1_555
H15 C21 1_555 1_555
H16 C22 1_555 1_555
C24 C23 1_555 1_555
O3A Tb1 1_555 1_555
O4C Tb1 1_555 1_555
Tb1C O3 1_555 1_555
Tb1A O4 1_555 1_555
O1A Zn1 1_555 1_555
O4A C2 1_555 1_555
Tb1B O4A 1_555 1_555
O6A C24 1_555 1_555
O7A C24 1_555 1_555
Tb1A_2 O6A 1_555 1_555
O3 C1 1_555 1_555
C2 O1A 1_555 1_555
C3 C5 1_555 1_555
C6 C7 1_555 1_555
C10 C15 1_555 1_555
C12 C16 1_555 1_555
C14 C17 1_555 1_555
C22 C23 1_555 1_555
O3A Tb1A 1_555 1_555
O4C Tb1C 1_555 1_555
Tb1A O1A 1_555 1_555
Tb1A O4A 1_555 1_555
O7A Tb1A_2 1_555 1_555

#END
