
#######################################################################
#
#                 Cambridge Crystallographic Data Centre
#                                CCDC 
#
#######################################################################
#
# If this CIF has been generated from an entry in the Cambridge 
# Structural Database, then it will include bibliographic, chemical, 
# crystal, experimental, refinement or atomic coordinate data resulting 
# from the CCDC's data processing and validation procedures.
#
#######################################################################

data_JUNSAO01
_symmetry_cell_setting           tetragonal
_symmetry_space_group_name_H-M   'P 43'
_symmetry_Int_Tables_number      78
_space_group_name_Hall           'P 4cw'
loop_
_symmetry_equiv_pos_site_id
_symmetry_equiv_pos_as_xyz
1 x,y,z
2 -y,x,3/4+z
3 -x,-y,1/2+z
4 y,-x,1/4+z
_cell_length_a                   12.1724(5)
_cell_length_b                   12.1724(5)
_cell_length_c                   15.0581(6)
_cell_angle_alpha                90
_cell_angle_beta                 90
_cell_angle_gamma                90
_cell_volume                     2231.12
loop_
_atom_site_label
_atom_site_type_symbol
_atom_site_fract_x
_atom_site_fract_y
_atom_site_fract_z
Tb1 Tb 0.05034(3) 0.01967(3) 0.37593(3)
Zn1 Zn -0.20236(8) 0.17598(9) 0.50801(6)
O1 O -0.1142(5) 0.1201(5) 0.4092(4)
O2 O -0.0751(5) 0.0982(5) 0.2691(4)
O3 O -0.1280(5) 0.0891(5) 0.6003(3)
O4 O -0.0933(5) 0.0354(4) 0.7350(4)
O5 O -0.9250(5) 0.7526(5) 0.6154(4)
O6 O 0.1629(5) -0.1454(6) 0.3913(4)
H1 H 0.215(8) -0.101(8) 0.424(6)
H2 H 0.201(7) -0.148(9) 0.343(4)
O7 O -0.7988(5) 0.8772(5) 0.5895(4)
O8 O -0.2165(5) 0.2095(5) 0.3085(4)
C1 C -0.1510(7) 0.0988(8) 0.6845(6)
O9 O -0.2201(5) 0.1657(5) 0.7143(4)
N1 N -0.1201(4) 0.3328(4) 0.5072(4)
C2 C -0.1876(4) 0.4242(5) 0.5170(5)
C3 C -0.1443(5) 0.5291(4) 0.5072(6)
H3 H -0.1895 0.5902 0.5138
C4 C -0.0336(5) 0.5428(4) 0.4876(6)
H4 H -0.0046 0.6130 0.4810
C5 C 0.0339(4) 0.4515(5) 0.4778(6)
H5 H 0.1080 0.4606 0.4647
C6 C -0.0094(4) 0.3465(4) 0.4876(5)
H6 H 0.0358 0.2854 0.4811
C7 C -0.1401(9) 0.1476(8) 0.3250(6)
C8 C -0.7395(4) 0.6910(4) 0.5913(5)
C9 C -0.6292(5) 0.7204(4) 0.5889(5)
H7 H -0.6090 0.7938 0.5944
C10 C -0.5491(4) 0.6401(5) 0.5783(5)
H8 H -0.4753 0.6598 0.5767
C11 C -0.5792(5) 0.5305(4) 0.5701(5)
C12 C -0.6895(5) 0.5011(4) 0.5725(5)
H9 H -0.7097 0.4277 0.5670
C13 C -0.7697(4) 0.5814(5) 0.5831(5)
H10 H -0.8435 0.5617 0.5847
N2 N -0.3261(4) 0.2902(4) 0.5248(3)
C14 C -0.4346(4) 0.2567(3) 0.5347(4)
C15 C -0.5164(3) 0.3339(5) 0.5507(4)
H11 H -0.5889 0.3114 0.5573
C16 C -0.4897(4) 0.4446(4) 0.5569(4)
C17 C -0.3812(5) 0.4782(3) 0.5470(4)
H12 H -0.3634 0.5523 0.5512
C18 C -0.2995(3) 0.4010(4) 0.5310(3)
C19 C -0.3610(4) -0.0286(5) 0.4874(5)
H13 H -0.2973 -0.0688 0.4775
C20 C -0.4628(5) -0.0803(4) 0.4843(6)
H14 H -0.4670 -0.1552 0.4723
C21 C -0.5581(4) -0.0202(5) 0.4992(7)
H15 H -0.6262 -0.0549 0.4971
C22 C -0.5517(4) 0.0916(5) 0.5172(6)
H16 H -0.6155 0.1318 0.5271
C23 C -0.4500(5) 0.1433(4) 0.5203(5)
N3 N -0.3547(4) 0.0832(5) 0.5054(4)
C24 C -0.8268(8) 0.7793(8) 0.6000(5)
Tb1A Tb -0.01967(3) 0.05034(3) 0.12593(3)
Tb1B Tb -0.05034(3) -0.01967(3) 0.87593(3)
Tb1C Tb -0.98033(3) 0.94966(3) 0.62593(3)
Tb1C_2 Tb 0.01967(3) -0.05034(3) 0.62593(3)
O2C O 0.0982(5) 0.0751(5) 0.5191(4)
O3A O -0.0891(5) -0.1280(5) 0.3503(3)
O4A O -0.0354(4) -0.0933(5) 0.4850(4)
O4B O 0.0933(5) -0.0354(4) 0.2350(4)
O5A O 0.2474(5) 0.0750(5) 0.3654(4)
O7A O 0.1228(5) 0.2012(5) 0.3395(4)
loop_
_geom_bond_atom_site_label_1
_geom_bond_atom_site_label_2
_geom_bond_site_symmetry_1
_geom_bond_site_symmetry_2
Tb1 O1 1_555 1_555
Zn1 O1 1_555 1_555
O1 C7 1_555 1_555
O2 Tb1 1_555 1_555
O3 Zn1 1_555 1_555
O4 C1 1_555 1_555
O5 C24 1_555 1_555
O6 Tb1 1_555 1_555
H1 O6 1_555 1_555
H2 O6 1_555 1_555
O7 C24 1_555 1_555
O8 C7 1_555 1_555
C1 O3 1_555 1_555
O9 C1 1_555 1_555
N1 Zn1 1_555 1_555
C2 N1 1_555 1_555
C3 C2 1_555 1_555
H3 C3 1_555 1_555
C4 C3 1_555 1_555
H4 C4 1_555 1_555
C5 C4 1_555 1_555
H5 C5 1_555 1_555
C6 N1 1_555 1_555
H6 C6 1_555 1_555
C7 O2 1_555 1_555
C8 C9 1_555 1_555
C9 H7 1_555 1_555
C10 C9 1_555 1_555
H8 C10 1_555 1_555
C11 C10 1_555 1_555
C12 C11 1_555 1_555
H9 C12 1_555 1_555
C13 C8 1_555 1_555
H10 C13 1_555 1_555
N2 Zn1 1_555 1_555
C14 N2 1_555 1_555
C15 C14 1_555 1_555
H11 C15 1_555 1_555
C16 C11 1_555 1_555
C17 C16 1_555 1_555
H12 C17 1_555 1_555
C18 C2 1_555 1_555
C19 H13 1_555 1_555
C20 C19 1_555 1_555
H14 C20 1_555 1_555
C21 C20 1_555 1_555
H15 C21 1_555 1_555
C22 C21 1_555 1_555
H16 C22 1_555 1_555
C23 C14 1_555 1_555
N3 Zn1 1_555 1_555
C24 C8 1_555 1_555
Tb1A O2 1_555 1_555
Tb1B O4 1_555 1_555
Tb1C O5 1_555 1_555
Tb1C_2 O3 1_555 1_555
O2C Tb1 1_555 1_555
O3A Tb1 1_555 1_555
O4A Tb1 1_555 1_555
O4B Tb1 1_555 1_555
O5A Tb1 1_555 1_555
O7A Tb1 1_555 1_555
O4 Tb1C_2 1_555 1_555
O7 Tb1C 1_555 1_555
C5 C6 1_555 1_555
C12 C13 1_555 1_555
N2 C18 1_555 1_555
C15 C16 1_555 1_555
C17 C18 1_555 1_555
C19 N3 1_555 1_555
C22 C23 1_555 1_555
C23 N3 1_555 1_555
Tb1A O4B 1_555 1_555
Tb1C_2 O2C 1_555 1_555
Tb1C_2 O4A 1_555 1_555

#END
