
#######################################################################
#
#                 Cambridge Crystallographic Data Centre
#                                CCDC 
#
#######################################################################
#
# If this CIF has been generated from an entry in the Cambridge 
# Structural Database, then it will include bibliographic, chemical, 
# crystal, experimental, refinement or atomic coordinate data resulting 
# from the CCDC's data processing and validation procedures.
#
#######################################################################

data_JUNSIW01
_symmetry_cell_setting           tetragonal
_symmetry_space_group_name_H-M   'P 41'
_symmetry_Int_Tables_number      76
_space_group_name_Hall           'P 4w'
loop_
_symmetry_equiv_pos_site_id
_symmetry_equiv_pos_as_xyz
1 x,y,z
2 -y,x,1/4+z
3 -x,-y,1/2+z
4 y,-x,3/4+z
_cell_length_a                   12.1807(3)
_cell_length_b                   12.1807(3)
_cell_length_c                   15.0545(4)
_cell_angle_alpha                90
_cell_angle_beta                 90
_cell_angle_gamma                90
_cell_volume                     2233.63
loop_
_atom_site_label
_atom_site_type_symbol
_atom_site_fract_x
_atom_site_fract_y
_atom_site_fract_z
Tb1 Tb 0.48034(3) 0.55031(3) 0.25862(3)
O1 O 0.6438(5) 0.6648(5) 0.2447(4)
O2 O 0.4025(4) 0.4252(4) 0.3659(3)
O3 O 0.5357(4) 0.5942(5) 0.3998(3)
O4 O 0.3810(5) 0.3865(5) 0.2250(3)
O5 O 0.4248(4) 0.7464(4) 0.2691(4)
O6 O 0.2990(5) 0.6220(5) 0.2947(4)
O7 O 0.6280(5) 0.4119(5) 0.2843(3)
H1 H 0.6302 0.7178 0.2088
H2 H 0.6971 0.6265 0.2240
C1 C 0.6497(7) 0.4001(7) 0.1992(5)
Zn1 Zn 0.70241(8) 0.32409(8) 0.37658(6)
O8 O 0.7198(5) 0.3334(5) 0.1700(3)
N1 N 0.8267(4) 0.2092(4) 0.3594(3)
N2 N 0.6202(3) 0.1666(4) 0.3762(4)
N3 N 0.8540(4) 0.4166(4) 0.3794(4)
C2 C 0.6407(7) 0.3519(7) 0.5573(5)
C3 C 0.7999(4) 0.0985(3) 0.3532(3)
C4 C 0.9352(3) 0.2426(4) 0.3498(3)
C5 C 0.6878(4) 0.0753(3) 0.3675(4)
C6 C 0.5094(4) 0.1531(4) 0.3957(4)
C7 C 0.9491(3) 0.3566(5) 0.3639(4)
C8 C 0.8606(4) 0.5283(4) 0.3975(5)
O9 O 0.7165(5) 0.2902(5) 0.5762(3)
C9 C 0.8816(3) 0.0213(4) 0.3374(4)
C10 C 1.0168(4) 0.1653(3) 0.3340(4)
C11 C 0.6447(4) -0.0295(5) 0.3782(5)
C12 C 0.4663(5) 0.0482(4) 0.4064(5)
H3 H 0.4642 0.2141 0.4015
C13 C 1.0509(5) 0.4082(4) 0.3666(5)
C14 C 0.9623(4) 0.5800(5) 0.4001(5)
H4 H 0.7969 0.5685 0.4078
C15 C 0.9901(4) 0.0547(4) 0.3279(4)
H5 H 0.8637 -0.0528 0.3333
H6 H 1.0894 0.1877 0.3276
C16 C 0.5340(4) -0.0430(5) 0.3977(6)
H7 H 0.6899 -0.0906 0.3724
H8 H 0.3922 0.0392 0.4194
C17 C 1.0574(5) 0.5199(4) 0.3847(6)
H9 H 1.1145 0.3680 0.3562
H10 H 0.9667 0.6547 0.4122
C18 C 1.0795(4) -0.0300(4) 0.3140(4)
H11 H 0.5051 -0.1132 0.4048
H12 H 1.1255 0.5545 0.3864
C19 C 1.1897(3) -0.0007(5) 0.3113(4)
C20 C 1.0492(5) -0.1396(4) 0.3062(5)
H13 H 1.2099 0.0726 0.3165
C21 C 1.2697(5) -0.0811(4) 0.3008(4)
C22 C 1.1292(4) -0.2200(5) 0.2957(5)
H14 H 0.9755 -0.1592 0.3080
C23 C 1.2395(4) -0.1907(4) 0.2931(4)
H15 H 1.3435 -0.0615 0.2991
H16 H 1.1090 -0.2933 0.2905
C24 C 1.3276(7) -0.2786(7) 0.2846(5)
O2C O 0.4252(4) 0.5975(4) 0.1159(3)
O3C O 0.5942(5) 0.4643(4) 0.1498(3)
Tb1A Tb 0.44969(3) 0.48034(3) 0.50862(3)
Tb1C Tb 0.55031(3) 0.51966(3) 0.00862(3)
O2A O 0.5748(4) 0.4025(4) 0.6159(3)
O4A O 0.6135(5) 0.3810(5) 0.4750(3)
Tb1B Tb 0.51966(3) 0.44969(3) 0.75862(3)
O6_2 O 1.2990(5) -0.3780(5) 0.2947(4)
O5_2 O 1.4248(4) -0.2536(4) 0.2691(4)
Tb1_2 Tb 1.48034(3) -0.44969(3) 0.25862(3)
loop_
_geom_bond_atom_site_label_1
_geom_bond_atom_site_label_2
_geom_bond_site_symmetry_1
_geom_bond_site_symmetry_2
Tb1 O1 1_555 1_555
O1 H1 1_555 1_555
O2 Tb1 1_555 1_555
O3 Tb1 1_555 1_555
O4 Tb1 1_555 1_555
O5 Tb1 1_555 1_555
O6 Tb1 1_555 1_555
O7 Tb1 1_555 1_555
H2 O1 1_555 1_555
C1 O7 1_555 1_555
Zn1 O7 1_555 1_555
O8 C1 1_555 1_555
N1 Zn1 1_555 1_555
N2 Zn1 1_555 1_555
N3 Zn1 1_555 1_555
C2 O9 1_555 1_555
C3 N1 1_555 1_555
C4 N1 1_555 1_555
C5 N2 1_555 1_555
C6 N2 1_555 1_555
C7 N3 1_555 1_555
C8 N3 1_555 1_555
C9 C3 1_555 1_555
C10 C4 1_555 1_555
C11 C5 1_555 1_555
C12 C6 1_555 1_555
H3 C6 1_555 1_555
C13 C7 1_555 1_555
C14 C8 1_555 1_555
H4 C8 1_555 1_555
C15 C9 1_555 1_555
H5 C9 1_555 1_555
H6 C10 1_555 1_555
C16 C11 1_555 1_555
H7 C11 1_555 1_555
H8 C12 1_555 1_555
C17 C13 1_555 1_555
H9 C13 1_555 1_555
H10 C14 1_555 1_555
C18 C15 1_555 1_555
H11 C16 1_555 1_555
H12 C17 1_555 1_555
C19 C18 1_555 1_555
C20 C18 1_555 1_555
H13 C19 1_555 1_555
C21 C19 1_555 1_555
C22 C20 1_555 1_555
H14 C20 1_555 1_555
C23 C21 1_555 1_555
H15 C21 1_555 1_555
H16 C22 1_555 1_555
C24 C23 1_555 1_555
O2C Tb1 1_555 1_555
O3C Tb1 1_555 1_555
Tb1A O2 1_555 1_555
Tb1C O2C 1_555 1_555
O2A C2 1_555 1_555
O4A Zn1 1_555 1_555
Tb1B O2A 1_555 1_555
O6_2 C24 1_555 1_555
O5_2 C24 1_555 1_555
Tb1_2 O6_2 1_555 1_555
O3 Tb1A 1_555 1_555
C1 O3C 1_555 1_555
C2 O4A 1_555 1_555
C3 C5 1_555 1_555
C4 C7 1_555 1_555
C10 C15 1_555 1_555
C12 C16 1_555 1_555
C14 C17 1_555 1_555
C22 C23 1_555 1_555
O3C Tb1C 1_555 1_555
Tb1A O2A 1_555 1_555
Tb1A O4A 1_555 1_555
O5_2 Tb1_2 1_555 1_555

#END
