
#######################################################################
#
#                 Cambridge Crystallographic Data Centre
#                                CCDC 
#
#######################################################################
#
# If this CIF has been generated from an entry in the Cambridge 
# Structural Database, then it will include bibliographic, chemical, 
# crystal, experimental, refinement or atomic coordinate data resulting 
# from the CCDC's data processing and validation procedures.
#
#######################################################################

data_JUNSAO03
_symmetry_cell_setting           tetragonal
_symmetry_space_group_name_H-M   'P 43'
_symmetry_Int_Tables_number      78
_space_group_name_Hall           'P 4cw'
loop_
_symmetry_equiv_pos_site_id
_symmetry_equiv_pos_as_xyz
1 x,y,z
2 -y,x,3/4+z
3 -x,-y,1/2+z
4 y,-x,1/4+z
_cell_length_a                   12.1803(3)
_cell_length_b                   12.1803(3)
_cell_length_c                   15.0789(4)
_cell_angle_alpha                90
_cell_angle_beta                 90
_cell_angle_gamma                90
_cell_volume                     2237.1
loop_
_atom_site_label
_atom_site_type_symbol
_atom_site_fract_x
_atom_site_fract_y
_atom_site_fract_z
Zn1 Zn -0.17550(7) -0.79776(7) -0.60053(6)
O1 O -0.0885(4) -0.8719(4) -0.6931(3)
O2 O 0.1652(4) -0.8556(4) -0.7343(4)
H1 H 0.2148 -0.8658 -0.7745
H2 H 0.1975 -0.8413 -0.6845
Tb1 Tb 0.05065(2) -1.01895(3) -0.71889(3)
O3 O -0.7519(4) -0.0742(4) -0.7077(4)
O4 O -0.0982(4) -0.9254(4) -0.3616(3)
C1 C -0.0988(6) -0.8487(6) -0.7777(5)
O5 O -0.1196(4) -0.8868(4) -0.5019(3)
O6 O -0.8770(4) -0.2004(5) -0.6823(4)
O7 O -0.1673(4) -0.7800(4) -0.8063(3)
O8 O -0.2100(4) -0.7842(4) -0.4016(3)
O9 O -0.0351(4) -0.9052(4) -0.8279(3)
C2 C -0.1480(7) -0.8603(6) -0.4185(5)
C3 C -0.6903(4) -0.2598(4) -0.6850(4)
C4 C -0.5806(4) -0.2301(3) -0.6769(4)
H3 H -0.5607 -0.1564 -0.6787
C5 C -0.5007(3) -0.3104(4) -0.6661(4)
H4 H -0.4273 -0.2905 -0.6606
C6 C -0.5305(4) -0.4205(4) -0.6634(4)
C7 C -0.6402(4) -0.4503(3) -0.6715(5)
H5 H -0.6601 -0.5240 -0.6697
C8 C -0.7201(3) -0.3700(4) -0.6823(5)
H6 H -0.7935 -0.3899 -0.6877
C9 C -0.7783(6) -0.1736(7) -0.6928(5)
N1 N -0.2900(3) -0.6736(3) -0.6176(3)
C10 C -0.2562(3) -0.5653(4) -0.6275(3)
C11 C -0.3332(4) -0.4834(3) -0.6433(4)
H7 H -0.3107 -0.4109 -0.6500
C12 C -0.4440(3) -0.5098(3) -0.6492(4)
C13 C -0.4778(3) -0.6181(4) -0.6393(4)
H8 H -0.5519 -0.6358 -0.6432
C14 C -0.4008(3) -0.7000(3) -0.6235(3)
C15 C -0.3466(4) -0.9912(3) -0.5814(4)
H9 H -0.2858 -1.0367 -0.5751
N2 N -0.3325(3) -0.8802(4) -0.5995(4)
C16 C -0.4235(4) -0.8124(3) -0.6089(4)
C17 C -0.5286(3) -0.8555(4) -0.6002(5)
H10 H -0.5895 -0.8100 -0.6065
C18 C -0.5427(3) -0.9665(4) -0.5820(6)
H11 H -0.6131 -0.9953 -0.5762
C19 C -0.4518(4) -1.0343(3) -0.5726(5)
H12 H -0.4612 -1.1086 -0.5605
C20 C -0.1426(3) -0.5508(4) -0.6126(4)
C21 C -0.0909(4) -0.4491(3) -0.6112(5)
H13 H -0.1311 -0.3855 -0.6217
C22 C 0.0211(4) -0.4424(3) -0.5943(6)
H14 H 0.0558 -0.3744 -0.5934
C23 C 0.0813(3) -0.5374(4) -0.5787(5)
H15 H 0.1562 -0.5330 -0.5674
C24 C 0.0295(4) -0.6391(3) -0.5800(4)
H16 H 0.0698 -0.7027 -0.5696
N3 N -0.0824(4) -0.6458(3) -0.5970(4)
Tb1_2 Tb -0.94935(2) -0.01895(3) -0.71889(3)
Tb1A Tb 0.01895(3) -0.94935(2) -0.96889(3)
Tb1B Tb -0.05065(2) -0.98105(3) -0.21889(3)
Tb1C Tb -0.01895(3) -1.05065(2) -0.46889(3)
O3_2 O 0.2481(4) -1.0742(4) -0.7077(4)
O4A O -0.0746(4) -1.0982(4) -0.6116(3)
O4B O 0.0982(4) -1.0746(4) -0.8616(3)
O5A O -0.1132(4) -1.1196(4) -0.7519(3)
O6_2 O 0.1230(4) -1.2004(5) -0.6823(4)
O9C O 0.0948(4) -0.9649(4) -0.5779(3)
loop_
_geom_bond_atom_site_label_1
_geom_bond_atom_site_label_2
_geom_bond_site_symmetry_1
_geom_bond_site_symmetry_2
Zn1 O1 1_555 1_555
O1 Tb1 1_555 1_555
O2 H1 1_555 1_555
H2 O2 1_555 1_555
Tb1 O2 1_555 1_555
O3 C9 1_555 1_555
O4 C2 1_555 1_555
C1 O1 1_555 1_555
O5 Zn1 1_555 1_555
O6 C9 1_555 1_555
O7 C1 1_555 1_555
O8 C2 1_555 1_555
O9 Tb1 1_555 1_555
C2 O5 1_555 1_555
C3 C4 1_555 1_555
C4 H3 1_555 1_555
C5 C4 1_555 1_555
H4 C5 1_555 1_555
C6 C5 1_555 1_555
C7 C6 1_555 1_555
H5 C7 1_555 1_555
C8 C3 1_555 1_555
H6 C8 1_555 1_555
C9 C3 1_555 1_555
N1 Zn1 1_555 1_555
C10 N1 1_555 1_555
C11 C10 1_555 1_555
H7 C11 1_555 1_555
C12 C6 1_555 1_555
C13 C12 1_555 1_555
H8 C13 1_555 1_555
C14 N1 1_555 1_555
C15 H9 1_555 1_555
N2 Zn1 1_555 1_555
C16 C14 1_555 1_555
C17 C16 1_555 1_555
H10 C17 1_555 1_555
C18 C17 1_555 1_555
H11 C18 1_555 1_555
C19 C15 1_555 1_555
H12 C19 1_555 1_555
C20 C10 1_555 1_555
C21 C20 1_555 1_555
H13 C21 1_555 1_555
C22 C21 1_555 1_555
H14 C22 1_555 1_555
C23 C22 1_555 1_555
H15 C23 1_555 1_555
C24 C23 1_555 1_555
H16 C24 1_555 1_555
N3 Zn1 1_555 1_555
Tb1_2 O3 1_555 1_555
Tb1A O9 1_555 1_555
Tb1B O4 1_555 1_555
Tb1C O4 1_555 1_555
O3_2 Tb1 1_555 1_555
O4A Tb1 1_555 1_555
O4B Tb1 1_555 1_555
O5A Tb1 1_555 1_555
O6_2 Tb1 1_555 1_555
O9C Tb1 1_555 1_555
C1 O9 1_555 1_555
O5 Tb1C 1_555 1_555
O6 Tb1_2 1_555 1_555
C7 C8 1_555 1_555
C11 C12 1_555 1_555
C13 C14 1_555 1_555
C15 N2 1_555 1_555
N2 C16 1_555 1_555
C18 C19 1_555 1_555
C20 N3 1_555 1_555
C24 N3 1_555 1_555
Tb1A O4B 1_555 1_555
Tb1C O4A 1_555 1_555
Tb1C O9C 1_555 1_555

#END
