
#######################################################################
#
#                 Cambridge Crystallographic Data Centre
#                                CCDC 
#
#######################################################################
#
# If this CIF has been generated from an entry in the Cambridge 
# Structural Database, then it will include bibliographic, chemical, 
# crystal, experimental, refinement or atomic coordinate data resulting 
# from the CCDC's data processing and validation procedures.
#
#######################################################################

data_JUPBON
_symmetry_cell_setting           triclinic
_symmetry_space_group_name_H-M   'P -1'
_symmetry_Int_Tables_number      2
_space_group_name_Hall           '-P 1'
loop_
_symmetry_equiv_pos_site_id
_symmetry_equiv_pos_as_xyz
1 x,y,z
2 -x,-y,-z
_cell_length_a                   9.8876(7)
_cell_length_b                   10.2189(4)
_cell_length_c                   12.3454(6)
_cell_angle_alpha                95.853(4)
_cell_angle_beta                 112.751(6)
_cell_angle_gamma                110.950(5)
_cell_volume                     1031.64
loop_
_atom_site_label
_atom_site_type_symbol
_atom_site_fract_x
_atom_site_fract_y
_atom_site_fract_z
Eu1 Eu 0.32125(5) -0.42775(4) 0.46493(3)
O1 O 0.2059(8) -0.3151(7) 0.5730(6)
O2 O 0.3819(8) -0.1673(7) 0.5233(6)
O3 O 0.2649(8) 0.3859(7) 1.2981(6)
O4 O 0.4813(8) 0.3438(7) 1.3226(6)
O5 O 0.2200(8) 0.3787(7) 0.5450(6)
O6 O 0.4238(8) 0.3494(7) 0.5357(6)
O7 O 0.0235(8) -0.5469(8) 0.3452(6)
H1 H -0.0188 -0.5560 0.3938
H2 H -0.0068 -0.4946 0.3008
O8 O 0.2576(10) -0.3359(8) 0.2858(6)
H3 H 0.2605 -0.3892 0.2300
H4 H 0.1631 -0.3390 0.2605
N1 N 0.0969(9) 0.0993(8) 0.8859(6)
C1 C 0.2446(12) 0.1154(12) 0.9546(9)
H5 H 0.2929 0.0734 0.9198
C2 C 0.3304(13) 0.1921(12) 1.0762(9)
H6 H 0.4354 0.2031 1.1234
C3 C 0.2773(11) -0.1905(10) 0.5649(8)
C4 C 0.2545(10) 0.1726(9) 0.5972(7)
C5 C 0.1044(10) 0.0263(9) 0.6878(7)
C6 C 0.1563(10) 0.1508(9) 0.6540(7)
H7 H 0.1243 0.2228 0.6699
C7 C 0.3429(11) 0.3362(10) 1.2624(8)
C8 C 0.2978(11) 0.0626(9) 0.5709(7)
H8 H 0.3645 0.0758 0.5328
C9 C 0.3045(11) 0.3074(9) 0.5573(8)
C10 C 0.2547(11) 0.2525(10) 1.1261(8)
C11 C 0.1479(11) -0.0824(9) 0.6600(7)
H9 H 0.1120 -0.1681 0.6818
C12 C 0.2428(10) -0.0663(9) 0.6010(7)
C13 C -0.0013(11) 0.0031(10) 0.7533(7)
H10 H -0.0914 0.0262 0.7103
H11 H -0.0458 -0.0986 0.7524
C14 C 0.1018(12) 0.2315(11) 1.0543(9)
H12 H 0.0484 0.2682 1.0875
C15 C 0.0244(12) 0.1572(11) 0.9337(8)
H13 H -0.0797 0.1468 0.8844
Eu1_2 Eu 0.32125(5) 0.57225(4) 0.46493(3)
Eu1_3 Eu 0.32125(5) 0.57225(4) 1.46493(3)
Eu1A Eu 0.67875(5) 0.42775(4) 0.53507(3)
Eu1A_2 Eu 0.67875(5) 0.42775(4) 1.53507(3)
O3_2 O 0.2649(8) -0.6141(7) 0.2981(6)
O4A O 0.5187(8) -0.3438(7) 0.6774(6)
O5_2 O 0.2200(8) -0.6213(7) 0.5450(6)
O6_2 O 0.4238(8) -0.6506(7) 0.5357(6)
O6A O 0.5762(8) -0.3494(7) 0.4643(6)
Cl1 Cl 0.6668(10) 0.0569(9) 0.7260(7)
O9 O 0.392(3) 0.882(2) 0.058(2)
H14 H 0.3903 0.8742 0.1256
H15 H 0.4124 0.9691 0.0546
O10 O 0.844(4) 0.493(3) 0.116(3)
H16 H 0.9000 0.5726 0.1079
H17 H 0.7768 0.4327 0.0456
O11 O 0.450(10) 0.565(9) 0.073(7)
H18 H 0.4419 0.6013 0.1343
H19 H 0.5204 0.5311 0.0976
loop_
_geom_bond_atom_site_label_1
_geom_bond_atom_site_label_2
_geom_bond_site_symmetry_1
_geom_bond_site_symmetry_2
Eu1 O1 1_555 1_555
O1 C3 1_555 1_555
O2 Eu1 1_555 1_555
O3 C7 1_555 1_555
O4 C7 1_555 1_555
O5 C9 1_555 1_555
O6 C9 1_555 1_555
O7 Eu1 1_555 1_555
H1 O7 1_555 1_555
H2 O7 1_555 1_555
O8 Eu1 1_555 1_555
H3 O8 1_555 1_555
H4 O8 1_555 1_555
N1 C1 1_555 1_555
C1 H5 1_555 1_555
C2 C1 1_555 1_555
H6 C2 1_555 1_555
C3 O2 1_555 1_555
C4 C6 1_555 1_555
C5 C6 1_555 1_555
C6 H7 1_555 1_555
C7 C10 1_555 1_555
C8 C4 1_555 1_555
H8 C8 1_555 1_555
C9 C4 1_555 1_555
C10 C2 1_555 1_555
C11 C5 1_555 1_555
H9 C11 1_555 1_555
C12 C3 1_555 1_555
C13 N1 1_555 1_555
H10 C13 1_555 1_555
H11 C13 1_555 1_555
C14 C10 1_555 1_555
H12 C14 1_555 1_555
C15 N1 1_555 1_555
H13 C15 1_555 1_555
O9 H14 1_555 1_555
H15 O9 1_555 1_555
O10 H16 1_555 1_555
H17 O10 1_555 1_555
O11 H18 1_555 1_555
H19 O11 1_555 1_555
Eu1_2 O5 1_555 1_555
Eu1_3 O3 1_555 1_555
Eu1A O6 1_555 1_555
Eu1A_2 O4 1_555 1_555
O3_2 Eu1 1_555 1_555
O4A Eu1 1_555 1_555
O5_2 Eu1 1_555 1_555
O6_2 Eu1 1_555 1_555
O6A Eu1 1_555 1_555
O6 Eu1_2 1_555 1_555
C5 C13 1_555 1_555
C8 C12 1_555 1_555
C11 C12 1_555 1_555
C14 C15 1_555 1_555

#END
