
#######################################################################
#
#                 Cambridge Crystallographic Data Centre
#                                CCDC 
#
#######################################################################
#
# If this CIF has been generated from an entry in the Cambridge 
# Structural Database, then it will include bibliographic, chemical, 
# crystal, experimental, refinement or atomic coordinate data resulting 
# from the CCDC's data processing and validation procedures.
#
#######################################################################

data_JUPDOP
_symmetry_cell_setting           monoclinic
_symmetry_space_group_name_H-M   'P 21'
_symmetry_Int_Tables_number      4
_space_group_name_Hall           'P 2yb'
loop_
_symmetry_equiv_pos_site_id
_symmetry_equiv_pos_as_xyz
1 x,y,z
2 -x,1/2+y,-z
_cell_length_a                   11.3063(7)
_cell_length_b                   20.8442(9)
_cell_length_c                   12.2438(9)
_cell_angle_alpha                90
_cell_angle_beta                 116.542(9)
_cell_angle_gamma                90
_cell_volume                     2581.39
loop_
_atom_site_label
_atom_site_type_symbol
_atom_site_fract_x
_atom_site_fract_y
_atom_site_fract_z
C1 C 0.1484(7) -0.2781(4) 0.5965(8)
C2 C 0.7999(9) 0.1705(5) 1.0405(11)
H1 H 0.7852 0.1272 1.0475
C3 C 0.3330(8) -0.1935(4) 0.7605(8)
H2 H 0.3943 -0.1658 0.8170
C4 C 0.2767(7) -0.2994(4) 0.6737(8)
H3 H 0.3007 -0.3418 0.6708
C5 C 0.2396(8) 0.5198(4) 0.7782(8)
H4 H 0.2242 0.5637 0.7672
C6 C 0.0492(8) -0.3246(4) 0.5088(8)
C7 C 0.9201(9) 0.1973(6) 1.0653(11)
H5 H 1.0003 0.1761 1.0897
C8 C -0.2035(9) 0.5338(5) 0.5348(8)
C9 C 1.4135(9) 0.4488(5) 1.1880(10)
H6 H 1.4598 0.4104 1.2018
C10 C 0.3667(8) -0.2567(4) 0.7538(8)
C11 C 0.1764(8) -0.1008(4) 0.6870(9)
C12 C 0.1137(8) -0.2142(4) 0.5999(9)
H7 H 0.0291 -0.1998 0.5480
C13 C 0.9925(10) 0.3636(5) 1.1325(11)
H8 H 0.9244 0.3691 1.1546
C14 C -0.2605(8) -0.0592(5) 0.5151(10)
H9 H -0.2194 -0.0971 0.5107
C15 C -0.5803(10) -0.1949(6) 0.3183(11)
H10 H -0.5804 -0.2238 0.2604
C16 C 1.0943(9) 0.2996(5) 1.0358(10)
H11 H 1.0964 0.2624 0.9947
C17 C 0.1626(8) 0.4108(4) 0.7267(8)
H12 H 0.0955 0.3821 0.6813
C18 C 1.2509(9) 0.5167(5) 1.1364(11)
H13 H 1.1669 0.5344 1.1081
C19 C 1.1865(9) 0.4027(5) 1.1229(10)
C20 C 0.2875(9) 0.3881(4) 0.8135(8)
C21 C -0.4854(9) -0.1043(5) 0.4472(10)
C22 C 0.2074(8) -0.1717(4) 0.6824(8)
C23 C 0.5669(9) -0.3177(5) 0.8009(9)
H14 H 0.5149 -0.3570 0.7697
C24 C 0.9973(9) 0.3090(5) 1.0721(10)
C25 C -0.8749(9) -0.3378(6) 0.2398(13)
H15 H -0.8917 -0.3801 0.2130
C26 C -0.0846(9) 0.5109(6) 0.6487(9)
H16 H -0.1068 0.4710 0.6779
C27 C 0.1417(8) 0.4770(4) 0.7102(8)
C28 C -0.6784(9) -0.1560(6) 0.4434(10)
H17 H -0.7428 -0.1593 0.4707
C29 C 0.6950(8) -0.3345(4) 0.9155(8)
C30 C -0.7546(10) -0.3091(6) 0.2829(14)
H18 H -0.6756 -0.3273 0.2920
C31 C 1.0894(10) 0.4113(5) 1.1613(11)
H19 H 1.0885 0.4476 1.2049
C32 C -0.6774(9) -0.1989(5) 0.3567(10)
C33 C 0.3116(8) 0.3166(4) 0.8307(9)
C34 C -0.4832(11) -0.1490(7) 0.3639(12)
H20 H -0.4164 -0.1479 0.3392
C35 C -0.4093(12) 0.0065(7) 0.5104(16)
H21 H -0.4885 0.0239 0.5024
C36 C -0.2947(10) 0.0386(6) 0.5420(14)
H22 H -0.2814 0.0821 0.5596
C37 C 0.7643(9) 0.2720(5) 1.0073(10)
H23 H 0.7227 0.3117 0.9863
C38 C 0.5951(11) -0.2895(9) 0.7023(10)
H24 H 0.5132 -0.2800 0.6323
H25 H 0.6448 -0.3196 0.6800
H26 H 0.6452 -0.2507 0.7316
C39 C 1.3647(9) 0.5493(5) 1.1734(11)
H27 H 1.3734 0.5938 1.1775
C40 C 0.4668(9) 0.5455(4) 0.9447(8)
C41 C 1.1915(9) 0.3480(5) 1.0623(10)
H28 H 1.2585 0.3427 1.0388
C42 C -0.5824(11) -0.1079(6) 0.4894(12)
H29 H -0.5827 -0.0788 0.5469
C43 C -0.9034(9) -0.2420(5) 0.2816(11)
H30 H -0.9433 -0.2044 0.2895
C44 C 0.3631(9) 0.4968(4) 0.8646(8)
C45 C 0.3842(8) 0.4316(4) 0.8807(8)
H31 H 0.4659 0.4167 0.9385
C46 C -0.0430(13) 0.5633(11) 0.7506(13)
H32 H 0.0312 0.5482 0.8228
H33 H -0.1157 0.5720 0.7688
H34 H -0.0189 0.6019 0.7226
O1 O -0.0665(6) -0.3058(3) 0.4444(6)
O2 O 0.5791(6) 0.5243(3) 1.0135(6)
O3 O 0.7032(5) -0.3191(3) 1.0185(6)
O4 O 0.1302(5) 0.0689(3) 0.7605(5)
O5 O 0.3695(5) 0.1445(3) 0.7861(6)
O6 O 0.4269(6) 0.2985(3) 0.8983(7)
O7 O 0.2704(8) -0.0681(4) 0.7596(8)
O8 O 0.0612(7) -0.0826(3) 0.6195(7)
O9 O -0.1942(6) 0.5389(4) 0.4378(6)
O10 O 0.2133(7) 0.2816(3) 0.7751(8)
O11 O 0.4943(6) -0.2744(3) 0.8404(6)
O12 O 0.4277(6) 0.6024(3) 0.9345(6)
O13 O 0.0935(7) -0.3794(3) 0.5045(7)
O14 O 0.0234(6) 0.4995(3) 0.6198(5)
O15 O -0.3018(7) 0.5492(5) 0.5494(7)
O16 O 0.7795(7) -0.3638(5) 0.8977(7)
N1 N -0.2024(7) -0.0036(4) 0.5437(8)
N2 N -0.9664(7) -0.2971(4) 0.2407(8)
N3 N -0.7752(7) -0.2475(4) 0.3102(8)
N4 N 0.7050(7) 0.2173(4) 1.0040(8)
N5 N 1.2803(7) 0.4533(4) 1.1478(8)
N6 N 0.8972(7) 0.2616(4) 1.0467(8)
N7 N -0.3881(8) -0.0546(5) 0.4927(9)
N8 N 1.4673(7) 0.5056(4) 1.2046(8)
Cd1 Cd 0.00411(5) 0.02452(2) 0.58246(5)
Cd2 Cd 0.16474(5) 0.17537(2) 0.76389(6)
Cd3 Cd 0.33050(5) 0.03738(3) 0.77930(6)
Cd4 Cd 0.48849(5) 0.19639(3) 0.95806(5)
O1A O 0.0665(6) 0.1942(3) 0.5556(6)
O2A O 0.4209(6) 0.0243(3) 0.9865(6)
O3A O 0.2968(5) 0.1809(3) 0.9815(6)
O9A O 0.1942(6) 0.0389(4) 0.5622(6)
O11A O 0.5057(6) 0.2256(3) 1.1596(6)
O12A O 0.5723(6) 0.1024(3) 1.0655(6)
O13A O -0.0935(7) 0.1206(3) 0.4955(7)
O14A O -0.0234(6) -0.0005(3) 0.3802(5)
N2A N -0.0336(7) 0.2029(4) 0.7593(8)
N8A N 0.5327(7) 0.0056(4) 0.7954(8)
Cd1A Cd -0.00411(5) -0.47548(2) 0.41754(5)
Cd1A_2 Cd -0.00411(5) 0.52452(2) 0.41754(5)
Cd2A Cd -1.16474(5) -0.32463(2) 0.23611(6)
Cd2A_2 Cd -0.16474(5) -0.32463(2) 0.23611(6)
Cd2A_3 Cd 0.83526(5) -0.32463(2) 1.23611(6)
Cd3A Cd -0.33050(5) 0.53738(3) 0.22070(6)
Cd3A_2 Cd 0.66950(5) 0.53738(3) 1.22070(6)
Cd3A_3 Cd 1.66950(5) 0.53738(3) 1.22070(6)
Cd4A Cd 0.51151(5) -0.30361(3) 1.04194(5)
Cd4A_2 Cd 0.51151(5) 0.69639(3) 1.04194(5)
O17 O 0.0710(8) 0.0387(4) 0.9538(8)
O18 O 0.4258(8) 0.1615(5) 0.5859(8)
O19 O 0.2731(11) -0.0642(6) 1.0554(14)
O20 O 0.2218(12) 0.2588(8) 0.4674(14)
O21 O 0.347(2) 0.0192(10) 1.2445(14)
loop_
_geom_bond_atom_site_label_1
_geom_bond_atom_site_label_2
_geom_bond_site_symmetry_1
_geom_bond_site_symmetry_2
C1 C4 1_555 1_555
C2 H1 1_555 1_555
C3 H2 1_555 1_555
C4 H3 1_555 1_555
C5 H4 1_555 1_555
C6 C1 1_555 1_555
C7 C2 1_555 1_555
H5 C7 1_555 1_555
C8 C26 1_555 1_555
C9 H6 1_555 1_555
C10 C3 1_555 1_555
C11 C22 1_555 1_555
C12 C1 1_555 1_555
H7 C12 1_555 1_555
C13 H8 1_555 1_555
C14 H9 1_555 1_555
C15 H10 1_555 1_555
C16 H11 1_555 1_555
C17 H12 1_555 1_555
C18 H13 1_555 1_555
C19 C31 1_555 1_555
C20 C17 1_555 1_555
C21 C34 1_555 1_555
C22 C3 1_555 1_555
C23 H14 1_555 1_555
C24 C13 1_555 1_555
C25 H15 1_555 1_555
C26 H16 1_555 1_555
C27 C5 1_555 1_555
C28 H17 1_555 1_555
C29 C23 1_555 1_555
C30 C25 1_555 1_555
H18 C30 1_555 1_555
C31 C13 1_555 1_555
H19 C31 1_555 1_555
C32 C15 1_555 1_555
C33 C20 1_555 1_555
C34 C15 1_555 1_555
H20 C34 1_555 1_555
C35 H21 1_555 1_555
C36 C35 1_555 1_555
H22 C36 1_555 1_555
C37 H23 1_555 1_555
C38 C23 1_555 1_555
H24 C38 1_555 1_555
H25 C38 1_555 1_555
H26 C38 1_555 1_555
C39 C18 1_555 1_555
H27 C39 1_555 1_555
C40 C44 1_555 1_555
C41 C16 1_555 1_555
H28 C41 1_555 1_555
C42 C21 1_555 1_555
H29 C42 1_555 1_555
C43 H30 1_555 1_555
C44 C5 1_555 1_555
C45 C20 1_555 1_555
H31 C45 1_555 1_555
C46 C26 1_555 1_555
H32 C46 1_555 1_555
H33 C46 1_555 1_555
H34 C46 1_555 1_555
O1 C6 1_555 1_555
O2 C40 1_555 1_555
O3 C29 1_555 1_555
O4 Cd1 1_555 1_555
O5 Cd2 1_555 1_555
O6 C33 1_555 1_555
O7 C11 1_555 1_555
O8 C11 1_555 1_555
O9 C8 1_555 1_555
O10 C33 1_555 1_555
O11 C10 1_555 1_555
O12 C40 1_555 1_555
O13 C6 1_555 1_555
O14 C26 1_555 1_555
O15 C8 1_555 1_555
O16 C29 1_555 1_555
N1 C14 1_555 1_555
N2 C25 1_555 1_555
N3 C30 1_555 1_555
N4 C2 1_555 1_555
N5 C9 1_555 1_555
N6 C7 1_555 1_555
N7 C14 1_555 1_555
N8 C9 1_555 1_555
Cd1 O8 1_555 1_555
Cd2 O4 1_555 1_555
Cd3 O4 1_555 1_555
Cd4 O5 1_555 1_555
O1A Cd2 1_555 1_555
O2A Cd3 1_555 1_555
O3A Cd2 1_555 1_555
O9A Cd1 1_555 1_555
O11A Cd4 1_555 1_555
O12A Cd4 1_555 1_555
O13A Cd1 1_555 1_555
O14A Cd1 1_555 1_555
N2A Cd2 1_555 1_555
N8A Cd3 1_555 1_555
Cd1A O13 1_555 1_555
Cd1A_2 O9 1_555 1_555
Cd2A N2 1_555 1_555
Cd2A_2 O1 1_555 1_555
Cd2A_3 O3 1_555 1_555
Cd3A O9 1_555 1_555
Cd3A_2 O2 1_555 1_555
Cd3A_3 N8 1_555 1_555
Cd4A O3 1_555 1_555
Cd4A_2 O12 1_555 1_555
C4 C10 1_555 1_555
C12 C22 1_555 1_555
C16 C24 1_555 1_555
C17 C27 1_555 1_555
C18 N5 1_555 1_555
C19 C41 1_555 1_555
C19 N5 1_555 1_555
C21 N7 1_555 1_555
C23 O11 1_555 1_555
C24 N6 1_555 1_555
C27 O14 1_555 1_555
C28 C32 1_555 1_555
C28 C42 1_555 1_555
C32 N3 1_555 1_555
C35 N7 1_555 1_555
C36 N1 1_555 1_555
C37 N4 1_555 1_555
C37 N6 1_555 1_555
C39 N8 1_555 1_555
C43 N2 1_555 1_555
C43 N3 1_555 1_555
C44 C45 1_555 1_555
O5 Cd3 1_555 1_555
O6 Cd4 1_555 1_555
O7 Cd3 1_555 1_555
O10 Cd2 1_555 1_555
O11 Cd4A 1_555 1_555
O14 Cd1A_2 1_555 1_555
N1 Cd1 1_555 1_555
N4 Cd4 1_555 1_555
Cd3 O9A 1_555 1_555
Cd4 O3A 1_555 1_555

#END
