
#######################################################################
#
#                 Cambridge Crystallographic Data Centre
#                                CCDC 
#
#######################################################################
#
# If this CIF has been generated from an entry in the Cambridge 
# Structural Database, then it will include bibliographic, chemical, 
# crystal, experimental, refinement or atomic coordinate data resulting 
# from the CCDC's data processing and validation procedures.
#
#######################################################################

data_JUPFIJ
_symmetry_cell_setting           monoclinic
_symmetry_space_group_name_H-M   'C c'
_symmetry_Int_Tables_number      9
_space_group_name_Hall           'C -2yc'
loop_
_symmetry_equiv_pos_site_id
_symmetry_equiv_pos_as_xyz
1 x,y,z
2 x,-y,1/2+z
3 1/2+x,1/2+y,z
4 1/2+x,1/2-y,1/2+z
_cell_length_a                   6.362(6)
_cell_length_b                   18.813(13)
_cell_length_c                   12.552(4)
_cell_angle_alpha                90
_cell_angle_beta                 91.64(6)
_cell_angle_gamma                90
_cell_volume                     1501.71
loop_
_atom_site_label
_atom_site_type_symbol
_atom_site_fract_x
_atom_site_fract_y
_atom_site_fract_z
Ag1 Ag -1.00399(5) 0.00861(2) -0.50922(4)
Ag2 Ag -1.48265(6) -0.22172(2) -0.73229(4)
S1 S -0.49785(18) 0.07467(7) -0.60797(9)
O1 O -0.7206(6) 0.0887(3) -0.5882(4)
O2 O -0.4774(8) 0.0416(3) -0.7131(3)
O3 O -0.3803(7) 0.1417(2) -0.6021(4)
O4 O -0.4118(8) 0.0262(3) -0.5280(4)
N1 N -0.9868(6) -0.0615(2) -0.6580(3)
N2 N -0.7926(6) -0.1542(2) -0.7454(3)
N3 N -0.9931(6) -0.0683(2) -0.8512(3)
N4 N -1.1749(6) -0.1577(2) -0.7476(3)
C1 C -0.9935(9) -0.0205(3) -0.7588(4)
H1 H -0.8739 0.0106 -0.7608
H2 H -1.1182 0.0082 -0.7619
C2 C -1.1714(7) -0.1086(3) -0.6576(4)
H3 H -1.2966 -0.0801 -0.6608
H4 H -1.1709 -0.1351 -0.5923
C3 C -0.7959(8) -0.1057(3) -0.6549(4)
H5 H -0.7900 -0.1326 -0.5898
H6 H -0.6745 -0.0755 -0.6557
C4 C -0.8015(8) -0.1121(3) -0.8453(4)
H7 H -0.7997 -0.1438 -0.9053
H8 H -0.6802 -0.0819 -0.8482
C5 C -1.1779(8) -0.1158(3) -0.8474(4)
H9 H -1.1786 -0.1474 -0.9074
H10 H -1.3039 -0.0877 -0.8518
C6 C -0.9809(9) -0.1997(2) -0.7438(4)
H11 H -0.9769 -0.2281 -0.6803
H12 H -0.9808 -0.2312 -0.8040
O5 O -1.5185(7) -0.3420(2) -0.7038(3)
H13 H -1.6245 -0.3496 -0.6828
H14 H -1.4010 -0.3805 -0.6799
Ag2_2 Ag -0.48265(6) -0.22172(2) -0.73229(4)
N3A N -0.9931(6) 0.0683(2) -0.3512(3)
Ag1A Ag -1.00399(5) -0.00861(2) -1.00922(4)
N2_2 N -1.7926(6) -0.1542(2) -0.7454(3)
O6 O 0.5638(9) 0.3763(3) 0.5879(4)
H15 H 0.5170 0.3730 0.6550
H16 H 0.5960 0.3408 0.6110
O7 O 0.4491(11) 0.2373(3) 0.5420(5)
H17 H 0.4801 0.2096 0.4959
H18 H 0.5048 0.2742 0.5487
O8 O 0.5299(12) -0.2226(3) 0.4871(6)
H19 H 0.4187 -0.2034 0.5097
H20 H 0.5377 -0.2652 0.5093
O9 O 0.4808(11) 0.0898(3) 0.0875(4)
H21 H 0.4977 0.0822 0.0094
H22 H 0.6258 0.1010 0.1028
loop_
_geom_bond_atom_site_label_1
_geom_bond_atom_site_label_2
_geom_bond_site_symmetry_1
_geom_bond_site_symmetry_2
Ag1 O1 1_555 1_555
Ag2 N4 1_555 1_555
S1 O1 1_555 1_555
O2 S1 1_555 1_555
O3 S1 1_555 1_555
O4 S1 1_555 1_555
N1 Ag1 1_555 1_555
N2 C3 1_555 1_555
N3 C1 1_555 1_555
N4 C2 1_555 1_555
C1 N1 1_555 1_555
H1 C1 1_555 1_555
H2 C1 1_555 1_555
C2 N1 1_555 1_555
H3 C2 1_555 1_555
H4 C2 1_555 1_555
C3 N1 1_555 1_555
H5 C3 1_555 1_555
H6 C3 1_555 1_555
C4 N2 1_555 1_555
H7 C4 1_555 1_555
H8 C4 1_555 1_555
C5 N3 1_555 1_555
H9 C5 1_555 1_555
H10 C5 1_555 1_555
C6 N2 1_555 1_555
H11 C6 1_555 1_555
H12 C6 1_555 1_555
O5 Ag2 1_555 1_555
H13 O5 1_555 1_555
H14 O5 1_555 1_555
O6 H15 1_555 1_555
H16 O6 1_555 1_555
O7 H17 1_555 1_555
H18 O7 1_555 1_555
O8 H19 1_555 1_555
H20 O8 1_555 1_555
O9 H21 1_555 1_555
H22 O9 1_555 1_555
Ag2_2 N2 1_555 1_555
N3A Ag1 1_555 1_555
Ag1A N3 1_555 1_555
N2_2 Ag2 1_555 1_555
N3 C4 1_555 1_555
N4 C6 1_555 1_555
N4 C5 1_555 1_555

#END
