
#######################################################################
#
#                 Cambridge Crystallographic Data Centre
#                                CCDC 
#
#######################################################################
#
# If this CIF has been generated from an entry in the Cambridge 
# Structural Database, then it will include bibliographic, chemical, 
# crystal, experimental, refinement or atomic coordinate data resulting 
# from the CCDC's data processing and validation procedures.
#
#######################################################################

data_JUPJIP
_symmetry_cell_setting           monoclinic
_symmetry_space_group_name_H-M   'P 21/c'
_symmetry_Int_Tables_number      14
_space_group_name_Hall           '-P 2ybc'
loop_
_symmetry_equiv_pos_site_id
_symmetry_equiv_pos_as_xyz
1 x,y,z
2 -x,1/2+y,1/2-z
3 -x,-y,-z
4 x,1/2-y,1/2+z
_cell_length_a                   12.9458(12)
_cell_length_b                   15.2289(14)
_cell_length_c                   14.6364(12)
_cell_angle_alpha                90
_cell_angle_beta                 111.035(3)
_cell_angle_gamma                90
_cell_volume                     2693.28
loop_
_atom_site_label
_atom_site_type_symbol
_atom_site_fract_x
_atom_site_fract_y
_atom_site_fract_z
Dy1 Dy 0.555308(7) 0.730857(5) 0.493501(6)
Dy2 Dy 0.427911(7) 0.736313(5) 0.705718(6)
O1 O 0.73278(11) 0.76731(9) 0.63970(10)
O2 O 0.57427(11) 0.78599(9) 0.65807(9)
O3 O 0.60107(11) 0.73750(8) 0.84735(10)
O4 O 0.69901(11) 0.83984(9) 0.94536(10)
O5 O 0.45608(11) 0.88247(8) 0.75267(10)
O6 O 0.40939(10) 0.79690(9) 0.36052(9)
O7 O 0.26284(12) 0.73004(9) 0.25790(10)
O8 O 0.28561(12) 0.81217(9) 0.57277(10)
O9 O 0.39137(11) 0.72342(8) 0.52727(10)
O10 O 0.48524(11) 1.10661(8) 0.79999(10)
O11 O 0.39913(11) 1.10932(9) 0.90775(10)
O12 O 0.58084(13) 0.88838(9) 0.49991(11)
O13 O 0.44727(11) 0.89273(8) 0.90156(10)
O14 O 0.29378(13) 0.62215(10) 0.66088(11)
C1 C 0.68029(15) 0.78524(11) 0.69444(13)
C2 C 0.74000(15) 0.81119(12) 0.80037(13)
C3 C 0.67551(15) 0.79718(12) 0.86697(13)
C4 C 0.79477(16) 0.90412(12) 0.80619(14)
H1 H 0.7697 0.9359 0.7430
H2 H 0.7881 0.9417 0.8589
C5 C 0.90966(17) 0.86150(14) 0.83210(16)
H3 H 0.9657 0.8847 0.8929
H4 H 0.9380 0.8621 0.7776
C6 C 0.86040(16) 0.77228(13) 0.84566(14)
H5 H 0.8813 0.7544 0.9150
H6 H 0.8750 0.7243 0.8063
C7 C 0.42221(15) 0.91893(11) 0.81485(13)
C8 C 0.34753(15) 0.99953(11) 0.78217(13)
C9 C 0.23069(15) 0.98750(13) 0.78816(14)
H7 H 0.2233 0.9338 0.8235
H8 H 0.2037 1.0398 0.8130
C10 C 0.18231(17) 0.97826(15) 0.67532(15)
H9 H 0.1653 0.9169 0.6525
H10 H 0.1182 1.0171 0.6432
C11 C 0.29162(16) 1.01273(13) 0.66964(13)
H11 H 0.2883 1.0748 0.6487
H12 H 0.3226 0.9750 0.6307
C12 C 0.30688(15) 0.77116(11) 0.33500(13)
C13 C 0.31079(15) 0.77889(12) 0.50607(13)
C14 C 0.24627(15) 0.79992(12) 0.40017(13)
C15 C 0.12266(17) 0.77330(14) 0.37198(15)
H13 H 0.0881 0.7519 0.3038
H14 H 0.1092 0.7319 0.4186
C16 C 0.09388(18) 0.86949(16) 0.38595(17)
H15 H 0.0845 0.8806 0.4492
H16 H 0.0304 0.8929 0.3306
C17 C 0.20768(17) 0.89810(13) 0.38447(15)
H17 H 0.2493 0.9373 0.4393
H18 H 0.2046 0.9228 0.3210
C18 C 0.41612(15) 1.07786(11) 0.83494(13)
H19 H 0.584(3) 0.919(2) 0.546(3)
H20 H 0.223(3) 0.636(2) 0.642(2)
H21 H 0.303(3) 0.591(2) 0.622(2)
H22 H 0.545(3) 0.915(2) 0.456(2)
Dy1A Dy 0.444692(7) 1.230857(5) 1.006499(6)
Dy1C Dy 0.555308(7) 0.769143(5) 0.993501(6)
Dy2A Dy 0.572089(7) 1.236313(5) 0.794282(6)
Dy2C Dy 0.427911(7) 0.763687(5) 0.205718(6)
O3C O 0.60107(11) 0.76250(8) 0.34735(10)
O4C O 0.69901(11) 0.66016(9) 0.44536(10)
O6C O 0.40939(10) 0.70310(9) 0.86052(9)
O7C O 0.26284(12) 0.76996(9) 0.75790(10)
O10A O 0.51476(11) 0.60661(8) 0.70001(10)
O11A O 0.60087(11) 0.60932(9) 0.59225(10)
O13C O 0.44727(11) 0.60727(8) 0.40156(10)
O15 O 1.07110(15) 0.65831(13) 0.59879(16)
H23 H 1.0468 0.7086 0.6035
C19 C 0.9916(2) 0.5936(2) 0.6004(2)
H24 H 0.9935 0.5865 0.6675
H25 H 1.0094 0.5375 0.5768
H26 H 0.9176 0.6125 0.5580
O16 O 0.32153(16) 0.52892(11) 0.52031(12)
H27 H 0.365(3) 0.548(2) 0.496(2)
H28 H 0.320(3) 0.481(3) 0.517(3)
O17 O 0.44808(13) 0.00440(10) 0.35195(11)
H29 H 0.415(2) -0.027(2) 0.316(2)
H30 H 0.485(3) 0.035(2) 0.320(3)
O18 O 0.92777(14) 0.79433(12) 0.60393(14)
H31 H 0.8808 0.7777 0.6277
C20 C 0.9025(2) 0.88099(18) 0.5673(2)
H32 H 0.9195 0.9222 0.6222
H33 H 0.8237 0.8849 0.5270
H34 H 0.9468 0.8957 0.5275
loop_
_geom_bond_atom_site_label_1
_geom_bond_atom_site_label_2
_geom_bond_site_symmetry_1
_geom_bond_site_symmetry_2
Dy1 O1 1_555 1_555
Dy2 O2 1_555 1_555
O1 C1 1_555 1_555
O2 Dy1 1_555 1_555
O3 Dy2 1_555 1_555
O4 C3 1_555 1_555
O5 Dy2 1_555 1_555
O6 Dy1 1_555 1_555
O7 C12 1_555 1_555
O8 Dy2 1_555 1_555
O9 Dy1 1_555 1_555
O10 C18 1_555 1_555
O11 C18 1_555 1_555
O12 Dy1 1_555 1_555
O13 C7 1_555 1_555
O14 Dy2 1_555 1_555
C1 O2 1_555 1_555
C2 C1 1_555 1_555
C3 O3 1_555 1_555
C4 C2 1_555 1_555
H1 C4 1_555 1_555
H2 C4 1_555 1_555
C5 C4 1_555 1_555
H3 C5 1_555 1_555
H4 C5 1_555 1_555
C6 C2 1_555 1_555
H5 C6 1_555 1_555
H6 C6 1_555 1_555
C7 O5 1_555 1_555
C8 C7 1_555 1_555
C9 C8 1_555 1_555
H7 C9 1_555 1_555
H8 C9 1_555 1_555
C10 C9 1_555 1_555
H9 C10 1_555 1_555
H10 C10 1_555 1_555
C11 C8 1_555 1_555
H11 C11 1_555 1_555
H12 C11 1_555 1_555
C12 O6 1_555 1_555
C13 O8 1_555 1_555
C14 C12 1_555 1_555
C15 C14 1_555 1_555
H13 C15 1_555 1_555
H14 C15 1_555 1_555
C16 C15 1_555 1_555
H15 C16 1_555 1_555
H16 C16 1_555 1_555
C17 C14 1_555 1_555
H17 C17 1_555 1_555
H18 C17 1_555 1_555
C18 C8 1_555 1_555
H19 O12 1_555 1_555
H20 O14 1_555 1_555
H21 O14 1_555 1_555
H22 O12 1_555 1_555
O15 H23 1_555 1_555
C19 O15 1_555 1_555
H24 C19 1_555 1_555
H25 C19 1_555 1_555
H26 C19 1_555 1_555
O16 H27 1_555 1_555
H28 O16 1_555 1_555
O17 H29 1_555 1_555
H30 O17 1_555 1_555
O18 H31 1_555 1_555
C20 O18 1_555 1_555
H32 C20 1_555 1_555
H33 C20 1_555 1_555
H34 C20 1_555 1_555
Dy1A O11 1_555 1_555
Dy1C O3 1_555 1_555
Dy2A O10 1_555 1_555
Dy2C O6 1_555 1_555
O3C Dy1 1_555 1_555
O4C Dy1 1_555 1_555
O6C Dy2 1_555 1_555
O7C Dy2 1_555 1_555
O10A Dy2 1_555 1_555
O11A Dy1 1_555 1_555
O13C Dy1 1_555 1_555
Dy2 O9 1_555 1_555
O4 Dy1C 1_555 1_555
O7 Dy2C 1_555 1_555
O9 C13 1_555 1_555
O13 Dy1C 1_555 1_555
C2 C3 1_555 1_555
C5 C6 1_555 1_555
C10 C11 1_555 1_555
C13 C14 1_555 1_555
C16 C17 1_555 1_555
Dy1C O6C 1_555 1_555
Dy2C O3C 1_555 1_555

#END
