
#######################################################################
#
#                 Cambridge Crystallographic Data Centre
#                                CCDC 
#
#######################################################################
#
# If this CIF has been generated from an entry in the Cambridge 
# Structural Database, then it will include bibliographic, chemical, 
# crystal, experimental, refinement or atomic coordinate data resulting 
# from the CCDC's data processing and validation procedures.
#
#######################################################################

data_JUPKEM
_symmetry_cell_setting           monoclinic
_symmetry_space_group_name_H-M   'P 21/c'
_symmetry_Int_Tables_number      14
_space_group_name_Hall           '-P 2ybc'
loop_
_symmetry_equiv_pos_site_id
_symmetry_equiv_pos_as_xyz
1 x,y,z
2 -x,1/2+y,1/2-z
3 -x,-y,-z
4 x,1/2-y,1/2+z
_cell_length_a                   12.928(3)
_cell_length_b                   15.271(3)
_cell_length_c                   14.696(3)
_cell_angle_alpha                90
_cell_angle_beta                 110.960(5)
_cell_angle_gamma                90
_cell_volume                     2709.36
loop_
_atom_site_label
_atom_site_type_symbol
_atom_site_fract_x
_atom_site_fract_y
_atom_site_fract_z
Tb1 Tb 0.42738(2) 0.73597(2) 0.70541(2)
Tb2 Tb 0.55544(2) 0.73081(2) 0.49320(2)
O1 O 0.39085(13) 0.72383(10) 0.52714(12)
O2 O 0.57430(13) 0.78589(10) 0.65777(11)
O3 O 0.60129(14) 0.60864(10) 0.59192(12)
O4 O 0.51480(13) 0.60634(10) 0.69887(12)
O5 O 0.54422(14) 0.38255(10) 0.74738(12)
O6 O 0.40883(13) 0.79706(11) 0.36067(11)
O7 O 0.26273(15) 0.73076(10) 0.25843(12)
O8 O 0.73233(15) 0.76711(11) 0.63920(13)
O9 O 0.58049(16) 0.88869(11) 0.50005(14)
O10 O 0.60096(13) 0.73770(10) 0.84651(12)
O11 O 0.55291(13) 0.39274(10) 0.59890(11)
O12 O 0.29332(15) 0.62120(12) 0.66104(13)
H1 H 0.2925 0.5978 0.6091
O13 O 0.28421(15) 0.81153(12) 0.57196(12)
O14 O 0.69928(14) 0.83947(11) 0.94397(12)
C1 C 0.68000(18) 0.78497(14) 0.69363(16)
C2 C 0.30673(19) 0.77138(13) 0.33524(16)
C3 C 0.57823(17) 0.41878(13) 0.68522(16)
C4 C 0.67506(17) 0.79717(14) 0.86568(15)
C5 C 0.31016(18) 0.77856(14) 0.50571(16)
C6 C 0.65239(17) 0.49934(14) 0.71754(15)
C7 C 0.58416(18) 0.57758(14) 0.66453(15)
C8 C 0.70782(19) 0.51302(15) 0.82956(16)
H2 H 0.7109 0.5750 0.8501
H3 H 0.6767 0.4755 0.8684
C9 C 0.24594(17) 0.80015(15) 0.40053(15)
C10 C 0.2077(2) 0.89786(16) 0.38506(18)
H4 H 0.2489 0.9367 0.4400
H5 H 0.2055 0.9227 0.3222
C11 C 0.1227(2) 0.77354(19) 0.37190(19)
H6 H 0.0887 0.7521 0.3041
H7 H 0.1087 0.7324 0.4183
C12 C 0.8597(2) 0.77261(16) 0.84402(18)
H8 H 0.8804 0.7545 0.9129
H9 H 0.8747 0.7251 0.8046
C13 C 0.76939(18) 0.48728(16) 0.71170(17)
H10 H 0.7771 0.4335 0.6770
H11 H 0.7964 0.5393 0.6867
C14 C 0.73997(17) 0.81117(14) 0.79914(15)
C15 C 0.79378(19) 0.90382(15) 0.80472(17)
H12 H 0.7690 0.9352 0.7416
H13 H 0.7864 0.9414 0.8569
C16 C 0.0942(2) 0.8694(2) 0.3854(2)
H14 H 0.0312 0.8928 0.3299
H15 H 0.0838 0.8806 0.4479
C17 C 0.9084(2) 0.86168(19) 0.8311(2)
H16 H 0.9638 0.8849 0.8920
H17 H 0.9375 0.8627 0.7773
C18 C 0.8172(2) 0.4788(2) 0.8243(2)
H18 H 0.8343 0.4177 0.8474
H19 H 0.8812 0.5177 0.8561
H20 H 0.585(4) 0.920(3) 0.549(3)
H21 H 0.545(3) 0.916(3) 0.458(3)
H22 H 0.229(4) 0.640(3) 0.650(3)
Tb1A Tb 0.57262(2) 0.23597(2) 0.79459(2)
Tb1C Tb 0.42738(2) 0.76403(2) 0.20541(2)
Tb2B Tb 0.44456(2) 0.26919(2) 0.50680(2)
Tb2C Tb 0.55544(2) 0.76919(2) 0.99320(2)
O5A O 0.45578(14) 0.88255(10) 0.75262(12)
O6C O 0.40883(13) 0.70294(11) 0.86067(11)
O7C O 0.26273(15) 0.76924(10) 0.75843(12)
O10C O 0.60096(13) 0.76230(10) 0.34651(12)
O11B O 0.44709(13) 0.60726(10) 0.40110(11)
O14C O 0.69928(14) 0.66053(11) 0.44397(12)
O15 O 0.44852(15) 0.00426(12) 0.35144(13)
O16 O 0.32158(18) 0.52877(13) 0.51986(14)
O17 O 0.92716(19) 0.79335(17) 0.6032(2)
C19 C 0.9034(3) 0.8799(3) 0.5670(3)
H23 H 0.9147 0.9204 0.6214
H24 H 0.8263 0.8833 0.5222
H25 H 0.9528 0.8959 0.5323
O18 O 1.0706(2) 0.65720(19) 0.6006(2)
C20 C 0.9906(3) 0.5927(3) 0.6011(3)
H26 H 1.0023 0.5761 0.6685
H27 H 0.9987 0.5410 0.5648
H28 H 0.9159 0.6169 0.5704
loop_
_geom_bond_atom_site_label_1
_geom_bond_atom_site_label_2
_geom_bond_site_symmetry_1
_geom_bond_site_symmetry_2
Tb1 O1 1_555 1_555
Tb2 O1 1_555 1_555
O1 C5 1_555 1_555
O2 Tb1 1_555 1_555
O3 Tb2 1_555 1_555
O4 Tb1 1_555 1_555
O5 C3 1_555 1_555
O6 Tb2 1_555 1_555
O7 C2 1_555 1_555
O8 Tb2 1_555 1_555
O9 Tb2 1_555 1_555
O10 Tb1 1_555 1_555
O11 C3 1_555 1_555
O12 Tb1 1_555 1_555
H1 O12 1_555 1_555
O13 Tb1 1_555 1_555
O14 C4 1_555 1_555
C1 O2 1_555 1_555
C2 O6 1_555 1_555
C3 C6 1_555 1_555
C4 O10 1_555 1_555
C5 O13 1_555 1_555
C6 C7 1_555 1_555
C7 O3 1_555 1_555
C8 C6 1_555 1_555
H2 C8 1_555 1_555
H3 C8 1_555 1_555
C9 C2 1_555 1_555
C10 C9 1_555 1_555
H4 C10 1_555 1_555
H5 C10 1_555 1_555
C11 C9 1_555 1_555
H6 C11 1_555 1_555
H7 C11 1_555 1_555
C12 H8 1_555 1_555
H9 C12 1_555 1_555
C13 C6 1_555 1_555
H10 C13 1_555 1_555
H11 C13 1_555 1_555
C14 C1 1_555 1_555
C15 C14 1_555 1_555
H12 C15 1_555 1_555
H13 C15 1_555 1_555
C16 C10 1_555 1_555
H14 C16 1_555 1_555
H15 C16 1_555 1_555
C17 C12 1_555 1_555
H16 C17 1_555 1_555
H17 C17 1_555 1_555
C18 C8 1_555 1_555
H18 C18 1_555 1_555
H19 C18 1_555 1_555
H20 O9 1_555 1_555
H21 O9 1_555 1_555
H22 O12 1_555 1_555
O17 C19 1_555 1_555
C19 H23 1_555 1_555
H24 C19 1_555 1_555
H25 C19 1_555 1_555
O18 C20 1_555 1_555
C20 H26 1_555 1_555
H27 C20 1_555 1_555
H28 C20 1_555 1_555
Tb1A O5 1_555 1_555
Tb1C O6 1_555 1_555
Tb2B O11 1_555 1_555
Tb2C O10 1_555 1_555
O5A Tb1 1_555 1_555
O6C Tb1 1_555 1_555
O7C Tb1 1_555 1_555
O10C Tb2 1_555 1_555
O11B Tb2 1_555 1_555
O14C Tb2 1_555 1_555
Tb2 O2 1_555 1_555
O4 C7 1_555 1_555
O7 Tb1C 1_555 1_555
O8 C1 1_555 1_555
O14 Tb2C 1_555 1_555
C4 C14 1_555 1_555
C5 C9 1_555 1_555
C11 C16 1_555 1_555
C12 C14 1_555 1_555
C13 C18 1_555 1_555
C15 C17 1_555 1_555
Tb1C O10C 1_555 1_555
Tb2C O6C 1_555 1_555

#END
