
#######################################################################
#
#                 Cambridge Crystallographic Data Centre
#                                CCDC 
#
#######################################################################
#
# If this CIF has been generated from an entry in the Cambridge 
# Structural Database, then it will include bibliographic, chemical, 
# crystal, experimental, refinement or atomic coordinate data resulting 
# from the CCDC's data processing and validation procedures.
#
#######################################################################

data_JUPKUA
_symmetry_cell_setting           triclinic
_symmetry_space_group_name_H-M   'P -1'
_symmetry_Int_Tables_number      2
_space_group_name_Hall           '-P 1'
loop_
_symmetry_equiv_pos_site_id
_symmetry_equiv_pos_as_xyz
1 x,y,z
2 -x,-y,-z
_cell_length_a                   7.259
_cell_length_b                   8.991
_cell_length_c                   11.383(1)
_cell_angle_alpha                109.04
_cell_angle_beta                 93.36(1)
_cell_angle_gamma                108.57
_cell_volume                     654.673
loop_
_atom_site_label
_atom_site_type_symbol
_atom_site_fract_x
_atom_site_fract_y
_atom_site_fract_z
Br1 Br 0.23339(8) -0.11937(7) 0.28334(5)
N1 N 0.24441(47) 0.16992(44) 0.03167(32)
C1 C 0.26426(55) 0.02965(52) -0.03847(37)
N2 N 0.26350(56) -0.10127(48) -0.01010(35)
H1 H 0.28450 -0.20740 -0.08100
H2 H 0.27540 -0.08700 0.08170
O1 O 0.28270(42) 0.03012(38) -0.15361(27)
C2 C 0.27811(60) 0.18417(55) -0.15518(41)
C3 C 0.25444(59) 0.27092(54) -0.04172(40)
C4 C 0.25441(60) 0.22901(54) 0.16898(38)
H3 H 0.17330(60) 0.29641(54) 0.19076(38)
H4 H 0.20469(60) 0.13261(54) 0.19287(38)
C5 C 0.46584(58) 0.33560(51) 0.24216(37)
O2 O 0.60454(41) 0.32328(39) 0.18591(28)
O3 O 0.47816(43) 0.42447(40) 0.35443(27)
C6 C 0.29857(69) 0.21545(62) -0.27372(45)
H5 H 0.29319(69) 0.32437(62) -0.26280(45)
H6 H 0.19289(69) 0.13044(62) -0.33974(45)
H7 H 0.42292(69) 0.21160(62) -0.29606(45)
C7 C 0.23024(79) 0.43693(62) 0.00755(50)
H8 H 0.24183(79) 0.48481(62) -0.05694(50)
H9 H 0.33143(79) 0.51057(62) 0.08004(50)
H10 H 0.10279(79) 0.42313(62) 0.03118(50)
Na1 Na 0.24936(25) 0.49210(23) 0.48206(17)
O4 O 0.33017(53) 0.79489(45) 0.53753(35)
H11 H 0.34410 0.84520 0.47160
H12 H 0.44260 0.87020 0.59950
O5 O -0.01772(53) 0.49550(47) 0.33440(38)
H13 H 0.02070 0.59830 0.32330
H14 H -0.00110 0.49130 0.37910
O6 O 0.07004(57) 0.20540(49) 0.43043(41)
H15 H 0.12280 0.13060 0.41640
H16 H 0.04990 0.23880 0.48940
O3A O 0.52184(43) 0.57553(40) 0.64557(27)
C5A C 0.53416(58) 0.66440(51) 0.75784(37)
C4A C 0.74559(60) 0.77099(54) 0.83102(38)
N1A N 0.75559(47) 0.83008(44) 0.96833(32)
C1A C 0.73574(55) 0.97035(52) 1.03847(37)
N2A N 0.73650(56) 1.10127(48) 1.01010(35)
H1A H 0.71550 1.20740 1.08100
H2A H 0.72460 1.08700 0.91830
O1A O 0.71730(42) 0.96988(38) 1.15361(27)
C2A C 0.72189(60) 0.81583(55) 1.15518(41)
C3A C 0.74556(59) 0.72908(54) 1.04172(40)
C7A C 0.76976(79) 0.56307(62) 0.99245(50)
H8A H 0.75817(79) 0.51519(62) 1.05694(50)
H9A H 0.66857(79) 0.48943(62) 0.91996(50)
H10A H 0.89721(79) 0.57687(62) 0.96882(50)
C6A C 0.70143(69) 0.78455(62) 1.27372(45)
H5A H 0.70681(69) 0.67563(62) 1.26280(45)
H6A H 0.80711(69) 0.86956(62) 1.33974(45)
H7A H 0.57708(69) 0.78840(62) 1.29606(45)
H3A H 0.82670(60) 0.70359(54) 0.80924(38)
H4A H 0.79531(60) 0.86739(54) 0.80713(38)
O2A O 0.39546(41) 0.67672(39) 0.81409(28)
Na1A Na 0.75064(25) 0.50790(23) 0.51794(17)
Na1A_2 Na -0.24936(25) 0.50790(23) 0.51794(17)
O3A_2 O -0.47816(43) 0.57553(40) 0.64557(27)
O3_2 O -0.52184(43) 0.42447(40) 0.35443(27)
O4A O -0.33017(53) 0.20511(45) 0.46247(35)
H11A H -0.34410 0.15480 0.52840
H12A H -0.44260 0.12980 0.40050
O5A O 0.01772(53) 0.50450(47) 0.66560(38)
H13A H -0.02070 0.40170 0.67670
H14A H 0.00110 0.50870 0.62090
O6A O -0.07004(57) 0.79460(49) 0.56957(41)
H15A H -0.12280 0.86940 0.58360
H16A H -0.04990 0.76120 0.51060
loop_
_geom_bond_atom_site_label_1
_geom_bond_atom_site_label_2
_geom_bond_site_symmetry_1
_geom_bond_site_symmetry_2
N1 C1 1_555 1_555
C1 N2 1_555 1_555
N2 H1 1_555 1_555
H2 N2 1_555 1_555
O1 C1 1_555 1_555
C2 O1 1_555 1_555
C3 N1 1_555 1_555
C4 N1 1_555 1_555
H3 C4 1_555 1_555
H4 C4 1_555 1_555
C5 C4 1_555 1_555
O2 C5 1_555 1_555
O3 C5 1_555 1_555
C6 C2 1_555 1_555
H5 C6 1_555 1_555
H6 C6 1_555 1_555
H7 C6 1_555 1_555
C7 C3 1_555 1_555
H8 C7 1_555 1_555
H9 C7 1_555 1_555
H10 C7 1_555 1_555
Na1 O3 1_555 1_555
O4 Na1 1_555 1_555
H11 O4 1_555 1_555
H12 O4 1_555 1_555
O5 Na1 1_555 1_555
H13 O5 1_555 1_555
H14 O5 1_555 1_555
O6 Na1 1_555 1_555
H15 O6 1_555 1_555
H16 O6 1_555 1_555
O3A Na1 1_555 1_555
C5A O3A 1_555 1_555
C4A C5A 1_555 1_555
N1A C4A 1_555 1_555
C1A N1A 1_555 1_555
N2A C1A 1_555 1_555
H1A N2A 1_555 1_555
H2A N2A 1_555 1_555
O1A C1A 1_555 1_555
C2A O1A 1_555 1_555
C3A N1A 1_555 1_555
C7A C3A 1_555 1_555
H8A C7A 1_555 1_555
H9A C7A 1_555 1_555
H10A C7A 1_555 1_555
C6A C2A 1_555 1_555
H5A C6A 1_555 1_555
H6A C6A 1_555 1_555
H7A C6A 1_555 1_555
H3A C4A 1_555 1_555
H4A C4A 1_555 1_555
O2A C5A 1_555 1_555
Na1A O3 1_555 1_555
Na1A_2 O5 1_555 1_555
O3A_2 Na1A_2 1_555 1_555
O3_2 Na1A_2 1_555 1_555
O4A Na1A_2 1_555 1_555
H11A O4A 1_555 1_555
H12A O4A 1_555 1_555
O5A Na1 1_555 1_555
H13A O5A 1_555 1_555
H14A O5A 1_555 1_555
O6A Na1A_2 1_555 1_555
H15A O6A 1_555 1_555
H16A O6A 1_555 1_555
C2 C3 1_555 1_555
O3A Na1A 1_555 1_555
C2A C3A 1_555 1_555
Na1A_2 O5A 1_555 1_555

#END
