
#######################################################################
#
#                 Cambridge Crystallographic Data Centre
#                                CCDC 
#
#######################################################################
#
# If this CIF has been generated from an entry in the Cambridge 
# Structural Database, then it will include bibliographic, chemical, 
# crystal, experimental, refinement or atomic coordinate data resulting 
# from the CCDC's data processing and validation procedures.
#
#######################################################################

data_JUQFUW
_symmetry_cell_setting           triclinic
_symmetry_space_group_name_H-M   'P -1'
_symmetry_Int_Tables_number      2
_space_group_name_Hall           '-P 1'
loop_
_symmetry_equiv_pos_site_id
_symmetry_equiv_pos_as_xyz
1 x,y,z
2 -x,-y,-z
_cell_length_a                   10.3970(10)
_cell_length_b                   11.1090(10)
_cell_length_c                   13.696(2)
_cell_angle_alpha                80.650(10)
_cell_angle_beta                 69.110(10)
_cell_angle_gamma                69.660(10)
_cell_volume                     1384.42
loop_
_atom_site_label
_atom_site_type_symbol
_atom_site_fract_x
_atom_site_fract_y
_atom_site_fract_z
Ag1 Ag -0.04475(2) 0.25454(3) 0.647208(15)
N1 N -0.1825(2) 0.1639(3) 0.58660(18)
C1 C -0.3662(3) 0.0697(3) 0.5356(2)
C2 C -0.4611(3) 0.0213(3) 0.5103(2)
C3 C -0.3762(4) 0.1981(3) 0.5198(3)
H1 H -0.4452 0.2554 0.4919
C4 C -0.2830(4) 0.2409(3) 0.5457(3)
H2 H -0.2907 0.3276 0.5340
C5 C -0.1755(3) 0.0416(3) 0.6036(3)
H3 H -0.1065 -0.0134 0.6325
C6 C -0.2647(4) -0.0091(3) 0.5808(3)
H4 H -0.2566 -0.0956 0.5958
N2 N -0.2227(2) 0.3173(2) 0.80434(15)
N3 N -0.9165(2) 0.3424(2) 1.49603(15)
C7 C -0.4310(3) 0.3427(2) 1.00338(18)
C8 C -0.5376(3) 0.3559(2) 1.10552(19)
C9 C -0.6249(3) 0.3642(2) 1.19062(19)
C10 C -0.7273(3) 0.3648(2) 1.29409(18)
C11 C -0.3621(3) 0.3351(2) 0.81797(18)
H5 H -0.3884 0.3384 0.7592
C12 C -0.4684(3) 0.3487(2) 0.91423(19)
H6 H -0.5640 0.3617 0.9197
C13 C -0.1879(3) 0.3129(3) 0.89039(19)
H7 H -0.0916 0.3007 0.8825
C14 C -0.2869(3) 0.3255(3) 0.99024(19)
H8 H -0.2578 0.3226 1.0476
C15 C -0.9555(3) 0.3518(3) 1.4112(2)
H9 H -1.0482 0.3506 1.4208
C16 C -0.8658(3) 0.3631(3) 1.31039(19)
H10 H -0.8980 0.3696 1.2540
C17 C -0.7858(3) 0.3517(3) 1.47960(19)
H11 H -0.7586 0.3506 1.5376
C18 C -0.6888(3) 0.3629(3) 1.3817(2)
H12 H -0.5989 0.3691 1.3745
N4 N 0.1477(2) 0.1314(2) 0.71723(17)
N5 N 0.9614(3) -0.1567(3) 0.9724(2)
C19 C 0.3787(3) 0.0258(3) 0.7967(2)
C20 C 0.4980(3) -0.0262(3) 0.8370(2)
C21 C 0.5990(3) -0.0626(3) 0.8684(2)
C22 C 0.7218(3) -0.0983(3) 0.9040(2)
C23 C 0.2113(3) 0.2053(3) 0.7393(2)
H13 H 0.1760 0.2938 0.7280
C24 C 0.3255(3) 0.1574(3) 0.7778(2)
H14 H 0.3667 0.2124 0.7911
C25 C 0.1990(3) 0.0054(3) 0.7353(2)
H15 H 0.1564 -0.0473 0.7204
C26 C 0.3124(3) -0.0518(3) 0.7753(2)
H16 H 0.3437 -0.1403 0.7877
C27 C 0.8957(4) -0.0382(4) 0.9419(3)
H17 H 0.9310 0.0268 0.9452
C28 C 0.7809(4) -0.0050(3) 0.9064(3)
H18 H 0.7424 0.0794 0.8840
C29 C 0.9058(4) -0.2465(3) 0.9683(3)
H19 H 0.9491 -0.3304 0.9890
C30 C 0.7875(3) -0.2229(3) 0.9353(2)
H20 H 0.7529 -0.2892 0.9341
C2A C -0.5389(3) -0.0213(3) 0.4897(2)
C1A C -0.6338(3) -0.0697(3) 0.4644(2)
C3A C -0.6238(4) -0.1981(3) 0.4802(3)
H1A H -0.5548 -0.2554 0.5081
C4A C -0.7170(4) -0.2409(3) 0.4543(3)
N1A N -0.8175(2) -0.1639(3) 0.41340(18)
C5A C -0.8245(3) -0.0416(3) 0.3964(3)
H3A H -0.8935 0.0134 0.3675
C6A C -0.7353(4) 0.0091(3) 0.4192(3)
H4A H -0.7434 0.0956 0.4042
H2A H -0.7093 -0.3276 0.4660
N3_2 N 0.0835(2) 0.3424(2) 0.49603(15)
Ag1A Ag -0.95525(2) -0.25454(3) 0.352792(15)
Ag1_2 Ag -1.04475(2) 0.25454(3) 1.647208(15)
N2A N -0.7773(2) -0.3173(2) 0.19566(15)
N3A N -0.0835(2) -0.3424(2) -0.49603(15)
C7A C -0.5690(3) -0.3427(2) -0.00338(18)
C8A C -0.4624(3) -0.3559(2) -0.10552(19)
C9A C -0.3751(3) -0.3642(2) -0.19062(19)
C10A C -0.2727(3) -0.3648(2) -0.29409(18)
C11A C -0.6379(3) -0.3351(2) 0.18203(18)
H5A H -0.6116 -0.3384 0.2408
C12A C -0.5316(3) -0.3487(2) 0.08577(19)
H6A H -0.4360 -0.3617 0.0803
C13A C -0.8121(3) -0.3129(3) 0.10961(19)
H7A H -0.9084 -0.3007 0.1175
C14A C -0.7131(3) -0.3255(3) 0.00976(19)
H8A H -0.7422 -0.3226 -0.0476
C15A C -0.0445(3) -0.3518(3) -0.4112(2)
H9A H 0.0482 -0.3506 -0.4208
C16A C -0.1342(3) -0.3631(3) -0.31039(19)
H10A H -0.1020 -0.3696 -0.2540
C17A C -0.2142(3) -0.3517(3) -0.47960(19)
H11A H -0.2414 -0.3506 -0.5376
C18A C -0.3112(3) -0.3629(3) -0.3817(2)
H12A H -0.4011 -0.3691 -0.3745
N3A_2 N -1.0835(2) -0.3424(2) 0.50397(15)
N4A N -1.1477(2) -0.1314(2) 0.28277(17)
N5A N -1.9614(3) 0.1567(3) 0.0276(2)
C19A C -1.3787(3) -0.0258(3) 0.2033(2)
C20A C -1.4980(3) 0.0262(3) 0.1630(2)
C21A C -1.5990(3) 0.0626(3) 0.1316(2)
C22A C -1.7218(3) 0.0983(3) 0.0960(2)
C23A C -1.2113(3) -0.2053(3) 0.2607(2)
H13A H -1.1760 -0.2938 0.2720
C24A C -1.3255(3) -0.1574(3) 0.2222(2)
H14A H -1.3667 -0.2124 0.2089
C25A C -1.1990(3) -0.0054(3) 0.2647(2)
H15A H -1.1564 0.0473 0.2796
C26A C -1.3124(3) 0.0518(3) 0.2247(2)
H16A H -1.3437 0.1403 0.2123
C27A C -1.8957(4) 0.0382(4) 0.0581(3)
H17A H -1.9310 -0.0268 0.0548
C28A C -1.7809(4) 0.0050(3) 0.0936(3)
H18A H -1.7424 -0.0794 0.1160
C29A C -1.9058(4) 0.2465(3) 0.0317(3)
H19A H -1.9491 0.3304 0.0110
C30A C -1.7875(3) 0.2229(3) 0.0647(2)
H20A H -1.7529 0.2892 0.0659
Ag1A_2 Ag 0.04475(2) -0.25454(3) -0.647208(15)
B1 B 0.2748(4) -0.4513(4) 0.7294(3)
F1 F 0.2415(6) -0.5119(4) 0.8203(3)
F2 F 0.2081(8) -0.4701(6) 0.6751(5)
F3 F 0.2625(11) -0.3351(5) 0.7357(5)
F4 F 0.4157(5) -0.5149(9) 0.6822(6)
F5? F 0.3675(11) -0.3972(11) 0.7262(8)
F6? F 0.1562(8) -0.3533(9) 0.7256(8)
F7? F 0.3147(14) -0.5165(9) 0.6498(6)
loop_
_geom_bond_atom_site_label_1
_geom_bond_atom_site_label_2
_geom_bond_site_symmetry_1
_geom_bond_site_symmetry_2
Ag1 N1 1_555 1_555
N1 C4 1_555 1_555
C1 C2 1_555 1_555
C2 C2A 1_555 1_555
C3 C1 1_555 1_555
H1 C3 1_555 1_555
C4 C3 1_555 1_555
H2 C4 1_555 1_555
C5 N1 1_555 1_555
H3 C5 1_555 1_555
C6 C1 1_555 1_555
H4 C6 1_555 1_555
N2 Ag1 1_555 1_555
N3 C15 1_555 1_555
C7 C8 1_555 1_555
C8 C9 1_555 1_555
C9 C10 1_555 1_555
C10 C16 1_555 1_555
C11 N2 1_555 1_555
H5 C11 1_555 1_555
C12 C7 1_555 1_555
H6 C12 1_555 1_555
C13 N2 1_555 1_555
H7 C13 1_555 1_555
C14 C7 1_555 1_555
H8 C14 1_555 1_555
C15 H9 1_555 1_555
C16 C15 1_555 1_555
H10 C16 1_555 1_555
C17 N3 1_555 1_555
H11 C17 1_555 1_555
C18 C10 1_555 1_555
H12 C18 1_555 1_555
N4 Ag1 1_555 1_555
N5 C27 1_555 1_555
C19 C20 1_555 1_555
C20 C21 1_555 1_555
C21 C22 1_555 1_555
C22 C28 1_555 1_555
C23 N4 1_555 1_555
H13 C23 1_555 1_555
C24 C19 1_555 1_555
H14 C24 1_555 1_555
C25 N4 1_555 1_555
H15 C25 1_555 1_555
C26 C19 1_555 1_555
H16 C26 1_555 1_555
C27 H17 1_555 1_555
C28 C27 1_555 1_555
H18 C28 1_555 1_555
C29 N5 1_555 1_555
H19 C29 1_555 1_555
C30 C22 1_555 1_555
H20 C30 1_555 1_555
B1 F1 1_555 1_555
F2 B1 1_555 1_555
F3 B1 1_555 1_555
F4 B1 1_555 1_555
C2A C1A 1_555 1_555
C1A C3A 1_555 1_555
C3A H1A 1_555 1_555
C4A C3A 1_555 1_555
N1A C4A 1_555 1_555
C5A N1A 1_555 1_555
H3A C5A 1_555 1_555
C6A C1A 1_555 1_555
H4A C6A 1_555 1_555
H2A C4A 1_555 1_555
N3_2 Ag1 1_555 1_555
Ag1A N1A 1_555 1_555
Ag1_2 N3 1_555 1_555
N2A Ag1A 1_555 1_555
N3A C15A 1_555 1_555
C7A C8A 1_555 1_555
C8A C9A 1_555 1_555
C9A C10A 1_555 1_555
C10A C16A 1_555 1_555
C11A N2A 1_555 1_555
H5A C11A 1_555 1_555
C12A C7A 1_555 1_555
H6A C12A 1_555 1_555
C13A N2A 1_555 1_555
H7A C13A 1_555 1_555
C14A C7A 1_555 1_555
H8A C14A 1_555 1_555
C15A H9A 1_555 1_555
C16A C15A 1_555 1_555
H10A C16A 1_555 1_555
C17A N3A 1_555 1_555
H11A C17A 1_555 1_555
C18A C10A 1_555 1_555
H12A C18A 1_555 1_555
N3A_2 Ag1A 1_555 1_555
N4A Ag1A 1_555 1_555
N5A C27A 1_555 1_555
C19A C20A 1_555 1_555
C20A C21A 1_555 1_555
C21A C22A 1_555 1_555
C22A C28A 1_555 1_555
C23A N4A 1_555 1_555
H13A C23A 1_555 1_555
C24A C19A 1_555 1_555
H14A C24A 1_555 1_555
C25A N4A 1_555 1_555
H15A C25A 1_555 1_555
C26A C19A 1_555 1_555
H16A C26A 1_555 1_555
C27A H17A 1_555 1_555
C28A C27A 1_555 1_555
H18A C28A 1_555 1_555
C29A N5A 1_555 1_555
H19A C29A 1_555 1_555
C30A C22A 1_555 1_555
H20A C30A 1_555 1_555
Ag1A_2 N3A 1_555 1_555
C5 C6 1_555 1_555
C11 C12 1_555 1_555
C13 C14 1_555 1_555
C17 C18 1_555 1_555
C23 C24 1_555 1_555
C25 C26 1_555 1_555
C29 C30 1_555 1_555
C5A C6A 1_555 1_555
C11A C12A 1_555 1_555
C13A C14A 1_555 1_555
C17A C18A 1_555 1_555
C23A C24A 1_555 1_555
C25A C26A 1_555 1_555
C29A C30A 1_555 1_555

#END
