
#######################################################################
#
#                 Cambridge Crystallographic Data Centre
#                                CCDC 
#
#######################################################################
#
# If this CIF has been generated from an entry in the Cambridge 
# Structural Database, then it will include bibliographic, chemical, 
# crystal, experimental, refinement or atomic coordinate data resulting 
# from the CCDC's data processing and validation procedures.
#
#######################################################################

data_JUQFIK
_symmetry_cell_setting           monoclinic
_symmetry_space_group_name_H-M   'C 2/c'
_symmetry_Int_Tables_number      15
_space_group_name_Hall           '-C 2yn'
loop_
_symmetry_equiv_pos_site_id
_symmetry_equiv_pos_as_xyz
1 x,y,z
2 x,-y,1/2+z
3 1/2+x,1/2+y,z
4 1/2+x,1/2-y,1/2+z
5 -x,-y,-z
6 -x,y,1/2-z
7 1/2-x,1/2-y,-z
8 1/2-x,1/2+y,1/2-z
_cell_length_a                   29.179(3)
_cell_length_b                   11.462(4)
_cell_length_c                   20.735(2)
_cell_angle_alpha                90
_cell_angle_beta                 122.602(6)
_cell_angle_gamma                90
_cell_volume                     5842.12
loop_
_atom_site_label
_atom_site_type_symbol
_atom_site_fract_x
_atom_site_fract_y
_atom_site_fract_z
Pt1 Pt 0.0000 -0.09388(4) -0.7500
I1 I 0.13136(2) 0.17052(7) -0.56103(3)
I2 I -0.04309(3) 0.22417(6) -0.68483(3)
Cu1 Cu 0.04084(4) 0.0981(1) -0.58110(6)
Cu2 Cu 0.0692(1) 0.1044(2) -0.69697(9)
S1 S 0.02022(8) -0.0968(2) -0.62655(10)
S2 S -0.09135(8) -0.0985(2) -0.7956(1)
N1 N -0.0448(3) -0.1028(7) -0.5175(4)
N2 N -0.1845(4) -0.1218(9) -0.7288(5)
C1 C -0.0443(3) -0.1014(7) -0.6408(4)
C2 C -0.0906(3) -0.1052(7) -0.7111(4)
C3 C -0.0459(3) -0.1033(8) -0.5731(4)
C4 C -0.1428(4) -0.1112(8) -0.7202(5)
S1E S -0.02022(8) -0.0968(2) -0.87345(10)
S2E S 0.09135(8) -0.0985(2) -0.7044(1)
Cu2E Cu -0.0692(1) 0.1044(2) -0.80303(9)
I2E I 0.04309(3) 0.22417(6) -0.81517(3)
Cu1E Cu -0.04084(4) 0.0981(1) -0.91890(6)
C1E C 0.0443(3) -0.1014(7) -0.8592(4)
C2E C 0.0906(3) -0.1052(7) -0.7889(4)
I1E I -0.13136(2) 0.17052(7) -0.93897(3)
N1D N 0.0448(3) 0.1028(7) -0.4825(4)
N1A N -0.0448(3) 0.1028(7) -1.0175(4)
C3E C 0.0459(3) -0.1033(8) -0.9269(4)
C4E C 0.1428(4) -0.1112(8) -0.7798(5)
Cu1D Cu -0.04084(4) -0.0981(1) -0.41890(6)
N1E N 0.0448(3) -0.1028(7) -0.9825(4)
N2E N 0.1845(4) -0.1218(9) -0.7712(5)
Cu1A Cu 0.04084(4) -0.0981(1) -1.08110(6)
N3 N 0.1908(3) -0.4879(8) -0.1779(5)
C5 C 0.1528(8) -0.475(2) -0.148(1)
C6 C 0.125(1) -0.564(2) -0.139(1)
C7 C 0.089(1) -0.542(3) -0.113(2)
C8 C 0.044(1) -0.561(4) -0.137(2)
C9 C 0.1645(7) -0.563(2) -0.2510(9)
C10 C 0.1145(8) -0.529(2) -0.320(1)
C11 C 0.098(1) -0.600(2) -0.391(1)
C12 C 0.064(2) -0.583(3) -0.451(2)
C13 C 0.2016(5) -0.371(1) -0.1963(7)
C14 C 0.2274(5) -0.283(1) -0.1362(7)
C15 C 0.2319(7) -0.166(2) -0.1628(9)
C16 C 0.2559(7) -0.078(2) -0.1037(10)
C17 C 0.2410(7) -0.544(1) -0.116(1)
C18 C 0.2809(7) -0.584(2) -0.1266(9)
C19 C 0.3277(7) -0.658(2) -0.064(1)
C20 C 0.364(1) -0.693(2) -0.079(1)
H1 H 0.1754 -0.4434 -0.0977
H2 H 0.1261 -0.4212 -0.1802
H3 H 0.1022 -0.5963 -0.1881
H4 H 0.1517 -0.6190 -0.1059
H5 H 0.1056 -0.6071 -0.0697
H6 H 0.0993 -0.4750 -0.0890
H7 H 0.0366 -0.5455 -0.1001
H8 H 0.0272 -0.5028 -0.1774
H9 H 0.0335 -0.6350 -0.1584
H10 H 0.1916 -0.5686 -0.2644
H11 H 0.1597 -0.6384 -0.2367
H12 H 0.0873 -0.5335 -0.3079
H13 H 0.1187 -0.4527 -0.3311
H14 H 0.1284 -0.6231 -0.3877
H15 H 0.0815 -0.6725 -0.3814
H16 H 0.0795 -0.5181 -0.4641
H17 H 0.0636 -0.6489 -0.4806
H18 H 0.0325 -0.5667 -0.4576
H19 H 0.2246 -0.3817 -0.2157
H20 H 0.1677 -0.3398 -0.2363
H21 H 0.2063 -0.2763 -0.1139
H22 H 0.2628 -0.3096 -0.0988
H23 H 0.2533 -0.1744 -0.1841
H24 H 0.1962 -0.1421 -0.2011
H25 H 0.2919 -0.1009 -0.0650
H26 H 0.2571 -0.0063 -0.1255
H27 H 0.2348 -0.0692 -0.0816
H28 H 0.2580 -0.4874 -0.0753
H29 H 0.2289 -0.6074 -0.0984
H30 H 0.2627 -0.6353 -0.1708
H31 H 0.2964 -0.5220 -0.1360
H32 H 0.3468 -0.6107 -0.0195
H33 H 0.3126 -0.7236 -0.0531
H34 H 0.3902 -0.7413 -0.0374
H35 H 0.3444 -0.7470 -0.1235
H36 H 0.3787 -0.6342 -0.0899
Cu3? Cu 0.9573(3) 0.1515(7) 0.2020(3)
loop_
_geom_bond_atom_site_label_1
_geom_bond_atom_site_label_2
_geom_bond_site_symmetry_1
_geom_bond_site_symmetry_2
Pt1 S1 1_555 1_555
I1 Cu1 1_555 1_555
I2 Cu1 1_555 1_555
Cu1 S1 1_555 1_555
Cu2 I1 1_555 1_555
S1 C1 1_555 1_555
S2 Pt1 1_555 1_555
N1 C3 1_555 1_555
N2 C4 1_555 1_555
N3 C5 1_555 1_555
C1 C2 1_555 1_555
C2 S2 1_555 1_555
C3 C1 1_555 1_555
C4 C2 1_555 1_555
C5 C6 1_555 1_555
C6 C7 1_555 1_555
C7 C8 1_555 1_555
C8 H7 1_555 1_555
C9 N3 1_555 1_555
C10 C9 1_555 1_555
C11 C10 1_555 1_555
C12 C11 1_555 1_555
C13 N3 1_555 1_555
C14 C13 1_555 1_555
C15 C14 1_555 1_555
C16 C15 1_555 1_555
C17 N3 1_555 1_555
C18 C17 1_555 1_555
C19 C18 1_555 1_555
C20 C19 1_555 1_555
H1 C5 1_555 1_555
H2 C5 1_555 1_555
H3 C6 1_555 1_555
H4 C6 1_555 1_555
H5 C7 1_555 1_555
H6 C7 1_555 1_555
H8 C8 1_555 1_555
H9 C8 1_555 1_555
H10 C9 1_555 1_555
H11 C9 1_555 1_555
H12 C10 1_555 1_555
H13 C10 1_555 1_555
H14 C11 1_555 1_555
H15 C11 1_555 1_555
H16 C12 1_555 1_555
H17 C12 1_555 1_555
H18 C12 1_555 1_555
H19 C13 1_555 1_555
H20 C13 1_555 1_555
H21 C14 1_555 1_555
H22 C14 1_555 1_555
H23 C15 1_555 1_555
H24 C15 1_555 1_555
H25 C16 1_555 1_555
H26 C16 1_555 1_555
H27 C16 1_555 1_555
H28 C17 1_555 1_555
H29 C17 1_555 1_555
H30 C18 1_555 1_555
H31 C18 1_555 1_555
H32 C19 1_555 1_555
H33 C19 1_555 1_555
H34 C20 1_555 1_555
H35 C20 1_555 1_555
H36 C20 1_555 1_555
S1E Pt1 1_555 1_555
S2E Pt1 1_555 1_555
Cu2E I2 1_555 1_555
I2E Cu2 1_555 1_555
Cu1E S1E 1_555 1_555
C1E S1E 1_555 1_555
C2E S2E 1_555 1_555
I1E Cu2E 1_555 1_555
N1D Cu1 1_555 1_555
N1A Cu1E 1_555 1_555
C3E C1E 1_555 1_555
C4E C2E 1_555 1_555
Cu1D N1 1_555 1_555
N1E C3E 1_555 1_555
N2E C4E 1_555 1_555
Cu1A N1E 1_555 1_555
Cu2 S2E 1_555 1_555
S2 Cu2E 1_555 1_555
I2E Cu1E 1_555 1_555
Cu1E I1E 1_555 1_555
C1E C2E 1_555 1_555

#END
