
#######################################################################
#
#                 Cambridge Crystallographic Data Centre
#                                CCDC 
#
#######################################################################
#
# If this CIF has been generated from an entry in the Cambridge 
# Structural Database, then it will include bibliographic, chemical, 
# crystal, experimental, refinement or atomic coordinate data resulting 
# from the CCDC's data processing and validation procedures.
#
#######################################################################

data_JUQFOS
_symmetry_cell_setting           triclinic
_symmetry_space_group_name_H-M   'P -1'
_symmetry_Int_Tables_number      2
_space_group_name_Hall           '-P 1'
loop_
_symmetry_equiv_pos_site_id
_symmetry_equiv_pos_as_xyz
1 x,y,z
2 -x,-y,-z
_cell_length_a                   8.475(2)
_cell_length_b                   8.6504(8)
_cell_length_c                   10.185(3)
_cell_angle_alpha                74.41(3)
_cell_angle_beta                 79.66(3)
_cell_angle_gamma                81.39(3)
_cell_volume                     703.465
loop_
_atom_site_label
_atom_site_type_symbol
_atom_site_fract_x
_atom_site_fract_y
_atom_site_fract_z
Fe1 Fe 0.0000 1.0000 0.0000
O1 O 0.1672(2) 1.0313(2) -0.1814(2)
N1 N 0.2628(2) 1.2627(2) 0.17322(19)
N2 N 0.2430(3) 1.3709(2) 0.0514(2)
N3 N 0.1512(3) 1.3124(2) -0.0075(2)
N4 N 0.1116(2) 1.1660(2) 0.0733(2)
N5 N 0.2669(2) 1.5834(2) 0.23591(19)
N6 N 0.3810(2) 1.6875(2) 0.1967(2)
N7 N 0.3203(2) 1.8173(2) 0.1180(2)
N8 N 0.1662(2) 1.8005(2) 0.1047(2)
C1 C 0.1809(3) 1.1395(3) 0.1839(2)
H1 H 0.1736 1.0480 0.2586
C2 C 0.3709(3) 1.2882(3) 0.2648(2)
C3 C 0.2919(3) 1.4249(3) 0.3323(2)
H2 H 0.1873 1.3956 0.3846
H3 H 0.3595 1.4338 0.3979
C4 C 0.1374(3) 1.6552(3) 0.1789(2)
H4 H 0.0406 1.6095 0.1898
C5 C 0.5334(3) 1.3237(3) 0.1781(3)
H5 H 0.5805 1.2318 0.1415
H6 H 0.6047 1.3438 0.2349
H7 H 0.5185 1.4182 0.1026
C6 C 0.3863(3) 1.1350(3) 0.3803(3)
H8 H 0.2805 1.1144 0.4321
H9 H 0.4563 1.1485 0.4412
H10 H 0.4319 1.0447 0.3412
H11 H 0.163(4) 0.989(4) -0.233(3)
H12 H 0.216(4) 1.112(5) -0.219(4)
O1A O -0.1672(2) 0.9687(2) 0.1814(2)
N1A N -0.2628(2) 0.7373(2) -0.17322(19)
N2A N -0.2430(3) 0.6291(2) -0.0514(2)
N3A N -0.1512(3) 0.6876(2) 0.0075(2)
N4A N -0.1116(2) 0.8340(2) -0.0733(2)
N5A N -0.2669(2) 0.4166(2) -0.23591(19)
N6A N -0.3810(2) 0.3125(2) -0.1967(2)
N7A N -0.3203(2) 0.1827(2) -0.1180(2)
N8A N -0.1662(2) 0.1995(2) -0.1047(2)
C1A C -0.1809(3) 0.8605(3) -0.1839(2)
H1A H -0.1736 0.9520 -0.2586
C2A C -0.3709(3) 0.7118(3) -0.2648(2)
C3A C -0.2919(3) 0.5751(3) -0.3323(2)
H2A H -0.1873 0.6044 -0.3846
H3A H -0.3595 0.5662 -0.3979
C4A C -0.1374(3) 0.3448(3) -0.1789(2)
H4A H -0.0406 0.3905 -0.1898
C5A C -0.5334(3) 0.6763(3) -0.1781(3)
H5A H -0.5805 0.7682 -0.1415
H6A H -0.6047 0.6562 -0.2349
H7A H -0.5185 0.5818 -0.1026
C6A C -0.3863(3) 0.8650(3) -0.3803(3)
H8A H -0.2805 0.8856 -0.4321
H9A H -0.4563 0.8515 -0.4412
H10A H -0.4319 0.9553 -0.3412
H11A H -0.163(4) 1.011(4) 0.233(3)
H12A H -0.216(4) 0.888(5) 0.219(4)
Fe1_2 Fe 0.0000 0.0000 0.0000
Fe1_3 Fe 0.0000 2.0000 0.0000
N8_2 N 0.1662(2) 0.8005(2) 0.1047(2)
N8A_2 N -0.1662(2) 1.1995(2) -0.1047(2)
Cl1 Cl 0.83900(8) 0.26718(7) 0.44546(6)
O2 O 0.8948(3) 0.4029(3) 0.3440(3)
O3 O 0.9302(3) 0.2254(3) 0.5551(3)
O4 O 0.8578(3) 0.1345(3) 0.3845(2)
O5 O 0.6726(2) 0.3049(3) 0.4940(2)
O6 O 0.3219(3) 0.2891(3) 0.6819(2)
H13 H 0.273(5) 0.378(5) 0.680(4)
H14 H 0.401(5) 0.302(4) 0.705(4)
loop_
_geom_bond_atom_site_label_1
_geom_bond_atom_site_label_2
_geom_bond_site_symmetry_1
_geom_bond_site_symmetry_2
Fe1 O1 1_555 1_555
O1 H11 1_555 1_555
N1 N2 1_555 1_555
N2 N3 1_555 1_555
N3 N4 1_555 1_555
N4 Fe1 1_555 1_555
N5 N6 1_555 1_555
N6 N7 1_555 1_555
N7 N8 1_555 1_555
N8 C4 1_555 1_555
C1 N1 1_555 1_555
H1 C1 1_555 1_555
C2 N1 1_555 1_555
C3 N5 1_555 1_555
H2 C3 1_555 1_555
H3 C3 1_555 1_555
C4 N5 1_555 1_555
H4 C4 1_555 1_555
C5 C2 1_555 1_555
H5 C5 1_555 1_555
H6 C5 1_555 1_555
H7 C5 1_555 1_555
C6 C2 1_555 1_555
H8 C6 1_555 1_555
H9 C6 1_555 1_555
H10 C6 1_555 1_555
H12 O1 1_555 1_555
Cl1 O2 1_555 1_555
O3 Cl1 1_555 1_555
O4 Cl1 1_555 1_555
O5 Cl1 1_555 1_555
O6 H13 1_555 1_555
H14 O6 1_555 1_555
O1A Fe1 1_555 1_555
N1A N2A 1_555 1_555
N2A N3A 1_555 1_555
N3A N4A 1_555 1_555
N4A Fe1 1_555 1_555
N5A N6A 1_555 1_555
N6A N7A 1_555 1_555
N7A N8A 1_555 1_555
N8A C4A 1_555 1_555
C1A N1A 1_555 1_555
H1A C1A 1_555 1_555
C2A N1A 1_555 1_555
C3A N5A 1_555 1_555
H2A C3A 1_555 1_555
H3A C3A 1_555 1_555
C4A N5A 1_555 1_555
H4A C4A 1_555 1_555
C5A C2A 1_555 1_555
H5A C5A 1_555 1_555
H6A C5A 1_555 1_555
H7A C5A 1_555 1_555
C6A C2A 1_555 1_555
H8A C6A 1_555 1_555
H9A C6A 1_555 1_555
H10A C6A 1_555 1_555
H11A O1A 1_555 1_555
H12A O1A 1_555 1_555
Fe1_2 N8A 1_555 1_555
Fe1_3 N8 1_555 1_555
N8_2 Fe1 1_555 1_555
N8A_2 Fe1 1_555 1_555
N4 C1 1_555 1_555
C2 C3 1_555 1_555
N4A C1A 1_555 1_555
C2A C3A 1_555 1_555

#END
