
#######################################################################
#
#                 Cambridge Crystallographic Data Centre
#                                CCDC 
#
#######################################################################
#
# If this CIF has been generated from an entry in the Cambridge 
# Structural Database, then it will include bibliographic, chemical, 
# crystal, experimental, refinement or atomic coordinate data resulting 
# from the CCDC's data processing and validation procedures.
#
#######################################################################

data_JUQHEK
_symmetry_cell_setting           monoclinic
_symmetry_space_group_name_H-M   'P 21/c'
_symmetry_Int_Tables_number      14
_space_group_name_Hall           '-P 2ybc'
loop_
_symmetry_equiv_pos_site_id
_symmetry_equiv_pos_as_xyz
1 x,y,z
2 -x,1/2+y,1/2-z
3 -x,-y,-z
4 x,1/2-y,1/2+z
_cell_length_a                   20.4015(7)
_cell_length_b                   3.88680(10)
_cell_length_c                   19.3384(7)
_cell_angle_alpha                90
_cell_angle_beta                 99.332(4)
_cell_angle_gamma                90
_cell_volume                     1513.17
loop_
_atom_site_label
_atom_site_type_symbol
_atom_site_fract_x
_atom_site_fract_y
_atom_site_fract_z
Br1 Br 0.33298(2) 1.42745(13) 0.35871(2)
Cu1 Cu 0.30090(3) 0.97192(19) 0.42494(3)
N1 N 0.19556(19) 0.7569(10) 0.50523(19)
N2 N 0.29186(19) 0.7947(11) 0.5709(2)
C1 C 0.1556(2) 0.6397(13) 0.3818(2)
H1 H 0.1973 0.5382 0.3780
C2 C 0.1054(2) 0.6567(13) 0.3237(2)
H2 H 0.1130 0.5683 0.2798
C3 C 0.0443(2) 0.8026(14) 0.3296(3)
H3 H 0.0102 0.8137 0.2899
C4 C 0.0330(2) 0.9329(13) 0.3942(3)
H4 H -0.0089 1.0296 0.3986
C5 C 0.0834(2) 0.9201(12) 0.4517(2)
H5 H 0.0764 1.0117 0.4955
C6 C 0.1440(2) 0.7728(12) 0.4449(2)
C7 C 0.2607(2) 0.8427(13) 0.5038(2)
C8 C 0.1857(2) 0.6554(13) 0.5717(2)
C9 C 0.1303(2) 0.5366(12) 0.5977(2)
H6 H 0.0883 0.5181 0.5684
C10 C 0.1387(3) 0.4459(13) 0.6679(3)
H7 H 0.1017 0.3655 0.6875
C11 C 0.2015(3) 0.4718(13) 0.7106(2)
H8 H 0.2059 0.4063 0.7585
C12 C 0.2563(2) 0.5882(12) 0.6853(2)
H9 H 0.2983 0.6052 0.7146
C13 C 0.2480(2) 0.6818(12) 0.6142(2)
C14 C 0.3617(2) 0.8550(12) 0.5933(2)
C15 C 0.3822(3) 1.0227(12) 0.6574(2)
H10 H 0.3508 1.0918 0.6859
C16 C 0.4493(3) 1.0852(13) 0.6781(3)
H11 H 0.4638 1.1988 0.7214
C17 C 0.4958(3) 0.9860(13) 0.6372(3)
H12 H 0.5417 1.0338 0.6518
C18 C 0.4746(2) 0.8157(13) 0.5745(3)
H13 H 0.5063 0.7451 0.5464
C19 C 0.4074(2) 0.7463(13) 0.5519(2)
H14 H 0.3932 0.6273 0.5092
Br1_2 Br 0.33298(2) 0.42745(13) 0.35871(2)
Cu1_2 Cu 0.30090(3) 1.97192(19) 0.42494(3)
loop_
_geom_bond_atom_site_label_1
_geom_bond_atom_site_label_2
_geom_bond_site_symmetry_1
_geom_bond_site_symmetry_2
Br1 Cu1 1_555 1_555
Cu1 C7 1_555 1_555
N1 C6 1_555 1_555
N2 C7 1_555 1_555
C1 H1 1_555 1_555
C2 C1 1_555 1_555
H2 C2 1_555 1_555
C3 C2 1_555 1_555
H3 C3 1_555 1_555
C4 C3 1_555 1_555
H4 C4 1_555 1_555
C5 C4 1_555 1_555
H5 C5 1_555 1_555
C6 C1 1_555 1_555
C7 N1 1_555 1_555
C8 N1 1_555 1_555
C9 C8 1_555 1_555
H6 C9 1_555 1_555
C10 C9 1_555 1_555
H7 C10 1_555 1_555
C11 C10 1_555 1_555
H8 C11 1_555 1_555
C12 C11 1_555 1_555
H9 C12 1_555 1_555
C13 N2 1_555 1_555
C14 N2 1_555 1_555
C15 C14 1_555 1_555
H10 C15 1_555 1_555
C16 C15 1_555 1_555
H11 C16 1_555 1_555
C17 C16 1_555 1_555
H12 C17 1_555 1_555
C18 C17 1_555 1_555
H13 C18 1_555 1_555
C19 C14 1_555 1_555
H14 C19 1_555 1_555
Br1_2 Cu1 1_555 1_555
Cu1_2 Br1 1_555 1_555
C5 C6 1_555 1_555
C8 C13 1_555 1_555
C12 C13 1_555 1_555
C18 C19 1_555 1_555

#END
