
#######################################################################
#
#                 Cambridge Crystallographic Data Centre
#                                CCDC 
#
#######################################################################
#
# If this CIF has been generated from an entry in the Cambridge 
# Structural Database, then it will include bibliographic, chemical, 
# crystal, experimental, refinement or atomic coordinate data resulting 
# from the CCDC's data processing and validation procedures.
#
#######################################################################

data_JUQPOC
_symmetry_cell_setting           tetragonal
_symmetry_space_group_name_H-M   'P 43'
_symmetry_Int_Tables_number      78
_space_group_name_Hall           'P 4cw'
loop_
_symmetry_equiv_pos_site_id
_symmetry_equiv_pos_as_xyz
1 x,y,z
2 -x,-y,1/2+z
3 -y,x,3/4+z
4 y,-x,1/4+z
_cell_length_a                   8.5067(4)
_cell_length_b                   8.5067(4)
_cell_length_c                   26.288(2)
_cell_angle_alpha                90
_cell_angle_beta                 90
_cell_angle_gamma                90
_cell_volume                     1902.3
loop_
_atom_site_label
_atom_site_type_symbol
_atom_site_fract_x
_atom_site_fract_y
_atom_site_fract_z
Fe1 Fe 0.09277(10) 0.91870(10) 0.93939(4)
S1 S 0.5896(3) 1.1200(5) 0.9833(3)
S2 S 0.3104(8) 0.4264(5) 0.8962(4)
N1 N 0.1312(6) 0.9793(6) 0.8672(2)
N2 N -0.1180(6) 0.8564(6) 0.9119(2)
N3 N -0.1302(5) 1.0022(6) 0.7076(2)
N4 N 0.1290(6) 1.0452(6) 0.7615(2)
N5 N 0.3000(6) 0.9951(7) 0.9587(2)
N6 N 0.1753(7) 0.7090(7) 0.9281(2)
N7 N -0.3988(6) 0.7954(7) 0.8572(2)
N8 N -0.4060(6) 0.8776(7) 0.7513(2)
C1 C 0.2558(7) 1.0383(7) 0.8438(3)
H1 H 0.3459 1.0594 0.8626
C2 C 0.0050(7) 0.9512(7) 0.8374(2)
C3 C -0.1334(6) 0.8872(6) 0.8616(2)
C4 C -0.2705(7) 0.8606(7) 0.8343(3)
C5 C -0.2751(7) 0.8996(7) 0.7797(3)
C6 C -0.3812(8) 0.7639(9) 0.9059(3)
H2 H -0.4663 0.7188 0.9226
C7 C -0.2444(7) 0.7927(7) 0.9351(3)
H3 H -0.2417 0.7682 0.9695
C8 C -0.3958(7) 0.9176(8) 0.7035(3)
H4 H -0.4839 0.9038 0.6831
C9 C -0.2583(7) 0.9809(7) 0.6808(3)
H5 H -0.2591 1.0076 0.6465
C10 C -0.1369(7) 0.9615(6) 0.7569(3)
C11 C 0.0022(7) 0.9855(7) 0.7858(3)
C12 C 0.2557(7) 1.0704(7) 0.7904(3)
H6 H 0.3464 1.1099 0.7753
C13 C 0.4165(9) 1.0466(10) 0.9683(4)
C14 C 0.2382(10) 0.5924(10) 0.9258(6)
Fe1B Fe 0.08130(10) 1.09277(10) 0.68939(4)
N3C N 0.0022(6) 1.1302(5) 0.9576(2)
N4C N 0.0452(6) 0.8710(6) 1.0115(2)
O1 O -0.7047(7) 0.6991(8) 0.8000(3)
C15 C -0.676(3) 0.535(2) 0.7911(9)
C16 C -0.327(3) 1.290(2) 0.8381(11)
O2 O -0.403(3) 1.274(7) 0.779(2)
S3? S 0.3406(4) 0.4241(4) 0.9399(2)
loop_
_geom_bond_atom_site_label_1
_geom_bond_atom_site_label_2
_geom_bond_site_symmetry_1
_geom_bond_site_symmetry_2
Fe1 N1 1_555 1_555
S1 C13 1_555 1_555
S2 C14 1_555 1_555
N1 C1 1_555 1_555
N2 Fe1 1_555 1_555
N3 C9 1_555 1_555
N4 C11 1_555 1_555
N5 Fe1 1_555 1_555
N6 Fe1 1_555 1_555
N7 C4 1_555 1_555
N8 C5 1_555 1_555
C1 H1 1_555 1_555
C2 N1 1_555 1_555
C3 N2 1_555 1_555
C4 C3 1_555 1_555
C5 C4 1_555 1_555
C6 N7 1_555 1_555
H2 C6 1_555 1_555
C7 N2 1_555 1_555
H3 C7 1_555 1_555
C8 N8 1_555 1_555
H4 C8 1_555 1_555
C9 C8 1_555 1_555
H5 C9 1_555 1_555
C10 N3 1_555 1_555
C11 C2 1_555 1_555
C12 N4 1_555 1_555
H6 C12 1_555 1_555
C13 N5 1_555 1_555
C14 N6 1_555 1_555
O1 C15 1_555 1_555
C16 O2 1_555 1_555
Fe1B N3 1_555 1_555
N3C Fe1 1_555 1_555
N4C Fe1 1_555 1_555
N4 Fe1B 1_555 1_555
C1 C12 1_555 1_555
C2 C3 1_555 1_555
C5 C10 1_555 1_555
C6 C7 1_555 1_555
C10 C11 1_555 1_555

#END
