
#######################################################################
#
#                 Cambridge Crystallographic Data Centre
#                                CCDC 
#
#######################################################################
#
# If this CIF has been generated from an entry in the Cambridge 
# Structural Database, then it will include bibliographic, chemical, 
# crystal, experimental, refinement or atomic coordinate data resulting 
# from the CCDC's data processing and validation procedures.
#
#######################################################################

data_JUQPIW
_symmetry_cell_setting           monoclinic
_symmetry_space_group_name_H-M   'P 21'
_symmetry_Int_Tables_number      4
_space_group_name_Hall           'P 2yb'
loop_
_symmetry_equiv_pos_site_id
_symmetry_equiv_pos_as_xyz
1 x,y,z
2 -x,1/2+y,-z
_cell_length_a                   17.6560(11)
_cell_length_b                   16.2741(18)
_cell_length_c                   26.219(3)
_cell_angle_alpha                90
_cell_angle_beta                 90.609(7)
_cell_angle_gamma                90
_cell_volume                     7533.22
loop_
_atom_site_label
_atom_site_type_symbol
_atom_site_fract_x
_atom_site_fract_y
_atom_site_fract_z
Cd1 Cd 0.12704(4) 0.97646(5) 0.14757(3)
Cd2 Cd 0.86518(4) 0.43401(5) 0.14298(3)
Cd3 Cd 0.37085(4) 0.97196(6) 0.64326(3)
Cd4 Cd 0.36844(4) 0.93533(5) 0.35525(3)
Cd5 Cd 0.39837(4) 0.95303(5) 0.49935(3)
Cd6 Cd 0.10231(4) 0.93674(6) 0.00474(3)
Cd7 Cd 0.25446(4) 0.95261(7) 0.74985(3)
Cd8 Cd 0.24650(4) 0.95546(7) 0.25115(3)
O1 O 0.1843(5) 1.0604(5) 0.2080(3)
O2 O 0.8558(5) 1.3072(6) 0.0047(4)
O3 O 1.3158(5) 0.8979(5) 0.4310(3)
O4 O 0.3513(6) 1.0812(5) 0.5033(4)
O5 O 0.3168(5) 1.0537(6) 0.7045(4)
O6 O 0.1829(5) 0.9999(6) 0.0715(4)
O7 O 1.3497(5) 0.8238(5) 0.4986(4)
O8 O 0.3159(5) 1.0082(6) 0.5674(3)
O9 O 0.1640(6) 1.0592(6) -0.0016(4)
O10 O -0.0508(4) 1.4239(6) 0.7949(3)
O11 O 0.3091(5) 0.8523(5) 0.2944(4)
O12 O 0.5221(5) 1.4895(11) 0.4069(4)
O13 O -0.0278(4) 0.4246(6) 0.0940(4)
O14 O 0.3526(4) 1.0217(7) 0.2392(4)
O15 O 0.4414(5) 0.9996(5) 0.3011(3)
O16 O -0.0188(4) 1.4999(5) 0.9008(3)
O17 O 0.6408(4) 1.3773(6) 0.2470(4)
O18 O -0.1390(5) 1.3885(7) 0.7375(4)
O19 O 0.9061(6) 1.2870(7) 0.1715(4)
O20 O 0.5494(5) 1.4175(7) 0.3010(3)
O21 O 0.2546(6) 0.9137(6) 0.1680(3)
O22 O 0.4106(7) 1.1175(6) 0.6701(5)
O23 O 0.7998(6) 0.5505(7) 0.1206(4)
O24 O 0.1737(5) 0.8402(8) 0.1214(4)
O25 O 0.9428(5) 0.4952(6) 0.1986(4)
O26 O -0.2398(7) 0.4930(8) 0.6651(4)
C1 C 0.0189(5) 1.4360(8) 0.9159(4)
C2 C 0.4798(6) 1.4326(9) 0.4261(6)
C3 C 0.5965(6) 0.9821(8) 0.4032(4)
C4 C 0.2575(7) 1.3995(10) 0.3626(6)
O27 O 0.2302(8) 0.9153(7) 0.6680(4)
C5 C 0.0961(6) 0.4846(7) 0.0936(5)
O28 O 0.3119(6) 0.8484(7) 0.6203(4)
C6 C 0.1099(7) 0.4593(9) 0.1437(5)
H1 H 0.0721 0.4325 0.1616
O29 O 0.1862(5) 1.3865(7) 0.3409(5)
O30 O 0.3114(5) 1.3791(6) 0.8387(4)
C7 C 0.1172(6) 1.4612(8) 0.8521(4)
H2 H 0.0830 1.4944 0.8345
O31 O 1.1434(6) 0.5582(7) 0.3944(4)
C8 C 0.8400(7) 1.2209(8) 0.2386(5)
O32 O -0.0089(5) 1.3832(7) 0.9444(4)
O33 O 0.1550(6) 1.3559(5) 0.6056(4)
C9 C 1.1762(8) 0.7021(8) 0.3812(6)
H3 H 1.1433 0.7073 0.3534
C10 C 0.3873(7) 1.3118(9) 0.7793(5)
H4 H 0.4250 1.3506 0.7853
O34 O 0.8080(6) 1.0290(8) 0.3413(5)
C11 C 1.2697(7) 0.7621(8) 0.4386(5)
C12 C 1.3142(6) 0.8317(8) 0.4566(5)
C13 C 0.8819(6) 1.0953(8) 0.2797(5)
H5 H 0.9183 1.0546 0.2845
O35 O 0.0804(6) 1.1167(7) 0.1797(4)
C14 C 0.2341(7) 1.1384(11) 0.0608(5)
C15 C 0.2222(7) 1.1411(8) 0.6005(5)
H6 H 0.2145 1.0897 0.6151
C16 C 0.6173(7) 0.9502(14) 0.3550(5)
H7 H 0.5837 0.9168 0.3369
C17 C 0.3407(6) 0.7237(8) 0.2591(5)
C18 C 0.2635(7) 1.2566(10) 0.7968(6)
H8 H 0.2177 1.2599 0.8138
C19 C 0.2471(10) 1.2920(10) 0.5587(7)
H9 H 0.2553 1.3433 0.5440
C20 C 0.1505(7) 1.1914(7) 0.2421(5)
C21 C 0.3106(7) 1.4428(11) 0.3349(5)
H10 H 0.2984 1.4654 0.3033
C22 C 0.3208(9) 1.2003(12) 0.1205(5)
H11 H 0.3539 1.1963 0.1482
C23 C 0.9200(6) 0.5171(7) 0.2413(5)
C24 C 0.1363(6) 1.1201(8) 0.2070(5)
C25 C 0.3176(7) 1.3162(8) 0.8052(6)
C26 C 0.7372(8) 0.5397(9) 0.1375(5)
O36 O 0.3477(8) 1.3467(7) 0.1052(5)
C27 C 0.5727(7) 1.3883(10) 0.2580(5)
O37 O 0.6531(8) 1.0453(8) 0.1123(5)
C28 C 0.7188(6) 1.2634(10) 0.1026(5)
H12 H 0.7093 1.3147 0.1167
O38 O 0.4978(6) 1.0108(8) 0.4588(5)
C29 C 0.2792(6) 1.1348(11) 0.1045(6)
H13 H 0.2808 1.0863 0.1233
C30 C 0.1799(7) 1.3218(8) 0.3069(5)
C31 C 0.4817(6) 1.0346(8) 0.2190(5)
C32 C 0.3150(7) 1.0764(8) 0.5451(5)
C33 C 0.5130(6) 1.3718(8) 0.2181(5)
C34 C 0.3982(8) 1.2486(9) 0.7447(6)
H14 H 0.4431 1.2468 0.7264
C35 C 0.8953(7) 1.1597(9) 0.2454(5)
H15 H 0.9403 1.1618 0.2273
C36 C -0.0124(7) 1.3775(8) 0.7132(5)
C37 C 1.0530(7) 0.5465(8) 0.2686(5)
H16 H 1.0673 0.5443 0.2346
C38 C 0.3439(7) 1.1877(8) 0.7365(5)
C39 C 0.1102(7) 1.3199(8) 0.2799(6)
H17 H 0.0745 1.3615 0.2833
C40 C 0.1802(7) 1.2080(9) 0.6168(5)
H18 H 0.1437 1.2016 0.6418
C41 C 0.1892(7) 1.0603(10) 0.0424(5)
C42 C 0.2385(7) 1.3916(8) 0.8594(5)
C43 C 0.9760(7) 0.5378(8) 0.2815(5)
C44 C 0.7484(9) 1.1037(10) 0.0625(5)
H19 H 0.7598 1.0511 0.0511
C45 C 0.4374(7) 1.3676(8) 0.2305(5)
H20 H 0.4228 1.3736 0.2642
C46 C 1.2187(7) 0.7691(8) 0.3971(5)
H21 H 1.2136 0.8192 0.3802
C47 C 0.0618(7) 1.3683(9) 0.7292(5)
H22 H 0.0733 1.3687 0.7639
C48 C 0.5562(6) 1.0453(8) 0.2344(5)
H23 H 0.5678 1.0462 0.2691
C49 C 0.2201(7) 1.1973(8) 0.2686(6)
H24 H 0.2567 1.1571 0.2637
C50 C 0.2727(8) 1.1498(8) 0.5647(5)
C51 C 0.3596(8) 1.1154(10) 0.7019(6)
C52 C 0.4203(6) 1.0178(8) 0.2562(5)
C53 C 0.1899(7) 1.4468(11) 0.8327(5)
H25 H 0.2058 1.4727 0.8031
C54 C 0.3953(8) 0.6614(8) 0.2520(7)
H26 H 0.4402 0.6630 0.2709
C55 C 0.7714(7) 1.2149(9) 0.2645(5)
H27 H 0.7339 1.2542 0.2590
C56 C 0.7738(6) 1.2522(9) 0.0646(4)
O39 O -0.0033(7) 0.7012(11) 0.5419(5)
C57 C 1.0084(9) 0.5531(11) 0.3698(6)
H28 H 0.9931 0.5575 0.4035
C58 C 0.1196(8) 1.3583(10) 0.6943(6)
H29 H 0.1699 1.3541 0.7047
C59 C 1.0868(8) 0.5591(9) 0.3564(5)
O40 O 0.4924(7) 0.7053(11) 0.0444(4)
C60 C 1.1075(8) 0.5584(9) 0.3064(7)
H30 H 1.1580 0.5659 0.2977
C61 C 0.6143(7) 1.0546(8) 0.1994(6)
H31 H 0.6643 1.0636 0.2096
C62 C -0.0720(7) 1.3983(8) 0.7518(5)
C63 C 0.1931(8) 1.2835(8) 0.5958(5)
C64 C 0.3599(7) 0.7252(8) 0.0496(5)
H32 H 0.3539 0.6929 0.0206
C65 C 0.2972(8) 0.7618(10) 0.0722(6)
H33 H 0.2493 0.7540 0.0579
C66 C 0.8523(6) 1.2882(7) 0.2029(5)
C67 C 0.6197(9) 0.6773(13) 0.0494(6)
H34 H 0.6270 0.7098 0.0207
C68 C 0.3118(7) 1.2744(11) 0.0934(5)
C69 C 0.2576(7) 0.6494(8) 0.2021(6)
H35 H 0.2102 0.6432 0.1868
O41 O 0.5002(7) 1.3934(7) 0.4631(6)
C70 C -0.1366(12) 0.6821(12) 0.5466(6)
H36 H -0.1438 0.7138 0.5175
C71 C 0.2756(7) 1.1921(8) 0.7636(5)
H37 H 0.2388 1.1517 0.7592
C72 C 0.1510(8) 1.3775(10) 0.9240(6)
H38 H 0.1393 1.3575 0.9562
C73 C 0.2398(9) 0.8571(9) 0.1359(5)
C74 C 0.6864(8) 0.9681(10) 0.3351(5)
H39 H 0.6983 0.9502 0.3024
C75 C 0.2351(6) 1.2611(9) 0.3017(6)
H40 H 0.2804 1.2636 0.3200
C76 C 0.2269(7) 1.2098(10) 0.0355(5)
H41 H 0.1960 1.2115 0.0066
C77 C 0.3827(7) 1.3543(9) 0.1927(6)
H42 H 0.3318 1.3521 0.2013
C78 C 0.1810(9) 0.8157(9) 0.6164(5)
C79 C 0.2711(6) 0.7151(9) 0.2345(5)
H43 H 0.2332 0.7538 0.2398
C80 C 0.0991(8) 1.3550(9) 0.6444(5)
C81 C -0.1967(10) 0.6427(10) 0.5695(6)
H44 H -0.2450 0.6491 0.5556
C82 C 0.2636(9) 1.2806(10) 0.0507(5)
H45 H 0.2568 1.3300 0.0334
C83 C 0.9578(9) 0.5409(11) 0.3315(7)
H46 H 0.9072 0.5341 0.3401
C84 C 0.3469(9) 1.3832(9) 0.4331(6)
H47 H 0.3573 1.3635 0.4657
C85 C 0.5335(7) 1.3624(12) 0.1681(6)
H48 H 0.5840 1.3636 0.1586
C86 C 0.4023(9) 1.3448(11) 0.1457(7)
C87 C 0.0973(7) 1.2524(8) 0.2477(6)
H49 H 0.0517 1.2488 0.2297
C88 C -0.1878(9) 0.5950(10) 0.6117(5)
C89 C 0.2891(10) 1.2255(10) 0.5430(6)
H50 H 0.3270 1.2310 0.5189
C90 C 0.7859(8) 1.1681(9) 0.0451(5)
H51 H 0.8213 1.1601 0.0196
C91 C 0.2216(7) 0.5356(10) 0.0859(6)
H52 H 0.2589 0.5606 0.0665
C92 C 0.6789(8) 0.6334(11) 0.0712(5)
H53 H 0.7257 0.6337 0.0552
C93 C -0.0556(9) 0.6247(13) 0.6130(6)
H54 H -0.0080 0.6185 0.6280
C94 C 0.3778(7) 0.8256(11) 0.1366(6)
H55 H 0.3839 0.8600 0.1647
C95 C 0.7211(7) 1.0414(8) 0.4089(6)
H56 H 0.7578 1.0704 0.4272
C96 C 0.2215(8) 1.3590(12) 0.9034(8)
H57 H 0.2554 1.3245 0.9204
O42 O 0.8127(4) 1.3907(6) 0.0678(3)
C97 C 0.4631(8) 1.0330(11) 0.1672(6)
H58 H 0.4129 1.0261 0.1570
C98 C 0.4313(7) 0.7376(10) 0.0709(6)
C99 C 0.4422(10) 0.7876(12) 0.1138(7)
H59 H 0.4905 0.7961 0.1273
O43 O 0.8095(5) 1.3532(5) 0.2050(4)
C100 C 0.1095(15) 0.8177(16) 0.6371(7)
H60 H 0.1046 0.8415 0.6691
C101 C -0.1148(11) 0.5882(10) 0.6334(6)
H61 H -0.1080 0.5572 0.6629
C102 C -0.0302(8) 1.3702(10) 0.6634(5)
H62 H -0.0807 1.3699 0.6530
C103 C 0.2748(8) 1.3721(9) 0.4092(7)
H63 H 0.2377 1.3440 0.4271
C104 C 0.1909(9) 0.7670(9) 0.5711(7)
H64 H 0.2387 0.7591 0.5574
C105 C 0.0575(9) 0.7359(13) 0.5700(6)
C106 C 0.0459(10) 0.7877(13) 0.6144(6)
H65 H -0.0022 0.7994 0.6266
C107 C 0.6011(7) 0.5862(12) 0.1366(6)
H66 H 0.5935 0.5552 0.1659
C108 C -0.0637(14) 0.6727(14) 0.5690(7)
O44 O 0.8500(5) 0.5271(6) 0.2528(5)
O45 O 0.4766(5) 0.9163(7) 0.4032(4)
C109 C 0.4017(7) 1.4258(9) 0.4045(4)
C110 C 0.0252(11) 1.3632(10) 0.6282(6)
H67 H 0.0134 1.3639 0.5936
C111 C 0.0975(5) 1.4251(7) 0.8978(4)
C112 C 0.6716(8) 0.5905(10) 0.1147(5)
C113 C 0.0178(6) 0.4654(7) 0.0701(4)
C114 C 0.5421(8) 0.6292(15) 0.1140(6)
H68 H 0.4950 0.6284 0.1296
C115 C 0.5498(8) 0.6709(13) 0.0717(6)
O46 O 0.7185(7) 0.4840(9) 0.1691(4)
O47 O -0.3186(6) 0.5613(6) 0.6157(4)
C116 C 0.6915(8) 1.1162(10) 0.0983(6)
C117 C 0.6782(10) 1.1913(10) 0.1186(6)
H69 H 0.6415 1.1964 0.1436
O48 O 0.3069(5) 0.5284(7) 0.1594(5)
C118 C 0.8151(6) 1.0919(8) 0.3064(5)
C119 C 0.6516(7) 1.0295(9) 0.4293(6)
H70 H 0.6401 1.0527 0.4607
O49 O 0.4132(9) 0.7958(9) 0.3230(8)
C120 C 0.3144(7) 0.5925(9) 0.1922(6)
C121 C 0.7586(6) 1.1497(9) 0.2988(5)
H71 H 0.7129 1.1456 0.3159
C122 C 0.1808(7) 0.4737(11) 0.1673(6)
H72 H 0.1903 0.4583 0.2009
C123 C 0.5208(7) 0.9704(9) 0.4231(6)
C124 C 0.1528(7) 0.5202(10) 0.0664(6)
H73 H 0.1431 0.5345 0.0326
C125 C 0.7371(7) 1.0113(9) 0.3622(6)
C126 C 0.2454(11) 0.8642(10) 0.6358(6)
C127 C 0.3839(6) 0.5992(8) 0.2180(5)
H74 H 0.4222 0.5613 0.2120
C128 C 0.5930(9) 1.0496(9) 0.1475(6)
C129 C 0.8164(6) 1.3202(9) 0.0442(4)
C130 C 0.3836(7) 1.4517(13) 0.3563(5)
H75 H 0.4211 1.4761 0.3368
C131 C 0.3053(8) 0.8102(9) 0.1162(5)
C132 C 1.1823(9) 0.6273(10) 0.4063(6)
C133 C 0.4740(9) 1.3506(15) 0.1311(6)
H76 H 0.4857 1.3469 0.0966
C134 C 1.2744(10) 0.6856(10) 0.4638(7)
H77 H 1.3053 0.6798 0.4925
C135 C 0.1266(10) 0.7320(13) 0.5483(7)
H78 H 0.1315 0.7051 0.5172
C136 C 0.2360(6) 0.5121(9) 0.1383(6)
C137 C 0.3567(8) 0.7938(8) 0.2932(5)
C138 C -0.2526(10) 0.5497(9) 0.6331(5)
C139 C 0.5214(8) 1.0420(12) 0.1291(6)
H79 H 0.5104 1.0424 0.0944
C140 C 1.2323(10) 0.6183(11) 0.4455(7)
H80 H 1.2389 0.5670 0.4605
O50 O 0.0058(6) 0.4945(9) 0.0264(4)
Cd1A Cd -0.12704(4) 1.47646(5) 0.85243(3)
Cd2_2 Cd -0.13482(4) 0.43401(5) 0.14298(3)
Cd2_3 Cd 0.86518(4) 1.43401(5) 0.14298(3)
Cd3A Cd 0.62915(4) 1.47196(6) 0.35674(3)
Cd4_2 Cd 1.36844(4) 0.93533(5) 0.35525(3)
Cd4A Cd -0.36844(4) 0.43533(5) 0.64475(3)
Cd5_2 Cd 1.39837(4) 0.95303(5) 0.49935(3)
Cd5A Cd 0.60163(4) 1.45303(5) 0.50065(3)
Cd6A Cd -0.10231(4) 0.43674(6) -0.00474(3)
Cd6A_2 Cd -0.10231(4) 1.43674(6) 0.99526(3)
Cd6A_3 Cd 0.89769(4) 1.43674(6) -0.00474(3)
Cd7A Cd 0.74554(4) 0.45261(7) 0.25015(3)
Cd7A_2 Cd 0.74554(4) 1.45261(7) 0.25015(3)
Cd8A Cd -0.24650(4) 0.45546(7) 0.74885(3)
Cd8A_2 Cd -0.24650(4) 1.45546(7) 0.74885(3)
O2A O 0.1442(5) 0.8072(6) -0.0047(4)
O3_2 O 0.3158(5) 0.8979(5) 0.4310(3)
O7_2 O 0.3497(5) 0.8238(5) 0.4986(4)
O10A O 0.0508(4) 0.9239(6) 0.2051(3)
O12A O 0.4779(5) 0.9895(11) 0.5931(4)
O13_2 O 0.9722(4) 0.4246(6) 0.0940(4)
O16A O 0.0188(4) 0.9999(5) 0.0992(3)
O17A O 0.3592(4) 0.8773(6) 0.7530(4)
O18A O 0.1390(5) 0.8885(7) 0.2625(4)
O19_2 O 0.9061(6) 0.2870(7) 0.1715(4)
O20A O 0.4506(5) 0.9175(7) 0.6990(3)
O26A O 0.2398(7) 0.9930(8) 0.3349(4)
O32A O 0.0089(5) 0.8832(7) 0.0556(4)
O41A O 0.4998(7) 0.8934(7) 0.5369(6)
O42_2 O 0.8127(4) 0.3907(6) 0.0678(3)
O42A O 0.1873(4) 0.8907(6) -0.0678(3)
O43_2 O 0.8095(5) 0.3532(5) 0.2050(4)
O43A O 0.1905(5) 0.8532(5) 0.7950(4)
O44A O 0.1500(5) 1.0271(6) 0.7472(5)
O46A O 0.2815(7) 0.9840(9) 0.8309(4)
O47A O 0.3186(6) 1.0613(6) 0.3843(4)
O50A O -0.0058(6) 0.9945(9) -0.0264(4)
O51 O 0.0410(5) 0.6429(6) -0.0048(4)
H81 H 0.0267 0.5973 0.0044
N1 N 0.0349(6) 0.6709(7) -0.1111(4)
C141 C -0.0701(9) 0.7639(9) -0.1020(6)
H82 H -0.0554 0.7928 -0.1322
H83 H -0.0956 0.8009 -0.0794
H84 H -0.1036 0.7197 -0.1111
C142 C -0.0215(10) 0.6867(13) -0.0279(6)
H85 H -0.0402 0.7266 -0.0037
H86 H -0.0621 0.6481 -0.0350
C143 C -0.0020(8) 0.7303(9) -0.0762(5)
H87 H 0.0332 0.7753 -0.0685
N2 N 0.0539(5) 0.7280(7) 0.0895(4)
C144 C -0.0657(8) 0.6857(16) 0.1275(7)
H88 H -0.0907 0.6569 0.1550
H89 H -0.0836 0.7421 0.1271
O52 O -0.0828(9) 0.6479(11) 0.0810(5)
H90 H -0.1178 0.6154 0.0848
C145 C 0.0441(9) 0.7258(12) 0.1840(6)
H91 H 0.0982 0.7228 0.1871
H92 H 0.0214 0.6990 0.2127
H93 H 0.0286 0.7823 0.1831
C146 C 0.0191(9) 0.6840(9) 0.1360(5)
H94 H 0.0365 0.6268 0.1367
C147 C 0.5705(16) 0.1413(17) -0.3877(10)
H95 H 0.5873 0.1599 -0.3547
H96 H 0.6131 0.1212 -0.4065
H97 H 0.5341 0.0980 -0.3837
N3 N 0.4655(19) 0.2506(16) -0.3877(7)
O53 O 0.4653(9) 0.2430(13) -0.4912(7)
H98 H 0.4912 0.2809 -0.5020
C148 C 0.5132(17) 0.1815(19) -0.4700(7)
H99 H 0.5581 0.1747 -0.4905
H100 H 0.4868 0.1292 -0.4684
C149 C 0.5349(13) 0.2110(14) -0.4160(7)
H101 H 0.5735 0.2538 -0.4196
C150 C 0.5663(14) 0.7045(15) -0.3238(9)
H102 H 0.5385 0.7077 -0.2926
H103 H 0.5847 0.7581 -0.3327
H104 H 0.6083 0.6676 -0.3195
O54 O 0.4153(13) 0.7189(11) -0.4150(7)
H105 H 0.3782 0.7490 -0.4172
C151 C 0.5168(16) 0.6743(11) -0.3644(7)
H106 H 0.4976 0.6196 -0.3558
N4 N 0.5715(14) 0.6684(15) -0.4108(7)
C152 C 0.4516(17) 0.7336(12) -0.3715(9)
H107 H 0.4168 0.7280 -0.3433
H108 H 0.4707 0.7895 -0.3715
loop_
_geom_bond_atom_site_label_1
_geom_bond_atom_site_label_2
_geom_bond_site_symmetry_1
_geom_bond_site_symmetry_2
Cd1 O1 1_555 1_555
Cd2 O23 1_555 1_555
Cd3 O5 1_555 1_555
Cd4 O11 1_555 1_555
Cd5 O4 1_555 1_555
Cd6 O6 1_555 1_555
Cd7 O5 1_555 1_555
Cd8 O1 1_555 1_555
O1 C24 1_555 1_555
O2 C129 1_555 1_555
O3 C12 1_555 1_555
O4 C32 1_555 1_555
O5 C51 1_555 1_555
O6 Cd1 1_555 1_555
O7 C12 1_555 1_555
O8 Cd3 1_555 1_555
O9 Cd6 1_555 1_555
O10 C62 1_555 1_555
O11 Cd8 1_555 1_555
O12 C2 1_555 1_555
O13 C113 1_555 1_555
O14 Cd8 1_555 1_555
O15 Cd4 1_555 1_555
O16 C1 1_555 1_555
O17 C27 1_555 1_555
O18 C62 1_555 1_555
O19 C66 1_555 1_555
O20 C27 1_555 1_555
O21 Cd1 1_555 1_555
O22 Cd3 1_555 1_555
O23 C26 1_555 1_555
O24 Cd1 1_555 1_555
O25 Cd2 1_555 1_555
O26 C138 1_555 1_555
C1 O32 1_555 1_555
C2 O41 1_555 1_555
C3 C16 1_555 1_555
C4 O29 1_555 1_555
O27 Cd3 1_555 1_555
C5 C6 1_555 1_555
O28 Cd3 1_555 1_555
C6 H1 1_555 1_555
O29 C30 1_555 1_555
O30 C25 1_555 1_555
C7 H2 1_555 1_555
O31 C59 1_555 1_555
C8 C35 1_555 1_555
O32 Cd6A_2 1_555 1_555
O33 C63 1_555 1_555
C9 H3 1_555 1_555
C10 H4 1_555 1_555
O34 C118 1_555 1_555
C11 C12 1_555 1_555
C13 H5 1_555 1_555
O35 Cd1 1_555 1_555
C14 C29 1_555 1_555
C15 H6 1_555 1_555
C16 H7 1_555 1_555
C17 C54 1_555 1_555
C18 H8 1_555 1_555
C19 H9 1_555 1_555
C20 C24 1_555 1_555
C21 C4 1_555 1_555
H10 C21 1_555 1_555
C22 H11 1_555 1_555
C23 O25 1_555 1_555
C24 O35 1_555 1_555
C25 C10 1_555 1_555
C26 C112 1_555 1_555
O36 C68 1_555 1_555
C27 C33 1_555 1_555
O37 C116 1_555 1_555
C28 H12 1_555 1_555
O38 Cd5 1_555 1_555
C29 C22 1_555 1_555
H13 C29 1_555 1_555
C30 C39 1_555 1_555
C31 C48 1_555 1_555
C32 O8 1_555 1_555
C33 C45 1_555 1_555
C34 C10 1_555 1_555
H14 C34 1_555 1_555
C35 C13 1_555 1_555
H15 C35 1_555 1_555
C36 C47 1_555 1_555
C37 H16 1_555 1_555
C38 C34 1_555 1_555
C39 H17 1_555 1_555
C40 C15 1_555 1_555
H18 C40 1_555 1_555
C41 O6 1_555 1_555
C42 O30 1_555 1_555
C43 C23 1_555 1_555
C44 H19 1_555 1_555
C45 H20 1_555 1_555
C46 C9 1_555 1_555
H21 C46 1_555 1_555
C47 H22 1_555 1_555
C48 H23 1_555 1_555
C49 C20 1_555 1_555
H24 C49 1_555 1_555
C50 C15 1_555 1_555
C51 O22 1_555 1_555
C52 O14 1_555 1_555
C53 C7 1_555 1_555
H25 C53 1_555 1_555
C54 H26 1_555 1_555
C55 C8 1_555 1_555
H27 C55 1_555 1_555
C56 C28 1_555 1_555
O39 C105 1_555 1_555
C57 H28 1_555 1_555
C58 C47 1_555 1_555
H29 C58 1_555 1_555
C59 C57 1_555 1_555
O40 C98 1_555 1_555
C60 C37 1_555 1_555
H30 C60 1_555 1_555
C61 C48 1_555 1_555
H31 C61 1_555 1_555
C62 C36 1_555 1_555
C63 C19 1_555 1_555
C64 H32 1_555 1_555
C65 C64 1_555 1_555
H33 C65 1_555 1_555
C66 C8 1_555 1_555
C67 H34 1_555 1_555
C68 C22 1_555 1_555
C69 H35 1_555 1_555
O41 Cd5A 1_555 1_555
C70 H36 1_555 1_555
C71 C18 1_555 1_555
H37 C71 1_555 1_555
C72 H38 1_555 1_555
C73 O21 1_555 1_555
C74 C16 1_555 1_555
H39 C74 1_555 1_555
C75 C30 1_555 1_555
H40 C75 1_555 1_555
C76 C14 1_555 1_555
H41 C76 1_555 1_555
C77 C45 1_555 1_555
H42 C77 1_555 1_555
C78 C100 1_555 1_555
C79 C17 1_555 1_555
H43 C79 1_555 1_555
C80 O33 1_555 1_555
C81 C70 1_555 1_555
H44 C81 1_555 1_555
C82 C68 1_555 1_555
H45 C82 1_555 1_555
C83 C43 1_555 1_555
H46 C83 1_555 1_555
C84 H47 1_555 1_555
C85 C33 1_555 1_555
H48 C85 1_555 1_555
C86 O36 1_555 1_555
C87 C20 1_555 1_555
H49 C87 1_555 1_555
C88 C81 1_555 1_555
C89 C19 1_555 1_555
H50 C89 1_555 1_555
C90 C44 1_555 1_555
H51 C90 1_555 1_555
C91 H52 1_555 1_555
C92 C67 1_555 1_555
H53 C92 1_555 1_555
C93 H54 1_555 1_555
C94 H55 1_555 1_555
C95 H56 1_555 1_555
C96 C42 1_555 1_555
H57 C96 1_555 1_555
O42 C129 1_555 1_555
C97 C31 1_555 1_555
H58 C97 1_555 1_555
C98 C64 1_555 1_555
C99 C94 1_555 1_555
H59 C99 1_555 1_555
O43 C66 1_555 1_555
C100 H60 1_555 1_555
C101 C88 1_555 1_555
H61 C101 1_555 1_555
C102 C36 1_555 1_555
H62 C102 1_555 1_555
C103 C4 1_555 1_555
H63 C103 1_555 1_555
C104 C78 1_555 1_555
H64 C104 1_555 1_555
C105 C106 1_555 1_555
C106 C100 1_555 1_555
H65 C106 1_555 1_555
C107 H66 1_555 1_555
C108 O39 1_555 1_555
O44 C23 1_555 1_555
O45 Cd4 1_555 1_555
C109 C2 1_555 1_555
C110 C80 1_555 1_555
H67 C110 1_555 1_555
C111 C1 1_555 1_555
C112 C92 1_555 1_555
C113 C5 1_555 1_555
C114 C107 1_555 1_555
H68 C114 1_555 1_555
C115 O40 1_555 1_555
O46 Cd2 1_555 1_555
O47 C138 1_555 1_555
C116 C44 1_555 1_555
C117 C28 1_555 1_555
H69 C117 1_555 1_555
O48 C120 1_555 1_555
C118 C13 1_555 1_555
C119 C3 1_555 1_555
H70 C119 1_555 1_555
O49 Cd4 1_555 1_555
C120 C69 1_555 1_555
C121 C55 1_555 1_555
H71 C121 1_555 1_555
C122 C6 1_555 1_555
H72 C122 1_555 1_555
C123 C3 1_555 1_555
C124 C5 1_555 1_555
H73 C124 1_555 1_555
C125 O34 1_555 1_555
C126 O27 1_555 1_555
C127 C54 1_555 1_555
H74 C127 1_555 1_555
C128 O37 1_555 1_555
C129 C56 1_555 1_555
C130 C21 1_555 1_555
H75 C130 1_555 1_555
C131 C65 1_555 1_555
C132 O31 1_555 1_555
C133 C85 1_555 1_555
H76 C133 1_555 1_555
C134 C11 1_555 1_555
H77 C134 1_555 1_555
C135 C104 1_555 1_555
H78 C135 1_555 1_555
C136 C91 1_555 1_555
C137 O11 1_555 1_555
C138 C88 1_555 1_555
C139 C97 1_555 1_555
H79 C139 1_555 1_555
C140 C132 1_555 1_555
H80 C140 1_555 1_555
O50 C113 1_555 1_555
O51 H81 1_555 1_555
N1 C143 1_555 1_555
C141 H82 1_555 1_555
H83 C141 1_555 1_555
H84 C141 1_555 1_555
C142 O51 1_555 1_555
H85 C142 1_555 1_555
H86 C142 1_555 1_555
C143 C141 1_555 1_555
H87 C143 1_555 1_555
N2 C146 1_555 1_555
C144 H88 1_555 1_555
H89 C144 1_555 1_555
O52 C144 1_555 1_555
H90 O52 1_555 1_555
C145 H91 1_555 1_555
H92 C145 1_555 1_555
H93 C145 1_555 1_555
C146 C144 1_555 1_555
H94 C146 1_555 1_555
C147 H95 1_555 1_555
H96 C147 1_555 1_555
H97 C147 1_555 1_555
N3 C149 1_555 1_555
O53 H98 1_555 1_555
C148 O53 1_555 1_555
H99 C148 1_555 1_555
H100 C148 1_555 1_555
C149 C147 1_555 1_555
H101 C149 1_555 1_555
C150 H102 1_555 1_555
H103 C150 1_555 1_555
H104 C150 1_555 1_555
O54 H105 1_555 1_555
C151 C150 1_555 1_555
H106 C151 1_555 1_555
N4 C151 1_555 1_555
C152 O54 1_555 1_555
H107 C152 1_555 1_555
H108 C152 1_555 1_555
Cd1A O10 1_555 1_555
Cd2_2 O13 1_555 1_555
Cd2_3 O19 1_555 1_555
Cd3A O12 1_555 1_555
Cd4_2 O3 1_555 1_555
Cd4A O26 1_555 1_555
Cd5_2 O3 1_555 1_555
Cd6A O50 1_555 1_555
Cd6A_3 O2 1_555 1_555
Cd7A O44 1_555 1_555
Cd7A_2 O17 1_555 1_555
Cd8A O26 1_555 1_555
Cd8A_2 O18 1_555 1_555
O2A Cd6 1_555 1_555
O3_2 Cd4 1_555 1_555
O7_2 Cd5 1_555 1_555
O10A Cd1 1_555 1_555
O12A Cd3 1_555 1_555
O13_2 Cd2 1_555 1_555
O16A Cd1 1_555 1_555
O17A Cd7 1_555 1_555
O18A Cd8 1_555 1_555
O19_2 Cd2 1_555 1_555
O20A Cd3 1_555 1_555
O26A Cd4 1_555 1_555
O32A Cd6 1_555 1_555
O41A Cd5 1_555 1_555
O42_2 Cd2 1_555 1_555
O42A Cd6 1_555 1_555
O43_2 Cd2 1_555 1_555
O43A Cd7 1_555 1_555
O44A Cd7 1_555 1_555
O46A Cd7 1_555 1_555
O47A Cd4 1_555 1_555
O50A Cd6 1_555 1_555
Cd5 O8 1_555 1_555
Cd5 O3_2 1_555 1_555
Cd7 O27 1_555 1_555
Cd8 O21 1_555 1_555
Cd8 O26A 1_555 1_555
O7 Cd5_2 1_555 1_555
O9 C41 1_555 1_555
O15 C52 1_555 1_555
O16 Cd1A 1_555 1_555
O20 Cd3A 1_555 1_555
O24 C73 1_555 1_555
O28 C126 1_555 1_555
C7 C111 1_555 1_555
C9 C132 1_555 1_555
C11 C46 1_555 1_555
C14 C41 1_555 1_555
C17 C137 1_555 1_555
C18 C25 1_555 1_555
C26 O46 1_555 1_555
O38 C123 1_555 1_555
C31 C52 1_555 1_555
C32 C50 1_555 1_555
C37 C43 1_555 1_555
C38 C51 1_555 1_555
C38 C71 1_555 1_555
C39 C87 1_555 1_555
C40 C63 1_555 1_555
C42 C53 1_555 1_555
C49 C75 1_555 1_555
C50 C89 1_555 1_555
C56 C90 1_555 1_555
C57 C83 1_555 1_555
C58 C80 1_555 1_555
C59 C60 1_555 1_555
C61 C128 1_555 1_555
C67 C115 1_555 1_555
C69 C79 1_555 1_555
C70 C108 1_555 1_555
C72 C96 1_555 1_555
C72 C111 1_555 1_555
C73 C131 1_555 1_555
C74 C125 1_555 1_555
C76 C82 1_555 1_555
C77 C86 1_555 1_555
C78 C126 1_555 1_555
C84 C103 1_555 1_555
C84 C109 1_555 1_555
C86 C133 1_555 1_555
C91 C124 1_555 1_555
C93 C101 1_555 1_555
C93 C108 1_555 1_555
C94 C131 1_555 1_555
C95 C119 1_555 1_555
C95 C125 1_555 1_555
O42 Cd2_3 1_555 1_555
O42 Cd6A_3 1_555 1_555
C98 C99 1_555 1_555
O43 Cd2_3 1_555 1_555
O43 Cd7A_2 1_555 1_555
C102 C110 1_555 1_555
C105 C135 1_555 1_555
C107 C112 1_555 1_555
O45 C123 1_555 1_555
C109 C130 1_555 1_555
C114 C115 1_555 1_555
O46 Cd7A 1_555 1_555
O47 Cd4A 1_555 1_555
C116 C117 1_555 1_555
O48 C136 1_555 1_555
C118 C121 1_555 1_555
O49 C137 1_555 1_555
C120 C127 1_555 1_555
C122 C136 1_555 1_555
C128 C139 1_555 1_555
C134 C140 1_555 1_555
C142 C143 1_555 1_555
C145 C146 1_555 1_555
C148 C149 1_555 1_555
C151 C152 1_555 1_555
Cd7A O43_2 1_555 1_555

#END
