
#######################################################################
#
#                 Cambridge Crystallographic Data Centre
#                                CCDC 
#
#######################################################################
#
# If this CIF has been generated from an entry in the Cambridge 
# Structural Database, then it will include bibliographic, chemical, 
# crystal, experimental, refinement or atomic coordinate data resulting 
# from the CCDC's data processing and validation procedures.
#
#######################################################################

data_JUQPEQ
_symmetry_cell_setting           triclinic
_symmetry_space_group_name_H-M   'P -1'
_symmetry_Int_Tables_number      2
_space_group_name_Hall           '-P 1'
loop_
_symmetry_equiv_pos_site_id
_symmetry_equiv_pos_as_xyz
1 x,y,z
2 -x,-y,-z
_cell_length_a                   10.524(2)
_cell_length_b                   10.671(3)
_cell_length_c                   19.359(6)
_cell_angle_alpha                76.22(2)
_cell_angle_beta                 86.52(2)
_cell_angle_gamma                88.07(2)
_cell_volume                     2107.16
loop_
_atom_site_label
_atom_site_type_symbol
_atom_site_fract_x
_atom_site_fract_y
_atom_site_fract_z
Ni1 Ni 0.20708(5) 0.49288(5) -0.27906(3)
S1 S 0.3584(1) 0.3738(1) -0.22314(6)
S2 S 0.2367(1) 0.6458(1) -0.22566(6)
S3 S 0.0621(1) 0.6156(1) -0.33793(7)
S4 S 0.1626(1) 0.3334(1) -0.32420(7)
Na1 Na 0.7481(2) 0.1987(2) -0.0253(1)
Na2 Na -0.3220(2) 0.7550(2) -0.5504(1)
O1 O 0.9445(3) 0.3081(3) -0.0656(2)
O2 O 0.8373(4) 0.1796(4) -0.1475(2)
O3 O 0.6612(4) 0.0199(3) -0.0682(2)
O4 O 0.7723(3) -0.0086(3) 0.0577(2)
O5 O 0.8881(3) 0.2083(3) 0.0689(2)
O6 O -0.4651(3) 0.7512(3) -0.4392(2)
O7 O -0.5309(4) 0.6583(4) -0.5517(2)
O8 O -0.4315(4) 0.8662(4) -0.6515(2)
O9 O -0.2069(5) 0.9508(3) -0.6136(2)
O10 O -0.2842(4) 0.9085(3) -0.4727(2)
N1 N 0.5891(4) 0.3605(4) -0.0878(2)
N2 N 0.4225(5) 0.7304(5) -0.0890(3)
N3 N -0.1908(4) 0.6063(4) -0.4631(2)
N4 N -0.0805(5) 0.2313(5) -0.4278(3)
C1 C 0.4103(4) 0.4641(4) -0.1684(2)
C2 C 0.3576(4) 0.5865(4) -0.1699(2)
C3 C 0.5088(5) 0.4099(4) -0.1227(2)
C4 C 0.3964(5) 0.6642(5) -0.1250(3)
C5 C -0.0091(4) 0.5154(4) -0.3810(2)
C6 C 0.0321(4) 0.3907(4) -0.3738(2)
C7 C -0.1112(5) 0.5660(4) -0.4260(3)
C8 C -0.0302(5) 0.3026(5) -0.4050(3)
C9 C 0.9857(5) 0.3356(6) -0.1398(3)
C10 C 0.8779(6) 0.3077(6) -0.1795(3)
C11 C 0.7358(6) 0.1400(6) -0.1816(3)
C12 C 0.6974(6) 0.0100(6) -0.1380(3)
C13 C 0.6648(6) -0.1020(5) -0.0185(4)
C14 C 0.6659(6) -0.0831(6) 0.0524(4)
C15 C 0.7897(7) 0.0108(6) 0.1250(3)
C16 C 0.9025(6) 0.0904(6) 0.1231(3)
C17 C 0.9966(5) 0.2825(4) 0.0528(3)
C18 C 1.0270(4) 0.3340(4) -0.0190(2)
C19 C 1.1353(5) 0.4074(5) -0.0388(3)
C20 C 1.2093(5) 0.4318(5) 0.0130(3)
C21 C 1.1765(5) 0.3852(5) 0.0835(3)
C22 C 1.0687(5) 0.3099(5) 0.1039(3)
C23 C -0.5552(6) 0.6482(6) -0.4295(3)
C24 C -0.6220(6) 0.6662(7) -0.4950(4)
C25 C -0.5814(7) 0.7062(8) -0.6206(4)
C26 C -0.5622(8) 0.8473(8) -0.6465(4)
C27 C -0.393(1) 0.9987(7) -0.6798(4)
C28 C -0.2518(9) 0.9976(6) -0.6810(4)
C29 C -0.1951(8) 1.0467(5) -0.5741(4)
C30 C -0.1727(6) 0.9807(5) -0.4992(4)
C31 C -0.2956(5) 0.8467(5) -0.4019(3)
C32 C -0.3957(5) 0.7607(5) -0.3844(3)
C33 C -0.4169(7) 0.6917(8) -0.3146(3)
C34 C -0.3425(8) 0.711(1) -0.2634(4)
C35 C -0.2465(7) 0.7960(9) -0.2791(3)
C36 C -0.2195(6) 0.8669(7) -0.3502(3)
H1 H 1.00753 0.42408 -0.15578
H2 H 1.05759 0.283 -0.14675
H3 H 0.90502 0.31398 -0.22797
H4 H 0.80977 0.36732 -0.1771
H5 H 0.66625 0.19951 -0.18356
H6 H 0.76308 0.13451 -0.22845
H7 H 0.76709 -0.04921 -0.13691
H8 H 0.62773 -0.01926 -0.15849
H9 H 0.59141 -0.1492 -0.02233
H10 H 0.73908 -0.14902 -0.02827
H11 H 0.67156 -0.16471 0.08533
H12 H 0.58984 -0.03942 0.06292
H13 H 0.7167 0.05356 0.14025
H14 H 0.8018 -0.07032 0.15732
H15 H 0.9772 0.04474 0.11241
H16 H 0.90853 0.11011 0.16824
H17 H 1.15834 0.44099 -0.0878
H18 H 1.2839 0.48137 -0.00067
H19 H 1.22708 0.40389 0.11872
H20 H 1.04513 0.27781 0.15295
H21 H -0.51129 0.56721 -0.42015
H22 H -0.61421 0.65154 -0.39087
H23 H -0.66343 0.74863 -0.50519
H24 H -0.68321 0.60097 -0.49006
H25 H -0.5396 0.66275 -0.65331
H26 H -0.67004 0.68971 -0.61726
H27 H -0.60258 0.89184 -0.61406
H28 H -0.59619 0.87727 -0.69204
H29 H -0.42055 1.02961 -0.72672
H30 H -0.42728 1.05199 -0.65027
H31 H -0.22316 1.08319 -0.69927
H32 H -0.21897 0.94432 -0.71112
H33 H -0.12571 1.10065 -0.59358
H34 H -0.27128 1.0969 -0.57514
H35 H -0.15846 1.04171 -0.47198
H36 H -0.09935 0.92411 -0.49736
H37 H -0.48386 0.63137 -0.30257
H38 H -0.35844 0.6636 -0.21563
H39 H -0.19622 0.80841 -0.24223
H40 H -0.15176 0.92611 -0.36164
S4A S -0.1626(1) 0.6666(1) -0.67580(7)
Na2A Na 0.3220(2) 0.2450(2) -0.4496(1)
Na1A Na 0.2519(2) 0.8013(2) 0.0253(1)
N2A N 0.5775(5) 0.2696(5) 0.0890(3)
loop_
_geom_bond_atom_site_label_1
_geom_bond_atom_site_label_2
_geom_bond_site_symmetry_1
_geom_bond_site_symmetry_2
Ni1 S1 1_555 1_555
S1 C1 1_555 1_555
S2 Ni1 1_555 1_555
S3 Ni1 1_555 1_555
S4 Ni1 1_555 1_555
Na1 O1 1_555 1_555
Na2 O6 1_555 1_555
O1 C9 1_555 1_555
O2 Na1 1_555 1_555
O3 Na1 1_555 1_555
O4 Na1 1_555 1_555
O5 Na1 1_555 1_555
O6 C23 1_555 1_555
O7 Na2 1_555 1_555
O8 Na2 1_555 1_555
O9 Na2 1_555 1_555
O10 Na2 1_555 1_555
N1 Na1 1_555 1_555
N2 C4 1_555 1_555
N3 Na2 1_555 1_555
N4 C8 1_555 1_555
C1 C2 1_555 1_555
C2 S2 1_555 1_555
C3 N1 1_555 1_555
C4 C2 1_555 1_555
C5 S3 1_555 1_555
C6 S4 1_555 1_555
C7 N3 1_555 1_555
C8 C6 1_555 1_555
C9 C10 1_555 1_555
C10 O2 1_555 1_555
C11 O2 1_555 1_555
C12 O3 1_555 1_555
C13 O3 1_555 1_555
C14 O4 1_555 1_555
C15 O4 1_555 1_555
C16 O5 1_555 1_555
C17 O5 1_555 1_555
C18 O1 1_555 1_555
C19 C18 1_555 1_555
C20 C19 1_555 1_555
C21 C20 1_555 1_555
C22 C17 1_555 1_555
C23 C24 1_555 1_555
C24 O7 1_555 1_555
C25 O7 1_555 1_555
C26 O8 1_555 1_555
C27 O8 1_555 1_555
C28 O9 1_555 1_555
C29 O9 1_555 1_555
C30 O10 1_555 1_555
C31 O10 1_555 1_555
C32 O6 1_555 1_555
C33 C32 1_555 1_555
C34 C33 1_555 1_555
C35 C34 1_555 1_555
C36 C31 1_555 1_555
H1 C9 1_555 1_555
H2 C9 1_555 1_555
H3 C10 1_555 1_555
H4 C10 1_555 1_555
H5 C11 1_555 1_555
H6 C11 1_555 1_555
H7 C12 1_555 1_555
H8 C12 1_555 1_555
H9 C13 1_555 1_555
H10 C13 1_555 1_555
H11 C14 1_555 1_555
H12 C14 1_555 1_555
H13 C15 1_555 1_555
H14 C15 1_555 1_555
H15 C16 1_555 1_555
H16 C16 1_555 1_555
H17 C19 1_555 1_555
H18 C20 1_555 1_555
H19 C21 1_555 1_555
H20 C22 1_555 1_555
H21 C23 1_555 1_555
H22 C23 1_555 1_555
H23 C24 1_555 1_555
H24 C24 1_555 1_555
H25 C25 1_555 1_555
H26 C25 1_555 1_555
H27 C26 1_555 1_555
H28 C26 1_555 1_555
H29 C27 1_555 1_555
H30 C27 1_555 1_555
H31 C28 1_555 1_555
H32 C28 1_555 1_555
H33 C29 1_555 1_555
H34 C29 1_555 1_555
H35 C30 1_555 1_555
H36 C30 1_555 1_555
H37 C33 1_555 1_555
H38 C34 1_555 1_555
H39 C35 1_555 1_555
H40 C36 1_555 1_555
S4A Na2 1_555 1_555
Na2A S4 1_555 1_555
Na1A N2 1_555 1_555
N2A Na1 1_555 1_555
C1 C3 1_555 1_555
C5 C7 1_555 1_555
C5 C6 1_555 1_555
C11 C12 1_555 1_555
C13 C14 1_555 1_555
C15 C16 1_555 1_555
C17 C18 1_555 1_555
C21 C22 1_555 1_555
C25 C26 1_555 1_555
C27 C28 1_555 1_555
C29 C30 1_555 1_555
C31 C32 1_555 1_555
C35 C36 1_555 1_555

#END
