
#######################################################################
#
#                 Cambridge Crystallographic Data Centre
#                                CCDC 
#
#######################################################################
#
# If this CIF has been generated from an entry in the Cambridge 
# Structural Database, then it will include bibliographic, chemical, 
# crystal, experimental, refinement or atomic coordinate data resulting 
# from the CCDC's data processing and validation procedures.
#
#######################################################################

data_JUQPAM
_symmetry_cell_setting           triclinic
_symmetry_space_group_name_H-M   'P -1'
_symmetry_Int_Tables_number      2
_space_group_name_Hall           '-P 1'
loop_
_symmetry_equiv_pos_site_id
_symmetry_equiv_pos_as_xyz
1 x,y,z
2 -x,-y,-z
_cell_length_a                   10.7382(4)
_cell_length_b                   11.0193(5)
_cell_length_c                   19.7752(8)
_cell_angle_alpha                99.1070(10)
_cell_angle_beta                 95.8330(10)
_cell_angle_gamma                96.9390(10)
_cell_volume                     2276.06
loop_
_atom_site_label
_atom_site_type_symbol
_atom_site_fract_x
_atom_site_fract_y
_atom_site_fract_z
Ni1 Ni -0.23405(4) -0.69585(4) 0.25204(2)
Na1 Na -0.24565(12) -0.18166(11) 0.51411(6)
Na2 Na 0.25807(11) -0.71017(11) 0.03225(6)
S1 S -0.27406(9) -0.51009(8) 0.29594(5)
S2 S -0.38300(9) -0.74361(8) 0.31615(4)
S3 S -0.08961(9) -0.64610(8) 0.18599(5)
S4 S -0.21373(9) -0.88200(8) 0.19683(5)
O1 O -0.0582(2) -0.2614(2) 0.55539(11)
O2 O -0.1541(2) -0.0838(2) 0.63474(12)
O3 O -0.3323(2) 0.0070(2) 0.55464(12)
O4 O -0.2246(2) -0.0357(2) 0.43476(12)
O5 O -0.1163(2) -0.2477(2) 0.42582(11)
O6 O 0.4689(2) -0.7499(2) 0.00586(11)
O7 O 0.3589(2) -0.8030(2) 0.12166(11)
O8 O 0.2577(2) -0.5868(2) 0.14616(12)
O9 O 0.2884(2) -0.4849(2) 0.03292(12)
O10 O 0.3098(2) -0.6630(2) -0.07821(11)
N1 N -0.6182(3) -0.6678(3) 0.4359(2)
N2 N -0.4578(5) -0.2960(3) 0.4037(2)
N3 N -0.1949(3) -1.0685(3) 0.0239(2)
N4 N 0.0249(3) -0.7060(3) 0.0125(2)
C1 C -0.3853(3) -0.5868(3) 0.33640(15)
C2 C -0.4647(3) -0.5313(3) 0.3784(2)
C3 C -0.5504(4) -0.6057(3) 0.4110(2)
C4 C -0.4622(4) -0.4008(4) 0.3924(2)
C5 C -0.1292(3) -0.7986(3) 0.1458(2)
C6 C -0.1052(3) -0.8451(3) 0.0801(2)
C7 C -0.1530(3) -0.9688(3) 0.0484(2)
C8 C -0.0331(3) -0.7686(3) 0.0421(2)
C9 C -0.0093(4) -0.2294(4) 0.6269(2)
H1 H 0.0148(4) -0.3021(4) 0.6440(2)
H2 H 0.0648(4) -0.1672(4) 0.6332(2)
C10 C -0.1094(4) -0.1803(4) 0.6652(2)
H3 H -0.0756(4) -0.1491(4) 0.7130(2)
H4 H -0.1785(4) -0.2462(4) 0.6641(2)
C11 C -0.2576(4) -0.0366(4) 0.6636(2)
H5 H -0.3278(4) -0.1026(4) 0.6597(2)
H6 H -0.2335(4) -0.0020(4) 0.7121(2)
C12 C -0.2953(4) 0.0618(4) 0.6249(2)
H7 H -0.2248(4) 0.1274(4) 0.6285(2)
H8 H -0.3649(4) 0.0975(4) 0.6441(2)
C13 C -0.3300(4) 0.0946(3) 0.5088(2)
H9 H -0.4022(4) 0.1393(3) 0.5122(2)
H10 H -0.2536(4) 0.1542(3) 0.5209(2)
C14 C -0.3337(4) 0.0272(4) 0.4380(2)
H11 H -0.3336(4) 0.0849(4) 0.4057(2)
H12 H -0.4100(4) -0.0324(4) 0.4259(2)
C15 C -0.2167(4) -0.1054(4) 0.3693(2)
H13 H -0.2926(4) -0.1650(4) 0.3546(2)
H14 H -0.2095(4) -0.0507(4) 0.3355(2)
C16 C -0.1040(4) -0.1712(4) 0.3741(2)
H15 H -0.0277(4) -0.1115(4) 0.3863(2)
H16 H -0.0986(4) -0.2219(4) 0.3299(2)
C17 C -0.0137(3) -0.3078(3) 0.4417(2)
C18 C 0.0183(3) -0.3135(3) 0.5103(2)
C19 C 0.1206(3) -0.3721(3) 0.5295(2)
H17 H 0.1434(3) -0.3752(3) 0.5758(2)
C20 C 0.1876(4) -0.4252(3) 0.4804(2)
H18 H 0.2562(4) -0.4639(3) 0.4936(2)
C21 C 0.1551(4) -0.4220(4) 0.4124(2)
H19 H 0.2008(4) -0.4594(4) 0.3794(2)
C22 C 0.0533(4) -0.3630(3) 0.3921(2)
H20 H 0.0308(4) -0.3607(3) 0.3457(2)
C23 C 0.5234(4) -0.8234(4) 0.0521(2)
H21 H 0.4898(4) -0.9104(4) 0.0372(2)
H22 H 0.6144(4) -0.8143(4) 0.0525(2)
C24 C 0.4910(4) -0.7792(4) 0.1222(2)
H23 H 0.5196(4) -0.6909(4) 0.1356(2)
H24 H 0.5328(4) -0.8219(4) 0.1553(2)
C25 C 0.3150(4) -0.7631(4) 0.1861(2)
H25 H 0.2282(4) -0.8009(4) 0.1845(2)
H26 H 0.3653(4) -0.7922(4) 0.2223(2)
C26 C 0.3217(4) -0.6253(4) 0.2039(2)
H27 H 0.4090(4) -0.5862(4) 0.2125(2)
H28 H 0.2812(4) -0.6030(4) 0.2449(2)
C27 C 0.2693(4) -0.4564(4) 0.1510(2)
H29 H 0.2229(4) -0.4211(4) 0.1871(2)
H30 H 0.3574(4) -0.4203(4) 0.1619(2)
C28 C 0.2166(4) -0.4299(3) 0.0830(2)
H31 H 0.2234(4) -0.3411(3) 0.0840(2)
H32 H 0.1282(4) -0.4652(3) 0.0723(2)
C29 C 0.2490(4) -0.4686(3) -0.0353(2)
H33 H 0.1613(4) -0.5045(3) -0.0489(2)
H34 H 0.2570(4) -0.3810(3) -0.0380(2)
C30 C 0.3318(4) -0.5323(3) -0.0817(2)
H35 H 0.4199(4) -0.4994(3) -0.0666(2)
H36 H 0.3111(4) -0.5193(3) -0.1287(2)
C31 C 0.3948(3) -0.7331(3) -0.1077(2)
C32 C 0.4762(3) -0.7831(3) -0.0635(2)
C33 C 0.5582(3) -0.8597(3) -0.0915(2)
H37 H 0.6127(3) -0.8944(3) -0.0628(2)
C34 C 0.5586(4) -0.8841(4) -0.1620(2)
H38 H 0.6139(4) -0.9352(4) -0.1807(2)
C35 C 0.4783(4) -0.8337(4) -0.2052(2)
H39 H 0.4785(4) -0.8517(4) -0.2527(2)
C36 C 0.3979(4) -0.7568(4) -0.1775(2)
H40 H 0.3453(4) -0.7206(4) -0.2064(2)
N3A N 0.1949(3) -0.9315(3) -0.0239(2)
Na2A Na -0.25807(11) -1.28983(11) -0.03225(6)
N1A N -0.3818(3) -0.3322(3) 0.5641(2)
Na1A Na -0.75435(12) -0.81834(11) 0.48589(6)
Cl1 Cl -0.09779(13) -0.92671(14) -0.14379(8)
Cl2 Cl 0.0121(2) -0.7095(2) -0.19771(8)
C37 C 0.0374(5) -0.8332(4) -0.1571(3)
H41 H 0.0869(5) -0.8013(4) -0.1126(3)
H42 H 0.0877(5) -0.8848(4) -0.1842(3)
loop_
_geom_bond_atom_site_label_1
_geom_bond_atom_site_label_2
_geom_bond_site_symmetry_1
_geom_bond_site_symmetry_2
Ni1 S1 1_555 1_555
Na1 O1 1_555 1_555
Na2 O6 1_555 1_555
S1 C1 1_555 1_555
S2 Ni1 1_555 1_555
S3 Ni1 1_555 1_555
S4 Ni1 1_555 1_555
O1 C9 1_555 1_555
O2 Na1 1_555 1_555
O3 Na1 1_555 1_555
O4 Na1 1_555 1_555
O5 Na1 1_555 1_555
O6 C23 1_555 1_555
O7 Na2 1_555 1_555
O8 Na2 1_555 1_555
O9 Na2 1_555 1_555
O10 Na2 1_555 1_555
N1 C3 1_555 1_555
N2 Na1 1_555 1_555
N3 C7 1_555 1_555
N4 Na2 1_555 1_555
C1 S2 1_555 1_555
C2 C1 1_555 1_555
C3 C2 1_555 1_555
C4 N2 1_555 1_555
C5 S3 1_555 1_555
C6 C5 1_555 1_555
C7 C6 1_555 1_555
C8 N4 1_555 1_555
C9 H1 1_555 1_555
H2 C9 1_555 1_555
C10 O2 1_555 1_555
H3 C10 1_555 1_555
H4 C10 1_555 1_555
C11 O2 1_555 1_555
H5 C11 1_555 1_555
H6 C11 1_555 1_555
C12 O3 1_555 1_555
H7 C12 1_555 1_555
H8 C12 1_555 1_555
C13 O3 1_555 1_555
H9 C13 1_555 1_555
H10 C13 1_555 1_555
C14 O4 1_555 1_555
H11 C14 1_555 1_555
H12 C14 1_555 1_555
C15 O4 1_555 1_555
H13 C15 1_555 1_555
H14 C15 1_555 1_555
C16 O5 1_555 1_555
H15 C16 1_555 1_555
H16 C16 1_555 1_555
C17 O5 1_555 1_555
C18 O1 1_555 1_555
C19 C18 1_555 1_555
H17 C19 1_555 1_555
C20 C19 1_555 1_555
H18 C20 1_555 1_555
C21 C20 1_555 1_555
H19 C21 1_555 1_555
C22 C17 1_555 1_555
H20 C22 1_555 1_555
C23 H21 1_555 1_555
H22 C23 1_555 1_555
C24 O7 1_555 1_555
H23 C24 1_555 1_555
H24 C24 1_555 1_555
C25 O7 1_555 1_555
H25 C25 1_555 1_555
H26 C25 1_555 1_555
C26 O8 1_555 1_555
H27 C26 1_555 1_555
H28 C26 1_555 1_555
C27 O8 1_555 1_555
H29 C27 1_555 1_555
H30 C27 1_555 1_555
C28 O9 1_555 1_555
H31 C28 1_555 1_555
H32 C28 1_555 1_555
C29 O9 1_555 1_555
H33 C29 1_555 1_555
H34 C29 1_555 1_555
C30 O10 1_555 1_555
H35 C30 1_555 1_555
H36 C30 1_555 1_555
C31 O10 1_555 1_555
C32 O6 1_555 1_555
C33 C32 1_555 1_555
H37 C33 1_555 1_555
C34 C33 1_555 1_555
H38 C34 1_555 1_555
C35 C34 1_555 1_555
H39 C35 1_555 1_555
C36 C31 1_555 1_555
H40 C36 1_555 1_555
Cl1 C37 1_555 1_555
Cl2 C37 1_555 1_555
C37 H41 1_555 1_555
H42 C37 1_555 1_555
N3A Na2 1_555 1_555
Na2A N3 1_555 1_555
N1A Na1 1_555 1_555
Na1A N1 1_555 1_555
S4 C5 1_555 1_555
C2 C4 1_555 1_555
C6 C8 1_555 1_555
C9 C10 1_555 1_555
C11 C12 1_555 1_555
C13 C14 1_555 1_555
C15 C16 1_555 1_555
C17 C18 1_555 1_555
C21 C22 1_555 1_555
C23 C24 1_555 1_555
C25 C26 1_555 1_555
C27 C28 1_555 1_555
C29 C30 1_555 1_555
C31 C32 1_555 1_555
C35 C36 1_555 1_555

#END
