
#######################################################################
#
#                 Cambridge Crystallographic Data Centre
#                                CCDC 
#
#######################################################################
#
# If this CIF has been generated from an entry in the Cambridge 
# Structural Database, then it will include bibliographic, chemical, 
# crystal, experimental, refinement or atomic coordinate data resulting 
# from the CCDC's data processing and validation procedures.
#
#######################################################################

data_JUQSIZ
_symmetry_cell_setting           monoclinic
_symmetry_space_group_name_H-M   'P 21'
_symmetry_Int_Tables_number      4
_space_group_name_Hall           'P 2yb'
loop_
_symmetry_equiv_pos_site_id
_symmetry_equiv_pos_as_xyz
1 x,y,z
2 -x,1/2+y,-z
_cell_length_a                   17.745(5)
_cell_length_b                   16.263(4)
_cell_length_c                   26.250(7)
_cell_angle_alpha                90
_cell_angle_beta                 90.775(4)
_cell_angle_gamma                90
_cell_volume                     7574.71
loop_
_atom_site_label
_atom_site_type_symbol
_atom_site_fract_x
_atom_site_fract_y
_atom_site_fract_z
Cd1 Cd 0.86439(4) 1.06462(7) 0.14287(2)
Cd2 Cd 1.36911(4) 0.56343(7) 0.35536(2)
Cd3 Cd 1.10244(5) 0.56181(7) 0.00486(3)
Cd4 Cd 1.12669(4) 0.52211(7) 0.14756(2)
Cd5 Cd 1.37099(4) 0.52784(7) 0.64341(2)
Cd6 Cd 1.25452(5) 0.54646(8) 0.75001(3)
Cd7 Cd 1.24668(5) 0.54269(8) 0.25109(3)
Cd8 Cd 1.39925(4) 0.54539(7) 0.49951(3)
O1 O 1.1827(4) 0.4991(5) 0.0714(2)
O2 O 1.1829(4) 0.4386(5) 0.2071(3)
C1 C 1.1822(6) 0.6771(8) -0.0440(3)
O3 O 1.3529(5) 0.4175(5) 0.5025(3)
O4 O 0.6817(5) 0.9467(5) 0.2962(3)
O5 O 1.3173(5) 0.6015(5) 0.4320(3)
O6 O 1.3152(4) 0.4910(5) 0.5680(3)
C2 C 0.9824(6) 0.5632(7) 0.0835(4)
O7 O 1.0179(4) 0.5012(5) 0.0993(3)
O8 O 0.8597(5) 0.1061(7) 0.7365(3)
O9 O 1.6463(5) 0.9775(6) -0.2389(4)
O10 O 0.9723(5) 1.0762(6) 0.0933(3)
O11 O 1.6422(5) 0.1242(6) 0.2478(3)
O12 O 0.9488(4) 0.0742(5) 0.7944(3)
O13 O 0.8521(5) 0.9729(6) 0.2542(4)
O14 O 1.1635(5) 0.4392(6) -0.0011(3)
O15 O 1.5247(5) 0.0194(8) 0.4078(3)
O16 O 1.8088(4) 0.1478(5) 0.2051(3)
O17 O 0.9415(5) 1.0029(5) 0.1983(3)
O18 O 0.7587(6) 1.0066(6) 0.6656(3)
C3 C 0.8835(7) 0.5338(8) 0.1490(3)
H1 H 0.9166 0.4989 0.1662
O19 O 1.2535(5) 0.5848(5) 0.1680(3)
O20 O 1.7206(6) 1.0142(7) 0.1696(3)
O21 O 0.6906(5) 0.6191(6) 0.1622(3)
O22 O 1.8096(6) 0.4721(7) 0.3419(4)
O23 O 1.9050(5) 0.2120(6) 0.1704(3)
C4 C 1.0958(6) 1.0187(7) 0.0936(4)
O24 O 1.1874(5) 0.1101(6) 0.3405(4)
O25 O 1.3118(7) 0.6498(6) 0.6208(3)
C5 C 1.8386(7) 0.2804(7) 0.2388(4)
O26 O 1.0080(4) 0.6162(5) 0.0560(3)
O27 O 0.5886(6) 0.8813(6) 0.3286(4)
O28 O 1.2294(6) 0.5832(6) 0.6690(3)
O29 O 0.6797(5) 0.9374(5) 0.6157(3)
O30 O 1.3065(5) 0.9736(6) 0.1592(4)
C6 C 1.6173(7) 0.5474(10) 0.3531(4)
H2 H 1.5834 0.5789 0.3341
C7 C 0.8096(7) 0.5517(9) 0.1669(4)
H3 H 0.7937 0.5265 0.1967
C8 C 1.5972(6) 0.5175(8) 0.4020(4)
O31 O 1.1439(7) 0.9413(6) 0.3942(4)
O32 O 1.1574(6) 0.1449(5) 0.6067(3)
O33 O 1.1733(5) 0.6585(7) 0.1215(3)
C9 C 1.3164(7) 0.4203(8) 0.5462(4)
C10 C 1.2693(7) 0.7404(7) 0.4378(4)
C11 C 1.4810(7) 0.0682(9) 0.4265(4)
O34 O 1.0769(6) 0.3830(6) 0.1808(3)
C12 C 1.2322(7) 0.3641(9) 0.0605(4)
C13 C 0.9021(7) 0.5732(7) 0.1034(4)
C14 C 0.9877(6) 0.1202(6) 0.7132(4)
O35 O 1.4993(6) 0.4866(7) 0.4600(4)
O36 O 1.8003(5) 0.9480(5) 0.1204(3)
C15 C 1.1099(7) 1.0376(8) 0.1440(4)
H4 H 1.0716 1.0605 0.1633
O37 O 1.5003(7) 0.1072(7) 0.4614(5)
C16 C 1.3152(6) 0.6661(7) 0.4574(4)
C17 C 1.2581(7) 0.0977(8) 0.3611(5)
O38 O 1.0075(5) 1.0050(6) 0.0257(3)
C18 C 1.0604(6) 0.1302(7) 0.7292(4)
H5 H 1.0718 0.1303 0.7639
C19 C 1.1877(8) 0.4346(8) 0.0424(4)
C20 C 1.1719(7) 0.7954(8) 0.3821(4)
H6 H 1.1334 0.7873 0.3582
C21 C 1.0530(6) 0.9530(7) 0.2678(4)
H7 H 1.0674 0.9545 0.2339
C22 C 1.4395(7) 0.1331(8) 0.2299(4)
H8 H 1.4260 0.1270 0.2638
C23 C 1.3174(8) 0.2992(9) 0.1196(5)
H9 H 1.3471 0.3009 0.1491
C24 C 1.2234(8) 0.3561(7) 0.6005(4)
H10 H 1.2146 0.4075 0.6147
C25 C 1.2797(6) 0.7365(8) -0.1028(4)
H11 H 1.2867 0.6849 -0.1173
C26 C 1.1354(7) 0.3810(8) 0.2067(4)
C27 C 0.6831(6) 0.6836(8) 0.1960(4)
C28 C 1.7353(8) 0.9564(7) 0.1357(4)
C29 C 1.1511(7) 0.3069(7) 0.2414(4)
C30 C 1.3057(7) 0.6877(8) 0.1171(4)
C31 C 1.2225(7) 0.7280(8) 0.3981(5)
H12 H 1.2220 0.6780 0.3809
C32 C 1.3581(7) 0.7741(8) 0.0496(4)
H13 H 1.3513 0.8052 0.0202
C33 C 1.1111(7) 0.1805(8) 0.2817(4)
H14 H 1.0737 0.1414 0.2869
C34 C 1.6528(7) 0.4698(8) 0.4301(4)
H15 H 1.6422 0.4477 0.4619
C35 C 0.7381(7) 0.7438(8) 0.2031(5)
H16 H 0.7828 0.7416 0.1850
C36 C 1.2763(6) 0.3493(8) 0.5638(4)
C37 C 1.6724(8) 0.9069(8) 0.1154(4)
C38 C 0.6032(8) 0.7491(8) 0.2550(5)
H17 H 0.5585 0.7500 0.2731
C39 C 1.5152(6) 0.1294(8) 0.2182(4)
C40 C 1.0893(9) 0.9396(7) 0.3551(5)
C41 C 1.1794(7) 0.1737(7) 0.3087(5)
C42 C 0.9275(7) 0.0987(6) 0.7506(4)
C43 C 1.1515(7) 0.9789(10) 0.0662(5)
H18 H 1.1410 0.9620 0.0331
C44 C 1.2490(9) 0.2022(9) 0.5595(5)
H19 H 1.2591 0.1499 0.5470
C45 C 1.5712(7) 0.1087(8) 0.2572(4)
C46 C 1.3112(7) 0.9074(7) 0.1925(4)
C47 C 1.1793(8) 0.6831(8) 0.6154(4)
C48 C 1.7580(6) 0.3483(8) 0.2987(4)
H20 H 1.7120 0.3521 0.3151
O39 O 1.5580(5) 0.9975(5) -0.3011(3)
C49 C 0.8634(9) 0.8158(9) 0.5469(5)
H21 H 0.8570 0.7815 0.5189
C50 C 1.2548(7) 0.8930(8) -0.0623(4)
H22 H 1.2464 0.9456 -0.0497
C51 C 1.2392(7) 0.6414(7) 0.1356(4)
C52 C 1.2435(10) 0.6346(8) 0.6373(4)
C53 C 1.2199(7) 0.2992(7) 0.2679(4)
H23 H 1.2572 0.3385 0.2632
C54 C 1.2801(8) 0.3637(8) 0.1059(4)
H24 H 1.2840 0.4112 0.1255
C55 C 1.2335(9) 0.8798(8) 0.4455(5)
H25 H 1.2386 0.9297 0.4625
O40 O 1.1859(5) 0.6083(5) -0.0669(3)
C56 C 1.3758(7) 0.6750(9) 0.1372(4)
H26 H 1.3804 0.6450 0.1673
C57 C 1.8523(5) 0.2086(6) 0.2024(4)
C58 C 0.6364(10) 0.8803(8) 0.2978(5)
C59 C 1.3465(8) 0.1127(7) 0.4318(5)
H27 H 1.3561 0.1284 0.4653
C60 C 0.7257(8) 0.8065(7) 0.2371(4)
H28 H 0.7630 0.8456 0.2429
C61 C 0.7613(7) 0.6041(8) 0.1422(5)
C62 C 1.3126(8) 0.0563(11) 0.3350(5)
H29 H 1.3022 0.0353 0.3028
C63 C 1.7721(7) 0.2841(7) 0.2664(4)
H30 H 1.7367 0.2423 0.2628
O41 O 1.4900(6) 0.7921(8) 0.0450(3)
O42 O 0.9951(6) 0.7990(9) 0.5420(3)
C64 C 1.3968(7) 0.8356(7) 0.2523(5)
H31 H 1.4424 0.8316 0.2701
C65 C 1.1194(7) 0.1407(8) 0.6934(5)
H32 H 1.1696 0.1454 0.7035
C66 C 1.1954(8) 0.2134(8) 0.5965(4)
C67 C 1.1848(8) 0.8739(8) 0.4051(4)
C68 C 1.3849(8) 0.9458(9) -0.2009(5)
H33 H 1.3359 0.9363 -0.2125
C69 C 1.2765(8) 0.1252(9) 0.4087(6)
H34 H 1.2401 0.1538 0.4268
C70 C 1.2953(8) 0.7391(8) 0.0746(5)
H35 H 1.2468 0.7504 0.0627
C71 C 1.5376(9) 0.9675(10) -0.1678(5)
H36 H 1.5870 0.9780 -0.1573
C72 C 1.2885(8) 0.2716(7) 0.5408(4)
H37 H 1.3218 0.2662 0.5140
C73 C 1.3140(8) 0.2280(9) 0.0917(5)
C74 C 1.3229(9) 0.8056(8) -0.1188(5)
H38 H 1.3596 0.7994 -0.1435
C75 C 1.0976(7) 0.1436(8) 0.6436(4)
C76 C 0.9570(8) 0.9625(10) 0.3329(5)
H39 H 0.9078 0.9742 0.3423
C77 C 1.3098(7) 0.8830(8) -0.0972(5)
C78 C 1.5358(9) 0.1405(9) 0.1690(4)
H40 H 1.5863 0.1417 0.1601
C79 C 1.1889(8) 0.7329(8) 0.5699(4)
H41 H 1.2365 0.7382 0.5559
O43 O 1.5488(5) 0.0815(6) 0.3003(3)
C80 C 0.6140(8) 0.6894(8) 0.2226(5)
H42 H 0.5764 0.6505 0.2169
C81 C 0.9703(8) 0.1285(9) 0.6626(5)
H43 H 0.9200 0.1313 0.6524
C82 C 1.2195(7) 0.9645(8) 0.0862(5)
H44 H 1.2569 0.9404 0.0668
C83 C 0.7806(8) 0.6402(9) 0.0953(6)
H45 H 0.7475 0.6750 0.0780
C84 C 1.1815(8) 0.2890(8) 0.6177(5)
H46 H 1.1453 0.2954 0.6427
C85 C 1.4024(9) 0.9510(8) -0.1472(5)
C86 C 1.2331(7) 0.2352(8) 0.3004(5)
H47 H 1.2792 0.2324 0.3176
C87 C 1.1065(7) 0.9422(8) 0.3076(5)
H48 H 1.1569 0.9367 0.2990
C88 C 1.8810(6) 0.4046(8) 0.2799(4)
H49 H 1.9174 0.4452 0.2842
C89 C 1.0134(7) 0.9452(9) 0.3704(5)
H50 H 1.0006 0.9377 0.4043
C90 C 1.3827(8) 0.1455(9) 0.1940(5)
H51 H 1.3322 0.1476 0.2029
C91 C 1.4776(9) 0.1502(13) 0.1316(5)
H52 H 1.4903 0.1537 0.0974
C92 C 1.7216(7) 0.4584(8) 0.4079(5)
H53 H 1.7586 0.4300 0.4261
C93 C 0.8000(9) 0.8567(8) 0.5684(4)
H54 H 0.7526 0.8521 0.5532
C94 C 1.4740(10) 0.9534(11) -0.1304(5)
H55 H 1.4848 0.9464 -0.0959
C95 C 1.6776(7) 0.8648(9) 0.0720(5)
H56 H 1.7241 0.8624 0.0561
C96 C 0.9350(9) 0.8276(10) 0.5685(5)
C97 C 1.1301(8) 0.7711(10) 0.5479(5)
H57 H 1.1372 0.8021 0.5186
C98 C 1.2553(7) 0.8521(7) 0.2025(5)
H58 H 1.2075 0.8591 0.1882
C99 C 1.2259(7) 0.2887(8) 0.0344(4)
H59 H 1.1942 0.2845 0.0060
C100 C 1.0977(8) 0.2434(7) 0.2477(5)
H60 H 1.0530 0.2441 0.2288
C101 C 1.2121(8) 0.8316(8) -0.0450(4)
H61 H 1.1744 0.8411 -0.0214
C102 C 1.0237(8) 0.1327(8) 0.6277(4)
H62 H 1.0116 0.1285 0.5932
C103 C 1.2754(8) 0.8131(9) 0.4615(5)
H63 H 1.3084 0.8187 0.4891
O44 O 1.3508(5) 0.6749(5) 0.4991(3)
C104 C 1.6166(7) 0.8243(10) 0.0492(5)
H64 H 1.6225 0.7947 0.0192
C105 C 1.5997(9) 0.9163(10) 0.1361(5)
H65 H 1.5916 0.9518 0.1633
C106 C 1.0467(10) 0.7149(10) 0.6132(5)
H66 H 0.9993 0.7040 0.6262
C107 C 1.1106(10) 0.6837(12) 0.6353(5)
H67 H 1.1057 0.6605 0.6675
C108 C 0.9400(9) 0.8725(9) 0.6131(4)
H68 H 0.9866 0.8753 0.6296
C109 C 1.5516(7) 0.8289(10) 0.0706(5)
O45 O 1.3086(5) 0.6468(5) 0.2953(3)
C110 C 1.0561(8) 0.7649(13) 0.5693(5)
O46 O 1.3490(7) 0.1531(6) 0.1048(4)
C111 C 1.4445(8) 0.7066(10) 0.1137(6)
H69 H 1.4929 0.6937 0.1252
C112 C 1.5379(9) 0.8692(12) 0.1141(5)
H70 H 1.4910 0.8672 0.1294
C113 C 1.3415(7) 0.7762(7) 0.2591(4)
C114 C 0.6560(7) 0.8122(7) 0.2637(5)
O47 O 1.1435(5) 0.6904(5) -0.0053(3)
C115 C 0.9774(6) 0.9613(7) 0.2813(4)
C116 C 1.4000(6) 0.0767(8) 0.4032(4)
C117 C 1.0178(7) 1.0346(7) 0.0698(4)
O48 O 1.3463(7) 0.9555(7) -0.1111(4)
C118 C 1.8934(7) 0.3377(7) 0.2456(4)
H71 H 1.9385 0.3335 0.2281
O49 O 1.4770(5) 0.5861(6) 0.4028(3)
O50 O 1.4123(6) 0.7034(7) 0.3239(5)
C119 C 1.1803(7) 1.0230(9) 0.1670(4)
H72 H 1.1900 1.0377 0.2007
C120 C 1.2705(6) 0.7838(7) 0.2348(4)
H73 H 1.2336 0.7441 0.2400
C121 C 0.9182(6) 0.9796(7) 0.2402(5)
C122 C 1.3841(7) 0.0458(10) 0.3574(4)
H74 H 1.4210 0.0169 0.3400
C123 C 0.8835(9) 0.9113(9) 0.6336(5)
H75 H 0.8910 0.9440 0.6623
C124 C 1.4411(7) 0.9550(7) -0.2332(4)
H76 H 1.4296 0.9558 -0.2678
C125 C 0.7475(10) 0.9484(8) 0.6324(4)
C126 C 1.4052(8) 0.1544(9) 0.1446(5)
C127 C 1.2339(7) 0.9867(8) 0.1384(4)
C128 C 1.3564(8) 0.7075(7) 0.2928(5)
C129 C 1.5195(8) 0.5308(8) 0.4227(5)
C130 C 1.5786(9) 0.9799(7) -0.2559(4)
C131 C 0.8517(7) 0.6214(8) 0.0757(4)
H77 H 0.8652 0.6413 0.0439
C132 C 1.8136(8) 0.4083(8) 0.3069(4)
C133 C 1.2268(7) 0.7486(8) -0.0647(4)
C134 C 0.8098(7) 0.9026(8) 0.6112(4)
C135 C 1.2664(7) 0.2210(10) 0.0507(4)
H78 H 1.2612 0.1709 0.0339
C136 C 1.4289(8) 0.7615(10) 0.0695(5)
C137 C 1.5161(7) 0.9635(8) -0.2183(4)
C138 C 1.3844(7) 0.9009(8) 0.2192(5)
H79 H 1.4218 0.9400 0.2139
C139 C 1.7376(7) 0.4857(8) 0.3624(4)
C140 C 1.6867(8) 0.5294(9) 0.3344(4)
H80 H 1.6994 0.5474 0.3020
Cd1_2 Cd 1.86439(4) 0.06462(7) 0.14287(2)
Cd1_3 Cd 1.86439(4) 1.06462(7) 0.14287(2)
Cd1A Cd 1.13561(4) 0.56462(7) -0.14287(2)
Cd2A Cd 0.63089(4) 1.06343(7) 0.64464(2)
Cd2A_2 Cd 1.63089(4) 1.06343(7) -0.35536(2)
Cd3A Cd 0.89756(5) 1.06181(7) -0.00486(3)
Cd4A Cd 0.87331(4) 0.02211(7) 0.85244(2)
Cd5A Cd 0.62901(4) 1.02784(7) 0.35659(2)
Cd5A_2 Cd 1.62901(4) 0.02784(7) 0.35659(2)
Cd6A Cd 0.74548(5) 1.04646(8) 0.24999(3)
Cd6A_2 Cd 1.74548(5) 0.04646(8) 0.24999(3)
Cd6A_3 Cd 1.74548(5) 1.04646(8) 0.24999(3)
Cd7A Cd 0.75332(5) 0.04269(8) 0.74891(3)
Cd7A_2 Cd 0.75332(5) 1.04269(8) 0.74891(3)
Cd7A_3 Cd 1.75332(5) 1.04269(8) -0.25109(3)
Cd8A Cd 1.60075(4) 0.04539(7) 0.50049(3)
O4A O 1.3183(5) 0.4467(5) 0.7038(3)
O8A O 1.1403(5) 0.6061(7) 0.2635(3)
O9A O 1.3537(5) 0.4775(6) 0.2389(4)
O11A O 1.3578(5) 0.6242(6) 0.7522(3)
O12A O 1.0512(4) 0.5742(5) 0.2056(3)
O13A O 1.1479(5) 0.4729(6) 0.7458(4)
O15A O 1.4753(5) 0.5194(8) 0.5922(3)
O16_2 O 0.8088(4) 1.1478(5) 0.2051(3)
O16A O 1.1912(4) 0.6478(5) 0.7949(3)
O18A O 1.2413(6) 0.5066(6) 0.3344(3)
O20_2 O 0.7206(6) 1.0142(7) 0.1696(3)
O20A O 1.2794(6) 0.5142(7) 0.8304(3)
O23_2 O 0.9050(5) 1.2120(6) 0.1704(3)
O27A O 1.4114(6) 0.3813(6) 0.6714(4)
O29A O 1.3203(5) 0.4374(5) 0.3843(3)
O36_2 O 0.8003(5) 0.9480(5) 0.1204(3)
O37A O 1.4997(7) 0.6072(7) 0.5386(5)
O38A O 0.9925(5) 0.5050(6) -0.0257(3)
O39A O 1.4420(5) 0.4975(5) 0.3011(3)
O40A O 0.8141(5) 1.1083(5) 0.0669(3)
O43A O 1.4512(5) 0.5815(6) 0.6997(3)
O51 O 1.0387(4) 0.8552(5) 0.9947(3)
H81 H 1.0258 0.9014 1.0035
N1 N 1.0370(6) 0.8274(6) 0.8893(4)
C141 C 0.9782(9) 0.8153(9) 0.9724(5)
H82 H 0.9389 0.8550 0.9647
H83 H 0.9581 0.7757 0.9963
C142 C 0.9284(7) 0.7348(7) 0.8960(4)
H84 H 0.9435 0.7083 0.8651
H85 H 0.8937 0.7783 0.8881
H86 H 0.9045 0.6955 0.9178
C143 C 0.9994(7) 0.7713(7) 0.9239(4)
H87 H 1.0339 0.7262 0.9325
O52 O 0.4679(10) 1.2594(11) 0.5051(7)
H88 H 0.4914 1.2213 0.4924
N2 N 0.4676(12) 1.2478(11) 0.6133(6)
C144 C 0.5404(18) 1.346(2) 0.6153(10)
H89 H 0.5490 1.3174 0.6468
H90 H 0.4947 1.3774 0.6174
H91 H 0.5818 1.3824 0.6090
C145 C 0.5187(10) 1.3183(11) 0.5239(8)
H92 H 0.4968 1.3729 0.5220
H93 H 0.5648 1.3178 0.5045
C146 C 0.534(2) 1.294(2) 0.5790(9)
H94 H 0.5794 1.2594 0.5798
N3 N 0.9447(6) 1.2706(6) 0.9099(4)
C147 C 1.0639(9) 1.3171(9) 0.8710(4)
H95 H 1.0834 1.2618 0.8667
H96 H 1.0856 1.3517 0.8450
C148 C 0.9792(8) 1.3159(7) 0.8646(4)
H97 H 0.9601 1.3725 0.8634
C149 C 0.9601(10) 1.2742(11) 0.8172(5)
H98 H 0.9064 1.2743 0.8122
H99 H 0.9779 1.2185 0.8187
H100 H 0.9834 1.3021 0.7893
O53 O 1.0849(7) 1.3463(9) 0.9188(3)
H101 H 1.1195 1.3793 0.9159
O54 O 0.5837(10) 1.2810(10) 0.4109(6)
H102 H 0.6206 1.2512 0.4149
N4 N 0.4320(11) 1.3278(13) 0.4140(5)
C150 C 0.5515(18) 1.2668(14) 0.3627(9)
H103 H 0.5367 1.2098 0.3582
H104 H 0.5849 1.2830 0.3355
C151 C 0.4845(13) 1.3228(8) 0.3663(5)
H105 H 0.5010 1.3787 0.3582
C152 C 0.4335(13) 1.2964(15) 0.3268(8)
H106 H 0.4600 1.2923 0.2953
H107 H 0.3933 1.3355 0.3232
H108 H 0.4131 1.2436 0.3355
loop_
_geom_bond_atom_site_label_1
_geom_bond_atom_site_label_2
_geom_bond_site_symmetry_1
_geom_bond_site_symmetry_2
Cd1 O10 1_555 1_555
Cd2 O5 1_555 1_555
Cd3 O1 1_555 1_555
Cd4 O1 1_555 1_555
Cd5 O6 1_555 1_555
Cd6 O28 1_555 1_555
Cd7 O2 1_555 1_555
Cd8 O3 1_555 1_555
O1 C19 1_555 1_555
O2 Cd4 1_555 1_555
C1 O40 1_555 1_555
O3 C9 1_555 1_555
O4 C58 1_555 1_555
O5 Cd8 1_555 1_555
O6 Cd8 1_555 1_555
C2 O7 1_555 1_555
O7 Cd4 1_555 1_555
O8 C42 1_555 1_555
O9 C130 1_555 1_555
O10 C117 1_555 1_555
O11 C45 1_555 1_555
O12 C42 1_555 1_555
O13 C121 1_555 1_555
O14 Cd3 1_555 1_555
O15 C11 1_555 1_555
O16 C57 1_555 1_555
O17 Cd1 1_555 1_555
O18 C125 1_555 1_555
C3 H1 1_555 1_555
O19 Cd4 1_555 1_555
O20 C28 1_555 1_555
O21 C27 1_555 1_555
O22 C132 1_555 1_555
O23 C57 1_555 1_555
C4 C15 1_555 1_555
O24 C17 1_555 1_555
O25 Cd5 1_555 1_555
C5 C57 1_555 1_555
O26 Cd3 1_555 1_555
O27 C58 1_555 1_555
O28 Cd5 1_555 1_555
O29 C125 1_555 1_555
O30 C46 1_555 1_555
C6 H2 1_555 1_555
C7 C3 1_555 1_555
H3 C7 1_555 1_555
C8 C6 1_555 1_555
O31 C40 1_555 1_555
O32 C66 1_555 1_555
O33 Cd4 1_555 1_555
C9 O6 1_555 1_555
C10 C16 1_555 1_555
C11 O37 1_555 1_555
O34 Cd4 1_555 1_555
C12 C19 1_555 1_555
C13 C2 1_555 1_555
C14 C18 1_555 1_555
O35 Cd8 1_555 1_555
O36 C28 1_555 1_555
C15 H4 1_555 1_555
O37 Cd8A 1_555 1_555
C16 O5 1_555 1_555
C17 C62 1_555 1_555
O38 C117 1_555 1_555
C18 H5 1_555 1_555
C19 O14 1_555 1_555
C20 H6 1_555 1_555
C21 H7 1_555 1_555
C22 H8 1_555 1_555
C23 H9 1_555 1_555
C24 H10 1_555 1_555
C25 H11 1_555 1_555
C26 O2 1_555 1_555
C27 C35 1_555 1_555
C28 C37 1_555 1_555
C29 C26 1_555 1_555
C30 C51 1_555 1_555
C31 C10 1_555 1_555
H12 C31 1_555 1_555
C32 H13 1_555 1_555
C33 H14 1_555 1_555
C34 C8 1_555 1_555
H15 C34 1_555 1_555
C35 H16 1_555 1_555
C36 C9 1_555 1_555
C37 C95 1_555 1_555
C38 H17 1_555 1_555
C39 C22 1_555 1_555
C40 C87 1_555 1_555
C41 O24 1_555 1_555
C42 C14 1_555 1_555
C43 C4 1_555 1_555
H18 C43 1_555 1_555
C44 H19 1_555 1_555
C45 C39 1_555 1_555
C46 C98 1_555 1_555
C47 C52 1_555 1_555
C48 H20 1_555 1_555
O39 C130 1_555 1_555
C49 H21 1_555 1_555
C50 H22 1_555 1_555
C51 O19 1_555 1_555
C52 O25 1_555 1_555
C53 C29 1_555 1_555
H23 C53 1_555 1_555
C54 C12 1_555 1_555
H24 C54 1_555 1_555
C55 H25 1_555 1_555
O40 Cd3 1_555 1_555
C56 C30 1_555 1_555
H26 C56 1_555 1_555
C58 C114 1_555 1_555
C59 H27 1_555 1_555
C60 C35 1_555 1_555
H28 C60 1_555 1_555
C61 O21 1_555 1_555
C62 H29 1_555 1_555
C63 C5 1_555 1_555
H30 C63 1_555 1_555
O41 C109 1_555 1_555
O42 C96 1_555 1_555
C64 H31 1_555 1_555
C65 C18 1_555 1_555
H32 C65 1_555 1_555
C66 C44 1_555 1_555
C67 O31 1_555 1_555
C68 H33 1_555 1_555
C69 C17 1_555 1_555
H34 C69 1_555 1_555
C70 C30 1_555 1_555
H35 C70 1_555 1_555
C71 H36 1_555 1_555
C72 C36 1_555 1_555
H37 C72 1_555 1_555
C73 C23 1_555 1_555
C74 C25 1_555 1_555
H38 C74 1_555 1_555
C75 O32 1_555 1_555
C76 H39 1_555 1_555
C77 C50 1_555 1_555
C78 C39 1_555 1_555
H40 C78 1_555 1_555
C79 C47 1_555 1_555
H41 C79 1_555 1_555
O43 C45 1_555 1_555
C80 C27 1_555 1_555
H42 C80 1_555 1_555
C81 C14 1_555 1_555
H43 C81 1_555 1_555
C82 C43 1_555 1_555
H44 C82 1_555 1_555
C83 C61 1_555 1_555
H45 C83 1_555 1_555
C84 C24 1_555 1_555
H46 C84 1_555 1_555
C85 C68 1_555 1_555
C86 C41 1_555 1_555
H47 C86 1_555 1_555
C87 C21 1_555 1_555
H48 C87 1_555 1_555
C88 H49 1_555 1_555
C89 C40 1_555 1_555
H50 C89 1_555 1_555
C90 C22 1_555 1_555
H51 C90 1_555 1_555
C91 C78 1_555 1_555
H52 C91 1_555 1_555
C92 C34 1_555 1_555
H53 C92 1_555 1_555
C93 C49 1_555 1_555
H54 C93 1_555 1_555
C94 C71 1_555 1_555
H55 C94 1_555 1_555
C95 H56 1_555 1_555
C96 C49 1_555 1_555
C97 C79 1_555 1_555
H57 C97 1_555 1_555
C98 H58 1_555 1_555
C99 C12 1_555 1_555
H59 C99 1_555 1_555
C100 C29 1_555 1_555
H60 C100 1_555 1_555
C101 C50 1_555 1_555
H61 C101 1_555 1_555
C102 C75 1_555 1_555
H62 C102 1_555 1_555
C103 C10 1_555 1_555
H63 C103 1_555 1_555
O44 Cd8 1_555 1_555
C104 C95 1_555 1_555
H64 C104 1_555 1_555
C105 C37 1_555 1_555
H65 C105 1_555 1_555
C106 H66 1_555 1_555
C107 C47 1_555 1_555
H67 C107 1_555 1_555
C108 C96 1_555 1_555
H68 C108 1_555 1_555
C109 C104 1_555 1_555
O45 Cd2 1_555 1_555
C110 O42 1_555 1_555
O46 C73 1_555 1_555
C111 C56 1_555 1_555
H69 C111 1_555 1_555
C112 C105 1_555 1_555
H70 C112 1_555 1_555
C113 C64 1_555 1_555
C114 C38 1_555 1_555
O47 Cd3 1_555 1_555
C115 C21 1_555 1_555
C116 C11 1_555 1_555
C117 C4 1_555 1_555
O48 C77 1_555 1_555
C118 C5 1_555 1_555
H71 C118 1_555 1_555
O49 Cd2 1_555 1_555
O50 Cd2 1_555 1_555
C119 C15 1_555 1_555
H72 C119 1_555 1_555
C120 C98 1_555 1_555
H73 C120 1_555 1_555
C121 O17 1_555 1_555
C122 C62 1_555 1_555
H74 C122 1_555 1_555
C123 C108 1_555 1_555
H75 C123 1_555 1_555
C124 C68 1_555 1_555
H76 C124 1_555 1_555
C125 C134 1_555 1_555
C126 C90 1_555 1_555
C127 O30 1_555 1_555
C128 O45 1_555 1_555
C129 C8 1_555 1_555
C130 C137 1_555 1_555
C131 C13 1_555 1_555
H77 C131 1_555 1_555
C132 C48 1_555 1_555
C133 C1 1_555 1_555
C134 C93 1_555 1_555
C135 C73 1_555 1_555
H78 C135 1_555 1_555
C136 C32 1_555 1_555
C137 C71 1_555 1_555
C138 C46 1_555 1_555
H79 C138 1_555 1_555
C139 O22 1_555 1_555
C140 C6 1_555 1_555
H80 C140 1_555 1_555
O51 H81 1_555 1_555
N1 C143 1_555 1_555
C141 O51 1_555 1_555
H82 C141 1_555 1_555
H83 C141 1_555 1_555
C142 H84 1_555 1_555
H85 C142 1_555 1_555
H86 C142 1_555 1_555
C143 C141 1_555 1_555
H87 C143 1_555 1_555
O52 H88 1_555 1_555
N2 C146 1_555 1_555
C144 H89 1_555 1_555
H90 C144 1_555 1_555
H91 C144 1_555 1_555
C145 O52 1_555 1_555
H92 C145 1_555 1_555
H93 C145 1_555 1_555
C146 C144 1_555 1_555
H94 C146 1_555 1_555
N3 C148 1_555 1_555
C147 H95 1_555 1_555
H96 C147 1_555 1_555
C148 C147 1_555 1_555
H97 C148 1_555 1_555
C149 C148 1_555 1_555
H98 C149 1_555 1_555
H99 C149 1_555 1_555
H100 C149 1_555 1_555
O53 C147 1_555 1_555
H101 O53 1_555 1_555
O54 H102 1_555 1_555
N4 C151 1_555 1_555
C150 O54 1_555 1_555
H103 C150 1_555 1_555
H104 C150 1_555 1_555
C151 C150 1_555 1_555
H105 C151 1_555 1_555
C152 C151 1_555 1_555
H106 C152 1_555 1_555
H107 C152 1_555 1_555
H108 C152 1_555 1_555
Cd1_2 O16 1_555 1_555
Cd1_3 O20 1_555 1_555
Cd1A O40 1_555 1_555
Cd2A O18 1_555 1_555
Cd2A_2 O39 1_555 1_555
Cd3A O38 1_555 1_555
Cd4A O12 1_555 1_555
Cd5A O4 1_555 1_555
Cd5A_2 O15 1_555 1_555
Cd6A O4 1_555 1_555
Cd6A_2 O11 1_555 1_555
Cd6A_3 O20 1_555 1_555
Cd7A O8 1_555 1_555
Cd7A_2 O18 1_555 1_555
Cd7A_3 O9 1_555 1_555
Cd8A O15 1_555 1_555
O4A Cd5 1_555 1_555
O8A Cd7 1_555 1_555
O9A Cd7 1_555 1_555
O11A Cd6 1_555 1_555
O12A Cd4 1_555 1_555
O13A Cd6 1_555 1_555
O15A Cd5 1_555 1_555
O16_2 Cd1 1_555 1_555
O16A Cd6 1_555 1_555
O18A Cd2 1_555 1_555
O20_2 Cd1 1_555 1_555
O20A Cd6 1_555 1_555
O23_2 Cd1 1_555 1_555
O27A Cd5 1_555 1_555
O29A Cd2 1_555 1_555
O36_2 Cd1 1_555 1_555
O37A Cd8 1_555 1_555
O38A Cd3 1_555 1_555
O39A Cd2 1_555 1_555
O40A Cd1 1_555 1_555
O43A Cd5 1_555 1_555
Cd6 O4A 1_555 1_555
Cd7 O19 1_555 1_555
Cd7 O45 1_555 1_555
Cd7 O18A 1_555 1_555
Cd8 O15A 1_555 1_555
C1 O47 1_555 1_555
C2 O26 1_555 1_555
O13 Cd6A 1_555 1_555
O16 Cd6A_2 1_555 1_555
C3 C13 1_555 1_555
O23 Cd1_2 1_555 1_555
O27 Cd5A 1_555 1_555
O28 C52 1_555 1_555
O29 Cd2A 1_555 1_555
C7 C61 1_555 1_555
O33 C51 1_555 1_555
O34 C26 1_555 1_555
O35 C129 1_555 1_555
O36 Cd1_3 1_555 1_555
C16 O44 1_555 1_555
C20 C31 1_555 1_555
C20 C67 1_555 1_555
C23 C54 1_555 1_555
C24 C36 1_555 1_555
C25 C133 1_555 1_555
C32 C70 1_555 1_555
C33 C41 1_555 1_555
C33 C100 1_555 1_555
C38 C80 1_555 1_555
C44 C72 1_555 1_555
C48 C63 1_555 1_555
C53 C86 1_555 1_555
C55 C67 1_555 1_555
C55 C103 1_555 1_555
C59 C69 1_555 1_555
C59 C116 1_555 1_555
C60 C114 1_555 1_555
O41 C136 1_555 1_555
C64 C138 1_555 1_555
C65 C75 1_555 1_555
C66 C84 1_555 1_555
C74 C77 1_555 1_555
C76 C89 1_555 1_555
C76 C115 1_555 1_555
O43 Cd5A_2 1_555 1_555
C81 C102 1_555 1_555
C82 C127 1_555 1_555
C83 C131 1_555 1_555
C85 C94 1_555 1_555
C85 O48 1_555 1_555
C88 C118 1_555 1_555
C88 C132 1_555 1_555
C91 C126 1_555 1_555
C92 C139 1_555 1_555
C97 C110 1_555 1_555
C99 C135 1_555 1_555
C101 C133 1_555 1_555
C106 C107 1_555 1_555
C106 C110 1_555 1_555
C109 C112 1_555 1_555
O46 C126 1_555 1_555
C111 C136 1_555 1_555
C113 C120 1_555 1_555
C113 C128 1_555 1_555
C115 C121 1_555 1_555
C116 C122 1_555 1_555
O49 C129 1_555 1_555
O50 C128 1_555 1_555
C119 C127 1_555 1_555
C123 C134 1_555 1_555
C124 C137 1_555 1_555
C139 C140 1_555 1_555
C142 C143 1_555 1_555
C145 C146 1_555 1_555
Cd3A O40A 1_555 1_555
Cd6A O16_2 1_555 1_555
Cd6A O20_2 1_555 1_555

#END
