
#######################################################################
#
#                 Cambridge Crystallographic Data Centre
#                                CCDC 
#
#######################################################################
#
# If this CIF has been generated from an entry in the Cambridge 
# Structural Database, then it will include bibliographic, chemical, 
# crystal, experimental, refinement or atomic coordinate data resulting 
# from the CCDC's data processing and validation procedures.
#
#######################################################################

data_JURTAT
_symmetry_cell_setting           orthorhombic
_symmetry_space_group_name_H-M   'P n n a'
_symmetry_Int_Tables_number      52
_space_group_name_Hall           '-P 2a 2bc'
loop_
_symmetry_equiv_pos_site_id
_symmetry_equiv_pos_as_xyz
1 x,y,z
2 1/2-x,-y,z
3 x,1/2-y,1/2-z
4 1/2-x,1/2+y,1/2-z
5 -x,-y,-z
6 1/2+x,y,-z
7 -x,1/2+y,1/2+z
8 1/2+x,1/2-y,1/2+z
_cell_length_a                   13.4113(11)
_cell_length_b                   16.4177(15)
_cell_length_c                   9.1978(7)
_cell_angle_alpha                90
_cell_angle_beta                 90
_cell_angle_gamma                90
_cell_volume                     2025.2
loop_
_atom_site_label
_atom_site_type_symbol
_atom_site_fract_x
_atom_site_fract_y
_atom_site_fract_z
O7 O 0.2724(8) 0.5317(6) 0.3170(14)
C11 C 0.236(3) 0.520(3) 0.443(2)
O7A O 0.2276(8) 0.4683(6) 0.3170(14)
C11A C 0.264(3) 0.480(3) 0.443(2)
Zn1 Zn 0.51961(5) 0.43198(3) 0.19189(6)
O1 O 0.5999(3) 0.39277(19) 0.0275(4)
O2 O 0.5123(3) 0.28323(19) 0.0697(4)
O3 O 0.5256(3) 0.3741(2) 0.3760(4)
O4 O 0.3807(3) 0.4470(3) 0.1219(4)
O5 O 0.5233(3) 0.4195(2) -0.3516(4)
O6 O 0.4145(3) 0.46129(18) -0.1877(4)
C1 C 0.5739(4) 0.3204(2) -0.0050(5)
C2 C 0.6249(3) 0.2838(2) -0.1345(5)
C3 C 0.7271(4) 0.2848(3) -0.1371(6)
H1 H 0.7617 0.3094 -0.0613
C4 C 0.7795(5) 0.2500 -0.2500
H2 H 0.8489 0.2500 -0.2500
C5 C 0.5708(5) 0.2500 -0.2500
C6 C 0.4586(5) 0.2500 -0.2500
C7 C 0.4039(3) 0.3233(2) -0.2574(5)
C8 C 0.4529(3) 0.4059(3) -0.2684(5)
C9 C 0.3010(3) 0.3225(3) -0.2543(6)
H3 H 0.2664 0.3716 -0.2550
C10 C 0.2484(5) 0.2500 -0.2500
H4 H 0.1790 0.2500 -0.2500
O1B O 0.5999(3) 0.10723(19) -0.5275(4)
O2B O 0.5123(3) 0.21677(19) -0.5697(4)
O5B O 0.5233(3) 0.0805(2) -0.1484(4)
O6B O 0.4145(3) 0.03871(18) -0.3123(4)
C1B C 0.5739(4) 0.1796(2) -0.4950(5)
C2B C 0.6249(3) 0.2162(2) -0.3655(5)
C3B C 0.7271(4) 0.2152(3) -0.3629(6)
H1B H 0.7617 0.1906 -0.4387
C7B C 0.4039(3) 0.1767(2) -0.2426(5)
C8B C 0.4529(3) 0.0941(3) -0.2316(5)
C9B C 0.3010(3) 0.1775(3) -0.2457(6)
H3B H 0.2664 0.1284 -0.2450
Zn1B Zn 0.51961(5) 0.06802(3) -0.69189(6)
O3B O 0.5256(3) 0.1259(2) -0.8760(4)
O4B O 0.3807(3) 0.0530(3) -0.6219(4)
Zn1D Zn 0.48039(5) 0.56802(3) -0.19189(6)
Zn1F Zn 0.48039(5) -0.06802(3) -0.30811(6)
O6D O 0.5855(3) 0.53871(18) 0.1877(4)
O6F O 0.5855(3) -0.03871(18) -0.6877(4)
loop_
_geom_bond_atom_site_label_1
_geom_bond_atom_site_label_2
_geom_bond_site_symmetry_1
_geom_bond_site_symmetry_2
Zn1 O1 1_555 1_555
O1 C1 1_555 1_555
O2 C1 1_555 1_555
O3 Zn1 1_555 1_555
O4 Zn1 1_555 1_555
O5 C8 1_555 1_555
O6 C8 1_555 1_555
C1 C2 1_555 1_555
C2 C3 1_555 1_555
C3 H1 1_555 1_555
C4 C3 1_555 1_555
H2 C4 1_555 1_555
C5 C2 1_555 1_555
C6 C5 1_555 1_555
C7 C6 1_555 1_555
C8 C7 1_555 1_555
C9 C7 1_555 1_555
H3 C9 1_555 1_555
C10 C9 1_555 1_555
H4 C10 1_555 1_555
O7 C11 1_555 1_555
C11 O7A 1_555 1_555
O1B C1B 1_555 1_555
O2B C1B 1_555 1_555
O5B C8B 1_555 1_555
O6B C8B 1_555 1_555
C1B C2B 1_555 1_555
C2B C5 1_555 1_555
C3B C4 1_555 1_555
H1B C3B 1_555 1_555
C7B C6 1_555 1_555
C8B C7B 1_555 1_555
C9B C10 1_555 1_555
H3B C9B 1_555 1_555
Zn1B O1B 1_555 1_555
O3B Zn1B 1_555 1_555
O4B Zn1B 1_555 1_555
Zn1D O6 1_555 1_555
Zn1F O6B 1_555 1_555
O6D Zn1 1_555 1_555
O6F Zn1B 1_555 1_555
O7A O7 1_555 1_555
C11A O7 1_555 1_555
C11 C11A 1_555 1_555
C2B C3B 1_555 1_555
C7B C9B 1_555 1_555
O7A C11A 1_555 1_555

#END
