
#######################################################################
#
#                 Cambridge Crystallographic Data Centre
#                                CCDC 
#
#######################################################################
#
# If this CIF has been generated from an entry in the Cambridge 
# Structural Database, then it will include bibliographic, chemical, 
# crystal, experimental, refinement or atomic coordinate data resulting 
# from the CCDC's data processing and validation procedures.
#
#######################################################################

data_JURWIE
_symmetry_cell_setting           triclinic
_symmetry_space_group_name_H-M   'P -1'
_symmetry_Int_Tables_number      2
_space_group_name_Hall           '-P 1'
loop_
_symmetry_equiv_pos_site_id
_symmetry_equiv_pos_as_xyz
1 x,y,z
2 -x,-y,-z
_cell_length_a                   9.384(3)
_cell_length_b                   10.652(3)
_cell_length_c                   14.096(4)
_cell_angle_alpha                78.616(4)
_cell_angle_beta                 87.101(5)
_cell_angle_gamma                86.555(5)
_cell_volume                     1377.72
loop_
_atom_site_label
_atom_site_type_symbol
_atom_site_fract_x
_atom_site_fract_y
_atom_site_fract_z
Br1 Br 0.52976(7) 0.77089(6) -0.15584(5)
Br2 Br 0.23875(6) 0.60190(7) -0.14654(5)
Br3 Br 0.33339(8) 0.76126(7) 0.44848(5)
Br4 Br 0.24031(9) 0.87814(9) 0.64704(6)
Cd1 Cd 0.62005(4) 0.85880(4) 0.12791(3)
O1 O 0.7591(4) 0.7307(4) 0.0424(3)
O2 O 0.8566(4) 0.6153(5) -0.0614(4)
O3 O 0.5110(6) 0.9577(5) 0.2479(3)
O4 O 0.6662(6) 0.8134(6) 0.3260(4)
N1 N 0.4900(5) 0.6768(5) 0.1988(4)
N2 N 0.3932(5) 0.8696(5) 0.0567(4)
N3 N 0.3243(5) 0.9498(5) -0.0174(4)
N4 N 0.1913(5) 0.7872(5) 0.0400(4)
N5 N 0.0770(5) 0.7015(5) 0.0602(4)
H1 H 0.0632 0.6536 0.0156
H2 H 0.0009 0.7544 0.0689
N6 N 0.1444(5) 1.0740(5) -0.1515(4)
C1 C 0.3530(6) 0.6692(6) 0.1721(5)
C2 C 0.5384(7) 0.5868(6) 0.2721(5)
H3 H 0.6314 0.5908 0.2907
C3 C 0.4594(9) 0.4909(7) 0.3205(6)
H4 H 0.4981 0.4297 0.3702
C4 C 0.3220(9) 0.4852(8) 0.2951(7)
H5 H 0.2652 0.4211 0.3287
C5 C 0.2670(8) 0.5753(8) 0.2190(6)
H6 H 0.1738 0.5719 0.2004
C6 C 0.3118(6) 0.7731(6) 0.0913(4)
C7 C 0.2029(6) 0.8982(6) -0.0279(4)
C8 C 0.1019(6) 0.9609(6) -0.1029(5)
C9 C 0.0577(7) 1.1402(7) -0.2195(5)
H7 H 0.0849 1.2197 -0.2535
C10 C -0.0695(7) 1.0956(9) -0.2412(6)
H8 H -0.1254 1.1432 -0.2896
C11 C -0.1112(8) 0.9813(9) -0.1906(6)
H9 H -0.1979 0.9505 -0.2024
C12 C -0.0233(7) 0.9100(7) -0.1208(5)
H10 H -0.0485 0.8299 -0.0870
C13 C 0.7566(6) 0.6460(6) -0.0095(5)
C14 C 0.6215(5) 0.5711(6) -0.0027(4)
C15 C 0.5117(6) 0.6154(6) -0.0671(4)
C16 C 0.3915(6) 0.5434(6) -0.0624(4)
C17 C 0.5741(8) 0.9027(7) 0.3226(5)
C18 C 0.5371(7) 0.9531(7) 0.4148(5)
C19 C 0.4287(6) 0.9012(6) 0.4787(4)
C20 C 0.3934(7) 0.9459(6) 0.5622(5)
Br1A Br 0.47024(7) 0.22911(6) 0.15584(5)
Br2A Br 0.76125(6) 0.39810(7) 0.14654(5)
O1A O 0.2409(4) 0.2693(4) -0.0424(3)
O2A O 0.1434(4) 0.3847(5) 0.0614(4)
C13A C 0.2434(6) 0.3540(6) 0.0095(5)
C14A C 0.3785(5) 0.4289(6) 0.0027(4)
C15A C 0.4883(6) 0.3846(6) 0.0671(4)
C16A C 0.6085(6) 0.4566(6) 0.0624(4)
Br3A Br 0.66661(8) 1.23874(7) 0.55152(5)
Br4A Br 0.75969(9) 1.12186(9) 0.35296(6)
O3A O 0.4890(6) 1.0423(5) 0.7521(3)
O4A O 0.3338(6) 1.1866(6) 0.6740(4)
C17A C 0.4259(8) 1.0973(7) 0.6774(5)
C18A C 0.4629(7) 1.0469(7) 0.5852(5)
C19A C 0.5713(6) 1.0988(6) 0.5213(4)
C20A C 0.6066(7) 1.0541(6) 0.4378(5)
Cd1A Cd 0.37995(4) 0.14120(4) -0.12791(3)
N1A N 0.5100(5) 0.3232(5) -0.1988(4)
N2A N 0.6068(5) 0.1304(5) -0.0567(4)
N3A N 0.6757(5) 0.0502(5) 0.0174(4)
N4A N 0.8087(5) 0.2128(5) -0.0400(4)
N5A N 0.9230(5) 0.2985(5) -0.0602(4)
H1A H 0.9368 0.3464 -0.0156
H2A H 0.9991 0.2456 -0.0689
N6A N 0.8556(5) -0.0740(5) 0.1515(4)
C1A C 0.6470(6) 0.3308(6) -0.1721(5)
C2A C 0.4616(7) 0.4132(6) -0.2721(5)
H3A H 0.3686 0.4092 -0.2907
C3A C 0.5406(9) 0.5091(7) -0.3205(6)
H4A H 0.5019 0.5703 -0.3702
C4A C 0.6780(9) 0.5148(8) -0.2951(7)
H5A H 0.7348 0.5789 -0.3287
C5A C 0.7330(8) 0.4247(8) -0.2190(6)
H6A H 0.8262 0.4281 -0.2004
C6A C 0.6882(6) 0.2269(6) -0.0913(4)
C7A C 0.7971(6) 0.1018(6) 0.0279(4)
C8A C 0.8981(6) 0.0391(6) 0.1029(5)
C9A C 0.9423(7) -0.1402(7) 0.2195(5)
H7A H 0.9151 -0.2197 0.2535
C10A C 1.0695(7) -0.0956(9) 0.2412(6)
H8A H 1.1254 -0.1432 0.2896
C11A C 1.1112(8) 0.0187(9) 0.1906(6)
H9A H 1.1979 0.0495 0.2024
C12A C 1.0233(7) 0.0900(7) 0.1208(5)
H10A H 1.0485 0.1701 0.0870
Cd1_2 Cd 0.62005(4) -0.14120(4) 0.12791(3)
Cd1A_2 Cd 0.37995(4) 1.14120(4) -0.12791(3)
Cd1A_3 Cd 0.37995(4) 1.14120(4) 0.87209(3)
O3A_2 O 0.4890(6) 0.0423(5) -0.2479(3)
O4A_2 O 0.3338(6) 0.1866(6) -0.3260(4)
N3_2 N 0.3243(5) -0.0502(5) -0.0174(4)
N3A_2 N 0.6757(5) 1.0502(5) 0.0174(4)
N6_2 N 0.1444(5) 0.0740(5) -0.1515(4)
N6A_2 N 0.8556(5) 0.9260(5) 0.1515(4)
loop_
_geom_bond_atom_site_label_1
_geom_bond_atom_site_label_2
_geom_bond_site_symmetry_1
_geom_bond_site_symmetry_2
Br1 C15 1_555 1_555
Br2 C16 1_555 1_555
Br3 C19 1_555 1_555
Br4 C20 1_555 1_555
Cd1 O1 1_555 1_555
O1 C13 1_555 1_555
O2 C13 1_555 1_555
O3 Cd1 1_555 1_555
O4 Cd1 1_555 1_555
N1 Cd1 1_555 1_555
N2 Cd1 1_555 1_555
N3 N2 1_555 1_555
N4 N5 1_555 1_555
N5 H1 1_555 1_555
H2 N5 1_555 1_555
N6 C8 1_555 1_555
C1 N1 1_555 1_555
C2 N1 1_555 1_555
H3 C2 1_555 1_555
C3 C2 1_555 1_555
H4 C3 1_555 1_555
C4 C3 1_555 1_555
H5 C4 1_555 1_555
C5 C1 1_555 1_555
H6 C5 1_555 1_555
C6 N2 1_555 1_555
C7 N3 1_555 1_555
C8 C7 1_555 1_555
C9 N6 1_555 1_555
H7 C9 1_555 1_555
C10 C9 1_555 1_555
H8 C10 1_555 1_555
C11 C10 1_555 1_555
H9 C11 1_555 1_555
C12 C8 1_555 1_555
H10 C12 1_555 1_555
C13 C14 1_555 1_555
C14 C15 1_555 1_555
C15 C16 1_555 1_555
C16 C14A 1_555 1_555
C17 O3 1_555 1_555
C18 C17 1_555 1_555
C19 C18 1_555 1_555
C20 C19 1_555 1_555
Br1A C15A 1_555 1_555
Br2A C16A 1_555 1_555
O1A C13A 1_555 1_555
O2A C13A 1_555 1_555
C13A C14A 1_555 1_555
C14A C15A 1_555 1_555
C15A C16A 1_555 1_555
C16A C14 1_555 1_555
Br3A C19A 1_555 1_555
Br4A C20A 1_555 1_555
O3A C17A 1_555 1_555
O4A C17A 1_555 1_555
C17A C18A 1_555 1_555
C18A C20 1_555 1_555
C19A C18A 1_555 1_555
C20A C18 1_555 1_555
Cd1A O1A 1_555 1_555
N1A Cd1A 1_555 1_555
N2A Cd1A 1_555 1_555
N3A N2A 1_555 1_555
N4A N5A 1_555 1_555
N5A H1A 1_555 1_555
H2A N5A 1_555 1_555
N6A C8A 1_555 1_555
C1A N1A 1_555 1_555
C2A N1A 1_555 1_555
H3A C2A 1_555 1_555
C3A C2A 1_555 1_555
H4A C3A 1_555 1_555
C4A C3A 1_555 1_555
H5A C4A 1_555 1_555
C5A C1A 1_555 1_555
H6A C5A 1_555 1_555
C6A N2A 1_555 1_555
C7A N3A 1_555 1_555
C8A C7A 1_555 1_555
C9A N6A 1_555 1_555
H7A C9A 1_555 1_555
C10A C9A 1_555 1_555
H8A C10A 1_555 1_555
C11A C10A 1_555 1_555
H9A C11A 1_555 1_555
C12A C8A 1_555 1_555
H10A C12A 1_555 1_555
Cd1_2 N3A 1_555 1_555
Cd1A_2 N3 1_555 1_555
Cd1A_3 O3A 1_555 1_555
O3A_2 Cd1A 1_555 1_555
O4A_2 Cd1A 1_555 1_555
N3_2 Cd1A 1_555 1_555
N3A_2 Cd1 1_555 1_555
N6_2 Cd1A 1_555 1_555
N6A_2 Cd1 1_555 1_555
O4 C17 1_555 1_555
N4 C6 1_555 1_555
N4 C7 1_555 1_555
N6 Cd1A_2 1_555 1_555
C1 C6 1_555 1_555
C4 C5 1_555 1_555
C11 C12 1_555 1_555
O4A Cd1A_3 1_555 1_555
C19A C20A 1_555 1_555
N4A C6A 1_555 1_555
N4A C7A 1_555 1_555
N6A Cd1_2 1_555 1_555
C1A C6A 1_555 1_555
C4A C5A 1_555 1_555
C11A C12A 1_555 1_555

#END
