
#######################################################################
#
#                 Cambridge Crystallographic Data Centre
#                                CCDC 
#
#######################################################################
#
# If this CIF has been generated from an entry in the Cambridge 
# Structural Database, then it will include bibliographic, chemical, 
# crystal, experimental, refinement or atomic coordinate data resulting 
# from the CCDC's data processing and validation procedures.
#
#######################################################################

data_JURZON
_symmetry_cell_setting           triclinic
_symmetry_space_group_name_H-M   'P -1'
_symmetry_Int_Tables_number      2
_space_group_name_Hall           '-P 1'
loop_
_symmetry_equiv_pos_site_id
_symmetry_equiv_pos_as_xyz
1 x,y,z
2 -x,-y,-z
_cell_length_a                   8.1429(4)
_cell_length_b                   10.3070(6)
_cell_length_c                   10.5524(5)
_cell_angle_alpha                84.090(4)
_cell_angle_beta                 72.211(4)
_cell_angle_gamma                69.900(5)
_cell_volume                     791.942
loop_
_atom_site_label
_atom_site_type_symbol
_atom_site_fract_x
_atom_site_fract_y
_atom_site_fract_z
Cd1 Cd 0.60109(2) 0.376255(15) 0.237903(16)
S1 S 0.70763(8) 0.62263(6) 0.58357(6)
S2 S 0.51956(9) 0.76221(6) -0.08583(6)
N1 N 0.7773(3) 0.15774(18) 0.29617(19)
N2 N 0.8820(3) 0.29848(19) 0.0734(2)
N3 N 0.5131(3) 0.5775(2) 0.1280(2)
N4 N 0.6904(3) 0.4826(2) 0.3753(2)
C1 C 0.5150(3) 0.6535(2) 0.0394(2)
C2 C 0.6954(3) 0.5406(2) 0.4616(2)
C3 C 0.7216(3) 0.0938(2) 0.4101(2)
H1 H 0.6061 0.1391 0.4707
C4 C 0.8246(4) -0.0352(2) 0.4434(3)
H2 H 0.7802 -0.0771 0.5252
C5 C 0.9932(3) -0.1028(2) 0.3562(3)
C6 C 1.0509(3) -0.0355(2) 0.2388(3)
H3 H 1.1657 -0.0787 0.1766
C7 C 0.9409(3) 0.0950(2) 0.2117(2)
C8 C 1.1080(4) -0.2441(2) 0.3864(3)
H4 H 1.0560 -0.3126 0.3731
H5 H 1.1104 -0.2473 0.4789
H6 H 1.2327 -0.2648 0.3268
C9 C 0.9298(4) 0.3700(2) -0.0368(3)
H7 H 0.8478 0.4589 -0.0474
C10 C 1.0926(4) 0.3207(3) -0.1359(3)
H8 H 1.1207 0.3754 -0.2123
C11 C 1.2139(3) 0.1919(2) -0.1235(2)
C12 C 1.1640(3) 0.1168(2) -0.0088(2)
H9 H 1.2440 0.0275 0.0034
C13 C 0.9992(3) 0.1713(2) 0.0870(2)
C14 C 1.3935(4) 0.1349(3) -0.2268(3)
H10 H 1.4063 0.0432 -0.2545
H11 H 1.4929 0.1275 -0.1896
H12 H 1.3990 0.1967 -0.3040
Cd1A Cd 0.39891(2) 0.623745(15) -0.237903(16)
Cd1A_2 Cd 0.39891(2) 0.623745(15) 0.762097(16)
S1A S 0.29237(8) 0.37737(6) 0.41643(6)
S2A S 0.48044(9) 0.23779(6) 0.08583(6)
loop_
_geom_bond_atom_site_label_1
_geom_bond_atom_site_label_2
_geom_bond_site_symmetry_1
_geom_bond_site_symmetry_2
Cd1 N1 1_555 1_555
S1 C2 1_555 1_555
S2 C1 1_555 1_555
N1 C3 1_555 1_555
N2 Cd1 1_555 1_555
N3 Cd1 1_555 1_555
N4 Cd1 1_555 1_555
C1 N3 1_555 1_555
C2 N4 1_555 1_555
C3 H1 1_555 1_555
C4 C3 1_555 1_555
H2 C4 1_555 1_555
C5 C4 1_555 1_555
C6 C5 1_555 1_555
H3 C6 1_555 1_555
C7 N1 1_555 1_555
C8 C5 1_555 1_555
H4 C8 1_555 1_555
H5 C8 1_555 1_555
H6 C8 1_555 1_555
C9 N2 1_555 1_555
H7 C9 1_555 1_555
C10 C9 1_555 1_555
H8 C10 1_555 1_555
C11 C10 1_555 1_555
C12 C11 1_555 1_555
H9 C12 1_555 1_555
C13 N2 1_555 1_555
C14 C11 1_555 1_555
H10 C14 1_555 1_555
H11 C14 1_555 1_555
H12 C14 1_555 1_555
Cd1A S2 1_555 1_555
Cd1A_2 S1 1_555 1_555
S1A Cd1 1_555 1_555
S2A Cd1 1_555 1_555
C6 C7 1_555 1_555
C7 C13 1_555 1_555
C12 C13 1_555 1_555

#END
