
#######################################################################
#
#                 Cambridge Crystallographic Data Centre
#                                CCDC 
#
#######################################################################
#
# If this CIF has been generated from an entry in the Cambridge 
# Structural Database, then it will include bibliographic, chemical, 
# crystal, experimental, refinement or atomic coordinate data resulting 
# from the CCDC's data processing and validation procedures.
#
#######################################################################

data_JUSBOQ
_symmetry_cell_setting           monoclinic
_symmetry_space_group_name_H-M   'P 21/n'
_symmetry_Int_Tables_number      14
_space_group_name_Hall           '-P 2yn'
loop_
_symmetry_equiv_pos_site_id
_symmetry_equiv_pos_as_xyz
1 x,y,z
2 1/2-x,1/2+y,1/2-z
3 -x,-y,-z
4 1/2+x,1/2-y,1/2+z
_cell_length_a                   12.272(2)
_cell_length_b                   10.272(2)
_cell_length_c                   28.396(6)
_cell_angle_alpha                90
_cell_angle_beta                 98.331(6)
_cell_angle_gamma                90
_cell_volume                     3541.77
loop_
_atom_site_label
_atom_site_type_symbol
_atom_site_fract_x
_atom_site_fract_y
_atom_site_fract_z
Co1 Co 0.87300(7) 0.51615(9) 0.35440(3)
O1 O 0.9617(4) 0.5643(5) 0.06654(16)
O2 O 0.9213(4) 0.4385(4) 0.28617(15)
O3 O 0.8740(4) 0.4201(5) 0.10588(17)
H1 H 0.8939 0.3812 0.1309
N1 N 0.1620(5) 0.4707(6) 0.0307(2)
O4 O 0.9410(4) 0.6431(4) 0.30826(16)
O5 O 1.0410(4) 0.4924(5) 0.38321(17)
O6 O 1.3205(4) 0.2433(5) 0.54455(16)
N2 N 0.8928(5) 0.1604(5) 0.42742(19)
O7 O 1.0577(4) 0.5907(5) 0.45325(19)
C1 C 1.1236(6) 0.7131(7) 0.1939(2)
H2 H 1.1822 0.7704 0.1938
C2 C 1.2699(5) 0.6326(6) 0.3603(2)
C3 C 0.9472(6) 0.0790(7) 0.4641(2)
C4 C 0.3903(5) 0.5034(6) 0.1245(2)
N3 N 0.3159(4) 0.4719(5) 0.08245(19)
N4 N 0.8435(5) 0.3384(6) 0.3847(2)
C5 C 1.3076(6) 0.8389(7) 0.3263(2)
H3 H 1.3454 0.9176 0.3287
C6 C 1.0044(5) 0.5847(7) 0.2361(2)
C7 C 0.9551(5) 0.5528(6) 0.2798(2)
N5 N 0.7153(5) 0.5553(5) 0.31785(19)
C8 C 1.4029(6) 0.4941(7) 0.4119(2)
H4 H 1.4563 0.5253 0.3947
C9 C 0.9054(6) -0.0423(7) 0.4714(3)
H5 H 0.8423 -0.0719 0.4523
C10 C 1.1758(6) 0.6962(6) 0.2823(2)
C11 C 0.5201(6) 0.5567(7) 0.2105(2)
C12 C 1.0979(5) 0.6656(6) 0.2375(2)
C13 C 0.2203(6) 0.5314(7) 0.0665(2)
H6 H 0.1976 0.6082 0.0794
O8 O 1.4735(4) 0.1996(5) 0.51437(17)
C14 C 1.3571(5) 0.3634(6) 0.4767(2)
C15 C 1.2942(6) 0.5366(7) 0.4003(2)
C16 C 1.2511(6) 0.4123(7) 0.4674(2)
H7 H 1.2004 0.3881 0.4871
C17 C 0.9803(5) 0.5815(6) 0.1502(2)
C18 C 0.9360(6) 0.5219(7) 0.1035(2)
C19 C 0.3188(6) 0.3609(7) 0.0547(2)
H8 H 0.3744 0.2987 0.0572
C20 C 1.0418(6) 0.1198(7) 0.4925(2)
H9 H 1.0708 0.2013 0.4872
C21 C 0.3959(6) 0.6300(7) 0.1420(3)
H10 H 0.3571 0.6967 0.1249
C22 C 1.2169(5) 0.4977(6) 0.4290(2)
C23 C 1.1952(6) 0.6069(7) 0.3194(2)
H11 H 1.1576 0.5281 0.3169
C24 C 1.0963(6) 0.5309(7) 0.4210(3)
C25 C 0.4604(6) 0.6557(7) 0.1857(3)
H12 H 0.4631 0.7395 0.1982
C26 C 0.4540(6) 0.4063(7) 0.1482(3)
H13 H 0.4536 0.3231 0.1353
C27 C 0.5569(8) 0.6578(9) 0.2916(3)
H14 H 0.4952 0.7111 0.2903
C28 C 0.9519(6) 0.5404(7) 0.1928(2)
H15 H 0.8950 0.4805 0.1925
N6 N 0.5830(5) 0.5797(6) 0.25602(19)
C29 C 1.3855(6) 0.2613(7) 0.5142(2)
C30 C 0.5185(6) 0.4331(7) 0.1914(3)
H16 H 0.5608 0.3675 0.2075
C31 C 0.2248(6) 0.3614(7) 0.0234(2)
H17 H 0.2049 0.2981 0.0004
C32 C 1.2324(6) 0.8139(7) 0.2864(2)
H18 H 1.2196 0.8757 0.2623
C33 C 1.3282(6) 0.7496(6) 0.3630(2)
H19 H 1.3806 0.7675 0.3893
C34 C 0.8278(7) 0.1225(8) 0.3858(3)
H20 H 0.8078 0.0377 0.3770
C35 C 0.6792(6) 0.5222(7) 0.2740(2)
H21 H 0.7161 0.4644 0.2567
C36 C 0.7992(6) 0.2298(8) 0.3607(3)
H22 H 0.7555 0.2312 0.3310
C37 C 1.0626(6) 0.6756(7) 0.1512(2)
H23 H 1.0766 0.7135 0.1229
C38 C 0.6370(7) 0.6433(9) 0.3287(3)
H24 H 0.6396 0.6862 0.3576
C39 C 1.4326(6) 0.4059(7) 0.4487(2)
H25 H 1.5045 0.3751 0.4544
C40 C 0.8999(6) 0.2935(7) 0.4248(3)
H26 H 0.9391 0.3455 0.4482
Co2 Co 1.5000 0.0000 0.5000
O9 O 0.8575(4) 0.6395(5) 0.41137(17)
H27 H 0.7965 0.6241 0.4228
H28 H 0.9123 0.6281 0.4343
N2B N 1.1072(5) -0.1604(5) 0.57258(19)
C3B C 1.0528(6) -0.0790(7) 0.5359(2)
N4B N 1.1565(5) -0.3384(6) 0.6153(2)
C9B C 1.0946(6) 0.0423(7) 0.5286(3)
H5B H 1.1577 0.0719 0.5477
C20B C 0.9582(6) -0.1198(7) 0.5075(2)
H9B H 0.9292 -0.2013 0.5128
C34B C 1.1722(7) -0.1225(8) 0.6142(3)
H20B H 1.1922 -0.0377 0.6230
C36B C 1.2008(6) -0.2298(8) 0.6393(3)
H22B H 1.2445 -0.2312 0.6690
C40B C 1.1001(6) -0.2935(7) 0.5752(3)
H26B H 1.0609 -0.3455 0.5518
Co1B Co 1.12700(7) -0.51615(9) 0.64560(3)
O1B O 1.0383(4) -0.5643(5) 0.93346(16)
O2B O 1.0787(4) -0.4385(4) 0.71383(15)
O3B O 1.1260(4) -0.4201(5) 0.89412(17)
H1B H 1.1061 -0.3812 0.8691
N1B N 1.8380(5) -0.4707(6) 0.9693(2)
O4B O 1.0590(4) -0.6431(4) 0.69174(16)
O5B O 0.9590(4) -0.4924(5) 0.61679(17)
O6B O 0.6795(4) -0.2433(5) 0.45545(16)
O7B O 0.9423(4) -0.5907(5) 0.54675(19)
C1B C 0.8764(6) -0.7131(7) 0.8061(2)
H2B H 0.8178 -0.7704 0.8062
C2B C 0.7301(5) -0.6326(6) 0.6397(2)
C4B C 1.6097(5) -0.5034(6) 0.8755(2)
N3B N 1.6841(4) -0.4719(5) 0.91755(19)
C5B C 0.6924(6) -0.8389(7) 0.6737(2)
H3B H 0.6546 -0.9176 0.6713
C6B C 0.9956(5) -0.5847(7) 0.7639(2)
C7B C 1.0449(5) -0.5528(6) 0.7202(2)
N5B N 1.2847(5) -0.5553(5) 0.68215(19)
C8B C 0.5971(6) -0.4941(7) 0.5881(2)
H4B H 0.5437 -0.5253 0.6053
C10B C 0.8242(6) -0.6962(6) 0.7177(2)
C11B C 1.4799(6) -0.5567(7) 0.7895(2)
C12B C 0.9021(5) -0.6656(6) 0.7625(2)
C13B C 1.7797(6) -0.5314(7) 0.9335(2)
H6B H 1.8024 -0.6082 0.9206
O8B O 0.5265(4) -0.1996(5) 0.48563(17)
C14B C 0.6429(5) -0.3634(6) 0.5233(2)
C15B C 0.7058(6) -0.5366(7) 0.5997(2)
C16B C 0.7489(6) -0.4123(7) 0.5326(2)
H7B H 0.7996 -0.3881 0.5129
C17B C 1.0197(5) -0.5815(6) 0.8498(2)
C18B C 1.0640(6) -0.5219(7) 0.8965(2)
C19B C 1.6812(6) -0.3609(7) 0.9453(2)
H8B H 1.6256 -0.2987 0.9428
C21B C 1.6041(6) -0.6300(7) 0.8580(3)
H10B H 1.6429 -0.6967 0.8751
C22B C 0.7831(5) -0.4977(6) 0.5710(2)
C23B C 0.8048(6) -0.6069(7) 0.6806(2)
H11B H 0.8424 -0.5281 0.6831
C24B C 0.9037(6) -0.5309(7) 0.5790(3)
C25B C 1.5396(6) -0.6557(7) 0.8143(3)
H12B H 1.5369 -0.7395 0.8018
C26B C 1.5460(6) -0.4063(7) 0.8518(3)
H13B H 1.5464 -0.3231 0.8647
C27B C 1.4431(8) -0.6578(9) 0.7084(3)
H14B H 1.5048 -0.7111 0.7097
C28B C 1.0481(6) -0.5404(7) 0.8072(2)
H15B H 1.1050 -0.4805 0.8075
N6B N 1.4170(5) -0.5797(6) 0.74398(19)
C29B C 0.6145(6) -0.2613(7) 0.4858(2)
C30B C 1.4815(6) -0.4331(7) 0.8086(3)
H16B H 1.4392 -0.3675 0.7925
C31B C 1.7752(6) -0.3614(7) 0.9766(2)
H17B H 1.7951 -0.2981 0.9996
C32B C 0.7676(6) -0.8139(7) 0.7136(2)
H18B H 0.7804 -0.8757 0.7377
C33B C 0.6718(6) -0.7496(6) 0.6370(2)
H19B H 0.6194 -0.7675 0.6107
C35B C 1.3208(6) -0.5222(7) 0.7260(2)
H21B H 1.2839 -0.4644 0.7433
C37B C 0.9374(6) -0.6756(7) 0.8488(2)
H23B H 0.9234 -0.7135 0.8771
C38B C 1.3630(7) -0.6433(9) 0.6713(3)
H24B H 1.3604 -0.6862 0.6424
C39B C 0.5674(6) -0.4059(7) 0.5513(2)
H25B H 0.4955 -0.3751 0.5456
O9B O 1.1425(4) -0.6395(5) 0.58863(17)
H27B H 1.2035 -0.6241 0.5772
H28B H 1.0877 -0.6281 0.5657
O1A O 1.5383(4) 0.0643(5) 0.43346(16)
O1C O 1.4617(4) -0.0643(5) 0.56654(16)
N1A N 1.3380(5) -0.0293(6) 0.4693(2)
N1C N 1.6620(5) 0.0293(6) 0.5307(2)
O8B_2 O 1.5265(4) -0.1996(5) 0.48563(17)
Co2_2 Co 0.5000 0.0000 0.5000
Co2A Co 0.0000 0.5000 0.0000
Co2A_2 Co 1.0000 -0.5000 1.0000
Co2A_3 Co 1.0000 0.5000 0.0000
Co2A_4 Co 2.0000 -0.5000 1.0000
loop_
_geom_bond_atom_site_label_1
_geom_bond_atom_site_label_2
_geom_bond_site_symmetry_1
_geom_bond_site_symmetry_2
Co1 O2 1_555 1_555
O1 C18 1_555 1_555
O2 C7 1_555 1_555
O3 H1 1_555 1_555
N1 C13 1_555 1_555
O4 Co1 1_555 1_555
O5 Co1 1_555 1_555
O6 C29 1_555 1_555
N2 C3 1_555 1_555
O7 C24 1_555 1_555
C1 H2 1_555 1_555
C2 C15 1_555 1_555
C3 C9 1_555 1_555
C4 N3 1_555 1_555
N3 C13 1_555 1_555
N4 Co1 1_555 1_555
C5 H3 1_555 1_555
C6 C7 1_555 1_555
C7 O4 1_555 1_555
N5 Co1 1_555 1_555
C8 H4 1_555 1_555
C9 H5 1_555 1_555
C10 C12 1_555 1_555
C11 C25 1_555 1_555
C12 C1 1_555 1_555
C13 H6 1_555 1_555
O8 C29 1_555 1_555
C14 C16 1_555 1_555
C15 C8 1_555 1_555
C16 H7 1_555 1_555
C17 C18 1_555 1_555
C18 O3 1_555 1_555
C19 N3 1_555 1_555
H8 C19 1_555 1_555
C20 C3 1_555 1_555
H9 C20 1_555 1_555
C21 C4 1_555 1_555
H10 C21 1_555 1_555
C22 C15 1_555 1_555
C23 C2 1_555 1_555
H11 C23 1_555 1_555
C24 O5 1_555 1_555
C25 C21 1_555 1_555
H12 C25 1_555 1_555
C26 C4 1_555 1_555
H13 C26 1_555 1_555
C27 H14 1_555 1_555
C28 C6 1_555 1_555
H15 C28 1_555 1_555
N6 C11 1_555 1_555
C29 C14 1_555 1_555
C30 C11 1_555 1_555
H16 C30 1_555 1_555
C31 N1 1_555 1_555
H17 C31 1_555 1_555
C32 C5 1_555 1_555
H18 C32 1_555 1_555
C33 C2 1_555 1_555
H19 C33 1_555 1_555
C34 N2 1_555 1_555
H20 C34 1_555 1_555
C35 N5 1_555 1_555
H21 C35 1_555 1_555
C36 N4 1_555 1_555
H22 C36 1_555 1_555
C37 C1 1_555 1_555
H23 C37 1_555 1_555
C38 N5 1_555 1_555
H24 C38 1_555 1_555
C39 C8 1_555 1_555
H25 C39 1_555 1_555
C40 N2 1_555 1_555
H26 C40 1_555 1_555
Co2 O8 1_555 1_555
O9 Co1 1_555 1_555
H27 O9 1_555 1_555
H28 O9 1_555 1_555
N2B C3B 1_555 1_555
C3B C9B 1_555 1_555
N4B C36B 1_555 1_555
C9B C20 1_555 1_555
H5B C9B 1_555 1_555
C20B C9 1_555 1_555
H9B C20B 1_555 1_555
C34B N2B 1_555 1_555
H20B C34B 1_555 1_555
C36B C34B 1_555 1_555
H22B C36B 1_555 1_555
C40B N2B 1_555 1_555
H26B C40B 1_555 1_555
Co1B N4B 1_555 1_555
O1B C18B 1_555 1_555
O2B Co1B 1_555 1_555
O3B H1B 1_555 1_555
N1B C13B 1_555 1_555
O4B Co1B 1_555 1_555
O5B Co1B 1_555 1_555
O6B C29B 1_555 1_555
O7B C24B 1_555 1_555
C1B H2B 1_555 1_555
C2B C15B 1_555 1_555
C4B N3B 1_555 1_555
N3B C13B 1_555 1_555
C5B H3B 1_555 1_555
C6B C7B 1_555 1_555
C7B O2B 1_555 1_555
N5B Co1B 1_555 1_555
C8B H4B 1_555 1_555
C10B C12B 1_555 1_555
C11B C25B 1_555 1_555
C12B C1B 1_555 1_555
C13B H6B 1_555 1_555
O8B C29B 1_555 1_555
C14B C16B 1_555 1_555
C15B C8B 1_555 1_555
C16B H7B 1_555 1_555
C17B C18B 1_555 1_555
C18B O3B 1_555 1_555
C19B N3B 1_555 1_555
H8B C19B 1_555 1_555
C21B C4B 1_555 1_555
H10B C21B 1_555 1_555
C22B C15B 1_555 1_555
C23B C2B 1_555 1_555
H11B C23B 1_555 1_555
C24B O5B 1_555 1_555
C25B C21B 1_555 1_555
H12B C25B 1_555 1_555
C26B C4B 1_555 1_555
H13B C26B 1_555 1_555
C27B H14B 1_555 1_555
C28B C6B 1_555 1_555
H15B C28B 1_555 1_555
N6B C11B 1_555 1_555
C29B C14B 1_555 1_555
C30B C11B 1_555 1_555
H16B C30B 1_555 1_555
C31B N1B 1_555 1_555
H17B C31B 1_555 1_555
C32B C5B 1_555 1_555
H18B C32B 1_555 1_555
C33B C2B 1_555 1_555
H19B C33B 1_555 1_555
C35B N5B 1_555 1_555
H21B C35B 1_555 1_555
C37B C1B 1_555 1_555
H23B C37B 1_555 1_555
C38B N5B 1_555 1_555
H24B C38B 1_555 1_555
C39B C8B 1_555 1_555
H25B C39B 1_555 1_555
O9B Co1B 1_555 1_555
H27B O9B 1_555 1_555
H28B O9B 1_555 1_555
O1A Co2 1_555 1_555
O1C Co2 1_555 1_555
N1A Co2 1_555 1_555
N1C Co2 1_555 1_555
O8B_2 Co2 1_555 1_555
Co2_2 O8B 1_555 1_555
Co2A N1 1_555 1_555
Co2A_2 O1B 1_555 1_555
Co2A_3 O1 1_555 1_555
Co2A_4 N1B 1_555 1_555
N4 C40 1_555 1_555
C5 C33 1_555 1_555
C6 C12 1_555 1_555
C10 C23 1_555 1_555
C10 C32 1_555 1_555
C14 C39 1_555 1_555
C16 C22 1_555 1_555
C17 C28 1_555 1_555
C17 C37 1_555 1_555
C19 C31 1_555 1_555
C22 C24 1_555 1_555
C26 C30 1_555 1_555
C27 N6 1_555 1_555
C27 C38 1_555 1_555
N6 C35 1_555 1_555
C34 C36 1_555 1_555
C3B C20B 1_555 1_555
N4B C40B 1_555 1_555
O4B C7B 1_555 1_555
C5B C33B 1_555 1_555
C6B C12B 1_555 1_555
C10B C23B 1_555 1_555
C10B C32B 1_555 1_555
C14B C39B 1_555 1_555
C16B C22B 1_555 1_555
C17B C28B 1_555 1_555
C17B C37B 1_555 1_555
C19B C31B 1_555 1_555
C22B C24B 1_555 1_555
C26B C30B 1_555 1_555
C27B N6B 1_555 1_555
C27B C38B 1_555 1_555
N6B C35B 1_555 1_555

#END
