
#######################################################################
#
#                 Cambridge Crystallographic Data Centre
#                                CCDC 
#
#######################################################################
#
# If this CIF has been generated from an entry in the Cambridge 
# Structural Database, then it will include bibliographic, chemical, 
# crystal, experimental, refinement or atomic coordinate data resulting 
# from the CCDC's data processing and validation procedures.
#
#######################################################################

data_JUSBAC
_symmetry_cell_setting           monoclinic
_symmetry_space_group_name_H-M   'C 2/c'
_symmetry_Int_Tables_number      15
_space_group_name_Hall           '-C 2yn'
loop_
_symmetry_equiv_pos_site_id
_symmetry_equiv_pos_as_xyz
1 x,y,z
2 -x,y,1/2-z
3 1/2+x,1/2+y,z
4 1/2-x,1/2+y,1/2-z
5 -x,-y,-z
6 x,-y,1/2+z
7 1/2-x,1/2-y,-z
8 1/2+x,1/2-y,1/2+z
_cell_length_a                   27.6817(16)
_cell_length_b                   10.2694(3)
_cell_length_c                   20.6356(13)
_cell_angle_alpha                90
_cell_angle_beta                 123.241(9)
_cell_angle_gamma                90
_cell_volume                     4906.31
loop_
_atom_site_label
_atom_site_type_symbol
_atom_site_fract_x
_atom_site_fract_y
_atom_site_fract_z
Cd1 Cd -0.175108(9) -0.20255(2) 0.548254(13)
Cd2 Cd -0.042931(9) -0.02170(2) 0.635388(13)
O1 O -0.09432(9) -0.2089(2) 0.54060(12)
O2 O -0.26162(8) 0.1510(2) 0.04436(12)
O3 O -0.29924(10) -0.5346(2) 0.02978(13)
N1 N -0.07156(10) -0.1153(2) 0.71203(14)
O4 O -0.33550(10) 0.0642(2) -0.06214(13)
N2 N -0.04496(10) -0.1220(3) 0.78883(14)
O5 O -0.05212(10) -0.0461(3) 0.52036(13)
N3 N -0.12090(10) -0.1824(3) 0.67614(15)
O6 O -0.36829(10) -0.4188(2) -0.07015(13)
C1 C -0.12669(13) -0.2351(3) 0.73193(18)
C2 C -0.23831(13) -0.0846(3) 0.12435(18)
H1 H -0.2193 -0.0093 0.1514
C3 C -0.18487(13) -0.2025(3) 0.25007(18)
C4 C -0.27874(12) -0.0770(3) 0.04529(18)
C5 C -0.08537(13) -0.1434(4) 0.49614(19)
C6 C -0.30777(12) -0.1882(3) 0.00395(18)
H2 H -0.3356 -0.1832 -0.0489
C7 C -0.22543(13) -0.2016(3) 0.16434(18)
C8 C -0.29281(13) 0.0525(3) 0.00559(19)
C9 C -0.29495(12) -0.3064(3) 0.04203(18)
C10 C -0.25411(13) -0.3130(3) 0.12162(18)
H3 H -0.2458 -0.3931 0.1467
C11 C -0.32384(14) -0.4290(3) -0.00324(19)
C12 C -0.07850(13) -0.1971(3) 0.80328(19)
C13 C -0.19385(14) -0.2801(3) 0.29720(19)
H4 H -0.2232 -0.3418 0.2748
C14 C -0.07263(16) -0.2340(4) 0.8735(2)
H5 H -0.0410 -0.2083 0.9215
C15 C -0.16004(14) -0.2679(3) 0.3772(2)
H6 H -0.1667 -0.3215 0.4078
C16 C -0.11614(13) -0.1756(3) 0.41169(18)
C17 C -0.10442(15) -0.1037(4) 0.36477(19)
H7 H -0.0736 -0.0456 0.3872
C18 C -0.13801(15) -0.1175(4) 0.28516(19)
H8 H -0.1292 -0.0695 0.2547
C19 C -0.16981(15) -0.3144(4) 0.7268(2)
H9 H -0.2014 -0.3420 0.6793
C20 C -0.16314(17) -0.3490(4) 0.7947(3)
H10 H -0.1911 -0.4015 0.7932
C21 C -0.11558(18) -0.3088(4) 0.8674(2)
H11 H -0.1135 -0.3339 0.9121
O7 O -0.00159(12) 0.1744(3) 0.6712(2)
C22 C -0.0241(2) 0.2752(5) 0.6367(5)
H12 H -0.0620 0.2715 0.5940
N4 N 0.0021(2) 0.3895(5) 0.6561(5)
C23 C 0.0616(3) 0.3979(6) 0.7191(5)
H13 H 0.0748 0.3138 0.7427
H14 H 0.0653 0.4589 0.7569
H15 H 0.0845 0.4267 0.6999
C24 C -0.0274(4) 0.5077(7) 0.6157(9)
H16 H -0.0668 0.4880 0.5761
H17 H -0.0086 0.5450 0.5924
H18 H -0.0264 0.5687 0.6517
Cd1C Cd -0.324892(9) -0.70255(2) -0.048254(13)
Cd1C_2 Cd -0.324892(9) 0.29745(2) -0.048254(13)
Cd1E Cd -0.175108(9) 0.20255(2) 0.048254(13)
Cd2A Cd 0.042931(9) -0.02170(2) 0.864612(13)
Cd2C Cd -0.457069(9) -0.52170(2) -0.135388(13)
O2C O -0.23838(8) -0.3490(2) 0.45564(12)
O2E O -0.26162(8) -0.1510(2) 0.54436(12)
O3C O -0.20076(10) -0.0346(2) 0.47022(13)
O4C O -0.16450(10) -0.4358(2) 0.56214(13)
N2A N 0.04496(10) -0.1220(3) 0.71117(14)
O6C O -0.13171(10) 0.0812(2) 0.57015(13)
loop_
_geom_bond_atom_site_label_1
_geom_bond_atom_site_label_2
_geom_bond_site_symmetry_1
_geom_bond_site_symmetry_2
Cd1 O1 1_555 1_555
Cd2 O1 1_555 1_555
O1 C5 1_555 1_555
O2 C8 1_555 1_555
O3 C11 1_555 1_555
N1 Cd2 1_555 1_555
O4 C8 1_555 1_555
N2 N1 1_555 1_555
O5 Cd2 1_555 1_555
N3 Cd1 1_555 1_555
O6 C11 1_555 1_555
C1 N3 1_555 1_555
C2 H1 1_555 1_555
C3 C7 1_555 1_555
C4 C2 1_555 1_555
C5 O5 1_555 1_555
C6 C4 1_555 1_555
H2 C6 1_555 1_555
C7 C2 1_555 1_555
C8 C4 1_555 1_555
C9 C6 1_555 1_555
C10 C7 1_555 1_555
H3 C10 1_555 1_555
C11 C9 1_555 1_555
C12 N2 1_555 1_555
C13 C3 1_555 1_555
H4 C13 1_555 1_555
C14 C12 1_555 1_555
H5 C14 1_555 1_555
C15 C13 1_555 1_555
H6 C15 1_555 1_555
C16 C5 1_555 1_555
C17 C16 1_555 1_555
H7 C17 1_555 1_555
C18 C3 1_555 1_555
H8 C18 1_555 1_555
C19 C1 1_555 1_555
H9 C19 1_555 1_555
C20 C19 1_555 1_555
H10 C20 1_555 1_555
C21 C14 1_555 1_555
H11 C21 1_555 1_555
O7 Cd2 1_555 1_555
C22 O7 1_555 1_555
H12 C22 1_555 1_555
N4 C22 1_555 1_555
C23 N4 1_555 1_555
H13 C23 1_555 1_555
H14 C23 1_555 1_555
H15 C23 1_555 1_555
C24 N4 1_555 1_555
H16 C24 1_555 1_555
H17 C24 1_555 1_555
H18 C24 1_555 1_555
Cd1C O3 1_555 1_555
Cd1C_2 O2 1_555 1_555
Cd1E O2 1_555 1_555
Cd2A N2 1_555 1_555
Cd2C O6 1_555 1_555
O2C Cd1 1_555 1_555
O2E Cd1 1_555 1_555
O3C Cd1 1_555 1_555
O4C Cd1 1_555 1_555
N2A Cd2 1_555 1_555
O6C Cd2 1_555 1_555
N1 N3 1_555 1_555
O4 Cd1C_2 1_555 1_555
C1 C12 1_555 1_555
C9 C10 1_555 1_555
C15 C16 1_555 1_555
C17 C18 1_555 1_555
C20 C21 1_555 1_555

#END
