
#######################################################################
#
#                 Cambridge Crystallographic Data Centre
#                                CCDC 
#
#######################################################################
#
# If this CIF has been generated from an entry in the Cambridge 
# Structural Database, then it will include bibliographic, chemical, 
# crystal, experimental, refinement or atomic coordinate data resulting 
# from the CCDC's data processing and validation procedures.
#
#######################################################################

data_JUSHUC
_symmetry_cell_setting           monoclinic
_symmetry_space_group_name_H-M   'C 2/c'
_symmetry_Int_Tables_number      15
_space_group_name_Hall           '-C 2yn'
loop_
_symmetry_equiv_pos_site_id
_symmetry_equiv_pos_as_xyz
1 x,y,z
2 -x,y,1/2-z
3 1/2+x,1/2+y,z
4 1/2-x,1/2+y,1/2-z
5 -x,-y,-z
6 x,-y,1/2+z
7 1/2-x,1/2-y,-z
8 1/2+x,1/2-y,1/2+z
_cell_length_a                   15.1310(7)
_cell_length_b                   14.4826(7)
_cell_length_c                   11.0228(5)
_cell_angle_alpha                90
_cell_angle_beta                 132.0280(10)
_cell_angle_gamma                90
_cell_volume                     1794.27
loop_
_atom_site_label
_atom_site_type_symbol
_atom_site_fract_x
_atom_site_fract_y
_atom_site_fract_z
Zn1 Zn 0.21581(5) 0.41286(4) 0.28892(7)
Zn2 Zn 0.0000 0.29453(5) 0.2500
C1 C 0.2005(5) 0.5305(4) 0.5113(7)
C2 C 0.1116(5) 0.4320(4) 0.5390(6)
H1 H 0.0784 0.4022 0.5751
C3 C -0.0498(5) 0.1420(4) 0.0334(7)
C4 C 0.0832(5) 0.1367(4) 0.1346(8)
H2 H 0.0971 0.0958 0.0790
H3 H 0.1191 0.1082 0.2383
C5 C 0.1479(5) 0.2267(4) 0.1695(6)
O1 O -0.0945(4) 0.1954(3) 0.0690(5)
O2 O -0.1124(4) 0.0870(3) -0.0864(5)
O3 O 0.1195(3) 0.2970(2) 0.2100(5)
O4 O 0.2255(4) 0.2301(3) 0.1633(6)
N1 N 0.1091(4) 0.3991(3) 0.4275(6)
N2 N 0.1667(4) 0.4624(3) 0.4065(5)
N3 N 0.1678(4) 0.5142(3) 0.5972(5)
N4 N 0.2652(7) 0.6052(4) 0.5357(9)
H4 H 0.2872 0.6107 0.4815
H5 H 0.2842 0.6468 0.6052
Zn1A Zn -0.21581(5) 0.41286(4) 0.21108(7)
C1A C -0.2005(5) 0.5305(4) -0.0113(7)
C2A C -0.1116(5) 0.4320(4) -0.0390(6)
H1A H -0.0784 0.4022 -0.0751
C3A C 0.0498(5) 0.1420(4) 0.4666(7)
C4A C -0.0832(5) 0.1367(4) 0.3654(8)
H2A H -0.0971 0.0958 0.4210
H3A H -0.1191 0.1082 0.2617
C5A C -0.1479(5) 0.2267(4) 0.3305(6)
O1A O 0.0945(4) 0.1954(3) 0.4310(5)
O2A O 0.1124(4) 0.0870(3) 0.5864(5)
O3A O -0.1195(3) 0.2970(2) 0.2900(5)
O4A O -0.2255(4) 0.2301(3) 0.3367(6)
N1A N -0.1091(4) 0.3991(3) 0.0725(6)
N2A N -0.1667(4) 0.4624(3) 0.0935(5)
N3A N -0.1678(4) 0.5142(3) -0.0972(5)
N4A N -0.2652(7) 0.6052(4) -0.0357(9)
H4A H -0.2872 0.6107 0.0185
H5A H -0.2842 0.6468 -0.1052
Zn1D Zn -0.21581(5) 0.58714(4) -0.28892(7)
Zn1E Zn 0.21581(5) 0.58714(4) 0.78892(7)
Zn1F Zn 0.28419(5) 0.08714(4) 0.71108(7)
Zn1G Zn -0.28419(5) 0.08714(4) -0.21108(7)
O2F O -0.3876(4) 0.4130(3) 0.0864(5)
O2G O 0.3876(4) 0.4130(3) 0.4136(5)
N3D N -0.1678(4) 0.4858(3) 0.4028(5)
N3E N 0.1678(4) 0.4858(3) 0.0972(5)
loop_
_geom_bond_atom_site_label_1
_geom_bond_atom_site_label_2
_geom_bond_site_symmetry_1
_geom_bond_site_symmetry_2
Zn1 O3 1_555 1_555
Zn2 O1 1_555 1_555
C1 N2 1_555 1_555
C2 H1 1_555 1_555
C3 C4 1_555 1_555
C4 H2 1_555 1_555
H3 C4 1_555 1_555
C5 C4 1_555 1_555
O1 C3 1_555 1_555
O2 C3 1_555 1_555
O3 Zn2 1_555 1_555
O4 C5 1_555 1_555
N1 Zn2 1_555 1_555
N2 Zn1 1_555 1_555
N3 C1 1_555 1_555
N4 C1 1_555 1_555
H4 N4 1_555 1_555
H5 N4 1_555 1_555
Zn1A O3A 1_555 1_555
C1A N2A 1_555 1_555
C2A H1A 1_555 1_555
C3A C4A 1_555 1_555
C4A H2A 1_555 1_555
H3A C4A 1_555 1_555
C5A C4A 1_555 1_555
O1A Zn2 1_555 1_555
O2A C3A 1_555 1_555
O3A Zn2 1_555 1_555
O4A C5A 1_555 1_555
N1A Zn2 1_555 1_555
N2A Zn1A 1_555 1_555
N3A C1A 1_555 1_555
N4A C1A 1_555 1_555
H4A N4A 1_555 1_555
H5A N4A 1_555 1_555
Zn1D N3A 1_555 1_555
Zn1E N3 1_555 1_555
Zn1F O2A 1_555 1_555
Zn1G O2 1_555 1_555
O2F Zn1A 1_555 1_555
O2G Zn1 1_555 1_555
N3D Zn1A 1_555 1_555
N3E Zn1 1_555 1_555
C2 N1 1_555 1_555
C2 N3 1_555 1_555
C5 O3 1_555 1_555
N1 N2 1_555 1_555
C2A N1A 1_555 1_555
C2A N3A 1_555 1_555
C3A O1A 1_555 1_555
C5A O3A 1_555 1_555
N1A N2A 1_555 1_555

#END
