
#######################################################################
#
#                 Cambridge Crystallographic Data Centre
#                                CCDC 
#
#######################################################################
#
# If this CIF has been generated from an entry in the Cambridge 
# Structural Database, then it will include bibliographic, chemical, 
# crystal, experimental, refinement or atomic coordinate data resulting 
# from the CCDC's data processing and validation procedures.
#
#######################################################################

data_JUSJAK
_symmetry_cell_setting           orthorhombic
_symmetry_space_group_name_H-M   'P 21 21 21'
_symmetry_Int_Tables_number      19
_space_group_name_Hall           'P 2ac 2ab'
loop_
_symmetry_equiv_pos_site_id
_symmetry_equiv_pos_as_xyz
1 x,y,z
2 1/2-x,-y,1/2+z
3 1/2+x,1/2-y,-z
4 -x,1/2+y,1/2-z
_cell_length_a                   14.116(5)
_cell_length_b                   23.032(5)
_cell_length_c                   23.855(5)
_cell_angle_alpha                90
_cell_angle_beta                 90
_cell_angle_gamma                90
_cell_volume                     7755.73
loop_
_atom_site_label
_atom_site_type_symbol
_atom_site_fract_x
_atom_site_fract_y
_atom_site_fract_z
Ag1 Ag 0.3179(2) 0.21758(10) 0.67057(14)
P1 P -0.0517(3) 0.08068(19) 1.02495(19)
W1 W -0.27429(6) 0.09738(3) 0.96171(3)
O1 O -0.0075(8) 0.2502(5) 1.0251(5)
Ag2 Ag 0.16570(16) 0.22130(8) 0.80319(9)
W2 W -0.11193(6) -0.18040(3) 0.86392(3)
O2 O -0.3197(9) -0.0965(5) 0.9688(5)
P2 P -0.0414(3) -0.08295(19) 0.9688(2)
O3 O 0.3664(16) 0.2736(9) 0.5957(9)
Ag3 Ag 0.24204(16) -0.03642(7) 0.74550(8)
W3 W -0.26436(5) 0.04127(3) 1.09081(3)
O4 O 0.1675(9) -0.0282(5) 1.0771(6)
N1 N -0.0573(16) -0.4093(8) 0.8752(10)
H1 H -0.0780 -0.4210 0.9071
Ag4 Ag 0.22175(15) 0.29693(7) 1.17144(8)
W4 W 0.15392(5) 0.11340(3) 0.94951(3)
O5 O 0.0783(8) 0.1398(5) 0.8893(5)
N2 N 0.2173(17) -0.2157(7) 0.7044(9)
C1 C 0.258(2) -0.1633(11) 0.7031(12)
H2 H 0.3101 -0.1546 0.6811
W5 W 0.10484(5) -0.19708(3) 0.92254(3)
O6 O 0.1553(9) 0.0391(6) 0.9117(6)
C2 C 0.1466(16) -0.1565(9) 0.7634(10)
H3 H 0.1053 -0.1421 0.7904
Ag5 Ag 0.06531(14) -0.28231(7) 0.77359(8)
W6 W -0.05454(5) 0.12436(3) 0.88359(3)
O7 O -0.0087(9) 0.2129(5) 1.1301(5)
N3 N 0.2508(13) 0.3698(6) 1.2767(7)
C3 C -0.0104(16) -0.4069(9) 0.7957(10)
H4 H 0.0089 -0.4177 0.7599
Ag6 Ag 0.27957(14) -0.28717(7) 0.81903(8)
W7 W -0.12803(5) 0.22399(3) 0.99888(3)
O8 O -0.1399(8) -0.2366(5) 0.9201(5)
N4 N -0.0440(13) -0.4438(7) 0.8303(8)
C4 C -0.0344(19) -0.3555(11) 0.8637(12)
H5 H -0.0389 -0.3240 0.8879
C5 C 0.2135(15) 0.0917(8) 0.7837(9)
H6 H 0.1766 0.0807 0.8142
W8 W -0.25588(5) -0.11200(3) 1.03772(3)
O9 O -0.1461(9) -0.0673(5) 0.9761(5)
C6 C 0.2970(14) 0.0895(8) 0.7111(8)
H7 H 0.3336 0.0764 0.6813
W9 W 0.16572(5) -0.04107(3) 0.89820(3)
O10 O 0.0292(9) -0.2489(5) 0.9678(5)
W10 W 0.16725(5) 0.05147(3) 1.09103(3)
O11 O -0.0018(9) 0.0825(5) 0.9683(5)
N5 N 0.2141(14) -0.1236(8) 0.7375(8)
W11 W -0.09268(6) -0.22989(3) 0.99745(3)
O12 O -0.1706(8) 0.2270(5) 1.0771(5)
C7 C 0.2227(17) 0.4316(8) 1.2114(10)
H8 H 0.2076 0.4486 1.1772
N6 N 0.2510(13) 0.4595(8) 1.2550(8)
H9 H 0.2579 0.4965 1.2578
W12 W 0.17484(6) -0.10285(3) 1.03966(3)
O13 O -0.0357(8) -0.1466(5) 0.9463(5)
C8 C 0.2676(15) 0.4207(9) 1.2950(10)
H10 H 0.2884 0.4295 1.3310
N7 N 0.2795(15) 0.1448(7) 0.7200(9)
W13 W -0.26414(5) -0.05630(3) 0.90805(3)
O14 O -0.1767(8) 0.0999(5) 0.9056(5)
N8 N 0.2287(15) 0.1481(8) 0.7694(8)
W14 W -0.04181(6) -0.02985(3) 0.83167(3)
O15 O -0.1748(9) 0.2037(5) 1.1924(5)
N9 N 0.2569(14) 0.0531(7) 0.7494(9)
W15 W 0.07775(5) 0.20260(3) 1.06909(3)
O16 O -0.3315(9) 0.0773(5) 1.0312(5)
N10 N 0.2181(14) 0.3754(7) 1.2220(7)
W16 W -0.03386(6) 0.02831(3) 1.16199(3)
O17 O -0.0571(8) -0.1122(5) 0.8322(5)
W17 W -0.13185(6) 0.17377(3) 1.13192(3)
O18 O -0.0575(8) 0.1451(5) 1.0471(5)
W18 W -0.02771(6) -0.12556(3) 1.11028(3)
O19 O -0.0747(8) 0.1895(5) 0.9337(5)
N11 N -0.0044(13) -0.3542(8) 0.8128(8)
O20 O -0.2827(9) 0.0152(5) 0.9409(5)
N12 N 0.1464(14) -0.2130(7) 0.7454(8)
O21 O -0.2754(9) -0.0299(5) 1.0570(5)
O22 O 0.1072(9) -0.1347(5) 1.1004(5)
O23 O -0.3667(9) 0.1218(5) 0.9214(6)
O24 O 0.0128(8) -0.0808(5) 1.0249(5)
O25 O -0.3529(10) 0.0335(6) 1.1403(6)
O26 O -0.1600(8) 0.0168(5) 1.1323(5)
O27 O 0.1004(9) 0.0401(5) 1.1590(6)
O28 O -0.0499(10) 0.0160(5) 1.2322(6)
O29 O 0.1491(9) -0.1656(5) 0.9933(6)
O30 O -0.3559(10) -0.0568(6) 0.8612(6)
O31 O 0.1940(9) -0.2410(5) 0.9018(6)
O32 O -0.3450(9) -0.1391(5) 1.0796(6)
O33 O 0.1923(9) -0.0569(5) 0.9747(5)
O34 O 0.1856(9) 0.0702(5) 1.0148(5)
O35 O -0.2033(8) -0.1818(5) 1.0088(6)
O36 O 0.2867(9) -0.1173(6) 1.0580(6)
O37 O -0.0610(9) 0.1089(6) 1.1614(5)
O38 O 0.2778(10) 0.0606(6) 1.1167(6)
O39 O -0.2122(9) -0.1325(5) 0.8853(6)
O40 O -0.0402(8) -0.1921(5) 1.0594(5)
O41 O -0.1727(10) 0.2852(5) 0.9742(6)
O42 O -0.0400(9) -0.1623(5) 1.1717(5)
O43 O -0.1250(9) -0.2946(5) 1.0245(5)
O44 O -0.1532(9) -0.2153(5) 0.8058(6)
O45 O 0.0062(8) -0.0433(5) 0.9251(5)
O46 O 0.1280(9) 0.1340(5) 1.0970(5)
O47 O 0.2764(10) -0.0424(5) 0.8691(6)
O48 O 0.1416(8) -0.1253(5) 0.8937(5)
O49 O -0.2250(9) 0.1194(5) 1.1138(5)
O50 O -0.0624(9) -0.0191(6) 0.7628(6)
O51 O -0.1540(9) -0.1094(5) 1.0915(5)
O52 O 0.0169(8) -0.2112(5) 0.8647(5)
O53 O -0.0281(9) 0.0517(5) 0.8522(6)
O54 O -0.1657(9) -0.0267(5) 0.8619(5)
O55 O -0.0816(9) 0.1610(5) 0.8232(6)
O56 O 0.2615(9) 0.1351(5) 0.9277(6)
O57 O -0.0112(9) -0.0512(5) 1.1394(6)
O58 O 0.1590(9) 0.2534(5) 1.0887(6)
O59 O -0.1543(9) 0.0592(5) 1.0203(5)
O60 O 0.0925(9) -0.0349(5) 0.8302(5)
O61 O -0.2292(8) 0.1686(5) 0.9895(5)
O62 O 0.0073(8) 0.0455(5) 1.0673(5)
O63 O 0.1214(8) 0.1746(4) 0.9969(5)
N13 N 0.4385(14) 0.0938(8) 0.8862(9)
C9 C 0.485(2) -0.1550(10) 0.7844(12)
H11 H 0.5326 -0.1401 0.7619
Ag7 Ag 0.45739(14) -0.03502(7) 0.83817(10)
N14 N 0.3746(13) -0.2115(8) 0.8174(8)
Ag8 Ag 0.51203(17) 0.22278(7) 0.77082(9)
N15 N 0.4516(15) -0.2102(9) 0.7816(9)
C10 C 0.4881(16) 0.0939(9) 0.8027(10)
H12 H 0.5085 0.0825 0.7673
C11 C 0.4468(15) 0.1464(9) 0.8731(9)
H13 H 0.4338 0.1775 0.8966
N16 N 0.4394(14) -0.1256(8) 0.8228(9)
C12 C 0.3702(17) -0.1593(8) 0.8418(10)
H14 H 0.3252 -0.1481 0.8682
N17 N 0.4774(13) 0.1507(7) 0.8199(8)
N18 N 0.4655(12) 0.0581(7) 0.8436(8)
H15 H 0.4176 0.0809 0.9171
N19 N 0.0878(15) 0.2889(8) 0.8400(11)
C13 C 0.061(2) 0.2941(11) 0.8928(14)
H16 H 0.0743 0.2684 0.9217
C14 C 0.0589(18) 0.3390(12) 0.8180(12)
H17 H 0.0790 0.3507 0.7826
Ag9 Ag -0.04507(16) 0.46065(8) 0.83398(9)
N20 N 0.0024(14) 0.3705(8) 0.8470(9)
N21 N 0.0105(18) 0.3423(8) 0.8972(11)
H18 H -0.0141 0.3546 0.9280
Ag4A Ag 0.27825(15) -0.29693(7) 0.67144(8)
N2A N 0.2827(17) 0.2157(7) 1.2044(9)
Ag5C Ag -0.06531(14) 0.21769(7) 0.72641(8)
N3A N 0.2492(13) -0.3698(6) 0.7767(7)
Ag6A Ag 0.22043(14) 0.28717(7) 1.31903(8)
N4_2 N -0.0440(13) 0.5562(7) 0.8303(8)
O55C O 0.0816(9) -0.3390(5) 0.6768(6)
Ag8C Ag 0.48797(17) -0.27722(7) 0.72918(9)
N15C N 0.5484(15) 0.2898(9) 0.7184(9)
Ag9_2 Ag -0.04507(16) -0.53935(8) 0.83398(9)
O64 O 0.2440(13) 0.5834(7) 1.2492(8)
O65 O 0.0755(17) -0.1028(13) 0.5109(10)
O66 O -0.025(2) -0.4044(11) 1.0303(12)
loop_
_geom_bond_atom_site_label_1
_geom_bond_atom_site_label_2
_geom_bond_site_symmetry_1
_geom_bond_site_symmetry_2
Ag1 O3 1_555 1_555
P1 O11 1_555 1_555
W1 O14 1_555 1_555
O1 W7 1_555 1_555
Ag2 N8 1_555 1_555
W2 O8 1_555 1_555
O2 W8 1_555 1_555
P2 O9 1_555 1_555
Ag3 N5 1_555 1_555
W3 O16 1_555 1_555
O4 W10 1_555 1_555
N1 H1 1_555 1_555
Ag4 N10 1_555 1_555
W4 O5 1_555 1_555
O5 W6 1_555 1_555
N2 C1 1_555 1_555
C1 H2 1_555 1_555
W5 O10 1_555 1_555
O6 W4 1_555 1_555
C2 H3 1_555 1_555
Ag5 Ag6 1_555 1_555
W6 O11 1_555 1_555
O7 W15 1_555 1_555
N3 C8 1_555 1_555
C3 H4 1_555 1_555
Ag6 O31 1_555 1_555
W7 O12 1_555 1_555
O8 W11 1_555 1_555
N4 N1 1_555 1_555
C4 N1 1_555 1_555
H5 C4 1_555 1_555
C5 H6 1_555 1_555
W8 O9 1_555 1_555
O9 W13 1_555 1_555
C6 H7 1_555 1_555
W9 O6 1_555 1_555
O10 W11 1_555 1_555
W10 O27 1_555 1_555
O11 W4 1_555 1_555
N5 C1 1_555 1_555
W11 O13 1_555 1_555
O12 W17 1_555 1_555
C7 H8 1_555 1_555
N6 C7 1_555 1_555
H9 N6 1_555 1_555
W12 O4 1_555 1_555
O13 W2 1_555 1_555
C8 N6 1_555 1_555
H10 C8 1_555 1_555
N7 Ag1 1_555 1_555
W13 O2 1_555 1_555
O14 W6 1_555 1_555
N8 C5 1_555 1_555
W14 O17 1_555 1_555
O15 W17 1_555 1_555
N9 Ag3 1_555 1_555
W15 O1 1_555 1_555
O16 W1 1_555 1_555
N10 N3 1_555 1_555
W16 O26 1_555 1_555
O17 W2 1_555 1_555
W17 O7 1_555 1_555
O18 P1 1_555 1_555
W18 O22 1_555 1_555
O19 W6 1_555 1_555
N11 Ag5 1_555 1_555
O20 W1 1_555 1_555
N12 N2 1_555 1_555
O21 W3 1_555 1_555
O22 W12 1_555 1_555
O23 W1 1_555 1_555
O24 P2 1_555 1_555
O25 W3 1_555 1_555
O26 W3 1_555 1_555
O27 W16 1_555 1_555
O28 W16 1_555 1_555
O29 W5 1_555 1_555
O30 W13 1_555 1_555
O31 W5 1_555 1_555
O32 W8 1_555 1_555
O33 W9 1_555 1_555
O34 W4 1_555 1_555
O35 W8 1_555 1_555
O36 W12 1_555 1_555
O37 W16 1_555 1_555
O38 W10 1_555 1_555
O39 W2 1_555 1_555
O40 W11 1_555 1_555
O41 W7 1_555 1_555
O42 W18 1_555 1_555
O43 W11 1_555 1_555
O44 W2 1_555 1_555
O45 P2 1_555 1_555
O46 W10 1_555 1_555
O47 W9 1_555 1_555
O48 W5 1_555 1_555
O49 W3 1_555 1_555
O50 W14 1_555 1_555
O51 W8 1_555 1_555
O52 W2 1_555 1_555
O53 W6 1_555 1_555
O54 W13 1_555 1_555
O55 W6 1_555 1_555
O56 W4 1_555 1_555
O57 W16 1_555 1_555
O58 Ag4 1_555 1_555
O59 P1 1_555 1_555
O60 W9 1_555 1_555
O61 W1 1_555 1_555
O62 P1 1_555 1_555
O63 W4 1_555 1_555
N13 C11 1_555 1_555
C9 H11 1_555 1_555
Ag7 O47 1_555 1_555
N14 Ag6 1_555 1_555
Ag8 N17 1_555 1_555
N15 C9 1_555 1_555
C10 H12 1_555 1_555
C11 H13 1_555 1_555
N16 C9 1_555 1_555
C12 N14 1_555 1_555
H14 C12 1_555 1_555
N17 C10 1_555 1_555
N18 N13 1_555 1_555
H15 N13 1_555 1_555
N19 Ag2 1_555 1_555
C13 N19 1_555 1_555
H16 C13 1_555 1_555
C14 N19 1_555 1_555
H17 C14 1_555 1_555
Ag9 N20 1_555 1_555
N20 C14 1_555 1_555
N21 C13 1_555 1_555
H18 N21 1_555 1_555
Ag4A N2 1_555 1_555
N2A Ag4 1_555 1_555
Ag5C O55 1_555 1_555
N3A Ag6 1_555 1_555
Ag6A N3 1_555 1_555
N4_2 Ag9 1_555 1_555
O55C Ag5 1_555 1_555
Ag8C N15 1_555 1_555
N15C Ag8 1_555 1_555
Ag9_2 N4 1_555 1_555
W1 O59 1_555 1_555
P2 O13 1_555 1_555
W3 O59 1_555 1_555
W5 O13 1_555 1_555
W5 O52 1_555 1_555
C2 N5 1_555 1_555
C2 N12 1_555 1_555
Ag5 N12 1_555 1_555
C3 N4 1_555 1_555
C3 N11 1_555 1_555
W7 O18 1_555 1_555
W7 O19 1_555 1_555
W7 O61 1_555 1_555
C4 N11 1_555 1_555
C5 N9 1_555 1_555
W8 O21 1_555 1_555
C6 N7 1_555 1_555
C6 N9 1_555 1_555
W9 O45 1_555 1_555
W9 O48 1_555 1_555
W10 O34 1_555 1_555
W10 O62 1_555 1_555
W11 O35 1_555 1_555
C7 N10 1_555 1_555
W12 O24 1_555 1_555
W12 O29 1_555 1_555
W12 O33 1_555 1_555
N7 N8 1_555 1_555
W13 O20 1_555 1_555
W13 O39 1_555 1_555
W14 O45 1_555 1_555
W14 O53 1_555 1_555
W14 O54 1_555 1_555
W14 O60 1_555 1_555
W15 O18 1_555 1_555
W15 O46 1_555 1_555
W15 O58 1_555 1_555
W15 O63 1_555 1_555
W16 O62 1_555 1_555
W17 O18 1_555 1_555
W17 O37 1_555 1_555
W17 O49 1_555 1_555
W18 O24 1_555 1_555
W18 O40 1_555 1_555
W18 O51 1_555 1_555
W18 O57 1_555 1_555
Ag7 N16 1_555 1_555
Ag7 N18 1_555 1_555
N14 N15 1_555 1_555
C10 N18 1_555 1_555
C11 N17 1_555 1_555
N16 C12 1_555 1_555
N20 N21 1_555 1_555

#END
