
#######################################################################
#
#                 Cambridge Crystallographic Data Centre
#                                CCDC 
#
#######################################################################
#
# If this CIF has been generated from an entry in the Cambridge 
# Structural Database, then it will include bibliographic, chemical, 
# crystal, experimental, refinement or atomic coordinate data resulting 
# from the CCDC's data processing and validation procedures.
#
#######################################################################

data_JUSKUF
_symmetry_cell_setting           triclinic
_symmetry_space_group_name_H-M   'P -1'
_symmetry_Int_Tables_number      2
_space_group_name_Hall           '-P 1'
loop_
_symmetry_equiv_pos_site_id
_symmetry_equiv_pos_as_xyz
1 x,y,z
2 -x,-y,-z
_cell_length_a                   9.731(5)
_cell_length_b                   11.751(5)
_cell_length_c                   12.917(5)
_cell_angle_alpha                67.698(5)
_cell_angle_beta                 82.787(5)
_cell_angle_gamma                78.975(5)
_cell_volume                     1339.05
loop_
_atom_site_label
_atom_site_type_symbol
_atom_site_fract_x
_atom_site_fract_y
_atom_site_fract_z
Mn1 Mn 0.16376(3) 0.29097(2) 0.33175(2)
O1 O 0.23545(18) 1.11490(14) -0.54694(13)
N1 N 0.0396(2) 0.17171(17) 0.09279(16)
O2 O 0.16723(16) 0.47660(14) 0.23634(13)
O3 O 0.36572(17) 0.34977(14) 0.24074(14)
N2 N -0.25243(19) 0.35287(17) 0.45842(16)
C1 C 0.2978(2) 0.45734(19) 0.21015(17)
O4 O 0.24560(18) 1.28796(14) -0.52312(13)
C2 C 0.3665(2) 0.56843(19) 0.14147(17)
O5 O 0.64219(19) 0.92188(18) -0.05165(15)
N3 N 0.1061(2) 0.25271(17) 0.20219(15)
C3 C -0.5047(2) 0.5564(2) 0.5775(2)
H1 H -0.5083 0.5946 0.6292
C4 C 0.2698(2) 1.1710(2) -0.49038(17)
N4 N -0.03789(19) 0.29823(17) 0.40023(16)
C5 C 0.0202(2) 0.0830(2) 0.04662(19)
C6 C 0.4841(2) 0.7763(2) 0.00228(18)
C7 C 0.5425(2) 0.8903(2) -0.07547(19)
C8 C 0.4625(3) 1.0920(2) -0.22885(19)
H2 H 0.5017 1.1330 -0.1937
C9 C 0.0968(2) 0.1474(2) 0.19129(18)
C10 C -0.3789(2) 0.4282(2) 0.48003(18)
C11 C 0.3410(2) 1.0982(2) -0.38274(17)
C12 C -0.1299(2) 0.3924(2) 0.4096(2)
C13 C 0.1442(3) 0.0205(2) 0.2720(2)
H3 H 0.0644 -0.0150 0.3145
H4 H 0.2064 0.0252 0.3219
H5 H 0.1926 -0.0308 0.2319
C14 C 0.4703(2) 0.9634(2) -0.18204(18)
C15 C 0.0743(2) 0.0968(2) -0.0610(2)
H6 H 0.1239 0.1618 -0.1017
C16 C 0.5657(3) 0.6600(2) 0.0362(2)
H7 H 0.6603 0.6515 0.0131
C17 C 0.4142(3) 0.9023(2) -0.2360(2)
H8 H 0.4185 0.8163 -0.2045
C18 C 0.5068(3) 0.5558(2) 0.1045(2)
H9 H 0.5615 0.4774 0.1256
C19 C 0.3964(3) 1.1592(2) -0.32787(19)
H10 H 0.3889 1.2456 -0.3578
C20 C -0.1048(3) 0.1957(2) 0.4437(2)
H11 H -0.0647 0.1158 0.4477
C21 C 0.0138(3) 0.2987(2) 0.0388(2)
H12 H -0.0239 0.3422 -0.0307
C22 C -0.3822(2) 0.4836(2) 0.5577(2)
H13 H -0.3031 0.4720 0.5963
C23 C 0.2873(2) 0.6861(2) 0.1129(2)
H14 H 0.1950 0.6957 0.1414
C24 C 0.3517(3) 0.9695(2) -0.3371(2)
H15 H 0.3169 0.9281 -0.3743
C25 C -0.2366(3) 0.2277(2) 0.4796(2)
H16 H -0.3036 0.1756 0.5122
C26 C 0.3448(2) 0.7897(2) 0.0421(2)
H17 H 0.2903 0.8682 0.0212
C27 C 0.0542(2) 0.0131(2) -0.1078(2)
H18 H 0.0905 0.0216 -0.1799
C28 C 0.0543(3) 0.3474(2) 0.1071(2)
H19 H 0.0481 0.4320 0.0924
C29 C -0.1095(4) 0.5250(3) 0.3690(4)
H20 H -0.1664 0.5730 0.3067
H21 H -0.0126 0.5309 0.3458
H22 H -0.1362 0.5565 0.4284
N1A N -0.0396(2) -0.17171(17) -0.09279(16)
N3A N -0.1061(2) -0.25271(17) -0.20219(15)
C5A C -0.0202(2) -0.0830(2) -0.04662(19)
C9A C -0.0968(2) -0.1474(2) -0.19129(18)
C13A C -0.1442(3) -0.0205(2) -0.2720(2)
H3A H -0.0644 0.0150 -0.3145
H4A H -0.2064 -0.0252 -0.3219
H5A H -0.1926 0.0308 -0.2319
C15A C -0.0743(2) -0.0968(2) 0.0610(2)
H6A H -0.1239 -0.1618 0.1017
C21A C -0.0138(3) -0.2987(2) -0.0388(2)
H12A H 0.0239 -0.3422 0.0307
C27A C -0.0542(2) -0.0131(2) 0.1078(2)
H18A H -0.0905 -0.0216 0.1799
C28A C -0.0543(3) -0.3474(2) -0.1071(2)
H19A H -0.0481 -0.4320 -0.0924
N2A N -0.74757(19) 0.64713(17) 0.54158(16)
C3A C -0.4953(2) 0.4436(2) 0.4225(2)
H1A H -0.4917 0.4054 0.3708
N4A N -0.96211(19) 0.70177(17) 0.59977(16)
C10A C -0.6211(2) 0.5718(2) 0.51997(18)
C12A C -0.8701(2) 0.6076(2) 0.5904(2)
C20A C -0.8952(3) 0.8043(2) 0.5563(2)
H11A H -0.9353 0.8842 0.5523
C22A C -0.6178(2) 0.5164(2) 0.4423(2)
H13A H -0.6969 0.5280 0.4037
C25A C -0.7634(3) 0.7723(2) 0.5204(2)
H16A H -0.6964 0.8244 0.4878
C29A C -0.8905(4) 0.4750(3) 0.6310(4)
H20A H -0.8336 0.4270 0.6933
H21A H -0.9874 0.4691 0.6542
H22A H -0.8638 0.4435 0.5716
Mn1A Mn -1.16376(3) 0.70903(2) 0.66825(2)
O1A O -1.23545(18) -0.11490(14) 1.54694(13)
O2A O -1.16723(16) 0.52340(14) 0.76366(13)
O3A O -1.36572(17) 0.65023(14) 0.75926(14)
C1A C -1.2978(2) 0.54266(19) 0.78985(17)
O4A O -1.24560(18) -0.28796(14) 1.52312(13)
C2A C -1.3665(2) 0.43157(19) 0.85853(17)
O5A O -1.64219(19) 0.07812(18) 1.05165(15)
C4A C -1.2698(2) -0.1710(2) 1.49038(17)
C6A C -1.4841(2) 0.2237(2) 0.99772(18)
C7A C -1.5425(2) 0.1097(2) 1.07547(19)
C8A C -1.4625(3) -0.0920(2) 1.22885(19)
H2A H -1.5017 -0.1330 1.1937
C11A C -1.3410(2) -0.0982(2) 1.38274(17)
C14A C -1.4703(2) 0.0366(2) 1.18204(18)
C16A C -1.5657(3) 0.3400(2) 0.9638(2)
H7A H -1.6603 0.3485 0.9869
C17A C -1.4142(3) 0.0977(2) 1.2360(2)
H8A H -1.4185 0.1837 1.2045
C18A C -1.5068(3) 0.4442(2) 0.8955(2)
H9A H -1.5615 0.5226 0.8744
C19A C -1.3964(3) -0.1592(2) 1.32787(19)
H10A H -1.3889 -0.2456 1.3578
C23A C -1.2873(2) 0.3139(2) 0.8871(2)
H14A H -1.1950 0.3043 0.8586
C24A C -1.3517(3) 0.0305(2) 1.3371(2)
H15A H -1.3169 0.0719 1.3743
C26A C -1.3448(2) 0.2103(2) 0.9579(2)
H17A H -1.2903 0.1318 0.9788
Mn1_2 Mn 0.16376(3) 1.29097(2) -0.66825(2)
Mn1A_2 Mn -1.16376(3) -0.29097(2) 1.66825(2)
Mn1A_3 Mn -0.16376(3) -0.29097(2) -0.33175(2)
O1_2 O 0.23545(18) 0.11490(14) 0.45306(13)
O1A_2 O -1.23545(18) 0.88510(14) 0.54694(13)
O4_2 O 0.24560(18) 0.28796(14) 0.47688(13)
O4A_2 O -1.24560(18) 0.71204(14) 0.52312(13)
N3A_2 N -1.1061(2) 0.74729(17) 0.79781(15)
loop_
_geom_bond_atom_site_label_1
_geom_bond_atom_site_label_2
_geom_bond_site_symmetry_1
_geom_bond_site_symmetry_2
Mn1 O2 1_555 1_555
O1 C4 1_555 1_555
N1 C5 1_555 1_555
O2 C1 1_555 1_555
O3 Mn1 1_555 1_555
N2 C10 1_555 1_555
C1 O3 1_555 1_555
O4 C4 1_555 1_555
C2 C1 1_555 1_555
O5 C7 1_555 1_555
N3 Mn1 1_555 1_555
C3 H1 1_555 1_555
C4 C11 1_555 1_555
N4 Mn1 1_555 1_555
C5 C15 1_555 1_555
C6 C7 1_555 1_555
C7 C14 1_555 1_555
C8 H2 1_555 1_555
C9 N1 1_555 1_555
C10 C22 1_555 1_555
C11 C19 1_555 1_555
C12 N2 1_555 1_555
C13 C9 1_555 1_555
H3 C13 1_555 1_555
H4 C13 1_555 1_555
H5 C13 1_555 1_555
C14 C8 1_555 1_555
C15 H6 1_555 1_555
C16 C6 1_555 1_555
H7 C16 1_555 1_555
C17 C14 1_555 1_555
H8 C17 1_555 1_555
C18 C2 1_555 1_555
H9 C18 1_555 1_555
C19 C8 1_555 1_555
H10 C19 1_555 1_555
C20 N4 1_555 1_555
H11 C20 1_555 1_555
C21 N1 1_555 1_555
H12 C21 1_555 1_555
C22 C3 1_555 1_555
H13 C22 1_555 1_555
C23 C2 1_555 1_555
H14 C23 1_555 1_555
C24 C11 1_555 1_555
H15 C24 1_555 1_555
C25 N2 1_555 1_555
H16 C25 1_555 1_555
C26 C6 1_555 1_555
H17 C26 1_555 1_555
C27 C15 1_555 1_555
H18 C27 1_555 1_555
C28 N3 1_555 1_555
H19 C28 1_555 1_555
C29 C12 1_555 1_555
H20 C29 1_555 1_555
H21 C29 1_555 1_555
H22 C29 1_555 1_555
N1A C5A 1_555 1_555
N3A C9A 1_555 1_555
C5A C27 1_555 1_555
C9A N1A 1_555 1_555
C13A C9A 1_555 1_555
H3A C13A 1_555 1_555
H4A C13A 1_555 1_555
H5A C13A 1_555 1_555
C15A C5A 1_555 1_555
H6A C15A 1_555 1_555
C21A N1A 1_555 1_555
H12A C21A 1_555 1_555
C27A C5 1_555 1_555
H18A C27A 1_555 1_555
C28A N3A 1_555 1_555
H19A C28A 1_555 1_555
N2A C10A 1_555 1_555
C3A C10 1_555 1_555
H1A C3A 1_555 1_555
N4A C12A 1_555 1_555
C10A C3 1_555 1_555
C12A N2A 1_555 1_555
C20A N4A 1_555 1_555
H11A C20A 1_555 1_555
C22A C3A 1_555 1_555
H13A C22A 1_555 1_555
C25A N2A 1_555 1_555
H16A C25A 1_555 1_555
C29A C12A 1_555 1_555
H20A C29A 1_555 1_555
H21A C29A 1_555 1_555
H22A C29A 1_555 1_555
Mn1A N4A 1_555 1_555
O1A C4A 1_555 1_555
O2A Mn1A 1_555 1_555
O3A Mn1A 1_555 1_555
C1A O2A 1_555 1_555
O4A C4A 1_555 1_555
C2A C1A 1_555 1_555
O5A C7A 1_555 1_555
C4A C11A 1_555 1_555
C6A C7A 1_555 1_555
C7A C14A 1_555 1_555
C8A H2A 1_555 1_555
C11A C19A 1_555 1_555
C14A C8A 1_555 1_555
C16A C6A 1_555 1_555
H7A C16A 1_555 1_555
C17A C14A 1_555 1_555
H8A C17A 1_555 1_555
C18A C2A 1_555 1_555
H9A C18A 1_555 1_555
C19A C8A 1_555 1_555
H10A C19A 1_555 1_555
C23A C2A 1_555 1_555
H14A C23A 1_555 1_555
C24A C11A 1_555 1_555
H15A C24A 1_555 1_555
C26A C6A 1_555 1_555
H17A C26A 1_555 1_555
Mn1_2 O1 1_555 1_555
Mn1A_2 O1A 1_555 1_555
Mn1A_3 N3A 1_555 1_555
O1_2 Mn1 1_555 1_555
O1A_2 Mn1A 1_555 1_555
O4_2 Mn1 1_555 1_555
O4A_2 Mn1A 1_555 1_555
N3A_2 Mn1A 1_555 1_555
O4 Mn1_2 1_555 1_555
N3 C9 1_555 1_555
N4 C12 1_555 1_555
C16 C18 1_555 1_555
C17 C24 1_555 1_555
C20 C25 1_555 1_555
C21 C28 1_555 1_555
C23 C26 1_555 1_555
C15A C27A 1_555 1_555
C21A C28A 1_555 1_555
C10A C22A 1_555 1_555
C20A C25A 1_555 1_555
O3A C1A 1_555 1_555
O4A Mn1A_2 1_555 1_555
C16A C18A 1_555 1_555
C17A C24A 1_555 1_555
C23A C26A 1_555 1_555

#END
