
#######################################################################
#
#                 Cambridge Crystallographic Data Centre
#                                CCDC 
#
#######################################################################
#
# If this CIF has been generated from an entry in the Cambridge 
# Structural Database, then it will include bibliographic, chemical, 
# crystal, experimental, refinement or atomic coordinate data resulting 
# from the CCDC's data processing and validation procedures.
#
#######################################################################

data_JUSNIW
_symmetry_cell_setting           monoclinic
_symmetry_space_group_name_H-M   'P 21/n'
_symmetry_Int_Tables_number      14
_space_group_name_Hall           '-P 2yn'
loop_
_symmetry_equiv_pos_site_id
_symmetry_equiv_pos_as_xyz
1 x,y,z
2 1/2-x,1/2+y,1/2-z
3 -x,-y,-z
4 1/2+x,1/2-y,1/2+z
_cell_length_a                   17.094(7)
_cell_length_b                   14.608(6)
_cell_length_c                   20.725(9)
_cell_angle_alpha                90
_cell_angle_beta                 105.863(8)
_cell_angle_gamma                90
_cell_volume                     4978.14
loop_
_atom_site_label
_atom_site_type_symbol
_atom_site_fract_x
_atom_site_fract_y
_atom_site_fract_z
B1 B 0.5541(2) 0.8025(3) 0.14576(17)
H1 H 0.6160 0.7796 0.1508
C1 C 0.25739(18) 1.2267(2) 0.13899(16)
C2 C 0.2859(2) 1.2785(2) 0.09364(18)
H2 H 0.3307 1.3165 0.1093
C3 C 0.2487(3) 1.2740(3) 0.0262(2)
H3 H 0.2689 1.3088 -0.0032
C4 C 0.1825(3) 1.2196(3) 0.0013(2)
H4 H 0.1565 1.2189 -0.0444
C5 C 0.1552(2) 1.1661(3) 0.04472(18)
H5 H 0.1115 1.1269 0.0278
C6 C 0.1909(2) 1.1687(2) 0.11338(15)
C7 C 0.1572(2) 1.1129(2) 0.15551(17)
H6 H 0.1089 1.0828 0.1346
C8 C 0.13800(19) 1.0352(2) 0.24966(16)
H7 H 0.1747 0.9913 0.2776
H8 H 0.0997 1.0017 0.2144
C9 C 0.0918(2) 1.0858(3) 0.2920(2)
H9 H 0.1294 1.1065 0.3334
H10 H 0.0650 1.1391 0.2678
C10 C 0.0298(2) 1.0234(2) 0.30741(18)
C11 C -0.0472(2) 1.0183(3) 0.2666(2)
H11 H -0.0620 1.0549 0.2284
C12 C -0.1043(2) 0.9596(4) 0.2807(3)
H12 H -0.1567 0.9574 0.2521
C13 C -0.0846(3) 0.9068(3) 0.3346(3)
H13 H -0.1238 0.8691 0.3442
C14 C -0.0096(3) 0.9071(3) 0.3751(2)
H14 H 0.0042 0.8676 0.4116
C15 C 0.0484(2) 0.9665(3) 0.36297(19)
H15 H 0.1003 0.9680 0.3925
C16 C 0.34242(18) 1.0628(2) 0.40276(15)
C17 C 0.3218(2) 1.0002(2) 0.44562(16)
H16 H 0.2792 0.9597 0.4286
C18 C 0.3622(2) 0.9966(3) 0.51175(17)
H17 H 0.3459 0.9549 0.5394
C19 C 0.4265(3) 1.0534(3) 0.53844(19)
H18 H 0.4538 1.0508 0.5839
C20 C 0.4499(2) 1.1141(3) 0.49693(18)
H19 H 0.4938 1.1526 0.5148
C21 C 0.41001(19) 1.1199(2) 0.42881(15)
C22 C 0.44051(19) 1.1808(2) 0.38793(17)
H20 H 0.4891 1.2104 0.4086
C23 C 0.4511(2) 1.2655(2) 0.29347(18)
H21 H 0.4926 1.2967 0.3278
H22 H 0.4126 1.3111 0.2699
C24 C 0.4904(2) 1.2204(3) 0.24461(17)
H23 H 0.4510 1.1802 0.2155
H24 H 0.5046 1.2674 0.2167
C25 C 0.56562(18) 1.1658(3) 0.27724(15)
C26 C 0.6365(2) 1.2097(3) 0.30798(17)
H25 H 0.6370 1.2734 0.3095
C27 C 0.7073(2) 1.1628(3) 0.3368(2)
H26 H 0.7546 1.1946 0.3575
C28 C 0.7078(2) 1.0684(3) 0.3349(2)
H27 H 0.7552 1.0357 0.3537
C29 C 0.6347(3) 1.0229(3) 0.3037(2)
H28 H 0.6333 0.9593 0.3018
C30 C 0.5666(2) 1.0717(3) 0.2768(2)
H29 H 0.5186 1.0406 0.2571
C31 C 0.5732(2) 0.6288(3) 0.06098(19)
H30 H 0.6060 0.6695 0.0430
H31 H 0.5638 0.5733 0.0351
H32 H 0.6009 0.6148 0.1068
C32 C 0.49415(19) 0.6733(2) 0.05794(15)
C33 C 0.41710(19) 0.6513(2) 0.02108(15)
H33 H 0.4024 0.6033 -0.0093
C34 C 0.36537(18) 0.7141(2) 0.03761(14)
C35 C 0.27622(18) 0.7178(3) 0.00980(16)
H34 H 0.2508 0.7145 0.0457
H35 H 0.2585 0.6672 -0.0202
H36 H 0.2613 0.7742 -0.0142
C36 C 0.6673(2) 0.7319(3) 0.28648(19)
H37 H 0.6674 0.6869 0.2527
H38 H 0.6841 0.7038 0.3300
H39 H 0.7043 0.7804 0.2840
C37 C 0.58350(18) 0.7700(2) 0.27525(15)
C38 C 0.5394(2) 0.7856(2) 0.31976(15)
H40 H 0.5555 0.7723 0.3654
C39 C 0.46685(18) 0.8245(2) 0.28506(14)
C40 C 0.39982(19) 0.8555(2) 0.31326(15)
H41 H 0.3960 0.9210 0.3110
H42 H 0.4110 0.8362 0.3592
H43 H 0.3494 0.8292 0.2877
C41 C 0.6894(2) 0.9306(3) 0.1172(2)
H44 H 0.7118 0.9080 0.1619
H45 H 0.7202 0.9826 0.1098
H46 H 0.6917 0.8834 0.0855
C42 C 0.60271(18) 0.9583(3) 0.10815(15)
C43 C 0.5643(2) 1.0390(3) 0.08687(16)
H47 H 0.5875 1.0902 0.0727
C44 C 0.48489(19) 1.0315(2) 0.09009(14)
C45 C 0.4198(2) 1.1018(2) 0.07119(17)
H48 H 0.3794 1.0824 0.0316
H49 H 0.4429 1.1589 0.0625
H50 H 0.3951 1.1095 0.1072
C46 C 0.30518(19) 0.9252(2) 0.05948(16)
C47 C 0.30241(16) 0.8071(2) 0.15902(13)
C48 C 0.35963(16) 0.9814(2) 0.18355(14)
Fe1 Fe 0.38564(2) 0.87898(3) 0.135825(19)
Mn1 Mn 0.29659(2) 1.14998(3) 0.27199(2)
N1 N 0.18558(14) 1.09916(17) 0.21907(12)
N2 N 0.40876(14) 1.19963(17) 0.32557(13)
N3 N 0.48921(13) 0.74699(16) 0.09623(11)
N4 N 0.40936(13) 0.77264(16) 0.08398(11)
N5 N 0.53785(13) 0.79884(17) 0.21476(11)
N6 N 0.46536(13) 0.83277(16) 0.22012(11)
N7 N 0.54783(13) 0.90263(18) 0.12288(11)
N8 N 0.47486(13) 0.94747(16) 0.11229(11)
N9 N 0.34541(15) 1.04314(18) 0.21306(13)
N10 N 0.25612(19) 0.9509(2) 0.01426(16)
N11 N 0.25751(15) 0.75890(17) 0.17438(12)
O1 O 0.29317(12) 1.23458(14) 0.20408(10)
O2 O 0.29966(12) 1.06443(14) 0.33861(10)
Mn1A Mn 0.20341(2) 0.64998(3) 0.22801(2)
N11A N 0.24249(15) 1.25890(17) 0.32562(12)
loop_
_geom_bond_atom_site_label_1
_geom_bond_atom_site_label_2
_geom_bond_site_symmetry_1
_geom_bond_site_symmetry_2
B1 H1 1_555 1_555
C1 C2 1_555 1_555
C2 H2 1_555 1_555
C3 C2 1_555 1_555
H3 C3 1_555 1_555
C4 C3 1_555 1_555
H4 C4 1_555 1_555
C5 C4 1_555 1_555
H5 C5 1_555 1_555
C6 C1 1_555 1_555
C7 C6 1_555 1_555
H6 C7 1_555 1_555
C8 H7 1_555 1_555
H8 C8 1_555 1_555
C9 C8 1_555 1_555
H9 C9 1_555 1_555
H10 C9 1_555 1_555
C10 C9 1_555 1_555
C11 C10 1_555 1_555
H11 C11 1_555 1_555
C12 C11 1_555 1_555
H12 C12 1_555 1_555
C13 C12 1_555 1_555
H13 C13 1_555 1_555
C14 C13 1_555 1_555
H14 C14 1_555 1_555
C15 C10 1_555 1_555
H15 C15 1_555 1_555
C16 C17 1_555 1_555
C17 H16 1_555 1_555
C18 C17 1_555 1_555
H17 C18 1_555 1_555
C19 C18 1_555 1_555
H18 C19 1_555 1_555
C20 C19 1_555 1_555
H19 C20 1_555 1_555
C21 C16 1_555 1_555
C22 C21 1_555 1_555
H20 C22 1_555 1_555
C23 H21 1_555 1_555
H22 C23 1_555 1_555
C24 C23 1_555 1_555
H23 C24 1_555 1_555
H24 C24 1_555 1_555
C25 C24 1_555 1_555
C26 C25 1_555 1_555
H25 C26 1_555 1_555
C27 C26 1_555 1_555
H26 C27 1_555 1_555
C28 C27 1_555 1_555
H27 C28 1_555 1_555
C29 C28 1_555 1_555
H28 C29 1_555 1_555
C30 C25 1_555 1_555
H29 C30 1_555 1_555
C31 H30 1_555 1_555
H31 C31 1_555 1_555
H32 C31 1_555 1_555
C32 C31 1_555 1_555
C33 C32 1_555 1_555
H33 C33 1_555 1_555
C34 C33 1_555 1_555
C35 C34 1_555 1_555
H34 C35 1_555 1_555
H35 C35 1_555 1_555
H36 C35 1_555 1_555
C36 H37 1_555 1_555
H38 C36 1_555 1_555
H39 C36 1_555 1_555
C37 C36 1_555 1_555
C38 C37 1_555 1_555
H40 C38 1_555 1_555
C39 C38 1_555 1_555
C40 C39 1_555 1_555
H41 C40 1_555 1_555
H42 C40 1_555 1_555
H43 C40 1_555 1_555
C41 H44 1_555 1_555
H45 C41 1_555 1_555
H46 C41 1_555 1_555
C42 C41 1_555 1_555
C43 C42 1_555 1_555
H47 C43 1_555 1_555
C44 C43 1_555 1_555
C45 C44 1_555 1_555
H48 C45 1_555 1_555
H49 C45 1_555 1_555
H50 C45 1_555 1_555
C46 Fe1 1_555 1_555
C47 Fe1 1_555 1_555
C48 Fe1 1_555 1_555
Fe1 N4 1_555 1_555
Mn1 N1 1_555 1_555
N1 C7 1_555 1_555
N2 C22 1_555 1_555
N3 B1 1_555 1_555
N4 C34 1_555 1_555
N5 B1 1_555 1_555
N6 C39 1_555 1_555
N7 B1 1_555 1_555
N8 C44 1_555 1_555
N9 C48 1_555 1_555
N10 C46 1_555 1_555
N11 C47 1_555 1_555
O1 C1 1_555 1_555
O2 C16 1_555 1_555
Mn1A N11 1_555 1_555
N11A Mn1 1_555 1_555
C5 C6 1_555 1_555
C8 N1 1_555 1_555
C14 C15 1_555 1_555
C20 C21 1_555 1_555
C23 N2 1_555 1_555
C29 C30 1_555 1_555
C32 N3 1_555 1_555
C37 N5 1_555 1_555
C42 N7 1_555 1_555
Fe1 N6 1_555 1_555
Fe1 N8 1_555 1_555
Mn1 N2 1_555 1_555
Mn1 N9 1_555 1_555
Mn1 O1 1_555 1_555
Mn1 O2 1_555 1_555
N3 N4 1_555 1_555
N5 N6 1_555 1_555
N7 N8 1_555 1_555

#END
