
#######################################################################
#
#                 Cambridge Crystallographic Data Centre
#                                CCDC 
#
#######################################################################
#
# If this CIF has been generated from an entry in the Cambridge 
# Structural Database, then it will include bibliographic, chemical, 
# crystal, experimental, refinement or atomic coordinate data resulting 
# from the CCDC's data processing and validation procedures.
#
#######################################################################

data_JUSNUI
_symmetry_cell_setting           triclinic
_symmetry_space_group_name_H-M   'P -1'
_symmetry_Int_Tables_number      2
_space_group_name_Hall           '-P 1'
loop_
_symmetry_equiv_pos_site_id
_symmetry_equiv_pos_as_xyz
1 x,y,z
2 -x,-y,-z
_cell_length_a                   9.406(3)
_cell_length_b                   10.783(3)
_cell_length_c                   11.576(3)
_cell_angle_alpha                97.465(8)
_cell_angle_beta                 96.854(7)
_cell_angle_gamma                111.396(5)
_cell_volume                     1066.09
loop_
_atom_site_label
_atom_site_type_symbol
_atom_site_fract_x
_atom_site_fract_y
_atom_site_fract_z
U1 U 0.81977(3) 0.76610(2) 0.738646(18)
Cu1 Cu 0.53803(9) 0.86998(8) 0.86187(6)
O1 O 0.5855(5) 0.5936(4) 0.7590(4)
O2 O 0.4184(5) 0.6751(4) 0.8262(4)
O3 O 0.3250(7) 0.5371(5) 0.5510(4)
O4 O 0.2537(6) 0.3262(5) 0.4522(4)
O5 O -0.0095(5) -0.0559(4) 0.6476(3)
O6 O 0.0355(5) -0.0267(4) 0.8414(3)
O7 O 0.1809(5) 0.2214(5) 1.0542(4)
O8 O 0.3526(5) 0.1422(5) 0.9900(4)
O9 O 0.7018(5) 0.8633(5) 0.7277(4)
O10 O 0.9371(6) 0.6719(5) 0.7543(4)
N1 N 0.4069(6) 0.8994(6) 0.7290(5)
N2 N 0.6455(7) 1.0713(6) 0.8871(5)
C1 C 0.4563(7) 0.5811(6) 0.7827(5)
C2 C 0.3394(7) 0.4390(6) 0.7674(5)
C3 C 0.2602(7) 0.3575(6) 0.6575(5)
C4 C 0.1685(7) 0.2228(6) 0.6523(5)
H1 H 0.1130 0.1693 0.5794
C5 C 0.1568(6) 0.1647(6) 0.7544(5)
C6 C 0.2390(7) 0.2461(6) 0.8636(5)
C7 C 0.3245(7) 0.3834(6) 0.8696(5)
H2 H 0.3725 0.4390 0.9431
C8 C 0.2815(7) 0.4151(7) 0.5465(5)
C9 C 0.0583(7) 0.0198(6) 0.7460(5)
C10 C 0.2545(7) 0.1948(6) 0.9784(5)
C11 C 0.2873(8) 0.8100(8) 0.6506(6)
H3 H 0.2439 0.7215 0.6633
C12 C 0.2242(10) 0.8433(10) 0.5500(7)
H4 H 0.1383 0.7787 0.4979
C13 C 0.2900(9) 0.9728(9) 0.5283(6)
H5 H 0.2494 0.9959 0.4609
C14 C 0.4193(9) 1.0705(8) 0.6084(6)
C15 C 0.4693(8) 1.0280(7) 0.7086(6)
C16 C 0.4968(11) 1.2043(9) 0.5927(7)
H6 H 0.4643 1.2317 0.5250
C17 C 0.6185(11) 1.2941(9) 0.6749(8)
H7 H 0.6665 1.3827 0.6636
C18 C 0.6744(10) 1.2540(8) 0.7794(7)
C19 C 0.5991(8) 1.1203(7) 0.7941(6)
C20 C 0.7992(11) 1.3392(9) 0.8675(9)
H8 H 0.8515 1.4293 0.8619
C21 C 0.8440(13) 1.2903(9) 0.9613(9)
H9 H 0.9259 1.3473 1.0208
C22 C 0.7672(10) 1.1541(8) 0.9687(7)
H10 H 0.8018 1.1207 1.0317
U1_2 U -0.18023(3) -0.23390(2) 0.738646(18)
U1A U 0.18023(3) 0.23390(2) 0.261354(18)
U1A_2 U 0.18023(3) 0.23390(2) 1.261354(18)
Cu1A Cu 0.46197(9) 0.13002(8) 1.13813(6)
O4A O 0.7463(6) 0.6738(5) 0.5478(4)
O5_2 O 0.9905(5) 0.9441(4) 0.6476(3)
O6_2 O 1.0355(5) 0.9733(4) 0.8414(3)
O7A O 0.8191(5) 0.7786(5) 0.9458(4)
O8A O 0.6474(5) 0.8578(5) 1.0100(4)
loop_
_geom_bond_atom_site_label_1
_geom_bond_atom_site_label_2
_geom_bond_site_symmetry_1
_geom_bond_site_symmetry_2
U1 O1 1_555 1_555
Cu1 O2 1_555 1_555
O1 C1 1_555 1_555
O2 C1 1_555 1_555
O3 C8 1_555 1_555
O4 C8 1_555 1_555
O5 C9 1_555 1_555
O6 C9 1_555 1_555
O7 C10 1_555 1_555
O8 C10 1_555 1_555
O9 U1 1_555 1_555
O10 U1 1_555 1_555
N1 Cu1 1_555 1_555
N2 Cu1 1_555 1_555
C1 C2 1_555 1_555
C2 C3 1_555 1_555
C3 C4 1_555 1_555
C4 H1 1_555 1_555
C5 C4 1_555 1_555
C6 C5 1_555 1_555
C7 C2 1_555 1_555
H2 C7 1_555 1_555
C8 C3 1_555 1_555
C9 C5 1_555 1_555
C10 C6 1_555 1_555
C11 N1 1_555 1_555
H3 C11 1_555 1_555
C12 C11 1_555 1_555
H4 C12 1_555 1_555
C13 C12 1_555 1_555
H5 C13 1_555 1_555
C14 C13 1_555 1_555
C15 N1 1_555 1_555
C16 C14 1_555 1_555
H6 C16 1_555 1_555
C17 C16 1_555 1_555
H7 C17 1_555 1_555
C18 C17 1_555 1_555
C19 N2 1_555 1_555
C20 C18 1_555 1_555
H8 C20 1_555 1_555
C21 C20 1_555 1_555
H9 C21 1_555 1_555
C22 N2 1_555 1_555
H10 C22 1_555 1_555
U1_2 O5 1_555 1_555
U1A O4 1_555 1_555
U1A_2 O7 1_555 1_555
Cu1A O8 1_555 1_555
O4A U1 1_555 1_555
O5_2 U1 1_555 1_555
O6_2 U1 1_555 1_555
O7A U1 1_555 1_555
O8A Cu1 1_555 1_555
Cu1 O9 1_555 1_555
O6 U1_2 1_555 1_555
C6 C7 1_555 1_555
C14 C15 1_555 1_555
C15 C19 1_555 1_555
C18 C19 1_555 1_555
C21 C22 1_555 1_555

#END
