
#######################################################################
#
#                 Cambridge Crystallographic Data Centre
#                                CCDC 
#
#######################################################################
#
# If this CIF has been generated from an entry in the Cambridge 
# Structural Database, then it will include bibliographic, chemical, 
# crystal, experimental, refinement or atomic coordinate data resulting 
# from the CCDC's data processing and validation procedures.
#
#######################################################################

data_JUSNOC
_symmetry_cell_setting           orthorhombic
_symmetry_space_group_name_H-M   'P 21 21 21'
_symmetry_Int_Tables_number      19
_space_group_name_Hall           'P 2ac 2ab'
loop_
_symmetry_equiv_pos_site_id
_symmetry_equiv_pos_as_xyz
1 x,y,z
2 1/2-x,-y,1/2+z
3 -x,1/2+y,1/2-z
4 1/2+x,1/2-y,-z
_cell_length_a                   15.0134(13)
_cell_length_b                   15.4705(12)
_cell_length_c                   22.0081(19)
_cell_angle_alpha                90
_cell_angle_beta                 90
_cell_angle_gamma                90
_cell_volume                     5111.71
loop_
_atom_site_label
_atom_site_type_symbol
_atom_site_fract_x
_atom_site_fract_y
_atom_site_fract_z
B1 B 0.1122(3) 0.74095(19) -0.00500(15)
H1 H 0.1178 0.7105 -0.0500
C1 C -0.0501(2) 0.49680(18) 0.02119(14)
H2 H -0.1007 0.5315 0.0214
C2 C -0.0349(3) 0.44244(19) -0.02706(15)
H3 H -0.0745 0.4418 -0.0596
C3 C 0.0380(3) 0.38908(19) -0.02775(14)
H4 H 0.0476 0.3515 -0.0601
C4 C 0.0968(2) 0.39190(19) 0.02005(14)
H5 H 0.1467 0.3562 0.0201
C5 C 0.0819(2) 0.44766(17) 0.06818(15)
H6 H 0.1223 0.4491 0.1002
C6 C 0.0088(2) 0.50084(15) 0.06963(13)
C7 C -0.0083(2) 0.55942(16) 0.12406(14)
H7 H -0.0452 0.6077 0.1117
H8 H 0.0479 0.5823 0.1388
C8 C -0.0547(2) 0.50946(16) 0.17512(13)
H9 H -0.1079 0.4821 0.1592
H10 H -0.0153 0.4643 0.1898
C9 C -0.1639(2) 0.57479(17) 0.23767(14)
H11 H -0.2025 0.5420 0.2140
C10 C -0.2042(2) 0.62969(16) 0.28351(13)
C11 C -0.2984(2) 0.62893(18) 0.28785(15)
H12 H -0.3314 0.5914 0.2637
C12 C -0.3410(2) 0.6833(2) 0.32745(15)
C13 C -0.2908(2) 0.74004(19) 0.36362(15)
H13 H -0.3196 0.7777 0.3901
C14 C -0.1995(2) 0.74034(17) 0.36027(14)
H14 H -0.1674 0.7780 0.3848
C15 C -0.1535(2) 0.68505(16) 0.32061(13)
C16 C -0.4846(3) 0.6337(3) 0.2997(2)
H15 H -0.4710 0.6423 0.2575
H16 H -0.5464 0.6461 0.3067
H17 H -0.4723 0.5749 0.3107
C17 C 0.2486(3) 0.80108(17) 0.44389(15)
H18 H 0.2205 0.7916 0.4810
C18 C 0.3398(3) 0.81114(19) 0.44249(18)
H19 H 0.3727 0.8081 0.4783
C19 C 0.3824(3) 0.8258(2) 0.3873(2)
H20 H 0.4441 0.8311 0.3857
C20 C 0.3323(3) 0.8325(3) 0.3353(2)
H21 H 0.3601 0.8445 0.2985
C21 C 0.2406(3) 0.8213(2) 0.33727(16)
H22 H 0.2080 0.8252 0.3015
C22 C 0.1971(2) 0.80479(16) 0.39079(14)
C23 C 0.0984(2) 0.78880(17) 0.39206(15)
H23 H 0.0732 0.8038 0.3529
H24 H 0.0714 0.8259 0.4224
C24 C 0.0760(2) 0.69425(16) 0.40663(13)
H25 H 0.1061 0.6772 0.4437
H26 H 0.0124 0.6886 0.4132
C25 C 0.1822(2) 0.60345(17) 0.36054(12)
H27 H 0.2163 0.6202 0.3938
C26 C 0.2227(2) 0.54256(15) 0.31855(13)
C27 C 0.3089(2) 0.51313(18) 0.33238(14)
H28 H 0.3389 0.5364 0.3656
C28 C 0.3499(2) 0.45056(19) 0.29775(15)
C29 C 0.3047(2) 0.41637(19) 0.24844(15)
H29 H 0.3312 0.3732 0.2252
C30 C 0.2202(2) 0.44602(17) 0.23346(14)
H30 H 0.1913 0.4225 0.1999
C31 C 0.1775(2) 0.51008(16) 0.26723(13)
C32 C 0.4774(3) 0.3628(3) 0.28179(19)
H31 H 0.4412 0.3118 0.2792
H32 H 0.5332 0.3488 0.3007
H33 H 0.4882 0.3849 0.2417
C33 C 0.1657(3) 0.8468(2) -0.12321(14)
H34 H 0.2064 0.7997 -0.1292
H35 H 0.1794 0.8924 -0.1513
H36 H 0.1059 0.8272 -0.1299
C34 C 0.1744(2) 0.87970(18) -0.05993(13)
C35 C 0.2049(2) 0.95891(17) -0.03902(14)
H37 H 0.2263 1.0042 -0.0627
C36 C 0.1977(2) 0.95812(16) 0.02358(13)
C37 C 0.2203(3) 1.02945(18) 0.06631(15)
H38 H 0.1665 1.0571 0.0797
H39 H 0.2575 1.0709 0.0460
H40 H 0.2514 1.0063 0.1008
C38 C 0.2156(3) 0.56752(19) -0.03019(16)
H41 H 0.1549 0.5527 -0.0392
H42 H 0.2505 0.5157 -0.0271
H43 H 0.2390 0.6033 -0.0621
C39 C 0.2194(2) 0.61604(16) 0.02921(14)
C40 C 0.2658(2) 0.59911(18) 0.08145(14)
H44 H 0.3032 0.5522 0.0884
C41 C 0.2467(2) 0.66461(16) 0.12189(13)
C42 C 0.2840(2) 0.67524(19) 0.18471(14)
H45 H 0.3236 0.7239 0.1855
H46 H 0.3160 0.6240 0.1959
H47 H 0.2362 0.6846 0.2129
C43 C -0.0755(2) 0.69310(19) -0.06093(14)
H48 H -0.0608 0.7361 -0.0907
H49 H -0.1367 0.6765 -0.0656
H50 H -0.0380 0.6434 -0.0665
C44 C -0.0612(2) 0.72959(16) 0.00185(14)
C45 C -0.1215(2) 0.75104(16) 0.04560(14)
H51 H -0.1830 0.7443 0.0433
C46 C -0.0738(2) 0.78504(16) 0.09451(14)
C47 C -0.1100(2) 0.81566(18) 0.15465(14)
H52 H -0.0941 0.7752 0.1859
H53 H -0.1737 0.8200 0.1522
H54 H -0.0854 0.8713 0.1641
C48 C 0.0683(2) 0.93185(15) 0.14284(12)
C49 C 0.2269(2) 0.87144(16) 0.16375(13)
C50 C 0.0895(2) 0.76774(16) 0.19304(13)
Fe1 Fe 0.12625(3) 0.82682(2) 0.120030(17)
Mn1 Mn 0.01628(3) 0.61112(2) 0.286341(19)
N1 N 0.10369(17) 0.63655(13) 0.35638(10)
N2 N -0.07943(18) 0.56679(13) 0.22631(10)
N3 N 0.15111(17) 0.83306(13) -0.01076(10)
N4 N 0.16478(16) 0.88053(13) 0.04151(10)
N5 N 0.02006(18) 0.74885(13) 0.02290(10)
N6 N 0.01393(17) 0.78445(13) 0.08018(10)
N7 N 0.17338(17) 0.68976(13) 0.03768(11)
N8 N 0.18921(17) 0.72032(13) 0.09579(11)
N9 N 0.2862(2) 0.90009(17) 0.19055(12)
N10 N 0.03484(19) 0.99704(14) 0.15562(12)
N11 N 0.06750(19) 0.72407(14) 0.23245(11)
O1 O -0.43249(17) 0.68884(16) 0.33475(12)
O2 O 0.43312(17) 0.42566(15) 0.31650(12)
O3 O 0.09750(14) 0.53706(12) 0.25031(9)
O4 O -0.06583(15) 0.68820(11) 0.31967(10)
Mn1B Mn -0.01628(3) 1.11112(2) 0.213659(19)
N10B N -0.03484(19) 0.49704(14) 0.34438(12)
loop_
_geom_bond_atom_site_label_1
_geom_bond_atom_site_label_2
_geom_bond_site_symmetry_1
_geom_bond_site_symmetry_2
B1 H1 1_555 1_555
C1 H2 1_555 1_555
C2 C1 1_555 1_555
H3 C2 1_555 1_555
C3 C2 1_555 1_555
H4 C3 1_555 1_555
C4 C3 1_555 1_555
H5 C4 1_555 1_555
C5 C4 1_555 1_555
H6 C5 1_555 1_555
C6 C1 1_555 1_555
C7 C6 1_555 1_555
H7 C7 1_555 1_555
H8 C7 1_555 1_555
C8 C7 1_555 1_555
H9 C8 1_555 1_555
H10 C8 1_555 1_555
C9 H11 1_555 1_555
C10 C9 1_555 1_555
C11 C10 1_555 1_555
H12 C11 1_555 1_555
C12 C11 1_555 1_555
C13 C12 1_555 1_555
H13 C13 1_555 1_555
C14 C13 1_555 1_555
H14 C14 1_555 1_555
C15 C10 1_555 1_555
C16 H15 1_555 1_555
H16 C16 1_555 1_555
H17 C16 1_555 1_555
C17 H18 1_555 1_555
C18 C17 1_555 1_555
H19 C18 1_555 1_555
C19 C18 1_555 1_555
H20 C19 1_555 1_555
C20 C19 1_555 1_555
H21 C20 1_555 1_555
C21 C20 1_555 1_555
H22 C21 1_555 1_555
C22 C17 1_555 1_555
C23 C22 1_555 1_555
H23 C23 1_555 1_555
H24 C23 1_555 1_555
C24 C23 1_555 1_555
H25 C24 1_555 1_555
H26 C24 1_555 1_555
C25 H27 1_555 1_555
C26 C25 1_555 1_555
C27 C26 1_555 1_555
H28 C27 1_555 1_555
C28 C27 1_555 1_555
C29 C28 1_555 1_555
H29 C29 1_555 1_555
C30 C29 1_555 1_555
H30 C30 1_555 1_555
C31 C26 1_555 1_555
C32 H31 1_555 1_555
H32 C32 1_555 1_555
H33 C32 1_555 1_555
C33 H34 1_555 1_555
H35 C33 1_555 1_555
H36 C33 1_555 1_555
C34 C33 1_555 1_555
C35 C34 1_555 1_555
H37 C35 1_555 1_555
C36 C35 1_555 1_555
C37 C36 1_555 1_555
H38 C37 1_555 1_555
H39 C37 1_555 1_555
H40 C37 1_555 1_555
C38 H41 1_555 1_555
H42 C38 1_555 1_555
H43 C38 1_555 1_555
C39 C38 1_555 1_555
C40 C39 1_555 1_555
H44 C40 1_555 1_555
C41 C40 1_555 1_555
C42 C41 1_555 1_555
H45 C42 1_555 1_555
H46 C42 1_555 1_555
H47 C42 1_555 1_555
C43 H48 1_555 1_555
H49 C43 1_555 1_555
H50 C43 1_555 1_555
C44 C43 1_555 1_555
C45 C44 1_555 1_555
H51 C45 1_555 1_555
C46 C45 1_555 1_555
C47 C46 1_555 1_555
H52 C47 1_555 1_555
H53 C47 1_555 1_555
H54 C47 1_555 1_555
C48 Fe1 1_555 1_555
C49 Fe1 1_555 1_555
C50 Fe1 1_555 1_555
Fe1 N4 1_555 1_555
Mn1 N1 1_555 1_555
N1 C24 1_555 1_555
N2 C8 1_555 1_555
N3 B1 1_555 1_555
N4 C36 1_555 1_555
N5 B1 1_555 1_555
N6 C46 1_555 1_555
N7 B1 1_555 1_555
N8 C41 1_555 1_555
N9 C49 1_555 1_555
N10 C48 1_555 1_555
N11 C50 1_555 1_555
O1 C12 1_555 1_555
O2 C28 1_555 1_555
O3 C31 1_555 1_555
O4 C15 1_555 1_555
Mn1B N10 1_555 1_555
N10B Mn1 1_555 1_555
C5 C6 1_555 1_555
C9 N2 1_555 1_555
C14 C15 1_555 1_555
C16 O1 1_555 1_555
C21 C22 1_555 1_555
C25 N1 1_555 1_555
C30 C31 1_555 1_555
C32 O2 1_555 1_555
C34 N3 1_555 1_555
C39 N7 1_555 1_555
C44 N5 1_555 1_555
Fe1 N6 1_555 1_555
Fe1 N8 1_555 1_555
Mn1 N2 1_555 1_555
Mn1 N11 1_555 1_555
Mn1 O3 1_555 1_555
Mn1 O4 1_555 1_555
N3 N4 1_555 1_555
N5 N6 1_555 1_555
N7 N8 1_555 1_555

#END
