
#######################################################################
#
#                 Cambridge Crystallographic Data Centre
#                                CCDC 
#
#######################################################################
#
# If this CIF has been generated from an entry in the Cambridge 
# Structural Database, then it will include bibliographic, chemical, 
# crystal, experimental, refinement or atomic coordinate data resulting 
# from the CCDC's data processing and validation procedures.
#
#######################################################################

data_JUSPAQ
_symmetry_cell_setting           monoclinic
_symmetry_space_group_name_H-M   'P 21/m'
_symmetry_Int_Tables_number      11
_space_group_name_Hall           '-P 2yb'
loop_
_symmetry_equiv_pos_site_id
_symmetry_equiv_pos_as_xyz
1 x,y,z
2 -x,1/2+y,-z
3 -x,-y,-z
4 x,1/2-y,z
_cell_length_a                   11.4070(4)
_cell_length_b                   6.7700(2)
_cell_length_c                   11.6330(4)
_cell_angle_alpha                90
_cell_angle_beta                 100.787(2)
_cell_angle_gamma                90
_cell_volume                     882.489
loop_
_atom_site_label
_atom_site_type_symbol
_atom_site_fract_x
_atom_site_fract_y
_atom_site_fract_z
U1 U 0.330115(13) 0.2500 0.704991(13)
O1 O 0.3392(3) 0.2500 0.5095(3)
O2 O 0.5316(4) 0.2500 0.4999(3)
O3 O 0.6694(2) 0.0897(4) 0.3274(2)
O4 O 0.3107(2) 0.4115(3) -0.10563(19)
O5 O 0.0857(3) 0.2500 -0.0174(3)
O6 O 0.0423(3) 0.2500 0.1595(4)
H1 H -0.0328(12) 0.2500 0.138(6)
O7 O 0.1738(3) 0.2500 0.6631(3)
O8 O 0.4855(3) 0.2500 0.7537(3)
C1 C 0.4272(4) 0.2500 0.4549(4)
C2 C 0.3945(4) 0.2500 0.3241(4)
C3 C 0.4847(4) 0.2500 0.2562(4)
C4 C 0.4533(4) 0.2500 0.1350(4)
H2 H 0.5131 0.2500 0.0905
C5 C 0.3350(4) 0.2500 0.0787(4)
C6 C 0.2443(4) 0.2500 0.1461(4)
C7 C 0.2764(4) 0.2500 0.2670(4)
H3 H 0.2166 0.2500 0.3114
C8 C 0.6160(4) 0.2500 0.3103(4)
C9 C 0.3134(4) 0.2500 -0.0512(4)
C10 C 0.1170(4) 0.2500 0.0869(4)
O3C O 0.6694(2) 0.4103(4) 0.3274(2)
O4C O 0.3107(2) 0.0885(3) -0.10563(19)
U1_2 U 0.330115(13) 0.2500 -0.295009(13)
U1A U 0.669885(13) -0.2500 0.295009(13)
U1A_2 U 0.669885(13) 0.7500 0.295009(13)
O3A O 0.3306(2) 0.5897(4) 0.6726(2)
O3B O 0.3306(2) -0.0897(4) 0.6726(2)
O4_2 O 0.3107(2) 0.4115(3) 0.89437(19)
O4C_2 O 0.3107(2) 0.0885(3) 0.89437(19)
O9 O -0.1830(4) 0.2500 0.0581(4)
H4 H -0.218(4) 0.145(4) 0.073(4)
H4C H -0.218(4) 0.355(4) 0.073(4)
N1 N 0.7221(5) 0.2500 0.6677(5)
H5 H 0.654(3) 0.2500 0.623(5)
N2 N 0.8766(6) 0.2500 0.7999(6)
H6 H 0.918(6) 0.2500 0.869(3)
C11 C 0.9130(7) 0.2500 0.6961(9)
H7 H 0.9915 0.2500 0.6846
C12 C 0.8136(8) 0.2500 0.6118(8)
H8 H 0.8101 0.2500 0.5313
C13 C 0.7609(6) 0.2500 0.7804(6)
H9 H 0.7135 0.2500 0.8373
loop_
_geom_bond_atom_site_label_1
_geom_bond_atom_site_label_2
_geom_bond_site_symmetry_1
_geom_bond_site_symmetry_2
U1 O1 1_555 1_555
O1 C1 1_555 1_555
O2 C1 1_555 1_555
O3 C8 1_555 1_555
O4 C9 1_555 1_555
O5 C10 1_555 1_555
O6 H1 1_555 1_555
O7 U1 1_555 1_555
O8 U1 1_555 1_555
C1 C2 1_555 1_555
C2 C3 1_555 1_555
C3 C4 1_555 1_555
C4 H2 1_555 1_555
C5 C4 1_555 1_555
C6 C5 1_555 1_555
C7 C2 1_555 1_555
H3 C7 1_555 1_555
C8 C3 1_555 1_555
C9 C5 1_555 1_555
C10 O6 1_555 1_555
O9 H4 1_555 1_555
N1 H5 1_555 1_555
N2 H6 1_555 1_555
C11 N2 1_555 1_555
H7 C11 1_555 1_555
C12 N1 1_555 1_555
H8 C12 1_555 1_555
C13 N1 1_555 1_555
H9 C13 1_555 1_555
O3C C8 1_555 1_555
O4C C9 1_555 1_555
U1_2 O4 1_555 1_555
U1A O3 1_555 1_555
U1A_2 O3C 1_555 1_555
O3A U1 1_555 1_555
O3B U1 1_555 1_555
O4_2 U1 1_555 1_555
O4C_2 U1 1_555 1_555
H4C O9 1_555 1_555
C6 C7 1_555 1_555
C6 C10 1_555 1_555
N2 C13 1_555 1_555
C11 C12 1_555 1_555
O4C U1_2 1_555 1_555

#END
