
#######################################################################
#
#                 Cambridge Crystallographic Data Centre
#                                CCDC 
#
#######################################################################
#
# If this CIF has been generated from an entry in the Cambridge 
# Structural Database, then it will include bibliographic, chemical, 
# crystal, experimental, refinement or atomic coordinate data resulting 
# from the CCDC's data processing and validation procedures.
#
#######################################################################

data_JUSXUQ
_symmetry_cell_setting           triclinic
_symmetry_space_group_name_H-M   'P -1'
_symmetry_Int_Tables_number      2
_space_group_name_Hall           '-P 1'
loop_
_symmetry_equiv_pos_site_id
_symmetry_equiv_pos_as_xyz
1 x,y,z
2 -x,-y,-z
_cell_length_a                   6.2695(24)
_cell_length_b                   6.272(4)
_cell_length_c                   11.028(3)
_cell_angle_alpha                93.50(3)
_cell_angle_beta                 103.55(3)
_cell_angle_gamma                106.87(4)
_cell_volume                     399.534
loop_
_atom_site_label
_atom_site_type_symbol
_atom_site_fract_x
_atom_site_fract_y
_atom_site_fract_z
Mn1 Mn 0.00000 0.00000 0.00000
O1 O 0.2244(6) -0.1363(6) 0.1204(3)
O2 O -0.0275(7) 0.1564(6) 0.1710(4)
N1 N 0.3134(8) 0.3112(7) -0.0007(4)
C1 C 0.4476(15) -0.2450(15) 0.2931(8)
C2 C 0.2851(10) -0.1141(9) 0.2374(5)
C3 C 0.2173(12) 0.0131(11) 0.3197(6)
C4 C 0.0675(11) 0.1421(10) 0.2820(6)
C5 C 0.0118(21) 0.2714(20) 0.3854(10)
C6 C 0.5268(11) 0.3270(10) 0.0557(6)
C7 C 0.2842(10) 0.4894(10) -0.0580(5)
H1 H 0.600(14) -0.185(13) 0.267(7)
H2 H 0.443(15) -0.382(15) 0.237(8)
H3 H 0.495(9) -0.225(8) 0.383(5)
H4 H 0.284(9) 0.020(9) 0.420(5)
H5 H 0.097(15) 0.308(14) 0.465(8)
H6 H -0.17(3) 0.19(3) 0.367(14)
H7 H -0.007(20) 0.385(19) 0.364(9)
H8 H 0.547(12) 0.221(12) 0.106(6)
H9 H 0.139(8) 0.467(7) -0.105(4)
O1A O -0.2244(6) 0.1363(6) -0.1204(3)
C2A C -0.2851(10) 0.1141(9) -0.2374(5)
C1A C -0.4476(15) 0.2450(15) -0.2931(8)
H1A H -0.600(14) 0.185(13) -0.267(7)
H2A H -0.443(15) 0.382(15) -0.237(8)
H3A H -0.495(9) 0.225(8) -0.383(5)
C3A C -0.2173(12) -0.0131(11) -0.3197(6)
C4A C -0.0675(11) -0.1421(10) -0.2820(6)
O2A O 0.0275(7) -0.1564(6) -0.1710(4)
C7A C 0.7158(10) 0.5106(10) 0.0580(5)
N1A N 0.6866(8) 0.6888(7) 0.0007(4)
Mn1A Mn 1.00000 1.00000 0.00000
C6A C 0.4732(11) 0.6730(10) -0.0557(6)
H9A H 0.861(8) 0.533(7) 0.105(4)
N1A_2 N -0.3134(8) -0.3112(7) 0.0007(4)
C5A C -0.0118(21) -0.2714(20) -0.3854(10)
H5A H -0.097(15) -0.308(14) -0.465(8)
H6A H 0.17(3) -0.19(3) -0.367(14)
H7A H 0.007(20) -0.385(19) -0.364(9)
H4A H -0.284(9) -0.020(9) -0.420(5)
H8A H 0.453(12) 0.779(12) -0.106(6)
loop_
_geom_bond_atom_site_label_1
_geom_bond_atom_site_label_2
_geom_bond_site_symmetry_1
_geom_bond_site_symmetry_2
Mn1 O1 1_555 1_555
O1 C2 1_555 1_555
O2 Mn1 1_555 1_555
N1 Mn1 1_555 1_555
C1 C2 1_555 1_555
C2 C3 1_555 1_555
C3 C4 1_555 1_555
C4 O2 1_555 1_555
C5 C4 1_555 1_555
C6 N1 1_555 1_555
C7 N1 1_555 1_555
H1 C1 1_555 1_555
H2 C1 1_555 1_555
H3 C1 1_555 1_555
H4 C3 1_555 1_555
H5 C5 1_555 1_555
H6 C5 1_555 1_555
H7 C5 1_555 1_555
H8 C6 1_555 1_555
H9 C7 1_555 1_555
O1A Mn1 1_555 1_555
C2A O1A 1_555 1_555
C1A C2A 1_555 1_555
H1A C1A 1_555 1_555
H2A C1A 1_555 1_555
H3A C1A 1_555 1_555
C3A C2A 1_555 1_555
C4A C3A 1_555 1_555
O2A Mn1 1_555 1_555
C7A C6 1_555 1_555
N1A C7A 1_555 1_555
Mn1A N1A 1_555 1_555
C6A C7 1_555 1_555
H9A C7A 1_555 1_555
N1A_2 Mn1 1_555 1_555
C5A C4A 1_555 1_555
H5A C5A 1_555 1_555
H6A C5A 1_555 1_555
H7A C5A 1_555 1_555
H4A C3A 1_555 1_555
H8A C6A 1_555 1_555
C4A O2A 1_555 1_555
N1A C6A 1_555 1_555

#END
