
#######################################################################
#
#                 Cambridge Crystallographic Data Centre
#                                CCDC 
#
#######################################################################
#
# If this CIF has been generated from an entry in the Cambridge 
# Structural Database, then it will include bibliographic, chemical, 
# crystal, experimental, refinement or atomic coordinate data resulting 
# from the CCDC's data processing and validation procedures.
#
#######################################################################

data_JUSZUU
_symmetry_cell_setting           triclinic
_symmetry_space_group_name_H-M   'P -1'
_symmetry_Int_Tables_number      2
_space_group_name_Hall           '-P 1'
loop_
_symmetry_equiv_pos_site_id
_symmetry_equiv_pos_as_xyz
1 x,y,z
2 -x,-y,-z
_cell_length_a                   10.0369(10)
_cell_length_b                   11.3213(11)
_cell_length_c                   11.3958(11)
_cell_angle_alpha                105.6140(10)
_cell_angle_beta                 95.9930(10)
_cell_angle_gamma                108.2340(10)
_cell_volume                     1159.05
loop_
_atom_site_label
_atom_site_type_symbol
_atom_site_fract_x
_atom_site_fract_y
_atom_site_fract_z
Zn1 Zn 0.22347(3) 0.35604(3) 0.64741(3)
Zn2 Zn 0.24960(3) 0.65070(3) 1.30232(3)
O1 O 0.4349(2) 0.64848(18) 1.25383(19)
O2 O 0.0249(2) 0.30418(19) 0.70860(17)
N1 N 0.2981(2) 0.5296(2) 0.8010(2)
N2 N -0.1230(2) -0.1878(2) 0.5113(2)
O3 O 0.1525(2) 0.46530(19) 1.27313(19)
O4 O -0.1409(2) 0.3054(2) 0.82219(18)
O5 O 0.3939(2) 0.4142(2) 0.55948(19)
H1 H 0.4686 0.4655 0.6141
H2 H 0.3728 0.4539 0.5109
O6 O 0.2992(3) 0.3597(2) 1.3098(2)
C1 C -0.0264(3) 0.2868(3) 0.7999(2)
C2 C 0.5435(3) 0.7433(3) 1.2552(2)
O7 O 0.1372(3) 0.4732(2) 0.5446(2)
H3 H 0.0973 0.4257 0.4684
H4 H 0.2066 0.5414 0.5448
C3 C 0.0458(3) 0.2427(3) 0.8932(2)
C4 C -0.1977(3) -0.1180(3) 0.5679(3)
H5 H -0.2936 -0.1415 0.5318
C5 C -0.1405(3) -0.0134(3) 0.6764(3)
H6 H -0.1958 0.0341 0.7100
C6 C 0.0012(3) 0.0203(3) 0.7353(2)
C7 C 0.0643(3) 0.1205(3) 0.8602(2)
C8 C 0.0930(3) 0.3257(3) 1.0163(3)
H7 H 0.0780 0.4051 1.0382
C9 C 0.1622(3) 0.2909(3) 1.1066(2)
C10 C 0.2110(3) 0.3781(3) 1.2409(3)
C11 C 0.1356(3) 0.0886(3) 0.9516(3)
H8 H 0.1508 0.0092 0.9305
C12 C 0.1845(3) 0.1721(3) 1.0731(3)
H9 H 0.2324 0.1488 1.1324
C13 C 0.0780(3) -0.0526(3) 0.6773(3)
H10 H 0.1726 -0.0344 0.7135
C14 C 0.4293(3) 0.5691(3) 0.8724(3)
H11 H 0.4882 0.5214 0.8494
C15 C 0.2178(3) 0.6037(3) 0.8347(3)
H12 H 0.1277 0.5794 0.7853
C16 C 0.0141(3) -0.1521(3) 0.5661(3)
H13 H 0.0693 -0.1967 0.5272
O8 O 0.66945(19) 0.74594(19) 1.27055(18)
C17 C 0.5216(3) 0.8653(3) 1.2408(2)
C18 C 0.4477(3) 0.8683(3) 1.1303(2)
C19 C 0.4803(3) 0.6774(3) 0.9786(3)
H14 H 0.5715 0.7004 1.0256
C20 C 0.2622(3) 0.7135(3) 0.9387(3)
H15 H 0.2031 0.7618 0.9576
C21 C 0.3964(3) 0.7520(3) 1.0157(2)
C22 C 0.5749(3) 0.9776(3) 1.3440(3)
H16 H 0.6221 0.9747 1.4173
C23 C 0.5596(3) 1.0939(3) 1.3401(2)
O9 O 0.6118(3) 1.3181(2) 1.4493(3)
C24 C 0.4310(3) 0.9856(3) 1.1283(3)
H17 H 0.3816 0.9887 1.0561
C25 C 0.6260(3) 1.2152(3) 1.4519(3)
C26 C 0.4866(3) 1.0977(3) 1.2319(3)
H18 H 0.4749 1.1751 1.2286
O10 O 0.6943(2) 1.2027(2) 1.54536(19)
Zn1A Zn -0.22347(3) -0.35604(3) 0.35259(3)
Zn1A_2 Zn 0.77653(3) 0.64396(3) 1.35259(3)
Zn2A Zn -0.24960(3) 0.34930(3) 0.69768(3)
Zn2A_2 Zn 0.75040(3) 1.34930(3) 1.69768(3)
N2A N 0.1230(2) 0.1878(2) 0.4887(2)
O4A O 0.1409(2) 0.6946(2) 1.17781(18)
O8A O 0.33055(19) 0.25406(19) 0.72945(18)
O10A O 0.3057(2) 0.7973(2) 1.45464(19)
loop_
_geom_bond_atom_site_label_1
_geom_bond_atom_site_label_2
_geom_bond_site_symmetry_1
_geom_bond_site_symmetry_2
Zn1 O2 1_555 1_555
Zn2 O1 1_555 1_555
O1 C2 1_555 1_555
O2 C1 1_555 1_555
N1 Zn1 1_555 1_555
N2 C4 1_555 1_555
O3 Zn2 1_555 1_555
O4 C1 1_555 1_555
O5 Zn1 1_555 1_555
H1 O5 1_555 1_555
H2 O5 1_555 1_555
O6 C10 1_555 1_555
C1 C3 1_555 1_555
C2 O8 1_555 1_555
O7 Zn1 1_555 1_555
H3 O7 1_555 1_555
H4 O7 1_555 1_555
C3 C7 1_555 1_555
C4 H5 1_555 1_555
C5 C4 1_555 1_555
H6 C5 1_555 1_555
C6 C5 1_555 1_555
C7 C6 1_555 1_555
C8 C3 1_555 1_555
H7 C8 1_555 1_555
C9 C8 1_555 1_555
C10 O3 1_555 1_555
C11 C7 1_555 1_555
H8 C11 1_555 1_555
C12 C9 1_555 1_555
H9 C12 1_555 1_555
C13 C6 1_555 1_555
H10 C13 1_555 1_555
C14 N1 1_555 1_555
H11 C14 1_555 1_555
C15 N1 1_555 1_555
H12 C15 1_555 1_555
C16 N2 1_555 1_555
H13 C16 1_555 1_555
O8 Zn1A_2 1_555 1_555
C17 C2 1_555 1_555
C18 C17 1_555 1_555
C19 C14 1_555 1_555
H14 C19 1_555 1_555
C20 C15 1_555 1_555
H15 C20 1_555 1_555
C21 C18 1_555 1_555
C22 C17 1_555 1_555
H16 C22 1_555 1_555
C23 C22 1_555 1_555
O9 C25 1_555 1_555
C24 C18 1_555 1_555
H17 C24 1_555 1_555
C25 C23 1_555 1_555
C26 C23 1_555 1_555
H18 C26 1_555 1_555
O10 C25 1_555 1_555
Zn1A N2 1_555 1_555
Zn2A O4 1_555 1_555
Zn2A_2 O10 1_555 1_555
N2A Zn1 1_555 1_555
O4A Zn2 1_555 1_555
O8A Zn1 1_555 1_555
O10A Zn2 1_555 1_555
C9 C10 1_555 1_555
C11 C12 1_555 1_555
C13 C16 1_555 1_555
C19 C21 1_555 1_555
C20 C21 1_555 1_555
C24 C26 1_555 1_555

#END
