
#######################################################################
#
#                 Cambridge Crystallographic Data Centre
#                                CCDC 
#
#######################################################################
#
# If this CIF has been generated from an entry in the Cambridge 
# Structural Database, then it will include bibliographic, chemical, 
# crystal, experimental, refinement or atomic coordinate data resulting 
# from the CCDC's data processing and validation procedures.
#
#######################################################################

data_JUTCUY
_symmetry_cell_setting           monoclinic
_symmetry_space_group_name_H-M   'C 2/c'
_symmetry_Int_Tables_number      15
_space_group_name_Hall           '-C 2yn'
loop_
_symmetry_equiv_pos_site_id
_symmetry_equiv_pos_as_xyz
1 x,y,z
2 -x,y,1/2-z
3 1/2+x,1/2+y,z
4 1/2-x,1/2+y,1/2-z
5 -x,-y,-z
6 x,-y,1/2+z
7 1/2-x,1/2-y,-z
8 1/2+x,1/2-y,1/2+z
_cell_length_a                   16.6013(6)
_cell_length_b                   13.2647(4)
_cell_length_c                   29.6078(8)
_cell_angle_alpha                90
_cell_angle_beta                 92.656(3)
_cell_angle_gamma                90
_cell_volume                     6512.97
loop_
_atom_site_label
_atom_site_type_symbol
_atom_site_fract_x
_atom_site_fract_y
_atom_site_fract_z
C1 C 0.6844(4) 0.8322(4) 0.63510(16)
C2 C 0.6779(4) 0.8586(4) 0.68440(16)
C3 C 0.6824(5) 0.7844(4) 0.71721(18)
H1 H 0.6875 0.7170 0.7091
C4 C 0.6791(5) 0.8110(5) 0.76211(18)
C5 C 0.6753(4) 0.9113(5) 0.77607(18)
C6 C 0.6712(4) 0.9841(4) 0.74253(17)
H2 H 0.6683 1.0517 0.7506
C7 C 0.6713(4) 0.9583(4) 0.69733(17)
H3 H 0.6669 1.0084 0.6754
C8 C 0.6764(4) 0.9491(4) 0.82432(16)
C9 C 0.7473(5) 0.9618(6) 0.8514(2)
C10 C 0.7461(4) 1.0001(5) 0.89528(19)
H4 H 0.7940 1.0083 0.9125
C11 C 0.6748(4) 1.0251(4) 0.91271(15)
C12 C 0.6048(4) 1.0190(5) 0.88599(17)
H5 H 0.5563 1.0404 0.8973
C13 C 0.6062(4) 0.9810(5) 0.84217(18)
H6 H 0.5583 0.9772 0.8246
C14 C 0.6732(4) 1.0616(4) 0.96127(16)
C15 C 0.8751(3) 0.8797(4) 0.59134(16)
C16 C 0.9118(3) 0.8719(4) 0.63842(16)
C17 C 0.9658(4) 0.7957(4) 0.64933(17)
H7 H 0.9795 0.7492 0.6275
C18 C 0.9992(4) 0.7884(5) 0.69246(18)
C19 C 0.9811(4) 0.8562(4) 0.72647(15)
C20 C 0.9276(4) 0.9324(4) 0.71468(17)
H8 H 0.9147 0.9794 0.7365
C21 C 0.8924(4) 0.9414(4) 0.67135(17)
H9 H 0.8563 0.9934 0.6645
C22 C 0.9401(4) 0.9042(5) 0.4629(3)
H10 H 0.9119 0.9527 0.4785
C23 C 0.9953(6) 0.9349(7) 0.4334(4)
H11 H 1.0043 1.0032 0.4286
C24 C 1.0375(5) 0.8630(7) 0.4108(3)
H12 H 1.0756 0.8826 0.3904
C25 C 1.0238(5) 0.7655(6) 0.4179(2)
H13 H 1.0517 0.7162 0.4027
C26 C 0.9673(4) 0.7397(5) 0.4486(2)
H14 H 0.9583 0.6718 0.4544
C27 C 0.7300(5) 1.1412(6) 0.5585(5)
H15 H 0.7841 1.1231 0.5614
C28 C 0.7098(7) 1.2424(7) 0.5600(7)
H16 H 0.7497 1.2914 0.5634
C29 C 0.6319(6) 1.2687(6) 0.5564(4)
H17 H 0.6170 1.3361 0.5578
C30 C 0.5749(5) 1.1959(6) 0.5507(2)
H18 H 0.5204 1.2121 0.5477
C31 C 0.6005(4) 1.0975(5) 0.5495(2)
H19 H 0.5617 1.0472 0.5458
N1 N 0.9249(3) 0.8087(3) 0.47028(13)
N2 N 0.6761(3) 1.0703(3) 0.55319(14)
N3 N 0.6809(5) 0.7276(5) 0.79540(17)
N4 N 0.8238(5) 0.9335(9) 0.8358(2)
N5 N 1.0565(5) 0.7073(6) 0.7009(2)
O1 O 0.6635(3) 0.9026(3) 0.60747(11)
O2 O 0.7106(3) 0.7481(3) 0.62480(11)
O3 O 0.6122(3) 1.0996(3) 0.97502(11)
O4 O 0.7387(2) 1.0483(3) 0.98518(11)
O5 O 0.8293(2) 0.9502(3) 0.58178(12)
O6 O 0.8962(2) 0.8102(3) 0.56428(11)
O7 O 0.7324(3) 0.7811(3) 0.53910(12)
O8 O 0.6913(5) 0.6453(4) 0.78342(17)
O9 O 0.6676(7) 0.7460(5) 0.83402(18)
O10 O 0.8270(6) 0.8735(17) 0.8060(3)
O11 O 0.8824(5) 0.9583(9) 0.8534(4)
O12 O 1.0675(5) 0.6470(5) 0.6710(2)
O13 O 1.0915(8) 0.7020(8) 0.7364(2)
Cu1 Cu 0.83558(4) 0.77659(5) 0.50983(2)
Cu2 Cu 0.70939(5) 0.92615(5) 0.54893(2)
H20 H 0.715(7) 0.772(9) 0.548(4)
C15A C 1.1249(3) 0.8797(4) 0.90866(16)
C16A C 1.0882(3) 0.8719(4) 0.86158(16)
C17A C 1.0342(4) 0.7957(4) 0.85067(17)
H7A H 1.0205 0.7492 0.8725
C18A C 1.0008(4) 0.7884(5) 0.80754(18)
C19A C 1.0189(4) 0.8562(4) 0.77353(15)
C20A C 1.0724(4) 0.9324(4) 0.78532(17)
H8A H 1.0853 0.9794 0.7635
C21A C 1.1076(4) 0.9414(4) 0.82865(17)
H9A H 1.1437 0.9934 0.8355
N5A N 0.9435(5) 0.7073(6) 0.7991(2)
O5A O 1.1707(2) 0.9502(3) 0.91822(12)
O6A O 1.1038(2) 0.8102(3) 0.93572(11)
O12A O 0.9325(5) 0.6470(5) 0.8290(2)
O13A O 0.9085(8) 0.7020(8) 0.7636(2)
C1A C 1.3156(4) 0.8322(4) 0.86490(16)
C2A C 1.3221(4) 0.8586(4) 0.81560(16)
C3A C 1.3176(5) 0.7844(4) 0.78279(18)
H1A H 1.3125 0.7170 0.7909
C4A C 1.3209(5) 0.8110(5) 0.73789(18)
C5A C 1.3247(4) 0.9113(5) 0.72393(18)
C6A C 1.3288(4) 0.9841(4) 0.75747(17)
H2A H 1.3317 1.0517 0.7494
C7A C 1.3287(4) 0.9583(4) 0.80267(17)
H3A H 1.3331 1.0084 0.8246
C8A C 1.3236(4) 0.9491(4) 0.67568(16)
C9A C 1.2527(5) 0.9618(6) 0.6486(2)
C10A C 1.2539(4) 1.0001(5) 0.60472(19)
H4A H 1.2060 1.0083 0.5875
C11A C 1.3252(4) 1.0251(4) 0.58729(15)
C12A C 1.3952(4) 1.0190(5) 0.61401(17)
H5A H 1.4437 1.0404 0.6027
C13A C 1.3938(4) 0.9810(5) 0.65783(18)
H6A H 1.4417 0.9772 0.6754
C14A C 1.3268(4) 1.0616(4) 0.53873(16)
C22A C 1.0599(4) 0.9042(5) 1.0371(3)
H10A H 1.0881 0.9527 1.0215
C23A C 1.0047(6) 0.9349(7) 1.0666(4)
H11A H 0.9957 1.0032 1.0714
C24A C 0.9625(5) 0.8630(7) 1.0892(3)
H12A H 0.9244 0.8826 1.1096
C25A C 0.9762(5) 0.7655(6) 1.0821(2)
H13A H 0.9483 0.7162 1.0973
C26A C 1.0327(4) 0.7397(5) 1.0514(2)
H14A H 1.0417 0.6718 1.0456
C27A C 1.2700(5) 1.1412(6) 0.9415(5)
H15A H 1.2159 1.1231 0.9386
C28A C 1.2902(7) 1.2424(7) 0.9400(7)
H16A H 1.2503 1.2914 0.9366
C29A C 1.3681(6) 1.2687(6) 0.9436(4)
H17A H 1.3830 1.3361 0.9422
C30A C 1.4251(5) 1.1959(6) 0.9493(2)
H18A H 1.4796 1.2121 0.9523
C31A C 1.3995(4) 1.0975(5) 0.9505(2)
H19A H 1.4383 1.0472 0.9542
N1A N 1.0751(3) 0.8087(3) 1.02972(13)
N2A N 1.3239(3) 1.0703(3) 0.94681(14)
N3A N 1.3191(5) 0.7276(5) 0.70460(17)
N4A N 1.1762(5) 0.9335(9) 0.6642(2)
O1A O 1.3365(3) 0.9026(3) 0.89253(11)
O2A O 1.2894(3) 0.7481(3) 0.87520(11)
O3A O 1.3878(3) 1.0996(3) 0.52498(11)
O4A O 1.2613(2) 1.0483(3) 0.51482(11)
O7A O 1.2676(3) 0.7811(3) 0.96090(12)
O8A O 1.3087(5) 0.6453(4) 0.71658(17)
O9A O 1.3324(7) 0.7460(5) 0.66598(18)
O10A O 1.1730(6) 0.8735(17) 0.6940(3)
O11A O 1.1176(5) 0.9583(9) 0.6466(4)
Cu1A Cu 1.16442(4) 0.77659(5) 0.99017(2)
Cu2A Cu 1.29061(5) 0.92615(5) 0.95107(2)
H20A H 1.285(7) 0.772(9) 0.952(4)
O3B O 1.1122(3) 0.5996(3) 0.97502(11)
O3C O 0.8878(3) 0.5996(3) 0.52498(11)
O3D O 1.3878(3) 0.9004(3) 1.02498(11)
O3E O 0.6122(3) 0.9004(3) 0.47502(11)
O4D O 1.2613(2) 0.9517(3) 1.01482(11)
O4E O 0.7387(2) 0.9517(3) 0.48518(11)
O7F O 0.7676(3) 0.7189(3) 0.46090(12)
O7G O 1.2324(3) 0.7189(3) 1.03910(12)
Cu1B Cu 1.33558(4) 1.27659(5) 0.50983(2)
Cu1C Cu 0.66442(4) 1.27659(5) 0.99017(2)
Cu1F Cu 0.66442(4) 0.72341(5) 0.49017(2)
Cu1G Cu 1.33558(4) 0.72341(5) 1.00983(2)
Cu2D Cu 1.29061(5) 1.07385(5) 0.45107(2)
Cu2E Cu 0.70939(5) 1.07385(5) 1.04893(2)
loop_
_geom_bond_atom_site_label_1
_geom_bond_atom_site_label_2
_geom_bond_site_symmetry_1
_geom_bond_site_symmetry_2
C1 C2 1_555 1_555
C2 C3 1_555 1_555
C3 H1 1_555 1_555
C4 C3 1_555 1_555
C5 C4 1_555 1_555
C6 C5 1_555 1_555
H2 C6 1_555 1_555
C7 C2 1_555 1_555
H3 C7 1_555 1_555
C8 C5 1_555 1_555
C9 C8 1_555 1_555
C10 C9 1_555 1_555
H4 C10 1_555 1_555
C11 C10 1_555 1_555
C12 C11 1_555 1_555
H5 C12 1_555 1_555
C13 C8 1_555 1_555
H6 C13 1_555 1_555
C14 C11 1_555 1_555
C15 C16 1_555 1_555
C16 C17 1_555 1_555
C17 H7 1_555 1_555
C18 C17 1_555 1_555
C19 C18 1_555 1_555
C20 C19 1_555 1_555
H8 C20 1_555 1_555
C21 C16 1_555 1_555
H9 C21 1_555 1_555
C22 H10 1_555 1_555
C23 C22 1_555 1_555
H11 C23 1_555 1_555
C24 C23 1_555 1_555
H12 C24 1_555 1_555
C25 C24 1_555 1_555
H13 C25 1_555 1_555
C26 C25 1_555 1_555
H14 C26 1_555 1_555
C27 H15 1_555 1_555
C28 C27 1_555 1_555
H16 C28 1_555 1_555
C29 C28 1_555 1_555
H17 C29 1_555 1_555
C30 C29 1_555 1_555
H18 C30 1_555 1_555
C31 C30 1_555 1_555
H19 C31 1_555 1_555
N1 C22 1_555 1_555
N2 C27 1_555 1_555
N3 C4 1_555 1_555
N4 C9 1_555 1_555
N5 C18 1_555 1_555
O1 C1 1_555 1_555
O2 C1 1_555 1_555
O3 C14 1_555 1_555
O4 C14 1_555 1_555
O5 C15 1_555 1_555
O6 C15 1_555 1_555
O7 Cu1 1_555 1_555
O8 N3 1_555 1_555
O9 N3 1_555 1_555
O10 N4 1_555 1_555
O11 N4 1_555 1_555
O12 N5 1_555 1_555
O13 N5 1_555 1_555
Cu1 N1 1_555 1_555
Cu2 N2 1_555 1_555
H20 O7 1_555 1_555
C15A C16A 1_555 1_555
C16A C17A 1_555 1_555
C17A H7A 1_555 1_555
C18A C17A 1_555 1_555
C19A C19 1_555 1_555
C20A C19A 1_555 1_555
H8A C20A 1_555 1_555
C21A C16A 1_555 1_555
H9A C21A 1_555 1_555
N5A C18A 1_555 1_555
O5A C15A 1_555 1_555
O6A C15A 1_555 1_555
O12A N5A 1_555 1_555
O13A N5A 1_555 1_555
C1A C2A 1_555 1_555
C2A C3A 1_555 1_555
C3A H1A 1_555 1_555
C4A C3A 1_555 1_555
C5A C4A 1_555 1_555
C6A C5A 1_555 1_555
H2A C6A 1_555 1_555
C7A C2A 1_555 1_555
H3A C7A 1_555 1_555
C8A C5A 1_555 1_555
C9A C8A 1_555 1_555
C10A C9A 1_555 1_555
H4A C10A 1_555 1_555
C11A C10A 1_555 1_555
C12A C11A 1_555 1_555
H5A C12A 1_555 1_555
C13A C8A 1_555 1_555
H6A C13A 1_555 1_555
C14A C11A 1_555 1_555
C22A H10A 1_555 1_555
C23A C22A 1_555 1_555
H11A C23A 1_555 1_555
C24A C23A 1_555 1_555
H12A C24A 1_555 1_555
C25A C24A 1_555 1_555
H13A C25A 1_555 1_555
C26A C25A 1_555 1_555
H14A C26A 1_555 1_555
C27A H15A 1_555 1_555
C28A C27A 1_555 1_555
H16A C28A 1_555 1_555
C29A C28A 1_555 1_555
H17A C29A 1_555 1_555
C30A C29A 1_555 1_555
H18A C30A 1_555 1_555
C31A C30A 1_555 1_555
H19A C31A 1_555 1_555
N1A C22A 1_555 1_555
N2A C27A 1_555 1_555
N3A C4A 1_555 1_555
N4A C9A 1_555 1_555
O1A C1A 1_555 1_555
O2A C1A 1_555 1_555
O3A C14A 1_555 1_555
O4A C14A 1_555 1_555
O7A Cu1A 1_555 1_555
O8A N3A 1_555 1_555
O9A N3A 1_555 1_555
O10A N4A 1_555 1_555
O11A N4A 1_555 1_555
Cu1A O6A 1_555 1_555
Cu2A O5A 1_555 1_555
H20A O7A 1_555 1_555
O3B Cu1A 1_555 1_555
O3C Cu1 1_555 1_555
O3D Cu2A 1_555 1_555
O3E Cu2 1_555 1_555
O4D Cu2A 1_555 1_555
O4E Cu2 1_555 1_555
O7F Cu1 1_555 1_555
O7G Cu1A 1_555 1_555
Cu1B O3A 1_555 1_555
Cu1C O3 1_555 1_555
Cu1F O7 1_555 1_555
Cu1G O7A 1_555 1_555
Cu2D O3A 1_555 1_555
Cu2E O3 1_555 1_555
C6 C7 1_555 1_555
C12 C13 1_555 1_555
C20 C21 1_555 1_555
C26 N1 1_555 1_555
C31 N2 1_555 1_555
O1 Cu2 1_555 1_555
O4 Cu2E 1_555 1_555
O5 Cu2 1_555 1_555
O6 Cu1 1_555 1_555
O7 Cu2 1_555 1_555
C18A C19A 1_555 1_555
C20A C21A 1_555 1_555
C6A C7A 1_555 1_555
C12A C13A 1_555 1_555
C26A N1A 1_555 1_555
C31A N2A 1_555 1_555
N1A Cu1A 1_555 1_555
N2A Cu2A 1_555 1_555
O1A Cu2A 1_555 1_555
O4A Cu2D 1_555 1_555
O7A Cu2A 1_555 1_555
O3D Cu1G 1_555 1_555
O3E Cu1F 1_555 1_555
O7F Cu1F 1_555 1_555
O7G Cu1G 1_555 1_555

#END
