
#######################################################################
#
#                 Cambridge Crystallographic Data Centre
#                                CCDC 
#
#######################################################################
#
# If this CIF has been generated from an entry in the Cambridge 
# Structural Database, then it will include bibliographic, chemical, 
# crystal, experimental, refinement or atomic coordinate data resulting 
# from the CCDC's data processing and validation procedures.
#
#######################################################################

data_JUTTOJ
_symmetry_cell_setting           monoclinic
_symmetry_space_group_name_H-M   'P 21/c'
_symmetry_Int_Tables_number      14
_space_group_name_Hall           '-P 2ybc'
loop_
_symmetry_equiv_pos_site_id
_symmetry_equiv_pos_as_xyz
1 x,y,z
2 -x,1/2+y,1/2-z
3 -x,-y,-z
4 x,1/2-y,1/2+z
_cell_length_a                   10.275(2)
_cell_length_b                   16.704(3)
_cell_length_c                   13.021(3)
_cell_angle_alpha                90
_cell_angle_beta                 102.80(3)
_cell_angle_gamma                90
_cell_volume                     2179.3
loop_
_atom_site_label
_atom_site_type_symbol
_atom_site_fract_x
_atom_site_fract_y
_atom_site_fract_z
Cd1 Cd 0.05887(4) 1.01168(2) 0.67955(3)
O1 O 0.1848(4) 0.9111(2) 0.6140(3)
O2 O 0.2850(4) 1.0278(2) 0.6524(3)
O3 O 0.7752(4) 1.0488(2) 0.6319(3)
O4 O 0.8804(4) 0.9356(2) 0.6137(3)
O5 O 0.5076(4) 0.7082(2) 0.4125(3)
O6 O 0.0208(4) 1.1122(2) 0.5571(3)
H1 H -0.0551 1.1091 0.5086
H2 H 0.0662 1.1083 0.5054
N1 N 0.5466(5) 0.7128(3) 0.5894(4)
H3 H 0.569(6) 0.689(3) 0.652(2)
N2 N 0.1293(4) 0.9428(3) 0.8382(3)
N3 N 0.0683(4) 1.1019(3) 0.8142(4)
C1 C 0.2877(5) 0.9552(3) 0.6269(4)
C2 C 0.4164(5) 0.9181(3) 0.6152(4)
C3 C 0.4216(5) 0.8350(3) 0.6041(4)
H4 H 0.3445 0.8034 0.6033
C4 C 0.5399(6) 0.7988(3) 0.5942(4)
C5 C 0.6525(6) 0.8447(3) 0.5955(4)
H5 H 0.7328 0.8197 0.5878
C6 C 0.6487(5) 0.9272(3) 0.6080(4)
C7 C 0.5300(5) 0.9640(3) 0.6181(4)
H6 H 0.5269 1.0204 0.6269
C8 C 0.7754(5) 0.9750(3) 0.6175(4)
C9 C 0.5251(5) 0.6729(3) 0.4977(4)
C10 C 0.5167(5) 0.5832(3) 0.5022(4)
C11 C 0.4751(5) 0.5431(3) 0.4071(4)
H7 H 0.4582 0.5725 0.3431
C12 C 0.4581(5) 0.4604(3) 0.4044(4)
H8 H 0.4293 0.4338 0.3389
C13 C 0.1561(5) 0.8650(3) 0.8500(4)
H9 H 0.1472 0.8329 0.7887
C14 C 0.1968(5) 0.8284(3) 0.9481(4)
H10 H 0.2120 0.7723 0.9529
C15 C 0.2146(5) 0.8743(3) 1.0378(5)
H11 H 0.2434 0.8506 1.1053
C16 C 0.1893(5) 0.9577(4) 1.0277(4)
C17 C 0.2096(6) 1.0101(4) 1.1168(4)
H12 H 0.2418 0.9889 1.1854
C18 C 0.1836(6) 1.0891(4) 1.1050(4)
H13 H 0.1985 1.1227 1.1654
C19 C 0.1340(5) 1.1231(3) 1.0028(4)
C20 C 0.1000(6) 1.2047(3) 0.9865(5)
H14 H 0.1126 1.2405 1.0446
C21 C 0.0488(6) 1.2319(3) 0.8869(5)
H15 H 0.0222 1.2863 0.8752
C22 C 0.0359(6) 1.1788(3) 0.8023(5)
H16 H 0.0025 1.1987 0.7331
C23 C 0.1156(5) 1.0736(3) 0.9135(4)
C24 C 0.1453(5) 0.9889(3) 0.9264(4)
O1B O 0.8152(4) 0.0889(2) 0.3860(3)
O2B O 0.7150(4) -0.0278(2) 0.3476(3)
O3B O 0.2248(4) -0.0488(2) 0.3681(3)
O4B O 0.1196(4) 0.0644(2) 0.3863(3)
O5B O 0.4924(4) 0.2918(2) 0.5875(3)
N1B N 0.4534(5) 0.2872(3) 0.4106(4)
H3B H 0.431(6) 0.311(3) 0.348(2)
C1B C 0.7123(5) 0.0448(3) 0.3731(4)
C2B C 0.5836(5) 0.0819(3) 0.3848(4)
C3B C 0.5784(5) 0.1650(3) 0.3959(4)
H4B H 0.6555 0.1966 0.3967
C4B C 0.4601(6) 0.2012(3) 0.4058(4)
C5B C 0.3475(6) 0.1553(3) 0.4045(4)
H5B H 0.2672 0.1803 0.4122
C6B C 0.3513(5) 0.0728(3) 0.3920(4)
C7B C 0.4700(5) 0.0360(3) 0.3819(4)
H6B H 0.4731 -0.0204 0.3731
C8B C 0.2246(5) 0.0250(3) 0.3825(4)
C9B C 0.4749(5) 0.3271(3) 0.5023(4)
C10B C 0.4833(5) 0.4168(3) 0.4978(4)
C11B C 0.5249(5) 0.4569(3) 0.5929(4)
H7B H 0.5418 0.4275 0.6569
C12B C 0.5419(5) 0.5396(3) 0.5956(4)
H8B H 0.5707 0.5662 0.6611
Cd1B Cd -0.05887(4) -0.01168(2) 0.32045(3)
O6B O -0.0208(4) -0.1122(2) 0.4429(3)
H1B H 0.0551 -0.1091 0.4914
H2B H -0.0662 -0.1083 0.4946
N2B N -0.1293(4) 0.0572(3) 0.1618(3)
N3B N -0.0683(4) -0.1019(3) 0.1858(4)
C13B C -0.1561(5) 0.1350(3) 0.1500(4)
H9B H -0.1472 0.1671 0.2113
C14B C -0.1968(5) 0.1716(3) 0.0519(4)
H10B H -0.2120 0.2277 0.0471
C15B C -0.2146(5) 0.1257(3) -0.0378(5)
H11B H -0.2434 0.1494 -0.1053
C16B C -0.1893(5) 0.0423(4) -0.0277(4)
C17B C -0.2096(6) -0.0101(4) -0.1168(4)
H12B H -0.2418 0.0111 -0.1854
C18B C -0.1836(6) -0.0891(4) -0.1050(4)
H13B H -0.1985 -0.1227 -0.1654
C19B C -0.1340(5) -0.1231(3) -0.0028(4)
C20B C -0.1000(6) -0.2047(3) 0.0135(5)
H14B H -0.1126 -0.2405 -0.0446
C21B C -0.0488(6) -0.2319(3) 0.1131(5)
H15B H -0.0222 -0.2863 0.1248
C22B C -0.0359(6) -0.1788(3) 0.1977(5)
H16B H -0.0025 -0.1987 0.2669
C23B C -0.1156(5) -0.0736(3) 0.0865(4)
C24B C -0.1453(5) 0.0111(3) 0.0736(4)
Cd1_2 Cd 1.05887(4) 1.01168(2) 0.67955(3)
Cd1B_2 Cd 0.94113(4) -0.01168(2) 0.32045(3)
O1B_2 O -0.1848(4) 0.0889(2) 0.3860(3)
O2B_2 O -0.2850(4) -0.0278(2) 0.3476(3)
O4_2 O -0.1196(4) 0.9356(2) 0.6137(3)
O7 O 0.7075(5) 0.1950(3) 0.7149(4)
H17 H 0.7082 0.1481 0.6800
H18 H 0.6369 0.2221 0.6761
O8 O 0.3478(6) 0.1877(3) 0.6935(4)
H19 H 0.3469 0.1378 0.6614
H20 H 0.3795 0.2145 0.6436
loop_
_geom_bond_atom_site_label_1
_geom_bond_atom_site_label_2
_geom_bond_site_symmetry_1
_geom_bond_site_symmetry_2
Cd1 O1 1_555 1_555
O1 C1 1_555 1_555
O2 Cd1 1_555 1_555
O3 C8 1_555 1_555
O4 C8 1_555 1_555
O5 C9 1_555 1_555
O6 Cd1 1_555 1_555
H1 O6 1_555 1_555
H2 O6 1_555 1_555
N1 H3 1_555 1_555
N2 Cd1 1_555 1_555
N3 Cd1 1_555 1_555
C1 O2 1_555 1_555
C2 C1 1_555 1_555
C3 C2 1_555 1_555
H4 C3 1_555 1_555
C4 N1 1_555 1_555
C5 C4 1_555 1_555
H5 C5 1_555 1_555
C6 C5 1_555 1_555
C7 C2 1_555 1_555
H6 C7 1_555 1_555
C8 C6 1_555 1_555
C9 N1 1_555 1_555
C10 C9 1_555 1_555
C11 C10 1_555 1_555
H7 C11 1_555 1_555
C12 C11 1_555 1_555
H8 C12 1_555 1_555
C13 N2 1_555 1_555
H9 C13 1_555 1_555
C14 C13 1_555 1_555
H10 C14 1_555 1_555
C15 C14 1_555 1_555
H11 C15 1_555 1_555
C16 C15 1_555 1_555
C17 C16 1_555 1_555
H12 C17 1_555 1_555
C18 C17 1_555 1_555
H13 C18 1_555 1_555
C19 C18 1_555 1_555
C20 C19 1_555 1_555
H14 C20 1_555 1_555
C21 C20 1_555 1_555
H15 C21 1_555 1_555
C22 N3 1_555 1_555
H16 C22 1_555 1_555
C23 N3 1_555 1_555
C24 N2 1_555 1_555
O7 H17 1_555 1_555
H18 O7 1_555 1_555
O8 H19 1_555 1_555
H20 O8 1_555 1_555
O1B C1B 1_555 1_555
O2B C1B 1_555 1_555
O3B C8B 1_555 1_555
O4B C8B 1_555 1_555
O5B C9B 1_555 1_555
N1B H3B 1_555 1_555
C1B C2B 1_555 1_555
C2B C3B 1_555 1_555
C3B H4B 1_555 1_555
C4B N1B 1_555 1_555
C5B C4B 1_555 1_555
H5B C5B 1_555 1_555
C6B C5B 1_555 1_555
C7B C2B 1_555 1_555
H6B C7B 1_555 1_555
C8B C6B 1_555 1_555
C9B N1B 1_555 1_555
C10B C12 1_555 1_555
C11B C10B 1_555 1_555
H7B C11B 1_555 1_555
C12B C10 1_555 1_555
H8B C12B 1_555 1_555
Cd1B O4B 1_555 1_555
O6B Cd1B 1_555 1_555
H1B O6B 1_555 1_555
H2B O6B 1_555 1_555
N2B Cd1B 1_555 1_555
N3B Cd1B 1_555 1_555
C13B N2B 1_555 1_555
H9B C13B 1_555 1_555
C14B C13B 1_555 1_555
H10B C14B 1_555 1_555
C15B C14B 1_555 1_555
H11B C15B 1_555 1_555
C16B C15B 1_555 1_555
C17B C16B 1_555 1_555
H12B C17B 1_555 1_555
C18B C17B 1_555 1_555
H13B C18B 1_555 1_555
C19B C18B 1_555 1_555
C20B C19B 1_555 1_555
H14B C20B 1_555 1_555
C21B C20B 1_555 1_555
H15B C21B 1_555 1_555
C22B N3B 1_555 1_555
H16B C22B 1_555 1_555
C23B N3B 1_555 1_555
C24B N2B 1_555 1_555
Cd1_2 O4 1_555 1_555
Cd1B_2 O1B 1_555 1_555
O1B_2 Cd1B 1_555 1_555
O2B_2 Cd1B 1_555 1_555
O4_2 Cd1 1_555 1_555
C3 C4 1_555 1_555
C6 C7 1_555 1_555
C16 C24 1_555 1_555
C19 C23 1_555 1_555
C21 C22 1_555 1_555
C23 C24 1_555 1_555
O2B Cd1B_2 1_555 1_555
C3B C4B 1_555 1_555
C6B C7B 1_555 1_555
C9B C10B 1_555 1_555
C11B C12B 1_555 1_555
C16B C24B 1_555 1_555
C19B C23B 1_555 1_555
C21B C22B 1_555 1_555
C23B C24B 1_555 1_555

#END
