
#######################################################################
#
#                 Cambridge Crystallographic Data Centre
#                                CCDC 
#
#######################################################################
#
# If this CIF has been generated from an entry in the Cambridge 
# Structural Database, then it will include bibliographic, chemical, 
# crystal, experimental, refinement or atomic coordinate data resulting 
# from the CCDC's data processing and validation procedures.
#
#######################################################################

data_JUVYUU
_symmetry_cell_setting           monoclinic
_symmetry_space_group_name_H-M   'P 21/c'
_symmetry_Int_Tables_number      14
_space_group_name_Hall           '-P 2ybc'
loop_
_symmetry_equiv_pos_site_id
_symmetry_equiv_pos_as_xyz
1 x,y,z
2 -x,1/2+y,1/2-z
3 -x,-y,-z
4 x,1/2-y,1/2+z
_cell_length_a                   7.723(1)
_cell_length_b                   12.995(4)
_cell_length_c                   7.276(3)
_cell_angle_alpha                90
_cell_angle_beta                 100.24(2)
_cell_angle_gamma                90
_cell_volume                     718.591
loop_
_atom_site_label
_atom_site_type_symbol
_atom_site_fract_x
_atom_site_fract_y
_atom_site_fract_z
Cr1 Cr 0.50000 0.50000 0.50000
S1 S 0.78335(6) 0.61776(4) 0.20309(8)
O1 O 0.7364(2) 0.5735(2) 0.3687(3)
O2 O 0.6863(2) 0.7098(1) 0.1411(3)
O3 O 0.7807(2) 0.5433(1) 0.0546(3)
O4 O 0.5868(2) 0.5960(1) 0.7200(3)
N1 N 1.3044(2) 0.6116(1) 0.3822(3)
C1 C 1.1352(3) 0.5862(2) 0.3277(3)
C2 C 1.0053(2) 0.6585(2) 0.2714(3)
C3 C 1.0504(3) 0.7610(2) 0.2680(4)
C4 C 1.2252(3) 0.7884(2) 0.3218(4)
C5 C 1.3466(3) 0.7118(2) 0.3752(4)
H1 H 0.636(4) 0.576(2) 0.818(4)
H2 H 0.619(3) 0.661(2) 0.699(4)
H3 H 1.100(4) 0.510(2) 0.331(4)
H4 H 0.961(3) 0.809(2) 0.226(3)
H5 H 1.266(3) 0.861(2) 0.319(4)
H6 H 1.464(3) 0.727(2) 0.420(4)
S1B S 0.21665(6) 0.38224(4) 0.79691(8)
O1B O 0.2636(2) 0.4265(2) 0.6313(3)
O2B O 0.3137(2) 0.2902(1) 0.8589(3)
O3B O 0.2193(2) 0.4567(1) 0.9454(3)
N1B N -0.3044(2) 0.3884(1) 0.6178(3)
C1B C -0.1352(3) 0.4138(2) 0.6723(3)
C2B C -0.0053(2) 0.3415(2) 0.7286(3)
C3B C -0.0504(3) 0.2390(2) 0.7320(4)
C4B C -0.2252(3) 0.2116(2) 0.6782(4)
C5B C -0.3466(3) 0.2882(2) 0.6248(4)
H3B H -0.100(4) 0.490(2) 0.669(4)
H4B H 0.039(3) 0.191(2) 0.774(3)
H5B H -0.266(3) 0.139(2) 0.681(4)
H6B H -0.464(3) 0.273(2) 0.580(4)
O4B O 0.4132(2) 0.4040(1) 0.2800(3)
H1B H 0.364(4) 0.424(2) 0.182(4)
H2B H 0.381(3) 0.339(2) 0.301(4)
N1_2 N 0.3044(2) 0.6116(1) 0.3822(3)
N1B_2 N 0.6956(2) 0.3884(1) 0.6178(3)
Cr1_2 Cr 1.50000 0.50000 0.50000
Cr1_3 Cr -0.50000 0.50000 0.50000
loop_
_geom_bond_atom_site_label_1
_geom_bond_atom_site_label_2
_geom_bond_site_symmetry_1
_geom_bond_site_symmetry_2
Cr1 O1 1_555 1_555
S1 O1 1_555 1_555
O2 S1 1_555 1_555
O3 S1 1_555 1_555
O4 Cr1 1_555 1_555
N1 C1 1_555 1_555
C1 C2 1_555 1_555
C2 S1 1_555 1_555
C3 C2 1_555 1_555
C4 C3 1_555 1_555
C5 N1 1_555 1_555
H1 O4 1_555 1_555
H2 O4 1_555 1_555
H3 C1 1_555 1_555
H4 C3 1_555 1_555
H5 C4 1_555 1_555
H6 C5 1_555 1_555
S1B O1B 1_555 1_555
O1B Cr1 1_555 1_555
O2B S1B 1_555 1_555
O3B S1B 1_555 1_555
N1B C1B 1_555 1_555
C1B C2B 1_555 1_555
C2B S1B 1_555 1_555
C3B C2B 1_555 1_555
C4B C3B 1_555 1_555
C5B N1B 1_555 1_555
H3B C1B 1_555 1_555
H4B C3B 1_555 1_555
H5B C4B 1_555 1_555
H6B C5B 1_555 1_555
O4B Cr1 1_555 1_555
H1B O4B 1_555 1_555
H2B O4B 1_555 1_555
N1_2 Cr1 1_555 1_555
N1B_2 Cr1 1_555 1_555
Cr1_2 N1 1_555 1_555
Cr1_3 N1B 1_555 1_555
C4 C5 1_555 1_555
C4B C5B 1_555 1_555

#END
