
#######################################################################
#
#                 Cambridge Crystallographic Data Centre
#                                CCDC 
#
#######################################################################
#
# If this CIF has been generated from an entry in the Cambridge 
# Structural Database, then it will include bibliographic, chemical, 
# crystal, experimental, refinement or atomic coordinate data resulting 
# from the CCDC's data processing and validation procedures.
#
#######################################################################

data_JUVZAB
_symmetry_cell_setting           monoclinic
_symmetry_space_group_name_H-M   'P 21/n'
_symmetry_Int_Tables_number      14
_space_group_name_Hall           '-P 2yn'
loop_
_symmetry_equiv_pos_site_id
_symmetry_equiv_pos_as_xyz
1 x,y,z
2 1/2-x,1/2+y,1/2-z
3 -x,-y,-z
4 1/2+x,1/2-y,1/2+z
_cell_length_a                   11.366(2)
_cell_length_b                   13.902(3)
_cell_length_c                   14.462(3)
_cell_angle_alpha                90
_cell_angle_beta                 109.34(1)
_cell_angle_gamma                90
_cell_volume                     2156.19
loop_
_atom_site_label
_atom_site_type_symbol
_atom_site_fract_x
_atom_site_fract_y
_atom_site_fract_z
Cu1 Cu 0.50000 0.50000 0.50000
Cu2 Cu 0.48336(8) 0.51169(6) 0.11712(7)
N1 N 0.54125(62) 0.35933(43) 0.52033(54)
N2 N 0.42869(57) 0.64785(37) 0.08573(52)
N3 N 0.53220(54) 0.37345(37) 0.15684(49)
N4 N 0.35951(74) 0.46540(46) 0.38204(58)
N5 N 0.34822(62) 0.48569(44) 0.29990(58)
N6 N 0.33045(74) 0.50196(87) 0.21873(58)
N7 N 0.64759(71) 0.51129(54) 0.39238(57)
N8 N 0.63328(62) 0.53231(41) 0.31293(52)
N9 N 0.62369(67) 0.55893(45) 0.23211(57)
N10 N 0.36772(62) 0.46510(41) -0.00884(54)
N11 N 0.26190(56) 0.48626(39) -0.04964(52)
N12 N 0.16276(57) 0.50380(48) -0.09511(63)
C1 C 0.54283(67) 0.31389(49) 0.60045(61)
C2 C 0.56241(70) 0.21559(50) 0.61603(62)
C3 C 0.58210(90) 0.16459(57) 0.54400(73)
C4 C 0.5821(10) 0.20896(68) 0.45949(76)
C5 C 0.56228(88) 0.30921(61) 0.44909(73)
C6 C 0.5603(10) 0.16816(62) 0.70921(70)
C7 C 0.51231(67) 0.71330(47) 0.08050(59)
C8 C 0.48658(84) 0.80947(52) 0.05961(67)
C9 C 0.36226(80) 0.83646(52) 0.04316(69)
C10 C 0.27619(79) 0.77010(55) 0.04676(70)
C11 C 0.31255(76) 0.67673(55) 0.06826(63)
C12 C 0.58758(95) 0.87874(65) 0.05985(98)
C13 C 0.44857(68) 0.30909(48) 0.16292(67)
C14 C 0.47593(81) 0.21455(51) 0.19179(76)
C15 C 0.60054(81) 0.18649(50) 0.21026(71)
C16 C 0.68686(77) 0.25171(53) 0.20385(68)
C17 C 0.65206(69) 0.34505(49) 0.17751(61)
C18 C 0.38155(93) 0.14546(66) 0.1968(10)
H1 H 0.52937(67) 0.35623(49) 0.65876(61)
H2 H 0.59704(90) 0.08795(57) 0.55302(73)
H3 H 0.5975(10) 0.16670(68) 0.40189(76)
H4 H 0.56226(88) 0.34505(61) 0.38283(73)
H5 H 0.5439(10) 0.22263(62) 0.75679(70)
H6 H 0.6493(10) 0.13428(62) 0.74490(70)
H7 H 0.4873(10) 0.11474(62) 0.69356(70)
H8 H 0.60767(67) 0.68994(47) 0.09680(59)
H9 H 0.33478(80) 0.91079(52) 0.02853(69)
H10 H 0.17975(79) 0.79071(55) 0.03005(70)
H11 H 0.24352(76) 0.62489(55) 0.07203(63)
H12 H 0.55143(95) 0.95056(65) 0.04085(98)
H13 H 0.62607(95) 0.85296(65) 0.00546(98)
H14 H 0.65965(95) 0.87985(65) 0.13075(98)
H15 H 0.35251(68) 0.33215(48) 0.14129(67)
H16 H 0.62802(81) 0.11289(50) 0.22992(71)
H17 H 0.78277(77) 0.23008(53) 0.21956(68)
H18 H 0.72090(69) 0.39738(49) 0.17444(61)
H19 H 0.42442(93) 0.07696(66) 0.2232(10)
H20 H 0.31388(93) 0.13652(66) 0.1246(10)
H21 H 0.33566(93) 0.17241(66) 0.2461(10)
N1B N 0.45875(62) 0.64067(43) 0.47967(54)
N4B N 0.64049(74) 0.53460(46) 0.61796(58)
N7B N 0.35241(71) 0.48871(54) 0.60762(57)
N10B N 0.63228(62) 0.53490(41) 0.00884(54)
Cu2B Cu 0.51664(8) 0.48831(6) -0.11712(7)
C1B C 0.45717(67) 0.68611(49) 0.39955(61)
C5B C 0.43772(88) 0.69079(61) 0.55091(73)
N11B N 0.73810(56) 0.51374(39) 0.04964(52)
C2B C 0.43759(70) 0.78441(50) 0.38397(62)
H1B H 0.47063(67) 0.64377(49) 0.34124(61)
C4B C 0.4179(10) 0.79104(68) 0.54051(76)
H4B H 0.43774(88) 0.65495(61) 0.61717(73)
N12B N 0.83724(57) 0.49620(48) 0.09511(63)
C3B C 0.41790(90) 0.83541(57) 0.45600(73)
C6B C 0.4397(10) 0.83184(62) 0.29079(70)
H3B H 0.4025(10) 0.83330(68) 0.59811(76)
H2B H 0.40296(90) 0.91205(57) 0.44698(73)
H5B H 0.4561(10) 0.77737(62) 0.24321(70)
H6B H 0.3507(10) 0.86572(62) 0.25510(70)
H7B H 0.5127(10) 0.88526(62) 0.30644(70)
loop_
_geom_bond_atom_site_label_1
_geom_bond_atom_site_label_2
_geom_bond_site_symmetry_1
_geom_bond_site_symmetry_2
Cu1 N1 1_555 1_555
Cu2 N2 1_555 1_555
N1 C1 1_555 1_555
N2 C7 1_555 1_555
N3 Cu2 1_555 1_555
N4 Cu1 1_555 1_555
N5 N4 1_555 1_555
N6 Cu2 1_555 1_555
N7 Cu1 1_555 1_555
N8 N7 1_555 1_555
N9 Cu2 1_555 1_555
N10 Cu2 1_555 1_555
N11 N10 1_555 1_555
N12 N11 1_555 1_555
C1 C2 1_555 1_555
C2 C3 1_555 1_555
C3 C4 1_555 1_555
C4 C5 1_555 1_555
C5 N1 1_555 1_555
C6 C2 1_555 1_555
C7 C8 1_555 1_555
C8 C9 1_555 1_555
C9 C10 1_555 1_555
C10 C11 1_555 1_555
C11 N2 1_555 1_555
C12 C8 1_555 1_555
C13 N3 1_555 1_555
C14 C13 1_555 1_555
C15 C14 1_555 1_555
C16 C15 1_555 1_555
C17 N3 1_555 1_555
C18 C14 1_555 1_555
H1 C1 1_555 1_555
H2 C3 1_555 1_555
H3 C4 1_555 1_555
H4 C5 1_555 1_555
H5 C6 1_555 1_555
H6 C6 1_555 1_555
H7 C6 1_555 1_555
H8 C7 1_555 1_555
H9 C9 1_555 1_555
H10 C10 1_555 1_555
H11 C11 1_555 1_555
H12 C12 1_555 1_555
H13 C12 1_555 1_555
H14 C12 1_555 1_555
H15 C13 1_555 1_555
H16 C15 1_555 1_555
H17 C16 1_555 1_555
H18 C17 1_555 1_555
H19 C18 1_555 1_555
H20 C18 1_555 1_555
H21 C18 1_555 1_555
N1B Cu1 1_555 1_555
N4B Cu1 1_555 1_555
N7B Cu1 1_555 1_555
N10B Cu2 1_555 1_555
Cu2B N10 1_555 1_555
C1B N1B 1_555 1_555
C5B N1B 1_555 1_555
N11B N10B 1_555 1_555
C2B C1B 1_555 1_555
H1B C1B 1_555 1_555
C4B C5B 1_555 1_555
H4B C5B 1_555 1_555
N12B N11B 1_555 1_555
C3B C2B 1_555 1_555
C6B C2B 1_555 1_555
H3B C4B 1_555 1_555
H2B C3B 1_555 1_555
H5B C6B 1_555 1_555
H6B C6B 1_555 1_555
H7B C6B 1_555 1_555
N5 N6 1_555 1_555
N8 N9 1_555 1_555
C16 C17 1_555 1_555
N10B Cu2B 1_555 1_555
C4B C3B 1_555 1_555

#END
