
#######################################################################
#
#                 Cambridge Crystallographic Data Centre
#                                CCDC 
#
#######################################################################
#
# If this CIF has been generated from an entry in the Cambridge 
# Structural Database, then it will include bibliographic, chemical, 
# crystal, experimental, refinement or atomic coordinate data resulting 
# from the CCDC's data processing and validation procedures.
#
#######################################################################

data_JUWMET
_symmetry_cell_setting           monoclinic
_symmetry_space_group_name_H-M   'P 21'
_symmetry_Int_Tables_number      4
_space_group_name_Hall           'P 2yn'
loop_
_symmetry_equiv_pos_site_id
_symmetry_equiv_pos_as_xyz
1 x,y,z
2 1/2-x,1/2+y,1/2-z
_cell_length_a                   12.696(4)
_cell_length_b                   4.181(2)
_cell_length_c                   10.628(3)
_cell_angle_alpha                90
_cell_angle_beta                 106.8(3)
_cell_angle_gamma                90
_cell_volume                     540.077
loop_
_atom_site_label
_atom_site_type_symbol
_atom_site_fract_x
_atom_site_fract_y
_atom_site_fract_z
Sn1 Sn 0.0000 0.2500 0.0000
O1 O -0.046(1) -0.23(5) 0.036(2)
C1 C 0.033(2) 0.397(8) -0.177(3)
C2 C -0.020(1) 0.180(5) -0.296(2)
C3 C -0.133(1) 0.201(5) -0.357(2)
C4 C -0.182(1) 0.003(5) -0.464(2)
C5 C -0.118(1) -0.216(5) -0.509(2)
C6 C -0.006(1) -0.237(5) -0.447(2)
C7 C 0.044(1) -0.038(5) -0.341(2)
C8 C 0.124(2) 0.24(3) 0.186(2)
C9 C -0.169(3) 0.08(1) -0.010(3)
Sn1_2 Sn 0.0000 -0.7500 0.0000
O1_2 O -0.046(1) 0.77(5) 0.036(2)
loop_
_geom_bond_atom_site_label_1
_geom_bond_atom_site_label_2
_geom_bond_site_symmetry_1
_geom_bond_site_symmetry_2
Sn1 O1 1_555 1_555
O1 Sn1_2 1_555 1_555
C1 Sn1 1_555 1_555
C2 C1 1_555 1_555
C3 C2 1_555 1_555
C4 C3 1_555 1_555
C5 C4 1_555 1_555
C6 C5 1_555 1_555
C7 C2 1_555 1_555
C8 Sn1 1_555 1_555
C9 Sn1 1_555 1_555
O1_2 Sn1 1_555 1_555
C6 C7 1_555 1_555

#END
