
#######################################################################
#
#                 Cambridge Crystallographic Data Centre
#                                CCDC 
#
#######################################################################
#
# If this CIF has been generated from an entry in the Cambridge 
# Structural Database, then it will include bibliographic, chemical, 
# crystal, experimental, refinement or atomic coordinate data resulting 
# from the CCDC's data processing and validation procedures.
#
#######################################################################

data_JUWMUJ
_symmetry_cell_setting           triclinic
_symmetry_space_group_name_H-M   'P -1'
_symmetry_Int_Tables_number      2
_space_group_name_Hall           '-P 1'
loop_
_symmetry_equiv_pos_site_id
_symmetry_equiv_pos_as_xyz
1 x,y,z
2 -x,-y,-z
_cell_length_a                   7.7670(10)
_cell_length_b                   8.8390(10)
_cell_length_c                   9.5540(10)
_cell_angle_alpha                69.080
_cell_angle_beta                 88.650
_cell_angle_gamma                66.340
_cell_volume                     555.647
loop_
_atom_site_label
_atom_site_type_symbol
_atom_site_fract_x
_atom_site_fract_y
_atom_site_fract_z
In1 In 0.7001(1) 0.6562(1) 0.7550(1)
S1 S 0.7120(1) 0.9553(1) 0.8524(1)
S2 S 0.6814(1) 1.3804(1) 0.6553(1)
C1 C 0.5034(3) 1.3228(3) 0.7582(3)
C2 C 0.4989(3) 1.1557(3) 0.7526(3)
C3 C 0.8927(3) 1.1821(3) 0.7593(3)
C4 C 0.8888(3) 1.0152(3) 0.7507(3)
C5 C 0.4013(3) 0.8275(3) 0.6722(3)
C6 C 0.9195(4) 0.6686(4) 0.6128(3)
C7 C 0.7863(4) 0.4672(3) 0.9874(3)
H1 H 0.3921(41) 1.4251(39) 0.7143(32)
H2 H 0.5238(41) 1.3099(39) 0.8610(35)
H3 H 0.4799(43) 1.1628(40) 0.6514(36)
H4 H 0.3997(51) 1.1306(48) 0.8050(41)
H5 H 1.0041(45) 1.1994(42) 0.7095(36)
H6 H 0.9119(39) 1.1714(37) 0.8619(32)
H7 H 1.0082(41) 0.9064(39) 0.8013(32)
H8 H 0.8687(45) 1.0283(43) 0.6471(38)
H9 H 0.3445(48) 0.7704(47) 0.6437(38)
H10 H 0.3896(47) 0.9350(47) 0.5846(39)
H11 H 0.3483(51) 0.8727(48) 0.7492(41)
H12 H 1.0055(69) 0.5643(69) 0.6463(55)
H13 H 0.9578(69) 0.7579(69) 0.6003(56)
H14 H 0.8872(79) 0.6824(76) 0.5116(68)
H15 H 0.7017(47) 0.4210(44) 1.0156(37)
H16 H 0.9015(54) 0.3846(50) 0.9967(42)
H17 H 0.8003(51) 0.5454(48) 1.0612(41)
S2_2 S 0.6814(1) 0.3804(1) 0.6553(1)
In1_2 In 0.7001(1) 1.6562(1) 0.7550(1)
loop_
_geom_bond_atom_site_label_1
_geom_bond_atom_site_label_2
_geom_bond_site_symmetry_1
_geom_bond_site_symmetry_2
In1 S1 1_555 1_555
S1 C2 1_555 1_555
S2 C1 1_555 1_555
C1 C2 1_555 1_555
C2 H3 1_555 1_555
C3 S2 1_555 1_555
C4 S1 1_555 1_555
C5 In1 1_555 1_555
C6 In1 1_555 1_555
C7 In1 1_555 1_555
H1 C1 1_555 1_555
H2 C1 1_555 1_555
H4 C2 1_555 1_555
H5 C3 1_555 1_555
H6 C3 1_555 1_555
H7 C4 1_555 1_555
H8 C4 1_555 1_555
H9 C5 1_555 1_555
H10 C5 1_555 1_555
H11 C5 1_555 1_555
H12 C6 1_555 1_555
H13 C6 1_555 1_555
H14 C6 1_555 1_555
H15 C7 1_555 1_555
H16 C7 1_555 1_555
H17 C7 1_555 1_555
S2_2 In1 1_555 1_555
In1_2 S2 1_555 1_555
C3 C4 1_555 1_555

#END
