
#######################################################################
#
#                 Cambridge Crystallographic Data Centre
#                                CCDC 
#
#######################################################################
#
# If this CIF has been generated from an entry in the Cambridge 
# Structural Database, then it will include bibliographic, chemical, 
# crystal, experimental, refinement or atomic coordinate data resulting 
# from the CCDC's data processing and validation procedures.
#
#######################################################################

data_JUXTEB
_symmetry_cell_setting           monoclinic
_symmetry_space_group_name_H-M   'C 2/c'
_symmetry_Int_Tables_number      15
_space_group_name_Hall           '-C 2yn'
loop_
_symmetry_equiv_pos_site_id
_symmetry_equiv_pos_as_xyz
1 x,y,z
2 1/2+x,1/2+y,z
3 -x,y,1/2-z
4 1/2-x,1/2+y,1/2-z
5 -x,-y,-z
6 1/2-x,1/2-y,-z
7 x,-y,1/2+z
8 1/2+x,1/2-y,1/2+z
_cell_length_a                   19.846(1)
_cell_length_b                   7.527(1)
_cell_length_c                   15.252(1)
_cell_angle_alpha                90
_cell_angle_beta                 137.8(2)
_cell_angle_gamma                90
_cell_volume                     1530.42
loop_
_atom_site_label
_atom_site_type_symbol
_atom_site_fract_x
_atom_site_fract_y
_atom_site_fract_z
Cu1 Cu 0.5793(1) 0.3387(1) 0.5717(1)
N1 N 0.5849(3) 0.1129(5) 0.6527(3)
N2 N 0.4774(3) 0.1821(5) 0.4061(3)
N3 N 0.5564(3) 0.5374(5) 0.4690(4)
N4 N 0.6944(4) 0.4376(6) 0.7402(5)
C1 C 0.6377(4) 0.0782(7) 0.7765(5)
C2 C 0.5293(3) -0.0195(6) 0.5671(4)
C3 C 0.4243(4) 0.2150(7) 0.2816(5)
C4 C 0.6339(4) -0.0861(7) 0.8124(5)
C5 C 0.7511(4) 0.5248(7) 0.8312(5)
C6 C 0.5942(5) 0.5828(9) 0.4424(6)
O1 O 0.8102(3) 0.6194(6) 0.9260(4)
O2 O 0.6328(5) 0.6220(13) 0.4121(7)
H1 H 0.670(4) 0.166(7) 0.832(5)
H2 H 0.421(4) 0.330(7) 0.262(5)
H3 H 0.668(4) -0.112(6) 0.903(5)
N3D N 0.4436(3) 0.4626(5) 0.5310(4)
C2D C 0.4707(3) 0.0195(6) 0.4329(4)
Cu1D Cu 0.4207(1) 0.6613(1) 0.4283(1)
N2D N 0.5226(3) -0.1821(5) 0.5939(3)
C4D C 0.3661(4) 0.0861(7) 0.1876(5)
C3D C 0.5757(4) -0.2150(7) 0.7184(5)
C6D C 0.4058(5) 0.4172(9) 0.5576(6)
N1D N 0.4151(3) -0.1129(5) 0.3473(3)
N1D_2 N 0.4151(3) 0.8871(5) 0.3473(3)
N2D_2 N 0.5226(3) 0.8179(5) 0.5939(3)
N4D N 0.3056(4) 0.5624(6) 0.2598(5)
Cu1D_2 Cu 0.4207(1) -0.3387(1) 0.4283(1)
C1D C 0.3623(4) -0.0782(7) 0.2235(5)
H3D H 0.332(4) 0.112(6) 0.097(5)
H2D H 0.579(4) -0.330(7) 0.738(5)
O2D O 0.3672(5) 0.3780(13) 0.5879(7)
C5D C 0.2489(4) 0.4752(7) 0.1688(5)
H1D H 0.330(4) -0.166(7) 0.168(5)
O1D O 0.1898(3) 0.3806(6) 0.0740(4)
loop_
_geom_bond_atom_site_label_1
_geom_bond_atom_site_label_2
_geom_bond_site_symmetry_1
_geom_bond_site_symmetry_2
Cu1 N1 1_555 1_555
N1 C1 1_555 1_555
N2 Cu1 1_555 1_555
N3 Cu1 1_555 1_555
N4 Cu1 1_555 1_555
C1 C4 1_555 1_555
C2 N1 1_555 1_555
C3 N2 1_555 1_555
C4 H3 1_555 1_555
C5 N4 1_555 1_555
C6 N3 1_555 1_555
O1 C5 1_555 1_555
O2 C6 1_555 1_555
H1 C1 1_555 1_555
H2 C3 1_555 1_555
N3D Cu1 1_555 1_555
C2D N2 1_555 1_555
Cu1D N3 1_555 1_555
N2D C2 1_555 1_555
C4D C3 1_555 1_555
C3D C4 1_555 1_555
C6D N3D 1_555 1_555
N1D C2D 1_555 1_555
N1D_2 Cu1D 1_555 1_555
N2D_2 Cu1D 1_555 1_555
N4D Cu1D 1_555 1_555
Cu1D_2 N2D 1_555 1_555
C1D C4D 1_555 1_555
H3D C4D 1_555 1_555
H2D C3D 1_555 1_555
O2D C6D 1_555 1_555
C5D N4D 1_555 1_555
H1D C1D 1_555 1_555
O1D C5D 1_555 1_555
C2 C2D 1_555 1_555
N3D Cu1D 1_555 1_555
N2D C3D 1_555 1_555
N1D Cu1D_2 1_555 1_555
N1D C1D 1_555 1_555

#END
