
#######################################################################
#
#                 Cambridge Crystallographic Data Centre
#                                CCDC 
#
#######################################################################
#
# If this CIF has been generated from an entry in the Cambridge 
# Structural Database, then it will include bibliographic, chemical, 
# crystal, experimental, refinement or atomic coordinate data resulting 
# from the CCDC's data processing and validation procedures.
#
#######################################################################

data_JUXTIF
_symmetry_cell_setting           monoclinic
_symmetry_space_group_name_H-M   'C 2/c'
_symmetry_Int_Tables_number      15
_space_group_name_Hall           '-C 2yn'
loop_
_symmetry_equiv_pos_site_id
_symmetry_equiv_pos_as_xyz
1 x,y,z
2 1/2+x,1/2+y,z
3 -x,y,1/2-z
4 1/2-x,1/2+y,1/2-z
5 -x,-y,-z
6 1/2-x,1/2-y,-z
7 x,-y,1/2+z
8 1/2+x,1/2-y,1/2+z
_cell_length_a                   11.543(1)
_cell_length_b                   13.948(2)
_cell_length_c                   7.818(1)
_cell_angle_alpha                90
_cell_angle_beta                 93.26(1)
_cell_angle_gamma                90
_cell_volume                     1256.67
loop_
_atom_site_label
_atom_site_type_symbol
_atom_site_fract_x
_atom_site_fract_y
_atom_site_fract_z
Cu1 Cu 0.5000 0.1298(1) 0.2500
S1 S 0.7018(1) 0.1331(1) 0.5431(1)
N1 N 0.4463(4) 0.2398(4) 0.3915(7)
N2 N 0.4455(5) 0.4099(4) 0.4057(8)
N3 N 0.4029(5) 0.0355(4) 0.3553(8)
C1 C 0.3964(6) 0.2349(6) 0.5417(10)
C2 C 0.3701(6) 0.3173(6) 0.6280(10)
C3 C 0.3957(7) 0.4032(5) 0.5539(10)
C4 C 0.4704(5) 0.3286(5) 0.3312(8)
C5 C 0.6403 0.0336(5) 0.6026(9)
H1 H 0.381(6) 0.181(5) 0.589(9)
H2 H 0.328(6) 0.319(5) 0.726(9)
H3 H 0.383(5) 0.459(5) 0.608(9)
S1B S 0.2982(1) 0.1331(1) -0.0431(1)
N1B N 0.5537(4) 0.2398(4) 0.1085(7)
N3B N 0.5971(5) 0.0355(4) 0.1447(8)
C5D C 0.3597 -0.0336(5) 0.3974(9)
C4B C 0.5296(5) 0.3286(5) 0.1688(8)
N3D N 0.5971(5) -0.0355(4) 0.6447(8)
C5B C 0.3597 0.0336(5) -0.1026(9)
C1B C 0.6036(6) 0.2349(6) -0.0417(10)
C5F C 0.6403 -0.0336(5) 0.1026(9)
S1D S 0.2982(1) -0.1331(1) 0.4569(1)
N2B N 0.5545(5) 0.4099(4) 0.0943(8)
Cu1D Cu 0.5000 -0.1298(1) 0.7500
N3F N 0.4029(5) -0.0355(4) -0.1447(8)
C2B C 0.6299(6) 0.3173(6) -0.1280(10)
H1B H 0.619(6) 0.181(5) -0.089(9)
S1F S 0.7018(1) -0.1331(1) 0.0431(1)
C3B C 0.6043(7) 0.4032(5) -0.0539(10)
S1F_2 S 0.7018(1) -0.1331(1) 1.0431(1)
N1D N 0.5537(4) -0.2398(4) 0.6085(7)
N1F N 0.4463(4) -0.2398(4) 0.8915(7)
N3F_2 N 0.4029(5) -0.0355(4) 0.8553(8)
Cu1D_2 Cu 0.5000 -0.1298(1) -0.2500
H2B H 0.672(6) 0.319(5) -0.226(9)
H3B H 0.617(5) 0.459(5) -0.108(9)
C1D C 0.6036(6) -0.2349(6) 0.4583(10)
C4D C 0.5296(5) -0.3286(5) 0.6688(8)
C1F C 0.3964(6) -0.2349(6) 1.0417(10)
C4F C 0.4704(5) -0.3286(5) 0.8312(8)
C2D C 0.6299(6) -0.3173(6) 0.3720(10)
H1D H 0.619(6) -0.181(5) 0.411(9)
N2D N 0.5545(5) -0.4099(4) 0.5943(8)
C2F C 0.3701(6) -0.3173(6) 1.1280(10)
H1F H 0.381(6) -0.181(5) 1.089(9)
N2F N 0.4455(5) -0.4099(4) 0.9057(8)
C3D C 0.6043(7) -0.4032(5) 0.4461(10)
H2D H 0.672(6) -0.319(5) 0.274(9)
C3F C 0.3957(7) -0.4032(5) 1.0539(10)
H2F H 0.328(6) -0.319(5) 1.226(9)
H3D H 0.617(5) -0.459(5) 0.392(9)
H3F H 0.383(5) -0.459(5) 1.108(9)
loop_
_geom_bond_atom_site_label_1
_geom_bond_atom_site_label_2
_geom_bond_site_symmetry_1
_geom_bond_site_symmetry_2
Cu1 S1 1_555 1_555
S1 C5 1_555 1_555
N1 Cu1 1_555 1_555
N2 C3 1_555 1_555
N3 Cu1 1_555 1_555
C1 N1 1_555 1_555
C2 C1 1_555 1_555
C3 C2 1_555 1_555
C4 N1 1_555 1_555
C5 N3D 1_555 1_555
H1 C1 1_555 1_555
H2 C2 1_555 1_555
H3 C3 1_555 1_555
S1B Cu1 1_555 1_555
N1B Cu1 1_555 1_555
N3B Cu1 1_555 1_555
C5D N3 1_555 1_555
C4B C4 1_555 1_555
N3D Cu1D 1_555 1_555
C5B S1B 1_555 1_555
C1B N1B 1_555 1_555
C5F N3B 1_555 1_555
S1D C5D 1_555 1_555
N2B C4B 1_555 1_555
Cu1D S1D 1_555 1_555
N3F C5B 1_555 1_555
C2B C1B 1_555 1_555
H1B C1B 1_555 1_555
S1F C5F 1_555 1_555
C3B N2B 1_555 1_555
S1F_2 Cu1D 1_555 1_555
N1D Cu1D 1_555 1_555
N1F Cu1D 1_555 1_555
N3F_2 Cu1D 1_555 1_555
Cu1D_2 N3F 1_555 1_555
H2B C2B 1_555 1_555
H3B C3B 1_555 1_555
C1D N1D 1_555 1_555
C4D N1D 1_555 1_555
C1F N1F 1_555 1_555
C4F N1F 1_555 1_555
C2D C1D 1_555 1_555
H1D C1D 1_555 1_555
N2D C4D 1_555 1_555
C2F C1F 1_555 1_555
H1F C1F 1_555 1_555
N2F C4F 1_555 1_555
C3D C2D 1_555 1_555
H2D C2D 1_555 1_555
C3F C2F 1_555 1_555
H2F C2F 1_555 1_555
H3D C3D 1_555 1_555
H3F C3F 1_555 1_555
N2 C4 1_555 1_555
N1B C4B 1_555 1_555
C2B C3B 1_555 1_555
S1F Cu1D_2 1_555 1_555
C4D C4F 1_555 1_555
N2D C3D 1_555 1_555
N2F C3F 1_555 1_555

#END
