
#######################################################################
#
#                 Cambridge Crystallographic Data Centre
#                                CCDC 
#
#######################################################################
#
# If this CIF has been generated from an entry in the Cambridge 
# Structural Database, then it will include bibliographic, chemical, 
# crystal, experimental, refinement or atomic coordinate data resulting 
# from the CCDC's data processing and validation procedures.
#
#######################################################################

data_JUXWOO
_symmetry_cell_setting           monoclinic
_symmetry_space_group_name_H-M   'P 21/n'
_symmetry_Int_Tables_number      14
_space_group_name_Hall           '-P 2yn'
loop_
_symmetry_equiv_pos_site_id
_symmetry_equiv_pos_as_xyz
1 x,y,z
2 1/2-x,1/2+y,1/2-z
3 -x,-y,-z
4 1/2+x,1/2-y,1/2+z
_cell_length_a                   5.007(3)
_cell_length_b                   19.454(2)
_cell_length_c                   7.248(6)
_cell_angle_alpha                90
_cell_angle_beta                 104.02(7)
_cell_angle_gamma                90
_cell_volume                     684.969
loop_
_atom_site_label
_atom_site_type_symbol
_atom_site_fract_x
_atom_site_fract_y
_atom_site_fract_z
Ag1 Ag -0.2607(1) 0.66577(3) -0.2227(1)
O1 O -0.568(1) 0.7272(3) -0.4813(9)
O2 O -0.828(1) 0.6576(3) -0.376(1)
O3 O -0.502(1) 0.7582(3) -0.061(1)
N1 N -0.102(1) 0.5630(3) -0.0862(7)
N2 N -0.802(1) 0.7088(3) -0.4730(8)
C1 C 0.545(1) 0.6181(3) 0.226(1)
C2 C 0.297(1) 0.6206(3) 0.095(1)
C3 C 0.140(1) 0.5598(3) 0.0430(8)
C4 C -0.246(1) 0.5041(3) -0.1327(9)
C5 C -0.505(1) 0.5043(3) -0.264(1)
C6 C 0.646(1) 0.5551(4) 0.311(1)
H1 H 0.6895 0.6596 0.2508
H2 H 0.2090 0.6669 0.0435
H3 H -0.5448 0.5503 -0.3259
H4 H 0.8418 0.5546 0.3845
N2C N -0.302(1) 0.7912(3) 0.0270(8)
O3C O -1.002(1) 0.7418(3) -0.561(1)
C4B C 0.246(1) 0.4959(3) 0.1327(9)
C3B C -0.140(1) 0.4402(3) -0.0430(8)
C6B C -0.646(1) 0.4449(4) -0.311(1)
C5B C 0.505(1) 0.4957(3) 0.264(1)
O1C O -0.068(1) 0.7728(3) 0.0187(9)
O2C O -0.328(1) 0.8424(3) 0.124(1)
Ag1C Ag -0.7607(1) 0.83423(3) -0.7227(1)
N1B N 0.102(1) 0.4370(3) 0.0862(7)
C2B C -0.297(1) 0.3794(3) -0.095(1)
C1B C -0.545(1) 0.3819(3) -0.226(1)
H4B H -0.8418 0.4454 -0.3845
H3B H 0.5448 0.4497 0.3259
Ag1C_2 Ag 0.2393(1) 0.83423(3) 0.2773(1)
O1C_2 O -1.068(1) 0.7728(3) -0.9813(9)
N1C N -0.602(1) 0.9370(3) -0.5862(7)
Ag1B Ag 0.2607(1) 0.33423(3) 0.2227(1)
H2B H -0.2090 0.3331 -0.0435
H1B H -0.6895 0.3404 -0.2508
C3C C -0.360(1) 0.9402(3) -0.4570(8)
C4C C -0.746(1) 0.9959(3) -0.6327(9)
O1B O 0.568(1) 0.2728(3) 0.4813(9)
O3B O 0.502(1) 0.2418(3) 0.061(1)
C2C C -0.203(1) 0.8794(3) -0.405(1)
C4A C -0.254(1) 1.0041(3) -0.3673(9)
C3A C -0.640(1) 1.0598(3) -0.5430(8)
C5C C -1.005(1) 0.9957(3) -0.764(1)
N2B N 0.802(1) 0.2912(3) 0.4730(8)
N2A N 0.302(1) 0.2088(3) -0.0270(8)
C1C C 0.045(1) 0.8819(3) -0.274(1)
H2C H -0.2910 0.8331 -0.4565
N1A N -0.398(1) 1.0630(3) -0.4138(7)
C5A C 0.005(1) 1.0043(3) -0.236(1)
C2A C -0.797(1) 1.1206(3) -0.595(1)
C6A C -1.146(1) 1.0551(4) -0.811(1)
H3C H -1.0448 0.9497 -0.8259
O2B O 0.828(1) 0.3424(3) 0.376(1)
O3A O 1.002(1) 0.2582(3) 0.561(1)
O1A O 0.068(1) 0.2272(3) -0.0187(9)
O2A O 0.328(1) 0.1576(3) -0.124(1)
C6C C 0.146(1) 0.9449(4) -0.189(1)
H1C H 0.1895 0.8404 -0.2492
Ag1A Ag -0.2393(1) 1.16577(3) -0.2773(1)
H3A H 0.0448 1.0503 -0.1741
C1A C -1.045(1) 1.1181(3) -0.726(1)
H2A H -0.7090 1.1669 -0.5435
H4A H -1.3418 1.0546 -0.8845
Ag1A_2 Ag 0.7607(1) 0.16577(3) 0.7227(1)
Ag1A_3 Ag -0.2393(1) 0.16577(3) -0.2773(1)
H4C H 0.3418 0.9454 -0.1155
O1A_2 O 0.068(1) 1.2272(3) -0.0187(9)
O3A_2 O 0.002(1) 1.2582(3) -0.439(1)
H1A H -1.1895 1.1596 -0.7508
loop_
_geom_bond_atom_site_label_1
_geom_bond_atom_site_label_2
_geom_bond_site_symmetry_1
_geom_bond_site_symmetry_2
Ag1 O1 1_555 1_555
O1 N2 1_555 1_555
O2 N2 1_555 1_555
O3 Ag1 1_555 1_555
N1 Ag1 1_555 1_555
N2 O3C 1_555 1_555
C1 C2 1_555 1_555
C2 C3 1_555 1_555
C3 N1 1_555 1_555
C4 N1 1_555 1_555
C5 C4 1_555 1_555
C6 C1 1_555 1_555
H1 C1 1_555 1_555
H2 C2 1_555 1_555
H3 C5 1_555 1_555
H4 C6 1_555 1_555
N2C O3 1_555 1_555
O3C Ag1C 1_555 1_555
C4B C3 1_555 1_555
C3B C4 1_555 1_555
C6B C5 1_555 1_555
C5B C6 1_555 1_555
O1C N2C 1_555 1_555
O2C N2C 1_555 1_555
Ag1C O1C_2 1_555 1_555
N1B C4B 1_555 1_555
C2B C3B 1_555 1_555
C1B C6B 1_555 1_555
H4B C6B 1_555 1_555
H3B C5B 1_555 1_555
Ag1C_2 O1C 1_555 1_555
N1C Ag1C 1_555 1_555
Ag1B N1B 1_555 1_555
H2B C2B 1_555 1_555
H1B C1B 1_555 1_555
C3C N1C 1_555 1_555
C4C N1C 1_555 1_555
O1B Ag1B 1_555 1_555
O3B Ag1B 1_555 1_555
C2C C3C 1_555 1_555
C4A C3C 1_555 1_555
C3A C4C 1_555 1_555
C5C C4C 1_555 1_555
N2B O1B 1_555 1_555
N2A O3B 1_555 1_555
C1C C2C 1_555 1_555
H2C C2C 1_555 1_555
N1A C4A 1_555 1_555
C5A C4A 1_555 1_555
C2A C3A 1_555 1_555
C6A C5C 1_555 1_555
H3C C5C 1_555 1_555
O2B N2B 1_555 1_555
O3A N2B 1_555 1_555
O1A N2A 1_555 1_555
O2A N2A 1_555 1_555
C6C C1C 1_555 1_555
H1C C1C 1_555 1_555
Ag1A N1A 1_555 1_555
H3A C5A 1_555 1_555
C1A C2A 1_555 1_555
H2A C2A 1_555 1_555
H4A C6A 1_555 1_555
Ag1A_2 O3A 1_555 1_555
Ag1A_3 O1A 1_555 1_555
H4C C6C 1_555 1_555
O1A_2 Ag1A 1_555 1_555
O3A_2 Ag1A 1_555 1_555
H1A C1A 1_555 1_555
C4B C5B 1_555 1_555
C3B N1B 1_555 1_555
C2B C1B 1_555 1_555
C3A N1A 1_555 1_555
C5A C6C 1_555 1_555
C6A C1A 1_555 1_555

#END
