
#######################################################################
#
#                 Cambridge Crystallographic Data Centre
#                                CCDC 
#
#######################################################################
#
# If this CIF has been generated from an entry in the Cambridge 
# Structural Database, then it will include bibliographic, chemical, 
# crystal, experimental, refinement or atomic coordinate data resulting 
# from the CCDC's data processing and validation procedures.
#
#######################################################################

data_JUXWII
_symmetry_cell_setting           triclinic
_symmetry_space_group_name_H-M   'P -1'
_symmetry_Int_Tables_number      2
_space_group_name_Hall           '-P 1'
loop_
_symmetry_equiv_pos_site_id
_symmetry_equiv_pos_as_xyz
1 x,y,z
2 -x,-y,-z
_cell_length_a                   7.2044(6)
_cell_length_b                   12.943(2)
_cell_length_c                   7.138(2)
_cell_angle_alpha                98.64(2)
_cell_angle_beta                 98.70(1)
_cell_angle_gamma                89.92(1)
_cell_volume                     650.314
loop_
_atom_site_label
_atom_site_type_symbol
_atom_site_fract_x
_atom_site_fract_y
_atom_site_fract_z
C1 C -0.1368(7) -0.0488(4) 0.2513(8)
Ag1 Ag 0.46214(4) 0.22789(3) 0.24819(5)
N1 N 0.1551(4) 0.2247(3) 0.2385(5)
N2 N -0.2315(4) 0.2272(3) 0.2599(5)
C2 C 0.0571(7) -0.0507(4) 0.2443(8)
C3 C 0.1542(6) 0.0401(4) 0.2415(7)
C4 C 0.0599(5) 0.1362(3) 0.2458(6)
C5 C 0.0599(5) 0.3143(3) 0.2424(6)
C6 C 0.1533(6) 0.4091(4) 0.2329(7)
C7 C 0.0582(7) 0.4999(4) 0.2369(8)
C8 C -0.1352(7) 0.5017(4) 0.2548(8)
C9 C -0.2315(6) 0.0419(4) 0.2576(7)
C10 C -0.1366(5) 0.1374(3) 0.2548(6)
C11 C -0.1359(5) 0.3163(3) 0.2564(6)
C12 C -0.2270(6) 0.4132(4) 0.2633(7)
H1 H 0.3054 0.0359 0.2385
H2 H 0.1304 -0.1232 0.2101
H3 H -0.1917 -0.1225 0.2532
H4 H -0.3666 0.0507 0.2868
H5 H -0.3587 0.4138 0.2862
H6 H -0.1908 0.5793 0.2460
H7 H 0.1349 0.5696 0.2446
H8 H 0.2883 0.4045 0.2062
N2_2 N 0.7685(4) 0.2272(3) 0.2599(5)
Ag1_2 Ag -0.53786(4) 0.22789(3) 0.24819(5)
Cl1 Cl 0.5354(2) 0.2685(1) 0.7389(2)
O1 O 0.4984(7) 0.3478(4) 0.6149(6)
O2 O 0.5013(7) 0.1681(3) 0.6251(7)
O3 O 0.4186(7) 0.2860(4) 0.8830(6)
O4 O 0.7287(6) 0.2779(3) 0.8204(7)
loop_
_geom_bond_atom_site_label_1
_geom_bond_atom_site_label_2
_geom_bond_site_symmetry_1
_geom_bond_site_symmetry_2
C1 C2 1_555 1_555
Ag1 N1 1_555 1_555
Cl1 O1 1_555 1_555
O2 Cl1 1_555 1_555
O3 Cl1 1_555 1_555
O4 Cl1 1_555 1_555
N1 C4 1_555 1_555
N2 C10 1_555 1_555
C2 C3 1_555 1_555
C3 C4 1_555 1_555
C4 C10 1_555 1_555
C5 N1 1_555 1_555
C6 C5 1_555 1_555
C7 C6 1_555 1_555
C8 C7 1_555 1_555
C9 C1 1_555 1_555
C10 C9 1_555 1_555
C11 N2 1_555 1_555
C12 C8 1_555 1_555
H1 C3 1_555 1_555
H2 C2 1_555 1_555
H3 C1 1_555 1_555
H4 C9 1_555 1_555
H5 C12 1_555 1_555
H6 C8 1_555 1_555
H7 C7 1_555 1_555
H8 C6 1_555 1_555
N2_2 Ag1 1_555 1_555
Ag1_2 N2 1_555 1_555
C5 C11 1_555 1_555
C11 C12 1_555 1_555

#END
