
#######################################################################
#
#                 Cambridge Crystallographic Data Centre
#                                CCDC 
#
#######################################################################
#
# If this CIF has been generated from an entry in the Cambridge 
# Structural Database, then it will include bibliographic, chemical, 
# crystal, experimental, refinement or atomic coordinate data resulting 
# from the CCDC's data processing and validation procedures.
#
#######################################################################

data_JUYJUI
_symmetry_cell_setting           monoclinic
_symmetry_space_group_name_H-M   'P 21/c'
_symmetry_Int_Tables_number      14
_space_group_name_Hall           '-P 2ybc'
loop_
_symmetry_equiv_pos_site_id
_symmetry_equiv_pos_as_xyz
1 x,y,z
2 -x,1/2+y,1/2-z
3 -x,-y,-z
4 x,1/2-y,1/2+z
_cell_length_a                   7.062(4)
_cell_length_b                   11.140(6)
_cell_length_c                   9.583(5)
_cell_angle_alpha                90
_cell_angle_beta                 107.67(3)
_cell_angle_gamma                90
_cell_volume                     718.332
loop_
_atom_site_label
_atom_site_type_symbol
_atom_site_fract_x
_atom_site_fract_y
_atom_site_fract_z
Cu1 Cu 0.50000 0.50000 0.50000
O1 O 0.3320(2) 0.70263(14) 0.12133(19)
O2 O 0.66397(19) 0.50198(15) 0.36970(15)
O3 O 0.2759(2) 0.49671(15) 0.32618(15)
O4 O 0.9893(3) 0.36653(16) 0.6001(2)
O5 O 0.9877(3) 0.3337(2) 0.2806(3)
C1 C 0.5217(4) 0.6777(3) 0.2218(4)
C2 C 0.5462(3) 0.5416(2) 0.2313(3)
C3 C 0.3288(3) 0.4998(2) 0.1960(2)
C4 C 0.2170(4) 0.5936(2) 0.0886(3)
Li1 Li 0.8178(6) 0.3531(3) 0.3963(4)
H1 H 0.525(5) 0.706(3) 0.317(4)
H2 H 0.620(4) 0.718(2) 0.194(3)
H3 H 0.601(3) 0.516(2) 0.159(2)
H4 H 0.309(3) 0.4246(19) 0.152(2)
H5 H 0.204(3) 0.570(2) -0.011(3)
H6 H 0.095(3) 0.612(2) 0.098(2)
H7 H 0.917(4) 0.409(3) 0.639(3)
H8 H 1.073(4) 0.403(3) 0.601(3)
H9 H 0.995(4) 0.285(2) 0.233(3)
H10 H 1.083(5) 0.371(3) 0.294(3)
O2B O 0.33603(19) 0.49802(15) 0.63030(15)
O3B O 0.7241(2) 0.50329(15) 0.67382(15)
Li1A Li 0.1822(6) 0.8531(3) 0.1037(4)
O1A O 0.6680(2) 0.20263(14) 0.37867(19)
C2B C 0.4538(3) 0.4584(2) 0.7687(3)
Li1B Li 0.1822(6) 0.6469(3) 0.6037(4)
C3B C 0.6712(3) 0.5002(2) 0.8040(2)
C1B C 0.4783(4) 0.3223(3) 0.7782(4)
H3B H 0.399(3) 0.484(2) 0.841(2)
O1C O 0.3320(2) 0.79737(14) 0.62133(19)
O4B O 0.0107(3) 0.63347(16) 0.3999(2)
O5B O 0.0123(3) 0.6663(2) 0.7194(3)
C4B C 0.7830(4) 0.4064(2) 0.9114(3)
H4B H 0.691(3) 0.5754(19) 0.848(2)
O1B O 0.6680(2) 0.29737(14) 0.87867(19)
H1B H 0.475(5) 0.294(3) 0.683(4)
H2B H 0.380(4) 0.282(2) 0.806(3)
H7B H 0.083(4) 0.591(3) 0.361(3)
H8B H -0.073(4) 0.597(3) 0.399(3)
H9B H 0.005(4) 0.715(2) 0.767(3)
H10B H -0.083(5) 0.629(3) 0.706(3)
H5B H 0.796(3) 0.430(2) 1.011(3)
H6B H 0.905(3) 0.388(2) 0.902(2)
Li1C Li 0.8178(6) 0.1469(3) 0.8963(4)
loop_
_geom_bond_atom_site_label_1
_geom_bond_atom_site_label_2
_geom_bond_site_symmetry_1
_geom_bond_site_symmetry_2
Cu1 O2 1_555 1_555
O1 C1 1_555 1_555
O2 C2 1_555 1_555
O3 Cu1 1_555 1_555
O4 Li1 1_555 1_555
O5 Li1 1_555 1_555
C1 C2 1_555 1_555
C2 C3 1_555 1_555
C3 O3 1_555 1_555
C4 O1 1_555 1_555
Li1 O2 1_555 1_555
H1 C1 1_555 1_555
H2 C1 1_555 1_555
H3 C2 1_555 1_555
H4 C3 1_555 1_555
H5 C4 1_555 1_555
H6 C4 1_555 1_555
H7 O4 1_555 1_555
H8 O4 1_555 1_555
H9 O5 1_555 1_555
H10 O5 1_555 1_555
O2B Cu1 1_555 1_555
O3B Cu1 1_555 1_555
Li1A O1 1_555 1_555
O1A Li1 1_555 1_555
C2B O2B 1_555 1_555
Li1B O2B 1_555 1_555
C3B O3B 1_555 1_555
C1B C2B 1_555 1_555
H3B C2B 1_555 1_555
O1C Li1B 1_555 1_555
O4B Li1B 1_555 1_555
O5B Li1B 1_555 1_555
C4B C3B 1_555 1_555
H4B C3B 1_555 1_555
O1B C1B 1_555 1_555
H1B C1B 1_555 1_555
H2B C1B 1_555 1_555
H7B O4B 1_555 1_555
H8B O4B 1_555 1_555
H9B O5B 1_555 1_555
H10B O5B 1_555 1_555
H5B C4B 1_555 1_555
H6B C4B 1_555 1_555
Li1C O1B 1_555 1_555
C3 C4 1_555 1_555
C2B C3B 1_555 1_555
C4B O1B 1_555 1_555

#END
