
#######################################################################
#
#                 Cambridge Crystallographic Data Centre
#                                CCDC 
#
#######################################################################
#
# If this CIF has been generated from an entry in the Cambridge 
# Structural Database, then it will include bibliographic, chemical, 
# crystal, experimental, refinement or atomic coordinate data resulting 
# from the CCDC's data processing and validation procedures.
#
#######################################################################

data_JUYVUU
_symmetry_cell_setting           orthorhombic
_symmetry_space_group_name_H-M   'P 21 21 21'
_symmetry_Int_Tables_number      19
_space_group_name_Hall           'P 2ac 2ab'
loop_
_symmetry_equiv_pos_site_id
_symmetry_equiv_pos_as_xyz
1 x,y,z
2 1/2+x,1/2-y,-z
3 -x,1/2+y,1/2-z
4 1/2-x,-y,1/2+z
_cell_length_a                   7.477(1)
_cell_length_b                   10.873(1)
_cell_length_c                   17.619(1)
_cell_angle_alpha                90
_cell_angle_beta                 90
_cell_angle_gamma                90
_cell_volume                     1432.38
loop_
_atom_site_label
_atom_site_type_symbol
_atom_site_fract_x
_atom_site_fract_y
_atom_site_fract_z
Bi1 Bi 0.50759(9) 0.33991(4) 0.58558(3)
O1 O 0.334(1) 0.5222(9) 0.6001(6)
O2 O 0.314(1) 0.7260(9) 0.6109(7)
O3 O 0.685(1) 0.5298(8) 0.5730(6)
O4 O 0.682(1) 0.649(1) 0.7122(6)
O5 O 1.010(2) 0.6953(7) 0.6559(5)
O6 O 0.902(1) 0.831(1) 0.5727(6)
C1 C 0.401(2) 0.629(1) 0.5982(8)
C2 C 0.600(2) 0.645(1) 0.5812(9)
C3 C 0.690(2) 0.719(1) 0.6466(9)
C4 C 0.876(2) 0.756(1) 0.6219(9)
O7 O 0.705(1) 0.273(1) 0.4703(6)
O8 O 0.738(1) 0.2374(9) 0.3478(6)
O9 O 0.434(1) 0.4271(9) 0.4525(6)
O10 O 0.318(1) 0.2008(8) 0.3753(6)
O11 O 0.060(1) 0.3687(8) 0.3664(7)
O12 O 0.220(1) 0.492(1) 0.2929(7)
C5 C 0.657(2) 0.289(1) 0.4029(9)
C6 C 0.508(3) 0.3789(9) 0.3829(7)
C7 C 0.360(2) 0.311(1) 0.3381(8)
C8 C 0.202(2) 0.397(1) 0.3308(9)
O13 O 0.541(1) 0.3951(9) 0.7172(5)
H1 H 0.61 0.69 0.53
H2 H 0.63 0.79 0.66
H3 H 0.55 0.44 0.35
H4 H 0.40 0.29 0.29
O8A O 0.238(1) 0.2626(9) 0.6522(6)
O10A O 0.818(1) 0.2992(8) 0.6247(6)
O11A O 0.560(1) 0.1313(8) 0.6336(7)
Bi1A Bi 1.00759(9) 0.16009(4) 0.41442(3)
Bi1A_2 Bi 0.00759(9) 0.16009(4) 0.41442(3)
O14 O 0.947(1) 0.4577(8) 0.7188(7)
O15 O 0.625(2) 0.455(1) 0.952(1)
loop_
_geom_bond_atom_site_label_1
_geom_bond_atom_site_label_2
_geom_bond_site_symmetry_1
_geom_bond_site_symmetry_2
Bi1 O1 1_555 1_555
O1 C1 1_555 1_555
O2 C1 1_555 1_555
O3 Bi1 1_555 1_555
O4 C3 1_555 1_555
O5 C4 1_555 1_555
O6 C4 1_555 1_555
C1 C2 1_555 1_555
C2 O3 1_555 1_555
C3 C2 1_555 1_555
C4 C3 1_555 1_555
O7 Bi1 1_555 1_555
O8 C5 1_555 1_555
O9 Bi1 1_555 1_555
O10 C7 1_555 1_555
O11 C8 1_555 1_555
O12 C8 1_555 1_555
C5 O7 1_555 1_555
C6 O9 1_555 1_555
C7 C6 1_555 1_555
C8 C7 1_555 1_555
O13 Bi1 1_555 1_555
H1 C2 1_555 1_555
H2 C3 1_555 1_555
H3 C6 1_555 1_555
H4 C7 1_555 1_555
O8A Bi1 1_555 1_555
O10A Bi1 1_555 1_555
O11A Bi1 1_555 1_555
Bi1A O8 1_555 1_555
Bi1A_2 O10 1_555 1_555
O11 Bi1A_2 1_555 1_555
C5 C6 1_555 1_555

#END
