
#######################################################################
#
#                 Cambridge Crystallographic Data Centre
#                                CCDC 
#
#######################################################################
#
# If this CIF has been generated from an entry in the Cambridge 
# Structural Database, then it will include bibliographic, chemical, 
# crystal, experimental, refinement or atomic coordinate data resulting 
# from the CCDC's data processing and validation procedures.
#
#######################################################################

data_JUYVOO
_symmetry_cell_setting           trigonal
_symmetry_space_group_name_H-M   'P 31 2 1'
_symmetry_Int_Tables_number      152
_space_group_name_Hall           'P 31 2"'
loop_
_symmetry_equiv_pos_site_id
_symmetry_equiv_pos_as_xyz
1 x,y,z
2 -y,x-y,1/3+z
3 -x+y,-x,2/3+z
4 y,x,-z
5 x-y,-y,2/3-z
6 -x,-x+y,1/3-z
_cell_length_a                   9.9629(4)
_cell_length_b                   9.9629(4)
_cell_length_c                   11.6744(9)
_cell_angle_alpha                90
_cell_angle_beta                 90
_cell_angle_gamma                120
_cell_volume                     1003.54
loop_
_atom_site_label
_atom_site_type_symbol
_atom_site_fract_x
_atom_site_fract_y
_atom_site_fract_z
Bi1 Bi -0.44005(5) -0.21111(4) -0.13195(3)
O1 O -0.3535(8) -0.0323(7) -0.2715(5)
O2 O -0.519(1) -0.3334(9) -0.3166(7)
O3 O -0.521(1) -0.305(1) -0.5025(7)
O4 O 0.022(1) 0.190(1) -0.505(1)
O5 O -0.138(1) 0.242(1) -0.4109(8)
C1 C -0.478(1) -0.250(1) -0.4037(9)
C2 C -0.369(1) -0.074(1) -0.3895(8)
C3 C -0.214(1) -0.024(1) -0.446(1)
C4 C -0.104(1) 0.149(1) -0.4528(9)
H1 H -0.413(1) -0.015(1) -0.4213(8)
H2 H -0.165(1) -0.068(1) -0.403(1)
H3 H -0.233(1) -0.064(1) -0.523(1)
O1D O -0.3212(11) 0.0323(7) -0.0618(5)
Bi1D Bi -0.22894(6) 0.21111(4) -0.20138(3)
O3A O -0.695(1) -0.216(1) -0.1692(7)
O5D O -0.380(1) -0.242(1) 0.0776(8)
Bi1B Bi -0.77106(6) -0.55995(5) -0.46528(3)
O4A O -0.190(1) -0.168(1) -0.172(1)
Bi1B_2 Bi 0.22894(6) 0.44005(5) -0.46528(3)
O6 O -0.660(1) -0.501(1) -0.0441(9)
loop_
_geom_bond_atom_site_label_1
_geom_bond_atom_site_label_2
_geom_bond_site_symmetry_1
_geom_bond_site_symmetry_2
Bi1 O1 1_555 1_555
O1 C2 1_555 1_555
O2 Bi1 1_555 1_555
O3 C1 1_555 1_555
O4 C4 1_555 1_555
O5 C4 1_555 1_555
C1 O2 1_555 1_555
C2 C1 1_555 1_555
C3 C2 1_555 1_555
C4 C3 1_555 1_555
H1 C2 1_555 1_555
H2 C3 1_555 1_555
H3 C3 1_555 1_555
O1D Bi1 1_555 1_555
Bi1D O1 1_555 1_555
O3A Bi1 1_555 1_555
O5D Bi1 1_555 1_555
Bi1B O3 1_555 1_555
O4A Bi1 1_555 1_555
Bi1B_2 O4 1_555 1_555
O5 Bi1D 1_555 1_555
O1D Bi1D 1_555 1_555

#END
