
#######################################################################
#
#                 Cambridge Crystallographic Data Centre
#                                CCDC 
#
#######################################################################
#
# If this CIF has been generated from an entry in the Cambridge 
# Structural Database, then it will include bibliographic, chemical, 
# crystal, experimental, refinement or atomic coordinate data resulting 
# from the CCDC's data processing and validation procedures.
#
#######################################################################

data_JUZGIU
_symmetry_cell_setting           orthorhombic
_symmetry_space_group_name_H-M   'P b c n'
_symmetry_Int_Tables_number      60
_space_group_name_Hall           '-P 2n 2ab'
loop_
_symmetry_equiv_pos_site_id
_symmetry_equiv_pos_as_xyz
1 x,y,z
2 1/2-x,1/2+y,z
3 x,-y,1/2+z
4 1/2-x,1/2-y,1/2+z
5 -x,-y,-z
6 1/2+x,1/2-y,-z
7 -x,y,1/2-z
8 1/2+x,1/2+y,1/2-z
_cell_length_a                   9.386(2)
_cell_length_b                   9.329(2)
_cell_length_c                   15.940(2)
_cell_angle_alpha                90
_cell_angle_beta                 90
_cell_angle_gamma                90
_cell_volume                     1395.74
loop_
_atom_site_label
_atom_site_type_symbol
_atom_site_fract_x
_atom_site_fract_y
_atom_site_fract_z
Mn1 Mn 0.0000 0.22877(6) 0.25000
S1 S 0.1829(2) 0.4014(1) -0.01613(7)
N1 N 0.1656(3) 0.3910(3) 0.2840(2)
N2 N 0.2695(3) 0.3500(3) 0.3415(2)
N3 N 0.1513(3) 0.0484(3) 0.2854(2)
C1 C 0.2194(3) 0.5103(3) 0.2527(2)
C2 C 0.3754(3) 0.4420(3) 0.3408(2)
N4 N 0.4941(4) 0.4284(3) 0.3872(2)
N5 N 0.1522(3) 0.5908(3) 0.1947(2)
N6 N 0.0781(3) 0.2435(3) 0.1180(2)
C3 C 0.1202(4) 0.3078(4) 0.0613(2)
H1 H 0.257 0.273 0.378
H2 H 0.489 0.364 0.425
H3 H 0.550 0.502 0.398
H4 H 0.081 0.565 0.169
H5 H 0.196 0.659 0.167
N1F N -0.1656(3) 0.3910(3) 0.2160(2)
N3F N -0.1513(3) 0.0484(3) 0.2146(2)
N6F N -0.0781(3) 0.2435(3) 0.3820(2)
C1A C 0.2806(3) 0.0103(3) 0.2527(2)
C2A C 0.1246(3) -0.0580(3) 0.3408(2)
N3A N 0.3487(3) 0.5484(3) 0.2854(2)
C3F C -0.1202(4) 0.3078(4) 0.4387(2)
N1A N 0.3344(3) -0.1090(3) 0.2840(2)
N5A N 0.3478(3) 0.0908(3) 0.1947(2)
N2A N 0.2305(3) -0.1500(3) 0.3415(2)
N4A N 0.0059(4) -0.0716(3) 0.3872(2)
Mn1A Mn 0.5000 0.72877(6) 0.25000
S1F S -0.1829(2) 0.4014(1) 0.51613(7)
Mn1A_2 Mn 0.5000 -0.27123(6) 0.25000
H4A H 0.419 0.065 0.169
H5A H 0.304 0.159 0.167
H1A H 0.243 -0.227 0.378
H2A H 0.011 -0.136 0.425
H3A H -0.050 0.002 0.398
loop_
_geom_bond_atom_site_label_1
_geom_bond_atom_site_label_2
_geom_bond_site_symmetry_1
_geom_bond_site_symmetry_2
Mn1 N1 1_555 1_555
S1 C3 1_555 1_555
N1 N2 1_555 1_555
N2 C2 1_555 1_555
N3 Mn1 1_555 1_555
C1 N1 1_555 1_555
C2 N4 1_555 1_555
N4 H2 1_555 1_555
N5 C1 1_555 1_555
N6 Mn1 1_555 1_555
C3 N6 1_555 1_555
H1 N2 1_555 1_555
H3 N4 1_555 1_555
H4 N5 1_555 1_555
H5 N5 1_555 1_555
N1F Mn1 1_555 1_555
N3F Mn1 1_555 1_555
N6F Mn1 1_555 1_555
C1A N3 1_555 1_555
C2A N3 1_555 1_555
N3A C1 1_555 1_555
C3F N6F 1_555 1_555
N1A C1A 1_555 1_555
N5A C1A 1_555 1_555
N2A C2A 1_555 1_555
N4A C2A 1_555 1_555
Mn1A N3A 1_555 1_555
S1F C3F 1_555 1_555
Mn1A_2 N1A 1_555 1_555
H4A N5A 1_555 1_555
H5A N5A 1_555 1_555
H1A N2A 1_555 1_555
H2A N4A 1_555 1_555
H3A N4A 1_555 1_555
C2 N3A 1_555 1_555
N1A N2A 1_555 1_555

#END
