
#######################################################################
#
#                 Cambridge Crystallographic Data Centre
#                                CCDC 
#
#######################################################################
#
# If this CIF has been generated from an entry in the Cambridge 
# Structural Database, then it will include bibliographic, chemical, 
# crystal, experimental, refinement or atomic coordinate data resulting 
# from the CCDC's data processing and validation procedures.
#
#######################################################################

data_JUZXEH
_symmetry_cell_setting           monoclinic
_symmetry_space_group_name_H-M   'I 2/a'
_symmetry_Int_Tables_number      15
_space_group_name_Hall           '-I 2ya'
loop_
_symmetry_equiv_pos_site_id
_symmetry_equiv_pos_as_xyz
1 x,y,z
2 1/2+x,1/2+y,1/2+z
3 1/2+x,-y,z
4 x,1/2-y,1/2+z
5 -x,-y,-z
6 1/2-x,1/2-y,1/2-z
7 1/2-x,y,-z
8 -x,1/2+y,1/2-z
_cell_length_a                   24.1596(18)
_cell_length_b                   12.5832(9)
_cell_length_c                   14.9739(11)
_cell_angle_alpha                90
_cell_angle_beta                 91.791(2)
_cell_angle_gamma                90
_cell_volume                     4549.92
loop_
_atom_site_label
_atom_site_type_symbol
_atom_site_fract_x
_atom_site_fract_y
_atom_site_fract_z
Co1 Co 0.5000 0.0000 0.5000
Co2 Co 0.0000 0.0000 0.0000
C1 C 0.39041(17) 0.0032(3) 0.3857(2)
H1 H 0.4069 -0.0577 0.3600
C2 C 0.33862(17) 0.0334(3) 0.3537(3)
H2 H 0.3198 -0.0064 0.3082
C3 C 0.31476(16) 0.1232(3) 0.3897(2)
C4 C 0.34384(16) 0.1781(3) 0.4573(2)
H3 H 0.3286 0.2400 0.4833
C5 C 0.39488(16) 0.1408(3) 0.4852(3)
H4 H 0.4142 0.1782 0.5316
C6 C 0.26036(16) 0.1620(3) 0.3583(2)
C7 C 0.18382(16) 0.1612(3) 0.2837(2)
C8 C 0.05352(16) 0.1438(3) 0.1443(2)
H5 H 0.0200 0.1825 0.1354
C9 C 0.09204(16) 0.1798(3) 0.2082(2)
H6 H 0.0850 0.2413 0.2428
C10 C 0.14126(16) 0.1234(3) 0.2203(2)
C11 C 0.14988(17) 0.0338(3) 0.1689(2)
H7 H 0.1833 -0.0056 0.1754
C12 C 0.10891(16) 0.0029(3) 0.1079(3)
H8 H 0.1146 -0.0596 0.0737
C13 C 0.4792(2) -0.0659(4) 0.6995(3)
H9 H 0.4839 -0.1354 0.6711
H10 H 0.4462 -0.0672 0.7358
H11 H 0.5118 -0.0500 0.7377
C14 C -0.10046(18) -0.0684(3) 0.1154(3)
H12 H -0.0870 -0.1371 0.0941
H13 H -0.1366 -0.0530 0.0869
H14 H -0.1041 -0.0711 0.1804
N1 N 0.41912(13) 0.0543(3) 0.4509(2)
N2 N 0.23682(12) 0.2512(3) 0.37556(19)
N3 N 0.18622(12) 0.2506(3) 0.32654(19)
N4 N 0.06160(13) 0.0566(2) 0.0947(2)
O1 O 0.22955(11) 0.0999(2) 0.30080(16)
O2 O 0.47284(11) 0.0155(2) 0.63100(17)
H18 H 0.4843(16) 0.0798(19) 0.646(2)
O3 O -0.06180(11) 0.0136(2) 0.09313(18)
H19 H -0.0674(17) 0.070(2) 0.123(2)
S1 S 0.53598(4) 0.24264(9) 0.56721(7)
O4 O 0.59631(12) 0.2559(3) 0.5732(2)
O5 O 0.51011(11) 0.3410(2) 0.53496(17)
O6 O 0.52351(11) 0.1574(2) 0.50126(17)
O7 O 0.51381(15) 0.2127(2) 0.65292(18)
C1D C 0.60959(17) -0.0032(3) 0.6143(2)
H1D H 0.5931 0.0577 0.6400
C2D C 0.66138(17) -0.0334(3) 0.6463(3)
H2D H 0.6802 0.0064 0.6918
C3D C 0.68524(16) -0.1232(3) 0.6103(2)
C4D C 0.65616(16) -0.1781(3) 0.5427(2)
H3D H 0.6714 -0.2400 0.5167
C5D C 0.60512(16) -0.1408(3) 0.5148(3)
H4D H 0.5858 -0.1782 0.4684
C6D C 0.73964(16) -0.1620(3) 0.6417(2)
C7D C 0.81618(16) -0.1612(3) 0.7163(2)
C8D C 0.94648(16) -0.1438(3) 0.8557(2)
H5D H 0.9800 -0.1825 0.8646
C9D C 0.90796(16) -0.1798(3) 0.7918(2)
H6D H 0.9150 -0.2413 0.7572
C10D C 0.85874(16) -0.1234(3) 0.7797(2)
C11D C 0.85012(17) -0.0338(3) 0.8311(2)
H7D H 0.8167 0.0056 0.8246
C12D C 0.89109(16) -0.0029(3) 0.8921(3)
H8D H 0.8854 0.0596 0.9263
N1D N 0.58088(13) -0.0543(3) 0.5491(2)
N2D N 0.76318(12) -0.2512(3) 0.62444(19)
N3D N 0.81378(12) -0.2506(3) 0.67346(19)
N4D N 0.93840(13) -0.0566(2) 0.9053(2)
O1D O 0.77045(11) -0.0999(2) 0.69920(16)
C13D C 0.5208(2) 0.0659(4) 0.3005(3)
H9D H 0.5161 0.1354 0.3289
H10D H 0.5538 0.0672 0.2642
H11D H 0.4882 0.0500 0.2623
O2D O 0.52716(11) -0.0155(2) 0.36900(17)
H18D H 0.5157(16) -0.0798(19) 0.354(2)
S1D S 0.46402(4) -0.24264(9) 0.43279(7)
O4D O 0.40369(12) -0.2559(3) 0.4268(2)
O5D O 0.48989(11) -0.3410(2) 0.46504(17)
O6D O 0.47649(11) -0.1574(2) 0.49874(17)
O7D O 0.48619(15) -0.2127(2) 0.34708(18)
C14D C 0.10046(18) 0.0684(3) -0.1154(3)
H12D H 0.0870 0.1371 -0.0941
H13D H 0.1366 0.0530 -0.0869
H14D H 0.1041 0.0711 -0.1804
O3D O 0.06180(11) -0.0136(2) -0.09313(18)
H19D H 0.0674(17) -0.070(2) -0.123(2)
N4D_2 N -0.06160(13) -0.0566(2) -0.0947(2)
O5A O 0.01011(11) -0.1590(2) 0.03496(17)
O5E O -0.01011(11) 0.1590(2) -0.03496(17)
Co2A Co 0.5000 0.5000 0.5000
Co2_2 Co 1.0000 0.0000 1.0000
Co2A_2 Co 0.5000 -0.5000 0.5000
C15 C 0.6738(3) 0.1098(5) 0.4114(4)
H15 H 0.6997 0.0970 0.4621
H16 H 0.6932 0.1010 0.3554
H17 H 0.6432 0.0588 0.4133
O9 O 0.6526(2) 0.2148(4) 0.4165(3)
H22 H 0.6346 0.2222 0.4743
O8 O 0.41242(17) 0.6686(3) 0.6999(2)
H20 H 0.3870(17) 0.713(3) 0.674(3)
H21 H 0.4267(19) 0.693(4) 0.751(2)
O10 O 0.6994(4) 0.2564(7) 0.6723(6)
O12 O 0.7304(7) 0.3978(13) 0.4064(19)
O11? O 0.7328(11) 0.4477(17) 0.4894(16)
O13? O 0.7361(6) 0.3452(11) 0.3005(9)
loop_
_geom_bond_atom_site_label_1
_geom_bond_atom_site_label_2
_geom_bond_site_symmetry_1
_geom_bond_site_symmetry_2
Co1 N1 1_555 1_555
Co2 N4 1_555 1_555
C1 H1 1_555 1_555
C2 C1 1_555 1_555
H2 C2 1_555 1_555
C3 C2 1_555 1_555
C4 C3 1_555 1_555
H3 C4 1_555 1_555
C5 C4 1_555 1_555
H4 C5 1_555 1_555
C6 C3 1_555 1_555
C7 C10 1_555 1_555
C8 H5 1_555 1_555
C9 C8 1_555 1_555
H6 C9 1_555 1_555
C10 C9 1_555 1_555
C11 C10 1_555 1_555
H7 C11 1_555 1_555
C12 C11 1_555 1_555
H8 C12 1_555 1_555
C13 H9 1_555 1_555
H10 C13 1_555 1_555
H11 C13 1_555 1_555
C14 H12 1_555 1_555
H13 C14 1_555 1_555
H14 C14 1_555 1_555
C15 H15 1_555 1_555
H16 C15 1_555 1_555
H17 C15 1_555 1_555
N1 C1 1_555 1_555
N2 C6 1_555 1_555
N3 C7 1_555 1_555
N4 C8 1_555 1_555
O1 C6 1_555 1_555
O2 Co1 1_555 1_555
H18 O2 1_555 1_555
O3 Co2 1_555 1_555
H19 O3 1_555 1_555
S1 O4 1_555 1_555
O5 S1 1_555 1_555
O6 Co1 1_555 1_555
O7 S1 1_555 1_555
O8 H20 1_555 1_555
H21 O8 1_555 1_555
O9 C15 1_555 1_555
H22 O9 1_555 1_555
C1D H1D 1_555 1_555
C2D C1D 1_555 1_555
H2D C2D 1_555 1_555
C3D C2D 1_555 1_555
C4D C3D 1_555 1_555
H3D C4D 1_555 1_555
C5D C4D 1_555 1_555
H4D C5D 1_555 1_555
C6D C3D 1_555 1_555
C7D C10D 1_555 1_555
C8D H5D 1_555 1_555
C9D C8D 1_555 1_555
H6D C9D 1_555 1_555
C10D C9D 1_555 1_555
C11D C10D 1_555 1_555
H7D C11D 1_555 1_555
C12D C11D 1_555 1_555
H8D C12D 1_555 1_555
N1D Co1 1_555 1_555
N2D C6D 1_555 1_555
N3D C7D 1_555 1_555
N4D C8D 1_555 1_555
O1D C6D 1_555 1_555
C13D H9D 1_555 1_555
H10D C13D 1_555 1_555
H11D C13D 1_555 1_555
O2D Co1 1_555 1_555
H18D O2D 1_555 1_555
S1D O4D 1_555 1_555
O5D S1D 1_555 1_555
O6D Co1 1_555 1_555
O7D S1D 1_555 1_555
C14D H12D 1_555 1_555
H13D C14D 1_555 1_555
H14D C14D 1_555 1_555
O3D Co2 1_555 1_555
H19D O3D 1_555 1_555
N4D_2 Co2 1_555 1_555
O5A Co2 1_555 1_555
O5E Co2 1_555 1_555
Co2A O5 1_555 1_555
Co2_2 N4D 1_555 1_555
Co2A_2 O5D 1_555 1_555
C5 N1 1_555 1_555
C7 O1 1_555 1_555
C12 N4 1_555 1_555
C13 O2 1_555 1_555
C14 O3 1_555 1_555
N2 N3 1_555 1_555
S1 O6 1_555 1_555
C1D N1D 1_555 1_555
C5D N1D 1_555 1_555
C7D O1D 1_555 1_555
C12D N4D 1_555 1_555
N2D N3D 1_555 1_555
C13D O2D 1_555 1_555
S1D O6D 1_555 1_555
C14D O3D 1_555 1_555

#END
