
#######################################################################
#
#                 Cambridge Crystallographic Data Centre
#                                CCDC 
#
#######################################################################
#
# If this CIF has been generated from an entry in the Cambridge 
# Structural Database, then it will include bibliographic, chemical, 
# crystal, experimental, refinement or atomic coordinate data resulting 
# from the CCDC's data processing and validation procedures.
#
#######################################################################

data_JUZXAD
_symmetry_cell_setting           orthorhombic
_symmetry_space_group_name_H-M   'P 21 21 21'
_symmetry_Int_Tables_number      19
_space_group_name_Hall           'P 2ac 2ab'
loop_
_symmetry_equiv_pos_site_id
_symmetry_equiv_pos_as_xyz
1 x,y,z
2 1/2-x,-y,1/2+z
3 -x,1/2+y,1/2-z
4 1/2+x,1/2-y,-z
_cell_length_a                   5.5067(3)
_cell_length_b                   10.5119(5)
_cell_length_c                   28.1794(14)
_cell_angle_alpha                90
_cell_angle_beta                 90
_cell_angle_gamma                90
_cell_volume                     1631.19
loop_
_atom_site_label
_atom_site_type_symbol
_atom_site_fract_x
_atom_site_fract_y
_atom_site_fract_z
Cu1 Cu -0.23357(6) -0.48094(3) 0.240510(11)
S1 S -0.66017(13) -0.28963(7) 0.21255(2)
C1 C -0.4809(6) -0.5944(3) 0.16075(10)
H1 H -0.5782 -0.6252 0.1852
C2 C -0.5515(5) -0.6161(3) 0.11476(10)
H2 H -0.6946 -0.6598 0.1083
C3 C -0.4066(6) -0.5722(3) 0.07792(10)
C4 C -0.1925(6) -0.5110(3) 0.08931(10)
H3 H -0.0880 -0.4836 0.0655
C5 C -0.1352(6) -0.4909(3) 0.13628(11)
H4 H 0.0079 -0.4482 0.1436
C6 C -0.4919(6) -0.5960(3) 0.02965(10)
C7 C -0.4934(6) -0.6058(3) -0.04482(10)
C8 C -0.5097(6) -0.6281(3) -0.17556(10)
H5 H -0.6145 -0.6610 -0.1984
C9 C -0.5677(6) -0.6433(3) -0.12878(10)
H6 H -0.7086 -0.6862 -0.1201
C10 C -0.4139(6) -0.5941(3) -0.09448(10)
C11 C -0.2007(6) -0.5369(3) -0.10859(10)
H7 H -0.0905 -0.5066 -0.0863
C12 C -0.1540(5) -0.5255(3) -0.15659(10)
H8 H -0.0101 -0.4870 -0.1662
N1 N -0.2783(4) -0.5307(2) 0.17209(8)
N2 N -0.6979(5) -0.6431(3) 0.01835(8)
N3 N -0.6994(5) -0.6500(3) -0.03115(9)
N4 N -0.3084(4) -0.5679(2) -0.19007(8)
O1 O -0.3486(4) -0.5683(2) -0.00846(7)
O2 O 0.0723(4) -0.5797(2) 0.24185(8)
H9 H 0.210(3) -0.549(4) 0.2467(14)
H10 H 0.061(6) -0.643(2) 0.2596(10)
O3 O -0.5572(3) -0.40130(19) 0.23986(7)
O4 O -0.5734(4) -0.1730(2) 0.23520(8)
O5 O -0.9274(4) -0.3004(2) 0.21687(8)
O6 O -0.5866(5) -0.2973(2) 0.16333(8)
N4A N -0.1916(4) -0.4321(2) 0.30993(8)
Cu1A Cu -0.26643(6) -0.51906(3) -0.259490(11)
Cu1B Cu -0.76643(6) 0.01906(3) 0.259490(11)
O4B O -0.4266(4) -0.6730(2) 0.26480(8)
O7 O -0.1859(11) -0.1737(5) 0.1208(2)
O8 O -0.161(6) -0.188(3) 0.0164(12)
O10 O -0.2812(19) -0.2238(9) -0.0707(4)
O9? O -0.344(8) -0.182(3) 0.0270(11)
loop_
_geom_bond_atom_site_label_1
_geom_bond_atom_site_label_2
_geom_bond_site_symmetry_1
_geom_bond_site_symmetry_2
Cu1 N1 1_555 1_555
S1 O3 1_555 1_555
C1 H1 1_555 1_555
C2 C1 1_555 1_555
H2 C2 1_555 1_555
C3 C2 1_555 1_555
C4 C3 1_555 1_555
H3 C4 1_555 1_555
C5 C4 1_555 1_555
H4 C5 1_555 1_555
C6 C3 1_555 1_555
C7 C10 1_555 1_555
C8 H5 1_555 1_555
C9 C8 1_555 1_555
H6 C9 1_555 1_555
C10 C9 1_555 1_555
C11 C10 1_555 1_555
H7 C11 1_555 1_555
C12 C11 1_555 1_555
H8 C12 1_555 1_555
N1 C1 1_555 1_555
N2 C6 1_555 1_555
N3 C7 1_555 1_555
N4 C8 1_555 1_555
O1 C6 1_555 1_555
O2 Cu1 1_555 1_555
H9 O2 1_555 1_555
H10 O2 1_555 1_555
O3 Cu1 1_555 1_555
O4 S1 1_555 1_555
O5 S1 1_555 1_555
O6 S1 1_555 1_555
N4A Cu1 1_555 1_555
Cu1A N4 1_555 1_555
Cu1B O4 1_555 1_555
O4B Cu1 1_555 1_555
C5 N1 1_555 1_555
C7 O1 1_555 1_555
C12 N4 1_555 1_555
N2 N3 1_555 1_555

#END
