
#######################################################################
#
#                 Cambridge Crystallographic Data Centre
#                                CCDC 
#
#######################################################################
#
# If this CIF has been generated from an entry in the Cambridge 
# Structural Database, then it will include bibliographic, chemical, 
# crystal, experimental, refinement or atomic coordinate data resulting 
# from the CCDC's data processing and validation procedures.
#
#######################################################################

data_JUZXAD01
_symmetry_cell_setting           orthorhombic
_symmetry_space_group_name_H-M   'P 21 21 21'
_symmetry_Int_Tables_number      19
_space_group_name_Hall           'P 2ac 2ab'
loop_
_symmetry_equiv_pos_site_id
_symmetry_equiv_pos_as_xyz
1 x,y,z
2 1/2-x,-y,1/2+z
3 -x,1/2+y,1/2-z
4 1/2+x,1/2-y,-z
_cell_length_a                   5.5102(19)
_cell_length_b                   10.576(4)
_cell_length_c                   28.344(10)
_cell_angle_alpha                90
_cell_angle_beta                 90
_cell_angle_gamma                90
_cell_volume                     1651.77
loop_
_atom_site_label
_atom_site_type_symbol
_atom_site_fract_x
_atom_site_fract_y
_atom_site_fract_z
Cu1 Cu 0.73165(10) 0.52103(5) 0.759752(18)
S1 S 1.1606(2) 0.71187(13) 0.78756(4)
N1 N 0.7760(7) 0.4716(4) 0.82813(11)
O1 O 0.8478(5) 0.4326(3) 1.00876(11)
O2 O 1.0580(5) 0.5998(3) 0.76067(12)
O3 O 1.0892(6) 0.7061(4) 0.83681(12)
O4 O 1.4312(5) 0.7000(4) 0.78290(12)
O5 O 1.0737(5) 0.8286(3) 0.76491(12)
O6 O 0.4255(5) 0.4205(3) 0.75771(11)
C1 C 0.9787(9) 0.4059(5) 0.83998(16)
H1 H 1.0743 0.3737 0.8158
C2 C 1.0499(9) 0.3844(5) 0.88518(17)
H2 H 1.1932 0.3411 0.8915
C3 C 0.9034(9) 0.4286(5) 0.92212(16)
C4 C 0.6901(9) 0.4919(5) 0.91114(15)
H3 H 0.5869 0.5203 0.9348
C5 C 0.6342(8) 0.5120(5) 0.86358(16)
H4 H 0.4923 0.5554 0.8562
C6 C 0.9904(10) 0.4064(5) 0.97039(17)
N2 N 1.1997(8) 0.3593(4) 0.98225(13)
N3 N 1.2008(8) 0.3516(4) 1.03124(13)
C7 C 0.9924(9) 0.3954(5) 1.04557(17)
N4 N 0.8090(7) 0.4301(3) 1.19038(12)
C8 C 0.9152(9) 0.4052(5) 1.09408(17)
C9 C 0.7011(9) 0.4635(5) 1.10883(15)
H5 H 0.5903 0.4941 1.0869
C10 C 0.6563(8) 0.4751(5) 1.15684(15)
H6 H 0.5149 0.5156 1.1664
C11 C 1.0115(9) 0.3702(5) 1.17548(16)
H7 H 1.1171 0.3371 1.1979
C12 C 1.0677(9) 0.3562(5) 1.12860(18)
H8 H 1.2086 0.3137 1.1199
O4_2 O 0.4312(5) 0.7000(4) 0.78290(12)
O5B O 0.9263(5) 0.3286(3) 0.73509(12)
N4A N 0.6910(7) 0.5699(3) 0.69038(12)
Cu1_2 Cu 1.73165(10) 0.52103(5) 0.759752(18)
Cu1B Cu 1.26835(10) 1.02103(5) 0.740248(18)
Cu1A Cu 0.76835(10) 0.47897(5) 1.259752(18)
O7 O 0.6817(13) 0.8240(5) 0.8800(3)
O8 O 0.255(4) 0.7243(12) 0.9311(5)
O9 O 0.682(4) 0.8079(14) 0.9786(5)
loop_
_geom_bond_atom_site_label_1
_geom_bond_atom_site_label_2
_geom_bond_site_symmetry_1
_geom_bond_site_symmetry_2
Cu1 N1 1_555 1_555
S1 O2 1_555 1_555
N1 C1 1_555 1_555
O1 C6 1_555 1_555
O2 Cu1 1_555 1_555
O3 S1 1_555 1_555
O4 S1 1_555 1_555
O5 S1 1_555 1_555
O6 Cu1 1_555 1_555
C1 H1 1_555 1_555
C2 C1 1_555 1_555
H2 C2 1_555 1_555
C3 C2 1_555 1_555
C4 C3 1_555 1_555
H3 C4 1_555 1_555
C5 N1 1_555 1_555
H4 C5 1_555 1_555
C6 C3 1_555 1_555
N2 C6 1_555 1_555
N3 N2 1_555 1_555
C7 O1 1_555 1_555
N4 C10 1_555 1_555
C8 C7 1_555 1_555
C9 C8 1_555 1_555
H5 C9 1_555 1_555
C10 C9 1_555 1_555
H6 C10 1_555 1_555
C11 N4 1_555 1_555
H7 C11 1_555 1_555
C12 C8 1_555 1_555
H8 C12 1_555 1_555
O4_2 Cu1 1_555 1_555
O5B Cu1 1_555 1_555
N4A Cu1 1_555 1_555
Cu1_2 O4 1_555 1_555
Cu1B O5 1_555 1_555
Cu1A N4 1_555 1_555
C4 C5 1_555 1_555
N3 C7 1_555 1_555
C11 C12 1_555 1_555

#END
