
#######################################################################
#
#                 Cambridge Crystallographic Data Centre
#                                CCDC 
#
#######################################################################
#
# If this CIF has been generated from an entry in the Cambridge 
# Structural Database, then it will include bibliographic, chemical, 
# crystal, experimental, refinement or atomic coordinate data resulting 
# from the CCDC's data processing and validation procedures.
#
#######################################################################

data_KABRUC
_symmetry_cell_setting           monoclinic
_symmetry_space_group_name_H-M   'P 21/c'
_symmetry_Int_Tables_number      14
_space_group_name_Hall           '-P 2ybc'
loop_
_symmetry_equiv_pos_site_id
_symmetry_equiv_pos_as_xyz
1 x,y,z
2 -x,1/2+y,1/2-z
3 -x,-y,-z
4 x,1/2-y,1/2+z
_cell_length_a                   6.8858(2)
_cell_length_b                   17.6792(4)
_cell_length_c                   14.1436(3)
_cell_angle_alpha                90
_cell_angle_beta                 112.2720(10)
_cell_angle_gamma                90
_cell_volume                     1593.32
loop_
_atom_site_label
_atom_site_type_symbol
_atom_site_fract_x
_atom_site_fract_y
_atom_site_fract_z
Hg1 Hg 0.15598(3) 0.212818(10) 0.669803(12)
Hg2 Hg 0.0000 0.0000 0.5000
Cl1 Cl -0.0210(2) 0.04409(7) 0.65105(9)
O1 O 0.5276(6) 0.1853(2) 0.6740(3)
H1 H 0.592(11) 0.207(4) 0.710(5)
H2 H 0.508(9) 0.212(3) 0.619(5)
N1 N 0.0111(6) 0.20821(19) 0.5123(3)
N2 N 0.0189(6) 0.1505(2) 0.4508(3)
N3 N -0.0820(6) 0.1710(2) 0.3574(3)
N4 N -0.1538(6) 0.2429(2) 0.3543(3)
N5 N -0.0948(6) 0.3381(2) 0.5898(3)
N6 N -0.2596(7) 0.4628(2) 0.4633(3)
N7 N 0.7256(6) -0.29250(19) 0.6728(2)
N8 N 0.7341(6) -0.3518(2) 0.6153(3)
N9 N 0.6395(6) -0.3322(2) 0.5193(3)
N10 N 0.5660(6) -0.2607(2) 0.5135(3)
N11 N 0.6373(6) -0.1563(2) 0.7449(3)
N12 N 0.4221(7) -0.0415(2) 0.6121(3)
C1 C -0.0951(7) 0.2639(2) 0.4507(3)
C2 C -0.1373(6) 0.3361(2) 0.4896(3)
C3 C -0.2158(8) 0.3975(3) 0.4274(4)
H3 H -0.2393 0.3937 0.3583
C4 C -0.2181(8) 0.4643(3) 0.5632(4)
H4 H -0.2461 0.5084 0.5915
C5 C -0.1353(8) 0.4033(3) 0.6263(4)
H5 H -0.1072 0.4077 0.6958
C6 C 0.6228(6) -0.2377(2) 0.6091(3)
C7 C 0.5768(7) -0.1639(2) 0.6440(3)
C8 C 0.4723(7) -0.1061(3) 0.5778(3)
H6 H 0.4363 -0.1126 0.5080
C9 C 0.4851(8) -0.0351(3) 0.7121(4)
H7 H 0.4546 0.0093 0.7389
C10 C 0.5939(8) -0.0910(3) 0.7787(4)
H8 H 0.6377 -0.0829 0.8487
Hg1B Hg -0.15598(3) -0.212818(10) 0.330197(12)
Hg1A Hg 0.84402(3) -0.287182(10) 0.830197(12)
Hg1C Hg -0.84402(3) 0.287182(10) 0.169803(12)
Cl1B Cl 0.0210(2) -0.04409(7) 0.34895(9)
O1B O -0.5276(6) -0.1853(2) 0.3260(3)
H1B H -0.592(11) -0.207(4) 0.290(5)
H2B H -0.508(9) -0.212(3) 0.381(5)
N1B N -0.0111(6) -0.20821(19) 0.4877(3)
N2B N -0.0189(6) -0.1505(2) 0.5492(3)
N3B N 0.0820(6) -0.1710(2) 0.6426(3)
N4B N 0.1538(6) -0.2429(2) 0.6457(3)
N5B N 0.0948(6) -0.3381(2) 0.4102(3)
N6B N 0.2596(7) -0.4628(2) 0.5367(3)
N7B N -0.7256(6) 0.29250(19) 0.3272(2)
N7A N 0.2744(6) 0.20750(19) 0.8272(2)
N7C N -0.2744(6) -0.20750(19) 0.1728(2)
N8B N -0.7341(6) 0.3518(2) 0.3847(3)
N9B N -0.6395(6) 0.3322(2) 0.4807(3)
N10B N -0.5660(6) 0.2607(2) 0.4865(3)
N11B N -0.6373(6) 0.1563(2) 0.2551(3)
N11A N 0.3627(6) 0.3437(2) 0.7551(3)
N11C N -0.3627(6) -0.3437(2) 0.2449(3)
N12B N -0.4221(7) 0.0415(2) 0.3879(3)
C1B C 0.0951(7) -0.2639(2) 0.5493(3)
C2B C 0.1373(6) -0.3361(2) 0.5104(3)
C3B C 0.2158(8) -0.3975(3) 0.5726(4)
H3B H 0.2393 -0.3937 0.6417
C4B C 0.2181(8) -0.4643(3) 0.4368(4)
H4B H 0.2461 -0.5084 0.4085
C5B C 0.1353(8) -0.4033(3) 0.3737(4)
H5B H 0.1072 -0.4077 0.3042
C6B C -0.6228(6) 0.2377(2) 0.3909(3)
C7B C -0.5768(7) 0.1639(2) 0.3560(3)
C8B C -0.4723(7) 0.1061(3) 0.4222(3)
H6B H -0.4363 0.1126 0.4920
C9B C -0.4851(8) 0.0351(3) 0.2879(4)
H7B H -0.4546 -0.0093 0.2611
C10B C -0.5939(8) 0.0910(3) 0.2213(4)
H8B H -0.6377 0.0829 0.1513
loop_
_geom_bond_atom_site_label_1
_geom_bond_atom_site_label_2
_geom_bond_site_symmetry_1
_geom_bond_site_symmetry_2
Hg1 O1 1_555 1_555
Hg2 Cl1 1_555 1_555
O1 H1 1_555 1_555
H2 O1 1_555 1_555
N1 Hg1 1_555 1_555
N2 Hg2 1_555 1_555
N3 N2 1_555 1_555
N4 N3 1_555 1_555
N5 Hg1 1_555 1_555
N6 C3 1_555 1_555
N7 N8 1_555 1_555
N8 N9 1_555 1_555
N9 N10 1_555 1_555
N10 C6 1_555 1_555
N11 C7 1_555 1_555
N12 Hg2 1_555 1_555
C1 N1 1_555 1_555
C2 N5 1_555 1_555
C3 C2 1_555 1_555
H3 C3 1_555 1_555
C4 N6 1_555 1_555
H4 C4 1_555 1_555
C5 N5 1_555 1_555
H5 C5 1_555 1_555
C6 N7 1_555 1_555
C7 C6 1_555 1_555
C8 N12 1_555 1_555
H6 C8 1_555 1_555
C9 N12 1_555 1_555
H7 C9 1_555 1_555
C10 N11 1_555 1_555
H8 C10 1_555 1_555
Hg1B O1B 1_555 1_555
Hg1A N7 1_555 1_555
Hg1C N7B 1_555 1_555
Cl1B Hg2 1_555 1_555
O1B H1B 1_555 1_555
H2B O1B 1_555 1_555
N1B Hg1B 1_555 1_555
N2B Hg2 1_555 1_555
N3B N2B 1_555 1_555
N4B N3B 1_555 1_555
N5B Hg1B 1_555 1_555
N6B C3B 1_555 1_555
N7B N8B 1_555 1_555
N7A Hg1 1_555 1_555
N7C Hg1B 1_555 1_555
N8B N9B 1_555 1_555
N9B N10B 1_555 1_555
N10B C6B 1_555 1_555
N11B Hg1C 1_555 1_555
N11A Hg1 1_555 1_555
N11C Hg1B 1_555 1_555
N12B Hg2 1_555 1_555
C1B N1B 1_555 1_555
C2B N5B 1_555 1_555
C3B C2B 1_555 1_555
H3B C3B 1_555 1_555
C4B N6B 1_555 1_555
H4B C4B 1_555 1_555
C5B N5B 1_555 1_555
H5B C5B 1_555 1_555
C6B N7B 1_555 1_555
C7B N11B 1_555 1_555
C8B N12B 1_555 1_555
H6B C8B 1_555 1_555
C9B N12B 1_555 1_555
H7B C9B 1_555 1_555
C10B N11B 1_555 1_555
H8B C10B 1_555 1_555
N1 N2 1_555 1_555
N4 C1 1_555 1_555
N11 Hg1A 1_555 1_555
C1 C2 1_555 1_555
C4 C5 1_555 1_555
C7 C8 1_555 1_555
C9 C10 1_555 1_555
N1B N2B 1_555 1_555
N4B C1B 1_555 1_555
C1B C2B 1_555 1_555
C4B C5B 1_555 1_555
C6B C7B 1_555 1_555
C7B C8B 1_555 1_555
C9B C10B 1_555 1_555

#END
