
#######################################################################
#
#                 Cambridge Crystallographic Data Centre
#                                CCDC 
#
#######################################################################
#
# If this CIF has been generated from an entry in the Cambridge 
# Structural Database, then it will include bibliographic, chemical, 
# crystal, experimental, refinement or atomic coordinate data resulting 
# from the CCDC's data processing and validation procedures.
#
#######################################################################

data_KABSEN
_symmetry_cell_setting           orthorhombic
_symmetry_space_group_name_H-M   'C m c 21'
_symmetry_Int_Tables_number      36
_space_group_name_Hall           'C 2n -2'
loop_
_symmetry_equiv_pos_site_id
_symmetry_equiv_pos_as_xyz
1 x,y,z
2 -x,-y,1/2+z
3 x,-y,1/2+z
4 -x,y,z
5 1/2+x,1/2+y,z
6 1/2-x,1/2-y,1/2+z
7 1/2+x,1/2-y,1/2+z
8 1/2-x,1/2+y,z
_cell_length_a                   15.1523(8)
_cell_length_b                   26.4180(13)
_cell_length_c                   27.5818(15)
_cell_angle_alpha                90
_cell_angle_beta                 90
_cell_angle_gamma                90
_cell_volume                     11040.8
loop_
_atom_site_label
_atom_site_type_symbol
_atom_site_fract_x
_atom_site_fract_y
_atom_site_fract_z
W1 W 1.12092(5) 0.35970(3) 0.14057(3)
W2 W 1.11086(5) 0.13131(3) 0.12100(3)
W3 W 1.23165(5) 0.23908(3) 0.26682(3)
W4 W 1.12078(5) 0.34885(3) 0.27576(3)
W5 W 1.11168(5) 0.22013(3) 0.01808(2)
W6 W 1.10982(5) 0.11988(3) 0.25604(3)
W7 W 1.23183(4) 0.25092(3) 0.13151(3)
W8 W 1.0000 0.33075(4) 0.02743(3)
W9 W 1.0000 0.29844(4) 0.38179(4)
W10 W 1.11115(6) 0.18808(3) 0.37287(3)
P1 P 1.0000 0.2357(2) 0.2699(2)
P2 P 1.0000 0.2475(2) 0.1272(2)
O1 O 1.2378(9) 0.2537(5) 0.1985(5)
O2 O 1.2265(10) 0.3223(5) 0.1272(5)
O3 O 1.3432(11) 0.2257(6) 0.2754(5)
O4 O 1.0000 0.2520(7) 0.0712(6)
O5 O 1.1397(10) 0.3518(5) 0.2068(5)
O6 O 1.0000 0.3402(8) 0.4284(6)
O7 O 1.0000 0.1005(7) 0.1101(6)
O8 O 1.0976(9) 0.1173(5) 0.1872(5)
O9 O 1.0870(10) 0.3278(5) 0.3388(4)
O10 O 1.0000 0.2285(7) 0.3266(6)
O11 O 1.1008(9) 0.1398(5) 0.3232(5)
O12 O 1.1878(9) 0.1746(5) 0.2481(4)
O13 O 1.1932(9) 0.1825(5) 0.1370(5)
O14 O 1.0838(10) 0.2733(5) 0.1446(4)
O15 O 1.0897(9) 0.2892(5) -0.0030(4)
O16 O 1.0000 0.2022(7) -0.0107(7)
O17 O 1.1783(10) 0.0824(5) 0.1060(5)
O18 O 1.0000 0.3715(7) 0.1531(6)
O19 O 1.0000 0.1681(7) 0.3741(6)
O20 O 1.2272(10) 0.3092(6) 0.2800(5)
O21 O 1.0864(10) 0.3496(5) 0.0735(4)
O22 O 1.3410(11) 0.2392(5) 0.1198(5)
O23 O 1.1816(11) 0.0713(5) 0.2628(5)
O24 O 1.0000 0.0872(7) 0.2601(6)
O25 O 1.1015(10) 0.1611(5) 0.0584(5)
O26 O 1.0000 0.1905(7) 0.1369(6)
O27 O 1.1898(10) 0.2234(5) 0.3294(5)
O28 O 1.0825(10) 0.2644(5) 0.2559(4)
O29 O 1.1901(11) 0.2459(5) 0.0646(4)
O30 O 1.1621(11) 0.4076(6) 0.2918(5)
O31 O 1.1788(10) 0.1596(6) 0.4117(5)
O32 O 1.0000 0.1805(7) 0.2484(6)
O33 O 1.0000 0.3816(7) -0.0120(6)
O34 O 1.1840(10) 0.2010(5) -0.0280(5)
O35 O 1.0831(10) 0.2505(5) 0.4042(4)
O36 O 1.0000 0.3631(7) 0.2657(6)
O37 O 1.1622(10) 0.4205(5) 0.1329(5)
W1C W 0.87908(5) 0.35970(3) 0.14057(3)
W2C W 0.88914(5) 0.13131(3) 0.12100(3)
W3C W 0.76835(5) 0.23908(3) 0.26682(3)
W4C W 0.87922(5) 0.34885(3) 0.27576(3)
W5C W 0.88832(5) 0.22013(3) 0.01808(2)
W6C W 0.89018(5) 0.11988(3) 0.25604(3)
W7C W 0.76817(4) 0.25092(3) 0.13151(3)
W10C W 0.88885(6) 0.18808(3) 0.37287(3)
O1C O 0.7622(9) 0.2537(5) 0.1985(5)
O2C O 0.7735(10) 0.3223(5) 0.1272(5)
O3C O 0.6568(11) 0.2257(6) 0.2754(5)
O5C O 0.8603(10) 0.3518(5) 0.2068(5)
O8C O 0.9024(9) 0.1173(5) 0.1872(5)
O9C O 0.9130(10) 0.3278(5) 0.3388(4)
O11C O 0.8992(9) 0.1398(5) 0.3232(5)
O12C O 0.8122(9) 0.1746(5) 0.2481(4)
O13C O 0.8068(9) 0.1825(5) 0.1370(5)
O14C O 0.9162(10) 0.2733(5) 0.1446(4)
O15C O 0.9103(9) 0.2892(5) -0.0030(4)
O17C O 0.8217(10) 0.0824(5) 0.1060(5)
O20C O 0.7728(10) 0.3092(6) 0.2800(5)
O21C O 0.9136(10) 0.3496(5) 0.0735(4)
O22C O 0.6590(11) 0.2392(5) 0.1198(5)
O23C O 0.8184(11) 0.0713(5) 0.2628(5)
O25C O 0.8985(10) 0.1611(5) 0.0584(5)
O27C O 0.8102(10) 0.2234(5) 0.3294(5)
O28C O 0.9175(10) 0.2644(5) 0.2559(4)
O29C O 0.8099(11) 0.2459(5) 0.0646(4)
O30C O 0.8379(11) 0.4076(6) 0.2918(5)
O31C O 0.8212(10) 0.1596(6) 0.4117(5)
O34C O 0.8160(10) 0.2010(5) -0.0280(5)
O35C O 0.9169(10) 0.2505(5) 0.4042(4)
O37C O 0.8378(10) 0.4205(5) 0.1329(5)
Cu1 Cu 0.3882(2) 0.46855(12) 0.06311(10)
O38 O 0.4235(12) 0.3947(6) 0.0342(5)
O42 O 0.3721(12) 0.4476(6) 0.3183(6)
O43 O 0.5000 0.4987(9) 0.0748(8)
N1 N 0.3862(11) 0.4475(5) 0.1337(3)
C17 C 0.3700(11) 0.3980(5) 0.1483(4)
H11 H 0.3613 0.3728 0.1252
C18 C 0.3669(11) 0.3861(4) 0.1973(5)
H12 H 0.3560 0.3530 0.2071
C19 C 0.3799(12) 0.4238(5) 0.2318(3)
C20 C 0.3961(12) 0.4733(5) 0.2173(4)
H13 H 0.4048 0.4984 0.2403
C21 C 0.3992(11) 0.4851(4) 0.1682(5)
H14 H 0.4100 0.5182 0.1584
C22 C 0.3772(17) 0.4138(9) 0.2847(8)
C23 C 0.3850(15) 0.4247(9) 0.3598(8)
C24 C 0.3809(18) 0.4505(9) 0.4077(8)
C25 C 0.3703(19) 0.4209(10) 0.4493(8)
H15 H 0.3603 0.3863 0.4471
C26 C 0.3756(18) 0.4466(9) 0.4970(9)
H16 H 0.3780 0.4281 0.5256
C27 C 0.3931(18) 0.5229(10) 0.4574(8)
H17 H 0.4081 0.5570 0.4599
C28 C 0.3881(18) 0.5004(10) 0.4118(9)
H18 H 0.3899 0.5204 0.3841
C29 C 0.5000 0.3756(13) 0.0327(11)
C30 C 0.5000 0.3168(12) 0.0252(11)
C31 C 0.4259(18) 0.2902(9) 0.0232(8)
H19 H 0.3724 0.3073 0.0257
C32 C 0.4247(13) 0.2399(8) 0.0178(8)
H20 H 0.3708 0.2232 0.0157
N7 N 0.5000 0.2130(10) 0.0154(10)
N8 N 0.3985(13) 0.3775(8) 0.3520(7)
N9 N 0.3917(13) 0.3707(8) 0.3029(7)
N10 N 0.3769(14) 0.4967(8) 0.4976(7)
O45 O 0.2624(13) 0.4457(7) 0.0518(6)
H23 H 0.2620 0.4195 0.0339
H24 H 0.2382 0.4391 0.0789
Cu1C Cu 0.6118(2) 0.46855(12) 0.06311(10)
Cu1B Cu 0.3882(2) 0.53145(12) 0.56311(10)
Cu1B_2 Cu 0.3882(2) 0.53145(12) -0.43689(10)
O38C O 0.5765(12) 0.3947(6) 0.0342(5)
O42B O 0.3721(12) 0.5524(6) -0.1817(6)
N1B N 0.3862(11) 0.5525(5) -0.3663(3)
N1C N 0.6138(11) 0.4475(5) 0.1337(3)
C17B C 0.3700(11) 0.6020(5) -0.3517(4)
H11B H 0.3613 0.6272 -0.3748
C18B C 0.3669(11) 0.6139(4) -0.3027(5)
H12B H 0.3560 0.6470 -0.2929
C19B C 0.3799(12) 0.5762(5) -0.2682(3)
C20B C 0.3961(12) 0.5267(5) -0.2827(4)
H13B H 0.4048 0.5016 -0.2597
C21B C 0.3992(11) 0.5149(4) -0.3318(5)
H14B H 0.4100 0.4818 -0.3416
C22B C 0.3772(17) 0.5862(9) -0.2153(8)
C23B C 0.3850(15) 0.5753(9) -0.1402(8)
C24B C 0.3809(18) 0.5495(9) -0.0923(8)
C25B C 0.3703(19) 0.5791(10) -0.0507(8)
H15B H 0.3603 0.6137 -0.0529
C26B C 0.3756(18) 0.5534(9) -0.0030(9)
H16B H 0.3780 0.5719 0.0256
C27B C 0.3931(18) 0.4771(10) -0.0426(8)
H17B H 0.4081 0.4430 -0.0401
C28B C 0.3881(18) 0.4996(10) -0.0882(9)
H18B H 0.3899 0.4796 -0.1159
C31C C 0.5741(18) 0.2902(9) 0.0232(8)
H19C H 0.6276 0.3073 0.0257
C32C C 0.5753(13) 0.2399(8) 0.0178(8)
H20C H 0.6292 0.2232 0.0157
N8B N 0.3985(13) 0.6225(8) -0.1480(7)
N9B N 0.3917(13) 0.6293(8) -0.1971(7)
N10B N 0.3769(14) 0.5033(8) -0.0024(7)
N10A N 0.6231(14) 0.5033(8) -0.0024(7)
O45C O 0.7376(13) 0.4457(7) 0.0518(6)
H23C H 0.7380 0.4195 0.0339
H24C H 0.7618 0.4391 0.0789
Cu2 Cu -0.1134(2) 0.47146(13) 0.83727(10)
O39 O -0.0731(14) 0.3989(6) 0.8624(5)
O40 O -0.1200(13) 0.5504(7) 1.0826(5)
O41 O 0.0000 0.5186(9) 0.8212(7)
C1 C -0.1132(18) 0.4806(10) 0.9412(8)
H1 H -0.1052 0.4460 0.9373
C2 C -0.1136(18) 0.4998(10) 0.9898(8)
H2 H -0.1057 0.4792 1.0168
C3 C -0.1267(19) 0.5515(9) 0.9933(7)
C4 C -0.138(2) 0.5790(10) 0.9499(7)
H3 H -0.1462 0.6139 0.9508
C5 C -0.137(2) 0.5550(10) 0.9085(8)
H4 H -0.1482 0.5745 0.8811
C6 C -0.1222(19) 0.5753(9) 1.0409(7)
C7 C -0.1215(18) 0.5833(9) 1.1150(7)
C8 C -0.122(2) 0.5753(10) 1.1678(8)
C9 C -0.115(2) 0.5257(10) 1.1813(8)
H5 H -0.1067 0.4998 1.1589
C10 C -0.122(2) 0.5161(10) 1.2339(8)
H6 H -0.1327 0.4831 1.2442
C11 C -0.1205(19) 0.5985(10) 1.2517(8)
H7 H -0.1229 0.6237 1.2753
C12 C -0.1242(19) 0.6116(10) 1.2046(8)
H8 H -0.1285 0.6457 1.1963
C13 C 0.0000 0.3808(14) 0.8663(11)
C14 C 0.0000 0.3222(14) 0.8746(11)
C15 C -0.080(2) 0.2956(9) 0.8770(8)
H9 H -0.1321 0.3137 0.8754
C16 C -0.0839(10) 0.2379(9) 0.8824(8)
H10 H -0.1348 0.2184 0.8848
N2 N -0.1232(16) 0.5080(8) 0.9013(6)
N3 N -0.1281(16) 0.6240(8) 1.0449(6)
N4 N -0.1256(16) 0.6278(8) 1.0957(7)
N5 N -0.1135(16) 0.5499(8) 1.2655(7)
N6 N 0.0000 0.2208(11) 0.8828(10)
O46 O -0.2282(15) 0.4729(8) 0.8345(6)
H25 H -0.2443 0.5036 0.8317
H26 H -0.2455 0.4561 0.8100
Cu2C Cu 0.1134(2) 0.47146(13) 0.83727(10)
Cu2B Cu -0.1134(2) 0.52854(13) 1.33727(10)
Cu2B_2 Cu -0.1134(2) 0.52854(13) 0.33727(10)
O39C O 0.0731(14) 0.3989(6) 0.8624(5)
O40B O -0.1200(13) 0.4496(7) 0.5826(5)
C1B C -0.1132(18) 0.5194(10) 0.4412(8)
H1B H -0.1052 0.5540 0.4373
C2B C -0.1136(18) 0.5002(10) 0.4898(8)
H2B H -0.1057 0.5208 0.5168
C3B C -0.1267(19) 0.4485(9) 0.4933(7)
C4B C -0.138(2) 0.4210(10) 0.4499(7)
H3B H -0.1462 0.3861 0.4508
C5B C -0.137(2) 0.4450(10) 0.4085(8)
H4B H -0.1482 0.4255 0.3811
C6B C -0.1222(19) 0.4247(9) 0.5409(7)
C7B C -0.1215(18) 0.4167(9) 0.6150(7)
C8B C -0.122(2) 0.4247(10) 0.6678(8)
C9B C -0.115(2) 0.4743(10) 0.6813(8)
H5B H -0.1067 0.5002 0.6589
C10B C -0.122(2) 0.4839(10) 0.7339(8)
H6B H -0.1327 0.5169 0.7442
C11B C -0.1205(19) 0.4015(10) 0.7517(8)
H7B H -0.1229 0.3763 0.7753
C12B C -0.1242(19) 0.3884(10) 0.7046(8)
H8B H -0.1285 0.3543 0.6963
C15C C 0.080(2) 0.2956(9) 0.8770(8)
H9C H 0.1321 0.3137 0.8754
C16C C 0.0839(10) 0.2379(9) 0.8824(8)
H10C H 0.1348 0.2184 0.8848
N2B N -0.1232(16) 0.4920(8) 0.4013(6)
N2C N 0.1232(16) 0.5080(8) 0.9013(6)
N3B N -0.1281(16) 0.3760(8) 0.5449(6)
N4B N -0.1256(16) 0.3722(8) 0.5957(7)
N5B N -0.1135(16) 0.4501(8) 0.7655(7)
N5A N 0.1135(16) 0.4501(8) 0.7655(7)
O46C O 0.2282(15) 0.4729(8) 0.8345(6)
H25C H 0.2443 0.5036 0.8317
H26C H 0.2455 0.4561 0.8100
O44 O 0.5000 0.2911(8) 0.2581(8)
H21? H 0.5000 0.3200 0.2715
H22? H 0.5482 0.2777 0.2673
loop_
_geom_bond_atom_site_label_1
_geom_bond_atom_site_label_2
_geom_bond_site_symmetry_1
_geom_bond_site_symmetry_2
W1 O2 1_555 1_555
W2 O7 1_555 1_555
W3 O1 1_555 1_555
W4 O5 1_555 1_555
W5 O4 1_555 1_555
W6 O8 1_555 1_555
W7 O1 1_555 1_555
W8 O4 1_555 1_555
W9 O6 1_555 1_555
W10 O10 1_555 1_555
Cu1 O38 1_555 1_555
Cu2 O39 1_555 1_555
P1 O10 1_555 1_555
P2 O4 1_555 1_555
O2 W7 1_555 1_555
O3 W3 1_555 1_555
O4 W5C 1_555 1_555
O5 W1 1_555 1_555
O7 W2C 1_555 1_555
O8 W2 1_555 1_555
O9 W4 1_555 1_555
O10 W9 1_555 1_555
O11 W6 1_555 1_555
O12 W3 1_555 1_555
O13 W2 1_555 1_555
O14 W1 1_555 1_555
O15 W5 1_555 1_555
O16 W5 1_555 1_555
O17 W2 1_555 1_555
O18 W1 1_555 1_555
O19 W10 1_555 1_555
O20 W3 1_555 1_555
O21 W1 1_555 1_555
O22 W7 1_555 1_555
O23 W6 1_555 1_555
O24 W6 1_555 1_555
O25 W2 1_555 1_555
O26 W2 1_555 1_555
O27 W3 1_555 1_555
O28 W3 1_555 1_555
O29 W5 1_555 1_555
O30 W4 1_555 1_555
O31 W10 1_555 1_555
O32 W6 1_555 1_555
O33 W8 1_555 1_555
O34 W5 1_555 1_555
O35 W9 1_555 1_555
O36 W4 1_555 1_555
O37 W1 1_555 1_555
O38 C29 1_555 1_555
O39 C13 1_555 1_555
O40 C6 1_555 1_555
O41 Cu2 1_555 1_555
O42 C22 1_555 1_555
O43 Cu1 1_555 1_555
C1 H1 1_555 1_555
C2 C1 1_555 1_555
H2 C2 1_555 1_555
C3 C2 1_555 1_555
C4 C3 1_555 1_555
H3 C4 1_555 1_555
C5 C4 1_555 1_555
H4 C5 1_555 1_555
C6 C3 1_555 1_555
C7 O40 1_555 1_555
C8 C7 1_555 1_555
C9 C8 1_555 1_555
H5 C9 1_555 1_555
C10 C9 1_555 1_555
H6 C10 1_555 1_555
C11 H7 1_555 1_555
C12 C8 1_555 1_555
H8 C12 1_555 1_555
C13 C14 1_555 1_555
C14 C15 1_555 1_555
C15 H9 1_555 1_555
C16 C15 1_555 1_555
H10 C16 1_555 1_555
N1 Cu1 1_555 1_555
C17 N1 1_555 1_555
H11 C17 1_555 1_555
C18 C17 1_555 1_555
H12 C18 1_555 1_555
C19 C18 1_555 1_555
C20 C19 1_555 1_555
H13 C20 1_555 1_555
C21 N1 1_555 1_555
H14 C21 1_555 1_555
C22 C19 1_555 1_555
C23 O42 1_555 1_555
C24 C23 1_555 1_555
C25 C24 1_555 1_555
H15 C25 1_555 1_555
C26 C25 1_555 1_555
H16 C26 1_555 1_555
C27 H17 1_555 1_555
C28 C24 1_555 1_555
H18 C28 1_555 1_555
C29 C30 1_555 1_555
C30 C31 1_555 1_555
C31 H19 1_555 1_555
C32 C31 1_555 1_555
H20 C32 1_555 1_555
N2 Cu2 1_555 1_555
N3 C6 1_555 1_555
N4 C7 1_555 1_555
N5 C10 1_555 1_555
N6 C16 1_555 1_555
N7 C32 1_555 1_555
N8 C23 1_555 1_555
N9 C22 1_555 1_555
N10 C26 1_555 1_555
O45 Cu1 1_555 1_555
H23 O45 1_555 1_555
H24 O45 1_555 1_555
O46 Cu2 1_555 1_555
H25 O46 1_555 1_555
H26 O46 1_555 1_555
W1C O18 1_555 1_555
W2C O26 1_555 1_555
W3C O1C 1_555 1_555
W4C O36 1_555 1_555
W5C O16 1_555 1_555
W6C O24 1_555 1_555
W7C O1C 1_555 1_555
W10C O10 1_555 1_555
Cu1C O43 1_555 1_555
Cu1B N10 1_555 1_555
Cu1B_2 N1B 1_555 1_555
Cu2C O41 1_555 1_555
Cu2B N5 1_555 1_555
Cu2B_2 N2B 1_555 1_555
O2C W1C 1_555 1_555
O3C W3C 1_555 1_555
O5C W1C 1_555 1_555
O8C W2C 1_555 1_555
O9C W9 1_555 1_555
O11C W6C 1_555 1_555
O12C W3C 1_555 1_555
O13C W2C 1_555 1_555
O14C P2 1_555 1_555
O15C W8 1_555 1_555
O17C W2C 1_555 1_555
O20C W3C 1_555 1_555
O21C W8 1_555 1_555
O22C W7C 1_555 1_555
O23C W6C 1_555 1_555
O25C W2C 1_555 1_555
O27C W3C 1_555 1_555
O28C P1 1_555 1_555
O29C W5C 1_555 1_555
O30C W4C 1_555 1_555
O31C W10C 1_555 1_555
O34C W5C 1_555 1_555
O35C W9 1_555 1_555
O37C W1C 1_555 1_555
O38C C29 1_555 1_555
O39C C13 1_555 1_555
O40B C6B 1_555 1_555
O42B C22B 1_555 1_555
C1B H1B 1_555 1_555
C2B C1B 1_555 1_555
H2B C2B 1_555 1_555
C3B C2B 1_555 1_555
C4B C3B 1_555 1_555
H3B C4B 1_555 1_555
C5B C4B 1_555 1_555
H4B C5B 1_555 1_555
C6B C3B 1_555 1_555
C7B O40B 1_555 1_555
C8B C7B 1_555 1_555
C9B C8B 1_555 1_555
H5B C9B 1_555 1_555
C10B C9B 1_555 1_555
H6B C10B 1_555 1_555
C11B H7B 1_555 1_555
C12B C8B 1_555 1_555
H8B C12B 1_555 1_555
C15C C14 1_555 1_555
H9C C15C 1_555 1_555
C16C N6 1_555 1_555
H10C C16C 1_555 1_555
N1B C17B 1_555 1_555
N1C Cu1C 1_555 1_555
C17B H11B 1_555 1_555
C18B C17B 1_555 1_555
H12B C18B 1_555 1_555
C19B C18B 1_555 1_555
C20B C19B 1_555 1_555
H13B C20B 1_555 1_555
C21B N1B 1_555 1_555
H14B C21B 1_555 1_555
C22B C19B 1_555 1_555
C23B O42B 1_555 1_555
C24B C23B 1_555 1_555
C25B C24B 1_555 1_555
H15B C25B 1_555 1_555
C26B C25B 1_555 1_555
H16B C26B 1_555 1_555
C27B H17B 1_555 1_555
C28B C24B 1_555 1_555
H18B C28B 1_555 1_555
C31C C30 1_555 1_555
H19C C31C 1_555 1_555
C32C N7 1_555 1_555
H20C C32C 1_555 1_555
N2B C1B 1_555 1_555
N2C Cu2C 1_555 1_555
N3B C6B 1_555 1_555
N4B C7B 1_555 1_555
N5B Cu2 1_555 1_555
N5A Cu2C 1_555 1_555
N8B C23B 1_555 1_555
N9B C22B 1_555 1_555
N10B Cu1 1_555 1_555
N10A Cu1C 1_555 1_555
O45C Cu1C 1_555 1_555
H23C O45C 1_555 1_555
H24C O45C 1_555 1_555
O46C Cu2C 1_555 1_555
H25C O46C 1_555 1_555
H26C O46C 1_555 1_555
W4 O20 1_555 1_555
W4 O28 1_555 1_555
W5 O25 1_555 1_555
W6 O12 1_555 1_555
W7 O13 1_555 1_555
W7 O14 1_555 1_555
W7 O29 1_555 1_555
W8 O15 1_555 1_555
W8 O21 1_555 1_555
W9 O9 1_555 1_555
W10 O11 1_555 1_555
W10 O27 1_555 1_555
W10 O35 1_555 1_555
P1 O28 1_555 1_555
P1 O32 1_555 1_555
P2 O14 1_555 1_555
P2 O26 1_555 1_555
O19 W10C 1_555 1_555
O32 W6C 1_555 1_555
C1 N2 1_555 1_555
C5 N2 1_555 1_555
C11 C12 1_555 1_555
C11 N5 1_555 1_555
C20 C21 1_555 1_555
C27 C28 1_555 1_555
C27 N10 1_555 1_555
N3 N4 1_555 1_555
N8 N9 1_555 1_555
W1C O14C 1_555 1_555
W1C O21C 1_555 1_555
W3C O28C 1_555 1_555
W4C O5C 1_555 1_555
W4C O9C 1_555 1_555
W4C O20C 1_555 1_555
W4C O28C 1_555 1_555
W5C O15C 1_555 1_555
W5C O25C 1_555 1_555
W6C O8C 1_555 1_555
W6C O12C 1_555 1_555
W7C O2C 1_555 1_555
W7C O13C 1_555 1_555
W7C O14C 1_555 1_555
W7C O29C 1_555 1_555
W10C O11C 1_555 1_555
W10C O27C 1_555 1_555
W10C O35C 1_555 1_555
Cu1C O38C 1_555 1_555
Cu2C O39C 1_555 1_555
C5B N2B 1_555 1_555
C10B N5B 1_555 1_555
C11B C12B 1_555 1_555
C11B N5B 1_555 1_555
C15C C16C 1_555 1_555
C20B C21B 1_555 1_555
C26B N10B 1_555 1_555
C27B C28B 1_555 1_555
C27B N10B 1_555 1_555
C31C C32C 1_555 1_555
N3B N4B 1_555 1_555
N8B N9B 1_555 1_555

#END
