
#######################################################################
#
#                 Cambridge Crystallographic Data Centre
#                                CCDC 
#
#######################################################################
#
# If this CIF has been generated from an entry in the Cambridge 
# Structural Database, then it will include bibliographic, chemical, 
# crystal, experimental, refinement or atomic coordinate data resulting 
# from the CCDC's data processing and validation procedures.
#
#######################################################################

data_KABSOX
_symmetry_cell_setting           monoclinic
_symmetry_space_group_name_H-M   'P 21/c'
_symmetry_Int_Tables_number      14
_space_group_name_Hall           '-P 2ybc'
loop_
_symmetry_equiv_pos_site_id
_symmetry_equiv_pos_as_xyz
1 x,y,z
2 -x,1/2+y,1/2-z
3 -x,-y,-z
4 x,1/2-y,1/2+z
_cell_length_a                   10.1966(8)
_cell_length_b                   19.5357(16)
_cell_length_c                   14.7368(12)
_cell_angle_alpha                90
_cell_angle_beta                 98.2620(10)
_cell_angle_gamma                90
_cell_volume                     2905.07
loop_
_atom_site_label
_atom_site_type_symbol
_atom_site_fract_x
_atom_site_fract_y
_atom_site_fract_z
C1 C -0.22042(17) -0.01498(9) 0.48357(13)
C2 C -0.36733(18) -0.00819(10) 0.48740(12)
C3 C -0.42439(18) 0.05619(10) 0.48451(12)
H1 H -0.3739 0.0942 0.4736
C4 C -0.44434(18) -0.06523(9) 0.50242(12)
C5 C -0.39260(18) -0.13624(10) 0.49063(13)
C6 C -0.39360(18) -0.18735(10) 0.56479(13)
C7 C -0.3917(2) -0.16741(11) 0.65538(15)
H2 H -0.3973 -0.1213 0.6702
C8 C -0.3813(3) -0.21674(13) 0.72360(16)
H3 H -0.3782 -0.2035 0.7845
C9 C -0.3755(3) -0.28461(13) 0.70212(18)
H4 H -0.3693 -0.3174 0.7483
C10 C -0.3790(3) -0.30448(13) 0.61216(19)
H5 H -0.3765 -0.3507 0.5976
C11 C -0.3861(2) -0.25626(11) 0.54388(16)
H6 H -0.3859 -0.2699 0.4834
C12 C -0.00495(18) 0.02965(10) 0.19255(12)
C13 C -0.00103(18) 0.01593(10) 0.09247(12)
C14 C -0.10646(18) -0.01824(10) 0.04205(12)
H7 H -0.1786 -0.0306 0.0706
C15 C 0.10740(18) 0.03454(10) 0.04999(12)
C16 C 0.22431(19) 0.07642(11) 0.09352(12)
C17 C 0.34448(19) 0.04054(10) 0.13955(13)
C18 C 0.4675(2) 0.07095(12) 0.14092(16)
H8 H 0.4742 0.1129 0.1120
C19 C 0.5801(2) 0.03951(14) 0.18488(18)
H9 H 0.6625 0.0596 0.1839
C20 C 0.5710(2) -0.02126(14) 0.22995(18)
H10 H 0.6468 -0.0414 0.2614
C21 C 0.4499(2) -0.05251(13) 0.22869(18)
H11 H 0.4439 -0.0939 0.2590
C22 C 0.3367(2) -0.02235(11) 0.18223(15)
H12 H 0.2553 -0.0443 0.1796
C23 C 0.0283(2) 0.18584(12) 0.39282(15)
H13 H 0.1172 0.1755 0.3926
C24 C -0.0039(2) 0.25042(12) 0.42009(17)
H14 H 0.0625 0.2825 0.4373
C25 C -0.1347(2) 0.26736(11) 0.42177(15)
C26 C -0.2285(2) 0.21910(11) 0.38741(15)
H15 H -0.3183 0.2296 0.3820
C27 C -0.1892(2) 0.15591(11) 0.36143(14)
H16 H -0.2540 0.1243 0.3391
C28 C -0.1750(3) 0.33284(12) 0.46336(18)
H17 H -0.2463 0.3537 0.4219
H18 H -0.1006 0.3642 0.4704
C29 C -0.2207(3) 0.32225(13) 0.55625(19)
H19 H -0.2537 0.3656 0.5759
H20 H -0.2944 0.2903 0.5486
C30 C -0.1165(3) 0.29573(13) 0.63192(18)
H21 H -0.1427 0.3088 0.6902
H22 H -0.0339 0.3191 0.6269
C31 C -0.1579(2) 0.10216(11) 0.64215(14)
H23 H -0.2263 0.0710 0.6448
C32 C -0.1880(2) 0.17101(12) 0.63908(16)
H24 H -0.2749 0.1851 0.6400
C33 C -0.0894(3) 0.21938(12) 0.63459(15)
C34 C 0.0370(2) 0.19428(12) 0.63742(16)
H25 H 0.1076 0.2244 0.6373
C35 C 0.0599(2) 0.12478(12) 0.64047(15)
H26 H 0.1466 0.1096 0.6419
Co1 Co -0.00939(2) 0.031401(14) 0.361267(16)
N1 N -0.06150(16) 0.13737(9) 0.36669(11)
N2 N -0.03524(16) 0.07783(9) 0.64153(11)
O1 O -0.15523(12) -0.04911(7) 0.54630(9)
O2 O -0.17651(13) 0.01566(7) 0.41997(9)
O3 O -0.35444(16) -0.15095(7) 0.41889(10)
O4 O -0.11004(13) 0.01730(8) 0.22473(9)
O5 O 0.09731(13) 0.05020(7) 0.24184(9)
O6 O 0.22329(15) 0.13783(8) 0.08138(10)
C1B C -0.77958(17) 0.01498(9) 0.51643(13)
C2B C -0.63267(18) 0.00819(10) 0.51260(12)
C3B C -0.57561(18) -0.05619(10) 0.51549(12)
H1B H -0.6261 -0.0942 0.5264
C4B C -0.55566(18) 0.06523(9) 0.49758(12)
C5B C -0.60740(18) 0.13624(10) 0.50937(13)
C6B C -0.60640(18) 0.18735(10) 0.43521(13)
C7B C -0.6083(2) 0.16741(11) 0.34462(15)
H2B H -0.6027 0.1213 0.3298
C8B C -0.6187(3) 0.21674(13) 0.27640(16)
H3B H -0.6218 0.2035 0.2155
C9B C -0.6245(3) 0.28461(13) 0.29788(18)
H4B H -0.6307 0.3174 0.2517
C10B C -0.6210(3) 0.30448(13) 0.38784(19)
H5B H -0.6235 0.3507 0.4024
C11B C -0.6139(2) 0.25626(11) 0.45612(16)
H6B H -0.6141 0.2699 0.5166
C12B C 0.00495(18) -0.02965(10) -0.19255(12)
C13B C 0.00103(18) -0.01593(10) -0.09247(12)
C14B C 0.10646(18) 0.01824(10) -0.04205(12)
H7B H 0.1786 0.0306 -0.0706
C15B C -0.10740(18) -0.03454(10) -0.04999(12)
C16B C -0.22431(19) -0.07642(11) -0.09352(12)
C17B C -0.34448(19) -0.04054(10) -0.13955(13)
C18B C -0.4675(2) -0.07095(12) -0.14092(16)
H8B H -0.4742 -0.1129 -0.1120
C19B C -0.5801(2) -0.03951(14) -0.18488(18)
H9B H -0.6625 -0.0596 -0.1839
C20B C -0.5710(2) 0.02126(14) -0.22995(18)
H10B H -0.6468 0.0414 -0.2614
C21B C -0.4499(2) 0.05251(13) -0.22869(18)
H11B H -0.4439 0.0939 -0.2590
C22B C -0.3367(2) 0.02235(11) -0.18223(15)
H12B H -0.2553 0.0443 -0.1796
C23B C -0.0283(2) -0.18584(12) 0.60718(15)
H13B H -0.1172 -0.1755 0.6074
C24B C 0.0039(2) -0.25042(12) 0.57991(17)
H14B H -0.0625 -0.2825 0.5627
C25B C 0.1347(2) -0.26736(11) 0.57823(15)
C26B C 0.2285(2) -0.21910(11) 0.61259(15)
H15B H 0.3183 -0.2296 0.6180
C27B C 0.1892(2) -0.15591(11) 0.63857(14)
H16B H 0.2540 -0.1243 0.6609
C28B C 0.1750(3) -0.33284(12) 0.53664(18)
H17B H 0.2463 -0.3537 0.5781
H18B H 0.1006 -0.3642 0.5296
C29B C 0.2207(3) -0.32225(13) 0.44375(19)
H19B H 0.2537 -0.3656 0.4241
H20B H 0.2944 -0.2903 0.4514
C30B C 0.1165(3) -0.29573(13) 0.36808(18)
H21B H 0.1427 -0.3088 0.3098
H22B H 0.0339 -0.3191 0.3731
C31B C 0.1579(2) -0.10216(11) 0.35785(14)
H23B H 0.2263 -0.0710 0.3552
C32B C 0.1880(2) -0.17101(12) 0.36092(16)
H24B H 0.2749 -0.1851 0.3600
C33B C 0.0894(3) -0.21938(12) 0.36541(15)
C34B C -0.0370(2) -0.19428(12) 0.36258(16)
H25B H -0.1076 -0.2244 0.3627
C35B C -0.0599(2) -0.12478(12) 0.35953(15)
H26B H -0.1466 -0.1096 0.3581
Co1B Co 0.00939(2) -0.031401(14) 0.638733(16)
Co1_2 Co -1.00939(2) 0.031401(14) 0.361267(16)
Co1B_2 Co -0.99061(2) -0.031401(14) 0.638733(16)
Co1B_3 Co 0.00939(2) -0.031401(14) -0.361267(16)
N1B N 0.06150(16) -0.13737(9) 0.63331(11)
N2B N 0.03524(16) -0.07783(9) 0.35847(11)
O1B O -0.84477(12) 0.04911(7) 0.45370(9)
O1B_2 O 0.15523(12) 0.04911(7) 0.45370(9)
O2B O -0.82349(13) -0.01566(7) 0.58003(9)
O2B_2 O 0.17651(13) -0.01566(7) 0.58003(9)
O3B O -0.64556(16) 0.15095(7) 0.58111(10)
O4B O 0.11004(13) -0.01730(8) -0.22473(9)
O4B_2 O 0.11004(13) -0.01730(8) 0.77527(9)
O5B O -0.09731(13) -0.05020(7) -0.24184(9)
O5B_2 O -0.09731(13) -0.05020(7) 0.75816(9)
O6B O -0.22329(15) -0.13783(8) -0.08138(10)
loop_
_geom_bond_atom_site_label_1
_geom_bond_atom_site_label_2
_geom_bond_site_symmetry_1
_geom_bond_site_symmetry_2
C1 C2 1_555 1_555
C2 C3 1_555 1_555
C3 H1 1_555 1_555
C4 C2 1_555 1_555
C5 C4 1_555 1_555
C6 C5 1_555 1_555
C7 C6 1_555 1_555
H2 C7 1_555 1_555
C8 C7 1_555 1_555
H3 C8 1_555 1_555
C9 C8 1_555 1_555
H4 C9 1_555 1_555
C10 C9 1_555 1_555
H5 C10 1_555 1_555
C11 C6 1_555 1_555
H6 C11 1_555 1_555
C12 C13 1_555 1_555
C13 C14 1_555 1_555
C14 H7 1_555 1_555
C15 C13 1_555 1_555
C16 C15 1_555 1_555
C17 C16 1_555 1_555
C18 C17 1_555 1_555
H8 C18 1_555 1_555
C19 C18 1_555 1_555
H9 C19 1_555 1_555
C20 C19 1_555 1_555
H10 C20 1_555 1_555
C21 C20 1_555 1_555
H11 C21 1_555 1_555
C22 C17 1_555 1_555
H12 C22 1_555 1_555
C23 H13 1_555 1_555
C24 C23 1_555 1_555
H14 C24 1_555 1_555
C25 C24 1_555 1_555
C26 C25 1_555 1_555
H15 C26 1_555 1_555
C27 C26 1_555 1_555
H16 C27 1_555 1_555
C28 C25 1_555 1_555
H17 C28 1_555 1_555
H18 C28 1_555 1_555
C29 C28 1_555 1_555
H19 C29 1_555 1_555
H20 C29 1_555 1_555
C30 C29 1_555 1_555
H21 C30 1_555 1_555
H22 C30 1_555 1_555
C31 H23 1_555 1_555
C32 C31 1_555 1_555
H24 C32 1_555 1_555
C33 C30 1_555 1_555
C34 C33 1_555 1_555
H25 C34 1_555 1_555
C35 C34 1_555 1_555
H26 C35 1_555 1_555
Co1 N1 1_555 1_555
N1 C23 1_555 1_555
N2 C31 1_555 1_555
O1 C1 1_555 1_555
O2 C1 1_555 1_555
O3 C5 1_555 1_555
O4 C12 1_555 1_555
O5 C12 1_555 1_555
O6 C16 1_555 1_555
C1B C2B 1_555 1_555
C2B C3B 1_555 1_555
C3B C4 1_555 1_555
H1B C3B 1_555 1_555
C4B C3 1_555 1_555
C5B C4B 1_555 1_555
C6B C5B 1_555 1_555
C7B C6B 1_555 1_555
H2B C7B 1_555 1_555
C8B C7B 1_555 1_555
H3B C8B 1_555 1_555
C9B C8B 1_555 1_555
H4B C9B 1_555 1_555
C10B C9B 1_555 1_555
H5B C10B 1_555 1_555
C11B C6B 1_555 1_555
H6B C11B 1_555 1_555
C12B C13B 1_555 1_555
C13B C14B 1_555 1_555
C14B C15 1_555 1_555
H7B C14B 1_555 1_555
C15B C14 1_555 1_555
C16B C15B 1_555 1_555
C17B C16B 1_555 1_555
C18B C17B 1_555 1_555
H8B C18B 1_555 1_555
C19B C18B 1_555 1_555
H9B C19B 1_555 1_555
C20B C19B 1_555 1_555
H10B C20B 1_555 1_555
C21B C20B 1_555 1_555
H11B C21B 1_555 1_555
C22B C17B 1_555 1_555
H12B C22B 1_555 1_555
C23B H13B 1_555 1_555
C24B C23B 1_555 1_555
H14B C24B 1_555 1_555
C25B C24B 1_555 1_555
C26B C25B 1_555 1_555
H15B C26B 1_555 1_555
C27B C26B 1_555 1_555
H16B C27B 1_555 1_555
C28B C25B 1_555 1_555
H17B C28B 1_555 1_555
H18B C28B 1_555 1_555
C29B C28B 1_555 1_555
H19B C29B 1_555 1_555
H20B C29B 1_555 1_555
C30B C29B 1_555 1_555
H21B C30B 1_555 1_555
H22B C30B 1_555 1_555
C31B H23B 1_555 1_555
C32B C31B 1_555 1_555
H24B C32B 1_555 1_555
C33B C30B 1_555 1_555
C34B C33B 1_555 1_555
H25B C34B 1_555 1_555
C35B C34B 1_555 1_555
H26B C35B 1_555 1_555
Co1B N2 1_555 1_555
Co1_2 O1B 1_555 1_555
Co1B_2 O2B 1_555 1_555
Co1B_3 O4B 1_555 1_555
N1B C23B 1_555 1_555
N2B Co1 1_555 1_555
O1B C1B 1_555 1_555
O1B_2 Co1 1_555 1_555
O2B C1B 1_555 1_555
O2B_2 Co1B 1_555 1_555
O3B C5B 1_555 1_555
O4B C12B 1_555 1_555
O4B_2 Co1B 1_555 1_555
O5B C12B 1_555 1_555
O5B_2 Co1B 1_555 1_555
O6B C16B 1_555 1_555
C10 C11 1_555 1_555
C21 C22 1_555 1_555
C27 N1 1_555 1_555
C32 C33 1_555 1_555
C35 N2 1_555 1_555
Co1 O2 1_555 1_555
Co1 O4 1_555 1_555
Co1 O5 1_555 1_555
O1 Co1B 1_555 1_555
C2B C4B 1_555 1_555
C10B C11B 1_555 1_555
C13B C15B 1_555 1_555
C21B C22B 1_555 1_555
C27B N1B 1_555 1_555
C31B N2B 1_555 1_555
C32B C33B 1_555 1_555
C35B N2B 1_555 1_555
Co1B N1B 1_555 1_555
Co1B_3 O5B 1_555 1_555

#END
