
#######################################################################
#
#                 Cambridge Crystallographic Data Centre
#                                CCDC 
#
#######################################################################
#
# If this CIF has been generated from an entry in the Cambridge 
# Structural Database, then it will include bibliographic, chemical, 
# crystal, experimental, refinement or atomic coordinate data resulting 
# from the CCDC's data processing and validation procedures.
#
#######################################################################

data_KABTAK
_symmetry_cell_setting           triclinic
_symmetry_space_group_name_H-M   'P -1'
_symmetry_Int_Tables_number      2
_space_group_name_Hall           '-P 1'
loop_
_symmetry_equiv_pos_site_id
_symmetry_equiv_pos_as_xyz
1 x,y,z
2 -x,-y,-z
_cell_length_a                   10.599(2)
_cell_length_b                   15.993(2)
_cell_length_c                   16.558(3)
_cell_angle_alpha                83.817(3)
_cell_angle_beta                 80.105(3)
_cell_angle_gamma                78.326(2)
_cell_volume                     2700.05
loop_
_atom_site_label
_atom_site_type_symbol
_atom_site_fract_x
_atom_site_fract_y
_atom_site_fract_z
Ni1 Ni 1.05387(4) -0.03893(3) 0.26790(3)
Ni2 Ni 0.45350(5) 0.54972(3) 0.76436(3)
N1 N 1.0526(3) -0.16298(19) 0.23419(18)
N2 N 1.2831(3) -0.39672(19) -0.15837(19)
N3 N 1.2238(3) -0.08877(19) 0.32151(18)
N4 N 1.4640(3) -0.3285(2) 0.7021(2)
N5 N 0.8940(3) 0.0050(2) 0.20271(19)
N6 N 0.4539(3) 0.4261(2) -0.17461(18)
N7 N 1.0444(3) 0.08473(19) 0.30368(18)
N8 N 0.9350(3) -0.0691(2) 0.3778(2)
N9 N 0.8654(3) -0.0203(2) 0.42189(19)
N10 N 0.7968(4) 0.0256(3) 0.4668(2)
N11 N 1.1826(4) -0.0197(2) 0.1571(2)
N12 N 1.2083(4) 0.0420(3) 0.1277(2)
N13 N 1.2368(7) 0.1053(4) 0.0962(4)
N14 N 0.3361(4) 0.5296(2) 0.6808(2)
N15 N 0.2774(4) 0.4757(3) 0.6787(2)
N16 N 0.2167(6) 0.4236(4) 0.6758(4)
N17 N 0.5665(12) 0.5683(11) 0.8447(12)
N18 N 0.6679(8) 0.5792(7) 0.8516(9)
N19 N 0.7722(8) 0.5885(8) 0.8533(8)
C1 C 1.0224(4) -0.3085(2) 0.1655(2)
C2 C 1.1382(4) -0.2779(2) 0.1482(2)
H1 H 1.2084 -0.3058 0.1131
C3 C 1.1486(4) -0.2061(2) 0.1834(2)
H2 H 1.2271 -0.1866 0.1709
C4 C 0.9429(4) -0.1950(3) 0.2537(2)
H3 H 0.8758 -0.1678 0.2914
C5 C 0.9249(4) -0.2658(2) 0.2210(3)
H4 H 0.8466 -0.2853 0.2361
C6 C 1.0009(5) -0.3828(3) 0.1247(3)
H5 H 0.9754 -0.4262 0.1665
H6 H 1.0819 -0.4079 0.0919
C7 C 0.8965(4) -0.3559(3) 0.0700(3)
H7 H 0.8157 -0.3309 0.1032
H8 H 0.8818 -0.4064 0.0482
C8 C 0.9300(4) -0.2917(3) -0.0014(3)
H9 H 0.8580 -0.2766 -0.0326
H10 H 0.9408 -0.2400 0.0203
C9 C 1.0521(4) -0.3256(2) -0.0579(2)
C10 C 1.0624(4) -0.3990(3) -0.0977(2)
H11 H 0.9913 -0.4262 -0.0918
C11 C 1.1764(4) -0.4317(2) -0.1457(2)
H12 H 1.1799 -0.4814 -0.1711
C12 C 1.2727(4) -0.3246(3) -0.1213(3)
H13 H 1.3446 -0.2980 -0.1291
C13 C 1.1615(4) -0.2882(3) -0.0726(3)
H14 H 1.1595 -0.2376 -0.0490
C14 C 1.4560(4) -0.1659(2) 0.3805(2)
C15 C 1.3461(4) -0.2016(2) 0.3987(2)
H15 H 1.3479 -0.2530 0.4310
C16 C 1.2331(4) -0.1619(2) 0.3694(2)
H16 H 1.1598 -0.1871 0.3837
C17 C 1.3310(4) -0.0544(3) 0.3031(2)
H17 H 1.3277 -0.0040 0.2692
C18 C 1.4456(4) -0.0898(3) 0.3315(2)
H18 H 1.5169 -0.0626 0.3177
C19 C 1.5800(4) -0.2057(3) 0.4136(3)
H19 H 1.6471 -0.2246 0.3682
H20 H 1.5653 -0.2558 0.4499
C20 C 1.6286(4) -0.1451(3) 0.4603(3)
H21 H 1.6475 -0.0965 0.4231
H22 H 1.7096 -0.1744 0.4784
C21 C 1.5327(4) -0.1121(2) 0.5351(3)
H23 H 1.5695 -0.0726 0.5605
H24 H 1.4525 -0.0810 0.5172
C22 C 1.5026(4) -0.1836(2) 0.5973(2)
C23 C 1.5948(4) -0.2263(3) 0.6441(3)
H25 H 1.6725 -0.2069 0.6413
C24 C 1.5730(4) -0.2971(3) 0.6946(3)
H26 H 1.6374 -0.3246 0.7251
C25 C 1.3713(4) -0.2843(2) 0.6608(2)
H27 H 1.2922 -0.3028 0.6673
C26 C 1.3870(4) -0.2125(2) 0.6091(2)
H28 H 1.3189 -0.1835 0.5822
C27 C 0.6879(4) 0.0470(3) 0.1116(3)
C28 C 0.6736(4) 0.0703(3) 0.1906(3)
H29 H 0.5945 0.1009 0.2149
C29 C 0.7777(4) 0.0480(3) 0.2335(3)
H30 H 0.7658 0.0640 0.2870
C30 C 0.9063(5) -0.0170(3) 0.1255(3)
H31 H 0.9862 -0.0475 0.1022
C31 C 0.8077(5) 0.0030(3) 0.0793(3)
H32 H 0.8219 -0.0132 0.0257
C32 C 0.5804(5) 0.0695(3) 0.0597(3)
H33 H 0.4971 0.0701 0.0949
H34 H 0.5911 0.0257 0.0214
C33 C 0.5795(4) 0.1561(3) 0.0117(3)
H35 H 0.5600 0.2004 0.0500
H36 H 0.6656 0.1574 -0.0193
C34 C 0.4804(4) 0.1752(3) -0.0471(3)
H37 H 0.5032 0.1327 -0.0873
H38 H 0.3953 0.1700 -0.0165
C35 C 0.4720(4) 0.2629(2) -0.0913(2)
C36 C 0.4844(4) 0.2744(2) -0.1760(2)
H39 H 0.4989 0.2272 -0.2070
C37 C 0.4753(4) 0.3554(2) -0.2142(2)
H40 H 0.4847 0.3611 -0.2713
C38 C 0.4416(4) 0.4152(2) -0.0925(2)
H41 H 0.4268 0.4634 -0.0630
C39 C 0.4496(4) 0.3363(2) -0.0496(2)
H42 H 0.4400 0.3322 0.0075
C40 C 1.0445(4) 0.2471(3) 0.3536(3)
C41 C 1.0679(4) 0.1724(3) 0.4049(3)
H43 H 1.0840 0.1758 0.4579
C42 C 1.0674(4) 0.0946(2) 0.3786(2)
H44 H 1.0839 0.0461 0.4144
C43 C 1.0171(4) 0.1562(2) 0.2554(2)
H45 H 0.9972 0.1513 0.2038
C44 C 1.0168(5) 0.2359(3) 0.2774(3)
H46 H 0.9978 0.2833 0.2407
C45 C 1.0508(6) 0.3333(3) 0.3790(4)
H47 H 1.1291 0.3284 0.4035
H48 H 1.0578 0.3727 0.3303
C46 C 0.9371(7) 0.3692(6) 0.4379(7)
H49 H 0.9067 0.3214 0.4712
H50 H 0.8688 0.3962 0.4063
C47 C 0.9475(10) 0.4330(6) 0.4963(6)
H51 H 0.9463 0.4894 0.4680
H52 H 1.0279 0.4157 0.5194
C48 C 0.8288(3) 0.4338(4) 0.56442(18)
C49 C 0.8381(3) 0.4207(3) 0.6477(2)
H53 H 0.9143 0.3897 0.6648
C50 C 0.7335(3) 0.4539(2) 0.70546(13)
H54 H 0.7398 0.4451 0.7612
N20 N 0.6196(2) 0.50026(19) 0.67990(14)
C51 C 0.6103(3) 0.5134(3) 0.59661(15)
H55 H 0.5340 0.5444 0.5795
C52 C 0.7148(4) 0.4802(4) 0.53887(12)
H56 H 0.7086 0.4889 0.4831
Ni2_2 Ni 0.45350(5) 0.54972(3) -0.23564(3)
Ni2_3 Ni 1.45350(5) -0.45028(3) -0.23564(3)
Ni2_4 Ni 1.45350(5) -0.45028(3) 0.76436(3)
N2_2 N 0.2831(3) 0.60328(19) 0.84163(19)
N4_2 N 0.4640(3) 0.6715(2) 0.7021(2)
N6_2 N 0.4539(3) 0.4261(2) 0.82539(18)
O1 O 0.3345(16) 0.2208(12) 0.1649(10)
C53? C 0.9365(11) 0.3513(7) 0.5080(7)
H57? H 1.0239 0.3451 0.5210
H58? H 0.9075 0.2972 0.5232
N21? N 0.5556(15) 0.5868(12) 0.8562(16)
N22? N 0.6422(16) 0.5430(16) 0.8821(9)
N23? N 0.7189(16) 0.5025(13) 0.9193(9)
loop_
_geom_bond_atom_site_label_1
_geom_bond_atom_site_label_2
_geom_bond_site_symmetry_1
_geom_bond_site_symmetry_2
Ni1 N1 1_555 1_555
Ni2 N14 1_555 1_555
N1 C3 1_555 1_555
N2 C11 1_555 1_555
N3 Ni1 1_555 1_555
N4 C24 1_555 1_555
N5 Ni1 1_555 1_555
N6 C37 1_555 1_555
N7 Ni1 1_555 1_555
N8 Ni1 1_555 1_555
N9 N8 1_555 1_555
N10 N9 1_555 1_555
N11 Ni1 1_555 1_555
N12 N11 1_555 1_555
N13 N12 1_555 1_555
N14 N15 1_555 1_555
N15 N16 1_555 1_555
N17 Ni2 1_555 1_555
N18 N17 1_555 1_555
N19 N18 1_555 1_555
C1 C2 1_555 1_555
C2 H1 1_555 1_555
C3 C2 1_555 1_555
H2 C3 1_555 1_555
C4 N1 1_555 1_555
H3 C4 1_555 1_555
C5 C1 1_555 1_555
H4 C5 1_555 1_555
C6 C1 1_555 1_555
H5 C6 1_555 1_555
H6 C6 1_555 1_555
C7 C6 1_555 1_555
H7 C7 1_555 1_555
H8 C7 1_555 1_555
C8 C7 1_555 1_555
H9 C8 1_555 1_555
H10 C8 1_555 1_555
C9 C8 1_555 1_555
C10 C9 1_555 1_555
H11 C10 1_555 1_555
C11 C10 1_555 1_555
H12 C11 1_555 1_555
C12 N2 1_555 1_555
H13 C12 1_555 1_555
C13 C9 1_555 1_555
H14 C13 1_555 1_555
C14 C15 1_555 1_555
C15 H15 1_555 1_555
C16 N3 1_555 1_555
H16 C16 1_555 1_555
C17 N3 1_555 1_555
H17 C17 1_555 1_555
C18 C14 1_555 1_555
H18 C18 1_555 1_555
C19 C14 1_555 1_555
H19 C19 1_555 1_555
H20 C19 1_555 1_555
C20 C19 1_555 1_555
H21 C20 1_555 1_555
H22 C20 1_555 1_555
C21 C20 1_555 1_555
H23 C21 1_555 1_555
H24 C21 1_555 1_555
C22 C21 1_555 1_555
C23 C22 1_555 1_555
H25 C23 1_555 1_555
C24 C23 1_555 1_555
H26 C24 1_555 1_555
C25 N4 1_555 1_555
H27 C25 1_555 1_555
C26 C22 1_555 1_555
H28 C26 1_555 1_555
C27 C28 1_555 1_555
C28 H29 1_555 1_555
C29 N5 1_555 1_555
H30 C29 1_555 1_555
C30 N5 1_555 1_555
H31 C30 1_555 1_555
C31 C27 1_555 1_555
H32 C31 1_555 1_555
C32 C27 1_555 1_555
H33 C32 1_555 1_555
H34 C32 1_555 1_555
C33 C32 1_555 1_555
H35 C33 1_555 1_555
H36 C33 1_555 1_555
C34 C33 1_555 1_555
H37 C34 1_555 1_555
H38 C34 1_555 1_555
C35 C34 1_555 1_555
C36 C35 1_555 1_555
H39 C36 1_555 1_555
C37 C36 1_555 1_555
H40 C37 1_555 1_555
C38 N6 1_555 1_555
H41 C38 1_555 1_555
C39 C35 1_555 1_555
H42 C39 1_555 1_555
C40 C41 1_555 1_555
C41 H43 1_555 1_555
C42 N7 1_555 1_555
H44 C42 1_555 1_555
C43 N7 1_555 1_555
H45 C43 1_555 1_555
C44 C40 1_555 1_555
H46 C44 1_555 1_555
C45 C40 1_555 1_555
H47 C45 1_555 1_555
H48 C45 1_555 1_555
C46 C45 1_555 1_555
H49 C46 1_555 1_555
H50 C46 1_555 1_555
C47 C46 1_555 1_555
H51 C47 1_555 1_555
H52 C47 1_555 1_555
C48 C47 1_555 1_555
C49 C48 1_555 1_555
H53 C49 1_555 1_555
C50 C49 1_555 1_555
H54 C50 1_555 1_555
N20 Ni2 1_555 1_555
C51 N20 1_555 1_555
H55 C51 1_555 1_555
C52 C48 1_555 1_555
H56 C52 1_555 1_555
Ni2_2 N6 1_555 1_555
Ni2_3 N2 1_555 1_555
Ni2_4 N4 1_555 1_555
N2_2 Ni2 1_555 1_555
N4_2 Ni2 1_555 1_555
N6_2 Ni2 1_555 1_555
C4 C5 1_555 1_555
C12 C13 1_555 1_555
C15 C16 1_555 1_555
C17 C18 1_555 1_555
C25 C26 1_555 1_555
C28 C29 1_555 1_555
C30 C31 1_555 1_555
C38 C39 1_555 1_555
C41 C42 1_555 1_555
C43 C44 1_555 1_555
C50 N20 1_555 1_555
C51 C52 1_555 1_555

#END
