
#######################################################################
#
#                 Cambridge Crystallographic Data Centre
#                                CCDC 
#
#######################################################################
#
# If this CIF has been generated from an entry in the Cambridge 
# Structural Database, then it will include bibliographic, chemical, 
# crystal, experimental, refinement or atomic coordinate data resulting 
# from the CCDC's data processing and validation procedures.
#
#######################################################################

data_KABTEO
_symmetry_cell_setting           monoclinic
_symmetry_space_group_name_H-M   'P 21'
_symmetry_Int_Tables_number      4
_space_group_name_Hall           'P 2yb'
loop_
_symmetry_equiv_pos_site_id
_symmetry_equiv_pos_as_xyz
1 x,y,z
2 -x,1/2+y,-z
_cell_length_a                   8.6787(12)
_cell_length_b                   7.8137(11)
_cell_length_c                   10.3170(14)
_cell_angle_alpha                90
_cell_angle_beta                 107.917(2)
_cell_angle_gamma                90
_cell_volume                     665.695
loop_
_atom_site_label
_atom_site_type_symbol
_atom_site_fract_x
_atom_site_fract_y
_atom_site_fract_z
C1 C 0.2051(5) 0.5138(5) 0.8100(4)
C2 C 0.3648(5) 0.5613(6) 0.8716(4)
H1 H 0.4248 0.6038 0.8180
C3 C 0.4373(5) 0.5472(6) 1.0106(4)
C4 C 0.3487(6) 0.4853(6) 1.0916(4)
H2 H 0.3971 0.4716 1.1849
C5 C 0.1891(6) 0.4447(6) 1.0327(4)
H3 H 0.1300 0.4059 1.0883
C6 C 0.1101(5) 0.4590(5) 0.8914(4)
C7 C -0.0639(5) 0.4143(8) 0.8382(4)
C8 C 0.6761(6) 0.5805(8) 1.1982(4)
H4 H 0.6305 0.6597 1.2474
H5 H 0.7891 0.6053 1.2157
H6 H 0.6640 0.4659 1.2271
C9 C -0.1642(6) 0.4296(9) 0.9331(4)
H7 H -0.2696 0.4727 0.8841
H8 H -0.1124 0.5068 1.0059
H9 H -0.1748 0.3191 0.9702
C10 C -0.3032(5) 0.3454(6) 0.6533(4)
H10 H -0.3601 0.4509 0.6189
H11 H -0.3463 0.2992 0.7223
C11 C -0.3250(5) 0.2181(6) 0.5386(5)
H12 H -0.2910 0.1051 0.5753
H13 H -0.4381 0.2123 0.4843
Cu1 Cu -0.03264(5) 0.39790(7) 0.56694(4)
N1 N -0.1290(4) 0.3783(6) 0.7116(3)
N2 N 0.1511(4) 0.2877(5) 0.4165(3)
O1 O 0.1472(3) 0.5257(4) 0.6736(2)
O2 O -0.2274(3) 0.2741(4) 0.4551(3)
O3 O 0.0497(3) 0.4108(7) 0.4068(2)
O4 O 0.5950(4) 0.5961(5) 1.0571(3)
O5 O 0.2256(5) 0.2792(5) 0.3340(3)
O6 O 0.1654(4) 0.1809(4) 0.5089(3)
Cu1A Cu 0.03264(5) -0.10210(7) 0.43306(4)
O6A O -0.1654(4) 0.6809(4) 0.4911(3)
loop_
_geom_bond_atom_site_label_1
_geom_bond_atom_site_label_2
_geom_bond_site_symmetry_1
_geom_bond_site_symmetry_2
C1 C2 1_555 1_555
C2 H1 1_555 1_555
C3 C2 1_555 1_555
C4 C3 1_555 1_555
H2 C4 1_555 1_555
C5 C4 1_555 1_555
H3 C5 1_555 1_555
C6 C1 1_555 1_555
C7 C6 1_555 1_555
C8 H4 1_555 1_555
H5 C8 1_555 1_555
H6 C8 1_555 1_555
C9 C7 1_555 1_555
H7 C9 1_555 1_555
H8 C9 1_555 1_555
H9 C9 1_555 1_555
C10 H10 1_555 1_555
H11 C10 1_555 1_555
C11 C10 1_555 1_555
H12 C11 1_555 1_555
H13 C11 1_555 1_555
Cu1 N1 1_555 1_555
N1 C7 1_555 1_555
N2 O3 1_555 1_555
O1 C1 1_555 1_555
O2 C11 1_555 1_555
O3 Cu1 1_555 1_555
O4 C3 1_555 1_555
O5 N2 1_555 1_555
O6 Cu1 1_555 1_555
Cu1A O6 1_555 1_555
O6A Cu1 1_555 1_555
C5 C6 1_555 1_555
C8 O4 1_555 1_555
C10 N1 1_555 1_555
Cu1 O1 1_555 1_555
Cu1 O2 1_555 1_555
N2 O6 1_555 1_555

#END
