
#######################################################################
#
#                 Cambridge Crystallographic Data Centre
#                                CCDC 
#
#######################################################################
#
# If this CIF has been generated from an entry in the Cambridge 
# Structural Database, then it will include bibliographic, chemical, 
# crystal, experimental, refinement or atomic coordinate data resulting 
# from the CCDC's data processing and validation procedures.
#
#######################################################################

data_KABTOY
_symmetry_cell_setting           triclinic
_symmetry_space_group_name_H-M   'P -1'
_symmetry_Int_Tables_number      2
_space_group_name_Hall           '-P 1'
loop_
_symmetry_equiv_pos_site_id
_symmetry_equiv_pos_as_xyz
1 x,y,z
2 -x,-y,-z
_cell_length_a                   11.338(6)
_cell_length_b                   11.609(6)
_cell_length_c                   15.801(12)
_cell_angle_alpha                107.988(12)
_cell_angle_beta                 100.295(11)
_cell_angle_gamma                106.790(8)
_cell_volume                     1809.96
loop_
_atom_site_label
_atom_site_type_symbol
_atom_site_fract_x
_atom_site_fract_y
_atom_site_fract_z
Cd1 Cd 0.02768(3) 0.87191(3) 0.05093(2)
N1 N 0.0103(3) 0.6715(3) -0.0586(2)
N2 N -0.1360(3) 0.6975(3) 0.0555(2)
N3 N -0.0797(3) 0.9478(3) 0.1596(2)
N4 N 1.0662(3) 1.4605(3) 0.3816(3)
N5 N 0.8935(3) 1.6767(3) 0.4405(2)
N6 N 0.6373(4) 1.7990(4) 0.4519(3)
O1 O -0.8702(2) 0.1028(3) 0.0684(2)
O2 O -0.7854(2) -0.0432(3) 0.0100(2)
O3 O 0.1711(2) 0.9018(3) 0.18583(19)
O4 O 0.3308(3) 0.8261(3) 0.1762(3)
C1 C 0.0897(4) 0.6625(4) -0.1118(3)
H1 H 0.1545 0.7383 -0.1048
C2 C 0.0799(4) 0.5469(4) -0.1757(3)
H2 H 0.1375 0.5442 -0.2108
C3 C -0.0174(4) 0.4346(4) -0.1871(3)
H3 H -0.0274 0.3549 -0.2310
C4 C -0.0993(4) 0.4417(4) -0.1329(3)
H4 H -0.1651 0.3668 -0.1394
C5 C -0.0829(3) 0.5613(3) -0.0685(3)
C6 C -0.1642(3) 0.5754(3) -0.0040(3)
C7 C -0.2649(3) 0.4718(4) -0.0053(3)
H5 H -0.2851 0.3886 -0.0488
C8 C -0.3354(3) 0.4910(4) 0.0573(3)
C9 C -0.3023(3) 0.6187(3) 0.1193(3)
H6 H -0.3463 0.6363 0.1631
C10 C -0.2040(3) 0.7195(3) 0.1156(3)
C11 C -0.1681(3) 0.8595(3) 0.1774(3)
C12 C -0.2226(4) 0.8979(4) 0.2479(3)
H7 H -0.2843 0.8358 0.2586
C13 C -0.1854(4) 1.0284(4) 0.3022(3)
H8 H -0.2208 1.0551 0.3500
C14 C -0.0946(4) 1.1183(4) 0.2838(3)
H9 H -0.0676 1.2070 0.3188
C15 C -0.0449(4) 1.0733(4) 0.2125(3)
H10 H 0.0166 1.1341 0.2005
C16 C -0.4442(3) 0.3821(3) 0.0583(3)
C17 C -0.4656(3) 0.2528(4) 0.0075(3)
H11 H -0.4084 0.2329 -0.0247
C18 C -0.5722(4) 0.1527(4) 0.0045(3)
H12 H -0.5841 0.0666 -0.0287
C19 C -0.6605(3) 0.1793(4) 0.0500(3)
C20 C -0.6367(3) 0.3075(4) 0.1029(3)
H13 H -0.6932 0.3267 0.1361
C21 C -0.5308(3) 0.4080(4) 0.1078(3)
H14 H -0.5169 0.4934 0.1443
C22 C -0.7799(4) 0.0722(4) 0.0424(3)
C23 C 1.1878(4) 1.4679(5) 0.3895(4)
H15 H 1.2012 1.3912 0.3624
C24 C 1.2946(4) 1.5811(5) 0.4348(4)
H16 H 1.3772 1.5806 0.4379
C25 C 1.2758(4) 1.6936(5) 0.4749(4)
H17 H 1.3459 1.7716 0.5068
C26 C 1.1514(4) 1.6909(4) 0.4679(3)
H18 H 1.1367 1.7669 0.4946
C27 C 1.0486(4) 1.5723(4) 0.4201(3)
C28 C 0.9130(4) 1.5644(4) 0.4081(3)
C29 C 0.8116(3) 1.4442(4) 0.3652(3)
H19 H 0.8291 1.3683 0.3465
C30 C 0.6842(4) 1.4364(4) 0.3499(3)
C31 C 0.6647(4) 1.5531(4) 0.3809(3)
H20 H 0.5815 1.5536 0.3703
C32 C 0.7707(4) 1.6698(4) 0.4281(3)
C33 C 0.7561(4) 1.7959(4) 0.4733(3)
C34 C 0.8583(5) 1.9030(5) 0.5368(4)
H21 H 0.9407 1.9005 0.5481
C35 C 0.8394(6) 2.0144(5) 0.5841(4)
H22 H 0.9082 2.0866 0.6284
C36 C 0.7202(6) 2.0167(5) 0.5653(4)
H23 H 0.7044 2.0900 0.5972
C37 C 0.6226(5) 1.9099(5) 0.4985(5)
H24 H 0.5411 1.9139 0.4843
C38 C 0.5778(4) 1.3063(4) 0.3059(3)
C39 C 0.5982(4) 1.1991(4) 0.2494(3)
H25 H 0.6753 1.2113 0.2344
C40 C 0.5056(4) 1.0756(4) 0.2157(3)
H26 H 0.5225 1.0055 0.1798
C41 C 0.3872(4) 1.0534(4) 0.2341(3)
C42 C 0.3636(4) 1.1601(4) 0.2853(3)
H27 H 0.2832 1.1488 0.2950
C43 C 0.4579(4) 1.2831(4) 0.3221(3)
H28 H 0.4410 1.3526 0.3589
C44 C 0.2885(4) 0.9163(4) 0.1953(3)
Cd1A Cd -1.02768(3) 0.12809(3) -0.05093(2)
Cd1_2 Cd -0.97232(3) -0.12809(3) 0.05093(2)
O1A O -0.1298(2) 0.8972(3) -0.0684(2)
O1_2 O 0.1298(2) 1.1028(3) 0.0684(2)
O2_2 O 0.2146(2) 0.9568(3) 0.0100(2)
O5 O 0.4818(4) 0.7023(5) 0.2453(4)
H29 H 0.422(4) 0.679(5) 0.271(3)
H30 H 0.457(5) 0.764(3) 0.242(4)
loop_
_geom_bond_atom_site_label_1
_geom_bond_atom_site_label_2
_geom_bond_site_symmetry_1
_geom_bond_site_symmetry_2
Cd1 N1 1_555 1_555
N1 C1 1_555 1_555
N2 Cd1 1_555 1_555
N3 Cd1 1_555 1_555
N4 C23 1_555 1_555
N5 C28 1_555 1_555
N6 C33 1_555 1_555
O1 C22 1_555 1_555
O2 C22 1_555 1_555
O3 Cd1 1_555 1_555
O4 C44 1_555 1_555
C1 H1 1_555 1_555
C2 C1 1_555 1_555
H2 C2 1_555 1_555
C3 C2 1_555 1_555
H3 C3 1_555 1_555
C4 C3 1_555 1_555
H4 C4 1_555 1_555
C5 N1 1_555 1_555
C6 N2 1_555 1_555
C7 C6 1_555 1_555
H5 C7 1_555 1_555
C8 C7 1_555 1_555
C9 C8 1_555 1_555
H6 C9 1_555 1_555
C10 N2 1_555 1_555
C11 N3 1_555 1_555
C12 C11 1_555 1_555
H7 C12 1_555 1_555
C13 C12 1_555 1_555
H8 C13 1_555 1_555
C14 C13 1_555 1_555
H9 C14 1_555 1_555
C15 N3 1_555 1_555
H10 C15 1_555 1_555
C16 C8 1_555 1_555
C17 C16 1_555 1_555
H11 C17 1_555 1_555
C18 C17 1_555 1_555
H12 C18 1_555 1_555
C19 C18 1_555 1_555
C20 C19 1_555 1_555
H13 C20 1_555 1_555
C21 C16 1_555 1_555
H14 C21 1_555 1_555
C22 C19 1_555 1_555
C23 H15 1_555 1_555
C24 C23 1_555 1_555
H16 C24 1_555 1_555
C25 C24 1_555 1_555
H17 C25 1_555 1_555
C26 C25 1_555 1_555
H18 C26 1_555 1_555
C27 N4 1_555 1_555
C28 C27 1_555 1_555
C29 C28 1_555 1_555
H19 C29 1_555 1_555
C30 C29 1_555 1_555
C31 C30 1_555 1_555
H20 C31 1_555 1_555
C32 N5 1_555 1_555
C33 C32 1_555 1_555
C34 C33 1_555 1_555
H21 C34 1_555 1_555
C35 C34 1_555 1_555
H22 C35 1_555 1_555
C36 C35 1_555 1_555
H23 C36 1_555 1_555
C37 N6 1_555 1_555
H24 C37 1_555 1_555
C38 C30 1_555 1_555
C39 C38 1_555 1_555
H25 C39 1_555 1_555
C40 C39 1_555 1_555
H26 C40 1_555 1_555
C41 C40 1_555 1_555
C42 C41 1_555 1_555
H27 C42 1_555 1_555
C43 C38 1_555 1_555
H28 C43 1_555 1_555
C44 O3 1_555 1_555
O5 H29 1_555 1_555
H30 O5 1_555 1_555
Cd1A O1 1_555 1_555
Cd1_2 O1 1_555 1_555
O1A Cd1 1_555 1_555
O1_2 Cd1 1_555 1_555
O2_2 Cd1 1_555 1_555
O2 Cd1_2 1_555 1_555
C4 C5 1_555 1_555
C5 C6 1_555 1_555
C9 C10 1_555 1_555
C10 C11 1_555 1_555
C14 C15 1_555 1_555
C20 C21 1_555 1_555
C26 C27 1_555 1_555
C31 C32 1_555 1_555
C36 C37 1_555 1_555
C41 C44 1_555 1_555
C42 C43 1_555 1_555

#END
