
#######################################################################
#
#                 Cambridge Crystallographic Data Centre
#                                CCDC 
#
#######################################################################
#
# If this CIF has been generated from an entry in the Cambridge 
# Structural Database, then it will include bibliographic, chemical, 
# crystal, experimental, refinement or atomic coordinate data resulting 
# from the CCDC's data processing and validation procedures.
#
#######################################################################

data_KABTEM
_symmetry_cell_setting           monoclinic
_symmetry_space_group_name_H-M   'P 21/n'
_symmetry_Int_Tables_number      14
_space_group_name_Hall           '-P 2yn'
loop_
_symmetry_equiv_pos_site_id
_symmetry_equiv_pos_as_xyz
1 x,y,z
2 1/2-x,1/2+y,1/2-z
3 -x,-y,-z
4 1/2+x,1/2-y,1/2+z
_cell_length_a                   7.974(3)
_cell_length_b                   4.817(3)
_cell_length_c                   14.168(3)
_cell_angle_alpha                90
_cell_angle_beta                 94.70(3)
_cell_angle_gamma                90
_cell_volume                     542.374
loop_
_atom_site_label
_atom_site_type_symbol
_atom_site_fract_x
_atom_site_fract_y
_atom_site_fract_z
Fe1 Fe 0.21197(8) -0.0365(1) 0.13855(4)
Fe2 Fe 0.58907(8) -0.5294(1) 0.19462(4)
P1 P 0.4992(1) 0.0216(3) 0.30748(8)
O1 O 0.5559(4) -0.1391(7) -0.4005(2)
O2 O 0.5111(4) 0.2944(6) -0.3039(2)
O3 O 0.2111(5) 0.1623(8) 0.0103(2)
O4 O 0.3816(4) 0.1604(7) 0.2269(2)
O5 O 0.4279(4) -0.3064(7) 0.0932(2)
O6 O 0.3239(4) -0.1277(7) -0.2882(2)
O7 O 0.3695(4) -0.2653(7) -0.0644(2)
C1 C 0.4409(5) -0.3771(10) 0.0076(3)
H1 H 0.107(7) 0.25(1) -0.024(4)
H2 H 0.224(6) 0.08(1) -0.026(3)
Fe2_2 Fe 0.58907(8) 0.4706(1) 0.19462(4)
Fe1C Fe 0.71197(8) -0.4635(1) -0.36145(4)
Fe2B Fe 0.41093(8) -0.4706(1) -0.19462(4)
P1B P 0.5008(1) -0.0216(3) -0.30748(8)
O1C O 0.0559(4) -0.3609(7) 0.0995(2)
O2_2 O 0.5111(4) -0.7056(6) -0.3039(2)
O4B O 0.6184(4) -0.1604(7) -0.2269(2)
O5B O 0.5721(4) -0.6936(7) -0.0932(2)
O6A O 0.1761(4) -0.6277(7) -0.2118(2)
O2C O 0.0111(4) 0.2056(6) 0.1961(2)
Fe2C Fe 0.08907(8) 0.0294(1) -0.30538(4)
C1B C 0.5591(5) -0.6229(10) -0.0076(3)
Fe1B Fe 0.78803(8) -0.9635(1) -0.13855(4)
O1A O 0.9441(4) -0.6391(7) -0.0995(2)
O2A O 0.9889(4) -1.2056(6) -0.1961(2)
O3B O 0.7889(5) -1.1623(8) -0.0103(2)
O4B_2 O 0.6184(4) -1.1604(7) -0.2269(2)
H1B H 0.893(7) -1.25(1) 0.024(4)
H2B H 0.776(6) -1.08(1) 0.026(3)
Fe1A Fe 0.28803(8) -0.5365(1) 0.36145(4)
O2B O 0.4889(4) -0.2944(6) 0.3039(2)
O6B O 0.6761(4) -0.8723(7) 0.2882(2)
O7B O 0.6305(4) -0.7347(7) 0.0644(2)
O4_2 O 0.3816(4) -0.8396(7) 0.2269(2)
O6C O 0.8239(4) -0.3723(7) 0.2118(2)
Fe1A_2 Fe 0.28803(8) 0.4635(1) 0.36145(4)
O6B_2 O 0.6761(4) 0.1277(7) 0.2882(2)
O1B O 0.4441(4) 0.1391(7) 0.4005(2)
Fe1B_2 Fe 0.78803(8) 0.0365(1) -0.13855(4)
Fe1C_2 Fe 0.71197(8) 0.5365(1) -0.36145(4)
Fe2B_2 Fe 0.41093(8) 0.5294(1) -0.19462(4)
Fe2A Fe 0.91093(8) -0.0294(1) 0.30538(4)
loop_
_geom_bond_atom_site_label_1
_geom_bond_atom_site_label_2
_geom_bond_site_symmetry_1
_geom_bond_site_symmetry_2
Fe1 O3 1_555 1_555
Fe2 O5 1_555 1_555
P1 O4 1_555 1_555
O1 Fe1C 1_555 1_555
O2 P1B 1_555 1_555
O3 H1 1_555 1_555
O4 Fe1 1_555 1_555
O5 Fe1 1_555 1_555
O6 Fe2B 1_555 1_555
O7 C1 1_555 1_555
C1 O5 1_555 1_555
H2 O3 1_555 1_555
Fe2_2 O4 1_555 1_555
Fe1C O2_2 1_555 1_555
Fe2B O7 1_555 1_555
P1B O1 1_555 1_555
O1C Fe1 1_555 1_555
O2_2 Fe2B 1_555 1_555
O4B Fe2B 1_555 1_555
O5B Fe2B 1_555 1_555
O6A Fe2B 1_555 1_555
O2C Fe1 1_555 1_555
Fe2C O6 1_555 1_555
C1B C1 1_555 1_555
Fe1B O5B 1_555 1_555
O1A Fe1B 1_555 1_555
O2A Fe1B 1_555 1_555
O3B Fe1B 1_555 1_555
O4B_2 Fe1B 1_555 1_555
H1B O3B 1_555 1_555
H2B O3B 1_555 1_555
Fe1A O2B 1_555 1_555
O2B Fe2 1_555 1_555
O6B Fe2 1_555 1_555
O7B Fe2 1_555 1_555
O4_2 Fe2 1_555 1_555
O6C Fe2 1_555 1_555
Fe1A_2 O1B 1_555 1_555
O6B_2 P1 1_555 1_555
O1B P1 1_555 1_555
Fe1B_2 O4B 1_555 1_555
Fe1C_2 O2 1_555 1_555
Fe2B_2 O2 1_555 1_555
Fe2A O6C 1_555 1_555
P1 O2B 1_555 1_555
O6 P1B 1_555 1_555
Fe2_2 O6B_2 1_555 1_555
P1B O4B 1_555 1_555
O5B C1B 1_555 1_555
C1B O7B 1_555 1_555
O6B_2 Fe2A 1_555 1_555

#END
