
#######################################################################
#
#                 Cambridge Crystallographic Data Centre
#                                CCDC 
#
#######################################################################
#
# If this CIF has been generated from an entry in the Cambridge 
# Structural Database, then it will include bibliographic, chemical, 
# crystal, experimental, refinement or atomic coordinate data resulting 
# from the CCDC's data processing and validation procedures.
#
#######################################################################

data_KABVIU
_symmetry_cell_setting           monoclinic
_symmetry_space_group_name_H-M   'P 21/c'
_symmetry_Int_Tables_number      14
_space_group_name_Hall           '-P 2ybc'
loop_
_symmetry_equiv_pos_site_id
_symmetry_equiv_pos_as_xyz
1 x,y,z
2 -x,1/2+y,1/2-z
3 -x,-y,-z
4 x,1/2-y,1/2+z
_cell_length_a                   12.846(5)
_cell_length_b                   17.284(7)
_cell_length_c                   12.880(5)
_cell_angle_alpha                90
_cell_angle_beta                 107.226(5)
_cell_angle_gamma                90
_cell_volume                     2731.47
loop_
_atom_site_label
_atom_site_type_symbol
_atom_site_fract_x
_atom_site_fract_y
_atom_site_fract_z
Co1 Co 0.57647(3) 0.189434(19) 0.18074(3)
S1 S 0.79031(7) 0.58862(4) -0.00445(6)
C1 C 0.6279(2) 0.42322(14) 0.1080(2)
C2 C 0.5641(2) 0.46701(15) 0.1563(2)
H1 H 0.5167 0.4423 0.1879
C3 C 0.5704(2) 0.54722(14) 0.15778(19)
C4 C 0.6386(2) 0.58393(14) 0.1075(2)
H2 H 0.6424 0.6377 0.1072
C5 C 0.7012(2) 0.54054(14) 0.0576(2)
C6 C 0.6965(2) 0.46079(14) 0.0588(2)
H3 H 0.7395 0.4320 0.0264
C7 C 0.6273(3) 0.33622(15) 0.1124(2)
C8 C 0.5090(2) 0.59325(15) 0.2192(2)
C9 C 0.4665(3) 0.20438(18) -0.0617(3)
H4 H 0.4866 0.2561 -0.0615
C10 C 0.4006(4) 0.0920(2) -0.1200(3)
H5 H 0.3701 0.0503 -0.1643
C11 C 0.4406(5) 0.0924(2) -0.0118(3)
H6 H 0.4373 0.0502 0.0319
C12 C 0.7764(3) 0.10272(18) 0.3192(3)
H7 H 0.7355 0.0591 0.3233
C13 C 0.9145(3) 0.1802(2) 0.3442(3)
H8 H 0.9847 0.2005 0.3671
C14 C 0.8254(3) 0.2146(2) 0.2805(3)
H9 H 0.8233 0.2642 0.2520
O1 O 0.57133(19) 0.30497(10) 0.16715(17)
O2 O 0.6835(2) 0.29999(11) 0.06495(19)
O3 O 0.51605(19) 0.66649(10) 0.22007(16)
O4 O 0.45474(18) 0.55923(10) 0.27149(16)
O5 O 0.7356(2) 0.59050(16) -0.11996(18)
O6 O 0.8889(2) 0.54183(13) 0.0189(2)
O7 O 0.8104(2) 0.66407(12) 0.0443(2)
N1 N 0.4863(2) 0.16050(14) 0.0269(2)
N2 N 0.4137(3) 0.1646(2) -0.1516(2)
H19 H 0.3923 0.1823 -0.2170
N3 N 0.7364(2) 0.16565(14) 0.26322(19)
N4 N 0.8824(3) 0.10979(17) 0.3689(2)
H20 H 0.9235 0.0756 0.4096
Co1A Co 0.42353(3) 0.689434(19) 0.31926(3)
O3A O 0.48395(19) 0.16649(10) 0.27993(16)
O4A O 0.54526(18) 0.05923(10) 0.22851(16)
Co2 Co 1.0000 0.0000 0.0000
C15 C 1.0992(3) 0.0363(2) -0.1889(3)
H10 H 1.1600 0.0065 -0.1548
C16 C 0.9922(4) 0.1123(2) -0.3033(3)
H11 H 0.9631 0.1456 -0.3614
C17 C 0.9444(4) 0.0895(2) -0.2281(3)
H12 H 0.8750 0.1039 -0.2268
C18 C 0.8463(3) 0.13533(17) 0.0229(3)
H13 H 0.9029 0.1606 0.0735
C19 C 0.6890(3) 0.1125(2) -0.0875(3)
H14 H 0.6164 0.1173 -0.1288
C20 C 0.7566(3) 0.0531(2) -0.0905(3)
H15 H 0.7375 0.0093 -0.1338
C21 C 1.1325(3) 0.15640(19) 0.0318(3)
H16 H 1.1281 0.1574 -0.0416
C22 C 1.1667(3) 0.19160(19) 0.2008(3)
H17 H 1.1893 0.2199 0.2651
C23 C 1.1186(3) 0.12139(18) 0.1866(3)
H18 H 1.1026 0.0926 0.2409
N5 N 1.0134(2) 0.04207(14) -0.15405(19)
N6 N 1.0901(3) 0.07738(17) -0.2776(2)
H21 H 1.1377 0.0811 -0.3124
N7 N 0.8565(2) 0.06763(13) -0.02054(19)
N8 N 0.7462(2) 0.16295(15) -0.0139(2)
H22 H 0.7223 0.2053 0.0057
N9 N 1.0966(2) 0.09866(13) 0.0799(2)
N10 N 1.1756(3) 0.21256(16) 0.1016(3)
H23 H 1.2040 0.2547 0.0870
C15B C 0.9008(3) -0.0363(2) 0.1889(3)
H10B H 0.8400 -0.0065 0.1548
C16B C 1.0078(4) -0.1123(2) 0.3033(3)
H11B H 1.0369 -0.1456 0.3614
C17B C 1.0556(4) -0.0895(2) 0.2281(3)
H12B H 1.1250 -0.1039 0.2268
C18B C 1.1537(3) -0.13533(17) -0.0229(3)
H13B H 1.0971 -0.1606 -0.0735
C19B C 1.3110(3) -0.1125(2) 0.0875(3)
H14B H 1.3836 -0.1173 0.1288
C20B C 1.2434(3) -0.0531(2) 0.0905(3)
H15B H 1.2625 -0.0093 0.1338
C21B C 0.8675(3) -0.15640(19) -0.0318(3)
H16B H 0.8719 -0.1574 0.0416
C22B C 0.8333(3) -0.19160(19) -0.2008(3)
H17B H 0.8107 -0.2199 -0.2651
C23B C 0.8814(3) -0.12139(18) -0.1866(3)
H18B H 0.8974 -0.0926 -0.2409
N5B N 0.9866(2) -0.04207(14) 0.15405(19)
N6B N 0.9099(3) -0.07738(17) 0.2776(2)
H21B H 0.8623 -0.0811 0.3124
N7B N 1.1435(2) -0.06763(13) 0.02054(19)
N8B N 1.2538(2) -0.16295(15) 0.0139(2)
H22B H 1.2777 -0.2053 -0.0057
N9B N 0.9034(2) -0.09866(13) -0.0799(2)
N10B N 0.8244(3) -0.21256(16) -0.1016(3)
H23B H 0.7960 -0.2547 -0.0870
loop_
_geom_bond_atom_site_label_1
_geom_bond_atom_site_label_2
_geom_bond_site_symmetry_1
_geom_bond_site_symmetry_2
Co1 O1 1_555 1_555
Co2 N5 1_555 1_555
S1 C5 1_555 1_555
C1 C2 1_555 1_555
C2 H1 1_555 1_555
C3 C2 1_555 1_555
C4 C3 1_555 1_555
H2 C4 1_555 1_555
C5 C4 1_555 1_555
C6 C1 1_555 1_555
H3 C6 1_555 1_555
C7 C1 1_555 1_555
C8 C3 1_555 1_555
C9 H4 1_555 1_555
C10 H5 1_555 1_555
C11 C10 1_555 1_555
H6 C11 1_555 1_555
C12 H7 1_555 1_555
C13 H8 1_555 1_555
C14 C13 1_555 1_555
H9 C14 1_555 1_555
C15 H10 1_555 1_555
C16 H11 1_555 1_555
C17 C16 1_555 1_555
H12 C17 1_555 1_555
C18 H13 1_555 1_555
C19 H14 1_555 1_555
C20 C19 1_555 1_555
H15 C20 1_555 1_555
C21 H16 1_555 1_555
C22 H17 1_555 1_555
C23 C22 1_555 1_555
H18 C23 1_555 1_555
O1 C7 1_555 1_555
O2 C7 1_555 1_555
O3 C8 1_555 1_555
O4 C8 1_555 1_555
O5 S1 1_555 1_555
O6 S1 1_555 1_555
O7 S1 1_555 1_555
N1 Co1 1_555 1_555
N2 C9 1_555 1_555
H19 N2 1_555 1_555
N3 Co1 1_555 1_555
N4 C12 1_555 1_555
H20 N4 1_555 1_555
N5 C15 1_555 1_555
N6 C15 1_555 1_555
H21 N6 1_555 1_555
N7 Co2 1_555 1_555
N8 C18 1_555 1_555
H22 N8 1_555 1_555
N9 Co2 1_555 1_555
N10 C21 1_555 1_555
H23 N10 1_555 1_555
Co1A O3 1_555 1_555
C15B H10B 1_555 1_555
C16B H11B 1_555 1_555
C17B C16B 1_555 1_555
H12B C17B 1_555 1_555
C18B H13B 1_555 1_555
C19B H14B 1_555 1_555
C20B C19B 1_555 1_555
H15B C20B 1_555 1_555
C21B H16B 1_555 1_555
C22B H17B 1_555 1_555
C23B C22B 1_555 1_555
H18B C23B 1_555 1_555
O3A Co1 1_555 1_555
O4A Co1 1_555 1_555
N5B Co2 1_555 1_555
N6B C15B 1_555 1_555
H21B N6B 1_555 1_555
N7B Co2 1_555 1_555
N8B C18B 1_555 1_555
H22B N8B 1_555 1_555
N9B Co2 1_555 1_555
N10B C21B 1_555 1_555
H23B N10B 1_555 1_555
C5 C6 1_555 1_555
C9 N1 1_555 1_555
C10 N2 1_555 1_555
C11 N1 1_555 1_555
C12 N3 1_555 1_555
C13 N4 1_555 1_555
C14 N3 1_555 1_555
C16 N6 1_555 1_555
C17 N5 1_555 1_555
C18 N7 1_555 1_555
C19 N8 1_555 1_555
C20 N7 1_555 1_555
C21 N9 1_555 1_555
C22 N10 1_555 1_555
C23 N9 1_555 1_555
O4 Co1A 1_555 1_555
C15B N5B 1_555 1_555
C16B N6B 1_555 1_555
C17B N5B 1_555 1_555
C18B N7B 1_555 1_555
C19B N8B 1_555 1_555
C20B N7B 1_555 1_555
C21B N9B 1_555 1_555
C22B N10B 1_555 1_555
C23B N9B 1_555 1_555

#END
