
#######################################################################
#
#                 Cambridge Crystallographic Data Centre
#                                CCDC 
#
#######################################################################
#
# If this CIF has been generated from an entry in the Cambridge 
# Structural Database, then it will include bibliographic, chemical, 
# crystal, experimental, refinement or atomic coordinate data resulting 
# from the CCDC's data processing and validation procedures.
#
#######################################################################

data_KABVOA
_symmetry_cell_setting           triclinic
_symmetry_space_group_name_H-M   'P -1'
_symmetry_Int_Tables_number      2
_space_group_name_Hall           '-P 1'
loop_
_symmetry_equiv_pos_site_id
_symmetry_equiv_pos_as_xyz
1 x,y,z
2 -x,-y,-z
_cell_length_a                   10.232(4)
_cell_length_b                   11.140(5)
_cell_length_c                   17.971(10)
_cell_angle_alpha                103.905(8)
_cell_angle_beta                 98.362(7)
_cell_angle_gamma                109.981(5)
_cell_volume                     1809.64
loop_
_atom_site_label
_atom_site_type_symbol
_atom_site_fract_x
_atom_site_fract_y
_atom_site_fract_z
Cd1 Cd 0.94402(10) 0.83133(11) 0.50998(6)
Cd2 Cd 0.63907(11) 0.87131(12) 0.38881(7)
S1 S 0.3178(4) 0.4335(4) 0.6544(2)
S2 S 1.0064(6) 0.7681(8) 0.0586(3)
O1 O 0.7082(9) 0.8495(10) 0.5082(6)
O2 O 0.7767(10) 0.7292(11) 0.5732(6)
O3 O 0.2380(10) 0.9060(12) 0.5405(6)
O4 O 0.0724(11) 0.7262(12) 0.5544(7)
O5 O 0.1744(10) 0.3443(9) 0.6091(6)
O6 O 0.4175(9) 0.3657(10) 0.6442(6)
O7 O 0.3254(11) 0.4962(10) 0.7381(6)
O8 O 1.4825(11) 0.8772(13) 0.2830(7)
O9 O 1.4105(9) 0.8566(10) 0.3853(6)
O10 O 0.7888(10) 0.8706(11) 0.3096(6)
O11 O 0.9697(10) 0.9486(9) 0.4191(6)
O12 O 0.8783(18) 0.789(2) 0.0352(8)
O13 O 1.112(2) 0.867(2) 0.0405(10)
O14 O 1.003(2) 0.641(2) 0.0333(9)
C1 C 0.5407(13) 0.7266(13) 0.5692(7)
C2 C 0.4430(12) 0.7856(13) 0.5550(8)
H1 H 0.4670 0.8557 0.5333
C3 C 0.3150(14) 0.7424(15) 0.5722(8)
C4 C 0.2716(14) 0.6297(18) 0.6008(9)
H2 H 0.1822 0.6000 0.6119
C5 C 0.3654(14) 0.5628(14) 0.6124(8)
C6 C 0.5024(14) 0.6178(13) 0.5984(9)
H3 H 0.5688 0.5805 0.6090
C7 C 0.6853(15) 0.7666(15) 0.5474(8)
C8 C 0.1964(17) 0.7923(17) 0.5559(9)
C9 C 1.2424(16) 0.8596(15) 0.2782(10)
C10 C 1.1489(14) 0.8812(13) 0.3273(9)
H4 H 1.1784 0.9012 0.3818
C11 C 1.0136(13) 0.8719(13) 0.2927(9)
C12 C 0.9699(15) 0.8366(15) 0.2107(9)
H5 H 0.8774 0.8251 0.1872
C13 C 1.0614(16) 0.8182(17) 0.1632(9)
C14 C 1.1985(13) 0.8240(16) 0.2010(9)
H6 H 1.2572 0.8019 0.1699
C15 C 1.3882(16) 0.8649(17) 0.3185(10)
C16 C 0.9185(15) 0.8988(15) 0.3443(10)
Cd1_2 Cd -0.05598(10) 0.83133(11) 0.50998(6)
Cd1A Cd 0.05598(10) 0.16867(11) 0.49002(6)
Cd1A_2 Cd 1.05598(10) 1.16867(11) 0.49002(6)
Cd2A Cd 0.36093(11) 1.12869(12) 0.61119(7)
Cd2A_2 Cd 0.36093(11) 0.12869(12) 0.61119(7)
Cd2_2 Cd 1.63907(11) 0.87131(12) 0.38881(7)
O3A O 0.7620(10) 1.0940(12) 0.4595(6)
O4_2 O 1.0724(11) 0.7262(12) 0.5544(7)
O5A O 0.8256(10) 0.6557(9) 0.3909(6)
O6A O 0.5825(9) 0.6343(10) 0.3558(6)
O8_2 O 0.4825(11) 0.8772(13) 0.2830(7)
O9_2 O 0.4105(9) 0.8566(10) 0.3853(6)
O11A O 1.0303(10) 1.0514(9) 0.5809(6)
loop_
_geom_bond_atom_site_label_1
_geom_bond_atom_site_label_2
_geom_bond_site_symmetry_1
_geom_bond_site_symmetry_2
Cd1 O1 1_555 1_555
Cd2 O1 1_555 1_555
S1 O5 1_555 1_555
S2 O12 1_555 1_555
O1 C7 1_555 1_555
O2 Cd1 1_555 1_555
O3 C8 1_555 1_555
O4 C8 1_555 1_555
O5 Cd1A 1_555 1_555
O6 S1 1_555 1_555
O7 S1 1_555 1_555
O8 C15 1_555 1_555
O9 C15 1_555 1_555
O10 Cd2 1_555 1_555
O11 Cd1 1_555 1_555
O13 S2 1_555 1_555
O14 S2 1_555 1_555
C1 C2 1_555 1_555
C2 H1 1_555 1_555
C3 C2 1_555 1_555
C4 C3 1_555 1_555
H2 C4 1_555 1_555
C5 S1 1_555 1_555
C6 C1 1_555 1_555
H3 C6 1_555 1_555
C7 O2 1_555 1_555
C8 C3 1_555 1_555
C9 C10 1_555 1_555
C10 H4 1_555 1_555
C11 C10 1_555 1_555
C12 C11 1_555 1_555
H5 C12 1_555 1_555
C13 S2 1_555 1_555
C14 C9 1_555 1_555
H6 C14 1_555 1_555
C15 C9 1_555 1_555
C16 O10 1_555 1_555
Cd1_2 O4 1_555 1_555
Cd1A_2 O11 1_555 1_555
Cd2A O3 1_555 1_555
Cd2A_2 O6 1_555 1_555
Cd2_2 O8 1_555 1_555
O3A Cd2 1_555 1_555
O4_2 Cd1 1_555 1_555
O5A Cd1 1_555 1_555
O6A Cd2 1_555 1_555
O8_2 Cd2 1_555 1_555
O9_2 Cd2 1_555 1_555
O11A Cd1 1_555 1_555
O9 Cd2_2 1_555 1_555
O11 C16 1_555 1_555
C1 C7 1_555 1_555
C4 C5 1_555 1_555
C5 C6 1_555 1_555
C11 C16 1_555 1_555
C12 C13 1_555 1_555
C13 C14 1_555 1_555
Cd1A_2 O11A 1_555 1_555

#END
