
#######################################################################
#
#                 Cambridge Crystallographic Data Centre
#                                CCDC 
#
#######################################################################
#
# If this CIF has been generated from an entry in the Cambridge 
# Structural Database, then it will include bibliographic, chemical, 
# crystal, experimental, refinement or atomic coordinate data resulting 
# from the CCDC's data processing and validation procedures.
#
#######################################################################

data_KABWOB
_symmetry_cell_setting           orthorhombic
_symmetry_space_group_name_H-M   'P b c a'
_symmetry_Int_Tables_number      61
_space_group_name_Hall           '-P 2ac 2ab'
loop_
_symmetry_equiv_pos_site_id
_symmetry_equiv_pos_as_xyz
1 x,y,z
2 1/2-x,-y,1/2+z
3 -x,1/2+y,1/2-z
4 1/2+x,1/2-y,-z
5 -x,-y,-z
6 1/2+x,y,1/2-z
7 x,1/2-y,1/2+z
8 1/2-x,1/2+y,z
_cell_length_a                   12.674(2)
_cell_length_b                   6.8018(13)
_cell_length_c                   20.433(4)
_cell_angle_alpha                90
_cell_angle_beta                 90
_cell_angle_gamma                90
_cell_volume                     1761.45
loop_
_atom_site_label
_atom_site_type_symbol
_atom_site_fract_x
_atom_site_fract_y
_atom_site_fract_z
C1 C 0.2608(3) 0.1924(5) 0.48652(16)
C2 C 0.1995(3) 0.1462(5) 0.53976(16)
H1 H 0.1267 0.1380 0.5345
C3 C 0.2427(3) 0.1110(5) 0.60192(16)
C4 C 0.3503(3) 0.1226(5) 0.60768(18)
H2 H 0.3820 0.0996 0.6480
C5 C 0.4103(3) 0.1669(5) 0.55562(16)
H3 H 0.4828 0.1747 0.5623
C6 C 0.2074(3) 0.2256(5) 0.42155(18)
C7 C 0.1745(3) 0.0612(5) 0.65846(18)
Mn1 Mn 0.41687(4) 0.39078(8) 0.36024(3)
N1 N 0.3732(2) 0.2008(4) 0.49329(14)
O1 O 0.44042(17) 0.2349(4) 0.44962(11)
O2 O 0.25583(18) 0.3066(4) 0.37561(11)
O3 O 0.11224(18) 0.1697(4) 0.41736(12)
O4 O 0.07702(18) 0.0524(4) 0.64768(12)
O5 O 0.21429(17) 0.0285(4) 0.71315(11)
O6 O 0.43505(18) 0.1544(4) 0.29014(12)
H4 H 0.3960 0.0530 0.2879
H5 H 0.4942 0.1815 0.2622
O7 O 0.37674(18) 0.5960(4) 0.27948(11)
H6 H 0.3483 0.7151 0.2975
H7 H 0.3254 0.5363 0.2512
Mn1C Mn -0.08313(4) 0.10922(8) 0.63976(3)
Mn1G Mn 0.08313(4) -0.10922(8) 0.36024(3)
O3G O 0.38776(18) 0.6697(4) 0.41736(12)
O4C O 0.57702(18) 0.4476(4) 0.35232(12)
loop_
_geom_bond_atom_site_label_1
_geom_bond_atom_site_label_2
_geom_bond_site_symmetry_1
_geom_bond_site_symmetry_2
C1 C2 1_555 1_555
C2 H1 1_555 1_555
C3 C2 1_555 1_555
C4 C3 1_555 1_555
H2 C4 1_555 1_555
C5 C4 1_555 1_555
H3 C5 1_555 1_555
C6 C1 1_555 1_555
C7 C3 1_555 1_555
Mn1 O1 1_555 1_555
N1 C1 1_555 1_555
O1 N1 1_555 1_555
O2 C6 1_555 1_555
O3 C6 1_555 1_555
O4 C7 1_555 1_555
O5 C7 1_555 1_555
O6 Mn1 1_555 1_555
H4 O6 1_555 1_555
H5 O6 1_555 1_555
O7 Mn1 1_555 1_555
H6 O7 1_555 1_555
H7 O7 1_555 1_555
Mn1C O4 1_555 1_555
Mn1G O3 1_555 1_555
O3G Mn1 1_555 1_555
O4C Mn1 1_555 1_555
C5 N1 1_555 1_555
Mn1 O2 1_555 1_555

#END
