
#######################################################################
#
#                 Cambridge Crystallographic Data Centre
#                                CCDC 
#
#######################################################################
#
# If this CIF has been generated from an entry in the Cambridge 
# Structural Database, then it will include bibliographic, chemical, 
# crystal, experimental, refinement or atomic coordinate data resulting 
# from the CCDC's data processing and validation procedures.
#
#######################################################################

data_KABWAN
_symmetry_cell_setting           triclinic
_symmetry_space_group_name_H-M   'P -1'
_symmetry_Int_Tables_number      2
_space_group_name_Hall           '-P 1'
loop_
_symmetry_equiv_pos_site_id
_symmetry_equiv_pos_as_xyz
1 x,y,z
2 -x,-y,-z
_cell_length_a                   10.9258(3)
_cell_length_b                   12.3827(7)
_cell_length_c                   12.6162(6)
_cell_angle_alpha                102.095(4)
_cell_angle_beta                 90.269(3)
_cell_angle_gamma                102.022(4)
_cell_volume                     1630.28
loop_
_atom_site_label
_atom_site_type_symbol
_atom_site_fract_x
_atom_site_fract_y
_atom_site_fract_z
Fe1 Fe 0.0000 0.0000 1.0000
Fe2 Fe 0.5000 0.0000 1.0000
Fe3 Fe 1.0000 1.0000 0.5000
Fe4 Fe 0.5000 1.0000 0.5000
S1 S 0.76175(5) 1.03537(5) 0.65215(5)
S2 S 0.23672(6) -0.04927(5) 0.84861(5)
O1 O 0.89486(15) 1.06481(15) 0.62920(14)
O2 O 0.68815(15) 1.01232(15) 0.54623(14)
O3 O 0.72532(16) 1.12718(15) 0.72756(16)
O4 O 0.73817(16) 0.93173(15) 0.69536(15)
O5 O 0.35068(16) -0.08200(15) 0.88106(15)
O6 O 0.18511(14) 0.01006(14) 0.94817(14)
O7 O 0.14483(15) -0.14930(15) 0.79446(15)
O8 O 0.26909(16) 0.03084(17) 0.77708(16)
O9 O -0.07823(15) -0.09347(14) 0.83966(14)
O10 O 0.47537(16) 1.09086(15) 0.66348(15)
O11 O 0.63206(16) -0.05448(16) 0.89115(15)
H1 H 0.6849 -0.0611 0.9409
H2 H 0.6755 -0.0402 0.8347
O12 O 1.16593(15) 1.07260(15) 0.60376(15)
H3 H 1.2203 1.0748 0.5522
H4 H 1.2029 1.0499 0.6559
N1 N 0.5249(2) 0.1671(2) 0.9575(2)
N2 N 0.61066(19) 0.34330(18) 0.95980(18)
N3 N 0.4840(2) 0.3369(2) 0.9505(2)
N4 N 0.9792(2) 0.83498(19) 0.5422(2)
N5 N 0.8960(2) 0.65925(17) 0.54084(18)
N6 N 1.0230(2) 0.6658(2) 0.5451(2)
N7 N 0.0030(2) 0.15820(19) 0.9513(2)
N8 N 0.0132(2) 0.27513(18) 0.84264(18)
N9 N -0.0241(3) 0.3301(2) 0.9382(2)
N10 N 0.4695(2) 0.83696(19) 0.5477(2)
N11 N 0.5241(2) 0.6735(2) 0.5599(2)
N12 N 0.48123(19) 0.72201(18) 0.65541(18)
C1 C 0.6312(2) 0.2421(2) 0.9643(2)
H5 H 0.7102 0.2265 0.9713
C2 C 0.4376(3) 0.2307(2) 0.9495(2)
H6 H 0.3519 0.2004 0.9439
C3 C 0.6995(3) 0.4501(2) 0.9633(2)
H7 H 0.7783 0.4475 0.9975
H8 H 0.6675 0.5110 1.0079
C4 C 0.7235(2) 0.4758(2) 0.8523(2)
C5 C 0.7114(3) 0.3907(2) 0.7596(3)
H9 H 0.6836 0.3155 0.7640
C6 C 0.7408(2) 0.4179(2) 0.6600(2)
H10 H 0.7323 0.3602 0.5982
C7 C 0.7825(2) 0.5290(2) 0.6508(2)
C8 C 0.7942(3) 0.6142(2) 0.7438(3)
H11 H 0.8217 0.6893 0.7392
C9 C 0.7651(2) 0.5877(2) 0.8433(2)
H12 H 0.7733 0.6454 0.9051
C10 C 0.8073(3) 0.5522(2) 0.5397(2)
H13 H 0.8400 0.4908 0.4968
H14 H 0.7286 0.5535 0.5045
C11 C 0.8730(2) 0.7593(2) 0.5391(2)
H15 H 0.7934 0.7746 0.5361
C12 C 1.0678(3) 0.7729(2) 0.5460(2)
H16 H 1.1533 0.8040 0.5491
C13 C 0.0280(2) 0.1744(2) 0.8527(2)
H17 H 0.0528 0.1219 0.7976
C14 C -0.0281(2) 0.2559(2) 1.0001(2)
H18 H -0.0506 0.2698 1.0719
C15 C 0.0247(2) 0.3235(2) 0.7461(2)
H19 H -0.0476 0.3557 0.7382
H20 H 0.0241 0.2634 0.6828
C16 C 0.1415(2) 0.4133(2) 0.7492(2)
C17 C 0.2598(3) 0.3858(2) 0.7450(2)
H21 H 0.2667 0.3117 0.7423
C18 C 0.3670(3) 0.4692(2) 0.7448(2)
H22 H 0.4451 0.4502 0.7422
C19 C 0.3594(2) 0.5800(2) 0.7485(2)
C20 C 0.2418(3) 0.6081(2) 0.7524(2)
H23 H 0.2353 0.6823 0.7549
C21 C 0.1343(2) 0.5244(2) 0.7526(2)
H24 H 0.0563 0.5436 0.7552
C22 C 0.4756(2) 0.6708(2) 0.7503(2)
H25 H 0.4785 0.7294 0.8153
H26 H 0.5487 0.6385 0.7539
C23 C 0.4499(2) 0.8178(2) 0.6464(2)
H27 H 0.4185 0.8650 0.7019
C24 C 0.5162(3) 0.7458(2) 0.4982(2)
H28 H 0.5404 0.7356 0.4268
Fe2_2 Fe -0.5000 0.0000 1.0000
Fe3_2 Fe 0.0000 -1.0000 1.5000
Fe3_3 Fe 0.0000 1.0000 0.5000
Fe4_2 Fe -0.5000 -1.0000 1.5000
S1A S 0.23825(5) 0.96463(5) 0.34785(5)
S2A S -0.23672(6) 0.04927(5) 1.15139(5)
O1A O 0.10514(15) 0.93519(15) 0.37080(14)
O1A_2 O 1.10514(15) 0.93519(15) 0.37080(14)
O2A O 0.31185(15) 0.98768(15) 0.45377(14)
O3A O 0.27468(16) 0.87282(15) 0.27244(16)
O4A O 0.26183(16) 1.06827(15) 0.30464(15)
O5A O -0.35068(16) 0.08200(15) 1.11894(15)
O5A_2 O 0.64932(16) 0.08200(15) 1.11894(15)
O6A O -0.18511(14) -0.01006(14) 1.05183(14)
O7A O -0.14483(15) 0.14930(15) 1.20554(15)
O8A O -0.26909(16) -0.03084(17) 1.22292(16)
O9A O 0.07823(15) 0.09347(14) 1.16034(14)
O10A O 0.52463(16) 0.90914(15) 0.33652(15)
O11A O 0.36794(16) 0.05448(16) 1.10885(15)
H1A H 0.3151 0.0611 1.0591
H2A H 0.3245 0.0402 1.1653
O12A O 0.83407(15) 0.92740(15) 0.39624(15)
H3A H 0.7797 0.9252 0.4478
H4A H 0.7971 0.9501 0.3441
N1A N 0.4751(2) -0.1671(2) 1.0425(2)
N2A N 0.38934(19) -0.34330(18) 1.04020(18)
N3A N 0.5160(2) -0.3369(2) 1.0495(2)
N4A N 0.0208(2) -0.83498(19) 1.4578(2)
N4A_2 N 1.0208(2) 1.16502(19) 0.4578(2)
N5A N 0.1040(2) -0.65925(17) 1.45916(18)
N6A N -0.0230(2) -0.6658(2) 1.4549(2)
N7A N -0.0030(2) -0.15820(19) 1.0487(2)
N8A N -0.0132(2) -0.27513(18) 1.15736(18)
N9A N 0.0241(3) -0.3301(2) 1.0618(2)
N10A N -0.4695(2) -0.83696(19) 1.4523(2)
N10A_2 N 0.5305(2) 1.16304(19) 0.4523(2)
N11A N -0.5241(2) -0.6735(2) 1.4401(2)
N12A N -0.48123(19) -0.72201(18) 1.34459(18)
C1A C 0.3688(2) -0.2421(2) 1.0357(2)
H5A H 0.2898 -0.2265 1.0287
C2A C 0.5624(3) -0.2307(2) 1.0505(2)
H6A H 0.6481 -0.2004 1.0561
C3A C 0.3005(3) -0.4501(2) 1.0367(2)
H7A H 0.2217 -0.4475 1.0025
H8A H 0.3325 -0.5110 0.9921
C4A C 0.2765(2) -0.4758(2) 1.1477(2)
C5A C 0.2886(3) -0.3907(2) 1.2404(3)
H9A H 0.3164 -0.3155 1.2360
C6A C 0.2592(2) -0.4179(2) 1.3400(2)
H10A H 0.2677 -0.3602 1.4018
C7A C 0.2175(2) -0.5290(2) 1.3492(2)
C8A C 0.2058(3) -0.6142(2) 1.2562(3)
H11A H 0.1783 -0.6893 1.2608
C9A C 0.2349(2) -0.5877(2) 1.1567(2)
H12A H 0.2267 -0.6454 1.0949
C10A C 0.1927(3) -0.5522(2) 1.4603(2)
H13A H 0.1600 -0.4908 1.5032
H14A H 0.2714 -0.5535 1.4955
C11A C 0.1270(2) -0.7593(2) 1.4609(2)
H15A H 0.2066 -0.7746 1.4639
C12A C -0.0678(3) -0.7729(2) 1.4540(2)
H16A H -0.1533 -0.8040 1.4509
C13A C -0.0280(2) -0.1744(2) 1.1473(2)
H17A H -0.0528 -0.1219 1.2024
C14A C 0.0281(2) -0.2559(2) 0.9999(2)
H18A H 0.0506 -0.2698 0.9281
C15A C -0.0247(2) -0.3235(2) 1.2539(2)
H19A H 0.0476 -0.3557 1.2618
H20A H -0.0241 -0.2634 1.3172
C16A C -0.1415(2) -0.4133(2) 1.2508(2)
C17A C -0.2598(3) -0.3858(2) 1.2550(2)
H21A H -0.2667 -0.3117 1.2577
C18A C -0.3670(3) -0.4692(2) 1.2552(2)
H22A H -0.4451 -0.4502 1.2578
C19A C -0.3594(2) -0.5800(2) 1.2515(2)
C20A C -0.2418(3) -0.6081(2) 1.2476(2)
H23A H -0.2353 -0.6823 1.2451
C21A C -0.1343(2) -0.5244(2) 1.2474(2)
H24A H -0.0563 -0.5436 1.2448
C22A C -0.4756(2) -0.6708(2) 1.2497(2)
H25A H -0.4785 -0.7294 1.1847
H26A H -0.5487 -0.6385 1.2461
C23A C -0.4499(2) -0.8178(2) 1.3536(2)
H27A H -0.4185 -0.8650 1.2981
C24A C -0.5162(3) -0.7458(2) 1.5018(2)
H28A H -0.5404 -0.7356 1.5732
loop_
_geom_bond_atom_site_label_1
_geom_bond_atom_site_label_2
_geom_bond_site_symmetry_1
_geom_bond_site_symmetry_2
Fe1 O6 1_555 1_555
Fe2 O5 1_555 1_555
Fe3 O1 1_555 1_555
Fe4 O2 1_555 1_555
S1 O1 1_555 1_555
S2 O5 1_555 1_555
O2 S1 1_555 1_555
O3 S1 1_555 1_555
O4 S1 1_555 1_555
O6 S2 1_555 1_555
O7 S2 1_555 1_555
O8 S2 1_555 1_555
O9 Fe1 1_555 1_555
O10 Fe4 1_555 1_555
O11 Fe2 1_555 1_555
H1 O11 1_555 1_555
H2 O11 1_555 1_555
O12 Fe3 1_555 1_555
H3 O12 1_555 1_555
H4 O12 1_555 1_555
N1 Fe2 1_555 1_555
N2 N3 1_555 1_555
N3 C2 1_555 1_555
N4 Fe3 1_555 1_555
N5 N6 1_555 1_555
N6 C12 1_555 1_555
N7 Fe1 1_555 1_555
N8 N9 1_555 1_555
N9 C14 1_555 1_555
N10 Fe4 1_555 1_555
N11 N12 1_555 1_555
N12 C22 1_555 1_555
C1 N1 1_555 1_555
H5 C1 1_555 1_555
C2 N1 1_555 1_555
H6 C2 1_555 1_555
C3 N2 1_555 1_555
H7 C3 1_555 1_555
H8 C3 1_555 1_555
C4 C3 1_555 1_555
C5 C4 1_555 1_555
H9 C5 1_555 1_555
C6 C5 1_555 1_555
H10 C6 1_555 1_555
C7 C6 1_555 1_555
C8 C7 1_555 1_555
H11 C8 1_555 1_555
C9 C4 1_555 1_555
H12 C9 1_555 1_555
C10 N5 1_555 1_555
H13 C10 1_555 1_555
H14 C10 1_555 1_555
C11 N4 1_555 1_555
H15 C11 1_555 1_555
C12 N4 1_555 1_555
H16 C12 1_555 1_555
C13 N7 1_555 1_555
H17 C13 1_555 1_555
C14 N7 1_555 1_555
H18 C14 1_555 1_555
C15 N8 1_555 1_555
H19 C15 1_555 1_555
H20 C15 1_555 1_555
C16 C15 1_555 1_555
C17 C16 1_555 1_555
H21 C17 1_555 1_555
C18 C17 1_555 1_555
H22 C18 1_555 1_555
C19 C18 1_555 1_555
C20 C19 1_555 1_555
H23 C20 1_555 1_555
C21 C16 1_555 1_555
H24 C21 1_555 1_555
C22 C19 1_555 1_555
H25 C22 1_555 1_555
H26 C22 1_555 1_555
C23 N10 1_555 1_555
H27 C23 1_555 1_555
C24 N10 1_555 1_555
H28 C24 1_555 1_555
Fe2_2 O5A 1_555 1_555
Fe3_2 N4A 1_555 1_555
Fe3_3 O1A 1_555 1_555
Fe4_2 N10A 1_555 1_555
S1A O1A 1_555 1_555
S2A O5A 1_555 1_555
O1A_2 Fe3 1_555 1_555
O2A Fe4 1_555 1_555
O3A S1A 1_555 1_555
O4A S1A 1_555 1_555
O5A_2 Fe2 1_555 1_555
O6A Fe1 1_555 1_555
O7A S2A 1_555 1_555
O8A S2A 1_555 1_555
O9A Fe1 1_555 1_555
O10A Fe4 1_555 1_555
O11A Fe2 1_555 1_555
H1A O11A 1_555 1_555
H2A O11A 1_555 1_555
O12A Fe3 1_555 1_555
H3A O12A 1_555 1_555
H4A O12A 1_555 1_555
N1A Fe2 1_555 1_555
N2A N3A 1_555 1_555
N3A C2A 1_555 1_555
N4A C11A 1_555 1_555
N4A_2 Fe3 1_555 1_555
N5A N6A 1_555 1_555
N6A C12A 1_555 1_555
N7A Fe1 1_555 1_555
N8A N9A 1_555 1_555
N9A C14A 1_555 1_555
N10A C23A 1_555 1_555
N10A_2 Fe4 1_555 1_555
N11A N12A 1_555 1_555
N12A C22A 1_555 1_555
C1A N1A 1_555 1_555
H5A C1A 1_555 1_555
C2A N1A 1_555 1_555
H6A C2A 1_555 1_555
C3A N2A 1_555 1_555
H7A C3A 1_555 1_555
H8A C3A 1_555 1_555
C4A C3A 1_555 1_555
C5A C4A 1_555 1_555
H9A C5A 1_555 1_555
C6A C5A 1_555 1_555
H10A C6A 1_555 1_555
C7A C6A 1_555 1_555
C8A C7A 1_555 1_555
H11A C8A 1_555 1_555
C9A C4A 1_555 1_555
H12A C9A 1_555 1_555
C10A N5A 1_555 1_555
H13A C10A 1_555 1_555
H14A C10A 1_555 1_555
C11A N5A 1_555 1_555
H15A C11A 1_555 1_555
C12A N4A 1_555 1_555
H16A C12A 1_555 1_555
C13A N7A 1_555 1_555
H17A C13A 1_555 1_555
C14A N7A 1_555 1_555
H18A C14A 1_555 1_555
C15A N8A 1_555 1_555
H19A C15A 1_555 1_555
H20A C15A 1_555 1_555
C16A C15A 1_555 1_555
C17A C16A 1_555 1_555
H21A C17A 1_555 1_555
C18A C17A 1_555 1_555
H22A C18A 1_555 1_555
C19A C18A 1_555 1_555
C20A C19A 1_555 1_555
H23A C20A 1_555 1_555
C21A C16A 1_555 1_555
H24A C21A 1_555 1_555
C22A C19A 1_555 1_555
H25A C22A 1_555 1_555
H26A C22A 1_555 1_555
C23A N12A 1_555 1_555
H27A C23A 1_555 1_555
C24A N10A 1_555 1_555
H28A C24A 1_555 1_555
N2 C1 1_555 1_555
N5 C11 1_555 1_555
N8 C13 1_555 1_555
N11 C24 1_555 1_555
N12 C23 1_555 1_555
C7 C10 1_555 1_555
C8 C9 1_555 1_555
C20 C21 1_555 1_555
S1A O2A 1_555 1_555
S2A O6A 1_555 1_555
N2A C1A 1_555 1_555
N8A C13A 1_555 1_555
N11A C24A 1_555 1_555
C7A C10A 1_555 1_555
C8A C9A 1_555 1_555
C20A C21A 1_555 1_555

#END
