
#######################################################################
#
#                 Cambridge Crystallographic Data Centre
#                                CCDC 
#
#######################################################################
#
# If this CIF has been generated from an entry in the Cambridge 
# Structural Database, then it will include bibliographic, chemical, 
# crystal, experimental, refinement or atomic coordinate data resulting 
# from the CCDC's data processing and validation procedures.
#
#######################################################################

data_KABXOC
_symmetry_cell_setting           monoclinic
_symmetry_space_group_name_H-M   'C 2/c'
_symmetry_Int_Tables_number      15
_space_group_name_Hall           '-C 2yn'
loop_
_symmetry_equiv_pos_site_id
_symmetry_equiv_pos_as_xyz
1 x,y,z
2 -x,y,1/2-z
3 1/2+x,1/2+y,z
4 1/2-x,1/2+y,1/2-z
5 -x,-y,-z
6 x,-y,1/2+z
7 1/2-x,1/2-y,-z
8 1/2+x,1/2-y,1/2+z
_cell_length_a                   21.621(5)
_cell_length_b                   16.786(5)
_cell_length_c                   16.383(5)
_cell_angle_alpha                90
_cell_angle_beta                 119.553(5)
_cell_angle_gamma                90
_cell_volume                     5172.32
loop_
_atom_site_label
_atom_site_type_symbol
_atom_site_fract_x
_atom_site_fract_y
_atom_site_fract_z
C1 C 0.25438(16) 0.31811(18) 0.3593(2)
C2 C 0.43937(18) 0.2307(2) 0.4746(2)
H1 H 0.4153 0.2770 0.4734
C3 C 0.5394(2) 0.1698(2) 0.4706(3)
H2 H 0.5796 0.1874 0.4655
H3 H 0.5105 0.1351 0.4191
H4 H 0.5557 0.1415 0.5286
C4 C 0.5201(3) 0.3155(3) 0.4509(4)
H5 H 0.5634 0.3092 0.4489
H6 H 0.5277 0.3519 0.5002
H7 H 0.4838 0.3362 0.3919
C5 C 0.41027(17) 0.0241(2) 0.6868(2)
H8 H 0.4038 -0.0302 0.6738
C6 C 0.4348(2) 0.1316(2) 0.7977(2)
H9 H 0.4451 0.1369 0.8615
H10 H 0.3921 0.1604 0.7572
H11 H 0.4736 0.1527 0.7916
C7 C 0.4369(2) -0.0097(2) 0.8445(3)
H12 H 0.4469 0.0183 0.9009
H13 H 0.4765 -0.0432 0.8566
H14 H 0.3951 -0.0418 0.8244
C8 C 0.22491(16) 0.49419(18) 0.0921(2)
C9 C 0.26514(16) 0.33356(18) 0.2765(2)
C10 C 0.24085(16) 0.40410(18) 0.2249(2)
H15 H 0.2190 0.4425 0.2430
C11 C 0.24893(16) 0.41768(18) 0.1469(2)
C12 C 0.28150(17) 0.36030(18) 0.1198(2)
H16 H 0.2862 0.3679 0.0669
C13 C 0.30666(17) 0.29199(18) 0.1727(2)
C14 C 0.29923(16) 0.27697(18) 0.2506(2)
H17 H 0.3166 0.2301 0.2847
C16 C 0.37057(16) 0.32118(18) 0.6226(2)
C17 C 0.5000 0.4867(2) 0.7500
C18 C 0.43741(16) 0.44774(18) 0.6908(2)
H21 H 0.3960 0.4760 0.6528
C19 C 0.43806(16) 0.36517(17) 0.6896(2)
C22 C 0.5000 0.3244(3) 0.7500
H26 H 0.5000 0.2690 0.7500
N1 N 0.42502(15) 0.04759(17) 0.7714(2)
N2 N 0.49763(15) 0.23834(17) 0.4687(2)
N4 N 0.34372(16) 0.23308(17) 0.1455(2)
N5 N 0.5000 0.5747(2) 0.7500
O1 O 0.41426(12) 0.16620(14) 0.48163(16)
O2 O 0.40438(12) 0.06943(13) 0.62310(15)
O3 O 0.20325(12) 0.55059(13) 0.12254(15)
O4 O 0.31427(11) 0.36144(12) 0.58599(15)
O5 O 0.27781(12) 0.25357(13) 0.40228(15)
O6 O 0.22239(12) 0.37031(13) 0.37908(15)
O8 O 0.37610(11) 0.24878(12) 0.60892(15)
O9 O 0.33832(15) 0.23935(16) 0.06816(18)
O10 O 0.22744(12) 0.49942(13) 0.01724(14)
O11 O 0.37763(18) 0.18061(17) 0.2015(2)
O12 O 0.55721(13) 0.60894(14) 0.79075(19)
Eu1 Eu 0.310887(7) 0.143255(8) 0.501843(9)
C1F C 0.24562(16) 0.18189(18) 0.6407(2)
C2F C 0.06063(18) 0.2693(2) 0.5254(2)
H1F H 0.0847 0.2230 0.5266
C3F C -0.0394(2) 0.3302(2) 0.5294(3)
H2F H -0.0796 0.3126 0.5345
H3F H -0.0105 0.3649 0.5809
H4F H -0.0557 0.3585 0.4714
C4F C -0.0201(3) 0.1845(3) 0.5491(4)
H5F H -0.0634 0.1908 0.5511
H6F H -0.0277 0.1481 0.4998
H7F H 0.0162 0.1638 0.6081
C5F C 0.08973(17) 0.4759(2) 0.3132(2)
H8F H 0.0962 0.5302 0.3262
C6F C 0.0652(2) 0.3684(2) 0.2023(2)
H9F H 0.0549 0.3631 0.1385
H10F H 0.1079 0.3396 0.2428
H11F H 0.0264 0.3473 0.2084
C7F C 0.0631(2) 0.5097(2) 0.1555(3)
H12F H 0.0531 0.4817 0.0991
H13F H 0.0235 0.5432 0.1434
H14F H 0.1049 0.5418 0.1756
C8F C 0.27509(16) 0.00581(18) 0.9079(2)
C9F C 0.23486(16) 0.16644(18) 0.7235(2)
C10F C 0.25915(16) 0.09590(18) 0.7751(2)
H15F H 0.2810 0.0575 0.7570
C11F C 0.25107(16) 0.08232(18) 0.8531(2)
C12F C 0.21850(17) 0.13970(18) 0.8802(2)
H16F H 0.2138 0.1321 0.9331
C13F C 0.19334(17) 0.20801(18) 0.8273(2)
C14F C 0.20077(16) 0.22303(18) 0.7494(2)
H17F H 0.1834 0.2699 0.7153
C16A C 0.62943(16) 0.32118(18) 0.8774(2)
C18A C 0.56259(16) 0.44774(18) 0.8092(2)
H21A H 0.6040 0.4760 0.8472
C19A C 0.56194(16) 0.36517(17) 0.8104(2)
N1F N 0.07498(15) 0.45241(17) 0.2286(2)
N2F N 0.00237(15) 0.26166(17) 0.5313(2)
N4F N 0.15628(16) 0.26692(17) 0.8545(2)
O1F O 0.08574(12) 0.33380(14) 0.51837(16)
O2F O 0.09562(12) 0.43057(13) 0.37690(15)
O3F O 0.29675(12) -0.05059(13) 0.87746(15)
O3C O 0.29675(12) 0.05059(13) 0.37746(15)
O3E O 0.20325(12) 0.44941(13) 0.62254(15)
O4A O 0.68573(11) 0.36144(12) 0.91401(15)
O4F O 0.18573(11) 0.13856(12) 0.41401(15)
O5F O 0.22219(12) 0.24643(13) 0.59772(15)
O6F O 0.27761(12) 0.12969(13) 0.62092(15)
O8A O 0.62390(11) 0.24878(12) 0.89108(15)
O8F O 0.12390(11) 0.25122(12) 0.39108(15)
O9F O 0.16168(15) 0.26065(16) 0.93184(18)
O10F O 0.27256(12) 0.00058(13) 0.98276(14)
O10C O 0.27256(12) -0.00058(13) 0.48276(14)
O10E O 0.22744(12) 0.50058(13) 0.51724(14)
O11F O 0.12237(18) 0.31939(17) 0.7985(2)
O12A O 0.44279(13) 0.60894(14) 0.70925(19)
Eu1F Eu 0.189113(7) 0.356745(8) 0.498157(9)
Eu1C Eu 0.189113(7) 0.643255(8) -0.001843(9)
Eu1G Eu 0.810887(7) 0.356745(8) 1.001843(9)
Eu1A Eu 0.689113(7) 0.143255(8) 0.998157(9)
Eu1E Eu 0.310887(7) -0.143255(8) 1.001843(9)
C15 C 0.2171(2) 0.0896(2) 0.1304(3)
H18 H 0.2201 0.1293 0.1744
H19 H 0.2110 0.1151 0.0745
H20 H 0.2601 0.0587 0.1578
C20 C 0.14207(19) -0.0221(2) 0.0475(2)
H22 H 0.1692 -0.0273 0.0180
C21 C 0.1179(3) 0.0481(3) 0.1572(3)
H23 H 0.1355 0.0939 0.1972
H24 H 0.1238 0.0016 0.1944
H25 H 0.0684 0.0553 0.1128
N3 N 0.15743(17) 0.03802(19) 0.1073(2)
O7 O 0.09503(16) -0.07119(18) 0.0283(2)
loop_
_geom_bond_atom_site_label_1
_geom_bond_atom_site_label_2
_geom_bond_site_symmetry_1
_geom_bond_site_symmetry_2
C1 C9 1_555 1_555
C2 H1 1_555 1_555
C3 H2 1_555 1_555
H3 C3 1_555 1_555
H4 C3 1_555 1_555
C4 H5 1_555 1_555
H6 C4 1_555 1_555
H7 C4 1_555 1_555
C5 H8 1_555 1_555
C6 H9 1_555 1_555
H10 C6 1_555 1_555
H11 C6 1_555 1_555
C7 H12 1_555 1_555
H13 C7 1_555 1_555
H14 C7 1_555 1_555
C8 C11 1_555 1_555
C9 C10 1_555 1_555
C10 H15 1_555 1_555
C11 C10 1_555 1_555
C12 C11 1_555 1_555
H16 C12 1_555 1_555
C13 C12 1_555 1_555
C14 C9 1_555 1_555
H17 C14 1_555 1_555
C15 H18 1_555 1_555
H19 C15 1_555 1_555
H20 C15 1_555 1_555
C16 C19 1_555 1_555
C17 C18 1_555 1_555
C18 H21 1_555 1_555
C19 C18 1_555 1_555
C20 H22 1_555 1_555
C21 H23 1_555 1_555
H24 C21 1_555 1_555
H25 C21 1_555 1_555
C22 C19 1_555 1_555
H26 C22 1_555 1_555
N1 C5 1_555 1_555
N2 C2 1_555 1_555
N3 C15 1_555 1_555
N4 C13 1_555 1_555
N5 C17 1_555 1_555
O1 C2 1_555 1_555
O2 C5 1_555 1_555
O3 C8 1_555 1_555
O4 C16 1_555 1_555
O5 C1 1_555 1_555
O6 C1 1_555 1_555
O7 C20 1_555 1_555
O8 C16 1_555 1_555
O9 N4 1_555 1_555
O10 C8 1_555 1_555
O11 N4 1_555 1_555
O12 N5 1_555 1_555
Eu1 O1 1_555 1_555
C1F C9F 1_555 1_555
C2F H1F 1_555 1_555
C3F H2F 1_555 1_555
H3F C3F 1_555 1_555
H4F C3F 1_555 1_555
C4F H5F 1_555 1_555
H6F C4F 1_555 1_555
H7F C4F 1_555 1_555
C5F H8F 1_555 1_555
C6F H9F 1_555 1_555
H10F C6F 1_555 1_555
H11F C6F 1_555 1_555
C7F H12F 1_555 1_555
H13F C7F 1_555 1_555
H14F C7F 1_555 1_555
C8F C11F 1_555 1_555
C9F C10F 1_555 1_555
C10F H15F 1_555 1_555
C11F C10F 1_555 1_555
C12F C11F 1_555 1_555
H16F C12F 1_555 1_555
C13F C12F 1_555 1_555
C14F C9F 1_555 1_555
H17F C14F 1_555 1_555
C16A C19A 1_555 1_555
C18A C17 1_555 1_555
H21A C18A 1_555 1_555
C19A C22 1_555 1_555
N1F C5F 1_555 1_555
N2F C2F 1_555 1_555
N4F C13F 1_555 1_555
O1F C2F 1_555 1_555
O2F C5F 1_555 1_555
O3F C8F 1_555 1_555
O3C Eu1 1_555 1_555
O3E Eu1F 1_555 1_555
O4A C16A 1_555 1_555
O4F Eu1 1_555 1_555
O5F C1F 1_555 1_555
O6F Eu1 1_555 1_555
O8A C16A 1_555 1_555
O8F Eu1F 1_555 1_555
O9F N4F 1_555 1_555
O10F C8F 1_555 1_555
O10C Eu1 1_555 1_555
O10E Eu1F 1_555 1_555
O11F N4F 1_555 1_555
O12A N5 1_555 1_555
Eu1F O4 1_555 1_555
Eu1C O3 1_555 1_555
Eu1G O4A 1_555 1_555
Eu1A O8A 1_555 1_555
Eu1E O3F 1_555 1_555
C3 N2 1_555 1_555
C4 N2 1_555 1_555
C6 N1 1_555 1_555
C7 N1 1_555 1_555
C13 C14 1_555 1_555
C20 N3 1_555 1_555
C21 N3 1_555 1_555
O2 Eu1 1_555 1_555
O5 Eu1 1_555 1_555
O6 Eu1F 1_555 1_555
O8 Eu1 1_555 1_555
O10 Eu1C 1_555 1_555
C1F O6F 1_555 1_555
C3F N2F 1_555 1_555
C4F N2F 1_555 1_555
C6F N1F 1_555 1_555
C7F N1F 1_555 1_555
C13F C14F 1_555 1_555
C18A C19A 1_555 1_555
O1F Eu1F 1_555 1_555
O2F Eu1F 1_555 1_555
O5F Eu1F 1_555 1_555
O10F Eu1E 1_555 1_555

#END
