
#######################################################################
#
#                 Cambridge Crystallographic Data Centre
#                                CCDC 
#
#######################################################################
#
# If this CIF has been generated from an entry in the Cambridge 
# Structural Database, then it will include bibliographic, chemical, 
# crystal, experimental, refinement or atomic coordinate data resulting 
# from the CCDC's data processing and validation procedures.
#
#######################################################################

data_KABXES
_symmetry_cell_setting           monoclinic
_symmetry_space_group_name_H-M   'C 2/c'
_symmetry_Int_Tables_number      15
_space_group_name_Hall           '-C 2yn'
loop_
_symmetry_equiv_pos_site_id
_symmetry_equiv_pos_as_xyz
1 x,y,z
2 -x,y,1/2-z
3 1/2+x,1/2+y,z
4 1/2-x,1/2+y,1/2-z
5 -x,-y,-z
6 x,-y,1/2+z
7 1/2-x,1/2-y,-z
8 1/2+x,1/2-y,1/2+z
_cell_length_a                   21.6771(6)
_cell_length_b                   16.8297(5)
_cell_length_c                   16.4199(5)
_cell_angle_alpha                90
_cell_angle_beta                 119.54
_cell_angle_gamma                90
_cell_volume                     5211.63
loop_
_atom_site_label
_atom_site_type_symbol
_atom_site_fract_x
_atom_site_fract_y
_atom_site_fract_z
C1 C 0.25461(10) 0.68168(12) 0.35894(14)
C2 C 0.26505(10) 0.66639(12) 0.27614(14)
C3 C 0.24908(10) 0.58253(12) 0.14715(14)
C4 C 0.22482(10) 0.50612(12) 0.09214(14)
C5 C 0.28168(11) 0.63979(12) 0.12004(15)
C6 C 0.43811(10) 0.36485(11) 0.18991(14)
C7 C 0.37101(10) 0.32123(12) 0.12307(14)
C8 C 0.43769(10) 0.44740(12) 0.19103(14)
C9 C 0.24119(10) 0.59619(12) 0.22498(14)
C10 C 0.29923(11) 0.72271(12) 0.25064(15)
C11 C 0.30649(11) 0.70770(12) 0.17291(15)
N1 N 0.34334(10) 0.76685(11) 0.14563(15)
C12 C 0.5000 0.32408(17) 0.2500
C13 C 0.5000 0.48656(16) 0.2500
N2 N 0.5000 0.57394(14) 0.2500
C14 C 0.08972(11) 0.47620(14) -0.18758(16)
C15 C 0.06539(14) 0.36892(15) -0.29766(19)
C16 C -0.0194(2) 0.1844(2) 0.0495(3)
C17 C -0.03862(16) 0.32962(18) 0.0304(2)
C18 C 0.06114(11) 0.26890(15) 0.02582(16)
C22 C 0.06329(16) 0.50933(19) -0.3448(2)
H1 H 0.2208(11) 0.5577(13) 0.2460(15)
H2 H 0.3146(11) 0.7682(14) 0.2832(15)
H3 H 0.2880(13) 0.6319(14) 0.0702(18)
H4 H 0.4016(12) 0.4739(13) 0.1561(16)
H5 H 0.5000 0.2702(19) 0.2500
H6 H 0.0922(13) 0.5340(16) -0.1789(18)
H7 H 0.0707(17) 0.562(2) -0.319(2)
H8 H 0.0948(16) 0.4978(18) -0.371(2)
H9 H 0.0130(16) 0.5037(17) -0.398(2)
H10 H 0.0146(15) 0.3614(14) -0.349(2)
H11 H 0.0738(14) 0.3341(16) -0.244(2)
H12 H 0.0971(15) 0.3527(15) -0.323(2)
H13 H 0.012(2) 0.143(2) 0.050(3)
H14 H -0.069(2) 0.175(2) 0.001(3)
H15 H -0.017(2) 0.187(2) 0.112(3)
H16 H -0.0346(17) 0.3371(19) 0.093(3)
H17 H -0.0900(18) 0.319(2) -0.015(2)
H18 H -0.0223(15) 0.3758(17) 0.016(2)
H25 H 0.0839(13) 0.2181(16) 0.0264(17)
N4 N 0.00265(10) 0.26123(12) 0.03188(15)
N5 N 0.07504(10) 0.45265(12) -0.27147(13)
O1 O 0.31489(7) 0.36123(8) 0.08672(10)
O2 O 0.09574(7) 0.43113(9) -0.12370(10)
O3 O 0.22264(7) 0.62934(8) 0.37879(10)
O4 O 0.22779(8) 0.50069(8) 0.01779(10)
O5 O 0.37640(7) 0.24893(8) 0.10943(10)
O6 O 0.27783(8) 0.74589(9) 0.40228(10)
O7 O 0.20329(8) 0.45007(9) 0.12286(10)
O8 O 0.08561(8) 0.33334(9) 0.01873(11)
O9 O 0.37703(12) 0.81910(11) 0.20143(16)
O10 O 0.33826(10) 0.76025(11) 0.06874(13)
O11 O 0.44309(8) 0.60829(9) 0.20880(13)
Sm1 Sm 0.189270(5) 0.356706(5) -0.001753(6)
C1A C 0.74539(10) 0.68168(12) 0.14106(14)
C2A C 0.73495(10) 0.66639(12) 0.22386(14)
C3A C 0.75092(10) 0.58253(12) 0.35285(14)
C4A C 0.77518(10) 0.50612(12) 0.40786(14)
C5A C 0.71832(11) 0.63979(12) 0.37996(15)
C6A C 0.56189(10) 0.36485(11) 0.31009(14)
C7A C 0.62899(10) 0.32123(12) 0.37693(14)
C8A C 0.56231(10) 0.44740(12) 0.30897(14)
C9A C 0.75881(10) 0.59619(12) 0.27502(14)
C10A C 0.70077(11) 0.72271(12) 0.24936(15)
C11A C 0.69351(11) 0.70770(12) 0.32709(15)
N1A N 0.65666(10) 0.76685(11) 0.35437(15)
C14A C 0.91028(11) 0.47620(14) 0.68758(16)
C15A C 0.93461(14) 0.36892(15) 0.79766(19)
C16A C 1.0194(2) 0.1844(2) 0.4505(3)
C17A C 1.03862(16) 0.32962(18) 0.4696(2)
C18A C 0.93886(11) 0.26890(15) 0.47418(16)
C22A C 0.93671(16) 0.50933(19) 0.8448(2)
H1A H 0.7792(11) 0.5577(13) 0.2540(15)
H2A H 0.6854(11) 0.7682(14) 0.2168(15)
H3A H 0.7120(13) 0.6319(14) 0.4298(18)
H4A H 0.5984(12) 0.4739(13) 0.3439(16)
H6A H 0.9078(13) 0.5340(16) 0.6789(18)
H7A H 0.9293(17) 0.562(2) 0.819(2)
H8A H 0.9052(16) 0.4978(18) 0.871(2)
H9A H 0.9870(16) 0.5037(17) 0.898(2)
H10A H 0.9854(15) 0.3614(14) 0.849(2)
H11A H 0.9262(14) 0.3341(16) 0.744(2)
H12A H 0.9029(15) 0.3527(15) 0.823(2)
H13A H 0.988(2) 0.143(2) 0.450(3)
H14A H 1.069(2) 0.175(2) 0.499(3)
H15A H 1.017(2) 0.187(2) 0.388(3)
H16A H 1.0346(17) 0.3371(19) 0.407(3)
H17A H 1.0900(18) 0.319(2) 0.515(2)
H18A H 1.0223(15) 0.3758(17) 0.484(2)
H25A H 0.9161(13) 0.2181(16) 0.4736(17)
N4A N 0.99735(10) 0.26123(12) 0.46812(15)
N5A N 0.92496(10) 0.45265(12) 0.77147(13)
O1A O 0.68511(7) 0.36123(8) 0.41328(10)
O2A O 0.90426(7) 0.43113(9) 0.62370(10)
O3A O 0.77736(7) 0.62934(8) 0.12121(10)
O3D O 0.77736(7) 0.37066(8) 0.62121(10)
O3E O 0.22264(7) 0.37066(8) -0.12121(10)
O4A O 0.77221(8) 0.50069(8) 0.48221(10)
O5A O 0.62360(7) 0.24893(8) 0.39057(10)
O5F O 0.12360(7) 0.25107(8) -0.10943(10)
O5G O 0.87640(7) 0.25107(8) 0.60943(10)
O6A O 0.72217(8) 0.74589(9) 0.09772(10)
O6B O 0.77783(8) 0.24589(9) 0.40228(10)
O6C O 0.22217(8) 0.24589(9) 0.09772(10)
O7A O 0.79671(8) 0.45007(9) 0.37714(10)
O8A O 0.91439(8) 0.33334(9) 0.48127(11)
O9A O 0.62297(12) 0.81910(11) 0.29857(16)
O10A O 0.66174(10) 0.76025(11) 0.43126(13)
O11A O 0.55691(8) 0.60829(9) 0.29120(13)
Sm1A Sm 0.810730(5) 0.356706(5) 0.501753(6)
Sm1B Sm 0.689270(5) 0.856706(5) -0.001753(6)
Sm1C Sm 0.310730(5) 0.856706(5) 0.501753(6)
Sm1D Sm 0.810730(5) 0.643294(5) 0.001753(6)
Sm1E Sm 0.189270(5) 0.643294(5) 0.498247(6)
Sm1F Sm 0.310730(5) 0.143294(5) 0.001753(6)
Sm1G Sm 0.689270(5) 0.143294(5) 0.498247(6)
C19 C 0.14179(13) -0.02207(15) 0.54745(18)
C20 C 0.21713(17) 0.08934(19) 0.6307(2)
C21 C 0.1185(2) 0.0480(3) 0.6582(3)
H19 H 0.2481(16) 0.0887(18) 0.698(2)
H20 H 0.2402(14) 0.0765(16) 0.598(2)
H21 H 0.2018(17) 0.1409(19) 0.611(2)
H22 H 0.1711(13) -0.0206(15) 0.5173(17)
H23 H 0.132(3) 0.013(4) 0.701(4)
H24 H 0.070(2) 0.038(2) 0.616(3)
H26 H 0.106(3) 0.108(3) 0.654(3)
N3 N 0.15724(11) 0.03804(13) 0.60734(15)
O12 O 0.09473(11) -0.07078(13) 0.52765(15)
loop_
_geom_bond_atom_site_label_1
_geom_bond_atom_site_label_2
_geom_bond_site_symmetry_1
_geom_bond_site_symmetry_2
C1 C2 1_555 1_555
C2 C9 1_555 1_555
C3 C4 1_555 1_555
C4 O4 1_555 1_555
C5 C3 1_555 1_555
C6 C7 1_555 1_555
C7 O1 1_555 1_555
C8 C6 1_555 1_555
C9 C3 1_555 1_555
C10 C2 1_555 1_555
C11 C5 1_555 1_555
N1 C11 1_555 1_555
C12 C6 1_555 1_555
C13 C8 1_555 1_555
N2 C13 1_555 1_555
C14 H6 1_555 1_555
C15 H10 1_555 1_555
C16 H13 1_555 1_555
C17 H16 1_555 1_555
C18 H25 1_555 1_555
C19 H22 1_555 1_555
C20 H19 1_555 1_555
C21 H23 1_555 1_555
C22 H7 1_555 1_555
H1 C9 1_555 1_555
H2 C10 1_555 1_555
H3 C5 1_555 1_555
H4 C8 1_555 1_555
H5 C12 1_555 1_555
H8 C22 1_555 1_555
H9 C22 1_555 1_555
H11 C15 1_555 1_555
H12 C15 1_555 1_555
H14 C16 1_555 1_555
H15 C16 1_555 1_555
H17 C17 1_555 1_555
H18 C17 1_555 1_555
H20 C20 1_555 1_555
H21 C20 1_555 1_555
H24 C21 1_555 1_555
H26 C21 1_555 1_555
N3 C19 1_555 1_555
N4 C16 1_555 1_555
N5 C14 1_555 1_555
O1 Sm1 1_555 1_555
O2 C14 1_555 1_555
O3 C1 1_555 1_555
O4 Sm1 1_555 1_555
O5 C7 1_555 1_555
O6 C1 1_555 1_555
O7 C4 1_555 1_555
O8 C18 1_555 1_555
O9 N1 1_555 1_555
O10 N1 1_555 1_555
O11 N2 1_555 1_555
O12 C19 1_555 1_555
Sm1 O2 1_555 1_555
C1A C2A 1_555 1_555
C2A C9A 1_555 1_555
C3A C4A 1_555 1_555
C4A O4A 1_555 1_555
C5A C3A 1_555 1_555
C6A C12 1_555 1_555
C7A C6A 1_555 1_555
C8A C13 1_555 1_555
C9A C3A 1_555 1_555
C10A C2A 1_555 1_555
C11A C5A 1_555 1_555
N1A C11A 1_555 1_555
C14A H6A 1_555 1_555
C15A H10A 1_555 1_555
C16A H13A 1_555 1_555
C17A H16A 1_555 1_555
C18A H25A 1_555 1_555
C22A H7A 1_555 1_555
H1A C9A 1_555 1_555
H2A C10A 1_555 1_555
H3A C5A 1_555 1_555
H4A C8A 1_555 1_555
H8A C22A 1_555 1_555
H9A C22A 1_555 1_555
H11A C15A 1_555 1_555
H12A C15A 1_555 1_555
H14A C16A 1_555 1_555
H15A C16A 1_555 1_555
H17A C17A 1_555 1_555
H18A C17A 1_555 1_555
N4A C16A 1_555 1_555
N5A C14A 1_555 1_555
O1A C7A 1_555 1_555
O2A C14A 1_555 1_555
O3A C1A 1_555 1_555
O3D Sm1A 1_555 1_555
O3E Sm1 1_555 1_555
O4A Sm1A 1_555 1_555
O5A C7A 1_555 1_555
O5F Sm1 1_555 1_555
O5G Sm1A 1_555 1_555
O6A C1A 1_555 1_555
O6B Sm1A 1_555 1_555
O6C Sm1 1_555 1_555
O7A C4A 1_555 1_555
O8A C18A 1_555 1_555
O9A N1A 1_555 1_555
O10A N1A 1_555 1_555
O11A N2 1_555 1_555
Sm1A O1A 1_555 1_555
Sm1B O6A 1_555 1_555
Sm1C O6 1_555 1_555
Sm1D O3A 1_555 1_555
Sm1E O3 1_555 1_555
Sm1F O5 1_555 1_555
Sm1G O5A 1_555 1_555
C10 C11 1_555 1_555
C15 N5 1_555 1_555
C17 N4 1_555 1_555
C18 N4 1_555 1_555
C20 N3 1_555 1_555
C21 N3 1_555 1_555
C22 N5 1_555 1_555
O7 Sm1 1_555 1_555
O8 Sm1 1_555 1_555
C6A C8A 1_555 1_555
C10A C11A 1_555 1_555
C15A N5A 1_555 1_555
C17A N4A 1_555 1_555
C18A N4A 1_555 1_555
C22A N5A 1_555 1_555
O2A Sm1A 1_555 1_555
O7A Sm1A 1_555 1_555
O8A Sm1A 1_555 1_555

#END
