
#######################################################################
#
#                 Cambridge Crystallographic Data Centre
#                                CCDC 
#
#######################################################################
#
# If this CIF has been generated from an entry in the Cambridge 
# Structural Database, then it will include bibliographic, chemical, 
# crystal, experimental, refinement or atomic coordinate data resulting 
# from the CCDC's data processing and validation procedures.
#
#######################################################################

data_KACBOF02
_symmetry_cell_setting           orthorhombic
_symmetry_space_group_name_H-M   'P b c a'
_symmetry_Int_Tables_number      61
_space_group_name_Hall           '-P 2ac 2ab'
loop_
_symmetry_equiv_pos_site_id
_symmetry_equiv_pos_as_xyz
1 x,y,z
2 1/2+x,y,1/2-z
3 x,1/2-y,1/2+z
4 1/2-x,1/2+y,z
5 -x,-y,-z
6 1/2-x,-y,1/2+z
7 -x,1/2+y,1/2-z
8 1/2+x,1/2-y,-z
_cell_length_a                   9.2775(8)
_cell_length_b                   7.7207(6)
_cell_length_c                   23.449(2)
_cell_angle_alpha                90
_cell_angle_beta                 90
_cell_angle_gamma                90
_cell_volume                     1679.62
loop_
_atom_site_label
_atom_site_type_symbol
_atom_site_fract_x
_atom_site_fract_y
_atom_site_fract_z
Cd1 Cd 0.34222(2) -0.06945(3) -0.456260(9)
O1 O 0.4725(3) 0.1009(3) -0.39268(10)
O2 O -0.2552(3) 0.1581(3) -0.45895(9)
O3 O -0.0767(2) 0.3440(3) -0.47696(9)
O4 O 0.1589(2) 0.1356(3) -0.43878(11)
O5 O 0.1643(3) -0.0841(3) -0.38006(13)
C1 C -0.1151(3) 0.2367(4) -0.38139(12)
C2 C -0.2151(4) 0.3096(4) -0.34422(14)
H1 H -0.2937 0.3695 -0.3589
C3 C -0.1996(4) 0.2946(5) -0.28627(14)
H2 H -0.2661 0.3469 -0.2621
C4 C -0.0857(4) 0.2021(5) -0.26369(14)
H3 H -0.0751 0.1919 -0.2244
C5 C 0.0118(3) 0.1252(4) -0.29979(13)
H4 H 0.0866 0.0595 -0.2846
C6 C 0.0006(3) 0.1438(4) -0.35865(12)
C7 C -0.1491(3) 0.2464(4) -0.44456(13)
C8 C 0.1128(3) 0.0591(4) -0.39451(13)
Cd1G Cd -0.15778(2) 0.56945(3) -0.543740(9)
Cd1C Cd 0.15778(2) 0.43055(3) -0.456260(9)
Cd1D Cd -0.34222(2) 0.06945(3) -0.543740(9)
O2D O 0.2552(3) -0.1581(3) -0.54105(9)
O3C O 0.5767(2) -0.1560(3) -0.47696(9)
O3G O 0.4233(2) 0.1560(3) -0.52304(9)
O4C O 0.3411(2) -0.3644(3) -0.43878(11)
loop_
_geom_bond_atom_site_label_1
_geom_bond_atom_site_label_2
_geom_bond_site_symmetry_1
_geom_bond_site_symmetry_2
Cd1 O1 1_555 1_555
O2 C7 1_555 1_555
O3 C7 1_555 1_555
O4 Cd1 1_555 1_555
O5 Cd1 1_555 1_555
C1 C2 1_555 1_555
C2 H1 1_555 1_555
C3 C2 1_555 1_555
H2 C3 1_555 1_555
C4 C3 1_555 1_555
H3 C4 1_555 1_555
C5 C4 1_555 1_555
H4 C5 1_555 1_555
C6 C1 1_555 1_555
C7 C1 1_555 1_555
C8 O4 1_555 1_555
Cd1G O3 1_555 1_555
Cd1C O3 1_555 1_555
Cd1D O2 1_555 1_555
O2D Cd1 1_555 1_555
O3C Cd1 1_555 1_555
O3G Cd1 1_555 1_555
O4C Cd1 1_555 1_555
O4 Cd1C 1_555 1_555
O5 C8 1_555 1_555
C5 C6 1_555 1_555
C6 C8 1_555 1_555

#END
