
#######################################################################
#
#                 Cambridge Crystallographic Data Centre
#                                CCDC 
#
#######################################################################
#
# If this CIF has been generated from an entry in the Cambridge 
# Structural Database, then it will include bibliographic, chemical, 
# crystal, experimental, refinement or atomic coordinate data resulting 
# from the CCDC's data processing and validation procedures.
#
#######################################################################

data_KACBOF
_symmetry_cell_setting           orthorhombic
_symmetry_space_group_name_H-M   'P b c a'
_symmetry_Int_Tables_number      61
_space_group_name_Hall           '-P 2ac 2ab'
loop_
_symmetry_equiv_pos_site_id
_symmetry_equiv_pos_as_xyz
1 x,y,z
2 1/2-x,1/2+y,z
3 x,1/2-y,1/2+z
4 1/2-x,-y,1/2+z
5 -x,-y,-z
6 1/2+x,1/2-y,-z
7 -x,1/2+y,1/2-z
8 1/2+x,y,1/2-z
_cell_length_a                   7.731(1)
_cell_length_b                   23.477(7)
_cell_length_c                   9.291(2)
_cell_angle_alpha                90
_cell_angle_beta                 90
_cell_angle_gamma                90
_cell_volume                     1686.32
loop_
_atom_site_label
_atom_site_type_symbol
_atom_site_fract_x
_atom_site_fract_y
_atom_site_fract_z
Cd1 Cd 1.93027(5) 0.04378(2) 0.15774(4)
O1 O 2.1013(5) 0.1074(2) 0.0265(4)
O2 O 1.6355(5) 0.0610(2) 0.1581(4)
O3 O 1.9148(5) 0.1201(2) 0.3349(4)
O4 O 2.3427(5) 0.0230(2) 0.5772(4)
O5 O 2.1571(6) 0.0411(1) 0.7553(4)
C1 C 2.0585(7) 0.1058(2) 0.3883(6)
C2 C 2.2465(7) 0.0559(2) 0.6483(5)
C3 C 2.2366(7) 0.1182(2) 0.6151(5)
C4 C 2.3082(7) 0.1555(2) 0.7133(6)
C5 C 2.2935(8) 0.2136(2) 0.6981(7)
C6 C 2.2020(8) 0.2364(2) 0.5862(7)
C7 C 2.1269(8) 0.2002(2) 0.4881(6)
C8 C 2.1428(6) 0.1413(2) 0.4998(5)
H1 H 2.3779 0.1387 0.8046
H2 H 2.3544 0.2414 0.7755
H3 H 2.1893 0.2820 0.5749
H4 H 2.0537 0.2179 0.3998
O2G O 2.1355(5) 0.0610(2) 0.3419(4)
Cd1G Cd 2.43027(5) 0.04378(2) 0.34226(4)
Cd1C Cd 2.56973(5) -0.04378(2) 0.65774(4)
Cd1D Cd 2.06973(5) -0.04378(2) 0.84226(4)
O4C O 2.1573(5) -0.0230(2) 0.0772(4)
O4G O 1.8427(5) 0.0230(2) -0.0772(4)
O5D O 1.8429(6) -0.0411(1) 0.2447(4)
loop_
_geom_bond_atom_site_label_1
_geom_bond_atom_site_label_2
_geom_bond_site_symmetry_1
_geom_bond_site_symmetry_2
Cd1 O1 1_555 1_555
O2 Cd1 1_555 1_555
O3 Cd1 1_555 1_555
O4 C2 1_555 1_555
O5 C2 1_555 1_555
C1 O3 1_555 1_555
C2 C3 1_555 1_555
C3 C4 1_555 1_555
C4 C5 1_555 1_555
C5 C6 1_555 1_555
C6 C7 1_555 1_555
C7 C8 1_555 1_555
C8 C1 1_555 1_555
H1 C4 1_555 1_555
H2 C5 1_555 1_555
H3 C6 1_555 1_555
H4 C7 1_555 1_555
O2G Cd1 1_555 1_555
Cd1G O4 1_555 1_555
Cd1C O4 1_555 1_555
Cd1D O5 1_555 1_555
O4C Cd1 1_555 1_555
O4G Cd1 1_555 1_555
O5D Cd1 1_555 1_555
C1 O2G 1_555 1_555
C3 C8 1_555 1_555
O2G Cd1G 1_555 1_555

#END
