
#######################################################################
#
#                 Cambridge Crystallographic Data Centre
#                                CCDC 
#
#######################################################################
#
# If this CIF has been generated from an entry in the Cambridge 
# Structural Database, then it will include bibliographic, chemical, 
# crystal, experimental, refinement or atomic coordinate data resulting 
# from the CCDC's data processing and validation procedures.
#
#######################################################################

data_KACCEW
_symmetry_cell_setting           monoclinic
_symmetry_space_group_name_H-M   'C c'
_symmetry_Int_Tables_number      9
_space_group_name_Hall           'C -2yc'
loop_
_symmetry_equiv_pos_site_id
_symmetry_equiv_pos_as_xyz
1 x,y,z
2 1/2+x,1/2+y,z
3 x,-y,1/2+z
4 1/2+x,1/2-y,1/2+z
_cell_length_a                   17.403(3)
_cell_length_b                   6.392(1)
_cell_length_c                   11.419(2)
_cell_angle_alpha                90
_cell_angle_beta                 110.06(1)
_cell_angle_gamma                90
_cell_volume                     1193.19
loop_
_atom_site_label
_atom_site_type_symbol
_atom_site_fract_x
_atom_site_fract_y
_atom_site_fract_z
Sn1 Sn 0.0000 0.1042(3) 0.0000
C1 C -0.0311(21) 0.2557(53) -0.1751(36)
C2 C 0.0207(39) -0.2282(43) -0.0014(70)
C3 C -0.0117(26) 0.2587(63) 0.1544(40)
S1 S 0.1969(6) -0.1152(14) 0.0869(9)
O1 O 0.1295(16) 0.0184(42) 0.0131(29)
O2 O 0.1684(16) -0.3116(42) 0.1238(27)
C4 C 0.2528(28) 0.0088(85) 0.2205(47)
N1 N 0.2548(19) -0.1421(39) 0.0026(30)
S2 S 0.3085(7) -0.3503(13) 0.0252(11)
O3 O 0.3647(23) -0.3133(48) -0.0396(32)
O4 O 0.3469(20) -0.4117(51) 0.1566(28)
C5 C 0.2438(32) -0.5439(75) -0.0571(42)
O3A O -0.1353(23) 0.1867(48) -0.0396(32)
Sn1A Sn 0.5000 -0.3958(3) 0.0000
loop_
_geom_bond_atom_site_label_1
_geom_bond_atom_site_label_2
_geom_bond_site_symmetry_1
_geom_bond_site_symmetry_2
Sn1 C1 1_555 1_555
C2 Sn1 1_555 1_555
C3 Sn1 1_555 1_555
S1 O1 1_555 1_555
O1 Sn1 1_555 1_555
O2 S1 1_555 1_555
C4 S1 1_555 1_555
N1 S1 1_555 1_555
S2 N1 1_555 1_555
O3 S2 1_555 1_555
O4 S2 1_555 1_555
C5 S2 1_555 1_555
O3A Sn1 1_555 1_555
Sn1A O3 1_555 1_555

#END
