
#######################################################################
#
#                 Cambridge Crystallographic Data Centre
#                                CCDC 
#
#######################################################################
#
# If this CIF has been generated from an entry in the Cambridge 
# Structural Database, then it will include bibliographic, chemical, 
# crystal, experimental, refinement or atomic coordinate data resulting 
# from the CCDC's data processing and validation procedures.
#
#######################################################################

data_KACFUR
_symmetry_cell_setting           triclinic
_symmetry_space_group_name_H-M   'P -1'
_symmetry_Int_Tables_number      2
_space_group_name_Hall           '-P 1'
loop_
_symmetry_equiv_pos_site_id
_symmetry_equiv_pos_as_xyz
1 x,y,z
2 -x,-y,-z
_cell_length_a                   8.7334(8)
_cell_length_b                   10.5673(9)
_cell_length_c                   19.3996(16)
_cell_angle_alpha                102.169(2)
_cell_angle_beta                 97.112(2)
_cell_angle_gamma                102.565(2)
_cell_volume                     1680.99
loop_
_atom_site_label
_atom_site_type_symbol
_atom_site_fract_x
_atom_site_fract_y
_atom_site_fract_z
Hg1 Hg 0.46005(5) 0.22436(4) 0.99651(2)
S1 S 0.2386(3) 0.2050(2) 1.06348(13)
S2 S 0.4438(3) -0.1702(2) 1.11702(12)
O1 O 0.3936(8) 0.2762(7) 1.2639(3)
O2 O 0.5460(8) 0.0413(6) 1.2696(3)
N1 N 0.0865(8) -0.1468(7) 1.1199(4)
N2 N -0.2572(13) -0.4810(11) 1.3589(6)
N3 N -0.3000(13) -0.1848(11) 1.5317(5)
N4 N -0.1291(12) 0.1074(11) 1.4555(5)
C1 C 0.4405(11) 0.2291(10) 1.3255(5)
H1 H 0.4666 0.3015 1.3677
H2 H 0.3539 0.1611 1.3313
C2 C 0.2523(12) 0.3135(10) 1.2590(5)
C3 C 0.1616(12) 0.3238(10) 1.3134(5)
H3 H 0.1990 0.3084 1.3589
C4 C 0.0182(13) 0.3562(11) 1.3013(6)
H4 H -0.0459 0.3596 1.3381
C5 C -0.0351(12) 0.3833(11) 1.2389(6)
H5 H -0.1358 0.4057 1.2320
C6 C 0.0559(12) 0.3790(10) 1.1845(6)
H6 H 0.0183 0.3981 1.1402
C7 C 0.2050(12) 0.3460(9) 1.1957(5)
C8 C 0.3094(11) 0.3489(9) 1.1397(5)
H7 H 0.3136 0.4291 1.1234
H8 H 0.4157 0.3514 1.1609
C9 C 0.2485(10) 0.0655(9) 1.1056(5)
H9 H 0.2768 0.0986 1.1567
H10 H 0.3284 0.0232 1.0891
C10 C 0.0883(10) -0.0343(9) 1.0863(5)
H11 H 0.0619 -0.0679 1.0352
H12 H 0.0085 0.0098 1.1014
C11 C 0.1191(10) -0.2661(9) 1.0774(5)
H13 H 0.0284 -0.3402 1.0710
H14 H 0.1323 -0.2526 1.0308
C12 C 0.2661(10) -0.3021(9) 1.1101(5)
H15 H 0.2549 -0.3152 1.1569
H16 H 0.2763 -0.3842 1.0809
C13 C 0.5824(11) -0.1949(10) 1.1895(5)
H17 H 0.6803 -0.1266 1.1993
H18 H 0.6061 -0.2800 1.1748
C14 C 0.5104(10) -0.1894(10) 1.2562(5)
C15 C 0.4571(11) -0.3050(10) 1.2794(5)
H19 H 0.4627 -0.3898 1.2514
C16 C 0.3970(13) -0.2993(12) 1.3415(6)
H20 H 0.3622 -0.3795 1.3571
C17 C 0.3864(13) -0.1786(11) 1.3816(6)
H21 H 0.3413 -0.1756 1.4244
C18 C 0.4402(12) -0.0610(11) 1.3609(6)
H22 H 0.4373 0.0232 1.3906
C19 C 0.4980(11) -0.0658(10) 1.2973(5)
C20 C 0.5812(12) 0.1739(10) 1.3158(5)
H23 H 0.6340 0.1726 1.3620
H24 H 0.6543 0.2331 1.2966
C21 C 0.0395(10) -0.1458(9) 1.1846(5)
C22 C 0.0042(10) -0.2621(9) 1.2100(5)
H25 H 0.0169 -0.3447 1.1823
C23 C -0.0483(10) -0.2586(11) 1.2743(5)
H26 H -0.0696 -0.3391 1.2908
C24 C -0.0716(11) -0.1428(11) 1.3160(5)
C25 C -0.0344(11) -0.0257(11) 1.2922(5)
H27 H -0.0463 0.0564 1.3208
C26 C 0.0195(10) -0.0264(10) 1.2279(5)
H28 H 0.0436 0.0551 1.2124
C27 C -0.1371(11) -0.1352(11) 1.3827(5)
C28 C -0.2024(13) -0.2323(13) 1.4106(6)
C29 C -0.2282(15) -0.3702(14) 1.3786(6)
C30 C -0.2561(14) -0.1995(14) 1.4791(6)
C31 C -0.1340(13) 0.0022(13) 1.4253(6)
N5 N 0.6831(10) 0.1202(9) 1.0984(5)
O3 O 0.6145(8) 0.2045(8) 1.1237(4)
O4 O 0.6626(12) 0.0887(10) 1.0323(6)
O5 O 0.7572(9) 0.0616(8) 1.1318(5)
N6 N 0.6748(9) 0.5198(8) 1.0586(4)
O6 O 0.5415(9) 0.4908(10) 1.0715(5)
O7 O 0.7409(8) 0.6358(8) 1.0611(5)
O8 O 0.7450(11) 0.4302(9) 1.0452(5)
Hg1A Hg 0.53995(5) -0.22436(4) 1.00349(2)
Hg1A_2 Hg 0.53995(5) 0.77564(4) 1.00349(2)
S2A S 0.5562(3) 0.1702(2) 0.88298(12)
O7A O 0.2591(8) 0.3642(8) 0.9389(5)
O9 O 1.308(4) 0.566(3) 0.4916(14)
H29 H 1.4102 0.6051 0.5263
H30 H 1.3241 0.6474 0.4625
O10? O 1.023(4) 0.576(3) 0.5079(18)
H31? H 1.1109 0.5919 0.4813
H32? H 0.9983 0.6668 0.5240
loop_
_geom_bond_atom_site_label_1
_geom_bond_atom_site_label_2
_geom_bond_site_symmetry_1
_geom_bond_site_symmetry_2
Hg1 S1 1_555 1_555
S1 C8 1_555 1_555
S2 C12 1_555 1_555
O1 C1 1_555 1_555
O2 C19 1_555 1_555
N1 C10 1_555 1_555
N2 C29 1_555 1_555
N3 C30 1_555 1_555
N4 C31 1_555 1_555
C1 H1 1_555 1_555
H2 C1 1_555 1_555
C2 O1 1_555 1_555
C3 C2 1_555 1_555
H3 C3 1_555 1_555
C4 C3 1_555 1_555
H4 C4 1_555 1_555
C5 C4 1_555 1_555
H5 C5 1_555 1_555
C6 C5 1_555 1_555
H6 C6 1_555 1_555
C7 C2 1_555 1_555
C8 C7 1_555 1_555
H7 C8 1_555 1_555
H8 C8 1_555 1_555
C9 S1 1_555 1_555
H9 C9 1_555 1_555
H10 C9 1_555 1_555
C10 C9 1_555 1_555
H11 C10 1_555 1_555
H12 C10 1_555 1_555
C11 N1 1_555 1_555
H13 C11 1_555 1_555
H14 C11 1_555 1_555
C12 C11 1_555 1_555
H15 C12 1_555 1_555
H16 C12 1_555 1_555
C13 S2 1_555 1_555
H17 C13 1_555 1_555
H18 C13 1_555 1_555
C14 C13 1_555 1_555
C15 C14 1_555 1_555
H19 C15 1_555 1_555
C16 C15 1_555 1_555
H20 C16 1_555 1_555
C17 C16 1_555 1_555
H21 C17 1_555 1_555
C18 C17 1_555 1_555
H22 C18 1_555 1_555
C19 C14 1_555 1_555
C20 O2 1_555 1_555
H23 C20 1_555 1_555
H24 C20 1_555 1_555
C21 N1 1_555 1_555
C22 C21 1_555 1_555
H25 C22 1_555 1_555
C23 C22 1_555 1_555
H26 C23 1_555 1_555
C24 C23 1_555 1_555
C25 C24 1_555 1_555
H27 C25 1_555 1_555
C26 C21 1_555 1_555
H28 C26 1_555 1_555
C27 C24 1_555 1_555
C28 C27 1_555 1_555
C29 C28 1_555 1_555
C30 C28 1_555 1_555
C31 C27 1_555 1_555
N5 O3 1_555 1_555
O3 Hg1 1_555 1_555
O4 Hg1 1_555 1_555
O5 N5 1_555 1_555
N6 O6 1_555 1_555
O6 Hg1 1_555 1_555
O7 N6 1_555 1_555
O8 Hg1 1_555 1_555
O9 H29 1_555 1_555
H30 O9 1_555 1_555
Hg1A S2 1_555 1_555
Hg1A_2 O7 1_555 1_555
S2A Hg1 1_555 1_555
O7A Hg1 1_555 1_555
C1 C20 1_555 1_555
C6 C7 1_555 1_555
C18 C19 1_555 1_555
C25 C26 1_555 1_555
N5 O4 1_555 1_555
N6 O8 1_555 1_555

#END
