
#######################################################################
#
#                 Cambridge Crystallographic Data Centre
#                                CCDC 
#
#######################################################################
#
# If this CIF has been generated from an entry in the Cambridge 
# Structural Database, then it will include bibliographic, chemical, 
# crystal, experimental, refinement or atomic coordinate data resulting 
# from the CCDC's data processing and validation procedures.
#
#######################################################################

data_KACJAB
_symmetry_cell_setting           orthorhombic
_symmetry_space_group_name_H-M   'P m c 21'
_symmetry_Int_Tables_number      26
_space_group_name_Hall           'P 2c -2'
loop_
_symmetry_equiv_pos_site_id
_symmetry_equiv_pos_as_xyz
1 x,y,z
2 -x,y,z
3 x,-y,1/2+z
4 -x,-y,1/2+z
_cell_length_a                   11.8882(15)
_cell_length_b                   14.8409(17)
_cell_length_c                   6.5383(9)
_cell_angle_alpha                90
_cell_angle_beta                 90
_cell_angle_gamma                90
_cell_volume                     1153.56
loop_
_atom_site_label
_atom_site_type_symbol
_atom_site_fract_x
_atom_site_fract_y
_atom_site_fract_z
Pd1 Pd 0.00000 -0.00475(30) -0.0123(4)
S1 S -0.12502(6) -0.04225(6) 0.23701(9)
C1 C -0.197666(24) 0.056883(14) 0.20346(6)
C2 C -0.163466(21) 0.134407(13) 0.30534(5)
C3 C -0.225142(19) 0.213503(14) 0.28546(5)
C4 C -0.322883(20) 0.214321(14) 0.16880(5)
C5 C -0.354774(21) 0.137795(13) 0.06088(5)
C6 C -0.292846(20) 0.058782(14) 0.07982(5)
H1 H -0.09865(13) 0.133612(19) 0.38497(14)
H2 H -0.199585(29) 0.26635(4) 0.34617(10)
H3 H -0.36860(4) 0.26517(4) 0.16771(7)
H4 H -0.41607(12) 0.140003(19) -0.02737(14)
H5 H -0.316130(30) 0.00680(4) 0.01260(10)
Pd1B Pd 0.00000 0.00475(30) 0.4877(4)
S1A S 0.12502(6) -0.04225(6) 0.23701(9)
S1B S -0.12502(6) 0.04225(6) -0.26299(9)
S1C S 0.12502(6) 0.04225(6) -0.26299(9)
C1A C 0.197666(24) 0.056883(14) 0.20346(6)
C2A C 0.163466(21) 0.134407(13) 0.30534(5)
C3A C 0.225142(19) 0.213503(14) 0.28546(5)
C4A C 0.322883(20) 0.214321(14) 0.16880(5)
C5A C 0.354774(21) 0.137795(13) 0.06088(5)
C6A C 0.292846(20) 0.058782(14) 0.07982(5)
H1A H 0.09865(13) 0.133612(19) 0.38497(14)
H2A H 0.199585(29) 0.26635(4) 0.34617(10)
H3A H 0.36860(4) 0.26517(4) 0.16771(7)
H4A H 0.41607(12) 0.140003(19) -0.02737(14)
H5A H 0.316130(30) 0.00680(4) 0.01260(10)
Pd2 Pd 0.50000 0.49087(18) 0.17607(16)
S2 S 0.37768(5) 0.54845(5) -0.06158(13)
C7 C 0.303632(23) 0.457705(15) -0.15243(6)
C8 C 0.347070(20) 0.371268(13) -0.13133(6)
C9 C 0.292932(19) 0.298755(13) -0.22308(5)
C10 C 0.192296(19) 0.312055(13) -0.32706(6)
C11 C 0.148393(20) 0.398429(13) -0.34684(6)
C12 C 0.202808(19) 0.470975(13) -0.25578(5)
H6 H 0.41321(18) 0.362112(18) -0.05827(16)
H7 H 0.325447(30) 0.24178(5) -0.21926(8)
H8 H 0.152899(32) 0.262935(29) -0.37877(11)
H9 H 0.08389(18) 0.407919(18) -0.42439(16)
H10 H 0.171909(30) 0.52842(5) -0.26445(8)
Pd2B Pd 0.50000 0.50913(18) -0.32393(16)
S2A S 0.62232(5) 0.54845(5) -0.06158(13)
S2B S 0.37768(5) 0.45155(5) 0.43842(13)
S2C S 0.62232(5) 0.45155(5) 0.43842(13)
C7A C 0.696368(23) 0.457705(15) -0.15243(6)
C8A C 0.652930(20) 0.371268(13) -0.13133(6)
C9A C 0.707068(19) 0.298755(13) -0.22308(5)
C10A C 0.807704(19) 0.312055(13) -0.32706(6)
C11A C 0.851607(20) 0.398429(13) -0.34684(6)
C12A C 0.797192(19) 0.470975(13) -0.25578(5)
H6A H 0.58679(18) 0.362112(18) -0.05827(16)
H7A H 0.674553(30) 0.24178(5) -0.21926(8)
H8A H 0.847101(32) 0.262935(29) -0.37877(11)
H9A H 0.91611(18) 0.407919(18) -0.42439(16)
H10A H 0.828091(30) 0.52842(5) -0.26445(8)
loop_
_geom_bond_atom_site_label_1
_geom_bond_atom_site_label_2
_geom_bond_site_symmetry_1
_geom_bond_site_symmetry_2
Pd1 S1 1_555 1_555
Pd2 S2 1_555 1_555
S1 C1 1_555 1_555
S2 C7 1_555 1_555
C1 C2 1_555 1_555
C2 C3 1_555 1_555
C3 C4 1_555 1_555
C4 C5 1_555 1_555
C5 C6 1_555 1_555
C6 C1 1_555 1_555
C7 C8 1_555 1_555
C8 C9 1_555 1_555
C9 C10 1_555 1_555
C10 C11 1_555 1_555
C11 C12 1_555 1_555
C12 C7 1_555 1_555
H1 C2 1_555 1_555
H2 C3 1_555 1_555
H3 C4 1_555 1_555
H4 C5 1_555 1_555
H5 C6 1_555 1_555
H6 C8 1_555 1_555
H7 C9 1_555 1_555
H8 C10 1_555 1_555
H9 C11 1_555 1_555
H10 C12 1_555 1_555
Pd1B S1 1_555 1_555
Pd2B S2 1_555 1_555
S1A Pd1 1_555 1_555
S1B Pd1 1_555 1_555
S1C Pd1 1_555 1_555
S2A Pd2 1_555 1_555
S2B Pd2 1_555 1_555
S2C Pd2 1_555 1_555
C1A S1A 1_555 1_555
C2A C1A 1_555 1_555
C3A C2A 1_555 1_555
C4A C3A 1_555 1_555
C5A C4A 1_555 1_555
C6A C1A 1_555 1_555
C7A S2A 1_555 1_555
C8A C7A 1_555 1_555
C9A C8A 1_555 1_555
C10A C9A 1_555 1_555
C11A C10A 1_555 1_555
C12A C7A 1_555 1_555
H1A C2A 1_555 1_555
H2A C3A 1_555 1_555
H3A C4A 1_555 1_555
H4A C5A 1_555 1_555
H5A C6A 1_555 1_555
H6A C8A 1_555 1_555
H7A C9A 1_555 1_555
H8A C10A 1_555 1_555
H9A C11A 1_555 1_555
H10A C12A 1_555 1_555
Pd1B S1A 1_555 1_555
Pd2B S2A 1_555 1_555
C5A C6A 1_555 1_555
C11A C12A 1_555 1_555

#END
