
#######################################################################
#
#                 Cambridge Crystallographic Data Centre
#                                CCDC 
#
#######################################################################
#
# If this CIF has been generated from an entry in the Cambridge 
# Structural Database, then it will include bibliographic, chemical, 
# crystal, experimental, refinement or atomic coordinate data resulting 
# from the CCDC's data processing and validation procedures.
#
#######################################################################

data_KACMUY
_symmetry_cell_setting           monoclinic
_symmetry_space_group_name_H-M   'P 21/n'
_symmetry_Int_Tables_number      14
_space_group_name_Hall           '-P 2yn'
loop_
_symmetry_equiv_pos_site_id
_symmetry_equiv_pos_as_xyz
1 x,y,z
2 1/2-x,1/2+y,1/2-z
3 -x,-y,-z
4 1/2+x,1/2-y,1/2+z
_cell_length_a                   11.9751(2)
_cell_length_b                   11.4558(2)
_cell_length_c                   15.9132(3)
_cell_angle_alpha                90
_cell_angle_beta                 107.2210(10)
_cell_angle_gamma                90
_cell_volume                     2085.18
loop_
_atom_site_label
_atom_site_type_symbol
_atom_site_fract_x
_atom_site_fract_y
_atom_site_fract_z
Ni1 Ni 0.278204(19) 0.72294(2) 0.171219(14)
S1 S 0.63309(5) 0.44024(5) 0.40429(4)
O1 O 0.13760(12) 0.81039(14) 0.09017(9)
H1 H 0.0793(18) 0.7699(19) 0.0657(15)
H2 H 0.117(2) 0.8609(18) 0.1190(14)
O2 O 0.34633(12) 0.88582(13) 0.21663(9)
H3 H 0.4020(16) 0.887(2) 0.2598(13)
H4 H 0.2998(17) 0.933(2) 0.2204(16)
O3 O 0.21339(13) 0.56097(13) 0.12318(9)
H5 H 0.201(2) 0.548(2) 0.0714(10)
H6 H 0.2567(19) 0.512(2) 0.1509(13)
O4 O 0.42441(11) 0.65690(12) 0.25724(8)
O5 O 0.37114(14) 0.48318(15) 0.29183(12)
O6 O 0.96913(16) 0.39827(19) 0.13312(11)
O7 O 0.82131(15) 0.50082(16) 0.04835(10)
N1 N 0.18535(13) 0.71184(14) 0.26583(10)
N2 N -0.13379(14) 0.76308(15) 0.57458(10)
C1 C 0.81234(18) 0.4441(2) 0.18830(14)
C2 C 0.72685(19) 0.5246(2) 0.18715(16)
H7 H 0.7057 0.5785 0.1414
C3 C 0.6715(2) 0.5279(2) 0.25175(16)
H8 H 0.6155 0.5848 0.2503
C4 C 0.69965(17) 0.4458(2) 0.31919(13)
C5 C 0.7876(2) 0.3656(2) 0.32179(16)
H9 H 0.8086 0.3112 0.3672
C6 C 0.8442(2) 0.3657(2) 0.25775(16)
H10 H 0.9042 0.3127 0.2612
C7 C 0.8720(2) 0.4476(2) 0.11812(14)
C8 C 0.54502(18) 0.5702(2) 0.38556(13)
H11 H 0.5194 0.5843 0.4371
H12 H 0.5939 0.6355 0.3800
C9 C 0.43775(16) 0.56847(18) 0.30506(12)
C10 C 0.23438(17) 0.7505(2) 0.34773(13)
H13 H 0.3130 0.7713 0.3641
C11 C 0.17451(17) 0.7613(2) 0.40908(13)
H14 H 0.2121 0.7899 0.4650
C12 C 0.05751(16) 0.72898(18) 0.38687(12)
C13 C 0.00760(17) 0.6853(2) 0.30295(13)
H15 H -0.0698 0.6605 0.2857
C14 C 0.07353(17) 0.6788(2) 0.24503(12)
H16 H 0.0383 0.6500 0.1888
C15 C -0.01002(16) 0.74037(18) 0.45093(12)
C16 C 0.00246(18) 0.83770(18) 0.50462(13)
H17 H 0.0533 0.8973 0.5005
C17 C -0.06058(18) 0.84596(18) 0.56416(12)
H18 H -0.0517 0.9127 0.5989
C18 C -0.14609(19) 0.6694(2) 0.52295(14)
H19 H -0.1970 0.6108 0.5290
C19 C -0.08719(19) 0.6547(2) 0.46092(14)
H20 H -0.0991 0.5879 0.4261
Ni1C Ni -0.221796(19) 0.77706(2) 0.671219(14)
N2C N 0.36621(14) 0.73692(15) 0.07458(10)
O8 O 0.53666(14) 0.17179(16) 0.49516(11)
H21 H 0.513(2) 0.142(2) 0.5342(16)
H22 H 0.570(2) 0.116(2) 0.4785(19)
loop_
_geom_bond_atom_site_label_1
_geom_bond_atom_site_label_2
_geom_bond_site_symmetry_1
_geom_bond_site_symmetry_2
Ni1 O1 1_555 1_555
S1 C4 1_555 1_555
O1 H1 1_555 1_555
H2 O1 1_555 1_555
O2 Ni1 1_555 1_555
H3 O2 1_555 1_555
H4 O2 1_555 1_555
O3 Ni1 1_555 1_555
H5 O3 1_555 1_555
H6 O3 1_555 1_555
O4 Ni1 1_555 1_555
O5 C9 1_555 1_555
O6 C7 1_555 1_555
O7 C7 1_555 1_555
N1 Ni1 1_555 1_555
N2 C17 1_555 1_555
C1 C2 1_555 1_555
C2 H7 1_555 1_555
C3 C2 1_555 1_555
H8 C3 1_555 1_555
C4 C3 1_555 1_555
C5 C4 1_555 1_555
H9 C5 1_555 1_555
C6 C1 1_555 1_555
H10 C6 1_555 1_555
C7 C1 1_555 1_555
C8 S1 1_555 1_555
H11 C8 1_555 1_555
H12 C8 1_555 1_555
C9 O4 1_555 1_555
C10 N1 1_555 1_555
H13 C10 1_555 1_555
C11 C10 1_555 1_555
H14 C11 1_555 1_555
C12 C11 1_555 1_555
C13 C12 1_555 1_555
H15 C13 1_555 1_555
C14 N1 1_555 1_555
H16 C14 1_555 1_555
C15 C12 1_555 1_555
C16 C15 1_555 1_555
H17 C16 1_555 1_555
C17 C16 1_555 1_555
H18 C17 1_555 1_555
C18 N2 1_555 1_555
H19 C18 1_555 1_555
C19 C15 1_555 1_555
H20 C19 1_555 1_555
O8 H21 1_555 1_555
H22 O8 1_555 1_555
Ni1C N2 1_555 1_555
N2C Ni1 1_555 1_555
C5 C6 1_555 1_555
C8 C9 1_555 1_555
C13 C14 1_555 1_555
C18 C19 1_555 1_555

#END
