
#######################################################################
#
#                 Cambridge Crystallographic Data Centre
#                                CCDC 
#
#######################################################################
#
# If this CIF has been generated from an entry in the Cambridge 
# Structural Database, then it will include bibliographic, chemical, 
# crystal, experimental, refinement or atomic coordinate data resulting 
# from the CCDC's data processing and validation procedures.
#
#######################################################################

data_KACMEH
_symmetry_cell_setting           monoclinic
_symmetry_space_group_name_H-M   'P 21/c'
_symmetry_Int_Tables_number      14
_space_group_name_Hall           '-P 2ybc'
loop_
_symmetry_equiv_pos_site_id
_symmetry_equiv_pos_as_xyz
1 x,y,z
2 x,1/2-y,1/2+z
3 -x,-y,-z
4 -x,1/2+y,1/2-z
_cell_length_a                   9.362(6)
_cell_length_b                   12.469(7)
_cell_length_c                   17.570(8)
_cell_angle_alpha                90
_cell_angle_beta                 92.208(9)
_cell_angle_gamma                90
_cell_volume                     2049.51
loop_
_atom_site_label
_atom_site_type_symbol
_atom_site_fract_x
_atom_site_fract_y
_atom_site_fract_z
Cu1 Cu 0.5000 0.5000 1.0000
Cu2 Cu 0.48050(6) 0.62596(5) 0.71483(3)
N1 N 0.3562(4) 0.5657(3) 0.9311(2)
H1 H 0.2733 0.5766 0.9490
N2 N 0.4902(4) 0.5813(3) 0.8217(2)
N3 N 0.6329(4) 0.4994(3) 0.9173(2)
H2 H 0.7162 0.4726 0.9272
N4 N 0.2869(4) 0.6698(3) 0.7433(2)
N5 N 0.2641(4) 0.6468(3) 0.8187(2)
N6 N 0.6768(4) 0.5668(3) 0.7218(2)
N7 N 0.7132(4) 0.5300(3) 0.7938(2)
N8 N 0.4765(4) 0.6674(4) 0.6073(2)
N9 N 0.4015(7) 0.6234(5) 0.5503(3)
H3 H 0.3303 0.5807 0.5550
C1 C 0.3731(5) 0.5939(4) 0.8623(2)
C2 C 0.6086(5) 0.5349(4) 0.8495(3)
C3 C 0.1726(6) 0.7168(5) 0.7164(3)
H4 H 0.1595 0.7405 0.6664
C4 C 0.0706(6) 0.7272(5) 0.7730(4)
H5 H -0.0199 0.7576 0.7676
C5 C 0.1318(5) 0.6838(5) 0.8365(3)
H6 H 0.0914 0.6796 0.8839
C6 C 0.7903(6) 0.5519(5) 0.6822(3)
H7 H 0.7967 0.5707 0.6312
C7 C 0.8989(7) 0.5052(5) 0.7251(4)
H8 H 0.9888 0.4864 0.7088
C8 C 0.8485(6) 0.4917(5) 0.7966(3)
H9 H 0.8975 0.4621 0.8386
C9 C 0.5789(5) 0.7266(5) 0.5749(3)
H10 H 0.6490 0.7657 0.6016
C10 C 0.5647(7) 0.7207(6) 0.4982(3)
H11 H 0.6210 0.7551 0.4632
C11 C 0.4547(9) 0.6561(6) 0.4824(4)
H12 H 0.4199 0.6366 0.4340
Cl1 Cl 0.33818(13) 0.36205(9) 0.71518(7)
O1 O 0.2759(5) 0.2791(4) 0.6695(2)
O2 O 0.3819(7) 0.4480(4) 0.6699(3)
O3 O 0.2423(6) 0.4006(5) 0.7667(4)
O4 O 0.4591(7) 0.3221(4) 0.7549(5)
N1B N 0.6438(4) 0.4343(3) 1.0689(2)
H1B H 0.7267 0.4234 1.0510
N2B N 0.5098(4) 0.4187(3) 1.1783(2)
N3B N 0.3671(4) 0.5006(3) 1.0827(2)
H2B H 0.2838 0.5274 1.0728
N4B N 0.7131(4) 0.3302(3) 1.2567(2)
N5B N 0.7359(4) 0.3532(3) 1.1813(2)
N6B N 0.3232(4) 0.4332(3) 1.2782(2)
N7B N 0.2868(4) 0.4700(3) 1.2062(2)
C1B C 0.6269(5) 0.4061(4) 1.1377(2)
C2B C 0.3914(5) 0.4651(4) 1.1505(3)
C3B C 0.8274(6) 0.2832(5) 1.2836(3)
H4B H 0.8405 0.2595 1.3336
C4B C 0.9294(6) 0.2728(5) 1.2270(4)
H5B H 1.0199 0.2424 1.2324
C5B C 0.8682(5) 0.3162(5) 1.1635(3)
H6B H 0.9086 0.3204 1.1161
C6B C 0.2097(6) 0.4481(5) 1.3178(3)
H7B H 0.2033 0.4293 1.3688
C7B C 0.1011(7) 0.4948(5) 1.2749(4)
H8B H 0.0112 0.5136 1.2912
C8B C 0.1515(6) 0.5083(5) 1.2034(3)
H9B H 0.1025 0.5379 1.1614
Cu2B Cu 0.51950(6) 0.37404(5) 1.28517(3)
Cl1C Cl 0.66182(13) 0.86205(9) 0.78482(7)
O1C O 0.7241(5) 0.7791(4) 0.8305(2)
O2C O 0.6181(7) 0.9480(4) 0.8301(3)
O3C O 0.7577(6) 0.9006(5) 0.7333(4)
O4C O 0.5409(7) 0.8221(4) 0.7451(5)
N8B N 0.5235(4) 0.3326(4) 1.3927(2)
N9B N 0.5985(7) 0.3766(5) 1.4497(3)
H3B H 0.6697 0.4193 1.4450
C9B C 0.4211(5) 0.2734(5) 1.4251(3)
H10B H 0.3510 0.2343 1.3984
C10B C 0.4353(7) 0.2793(6) 1.5018(3)
H11B H 0.3790 0.2449 1.5368
C11B C 0.5453(9) 0.3439(6) 1.5176(4)
H12B H 0.5801 0.3634 1.5660
Cu2C Cu 0.51950(6) 0.12596(5) 0.78517(3)
O2B O 0.6181(7) 0.5520(4) 1.3301(3)
O4A O 0.4591(7) 0.1779(4) 1.2549(5)
Cu2C_2 Cu 0.51950(6) 1.12596(5) 0.78517(3)
Cl2 Cl 0.03942(13) 0.16201(14) 0.46312(8)
O5 O -0.1141(4) 0.1546(3) 0.4649(2)
O6 O 0.0794(6) 0.2431(6) 0.4141(4)
O7 O 0.1012(5) 0.1611(6) 0.5352(3)
O8 O 0.0912(7) 0.0639(6) 0.4278(4)
O9 O 0.106(3) 0.496(2) 0.5197(11)
H13 H 0.1970 0.4547 0.5171
H14 H 0.0398 0.4507 0.5275
loop_
_geom_bond_atom_site_label_1
_geom_bond_atom_site_label_2
_geom_bond_site_symmetry_1
_geom_bond_site_symmetry_2
Cu1 N1 1_555 1_555
Cu2 N2 1_555 1_555
N1 H1 1_555 1_555
N2 C1 1_555 1_555
N3 Cu1 1_555 1_555
H2 N3 1_555 1_555
N4 Cu2 1_555 1_555
N5 N4 1_555 1_555
N6 Cu2 1_555 1_555
N7 N6 1_555 1_555
N8 Cu2 1_555 1_555
N9 N8 1_555 1_555
H3 N9 1_555 1_555
C1 N1 1_555 1_555
C2 N2 1_555 1_555
C3 N4 1_555 1_555
H4 C3 1_555 1_555
C4 C3 1_555 1_555
H5 C4 1_555 1_555
C5 N5 1_555 1_555
H6 C5 1_555 1_555
C6 N6 1_555 1_555
H7 C6 1_555 1_555
C7 C6 1_555 1_555
H8 C7 1_555 1_555
C8 N7 1_555 1_555
H9 C8 1_555 1_555
C9 N8 1_555 1_555
H10 C9 1_555 1_555
C10 C9 1_555 1_555
H11 C10 1_555 1_555
C11 N9 1_555 1_555
H12 C11 1_555 1_555
Cl1 O1 1_555 1_555
O2 Cu2 1_555 1_555
O3 Cl1 1_555 1_555
O4 Cl1 1_555 1_555
Cl2 O5 1_555 1_555
O6 Cl2 1_555 1_555
O7 Cl2 1_555 1_555
O8 Cl2 1_555 1_555
O9 H13 1_555 1_555
H14 O9 1_555 1_555
N1B Cu1 1_555 1_555
H1B N1B 1_555 1_555
N2B C1B 1_555 1_555
N3B Cu1 1_555 1_555
H2B N3B 1_555 1_555
N4B N5B 1_555 1_555
N5B C1B 1_555 1_555
N6B N7B 1_555 1_555
N7B C2B 1_555 1_555
C1B N1B 1_555 1_555
C2B N2B 1_555 1_555
C3B N4B 1_555 1_555
H4B C3B 1_555 1_555
C4B C3B 1_555 1_555
H5B C4B 1_555 1_555
C5B N5B 1_555 1_555
H6B C5B 1_555 1_555
C6B N6B 1_555 1_555
H7B C6B 1_555 1_555
C7B C6B 1_555 1_555
H8B C7B 1_555 1_555
C8B N7B 1_555 1_555
H9B C8B 1_555 1_555
Cu2B N2B 1_555 1_555
Cl1C O1C 1_555 1_555
O2C Cl1C 1_555 1_555
O3C Cl1C 1_555 1_555
O4C Cu2 1_555 1_555
N8B Cu2B 1_555 1_555
N9B N8B 1_555 1_555
H3B N9B 1_555 1_555
C9B N8B 1_555 1_555
H10B C9B 1_555 1_555
C10B C9B 1_555 1_555
H11B C10B 1_555 1_555
C11B N9B 1_555 1_555
H12B C11B 1_555 1_555
Cu2C O4 1_555 1_555
O2B Cu2B 1_555 1_555
O4A Cu2B 1_555 1_555
Cu2C_2 O2C 1_555 1_555
N3 C2 1_555 1_555
N5 C1 1_555 1_555
N7 C2 1_555 1_555
C4 C5 1_555 1_555
C7 C8 1_555 1_555
C10 C11 1_555 1_555
Cl1 O2 1_555 1_555
N3B C2B 1_555 1_555
N4B Cu2B 1_555 1_555
N6B Cu2B 1_555 1_555
C4B C5B 1_555 1_555
C7B C8B 1_555 1_555
Cl1C O4C 1_555 1_555
C10B C11B 1_555 1_555

#END
