
#######################################################################
#
#                 Cambridge Crystallographic Data Centre
#                                CCDC 
#
#######################################################################
#
# If this CIF has been generated from an entry in the Cambridge 
# Structural Database, then it will include bibliographic, chemical, 
# crystal, experimental, refinement or atomic coordinate data resulting 
# from the CCDC's data processing and validation procedures.
#
#######################################################################

data_KACPEK
_symmetry_cell_setting           monoclinic
_symmetry_space_group_name_H-M   'P 21/c'
_symmetry_Int_Tables_number      14
_space_group_name_Hall           '-P 2ybc'
loop_
_symmetry_equiv_pos_site_id
_symmetry_equiv_pos_as_xyz
1 x,y,z
2 x,1/2-y,1/2+z
3 -x,-y,-z
4 -x,1/2+y,1/2-z
_cell_length_a                   10.629(2)
_cell_length_b                   18.204(4)
_cell_length_c                   12.743(3)
_cell_angle_alpha                90
_cell_angle_beta                 108.27(3)
_cell_angle_gamma                90
_cell_volume                     2341.35
loop_
_atom_site_label
_atom_site_type_symbol
_atom_site_fract_x
_atom_site_fract_y
_atom_site_fract_z
C1 C 1.0356(3) 0.09855(19) 0.8144(3)
C2 C 1.0650(4) 0.0829(2) 0.9267(3)
H1 H 1.0227 0.1091 0.9686
C3 C 1.1548(4) 0.0300(2) 0.9762(3)
H2 H 1.1717 0.0208 1.0512
C4 C 1.2214(4) -0.0104(2) 0.9183(3)
H3 H 1.2822 -0.0464 0.9535
C5 C 1.1958(4) 0.0037(2) 0.8082(3)
H4 H 1.2397 -0.0232 0.7682
C6 C 1.1041(3) 0.05831(18) 0.7539(3)
C7 C 1.0848(3) 0.07043(19) 0.6384(3)
H5 H 1.1296 0.0397 0.6038
C8 C 0.9917(4) 0.1250(2) 0.4604(3)
H6 H 0.9176 0.0946 0.4196
H7 H 1.0705 0.1081 0.4448
C9 C 0.9649(4) 0.2043(2) 0.4271(3)
H8 H 1.0459 0.2328 0.4529
H9 H 0.9302 0.2085 0.3472
C10 C 0.7700(4) 0.27199(19) 0.4246(3)
H10 H 0.7620 0.2832 0.3516
C11 C 0.6729(3) 0.30152(19) 0.4694(3)
C12 C 0.5662(4) 0.3405(2) 0.3985(3)
H11 H 0.5593 0.3445 0.3242
C13 C 0.4724(4) 0.3726(3) 0.4352(4)
H12 H 0.4013 0.3972 0.3864
C14 C 0.4843(4) 0.3682(3) 0.5464(4)
H13 H 0.4208 0.3904 0.5721
C15 C 0.5880(4) 0.3318(2) 0.6191(4)
H14 H 0.5952 0.3307 0.6937
C16 C 0.6835(3) 0.29605(19) 0.5825(3)
C17 C 1.0498(4) 0.3491(2) 0.6962(3)
C18 C 1.1437(4) 0.4015(2) 0.7407(3)
H15 H 1.1193 0.4503 0.7435
C19 C 1.2749(4) 0.3810(2) 0.7815(3)
C20 C 1.3024(4) 0.3062(2) 0.7756(3)
H16 H 1.3893 0.2895 0.8024
C21 C 1.2022(4) 0.2580(2) 0.7308(3)
C22 C 1.3429(5) 0.5292(2) 0.8381(4)
C23 C 1.2821(4) 0.5470(2) 0.9291(3)
Mn1 Mn 0.89484(5) 0.18987(3) 0.62718(4)
N1 N 1.0106(3) 0.12035(15) 0.5796(2)
N2 N 0.8671(3) 0.23121(15) 0.4779(2)
N3 N 1.0750(3) 0.27735(16) 0.6898(2)
O1 O 0.9457(2) 0.14861(14) 0.77032(18)
O2 O 0.7814(2) 0.26149(13) 0.65653(18)
O3 O 1.2641(3) 0.61469(14) 0.9391(2)
O4 O 1.2541(3) 0.49731(16) 0.9828(2)
S1 S 1.41060(10) 0.43890(6) 0.83778(10)
H21 H 1.415(4) 0.557(2) 0.845(3)
H22 H 1.275(4) 0.540(2) 0.767(4)
H23 H 0.967(4) 0.3639(19) 0.666(3)
H24 H 1.224(4) 0.208(2) 0.728(3)
O3C O 0.7359(3) 0.11469(14) 0.5609(2)
Mn1C Mn 1.10516(5) 0.68987(3) 0.87282(4)
C24 C 0.3918(6) 0.1781(3) 0.5745(5)
H17 H 0.3152 0.1976 0.5195
H18 H 0.4576 0.1652 0.5406
H19 H 0.4271 0.2144 0.6306
O5 O 0.3581(4) 0.1195(2) 0.6191(3)
H20 H 0.3240 0.0894 0.5706
loop_
_geom_bond_atom_site_label_1
_geom_bond_atom_site_label_2
_geom_bond_site_symmetry_1
_geom_bond_site_symmetry_2
C1 C2 1_555 1_555
C2 H1 1_555 1_555
C3 C2 1_555 1_555
H2 C3 1_555 1_555
C4 C3 1_555 1_555
H3 C4 1_555 1_555
C5 C4 1_555 1_555
H4 C5 1_555 1_555
C6 C1 1_555 1_555
C7 C6 1_555 1_555
H5 C7 1_555 1_555
C8 H6 1_555 1_555
H7 C8 1_555 1_555
C9 C8 1_555 1_555
H8 C9 1_555 1_555
H9 C9 1_555 1_555
C10 H10 1_555 1_555
C11 C10 1_555 1_555
C12 C11 1_555 1_555
H11 C12 1_555 1_555
C13 C12 1_555 1_555
H12 C13 1_555 1_555
C14 C13 1_555 1_555
H13 C14 1_555 1_555
C15 C14 1_555 1_555
H14 C15 1_555 1_555
C16 C11 1_555 1_555
C17 C18 1_555 1_555
C18 H15 1_555 1_555
C19 C18 1_555 1_555
C20 C19 1_555 1_555
H16 C20 1_555 1_555
C21 C20 1_555 1_555
C22 C23 1_555 1_555
C23 O3 1_555 1_555
C24 H17 1_555 1_555
H18 C24 1_555 1_555
H19 C24 1_555 1_555
Mn1 N1 1_555 1_555
N1 C7 1_555 1_555
N2 C9 1_555 1_555
N3 C17 1_555 1_555
O1 C1 1_555 1_555
O2 C16 1_555 1_555
O3 Mn1C 1_555 1_555
O4 C23 1_555 1_555
O5 C24 1_555 1_555
H20 O5 1_555 1_555
S1 C19 1_555 1_555
H21 C22 1_555 1_555
H22 C22 1_555 1_555
H23 C17 1_555 1_555
H24 C21 1_555 1_555
O3C Mn1 1_555 1_555
C5 C6 1_555 1_555
C8 N1 1_555 1_555
C10 N2 1_555 1_555
C15 C16 1_555 1_555
C21 N3 1_555 1_555
C22 S1 1_555 1_555
Mn1 N3 1_555 1_555
Mn1 N2 1_555 1_555
Mn1 O1 1_555 1_555
Mn1 O2 1_555 1_555

#END
