
#######################################################################
#
#                 Cambridge Crystallographic Data Centre
#                                CCDC 
#
#######################################################################
#
# If this CIF has been generated from an entry in the Cambridge 
# Structural Database, then it will include bibliographic, chemical, 
# crystal, experimental, refinement or atomic coordinate data resulting 
# from the CCDC's data processing and validation procedures.
#
#######################################################################

data_KACSAK
_symmetry_cell_setting           monoclinic
_symmetry_space_group_name_H-M   'P 21/n'
_symmetry_Int_Tables_number      14
_space_group_name_Hall           '-P 2yn'
loop_
_symmetry_equiv_pos_site_id
_symmetry_equiv_pos_as_xyz
1 x,y,z
2 1/2-x,1/2+y,1/2-z
3 -x,-y,-z
4 1/2+x,1/2-y,1/2+z
_cell_length_a                   8.4840(2)
_cell_length_b                   11.0614(3)
_cell_length_c                   9.1046(2)
_cell_angle_alpha                90
_cell_angle_beta                 116.1167(17)
_cell_angle_gamma                90
_cell_volume                     767.184
loop_
_atom_site_label
_atom_site_type_symbol
_atom_site_fract_x
_atom_site_fract_y
_atom_site_fract_z
Mn1 Mn -0.22844(5) 0.40188(4) 0.18544(5)
O1 O 0.0435(2) 0.43869(19) 0.2731(2)
O2 O 0.1791(3) 0.29278(19) 0.1986(2)
O3 O 0.2578(3) 0.26694(17) 0.5756(2)
O4 O 0.2276(3) 0.41969(18) 0.7201(2)
O5 O 0.2665(2) 0.52282(18) 0.0530(2)
O6 O 0.4925(2) 0.39729(17) 0.1125(2)
O7 O -0.1618(3) 0.3206(3) 0.4363(3)
H1 H -0.104(6) 0.376(4) 0.496(6)
H2 H -0.113(5) 0.256(4) 0.458(5)
C1 C 0.3492(3) 0.4386(2) 0.3975(3)
C2 C 0.3930(3) 0.4481(2) 0.5639(3)
C3 C 0.4573(3) 0.4886(2) 0.3334(3)
C4 C 0.1774(4) 0.3809(3) 0.2802(3)
C5 C 0.2844(3) 0.3742(3) 0.6260(3)
C6 C 0.4024(3) 0.4700(2) 0.1512(3)
Mn1B Mn 1.22844(5) 0.59812(4) 0.81456(5)
Mn1C Mn 0.27156(5) 0.09812(4) 0.68544(5)
Mn1B_2 Mn 0.22844(5) 0.59812(4) 0.81456(5)
Mn1B_3 Mn 0.22844(5) 0.59812(4) -0.18544(5)
Mn1_2 Mn 0.77156(5) 0.40188(4) 0.18544(5)
Mn1A Mn 0.72844(5) 0.90188(4) 0.31456(5)
Mn1_3 Mn 0.77156(5) 0.40188(4) 1.18544(5)
O1B O 0.9565(2) 0.56131(19) 0.7269(2)
O2B O 0.8209(3) 0.70722(19) 0.8014(2)
O3B O 0.7422(3) 0.73306(17) 0.4244(2)
O3C O -0.2422(3) 0.23306(17) 0.0756(2)
O3A O 1.2422(3) 0.76694(17) 0.9244(2)
O4B O 0.7724(3) 0.58031(18) 0.2799(2)
O4B_2 O -0.2276(3) 0.58031(18) 0.2799(2)
O4_2 O 1.2276(3) 0.41969(18) 0.7201(2)
O5B O 0.7335(2) 0.47718(18) 0.9470(2)
O5B_2 O -0.2665(2) 0.47718(18) -0.0530(2)
O5_2 O 1.2665(2) 0.52282(18) 1.0530(2)
O6B O 0.5075(2) 0.60271(17) 0.8875(2)
O6_2 O -0.5075(2) 0.39729(17) 0.1125(2)
O6B_2 O 1.5075(2) 0.60271(17) 0.8875(2)
O7B O 1.1618(3) 0.6794(3) 0.5637(3)
H1B H 1.104(6) 0.624(4) 0.504(6)
H2B H 1.113(5) 0.744(4) 0.542(5)
C1B C 0.6508(3) 0.5614(2) 0.6025(3)
C2B C 0.6070(3) 0.5519(2) 0.4361(3)
C3B C 0.5427(3) 0.5114(2) 0.6666(3)
C4B C 0.8226(4) 0.6191(3) 0.7198(3)
C5B C 0.7156(3) 0.6258(3) 0.3740(3)
C6B C 0.5976(3) 0.5300(2) 0.8488(3)
K1 K -0.01499(9) 0.33137(6) 0.87654(8)
loop_
_geom_bond_atom_site_label_1
_geom_bond_atom_site_label_2
_geom_bond_site_symmetry_1
_geom_bond_site_symmetry_2
Mn1 O1 1_555 1_555
O1 C4 1_555 1_555
O2 C4 1_555 1_555
O3 C5 1_555 1_555
O4 C5 1_555 1_555
O5 C6 1_555 1_555
O6 C6 1_555 1_555
O7 Mn1 1_555 1_555
H1 O7 1_555 1_555
H2 O7 1_555 1_555
C1 C2 1_555 1_555
C2 C5 1_555 1_555
C3 C1 1_555 1_555
C4 C1 1_555 1_555
C6 C3 1_555 1_555
Mn1B O1B 1_555 1_555
Mn1C O3 1_555 1_555
Mn1B_2 O4 1_555 1_555
Mn1B_3 O5 1_555 1_555
Mn1_2 O6 1_555 1_555
Mn1A O3B 1_555 1_555
Mn1_3 O5B 1_555 1_555
O1B C4B 1_555 1_555
O2B C4B 1_555 1_555
O3B C5B 1_555 1_555
O3C Mn1 1_555 1_555
O3A Mn1B 1_555 1_555
O4B Mn1_2 1_555 1_555
O4B_2 Mn1 1_555 1_555
O4_2 Mn1B 1_555 1_555
O5B C6B 1_555 1_555
O5B_2 Mn1 1_555 1_555
O5_2 Mn1B 1_555 1_555
O6B Mn1B_2 1_555 1_555
O6_2 Mn1 1_555 1_555
O6B_2 Mn1B 1_555 1_555
O7B Mn1B 1_555 1_555
H1B O7B 1_555 1_555
H2B O7B 1_555 1_555
C1B C2B 1_555 1_555
C2B C3 1_555 1_555
C3B C2 1_555 1_555
C4B C1B 1_555 1_555
C5B O4B 1_555 1_555
C6B O6B 1_555 1_555
C1B C3B 1_555 1_555
C2B C5B 1_555 1_555
C3B C6B 1_555 1_555

#END
