
#######################################################################
#
#                 Cambridge Crystallographic Data Centre
#                                CCDC 
#
#######################################################################
#
# If this CIF has been generated from an entry in the Cambridge 
# Structural Database, then it will include bibliographic, chemical, 
# crystal, experimental, refinement or atomic coordinate data resulting 
# from the CCDC's data processing and validation procedures.
#
#######################################################################

data_KACVIV
_symmetry_cell_setting           monoclinic
_symmetry_space_group_name_H-M   'P 21/c'
_symmetry_Int_Tables_number      14
_space_group_name_Hall           '-P 2ybc'
loop_
_symmetry_equiv_pos_site_id
_symmetry_equiv_pos_as_xyz
1 x,y,z
2 -x,1/2+y,1/2-z
3 -x,-y,-z
4 x,1/2-y,1/2+z
_cell_length_a                   31.532(5)
_cell_length_b                   9.263(2)
_cell_length_c                   16.646(2)
_cell_angle_alpha                90
_cell_angle_beta                 94.630(9)
_cell_angle_gamma                90
_cell_volume                     4846.11
loop_
_atom_site_label
_atom_site_type_symbol
_atom_site_fract_x
_atom_site_fract_y
_atom_site_fract_z
Co1 Co -0.5000 -0.5000 -0.5000
Co2 Co 0.0000 -0.5000 -0.5000
O1 O 0.4413(6) -0.447(2) -0.4587(12)
O2 O 0.4096(6) -0.665(2) -0.4443(11)
O3 O 0.0627(6) -0.438(2) -0.4747(14)
O4 O 0.0899(6) -0.465(3) -0.5941(14)
O5 O -0.4845(6) -0.280(2) -0.5044(13)
O6 O -0.4750(7) -0.517(3) -0.3808(12)
O7 O 0.0081(9) -0.504(4) -0.6203(17)
O8 O 0.0167(10) -0.712(3) -0.491(4)
C1 C 0.4096(8) -0.517(3) -0.4477(14)
C2 C 0.0921(11) -0.436(4) -0.522(2)
C3 C 0.3718(8) -0.446(3) -0.4344(15)
C4 C 0.3390(8) -0.419(3) -0.4901(16)
C5 C 0.3042(7) -0.342(3) -0.4726(14)
C6 C 0.2946(7) -0.302(3) -0.3978(14)
C7 C 0.3246(9) -0.333(3) -0.3357(17)
C8 C 0.3628(7) -0.412(3) -0.3509(14)
C9 C 0.2552(9) -0.236(3) -0.3817(18)
C10 C 0.2136(7) -0.269(3) -0.4150(14)
C11 C 0.1857(8) -0.187(3) -0.4561(14)
C12 C 0.1455(10) -0.236(4) -0.4868(19)
C13 C 0.1356(8) -0.389(3) -0.4824(15)
C14 C 0.1650(8) -0.479(3) -0.4533(16)
C15 C 0.2041(7) -0.410(3) -0.4155(13)
C16 C 0.2570(9) -0.107(3) -0.3264(17)
C17 C 0.2851(10) 0.021(3) -0.3316(18)
C18 C 0.2877(10) 0.134(3) -0.2757(19)
C19 C 0.2600(10) 0.142(3) -0.2154(18)
C20 C 0.2306(9) 0.019(3) -0.2145(18)
C21 C 0.2292(10) -0.092(3) -0.2658(19)
Cl1 Cl 0.3480(2) -0.4690(10) -0.5881(4)
Cl2 Cl 0.2704(2) -0.2735(10) -0.5566(4)
Cl3 Cl 0.3166(2) -0.3072(10) -0.2367(4)
Cl4 Cl 0.4002(2) -0.4515(9) -0.2754(4)
Cl5 Cl 0.1965(3) -0.0033(9) -0.4681(6)
Cl6 Cl 0.1086(3) -0.1189(11) -0.5354(7)
Cl7 Cl 0.1516(3) -0.6524(10) -0.4495(5)
Cl8 Cl 0.2376(2) -0.5468(9) -0.3669(5)
Cl9 Cl 0.3167(3) 0.0184(10) -0.4112(6)
Cl10 Cl 0.3250(3) 0.2634(9) -0.2857(6)
Cl11 Cl 0.2642(4) 0.2773(14) -0.1477(8)
Cl12 Cl 0.1944(4) 0.0349(12) -0.1374(6)
Cl13 Cl 0.1969(3) -0.2343(11) -0.2433(5)
N1 N -0.4504(9) -0.455(3) -0.2558(17)
C22 C -0.4764(11) -0.450(4) -0.329(2)
C23 C -0.4583(18) -0.336(6) -0.201(3)
C24 C -0.4276(19) -0.568(6) -0.239(3)
Co1_2 Co 0.5000 -0.5000 -0.5000
O1B O -0.4413(6) -0.553(2) -0.5413(12)
O1_2 O -0.5587(6) -0.447(2) -0.4587(12)
O2B O -0.4096(6) -0.335(2) -0.5557(11)
O3B O -0.0627(6) -0.562(2) -0.5253(14)
O4B O -0.0899(6) -0.535(3) -0.4059(14)
O5B O -0.5155(6) -0.720(2) -0.4956(13)
O6B O -0.5250(7) -0.483(3) -0.6192(12)
O7B O -0.0081(9) -0.496(4) -0.3797(17)
O8B O -0.0167(10) -0.288(3) -0.509(4)
C1B C -0.4096(8) -0.483(3) -0.5523(14)
C2B C -0.0921(11) -0.564(4) -0.478(2)
C3B C -0.3718(8) -0.554(3) -0.5656(15)
C4B C -0.3390(8) -0.581(3) -0.5099(16)
C5B C -0.3042(7) -0.658(3) -0.5274(14)
C6B C -0.2946(7) -0.698(3) -0.6022(14)
C7B C -0.3246(9) -0.667(3) -0.6643(17)
C8B C -0.3628(7) -0.588(3) -0.6491(14)
C9B C -0.2552(9) -0.764(3) -0.6183(18)
C10B C -0.2136(7) -0.731(3) -0.5850(14)
C11B C -0.1857(8) -0.813(3) -0.5439(14)
C12B C -0.1455(10) -0.764(4) -0.5132(19)
C13B C -0.1356(8) -0.611(3) -0.5176(15)
C14B C -0.1650(8) -0.521(3) -0.5467(16)
C15B C -0.2041(7) -0.590(3) -0.5845(13)
C16B C -0.2570(9) -0.893(3) -0.6736(17)
C17B C -0.2851(10) -1.021(3) -0.6684(18)
C18B C -0.2877(10) -1.134(3) -0.7243(19)
C19B C -0.2600(10) -1.142(3) -0.7846(18)
C20B C -0.2306(9) -1.019(3) -0.7855(18)
C21B C -0.2292(10) -0.908(3) -0.7342(19)
Cl1B Cl -0.3480(2) -0.5310(10) -0.4119(4)
Cl2B Cl -0.2704(2) -0.7265(10) -0.4434(4)
Cl3B Cl -0.3166(2) -0.6928(10) -0.7633(4)
Cl4B Cl -0.4002(2) -0.5485(9) -0.7246(4)
Cl5B Cl -0.1965(3) -0.9967(9) -0.5319(6)
Cl6B Cl -0.1086(3) -0.8811(11) -0.4646(7)
Cl7B Cl -0.1516(3) -0.3476(10) -0.5505(5)
Cl8B Cl -0.2376(2) -0.4532(9) -0.6331(5)
Cl9B Cl -0.3167(3) -1.0184(10) -0.5888(6)
Cl10B Cl -0.3250(3) -1.2634(9) -0.7143(6)
Cl11B Cl -0.2642(4) -1.2773(14) -0.8523(8)
Cl12B Cl -0.1944(4) -1.0349(12) -0.8626(6)
Cl13B Cl -0.1969(3) -0.7657(11) -0.7567(5)
N1B N -0.5496(9) -0.545(3) -0.7442(17)
C22B C -0.5236(11) -0.550(4) -0.671(2)
C23B C -0.5417(18) -0.664(6) -0.799(3)
C24B C -0.5724(19) -0.432(6) -0.761(3)
O9 O 0.4725(11) -0.907(4) -0.6199(18)
N2 N 0.4166(10) -0.999(3) -0.5717(17)
C25 C 0.4555(10) -1.028(4) -0.5975(19)
C26 C 0.4007(14) -1.143(5) -0.540(2)
C27 C 0.3896(12) -0.894(4) -0.580(2)
O10 O 0.0561(16) -0.853(6) -0.644(4)
N3 N 0.1118(11) -0.894(4) -0.703(2)
C28 C 0.0914(12) -0.814(4) -0.652(2)
C29 C 0.1586(11) -0.890(6) -0.695(3)
C30 C 0.0934(11) -1.010(4) -0.751(2)
O11 O 0.048(3) -0.817(7) -0.363(4)
N4 N 0.0591(17) -1.009(5) -0.329(3)
C31 C 0.036(2) -0.935(7) -0.384(5)
C32 C 0.051(2) -1.166(5) -0.318(4)
C33 C 0.1032(15) -0.971(5) -0.303(3)
loop_
_geom_bond_atom_site_label_1
_geom_bond_atom_site_label_2
_geom_bond_site_symmetry_1
_geom_bond_site_symmetry_2
Co1 O5 1_555 1_555
Co2 O3 1_555 1_555
O1 C1 1_555 1_555
O2 C1 1_555 1_555
O3 C2 1_555 1_555
O4 C2 1_555 1_555
O6 Co1 1_555 1_555
O7 Co2 1_555 1_555
O8 Co2 1_555 1_555
C1 C3 1_555 1_555
C2 C13 1_555 1_555
C3 C4 1_555 1_555
C4 C5 1_555 1_555
C5 C6 1_555 1_555
C6 C7 1_555 1_555
C7 C8 1_555 1_555
C8 C3 1_555 1_555
C9 C6 1_555 1_555
C10 C9 1_555 1_555
C11 C10 1_555 1_555
C12 C11 1_555 1_555
C13 C12 1_555 1_555
C14 C13 1_555 1_555
C15 C10 1_555 1_555
C16 C9 1_555 1_555
C17 C16 1_555 1_555
C18 C17 1_555 1_555
C19 C18 1_555 1_555
C20 C19 1_555 1_555
C21 C16 1_555 1_555
Cl1 C4 1_555 1_555
Cl2 C5 1_555 1_555
Cl3 C7 1_555 1_555
Cl4 C8 1_555 1_555
Cl5 C11 1_555 1_555
Cl6 C12 1_555 1_555
Cl7 C14 1_555 1_555
Cl8 C15 1_555 1_555
Cl9 C17 1_555 1_555
Cl10 C18 1_555 1_555
Cl11 C19 1_555 1_555
Cl12 C20 1_555 1_555
Cl13 C21 1_555 1_555
N1 C22 1_555 1_555
C22 O6 1_555 1_555
C23 N1 1_555 1_555
C24 N1 1_555 1_555
O9 C25 1_555 1_555
N2 C25 1_555 1_555
C26 N2 1_555 1_555
C27 N2 1_555 1_555
O10 C28 1_555 1_555
N3 C28 1_555 1_555
C29 N3 1_555 1_555
C30 N3 1_555 1_555
O11 C31 1_555 1_555
N4 C31 1_555 1_555
C32 N4 1_555 1_555
C33 N4 1_555 1_555
Co1_2 O1 1_555 1_555
O1B Co1 1_555 1_555
O1_2 Co1 1_555 1_555
O2B C1B 1_555 1_555
O3B Co2 1_555 1_555
O4B C2B 1_555 1_555
O5B Co1 1_555 1_555
O6B Co1 1_555 1_555
O7B Co2 1_555 1_555
O8B Co2 1_555 1_555
C1B O1B 1_555 1_555
C2B O3B 1_555 1_555
C3B C1B 1_555 1_555
C4B C3B 1_555 1_555
C5B C4B 1_555 1_555
C6B C5B 1_555 1_555
C7B C6B 1_555 1_555
C8B C3B 1_555 1_555
C9B C6B 1_555 1_555
C10B C9B 1_555 1_555
C11B C10B 1_555 1_555
C12B C11B 1_555 1_555
C13B C2B 1_555 1_555
C14B C13B 1_555 1_555
C15B C10B 1_555 1_555
C16B C9B 1_555 1_555
C17B C16B 1_555 1_555
C18B C17B 1_555 1_555
C19B C18B 1_555 1_555
C20B C19B 1_555 1_555
C21B C16B 1_555 1_555
Cl1B C4B 1_555 1_555
Cl2B C5B 1_555 1_555
Cl3B C7B 1_555 1_555
Cl4B C8B 1_555 1_555
Cl5B C11B 1_555 1_555
Cl6B C12B 1_555 1_555
Cl7B C14B 1_555 1_555
Cl8B C15B 1_555 1_555
Cl9B C17B 1_555 1_555
Cl10B C18B 1_555 1_555
Cl11B C19B 1_555 1_555
Cl12B C20B 1_555 1_555
Cl13B C21B 1_555 1_555
N1B C22B 1_555 1_555
C22B O6B 1_555 1_555
C23B N1B 1_555 1_555
C24B N1B 1_555 1_555
C14 C15 1_555 1_555
C20 C21 1_555 1_555
C7B C8B 1_555 1_555
C12B C13B 1_555 1_555
C14B C15B 1_555 1_555
C20B C21B 1_555 1_555

#END
