
#######################################################################
#
#                 Cambridge Crystallographic Data Centre
#                                CCDC 
#
#######################################################################
#
# If this CIF has been generated from an entry in the Cambridge 
# Structural Database, then it will include bibliographic, chemical, 
# crystal, experimental, refinement or atomic coordinate data resulting 
# from the CCDC's data processing and validation procedures.
#
#######################################################################

data_KACZEV
_symmetry_cell_setting           cubic
_symmetry_space_group_name_H-M   'I -4 3 d'
_symmetry_Int_Tables_number      220
_space_group_name_Hall           'I -4bd 2c 3'
loop_
_symmetry_equiv_pos_site_id
_symmetry_equiv_pos_as_xyz
1 x,y,z
2 1/2-x,-y,1/2+z
3 -x,1/2+y,1/2-z
4 1/2+x,1/2-y,-z
5 z,x,y
6 1/2+z,1/2-x,-y
7 1/2-z,-x,1/2+y
8 -z,1/2+x,1/2-y
9 y,z,x
10 -y,1/2+z,1/2-x
11 1/2+y,1/2-z,-x
12 1/2-y,-z,1/2+x
13 1/4+y,1/4+x,1/4+z
14 1/4-y,3/4-x,3/4+z
15 3/4+y,1/4-x,3/4-z
16 3/4-y,3/4+x,1/4-z
17 1/4+x,1/4+z,1/4+y
18 3/4-x,3/4+z,1/4-y
19 1/4-x,3/4-z,3/4+y
20 3/4+x,1/4-z,3/4-y
21 1/4+z,1/4+y,1/4+x
22 3/4+z,1/4-y,3/4-x
23 3/4-z,3/4+y,1/4-x
24 1/4-z,3/4-y,3/4+x
25 1/2+x,1/2+y,1/2+z
26 -x,1/2-y,z
27 1/2-x,y,-z
28 x,-y,1/2-z
29 1/2+z,1/2+x,1/2+y
30 z,-x,1/2-y
31 -z,1/2-x,y
32 1/2-z,x,-y
33 1/2+y,1/2+z,1/2+x
34 1/2-y,z,-x
35 y,-z,1/2-x
36 -y,1/2-z,x
37 3/4+y,3/4+x,3/4+z
38 3/4-y,1/4-x,1/4+z
39 1/4+y,3/4-x,1/4-z
40 1/4-y,1/4+x,3/4-z
41 3/4+x,3/4+z,3/4+y
42 1/4-x,1/4+z,3/4-y
43 3/4-x,1/4-z,1/4+y
44 1/4+x,3/4-z,1/4-y
45 3/4+z,3/4+y,3/4+x
46 1/4+z,3/4-y,1/4-x
47 1/4-z,1/4+y,3/4-x
48 3/4-z,1/4-y,1/4+x
_cell_length_a                   38.771(5)
_cell_length_b                   38.771(5)
_cell_length_c                   38.771(5)
_cell_angle_alpha                90
_cell_angle_beta                 90
_cell_angle_gamma                90
_cell_volume                     58280.2
loop_
_atom_site_label
_atom_site_type_symbol
_atom_site_fract_x
_atom_site_fract_y
_atom_site_fract_z
In1 In 0.050022(13) 0.0000 0.2500
In2 In 0.129919(9) 0.014742(9) 0.207622(9)
O1 O 0.10274(13) 0.0000 0.2500
O2 O 0.04732(11) 0.04952(11) 0.22200(11)
O3 O 0.09683(12) -0.01218(12) 0.17224(11)
O4 O 0.09994(12) 0.06210(10) 0.20111(12)
O5 O 0.04120(12) -0.22078(11) -0.08520(12)
N1 N 0.03198(13) 0.16067(12) 0.15862(13)
O6 O 0.04827(12) -0.02648(12) 0.20020(12)
C1 C 0.07828(17) 0.12594(16) 0.17975(16)
H1 H 0.1019 0.1230 0.1829
C2 C 0.02073(17) 0.10671(16) 0.18458(16)
H2 H 0.0046 0.0902 0.1911
O7 O -0.01441(11) -0.20525(12) -0.08219(11)
C3 C 0.06860(17) -0.02774(17) 0.17477(15)
C4 C 0.05821(19) -0.04892(18) 0.14425(18)
C5 C 0.05583(15) 0.10103(15) 0.19034(14)
C6 C 0.01681(14) -0.20387(15) -0.07267(15)
C7 C 0.01022(18) 0.13660(15) 0.16937(16)
H3 H -0.0133 0.1403 0.1664
O8 O -0.00324(17) 0.0000 0.2500
C8 C 0.06850(15) 0.06827(15) 0.20612(15)
C9 C 0.06579(18) 0.15559(16) 0.16438(16)
H4 H 0.0813 0.1726 0.1578
C10 C 0.0245(2) -0.17977(19) -0.04400(19)
C11 C 0.0395(3) -0.0884(3) 0.0875(2)
C12 C -0.0005(2) -0.1635(3) -0.0261(2)
H5 H -0.0234 -0.1671 -0.0324
N2 N 0.0517(2) -0.1169(2) 0.0402(2)
C13 C 0.0395(3) -0.1368(2) 0.0109(3)
C14 C 0.0804(2) -0.0538(3) 0.1174(2)
H6 H 0.1027 -0.0449 0.1185
N3 N 0.0283(2) -0.1095(3) 0.0605(2)
C15 C 0.0583(2) -0.1747(3) -0.0336(2)
H7 H 0.0763 -0.1863 -0.0446
C16 C 0.0063(3) -0.1419(3) 0.0008(3)
H8 H -0.0116 -0.1308 0.0122
C17 C 0.0650(3) -0.1521(3) -0.0066(3)
H9 H 0.0878 -0.1476 -0.0005
C18 C 0.0261(3) -0.0652(3) 0.1430(2)
H10 H 0.0109 -0.0641 0.1615
C19 C 0.0696(3) -0.0719(3) 0.0887(2)
H11 H 0.0839 -0.0726 0.0695
C20 C 0.0180(3) -0.0828(3) 0.1136(3)
H12 H -0.0042 -0.0916 0.1117
In1W In 0.0000 -0.2500 -0.199978(13)
In1U In 0.0000 0.2500 0.699978(13)
In1V In 0.5000 -0.2500 0.199978(13)
In1D In 0.2500 0.050022(13) 0.0000
In1T In 0.5000 0.2500 0.300022(13)
In1F In 0.2500 -0.050022(13) 0.5000
In1M In 0.2500 -0.300022(13) 0.0000
In1B In -0.050022(13) -0.5000 0.2500
In2AA In 0.129919(9) -0.014742(9) 0.292378(9)
In2W In 0.042378(9) -0.264742(9) -0.120081(9)
In2TA In 0.042378(9) 0.264742(9) 0.620081(9)
In2H In 0.014742(9) 0.207622(9) 0.129919(9)
In2HA In 0.014742(9) -0.207622(9) 0.370081(9)
In2RA In -0.042378(9) -0.235258(9) -0.120081(9)
In2U In -0.042378(9) 0.235258(9) 0.620081(9)
In2SA In 0.457622(9) -0.264742(9) 0.120081(9)
In2D In 0.207622(9) 0.129919(9) 0.014742(9)
In2T In 0.457622(9) 0.264742(9) 0.379919(9)
In2CA In 0.207622(9) -0.129919(9) 0.485258(9)
In2Z In 0.370081(9) 0.014742(9) -0.207622(9)
In2A In 0.370081(9) -0.014742(9) -0.292378(9)
In2R In 0.120081(9) -0.457622(9) -0.235258(9)
In2M In 0.235258(9) -0.379919(9) -0.042378(9)
In2Y In -0.129919(9) -0.514742(9) 0.207622(9)
O1W O 0.0000 -0.2500 -0.14726(13)
O1U O 0.0000 0.2500 0.64726(13)
O1H O 0.0000 0.2500 0.10274(13)
O1I O 0.0000 -0.2500 0.39726(13)
O2AA O 0.04732(11) -0.04952(11) 0.27800(11)
O2D O 0.22200(11) 0.04732(11) 0.04952(11)
O2CA O 0.22200(11) -0.04732(11) 0.45048(11)
O2W O 0.02800(11) -0.29952(11) -0.20268(11)
O2M O 0.20048(11) -0.29732(11) -0.02800(11)
O2RA O -0.02800(11) -0.20048(11) -0.20268(11)
O2TA O 0.02800(11) 0.29952(11) 0.70268(11)
O2U O -0.02800(11) 0.20048(11) 0.70268(11)
O3AA O 0.09683(12) 0.01218(12) 0.32776(11)
O3SA O 0.42224(11) -0.23782(12) 0.15317(12)
O3T O 0.42224(11) 0.23782(12) 0.34683(12)
O3W O 0.07776(11) -0.23782(12) -0.15317(12)
O3Y O -0.09683(12) -0.48782(12) 0.17224(11)
O3TA O 0.07776(11) 0.23782(12) 0.65317(12)
O3H O -0.01218(12) 0.17224(11) 0.09683(12)
O3HA O -0.01218(12) -0.17224(11) 0.40317(12)
O4AA O 0.09994(12) -0.06210(10) 0.29889(12)
O4D O 0.20111(12) 0.09994(12) 0.06210(10)
O4CA O 0.20111(12) -0.09994(12) 0.43790(10)
O4W O 0.04889(12) -0.31210(10) -0.15006(12)
O4M O 0.18790(10) -0.34994(12) -0.04889(12)
O4TA O 0.04889(12) 0.31210(10) 0.65006(12)
O4H O 0.06210(10) 0.20111(12) 0.09994(12)
O4HA O 0.06210(10) -0.20111(12) 0.40006(12)
O5AA O 0.04120(12) 0.22078(11) 0.58520(12)
O5SA O 0.16480(12) -0.02922(11) 0.20880(12)
O5T O 0.16480(12) 0.02922(11) 0.29120(12)
O5W O 0.33520(12) -0.02922(11) -0.20880(12)
O5Y O -0.04120(12) -0.27922(11) -0.08520(12)
O5KA O -0.02922(11) 0.20880(12) 0.16480(12)
O5O O -0.02922(11) -0.20880(12) 0.33520(12)
N1AA N 0.03198(13) -0.16067(12) 0.34138(13)
N1D N 0.15862(13) 0.03198(13) 0.16067(12)
N1CA N 0.15862(13) -0.03198(13) 0.33933(12)
N1W N 0.09138(13) -0.41067(12) -0.21802(13)
N1M N 0.08933(12) -0.28198(13) -0.09138(13)
N1MA N 0.08933(12) 0.28198(13) 0.59138(13)
O6AA O 0.04827(12) 0.02648(12) 0.29980(12)
O6SA O 0.45020(12) -0.22352(12) 0.20173(12)
O6T O 0.45020(12) 0.22352(12) 0.29827(12)
O6W O 0.04980(12) -0.22352(12) -0.20173(12)
O6Y O -0.04827(12) -0.47352(12) 0.20020(12)
O6RA O -0.04980(12) -0.27648(12) -0.20173(12)
O6TA O 0.04980(12) 0.22352(12) 0.70173(12)
O6U O -0.04980(12) 0.27648(12) 0.70173(12)
C1AA C 0.07828(17) -0.12594(16) 0.32025(16)
C1D C 0.17975(16) 0.07828(17) 0.12594(16)
C1CA C 0.17975(16) -0.07828(17) 0.37406(16)
C1W C 0.07025(16) -0.37594(16) -0.17172(17)
C1M C 0.12406(16) -0.32828(17) -0.07025(16)
H1AA H 0.1019 -0.1230 0.3171
H1D H 0.1829 0.1019 0.1230
H1CA H 0.1829 -0.1019 0.3770
H1W H 0.0671 -0.3730 -0.1481
H1M H 0.1270 -0.3519 -0.0671
C2AA C 0.02073(17) -0.10671(16) 0.31542(16)
C2D C 0.18458(16) 0.02073(17) 0.10671(16)
C2CA C 0.18458(16) -0.02073(17) 0.39329(16)
C2W C 0.06542(16) -0.35671(16) -0.22927(17)
C2M C 0.14329(16) -0.27073(17) -0.06542(16)
H2AA H 0.0046 -0.0902 0.3089
H2D H 0.1911 0.0046 0.0902
H2CA H 0.1911 -0.0046 0.4098
H2W H 0.0589 -0.3402 -0.2454
H2M H 0.1598 -0.2546 -0.0589
O7AA O -0.01441(11) 0.20525(12) 0.58219(11)
O7SA O 0.16781(11) -0.04475(12) 0.26441(11)
O7T O 0.16781(11) 0.04475(12) 0.23559(11)
O7W O 0.33219(11) -0.04475(12) -0.26441(11)
O7Y O 0.01441(11) -0.29475(12) -0.08219(11)
O7B O 0.01441(11) 0.29475(12) 0.58219(11)
O7L O 0.04475(12) 0.23559(11) 0.16781(11)
O7LA O 0.04475(12) -0.23559(11) 0.33219(11)
C3AA C 0.06860(17) 0.02774(17) 0.32523(15)
C3SA C 0.42477(15) -0.22226(17) 0.18140(17)
C3T C 0.42477(15) 0.22226(17) 0.31860(17)
C3W C 0.07523(15) -0.22226(17) -0.18140(17)
C3Y C -0.06860(17) -0.47226(17) 0.17477(15)
C4AA C 0.05821(19) 0.04892(18) 0.35575(18)
C4SA C 0.39425(18) -0.20108(18) 0.19179(19)
C4T C 0.39425(18) 0.20108(18) 0.30821(19)
C4W C 0.10575(18) -0.20108(18) -0.19179(19)
C4Y C -0.05821(19) -0.45108(18) 0.14425(18)
C5AA C 0.05583(15) -0.10103(15) 0.30966(14)
C5D C 0.19034(14) 0.05583(15) 0.10103(15)
C5CA C 0.19034(14) -0.05583(15) 0.39897(15)
C5W C 0.05966(14) -0.35103(15) -0.19417(15)
C5M C 0.14897(15) -0.30583(15) -0.05966(14)
C6AA C 0.01681(14) 0.20387(15) 0.57267(15)
C6SA C 0.17733(15) -0.04613(15) 0.23319(14)
C6T C 0.17733(15) 0.04613(15) 0.26681(14)
C6W C 0.32267(15) -0.04613(15) -0.23319(14)
C6Y C -0.01681(14) -0.29613(15) -0.07267(15)
C7AA C 0.01022(18) -0.13660(15) 0.33063(16)
C7D C 0.16937(16) 0.01022(18) 0.13660(15)
C7CA C 0.16937(16) -0.01022(18) 0.36340(15)
C7W C 0.08063(16) -0.38660(15) -0.23978(18)
C7M C 0.11340(15) -0.26022(18) -0.08063(16)
H3AA H -0.0133 -0.1403 0.3336
H3D H 0.1664 -0.0133 0.1403
H3CA H 0.1664 0.0133 0.3597
H3W H 0.0836 -0.3903 -0.2633
H3M H 0.1097 -0.2367 -0.0836
O8W O 0.0000 -0.2500 -0.25324(17)
O8U O 0.0000 0.2500 0.75324(17)
C8AA C 0.06850(15) -0.06827(15) 0.29388(15)
C8D C 0.20612(15) 0.06850(15) 0.06827(15)
C8CA C 0.20612(15) -0.06850(15) 0.43173(15)
C8W C 0.04388(15) -0.31827(15) -0.18150(15)
C8M C 0.18173(15) -0.31850(15) -0.04388(15)
C9AA C 0.06579(18) -0.15559(16) 0.33562(16)
C9D C 0.16438(16) 0.06579(18) 0.15559(16)
C9CA C 0.16438(16) -0.06579(18) 0.34441(16)
C9W C 0.08562(16) -0.40559(16) -0.18421(18)
C9M C 0.09441(16) -0.31579(18) -0.08562(16)
H4AA H 0.0813 -0.1726 0.3422
H4D H 0.1578 0.0813 0.1726
H4CA H 0.1578 -0.0813 0.3274
H4W H 0.0922 -0.4226 -0.1687
H4M H 0.0774 -0.3313 -0.0922
C10AA C 0.0245(2) 0.17977(19) 0.54400(19)
C10SA C 0.20600(19) -0.07023(19) 0.2255(2)
C10T C 0.20600(19) 0.07023(19) 0.2745(2)
C10W C 0.29400(19) -0.07023(19) -0.2255(2)
C10Y C -0.0245(2) -0.32023(19) -0.04400(19)
C11AA C 0.0395(3) 0.0884(3) 0.4125(2)
C11SA C 0.3375(2) -0.1616(3) 0.2105(3)
C11T C 0.3375(2) 0.1616(3) 0.2895(3)
C11W C 0.1625(2) -0.1616(3) -0.2105(3)
C11Y C -0.0395(3) -0.4116(3) 0.0875(2)
C12AA C -0.0005(2) 0.1635(3) 0.5261(2)
C12SA C 0.2239(2) -0.0865(3) 0.2505(2)
C12T C 0.2239(2) 0.0865(3) 0.2495(2)
C12W C 0.2761(2) -0.0865(3) -0.2505(2)
C12Y C 0.0005(2) -0.3365(3) -0.0261(2)
H5AA H -0.0234 0.1671 0.5324
H5SA H 0.2176 -0.0829 0.2734
H5T H 0.2176 0.0829 0.2266
H5W H 0.2824 -0.0829 -0.2734
H5Y H 0.0234 -0.3329 -0.0324
N2AA N 0.0517(2) 0.1169(2) 0.4598(2)
N2SA N 0.2902(2) -0.1331(2) 0.1983(2)
N2T N 0.2902(2) 0.1331(2) 0.3017(2)
N2W N 0.2098(2) -0.1331(2) -0.1983(2)
N2Y N -0.0517(2) -0.3831(2) 0.0402(2)
C13AA C 0.0395(3) 0.1368(2) 0.4891(3)
C13SA C 0.2609(3) -0.1132(2) 0.2105(3)
C13T C 0.2609(3) 0.1132(2) 0.2895(3)
C13W C 0.2391(3) -0.1132(2) -0.2105(3)
C13Y C -0.0395(3) -0.3632(2) 0.0109(3)
C14AA C 0.0804(2) 0.0538(3) 0.3826(2)
C14SA C 0.3674(2) -0.1962(3) 0.1696(2)
C14T C 0.3674(2) 0.1962(3) 0.3304(2)
C14W C 0.1326(2) -0.1962(3) -0.1696(2)
C14Y C -0.0804(2) -0.4462(3) 0.1174(2)
H6AA H 0.1027 0.0449 0.3815
H6SA H 0.3685 -0.2051 0.1473
H6T H 0.3685 0.2051 0.3527
H6W H 0.1315 -0.2051 -0.1473
H6Y H -0.1027 -0.4551 0.1185
N3AA N 0.0283(2) 0.1095(3) 0.4395(2)
N3SA N 0.3105(2) -0.1405(3) 0.2217(2)
N3T N 0.3105(2) 0.1405(3) 0.2783(2)
N3W N 0.1895(2) -0.1405(3) -0.2217(2)
N3Y N -0.0283(2) -0.3905(3) 0.0605(2)
C15AA C 0.0583(2) 0.1747(3) 0.5336(2)
C15SA C 0.2164(2) -0.0753(3) 0.1917(2)
C15T C 0.2164(2) 0.0753(3) 0.3083(2)
C15W C 0.2836(2) -0.0753(3) -0.1917(2)
C15Y C -0.0583(2) -0.3253(3) -0.0336(2)
H7AA H 0.0763 0.1863 0.5446
H7SA H 0.2054 -0.0637 0.1737
H7T H 0.2054 0.0637 0.3263
H7W H 0.2946 -0.0637 -0.1737
H7Y H -0.0763 -0.3137 -0.0446
C16AA C 0.0063(3) 0.1419(3) 0.4992(3)
C16SA C 0.2508(3) -0.1081(3) 0.2437(3)
C16T C 0.2508(3) 0.1081(3) 0.2563(3)
C16W C 0.2492(3) -0.1081(3) -0.2437(3)
C16Y C -0.0063(3) -0.3581(3) 0.0008(3)
H8AA H -0.0116 0.1308 0.4878
H8SA H 0.2622 -0.1192 0.2616
H8T H 0.2622 0.1192 0.2384
H8W H 0.2378 -0.1192 -0.2616
H8Y H 0.0116 -0.3692 0.0122
C17AA C 0.0650(3) 0.1521(3) 0.5066(3)
C17SA C 0.2434(3) -0.0979(3) 0.1850(3)
C17T C 0.2434(3) 0.0979(3) 0.3150(3)
C17W C 0.2566(3) -0.0979(3) -0.1850(3)
C17Y C -0.0650(3) -0.3479(3) -0.0066(3)
H9AA H 0.0878 0.1476 0.5005
H9SA H 0.2495 -0.1024 0.1622
H9T H 0.2495 0.1024 0.3378
H9W H 0.2505 -0.1024 -0.1622
H9Y H -0.0878 -0.3524 -0.0005
C18AA C 0.0261(3) 0.0652(3) 0.3570(2)
C18SA C 0.3930(2) -0.1848(3) 0.2239(3)
C18T C 0.3930(2) 0.1848(3) 0.2761(3)
C18W C 0.1070(2) -0.1848(3) -0.2239(3)
C18Y C -0.0261(3) -0.4348(3) 0.1430(2)
H10AA H 0.0109 0.0641 0.3385
H10SA H 0.4115 -0.1859 0.2391
H10T H 0.4115 0.1859 0.2609
H10W H 0.0885 -0.1859 -0.2391
H10Y H -0.0109 -0.4359 0.1615
C19AA C 0.0696(3) 0.0719(3) 0.4113(2)
C19SA C 0.3387(2) -0.1781(3) 0.1804(3)
C19T C 0.3387(2) 0.1781(3) 0.3196(3)
C19W C 0.1613(2) -0.1781(3) -0.1804(3)
C19Y C -0.0696(3) -0.4281(3) 0.0887(2)
H11AA H 0.0839 0.0726 0.4305
H11SA H 0.3195 -0.1774 0.1661
H11T H 0.3195 0.1774 0.3339
H11W H 0.1805 -0.1774 -0.1661
H11Y H -0.0839 -0.4274 0.0695
C20AA C 0.0180(3) 0.0828(3) 0.3864(3)
C20SA C 0.3636(3) -0.1672(3) 0.2320(3)
C20T C 0.3636(3) 0.1672(3) 0.2680(3)
C20W C 0.1364(3) -0.1672(3) -0.2320(3)
C20Y C -0.0180(3) -0.4172(3) 0.1136(3)
H12AA H -0.0042 0.0916 0.3883
H12SA H 0.3617 -0.1584 0.2542
H12T H 0.3617 0.1584 0.2458
H12W H 0.1383 -0.1584 -0.2542
H12Y H 0.0042 -0.4084 0.1117
O9 O 0.1662(4) 0.1662(4) 0.1662(4)
O10 O -0.0857(10) -0.0950(10) 0.3040(10)
O11 O 0.1048(9) -0.0353(10) 0.0070(9)
loop_
_geom_bond_atom_site_label_1
_geom_bond_atom_site_label_2
_geom_bond_site_symmetry_1
_geom_bond_site_symmetry_2
In1 O1 1_555 1_555
In2 O1 1_555 1_555
O1 In2AA 1_555 1_555
O2 In1 1_555 1_555
O3 In2 1_555 1_555
O4 In2 1_555 1_555
O5 C6 1_555 1_555
N1 C7 1_555 1_555
O6 In1 1_555 1_555
C1 H1 1_555 1_555
C2 H2 1_555 1_555
O7 C6 1_555 1_555
C3 O3 1_555 1_555
C4 C3 1_555 1_555
C5 C1 1_555 1_555
C6 C10 1_555 1_555
C7 C2 1_555 1_555
H3 C7 1_555 1_555
O8 In1 1_555 1_555
C8 O2 1_555 1_555
C9 N1 1_555 1_555
H4 C9 1_555 1_555
C10 C12 1_555 1_555
C11 N3 1_555 1_555
C12 H5 1_555 1_555
N2 C13 1_555 1_555
C13 C16 1_555 1_555
C14 C4 1_555 1_555
H6 C14 1_555 1_555
N3 N2 1_555 1_555
C15 C10 1_555 1_555
H7 C15 1_555 1_555
C16 C12 1_555 1_555
H8 C16 1_555 1_555
C17 C13 1_555 1_555
H9 C17 1_555 1_555
C18 C4 1_555 1_555
H10 C18 1_555 1_555
C19 C11 1_555 1_555
H11 C19 1_555 1_555
C20 C11 1_555 1_555
H12 C20 1_555 1_555
In1W O1W 1_555 1_555
In1U O1U 1_555 1_555
In1V O6SA 1_555 1_555
In1D O2D 1_555 1_555
In1T O6T 1_555 1_555
In1F O2CA 1_555 1_555
In1M O2M 1_555 1_555
In1B O6Y 1_555 1_555
In2AA O3AA 1_555 1_555
In2W O5 1_555 1_555
In2TA O1U 1_555 1_555
In2H N1 1_555 1_555
In2HA O1I 1_555 1_555
In2RA O7 1_555 1_555
In2U O1U 1_555 1_555
In2SA O3SA 1_555 1_555
In2D O4D 1_555 1_555
In2T O3T 1_555 1_555
In2CA O4CA 1_555 1_555
In2Z O5W 1_555 1_555
In2A O7W 1_555 1_555
In2R N1W 1_555 1_555
In2M O4M 1_555 1_555
In2Y O3Y 1_555 1_555
O1W In2W 1_555 1_555
O1H In2H 1_555 1_555
O2AA In1 1_555 1_555
O2D C8D 1_555 1_555
O2CA C8CA 1_555 1_555
O2W In1W 1_555 1_555
O2M C8M 1_555 1_555
O2RA In1W 1_555 1_555
O2TA In1U 1_555 1_555
O2U In1U 1_555 1_555
O3AA C3AA 1_555 1_555
O3SA C3SA 1_555 1_555
O3T C3T 1_555 1_555
O3W In2W 1_555 1_555
O3Y C3Y 1_555 1_555
O3TA In2TA 1_555 1_555
O3H In2H 1_555 1_555
O3HA In2HA 1_555 1_555
O4AA In2AA 1_555 1_555
O4D C8D 1_555 1_555
O4CA C8CA 1_555 1_555
O4W In2W 1_555 1_555
O4M C8M 1_555 1_555
O4TA In2TA 1_555 1_555
O4H In2H 1_555 1_555
O4HA In2HA 1_555 1_555
O5AA In2TA 1_555 1_555
O5SA In2 1_555 1_555
O5T In2AA 1_555 1_555
O5W C6W 1_555 1_555
O5Y In2RA 1_555 1_555
O5KA In2H 1_555 1_555
O5O In2HA 1_555 1_555
N1AA In2HA 1_555 1_555
N1D In2 1_555 1_555
N1CA In2AA 1_555 1_555
N1W C7W 1_555 1_555
N1M In2W 1_555 1_555
N1MA In2TA 1_555 1_555
O6AA In1 1_555 1_555
O6SA C3SA 1_555 1_555
O6T C3T 1_555 1_555
O6W In1W 1_555 1_555
O6Y C3Y 1_555 1_555
O6RA In1W 1_555 1_555
O6TA In1U 1_555 1_555
O6U In1U 1_555 1_555
C1AA H1AA 1_555 1_555
C1D H1D 1_555 1_555
C1CA H1CA 1_555 1_555
C1W H1W 1_555 1_555
C1M H1M 1_555 1_555
C2AA H2AA 1_555 1_555
C2D H2D 1_555 1_555
C2CA H2CA 1_555 1_555
C2W H2W 1_555 1_555
C2M H2M 1_555 1_555
O7AA In2U 1_555 1_555
O7SA In2AA 1_555 1_555
O7T In2 1_555 1_555
O7W C6W 1_555 1_555
O7Y In2W 1_555 1_555
O7B In2TA 1_555 1_555
O7L In2H 1_555 1_555
O7LA In2HA 1_555 1_555
C3AA O6AA 1_555 1_555
C3SA C4SA 1_555 1_555
C3T C4T 1_555 1_555
C3W O3W 1_555 1_555
C3Y C4Y 1_555 1_555
C4AA C3AA 1_555 1_555
C4SA C14SA 1_555 1_555
C4T C14T 1_555 1_555
C4W C3W 1_555 1_555
C4Y C14Y 1_555 1_555
C5AA C1AA 1_555 1_555
C5D C1D 1_555 1_555
C5CA C1CA 1_555 1_555
C5W C1W 1_555 1_555
C5M C1M 1_555 1_555
C6AA O5AA 1_555 1_555
C6SA O5SA 1_555 1_555
C6T O5T 1_555 1_555
C6W C10W 1_555 1_555
C6Y O5Y 1_555 1_555
C7AA N1AA 1_555 1_555
C7D N1D 1_555 1_555
C7CA N1CA 1_555 1_555
C7W C2W 1_555 1_555
C7M N1M 1_555 1_555
H3AA C7AA 1_555 1_555
H3D C7D 1_555 1_555
H3CA C7CA 1_555 1_555
H3W C7W 1_555 1_555
H3M C7M 1_555 1_555
O8W In1W 1_555 1_555
O8U In1U 1_555 1_555
C8AA O2AA 1_555 1_555
C8D C5D 1_555 1_555
C8CA C5CA 1_555 1_555
C8W O2W 1_555 1_555
C8M C5M 1_555 1_555
C9AA N1AA 1_555 1_555
C9D N1D 1_555 1_555
C9CA N1CA 1_555 1_555
C9W N1W 1_555 1_555
C9M N1M 1_555 1_555
H4AA C9AA 1_555 1_555
H4D C9D 1_555 1_555
H4CA C9CA 1_555 1_555
H4W C9W 1_555 1_555
H4M C9M 1_555 1_555
C10AA C6AA 1_555 1_555
C10SA C6SA 1_555 1_555
C10T C6T 1_555 1_555
C10W C12W 1_555 1_555
C10Y C6Y 1_555 1_555
C11AA N3AA 1_555 1_555
C11SA N3SA 1_555 1_555
C11T N3T 1_555 1_555
C11W N3W 1_555 1_555
C11Y N3Y 1_555 1_555
C12AA C10AA 1_555 1_555
C12SA C10SA 1_555 1_555
C12T C10T 1_555 1_555
C12W H5W 1_555 1_555
C12Y C10Y 1_555 1_555
H5AA C12AA 1_555 1_555
H5SA C12SA 1_555 1_555
H5T C12T 1_555 1_555
H5Y C12Y 1_555 1_555
N2AA C13AA 1_555 1_555
N2SA C13SA 1_555 1_555
N2T C13T 1_555 1_555
N2W C13W 1_555 1_555
N2Y C13Y 1_555 1_555
C13AA C16AA 1_555 1_555
C13SA C16SA 1_555 1_555
C13T C16T 1_555 1_555
C13W C16W 1_555 1_555
C13Y C16Y 1_555 1_555
C14AA C4AA 1_555 1_555
C14SA H6SA 1_555 1_555
C14T H6T 1_555 1_555
C14W C4W 1_555 1_555
C14Y H6Y 1_555 1_555
H6AA C14AA 1_555 1_555
H6W C14W 1_555 1_555
N3AA N2AA 1_555 1_555
N3SA N2SA 1_555 1_555
N3T N2T 1_555 1_555
N3W N2W 1_555 1_555
N3Y N2Y 1_555 1_555
C15AA C10AA 1_555 1_555
C15SA C10SA 1_555 1_555
C15T C10T 1_555 1_555
C15W C10W 1_555 1_555
C15Y C10Y 1_555 1_555
H7AA C15AA 1_555 1_555
H7SA C15SA 1_555 1_555
H7T C15T 1_555 1_555
H7W C15W 1_555 1_555
H7Y C15Y 1_555 1_555
C16AA C12AA 1_555 1_555
C16SA C12SA 1_555 1_555
C16T C12T 1_555 1_555
C16W C12W 1_555 1_555
C16Y C12Y 1_555 1_555
H8AA C16AA 1_555 1_555
H8SA C16SA 1_555 1_555
H8T C16T 1_555 1_555
H8W C16W 1_555 1_555
H8Y C16Y 1_555 1_555
C17AA C13AA 1_555 1_555
C17SA C13SA 1_555 1_555
C17T C13T 1_555 1_555
C17W C13W 1_555 1_555
C17Y C13Y 1_555 1_555
H9AA C17AA 1_555 1_555
H9SA C17SA 1_555 1_555
H9T C17T 1_555 1_555
H9W C17W 1_555 1_555
H9Y C17Y 1_555 1_555
C18AA C4AA 1_555 1_555
C18SA C4SA 1_555 1_555
C18T C4T 1_555 1_555
C18W C4W 1_555 1_555
C18Y C4Y 1_555 1_555
H10AA C18AA 1_555 1_555
H10SA C18SA 1_555 1_555
H10T C18T 1_555 1_555
H10W C18W 1_555 1_555
H10Y C18Y 1_555 1_555
C19AA C11AA 1_555 1_555
C19SA C11SA 1_555 1_555
C19T C11T 1_555 1_555
C19W C11W 1_555 1_555
C19Y C11Y 1_555 1_555
H11AA C19AA 1_555 1_555
H11SA C19SA 1_555 1_555
H11T C19T 1_555 1_555
H11W C19W 1_555 1_555
H11Y C19Y 1_555 1_555
C20AA C11AA 1_555 1_555
C20SA C11SA 1_555 1_555
C20T C11T 1_555 1_555
C20W C11W 1_555 1_555
C20Y C11Y 1_555 1_555
H12AA C20AA 1_555 1_555
H12SA C20SA 1_555 1_555
H12T C20T 1_555 1_555
H12W C20W 1_555 1_555
H12Y C20Y 1_555 1_555
O4 C8 1_555 1_555
O6 C3 1_555 1_555
C1 C9 1_555 1_555
C2 C5 1_555 1_555
C5 C8 1_555 1_555
C14 C19 1_555 1_555
C15 C17 1_555 1_555
C18 C20 1_555 1_555
In2RA O1W 1_555 1_555
O4AA C8AA 1_555 1_555
O4W C8W 1_555 1_555
O6W C3W 1_555 1_555
C1AA C9AA 1_555 1_555
C1D C9D 1_555 1_555
C1CA C9CA 1_555 1_555
C1W C9W 1_555 1_555
C1M C9M 1_555 1_555
C2AA C5AA 1_555 1_555
C2AA C7AA 1_555 1_555
C2D C5D 1_555 1_555
C2D C7D 1_555 1_555
C2CA C5CA 1_555 1_555
C2CA C7CA 1_555 1_555
C2W C5W 1_555 1_555
C2M C5M 1_555 1_555
C2M C7M 1_555 1_555
O7AA C6AA 1_555 1_555
O7SA C6SA 1_555 1_555
O7T C6T 1_555 1_555
O7Y C6Y 1_555 1_555
C5AA C8AA 1_555 1_555
C5W C8W 1_555 1_555
C14AA C19AA 1_555 1_555
C14SA C19SA 1_555 1_555
C14T C19T 1_555 1_555
C14W C19W 1_555 1_555
C14Y C19Y 1_555 1_555
C15AA C17AA 1_555 1_555
C15SA C17SA 1_555 1_555
C15T C17T 1_555 1_555
C15W C17W 1_555 1_555
C15Y C17Y 1_555 1_555
C18AA C20AA 1_555 1_555
C18SA C20SA 1_555 1_555
C18T C20T 1_555 1_555
C18W C20W 1_555 1_555
C18Y C20Y 1_555 1_555

#END
