
#######################################################################
#
#                 Cambridge Crystallographic Data Centre
#                                CCDC 
#
#######################################################################
#
# If this CIF has been generated from an entry in the Cambridge 
# Structural Database, then it will include bibliographic, chemical, 
# crystal, experimental, refinement or atomic coordinate data resulting 
# from the CCDC's data processing and validation procedures.
#
#######################################################################

data_KADFOM
_symmetry_cell_setting           orthorhombic
_symmetry_space_group_name_H-M   'P b c a'
_symmetry_Int_Tables_number      61
_space_group_name_Hall           '-P 2ac 2ab'
loop_
_symmetry_equiv_pos_site_id
_symmetry_equiv_pos_as_xyz
1 x,y,z
2 1/2-x,-y,1/2+z
3 -x,1/2+y,1/2-z
4 1/2+x,1/2-y,-z
5 -x,-y,-z
6 1/2+x,y,1/2-z
7 x,1/2-y,1/2+z
8 1/2-x,1/2+y,z
_cell_length_a                   19.4112(7)
_cell_length_b                   11.9345(4)
_cell_length_c                   19.8507(7)
_cell_angle_alpha                90
_cell_angle_beta                 90
_cell_angle_gamma                90
_cell_volume                     4598.67
loop_
_atom_site_label
_atom_site_type_symbol
_atom_site_fract_x
_atom_site_fract_y
_atom_site_fract_z
Tb1 Tb -0.682535(6) 0.713897(9) 0.956795(5)
C1 C -0.56292(13) 0.6869(2) 0.83836(13)
C2 C -0.54954(12) 0.5806(2) 0.87802(12)
C3 C -0.50259(13) 0.5000(2) 0.85682(13)
H1 H -0.4744 0.5160 0.8202
C4 C -0.53692(13) 0.3856(2) 0.94095(13)
H2 H -0.5347 0.3174 0.9636
C5 C -0.58158(13) 0.4664(2) 0.96435(12)
H3 H -0.6073 0.4524 1.0030
C6 C -0.67064(12) 0.6164(2) 1.11121(12)
C7 C -0.67954(11) 0.7368(2) 1.12925(12)
C8 C -0.67807(14) 0.7786(2) 1.19445(14)
H4 H -0.6730 0.7280 1.2297
C9 C -0.69046(13) 0.9556(2) 1.15681(13)
H5 H -0.6933 1.0322 1.1647
C10 C -0.69358(12) 0.9173(2) 1.09117(13)
H6 H -0.7000 0.9684 1.0564
C11 C -0.74748(11) 0.95289(18) 0.90595(11)
C12 C -0.78595(12) 0.87892(19) 0.85725(11)
C13 C -0.83405(12) 0.9227(2) 0.81326(12)
H7 H -0.8397 1.0000 0.8111
C14 C -0.86152(14) 0.7477(2) 0.77810(12)
H8 H -0.8885 0.6990 0.7528
C15 C -0.81060(13) 0.7037(2) 0.81941(13)
H9 H -0.8029 0.6268 0.8191
N1 N -0.58874(10) 0.56459(17) 0.93263(10)
N2 N -0.49653(11) 0.40067(18) 0.88705(11)
N3 N -0.68757(10) 0.80885(17) 1.07680(11)
N4 N -0.68346(12) 0.88688(19) 1.20933(11)
N5 N -0.77237(10) 0.76851(16) 0.85955(10)
N6 N -0.87289(10) 0.85741(17) 0.77358(10)
O1 O -0.61569(8) 0.74352(14) 0.85821(8)
O2 O -0.52469(10) 0.70998(15) 0.79089(10)
O3 O -0.67509(9) 0.59306(14) 1.04939(8)
O4 O -0.66104(9) 0.54757(14) 1.15767(8)
O5 O -0.69886(8) 0.90767(13) 0.93849(8)
O6 O -0.76578(8) 1.05231(13) 0.91113(8)
O7 O -0.79861(10) 0.73032(18) 0.99730(11)
O8 O -0.57655(10) 0.79810(15) 0.99229(11)
H11 H -0.8279(16) 0.692(3) 0.9845(16)
H13 H -0.8132(16) 0.761(3) 1.0316(19)
H16 H -0.5436(16) 0.811(2) 0.9703(15)
H22 H -0.5666(19) 0.815(3) 1.0299(19)
Tb1G Tb -0.817465(6) 1.213897(9) 0.956795(5)
O6G O -0.73422(8) 0.55231(13) 0.91113(8)
O9 O -0.45775(10) 0.83096(17) 0.92418(11)
H17 H -0.4626(16) 0.868(3) 0.8939(17)
H18 H -0.4399(18) 0.865(3) 0.9526(18)
O10 O -0.84848(11) 0.82235(19) 1.11194(10)
H10 H -0.887(2) 0.801(3) 1.111(2)
H19 H -0.8516(18) 0.888(3) 1.1237(18)
O11 O -0.61439(10) 0.95456(16) 0.79371(11)
H15 H -0.6288(17) 0.954(3) 0.7576(18)
H20 H -0.6184(16) 0.893(3) 0.8096(17)
O12 O -0.51824(10) 0.84431(19) 1.11906(10)
H14 H -0.5169(18) 0.787(3) 1.1339(17)
H25 H -0.5266(18) 0.897(3) 1.1483(19)
O13 O -0.97224(12) 0.96082(16) 0.68727(10)
H21 H -0.946(2) 0.932(3) 0.7151(19)
H23 H -1.0075(19) 0.954(3) 0.6989(17)
O14 O -0.90159(11) 0.58348(18) 0.95724(10)
H12 H -0.9296(15) 0.597(2) 0.9289(15)
H24 H -0.8823(19) 0.532(3) 0.9488(17)
loop_
_geom_bond_atom_site_label_1
_geom_bond_atom_site_label_2
_geom_bond_site_symmetry_1
_geom_bond_site_symmetry_2
Tb1 N1 1_555 1_555
C1 C2 1_555 1_555
C2 C3 1_555 1_555
C3 H1 1_555 1_555
C4 H2 1_555 1_555
C5 C4 1_555 1_555
H3 C5 1_555 1_555
C6 C7 1_555 1_555
C7 C8 1_555 1_555
C8 H4 1_555 1_555
C9 H5 1_555 1_555
C10 C9 1_555 1_555
H6 C10 1_555 1_555
C11 C12 1_555 1_555
C12 C13 1_555 1_555
C13 H7 1_555 1_555
C14 H8 1_555 1_555
C15 C14 1_555 1_555
H9 C15 1_555 1_555
N1 C2 1_555 1_555
N2 C3 1_555 1_555
N3 Tb1 1_555 1_555
N4 C8 1_555 1_555
N5 Tb1 1_555 1_555
N6 C13 1_555 1_555
O1 Tb1 1_555 1_555
O2 C1 1_555 1_555
O3 Tb1 1_555 1_555
O4 C6 1_555 1_555
O5 Tb1 1_555 1_555
O6 C11 1_555 1_555
O7 Tb1 1_555 1_555
O8 Tb1 1_555 1_555
O9 H17 1_555 1_555
O10 H10 1_555 1_555
O11 H15 1_555 1_555
O12 H14 1_555 1_555
O13 H21 1_555 1_555
O14 H12 1_555 1_555
H11 O7 1_555 1_555
H13 O7 1_555 1_555
H16 O8 1_555 1_555
H18 O9 1_555 1_555
H19 O10 1_555 1_555
H20 O11 1_555 1_555
H22 O8 1_555 1_555
H23 O13 1_555 1_555
H24 O14 1_555 1_555
H25 O12 1_555 1_555
Tb1G O6 1_555 1_555
O6G Tb1 1_555 1_555
C1 O1 1_555 1_555
C4 N2 1_555 1_555
C5 N1 1_555 1_555
C6 O3 1_555 1_555
C7 N3 1_555 1_555
C9 N4 1_555 1_555
C10 N3 1_555 1_555
C11 O5 1_555 1_555
C12 N5 1_555 1_555
C14 N6 1_555 1_555
C15 N5 1_555 1_555

#END
