
#######################################################################
#
#                 Cambridge Crystallographic Data Centre
#                                CCDC 
#
#######################################################################
#
# If this CIF has been generated from an entry in the Cambridge 
# Structural Database, then it will include bibliographic, chemical, 
# crystal, experimental, refinement or atomic coordinate data resulting 
# from the CCDC's data processing and validation procedures.
#
#######################################################################

data_KADHII
_symmetry_cell_setting           monoclinic
_symmetry_space_group_name_H-M   'C 2/c'
_symmetry_Int_Tables_number      15
_space_group_name_Hall           '-C 2yn'
loop_
_symmetry_equiv_pos_site_id
_symmetry_equiv_pos_as_xyz
1 x,y,z
2 -x,y,1/2-z
3 1/2+x,1/2+y,z
4 1/2-x,1/2+y,1/2-z
5 -x,-y,-z
6 x,-y,1/2+z
7 1/2-x,1/2-y,-z
8 1/2+x,1/2-y,1/2+z
_cell_length_a                   13.3485(4)
_cell_length_b                   20.1294(6)
_cell_length_c                   17.5440(5)
_cell_angle_alpha                90
_cell_angle_beta                 91.0390(10)
_cell_angle_gamma                90
_cell_volume                     4713.25
loop_
_atom_site_label
_atom_site_type_symbol
_atom_site_fract_x
_atom_site_fract_y
_atom_site_fract_z
Ru1 Ru 0.0000 0.11215(2) 0.7500
Ru2 Ru -0.00755(3) 0.261040(19) 1.02083(2)
K1 K 0.0000 -0.20731(8) 0.7500
C1 C 0.1656(3) 0.2776(2) 0.9018(3)
H1 H 0.1965 0.3091 0.9351
C2 C 0.2078(4) 0.2643(3) 0.8323(3)
H2 H 0.2664 0.2872 0.8171
C3 C 0.1643(3) 0.2177(2) 0.7855(3)
H3 H 0.1934 0.2080 0.7377
C4 C 0.0433(3) 0.2020(2) 0.8743(2)
C5 C -0.0489(3) 0.1685(2) 0.8958(2)
C6 C -0.1778(3) 0.1575(3) 0.9781(3)
H4 H -0.2123 0.1710 1.0224
C7 C -0.2162(4) 0.1069(2) 0.9340(3)
H5 H -0.2760 0.0848 0.9481
C8 C -0.1667(3) 0.0887(2) 0.8688(3)
H6 H -0.1920 0.0533 0.8383
C9 C -0.0773(4) 0.3366(3) 0.9627(3)
C10 C 0.0842(4) 0.3266(3) 1.0696(3)
C11 C -0.1018(4) 0.2681(2) 1.1068(3)
C12 C 0.0650(4) 0.1862(3) 1.0781(3)
C13 C 0.2119(4) -0.0220(3) 0.8610(3)
H7 H 0.2703 -0.0206 0.8927
C14 C 0.1645(4) 0.0354(3) 0.8384(3)
H8 H 0.1907 0.0771 0.8543
C15 C 0.0460(3) -0.0273(2) 0.7736(3)
C16 C 0.1721(4) -0.0816(3) 0.8364(3)
H9 H 0.2050 -0.1217 0.8507
N1 N 0.0814(3) 0.2467(2) 0.9229(2)
N2 N 0.0810(3) 0.18551(18) 0.8064(2)
N3 N -0.0918(3) 0.1883(2) 0.9597(2)
N4 N -0.0826(3) 0.12059(19) 0.8481(2)
N5 N -0.1122(4) 0.3785(3) 0.9281(3)
N6 N 0.1405(4) 0.3644(3) 1.0952(3)
N7 N -0.1552(3) 0.2690(2) 1.1587(2)
N8 N 0.1044(3) 0.1446(2) 1.1107(3)
N9 N 0.0807(3) 0.03334(19) 0.7934(2)
N10 N 0.0885(3) -0.0849(2) 0.7930(2)
Ru2A Ru 0.00755(3) 0.261040(19) 0.47917(2)
Ru2D Ru 0.00755(3) -0.261040(19) 0.97917(2)
K1D K 0.0000 0.20731(8) 1.2500
C1A C -0.1656(3) 0.2776(2) 0.5982(3)
H1A H -0.1965 0.3091 0.5649
C2A C -0.2078(4) 0.2643(3) 0.6677(3)
H2A H -0.2664 0.2872 0.6829
C3A C -0.1643(3) 0.2177(2) 0.7145(3)
H3A H -0.1934 0.2080 0.7623
C4A C -0.0433(3) 0.2020(2) 0.6257(2)
C5A C 0.0489(3) 0.1685(2) 0.6042(2)
C6A C 0.1778(3) 0.1575(3) 0.5219(3)
H4A H 0.2123 0.1710 0.4776
C7A C 0.2162(4) 0.1069(2) 0.5660(3)
H5A H 0.2760 0.0848 0.5519
C8A C 0.1667(3) 0.0887(2) 0.6312(3)
H6A H 0.1920 0.0533 0.6617
C9A C 0.0773(4) 0.3366(3) 0.5373(3)
C10A C -0.0842(4) 0.3266(3) 0.4304(3)
C11D C 0.1018(4) -0.2681(2) 0.8932(3)
C11E C -0.1018(4) -0.2681(2) 0.6068(3)
C11A C 0.1018(4) 0.2681(2) 0.3932(3)
C12D C -0.0650(4) -0.1862(3) 0.9219(3)
C12E C 0.0650(4) -0.1862(3) 0.5781(3)
C12A C -0.0650(4) 0.1862(3) 0.4219(3)
C13A C -0.2119(4) -0.0220(3) 0.6390(3)
H7A H -0.2703 -0.0206 0.6073
C14A C -0.1645(4) 0.0354(3) 0.6616(3)
H8A H -0.1907 0.0771 0.6457
C15A C -0.0460(3) -0.0273(2) 0.7264(3)
C16A C -0.1721(4) -0.0816(3) 0.6636(3)
H9A H -0.2050 -0.1217 0.6493
N1A N -0.0814(3) 0.2467(2) 0.5771(2)
N2A N -0.0810(3) 0.18551(18) 0.6936(2)
N3A N 0.0918(3) 0.1883(2) 0.5403(2)
N4A N 0.0826(3) 0.12059(19) 0.6519(2)
N5A N 0.1122(4) 0.3785(3) 0.5719(3)
N6A N -0.1405(4) 0.3644(3) 0.4048(3)
N7D N 0.1552(3) -0.2690(2) 0.8413(2)
N7E N -0.1552(3) -0.2690(2) 0.6587(2)
N8D N -0.1044(3) -0.1446(2) 0.8893(3)
N8E N 0.1044(3) -0.1446(2) 0.6107(3)
N9A N -0.0807(3) 0.03334(19) 0.7066(2)
N10A N -0.0885(3) -0.0849(2) 0.7070(2)
O1 O 0.3305(8) -0.0339(4) 0.5238(5)
O2 O 0.6549(4) 0.1059(2) 0.7550(3)
O3 O 0.4049(6) -0.0980(5) 0.7647(4)
C17 C 0.430(2) -0.1617(19) 0.7797(11)
O5 O 0.2565(4) -0.0576(2) 0.6641(3)
O6 O 0.5000 0.0207(5) 0.7500
C18? C 0.4803(7) 0.0176(5) 0.9751(10)
O4? O 0.4972(15) 0.0116(8) 0.8954(15)
loop_
_geom_bond_atom_site_label_1
_geom_bond_atom_site_label_2
_geom_bond_site_symmetry_1
_geom_bond_site_symmetry_2
Ru1 N2 1_555 1_555
Ru2 C9 1_555 1_555
K1 N10 1_555 1_555
C1 H1 1_555 1_555
C2 C1 1_555 1_555
H2 C2 1_555 1_555
C3 C2 1_555 1_555
H3 C3 1_555 1_555
C4 C5 1_555 1_555
C5 N3 1_555 1_555
C6 H4 1_555 1_555
C7 C6 1_555 1_555
H5 C7 1_555 1_555
C8 C7 1_555 1_555
H6 C8 1_555 1_555
C9 N5 1_555 1_555
C10 Ru2 1_555 1_555
C11 Ru2 1_555 1_555
C12 Ru2 1_555 1_555
C13 H7 1_555 1_555
C14 C13 1_555 1_555
H8 C14 1_555 1_555
C15 N9 1_555 1_555
C16 C13 1_555 1_555
H9 C16 1_555 1_555
N1 Ru2 1_555 1_555
N2 C3 1_555 1_555
N3 Ru2 1_555 1_555
N4 Ru1 1_555 1_555
N6 C10 1_555 1_555
N7 C11 1_555 1_555
N8 C12 1_555 1_555
N9 Ru1 1_555 1_555
N10 C15 1_555 1_555
O3 C17 1_555 1_555
Ru2A C9A 1_555 1_555
Ru2D C11D 1_555 1_555
K1D C11 1_555 1_555
C1A H1A 1_555 1_555
C2A C1A 1_555 1_555
H2A C2A 1_555 1_555
C3A C2A 1_555 1_555
H3A C3A 1_555 1_555
C4A C5A 1_555 1_555
C5A N3A 1_555 1_555
C6A H4A 1_555 1_555
C7A C6A 1_555 1_555
H5A C7A 1_555 1_555
C8A C7A 1_555 1_555
H6A C8A 1_555 1_555
C9A N5A 1_555 1_555
C10A Ru2A 1_555 1_555
C11D K1 1_555 1_555
C11E K1 1_555 1_555
C11A Ru2A 1_555 1_555
C12D K1 1_555 1_555
C12E K1 1_555 1_555
C12A Ru2A 1_555 1_555
C13A H7A 1_555 1_555
C14A C13A 1_555 1_555
H8A C14A 1_555 1_555
C15A C15 1_555 1_555
C16A C13A 1_555 1_555
H9A C16A 1_555 1_555
N1A Ru2A 1_555 1_555
N2A Ru1 1_555 1_555
N3A Ru2A 1_555 1_555
N4A Ru1 1_555 1_555
N6A C10A 1_555 1_555
N7D K1 1_555 1_555
N7E K1 1_555 1_555
N8D K1 1_555 1_555
N8E K1 1_555 1_555
N9A Ru1 1_555 1_555
N10A K1 1_555 1_555
C1 N1 1_555 1_555
C4 N1 1_555 1_555
C4 N2 1_555 1_555
C5 N4 1_555 1_555
C6 N3 1_555 1_555
C8 N4 1_555 1_555
C12 K1D 1_555 1_555
C14 N9 1_555 1_555
C16 N10 1_555 1_555
N7 K1D 1_555 1_555
N8 K1D 1_555 1_555
Ru2D C12D 1_555 1_555
C1A N1A 1_555 1_555
C3A N2A 1_555 1_555
C4A N1A 1_555 1_555
C4A N2A 1_555 1_555
C5A N4A 1_555 1_555
C6A N3A 1_555 1_555
C8A N4A 1_555 1_555
C11D N7D 1_555 1_555
C11E N7E 1_555 1_555
C12D N8D 1_555 1_555
C12E N8E 1_555 1_555
C14A N9A 1_555 1_555
C15A N9A 1_555 1_555
C15A N10A 1_555 1_555
C16A N10A 1_555 1_555

#END
