
#######################################################################
#
#                 Cambridge Crystallographic Data Centre
#                                CCDC 
#
#######################################################################
#
# If this CIF has been generated from an entry in the Cambridge 
# Structural Database, then it will include bibliographic, chemical, 
# crystal, experimental, refinement or atomic coordinate data resulting 
# from the CCDC's data processing and validation procedures.
#
#######################################################################

data_KADHOO
_symmetry_cell_setting           monoclinic
_symmetry_space_group_name_H-M   'C 2/c'
_symmetry_Int_Tables_number      15
_space_group_name_Hall           '-C 2yn'
loop_
_symmetry_equiv_pos_site_id
_symmetry_equiv_pos_as_xyz
1 x,y,z
2 -x,y,1/2-z
3 1/2+x,1/2+y,z
4 1/2-x,1/2+y,1/2-z
5 -x,-y,-z
6 x,-y,1/2+z
7 1/2-x,1/2-y,-z
8 1/2+x,1/2-y,1/2+z
_cell_length_a                   29.931(5)
_cell_length_b                   9.5639(14)
_cell_length_c                   14.227(2)
_cell_angle_alpha                90
_cell_angle_beta                 109.978(2)
_cell_angle_gamma                90
_cell_volume                     3827.51
loop_
_atom_site_label
_atom_site_type_symbol
_atom_site_fract_x
_atom_site_fract_y
_atom_site_fract_z
Zn1 Zn 0.2500 0.2500 0.0000
N1 N 0.21287(9) 0.1571(2) 0.08203(18)
N2 N 0.19249(9) 0.2231(2) -0.13030(18)
N3 N 0.00244(10) 0.1155(3) -0.1286(2)
N4 N 0.28258(9) -0.0351(3) 0.48043(19)
C1 C 0.22780(11) 0.1408(3) 0.1840(2)
C2 C 0.18863(11) 0.0891(3) 0.2123(2)
H1 H 0.1893 0.0696 0.2782
C3 C 0.15088(11) 0.0741(3) 0.1266(2)
H2 H 0.1202 0.0410 0.1211
C4 C 0.16620(11) 0.1179(3) 0.0452(2)
C5 C 0.13622(10) 0.1226(3) -0.0561(2)
C6 C 0.14844(11) 0.1765(3) -0.1365(2)
C7 C 0.11573(11) 0.1921(3) -0.2378(2)
H3 H 0.0831 0.1663 -0.2619
C8 C 0.14048(10) 0.2504(3) -0.2915(2)
H4 H 0.1285 0.2745 -0.3604
C9 C 0.18882(10) 0.2691(3) -0.2237(2)
C10 C 0.27392(11) 0.1728(3) 0.2505(2)
C11 C 0.08669(11) 0.0678(3) -0.0795(2)
C12 C 0.04748(12) 0.1570(4) -0.1063(2)
H5 H 0.0532 0.2543 -0.1089
C13 C 0.07740(12) -0.0742(3) -0.0757(2)
H6 H 0.1029 -0.1395 -0.0575
C14 C 0.03124(12) -0.1201(4) -0.0985(3)
H7 H 0.0245 -0.2168 -0.0960
C15 C -0.00468(12) -0.0231(4) -0.1249(3)
H8 H -0.0364 -0.0556 -0.1415
C16 C 0.28400(10) 0.1390(3) 0.3582(2)
C17 C 0.27672(11) 0.0039(3) 0.3869(2)
H9 H 0.2669 -0.0654 0.3362
C18 C 0.29997(10) 0.2390(3) 0.4339(2)
H10 H 0.3054 0.3328 0.4186
C19 C 0.30776(11) 0.1985(3) 0.5317(2)
H11 H 0.3195 0.2641 0.5846
C20 C 0.29842(11) 0.0625(3) 0.5522(2)
H12 H 0.3034 0.0370 0.6195
Zn1C Zn 0.2500 -0.2500 0.5000
Zn1C_2 Zn 0.2500 0.7500 -0.5000
N1F N 0.28713(9) 0.3429(2) -0.08203(18)
N2F N 0.30751(9) 0.2769(2) 0.13030(18)
N3F N 0.49756(10) 0.3845(3) 0.1286(2)
N4F N 0.21742(9) 0.5351(3) -0.48043(19)
N4C N 0.21742(9) 0.4649(3) 0.01957(19)
N4E N 0.28258(9) 0.0351(3) -0.01957(19)
C1F C 0.27220(11) 0.3592(3) -0.1840(2)
C2F C 0.31137(11) 0.4109(3) -0.2123(2)
H1F H 0.3107 0.4304 -0.2782
C3F C 0.34912(11) 0.4259(3) -0.1266(2)
H2F H 0.3798 0.4590 -0.1211
C4F C 0.33380(11) 0.3821(3) -0.0452(2)
C5F C 0.36378(10) 0.3774(3) 0.0561(2)
C6F C 0.35156(11) 0.3235(3) 0.1365(2)
C7F C 0.38427(11) 0.3079(3) 0.2378(2)
H3F H 0.4169 0.3337 0.2619
C8F C 0.35952(10) 0.2496(3) 0.2915(2)
H4F H 0.3715 0.2255 0.3604
C9F C 0.31118(10) 0.2309(3) 0.2237(2)
C10F C 0.22608(11) 0.3272(3) -0.2505(2)
C11F C 0.41331(11) 0.4322(3) 0.0795(2)
C12F C 0.45252(12) 0.3430(4) 0.1063(2)
H5F H 0.4468 0.2457 0.1089
C13F C 0.42260(12) 0.5742(3) 0.0757(2)
H6F H 0.3971 0.6395 0.0575
C14F C 0.46876(12) 0.6201(4) 0.0985(3)
H7F H 0.4755 0.7168 0.0960
C15F C 0.50468(12) 0.5231(4) 0.1249(3)
H8F H 0.5364 0.5556 0.1415
C16F C 0.21600(10) 0.3610(3) -0.3582(2)
C17F C 0.22328(11) 0.4961(3) -0.3869(2)
H9F H 0.2331 0.5654 -0.3362
C18F C 0.20003(10) 0.2610(3) -0.4339(2)
H10F H 0.1946 0.1672 -0.4186
C19F C 0.19224(11) 0.3015(3) -0.5317(2)
H11F H 0.1805 0.2359 -0.5846
C20F C 0.20158(11) 0.4375(3) -0.5522(2)
H12F H 0.1966 0.4630 -0.6195
O1 O 0.0823(4) 0.5363(13) -0.0072(7)
C21 C 0.0936(3) 0.4591(9) 0.0652(6)
H13 H 0.1191 0.3959 0.0731
N5 N 0.0717(4) 0.4573(14) 0.1372(8)
C22 C 0.0330(3) 0.5541(8) 0.1294(7)
H14 H 0.0305 0.6223 0.0764
H15 H 0.0395 0.6031 0.1931
H16 H 0.0031 0.5022 0.1133
C23 C 0.0894(3) 0.3693(9) 0.2265(7)
H17 H 0.1170 0.3161 0.2245
H18 H 0.0644 0.3045 0.2284
H19 H 0.0987 0.4284 0.2863
C24? C 0.0502(3) 0.5704(8) 0.0486(6)
C25? C 0.1002(4) 0.3747(10) 0.1406(9)
C26? C 0.0454(4) 0.5006(10) 0.2128(7)
H20? H 0.0279 0.6418 0.0471
H21? H 0.0874 0.2843 0.1515
H22? H 0.1292 0.3953 0.1971
H23? H 0.1077 0.3711 0.0788
H24? H 0.0260 0.5856 0.2008
H25? H 0.0713 0.5082 0.2772
H26? H 0.0256 0.4195 0.2140
N6? N 0.0654(5) 0.4830(13) 0.1324(8)
O2? O 0.0639(4) 0.5603(16) -0.0228(8)
loop_
_geom_bond_atom_site_label_1
_geom_bond_atom_site_label_2
_geom_bond_site_symmetry_1
_geom_bond_site_symmetry_2
Zn1 N1 1_555 1_555
N1 C1 1_555 1_555
N2 Zn1 1_555 1_555
N3 C12 1_555 1_555
N4 C17 1_555 1_555
C1 C2 1_555 1_555
C2 H1 1_555 1_555
C3 C2 1_555 1_555
H2 C3 1_555 1_555
C4 N1 1_555 1_555
C5 C4 1_555 1_555
C6 N2 1_555 1_555
C7 C6 1_555 1_555
H3 C7 1_555 1_555
C8 C7 1_555 1_555
H4 C8 1_555 1_555
C9 N2 1_555 1_555
C10 C1 1_555 1_555
C11 C5 1_555 1_555
C12 C11 1_555 1_555
H5 C12 1_555 1_555
C13 C11 1_555 1_555
H6 C13 1_555 1_555
C14 C13 1_555 1_555
H7 C14 1_555 1_555
C15 N3 1_555 1_555
H8 C15 1_555 1_555
C16 C10 1_555 1_555
C17 C16 1_555 1_555
H9 C17 1_555 1_555
C18 C16 1_555 1_555
H10 C18 1_555 1_555
C19 C18 1_555 1_555
H11 C19 1_555 1_555
C20 N4 1_555 1_555
H12 C20 1_555 1_555
O1 C21 1_555 1_555
C21 H13 1_555 1_555
N5 C21 1_555 1_555
C22 N5 1_555 1_555
H14 C22 1_555 1_555
H15 C22 1_555 1_555
H16 C22 1_555 1_555
C23 N5 1_555 1_555
H17 C23 1_555 1_555
H18 C23 1_555 1_555
H19 C23 1_555 1_555
Zn1C N4 1_555 1_555
Zn1C_2 N4F 1_555 1_555
N1F Zn1 1_555 1_555
N2F Zn1 1_555 1_555
N3F C12F 1_555 1_555
N4F C17F 1_555 1_555
N4C Zn1 1_555 1_555
N4E Zn1 1_555 1_555
C1F N1F 1_555 1_555
C2F C1F 1_555 1_555
H1F C2F 1_555 1_555
C3F C2F 1_555 1_555
H2F C3F 1_555 1_555
C4F N1F 1_555 1_555
C5F C4F 1_555 1_555
C6F N2F 1_555 1_555
C7F C6F 1_555 1_555
H3F C7F 1_555 1_555
C8F C7F 1_555 1_555
H4F C8F 1_555 1_555
C9F C10 1_555 1_555
C10F C9 1_555 1_555
C11F C5F 1_555 1_555
C12F C11F 1_555 1_555
H5F C12F 1_555 1_555
C13F C11F 1_555 1_555
H6F C13F 1_555 1_555
C14F C13F 1_555 1_555
H7F C14F 1_555 1_555
C15F N3F 1_555 1_555
H8F C15F 1_555 1_555
C16F C10F 1_555 1_555
C17F C16F 1_555 1_555
H9F C17F 1_555 1_555
C18F C16F 1_555 1_555
H10F C18F 1_555 1_555
C19F C18F 1_555 1_555
H11F C19F 1_555 1_555
C20F N4F 1_555 1_555
H12F C20F 1_555 1_555
C3 C4 1_555 1_555
C5 C6 1_555 1_555
C8 C9 1_555 1_555
C14 C15 1_555 1_555
C19 C20 1_555 1_555
N2F C9F 1_555 1_555
C1F C10F 1_555 1_555
C3F C4F 1_555 1_555
C5F C6F 1_555 1_555
C8F C9F 1_555 1_555
C14F C15F 1_555 1_555
C19F C20F 1_555 1_555

#END
