
#######################################################################
#
#                 Cambridge Crystallographic Data Centre
#                                CCDC 
#
#######################################################################
#
# If this CIF has been generated from an entry in the Cambridge 
# Structural Database, then it will include bibliographic, chemical, 
# crystal, experimental, refinement or atomic coordinate data resulting 
# from the CCDC's data processing and validation procedures.
#
#######################################################################

data_KADHUU
_symmetry_cell_setting           monoclinic
_symmetry_space_group_name_H-M   'P 21/c'
_symmetry_Int_Tables_number      14
_space_group_name_Hall           '-P 2ybc'
loop_
_symmetry_equiv_pos_site_id
_symmetry_equiv_pos_as_xyz
1 x,y,z
2 -x,1/2+y,1/2-z
3 -x,-y,-z
4 x,1/2-y,1/2+z
_cell_length_a                   12.6794(13)
_cell_length_b                   13.2537(11)
_cell_length_c                   13.7316(12)
_cell_angle_alpha                90
_cell_angle_beta                 94.818(5)
_cell_angle_gamma                90
_cell_volume                     2299.43
loop_
_atom_site_label
_atom_site_type_symbol
_atom_site_fract_x
_atom_site_fract_y
_atom_site_fract_z
Mn1 Mn 0.43023(6) 0.60238(5) 0.01444(5)
Mn2 Mn 0.46172(6) 0.98813(5) 0.11021(5)
Mn3 Mn 0.49800(6) 0.74196(5) -0.23693(5)
As1 As 0.55587(4) 0.78255(3) 0.01494(3)
As2 As 0.38600(4) 0.48792(3) -0.20197(3)
S1 S 0.71343(10) 0.90465(9) 0.19945(8)
S2 S 0.18275(12) 0.64023(11) -0.10858(12)
C1 C 0.7069(4) 0.7766(3) 0.0390(3)
C2 C 0.7694(4) 0.8336(4) 0.1076(4)
C3 C 0.8774(5) 0.8263(5) 0.1123(5)
H1 H 0.9189 0.8656 0.1566
C4 C 0.9253(5) 0.7597(6) 0.0504(5)
H2 H 0.9986 0.7554 0.0527
C5 C 0.8633(6) 0.7007(6) -0.0137(5)
H3 H 0.8950 0.6538 -0.0523
C6 C 0.7556(5) 0.7103(4) -0.0211(4)
H4 H 0.7147 0.6722 -0.0669
C7 C 0.2342(4) 0.4667(4) -0.2122(4)
C8 C 0.1572(4) 0.5273(4) -0.1739(4)
C9 C 0.0507(5) 0.5018(5) -0.1902(5)
H5 H 0.0000 0.5419 -0.1639
C10 C 0.0195(5) 0.4192(5) -0.2440(6)
H6 H -0.0520 0.4034 -0.2549
C11 C 0.0946(5) 0.3594(5) -0.2821(5)
H7 H 0.0736 0.3028 -0.3188
C12 C 0.2005(4) 0.3826(4) -0.2664(4)
H8 H 0.2503 0.3413 -0.2926
O1 O 0.5217(3) 0.7073(2) -0.0805(2)
O2 O 0.4884(3) 0.7341(2) 0.1042(2)
O3 O 0.5146(3) 0.9006(2) -0.0060(2)
O4 O 0.6469(3) 0.9831(3) 0.1508(3)
O5 O 0.7982(3) 0.9451(3) 0.2628(3)
O6 O 0.6495(3) 0.8329(3) 0.2482(3)
O7 O 0.4354(3) 0.3987(2) -0.2738(2)
O8 O 0.4399(3) 0.4814(2) -0.0859(2)
O9 O 0.4203(3) 0.5933(2) -0.2608(2)
O10 O 0.1414(5) 0.7196(3) -0.1721(5)
O11 O 0.1324(4) 0.6311(5) -0.0196(4)
O12 O 0.2974(3) 0.6486(2) -0.0911(3)
O13 O 0.3077(5) 0.5595(4) 0.1021(4)
H9 H 0.2858 0.5011 0.0845
H10 H 0.2570 0.6014 0.0941
O14 O 0.2974(3) 0.9671(3) 0.0539(3)
H11 H 0.2921 0.9742 -0.0078
H12 H 0.2772 0.9082 0.0683
O15 O 0.3451(3) 0.8132(3) -0.2205(3)
H13 H 0.3324 0.8120 -0.1607
H14 H 0.3467 0.8740 -0.2400
Mn1B Mn 0.56977(6) 0.39762(5) -0.01444(5)
Mn2B Mn 0.53828(6) 1.01187(5) -0.11021(5)
Mn2C Mn 0.46172(6) 0.51187(5) -0.38979(5)
Mn3C Mn 0.49800(6) 0.75804(5) 0.26307(5)
Mn3A Mn 0.50200(6) 0.24196(5) -0.26307(5)
O2C O 0.4884(3) 0.7659(2) -0.3958(2)
O3B O 0.4854(3) 1.0994(2) 0.0060(2)
O6C O 0.6495(3) 0.6671(3) -0.2518(3)
O7C O 0.4354(3) 1.1013(2) 0.2262(2)
O7A O 0.5646(3) 0.8987(2) -0.2262(2)
O8B O 0.5601(3) 0.5186(2) 0.0859(2)
O9C O 0.4203(3) 0.9067(2) 0.2392(2)
O16 O 0.1927(5) 0.8063(5) 0.1174(5)
H15 H 0.1756 0.7578 0.0789
H16 H 0.1620 0.7995 0.1697
loop_
_geom_bond_atom_site_label_1
_geom_bond_atom_site_label_2
_geom_bond_site_symmetry_1
_geom_bond_site_symmetry_2
Mn1 O1 1_555 1_555
Mn2 O3 1_555 1_555
Mn3 O1 1_555 1_555
As1 C1 1_555 1_555
As2 C7 1_555 1_555
S1 C2 1_555 1_555
S2 C8 1_555 1_555
C1 C2 1_555 1_555
C2 C3 1_555 1_555
C3 H1 1_555 1_555
C4 C3 1_555 1_555
H2 C4 1_555 1_555
C5 C4 1_555 1_555
H3 C5 1_555 1_555
C6 C1 1_555 1_555
H4 C6 1_555 1_555
C7 C8 1_555 1_555
C8 C9 1_555 1_555
C9 H5 1_555 1_555
C10 C9 1_555 1_555
H6 C10 1_555 1_555
C11 C10 1_555 1_555
H7 C11 1_555 1_555
C12 C7 1_555 1_555
H8 C12 1_555 1_555
O1 As1 1_555 1_555
O2 Mn1 1_555 1_555
O3 As1 1_555 1_555
O4 Mn2 1_555 1_555
O5 S1 1_555 1_555
O6 S1 1_555 1_555
O7 As2 1_555 1_555
O8 Mn1 1_555 1_555
O9 Mn3 1_555 1_555
O10 S2 1_555 1_555
O11 S2 1_555 1_555
O12 Mn1 1_555 1_555
O13 Mn1 1_555 1_555
H9 O13 1_555 1_555
H10 O13 1_555 1_555
O14 Mn2 1_555 1_555
H11 O14 1_555 1_555
H12 O14 1_555 1_555
O15 Mn3 1_555 1_555
H13 O15 1_555 1_555
H14 O15 1_555 1_555
O16 H15 1_555 1_555
H16 O16 1_555 1_555
Mn1B O8 1_555 1_555
Mn2B O3 1_555 1_555
Mn2C O7 1_555 1_555
Mn3C O2 1_555 1_555
Mn3A O7 1_555 1_555
O2C Mn3 1_555 1_555
O3B Mn2 1_555 1_555
O6C Mn3 1_555 1_555
O7C Mn2 1_555 1_555
O7A Mn3 1_555 1_555
O8B Mn1 1_555 1_555
O9C Mn2 1_555 1_555
As1 O2 1_555 1_555
As2 O8 1_555 1_555
As2 O9 1_555 1_555
S1 O4 1_555 1_555
S2 O12 1_555 1_555
C5 C6 1_555 1_555
C11 C12 1_555 1_555
O6 Mn3C 1_555 1_555
O9 Mn2C 1_555 1_555
Mn1B O8B 1_555 1_555
Mn2B O3B 1_555 1_555
Mn2B O7A 1_555 1_555
Mn3C O9C 1_555 1_555

#END
