
#######################################################################
#
#                 Cambridge Crystallographic Data Centre
#                                CCDC 
#
#######################################################################
#
# If this CIF has been generated from an entry in the Cambridge 
# Structural Database, then it will include bibliographic, chemical, 
# crystal, experimental, refinement or atomic coordinate data resulting 
# from the CCDC's data processing and validation procedures.
#
#######################################################################

data_KADHAA01
_symmetry_cell_setting           monoclinic
_symmetry_space_group_name_H-M   'C 2'
_symmetry_Int_Tables_number      5
_space_group_name_Hall           'C 2y'
loop_
_symmetry_equiv_pos_site_id
_symmetry_equiv_pos_as_xyz
1 x,y,z
2 -x,y,-z
3 1/2+x,1/2+y,z
4 1/2-x,1/2+y,-z
_cell_length_a                   18.2053(6)
_cell_length_b                   11.5122(4)
_cell_length_c                   18.6193(7)
_cell_angle_alpha                90
_cell_angle_beta                 93.015(2)
_cell_angle_gamma                90
_cell_volume                     3896.89
loop_
_atom_site_label
_atom_site_type_symbol
_atom_site_fract_x
_atom_site_fract_y
_atom_site_fract_z
Cd1 Cd 0.78122(2) 0.75196(3) 0.21976(2)
Cd2 Cd 0.81301(2) 0.68861(3) 0.71977(2)
O1 O 0.6734(2) 0.6179(4) -0.1962(2)
O2 O 0.84576(19) 0.5152(3) 0.7794(2)
H1 H 0.8134 0.4819 0.8035
H2 H 0.8449 0.4570 0.7512
O3 O 0.8163(2) 0.9236(3) 0.2805(2)
H3 H 0.7945 0.9490 0.3167
H4 H 0.8145 0.9749 0.2477
O4 O 0.7297(2) 0.8769(3) 0.1254(2)
O5 O 0.6424(2) 0.8278(4) 0.3124(2)
O6 O 0.70347(18) 0.6900(5) 0.12567(19)
O7 O 0.72946(18) 0.7558(4) 0.63331(19)
O8 O 0.7272(2) 0.6868(4) 0.31407(19)
O9 O 0.75971(19) 0.7550(4) -0.18707(18)
O10 O 0.7524(2) 0.5683(3) 0.6244(2)
N1 N 0.8916(2) 0.7760(4) 0.1596(2)
N2 N 0.8572(3) 0.5853(4) 0.2324(3)
N3 N 0.8875(2) 0.8602(4) 0.7339(2)
N4 N 0.9231(2) 0.6662(4) 0.6643(3)
C1 C 0.9426(3) 0.6923(7) 0.1633(3)
C2 C 0.9731(3) 0.7548(6) 0.6655(3)
C3 C 0.6443(3) 0.6910(6) 0.4094(3)
H5 H 0.5924 0.7126 0.4110
C4 C 0.6725(3) 0.7404(6) 0.3391(3)
C5 C 0.9539(3) 0.8591(5) 0.7067(3)
C6 C 0.6998(3) 0.7878(5) 0.0957(3)
C7 C 0.7005(3) 0.7064(6) -0.1675(3)
C8 C 0.7192(3) 0.6589(6) 0.6021(3)
C9 C 1.0519(4) 0.6379(7) 0.5949(4)
H6 H 1.0953 0.6281 0.5714
C10 C 0.7156(3) 0.7965(4) -0.0400(3)
C11 C 1.0035(3) 0.9506(5) 0.7151(3)
H7 H 1.0494 0.9472 0.6955
C12 C 0.6849(3) 0.7420(5) 0.4782(3)
C13 C 1.0086(3) 0.7044(7) 0.1303(3)
H8 H 1.0434 0.6451 0.1336
C14 C 0.7719(3) 0.6985(6) -0.0256(3)
H9 H 0.8030 0.7173 0.0161
H10 H 0.8015 0.6899 -0.0665
H11 H 0.7465 0.6270 -0.0174
C15 C 0.9236(3) 0.5851(5) 0.2030(3)
C16 C 0.6612(4) 0.5361(6) 0.4988(3)
H12 H 0.6215 0.4890 0.5159
H13 H 0.7072 0.4950 0.5085
C17 C 0.9377(3) 0.5681(6) 0.6299(3)
H14 H 0.9033 0.5084 0.6295
C18 C 0.8696(3) 0.9542(6) 0.7706(3)
H15 H 0.8238 0.9550 0.7904
C19 C 0.9060(3) 0.8735(6) 0.1244(3)
H16 H 0.8706 0.9319 0.1221
C20 C 0.6634(3) 0.6544(4) 0.5373(3)
C21 C 0.6590(3) 0.8019(5) 0.0223(3)
C22 C 0.9134(3) 1.0502(5) 0.7816(3)
H17 H 0.8976 1.1145 0.8068
C23 C 0.9826(3) 1.0469(6) 0.7533(3)
H18 H 1.0147 1.1092 0.7602
C24 C 1.0013(4) 0.5518(6) 0.5951(3)
H19 H 1.0097 0.4819 0.5719
C25 C 0.6624(3) 0.8674(5) 0.4915(3)
H20 H 0.6889 0.8962 0.5338
H21 H 0.6105 0.8706 0.4984
H22 H 0.6736 0.9142 0.4509
C26 C 0.9505(4) 0.3952(6) 0.2496(3)
H23 H 0.9819 0.3318 0.2553
C27 C 0.8389(3) 0.4905(5) 0.2692(3)
H24 H 0.7934 0.4904 0.2897
C28 C 0.9708(3) 0.4911(6) 0.2121(3)
H25 H 1.0167 0.4933 0.1925
C29 C 0.7576(3) 0.9090(5) -0.0471(3)
H26 H 0.7883 0.9217 -0.0043
H27 H 0.7235 0.9722 -0.0536
H28 H 0.7876 0.9044 -0.0879
C30 C 1.0228(3) 0.8031(6) 0.0929(3)
H29 H 1.0661 0.8108 0.0690
C31 C 0.9712(3) 0.8919(5) 0.0914(3)
H30 H 0.9803 0.9620 0.0687
C32 C 0.6489(3) 0.5590(5) 0.4175(3)
H31 H 0.6895 0.5283 0.3916
H32 H 0.6037 0.5228 0.3990
C33 C 0.8820(4) 0.3942(6) 0.2789(3)
H33 H 0.8660 0.3301 0.3043
C34 C 1.0381(3) 0.7405(7) 0.6300(3)
H34 H 1.0723 0.8004 0.6301
C35 C 0.7691(3) 0.7375(5) 0.4708(3)
H35 H 0.7936 0.7696 0.5132
H36 H 0.7817 0.7819 0.4296
H37 H 0.7842 0.6583 0.4650
C36 C 0.6150(3) 0.9140(5) 0.0204(3)
H38 H 0.5813 0.9134 0.0584
H39 H 0.5880 0.9206 -0.0251
H40 H 0.6479 0.9788 0.0268
C37 C 0.5966(3) 0.7035(5) -0.0794(3)
H41 H 0.5932 0.6257 -0.0992
H42 H 0.5517 0.7451 -0.0931
C38 C 0.5874(3) 0.6804(7) 0.5672(3)
H43 H 0.5889 0.7545 0.5908
H44 H 0.5757 0.6211 0.6010
H45 H 0.5506 0.6816 0.5283
C39 C 0.6635(3) 0.7671(5) -0.1068(3)
H46 H 0.6454 0.8415 -0.1262
C40 C 0.6084(3) 0.6990(6) 0.0030(3)
H47 H 0.5619 0.7066 0.0258
H48 H 0.6313 0.6263 0.0182
Cd2_2 Cd 0.81301(2) 0.68861(3) -0.28023(2)
O9_2 O 0.75971(19) 0.7550(4) 0.81293(18)
loop_
_geom_bond_atom_site_label_1
_geom_bond_atom_site_label_2
_geom_bond_site_symmetry_1
_geom_bond_site_symmetry_2
Cd1 O3 1_555 1_555
Cd2 O2 1_555 1_555
O1 C7 1_555 1_555
O2 H1 1_555 1_555
H2 O2 1_555 1_555
O3 H3 1_555 1_555
H4 O3 1_555 1_555
O4 Cd1 1_555 1_555
O5 C4 1_555 1_555
O6 Cd1 1_555 1_555
O7 Cd2 1_555 1_555
O8 Cd1 1_555 1_555
O9 C7 1_555 1_555
O10 Cd2 1_555 1_555
N1 Cd1 1_555 1_555
N2 Cd1 1_555 1_555
N3 Cd2 1_555 1_555
N4 Cd2 1_555 1_555
C1 N1 1_555 1_555
C2 N4 1_555 1_555
C3 H5 1_555 1_555
C4 O8 1_555 1_555
C5 N3 1_555 1_555
C6 O4 1_555 1_555
C7 C39 1_555 1_555
C8 O7 1_555 1_555
C9 H6 1_555 1_555
C10 C14 1_555 1_555
C11 C5 1_555 1_555
H7 C11 1_555 1_555
C12 C3 1_555 1_555
C13 C1 1_555 1_555
H8 C13 1_555 1_555
C14 H9 1_555 1_555
H10 C14 1_555 1_555
H11 C14 1_555 1_555
C15 N2 1_555 1_555
C16 H12 1_555 1_555
H13 C16 1_555 1_555
C17 N4 1_555 1_555
H14 C17 1_555 1_555
C18 N3 1_555 1_555
H15 C18 1_555 1_555
C19 N1 1_555 1_555
H16 C19 1_555 1_555
C20 C8 1_555 1_555
C21 C6 1_555 1_555
C22 C18 1_555 1_555
H17 C22 1_555 1_555
C23 C11 1_555 1_555
H18 C23 1_555 1_555
C24 C9 1_555 1_555
H19 C24 1_555 1_555
C25 C12 1_555 1_555
H20 C25 1_555 1_555
H21 C25 1_555 1_555
H22 C25 1_555 1_555
C26 H23 1_555 1_555
C27 N2 1_555 1_555
H24 C27 1_555 1_555
C28 C15 1_555 1_555
H25 C28 1_555 1_555
C29 C10 1_555 1_555
H26 C29 1_555 1_555
H27 C29 1_555 1_555
H28 C29 1_555 1_555
C30 C13 1_555 1_555
H29 C30 1_555 1_555
C31 C19 1_555 1_555
H30 C31 1_555 1_555
C32 C3 1_555 1_555
H31 C32 1_555 1_555
H32 C32 1_555 1_555
C33 C26 1_555 1_555
H33 C33 1_555 1_555
C34 C2 1_555 1_555
H34 C34 1_555 1_555
C35 C12 1_555 1_555
H35 C35 1_555 1_555
H36 C35 1_555 1_555
H37 C35 1_555 1_555
C36 C21 1_555 1_555
H38 C36 1_555 1_555
H39 C36 1_555 1_555
H40 C36 1_555 1_555
C37 H41 1_555 1_555
H42 C37 1_555 1_555
C38 C20 1_555 1_555
H43 C38 1_555 1_555
H44 C38 1_555 1_555
H45 C38 1_555 1_555
C39 C10 1_555 1_555
H46 C39 1_555 1_555
C40 C21 1_555 1_555
H47 C40 1_555 1_555
H48 C40 1_555 1_555
Cd2_2 O9 1_555 1_555
O9_2 Cd2 1_555 1_555
O6 C6 1_555 1_555
O10 C8 1_555 1_555
C1 C15 1_555 1_555
C2 C5 1_555 1_555
C3 C4 1_555 1_555
C9 C34 1_555 1_555
C10 C21 1_555 1_555
C12 C20 1_555 1_555
C16 C20 1_555 1_555
C16 C32 1_555 1_555
C17 C24 1_555 1_555
C22 C23 1_555 1_555
C26 C28 1_555 1_555
C27 C33 1_555 1_555
C30 C31 1_555 1_555
C37 C39 1_555 1_555
C37 C40 1_555 1_555

#END
