
#######################################################################
#
#                 Cambridge Crystallographic Data Centre
#                                CCDC 
#
#######################################################################
#
# If this CIF has been generated from an entry in the Cambridge 
# Structural Database, then it will include bibliographic, chemical, 
# crystal, experimental, refinement or atomic coordinate data resulting 
# from the CCDC's data processing and validation procedures.
#
#######################################################################

data_KADHEE
_symmetry_cell_setting           monoclinic
_symmetry_space_group_name_H-M   'C 2'
_symmetry_Int_Tables_number      5
_space_group_name_Hall           'C 2y'
loop_
_symmetry_equiv_pos_site_id
_symmetry_equiv_pos_as_xyz
1 x,y,z
2 -x,y,-z
3 1/2+x,1/2+y,z
4 1/2-x,1/2+y,-z
_cell_length_a                   17.934(4)
_cell_length_b                   13.009(3)
_cell_length_c                   17.508(4)
_cell_angle_alpha                90
_cell_angle_beta                 92.28(3)
_cell_angle_gamma                90
_cell_volume                     4081.44
loop_
_atom_site_label
_atom_site_type_symbol
_atom_site_fract_x
_atom_site_fract_y
_atom_site_fract_z
Cd1 Cd 0.19464(3) 0.11094(3) 0.28721(3)
Cd2 Cd 0.29862(3) 0.35344(4) 0.20858(3)
O1 O 0.2200(7) 0.3447(17) 0.3063(6)
O2 O 0.1465(10) 0.2479(8) 0.3449(7)
O3 O 0.2908(5) 0.5537(9) 0.5875(4)
O4 O 0.1956(5) 0.5353(7) 0.6563(6)
O5 O 0.3086(5) -0.0784(8) -0.1361(6)
O6 O 0.2074(4) -0.1119(5) -0.0797(4)
O7 O 0.2634(4) 0.1721(4) 0.1914(5)
O8 O 0.3710(5) 0.2124(8) 0.1548(7)
N1 N 0.0956(4) 0.1259(9) 0.2004(5)
N2 N 0.1454(5) -0.0527(7) 0.2557(6)
N3 N 0.3986(5) 0.3369(9) 0.3009(4)
N4 N 0.3425(6) 0.5211(8) 0.2413(5)
C1 C 0.1590(6) 0.4053(8) 0.4073(7)
C2 C 0.1292(19) 0.3436(13) 0.4894(17)
H3 H 0.0816 0.3099 0.4785
H4 H 0.1652 0.2919 0.5059
C3 C 0.1221(14) 0.413(3) 0.5436(14)
H5 H 0.1368 0.3852 0.5933
H6 H 0.0710 0.4374 0.5449
C4 C 0.1773(6) 0.5056(10) 0.5210(8)
H7 H 0.1507 0.5647 0.4983
C5 C 0.2159(6) 0.4391(13) 0.4612(6)
C6 C 0.1799(6) 0.3228(8) 0.3494(6)
C7 C 0.2228(7) 0.5331(10) 0.5927(7)
C8 C 0.0965(19) 0.445(3) 0.396(2)
H8 H 0.0972 0.4892 0.3524
H9 H 0.0842 0.4845 0.4403
H10 H 0.0599 0.3921 0.3876
C9 C 0.2447(18) 0.556(3) 0.4261(11)
H11 H 0.2742 0.5454 0.3822
H12 H 0.2741 0.5918 0.4649
H13 H 0.2018 0.5973 0.4116
C10 C 0.2777(6) 0.3817(10) 0.4811(7)
H14 H 0.2625 0.3174 0.5023
H15 H 0.3081 0.4184 0.5183
H16 H 0.3059 0.3692 0.4366
C11 C 0.3109(6) -0.0521(9) 0.0009(7)
C12 C 0.3090(5) 0.0614(7) 0.0203(5)
C13 C 0.3308(6) 0.0565(10) 0.1101(6)
H17 H 0.3841 0.0405 0.1152
C14 C 0.2884(9) -0.0384(8) 0.1368(6)
H18 H 0.3168 -0.0730 0.1775
H19 H 0.2405 -0.0182 0.1560
C15 C 0.2771(7) -0.1088(7) 0.0692(6)
H20 H 0.2245 -0.1220 0.0591
H21 H 0.3024 -0.1738 0.0786
C16 C 0.2711(6) -0.0783(8) -0.0775(7)
C17 C 0.3188(6) 0.1469(10) 0.1533(6)
C18 C 0.3932(5) -0.0978(7) -0.0062(7)
H22 H 0.4218 -0.0852 0.0404
H23 H 0.4170 -0.0650 -0.0479
H24 H 0.3902 -0.1704 -0.0153
C19 C 0.3617(7) 0.1288(12) -0.0253(8)
H25 H 0.3451 0.1296 -0.0782
H26 H 0.4114 0.1013 -0.0209
H27 H 0.3616 0.1976 -0.0055
C20 C 0.2307(5) 0.1125(11) 0.0103(6)
H28 H 0.2166 0.1164 -0.0431
H29 H 0.2325 0.1804 0.0317
H30 H 0.1947 0.0721 0.0362
C21 C 0.1681(8) -0.1445(14) 0.2808(7)
H31 H 0.2078 -0.1451 0.3166
C22 C 0.1394(13) -0.2378(13) 0.2596(12)
H32 H 0.1574 -0.3001 0.2786
C23 C 0.0763(11) -0.2289(12) 0.2029(11)
H33 H 0.0530 -0.2889 0.1858
C24 C 0.0517(7) -0.1415(12) 0.1755(7)
C25 C 0.0871(7) -0.0523(10) 0.2022(7)
C26 C 0.0598(7) 0.0422(11) 0.1745(7)
C27 C 0.0018(8) 0.024(2) 0.1223(8)
C28 C -0.0229(8) 0.146(2) 0.0967(9)
H34 H -0.0656 0.1548 0.0655
C29 C 0.0126(11) 0.224(3) 0.1169(14)
H35 H 0.0008 0.2887 0.0964
C30 C 0.0714(9) 0.2118(16) 0.1722(9)
H36 H 0.0950 0.2713 0.1901
C31 C -0.0141(7) -0.1210(11) 0.1153(7)
H37 H -0.0398 -0.1774 0.0950
C32 C -0.0337(8) -0.0343(16) 0.0933(8)
H38 H -0.0723 -0.0205 0.0578
C33 C 0.3119(7) 0.6067(12) 0.2147(5)
H39 H 0.2712 0.6023 0.1803
C34 C 0.3377(13) 0.7006(12) 0.2355(9)
H40 H 0.3130 0.7576 0.2148
C35 C 0.3927(10) 0.7166(9) 0.2809(8)
H41 H 0.4082 0.7833 0.2923
C36 C 0.4327(8) 0.6268(18) 0.3161(7)
C37 C 0.4027(8) 0.5238(11) 0.2905(7)
C38 C 0.4304(6) 0.4323(12) 0.3212(6)
C39 C 0.4936(7) 0.4143(14) 0.3769(8)
C40 C 0.5193(9) 0.349(3) 0.4049(9)
H42 H 0.5599 0.3535 0.4395
C41 C 0.4843(10) 0.251(2) 0.3834(10)
H43 H 0.5033 0.1909 0.4046
C42 C 0.4224(9) 0.2461(11) 0.3313(8)
H44 H 0.3992 0.1841 0.3185
C43 C 0.4910(8) 0.6361(11) 0.3630(7)
H45 H 0.5110 0.7001 0.3756
C44 C 0.5220(7) 0.5449(17) 0.3933(7)
H46 H 0.5633 0.5535 0.4266
Cd1C Cd 0.30536(3) 0.61094(3) 0.71279(3)
Cd2C Cd 0.20138(3) -0.14656(4) -0.20858(3)
O3C O 0.2092(5) 0.0537(9) 0.4125(4)
O4C O 0.3044(5) 0.0353(7) 0.3437(6)
O5C O 0.1914(5) 0.4216(8) 0.1361(6)
O6C O 0.2926(4) 0.3881(5) 0.0797(4)
O9 O 0.4358(14) -0.0403(16) 0.3150(17)
H1 H 0.3950 -0.0145 0.3223
O10 O 0.5816(11) 0.0158(9) 0.2044(13)
H2 H 0.6115 -0.0211 0.1831
C45 C 0.4613(15) -0.002(3) 0.2633(9)
H47 H 0.4690 0.0696 0.2760
H48 H 0.4237 -0.0045 0.2219
C46 C 0.5305(12) -0.0400(12) 0.2327(14)
H49 H 0.5550 -0.0793 0.2736
H50 H 0.5159 -0.0891 0.1932
loop_
_geom_bond_atom_site_label_1
_geom_bond_atom_site_label_2
_geom_bond_site_symmetry_1
_geom_bond_site_symmetry_2
Cd1 O2 1_555 1_555
Cd2 O1 1_555 1_555
O1 C6 1_555 1_555
O2 C6 1_555 1_555
O3 C7 1_555 1_555
O4 C7 1_555 1_555
O5 C16 1_555 1_555
O6 C16 1_555 1_555
O7 Cd1 1_555 1_555
O8 Cd2 1_555 1_555
O9 H1 1_555 1_555
O10 H2 1_555 1_555
N1 Cd1 1_555 1_555
N2 Cd1 1_555 1_555
N3 Cd2 1_555 1_555
N4 Cd2 1_555 1_555
C1 C2 1_555 1_555
C2 H3 1_555 1_555
H4 C2 1_555 1_555
C3 C2 1_555 1_555
H5 C3 1_555 1_555
H6 C3 1_555 1_555
C4 C3 1_555 1_555
H7 C4 1_555 1_555
C5 C1 1_555 1_555
C6 C1 1_555 1_555
C7 C4 1_555 1_555
C8 C1 1_555 1_555
H8 C8 1_555 1_555
H9 C8 1_555 1_555
H10 C8 1_555 1_555
C9 C5 1_555 1_555
H11 C9 1_555 1_555
H12 C9 1_555 1_555
H13 C9 1_555 1_555
C10 C5 1_555 1_555
H14 C10 1_555 1_555
H15 C10 1_555 1_555
H16 C10 1_555 1_555
C11 C12 1_555 1_555
C12 C13 1_555 1_555
C13 H17 1_555 1_555
C14 C13 1_555 1_555
H18 C14 1_555 1_555
H19 C14 1_555 1_555
C15 C11 1_555 1_555
H20 C15 1_555 1_555
H21 C15 1_555 1_555
C16 C11 1_555 1_555
C17 O7 1_555 1_555
C18 C11 1_555 1_555
H22 C18 1_555 1_555
H23 C18 1_555 1_555
H24 C18 1_555 1_555
C19 C12 1_555 1_555
H25 C19 1_555 1_555
H26 C19 1_555 1_555
H27 C19 1_555 1_555
C20 C12 1_555 1_555
H28 C20 1_555 1_555
H29 C20 1_555 1_555
H30 C20 1_555 1_555
C21 N2 1_555 1_555
H31 C21 1_555 1_555
C22 C21 1_555 1_555
H32 C22 1_555 1_555
C23 C22 1_555 1_555
H33 C23 1_555 1_555
C24 C23 1_555 1_555
C25 N2 1_555 1_555
C26 N1 1_555 1_555
C27 C26 1_555 1_555
C28 C27 1_555 1_555
H34 C28 1_555 1_555
C29 C28 1_555 1_555
H35 C29 1_555 1_555
C30 N1 1_555 1_555
H36 C30 1_555 1_555
C31 C24 1_555 1_555
H37 C31 1_555 1_555
C32 C27 1_555 1_555
H38 C32 1_555 1_555
C33 N4 1_555 1_555
H39 C33 1_555 1_555
C34 C33 1_555 1_555
H40 C34 1_555 1_555
C35 C34 1_555 1_555
H41 C35 1_555 1_555
C36 C35 1_555 1_555
C37 N4 1_555 1_555
C38 N3 1_555 1_555
C39 C38 1_555 1_555
C40 C39 1_555 1_555
H42 C40 1_555 1_555
C41 C40 1_555 1_555
H43 C41 1_555 1_555
C42 N3 1_555 1_555
H44 C42 1_555 1_555
C43 C36 1_555 1_555
H45 C43 1_555 1_555
C44 C39 1_555 1_555
H46 C44 1_555 1_555
C45 O9 1_555 1_555
H47 C45 1_555 1_555
H48 C45 1_555 1_555
C46 O10 1_555 1_555
H49 C46 1_555 1_555
H50 C46 1_555 1_555
Cd1C O3 1_555 1_555
Cd2C O5 1_555 1_555
O3C Cd1 1_555 1_555
O4C Cd1 1_555 1_555
O5C Cd2 1_555 1_555
O6C Cd2 1_555 1_555
Cd2 O7 1_555 1_555
O4 Cd1C 1_555 1_555
O6 Cd2C 1_555 1_555
O8 C17 1_555 1_555
C4 C5 1_555 1_555
C13 C17 1_555 1_555
C14 C15 1_555 1_555
C24 C25 1_555 1_555
C25 C26 1_555 1_555
C29 C30 1_555 1_555
C31 C32 1_555 1_555
C36 C37 1_555 1_555
C37 C38 1_555 1_555
C41 C42 1_555 1_555
C43 C44 1_555 1_555
C45 C46 1_555 1_555

#END
