
#######################################################################
#
#                 Cambridge Crystallographic Data Centre
#                                CCDC 
#
#######################################################################
#
# If this CIF has been generated from an entry in the Cambridge 
# Structural Database, then it will include bibliographic, chemical, 
# crystal, experimental, refinement or atomic coordinate data resulting 
# from the CCDC's data processing and validation procedures.
#
#######################################################################

data_KADNIO
_symmetry_cell_setting           monoclinic
_symmetry_space_group_name_H-M   'P 21/c'
_symmetry_Int_Tables_number      14
_space_group_name_Hall           '-P 2ybc'
loop_
_symmetry_equiv_pos_site_id
_symmetry_equiv_pos_as_xyz
1 x,y,z
2 -x,1/2+y,1/2-z
3 -x,-y,-z
4 x,1/2-y,1/2+z
_cell_length_a                   10.467(14)
_cell_length_b                   8.278(6)
_cell_length_c                   15.967(15)
_cell_angle_alpha                90
_cell_angle_beta                 105.96(4)
_cell_angle_gamma                90
_cell_volume                     1330.15
loop_
_atom_site_label
_atom_site_type_symbol
_atom_site_fract_x
_atom_site_fract_y
_atom_site_fract_z
Br1 Br 0.50241(4) 0.33072(4) 0.41088(2)
Cu1 Cu 1.0000 0.5000 0.5000
Cu2 Cu 0.63091(5) 0.55855(6) 0.48967(3)
S1 S 0.84104(8) 0.48996(9) 0.57711(6)
S2 S 0.97051(9) 0.22914(10) 0.51288(6)
N1 N 0.7896(2) 0.1765(2) 0.60038(17)
N2 N 0.6539(3) 0.7399(3) 0.41375(19)
C1 C 0.8566(2) 0.2813(3) 0.56745(19)
C2 C 0.8047(3) 0.0020(3) 0.5887(2)
C3 C 0.9011(3) -0.0754(4) 0.6673(2)
C4 C 0.8429(4) -0.1080(4) 0.7427(2)
C5 C 0.7870(4) 0.0397(5) 0.7760(2)
C6 C 0.6667(3) 0.1122(4) 0.7113(2)
C7 C 0.6966(3) 0.2334(4) 0.6485(2)
C8 C 0.6721(3) 0.8469(4) 0.3752(2)
C9 C 0.6975(4) 0.9859(4) 0.3265(2)
H1 H 0.8362 -0.0156 0.5377
H2 H 0.7186 -0.0497 0.5784
H3 H 0.9320 -0.1767 0.6494
H4 H 0.9776 -0.0053 0.6874
H5 H 0.7728 -0.1876 0.7246
H6 H 0.9116 -0.1544 0.7903
H7 H 0.8560 0.1212 0.7918
H8 H 0.7626 0.0105 0.8284
H9 H 0.6147 0.0252 0.6778
H10 H 0.6120 0.1646 0.7435
H11 H 0.6138 0.2636 0.6067
H12 H 0.7334 0.3298 0.6807
H13 H 0.6328 1.0683 0.3262
H14 H 0.6915 0.9541 0.2677
H15 H 0.7849 1.0271 0.3534
Br1B Br 0.49759(4) 0.66928(4) 0.58912(2)
Br1B_2 Br 1.49759(4) 0.66928(4) 0.58912(2)
Br1_2 Br 1.50241(4) 0.33072(4) 0.41088(2)
Cu2B Cu 1.36909(5) 0.44145(6) 0.51033(3)
Cu2B_2 Cu 0.36909(5) 0.44145(6) 0.51033(3)
S1B S 1.15896(8) 0.51004(9) 0.42289(6)
S2B S 1.02949(9) 0.77086(10) 0.48712(6)
N1B N 1.2104(2) 0.8235(2) 0.39962(17)
N2B N 1.3461(3) 0.2601(3) 0.58625(19)
C1B C 1.1434(2) 0.7187(3) 0.43255(19)
C2B C 1.1953(3) 0.9980(3) 0.4113(2)
C3B C 1.0989(3) 1.0754(4) 0.3327(2)
C4B C 1.1571(4) 1.1080(4) 0.2573(2)
C5B C 1.2130(4) 0.9603(5) 0.2240(2)
C6B C 1.3333(3) 0.8878(4) 0.2887(2)
C7B C 1.3034(3) 0.7666(4) 0.3515(2)
C8B C 1.3279(3) 0.1531(4) 0.6248(2)
C9B C 1.3025(4) 0.0141(4) 0.6735(2)
H1B H 1.1638 1.0156 0.4623
H2B H 1.2814 1.0497 0.4216
H3B H 1.0680 1.1767 0.3506
H4B H 1.0224 1.0053 0.3126
H5B H 1.2272 1.1876 0.2754
H6B H 1.0884 1.1544 0.2097
H7B H 1.1440 0.8788 0.2082
H8B H 1.2374 0.9895 0.1716
H9B H 1.3853 0.9748 0.3222
H10B H 1.3880 0.8354 0.2565
H11B H 1.3862 0.7364 0.3933
H12B H 1.2666 0.6702 0.3193
H13B H 1.3672 -0.0683 0.6738
H14B H 1.3085 0.0459 0.7323
H15B H 1.2151 -0.0271 0.6466
loop_
_geom_bond_atom_site_label_1
_geom_bond_atom_site_label_2
_geom_bond_site_symmetry_1
_geom_bond_site_symmetry_2
Br1 Cu2 1_555 1_555
Cu1 S1 1_555 1_555
Cu2 S1 1_555 1_555
S1 C1 1_555 1_555
S2 Cu1 1_555 1_555
N1 C1 1_555 1_555
N2 Cu2 1_555 1_555
C1 S2 1_555 1_555
C2 N1 1_555 1_555
C3 C2 1_555 1_555
C4 C3 1_555 1_555
C5 C4 1_555 1_555
C6 C5 1_555 1_555
C7 N1 1_555 1_555
C8 N2 1_555 1_555
C9 C8 1_555 1_555
H1 C2 1_555 1_555
H2 C2 1_555 1_555
H3 C3 1_555 1_555
H4 C3 1_555 1_555
H5 C4 1_555 1_555
H6 C4 1_555 1_555
H7 C5 1_555 1_555
H8 C5 1_555 1_555
H9 C6 1_555 1_555
H10 C6 1_555 1_555
H11 C7 1_555 1_555
H12 C7 1_555 1_555
H13 C9 1_555 1_555
H14 C9 1_555 1_555
H15 C9 1_555 1_555
Br1B Cu2 1_555 1_555
Br1B_2 Cu2B 1_555 1_555
Br1_2 Cu2B 1_555 1_555
Cu2B S1B 1_555 1_555
Cu2B_2 Br1 1_555 1_555
S1B Cu1 1_555 1_555
S2B Cu1 1_555 1_555
N1B C1B 1_555 1_555
N2B Cu2B 1_555 1_555
C1B S1B 1_555 1_555
C2B N1B 1_555 1_555
C3B C2B 1_555 1_555
C4B C3B 1_555 1_555
C5B C4B 1_555 1_555
C6B C5B 1_555 1_555
C7B N1B 1_555 1_555
C8B N2B 1_555 1_555
C9B C8B 1_555 1_555
H1B C2B 1_555 1_555
H2B C2B 1_555 1_555
H3B C3B 1_555 1_555
H4B C3B 1_555 1_555
H5B C4B 1_555 1_555
H6B C4B 1_555 1_555
H7B C5B 1_555 1_555
H8B C5B 1_555 1_555
H9B C6B 1_555 1_555
H10B C6B 1_555 1_555
H11B C7B 1_555 1_555
H12B C7B 1_555 1_555
H13B C9B 1_555 1_555
H14B C9B 1_555 1_555
H15B C9B 1_555 1_555
C6 C7 1_555 1_555
Br1B Cu2B_2 1_555 1_555
S2B C1B 1_555 1_555
C6B C7B 1_555 1_555

#END
