
#######################################################################
#
#                 Cambridge Crystallographic Data Centre
#                                CCDC 
#
#######################################################################
#
# If this CIF has been generated from an entry in the Cambridge 
# Structural Database, then it will include bibliographic, chemical, 
# crystal, experimental, refinement or atomic coordinate data resulting 
# from the CCDC's data processing and validation procedures.
#
#######################################################################

data_KADRUE
_symmetry_cell_setting           monoclinic
_symmetry_space_group_name_H-M   'P 21/c'
_symmetry_Int_Tables_number      14
_space_group_name_Hall           '-P 2ybc'
loop_
_symmetry_equiv_pos_site_id
_symmetry_equiv_pos_as_xyz
1 x,y,z
2 -x,1/2+y,1/2-z
3 -x,-y,-z
4 x,1/2-y,1/2+z
_cell_length_a                   7.7252(15)
_cell_length_b                   23.173(5)
_cell_length_c                   11.987(2)
_cell_angle_alpha                90
_cell_angle_beta                 107.494(3)
_cell_angle_gamma                90
_cell_volume                     2046.62
loop_
_atom_site_label
_atom_site_type_symbol
_atom_site_fract_x
_atom_site_fract_y
_atom_site_fract_z
Zn1 Zn 0.34030(8) 0.55328(2) 0.81263(5)
C1 C 0.6334(7) 0.6161(2) 0.9039(5)
C2 C 0.7989(7) 0.6479(2) 0.9831(4)
H1 H 0.8552 0.6234 1.0509
C3 C 0.9402(7) 0.6608(2) 0.9212(4)
H2 H 0.8807 0.6799 0.8477
H3 H 1.0287 0.6875 0.9689
C4 C 1.0391(7) 0.6083(2) 0.8966(5)
C5 C 0.7293(7) 0.7029(2) 1.0264(5)
H4 H 0.6705 0.7268 0.9581
C6 C 0.8857(8) 0.7379(3) 1.1075(5)
C7 C 0.5892(7) 0.6901(2) 1.0905(5)
H5 H 0.4906 0.6676 1.0401
H6 H 0.6456 0.6674 1.1599
C8 C 0.5145(9) 0.7451(2) 1.1253(5)
C9 C 0.5863(8) 0.4418(3) 0.8034(5)
H7 H 0.6443 0.4471 0.8827
C10 C 0.6260(10) 0.3925(3) 0.7485(7)
H8 H 0.7100 0.3658 0.7912
C11 C 0.5428(10) 0.3835(3) 0.6337(8)
H9 H 0.5666 0.3501 0.5979
C12 C 0.4198(9) 0.4246(2) 0.5681(6)
C13 C 0.3382(10) 0.4214(3) 0.4456(7)
H10 H 0.3608 0.3896 0.4047
C14 C 0.2287(10) 0.4636(3) 0.3878(6)
H11 H 0.1779 0.4605 0.3072
C15 C 0.1873(8) 0.5137(3) 0.4468(5)
C16 C 0.0749(9) 0.5599(3) 0.3924(5)
H12 H 0.0195 0.5592 0.3119
C17 C 0.0463(9) 0.6054(3) 0.4556(6)
H13 H -0.0238 0.6367 0.4193
C18 C 0.1248(8) 0.6041(3) 0.5764(5)
H14 H 0.1011 0.6347 0.6199
C19 C 0.2665(8) 0.5171(2) 0.5679(5)
C20 C 0.3865(8) 0.4727(2) 0.6301(5)
N1 N 0.4685(6) 0.48124(19) 0.7461(4)
N2 N 0.2310(6) 0.56199(18) 0.6333(4)
O1 O 0.5707(5) 0.57298(14) 0.9453(3)
O2 O 0.5547(5) 0.63364(15) 0.8024(3)
O3 O 0.9833(5) 0.55991(15) 0.9173(4)
O4 O 1.1735(5) 0.61580(14) 0.8578(3)
O5 O 0.9968(6) 0.70596(17) 1.1891(4)
H15 H 1.0732 0.7267 1.2334
O6 O 0.8982(6) 0.78873(17) 1.0993(4)
O7 O 0.6005(6) 0.76021(17) 1.2326(3)
H16 H 0.5685 0.7927 1.2450
O8 O 0.3939(6) 0.77305(18) 1.0597(4)
O9 O 0.2109(5) 0.48908(14) 0.8756(3)
H17 H 0.2856 0.4709 0.9266
H18 H 0.1175 0.5052 0.8853
Zn1_2 Zn 1.34030(8) 0.55328(2) 0.81263(5)
O4_2 O 0.1735(5) 0.61580(14) 0.8578(3)
O10 O 0.2551(5) 0.76727(15) 0.3325(3)
H19 H 0.2360 0.7563 0.3955
H20 H 0.2470 0.7605 0.2615
loop_
_geom_bond_atom_site_label_1
_geom_bond_atom_site_label_2
_geom_bond_site_symmetry_1
_geom_bond_site_symmetry_2
Zn1 N1 1_555 1_555
C1 C2 1_555 1_555
C2 H1 1_555 1_555
C3 C2 1_555 1_555
H2 C3 1_555 1_555
H3 C3 1_555 1_555
C4 C3 1_555 1_555
C5 C2 1_555 1_555
H4 C5 1_555 1_555
C6 C5 1_555 1_555
C7 C5 1_555 1_555
H5 C7 1_555 1_555
H6 C7 1_555 1_555
C8 C7 1_555 1_555
C9 H7 1_555 1_555
C10 C9 1_555 1_555
H8 C10 1_555 1_555
C11 C10 1_555 1_555
H9 C11 1_555 1_555
C12 C11 1_555 1_555
C13 C12 1_555 1_555
H10 C13 1_555 1_555
C14 C13 1_555 1_555
H11 C14 1_555 1_555
C15 C14 1_555 1_555
C16 C15 1_555 1_555
H12 C16 1_555 1_555
C17 C16 1_555 1_555
H13 C17 1_555 1_555
C18 C17 1_555 1_555
H14 C18 1_555 1_555
C19 C15 1_555 1_555
C20 C12 1_555 1_555
N1 C9 1_555 1_555
N2 Zn1 1_555 1_555
O1 Zn1 1_555 1_555
O2 Zn1 1_555 1_555
O3 C4 1_555 1_555
O4 C4 1_555 1_555
O5 C6 1_555 1_555
H15 O5 1_555 1_555
O6 C6 1_555 1_555
O7 C8 1_555 1_555
H16 O7 1_555 1_555
O8 C8 1_555 1_555
O9 Zn1 1_555 1_555
H17 O9 1_555 1_555
H18 O9 1_555 1_555
O10 H19 1_555 1_555
H20 O10 1_555 1_555
Zn1_2 O4 1_555 1_555
O4_2 Zn1 1_555 1_555
C1 O1 1_555 1_555
C1 O2 1_555 1_555
C18 N2 1_555 1_555
C19 C20 1_555 1_555
C19 N2 1_555 1_555
C20 N1 1_555 1_555

#END
