
#######################################################################
#
#                 Cambridge Crystallographic Data Centre
#                                CCDC 
#
#######################################################################
#
# If this CIF has been generated from an entry in the Cambridge 
# Structural Database, then it will include bibliographic, chemical, 
# crystal, experimental, refinement or atomic coordinate data resulting 
# from the CCDC's data processing and validation procedures.
#
#######################################################################

data_KADROY
_symmetry_cell_setting           triclinic
_symmetry_space_group_name_H-M   'P -1'
_symmetry_Int_Tables_number      2
_space_group_name_Hall           '-P 1'
loop_
_symmetry_equiv_pos_site_id
_symmetry_equiv_pos_as_xyz
1 x,y,z
2 -x,-y,-z
_cell_length_a                   7.1403(16)
_cell_length_b                   10.488(2)
_cell_length_c                   10.849(2)
_cell_angle_alpha                87.416(3)
_cell_angle_beta                 82.795(3)
_cell_angle_gamma                88.555(3)
_cell_volume                     805.062
loop_
_atom_site_label
_atom_site_type_symbol
_atom_site_fract_x
_atom_site_fract_y
_atom_site_fract_z
Cu1 Cu 0.27998(7) 0.27607(5) 0.70380(5)
C1 C 0.6122(6) 0.1186(4) 0.6335(4)
C2 C 0.7404(5) 0.0605(4) 0.5274(4)
H1 H 0.7498 0.1204 0.4563
H2 H 0.6823 -0.0160 0.5039
C3 C 0.9386(5) 0.0259(4) 0.5571(4)
H3 H 0.9303 -0.0400 0.6245
C4 C 1.0327(5) 0.1432(4) 0.5990(4)
C5 C 0.5885(7) 0.4626(5) 0.6297(4)
H4 H 0.6588 0.3937 0.5965
C6 C 0.6696(8) 0.5811(6) 0.6195(5)
H5 H 0.7921 0.5922 0.5806
C7 C 0.5653(9) 0.6814(5) 0.6681(6)
H6 H 0.6155 0.7627 0.6610
C8 C 0.3868(9) 0.6629(5) 0.7273(5)
H7 H 0.3170 0.7311 0.7626
C9 C 0.3104(7) 0.5427(4) 0.7343(4)
C10 C 0.1191(7) 0.5098(4) 0.7926(4)
C11 C -0.0107(8) 0.5967(5) 0.8484(5)
H8 H 0.0189 0.6825 0.8490
C12 C -0.1832(8) 0.5547(5) 0.9026(5)
H9 H -0.2711 0.6118 0.9411
C13 C -0.2257(7) 0.4283(5) 0.8998(5)
H10 H -0.3422 0.3985 0.9363
C14 C -0.0922(6) 0.3458(5) 0.8418(4)
H11 H -0.1206 0.2599 0.8395
N1 N 0.4131(5) 0.4424(3) 0.6852(3)
N2 N 0.0760(5) 0.3858(3) 0.7890(3)
O1 O 0.4821(4) 0.1913(3) 0.6006(3)
O2 O 0.6393(5) 0.0952(4) 0.7420(3)
O3 O 1.0232(5) 0.2457(3) 0.5403(3)
O4 O 1.1219(4) 0.1275(3) 0.6950(3)
O5 O 0.3957(5) 0.2257(3) 0.8981(3)
H12 H 0.4932 0.1826 0.8862
H13 H 0.3728 0.1852 0.9679
Cu1A Cu 1.72002(7) -0.27607(5) 0.29620(5)
Cu1_2 Cu 1.27998(7) 0.27607(5) 0.70380(5)
Cu1A_2 Cu 0.72002(7) -0.27607(5) 0.29620(5)
C1A C 1.3878(6) -0.1186(4) 0.3665(4)
C2A C 1.2596(5) -0.0605(4) 0.4726(4)
H1A H 1.2502 -0.1204 0.5437
H2A H 1.3177 0.0160 0.4961
C3A C 1.0614(5) -0.0259(4) 0.4429(4)
H3A H 1.0697 0.0400 0.3755
C4A C 0.9673(5) -0.1432(4) 0.4010(4)
C5A C 1.4115(7) -0.4626(5) 0.3703(4)
H4A H 1.3412 -0.3937 0.4035
C6A C 1.3304(8) -0.5811(6) 0.3805(5)
H5A H 1.2079 -0.5922 0.4194
C7A C 1.4347(9) -0.6814(5) 0.3319(6)
H6A H 1.3845 -0.7627 0.3390
C8A C 1.6132(9) -0.6629(5) 0.2727(5)
H7A H 1.6830 -0.7311 0.2374
C9A C 1.6896(7) -0.5427(4) 0.2657(4)
C10A C 1.8809(7) -0.5098(4) 0.2074(4)
C11A C 2.0107(8) -0.5967(5) 0.1516(5)
H8A H 1.9811 -0.6825 0.1510
C12A C 2.1832(8) -0.5547(5) 0.0974(5)
H9A H 2.2711 -0.6118 0.0589
C13A C 2.2257(7) -0.4283(5) 0.1002(5)
H10A H 2.3422 -0.3985 0.0637
C14A C 2.0922(6) -0.3458(5) 0.1582(4)
H11A H 2.1206 -0.2599 0.1605
N1A N 1.5869(5) -0.4424(3) 0.3148(3)
N2A N 1.9240(5) -0.3858(3) 0.2110(3)
O1A O 1.5179(4) -0.1913(3) 0.3994(3)
O2A O 1.3607(5) -0.0952(4) 0.2580(3)
O3A O 0.9768(5) -0.2457(3) 0.4597(3)
O4A O 0.8781(4) -0.1275(3) 0.3050(3)
O4_2 O 0.1219(4) 0.1275(3) 0.6950(3)
O4A_2 O 1.8781(4) -0.1275(3) 0.3050(3)
O5A O 1.6043(5) -0.2257(3) 0.1019(3)
H12A H 1.5068 -0.1826 0.1138
H13A H 1.6272 -0.1852 0.0321
O6 O 0.1671(5) 0.9201(3) 0.8570(4)
H14 H 0.1583 0.9930 0.8204
H15 H 0.2488 0.9529 0.8960
O7 O 0.7866(6) 0.9382(4) 0.9167(4)
H16 H 0.7498 0.9560 0.8463
H17 H 0.7590 0.9666 0.9891
loop_
_geom_bond_atom_site_label_1
_geom_bond_atom_site_label_2
_geom_bond_site_symmetry_1
_geom_bond_site_symmetry_2
Cu1 N1 1_555 1_555
C1 C2 1_555 1_555
C2 H1 1_555 1_555
H2 C2 1_555 1_555
C3 C2 1_555 1_555
H3 C3 1_555 1_555
C4 C3 1_555 1_555
C5 H4 1_555 1_555
C6 C5 1_555 1_555
H5 C6 1_555 1_555
C7 C6 1_555 1_555
H6 C7 1_555 1_555
C8 C7 1_555 1_555
H7 C8 1_555 1_555
C9 C8 1_555 1_555
C10 C9 1_555 1_555
C11 C10 1_555 1_555
H8 C11 1_555 1_555
C12 C11 1_555 1_555
H9 C12 1_555 1_555
C13 C12 1_555 1_555
H10 C13 1_555 1_555
C14 C13 1_555 1_555
H11 C14 1_555 1_555
N1 C5 1_555 1_555
N2 Cu1 1_555 1_555
O1 Cu1 1_555 1_555
O2 C1 1_555 1_555
O3 C4 1_555 1_555
O4 C4 1_555 1_555
O5 Cu1 1_555 1_555
H12 O5 1_555 1_555
H13 O5 1_555 1_555
O6 H14 1_555 1_555
H15 O6 1_555 1_555
O7 H16 1_555 1_555
H17 O7 1_555 1_555
Cu1A N1A 1_555 1_555
Cu1_2 O4 1_555 1_555
Cu1A_2 O4A 1_555 1_555
C1A C2A 1_555 1_555
C2A H1A 1_555 1_555
H2A C2A 1_555 1_555
C3A C3 1_555 1_555
H3A C3A 1_555 1_555
C4A C3A 1_555 1_555
C5A H4A 1_555 1_555
C6A C5A 1_555 1_555
H5A C6A 1_555 1_555
C7A C6A 1_555 1_555
H6A C7A 1_555 1_555
C8A C7A 1_555 1_555
H7A C8A 1_555 1_555
C9A C8A 1_555 1_555
C10A C9A 1_555 1_555
C11A C10A 1_555 1_555
H8A C11A 1_555 1_555
C12A C11A 1_555 1_555
H9A C12A 1_555 1_555
C13A C12A 1_555 1_555
H10A C13A 1_555 1_555
C14A C13A 1_555 1_555
H11A C14A 1_555 1_555
N1A C5A 1_555 1_555
N2A Cu1A 1_555 1_555
O1A Cu1A 1_555 1_555
O2A C1A 1_555 1_555
O3A C4A 1_555 1_555
O4A C4A 1_555 1_555
O4_2 Cu1 1_555 1_555
O4A_2 Cu1A 1_555 1_555
O5A Cu1A 1_555 1_555
H12A O5A 1_555 1_555
H13A O5A 1_555 1_555
C1 O1 1_555 1_555
C9 N1 1_555 1_555
C10 N2 1_555 1_555
C14 N2 1_555 1_555
C1A O1A 1_555 1_555
C2A C3A 1_555 1_555
C9A N1A 1_555 1_555
C10A N2A 1_555 1_555
C14A N2A 1_555 1_555

#END
