
#######################################################################
#
#                 Cambridge Crystallographic Data Centre
#                                CCDC 
#
#######################################################################
#
# If this CIF has been generated from an entry in the Cambridge 
# Structural Database, then it will include bibliographic, chemical, 
# crystal, experimental, refinement or atomic coordinate data resulting 
# from the CCDC's data processing and validation procedures.
#
#######################################################################

data_KADRIS
_symmetry_cell_setting           triclinic
_symmetry_space_group_name_H-M   'P -1'
_symmetry_Int_Tables_number      2
_space_group_name_Hall           '-P 1'
loop_
_symmetry_equiv_pos_site_id
_symmetry_equiv_pos_as_xyz
1 x,y,z
2 -x,-y,-z
_cell_length_a                   8.6244(11)
_cell_length_b                   9.1752(12)
_cell_length_c                   13.3163(18)
_cell_angle_alpha                95.372(2)
_cell_angle_beta                 103.728(2)
_cell_angle_gamma                108.409(2)
_cell_volume                     954.863
loop_
_atom_site_label
_atom_site_type_symbol
_atom_site_fract_x
_atom_site_fract_y
_atom_site_fract_z
Cd1 Cd 0.36020(4) 0.62346(3) 0.18342(2)
C1 C 0.6786(7) 0.9620(6) 0.2884(4)
H1 H 0.6736 0.9675 0.2183
C2 C 0.8027(7) 1.0813(6) 0.3666(4)
H2 H 0.8802 1.1636 0.3486
C3 C 0.8097(8) 1.0764(6) 0.4691(4)
H3 H 0.8910 1.1563 0.5217
C4 C 0.6951(7) 0.9517(6) 0.4954(4)
C5 C 0.6929(8) 0.9390(7) 0.6012(4)
H4 H 0.7733 1.0155 0.6562
C6 C 0.5774(8) 0.8193(7) 0.6224(4)
H5 H 0.5771 0.8156 0.6919
C7 C 0.4537(6) 0.6963(6) 0.5407(4)
C8 C 0.3318(7) 0.5689(7) 0.5601(5)
H6 H 0.3277 0.5610 0.6286
C9 C 0.2193(7) 0.4564(7) 0.4786(5)
H7 H 0.1364 0.3720 0.4906
C10 C 0.2294(6) 0.4689(6) 0.3764(4)
H8 H 0.1542 0.3894 0.3214
C11 C 0.4531(6) 0.7040(5) 0.4351(3)
C12 C 0.5747(6) 0.8354(5) 0.4123(3)
C13 C 0.1786(5) 0.3369(5) 0.0475(3)
C14 C 0.0919(5) 0.1648(4) -0.0053(3)
H9 H 0.1065 0.1531 -0.0760
C15 C -0.0981(5) 0.1078(4) -0.0144(3)
H10 H -0.1118 0.1259 0.0561
C16 C -0.1888(5) 0.1959(4) -0.0829(3)
C17 C 0.1840(5) 0.0703(4) 0.0604(3)
H11 H 0.1747 0.0876 0.1322
C18 C 0.3706(5) 0.1276(5) 0.0654(3)
N1 N 0.5677(5) 0.8414(4) 0.3102(3)
N2 N 0.3421(4) 0.5897(4) 0.3543(3)
O1 O 0.1406(4) 0.3828(4) 0.1266(3)
O2 O 0.2923(4) 0.4236(4) 0.0162(3)
O3 O -0.1425(4) 0.2400(4) -0.1596(3)
O4 O -0.3112(4) 0.2239(4) -0.0597(3)
O5 O 0.4850(4) 0.1881(4) 0.1447(2)
O6 O 0.3940(4) 0.1041(4) -0.0279(2)
H12 H 0.4921 0.1559 -0.0255
O7 O 0.6063(4) 0.5961(5) 0.1681(3)
H13 H 0.6224 0.5867 0.1072
H14 H 0.7110 0.6195 0.2000
Cd1A Cd -0.36020(4) -0.62346(3) -0.18342(2)
Cd1A_2 Cd -0.36020(4) 0.37654(3) -0.18342(2)
Cd1_2 Cd 0.36020(4) -0.37654(3) 0.18342(2)
C1A C -0.6786(7) -0.9620(6) -0.2884(4)
H1A H -0.6736 -0.9675 -0.2183
C2A C -0.8027(7) -1.0813(6) -0.3666(4)
H2A H -0.8802 -1.1636 -0.3486
C3A C -0.8097(8) -1.0764(6) -0.4691(4)
H3A H -0.8910 -1.1563 -0.5217
C4A C -0.6951(7) -0.9517(6) -0.4954(4)
C5A C -0.6929(8) -0.9390(7) -0.6012(4)
H4A H -0.7733 -1.0155 -0.6562
C6A C -0.5774(8) -0.8193(7) -0.6224(4)
H5A H -0.5771 -0.8156 -0.6919
C7A C -0.4537(6) -0.6963(6) -0.5407(4)
C8A C -0.3318(7) -0.5689(7) -0.5601(5)
H6A H -0.3277 -0.5610 -0.6286
C9A C -0.2193(7) -0.4564(7) -0.4786(5)
H7A H -0.1364 -0.3720 -0.4906
C10A C -0.2294(6) -0.4689(6) -0.3764(4)
H8A H -0.1542 -0.3894 -0.3214
C11A C -0.4531(6) -0.7040(5) -0.4351(3)
C12A C -0.5747(6) -0.8354(5) -0.4123(3)
C13A C -0.1786(5) -0.3369(5) -0.0475(3)
C14A C -0.0919(5) -0.1648(4) 0.0053(3)
H9A H -0.1065 -0.1531 0.0760
C15A C 0.0981(5) -0.1078(4) 0.0144(3)
H10A H 0.1118 -0.1259 -0.0561
C16A C 0.1888(5) -0.1959(4) 0.0829(3)
C17A C -0.1840(5) -0.0703(4) -0.0604(3)
H11A H -0.1747 -0.0876 -0.1322
C18A C -0.3706(5) -0.1276(5) -0.0654(3)
N1A N -0.5677(5) -0.8414(4) -0.3102(3)
N2A N -0.3421(4) -0.5897(4) -0.3543(3)
O1A O -0.1406(4) -0.3828(4) -0.1266(3)
O2A O -0.2923(4) -0.4236(4) -0.0162(3)
O3A O 0.1425(4) -0.2400(4) 0.1596(3)
O3A_2 O 0.1425(4) 0.7600(4) 0.1596(3)
O3_2 O -0.1425(4) -0.7600(4) -0.1596(3)
O4A O 0.3112(4) -0.2239(4) 0.0597(3)
O4A_2 O 0.3112(4) 0.7761(4) 0.0597(3)
O4_2 O -0.3112(4) -0.7761(4) -0.0597(3)
O5A O -0.4850(4) -0.1881(4) -0.1447(2)
O6A O -0.3940(4) -0.1041(4) 0.0279(2)
H12A H -0.4921 -0.1559 0.0255
O7A O -0.6063(4) -0.5961(5) -0.1681(3)
H13A H -0.6224 -0.5867 -0.1072
H14A H -0.7110 -0.6195 -0.2000
O8 O 0.8502(4) 0.3501(5) 0.2089(3)
H15 H 0.9303 0.3603 0.1801
H16 H 0.7424 0.3139 0.1813
O9 O 0.9338(4) 0.6674(5) 0.2955(3)
H17 H 0.9996 0.7054 0.2588
H18 H 0.9309 0.5746 0.2787
loop_
_geom_bond_atom_site_label_1
_geom_bond_atom_site_label_2
_geom_bond_site_symmetry_1
_geom_bond_site_symmetry_2
Cd1 N1 1_555 1_555
C1 H1 1_555 1_555
C2 C1 1_555 1_555
H2 C2 1_555 1_555
C3 C2 1_555 1_555
H3 C3 1_555 1_555
C4 C3 1_555 1_555
C5 C4 1_555 1_555
H4 C5 1_555 1_555
C6 C5 1_555 1_555
H5 C6 1_555 1_555
C7 C6 1_555 1_555
C8 C7 1_555 1_555
H6 C8 1_555 1_555
C9 C8 1_555 1_555
H7 C9 1_555 1_555
C10 C9 1_555 1_555
H8 C10 1_555 1_555
C11 C7 1_555 1_555
C12 C4 1_555 1_555
C13 C14 1_555 1_555
C14 H9 1_555 1_555
C15 C14 1_555 1_555
H10 C15 1_555 1_555
C16 C15 1_555 1_555
C17 C14 1_555 1_555
H11 C17 1_555 1_555
C18 C17 1_555 1_555
N1 C1 1_555 1_555
N2 Cd1 1_555 1_555
O1 Cd1 1_555 1_555
O2 Cd1 1_555 1_555
O3 C16 1_555 1_555
O4 C16 1_555 1_555
O5 C18 1_555 1_555
O6 C18 1_555 1_555
H12 O6 1_555 1_555
O7 Cd1 1_555 1_555
O8 H15 1_555 1_555
O9 H17 1_555 1_555
H13 O7 1_555 1_555
H14 O7 1_555 1_555
H16 O8 1_555 1_555
H18 O9 1_555 1_555
Cd1A N1A 1_555 1_555
Cd1A_2 O3 1_555 1_555
Cd1_2 O3A 1_555 1_555
C1A H1A 1_555 1_555
C2A C1A 1_555 1_555
H2A C2A 1_555 1_555
C3A C2A 1_555 1_555
H3A C3A 1_555 1_555
C4A C3A 1_555 1_555
C5A C4A 1_555 1_555
H4A C5A 1_555 1_555
C6A C5A 1_555 1_555
H5A C6A 1_555 1_555
C7A C6A 1_555 1_555
C8A C7A 1_555 1_555
H6A C8A 1_555 1_555
C9A C8A 1_555 1_555
H7A C9A 1_555 1_555
C10A C9A 1_555 1_555
H8A C10A 1_555 1_555
C11A C7A 1_555 1_555
C12A C4A 1_555 1_555
C13A C14A 1_555 1_555
C14A H9A 1_555 1_555
C15A C17 1_555 1_555
H10A C15A 1_555 1_555
C16A C15A 1_555 1_555
C17A C15 1_555 1_555
H11A C17A 1_555 1_555
C18A C17A 1_555 1_555
N1A C1A 1_555 1_555
N2A Cd1A 1_555 1_555
O1A Cd1A 1_555 1_555
O2A Cd1A 1_555 1_555
O3A C16A 1_555 1_555
O3A_2 Cd1 1_555 1_555
O3_2 Cd1A 1_555 1_555
O4A Cd1_2 1_555 1_555
O4A_2 Cd1 1_555 1_555
O4_2 Cd1A 1_555 1_555
O5A C18A 1_555 1_555
O6A C18A 1_555 1_555
H12A O6A 1_555 1_555
O7A Cd1A 1_555 1_555
H13A O7A 1_555 1_555
H14A O7A 1_555 1_555
C10 N2 1_555 1_555
C11 C12 1_555 1_555
C11 N2 1_555 1_555
C12 N1 1_555 1_555
C13 O1 1_555 1_555
C13 O2 1_555 1_555
O4 Cd1A_2 1_555 1_555
C10A N2A 1_555 1_555
C11A C12A 1_555 1_555
C11A N2A 1_555 1_555
C12A N1A 1_555 1_555
C13A O1A 1_555 1_555
C13A O2A 1_555 1_555
C14A C15A 1_555 1_555
C14A C17A 1_555 1_555
C16A O4A 1_555 1_555

#END
