
#######################################################################
#
#                 Cambridge Crystallographic Data Centre
#                                CCDC 
#
#######################################################################
#
# If this CIF has been generated from an entry in the Cambridge 
# Structural Database, then it will include bibliographic, chemical, 
# crystal, experimental, refinement or atomic coordinate data resulting 
# from the CCDC's data processing and validation procedures.
#
#######################################################################

data_KADSAL
_symmetry_cell_setting           triclinic
_symmetry_space_group_name_H-M   'P -1'
_symmetry_Int_Tables_number      2
_space_group_name_Hall           '-P 1'
loop_
_symmetry_equiv_pos_site_id
_symmetry_equiv_pos_as_xyz
1 x,y,z
2 -x,-y,-z
_cell_length_a                   7.7215(15)
_cell_length_b                   9.828(2)
_cell_length_c                   11.208(2)
_cell_angle_alpha                83.67(3)
_cell_angle_beta                 86.90(3)
_cell_angle_gamma                73.81(3)
_cell_volume                     811.587
loop_
_atom_site_label
_atom_site_type_symbol
_atom_site_fract_x
_atom_site_fract_y
_atom_site_fract_z
Zn1 Zn 0.39629(9) 0.26969(8) 0.26459(7)
S1 S 0.1888(3) -0.23689(18) 0.40207(16)
S2 S 0.1095(3) 0.8402(2) 0.0446(2)
N1 N 0.2368(8) 0.1410(6) 0.3038(5)
N2 N 0.2344(8) 0.4631(6) 0.2137(6)
N3 N 0.3130(8) -0.0026(6) 0.3425(5)
N4 N -0.1485(8) 0.0085(6) 0.3301(6)
H1 H -0.2435 0.0751 0.3089
H2 H -0.1563 -0.0763 0.3519
N5 N 0.0209(7) 0.0385(6) 0.3293(5)
C1 C 0.1814(9) -0.0606(7) 0.3562(6)
C2 C 0.0623(9) 0.1642(7) 0.2982(6)
N6 N -0.0062(7) 0.6386(5) 0.1848(5)
N7 N -0.1789(8) 0.7275(7) 0.1989(6)
H3 H -0.2553 0.6999 0.2475
H4 H -0.2095 0.8102 0.1591
N8 N 0.2862(8) 0.5673(6) 0.1376(6)
C3 C 0.0605(9) 0.5068(7) 0.2410(6)
C4 C -0.0482(9) 0.4292(7) 0.3183(6)
H5 H -0.1650 0.4946 0.3338
H6 H 0.0106 0.3974 0.3947
C5 C 0.1379(10) 0.6721(7) 0.1240(6)
C6 C -0.0774(9) 0.2997(8) 0.2656(7)
H7 H -0.1944 0.2885 0.2932
H8 H -0.0797 0.3183 0.1788
C7 C 0.4302(10) -0.3124(7) 0.3969(7)
H9 H 0.4541 -0.4112 0.3815
H10 H 0.4783 -0.2638 0.3285
C8 C 0.3330(14) 0.8612(9) 0.0534(7)
H11 H 0.3209 0.9617 0.0568
H12 H 0.3826 0.8121 0.1291
C9 C 0.4704(10) 0.8102(7) -0.0450(6)
C10 C 0.5354(11) -0.3081(9) 0.5054(7)
O1 O 0.4103(7) 0.8006(6) -0.1473(5)
O2 O 0.4528(7) -0.2581(6) 0.5976(4)
O3 O 0.6302(9) 0.7890(8) -0.0278(6)
O4 O 0.6978(9) -0.3541(12) 0.4974(7)
Zn1A Zn 0.60371(9) 0.73031(8) -0.26459(7)
Zn1A_2 Zn 0.60371(9) -0.26969(8) 0.73541(7)
O1A O 0.5897(7) 0.1994(6) 0.1473(5)
O2A O 0.5472(7) 0.2581(6) 0.4024(4)
loop_
_geom_bond_atom_site_label_1
_geom_bond_atom_site_label_2
_geom_bond_site_symmetry_1
_geom_bond_site_symmetry_2
Zn1 N1 1_555 1_555
S1 C1 1_555 1_555
S2 C5 1_555 1_555
N1 N3 1_555 1_555
N2 Zn1 1_555 1_555
N3 C1 1_555 1_555
N4 H1 1_555 1_555
H2 N4 1_555 1_555
N5 N4 1_555 1_555
C1 N5 1_555 1_555
C2 N1 1_555 1_555
N6 N7 1_555 1_555
N7 H3 1_555 1_555
H4 N7 1_555 1_555
N8 N2 1_555 1_555
C3 N2 1_555 1_555
C4 C3 1_555 1_555
H5 C4 1_555 1_555
H6 C4 1_555 1_555
C5 N6 1_555 1_555
C6 C2 1_555 1_555
H7 C6 1_555 1_555
H8 C6 1_555 1_555
C7 S1 1_555 1_555
H9 C7 1_555 1_555
H10 C7 1_555 1_555
C8 S2 1_555 1_555
H11 C8 1_555 1_555
H12 C8 1_555 1_555
C9 C8 1_555 1_555
C10 C7 1_555 1_555
O1 C9 1_555 1_555
O2 C10 1_555 1_555
O3 C9 1_555 1_555
O4 C10 1_555 1_555
Zn1A O1 1_555 1_555
Zn1A_2 O2 1_555 1_555
O1A Zn1 1_555 1_555
O2A Zn1 1_555 1_555
N5 C2 1_555 1_555
N6 C3 1_555 1_555
N8 C5 1_555 1_555
C4 C6 1_555 1_555

#END
