
#######################################################################
#
#                 Cambridge Crystallographic Data Centre
#                                CCDC 
#
#######################################################################
#
# If this CIF has been generated from an entry in the Cambridge 
# Structural Database, then it will include bibliographic, chemical, 
# crystal, experimental, refinement or atomic coordinate data resulting 
# from the CCDC's data processing and validation procedures.
#
#######################################################################

data_KAFCUQ
_symmetry_cell_setting           monoclinic
_symmetry_space_group_name_H-M   'P 21/n'
_symmetry_Int_Tables_number      14
_space_group_name_Hall           '-P 2yn'
loop_
_symmetry_equiv_pos_site_id
_symmetry_equiv_pos_as_xyz
1 x,y,z
2 1/2+x,1/2-y,1/2+z
3 -x,-y,-z
4 1/2-x,1/2+y,1/2-z
_cell_length_a                   10.1174(10)
_cell_length_b                   9.2692(9)
_cell_length_c                   15.687(2)
_cell_angle_alpha                90
_cell_angle_beta                 91.974(9)
_cell_angle_gamma                90
_cell_volume                     1470.26
loop_
_atom_site_label
_atom_site_type_symbol
_atom_site_fract_x
_atom_site_fract_y
_atom_site_fract_z
Ni1 Ni 0.65355(4) 0.84097(5) 0.81259(2)
C1 C 0.7446(4) 0.9999(4) 0.9780(2)
H1 H 0.8001(4) 1.0555(4) 0.9453(2)
C2 C 0.7505(4) 1.0155(5) 1.0672(2)
H2 H 0.8105(4) 1.0792(5) 1.0930(2)
C3 C 0.6679(4) 0.9368(5) 1.1152(2)
H3 H 0.6708(4) 0.9478(5) 1.1742(2)
C4 C 0.5787(4) 0.8395(4) 1.0769(2)
C5 C 0.4861(4) 0.7552(5) 1.1221(2)
H4 H 0.4842(4) 0.7631(5) 1.1812(2)
C6 C 0.4010(4) 0.6641(5) 1.0811(2)
H5 H 0.3417(4) 0.6105(5) 1.1122(2)
C7 C 0.4012(4) 0.6493(4) 0.9899(2)
C8 C 0.3134(4) 0.5597(5) 0.9437(3)
H6 H 0.2516(4) 0.5045(5) 0.9718(3)
C9 C 0.3195(4) 0.5543(5) 0.8568(3)
H7 H 0.2599(4) 0.4976(5) 0.8252(3)
C10 C 0.4153(4) 0.6343(5) 0.8160(2)
H8 H 0.4196(4) 0.6281(5) 0.7570(2)
C11 C 0.4922(3) 0.7297(4) 0.9443(2)
C12 C 0.5800(3) 0.8272(4) 0.9878(2)
C13 C 0.9419(3) 0.3979(4) 0.8281(2)
C14 C 0.9707(3) 0.4519(4) 0.9172(2)
C15 C 1.0082(3) 0.3554(4) 0.9805(2)
H9 H 1.0136(3) 0.2578(4) 0.9673(2)
C16 C 0.9620(3) 0.5996(4) 0.9368(2)
C17 C 0.9074(3) 0.7110(4) 0.8740(2)
O1 O 0.7884(2) 0.6872(2) 0.84718(13)
O2 O 0.9754(3) 0.8181(3) 0.8589(2)
O3 O 0.9728(2) 0.4758(3) 0.76554(13)
O4 O 0.8828(2) 0.2791(3) 0.81744(13)
O5 O 0.8033(3) 0.9725(3) 0.77536(15)
N1 N 0.6616(3) 0.9075(3) 0.9392(2)
N2 N 0.5007(3) 0.7191(3) 0.8584(2)
C16B C 1.0380(3) 0.4004(4) 1.0632(2)
C14B C 1.0293(3) 0.5481(4) 1.0828(2)
C13B C 1.0581(3) 0.6021(4) 1.1719(2)
O3B O 1.0272(2) 0.5242(3) 1.23446(13)
O4B O 1.1172(2) 0.7209(3) 1.18256(13)
C15B C 0.9918(3) 0.6446(4) 1.0195(2)
H9B H 0.9864(3) 0.7422(4) 1.0327(2)
C17B C 1.0926(3) 0.2890(4) 1.1260(2)
O1B O 1.2116(2) 0.3128(2) 1.15282(13)
O2B O 1.0246(3) 0.1819(3) 1.1411(2)
Ni1B Ni 1.34645(4) 0.15903(5) 1.18741(2)
O5B O 1.1967(3) 0.0275(3) 1.22464(15)
C1B C 1.2554(4) 0.0001(4) 1.0220(2)
H1B H 1.1999(4) -0.0555(4) 1.0547(2)
C2B C 1.2495(4) -0.0155(5) 0.9328(2)
H2B H 1.1895(4) -0.0792(5) 0.9070(2)
C3B C 1.3321(4) 0.0632(5) 0.8848(2)
H3B H 1.3292(4) 0.0522(5) 0.8258(2)
C4B C 1.4213(4) 0.1605(4) 0.9231(2)
C5B C 1.5139(4) 0.2448(5) 0.8779(2)
H4B H 1.5158(4) 0.2369(5) 0.8188(2)
C6B C 1.5990(4) 0.3359(5) 0.9189(2)
H5B H 1.6583(4) 0.3895(5) 0.8878(2)
C7B C 1.5988(4) 0.3507(4) 1.0101(2)
C8B C 1.6866(4) 0.4403(5) 1.0563(3)
H6B H 1.7484(4) 0.4955(5) 1.0282(3)
C9B C 1.6805(4) 0.4457(5) 1.1432(3)
H7B H 1.7401(4) 0.5024(5) 1.1748(3)
C10B C 1.5847(4) 0.3657(5) 1.1840(2)
H8B H 1.5804(4) 0.3719(5) 1.2430(2)
C11B C 1.5078(3) 0.2703(4) 1.0557(2)
C12B C 1.4200(3) 0.1728(4) 1.0122(2)
N1B N 1.3384(3) 0.0925(3) 1.0608(2)
N2B N 1.4993(3) 0.2809(3) 1.1416(2)
O3C O 0.5272(2) 0.9758(3) 0.73446(13)
O4C O 0.6172(2) 0.7791(3) 0.68256(13)
Ni1C Ni 0.84645(4) 0.34097(5) 0.68741(2)
Ni1A Ni 1.15355(4) 0.65903(5) 1.31259(2)
O3A O 1.4728(2) 0.0242(3) 1.26554(13)
O4A O 1.3828(2) 0.2209(3) 1.31744(13)
loop_
_geom_bond_atom_site_label_1
_geom_bond_atom_site_label_2
_geom_bond_site_symmetry_1
_geom_bond_site_symmetry_2
Ni1 O1 1_555 1_555
C1 H1 1_555 1_555
C2 C1 1_555 1_555
H2 C2 1_555 1_555
C3 C2 1_555 1_555
H3 C3 1_555 1_555
C4 C3 1_555 1_555
C5 C4 1_555 1_555
H4 C5 1_555 1_555
C6 C5 1_555 1_555
H5 C6 1_555 1_555
C7 C6 1_555 1_555
C8 C7 1_555 1_555
H6 C8 1_555 1_555
C9 C8 1_555 1_555
H7 C9 1_555 1_555
C10 C9 1_555 1_555
H8 C10 1_555 1_555
C11 C7 1_555 1_555
C12 C4 1_555 1_555
C13 C14 1_555 1_555
C14 C15 1_555 1_555
C15 H9 1_555 1_555
C16 C14 1_555 1_555
C17 C16 1_555 1_555
O1 C17 1_555 1_555
O2 C17 1_555 1_555
O3 C13 1_555 1_555
O4 C13 1_555 1_555
O5 Ni1 1_555 1_555
N1 Ni1 1_555 1_555
N2 Ni1 1_555 1_555
C16B C15 1_555 1_555
C14B C16B 1_555 1_555
C13B C14B 1_555 1_555
O3B C13B 1_555 1_555
O4B C13B 1_555 1_555
C15B C16 1_555 1_555
H9B C15B 1_555 1_555
C17B C16B 1_555 1_555
O1B C17B 1_555 1_555
O2B C17B 1_555 1_555
Ni1B O1B 1_555 1_555
O5B Ni1B 1_555 1_555
C1B H1B 1_555 1_555
C2B C1B 1_555 1_555
H2B C2B 1_555 1_555
C3B C2B 1_555 1_555
H3B C3B 1_555 1_555
C4B C3B 1_555 1_555
C5B C4B 1_555 1_555
H4B C5B 1_555 1_555
C6B C5B 1_555 1_555
H5B C6B 1_555 1_555
C7B C6B 1_555 1_555
C8B C7B 1_555 1_555
H6B C8B 1_555 1_555
C9B C8B 1_555 1_555
H7B C9B 1_555 1_555
C10B C9B 1_555 1_555
H8B C10B 1_555 1_555
C11B C7B 1_555 1_555
C12B C4B 1_555 1_555
N1B Ni1B 1_555 1_555
N2B Ni1B 1_555 1_555
O3C Ni1 1_555 1_555
O4C Ni1 1_555 1_555
Ni1C O3 1_555 1_555
Ni1A O3B 1_555 1_555
O3A Ni1B 1_555 1_555
O4A Ni1B 1_555 1_555
C1 N1 1_555 1_555
C10 N2 1_555 1_555
C11 N2 1_555 1_555
C11 C12 1_555 1_555
C12 N1 1_555 1_555
O4 Ni1C 1_555 1_555
C14B C15B 1_555 1_555
O4B Ni1A 1_555 1_555
C1B N1B 1_555 1_555
C10B N2B 1_555 1_555
C11B N2B 1_555 1_555
C11B C12B 1_555 1_555
C12B N1B 1_555 1_555

#END
