
#######################################################################
#
#                 Cambridge Crystallographic Data Centre
#                                CCDC 
#
#######################################################################
#
# If this CIF has been generated from an entry in the Cambridge 
# Structural Database, then it will include bibliographic, chemical, 
# crystal, experimental, refinement or atomic coordinate data resulting 
# from the CCDC's data processing and validation procedures.
#
#######################################################################

data_KAFLEJ
_symmetry_cell_setting           monoclinic
_symmetry_space_group_name_H-M   'P 21/c'
_symmetry_Int_Tables_number      14
_space_group_name_Hall           '-P 2ybc'
loop_
_symmetry_equiv_pos_site_id
_symmetry_equiv_pos_as_xyz
1 x,y,z
2 -x,1/2+y,1/2-z
3 -x,-y,-z
4 x,1/2-y,1/2+z
_cell_length_a                   16.854(6)
_cell_length_b                   11.891(4)
_cell_length_c                   16.280(5)
_cell_angle_alpha                90
_cell_angle_beta                 118.727(3)
_cell_angle_gamma                90
_cell_volume                     2861.12
loop_
_atom_site_label
_atom_site_type_symbol
_atom_site_fract_x
_atom_site_fract_y
_atom_site_fract_z
Cu1 Cu 0.19053(5) 0.22547(7) 0.19462(5)
Cu2 Cu 0.17221(5) -0.07331(7) 0.30417(5)
N1 N 0.1271(3) 0.0834(4) 0.1389(3)
N2 N 0.1192(3) -0.0146(4) 0.1753(3)
N3 N 0.1058(4) -0.0520(4) 0.0327(4)
N4 N 0.1816(4) 0.2357(4) 0.0653(4)
N5 N 0.3033(4) 0.3244(4) 0.2567(4)
N6 N 0.2483(3) 0.1644(4) 0.3229(4)
N7 N 0.2428(3) 0.0647(4) 0.3580(3)
N8 N 0.3848(3) 0.1310(5) 0.4509(4)
N9 N 0.2714(3) -0.1352(4) 0.4264(4)
N10 N 0.1413(3) -0.2190(5) 0.2340(4)
C1 C 0.1063(4) -0.0932(5) 0.1106(4)
C2 C 0.1189(4) 0.0584(6) 0.0541(4)
C3 C 0.1412(4) 0.1523(6) 0.0081(4)
C4 C 0.1217(5) 0.1445(6) -0.0918(4)
H1 H 0.0885 0.2116 -0.1260
H2 H 0.0850 0.0774 -0.1209
H3 H 0.1787 0.1393 -0.0938
C5 C 0.2177(5) 0.3332(6) 0.0380(5)
H4 H 0.1731 0.3575 -0.0259
H5 H 0.2738 0.3111 0.0371
C6 C 0.2379(5) 0.4308(6) 0.1057(5)
H6 H 0.1833 0.4448 0.1123
H7 H 0.2483 0.4988 0.0771
C7 C 0.3191(5) 0.4167(6) 0.2047(5)
H8 H 0.3742 0.4001 0.1996
H9 H 0.3294 0.4880 0.2399
C8 C 0.4492(4) 0.3608(6) 0.4017(5)
H10 H 0.4381 0.4418 0.4016
H11 H 0.4900 0.3474 0.3756
H12 H 0.4769 0.3324 0.4661
C9 C 0.3610(4) 0.3010(5) 0.3431(5)
C10 C 0.3343(4) 0.2011(5) 0.3792(4)
C11 C 0.3246(4) 0.0459(5) 0.4336(4)
C12 C 0.3371(4) -0.0677(6) 0.4759(4)
C13 C 0.4225(4) -0.0938(6) 0.5644(5)
H13 H 0.4093 -0.1474 0.6020
H14 H 0.4471 -0.0244 0.6003
H15 H 0.4669 -0.1266 0.5488
C14 C 0.2724(5) -0.2555(5) 0.4514(5)
H16 H 0.2835 -0.2612 0.5167
H17 H 0.3223 -0.2945 0.4475
C15 C 0.1815(5) -0.3133(6) 0.3849(5)
H18 H 0.1811 -0.3888 0.4104
H19 H 0.1320 -0.2694 0.3857
C16 C 0.1605(5) -0.3269(6) 0.2830(5)
H20 H 0.2129 -0.3626 0.2814
H21 H 0.1077 -0.3773 0.2501
C17 C 0.0922(5) -0.3056(6) 0.0759(5)
H22 H 0.0586 -0.3644 0.0884
H23 H 0.1486 -0.3371 0.0823
H24 H 0.0553 -0.2770 0.0121
C18 C 0.1135(4) -0.2115(5) 0.1444(5)
S1 S 0.05398(12) -0.01314(15) 0.35571(14)
C19 C -0.0280(4) -0.1043(5) 0.3321(4)
N11 N -0.0865(4) -0.1663(5) 0.3181(4)
N11A N 0.0865(4) 0.3337(5) 0.1819(4)
Cu1A Cu -0.19053(5) -0.27453(7) 0.30538(5)
Cl1 Cl 0.38239(14) -0.21665(19) 0.26622(14)
O1 O 0.3401(5) -0.1169(6) 0.2770(6)
O2 O 0.4560(4) -0.1867(5) 0.2488(5)
O3 O 0.4132(5) -0.2870(8) 0.3468(5)
O4 O 0.3156(4) -0.2794(6) 0.1882(4)
N12 N 0.3338(5) 0.4569(7) 0.5019(6)
C20 C 0.3656(6) 0.4392(7) 0.5806(7)
C21 C 0.4074(7) 0.4144(8) 0.6797(7)
H25 H 0.4344 0.3391 0.6913
H26 H 0.3615 0.4170 0.7003
H27 H 0.4546 0.4701 0.7147
loop_
_geom_bond_atom_site_label_1
_geom_bond_atom_site_label_2
_geom_bond_site_symmetry_1
_geom_bond_site_symmetry_2
Cu1 N1 1_555 1_555
Cu2 N2 1_555 1_555
N1 N2 1_555 1_555
N2 C1 1_555 1_555
N3 C1 1_555 1_555
N4 Cu1 1_555 1_555
N5 Cu1 1_555 1_555
N6 Cu1 1_555 1_555
N7 Cu2 1_555 1_555
N8 C10 1_555 1_555
N9 Cu2 1_555 1_555
N10 Cu2 1_555 1_555
C1 C18 1_555 1_555
C2 N1 1_555 1_555
C3 N4 1_555 1_555
C4 C3 1_555 1_555
H1 C4 1_555 1_555
H2 C4 1_555 1_555
H3 C4 1_555 1_555
C5 N4 1_555 1_555
H4 C5 1_555 1_555
H5 C5 1_555 1_555
C6 C5 1_555 1_555
H6 C6 1_555 1_555
H7 C6 1_555 1_555
C7 N5 1_555 1_555
H8 C7 1_555 1_555
H9 C7 1_555 1_555
C8 H10 1_555 1_555
H11 C8 1_555 1_555
H12 C8 1_555 1_555
C9 N5 1_555 1_555
C10 N6 1_555 1_555
C11 N7 1_555 1_555
C12 N9 1_555 1_555
C13 C12 1_555 1_555
H13 C13 1_555 1_555
H14 C13 1_555 1_555
H15 C13 1_555 1_555
C14 N9 1_555 1_555
H16 C14 1_555 1_555
H17 C14 1_555 1_555
C15 C14 1_555 1_555
H18 C15 1_555 1_555
H19 C15 1_555 1_555
C16 N10 1_555 1_555
H20 C16 1_555 1_555
H21 C16 1_555 1_555
C17 H22 1_555 1_555
H23 C17 1_555 1_555
H24 C17 1_555 1_555
C18 N10 1_555 1_555
S1 Cu2 1_555 1_555
C19 S1 1_555 1_555
N11 C19 1_555 1_555
Cl1 O1 1_555 1_555
O2 Cl1 1_555 1_555
O3 Cl1 1_555 1_555
O4 Cl1 1_555 1_555
N12 C20 1_555 1_555
C20 C21 1_555 1_555
C21 H25 1_555 1_555
H26 C21 1_555 1_555
H27 C21 1_555 1_555
N11A Cu1 1_555 1_555
Cu1A N11 1_555 1_555
N3 C2 1_555 1_555
N6 N7 1_555 1_555
N8 C11 1_555 1_555
C2 C3 1_555 1_555
C6 C7 1_555 1_555
C8 C9 1_555 1_555
C9 C10 1_555 1_555
C11 C12 1_555 1_555
C15 C16 1_555 1_555
C17 C18 1_555 1_555

#END
