
#######################################################################
#
#                 Cambridge Crystallographic Data Centre
#                                CCDC 
#
#######################################################################
#
# If this CIF has been generated from an entry in the Cambridge 
# Structural Database, then it will include bibliographic, chemical, 
# crystal, experimental, refinement or atomic coordinate data resulting 
# from the CCDC's data processing and validation procedures.
#
#######################################################################

data_KAFPUE
_symmetry_cell_setting           triclinic
_symmetry_space_group_name_H-M   'P -1'
_symmetry_Int_Tables_number      2
_space_group_name_Hall           '-P 1'
loop_
_symmetry_equiv_pos_site_id
_symmetry_equiv_pos_as_xyz
1 x,y,z
2 -x,-y,-z
_cell_length_a                   6.9439(14)
_cell_length_b                   7.8714(16)
_cell_length_c                   9.840(2)
_cell_angle_alpha                103.45(3)
_cell_angle_beta                 98.74(3)
_cell_angle_gamma                98.23(3)
_cell_volume                     508.021
loop_
_atom_site_label
_atom_site_type_symbol
_atom_site_fract_x
_atom_site_fract_y
_atom_site_fract_z
N1 N -0.1255(4) 0.7321(3) 0.5330(3)
N2 N 0.0922(4) 0.6174(4) 0.6799(3)
O1 O -0.3493(4) 0.6706(3) 0.2157(2)
C1 C -0.2683(5) 0.8149(4) 0.1981(3)
Mn1 Mn 0.0000 1.0000 0.5000
Mn2 Mn -0.35738(7) 0.52165(6) 0.36669(4)
N3 N -0.3204(4) 1.2521(3) 0.5593(3)
N4 N -0.3908(4) 1.3774(3) 0.5446(3)
N5 N -0.2545(5) 1.1294(4) 0.5729(3)
N6 N -0.4553(4) 0.7137(3) -0.1990(3)
C2 C -0.3833(5) 0.8684(4) -0.2237(3)
H1 H -0.4078 0.8793 -0.3165
C3 C -0.3070(4) 0.8394(4) 0.0491(3)
C4 C -0.4167(5) 0.7033(4) -0.0632(3)
H2 H -0.4673 0.5974 -0.0437
C5 C -0.2349(5) 0.9978(4) 0.0204(3)
H3 H -0.1609 1.0930 0.0930
C6 C -0.2748(5) 1.0121(4) -0.1182(3)
H4 H -0.2288 1.1176 -0.1399
O2 O -0.1579(4) 0.9393(3) 0.2908(2)
N7 N -0.0139(4) 0.6740(3) 0.6072(3)
N1A N 0.1255(4) 1.2679(3) 0.4670(3)
N2A N -0.0922(4) 1.3826(4) 0.3201(3)
N2A_2 N -0.0922(4) 0.3826(4) 0.3201(3)
N2_2 N 0.0922(4) 1.6174(4) 0.6799(3)
O1A O 0.3493(4) 1.3294(3) 0.7843(2)
C1A C 0.2683(5) 1.1851(4) 0.8019(3)
Mn2A Mn 0.35738(7) 1.47835(6) 0.63331(4)
Mn2A_2 Mn 0.35738(7) 0.47835(6) 0.63331(4)
Mn2A_3 Mn -0.64262(7) 1.47835(6) 0.63331(4)
Mn2_2 Mn -0.35738(7) 1.52165(6) 0.36669(4)
Mn2A_4 Mn -0.64262(7) 0.47835(6) -0.36669(4)
Mn2_3 Mn 0.64262(7) 0.52165(6) 0.36669(4)
Mn2_4 Mn 0.64262(7) 1.52165(6) 1.36669(4)
N3A N 0.3204(4) 0.7479(3) 0.4407(3)
N4A N 0.3908(4) 0.6226(3) 0.4554(3)
N4A_2 N -0.6092(4) 0.6226(3) 0.4554(3)
N4_2 N -0.3908(4) 0.3774(3) 0.5446(3)
N4_3 N 0.6092(4) 1.3774(3) 0.5446(3)
N4A_3 N 0.3908(4) 1.6226(3) 0.4554(3)
N5A N 0.2545(5) 0.8706(4) 0.4271(3)
N6A N 0.4553(4) 1.2863(3) 1.1990(3)
N6A_2 N -0.5447(4) 0.2863(3) 0.1990(3)
N6_2 N 0.5447(4) 1.7137(3) 0.8010(3)
C2A C 0.3833(5) 1.1316(4) 1.2237(3)
H1A H 0.4078 1.1207 1.3165
C3A C 0.3070(4) 1.1606(4) 0.9509(3)
C4A C 0.4167(5) 1.2967(4) 1.0632(3)
H2A H 0.4673 1.4026 1.0437
C5A C 0.2349(5) 1.0022(4) 0.9796(3)
H3A H 0.1609 0.9070 0.9070
C6A C 0.2748(5) 0.9879(4) 1.1182(3)
H4A H 0.2288 0.8824 1.1399
O2A O 0.1579(4) 1.0607(3) 0.7092(2)
N7A N 0.0139(4) 1.3260(3) 0.3928(3)
O3 O 0.0000 0.5000 0.0000
loop_
_geom_bond_atom_site_label_1
_geom_bond_atom_site_label_2
_geom_bond_site_symmetry_1
_geom_bond_site_symmetry_2
N1 Mn1 1_555 1_555
N2 N7 1_555 1_555
O1 C1 1_555 1_555
C1 C3 1_555 1_555
Mn1 N5 1_555 1_555
Mn2 N1 1_555 1_555
N3 N4 1_555 1_555
N4 Mn2A_3 1_555 1_555
N5 N3 1_555 1_555
N6 C2 1_555 1_555
C2 H1 1_555 1_555
C3 C4 1_555 1_555
C4 N6 1_555 1_555
H2 C4 1_555 1_555
C5 C3 1_555 1_555
H3 C5 1_555 1_555
C6 C2 1_555 1_555
H4 C6 1_555 1_555
O2 C1 1_555 1_555
N7 N1 1_555 1_555
N1A Mn1 1_555 1_555
N2A Mn2_2 1_555 1_555
N2A_2 Mn2 1_555 1_555
N2_2 Mn2A 1_555 1_555
O1A C1A 1_555 1_555
C1A C3A 1_555 1_555
Mn2A N1A 1_555 1_555
Mn2A_2 N2 1_555 1_555
Mn2_2 N4 1_555 1_555
Mn2A_4 N6 1_555 1_555
Mn2_3 N4A 1_555 1_555
Mn2_4 N6A 1_555 1_555
N3A N4A 1_555 1_555
N4A Mn2A_2 1_555 1_555
N4A_2 Mn2 1_555 1_555
N4_2 Mn2 1_555 1_555
N4_3 Mn2A 1_555 1_555
N4A_3 Mn2A 1_555 1_555
N5A Mn1 1_555 1_555
N6A C2A 1_555 1_555
N6A_2 Mn2 1_555 1_555
N6_2 Mn2A 1_555 1_555
C2A H1A 1_555 1_555
C3A C4A 1_555 1_555
C4A N6A 1_555 1_555
H2A C4A 1_555 1_555
C5A C3A 1_555 1_555
H3A C5A 1_555 1_555
C6A C2A 1_555 1_555
H4A C6A 1_555 1_555
O2A Mn1 1_555 1_555
N7A N1A 1_555 1_555
O1 Mn2 1_555 1_555
Mn1 O2 1_555 1_555
C5 C6 1_555 1_555
N2A N7A 1_555 1_555
O1A Mn2A 1_555 1_555
C1A O2A 1_555 1_555
N3A N5A 1_555 1_555
C5A C6A 1_555 1_555

#END
