
#######################################################################
#
#                 Cambridge Crystallographic Data Centre
#                                CCDC 
#
#######################################################################
#
# If this CIF has been generated from an entry in the Cambridge 
# Structural Database, then it will include bibliographic, chemical, 
# crystal, experimental, refinement or atomic coordinate data resulting 
# from the CCDC's data processing and validation procedures.
#
#######################################################################

data_KAFPIR
_symmetry_cell_setting           triclinic
_symmetry_space_group_name_H-M   'P 1'
_symmetry_Int_Tables_number      1
_space_group_name_Hall           'P 1'
loop_
_symmetry_equiv_pos_site_id
_symmetry_equiv_pos_as_xyz
1 x,y,z
_cell_length_a                   11.7834(1)
_cell_length_b                   12.3597(2)
_cell_length_c                   15.4799(2)
_cell_angle_alpha                83.0758(7)
_cell_angle_beta                 67.8400(8)
_cell_angle_gamma                89.7123(5)
_cell_volume                     2070.72
loop_
_atom_site_label
_atom_site_type_symbol
_atom_site_fract_x
_atom_site_fract_y
_atom_site_fract_z
Na1 Na 0.5841(2) 0.63159(18) 0.76204(17)
Na2 Na 0.8387(2) 0.4547(2) 0.59337(18)
Na3 Na -0.0899(4) 0.9787(5) 0.8035(3)
Na4 Na 0.1461(2) 0.19492(19) 0.86796(17)
Na5 Na 0.6738(2) 0.1410(2) 0.96492(19)
S1 S 0.57062(13) 0.77332(11) 0.94984(10)
S2 S 0.35606(13) 0.15670(12) 0.99537(11)
S3 S -0.24000(13) 0.41093(11) 0.96298(10)
S4 S -0.05624(14) 1.01912(12) 0.98826(12)
S5 S 0.57422(15) 0.56859(12) 0.56453(11)
S6 S -0.05882(16) 0.81872(15) 0.60597(15)
S7 S 0.15090(13) 1.41958(13) 0.56645(11)
S8 S 0.75650(15) 1.18890(13) 0.58733(11)
N1 N 0.1518(5) 0.7897(4) 0.8721(4)
N2 N 0.4415(7) 0.0678(6) 0.6875(5)
C1 C 0.4379(5) 0.7220(5) 1.0465(4)
C2 C 0.4335(5) 0.6156(5) 1.0883(4)
H1 H 0.4977 0.5691 1.0599
C3 C 0.3377(5) 0.5761(5) 1.1702(4)
C4 C 0.2442(5) 0.6463(4) 1.2123(4)
C5 C 0.2452(5) 0.7545(5) 1.1703(4)
C6 C 0.3427(6) 0.7920(5) 1.0866(4)
H2 H 0.3448 0.8643 1.0569
C7 C 0.3321(6) 0.4570(5) 1.2135(4)
H3 H 0.4168 0.4328 1.1990
H4 H 0.2910 0.4525 1.2827
C8 C 0.2646(5) 0.3801(5) 1.1784(4)
C9 C 0.3317(5) 0.3195(4) 1.1052(4)
H5 H 0.4186 0.3283 1.0775
C10 C 0.2714(5) 0.2474(4) 1.0737(4)
C11 C 0.1445(6) 0.2365(5) 1.1100(4)
H6 H 0.1047 0.1886 1.0857
C12 C 0.0763(5) 0.2943(5) 1.1806(4)
C13 C 0.1372(5) 0.3643(5) 1.2170(4)
C14 C -0.0628(5) 0.2819(5) 1.2232(4)
H7 H -0.0912 0.2844 1.2918
H8 H -0.0883 0.2096 1.2137
C15 C -0.1258(5) 0.3712(5) 1.1806(4)
C16 C -0.1508(5) 0.3527(5) 1.1014(4)
H9 H -0.1290 0.2865 1.0750
C17 C -0.2075(5) 0.4316(5) 1.0621(4)
C18 C -0.2419(5) 0.5291(4) 1.1008(4)
H10 H -0.2817 0.5817 1.0735
C19 C -0.2180(5) 0.5496(5) 1.1794(4)
C20 C -0.1637(5) 0.4656(5) 1.2197(4)
C21 C -0.2516(5) 0.6577(4) 1.2185(4)
H11 H -0.3229 0.6852 1.2048
H12 H -0.2771 0.6447 1.2878
C22 C -0.1487(5) 0.7451(5) 1.1792(4)
C23 C -0.1482(6) 0.8274(5) 1.1103(4)
H13 H -0.2121 0.8275 1.0870
C24 C -0.0578(6) 0.9092(5) 1.0744(4)
C25 C 0.0375(6) 0.9107(5) 1.1069(4)
H14 H 0.1007 0.9664 1.0810
C26 C 0.0401(5) 0.8305(5) 1.1772(4)
C27 C -0.0560(5) 0.7517(5) 1.2153(4)
C28 C 0.1425(5) 0.8314(5) 1.2136(4)
H15 H 0.1073 0.8109 1.2826
H16 H 0.1784 0.9066 1.2009
C29 C 0.0760(6) 0.8662(6) 0.5049(6)
C30 C 0.1686(6) 0.7993(5) 0.4683(5)
H17 H 0.1651 0.7274 0.4990
C31 C 0.2702(6) 0.8347(5) 0.3851(5)
C32 C 0.2710(6) 0.9414(5) 0.3436(5)
C33 C 0.1773(6) 1.0126(5) 0.3818(4)
C34 C 0.0778(6) 0.9735(5) 0.4632(5)
H18 H 0.0119 1.0191 0.4902
C35 C 0.1804(6) 1.1276(5) 0.3365(5)
H19 H 0.0953 1.1498 0.3492
H20 H 0.2234 1.1306 0.2675
C36 C 0.2454(6) 1.2083(5) 0.3730(4)
C37 C 0.1788(6) 1.2666(5) 0.4442(5)
H21 H 0.0919 1.2583 0.4696
C38 C 0.2356(5) 1.3373(5) 0.4798(4)
C39 C 0.3646(5) 1.3502(5) 0.4437(4)
H22 H 0.4038 1.3970 0.4694
C40 C 0.4344(5) 1.2934(5) 0.3698(4)
C41 C 0.3742(5) 1.2260(5) 0.3348(4)
C42 C 0.5743(5) 1.3109(5) 0.3310(4)
H23 H 0.6064 1.3116 0.2619
H24 H 0.5949 1.3831 0.3440
C43 C 0.6373(5) 1.2247(5) 0.3721(4)
C44 C 0.6606(5) 1.2426(5) 0.4523(4)
H25 H 0.6362 1.3077 0.4800
C45 C 0.7195(5) 1.1646(5) 0.4906(4)
C46 C 0.7505(5) 1.0663(5) 0.4541(4)
H26 H 0.7894 1.0138 0.4824
C47 C 0.7256(5) 1.0436(5) 0.3774(4)
C48 C 0.7618(5) 0.9362(5) 0.3385(4)
H27 H 0.8340 0.9109 0.3520
H28 H 0.7872 0.9492 0.2693
C49 C 0.6707(5) 1.1244(5) 0.3366(4)
C50 C 0.6617(5) 0.8448(4) 0.3773(4)
C51 C 0.6617(5) 0.7623(5) 0.4489(4)
H29 H 0.7232 0.7638 0.4745
C52 C 0.5705(6) 0.6786(5) 0.4818(4)
C53 C 0.4752(5) 0.6801(5) 0.4483(4)
H30 H 0.4112 0.6251 0.4740
C54 C 0.4728(5) 0.7593(5) 0.3792(4)
C55 C 0.5689(5) 0.8405(5) 0.3422(4)
C56 C 0.3700(6) 0.7571(5) 0.3423(4)
H31 H 0.4051 0.7766 0.2731
H32 H 0.3333 0.6820 0.3561
C57 C 0.2784(5) 0.6465(4) 0.9075(4)
C58 C 0.1540(5) 0.6967(5) 0.9457(4)
H33 H 0.1455 0.7275 1.0046
C59 C 0.0462(6) 0.6162(6) 0.9673(5)
H34 H 0.0429 0.5587 1.0188
H35 H -0.0317 0.6544 0.9876
C60 C 0.2676(8) 0.0610(10) 0.6474(6)
C61 C 0.4030(6) 0.0480(6) 0.6105(4)
H36 H 0.4427 0.1058 0.5561
C62 C 0.4419(7) -0.0607(7) 0.5794(5)
H37 H 0.4151 -0.0726 0.5278
H38 H 0.5325 -0.0624 0.5552
O1 O 0.6132(4) 0.6872(3) 0.8918(3)
O2 O 0.5360(4) 0.8697(3) 0.8998(3)
O3 O 0.6596(4) 0.8048(3) 0.9891(3)
O4 O 0.2946(4) 0.1461(4) 0.9316(3)
O5 O 0.4824(4) 0.1994(4) 0.9518(4)
O6 O 0.3457(5) 0.0516(4) 1.0550(4)
O7 O -0.3694(4) 0.4314(4) 0.9868(3)
O8 O -0.1595(4) 0.4886(4) 0.8861(3)
O9 O -0.2111(4) 0.2992(3) 0.9454(3)
O10 O 0.0407(5) 0.9979(5) 0.9011(4)
O11 O -0.1761(4) 1.0169(4) 0.9830(4)
O12 O -0.0288(6) 1.1174(4) 1.0181(5)
O13 O 0.1558(4) 0.6075(3) 1.2974(3)
O14 O 0.0665(4) 0.4135(3) 1.2932(3)
O15 O -0.1499(4) 0.4832(3) 1.3015(3)
O16 O -0.0573(4) 0.6794(3) 1.2906(3)
O17 O 0.4883(6) 0.5933(4) 0.6570(3)
O18 O 0.6962(6) 0.5653(5) 0.5635(5)
O19 O 0.5298(5) 0.4730(4) 0.5399(3)
O20 O -0.1020(6) 0.9106(5) 0.6665(5)
O21 O -0.0213(5) 0.7352(5) 0.6586(4)
O22 O -0.1431(7) 0.7885(8) 0.5716(5)
O23 O 0.1981(4) 1.4008(4) 0.6427(3)
O24 O 0.0234(4) 1.3834(4) 0.6000(3)
O25 O 0.1762(4) 1.5333(4) 0.5224(3)
O26 O 0.7221(4) 1.2992(4) 0.6078(3)
O27 O 0.8857(4) 1.1736(4) 0.5609(4)
O28 O 0.6817(5) 1.1072(4) 0.6645(3)
O29 O 0.5756(4) 0.9096(3) 0.2656(3)
O30 O 0.3635(4) 0.9770(4) 0.2594(3)
O31 O 0.4427(4) 1.1763(3) 0.2572(3)
O32 O 0.6597(4) 1.1098(4) 0.2531(3)
O33 O 0.3602(3) 0.6879(3) 0.8384(3)
O34 O 0.2828(4) 0.5561(4) 0.9585(3)
O35 O 0.0625(4) 0.5687(4) 0.8847(3)
O36 O 0.2195(9) 0.0948(14) 0.7265(5)
O37 O 0.2182(6) 0.0597(8) 0.5958(6)
O38 O 0.3901(4) -0.1458(4) 0.6557(3)
O39 O 0.7884(4) 0.5562(4) 0.7250(3)
O40 O 0.4935(5) 0.4740(4) 0.8778(3)
O41 O 0.6050(4) 0.8236(4) 0.6992(4)
O42 O 0.9657(5) 0.5858(5) 0.4749(4)
O43 O -0.2880(5) 1.0461(4) 0.8338(3)
O44 O -0.0980(5) 0.7895(7) 0.8611(4)
O45 O -0.0045(5) 1.1213(6) 0.6899(4)
O46 O 0.0069(5) 0.2629(5) 0.7999(4)
O47 O 0.1890(15) 0.3669(5) 0.8871(11)
O49 O 0.5608(4) 0.0079(4) 1.0840(3)
O24_2 O 1.0234(4) 0.3834(4) 0.6000(3)
O26_2 O 0.7221(4) 0.2992(4) 0.6078(3)
O10_2 O 0.0407(5) -0.0021(5) 0.9011(4)
O12_2 O -0.0288(6) 0.1174(4) 1.0181(5)
O9_2 O 0.7889(4) 0.2992(3) 0.9454(3)
O11_2 O 0.8239(4) 0.0169(4) 0.9830(4)
O43_2 O 0.7120(5) 0.0461(4) 0.8338(3)
Na5_2 Na -0.3262(2) 0.1410(2) 0.96492(19)
Na4_2 Na 0.1461(2) 1.19492(19) 0.86796(17)
Na5_3 Na -0.3262(2) 1.1410(2) 0.96492(19)
Na2_2 Na -0.1613(2) 1.4547(2) 0.59337(18)
Na2_3 Na 0.8387(2) 1.4547(2) 0.59337(18)
O48 O 0.3395(17) 0.2646(10) 0.7140(13)
O50 O 0.3349(4) 0.9406(3) 0.8656(3)
O51 O 0.1878(5) 0.7253(5) 0.6954(3)
O52 O 0.2675(4) 0.5402(4) 0.7141(3)
O53 O 0.5135(7) 0.3099(5) 0.7744(5)
loop_
_geom_bond_atom_site_label_1
_geom_bond_atom_site_label_2
_geom_bond_site_symmetry_1
_geom_bond_site_symmetry_2
Na1 O1 1_555 1_555
Na2 O18 1_555 1_555
Na3 O10 1_555 1_555
Na4 O4 1_555 1_555
Na5 O5 1_555 1_555
S1 C1 1_555 1_555
S2 C10 1_555 1_555
S3 C17 1_555 1_555
S4 C24 1_555 1_555
S5 C52 1_555 1_555
S6 C29 1_555 1_555
S7 C38 1_555 1_555
S8 C45 1_555 1_555
N1 C58 1_555 1_555
N2 C61 1_555 1_555
C1 C2 1_555 1_555
C2 H1 1_555 1_555
C3 C2 1_555 1_555
C4 C3 1_555 1_555
C5 C4 1_555 1_555
C6 C1 1_555 1_555
H2 C6 1_555 1_555
C7 C3 1_555 1_555
H3 C7 1_555 1_555
H4 C7 1_555 1_555
C8 C7 1_555 1_555
C9 C8 1_555 1_555
H5 C9 1_555 1_555
C10 C9 1_555 1_555
C11 C10 1_555 1_555
H6 C11 1_555 1_555
C12 C11 1_555 1_555
C13 C8 1_555 1_555
C14 C12 1_555 1_555
H7 C14 1_555 1_555
H8 C14 1_555 1_555
C15 C14 1_555 1_555
C16 C15 1_555 1_555
H9 C16 1_555 1_555
C17 C16 1_555 1_555
C18 C17 1_555 1_555
H10 C18 1_555 1_555
C19 C18 1_555 1_555
C20 C15 1_555 1_555
C21 C19 1_555 1_555
H11 C21 1_555 1_555
H12 C21 1_555 1_555
C22 C21 1_555 1_555
C23 C22 1_555 1_555
H13 C23 1_555 1_555
C24 C23 1_555 1_555
C25 C24 1_555 1_555
H14 C25 1_555 1_555
C26 C25 1_555 1_555
C27 C22 1_555 1_555
C28 C5 1_555 1_555
H15 C28 1_555 1_555
H16 C28 1_555 1_555
C29 C30 1_555 1_555
C30 H17 1_555 1_555
C31 C30 1_555 1_555
C32 C31 1_555 1_555
C33 C32 1_555 1_555
C34 C29 1_555 1_555
H18 C34 1_555 1_555
C35 C33 1_555 1_555
H19 C35 1_555 1_555
H20 C35 1_555 1_555
C36 C35 1_555 1_555
C37 C36 1_555 1_555
H21 C37 1_555 1_555
C38 C37 1_555 1_555
C39 C38 1_555 1_555
H22 C39 1_555 1_555
C40 C39 1_555 1_555
C41 C36 1_555 1_555
C42 C40 1_555 1_555
H23 C42 1_555 1_555
H24 C42 1_555 1_555
C43 C42 1_555 1_555
C44 C43 1_555 1_555
H25 C44 1_555 1_555
C45 C44 1_555 1_555
C46 C45 1_555 1_555
H26 C46 1_555 1_555
C47 C46 1_555 1_555
C48 C47 1_555 1_555
H27 C48 1_555 1_555
H28 C48 1_555 1_555
C49 C43 1_555 1_555
C50 C48 1_555 1_555
C51 C50 1_555 1_555
H29 C51 1_555 1_555
C52 C51 1_555 1_555
C53 C52 1_555 1_555
H30 C53 1_555 1_555
C54 C53 1_555 1_555
C55 C50 1_555 1_555
C56 C31 1_555 1_555
H31 C56 1_555 1_555
H32 C56 1_555 1_555
C57 C58 1_555 1_555
C58 H33 1_555 1_555
C59 C58 1_555 1_555
H34 C59 1_555 1_555
H35 C59 1_555 1_555
C60 C61 1_555 1_555
C61 H36 1_555 1_555
C62 C61 1_555 1_555
H37 C62 1_555 1_555
H38 C62 1_555 1_555
O1 S1 1_555 1_555
O2 S1 1_555 1_555
O3 S1 1_555 1_555
O4 S2 1_555 1_555
O5 S2 1_555 1_555
O6 S2 1_555 1_555
O7 S3 1_555 1_555
O8 S3 1_555 1_555
O9 S3 1_555 1_555
O10 S4 1_555 1_555
O11 Na3 1_555 1_555
O12 S4 1_555 1_555
O13 C4 1_555 1_555
O14 C13 1_555 1_555
O15 C20 1_555 1_555
O16 C27 1_555 1_555
O17 Na1 1_555 1_555
O18 S5 1_555 1_555
O19 S5 1_555 1_555
O20 Na3 1_555 1_555
O21 S6 1_555 1_555
O22 S6 1_555 1_555
O23 S7 1_555 1_555
O24 S7 1_555 1_555
O25 S7 1_555 1_555
O26 S8 1_555 1_555
O27 S8 1_555 1_555
O28 S8 1_555 1_555
O29 C55 1_555 1_555
O30 C32 1_555 1_555
O31 C41 1_555 1_555
O32 C49 1_555 1_555
O33 Na1 1_555 1_555
O34 C57 1_555 1_555
O35 C59 1_555 1_555
O36 Na4 1_555 1_555
O37 C60 1_555 1_555
O38 C62 1_555 1_555
O39 Na1 1_555 1_555
O40 Na1 1_555 1_555
O41 Na1 1_555 1_555
O42 Na2 1_555 1_555
O43 Na3 1_555 1_555
O44 Na3 1_555 1_555
O45 Na3 1_555 1_555
O46 Na4 1_555 1_555
O47 Na4 1_555 1_555
O49 Na5 1_555 1_555
O24_2 Na2 1_555 1_555
O26_2 Na2 1_555 1_555
O10_2 Na4 1_555 1_555
O12_2 Na4 1_555 1_555
O9_2 Na5 1_555 1_555
O11_2 Na5 1_555 1_555
O43_2 Na5 1_555 1_555
Na5_2 O9 1_555 1_555
Na4_2 O10 1_555 1_555
Na5_3 O11 1_555 1_555
Na2_2 O24 1_555 1_555
Na2_3 O26 1_555 1_555
Na2 O39 1_555 1_555
S4 O11 1_555 1_555
S5 O17 1_555 1_555
S6 O20 1_555 1_555
C5 C6 1_555 1_555
C12 C13 1_555 1_555
C19 C20 1_555 1_555
C26 C28 1_555 1_555
C26 C27 1_555 1_555
C33 C34 1_555 1_555
C40 C41 1_555 1_555
C47 C49 1_555 1_555
C54 C56 1_555 1_555
C54 C55 1_555 1_555
C57 O33 1_555 1_555
C60 O36 1_555 1_555
O12 Na4_2 1_555 1_555
O43 Na5_3 1_555 1_555

#END
