
#######################################################################
#
#                 Cambridge Crystallographic Data Centre
#                                CCDC 
#
#######################################################################
#
# If this CIF has been generated from an entry in the Cambridge 
# Structural Database, then it will include bibliographic, chemical, 
# crystal, experimental, refinement or atomic coordinate data resulting 
# from the CCDC's data processing and validation procedures.
#
#######################################################################

data_KAFQAL
_symmetry_cell_setting           monoclinic
_symmetry_space_group_name_H-M   'P 21/c'
_symmetry_Int_Tables_number      14
_space_group_name_Hall           '-P 2ybc'
loop_
_symmetry_equiv_pos_site_id
_symmetry_equiv_pos_as_xyz
1 x,y,z
2 -x,1/2+y,1/2-z
3 -x,-y,-z
4 x,1/2-y,1/2+z
_cell_length_a                   11.676(2)
_cell_length_b                   7.0135(14)
_cell_length_c                   14.839(3)
_cell_angle_alpha                90
_cell_angle_beta                 102.06(3)
_cell_angle_gamma                90
_cell_volume                     1188.34
loop_
_atom_site_label
_atom_site_type_symbol
_atom_site_fract_x
_atom_site_fract_y
_atom_site_fract_z
N1 N 0.9335(3) 1.2131(4) 0.5262(2)
N2 N 0.8510(3) 1.1363(4) 0.4803(2)
O1 O 1.35683(18) 0.8740(3) 0.90314(14)
O2 O 1.40723(18) 0.5690(3) 0.93464(14)
C1 C 1.3426(3) 0.6993(4) 0.8884(2)
C2 C 1.2428(3) 0.4513(4) 0.7743(2)
H1 H 1.2948 0.3588 0.8032
C3 C 1.2457(3) 0.6360(4) 0.8097(2)
C4 C 1.1606(3) 0.7666(4) 0.7684(2)
H2 H 1.1577 0.8885 0.7925
Mn1 Mn 0.58773(4) 1.00188(7) 0.41751(3)
Mn2 Mn 0.5000 1.5000 0.5000
Mn3 Mn 1.0000 0.5000 0.5000
N3 N 0.5270(2) 1.3036(3) 0.38037(17)
N4 N 0.7367(2) 0.6650(4) 0.49544(17)
N5 N 0.4957(2) 1.3619(3) 0.30354(18)
N6 N 0.6353(2) 0.6991(3) 0.46417(18)
N7 N 1.0810(2) 0.5359(3) 0.65153(18)
N8 N 0.8347(2) 0.6342(4) 0.5274(2)
C5 C 1.0801(3) 0.7096(5) 0.6902(2)
H3 H 1.0226 0.7959 0.6631
C6 C 1.1604(3) 0.4086(5) 0.6948(2)
H4 H 1.1600 0.2865 0.6703
N9 N 0.7713(3) 1.0578(4) 0.4324(2)
N10 N 0.4647(3) 1.4191(4) 0.2293(2)
N1B N 0.0665(3) 0.7869(4) 0.4738(2)
N1_2 N 0.9335(3) 0.2131(4) 0.5262(2)
N1B_2 N 1.0665(3) 0.7869(4) 0.4738(2)
N2B N 0.1490(3) 0.8637(4) 0.5197(2)
O1C O 0.35683(18) 0.6260(3) 0.40314(14)
O1A O 0.64317(18) 1.3740(3) 0.59686(14)
O1C_2 O 0.35683(18) 1.6260(3) 0.40314(14)
O2C O 0.40723(18) 0.9310(3) 0.43464(14)
O2A O 0.59277(18) 1.0690(3) 0.56536(14)
C1C C 0.3426(3) 0.8007(4) 0.3884(2)
C2C C 0.2428(3) 1.0487(4) 0.2743(2)
H1C H 0.2948 1.1412 0.3032
C3C C 0.2457(3) 0.8640(4) 0.3097(2)
C4C C 0.1606(3) 0.7334(4) 0.2684(2)
H2C H 0.1577 0.6115 0.2925
Mn1B Mn 0.41227(4) 0.99812(7) 0.58249(3)
Mn1A Mn 0.41227(4) 1.50188(7) 0.08249(3)
Mn1A_2 Mn 1.41227(4) 0.50188(7) 1.08249(3)
Mn1C Mn 0.58773(4) 0.49812(7) 0.91751(3)
Mn1C_2 Mn 1.58773(4) 0.49812(7) 0.91751(3)
Mn2_2 Mn 0.5000 0.5000 0.5000
Mn2A Mn 1.5000 1.0000 1.0000
Mn3_2 Mn 0.0000 0.5000 0.5000
Mn3_3 Mn 0.0000 1.5000 0.5000
Mn3_4 Mn 1.0000 1.5000 0.5000
Mn3A Mn 0.0000 1.0000 0.0000
N3B N 0.4730(2) 0.6964(3) 0.61963(17)
N3B_2 N 0.4730(2) 1.6964(3) 0.61963(17)
N4B N 0.2633(2) 1.3350(4) 0.50456(17)
N5B N 0.5043(2) 0.6381(3) 0.69646(18)
N6B N 0.3647(2) 1.3009(3) 0.53583(18)
N6_2 N 0.6353(2) 1.6991(3) 0.46417(18)
N7C N 0.0810(2) 0.9641(3) 0.15153(18)
N7B N 0.9190(2) 0.4641(3) 0.34847(18)
N8B N 0.1653(2) 1.3658(4) 0.4726(2)
N8B_2 N 1.1653(2) 0.3658(4) 0.4726(2)
C5C C 0.0801(3) 0.7904(5) 0.1902(2)
H3C H 0.0226 0.7041 0.1631
C6C C 0.1604(3) 1.0914(5) 0.1948(2)
H4C H 0.1600 1.2135 0.1703
N9B N 0.2287(3) 0.9422(4) 0.5676(2)
N10B N 0.5353(3) 0.5809(4) 0.7707(2)
N10A N 0.5353(3) 0.9191(4) 0.2707(2)
N10C N 0.4647(3) 1.0809(4) 0.7293(2)
loop_
_geom_bond_atom_site_label_1
_geom_bond_atom_site_label_2
_geom_bond_site_symmetry_1
_geom_bond_site_symmetry_2
N1 N2 1_555 1_555
N2 N9 1_555 1_555
O1 C1 1_555 1_555
O2 C1 1_555 1_555
C1 C3 1_555 1_555
C2 H1 1_555 1_555
C3 C2 1_555 1_555
C4 C3 1_555 1_555
H2 C4 1_555 1_555
Mn1 N3 1_555 1_555
Mn2 N3 1_555 1_555
Mn3 N7 1_555 1_555
N3 N5 1_555 1_555
N4 N6 1_555 1_555
N5 N10 1_555 1_555
N6 Mn1 1_555 1_555
N7 C5 1_555 1_555
N8 Mn3 1_555 1_555
C5 C4 1_555 1_555
H3 C5 1_555 1_555
C6 C2 1_555 1_555
H4 C6 1_555 1_555
N9 Mn1 1_555 1_555
N10 Mn1A 1_555 1_555
N1B N2B 1_555 1_555
N1_2 Mn3 1_555 1_555
N1B_2 Mn3 1_555 1_555
N2B N9B 1_555 1_555
O1C C1C 1_555 1_555
O1A Mn2 1_555 1_555
O1C_2 Mn2 1_555 1_555
O2C Mn1 1_555 1_555
O2A Mn1 1_555 1_555
C1C O2C 1_555 1_555
C2C H1C 1_555 1_555
C3C C1C 1_555 1_555
C4C C3C 1_555 1_555
H2C C4C 1_555 1_555
Mn1B O2C 1_555 1_555
Mn1A_2 O2 1_555 1_555
Mn1C N10B 1_555 1_555
Mn1C_2 O2 1_555 1_555
Mn2_2 N6 1_555 1_555
Mn2A O1 1_555 1_555
Mn3_2 N1B 1_555 1_555
Mn3_3 N8B 1_555 1_555
Mn3_4 N1 1_555 1_555
Mn3A N7C 1_555 1_555
N3B Mn1B 1_555 1_555
N3B_2 Mn2 1_555 1_555
N4B N6B 1_555 1_555
N5B N3B 1_555 1_555
N6B Mn2 1_555 1_555
N6_2 Mn2 1_555 1_555
N7C C5C 1_555 1_555
N7B Mn3 1_555 1_555
N8B N4B 1_555 1_555
N8B_2 Mn3 1_555 1_555
C5C C4C 1_555 1_555
H3C C5C 1_555 1_555
C6C C2C 1_555 1_555
H4C C6C 1_555 1_555
N9B Mn1B 1_555 1_555
N10B N5B 1_555 1_555
N10A Mn1 1_555 1_555
N10C Mn1B 1_555 1_555
N4 N8 1_555 1_555
N7 C6 1_555 1_555
O1C Mn2_2 1_555 1_555
O2A Mn1B 1_555 1_555
C2C C3C 1_555 1_555
Mn1B N6B 1_555 1_555
Mn2_2 N3B 1_555 1_555
N7C C6C 1_555 1_555

#END
