
#######################################################################
#
#                 Cambridge Crystallographic Data Centre
#                                CCDC 
#
#######################################################################
#
# If this CIF has been generated from an entry in the Cambridge 
# Structural Database, then it will include bibliographic, chemical, 
# crystal, experimental, refinement or atomic coordinate data resulting 
# from the CCDC's data processing and validation procedures.
#
#######################################################################

data_KAFQEP
_symmetry_cell_setting           monoclinic
_symmetry_space_group_name_H-M   'P 21/n'
_symmetry_Int_Tables_number      14
_space_group_name_Hall           '-P 2yn'
loop_
_symmetry_equiv_pos_site_id
_symmetry_equiv_pos_as_xyz
1 x,y,z
2 1/2-x,1/2+y,1/2-z
3 -x,-y,-z
4 1/2+x,1/2-y,1/2+z
_cell_length_a                   13.067(3)
_cell_length_b                   8.5169(17)
_cell_length_c                   13.984(3)
_cell_angle_alpha                90
_cell_angle_beta                 116.762(2)
_cell_angle_gamma                90
_cell_volume                     1389.58
loop_
_atom_site_label
_atom_site_type_symbol
_atom_site_fract_x
_atom_site_fract_y
_atom_site_fract_z
Mn1 Mn 0.61041(3) 0.51142(4) 0.78775(3)
N1 N 0.57920(17) 0.3665(2) 0.64423(16)
N2 N 0.53470(18) 0.2550(2) 0.48891(17)
H1 H 0.4918 0.2322 0.4287
N3 N 0.56378(18) 0.3002(3) 0.85907(18)
O1 O 0.77927(14) 0.4212(2) 0.81352(14)
O2 O 0.87357(14) 0.2436(2) 0.76727(14)
O3 O 0.81732(15) 0.1106(2) 0.55579(14)
O4 O 0.67269(16) 0.1659(2) 0.39645(14)
O5 O 0.43738(17) 0.5966(3) 0.74557(17)
H2 H 0.377(3) 0.554(4) 0.752(3)
H3 H 0.412(3) 0.662(4) 0.710(3)
C1 C 0.6773(2) 0.3036(3) 0.6456(2)
C2 C 0.6509(2) 0.2348(3) 0.54815(19)
C3 C 0.4942(2) 0.3321(3) 0.5489(2)
C4 C 0.3713(2) 0.3625(3) 0.5165(2)
H4 H 0.3263 0.3424 0.4389
H5 H 0.3609 0.4742 0.5299
C5 C 0.3268(2) 0.2579(4) 0.5787(3)
H6 H 0.3735 0.2744 0.6558
H7 H 0.3316 0.1476 0.5613
H8 H 0.2468 0.2848 0.5590
C6 C 0.7848(2) 0.3243(3) 0.74855(19)
C7 C 0.7188(2) 0.1645(3) 0.4967(2)
C8 C 0.5720(2) 0.1483(3) 0.8386(2)
H9 H 0.5954 0.1224 0.7854
C9 C 0.5479(3) 0.0275(3) 0.8914(2)
H10 H 0.5551 -0.0786 0.8745
C10 C 0.5130(2) 0.0626(3) 0.9697(2)
C11 C 0.5012(3) 0.2202(3) 0.9881(3)
H11 H 0.4749 0.2502 1.0387
C12 C 0.5280(3) 0.3326(3) 0.9322(3)
H12 H 0.5205 0.4398 0.9467
Mn1A Mn 0.88959(3) 1.01142(4) 0.71225(3)
Mn1A_2 Mn 0.88959(3) 0.01142(4) 0.71225(3)
Mn1B Mn 0.38959(3) -0.51142(4) 1.21225(3)
N1A N 0.92080(17) 0.8665(2) 0.85577(16)
N2A N 0.96530(18) 0.7550(2) 1.01109(17)
H1A H 1.0082 0.7322 1.0713
N3B N 0.43622(18) -0.3002(3) 1.14093(18)
N3A N 0.93622(18) 0.8002(3) 0.64093(18)
O1A O 0.72073(14) 0.9212(2) 0.68648(14)
O2A O 0.62643(14) 0.7436(2) 0.73273(14)
O2_2 O 0.87357(14) 1.2436(2) 0.76727(14)
O3A O 0.68268(15) 0.6106(2) 0.94421(14)
O3_2 O 0.81732(15) 1.1106(2) 0.55579(14)
O4A O 0.82731(16) 0.6659(2) 1.10355(14)
O5A O 1.06262(17) 1.0966(3) 0.75443(17)
H2A H 1.123(3) 1.054(4) 0.748(3)
H3A H 1.088(3) 1.162(4) 0.790(3)
C1A C 0.8227(2) 0.8036(3) 0.8544(2)
C2A C 0.8491(2) 0.7348(3) 0.95185(19)
C3A C 1.0058(2) 0.8321(3) 0.9511(2)
C4A C 1.1287(2) 0.8625(3) 0.9835(2)
H4A H 1.1737 0.8424 1.0611
H5A H 1.1391 0.9742 0.9701
C5A C 1.1732(2) 0.7579(4) 0.9213(3)
H6A H 1.1265 0.7744 0.8442
H7A H 1.1684 0.6476 0.9387
H8A H 1.2532 0.7848 0.9410
C6A C 0.7152(2) 0.8243(3) 0.75145(19)
C7A C 0.7812(2) 0.6645(3) 1.0033(2)
C8B C 0.4280(2) -0.1483(3) 1.1614(2)
H9B H 0.4046 -0.1224 1.2146
C9B C 0.4521(3) -0.0275(3) 1.1086(2)
H10B H 0.4449 0.0786 1.1255
C10B C 0.4870(2) -0.0626(3) 1.0303(2)
C11B C 0.4988(3) -0.2202(3) 1.0119(3)
H11B H 0.5251 -0.2502 0.9613
C12B C 0.4720(3) -0.3326(3) 1.0678(3)
H12B H 0.4795 -0.4398 1.0533
O6 O 0.7541(3) 0.9875(9) 0.2771(4)
O7? O 0.7652(6) 1.0934(13) 0.2588(5)
loop_
_geom_bond_atom_site_label_1
_geom_bond_atom_site_label_2
_geom_bond_site_symmetry_1
_geom_bond_site_symmetry_2
Mn1 N1 1_555 1_555
N1 C1 1_555 1_555
N2 H1 1_555 1_555
N3 Mn1 1_555 1_555
O1 Mn1 1_555 1_555
O2 C6 1_555 1_555
O3 C7 1_555 1_555
O4 C7 1_555 1_555
O5 Mn1 1_555 1_555
H2 O5 1_555 1_555
H3 O5 1_555 1_555
C1 C2 1_555 1_555
C2 N2 1_555 1_555
C3 N1 1_555 1_555
C4 C3 1_555 1_555
H4 C4 1_555 1_555
H5 C4 1_555 1_555
C5 C4 1_555 1_555
H6 C5 1_555 1_555
H7 C5 1_555 1_555
H8 C5 1_555 1_555
C6 O1 1_555 1_555
C7 C2 1_555 1_555
C8 N3 1_555 1_555
H9 C8 1_555 1_555
C9 C8 1_555 1_555
H10 C9 1_555 1_555
C10 C9 1_555 1_555
C11 C10 1_555 1_555
H11 C11 1_555 1_555
C12 N3 1_555 1_555
H12 C12 1_555 1_555
Mn1A N1A 1_555 1_555
Mn1A_2 O2 1_555 1_555
Mn1B N3B 1_555 1_555
N1A C1A 1_555 1_555
N2A H1A 1_555 1_555
N3B C8B 1_555 1_555
N3A Mn1A 1_555 1_555
O1A Mn1A 1_555 1_555
O2A Mn1 1_555 1_555
O2_2 Mn1A 1_555 1_555
O3A Mn1 1_555 1_555
O3_2 Mn1A 1_555 1_555
O4A C7A 1_555 1_555
O5A Mn1A 1_555 1_555
H2A O5A 1_555 1_555
H3A O5A 1_555 1_555
C1A C2A 1_555 1_555
C2A N2A 1_555 1_555
C3A N1A 1_555 1_555
C4A C3A 1_555 1_555
H4A C4A 1_555 1_555
H5A C4A 1_555 1_555
C5A C4A 1_555 1_555
H6A C5A 1_555 1_555
H7A C5A 1_555 1_555
H8A C5A 1_555 1_555
C6A O1A 1_555 1_555
C7A O3A 1_555 1_555
C8B H9B 1_555 1_555
C9B C8B 1_555 1_555
H10B C9B 1_555 1_555
C10B C10 1_555 1_555
C11B C10B 1_555 1_555
H11B C11B 1_555 1_555
C12B N3B 1_555 1_555
H12B C12B 1_555 1_555
N2 C3 1_555 1_555
O3 Mn1A_2 1_555 1_555
C1 C6 1_555 1_555
C11 C12 1_555 1_555
N2A C3A 1_555 1_555
O2A C6A 1_555 1_555
C1A C6A 1_555 1_555
C2A C7A 1_555 1_555
C9B C10B 1_555 1_555
C11B C12B 1_555 1_555

#END
