
#######################################################################
#
#                 Cambridge Crystallographic Data Centre
#                                CCDC 
#
#######################################################################
#
# If this CIF has been generated from an entry in the Cambridge 
# Structural Database, then it will include bibliographic, chemical, 
# crystal, experimental, refinement or atomic coordinate data resulting 
# from the CCDC's data processing and validation procedures.
#
#######################################################################

data_KAFVIX
_symmetry_cell_setting           monoclinic
_symmetry_space_group_name_H-M   'P 21/c'
_symmetry_Int_Tables_number      14
_space_group_name_Hall           '-P 2ybc'
loop_
_symmetry_equiv_pos_site_id
_symmetry_equiv_pos_as_xyz
1 x,y,z
2 x,1/2-y,1/2+z
3 -x,-y,-z
4 -x,1/2+y,1/2-z
_cell_length_a                   6.7865(2)
_cell_length_b                   11.0911(3)
_cell_length_c                   16.9764(6)
_cell_angle_alpha                90
_cell_angle_beta                 100.932(1)
_cell_angle_gamma                90
_cell_volume                     1254.62
loop_
_atom_site_label
_atom_site_type_symbol
_atom_site_fract_x
_atom_site_fract_y
_atom_site_fract_z
Mn1 Mn 0.76308(4) 0.44689(3) 0.036248(18)
Cl1 Cl 0.51061(7) 0.44023(4) -0.09384(3)
Cl2 Cl 0.93866(7) 0.64549(4) 0.01820(3)
N1 N 0.9283(2) 0.39923(14) 0.15957(10)
C1 C 0.8407(3) 0.31835(17) 0.20102(12)
C2 C 0.9334(3) 0.27683(18) 0.27613(12)
H1 H 0.8676 0.2207 0.3046
C3 C 1.1242(3) 0.31880(18) 0.30884(13)
H2 H 1.1910 0.2915 0.3600
C4 C 1.2161(3) 0.40097(19) 0.26603(12)
H3 H 1.3471 0.4302 0.2870
C5 C 1.1130(3) 0.43939(17) 0.19223(12)
H4 H 1.1752 0.4967 0.1632
C6 C 0.6341(3) 0.27605(18) 0.16100(12)
H5 H 0.6075 0.1956 0.1820
H6 H 0.5317 0.3327 0.1736
N2 N 0.6190(2) 0.26911(14) 0.07307(10)
H7 H 0.4837 0.2694 0.0494
C7 C 0.7096(3) 0.15688(17) 0.04845(12)
H8 H 0.6723 0.0883 0.0800
H9 H 0.8577 0.1645 0.0604
C8 C 0.6407(3) 0.13125(18) -0.04006(12)
H10 H 0.4960 0.1110 -0.0504
H11 H 0.6579 0.2048 -0.0711
C9 C 0.7557(3) 0.02872(18) -0.06887(13)
H12 H 0.8965 0.0533 -0.0677
H13 H 0.7562 -0.0421 -0.0333
O1 O 0.66199(19) -0.00137(13) -0.14825(8)
C10 C 0.7743(3) -0.08743(19) -0.18388(13)
H14 H 0.9081 -0.0550 -0.1849
H15 H 0.7049 -0.1044 -0.2388
H16 H 0.7871 -0.1620 -0.1524
Cl1B Cl 0.48939(7) 0.55977(4) 0.09384(3)
Cl2B Cl 1.06134(7) 0.35451(4) -0.01820(3)
Mn1B Mn 0.23692(4) 0.55311(3) -0.036248(18)
Mn1B_2 Mn 1.23692(4) 0.55311(3) -0.036248(18)
loop_
_geom_bond_atom_site_label_1
_geom_bond_atom_site_label_2
_geom_bond_site_symmetry_1
_geom_bond_site_symmetry_2
Mn1 Cl1 1_555 1_555
Cl1 Mn1B 1_555 1_555
Cl2 Mn1 1_555 1_555
N1 Mn1 1_555 1_555
C1 N1 1_555 1_555
C2 C1 1_555 1_555
H1 C2 1_555 1_555
C3 C2 1_555 1_555
H2 C3 1_555 1_555
C4 C3 1_555 1_555
H3 C4 1_555 1_555
C5 N1 1_555 1_555
H4 C5 1_555 1_555
C6 C1 1_555 1_555
H5 C6 1_555 1_555
H6 C6 1_555 1_555
N2 Mn1 1_555 1_555
H7 N2 1_555 1_555
C7 N2 1_555 1_555
H8 C7 1_555 1_555
H9 C7 1_555 1_555
C8 C7 1_555 1_555
H10 C8 1_555 1_555
H11 C8 1_555 1_555
C9 C8 1_555 1_555
H12 C9 1_555 1_555
H13 C9 1_555 1_555
O1 C9 1_555 1_555
C10 O1 1_555 1_555
H14 C10 1_555 1_555
H15 C10 1_555 1_555
H16 C10 1_555 1_555
Cl1B Mn1 1_555 1_555
Cl2B Mn1 1_555 1_555
Mn1B Cl1B 1_555 1_555
Mn1B_2 Cl2 1_555 1_555
C4 C5 1_555 1_555
C6 N2 1_555 1_555
Cl2B Mn1B_2 1_555 1_555

#END
