
#######################################################################
#
#                 Cambridge Crystallographic Data Centre
#                                CCDC 
#
#######################################################################
#
# If this CIF has been generated from an entry in the Cambridge 
# Structural Database, then it will include bibliographic, chemical, 
# crystal, experimental, refinement or atomic coordinate data resulting 
# from the CCDC's data processing and validation procedures.
#
#######################################################################

data_KAFVOE
_symmetry_cell_setting           triclinic
_symmetry_space_group_name_H-M   'P -1'
_symmetry_Int_Tables_number      2
_space_group_name_Hall           '-P 1'
loop_
_symmetry_equiv_pos_site_id
_symmetry_equiv_pos_as_xyz
1 x,y,z
2 -x,-y,-z
_cell_length_a                   8.7593(16)
_cell_length_b                   9.3062(17)
_cell_length_c                   11.574(2)
_cell_angle_alpha                84.382(2)
_cell_angle_beta                 87.471(2)
_cell_angle_gamma                87.187(2)
_cell_volume                     937.067
loop_
_atom_site_label
_atom_site_type_symbol
_atom_site_fract_x
_atom_site_fract_y
_atom_site_fract_z
K1 K 0.25417(8) 0.96795(7) 0.46780(6)
N1 N 0.2171(2) 1.3106(2) 0.66234(18)
N2 N 0.2455(3) 1.0696(2) 0.82516(19)
O1 O 0.0977(2) 1.2536(2) 0.45615(17)
O2 O 0.6174(3) 0.9270(3) 0.7436(2)
O3 O 0.3900(3) 0.8483(2) 0.70775(19)
O4 O -0.1424(3) 1.3041(2) 0.5188(2)
O5 O 0.0534(3) 1.0119(2) 0.65138(18)
O6 O 0.4389(2) 1.1582(2) 0.55402(19)
O7 O 0.0036(3) 0.7977(2) 0.74474(18)
O8 O 0.4724(3) 1.3324(2) 0.40933(18)
C1 C 0.2033(5) 1.3779(4) 1.0286(3)
H1 H 0.2405 1.3874 1.1051
H2 H 0.0925 1.3885 1.0331
C2 C 0.2515(4) 1.2287(3) 0.9922(3)
H3 H 0.2067 1.1553 1.0469
H4 H 0.3619 1.2151 0.9943
C3 C 0.2005(3) 1.2102(3) 0.8693(2)
C4 C 0.4019(3) 1.0192(3) 0.8475(3)
H5 H 0.4028 0.9637 0.9229
H6 H 0.4626 1.1028 0.8520
C5 C 0.1337(3) 0.9584(3) 0.8471(2)
H7 H 0.0545 0.9900 0.9015
H8 H 0.1835 0.8707 0.8827
C6 C 0.0615(3) 0.9260(3) 0.7376(2)
C7 C 0.2669(5) 1.4965(4) 0.9419(3)
H9 H 0.2334 1.5904 0.9656
H10 H 0.3778 1.4897 0.9409
C8 C 0.2122(4) 1.4817(3) 0.8199(3)
H11 H 0.2553 1.5559 0.7651
H12 H 0.1016 1.4939 0.8195
C9 C 0.2630(3) 1.3321(3) 0.7847(2)
C10 C 0.3189(3) 1.3889(3) 0.5719(2)
H13 H 0.2567 1.4493 0.5174
H14 H 0.3838 1.4509 0.6088
C11 C 0.0513(3) 1.3444(3) 0.6422(2)
H15 H -0.0087 1.2984 0.7067
H16 H 0.0315 1.4479 0.6412
C12 C -0.0015(3) 1.2948(3) 0.5291(2)
C13 C 0.4171(3) 1.2826(3) 0.5074(2)
C14 C 0.4786(3) 0.9276(3) 0.7590(2)
K1A K 0.74583(8) 1.03205(7) 0.53220(6)
K1A_2 K -0.25417(8) 1.03205(7) 0.53220(6)
O2A O 0.3826(3) 1.0730(3) 0.2564(2)
O4A O 0.1424(3) 0.6959(2) 0.4812(2)
O5A O -0.0534(3) 0.9881(2) 0.34862(18)
O6A O 0.5611(2) 0.8418(2) 0.44598(19)
O9 O 0.2087(4) 0.8699(4) 0.1595(4)
C15 C 0.2958(6) 0.7773(5) 0.1113(4)
O10 O 0.3264(4) 0.5934(4) 0.2974(3)
loop_
_geom_bond_atom_site_label_1
_geom_bond_atom_site_label_2
_geom_bond_site_symmetry_1
_geom_bond_site_symmetry_2
K1 O1 1_555 1_555
N1 C9 1_555 1_555
N2 C3 1_555 1_555
O1 C12 1_555 1_555
O2 C14 1_555 1_555
O3 K1 1_555 1_555
O4 C12 1_555 1_555
O5 K1 1_555 1_555
O6 K1 1_555 1_555
O7 C6 1_555 1_555
O8 C13 1_555 1_555
O9 C15 1_555 1_555
C1 H1 1_555 1_555
H2 C1 1_555 1_555
C2 C1 1_555 1_555
H3 C2 1_555 1_555
H4 C2 1_555 1_555
C3 C2 1_555 1_555
C4 N2 1_555 1_555
H5 C4 1_555 1_555
H6 C4 1_555 1_555
C5 N2 1_555 1_555
H7 C5 1_555 1_555
H8 C5 1_555 1_555
C6 O5 1_555 1_555
C7 C1 1_555 1_555
H9 C7 1_555 1_555
H10 C7 1_555 1_555
C8 C7 1_555 1_555
H11 C8 1_555 1_555
H12 C8 1_555 1_555
C9 C3 1_555 1_555
C10 N1 1_555 1_555
H13 C10 1_555 1_555
H14 C10 1_555 1_555
C11 N1 1_555 1_555
H15 C11 1_555 1_555
H16 C11 1_555 1_555
C12 C11 1_555 1_555
C13 O6 1_555 1_555
C14 O3 1_555 1_555
K1A O2 1_555 1_555
K1A_2 O4 1_555 1_555
O2A K1 1_555 1_555
O4A K1 1_555 1_555
O5A K1 1_555 1_555
O6A K1 1_555 1_555
O5 K1A_2 1_555 1_555
O6 K1A 1_555 1_555
C4 C14 1_555 1_555
C5 C6 1_555 1_555
C8 C9 1_555 1_555
C10 C13 1_555 1_555
K1A O6A 1_555 1_555
K1A_2 O5A 1_555 1_555

#END
