
#######################################################################
#
#                 Cambridge Crystallographic Data Centre
#                                CCDC 
#
#######################################################################
#
# If this CIF has been generated from an entry in the Cambridge 
# Structural Database, then it will include bibliographic, chemical, 
# crystal, experimental, refinement or atomic coordinate data resulting 
# from the CCDC's data processing and validation procedures.
#
#######################################################################

data_KAGGOP
_symmetry_cell_setting           triclinic
_symmetry_space_group_name_H-M   'P -1'
_symmetry_Int_Tables_number      2
_space_group_name_Hall           '-P 1'
loop_
_symmetry_equiv_pos_site_id
_symmetry_equiv_pos_as_xyz
1 x,y,z
2 -x,-y,-z
_cell_length_a                   9.6477(19)
_cell_length_b                   10.153(2)
_cell_length_c                   13.674(3)
_cell_angle_alpha                98.26(3)
_cell_angle_beta                 108.60(3)
_cell_angle_gamma                101.28(3)
_cell_volume                     1213.95
loop_
_atom_site_label
_atom_site_type_symbol
_atom_site_fract_x
_atom_site_fract_y
_atom_site_fract_z
Co1 Co -0.15857(3) 0.11353(3) -0.04842(2)
O1 O 0.07163(17) 0.15831(15) -0.00542(13)
O2 O 0.27002(17) 0.08978(14) 0.08517(12)
O3 O 0.36790(19) 0.80812(15) 0.09040(14)
O4 O 0.13945(19) 0.67084(16) 0.03243(14)
O5 O 0.8011(2) 0.6092(2) 0.2066(2)
O6 O 0.7701(2) 0.3950(2) 0.19883(19)
N1 N 0.7204(2) 0.4937(2) 0.18517(16)
N2 N -0.1511(2) 0.11986(18) 0.11054(14)
N3 N -0.1779(2) 0.08757(18) 0.78881(14)
C1 C 0.3084(2) 0.3231(2) 0.07479(16)
C2 C 0.2485(2) 0.43525(19) 0.05667(16)
H1 H 0.1442 0.4220 0.0270
H2 H 0.5646 0.6747 0.1419
H3 H 0.5058 0.2681 0.1301
H4 H 0.0550 0.2370 0.1832
H5 H 0.0731 0.2319 0.3526
H6 H -0.0257 0.1637 0.4811
H7 H -0.3188 -0.0035 0.4113
H8 H 0.0058 0.1906 0.6431
H9 H 0.0209 0.2079 0.8143
H10 H -0.3804 -0.0392 0.7269
H11 H -0.4064 -0.0638 0.5533
H12 H -0.3522 -0.0065 0.2397
H13 H -0.3567 0.0028 0.0732
C3 C 0.3444(2) 0.5678(2) 0.08282(17)
C4 C 0.4997(3) 0.5875(2) 0.12491(17)
C5 C 0.5559(2) 0.4741(2) 0.14105(17)
C6 C 0.4642(2) 0.3425(2) 0.11744(17)
C7 C 0.2074(2) 0.17938(19) 0.04922(16)
C8 C 0.2798(3) 0.6903(2) 0.06684(17)
C9 C -0.0273(3) 0.1862(2) 0.19479(19)
C10 C -0.0157(3) 0.1841(3) 0.29731(19)
C11 C -0.1371(3) 0.1108(2) 0.31809(18)
C12 C -0.1212(3) 0.1119(3) 0.42834(19)
C13 C -0.2241(3) 0.0525(3) 0.46340(19)
C14 C -0.2043(3) 0.0628(2) 0.57560(18)
C15 C -0.0758(3) 0.1436(3) 0.6579(2)
C16 C -0.0670(3) 0.1530(3) 0.76089(19)
C17 C -0.3015(3) 0.0087(3) 0.7100(2)
C18 C -0.3184(3) -0.0063(3) 0.60481(19)
C19 C -0.2669(3) 0.0424(3) 0.2305(2)
C20 C -0.2690(3) 0.0494(3) 0.13028(19)
O1A O -0.07163(17) -0.15831(15) 0.00542(13)
O2A O -0.27002(17) -0.08978(14) -0.08517(12)
O3A O -0.36790(19) -0.80812(15) -0.09040(14)
O4A O -0.13945(19) -0.67084(16) -0.03243(14)
O5A O -0.8011(2) -0.6092(2) -0.2066(2)
O6A O -0.7701(2) -0.3950(2) -0.19883(19)
N1A N -0.7204(2) -0.4937(2) -0.18517(16)
C1A C -0.3084(2) -0.3231(2) -0.07479(16)
C2A C -0.2485(2) -0.43525(19) -0.05667(16)
H1A H -0.1442 -0.4220 -0.0270
H2A H -0.5646 -0.6747 -0.1419
H3A H -0.5058 -0.2681 -0.1301
C3A C -0.3444(2) -0.5678(2) -0.08282(17)
C4A C -0.4997(3) -0.5875(2) -0.12491(17)
C5A C -0.5559(2) -0.4741(2) -0.14105(17)
C6A C -0.4642(2) -0.3425(2) -0.11744(17)
C7A C -0.2074(2) -0.17938(19) -0.04922(16)
C8A C -0.2798(3) -0.6903(2) -0.06684(17)
N2_2 N -0.1511(2) 0.11986(18) -0.88946(14)
N3_2 N -0.1779(2) 0.08757(18) -0.21119(14)
H4_2 H 0.0550 0.2370 -0.8168
H5_2 H 0.0731 0.2319 -0.6474
H6_2 H -0.0257 0.1637 -0.5189
H7_2 H -0.3188 -0.0035 -0.5887
H8_2 H 0.0058 0.1906 -0.3569
H9_2 H 0.0209 0.2079 -0.1857
H10_2 H -0.3804 -0.0392 -0.2731
H11_2 H -0.4064 -0.0638 -0.4467
H12_2 H -0.3522 -0.0065 -0.7603
H13_2 H -0.3567 0.0028 -0.9268
C9_2 C -0.0273(3) 0.1862(2) -0.80521(19)
C10_2 C -0.0157(3) 0.1841(3) -0.70269(19)
C11_2 C -0.1371(3) 0.1108(2) -0.68191(18)
C12_2 C -0.1212(3) 0.1119(3) -0.57166(19)
C13_2 C -0.2241(3) 0.0525(3) -0.53660(19)
C14_2 C -0.2043(3) 0.0628(2) -0.42440(18)
C15_2 C -0.0758(3) 0.1436(3) -0.3421(2)
C16_2 C -0.0670(3) 0.1530(3) -0.23911(19)
C17_2 C -0.3015(3) 0.0087(3) -0.2900(2)
C18_2 C -0.3184(3) -0.0063(3) -0.39519(19)
C19_2 C -0.2669(3) 0.0424(3) -0.7695(2)
C20_2 C -0.2690(3) 0.0494(3) -0.86972(19)
Co1A Co 0.15857(3) -0.11353(3) 0.04842(2)
O3A_2 O -0.36790(19) 0.19188(15) -0.09040(14)
O4A_2 O -0.13945(19) 0.32916(16) -0.03243(14)
Co1A_2 Co 0.15857(3) 0.88647(3) 0.04842(2)
Co1_2 Co -0.15857(3) 0.11353(3) 0.95158(2)
Co1_3 Co -0.15857(3) -0.88647(3) -0.04842(2)
Co1_4 Co -0.15857(3) 0.11353(3) -1.04842(2)
O3_2 O 0.36790(19) -0.19188(15) 0.09040(14)
O4_2 O 0.13945(19) -0.32916(16) 0.03243(14)
N2A N 0.1511(2) -0.11986(18) -0.11054(14)
N3A N 0.1779(2) -0.08757(18) 0.21119(14)
O7 O -0.7342(4) 0.2825(4) 0.5894(3)
N4 N -0.4546(4) 0.3454(3) 0.5567(3)
H14 H -0.5296 0.3180 0.4035
H15 H -0.3069 0.3909 0.3814
H16 H 0.0636 0.5240 0.6054
H17 H -0.1045 0.4705 0.6947
H18 H -0.3326 0.3904 0.7055
C21 C -0.4417(5) 0.3491(4) 0.4641(4)
C22 C -0.3085(5) 0.3940(4) 0.4494(3)
C23 C -0.1762(4) 0.4416(3) 0.5359(3)
C24 C -0.0157(6) 0.4960(4) 0.5383(3)
C25 C -0.1894(5) 0.4394(4) 0.6332(3)
C26 C -0.3284(6) 0.3908(5) 0.6381(3)
C24A C 0.0157(6) 0.5040(4) 0.4617(3)
H16A H -0.0636 0.4760 0.3946
C23A C 0.1762(4) 0.5584(3) 0.4641(3)
C22A C 0.3085(5) 0.6060(4) 0.5506(3)
H15A H 0.3069 0.6091 0.6186
C21A C 0.4417(5) 0.6509(4) 0.5359(4)
N4A N 0.4546(4) 0.6546(3) 0.4433(3)
C26A C 0.3284(6) 0.6092(5) 0.3619(3)
H18A H 0.3326 0.6096 0.2945
C25A C 0.1894(5) 0.5606(4) 0.3668(3)
H17A H 0.1045 0.5295 0.3053
H14A H 0.5296 0.6820 0.5965
loop_
_geom_bond_atom_site_label_1
_geom_bond_atom_site_label_2
_geom_bond_site_symmetry_1
_geom_bond_site_symmetry_2
Co1 O1 1_555 1_555
O1 C7 1_555 1_555
O2 C7 1_555 1_555
O3 C8 1_555 1_555
O4 C8 1_555 1_555
O5 N1 1_555 1_555
O6 N1 1_555 1_555
N1 C5 1_555 1_555
N2 Co1 1_555 1_555
N3 C16 1_555 1_555
C1 C2 1_555 1_555
C2 H1 1_555 1_555
H2 C4 1_555 1_555
H3 C6 1_555 1_555
H4 C9 1_555 1_555
H5 C10 1_555 1_555
H6 C12 1_555 1_555
H7 C13 1_555 1_555
H8 C15 1_555 1_555
H9 C16 1_555 1_555
H10 C17 1_555 1_555
H11 C18 1_555 1_555
H12 C19 1_555 1_555
H13 C20 1_555 1_555
C3 C2 1_555 1_555
C4 C3 1_555 1_555
C5 C4 1_555 1_555
C6 C1 1_555 1_555
C7 C1 1_555 1_555
C8 C3 1_555 1_555
C9 N2 1_555 1_555
C10 C9 1_555 1_555
C11 C10 1_555 1_555
C12 C11 1_555 1_555
C13 C12 1_555 1_555
C14 C13 1_555 1_555
C15 C14 1_555 1_555
C16 C15 1_555 1_555
C17 N3 1_555 1_555
C18 C14 1_555 1_555
C19 C11 1_555 1_555
C20 N2 1_555 1_555
N4 C21 1_555 1_555
H14 C21 1_555 1_555
H15 C22 1_555 1_555
H16 C24 1_555 1_555
H17 C25 1_555 1_555
H18 C26 1_555 1_555
C21 C22 1_555 1_555
C22 C23 1_555 1_555
C23 C24 1_555 1_555
C24 C24A 1_555 1_555
C25 C23 1_555 1_555
C26 N4 1_555 1_555
O1A C7A 1_555 1_555
O2A Co1 1_555 1_555
O3A C8A 1_555 1_555
O4A C8A 1_555 1_555
O5A N1A 1_555 1_555
O6A N1A 1_555 1_555
N1A C5A 1_555 1_555
C1A C2A 1_555 1_555
C2A H1A 1_555 1_555
H2A C4A 1_555 1_555
H3A C6A 1_555 1_555
C3A C2A 1_555 1_555
C4A C3A 1_555 1_555
C5A C4A 1_555 1_555
C6A C1A 1_555 1_555
C7A O2A 1_555 1_555
C8A C3A 1_555 1_555
N2_2 C9_2 1_555 1_555
N3_2 Co1 1_555 1_555
H4_2 C9_2 1_555 1_555
H5_2 C10_2 1_555 1_555
H6_2 C12_2 1_555 1_555
H7_2 C13_2 1_555 1_555
H8_2 C15_2 1_555 1_555
H9_2 C16_2 1_555 1_555
H10_2 C17_2 1_555 1_555
H11_2 C18_2 1_555 1_555
H12_2 C19_2 1_555 1_555
H13_2 C20_2 1_555 1_555
C9_2 C10_2 1_555 1_555
C10_2 C11_2 1_555 1_555
C11_2 C12_2 1_555 1_555
C12_2 C13_2 1_555 1_555
C13_2 C14_2 1_555 1_555
C14_2 C15_2 1_555 1_555
C15_2 C16_2 1_555 1_555
C16_2 N3_2 1_555 1_555
C17_2 N3_2 1_555 1_555
C18_2 C14_2 1_555 1_555
C19_2 C11_2 1_555 1_555
C20_2 N2_2 1_555 1_555
Co1A O2 1_555 1_555
O3A_2 Co1 1_555 1_555
O4A_2 Co1 1_555 1_555
Co1A_2 O3 1_555 1_555
Co1_2 N3 1_555 1_555
Co1_3 O3A 1_555 1_555
Co1_4 N2_2 1_555 1_555
O3_2 Co1A 1_555 1_555
O4_2 Co1A 1_555 1_555
N2A Co1A 1_555 1_555
N3A Co1A 1_555 1_555
C24A H16A 1_555 1_555
C23A C24A 1_555 1_555
C22A C23A 1_555 1_555
H15A C22A 1_555 1_555
C21A C22A 1_555 1_555
N4A C21A 1_555 1_555
C26A N4A 1_555 1_555
H18A C26A 1_555 1_555
C25A C23A 1_555 1_555
H17A C25A 1_555 1_555
H14A C21A 1_555 1_555
O4 Co1A_2 1_555 1_555
C5 C6 1_555 1_555
C17 C18 1_555 1_555
C19 C20 1_555 1_555
C25 C26 1_555 1_555
O1A Co1A 1_555 1_555
O4A Co1_3 1_555 1_555
C1A C7A 1_555 1_555
C5A C6A 1_555 1_555
C17_2 C18_2 1_555 1_555
C19_2 C20_2 1_555 1_555
C26A C25A 1_555 1_555

#END
