
#######################################################################
#
#                 Cambridge Crystallographic Data Centre
#                                CCDC 
#
#######################################################################
#
# If this CIF has been generated from an entry in the Cambridge 
# Structural Database, then it will include bibliographic, chemical, 
# crystal, experimental, refinement or atomic coordinate data resulting 
# from the CCDC's data processing and validation procedures.
#
#######################################################################

data_KAGHEH
_symmetry_cell_setting           monoclinic
_symmetry_space_group_name_H-M   'P 21/n'
_symmetry_Int_Tables_number      14
_space_group_name_Hall           '-P 2yn'
loop_
_symmetry_equiv_pos_site_id
_symmetry_equiv_pos_as_xyz
1 x,y,z
2 1/2-x,1/2+y,1/2-z
3 -x,-y,-z
4 1/2+x,1/2-y,1/2+z
_cell_length_a                   11.107(2)
_cell_length_b                   11.408(2)
_cell_length_c                   12.134(2)
_cell_angle_alpha                90
_cell_angle_beta                 90.78(3)
_cell_angle_gamma                90
_cell_volume                     1537.34
loop_
_atom_site_label
_atom_site_type_symbol
_atom_site_fract_x
_atom_site_fract_y
_atom_site_fract_z
Cu1 Cu 0.27880(4) 0.31255(3) 0.52565(3)
Cl1 Cl 0.01583(6) 0.21982(6) 0.70306(6)
O1 O 0.1368(2) 0.52194(18) 0.46020(17)
H1 H 0.146(3) 0.474(3) 0.398(3)
O2 O 0.31493(19) 0.34160(17) 0.68454(16)
O3 O 0.17778(18) 0.64401(17) 0.98590(15)
O4 O 0.33135(19) 0.86852(17) 1.18558(16)
O5 O 0.4735(2) 0.3770(2) 0.4877(2)
H2 H 0.5001 0.3722 0.4167
H3 H 0.5200 0.4056 0.5385
O6 O 0.0761(2) 0.2116(2) 0.59861(18)
O7 O -0.0051(2) 0.34021(19) 0.7318(2)
O8 O -0.0954(2) 0.1575(2) 0.69764(19)
O9 O 0.0905(2) 0.1669(2) 0.78809(19)
N1 N 0.1987(2) 0.4658(2) 0.5423(2)
N2 N 0.2713(2) 0.4692(2) 0.8213(2)
H4 H 0.234(3) 0.531(3) 0.835(3)
N3 N 0.1926(2) 0.4909(2) 1.10426(19)
H5 H 0.218(3) 0.465(3) 1.159(3)
N4 N 0.2793(2) 0.7858(2) 1.12451(19)
C1 C 0.1149(3) 0.6065(3) 0.6755(3)
H6 H 0.0747 0.6401 0.6125
H7 H 0.1652 0.6647 0.7100
H8 H 0.0562 0.5797 0.7271
C2 C 0.1901(3) 0.5063(2) 0.6400(2)
C3 C 0.2634(3) 0.4337(2) 0.7187(2)
C4 C 0.3323(3) 0.4053(2) 0.9097(2)
H9 H 0.3716 0.4604 0.9593
H10 H 0.3937 0.3551 0.8787
C5 C 0.2432(3) 0.3306(2) 0.9741(2)
H11 H 0.2865 0.2883 1.0315
H12 H 0.2069 0.2734 0.9248
C6 C 0.1431(3) 0.4038(2) 1.0268(2)
H13 H 0.0973 0.4437 0.9694
H14 H 0.0887 0.3522 1.0656
C7 C 0.2105(3) 0.6017(2) 1.0788(2)
C8 C 0.2732(3) 0.6787(2) 1.1604(2)
C9 C 0.3261(3) 0.6381(3) 1.2669(2)
H15 H 0.3952 0.6851 1.2852
H16 H 0.3499 0.5576 1.2604
H17 H 0.2673 0.6455 1.3237
Cu1A Cu 0.22120(4) 0.81255(3) 0.97435(3)
O3A O 0.32222(18) 0.14401(17) 0.51410(15)
N4A N 0.2207(2) 0.2858(2) 0.37549(19)
loop_
_geom_bond_atom_site_label_1
_geom_bond_atom_site_label_2
_geom_bond_site_symmetry_1
_geom_bond_site_symmetry_2
Cu1 O2 1_555 1_555
Cl1 O6 1_555 1_555
O1 H1 1_555 1_555
O2 C3 1_555 1_555
O3 C7 1_555 1_555
O4 N4 1_555 1_555
O5 Cu1 1_555 1_555
H2 O5 1_555 1_555
H3 O5 1_555 1_555
O6 Cu1 1_555 1_555
O7 Cl1 1_555 1_555
O8 Cl1 1_555 1_555
O9 Cl1 1_555 1_555
N1 Cu1 1_555 1_555
N2 H4 1_555 1_555
N3 H5 1_555 1_555
N4 C8 1_555 1_555
C1 H6 1_555 1_555
H7 C1 1_555 1_555
H8 C1 1_555 1_555
C2 N1 1_555 1_555
C3 N2 1_555 1_555
C4 N2 1_555 1_555
H9 C4 1_555 1_555
H10 C4 1_555 1_555
C5 C4 1_555 1_555
H11 C5 1_555 1_555
H12 C5 1_555 1_555
C6 N3 1_555 1_555
H13 C6 1_555 1_555
H14 C6 1_555 1_555
C7 N3 1_555 1_555
C8 C7 1_555 1_555
C9 C8 1_555 1_555
H15 C9 1_555 1_555
H16 C9 1_555 1_555
H17 C9 1_555 1_555
Cu1A O3 1_555 1_555
O3A Cu1 1_555 1_555
N4A Cu1 1_555 1_555
O1 N1 1_555 1_555
N4 Cu1A 1_555 1_555
C1 C2 1_555 1_555
C2 C3 1_555 1_555
C5 C6 1_555 1_555

#END
