
#######################################################################
#
#                 Cambridge Crystallographic Data Centre
#                                CCDC 
#
#######################################################################
#
# If this CIF has been generated from an entry in the Cambridge 
# Structural Database, then it will include bibliographic, chemical, 
# crystal, experimental, refinement or atomic coordinate data resulting 
# from the CCDC's data processing and validation procedures.
#
#######################################################################

data_KAGJOS
_symmetry_cell_setting           tetragonal
_symmetry_space_group_name_H-M   'I 41/a'
_symmetry_Int_Tables_number      88
_space_group_name_Hall           '-I 4ad'
loop_
_symmetry_equiv_pos_site_id
_symmetry_equiv_pos_as_xyz
1 x,y,z
2 3/4-y,1/4+x,1/4+z
3 1/4+y,1/4-x,1/4+z
4 1/2+x,1/2+y,1/2+z
5 1/4-y,3/4+x,3/4+z
6 x,1/2+y,-z
7 1/2+x,y,1/2-z
8 1/4-y,1/4+x,1/4-z
9 -x,-y,-z
10 1/4+y,3/4-x,3/4-z
11 3/4-y,3/4+x,3/4-z
12 1/2-x,1/2-y,1/2-z
13 3/4+y,1/4-x,1/4-z
14 -x,1/2-y,z
15 1/2-x,-y,1/2+z
16 3/4+y,3/4-x,3/4+z
_cell_length_a                   23.477(4)
_cell_length_b                   23.477(4)
_cell_length_c                   22.755(4)
_cell_angle_alpha                90
_cell_angle_beta                 90
_cell_angle_gamma                90
_cell_volume                     12541.9
loop_
_atom_site_label
_atom_site_type_symbol
_atom_site_fract_x
_atom_site_fract_y
_atom_site_fract_z
Cu1 Cu 0.50000 0.25000 0.26543(7)
O1 O 0.5794(3) 0.2401(3) 0.2536(3)
O2 O 0.5578(3) 0.3053(3) 0.1868(3)
C1 C 0.5916(5) 0.2736(5) 0.2121(6)
C2 C 0.6539(4) 0.2723(5) 0.1910(4)
C3 C 0.6828(5) 0.2217(4) 0.1913(5)
H1 H 0.6662 0.1893 0.2075
C4 C 0.7369(4) 0.2193(4) 0.1674(5)
H2 H 0.7566 0.1849 0.1674
C5 C 0.7623(4) 0.2673(5) 0.1436(4)
C6 C 0.7327(4) 0.3181(4) 0.1464(4)
H3 H 0.7502 0.3513 0.1333
C7 C 0.6782(4) 0.3209(4) 0.1679(4)
H4 H 0.658 0.3549 0.167
C8 C 0.8182(4) 0.2645(4) 0.1129(4)
C9 C 0.8309(4) 0.2172(4) 0.0773(5)
H5 H 0.8054 0.1871 0.0739
C10 C 0.8817(4) 0.2164(4) 0.0478(4)
H6 H 0.8891 0.1858 0.023
C11 C 0.9089(4) 0.3010(4) 0.0871(4)
H7 H 0.9361 0.3295 0.0914
C12 C 0.8584(4) 0.3068(4) 0.1170(5)
H8 H 0.8515 0.339 0.1397
N1 N 0.9214(3) 0.2572(3) 0.0525(4)
O1M O 0.4206(3) 0.2599(3) 0.2536(3)
O2M O 0.4422(3) 0.1947(3) 0.1868(3)
C1M C 0.4084(5) 0.2264(5) 0.2121(6)
C2M C 0.3461(4) 0.2277(5) 0.1910(4)
C3M C 0.3172(5) 0.2783(4) 0.1913(5)
H1M H 0.3338 0.3107 0.2075
C4M C 0.2631(4) 0.2807(4) 0.1674(5)
H2M H 0.2434 0.3151 0.1674
C5M C 0.2377(4) 0.2327(5) 0.1436(4)
C6M C 0.2673(4) 0.1819(4) 0.1464(4)
H3M H 0.2498 0.1487 0.1333
C7M C 0.3218(4) 0.1791(4) 0.1679(4)
H4M H 0.342 0.1451 0.167
C8M C 0.1818(4) 0.2355(4) 0.1129(4)
C9M C 0.1691(4) 0.2828(4) 0.0773(5)
H5M H 0.1946 0.3129 0.0739
C10M C 0.1183(4) 0.2836(4) 0.0478(4)
H6M H 0.1109 0.3142 0.023
C11M C 0.0911(4) 0.1990(4) 0.0871(4)
H7M H 0.0639 0.1705 0.0914
C12M C 0.1416(4) 0.1932(4) 0.1170(5)
H8M H 0.1485 0.161 0.1397
N1M N 0.0786(3) 0.2428(3) 0.0525(4)
N1A N 0.4928(3) 0.1714(3) 0.3025(4)
N1B N 0.5072(3) 0.3286(3) 0.3025(4)
Cu1D Cu 1.00000 0.25000 0.01543(7)
Cu1D_2 Cu 0.00000 0.25000 0.01543(7)
Cu2 Cu 0.59024(4) 0.01320(4) 0.12423(7)
O3 O 0.6655(3) 0.0296(3) 0.1559(3)
O4 O 0.6250(3) 0.0189(3) 0.2427(3)
C13 C 0.6666(4) 0.0254(4) 0.2107(5)
C14 C 0.7256(4) 0.0261(4) 0.2394(5)
C15 C 0.7340(4) 0.0036(4) 0.2950(5)
H9 H 0.7028 -0.0085 0.3169
C16 C 0.7875(4) -0.0009(4) 0.3178(4)
H10 H 0.7921 -0.018 0.3544
C17 C 0.8345(4) 0.0186(4) 0.2891(5)
C18 C 0.8262(4) 0.0426(4) 0.2339(5)
H11 H 0.8573 0.0565 0.213
C19 C 0.7719(4) 0.0461(4) 0.2094(4)
H12 H 0.767 0.0623 0.1724
C20 C 0.8936(4) 0.0128(4) 0.3118(5)
C21 C 0.9067(4) 0.0170(3) 0.3717(5)
H13 H 0.8775 0.022 0.3988
C22 C 0.9624(4) 0.0140(4) 0.3911(4)
H14 H 0.9696 0.0162 0.4312
C23 C 0.9951(4) 0.0005(4) 0.2979(5)
H15 H 1.0252 -0.0069 0.2724
C24 C 0.9399(4) 0.0032(4) 0.2752(5)
H16 H 0.934 -0.0014 0.2351
N2 N 1.0061(3) 0.0079(3) 0.3543(4)
O5 O 0.5887(3) -0.0361(3) 0.0359(3)
O6 O 0.6004(2) -0.0712(2) 0.1247(3)
N3 N 0.5855(3) -0.4101(3) -0.0873(4)
C25 C 0.5959(4) -0.0768(4) 0.0696(5)
C26 C 0.5965(4) -0.1367(4) 0.0443(5)
C27 C 0.5880(5) -0.1433(4) -0.0157(5)
H17 H 0.5835 -0.1113 -0.0395
C28 C 0.5862(4) -0.1969(4) -0.0403(5)
H18 H 0.5802 -0.2008 -0.0805
C29 C 0.5933(4) -0.2450(4) -0.0062(5)
C30 C 0.6022(4) -0.2374(4) 0.0535(5)
H19 H 0.607 -0.2693 0.0772
C31 C 0.6043(4) -0.1844(4) 0.0787(5)
H20 H 0.611 -0.1807 0.1188
C32 C 0.5894(4) -0.3026(4) -0.0339(5)
C33 C 0.5603(4) -0.3122(4) -0.0856(5)
H21 H 0.5419 -0.282 -0.1041
C34 C 0.5581(4) -0.3656(4) -0.1104(4)
H22 H 0.5368 -0.3709 -0.1444
C35 C 0.6130(4) -0.4013(4) -0.0381(5)
H23 H 0.6313 -0.4322 -0.0208
C36 C 0.6166(4) -0.3497(5) -0.0102(5)
H24 H 0.6373 -0.3462 0.0244
O3F O 0.1655(3) 0.0296(3) 0.3441(3)
O4F O 0.1250(3) 0.0189(3) 0.2573(3)
C13F C 0.1666(4) 0.0254(4) 0.2893(5)
C14F C 0.2256(4) 0.0261(4) 0.2606(5)
C15F C 0.2340(4) 0.0036(4) 0.2050(5)
H9F H 0.2028 -0.0085 0.1831
C16F C 0.2875(4) -0.0009(4) 0.1822(4)
H10F H 0.2921 -0.018 0.1456
C17F C 0.3345(4) 0.0186(4) 0.2109(5)
C18F C 0.3262(4) 0.0426(4) 0.2661(5)
H11F H 0.3573 0.0565 0.287
C19F C 0.2719(4) 0.0461(4) 0.2906(4)
H12F H 0.267 0.0623 0.3276
C20F C 0.3936(4) 0.0128(4) 0.1882(5)
C21F C 0.4067(4) 0.0170(3) 0.1283(5)
H13F H 0.3775 0.022 0.1012
C22F C 0.4624(4) 0.0140(4) 0.1089(4)
H14F H 0.4696 0.0162 0.0688
C23F C 0.4951(4) 0.0005(4) 0.2021(5)
H15F H 0.5252 -0.0069 0.2276
C24F C 0.4399(4) 0.0032(4) 0.2248(5)
H16F H 0.434 -0.0014 0.2649
N2F N 0.5061(3) 0.0079(3) 0.1457(4)
O5E O 0.5887(3) 0.4639(3) -0.0359(3)
O6E O 0.6004(2) 0.4288(2) -0.1247(3)
N3E N 0.5855(3) 0.0899(3) 0.0873(4)
C25E C 0.5959(4) 0.4232(4) -0.0696(5)
C26E C 0.5965(4) 0.3633(4) -0.0443(5)
C27E C 0.5880(5) 0.3567(4) 0.0157(5)
H17E H 0.5835 0.3887 0.0395
C28E C 0.5862(4) 0.3031(4) 0.0403(5)
H18E H 0.5802 0.2992 0.0805
C29E C 0.5933(4) 0.2550(4) 0.0062(5)
C30E C 0.6022(4) 0.2626(4) -0.0535(5)
H19E H 0.607 0.2307 -0.0772
C31E C 0.6043(4) 0.3156(4) -0.0787(5)
H20E H 0.611 0.3193 -0.1188
C32E C 0.5894(4) 0.1974(4) 0.0339(5)
C33E C 0.5603(4) 0.1878(4) 0.0856(5)
H21E H 0.5419 0.218 0.1041
C34E C 0.5581(4) 0.1344(4) 0.1104(4)
H22E H 0.5368 0.1291 0.1444
C35E C 0.6130(4) 0.0987(4) 0.0381(5)
H23E H 0.6313 0.0678 0.0208
C36E C 0.6166(4) 0.1503(5) 0.0102(5)
H24E H 0.6373 0.1538 -0.0244
Cu2F Cu 0.09024(4) 0.01320(4) 0.37577(7)
Cu2F_2 Cu 1.09024(4) 0.01320(4) 0.37577(7)
Cu2E Cu 0.59024(4) -0.48680(4) -0.12423(7)
Cu2E_2 Cu 0.59024(4) 0.51320(4) -0.12423(7)
N2_2 N 0.0061(3) 0.0079(3) 0.3543(4)
O5F O 0.0887(3) -0.0361(3) 0.4641(3)
O6F O 0.1004(2) -0.0712(2) 0.3753(3)
N3C N 0.0855(3) 0.0899(3) 0.4127(4)
loop_
_geom_bond_atom_site_label_1
_geom_bond_atom_site_label_2
_geom_bond_site_symmetry_1
_geom_bond_site_symmetry_2
Cu1 O1 1_555 1_555
Cu2 O3 1_555 1_555
O1 C1 1_555 1_555
O2 C1 1_555 1_555
C1 C2 1_555 1_555
C2 C3 1_555 1_555
C3 H1 1_555 1_555
C4 C3 1_555 1_555
H2 C4 1_555 1_555
C5 C4 1_555 1_555
C6 C5 1_555 1_555
H3 C6 1_555 1_555
C7 C2 1_555 1_555
H4 C7 1_555 1_555
C8 C5 1_555 1_555
C9 C8 1_555 1_555
H5 C9 1_555 1_555
C10 C9 1_555 1_555
H6 C10 1_555 1_555
C11 H7 1_555 1_555
C12 C8 1_555 1_555
H8 C12 1_555 1_555
N1 C10 1_555 1_555
O3 C13 1_555 1_555
O4 C13 1_555 1_555
C13 C14 1_555 1_555
C14 C15 1_555 1_555
C15 H9 1_555 1_555
C16 C15 1_555 1_555
H10 C16 1_555 1_555
C17 C16 1_555 1_555
C18 C17 1_555 1_555
H11 C18 1_555 1_555
C19 C14 1_555 1_555
H12 C19 1_555 1_555
C20 C17 1_555 1_555
C21 C20 1_555 1_555
H13 C21 1_555 1_555
C22 C21 1_555 1_555
H14 C22 1_555 1_555
C23 H15 1_555 1_555
C24 C20 1_555 1_555
H16 C24 1_555 1_555
N2 C22 1_555 1_555
O5 Cu2 1_555 1_555
O6 Cu2 1_555 1_555
N3 C34 1_555 1_555
C25 O5 1_555 1_555
C26 C25 1_555 1_555
C27 C26 1_555 1_555
H17 C27 1_555 1_555
C28 C27 1_555 1_555
H18 C28 1_555 1_555
C29 C28 1_555 1_555
C30 C29 1_555 1_555
H19 C30 1_555 1_555
C31 C26 1_555 1_555
H20 C31 1_555 1_555
C32 C29 1_555 1_555
C33 C32 1_555 1_555
H21 C33 1_555 1_555
C34 C33 1_555 1_555
H22 C34 1_555 1_555
C35 N3 1_555 1_555
H23 C35 1_555 1_555
C36 C32 1_555 1_555
H24 C36 1_555 1_555
O1M Cu1 1_555 1_555
O2M C1M 1_555 1_555
C1M O1M 1_555 1_555
C2M C1M 1_555 1_555
C3M C2M 1_555 1_555
H1M C3M 1_555 1_555
C4M C3M 1_555 1_555
H2M C4M 1_555 1_555
C5M C4M 1_555 1_555
C6M C5M 1_555 1_555
H3M C6M 1_555 1_555
C7M C2M 1_555 1_555
H4M C7M 1_555 1_555
C8M C5M 1_555 1_555
C9M C8M 1_555 1_555
H5M C9M 1_555 1_555
C10M C9M 1_555 1_555
H6M C10M 1_555 1_555
C11M H7M 1_555 1_555
C12M C8M 1_555 1_555
H8M C12M 1_555 1_555
N1M C10M 1_555 1_555
O3F C13F 1_555 1_555
O4F C13F 1_555 1_555
C13F C14F 1_555 1_555
C14F C15F 1_555 1_555
C15F H9F 1_555 1_555
C16F C15F 1_555 1_555
H10F C16F 1_555 1_555
C17F C16F 1_555 1_555
C18F C17F 1_555 1_555
H11F C18F 1_555 1_555
C19F C14F 1_555 1_555
H12F C19F 1_555 1_555
C20F C17F 1_555 1_555
C21F C20F 1_555 1_555
H13F C21F 1_555 1_555
C22F C21F 1_555 1_555
H14F C22F 1_555 1_555
C23F H15F 1_555 1_555
C24F C20F 1_555 1_555
H16F C24F 1_555 1_555
N2F Cu2 1_555 1_555
O5E C25E 1_555 1_555
O6E C25E 1_555 1_555
N3E Cu2 1_555 1_555
C25E C26E 1_555 1_555
C26E C27E 1_555 1_555
C27E H17E 1_555 1_555
C28E C27E 1_555 1_555
H18E C28E 1_555 1_555
C29E C28E 1_555 1_555
C30E C29E 1_555 1_555
H19E C30E 1_555 1_555
C31E C26E 1_555 1_555
H20E C31E 1_555 1_555
C32E C29E 1_555 1_555
C33E C32E 1_555 1_555
H21E C33E 1_555 1_555
C34E N3E 1_555 1_555
H22E C34E 1_555 1_555
C35E N3E 1_555 1_555
H23E C35E 1_555 1_555
C36E C32E 1_555 1_555
H24E C36E 1_555 1_555
Cu2F O3F 1_555 1_555
N1A Cu1 1_555 1_555
N1B Cu1 1_555 1_555
Cu1D N1 1_555 1_555
Cu2F_2 N2 1_555 1_555
Cu2E N3 1_555 1_555
Cu1D_2 N1M 1_555 1_555
Cu2E_2 O5E 1_555 1_555
N2_2 Cu2F 1_555 1_555
O5F Cu2F 1_555 1_555
O6F Cu2F 1_555 1_555
N3C Cu2F 1_555 1_555
C6 C7 1_555 1_555
C11 N1 1_555 1_555
C11 C12 1_555 1_555
C18 C19 1_555 1_555
C23 N2 1_555 1_555
C23 C24 1_555 1_555
O6 C25 1_555 1_555
C30 C31 1_555 1_555
C35 C36 1_555 1_555
C6M C7M 1_555 1_555
C11M N1M 1_555 1_555
C11M C12M 1_555 1_555
C18F C19F 1_555 1_555
C22F N2F 1_555 1_555
C23F N2F 1_555 1_555
C23F C24F 1_555 1_555
O6E Cu2E_2 1_555 1_555
C30E C31E 1_555 1_555
C33E C34E 1_555 1_555
C35E C36E 1_555 1_555

#END
