
#######################################################################
#
#                 Cambridge Crystallographic Data Centre
#                                CCDC 
#
#######################################################################
#
# If this CIF has been generated from an entry in the Cambridge 
# Structural Database, then it will include bibliographic, chemical, 
# crystal, experimental, refinement or atomic coordinate data resulting 
# from the CCDC's data processing and validation procedures.
#
#######################################################################

data_KAGMEL
_symmetry_cell_setting           monoclinic
_symmetry_space_group_name_H-M   'C 2/c'
_symmetry_Int_Tables_number      15
_space_group_name_Hall           '-C 2yn'
loop_
_symmetry_equiv_pos_site_id
_symmetry_equiv_pos_as_xyz
1 x,y,z
2 x,-y,1/2+z
3 1/2+x,1/2+y,z
4 1/2+x,1/2-y,1/2+z
5 -x,-y,-z
6 -x,y,1/2-z
7 1/2-x,1/2-y,-z
8 1/2-x,1/2+y,1/2-z
_cell_length_a                   18.5885(8)
_cell_length_b                   8.8265(4)
_cell_length_c                   21.7607(9)
_cell_angle_alpha                90
_cell_angle_beta                 113.4080(10)
_cell_angle_gamma                90
_cell_volume                     3276.47
loop_
_atom_site_label
_atom_site_type_symbol
_atom_site_fract_x
_atom_site_fract_y
_atom_site_fract_z
Cd1 Cd 0.632505(9) 0.53351(2) 0.360303(8)
S1 S 0.99060(3) 0.28780(7) 0.63378(3)
O1 O 0.75300(10) 0.4692(2) 0.42420(10)
O2 O 0.75440(10) 0.3492(2) 0.33500(10)
O3 O 1.01940(10) 0.1558(2) 0.35600(10)
O4 O 1.10770(10) 0.1047(2) 0.45650(10)
O5 O 1.06710(10) 0.2185(2) 0.66400(10)
O6 O 0.92960(10) 0.2006(2) 0.64460(10)
O7 O 0.98880(10) 0.4447(2) 0.65070(10)
O8 O 0.59490(10) 0.5180(2) 0.24910(10)
N1 N 0.68180(10) 0.7819(2) 0.34700(10)
N2 N 0.73000(10) 1.0435(2) 0.33460(10)
C1 C 0.78620(10) 0.3909(3) 0.39460(10)
C2 C 0.86750(10) 0.3353(3) 0.43720(10)
C3 C 0.91590(10) 0.2746(3) 0.40880(10)
C4 C 0.98890(10) 0.2183(3) 0.44940(10)
C5 C 1.01290(10) 0.2203(3) 0.51820(10)
C6 C 0.96470(10) 0.2815(3) 0.54630(10)
C7 C 0.89270(10) 0.3403(3) 0.50560(10)
C8 C 1.04230(10) 0.1545(3) 0.41900(10)
C9 C 0.7527(2) 0.7727(3) 0.3325(2)
C10 C 0.7820(2) 0.9292(3) 0.3233(2)
C11 C 0.6211(2) 0.8659(3) 0.29230(10)
C12 C 0.6479(2) 1.0242(3) 0.28400(10)
C13 C 0.7016(2) 0.8702(3) 0.40910(10)
C14 C 0.7322(2) 1.0263(3) 0.40340(10)
H1 H 0.589(2) 0.4290(10) 0.2330(10)
H2 H 0.5600(10) 0.574(2) 0.2210(10)
H3 H 0.7460(10) 1.134(2) 0.3320(10)
H4 H 0.8993 0.2716 0.3624
H5 H 1.0614 0.1804 0.5456
H6 H 0.8609 0.3838 0.5247
H7 H 0.7412 0.7136 0.2921
H8 H 0.7937 0.7209 0.3691
H9 H 0.8356 0.9438 0.3550
H10 H 0.7804 0.9392 0.2784
H11 H 0.5742 0.8729 0.3014
H12 H 0.6079 0.8104 0.2507
H13 H 0.6461 1.0370 0.2392
H14 H 0.6138 1.0993 0.2911
H15 H 0.7410 0.8161 0.4460
H16 H 0.6552 0.8803 0.4189
H17 H 0.7000 1.1034 0.4117
H18 H 0.7856 1.0378 0.4362
O3B O 0.51940(10) 0.6558(2) 0.35600(10)
O4B O 0.60770(10) 0.6047(2) 0.45650(10)
O6F O 0.57040(10) 0.2994(2) 0.35540(10)
Cd1B Cd 1.132505(9) 0.03351(2) 0.360303(8)
Cd1F Cd 0.867495(9) -0.03351(2) 0.639697(8)
loop_
_geom_bond_atom_site_label_1
_geom_bond_atom_site_label_2
_geom_bond_site_symmetry_1
_geom_bond_site_symmetry_2
Cd1 O1 1_555 1_555
S1 O5 1_555 1_555
O1 C1 1_555 1_555
O2 C1 1_555 1_555
O3 C8 1_555 1_555
O4 C8 1_555 1_555
O6 S1 1_555 1_555
O7 S1 1_555 1_555
O8 Cd1 1_555 1_555
N1 Cd1 1_555 1_555
N2 C10 1_555 1_555
C1 C2 1_555 1_555
C2 C3 1_555 1_555
C3 C4 1_555 1_555
C4 C5 1_555 1_555
C5 C6 1_555 1_555
C6 S1 1_555 1_555
C7 C2 1_555 1_555
C8 C4 1_555 1_555
C9 N1 1_555 1_555
C10 C9 1_555 1_555
C11 N1 1_555 1_555
C12 N2 1_555 1_555
C13 N1 1_555 1_555
C14 N2 1_555 1_555
H1 O8 1_555 1_555
H2 O8 1_555 1_555
H3 N2 1_555 1_555
H4 C3 1_555 1_555
H5 C5 1_555 1_555
H6 C7 1_555 1_555
H7 C9 1_555 1_555
H8 C9 1_555 1_555
H9 C10 1_555 1_555
H10 C10 1_555 1_555
H11 C11 1_555 1_555
H12 C11 1_555 1_555
H13 C12 1_555 1_555
H14 C12 1_555 1_555
H15 C13 1_555 1_555
H16 C13 1_555 1_555
H17 C14 1_555 1_555
H18 C14 1_555 1_555
O3B Cd1 1_555 1_555
O4B Cd1 1_555 1_555
O6F Cd1 1_555 1_555
Cd1B O3 1_555 1_555
Cd1F O6 1_555 1_555
O4 Cd1B 1_555 1_555
C6 C7 1_555 1_555
C11 C12 1_555 1_555
C13 C14 1_555 1_555

#END
