
#######################################################################
#
#                 Cambridge Crystallographic Data Centre
#                                CCDC 
#
#######################################################################
#
# If this CIF has been generated from an entry in the Cambridge 
# Structural Database, then it will include bibliographic, chemical, 
# crystal, experimental, refinement or atomic coordinate data resulting 
# from the CCDC's data processing and validation procedures.
#
#######################################################################

data_KAGYUO
_symmetry_cell_setting           monoclinic
_symmetry_space_group_name_H-M   'C 2/c'
_symmetry_Int_Tables_number      15
_space_group_name_Hall           '-C 2yn'
loop_
_symmetry_equiv_pos_site_id
_symmetry_equiv_pos_as_xyz
1 x,y,z
2 -x,y,1/2-z
3 1/2+x,1/2+y,z
4 1/2-x,1/2+y,1/2-z
5 -x,-y,-z
6 x,-y,1/2+z
7 1/2-x,1/2-y,-z
8 1/2+x,1/2-y,1/2+z
_cell_length_a                   18.015(4)
_cell_length_b                   10.644(2)
_cell_length_c                   12.892(3)
_cell_angle_alpha                90
_cell_angle_beta                 105.31(3)
_cell_angle_gamma                90
_cell_volume                     2384.33
loop_
_atom_site_label
_atom_site_type_symbol
_atom_site_fract_x
_atom_site_fract_y
_atom_site_fract_z
Nd1 Nd 0.754358(8) 0.492483(13) 0.706831(11)
O1 O 0.86144(12) 0.3348(2) 0.70092(17)
H1 H 0.8442(19) 0.2607(16) 0.687(3)
H2 H 0.8927(17) 0.352(3) 0.665(3)
O2 O 0.67743(13) 0.6592(2) 0.59256(17)
H3 H 0.686(2) 0.7378(12) 0.602(3)
H4 H 0.6429(17) 0.648(3) 0.5341(18)
O4 O 0.71175(11) 0.2807(2) 0.73591(16)
O5 O 0.63046(12) 0.12042(19) 0.70386(17)
O6 O 0.82309(12) 0.5611(2) 0.57041(15)
O7 O 0.81353(12) 0.58182(19) 0.39521(14)
O8 O 0.70488(11) 0.3972(2) 0.52407(15)
O9 O 0.70291(11) 0.40657(19) 0.34971(15)
N1 N 0.60044(13) 0.4471(2) 0.67075(18)
N2 N 0.44655(13) 0.3793(2) 0.59521(19)
N3 N 0.47949(15) 0.1693(3) 0.6071(2)
H7 H 0.4317 0.1513 0.5810
H8 H 0.5131 0.1102 0.6235
C1 C 0.58018(15) 0.3264(3) 0.6622(2)
C2 C 0.50181(15) 0.2903(3) 0.6224(2)
C3 C 0.46847(19) 0.4985(3) 0.6099(3)
H9 H 0.4309 0.5608 0.5951
C4 C 0.54501(17) 0.5342(3) 0.6464(2)
H10 H 0.5578 0.6190 0.6539
C5 C 0.64477(15) 0.2359(3) 0.7022(2)
C6 C 0.79488(15) 0.5352(3) 0.4732(2)
C7 C 0.72870(15) 0.4366(3) 0.4473(2)
Nd1C Nd 0.745642(8) -0.007517(13) 0.793169(11)
Nd1E Nd 0.754358(8) 0.507517(13) 0.206831(11)
O5C O 0.86954(12) 0.62042(19) 0.79614(17)
O7E O 0.81353(12) 0.41818(19) 0.89521(14)
O9E O 0.70291(11) 0.59343(19) 0.84971(15)
O3 O 0.99471(17) 0.3681(3) 0.6197(2)
H5 H 1.0404(11) 0.357(5) 0.659(3)
H6 H 0.996(2) 0.374(5) 0.5544(12)
loop_
_geom_bond_atom_site_label_1
_geom_bond_atom_site_label_2
_geom_bond_site_symmetry_1
_geom_bond_site_symmetry_2
Nd1 O1 1_555 1_555
O1 H1 1_555 1_555
H2 O1 1_555 1_555
O2 Nd1 1_555 1_555
H3 O2 1_555 1_555
H4 O2 1_555 1_555
O3 H5 1_555 1_555
H6 O3 1_555 1_555
O4 Nd1 1_555 1_555
O5 C5 1_555 1_555
O6 Nd1 1_555 1_555
O7 C6 1_555 1_555
O8 Nd1 1_555 1_555
O9 C7 1_555 1_555
N1 Nd1 1_555 1_555
N2 C2 1_555 1_555
N3 H7 1_555 1_555
H8 N3 1_555 1_555
C1 N1 1_555 1_555
C2 N3 1_555 1_555
C3 N2 1_555 1_555
H9 C3 1_555 1_555
C4 N1 1_555 1_555
H10 C4 1_555 1_555
C5 O4 1_555 1_555
C6 O6 1_555 1_555
C7 O8 1_555 1_555
Nd1C O5 1_555 1_555
Nd1E O7 1_555 1_555
O5C Nd1 1_555 1_555
O7E Nd1 1_555 1_555
O9E Nd1 1_555 1_555
O9 Nd1E 1_555 1_555
C1 C2 1_555 1_555
C1 C5 1_555 1_555
C3 C4 1_555 1_555
C6 C7 1_555 1_555

#END
