
#######################################################################
#
#                 Cambridge Crystallographic Data Centre
#                                CCDC 
#
#######################################################################
#
# If this CIF has been generated from an entry in the Cambridge 
# Structural Database, then it will include bibliographic, chemical, 
# crystal, experimental, refinement or atomic coordinate data resulting 
# from the CCDC's data processing and validation procedures.
#
#######################################################################

data_KAGYIC
_symmetry_cell_setting           orthorhombic
_symmetry_space_group_name_H-M   'P 21 21 21'
_symmetry_Int_Tables_number      19
_space_group_name_Hall           'P 2ac 2ab'
loop_
_symmetry_equiv_pos_site_id
_symmetry_equiv_pos_as_xyz
1 x,y,z
2 1/2-x,-y,1/2+z
3 -x,1/2+y,1/2-z
4 1/2+x,1/2-y,-z
_cell_length_a                   7.7870(16)
_cell_length_b                   14.363(3)
_cell_length_c                   16.531(3)
_cell_angle_alpha                90
_cell_angle_beta                 90
_cell_angle_gamma                90
_cell_volume                     1848.9
loop_
_atom_site_label
_atom_site_type_symbol
_atom_site_fract_x
_atom_site_fract_y
_atom_site_fract_z
La1 La 0.354759(15) 0.269467(8) 1.518922(7)
O1 O -0.0824(2) 0.48351(13) 1.47022(13)
O2 O 0.08192(19) 0.35858(10) 1.48658(11)
O3 O 0.0861(2) 0.21172(12) 1.58666(9)
O4 O -0.0848(2) 0.16758(18) 1.68666(12)
O5 O 0.6441(2) 0.31849(11) 1.57342(9)
O6 O 0.8163(2) 0.38570(17) 1.66359(13)
N1 N 0.3674(2) 0.45637(13) 1.48004(13)
N2 N 0.3704(3) 0.64963(15) 1.47263(15)
N3 N 0.0754(3) 0.65310(15) 1.47213(17)
H1 H 0.0802 0.7129 1.4704
H2 H -0.0225 0.6255 1.4728
N4 N 0.3653(3) 0.18688(15) 1.67418(12)
N5 N 0.3506(4) 0.1679(2) 1.84191(14)
N6 N 0.0562(4) 0.1624(3) 1.83647(17)
H3 H 0.0540 0.1577 1.8883
H4 H -0.0383 0.1630 1.8095
N7 N 0.3637(3) 0.38614(13) 1.64657(11)
N8 N 0.3788(3) 0.46812(17) 1.79820(13)
N9 N 0.6717(3) 0.45211(19) 1.80051(15)
H5 H 0.6716 0.4765 1.8480
H6 H 0.7669 0.4353 1.7786
C1 C 0.5158(3) 0.50387(18) 1.4778(2)
H7 H 0.6200 0.4722 1.4783
C2 C 0.5131(4) 0.5998(2) 1.4746(2)
H8 H 0.6175 0.6312 1.4737
C3 C 0.2213(3) 0.60274(17) 1.47375(17)
C4 C 0.2205(3) 0.50371(15) 1.47793(16)
C5 C 0.0593(3) 0.44648(15) 1.47776(15)
C6 C 0.5097(3) 0.1795(2) 1.71844(18)
H9 H 0.6166 0.1806 1.6934
C7 C 0.4974(4) 0.1704(3) 1.8020(2)
H10 H 0.5987 0.1659 1.8316
C8 C 0.2056(4) 0.1689(2) 1.79793(17)
C9 C 0.2152(3) 0.18011(18) 1.71227(15)
C10 C 0.0577(3) 0.18618(17) 1.66048(14)
C11 C 0.2201(3) 0.4151(2) 1.68410(17)
H11 H 0.1137 0.4072 1.6595
C12 C 0.2313(4) 0.4564(2) 1.75933(17)
H12 H 0.1308 0.4771 1.7839
C13 C 0.5232(3) 0.44035(18) 1.76055(16)
C14 C 0.5157(3) 0.39957(17) 1.68213(15)
C15 C 0.6732(3) 0.36674(17) 1.63856(14)
La1C La -0.145241(15) 0.230533(8) 1.481078(7)
La1C_2 La 0.854759(15) 0.230533(8) 1.481078(7)
O2C O 0.58192(19) 0.14142(10) 1.51342(11)
O3C O 0.5861(2) 0.28828(12) 1.41334(9)
O5C O 0.1441(2) 0.18151(11) 1.42658(9)
loop_
_geom_bond_atom_site_label_1
_geom_bond_atom_site_label_2
_geom_bond_site_symmetry_1
_geom_bond_site_symmetry_2
La1 O2 1_555 1_555
O1 C5 1_555 1_555
O2 C5 1_555 1_555
O3 La1 1_555 1_555
O4 C10 1_555 1_555
O5 La1 1_555 1_555
O6 C15 1_555 1_555
N1 La1 1_555 1_555
N2 C2 1_555 1_555
N3 H1 1_555 1_555
H2 N3 1_555 1_555
N4 La1 1_555 1_555
N5 C7 1_555 1_555
N6 H3 1_555 1_555
H4 N6 1_555 1_555
N7 La1 1_555 1_555
N8 C12 1_555 1_555
N9 H5 1_555 1_555
H6 N9 1_555 1_555
C1 N1 1_555 1_555
H7 C1 1_555 1_555
C2 C1 1_555 1_555
H8 C2 1_555 1_555
C3 N2 1_555 1_555
C4 N1 1_555 1_555
C5 C4 1_555 1_555
C6 N4 1_555 1_555
H9 C6 1_555 1_555
C7 C6 1_555 1_555
H10 C7 1_555 1_555
C8 N5 1_555 1_555
C9 N4 1_555 1_555
C10 O3 1_555 1_555
C11 N7 1_555 1_555
H11 C11 1_555 1_555
C12 C11 1_555 1_555
H12 C12 1_555 1_555
C13 N8 1_555 1_555
C14 N7 1_555 1_555
C15 O5 1_555 1_555
La1C O2 1_555 1_555
La1C_2 O5 1_555 1_555
O2C La1 1_555 1_555
O3C La1 1_555 1_555
O5C La1 1_555 1_555
O3 La1C 1_555 1_555
N3 C3 1_555 1_555
N6 C8 1_555 1_555
N9 C13 1_555 1_555
C3 C4 1_555 1_555
C8 C9 1_555 1_555
C9 C10 1_555 1_555
C13 C14 1_555 1_555
C14 C15 1_555 1_555
La1C O5C 1_555 1_555
La1C_2 O2C 1_555 1_555
La1C_2 O3C 1_555 1_555

#END
