
#######################################################################
#
#                 Cambridge Crystallographic Data Centre
#                                CCDC 
#
#######################################################################
#
# If this CIF has been generated from an entry in the Cambridge 
# Structural Database, then it will include bibliographic, chemical, 
# crystal, experimental, refinement or atomic coordinate data resulting 
# from the CCDC's data processing and validation procedures.
#
#######################################################################

data_KAGYOI
_symmetry_cell_setting           monoclinic
_symmetry_space_group_name_H-M   'C 2/c'
_symmetry_Int_Tables_number      15
_space_group_name_Hall           '-C 2yn'
loop_
_symmetry_equiv_pos_site_id
_symmetry_equiv_pos_as_xyz
1 x,y,z
2 1/2+x,1/2+y,z
3 -x,y,1/2-z
4 1/2-x,1/2+y,1/2-z
5 -x,-y,-z
6 1/2-x,1/2-y,-z
7 x,-y,1/2+z
8 1/2+x,1/2-y,1/2+z
_cell_length_a                   18.0955(6)
_cell_length_b                   10.6213(3)
_cell_length_c                   12.9660(4)
_cell_angle_alpha                90
_cell_angle_beta                 105.377(1)
_cell_angle_gamma                90
_cell_volume                     2402.83
loop_
_atom_site_label
_atom_site_type_symbol
_atom_site_fract_x
_atom_site_fract_y
_atom_site_fract_z
Pr1 Pr 0.254103(6) 0.493040(10) 0.707683(9)
O1 O 0.21063(8) 0.27867(14) 0.73612(12)
O2 O 0.12885(9) 0.11880(14) 0.70270(12)
O3 O 0.20480(9) 0.39664(15) 0.52464(11)
O4 O 0.36190(9) 0.33423(15) 0.70154(13)
H1 H 0.3400(15) 0.2645(17) 0.681(2)
H2 H 0.3919(15) 0.352(3) 0.663(2)
O5 O 0.17654(10) 0.65972(14) 0.59190(13)
H3 H 0.1882(18) 0.7374(12) 0.598(2)
H4 H 0.1428(14) 0.648(2) 0.5335(14)
O7 O 0.20263(8) 0.40617(14) 0.35115(11)
O8 O 0.32251(9) 0.56149(16) 0.57032(11)
O9 O 0.31226(9) 0.58230(14) 0.39587(11)
N1 N 0.10010(10) 0.44726(17) 0.67121(13)
N2 N -0.05312(10) 0.37963(18) 0.59489(14)
N3 N -0.02118(12) 0.16873(19) 0.6063(2)
H7 H 0.0098(11) 0.1094(19) 0.629(2)
H8 H -0.0672(6) 0.147(2) 0.597(2)
C1 C 0.14405(12) 0.23463(19) 0.70211(15)
C2 C 0.07948(11) 0.32582(18) 0.66219(15)
C3 C 0.00159(12) 0.2903(2) 0.62254(15)
C4 C -0.03107(17) 0.49933(18) 0.6094(2)
H9 H -0.0683 0.5619 0.5935
C5 C 0.04459(13) 0.5344(2) 0.64707(18)
H10 H 0.0573 0.6193 0.6558
C6 C 0.22803(12) 0.43618(19) 0.44833(15)
C7 C 0.29398(12) 0.5352(2) 0.47401(16)
Pr1C Pr 0.245897(6) -0.006960(10) 0.792317(9)
Pr1F Pr 0.254103(6) 0.506960(10) 0.207683(9)
O2C O 0.37115(9) 0.61880(14) 0.79730(12)
O7F O 0.20263(8) 0.59383(14) 0.85115(11)
O9F O 0.31226(9) 0.41770(14) 0.89587(11)
O6 O 0.49455(15) 0.3679(3) 0.61963(18)
H5 H 0.4925(19) 0.376(4) 0.5539(10)
H6 H 0.5410(9) 0.353(4) 0.654(2)
loop_
_geom_bond_atom_site_label_1
_geom_bond_atom_site_label_2
_geom_bond_site_symmetry_1
_geom_bond_site_symmetry_2
Pr1 O1 1_555 1_555
O1 C1 1_555 1_555
O2 C1 1_555 1_555
O3 Pr1 1_555 1_555
O4 Pr1 1_555 1_555
H1 O4 1_555 1_555
H2 O4 1_555 1_555
O5 Pr1 1_555 1_555
H3 O5 1_555 1_555
H4 O5 1_555 1_555
O6 H5 1_555 1_555
H6 O6 1_555 1_555
O7 C6 1_555 1_555
O8 Pr1 1_555 1_555
O9 C7 1_555 1_555
N1 Pr1 1_555 1_555
N2 C3 1_555 1_555
N3 H7 1_555 1_555
H8 N3 1_555 1_555
C1 C2 1_555 1_555
C2 N1 1_555 1_555
C3 N3 1_555 1_555
C4 N2 1_555 1_555
H9 C4 1_555 1_555
C5 N1 1_555 1_555
H10 C5 1_555 1_555
C6 O3 1_555 1_555
C7 O8 1_555 1_555
Pr1C O2 1_555 1_555
Pr1F O7 1_555 1_555
O2C Pr1 1_555 1_555
O7F Pr1 1_555 1_555
O9F Pr1 1_555 1_555
O9 Pr1F 1_555 1_555
C2 C3 1_555 1_555
C4 C5 1_555 1_555
C6 C7 1_555 1_555

#END
