
#######################################################################
#
#                 Cambridge Crystallographic Data Centre
#                                CCDC 
#
#######################################################################
#
# If this CIF has been generated from an entry in the Cambridge 
# Structural Database, then it will include bibliographic, chemical, 
# crystal, experimental, refinement or atomic coordinate data resulting 
# from the CCDC's data processing and validation procedures.
#
#######################################################################

data_KAGZOJ
_symmetry_cell_setting           monoclinic
_symmetry_space_group_name_H-M   'P 21/n'
_symmetry_Int_Tables_number      14
_space_group_name_Hall           '-P 2yn'
loop_
_symmetry_equiv_pos_site_id
_symmetry_equiv_pos_as_xyz
1 x,y,z
2 1/2-x,1/2+y,1/2-z
3 -x,-y,-z
4 1/2+x,1/2-y,1/2+z
_cell_length_a                   9.766(2)
_cell_length_b                   11.389(2)
_cell_length_c                   24.751(5)
_cell_angle_alpha                90
_cell_angle_beta                 93.69(3)
_cell_angle_gamma                90
_cell_volume                     2747.22
loop_
_atom_site_label
_atom_site_type_symbol
_atom_site_fract_x
_atom_site_fract_y
_atom_site_fract_z
Tb1 Tb 0.639827(17) 0.267509(16) 0.244855(7)
Tb2 Tb 0.358339(17) 0.483865(16) 0.260559(7)
O1 O 0.8199(3) 0.1411(2) 0.21996(12)
O2 O 0.8425(3) 0.3792(3) 0.27332(13)
H1 H 0.903(3) 0.354(3) 0.2962(15)
H2 H 0.872(4) 0.436(3) 0.2552(16)
O3 O 0.1510(3) 0.3772(3) 0.23552(12)
H3 H 0.130(4) 0.313(3) 0.2507(17)
H4 H 0.090(4) 0.394(3) 0.2106(15)
O4 O 0.9977(3) 0.0890(2) 0.17314(11)
O5 O 0.6087(3) 0.0798(2) 0.28626(11)
O6 O 0.4995(3) -0.0112(2) 0.34994(12)
O7 O 0.1819(3) 0.6153(2) 0.28398(11)
O8 O -0.0036(3) 0.6648(2) 0.32604(11)
O9 O 0.3879(3) 0.6690(2) 0.21528(10)
O10 O 0.4895(3) 0.7566(3) 0.14860(12)
O11 O 0.5678(3) 0.4506(2) 0.22536(11)
H5 H 0.617(4) 0.510(3) 0.2333(17)
O12 O 0.4280(3) 0.2990(2) 0.27967(11)
H6 H 0.375(4) 0.241(3) 0.2746(19)
N1 N 0.7438(3) 0.3056(3) 0.15076(13)
N2 N 0.8518(4) 0.3289(3) 0.05065(14)
N3 N 1.0045(4) 0.1805(4) 0.07115(16)
H7 H 1.0353 0.1896 0.0397
H8 H 1.0395 0.1279 0.0928
N4 N 0.6774(4) 0.2592(3) 0.35151(14)
N5 N 0.6115(4) 0.2667(3) 0.45903(15)
N6 N 0.4918(4) 0.0947(3) 0.44824(15)
H9 H 0.4689 0.1019 0.4811
H10 H 0.4636 0.0353 0.4292
N7 N 0.2544(3) 0.4563(3) 0.35639(13)
N8 N 0.1416(4) 0.4427(3) 0.45644(15)
N9 N -0.0151(5) 0.5855(4) 0.43043(16)
H11 H -0.0479 0.5793 0.4617
H12 H -0.0504 0.6349 0.4072
N10 N 0.3192(4) 0.4840(3) 0.15498(13)
N11 N 0.3828(4) 0.4642(3) 0.04792(14)
N12 N 0.4886(4) 0.6431(3) 0.05152(15)
H13 H 0.5090 0.6328 0.0186
H14 H 0.5133 0.7064 0.0684
C1 C 0.8453(4) 0.2358(3) 0.13705(16)
C2 C 0.9019(4) 0.2483(3) 0.08650(16)
C3 C 0.7510(5) 0.3970(4) 0.06558(17)
H15 H 0.7156 0.4537 0.0415
C4 C 0.6964(4) 0.3873(3) 0.11539(17)
H16 H 0.6265 0.4376 0.1245
C5 C 0.8914(4) 0.1482(3) 0.18016(15)
C6 C 0.6080(4) 0.1706(3) 0.37261(15)
C7 C 0.5708(4) 0.1756(4) 0.42697(16)
C8 C 0.6829(5) 0.3507(4) 0.43660(19)
H17 H 0.7124 0.4142 0.4579
C9 C 0.7150(5) 0.3485(4) 0.38388(18)
H18 H 0.7641 0.4106 0.3702
C10 C 0.5671(4) 0.0712(3) 0.33382(15)
C11 C 0.1510(4) 0.5254(3) 0.36750(15)
C12 C 0.0918(5) 0.5180(4) 0.41777(17)
C13 C 0.2443(5) 0.3743(4) 0.44371(18)
H19 H 0.2792 0.3203 0.4692
C14 C 0.3020(5) 0.3798(4) 0.39433(18)
H20 H 0.3744 0.3301 0.3873
C15 C 0.1057(4) 0.6085(3) 0.32222(15)
C16 C 0.3839(4) 0.5713(3) 0.13109(15)
C17 C 0.4180(4) 0.5604(4) 0.07662(16)
C18 C 0.3155(5) 0.3806(4) 0.07250(18)
H21 H 0.2880 0.3140 0.0529
C19 C 0.2848(4) 0.3887(4) 0.12578(17)
H22 H 0.2396 0.3271 0.1417
C20 C 0.4253(4) 0.6749(3) 0.16714(16)
Tb1A Tb -0.139827(17) 0.767509(16) 0.255145(7)
Tb2A Tb 1.141661(17) -0.016135(16) 0.239441(7)
O4A O 0.5023(3) 0.5890(2) 0.32686(11)
O8A O 0.5036(3) 0.1648(2) 0.17396(11)
loop_
_geom_bond_atom_site_label_1
_geom_bond_atom_site_label_2
_geom_bond_site_symmetry_1
_geom_bond_site_symmetry_2
Tb1 O1 1_555 1_555
Tb2 O3 1_555 1_555
O1 C5 1_555 1_555
O2 Tb1 1_555 1_555
H1 O2 1_555 1_555
H2 O2 1_555 1_555
O3 H3 1_555 1_555
H4 O3 1_555 1_555
O4 C5 1_555 1_555
O5 Tb1 1_555 1_555
O6 C10 1_555 1_555
O7 Tb2 1_555 1_555
O8 C15 1_555 1_555
O9 Tb2 1_555 1_555
O10 C20 1_555 1_555
O11 Tb1 1_555 1_555
H5 O11 1_555 1_555
O12 Tb1 1_555 1_555
H6 O12 1_555 1_555
N1 Tb1 1_555 1_555
N2 C2 1_555 1_555
N3 H7 1_555 1_555
H8 N3 1_555 1_555
N4 Tb1 1_555 1_555
N5 C7 1_555 1_555
N6 H9 1_555 1_555
H10 N6 1_555 1_555
N7 Tb2 1_555 1_555
N8 C12 1_555 1_555
N9 H11 1_555 1_555
H12 N9 1_555 1_555
N10 Tb2 1_555 1_555
N11 C17 1_555 1_555
N12 H13 1_555 1_555
H14 N12 1_555 1_555
C1 N1 1_555 1_555
C2 N3 1_555 1_555
C3 N2 1_555 1_555
H15 C3 1_555 1_555
C4 N1 1_555 1_555
H16 C4 1_555 1_555
C5 C1 1_555 1_555
C6 N4 1_555 1_555
C7 N6 1_555 1_555
C8 N5 1_555 1_555
H17 C8 1_555 1_555
C9 N4 1_555 1_555
H18 C9 1_555 1_555
C10 O5 1_555 1_555
C11 N7 1_555 1_555
C12 N9 1_555 1_555
C13 N8 1_555 1_555
H19 C13 1_555 1_555
C14 N7 1_555 1_555
H20 C14 1_555 1_555
C15 O7 1_555 1_555
C16 N10 1_555 1_555
C17 N12 1_555 1_555
C18 N11 1_555 1_555
H21 C18 1_555 1_555
C19 N10 1_555 1_555
H22 C19 1_555 1_555
C20 O9 1_555 1_555
Tb1A O8 1_555 1_555
Tb2A O4 1_555 1_555
O4A Tb2 1_555 1_555
O8A Tb1 1_555 1_555
Tb2 O11 1_555 1_555
Tb2 O12 1_555 1_555
C1 C2 1_555 1_555
C3 C4 1_555 1_555
C6 C7 1_555 1_555
C6 C10 1_555 1_555
C8 C9 1_555 1_555
C11 C12 1_555 1_555
C11 C15 1_555 1_555
C13 C14 1_555 1_555
C16 C17 1_555 1_555
C16 C20 1_555 1_555
C18 C19 1_555 1_555

#END
