
#######################################################################
#
#                 Cambridge Crystallographic Data Centre
#                                CCDC 
#
#######################################################################
#
# If this CIF has been generated from an entry in the Cambridge 
# Structural Database, then it will include bibliographic, chemical, 
# crystal, experimental, refinement or atomic coordinate data resulting 
# from the CCDC's data processing and validation procedures.
#
#######################################################################

data_KAGZUP
_symmetry_cell_setting           monoclinic
_symmetry_space_group_name_H-M   'P 21/n'
_symmetry_Int_Tables_number      14
_space_group_name_Hall           '-P 2yn'
loop_
_symmetry_equiv_pos_site_id
_symmetry_equiv_pos_as_xyz
1 x,y,z
2 1/2-x,1/2+y,1/2-z
3 -x,-y,-z
4 1/2+x,1/2-y,1/2+z
_cell_length_a                   9.7265(19)
_cell_length_b                   11.364(2)
_cell_length_c                   24.690(5)
_cell_angle_alpha                90
_cell_angle_beta                 93.79(3)
_cell_angle_gamma                90
_cell_volume                     2723.07
loop_
_atom_site_label
_atom_site_type_symbol
_atom_site_fract_x
_atom_site_fract_y
_atom_site_fract_z
Dy1 Dy 0.64092(2) 0.48342(2) 0.239885(10)
Dy2 Dy 0.36086(2) 0.26821(2) 0.255188(10)
O1 O 0.8478(5) 0.3792(4) 0.26426(18)
O2 O 0.1579(4) 0.3775(4) 0.2281(2)
O3 O 0.8172(5) 0.6142(4) 0.21730(18)
O4 O 1.0041(4) 0.6650(4) 0.17499(17)
O5 O 0.6096(4) 0.6680(3) 0.28395(16)
O6 O 0.5088(5) 0.7569(4) 0.35107(18)
O7 O 0.1811(5) 0.1422(4) 0.27861(17)
O8 O 0.0025(4) 0.0883(4) 0.32576(16)
O9 O 0.3927(4) 0.0820(3) 0.21427(16)
O10 O 0.5015(5) -0.0106(4) 0.15011(18)
O11 O 0.4311(4) 0.4499(4) 0.27437(17)
O12 O 0.5724(4) 0.3004(4) 0.22096(18)
N1 N 0.7438(5) 0.4556(5) 0.1446(2)
N2 N 0.8581(6) 0.4430(5) 0.0443(2)
N3 N 1.0145(7) 0.5868(6) 0.0702(2)
H1 H 1.0472 0.5813 0.0388
H2 H 1.0496 0.6361 0.0936
N4 N 0.6785(5) 0.4829(4) 0.3445(2)
N5 N 0.6193(6) 0.4644(5) 0.4522(2)
N6 N 0.5123(7) 0.6436(5) 0.4485(2)
H3 H 0.4927 0.6341 0.4817
H4 H 0.4869 0.7066 0.4314
N7 N 0.2573(5) 0.3053(4) 0.34843(19)
N8 N 0.1468(6) 0.3265(5) 0.4490(2)
N9 N -0.0052(6) 0.1775(6) 0.4280(2)
H5 H -0.0367 0.1858 0.4595
H6 H -0.0397 0.1249 0.4061
N10 N 0.3246(5) 0.2616(4) 0.1494(2)
N11 N 0.3862(6) 0.2694(5) 0.0414(2)
N12 N 0.5065(7) 0.0951(5) 0.0514(2)
H7 H 0.5280 0.1012 0.0183
H8 H 0.5350 0.0359 0.0707
C1 C 0.8482(6) 0.5252(5) 0.1337(2)
C2 C 0.9079(7) 0.5180(6) 0.0827(3)
C3 C 0.7543(7) 0.3740(6) 0.0571(3)
H9 H 0.7188 0.3201 0.0315
C4 C 0.6969(7) 0.3792(6) 0.1071(3)
H10 H 0.6250 0.3289 0.1143
C5 C 0.8939(6) 0.6082(5) 0.1785(2)
C6 C 0.6156(6) 0.5703(5) 0.3685(2)
C7 C 0.5820(7) 0.5610(6) 0.4238(2)
C8 C 0.6854(7) 0.3806(6) 0.4273(3)
H11 H 0.7131 0.3139 0.4470
C9 C 0.7149(7) 0.3876(6) 0.3738(3)
H12 H 0.7604 0.3259 0.3579
C10 C 0.5726(6) 0.6740(5) 0.3323(2)
C11 C 0.1556(6) 0.2354(5) 0.3619(2)
C12 C 0.0978(7) 0.2467(6) 0.4131(2)
C13 C 0.2498(7) 0.3959(6) 0.4341(3)
H13 H 0.2851 0.4527 0.4583
C14 C 0.3046(7) 0.3860(6) 0.3845(3)
H14 H 0.3755 0.4361 0.3758
C15 C 0.1088(6) 0.1479(5) 0.3191(2)
C16 C 0.3923(6) 0.1732(5) 0.1283(2)
C17 C 0.4286(7) 0.1781(6) 0.0730(2)
C18 C 0.3167(7) 0.3541(6) 0.0635(3)
H15 H 0.2876 0.4180 0.0421
C19 C 0.2853(7) 0.3519(6) 0.1174(3)
H16 H 0.2363 0.4139 0.1314
C20 C 0.4328(6) 0.0733(5) 0.1665(2)
H17 H 0.897(6) 0.399(5) 0.2925(16)
H18 H 0.865(6) 0.309(2) 0.256(2)
H19 H 0.125(5) 0.430(4) 0.248(2)
H20 H 0.094(4) 0.345(5) 0.208(2)
H21 H 0.386(6) 0.514(3) 0.270(3)
H22 H 0.607(7) 0.235(3) 0.231(3)
Dy1A Dy -0.14092(2) -0.01658(2) 0.260115(10)
Dy2A Dy 1.13914(2) 0.76821(2) 0.244812(10)
O4A O 0.4959(4) 0.1650(4) 0.32501(17)
O8A O 0.4975(4) 0.5883(4) 0.17424(16)
loop_
_geom_bond_atom_site_label_1
_geom_bond_atom_site_label_2
_geom_bond_site_symmetry_1
_geom_bond_site_symmetry_2
Dy1 O1 1_555 1_555
Dy2 O2 1_555 1_555
O1 H17 1_555 1_555
O2 H19 1_555 1_555
O3 Dy1 1_555 1_555
O4 C5 1_555 1_555
O5 Dy1 1_555 1_555
O6 C10 1_555 1_555
O7 Dy2 1_555 1_555
O8 C15 1_555 1_555
O9 Dy2 1_555 1_555
O10 C20 1_555 1_555
O11 Dy1 1_555 1_555
O12 Dy1 1_555 1_555
N1 Dy1 1_555 1_555
N2 C2 1_555 1_555
N3 H1 1_555 1_555
H2 N3 1_555 1_555
N4 Dy1 1_555 1_555
N5 C7 1_555 1_555
N6 H3 1_555 1_555
H4 N6 1_555 1_555
N7 Dy2 1_555 1_555
N8 C12 1_555 1_555
N9 H5 1_555 1_555
H6 N9 1_555 1_555
N10 Dy2 1_555 1_555
N11 C17 1_555 1_555
N12 H7 1_555 1_555
H8 N12 1_555 1_555
C1 N1 1_555 1_555
C2 N3 1_555 1_555
C3 N2 1_555 1_555
H9 C3 1_555 1_555
C4 N1 1_555 1_555
H10 C4 1_555 1_555
C5 O3 1_555 1_555
C6 N4 1_555 1_555
C7 N6 1_555 1_555
C8 N5 1_555 1_555
H11 C8 1_555 1_555
C9 N4 1_555 1_555
H12 C9 1_555 1_555
C10 O5 1_555 1_555
C11 N7 1_555 1_555
C12 N9 1_555 1_555
C13 N8 1_555 1_555
H13 C13 1_555 1_555
C14 N7 1_555 1_555
H14 C14 1_555 1_555
C15 O7 1_555 1_555
C16 N10 1_555 1_555
C17 N12 1_555 1_555
C18 N11 1_555 1_555
H15 C18 1_555 1_555
C19 N10 1_555 1_555
H16 C19 1_555 1_555
C20 O9 1_555 1_555
H18 O1 1_555 1_555
H20 O2 1_555 1_555
H21 O11 1_555 1_555
H22 O12 1_555 1_555
Dy1A O8 1_555 1_555
Dy2A O4 1_555 1_555
O4A Dy2 1_555 1_555
O8A Dy1 1_555 1_555
Dy2 O11 1_555 1_555
Dy2 O12 1_555 1_555
C1 C2 1_555 1_555
C1 C5 1_555 1_555
C3 C4 1_555 1_555
C6 C7 1_555 1_555
C6 C10 1_555 1_555
C8 C9 1_555 1_555
C11 C12 1_555 1_555
C11 C15 1_555 1_555
C13 C14 1_555 1_555
C16 C17 1_555 1_555
C16 C20 1_555 1_555
C18 C19 1_555 1_555

#END
