
#######################################################################
#
#                 Cambridge Crystallographic Data Centre
#                                CCDC 
#
#######################################################################
#
# If this CIF has been generated from an entry in the Cambridge 
# Structural Database, then it will include bibliographic, chemical, 
# crystal, experimental, refinement or atomic coordinate data resulting 
# from the CCDC's data processing and validation procedures.
#
#######################################################################

data_KAGZEZ
_symmetry_cell_setting           monoclinic
_symmetry_space_group_name_H-M   'P 21/n'
_symmetry_Int_Tables_number      14
_space_group_name_Hall           '-P 2yn'
loop_
_symmetry_equiv_pos_site_id
_symmetry_equiv_pos_as_xyz
1 x,y,z
2 1/2-x,1/2+y,1/2-z
3 -x,-y,-z
4 1/2+x,1/2-y,1/2+z
_cell_length_a                   9.832(2)
_cell_length_b                   11.437(2)
_cell_length_c                   24.755(5)
_cell_angle_alpha                90
_cell_angle_beta                 94.16(3)
_cell_angle_gamma                90
_cell_volume                     2776.33
loop_
_atom_site_label
_atom_site_type_symbol
_atom_site_fract_x
_atom_site_fract_y
_atom_site_fract_z
Eu1 Eu -0.358180(18) -0.484070(18) 0.239320(7)
Eu2 Eu -0.639970(19) -0.267440(18) 0.255070(7)
O1 O -0.8201(3) -0.1411(3) 0.28051(12)
O2 O -0.8440(3) -0.3786(3) 0.22684(14)
H1 H -0.873(4) -0.439(3) 0.2426(18)
H2 H -0.909(3) -0.348(4) 0.2073(18)
O3 O -0.1498(3) -0.3773(3) 0.26441(13)
H3 H -0.132(5) -0.309(2) 0.2539(18)
H4 H -0.093(4) -0.398(4) 0.2903(15)
O4 O -0.9972(3) -0.0891(3) 0.32745(12)
O5 O -0.6088(3) -0.0800(2) 0.21350(11)
O6 O -0.4994(3) 0.0114(3) 0.15020(12)
O7 O -0.1818(3) -0.6155(3) 0.21528(12)
O8 O 0.0031(3) -0.6649(3) 0.17356(12)
O9 O -0.3882(3) -0.6691(2) 0.28473(11)
O10 O -0.4893(4) -0.7570(3) 0.35144(13)
O11 O -0.5685(3) -0.4505(2) 0.27428(12)
O12 O -0.4284(3) -0.2991(2) 0.22022(12)
N1 N -0.7433(4) -0.3062(3) 0.34966(14)
N2 N -0.8510(4) -0.3291(4) 0.44967(15)
N3 N -1.0043(5) -0.1818(4) 0.42886(16)
H5 H -1.0349 -0.1908 0.4603
H6 H -1.0395 -0.1296 0.4070
N4 N -0.6767(4) -0.2575(3) 0.14803(14)
N5 N -0.6109(5) -0.2655(4) 0.04102(15)
N6 N -0.4900(5) -0.0945(4) 0.05199(16)
H7 H -0.4669 -0.1016 0.0193
H8 H -0.4619 -0.0355 0.0713
N7 N -0.2548(4) -0.4563(3) 0.14294(14)
N8 N -0.1410(4) -0.4429(4) 0.04332(15)
N9 N 0.0141(5) -0.5857(4) 0.06941(17)
H9 H 0.0467 -0.5801 0.0382
H10 H 0.0488 -0.6347 0.0929
N10 N -0.3204(4) -0.4837(3) 0.34528(14)
N11 N -0.3822(4) -0.4637(4) 0.45201(15)
N12 N -0.4888(5) -0.6426(4) 0.44831(16)
H11 H -0.5086 -0.6325 0.4812
H12 H -0.5138 -0.7055 0.4313
C1 C -0.6965(5) -0.3874(4) 0.38457(18)
H13 H -0.6273 -0.4376 0.3756
C2 C -0.7509(5) -0.3969(4) 0.43419(18)
H14 H -0.7158 -0.4538 0.4581
C3 C -0.9017(5) -0.2492(4) 0.41385(18)
C4 C -0.8438(4) -0.2362(4) 0.36304(16)
C5 C -0.8906(4) -0.1495(4) 0.32047(16)
C6 C -0.7153(5) -0.3477(4) 0.11582(18)
H15 H -0.7642 -0.4094 0.1294
C7 C -0.6828(6) -0.3490(5) 0.0629(2)
H16 H -0.7125 -0.4117 0.0413
C8 C -0.5700(5) -0.1753(4) 0.07288(17)
C9 C -0.6083(4) -0.1696(4) 0.12739(16)
C10 C -0.5679(4) -0.0715(4) 0.16609(16)
C11 C -0.3005(5) -0.3803(4) 0.10530(18)
H17 H -0.3716 -0.3302 0.1124
C12 C -0.2447(5) -0.3744(4) 0.0562(2)
H18 H -0.2802 -0.3207 0.0308
C13 C -0.0915(5) -0.5175(4) 0.08158(18)
C14 C -0.1507(4) -0.5260(4) 0.13212(16)
C15 C -0.1063(4) -0.6077(4) 0.17707(16)
C16 C -0.2849(5) -0.3895(4) 0.37436(19)
H19 H -0.2386 -0.3290 0.3586
C17 C -0.3155(5) -0.3803(4) 0.42725(19)
H20 H -0.2888 -0.3135 0.4466
C18 C -0.4191(5) -0.5608(4) 0.42357(17)
C19 C -0.3847(4) -0.5709(4) 0.36866(17)
C20 C -0.4246(4) -0.6742(4) 0.33304(16)
H21 H -0.615(4) -0.512(3) 0.2685(19)
H22 H -0.386(4) -0.236(2) 0.226(2)
Eu1A Eu -1.141820(18) 0.015930(18) 0.260680(7)
Eu2A Eu 0.139970(19) -0.767440(18) 0.244930(7)
O4A O -0.5028(3) -0.5891(3) 0.17255(12)
O8A O -0.5031(3) -0.1649(3) 0.32644(12)
loop_
_geom_bond_atom_site_label_1
_geom_bond_atom_site_label_2
_geom_bond_site_symmetry_1
_geom_bond_site_symmetry_2
Eu1 O3 1_555 1_555
Eu2 O1 1_555 1_555
O1 C5 1_555 1_555
O2 Eu2 1_555 1_555
H1 O2 1_555 1_555
H2 O2 1_555 1_555
O3 H3 1_555 1_555
H4 O3 1_555 1_555
O4 C5 1_555 1_555
O5 Eu2 1_555 1_555
O6 C10 1_555 1_555
O7 Eu1 1_555 1_555
O8 C15 1_555 1_555
O9 Eu1 1_555 1_555
O10 C20 1_555 1_555
O11 Eu1 1_555 1_555
O12 Eu1 1_555 1_555
N1 Eu2 1_555 1_555
N2 C2 1_555 1_555
N3 H5 1_555 1_555
H6 N3 1_555 1_555
N4 Eu2 1_555 1_555
N5 C7 1_555 1_555
N6 H7 1_555 1_555
H8 N6 1_555 1_555
N7 Eu1 1_555 1_555
N8 C12 1_555 1_555
N9 H9 1_555 1_555
H10 N9 1_555 1_555
N10 Eu1 1_555 1_555
N11 C17 1_555 1_555
N12 H11 1_555 1_555
H12 N12 1_555 1_555
C1 N1 1_555 1_555
H13 C1 1_555 1_555
C2 C1 1_555 1_555
H14 C2 1_555 1_555
C3 N2 1_555 1_555
C4 N1 1_555 1_555
C5 C4 1_555 1_555
C6 N4 1_555 1_555
H15 C6 1_555 1_555
C7 C6 1_555 1_555
H16 C7 1_555 1_555
C8 N5 1_555 1_555
C9 N4 1_555 1_555
C10 O5 1_555 1_555
C11 N7 1_555 1_555
H17 C11 1_555 1_555
C12 C11 1_555 1_555
H18 C12 1_555 1_555
C13 N8 1_555 1_555
C14 N7 1_555 1_555
C15 O7 1_555 1_555
C16 N10 1_555 1_555
H19 C16 1_555 1_555
C17 C16 1_555 1_555
H20 C17 1_555 1_555
C18 N11 1_555 1_555
C19 N10 1_555 1_555
C20 O9 1_555 1_555
H21 O11 1_555 1_555
H22 O12 1_555 1_555
Eu1A O4 1_555 1_555
Eu2A O8 1_555 1_555
O4A Eu1 1_555 1_555
O8A Eu2 1_555 1_555
Eu2 O11 1_555 1_555
Eu2 O12 1_555 1_555
N3 C3 1_555 1_555
N6 C8 1_555 1_555
N9 C13 1_555 1_555
N12 C18 1_555 1_555
C3 C4 1_555 1_555
C8 C9 1_555 1_555
C9 C10 1_555 1_555
C13 C14 1_555 1_555
C14 C15 1_555 1_555
C18 C19 1_555 1_555
C19 C20 1_555 1_555

#END
