
#######################################################################
#
#                 Cambridge Crystallographic Data Centre
#                                CCDC 
#
#######################################################################
#
# If this CIF has been generated from an entry in the Cambridge 
# Structural Database, then it will include bibliographic, chemical, 
# crystal, experimental, refinement or atomic coordinate data resulting 
# from the CCDC's data processing and validation procedures.
#
#######################################################################

data_KAGZID
_symmetry_cell_setting           monoclinic
_symmetry_space_group_name_H-M   'P 21/n'
_symmetry_Int_Tables_number      14
_space_group_name_Hall           '-P 2yn'
loop_
_symmetry_equiv_pos_site_id
_symmetry_equiv_pos_as_xyz
1 x,y,z
2 1/2-x,1/2+y,1/2-z
3 -x,-y,-z
4 1/2+x,1/2-y,1/2+z
_cell_length_a                   9.795(2)
_cell_length_b                   11.415(2)
_cell_length_c                   24.738(5)
_cell_angle_alpha                90
_cell_angle_beta                 94.13(3)
_cell_angle_gamma                90
_cell_volume                     2758.77
loop_
_atom_site_label
_atom_site_type_symbol
_atom_site_fract_x
_atom_site_fract_y
_atom_site_fract_z
Gd1 Gd 0.641656(16) 0.483865(15) 0.239440(6)
Gd2 Gd 0.360178(16) 0.267511(15) 0.255146(6)
O1 O 0.8491(3) 0.3774(3) 0.26446(11)
O2 O 0.1573(3) 0.3791(2) 0.22673(12)
O3 O 0.8181(3) 0.6153(2) 0.21604(11)
O4 O 1.0036(3) 0.6648(2) 0.17393(11)
O5 O 0.6122(3) 0.6689(2) 0.28476(10)
O6 O 0.5105(3) 0.7568(2) 0.35141(11)
O7 O 0.1800(3) 0.1411(2) 0.28000(11)
O8 O 0.0022(3) 0.0890(2) 0.32691(10)
O9 O 0.3911(3) 0.0799(2) 0.21372(10)
O10 O 0.5005(3) -0.0113(2) 0.15005(11)
O11 O 0.5721(3) 0.2991(2) 0.22034(11)
O12 O 0.4321(3) 0.4507(2) 0.27464(10)
N1 N 0.7454(3) 0.4564(3) 0.14367(12)
N2 N 0.8585(4) 0.4426(3) 0.04355(14)
N3 N 1.0150(4) 0.5857(4) 0.06951(15)
H1 H 1.0472 0.5792 0.0382
H2 H 1.0504 0.6351 0.0927
N4 N 0.6808(3) 0.4840(3) 0.34501(13)
N5 N 0.6173(4) 0.4642(3) 0.45213(13)
N6 N 0.5113(4) 0.6430(3) 0.44839(14)
H3 H 0.4909 0.6325 0.4813
H4 H 0.4865 0.7062 0.4315
N7 N 0.2563(3) 0.3055(3) 0.34924(12)
N8 N 0.1481(4) 0.3289(3) 0.44934(13)
N9 N -0.0046(4) 0.1804(3) 0.42886(15)
H5 H -0.0351 0.1896 0.4603
H6 H -0.0397 0.1277 0.4072
N10 N 0.3226(3) 0.2591(3) 0.14851(13)
N11 N 0.3884(4) 0.2668(3) 0.04095(14)
N12 N 0.5082(4) 0.0949(3) 0.05179(14)
H7 H 0.5307 0.1023 0.0190
H8 H 0.5364 0.0356 0.0709
C1 C 0.8490(4) 0.5255(3) 0.13252(14)
C2 C 0.9083(4) 0.5180(3) 0.08225(16)
C3 C 0.7556(5) 0.3744(4) 0.05632(17)
H9 H 0.7208 0.3203 0.0308
C4 C 0.6979(4) 0.3798(4) 0.10567(17)
H10 H 0.6259 0.3302 0.1126
C5 C 0.8943(4) 0.6084(3) 0.17778(14)
C6 C 0.6160(4) 0.5714(3) 0.36890(14)
C7 C 0.5820(4) 0.5605(3) 0.42334(15)
C8 C 0.6846(4) 0.3806(4) 0.42749(17)
H11 H 0.7119 0.3141 0.4471
C9 C 0.7153(4) 0.3887(3) 0.37426(16)
H12 H 0.7605 0.3273 0.3585
C10 C 0.5749(4) 0.6747(3) 0.33284(15)
C11 C 0.0980(4) 0.2484(3) 0.41351(15)
C12 C 0.1546(4) 0.2358(3) 0.36292(15)
C13 C 0.3035(4) 0.3872(3) 0.38462(15)
H13 H 0.3732 0.4374 0.3757
C14 C 0.2490(4) 0.3970(3) 0.43440(16)
H14 H 0.2843 0.4537 0.4585
C15 C 0.1086(4) 0.1483(3) 0.31985(15)
C16 C 0.3921(4) 0.1705(3) 0.12740(14)
C17 C 0.4294(4) 0.1756(3) 0.07308(15)
C18 C 0.3169(5) 0.3507(4) 0.06337(18)
H15 H 0.2872 0.4140 0.0420
C19 C 0.2848(5) 0.3486(3) 0.11611(17)
H16 H 0.2358 0.4105 0.1297
C20 C 0.4327(4) 0.0714(3) 0.16619(14)
H17 H 0.912(3) 0.397(3) 0.2882(13)
H18 H 0.868(3) 0.312(2) 0.2506(14)
H19 H 0.129(3) 0.436(3) 0.2448(14)
H20 H 0.095(3) 0.351(3) 0.2055(13)
H21 H 0.628(3) 0.243(2) 0.2260(17)
H22 H 0.380(3) 0.508(2) 0.2667(16)
Gd1A Gd -0.141656(16) -0.016135(15) 0.260560(6)
Gd2A Gd 1.139822(16) 0.767511(15) 0.244854(6)
O4A O 0.4964(3) 0.1648(2) 0.32607(11)
O8A O 0.4978(3) 0.5890(2) 0.17309(10)
loop_
_geom_bond_atom_site_label_1
_geom_bond_atom_site_label_2
_geom_bond_site_symmetry_1
_geom_bond_site_symmetry_2
Gd1 O1 1_555 1_555
Gd2 O2 1_555 1_555
O1 H17 1_555 1_555
O2 H19 1_555 1_555
O3 Gd1 1_555 1_555
O4 C5 1_555 1_555
O5 Gd1 1_555 1_555
O6 C10 1_555 1_555
O7 Gd2 1_555 1_555
O8 C15 1_555 1_555
O9 Gd2 1_555 1_555
O10 C20 1_555 1_555
O11 Gd1 1_555 1_555
O12 Gd1 1_555 1_555
N1 Gd1 1_555 1_555
N2 C2 1_555 1_555
N3 H1 1_555 1_555
H2 N3 1_555 1_555
N4 Gd1 1_555 1_555
N5 C7 1_555 1_555
N6 H3 1_555 1_555
H4 N6 1_555 1_555
N7 Gd2 1_555 1_555
N8 C11 1_555 1_555
N9 H5 1_555 1_555
H6 N9 1_555 1_555
N10 Gd2 1_555 1_555
N11 C17 1_555 1_555
N12 H7 1_555 1_555
H8 N12 1_555 1_555
C1 N1 1_555 1_555
C2 N3 1_555 1_555
C3 N2 1_555 1_555
H9 C3 1_555 1_555
C4 N1 1_555 1_555
H10 C4 1_555 1_555
C5 O3 1_555 1_555
C6 N4 1_555 1_555
C7 N6 1_555 1_555
C8 N5 1_555 1_555
H11 C8 1_555 1_555
C9 N4 1_555 1_555
H12 C9 1_555 1_555
C10 O5 1_555 1_555
C11 N9 1_555 1_555
C12 N7 1_555 1_555
C13 N7 1_555 1_555
H13 C13 1_555 1_555
C14 N8 1_555 1_555
H14 C14 1_555 1_555
C15 O7 1_555 1_555
C16 N10 1_555 1_555
C17 N12 1_555 1_555
C18 N11 1_555 1_555
H15 C18 1_555 1_555
C19 N10 1_555 1_555
H16 C19 1_555 1_555
C20 O9 1_555 1_555
H18 O1 1_555 1_555
H20 O2 1_555 1_555
H21 O11 1_555 1_555
H22 O12 1_555 1_555
Gd1A O8 1_555 1_555
Gd2A O4 1_555 1_555
O4A Gd2 1_555 1_555
O8A Gd1 1_555 1_555
Gd2 O11 1_555 1_555
Gd2 O12 1_555 1_555
C1 C2 1_555 1_555
C1 C5 1_555 1_555
C3 C4 1_555 1_555
C6 C7 1_555 1_555
C6 C10 1_555 1_555
C8 C9 1_555 1_555
C11 C12 1_555 1_555
C12 C15 1_555 1_555
C13 C14 1_555 1_555
C16 C17 1_555 1_555
C16 C20 1_555 1_555
C18 C19 1_555 1_555

#END
