
#######################################################################
#
#                 Cambridge Crystallographic Data Centre
#                                CCDC 
#
#######################################################################
#
# If this CIF has been generated from an entry in the Cambridge 
# Structural Database, then it will include bibliographic, chemical, 
# crystal, experimental, refinement or atomic coordinate data resulting 
# from the CCDC's data processing and validation procedures.
#
#######################################################################

data_KAHBEC
_symmetry_cell_setting           monoclinic
_symmetry_space_group_name_H-M   'P 21/n'
_symmetry_Int_Tables_number      14
_space_group_name_Hall           '-P 2yn'
loop_
_symmetry_equiv_pos_site_id
_symmetry_equiv_pos_as_xyz
1 x,y,z
2 1/2-x,1/2+y,1/2-z
3 -x,-y,-z
4 1/2+x,1/2-y,1/2+z
_cell_length_a                   9.6707(19)
_cell_length_b                   11.308(2)
_cell_length_c                   24.631(5)
_cell_angle_alpha                90
_cell_angle_beta                 93.62(3)
_cell_angle_gamma                90
_cell_volume                     2688.18
loop_
_atom_site_label
_atom_site_type_symbol
_atom_site_fract_x
_atom_site_fract_y
_atom_site_fract_z
Y1 Y 0.64029(5) 0.48328(5) 0.240058(18)
Y2 Y 0.36152(5) 0.26831(5) 0.255253(18)
O1 O 0.1594(4) 0.3779(4) 0.22844(17)
O2 O 0.1816(4) 0.1425(4) 0.27831(15)
O3 O 0.8462(4) 0.3784(4) 0.26384(16)
O4 O 0.0014(4) 0.0879(4) 0.32491(14)
O5 O 0.3926(4) 0.0826(3) 0.21426(14)
O6 O 0.5008(4) -0.0109(4) 0.15021(15)
O7 O 0.8168(4) 0.6136(4) 0.21782(15)
O8 O 1.0051(4) 0.6651(3) 0.17591(15)
O9 O 0.6099(4) 0.6668(3) 0.28398(13)
O10 O 0.5086(4) 0.7580(4) 0.35066(15)
O11 O 0.5717(4) 0.3005(3) 0.22062(15)
O12 O 0.4321(4) 0.4496(3) 0.27465(15)
N1 N 0.2589(4) 0.3053(4) 0.34813(18)
N2 N 0.1477(5) 0.3258(5) 0.44917(19)
N3 N -0.0064(6) 0.1768(5) 0.4279(2)
H1 H -0.0378 0.1863 0.4595
H2 H -0.0419 0.1238 0.4062
N4 N 0.3243(5) 0.2627(4) 0.14962(18)
N5 N 0.3850(5) 0.2705(5) 0.04118(19)
N6 N 0.5053(6) 0.0949(5) 0.05084(19)
H3 H 0.5267 0.1014 0.0176
H4 H 0.5339 0.0350 0.0699
N7 N 0.7432(4) 0.4554(4) 0.14491(17)
N8 N 0.8574(5) 0.4423(5) 0.04431(19)
N9 N 1.0155(6) 0.5874(5) 0.0704(2)
H5 H 1.0493 0.5811 0.0391
H6 H 1.0505 0.6372 0.0938
N10 N 0.6780(5) 0.4819(4) 0.34438(17)
N11 N 0.6194(5) 0.4642(5) 0.45238(18)
N12 N 0.5128(6) 0.6453(5) 0.44859(19)
H7 H 0.4936 0.6354 0.4819
H8 H 0.4873 0.7089 0.4316
C1 C 0.3062(6) 0.3861(5) 0.3845(2)
H9 H 0.3781 0.4363 0.3763
C2 C 0.2488(6) 0.3950(5) 0.4339(2)
H10 H 0.2827 0.4529 0.4580
C3 C 0.0980(6) 0.2446(5) 0.4125(2)
C4 C 0.1557(6) 0.2349(5) 0.3618(2)
C5 C 0.1082(5) 0.1487(5) 0.3180(2)
C6 C 0.2856(6) 0.3537(6) 0.1177(2)
H11 H 0.2385 0.4170 0.1322
C7 C 0.3146(7) 0.3550(6) 0.0637(2)
H12 H 0.2831 0.4183 0.0422
C8 C 0.4269(6) 0.1785(6) 0.0730(2)
C9 C 0.3915(5) 0.1734(5) 0.1281(2)
C10 C 0.4319(5) 0.0733(5) 0.1667(2)
C11 C 0.6971(6) 0.3788(5) 0.1071(2)
H13 H 0.6254 0.3274 0.1143
C12 C 0.7531(7) 0.3743(6) 0.0579(2)
H14 H 0.7164 0.3205 0.0324
C13 C 0.9077(6) 0.5190(5) 0.0829(2)
C14 C 0.8484(5) 0.5252(5) 0.1338(2)
C15 C 0.8950(5) 0.6082(5) 0.17927(19)
C16 C 0.7146(6) 0.3866(5) 0.3738(2)
H15 H 0.7592 0.3241 0.3577
C17 C 0.6867(7) 0.3802(6) 0.4274(2)
H16 H 0.7163 0.3139 0.4473
C18 C 0.5830(6) 0.5613(5) 0.4230(2)
C19 C 0.6148(6) 0.5701(5) 0.3686(2)
C20 C 0.5752(5) 0.6740(5) 0.3325(2)
H17 H 0.906(4) 0.401(4) 0.2885(17)
H18 H 0.094(4) 0.351(4) 0.2076(19)
H19 H 0.619(5) 0.239(3) 0.229(2)
H20 H 0.867(5) 0.309(2) 0.253(2)
H21 H 0.376(5) 0.506(4) 0.268(2)
H22 H 0.134(5) 0.440(3) 0.244(2)
Y1A Y -0.14029(5) -0.01672(5) 0.259942(18)
Y2A Y 1.13848(5) 0.76831(5) 0.244747(18)
O4A O 0.4986(4) 0.5879(4) 0.17509(14)
O8A O 0.4949(4) 0.1651(3) 0.32409(15)
loop_
_geom_bond_atom_site_label_1
_geom_bond_atom_site_label_2
_geom_bond_site_symmetry_1
_geom_bond_site_symmetry_2
Y1 O3 1_555 1_555
Y2 O1 1_555 1_555
O1 H18 1_555 1_555
O2 Y2 1_555 1_555
O3 H17 1_555 1_555
O4 C5 1_555 1_555
O5 Y2 1_555 1_555
O6 C10 1_555 1_555
O7 Y1 1_555 1_555
O8 C15 1_555 1_555
O9 Y1 1_555 1_555
O10 C20 1_555 1_555
O11 Y1 1_555 1_555
O12 Y1 1_555 1_555
N1 Y2 1_555 1_555
N2 C2 1_555 1_555
N3 H1 1_555 1_555
H2 N3 1_555 1_555
N4 Y2 1_555 1_555
N5 C7 1_555 1_555
N6 H3 1_555 1_555
H4 N6 1_555 1_555
N7 Y1 1_555 1_555
N8 C12 1_555 1_555
N9 H5 1_555 1_555
H6 N9 1_555 1_555
N10 Y1 1_555 1_555
N11 C17 1_555 1_555
N12 H7 1_555 1_555
H8 N12 1_555 1_555
C1 N1 1_555 1_555
H9 C1 1_555 1_555
C2 C1 1_555 1_555
H10 C2 1_555 1_555
C3 N2 1_555 1_555
C4 N1 1_555 1_555
C5 O2 1_555 1_555
C6 N4 1_555 1_555
H11 C6 1_555 1_555
C7 C6 1_555 1_555
H12 C7 1_555 1_555
C8 N5 1_555 1_555
C9 N4 1_555 1_555
C10 O5 1_555 1_555
C11 N7 1_555 1_555
H13 C11 1_555 1_555
C12 C11 1_555 1_555
H14 C12 1_555 1_555
C13 N8 1_555 1_555
C14 N7 1_555 1_555
C15 O7 1_555 1_555
C16 N10 1_555 1_555
H15 C16 1_555 1_555
C17 C16 1_555 1_555
H16 C17 1_555 1_555
C18 N11 1_555 1_555
C19 N10 1_555 1_555
C20 O9 1_555 1_555
H19 O11 1_555 1_555
H20 O3 1_555 1_555
H21 O12 1_555 1_555
H22 O1 1_555 1_555
Y1A O4 1_555 1_555
Y2A O8 1_555 1_555
O4A Y1 1_555 1_555
O8A Y2 1_555 1_555
Y2 O11 1_555 1_555
Y2 O12 1_555 1_555
N3 C3 1_555 1_555
N6 C8 1_555 1_555
N9 C13 1_555 1_555
N12 C18 1_555 1_555
C3 C4 1_555 1_555
C4 C5 1_555 1_555
C8 C9 1_555 1_555
C9 C10 1_555 1_555
C13 C14 1_555 1_555
C14 C15 1_555 1_555
C18 C19 1_555 1_555
C19 C20 1_555 1_555

#END
