
#######################################################################
#
#                 Cambridge Crystallographic Data Centre
#                                CCDC 
#
#######################################################################
#
# If this CIF has been generated from an entry in the Cambridge 
# Structural Database, then it will include bibliographic, chemical, 
# crystal, experimental, refinement or atomic coordinate data resulting 
# from the CCDC's data processing and validation procedures.
#
#######################################################################

data_KAHHAD
_symmetry_cell_setting           monoclinic
_symmetry_space_group_name_H-M   'P 21/n'
_symmetry_Int_Tables_number      14
_space_group_name_Hall           '-P 2yn'
loop_
_symmetry_equiv_pos_site_id
_symmetry_equiv_pos_as_xyz
1 x,y,z
2 1/2+x,1/2-y,1/2+z
3 -x,-y,-z
4 1/2-x,1/2+y,1/2-z
_cell_length_a                   8.2043(13)
_cell_length_b                   14.970(2)
_cell_length_c                   10.6012(16)
_cell_angle_alpha                90
_cell_angle_beta                 90.191(3)
_cell_angle_gamma                90
_cell_volume                     1302.01
loop_
_atom_site_label
_atom_site_type_symbol
_atom_site_fract_x
_atom_site_fract_y
_atom_site_fract_z
C14 C 0.444(3) 0.551(2) 0.5713(19)
O5 O 0.5000 0.5000 0.5000
C14B C 0.556(3) 0.449(2) 0.4287(19)
Cu1 Cu -0.12409(8) 0.02659(4) 0.57188(7)
O1 O -0.2375(5) -0.0729(3) 0.4909(4)
O2 O -0.3108(5) -0.3912(3) 0.0654(5)
O3 O -0.0294(5) -0.1188(2) 0.3687(4)
O4 O -0.5209(5) -0.4383(3) 0.1846(4)
N1 N -0.3094(6) 0.0558(3) 0.7107(5)
N2 N -0.4893(8) -0.2887(4) 0.3432(6)
C1 C -0.1724(8) -0.1246(4) 0.4122(6)
C2 C -0.2732(8) -0.1999(4) 0.3643(6)
C3 C -0.2388(8) -0.2600(4) 0.2677(6)
H1 H -0.1405 -0.2628 0.2208
C4 C -0.3730(8) -0.3147(4) 0.2524(6)
C5 C -0.4237(11) -0.2202(4) 0.4067(7)
C6 C -0.3989(9) -0.3878(4) 0.1592(7)
C7 C -0.6718(13) -0.3131(7) 0.3528(12)
H2 H -0.7295 -0.2662 0.3991
H3 H -0.7183 -0.3186 0.2679
H4 H -0.6835 -0.3701 0.3975
C9 C -0.4490(8) 0.0116(4) 0.7153(7)
H8 H -0.4700 -0.0318 0.6520
C10 C -0.5653(9) 0.0249(5) 0.8066(8)
H9 H -0.6629 -0.0092 0.8070
C11 C -0.5369(10) 0.0885(6) 0.8967(8)
H10 H -0.6161 0.1000 0.9598
C12 C -0.3985(12) 0.1340(6) 0.8954(9)
H11 H -0.3759 0.1776 0.9582
C13 C -0.2875(10) 0.1165(5) 0.8005(8)
H12 H -0.1894 0.1502 0.7995
O1C O -0.2625(5) 0.4271(3) 0.0091(4)
O2C O -0.1892(5) 0.1088(3) 0.4346(5)
O3C O -0.4706(5) 0.3812(2) 0.1313(4)
O4C O 0.0209(5) 0.0617(3) 0.3154(4)
N2C N -0.0107(8) 0.2113(4) 0.1568(6)
C1C C -0.3276(8) 0.3754(4) 0.0878(6)
C2C C -0.2268(8) 0.3001(4) 0.1357(6)
C3C C -0.2612(8) 0.2400(4) 0.2323(6)
H1C H -0.3595 0.2372 0.2792
C4C C -0.1270(8) 0.1853(4) 0.2476(6)
C5C C -0.0763(11) 0.2798(4) 0.0933(7)
C6C C -0.1011(9) 0.1122(4) 0.3408(7)
C7C C 0.1718(13) 0.1869(7) 0.1472(12)
H2C H 0.2295 0.2338 0.1009
H3C H 0.2183 0.1814 0.2321
H4C H 0.1835 0.1299 0.1025
Cu1C Cu -0.37591(8) 0.52659(4) -0.07188(7)
N1C N -0.1906(6) 0.5558(3) -0.2107(5)
C9C C -0.0510(8) 0.5116(4) -0.2153(7)
H8C H -0.0300 0.4682 -0.1520
C10C C 0.0653(9) 0.5249(5) -0.3066(8)
H9C H 0.1629 0.4908 -0.3070
C11C C 0.0369(10) 0.5885(6) -0.3967(8)
H10C H 0.1161 0.6000 -0.4598
C12C C -0.1015(12) 0.6340(6) -0.3954(9)
H11C H -0.1241 0.6776 -0.4582
C13C C -0.2125(10) 0.6165(5) -0.3005(8)
H12C H -0.3106 0.6502 -0.2995
Cu1B Cu 0.12409(8) -0.02659(4) 0.42812(7)
O3B O 0.0294(5) 0.1188(2) 0.6313(4)
O4A O -0.0209(5) -0.0617(3) 0.6846(4)
Cu1C_2 Cu -0.37591(8) -0.47341(4) -0.07188(7)
Cu1A Cu -0.62409(8) -0.52659(4) 0.07188(7)
Cu1A_2 Cu -0.62409(8) 0.47341(4) 0.07188(7)
O2_2 O -0.3108(5) 0.6088(3) 0.0654(5)
O3A O -0.5294(5) 0.6188(2) -0.1313(4)
O4B O -0.4791(5) 0.4383(3) -0.1846(4)
C8? C 0.485(2) 0.1933(14) 0.497(2)
H5? H 0.4022 0.1914 0.4298
H6? H 0.5288 0.1331 0.5103
H7? H 0.5733 0.2335 0.4716
loop_
_geom_bond_atom_site_label_1
_geom_bond_atom_site_label_2
_geom_bond_site_symmetry_1
_geom_bond_site_symmetry_2
Cu1 O1 1_555 1_555
O1 C1 1_555 1_555
O2 C6 1_555 1_555
O3 C1 1_555 1_555
O4 C6 1_555 1_555
N1 Cu1 1_555 1_555
N2 C4 1_555 1_555
C1 C2 1_555 1_555
C2 C3 1_555 1_555
C3 H1 1_555 1_555
C4 C3 1_555 1_555
C5 N2 1_555 1_555
C6 C4 1_555 1_555
C7 N2 1_555 1_555
H2 C7 1_555 1_555
H3 C7 1_555 1_555
H4 C7 1_555 1_555
C9 N1 1_555 1_555
H8 C9 1_555 1_555
C10 C9 1_555 1_555
H9 C10 1_555 1_555
C11 C10 1_555 1_555
H10 C11 1_555 1_555
C12 C11 1_555 1_555
H11 C12 1_555 1_555
C13 N1 1_555 1_555
H12 C13 1_555 1_555
C14 O5 1_555 1_555
O5 C14B 1_555 1_555
O1C C1C 1_555 1_555
O2C Cu1 1_555 1_555
O3C C1C 1_555 1_555
O4C C6C 1_555 1_555
N2C C4C 1_555 1_555
C1C C2C 1_555 1_555
C2C C3C 1_555 1_555
C3C H1C 1_555 1_555
C4C C3C 1_555 1_555
C5C N2C 1_555 1_555
C6C O2C 1_555 1_555
C7C N2C 1_555 1_555
H2C C7C 1_555 1_555
H3C C7C 1_555 1_555
H4C C7C 1_555 1_555
Cu1C O1C 1_555 1_555
N1C Cu1C 1_555 1_555
C9C N1C 1_555 1_555
H8C C9C 1_555 1_555
C10C C9C 1_555 1_555
H9C C10C 1_555 1_555
C11C C10C 1_555 1_555
H10C C11C 1_555 1_555
C12C C11C 1_555 1_555
H11C C12C 1_555 1_555
C13C N1C 1_555 1_555
H12C C13C 1_555 1_555
Cu1B Cu1 1_555 1_555
O3B Cu1 1_555 1_555
O4A Cu1 1_555 1_555
Cu1C_2 O2 1_555 1_555
Cu1A O4 1_555 1_555
Cu1A_2 O3C 1_555 1_555
O2_2 Cu1C 1_555 1_555
O3A Cu1C 1_555 1_555
O4B Cu1C 1_555 1_555
O3 Cu1B 1_555 1_555
C2 C5 1_555 1_555
C12 C13 1_555 1_555
O4C Cu1B 1_555 1_555
C2C C5C 1_555 1_555
C4C C6C 1_555 1_555
Cu1C Cu1A_2 1_555 1_555
C12C C13C 1_555 1_555
Cu1C_2 Cu1A 1_555 1_555

#END
