
#######################################################################
#
#                 Cambridge Crystallographic Data Centre
#                                CCDC 
#
#######################################################################
#
# If this CIF has been generated from an entry in the Cambridge 
# Structural Database, then it will include bibliographic, chemical, 
# crystal, experimental, refinement or atomic coordinate data resulting 
# from the CCDC's data processing and validation procedures.
#
#######################################################################

data_KAHHOS
_symmetry_cell_setting           monoclinic
_symmetry_space_group_name_H-M   'P 21/c'
_symmetry_Int_Tables_number      14
_space_group_name_Hall           '-P 2ybc'
loop_
_symmetry_equiv_pos_site_id
_symmetry_equiv_pos_as_xyz
1 x,y,z
2 -x,1/2+y,1/2-z
3 -x,-y,-z
4 x,1/2-y,1/2+z
_cell_length_a                   12.015(6)
_cell_length_b                   9.586(6)
_cell_length_c                   9.723(5)
_cell_angle_alpha                90
_cell_angle_beta                 104.11(2)
_cell_angle_gamma                90
_cell_volume                     1086.07
loop_
_atom_site_label
_atom_site_type_symbol
_atom_site_fract_x
_atom_site_fract_y
_atom_site_fract_z
C1 C 0.9903(2) 1.1097(3) 0.8146(3)
C2 C 0.8767(2) 1.1185(3) 0.8178(3)
C3 C 0.8234(2) 1.0475(3) 0.6948(3)
N1 N 0.8996(2) 1.0009(2) 0.6261(2)
N2 N 1.0043(2) 1.0404(2) 0.7002(3)
N3 N 1.0869(2) 1.1705(2) 0.9124(3)
O1 O 1.17767(19) 1.1766(2) 0.8785(3)
O2 O 1.07153(19) 1.2142(2) 1.0253(2)
N4 N 0.8238(2) 1.1895(3) 0.9168(3)
O3 O 0.8182(3) 1.1311(3) 1.0241(3)
O4 O 0.7852(2) 1.3060(2) 0.8831(3)
N5 N 0.7028(2) 1.0269(3) 0.6382(3)
O5 O 0.6378(2) 1.0727(3) 0.7063(3)
O6 O 0.67179(19) 0.9673(2) 0.5236(2)
C4 C 0.4919(3) 0.7810(5) 0.0759(5)
H1 H 0.5170 0.7600 -0.0082
H2 H 0.4315 0.8491 0.0542
H3 H 0.4639 0.6975 0.1105
N6 N 0.5894(2) 0.8373(4) 0.1859(3)
O7 O 0.6427(3) 0.7584(3) 0.2757(3)
O8 O 0.6158(3) 0.9600(3) 0.1816(3)
Na1 Na 0.81360(10) 0.92769(12) 0.37305(12)
N2B N 0.9957(2) 0.9596(2) 0.2998(3)
O1B O 0.82233(19) 0.8234(2) 0.1215(3)
O2A O 0.92847(19) 0.7142(2) 0.4747(2)
O4C O 0.7852(2) 1.1940(2) 0.3831(3)
Na1B Na 1.18640(10) 1.07231(12) 0.62695(12)
Na1A Na 1.18640(10) 1.42769(12) 1.12695(12)
Na1C Na 0.81360(10) 1.57231(12) 0.87305(12)
loop_
_geom_bond_atom_site_label_1
_geom_bond_atom_site_label_2
_geom_bond_site_symmetry_1
_geom_bond_site_symmetry_2
C1 C2 1_555 1_555
C2 C3 1_555 1_555
C3 N1 1_555 1_555
N1 N2 1_555 1_555
N2 C1 1_555 1_555
N3 C1 1_555 1_555
O1 N3 1_555 1_555
O2 N3 1_555 1_555
N4 C2 1_555 1_555
O3 N4 1_555 1_555
O4 N4 1_555 1_555
N5 C3 1_555 1_555
O5 N5 1_555 1_555
O6 N5 1_555 1_555
C4 H1 1_555 1_555
H2 C4 1_555 1_555
H3 C4 1_555 1_555
N6 C4 1_555 1_555
O7 N6 1_555 1_555
O8 N6 1_555 1_555
Na1 N1 1_555 1_555
N2B Na1 1_555 1_555
O1B Na1 1_555 1_555
O2A Na1 1_555 1_555
O4C Na1 1_555 1_555
Na1B N2 1_555 1_555
Na1A O2 1_555 1_555
Na1C O4 1_555 1_555
O1 Na1B 1_555 1_555
O6 Na1 1_555 1_555
O7 Na1 1_555 1_555
O8 Na1 1_555 1_555

#END
