
#######################################################################
#
#                 Cambridge Crystallographic Data Centre
#                                CCDC 
#
#######################################################################
#
# If this CIF has been generated from an entry in the Cambridge 
# Structural Database, then it will include bibliographic, chemical, 
# crystal, experimental, refinement or atomic coordinate data resulting 
# from the CCDC's data processing and validation procedures.
#
#######################################################################

data_KAHHIL
_symmetry_cell_setting           tetragonal
_symmetry_space_group_name_H-M   'P 4/n c c'
_symmetry_Int_Tables_number      130
_space_group_name_Hall           '-P 4a 2ac'
loop_
_symmetry_equiv_pos_site_id
_symmetry_equiv_pos_as_xyz
1 x,y,z
2 1/2-y,x,z
3 y,1/2-x,z
4 1/2+y,1/2+x,1/2-z
5 1/2-x,1/2-y,z
6 -x,1/2+y,1/2-z
7 1/2+x,-y,1/2-z
8 -y,-x,1/2-z
9 -x,-y,-z
10 1/2+y,-x,-z
11 -y,1/2+x,-z
12 1/2-y,1/2-x,1/2+z
13 1/2+x,1/2+y,-z
14 x,1/2-y,1/2+z
15 1/2-x,y,1/2+z
16 y,x,1/2+z
_cell_length_a                   18.8743(16)
_cell_length_b                   18.8743(16)
_cell_length_c                   17.356(3)
_cell_angle_alpha                90
_cell_angle_beta                 90
_cell_angle_gamma                90
_cell_volume                     6182.89
loop_
_atom_site_label
_atom_site_type_symbol
_atom_site_fract_x
_atom_site_fract_y
_atom_site_fract_z
Cu1 Cu 0.55081(5) 0.98450(5) 0.69255(6)
O1 O 0.4564(3) 0.9674(3) 0.6527(3)
O2 O 0.3994(3) 1.0368(3) 0.7390(3)
O3 O 0.0810(3) 0.9519(3) 0.6469(3)
O4 O 0.1371(3) 0.9934(3) 0.7519(3)
N1 N 0.6054(4) 0.9333(4) 0.5995(4)
C1 C 0.4014(4) 0.9951(4) 0.6825(5)
C2 C 0.2087(4) 0.9357(4) 0.5693(5)
H1 H 0.1665 0.9209 0.5442
C3 C 0.2057(4) 0.9629(4) 0.6426(5)
C4 C 0.3350(4) 0.9492(4) 0.5688(5)
H2 H 0.3792 0.9439 0.5434
C5 C 0.2683(4) 0.9846(4) 0.6791(5)
H3 H 0.2663 1.0050 0.7292
C6 C 0.3330(4) 0.9764(4) 0.6423(5)
O5 O 0.2835(3) 0.9037(3) 0.4586(3)
C7 C 0.1364(4) 0.9694(4) 0.6835(5)
C8 C 0.2230(5) 0.8828(6) 0.4160(5)
H4 H 0.1908 0.9236 0.4081
H5 H 0.1968 0.8451 0.4435
C9 C 0.7152(6) 0.8913(6) 0.5468(6)
H6 H 0.7645 0.8833 0.5542
C10 C 0.6826(6) 0.8742(6) 0.4763(6)
H7 H 0.7092 0.8552 0.4347
C11 C 0.2736(4) 0.9296(4) 0.5316(5)
C12 C 0.6103(6) 0.8859(5) 0.4693(5)
H8 H 0.5859 0.8741 0.4231
C13 C 0.6742(5) 0.9199(6) 0.6053(6)
H9 H 0.6969 0.9307 0.6527
C14 C 0.5744(5) 0.9154(5) 0.5313(5)
H10 H 0.5250 0.9236 0.5259
C15 C 0.2500(6) 0.8558(6) 0.3396(5)
H11 H 0.2785 0.8926 0.3146
H12 H 0.2098 0.8436 0.3064
H13 H 0.2792 0.8136 0.3480
Cu1C Cu 0.48450(5) 1.05081(5) 0.80745(6)
O2C O 0.5368(3) 0.8994(3) 0.7610(3)
O3A O 0.5481(3) 1.0810(3) 0.6469(3)
O4F O 0.6371(3) 1.0066(3) 0.7481(3)
Cu1B Cu -0.01550(5) 0.94919(5) 0.69255(6)
Cu1F Cu 0.05081(5) 1.01550(5) 0.80745(6)
O6 O 0.6630(5) 0.8050(5) 0.7736(5)
loop_
_geom_bond_atom_site_label_1
_geom_bond_atom_site_label_2
_geom_bond_site_symmetry_1
_geom_bond_site_symmetry_2
Cu1 O1 1_555 1_555
O1 C1 1_555 1_555
O2 C1 1_555 1_555
O3 C7 1_555 1_555
O4 C7 1_555 1_555
N1 Cu1 1_555 1_555
C1 C6 1_555 1_555
C2 H1 1_555 1_555
C3 C2 1_555 1_555
C4 H2 1_555 1_555
C5 C3 1_555 1_555
H3 C5 1_555 1_555
C6 C4 1_555 1_555
O5 C8 1_555 1_555
C7 C3 1_555 1_555
C8 H4 1_555 1_555
H5 C8 1_555 1_555
C9 H6 1_555 1_555
C10 C9 1_555 1_555
H7 C10 1_555 1_555
C11 C2 1_555 1_555
C12 C10 1_555 1_555
H8 C12 1_555 1_555
C13 N1 1_555 1_555
H9 C13 1_555 1_555
C14 N1 1_555 1_555
H10 C14 1_555 1_555
C15 C8 1_555 1_555
H11 C15 1_555 1_555
H12 C15 1_555 1_555
H13 C15 1_555 1_555
Cu1C Cu1 1_555 1_555
O2C Cu1 1_555 1_555
O3A Cu1 1_555 1_555
O4F Cu1 1_555 1_555
Cu1B O3 1_555 1_555
Cu1F O4 1_555 1_555
O2 Cu1C 1_555 1_555
C4 C11 1_555 1_555
C5 C6 1_555 1_555
O5 C11 1_555 1_555
C9 C13 1_555 1_555
C12 C14 1_555 1_555
Cu1B Cu1F 1_555 1_555

#END
