
#######################################################################
#
#                 Cambridge Crystallographic Data Centre
#                                CCDC 
#
#######################################################################
#
# If this CIF has been generated from an entry in the Cambridge 
# Structural Database, then it will include bibliographic, chemical, 
# crystal, experimental, refinement or atomic coordinate data resulting 
# from the CCDC's data processing and validation procedures.
#
#######################################################################

data_KAHHUX
_symmetry_cell_setting           monoclinic
_symmetry_space_group_name_H-M   'C c'
_symmetry_Int_Tables_number      9
_space_group_name_Hall           'C -2yc'
loop_
_symmetry_equiv_pos_site_id
_symmetry_equiv_pos_as_xyz
1 x,y,z
2 x,-y,1/2+z
3 1/2+x,1/2+y,z
4 1/2+x,1/2-y,1/2+z
_cell_length_a                   19.5148(14)
_cell_length_b                   12.7678(9)
_cell_length_c                   14.3466(10)
_cell_angle_alpha                90
_cell_angle_beta                 114.1330(10)
_cell_angle_gamma                90
_cell_volume                     3262.19
loop_
_atom_site_label
_atom_site_type_symbol
_atom_site_fract_x
_atom_site_fract_y
_atom_site_fract_z
Cu1 Cu 0.14867(3) 0.81345(4) 0.26790(3)
Cu2 Cu 0.02975(3) 0.68637(4) 0.19909(3)
O1 O 0.0888(2) 0.8980(3) 0.3250(3)
O2 O 0.1880(2) 0.7031(3) 0.2070(3)
O3 O 0.1820(2) 0.2726(3) -0.1077(3)
O4 O 0.0973(2) 1.1176(3) 0.6354(3)
O5 O 0.0806(2) 0.6127(3) 0.1250(3)
O6 O -0.0100(2) 1.2091(3) 0.5884(3)
O7 O -0.0033(2) 0.7785(3) 0.2825(3)
O8 O 0.0913(2) 0.3943(3) -0.1742(3)
N1 N 0.2481(2) 0.9091(3) 0.3162(3)
N2 N -0.0656(3) 0.5847(3) 0.1588(3)
C1 C -0.2568(4) 0.3764(5) 0.0587(5)
H1 H -0.2931 0.3993 0.0856
H2 H -0.2395 0.3055 0.0832
H3 H -0.2808 0.3765 -0.0161
C2 C 0.0288(3) 0.8612(4) 0.3247(4)
C3 C 0.1493(3) 0.6303(4) 0.1490(4)
C4 C 0.1502(3) 0.3578(4) -0.1064(4)
C5 C 0.0288(3) 1.1339(4) 0.5794(4)
C6 C 0.0282(3) 0.9999(4) 0.4489(4)
H4 H 0.0789 1.0162 0.4625
C7 C 0.1519(3) 0.4961(4) 0.0214(4)
H5 H 0.0992 0.5045 -0.0148
C8 C -0.0096(3) 1.0556(4) 0.4982(4)
C9 C 0.3779(3) 1.0338(5) 0.3917(4)
C10 C 0.1897(3) 0.4230(4) -0.0122(4)
C11 C 0.2437(3) 1.0138(4) 0.3092(4)
H6 H 0.1956 1.0455 0.2774
C12 C -0.1986(3) 0.5566(5) 0.0839(5)
H7 H -0.2474 0.5863 0.0532
C13 C -0.0575(3) 0.4809(4) 0.1699(4)
H8 H -0.0082 0.4528 0.1995
C14 C -0.1906(3) 0.4504(5) 0.0948(4)
C15 C -0.1172(3) 0.4128(5) 0.1407(4)
H9 H -0.1084 0.3397 0.1518
C16 C -0.1367(3) 0.6209(4) 0.1168(4)
H10 H -0.1444 0.6944 0.1096
C17 C 0.3066(3) 1.0772(4) 0.3465(4)
H11 H 0.3009 1.1512 0.3411
C18 C 0.3816(3) 0.9243(4) 0.3961(4)
H12 H 0.4289 0.8902 0.4253
C19 C 0.3166(3) 0.8663(4) 0.3580(4)
H13 H 0.3205 0.7921 0.3615
C20 C -0.0088(3) 0.9211(4) 0.3804(4)
C21 C 0.4474(3) 1.1004(5) 0.4342(4)
H14 H 0.4666 1.1112 0.3816
H15 H 0.4857 1.0652 0.4932
H16 H 0.4353 1.1683 0.4555
C22 C 0.1905(3) 0.5568(4) 0.1073(4)
C23 C -0.1205(3) 0.9504(4) 0.4109(4)
H17 H -0.1711 0.9340 0.3978
C24 C 0.2681(3) 0.5472(4) 0.1585(4)
H18 H 0.2951 0.5916 0.2147
C25 C -0.0827(3) 0.8942(4) 0.3640(4)
H19 H -0.1069 0.8371 0.3205
C26 C 0.2669(2) 0.4099(4) 0.0432(4)
H20 H 0.2928 0.3578 0.0231
C27 C 0.3058(3) 0.4724(4) 0.1273(4)
H21 H 0.3585 0.4641 0.1636
C28 C -0.0837(3) 1.0310(4) 0.4771(4)
H22 H -0.1098 1.0702 0.5087
O3A O 0.1820(2) 0.7274(3) 0.3923(3)
O4A O 0.0973(2) 0.8824(3) 0.1354(3)
O6A O -0.0100(2) 0.7909(3) 0.0884(3)
O8A O 0.0913(2) 0.6057(3) 0.3258(3)
Cu1A Cu 0.14867(3) 0.18655(4) -0.23210(3)
Cu1A_2 Cu 0.14867(3) 1.18655(4) 0.76790(3)
Cu2A Cu 0.02975(3) 1.31363(4) 0.69909(3)
Cu2A_2 Cu 0.02975(3) 0.31363(4) -0.30091(3)
Cl1 Cl -0.03489(8) 0.86230(11) 0.71000(11)
Cl2 Cl 0.06045(8) 0.72548(10) 0.90326(10)
C29 C 0.0446(3) 0.7964(4) 0.7174(4)
C30 C 0.1299(4) 0.7527(5) 0.6403(5)
H23 H 0.1447 0.7591 0.5851
C31 C 0.0671(4) 0.8040(4) 0.6383(5)
H24 H 0.0386 0.8459 0.5807
C32 C 0.0865(3) 0.7363(4) 0.8026(4)
C33 C 0.1713(4) 0.6913(5) 0.7253(5)
H25 H 0.2148 0.6552 0.7286
C34 C 0.1486(3) 0.6834(4) 0.8053(5)
H26 H 0.1764 0.6407 0.8626
loop_
_geom_bond_atom_site_label_1
_geom_bond_atom_site_label_2
_geom_bond_site_symmetry_1
_geom_bond_site_symmetry_2
Cu1 Cu2 1_555 1_555
Cu2 O5 1_555 1_555
O1 Cu1 1_555 1_555
O2 Cu1 1_555 1_555
O3 C4 1_555 1_555
O4 C5 1_555 1_555
O5 C3 1_555 1_555
O6 C5 1_555 1_555
O7 Cu2 1_555 1_555
O8 C4 1_555 1_555
N1 Cu1 1_555 1_555
N2 Cu2 1_555 1_555
C1 H1 1_555 1_555
H2 C1 1_555 1_555
H3 C1 1_555 1_555
C2 O1 1_555 1_555
C3 O2 1_555 1_555
C4 C10 1_555 1_555
C5 C8 1_555 1_555
C6 H4 1_555 1_555
C7 H5 1_555 1_555
C8 C6 1_555 1_555
C9 C17 1_555 1_555
C10 C7 1_555 1_555
C11 N1 1_555 1_555
H6 C11 1_555 1_555
C12 H7 1_555 1_555
C13 N2 1_555 1_555
H8 C13 1_555 1_555
C14 C1 1_555 1_555
C15 C13 1_555 1_555
H9 C15 1_555 1_555
C16 N2 1_555 1_555
H10 C16 1_555 1_555
C17 C11 1_555 1_555
H11 C17 1_555 1_555
C18 C9 1_555 1_555
H12 C18 1_555 1_555
C19 N1 1_555 1_555
H13 C19 1_555 1_555
C20 C2 1_555 1_555
C21 C9 1_555 1_555
H14 C21 1_555 1_555
H15 C21 1_555 1_555
H16 C21 1_555 1_555
C22 C3 1_555 1_555
C23 H17 1_555 1_555
C24 C22 1_555 1_555
H18 C24 1_555 1_555
C25 C20 1_555 1_555
H19 C25 1_555 1_555
C26 C10 1_555 1_555
H20 C26 1_555 1_555
C27 C24 1_555 1_555
H21 C27 1_555 1_555
C28 C8 1_555 1_555
H22 C28 1_555 1_555
Cl1 C29 1_555 1_555
Cl2 C32 1_555 1_555
C29 C31 1_555 1_555
C30 H23 1_555 1_555
C31 C30 1_555 1_555
H24 C31 1_555 1_555
C32 C29 1_555 1_555
C33 C30 1_555 1_555
H25 C33 1_555 1_555
C34 C32 1_555 1_555
H26 C34 1_555 1_555
O3A Cu1 1_555 1_555
O4A Cu1 1_555 1_555
O6A Cu2 1_555 1_555
O8A Cu2 1_555 1_555
Cu1A O3 1_555 1_555
Cu1A_2 O4 1_555 1_555
Cu2A O6 1_555 1_555
Cu2A_2 O8 1_555 1_555
O7 C2 1_555 1_555
C6 C20 1_555 1_555
C7 C22 1_555 1_555
C12 C14 1_555 1_555
C12 C16 1_555 1_555
C14 C15 1_555 1_555
C18 C19 1_555 1_555
C23 C28 1_555 1_555
C23 C25 1_555 1_555
C26 C27 1_555 1_555
C33 C34 1_555 1_555
Cu1A Cu2A_2 1_555 1_555
Cu1A_2 Cu2A 1_555 1_555

#END
