
#######################################################################
#
#                 Cambridge Crystallographic Data Centre
#                                CCDC 
#
#######################################################################
#
# If this CIF has been generated from an entry in the Cambridge 
# Structural Database, then it will include bibliographic, chemical, 
# crystal, experimental, refinement or atomic coordinate data resulting 
# from the CCDC's data processing and validation procedures.
#
#######################################################################

data_KAHJAF
_symmetry_cell_setting           monoclinic
_symmetry_space_group_name_H-M   'C 2/c'
_symmetry_Int_Tables_number      15
_space_group_name_Hall           '-C 2yn'
loop_
_symmetry_equiv_pos_site_id
_symmetry_equiv_pos_as_xyz
1 x,y,z
2 1/2+x,1/2+y,z
3 x,-y,1/2+z
4 1/2+x,1/2-y,1/2+z
5 -x,-y,-z
6 1/2-x,1/2-y,-z
7 -x,y,1/2-z
8 1/2-x,1/2+y,1/2-z
_cell_length_a                   15.637(4)
_cell_length_b                   15.430(4)
_cell_length_c                   13.332(3)
_cell_angle_alpha                90
_cell_angle_beta                 116.692(4)
_cell_angle_gamma                90
_cell_volume                     2873.94
loop_
_atom_site_label
_atom_site_type_symbol
_atom_site_fract_x
_atom_site_fract_y
_atom_site_fract_z
Cu1 Cu 0.66085(5) 0.72504(4) 0.95320(6)
S1 S 0.76878(11) 1.00449(10) 0.76723(13)
O1 O 0.6418(3) 0.8177(3) 0.8441(3)
O2 O 0.6430(3) 1.1865(3) 0.5467(3)
O3 O 0.5152(3) 0.6820(3) 0.8652(4)
O4 O 0.7949(3) 0.8587(3) 0.9222(4)
O5 O 0.7975(3) 1.1449(3) 0.6305(3)
C1 C 0.7090(5) 0.8649(4) 0.8525(5)
C2 C 0.7117(5) 1.1382(4) 0.6085(5)
C3 C 0.6822(4) 0.9370(4) 0.7686(5)
C4 C 0.6836(4) 1.0634(4) 0.6599(5)
C5 C 0.5929(5) 0.9596(4) 0.6915(5)
H1 H 0.5365 0.9295 0.6808
C6 C 0.5937(4) 1.0331(4) 0.6289(5)
H2 H 0.5378 1.0585 0.5715
C7 C 0.4472(5) 0.7153(5) 0.8973(6)
H3 H 0.4638 0.6973 0.9744
H4 H 0.3835 0.6931 0.8466
H5 H 0.4469 0.7788 0.8933
S1B S 0.76878(11) 0.99551(10) 1.26723(13)
O1B O 0.6418(3) 1.1823(3) 1.3441(3)
O2B O 0.6430(3) 0.8135(3) 1.0467(3)
O4B O 0.7949(3) 1.1413(3) 1.4222(4)
O5B O 0.7975(3) 0.8551(3) 1.1305(3)
C1B C 0.7090(5) 1.1351(4) 1.3525(5)
C2B C 0.7117(5) 0.8618(4) 1.1085(5)
C3B C 0.6822(4) 1.0630(4) 1.2686(5)
C4B C 0.6836(4) 0.9366(4) 1.1599(5)
C5B C 0.5929(5) 1.0404(4) 1.1915(5)
H1B H 0.5365 1.0705 1.1808
C6B C 0.5937(4) 0.9669(4) 1.1289(5)
H2B H 0.5378 0.9415 1.0715
Cu1B Cu 0.66085(5) 1.27496(4) 1.45320(6)
O3B O 0.5152(3) 1.3180(3) 1.3652(4)
C7B C 0.4472(5) 1.2847(5) 1.3973(6)
H3B H 0.4638 1.3027 1.4744
H4B H 0.3835 1.3069 1.3466
H5B H 0.4469 1.2212 1.3933
Cu1E Cu 0.83915(5) 0.77496(4) 1.04680(6)
O4E O 0.7051(3) 0.6413(3) 1.0778(4)
O5G O 0.7025(3) 0.6449(3) 0.8695(3)
Cu1B_2 Cu 0.66085(5) 1.27496(4) 0.45320(6)
Cu1G Cu 0.83915(5) 1.22504(4) 0.54680(6)
Cu1G_2 Cu 0.83915(5) 1.22504(4) 1.54680(6)
O2_2 O 0.6430(3) 1.1865(3) 1.5467(3)
O4G O 0.7051(3) 1.3587(3) 1.5778(4)
O5E O 0.7025(3) 1.3551(3) 1.3695(3)
O6 O 0.0128(4) 1.0108(3) 0.9076(6)
C13 C 0.0849(7) 0.9563(6) 0.9049(8)
H10 H 0.0963 0.9720 0.8406
H11 H 0.0639 0.8958 0.8976
H12 H 0.1442 0.9634 0.9744
C8 C 0.2533(5) 0.7829(4) 0.9648(6)
C9 C 0.1276(6) 0.7113(5) 0.8045(7)
H6 H 0.0867 0.7086 0.7261
C10 C 0.1910(5) 0.7793(5) 0.8491(6)
H7 H 0.1926 0.8241 0.8011
C11 C 0.1243(6) 0.6463(5) 0.8761(7)
H8 H 0.0803 0.5997 0.8456
C12 C 0.3177(6) 0.8514(5) 1.0125(7)
H9 H 0.3205 0.8967 0.9659
C8E C 0.2467(5) 0.7171(4) 1.0352(6)
C10E C 0.3090(5) 0.7207(5) 1.1509(6)
C9E C 0.3724(6) 0.7887(5) 1.1955(7)
H6E H 0.4133 0.7914 1.2739
C11E C 0.3757(6) 0.8537(5) 1.1239(7)
H8E H 0.4197 0.9003 1.1544
C12E C 0.1823(6) 0.6486(5) 0.9875(7)
H9E H 0.1795 0.6033 1.0341
H7E H 0.3074 0.6759 1.1989
loop_
_geom_bond_atom_site_label_1
_geom_bond_atom_site_label_2
_geom_bond_site_symmetry_1
_geom_bond_site_symmetry_2
Cu1 O1 1_555 1_555
S1 C3 1_555 1_555
O1 C1 1_555 1_555
O2 C2 1_555 1_555
O3 Cu1 1_555 1_555
O4 C1 1_555 1_555
O5 C2 1_555 1_555
C1 C3 1_555 1_555
C2 C4 1_555 1_555
C3 C5 1_555 1_555
C4 S1 1_555 1_555
C5 H1 1_555 1_555
C6 C4 1_555 1_555
H2 C6 1_555 1_555
C7 O3 1_555 1_555
H3 C7 1_555 1_555
H4 C7 1_555 1_555
H5 C7 1_555 1_555
O6 C13 1_555 1_555
C8 C10 1_555 1_555
C9 H6 1_555 1_555
C10 C9 1_555 1_555
H7 C10 1_555 1_555
C11 C9 1_555 1_555
H8 C11 1_555 1_555
C12 C8 1_555 1_555
H9 C12 1_555 1_555
C13 H10 1_555 1_555
H11 C13 1_555 1_555
H12 C13 1_555 1_555
C8E C8 1_555 1_555
C10E C8E 1_555 1_555
C9E C10E 1_555 1_555
H6E C9E 1_555 1_555
C11E C12 1_555 1_555
H8E C11E 1_555 1_555
C12E C11 1_555 1_555
H9E C12E 1_555 1_555
H7E C10E 1_555 1_555
S1B C3B 1_555 1_555
O1B C1B 1_555 1_555
O2B Cu1 1_555 1_555
O4B C1B 1_555 1_555
O5B C2B 1_555 1_555
C1B C3B 1_555 1_555
C2B O2B 1_555 1_555
C3B C5B 1_555 1_555
C4B S1B 1_555 1_555
C5B H1B 1_555 1_555
C6B C4B 1_555 1_555
H2B C6B 1_555 1_555
Cu1B O1B 1_555 1_555
O3B Cu1B 1_555 1_555
C7B O3B 1_555 1_555
H3B C7B 1_555 1_555
H4B C7B 1_555 1_555
H5B C7B 1_555 1_555
Cu1E Cu1 1_555 1_555
O4E Cu1 1_555 1_555
O5G Cu1 1_555 1_555
Cu1B_2 O2 1_555 1_555
Cu1G O5 1_555 1_555
Cu1G_2 O4B 1_555 1_555
O2_2 Cu1B 1_555 1_555
O4G Cu1B 1_555 1_555
O5E Cu1B 1_555 1_555
O4 Cu1E 1_555 1_555
C5 C6 1_555 1_555
C8E C12E 1_555 1_555
C9E C11E 1_555 1_555
O5B Cu1E 1_555 1_555
C2B C4B 1_555 1_555
C5B C6B 1_555 1_555
Cu1B Cu1G_2 1_555 1_555
Cu1B_2 Cu1G 1_555 1_555

#END
