
#######################################################################
#
#                 Cambridge Crystallographic Data Centre
#                                CCDC 
#
#######################################################################
#
# If this CIF has been generated from an entry in the Cambridge 
# Structural Database, then it will include bibliographic, chemical, 
# crystal, experimental, refinement or atomic coordinate data resulting 
# from the CCDC's data processing and validation procedures.
#
#######################################################################

data_KAHPIU
_symmetry_cell_setting           monoclinic
_symmetry_space_group_name_H-M   'P 21/n'
_symmetry_Int_Tables_number      14
_space_group_name_Hall           '-P 2yn'
loop_
_symmetry_equiv_pos_site_id
_symmetry_equiv_pos_as_xyz
1 x,y,z
2 1/2-x,1/2+y,1/2-z
3 -x,-y,-z
4 1/2+x,1/2-y,1/2+z
_cell_length_a                   9.3243(12)
_cell_length_b                   11.0261(14)
_cell_length_c                   19.675(3)
_cell_angle_alpha                90
_cell_angle_beta                 98.872(2)
_cell_angle_gamma                90
_cell_volume                     1998.6
loop_
_atom_site_label
_atom_site_type_symbol
_atom_site_fract_x
_atom_site_fract_y
_atom_site_fract_z
C1 C 0.6386(3) 0.3400(2) 0.62273(11)
C2 C 0.6212(3) 0.2278(2) 0.58964(12)
C3 C 0.5568(3) 0.2256(2) 0.52106(12)
H1 H 0.5443 0.1517 0.4981
C4 C 0.5110(3) 0.3304(2) 0.48635(13)
H2 H 0.4690 0.3258 0.4404
C5 C 0.5263(3) 0.4429(2) 0.51841(12)
C6 C 0.5924(3) 0.4449(2) 0.58688(12)
H3 H 0.6061 0.5191 0.6094
C7 C 0.6964(3) 0.3506(2) 0.69801(12)
C8 C 0.6724(3) 0.1096(2) 0.62369(12)
C9 C 1.1325(3) 0.3150(3) 0.84616(14)
H4 H 1.1579 0.3798 0.8758
C10 C 1.2256(4) 0.2331(3) 0.82715(16)
H5 H 1.3256 0.2309 0.8409
C11 C 1.0070(3) 0.1894(2) 0.77791(13)
H6 H 0.9297 0.1501 0.7513
C12 C 1.2003(4) 0.0489(3) 0.74932(16)
H7 H 1.2717 0.0766 0.7218
H8 H 1.1209 0.0119 0.7186
C13 C 1.2687(3) -0.0450(3) 0.80014(14)
C14 C 1.4136(3) -0.0471(3) 0.82264(15)
H9 H 1.4737 0.0076 0.8046
C15 C 1.4731(3) -0.1292(3) 0.87182(16)
H10 H 1.5727 -0.1281 0.8868
C16 C 1.3892(4) -0.2121(3) 0.89902(15)
C17 C 1.2439(4) -0.2146(4) 0.87397(19)
H11 H 1.1849 -0.2720 0.8905
C18 C 1.1839(4) -0.1329(4) 0.82457(19)
H12 H 1.0853 -0.1369 0.8075
C19 C 1.4551(5) -0.3003(3) 0.95342(17)
H13 H 1.4323 -0.3824 0.9377
H14 H 1.5598 -0.2913 0.9607
C20 C 1.3334(4) -0.3611(3) 1.05390(15)
H15 H 1.3128 -0.4404 1.0395
C21 C 1.4101(4) -0.1756(3) 1.05628(16)
H16 H 1.4515 -0.1031 1.0449
C22 C 1.3483(3) -0.1970(3) 1.11257(15)
H17 H 1.3397 -0.1409 1.1470
Co1 Co 0.81348(4) 0.39402(3) 0.819609(16)
N1 N 0.9941(2) 0.28830(19) 0.81501(10)
N2 N 1.1449(3) 0.1539(2) 0.78381(12)
N3 N 1.4005(3) -0.2803(2) 1.01907(13)
N4 N 1.3001(3) -0.3147(2) 1.11107(11)
O1 O 0.6899(2) 0.26282(16) 0.73708(8)
O2 O 0.7481(2) 0.45151(16) 0.72088(8)
O3 O 0.5740(2) 0.03197(17) 0.62971(9)
O4 O 0.8033(2) 0.08968(16) 0.63999(9)
C1B C 0.3614(3) 0.6600(2) 0.37727(11)
C2B C 0.3788(3) 0.7722(2) 0.41036(12)
C3B C 0.4432(3) 0.7744(2) 0.47894(12)
H1B H 0.4557 0.8483 0.5019
C4B C 0.4890(3) 0.6696(2) 0.51365(13)
H2B H 0.5310 0.6742 0.5596
C5B C 0.4737(3) 0.5571(2) 0.48159(12)
C6B C 0.4076(3) 0.5551(2) 0.41312(12)
H3B H 0.3939 0.4809 0.3906
C7B C 0.3036(3) 0.6494(2) 0.30199(12)
C8B C 0.3276(3) 0.8904(2) 0.37631(12)
C9B C -0.1325(3) 0.6850(3) 0.15384(14)
H4B H -0.1579 0.6202 0.1242
C10B C -0.2256(4) 0.7669(3) 0.17285(16)
H5B H -0.3256 0.7691 0.1591
C11B C -0.0070(3) 0.8106(2) 0.22209(13)
H6B H 0.0703 0.8499 0.2487
C12B C -0.2003(4) 0.9511(3) 0.25068(16)
H7B H -0.2717 0.9234 0.2782
H8B H -0.1209 0.9881 0.2814
C13B C -0.2687(3) 1.0450(3) 0.19986(14)
C14B C -0.4136(3) 1.0471(3) 0.17736(15)
H9B H -0.4737 0.9924 0.1954
C15B C -0.4731(3) 1.1292(3) 0.12818(16)
H10B H -0.5727 1.1281 0.1132
C16B C -0.3892(4) 1.2121(3) 0.10098(15)
C17B C -0.2439(4) 1.2146(4) 0.12603(19)
H11B H -0.1849 1.2720 0.1095
C18B C -0.1839(4) 1.1329(4) 0.17543(19)
H12B H -0.0853 1.1369 0.1925
C19B C -0.4551(5) 1.3003(3) 0.04658(17)
H13B H -0.4323 1.3824 0.0623
H14B H -0.5598 1.2913 0.0393
C20B C -0.3334(4) 1.3611(3) -0.05390(15)
H15B H -0.3128 1.4404 -0.0395
C21B C -0.4101(4) 1.1756(3) -0.05628(16)
H16B H -0.4515 1.1031 -0.0449
C22B C -0.3483(3) 1.1970(3) -0.11257(15)
H17B H -0.3397 1.1409 -0.1470
Co1B Co 0.18652(4) 0.60598(3) 0.180391(16)
Co1_2 Co -0.18652(4) 1.39402(3) -0.180391(16)
Co1A Co 0.68652(4) -0.10598(3) 0.680391(16)
Co1B_2 Co 1.18652(4) -0.39402(3) 1.180391(16)
Co1C Co 0.31348(4) 1.10598(3) 0.319609(16)
N1B N 0.0059(2) 0.71170(19) 0.18499(10)
N2B N -0.1449(3) 0.8461(2) 0.21619(12)
N3B N -0.4005(3) 1.2803(2) -0.01907(13)
N4B N -0.3001(3) 1.3147(2) -0.11107(11)
N4_2 N 0.3001(3) 0.6853(2) 0.11107(11)
N4B_2 N 0.6999(3) 0.3147(2) 0.88893(11)
O1B O 0.3101(2) 0.73718(16) 0.26292(8)
O2B O 0.2519(2) 0.54849(16) 0.27912(8)
O3B O 0.4260(2) 0.96803(17) 0.37029(9)
O3A O 0.9260(2) 0.53197(17) 0.87029(9)
O3C O 0.0740(2) 0.46803(17) 0.12971(9)
O4B O 0.1967(2) 0.91032(16) 0.36001(9)
loop_
_geom_bond_atom_site_label_1
_geom_bond_atom_site_label_2
_geom_bond_site_symmetry_1
_geom_bond_site_symmetry_2
C1 C2 1_555 1_555
C2 C3 1_555 1_555
C3 H1 1_555 1_555
C4 C3 1_555 1_555
H2 C4 1_555 1_555
C5 C4 1_555 1_555
C6 C1 1_555 1_555
H3 C6 1_555 1_555
C7 C1 1_555 1_555
C8 C2 1_555 1_555
C9 H4 1_555 1_555
C10 C9 1_555 1_555
H5 C10 1_555 1_555
C11 H6 1_555 1_555
C12 H7 1_555 1_555
H8 C12 1_555 1_555
C13 C12 1_555 1_555
C14 C13 1_555 1_555
H9 C14 1_555 1_555
C15 C14 1_555 1_555
H10 C15 1_555 1_555
C16 C15 1_555 1_555
C17 C16 1_555 1_555
H11 C17 1_555 1_555
C18 C13 1_555 1_555
H12 C18 1_555 1_555
C19 C16 1_555 1_555
H13 C19 1_555 1_555
H14 C19 1_555 1_555
C20 H15 1_555 1_555
C21 H16 1_555 1_555
C22 C21 1_555 1_555
H17 C22 1_555 1_555
Co1 N1 1_555 1_555
N1 C9 1_555 1_555
N2 C10 1_555 1_555
N3 C19 1_555 1_555
N4 C20 1_555 1_555
O1 C7 1_555 1_555
O2 C7 1_555 1_555
O3 C8 1_555 1_555
O4 C8 1_555 1_555
C1B C2B 1_555 1_555
C2B C3B 1_555 1_555
C3B H1B 1_555 1_555
C4B C3B 1_555 1_555
H2B C4B 1_555 1_555
C5B C5 1_555 1_555
C6B C1B 1_555 1_555
H3B C6B 1_555 1_555
C7B C1B 1_555 1_555
C8B C2B 1_555 1_555
C9B H4B 1_555 1_555
C10B C9B 1_555 1_555
H5B C10B 1_555 1_555
C11B H6B 1_555 1_555
C12B H7B 1_555 1_555
H8B C12B 1_555 1_555
C13B C12B 1_555 1_555
C14B C13B 1_555 1_555
H9B C14B 1_555 1_555
C15B C14B 1_555 1_555
H10B C15B 1_555 1_555
C16B C15B 1_555 1_555
C17B C16B 1_555 1_555
H11B C17B 1_555 1_555
C18B C13B 1_555 1_555
H12B C18B 1_555 1_555
C19B C16B 1_555 1_555
H13B C19B 1_555 1_555
H14B C19B 1_555 1_555
C20B H15B 1_555 1_555
C21B H16B 1_555 1_555
C22B C21B 1_555 1_555
H17B C22B 1_555 1_555
Co1B N1B 1_555 1_555
Co1_2 N4B 1_555 1_555
Co1A O3 1_555 1_555
Co1B_2 N4 1_555 1_555
Co1C O3B 1_555 1_555
N1B C9B 1_555 1_555
N2B C10B 1_555 1_555
N3B C19B 1_555 1_555
N4B C20B 1_555 1_555
N4_2 Co1B 1_555 1_555
N4B_2 Co1 1_555 1_555
O1B C7B 1_555 1_555
O2B C7B 1_555 1_555
O3B C8B 1_555 1_555
O3A Co1 1_555 1_555
O3C Co1B 1_555 1_555
O4B C8B 1_555 1_555
C5 C6 1_555 1_555
C11 N1 1_555 1_555
C11 N2 1_555 1_555
C12 N2 1_555 1_555
C17 C18 1_555 1_555
C20 N3 1_555 1_555
C21 N3 1_555 1_555
C22 N4 1_555 1_555
Co1 O1 1_555 1_555
Co1 O2 1_555 1_555
C4B C5B 1_555 1_555
C5B C6B 1_555 1_555
C11B N1B 1_555 1_555
C11B N2B 1_555 1_555
C12B N2B 1_555 1_555
C17B C18B 1_555 1_555
C20B N3B 1_555 1_555
C21B N3B 1_555 1_555
C22B N4B 1_555 1_555
Co1B O1B 1_555 1_555
Co1B O2B 1_555 1_555

#END
