
#######################################################################
#
#                 Cambridge Crystallographic Data Centre
#                                CCDC 
#
#######################################################################
#
# If this CIF has been generated from an entry in the Cambridge 
# Structural Database, then it will include bibliographic, chemical, 
# crystal, experimental, refinement or atomic coordinate data resulting 
# from the CCDC's data processing and validation procedures.
#
#######################################################################

data_KAHWOG
_symmetry_cell_setting           monoclinic
_symmetry_space_group_name_H-M   'P 21/c'
_symmetry_Int_Tables_number      14
_space_group_name_Hall           '-P 2ybc'
loop_
_symmetry_equiv_pos_site_id
_symmetry_equiv_pos_as_xyz
1 x,y,z
2 -x,1/2+y,1/2-z
3 -x,-y,-z
4 x,1/2-y,1/2+z
_cell_length_a                   10.371(3)
_cell_length_b                   12.433(4)
_cell_length_c                   10.184(3)
_cell_angle_alpha                90
_cell_angle_beta                 94.060(4)
_cell_angle_gamma                90
_cell_volume                     1309.86
loop_
_atom_site_label
_atom_site_type_symbol
_atom_site_fract_x
_atom_site_fract_y
_atom_site_fract_z
Eu1 Eu 0.62536(2) 0.639882(17) 0.49470(2)
O1 O 0.8314(3) 0.5523(3) 0.5754(3)
O2 O 0.6748(3) 0.5423(2) 0.7095(3)
O3 O 1.2294(3) 0.3387(3) 0.6669(3)
O4 O 1.2735(3) 0.2666(3) 0.8630(3)
O5 O 0.4064(3) 0.5483(2) 0.5614(3)
O6 O 0.4439(3) 0.7145(3) 0.6146(3)
O7 O 0.4809(3) 0.6311(3) 0.2997(3)
H1 H 0.4380 0.5750 0.2836
H2 H 0.4674 0.6868 0.2543
O8 O 0.5838(3) 0.8275(3) 0.4103(3)
H3 H 0.6313 0.8402 0.3481
H4 H 0.5886 0.8704 0.4753
C1 C 0.7899(4) 0.5196(4) 0.6804(4)
C2 C 0.8743(4) 0.4530(4) 0.7736(4)
C3 C 0.8351(5) 0.4269(5) 0.8969(4)
H5 H 0.7553 0.4502 0.9219
C4 C 0.9148(5) 0.3659(5) 0.9830(5)
H6 H 0.8895 0.3505 1.0668
C5 C 1.0314(5) 0.3282(5) 0.9446(5)
H7 H 1.0833 0.2855 1.0017
C6 C 1.0717(4) 0.3535(4) 0.8213(4)
C7 C 0.9922(4) 0.4153(4) 0.7358(4)
H8 H 1.0181 0.4316 0.6525
C8 C 1.2007(4) 0.3162(4) 0.7803(4)
C9 C 0.3731(4) 0.6325(4) 0.6172(4)
C10 C 0.2510(6) 0.6359(5) 0.6859(7)
H9 H 0.2526 0.5803 0.7514
H10 H 0.1787 0.6248 0.6232
H11 H 0.2431 0.7047 0.7273
Eu1B Eu 1.37464(2) 0.360118(17) 0.50530(2)
Eu1A Eu 1.37464(2) 0.139882(17) 1.00530(2)
Eu1B_2 Eu 0.37464(2) 0.360118(17) 0.50530(2)
O3B O 0.7706(3) 0.6613(3) 0.3331(3)
O4A O 0.7265(3) 0.7666(3) 0.6370(3)
O5B O 0.5936(3) 0.4517(2) 0.4386(3)
O9 O 0.5970(9) -0.0081(7) 0.5896(8)
H12 H 0.6062 -0.0284 0.6696
H13 H 0.5519 0.0480 0.5733
loop_
_geom_bond_atom_site_label_1
_geom_bond_atom_site_label_2
_geom_bond_site_symmetry_1
_geom_bond_site_symmetry_2
Eu1 O1 1_555 1_555
O1 C1 1_555 1_555
O2 Eu1 1_555 1_555
O3 C8 1_555 1_555
O4 C8 1_555 1_555
O5 Eu1 1_555 1_555
O6 Eu1 1_555 1_555
O7 Eu1 1_555 1_555
H1 O7 1_555 1_555
H2 O7 1_555 1_555
O8 Eu1 1_555 1_555
H3 O8 1_555 1_555
H4 O8 1_555 1_555
C1 O2 1_555 1_555
C2 C1 1_555 1_555
C3 C2 1_555 1_555
H5 C3 1_555 1_555
C4 C3 1_555 1_555
H6 C4 1_555 1_555
C5 C4 1_555 1_555
H7 C5 1_555 1_555
C6 C5 1_555 1_555
C7 C2 1_555 1_555
H8 C7 1_555 1_555
C8 C6 1_555 1_555
C9 O5 1_555 1_555
C10 C9 1_555 1_555
H9 C10 1_555 1_555
H10 C10 1_555 1_555
H11 C10 1_555 1_555
O9 H12 1_555 1_555
H13 O9 1_555 1_555
Eu1B O3 1_555 1_555
Eu1A O4 1_555 1_555
Eu1B_2 O5 1_555 1_555
O3B Eu1 1_555 1_555
O4A Eu1 1_555 1_555
O5B Eu1 1_555 1_555
O6 C9 1_555 1_555
C6 C7 1_555 1_555
Eu1B_2 O5B 1_555 1_555

#END
