
#######################################################################
#
#                 Cambridge Crystallographic Data Centre
#                                CCDC 
#
#######################################################################
#
# If this CIF has been generated from an entry in the Cambridge 
# Structural Database, then it will include bibliographic, chemical, 
# crystal, experimental, refinement or atomic coordinate data resulting 
# from the CCDC's data processing and validation procedures.
#
#######################################################################

data_KAJFUY
_symmetry_cell_setting           triclinic
_symmetry_space_group_name_H-M   'P -1'
_symmetry_Int_Tables_number      2
_space_group_name_Hall           '-P 1'
loop_
_symmetry_equiv_pos_site_id
_symmetry_equiv_pos_as_xyz
1 x,y,z
2 -x,-y,-z
_cell_length_a                   7.4582(11)
_cell_length_b                   9.4917(14)
_cell_length_c                   9.6997(14)
_cell_angle_alpha                113.399(4)
_cell_angle_beta                 106.638(4)
_cell_angle_gamma                98.603(4)
_cell_volume                     576.096
loop_
_atom_site_label
_atom_site_type_symbol
_atom_site_fract_x
_atom_site_fract_y
_atom_site_fract_z
Cu1 Cu 0.0000 0.0000 0.0000
O1 O -0.0763(3) 0.3074(2) -0.32957(19)
O2 O -0.2765(3) -0.0754(2) 0.0803(2)
O3 O -0.5433(3) -0.1267(2) 0.1196(2)
O4 O -0.5323(3) -0.2703(2) -0.1144(2)
O5 O 0.0677(2) -0.2030(2) -0.06735(19)
N1 N -0.1677(3) -0.0746(2) -0.2342(2)
N2 N -0.2246(3) 0.0597(2) -0.5504(2)
H1 H -0.2647 0.0070 -0.6569
N3 N -0.1489(3) 0.2851(2) -0.5824(2)
H2 H -0.1769 0.2209 -0.6855
N4 N -0.4509(3) -0.1589(2) 0.0262(2)
C1 C -0.3017(3) -0.2195(3) -0.3213(3)
H3 H -0.3215 -0.2839 -0.2698
C2 C -0.4125(3) -0.2782(3) -0.4851(3)
H4 H -0.5059 -0.3821 -0.5451
C3 C -0.3858(3) -0.1842(3) -0.5602(3)
H5 H -0.4598 -0.2233 -0.6725
C4 C -0.2492(3) -0.0316(3) -0.4695(3)
C5 C -0.1402(3) 0.0187(3) -0.3056(3)
H6 H -0.0442 0.1213 -0.2429
C6 C -0.1443(3) 0.2225(3) -0.4792(3)
C7 C -0.1078(4) 0.4591(3) -0.5245(3)
H7 H -0.1456 0.5061 -0.4300
H8 H -0.1880 0.4792 -0.6115
H9 H 0.1930(17) -0.187(4) -0.007(3)
H12 H -0.019(4) -0.291(2) -0.084(4)
Cu1_2 Cu 0.0000 1.0000 -1.0000
O1A O 0.0763(3) 0.6926(2) -0.67043(19)
O2A O 0.2765(3) 0.0754(2) -0.0803(2)
O3A O 0.5433(3) 0.1267(2) -0.1196(2)
O4A O 0.5323(3) 0.2703(2) 0.1144(2)
O5A O -0.0677(2) 0.2030(2) 0.06735(19)
N1A N 0.1677(3) 1.0746(2) -0.7658(2)
N1A_2 N 0.1677(3) 0.0746(2) 0.2342(2)
N2A N 0.2246(3) 0.9403(2) -0.4496(2)
H1A H 0.2647 0.9930 -0.3431
N3A N 0.1489(3) 0.7149(2) -0.4176(2)
H2A H 0.1769 0.7791 -0.3145
N4A N 0.4509(3) 0.1589(2) -0.0262(2)
C1A C 0.3017(3) 1.2195(3) -0.6787(3)
H3A H 0.3215 1.2839 -0.7302
C2A C 0.4125(3) 1.2782(3) -0.5149(3)
H4A H 0.5059 1.3821 -0.4549
C3A C 0.3858(3) 1.1842(3) -0.4398(3)
H5A H 0.4598 1.2233 -0.3275
C4A C 0.2492(3) 1.0316(3) -0.5305(3)
C5A C 0.1402(3) 0.9813(3) -0.6944(3)
H6A H 0.0442 0.8787 -0.7571
C6A C 0.1443(3) 0.7775(3) -0.5208(3)
C7A C 0.1078(4) 0.5409(3) -0.4755(3)
H7A H 0.1456 0.4939 -0.5700
H8A H 0.1880 0.5208 -0.3885
H9A H -0.1930(17) 0.187(4) 0.007(3)
H12A H 0.019(4) 0.291(2) 0.084(4)
O6 O -0.2024(3) -0.4584(2) -0.1444(2)
H10 H -0.153(5) -0.538(3) -0.190(4)
H13 H -0.248(5) -0.447(5) -0.065(3)
O7 O 0.3022(3) 0.4304(3) -0.1104(2)
H11 H 0.183(3) 0.393(5) -0.191(4)
H14 H 0.374(6) 0.525(3) -0.094(5)
loop_
_geom_bond_atom_site_label_1
_geom_bond_atom_site_label_2
_geom_bond_site_symmetry_1
_geom_bond_site_symmetry_2
Cu1 O2 1_555 1_555
O1 C6 1_555 1_555
O2 N4 1_555 1_555
O3 N4 1_555 1_555
O4 N4 1_555 1_555
O5 Cu1 1_555 1_555
O6 H10 1_555 1_555
O7 H11 1_555 1_555
N1 Cu1 1_555 1_555
N2 H1 1_555 1_555
N3 H2 1_555 1_555
C1 N1 1_555 1_555
H3 C1 1_555 1_555
C2 C1 1_555 1_555
H4 C2 1_555 1_555
C3 C2 1_555 1_555
H5 C3 1_555 1_555
C4 N2 1_555 1_555
C5 N1 1_555 1_555
H6 C5 1_555 1_555
C6 N2 1_555 1_555
C7 N3 1_555 1_555
H7 C7 1_555 1_555
H8 C7 1_555 1_555
H9 O5 1_555 1_555
H12 O5 1_555 1_555
H13 O6 1_555 1_555
H14 O7 1_555 1_555
Cu1_2 N1A 1_555 1_555
O1A C6A 1_555 1_555
O2A Cu1 1_555 1_555
O3A N4A 1_555 1_555
O4A N4A 1_555 1_555
O5A Cu1 1_555 1_555
N1A C1A 1_555 1_555
N1A_2 Cu1 1_555 1_555
N2A H1A 1_555 1_555
N3A H2A 1_555 1_555
N4A O2A 1_555 1_555
C1A H3A 1_555 1_555
C2A C1A 1_555 1_555
H4A C2A 1_555 1_555
C3A C2A 1_555 1_555
H5A C3A 1_555 1_555
C4A N2A 1_555 1_555
C5A N1A 1_555 1_555
H6A C5A 1_555 1_555
C6A N2A 1_555 1_555
C7A C7 1_555 1_555
H7A C7A 1_555 1_555
H8A C7A 1_555 1_555
H9A O5A 1_555 1_555
H12A O5A 1_555 1_555
N3 C6 1_555 1_555
C3 C4 1_555 1_555
C4 C5 1_555 1_555
N3A C6A 1_555 1_555
N3A C7A 1_555 1_555
C3A C4A 1_555 1_555
C4A C5A 1_555 1_555

#END
