
#######################################################################
#
#                 Cambridge Crystallographic Data Centre
#                                CCDC 
#
#######################################################################
#
# If this CIF has been generated from an entry in the Cambridge 
# Structural Database, then it will include bibliographic, chemical, 
# crystal, experimental, refinement or atomic coordinate data resulting 
# from the CCDC's data processing and validation procedures.
#
#######################################################################

data_KAJGIN
_symmetry_cell_setting           monoclinic
_symmetry_space_group_name_H-M   'P 21/c'
_symmetry_Int_Tables_number      14
_space_group_name_Hall           '-P 2ybc'
loop_
_symmetry_equiv_pos_site_id
_symmetry_equiv_pos_as_xyz
1 x,y,z
2 -x,1/2+y,1/2-z
3 -x,-y,-z
4 x,1/2-y,1/2+z
_cell_length_a                   9.0260(8)
_cell_length_b                   16.3903(17)
_cell_length_c                   14.0277(14)
_cell_angle_alpha                90
_cell_angle_beta                 97.969(3)
_cell_angle_gamma                90
_cell_volume                     2055.2
loop_
_atom_site_label
_atom_site_type_symbol
_atom_site_fract_x
_atom_site_fract_y
_atom_site_fract_z
Ag1 Ag 0.52068(3) 0.241131(19) 0.70719(2)
O1 O -0.2580(3) 0.17766(17) 0.5113(2)
O2 O -0.6718(2) 0.25124(17) 0.32877(16)
N1 N 0.3210(3) 0.18194(19) 0.6301(2)
N2 N -0.0478(3) 0.2584(2) 0.5366(2)
H1 H -0.0167 0.3090 0.5324
N3 N -0.2777(3) 0.3159(2) 0.4988(2)
H2 H -0.2284 0.3618 0.4946
N4 N -0.6678(3) 0.37720(19) 0.3965(2)
H3 H -0.7198 0.4188 0.4135
N5 N -0.8926(3) 0.31409(19) 0.3464(2)
H4 H -0.9321 0.3590 0.3665
N6 N -1.2497(3) 0.22132(18) 0.2508(2)
C1 C 0.2978(4) 0.1013(2) 0.6323(3)
H5 H 0.3782 0.0668 0.6578
C2 C 0.1612(4) 0.0668(3) 0.5989(3)
H6 H 0.1492 0.0092 0.5998
C3 C 0.0414(4) 0.1163(3) 0.5641(3)
H7 H -0.0532 0.0932 0.5407
C4 C 0.0620(4) 0.1997(2) 0.5641(2)
C5 C 0.2054(4) 0.2306(2) 0.5958(3)
H8 H 0.2216 0.2878 0.5930
C6 C -0.2002(4) 0.2453(3) 0.5152(2)
C7 C -0.4408(4) 0.3177(2) 0.4879(3)
H9 H -0.4734 0.3321 0.5503
H10 H -0.4805 0.2628 0.4693
C8 C -0.5045(4) 0.3795(2) 0.4116(3)
H11 H -0.4704 0.4350 0.4322
H12 H -0.4666 0.3673 0.3502
C9 C -0.7384(4) 0.3099(2) 0.3559(3)
C10 C -1.1433(4) 0.2739(2) 0.2868(2)
H13 H -1.1717 0.3284 0.2988
C11 C -0.9918(3) 0.2528(2) 0.3076(2)
C12 C -0.9530(4) 0.1733(2) 0.2892(3)
H14 H -0.8519 0.1560 0.3031
C13 C -1.0622(4) 0.1193(2) 0.2508(3)
H15 H -1.0366 0.0648 0.2367
C14 C -1.2088(4) 0.1449(2) 0.2329(3)
H16 H -1.2834 0.1071 0.2070
Ag1C Ag -1.47932(3) 0.258869(19) 0.20719(2)
N6C N 0.7503(3) 0.27868(18) 0.7508(2)
Si1 Si 0.0000 0.5000 0.5000
F1 F 0.0747(2) 0.41354(14) 0.54888(17)
F2 F -0.0611(2) 0.44916(14) 0.39636(16)
F3 F -0.1638(2) 0.47989(14) 0.54139(17)
F1B F -0.0747(2) 0.58646(14) 0.45112(17)
F2B F 0.0611(2) 0.55084(14) 0.60364(16)
F3B F 0.1638(2) 0.52011(14) 0.45861(17)
O3 O 0.4422(3) 0.39522(17) 0.6840(2)
N7 N 0.3721(4) 0.4598(2) 0.8154(2)
C15 C 0.3627(4) 0.4433(2) 0.7209(3)
H17 H 0.2879 0.4713 0.6789
C16 C 0.2695(5) 0.5163(3) 0.8514(3)
H18 H 0.2936 0.5206 0.9215
H19 H 0.1668 0.4963 0.8348
H20 H 0.2788 0.5700 0.8222
C17 C 0.4784(4) 0.4168(2) 0.8865(3)
H21 H 0.4691 0.4371 0.9511
H22 H 0.5805 0.4263 0.8726
H23 H 0.4568 0.3582 0.8833
H24? H 0.1992 0.5373 0.7975
H25? H 0.3260 0.5617 0.8842
H26? H 0.2140 0.4880 0.8968
H27? H 0.5352 0.3773 0.8536
H28? H 0.4238 0.3881 0.9321
H29? H 0.5474 0.4563 0.9213
loop_
_geom_bond_atom_site_label_1
_geom_bond_atom_site_label_2
_geom_bond_site_symmetry_1
_geom_bond_site_symmetry_2
Ag1 N1 1_555 1_555
Si1 F1 1_555 1_555
F2 Si1 1_555 1_555
F3 Si1 1_555 1_555
O1 C6 1_555 1_555
O2 C9 1_555 1_555
O3 C15 1_555 1_555
N1 C1 1_555 1_555
N2 H1 1_555 1_555
N3 H2 1_555 1_555
N4 H3 1_555 1_555
N5 H4 1_555 1_555
N6 C10 1_555 1_555
N7 C15 1_555 1_555
C1 H5 1_555 1_555
C2 C1 1_555 1_555
H6 C2 1_555 1_555
C3 C2 1_555 1_555
H7 C3 1_555 1_555
C4 N2 1_555 1_555
C5 N1 1_555 1_555
H8 C5 1_555 1_555
C6 N2 1_555 1_555
C7 N3 1_555 1_555
H9 C7 1_555 1_555
H10 C7 1_555 1_555
C8 N4 1_555 1_555
H11 C8 1_555 1_555
H12 C8 1_555 1_555
C9 N4 1_555 1_555
C10 H13 1_555 1_555
C11 N5 1_555 1_555
C12 C11 1_555 1_555
H14 C12 1_555 1_555
C13 C12 1_555 1_555
H15 C13 1_555 1_555
C14 N6 1_555 1_555
H16 C14 1_555 1_555
C15 H17 1_555 1_555
C16 N7 1_555 1_555
H18 C16 1_555 1_555
H19 C16 1_555 1_555
H20 C16 1_555 1_555
C17 N7 1_555 1_555
H21 C17 1_555 1_555
H22 C17 1_555 1_555
H23 C17 1_555 1_555
Ag1C N6 1_555 1_555
F1B Si1 1_555 1_555
F2B Si1 1_555 1_555
F3B Si1 1_555 1_555
N6C Ag1 1_555 1_555
N3 C6 1_555 1_555
N5 C9 1_555 1_555
C3 C4 1_555 1_555
C4 C5 1_555 1_555
C7 C8 1_555 1_555
C10 C11 1_555 1_555
C13 C14 1_555 1_555

#END
