
#######################################################################
#
#                 Cambridge Crystallographic Data Centre
#                                CCDC 
#
#######################################################################
#
# If this CIF has been generated from an entry in the Cambridge 
# Structural Database, then it will include bibliographic, chemical, 
# crystal, experimental, refinement or atomic coordinate data resulting 
# from the CCDC's data processing and validation procedures.
#
#######################################################################

data_KAJZAY
_symmetry_cell_setting           monoclinic
_symmetry_space_group_name_H-M   'P 21/n'
_symmetry_Int_Tables_number      14
_space_group_name_Hall           '-P 2yn'
loop_
_symmetry_equiv_pos_site_id
_symmetry_equiv_pos_as_xyz
1 x,y,z
2 1/2-x,1/2+y,1/2-z
3 -x,-y,-z
4 1/2+x,1/2-y,1/2+z
_cell_length_a                   12.5828(6)
_cell_length_b                   19.5002(9)
_cell_length_c                   34.5182(15)
_cell_angle_alpha                90
_cell_angle_beta                 93.9470(10)
_cell_angle_gamma                90
_cell_volume                     8449.54
loop_
_atom_site_label
_atom_site_type_symbol
_atom_site_fract_x
_atom_site_fract_y
_atom_site_fract_z
Re1 Re 0.42864(3) 0.59544(2) 0.270244(12)
Re2 Re 0.49445(4) 0.62392(2) 0.214826(12)
Re3 Re 0.46188(4) 0.51735(3) 0.472037(13)
Re4 Re 0.52160(4) 0.53688(3) 0.023489(12)
Mo1 Mo 0.30030(8) 0.56391(7) 0.37146(3)
Mo2 Mo 0.60839(11) 0.66307(8) 0.11130(3)
O1 O 0.3722(5) 0.5726(4) 0.32849(19)
O2 O 0.3885(6) 0.5499(4) 0.41324(19)
O3 O 0.2115(7) 0.4958(6) 0.3648(2)
O4 O 0.2265(8) 0.6366(5) 0.3778(2)
O5 O 0.5542(5) 0.6447(4) 0.15689(18)
O6 O 0.5577(6) 0.6066(4) 0.07412(19)
O7 O 0.7434(9) 0.6533(11) 0.1169(3)
O8 O 0.5794(17) 0.7463(6) 0.0969(3)
N1 N 0.5792(7) 0.5636(5) 0.2918(3)
N2 N 0.6463(7) 0.6032(5) 0.2369(2)
N3 N 0.4624(7) 0.6946(5) 0.2908(2)
N4 N 0.5200(7) 0.7235(5) 0.2327(3)
N5 N 0.2770(7) 0.6243(5) 0.2496(2)
N6 N 0.3440(7) 0.6519(4) 0.1913(2)
N7 N 0.3991(7) 0.4956(5) 0.2519(2)
N8 N 0.4798(7) 0.5219(5) 0.1968(2)
N9 N 0.6083(7) 0.5371(6) 0.4514(3)
N10 N 0.4592(7) 0.6176(5) 0.4903(3)
N11 N 0.6888(7) 0.4998(6) 0.5088(3)
N12 N 0.5383(8) 0.5806(6) 0.5487(3)
N13 N 0.6116(7) 0.4622(6) 0.0533(2)
N14 N 0.3830(7) 0.5113(5) 0.0496(2)
N15 N 0.5588(8) 0.3852(5) 0.0062(3)
N16 N 0.3417(7) 0.4323(5) 0.0011(2)
C1 C 0.6636(8) 0.5730(6) 0.2711(3)
C2 C 0.7727(9) 0.5566(7) 0.2875(3)
C3 C 0.8256(12) 0.6018(8) 0.3113(4)
H1 H 0.7942 0.6434 0.3170
C4 C 0.9272(15) 0.5861(10) 0.3271(5)
H2 H 0.9621 0.6169 0.3441
C5 C 0.9759(12) 0.5280(13) 0.3185(5)
H3 H 1.0455 0.5195 0.3281
C6 C 0.9219(14) 0.4809(10) 0.2952(6)
H4 H 0.9525 0.4388 0.2898
C7 C 0.8206(12) 0.4976(9) 0.2800(4)
H5 H 0.7842 0.4661 0.2637
C8 C 0.5893(12) 0.5138(9) 0.3239(4)
H6 H 0.6633 0.5046 0.3306
H7 H 0.5538 0.4720 0.3161
H8 H 0.5573 0.5324 0.3461
C9 C 0.7434(9) 0.6225(8) 0.2159(4)
H9 H 0.8064 0.6081 0.2310
H10 H 0.7451 0.6713 0.2125
H11 H 0.7404 0.6004 0.1911
C10 C 0.5031(8) 0.7417(6) 0.2689(3)
C11 C 0.5267(13) 0.8116(8) 0.2835(3)
C12 C 0.6287(15) 0.8256(9) 0.2998(4)
H12 H 0.6804 0.7914 0.3011
C13 C 0.653(2) 0.8905(13) 0.3140(6)
H13 H 0.7209 0.9008 0.3246
C14 C 0.576(3) 0.9383(14) 0.3121(7)
H14 H 0.5914 0.9826 0.3208
C15 C 0.475(2) 0.9221(12) 0.2974(7)
H15 H 0.4213 0.9549 0.2982
C16 C 0.4502(16) 0.8603(10) 0.2817(5)
H16 H 0.3827 0.8515 0.2701
C17 C 0.4429(12) 0.7131(7) 0.3320(3)
H17 H 0.4624 0.7601 0.3368
H18 H 0.4851 0.6840 0.3495
H19 H 0.3689 0.7069 0.3362
C18 C 0.5601(12) 0.7774(7) 0.2072(3)
H20 H 0.5663 0.8199 0.2212
H21 H 0.5112 0.7830 0.1848
H22 H 0.6286 0.7643 0.1991
C19 C 0.2609(8) 0.6468(6) 0.2137(3)
C20 C 0.1531(10) 0.6726(8) 0.1977(3)
C21 C 0.0829(12) 0.6259(9) 0.1811(4)
H23 H 0.1020 0.5799 0.1803
C22 C -0.0172(14) 0.6467(12) 0.1654(5)
H24 H -0.0628 0.6156 0.1523
C23 C -0.0459(14) 0.7114(13) 0.1695(5)
H25 H -0.1149 0.7247 0.1615
C24 C 0.0231(17) 0.7583(12) 0.1850(5)
H26 H 0.0047 0.8045 0.1853
C25 C 0.1211(12) 0.7367(9) 0.2004(4)
H27 H 0.1664 0.7684 0.2132
C26 C 0.1840(9) 0.6166(7) 0.2729(3)
H28 H 0.1215 0.6333 0.2583
H29 H 0.1952 0.6425 0.2965
H30 H 0.1745 0.5691 0.2790
C27 C 0.3259(9) 0.6840(7) 0.1533(3)
H31 H 0.2512 0.6926 0.1481
H32 H 0.3504 0.6540 0.1338
H33 H 0.3643 0.7265 0.1530
C28 C 0.4357(10) 0.4760(6) 0.2181(3)
C29 C 0.4295(14) 0.4014(7) 0.2075(4)
C30 C 0.5036(13) 0.3550(8) 0.2214(4)
H34 H 0.5556 0.3696 0.2401
C31 C 0.5058(16) 0.2886(10) 0.2096(5)
H35 H 0.5580 0.2584 0.2195
C32 C 0.428(2) 0.2684(11) 0.1825(7)
H36 H 0.4284 0.2238 0.1730
C33 C 0.3515(19) 0.3114(12) 0.1694(6)
H37 H 0.2968 0.2954 0.1523
C34 C 0.3521(14) 0.3788(9) 0.1808(5)
H38 H 0.3002 0.4089 0.1705
C35 C 0.3402(11) 0.4479(7) 0.2751(3)
H39 H 0.3340 0.4044 0.2621
H40 H 0.2703 0.4660 0.2784
H41 H 0.3775 0.4420 0.3001
C36 C 0.5400(11) 0.4950(7) 0.1649(3)
H42 H 0.5231 0.4475 0.1608
H43 H 0.6150 0.4998 0.1716
H44 H 0.5212 0.5204 0.1416
C37 C 0.6209(12) 0.5759(10) 0.4154(4)
H45 H 0.6951 0.5794 0.4110
H46 H 0.5914 0.6210 0.4178
H47 H 0.5842 0.5525 0.3940
C38 C 0.4160(11) 0.6741(7) 0.4653(4)
H48 H 0.4222 0.7166 0.4793
H49 H 0.3424 0.6654 0.4578
H50 H 0.4555 0.6771 0.4425
C39 C 0.6972(10) 0.5248(7) 0.4735(4)
C40 C 0.8023(12) 0.5429(10) 0.4587(4)
C41 C 0.8492(18) 0.4982(14) 0.4362(5)
H51 H 0.8140 0.4575 0.4296
C42 C 0.955(2) 0.5107(17) 0.4211(7)
H52 H 0.9936 0.4780 0.4083
C43 C 0.990(2) 0.5778(18) 0.4286(7)
H53 H 1.0490 0.5924 0.4160
C44 C 0.9468(16) 0.6235(14) 0.4522(7)
H54 H 0.9802 0.6649 0.4585
C45 C 0.8495(15) 0.6057(12) 0.4667(6)
H55 H 0.8157 0.6370 0.4820
C46 C 0.7880(10) 0.4816(9) 0.5321(4)
H56 H 0.8484 0.4935 0.5179
H57 H 0.7911 0.5062 0.5562
H58 H 0.7887 0.4332 0.5372
C47 C 0.5015(9) 0.6338(9) 0.5265(3)
C48 C 0.5166(12) 0.7076(8) 0.5380(4)
C49 C 0.4351(12) 0.7428(10) 0.5549(4)
H59 H 0.3693 0.7222 0.5577
C50 C 0.4549(16) 0.8087(11) 0.5675(4)
H60 H 0.4010 0.8338 0.5781
C51 C 0.551(2) 0.8375(10) 0.5647(5)
H61 H 0.5631 0.8824 0.5732
C52 C 0.6304(18) 0.8023(13) 0.5500(6)
H62 H 0.6986 0.8207 0.5501
C53 C 0.6098(15) 0.7409(12) 0.5354(5)
H63 H 0.6629 0.7192 0.5226
C54 C 0.5801(14) 0.5996(8) 0.5892(4)
H64 H 0.5731 0.6481 0.5928
H65 H 0.5401 0.5758 0.6077
H66 H 0.6539 0.5869 0.5929
C55 C 0.6132(9) 0.3996(8) 0.0402(3)
C56 C 0.6673(11) 0.3428(7) 0.0634(3)
C57 C 0.6182(12) 0.3143(9) 0.0928(4)
H67 H 0.5519 0.3309 0.0988
C58 C 0.6635(18) 0.2613(11) 0.1144(5)
H68 H 0.6249 0.2392 0.1327
C59 C 0.7662(18) 0.2406(11) 0.1088(6)
H69 H 0.7997 0.2062 0.1238
C60 C 0.8174(14) 0.2742(11) 0.0792(7)
H70 H 0.8873 0.2625 0.0750
C61 C 0.7668(14) 0.3243(9) 0.0563(4)
H71 H 0.8011 0.3447 0.0363
C62 C 0.6886(11) 0.4775(8) 0.0854(4)
H72 H 0.7206 0.4356 0.0951
H73 H 0.6533 0.4996 0.1058
H74 H 0.7428 0.5072 0.0766
C63 C 0.3140(9) 0.4635(7) 0.0338(3)
C64 C 0.2157(10) 0.4442(8) 0.0519(3)
C65 C 0.1240(13) 0.4800(10) 0.0430(5)
H75 H 0.1242 0.5158 0.0252
C66 C 0.0321(14) 0.4638(12) 0.0597(7)
H76 H -0.0296 0.4887 0.0532
C67 C 0.0297(17) 0.4119(15) 0.0858(6)
H77 H -0.0316 0.4020 0.0983
C68 C 0.1203(19) 0.3748(14) 0.0929(6)
H78 H 0.1199 0.3366 0.1090
C69 C 0.2113(13) 0.3930(10) 0.0767(4)
H79 H 0.2732 0.3685 0.0834
C70 C 0.3460(11) 0.5470(8) 0.0841(4)
H80 H 0.2804 0.5269 0.0911
H81 H 0.3349 0.5947 0.0782
H82 H 0.3989 0.5426 0.1054
C71 C 0.5526(13) 0.3134(8) -0.0075(4)
H83 H 0.5953 0.2848 0.0100
H84 H 0.4799 0.2982 -0.0085
H85 H 0.5786 0.3106 -0.0330
C72 C 0.2686(12) 0.3773(8) -0.0150(4)
H86 H 0.2102 0.3722 0.0012
H87 H 0.2419 0.3897 -0.0408
H88 H 0.3069 0.3348 -0.0159
Re3B Re 0.53812(4) 0.48265(3) 0.527963(13)
Re4B Re 0.47840(4) 0.46312(3) -0.023489(12)
N11B N 0.3112(7) 0.5002(6) 0.4912(3)
N12B N 0.4617(8) 0.4194(6) 0.4513(3)
N15B N 0.4412(8) 0.6148(5) -0.0062(3)
N16B N 0.6583(7) 0.5677(5) -0.0011(2)
O9 O 0.1571(12) 0.7363(8) 0.4317(5)
O10 O 0.651(2) 0.8161(12) 0.0246(7)
O11 O 0.129(3) 0.3603(14) 0.3665(19)
O12 O 0.235(5) 0.6450(18) 0.6340(17)
loop_
_geom_bond_atom_site_label_1
_geom_bond_atom_site_label_2
_geom_bond_site_symmetry_1
_geom_bond_site_symmetry_2
Re1 Re2 1_555 1_555
Re2 O5 1_555 1_555
Re3 O2 1_555 1_555
Re4 O6 1_555 1_555
Mo1 O1 1_555 1_555
Mo2 O5 1_555 1_555
O1 Re1 1_555 1_555
O2 Mo1 1_555 1_555
O3 Mo1 1_555 1_555
O4 Mo1 1_555 1_555
O6 Mo2 1_555 1_555
O7 Mo2 1_555 1_555
O8 Mo2 1_555 1_555
N1 Re1 1_555 1_555
N2 Re2 1_555 1_555
N3 Re1 1_555 1_555
N4 Re2 1_555 1_555
N5 Re1 1_555 1_555
N6 Re2 1_555 1_555
N7 Re1 1_555 1_555
N8 Re2 1_555 1_555
N9 Re3 1_555 1_555
N10 Re3 1_555 1_555
N11 C39 1_555 1_555
N12 C47 1_555 1_555
N13 Re4 1_555 1_555
N14 Re4 1_555 1_555
N15 C55 1_555 1_555
N16 C63 1_555 1_555
C1 N1 1_555 1_555
C2 C1 1_555 1_555
C3 C2 1_555 1_555
H1 C3 1_555 1_555
C4 C3 1_555 1_555
H2 C4 1_555 1_555
C5 C4 1_555 1_555
H3 C5 1_555 1_555
C6 C5 1_555 1_555
H4 C6 1_555 1_555
C7 C2 1_555 1_555
H5 C7 1_555 1_555
C8 N1 1_555 1_555
H6 C8 1_555 1_555
H7 C8 1_555 1_555
H8 C8 1_555 1_555
C9 N2 1_555 1_555
H9 C9 1_555 1_555
H10 C9 1_555 1_555
H11 C9 1_555 1_555
C10 N3 1_555 1_555
C11 C10 1_555 1_555
C12 C11 1_555 1_555
H12 C12 1_555 1_555
C13 C12 1_555 1_555
H13 C13 1_555 1_555
C14 C13 1_555 1_555
H14 C14 1_555 1_555
C15 C14 1_555 1_555
H15 C15 1_555 1_555
C16 C11 1_555 1_555
H16 C16 1_555 1_555
C17 N3 1_555 1_555
H17 C17 1_555 1_555
H18 C17 1_555 1_555
H19 C17 1_555 1_555
C18 N4 1_555 1_555
H20 C18 1_555 1_555
H21 C18 1_555 1_555
H22 C18 1_555 1_555
C19 N5 1_555 1_555
C20 C19 1_555 1_555
C21 C20 1_555 1_555
H23 C21 1_555 1_555
C22 C21 1_555 1_555
H24 C22 1_555 1_555
C23 C22 1_555 1_555
H25 C23 1_555 1_555
C24 C23 1_555 1_555
H26 C24 1_555 1_555
C25 C20 1_555 1_555
H27 C25 1_555 1_555
C26 N5 1_555 1_555
H28 C26 1_555 1_555
H29 C26 1_555 1_555
H30 C26 1_555 1_555
C27 N6 1_555 1_555
H31 C27 1_555 1_555
H32 C27 1_555 1_555
H33 C27 1_555 1_555
C28 N7 1_555 1_555
C29 C28 1_555 1_555
C30 C29 1_555 1_555
H34 C30 1_555 1_555
C31 C30 1_555 1_555
H35 C31 1_555 1_555
C32 C31 1_555 1_555
H36 C32 1_555 1_555
C33 C32 1_555 1_555
H37 C33 1_555 1_555
C34 C29 1_555 1_555
H38 C34 1_555 1_555
C35 N7 1_555 1_555
H39 C35 1_555 1_555
H40 C35 1_555 1_555
H41 C35 1_555 1_555
C36 N8 1_555 1_555
H42 C36 1_555 1_555
H43 C36 1_555 1_555
H44 C36 1_555 1_555
C37 N9 1_555 1_555
H45 C37 1_555 1_555
H46 C37 1_555 1_555
H47 C37 1_555 1_555
C38 N10 1_555 1_555
H48 C38 1_555 1_555
H49 C38 1_555 1_555
H50 C38 1_555 1_555
C39 N9 1_555 1_555
C40 C39 1_555 1_555
C41 C40 1_555 1_555
H51 C41 1_555 1_555
C42 C41 1_555 1_555
H52 C42 1_555 1_555
C43 C42 1_555 1_555
H53 C43 1_555 1_555
C44 C43 1_555 1_555
H54 C44 1_555 1_555
C45 C40 1_555 1_555
H55 C45 1_555 1_555
C46 N11 1_555 1_555
H56 C46 1_555 1_555
H57 C46 1_555 1_555
H58 C46 1_555 1_555
C47 N10 1_555 1_555
C48 C47 1_555 1_555
C49 C48 1_555 1_555
H59 C49 1_555 1_555
C50 C49 1_555 1_555
H60 C50 1_555 1_555
C51 C50 1_555 1_555
H61 C51 1_555 1_555
C52 C51 1_555 1_555
H62 C52 1_555 1_555
C53 C48 1_555 1_555
H63 C53 1_555 1_555
C54 N12 1_555 1_555
H64 C54 1_555 1_555
H65 C54 1_555 1_555
H66 C54 1_555 1_555
C55 N13 1_555 1_555
C56 C55 1_555 1_555
C57 C56 1_555 1_555
H67 C57 1_555 1_555
C58 C57 1_555 1_555
H68 C58 1_555 1_555
C59 C58 1_555 1_555
H69 C59 1_555 1_555
C60 C59 1_555 1_555
H70 C60 1_555 1_555
C61 C56 1_555 1_555
H71 C61 1_555 1_555
C62 N13 1_555 1_555
H72 C62 1_555 1_555
H73 C62 1_555 1_555
H74 C62 1_555 1_555
C63 N14 1_555 1_555
C64 C63 1_555 1_555
C65 C64 1_555 1_555
H75 C65 1_555 1_555
C66 C65 1_555 1_555
H76 C66 1_555 1_555
C67 C66 1_555 1_555
H77 C67 1_555 1_555
C68 C67 1_555 1_555
H78 C68 1_555 1_555
C69 C64 1_555 1_555
H79 C69 1_555 1_555
C70 N14 1_555 1_555
H80 C70 1_555 1_555
H81 C70 1_555 1_555
H82 C70 1_555 1_555
C71 N15 1_555 1_555
H83 C71 1_555 1_555
H84 C71 1_555 1_555
H85 C71 1_555 1_555
C72 N16 1_555 1_555
H86 C72 1_555 1_555
H87 C72 1_555 1_555
H88 C72 1_555 1_555
Re3B Re3 1_555 1_555
Re4B Re4 1_555 1_555
N11B Re3 1_555 1_555
N12B Re3 1_555 1_555
N15B Re4 1_555 1_555
N16B Re4 1_555 1_555
N2 C1 1_555 1_555
N4 C10 1_555 1_555
N6 C19 1_555 1_555
N8 C28 1_555 1_555
N11 Re3B 1_555 1_555
N12 Re3B 1_555 1_555
N15 Re4B 1_555 1_555
N16 Re4B 1_555 1_555
C6 C7 1_555 1_555
C15 C16 1_555 1_555
C24 C25 1_555 1_555
C33 C34 1_555 1_555
C44 C45 1_555 1_555
C52 C53 1_555 1_555
C60 C61 1_555 1_555
C68 C69 1_555 1_555

#END
