
#######################################################################
#
#                 Cambridge Crystallographic Data Centre
#                                CCDC 
#
#######################################################################
#
# If this CIF has been generated from an entry in the Cambridge 
# Structural Database, then it will include bibliographic, chemical, 
# crystal, experimental, refinement or atomic coordinate data resulting 
# from the CCDC's data processing and validation procedures.
#
#######################################################################

data_KAKBUT
_symmetry_cell_setting           monoclinic
_symmetry_space_group_name_H-M   'P 21/c'
_symmetry_Int_Tables_number      14
_space_group_name_Hall           '-P 2ybc'
loop_
_symmetry_equiv_pos_site_id
_symmetry_equiv_pos_as_xyz
1 x,y,z
2 -x,1/2+y,1/2-z
3 -x,-y,-z
4 x,1/2-y,1/2+z
_cell_length_a                   29.43(2)
_cell_length_b                   4.758(5)
_cell_length_c                   22.80(1)
_cell_angle_alpha                90
_cell_angle_beta                 111.99(6)
_cell_angle_gamma                90
_cell_volume                     2960.37
loop_
_atom_site_label
_atom_site_type_symbol
_atom_site_fract_x
_atom_site_fract_y
_atom_site_fract_z
Ag1 Ag 0.51269(7) 0.1817(5) 0.22591(9)
F1 F 0.7648(7) -0.541(6) 0.353(1)
F2 F 0.7732(7) -0.229(6) 0.293(1)
F3 F 0.7283(8) -0.605(5) 0.255(1)
F4 F 0.3622(6) 0.802(5) -0.1033(8)
F5 F 0.4147(7) 0.537(4) -0.1173(8)
F6 F 0.4364(7) 0.922(4) -0.0716(8)
N1 N 0.5807(7) 0.285(5) 0.2984(8)
N2 N 0.5895(6) 0.418(4) 0.3484(9)
N3 N 0.4456(7) 0.096(4) 0.1517(8)
C1 C 0.6219(9) 0.092(6) 0.304(1)
C2 C 0.6190(9) -0.038(6) 0.248(1)
C3 C 0.658(1) -0.223(7) 0.249(1)
C4 C 0.6977(8) -0.251(6) 0.302(1)
C5 C 0.701(1) -0.117(7) 0.358(1)
C6 C 0.6630(9) 0.063(6) 0.357(1)
C7 C 0.738(1) -0.408(8) 0.297(2)
C8 C 0.4327(9) 0.233(6) 0.095(1)
C9 C 0.3880(9) 0.229(6) 0.043(1)
C10 C 0.382(1) 0.375(6) -0.011(1)
C11 C 0.417(1) 0.569(7) -0.015(1)
C12 C 0.458(1) 0.588(6) 0.036(1)
C13 C 0.467(1) 0.444(7) 0.092(1)
C14 C 0.4074(9) 0.714(6) -0.075(1)
Ag1A Ag 0.48731(7) 0.6817(5) 0.27409(9)
Ag1A_2 Ag 0.48731(7) -0.3183(5) 0.27409(9)
N3A N 0.5544(7) 0.596(4) 0.3483(8)
N2A N 0.4105(6) -0.082(4) 0.1516(9)
Ag1_2 Ag 0.51269(7) 1.1817(5) 0.22591(9)
N1A N 0.4193(7) 0.785(5) 0.2016(8)
C8A C 0.5673(9) 0.733(6) 0.405(1)
N1A_2 N 0.4193(7) -0.215(5) 0.2016(8)
N2A_2 N 0.4105(6) 0.918(4) 0.1516(9)
C1A C 0.3781(9) 0.592(6) 0.196(1)
C9A C 0.6120(9) 0.729(6) 0.457(1)
C13A C 0.533(1) 0.944(7) 0.408(1)
C2A C 0.3810(9) 0.462(6) 0.252(1)
C6A C 0.3370(9) 0.563(6) 0.143(1)
C10A C 0.618(1) 0.875(6) 0.511(1)
C12A C 0.542(1) 1.088(6) 0.464(1)
C3A C 0.342(1) 0.277(7) 0.251(1)
C5A C 0.299(1) 0.383(7) 0.142(1)
C11A C 0.583(1) 1.069(7) 0.515(1)
C4A C 0.3023(8) 0.249(6) 0.198(1)
C14A C 0.5926(9) 1.214(6) 0.575(1)
C7A C 0.262(1) 0.092(8) 0.203(2)
F4A F 0.6378(6) 1.302(5) 0.6033(8)
F5A F 0.5853(7) 1.037(4) 0.6173(8)
F6A F 0.5636(7) 1.422(4) 0.5716(8)
F1A F 0.2352(7) -0.041(6) 0.147(1)
F2A F 0.2268(7) 0.271(6) 0.207(1)
F3A F 0.2717(8) -0.105(5) 0.245(1)
Ag2 Ag 0.012317 0.2333(5) 0.78672(9)
F7 F 0.2655(9) -0.499(6) 0.909(1)
F8 F 0.2308(8) -0.523(6) 0.972(1)
F9 F 0.2744(9) -0.196(6) 0.976(1)
F10 F -0.1415(7) 0.838(5) 0.9687(8)
F11 F -0.0892(8) 0.570(4) 1.0329(8)
F12 F -0.0678(7) 0.957(4) 1.0088(9)
N4 N 0.0798(7) 0.273(5) 0.7796(8)
N5 N 0.0909(8) 0.471(5) 0.7400(9)
N6 N -0.0540(7) 0.128(5) 0.7965(8)
C15 C 0.1196(9) 0.145(6) 0.815(1)
C16 C 0.164(1) 0.099(6) 0.804(1)
C17 C 0.202(1) -0.055(8) 0.842(1)
C18 C 0.1977(9) -0.193(6) 0.894(1)
C19 C 0.158(1) -0.171(7) 0.908(1)
C20 C 0.119(1) -0.009(7) 0.867(1)
C21 C 0.243(1) -0.32(1) 0.939(2)
C22 C -0.0684(8) 0.302(6) 0.840(1)
C23 C -0.0334(8) 0.468(5) 0.879(1)
C24 C -0.043(1) 0.617(8) 0.927(2)
C25 C -0.0872(9) 0.584(6) 0.931(1)
C26 C -0.122(1) 0.423(7) 0.892(1)
C27 C -0.1137(9) 0.265(6) 0.845(1)
C28 C -0.098(1) 0.753(8) 0.984(1)
Ag2A Ag -0.012317 0.7333(5) 0.71328(9)
Ag2A_2 Ag -0.012317 -0.2667(5) 0.71328(9)
N6A N 0.0540(7) 0.628(5) 0.7035(8)
N5A N -0.0909(8) -0.029(5) 0.7600(9)
Ag2_2 Ag 0.012317 1.2333(5) 0.78672(9)
N4A N -0.0798(7) 0.773(5) 0.7204(8)
C22A C 0.0684(8) 0.802(6) 0.660(1)
N4A_2 N -0.0798(7) -0.227(5) 0.7204(8)
N5A_2 N -0.0909(8) 0.971(5) 0.7600(9)
C15A C -0.1196(9) 0.645(6) 0.685(1)
C23A C 0.0334(8) 0.968(5) 0.621(1)
C27A C 0.1137(9) 0.765(6) 0.655(1)
C16A C -0.164(1) 0.599(6) 0.696(1)
C20A C -0.119(1) 0.491(7) 0.633(1)
C24A C 0.043(1) 1.117(8) 0.573(2)
C26A C 0.122(1) 0.923(7) 0.608(1)
C17A C -0.202(1) 0.445(8) 0.658(1)
C19A C -0.158(1) 0.329(7) 0.592(1)
C25A C 0.0872(9) 1.084(6) 0.569(1)
C18A C -0.1977(9) 0.307(6) 0.606(1)
C28A C 0.098(1) 1.253(8) 0.516(1)
C21A C -0.243(1) 0.18(1) 0.561(2)
F10A F 0.1415(7) 1.338(5) 0.5313(8)
F11A F 0.0892(8) 1.070(4) 0.4671(8)
F12A F 0.0678(7) 1.457(4) 0.4912(9)
F7A F -0.2655(9) 0.001(6) 0.591(1)
F8A F -0.2308(8) -0.023(6) 0.528(1)
F9A F -0.2744(9) 0.304(6) 0.524(1)
loop_
_geom_bond_atom_site_label_1
_geom_bond_atom_site_label_2
_geom_bond_site_symmetry_1
_geom_bond_site_symmetry_2
Ag1 N1 1_555 1_555
Ag2 N4 1_555 1_555
F1 C7 1_555 1_555
F2 C7 1_555 1_555
F3 C7 1_555 1_555
F4 C14 1_555 1_555
F5 C14 1_555 1_555
F6 C14 1_555 1_555
F7 C21 1_555 1_555
F8 C21 1_555 1_555
F9 C21 1_555 1_555
F10 C28 1_555 1_555
F11 C28 1_555 1_555
F12 C28 1_555 1_555
N1 N2 1_555 1_555
N2 N3A 1_555 1_555
N3 Ag1 1_555 1_555
N4 N5 1_555 1_555
N5 N6A 1_555 1_555
N6 Ag2 1_555 1_555
C1 N1 1_555 1_555
C2 C1 1_555 1_555
C3 C2 1_555 1_555
C4 C3 1_555 1_555
C5 C4 1_555 1_555
C6 C1 1_555 1_555
C7 C4 1_555 1_555
C8 N3 1_555 1_555
C9 C8 1_555 1_555
C10 C9 1_555 1_555
C11 C10 1_555 1_555
C12 C11 1_555 1_555
C13 C8 1_555 1_555
C14 C11 1_555 1_555
C15 N4 1_555 1_555
C16 C15 1_555 1_555
C17 C16 1_555 1_555
C18 C17 1_555 1_555
C19 C18 1_555 1_555
C20 C15 1_555 1_555
C21 C18 1_555 1_555
C22 N6 1_555 1_555
C23 C22 1_555 1_555
C24 C23 1_555 1_555
C25 C24 1_555 1_555
C26 C25 1_555 1_555
C27 C22 1_555 1_555
C28 C25 1_555 1_555
Ag1A Ag1 1_555 1_555
Ag1A_2 Ag1 1_555 1_555
N3A Ag1A 1_555 1_555
N2A N3 1_555 1_555
Ag1_2 Ag1A 1_555 1_555
N1A Ag1A 1_555 1_555
C8A N3A 1_555 1_555
N1A_2 N2A 1_555 1_555
N2A_2 N1A 1_555 1_555
C1A N1A 1_555 1_555
C9A C8A 1_555 1_555
C13A C8A 1_555 1_555
C2A C1A 1_555 1_555
C6A C1A 1_555 1_555
C10A C9A 1_555 1_555
C12A C13A 1_555 1_555
C3A C2A 1_555 1_555
C5A C6A 1_555 1_555
C11A C10A 1_555 1_555
C4A C3A 1_555 1_555
C14A C11A 1_555 1_555
C7A C4A 1_555 1_555
F4A C14A 1_555 1_555
F5A C14A 1_555 1_555
F6A C14A 1_555 1_555
F1A C7A 1_555 1_555
F2A C7A 1_555 1_555
F3A C7A 1_555 1_555
Ag2A Ag2 1_555 1_555
Ag2A_2 Ag2 1_555 1_555
N6A Ag2A 1_555 1_555
N5A N6 1_555 1_555
Ag2_2 Ag2A 1_555 1_555
N4A Ag2A 1_555 1_555
C22A N6A 1_555 1_555
N4A_2 N5A 1_555 1_555
N5A_2 N4A 1_555 1_555
C15A N4A 1_555 1_555
C23A C22A 1_555 1_555
C27A C22A 1_555 1_555
C16A C15A 1_555 1_555
C20A C15A 1_555 1_555
C24A C23A 1_555 1_555
C26A C27A 1_555 1_555
C17A C16A 1_555 1_555
C19A C20A 1_555 1_555
C25A C24A 1_555 1_555
C18A C17A 1_555 1_555
C28A C25A 1_555 1_555
C21A C18A 1_555 1_555
F10A C28A 1_555 1_555
F11A C28A 1_555 1_555
F12A C28A 1_555 1_555
F7A C21A 1_555 1_555
F8A C21A 1_555 1_555
F9A C21A 1_555 1_555
C5 C6 1_555 1_555
C12 C13 1_555 1_555
C19 C20 1_555 1_555
C26 C27 1_555 1_555
C12A C11A 1_555 1_555
C5A C4A 1_555 1_555
C26A C25A 1_555 1_555
C19A C18A 1_555 1_555

#END
