
#######################################################################
#
#                 Cambridge Crystallographic Data Centre
#                                CCDC 
#
#######################################################################
#
# If this CIF has been generated from an entry in the Cambridge 
# Structural Database, then it will include bibliographic, chemical, 
# crystal, experimental, refinement or atomic coordinate data resulting 
# from the CCDC's data processing and validation procedures.
#
#######################################################################

data_KAKBUV
_symmetry_cell_setting           triclinic
_symmetry_space_group_name_H-M   'P -1'
_symmetry_Int_Tables_number      2
_space_group_name_Hall           '-P 1'
loop_
_symmetry_equiv_pos_site_id
_symmetry_equiv_pos_as_xyz
1 x,y,z
2 -x,-y,-z
_cell_length_a                   8.7708(2)
_cell_length_b                   9.4691(2)
_cell_length_c                   11.1568(3)
_cell_angle_alpha                86.174(2)
_cell_angle_beta                 78.509(2)
_cell_angle_gamma                66.335(2)
_cell_volume                     831.57
loop_
_atom_site_label
_atom_site_type_symbol
_atom_site_fract_x
_atom_site_fract_y
_atom_site_fract_z
Ag1 Ag 0.072029(12) 0.366604(11) 0.087890(10)
Cl1 Cl 0.14436(4) 0.34665(4) -0.15737(3)
C1 C -0.00756(15) 0.19027(14) 0.16689(11)
C2 C -0.11661(17) 0.00779(16) 0.20564(14)
H1 H -0.1788 -0.0525 0.1985
C3 C -0.01994(18) -0.00771(16) 0.28934(14)
H2 H -0.0002 -0.0812 0.3529
C4 C -0.21244(16) 0.20000(16) 0.03967(12)
H3 H -0.2238 0.1187 -0.0047
H4 H -0.1559 0.2538 -0.0204
C5 C -0.38720(16) 0.31410(15) 0.09729(11)
C6 C -0.40871(17) 0.42975(16) 0.17774(13)
H5 H -0.3131 0.4401 0.1974
C7 C -0.57133(17) 0.52934(16) 0.22868(13)
H6 H -0.5888 0.6084 0.2844
C8 C -0.70853(16) 0.51257(16) 0.19745(12)
H7 H -0.8197 0.5805 0.2337
C9 C -0.53208(16) 0.30792(15) 0.07003(12)
H8 H -0.5183 0.2307 0.0138
C10 C 0.14714(16) 0.13989(15) 0.33508(12)
C11 C 0.06501(16) 0.24485(16) 0.43235(12)
C12 C 0.16421(17) 0.28311(16) 0.49670(12)
H9 H 0.1106 0.3526 0.5645
C13 C 0.34054(17) 0.22160(16) 0.46370(12)
C14 C 0.41712(17) 0.11743(16) 0.36603(13)
H10 H 0.5372 0.0743 0.3436
C15 C 0.32329(17) 0.07430(15) 0.30005(12)
C16 C -0.12584(18) 0.31839(19) 0.46401(15)
H11 H -0.1610 0.3849 0.5366
H12 H -0.1703 0.2378 0.4808
H13 H -0.1702 0.3802 0.3952
C17 C 0.44544(19) 0.27017(18) 0.53038(14)
H14 H 0.4633 0.3585 0.4893
H15 H 0.5553 0.1843 0.5304
H16 H 0.3860 0.2993 0.6149
C18 C 0.40729(18) -0.03546(18) 0.19240(14)
H17 H 0.3645 -0.1173 0.2017
H18 H 0.5302 -0.0811 0.1885
H19 H 0.3819 0.0205 0.1169
N1 N -0.10778(13) 0.12883(13) 0.13184(10)
N2 N 0.04535(14) 0.10511(12) 0.26446(10)
N3 N -0.69038(14) 0.40436(13) 0.11820(10)
Ag1A Ag -0.072029(12) 0.633396(11) -0.087890(10)
Ag1_2 Ag -0.927971(12) 0.366604(11) 0.087890(10)
Cl1A Cl -0.14436(4) 0.65335(4) 0.15737(3)
N3_2 N 0.30962(14) 0.40436(13) 0.11820(10)
loop_
_geom_bond_atom_site_label_1
_geom_bond_atom_site_label_2
_geom_bond_site_symmetry_1
_geom_bond_site_symmetry_2
Ag1 Cl1 1_555 1_555
Cl1 Ag1A 1_555 1_555
C1 Ag1 1_555 1_555
C2 H1 1_555 1_555
C3 C2 1_555 1_555
H2 C3 1_555 1_555
C4 H3 1_555 1_555
H4 C4 1_555 1_555
C5 C4 1_555 1_555
C6 C5 1_555 1_555
H5 C6 1_555 1_555
C7 C6 1_555 1_555
H6 C7 1_555 1_555
C8 C7 1_555 1_555
H7 C8 1_555 1_555
C9 C5 1_555 1_555
H8 C9 1_555 1_555
C10 C11 1_555 1_555
C11 C12 1_555 1_555
C12 H9 1_555 1_555
C13 C12 1_555 1_555
C14 C13 1_555 1_555
H10 C14 1_555 1_555
C15 C10 1_555 1_555
C16 C11 1_555 1_555
H11 C16 1_555 1_555
H12 C16 1_555 1_555
H13 C16 1_555 1_555
C17 C13 1_555 1_555
H14 C17 1_555 1_555
H15 C17 1_555 1_555
H16 C17 1_555 1_555
C18 C15 1_555 1_555
H17 C18 1_555 1_555
H18 C18 1_555 1_555
H19 C18 1_555 1_555
N1 C1 1_555 1_555
N2 C1 1_555 1_555
N3 C8 1_555 1_555
Ag1A Cl1A 1_555 1_555
Ag1_2 N3 1_555 1_555
Cl1A Ag1 1_555 1_555
N3_2 Ag1 1_555 1_555
C2 N1 1_555 1_555
C3 N2 1_555 1_555
C4 N1 1_555 1_555
C9 N3 1_555 1_555
C10 N2 1_555 1_555
C14 C15 1_555 1_555

#END
