
#######################################################################
#
#                 Cambridge Crystallographic Data Centre
#                                CCDC 
#
#######################################################################
#
# If this CIF has been generated from an entry in the Cambridge 
# Structural Database, then it will include bibliographic, chemical, 
# crystal, experimental, refinement or atomic coordinate data resulting 
# from the CCDC's data processing and validation procedures.
#
#######################################################################

data_KAKDAC
_symmetry_cell_setting           orthorhombic
_symmetry_space_group_name_H-M   'P b c n'
_symmetry_Int_Tables_number      60
_space_group_name_Hall           '-P 2n 2ab'
loop_
_symmetry_equiv_pos_site_id
_symmetry_equiv_pos_as_xyz
1 x,y,z
2 1/2-x,1/2-y,1/2+z
3 -x,y,1/2-z
4 1/2+x,1/2-y,-z
5 -x,-y,-z
6 1/2+x,1/2+y,1/2-z
7 x,-y,1/2+z
8 1/2-x,1/2+y,z
_cell_length_a                   22.6940(15)
_cell_length_b                   11.2794(8)
_cell_length_c                   14.9036(10)
_cell_angle_alpha                90
_cell_angle_beta                 90
_cell_angle_gamma                90
_cell_volume                     3814.94
loop_
_atom_site_label
_atom_site_type_symbol
_atom_site_fract_x
_atom_site_fract_y
_atom_site_fract_z
Ag1 Ag 0.18585(2) 0.38596(5) 0.14458(4)
Ag2 Ag 0.21628(2) 0.12150(5) -0.19988(4)
Ag3 Ag 0.04940(3) 0.56945(5) 0.02471(4)
Ag4 Ag 0.28782(3) 0.12958(5) 0.00645(4)
Ag5 Ag 0.32406(3) 0.39851(6) 0.01173(4)
Ag6 Ag -0.05106(2) 0.12939(5) -0.01878(4)
N1 N 0.1209(2) 0.2358(4) 0.2065(3)
N2 N 0.1327(2) 0.2523(4) -0.1716(3)
O1 O 0.2392(2) 0.0200(4) 0.1859(3)
O2 O 0.2123(2) 0.1660(5) 0.0967(3)
O3 O 0.0764(2) 0.4153(4) 0.1038(3)
O4 O 0.0097(2) 0.2983(4) 0.0412(3)
O5 O 0.1281(2) 0.3250(5) 0.4339(3)
O6 O 0.1763(2) 0.4024(4) 0.3179(3)
O7 O 0.2485(2) 0.3020(5) -0.1204(3)
O8 O 0.2197(2) 0.4165(4) -0.0074(3)
O9 O 0.14214(19) 0.0410(5) -0.0820(3)
O10 O 0.0452(2) 0.0227(5) -0.0714(4)
O11 O 0.1630(2) 0.1924(6) -0.3544(3)
O12 O 0.0721(2) 0.2619(5) -0.3762(3)
C1 C 0.1561(3) 0.1308(5) 0.2287(4)
H1 H 0.1301 0.0626 0.2306
H2 H 0.1724 0.1413 0.2884
C2 C 0.2061(3) 0.1041(6) 0.1649(4)
C3 C 0.0775(3) 0.2087(5) 0.1375(4)
H3 H 0.0457 0.1638 0.1645
H4 H 0.0959 0.1589 0.0925
C4 C 0.0518(2) 0.3173(6) 0.0917(4)
C5 C 0.0924(3) 0.2799(5) 0.2883(4)
H5 H 0.0744 0.2141 0.3199
H6 H 0.0615 0.3353 0.2721
C6 C 0.1366(3) 0.3419(6) 0.3509(4)
C7 C 0.1260(3) 0.3313(6) -0.2494(4)
H7 H 0.1599 0.3833 -0.2542
H8 H 0.0911 0.3800 -0.2422
C8 C 0.1206(3) 0.2555(6) -0.3338(4)
C9 C 0.1449(3) 0.3206(6) -0.0902(4)
H9 H 0.1299 0.2767 -0.0391
H10 H 0.1232 0.3946 -0.0935
C10 C 0.2095(3) 0.3490(5) -0.0734(4)
C11 C 0.0905(3) 0.0735(5) -0.0984(4)
C12 C 0.0800(3) 0.1796(5) -0.1587(4)
H11 H 0.0663 0.1520 -0.2166
H12 H 0.0492 0.2283 -0.1327
Ag1G Ag 0.31415(2) -0.11404(5) 0.14458(4)
Ag2F Ag 0.21628(2) -0.12150(5) 0.30012(4)
Ag2A Ag 0.28372(2) 0.37850(5) 0.30012(4)
Ag3D Ag -0.04940(3) 0.43055(5) -0.02471(4)
Ag3F Ag 0.04940(3) 0.43055(5) 0.52471(4)
Ag3F_2 Ag 0.04940(3) 0.43055(5) -0.47529(4)
Ag4A Ag 0.21218(3) 0.37042(5) 0.50645(4)
Ag4G Ag 0.21218(3) 0.62958(5) 0.00645(4)
Ag5C Ag -0.17594(3) 0.10149(6) -0.01173(4)
Ag5G Ag 0.17594(3) -0.10149(6) 0.01173(4)
Ag5A Ag 0.17594(3) 0.10149(6) -0.48827(4)
Ag6C Ag 0.44894(2) 0.37061(5) 0.01878(4)
Ag6D Ag 0.05106(2) -0.12939(5) 0.01878(4)
Ag6B Ag 0.05106(2) 0.12939(5) -0.48122(4)
O1G O 0.2608(2) 0.5200(4) 0.1859(3)
O1F O 0.2392(2) -0.0200(4) -0.3141(3)
O4D O -0.0097(2) 0.7017(4) -0.0412(3)
O5F O 0.1281(2) 0.6750(5) -0.0661(3)
O5A O 0.3719(2) 0.1750(5) -0.0661(3)
O6A O 0.3237(2) 0.0976(4) -0.1821(3)
O8G O 0.2803(2) -0.0835(4) -0.0074(3)
O9G O 0.35786(19) 0.5410(5) -0.0820(3)
O10D O -0.0452(2) -0.0227(5) 0.0714(4)
O11A O 0.3370(2) 0.3076(6) 0.1456(3)
O12F O 0.0721(2) 0.7381(5) 0.1238(3)
O12B O -0.0721(2) 0.2619(5) -0.1238(3)
loop_
_geom_bond_atom_site_label_1
_geom_bond_atom_site_label_2
_geom_bond_site_symmetry_1
_geom_bond_site_symmetry_2
Ag1 N1 1_555 1_555
Ag2 N2 1_555 1_555
Ag3 O3 1_555 1_555
Ag4 O2 1_555 1_555
Ag5 O8 1_555 1_555
Ag6 O4 1_555 1_555
N1 C1 1_555 1_555
N2 C7 1_555 1_555
O1 C2 1_555 1_555
O2 Ag1 1_555 1_555
O3 Ag1 1_555 1_555
O4 C4 1_555 1_555
O5 C6 1_555 1_555
O6 Ag1 1_555 1_555
O7 Ag2 1_555 1_555
O8 Ag1 1_555 1_555
O9 Ag2 1_555 1_555
O10 Ag6 1_555 1_555
O11 C8 1_555 1_555
O12 C8 1_555 1_555
C1 H1 1_555 1_555
H2 C1 1_555 1_555
C2 O2 1_555 1_555
C3 N1 1_555 1_555
H3 C3 1_555 1_555
H4 C3 1_555 1_555
C4 O3 1_555 1_555
C5 N1 1_555 1_555
H5 C5 1_555 1_555
H6 C5 1_555 1_555
C6 O6 1_555 1_555
C7 H7 1_555 1_555
H8 C7 1_555 1_555
C8 C7 1_555 1_555
C9 N2 1_555 1_555
H9 C9 1_555 1_555
H10 C9 1_555 1_555
C10 O7 1_555 1_555
C11 O9 1_555 1_555
C12 N2 1_555 1_555
H11 C12 1_555 1_555
H12 C12 1_555 1_555
Ag1G O1 1_555 1_555
Ag2F O1 1_555 1_555
Ag2A O6 1_555 1_555
Ag3D Ag3 1_555 1_555
Ag3F O5 1_555 1_555
Ag3F_2 O12 1_555 1_555
Ag4A O5 1_555 1_555
Ag4G O8 1_555 1_555
Ag5C Ag6 1_555 1_555
Ag5G O9 1_555 1_555
Ag5A O11 1_555 1_555
Ag6C Ag5 1_555 1_555
Ag6D O10 1_555 1_555
Ag6B O12 1_555 1_555
O1G Ag1 1_555 1_555
O1F Ag2 1_555 1_555
O4D Ag3 1_555 1_555
O5F Ag3 1_555 1_555
O5A Ag4 1_555 1_555
O6A Ag2 1_555 1_555
O8G Ag4 1_555 1_555
O9G Ag5 1_555 1_555
O10D Ag6 1_555 1_555
O11A Ag5 1_555 1_555
O12F Ag3 1_555 1_555
O12B Ag6 1_555 1_555
O4 Ag3D 1_555 1_555
O8 C10 1_555 1_555
O10 C11 1_555 1_555
C1 C2 1_555 1_555
C3 C4 1_555 1_555
C5 C6 1_555 1_555
C9 C10 1_555 1_555
C11 C12 1_555 1_555
Ag1G O8G 1_555 1_555
Ag2A O1G 1_555 1_555
Ag3D O12B 1_555 1_555
Ag4G O5F 1_555 1_555
Ag5G Ag6D 1_555 1_555
Ag5G O8G 1_555 1_555
Ag5A Ag6B 1_555 1_555
Ag6D O10D 1_555 1_555

#END
