
#######################################################################
#
#                 Cambridge Crystallographic Data Centre
#                                CCDC 
#
#######################################################################
#
# If this CIF has been generated from an entry in the Cambridge 
# Structural Database, then it will include bibliographic, chemical, 
# crystal, experimental, refinement or atomic coordinate data resulting 
# from the CCDC's data processing and validation procedures.
#
#######################################################################

data_KAKGAF
_symmetry_cell_setting           triclinic
_symmetry_space_group_name_H-M   'P -1'
_symmetry_Int_Tables_number      2
_space_group_name_Hall           '-P 1'
loop_
_symmetry_equiv_pos_site_id
_symmetry_equiv_pos_as_xyz
1 x,y,z
2 -x,-y,-z
_cell_length_a                   15.0212(2)
_cell_length_b                   15.1626(2)
_cell_length_c                   17.7726(3)
_cell_angle_alpha                73.664(1)
_cell_angle_beta                 72.235(1)
_cell_angle_gamma                79.629(1)
_cell_volume                     3679.54
loop_
_atom_site_label
_atom_site_type_symbol
_atom_site_fract_x
_atom_site_fract_y
_atom_site_fract_z
Au1 Au 1.0000 0.0000 -0.5000
Au2 Au 0.592586(19) -0.07594(2) -0.332138(18)
Au3 Au 0.5000 0.0000 0.0000
Au4 Au 0.807296(19) -0.06798(2) -0.207844(18)
Tl1 Tl 0.80513(2) -0.04992(2) -0.384531(19)
Tl2 Tl 0.59593(2) -0.01196(2) -0.178091(19)
C1 C 0.9515(4) 0.1377(6) -0.5076(4)
C2 C 0.8736(5) 0.1790(5) -0.5349(4)
C3 C 0.8444(5) 0.2731(5) -0.5466(4)
C4 C 0.8968(5) 0.3304(6) -0.5328(5)
C5 C 0.9759(5) 0.2919(5) -0.5052(5)
C6 C 0.9978(5) 0.1973(5) -0.4891(5)
Cl1 Cl 0.81205(15) 0.11125(16) -0.56235(16)
Cl2 Cl 0.73997(16) 0.31834(18) -0.57248(16)
Cl3 Cl 0.86545(18) 0.44831(17) -0.55155(16)
Cl4 Cl 1.04259(17) 0.36404(19) -0.49017(17)
Cl5 Cl 1.09314(14) 0.15014(17) -0.44887(14)
C7 C 0.5764(4) 0.0434(5) -0.4191(4)
C8 C 0.5312(4) 0.1293(5) -0.4075(4)
C9 C 0.5176(5) 0.2042(5) -0.4704(5)
C10 C 0.5482(5) 0.1945(5) -0.5503(5)
C11 C 0.5926(5) 0.1103(5) -0.5660(4)
C12 C 0.6058(5) 0.0383(5) -0.5009(5)
Cl6 Cl 0.48492(14) 0.14200(15) -0.30812(13)
Cl7 Cl 0.4673(2) 0.31026(16) -0.45297(16)
Cl8 Cl 0.53032(17) 0.28592(16) -0.62933(14)
Cl9 Cl 0.63350(15) 0.09868(17) -0.66476(13)
Cl10 Cl 0.66389(14) -0.06608(15) -0.52261(13)
C13 C 0.5928(4) -0.2074(5) -0.2589(4)
C14 C 0.5186(4) -0.2332(5) -0.1903(4)
C15 C 0.5048(5) -0.3242(5) -0.1488(4)
C16 C 0.5677(5) -0.3947(5) -0.1770(4)
C17 C 0.6442(5) -0.3737(5) -0.2441(4)
C18 C 0.6556(5) -0.2814(5) -0.2829(4)
Cl11 Cl 0.43587(13) -0.14750(14) -0.15497(12)
Cl12 Cl 0.41322(15) -0.35107(16) -0.06261(13)
Cl13 Cl 0.54989(16) -0.50850(15) -0.12866(15)
Cl14 Cl 0.72223(15) -0.46116(14) -0.27797(14)
Cl15 Cl 0.75084(13) -0.25834(14) -0.36858(13)
C19 C 0.3820(5) -0.0601(5) 0.0139(4)
C20 C 0.3188(5) -0.0207(5) -0.0314(4)
C21 C 0.2448(6) -0.0670(6) -0.0300(5)
C22 C 0.2355(6) -0.1556(6) 0.0174(5)
C23 C 0.2953(6) -0.1969(6) 0.0647(5)
C24 C 0.3669(5) -0.1481(5) 0.0626(5)
Cl16 Cl 0.33456(16) 0.08802(16) -0.09834(14)
Cl17 Cl 0.1687(2) -0.0148(2) -0.0889(2)
Cl18 Cl 0.1495(2) -0.2165(3) 0.0160(2)
Cl19 Cl 0.28489(17) -0.30841(17) 0.12304(16)
Cl20 Cl 0.44038(16) -0.20273(15) 0.12526(14)
C25 C 0.8426(5) 0.0647(5) -0.2341(4)
C26 C 0.8060(4) 0.1459(5) -0.2784(4)
C27 C 0.8352(5) 0.2327(5) -0.2909(4)
C28 C 0.9054(5) 0.2395(5) -0.2582(5)
C29 C 0.9460(5) 0.1604(5) -0.2155(6)
C30 C 0.9128(6) 0.0753(5) -0.2022(6)
Cl21 Cl 0.72019(14) 0.14315(14) -0.32517(13)
Cl22 Cl 0.78181(16) 0.33187(14) -0.34147(14)
Cl23 Cl 0.94025(16) 0.34620(15) -0.26889(17)
Cl24 Cl 1.0376(2) 0.16652(19) -0.1771(2)
Cl25 Cl 0.9624(2) -0.02106(17) -0.1437(2)
C31 C 0.7978(4) -0.2091(5) -0.1768(4)
C32 C 0.7327(5) -0.2578(5) -0.1118(4)
C33 C 0.7376(5) -0.3537(5) -0.0885(4)
C34 C 0.8118(5) -0.4052(5) -0.1307(4)
C35 C 0.8782(5) -0.3602(5) -0.1968(4)
C36 C 0.8698(5) -0.2640(5) -0.2185(4)
Cl26 Cl 0.64210(14) -0.19762(14) -0.05215(12)
Cl27 Cl 0.65119(14) -0.40932(14) -0.00951(13)
Cl28 Cl 0.82246(16) -0.52429(14) -0.10000(15)
Cl29 Cl 0.96866(15) -0.42389(15) -0.25248(15)
Cl30 Cl 0.95584(13) -0.21133(14) -0.30144(13)
Au2A Au 1.407414(19) 0.07594(2) -0.667862(18)
Au3_2 Au 1.5000 0.0000 -1.0000
Au4A Au 1.192704(19) 0.06798(2) -0.792156(18)
Tl1A Tl 1.19487(2) 0.04992(2) -0.615469(19)
Tl2A Tl 1.40407(2) 0.01196(2) -0.821909(19)
Tl2A_2 Tl 0.40407(2) 0.01196(2) 0.178091(19)
C1A C 1.0485(4) -0.1377(6) -0.4924(4)
C2A C 1.1264(5) -0.1790(5) -0.4651(4)
C3A C 1.1556(5) -0.2731(5) -0.4534(4)
C4A C 1.1032(5) -0.3304(6) -0.4672(5)
C5A C 1.0241(5) -0.2919(5) -0.4948(5)
C6A C 1.0022(5) -0.1973(5) -0.5109(5)
Cl1A Cl 1.18795(15) -0.11125(16) -0.43765(16)
Cl2A Cl 1.26003(16) -0.31834(18) -0.42752(16)
Cl3A Cl 1.13455(18) -0.44831(17) -0.44845(16)
Cl4A Cl 0.95741(17) -0.36404(19) -0.50983(17)
Cl5A Cl 0.90686(14) -0.15014(17) -0.55113(14)
C7A C 1.4236(4) -0.0434(5) -0.5809(4)
C8A C 1.4688(4) -0.1293(5) -0.5925(4)
C9A C 1.4824(5) -0.2042(5) -0.5296(5)
C10A C 1.4518(5) -0.1945(5) -0.4497(5)
C11A C 1.4074(5) -0.1103(5) -0.4340(4)
C12A C 1.3942(5) -0.0383(5) -0.4991(5)
Cl6A Cl 1.51508(14) -0.14200(15) -0.69188(13)
Cl7A Cl 1.5327(2) -0.31026(16) -0.54703(16)
Cl8A Cl 1.46968(17) -0.28592(16) -0.37067(14)
Cl9A Cl 1.36650(15) -0.09868(17) -0.33524(13)
Cl10A Cl 1.33611(14) 0.06608(15) -0.47739(13)
C13A C 1.4072(4) 0.2074(5) -0.7411(4)
C14A C 1.4814(4) 0.2332(5) -0.8097(4)
C15A C 1.4952(5) 0.3242(5) -0.8512(4)
C16A C 1.4323(5) 0.3947(5) -0.8230(4)
C17A C 1.3558(5) 0.3737(5) -0.7559(4)
C18A C 1.3444(5) 0.2814(5) -0.7171(4)
Cl11A Cl 1.56413(13) 0.14750(14) -0.84503(12)
Cl12A Cl 1.58678(15) 0.35107(16) -0.93739(13)
Cl13A Cl 1.45011(16) 0.50850(15) -0.87134(15)
Cl14A Cl 1.27777(15) 0.46116(14) -0.72203(14)
Cl15A Cl 1.24916(13) 0.25834(14) -0.63142(13)
C19A C 0.6180(5) 0.0601(5) -0.0139(4)
C20A C 0.6812(5) 0.0207(5) 0.0314(4)
C21A C 0.7552(6) 0.0670(6) 0.0300(5)
C22A C 0.7645(6) 0.1556(6) -0.0174(5)
C23A C 0.7047(6) 0.1969(6) -0.0647(5)
C24A C 0.6331(5) 0.1481(5) -0.0626(5)
Cl16A Cl 0.66544(16) -0.08802(16) 0.09834(14)
Cl17A Cl 0.8313(2) 0.0148(2) 0.0889(2)
Cl18A Cl 0.8505(2) 0.2165(3) -0.0160(2)
Cl19A Cl 0.71511(17) 0.30841(17) -0.12304(16)
Cl20A Cl 0.55962(16) 0.20273(15) -0.12526(14)
C25A C 1.1574(5) -0.0647(5) -0.7659(4)
C26A C 1.1940(4) -0.1459(5) -0.7216(4)
C27A C 1.1648(5) -0.2327(5) -0.7091(4)
C28A C 1.0946(5) -0.2395(5) -0.7418(5)
C29A C 1.0540(5) -0.1604(5) -0.7845(6)
C30A C 1.0872(6) -0.0753(5) -0.7978(6)
Cl21A Cl 1.27981(14) -0.14315(14) -0.67483(13)
Cl22A Cl 1.21819(16) -0.33187(14) -0.65853(14)
Cl23A Cl 1.05975(16) -0.34620(15) -0.73111(17)
Cl24A Cl 0.9624(2) -0.16652(19) -0.8229(2)
Cl25A Cl 1.0376(2) 0.02106(17) -0.8563(2)
C31A C 1.2022(4) 0.2091(5) -0.8232(4)
C32A C 1.2673(5) 0.2578(5) -0.8882(4)
C33A C 1.2624(5) 0.3537(5) -0.9115(4)
C34A C 1.1882(5) 0.4052(5) -0.8693(4)
C35A C 1.1218(5) 0.3602(5) -0.8032(4)
C36A C 1.1302(5) 0.2640(5) -0.7815(4)
Cl26A Cl 1.35790(14) 0.19762(14) -0.94785(12)
Cl27A Cl 1.34881(14) 0.40932(14) -0.99049(13)
Cl28A Cl 1.17754(16) 0.52429(14) -0.90000(15)
Cl29A Cl 1.03134(15) 0.42389(15) -0.74752(15)
Cl30A Cl 1.04416(13) 0.21133(14) -0.69856(13)
N1 N 0.7430(5) 0.5610(5) 0.2090(4)
C37 C 0.7688(7) 0.4568(6) 0.2186(6)
H1 H 0.8364 0.4429 0.2163
H2 H 0.7333 0.4250 0.2735
C38 C 0.7507(8) 0.4156(7) 0.1569(7)
H3 H 0.7963 0.4357 0.1034
H4 H 0.6868 0.4388 0.1506
C39 C 0.7595(8) 0.3105(8) 0.1830(8)
H5 H 0.7118 0.2912 0.2353
H6 H 0.7450 0.2867 0.1420
C40 C 0.8530(8) 0.2669(9) 0.1927(9)
H7 H 0.9008 0.2841 0.1409
H8 H 0.8527 0.1996 0.2093
H9 H 0.8674 0.2882 0.2345
C41 C 0.7911(6) 0.6147(6) 0.1249(6)
H10 H 0.7695 0.6811 0.1205
H11 H 0.7706 0.5955 0.0844
C42 C 0.8986(6) 0.6029(7) 0.1022(6)
H12 H 0.9206 0.6302 0.1370
H13 H 0.9214 0.5363 0.1121
C43 C 0.9391(7) 0.6500(7) 0.0127(6)
H14 H 1.0084 0.6367 -0.0014
H15 H 0.9158 0.6230 -0.0214
C44 C 0.9142(8) 0.7546(8) -0.0081(7)
H16 H 0.8458 0.7686 0.0063
H17 H 0.9402 0.7796 -0.0666
H18 H 0.9408 0.7826 0.0225
C45 C 0.7755(6) 0.5846(7) 0.2733(6)
H19 H 0.7466 0.5448 0.3270
H20 H 0.8445 0.5690 0.2620
C46 C 0.7530(7) 0.6836(9) 0.2789(7)
H21 H 0.6849 0.7023 0.2861
H22 H 0.7878 0.7243 0.2283
C47 C 0.7812(8) 0.6922(12) 0.3507(10)
H23 H 0.7500 0.6473 0.4000
H24 H 0.8500 0.6761 0.3413
C48 C 0.7566(10) 0.7853(13) 0.3652(13)
H25 H 0.7840 0.8306 0.3154
H26 H 0.7814 0.7885 0.4093
H27 H 0.6881 0.7990 0.3805
C49 C 0.6378(6) 0.5862(6) 0.2212(6)
H28 H 0.6197 0.5707 0.1777
H29 H 0.6242 0.6539 0.2146
C50 C 0.5765(6) 0.5389(7) 0.3031(6)
H30 H 0.5800 0.4722 0.3059
H31 H 0.6010 0.5447 0.3471
C51 C 0.4755(6) 0.5796(7) 0.3168(6)
H32 H 0.4514 0.5750 0.2722
H33 H 0.4718 0.6460 0.3153
C52 C 0.4139(6) 0.5310(8) 0.3978(6)
H34 H 0.4118 0.4670 0.3974
H35 H 0.3501 0.5630 0.4065
H36 H 0.4399 0.5318 0.4419
loop_
_geom_bond_atom_site_label_1
_geom_bond_atom_site_label_2
_geom_bond_site_symmetry_1
_geom_bond_site_symmetry_2
Au1 Tl1 1_555 1_555
Au2 Tl1 1_555 1_555
Au3 Tl2 1_555 1_555
Au4 Tl1 1_555 1_555
Tl2 Au2 1_555 1_555
C1 Au1 1_555 1_555
C2 C1 1_555 1_555
C3 C2 1_555 1_555
C4 C3 1_555 1_555
C5 C4 1_555 1_555
C6 C1 1_555 1_555
Cl1 C2 1_555 1_555
Cl2 C3 1_555 1_555
Cl3 C4 1_555 1_555
Cl4 C5 1_555 1_555
Cl5 C6 1_555 1_555
C7 Au2 1_555 1_555
C8 C7 1_555 1_555
C9 C8 1_555 1_555
C10 C9 1_555 1_555
C11 C10 1_555 1_555
C12 C7 1_555 1_555
Cl6 C8 1_555 1_555
Cl7 C9 1_555 1_555
Cl8 C10 1_555 1_555
Cl9 C11 1_555 1_555
Cl10 C12 1_555 1_555
C13 Au2 1_555 1_555
C14 C13 1_555 1_555
C15 C14 1_555 1_555
C16 C15 1_555 1_555
C17 C16 1_555 1_555
C18 C13 1_555 1_555
Cl11 C14 1_555 1_555
Cl12 C15 1_555 1_555
Cl13 C16 1_555 1_555
Cl14 C17 1_555 1_555
Cl15 C18 1_555 1_555
C19 Au3 1_555 1_555
C20 C19 1_555 1_555
C21 C20 1_555 1_555
C22 C21 1_555 1_555
C23 C22 1_555 1_555
C24 C19 1_555 1_555
Cl16 C20 1_555 1_555
Cl17 C21 1_555 1_555
Cl18 C22 1_555 1_555
Cl19 C23 1_555 1_555
Cl20 C24 1_555 1_555
C25 Au4 1_555 1_555
C26 C25 1_555 1_555
C27 C26 1_555 1_555
C28 C27 1_555 1_555
C29 C28 1_555 1_555
C30 C25 1_555 1_555
Cl21 C26 1_555 1_555
Cl22 C27 1_555 1_555
Cl23 C28 1_555 1_555
Cl24 C29 1_555 1_555
Cl25 C30 1_555 1_555
C31 Au4 1_555 1_555
C32 C31 1_555 1_555
C33 C32 1_555 1_555
C34 C33 1_555 1_555
C35 C34 1_555 1_555
C36 C31 1_555 1_555
Cl26 C32 1_555 1_555
Cl27 C33 1_555 1_555
Cl28 C34 1_555 1_555
Cl29 C35 1_555 1_555
Cl30 C36 1_555 1_555
N1 C37 1_555 1_555
C37 H1 1_555 1_555
H2 C37 1_555 1_555
C38 C37 1_555 1_555
H3 C38 1_555 1_555
H4 C38 1_555 1_555
C39 C38 1_555 1_555
H5 C39 1_555 1_555
H6 C39 1_555 1_555
C40 C39 1_555 1_555
H7 C40 1_555 1_555
H8 C40 1_555 1_555
H9 C40 1_555 1_555
C41 N1 1_555 1_555
H10 C41 1_555 1_555
H11 C41 1_555 1_555
C42 C41 1_555 1_555
H12 C42 1_555 1_555
H13 C42 1_555 1_555
C43 C42 1_555 1_555
H14 C43 1_555 1_555
H15 C43 1_555 1_555
C44 C43 1_555 1_555
H16 C44 1_555 1_555
H17 C44 1_555 1_555
H18 C44 1_555 1_555
C45 N1 1_555 1_555
H19 C45 1_555 1_555
H20 C45 1_555 1_555
C46 C45 1_555 1_555
H21 C46 1_555 1_555
H22 C46 1_555 1_555
C47 C46 1_555 1_555
H23 C47 1_555 1_555
H24 C47 1_555 1_555
C48 C47 1_555 1_555
H25 C48 1_555 1_555
H26 C48 1_555 1_555
H27 C48 1_555 1_555
C49 N1 1_555 1_555
H28 C49 1_555 1_555
H29 C49 1_555 1_555
C50 C49 1_555 1_555
H30 C50 1_555 1_555
H31 C50 1_555 1_555
C51 C50 1_555 1_555
H32 C51 1_555 1_555
H33 C51 1_555 1_555
C52 C51 1_555 1_555
H34 C52 1_555 1_555
H35 C52 1_555 1_555
H36 C52 1_555 1_555
Au2A Tl1A 1_555 1_555
Au3_2 Tl2A 1_555 1_555
Au4A Tl1A 1_555 1_555
Tl1A Au1 1_555 1_555
Tl2A Au2A 1_555 1_555
Tl2A_2 Au3 1_555 1_555
C1A Au1 1_555 1_555
C2A C1A 1_555 1_555
C3A C2A 1_555 1_555
C4A C3A 1_555 1_555
C5A C4A 1_555 1_555
C6A C1A 1_555 1_555
Cl1A C2A 1_555 1_555
Cl2A C3A 1_555 1_555
Cl3A C4A 1_555 1_555
Cl4A C5A 1_555 1_555
Cl5A C6A 1_555 1_555
C7A Au2A 1_555 1_555
C8A C7A 1_555 1_555
C9A C8A 1_555 1_555
C10A C9A 1_555 1_555
C11A C10A 1_555 1_555
C12A C7A 1_555 1_555
Cl6A C8A 1_555 1_555
Cl7A C9A 1_555 1_555
Cl8A C10A 1_555 1_555
Cl9A C11A 1_555 1_555
Cl10A C12A 1_555 1_555
C13A Au2A 1_555 1_555
C14A C13A 1_555 1_555
C15A C14A 1_555 1_555
C16A C15A 1_555 1_555
C17A C16A 1_555 1_555
C18A C13A 1_555 1_555
Cl11A C14A 1_555 1_555
Cl12A C15A 1_555 1_555
Cl13A C16A 1_555 1_555
Cl14A C17A 1_555 1_555
Cl15A C18A 1_555 1_555
C19A Au3 1_555 1_555
C20A C19A 1_555 1_555
C21A C20A 1_555 1_555
C22A C21A 1_555 1_555
C23A C22A 1_555 1_555
C24A C19A 1_555 1_555
Cl16A C20A 1_555 1_555
Cl17A C21A 1_555 1_555
Cl18A C22A 1_555 1_555
Cl19A C23A 1_555 1_555
Cl20A C24A 1_555 1_555
C25A Au4A 1_555 1_555
C26A C25A 1_555 1_555
C27A C26A 1_555 1_555
C28A C27A 1_555 1_555
C29A C28A 1_555 1_555
C30A C25A 1_555 1_555
Cl21A C26A 1_555 1_555
Cl22A C27A 1_555 1_555
Cl23A C28A 1_555 1_555
Cl24A C29A 1_555 1_555
Cl25A C30A 1_555 1_555
C31A Au4A 1_555 1_555
C32A C31A 1_555 1_555
C33A C32A 1_555 1_555
C34A C33A 1_555 1_555
C35A C34A 1_555 1_555
C36A C31A 1_555 1_555
Cl26A C32A 1_555 1_555
Cl27A C33A 1_555 1_555
Cl28A C34A 1_555 1_555
Cl29A C35A 1_555 1_555
Cl30A C36A 1_555 1_555
Au4 Tl2 1_555 1_555
C5 C6 1_555 1_555
C11 C12 1_555 1_555
C17 C18 1_555 1_555
C23 C24 1_555 1_555
C29 C30 1_555 1_555
C35 C36 1_555 1_555
Au4A Tl2A 1_555 1_555
C5A C6A 1_555 1_555
C11A C12A 1_555 1_555
C17A C18A 1_555 1_555
C23A C24A 1_555 1_555
C29A C30A 1_555 1_555
C35A C36A 1_555 1_555

#END
