
#######################################################################
#
#                 Cambridge Crystallographic Data Centre
#                                CCDC 
#
#######################################################################
#
# If this CIF has been generated from an entry in the Cambridge 
# Structural Database, then it will include bibliographic, chemical, 
# crystal, experimental, refinement or atomic coordinate data resulting 
# from the CCDC's data processing and validation procedures.
#
#######################################################################

data_KAKGEJ
_symmetry_cell_setting           monoclinic
_symmetry_space_group_name_H-M   'P 21/n'
_symmetry_Int_Tables_number      14
_space_group_name_Hall           '-P 2yn'
loop_
_symmetry_equiv_pos_site_id
_symmetry_equiv_pos_as_xyz
1 x,y,z
2 1/2-x,1/2+y,1/2-z
3 -x,-y,-z
4 1/2+x,1/2-y,1/2+z
_cell_length_a                   12.2466(1)
_cell_length_b                   28.2173(4)
_cell_length_c                   15.1129(2)
_cell_angle_alpha                90
_cell_angle_beta                 108.925(1)
_cell_angle_gamma                90
_cell_volume                     4940.2
loop_
_atom_site_label
_atom_site_type_symbol
_atom_site_fract_x
_atom_site_fract_y
_atom_site_fract_z
Tl1 Tl 0.25012(4) 0.00953(2) 0.00919(4)
Au1 Au 0.5000 0.0000 0.0000
Au2 Au 0.0000 0.0000 0.0000
Au3 Au 0.21811(5) 0.063718(18) 0.16749(4)
C1 C 0.4507(10) 0.0549(5) -0.0944(9)
C2 C 0.5128(11) 0.0960(5) -0.0814(9)
C3 C 0.4844(14) 0.1348(5) -0.1415(11)
C4 C 0.3877(14) 0.1306(6) -0.2184(11)
C5 C 0.3230(16) 0.0905(7) -0.2351(11)
C6 C 0.3540(13) 0.0533(6) -0.1719(10)
F1 F 0.6159(8) 0.1013(3) -0.0010(6)
Cl1 Cl 0.5660(6) 0.18669(16) -0.1198(4)
F2 F 0.3550(12) 0.1708(5) -0.2792(8)
Cl2 Cl 0.1999(5) 0.0876(3) -0.3309(4)
F3 F 0.2848(9) 0.0128(4) -0.1943(7)
C7 C -0.0383(10) 0.0704(5) -0.0378(9)
C8 C -0.0831(9) 0.1008(5) 0.0137(10)
C9 C -0.1037(11) 0.1481(5) -0.0078(12)
C10 C -0.0807(15) 0.1655(7) -0.0844(11)
C11 C -0.0366(14) 0.1367(6) -0.1380(12)
C12 C -0.0124(14) 0.0896(6) -0.1132(11)
F4 F -0.1063(8) 0.0837(3) 0.0924(6)
Cl3 Cl -0.1510(6) 0.1854(2) 0.0597(5)
F5 F -0.1018(11) 0.2129(4) -0.1075(10)
Cl4 Cl -0.0053(6) 0.1583(3) -0.2334(5)
F6 F 0.0408(12) 0.0611(4) -0.1648(8)
C13 C 0.2101(9) 0.1304(4) 0.1106(8)
C14 C 0.1702(9) 0.1660(4) 0.1561(8)
C15 C 0.1606(11) 0.2129(4) 0.1317(10)
C16 C 0.1927(12) 0.2257(5) 0.0549(9)
C17 C 0.2341(12) 0.1926(5) 0.0049(9)
C18 C 0.2404(11) 0.1467(4) 0.0347(9)
F7 F 0.1356(8) 0.1537(3) 0.2293(6)
Cl5 Cl 0.1119(6) 0.25424(15) 0.1929(4)
F8 F 0.1894(10) 0.2714(3) 0.0295(7)
Cl6 Cl 0.2715(5) 0.20970(17) -0.0898(3)
F9 F 0.2795(9) 0.1142(3) -0.0147(7)
C19 C 0.2188(11) 0.0035(5) 0.2453(9)
C20 C 0.2752(10) -0.0395(4) 0.2430(8)
C21 C 0.2733(12) -0.0774(5) 0.2992(9)
C22 C 0.2117(14) -0.0731(5) 0.3602(10)
C23 C 0.1558(18) -0.0321(6) 0.3681(11)
C24 C 0.1597(16) 0.0050(5) 0.3099(11)
F10 F 0.3336(9) -0.0447(3) 0.1831(6)
Cl7 Cl 0.3446(5) -0.12837(16) 0.2949(3)
F11 F 0.2090(11) -0.1090(4) 0.4186(7)
Cl8 Cl 0.0787(6) -0.0276(2) 0.4450(4)
F12 F 0.1022(11) 0.0452(4) 0.3161(8)
Tl1B Tl 0.74988(4) -0.00953(2) -0.00919(4)
Tl1B_2 Tl -0.25012(4) -0.00953(2) -0.00919(4)
Au2_2 Au 1.0000 0.0000 0.0000
Au3B Au 0.78189(5) -0.063718(18) -0.16749(4)
C1B C 0.5493(10) -0.0549(5) 0.0944(9)
C2B C 0.4872(11) -0.0960(5) 0.0814(9)
C3B C 0.5156(14) -0.1348(5) 0.1415(11)
C4B C 0.6123(14) -0.1306(6) 0.2184(11)
C5B C 0.6770(16) -0.0905(7) 0.2351(11)
C6B C 0.6460(13) -0.0533(6) 0.1719(10)
F1B F 0.3841(8) -0.1013(3) 0.0010(6)
Cl1B Cl 0.4340(6) -0.18669(16) 0.1198(4)
F2B F 0.6450(12) -0.1708(5) 0.2792(8)
Cl2B Cl 0.8001(5) -0.0876(3) 0.3309(4)
F3B F 0.7152(9) -0.0128(4) 0.1943(7)
C7B C 0.0383(10) -0.0704(5) 0.0378(9)
C8B C 0.0831(9) -0.1008(5) -0.0137(10)
C9B C 0.1037(11) -0.1481(5) 0.0078(12)
C10B C 0.0807(15) -0.1655(7) 0.0844(11)
C11B C 0.0366(14) -0.1367(6) 0.1380(12)
C12B C 0.0124(14) -0.0896(6) 0.1132(11)
F4B F 0.1063(8) -0.0837(3) -0.0924(6)
Cl3B Cl 0.1510(6) -0.1854(2) -0.0597(5)
F5B F 0.1018(11) -0.2129(4) 0.1075(10)
Cl4B Cl 0.0053(6) -0.1583(3) 0.2334(5)
F6B F -0.0408(12) -0.0611(4) 0.1648(8)
C13B C 0.7899(9) -0.1304(4) -0.1106(8)
C14B C 0.8298(9) -0.1660(4) -0.1561(8)
C15B C 0.8394(11) -0.2129(4) -0.1317(10)
C16B C 0.8073(12) -0.2257(5) -0.0549(9)
C17B C 0.7659(12) -0.1926(5) -0.0049(9)
C18B C 0.7596(11) -0.1467(4) -0.0347(9)
F7B F 0.8644(8) -0.1537(3) -0.2293(6)
Cl5B Cl 0.8881(6) -0.25424(15) -0.1929(4)
F8B F 0.8106(10) -0.2714(3) -0.0295(7)
Cl6B Cl 0.7285(5) -0.20970(17) 0.0898(3)
F9B F 0.7205(9) -0.1142(3) 0.0147(7)
C19B C 0.7812(11) -0.0035(5) -0.2453(9)
C20B C 0.7248(10) 0.0395(4) -0.2430(8)
C21B C 0.7267(12) 0.0774(5) -0.2992(9)
C22B C 0.7883(14) 0.0731(5) -0.3602(10)
C23B C 0.8442(18) 0.0321(6) -0.3681(11)
C24B C 0.8403(16) -0.0050(5) -0.3099(11)
F10B F 0.6664(9) 0.0447(3) -0.1831(6)
Cl7B Cl 0.6554(5) 0.12837(16) -0.2949(3)
F11B F 0.7910(11) 0.1090(4) -0.4186(7)
Cl8B Cl 0.9213(6) 0.0276(2) -0.4450(4)
F12B F 0.8978(11) -0.0452(4) -0.3161(8)
N1 N 0.4078(10) -0.1286(5) 0.6873(9)
C25 C 0.2761(12) -0.1329(6) 0.6524(11)
H1 H 0.2572 -0.1667 0.6382
H2 H 0.2475 -0.1155 0.5924
C26 C 0.2056(14) -0.1157(7) 0.7143(13)
H3 H 0.2114 -0.0808 0.7203
H4 H 0.2385 -0.1295 0.7776
C27 C 0.0752(15) -0.1303(8) 0.6721(16)
H5 H 0.0309 -0.1161 0.7098
H6 H 0.0431 -0.1180 0.6074
C28 C 0.064(2) -0.1811(10) 0.672(3)
H7 H 0.0981 -0.1947 0.6271
H8 H -0.0182 -0.1895 0.6529
H9 H 0.1036 -0.1935 0.7343
C29 C 0.4462(13) -0.1517(7) 0.6115(10)
H10 H 0.4053 -0.1360 0.5513
H11 H 0.4214 -0.1853 0.6059
C30 C 0.5763(14) -0.1502(8) 0.6264(12)
H12 H 0.6044 -0.1171 0.6353
H13 H 0.6189 -0.1686 0.6828
C31 C 0.5952(14) -0.1710(7) 0.5421(12)
H14 H 0.5643 -0.2037 0.5331
H15 H 0.5519 -0.1522 0.4865
C32 C 0.7168(16) -0.1720(11) 0.5493(16)
H16 H 0.7461 -0.1395 0.5528
H17 H 0.7253 -0.1879 0.4942
H18 H 0.7607 -0.1894 0.6058
C33 C 0.4380(15) -0.0758(7) 0.6965(13)
H19 H 0.4093 -0.0624 0.7454
H20 H 0.5232 -0.0730 0.7196
C34 C 0.394(2) -0.0461(7) 0.6130(14)
H21 H 0.3091 -0.0441 0.5945
H22 H 0.4143 -0.0607 0.5608
C35 C 0.445(2) 0.0029(8) 0.6308(18)
H23 H 0.4268 0.0167 0.6847
H24 H 0.5297 0.0005 0.6481
C36 C 0.403(3) 0.0341(9) 0.553(2)
H25 H 0.4264 0.0221 0.5010
H26 H 0.4365 0.0657 0.5709
H27 H 0.3191 0.0359 0.5342
C37 C 0.4592(15) -0.1528(8) 0.7813(11)
H28 H 0.4391 -0.1340 0.8291
H29 H 0.5444 -0.1524 0.7979
C38 C 0.421(2) -0.2041(9) 0.7870(13)
H30 H 0.3357 -0.2057 0.7635
H31 H 0.4508 -0.2243 0.7464
C39 C 0.464(2) -0.2224(11) 0.8846(14)
H32 H 0.4414 -0.1996 0.9253
H33 H 0.5493 -0.2230 0.9049
C40 C 0.423(3) -0.2701(11) 0.9008(18)
H34 H 0.3403 -0.2730 0.8667
H35 H 0.4367 -0.2745 0.9679
H36 H 0.4653 -0.2944 0.8787
loop_
_geom_bond_atom_site_label_1
_geom_bond_atom_site_label_2
_geom_bond_site_symmetry_1
_geom_bond_site_symmetry_2
Tl1 Au1 1_555 1_555
Au1 C1 1_555 1_555
Au2 Tl1 1_555 1_555
Au3 Tl1 1_555 1_555
C1 C2 1_555 1_555
C2 C3 1_555 1_555
C3 C4 1_555 1_555
C4 C5 1_555 1_555
C5 C6 1_555 1_555
C6 C1 1_555 1_555
F1 C2 1_555 1_555
Cl1 C3 1_555 1_555
F2 C4 1_555 1_555
Cl2 C5 1_555 1_555
F3 C6 1_555 1_555
C7 Au2 1_555 1_555
C8 C7 1_555 1_555
C9 C8 1_555 1_555
C10 C9 1_555 1_555
C11 C10 1_555 1_555
C12 C7 1_555 1_555
F4 C8 1_555 1_555
Cl3 C9 1_555 1_555
F5 C10 1_555 1_555
Cl4 C11 1_555 1_555
F6 C12 1_555 1_555
C13 Au3 1_555 1_555
C14 C13 1_555 1_555
C15 C14 1_555 1_555
C16 C15 1_555 1_555
C17 C16 1_555 1_555
C18 C13 1_555 1_555
F7 C14 1_555 1_555
Cl5 C15 1_555 1_555
F8 C16 1_555 1_555
Cl6 C17 1_555 1_555
F9 C18 1_555 1_555
C19 Au3 1_555 1_555
C20 C19 1_555 1_555
C21 C20 1_555 1_555
C22 C21 1_555 1_555
C23 C22 1_555 1_555
C24 C19 1_555 1_555
F10 C20 1_555 1_555
Cl7 C21 1_555 1_555
F11 C22 1_555 1_555
Cl8 C23 1_555 1_555
F12 C24 1_555 1_555
N1 C25 1_555 1_555
C25 H1 1_555 1_555
H2 C25 1_555 1_555
C26 C25 1_555 1_555
H3 C26 1_555 1_555
H4 C26 1_555 1_555
C27 C26 1_555 1_555
H5 C27 1_555 1_555
H6 C27 1_555 1_555
C28 C27 1_555 1_555
H7 C28 1_555 1_555
H8 C28 1_555 1_555
H9 C28 1_555 1_555
C29 N1 1_555 1_555
H10 C29 1_555 1_555
H11 C29 1_555 1_555
C30 C29 1_555 1_555
H12 C30 1_555 1_555
H13 C30 1_555 1_555
C31 C30 1_555 1_555
H14 C31 1_555 1_555
H15 C31 1_555 1_555
C32 C31 1_555 1_555
H16 C32 1_555 1_555
H17 C32 1_555 1_555
H18 C32 1_555 1_555
C33 N1 1_555 1_555
H19 C33 1_555 1_555
H20 C33 1_555 1_555
C34 C33 1_555 1_555
H21 C34 1_555 1_555
H22 C34 1_555 1_555
C35 C34 1_555 1_555
H23 C35 1_555 1_555
H24 C35 1_555 1_555
C36 C35 1_555 1_555
H25 C36 1_555 1_555
H26 C36 1_555 1_555
H27 C36 1_555 1_555
C37 N1 1_555 1_555
H28 C37 1_555 1_555
H29 C37 1_555 1_555
C38 C37 1_555 1_555
H30 C38 1_555 1_555
H31 C38 1_555 1_555
C39 C38 1_555 1_555
H32 C39 1_555 1_555
H33 C39 1_555 1_555
C40 C39 1_555 1_555
H34 C40 1_555 1_555
H35 C40 1_555 1_555
H36 C40 1_555 1_555
Tl1B Au1 1_555 1_555
Tl1B_2 Au2 1_555 1_555
Au2_2 Tl1B 1_555 1_555
Au3B Tl1B 1_555 1_555
C1B Au1 1_555 1_555
C2B C1B 1_555 1_555
C3B C2B 1_555 1_555
C4B C3B 1_555 1_555
C5B C4B 1_555 1_555
C6B C1B 1_555 1_555
F1B C2B 1_555 1_555
Cl1B C3B 1_555 1_555
F2B C4B 1_555 1_555
Cl2B C5B 1_555 1_555
F3B C6B 1_555 1_555
C7B Au2 1_555 1_555
C8B C7B 1_555 1_555
C9B C8B 1_555 1_555
C10B C9B 1_555 1_555
C11B C10B 1_555 1_555
C12B C7B 1_555 1_555
F4B C8B 1_555 1_555
Cl3B C9B 1_555 1_555
F5B C10B 1_555 1_555
Cl4B C11B 1_555 1_555
F6B C12B 1_555 1_555
C13B Au3B 1_555 1_555
C14B C13B 1_555 1_555
C15B C14B 1_555 1_555
C16B C15B 1_555 1_555
C17B C16B 1_555 1_555
C18B C13B 1_555 1_555
F7B C14B 1_555 1_555
Cl5B C15B 1_555 1_555
F8B C16B 1_555 1_555
Cl6B C17B 1_555 1_555
F9B C18B 1_555 1_555
C19B Au3B 1_555 1_555
C20B C19B 1_555 1_555
C21B C20B 1_555 1_555
C22B C21B 1_555 1_555
C23B C22B 1_555 1_555
C24B C19B 1_555 1_555
F10B C20B 1_555 1_555
Cl7B C21B 1_555 1_555
F11B C22B 1_555 1_555
Cl8B C23B 1_555 1_555
F12B C24B 1_555 1_555
C11 C12 1_555 1_555
C17 C18 1_555 1_555
C23 C24 1_555 1_555
C5B C6B 1_555 1_555
C11B C12B 1_555 1_555
C17B C18B 1_555 1_555
C23B C24B 1_555 1_555

#END
