
#######################################################################
#
#                 Cambridge Crystallographic Data Centre
#                                CCDC 
#
#######################################################################
#
# If this CIF has been generated from an entry in the Cambridge 
# Structural Database, then it will include bibliographic, chemical, 
# crystal, experimental, refinement or atomic coordinate data resulting 
# from the CCDC's data processing and validation procedures.
#
#######################################################################

data_KAKGIN
_symmetry_cell_setting           monoclinic
_symmetry_space_group_name_H-M   'P 21/n'
_symmetry_Int_Tables_number      14
_space_group_name_Hall           '-P 2yn'
loop_
_symmetry_equiv_pos_site_id
_symmetry_equiv_pos_as_xyz
1 x,y,z
2 1/2-x,1/2+y,1/2-z
3 -x,-y,-z
4 1/2+x,1/2-y,1/2+z
_cell_length_a                   12.0920(1)
_cell_length_b                   28.5736(3)
_cell_length_c                   15.4221(2)
_cell_angle_alpha                90
_cell_angle_beta                 107.365(1)
_cell_angle_gamma                90
_cell_volume                     5085.66
loop_
_atom_site_label
_atom_site_type_symbol
_atom_site_fract_x
_atom_site_fract_y
_atom_site_fract_z
Tl1 Tl 0.24588(2) 0.010313(9) 0.480333(16)
Au1 Au 0.0000 0.0000 0.5000
Au2 Au 0.5000 0.0000 0.5000
Au3 Au 0.27818(2) 0.064080(8) 0.320155(16)
C1 C 0.0467(5) 0.05453(19) 0.5895(4)
C2 C 0.1388(5) 0.0540(2) 0.6693(4)
C3 C 0.1709(5) 0.0913(2) 0.7288(4)
C4 C 0.1068(5) 0.1326(2) 0.7090(4)
C5 C 0.0142(5) 0.1357(2) 0.6309(4)
C6 C -0.0109(5) 0.0975(2) 0.5736(4)
Cl1 Cl 0.21780(16) 0.00185(6) 0.69792(12)
Cl2 Cl 0.28753(17) 0.08784(8) 0.82576(12)
Cl3 Cl 0.14230(19) 0.17971(7) 0.78129(13)
Cl4 Cl -0.06590(17) 0.18630(6) 0.60682(13)
Cl5 Cl -0.12814(16) 0.10218(6) 0.47495(13)
C7 C 0.5312(5) 0.0694(2) 0.5293(4)
C8 C 0.5742(4) 0.1001(2) 0.4759(4)
C9 C 0.5991(5) 0.1468(2) 0.4965(5)
C10 C 0.5832(6) 0.1649(2) 0.5754(5)
C11 C 0.5393(6) 0.1364(2) 0.6305(5)
C12 C 0.5127(5) 0.0902(2) 0.6056(4)
Cl6 Cl 0.59055(17) 0.07820(7) 0.37557(13)
Cl7 Cl 0.64363(17) 0.18337(7) 0.42496(16)
Cl8 Cl 0.6171(2) 0.22180(8) 0.6050(2)
Cl9 Cl 0.5190(2) 0.15882(8) 0.72876(17)
Cl10 Cl 0.44862(18) 0.05695(7) 0.67092(13)
C13 C 0.2764(5) 0.0046(2) 0.2464(4)
C14 C 0.2201(5) -0.0374(2) 0.2504(4)
C15 C 0.2225(6) -0.0769(2) 0.1987(4)
C16 C 0.2850(7) -0.0748(2) 0.1374(5)
C17 C 0.3447(6) -0.0341(2) 0.1295(4)
C18 C 0.3382(6) 0.0040(2) 0.1832(4)
F1 F 0.1539(4) -0.04143(13) 0.3111(2)
Cl11 Cl 0.1482(2) -0.12687(7) 0.20702(15)
F2 F 0.2897(5) -0.11275(18) 0.0847(3)
Cl12 Cl 0.4253(2) -0.03240(9) 0.05375(14)
F3 F 0.3984(4) 0.04396(15) 0.1720(3)
C19 C 0.2897(5) 0.1295(2) 0.3773(4)
C20 C 0.3298(5) 0.1653(2) 0.3341(4)
C21 C 0.3417(5) 0.2114(2) 0.3615(4)
C22 C 0.3130(6) 0.2231(2) 0.4387(4)
C23 C 0.2735(6) 0.1894(2) 0.4863(4)
C24 C 0.2623(5) 0.1443(2) 0.4540(4)
F4 F 0.3626(3) 0.15470(13) 0.2583(3)
Cl13 Cl 0.39168(19) 0.25373(6) 0.30237(15)
F5 F 0.3214(4) 0.26813(15) 0.4672(3)
Cl14 Cl 0.2379(2) 0.20487(7) 0.58325(14)
F6 F 0.2188(4) 0.11201(13) 0.5019(3)
Tl1B Tl -0.24588(2) -0.010313(9) 0.519667(16)
Tl1B_2 Tl 0.75412(2) -0.010313(9) 0.519667(16)
Au2_2 Au -0.5000 0.0000 0.5000
Au3B Au -0.27818(2) -0.064080(8) 0.679845(16)
C1B C -0.0467(5) -0.05453(19) 0.4105(4)
C2B C -0.1388(5) -0.0540(2) 0.3307(4)
C3B C -0.1709(5) -0.0913(2) 0.2712(4)
C4B C -0.1068(5) -0.1326(2) 0.2910(4)
C5B C -0.0142(5) -0.1357(2) 0.3691(4)
C6B C 0.0109(5) -0.0975(2) 0.4264(4)
Cl1B Cl -0.21780(16) -0.00185(6) 0.30208(12)
Cl2B Cl -0.28753(17) -0.08784(8) 0.17424(12)
Cl3B Cl -0.14230(19) -0.17971(7) 0.21871(13)
Cl4B Cl 0.06590(17) -0.18630(6) 0.39318(13)
Cl5B Cl 0.12814(16) -0.10218(6) 0.52505(13)
C7B C 0.4688(5) -0.0694(2) 0.4707(4)
C8B C 0.4258(4) -0.1001(2) 0.5241(4)
C9B C 0.4009(5) -0.1468(2) 0.5035(5)
C10B C 0.4168(6) -0.1649(2) 0.4246(5)
C11B C 0.4607(6) -0.1364(2) 0.3695(5)
C12B C 0.4873(5) -0.0902(2) 0.3944(4)
Cl6B Cl 0.40945(17) -0.07820(7) 0.62443(13)
Cl7B Cl 0.35637(17) -0.18337(7) 0.57504(16)
Cl8B Cl 0.3829(2) -0.22180(8) 0.3950(2)
Cl9B Cl 0.4810(2) -0.15882(8) 0.27124(17)
Cl10B Cl 0.55138(18) -0.05695(7) 0.32908(13)
C13B C -0.2764(5) -0.0046(2) 0.7536(4)
C14B C -0.2201(5) 0.0374(2) 0.7496(4)
C15B C -0.2225(6) 0.0769(2) 0.8013(4)
C16B C -0.2850(7) 0.0748(2) 0.8626(5)
C17B C -0.3447(6) 0.0341(2) 0.8705(4)
C18B C -0.3382(6) -0.0040(2) 0.8168(4)
F1B F -0.1539(4) 0.04143(13) 0.6889(2)
Cl11B Cl -0.1482(2) 0.12687(7) 0.79298(15)
F2B F -0.2897(5) 0.11275(18) 0.9153(3)
Cl12B Cl -0.4253(2) 0.03240(9) 0.94625(14)
F3B F -0.3984(4) -0.04396(15) 0.8280(3)
C19B C -0.2897(5) -0.1295(2) 0.6227(4)
C20B C -0.3298(5) -0.1653(2) 0.6659(4)
C21B C -0.3417(5) -0.2114(2) 0.6385(4)
C22B C -0.3130(6) -0.2231(2) 0.5613(4)
C23B C -0.2735(6) -0.1894(2) 0.5137(4)
C24B C -0.2623(5) -0.1443(2) 0.5460(4)
F4B F -0.3626(3) -0.15470(13) 0.7417(3)
Cl13B Cl -0.39168(19) -0.25373(6) 0.69763(15)
F5B F -0.3214(4) -0.26813(15) 0.5328(3)
Cl14B Cl -0.2379(2) -0.20487(7) 0.41675(14)
F6B F -0.2188(4) -0.11201(13) 0.4981(3)
N1 N 0.9133(5) 0.1331(2) 0.1734(4)
C25 C 0.7834(6) 0.1417(3) 0.1387(5)
H1 H 0.7532 0.1268 0.0783
H2 H 0.7704 0.1759 0.1301
C26 C 0.7128(6) 0.1241(3) 0.1988(6)
H3 H 0.7450 0.1369 0.2608
H4 H 0.7176 0.0895 0.2028
C27 C 0.5855(6) 0.1391(3) 0.1595(6)
H5 H 0.5560 0.1284 0.0956
H6 H 0.5389 0.1236 0.1942
C28 C 0.5696(7) 0.1913(3) 0.1626(7)
H7 H 0.6016 0.2023 0.2253
H8 H 0.4869 0.1989 0.1405
H9 H 0.6101 0.2067 0.1241
C29 C 0.9401(7) 0.0812(3) 0.1859(5)
H10 H 1.0253 0.0772 0.2067
H11 H 0.9098 0.0694 0.2348
C30 C 0.8911(7) 0.0512(3) 0.1023(5)
H12 H 0.9135 0.0644 0.0506
H13 H 0.8055 0.0508 0.0858
C31 C 0.9377(9) 0.0012(3) 0.1214(7)
H14 H 1.0228 0.0017 0.1337
H15 H 0.9212 -0.0105 0.1767
C32 C 0.8851(10) -0.0322(3) 0.0433(8)
H16 H 0.8006 -0.0322 0.0295
H17 H 0.9147 -0.0639 0.0604
H18 H 0.9062 -0.0221 -0.0105
C33 C 0.9608(6) 0.1544(3) 0.1010(5)
H19 H 0.9190 0.1401 0.0418
H20 H 0.9420 0.1882 0.0966
C34 C 1.0898(6) 0.1493(3) 0.1147(5)
H21 H 1.1137 0.1164 0.1303
H22 H 1.1336 0.1695 0.1654
C35 C 1.1167(6) 0.1632(3) 0.0274(5)
H23 H 1.0786 0.1409 -0.0215
H24 H 1.0843 0.1947 0.0084
C36 C 1.2458(7) 0.1638(5) 0.0396(6)
H25 H 1.2838 0.1861 0.0875
H26 H 1.2594 0.1731 -0.0175
H27 H 1.2778 0.1324 0.0567
C37 C 0.9665(7) 0.1559(3) 0.2653(5)
H28 H 0.9403 0.1383 0.3109
H29 H 1.0517 0.1523 0.2815
C38 C 0.9399(9) 0.2071(3) 0.2737(6)
H30 H 0.9790 0.2260 0.2375
H31 H 0.8554 0.2122 0.2484
C39 C 0.9786(10) 0.2232(4) 0.3692(6)
H32 H 0.9506 0.2001 0.4055
H33 H 1.0643 0.2216 0.3898
C40 C 0.9463(12) 0.2690(4) 0.3930(7)
H34 H 0.9129 0.2873 0.3376
H35 H 1.0151 0.2851 0.4315
H36 H 0.8890 0.2657 0.4261
loop_
_geom_bond_atom_site_label_1
_geom_bond_atom_site_label_2
_geom_bond_site_symmetry_1
_geom_bond_site_symmetry_2
Tl1 Au1 1_555 1_555
Au1 C1 1_555 1_555
Au2 Tl1 1_555 1_555
Au3 Tl1 1_555 1_555
C1 C2 1_555 1_555
C2 C3 1_555 1_555
C3 C4 1_555 1_555
C4 C5 1_555 1_555
C5 C6 1_555 1_555
C6 C1 1_555 1_555
Cl1 C2 1_555 1_555
Cl2 C3 1_555 1_555
Cl3 C4 1_555 1_555
Cl4 C5 1_555 1_555
Cl5 C6 1_555 1_555
C7 Au2 1_555 1_555
C8 C7 1_555 1_555
C9 C8 1_555 1_555
C10 C9 1_555 1_555
C11 C10 1_555 1_555
C12 C7 1_555 1_555
Cl6 C8 1_555 1_555
Cl7 C9 1_555 1_555
Cl8 C10 1_555 1_555
Cl9 C11 1_555 1_555
Cl10 C12 1_555 1_555
C13 Au3 1_555 1_555
C14 C13 1_555 1_555
C15 C14 1_555 1_555
C16 C15 1_555 1_555
C17 C16 1_555 1_555
C18 C13 1_555 1_555
F1 C14 1_555 1_555
Cl11 C15 1_555 1_555
F2 C16 1_555 1_555
Cl12 C17 1_555 1_555
F3 C18 1_555 1_555
C19 Au3 1_555 1_555
C20 C19 1_555 1_555
C21 C20 1_555 1_555
C22 C21 1_555 1_555
C23 C22 1_555 1_555
C24 C19 1_555 1_555
F4 C20 1_555 1_555
Cl13 C21 1_555 1_555
F5 C22 1_555 1_555
Cl14 C23 1_555 1_555
F6 C24 1_555 1_555
N1 C25 1_555 1_555
C25 H1 1_555 1_555
H2 C25 1_555 1_555
C26 C25 1_555 1_555
H3 C26 1_555 1_555
H4 C26 1_555 1_555
C27 C26 1_555 1_555
H5 C27 1_555 1_555
H6 C27 1_555 1_555
C28 C27 1_555 1_555
H7 C28 1_555 1_555
H8 C28 1_555 1_555
H9 C28 1_555 1_555
C29 N1 1_555 1_555
H10 C29 1_555 1_555
H11 C29 1_555 1_555
C30 C29 1_555 1_555
H12 C30 1_555 1_555
H13 C30 1_555 1_555
C31 C30 1_555 1_555
H14 C31 1_555 1_555
H15 C31 1_555 1_555
C32 C31 1_555 1_555
H16 C32 1_555 1_555
H17 C32 1_555 1_555
H18 C32 1_555 1_555
C33 N1 1_555 1_555
H19 C33 1_555 1_555
H20 C33 1_555 1_555
C34 C33 1_555 1_555
H21 C34 1_555 1_555
H22 C34 1_555 1_555
C35 C34 1_555 1_555
H23 C35 1_555 1_555
H24 C35 1_555 1_555
C36 C35 1_555 1_555
H25 C36 1_555 1_555
H26 C36 1_555 1_555
H27 C36 1_555 1_555
C37 N1 1_555 1_555
H28 C37 1_555 1_555
H29 C37 1_555 1_555
C38 C37 1_555 1_555
H30 C38 1_555 1_555
H31 C38 1_555 1_555
C39 C38 1_555 1_555
H32 C39 1_555 1_555
H33 C39 1_555 1_555
C40 C39 1_555 1_555
H34 C40 1_555 1_555
H35 C40 1_555 1_555
H36 C40 1_555 1_555
Tl1B Au1 1_555 1_555
Tl1B_2 Au2 1_555 1_555
Au2_2 Tl1B 1_555 1_555
Au3B Tl1B 1_555 1_555
C1B Au1 1_555 1_555
C2B C1B 1_555 1_555
C3B C2B 1_555 1_555
C4B C3B 1_555 1_555
C5B C4B 1_555 1_555
C6B C1B 1_555 1_555
Cl1B C2B 1_555 1_555
Cl2B C3B 1_555 1_555
Cl3B C4B 1_555 1_555
Cl4B C5B 1_555 1_555
Cl5B C6B 1_555 1_555
C7B Au2 1_555 1_555
C8B C7B 1_555 1_555
C9B C8B 1_555 1_555
C10B C9B 1_555 1_555
C11B C10B 1_555 1_555
C12B C7B 1_555 1_555
Cl6B C8B 1_555 1_555
Cl7B C9B 1_555 1_555
Cl8B C10B 1_555 1_555
Cl9B C11B 1_555 1_555
Cl10B C12B 1_555 1_555
C13B Au3B 1_555 1_555
C14B C13B 1_555 1_555
C15B C14B 1_555 1_555
C16B C15B 1_555 1_555
C17B C16B 1_555 1_555
C18B C13B 1_555 1_555
F1B C14B 1_555 1_555
Cl11B C15B 1_555 1_555
F2B C16B 1_555 1_555
Cl12B C17B 1_555 1_555
F3B C18B 1_555 1_555
C19B Au3B 1_555 1_555
C20B C19B 1_555 1_555
C21B C20B 1_555 1_555
C22B C21B 1_555 1_555
C23B C22B 1_555 1_555
C24B C19B 1_555 1_555
F4B C20B 1_555 1_555
Cl13B C21B 1_555 1_555
F5B C22B 1_555 1_555
Cl14B C23B 1_555 1_555
F6B C24B 1_555 1_555
C11 C12 1_555 1_555
C17 C18 1_555 1_555
C23 C24 1_555 1_555
C5B C6B 1_555 1_555
C11B C12B 1_555 1_555
C17B C18B 1_555 1_555
C23B C24B 1_555 1_555

#END
