
#######################################################################
#
#                 Cambridge Crystallographic Data Centre
#                                CCDC 
#
#######################################################################
#
# If this CIF has been generated from an entry in the Cambridge 
# Structural Database, then it will include bibliographic, chemical, 
# crystal, experimental, refinement or atomic coordinate data resulting 
# from the CCDC's data processing and validation procedures.
#
#######################################################################

data_KAKNEQ
_symmetry_cell_setting           monoclinic
_symmetry_space_group_name_H-M   'C 2/c'
_symmetry_Int_Tables_number      15
_space_group_name_Hall           '-C 2yn'
loop_
_symmetry_equiv_pos_site_id
_symmetry_equiv_pos_as_xyz
1 x,y,z
2 1/2+x,1/2+y,z
3 -x,y,1/2-z
4 1/2-x,1/2+y,1/2-z
5 -x,-y,-z
6 1/2-x,1/2-y,-z
7 x,-y,1/2+z
8 1/2+x,1/2-y,1/2+z
_cell_length_a                   26.299(7)
_cell_length_b                   9.998(3)
_cell_length_c                   18.376(5)
_cell_angle_alpha                90
_cell_angle_beta                 123.555(3)
_cell_angle_gamma                90
_cell_volume                     4026.56
loop_
_atom_site_label
_atom_site_type_symbol
_atom_site_fract_x
_atom_site_fract_y
_atom_site_fract_z
Zn1 Zn 0.09733(3) 0.70112(7) 0.37314(4)
Zn2 Zn 0.2500 0.7500 0.5000
O1 O 0.11969(17) 0.8073(4) 0.2974(2)
O2 O 0.22175(17) 0.8234(4) 0.3738(2)
O3 O 0.10361(18) 1.2579(4) -0.0049(2)
O4 O 0.17838(18) 1.1450(4) 0.0023(2)
O5 O 0.18101(15) 0.5837(4) 0.4392(2)
O6 O 0.15899(19) 0.4791(4) 0.3179(2)
O7 O 0.02477(17) 0.8415(4) 0.3233(3)
O8 O 0.04078(18) 1.5336(4) 0.3190(3)
C1 C 0.1693(2) 0.8470(5) 0.3089(3)
C2 C 0.1632(2) 0.9301(6) 0.2361(3)
C3 C 0.2124(2) 0.9481(7) 0.2292(4)
C4 C 0.2067(3) 1.0258(7) 0.1618(4)
C5 C 0.1517(2) 1.0875(6) 0.1026(3)
C6 C 0.1016(3) 1.0666(8) 0.1079(5)
C7 C 0.1076(3) 0.9871(8) 0.1752(4)
C8 C 0.1442(2) 1.1694(6) 0.0284(3)
C9 C 0.1842(2) 0.4829(5) 0.3984(3)
C10 C 0.2186(2) 0.3634(5) 0.4512(3)
C11 C 0.2218(3) 0.2500(6) 0.4097(4)
C12 C 0.2476(2) 0.3634(6) 0.5420(3)
C13 C 0.0000 0.8983(7) 0.2500
C14 C 0.0000 1.0471(7) 0.2500
C15 C 0.0521(2) 1.1180(5) 0.3131(3)
C16 C 0.0523(2) 1.2558(5) 0.3114(3)
C17 C 0.0000 1.3265(7) 0.2500
C18 C 0.0000 1.4764(7) 0.2500
Zn1E Zn 0.40267(3) 0.79888(7) 0.62686(4)
Zn1F Zn 0.09733(3) 1.29888(7) -0.12686(4)
Zn1_2 Zn 0.09733(3) 1.70112(7) 0.37314(4)
Zn1E_2 Zn 0.40267(3) -0.20112(7) 0.62686(4)
Zn1B Zn -0.09733(3) 0.70112(7) 0.12686(4)
Zn1B_2 Zn -0.09733(3) 1.70112(7) 0.12686(4)
Zn1C Zn 0.40267(3) 0.20112(7) 1.12686(4)
Zn2F Zn 0.2500 1.2500 0.0000
Zn2_2 Zn 0.2500 -0.2500 0.5000
Zn2F_2 Zn 0.2500 0.2500 1.0000
O1E O 0.38031(17) 0.6927(4) 0.7026(2)
O2E O 0.27825(17) 0.6766(4) 0.6262(2)
O3E O 0.39639(18) 0.2421(4) 1.0049(2)
O3F O 0.10361(18) 0.7421(4) 0.4951(2)
O3C O 0.39639(18) 0.7579(4) 0.5049(2)
O4E O 0.32162(18) 0.3550(4) 0.9977(2)
O4F O 0.17838(18) 0.8550(4) 0.5023(2)
O4C O 0.32162(18) 0.6450(4) 0.4977(2)
O5E O 0.31899(15) -0.0837(4) 0.5608(2)
O5E_2 O 0.31899(15) 0.9163(4) 0.5608(2)
O6E O 0.34101(19) 0.0209(4) 0.6821(2)
O7B O -0.02477(17) 0.8415(4) 0.1767(3)
O7E O 0.47523(17) 0.6585(4) 0.6767(3)
O8B O -0.04078(18) 1.5336(4) 0.1810(3)
O8_2 O 0.04078(18) 0.5336(4) 0.3190(3)
O8E O 0.45922(18) 0.9664(4) 0.6810(3)
C1E C 0.3307(2) 0.6530(5) 0.6911(3)
C2E C 0.3368(2) 0.5699(6) 0.7639(3)
C3E C 0.2876(2) 0.5519(7) 0.7708(4)
C4E C 0.2933(3) 0.4742(7) 0.8382(4)
C5E C 0.3483(2) 0.4125(6) 0.8974(3)
C6E C 0.3984(3) 0.4334(8) 0.8921(5)
C7E C 0.3924(3) 0.5129(8) 0.8248(4)
C8E C 0.3558(2) 0.3306(6) 0.9716(3)
C9E C 0.3158(2) 0.0171(5) 0.6016(3)
C10E C 0.2814(2) 0.1366(5) 0.5488(3)
C11E C 0.2782(3) 0.2500(6) 0.5903(4)
C12E C 0.2524(2) 0.1366(6) 0.4580(3)
C15B C -0.0521(2) 1.1180(5) 0.1869(3)
C16B C -0.0523(2) 1.2558(5) 0.1886(3)
N1 N 0.8957(3) 0.5953(7) 0.3444(3)
N2 N 0.9635(4) 0.6887(11) 0.5165(5)
C19 C 0.9485(3) 0.6483(7) 0.3755(4)
C20 C 0.9828(3) 0.6921(7) 0.4559(4)
C21 C 0.8958(5) 0.6808(17) 0.4669(6)
C22 C 0.8676(4) 0.5860(11) 0.3946(5)
loop_
_geom_bond_atom_site_label_1
_geom_bond_atom_site_label_2
_geom_bond_site_symmetry_1
_geom_bond_site_symmetry_2
Zn1 O1 1_555 1_555
Zn2 O2 1_555 1_555
O1 C1 1_555 1_555
O2 C1 1_555 1_555
O3 C8 1_555 1_555
O4 C8 1_555 1_555
O5 Zn1 1_555 1_555
O6 C9 1_555 1_555
O7 Zn1 1_555 1_555
O8 C18 1_555 1_555
C1 C2 1_555 1_555
C2 C3 1_555 1_555
C3 C4 1_555 1_555
C4 C5 1_555 1_555
C5 C6 1_555 1_555
C6 C7 1_555 1_555
C7 C2 1_555 1_555
C8 C5 1_555 1_555
C9 O5 1_555 1_555
C10 C9 1_555 1_555
C11 C10 1_555 1_555
C12 C10 1_555 1_555
C13 O7 1_555 1_555
C14 C13 1_555 1_555
C15 C14 1_555 1_555
C16 C15 1_555 1_555
C17 C16 1_555 1_555
C18 C17 1_555 1_555
N1 C19 1_555 1_555
N2 C20 1_555 1_555
C19 C20 1_555 1_555
C21 N2 1_555 1_555
C22 N1 1_555 1_555
Zn1E O1E 1_555 1_555
Zn1F O3 1_555 1_555
Zn1_2 O8 1_555 1_555
Zn1E_2 O5E 1_555 1_555
Zn1B O7B 1_555 1_555
Zn1B_2 O8B 1_555 1_555
Zn1C O3E 1_555 1_555
Zn2F O4 1_555 1_555
Zn2_2 O5E 1_555 1_555
Zn2F_2 O4E 1_555 1_555
O1E C1E 1_555 1_555
O2E Zn2 1_555 1_555
O3E C8E 1_555 1_555
O3F Zn1 1_555 1_555
O3C Zn1E 1_555 1_555
O4E C8E 1_555 1_555
O4F Zn2 1_555 1_555
O4C Zn2 1_555 1_555
O5E C9E 1_555 1_555
O5E_2 Zn2 1_555 1_555
O6E C9E 1_555 1_555
O7B C13 1_555 1_555
O7E Zn1E 1_555 1_555
O8B C18 1_555 1_555
O8_2 Zn1 1_555 1_555
O8E Zn1E 1_555 1_555
C1E O2E 1_555 1_555
C2E C1E 1_555 1_555
C3E C2E 1_555 1_555
C4E C3E 1_555 1_555
C5E C4E 1_555 1_555
C6E C5E 1_555 1_555
C7E C2E 1_555 1_555
C8E C5E 1_555 1_555
C9E C10E 1_555 1_555
C10E C11E 1_555 1_555
C11E C12 1_555 1_555
C12E C11 1_555 1_555
C15B C14 1_555 1_555
C16B C17 1_555 1_555
Zn2 O5 1_555 1_555
C21 C22 1_555 1_555
Zn1E O5E_2 1_555 1_555
C6E C7E 1_555 1_555
C10E C12E 1_555 1_555
C15B C16B 1_555 1_555

#END
