
#######################################################################
#
#                 Cambridge Crystallographic Data Centre
#                                CCDC 
#
#######################################################################
#
# If this CIF has been generated from an entry in the Cambridge 
# Structural Database, then it will include bibliographic, chemical, 
# crystal, experimental, refinement or atomic coordinate data resulting 
# from the CCDC's data processing and validation procedures.
#
#######################################################################

data_KAKNOA
_symmetry_cell_setting           triclinic
_symmetry_space_group_name_H-M   'P -1'
_symmetry_Int_Tables_number      2
_space_group_name_Hall           '-P 1'
loop_
_symmetry_equiv_pos_site_id
_symmetry_equiv_pos_as_xyz
1 x,y,z
2 -x,-y,-z
_cell_length_a                   8.102(3)
_cell_length_b                   9.979(4)
_cell_length_c                   12.705(5)
_cell_angle_alpha                86.282(6)
_cell_angle_beta                 73.517(5)
_cell_angle_gamma                89.107(6)
_cell_volume                     982.906
loop_
_atom_site_label
_atom_site_type_symbol
_atom_site_fract_x
_atom_site_fract_y
_atom_site_fract_z
Cu1 Cu -0.10679(10) 0.06997(8) 0.95501(7)
O1 O -0.2150(6) -0.1006(5) 0.9466(4)
O2 O -0.0322(6) -0.2176(5) 1.0175(4)
O3 O 0.0816(6) 0.0345(5) 0.8218(4)
O4 O 0.2636(6) -0.0791(5) 0.8944(4)
O5 O -0.1162(7) 0.5174(6) 0.7005(5)
N1 N -0.2282(7) 0.1996(6) 0.8582(4)
C1 C -0.5193(8) -0.4418(7) 0.9725(5)
C2 C -0.4096(9) -0.3298(8) 0.9549(6)
C3 C -0.2672(8) -0.3319(7) 0.9909(6)
C4 C -0.2255(9) -0.4501(7) 1.0450(6)
C5 C -0.6704(9) -0.4399(7) 0.9366(6)
C6 C -0.1619(9) -0.2070(7) 0.9828(6)
C7 C 0.4159(9) 0.0208(7) 0.5052(6)
C8 C 0.2991(10) 0.0152(8) 0.6130(6)
C9 C 0.3450(9) -0.0291(7) 0.7034(5)
C10 C 0.5140(9) -0.0742(8) 0.6902(6)
C11 C 0.3678(10) 0.0683(8) 0.4106(6)
C12 C 0.2188(9) -0.0249(7) 0.8157(6)
C13 C -0.3796(10) 0.1762(9) 0.8387(6)
C14 C -0.4501(10) 0.2601(9) 0.7751(7)
C15 C -0.3592(12) 0.3736(11) 0.7268(8)
C16 C -0.2045(10) 0.3995(8) 0.7440(6)
C17 C -0.1471(9) 0.3105(8) 0.8117(6)
C18 C 0.0567(11) 0.5073(8) 0.6464(7)
C19 C 0.1608(14) 0.6134(12) 0.6444(11)
C20 C 0.3323(15) 0.6100(13) 0.5879(11)
C21 C 0.4065(10) 0.5008(9) 0.5307(7)
C22 C 0.2963(15) 0.3991(11) 0.5333(9)
C23 C 0.1246(14) 0.3998(11) 0.5909(9)
H1 H -0.431(7) -0.264(6) 0.914(5)
H2 H -0.130(9) -0.454(7) 1.074(5)
H3 H -0.696(6) -0.359(5) 0.907(4)
H4 H 0.206(9) 0.035(7) 0.619(6)
H5 H 0.539(7) -0.103(6) 0.752(5)
H6 H 0.246(9) 0.093(7) 0.420(6)
H7 H -0.427(7) 0.103(6) 0.866(4)
H8 H -0.569(9) 0.227(7) 0.770(6)
H9 H -0.405(9) 0.427(7) 0.700(6)
H10 H -0.053(8) 0.333(6) 0.820(5)
H11 H 0.093(12) 0.684(10) 0.682(8)
H12 H 0.401(15) 0.666(12) 0.590(10)
H13 H 0.352(11) 0.332(9) 0.512(7)
H14 H 0.068(10) 0.342(8) 0.573(7)
Cu1A Cu -0.89321(10) -1.06997(8) 1.04499(7)
Cu1A_2 Cu 0.10679(10) -0.06997(8) 1.04499(7)
Cu1_2 Cu -1.10679(10) -0.93003(8) 0.95501(7)
Cu1A_3 Cu 1.10679(10) -0.06997(8) 0.04499(7)
Cu1_3 Cu 0.89321(10) 0.06997(8) -0.04499(7)
Cu1A_4 Cu 1.10679(10) 0.93003(8) 0.04499(7)
O1A O -0.7850(6) -0.8994(5) 1.0534(4)
O2A O -0.9678(6) -0.7824(5) 0.9825(4)
O2A_2 O 0.0322(6) 0.2176(5) 0.9825(4)
O2_2 O -1.0322(6) -1.2176(5) 1.0175(4)
O3A O 0.9184(6) -0.0345(5) 0.1782(4)
O3A_2 O -1.0816(6) -1.0345(5) 1.1782(4)
O4A O 0.7364(6) 0.0791(5) 0.1056(4)
O4A_2 O -0.2636(6) 0.0791(5) 1.1056(4)
O4_2 O -0.7364(6) -1.0791(5) 0.8944(4)
O5A O 1.1162(7) 0.4826(6) 0.2995(5)
N1A N 1.2282(7) 0.8004(6) 0.1418(4)
N1A_2 N -0.7718(7) -1.1996(6) 1.1418(4)
C1A C -0.4807(8) -0.5582(7) 1.0275(5)
C2A C -0.5904(9) -0.6702(8) 1.0451(6)
C3A C -0.7328(8) -0.6681(7) 1.0091(6)
C4A C -0.7745(9) -0.5499(7) 0.9550(6)
C5A C -0.3296(9) -0.5601(7) 1.0634(6)
C6A C -0.8381(9) -0.7930(7) 1.0172(6)
C7A C 0.5841(9) -0.0208(7) 0.4948(6)
C8A C 0.7009(10) -0.0152(8) 0.3870(6)
C9A C 0.6550(9) 0.0291(7) 0.2966(5)
C10A C 0.4860(9) 0.0742(8) 0.3098(6)
C11A C 0.6322(10) -0.0683(8) 0.5894(6)
C12A C 0.7812(9) 0.0249(7) 0.1843(6)
C13A C 1.3796(10) 0.8238(9) 0.1613(6)
C14A C 1.4501(10) 0.7399(9) 0.2249(7)
C15A C 1.3592(12) 0.6264(11) 0.2732(8)
C16A C 1.2045(10) 0.6005(8) 0.2560(6)
C17A C 1.1471(9) 0.6895(8) 0.1883(6)
C18A C 0.9433(11) 0.4927(8) 0.3536(7)
C19A C 0.8392(14) 0.3866(12) 0.3556(11)
C20A C 0.6677(15) 0.3900(13) 0.4121(11)
C21A C 0.5935(10) 0.4992(9) 0.4693(7)
C22A C 0.7037(15) 0.6009(11) 0.4667(9)
C23A C 0.8754(14) 0.6002(11) 0.4091(9)
H1A H -0.569(7) -0.736(6) 1.086(5)
H2A H -0.870(9) -0.546(7) 0.926(5)
H3A H -0.304(6) -0.641(5) 1.093(4)
H4A H 0.794(9) -0.035(7) 0.381(6)
H5A H 0.461(7) 0.103(6) 0.248(5)
H6A H 0.754(9) -0.093(7) 0.580(6)
H7A H 1.427(7) 0.897(6) 0.134(4)
H8A H 1.569(9) 0.773(7) 0.230(6)
H9A H 1.405(9) 0.573(7) 0.300(6)
H10A H 1.053(8) 0.667(6) 0.180(5)
H11A H 0.907(12) 0.316(10) 0.318(8)
H12A H 0.599(15) 0.334(12) 0.410(10)
H13A H 0.648(11) 0.668(9) 0.488(7)
H14A H 0.932(10) 0.658(8) 0.427(7)
loop_
_geom_bond_atom_site_label_1
_geom_bond_atom_site_label_2
_geom_bond_site_symmetry_1
_geom_bond_site_symmetry_2
Cu1 O1 1_555 1_555
O1 C6 1_555 1_555
O2 C6 1_555 1_555
O3 Cu1 1_555 1_555
O4 C12 1_555 1_555
O5 C16 1_555 1_555
N1 Cu1 1_555 1_555
C1 C2 1_555 1_555
C2 C3 1_555 1_555
C3 C4 1_555 1_555
C4 H2 1_555 1_555
C5 C1 1_555 1_555
C6 C3 1_555 1_555
C7 C8 1_555 1_555
C8 C9 1_555 1_555
C9 C10 1_555 1_555
C10 H5 1_555 1_555
C11 C7 1_555 1_555
C12 O3 1_555 1_555
C13 N1 1_555 1_555
C14 C13 1_555 1_555
C15 C14 1_555 1_555
C16 C15 1_555 1_555
C17 N1 1_555 1_555
C18 O5 1_555 1_555
C19 C18 1_555 1_555
C20 C19 1_555 1_555
C21 C20 1_555 1_555
C22 C21 1_555 1_555
C23 C18 1_555 1_555
H1 C2 1_555 1_555
H3 C5 1_555 1_555
H4 C8 1_555 1_555
H6 C11 1_555 1_555
H7 C13 1_555 1_555
H8 C14 1_555 1_555
H9 C15 1_555 1_555
H10 C17 1_555 1_555
H11 C19 1_555 1_555
H12 C20 1_555 1_555
H13 C22 1_555 1_555
H14 C23 1_555 1_555
Cu1A Cu1_2 1_555 1_555
Cu1A_2 Cu1 1_555 1_555
Cu1_2 O2A 1_555 1_555
Cu1A_3 Cu1_3 1_555 1_555
Cu1_3 O4A 1_555 1_555
Cu1A_4 N1A 1_555 1_555
O1A Cu1A 1_555 1_555
O2A C6A 1_555 1_555
O2A_2 Cu1 1_555 1_555
O2_2 Cu1A 1_555 1_555
O3A Cu1A_3 1_555 1_555
O3A_2 Cu1A 1_555 1_555
O4A C12A 1_555 1_555
O4A_2 Cu1 1_555 1_555
O4_2 Cu1A 1_555 1_555
O5A C16A 1_555 1_555
N1A C13A 1_555 1_555
N1A_2 Cu1A 1_555 1_555
C1A C1 1_555 1_555
C2A C1A 1_555 1_555
C3A C2A 1_555 1_555
C4A C5 1_555 1_555
C5A C4 1_555 1_555
C6A O1A 1_555 1_555
C7A C7 1_555 1_555
C8A C7A 1_555 1_555
C9A C8A 1_555 1_555
C10A C11 1_555 1_555
C11A C10 1_555 1_555
C12A O3A 1_555 1_555
C13A C14A 1_555 1_555
C14A C15A 1_555 1_555
C15A C16A 1_555 1_555
C16A C17A 1_555 1_555
C17A N1A 1_555 1_555
C18A O5A 1_555 1_555
C19A C18A 1_555 1_555
C20A C19A 1_555 1_555
C21A C21 1_555 1_555
C22A C21A 1_555 1_555
C23A C18A 1_555 1_555
H1A C2A 1_555 1_555
H2A C4A 1_555 1_555
H3A C5A 1_555 1_555
H4A C8A 1_555 1_555
H5A C10A 1_555 1_555
H6A C11A 1_555 1_555
H7A C13A 1_555 1_555
H8A C14A 1_555 1_555
H9A C15A 1_555 1_555
H10A C17A 1_555 1_555
H11A C19A 1_555 1_555
H12A C20A 1_555 1_555
H13A C22A 1_555 1_555
H14A C23A 1_555 1_555
O2 Cu1A_2 1_555 1_555
O4 Cu1A_2 1_555 1_555
C9 C12 1_555 1_555
C16 C17 1_555 1_555
C22 C23 1_555 1_555
C1A C5A 1_555 1_555
C3A C4A 1_555 1_555
C3A C6A 1_555 1_555
C7A C11A 1_555 1_555
C9A C10A 1_555 1_555
C9A C12A 1_555 1_555
C20A C21A 1_555 1_555
C22A C23A 1_555 1_555

#END
