
#######################################################################
#
#                 Cambridge Crystallographic Data Centre
#                                CCDC 
#
#######################################################################
#
# If this CIF has been generated from an entry in the Cambridge 
# Structural Database, then it will include bibliographic, chemical, 
# crystal, experimental, refinement or atomic coordinate data resulting 
# from the CCDC's data processing and validation procedures.
#
#######################################################################

data_KAKNOA01
_symmetry_cell_setting           triclinic
_symmetry_space_group_name_H-M   'P -1'
_symmetry_Int_Tables_number      2
_space_group_name_Hall           '-P 1'
loop_
_symmetry_equiv_pos_site_id
_symmetry_equiv_pos_as_xyz
1 x,y,z
2 -x,-y,-z
_cell_length_a                   8.102(3)
_cell_length_b                   9.979(4)
_cell_length_c                   12.705(5)
_cell_angle_alpha                86.282(6)
_cell_angle_beta                 73.517(5)
_cell_angle_gamma                89.107(6)
_cell_volume                     982.906
loop_
_atom_site_label
_atom_site_type_symbol
_atom_site_fract_x
_atom_site_fract_y
_atom_site_fract_z
Cu1 Cu -0.10681(10) 0.06996(9) 0.95500(7)
O1 O -0.2151(6) -0.1006(5) 0.9466(4)
O2 O -0.0323(6) -0.2176(5) 1.0176(4)
O3 O 0.0816(6) 0.0347(5) 0.8217(4)
O4 O 0.2638(6) -0.0791(5) 0.8944(4)
O5 O -0.1161(7) 0.5174(6) 0.7006(5)
N1 N -0.2281(7) 0.1996(6) 0.8583(5)
C1 C -0.5192(8) -0.4417(7) 0.9725(6)
C2 C -0.4099(9) -0.3295(7) 0.9544(6)
H1 H -0.4354 -0.2524 0.9169
C3 C -0.2673(8) -0.3319(7) 0.9909(6)
C4 C -0.2256(9) -0.4502(7) 1.0452(6)
H2 H -0.1268 -0.4528 1.0688
C5 C -0.6705(9) -0.4393(7) 0.9368(6)
H3 H -0.6989 -0.3619 0.9009
C6 C -0.1620(9) -0.2069(7) 0.9828(6)
C7 C 0.4160(9) 0.0206(7) 0.5054(6)
C8 C 0.2981(9) 0.0153(7) 0.6130(6)
H4 H 0.1854 0.0434 0.6214
C9 C 0.3451(9) -0.0293(7) 0.7034(5)
C10 C 0.5138(9) -0.0742(8) 0.6903(6)
H5 H 0.5460 -0.1086 0.7513
C11 C 0.3682(10) 0.0683(8) 0.4109(6)
H6 H 0.2557 0.0959 0.4177
C12 C 0.2191(9) -0.0250(7) 0.8159(6)
C13 C -0.3801(10) 0.1751(8) 0.8392(6)
H7 H -0.4398 0.0969 0.8710
C14 C -0.4493(10) 0.2599(9) 0.7755(7)
H8 H -0.5552 0.2411 0.7649
C15 C -0.3595(11) 0.3746(10) 0.7269(7)
H9 H -0.4040 0.4345 0.6828
C16 C -0.2044(10) 0.3990(8) 0.7442(7)
C17 C -0.1462(9) 0.3109(8) 0.8117(6)
H10 H -0.0429 0.3303 0.8258
C18 C 0.0567(12) 0.5072(9) 0.6464(7)
C19 C 0.1599(13) 0.6130(11) 0.6452(10)
H11 H 0.1145 0.6882 0.6828
C20 C 0.3329(12) 0.6096(10) 0.5881(8)
H12 H 0.4017 0.6832 0.5885
C21 C 0.4072(11) 0.5002(10) 0.5305(8)
C22 C 0.2975(13) 0.3984(10) 0.5334(8)
H13 H 0.3412 0.3233 0.4951
C23 C 0.1243(13) 0.3992(10) 0.5900(9)
H14 H 0.0548 0.3261 0.5894
Cu1A Cu -0.89319(10) -1.06996(9) 1.04500(7)
Cu1A_2 Cu 0.10681(10) -0.06996(9) 1.04500(7)
Cu1_2 Cu -1.10681(10) -0.93004(9) 0.95500(7)
Cu1A_3 Cu 1.10681(10) -0.06996(9) 0.04500(7)
Cu1_3 Cu 0.89319(10) 0.06996(9) -0.04500(7)
Cu1A_4 Cu 1.10681(10) 0.93004(9) 0.04500(7)
O1A O -0.7849(6) -0.8994(5) 1.0534(4)
O2A O -0.9677(6) -0.7824(5) 0.9824(4)
O2A_2 O 0.0323(6) 0.2176(5) 0.9824(4)
O2_2 O -1.0323(6) -1.2176(5) 1.0176(4)
O3A O 0.9184(6) -0.0347(5) 0.1783(4)
O3A_2 O -1.0816(6) -1.0347(5) 1.1783(4)
O4A O 0.7362(6) 0.0791(5) 0.1056(4)
O4A_2 O -0.2638(6) 0.0791(5) 1.1056(4)
O4_2 O -0.7362(6) -1.0791(5) 0.8944(4)
O5A O 1.1161(7) 0.4826(6) 0.2994(5)
N1A N 1.2281(7) 0.8004(6) 0.1417(5)
N1A_2 N -0.7719(7) -1.1996(6) 1.1417(5)
C1A C -0.4808(8) -0.5583(7) 1.0275(6)
C2A C -0.5901(9) -0.6705(7) 1.0456(6)
H1A H -0.5646 -0.7476 1.0831
C3A C -0.7327(8) -0.6681(7) 1.0091(6)
C4A C -0.7744(9) -0.5498(7) 0.9548(6)
H2A H -0.8732 -0.5472 0.9312
C5A C -0.3295(9) -0.5607(7) 1.0632(6)
H3A H -0.3011 -0.6381 1.0991
C6A C -0.8380(9) -0.7931(7) 1.0172(6)
C7A C 0.5840(9) -0.0206(7) 0.4946(6)
C8A C 0.7019(9) -0.0153(7) 0.3870(6)
H4A H 0.8146 -0.0434 0.3786
C9A C 0.6549(9) 0.0293(7) 0.2966(5)
C10A C 0.4862(9) 0.0742(8) 0.3097(6)
H5A H 0.4540 0.1086 0.2487
C11A C 0.6318(10) -0.0683(8) 0.5891(6)
H6A H 0.7443 -0.0959 0.5823
C12A C 0.7809(9) 0.0250(7) 0.1841(6)
C13A C 1.3801(10) 0.8249(8) 0.1608(6)
H7A H 1.4398 0.9031 0.1290
C14A C 1.4493(10) 0.7401(9) 0.2245(7)
H8A H 1.5552 0.7589 0.2351
C15A C 1.3595(11) 0.6254(10) 0.2731(7)
H9A H 1.4040 0.5655 0.3172
C16A C 1.2044(10) 0.6010(8) 0.2558(7)
C17A C 1.1462(9) 0.6891(8) 0.1883(6)
H10A H 1.0429 0.6697 0.1742
C18A C 0.9433(12) 0.4928(9) 0.3536(7)
C19A C 0.8401(13) 0.3870(11) 0.3548(10)
H11A H 0.8855 0.3118 0.3172
C20A C 0.6671(12) 0.3904(10) 0.4119(8)
H12A H 0.5983 0.3168 0.4115
C21A C 0.5928(11) 0.4998(10) 0.4695(8)
C22A C 0.7025(13) 0.6016(10) 0.4666(8)
H13A H 0.6588 0.6767 0.5049
C23A C 0.8757(13) 0.6008(10) 0.4100(9)
H14A H 0.9452 0.6739 0.4106
loop_
_geom_bond_atom_site_label_1
_geom_bond_atom_site_label_2
_geom_bond_site_symmetry_1
_geom_bond_site_symmetry_2
Cu1 O1 1_555 1_555
O1 C6 1_555 1_555
O2 C6 1_555 1_555
O3 Cu1 1_555 1_555
O4 C12 1_555 1_555
O5 C16 1_555 1_555
N1 Cu1 1_555 1_555
C1 C2 1_555 1_555
C2 H1 1_555 1_555
C3 C2 1_555 1_555
C4 C3 1_555 1_555
H2 C4 1_555 1_555
C5 C1 1_555 1_555
H3 C5 1_555 1_555
C6 C3 1_555 1_555
C7 C8 1_555 1_555
C8 H4 1_555 1_555
C9 C8 1_555 1_555
C10 C9 1_555 1_555
H5 C10 1_555 1_555
C11 C7 1_555 1_555
H6 C11 1_555 1_555
C12 O3 1_555 1_555
C13 N1 1_555 1_555
H7 C13 1_555 1_555
C14 C13 1_555 1_555
H8 C14 1_555 1_555
C15 C14 1_555 1_555
H9 C15 1_555 1_555
C16 C15 1_555 1_555
C17 N1 1_555 1_555
H10 C17 1_555 1_555
C18 O5 1_555 1_555
C19 C18 1_555 1_555
H11 C19 1_555 1_555
C20 C19 1_555 1_555
H12 C20 1_555 1_555
C21 C20 1_555 1_555
C22 C21 1_555 1_555
H13 C22 1_555 1_555
C23 C18 1_555 1_555
H14 C23 1_555 1_555
Cu1A O1A 1_555 1_555
Cu1A_2 O2 1_555 1_555
Cu1_2 O2A 1_555 1_555
Cu1A_3 O3A 1_555 1_555
Cu1_3 O4A 1_555 1_555
Cu1A_4 N1A 1_555 1_555
O1A C6A 1_555 1_555
O2A C6A 1_555 1_555
O2A_2 Cu1 1_555 1_555
O2_2 Cu1A 1_555 1_555
O3A C12A 1_555 1_555
O3A_2 Cu1A 1_555 1_555
O4A C12A 1_555 1_555
O4A_2 Cu1 1_555 1_555
O4_2 Cu1A 1_555 1_555
O5A C16A 1_555 1_555
N1A C13A 1_555 1_555
N1A_2 Cu1A 1_555 1_555
C1A C1 1_555 1_555
C2A C1A 1_555 1_555
H1A C2A 1_555 1_555
C3A C2A 1_555 1_555
C4A C5 1_555 1_555
H2A C4A 1_555 1_555
C5A C4 1_555 1_555
H3A C5A 1_555 1_555
C6A C3A 1_555 1_555
C7A C7 1_555 1_555
C8A C7A 1_555 1_555
H4A C8A 1_555 1_555
C9A C8A 1_555 1_555
C10A C11 1_555 1_555
H5A C10A 1_555 1_555
C11A C10 1_555 1_555
H6A C11A 1_555 1_555
C12A C9A 1_555 1_555
C13A H7A 1_555 1_555
C14A C13A 1_555 1_555
H8A C14A 1_555 1_555
C15A C14A 1_555 1_555
H9A C15A 1_555 1_555
C16A C15A 1_555 1_555
C17A N1A 1_555 1_555
H10A C17A 1_555 1_555
C18A O5A 1_555 1_555
C19A C18A 1_555 1_555
H11A C19A 1_555 1_555
C20A C19A 1_555 1_555
H12A C20A 1_555 1_555
C21A C21 1_555 1_555
C22A C21A 1_555 1_555
H13A C22A 1_555 1_555
C23A C18A 1_555 1_555
H14A C23A 1_555 1_555
O4 Cu1A_2 1_555 1_555
C9 C12 1_555 1_555
C16 C17 1_555 1_555
C22 C23 1_555 1_555
C1A C5A 1_555 1_555
C3A C4A 1_555 1_555
C7A C11A 1_555 1_555
C9A C10A 1_555 1_555
C16A C17A 1_555 1_555
C20A C21A 1_555 1_555
C22A C23A 1_555 1_555

#END
