
#######################################################################
#
#                 Cambridge Crystallographic Data Centre
#                                CCDC 
#
#######################################################################
#
# If this CIF has been generated from an entry in the Cambridge 
# Structural Database, then it will include bibliographic, chemical, 
# crystal, experimental, refinement or atomic coordinate data resulting 
# from the CCDC's data processing and validation procedures.
#
#######################################################################

data_KAKTOG
_symmetry_cell_setting           orthorhombic
_symmetry_space_group_name_H-M   'P 21 21 21'
_symmetry_Int_Tables_number      19
_space_group_name_Hall           'P 2ac 2ab'
loop_
_symmetry_equiv_pos_site_id
_symmetry_equiv_pos_as_xyz
1 x,y,z
2 1/2-x,-y,1/2+z
3 -x,1/2+y,1/2-z
4 1/2+x,1/2-y,-z
_cell_length_a                   7.0253(9)
_cell_length_b                   9.7633(13)
_cell_length_c                   49.008(6)
_cell_angle_alpha                90
_cell_angle_beta                 90
_cell_angle_gamma                90
_cell_volume                     3361.46
loop_
_atom_site_label
_atom_site_type_symbol
_atom_site_fract_x
_atom_site_fract_y
_atom_site_fract_z
Cu1 Cu 0.18514(8) 0.37018(5) 0.856099(9)
Cu2 Cu 0.69285(8) 0.37292(5) 0.892938(10)
C1 C 0.2190(6) 0.2167(5) 0.80234(9)
H1 H 0.2047 0.3020 0.7941
C2 C 0.2241(6) 0.1023(5) 0.78630(9)
C3 C 0.1949(7) 0.1039(5) 0.75592(9)
H2 H 0.1778 0.1950 0.7479
C4 C 0.3492(6) 0.0098(5) 0.74126(9)
C5 C 0.5514(7) 0.0028(5) 0.75227(10)
H3 H 0.6217 -0.0657 0.7424
H4 H 0.5483 -0.0205 0.7713
H5 H 0.6120 0.0902 0.7500
C6 C 0.0480(7) -0.0009(5) 0.74777(10)
H6 H -0.0005 0.0096 0.7294
H7 H -0.0541 -0.0133 0.7609
C7 C 0.3513(8) 0.0318(5) 0.71045(10)
H8 H 0.4577 -0.0159 0.7027
H9 H 0.3621 0.1278 0.7066
H10 H 0.2353 -0.0029 0.7027
C8 C 0.2171(7) -0.1066(5) 0.75064(9)
H11 H 0.2099 -0.1833 0.7378
C9 C 0.2498(7) -0.1501(5) 0.78001(9)
H12 H 0.3707 -0.1975 0.7815
H13 H 0.1499 -0.2125 0.7857
C10 C 0.2503(6) -0.0229(5) 0.79875(9)
C11 C 0.2686(6) -0.0302(5) 0.82629(9)
H14 H 0.2873 -0.1142 0.8348
C12 C 0.2591(6) 0.0891(4) 0.84155(9)
C13 C 0.2680(6) 0.0936(4) 0.87138(9)
C14 C 0.3039(7) -0.0160(5) 0.88787(9)
H15 H 0.3198 -0.1027 0.8804
C15 C 0.3166(7) 0.0024(5) 0.91607(9)
H16 H 0.3441 -0.0710 0.9275
C16 C 0.2876(6) 0.1319(5) 0.92662(9)
H17 H 0.2940 0.1469 0.9453
C17 C 0.2494(6) 0.2373(5) 0.90930(9)
H18 H 0.2315 0.3248 0.9163
C18 C 0.7183(7) 0.2356(5) 0.83857(9)
H19 H 0.6867 0.3208 0.8314
C19 C 0.7455(6) 0.1269(5) 0.82119(9)
H20 H 0.7410 0.1399 0.8024
C20 C 0.7794(7) -0.0006(5) 0.83170(10)
H21 H 0.7885 -0.0760 0.8202
C21 C 0.7999(7) -0.0165(5) 0.85925(9)
H22 H 0.8325 -0.1012 0.8665
C22 C 0.7711(6) 0.0964(4) 0.87634(9)
C23 C 0.7895(6) 0.0922(4) 0.90641(8)
C24 C 0.8257(7) -0.0254(4) 0.92097(9)
H23 H 0.8410 -0.1092 0.9122
C25 C 0.8386(6) -0.0146(4) 0.94876(9)
C26 C 0.8720(7) -0.1373(5) 0.96780(9)
H24 H 0.9903 -0.1824 0.9629
H25 H 0.7693 -0.2029 0.9657
C27 C 0.8813(7) -0.0888(4) 0.99794(9)
H26 H 0.9129 -0.1604 1.0112
C28 C 0.8330(6) 0.1169(5) 0.99211(9)
H27 H 0.8221 0.2083 1.0002
C29 C 1.0090(7) 0.0358(4) 0.99865(9)
H28 H 1.0633 0.0552 1.0164
H29 H 1.1053 0.0375 0.9845
C30 C 0.7107(7) -0.0014(4) 1.00531(9)
C31 C 0.6959(8) 0.0196(5) 1.03578(9)
H30 H 0.6664 -0.0661 1.0444
H31 H 0.5971 0.0846 1.0396
H32 H 0.8150 0.0534 1.0426
C32 C 0.5176(7) -0.0289(4) 0.99353(9)
H33 H 0.4584 0.0562 0.9886
H34 H 0.4405 -0.0751 1.0068
H35 H 0.5301 -0.0855 0.9776
C33 C 0.8141(7) 0.1068(4) 0.96163(9)
C34 C 0.7735(6) 0.2228(5) 0.94486(9)
H36 H 0.7536 0.3071 0.9532
N1 N 0.2344(5) 0.2095(4) 0.82987(7)
N2 N 0.2372(5) 0.2176(4) 0.88242(7)
N3 N 0.7364(5) 0.2214(4) 0.86583(7)
N4 N 0.7632(5) 0.2157(4) 0.91850(7)
N5 N 0.6570(6) 0.4930(4) 0.92359(8)
N6 N 0.5886(6) 0.6024(4) 0.92460(9)
N7 N 0.5209(8) 0.7072(4) 0.92756(10)
N8 N 0.5032(6) 0.4616(4) 0.86836(9)
N9 N 0.5151(6) 0.5785(4) 0.86223(9)
N10 N 0.5169(7) 0.6894(4) 0.85477(10)
N11 N 0.0026(6) 0.4581(4) 0.88174(9)
N12 N 0.0225(7) 0.5715(4) 0.88941(8)
N13 N 0.0455(8) 0.6795(5) 0.89978(10)
N14 N 0.1499(6) 0.5017(4) 0.82529(8)
N15 N 0.0720(7) 0.6001(4) 0.82841(8)
N16 N -0.0143(7) 0.7044(5) 0.83069(9)
Cu2_2 Cu -0.30715(8) 0.37292(5) 0.892938(10)
N11_2 N 1.0026(6) 0.4581(4) 0.88174(9)
loop_
_geom_bond_atom_site_label_1
_geom_bond_atom_site_label_2
_geom_bond_site_symmetry_1
_geom_bond_site_symmetry_2
Cu1 N1 1_555 1_555
Cu2 N3 1_555 1_555
C1 H1 1_555 1_555
C2 C1 1_555 1_555
C3 C2 1_555 1_555
H2 C3 1_555 1_555
C4 C3 1_555 1_555
C5 C4 1_555 1_555
H3 C5 1_555 1_555
H4 C5 1_555 1_555
H5 C5 1_555 1_555
C6 C3 1_555 1_555
H6 C6 1_555 1_555
H7 C6 1_555 1_555
C7 C4 1_555 1_555
H8 C7 1_555 1_555
H9 C7 1_555 1_555
H10 C7 1_555 1_555
C8 C4 1_555 1_555
H11 C8 1_555 1_555
C9 C8 1_555 1_555
H12 C9 1_555 1_555
H13 C9 1_555 1_555
C10 C2 1_555 1_555
C11 C10 1_555 1_555
H14 C11 1_555 1_555
C12 C11 1_555 1_555
C13 C12 1_555 1_555
C14 C13 1_555 1_555
H15 C14 1_555 1_555
C15 C14 1_555 1_555
H16 C15 1_555 1_555
C16 C15 1_555 1_555
H17 C16 1_555 1_555
C17 C16 1_555 1_555
H18 C17 1_555 1_555
C18 H19 1_555 1_555
C19 C18 1_555 1_555
H20 C19 1_555 1_555
C20 C19 1_555 1_555
H21 C20 1_555 1_555
C21 C20 1_555 1_555
H22 C21 1_555 1_555
C22 C21 1_555 1_555
C23 C22 1_555 1_555
C24 C23 1_555 1_555
H23 C24 1_555 1_555
C25 C24 1_555 1_555
C26 C25 1_555 1_555
H24 C26 1_555 1_555
H25 C26 1_555 1_555
C27 C26 1_555 1_555
H26 C27 1_555 1_555
C28 H27 1_555 1_555
C29 C27 1_555 1_555
H28 C29 1_555 1_555
H29 C29 1_555 1_555
C30 C27 1_555 1_555
C31 C30 1_555 1_555
H30 C31 1_555 1_555
H31 C31 1_555 1_555
H32 C31 1_555 1_555
C32 C30 1_555 1_555
H33 C32 1_555 1_555
H34 C32 1_555 1_555
H35 C32 1_555 1_555
C33 C25 1_555 1_555
C34 C33 1_555 1_555
H36 C34 1_555 1_555
N1 C1 1_555 1_555
N2 Cu1 1_555 1_555
N3 C18 1_555 1_555
N4 Cu2 1_555 1_555
N5 Cu2 1_555 1_555
N6 N5 1_555 1_555
N7 N6 1_555 1_555
N8 Cu1 1_555 1_555
N9 N8 1_555 1_555
N10 N9 1_555 1_555
N11 Cu1 1_555 1_555
N12 N11 1_555 1_555
N13 N12 1_555 1_555
N14 Cu1 1_555 1_555
N15 N14 1_555 1_555
N16 N15 1_555 1_555
Cu2_2 N11 1_555 1_555
N11_2 Cu2 1_555 1_555
Cu2 N8 1_555 1_555
C6 C8 1_555 1_555
C9 C10 1_555 1_555
C12 N1 1_555 1_555
C13 N2 1_555 1_555
C17 N2 1_555 1_555
C22 N3 1_555 1_555
C23 N4 1_555 1_555
C28 C29 1_555 1_555
C28 C30 1_555 1_555
C28 C33 1_555 1_555
C34 N4 1_555 1_555

#END
