
#######################################################################
#
#                 Cambridge Crystallographic Data Centre
#                                CCDC 
#
#######################################################################
#
# If this CIF has been generated from an entry in the Cambridge 
# Structural Database, then it will include bibliographic, chemical, 
# crystal, experimental, refinement or atomic coordinate data resulting 
# from the CCDC's data processing and validation procedures.
#
#######################################################################

data_KAKTIA01
_symmetry_cell_setting           orthorhombic
_symmetry_space_group_name_H-M   'P 21 21 21'
_symmetry_Int_Tables_number      19
_space_group_name_Hall           'P 2ac 2ab'
loop_
_symmetry_equiv_pos_site_id
_symmetry_equiv_pos_as_xyz
1 x,y,z
2 1/2-x,-y,1/2+z
3 -x,1/2+y,1/2-z
4 1/2+x,1/2-y,-z
_cell_length_a                   3.8226(5)
_cell_length_b                   10.488(2)
_cell_length_c                   19.033(5)
_cell_angle_alpha                90
_cell_angle_beta                 90
_cell_angle_gamma                90
_cell_volume                     763.06
loop_
_atom_site_label
_atom_site_type_symbol
_atom_site_fract_x
_atom_site_fract_y
_atom_site_fract_z
Cu1 Cu 0.0414(6) 0.14900(15) 0.50225(8)
Cu2 Cu 0.3496(6) -0.3238(2) 0.45383(9)
Cl1 Cl 0.3337(9) -0.0857(3) 0.49249(18)
O1 O 0.128(3) 0.1669(8) 0.5995(4)
O2 O 0.433(3) 0.3496(8) 0.5951(5)
N1 N 0.219(3) 0.2975(10) 0.8517(5)
C1 C 0.273(4) 0.2617(14) 0.6267(5)
C2 C 0.253(4) 0.2732(12) 0.7066(6)
C3 C 0.391(4) 0.3824(11) 0.7397(7)
H1 H 0.4974 0.4463 0.7134
C4 C 0.364(4) 0.3925(13) 0.8118(6)
H2 H 0.4462 0.4657 0.8339
C5 C 0.087(4) 0.1939(12) 0.8192(6)
H3 H -0.0213 0.1304 0.8455
C6 C 0.110(4) 0.1810(13) 0.7468(6)
H4 H 0.0246 0.1073 0.7255
Cu1C Cu 0.5414(6) 0.35100(15) 0.49775(8)
Cu2A Cu 0.1504(6) 0.3238(2) 0.95383(9)
Cu2C Cu -0.1504(6) -0.1762(2) 0.54617(9)
Cu2C_2 Cu 0.8496(6) -0.1762(2) 0.54617(9)
Cl1C Cl -0.1663(9) -0.4143(3) 0.50751(18)
Cl1C_2 Cl 0.8337(9) -0.4143(3) 0.50751(18)
O2C O -0.067(3) 0.1504(8) 0.4049(5)
N1A N 0.281(3) -0.2975(10) 0.3517(5)
loop_
_geom_bond_atom_site_label_1
_geom_bond_atom_site_label_2
_geom_bond_site_symmetry_1
_geom_bond_site_symmetry_2
Cu1 Cl1 1_555 1_555
Cu2 Cl1 1_555 1_555
Cl1 Cu2C 1_555 1_555
O1 Cu1 1_555 1_555
O2 C1 1_555 1_555
N1 C4 1_555 1_555
C1 O1 1_555 1_555
C2 C1 1_555 1_555
C3 C2 1_555 1_555
H1 C3 1_555 1_555
C4 C3 1_555 1_555
H2 C4 1_555 1_555
C5 N1 1_555 1_555
H3 C5 1_555 1_555
C6 C2 1_555 1_555
H4 C6 1_555 1_555
Cu1C O2 1_555 1_555
Cu2A N1 1_555 1_555
Cu2C Cl1C 1_555 1_555
Cu2C_2 Cl1 1_555 1_555
Cl1C Cu2 1_555 1_555
Cl1C_2 Cu2 1_555 1_555
O2C Cu1 1_555 1_555
N1A Cu2 1_555 1_555
C5 C6 1_555 1_555
Cu2C_2 Cl1C_2 1_555 1_555

#END
