
#######################################################################
#
#                 Cambridge Crystallographic Data Centre
#                                CCDC 
#
#######################################################################
#
# If this CIF has been generated from an entry in the Cambridge 
# Structural Database, then it will include bibliographic, chemical, 
# crystal, experimental, refinement or atomic coordinate data resulting 
# from the CCDC's data processing and validation procedures.
#
#######################################################################

data_KAKVEY
_symmetry_cell_setting           monoclinic
_symmetry_space_group_name_H-M   'P 21/c'
_symmetry_Int_Tables_number      14
_space_group_name_Hall           '-P 2ybc'
loop_
_symmetry_equiv_pos_site_id
_symmetry_equiv_pos_as_xyz
1 x,y,z
2 -x,1/2+y,1/2-z
3 -x,-y,-z
4 x,1/2-y,1/2+z
_cell_length_a                   6.5647(17)
_cell_length_b                   6.5793(16)
_cell_length_c                   12.272(3)
_cell_angle_alpha                90
_cell_angle_beta                 95.39(2)
_cell_angle_gamma                90
_cell_volume                     527.698
loop_
_atom_site_label
_atom_site_type_symbol
_atom_site_fract_x
_atom_site_fract_y
_atom_site_fract_z
Cu1 Cu 1.0000 0.0000 1.0000
Cl1 Cl 1.21769(6) 0.27193(6) 0.98426(3)
N1 N 0.7323(2) 0.1778(2) 0.69899(11)
N2 N 0.5667(2) 0.1552(3) 0.75656(13)
N3 N 0.6344(2) 0.0991(3) 0.85318(13)
N4 N 0.8424(2) 0.0813(2) 0.86107(11)
C1 C 0.9030(2) 0.1323(2) 0.76377(13)
N5 N 0.7254(2) 0.2538(2) 0.59219(12)
H1 H 0.623(5) 0.325(5) 0.577(3)
H2 H 0.716(4) 0.155(4) 0.545(2)
N6 N 1.0915(2) 0.1279(3) 0.73264(13)
H3 H 1.194(4) 0.139(4) 0.783(2)
H4 H 1.113(4) 0.162(4) 0.666(2)
Cu1C Cu 1.0000 0.5000 0.5000
Cu1C_2 Cu 1.0000 -0.5000 1.5000
Cl1B Cl 0.78231(6) -0.27193(6) 1.01574(3)
N1B N 1.2677(2) -0.1778(2) 1.30101(11)
N2B N 1.4333(2) -0.1552(3) 1.24344(13)
N3B N 1.3656(2) -0.0991(3) 1.14682(13)
N4B N 1.1576(2) -0.0813(2) 1.13893(11)
C1B C 1.0970(2) -0.1323(2) 1.23623(13)
N5B N 1.2746(2) -0.2538(2) 1.40781(12)
N5C N 0.7254(2) 0.2462(2) 1.09219(12)
N5A N 1.2746(2) -0.2462(2) 0.90781(12)
H1B H 1.377(5) -0.325(5) 1.423(3)
H1C H 0.623(5) 0.175(5) 1.077(3)
H1A H 1.377(5) -0.175(5) 0.923(3)
H2B H 1.284(4) -0.155(4) 1.455(2)
H2C H 0.716(4) 0.345(4) 1.045(2)
H2A H 1.284(4) -0.345(4) 0.955(2)
N6B N 0.9085(2) -0.1279(3) 1.26736(13)
H3B H 0.806(4) -0.139(4) 1.217(2)
H4B H 0.887(4) -0.162(4) 1.334(2)
loop_
_geom_bond_atom_site_label_1
_geom_bond_atom_site_label_2
_geom_bond_site_symmetry_1
_geom_bond_site_symmetry_2
Cu1 Cl1 1_555 1_555
N1 N2 1_555 1_555
N2 N3 1_555 1_555
N3 N4 1_555 1_555
N4 Cu1 1_555 1_555
C1 N1 1_555 1_555
N5 N1 1_555 1_555
H1 N5 1_555 1_555
H2 N5 1_555 1_555
N6 C1 1_555 1_555
H3 N6 1_555 1_555
H4 N6 1_555 1_555
Cu1C N5 1_555 1_555
Cu1C_2 N5B 1_555 1_555
Cl1B Cu1 1_555 1_555
N1B N2B 1_555 1_555
N2B N3B 1_555 1_555
N3B N4B 1_555 1_555
N4B Cu1 1_555 1_555
C1B N1B 1_555 1_555
N5B N1B 1_555 1_555
N5C Cu1 1_555 1_555
N5A Cu1 1_555 1_555
H1B N5B 1_555 1_555
H1C N5C 1_555 1_555
H1A N5A 1_555 1_555
H2B N5B 1_555 1_555
H2C N5C 1_555 1_555
H2A N5A 1_555 1_555
N6B C1B 1_555 1_555
H3B N6B 1_555 1_555
H4B N6B 1_555 1_555
N4 C1 1_555 1_555
N4B C1B 1_555 1_555

#END
