
#######################################################################
#
#                 Cambridge Crystallographic Data Centre
#                                CCDC 
#
#######################################################################
#
# If this CIF has been generated from an entry in the Cambridge 
# Structural Database, then it will include bibliographic, chemical, 
# crystal, experimental, refinement or atomic coordinate data resulting 
# from the CCDC's data processing and validation procedures.
#
#######################################################################

data_KAKVOH10
_symmetry_cell_setting           monoclinic
_symmetry_space_group_name_H-M   'P 21/n'
_symmetry_Int_Tables_number      14
_space_group_name_Hall           '-P 2yn'
loop_
_symmetry_equiv_pos_site_id
_symmetry_equiv_pos_as_xyz
1 x,y,z
2 1/2-x,1/2+y,1/2-z
3 -x,-y,-z
4 1/2+x,1/2-y,1/2+z
_cell_length_a                   10.330(4)
_cell_length_b                   10.282(5)
_cell_length_c                   16.446(8)
_cell_angle_alpha                90
_cell_angle_beta                 98.75(4)
_cell_angle_gamma                90
_cell_volume                     1726.45
loop_
_atom_site_label
_atom_site_type_symbol
_atom_site_fract_x
_atom_site_fract_y
_atom_site_fract_z
Er1 Er 0.2994 0.6526 0.6619
O1 O 0.2301(7) 0.4864(8) 0.5716(5)
O2 O 0.2623(7) 0.7662(7) 0.7784(4)
O3 O 0.2488(7) 0.8336(8) 0.5785(5)
O8 O 0.4508(6) 0.6149(7) 0.5771(4)
O9 O 0.6104(7) 0.6735(8) 0.5114(5)
O10 O 0.4306(6) 0.5086(7) 0.7349(4)
O11 O 0.4839(7) 0.3147(7) 0.6928(5)
O12 O 1.0236(6) 0.2869(7) 0.7892(4)
O13 O 1.0075(7) 0.4423(8) 0.8818(5)
O14 O 1.0621(6) 0.6743(7) 0.6346(4)
O15 O 1.1388(6) 0.5257(7) 0.7255(4)
C1 C 0.5706(9) 0.6243(9) 0.5712(6)
C2 C 0.5083(8) 0.4312(9) 0.7069(6)
C3 C 0.9772(9) 0.3932(10) 0.8121(6)
C4 C 1.0431(8) 0.5851(10) 0.6847(6)
C5 C 0.6728(9) 0.5652(9) 0.6379(6)
C6 C 0.6437(8) 0.4788(9) 0.6977(6)
C7 C 0.7459(10) 0.4260(10) 0.7527(7)
C8 C 0.8740(9) 0.4591(10) 0.7507(6)
C9 C 0.9040(9) 0.5483(10) 0.6927(6)
C10 C 0.8022(9) 0.5973(10) 0.6369(7)
O12A O 0.4764(6) 0.7869(7) 0.7108(4)
O14_2 O 0.0621(6) 0.6743(7) 0.6346(4)
O15_2 O 0.1388(6) 0.5257(7) 0.7255(4)
Er1A Er 1.2006 0.1526 0.8381
Er1_2 Er 1.2994 0.6526 0.6619
O4 O 0.0181(9) 0.0791(9) 0.4229(7)
O5 O -0.1032(9) 0.1688(10) 0.6305(6)
O6 O 0.1120(9) 0.3216(10) 0.0809(6)
O7 O 0.2360(11) 0.1249(9) 0.5483(7)
N1 N 0.0046(23) 0.3657(22) 0.5483(11)
loop_
_geom_bond_atom_site_label_1
_geom_bond_atom_site_label_2
_geom_bond_site_symmetry_1
_geom_bond_site_symmetry_2
Er1 O1 1_555 1_555
O2 Er1 1_555 1_555
O3 Er1 1_555 1_555
O8 Er1 1_555 1_555
O9 C1 1_555 1_555
O10 Er1 1_555 1_555
O11 C2 1_555 1_555
O12 C3 1_555 1_555
O13 C3 1_555 1_555
O14 C4 1_555 1_555
O15 C4 1_555 1_555
C1 O8 1_555 1_555
C2 O10 1_555 1_555
C3 C8 1_555 1_555
C4 C9 1_555 1_555
C5 C1 1_555 1_555
C6 C2 1_555 1_555
C7 C6 1_555 1_555
C8 C7 1_555 1_555
C9 C8 1_555 1_555
C10 C5 1_555 1_555
O12A Er1 1_555 1_555
O14_2 Er1 1_555 1_555
O15_2 Er1 1_555 1_555
Er1A O12 1_555 1_555
Er1_2 O14 1_555 1_555
O15 Er1_2 1_555 1_555
C5 C6 1_555 1_555
C9 C10 1_555 1_555

#END
