
#######################################################################
#
#                 Cambridge Crystallographic Data Centre
#                                CCDC 
#
#######################################################################
#
# If this CIF has been generated from an entry in the Cambridge 
# Structural Database, then it will include bibliographic, chemical, 
# crystal, experimental, refinement or atomic coordinate data resulting 
# from the CCDC's data processing and validation procedures.
#
#######################################################################

data_KALBUV
_symmetry_cell_setting           monoclinic
_symmetry_space_group_name_H-M   'C 2/c'
_symmetry_Int_Tables_number      15
_space_group_name_Hall           '-C 2yn'
loop_
_symmetry_equiv_pos_site_id
_symmetry_equiv_pos_as_xyz
1 x,y,z
2 1/2+x,1/2+y,z
3 -x,y,1/2-z
4 1/2-x,1/2+y,1/2-z
5 -x,-y,-z
6 1/2-x,1/2-y,-z
7 x,-y,1/2+z
8 1/2+x,1/2-y,1/2+z
_cell_length_a                   18.378(4)
_cell_length_b                   6.4540(13)
_cell_length_c                   16.011(3)
_cell_angle_alpha                90
_cell_angle_beta                 103.15(3)
_cell_angle_gamma                90
_cell_volume                     1849.29
loop_
_atom_site_label
_atom_site_type_symbol
_atom_site_fract_x
_atom_site_fract_y
_atom_site_fract_z
Cd1 Cd 0.5000 -0.99091(4) 0.2500
Cd2 Cd 0.51384(2) -0.74554(6) 0.01507(2)
O1 O 0.42286(11) -0.4702(3) 0.46687(12)
O2 O 0.45818(11) -0.7759(3) 0.34785(12)
C1 C 0.39976(16) -0.7084(4) 0.29520(17)
O3 O 0.38792(13) -0.7554(3) 0.21737(13)
C2 C 0.38187(14) -0.3948(4) 0.38750(16)
C3 C 0.34471(15) -0.5733(4) 0.32867(17)
H1 H 0.3171 -0.6597 0.3602
H2 H 0.3091 -0.5148 0.2802
O4 O 0.40345(11) -0.2087(3) 0.26513(12)
C4 C 0.43275(15) -0.2758(4) 0.33856(17)
O5 O 0.50100(10) -0.2459(3) 0.37457(12)
O6 O 0.30414(12) 0.0720(3) 0.47330(15)
O7 O 0.57885(11) -0.0313(3) 0.01207(13)
C5 C 0.35039(15) -0.0550(4) 0.45943(17)
C6 C 0.32185(15) -0.2433(4) 0.40325(17)
H3 H 0.2937 -0.1939 0.3481
H4 H 0.2875 -0.3192 0.4297
Cd1_2 Cd 0.5000 0.00909(4) 0.2500
Cd2F Cd 0.51384(2) -0.25446(6) 0.51507(2)
Cd2B Cd 0.48616(2) -0.74554(6) 0.48493(2)
Cd2D Cd 0.48616(2) -0.25446(6) -0.01507(2)
Cd2_2 Cd 0.51384(2) 0.25446(6) 0.01507(2)
Cd2B_2 Cd 0.48616(2) 0.25446(6) 0.48493(2)
O1D O 0.57714(11) -0.5298(3) 0.53313(12)
O1B O 0.57714(11) -0.4702(3) 0.03313(12)
O1F O 0.42286(11) -0.5298(3) -0.03313(12)
O2B O 0.54182(11) -0.7759(3) 0.15215(12)
C1B C 0.60024(16) -0.7084(4) 0.20480(17)
O3B O 0.61208(13) -0.7554(3) 0.28263(13)
C2B C 0.61813(14) -0.3948(4) 0.11250(16)
C3B C 0.65529(15) -0.5733(4) 0.17133(17)
H1B H 0.6829 -0.6597 0.1398
H2B H 0.6909 -0.5148 0.2198
O4_2 O 0.40345(11) -1.2087(3) 0.26513(12)
O4B O 0.59655(11) -0.2087(3) 0.23487(12)
O4B_2 O 0.59655(11) -1.2087(3) 0.23487(12)
C4B C 0.56725(15) -0.2758(4) 0.16144(17)
O5F O 0.50100(10) -0.7541(3) -0.12543(12)
O5B O 0.49900(10) -1.2459(3) 0.12543(12)
O5_2 O 0.50100(10) -1.2459(3) 0.37457(12)
O5B_2 O 0.49900(10) -0.2459(3) 0.12543(12)
O6B O 0.69586(12) 0.0720(3) 0.02670(15)
O7D O 0.42115(11) -0.9687(3) -0.01207(13)
O7_2 O 0.57885(11) -1.0313(3) 0.01207(13)
O7B O 0.42115(11) -0.0313(3) 0.48793(13)
C5B C 0.64961(15) -0.0550(4) 0.04057(17)
C6B C 0.67815(15) -0.2433(4) 0.09675(17)
H3B H 0.7063 -0.1939 0.1519
H4B H 0.7125 -0.3192 0.0703
N1 N 0.34818(14) -0.5653(4) 0.59634(16)
H5 H 0.371(2) -0.538(6) 0.549(3)
H6 H 0.369(2) -0.675(7) 0.623(3)
H7 H 0.292(3) -0.575(7) 0.568(3)
H8 H 0.359(3) -0.457(8) 0.634(3)
loop_
_geom_bond_atom_site_label_1
_geom_bond_atom_site_label_2
_geom_bond_site_symmetry_1
_geom_bond_site_symmetry_2
Cd1 O2 1_555 1_555
Cd2 O1B 1_555 1_555
O1 C2 1_555 1_555
O2 C1 1_555 1_555
C1 O3 1_555 1_555
O3 Cd1 1_555 1_555
C2 C3 1_555 1_555
C3 C1 1_555 1_555
H1 C3 1_555 1_555
H2 C3 1_555 1_555
N1 H5 1_555 1_555
O4 C4 1_555 1_555
C4 C2 1_555 1_555
O5 C4 1_555 1_555
O6 C5 1_555 1_555
O7 Cd2D 1_555 1_555
C5 C6 1_555 1_555
C6 C2 1_555 1_555
H3 C6 1_555 1_555
H4 C6 1_555 1_555
H6 N1 1_555 1_555
H7 N1 1_555 1_555
H8 N1 1_555 1_555
Cd1_2 O4 1_555 1_555
Cd2F O1 1_555 1_555
Cd2B O1 1_555 1_555
Cd2D O1B 1_555 1_555
Cd2_2 O7 1_555 1_555
Cd2B_2 O7B 1_555 1_555
O1D Cd2F 1_555 1_555
O1B C2B 1_555 1_555
O1F Cd2 1_555 1_555
O2B Cd1 1_555 1_555
C1B O2B 1_555 1_555
O3B Cd1 1_555 1_555
C2B C3B 1_555 1_555
C3B C1B 1_555 1_555
H1B C3B 1_555 1_555
H2B C3B 1_555 1_555
O4_2 Cd1 1_555 1_555
O4B Cd1_2 1_555 1_555
O4B_2 Cd1 1_555 1_555
C4B C2B 1_555 1_555
O5F Cd2 1_555 1_555
O5B Cd1 1_555 1_555
O5_2 Cd1 1_555 1_555
O5B_2 Cd1_2 1_555 1_555
O6B C5B 1_555 1_555
O7D Cd2 1_555 1_555
O7_2 Cd2 1_555 1_555
O7B C5 1_555 1_555
C5B O7 1_555 1_555
C6B C2B 1_555 1_555
H3B C6B 1_555 1_555
H4B C6B 1_555 1_555
Cd2 O2B 1_555 1_555
O2 Cd2B 1_555 1_555
O5 Cd1_2 1_555 1_555
O5 Cd2F 1_555 1_555
Cd2F O7B 1_555 1_555
Cd2B O1D 1_555 1_555
Cd2D O1F 1_555 1_555
Cd2D O5B_2 1_555 1_555
C1B O3B 1_555 1_555
O4B C4B 1_555 1_555
C4B O5B_2 1_555 1_555
C5B C6B 1_555 1_555

#END
