
#######################################################################
#
#                 Cambridge Crystallographic Data Centre
#                                CCDC 
#
#######################################################################
#
# If this CIF has been generated from an entry in the Cambridge 
# Structural Database, then it will include bibliographic, chemical, 
# crystal, experimental, refinement or atomic coordinate data resulting 
# from the CCDC's data processing and validation procedures.
#
#######################################################################

data_KALCAC01
_symmetry_cell_setting           monoclinic
_symmetry_space_group_name_H-M   'P 21/c'
_symmetry_Int_Tables_number      14
_space_group_name_Hall           '-P 2ybc'
loop_
_symmetry_equiv_pos_site_id
_symmetry_equiv_pos_as_xyz
1 x,y,z
2 -x,1/2+y,1/2-z
3 -x,-y,-z
4 x,1/2-y,1/2+z
_cell_length_a                   6.0974(12)
_cell_length_b                   15.271(3)
_cell_length_c                   9.781(2)
_cell_angle_alpha                90
_cell_angle_beta                 102.74(3)
_cell_angle_gamma                90
_cell_volume                     888.32
loop_
_atom_site_label
_atom_site_type_symbol
_atom_site_fract_x
_atom_site_fract_y
_atom_site_fract_z
Cd1 Cd 0.38391(3) 0.596936(12) 0.682374(19)
Cd2 Cd 0.0000 0.5000 1.0000
O1 O 0.1146(3) 0.51769(14) 0.7977(2)
O2 O 0.3322(4) 0.44639(14) 0.6838(2)
O3 O 0.3296(4) 0.42969(16) 1.0807(2)
O4 O 0.5425(4) 0.31369(15) 1.1330(2)
O5 O 0.7032(4) 0.59124(15) 0.5989(3)
H1 H 0.6678 0.5772 0.5056
H2 H 0.7592 0.5383 0.6165
C1 C 0.1903(4) 0.44700(17) 0.7579(3)
C2 C 0.1162(4) 0.35768(19) 0.8040(2)
C3 C 0.3169(5) 0.31532(18) 0.9040(3)
H3 H 0.2780 0.2549 0.9179
H4 H 0.4419 0.3145 0.8574
C4 C 0.3996(4) 0.35646(18) 1.0477(3)
O6 O -0.0667(3) 0.37143(13) 0.8716(2)
H5 H -0.0996 0.3202 0.8974
C5 C 0.0460(5) 0.29712(17) 0.6774(3)
H6 H 0.1808 0.2777 0.6489
H7 H -0.0248 0.2457 0.7068
C6 C -0.1125(4) 0.33583(19) 0.5508(3)
O7 O -0.1718(4) 0.28864(14) 0.4423(2)
O8 O -0.1776(4) 0.41343(15) 0.5517(2)
Cd1B Cd -0.38391(3) 0.403064(12) 1.317626(19)
Cd1B_2 Cd 0.61609(3) 0.403064(12) 1.317626(19)
Cd1B_3 Cd -0.38391(3) 0.403064(12) 0.317626(19)
Cd1_2 Cd -0.61609(3) 0.596936(12) 0.682374(19)
Cd1_3 Cd 0.38391(3) 0.596936(12) 1.682374(19)
O1B O -0.1146(3) 0.48231(14) 1.2023(2)
O2B O -0.3322(4) 0.55361(14) 1.3162(2)
O3B O -0.3296(4) 0.57031(16) 0.9193(2)
O3B_2 O 0.6704(4) 0.57031(16) 0.9193(2)
O3_2 O -0.6704(4) 0.42969(16) 1.0807(2)
O4B O -0.5425(4) 0.68631(15) 0.8670(2)
O4B_2 O 0.4575(4) 0.68631(15) 0.8670(2)
O4_2 O -0.4575(4) 0.31369(15) 1.1330(2)
O5B O -0.7032(4) 0.40876(15) 1.4011(3)
H1B H -0.6678 0.4228 1.4944
H2B H -0.7592 0.4617 1.3835
C1B C -0.1903(4) 0.55300(17) 1.2421(3)
C2B C -0.1162(4) 0.64232(19) 1.1960(2)
C3B C -0.3169(5) 0.68468(18) 1.0960(3)
H3B H -0.2780 0.7451 1.0821
H4B H -0.4419 0.6855 1.1426
C4B C -0.3996(4) 0.64354(18) 0.9523(3)
O6B O 0.0667(3) 0.62857(13) 1.1284(2)
H5B H 0.0996 0.6798 1.1026
C5B C -0.0460(5) 0.70288(17) 1.3226(3)
H6B H -0.1808 0.7223 1.3511
H7B H 0.0248 0.7543 1.2932
C6B C 0.1125(4) 0.66417(19) 1.4492(3)
O7B O 0.1718(4) 0.71136(14) 1.5577(2)
O7B_2 O 0.1718(4) 0.71136(14) 0.5577(2)
O7_2 O -0.1718(4) 0.28864(14) 1.4423(2)
O8B O 0.1776(4) 0.58657(15) 1.4483(2)
O8B_2 O 0.1776(4) 0.58657(15) 0.4483(2)
O8_2 O -0.1776(4) 0.41343(15) 1.5517(2)
loop_
_geom_bond_atom_site_label_1
_geom_bond_atom_site_label_2
_geom_bond_site_symmetry_1
_geom_bond_site_symmetry_2
Cd1 O1 1_555 1_555
Cd2 O1 1_555 1_555
O1 C1 1_555 1_555
O2 Cd1 1_555 1_555
O3 Cd2 1_555 1_555
O4 C4 1_555 1_555
O5 Cd1 1_555 1_555
H1 O5 1_555 1_555
H2 O5 1_555 1_555
C1 O2 1_555 1_555
C2 C1 1_555 1_555
C3 C2 1_555 1_555
H3 C3 1_555 1_555
H4 C3 1_555 1_555
C4 O3 1_555 1_555
O6 Cd2 1_555 1_555
H5 O6 1_555 1_555
C5 C2 1_555 1_555
H6 C5 1_555 1_555
H7 C5 1_555 1_555
C6 C5 1_555 1_555
O7 C6 1_555 1_555
O8 C6 1_555 1_555
Cd1B O1B 1_555 1_555
Cd1B_2 O3 1_555 1_555
Cd1B_3 O7 1_555 1_555
Cd1_2 O3B 1_555 1_555
Cd1_3 O7B 1_555 1_555
O1B Cd2 1_555 1_555
O2B Cd1B 1_555 1_555
O3B Cd2 1_555 1_555
O3B_2 Cd1 1_555 1_555
O3_2 Cd1B 1_555 1_555
O4B Cd1_2 1_555 1_555
O4B_2 Cd1 1_555 1_555
O4_2 Cd1B 1_555 1_555
O5B Cd1B 1_555 1_555
H1B O5B 1_555 1_555
H2B O5B 1_555 1_555
C1B O1B 1_555 1_555
C2B C1B 1_555 1_555
C3B C2B 1_555 1_555
H3B C3B 1_555 1_555
H4B C3B 1_555 1_555
C4B O3B 1_555 1_555
O6B Cd2 1_555 1_555
H5B O6B 1_555 1_555
C5B C2B 1_555 1_555
H6B C5B 1_555 1_555
H7B C5B 1_555 1_555
C6B C5B 1_555 1_555
O7B C6B 1_555 1_555
O7B_2 Cd1 1_555 1_555
O7_2 Cd1B 1_555 1_555
O8B Cd1_3 1_555 1_555
O8B_2 Cd1 1_555 1_555
O8_2 Cd1B 1_555 1_555
O4 Cd1B_2 1_555 1_555
C2 O6 1_555 1_555
C3 C4 1_555 1_555
O8 Cd1B_3 1_555 1_555
O2B C1B 1_555 1_555
O4B C4B 1_555 1_555
C2B O6B 1_555 1_555
C3B C4B 1_555 1_555
C6B O8B 1_555 1_555

#END
