
#######################################################################
#
#                 Cambridge Crystallographic Data Centre
#                                CCDC 
#
#######################################################################
#
# If this CIF has been generated from an entry in the Cambridge 
# Structural Database, then it will include bibliographic, chemical, 
# crystal, experimental, refinement or atomic coordinate data resulting 
# from the CCDC's data processing and validation procedures.
#
#######################################################################

data_KALCOQ
_symmetry_cell_setting           triclinic
_symmetry_space_group_name_H-M   'P -1'
_symmetry_Int_Tables_number      2
_space_group_name_Hall           '-P 1'
loop_
_symmetry_equiv_pos_site_id
_symmetry_equiv_pos_as_xyz
1 x,y,z
2 -x,-y,-z
_cell_length_a                   7.737(1)
_cell_length_b                   8.066(1)
_cell_length_c                   14.154(2)
_cell_angle_alpha                96.900(3)
_cell_angle_beta                 96.970(2)
_cell_angle_gamma                103.283(2)
_cell_volume                     843.244
loop_
_atom_site_label
_atom_site_type_symbol
_atom_site_fract_x
_atom_site_fract_y
_atom_site_fract_z
Eu1 Eu 0.870861(14) 0.931182(14) 0.709911(7)
Eu2 Eu 1.409600(14) 1.011870(14) 0.796150(8)
O1 O 0.8578(2) 0.6257(2) 0.72199(15)
O2 O 0.9960(2) 0.8293(3) 0.56766(13)
O3 O 1.6523(2) 1.1821(2) 0.91951(11)
O4 O 1.1188(2) 0.80356(19) 0.77240(12)
O5 O 1.3996(2) 0.3152(2) 0.78961(14)
O6 O 1.1662(2) 0.1247(2) 0.70537(12)
O7 O 0.6559(2) 0.8474(2) 0.81418(11)
O8 O 0.4416(2) 0.7930(2) 0.90059(12)
O9 O 1.0253(2) 0.8927(2) 1.12785(12)
O10 O 0.7473(2) 0.9114(2) 1.07867(12)
O11 O 0.6084(2) 0.7790(2) 0.60255(13)
O12 O 0.3555(2) 0.8401(2) 0.63759(12)
O13 O 0.1864(2) 0.8709(2) 0.40367(12)
O14 O 0.3386(2) 0.8733(2) 0.28337(11)
C1 C 1.0159(3) 0.6504(3) 0.75836(17)
C2 C 1.0897(3) 0.5038(3) 0.78765(18)
H1 H 0.9933 0.4146 0.8020
H2 H 1.1781 0.5449 0.8454
C3 C 1.1778(3) 0.4280(3) 0.70605(19)
H3 H 1.0890 0.3851 0.6486
H4 H 1.2731 0.5174 0.6910
C4 C 1.2532(3) 0.2839(3) 0.73654(17)
C5 C 0.5881(3) 0.7678(3) 0.87969(16)
C6 C 0.6780(3) 0.6471(3) 0.92702(17)
H5 H 0.6791 0.5516 0.8786
H6 H 0.6066 0.6004 0.9739
C7 C 0.8710(3) 0.7272(3) 0.97779(16)
H7 H 0.9262 0.6359 0.9944
H8 H 0.9395 0.7875 0.9337
C8 C 0.8802(3) 0.8520(3) 1.06845(15)
C9 C 0.4399(3) 0.7616(3) 0.58537(16)
C10 C 0.3409(3) 0.6419(3) 0.49627(16)
H9 H 0.2134 0.6347 0.4926
H10 H 0.3585 0.5275 0.5001
C11 C 0.4049(3) 0.7020(3) 0.40467(16)
H11 H 0.5318 0.7596 0.4193
H12 H 0.3909 0.6019 0.3563
C12 C 0.3047(3) 0.8216(3) 0.36410(17)
Eu1_2 Eu 0.870861(14) -0.068818(14) 0.709911(7)
Eu1A Eu 1.129139(14) 1.068818(14) 1.290089(7)
Eu1A_2 Eu 0.129139(14) 1.068818(14) 0.290089(7)
Eu2_2 Eu 1.409600(14) 0.011870(14) 0.796150(8)
Eu2_3 Eu 0.409600(14) 1.011870(14) 0.796150(8)
Eu2A Eu 0.590400(14) 0.988130(14) 1.203850(8)
Eu2A_2 Eu 0.590400(14) 0.988130(14) 0.203850(8)
O5_2 O 1.3996(2) 1.3152(2) 0.78961(14)
O6_2 O 1.1662(2) 1.1247(2) 0.70537(12)
O7_2 O 1.6559(2) 0.8474(2) 0.81418(11)
O8_2 O 1.4416(2) 0.7930(2) 0.90059(12)
O9A O 0.9747(2) 1.1073(2) 0.87215(12)
O10A O 1.2527(2) 1.0886(2) 0.92133(12)
O12_2 O 1.3555(2) 0.8401(2) 0.63759(12)
O13A O 0.8136(2) 1.1291(2) 0.59633(12)
O14A O 0.6614(2) 1.1267(2) 0.71663(11)
O14A_2 O 1.6614(2) 1.1267(2) 0.71663(11)
loop_
_geom_bond_atom_site_label_1
_geom_bond_atom_site_label_2
_geom_bond_site_symmetry_1
_geom_bond_site_symmetry_2
Eu1 O1 1_555 1_555
Eu2 O3 1_555 1_555
O1 C1 1_555 1_555
O2 Eu1 1_555 1_555
O4 Eu1 1_555 1_555
O5 C4 1_555 1_555
O6 C4 1_555 1_555
O7 Eu1 1_555 1_555
O8 C5 1_555 1_555
O9 C8 1_555 1_555
O10 C8 1_555 1_555
O11 Eu1 1_555 1_555
O12 C9 1_555 1_555
O13 C12 1_555 1_555
O14 C12 1_555 1_555
C1 O4 1_555 1_555
C2 C1 1_555 1_555
H1 C2 1_555 1_555
H2 C2 1_555 1_555
C3 C2 1_555 1_555
H3 C3 1_555 1_555
H4 C3 1_555 1_555
C4 C3 1_555 1_555
C5 O7 1_555 1_555
C6 C5 1_555 1_555
H5 C6 1_555 1_555
H6 C6 1_555 1_555
C7 C6 1_555 1_555
H7 C7 1_555 1_555
H8 C7 1_555 1_555
C8 C7 1_555 1_555
C9 O11 1_555 1_555
C10 C9 1_555 1_555
H9 C10 1_555 1_555
H10 C10 1_555 1_555
C11 C10 1_555 1_555
H11 C11 1_555 1_555
H12 C11 1_555 1_555
C12 C11 1_555 1_555
Eu1_2 O6 1_555 1_555
Eu1A O9 1_555 1_555
Eu1A_2 O13 1_555 1_555
Eu2_2 O5 1_555 1_555
Eu2_3 O7 1_555 1_555
Eu2A O10 1_555 1_555
Eu2A_2 O14 1_555 1_555
O5_2 Eu2 1_555 1_555
O6_2 Eu1 1_555 1_555
O7_2 Eu2 1_555 1_555
O8_2 Eu2 1_555 1_555
O9A Eu1 1_555 1_555
O10A Eu2 1_555 1_555
O12_2 Eu2 1_555 1_555
O13A Eu1 1_555 1_555
O14A Eu1 1_555 1_555
O14A_2 Eu2 1_555 1_555
Eu2 O4 1_555 1_555
Eu2 O6_2 1_555 1_555
O6 Eu2_2 1_555 1_555
O8 Eu2_3 1_555 1_555
O12 Eu2_3 1_555 1_555
O14 Eu1A_2 1_555 1_555
Eu2_3 O14A 1_555 1_555

#END
