
#######################################################################
#
#                 Cambridge Crystallographic Data Centre
#                                CCDC 
#
#######################################################################
#
# If this CIF has been generated from an entry in the Cambridge 
# Structural Database, then it will include bibliographic, chemical, 
# crystal, experimental, refinement or atomic coordinate data resulting 
# from the CCDC's data processing and validation procedures.
#
#######################################################################

data_KALCAC
_symmetry_cell_setting           monoclinic
_symmetry_space_group_name_H-M   'P 21/c'
_symmetry_Int_Tables_number      14
_space_group_name_Hall           '-P 2ybc'
loop_
_symmetry_equiv_pos_site_id
_symmetry_equiv_pos_as_xyz
1 x,y,z
2 -x,1/2+y,1/2-z
3 -x,-y,-z
4 x,1/2-y,1/2+z
_cell_length_a                   6.0988(6)
_cell_length_b                   15.2997(15)
_cell_length_c                   9.7821(9)
_cell_angle_alpha                90
_cell_angle_beta                 102.772(2)
_cell_angle_gamma                90
_cell_volume                     890.182
loop_
_atom_site_label
_atom_site_type_symbol
_atom_site_fract_x
_atom_site_fract_y
_atom_site_fract_z
Cd1 Cd -0.61606(6) 0.40306(2) -0.81764(4)
Cd2 Cd 0.0000 0.5000 -0.5000
O1 O -0.3303(6) 0.4299(3) -0.5807(4)
O2 O -0.5421(7) 0.3140(3) -0.6331(4)
O3 O -0.2972(7) 0.4088(3) -0.9001(5)
C1 C -0.3178(8) 0.3154(3) -0.4048(5)
H1 H -0.2788 0.2551 -0.4190
H2 H -0.4431 0.3144 -0.3587
C2 C -0.1163(8) 0.3577(3) -0.3033(5)
C3 C -0.0465(8) 0.2970(3) -0.1771(5)
H3 H -0.1812 0.2776 -0.1487
H4 H 0.0246 0.2457 -0.2064
C4 C -0.3995(8) 0.3566(3) -0.5479(5)
O4 O 0.0664(6) 0.3719(3) -0.3722(4)
O5 O 0.1155(6) 0.4821(2) -0.7012(4)
O6 O -0.3332(6) 0.4467(2) -0.1849(4)
C5 C -0.1908(8) 0.4464(3) -0.2582(5)
O7 O -0.1777(7) 0.5870(2) -0.9480(4)
O8 O -0.1717(6) 0.7113(2) -1.0573(4)
C6 C 0.1113(8) 0.3361(3) -0.0514(5)
H5 H 0.092(10) 0.328(4) -0.389(6)
H6 H -0.320(14) 0.414(5) -0.972(9)
H7 H -0.204(16) 0.455(7) -0.859(10)
Cd1B Cd 0.61606(6) 0.59694(2) -0.18236(4)
Cd1B_2 Cd -0.38394(6) 0.59694(2) -1.18236(4)
Cd1_2 Cd 0.38394(6) 0.40306(2) -0.81764(4)
Cd1B_3 Cd -0.38394(6) 0.59694(2) -0.18236(4)
Cd1_3 Cd 0.38394(6) 0.40306(2) 0.18236(4)
O1B O 0.3303(6) 0.5701(3) -0.4193(4)
O2B O 0.5421(7) 0.6860(3) -0.3669(4)
O3B O 0.2972(7) 0.5912(3) -0.0999(5)
C1B C 0.3178(8) 0.6846(3) -0.5952(5)
H1B H 0.2788 0.7449 -0.5810
H2B H 0.4431 0.6856 -0.6413
C2B C 0.1163(8) 0.6423(3) -0.6967(5)
C3B C 0.0465(8) 0.7030(3) -0.8229(5)
H3B H 0.1812 0.7224 -0.8513
H4B H -0.0246 0.7543 -0.7936
C4B C 0.3995(8) 0.6434(3) -0.4521(5)
O4B O -0.0664(6) 0.6281(3) -0.6278(4)
O5B O 0.8845(6) 0.5179(2) -0.2988(4)
O5_2 O -0.8845(6) 0.4821(2) -0.7012(4)
O5B_2 O -0.1155(6) 0.5179(2) -0.2988(4)
O6_2 O 0.6668(6) 0.4467(2) -0.1849(4)
O6B O -0.6668(6) 0.5533(2) -0.8151(4)
O6B_2 O 0.3332(6) 0.5533(2) -0.8151(4)
C5B C 0.1908(8) 0.5536(3) -0.7418(5)
O7B O -0.8223(7) 0.4130(2) -1.0520(4)
O7_2 O 0.8223(7) 0.5870(2) 0.0520(4)
O7B_2 O 0.1777(7) 0.4130(2) -0.0520(4)
O8B O -0.8283(6) 0.2887(2) -0.9427(4)
O8_2 O 0.8283(6) 0.7113(2) -0.0573(4)
O8B_2 O 0.1717(6) 0.2887(2) 0.0573(4)
C6B C -0.1113(8) 0.6639(3) -0.9486(5)
H5B H -0.092(10) 0.672(4) -0.611(6)
H6B H 0.320(14) 0.586(5) -0.028(9)
H7B H 0.204(16) 0.545(7) -0.141(10)
loop_
_geom_bond_atom_site_label_1
_geom_bond_atom_site_label_2
_geom_bond_site_symmetry_1
_geom_bond_site_symmetry_2
Cd1 O1 1_555 1_555
Cd2 O1 1_555 1_555
O1 C4 1_555 1_555
O2 Cd1 1_555 1_555
O3 Cd1 1_555 1_555
C1 H1 1_555 1_555
H2 C1 1_555 1_555
C2 C1 1_555 1_555
C3 C2 1_555 1_555
H3 C3 1_555 1_555
H4 C3 1_555 1_555
C4 O2 1_555 1_555
O4 Cd2 1_555 1_555
O5 Cd2 1_555 1_555
O6 C5 1_555 1_555
C5 C2 1_555 1_555
O7 Cd1B_2 1_555 1_555
O8 Cd1B_2 1_555 1_555
C6 C3 1_555 1_555
H5 O4 1_555 1_555
H6 O3 1_555 1_555
H7 O3 1_555 1_555
Cd1B O1B 1_555 1_555
Cd1_2 O5 1_555 1_555
Cd1B_3 O6 1_555 1_555
Cd1_3 O7B_2 1_555 1_555
O1B Cd2 1_555 1_555
O2B Cd1B 1_555 1_555
O3B Cd1B 1_555 1_555
C1B H1B 1_555 1_555
H2B C1B 1_555 1_555
C2B C1B 1_555 1_555
C3B C2B 1_555 1_555
H3B C3B 1_555 1_555
H4B C3B 1_555 1_555
C4B O1B 1_555 1_555
O4B Cd2 1_555 1_555
O5B Cd1B 1_555 1_555
O5_2 Cd1 1_555 1_555
O5B_2 Cd2 1_555 1_555
O6_2 Cd1B 1_555 1_555
O6B Cd1 1_555 1_555
O6B_2 Cd1_2 1_555 1_555
C5B O5 1_555 1_555
O7B Cd1 1_555 1_555
O7_2 Cd1B 1_555 1_555
O7B_2 C6 1_555 1_555
O8B Cd1 1_555 1_555
O8_2 Cd1B 1_555 1_555
O8B_2 C6 1_555 1_555
C6B O7 1_555 1_555
H5B O4B 1_555 1_555
H6B O3B 1_555 1_555
H7B O3B 1_555 1_555
C1 C4 1_555 1_555
C2 O4 1_555 1_555
C5 O5B_2 1_555 1_555
O8 C6B 1_555 1_555
Cd1B_3 O5B_2 1_555 1_555
Cd1_3 O8B_2 1_555 1_555
O2B C4B 1_555 1_555
C1B C4B 1_555 1_555
C2B O4B 1_555 1_555
C2B C5B 1_555 1_555
C3B C6B 1_555 1_555
O6B_2 C5B 1_555 1_555

#END
