
#######################################################################
#
#                 Cambridge Crystallographic Data Centre
#                                CCDC 
#
#######################################################################
#
# If this CIF has been generated from an entry in the Cambridge 
# Structural Database, then it will include bibliographic, chemical, 
# crystal, experimental, refinement or atomic coordinate data resulting 
# from the CCDC's data processing and validation procedures.
#
#######################################################################

data_KALGAH
_symmetry_cell_setting           orthorhombic
_symmetry_space_group_name_H-M   'F d d 2'
_symmetry_Int_Tables_number      43
_space_group_name_Hall           'F 2 -2d'
loop_
_symmetry_equiv_pos_site_id
_symmetry_equiv_pos_as_xyz
1 x,y,z
2 -x,-y,z
3 1/4+x,1/4-y,1/4+z
4 1/4-x,1/4+y,1/4+z
5 x,1/2+y,1/2+z
6 -x,1/2-y,1/2+z
7 1/4+x,3/4-y,3/4+z
8 1/4-x,3/4+y,3/4+z
9 1/2+x,y,1/2+z
10 1/2-x,-y,1/2+z
11 3/4+x,1/4-y,3/4+z
12 3/4-x,1/4+y,3/4+z
13 1/2+x,1/2+y,z
14 1/2-x,1/2-y,z
15 3/4+x,3/4-y,1/4+z
16 3/4-x,3/4+y,1/4+z
_cell_length_a                   15.477(3)
_cell_length_b                   23.392(5)
_cell_length_c                   32.321(7)
_cell_angle_alpha                90
_cell_angle_beta                 90
_cell_angle_gamma                90
_cell_volume                     11701.4
loop_
_atom_site_label
_atom_site_type_symbol
_atom_site_fract_x
_atom_site_fract_y
_atom_site_fract_z
Ni1 Ni 0.11111(5) 0.00946(3) -0.09753(3)
O1 O 0.0823(3) -0.0662(2) -0.06860(15)
N1 N 0.1406(4) 0.0866(3) -0.1271(2)
C1 C 0.0841(4) 0.1296(3) -0.1326(2)
H1 H 0.0285 0.1259 -0.1212
C2 C 0.1036(5) 0.1781(3) -0.1536(3)
H2 H 0.0620 0.2072 -0.1557
N2 N -0.0219(4) 0.2372(3) -0.31399(19)
O2 O -0.0563(3) -0.0561(2) -0.05045(15)
C3 C 0.1842(4) 0.1853(3) -0.1723(2)
O3 O -0.1694(3) -0.1747(3) 0.06893(18)
C4 C 0.2413(5) 0.1416(3) -0.1665(2)
H3 H 0.2970 0.1443 -0.1779
O4 O -0.0679(3) -0.2187(2) 0.10750(14)
O5 O 0.0000 0.0000 -0.1341(2)
C5 C 0.2189(5) 0.0939(3) -0.1443(2)
H4 H 0.2603 0.0649 -0.1411
C6 C 0.2039(4) 0.2365(3) -0.1984(2)
H5 H 0.1601 0.2665 -0.1935
C7 C 0.2146(4) 0.2266(3) -0.2449(2)
H6 H 0.2419 0.1889 -0.2495
C8 C 0.1346(4) 0.2309(3) -0.2709(2)
C9 C 0.0723(5) 0.1870(3) -0.2683(3)
H7 H 0.0828 0.1542 -0.2523
C10 C -0.0035(5) 0.1931(4) -0.2895(3)
H8 H -0.0454 0.1642 -0.2867
C11 C 0.0355(6) 0.2790(4) -0.3172(3)
H9 H 0.0230 0.3106 -0.3341
C12 C 0.1144(5) 0.2773(4) -0.2960(3)
H10 H 0.1538 0.3077 -0.2988
C13 C 0.0307(3) -0.1178(3) -0.0111(2)
C14 C 0.1114(3) -0.1431(4) -0.0067(2)
H11 H 0.1563 -0.1338 -0.0251
C15 C 0.1257(3) -0.1821(4) 0.0250(3)
H12 H 0.1803 -0.1992 0.0281
C16 C 0.0594(4) -0.1958(4) 0.0522(2)
H13 H 0.0691 -0.2222 0.0737
C17 C -0.0214(3) -0.1705(3) 0.0478(2)
C18 C -0.0357(3) -0.1315(3) 0.0161(2)
H14 H -0.0903 -0.1144 0.0130
C19 C 0.0183(4) -0.0760(3) -0.0463(2)
C20 C -0.0923(5) -0.1894(3) 0.0768(2)
Ni1A Ni -0.11111(5) -0.00946(3) -0.09753(3)
Ni1J Ni -0.13889(5) 0.24054(3) -0.34753(3)
Ni1N Ni -0.13889(5) -0.25946(3) 0.15247(3)
Ni1M Ni 0.38889(5) 0.49054(3) -0.09753(3)
Ni1K Ni 0.63889(5) 0.25946(3) -0.34753(3)
Ni1C Ni 0.13889(5) 0.25946(3) 0.15247(3)
O1A O -0.0823(3) 0.0662(2) -0.06860(15)
O1J O -0.1677(3) 0.3162(2) -0.31860(15)
N1M N 0.3594(4) 0.4134(3) -0.1271(2)
N1J N -0.1094(4) 0.1634(3) -0.3771(2)
C1M C 0.4159(4) 0.3704(3) -0.1326(2)
H1M H 0.4715 0.3741 -0.1212
C2M C 0.3964(5) 0.3219(3) -0.1536(3)
H2M H 0.4380 0.2928 -0.1557
N2M N 0.5219(4) 0.2628(3) -0.31399(19)
N2B N 0.2281(4) 0.0128(3) -0.06399(19)
O2A O 0.0563(3) 0.0561(2) -0.05045(15)
O2K O -0.1937(3) 0.1939(2) -0.30045(15)
C3M C 0.3158(4) 0.3147(3) -0.1723(2)
O3A O 0.1694(3) 0.1747(3) 0.06893(18)
C4M C 0.2587(5) 0.3584(3) -0.1665(2)
H3M H 0.2030 0.3557 -0.1779
O4A O 0.0679(3) 0.2187(2) 0.10750(14)
O4F O 0.1821(3) -0.0313(2) -0.14250(14)
O4D O -0.0679(3) 0.2813(2) -0.39250(14)
O5J O -0.2500 0.2500 -0.3841(2)
C5M C 0.2811(5) 0.4061(3) -0.1443(2)
H4M H 0.2397 0.4351 -0.1411
C6M C 0.2961(4) 0.2635(3) -0.1984(2)
H5M H 0.3399 0.2335 -0.1935
C7M C 0.2854(4) 0.2734(3) -0.2449(2)
H6M H 0.2581 0.3111 -0.2495
C8M C 0.3654(4) 0.2691(3) -0.2709(2)
C9M C 0.4277(5) 0.3130(3) -0.2683(3)
H7M H 0.4172 0.3458 -0.2523
C10M C 0.5035(5) 0.3069(4) -0.2895(3)
H8M H 0.5454 0.3358 -0.2867
C11M C 0.4645(6) 0.2210(4) -0.3172(3)
H9M H 0.4770 0.1894 -0.3341
C12M C 0.3856(5) 0.2227(4) -0.2960(3)
H10M H 0.3462 0.1923 -0.2988
C13A C -0.0307(3) 0.1178(3) -0.0111(2)
C14A C -0.1114(3) 0.1431(4) -0.0067(2)
H11A H -0.1563 0.1338 -0.0251
C15A C -0.1257(3) 0.1821(4) 0.0250(3)
H12A H -0.1803 0.1992 0.0281
C16A C -0.0594(4) 0.1958(4) 0.0522(2)
H13A H -0.0691 0.2222 0.0737
C17A C 0.0214(3) 0.1705(3) 0.0478(2)
C18A C 0.0357(3) 0.1315(3) 0.0161(2)
H14A H 0.0903 0.1144 0.0130
C19A C -0.0183(4) 0.0760(3) -0.0463(2)
C20A C 0.0923(5) 0.1894(3) 0.0768(2)
C21 C 0.3133(14) -0.0310(14) 0.2386(7)
H15 H 0.2647 -0.0235 0.2552
C22 C 0.3936(16) -0.0394(12) 0.2568(5)
H16 H 0.3994 -0.0376 0.2857
C23 C 0.4654(13) -0.0506(6) 0.2322(7)
H17 H 0.5198 -0.0562 0.2445
C24 C 0.4569(13) -0.0534(12) 0.1895(7)
H18 H 0.5054 -0.0609 0.1729
C25 C 0.3765(16) -0.0450(15) 0.1712(5)
H19 H 0.3707 -0.0468 0.1423
C26 C 0.3047(13) -0.0338(11) 0.1958(7)
H20 H 0.2504 -0.0282 0.1835
C27 C 0.2539(19) -0.1429(15) 0.1098(7)
H21 H 0.2342 -0.1451 0.1373
C28 C 0.301(2) -0.1878(11) 0.0929(10)
H22 H 0.3131 -0.2203 0.1089
C29 C 0.3302(18) -0.1844(12) 0.0523(10)
H23 H 0.3621 -0.2148 0.0408
C30 C 0.3123(19) -0.1362(14) 0.0286(7)
H24 H 0.3321 -0.1340 0.0012
C31 C 0.2652(18) -0.0914(10) 0.0456(9)
H25 H 0.2531 -0.0588 0.0295
C32 C 0.2360(17) -0.0947(12) 0.0861(10)
H26 H 0.2042 -0.0644 0.0976
loop_
_geom_bond_atom_site_label_1
_geom_bond_atom_site_label_2
_geom_bond_site_symmetry_1
_geom_bond_site_symmetry_2
Ni1 O1 1_555 1_555
O1 C19 1_555 1_555
N1 Ni1 1_555 1_555
C1 N1 1_555 1_555
H1 C1 1_555 1_555
C2 C1 1_555 1_555
H2 C2 1_555 1_555
N2 C10 1_555 1_555
O2 C19 1_555 1_555
C3 C2 1_555 1_555
O3 C20 1_555 1_555
C4 C3 1_555 1_555
H3 C4 1_555 1_555
O4 C20 1_555 1_555
O5 Ni1 1_555 1_555
C5 N1 1_555 1_555
H4 C5 1_555 1_555
C6 C3 1_555 1_555
H5 C6 1_555 1_555
C7 C6 1_555 1_555
H6 C7 1_555 1_555
C8 C7 1_555 1_555
C9 C8 1_555 1_555
H7 C9 1_555 1_555
C10 C9 1_555 1_555
H8 C10 1_555 1_555
C11 N2 1_555 1_555
H9 C11 1_555 1_555
C12 C8 1_555 1_555
H10 C12 1_555 1_555
C13 C14 1_555 1_555
C14 H11 1_555 1_555
C15 C14 1_555 1_555
H12 C15 1_555 1_555
C16 C15 1_555 1_555
H13 C16 1_555 1_555
C17 C16 1_555 1_555
C18 C13 1_555 1_555
H14 C18 1_555 1_555
C19 C13 1_555 1_555
C20 C17 1_555 1_555
C21 H15 1_555 1_555
C22 C21 1_555 1_555
H16 C22 1_555 1_555
C23 C22 1_555 1_555
H17 C23 1_555 1_555
C24 C23 1_555 1_555
H18 C24 1_555 1_555
C25 C24 1_555 1_555
H19 C25 1_555 1_555
C26 C21 1_555 1_555
H20 C26 1_555 1_555
C27 H21 1_555 1_555
C28 C27 1_555 1_555
H22 C28 1_555 1_555
C29 C28 1_555 1_555
H23 C29 1_555 1_555
C30 C29 1_555 1_555
H24 C30 1_555 1_555
C31 C30 1_555 1_555
H25 C31 1_555 1_555
C32 C27 1_555 1_555
H26 C32 1_555 1_555
Ni1A O2 1_555 1_555
Ni1J N2 1_555 1_555
Ni1N O4 1_555 1_555
Ni1M N1M 1_555 1_555
Ni1K N2M 1_555 1_555
Ni1C O4A 1_555 1_555
O1A Ni1A 1_555 1_555
O1J Ni1J 1_555 1_555
N1M C1M 1_555 1_555
N1J Ni1J 1_555 1_555
C1M H1M 1_555 1_555
C2M C1M 1_555 1_555
H2M C2M 1_555 1_555
N2M C10M 1_555 1_555
N2B Ni1 1_555 1_555
O2A Ni1 1_555 1_555
O2K Ni1J 1_555 1_555
C3M C2M 1_555 1_555
O3A C20A 1_555 1_555
C4M C3M 1_555 1_555
H3M C4M 1_555 1_555
O4A C20A 1_555 1_555
O4F Ni1 1_555 1_555
O4D Ni1J 1_555 1_555
O5J Ni1J 1_555 1_555
C5M N1M 1_555 1_555
H4M C5M 1_555 1_555
C6M C6 1_555 1_555
H5M C6M 1_555 1_555
C7M C7 1_555 1_555
H6M C7M 1_555 1_555
C8M C7M 1_555 1_555
C9M C8M 1_555 1_555
H7M C9M 1_555 1_555
C10M C9M 1_555 1_555
H8M C10M 1_555 1_555
C11M N2M 1_555 1_555
H9M C11M 1_555 1_555
C12M C8M 1_555 1_555
H10M C12M 1_555 1_555
C13A C14A 1_555 1_555
C14A H11A 1_555 1_555
C15A C14A 1_555 1_555
H12A C15A 1_555 1_555
C16A C15A 1_555 1_555
H13A C16A 1_555 1_555
C17A C16A 1_555 1_555
C18A C13A 1_555 1_555
H14A C18A 1_555 1_555
C19A O1A 1_555 1_555
C20A C17A 1_555 1_555
C4 C5 1_555 1_555
O5 Ni1A 1_555 1_555
C11 C12 1_555 1_555
C17 C18 1_555 1_555
C25 C26 1_555 1_555
C31 C32 1_555 1_555
O2A C19A 1_555 1_555
C3M C6M 1_555 1_555
C4M C5M 1_555 1_555
C6M C7M 1_555 1_555
C11M C12M 1_555 1_555
C13A C19A 1_555 1_555
C17A C18A 1_555 1_555

#END
