
#######################################################################
#
#                 Cambridge Crystallographic Data Centre
#                                CCDC 
#
#######################################################################
#
# If this CIF has been generated from an entry in the Cambridge 
# Structural Database, then it will include bibliographic, chemical, 
# crystal, experimental, refinement or atomic coordinate data resulting 
# from the CCDC's data processing and validation procedures.
#
#######################################################################

data_KALHIO
_symmetry_cell_setting           monoclinic
_symmetry_space_group_name_H-M   'P 21/c'
_symmetry_Int_Tables_number      14
_space_group_name_Hall           '-P 2ybc'
loop_
_symmetry_equiv_pos_site_id
_symmetry_equiv_pos_as_xyz
1 x,y,z
2 -x,1/2+y,1/2-z
3 -x,-y,-z
4 x,1/2-y,1/2+z
_cell_length_a                   3.725(2)
_cell_length_b                   14.656(12)
_cell_length_c                   12.894(7)
_cell_angle_alpha                90
_cell_angle_beta                 95.66(5)
_cell_angle_gamma                90
_cell_volume                     700.498
loop_
_atom_site_label
_atom_site_type_symbol
_atom_site_fract_x
_atom_site_fract_y
_atom_site_fract_z
Cu1 Cu -0.4832(3) -0.25331(9) 0.02949(9)
Cl1 Cl -0.0243(6) -0.2850(2) -0.0763(2)
N1 N -0.454(2) -0.3536(5) 0.1426(6)
C1 C -0.562(2) -0.3422(6) 0.2374(7)
C2 C -0.585(3) -0.4112(7) 0.3077(7)
C3 C -0.483(3) -0.4978(6) 0.2785(8)
C4 C -0.369(2) -0.5123(6) 0.1794(9)
C5 C -0.346(2) -0.4390(6) 0.1169(7)
C6 C -0.507(3) -0.5766(8) 0.3497(9)
N2 N -0.519(2) -0.6355(6) 0.4015(8)
H1 H -0.638 -0.268 0.250
H2 H -0.649 -0.400 0.392
H3 H -0.232 -0.569 0.163
H4 H -0.256 -0.459 0.036
Cl1_2 Cl -1.0243(6) -0.2850(2) -0.0763(2)
Cu1_2 Cu 0.5168(3) -0.25331(9) 0.02949(9)
N2A N -0.481(2) -0.1355(6) 0.0985(8)
Cu1A Cu -0.5168(3) -0.75331(9) 0.47051(9)
loop_
_geom_bond_atom_site_label_1
_geom_bond_atom_site_label_2
_geom_bond_site_symmetry_1
_geom_bond_site_symmetry_2
Cu1 Cl1 1_555 1_555
Cl1 Cu1_2 1_555 1_555
N1 Cu1 1_555 1_555
C1 N1 1_555 1_555
C2 C1 1_555 1_555
C3 C2 1_555 1_555
C4 C3 1_555 1_555
C5 N1 1_555 1_555
C6 C3 1_555 1_555
N2 C6 1_555 1_555
H1 C1 1_555 1_555
H2 C2 1_555 1_555
H3 C4 1_555 1_555
H4 C5 1_555 1_555
Cl1_2 Cu1 1_555 1_555
N2A Cu1 1_555 1_555
Cu1A N2 1_555 1_555
C4 C5 1_555 1_555

#END
