
#######################################################################
#
#                 Cambridge Crystallographic Data Centre
#                                CCDC 
#
#######################################################################
#
# If this CIF has been generated from an entry in the Cambridge 
# Structural Database, then it will include bibliographic, chemical, 
# crystal, experimental, refinement or atomic coordinate data resulting 
# from the CCDC's data processing and validation procedures.
#
#######################################################################

data_KALHOU
_symmetry_cell_setting           monoclinic
_symmetry_space_group_name_H-M   'P 21/c'
_symmetry_Int_Tables_number      14
_space_group_name_Hall           '-P 2ybc'
loop_
_symmetry_equiv_pos_site_id
_symmetry_equiv_pos_as_xyz
1 x,y,z
2 -x,1/2+y,1/2-z
3 -x,-y,-z
4 x,1/2-y,1/2+z
_cell_length_a                   3.901(2)
_cell_length_b                   14.766(11)
_cell_length_c                   13.041(11)
_cell_angle_alpha                90
_cell_angle_beta                 96.77(6)
_cell_angle_gamma                90
_cell_volume                     745.952
loop_
_atom_site_label
_atom_site_type_symbol
_atom_site_fract_x
_atom_site_fract_y
_atom_site_fract_z
Cu1 Cu -0.5008(5) -0.2534(1) 0.0342(2)
Br1 Br -0.0493(4) -0.2837(1) -0.0780(1)
N1 N -0.474(3) -0.3545(9) 0.142(1)
C1 C -0.579(4) -0.347(1) 0.235(1)
C2 C -0.596(4) -0.415(1) 0.305(1)
C3 C -0.490(4) -0.500(1) 0.275(1)
C4 C -0.373(4) -0.513(1) 0.183(2)
C5 C -0.366(4) -0.440(1) 0.117(1)
C6 C -0.505(4) -0.575(1) 0.342(2)
N2 N -0.504(4) -0.636(1) 0.397(1)
H1 H -0.670 -0.284 0.233
H2 H -0.726 -0.409 0.366
H3 H -0.337 -0.586 0.159
H4 H -0.244 -0.452 0.060
Br1_2 Br -1.0493(4) -0.2837(1) -0.0780(1)
Cu1_2 Cu 0.4992(5) -0.2534(1) 0.0342(2)
N2A N -0.496(4) -0.136(1) 0.103(1)
Cu1A Cu -0.4992(5) -0.7534(1) 0.4658(2)
loop_
_geom_bond_atom_site_label_1
_geom_bond_atom_site_label_2
_geom_bond_site_symmetry_1
_geom_bond_site_symmetry_2
Cu1 Br1 1_555 1_555
Br1 Cu1_2 1_555 1_555
N1 Cu1 1_555 1_555
C1 N1 1_555 1_555
C2 C1 1_555 1_555
C3 C2 1_555 1_555
C4 C3 1_555 1_555
C5 N1 1_555 1_555
C6 C3 1_555 1_555
N2 C6 1_555 1_555
H1 C1 1_555 1_555
H2 C2 1_555 1_555
H3 C4 1_555 1_555
H4 C5 1_555 1_555
Br1_2 Cu1 1_555 1_555
N2A Cu1 1_555 1_555
Cu1A N2 1_555 1_555
C4 C5 1_555 1_555

#END
