
#######################################################################
#
#                 Cambridge Crystallographic Data Centre
#                                CCDC 
#
#######################################################################
#
# If this CIF has been generated from an entry in the Cambridge 
# Structural Database, then it will include bibliographic, chemical, 
# crystal, experimental, refinement or atomic coordinate data resulting 
# from the CCDC's data processing and validation procedures.
#
#######################################################################

data_KALMIT
_symmetry_cell_setting           monoclinic
_symmetry_space_group_name_H-M   'P 21/c'
_symmetry_Int_Tables_number      14
_space_group_name_Hall           '-P 2ybc'
loop_
_symmetry_equiv_pos_site_id
_symmetry_equiv_pos_as_xyz
1 x,y,z
2 -x,1/2+y,1/2-z
3 -x,-y,-z
4 x,1/2-y,1/2+z
_cell_length_a                   13.104(2)
_cell_length_b                   3.825(2)
_cell_length_c                   14.833(5)
_cell_angle_alpha                90
_cell_angle_beta                 110.30(2)
_cell_angle_gamma                90
_cell_volume                     697.294
loop_
_atom_site_label
_atom_site_type_symbol
_atom_site_fract_x
_atom_site_fract_y
_atom_site_fract_z
Cl1 Cl 0.5488(3) 0.5464(9) 0.1641(2)
Cu1 Cu 0.4402(1) 0.0511(5) 0.1729(1)
N1 N 0.3062(9) 0.039(3) 0.0559(7)
C1 C 0.2062(11) 0.168(3) 0.0486(9)
C2 C 0.1973(12) 0.303(4) 0.1391(10)
O1 O 0.1183(9) 0.448(3) 0.1453(7)
C3 C 0.1183(10) 0.169(4) -0.0359(10)
C4 C 0.1316(12) 0.042(4) -0.1185(9)
C5 C 0.2340(13) -0.088(4) -0.1105(9)
C6 C 0.3141(10) -0.088(4) -0.0248(9)
H1 H 0.261 0.280 0.198
H2 H 0.048 0.253 -0.036
H3 H 0.072 0.048 -0.179
H4 H 0.245 -0.183 -0.167
H5 H 0.384 -0.186 -0.021
Cu1_2 Cu 0.4402(1) 1.0511(5) 0.1729(1)
Cu1A Cu 0.5598(1) 0.5511(5) 0.3271(1)
Cl1_2 Cl 0.5488(3) -0.4536(9) 0.1641(2)
Cl1A Cl 0.4512(3) 0.0464(9) 0.3359(2)
Cl1A_2 Cl 0.4512(3) 1.0464(9) 0.3359(2)
N1A N 0.6938(9) 0.539(3) 0.4441(7)
Cu1A_2 Cu 0.5598(1) -0.4489(5) 0.3271(1)
C1A C 0.7938(11) 0.668(3) 0.4514(9)
C6A C 0.6859(10) 0.412(4) 0.5248(9)
C2A C 0.8027(12) 0.803(4) 0.3609(10)
C3A C 0.8817(10) 0.669(4) 0.5359(10)
C5A C 0.7660(13) 0.412(4) 0.6105(9)
H5A H 0.616 0.314 0.521
O1A O 0.8817(9) 0.948(3) 0.3547(7)
H1A H 0.739 0.780 0.302
C4A C 0.8684(12) 0.542(4) 0.6185(9)
H2A H 0.952 0.753 0.536
H4A H 0.755 0.317 0.667
H3A H 0.928 0.548 0.679
loop_
_geom_bond_atom_site_label_1
_geom_bond_atom_site_label_2
_geom_bond_site_symmetry_1
_geom_bond_site_symmetry_2
Cl1 Cu1 1_555 1_555
Cu1 N1 1_555 1_555
N1 C1 1_555 1_555
C1 C2 1_555 1_555
C2 O1 1_555 1_555
C3 C1 1_555 1_555
C4 C3 1_555 1_555
C5 C4 1_555 1_555
C6 N1 1_555 1_555
H1 C2 1_555 1_555
H2 C3 1_555 1_555
H3 C4 1_555 1_555
H4 C5 1_555 1_555
H5 C6 1_555 1_555
Cu1_2 Cl1 1_555 1_555
Cu1A Cl1 1_555 1_555
Cl1_2 Cu1 1_555 1_555
Cl1A Cu1 1_555 1_555
Cl1A_2 Cu1A 1_555 1_555
N1A Cu1A 1_555 1_555
Cu1A_2 Cl1A 1_555 1_555
C1A N1A 1_555 1_555
C6A N1A 1_555 1_555
C2A C1A 1_555 1_555
C3A C1A 1_555 1_555
C5A C6A 1_555 1_555
H5A C6A 1_555 1_555
O1A C2A 1_555 1_555
H1A C2A 1_555 1_555
C4A C3A 1_555 1_555
H2A C3A 1_555 1_555
H4A C5A 1_555 1_555
H3A C4A 1_555 1_555
C5 C6 1_555 1_555
Cu1A Cl1A 1_555 1_555
C5A C4A 1_555 1_555

#END
