
#######################################################################
#
#                 Cambridge Crystallographic Data Centre
#                                CCDC 
#
#######################################################################
#
# If this CIF has been generated from an entry in the Cambridge 
# Structural Database, then it will include bibliographic, chemical, 
# crystal, experimental, refinement or atomic coordinate data resulting 
# from the CCDC's data processing and validation procedures.
#
#######################################################################

data_KALMUF
_symmetry_cell_setting           triclinic
_symmetry_space_group_name_H-M   'P -1'
_symmetry_Int_Tables_number      2
_space_group_name_Hall           '-P 1'
loop_
_symmetry_equiv_pos_site_id
_symmetry_equiv_pos_as_xyz
1 x,y,z
2 -x,-y,-z
_cell_length_a                   12.331(4)
_cell_length_b                   7.808(3)
_cell_length_c                   4.210(1)
_cell_angle_alpha                102.89(3)
_cell_angle_beta                 97.64(3)
_cell_angle_gamma                97.01(3)
_cell_volume                     386.761
loop_
_atom_site_label
_atom_site_type_symbol
_atom_site_fract_x
_atom_site_fract_y
_atom_site_fract_z
I1 I -0.06383(4) 0.25793(5) 0.67877(9)
Cu1 Cu 0.05466(7) 0.39639(11) 0.29427(21)
N1 N 0.2033(5) 0.3025(6) 0.3123(13)
C1 C 0.2979(6) 0.3805(8) 0.5195(16)
C2 C 0.2913(7) 0.5447(10) 0.7660(20)
O1 O 0.3700(6) 0.6393(9) 0.9478(18)
C3 C 0.3952(6) 0.3120(11) 0.5171(21)
C4 C 0.3968(8) 0.1533(12) 0.2906(25)
C5 C 0.2994(8) 0.0710(10) 0.0794(22)
C6 C 0.2066(7) 0.1478(9) 0.0943(19)
Cu1_2 Cu 0.05466(7) 0.39639(11) 1.29427(21)
Cu1A Cu -0.05466(7) 0.60361(11) 0.70573(21)
I1_2 I -0.06383(4) 0.25793(5) -0.32123(9)
I1A I 0.06383(4) 0.74207(5) 0.32123(9)
loop_
_geom_bond_atom_site_label_1
_geom_bond_atom_site_label_2
_geom_bond_site_symmetry_1
_geom_bond_site_symmetry_2
I1 Cu1 1_555 1_555
Cu1 N1 1_555 1_555
N1 C1 1_555 1_555
C1 C2 1_555 1_555
C2 O1 1_555 1_555
C3 C1 1_555 1_555
C4 C3 1_555 1_555
C5 C4 1_555 1_555
C6 N1 1_555 1_555
Cu1_2 I1 1_555 1_555
Cu1A I1 1_555 1_555
I1_2 Cu1 1_555 1_555
I1A Cu1 1_555 1_555
C5 C6 1_555 1_555
Cu1A I1A 1_555 1_555

#END
