
#######################################################################
#
#                 Cambridge Crystallographic Data Centre
#                                CCDC 
#
#######################################################################
#
# If this CIF has been generated from an entry in the Cambridge 
# Structural Database, then it will include bibliographic, chemical, 
# crystal, experimental, refinement or atomic coordinate data resulting 
# from the CCDC's data processing and validation procedures.
#
#######################################################################

data_KALMOZ
_symmetry_cell_setting           triclinic
_symmetry_space_group_name_H-M   'P -1'
_symmetry_Int_Tables_number      2
_space_group_name_Hall           '-P 1'
loop_
_symmetry_equiv_pos_site_id
_symmetry_equiv_pos_as_xyz
1 x,y,z
2 -x,-y,-z
_cell_length_a                   12.361(3)
_cell_length_b                   7.828(2)
_cell_length_c                   3.947(1)
_cell_angle_alpha                103.16(2)
_cell_angle_beta                 96.10(2)
_cell_angle_gamma                99.89(2)
_cell_volume                     362.132
loop_
_atom_site_label
_atom_site_type_symbol
_atom_site_fract_x
_atom_site_fract_y
_atom_site_fract_z
Br1 Br -0.0590(1) 0.2702(2) 0.6732(3)
Cu1 Cu 0.0572(1) 0.4038(2) 0.2753(4)
N1 N 0.1981(8) 0.3076(12) 0.2931(24)
C1 C 0.2960(10) 0.3871(15) 0.5050(30)
C2 C 0.2964(12) 0.5649(16) 0.7446(35)
O1 O 0.3773(9) 0.6568(13) 0.9355(29)
C3 C 0.3867(11) 0.3101(17) 0.5113(37)
C4 C 0.3780(13) 0.1410(19) 0.2967(40)
C5 C 0.2787(13) 0.0560(16) 0.0855(39)
C6 C 0.1934(11) 0.1467(15) 0.0816(31)
H1 H 0.225 0.604 0.776
H2 H 0.458 0.370 0.670
H3 H 0.443 0.087 0.300
H4 H 0.277 -0.068 -0.042
H5 H 0.129 0.089 -0.094
Cu1_2 Cu 0.0572(1) 0.4038(2) 1.2753(4)
Cu1A Cu -0.0572(1) 0.5962(2) 0.7247(4)
Br1_2 Br -0.0590(1) 0.2702(2) -0.3268(3)
Br1A Br 0.0590(1) 0.7298(2) 0.3268(3)
Br1A_2 Br 0.0590(1) 0.7298(2) 1.3268(3)
N1A N -0.1981(8) 0.6924(12) 0.7069(24)
Cu1A_2 Cu -0.0572(1) 0.5962(2) -0.2753(4)
C1A C -0.2960(10) 0.6129(15) 0.4950(30)
C6A C -0.1934(11) 0.8533(15) 0.9184(31)
C2A C -0.2964(12) 0.4351(16) 0.2554(35)
C3A C -0.3867(11) 0.6899(17) 0.4887(37)
C5A C -0.2787(13) 0.9440(16) 0.9145(39)
H5A H -0.129 0.911 1.094
O1A O -0.3773(9) 0.3432(13) 0.0645(29)
H1A H -0.225 0.396 0.224
C4A C -0.3780(13) 0.8590(19) 0.7033(40)
H2A H -0.458 0.630 0.330
H4A H -0.277 1.068 1.042
H3A H -0.443 0.913 0.700
loop_
_geom_bond_atom_site_label_1
_geom_bond_atom_site_label_2
_geom_bond_site_symmetry_1
_geom_bond_site_symmetry_2
Br1 Cu1 1_555 1_555
Cu1 N1 1_555 1_555
N1 C1 1_555 1_555
C1 C2 1_555 1_555
C2 O1 1_555 1_555
C3 C1 1_555 1_555
C4 C3 1_555 1_555
C5 C4 1_555 1_555
C6 N1 1_555 1_555
H1 C2 1_555 1_555
H2 C3 1_555 1_555
H3 C4 1_555 1_555
H4 C5 1_555 1_555
H5 C6 1_555 1_555
Cu1_2 Br1 1_555 1_555
Cu1A Br1 1_555 1_555
Br1_2 Cu1 1_555 1_555
Br1A Cu1 1_555 1_555
Br1A_2 Cu1A 1_555 1_555
N1A Cu1A 1_555 1_555
Cu1A_2 Br1A 1_555 1_555
C1A N1A 1_555 1_555
C6A N1A 1_555 1_555
C2A C1A 1_555 1_555
C3A C1A 1_555 1_555
C5A C6A 1_555 1_555
H5A C6A 1_555 1_555
O1A C2A 1_555 1_555
H1A C2A 1_555 1_555
C4A C3A 1_555 1_555
H2A C3A 1_555 1_555
H4A C5A 1_555 1_555
H3A C4A 1_555 1_555
C5 C6 1_555 1_555
Cu1A Br1A 1_555 1_555
C5A C4A 1_555 1_555

#END
