
#######################################################################
#
#                 Cambridge Crystallographic Data Centre
#                                CCDC 
#
#######################################################################
#
# If this CIF has been generated from an entry in the Cambridge 
# Structural Database, then it will include bibliographic, chemical, 
# crystal, experimental, refinement or atomic coordinate data resulting 
# from the CCDC's data processing and validation procedures.
#
#######################################################################

data_KALMUG
_symmetry_cell_setting           triclinic
_symmetry_space_group_name_H-M   'P -1'
_symmetry_Int_Tables_number      2
_space_group_name_Hall           '-P 1'
loop_
_symmetry_equiv_pos_site_id
_symmetry_equiv_pos_as_xyz
1 x,y,z
2 -x,-y,-z
_cell_length_a                   8.118(2)
_cell_length_b                   9.416(2)
_cell_length_c                   10.535(2)
_cell_angle_alpha                112.18(2)
_cell_angle_beta                 92.350(10)
_cell_angle_gamma                104.770(10)
_cell_volume                     712.536
loop_
_atom_site_label
_atom_site_type_symbol
_atom_site_fract_x
_atom_site_fract_y
_atom_site_fract_z
Cu1 Cu 0.65034(5) 0.97387(5) 0.64639(4)
N1 N 0.6548(4) 0.7907(4) 0.4664(3)
C1 C 0.7685(5) 0.8140(4) 0.3828(4)
H1 H 0.8497 0.9140 0.4114
C2 C 0.7710(5) 0.6965(4) 0.2561(4)
H2 H 0.8532 0.7185 0.2018
C3 C 0.6508(5) 0.5447(4) 0.2090(3)
C4 C 0.6471(5) 0.4144(4) 0.0739(4)
C5 C 0.7531(6) 0.4377(5) -0.0211(4)
H3 H 0.8276 0.5389 -0.0019
C6 C 0.7481(6) 0.3108(5) -0.1441(4)
H4 H 0.8185 0.3299 -0.2069
N2 N 0.6464(4) 0.1616(4) -0.1769(3)
C7 C 0.5429(5) 0.1396(4) -0.0871(4)
H5 H 0.4692 0.0372 -0.1095
C8 C 0.5382(5) 0.2598(4) 0.0376(4)
H6 H 0.4631 0.2378 0.0966
C9 C 0.5340(5) 0.5204(4) 0.2984(4)
H7 H 0.4521 0.4214 0.2734
C10 C 0.5414(5) 0.6441(5) 0.4236(4)
H8 H 0.4634 0.6251 0.4818
O1 O 0.7323(4) 1.1500(3) 0.5513(3)
O2 O 0.5945(3) 1.1220(3) 0.3522(3)
C11 C 0.7266(5) 1.1752(4) 0.4453(4)
C12 C 0.8861(5) 1.2834(5) 0.4239(4)
H9 H 0.8896 1.3938 0.4776
H10 H 0.9864 1.2656 0.4615
C13 C 0.9016(6) 1.2628(6) 0.2750(5)
H11 H 0.9968 1.3498 0.2756
H12 H 0.7971 1.2708 0.2338
C14 C 0.9306(5) 1.1052(6) 0.1857(4)
H13 H 0.8403 1.0177 0.1900
H14 H 0.9238 1.0938 0.0901
C15 C 1.1043(5) 1.0946(5) 0.2325(4)
O3 O 1.1037(3) 0.9965(3) 0.2898(3)
O4 O 1.2384(4) 1.1820(4) 0.2186(4)
Cu1_2 Cu 0.65034(5) -0.02613(5) -0.35361(4)
Cu1A Cu 0.34966(5) 1.02613(5) 0.35361(4)
Cu1A_2 Cu 1.34966(5) 1.02613(5) 0.35361(4)
N2_2 N 0.6464(4) 1.1616(4) 0.8231(3)
O2A O 0.4055(3) 0.8780(3) 0.6478(3)
O3A O 0.8963(3) 1.0035(3) 0.7102(3)
loop_
_geom_bond_atom_site_label_1
_geom_bond_atom_site_label_2
_geom_bond_site_symmetry_1
_geom_bond_site_symmetry_2
Cu1 N1 1_555 1_555
N1 C1 1_555 1_555
C1 H1 1_555 1_555
C2 C1 1_555 1_555
H2 C2 1_555 1_555
C3 C2 1_555 1_555
C4 C3 1_555 1_555
C5 C4 1_555 1_555
H3 C5 1_555 1_555
C6 C5 1_555 1_555
H4 C6 1_555 1_555
N2 C6 1_555 1_555
C7 N2 1_555 1_555
H5 C7 1_555 1_555
C8 C4 1_555 1_555
H6 C8 1_555 1_555
C9 C3 1_555 1_555
H7 C9 1_555 1_555
C10 N1 1_555 1_555
H8 C10 1_555 1_555
O1 Cu1 1_555 1_555
O2 C11 1_555 1_555
C11 O1 1_555 1_555
C12 C11 1_555 1_555
H9 C12 1_555 1_555
H10 C12 1_555 1_555
C13 C12 1_555 1_555
H11 C13 1_555 1_555
H12 C13 1_555 1_555
C14 C13 1_555 1_555
H13 C14 1_555 1_555
H14 C14 1_555 1_555
C15 C14 1_555 1_555
O3 C15 1_555 1_555
O4 C15 1_555 1_555
Cu1_2 N2 1_555 1_555
Cu1A O2 1_555 1_555
Cu1A_2 O3 1_555 1_555
N2_2 Cu1 1_555 1_555
O2A Cu1 1_555 1_555
O3A Cu1 1_555 1_555
C7 C8 1_555 1_555
C9 C10 1_555 1_555

#END
