
#######################################################################
#
#                 Cambridge Crystallographic Data Centre
#                                CCDC 
#
#######################################################################
#
# If this CIF has been generated from an entry in the Cambridge 
# Structural Database, then it will include bibliographic, chemical, 
# crystal, experimental, refinement or atomic coordinate data resulting 
# from the CCDC's data processing and validation procedures.
#
#######################################################################

data_KALNIU
_symmetry_cell_setting           monoclinic
_symmetry_space_group_name_H-M   'P 21/c'
_symmetry_Int_Tables_number      14
_space_group_name_Hall           '-P 2ybc'
loop_
_symmetry_equiv_pos_site_id
_symmetry_equiv_pos_as_xyz
1 x,y,z
2 -x,1/2+y,1/2-z
3 -x,-y,-z
4 x,1/2-y,1/2+z
_cell_length_a                   3.954(2)
_cell_length_b                   24.542(7)
_cell_length_c                   11.922(6)
_cell_angle_alpha                90
_cell_angle_beta                 107.80(3)
_cell_angle_gamma                90
_cell_volume                     1101.52
loop_
_atom_site_label
_atom_site_type_symbol
_atom_site_fract_x
_atom_site_fract_y
_atom_site_fract_z
Br1 Br 0.4270(1) 0.49413(2) 0.16040(4)
Cu1 Cu 0.8281(2) 0.46233(3) 0.05246(6)
N1 N 0.7932(10) 0.3827(1) 0.0093(3)
C1 C 0.701(1) 0.3447(2) 0.0748(4)
C2 C 0.643(1) 0.2904(2) 0.0397(4)
C3 C 0.672(1) 0.2750(2) -0.0679(4)
C4 C 0.773(1) 0.3139(2) -0.1352(4)
C5 C 0.833(1) 0.3665(2) -0.0936(4)
C6 C 0.573(1) 0.2191(2) -0.1208(4)
O1 O 0.3908(10) 0.2175(1) -0.2238(7)
C7 C 0.686(1) 0.1689(2) -0.0511(4)
C8 C 0.943(1) 0.1688(2) 0.0596(4)
C9 C 1.044(1) 0.1204(2) 0.1192(4)
C10 C 0.891(1) 0.0717(2) 0.0701(4)
C11 C 0.644(1) 0.0714(2) -0.0400(4)
C12 C 0.542(1) 0.1193(2) -0.1000(4)
H1 H 0.671 0.356 0.151
H2 H 0.584 0.263 0.091
H3 H 0.800 0.304 -0.212
H4 H 0.908 0.394 -0.142
H5 H 1.050 0.203 0.095
H6 H 1.227 0.120 0.196
H7 H 0.959 0.038 0.115
H8 H 0.543 0.037 -0.075
H9 H 0.364 0.118 -0.177
Cu1_2 Cu -0.1719(2) 0.46233(3) 0.05246(6)
Cu1B Cu 0.1719(2) 0.53767(3) -0.05246(6)
Br1_2 Br 1.4270(1) 0.49413(2) 0.16040(4)
Br1B Br 0.5730(1) 0.50587(2) -0.16040(4)
Br1B_2 Br -0.4270(1) 0.50587(2) -0.16040(4)
N1B N 0.2068(10) 0.6173(1) -0.0093(3)
Cu1B_2 Cu 1.1719(2) 0.53767(3) -0.05246(6)
C1B C 0.299(1) 0.6553(2) -0.0748(4)
C5B C 0.167(1) 0.6335(2) 0.0936(4)
C2B C 0.357(1) 0.7096(2) -0.0397(4)
H1B H 0.329 0.644 -0.151
C4B C 0.227(1) 0.6861(2) 0.1352(4)
H4B H 0.092 0.606 0.142
C3B C 0.328(1) 0.7250(2) 0.0679(4)
H2B H 0.416 0.737 -0.091
H3B H 0.200 0.696 0.212
C6B C 0.427(1) 0.7809(2) 0.1208(4)
O1B O 0.6092(10) 0.7825(1) 0.2238(7)
C7B C 0.314(1) 0.8311(2) 0.0511(4)
C8B C 0.057(1) 0.8312(2) -0.0596(4)
C12B C 0.458(1) 0.8807(2) 0.1000(4)
C9B C -0.044(1) 0.8796(2) -0.1192(4)
H5B H -0.050 0.797 -0.095
C11B C 0.356(1) 0.9286(2) 0.0400(4)
H9B H 0.636 0.882 0.177
C10B C 0.109(1) 0.9283(2) -0.0701(4)
H6B H -0.227 0.880 -0.196
H8B H 0.457 0.963 0.075
H7B H 0.041 0.962 -0.115
loop_
_geom_bond_atom_site_label_1
_geom_bond_atom_site_label_2
_geom_bond_site_symmetry_1
_geom_bond_site_symmetry_2
Br1 Cu1 1_555 1_555
Cu1 N1 1_555 1_555
N1 C1 1_555 1_555
C1 C2 1_555 1_555
C2 C3 1_555 1_555
C3 C4 1_555 1_555
C4 C5 1_555 1_555
C5 N1 1_555 1_555
C6 C3 1_555 1_555
O1 C6 1_555 1_555
C7 C6 1_555 1_555
C8 C7 1_555 1_555
C9 C8 1_555 1_555
C10 C9 1_555 1_555
C11 C10 1_555 1_555
C12 C7 1_555 1_555
H1 C1 1_555 1_555
H2 C2 1_555 1_555
H3 C4 1_555 1_555
H4 C5 1_555 1_555
H5 C8 1_555 1_555
H6 C9 1_555 1_555
H7 C10 1_555 1_555
H8 C11 1_555 1_555
H9 C12 1_555 1_555
Cu1_2 Br1 1_555 1_555
Cu1B Br1 1_555 1_555
Br1_2 Cu1 1_555 1_555
Br1B Cu1 1_555 1_555
Br1B_2 Cu1B 1_555 1_555
N1B Cu1B 1_555 1_555
Cu1B_2 Br1B 1_555 1_555
C1B N1B 1_555 1_555
C5B N1B 1_555 1_555
C2B C1B 1_555 1_555
H1B C1B 1_555 1_555
C4B C5B 1_555 1_555
H4B C5B 1_555 1_555
C3B C2B 1_555 1_555
H2B C2B 1_555 1_555
H3B C4B 1_555 1_555
C6B C3B 1_555 1_555
O1B C6B 1_555 1_555
C7B C6B 1_555 1_555
C8B C7B 1_555 1_555
C12B C7B 1_555 1_555
C9B C8B 1_555 1_555
H5B C8B 1_555 1_555
C11B C12B 1_555 1_555
H9B C12B 1_555 1_555
C10B C9B 1_555 1_555
H6B C9B 1_555 1_555
H8B C11B 1_555 1_555
H7B C10B 1_555 1_555
C11 C12 1_555 1_555
Cu1B Br1B 1_555 1_555
C4B C3B 1_555 1_555
C11B C10B 1_555 1_555

#END
