
#######################################################################
#
#                 Cambridge Crystallographic Data Centre
#                                CCDC 
#
#######################################################################
#
# If this CIF has been generated from an entry in the Cambridge 
# Structural Database, then it will include bibliographic, chemical, 
# crystal, experimental, refinement or atomic coordinate data resulting 
# from the CCDC's data processing and validation procedures.
#
#######################################################################

data_KALNAM01
_symmetry_cell_setting           triclinic
_symmetry_space_group_name_H-M   'P -1'
_symmetry_Int_Tables_number      2
_space_group_name_Hall           '-P 1'
loop_
_symmetry_equiv_pos_site_id
_symmetry_equiv_pos_as_xyz
1 x,y,z
2 -x,-y,-z
_cell_length_a                   3.858(1)
_cell_length_b                   8.565(1)
_cell_length_c                   16.276(2)
_cell_angle_alpha                95.02(1)
_cell_angle_beta                 92.12(1)
_cell_angle_gamma                101.10(1)
_cell_volume                     524.937
loop_
_atom_site_label
_atom_site_type_symbol
_atom_site_fract_x
_atom_site_fract_y
_atom_site_fract_z
Cu1 Cu -0.36202(20) 0.35082(9) -0.49940(5)
Cl1 Cl -0.13056(30) 0.64977(13) -0.42277(8)
N1 N -0.3815(10) 0.2384(4) -0.3971(3)
O1 O -0.1186(11) 0.1337(4) -0.1129(2)
C1 C -0.4675(12) 0.3086(5) -0.3267(3)
C2 C -0.4500(12) 0.2472(5) -0.2521(3)
C3 C -0.3500(11) 0.0998(5) -0.2488(3)
C4 C -0.2699(12) 0.0244(5) -0.3222(3)
C5 C -0.2900(12) 0.0954(5) -0.3941(3)
C6 C -0.2969(12) 0.0428(5) -0.1660(3)
C7 C -0.4625(11) -0.1211(5) -0.1492(3)
C8 C -0.6723(12) -0.2270(5) -0.2094(3)
C9 C -0.8245(13) -0.3777(6) -0.1899(4)
C10 C -0.7756(14) -0.4231(6) -0.1126(4)
C11 C -0.5706(14) -0.3193(6) -0.0527(3)
C12 C -0.4153(13) -0.1688(5) -0.0709(3)
H1 H -0.5476 0.4077 -0.3286
H2 H -0.5035 0.3050 -0.2025
H3 H -0.1979 -0.0769 -0.3226
H4 H -0.2363 0.0404 -0.4445
H5 H -0.7126 -0.1954 -0.2635
H6 H -0.9665 -0.4518 -0.2313
H7 H -0.8854 -0.5281 -0.1001
H8 H -0.5359 -0.3512 0.0016
H9 H -0.2723 -0.0958 -0.0292
Cu1A Cu -0.63798(20) 0.64918(9) -0.50060(5)
Cl1A Cl -0.86944(30) 0.35023(13) -0.57723(8)
Cu1A_2 Cu 0.36202(20) 0.64918(9) -0.50060(5)
Cu1_2 Cu 0.63798(20) 0.35082(9) -0.49940(5)
Cl1A_2 Cl 0.13056(30) 0.35023(13) -0.57723(8)
Cl1_2 Cl 0.86944(30) 0.64977(13) -0.42277(8)
N1A N 0.3815(10) 0.7616(4) -0.6029(3)
C1A C 0.4675(12) 0.6914(5) -0.6733(3)
C2A C 0.4500(12) 0.7528(5) -0.7479(3)
C3A C 0.3500(11) 0.9002(5) -0.7512(3)
C4A C 0.2699(12) 0.9756(5) -0.6778(3)
C5A C 0.2900(12) 0.9046(5) -0.6059(3)
H4A H 0.2363 0.9596 -0.5555
H3A H 0.1979 1.0769 -0.6774
C6A C 0.2969(12) 0.9572(5) -0.8340(3)
O1A O 0.1186(11) 0.8663(4) -0.8871(2)
C7A C 0.4625(11) 1.1211(5) -0.8508(3)
C8A C 0.6723(12) 1.2270(5) -0.7906(3)
C9A C 0.8245(13) 1.3777(6) -0.8101(4)
C10A C 0.7756(14) 1.4231(6) -0.8874(4)
C11A C 0.5706(14) 1.3193(6) -0.9473(3)
C12A C 0.4153(13) 1.1688(5) -0.9291(3)
H9A H 0.2723 1.0958 -0.9708
H8A H 0.5359 1.3512 -1.0016
H7A H 0.8854 1.5281 -0.8999
H6A H 0.9665 1.4518 -0.7687
H5A H 0.7126 1.1954 -0.7365
H2A H 0.5035 0.6950 -0.7975
H1A H 0.5476 0.5923 -0.6714
loop_
_geom_bond_atom_site_label_1
_geom_bond_atom_site_label_2
_geom_bond_site_symmetry_1
_geom_bond_site_symmetry_2
Cu1 Cl1 1_555 1_555
Cl1 Cu1A 1_555 1_555
N1 Cu1 1_555 1_555
O1 C6 1_555 1_555
C1 N1 1_555 1_555
C2 C1 1_555 1_555
C3 C2 1_555 1_555
C4 C3 1_555 1_555
C5 N1 1_555 1_555
C6 C3 1_555 1_555
C7 C6 1_555 1_555
C8 C7 1_555 1_555
C9 C8 1_555 1_555
C10 C9 1_555 1_555
C11 C10 1_555 1_555
C12 C7 1_555 1_555
H1 C1 1_555 1_555
H2 C2 1_555 1_555
H3 C4 1_555 1_555
H4 C5 1_555 1_555
H5 C8 1_555 1_555
H6 C9 1_555 1_555
H7 C10 1_555 1_555
H8 C11 1_555 1_555
H9 C12 1_555 1_555
Cu1A Cl1A 1_555 1_555
Cl1A Cu1 1_555 1_555
Cu1A_2 Cl1 1_555 1_555
Cu1_2 Cl1A_2 1_555 1_555
Cl1A_2 Cu1 1_555 1_555
Cl1_2 Cu1A_2 1_555 1_555
N1A Cu1A_2 1_555 1_555
C1A N1A 1_555 1_555
C2A C1A 1_555 1_555
C3A C2A 1_555 1_555
C4A C3A 1_555 1_555
C5A N1A 1_555 1_555
H4A C5A 1_555 1_555
H3A C4A 1_555 1_555
C6A C3A 1_555 1_555
O1A C6A 1_555 1_555
C7A C6A 1_555 1_555
C8A C7A 1_555 1_555
C9A C8A 1_555 1_555
C10A C9A 1_555 1_555
C11A C10A 1_555 1_555
C12A C7A 1_555 1_555
H9A C12A 1_555 1_555
H8A C11A 1_555 1_555
H7A C10A 1_555 1_555
H6A C9A 1_555 1_555
H5A C8A 1_555 1_555
H2A C2A 1_555 1_555
H1A C1A 1_555 1_555
C4 C5 1_555 1_555
C11 C12 1_555 1_555
Cu1A_2 Cl1A_2 1_555 1_555
Cu1_2 Cl1_2 1_555 1_555
C4A C5A 1_555 1_555
C11A C12A 1_555 1_555

#END
