
#######################################################################
#
#                 Cambridge Crystallographic Data Centre
#                                CCDC 
#
#######################################################################
#
# If this CIF has been generated from an entry in the Cambridge 
# Structural Database, then it will include bibliographic, chemical, 
# crystal, experimental, refinement or atomic coordinate data resulting 
# from the CCDC's data processing and validation procedures.
#
#######################################################################

data_KALNIV
_symmetry_cell_setting           triclinic
_symmetry_space_group_name_H-M   'P -1'
_symmetry_Int_Tables_number      2
_space_group_name_Hall           '-P 1'
loop_
_symmetry_equiv_pos_site_id
_symmetry_equiv_pos_as_xyz
1 x,y,z
2 -x,-y,-z
_cell_length_a                   10.004(2)
_cell_length_b                   10.098(2)
_cell_length_c                   10.400(2)
_cell_angle_alpha                110.66(3)
_cell_angle_beta                 91.42(3)
_cell_angle_gamma                110.96(3)
_cell_volume                     904.19
loop_
_atom_site_label
_atom_site_type_symbol
_atom_site_fract_x
_atom_site_fract_y
_atom_site_fract_z
Mn1 Mn 0.62993(4) 0.63856(4) 0.92300(3)
N1 N 0.6214(2) 0.4379(2) 0.7262(2)
C1 C 0.5475(3) 0.4037(3) 0.6019(2)
H1 H 0.4923 0.4595 0.5975
C2 C 0.5486(3) 0.2898(3) 0.4794(2)
H2 H 0.4963 0.2710 0.3952
C3 C 0.6295(2) 0.2038(2) 0.4845(2)
C4 C 0.6324(2) 0.0780(2) 0.3570(2)
C5 C 0.6039(3) 0.0740(3) 0.2243(3)
H3 H 0.5823 0.1515 0.2123
C6 C 0.6080(3) -0.0468(3) 0.1097(3)
H4 H 0.5896 -0.0470 0.0215
N2 N 0.6368(2) -0.1623(2) 0.1186(2)
C7 C 0.6675(3) -0.1553(3) 0.2459(2)
H5 H 0.6908 -0.2334 0.2547
C8 C 0.6674(3) -0.0397(3) 0.3665(2)
H6 H 0.6905 -0.0407 0.4532
C9 C 0.7056(3) 0.2391(3) 0.6130(3)
H7 H 0.7610 0.1845 0.6208
C10 C 0.6992(3) 0.3552(3) 0.7299(3)
H8 H 0.7514 0.3770 0.8152
O1 O 0.8771(2) 0.7356(2) 0.9285(2)
O2 O 0.7391(2) 0.8021(2) 0.8201(2)
C11 C 0.8615(3) 0.8010(3) 0.8512(3)
C12 C 0.9892(3) 0.8812(3) 0.7933(3)
H9 H 1.0655 0.8453 0.8020
H10 H 1.0271 0.9909 0.8487
C13 C 0.9498(3) 0.8535(3) 0.6413(3)
H11 H 0.8593 0.8657 0.6281
H12 H 1.0248 0.9300 0.6183
C14 C 0.9338(3) 0.6942(3) 0.5433(3)
H13 H 1.0263 0.6849 0.5535
H14 H 0.8636 0.6186 0.5711
C15 C 0.8859(3) 0.6576(3) 0.3920(3)
H15 H 0.9522 0.7371 0.3659
H16 H 0.7902 0.6596 0.3807
C16 C 0.8801(3) 0.5030(4) 0.2941(3)
H17 H 0.8164 0.4236 0.3220
H18 H 0.9766 0.5021 0.3027
C17 C 0.8266(3) 0.4652(4) 0.1428(3)
H19 H 0.8893 0.5457 0.1154
H20 H 0.8340 0.3697 0.0850
C18 C 0.6734(3) 0.4498(3) 0.1159(2)
O3 O 0.6393(4) 0.5081(3) 0.0405(2)
O4 O 0.5784(2) 0.3747(2) 0.1671(2)
Mn1_2 Mn 0.62993(4) -0.36144(4) -0.07700(3)
Mn1_3 Mn 0.62993(4) 0.63856(4) -0.07700(3)
Mn1A Mn 0.37007(4) 0.36144(4) 0.07700(3)
N2_2 N 0.6368(2) 0.8377(2) 1.1186(2)
O3_2 O 0.6393(4) 0.5081(3) 1.0405(2)
O4A O 0.4216(2) 0.6253(2) 0.8329(2)
O5 O 0.8392(4) 1.1494(4) 0.8706(4)
H21 H 0.8122 1.0541 0.8571
H22 H 0.9272 1.1713 0.9183
loop_
_geom_bond_atom_site_label_1
_geom_bond_atom_site_label_2
_geom_bond_site_symmetry_1
_geom_bond_site_symmetry_2
Mn1 N1 1_555 1_555
N1 C1 1_555 1_555
C1 H1 1_555 1_555
C2 C1 1_555 1_555
H2 C2 1_555 1_555
C3 C2 1_555 1_555
C4 C3 1_555 1_555
C5 C4 1_555 1_555
H3 C5 1_555 1_555
C6 C5 1_555 1_555
H4 C6 1_555 1_555
N2 C6 1_555 1_555
C7 N2 1_555 1_555
H5 C7 1_555 1_555
C8 C4 1_555 1_555
H6 C8 1_555 1_555
C9 C3 1_555 1_555
H7 C9 1_555 1_555
C10 N1 1_555 1_555
H8 C10 1_555 1_555
O1 Mn1 1_555 1_555
O2 Mn1 1_555 1_555
C11 O1 1_555 1_555
C12 C11 1_555 1_555
H9 C12 1_555 1_555
H10 C12 1_555 1_555
C13 C12 1_555 1_555
H11 C13 1_555 1_555
H12 C13 1_555 1_555
C14 C13 1_555 1_555
H13 C14 1_555 1_555
H14 C14 1_555 1_555
C15 C14 1_555 1_555
H15 C15 1_555 1_555
H16 C15 1_555 1_555
C16 C15 1_555 1_555
H17 C16 1_555 1_555
H18 C16 1_555 1_555
C17 C16 1_555 1_555
H19 C17 1_555 1_555
H20 C17 1_555 1_555
C18 C17 1_555 1_555
O3 C18 1_555 1_555
O4 C18 1_555 1_555
O5 H21 1_555 1_555
H22 O5 1_555 1_555
Mn1_2 N2 1_555 1_555
Mn1_3 O3 1_555 1_555
Mn1A O4 1_555 1_555
N2_2 Mn1 1_555 1_555
O3_2 Mn1 1_555 1_555
O4A Mn1 1_555 1_555
C7 C8 1_555 1_555
C9 C10 1_555 1_555
O2 C11 1_555 1_555

#END
