
#######################################################################
#
#                 Cambridge Crystallographic Data Centre
#                                CCDC 
#
#######################################################################
#
# If this CIF has been generated from an entry in the Cambridge 
# Structural Database, then it will include bibliographic, chemical, 
# crystal, experimental, refinement or atomic coordinate data resulting 
# from the CCDC's data processing and validation procedures.
#
#######################################################################

data_KALNOA
_symmetry_cell_setting           monoclinic
_symmetry_space_group_name_H-M   'P 21/c'
_symmetry_Int_Tables_number      14
_space_group_name_Hall           '-P 2ybc'
loop_
_symmetry_equiv_pos_site_id
_symmetry_equiv_pos_as_xyz
1 x,y,z
2 -x,1/2+y,1/2-z
3 -x,-y,-z
4 x,1/2-y,1/2+z
_cell_length_a                   4.178(3)
_cell_length_b                   24.65(1)
_cell_length_c                   11.698(7)
_cell_angle_alpha                90
_cell_angle_beta                 104.94(5)
_cell_angle_gamma                90
_cell_volume                     1164.03
loop_
_atom_site_label
_atom_site_type_symbol
_atom_site_fract_x
_atom_site_fract_y
_atom_site_fract_z
I1 I 0.3633(2) 0.48356(3) 0.17206(8)
Cu1 Cu 0.7689(4) 0.46387(6) 0.0349(1)
N1 N 0.729(2) 0.3833(4) -0.0120(9)
C1 C 0.930(3) 0.3450(5) 0.047(1)
C2 C 0.914(3) 0.2902(5) 0.013(1)
C3 C 0.680(3) 0.2759(5) -0.092(1)
C4 C 0.472(3) 0.3156(5) -0.151(1)
C5 C 0.500(3) 0.3677(5) -0.109(1)
C6 C 0.664(3) 0.2199(6) -0.141(1)
O1 O 0.560(3) 0.2152(4) -0.2485(9)
C7 C 0.769(3) 0.1719(5) -0.067(1)
C8 C 0.737(3) 0.1689(5) 0.049(1)
C9 C 0.827(4) 0.1208(5) 0.113(1)
C10 C 0.961(4) 0.0786(5) 0.066(1)
C11 C 1.002(4) 0.0821(5) -0.046(1)
C12 C 0.902(4) 0.1272(6) -0.111(1)
H1 H 1.104 0.356 0.121
H2 H 1.060 0.262 0.059
H3 H 0.297 0.305 -0.224
H4 H 0.335 0.395 -0.151
H5 H 0.646 0.201 0.083
H6 H 0.805 0.118 0.197
H7 H 1.021 0.045 0.113
H8 H 1.111 0.053 -0.076
H9 H 0.926 0.128 -0.194
Cu1_2 Cu -0.2311(4) 0.46387(6) 0.0349(1)
Cu1B Cu 0.2311(4) 0.53613(6) -0.0349(1)
I1_2 I 1.3633(2) 0.48356(3) 0.17206(8)
I1B I 0.6367(2) 0.51644(3) -0.17206(8)
I1B_2 I -0.3633(2) 0.51644(3) -0.17206(8)
N1B N 0.271(2) 0.6167(4) 0.0120(9)
Cu1B_2 Cu 1.2311(4) 0.53613(6) -0.0349(1)
C1B C 0.070(3) 0.6550(5) -0.047(1)
C5B C 0.500(3) 0.6323(5) 0.109(1)
C2B C 0.086(3) 0.7098(5) -0.013(1)
H1B H -0.104 0.644 -0.121
C4B C 0.528(3) 0.6844(5) 0.151(1)
H4B H 0.665 0.605 0.151
C3B C 0.320(3) 0.7241(5) 0.092(1)
H2B H -0.060 0.738 -0.059
H3B H 0.703 0.695 0.224
C6B C 0.336(3) 0.7801(6) 0.141(1)
O1B O 0.440(3) 0.7848(4) 0.2485(9)
C7B C 0.231(3) 0.8281(5) 0.067(1)
C8B C 0.263(3) 0.8311(5) -0.049(1)
C12B C 0.098(4) 0.8728(6) 0.111(1)
C9B C 0.173(4) 0.8792(5) -0.113(1)
H5B H 0.354 0.799 -0.083
C11B C -0.002(4) 0.9179(5) 0.046(1)
H9B H 0.074 0.872 0.194
C10B C 0.039(4) 0.9214(5) -0.066(1)
H6B H 0.195 0.882 -0.197
H8B H -0.111 0.947 0.076
H7B H -0.021 0.955 -0.113
loop_
_geom_bond_atom_site_label_1
_geom_bond_atom_site_label_2
_geom_bond_site_symmetry_1
_geom_bond_site_symmetry_2
I1 Cu1 1_555 1_555
Cu1 N1 1_555 1_555
N1 C1 1_555 1_555
C1 C2 1_555 1_555
C2 C3 1_555 1_555
C3 C4 1_555 1_555
C4 C5 1_555 1_555
C5 N1 1_555 1_555
C6 C3 1_555 1_555
O1 C6 1_555 1_555
C7 C6 1_555 1_555
C8 C7 1_555 1_555
C9 C8 1_555 1_555
C10 C9 1_555 1_555
C11 C10 1_555 1_555
C12 C7 1_555 1_555
H1 C1 1_555 1_555
H2 C2 1_555 1_555
H3 C4 1_555 1_555
H4 C5 1_555 1_555
H5 C8 1_555 1_555
H6 C9 1_555 1_555
H7 C10 1_555 1_555
H8 C11 1_555 1_555
H9 C12 1_555 1_555
Cu1_2 I1 1_555 1_555
Cu1B I1 1_555 1_555
I1_2 Cu1 1_555 1_555
I1B Cu1 1_555 1_555
I1B_2 Cu1B 1_555 1_555
N1B Cu1B 1_555 1_555
Cu1B_2 I1B 1_555 1_555
C1B N1B 1_555 1_555
C5B N1B 1_555 1_555
C2B C1B 1_555 1_555
H1B C1B 1_555 1_555
C4B C5B 1_555 1_555
H4B C5B 1_555 1_555
C3B C2B 1_555 1_555
H2B C2B 1_555 1_555
H3B C4B 1_555 1_555
C6B C3B 1_555 1_555
O1B C6B 1_555 1_555
C7B C6B 1_555 1_555
C8B C7B 1_555 1_555
C12B C7B 1_555 1_555
C9B C8B 1_555 1_555
H5B C8B 1_555 1_555
C11B C12B 1_555 1_555
H9B C12B 1_555 1_555
C10B C9B 1_555 1_555
H6B C9B 1_555 1_555
H8B C11B 1_555 1_555
H7B C10B 1_555 1_555
C11 C12 1_555 1_555
Cu1B I1B 1_555 1_555
C4B C3B 1_555 1_555
C11B C10B 1_555 1_555

#END
