
#######################################################################
#
#                 Cambridge Crystallographic Data Centre
#                                CCDC 
#
#######################################################################
#
# If this CIF has been generated from an entry in the Cambridge 
# Structural Database, then it will include bibliographic, chemical, 
# crystal, experimental, refinement or atomic coordinate data resulting 
# from the CCDC's data processing and validation procedures.
#
#######################################################################

data_KALNUG
_symmetry_cell_setting           monoclinic
_symmetry_space_group_name_H-M   'P 21/n'
_symmetry_Int_Tables_number      14
_space_group_name_Hall           '-P 2yn'
loop_
_symmetry_equiv_pos_site_id
_symmetry_equiv_pos_as_xyz
1 x,y,z
2 1/2-x,1/2+y,1/2-z
3 -x,-y,-z
4 1/2+x,1/2-y,1/2+z
_cell_length_a                   4.235(2)
_cell_length_b                   17.452(5)
_cell_length_c                   9.231(4)
_cell_angle_alpha                90
_cell_angle_beta                 93.51(3)
_cell_angle_gamma                90
_cell_volume                     680.976
loop_
_atom_site_label
_atom_site_type_symbol
_atom_site_fract_x
_atom_site_fract_y
_atom_site_fract_z
Br1 Br 1.2991(2) -0.09303(5) 0.62552(2)
Ag1 Ag 0.7543(2) -0.06264(5) 0.45331(7)
N1 N 0.890(1) -0.1163(4) 0.2399(6)
C1 C 1.061(2) -0.1790(5) 0.2377(8)
C2 C 1.156(2) -0.2121(5) 0.115(1)
C3 C 1.067(2) -0.1782(7) -0.016(1)
C4 C 0.884(2) -0.1133(7) -0.0192(9)
C5 C 0.805(2) -0.0844(6) 0.1139(9)
H1 H 1.124 -0.201 0.328
H2 H 1.282 -0.258 0.120
H3 H 1.130 -0.200 -0.104
H4 H 0.813 -0.090 -0.108
H5 H 0.680 -0.038 0.114
Ag1_2 Ag 1.7543(2) -0.06264(5) 0.45331(7)
Ag1B Ag 1.2457(2) 0.06264(5) 0.54669(7)
Br1_2 Br 0.2991(2) -0.09303(5) 0.62552(2)
Br1B Br 0.7009(2) 0.09303(5) 0.37448(2)
Br1B_2 Br 1.7009(2) 0.09303(5) 0.37448(2)
N1B N 1.110(1) 0.1163(4) 0.7601(6)
Ag1B_2 Ag 0.2457(2) 0.06264(5) 0.54669(7)
C1B C 0.939(2) 0.1790(5) 0.7623(8)
C5B C 1.195(2) 0.0844(6) 0.8861(9)
C2B C 0.844(2) 0.2121(5) 0.885(1)
H1B H 0.876 0.201 0.672
C4B C 1.116(2) 0.1133(7) 1.0192(9)
H5B H 1.320 0.038 0.886
C3B C 0.933(2) 0.1782(7) 1.016(1)
H2B H 0.718 0.258 0.880
H4B H 1.187 0.090 1.108
H3B H 0.870 0.200 1.104
loop_
_geom_bond_atom_site_label_1
_geom_bond_atom_site_label_2
_geom_bond_site_symmetry_1
_geom_bond_site_symmetry_2
Br1 Ag1 1_555 1_555
Ag1 N1 1_555 1_555
N1 C1 1_555 1_555
C1 C2 1_555 1_555
C2 C3 1_555 1_555
C3 C4 1_555 1_555
C4 C5 1_555 1_555
C5 N1 1_555 1_555
H1 C1 1_555 1_555
H2 C2 1_555 1_555
H3 C3 1_555 1_555
H4 C4 1_555 1_555
H5 C5 1_555 1_555
Ag1_2 Br1 1_555 1_555
Ag1B Br1 1_555 1_555
Br1_2 Ag1 1_555 1_555
Br1B Ag1 1_555 1_555
Br1B_2 Ag1B 1_555 1_555
N1B Ag1B 1_555 1_555
Ag1B_2 Br1B 1_555 1_555
C1B N1B 1_555 1_555
C5B N1B 1_555 1_555
C2B C1B 1_555 1_555
H1B C1B 1_555 1_555
C4B C5B 1_555 1_555
H5B C5B 1_555 1_555
C3B C2B 1_555 1_555
H2B C2B 1_555 1_555
H4B C4B 1_555 1_555
H3B C3B 1_555 1_555
Ag1B Br1B 1_555 1_555
C4B C3B 1_555 1_555

#END
