
#######################################################################
#
#                 Cambridge Crystallographic Data Centre
#                                CCDC 
#
#######################################################################
#
# If this CIF has been generated from an entry in the Cambridge 
# Structural Database, then it will include bibliographic, chemical, 
# crystal, experimental, refinement or atomic coordinate data resulting 
# from the CCDC's data processing and validation procedures.
#
#######################################################################

data_KALNAN
_symmetry_cell_setting           triclinic
_symmetry_space_group_name_H-M   'P -1'
_symmetry_Int_Tables_number      2
_space_group_name_Hall           '-P 1'
loop_
_symmetry_equiv_pos_site_id
_symmetry_equiv_pos_as_xyz
1 x,y,z
2 -x,-y,-z
_cell_length_a                   7.9690(16)
_cell_length_b                   9.5010(19)
_cell_length_c                   10.368(2)
_cell_angle_alpha                109.88(3)
_cell_angle_beta                 92.86(3)
_cell_angle_gamma                104.60(3)
_cell_volume                     706.403
loop_
_atom_site_label
_atom_site_type_symbol
_atom_site_fract_x
_atom_site_fract_y
_atom_site_fract_z
Zn1 Zn 0.65775(3) 0.98115(3) 0.63905(2)
N1 N 0.6613(3) 0.7900(2) 0.4521(2)
C1 C 0.7714(3) 0.8129(3) 0.3635(3)
H1 H 0.8506 0.9113 0.3864
C2 C 0.7736(3) 0.6980(3) 0.2397(3)
H2 H 0.8525 0.7201 0.1812
C3 C 0.6578(3) 0.5487(3) 0.2018(2)
C4 C 0.6521(3) 0.4220(3) 0.0691(2)
C5 C 0.7542(4) 0.4459(3) -0.0308(3)
H3 H 0.8270 0.5450 -0.0163
C6 C 0.7474(4) 0.3228(3) -0.1510(3)
H4 H 0.8166 0.3422 -0.2161
N2 N 0.6470(3) 0.1771(2) -0.1794(2)
C7 C 0.5471(4) 0.1539(3) -0.0848(3)
H5 H 0.4747 0.0537 -0.1029
C8 C 0.5455(4) 0.2703(3) 0.0384(3)
H6 H 0.4734 0.2477 0.1008
C9 C 0.5460(4) 0.5245(3) 0.2967(3)
H7 H 0.4676 0.4266 0.2780
C10 C 0.5523(4) 0.6457(3) 0.4176(3)
H8 H 0.4766 0.6267 0.4791
O1 O 0.7340(3) 1.1380(2) 0.5456(2)
O2 O 0.5921(2) 1.1249(2) 0.34865(18)
C11 C 0.7251(3) 1.1695(2) 0.4381(2)
C12 C 0.8890(4) 1.2802(3) 0.4225(3)
H9 H 0.8932 1.3856 0.4811
H10 H 0.9897 1.2566 0.4573
C13 C 0.9076(4) 1.2772(4) 0.2767(3)
H11 H 1.0033 1.3664 0.2821
H12 H 0.8011 1.2884 0.2371
C14 C 0.9416(4) 1.1303(4) 0.1805(3)
H13 H 0.8451 1.0407 0.1730
H14 H 0.9465 1.1353 0.0888
C15 C 1.1120(3) 1.1083(3) 0.2313(3)
O3 O 1.0994(3) 1.0018(2) 0.2789(2)
O4 O 1.2535(3) 1.1952(4) 0.2300(3)
Zn1_2 Zn 0.65775(3) -0.01885(3) -0.36095(2)
Zn1A Zn 0.34225(3) 1.01885(3) 0.36095(2)
Zn1A_2 Zn 1.34225(3) 1.01885(3) 0.36095(2)
N2_2 N 0.6470(3) 1.1771(2) 0.8206(2)
O2A O 0.4079(2) 0.8751(2) 0.65135(18)
O3A O 0.9006(3) 0.9982(2) 0.7211(2)
loop_
_geom_bond_atom_site_label_1
_geom_bond_atom_site_label_2
_geom_bond_site_symmetry_1
_geom_bond_site_symmetry_2
Zn1 N1 1_555 1_555
N1 C1 1_555 1_555
C1 H1 1_555 1_555
C2 C1 1_555 1_555
H2 C2 1_555 1_555
C3 C2 1_555 1_555
C4 C3 1_555 1_555
C5 C4 1_555 1_555
H3 C5 1_555 1_555
C6 C5 1_555 1_555
H4 C6 1_555 1_555
N2 C6 1_555 1_555
C7 N2 1_555 1_555
H5 C7 1_555 1_555
C8 C4 1_555 1_555
H6 C8 1_555 1_555
C9 C3 1_555 1_555
H7 C9 1_555 1_555
C10 N1 1_555 1_555
H8 C10 1_555 1_555
O1 Zn1 1_555 1_555
O2 C11 1_555 1_555
C11 O1 1_555 1_555
C12 C11 1_555 1_555
H9 C12 1_555 1_555
H10 C12 1_555 1_555
C13 C12 1_555 1_555
H11 C13 1_555 1_555
H12 C13 1_555 1_555
C14 C13 1_555 1_555
H13 C14 1_555 1_555
H14 C14 1_555 1_555
C15 C14 1_555 1_555
O3 C15 1_555 1_555
O4 C15 1_555 1_555
Zn1_2 N2 1_555 1_555
Zn1A O2 1_555 1_555
Zn1A_2 O3 1_555 1_555
N2_2 Zn1 1_555 1_555
O2A Zn1 1_555 1_555
O3A Zn1 1_555 1_555
C7 C8 1_555 1_555
C9 C10 1_555 1_555

#END
