
#######################################################################
#
#                 Cambridge Crystallographic Data Centre
#                                CCDC 
#
#######################################################################
#
# If this CIF has been generated from an entry in the Cambridge 
# Structural Database, then it will include bibliographic, chemical, 
# crystal, experimental, refinement or atomic coordinate data resulting 
# from the CCDC's data processing and validation procedures.
#
#######################################################################

data_KALPOC
_symmetry_cell_setting           monoclinic
_symmetry_space_group_name_H-M   'P 21/c'
_symmetry_Int_Tables_number      14
_space_group_name_Hall           '-P 2ybc'
loop_
_symmetry_equiv_pos_site_id
_symmetry_equiv_pos_as_xyz
1 x,y,z
2 -x,1/2+y,1/2-z
3 -x,-y,-z
4 x,1/2-y,1/2+z
_cell_length_a                   4.512(5)
_cell_length_b                   16.19(3)
_cell_length_c                   13.66(4)
_cell_angle_alpha                90
_cell_angle_beta                 91.8(2)
_cell_angle_gamma                90
_cell_volume                     997.361
loop_
_atom_site_label
_atom_site_type_symbol
_atom_site_fract_x
_atom_site_fract_y
_atom_site_fract_z
I1 I -0.301(1) 0.3830(6) 0.5279(6)
Ag1 Ag 0.186(2) 0.4410(8) 0.4215(7)
N1 N 0.110(14) 0.413(5) 0.256(5)
C1 C -0.086(19) 0.468(7) 0.196(7)
C2 C -0.182(25) 0.540(9) 0.248(9)
C3 C -0.155(20) 0.443(7) 0.103(7)
C4 C -0.049(19) 0.364(7) 0.072(7)
C5 C -0.147(27) 0.334(8) -0.043(9)
C6 C 0.116(29) 0.294(10) 0.094(11)
C7 C 0.155(21) 0.338(7) 0.201(8)
C8 C 0.341(32) 0.281(11) 0.274(12)
H1 H -0.141 0.565 0.316
H2 H -0.118 0.592 0.211
H3 H -0.397 0.546 0.246
H4 H -0.266 0.480 0.057
H5 H -0.261 0.371 -0.058
H6 H -0.260 0.273 -0.042
H7 H 0.016 0.315 -0.086
H8 H 0.182 0.243 0.059
H9 H 0.555 0.305 0.284
H10 H 0.279 0.267 0.332
H11 H 0.401 0.228 0.237
Ag1_2 Ag -0.814(2) 0.4410(8) 0.4215(7)
Ag1B Ag -0.186(2) 0.5590(8) 0.5785(7)
I1_2 I 0.699(1) 0.3830(6) 0.5279(6)
I1B I 0.301(1) 0.6170(6) 0.4721(6)
I1B_2 I -0.699(1) 0.6170(6) 0.4721(6)
N1B N -0.110(14) 0.587(5) 0.744(5)
Ag1B_2 Ag 0.814(2) 0.5590(8) 0.5785(7)
C1B C 0.086(19) 0.532(7) 0.804(7)
C7B C -0.155(21) 0.662(7) 0.799(8)
C2B C 0.182(25) 0.460(9) 0.752(9)
C3B C 0.155(20) 0.557(7) 0.897(7)
C6B C -0.116(29) 0.706(10) 0.906(11)
C8B C -0.341(32) 0.719(11) 0.726(12)
H1B H 0.141 0.435 0.684
H2B H 0.118 0.408 0.789
H3B H 0.397 0.454 0.754
C4B C 0.049(19) 0.636(7) 0.928(7)
H4B H 0.266 0.520 0.943
H8B H -0.182 0.757 0.941
H9B H -0.555 0.695 0.716
H10B H -0.279 0.733 0.668
H11B H -0.401 0.772 0.763
C5B C 0.147(27) 0.666(8) 1.043(9)
H5B H 0.261 0.629 1.058
H6B H 0.260 0.727 1.042
H7B H -0.016 0.685 1.086
loop_
_geom_bond_atom_site_label_1
_geom_bond_atom_site_label_2
_geom_bond_site_symmetry_1
_geom_bond_site_symmetry_2
I1 Ag1 1_555 1_555
Ag1 N1 1_555 1_555
N1 C1 1_555 1_555
C1 C2 1_555 1_555
C2 H1 1_555 1_555
C3 C1 1_555 1_555
C4 C3 1_555 1_555
C5 C4 1_555 1_555
C6 C4 1_555 1_555
C7 N1 1_555 1_555
C8 C7 1_555 1_555
H2 C2 1_555 1_555
H3 C2 1_555 1_555
H4 C3 1_555 1_555
H5 C5 1_555 1_555
H6 C5 1_555 1_555
H7 C5 1_555 1_555
H8 C6 1_555 1_555
H9 C8 1_555 1_555
H10 C8 1_555 1_555
H11 C8 1_555 1_555
Ag1_2 I1 1_555 1_555
Ag1B I1 1_555 1_555
I1_2 Ag1 1_555 1_555
I1B Ag1 1_555 1_555
I1B_2 Ag1B 1_555 1_555
N1B Ag1B 1_555 1_555
Ag1B_2 I1B 1_555 1_555
C1B N1B 1_555 1_555
C7B N1B 1_555 1_555
C2B C1B 1_555 1_555
C3B C1B 1_555 1_555
C6B C7B 1_555 1_555
C8B C7B 1_555 1_555
H1B C2B 1_555 1_555
H2B C2B 1_555 1_555
H3B C2B 1_555 1_555
C4B C3B 1_555 1_555
H4B C3B 1_555 1_555
H8B C6B 1_555 1_555
H9B C8B 1_555 1_555
H10B C8B 1_555 1_555
H11B C8B 1_555 1_555
C5B C4B 1_555 1_555
H5B C5B 1_555 1_555
H6B C5B 1_555 1_555
H7B C5B 1_555 1_555
C6 C7 1_555 1_555
Ag1B I1B 1_555 1_555
C6B C4B 1_555 1_555

#END
