
#######################################################################
#
#                 Cambridge Crystallographic Data Centre
#                                CCDC 
#
#######################################################################
#
# If this CIF has been generated from an entry in the Cambridge 
# Structural Database, then it will include bibliographic, chemical, 
# crystal, experimental, refinement or atomic coordinate data resulting 
# from the CCDC's data processing and validation procedures.
#
#######################################################################

data_KALPES
_symmetry_cell_setting           monoclinic
_symmetry_space_group_name_H-M   'P 21/c'
_symmetry_Int_Tables_number      14
_space_group_name_Hall           '-P 2ybc'
loop_
_symmetry_equiv_pos_site_id
_symmetry_equiv_pos_as_xyz
1 x,y,z
2 -x,1/2+y,1/2-z
3 -x,-y,-z
4 x,1/2-y,1/2+z
_cell_length_a                   4.163(4)
_cell_length_b                   15.426(16)
_cell_length_c                   14.351(14)
_cell_angle_alpha                90
_cell_angle_beta                 92.91(8)
_cell_angle_gamma                90
_cell_volume                     920.41
loop_
_atom_site_label
_atom_site_type_symbol
_atom_site_fract_x
_atom_site_fract_y
_atom_site_fract_z
Cl1 Cl 0.818(2) 0.0442(6) 0.1102(6)
Ag1 Ag 0.2998(7) 0.0888(2) 0.0132(2)
N1 N 0.326(6) 0.225(2) -0.047(2)
C1 C 0.230(8) 0.294(2) -0.010(3)
C2 C 0.081(10) 0.279(3) 0.086(3)
C3 C 0.232(7) 0.378(2) -0.037(2)
C4 C 0.351(7) 0.397(2) -0.123(2)
C5 C 0.362(8) 0.482(2) -0.168(2)
C6 C 0.474(9) 0.324(2) -0.169(3)
C7 C 0.477(9) 0.242(3) -0.131(3)
C8 C 0.599(8) 0.161(2) -0.176(3)
H1 H 0.249 0.260 0.133
H2 H -0.031 0.324 0.119
H3 H -0.035 0.225 0.101
H4 H 0.154 0.425 0.001
H5 H 0.593 0.500 -0.170
H6 H 0.266 0.485 -0.229
H7 H 0.258 0.527 -0.131
H8 H 0.563 0.333 -0.230
H9 H 0.458 0.115 -0.213
H10 H 0.759 0.183 -0.219
H11 H 0.725 0.131 -0.127
Ag1_2 Ag 1.2998(7) 0.0888(2) 0.0132(2)
Ag1B Ag 0.7002(7) -0.0888(2) -0.0132(2)
Cl1_2 Cl -0.182(2) 0.0442(6) 0.1102(6)
Cl1B Cl 0.182(2) -0.0442(6) -0.1102(6)
Cl1B_2 Cl 1.182(2) -0.0442(6) -0.1102(6)
N1B N 0.674(6) -0.225(2) 0.047(2)
Ag1B_2 Ag -0.2998(7) -0.0888(2) -0.0132(2)
C1B C 0.770(8) -0.294(2) 0.010(3)
C7B C 0.523(9) -0.242(3) 0.131(3)
C2B C 0.919(10) -0.279(3) -0.086(3)
C3B C 0.768(7) -0.378(2) 0.037(2)
C6B C 0.526(9) -0.324(2) 0.169(3)
C8B C 0.401(8) -0.161(2) 0.176(3)
H1B H 0.751 -0.260 -0.133
H2B H 1.031 -0.324 -0.119
H3B H 1.035 -0.225 -0.101
C4B C 0.649(7) -0.397(2) 0.123(2)
H4B H 0.846 -0.425 -0.001
H8B H 0.437 -0.333 0.230
H9B H 0.542 -0.115 0.213
H10B H 0.241 -0.183 0.219
H11B H 0.275 -0.131 0.127
C5B C 0.638(8) -0.482(2) 0.168(2)
H5B H 0.407 -0.500 0.170
H6B H 0.734 -0.485 0.229
H7B H 0.742 -0.527 0.131
loop_
_geom_bond_atom_site_label_1
_geom_bond_atom_site_label_2
_geom_bond_site_symmetry_1
_geom_bond_site_symmetry_2
Cl1 Ag1 1_555 1_555
Ag1 N1 1_555 1_555
N1 C1 1_555 1_555
C1 C2 1_555 1_555
C2 H1 1_555 1_555
C3 C1 1_555 1_555
C4 C3 1_555 1_555
C5 C4 1_555 1_555
C6 C4 1_555 1_555
C7 N1 1_555 1_555
C8 C7 1_555 1_555
H2 C2 1_555 1_555
H3 C2 1_555 1_555
H4 C3 1_555 1_555
H5 C5 1_555 1_555
H6 C5 1_555 1_555
H7 C5 1_555 1_555
H8 C6 1_555 1_555
H9 C8 1_555 1_555
H10 C8 1_555 1_555
H11 C8 1_555 1_555
Ag1_2 Cl1 1_555 1_555
Ag1B Cl1 1_555 1_555
Cl1_2 Ag1 1_555 1_555
Cl1B Ag1 1_555 1_555
Cl1B_2 Ag1B 1_555 1_555
N1B Ag1B 1_555 1_555
Ag1B_2 Cl1B 1_555 1_555
C1B N1B 1_555 1_555
C7B N1B 1_555 1_555
C2B C1B 1_555 1_555
C3B C1B 1_555 1_555
C6B C7B 1_555 1_555
C8B C7B 1_555 1_555
H1B C2B 1_555 1_555
H2B C2B 1_555 1_555
H3B C2B 1_555 1_555
C4B C3B 1_555 1_555
H4B C3B 1_555 1_555
H8B C6B 1_555 1_555
H9B C8B 1_555 1_555
H10B C8B 1_555 1_555
H11B C8B 1_555 1_555
C5B C4B 1_555 1_555
H5B C5B 1_555 1_555
H6B C5B 1_555 1_555
H7B C5B 1_555 1_555
C6 C7 1_555 1_555
Ag1B Cl1B 1_555 1_555
C6B C4B 1_555 1_555

#END
