
#######################################################################
#
#                 Cambridge Crystallographic Data Centre
#                                CCDC 
#
#######################################################################
#
# If this CIF has been generated from an entry in the Cambridge 
# Structural Database, then it will include bibliographic, chemical, 
# crystal, experimental, refinement or atomic coordinate data resulting 
# from the CCDC's data processing and validation procedures.
#
#######################################################################

data_KALPIW
_symmetry_cell_setting           monoclinic
_symmetry_space_group_name_H-M   'P 21/c'
_symmetry_Int_Tables_number      14
_space_group_name_Hall           '-P 2ybc'
loop_
_symmetry_equiv_pos_site_id
_symmetry_equiv_pos_as_xyz
1 x,y,z
2 -x,1/2+y,1/2-z
3 -x,-y,-z
4 x,1/2-y,1/2+z
_cell_length_a                   4.334(3)
_cell_length_b                   15.83(1)
_cell_length_c                   13.74(1)
_cell_angle_alpha                90
_cell_angle_beta                 90.92(7)
_cell_angle_gamma                90
_cell_volume                     942.542
loop_
_atom_site_label
_atom_site_type_symbol
_atom_site_fract_x
_atom_site_fract_y
_atom_site_fract_z
Br1 Br -0.2983(3) 0.38790(8) 0.5250(1)
Ag1 Ag 0.2004(3) 0.44109(7) 0.42323(7)
N1 N 0.107(2) 0.4126(6) 0.2604(7)
C1 C -0.079(3) 0.4640(8) 0.2078(9)
C2 C -0.193(3) 0.5426(8) 0.2563(9)
C3 C -0.169(3) 0.4445(8) 0.1138(9)
C4 C -0.072(3) 0.3705(8) 0.0706(9)
C5 C -0.181(4) 0.3474(8) -0.0306(9)
C6 C 0.118(3) 0.3181(8) 0.1248(10)
C7 C 0.201(3) 0.3405(8) 0.2191(9)
C8 C 0.405(3) 0.2837(8) 0.2783(9)
H1 H -0.226 0.549 0.321
H2 H -0.041 0.585 0.240
H3 H -0.380 0.557 0.223
H4 H -0.301 0.483 0.078
H5 H -0.386 0.310 -0.020
H6 H -0.217 0.298 -0.069
H7 H -0.019 0.317 -0.064
H8 H 0.189 0.266 0.098
H9 H 0.526 0.314 0.319
H10 H 0.279 0.246 0.314
H11 H 0.535 0.241 0.248
Ag1_2 Ag -0.7996(3) 0.44109(7) 0.42323(7)
Ag1B Ag -0.2004(3) 0.55891(7) 0.57677(7)
Br1_2 Br 0.7017(3) 0.38790(8) 0.5250(1)
Br1B Br 0.2983(3) 0.61210(8) 0.4750(1)
Br1B_2 Br -0.7017(3) 0.61210(8) 0.4750(1)
N1B N -0.107(2) 0.5874(6) 0.7396(7)
Ag1B_2 Ag 0.7996(3) 0.55891(7) 0.57677(7)
C1B C 0.079(3) 0.5360(8) 0.7922(9)
C7B C -0.201(3) 0.6595(8) 0.7809(9)
C2B C 0.193(3) 0.4574(8) 0.7437(9)
C3B C 0.169(3) 0.5555(8) 0.8862(9)
C6B C -0.118(3) 0.6819(8) 0.8752(10)
C8B C -0.405(3) 0.7163(8) 0.7217(9)
H1B H 0.226 0.451 0.679
H2B H 0.041 0.415 0.760
H3B H 0.380 0.443 0.777
C4B C 0.072(3) 0.6295(8) 0.9294(9)
H4B H 0.301 0.517 0.922
H8B H -0.189 0.734 0.902
H9B H -0.526 0.686 0.681
H10B H -0.279 0.754 0.686
H11B H -0.535 0.759 0.752
C5B C 0.181(4) 0.6526(8) 1.0306(9)
H5B H 0.386 0.690 1.020
H6B H 0.217 0.702 1.069
H7B H 0.019 0.683 1.064
loop_
_geom_bond_atom_site_label_1
_geom_bond_atom_site_label_2
_geom_bond_site_symmetry_1
_geom_bond_site_symmetry_2
Br1 Ag1 1_555 1_555
Ag1 N1 1_555 1_555
N1 C1 1_555 1_555
C1 C2 1_555 1_555
C2 H1 1_555 1_555
C3 C1 1_555 1_555
C4 C3 1_555 1_555
C5 C4 1_555 1_555
C6 C4 1_555 1_555
C7 N1 1_555 1_555
C8 C7 1_555 1_555
H2 C2 1_555 1_555
H3 C2 1_555 1_555
H4 C3 1_555 1_555
H5 C5 1_555 1_555
H6 C5 1_555 1_555
H7 C5 1_555 1_555
H8 C6 1_555 1_555
H9 C8 1_555 1_555
H10 C8 1_555 1_555
H11 C8 1_555 1_555
Ag1_2 Br1 1_555 1_555
Ag1B Br1 1_555 1_555
Br1_2 Ag1 1_555 1_555
Br1B Ag1 1_555 1_555
Br1B_2 Ag1B 1_555 1_555
N1B Ag1B 1_555 1_555
Ag1B_2 Br1B 1_555 1_555
C1B N1B 1_555 1_555
C7B N1B 1_555 1_555
C2B C1B 1_555 1_555
C3B C1B 1_555 1_555
C6B C7B 1_555 1_555
C8B C7B 1_555 1_555
H1B C2B 1_555 1_555
H2B C2B 1_555 1_555
H3B C2B 1_555 1_555
C4B C3B 1_555 1_555
H4B C3B 1_555 1_555
H8B C6B 1_555 1_555
H9B C8B 1_555 1_555
H10B C8B 1_555 1_555
H11B C8B 1_555 1_555
C5B C4B 1_555 1_555
H5B C5B 1_555 1_555
H6B C5B 1_555 1_555
H7B C5B 1_555 1_555
C6 C7 1_555 1_555
Ag1B Br1B 1_555 1_555
C6B C4B 1_555 1_555

#END
