
#######################################################################
#
#                 Cambridge Crystallographic Data Centre
#                                CCDC 
#
#######################################################################
#
# If this CIF has been generated from an entry in the Cambridge 
# Structural Database, then it will include bibliographic, chemical, 
# crystal, experimental, refinement or atomic coordinate data resulting 
# from the CCDC's data processing and validation procedures.
#
#######################################################################

data_KALPET
_symmetry_cell_setting           monoclinic
_symmetry_space_group_name_H-M   'P 21/c'
_symmetry_Int_Tables_number      14
_space_group_name_Hall           '-P 2ybc'
loop_
_symmetry_equiv_pos_site_id
_symmetry_equiv_pos_as_xyz
1 x,y,z
2 -x,1/2+y,1/2-z
3 -x,-y,-z
4 x,1/2-y,1/2+z
_cell_length_a                   7.152(3)
_cell_length_b                   15.886(6)
_cell_length_c                   9.563(4)
_cell_angle_alpha                90
_cell_angle_beta                 102.966(7)
_cell_angle_gamma                90
_cell_volume                     1058.81
loop_
_atom_site_label
_atom_site_type_symbol
_atom_site_fract_x
_atom_site_fract_y
_atom_site_fract_z
Ag1 Ag 0.71358(4) 0.977322(18) 1.00413(4)
C1 C 0.7129(5) 0.7833(2) 1.0284(4)
H1 H 0.8082 0.7902 0.9773
C2 C 0.6523(6) 0.7039(2) 1.0486(4)
H2 H 0.7058 0.6576 1.0124
C3 C 0.5112(6) 0.6932(2) 1.1231(4)
H3 H 0.4679 0.6395 1.1380
C4 C 0.4341(5) 0.7623(2) 1.1756(4)
H4 H 0.3372 0.7564 1.2255
C5 C 0.5043(5) 0.8405(2) 1.1524(3)
C6 C 0.2311(5) 0.9066(2) 1.2977(4)
H5 H 0.2616 0.8571 1.3579
H6 H 0.1203 0.8941 1.2214
C7 C 0.1886(5) 0.9807(2) 1.3858(4)
H7 H 0.3014 0.9930 1.4605
H8 H 0.1605 1.0298 1.3245
C8 C 0.0202(5) 0.9633(2) 1.4541(4)
H9 H -0.0933 0.9524 1.3792
H10 H 0.0470 0.9133 1.5133
N1 N 0.6415(4) 0.85161(17) 1.0788(3)
N2 N 0.8923(4) 1.1307(2) 1.1422(3)
O1 O 0.9676(4) 1.08570(18) 1.0630(3)
O2 O 0.7465(4) 1.1030(2) 1.1769(3)
O3 O 0.9583(5) 1.1992(2) 1.1833(4)
S1 S 0.43404(12) 0.93562(5) 1.22290(9)
Ag1B Ag -0.71358(4) 1.022678(18) 1.99587(4)
Ag1B_2 Ag 0.28642(4) 1.022678(18) 0.99587(4)
Ag1_2 Ag -0.28642(4) 0.977322(18) 2.00413(4)
C1B C -0.7129(5) 1.2167(2) 1.9716(4)
H1B H -0.8082 1.2098 2.0227
C2B C -0.6523(6) 1.2961(2) 1.9514(4)
H2B H -0.7058 1.3424 1.9876
C3B C -0.5112(6) 1.3068(2) 1.8769(4)
H3B H -0.4679 1.3605 1.8620
C4B C -0.4341(5) 1.2377(2) 1.8244(4)
H4B H -0.3372 1.2436 1.7745
C5B C -0.5043(5) 1.1595(2) 1.8476(3)
C6B C -0.2311(5) 1.0934(2) 1.7023(4)
H5B H -0.2616 1.1429 1.6421
H6B H -0.1203 1.1059 1.7786
C7B C -0.1886(5) 1.0193(2) 1.6142(4)
H7B H -0.3014 1.0070 1.5395
H8B H -0.1605 0.9702 1.6755
C8B C -0.0202(5) 1.0367(2) 1.5459(4)
H9B H 0.0933 1.0476 1.6208
H10B H -0.0470 1.0867 1.4867
N1B N -0.6415(4) 1.14839(17) 1.9212(3)
N2B N -0.8923(4) 0.8693(2) 1.8578(3)
O1B O -0.9676(4) 0.91430(18) 1.9370(3)
O2B O -0.7465(4) 0.8970(2) 1.8231(3)
O3B O -0.9583(5) 0.8008(2) 1.8167(4)
S1B S -0.43404(12) 1.06438(5) 1.77710(9)
S1B_2 S 0.56596(12) 1.06438(5) 0.77710(9)
S1_2 S -0.56596(12) 0.93562(5) 2.22290(9)
loop_
_geom_bond_atom_site_label_1
_geom_bond_atom_site_label_2
_geom_bond_site_symmetry_1
_geom_bond_site_symmetry_2
Ag1 N1 1_555 1_555
C1 H1 1_555 1_555
C2 C1 1_555 1_555
H2 C2 1_555 1_555
C3 C2 1_555 1_555
H3 C3 1_555 1_555
C4 C3 1_555 1_555
H4 C4 1_555 1_555
C5 C4 1_555 1_555
C6 H5 1_555 1_555
H6 C6 1_555 1_555
C7 C6 1_555 1_555
H7 C7 1_555 1_555
H8 C7 1_555 1_555
C8 C7 1_555 1_555
H9 C8 1_555 1_555
H10 C8 1_555 1_555
N1 C1 1_555 1_555
N2 O1 1_555 1_555
O1 Ag1 1_555 1_555
O2 Ag1 1_555 1_555
O3 N2 1_555 1_555
S1 C5 1_555 1_555
Ag1B N1B 1_555 1_555
Ag1B_2 S1 1_555 1_555
Ag1_2 S1B 1_555 1_555
C1B H1B 1_555 1_555
C2B C1B 1_555 1_555
H2B C2B 1_555 1_555
C3B C2B 1_555 1_555
H3B C3B 1_555 1_555
C4B C3B 1_555 1_555
H4B C4B 1_555 1_555
C5B C4B 1_555 1_555
C6B H5B 1_555 1_555
H6B C6B 1_555 1_555
C7B C6B 1_555 1_555
H7B C7B 1_555 1_555
H8B C7B 1_555 1_555
C8B C8 1_555 1_555
H9B C8B 1_555 1_555
H10B C8B 1_555 1_555
N1B C1B 1_555 1_555
N2B O1B 1_555 1_555
O1B Ag1B 1_555 1_555
O2B Ag1B 1_555 1_555
O3B N2B 1_555 1_555
S1B C5B 1_555 1_555
S1B_2 Ag1 1_555 1_555
S1_2 Ag1B 1_555 1_555
C5 N1 1_555 1_555
C6 S1 1_555 1_555
N2 O2 1_555 1_555
C5B N1B 1_555 1_555
C6B S1B 1_555 1_555
C7B C8B 1_555 1_555
N2B O2B 1_555 1_555

#END
