
#######################################################################
#
#                 Cambridge Crystallographic Data Centre
#                                CCDC 
#
#######################################################################
#
# If this CIF has been generated from an entry in the Cambridge 
# Structural Database, then it will include bibliographic, chemical, 
# crystal, experimental, refinement or atomic coordinate data resulting 
# from the CCDC's data processing and validation procedures.
#
#######################################################################

data_KALPUI
_symmetry_cell_setting           monoclinic
_symmetry_space_group_name_H-M   'P 21/c'
_symmetry_Int_Tables_number      14
_space_group_name_Hall           '-P 2ybc'
loop_
_symmetry_equiv_pos_site_id
_symmetry_equiv_pos_as_xyz
1 x,y,z
2 -x,1/2+y,1/2-z
3 -x,-y,-z
4 x,1/2-y,1/2+z
_cell_length_a                   4.144(6)
_cell_length_b                   15.48(5)
_cell_length_c                   15.59(3)
_cell_angle_alpha                90
_cell_angle_beta                 99.5(1)
_cell_angle_gamma                90
_cell_volume                     986.369
loop_
_atom_site_label
_atom_site_type_symbol
_atom_site_fract_x
_atom_site_fract_y
_atom_site_fract_z
Cl1 Cl 0.874(4) -0.058(2) 0.104(1)
Ag1 Ag 0.358(2) 0.0482(8) 0.0741(6)
N1 N 0.47(1) 0.173(5) 0.140(5)
C1 C 0.37(2) 0.196(8) 0.215(8)
C2 C 0.25(2) 0.122(7) 0.266(6)
C3 C 0.38(2) 0.275(8) 0.262(7)
C4 C 0.49(3) 0.351(8) 0.221(7)
C5 C 0.58(2) 0.324(7) 0.127(6)
C6 C 0.69(2) 0.397(6) 0.085(7)
C7 C 0.74(3) 0.381(7) 0.005(8)
C8 C 0.77(2) 0.295(7) -0.032(6)
C9 C 0.66(2) 0.232(6) 0.018(6)
C10 C 0.57(2) 0.241(6) 0.096(5)
H1 H 0.068 0.092 0.233
H2 H 0.420 0.078 0.283
H3 H 0.172 0.132 0.323
H4 H 0.314 0.282 0.319
H5 H 0.515 0.412 0.247
H6 H 0.722 0.460 0.107
H7 H 0.784 0.430 -0.035
H8 H 0.873 0.283 -0.086
H9 H 0.631 0.173 -0.007
Ag1_2 Ag 1.358(2) 0.0482(8) 0.0741(6)
Ag1B Ag 0.642(2) -0.0482(8) -0.0741(6)
Cl1_2 Cl -0.126(4) -0.058(2) 0.104(1)
Cl1B Cl 0.126(4) 0.058(2) -0.104(1)
Cl1B_2 Cl 1.126(4) 0.058(2) -0.104(1)
N1B N 0.53(1) -0.173(5) -0.140(5)
Ag1B_2 Ag -0.358(2) -0.0482(8) -0.0741(6)
C1B C 0.63(2) -0.196(8) -0.215(8)
C10B C 0.43(2) -0.241(6) -0.096(5)
C2B C 0.75(2) -0.122(7) -0.266(6)
C3B C 0.62(2) -0.275(8) -0.262(7)
C5B C 0.42(2) -0.324(7) -0.127(6)
C9B C 0.34(2) -0.232(6) -0.018(6)
H1B H 0.932 -0.092 -0.233
H2B H 0.580 -0.078 -0.283
H3B H 0.828 -0.132 -0.323
C4B C 0.51(3) -0.351(8) -0.221(7)
H4B H 0.686 -0.282 -0.319
C6B C 0.31(2) -0.397(6) -0.085(7)
C8B C 0.23(2) -0.295(7) 0.032(6)
H9B H 0.369 -0.173 0.007
H5B H 0.485 -0.412 -0.247
C7B C 0.26(3) -0.381(7) -0.005(8)
H6B H 0.278 -0.460 -0.107
H8B H 0.127 -0.283 0.086
H7B H 0.216 -0.430 0.035
loop_
_geom_bond_atom_site_label_1
_geom_bond_atom_site_label_2
_geom_bond_site_symmetry_1
_geom_bond_site_symmetry_2
Cl1 Ag1 1_555 1_555
Ag1 N1 1_555 1_555
N1 C1 1_555 1_555
C1 C2 1_555 1_555
C2 H1 1_555 1_555
C3 C1 1_555 1_555
C4 C3 1_555 1_555
C5 C4 1_555 1_555
C6 C5 1_555 1_555
C7 C6 1_555 1_555
C8 C7 1_555 1_555
C9 C8 1_555 1_555
C10 N1 1_555 1_555
H2 C2 1_555 1_555
H3 C2 1_555 1_555
H4 C3 1_555 1_555
H5 C4 1_555 1_555
H6 C6 1_555 1_555
H7 C7 1_555 1_555
H8 C8 1_555 1_555
H9 C9 1_555 1_555
Ag1_2 Cl1 1_555 1_555
Ag1B Cl1 1_555 1_555
Cl1_2 Ag1 1_555 1_555
Cl1B Ag1 1_555 1_555
Cl1B_2 Ag1B 1_555 1_555
N1B Ag1B 1_555 1_555
Ag1B_2 Cl1B 1_555 1_555
C1B N1B 1_555 1_555
C10B N1B 1_555 1_555
C2B C1B 1_555 1_555
C3B C1B 1_555 1_555
C5B C10B 1_555 1_555
C9B C10B 1_555 1_555
H1B C2B 1_555 1_555
H2B C2B 1_555 1_555
H3B C2B 1_555 1_555
C4B C3B 1_555 1_555
H4B C3B 1_555 1_555
C6B C5B 1_555 1_555
C8B C9B 1_555 1_555
H9B C9B 1_555 1_555
H5B C4B 1_555 1_555
C7B C6B 1_555 1_555
H6B C6B 1_555 1_555
H8B C8B 1_555 1_555
H7B C7B 1_555 1_555
C5 C10 1_555 1_555
C9 C10 1_555 1_555
Ag1B Cl1B 1_555 1_555
C5B C4B 1_555 1_555
C8B C7B 1_555 1_555

#END
