
#######################################################################
#
#                 Cambridge Crystallographic Data Centre
#                                CCDC 
#
#######################################################################
#
# If this CIF has been generated from an entry in the Cambridge 
# Structural Database, then it will include bibliographic, chemical, 
# crystal, experimental, refinement or atomic coordinate data resulting 
# from the CCDC's data processing and validation procedures.
#
#######################################################################

data_KALROF
_symmetry_cell_setting           monoclinic
_symmetry_space_group_name_H-M   'P 21/c'
_symmetry_Int_Tables_number      14
_space_group_name_Hall           '-P 2ybc'
loop_
_symmetry_equiv_pos_site_id
_symmetry_equiv_pos_as_xyz
1 x,y,z
2 -x,1/2+y,1/2-z
3 -x,-y,-z
4 x,1/2-y,1/2+z
_cell_length_a                   8.240(2)
_cell_length_b                   19.828(5)
_cell_length_c                   8.844(2)
_cell_angle_alpha                90
_cell_angle_beta                 92.216(5)
_cell_angle_gamma                90
_cell_volume                     1443.88
loop_
_atom_site_label
_atom_site_type_symbol
_atom_site_fract_x
_atom_site_fract_y
_atom_site_fract_z
Pb1 Pb 0.25887(3) 0.474191(15) 0.08452(3)
O1 O 0.3691(7) 0.5227(3) 0.3189(6)
N1 N 0.3898(7) 0.3706(3) 0.1899(6)
N2 N 0.1025(7) 0.4129(3) 0.2826(7)
O2 O 0.5304(8) 0.5369(5) 0.1391(7)
C1 C 0.3117(8) 0.3282(4) 0.2811(7)
N3 N -0.0272(8) 0.3730(4) -0.0864(8)
C2 C 0.1527(8) 0.3536(4) 0.3332(7)
O3 O 0.1063(9) 0.3506(4) -0.0504(10)
C3 C 0.4966(9) 0.5475(4) 0.2709(8)
C4 C 0.3785(11) 0.2677(5) 0.3258(10)
H1 H 0.3185 0.2380 0.3869
C5 C 0.6128(11) 0.2927(5) 0.1961(11)
H2 H 0.7204 0.2826 0.1683
C6 C 0.6080(11) 0.5851(5) 0.3750(9)
H3 H 0.7015 0.6009 0.3198
H4 H 0.6456 0.5553 0.4577
H5 H 0.5509 0.6238 0.4167
C7 C 0.5384(9) 0.3523(5) 0.1471(10)
H6 H 0.5946 0.3811 0.0811
C8 C 0.0642(11) 0.3159(6) 0.4371(11)
H7 H 0.0962 0.2718 0.4679
C9 C -0.0354(10) 0.4401(5) 0.3343(11)
H8 H -0.0715 0.4828 0.2975
C10 C 0.5313(12) 0.2493(6) 0.2835(12)
H9 H 0.5780 0.2075 0.3146
C11 C -0.1240(12) 0.4066(6) 0.4395(13)
H10 H -0.2212 0.4259 0.4745
C12 C -0.0733(13) 0.3473(8) 0.4920(12)
H11 H -0.1318 0.3257 0.5688
O4 O -0.0174(9) 0.4351(5) -0.1235(11)
O5 O -0.1494(10) 0.3461(7) -0.0939(13)
Pb1B Pb 0.74113(3) 0.525809(15) -0.08452(3)
Pb1B_2 Pb -0.25887(3) 0.525809(15) -0.08452(3)
O2B O 0.4696(8) 0.4631(5) -0.1391(7)
O4B O 0.0174(9) 0.5649(5) 0.1235(11)
loop_
_geom_bond_atom_site_label_1
_geom_bond_atom_site_label_2
_geom_bond_site_symmetry_1
_geom_bond_site_symmetry_2
Pb1 O1 1_555 1_555
O1 C3 1_555 1_555
N1 Pb1 1_555 1_555
N2 Pb1 1_555 1_555
O2 Pb1 1_555 1_555
C1 N1 1_555 1_555
N3 O3 1_555 1_555
C2 N2 1_555 1_555
O3 Pb1 1_555 1_555
C3 O2 1_555 1_555
C4 C1 1_555 1_555
H1 C4 1_555 1_555
C5 H2 1_555 1_555
C6 C3 1_555 1_555
H3 C6 1_555 1_555
H4 C6 1_555 1_555
H5 C6 1_555 1_555
C7 N1 1_555 1_555
H6 C7 1_555 1_555
C8 C2 1_555 1_555
H7 C8 1_555 1_555
C9 N2 1_555 1_555
H8 C9 1_555 1_555
C10 C4 1_555 1_555
H9 C10 1_555 1_555
C11 C9 1_555 1_555
H10 C11 1_555 1_555
C12 C8 1_555 1_555
H11 C12 1_555 1_555
O4 Pb1 1_555 1_555
O5 N3 1_555 1_555
Pb1B O2 1_555 1_555
Pb1B_2 O4 1_555 1_555
O2B Pb1 1_555 1_555
O4B Pb1 1_555 1_555
C1 C2 1_555 1_555
N3 O4 1_555 1_555
C5 C7 1_555 1_555
C5 C10 1_555 1_555
C11 C12 1_555 1_555
Pb1B O2B 1_555 1_555
Pb1B_2 O4B 1_555 1_555

#END
