
#######################################################################
#
#                 Cambridge Crystallographic Data Centre
#                                CCDC 
#
#######################################################################
#
# If this CIF has been generated from an entry in the Cambridge 
# Structural Database, then it will include bibliographic, chemical, 
# crystal, experimental, refinement or atomic coordinate data resulting 
# from the CCDC's data processing and validation procedures.
#
#######################################################################

data_KALZUU
_symmetry_cell_setting           triclinic
_symmetry_space_group_name_H-M   'P -1'
_symmetry_Int_Tables_number      2
_space_group_name_Hall           '-P 1'
loop_
_symmetry_equiv_pos_site_id
_symmetry_equiv_pos_as_xyz
1 x,y,z
2 -x,-y,-z
_cell_length_a                   9.2490(14)
_cell_length_b                   11.5671(17)
_cell_length_c                   11.7761(19)
_cell_angle_alpha                83.084(9)
_cell_angle_beta                 75.721(8)
_cell_angle_gamma                66.685(6)
_cell_volume                     1120.87
loop_
_atom_site_label
_atom_site_type_symbol
_atom_site_fract_x
_atom_site_fract_y
_atom_site_fract_z
Cu1 Cu 0.5000 0.0000 1.0000
Cu2 Cu 0.0000 0.5000 1.0000
O11 O 0.52924(16) 0.16270(12) 0.93735(12)
O12 O 0.28167(16) 0.30888(13) 0.99942(12)
O13 O 0.72198(19) -0.11565(15) 0.84766(13)
N1 N 0.33924(19) 0.02846(15) 0.90385(14)
N2 N 0.1183(2) 0.06103(16) 0.84601(15)
N3 N 0.1053(2) 0.62282(15) 0.92868(14)
N4 N 0.2066(2) 0.73735(17) 0.79633(16)
N5 N -0.0064(2) 0.45973(15) 0.84168(14)
N6 N -0.0993(2) 0.44642(17) 0.69193(16)
C1 C 0.3777(2) 0.00861(19) 0.78497(17)
H1 H 0.4830 -0.0150 0.7363
C2 C 0.2411(2) 0.02825(19) 0.74855(18)
H2 H 0.2326 0.0207 0.6712
C3 C 0.1812(2) 0.06101(18) 0.93720(17)
H3 H 0.1206 0.0815 1.0149
C4 C 0.4227(2) 0.27558(18) 0.93937(17)
C5 C 0.4749(3) 0.37320(19) 0.86246(19)
H4 H 0.4361 0.3869 0.7898
H5 H 0.5929 0.3433 0.8438
H6 H 0.4294 0.4525 0.9041
C6 C 0.1821(2) 0.67748(18) 0.97999(18)
H7 H 0.1891 0.6670 1.0600
C7 C 0.2457(2) 0.74796(19) 0.89882(18)
H8 H 0.3049 0.7949 0.9104
C8 C 0.1233(2) 0.66223(18) 0.81808(18)
H9 H 0.0824 0.6401 0.7611
C9 C 0.0996(3) 0.35371(19) 0.77978(18)
H10 H 0.1975 0.2961 0.7990
C10 C 0.0423(2) 0.34467(19) 0.68770(18)
H11 H 0.0907 0.2804 0.6313
C11 C -0.1253(3) 0.51352(19) 0.78533(18)
H12 H -0.2161 0.5889 0.8079
H13 H 0.027(3) 0.083(2) 0.8437(19)
H14 H 0.221(3) 0.771(2) 0.735(2)
H15 H -0.158(3) 0.460(2) 0.650(2)
H20 H 0.795(2) -0.119(2) 0.7910(15)
H21 H 0.740(4) -0.1820(16) 0.886(2)
Cu2_2 Cu 1.0000 -0.5000 1.0000
O11A O 0.47076(16) -0.16270(12) 1.06265(12)
O12A O 0.71833(16) -0.30888(13) 1.00058(12)
O12A_2 O -0.28167(16) 0.69112(13) 1.00058(12)
O13A O 0.27802(19) 0.11565(15) 1.15234(13)
N1A N 0.66076(19) -0.02846(15) 1.09615(14)
N2A N 0.8817(2) -0.06103(16) 1.15399(15)
N3A N -0.1053(2) 0.37718(15) 1.07132(14)
N4A N -0.2066(2) 0.26265(17) 1.20367(16)
N5A N 0.0064(2) 0.54027(15) 1.15832(14)
N6A N 0.0993(2) 0.55358(17) 1.30807(16)
C1A C 0.6223(2) -0.00861(19) 1.21503(17)
H1A H 0.5170 0.0150 1.2637
C2A C 0.7589(2) -0.02825(19) 1.25145(18)
H2A H 0.7674 -0.0207 1.3288
C3A C 0.8188(2) -0.06101(18) 1.06280(17)
H3A H 0.8794 -0.0815 0.9851
C4A C 0.5773(2) -0.27558(18) 1.06063(17)
C5A C 0.5251(3) -0.37320(19) 1.13754(19)
H4A H 0.5639 -0.3869 1.2102
H5A H 0.4071 -0.3433 1.1562
H6A H 0.5706 -0.4525 1.0959
C6A C -0.1821(2) 0.32252(18) 1.02001(18)
H7A H -0.1891 0.3330 0.9400
C7A C -0.2457(2) 0.25204(19) 1.10118(18)
H8A H -0.3049 0.2051 1.0896
C8A C -0.1233(2) 0.33777(18) 1.18192(18)
H9A H -0.0824 0.3599 1.2389
C9A C -0.0996(3) 0.64629(19) 1.22022(18)
H10A H -0.1975 0.7039 1.2010
C10A C -0.0423(2) 0.65533(19) 1.31230(18)
H11A H -0.0907 0.7196 1.3687
C11A C 0.1253(3) 0.48648(19) 1.21467(18)
H12A H 0.2161 0.4111 1.1921
H13A H 0.973(3) -0.083(2) 1.1563(19)
H14A H -0.221(3) 0.229(2) 1.265(2)
H15A H 0.158(3) 0.540(2) 1.350(2)
H20A H 0.205(2) 0.119(2) 1.2090(15)
H21A H 0.260(4) 0.1820(16) 1.114(2)
O1 O 0.65589(15) 0.17193(12) 0.64336(11)
O2 O 0.93619(16) 0.13624(13) 0.58291(12)
O3 O 0.77948(15) 0.17789(12) 0.43738(11)
O4 O 0.81900(16) 0.12077(13) 0.78329(12)
O5 O 1.04943(16) 0.15555(14) 0.38019(12)
O6 O 0.54109(15) 0.13145(12) 0.50012(12)
O7 O 0.32949(16) 0.31119(12) 0.44289(12)
O8 O 0.52959(16) 0.34193(12) 0.51700(12)
O9 O 0.31903(16) 0.11178(13) 0.45117(12)
O10 O 0.31769(18) 0.51397(13) 0.45178(14)
B1 B 0.6279(3) 0.2050(2) 0.5261(2)
B2 B 0.8002(3) 0.1426(2) 0.6696(2)
B3 B 0.9217(3) 0.1560(2) 0.4669(2)
B4 B 0.3992(3) 0.1837(2) 0.46509(19)
B5 B 0.3957(3) 0.3889(2) 0.4720(2)
H16 H 0.7325(19) 0.130(2) 0.8270(19)
H17 H 1.130(2) 0.143(2) 0.403(2)
H18 H 0.365(3) 0.0370(10) 0.463(2)
H19 H 0.366(3) 0.555(2) 0.464(2)
loop_
_geom_bond_atom_site_label_1
_geom_bond_atom_site_label_2
_geom_bond_site_symmetry_1
_geom_bond_site_symmetry_2
Cu1 O11 1_555 1_555
Cu2 O12 1_555 1_555
O1 B1 1_555 1_555
O2 B2 1_555 1_555
O3 B1 1_555 1_555
O4 B2 1_555 1_555
O5 B3 1_555 1_555
O6 B1 1_555 1_555
O7 B4 1_555 1_555
O8 B1 1_555 1_555
O9 B4 1_555 1_555
O10 B5 1_555 1_555
O11 C4 1_555 1_555
O12 C4 1_555 1_555
O13 Cu1 1_555 1_555
N1 Cu1 1_555 1_555
N2 C2 1_555 1_555
N3 Cu2 1_555 1_555
N4 C7 1_555 1_555
N5 Cu2 1_555 1_555
N6 C10 1_555 1_555
C1 N1 1_555 1_555
H1 C1 1_555 1_555
C2 C1 1_555 1_555
H2 C2 1_555 1_555
C3 N1 1_555 1_555
H3 C3 1_555 1_555
C4 C5 1_555 1_555
C5 H4 1_555 1_555
H5 C5 1_555 1_555
H6 C5 1_555 1_555
C6 N3 1_555 1_555
H7 C6 1_555 1_555
C7 C6 1_555 1_555
H8 C7 1_555 1_555
C8 N3 1_555 1_555
H9 C8 1_555 1_555
C9 N5 1_555 1_555
H10 C9 1_555 1_555
C10 C9 1_555 1_555
H11 C10 1_555 1_555
C11 N5 1_555 1_555
H12 C11 1_555 1_555
B2 O1 1_555 1_555
B3 O2 1_555 1_555
B4 O6 1_555 1_555
B5 O7 1_555 1_555
H13 N2 1_555 1_555
H14 N4 1_555 1_555
H15 N6 1_555 1_555
H16 O4 1_555 1_555
H17 O5 1_555 1_555
H18 O9 1_555 1_555
H19 O10 1_555 1_555
H20 O13 1_555 1_555
H21 O13 1_555 1_555
Cu2_2 O12A 1_555 1_555
O11A Cu1 1_555 1_555
O12A C4A 1_555 1_555
O12A_2 Cu2 1_555 1_555
O13A Cu1 1_555 1_555
N1A Cu1 1_555 1_555
N2A C2A 1_555 1_555
N3A Cu2 1_555 1_555
N4A C7A 1_555 1_555
N5A Cu2 1_555 1_555
N6A C10A 1_555 1_555
C1A N1A 1_555 1_555
H1A C1A 1_555 1_555
C2A C1A 1_555 1_555
H2A C2A 1_555 1_555
C3A N1A 1_555 1_555
H3A C3A 1_555 1_555
C4A O11A 1_555 1_555
C5A C4A 1_555 1_555
H4A C5A 1_555 1_555
H5A C5A 1_555 1_555
H6A C5A 1_555 1_555
C6A N3A 1_555 1_555
H7A C6A 1_555 1_555
C7A C6A 1_555 1_555
H8A C7A 1_555 1_555
C8A N3A 1_555 1_555
H9A C8A 1_555 1_555
C9A N5A 1_555 1_555
H10A C9A 1_555 1_555
C10A C9A 1_555 1_555
H11A C10A 1_555 1_555
C11A N5A 1_555 1_555
H12A C11A 1_555 1_555
H13A N2A 1_555 1_555
H14A N4A 1_555 1_555
H15A N6A 1_555 1_555
H20A O13A 1_555 1_555
H21A O13A 1_555 1_555
O3 B3 1_555 1_555
O8 B5 1_555 1_555
N2 C3 1_555 1_555
N4 C8 1_555 1_555
N6 C11 1_555 1_555
N2A C3A 1_555 1_555
N4A C8A 1_555 1_555
N6A C11A 1_555 1_555

#END
