
#######################################################################
#
#                 Cambridge Crystallographic Data Centre
#                                CCDC 
#
#######################################################################
#
# If this CIF has been generated from an entry in the Cambridge 
# Structural Database, then it will include bibliographic, chemical, 
# crystal, experimental, refinement or atomic coordinate data resulting 
# from the CCDC's data processing and validation procedures.
#
#######################################################################

data_KAMBUW
_symmetry_cell_setting           triclinic
_symmetry_space_group_name_H-M   'P -1'
_symmetry_Int_Tables_number      2
_space_group_name_Hall           '-P 1'
loop_
_symmetry_equiv_pos_site_id
_symmetry_equiv_pos_as_xyz
1 x,y,z
2 -x,-y,-z
_cell_length_a                   6.2633(19)
_cell_length_b                   7.993(3)
_cell_length_c                   12.066(4)
_cell_angle_alpha                101.677(11)
_cell_angle_beta                 95.702(10)
_cell_angle_gamma                92.604(7)
_cell_volume                     587.293
loop_
_atom_site_label
_atom_site_type_symbol
_atom_site_fract_x
_atom_site_fract_y
_atom_site_fract_z
Ag1 Ag 0.27134(13) 0.09141(11) 0.54269(7)
Br1 Br 0.02719(15) -0.13532(12) 0.61936(7)
N1 N 0.6760(12) 0.2220(8) 0.7170(6)
N2 N 0.6547(11) 0.3676(8) 0.5881(5)
C1 C 0.5529(14) 0.2359(10) 0.6212(6)
C2 C 0.8452(14) 0.3433(11) 0.7424(7)
H1 H 0.9496 0.3595 0.8047
C3 C 0.8313(14) 0.4343(11) 0.6601(7)
H2 H 0.9245 0.5250 0.6539
C4 C 0.5785(14) 0.4332(11) 0.4864(7)
H3 H 0.5105 0.3393 0.4277
H4 H 0.7003 0.4817 0.4569
C5 C 0.6310(15) 0.0938(11) 0.7869(7)
H5 H 0.5020 0.0235 0.7522
H6 H 0.7492 0.0196 0.7873
C6 C 0.6016(15) 0.1741(11) 0.9059(6)
C7 C 0.4123(19) 0.2426(15) 0.9298(10)
H7 H 0.3051 0.2420 0.8705
C8 C 0.376(3) 0.3117(19) 1.0381(14)
H8 H 0.2430 0.3523 1.0529
C9 C 0.532(4) 0.3214(19) 1.1237(13)
H9 H 0.5121 0.3785 1.1967
C10 C 0.720(3) 0.2484(19) 1.1047(12)
H10 H 0.8236 0.2450 1.1650
C11 C 0.755(2) 0.1794(14) 0.9941(10)
H11 H 0.8866 0.1354 0.9798
Ag1A Ag -0.27134(13) -0.09141(11) 0.45731(7)
Ag1A_2 Ag 0.72866(13) 0.90859(11) 0.45731(7)
Br1A Br -0.02719(15) 0.13532(12) 0.38064(7)
N1A N 0.3240(12) 0.7780(8) 0.2830(6)
N2A N 0.3453(11) 0.6324(8) 0.4119(5)
C1A C 0.4471(14) 0.7641(10) 0.3788(6)
C1A_2 C -0.5529(14) -0.2359(10) 0.3788(6)
C2A C 0.1548(14) 0.6567(11) 0.2576(7)
H1A H 0.0504 0.6405 0.1953
C3A C 0.1687(14) 0.5657(11) 0.3399(7)
H2A H 0.0755 0.4750 0.3461
C4A C 0.4215(14) 0.5668(11) 0.5136(7)
H3A H 0.4895 0.6607 0.5723
H4A H 0.2997 0.5183 0.5431
C5A C 0.3690(15) 0.9062(11) 0.2131(7)
H5A H 0.4980 0.9765 0.2478
H6A H 0.2508 0.9804 0.2127
C6A C 0.3984(15) 0.8259(11) 0.0941(6)
C7A C 0.5877(19) 0.7574(15) 0.0702(10)
H7A H 0.6949 0.7580 0.1295
C8A C 0.624(3) 0.6883(19) -0.0381(14)
H8A H 0.7570 0.6477 -0.0529
C9A C 0.468(4) 0.6786(19) -0.1237(13)
H9A H 0.4879 0.6215 -0.1967
C10A C 0.280(3) 0.7516(19) -0.1047(12)
H10A H 0.1764 0.7550 -0.1650
C11A C 0.245(2) 0.8206(14) 0.0059(10)
H11A H 0.1134 0.8646 0.0202
loop_
_geom_bond_atom_site_label_1
_geom_bond_atom_site_label_2
_geom_bond_site_symmetry_1
_geom_bond_site_symmetry_2
Ag1 Br1 1_555 1_555
Br1 Ag1A 1_555 1_555
N1 C1 1_555 1_555
N2 C1 1_555 1_555
C1 Ag1 1_555 1_555
C2 N1 1_555 1_555
H1 C2 1_555 1_555
C3 N2 1_555 1_555
H2 C3 1_555 1_555
C4 N2 1_555 1_555
H3 C4 1_555 1_555
H4 C4 1_555 1_555
C5 N1 1_555 1_555
H5 C5 1_555 1_555
H6 C5 1_555 1_555
C6 C5 1_555 1_555
C7 C6 1_555 1_555
H7 C7 1_555 1_555
C8 C7 1_555 1_555
H8 C8 1_555 1_555
C9 C8 1_555 1_555
H9 C9 1_555 1_555
C10 C9 1_555 1_555
H10 C10 1_555 1_555
C11 C6 1_555 1_555
H11 C11 1_555 1_555
Ag1A Br1A 1_555 1_555
Ag1A_2 C1A 1_555 1_555
Br1A Ag1 1_555 1_555
N1A C1A 1_555 1_555
N2A C1A 1_555 1_555
C1A_2 Ag1A 1_555 1_555
C2A N1A 1_555 1_555
H1A C2A 1_555 1_555
C3A N2A 1_555 1_555
H2A C3A 1_555 1_555
C4A C4 1_555 1_555
H3A C4A 1_555 1_555
H4A C4A 1_555 1_555
C5A N1A 1_555 1_555
H5A C5A 1_555 1_555
H6A C5A 1_555 1_555
C6A C5A 1_555 1_555
C7A C6A 1_555 1_555
H7A C7A 1_555 1_555
C8A C7A 1_555 1_555
H8A C8A 1_555 1_555
C9A C8A 1_555 1_555
H9A C9A 1_555 1_555
C10A C9A 1_555 1_555
H10A C10A 1_555 1_555
C11A C6A 1_555 1_555
H11A C11A 1_555 1_555
C2 C3 1_555 1_555
C10 C11 1_555 1_555
N2A C4A 1_555 1_555
C2A C3A 1_555 1_555
C10A C11A 1_555 1_555

#END
