
#######################################################################
#
#                 Cambridge Crystallographic Data Centre
#                                CCDC 
#
#######################################################################
#
# If this CIF has been generated from an entry in the Cambridge 
# Structural Database, then it will include bibliographic, chemical, 
# crystal, experimental, refinement or atomic coordinate data resulting 
# from the CCDC's data processing and validation procedures.
#
#######################################################################

data_KAMGEK
_symmetry_cell_setting           monoclinic
_symmetry_space_group_name_H-M   'P n'
_symmetry_Int_Tables_number      7
_space_group_name_Hall           'P -2yac'
loop_
_symmetry_equiv_pos_site_id
_symmetry_equiv_pos_as_xyz
1 x,y,z
2 1/2+x,-y,1/2+z
_cell_length_a                   12.213(6)
_cell_length_b                   10.558(2)
_cell_length_c                   26.831(9)
_cell_angle_alpha                90
_cell_angle_beta                 102.83(1)
_cell_angle_gamma                90
_cell_volume                     3373.34
loop_
_atom_site_label
_atom_site_type_symbol
_atom_site_fract_x
_atom_site_fract_y
_atom_site_fract_z
Ba1 Ba 0.157 0.12862(5) 0.236
Ba2 Ba -0.00441(5) -0.07696(5) -0.00140(3)
Cu1 Cu 0.3552(1) 0.3573(1) 0.20080(5)
Cu2 Cu -0.2648(1) -0.2419(1) 0.00941(6)
S1 S -0.0707(3) 0.0433(4) 0.1366(1)
S2 S 0.3045(2) 0.2630(3) 0.3809(1)
S3 S 0.2234(3) -0.0062(3) 0.1017(1)
F1 F -0.232(1) 0.140(2) 0.1702(7)
F2 F -0.2582(9) 0.157(2) 0.0933(6)
F3 F -0.280(1) 0.000(2) 0.120(1)
F4 F 0.4346(8) 0.3827(9) 0.3321(4)
F5 F 0.287(1) 0.4840(9) 0.3380(5)
F6 F 0.4247(9) 0.4677(8) 0.4016(4)
F7 F 0.4153(9) -0.103(1) 0.1433(5)
F8 F 0.3931(7) -0.068(2) 0.0633(4)
F9 F 0.426(1) 0.076(1) 0.1188(8)
O1 O 0.5676(8) 0.4920(9) 0.2045(4)
O2 O 0.3683(5) 0.1962(7) 0.2337(3)
O3 O 0.3437(7) -0.0347(8) 0.2679(3)
O4 O 0.1532(8) -0.0742(9) 0.3041(4)
O5 O -0.0124(7) 0.1187(8) 0.2959(3)
O6 O 0.0344(6) 0.3456(7) 0.2537(3)
O7 O 0.2070(6) 0.3615(7) 0.2123(3)
O8 O 0.3825(7) 0.5171(9) 0.1133(4)
O9 O -0.3754(8) -0.397(1) 0.0783(4)
O10 O -0.1106(5) -0.2838(6) 0.0187(3)
O11 O 0.0840(6) -0.3209(7) -0.0039(3)
O12 O 0.1746(7) -0.1257(8) -0.0511(3)
O13 O 0.0494(7) 0.1012(8) -0.0700(3)
O14 O -0.1354(6) 0.1408(7) -0.0288(3)
O15 O -0.2291(6) -0.0759(6) -0.0111(3)
O16 O -0.5109(7) -0.2967(9) -0.0149(4)
O17 O -0.034(1) -0.032(1) 0.1783(5)
O18 O -0.0637(9) 0.010(2) 0.0884(4)
O19 O -0.018(1) 0.166(1) 0.1500(5)
O20 O 0.2434(7) 0.2125(8) 0.3330(3)
O21 O 0.2352(7) 0.306(1) 0.4141(4)
O22 O 0.4006(6) 0.1899(7) 0.4056(3)
O23 O 0.2179(8) 0.030(1) 0.1511(4)
O24 O 0.1781(9) -0.132(1) 0.0890(5)
O25 O 0.1836(9) 0.076(1) 0.0595(4)
N1 N 0.5165(8) 0.3812(9) 0.2164(4)
N2 N 0.3129(7) 0.4876(9) 0.1475(4)
N3 N -0.2780(8) -0.379(1) 0.0585(4)
N4 N -0.4252(8) -0.2030(9) -0.0138(4)
C1 C 0.528(1) 0.599(1) 0.2278(6)
C2 C 0.589(1) 0.294(1) 0.2362(5)
C3 C 0.5681(9) 0.169(1) 0.2496(5)
C4 C 0.4607(9) 0.125(1) 0.2489(5)
C5 C 0.660(1) 0.087(1) 0.2651(6)
C6 C 0.647(1) -0.032(2) 0.2800(6)
C7 C 0.542(1) -0.078(1) 0.2812(5)
C8 C 0.4473(9) 0.002(1) 0.2673(4)
C9 C 0.329(1) -0.151(1) 0.2918(6)
C10 C 0.206(1) -0.172(2) 0.2866(9)
C11 C 0.043(1) -0.094(2) 0.3143(6)
C12 C 0.005(1) 0.018(1) 0.3341(6)
C13 C -0.035(1) 0.235(1) 0.3173(5)
C14 C -0.060(1) 0.331(1) 0.2753(5)
C15 C 0.0395(8) 0.4505(9) 0.2254(4)
C16 C 0.1350(8) 0.459(1) 0.2027(4)
C17 C -0.042(1) 0.548(1) 0.2148(5)
C18 C -0.027(1) 0.649(1) 0.1854(5)
C19 C 0.064(1) 0.658(1) 0.1669(5)
C20 C 0.1474(9) 0.563(1) 0.1735(4)
C21 C 0.2340(9) 0.568(1) 0.1453(5)
C22 C 0.421(1) 0.409(1) 0.0936(7)
C23 C -0.392(1) -0.292(2) 0.1098(7)
C24 C -0.208(1) -0.472(1) 0.0720(5)
C25 C -0.1061(9) -0.487(1) 0.0578(5)
C26 C -0.0609(8) -0.3930(9) 0.0338(4)
C27 C -0.045(1) -0.601(1) 0.0743(5)
C28 C 0.056(1) -0.618(1) 0.0650(5)
C29 C 0.103(1) -0.527(1) 0.0372(5)
C30 C 0.0461(9) -0.417(1) 0.0216(4)
C31 C 0.190(1) -0.337(1) -0.0196(5)
C32 C 0.188(1) -0.254(1) -0.0632(5)
C33 C 0.178(1) -0.044(1) -0.0892(6)
C34 C 0.161(1) 0.087(1) -0.0764(6)
C35 C 0.032(1) 0.223(1) -0.0490(6)
C36 C -0.0891(9) 0.244(1) -0.0513(5)
C37 C -0.2469(9) 0.144(1) -0.0289(5)
C38 C -0.2938(8) 0.0237(9) -0.0199(4)
C39 C -0.315(1) 0.250(1) -0.0370(6)
C40 C -0.429(1) 0.246(2) -0.0361(6)
C41 C -0.475(1) 0.129(1) -0.0295(6)
C42 C -0.4108(9) 0.022(1) -0.0213(4)
C43 C -0.470(1) -0.094(1) -0.0196(5)
C44 C -0.493(1) -0.405(1) -0.0433(7)
C45 C -0.215(1) 0.085(2) 0.1318(6)
C46 C 0.364(1) 0.409(1) 0.3615(5)
C47 C 0.371(1) -0.027(2) 0.1062(6)
H1 H 0.563 0.673 0.219
H2 H 0.449 0.607 0.216
H3 H 0.546 0.587 0.264
H4 H 0.666 0.318 0.242
H5 H 0.733 0.116 0.264
H6 H 0.711 -0.085 0.290
H7 H 0.534 -0.163 0.291
H8 H 0.358 -0.217 0.274
H9 H 0.367 -0.153 0.327
H10 H 0.197 -0.246 0.305
H11 H 0.171 -0.184 0.252
H12 H -0.007 -0.115 0.283
H13 H 0.047 -0.161 0.338
H14 H 0.061 0.044 0.363
H15 H -0.063 0.001 0.344
H16 H 0.029 0.261 0.342
H17 H -0.097 0.226 0.333
H18 H -0.071 0.380 0.303
H19 H -0.131 0.303 0.256
H20 H -0.108 0.541 0.228
H21 H -0.082 0.715 0.179
H22 H 0.073 0.731 0.147
H23 H 0.231 0.637 0.122
H24 H 0.468 0.432 0.071
H25 H 0.463 0.358 0.121
H26 H 0.359 0.362 0.075
H27 H -0.458 -0.307 0.123
H28 H -0.329 -0.284 0.138
H29 H -0.401 -0.217 0.090
H30 H -0.240(6) -0.548(7) 0.090(3)
H31 H -0.077 -0.665 0.092
H32 H 0.098 -0.692 0.077
H33 H 0.174 -0.542 0.029
H34 H 0.251 -0.314 0.008
H35 H 0.199 -0.422 -0.029
H36 H 0.127 -0.278 -0.090
H37 H 0.256 -0.263 -0.074
H38 H 0.248 -0.051 -0.098
H39 H 0.119 -0.066 -0.118
H40 H 0.173 0.141 -0.103
H41 H 0.213 0.108 -0.045
H42 H 0.059 0.287 -0.068
H43 H 0.072 0.227 -0.014
H44 H -0.128 0.252 -0.086
H45 H -0.098 0.319 -0.033
H46 H -0.283 0.328 -0.044
H47 H -0.474 0.320 -0.040
H48 H -0.553 0.123 -0.031
H49 H -0.53(1) -0.08(1) -0.022(5)
H50 H -0.493 -0.382 -0.078
H51 H -0.422 -0.442 -0.028
H52 H -0.551 -0.465 -0.043
O22A O -0.0994(6) -0.1899(7) -0.0944(3)
Ba2A Ba 0.49559(5) 0.07696(5) 0.49860(3)
S4 S 0.2356(3) -0.5720(3) -0.1333(1)
F10 F 0.3472(7) -0.7801(7) -0.1381(4)
F11 F 0.4364(7) -0.6091(9) -0.1485(5)
F12 F 0.3071(8) -0.674(1) -0.2090(3)
O26 O 0.277(1) -0.578(1) -0.0798(5)
O27 O 0.1335(7) -0.638(1) -0.1507(4)
O28 O 0.241(1) -0.451(1) -0.1567(5)
C48 C 0.335(1) -0.662(1) -0.1590(5)
loop_
_geom_bond_atom_site_label_1
_geom_bond_atom_site_label_2
_geom_bond_site_symmetry_1
_geom_bond_site_symmetry_2
Ba1 O2 1_555 1_555
Ba2 O10 1_555 1_555
Cu1 O2 1_555 1_555
Cu2 O10 1_555 1_555
S1 O17 1_555 1_555
S2 O20 1_555 1_555
S3 O23 1_555 1_555
S4 O26 1_555 1_555
F1 C45 1_555 1_555
F2 C45 1_555 1_555
F3 C45 1_555 1_555
F4 C46 1_555 1_555
F5 C46 1_555 1_555
F6 C46 1_555 1_555
F7 C47 1_555 1_555
F8 C47 1_555 1_555
F9 C47 1_555 1_555
F10 C48 1_555 1_555
F11 C48 1_555 1_555
F12 C48 1_555 1_555
O1 N1 1_555 1_555
O2 C4 1_555 1_555
O3 Ba1 1_555 1_555
O4 Ba1 1_555 1_555
O5 Ba1 1_555 1_555
O6 Ba1 1_555 1_555
O7 Ba1 1_555 1_555
O8 N2 1_555 1_555
O9 N3 1_555 1_555
O10 C26 1_555 1_555
O11 Ba2 1_555 1_555
O12 Ba2 1_555 1_555
O13 Ba2 1_555 1_555
O14 Ba2 1_555 1_555
O15 Ba2 1_555 1_555
O16 N4 1_555 1_555
O17 Ba1 1_555 1_555
O18 Ba2 1_555 1_555
O19 Ba1 1_555 1_555
O20 Ba1 1_555 1_555
O21 S2 1_555 1_555
O22 S2 1_555 1_555
O23 Ba1 1_555 1_555
O24 Ba2 1_555 1_555
O25 Ba2 1_555 1_555
O27 S4 1_555 1_555
O28 S4 1_555 1_555
N1 Cu1 1_555 1_555
N2 Cu1 1_555 1_555
N3 Cu2 1_555 1_555
N4 Cu2 1_555 1_555
C1 O1 1_555 1_555
C2 N1 1_555 1_555
C3 C2 1_555 1_555
C4 C3 1_555 1_555
C5 C3 1_555 1_555
C6 C5 1_555 1_555
C7 C6 1_555 1_555
C8 O3 1_555 1_555
C9 O3 1_555 1_555
C10 O4 1_555 1_555
C11 O4 1_555 1_555
C12 O5 1_555 1_555
C13 O5 1_555 1_555
C14 O6 1_555 1_555
C15 O6 1_555 1_555
C16 O7 1_555 1_555
C17 C15 1_555 1_555
C18 C17 1_555 1_555
C19 C18 1_555 1_555
C20 C16 1_555 1_555
C21 N2 1_555 1_555
C22 O8 1_555 1_555
C23 O9 1_555 1_555
C24 N3 1_555 1_555
C25 C24 1_555 1_555
C26 C25 1_555 1_555
C27 C25 1_555 1_555
C28 C27 1_555 1_555
C29 C28 1_555 1_555
C30 O11 1_555 1_555
C31 O11 1_555 1_555
C32 O12 1_555 1_555
C33 O12 1_555 1_555
C34 O13 1_555 1_555
C35 O13 1_555 1_555
C36 O14 1_555 1_555
C37 O14 1_555 1_555
C38 O15 1_555 1_555
C39 C37 1_555 1_555
C40 C39 1_555 1_555
C41 C40 1_555 1_555
C42 C38 1_555 1_555
C43 N4 1_555 1_555
C44 O16 1_555 1_555
C45 S1 1_555 1_555
C46 S2 1_555 1_555
C47 S3 1_555 1_555
C48 S4 1_555 1_555
H1 C1 1_555 1_555
H2 C1 1_555 1_555
H3 C1 1_555 1_555
H4 C2 1_555 1_555
H5 C5 1_555 1_555
H6 C6 1_555 1_555
H7 C7 1_555 1_555
H8 C9 1_555 1_555
H9 C9 1_555 1_555
H10 C10 1_555 1_555
H11 C10 1_555 1_555
H12 C11 1_555 1_555
H13 C11 1_555 1_555
H14 C12 1_555 1_555
H15 C12 1_555 1_555
H16 C13 1_555 1_555
H17 C13 1_555 1_555
H18 C14 1_555 1_555
H19 C14 1_555 1_555
H20 C17 1_555 1_555
H21 C18 1_555 1_555
H22 C19 1_555 1_555
H23 C21 1_555 1_555
H24 C22 1_555 1_555
H25 C22 1_555 1_555
H26 C22 1_555 1_555
H27 C23 1_555 1_555
H28 C23 1_555 1_555
H29 C23 1_555 1_555
H30 C24 1_555 1_555
H31 C27 1_555 1_555
H32 C28 1_555 1_555
H33 C29 1_555 1_555
H34 C31 1_555 1_555
H35 C31 1_555 1_555
H36 C32 1_555 1_555
H37 C32 1_555 1_555
H38 C33 1_555 1_555
H39 C33 1_555 1_555
H40 C34 1_555 1_555
H41 C34 1_555 1_555
H42 C35 1_555 1_555
H43 C35 1_555 1_555
H44 C36 1_555 1_555
H45 C36 1_555 1_555
H46 C39 1_555 1_555
H47 C40 1_555 1_555
H48 C41 1_555 1_555
H49 C43 1_555 1_555
H50 C44 1_555 1_555
H51 C44 1_555 1_555
H52 C44 1_555 1_555
O22A Ba2 1_555 1_555
Ba2A O22 1_555 1_555
Cu1 O7 1_555 1_555
Cu2 O15 1_555 1_555
S1 O18 1_555 1_555
S1 O19 1_555 1_555
S3 O24 1_555 1_555
S3 O25 1_555 1_555
C4 C8 1_555 1_555
C7 C8 1_555 1_555
C9 C10 1_555 1_555
C11 C12 1_555 1_555
C13 C14 1_555 1_555
C15 C16 1_555 1_555
C19 C20 1_555 1_555
C20 C21 1_555 1_555
C26 C30 1_555 1_555
C29 C30 1_555 1_555
C31 C32 1_555 1_555
C33 C34 1_555 1_555
C35 C36 1_555 1_555
C37 C38 1_555 1_555
C41 C42 1_555 1_555
C42 C43 1_555 1_555

#END
