
#######################################################################
#
#                 Cambridge Crystallographic Data Centre
#                                CCDC 
#
#######################################################################
#
# If this CIF has been generated from an entry in the Cambridge 
# Structural Database, then it will include bibliographic, chemical, 
# crystal, experimental, refinement or atomic coordinate data resulting 
# from the CCDC's data processing and validation procedures.
#
#######################################################################

data_KAMLER
_symmetry_cell_setting           triclinic
_symmetry_space_group_name_H-M   'P -1'
_symmetry_Int_Tables_number      2
_space_group_name_Hall           '-P 1'
loop_
_symmetry_equiv_pos_site_id
_symmetry_equiv_pos_as_xyz
1 x,y,z
2 -x,-y,-z
_cell_length_a                   12.016(2)
_cell_length_b                   13.359(3)
_cell_length_c                   14.234(3)
_cell_angle_alpha                102.363(2)
_cell_angle_beta                 112.610(2)
_cell_angle_gamma                105.507(2)
_cell_volume                     1899.13
loop_
_atom_site_label
_atom_site_type_symbol
_atom_site_fract_x
_atom_site_fract_y
_atom_site_fract_z
Co1 Co 0.5000 1.0000 0.5000
Co2 Co 0.69550(6) 0.47044(5) 0.15921(5)
Zn1 Zn 0.47444(5) 0.75597(4) 0.30499(4)
Zn2 Zn 0.17954(5) 0.79548(4) 0.41332(4)
Zn3 Zn 0.46916(5) 1.07997(4) 0.26281(4)
N1 N 0.4252(4) 0.6021(3) 0.3361(3)
N2 N 0.0894(4) 0.8264(3) 0.5163(3)
N3 N 0.3023(5) 0.9705(4) 0.1121(4)
O1 O 0.4781(3) 0.8311(2) 0.4548(2)
O2 O 0.2831(3) 0.7066(3) 0.4608(3)
O3 O 0.5058(3) 0.7880(3) 0.6273(2)
O4 O 0.4816(4) 0.6433(3) 0.1822(3)
O5 O 0.5091(3) 0.4859(3) 0.1334(3)
O6 O 0.3303(3) 0.9540(2) 0.5214(2)
O7 O 0.3600(3) 1.1301(2) 0.6598(3)
O8 O 0.3851(3) 0.9651(3) 0.7147(2)
O9 O -0.0050(3) 0.6662(3) 0.3275(3)
O10 O -0.2092(3) 0.6098(3) 0.3047(3)
O11 O 0.3881(3) 0.9684(2) 0.3317(2)
O12 O 0.3138(3) 0.7688(3) 0.2114(3)
O13 O 0.1669(3) 0.8251(3) 0.2804(2)
O14 O 0.4826(3) 1.1675(3) 0.1609(3)
O15 O 0.3767(5) 1.1777(4) -0.0007(3)
O16 O 0.7052(4) 0.5839(3) 0.0753(3)
H1 H 0.7127 0.6464 0.1128
H2 H 0.6363 0.5586 0.0145
O17 O 0.5878(4) 0.3326(3) 0.0174(3)
H3 H 0.5675 0.3520 -0.0381
H4 H 0.5185 0.2918 0.0152
O18 O 0.6798(4) 0.3731(3) 0.2497(3)
H5 H 0.6051 0.3202 0.2183
H6 H 0.6966 0.4102 0.3134
O19 O 0.8688(4) 0.4609(3) 0.1712(3)
H7 H 0.9311 0.5243 0.2086
H8 H 0.8627 0.4399 0.1081
P1 P 0.43081(12) 0.74761(9) 0.50442(9)
P2 P 0.31951(11) 1.00438(9) 0.62371(9)
P3 P 0.27184(11) 0.86213(9) 0.24661(9)
S1 S 0.25824(18) 0.39444(13) 0.26799(16)
S2 S -0.02498(15) 0.73891(13) 0.62511(12)
S3 S 0.2328(3) 0.8429(2) -0.09364(17)
C1 C 0.2837(5) 0.5353(4) 0.2697(4)
H21 H 0.2538 0.5361 0.1962
H22 H 0.2356 0.5651 0.3012
C2 C 0.4877(5) 0.5332(4) 0.2954(4)
H23 H 0.5773 0.5562 0.3528
C3 C 0.4119(6) 0.4079(4) 0.2697(5)
H24 H 0.4616 0.3832 0.3251
H25 H 0.3975 0.3630 0.1996
C4 C 0.4673(5) 0.6297(4) 0.4551(3)
H26 H 0.5604 0.6476 0.4945
H27 H 0.4216 0.5661 0.4673
C5 C 0.4939(4) 0.5557(4) 0.1965(4)
C6 C 0.1069(5) 0.7595(4) 0.5874(4)
H28 H 0.1031 0.6883 0.5490
H29 H 0.1912 0.7980 0.6521
C7 C -0.0538(4) 0.7835(4) 0.4445(4)
H30 H -0.0723 0.8389 0.4123
C8 C -0.1250(5) 0.7702(5) 0.5118(4)
H31 H -0.1361 0.8382 0.5382
H32 H -0.2107 0.7102 0.4683
C9 C 0.1450(4) 0.9473(4) 0.5800(4)
H33 H 0.1021 0.9848 0.5354
H34 H 0.1301 0.9590 0.6430
C10 C -0.0931(4) 0.6766(4) 0.3516(3)
C11 C 0.3510(7) 0.8956(5) 0.0498(5)
H35 H 0.3560 0.8346 0.0757
H36 H 0.4370 0.9389 0.0612
C12 C 0.2644(6) 1.0313(5) 0.0419(4)
H37 H 0.2105 1.0633 0.0650
C13 C 0.1766(9) 0.9621(7) -0.0743(6)
H38 H 0.1869 1.0032 -0.1210
H39 H 0.0858 0.9355 -0.0895
C14 C 0.2002(5) 0.8994(4) 0.1273(4)
H40 H 0.1459 0.8323 0.0631
H41 H 0.1451 0.9379 0.1365
C15 C 0.3836(5) 1.1329(4) 0.0681(4)
Co2A Co 0.30450(6) 1.52956(5) 0.84079(5)
Co2_2 Co -0.30450(6) 0.47044(5) 0.15921(5)
Co2A_2 Co 1.30450(6) 1.52956(5) 0.84079(5)
Zn1A Zn 0.52556(5) 1.24403(4) 0.69501(4)
Zn2A Zn 0.82046(5) 1.20452(4) 0.58668(4)
Zn3A Zn 0.53084(5) 0.92003(4) 0.73719(4)
N1A N 0.5748(4) 1.3979(3) 0.6639(3)
N2A N 0.9106(4) 1.1736(3) 0.4837(3)
N3A N 0.6977(5) 1.0295(4) 0.8879(4)
O1A O 0.5219(3) 1.1689(2) 0.5452(2)
O2A O 0.7169(3) 1.2934(3) 0.5392(3)
O3A O 0.4942(3) 1.2120(3) 0.3727(2)
O4A O 0.5184(4) 1.3567(3) 0.8178(3)
O5A O 0.4909(3) 1.5141(3) 0.8666(3)
O6A O 0.6697(3) 1.0460(2) 0.4786(2)
O7A O 0.6400(3) 0.8699(2) 0.3402(3)
O8A O 0.6149(3) 1.0349(3) 0.2853(2)
O9A O 1.0050(3) 1.3338(3) 0.6725(3)
O10A O 1.2092(3) 1.3902(3) 0.6953(3)
O10_2 O 0.7908(3) 0.6098(3) 0.3047(3)
O10A_2 O 0.2092(3) 1.3902(3) 0.6953(3)
O11A O 0.6119(3) 1.0316(2) 0.6683(2)
O12A O 0.6862(3) 1.2312(3) 0.7886(3)
O13A O 0.8331(3) 1.1749(3) 0.7196(2)
O14A O 0.5174(3) 0.8325(3) 0.8391(3)
O15A O 0.6233(5) 0.8223(4) 1.0007(3)
O16A O 0.2948(4) 1.4161(3) 0.9247(3)
H1A H 0.2873 1.3536 0.8872
H2A H 0.3637 1.4414 0.9855
O17A O 0.4122(4) 1.6674(3) 0.9826(3)
H3A H 0.4325 1.6480 1.0381
H4A H 0.4815 1.7082 0.9848
O18A O 0.3202(4) 1.6269(3) 0.7503(3)
H5A H 0.3949 1.6798 0.7817
H6A H 0.3034 1.5898 0.6866
O19A O 0.1312(4) 1.5391(3) 0.8288(3)
H7A H 0.0689 1.4757 0.7914
H8A H 0.1373 1.5601 0.8919
P1A P 0.56919(12) 1.25239(9) 0.49558(9)
P2A P 0.68049(11) 0.99562(9) 0.37629(9)
P3A P 0.72816(11) 1.13787(9) 0.75339(9)
S1A S 0.74176(18) 1.60556(13) 0.73201(16)
S2A S 1.02498(15) 1.26109(13) 0.37489(12)
S3A S 0.7672(3) 1.1571(2) 1.09364(17)
C1A C 0.7163(5) 1.4647(4) 0.7303(4)
H21A H 0.7462 1.4639 0.8038
H22A H 0.7644 1.4349 0.6988
C2A C 0.5123(5) 1.4668(4) 0.7046(4)
H23A H 0.4227 1.4438 0.6472
C3A C 0.5881(6) 1.5921(4) 0.7303(5)
H24A H 0.5384 1.6168 0.6749
H25A H 0.6025 1.6370 0.8004
C4A C 0.5327(5) 1.3703(4) 0.5449(3)
H26A H 0.4396 1.3524 0.5055
H27A H 0.5784 1.4339 0.5327
C5A C 0.5061(4) 1.4443(4) 0.8035(4)
C6A C 0.8931(5) 1.2405(4) 0.4126(4)
H28A H 0.8969 1.3117 0.4510
H29A H 0.8088 1.2020 0.3479
C7A C 1.0538(4) 1.2165(4) 0.5555(4)
H30A H 1.0723 1.1611 0.5877
C8A C 1.1250(5) 1.2298(5) 0.4882(4)
H31A H 1.1361 1.1618 0.4618
H32A H 1.2107 1.2898 0.5317
C9A C 0.8550(4) 1.0527(4) 0.4200(4)
H33A H 0.8979 1.0152 0.4646
H34A H 0.8699 1.0410 0.3570
C10A C 1.0931(4) 1.3234(4) 0.6484(3)
C11A C 0.6490(7) 1.1044(5) 0.9502(5)
H35A H 0.6440 1.1654 0.9243
H36A H 0.5630 1.0611 0.9388
C12A C 0.7356(6) 0.9687(5) 0.9581(4)
H37A H 0.7895 0.9367 0.9350
C13A C 0.8234(9) 1.0379(7) 1.0743(6)
H38A H 0.8131 0.9968 1.1210
H39A H 0.9142 1.0645 1.0895
C14A C 0.7998(5) 1.1006(4) 0.8727(4)
H40A H 0.8541 1.1677 0.9369
H41A H 0.8549 1.0621 0.8635
C15A C 0.6164(5) 0.8671(4) 0.9319(4)
O20 O 0.7546(4) 0.8071(3) 0.1971(3)
H9 H 0.7211 0.8253 0.2375
H10 H 0.7128 0.8123 0.1360
O21 O 0.2132(6) 0.5310(4) 0.5305(4)
H11 H 0.2268 0.5766 0.4988
H12 H 0.1646 0.4665 0.4825
O22 O 0.9745(5) 0.0446(4) 0.6928(5)
H13 H 0.9306 0.0833 0.7006
H14 H 1.0549 0.0874 0.7253
O23 O 0.1090(6) 0.5959(5) 0.0137(4)
H15 H 0.1633 0.6417 0.0778
H16 H 0.0516 0.5456 0.0172
O24 O 0.1993(10) 0.1361(8) 0.2662(10)
H17 H 0.2809 0.1517 0.2999
H18 H 0.1598 0.0853 0.2827
O25 O 0.9278(12) 0.6807(10) 0.0460(13)
H19 H 0.8656 0.6407 0.0531
H20 H 0.9728 0.6434 0.0375
loop_
_geom_bond_atom_site_label_1
_geom_bond_atom_site_label_2
_geom_bond_site_symmetry_1
_geom_bond_site_symmetry_2
Co1 O1 1_555 1_555
Co2 O5 1_555 1_555
Zn1 N1 1_555 1_555
Zn2 N2 1_555 1_555
Zn3 N3 1_555 1_555
N1 C1 1_555 1_555
N2 C6 1_555 1_555
N3 C11 1_555 1_555
O1 Zn1 1_555 1_555
O2 Zn2 1_555 1_555
O3 P1 1_555 1_555
O4 Zn1 1_555 1_555
O5 C5 1_555 1_555
O6 Co1 1_555 1_555
O7 P2 1_555 1_555
O8 P2 1_555 1_555
O9 Zn2 1_555 1_555
O10 C10 1_555 1_555
O11 Co1 1_555 1_555
O12 Zn1 1_555 1_555
O13 Zn2 1_555 1_555
O14 Zn3 1_555 1_555
O15 C15 1_555 1_555
O16 Co2 1_555 1_555
H1 O16 1_555 1_555
H2 O16 1_555 1_555
O17 Co2 1_555 1_555
H3 O17 1_555 1_555
H4 O17 1_555 1_555
O18 Co2 1_555 1_555
H5 O18 1_555 1_555
H6 O18 1_555 1_555
O19 Co2 1_555 1_555
H7 O19 1_555 1_555
H8 O19 1_555 1_555
O20 H9 1_555 1_555
H10 O20 1_555 1_555
O21 H11 1_555 1_555
H12 O21 1_555 1_555
O22 H13 1_555 1_555
H14 O22 1_555 1_555
O23 H15 1_555 1_555
H16 O23 1_555 1_555
O24 H17 1_555 1_555
H18 O24 1_555 1_555
O25 H19 1_555 1_555
H20 O25 1_555 1_555
P1 O1 1_555 1_555
P2 O6 1_555 1_555
P3 O11 1_555 1_555
S1 C1 1_555 1_555
S2 C6 1_555 1_555
S3 C11 1_555 1_555
C1 H21 1_555 1_555
H22 C1 1_555 1_555
C2 N1 1_555 1_555
H23 C2 1_555 1_555
C3 S1 1_555 1_555
H24 C3 1_555 1_555
H25 C3 1_555 1_555
C4 N1 1_555 1_555
H26 C4 1_555 1_555
H27 C4 1_555 1_555
C5 O4 1_555 1_555
C6 H28 1_555 1_555
H29 C6 1_555 1_555
C7 N2 1_555 1_555
H30 C7 1_555 1_555
C8 S2 1_555 1_555
H31 C8 1_555 1_555
H32 C8 1_555 1_555
C9 N2 1_555 1_555
H33 C9 1_555 1_555
H34 C9 1_555 1_555
C10 O9 1_555 1_555
C11 H35 1_555 1_555
H36 C11 1_555 1_555
C12 N3 1_555 1_555
H37 C12 1_555 1_555
C13 S3 1_555 1_555
H38 C13 1_555 1_555
H39 C13 1_555 1_555
C14 N3 1_555 1_555
H40 C14 1_555 1_555
H41 C14 1_555 1_555
C15 O14 1_555 1_555
Co2A O5A 1_555 1_555
Co2_2 O10 1_555 1_555
Co2A_2 O10A 1_555 1_555
Zn1A O7 1_555 1_555
Zn2A N2A 1_555 1_555
Zn3A O3 1_555 1_555
N1A Zn1A 1_555 1_555
N2A C6A 1_555 1_555
N3A Zn3A 1_555 1_555
O1A Co1 1_555 1_555
O2A Zn2A 1_555 1_555
O3A Zn3 1_555 1_555
O4A Zn1A 1_555 1_555
O5A C5A 1_555 1_555
O6A Co1 1_555 1_555
O7A Zn1 1_555 1_555
O8A Zn3 1_555 1_555
O9A Zn2A 1_555 1_555
O10A C10A 1_555 1_555
O10_2 Co2 1_555 1_555
O10A_2 Co2A 1_555 1_555
O11A Co1 1_555 1_555
O12A Zn1A 1_555 1_555
O13A Zn2A 1_555 1_555
O14A Zn3A 1_555 1_555
O15A C15A 1_555 1_555
O16A Co2A 1_555 1_555
H1A O16A 1_555 1_555
H2A O16A 1_555 1_555
O17A Co2A 1_555 1_555
H3A O17A 1_555 1_555
H4A O17A 1_555 1_555
O18A Co2A 1_555 1_555
H5A O18A 1_555 1_555
H6A O18A 1_555 1_555
O19A Co2A 1_555 1_555
H7A O19A 1_555 1_555
H8A O19A 1_555 1_555
P1A O1A 1_555 1_555
P2A O6A 1_555 1_555
P3A O11A 1_555 1_555
S1A C1A 1_555 1_555
S2A C6A 1_555 1_555
S3A C11A 1_555 1_555
C1A N1A 1_555 1_555
H21A C1A 1_555 1_555
H22A C1A 1_555 1_555
C2A N1A 1_555 1_555
H23A C2A 1_555 1_555
C3A S1A 1_555 1_555
H24A C3A 1_555 1_555
H25A C3A 1_555 1_555
C4A N1A 1_555 1_555
H26A C4A 1_555 1_555
H27A C4A 1_555 1_555
C5A O4A 1_555 1_555
C6A H28A 1_555 1_555
H29A C6A 1_555 1_555
C7A N2A 1_555 1_555
H30A C7A 1_555 1_555
C8A S2A 1_555 1_555
H31A C8A 1_555 1_555
H32A C8A 1_555 1_555
C9A N2A 1_555 1_555
H33A C9A 1_555 1_555
H34A C9A 1_555 1_555
C10A O9A 1_555 1_555
C11A N3A 1_555 1_555
H35A C11A 1_555 1_555
H36A C11A 1_555 1_555
C12A N3A 1_555 1_555
H37A C12A 1_555 1_555
C13A S3A 1_555 1_555
H38A C13A 1_555 1_555
H39A C13A 1_555 1_555
C14A N3A 1_555 1_555
H40A C14A 1_555 1_555
H41A C14A 1_555 1_555
C15A O14A 1_555 1_555
Zn2 O6 1_555 1_555
Zn3 O11 1_555 1_555
O2 P1 1_555 1_555
O8 Zn3A 1_555 1_555
O12 P3 1_555 1_555
O13 P3 1_555 1_555
P1 C4 1_555 1_555
P2 C9 1_555 1_555
P3 C14 1_555 1_555
C2 C3 1_555 1_555
C2 C5 1_555 1_555
C7 C8 1_555 1_555
C7 C10 1_555 1_555
C12 C13 1_555 1_555
C12 C15 1_555 1_555
Zn1A O1A 1_555 1_555
Zn2A O6A 1_555 1_555
Zn3A O11A 1_555 1_555
O2A P1A 1_555 1_555
O3A P1A 1_555 1_555
O7A P2A 1_555 1_555
O8A P2A 1_555 1_555
O12A P3A 1_555 1_555
O13A P3A 1_555 1_555
P1A C4A 1_555 1_555
P2A C9A 1_555 1_555
P3A C14A 1_555 1_555
C2A C3A 1_555 1_555
C2A C5A 1_555 1_555
C7A C8A 1_555 1_555
C7A C10A 1_555 1_555
C12A C13A 1_555 1_555
C12A C15A 1_555 1_555

#END
