
#######################################################################
#
#                 Cambridge Crystallographic Data Centre
#                                CCDC 
#
#######################################################################
#
# If this CIF has been generated from an entry in the Cambridge 
# Structural Database, then it will include bibliographic, chemical, 
# crystal, experimental, refinement or atomic coordinate data resulting 
# from the CCDC's data processing and validation procedures.
#
#######################################################################

data_KAMLIV
_symmetry_cell_setting           triclinic
_symmetry_space_group_name_H-M   'P -1'
_symmetry_Int_Tables_number      2
_space_group_name_Hall           '-P 1'
loop_
_symmetry_equiv_pos_site_id
_symmetry_equiv_pos_as_xyz
1 x,y,z
2 -x,-y,-z
_cell_length_a                   11.9857(10)
_cell_length_b                   13.2949(13)
_cell_length_c                   14.2459(14)
_cell_angle_alpha                102.6680(10)
_cell_angle_beta                 112.821(2)
_cell_angle_gamma                105.4090(10)
_cell_volume                     1879.74
loop_
_atom_site_label
_atom_site_type_symbol
_atom_site_fract_x
_atom_site_fract_y
_atom_site_fract_z
Zn1 Zn 0.5000 0.5000 0.5000
Zn2 Zn 0.17914(4) 0.29466(4) 0.41361(4)
Zn3 Zn 0.53273(5) 0.42076(4) 0.73722(4)
Zn4 Zn 0.47122(4) 0.25359(4) 0.30284(4)
Zn5 Zn -0.30084(5) -0.03346(4) 0.15927(4)
N1 N 0.0895(3) 0.3267(3) 0.5170(3)
N2 N 0.7028(4) 0.5302(3) 0.8884(3)
N3 N 0.4237(3) 0.0989(3) 0.3341(3)
O1 O 0.3307(2) 0.4546(2) 0.5217(2)
O2 O 0.3871(3) 0.4668(2) 0.7157(2)
O3 O 0.3617(3) 0.6324(2) 0.6611(2)
O4 O -0.0060(3) 0.1626(2) 0.3275(2)
O5 O -0.2106(3) 0.1071(2) 0.3047(2)
O6 O 0.6134(3) 0.5321(2) 0.6681(2)
O7 O 0.8365(3) 0.6760(2) 0.7192(2)
O8 O 0.6902(3) 0.7333(2) 0.7898(2)
O9 O 0.5191(3) 0.3346(2) 0.8404(2)
O10 O 0.6254(4) 0.3258(3) 1.0028(3)
O11 O 0.4783(3) 0.3299(2) 0.4544(2)
O12 O 0.2825(3) 0.2058(2) 0.4603(2)
O13 O 0.5070(3) 0.2877(2) 0.6274(2)
O14 O 0.4774(3) 0.1406(2) 0.1788(2)
O15 O 0.5048(3) -0.0177(2) 0.1290(2)
O16 O -0.2913(3) 0.0812(3) 0.0778(3)
H1 H -0.2823 0.1442 0.1168
H2 H -0.3610 0.0568 0.0171
O17 O -0.1263(3) -0.0440(3) 0.1729(3)
H3 H -0.0638 0.0200 0.2109
H4 H -0.1320 -0.0649 0.1098
O18 O -0.3178(3) -0.1295(3) 0.2496(3)
H5 H -0.3931 -0.1827 0.2180
H6 H -0.3012 -0.0912 0.3131
O19 O -0.4102(3) -0.1700(2) 0.0175(2)
H7 H -0.4312 -0.1505 -0.0378
H8 H -0.4797 -0.2105 0.0157
P1 P 0.32077(10) 0.50593(8) 0.62475(8)
P2 P 0.73176(10) 0.63905(8) 0.75381(8)
P3 P 0.43116(10) 0.24660(8) 0.50394(8)
S1 S -0.02488(13) 0.23967(11) 0.62593(11)
S2 S 0.7756(2) 0.65521(18) 1.09586(14)
S3 S 0.25723(15) -0.11048(11) 0.26469(13)
C1 C 0.1078(4) 0.2605(3) 0.5891(4)
H17 H 0.1925 0.3002 0.6543
H18 H 0.1047 0.1888 0.5512
C2 C -0.0548(4) 0.2831(3) 0.4441(3)
H19 H -0.0738 0.3383 0.4115
C3 C -0.1251(4) 0.2703(4) 0.5119(4)
H20 H -0.2112 0.2099 0.4682
H21 H -0.1361 0.3389 0.5382
C4 C 0.1459(4) 0.4492(3) 0.5809(3)
H22 H 0.1314 0.4618 0.6442
H23 H 0.1029 0.4865 0.5360
C5 C -0.0941(4) 0.1746(3) 0.3518(3)
C6 C 0.6582(6) 0.6049(5) 0.9521(4)
H24 H 0.5710 0.5624 0.9398
H25 H 0.6552 0.6675 0.9282
C7 C 0.7404(5) 0.4677(4) 0.9569(4)
H26 H 0.7916 0.4331 0.9320
C8 C 0.8313(6) 0.5385(5) 1.0737(5)
H27 H 0.9217 0.5661 1.0873
H28 H 0.8238 0.4971 1.1207
C9 C 0.8049(4) 0.6020(4) 0.8723(3)
H29 H 0.8596 0.5631 0.8622
H30 H 0.8603 0.6696 0.9368
C10 C 0.6189(5) 0.3693(4) 0.9330(4)
C11 C 0.2805(4) 0.0307(4) 0.2674(4)
H31 H 0.2493 0.0316 0.1938
H32 H 0.2326 0.0601 0.2997
C12 C 0.4868(4) 0.0309(3) 0.2925(3)
H33 H 0.5775 0.0550 0.3496
C13 C 0.4120(5) -0.0955(4) 0.2673(4)
H34 H 0.4627 -0.1192 0.3232
H35 H 0.3978 -0.1412 0.1972
C14 C 0.4667(4) 0.1270(3) 0.4530(3)
H36 H 0.5602 0.1448 0.4923
H37 H 0.4208 0.0631 0.4650
C15 C 0.4899(4) 0.0526(3) 0.1923(3)
Zn2A Zn 0.82086(4) 0.70534(4) 0.58639(4)
Zn3A Zn 0.46727(5) 0.57924(4) 0.26278(4)
Zn4A Zn 0.52878(4) 0.74641(4) 0.69716(4)
Zn5A Zn 1.30084(5) 1.03346(4) 0.84073(4)
Zn5_2 Zn 0.69916(5) -0.03346(4) 0.15927(4)
Zn5A_2 Zn 0.30084(5) 1.03346(4) 0.84073(4)
N1A N 0.9105(3) 0.6733(3) 0.4830(3)
N2A N 0.2972(4) 0.4698(3) 0.1116(3)
N3A N 0.5763(3) 0.9011(3) 0.6659(3)
O1A O 0.6693(2) 0.5454(2) 0.4783(2)
O2A O 0.6129(3) 0.5332(2) 0.2843(2)
O3A O 0.6383(3) 0.3676(2) 0.3389(2)
O4A O 1.0060(3) 0.8374(2) 0.6725(2)
O5A O 1.2106(3) 0.8929(2) 0.6953(2)
O6A O 0.3866(3) 0.4679(2) 0.3319(2)
O7A O 0.1635(3) 0.3240(2) 0.2808(2)
O8A O 0.3098(3) 0.2667(2) 0.2102(2)
O9A O 0.4809(3) 0.6654(2) 0.1596(2)
O10A O 0.3746(4) 0.6742(3) -0.0028(3)
O11A O 0.5217(3) 0.6701(2) 0.5456(2)
O12A O 0.7175(3) 0.7942(2) 0.5397(2)
O13A O 0.4930(3) 0.7123(2) 0.3726(2)
O14A O 0.5226(3) 0.8594(2) 0.8212(2)
O15A O 0.4952(3) 1.0177(2) 0.8710(2)
O15_2 O -0.4952(3) -0.0177(2) 0.1290(2)
O15A_2 O 1.4952(3) 1.0177(2) 0.8710(2)
O16A O 1.2913(3) 0.9188(3) 0.9222(3)
H1A H 1.2823 0.8558 0.8832
H2A H 1.3610 0.9432 0.9829
O17A O 1.1263(3) 1.0440(3) 0.8271(3)
H3A H 1.0638 0.9800 0.7891
H4A H 1.1320 1.0649 0.8902
O18A O 1.3178(3) 1.1295(3) 0.7504(3)
H5A H 1.3931 1.1827 0.7820
H6A H 1.3012 1.0912 0.6869
O19A O 1.4102(3) 1.1700(2) 0.9825(2)
H7A H 1.4312 1.1505 1.0378
H8A H 1.4797 1.2105 0.9843
P1A P 0.67923(10) 0.49407(8) 0.37525(8)
P2A P 0.26824(10) 0.36095(8) 0.24619(8)
P3A P 0.56884(10) 0.75340(8) 0.49606(8)
S1A S 1.02488(13) 0.76033(11) 0.37407(11)
S2A S 0.2244(2) 0.34479(18) -0.09586(14)
S3A S 0.74277(15) 1.11048(11) 0.73531(13)
C1A C 0.8922(4) 0.7395(3) 0.4109(4)
H17A H 0.8075 0.6998 0.3457
H18A H 0.8953 0.8112 0.4488
C2A C 1.0548(4) 0.7169(3) 0.5559(3)
H19A H 1.0738 0.6617 0.5885
C3A C 1.1251(4) 0.7297(4) 0.4881(4)
H20A H 1.2112 0.7901 0.5318
H21A H 1.1361 0.6611 0.4618
C4A C 0.8541(4) 0.5508(3) 0.4191(3)
H22A H 0.8686 0.5382 0.3558
H23A H 0.8971 0.5135 0.4640
C5A C 1.0941(4) 0.8254(3) 0.6482(3)
C6A C 0.3418(6) 0.3951(5) 0.0479(4)
H24A H 0.4290 0.4376 0.0602
H25A H 0.3448 0.3325 0.0718
C7A C 0.2596(5) 0.5323(4) 0.0431(4)
H26A H 0.2084 0.5669 0.0680
C8A C 0.1687(6) 0.4615(5) -0.0737(5)
H27A H 0.0783 0.4339 -0.0873
H28A H 0.1762 0.5029 -0.1207
C9A C 0.1951(4) 0.3980(4) 0.1277(3)
H29A H 0.1404 0.4369 0.1378
H30A H 0.1397 0.3304 0.0632
C10A C 0.3811(5) 0.6307(4) 0.0670(4)
C11A C 0.7195(4) 0.9693(4) 0.7326(4)
H31A H 0.7507 0.9684 0.8062
H32A H 0.7674 0.9399 0.7003
C12A C 0.5132(4) 0.9691(3) 0.7075(3)
H33A H 0.4225 0.9450 0.6504
C13A C 0.5880(5) 1.0955(4) 0.7327(4)
H34A H 0.5373 1.1192 0.6768
H35A H 0.6022 1.1412 0.8028
C14A C 0.5333(4) 0.8730(3) 0.5470(3)
H36A H 0.4398 0.8552 0.5077
H37A H 0.5792 0.9369 0.5350
C15A C 0.5101(4) 0.9474(3) 0.8077(3)
O20 O 0.7527(3) 0.3035(3) 1.1972(3)
H9 H 0.7126 0.3109 1.1367
H10 H 0.7193 0.3223 1.2376
O21 O 0.7851(5) 0.9702(3) 1.4694(3)
H11 H 0.8344 1.0352 1.5177
H12 H 0.7720 0.9245 1.5011
O22 O 0.0238(5) 0.4549(4) 1.3078(4)
H13 H 0.0679 0.4161 1.3002
H14 H -0.0570 0.4115 1.2754
O23 O 0.8983(5) 0.9042(4) 0.9885(4)
H15 H 0.8412 0.8591 0.9241
H16 H 0.9523 0.9572 0.9844
loop_
_geom_bond_atom_site_label_1
_geom_bond_atom_site_label_2
_geom_bond_site_symmetry_1
_geom_bond_site_symmetry_2
Zn1 O1 1_555 1_555
Zn2 N1 1_555 1_555
Zn3 N2 1_555 1_555
Zn4 N3 1_555 1_555
Zn5 O5 1_555 1_555
N1 C1 1_555 1_555
N2 C6 1_555 1_555
N3 C11 1_555 1_555
O1 Zn2 1_555 1_555
O2 Zn3 1_555 1_555
O3 P1 1_555 1_555
O4 Zn2 1_555 1_555
O5 C5 1_555 1_555
O6 Zn1 1_555 1_555
O7 P2 1_555 1_555
O8 P2 1_555 1_555
O9 Zn3 1_555 1_555
O10 C10 1_555 1_555
O11 Zn1 1_555 1_555
O12 Zn2 1_555 1_555
O13 Zn3 1_555 1_555
O14 Zn4 1_555 1_555
O15 C15 1_555 1_555
O16 Zn5 1_555 1_555
H1 O16 1_555 1_555
H2 O16 1_555 1_555
O17 Zn5 1_555 1_555
H3 O17 1_555 1_555
H4 O17 1_555 1_555
O18 Zn5 1_555 1_555
H5 O18 1_555 1_555
H6 O18 1_555 1_555
O19 Zn5 1_555 1_555
H7 O19 1_555 1_555
H8 O19 1_555 1_555
O20 H9 1_555 1_555
H10 O20 1_555 1_555
O21 H11 1_555 1_555
H12 O21 1_555 1_555
O22 H13 1_555 1_555
H14 O22 1_555 1_555
O23 H15 1_555 1_555
H16 O23 1_555 1_555
P1 O1 1_555 1_555
P2 O6 1_555 1_555
P3 O11 1_555 1_555
S1 C1 1_555 1_555
S2 C6 1_555 1_555
S3 C11 1_555 1_555
C1 H17 1_555 1_555
H18 C1 1_555 1_555
C2 N1 1_555 1_555
H19 C2 1_555 1_555
C3 S1 1_555 1_555
H20 C3 1_555 1_555
H21 C3 1_555 1_555
C4 N1 1_555 1_555
H22 C4 1_555 1_555
H23 C4 1_555 1_555
C5 O4 1_555 1_555
C6 H24 1_555 1_555
H25 C6 1_555 1_555
C7 N2 1_555 1_555
H26 C7 1_555 1_555
C8 S2 1_555 1_555
H27 C8 1_555 1_555
H28 C8 1_555 1_555
C9 N2 1_555 1_555
H29 C9 1_555 1_555
H30 C9 1_555 1_555
C10 O9 1_555 1_555
C11 H31 1_555 1_555
H32 C11 1_555 1_555
C12 N3 1_555 1_555
H33 C12 1_555 1_555
C13 S3 1_555 1_555
H34 C13 1_555 1_555
H35 C13 1_555 1_555
C14 N3 1_555 1_555
H36 C14 1_555 1_555
H37 C14 1_555 1_555
C15 O14 1_555 1_555
Zn2A O7 1_555 1_555
Zn3A N2A 1_555 1_555
Zn4A O3 1_555 1_555
Zn5A O5A 1_555 1_555
Zn5_2 O15 1_555 1_555
Zn5A_2 O15A 1_555 1_555
N1A Zn2A 1_555 1_555
N2A C6A 1_555 1_555
N3A Zn4A 1_555 1_555
O1A Zn1 1_555 1_555
O2A Zn3A 1_555 1_555
O3A Zn4 1_555 1_555
O4A Zn2A 1_555 1_555
O5A C5A 1_555 1_555
O6A Zn1 1_555 1_555
O7A Zn2 1_555 1_555
O8A Zn4 1_555 1_555
O9A Zn3A 1_555 1_555
O10A C10A 1_555 1_555
O11A Zn1 1_555 1_555
O12A Zn2A 1_555 1_555
O13A Zn3A 1_555 1_555
O14A Zn4A 1_555 1_555
O15A C15A 1_555 1_555
O15_2 Zn5 1_555 1_555
O15A_2 Zn5A 1_555 1_555
O16A Zn5A 1_555 1_555
H1A O16A 1_555 1_555
H2A O16A 1_555 1_555
O17A Zn5A 1_555 1_555
H3A O17A 1_555 1_555
H4A O17A 1_555 1_555
O18A Zn5A 1_555 1_555
H5A O18A 1_555 1_555
H6A O18A 1_555 1_555
O19A Zn5A 1_555 1_555
H7A O19A 1_555 1_555
H8A O19A 1_555 1_555
P1A O1A 1_555 1_555
P2A O6A 1_555 1_555
P3A O11A 1_555 1_555
S1A C1A 1_555 1_555
S2A C6A 1_555 1_555
S3A C11A 1_555 1_555
C1A N1A 1_555 1_555
H17A C1A 1_555 1_555
H18A C1A 1_555 1_555
C2A N1A 1_555 1_555
H19A C2A 1_555 1_555
C3A S1A 1_555 1_555
H20A C3A 1_555 1_555
H21A C3A 1_555 1_555
C4A N1A 1_555 1_555
H22A C4A 1_555 1_555
H23A C4A 1_555 1_555
C5A O4A 1_555 1_555
C6A H24A 1_555 1_555
H25A C6A 1_555 1_555
C7A N2A 1_555 1_555
H26A C7A 1_555 1_555
C8A S2A 1_555 1_555
H27A C8A 1_555 1_555
H28A C8A 1_555 1_555
C9A N2A 1_555 1_555
H29A C9A 1_555 1_555
H30A C9A 1_555 1_555
C10A O9A 1_555 1_555
C11A N3A 1_555 1_555
H31A C11A 1_555 1_555
H32A C11A 1_555 1_555
C12A N3A 1_555 1_555
H33A C12A 1_555 1_555
C13A S3A 1_555 1_555
H34A C13A 1_555 1_555
H35A C13A 1_555 1_555
C14A N3A 1_555 1_555
H36A C14A 1_555 1_555
H37A C14A 1_555 1_555
C15A O14A 1_555 1_555
Zn3 O6 1_555 1_555
Zn4 O11 1_555 1_555
O2 P1 1_555 1_555
O8 Zn4A 1_555 1_555
O12 P3 1_555 1_555
O13 P3 1_555 1_555
P1 C4 1_555 1_555
P2 C9 1_555 1_555
P3 C14 1_555 1_555
C2 C3 1_555 1_555
C2 C5 1_555 1_555
C7 C8 1_555 1_555
C7 C10 1_555 1_555
C12 C13 1_555 1_555
C12 C15 1_555 1_555
Zn2A O1A 1_555 1_555
Zn3A O6A 1_555 1_555
Zn4A O11A 1_555 1_555
O2A P1A 1_555 1_555
O3A P1A 1_555 1_555
O7A P2A 1_555 1_555
O8A P2A 1_555 1_555
O12A P3A 1_555 1_555
O13A P3A 1_555 1_555
P1A C4A 1_555 1_555
P2A C9A 1_555 1_555
P3A C14A 1_555 1_555
C2A C3A 1_555 1_555
C2A C5A 1_555 1_555
C7A C8A 1_555 1_555
C7A C10A 1_555 1_555
C12A C13A 1_555 1_555
C12A C15A 1_555 1_555

#END
