
#######################################################################
#
#                 Cambridge Crystallographic Data Centre
#                                CCDC 
#
#######################################################################
#
# If this CIF has been generated from an entry in the Cambridge 
# Structural Database, then it will include bibliographic, chemical, 
# crystal, experimental, refinement or atomic coordinate data resulting 
# from the CCDC's data processing and validation procedures.
#
#######################################################################

data_KAMNUJ
_symmetry_cell_setting           monoclinic
_symmetry_space_group_name_H-M   'P 21/c'
_symmetry_Int_Tables_number      14
_space_group_name_Hall           '-P 2ybc'
loop_
_symmetry_equiv_pos_site_id
_symmetry_equiv_pos_as_xyz
1 x,y,z
2 -x,1/2+y,1/2-z
3 -x,-y,-z
4 x,1/2-y,1/2+z
_cell_length_a                   9.6856(4)
_cell_length_b                   5.5817(3)
_cell_length_c                   13.7181(9)
_cell_angle_alpha                90
_cell_angle_beta                 118.5
_cell_angle_gamma                90
_cell_volume                     651.757
loop_
_atom_site_label
_atom_site_type_symbol
_atom_site_fract_x
_atom_site_fract_y
_atom_site_fract_z
Ag1 Ag 0.07510(4) 0.09828(7) 0.40751(4)
N1 N -0.0713(5) 0.4215(7) 0.3100(3)
C1 C 0.3476(4) -0.3030(8) 0.5783(3)
C2 C 0.6661(5) -0.3756(7) 0.6392(3)
N2 N 0.3391(3) 0.0364(6) 0.4686(2)
C3 C 0.4293(5) -0.4890(7) 0.6462(3)
C4 C 0.5846(4) -0.1807(7) 0.5689(3)
C5 C 0.4218(4) -0.1431(6) 0.5384(3)
N3 N -0.0665(4) 0.5931(6) 0.3603(3)
N4 N -0.0682(4) 0.7696(7) 0.4075(3)
C6 C 0.5886(5) -0.5259(7) 0.6756(3)
H1 H 0.238782 -0.279804 0.557449
H2 H 0.774810 -0.401740 0.660460
H3 H 0.379059 -0.596116 0.674212
H4 H 0.642150 -0.659460 0.722590
Ag1_2 Ag 0.07510(4) -0.90172(7) 0.40751(4)
Ag1_3 Ag 0.07510(4) 1.09828(7) 0.40751(4)
Ag1B Ag -0.07510(4) 0.90172(7) 0.59249(4)
Ag1B_2 Ag 0.92490(4) -0.09828(7) 0.59249(4)
Ag1B_3 Ag -0.07510(4) -0.09828(7) 0.59249(4)
N1_2 N -0.0713(5) -0.5785(7) 0.3100(3)
C1B C 0.6524(4) 0.3030(8) 0.4217(3)
C2B C 0.3339(5) 0.3756(7) 0.3608(3)
N2B N 0.6609(3) -0.0364(6) 0.5314(2)
N2_2 N 0.3391(3) -0.9636(6) 0.4686(2)
C3B C 0.5707(5) 0.4890(7) 0.3538(3)
C4B C 0.4154(4) 0.1807(7) 0.4311(3)
C5B C 0.5782(4) 0.1431(6) 0.4616(3)
N3_2 N -0.0665(4) -0.4069(6) 0.3603(3)
N4_2 N -0.0682(4) -0.2304(7) 0.4075(3)
N4B N 0.0682(4) 0.2304(7) 0.5925(3)
N4_3 N -0.0682(4) -1.2304(7) 0.4075(3)
N4B_2 N 0.0682(4) -0.7696(7) 0.5925(3)
C6B C 0.4114(5) 0.5259(7) 0.3244(3)
H1B H 0.761218 0.279804 0.442551
H2B H 0.225190 0.401740 0.339540
H3B H 0.620941 0.596116 0.325788
H4B H 0.357850 0.659460 0.277410
loop_
_geom_bond_atom_site_label_1
_geom_bond_atom_site_label_2
_geom_bond_site_symmetry_1
_geom_bond_site_symmetry_2
Ag1 N1 1_555 1_555
N1 N3 1_555 1_555
C1 C3 1_555 1_555
C2 C4 1_555 1_555
N2 Ag1 1_555 1_555
C3 C6 1_555 1_555
C4 C5 1_555 1_555
C5 C1 1_555 1_555
N3 N4 1_555 1_555
N4 Ag1_3 1_555 1_555
C6 C2 1_555 1_555
H1 C1 1_555 1_555
H2 C2 1_555 1_555
H3 C3 1_555 1_555
H4 C6 1_555 1_555
Ag1_2 N1_2 1_555 1_555
Ag1B N4 1_555 1_555
Ag1B_2 N2B 1_555 1_555
Ag1B_3 N4_2 1_555 1_555
N1_2 N3_2 1_555 1_555
C1B C3B 1_555 1_555
C2B C4B 1_555 1_555
N2B C4 1_555 1_555
N2_2 Ag1_2 1_555 1_555
C3B C6B 1_555 1_555
C4B N2 1_555 1_555
C5B C1B 1_555 1_555
N3_2 N4_2 1_555 1_555
N4_2 Ag1 1_555 1_555
N4B Ag1 1_555 1_555
N4_3 Ag1_2 1_555 1_555
N4B_2 Ag1_2 1_555 1_555
C6B C2B 1_555 1_555
H1B C1B 1_555 1_555
H2B C2B 1_555 1_555
H3B C3B 1_555 1_555
H4B C6B 1_555 1_555
N2 C5 1_555 1_555
Ag1B_3 N4B 1_555 1_555
N2B C5B 1_555 1_555
C4B C5B 1_555 1_555

#END
