
#######################################################################
#
#                 Cambridge Crystallographic Data Centre
#                                CCDC 
#
#######################################################################
#
# If this CIF has been generated from an entry in the Cambridge 
# Structural Database, then it will include bibliographic, chemical, 
# crystal, experimental, refinement or atomic coordinate data resulting 
# from the CCDC's data processing and validation procedures.
#
#######################################################################

data_KAMTOH08
_symmetry_cell_setting           monoclinic
_symmetry_space_group_name_H-M   'P 21/c'
_symmetry_Int_Tables_number      14
_space_group_name_Hall           '-P 2ybc'
loop_
_symmetry_equiv_pos_site_id
_symmetry_equiv_pos_as_xyz
1 x,y,z
2 -x,1/2+y,1/2-z
3 -x,-y,-z
4 x,1/2-y,1/2+z
_cell_length_a                   7.4100(10)
_cell_length_b                   8.8350(10)
_cell_length_c                   10.687(2)
_cell_angle_alpha                90
_cell_angle_beta                 107.630(10)
_cell_angle_gamma                90
_cell_volume                     666.789
loop_
_atom_site_label
_atom_site_type_symbol
_atom_site_fract_x
_atom_site_fract_y
_atom_site_fract_z
Ag1 Ag 0.93243(4) 0.12586(4) 0.41444(3)
O1 O 0.6787(4) -0.0148(4) 0.3571(3)
O2 O 0.7654(4) -0.1870(4) 0.5178(3)
O3 O 0.3333(4) 0.0128(4) 0.2218(3)
C1 C 0.6454(5) -0.1238(4) 0.4250(4)
C2 C 0.4436(5) -0.1766(5) 0.3908(4)
C3 C 0.2996(5) -0.1052(4) 0.2920(4)
C4 C 0.1113(5) -0.1539(4) 0.2656(4)
H1 H 0.0156 -0.1068 0.2002
C5 C 0.0677(5) -0.2719(5) 0.3366(4)
H2 H -0.0572 -0.3038 0.3187
C6 C 0.2111(6) -0.3432(5) 0.4353(4)
H3 H 0.1821 -0.4228 0.4828
C7 C 0.3957(6) -0.2946(5) 0.4615(4)
H4 H 0.4904 -0.3416 0.5277
H5 H 0.472(3) 0.031(6) 0.262(5)
Ag1A Ag 0.06757(4) -0.37414(4) 0.08556(3)
Ag1B Ag 1.06757(4) -0.12586(4) 0.58556(3)
O2B O 1.2346(4) 0.1870(4) 0.4822(3)
C4A C 0.8887(5) 0.3461(4) 0.2344(4)
loop_
_geom_bond_atom_site_label_1
_geom_bond_atom_site_label_2
_geom_bond_site_symmetry_1
_geom_bond_site_symmetry_2
Ag1 O1 1_555 1_555
O1 C1 1_555 1_555
O2 C1 1_555 1_555
O3 C3 1_555 1_555
C1 C2 1_555 1_555
C2 C3 1_555 1_555
C3 C4 1_555 1_555
C4 H1 1_555 1_555
C5 C4 1_555 1_555
H2 C5 1_555 1_555
C6 C5 1_555 1_555
H3 C6 1_555 1_555
C7 C2 1_555 1_555
H4 C7 1_555 1_555
H5 O3 1_555 1_555
Ag1A C4 1_555 1_555
Ag1B Ag1 1_555 1_555
O2B Ag1 1_555 1_555
C4A Ag1 1_555 1_555
O2 Ag1B 1_555 1_555
C6 C7 1_555 1_555

#END
