
#######################################################################
#
#                 Cambridge Crystallographic Data Centre
#                                CCDC 
#
#######################################################################
#
# If this CIF has been generated from an entry in the Cambridge 
# Structural Database, then it will include bibliographic, chemical, 
# crystal, experimental, refinement or atomic coordinate data resulting 
# from the CCDC's data processing and validation procedures.
#
#######################################################################

data_KAMTOH06
_symmetry_cell_setting           monoclinic
_symmetry_space_group_name_H-M   'P 21/c'
_symmetry_Int_Tables_number      14
_space_group_name_Hall           '-P 2ybc'
loop_
_symmetry_equiv_pos_site_id
_symmetry_equiv_pos_as_xyz
1 x,y,z
2 -x,1/2+y,1/2-z
3 -x,-y,-z
4 x,1/2-y,1/2+z
_cell_length_a                   7.4155(10)
_cell_length_b                   8.8600(12)
_cell_length_c                   10.6932(14)
_cell_angle_alpha                90
_cell_angle_beta                 107.683(1)
_cell_angle_gamma                90
_cell_volume                     669.363
loop_
_atom_site_label
_atom_site_type_symbol
_atom_site_fract_x
_atom_site_fract_y
_atom_site_fract_z
O1 O 1.2659(3) 0.8132(3) 1.0175(2)
O2 O 1.1782(3) 0.9851(3) 0.8568(2)
C1 C 1.1451(4) 0.8766(3) 0.9254(3)
Ag1 Ag 1.56778(4) 0.87453(3) 1.08574(3)
C2 C 0.7994(4) 0.8954(3) 0.7925(3)
C3 C 0.8963(4) 0.7052(4) 0.9611(3)
H1 H 0.9910 0.6579 1.0270
C4 C 0.6121(4) 0.8466(3) 0.7659(3)
H2 H 0.5165 0.8936 0.7004
C5 C 0.9439(4) 0.8234(3) 0.8910(3)
C6 C 0.5683(4) 0.7285(4) 0.8365(3)
H3 H 0.4435 0.6967 0.8185
C7 C 0.7115(5) 0.6570(4) 0.9349(3)
H4 H 0.6824 0.5775 0.9823
O3 O 0.8328(3) 1.0124(3) 0.7221(2)
H5 H 0.9465 1.0309 0.7450
O2B O 1.8218(3) 1.0149(3) 1.1432(2)
Ag1B Ag 1.43222(4) 1.12547(3) 0.91426(3)
Ag1C Ag 0.56778(4) 0.62547(3) 0.58574(3)
C4C C 1.6121(4) 0.6534(3) 1.2659(3)
H2C H 1.5165 0.6064 1.2004
loop_
_geom_bond_atom_site_label_1
_geom_bond_atom_site_label_2
_geom_bond_site_symmetry_1
_geom_bond_site_symmetry_2
O1 C1 1_555 1_555
O2 C1 1_555 1_555
C1 C5 1_555 1_555
Ag1 O1 1_555 1_555
C2 C4 1_555 1_555
C3 H1 1_555 1_555
C4 H2 1_555 1_555
C5 C2 1_555 1_555
C6 C4 1_555 1_555
H3 C6 1_555 1_555
C7 C3 1_555 1_555
H4 C7 1_555 1_555
O3 C2 1_555 1_555
H5 O3 1_555 1_555
O2B Ag1 1_555 1_555
Ag1B O2 1_555 1_555
Ag1C C4 1_555 1_555
C4C Ag1 1_555 1_555
H2C C4C 1_555 1_555
Ag1 Ag1B 1_555 1_555
C3 C5 1_555 1_555
C6 C7 1_555 1_555

#END
