
#######################################################################
#
#                 Cambridge Crystallographic Data Centre
#                                CCDC 
#
#######################################################################
#
# If this CIF has been generated from an entry in the Cambridge 
# Structural Database, then it will include bibliographic, chemical, 
# crystal, experimental, refinement or atomic coordinate data resulting 
# from the CCDC's data processing and validation procedures.
#
#######################################################################

data_KAMYON
_symmetry_cell_setting           monoclinic
_symmetry_space_group_name_H-M   'P 21/n'
_symmetry_Int_Tables_number      14
_space_group_name_Hall           '-P 2yn'
loop_
_symmetry_equiv_pos_site_id
_symmetry_equiv_pos_as_xyz
1 x,y,z
2 1/2-x,1/2+y,1/2-z
3 -x,-y,-z
4 1/2+x,1/2-y,1/2+z
_cell_length_a                   11.337(3)
_cell_length_b                   25.753(6)
_cell_length_c                   22.138(6)
_cell_angle_alpha                90
_cell_angle_beta                 102.871(5)
_cell_angle_gamma                90
_cell_volume                     6301.05
loop_
_atom_site_label
_atom_site_type_symbol
_atom_site_fract_x
_atom_site_fract_y
_atom_site_fract_z
Eu1 Eu 0.4464(1) 0.5962(1) 0.1781(1)
Eu2 Eu 0.6027(1) 0.3705(1) 0.3872(1)
O1 O 0.3751(5) 0.5436(2) 0.0867(3)
O2 O 0.3062(7) 0.5075(3) -0.0058(3)
O3 O 0.3706(5) 0.5203(2) 0.2209(2)
O4 O 0.2320(5) 0.4675(2) 0.2442(3)
O5 O 0.7404(5) 0.4293(2) 0.3471(2)
O6 O 0.8956(7) 0.4306(3) 0.3005(3)
O7 O 0.4049(5) 0.3539(2) 0.3250(2)
O8 O 0.2397(6) 0.3057(2) 0.3068(4)
O9 O 0.4577(5) 0.3684(2) 0.4521(3)
O10 O 0.3943(6) 0.3438(2) 0.5358(3)
O11 O 0.7927(5) 0.3284(2) 0.3978(3)
O12 O 0.9648(5) 0.3034(2) 0.4619(3)
O13 O 0.2315(5) 0.6159(2) 0.1498(3)
O14 O 0.0647(6) 0.6240(3) 0.0757(3)
O15 O 0.6011(5) 0.6213(2) 0.1254(2)
O16 O 0.6639(5) 0.6461(2) 0.0411(3)
O17 O 0.3853(5) 0.6238(2) 0.2696(2)
O18 O 0.2984(6) 0.6842(2) 0.3161(3)
O19 O 0.5911(5) 0.5262(2) 0.1862(2)
O20 O 0.7799(5) 0.5116(2) 0.1782(3)
O21 O 0.7179(5) 0.4189(2) 0.4734(2)
O22 O 0.8799(6) 0.4392(2) 0.5480(3)
O23 O 0.5067(5) 0.4548(2) 0.3710(2)
O24 O 0.3827(5) 0.5093(2) 0.4058(3)
N1 N 0.4349(6) 0.4492(2) 0.1413(3)
N2 N 0.6147(5) 0.3601(2) 0.2679(3)
N3 N 0.5593(6) 0.2726(2) 0.3479(3)
N4 N 0.6534(6) 0.3041(2) 0.4794(3)
N5 N 0.3764(6) 0.6623(2) 0.0850(3)
N6 N 0.5115(6) 0.6927(2) 0.2147(3)
N7 N 0.6479(5) 0.5985(2) 0.2737(3)
N8 N 0.7072(5) 0.5130(2) 0.4194(3)
C1 C 0.3610(8) 0.5067(3) 0.0490(4)
C2 C 0.4210(9) 0.4546(3) 0.0726(4)
C3 C 0.3047(7) 0.4806(3) 0.2135(4)
C4 C 0.3135(7) 0.4457(3) 0.1586(4)
C5 C 0.5169(7) 0.4045(3) 0.1657(3)
C6 C 0.5357(7) 0.4025(3) 0.2359(3)
C7 C 0.7967(8) 0.4138(3) 0.3071(4)
C8 C 0.7410(7) 0.3693(3) 0.2655(4)
C9 C 0.5724(8) 0.3079(3) 0.2433(4)
C10 C 0.6109(8) 0.2665(3) 0.2926(4)
C11 C 0.3512(7) 0.3107(3) 0.3193(4)
C12 C 0.4267(7) 0.2622(3) 0.3317(4)
C13 C 0.6211(7) 0.2356(3) 0.3978(4)
C14 C 0.6006(8) 0.2520(3) 0.4594(4)
C15 C 0.4716(8) 0.3459(3) 0.5043(4)
C16 C 0.5958(8) 0.3228(3) 0.5296(4)
C17 C 0.8550(8) 0.3112(3) 0.4497(4)
C18 C 0.7862(8) 0.3010(3) 0.5001(4)
C19 C 0.1743(8) 0.6287(3) 0.0962(4)
C20 C 0.2499(7) 0.6502(3) 0.0523(4)
C21 C 0.5854(7) 0.6417(3) 0.0709(4)
C22 C 0.4588(8) 0.6596(3) 0.0418(4)
C23 C 0.3779(7) 0.7154(3) 0.1133(4)
C24 C 0.4956(7) 0.7266(3) 0.1591(4)
C25 C 0.3676(7) 0.6706(3) 0.2830(4)
C26 C 0.4343(7) 0.7121(3) 0.2567(4)
C27 C 0.6399(7) 0.6920(3) 0.2471(4)
C28 C 0.6700(7) 0.6523(3) 0.2987(3)
C29 C 0.7036(7) 0.5352(3) 0.2001(4)
C30 C 0.7463(7) 0.5794(3) 0.2455(3)
C31 C 0.6262(7) 0.5618(3) 0.3222(3)
C32 C 0.7294(7) 0.5575(3) 0.3795(3)
C33 C 0.8027(8) 0.4482(3) 0.4998(4)
C34 C 0.8130(7) 0.5017(3) 0.4709(4)
C35 C 0.4842(7) 0.4933(3) 0.4029(3)
C36 C 0.5927(7) 0.5212(3) 0.4425(4)
K1 K 0.1622(2) 0.4294(1) -0.0816(1)
K2 K -0.0068(2) 0.4671(1) 0.2047(1)
K3 K 0.2319(2) 0.5617(1) 0.3142(1)
K4 K 0.2503(2) 0.4186(1) 0.3628(1)
O25 O 0.0737(7) 0.3988(3) 0.0370(4)
O26 O -0.0312(7) 0.4229(3) -0.1992(3)
O27 O -0.0292(8) 0.5011(3) -0.0826(4)
O28 O -0.2312(10) 0.4235(3) 0.0997(4)
O29 O 0.0525(8) 0.6537(3) 0.2869(4)
O30 O 0.0656(6) 0.4973(2) 0.3510(3)
O31 O 0.1645(7) 0.3760(3) 0.4587(4)
O32 O 0.0501(9) 0.3613(3) 0.2433(6)
O6_2 O -0.1044(7) 0.4306(3) 0.3005(3)
O14B O -0.0647(6) 0.3760(3) -0.0757(3)
O15B O 0.3989(5) 0.3787(2) -0.1254(2)
O16B O 0.3361(5) 0.3539(2) -0.0411(3)
O20B O 0.2201(5) 0.4884(2) -0.1782(3)
O20_2 O -0.2201(5) 0.5116(2) 0.1782(3)
K1B K -0.1622(2) 0.5706(1) 0.0816(1)
K1B_2 K 0.8378(2) 0.5706(1) 0.0816(1)
K2_2 K 0.9932(2) 0.4671(1) 0.2047(1)
K2B K 0.0068(2) 0.5329(1) -0.2047(1)
K3B K -0.2319(2) 0.4383(1) -0.3142(1)
O26B O 0.0312(7) 0.5771(3) 0.1992(3)
O27B O 0.0292(8) 0.4989(3) 0.0826(4)
O33 O 0.5954(7) 0.6895(2) -0.0766(3)
O34 O -0.0350(7) 0.6359(3) 0.3877(4)
O35 O 1.0792(7) 0.2652(3) 0.5720(4)
O36 O 0.2592(8) 0.7845(3) 0.3529(4)
O37 O 0.3311(9) 0.2509(3) 0.5844(5)
O38 O 0.9910(20) 0.3337(5) 0.1246(6)
loop_
_geom_bond_atom_site_label_1
_geom_bond_atom_site_label_2
_geom_bond_site_symmetry_1
_geom_bond_site_symmetry_2
Eu1 O1 1_555 1_555
Eu2 O5 1_555 1_555
O1 C1 1_555 1_555
O2 C1 1_555 1_555
O3 Eu1 1_555 1_555
O4 C3 1_555 1_555
O5 C7 1_555 1_555
O6 C7 1_555 1_555
O7 Eu2 1_555 1_555
O8 C11 1_555 1_555
O9 Eu2 1_555 1_555
O10 C15 1_555 1_555
O11 Eu2 1_555 1_555
O12 C17 1_555 1_555
O13 Eu1 1_555 1_555
O14 C19 1_555 1_555
O15 Eu1 1_555 1_555
O16 C21 1_555 1_555
O17 Eu1 1_555 1_555
O18 C25 1_555 1_555
O19 Eu1 1_555 1_555
O20 C29 1_555 1_555
O21 Eu2 1_555 1_555
O22 C33 1_555 1_555
O23 Eu2 1_555 1_555
O24 C35 1_555 1_555
N1 C2 1_555 1_555
N2 Eu2 1_555 1_555
N3 Eu2 1_555 1_555
N4 Eu2 1_555 1_555
N5 Eu1 1_555 1_555
N6 Eu1 1_555 1_555
N7 Eu1 1_555 1_555
N8 C32 1_555 1_555
C1 C2 1_555 1_555
C3 O3 1_555 1_555
C4 N1 1_555 1_555
C5 N1 1_555 1_555
C6 N2 1_555 1_555
C7 C8 1_555 1_555
C8 N2 1_555 1_555
C9 N2 1_555 1_555
C10 N3 1_555 1_555
C11 O7 1_555 1_555
C12 N3 1_555 1_555
C13 N3 1_555 1_555
C14 N4 1_555 1_555
C15 O9 1_555 1_555
C16 N4 1_555 1_555
C17 O11 1_555 1_555
C18 N4 1_555 1_555
C19 O13 1_555 1_555
C20 N5 1_555 1_555
C21 O15 1_555 1_555
C22 N5 1_555 1_555
C23 N5 1_555 1_555
C24 N6 1_555 1_555
C25 O17 1_555 1_555
C26 N6 1_555 1_555
C27 N6 1_555 1_555
C28 N7 1_555 1_555
C29 O19 1_555 1_555
C30 N7 1_555 1_555
C31 N7 1_555 1_555
C32 C31 1_555 1_555
C33 O21 1_555 1_555
C34 N8 1_555 1_555
C35 O23 1_555 1_555
C36 N8 1_555 1_555
K1 O2 1_555 1_555
K2 O4 1_555 1_555
K3 O3 1_555 1_555
K4 O4 1_555 1_555
O25 K1 1_555 1_555
O26 K1 1_555 1_555
O27 K1 1_555 1_555
O28 K2 1_555 1_555
O29 K3 1_555 1_555
O30 K2 1_555 1_555
O31 K4 1_555 1_555
O32 K2 1_555 1_555
O6_2 K2 1_555 1_555
O14B K1 1_555 1_555
O15B K1 1_555 1_555
O16B K1 1_555 1_555
O20B K1 1_555 1_555
O20_2 K2 1_555 1_555
K1B O14 1_555 1_555
K1B_2 O15 1_555 1_555
K2_2 O6 1_555 1_555
K2B O26 1_555 1_555
K3B O26 1_555 1_555
O26B K2 1_555 1_555
O27B K2 1_555 1_555
O4 K3 1_555 1_555
O7 K4 1_555 1_555
O8 K4 1_555 1_555
O9 K4 1_555 1_555
O16 K1B_2 1_555 1_555
O17 K3 1_555 1_555
O18 K3 1_555 1_555
O20 K1B_2 1_555 1_555
O20 K2_2 1_555 1_555
O23 K4 1_555 1_555
O24 K3 1_555 1_555
O24 K4 1_555 1_555
C3 C4 1_555 1_555
C5 C6 1_555 1_555
C9 C10 1_555 1_555
C11 C12 1_555 1_555
C13 C14 1_555 1_555
C15 C16 1_555 1_555
C17 C18 1_555 1_555
C19 C20 1_555 1_555
C21 C22 1_555 1_555
C23 C24 1_555 1_555
C25 C26 1_555 1_555
C27 C28 1_555 1_555
C29 C30 1_555 1_555
C33 C34 1_555 1_555
C35 C36 1_555 1_555
K3 O30 1_555 1_555
K3 O26B 1_555 1_555
K4 O30 1_555 1_555
K4 O32 1_555 1_555
O27 K2B 1_555 1_555
O20B K2B 1_555 1_555
O20_2 K1B 1_555 1_555
K1B O26B 1_555 1_555
K1B O27B 1_555 1_555

#END
