
#######################################################################
#
#                 Cambridge Crystallographic Data Centre
#                                CCDC 
#
#######################################################################
#
# If this CIF has been generated from an entry in the Cambridge 
# Structural Database, then it will include bibliographic, chemical, 
# crystal, experimental, refinement or atomic coordinate data resulting 
# from the CCDC's data processing and validation procedures.
#
#######################################################################

data_KANLOC
_symmetry_cell_setting           monoclinic
_symmetry_space_group_name_H-M   'P 2/c'
_symmetry_Int_Tables_number      13
_space_group_name_Hall           '-P 2yc'
loop_
_symmetry_equiv_pos_site_id
_symmetry_equiv_pos_as_xyz
1 x,y,z
2 -x,y,1/2-z
3 -x,-y,-z
4 x,-y,1/2+z
_cell_length_a                   19.2248(13)
_cell_length_b                   4.5699(3)
_cell_length_c                   18.0829(13)
_cell_angle_alpha                90
_cell_angle_beta                 115.560(5)
_cell_angle_gamma                90
_cell_volume                     1433.2
loop_
_atom_site_label
_atom_site_type_symbol
_atom_site_fract_x
_atom_site_fract_y
_atom_site_fract_z
Mn1 Mn 0.0000 1.0000 0.0000
S1 S 0.35917(4) 1.28675(17) 0.26726(4)
O1 O 0.21320(10) 0.8156(4) 0.02912(11)
O2 O 0.08600(9) 1.3493(4) 0.03246(10)
O3 O 0.08281(9) 1.7530(3) 0.10008(10)
O4 O -0.04455(11) 1.1717(5) 0.08481(11)
H1 H -0.0882 1.2447 0.0539
N1 N 0.32359(11) 0.9299(4) 0.14022(13)
H3 H 0.3720 0.8905 0.1646
N2 N 0.22305(11) 1.1960(4) 0.14303(12)
H4 H 0.1953 1.0970 0.0998
C1 C 0.32700(15) 0.5866(5) 0.03835(16)
C2 C 0.40514(16) 0.5282(6) 0.08079(18)
H5 H 0.4335 0.6108 0.1321
C3 C 0.28636(17) 0.4584(6) -0.03743(17)
H6 H 0.2338 0.4937 -0.0662
C4 C 0.44058(17) 0.3471(7) 0.0465(2)
H7 H 0.4930 0.3085 0.0750
C5 C 0.32285(19) 0.2786(7) -0.07102(19)
H8 H 0.2950 0.1950 -0.1223
C6 C 0.39988(19) 0.2237(7) -0.0288(2)
H9 H 0.4246 0.1023 -0.0512
C7 C 0.28305(14) 0.7836(5) 0.06823(16)
C8 C 0.29708(14) 1.1345(5) 0.17955(15)
C9 C 0.18405(14) 1.4170(5) 0.16935(15)
H10 H 0.2183 1.5863 0.1902
C10 C 0.11171(13) 1.5129(5) 0.09423(15)
C11 C 0.16303(16) 1.3083(6) 0.23649(16)
H11 H 0.1298 1.1411 0.2171
H12 H 0.1369 1.4608 0.2511
H13 H 0.2091 1.2544 0.2837
C12 C -0.0682(2) 0.9877(10) 0.1336(2)
H14 H -0.1152 0.8893 0.0990
H15 H -0.0766 1.1046 0.1732
H16 H -0.0288 0.8456 0.1616
Mn1_2 Mn 0.0000 2.0000 0.0000
Mn1_3 Mn 0.0000 0.0000 0.0000
S1_2 S 0.35917(4) 0.28675(17) 0.26726(4)
O1_2 O 0.21320(10) -0.1844(4) 0.02912(11)
O2_2 O 0.08600(9) 0.3493(4) 0.03246(10)
O2B O -0.08600(9) 0.6507(4) -0.03246(10)
O3_2 O 0.08281(9) 0.7530(3) 0.10008(10)
O3B O -0.08281(9) 1.2470(3) -0.10008(10)
O4B O 0.04455(11) 0.8283(5) -0.08481(11)
H1B H 0.0882 0.7553 -0.0539
N1_2 N 0.32359(11) -0.0701(4) 0.14022(13)
H3_2 H 0.3720 -0.1095 0.1646
N2_2 N 0.22305(11) 0.1960(4) 0.14303(12)
H4_2 H 0.1953 0.0970 0.0998
C1_2 C 0.32700(15) -0.4134(5) 0.03835(16)
C2_2 C 0.40514(16) -0.4718(6) 0.08079(18)
H5_2 H 0.4335 -0.3892 0.1321
C3_2 C 0.28636(17) -0.5416(6) -0.03743(17)
H6_2 H 0.2338 -0.5063 -0.0662
C4_2 C 0.44058(17) -0.6529(7) 0.0465(2)
H7_2 H 0.4930 -0.6915 0.0750
C5_2 C 0.32285(19) -0.7214(7) -0.07102(19)
H8_2 H 0.2950 -0.8050 -0.1223
C6_2 C 0.39988(19) -0.7763(7) -0.0288(2)
H9_2 H 0.4246 -0.8977 -0.0512
C7_2 C 0.28305(14) -0.2164(5) 0.06823(16)
C8_2 C 0.29708(14) 0.1345(5) 0.17955(15)
C9_2 C 0.18405(14) 0.4170(5) 0.16935(15)
H10_2 H 0.2183 0.5863 0.1902
C10_2 C 0.11171(13) 0.5129(5) 0.09423(15)
C11_2 C 0.16303(16) 0.3083(6) 0.23649(16)
H11_2 H 0.1298 0.1411 0.2171
H12_2 H 0.1369 0.4608 0.2511
H13_2 H 0.2091 0.2544 0.2837
C12B C 0.0682(2) 1.0123(10) -0.1336(2)
H14B H 0.1152 1.1107 -0.0990
H15B H 0.0766 0.8954 -0.1732
H16B H 0.0288 1.1544 -0.1616
O5 O 0.5000 -0.0467(6) 0.2500
H2 H 0.4745 0.0668 0.2663
H2A H 0.5255 0.0668 0.2337
loop_
_geom_bond_atom_site_label_1
_geom_bond_atom_site_label_2
_geom_bond_site_symmetry_1
_geom_bond_site_symmetry_2
Mn1 O2 1_555 1_555
S1 C8 1_555 1_555
O1 C7 1_555 1_555
O2 C10 1_555 1_555
O3 C10 1_555 1_555
O4 Mn1 1_555 1_555
H1 O4 1_555 1_555
O5 H2 1_555 1_555
N1 H3 1_555 1_555
N2 H4 1_555 1_555
C1 C2 1_555 1_555
C2 H5 1_555 1_555
C3 C1 1_555 1_555
H6 C3 1_555 1_555
C4 C2 1_555 1_555
H7 C4 1_555 1_555
C5 C3 1_555 1_555
H8 C5 1_555 1_555
C6 C4 1_555 1_555
H9 C6 1_555 1_555
C7 N1 1_555 1_555
C8 N1 1_555 1_555
C9 N2 1_555 1_555
H10 C9 1_555 1_555
C10 C9 1_555 1_555
C11 C9 1_555 1_555
H11 C11 1_555 1_555
H12 C11 1_555 1_555
H13 C11 1_555 1_555
C12 O4 1_555 1_555
H14 C12 1_555 1_555
H15 C12 1_555 1_555
H16 C12 1_555 1_555
Mn1_2 O3 1_555 1_555
Mn1_3 O2_2 1_555 1_555
S1_2 C8_2 1_555 1_555
O1_2 C7_2 1_555 1_555
O2_2 C10_2 1_555 1_555
O2B Mn1 1_555 1_555
O3_2 Mn1 1_555 1_555
O3B Mn1 1_555 1_555
O4B Mn1 1_555 1_555
H1B O4B 1_555 1_555
H2A O5 1_555 1_555
N1_2 H3_2 1_555 1_555
N2_2 H4_2 1_555 1_555
C1_2 C2_2 1_555 1_555
C2_2 H5_2 1_555 1_555
C3_2 C1_2 1_555 1_555
H6_2 C3_2 1_555 1_555
C4_2 C2_2 1_555 1_555
H7_2 C4_2 1_555 1_555
C5_2 C3_2 1_555 1_555
H8_2 C5_2 1_555 1_555
C6_2 C4_2 1_555 1_555
H9_2 C6_2 1_555 1_555
C7_2 N1_2 1_555 1_555
C8_2 N1_2 1_555 1_555
C9_2 N2_2 1_555 1_555
H10_2 C9_2 1_555 1_555
C10_2 O3_2 1_555 1_555
C11_2 C9_2 1_555 1_555
H11_2 C11_2 1_555 1_555
H12_2 C11_2 1_555 1_555
H13_2 C11_2 1_555 1_555
C12B O4B 1_555 1_555
H14B C12B 1_555 1_555
H15B C12B 1_555 1_555
H16B C12B 1_555 1_555
N2 C8 1_555 1_555
C1 C7 1_555 1_555
C5 C6 1_555 1_555
N2_2 C8_2 1_555 1_555
C1_2 C7_2 1_555 1_555
C5_2 C6_2 1_555 1_555
C9_2 C10_2 1_555 1_555

#END
