
#######################################################################
#
#                 Cambridge Crystallographic Data Centre
#                                CCDC 
#
#######################################################################
#
# If this CIF has been generated from an entry in the Cambridge 
# Structural Database, then it will include bibliographic, chemical, 
# crystal, experimental, refinement or atomic coordinate data resulting 
# from the CCDC's data processing and validation procedures.
#
#######################################################################

data_KANQAT
_symmetry_cell_setting           triclinic
_symmetry_space_group_name_H-M   'P -1'
_symmetry_Int_Tables_number      2
_space_group_name_Hall           '-P 1'
loop_
_symmetry_equiv_pos_site_id
_symmetry_equiv_pos_as_xyz
1 x,y,z
2 -x,-y,-z
_cell_length_a                   10.2247(5)
_cell_length_b                   11.6463(6)
_cell_length_c                   14.1867(8)
_cell_angle_alpha                67.5270(10)
_cell_angle_beta                 82.0060(10)
_cell_angle_gamma                78.0290(10)
_cell_volume                     1523.77
loop_
_atom_site_label
_atom_site_type_symbol
_atom_site_fract_x
_atom_site_fract_y
_atom_site_fract_z
C1 C 1.5281(3) 0.2153(3) 0.4392(2)
C2 C 1.5622(4) 0.2891(4) 0.4875(3)
H1 H 1.6467 0.3120 0.4732
C3 C 1.4734(5) 0.3280(4) 0.5552(3)
H2 H 1.4978 0.3756 0.5875
C4 C 1.3463(4) 0.2953(4) 0.5751(3)
H3 H 1.2863 0.3206 0.6219
C5 C 1.3078(4) 0.2270(4) 0.5273(3)
H4 H 1.2211 0.2094 0.5394
C6 C 1.3992(3) 0.1830(3) 0.4597(2)
C7 C 1.4586(3) 0.0630(3) 0.3541(3)
H5 H 1.4348 0.0110 0.3256
C8 C 1.5847(3) 0.0896(3) 0.3325(3)
H6 H 1.6450 0.0542 0.2915
C9 C 1.6250(3) 0.1698(3) 0.3711(2)
C10 C 1.2292(3) 0.0840(3) 0.4214(3)
H7 H 1.1901 0.0698 0.4904
H8 H 1.2318 0.0082 0.4075
C11 C 1.1405(3) 0.1944(4) 0.3459(3)
C12 C 0.4542(3) 0.1419(3) 0.0763(2)
C13 C 0.5576(4) 0.0368(4) 0.1000(3)
H9 H 0.6461 0.0471 0.0790
C14 C 0.5268(5) -0.0810(4) 0.1544(3)
H10 H 0.5953 -0.1504 0.1695
C15 C 0.3954(5) -0.0993(4) 0.1876(3)
H11 H 0.3764 -0.1800 0.2242
C16 C 0.2941(4) 0.0031(4) 0.1657(3)
H12 H 0.2064 -0.0089 0.1882
C17 C 0.3206(3) 0.1255(3) 0.1099(3)
C18 C 0.2130(3) 0.2331(4) 0.0872(3)
C19 C 0.2501(4) 0.3508(4) 0.0290(3)
H13 H 0.1849 0.4229 0.0129
C20 C 0.3802(4) 0.3610(3) -0.0040(3)
H14 H 0.4002 0.4404 -0.0440
C21 C 0.6179(3) 0.2846(4) -0.0217(3)
H15 H 0.6130 0.3667 -0.0762
H16 H 0.6595 0.2219 -0.0510
C22 C 0.7070(3) 0.2793(3) 0.0581(3)
C23 C 1.0057(3) -0.1859(3) 0.2948(3)
C24 C 1.0372(4) -0.1821(4) 0.3870(3)
H17 H 1.0182 -0.1061 0.3976
C25 C 1.1242(5) -0.4012(5) 0.4446(4)
H18 H 1.1637 -0.4732 0.4954
C26 C 1.0968(5) -0.4099(4) 0.3568(4)
H19 H 1.1171 -0.4870 0.3481
C27 C 1.0373(3) -0.3012(3) 0.2790(3)
C28 C 0.9562(3) -0.1972(3) 0.1141(3)
H20 H 0.9413 -0.2011 0.0523
C29 C 0.9237(3) -0.0832(3) 0.1259(3)
H21 H 0.8901 -0.0116 0.0719
C30 C 0.9404(3) -0.0736(3) 0.2181(3)
C31 C 1.0162(4) -0.4219(3) 0.1701(3)
H22 H 1.0904 -0.4829 0.2054
H23 H 1.0333 -0.4063 0.0977
C32 C 0.8875(4) -0.4763(4) 0.2083(3)
C33 C 1.0952(4) -0.2881(5) 0.4609(4)
H24 H 1.1151 -0.2849 0.5217
N1 N 1.3658(3) 0.1074(3) 0.4146(2)
N2 N 0.4810(3) 0.2628(3) 0.0179(2)
N3 N 1.0084(3) -0.3034(2) 0.1872(2)
O1 O 1.7404(2) 0.2021(2) 0.34974(18)
O2 O 1.1816(3) 0.2933(3) 0.2982(2)
O3 O 1.0278(3) 0.1676(3) 0.3410(2)
O4 O 0.6584(2) 0.2940(2) 0.13865(19)
O5 O 0.8301(2) 0.2602(3) 0.0382(2)
O6 O 0.9004(3) 0.0273(2) 0.2360(2)
O7 O 0.8019(4) -0.4319(4) 0.2584(4)
O8 O 0.8817(3) -0.5659(2) 0.1804(2)
O9 O 0.0921(2) 0.2184(3) 0.1166(2)
Tb1 Tb 0.890116(14) 0.232699(13) 0.209260(12)
O1_2 O 0.7404(2) 0.2021(2) 0.34974(18)
O8_2 O 0.8817(3) 0.4341(2) 0.1804(2)
O9_2 O 1.0921(2) 0.2184(3) 0.1166(2)
Tb1_2 Tb 1.890116(14) 0.232699(13) 0.209260(12)
Tb1_3 Tb 0.890116(14) -0.767301(13) 0.209260(12)
Tb1_4 Tb -0.109884(14) 0.232699(13) 0.209260(12)
O10 O 0.5220(4) 0.5911(3) 0.2439(3)
H25 H 0.4931 0.5279 0.2906
H26 H 0.6087 0.5674 0.2378
O11 O 0.4062(3) 0.4136(3) 0.2047(2)
H27 H 0.4697 0.3668 0.1842
H28 H 0.3352 0.3813 0.2129
loop_
_geom_bond_atom_site_label_1
_geom_bond_atom_site_label_2
_geom_bond_site_symmetry_1
_geom_bond_site_symmetry_2
C1 C2 1_555 1_555
C2 H1 1_555 1_555
C3 C2 1_555 1_555
H2 C3 1_555 1_555
C4 C3 1_555 1_555
H3 C4 1_555 1_555
C5 C4 1_555 1_555
H4 C5 1_555 1_555
C6 C1 1_555 1_555
C7 H5 1_555 1_555
C8 C7 1_555 1_555
H6 C8 1_555 1_555
C9 C1 1_555 1_555
C10 H7 1_555 1_555
H8 C10 1_555 1_555
C11 C10 1_555 1_555
C12 C13 1_555 1_555
C13 H9 1_555 1_555
C14 C13 1_555 1_555
H10 C14 1_555 1_555
C15 C14 1_555 1_555
H11 C15 1_555 1_555
C16 C15 1_555 1_555
H12 C16 1_555 1_555
C17 C12 1_555 1_555
C18 C17 1_555 1_555
C19 C18 1_555 1_555
H13 C19 1_555 1_555
C20 C19 1_555 1_555
H14 C20 1_555 1_555
C21 H15 1_555 1_555
H16 C21 1_555 1_555
C22 C21 1_555 1_555
C23 C24 1_555 1_555
C24 H17 1_555 1_555
C25 H18 1_555 1_555
C26 C25 1_555 1_555
H19 C26 1_555 1_555
C27 C23 1_555 1_555
C28 H20 1_555 1_555
C29 C28 1_555 1_555
H21 C29 1_555 1_555
C30 C23 1_555 1_555
C31 H22 1_555 1_555
H23 C31 1_555 1_555
C32 C31 1_555 1_555
C33 C24 1_555 1_555
H24 C33 1_555 1_555
N1 C6 1_555 1_555
N2 C12 1_555 1_555
N3 C27 1_555 1_555
O1 C9 1_555 1_555
O2 C11 1_555 1_555
O3 C11 1_555 1_555
O4 C22 1_555 1_555
O5 C22 1_555 1_555
O6 C30 1_555 1_555
O7 C32 1_555 1_555
O8 C32 1_555 1_555
O9 C18 1_555 1_555
O10 H25 1_555 1_555
H26 O10 1_555 1_555
O11 H27 1_555 1_555
H28 O11 1_555 1_555
Tb1 O3 1_555 1_555
O1_2 Tb1 1_555 1_555
O8_2 Tb1 1_555 1_555
O9_2 Tb1 1_555 1_555
Tb1_2 O1 1_555 1_555
Tb1_3 O8 1_555 1_555
Tb1_4 O9 1_555 1_555
C5 C6 1_555 1_555
C7 N1 1_555 1_555
C8 C9 1_555 1_555
C10 N1 1_555 1_555
C16 C17 1_555 1_555
C20 N2 1_555 1_555
C21 N2 1_555 1_555
C25 C33 1_555 1_555
C26 C27 1_555 1_555
C28 N3 1_555 1_555
C29 C30 1_555 1_555
C31 N3 1_555 1_555
O4 Tb1 1_555 1_555
O5 Tb1 1_555 1_555
O6 Tb1 1_555 1_555

#END
