
#######################################################################
#
#                 Cambridge Crystallographic Data Centre
#                                CCDC 
#
#######################################################################
#
# If this CIF has been generated from an entry in the Cambridge 
# Structural Database, then it will include bibliographic, chemical, 
# crystal, experimental, refinement or atomic coordinate data resulting 
# from the CCDC's data processing and validation procedures.
#
#######################################################################

data_KANVOM
_symmetry_cell_setting           monoclinic
_symmetry_space_group_name_H-M   'C 2/c'
_symmetry_Int_Tables_number      15
_space_group_name_Hall           '-C 2yn'
loop_
_symmetry_equiv_pos_site_id
_symmetry_equiv_pos_as_xyz
1 x,y,z
2 -x,y,1/2-z
3 1/2+x,1/2+y,z
4 1/2-x,1/2+y,1/2-z
5 -x,-y,-z
6 x,-y,1/2+z
7 1/2-x,1/2-y,-z
8 1/2+x,1/2-y,1/2+z
_cell_length_a                   18.4546(17)
_cell_length_b                   8.7957(8)
_cell_length_c                   22.995(3)
_cell_angle_alpha                90
_cell_angle_beta                 108.4620(10)
_cell_angle_gamma                90
_cell_volume                     3540.47
loop_
_atom_site_label
_atom_site_type_symbol
_atom_site_fract_x
_atom_site_fract_y
_atom_site_fract_z
Cu1 Cu 0.439634(15) 0.46278(3) 0.070322(13)
O1 O 0.53913(10) 0.5622(2) 0.10162(8)
O2 O 0.57882(11) 0.6269(2) 0.02369(8)
O3 O 0.84149(9) 0.8714(2) 0.07457(7)
O4 O 0.89256(10) 0.9579(2) 0.16938(8)
N1 N 0.38734(12) 0.6633(2) 0.04154(10)
N2 N 0.49247(11) 0.2690(2) 0.10977(10)
C1 C 0.58671(12) 0.6192(3) 0.07873(11)
C2 C 0.65676(12) 0.6874(3) 0.12439(10)
C3 C 0.71562(12) 0.7459(2) 0.10528(10)
H1 H 0.7139 0.7362 0.0646
C4 C 0.77690(12) 0.8189(3) 0.14731(10)
C5 C 0.77836(14) 0.8324(3) 0.20769(11)
H2 H 0.8185 0.8845 0.2353
C6 C 0.72167(15) 0.7704(3) 0.22814(11)
C7 C 0.66136(13) 0.6976(3) 0.18574(11)
H3 H 0.6230 0.6545 0.1986
C8 C 0.84180(13) 0.8875(3) 0.12946(11)
C9 C 0.7253(2) 0.7864(5) 0.29469(13)
H4 H 0.6859 0.8544 0.2975
H5 H 0.7743 0.8261 0.3181
H6 H 0.7180 0.6886 0.3105
C10 C 0.38442(17) 0.7266(3) -0.01206(13)
H7 H 0.4075 0.6764 -0.0371
C11 C 0.3487(2) 0.8631(4) -0.03151(15)
H8 H 0.3480 0.9041 -0.0690
C12 C 0.31415(18) 0.9380(4) 0.00466(17)
H9 H 0.2889 1.0295 -0.0081
C13 C 0.31743(19) 0.8757(4) 0.05990(17)
H10 H 0.2952 0.9253 0.0857
C14 C 0.35405(18) 0.7387(3) 0.07668(14)
H11 H 0.3557 0.6967 0.1142
C15 C 0.53231(17) 0.2694(4) 0.16927(14)
H12 H 0.5432 0.3622 0.1896
C16 C 0.5579(2) 0.1386(4) 0.20193(18)
H13 H 0.5851 0.1432 0.2435
C17 C 0.5432(2) 0.0024(4) 0.1728(2)
H14 H 0.5584 -0.0878 0.1943
C18 C 0.5053(2) 0.0005(4) 0.1109(2)
H15 H 0.4968 -0.0907 0.0894
C19 C 0.47999(17) 0.1355(3) 0.08106(16)
H16 H 0.4532 0.1333 0.0393
Cu1D Cu 0.560366(15) 0.53722(3) -0.070322(13)
Cu1B Cu 0.939634(15) 0.96278(3) 0.070322(13)
Cu1F Cu 0.060366(15) 0.03722(3) -0.070322(13)
O1D O 0.46087(10) 0.4378(2) -0.10162(8)
O2D O 0.42118(11) 0.3731(2) -0.02369(8)
O3D O 0.15851(9) 0.1286(2) -0.07457(7)
O3B O 0.34149(9) 0.3714(2) 0.07457(7)
O3F O 0.65851(9) 0.6286(2) -0.07457(7)
O4D O 0.10744(10) 0.0421(2) -0.16938(8)
O4B O 0.39256(10) 0.4579(2) 0.16938(8)
O4F O 0.60744(10) 0.5421(2) -0.16938(8)
N1D N 0.61266(12) 0.3367(2) -0.04154(10)
N2D N 0.50753(11) 0.7310(2) -0.10977(10)
C1D C 0.41329(12) 0.3808(3) -0.07873(11)
C2D C 0.34324(12) 0.3126(3) -0.12439(10)
C3D C 0.28438(12) 0.2541(2) -0.10528(10)
H1D H 0.2861 0.2638 -0.0646
C4D C 0.22310(12) 0.1811(3) -0.14731(10)
C5D C 0.22164(14) 0.1676(3) -0.20769(11)
H2D H 0.1815 0.1155 -0.2353
C6D C 0.27833(15) 0.2296(3) -0.22814(11)
C7D C 0.33864(13) 0.3024(3) -0.18574(11)
H3D H 0.3770 0.3455 -0.1986
C8D C 0.15820(13) 0.1125(3) -0.12946(11)
C9D C 0.2747(2) 0.2136(5) -0.29469(13)
H4D H 0.3141 0.1456 -0.2975
H5D H 0.2257 0.1739 -0.3181
H6D H 0.2820 0.3114 -0.3105
C10D C 0.61558(17) 0.2734(3) 0.01206(13)
H7D H 0.5925 0.3236 0.0371
C11D C 0.6513(2) 0.1369(4) 0.03151(15)
H8D H 0.6520 0.0959 0.0690
C12D C 0.68585(18) 0.0620(4) -0.00466(17)
H9D H 0.7111 -0.0295 0.0081
C13D C 0.68257(19) 0.1243(4) -0.05990(17)
H10D H 0.7048 0.0747 -0.0857
C14D C 0.64595(18) 0.2613(3) -0.07668(14)
H11D H 0.6443 0.3033 -0.1142
C15D C 0.46769(17) 0.7306(4) -0.16927(14)
H12D H 0.4568 0.6378 -0.1896
C16D C 0.4421(2) 0.8614(4) -0.20193(18)
H13D H 0.4149 0.8568 -0.2435
C17D C 0.4568(2) 0.9976(4) -0.1728(2)
H14D H 0.4416 1.0878 -0.1943
C18D C 0.4947(2) 0.9995(4) -0.1109(2)
H15D H 0.5032 1.0907 -0.0894
C19D C 0.52001(17) 0.8645(3) -0.08106(16)
H16D H 0.5468 0.8667 -0.0393
O5 O 0.0000 0.1660(4) 0.2500
H17? H 0.0353 0.1090 0.2719
H18? H 0.0057 0.1656 0.2148
loop_
_geom_bond_atom_site_label_1
_geom_bond_atom_site_label_2
_geom_bond_site_symmetry_1
_geom_bond_site_symmetry_2
Cu1 O1 1_555 1_555
O1 C1 1_555 1_555
O2 C1 1_555 1_555
O3 C8 1_555 1_555
O4 C8 1_555 1_555
N1 Cu1 1_555 1_555
N2 Cu1 1_555 1_555
C1 C2 1_555 1_555
C2 C3 1_555 1_555
C3 H1 1_555 1_555
C4 C3 1_555 1_555
C5 C4 1_555 1_555
H2 C5 1_555 1_555
C6 C5 1_555 1_555
C7 C2 1_555 1_555
H3 C7 1_555 1_555
C8 C4 1_555 1_555
C9 C6 1_555 1_555
H4 C9 1_555 1_555
H5 C9 1_555 1_555
H6 C9 1_555 1_555
C10 N1 1_555 1_555
H7 C10 1_555 1_555
C11 C10 1_555 1_555
H8 C11 1_555 1_555
C12 C11 1_555 1_555
H9 C12 1_555 1_555
C13 C12 1_555 1_555
H10 C13 1_555 1_555
C14 N1 1_555 1_555
H11 C14 1_555 1_555
C15 N2 1_555 1_555
H12 C15 1_555 1_555
C16 C15 1_555 1_555
H13 C16 1_555 1_555
C17 C16 1_555 1_555
H14 C17 1_555 1_555
C18 C17 1_555 1_555
H15 C18 1_555 1_555
C19 N2 1_555 1_555
H16 C19 1_555 1_555
Cu1D O2 1_555 1_555
Cu1B O3 1_555 1_555
Cu1F O3D 1_555 1_555
O1D Cu1D 1_555 1_555
O2D Cu1 1_555 1_555
O3D C8D 1_555 1_555
O3B Cu1 1_555 1_555
O3F Cu1D 1_555 1_555
O4D Cu1F 1_555 1_555
O4B Cu1 1_555 1_555
O4F Cu1D 1_555 1_555
N1D Cu1D 1_555 1_555
N2D Cu1D 1_555 1_555
C1D O1D 1_555 1_555
C2D C1D 1_555 1_555
C3D C2D 1_555 1_555
H1D C3D 1_555 1_555
C4D C3D 1_555 1_555
C5D C4D 1_555 1_555
H2D C5D 1_555 1_555
C6D C5D 1_555 1_555
C7D C2D 1_555 1_555
H3D C7D 1_555 1_555
C8D O4D 1_555 1_555
C9D C6D 1_555 1_555
H4D C9D 1_555 1_555
H5D C9D 1_555 1_555
H6D C9D 1_555 1_555
C10D N1D 1_555 1_555
H7D C10D 1_555 1_555
C11D C10D 1_555 1_555
H8D C11D 1_555 1_555
C12D C11D 1_555 1_555
H9D C12D 1_555 1_555
C13D C12D 1_555 1_555
H10D C13D 1_555 1_555
C14D N1D 1_555 1_555
H11D C14D 1_555 1_555
C15D N2D 1_555 1_555
H12D C15D 1_555 1_555
C16D C15D 1_555 1_555
H13D C16D 1_555 1_555
C17D C16D 1_555 1_555
H14D C17D 1_555 1_555
C18D C17D 1_555 1_555
H15D C18D 1_555 1_555
C19D N2D 1_555 1_555
H16D C19D 1_555 1_555
O4 Cu1B 1_555 1_555
C6 C7 1_555 1_555
C13 C14 1_555 1_555
C18 C19 1_555 1_555
O2D C1D 1_555 1_555
C4D C8D 1_555 1_555
C6D C7D 1_555 1_555
C13D C14D 1_555 1_555
C18D C19D 1_555 1_555

#END
