
#######################################################################
#
#                 Cambridge Crystallographic Data Centre
#                                CCDC 
#
#######################################################################
#
# If this CIF has been generated from an entry in the Cambridge 
# Structural Database, then it will include bibliographic, chemical, 
# crystal, experimental, refinement or atomic coordinate data resulting 
# from the CCDC's data processing and validation procedures.
#
#######################################################################

data_KANXAZ
_symmetry_cell_setting           triclinic
_symmetry_space_group_name_H-M   'P -1'
_symmetry_Int_Tables_number      2
_space_group_name_Hall           '-P 1'
loop_
_symmetry_equiv_pos_site_id
_symmetry_equiv_pos_as_xyz
1 x,y,z
2 -x,-y,-z
_cell_length_a                   5.743(1)
_cell_length_b                   9.544(2)
_cell_length_c                   11.845(2)
_cell_angle_alpha                89.49(3)
_cell_angle_beta                 84.95(3)
_cell_angle_gamma                83.01(3)
_cell_volume                     641.911
loop_
_atom_site_label
_atom_site_type_symbol
_atom_site_fract_x
_atom_site_fract_y
_atom_site_fract_z
U1 U -0.23042(3) 0.735757(15) 0.100839(13)
O1 O 0.0415(7) 0.6329(4) 0.0620(4)
O2 O -0.5005(7) 0.8387(4) 0.1362(4)
O3 O -0.4216(6) 0.5196(4) 0.1368(3)
O4 O -0.1394(8) 0.8776(4) -0.0673(3)
O5 O 0.0334(7) 1.0611(4) -0.1384(3)
O6 O -0.5958(7) 0.3496(4) 0.0620(3)
O7 O -0.1643(8) 0.6878(4) 0.2829(3)
S1 S -0.2632(2) 0.73106(12) 0.40345(10)
O8 O -0.0724(7) 0.6910(5) 0.4744(4)
O9 O -0.3355(8) 0.8822(4) 0.4050(4)
O10 O -0.4620(8) 0.6535(5) 0.4347(4)
C1 C -0.0309(9) 0.9809(5) -0.0596(4)
C2 C -0.5052(8) 0.4625(4) 0.0575(4)
U1A U -0.76958(3) 0.264243(15) -0.100839(13)
U1A_2 U 0.23042(3) 1.264243(15) -0.100839(13)
O1A O -1.0415(7) 0.3671(4) -0.0620(4)
O2A O -0.4995(7) 0.1613(4) -0.1362(4)
O3A O -0.5784(6) 0.4804(4) -0.1368(3)
O4A O 0.1394(8) 1.1224(4) 0.0673(3)
O4A_2 O -0.8606(8) 0.1224(4) 0.0673(3)
O5A O -0.0334(7) 0.9389(4) 0.1384(3)
O5_2 O -0.9666(7) 0.0611(4) -0.1384(3)
O6A O -0.4042(7) 0.6504(4) -0.0620(3)
O7A O -0.8357(8) 0.3122(4) -0.2829(3)
S1A S -0.7368(2) 0.26894(12) -0.40345(10)
O8A O -0.9276(7) 0.3090(5) -0.4744(4)
O9A O -0.6645(8) 0.1178(4) -0.4050(4)
O10A O -0.5380(8) 0.3465(5) -0.4347(4)
C1A C 0.0309(9) 1.0191(5) 0.0596(4)
C2A C -0.4948(8) 0.5375(4) -0.0575(4)
K1 K 0.2532(2) 0.48681(13) 0.35771(11)
K2 K 0.2030(2) 0.85378(12) 0.57145(12)
O11 O -0.2100(8) 1.0204(5) 0.6550(4)
H5 H -0.162(17) 0.994(10) 0.729(9)
H6 H -0.339(13) 1.054(8) 0.645(6)
O12 O 0.5433(11) 0.7851(6) 0.7189(5)
H1 H 0.589(17) 0.834(10) 0.674(9)
H2 H 0.551(14) 0.777(8) 0.810(7)
O13 O -0.0593(9) 0.3370(5) 0.2536(5)
H3 H -0.222(15) 0.388(9) 0.218(7)
H4 H 0.011(13) 0.323(8) 0.158(7)
loop_
_geom_bond_atom_site_label_1
_geom_bond_atom_site_label_2
_geom_bond_site_symmetry_1
_geom_bond_site_symmetry_2
U1 O1 1_555 1_555
O2 U1 1_555 1_555
O3 U1 1_555 1_555
O4 U1 1_555 1_555
O5 C1 1_555 1_555
O6 C2 1_555 1_555
O7 U1 1_555 1_555
S1 O7 1_555 1_555
O8 S1 1_555 1_555
O9 S1 1_555 1_555
O10 S1 1_555 1_555
C1 O4 1_555 1_555
O11 H5 1_555 1_555
C2 O3 1_555 1_555
O12 H1 1_555 1_555
O13 H3 1_555 1_555
H2 O12 1_555 1_555
H4 O13 1_555 1_555
H6 O11 1_555 1_555
U1A O6 1_555 1_555
U1A_2 O5 1_555 1_555
O1A U1A 1_555 1_555
O2A U1A 1_555 1_555
O3A U1A 1_555 1_555
O4A U1A_2 1_555 1_555
O4A_2 U1A 1_555 1_555
O5A U1 1_555 1_555
O5_2 U1A 1_555 1_555
O6A U1 1_555 1_555
O7A U1A 1_555 1_555
S1A O7A 1_555 1_555
O8A S1A 1_555 1_555
O9A S1A 1_555 1_555
O10A S1A 1_555 1_555
C1A C1 1_555 1_555
C2A C2 1_555 1_555
O3A C2A 1_555 1_555
O4A C1A 1_555 1_555
O5A C1A 1_555 1_555
O6A C2A 1_555 1_555

#END
