
#######################################################################
#
#                 Cambridge Crystallographic Data Centre
#                                CCDC 
#
#######################################################################
#
# If this CIF has been generated from an entry in the Cambridge 
# Structural Database, then it will include bibliographic, chemical, 
# crystal, experimental, refinement or atomic coordinate data resulting 
# from the CCDC's data processing and validation procedures.
#
#######################################################################

data_KANXII
_symmetry_cell_setting           orthorhombic
_symmetry_space_group_name_H-M   'P c 21 n'
_symmetry_Int_Tables_number      33
_space_group_name_Hall           'P -2n -2ac'
loop_
_symmetry_equiv_pos_site_id
_symmetry_equiv_pos_as_xyz
1 x,y,z
2 -x,1/2+y,-z
3 1/2-x,y,1/2+z
4 1/2+x,1/2+y,1/2-z
_cell_length_a                   12.230(2)
_cell_length_b                   14.529(3)
_cell_length_c                   15.788(3)
_cell_angle_alpha                90
_cell_angle_beta                 90
_cell_angle_gamma                90
_cell_volume                     2805.36
loop_
_atom_site_label
_atom_site_type_symbol
_atom_site_fract_x
_atom_site_fract_y
_atom_site_fract_z
Zn1 Zn 0.50543(3) 0.13970(6) 0.10501(2)
Cl1 Cl 0.41145(8) 0.13241(8) -0.01589(6)
Cl2 Cl 0.42337(12) 0.15261(9) 0.22942(7)
O1 O 0.86754(19) 0.09437(19) 0.00558(16)
O2 O 0.6033(3) 0.0304(2) 0.11138(17)
O3 O 0.8947(3) 0.2485(2) -0.39842(18)
C1 C 0.7479(6) 0.3966(3) -0.3682(3)
N1 N 0.6950(4) 0.3156(3) -0.3685(2)
H1 H 0.7348 0.2684 -0.3798
O4 O 0.6472(2) 0.1853(2) -0.25752(16)
C2 C 0.5579(3) 0.2274(3) -0.2946(3)
C3 C 0.8583(6) 0.4032(4) -0.3806(3)
H2 H 0.8884 0.4619 -0.3795
C4 C 0.5708(4) -0.0530(3) 0.1161(2)
N2 N 0.8088(3) -0.0381(2) 0.10757(18)
H3 H 0.7668 0.0091 0.1113
C5 C 0.9510(3) 0.0534(3) 0.0471(2)
C6 C 0.6295(4) 0.1187(4) -0.1916(3)
H4 H 0.5804 0.1434 -0.1490
H5 H 0.5972 0.0632 -0.2149
C7 C 1.1394(4) 0.0287(4) 0.0840(3)
H6 H 1.2126 0.0445 0.0778
C8 C 0.8913(3) 0.1592(3) -0.0618(3)
H7 H 0.9440 0.1328 -0.1008
H8 H 0.9222 0.2151 -0.0384
C9 C 0.9280(6) 0.3323(3) -0.3945(2)
C10 C 0.5847(4) 0.2967(4) -0.3531(3)
C11 C 1.0509(7) 0.3521(4) -0.4010(3)
H9 H 1.0897 0.2955 -0.4101
H10 H 1.0642 0.3931 -0.4476
H11 H 1.0759 0.3801 -0.3494
C12 C 0.9229(3) -0.0185(3) 0.0999(2)
C13 C 0.6448(4) -0.1265(3) 0.1154(2)
H12 H 0.6152 -0.1853 0.1190
C14 C 0.4522(5) -0.0738(4) 0.1202(3)
H13 H 0.4114 -0.0173 0.1198
H14 H 0.4366 -0.1071 0.1713
H15 H 0.4317 -0.1104 0.0722
C15 C 0.3942(7) 0.3220(7) -0.3769(5)
H16 H 0.3387 0.3535 -0.4047
C16 C 1.0612(3) 0.0762(3) 0.0385(3)
H17 H 1.0821 0.1234 0.0021
C17 C 0.7381(4) 0.0975(3) -0.1531(3)
H18 H 0.7878 0.0776 -0.1974
H19 H 0.7298 0.0471 -0.1134
C18 C 1.0003(4) -0.0653(4) 0.1481(4)
H20 H 0.9792 -0.1112 0.1859
C19 C 0.8243(5) -0.2083(3) 0.1025(3)
H21 H 0.9005 -0.1932 0.0984
H22 H 0.8022 -0.2415 0.0528
H23 H 0.8122 -0.2457 0.1517
C20 C 1.1115(4) -0.0417(4) 0.1384(4)
H24 H 1.1653 -0.0732 0.1683
C21 C 0.4508(4) 0.2066(4) -0.2759(3)
H25 H 0.4338 0.1615 -0.2362
C22 C 0.6825(6) 0.4834(4) -0.3486(4)
H26 H 0.6070 0.4676 -0.3405
H27 H 0.7104 0.5115 -0.2980
H28 H 0.6889 0.5258 -0.3950
C23 C 0.7578(4) -0.1205(3) 0.1097(2)
C24 C 0.3670(4) 0.2554(6) -0.3187(4)
H29 H 0.2940 0.2426 -0.3074
C25 C 0.4986(6) 0.3426(5) -0.3948(3)
H30 H 0.5143 0.3875 -0.4350
C26 C 0.7881(4) 0.1803(3) -0.1069(3)
H31 H 0.8019 0.2287 -0.1479
H32 H 0.7353 0.2035 -0.0664
Zn1B Zn 0.99457(3) 0.13970(6) -0.39499(2)
O3B O 0.6053(3) 0.2485(2) 0.10158(18)
loop_
_geom_bond_atom_site_label_1
_geom_bond_atom_site_label_2
_geom_bond_site_symmetry_1
_geom_bond_site_symmetry_2
Zn1 Cl1 1_555 1_555
Cl2 Zn1 1_555 1_555
O1 C5 1_555 1_555
O2 Zn1 1_555 1_555
O3 C9 1_555 1_555
C1 N1 1_555 1_555
N1 H1 1_555 1_555
O4 C2 1_555 1_555
C2 C10 1_555 1_555
C3 C1 1_555 1_555
H2 C3 1_555 1_555
C4 O2 1_555 1_555
N2 H3 1_555 1_555
C5 C12 1_555 1_555
C6 O4 1_555 1_555
H4 C6 1_555 1_555
H5 C6 1_555 1_555
C7 H6 1_555 1_555
C8 O1 1_555 1_555
H7 C8 1_555 1_555
H8 C8 1_555 1_555
C9 C3 1_555 1_555
C10 N1 1_555 1_555
C11 C9 1_555 1_555
H9 C11 1_555 1_555
H10 C11 1_555 1_555
H11 C11 1_555 1_555
C12 N2 1_555 1_555
C13 C4 1_555 1_555
H12 C13 1_555 1_555
C14 C4 1_555 1_555
H13 C14 1_555 1_555
H14 C14 1_555 1_555
H15 C14 1_555 1_555
C15 H16 1_555 1_555
C16 C5 1_555 1_555
H17 C16 1_555 1_555
C17 C6 1_555 1_555
H18 C17 1_555 1_555
H19 C17 1_555 1_555
C18 C12 1_555 1_555
H20 C18 1_555 1_555
C19 H21 1_555 1_555
H22 C19 1_555 1_555
H23 C19 1_555 1_555
C20 C7 1_555 1_555
H24 C20 1_555 1_555
C21 C2 1_555 1_555
H25 C21 1_555 1_555
C22 C1 1_555 1_555
H26 C22 1_555 1_555
H27 C22 1_555 1_555
H28 C22 1_555 1_555
C23 N2 1_555 1_555
C24 C15 1_555 1_555
H29 C24 1_555 1_555
C25 C10 1_555 1_555
H30 C25 1_555 1_555
C26 C8 1_555 1_555
H31 C26 1_555 1_555
H32 C26 1_555 1_555
Zn1B O3 1_555 1_555
O3B Zn1 1_555 1_555
C7 C16 1_555 1_555
C13 C23 1_555 1_555
C15 C25 1_555 1_555
C17 C26 1_555 1_555
C18 C20 1_555 1_555
C19 C23 1_555 1_555
C21 C24 1_555 1_555

#END
