
#######################################################################
#
#                 Cambridge Crystallographic Data Centre
#                                CCDC 
#
#######################################################################
#
# If this CIF has been generated from an entry in the Cambridge 
# Structural Database, then it will include bibliographic, chemical, 
# crystal, experimental, refinement or atomic coordinate data resulting 
# from the CCDC's data processing and validation procedures.
#
#######################################################################

data_KANXUU
_symmetry_cell_setting           orthorhombic
_symmetry_space_group_name_H-M   'P c c n'
_symmetry_Int_Tables_number      56
_space_group_name_Hall           '-P 2ab 2ac'
loop_
_symmetry_equiv_pos_site_id
_symmetry_equiv_pos_as_xyz
1 x,y,z
2 1/2-x,1/2-y,z
3 -x,1/2+y,1/2-z
4 1/2+x,-y,1/2-z
5 -x,-y,-z
6 1/2+x,1/2+y,-z
7 x,1/2-y,1/2+z
8 1/2-x,y,1/2+z
_cell_length_a                   16.8403(8)
_cell_length_b                   22.5480(10)
_cell_length_c                   12.4694(6)
_cell_angle_alpha                90
_cell_angle_beta                 90
_cell_angle_gamma                90
_cell_volume                     4734.82
loop_
_atom_site_label
_atom_site_type_symbol
_atom_site_fract_x
_atom_site_fract_y
_atom_site_fract_z
Co1 Co 0.07571(3) 0.57592(2) 0.49767(4)
O1 O 0.31054(14) 0.31836(10) 0.61387(17)
O2 O 0.03177(16) 0.52571(11) 0.37693(19)
O3 O -0.00473(16) 0.43131(11) 0.3708(2)
O4 O 0.1872(2) 0.56125(18) -0.0816(3)
O5 O 0.1968(2) 0.60515(18) 0.0766(3)
O6 O 0.16572(18) 0.60211(15) 0.3855(3)
H1 H 0.2110 0.5847 0.3792
H2 H 0.1604 0.6295 0.4361
O7 O 0.1439(2) 0.63918(14) 0.5931(3)
H3 H 0.1641 0.6296 0.5318
H4 H 0.1527 0.6750 0.6149
N1 N 0.14956(18) 0.50498(13) 0.5572(2)
N2 N 0.2902(2) 0.34544(15) 0.7810(2)
N3 N 0.3388(2) 0.29483(15) 0.7803(2)
N4 N 0.49769(19) 0.14497(13) 0.5603(2)
C1 C 0.2043(2) 0.45234(16) 0.7061(3)
H5 H 0.2129 0.4502 0.7796
C2 C 0.1644(2) 0.49954(16) 0.6623(3)
H6 H 0.1468 0.5294 0.7079
C3 C 0.1766(2) 0.46187(16) 0.4934(3)
H7 H 0.1673 0.4652 0.4201
C4 C 0.2172(2) 0.41295(16) 0.5296(3)
H8 H 0.2348 0.3840 0.4820
C5 C 0.2315(2) 0.40766(15) 0.6383(3)
C6 C 0.2758(2) 0.35775(15) 0.6822(3)
C7 C 0.3492(2) 0.28117(15) 0.6819(3)
C8 C 0.3985(2) 0.23365(15) 0.6381(3)
C9 C 0.4012(2) 0.22074(16) 0.5306(3)
H9 H 0.3695 0.2414 0.4823
C10 C 0.4514(2) 0.17664(16) 0.4954(3)
H10 H 0.4531 0.1686 0.4223
C11 C 0.4934(3) 0.15733(19) 0.6653(3)
H11 H 0.5242 0.1351 0.7123
C12 C 0.4460(3) 0.20101(19) 0.7069(3)
H12 H 0.4458 0.2086 0.7802
C13 C 0.0524(2) 0.47314(16) 0.2152(3)
C14 C 0.0314(2) 0.42498(16) 0.1521(3)
H13 H 0.0027 0.3938 0.1820
C15 C 0.0529(3) 0.42301(18) 0.0447(3)
C16 C 0.0972(2) 0.4692(2) 0.0028(3)
H14 H 0.1113 0.4681 -0.0693
C17 C 0.1211(2) 0.51686(19) 0.0647(3)
C18 C 0.0988(2) 0.51854(17) 0.1720(3)
H15 H 0.1149 0.5500 0.2151
C19 C 0.0248(2) 0.47679(16) 0.3299(3)
C20 C 0.0279(3) 0.3711(2) -0.0249(4)
H16 H -0.0078 0.3461 0.0146
H17 H 0.0739 0.3487 -0.0454
H18 H 0.0016 0.3856 -0.0880
C21 C 0.1712(3) 0.5646(2) 0.0162(4)
Co1D Co -0.07571(3) 0.42408(2) 0.50233(4)
Co1E Co 0.57571(3) 0.07592(2) 0.50233(4)
O3D O 0.00473(16) 0.56869(11) 0.6292(2)
N4E N -0.00231(19) 0.64497(13) 0.4397(2)
O8 O 0.1344(4) 0.6654(2) 0.8095(4)
H19 H 0.1293 0.6998 0.8374
H20 H 0.1802 0.6569 0.7848
O9 O 0.1708(5) 0.8101(4) 0.7225(8)
O10? O 0.1214(18) 0.7718(13) 0.612(3)
O11? O 0.1889(13) 0.7291(9) 0.3773(19)
O12? O 0.1597(7) 0.7533(5) 0.4875(9)
loop_
_geom_bond_atom_site_label_1
_geom_bond_atom_site_label_2
_geom_bond_site_symmetry_1
_geom_bond_site_symmetry_2
Co1 O2 1_555 1_555
O1 C6 1_555 1_555
O2 C19 1_555 1_555
O3 C19 1_555 1_555
O4 C21 1_555 1_555
O5 C21 1_555 1_555
O6 Co1 1_555 1_555
H1 O6 1_555 1_555
H2 O6 1_555 1_555
O7 Co1 1_555 1_555
H3 O7 1_555 1_555
H4 O7 1_555 1_555
N1 Co1 1_555 1_555
N2 N3 1_555 1_555
N3 C7 1_555 1_555
N4 C10 1_555 1_555
C1 H5 1_555 1_555
C2 N1 1_555 1_555
H6 C2 1_555 1_555
C3 N1 1_555 1_555
H7 C3 1_555 1_555
C4 C3 1_555 1_555
H8 C4 1_555 1_555
C5 C1 1_555 1_555
C6 N2 1_555 1_555
C7 O1 1_555 1_555
C8 C7 1_555 1_555
C9 C8 1_555 1_555
H9 C9 1_555 1_555
C10 C9 1_555 1_555
H10 C10 1_555 1_555
C11 N4 1_555 1_555
H11 C11 1_555 1_555
C12 C8 1_555 1_555
H12 C12 1_555 1_555
C13 C14 1_555 1_555
C14 H13 1_555 1_555
C15 C14 1_555 1_555
C16 C15 1_555 1_555
H14 C16 1_555 1_555
C17 C16 1_555 1_555
C18 C13 1_555 1_555
H15 C18 1_555 1_555
C19 C13 1_555 1_555
C20 C15 1_555 1_555
H16 C20 1_555 1_555
H17 C20 1_555 1_555
H18 C20 1_555 1_555
C21 C17 1_555 1_555
O8 H19 1_555 1_555
H20 O8 1_555 1_555
Co1D O3 1_555 1_555
Co1E N4 1_555 1_555
O3D Co1 1_555 1_555
N4E Co1 1_555 1_555
C1 C2 1_555 1_555
C4 C5 1_555 1_555
C5 C6 1_555 1_555
C11 C12 1_555 1_555
C17 C18 1_555 1_555

#END
