
#######################################################################
#
#                 Cambridge Crystallographic Data Centre
#                                CCDC 
#
#######################################################################
#
# If this CIF has been generated from an entry in the Cambridge 
# Structural Database, then it will include bibliographic, chemical, 
# crystal, experimental, refinement or atomic coordinate data resulting 
# from the CCDC's data processing and validation procedures.
#
#######################################################################

data_KAPDUC
_symmetry_cell_setting           orthorhombic
_symmetry_space_group_name_H-M   'P b c a'
_symmetry_Int_Tables_number      61
_space_group_name_Hall           '-P 2ac 2ab'
loop_
_symmetry_equiv_pos_site_id
_symmetry_equiv_pos_as_xyz
1 x,y,z
2 1/2-x,-y,1/2+z
3 -x,1/2+y,1/2-z
4 1/2+x,1/2-y,-z
5 -x,-y,-z
6 1/2+x,y,1/2-z
7 x,1/2-y,1/2+z
8 1/2-x,1/2+y,z
_cell_length_a                   15.0457(8)
_cell_length_b                   15.1581(8)
_cell_length_c                   19.2886(10)
_cell_angle_alpha                90
_cell_angle_beta                 90
_cell_angle_gamma                90
_cell_volume                     4399.04
loop_
_atom_site_label
_atom_site_type_symbol
_atom_site_fract_x
_atom_site_fract_y
_atom_site_fract_z
Cu1 Cu 0.44955(2) 0.13105(2) 0.463480(18)
C1 C 0.4759(2) 0.1546(2) 0.60397(16)
C2 C 0.5041(2) 0.20792(19) 0.66617(15)
C3 C 0.5464(2) 0.2883(2) 0.65892(17)
H1 H 0.5580 0.3112 0.6151
C4 C 0.5713(2) 0.3344(2) 0.71757(18)
C5 C 0.5560(2) 0.3041(2) 0.78319(19)
H2 H 0.5726 0.3364 0.8221
C6 C 0.5142(2) 0.2229(2) 0.78885(17)
C7 C 0.4879(2) 0.1748(2) 0.73190(16)
H3 H 0.4597 0.1206 0.7375
C8 C 0.3668(2) 0.0078(2) 0.37907(17)
C9 C 0.3368(2) -0.02835(19) 0.30995(16)
C10 C 0.2933(2) -0.1092(2) 0.30745(17)
H4 H 0.2814 -0.1403 0.3480
C11 C 0.2683(2) -0.14239(19) 0.24399(18)
C12 C 0.2818(2) -0.0986(2) 0.18238(18)
H5 H 0.2627 -0.1215 0.1402
C13 C 0.3251(2) -0.0193(2) 0.18705(17)
C14 C 0.3537(2) 0.0165(2) 0.24880(17)
H6 H 0.3839 0.0700 0.2494
C15 C 0.2552(3) 0.1706(3) 0.4727(2)
H7 H 0.2369 0.1137 0.4615
C16 C 0.1999(3) 0.2388(4) 0.4870(2)
H8 H 0.1381 0.2380 0.4884
C17 C 0.3370(3) 0.2819(3) 0.4939(2)
H9 H 0.3865 0.3175 0.5012
H10 H 0.596(3) 0.058(3) 0.487(2)
H11 H 0.564(2) 0.032(2) 0.4328(19)
N1 N 0.6159(2) 0.42058(19) 0.7085(2)
N2 N 0.4994(2) 0.1868(2) 0.85817(16)
N3 N 0.2265(2) -0.2309(2) 0.2412(2)
N4 N 0.3414(3) 0.0295(2) 0.12271(17)
N5 N 0.34021(19) 0.19696(18) 0.47731(14)
N6 N 0.2544(3) 0.3086(3) 0.4987(2)
H12 H 0.2375 0.3615 0.5078
O1 O 0.49980(14) 0.18601(14) 0.54560(11)
O2 O 0.43296(16) 0.08679(15) 0.61323(12)
O3 O 0.6269(2) 0.4653(2) 0.75970(18)
O4 O 0.6401(2) 0.44164(19) 0.65101(18)
O5 O 0.52187(19) 0.22985(19) 0.90826(13)
O6 O 0.4670(3) 0.1139(3) 0.86261(16)
O7 O 0.40995(15) 0.07981(14) 0.37670(11)
O8 O 0.34797(16) -0.03341(15) 0.43232(12)
O9 O 0.2050(2) -0.2651(2) 0.29549(18)
O10 O 0.2167(2) -0.26464(19) 0.18485(18)
O11 O 0.3993(2) 0.0848(2) 0.12220(14)
O12 O 0.2945(3) 0.0135(2) 0.07267(17)
O13 O 0.56277(17) 0.06966(17) 0.45154(15)
Cu1F Cu 0.44955(2) 0.36895(2) 0.963480(18)
O5F O 0.52187(19) 0.27015(19) 0.40826(13)
loop_
_geom_bond_atom_site_label_1
_geom_bond_atom_site_label_2
_geom_bond_site_symmetry_1
_geom_bond_site_symmetry_2
Cu1 N5 1_555 1_555
C1 C2 1_555 1_555
C2 C3 1_555 1_555
C3 H1 1_555 1_555
C4 C3 1_555 1_555
C5 C4 1_555 1_555
H2 C5 1_555 1_555
C6 C5 1_555 1_555
C7 C2 1_555 1_555
H3 C7 1_555 1_555
C8 C9 1_555 1_555
C9 C10 1_555 1_555
C10 H4 1_555 1_555
C11 C10 1_555 1_555
C12 C11 1_555 1_555
H5 C12 1_555 1_555
C13 C12 1_555 1_555
C14 C9 1_555 1_555
H6 C14 1_555 1_555
C15 H7 1_555 1_555
C16 C15 1_555 1_555
H8 C16 1_555 1_555
C17 H9 1_555 1_555
H10 O13 1_555 1_555
H11 O13 1_555 1_555
N1 C4 1_555 1_555
N2 C6 1_555 1_555
N3 C11 1_555 1_555
N4 C13 1_555 1_555
N5 C15 1_555 1_555
N6 C16 1_555 1_555
H12 N6 1_555 1_555
O1 Cu1 1_555 1_555
O2 C1 1_555 1_555
O3 N1 1_555 1_555
O4 N1 1_555 1_555
O5 N2 1_555 1_555
O6 N2 1_555 1_555
O7 Cu1 1_555 1_555
O8 C8 1_555 1_555
O9 N3 1_555 1_555
O10 N3 1_555 1_555
O11 N4 1_555 1_555
O12 N4 1_555 1_555
O13 Cu1 1_555 1_555
Cu1F O5 1_555 1_555
O5F Cu1 1_555 1_555
C1 O1 1_555 1_555
C6 C7 1_555 1_555
C8 O7 1_555 1_555
C13 C14 1_555 1_555
C17 N5 1_555 1_555
C17 N6 1_555 1_555

#END
