
#######################################################################
#
#                 Cambridge Crystallographic Data Centre
#                                CCDC 
#
#######################################################################
#
# If this CIF has been generated from an entry in the Cambridge 
# Structural Database, then it will include bibliographic, chemical, 
# crystal, experimental, refinement or atomic coordinate data resulting 
# from the CCDC's data processing and validation procedures.
#
#######################################################################

data_KAPDIP
_symmetry_cell_setting           triclinic
_symmetry_space_group_name_H-M   'P -1'
_symmetry_Int_Tables_number      2
_space_group_name_Hall           '-P 1'
loop_
_symmetry_equiv_pos_site_id
_symmetry_equiv_pos_as_xyz
1 x,y,z
2 -x,-y,-z
_cell_length_a                   10.5821(9)
_cell_length_b                   15.0278(12)
_cell_length_c                   16.1010(14)
_cell_angle_alpha                65.136(2)
_cell_angle_beta                 84.715(2)
_cell_angle_gamma                77.397(2)
_cell_volume                     2267.16
loop_
_atom_site_label
_atom_site_type_symbol
_atom_site_fract_x
_atom_site_fract_y
_atom_site_fract_z
Cu1 Cu 0.11393(10) -0.67957(8) 0.23882(7)
Cu2 Cu 0.79867(10) -0.64566(8) -0.31581(8)
Cu3 Cu 0.78384(11) -0.95271(8) -0.19837(8)
O1 O 0.2467(7) -0.8077(5) 0.3846(5)
O2 O 0.2430(6) -0.6477(5) 0.2977(4)
O3 O 0.7218(7) -0.7447(5) -0.1848(5)
O4 O 0.6754(6) -0.8978(5) -0.1207(4)
O5 O 0.7233(6) -0.8358(5) 0.6675(4)
O6 O 0.6967(6) -0.6686(5) 0.6034(4)
O7 O 0.1929(6) -0.5397(4) 0.4400(4)
O8 O 0.3365(5) -0.4761(4) 0.3318(4)
O9 O 0.3571(7) -0.9615(5) 0.1805(5)
O10 O 0.2057(6) -0.8722(5) 0.0762(5)
O11 O 0.2441(6) -0.7393(5) 0.1744(4)
O12 O 0.2281(8) -0.5860(6) 0.0675(6)
N1 N 0.9585(7) -0.9393(5) -0.1591(5)
N2 N -0.0360(7) -0.6246(5) 0.3027(5)
N3 N -0.0330(7) -0.6948(5) 0.1766(5)
N4 N 0.9075(7) -1.0159(5) -0.2718(5)
N5 N 0.9121(7) -0.6219(5) -0.2357(5)
N6 N 0.9750(7) -0.7165(5) -0.3446(5)
C1 C -0.0305(9) -0.7324(7) 0.1158(6)
H3 H 0.0498 -0.7568 0.0964
C2 C -0.2632(11) -0.5422(7) 0.3680(8)
H4 H -0.3383 -0.5148 0.3907
C3 C 0.2989(8) -0.5467(7) 0.4009(6)
C4 C 0.2753(9) -0.6745(8) 0.0990(7)
C5 C 1.0742(8) -0.7099(6) -0.3005(6)
C6 C -0.1407(10) -0.7378(8) 0.0788(7)
H5 H -0.1340 -0.7661 0.0367
C7 C -0.1467(12) -0.5483(7) 0.3998(7)
H6 H -0.1414 -0.5247 0.4441
C8 C 0.6731(8) -0.7520(7) 0.6125(6)
C9 C 1.0632(9) -0.9843(7) -0.1945(6)
C10 C 0.4456(8) -0.6481(6) -0.0211(6)
H7 H 0.4307 -0.5825 -0.0268
C11 C -0.1512(8) -0.6586(7) 0.2027(6)
C12 C -0.0331(9) -0.5902(7) 0.3659(6)
H8 H 0.0466 -0.5939 0.3885
C13 C 1.2690(10) -1.0676(8) -0.2802(9)
H9 H 1.3378 -1.0924 -0.3099
C14 C 1.2926(11) -1.0358(8) -0.2183(9)
H10 H 1.3782 -1.0428 -0.2036
C15 C -0.3891(9) -0.6159(8) 0.2017(8)
H11 H -0.4672 -0.6149 0.1789
C16 C 0.4886(8) -0.6540(7) 0.4996(6)
H12 H 0.4934 -0.5982 0.5096
C17 C 0.5744(8) -0.7429(7) 0.5450(6)
C18 C 0.2849(9) -0.7286(7) 0.3647(7)
C19 C 0.3149(10) -0.8875(7) 0.1090(7)
C20 C -0.2699(9) -0.6595(7) 0.1705(7)
C21 C 1.0353(9) -1.0225(6) -0.2584(6)
C22 C 1.1385(9) -1.0638(7) -0.3013(7)
C23 C -0.1549(8) -0.6208(7) 0.2713(6)
C24 C 0.3895(8) -0.7301(6) 0.4247(6)
C25 C 0.8821(9) -1.0492(7) -0.3310(6)
H13 H 0.7959 -1.0448 -0.3423
C26 C 1.1027(11) -1.0964(7) -0.3650(7)
H14 H 1.1658 -1.1219 -0.3978
C27 C 0.3949(8) -0.6452(6) 0.4392(6)
C28 C 0.3762(8) -0.7145(6) 0.0425(6)
C29 C 0.4003(8) -0.8132(6) 0.0527(6)
C30 C -0.3902(9) -0.5766(8) 0.2630(7)
H15 H -0.4688 -0.5484 0.2815
C31 C 1.1316(10) -0.8010(7) -0.4171(6)
H16 H 1.1489 -0.8321 -0.4573
C32 C -0.2590(11) -0.7005(8) 0.1056(7)
H17 H -0.3336 -0.7022 0.0805
C33 C 1.2323(10) -0.7937(7) -0.3730(6)
H18 H 1.3176 -0.8189 -0.3837
C34 C 0.9834(11) -0.9027(7) -0.1026(6)
H19 H 0.9134 -0.8710 -0.0791
C35 C 1.2038(9) -0.7480(7) -0.3119(6)
C36 C 0.9625(10) -0.5704(7) -0.1229(6)
H20 H 0.9333 -0.5391 -0.0837
C37 C 1.1050(12) -0.9080(8) -0.0757(7)
H21 H 1.1163 -0.8820 -0.0343
C38 C 1.2093(12) -0.9522(8) -0.1112(8)
H22 H 1.2926 -0.9564 -0.0939
C39 C 1.0034(9) -0.7615(7) -0.4016(6)
H23 H 0.9366 -0.7668 -0.4319
C40 C 1.2669(9) -0.6960(7) -0.2010(7)
H24 H 1.3317 -0.6941 -0.1669
C41 C 0.4769(9) -0.8182(7) 0.4690(6)
H25 H 0.4731 -0.8743 0.4593
C42 C 0.9768(10) -1.0902(7) -0.3773(7)
H26 H 0.9528 -1.1137 -0.4174
C43 C 1.3005(9) -0.7379(8) -0.2620(7)
H27 H 1.3875 -0.7603 -0.2712
C44 C 1.1349(8) -0.6544(7) -0.1871(6)
C45 C 0.8754(9) -0.5782(7) -0.1781(6)
H28 H 0.7880 -0.5519 -0.1746
C46 C 1.1913(10) -0.9912(7) -0.1733(7)
C47 C 1.0917(10) -0.6093(7) -0.1268(7)
H29 H 1.1504 -0.6056 -0.0894
C48 C 1.0395(8) -0.6611(6) -0.2387(6)
C49 C 0.5697(8) -0.8246(7) 0.5271(6)
H30 H 0.6293 -0.8841 0.5544
C50 C 0.4940(8) -0.8420(7) -0.0043(6)
H31 H 0.5092 -0.9077 0.0015
C51 C -0.2718(9) -0.5775(7) 0.3001(7)
C52 C 0.5384(9) -0.6781(7) -0.0776(6)
H32 H 0.5826 -0.6320 -0.1212
C53 C 0.5640(8) -0.7763(6) -0.0682(5)
C54 C 0.6614(9) -0.8064(8) -0.1322(6)
Cu2_2 Cu 0.79867(10) -0.64566(8) 0.68419(8)
Cu2A Cu 0.20133(10) -0.35434(8) 0.31581(8)
Cu3_2 Cu 0.78384(11) -0.95271(8) 0.80163(8)
Cu3A Cu 0.21616(11) -1.04729(8) 0.19837(8)
O5_2 O 0.7233(6) -0.8358(5) -0.3325(4)
O6_2 O 0.6967(6) -0.6686(5) -0.3966(4)
O8A O 0.6635(5) -0.5239(4) -0.3318(4)
O9A O 0.6429(7) -1.0385(5) -0.1805(5)
O13 O 0.4417(15) -0.9331(17) 0.3285(13)
H1 H 0.4295 -0.9432 0.2830
H2 H 0.3653 -0.9117 0.3352
loop_
_geom_bond_atom_site_label_1
_geom_bond_atom_site_label_2
_geom_bond_site_symmetry_1
_geom_bond_site_symmetry_2
Cu1 O2 1_555 1_555
Cu2 O3 1_555 1_555
Cu3 O4 1_555 1_555
O1 C18 1_555 1_555
O2 C18 1_555 1_555
O3 C54 1_555 1_555
O4 C54 1_555 1_555
O5 C8 1_555 1_555
O6 C8 1_555 1_555
O7 C3 1_555 1_555
O8 C3 1_555 1_555
O9 C19 1_555 1_555
O10 C19 1_555 1_555
O11 Cu1 1_555 1_555
O12 C4 1_555 1_555
O13 H1 1_555 1_555
H2 O13 1_555 1_555
N1 Cu3 1_555 1_555
N2 Cu1 1_555 1_555
N3 Cu1 1_555 1_555
N4 Cu3 1_555 1_555
N5 Cu2 1_555 1_555
N6 Cu2 1_555 1_555
C1 N3 1_555 1_555
H3 C1 1_555 1_555
C2 H4 1_555 1_555
C3 C27 1_555 1_555
C4 O11 1_555 1_555
C5 N6 1_555 1_555
C6 C1 1_555 1_555
H5 C6 1_555 1_555
C7 C2 1_555 1_555
H6 C7 1_555 1_555
C8 C17 1_555 1_555
C9 N1 1_555 1_555
C10 H7 1_555 1_555
C11 N3 1_555 1_555
C12 N2 1_555 1_555
H8 C12 1_555 1_555
C13 H9 1_555 1_555
C14 C13 1_555 1_555
H10 C14 1_555 1_555
C15 H11 1_555 1_555
C16 H12 1_555 1_555
C17 C16 1_555 1_555
C18 C24 1_555 1_555
C19 C29 1_555 1_555
C20 C11 1_555 1_555
C21 N4 1_555 1_555
C22 C13 1_555 1_555
C23 N2 1_555 1_555
C24 C27 1_555 1_555
C25 N4 1_555 1_555
H13 C25 1_555 1_555
C26 C22 1_555 1_555
H14 C26 1_555 1_555
C27 C16 1_555 1_555
C28 C4 1_555 1_555
C29 C28 1_555 1_555
C30 C15 1_555 1_555
H15 C30 1_555 1_555
C31 H16 1_555 1_555
C32 C6 1_555 1_555
H17 C32 1_555 1_555
C33 C31 1_555 1_555
H18 C33 1_555 1_555
C34 N1 1_555 1_555
H19 C34 1_555 1_555
C35 C5 1_555 1_555
C36 H20 1_555 1_555
C37 C34 1_555 1_555
H21 C37 1_555 1_555
C38 C37 1_555 1_555
H22 C38 1_555 1_555
C39 N6 1_555 1_555
H23 C39 1_555 1_555
C40 H24 1_555 1_555
C41 C24 1_555 1_555
H25 C41 1_555 1_555
C42 C25 1_555 1_555
H26 C42 1_555 1_555
C43 C35 1_555 1_555
H27 C43 1_555 1_555
C44 C40 1_555 1_555
C45 N5 1_555 1_555
H28 C45 1_555 1_555
C46 C9 1_555 1_555
C47 C36 1_555 1_555
H29 C47 1_555 1_555
C48 N5 1_555 1_555
C49 C17 1_555 1_555
H30 C49 1_555 1_555
C50 C29 1_555 1_555
H31 C50 1_555 1_555
C51 C2 1_555 1_555
C52 C10 1_555 1_555
H32 C52 1_555 1_555
C53 C50 1_555 1_555
C54 C53 1_555 1_555
Cu2_2 O6 1_555 1_555
Cu2A O8 1_555 1_555
Cu3_2 O5 1_555 1_555
Cu3A O9 1_555 1_555
O5_2 Cu3 1_555 1_555
O6_2 Cu2 1_555 1_555
O8A Cu2 1_555 1_555
O9A Cu3 1_555 1_555
C5 C48 1_555 1_555
C7 C12 1_555 1_555
C9 C21 1_555 1_555
C10 C28 1_555 1_555
C11 C23 1_555 1_555
C14 C46 1_555 1_555
C15 C20 1_555 1_555
C20 C32 1_555 1_555
C21 C22 1_555 1_555
C23 C51 1_555 1_555
C26 C42 1_555 1_555
C30 C51 1_555 1_555
C31 C39 1_555 1_555
C33 C35 1_555 1_555
C36 C45 1_555 1_555
C38 C46 1_555 1_555
C40 C43 1_555 1_555
C41 C49 1_555 1_555
C44 C47 1_555 1_555
C44 C48 1_555 1_555
C52 C53 1_555 1_555

#END
