
#######################################################################
#
#                 Cambridge Crystallographic Data Centre
#                                CCDC 
#
#######################################################################
#
# If this CIF has been generated from an entry in the Cambridge 
# Structural Database, then it will include bibliographic, chemical, 
# crystal, experimental, refinement or atomic coordinate data resulting 
# from the CCDC's data processing and validation procedures.
#
#######################################################################

data_KAPDEL
_symmetry_cell_setting           orthorhombic
_symmetry_space_group_name_H-M   'P n a 21'
_symmetry_Int_Tables_number      33
_space_group_name_Hall           'P 2c -2n'
loop_
_symmetry_equiv_pos_site_id
_symmetry_equiv_pos_as_xyz
1 x,y,z
2 -x,-y,1/2+z
3 1/2+x,1/2-y,z
4 1/2-x,1/2+y,1/2+z
_cell_length_a                   22.556(1)
_cell_length_b                   17.239(1)
_cell_length_c                   10.023(1)
_cell_angle_alpha                90
_cell_angle_beta                 90
_cell_angle_gamma                90
_cell_volume                     3897.37
loop_
_atom_site_label
_atom_site_type_symbol
_atom_site_fract_x
_atom_site_fract_y
_atom_site_fract_z
Ni1 Ni 0.40869(4) 0.25644(5) 0.04225(17)
Ni2 Ni 0.36818(4) 0.25616(5) 0.54828(16)
Ni3 Ni 0.30135(4) -0.00517(7) -0.7119(2)
O1 O 0.6345(3) 0.4106(4) 0.3174(9)
O2 O 0.6400(3) 0.5094(4) 0.4590(9)
O3 O 0.3289(3) 0.4691(4) 0.5068(8)
O4 O 0.3579(3) 0.3691(3) 0.6339(7)
O5 O 0.3731(2) 0.3014(3) 0.3596(7)
O6 O 0.4188(3) 0.3457(3) 0.1791(7)
O7 O 0.3323(3) 0.0221(4) -0.5167(7)
O8 O 0.3534(3) 0.1473(3) -0.5339(7)
O9 O 0.4156(3) 0.1650(4) -0.0901(7)
O10 O 0.3681(2) 0.2116(3) -0.2658(7)
O11 O 0.6209(3) -0.0325(3) -0.2969(8)
O12 O 0.6250(2) 0.0865(3) -0.2214(9)
O13 O 0.2315(3) -0.0710(4) -0.6572(8)
O14 O 0.2789(3) -0.0348(5) -0.9023(9)
O15 O 0.2527(2) 0.0940(3) -0.7047(9)
O16 O 0.4054(3) 0.3457(4) -0.0983(7)
O17 O 0.4097(3) 0.1779(4) 0.1952(7)
N1 N 0.3167(2) 0.2513(4) 0.0481(13)
N2 N 0.0023(3) 0.2427(3) 0.0376(12)
N3 N 0.2750(3) 0.2603(4) 0.5476(13)
N4 N -0.0380(2) 0.2489(4) 0.5495(14)
C1 C 0.2876(4) 0.1866(5) 0.0176(12)
H1 H 0.3094 0.1426 -0.0044
C2 C 0.2844(4) 0.3136(5) 0.0761(12)
H2 H 0.3041 0.3593 0.0971
C3 C 0.0935(4) 0.3075(5) 0.0784(14)
H3 H 0.1124 0.3536 0.1012
C4 C 0.2236(4) 0.3145(5) 0.0760(13)
H4 H 0.2031 0.3600 0.0950
C5 C 0.0956(4) 0.1791(5) 0.0089(12)
H5 H 0.1156 0.1340 -0.0146
C6 C 0.0331(4) 0.3044(5) 0.0777(14)
H6 H 0.0122 0.3478 0.1067
C7 C 0.0350(4) 0.1804(5) 0.0061(11)
H7 H 0.0153 0.1354 -0.0193
C8 C 0.1269(3) 0.2434(4) 0.0458(18)
C9 C 0.2269(4) 0.1817(5) 0.0170(13)
H8 H 0.2086 0.1349 -0.0038
C10 C 0.1928(3) 0.2460(5) 0.0471(15)
C11 C 0.0555(4) 0.2122(5) 0.6437(11)
H9 H 0.0756 0.1833 0.7076
C12 C -0.0056(4) 0.2114(5) 0.6399(12)
H10 H -0.0255 0.1829 0.7046
C13 C -0.0079(4) 0.2915(5) 0.4601(10)
H11 H -0.0294 0.3189 0.3964
C14 C 0.0527(4) 0.2969(5) 0.4577(11)
H12 H 0.0715 0.3273 0.3938
C15 C 0.0865(3) 0.2557(5) 0.5534(17)
C16 C 0.2447(5) 0.2731(8) 0.4418(13)
H13 H 0.2653 0.2833 0.3634
C17 C 0.2449(5) 0.2513(7) 0.6608(15)
H14 H 0.2655 0.2458 0.7407
C18 C 0.1837(5) 0.2727(8) 0.4364(13)
H15 H 0.1642 0.2813 0.3560
C19 C 0.1844(5) 0.2499(8) 0.6617(14)
H16 H 0.1650 0.2419 0.7424
C20 C 0.1520(3) 0.2594(5) 0.5508(17)
C21 C 0.4499(4) 0.3960(4) 0.3850(10)
C22 C 0.4285(4) 0.4328(5) 0.4993(11)
C23 C 0.5104(4) 0.4035(5) 0.3535(10)
H17 H 0.5258 0.3777 0.2797
C24 C 0.5466(4) 0.4485(5) 0.4306(10)
C25 C 0.6124(4) 0.4550(5) 0.3982(11)
C26 C 0.4656(4) 0.4791(5) 0.5748(11)
H18 H 0.4507 0.5052 0.6488
C27 C 0.5243(4) 0.4867(4) 0.5411(13)
H19 H 0.5492 0.5176 0.5927
C28 C 0.3669(3) 0.4224(4) 0.5490(11)
C29 C 0.4110(3) 0.3436(4) 0.3013(11)
C30 C 0.3621(3) 0.0808(5) -0.4861(10)
C31 C 0.4540(4) 0.0112(5) -0.4634(11)
H20 H 0.4383 -0.0199 -0.5304
C32 C 0.4972(4) 0.0950(5) -0.2531(10)
H21 H 0.5114 0.1218 -0.1792
C33 C 0.5972(4) 0.0334(5) -0.2767(10)
C34 C 0.5344(4) 0.0432(5) -0.3185(11)
C35 C 0.4389(4) 0.1078(4) -0.2957(9)
C36 C 0.4042(3) 0.1659(4) -0.2128(11)
C37 C 0.4183(4) 0.0683(5) -0.4054(10)
C38 C 0.5121(4) -0.0002(5) -0.4242(11)
H22 H 0.5359 -0.0363 -0.4677
Ni1B Ni -0.09131(4) 0.24356(5) 0.04225(17)
Ni2_2 Ni 0.36818(4) 0.25616(5) -0.45172(16)
Ni2B Ni -0.13182(4) 0.24384(5) 0.54828(16)
Ni3A Ni 0.69865(4) 0.00517(7) -0.2119(2)
O8_2 O 0.3534(3) 0.1473(3) 0.4661(7)
O10_2 O 0.3681(2) 0.2116(3) 0.7342(7)
O11A O 0.3791(3) 0.0325(3) -0.7969(8)
O12A O 0.3750(2) -0.0865(3) -0.7214(9)
N2B N 0.5023(3) 0.2573(3) 0.0376(12)
N4B N 0.4620(2) 0.2511(4) 0.5495(14)
O18 O 0.3337(9) 0.5379(10) 0.2503(17)
O19 O 0.6478(10) 0.0327(12) 0.375(3)
O20 O 0.7210(10) 0.0016(14) 0.236(3)
loop_
_geom_bond_atom_site_label_1
_geom_bond_atom_site_label_2
_geom_bond_site_symmetry_1
_geom_bond_site_symmetry_2
Ni1 O6 1_555 1_555
Ni2 O4 1_555 1_555
Ni3 O7 1_555 1_555
O1 C25 1_555 1_555
O2 C25 1_555 1_555
O3 C28 1_555 1_555
O4 C28 1_555 1_555
O5 Ni2 1_555 1_555
O6 C29 1_555 1_555
O7 C30 1_555 1_555
O8 C30 1_555 1_555
O9 Ni1 1_555 1_555
O10 C36 1_555 1_555
O11 C33 1_555 1_555
O12 C33 1_555 1_555
O13 Ni3 1_555 1_555
O14 Ni3 1_555 1_555
O15 Ni3 1_555 1_555
O16 Ni1 1_555 1_555
O17 Ni1 1_555 1_555
N1 Ni1 1_555 1_555
N2 C6 1_555 1_555
N3 Ni2 1_555 1_555
N4 C12 1_555 1_555
C1 N1 1_555 1_555
H1 C1 1_555 1_555
C2 N1 1_555 1_555
H2 C2 1_555 1_555
C3 H3 1_555 1_555
C4 C2 1_555 1_555
H4 C4 1_555 1_555
C5 H5 1_555 1_555
C6 C3 1_555 1_555
H6 C6 1_555 1_555
C7 N2 1_555 1_555
H7 C7 1_555 1_555
C8 C3 1_555 1_555
C9 C1 1_555 1_555
H8 C9 1_555 1_555
C10 C4 1_555 1_555
C11 H9 1_555 1_555
C12 C11 1_555 1_555
H10 C12 1_555 1_555
C13 N4 1_555 1_555
H11 C13 1_555 1_555
C14 C13 1_555 1_555
H12 C14 1_555 1_555
C15 C11 1_555 1_555
C16 N3 1_555 1_555
H13 C16 1_555 1_555
C17 N3 1_555 1_555
H14 C17 1_555 1_555
C18 C16 1_555 1_555
H15 C18 1_555 1_555
C19 C17 1_555 1_555
H16 C19 1_555 1_555
C20 C15 1_555 1_555
C21 C22 1_555 1_555
C22 C26 1_555 1_555
C23 C21 1_555 1_555
H17 C23 1_555 1_555
C24 C23 1_555 1_555
C25 C24 1_555 1_555
C26 H18 1_555 1_555
C27 C24 1_555 1_555
H19 C27 1_555 1_555
C28 C22 1_555 1_555
C29 O5 1_555 1_555
C30 C37 1_555 1_555
C31 H20 1_555 1_555
C32 H21 1_555 1_555
C33 C34 1_555 1_555
C34 C32 1_555 1_555
C35 C32 1_555 1_555
C36 O9 1_555 1_555
C37 C31 1_555 1_555
C38 C31 1_555 1_555
H22 C38 1_555 1_555
Ni1B N2 1_555 1_555
Ni2_2 O8 1_555 1_555
Ni2B N4 1_555 1_555
Ni3A O11 1_555 1_555
O8_2 Ni2 1_555 1_555
O10_2 Ni2 1_555 1_555
O11A Ni3 1_555 1_555
O12A Ni3 1_555 1_555
N2B Ni1 1_555 1_555
N4B Ni2 1_555 1_555
O10 Ni2_2 1_555 1_555
O12 Ni3A 1_555 1_555
C5 C7 1_555 1_555
C5 C8 1_555 1_555
C8 C10 1_555 1_555
C9 C10 1_555 1_555
C14 C15 1_555 1_555
C18 C20 1_555 1_555
C19 C20 1_555 1_555
C21 C29 1_555 1_555
C26 C27 1_555 1_555
C34 C38 1_555 1_555
C35 C36 1_555 1_555
C35 C37 1_555 1_555

#END
