
#######################################################################
#
#                 Cambridge Crystallographic Data Centre
#                                CCDC 
#
#######################################################################
#
# If this CIF has been generated from an entry in the Cambridge 
# Structural Database, then it will include bibliographic, chemical, 
# crystal, experimental, refinement or atomic coordinate data resulting 
# from the CCDC's data processing and validation procedures.
#
#######################################################################

data_KAPDOV
_symmetry_cell_setting           monoclinic
_symmetry_space_group_name_H-M   'C 2/c'
_symmetry_Int_Tables_number      15
_space_group_name_Hall           '-C 2yn'
loop_
_symmetry_equiv_pos_site_id
_symmetry_equiv_pos_as_xyz
1 x,y,z
2 1/2+x,1/2+y,z
3 -x,y,1/2-z
4 1/2-x,1/2+y,1/2-z
5 -x,-y,-z
6 1/2-x,1/2-y,-z
7 x,-y,1/2+z
8 1/2+x,1/2-y,1/2+z
_cell_length_a                   15.1063(11)
_cell_length_b                   11.5932(8)
_cell_length_c                   25.8924(19)
_cell_angle_alpha                90.00
_cell_angle_beta                 99.5480(10)
_cell_angle_gamma                90.00
_cell_volume                     4471.73
loop_
_atom_site_label
_atom_site_type_symbol
_atom_site_fract_x
_atom_site_fract_y
_atom_site_fract_z
Co1 Co 0.0000 0.08712(6) 0.7500
O1 O -0.1560(3) 0.2415(3) 0.55174(15)
O2 O -0.2096(3) 0.2822(3) 0.62438(15)
O3 O -0.3806(3) -0.2856(3) 0.54334(14)
O4 O -0.3997(3) -0.2582(3) 0.62494(14)
O5 O -0.2302(2) 0.0861(3) 0.72413(12)
O6 O -0.10700(17) 0.0860(2) 0.68689(11)
O7 O -0.09447(19) 0.0808(2) 0.80091(11)
N3 N 0.0000 -0.1073(4) 0.7500
N4 N 0.0000 -0.7230(4) 0.7500
C1 C -0.2824(3) 0.0533(4) 0.53993(17)
H1 H -0.2820 0.0939 0.5090
C3 C -0.3240(3) -0.0540(4) 0.53839(17)
H3 H -0.3487 -0.0867 0.5064
C5 C -0.1968(3) 0.2153(4) 0.58604(18)
C7 C 0.0000 -0.3516(5) 0.7500
C8 C -0.3728(3) -0.2281(4) 0.58549(17)
C9 C -0.0710(3) -0.2877(4) 0.7636(2)
H6 H -0.1204 -0.3252 0.7730
C10 C -0.0680(3) -0.1684(4) 0.7630(2)
H7 H -0.1163 -0.1283 0.7722
C12 C -0.2891(3) -0.0638(3) 0.63197(16)
H8 H -0.2931 -0.1022 0.6630
C17 C -0.2419(3) 0.0998(3) 0.58701(17)
C18 C -0.3287(3) -0.1121(3) 0.58464(16)
C19 C -0.2435(2) 0.0407(3) 0.63400(16)
C20 C -0.0759(3) -0.6618(4) 0.74759(18)
H12 H -0.1298 -0.7017 0.7457
C23 C 0.0000 -0.4787(5) 0.7500
C24 C -0.0784(3) -0.5431(4) 0.74768(19)
H15 H -0.1331 -0.5054 0.7462
C25 C -0.1904(2) 0.0762(3) 0.68602(16)
H16 H -0.190(5) 0.347(7) 0.621(3)
H17 H -0.401(5) -0.380(6) 0.548(3)
Co1_2 Co 0.0000 -0.91288(6) 0.7500
O1B O 0.1560(3) 0.2415(3) 0.94826(15)
O2B O 0.2096(3) 0.2822(3) 0.87562(15)
O3B O 0.3806(3) -0.2856(3) 0.95666(14)
O4B O 0.3997(3) -0.2582(3) 0.87506(14)
O5B O 0.2302(2) 0.0861(3) 0.77587(12)
O6B O 0.10700(17) 0.0860(2) 0.81311(11)
O7B O 0.09447(19) 0.0808(2) 0.69909(11)
N4_2 N 0.0000 0.2770(4) 0.7500
C1B C 0.2824(3) 0.0533(4) 0.96007(17)
H1B H 0.2820 0.0939 0.9910
C3B C 0.3240(3) -0.0540(4) 0.96161(17)
H3B H 0.3487 -0.0867 0.9936
C5B C 0.1968(3) 0.2153(4) 0.91396(18)
C8B C 0.3728(3) -0.2281(4) 0.91451(17)
C9B C 0.0710(3) -0.2877(4) 0.7364(2)
H6B H 0.1204 -0.3252 0.7270
C10B C 0.0680(3) -0.1684(4) 0.7370(2)
H7B H 0.1163 -0.1283 0.7278
C12B C 0.2891(3) -0.0638(3) 0.86803(16)
H8B H 0.2931 -0.1022 0.8370
C17B C 0.2419(3) 0.0998(3) 0.91299(17)
C18B C 0.3287(3) -0.1121(3) 0.91536(16)
C19B C 0.2435(2) 0.0407(3) 0.86600(16)
C20B C 0.0759(3) -0.6618(4) 0.75241(18)
H12B H 0.1298 -0.7017 0.7543
C24B C 0.0784(3) -0.5431(4) 0.75232(19)
H15B H 0.1331 -0.5054 0.7538
C25B C 0.1904(2) 0.0762(3) 0.81398(16)
H16B H 0.190(5) 0.347(7) 0.879(3)
H17B H 0.401(5) -0.380(6) 0.952(3)
N1 N 0.1323(3) -0.5167(3) 0.88473(17)
N2 N -0.0596(3) 0.0131(3) 0.94044(15)
C2 C 0.1781(4) -0.4182(4) 0.8886(3)
H2 H 0.2379 -0.4201 0.8840
C4 C 0.1421(3) -0.3149(4) 0.8989(3)
H4 H 0.1773 -0.2486 0.9017
C6 C 0.0471(4) -0.5115(4) 0.8904(2)
H5 H 0.0139 -0.5794 0.8875
C11 C 0.0531(3) -0.3085(4) 0.90534(17)
C13 C 0.0120(3) -0.1972(3) 0.91709(17)
C14 C 0.0043(3) 0.0080(4) 0.91095(19)
H9 H 0.0248 0.0763 0.8982
C15 C -0.0554(3) -0.1910(4) 0.94794(19)
H10 H -0.0774 -0.2578 0.9611
C16 C 0.0412(3) -0.0945(4) 0.89858(19)
H11 H 0.0858 -0.0949 0.8778
C21 C 0.0052(3) -0.4106(4) 0.9004(2)
H13 H -0.0552 -0.4110 0.9038
C22 C -0.0890(3) -0.0848(4) 0.9586(2)
H14 H -0.1338 -0.0812 0.9793
loop_
_geom_bond_atom_site_label_1
_geom_bond_atom_site_label_2
_geom_bond_site_symmetry_1
_geom_bond_site_symmetry_2
Co1 O6 1_555 1_555
O1 C5 1_555 1_555
O2 C5 1_555 1_555
O3 C8 1_555 1_555
O4 C8 1_555 1_555
O5 C25 1_555 1_555
O6 C25 1_555 1_555
O7 Co1 1_555 1_555
N1 C2 1_555 1_555
N2 C14 1_555 1_555
N3 Co1 1_555 1_555
N4 C20 1_555 1_555
C1 H1 1_555 1_555
C2 H2 1_555 1_555
C3 C1 1_555 1_555
H3 C3 1_555 1_555
C4 C2 1_555 1_555
H4 C4 1_555 1_555
C5 C17 1_555 1_555
C6 N1 1_555 1_555
H5 C6 1_555 1_555
C7 C9 1_555 1_555
C8 C18 1_555 1_555
C9 H6 1_555 1_555
C10 N3 1_555 1_555
H7 C10 1_555 1_555
C11 C4 1_555 1_555
C12 H8 1_555 1_555
C13 C11 1_555 1_555
C14 H9 1_555 1_555
C15 C13 1_555 1_555
H10 C15 1_555 1_555
C16 C13 1_555 1_555
H11 C16 1_555 1_555
C17 C1 1_555 1_555
C18 C3 1_555 1_555
C19 C12 1_555 1_555
C20 H12 1_555 1_555
C21 C6 1_555 1_555
H13 C21 1_555 1_555
C22 N2 1_555 1_555
H14 C22 1_555 1_555
C23 C7 1_555 1_555
C24 C20 1_555 1_555
H15 C24 1_555 1_555
C25 C19 1_555 1_555
H16 O2 1_555 1_555
H17 O3 1_555 1_555
Co1_2 N4 1_555 1_555
O1B C5B 1_555 1_555
O2B C5B 1_555 1_555
O3B C8B 1_555 1_555
O4B C8B 1_555 1_555
O5B C25B 1_555 1_555
O6B Co1 1_555 1_555
O7B Co1 1_555 1_555
N4_2 Co1 1_555 1_555
C1B H1B 1_555 1_555
C3B C1B 1_555 1_555
H3B C3B 1_555 1_555
C5B C17B 1_555 1_555
C8B C18B 1_555 1_555
C9B C7 1_555 1_555
H6B C9B 1_555 1_555
C10B N3 1_555 1_555
H7B C10B 1_555 1_555
C12B H8B 1_555 1_555
C17B C1B 1_555 1_555
C18B C3B 1_555 1_555
C19B C12B 1_555 1_555
C20B N4 1_555 1_555
H12B C20B 1_555 1_555
C24B C23 1_555 1_555
H15B C24B 1_555 1_555
C25B O6B 1_555 1_555
H16B O2B 1_555 1_555
H17B O3B 1_555 1_555
C9 C10 1_555 1_555
C11 C21 1_555 1_555
C12 C18 1_555 1_555
C14 C16 1_555 1_555
C15 C22 1_555 1_555
C17 C19 1_555 1_555
C23 C24 1_555 1_555
C9B C10B 1_555 1_555
C12B C18B 1_555 1_555
C17B C19B 1_555 1_555
C19B C25B 1_555 1_555
C20B C24B 1_555 1_555

#END
