
#######################################################################
#
#                 Cambridge Crystallographic Data Centre
#                                CCDC 
#
#######################################################################
#
# If this CIF has been generated from an entry in the Cambridge 
# Structural Database, then it will include bibliographic, chemical, 
# crystal, experimental, refinement or atomic coordinate data resulting 
# from the CCDC's data processing and validation procedures.
#
#######################################################################

data_KAPFAK
_symmetry_cell_setting           monoclinic
_symmetry_space_group_name_H-M   'C 2/c'
_symmetry_Int_Tables_number      15
_space_group_name_Hall           '-C 2yn'
loop_
_symmetry_equiv_pos_site_id
_symmetry_equiv_pos_as_xyz
1 x,y,z
2 -x,y,1/2-z
3 1/2+x,1/2+y,z
4 1/2-x,1/2+y,1/2-z
5 -x,-y,-z
6 x,-y,1/2+z
7 1/2-x,1/2-y,-z
8 1/2+x,1/2-y,1/2+z
_cell_length_a                   25.672(3)
_cell_length_b                   8.9226(11)
_cell_length_c                   14.4540(17)
_cell_angle_alpha                90
_cell_angle_beta                 96.404(2)
_cell_angle_gamma                90
_cell_volume                     3290.19
loop_
_atom_site_label
_atom_site_type_symbol
_atom_site_fract_x
_atom_site_fract_y
_atom_site_fract_z
Ag1 Ag 0.96804(2) 0.18421(6) 0.09550(4)
N1 N 0.82037(15) 0.4713(5) 0.2481(3)
N2 N 0.9097(2) 0.3559(7) 0.0854(4)
N3 N 0.99960(17) 0.9630(5) 0.3798(3)
N4 N 0.9427(4) 0.3127(8) 0.3508(7)
N5 N 0.94925(17) 0.7788(5) 0.3252(3)
C1 C 0.7907(2) 0.4202(7) 0.1626(3)
H1 H 0.7556 0.4616 0.1584
H2 H 0.7878 0.3118 0.1640
C2 C 0.8164(2) 0.4665(7) 0.0778(4)
H3 H 0.7954 0.4317 0.0219
H4 H 0.8183 0.5750 0.0750
C3 C 0.8688(2) 0.4037(7) 0.0817(3)
C4 C 0.8127(3) 0.3737(8) 0.3269(4)
H5 H 0.7765 0.3412 0.3221
H6 H 0.8201 0.4294 0.3845
C5 C 0.8109(2) 0.6291(7) 0.2670(5)
H7 H 0.7800 0.6375 0.2998
H8 H 0.8040 0.6825 0.2085
C6 C 0.9574(2) 0.9265(7) 0.3251(4)
H9 H 0.9358 0.9948 0.2907
C7 C 0.9880(2) 0.7183(7) 0.3844(4)
H10 H 0.9923 0.6176 0.4001
C8 C 1.0189(2) 0.8312(7) 0.4159(4)
H11 H 1.0493 0.8214 0.4568
C9 C 0.9045(2) 0.7008(6) 0.2733(4)
H12 H 0.9144 0.5980 0.2620
H13 H 0.8960 0.7492 0.2135
C10 C 0.9010(4) 0.2793(9) 0.3414(6)
C11 C 0.8484(3) 0.2373(8) 0.3291(5)
H14 H 0.8411 0.1716 0.3795
H15 H 0.8413 0.1823 0.2712
C12 C 0.8571(2) 0.7011(7) 0.3251(5)
H16 H 0.8484 0.8035 0.3399
H17 H 0.8647 0.6466 0.3830
Ag1A Ag 1.03196(2) 1.18421(6) 0.40450(4)
Ag1A_2 Ag 1.03196(2) 0.18421(6) 0.40450(4)
N3A N 1.00040(17) -0.0370(5) 0.1202(3)
N4A N 1.0573(4) 0.3127(8) 0.1492(7)
F1 F 0.2045(2) 0.0896(8) 0.4506(6)
F2 F 0.1323(2) 0.0121(8) 0.4937(4)
F3 F 0.1842(4) -0.1510(7) 0.4478(5)
F4 F 0.1423(4) 0.0098(7) 0.3494(4)
B1 B 0.1688(3) -0.0133(8) 0.4327(5)
loop_
_geom_bond_atom_site_label_1
_geom_bond_atom_site_label_2
_geom_bond_site_symmetry_1
_geom_bond_site_symmetry_2
Ag1 N2 1_555 1_555
N1 C1 1_555 1_555
N2 C3 1_555 1_555
N3 C6 1_555 1_555
N4 C10 1_555 1_555
N5 C6 1_555 1_555
C1 H1 1_555 1_555
H2 C1 1_555 1_555
C2 C1 1_555 1_555
H3 C2 1_555 1_555
H4 C2 1_555 1_555
C3 C2 1_555 1_555
C4 N1 1_555 1_555
H5 C4 1_555 1_555
H6 C4 1_555 1_555
C5 N1 1_555 1_555
H7 C5 1_555 1_555
H8 C5 1_555 1_555
C6 H9 1_555 1_555
C7 N5 1_555 1_555
H10 C7 1_555 1_555
C8 N3 1_555 1_555
H11 C8 1_555 1_555
C9 N5 1_555 1_555
H12 C9 1_555 1_555
H13 C9 1_555 1_555
C10 C11 1_555 1_555
C11 C4 1_555 1_555
H14 C11 1_555 1_555
H15 C11 1_555 1_555
C12 C5 1_555 1_555
H16 C12 1_555 1_555
H17 C12 1_555 1_555
F1 B1 1_555 1_555
F2 B1 1_555 1_555
F3 B1 1_555 1_555
F4 B1 1_555 1_555
Ag1A N3 1_555 1_555
Ag1A_2 N4 1_555 1_555
N3A Ag1 1_555 1_555
N4A Ag1 1_555 1_555
C7 C8 1_555 1_555
C9 C12 1_555 1_555

#END
