
#######################################################################
#
#                 Cambridge Crystallographic Data Centre
#                                CCDC 
#
#######################################################################
#
# If this CIF has been generated from an entry in the Cambridge 
# Structural Database, then it will include bibliographic, chemical, 
# crystal, experimental, refinement or atomic coordinate data resulting 
# from the CCDC's data processing and validation procedures.
#
#######################################################################

data_KAPFOX
_symmetry_cell_setting           monoclinic
_symmetry_space_group_name_H-M   'P 21/n'
_symmetry_Int_Tables_number      14
_space_group_name_Hall           '-P 2yn'
loop_
_symmetry_equiv_pos_site_id
_symmetry_equiv_pos_as_xyz
1 x,y,z
2 1/2-x,1/2+y,1/2-z
3 -x,-y,-z
4 1/2+x,1/2-y,1/2+z
_cell_length_a                   16.295(3)
_cell_length_b                   16.093(3)
_cell_length_c                   20.271(4)
_cell_angle_alpha                90
_cell_angle_beta                 110.330(3)
_cell_angle_gamma                90
_cell_volume                     4984.64
loop_
_atom_site_label
_atom_site_type_symbol
_atom_site_fract_x
_atom_site_fract_y
_atom_site_fract_z
Co1 Co 0.335414(16) 0.089536(16) 0.231674(14)
Co2 Co -0.663360(17) 0.153790(16) 0.066560(14)
C1 C 0.13647(14) 0.11557(14) 0.19165(12)
C2 C 0.05727(14) 0.10100(15) 0.21222(13)
C3 C -0.00016(17) 0.16484(19) 0.20922(17)
H1 H 0.0059 0.2152 0.1889
C4 C -0.06711(18) 0.1547(2) 0.23627(18)
H2 H -0.1050 0.1983 0.2351
C5 C -0.07646(15) 0.0799(2) 0.26454(15)
C6 C -0.02247(17) 0.0142(2) 0.26501(16)
H3 H -0.0312 -0.0371 0.2825
C7 C 0.04455(16) 0.02496(17) 0.23945(15)
H4 H 0.0818 -0.0192 0.2404
C8 C -0.22111(15) 0.08808(19) 0.27292(15)
C9 C -0.26392(15) 0.09574(19) 0.32023(14)
H5 H -0.2326 0.0938 0.3683
C10 C -0.35357(14) 0.10639(15) 0.29628(12)
H6 H -0.3824 0.1111 0.3285
C11 C -0.40133(12) 0.11019(13) 0.22466(11)
C12 C -0.35630(14) 0.10524(16) 0.17792(12)
H7 H -0.3871 0.1099 0.1299
C13 C -0.26668(15) 0.09355(18) 0.20097(14)
H8 H -0.2375 0.0894 0.1690
C14 C -0.49965(12) 0.11734(13) 0.19880(11)
C15 C 0.37015(15) -0.07116(14) 0.32345(12)
H9 H 0.3640 -0.0987 0.2817
C16 C 0.38493(17) -0.11843(15) 0.38430(13)
H10 H 0.3889 -0.1760 0.3830
C17 C 0.39343(17) -0.07831(15) 0.44579(13)
H11 H 0.4038 -0.1084 0.4870
C18 C 0.38641(14) 0.00836(14) 0.44632(12)
C19 C 0.39112(15) 0.05521(15) 0.50899(12)
C20 C 0.4096(2) 0.0575(2) 0.62491(15)
H12 H 0.4205 0.0310 0.6679
C21 C 0.3969(2) 0.1433(2) 0.62105(15)
H13 H 0.3984 0.1715 0.6615
C22 C 0.38040(15) 0.14162(15) 0.50572(12)
C23 C 0.36532(14) 0.18568(14) 0.43967(12)
C24 C 0.35262(16) 0.27163(15) 0.43306(14)
H14 H 0.3541 0.3035 0.4717
C25 C 0.33802(18) 0.30846(15) 0.36908(14)
H15 H 0.3305 0.3657 0.3640
C26 C 0.33454(16) 0.25925(14) 0.31179(13)
H16 H 0.3239 0.2849 0.2685
C27 C 0.36094(13) 0.14064(13) 0.37959(11)
C28 C 0.37193(13) 0.05068(13) 0.38294(11)
C29 C 0.35293(14) -0.66277(13) 0.09964(12)
C30 C 0.35790(14) -0.57614(12) 0.07456(11)
C31 C 0.32765(14) -0.50994(13) 0.10382(12)
H17 H 0.3043 -0.5202 0.1389
C32 C 0.33160(15) -0.42905(13) 0.08183(12)
H18 H 0.3104 -0.3854 0.1014
C33 C 0.36724(16) -0.41402(12) 0.03060(12)
C34 C 0.39658(17) -0.47913(14) -0.00054(12)
H19 H 0.4197 -0.4686 -0.0357
C35 C 0.39101(16) -0.55982(13) 0.02147(12)
H20 H 0.4097 -0.6036 0.0003
C36 C 0.35870(17) -0.26333(13) 0.03280(12)
C37 C 0.39112(17) -0.24745(14) 0.10431(12)
H21 H 0.4229 -0.2877 0.1358
C38 C 0.37528(16) -0.17044(13) 0.12807(12)
H22 H 0.3952 -0.1598 0.1761
C39 C 0.33011(14) -0.10873(12) 0.08136(11)
C40 C 0.30039(16) -0.12543(13) 0.00971(12)
H23 H 0.2714 -0.0843 -0.0221
C41 C 0.31361(17) -0.20292(14) -0.01480(12)
H24 H 0.2924 -0.2143 -0.0628
C42 C 0.31837(13) -0.02346(12) 0.10727(11)
C43 C -0.55219(15) 0.09992(16) -0.02263(13)
H25 H -0.5080 0.0912 0.0205
C44 C -0.53580(17) 0.08103(19) -0.08360(15)
H26 H -0.4827 0.0575 -0.0811
C45 C -0.59840(18) 0.09728(18) -0.14737(14)
H27 H -0.5874 0.0869 -0.1887
C46 C -0.67901(15) 0.12965(15) -0.15018(12)
C47 C -0.75004(18) 0.14643(15) -0.21532(12)
C48 C -0.8032(3) 0.1484(2) -0.33469(15)
H28 H -0.7965 0.1402 -0.3779
C49 C -0.8829(2) 0.17479(19) -0.33378(14)
H29 H -0.9278 0.1835 -0.3765
C50 C -0.83087(17) 0.17372(15) -0.21466(12)
C51 C -0.84415(15) 0.18727(15) -0.14831(12)
C52 C -0.92274(17) 0.2167(2) -0.14422(14)
H30 H -0.9700 0.2281 -0.1848
C53 C -0.92879(18) 0.2283(2) -0.07932(16)
H31 H -0.9803 0.2488 -0.0755
C54 C -0.85816(16) 0.20973(19) -0.01901(14)
H32 H -0.8645 0.2164 0.0245
C55 C -0.77555(14) 0.17247(13) -0.08520(11)
C56 C -0.69139(14) 0.14322(13) -0.08624(11)
N1 N 0.36449(11) 0.01121(11) 0.32228(9)
N2 N 0.34570(11) 0.17712(11) 0.31593(10)
N3 N 0.40671(17) 0.01219(15) 0.56952(11)
N4 N 0.38273(15) 0.18607(15) 0.56280(11)
N5 N -0.62825(11) 0.13000(11) -0.02309(9)
N6 N -0.78215(11) 0.18281(12) -0.02095(9)
N7 N -0.73552(18) 0.13418(16) -0.27675(11)
N8 N -0.89888(15) 0.18838(15) -0.27482(11)
O1 O 0.20193(10) 0.07068(11) 0.22032(10)
O2 O 0.13253(11) 0.17286(13) 0.14880(11)
O3 O -0.13342(12) 0.0690(2) 0.30157(12)
O4 O -0.53525(9) 0.11508(11) 0.24468(8)
O5 O -0.53821(9) 0.12280(11) 0.13337(8)
O6 O 0.33317(14) -0.67133(10) 0.15377(10)
O7 O 0.36796(11) -0.72122(9) 0.06438(9)
O8 O 0.37448(15) -0.33648(9) 0.00322(9)
O9 O 0.33711(11) -0.01453(9) 0.17199(8)
O10 O 0.29188(11) 0.03231(9) 0.06105(8)
O11 O 0.29076(9) 0.17837(9) 0.15035(7)
H33 H 0.3104 0.2331 0.1693
H34 H 0.2273 0.1786 0.1324
Co1_2 Co -0.664586(16) 0.089536(16) 0.231674(14)
Co2_2 Co 0.336640(17) -0.846210(16) 0.066560(14)
Co2_3 Co 0.336640(17) 0.153790(16) 0.066560(14)
O4_2 O 0.46475(9) 0.11508(11) 0.24468(8)
O7_2 O -0.63204(11) 0.27878(9) 0.06438(9)
O10_2 O -0.70812(11) 0.03231(9) 0.06105(8)
O11_2 O -0.70924(9) 0.17837(9) 0.15035(7)
H33_2 H -0.6896 0.2331 0.1693
H34_2 H -0.7727 0.1786 0.1324
O12 O -0.0011(6) 0.1114(6) 0.0255(6)
H35 H 0.0044 0.0868 0.0644
H36 H -0.0521 0.1205 -0.0050
O13 O 0.1090(6) 1.0086(6) -0.0229(9)
H37 H 0.0776 0.9688 -0.0169
H38 H 0.0865 1.0441 -0.0558
loop_
_geom_bond_atom_site_label_1
_geom_bond_atom_site_label_2
_geom_bond_site_symmetry_1
_geom_bond_site_symmetry_2
Co1 N1 1_555 1_555
Co2 N5 1_555 1_555
C1 C2 1_555 1_555
C2 C3 1_555 1_555
C3 H1 1_555 1_555
C4 C3 1_555 1_555
H2 C4 1_555 1_555
C5 C4 1_555 1_555
C6 C5 1_555 1_555
H3 C6 1_555 1_555
C7 C2 1_555 1_555
H4 C7 1_555 1_555
C8 C9 1_555 1_555
C9 H5 1_555 1_555
C10 C9 1_555 1_555
H6 C10 1_555 1_555
C11 C10 1_555 1_555
C12 C11 1_555 1_555
H7 C12 1_555 1_555
C13 C8 1_555 1_555
H8 C13 1_555 1_555
C14 C11 1_555 1_555
C15 H9 1_555 1_555
C16 C15 1_555 1_555
H10 C16 1_555 1_555
C17 C16 1_555 1_555
H11 C17 1_555 1_555
C18 C17 1_555 1_555
C19 C18 1_555 1_555
C20 H12 1_555 1_555
C21 C20 1_555 1_555
H13 C21 1_555 1_555
C22 C19 1_555 1_555
C23 C22 1_555 1_555
C24 C23 1_555 1_555
H14 C24 1_555 1_555
C25 C24 1_555 1_555
H15 C25 1_555 1_555
C26 C25 1_555 1_555
H16 C26 1_555 1_555
C27 C23 1_555 1_555
C28 C18 1_555 1_555
C29 C30 1_555 1_555
C30 C31 1_555 1_555
C31 H17 1_555 1_555
C32 C31 1_555 1_555
H18 C32 1_555 1_555
C33 C32 1_555 1_555
C34 C33 1_555 1_555
H19 C34 1_555 1_555
C35 C30 1_555 1_555
H20 C35 1_555 1_555
C36 C37 1_555 1_555
C37 H21 1_555 1_555
C38 C37 1_555 1_555
H22 C38 1_555 1_555
C39 C38 1_555 1_555
C40 C39 1_555 1_555
H23 C40 1_555 1_555
C41 C36 1_555 1_555
H24 C41 1_555 1_555
C42 C39 1_555 1_555
C43 H25 1_555 1_555
C44 C43 1_555 1_555
H26 C44 1_555 1_555
C45 C44 1_555 1_555
H27 C45 1_555 1_555
C46 C45 1_555 1_555
C47 C46 1_555 1_555
C48 H28 1_555 1_555
C49 C48 1_555 1_555
H29 C49 1_555 1_555
C50 C47 1_555 1_555
C51 C50 1_555 1_555
C52 C51 1_555 1_555
H30 C52 1_555 1_555
C53 C52 1_555 1_555
H31 C53 1_555 1_555
C54 C53 1_555 1_555
H32 C54 1_555 1_555
C55 C51 1_555 1_555
C56 C46 1_555 1_555
N1 C15 1_555 1_555
N2 Co1 1_555 1_555
N3 C19 1_555 1_555
N4 C21 1_555 1_555
N5 C43 1_555 1_555
N6 Co2 1_555 1_555
N7 C47 1_555 1_555
N8 C49 1_555 1_555
O1 Co1 1_555 1_555
O2 C1 1_555 1_555
O3 C5 1_555 1_555
O4 C14 1_555 1_555
O5 Co2 1_555 1_555
O6 C29 1_555 1_555
O7 C29 1_555 1_555
O8 C33 1_555 1_555
O9 Co1 1_555 1_555
O10 C42 1_555 1_555
O11 Co1 1_555 1_555
H33 O11 1_555 1_555
H34 O11 1_555 1_555
O12 H35 1_555 1_555
H36 O12 1_555 1_555
O13 H37 1_555 1_555
H38 O13 1_555 1_555
Co1_2 O4 1_555 1_555
Co2_2 O7 1_555 1_555
Co2_3 O10 1_555 1_555
O4_2 Co1 1_555 1_555
O7_2 Co2 1_555 1_555
O10_2 Co2 1_555 1_555
O11_2 Co2 1_555 1_555
H33_2 O11_2 1_555 1_555
H34_2 O11_2 1_555 1_555
C1 O1 1_555 1_555
C6 C7 1_555 1_555
C8 O3 1_555 1_555
C12 C13 1_555 1_555
C14 O5 1_555 1_555
C20 N3 1_555 1_555
C22 N4 1_555 1_555
C26 N2 1_555 1_555
C27 C28 1_555 1_555
C27 N2 1_555 1_555
C28 N1 1_555 1_555
C34 C35 1_555 1_555
C36 O8 1_555 1_555
C40 C41 1_555 1_555
C42 O9 1_555 1_555
C48 N7 1_555 1_555
C50 N8 1_555 1_555
C54 N6 1_555 1_555
C55 C56 1_555 1_555
C55 N6 1_555 1_555
C56 N5 1_555 1_555
O11 Co2_3 1_555 1_555
Co1_2 O11_2 1_555 1_555

#END
