
#######################################################################
#
#                 Cambridge Crystallographic Data Centre
#                                CCDC 
#
#######################################################################
#
# If this CIF has been generated from an entry in the Cambridge 
# Structural Database, then it will include bibliographic, chemical, 
# crystal, experimental, refinement or atomic coordinate data resulting 
# from the CCDC's data processing and validation procedures.
#
#######################################################################

data_KAPFEO
_symmetry_cell_setting           monoclinic
_symmetry_space_group_name_H-M   'C 2/c'
_symmetry_Int_Tables_number      15
_space_group_name_Hall           '-C 2yn'
loop_
_symmetry_equiv_pos_site_id
_symmetry_equiv_pos_as_xyz
1 x,y,z
2 -x,y,1/2-z
3 1/2+x,1/2+y,z
4 1/2-x,1/2+y,1/2-z
5 -x,-y,-z
6 x,-y,1/2+z
7 1/2-x,1/2-y,-z
8 1/2+x,1/2-y,1/2+z
_cell_length_a                   25.477(5)
_cell_length_b                   8.9860(15)
_cell_length_c                   14.576(3)
_cell_angle_alpha                90
_cell_angle_beta                 95.048(5)
_cell_angle_gamma                90
_cell_volume                     3324.03
loop_
_atom_site_label
_atom_site_type_symbol
_atom_site_fract_x
_atom_site_fract_y
_atom_site_fract_z
Ag1 Ag 0.96783(2) 1.31632(6) 0.59387(4)
C1 C 0.7911(2) 1.0689(6) 0.6642(3)
H1 H 0.7877 1.1764 0.6655
H2 H 0.7559 1.0266 0.6601
C2 C 0.8181(2) 1.0241(6) 0.5798(4)
H3 H 0.8203 0.9165 0.5768
H4 H 0.7974 1.0585 0.5248
C3 C 0.8703(2) 1.0871(6) 0.5833(3)
C4 C 0.8110(3) 1.1167(8) 0.8257(4)
H5 H 0.8180 1.0624 0.8829
H6 H 0.7743 1.1470 0.8208
C5 C 0.8456(3) 1.2536(8) 0.8278(5)
H7 H 0.8390 1.3073 0.7702
H8 H 0.8367 1.3186 0.8772
C6 C 0.9007(4) 1.2149(8) 0.8414(6)
C7 C 0.8104(2) 0.8637(6) 0.7686(4)
H9 H 0.8039 0.8098 0.7110
H10 H 0.7790 0.8560 0.8014
C8 C 0.8561(2) 0.7921(7) 0.8257(4)
H11 H 0.8626 0.8453 0.8835
H12 H 0.8471 0.6902 0.8396
C9 C 0.9046(2) 0.7935(6) 0.7762(4)
H13 H 0.8972 0.7455 0.7169
H14 H 0.9144 0.8958 0.7652
C10 C 0.9876(2) 0.7794(7) 0.8839(4)
H15 H 0.9924 0.8798 0.8977
C11 C 1.0182(2) 0.6646(7) 0.9166(4)
H16 H 1.0480 0.6742 0.9580
C12 C 0.9570(2) 0.5710(7) 0.8273(4)
H17 H 0.9354 0.5032 0.7939
N1 N 0.82003(15) 1.0192(5) 0.7489(3)
N2 N 0.9107(2) 1.1396(6) 0.5863(4)
N3 N 0.9424(3) 1.1829(9) 0.8552(7)
N4 N 0.94900(17) 0.7179(5) 0.8271(3)
N5 N 0.99950(18) 0.5344(5) 0.8810(3)
Ag1A Ag 1.03217(2) 1.31632(6) 0.90613(4)
Ag1A_2 Ag 1.03217(2) 0.31632(6) 0.90613(4)
N3A N 1.0576(3) 1.1829(9) 0.6448(7)
N5A N 1.00050(18) 1.5344(5) 0.6190(3)
Cl1 Cl 0.83113(6) 0.50380(15) 0.56066(10)
O1 O 0.8716(2) 0.4855(6) 0.5005(4)
O2 O 0.7949(2) 0.3873(6) 0.5428(5)
O3 O 0.8062(3) 0.6400(6) 0.5430(5)
O4 O 0.8534(3) 0.4902(7) 0.6513(4)
loop_
_geom_bond_atom_site_label_1
_geom_bond_atom_site_label_2
_geom_bond_site_symmetry_1
_geom_bond_site_symmetry_2
Ag1 N2 1_555 1_555
Cl1 O1 1_555 1_555
C1 H1 1_555 1_555
H2 C1 1_555 1_555
C2 C1 1_555 1_555
H3 C2 1_555 1_555
H4 C2 1_555 1_555
C3 C2 1_555 1_555
C4 H5 1_555 1_555
H6 C4 1_555 1_555
C5 C4 1_555 1_555
H7 C5 1_555 1_555
H8 C5 1_555 1_555
C6 C5 1_555 1_555
C7 H9 1_555 1_555
H10 C7 1_555 1_555
C8 C7 1_555 1_555
H11 C8 1_555 1_555
H12 C8 1_555 1_555
C9 C8 1_555 1_555
H13 C9 1_555 1_555
H14 C9 1_555 1_555
C10 H15 1_555 1_555
C11 C10 1_555 1_555
H16 C11 1_555 1_555
C12 H17 1_555 1_555
N1 C1 1_555 1_555
N2 C3 1_555 1_555
N3 C6 1_555 1_555
N4 C9 1_555 1_555
N5 C11 1_555 1_555
O2 Cl1 1_555 1_555
O3 Cl1 1_555 1_555
O4 Cl1 1_555 1_555
Ag1A N3 1_555 1_555
Ag1A_2 N5 1_555 1_555
N3A Ag1 1_555 1_555
N5A Ag1 1_555 1_555
C4 N1 1_555 1_555
C7 N1 1_555 1_555
C10 N4 1_555 1_555
C12 N4 1_555 1_555
C12 N5 1_555 1_555

#END
