
#######################################################################
#
#                 Cambridge Crystallographic Data Centre
#                                CCDC 
#
#######################################################################
#
# If this CIF has been generated from an entry in the Cambridge 
# Structural Database, then it will include bibliographic, chemical, 
# crystal, experimental, refinement or atomic coordinate data resulting 
# from the CCDC's data processing and validation procedures.
#
#######################################################################

data_KAPGIT
_symmetry_cell_setting           monoclinic
_symmetry_space_group_name_H-M   'C 2/c'
_symmetry_Int_Tables_number      15
_space_group_name_Hall           '-C 2yn'
loop_
_symmetry_equiv_pos_site_id
_symmetry_equiv_pos_as_xyz
1 x,y,z
2 -x,y,1/2-z
3 1/2+x,1/2+y,z
4 1/2-x,1/2+y,1/2-z
5 -x,-y,-z
6 x,-y,1/2+z
7 1/2-x,1/2-y,-z
8 1/2+x,1/2-y,1/2+z
_cell_length_a                   15.737(3)
_cell_length_b                   19.923(4)
_cell_length_c                   37.805(8)
_cell_angle_alpha                90
_cell_angle_beta                 101.69(3)
_cell_angle_gamma                90
_cell_volume                     11607.1
loop_
_atom_site_label
_atom_site_type_symbol
_atom_site_fract_x
_atom_site_fract_y
_atom_site_fract_z
K1 K 0.1493(4) -0.1454(3) 0.18188(13)
Na1 Na 0.2547(7) 0.1606(4) 0.2209(2)
Na2 Na 0.6202(7) -0.1435(4) 0.3497(2)
O41 O 0.2483(15) -0.0349(8) 0.2125(4)
O42 O 0.5620(15) -0.2714(7) 0.3573(5)
O43 O 0.8310(13) 0.6599(8) 0.0863(4)
O44 O 0.0929(9) 0.2011(5) 0.1942(3)
O46 O 0.4879(12) 0.0990(7) 0.1114(4)
O47 O 0.2730(10) 0.1429(8) 0.1481(3)
O49 O 0.6896(12) -0.2154(7) 0.3012(4)
O50 O 0.7875(14) -0.1649(8) 0.3800(4)
O51 O 0.4295(16) 0.9969(10) 0.0557(4)
O52 O 0.4237(19) 0.0653(12) 0.1638(6)
O53 O 0.745(2) 0.5846(14) 0.0263(7)
O55 O 0.189(2) 0.0269(15) 0.0952(7)
O56 O 0.645(3) -0.0294(17) 0.3853(8)
O57 O 0.885(3) 0.1961(16) 0.3787(8)
Ge1 Ge 0.17671(18) -0.04458(10) 0.35503(5)
W1 W 0.09717(7) 0.06648(4) 0.41732(2)
W2 W -0.03239(7) 0.02718(4) 0.336455(19)
W3 W 0.13488(7) 0.08255(4) 0.28885(2)
W4 W 0.23480(7) -0.15337(4) 0.29194(2)
W5 W 0.26936(7) 0.12238(4) 0.36907(2)
W6 W 0.08451(7) -0.20363(4) 0.33530(2)
W7 W 0.33616(7) 0.01789(4) 0.31086(2)
W8 W 0.01687(7) -0.08806(4) 0.403145(19)
W9 W 0.31752(8) -0.00944(4) 0.44040(2)
W10 W 0.23407(8) -0.16466(4) 0.42473(2)
W11 W 0.38630(8) -0.11288(5) 0.38141(2)
La1 La 0.0000 -0.08999(8) 0.2500
Cu1 Cu 0.0667(2) 0.11878(12) 0.50972(6)
N1 N 0.0243(13) 0.2106(8) 0.5119(4)
N2 N 0.1801(15) 0.1587(8) 0.5268(5)
C1 C -0.0465(15) 0.0131(10) 0.4913(5)
C2 C -0.0546(16) 0.2321(10) 0.5032(5)
H1 H -0.0982 0.2028 0.4924
C3 C -0.0104(18) 0.3438(12) 0.5213(6)
H2 H -0.0241 0.3887 0.5238
C4 C -0.076(2) 0.2987(12) 0.5095(6)
H3 H -0.1334 0.3122 0.5057
C5 C 0.0742(17) 0.3241(11) 0.5293(5)
H4 H 0.1187 0.3545 0.5374
C6 C 0.0912(15) 0.2561(10) 0.5249(5)
C7 C 0.1771(16) 0.2270(9) 0.5329(5)
C8 C 0.3320(16) 0.2287(10) 0.5535(5)
H5 H 0.3825 0.2522 0.5631
C9 C 0.2569(17) 0.1282(11) 0.5330(6)
H6 H 0.2584 0.0824 0.5283
C10 C 0.3351(17) 0.1608(10) 0.5463(5)
H7 H 0.3875 0.1377 0.5501
C11 C 0.2554(18) 0.2599(12) 0.5465(6)
H8 H 0.2540 0.3058 0.5508
O1 O 0.0984(10) 0.1440(6) 0.2565(3)
O2 O 0.1980(11) 0.1506(7) 0.3262(3)
O3 O 0.0979(10) 0.0066(6) 0.2684(3)
O4 O -0.0671(10) -0.0361(6) 0.3703(3)
O5 O 0.0101(10) -0.1882(7) 0.2940(3)
O6 O 0.0014(10) 0.0867(6) 0.3819(3)
O7 O 0.0474(11) 0.0819(6) 0.3179(3)
O8 O 0.2855(11) -0.0634(6) 0.2910(3)
O9 O 0.1814(10) -0.2011(6) 0.3818(3)
O10 O 0.3234(11) 0.0610(7) 0.4064(4)
O11 O 0.0868(13) 0.1236(7) 0.4509(3)
O12 O -0.0317(11) -0.0387(7) 0.3055(3)
O13 O 0.1517(10) -0.1354(6) 0.2545(3)
O14 O 0.3213(12) -0.1522(7) 0.3418(4)
O15 O 0.2587(11) -0.0726(7) 0.3904(3)
O16 O 0.1464(10) -0.1082(6) 0.3242(3)
O17 O 0.0918(12) -0.0166(7) 0.3725(3)
O18 O 0.0246(10) -0.1497(7) 0.3655(3)
O19 O 0.0371(11) -0.0097(6) 0.4330(3)
O20 O -0.0543(11) -0.1283(7) 0.4259(3)
O21 O 0.1702(11) 0.1137(7) 0.3914(3)
O22 O 0.2022(11) 0.0211(7) 0.4385(3)
O23 O 0.3139(12) 0.1971(7) 0.3863(3)
O24 O 0.2522(11) 0.0697(7) 0.2792(3)
O25 O 0.2161(10) 0.0262(7) 0.3366(3)
O26 O 0.3732(12) 0.0258(7) 0.4802(4)
O27 O 0.4215(13) 0.0271(8) 0.2896(4)
O28 O -0.1313(11) 0.0659(7) 0.3204(3)
O29 O 0.2885(11) -0.0931(7) 0.4578(3)
O30 O 0.3881(11) -0.0335(7) 0.3524(4)
O31 O 0.1254(10) -0.1207(7) 0.4270(3)
O32 O 0.4886(14) -0.1444(8) 0.3830(4)
O33 O 0.4095(13) -0.0531(7) 0.4240(4)
O34 O 0.3565(11) 0.0965(7) 0.3412(3)
O35 O 0.3075(13) -0.2015(7) 0.2731(4)
O36 O 0.0520(11) -0.2826(7) 0.3444(4)
O37 O 0.2348(14) -0.2292(8) 0.4546(3)
O38 O 0.1790(13) -0.2289(7) 0.3115(3)
O39 O -0.0490(11) 0.0795(7) 0.4910(4)
O40 O 0.1076(11) 0.0245(7) 0.5178(4)
O48 O 0.3439(12) -0.1755(7) 0.4135(3)
Ge1A Ge -0.17671(18) -0.04458(10) 0.14497(5)
Ge1D Ge -0.17671(18) 0.04458(10) 0.64497(5)
Ge1E Ge 0.17671(18) 0.04458(10) 0.85503(5)
Ge1A_2 Ge -0.17671(18) -0.04458(10) 1.14497(5)
W1A W -0.09717(7) 0.06648(4) 0.08268(2)
W1D W -0.09717(7) -0.06648(4) 0.58268(2)
W1E W 0.09717(7) -0.06648(4) 0.91732(2)
W1A_2 W -0.09717(7) 0.06648(4) 1.08268(2)
W2A W 0.03239(7) 0.02718(4) 0.163545(19)
W2D W 0.03239(7) -0.02718(4) 0.663545(19)
W2E W -0.03239(7) -0.02718(4) 0.836455(19)
W2A_2 W 0.03239(7) 0.02718(4) 1.163545(19)
W3A W -0.13488(7) 0.08255(4) 0.21115(2)
W3D W -0.13488(7) -0.08255(4) 0.71115(2)
W3E W 0.13488(7) -0.08255(4) 0.78885(2)
W3A_2 W -0.13488(7) 0.08255(4) 1.21115(2)
W4A W -0.23480(7) -0.15337(4) 0.20806(2)
W4E W 0.23480(7) 0.15337(4) 0.79194(2)
W4D W -0.23480(7) 0.15337(4) 0.70806(2)
W4A_2 W -0.23480(7) -0.15337(4) 1.20806(2)
W5A W -0.26936(7) 0.12238(4) 0.13093(2)
W5D W -0.26936(7) -0.12238(4) 0.63093(2)
W5E W 0.26936(7) -0.12238(4) 0.86907(2)
W5A_2 W -0.26936(7) 0.12238(4) 1.13093(2)
W6A W -0.08451(7) -0.20363(4) 0.16470(2)
W6D W -0.08451(7) 0.20363(4) 0.66470(2)
W6E W 0.08451(7) 0.20363(4) 0.83530(2)
W6A_2 W -0.08451(7) -0.20363(4) 1.16470(2)
W7A W -0.33616(7) 0.01789(4) 0.18914(2)
W7E W 0.33616(7) -0.01789(4) 0.81086(2)
W7D W -0.33616(7) -0.01789(4) 0.68914(2)
W7A_2 W -0.33616(7) 0.01789(4) 1.18914(2)
W8A W -0.01687(7) -0.08806(4) 0.096855(19)
W8D W -0.01687(7) 0.08806(4) 0.596855(19)
W8E W 0.01687(7) 0.08806(4) 0.903145(19)
W8A_2 W -0.01687(7) -0.08806(4) 1.096855(19)
W9A W -0.31752(8) -0.00944(4) 0.05960(2)
W9D W -0.31752(8) 0.00944(4) 0.55960(2)
W9E W 0.31752(8) 0.00944(4) 0.94040(2)
W9A_2 W -0.31752(8) -0.00944(4) 1.05960(2)
W10A W -0.23407(8) -0.16466(4) 0.07527(2)
W10D W -0.23407(8) 0.16466(4) 0.57527(2)
W10E W 0.23407(8) 0.16466(4) 0.92473(2)
W10A_2 W -0.23407(8) -0.16466(4) 1.07527(2)
W11A W -0.38630(8) -0.11288(5) 0.11859(2)
W11D W -0.38630(8) 0.11288(5) 0.61859(2)
W11E W 0.38630(8) 0.11288(5) 0.88141(2)
W11A_2 W -0.38630(8) -0.11288(5) 1.11859(2)
La1D La 0.0000 0.08999(8) 0.7500
La1_2 La 0.0000 -0.08999(8) 1.2500
Cu1D Cu -0.0667(2) -0.11878(12) 0.49028(6)
Cu1E Cu 0.0667(2) -0.11878(12) 1.00972(6)
Cu1A Cu -0.0667(2) 0.11878(12) 0.99028(6)
Cu1A_2 Cu -0.0667(2) 0.11878(12) -0.00972(6)
N1D N -0.0243(13) -0.2106(8) 0.4881(4)
N1E N 0.0243(13) -0.2106(8) 1.0119(4)
N1A N -0.0243(13) 0.2106(8) 0.9881(4)
N1A_2 N -0.0243(13) 0.2106(8) -0.0119(4)
N2D N -0.1801(15) -0.1587(8) 0.4732(5)
N2E N 0.1801(15) -0.1587(8) 1.0268(5)
N2A N -0.1801(15) 0.1587(8) 0.9732(5)
N2A_2 N -0.1801(15) 0.1587(8) -0.0268(5)
C1D C 0.0465(15) -0.0131(10) 0.5087(5)
C1E C -0.0465(15) -0.0131(10) 0.9913(5)
C1A C 0.0465(15) 0.0131(10) 1.0087(5)
C2D C 0.0546(16) -0.2321(10) 0.4968(5)
C2E C -0.0546(16) -0.2321(10) 1.0032(5)
C2A C 0.0546(16) 0.2321(10) 0.9968(5)
H1D H 0.0982 -0.2028 0.5076
H1E H -0.0982 -0.2028 0.9924
H1A H 0.0982 0.2028 1.0076
C3D C 0.0104(18) -0.3438(12) 0.4787(6)
C3E C -0.0104(18) -0.3438(12) 1.0213(6)
C3A C 0.0104(18) 0.3438(12) 0.9787(6)
H2D H 0.0241 -0.3887 0.4762
H2E H -0.0241 -0.3887 1.0238
H2A H 0.0241 0.3887 0.9762
C4D C 0.076(2) -0.2987(12) 0.4905(6)
C4E C -0.076(2) -0.2987(12) 1.0095(6)
C4A C 0.076(2) 0.2987(12) 0.9905(6)
H3A H 0.1334 0.3122 0.9943
H3E H -0.1334 -0.3122 1.0057
H3D H 0.1334 -0.3122 0.4943
C5D C -0.0742(17) -0.3241(11) 0.4707(5)
C5E C 0.0742(17) -0.3241(11) 1.0293(5)
C5A C -0.0742(17) 0.3241(11) 0.9707(5)
H4D H -0.1187 -0.3545 0.4626
H4E H 0.1187 -0.3545 1.0374
H4A H -0.1187 0.3545 0.9626
C6D C -0.0912(15) -0.2561(10) 0.4751(5)
C6E C 0.0912(15) -0.2561(10) 1.0249(5)
C6A C -0.0912(15) 0.2561(10) 0.9751(5)
C7D C -0.1771(16) -0.2270(9) 0.4671(5)
C7E C 0.1771(16) -0.2270(9) 1.0329(5)
C7A C -0.1771(16) 0.2270(9) 0.9671(5)
C8A C -0.3320(16) 0.2287(10) 0.9465(5)
C8E C 0.3320(16) -0.2287(10) 1.0535(5)
C8D C -0.3320(16) -0.2287(10) 0.4465(5)
H5A H -0.3825 0.2522 0.9369
H5E H 0.3825 -0.2522 1.0631
H5D H -0.3825 -0.2522 0.4369
C9A C -0.2569(17) 0.1282(11) 0.9670(6)
C9E C 0.2569(17) -0.1282(11) 1.0330(6)
C9D C -0.2569(17) -0.1282(11) 0.4670(6)
H6A H -0.2584 0.0824 0.9717
H6E H 0.2584 -0.0824 1.0283
H6D H -0.2584 -0.0824 0.4717
C10A C -0.3351(17) 0.1608(10) 0.9537(5)
C10E C 0.3351(17) -0.1608(10) 1.0463(5)
C10D C -0.3351(17) -0.1608(10) 0.4537(5)
H7A H -0.3875 0.1377 0.9499
H7E H 0.3875 -0.1377 1.0501
H7D H -0.3875 -0.1377 0.4499
C11A C -0.2554(18) 0.2599(12) 0.9535(6)
C11E C 0.2554(18) -0.2599(12) 1.0465(6)
C11D C -0.2554(18) -0.2599(12) 0.4535(6)
H8A H -0.2540 0.3058 0.9492
H8E H 0.2540 -0.3058 1.0508
H8D H -0.2540 -0.3058 0.4492
O1A O -0.0984(10) 0.1440(6) 0.2435(3)
O1D O -0.0984(10) -0.1440(6) 0.7435(3)
O1E O 0.0984(10) -0.1440(6) 0.7565(3)
O1A_2 O -0.0984(10) 0.1440(6) 1.2435(3)
O2A O -0.1980(11) 0.1506(7) 0.1738(3)
O2D O -0.1980(11) -0.1506(7) 0.6738(3)
O2E O 0.1980(11) -0.1506(7) 0.8262(3)
O2A_2 O -0.1980(11) 0.1506(7) 1.1738(3)
O3A O -0.0979(10) 0.0066(6) 0.2316(3)
O3D O -0.0979(10) -0.0066(6) 0.7316(3)
O3E O 0.0979(10) -0.0066(6) 0.7684(3)
O3A_2 O -0.0979(10) 0.0066(6) 1.2316(3)
O3_2 O 0.0979(10) 0.0066(6) 1.2684(3)
O4A O 0.0671(10) -0.0361(6) 0.1297(3)
O4D O 0.0671(10) 0.0361(6) 0.6297(3)
O4E O -0.0671(10) 0.0361(6) 0.8703(3)
O4A_2 O 0.0671(10) -0.0361(6) 1.1297(3)
O5A O -0.0101(10) -0.1882(7) 0.2060(3)
O5D O -0.0101(10) 0.1882(7) 0.7060(3)
O5E O 0.0101(10) 0.1882(7) 0.7940(3)
O5A_2 O -0.0101(10) -0.1882(7) 1.2060(3)
O5_2 O 0.0101(10) -0.1882(7) 1.2940(3)
O6A O -0.0014(10) 0.0867(6) 0.1181(3)
O6D O -0.0014(10) -0.0867(6) 0.6181(3)
O6E O 0.0014(10) -0.0867(6) 0.8819(3)
O6A_2 O -0.0014(10) 0.0867(6) 1.1181(3)
O7A O -0.0474(11) 0.0819(6) 0.1821(3)
O7E O 0.0474(11) -0.0819(6) 0.8179(3)
O7D O -0.0474(11) -0.0819(6) 0.6821(3)
O7A_2 O -0.0474(11) 0.0819(6) 1.1821(3)
O8A O -0.2855(11) -0.0634(6) 0.2090(3)
O8E O 0.2855(11) 0.0634(6) 0.7910(3)
O8D O -0.2855(11) 0.0634(6) 0.7090(3)
O8A_2 O -0.2855(11) -0.0634(6) 1.2090(3)
O9A O -0.1814(10) -0.2011(6) 0.1182(3)
O9D O -0.1814(10) 0.2011(6) 0.6182(3)
O9E O 0.1814(10) 0.2011(6) 0.8818(3)
O9A_2 O -0.1814(10) -0.2011(6) 1.1182(3)
O10A O -0.3234(11) 0.0610(7) 0.0936(4)
O10D O -0.3234(11) -0.0610(7) 0.5936(4)
O10E O 0.3234(11) -0.0610(7) 0.9064(4)
O10A_2 O -0.3234(11) 0.0610(7) 1.0936(4)
O11D O -0.0868(13) -0.1236(7) 0.5491(3)
O11E O 0.0868(13) -0.1236(7) 0.9509(3)
O11A O -0.0868(13) 0.1236(7) 1.0491(3)
O11A_2 O -0.0868(13) 0.1236(7) 0.0491(3)
O12A O 0.0317(11) -0.0387(7) 0.1945(3)
O12E O -0.0317(11) 0.0387(7) 0.8055(3)
O12D O 0.0317(11) 0.0387(7) 0.6945(3)
O12A_2 O 0.0317(11) -0.0387(7) 1.1945(3)
O12_2 O -0.0317(11) -0.0387(7) 1.3055(3)
O13A O -0.1517(10) -0.1354(6) 0.2455(3)
O13E O 0.1517(10) 0.1354(6) 0.7545(3)
O13D O -0.1517(10) 0.1354(6) 0.7455(3)
O13A_2 O -0.1517(10) -0.1354(6) 1.2455(3)
O13_2 O 0.1517(10) -0.1354(6) 1.2545(3)
O14A O -0.3213(12) -0.1522(7) 0.1582(4)
O14D O -0.3213(12) 0.1522(7) 0.6582(4)
O14E O 0.3213(12) 0.1522(7) 0.8418(4)
O14A_2 O -0.3213(12) -0.1522(7) 1.1582(4)
O15A O -0.2587(11) -0.0726(7) 0.1096(3)
O15D O -0.2587(11) 0.0726(7) 0.6096(3)
O15E O 0.2587(11) 0.0726(7) 0.8904(3)
O15A_2 O -0.2587(11) -0.0726(7) 1.1096(3)
O16A O -0.1464(10) -0.1082(6) 0.1758(3)
O16E O 0.1464(10) 0.1082(6) 0.8242(3)
O16D O -0.1464(10) 0.1082(6) 0.6758(3)
O16A_2 O -0.1464(10) -0.1082(6) 1.1758(3)
O17A O -0.0918(12) -0.0166(7) 0.1275(3)
O17D O -0.0918(12) 0.0166(7) 0.6275(3)
O17E O 0.0918(12) 0.0166(7) 0.8725(3)
O17A_2 O -0.0918(12) -0.0166(7) 1.1275(3)
O18D O -0.0246(10) 0.1497(7) 0.6345(3)
O18E O 0.0246(10) 0.1497(7) 0.8655(3)
O18A O -0.0246(10) -0.1497(7) 1.1345(3)
O18A_2 O -0.0246(10) -0.1497(7) 0.1345(3)
O19D O -0.0371(11) 0.0097(6) 0.5670(3)
O19E O 0.0371(11) 0.0097(6) 0.9330(3)
O19A O -0.0371(11) -0.0097(6) 1.0670(3)
O19A_2 O -0.0371(11) -0.0097(6) 0.0670(3)
O20D O 0.0543(11) 0.1283(7) 0.5741(3)
O20A O 0.0543(11) -0.1283(7) 1.0741(3)
O20E O -0.0543(11) 0.1283(7) 0.9259(3)
O20A_2 O 0.0543(11) -0.1283(7) 0.0741(3)
O21A O -0.1702(11) 0.1137(7) 0.1086(3)
O21E O 0.1702(11) -0.1137(7) 0.8914(3)
O21D O -0.1702(11) -0.1137(7) 0.6086(3)
O21A_2 O -0.1702(11) 0.1137(7) 1.1086(3)
O22D O -0.2022(11) -0.0211(7) 0.5615(3)
O22A O -0.2022(11) 0.0211(7) 1.0615(3)
O22E O 0.2022(11) -0.0211(7) 0.9385(3)
O22A_2 O -0.2022(11) 0.0211(7) 0.0615(3)
O23D O -0.3139(12) -0.1971(7) 0.6137(3)
O23A O -0.3139(12) 0.1971(7) 1.1137(3)
O23E O 0.3139(12) -0.1971(7) 0.8863(3)
O23A_2 O -0.3139(12) 0.1971(7) 0.1137(3)
O24A O -0.2522(11) 0.0697(7) 0.2208(3)
O24E O 0.2522(11) -0.0697(7) 0.7792(3)
O24D O -0.2522(11) -0.0697(7) 0.7208(3)
O24A_2 O -0.2522(11) 0.0697(7) 1.2208(3)
O25A O -0.2161(10) 0.0262(7) 0.1634(3)
O25E O 0.2161(10) -0.0262(7) 0.8366(3)
O25D O -0.2161(10) -0.0262(7) 0.6634(3)
O25A_2 O -0.2161(10) 0.0262(7) 1.1634(3)
O26D O -0.3732(12) -0.0258(7) 0.5198(4)
O26A O -0.3732(12) 0.0258(7) 1.0198(4)
O26E O 0.3732(12) -0.0258(7) 0.9802(4)
O26A_2 O -0.3732(12) 0.0258(7) 0.0198(4)
O27D O -0.4215(13) -0.0271(8) 0.7104(4)
O27A O -0.4215(13) 0.0271(8) 1.2104(4)
O27E O 0.4215(13) -0.0271(8) 0.7896(4)
O27A_2 O -0.4215(13) 0.0271(8) 0.2104(4)
O28D O 0.1313(11) -0.0659(7) 0.6796(3)
O28A O 0.1313(11) 0.0659(7) 1.1796(3)
O28E O -0.1313(11) -0.0659(7) 0.8204(3)
O28A_2 O 0.1313(11) 0.0659(7) 0.1796(3)
O29D O -0.2885(11) 0.0931(7) 0.5422(3)
O29A O -0.2885(11) -0.0931(7) 1.0422(3)
O29E O 0.2885(11) 0.0931(7) 0.9578(3)
O29A_2 O -0.2885(11) -0.0931(7) 0.0422(3)
O30D O -0.3881(11) 0.0335(7) 0.6476(4)
O30A O -0.3881(11) -0.0335(7) 1.1476(4)
O30E O 0.3881(11) 0.0335(7) 0.8524(4)
O30A_2 O -0.3881(11) -0.0335(7) 0.1476(4)
O31D O -0.1254(10) 0.1207(7) 0.5730(3)
O31A O -0.1254(10) -0.1207(7) 1.0730(3)
O31E O 0.1254(10) 0.1207(7) 0.9270(3)
O31A_2 O -0.1254(10) -0.1207(7) 0.0730(3)
O32D O -0.4886(14) 0.1444(8) 0.6170(4)
O32A O -0.4886(14) -0.1444(8) 1.1170(4)
O32E O 0.4886(14) 0.1444(8) 0.8830(4)
O32A_2 O -0.4886(14) -0.1444(8) 0.1170(4)
O33D O -0.4095(13) 0.0531(7) 0.5760(4)
O33A O -0.4095(13) -0.0531(7) 1.0760(4)
O33E O 0.4095(13) 0.0531(7) 0.9240(4)
O33A_2 O -0.4095(13) -0.0531(7) 0.0760(4)
O34D O -0.3565(11) -0.0965(7) 0.6588(3)
O34A O -0.3565(11) 0.0965(7) 1.1588(3)
O34E O 0.3565(11) -0.0965(7) 0.8412(3)
O34A_2 O -0.3565(11) 0.0965(7) 0.1588(3)
O35D O -0.3075(13) 0.2015(7) 0.7269(4)
O35E O 0.3075(13) 0.2015(7) 0.7731(4)
O35A O -0.3075(13) -0.2015(7) 1.2269(4)
O35A_2 O -0.3075(13) -0.2015(7) 0.2269(4)
O36D O -0.0520(11) 0.2826(7) 0.6556(4)
O36A O -0.0520(11) -0.2826(7) 1.1556(4)
O36E O 0.0520(11) 0.2826(7) 0.8444(4)
O36A_2 O -0.0520(11) -0.2826(7) 0.1556(4)
O37D O -0.2348(14) 0.2292(8) 0.5454(3)
O37A O -0.2348(14) -0.2292(8) 1.0454(3)
O37E O 0.2348(14) 0.2292(8) 0.9546(3)
O37A_2 O -0.2348(14) -0.2292(8) 0.0454(3)
O38D O -0.1790(13) 0.2289(7) 0.6885(3)
O38E O 0.1790(13) 0.2289(7) 0.8115(3)
O38A O -0.1790(13) -0.2289(7) 1.1885(3)
O38A_2 O -0.1790(13) -0.2289(7) 0.1885(3)
O39D O 0.0490(11) -0.0795(7) 0.5090(4)
O39E O -0.0490(11) -0.0795(7) 0.9910(4)
O39A O 0.0490(11) 0.0795(7) 1.0090(4)
O39A_2 O 0.0490(11) 0.0795(7) 0.0090(4)
O40A O -0.1076(11) 0.0245(7) 0.9822(4)
O40E O 0.1076(11) -0.0245(7) 1.0178(4)
O40D O -0.1076(11) -0.0245(7) 0.4822(4)
O40A_2 O -0.1076(11) 0.0245(7) -0.0178(4)
O48D O -0.3439(12) 0.1755(7) 0.5865(3)
O48A O -0.3439(12) -0.1755(7) 1.0865(3)
O48E O 0.3439(12) 0.1755(7) 0.9135(3)
O48A_2 O -0.3439(12) -0.1755(7) 0.0865(3)
O45? O 0.0134(11) 0.2377(7) 0.2126(4)
O54? O 0.530(2) 0.1214(14) 0.2563(8)
O58? O 0.954(4) 0.218(2) 0.4121(11)
loop_
_geom_bond_atom_site_label_1
_geom_bond_atom_site_label_2
_geom_bond_site_symmetry_1
_geom_bond_site_symmetry_2
Ge1 O15 1_555 1_555
W1 O6 1_555 1_555
W2 O4 1_555 1_555
W3 O1 1_555 1_555
W4 O8 1_555 1_555
W5 O2 1_555 1_555
W6 O5 1_555 1_555
W7 O8 1_555 1_555
W8 O4 1_555 1_555
W9 O10 1_555 1_555
W10 O9 1_555 1_555
W11 O14 1_555 1_555
La1 O3 1_555 1_555
Cu1 N1 1_555 1_555
N1 C2 1_555 1_555
N2 Cu1 1_555 1_555
C1 O39 1_555 1_555
C2 H1 1_555 1_555
C3 H2 1_555 1_555
C4 C2 1_555 1_555
H3 C4 1_555 1_555
C5 C3 1_555 1_555
H4 C5 1_555 1_555
C6 N1 1_555 1_555
C7 N2 1_555 1_555
C8 H5 1_555 1_555
C9 N2 1_555 1_555
H6 C9 1_555 1_555
C10 C8 1_555 1_555
H7 C10 1_555 1_555
C11 C7 1_555 1_555
H8 C11 1_555 1_555
O2 W3 1_555 1_555
O3 W3 1_555 1_555
O5 La1 1_555 1_555
O6 W2 1_555 1_555
O7 W2 1_555 1_555
O9 W6 1_555 1_555
O10 W5 1_555 1_555
O11 W1 1_555 1_555
O12 W2 1_555 1_555
O13 W4 1_555 1_555
O14 W4 1_555 1_555
O15 W9 1_555 1_555
O16 Ge1 1_555 1_555
O17 Ge1 1_555 1_555
O18 W6 1_555 1_555
O19 W1 1_555 1_555
O20 W8 1_555 1_555
O21 W1 1_555 1_555
O22 W1 1_555 1_555
O23 W5 1_555 1_555
O24 W3 1_555 1_555
O25 Ge1 1_555 1_555
O26 W9 1_555 1_555
O27 W7 1_555 1_555
O28 W2 1_555 1_555
O29 W9 1_555 1_555
O30 W7 1_555 1_555
O31 W8 1_555 1_555
O32 W11 1_555 1_555
O33 W9 1_555 1_555
O34 W5 1_555 1_555
O35 W4 1_555 1_555
O36 W6 1_555 1_555
O37 W10 1_555 1_555
O38 W4 1_555 1_555
O39 Cu1 1_555 1_555
O40 Cu1 1_555 1_555
O48 W10 1_555 1_555
Ge1A O15A 1_555 1_555
Ge1D O15D 1_555 1_555
Ge1E O15E 1_555 1_555
Ge1A_2 O15A_2 1_555 1_555
W1A O6A 1_555 1_555
W1D O6D 1_555 1_555
W1E O6E 1_555 1_555
W1A_2 O6A_2 1_555 1_555
W2A O4A 1_555 1_555
W2D O4D 1_555 1_555
W2E O4E 1_555 1_555
W2A_2 O4A_2 1_555 1_555
W3A O1A 1_555 1_555
W3D O1D 1_555 1_555
W3E O1E 1_555 1_555
W3A_2 O1A_2 1_555 1_555
W4A O8A 1_555 1_555
W4E O8E 1_555 1_555
W4D O8D 1_555 1_555
W4A_2 O8A_2 1_555 1_555
W5A O2A 1_555 1_555
W5D O2D 1_555 1_555
W5E O2E 1_555 1_555
W5A_2 O2A_2 1_555 1_555
W6A O5A 1_555 1_555
W6D O5D 1_555 1_555
W6E O5E 1_555 1_555
W6A_2 O5A_2 1_555 1_555
W7A O8A 1_555 1_555
W7E O8E 1_555 1_555
W7D O8D 1_555 1_555
W7A_2 O8A_2 1_555 1_555
W8A O4A 1_555 1_555
W8D O4D 1_555 1_555
W8E O4E 1_555 1_555
W8A_2 O4A_2 1_555 1_555
W9A O10A 1_555 1_555
W9D O10D 1_555 1_555
W9E O10E 1_555 1_555
W9A_2 O10A_2 1_555 1_555
W10A O9A 1_555 1_555
W10D O9D 1_555 1_555
W10E O9E 1_555 1_555
W10A_2 O9A_2 1_555 1_555
W11A O14A 1_555 1_555
W11D O14D 1_555 1_555
W11E O14E 1_555 1_555
W11A_2 O14A_2 1_555 1_555
La1D O3D 1_555 1_555
La1_2 O3A_2 1_555 1_555
Cu1D N1D 1_555 1_555
Cu1E N1E 1_555 1_555
Cu1A N1A 1_555 1_555
Cu1A_2 N1A_2 1_555 1_555
N1D C2D 1_555 1_555
N1E C2E 1_555 1_555
N1A C2A 1_555 1_555
N2D Cu1D 1_555 1_555
N2E Cu1E 1_555 1_555
N2A Cu1A 1_555 1_555
N2A_2 Cu1A_2 1_555 1_555
C1D C1 1_555 1_555
C1E C1A 1_555 1_555
C1A O39A 1_555 1_555
C2D H1D 1_555 1_555
C2E H1E 1_555 1_555
C2A H1A 1_555 1_555
C3D H2D 1_555 1_555
C3E H2E 1_555 1_555
C3A H2A 1_555 1_555
C4D C2D 1_555 1_555
C4E C2E 1_555 1_555
C4A C2A 1_555 1_555
H3A C4A 1_555 1_555
H3E C4E 1_555 1_555
H3D C4D 1_555 1_555
C5D C3D 1_555 1_555
C5E C3E 1_555 1_555
C5A C3A 1_555 1_555
H4D C5D 1_555 1_555
H4E C5E 1_555 1_555
H4A C5A 1_555 1_555
C6D N1D 1_555 1_555
C6E N1E 1_555 1_555
C6A N1A 1_555 1_555
C7D N2D 1_555 1_555
C7E N2E 1_555 1_555
C7A N2A 1_555 1_555
C8A H5A 1_555 1_555
C8E H5E 1_555 1_555
C8D H5D 1_555 1_555
C9A N2A 1_555 1_555
C9E N2E 1_555 1_555
C9D N2D 1_555 1_555
H6A C9A 1_555 1_555
H6E C9E 1_555 1_555
H6D C9D 1_555 1_555
C10A C8A 1_555 1_555
C10E C8E 1_555 1_555
C10D C8D 1_555 1_555
H7A C10A 1_555 1_555
H7E C10E 1_555 1_555
H7D C10D 1_555 1_555
C11A C7A 1_555 1_555
C11E C7E 1_555 1_555
C11D C7D 1_555 1_555
H8A C11A 1_555 1_555
H8E C11E 1_555 1_555
H8D C11D 1_555 1_555
O2A W3A 1_555 1_555
O2D W3D 1_555 1_555
O2E W3E 1_555 1_555
O2A_2 W3A_2 1_555 1_555
O3A La1 1_555 1_555
O3D W3D 1_555 1_555
O3E W3E 1_555 1_555
O3A_2 W3A_2 1_555 1_555
O3_2 La1_2 1_555 1_555
O5A La1 1_555 1_555
O5D La1D 1_555 1_555
O5E La1D 1_555 1_555
O5A_2 La1_2 1_555 1_555
O5_2 La1_2 1_555 1_555
O6A W2A 1_555 1_555
O6D W2D 1_555 1_555
O6E W2E 1_555 1_555
O6A_2 W2A_2 1_555 1_555
O7A W2A 1_555 1_555
O7E W2E 1_555 1_555
O7D W2D 1_555 1_555
O7A_2 W2A_2 1_555 1_555
O9A W6A 1_555 1_555
O9D W6D 1_555 1_555
O9E W6E 1_555 1_555
O9A_2 W6A_2 1_555 1_555
O10A W5A 1_555 1_555
O10D W5D 1_555 1_555
O10E W5E 1_555 1_555
O10A_2 W5A_2 1_555 1_555
O11D W1D 1_555 1_555
O11E W1E 1_555 1_555
O11A W1A_2 1_555 1_555
O11A_2 W1A 1_555 1_555
O12A La1 1_555 1_555
O12E W2E 1_555 1_555
O12D W2D 1_555 1_555
O12A_2 W2A_2 1_555 1_555
O12_2 La1_2 1_555 1_555
O13A La1 1_555 1_555
O13E W4E 1_555 1_555
O13D W4D 1_555 1_555
O13A_2 W4A_2 1_555 1_555
O13_2 La1_2 1_555 1_555
O14A W4A 1_555 1_555
O14D W4D 1_555 1_555
O14E W4E 1_555 1_555
O14A_2 W4A_2 1_555 1_555
O15A W9A 1_555 1_555
O15D W9D 1_555 1_555
O15E W9E 1_555 1_555
O15A_2 W9A_2 1_555 1_555
O16A Ge1A 1_555 1_555
O16E Ge1E 1_555 1_555
O16D Ge1D 1_555 1_555
O16A_2 Ge1A_2 1_555 1_555
O17A Ge1A 1_555 1_555
O17D Ge1D 1_555 1_555
O17E Ge1E 1_555 1_555
O17A_2 Ge1A_2 1_555 1_555
O18D W6D 1_555 1_555
O18E W6E 1_555 1_555
O18A W6A_2 1_555 1_555
O18A_2 W6A 1_555 1_555
O19D W1D 1_555 1_555
O19E W1E 1_555 1_555
O19A W1A_2 1_555 1_555
O19A_2 W1A 1_555 1_555
O20D W8D 1_555 1_555
O20A W8A_2 1_555 1_555
O20E W8E 1_555 1_555
O20A_2 W8A 1_555 1_555
O21A W1A 1_555 1_555
O21E W1E 1_555 1_555
O21D W1D 1_555 1_555
O21A_2 W1A_2 1_555 1_555
O22D W1D 1_555 1_555
O22A W1A_2 1_555 1_555
O22E W1E 1_555 1_555
O22A_2 W1A 1_555 1_555
O23D W5D 1_555 1_555
O23A W5A_2 1_555 1_555
O23E W5E 1_555 1_555
O23A_2 W5A 1_555 1_555
O24A W3A 1_555 1_555
O24E W3E 1_555 1_555
O24D W3D 1_555 1_555
O24A_2 W3A_2 1_555 1_555
O25A Ge1A 1_555 1_555
O25E Ge1E 1_555 1_555
O25D Ge1D 1_555 1_555
O25A_2 Ge1A_2 1_555 1_555
O26D W9D 1_555 1_555
O26A W9A_2 1_555 1_555
O26E W9E 1_555 1_555
O26A_2 W9A 1_555 1_555
O27D W7D 1_555 1_555
O27A W7A_2 1_555 1_555
O27E W7E 1_555 1_555
O27A_2 W7A 1_555 1_555
O28D W2D 1_555 1_555
O28A W2A_2 1_555 1_555
O28E W2E 1_555 1_555
O28A_2 W2A 1_555 1_555
O29D W9D 1_555 1_555
O29A W9A_2 1_555 1_555
O29E W9E 1_555 1_555
O29A_2 W9A 1_555 1_555
O30D W7D 1_555 1_555
O30A W7A_2 1_555 1_555
O30E W7E 1_555 1_555
O30A_2 W7A 1_555 1_555
O31D W8D 1_555 1_555
O31A W8A_2 1_555 1_555
O31E W8E 1_555 1_555
O31A_2 W8A 1_555 1_555
O32D W11D 1_555 1_555
O32A W11A_2 1_555 1_555
O32E W11E 1_555 1_555
O32A_2 W11A 1_555 1_555
O33D W9D 1_555 1_555
O33A W9A_2 1_555 1_555
O33E W9E 1_555 1_555
O33A_2 W9A 1_555 1_555
O34D W5D 1_555 1_555
O34A W5A_2 1_555 1_555
O34E W5E 1_555 1_555
O34A_2 W5A 1_555 1_555
O35D W4D 1_555 1_555
O35E W4E 1_555 1_555
O35A W4A_2 1_555 1_555
O35A_2 W4A 1_555 1_555
O36D W6D 1_555 1_555
O36A W6A_2 1_555 1_555
O36E W6E 1_555 1_555
O36A_2 W6A 1_555 1_555
O37D W10D 1_555 1_555
O37A W10A_2 1_555 1_555
O37E W10E 1_555 1_555
O37A_2 W10A 1_555 1_555
O38D W4D 1_555 1_555
O38E W4E 1_555 1_555
O38A W4A_2 1_555 1_555
O38A_2 W4A 1_555 1_555
O39D Cu1D 1_555 1_555
O39E Cu1E 1_555 1_555
O39A Cu1A 1_555 1_555
O39A_2 Cu1A_2 1_555 1_555
O40A Cu1A 1_555 1_555
O40E Cu1E 1_555 1_555
O40D C1 1_555 1_555
O40A_2 Cu1A_2 1_555 1_555
O48D W10D 1_555 1_555
O48A W10A_2 1_555 1_555
O48E W10E 1_555 1_555
O48A_2 W10A 1_555 1_555
W1 O17 1_555 1_555
W2 O17 1_555 1_555
W3 O7 1_555 1_555
W3 O25 1_555 1_555
W4 O16 1_555 1_555
W5 O21 1_555 1_555
W5 O25 1_555 1_555
W6 O16 1_555 1_555
W6 O38 1_555 1_555
W7 O24 1_555 1_555
W7 O25 1_555 1_555
W7 O34 1_555 1_555
W8 O17 1_555 1_555
W8 O18 1_555 1_555
W8 O19 1_555 1_555
W9 O22 1_555 1_555
W10 O15 1_555 1_555
W10 O29 1_555 1_555
W10 O31 1_555 1_555
W11 O15 1_555 1_555
W11 O30 1_555 1_555
W11 O33 1_555 1_555
W11 O48 1_555 1_555
La1 O12 1_555 1_555
La1 O13 1_555 1_555
Cu1 O11 1_555 1_555
C3 C4 1_555 1_555
C5 C6 1_555 1_555
C6 C7 1_555 1_555
C8 C11 1_555 1_555
C9 C10 1_555 1_555
O40 C1D 1_555 1_555
W1A O17A 1_555 1_555
W1D O17D 1_555 1_555
W1E O17E 1_555 1_555
W1A_2 O17A_2 1_555 1_555
W2A O12A 1_555 1_555
W2A O17A 1_555 1_555
W2D O17D 1_555 1_555
W2E O17E 1_555 1_555
W2A_2 O17A_2 1_555 1_555
W3A O3A 1_555 1_555
W3A O7A 1_555 1_555
W3A O25A 1_555 1_555
W3D O7D 1_555 1_555
W3D O25D 1_555 1_555
W3E O7E 1_555 1_555
W3E O25E 1_555 1_555
W3A_2 O7A_2 1_555 1_555
W3A_2 O25A_2 1_555 1_555
W4A O13A 1_555 1_555
W4A O16A 1_555 1_555
W4E O16E 1_555 1_555
W4D O16D 1_555 1_555
W4A_2 O16A_2 1_555 1_555
W5A O21A 1_555 1_555
W5A O25A 1_555 1_555
W5D O21D 1_555 1_555
W5D O25D 1_555 1_555
W5E O21E 1_555 1_555
W5E O25E 1_555 1_555
W5A_2 O21A_2 1_555 1_555
W5A_2 O25A_2 1_555 1_555
W6A O16A 1_555 1_555
W6A O38A_2 1_555 1_555
W6D O16D 1_555 1_555
W6D O38D 1_555 1_555
W6E O16E 1_555 1_555
W6E O38E 1_555 1_555
W6A_2 O16A_2 1_555 1_555
W6A_2 O38A 1_555 1_555
W7A O24A 1_555 1_555
W7A O25A 1_555 1_555
W7A O34A_2 1_555 1_555
W7E O24E 1_555 1_555
W7E O25E 1_555 1_555
W7E O34E 1_555 1_555
W7D O24D 1_555 1_555
W7D O25D 1_555 1_555
W7D O34D 1_555 1_555
W7A_2 O24A_2 1_555 1_555
W7A_2 O25A_2 1_555 1_555
W7A_2 O34A 1_555 1_555
W8A O17A 1_555 1_555
W8A O18A_2 1_555 1_555
W8A O19A_2 1_555 1_555
W8D O17D 1_555 1_555
W8D O18D 1_555 1_555
W8D O19D 1_555 1_555
W8E O17E 1_555 1_555
W8E O18E 1_555 1_555
W8E O19E 1_555 1_555
W8A_2 O17A_2 1_555 1_555
W8A_2 O18A 1_555 1_555
W8A_2 O19A 1_555 1_555
W9A O22A_2 1_555 1_555
W9D O22D 1_555 1_555
W9E O22E 1_555 1_555
W9A_2 O22A 1_555 1_555
W10A O15A 1_555 1_555
W10A O29A_2 1_555 1_555
W10A O31A_2 1_555 1_555
W10D O15D 1_555 1_555
W10D O29D 1_555 1_555
W10D O31D 1_555 1_555
W10E O15E 1_555 1_555
W10E O29E 1_555 1_555
W10E O31E 1_555 1_555
W10A_2 O15A_2 1_555 1_555
W10A_2 O29A 1_555 1_555
W10A_2 O31A 1_555 1_555
W11A O15A 1_555 1_555
W11A O30A_2 1_555 1_555
W11A O33A_2 1_555 1_555
W11A O48A_2 1_555 1_555
W11D O15D 1_555 1_555
W11D O30D 1_555 1_555
W11D O33D 1_555 1_555
W11D O48D 1_555 1_555
W11E O15E 1_555 1_555
W11E O30E 1_555 1_555
W11E O33E 1_555 1_555
W11E O48E 1_555 1_555
W11A_2 O15A_2 1_555 1_555
W11A_2 O30A 1_555 1_555
W11A_2 O33A 1_555 1_555
W11A_2 O48A 1_555 1_555
La1D O3E 1_555 1_555
La1D O12E 1_555 1_555
La1D O12D 1_555 1_555
La1D O13E 1_555 1_555
La1D O13D 1_555 1_555
La1_2 O12A_2 1_555 1_555
La1_2 O13A_2 1_555 1_555
Cu1D O11D 1_555 1_555
Cu1D O40D 1_555 1_555
Cu1E O11E 1_555 1_555
Cu1A O11A 1_555 1_555
Cu1A_2 O11A_2 1_555 1_555
C1D O39D 1_555 1_555
C1E O39E 1_555 1_555
C1E O40A 1_555 1_555
C1A O40E 1_555 1_555
C3D C4D 1_555 1_555
C3E C4E 1_555 1_555
C3A C4A 1_555 1_555
C5D C6D 1_555 1_555
C5E C6E 1_555 1_555
C5A C6A 1_555 1_555
C6D C7D 1_555 1_555
C6E C7E 1_555 1_555
C6A C7A 1_555 1_555
C8A C11A 1_555 1_555
C8E C11E 1_555 1_555
C8D C11D 1_555 1_555
C9A C10A 1_555 1_555
C9E C10E 1_555 1_555
C9D C10D 1_555 1_555

#END
