
#######################################################################
#
#                 Cambridge Crystallographic Data Centre
#                                CCDC 
#
#######################################################################
#
# If this CIF has been generated from an entry in the Cambridge 
# Structural Database, then it will include bibliographic, chemical, 
# crystal, experimental, refinement or atomic coordinate data resulting 
# from the CCDC's data processing and validation procedures.
#
#######################################################################

data_KAPGUE
_symmetry_cell_setting           triclinic
_symmetry_space_group_name_H-M   'P -1'
_symmetry_Int_Tables_number      2
_space_group_name_Hall           '-P 1'
loop_
_symmetry_equiv_pos_site_id
_symmetry_equiv_pos_as_xyz
1 x,y,z
2 -x,-y,-z
_cell_length_a                   8.3070(10)
_cell_length_b                   8.7690(10)
_cell_length_c                   9.2040(10)
_cell_angle_alpha                95.630(10)
_cell_angle_beta                 115.610(10)
_cell_angle_gamma                110.260(10)
_cell_volume                     542.309
loop_
_atom_site_label
_atom_site_type_symbol
_atom_site_fract_x
_atom_site_fract_y
_atom_site_fract_z
La1 La 0.07992(2) 0.00859(2) 0.269681(19)
O1 O -0.1546(3) 0.0260(3) -0.0113(3)
O2 O -0.3959(4) -0.0124(4) -0.2626(3)
O3 O -0.0939(4) -0.2988(3) 0.0939(3)
O4 O -0.0727(5) -0.4885(4) 0.2369(3)
O5 O -0.6289(4) -0.7997(3) -0.4503(3)
O6 O -0.8091(4) -0.8705(4) -0.3275(4)
O7 O 0.2606(4) 0.2964(4) 0.2436(3)
O8 O -0.0324(4) 0.2283(4) 0.3418(4)
O9 O 0.2123(4) -0.1676(3) 0.4607(3)
C1 C -0.3287(5) 0.0048(4) -0.1076(4)
C2 C -0.4534(5) 0.0012(5) -0.0334(5)
C3 C -0.1508(6) -0.4451(5) 0.1101(5)
C4 C -0.3314(6) -0.5759(5) -0.0401(5)
C5 C -0.4758(6) -0.6745(5) -0.1653(5)
C6 C -0.6509(5) -0.7899(4) -0.3249(4)
H1 H -0.095(9) 0.219(8) 0.404(8)
H2 H 0.227(10) 0.304(9) 0.163(8)
H3 H 0.169(10) -0.260(8) 0.408(8)
H4 H 0.329(10) -0.133(8) 0.521(8)
H5 H 0.430(10) 0.349(8) 0.311(8)
H6 H -0.035(10) 0.313(9) 0.313(8)
La1A La -1.07992(2) -0.00859(2) -0.269681(19)
La1A_2 La -0.07992(2) -0.00859(2) -0.269681(19)
La1_2 La -0.92008(2) -0.99141(2) -0.730319(19)
La1A_3 La -1.07992(2) -1.00859(2) -0.269681(19)
La1_3 La -0.92008(2) 0.00859(2) 0.269681(19)
La1_4 La 1.07992(2) 1.00859(2) 1.269681(19)
La1A_4 La -0.07992(2) -0.00859(2) 0.730319(19)
O1A O -0.8454(3) -0.0260(3) 0.0113(3)
O1A_2 O 0.1546(3) -0.0260(3) 0.0113(3)
O1_2 O -1.1546(3) 0.0260(3) -0.0113(3)
O2A O -0.6041(4) 0.0124(4) 0.2626(3)
O2A_2 O 0.3959(4) 0.0124(4) 0.2626(3)
O2_2 O -1.3959(4) -0.0124(4) -0.2626(3)
O3_2 O 0.9061(4) 0.7012(3) 1.0939(3)
O3A O -0.9061(4) 0.2988(3) -0.0939(3)
O4_2 O 0.9273(5) 0.5115(4) 1.2369(3)
O5_2 O 0.3711(4) 0.2003(3) 0.5497(3)
O5A O -1.3711(4) -0.2003(3) -0.5497(3)
O6_2 O 0.1909(4) 0.1295(4) 0.6725(4)
O6A O -0.1909(4) -0.1295(4) 0.3275(4)
O6_3 O -0.8091(4) 0.1295(4) -0.3275(4)
O7A O -1.2606(4) -0.2964(4) -0.2436(3)
O8A O -0.9676(4) -0.2283(4) -0.3418(4)
O9A O -1.2123(4) 0.1676(3) -0.4607(3)
C1A C -0.6713(5) -0.0048(4) 0.1076(4)
C2A C -0.5466(5) -0.0012(5) 0.0334(5)
C3_2 C 0.8492(6) 0.5549(5) 1.1101(5)
C4_2 C 0.6686(6) 0.4241(5) 0.9599(5)
C5_2 C 0.5242(6) 0.3255(5) 0.8347(5)
C6_2 C 0.3491(5) 0.2101(4) 0.6751(4)
H1A H -0.905(9) -0.219(8) -0.404(8)
H2A H -1.227(10) -0.304(9) -0.163(8)
H3A H -1.169(10) 0.260(8) -0.408(8)
H4A H -1.329(10) 0.133(8) -0.521(8)
H5A H -1.430(10) -0.349(8) -0.311(8)
H6A H -0.965(10) -0.313(9) -0.313(8)
O10 O 0.6678(6) 0.4410(5) 0.4269(6)
loop_
_geom_bond_atom_site_label_1
_geom_bond_atom_site_label_2
_geom_bond_site_symmetry_1
_geom_bond_site_symmetry_2
La1 O1 1_555 1_555
O1 C1 1_555 1_555
O2 C1 1_555 1_555
O3 La1 1_555 1_555
O4 C3 1_555 1_555
O5 C6 1_555 1_555
O6 C6 1_555 1_555
O7 La1 1_555 1_555
O8 La1 1_555 1_555
O9 La1 1_555 1_555
C1 C2 1_555 1_555
C2 C2A 1_555 1_555
C3 O3 1_555 1_555
C4 C3 1_555 1_555
C5 C4 1_555 1_555
C6 C5 1_555 1_555
H1 O8 1_555 1_555
H2 O7 1_555 1_555
H3 O9 1_555 1_555
H4 O9 1_555 1_555
H5 O7 1_555 1_555
H6 O8 1_555 1_555
La1A O1A 1_555 1_555
La1A_2 O1 1_555 1_555
La1_2 O5 1_555 1_555
La1A_3 O6 1_555 1_555
La1_3 O1A 1_555 1_555
La1_4 O3_2 1_555 1_555
La1A_4 O6_2 1_555 1_555
O1A C1A 1_555 1_555
O1A_2 La1 1_555 1_555
O1_2 La1A 1_555 1_555
O2A La1_3 1_555 1_555
O2A_2 La1 1_555 1_555
O2_2 La1A 1_555 1_555
O3_2 C3_2 1_555 1_555
O3A La1A 1_555 1_555
O4_2 C3_2 1_555 1_555
O5_2 La1 1_555 1_555
O5A La1A 1_555 1_555
O6_2 C6_2 1_555 1_555
O6A La1 1_555 1_555
O6_3 La1A 1_555 1_555
O7A La1A 1_555 1_555
O8A La1A 1_555 1_555
O9A La1A 1_555 1_555
C1A O2A 1_555 1_555
C2A C1A 1_555 1_555
C3_2 C4_2 1_555 1_555
C4_2 C5_2 1_555 1_555
C5_2 C6_2 1_555 1_555
C6_2 O5_2 1_555 1_555
H1A O8A 1_555 1_555
H2A O7A 1_555 1_555
H3A O9A 1_555 1_555
H4A O9A 1_555 1_555
H5A O7A 1_555 1_555
H6A O8A 1_555 1_555
O2 La1A_2 1_555 1_555
La1A_2 O1A_2 1_555 1_555
La1_3 O1_2 1_555 1_555

#END
