
#######################################################################
#
#                 Cambridge Crystallographic Data Centre
#                                CCDC 
#
#######################################################################
#
# If this CIF has been generated from an entry in the Cambridge 
# Structural Database, then it will include bibliographic, chemical, 
# crystal, experimental, refinement or atomic coordinate data resulting 
# from the CCDC's data processing and validation procedures.
#
#######################################################################

data_KAPHAL
_symmetry_cell_setting           triclinic
_symmetry_space_group_name_H-M   'P -1'
_symmetry_Int_Tables_number      2
_space_group_name_Hall           '-P 1'
loop_
_symmetry_equiv_pos_site_id
_symmetry_equiv_pos_as_xyz
1 x,y,z
2 -x,-y,-z
_cell_length_a                   8.3040(10)
_cell_length_b                   8.7280(10)
_cell_length_c                   9.1770(10)
_cell_angle_alpha                95.590(10)
_cell_angle_beta                 115.700(10)
_cell_angle_gamma                110.260(10)
_cell_volume                     537.594
loop_
_atom_site_label
_atom_site_type_symbol
_atom_site_fract_x
_atom_site_fract_y
_atom_site_fract_z
Ce1 Ce 0.08038(3) 0.00805(3) 0.26821(3)
O1 O -0.1536(5) 0.0248(4) -0.0111(4)
O2 O -0.3943(5) -0.0122(5) -0.2622(4)
O3 O -0.0894(6) -0.2972(4) 0.0939(4)
O4 O -0.0710(7) -0.4873(5) 0.2371(5)
O5 O -0.6367(5) -0.8025(4) -0.4510(4)
O6 O -0.8109(5) -0.8688(5) -0.3227(5)
O7 O 0.2598(6) 0.2948(5) 0.2443(5)
O8 O -0.0309(6) 0.2256(5) 0.3421(5)
O9 O 0.2113(6) -0.1658(5) 0.4597(4)
C1 C -0.3279(7) 0.0042(6) -0.1075(6)
C2 C -0.4534(7) 0.0001(7) -0.0329(6)
C3 C -0.1490(8) -0.4453(6) 0.1098(6)
C4 C -0.3308(8) -0.5754(6) -0.0399(6)
C5 C -0.4781(8) -0.6745(6) -0.1657(6)
C6 C -0.6552(7) -0.7900(6) -0.3236(6)
H1 H -0.041(8) 0.307(8) 0.309(7)
H2 H 0.208(10) 0.309(8) 0.151(9)
H3 H 0.331(11) -0.143(9) 0.506(9)
H4 H 0.183(12) -0.274(11) 0.416(10)
H5 H -0.076(11) 0.208(10) 0.407(10)
H6 H 0.379(11) 0.343(9) 0.301(9)
Ce1A Ce -1.08038(3) -0.00805(3) -0.26821(3)
Ce1A_2 Ce -0.08038(3) -0.00805(3) -0.26821(3)
Ce1_2 Ce -0.91962(3) -0.99195(3) -0.73179(3)
Ce1A_3 Ce -1.08038(3) -1.00805(3) -0.26821(3)
Ce1_3 Ce -0.91962(3) 0.00805(3) 0.26821(3)
Ce1_4 Ce 1.08038(3) 1.00805(3) 1.26821(3)
Ce1A_4 Ce -0.08038(3) -0.00805(3) 0.73179(3)
O1A O -0.8464(5) -0.0248(4) 0.0111(4)
O1A_2 O 0.1536(5) -0.0248(4) 0.0111(4)
O1_2 O -1.1536(5) 0.0248(4) -0.0111(4)
O2A O -0.6057(5) 0.0122(5) 0.2622(4)
O2A_2 O 0.3943(5) 0.0122(5) 0.2622(4)
O2_2 O -1.3943(5) -0.0122(5) -0.2622(4)
O3_2 O 0.9106(6) 0.7028(4) 1.0939(4)
O3A O -0.9106(6) 0.2972(4) -0.0939(4)
O4_2 O 0.9290(7) 0.5127(5) 1.2371(5)
O5_2 O 0.3633(5) 0.1975(4) 0.5490(4)
O5A O -1.3633(5) -0.1975(4) -0.5490(4)
O6_2 O 0.1891(5) 0.1312(5) 0.6773(5)
O6A O -0.1891(5) -0.1312(5) 0.3227(5)
O6_3 O -0.8109(5) 0.1312(5) -0.3227(5)
O7A O -1.2598(6) -0.2948(5) -0.2443(5)
O8A O -0.9691(6) -0.2256(5) -0.3421(5)
O9A O -1.2113(6) 0.1658(5) -0.4597(4)
C1A C -0.6721(7) -0.0042(6) 0.1075(6)
C2A C -0.5466(7) -0.0001(7) 0.0329(6)
C3_2 C 0.8510(8) 0.5547(6) 1.1098(6)
C4_2 C 0.6692(8) 0.4246(6) 0.9601(6)
C5_2 C 0.5219(8) 0.3255(6) 0.8343(6)
C6_2 C 0.3448(7) 0.2100(6) 0.6764(6)
H1A H -0.959(8) -0.307(8) -0.309(7)
H2A H -1.208(10) -0.309(8) -0.151(9)
H3A H -1.331(11) 0.143(9) -0.506(9)
H4A H -1.183(12) 0.274(11) -0.416(10)
H5A H -0.924(11) -0.208(10) -0.407(10)
H6A H -1.379(11) -0.343(9) -0.301(9)
O10 O 0.3326(8) -0.4393(7) 0.5753(9)
loop_
_geom_bond_atom_site_label_1
_geom_bond_atom_site_label_2
_geom_bond_site_symmetry_1
_geom_bond_site_symmetry_2
Ce1 O1 1_555 1_555
O1 C1 1_555 1_555
O2 C1 1_555 1_555
O3 Ce1 1_555 1_555
O4 C3 1_555 1_555
O5 C6 1_555 1_555
O6 C6 1_555 1_555
O7 Ce1 1_555 1_555
O8 Ce1 1_555 1_555
O9 Ce1 1_555 1_555
C1 C2 1_555 1_555
C2 C2A 1_555 1_555
C3 O3 1_555 1_555
C4 C3 1_555 1_555
C5 C4 1_555 1_555
C6 C5 1_555 1_555
H1 O8 1_555 1_555
H2 O7 1_555 1_555
H3 O9 1_555 1_555
H4 O9 1_555 1_555
H5 O8 1_555 1_555
H6 O7 1_555 1_555
Ce1A O1A 1_555 1_555
Ce1A_2 O1 1_555 1_555
Ce1_2 O5 1_555 1_555
Ce1A_3 O6 1_555 1_555
Ce1_3 O1A 1_555 1_555
Ce1_4 O3_2 1_555 1_555
Ce1A_4 O6_2 1_555 1_555
O1A C1A 1_555 1_555
O1A_2 Ce1 1_555 1_555
O1_2 Ce1A 1_555 1_555
O2A Ce1_3 1_555 1_555
O2A_2 Ce1 1_555 1_555
O2_2 Ce1A 1_555 1_555
O3_2 C3_2 1_555 1_555
O3A Ce1A 1_555 1_555
O4_2 C3_2 1_555 1_555
O5_2 Ce1 1_555 1_555
O5A Ce1A 1_555 1_555
O6_2 C6_2 1_555 1_555
O6A Ce1 1_555 1_555
O6_3 Ce1A 1_555 1_555
O7A Ce1A 1_555 1_555
O8A Ce1A 1_555 1_555
O9A Ce1A 1_555 1_555
C1A O2A 1_555 1_555
C2A C1A 1_555 1_555
C3_2 C4_2 1_555 1_555
C4_2 C5_2 1_555 1_555
C5_2 C6_2 1_555 1_555
C6_2 O5_2 1_555 1_555
H1A O8A 1_555 1_555
H2A O7A 1_555 1_555
H3A O9A 1_555 1_555
H4A O9A 1_555 1_555
H5A O8A 1_555 1_555
H6A O7A 1_555 1_555
O2 Ce1A_2 1_555 1_555
Ce1A_2 O1A_2 1_555 1_555
Ce1_3 O1_2 1_555 1_555

#END
