
#######################################################################
#
#                 Cambridge Crystallographic Data Centre
#                                CCDC 
#
#######################################################################
#
# If this CIF has been generated from an entry in the Cambridge 
# Structural Database, then it will include bibliographic, chemical, 
# crystal, experimental, refinement or atomic coordinate data resulting 
# from the CCDC's data processing and validation procedures.
#
#######################################################################

data_KAPHOZ
_symmetry_cell_setting           monoclinic
_symmetry_space_group_name_H-M   'C 2/c'
_symmetry_Int_Tables_number      15
_space_group_name_Hall           '-C 2yn'
loop_
_symmetry_equiv_pos_site_id
_symmetry_equiv_pos_as_xyz
1 x,y,z
2 1/2+x,1/2+y,z
3 -x,y,1/2-z
4 1/2-x,1/2+y,1/2-z
5 -x,-y,-z
6 1/2-x,1/2-y,-z
7 x,-y,1/2+z
8 1/2+x,1/2-y,1/2+z
_cell_length_a                   11.3366(10)
_cell_length_b                   15.3829(10)
_cell_length_c                   11.1085(10)
_cell_angle_alpha                90
_cell_angle_beta                 91.398(10)
_cell_angle_gamma                90
_cell_volume                     1936.63
loop_
_atom_site_label
_atom_site_type_symbol
_atom_site_fract_x
_atom_site_fract_y
_atom_site_fract_z
Zn1 Zn 0.50000 0.00325(4) 0.25000
O1 O 0.3821(2) -0.06211(17) 0.1521(2)
O2 O 0.5288(3) -0.1487(2) 0.0990(3)
O3 O 0.4088(3) -0.06342(17) -0.1251(2)
O4 O 0.3524(3) -0.1479(2) -0.2763(3)
C1 C 0.4236(4) -0.1291(3) 0.0994(3)
C2 C 0.3583(4) -0.1310(3) -0.1675(3)
C3 C 0.3329(3) -0.1898(2) 0.0439(3)
C4 C 0.3036(3) -0.1922(2) -0.0788(3)
C5 C 0.2787(4) -0.2475(3) 0.1210(4)
H1 H 0.2979 -0.2457 0.2028
Zn1F Zn 0.50000 -0.00325(4) -0.25000
Zn1G Zn 0.00000 -0.50325(4) -0.25000
Zn1A Zn 0.00000 -0.49675(4) 0.25000
O1E O 0.1179(2) -0.43789(17) -0.1521(2)
O1B O 0.6179(2) -0.06211(17) 0.3479(2)
O2E O -0.0288(3) -0.3513(2) -0.0990(3)
O3E O 0.0912(3) -0.43658(17) 0.1251(2)
O3F O 0.4088(3) 0.06342(17) 0.3749(2)
O3D O 0.5912(3) 0.06342(17) 0.1251(2)
O4E O 0.1476(3) -0.3521(2) 0.2763(3)
C1E C 0.0764(4) -0.3709(3) -0.0994(3)
C2E C 0.1417(4) -0.3690(3) 0.1675(3)
C3E C 0.1671(3) -0.3102(2) -0.0439(3)
C4E C 0.1964(3) -0.3078(2) 0.0788(3)
C5E C 0.2213(4) -0.2525(3) -0.1210(4)
H1E H 0.2021 -0.2543 -0.2028
K1 K 0.71600(11) 0.07381(8) 0.49244(10)
O5 O 0.8293(5) 0.0561(5) 0.7178(5)
O6 O 1.00000 -0.0780(9) 0.75000
O7 O 0.5788(9) 0.3250(7) 0.5515(16)
O9 O 0.4108(12) 0.4534(10) 0.501(3)
O10 O 0.50000 0.3217(6) 0.25000
O8? O 0.626(3) 0.2852(15) 0.462(2)
loop_
_geom_bond_atom_site_label_1
_geom_bond_atom_site_label_2
_geom_bond_site_symmetry_1
_geom_bond_site_symmetry_2
Zn1 O1 1_555 1_555
O1 C1 1_555 1_555
O2 C1 1_555 1_555
O3 C2 1_555 1_555
O4 C2 1_555 1_555
C1 C3 1_555 1_555
C2 C4 1_555 1_555
C3 C4 1_555 1_555
C4 C5E 1_555 1_555
C5 C3 1_555 1_555
H1 C5 1_555 1_555
Zn1F O3 1_555 1_555
Zn1G O1E 1_555 1_555
Zn1A O3E 1_555 1_555
O1E C1E 1_555 1_555
O1B Zn1 1_555 1_555
O2E C1E 1_555 1_555
O3E C2E 1_555 1_555
O3F Zn1 1_555 1_555
O3D Zn1 1_555 1_555
O4E C2E 1_555 1_555
C1E C3E 1_555 1_555
C2E C4E 1_555 1_555
C3E C4E 1_555 1_555
C4E C5 1_555 1_555
C5E C3E 1_555 1_555
H1E C5E 1_555 1_555

#END
