
#######################################################################
#
#                 Cambridge Crystallographic Data Centre
#                                CCDC 
#
#######################################################################
#
# If this CIF has been generated from an entry in the Cambridge 
# Structural Database, then it will include bibliographic, chemical, 
# crystal, experimental, refinement or atomic coordinate data resulting 
# from the CCDC's data processing and validation procedures.
#
#######################################################################

data_KAPHAM
_symmetry_cell_setting           monoclinic
_symmetry_space_group_name_H-M   'C 2/c'
_symmetry_Int_Tables_number      15
_space_group_name_Hall           '-C 2yn'
loop_
_symmetry_equiv_pos_site_id
_symmetry_equiv_pos_as_xyz
1 x,y,z
2 -x,y,1/2-z
3 1/2+x,1/2+y,z
4 1/2-x,1/2+y,1/2-z
5 -x,-y,-z
6 x,-y,1/2+z
7 1/2-x,1/2-y,-z
8 1/2+x,1/2-y,1/2+z
_cell_length_a                   15.920(2)
_cell_length_b                   20.038(2)
_cell_length_c                   38.106(5)
_cell_angle_alpha                90
_cell_angle_beta                 101.981(2)
_cell_angle_gamma                90
_cell_volume                     11891.2
loop_
_atom_site_label
_atom_site_type_symbol
_atom_site_fract_x
_atom_site_fract_y
_atom_site_fract_z
Ge1 Ge 0.17525(16) 0.46052(11) 0.85509(6)
W1 W 0.09710(7) 0.56909(4) 0.91733(2)
W2 W 0.13481(7) 0.58735(4) 0.78957(2)
W3 W 0.08149(7) 0.30391(4) 0.83330(3)
W4 W -0.03162(6) 0.53212(4) 0.83610(2)
W5 W 0.33397(7) 0.52263(5) 0.81185(3)
W6 W 0.38193(7) 0.39060(5) 0.88092(3)
W7 W 0.26754(7) 0.62528(5) 0.87018(3)
W8 W 0.31483(7) 0.49201(5) 0.94016(3)
W9 W 0.22963(7) 0.33867(5) 0.92309(3)
W10 W 0.01509(7) 0.41641(4) 0.90192(2)
W11 W 0.23094(7) 0.35387(5) 0.79133(3)
Nd1 Nd 0.0000 0.41917(8) 0.7500
Cu1 Cu 0.06692(19) 0.61746(13) 1.01127(8)
N1 N 0.1817(12) 0.6556(9) 1.0281(5)
N2 N 0.0291(14) 0.7108(9) 1.0124(5)
C1 C 0.1787(15) 0.7232(11) 1.0334(6)
C2 C 0.0927(15) 0.7540(11) 1.0242(6)
C3 C -0.0518(17) 0.7322(12) 1.0032(6)
H1 H -0.0962 0.7022 0.9952
C4 C -0.0440(14) 0.5152(11) 0.9925(6)
C5 C 0.3322(16) 0.7243(11) 1.0531(6)
H2 H 0.3836 0.7469 1.0613
C6 C 0.3326(18) 0.6563(12) 1.0479(7)
H3 H 0.3840 0.6329 1.0535
C7 C 0.2562(16) 0.6222(12) 1.0342(6)
H4 H 0.2571 0.5767 1.0294
C8 C 0.2524(18) 0.7605(12) 1.0458(7)
H5 H 0.2503 0.8064 1.0491
C9 C 0.0783(17) 0.8237(12) 1.0262(7)
H6 H 0.1226 0.8536 1.0346
C10 C -0.0693(17) 0.8005(13) 1.0056(8)
H7 H -0.1260 0.8152 1.0007
C11 C -0.007(2) 0.8443(16) 1.0148(8)
H8 H -0.0192 0.8897 1.0137
O1 O 0.4061(10) 0.4494(7) 0.9236(4)
O2 O 0.2541(10) 0.4319(7) 0.8908(4)
O3 O 0.4848(12) 0.3603(9) 0.8837(5)
O4 O 0.0046(10) 0.5891(7) 0.8825(4)
O5 O 0.1978(10) 0.6540(7) 0.8277(4)
O6 O 0.2808(11) 0.4412(8) 0.7911(4)
O7 O 0.1264(9) 0.3824(7) 0.9248(4)
O8 O 0.3206(11) 0.5622(8) 0.9066(4)
O9 O 0.0880(10) 0.4878(7) 0.8724(4)
O10 O 0.2011(11) 0.5232(7) 0.9380(4)
O11 O 0.3169(11) 0.3525(7) 0.8406(4)
O12 O 0.0363(10) 0.4935(7) 0.9325(4)
O13 O 0.0958(10) 0.5142(7) 0.7690(4)
O14 O -0.0579(11) 0.3773(8) 0.9236(4)
O15 O 0.2152(9) 0.5304(6) 0.8374(4)
O16 O 0.2842(10) 0.4087(7) 0.9576(4)
O17 O 0.2309(11) 0.2727(8) 0.9521(4)
O18 O 0.3835(11) 0.4706(8) 0.8534(5)
O19 O 0.0971(11) 0.6489(8) 0.7593(4)
O20 O 0.0851(11) 0.6252(8) 0.9513(4)
O21 O -0.0684(10) 0.4676(7) 0.8700(4)
O22 O 0.1691(10) 0.6182(7) 0.8918(4)
O23 O 0.1760(10) 0.3042(7) 0.8798(4)
O24 O 0.0215(11) 0.3568(7) 0.8631(4)
O25 O 0.3515(10) 0.5998(8) 0.8440(4)
O26 O 0.1454(10) 0.3728(7) 0.7552(4)
O27 O 0.0469(12) 0.2253(7) 0.8409(4)
O28 O -0.1275(11) 0.5711(8) 0.8217(4)
O29 O 0.4197(11) 0.5324(9) 0.7904(5)
O30 O -0.0310(10) 0.4688(7) 0.8044(4)
O31 O 0.0499(10) 0.5879(7) 0.8183(4)
O32 O 0.1452(10) 0.3972(7) 0.8245(4)
O33 O 0.3687(11) 0.5257(8) 0.9791(4)
O34 O 0.1751(10) 0.2792(6) 0.8094(4)
O35 O 0.2492(11) 0.5760(8) 0.7810(4)
O36 O 0.3119(12) 0.6980(8) 0.8872(5)
O37 O 0.3411(11) 0.3284(8) 0.9122(4)
O38 O 0.0091(11) 0.3228(7) 0.7925(4)
O39 O 0.2989(11) 0.3060(8) 0.7709(5)
O40 O -0.0479(11) 0.5772(7) 0.9924(4)
O41 O 0.1070(10) 0.5222(7) 1.0182(4)
Ge1D Ge -0.17525(16) 0.53948(11) 1.14491(6)
Ge1A Ge -0.17525(16) 0.46052(11) 0.64491(6)
W1D W -0.09710(7) 0.43091(4) 1.08267(2)
W2A W -0.13481(7) 0.58735(4) 0.71043(2)
W3A W -0.08149(7) 0.30391(4) 0.66670(3)
W4A W 0.03162(6) 0.53212(4) 0.66390(2)
W4D W 0.03162(6) 0.46788(4) 1.16390(2)
W5A W -0.33397(7) 0.52263(5) 0.68815(3)
W6A W -0.38193(7) 0.39060(5) 0.61908(3)
W6D W -0.38193(7) 0.60940(5) 1.11908(3)
W7A W -0.26754(7) 0.62528(5) 0.62982(3)
W7D W -0.26754(7) 0.37472(5) 1.12982(3)
W8D W -0.31483(7) 0.50799(5) 1.05984(3)
W8A W -0.31483(7) 0.49201(5) 0.55984(3)
W9A W -0.22963(7) 0.33867(5) 0.57691(3)
W9D W -0.22963(7) 0.66133(5) 1.07691(3)
W10D W -0.01509(7) 0.58359(4) 1.09808(2)
W10A W -0.01509(7) 0.41641(4) 0.59808(2)
W11A W -0.23094(7) 0.35387(5) 0.70867(3)
Cu1D Cu -0.06692(19) 0.38254(13) 0.98873(8)
N1D N -0.1817(12) 0.3444(9) 0.9719(5)
N2D N -0.0291(14) 0.2892(9) 0.9876(5)
C1D C -0.1787(15) 0.2768(11) 0.9666(6)
C2D C -0.0927(15) 0.2460(11) 0.9758(6)
C3D C 0.0518(17) 0.2678(12) 0.9968(6)
H1D H 0.0962 0.2978 1.0048
C4D C 0.0440(14) 0.4848(11) 1.0075(6)
C5D C -0.3322(16) 0.2757(11) 0.9469(6)
H2D H -0.3836 0.2531 0.9387
C6D C -0.3326(18) 0.3437(12) 0.9521(7)
H3D H -0.3840 0.3671 0.9465
C7D C -0.2562(16) 0.3778(12) 0.9658(6)
H4D H -0.2571 0.4233 0.9706
C8D C -0.2524(18) 0.2395(12) 0.9542(7)
H5D H -0.2503 0.1936 0.9509
C9D C -0.0783(17) 0.1763(12) 0.9738(7)
H6D H -0.1226 0.1464 0.9654
C10D C 0.0693(17) 0.1995(13) 0.9944(8)
H7D H 0.1260 0.1848 0.9993
C11D C 0.007(2) 0.1557(16) 0.9852(8)
H8D H 0.0192 0.1103 0.9863
O1A O -0.4061(10) 0.4494(7) 0.5764(4)
O1D O -0.4061(10) 0.5506(7) 1.0764(4)
O2D O -0.2541(10) 0.5681(7) 1.1092(4)
O2A O -0.2541(10) 0.4319(7) 0.6092(4)
O3A O -0.4848(12) 0.3603(9) 0.6163(5)
O4D O -0.0046(10) 0.4109(7) 1.1175(4)
O4A O -0.0046(10) 0.5891(7) 0.6175(4)
O5A O -0.1978(10) 0.6540(7) 0.6723(4)
O6A O -0.2808(11) 0.4412(8) 0.7089(4)
O7A O -0.1264(9) 0.3824(7) 0.5752(4)
O7D O -0.1264(9) 0.6176(7) 1.0752(4)
O8A O -0.3206(11) 0.5622(8) 0.5934(4)
O8D O -0.3206(11) 0.4378(8) 1.0934(4)
O9D O -0.0880(10) 0.5122(7) 1.1276(4)
O9A O -0.0880(10) 0.4878(7) 0.6276(4)
O10D O -0.2011(11) 0.4768(7) 1.0620(4)
O11A O -0.3169(11) 0.3525(7) 0.6594(4)
O12D O -0.0363(10) 0.5065(7) 1.0675(4)
O13A O -0.0958(10) 0.5142(7) 0.7310(4)
O14D O 0.0579(11) 0.6227(8) 1.0764(4)
O15A O -0.2152(9) 0.5304(6) 0.6626(4)
O15D O -0.2152(9) 0.4696(6) 1.1626(4)
O16D O -0.2842(10) 0.5913(7) 1.0424(4)
O16A O -0.2842(10) 0.4087(7) 0.5424(4)
O17A O -0.2309(11) 0.2727(8) 0.5479(4)
O18A O -0.3835(11) 0.4706(8) 0.6466(5)
O19A O -0.0971(11) 0.6489(8) 0.7407(4)
O20D O -0.0851(11) 0.3748(8) 1.0487(4)
O21A O 0.0684(10) 0.4676(7) 0.6300(4)
O21D O 0.0684(10) 0.5324(7) 1.1300(4)
O22D O -0.1691(10) 0.3818(7) 1.1082(4)
O22A O -0.1691(10) 0.6182(7) 0.6082(4)
O23A O -0.1760(10) 0.3042(7) 0.6202(4)
O24A O -0.0215(11) 0.3568(7) 0.6369(4)
O24D O -0.0215(11) 0.6432(7) 1.1369(4)
O25A O -0.3515(10) 0.5998(8) 0.6560(4)
O26A O -0.1454(10) 0.3728(7) 0.7448(4)
O27A O -0.0469(12) 0.2253(7) 0.6591(4)
O28A O 0.1275(11) 0.5711(8) 0.6783(4)
O29A O -0.4197(11) 0.5324(9) 0.7096(5)
O30A O 0.0310(10) 0.4688(7) 0.6956(4)
O31A O -0.0499(10) 0.5879(7) 0.6817(4)
O32A O -0.1452(10) 0.3972(7) 0.6755(4)
O32D O -0.1452(10) 0.6028(7) 1.1755(4)
O33D O -0.3687(11) 0.4743(8) 1.0209(4)
O34A O -0.1751(10) 0.2792(6) 0.6906(4)
O35A O -0.2492(11) 0.5760(8) 0.7190(4)
O36A O -0.3119(12) 0.6980(8) 0.6128(5)
O37A O -0.3411(11) 0.3284(8) 0.5878(4)
O38A O -0.0091(11) 0.3228(7) 0.7075(4)
O39A O -0.2989(11) 0.3060(8) 0.7291(5)
O40D O 0.0479(11) 0.4228(7) 1.0076(4)
O41D O -0.1070(10) 0.4778(7) 0.9818(4)
K1 K -0.1495(4) 0.3599(3) 0.81679(16)
Na1 Na 0.6177(7) 0.3613(5) 0.8502(3)
Na2 Na 0.2442(9) 0.1662(5) 0.7774(3)
O42 O 0.6788(15) 0.2899(9) 0.8014(6)
O43 O 0.0096(15) 0.7441(11) 0.7162(6)
O44 O 0.4093(17) 0.2089(9) 0.8063(5)
O45 O 0.7857(14) 0.3367(9) 0.8792(5)
O46 O -0.2472(15) 0.4726(11) 0.7884(6)
O47 O 0.5683(18) 0.4996(13) 0.9465(7)
O48 O 0.504(2) 0.5703(17) 0.8960(9)
O49 O 0.5640(17) 0.2331(12) 0.8571(7)
O50 O 0.169(2) 0.1577(15) 0.9154(8)
O51 O 0.2232(19) 0.1518(14) 0.8536(8)
O52 O 0.248(2) 0.4198(17) 0.0252(9)
O53? O 0.512(2) 0.6071(16) 0.8894(9)
loop_
_geom_bond_atom_site_label_1
_geom_bond_atom_site_label_2
_geom_bond_site_symmetry_1
_geom_bond_site_symmetry_2
Ge1 O2 1_555 1_555
W1 O4 1_555 1_555
W2 O5 1_555 1_555
W3 O23 1_555 1_555
W4 O4 1_555 1_555
W5 O6 1_555 1_555
W6 O1 1_555 1_555
W7 O5 1_555 1_555
W8 O1 1_555 1_555
W9 O2 1_555 1_555
W10 O7 1_555 1_555
W11 O6 1_555 1_555
Nd1 O13 1_555 1_555
Cu1 N1 1_555 1_555
N1 C1 1_555 1_555
N2 Cu1 1_555 1_555
C1 C2 1_555 1_555
C2 N2 1_555 1_555
C3 N2 1_555 1_555
H1 C3 1_555 1_555
C4 O40 1_555 1_555
C5 H2 1_555 1_555
C6 C5 1_555 1_555
H3 C6 1_555 1_555
C7 N1 1_555 1_555
H4 C7 1_555 1_555
C8 C1 1_555 1_555
H5 C8 1_555 1_555
C9 C2 1_555 1_555
H6 C9 1_555 1_555
C10 C3 1_555 1_555
H7 C10 1_555 1_555
C11 C9 1_555 1_555
H8 C11 1_555 1_555
O2 W6 1_555 1_555
O3 W6 1_555 1_555
O7 W9 1_555 1_555
O8 W7 1_555 1_555
O9 Ge1 1_555 1_555
O10 W1 1_555 1_555
O11 W6 1_555 1_555
O12 W1 1_555 1_555
O13 W2 1_555 1_555
O14 W10 1_555 1_555
O15 Ge1 1_555 1_555
O16 W8 1_555 1_555
O17 W9 1_555 1_555
O18 W5 1_555 1_555
O19 W2 1_555 1_555
O20 W1 1_555 1_555
O21 W4 1_555 1_555
O22 W1 1_555 1_555
O23 W9 1_555 1_555
O24 W3 1_555 1_555
O25 W5 1_555 1_555
O26 W11 1_555 1_555
O27 W3 1_555 1_555
O28 W4 1_555 1_555
O29 W5 1_555 1_555
O30 W4 1_555 1_555
O31 W2 1_555 1_555
O32 Ge1 1_555 1_555
O33 W8 1_555 1_555
O34 W3 1_555 1_555
O35 W2 1_555 1_555
O36 W7 1_555 1_555
O37 W6 1_555 1_555
O38 W3 1_555 1_555
O39 W11 1_555 1_555
O40 Cu1 1_555 1_555
O41 Cu1 1_555 1_555
Ge1D O2D 1_555 1_555
Ge1A O2A 1_555 1_555
W1D O4D 1_555 1_555
W2A O5A 1_555 1_555
W3A O23A 1_555 1_555
W4A O4A 1_555 1_555
W4D O4D 1_555 1_555
W5A O6A 1_555 1_555
W6A O1A 1_555 1_555
W6D O1D 1_555 1_555
W7A O5A 1_555 1_555
W7D O8D 1_555 1_555
W8D O1D 1_555 1_555
W8A O1A 1_555 1_555
W9A O2A 1_555 1_555
W9D O2D 1_555 1_555
W10D O7D 1_555 1_555
W10A O7A 1_555 1_555
W11A O6A 1_555 1_555
Cu1D N1D 1_555 1_555
N1D C1D 1_555 1_555
N2D Cu1D 1_555 1_555
C1D C2D 1_555 1_555
C2D N2D 1_555 1_555
C3D N2D 1_555 1_555
H1D C3D 1_555 1_555
C4D C4 1_555 1_555
C5D H2D 1_555 1_555
C6D C5D 1_555 1_555
H3D C6D 1_555 1_555
C7D N1D 1_555 1_555
H4D C7D 1_555 1_555
C8D C1D 1_555 1_555
H5D C8D 1_555 1_555
C9D C2D 1_555 1_555
H6D C9D 1_555 1_555
C10D C3D 1_555 1_555
H7D C10D 1_555 1_555
C11D C9D 1_555 1_555
H8D C11D 1_555 1_555
O2D W6D 1_555 1_555
O2A W6A 1_555 1_555
O3A W6A 1_555 1_555
O7A W9A 1_555 1_555
O7D W9D 1_555 1_555
O8A W7A 1_555 1_555
O8D W8D 1_555 1_555
O9D Ge1D 1_555 1_555
O9A Ge1A 1_555 1_555
O10D W1D 1_555 1_555
O11A W6A 1_555 1_555
O12D W1D 1_555 1_555
O13A Nd1 1_555 1_555
O14D W10D 1_555 1_555
O15A Ge1A 1_555 1_555
O15D Ge1D 1_555 1_555
O16D W8D 1_555 1_555
O16A W8A 1_555 1_555
O17A W9A 1_555 1_555
O18A W5A 1_555 1_555
O19A W2A 1_555 1_555
O20D W1D 1_555 1_555
O21A W4A 1_555 1_555
O21D W4D 1_555 1_555
O22D W1D 1_555 1_555
O22A W7A 1_555 1_555
O23A W9A 1_555 1_555
O24A W3A 1_555 1_555
O24D W10D 1_555 1_555
O25A W5A 1_555 1_555
O26A Nd1 1_555 1_555
O27A W3A 1_555 1_555
O28A W4A 1_555 1_555
O29A W5A 1_555 1_555
O30A Nd1 1_555 1_555
O31A W2A 1_555 1_555
O32A Ge1A 1_555 1_555
O32D Ge1D 1_555 1_555
O33D W8D 1_555 1_555
O34A W3A 1_555 1_555
O35A W2A 1_555 1_555
O36A W7A 1_555 1_555
O37A W6A 1_555 1_555
O38A Nd1 1_555 1_555
O39A W11A 1_555 1_555
O40D Cu1D 1_555 1_555
O41D C4 1_555 1_555
W1 O9 1_555 1_555
W2 O15 1_555 1_555
W3 O32 1_555 1_555
W4 O9 1_555 1_555
W4 O31 1_555 1_555
W5 O15 1_555 1_555
W5 O35 1_555 1_555
W6 O18 1_555 1_555
W7 O15 1_555 1_555
W7 O22 1_555 1_555
W7 O25 1_555 1_555
W8 O2 1_555 1_555
W8 O8 1_555 1_555
W8 O10 1_555 1_555
W9 O16 1_555 1_555
W9 O37 1_555 1_555
W10 O9 1_555 1_555
W10 O12 1_555 1_555
W10 O21 1_555 1_555
W10 O24 1_555 1_555
W11 O11 1_555 1_555
W11 O32 1_555 1_555
W11 O34 1_555 1_555
Nd1 O26 1_555 1_555
Nd1 O30 1_555 1_555
Nd1 O38 1_555 1_555
Cu1 O20 1_555 1_555
C5 C8 1_555 1_555
C6 C7 1_555 1_555
C10 C11 1_555 1_555
O41 C4D 1_555 1_555
W1D O9D 1_555 1_555
W2A O13A 1_555 1_555
W2A O15A 1_555 1_555
W3A O32A 1_555 1_555
W3A O38A 1_555 1_555
W4A O9A 1_555 1_555
W4A O30A 1_555 1_555
W4A O31A 1_555 1_555
W4D O9D 1_555 1_555
W5A O15A 1_555 1_555
W5A O35A 1_555 1_555
W6A O18A 1_555 1_555
W7A O15A 1_555 1_555
W7A O25A 1_555 1_555
W7D O15D 1_555 1_555
W7D O22D 1_555 1_555
W8D O2D 1_555 1_555
W8D O10D 1_555 1_555
W8A O2A 1_555 1_555
W8A O8A 1_555 1_555
W9A O16A 1_555 1_555
W9A O37A 1_555 1_555
W9D O16D 1_555 1_555
W10D O9D 1_555 1_555
W10D O12D 1_555 1_555
W10D O21D 1_555 1_555
W10A O9A 1_555 1_555
W10A O21A 1_555 1_555
W10A O24A 1_555 1_555
W11A O11A 1_555 1_555
W11A O26A 1_555 1_555
W11A O32A 1_555 1_555
W11A O34A 1_555 1_555
Cu1D O20D 1_555 1_555
Cu1D O41D 1_555 1_555
C4D O40D 1_555 1_555
C5D C8D 1_555 1_555
C6D C7D 1_555 1_555
C10D C11D 1_555 1_555

#END
