
#######################################################################
#
#                 Cambridge Crystallographic Data Centre
#                                CCDC 
#
#######################################################################
#
# If this CIF has been generated from an entry in the Cambridge 
# Structural Database, then it will include bibliographic, chemical, 
# crystal, experimental, refinement or atomic coordinate data resulting 
# from the CCDC's data processing and validation procedures.
#
#######################################################################

data_KAPMUK
_symmetry_cell_setting           monoclinic
_symmetry_space_group_name_H-M   'C 2/c'
_symmetry_Int_Tables_number      15
_space_group_name_Hall           '-C 2yn'
loop_
_symmetry_equiv_pos_site_id
_symmetry_equiv_pos_as_xyz
1 x,y,z
2 1/2+x,1/2+y,z
3 -x,y,1/2-z
4 1/2-x,1/2+y,1/2-z
5 -x,-y,-z
6 1/2-x,1/2-y,-z
7 x,-y,1/2+z
8 1/2+x,1/2-y,1/2+z
_cell_length_a                   18.7323(5)
_cell_length_b                   17.4636(5)
_cell_length_c                   11.6329(3)
_cell_angle_alpha                90
_cell_angle_beta                 114.64
_cell_angle_gamma                90
_cell_volume                     3459
loop_
_atom_site_label
_atom_site_type_symbol
_atom_site_fract_x
_atom_site_fract_y
_atom_site_fract_z
Cu1 Cu -0.040714(14) 0.167884(13) 0.59663(2)
N1 N 0.01444(11) 0.25591(10) 0.56287(16)
N2 N -0.10603(10) 0.25182(10) 0.61627(16)
N3 N -0.08965(10) 0.12635(9) 0.40047(15)
O1 O -0.05432(9) -0.10069(8) 0.35122(13)
O2 O -0.09325(9) -0.08380(8) 0.14269(13)
C1 C 0.07785(15) 0.25085(14) 0.5371(3)
H1 H 0.0976 0.2016 0.5311
C2 C 0.11515(17) 0.31492(16) 0.5191(3)
H2 H 0.1589 0.3100 0.4983
C3 C 0.08772(16) 0.38591(15) 0.5317(3)
H3 H 0.1135 0.4308 0.5225
C4 C 0.02205(15) 0.39190(13) 0.5582(2)
H4 H 0.0025 0.4406 0.5673
C5 C -0.01429(13) 0.32545(11) 0.57093(19)
C6 C -0.08509(13) 0.32307(12) 0.59654(19)
C7 C -0.12755(15) 0.38680(14) 0.6019(3)
H5 H -0.1126 0.4365 0.5869
C8 C -0.19200(17) 0.37705(16) 0.6294(3)
H6 H -0.2222 0.4199 0.6329
C9 C -0.16805(14) 0.24299(14) 0.6442(3)
H7 H -0.1822 0.1930 0.6591
C10 C -0.21177(17) 0.30463(17) 0.6517(3)
H8 H -0.2553 0.2971 0.6722
C11 C -0.08389(11) -0.06201(11) 0.25152(18)
C12 C -0.11874(13) 0.17201(11) 0.2981(2)
H9 H -0.1207 0.2256 0.3103
C13 C -0.08463(11) 0.05136(11) 0.38124(18)
H10 H -0.0662 0.0182 0.4525
C14 C -0.10509(11) 0.01965(11) 0.26239(18)
C15 C -0.13787(13) 0.06702(12) 0.15760(19)
H11 H -0.1546 0.0469 0.0746
C16 C -0.14580(13) 0.14428(13) 0.1763(2)
H12 H -0.1696 0.1777 0.1061
Cu1D Cu 0.040714(14) -0.167884(13) 0.40337(2)
Cu1F Cu -0.040714(14) -0.167884(13) 0.09663(2)
Cu1B Cu 0.040714(14) 0.167884(13) 0.90337(2)
N1D N -0.01444(11) -0.25591(10) 0.43713(16)
N2D N 0.10603(10) -0.25182(10) 0.38373(16)
N3D N 0.08965(10) -0.12635(9) 0.59953(15)
O1D O 0.05432(9) 0.10069(8) 0.64878(13)
O2D O 0.09325(9) 0.08380(8) 0.85731(13)
O2F O -0.09325(9) 0.08380(8) 0.64269(13)
O2B O 0.09325(9) -0.08380(8) 0.35731(13)
C1D C -0.07785(15) -0.25085(14) 0.4629(3)
H1D H -0.0976 -0.2016 0.4689
C2D C -0.11515(17) -0.31492(16) 0.4809(3)
H2D H -0.1589 -0.3100 0.5017
C3D C -0.08772(16) -0.38591(15) 0.4683(3)
H3D H -0.1135 -0.4308 0.4775
C4D C -0.02205(15) -0.39190(13) 0.4418(2)
H4D H -0.0025 -0.4406 0.4327
C5D C 0.01429(13) -0.32545(11) 0.42907(19)
C6D C 0.08509(13) -0.32307(12) 0.40346(19)
C7D C 0.12755(15) -0.38680(14) 0.3981(3)
H5D H 0.1126 -0.4365 0.4131
C8D C 0.19200(17) -0.37705(16) 0.3706(3)
H6D H 0.2222 -0.4199 0.3671
C9D C 0.16805(14) -0.24299(14) 0.3558(3)
H7D H 0.1822 -0.1930 0.3409
C10D C 0.21177(17) -0.30463(17) 0.3483(3)
H8D H 0.2553 -0.2971 0.3278
C11D C 0.08389(11) 0.06201(11) 0.74848(18)
C12D C 0.11874(13) -0.17201(11) 0.7019(2)
H9D H 0.1207 -0.2256 0.6897
C13D C 0.08463(11) -0.05136(11) 0.61876(18)
H10D H 0.0662 -0.0182 0.5475
C14D C 0.10509(11) -0.01965(11) 0.73761(18)
C15D C 0.13787(13) -0.06702(12) 0.84240(19)
H11D H 0.1546 -0.0469 0.9254
C16D C 0.14580(13) -0.14428(13) 0.8237(2)
H12D H 0.1696 -0.1777 0.8939
Cl1 Cl 0.29641(3) 0.11154(3) 0.71114(5)
O3 O 0.25844(14) 0.18190(13) 0.6513(3)
O4 O 0.29380(16) 0.06125(13) 0.6132(2)
O5 O 0.37757(13) 0.12862(15) 0.7887(2)
O6 O 0.2602(2) 0.0789(2) 0.7835(3)
O7 O 0.0000 0.46754(16) 0.2500
H13 H 0.037(2) 0.442(2) 0.247(4)
H13B H -0.037(2) 0.442(2) 0.253(4)
loop_
_geom_bond_atom_site_label_1
_geom_bond_atom_site_label_2
_geom_bond_site_symmetry_1
_geom_bond_site_symmetry_2
Cu1 N1 1_555 1_555
N1 C1 1_555 1_555
N2 Cu1 1_555 1_555
N3 Cu1 1_555 1_555
O1 C11 1_555 1_555
O2 C11 1_555 1_555
C1 H1 1_555 1_555
C2 C1 1_555 1_555
H2 C2 1_555 1_555
C3 C2 1_555 1_555
H3 C3 1_555 1_555
C4 C3 1_555 1_555
H4 C4 1_555 1_555
C5 N1 1_555 1_555
C6 N2 1_555 1_555
C7 C6 1_555 1_555
H5 C7 1_555 1_555
C8 C7 1_555 1_555
H6 C8 1_555 1_555
C9 N2 1_555 1_555
H7 C9 1_555 1_555
C10 C8 1_555 1_555
H8 C10 1_555 1_555
C11 C14 1_555 1_555
C12 N3 1_555 1_555
H9 C12 1_555 1_555
C13 N3 1_555 1_555
H10 C13 1_555 1_555
C14 C13 1_555 1_555
C15 C14 1_555 1_555
H11 C15 1_555 1_555
C16 C12 1_555 1_555
H12 C16 1_555 1_555
Cl1 O3 1_555 1_555
O4 Cl1 1_555 1_555
O5 Cl1 1_555 1_555
O6 Cl1 1_555 1_555
O7 H13 1_555 1_555
Cu1D O1 1_555 1_555
Cu1F O2 1_555 1_555
Cu1B O2D 1_555 1_555
N1D Cu1D 1_555 1_555
N2D Cu1D 1_555 1_555
N3D Cu1D 1_555 1_555
O1D Cu1 1_555 1_555
O2D C11D 1_555 1_555
O2F Cu1 1_555 1_555
O2B Cu1D 1_555 1_555
C1D N1D 1_555 1_555
H1D C1D 1_555 1_555
C2D C1D 1_555 1_555
H2D C2D 1_555 1_555
C3D C2D 1_555 1_555
H3D C3D 1_555 1_555
C4D C3D 1_555 1_555
H4D C4D 1_555 1_555
C5D N1D 1_555 1_555
C6D N2D 1_555 1_555
C7D C6D 1_555 1_555
H5D C7D 1_555 1_555
C8D C7D 1_555 1_555
H6D C8D 1_555 1_555
C9D N2D 1_555 1_555
H7D C9D 1_555 1_555
C10D C8D 1_555 1_555
H8D C10D 1_555 1_555
C11D O1D 1_555 1_555
C12D N3D 1_555 1_555
H9D C12D 1_555 1_555
C13D N3D 1_555 1_555
H10D C13D 1_555 1_555
C14D C11D 1_555 1_555
C15D C14D 1_555 1_555
H11D C15D 1_555 1_555
C16D C12D 1_555 1_555
H12D C16D 1_555 1_555
H13B O7 1_555 1_555
C4 C5 1_555 1_555
C5 C6 1_555 1_555
C9 C10 1_555 1_555
C15 C16 1_555 1_555
C4D C5D 1_555 1_555
C5D C6D 1_555 1_555
C9D C10D 1_555 1_555
C13D C14D 1_555 1_555
C15D C16D 1_555 1_555

#END
