
#######################################################################
#
#                 Cambridge Crystallographic Data Centre
#                                CCDC 
#
#######################################################################
#
# If this CIF has been generated from an entry in the Cambridge 
# Structural Database, then it will include bibliographic, chemical, 
# crystal, experimental, refinement or atomic coordinate data resulting 
# from the CCDC's data processing and validation procedures.
#
#######################################################################

data_KAPNUM
_symmetry_cell_setting           orthorhombic
_symmetry_space_group_name_H-M   'P n m a'
_symmetry_Int_Tables_number      62
_space_group_name_Hall           '-P 2ac 2n'
loop_
_symmetry_equiv_pos_site_id
_symmetry_equiv_pos_as_xyz
1 x,y,z
2 1/2-x,-y,1/2+z
3 -x,1/2+y,-z
4 1/2+x,1/2-y,1/2-z
5 -x,-y,-z
6 1/2+x,y,1/2-z
7 x,1/2-y,z
8 1/2-x,1/2+y,1/2+z
_cell_length_a                   16.906(3)
_cell_length_b                   8.3151(17)
_cell_length_c                   13.080(3)
_cell_angle_alpha                90
_cell_angle_beta                 90
_cell_angle_gamma                90
_cell_volume                     1838.72
loop_
_atom_site_label
_atom_site_type_symbol
_atom_site_fract_x
_atom_site_fract_y
_atom_site_fract_z
Cd1 Cd -0.43805(2) 0.2500 -0.31731(3)
Cd2 Cd -0.246790(14) -0.00217(3) -0.43915(2)
Cl1 Cl -0.34430(7) 0.2500 -0.48094(9)
Cl2 Cl -0.15400(7) -0.2500 -0.39725(10)
C1 C -0.5842(2) 0.1244(5) -0.4556(3)
H1 H -0.5697 0.0178 -0.4450
C2 C -0.0773(2) 0.1245(5) -0.3417(3)
H2 H -0.0621 0.0181 -0.3323
C3 C -0.2564(2) -0.0370(6) -0.1915(3)
H3 H -0.2047 -0.0755 -0.1927
C4 C -0.3658(2) 0.0405(5) -0.1402(3)
H4 H -0.4079 0.0680 -0.0978
N1 N -0.29720(19) -0.0146(4) -0.1053(2)
N2 N -0.5407(3) 0.2500 -0.4239(4)
N3 N -0.29605(19) 0.0004(4) -0.2745(2)
N4 N -0.64949(17) 0.1677(4) -0.5033(2)
N5 N -0.36866(18) 0.0526(4) -0.2406(2)
N6 N -0.0337(3) 0.2500 -0.3129(3)
N7 N -0.14467(17) 0.1677(4) -0.3851(2)
Cd1B Cd -0.56195(2) -0.2500 -0.68269(3)
Cd1C Cd 0.06195(2) 0.2500 -0.18269(3)
Cd2A Cd -0.253210(14) 0.00217(3) 0.06085(2)
Cd2F Cd -0.246790(14) 0.50217(3) -0.43915(2)
Cd2F_2 Cd -0.246790(14) -0.49783(3) -0.43915(2)
Cd2D Cd -0.753210(14) 0.00217(3) -0.56085(2)
Cd2B Cd -0.753210(14) 0.49783(3) -0.56085(2)
Cd2E Cd -0.746790(14) -0.00217(3) -1.06085(2)
Cl1B Cl -0.65570(7) -0.2500 -0.51906(9)
Cl2B Cl -0.84600(7) 0.2500 -0.60275(10)
C1F C -0.5842(2) 0.3756(5) -0.4556(3)
H1F H -0.5697 0.4822 -0.4450
C2F C -0.0773(2) 0.3755(5) -0.3417(3)
H2F H -0.0621 0.4819 -0.3323
C3D C -0.7436(2) 0.0370(6) -0.8085(3)
H3D H -0.7953 0.0755 -0.8073
C4D C -0.6342(2) -0.0405(5) -0.8598(3)
H4D H -0.5921 -0.0680 -0.9022
N1A N -0.20280(19) 0.0146(4) -0.6053(2)
N1E N -0.79720(19) -0.0146(4) -0.3947(2)
N1D N -0.70280(19) 0.0146(4) -0.8947(2)
N3D N -0.70395(19) -0.0004(4) -0.7255(2)
N4F N -0.64949(17) 0.3323(4) -0.5033(2)
N4D N -0.35051(17) -0.1677(4) -0.4967(2)
N5F N -0.36866(18) 0.4474(4) -0.2406(2)
N5D N -0.63134(18) -0.0526(4) -0.7594(2)
N6C N -0.5337(3) 0.2500 -0.1871(3)
N7F N -0.14467(17) 0.3323(4) -0.3851(2)
N7D N -0.85533(17) -0.1677(4) -0.6149(2)
O1 O -0.9929(18) 0.2500 0.190(2)
H5? H -1.0386 0.2665 0.2147
H6? H -0.9696 0.3254 0.2218
loop_
_geom_bond_atom_site_label_1
_geom_bond_atom_site_label_2
_geom_bond_site_symmetry_1
_geom_bond_site_symmetry_2
Cd1 Cl1 1_555 1_555
Cd2 Cl1 1_555 1_555
Cl1 Cd2F 1_555 1_555
Cl2 Cd2 1_555 1_555
C1 H1 1_555 1_555
C2 H2 1_555 1_555
C3 H3 1_555 1_555
C4 H4 1_555 1_555
N1 C3 1_555 1_555
N2 Cd1 1_555 1_555
N3 Cd2 1_555 1_555
N4 C1 1_555 1_555
N5 Cd1 1_555 1_555
N6 C2 1_555 1_555
N7 Cd2 1_555 1_555
Cd1B Cl1B 1_555 1_555
Cd1C N6 1_555 1_555
Cd2A N1 1_555 1_555
Cd2F N7F 1_555 1_555
Cd2F_2 Cl2 1_555 1_555
Cd2D N4 1_555 1_555
Cd2B Cl2B 1_555 1_555
Cd2E N1D 1_555 1_555
Cl1B Cd2D 1_555 1_555
Cl2B Cd2D 1_555 1_555
C1F N2 1_555 1_555
H1F C1F 1_555 1_555
C2F N6 1_555 1_555
H2F C2F 1_555 1_555
C3D H3D 1_555 1_555
C4D H4D 1_555 1_555
N1A Cd2 1_555 1_555
N1E Cd2D 1_555 1_555
N1D C3D 1_555 1_555
N3D Cd2D 1_555 1_555
N4F N4 1_555 1_555
N4D Cd2 1_555 1_555
N5F Cd1 1_555 1_555
N5D Cd1B 1_555 1_555
N6C Cd1 1_555 1_555
N7F N7 1_555 1_555
N7D Cd2D 1_555 1_555
C1 N2 1_555 1_555
C2 N7 1_555 1_555
C3 N3 1_555 1_555
C4 N1 1_555 1_555
C4 N5 1_555 1_555
N3 N5 1_555 1_555
Cd2B N4F 1_555 1_555
C1F N4F 1_555 1_555
C2F N7F 1_555 1_555
C3D N3D 1_555 1_555
C4D N1D 1_555 1_555
C4D N5D 1_555 1_555
N3D N5D 1_555 1_555

#END
