
#######################################################################
#
#                 Cambridge Crystallographic Data Centre
#                                CCDC 
#
#######################################################################
#
# If this CIF has been generated from an entry in the Cambridge 
# Structural Database, then it will include bibliographic, chemical, 
# crystal, experimental, refinement or atomic coordinate data resulting 
# from the CCDC's data processing and validation procedures.
#
#######################################################################

data_KAPQUP
_symmetry_cell_setting           cubic
_symmetry_space_group_name_H-M   'P a -3'
_symmetry_Int_Tables_number      205
_space_group_name_Hall           '-P 2ac 2ab 3'
loop_
_symmetry_equiv_pos_site_id
_symmetry_equiv_pos_as_xyz
1 x,y,z
2 1/2-x,-y,1/2+z
3 1/2+x,1/2-y,-z
4 -x,1/2+y,1/2-z
5 z,x,y
6 1/2-z,-x,1/2+y
7 1/2+z,1/2-x,-y
8 -z,1/2+x,1/2-y
9 y,z,x
10 1/2+y,1/2-z,-x
11 -y,1/2+z,1/2-x
12 1/2-y,-z,1/2+x
13 -x,-y,-z
14 1/2+x,y,1/2-z
15 1/2-x,1/2+y,z
16 x,1/2-y,1/2+z
17 -z,-x,-y
18 1/2+z,x,1/2-y
19 1/2-z,1/2+x,y
20 z,1/2-x,1/2+y
21 -y,-z,-x
22 1/2-y,1/2+z,x
23 y,1/2-z,1/2+x
24 1/2+y,z,1/2-x
_cell_length_a                   14.459(3)
_cell_length_b                   14.459(3)
_cell_length_c                   14.459(3)
_cell_angle_alpha                90
_cell_angle_beta                 90
_cell_angle_gamma                90
_cell_volume                     3022.84
loop_
_atom_site_label
_atom_site_type_symbol
_atom_site_fract_x
_atom_site_fract_y
_atom_site_fract_z
I1 I -0.21428(4) 0.02264(4) -0.02885(4)
Cu1 Cu -0.10290(8) -0.10290(8) -0.10290(8)
Cu2 Cu -0.0637(3) -0.0349(3) 0.0602(3)
N1 N -0.1888(4) -0.1888(4) -0.1888(4)
C1 C -0.1418(6) -0.2758(6) -0.2135(6)
H1 H -0.0881 -0.2619 -0.2512
H2 H -0.1203 -0.3058 -0.1574
N2 N -0.2922(4) -0.2922(4) -0.2922(4)
C2 C -0.2050(6) -0.3424(5) -0.2664(6)
H3 H -0.2196 -0.3954 -0.2280
H4 H -0.1739 -0.3643 -0.3216
C3 C -0.3515(6) -0.3515(6) -0.3515(6)
H5 H -0.3678 -0.4066 -0.3183
I1H I 0.02264(4) -0.02885(4) -0.21428(4)
I1D I -0.02885(4) -0.21428(4) 0.02264(4)
I1T I -0.02264(4) 0.02885(4) 0.21428(4)
I1P I 0.02885(4) 0.21428(4) -0.02264(4)
I1L I 0.21428(4) -0.02264(4) 0.02885(4)
Cu2H Cu -0.0349(3) 0.0602(3) -0.0637(3)
Cu2D Cu 0.0602(3) -0.0637(3) -0.0349(3)
Cu2P Cu -0.0602(3) 0.0637(3) 0.0349(3)
Cu2T Cu 0.0349(3) -0.0602(3) 0.0637(3)
Cu2L Cu 0.0637(3) 0.0349(3) -0.0602(3)
C1D C -0.2135(6) -0.1418(6) -0.2758(6)
C1H C -0.2758(6) -0.2135(6) -0.1418(6)
H1H H -0.2619 -0.2512 -0.0881
H1D H -0.2512 -0.0881 -0.2619
H2H H -0.3058 -0.1574 -0.1203
H2D H -0.1574 -0.1203 -0.3058
C2D C -0.2664(6) -0.2050(6) -0.3424(5)
C2H C -0.3424(5) -0.2664(6) -0.2050(6)
H3H H -0.3954 -0.2280 -0.2196
H3D H -0.2280 -0.2196 -0.3954
H4H H -0.3643 -0.3216 -0.1739
H4D H -0.3216 -0.1739 -0.3643
H5D H -0.3183 -0.3678 -0.4066
H5H H -0.4066 -0.3183 -0.3678
loop_
_geom_bond_atom_site_label_1
_geom_bond_atom_site_label_2
_geom_bond_site_symmetry_1
_geom_bond_site_symmetry_2
I1 Cu1 1_555 1_555
Cu1 Cu2 1_555 1_555
Cu2 I1 1_555 1_555
N1 Cu1 1_555 1_555
C1 N1 1_555 1_555
H1 C1 1_555 1_555
H2 C1 1_555 1_555
N2 C2 1_555 1_555
C2 C1 1_555 1_555
H3 C2 1_555 1_555
H4 C2 1_555 1_555
C3 N2 1_555 1_555
H5 C3 1_555 1_555
I1H Cu1 1_555 1_555
I1D Cu1 1_555 1_555
I1T Cu2 1_555 1_555
I1P Cu2H 1_555 1_555
I1L Cu2D 1_555 1_555
Cu2H I1 1_555 1_555
Cu2D Cu1 1_555 1_555
Cu2P I1 1_555 1_555
Cu2T Cu2 1_555 1_555
Cu2L I1H 1_555 1_555
C1D N1 1_555 1_555
C1H N1 1_555 1_555
H1H C1H 1_555 1_555
H1D C1D 1_555 1_555
H2H C1H 1_555 1_555
H2D C1D 1_555 1_555
C2D N2 1_555 1_555
C2H N2 1_555 1_555
H3H C2H 1_555 1_555
H3D C2D 1_555 1_555
H4H C2H 1_555 1_555
H4D C2D 1_555 1_555
H5D C3 1_555 1_555
H5H C3 1_555 1_555
Cu1 Cu2H 1_555 1_555
Cu2 I1D 1_555 1_555
Cu2 Cu2H 1_555 1_555
Cu2 Cu2D 1_555 1_555
Cu2 Cu2P 1_555 1_555
I1H Cu2H 1_555 1_555
I1H Cu2D 1_555 1_555
I1D Cu2D 1_555 1_555
I1D Cu2T 1_555 1_555
I1T Cu2P 1_555 1_555
I1T Cu2T 1_555 1_555
I1P Cu2P 1_555 1_555
I1P Cu2L 1_555 1_555
I1L Cu2T 1_555 1_555
I1L Cu2L 1_555 1_555
Cu2H Cu2D 1_555 1_555
Cu2H Cu2P 1_555 1_555
Cu2H Cu2L 1_555 1_555
Cu2D Cu2T 1_555 1_555
Cu2D Cu2L 1_555 1_555
Cu2P Cu2T 1_555 1_555
Cu2P Cu2L 1_555 1_555
Cu2T Cu2L 1_555 1_555
C1D C2D 1_555 1_555
C1H C2H 1_555 1_555

#END
