
#######################################################################
#
#                 Cambridge Crystallographic Data Centre
#                                CCDC 
#
#######################################################################
#
# If this CIF has been generated from an entry in the Cambridge 
# Structural Database, then it will include bibliographic, chemical, 
# crystal, experimental, refinement or atomic coordinate data resulting 
# from the CCDC's data processing and validation procedures.
#
#######################################################################

data_KAPQOJ
_symmetry_cell_setting           monoclinic
_symmetry_space_group_name_H-M   'P 21/c'
_symmetry_Int_Tables_number      14
_space_group_name_Hall           '-P 2ybc'
loop_
_symmetry_equiv_pos_site_id
_symmetry_equiv_pos_as_xyz
1 x,y,z
2 -x,1/2+y,1/2-z
3 -x,-y,-z
4 x,1/2-y,1/2+z
_cell_length_a                   4.3222(4)
_cell_length_b                   19.161(2)
_cell_length_c                   9.5867(12)
_cell_angle_alpha                90
_cell_angle_beta                 96.465(8)
_cell_angle_gamma                90
_cell_volume                     788.899
loop_
_atom_site_label
_atom_site_type_symbol
_atom_site_fract_x
_atom_site_fract_y
_atom_site_fract_z
Cu1 Cu 0.3001(3) 0.50507(7) 1.10118(14)
I1 I 0.20230(14) 0.41055(3) 0.89673(7)
N1 N 0.3381(17) 0.4528(4) 1.2869(8)
N2 N 0.1900(19) 0.4745(4) 1.3923(9)
N3 N 0.2526(17) 0.4315(4) 1.5000(8)
H1 H 0.1781 0.4357 1.5791
C1 C 0.701(2) 0.3505(6) 1.2608(11)
H2 H 0.7381 0.3594 1.1688
C2 C 0.829(2) 0.2947(6) 1.3339(11)
H3 H 0.9627 0.2652 1.2920
C3 C 0.764(3) 0.2807(6) 1.4717(12)
H4 H 0.8533 0.2412 1.5161
C4 C 0.583(3) 0.3205(6) 1.5428(12)
H5 H 0.5453 0.3103 1.6343
C5 C 0.452(2) 0.3794(5) 1.4690(10)
C6 C 0.511(2) 0.3932(5) 1.3312(10)
Cu1B Cu -0.3001(3) 0.49493(7) 0.89882(14)
Cu1B_2 Cu 0.6999(3) 0.49493(7) 0.89882(14)
I1B I -0.20230(14) 0.58945(3) 1.10327(7)
I1B_2 I 0.79770(14) 0.58945(3) 1.10327(7)
loop_
_geom_bond_atom_site_label_1
_geom_bond_atom_site_label_2
_geom_bond_site_symmetry_1
_geom_bond_site_symmetry_2
Cu1 I1 1_555 1_555
I1 Cu1B 1_555 1_555
N1 Cu1 1_555 1_555
N2 N1 1_555 1_555
N3 N2 1_555 1_555
H1 N3 1_555 1_555
C1 H2 1_555 1_555
C2 C1 1_555 1_555
H3 C2 1_555 1_555
C3 C2 1_555 1_555
H4 C3 1_555 1_555
C4 C3 1_555 1_555
H5 C4 1_555 1_555
C5 N3 1_555 1_555
C6 N1 1_555 1_555
Cu1B I1B 1_555 1_555
Cu1B_2 I1 1_555 1_555
I1B Cu1 1_555 1_555
I1B_2 Cu1 1_555 1_555
C1 C6 1_555 1_555
C4 C5 1_555 1_555
C5 C6 1_555 1_555
Cu1B_2 I1B_2 1_555 1_555

#END
