
#######################################################################
#
#                 Cambridge Crystallographic Data Centre
#                                CCDC 
#
#######################################################################
#
# If this CIF has been generated from an entry in the Cambridge 
# Structural Database, then it will include bibliographic, chemical, 
# crystal, experimental, refinement or atomic coordinate data resulting 
# from the CCDC's data processing and validation procedures.
#
#######################################################################

data_KAPROK
_symmetry_cell_setting           monoclinic
_symmetry_space_group_name_H-M   'P 21/c'
_symmetry_Int_Tables_number      14
_space_group_name_Hall           '-P 2ybc'
loop_
_symmetry_equiv_pos_site_id
_symmetry_equiv_pos_as_xyz
1 x,y,z
2 -x,1/2+y,1/2-z
3 -x,-y,-z
4 x,1/2-y,1/2+z
_cell_length_a                   17.881(15)
_cell_length_b                   11.321(9)
_cell_length_c                   23.143(19)
_cell_angle_alpha                90
_cell_angle_beta                 110.060(10)
_cell_angle_gamma                90
_cell_volume                     4400.64
loop_
_atom_site_label
_atom_site_type_symbol
_atom_site_fract_x
_atom_site_fract_y
_atom_site_fract_z
I1 I 0.93537(9) 0.63271(13) 0.53638(6)
I2 I 0.65787(7) 1.07250(10) 0.63328(7)
I3 I 0.71775(8) 0.45858(14) 0.74216(7)
Mo1 Mo 0.86171(5) 0.79081(7) 0.69499(4)
Cu1 Cu 0.84694(8) 0.65525(12) 0.59590(6)
Cu2 Cu 0.71001(7) 0.86450(12) 0.64011(6)
Cu3 Cu 0.81657(8) 0.61002(12) 0.75089(6)
S1 S 0.80618(16) 0.8475(2) 0.59566(13)
S2 S 0.76718(17) 0.7987(3) 0.73940(12)
S3 S 0.90233(15) 0.5998(2) 0.69683(11)
O1 O 0.9418(5) 0.8791(8) 0.7338(5)
N1 N 0.3941(5) 0.2249(9) 0.4038(4)
N2 N 0.7494(5) 0.5454(9) 0.5533(4)
N3 N 0.8935(5) 0.5824(8) 0.8450(4)
C1 C 0.4050(7) 0.3350(11) 0.3903(5)
H1 H 0.3627 0.3734 0.3613
C2 C 0.4760(7) 0.3985(12) 0.4165(6)
H2 H 0.4821 0.4727 0.4014
C3 C 0.4580(9) 0.1772(13) 0.4476(8)
H3 H 0.4555 0.0975 0.4566
C4 C 0.5225(8) 0.2338(12) 0.4779(8)
H4 H 0.5613 0.1958 0.5100
C5 C 0.5354(6) 0.3508(10) 0.4637(5)
C6 C 0.6102(6) 0.4167(10) 0.4949(5)
C7 C 0.6335(8) 0.5069(15) 0.4645(6)
H5 H 0.6029 0.5257 0.4242
C8 C 0.7035(9) 0.5702(17) 0.4949(6)
H6 H 0.7186 0.6310 0.4742
C9 C 0.6571(8) 0.3913(11) 0.5542(6)
H7 H 0.6435 0.3309 0.5760
C10 C 0.7275(7) 0.4603(10) 0.5817(5)
H8 H 0.7592 0.4434 0.6220
C11 C 0.8716(8) 0.6183(12) 0.8917(5)
H9 H 0.8271 0.6669 0.8823
C12 C 0.9090(8) 0.5896(12) 0.9524(5)
H10 H 0.8903 0.6174 0.9827
C13 C 0.9576(7) 0.5150(11) 0.8614(5)
H11 H 0.9751 0.4896 0.8300
C14 C 1.0001(7) 0.4793(11) 0.9185(5)
H12 H 1.0441 0.4306 0.9252
C15 C 0.9778(6) 0.5153(9) 0.9675(4)
I1B I 0.06463(9) 0.36729(13) 0.46362(6)
I2B I 0.34213(7) -0.07250(10) 0.36672(7)
I3B I 1.28225(8) 0.54142(14) 1.25784(7)
Mo1B Mo 0.13829(5) 0.20919(7) 0.30501(4)
Cu1B Cu 0.15306(8) 0.34475(12) 0.40410(6)
Cu2B Cu 0.28999(7) 0.13550(12) 0.35989(6)
Cu3B Cu 1.18343(8) 0.38998(12) 1.24911(6)
Cu3B_2 Cu 0.18343(8) 0.38998(12) 0.24911(6)
S1B S 0.19382(16) 0.1525(2) 0.40434(13)
S2B S 0.23282(17) 0.2013(3) 0.26060(12)
S2B_2 S 1.23282(17) 0.2013(3) 1.26060(12)
S3B S 0.09767(15) 0.4002(2) 0.30317(11)
S3B_2 S 1.09767(15) 0.4002(2) 1.30317(11)
O1B O 0.0582(5) 0.1209(8) 0.2662(5)
N1B N 0.6059(5) 0.7751(9) 0.5962(4)
N2B N 0.2506(5) 0.4546(9) 0.4467(4)
N3B N 1.1065(5) 0.4176(8) 1.1550(4)
C1B C 0.5950(7) 0.6650(11) 0.6097(5)
H1B H 0.6373 0.6266 0.6387
C2B C 0.5240(7) 0.6015(12) 0.5835(6)
H2B H 0.5179 0.5273 0.5986
C3B C 0.5420(9) 0.8228(13) 0.5524(8)
H3B H 0.5445 0.9025 0.5434
C4B C 0.4775(8) 0.7662(12) 0.5221(8)
H4B H 0.4387 0.8042 0.4900
C5B C 0.4646(6) 0.6492(10) 0.5363(5)
C6B C 0.3898(6) 0.5833(10) 0.5051(5)
C7B C 0.3665(8) 0.4931(15) 0.5355(6)
H5B H 0.3971 0.4743 0.5758
C8B C 0.2965(9) 0.4298(17) 0.5051(6)
H6B H 0.2814 0.3690 0.5258
C9B C 0.3429(8) 0.6087(11) 0.4458(6)
H7B H 0.3565 0.6691 0.4240
C10B C 0.2725(7) 0.5397(10) 0.4183(5)
H8B H 0.2408 0.5566 0.3780
C11B C 1.1284(8) 0.3817(12) 1.1083(5)
H9B H 1.1729 0.3331 1.1177
C12B C 1.0910(8) 0.4104(12) 1.0476(5)
H10B H 1.1097 0.3826 1.0173
C13B C 1.0424(7) 0.4850(11) 1.1386(5)
H11B H 1.0249 0.5104 1.1700
C14B C 0.9999(7) 0.5207(11) 1.0815(5)
H12B H 0.9559 0.5694 1.0748
C15B C 1.0222(6) 0.4847(9) 1.0325(4)
N4 N 0.8865(8) 1.2177(13) 0.6290(7)
N5 N 0.8493(8) 1.1465(12) 0.8112(6)
C16 C 0.8760(17) 1.264(2) 0.5121(13)
H13 H 0.8758 1.2842 0.4731
C17 C 0.9325(17) 1.3103(17) 0.5651(13)
H14 H 0.9696 1.3617 0.5588
C18 C 0.9408(13) 1.2892(18) 0.6267(13)
H15 H 0.9797 1.3221 0.6606
C19 C 0.8194(17) 1.186(2) 0.5204(11)
H16 H 0.7799 1.1522 0.4873
C20 C 0.8259(10) 1.1635(14) 0.5812(9)
H17 H 0.7901 1.1127 0.5898
C21 C 0.8944(15) 1.1695(17) 0.6911(8)
H18 H 0.9498 1.1544 0.7151
H19 H 0.8648 1.0964 0.6872
C22 C 0.8599(15) 1.2655(17) 0.7219(10)
H20 H 0.8778 1.3426 0.7137
H21 H 0.8022 1.2641 0.7045
C23 C 0.8862(11) 1.246(2) 0.7919(10)
H22 H 0.9434 1.2351 0.8077
H23 H 0.8745 1.3172 0.8106
C24 C 0.7679(9) 1.1513(18) 0.8008(10)
H24 H 0.7364 1.2103 0.7763
C25 C 0.7349(17) 1.0658(17) 0.8280(9)
H25 H 0.6805 1.0701 0.8205
C26 C 0.7765(16) 0.975(2) 0.8652(9)
H26 H 0.7529 0.9187 0.8829
C27 C 0.8578(18) 0.976(2) 0.8732(11)
H27 H 0.8893 0.9173 0.8978
C28 C 0.8953(12) 1.0581(14) 0.8477(7)
H28 H 0.9497 1.0537 0.8549
loop_
_geom_bond_atom_site_label_1
_geom_bond_atom_site_label_2
_geom_bond_site_symmetry_1
_geom_bond_site_symmetry_2
I1 Cu1 1_555 1_555
I2 Cu2 1_555 1_555
I3 Cu3 1_555 1_555
Mo1 S1 1_555 1_555
Cu1 S1 1_555 1_555
Cu2 S1 1_555 1_555
Cu3 S2 1_555 1_555
S2 Mo1 1_555 1_555
S3 Mo1 1_555 1_555
O1 Mo1 1_555 1_555
N1 C1 1_555 1_555
N2 Cu1 1_555 1_555
N3 Cu3 1_555 1_555
C1 H1 1_555 1_555
C2 C1 1_555 1_555
H2 C2 1_555 1_555
C3 N1 1_555 1_555
H3 C3 1_555 1_555
C4 C3 1_555 1_555
H4 C4 1_555 1_555
C5 C2 1_555 1_555
C6 C5 1_555 1_555
C7 C6 1_555 1_555
H5 C7 1_555 1_555
C8 N2 1_555 1_555
H6 C8 1_555 1_555
C9 C6 1_555 1_555
H7 C9 1_555 1_555
C10 N2 1_555 1_555
H8 C10 1_555 1_555
C11 N3 1_555 1_555
H9 C11 1_555 1_555
C12 C11 1_555 1_555
H10 C12 1_555 1_555
C13 N3 1_555 1_555
H11 C13 1_555 1_555
C14 C13 1_555 1_555
H12 C14 1_555 1_555
C15 C12 1_555 1_555
N4 C18 1_555 1_555
N5 C23 1_555 1_555
C16 H13 1_555 1_555
C17 C16 1_555 1_555
H14 C17 1_555 1_555
C18 C17 1_555 1_555
H15 C18 1_555 1_555
C19 C16 1_555 1_555
H16 C19 1_555 1_555
C20 N4 1_555 1_555
H17 C20 1_555 1_555
C21 N4 1_555 1_555
H18 C21 1_555 1_555
H19 C21 1_555 1_555
C22 C21 1_555 1_555
H20 C22 1_555 1_555
H21 C22 1_555 1_555
C23 C22 1_555 1_555
H22 C23 1_555 1_555
H23 C23 1_555 1_555
C24 N5 1_555 1_555
H24 C24 1_555 1_555
C25 C24 1_555 1_555
H25 C25 1_555 1_555
C26 C25 1_555 1_555
H26 C26 1_555 1_555
C27 C26 1_555 1_555
H27 C27 1_555 1_555
C28 N5 1_555 1_555
H28 C28 1_555 1_555
I1B Cu1B 1_555 1_555
I2B Cu2B 1_555 1_555
I3B Cu3B 1_555 1_555
Mo1B S1B 1_555 1_555
Cu1B S1B 1_555 1_555
Cu2B N1 1_555 1_555
Cu3B S2B_2 1_555 1_555
Cu3B_2 S2B 1_555 1_555
S1B Cu2B 1_555 1_555
S2B Mo1B 1_555 1_555
S3B Mo1B 1_555 1_555
S3B_2 Cu3B 1_555 1_555
O1B Mo1B 1_555 1_555
N1B Cu2 1_555 1_555
N2B Cu1B 1_555 1_555
N3B Cu3B 1_555 1_555
C1B N1B 1_555 1_555
H1B C1B 1_555 1_555
C2B C1B 1_555 1_555
H2B C2B 1_555 1_555
C3B N1B 1_555 1_555
H3B C3B 1_555 1_555
C4B C3B 1_555 1_555
H4B C4B 1_555 1_555
C5B C2B 1_555 1_555
C6B C5B 1_555 1_555
C7B C6B 1_555 1_555
H5B C7B 1_555 1_555
C8B N2B 1_555 1_555
H6B C8B 1_555 1_555
C9B C6B 1_555 1_555
H7B C9B 1_555 1_555
C10B N2B 1_555 1_555
H8B C10B 1_555 1_555
C11B N3B 1_555 1_555
H9B C11B 1_555 1_555
C12B C11B 1_555 1_555
H10B C12B 1_555 1_555
C13B N3B 1_555 1_555
H11B C13B 1_555 1_555
C14B C13B 1_555 1_555
H12B C14B 1_555 1_555
C15B C15 1_555 1_555
Cu1 S3 1_555 1_555
Cu2 S2 1_555 1_555
Cu3 S3 1_555 1_555
C4 C5 1_555 1_555
C7 C8 1_555 1_555
C9 C10 1_555 1_555
C14 C15 1_555 1_555
C19 C20 1_555 1_555
C27 C28 1_555 1_555
Cu1B S3B 1_555 1_555
Cu2B S2B 1_555 1_555
Cu3B_2 S3B 1_555 1_555
C4B C5B 1_555 1_555
C7B C8B 1_555 1_555
C9B C10B 1_555 1_555
C12B C15B 1_555 1_555
C14B C15B 1_555 1_555

#END
