
#######################################################################
#
#                 Cambridge Crystallographic Data Centre
#                                CCDC 
#
#######################################################################
#
# If this CIF has been generated from an entry in the Cambridge 
# Structural Database, then it will include bibliographic, chemical, 
# crystal, experimental, refinement or atomic coordinate data resulting 
# from the CCDC's data processing and validation procedures.
#
#######################################################################

data_KAPRUQ
_symmetry_cell_setting           monoclinic
_symmetry_space_group_name_H-M   'P 21/c'
_symmetry_Int_Tables_number      14
_space_group_name_Hall           '-P 2ybc'
loop_
_symmetry_equiv_pos_site_id
_symmetry_equiv_pos_as_xyz
1 x,y,z
2 -x,1/2+y,1/2-z
3 -x,-y,-z
4 x,1/2-y,1/2+z
_cell_length_a                   18.0654(19)
_cell_length_b                   11.0899(11)
_cell_length_c                   22.772(2)
_cell_angle_alpha                90
_cell_angle_beta                 108.6530(10)
_cell_angle_gamma                90
_cell_volume                     4322.58
loop_
_atom_site_label
_atom_site_type_symbol
_atom_site_fract_x
_atom_site_fract_y
_atom_site_fract_z
I1 I 0.92572(10) 0.61506(16) 0.53110(8)
I2 I 0.65860(9) 1.07862(13) 0.63148(8)
I3 I 0.71409(8) 0.44722(13) 0.74565(7)
Mo1 Mo 0.85909(5) 0.78381(9) 0.69369(4)
Cu1 Cu 0.83605(9) 0.65116(14) 0.59086(7)
Cu2 Cu 0.71290(8) 0.86993(14) 0.64392(7)
Cu3 Cu 0.80991(8) 0.60359(13) 0.75127(6)
S1 S 0.80531(18) 0.8498(3) 0.59531(14)
S2 S 0.76928(18) 0.8004(3) 0.74312(14)
S3 S 0.88873(16) 0.5855(3) 0.69111(13)
O1 O 0.9410(5) 0.8641(8) 0.7322(5)
N1 N 0.7362(6) 0.5550(11) 0.5482(5)
N2 N 0.3895(6) 0.2267(12) 0.3997(5)
N3 N 0.8887(6) 0.5739(9) 0.8448(4)
C1 C 0.6902(11) 0.585(2) 0.4915(9)
H1 H 0.7007 0.6530 0.4718
C2 C 0.6241(12) 0.509(2) 0.4614(9)
H2 H 0.5973 0.5233 0.4197
C3 C 0.7093(15) 0.467(2) 0.5752(8)
H3 H 0.7378 0.4473 0.6158
C4 C 0.6412(16) 0.404(3) 0.5467(9)
H4 H 0.6249 0.3459 0.5695
C5 C 0.5993(7) 0.4220(12) 0.4891(6)
C6 C 0.5260(7) 0.3541(12) 0.4577(6)
C7 C 0.4719(11) 0.3890(16) 0.4010(8)
H5 H 0.4811 0.4563 0.3800
C8 C 0.4087(10) 0.3257(14) 0.3783(7)
H6 H 0.3727 0.3553 0.3422
C9 C 0.5069(10) 0.248(2) 0.4801(10)
H7 H 0.5372 0.2211 0.5190
C10 C 0.4458(12) 0.183(3) 0.4472(11)
H8 H 0.4427 0.1034 0.4583
C11 C 0.9478(7) 0.4998(14) 0.8573(5)
H9 H 0.9606 0.4664 0.8243
C12 C 0.9928(8) 0.4681(12) 0.9171(5)
H10 H 1.0338 0.4137 0.9232
C13 C 0.9769(7) 0.5167(10) 0.9672(5)
C14 C 0.9125(10) 0.5925(15) 0.9527(6)
H11 H 0.8972 0.6254 0.9846
C15 C 0.8725(9) 0.6191(16) 0.8947(7)
H12 H 0.8306 0.6721 0.8877
I1B I 0.07428(10) 0.38494(16) 0.46890(8)
I2B I 0.34140(9) -0.07862(13) 0.36852(8)
I3B I 1.28591(8) 0.55278(13) 1.25435(7)
Mo1B Mo 0.14091(5) 0.21619(9) 0.30631(4)
Cu1B Cu 0.16395(9) 0.34884(14) 0.40914(7)
Cu2B Cu 0.28710(8) 0.13007(14) 0.35608(7)
Cu3B Cu 1.19009(8) 0.39641(13) 1.24873(6)
Cu3B_2 Cu 0.19009(8) 0.39641(13) 0.24873(6)
S1B S 0.19469(18) 0.1502(3) 0.40469(14)
S2B S 0.23072(18) 0.1996(3) 0.25688(14)
S2B_2 S 1.23072(18) 0.1996(3) 1.25688(14)
S3B S 0.11127(16) 0.4145(3) 0.30889(13)
S3B_2 S 1.11127(16) 0.4145(3) 1.30889(13)
O1B O 0.0590(5) 0.1359(8) 0.2678(5)
N1B N 0.2638(6) 0.4450(11) 0.4518(5)
N2B N 0.6105(6) 0.7733(12) 0.6003(5)
N3B N 1.1113(6) 0.4261(9) 1.1552(4)
C1B C 0.3098(11) 0.415(2) 0.5085(9)
H1B H 0.2993 0.3470 0.5282
C2B C 0.3759(12) 0.491(2) 0.5386(9)
H2B H 0.4027 0.4767 0.5803
C3B C 0.2907(15) 0.533(2) 0.4248(8)
H3B H 0.2622 0.5527 0.3842
C4B C 0.3588(16) 0.596(3) 0.4533(9)
H4B H 0.3751 0.6541 0.4305
C5B C 0.4007(7) 0.5780(12) 0.5109(6)
C6B C 0.4740(7) 0.6459(12) 0.5423(6)
C7B C 0.5281(11) 0.6110(16) 0.5990(8)
H5B H 0.5189 0.5437 0.6200
C8B C 0.5913(10) 0.6743(14) 0.6217(7)
H6B H 0.6273 0.6447 0.6578
C9B C 0.4931(10) 0.752(2) 0.5199(10)
H7B H 0.4628 0.7789 0.4810
C10B C 0.5542(12) 0.817(3) 0.5528(11)
H8B H 0.5573 0.8966 0.5417
C11B C 1.0522(7) 0.5002(14) 1.1427(5)
H9B H 1.0394 0.5336 1.1757
C12B C 1.0072(8) 0.5319(12) 1.0829(5)
H10B H 0.9662 0.5863 1.0768
C13B C 1.0231(7) 0.4833(10) 1.0328(5)
C14B C 1.0875(10) 0.4075(15) 1.0473(6)
H11B H 1.1028 0.3746 1.0154
C15B C 1.1275(9) 0.3809(16) 1.1053(7)
H12B H 1.1694 0.3279 1.1123
N4 N 0.8048(12) 1.1199(18) 0.8434(9)
C16 C 0.8276(13) 1.222(2) 0.5340(10)
C17 C 0.8937(16) 1.282(3) 0.530(2)
C18 C 0.957(2) 1.316(3) 0.5813(18)
C19 C 0.9825(19) 1.311(3) 0.6461(19)
C20 C 0.874(3) 1.158(2) 0.7827(15)
H13 H 0.8335 1.0986 0.7682
H14 H 0.9237 1.1152 0.7964
C21 C 0.8633(13) 1.221(2) 0.8400(10)
H15 H 0.8396 1.3007 0.8313
H16 H 0.9103 1.2237 0.8757
C22 C 0.823(2) 1.024(3) 0.878(2)
H17 H 0.8760 1.0072 0.8960
C23 C 0.780(2) 0.960(3) 0.8892(15)
H18 H 0.7993 0.9081 0.9225
C24 C 0.7002(19) 0.955(4) 0.8556(17)
H19 H 0.6646 0.9048 0.8653
C25 C 0.6815(17) 1.035(3) 0.8060(16)
H20 H 0.6323 1.0437 0.7768
C26 C 0.7480(17) 1.099(3) 0.8070(10)
H21 H 0.7443 1.1325 0.7687
N5 N 0.9119(17) 1.2510(18) 0.6394(7)
C27 C 0.9039(15) 1.1570(17) 0.6836(9)
H22 H 0.9536 1.1196 0.7057
H23 H 0.8662 1.0955 0.6634
C28 C 0.8741(11) 1.2384(18) 0.7261(10)
H24 H 0.8217 1.2669 0.7044
H25 H 0.9082 1.3076 0.7398
C29 C 0.8421(18) 1.207(2) 0.5978(10)
C30? C 0.8421(18) 1.207(2) 0.5978(10)
loop_
_geom_bond_atom_site_label_1
_geom_bond_atom_site_label_2
_geom_bond_site_symmetry_1
_geom_bond_site_symmetry_2
I1 Cu1 1_555 1_555
I2 Cu2 1_555 1_555
I3 Cu3 1_555 1_555
Mo1 S1 1_555 1_555
Cu1 S1 1_555 1_555
Cu2 S1 1_555 1_555
Cu3 S2 1_555 1_555
S2 Mo1 1_555 1_555
S3 Mo1 1_555 1_555
O1 Mo1 1_555 1_555
N1 Cu1 1_555 1_555
N2 C8 1_555 1_555
N3 Cu3 1_555 1_555
C1 N1 1_555 1_555
H1 C1 1_555 1_555
C2 C1 1_555 1_555
H2 C2 1_555 1_555
C3 N1 1_555 1_555
H3 C3 1_555 1_555
C4 C3 1_555 1_555
H4 C4 1_555 1_555
C5 C2 1_555 1_555
C6 C5 1_555 1_555
C7 C6 1_555 1_555
H5 C7 1_555 1_555
C8 C7 1_555 1_555
H6 C8 1_555 1_555
C9 C6 1_555 1_555
H7 C9 1_555 1_555
C10 N2 1_555 1_555
H8 C10 1_555 1_555
C11 N3 1_555 1_555
H9 C11 1_555 1_555
C12 C11 1_555 1_555
H10 C12 1_555 1_555
C13 C12 1_555 1_555
C14 C13 1_555 1_555
H11 C14 1_555 1_555
C15 N3 1_555 1_555
H12 C15 1_555 1_555
N4 C21 1_555 1_555
C16 C17 1_555 1_555
C17 C18 1_555 1_555
C18 C19 1_555 1_555
C19 N5 1_555 1_555
C20 H13 1_555 1_555
H14 C20 1_555 1_555
C21 C20 1_555 1_555
H15 C21 1_555 1_555
H16 C21 1_555 1_555
C22 N4 1_555 1_555
H17 C22 1_555 1_555
C23 C22 1_555 1_555
H18 C23 1_555 1_555
C24 C23 1_555 1_555
H19 C24 1_555 1_555
C25 C24 1_555 1_555
H20 C25 1_555 1_555
C26 N4 1_555 1_555
H21 C26 1_555 1_555
N5 C27 1_555 1_555
C27 H22 1_555 1_555
H23 C27 1_555 1_555
C28 C20 1_555 1_555
H24 C28 1_555 1_555
H25 C28 1_555 1_555
C29 C16 1_555 1_555
I1B Cu1B 1_555 1_555
I2B Cu2B 1_555 1_555
I3B Cu3B 1_555 1_555
Mo1B S1B 1_555 1_555
Cu1B S1B 1_555 1_555
Cu2B N2 1_555 1_555
Cu3B S2B_2 1_555 1_555
Cu3B_2 S2B 1_555 1_555
S1B Cu2B 1_555 1_555
S2B Mo1B 1_555 1_555
S3B Mo1B 1_555 1_555
S3B_2 Cu3B 1_555 1_555
O1B Mo1B 1_555 1_555
N1B Cu1B 1_555 1_555
N2B Cu2 1_555 1_555
N3B Cu3B 1_555 1_555
C1B N1B 1_555 1_555
H1B C1B 1_555 1_555
C2B C1B 1_555 1_555
H2B C2B 1_555 1_555
C3B N1B 1_555 1_555
H3B C3B 1_555 1_555
C4B C3B 1_555 1_555
H4B C4B 1_555 1_555
C5B C2B 1_555 1_555
C6B C5B 1_555 1_555
C7B C6B 1_555 1_555
H5B C7B 1_555 1_555
C8B N2B 1_555 1_555
H6B C8B 1_555 1_555
C9B C6B 1_555 1_555
H7B C9B 1_555 1_555
C10B N2B 1_555 1_555
H8B C10B 1_555 1_555
C11B N3B 1_555 1_555
H9B C11B 1_555 1_555
C12B C11B 1_555 1_555
H10B C12B 1_555 1_555
C13B C13 1_555 1_555
C14B C13B 1_555 1_555
H11B C14B 1_555 1_555
C15B N3B 1_555 1_555
H12B C15B 1_555 1_555
Cu1 S3 1_555 1_555
Cu2 S2 1_555 1_555
Cu3 S3 1_555 1_555
C4 C5 1_555 1_555
C9 C10 1_555 1_555
C14 C15 1_555 1_555
C25 C26 1_555 1_555
N5 C29 1_555 1_555
C27 C28 1_555 1_555
Cu1B S3B 1_555 1_555
Cu2B S2B 1_555 1_555
Cu3B_2 S3B 1_555 1_555
C4B C5B 1_555 1_555
C7B C8B 1_555 1_555
C9B C10B 1_555 1_555
C12B C13B 1_555 1_555
C14B C15B 1_555 1_555

#END
