
#######################################################################
#
#                 Cambridge Crystallographic Data Centre
#                                CCDC 
#
#######################################################################
#
# If this CIF has been generated from an entry in the Cambridge 
# Structural Database, then it will include bibliographic, chemical, 
# crystal, experimental, refinement or atomic coordinate data resulting 
# from the CCDC's data processing and validation procedures.
#
#######################################################################

data_KAPRAW
_symmetry_cell_setting           monoclinic
_symmetry_space_group_name_H-M   'P 21/n'
_symmetry_Int_Tables_number      14
_space_group_name_Hall           '-P 2yn'
loop_
_symmetry_equiv_pos_site_id
_symmetry_equiv_pos_as_xyz
1 x,y,z
2 1/2-x,1/2+y,1/2-z
3 -x,-y,-z
4 1/2+x,1/2-y,1/2+z
_cell_length_a                   12.923
_cell_length_b                   25.052
_cell_length_c                   21.436
_cell_angle_alpha                90
_cell_angle_beta                 97.46
_cell_angle_gamma                90
_cell_volume                     6881.1
loop_
_atom_site_label
_atom_site_type_symbol
_atom_site_fract_x
_atom_site_fract_y
_atom_site_fract_z
O2 O 0.5678(10) 0.2904(4) 0.0466(6)
H3 H 0.5261 0.2722 0.0211
H4 H 0.6127 0.3088 0.0304
O3 O -0.4801(10) 0.2778(6) 0.4321(5)
H5 H -0.5046 0.3018 0.4541
H6 H -0.5222 0.2516 0.4287
O4 O -0.4232(11) 0.3878(5) 0.1069(6)
H7 H -0.4772 0.3972 0.0826
H8 H -0.3693 0.3798 0.0900
O5 O -0.3464(12) 0.4903(7) 0.5190(6)
H9 H -0.3732 0.4668 0.5406
H10 H -0.3789 0.5195 0.5224
O6 O -0.0479(13) 0.5092(6) 0.5866(6)
H11 H -0.0454 0.5176 0.6252
H12 H -0.0260 0.5360 0.5679
O7 O 0.4941(13) 0.1998(7) 0.5606(7)
H13 H 0.5591 0.2061 0.5685
H14 H 0.4751 0.1710 0.5416
O8 O -0.2519(13) 0.5036(7) 0.8908(9)
H15 H -0.2683 0.4902 0.9245
H16 H -0.3023 0.5187 0.8680
O9 O 0.0302(16) 0.5743(9) 0.9000(9)
H17 H 0.0705 0.5644 0.9325
H18 H 0.0248 0.6081 0.9002
O10 O 0.3482(16) 0.3167(8) 0.5115(7)
H19 H 0.4016 0.3263 0.4951
H20 H 0.3363 0.2837 0.5052
O11 O 0.1460(13) 0.3896(7) 0.4687(10)
H21 H 0.1472 0.3913 0.4292
H22 H 0.1676 0.4200 0.4823
O12 O -0.5189(16) 0.4167(7) 0.4900(7)
H23 H -0.5520 0.3881 0.4956
H24 H -0.5533 0.4396 0.4665
O13 O 0.1930(13) 0.6106(8) 1.0025(10)
H25 H 0.1830 0.6005 1.0391
H26 H 0.2119 0.6430 1.0007
N1 N 0.0858(14) 0.4769(9) 1.0241(8)
N2 N 0.7387(18) 0.2824(8) -0.0215(7)
O14 O 0.402(3) 0.4382(15) 1.0585(14)
H27 H 0.3429 0.4420 1.0708
H28 H 0.4403 0.4173 1.0828
O15 O 0.781(2) 0.1626(7) 0.5604(9)
H29 H 0.8354 0.1713 0.5446
H30 H 0.7516 0.1330 0.5500
W1 W 0.07422(3) 0.462503(18) 0.76249(2)
W2 W 0.09950(3) 0.265440(18) 0.76414(2)
W3 W 0.27342(4) 0.463225(17) 0.65150(2)
W4 W 0.46726(3) 0.375589(18) 0.67174(2)
W5 W 0.26428(4) 0.472794(18) 0.88274(2)
W6 W 0.30940(3) 0.283133(18) 0.89537(2)
W7 W 0.48330(4) 0.375916(18) 0.90276(2)
W8 W 0.27549(3) 0.265497(18) 0.66962(2)
W9 W 0.08781(4) 0.375711(19) 0.87908(2)
W10 W 0.46016(4) 0.474769(18) 0.77337(2)
W11 W 0.08966(3) 0.351781(17) 0.65318(2)
W12 W 0.48597(3) 0.279589(18) 0.80329(2)
Tb1 Tb -0.16587(4) 0.33869(2) 0.52200(2)
Tb2 Tb 0.68657(5) 0.16124(3) 0.75296(4)
O16 O 0.1455(6) 0.5045(3) 0.8285(4)
O17 O 0.3739(6) 0.5050(3) 0.7002(3)
O18 O 0.1983(5) 0.3250(3) 0.7245(3)
O19 O 0.3505(5) 0.4923(3) 0.8211(3)
O20 O 0.4200(6) 0.3238(3) 0.9507(3)
O21 O 0.5661(5) 0.3233(3) 0.8674(4)
O22 O 0.3707(6) 0.4257(3) 0.9143(3)
O23 O 0.1613(6) 0.4352(3) 0.9229(3)
O24 O 0.1740(6) 0.4797(3) 0.7082(3)
O25 O 0.0068(6) 0.4248(3) 0.8260(4)
O26 O 0.3795(6) 0.4261(3) 0.6166(4)
O27 O 0.3790(5) 0.2564(3) 0.7408(3)
O28 O 0.2095(6) 0.3331(3) 0.9125(3)
O29 O -0.0115(6) 0.3554(3) 0.5909(4)
O30 O 0.0130(6) 0.2935(3) 0.6943(4)
O31 O 0.0027(7) 0.3603(4) 0.9320(5)
O32 O 0.5064(6) 0.4261(3) 0.8360(4)
O33 O 0.3101(7) 0.2160(3) 0.6208(4)
O34 O 0.1810(6) 0.4027(3) 0.6289(3)
O35 O 0.1799(6) 0.2246(3) 0.7107(4)
O36 O 0.5419(7) 0.5280(3) 0.7897(4)
O37 O 0.3717(5) 0.3338(3) 0.8332(3)
O38 O 0.0592(5) 0.3208(3) 0.8196(3)
O39 O 0.5139(6) 0.3335(3) 0.7414(4)
O40 O 0.1965(6) 0.4086(3) 0.8144(3)
O41 O -0.2193(7) 0.3831(3) 0.6037(4)
O42 O 0.0217(6) 0.2132(3) 0.7821(4)
O43 O 0.3010(6) 0.2372(3) 0.9556(4)
O44 O 0.4273(5) 0.2416(3) 0.8666(4)
O45 O 0.3525(5) 0.4084(3) 0.7294(3)
O46 O 0.5549(7) 0.3617(3) 0.6201(4)
O47 O 0.0416(5) 0.4015(3) 0.7083(3)
O48 O 0.2165(6) 0.2547(3) 0.8314(3)
O49 O 0.1617(6) 0.2955(3) 0.6126(3)
O50 O 0.3641(6) 0.3225(3) 0.6478(4)
O51 O 0.5338(6) 0.4384(3) 0.7128(4)
O52 O -0.0265(6) 0.5050(3) 0.7360(4)
O53 O -0.2674(7) 0.3735(3) 0.4376(4)
O54 O -0.1050(7) 0.4286(3) 0.5009(4)
H31 H -0.1340 0.4558 0.5148
H32 H -0.0624 0.4333 0.4743
O55 O 0.5766(7) 0.3985(3) 0.9613(4)
O56 O -0.3362(6) 0.3051(4) 0.5375(4)
H33 H -0.3720 0.2882 0.5078
H34 H -0.3696 0.3202 0.5642
O57 O 0.7884(7) 0.2390(4) 0.7646(5)
N3 N -0.2349(7) 0.4184(4) 0.8176(4)
H35 H -0.2447 0.4413 0.8462
O58 O 0.2317(6) 0.5060(3) 0.5899(4)
O59 O -0.0218(6) 0.3240(3) 0.4664(4)
H36 H 0.0023 0.3517 0.4503
H37 H -0.0271 0.2975 0.4414
O60 O -0.2326(9) 0.4672(3) 0.6343(5)
O61 O -0.4242(7) 0.3864(4) 0.3846(4)
N4 N -0.3010(8) 0.3891(4) 0.2179(5)
H38 H -0.3421 0.3951 0.1837
O62 O 0.2842(7) 0.5244(4) 0.9351(4)
O63 O 0.5836(6) 0.2346(3) 0.7931(4)
O64 O 0.5145(8) 0.1362(4) 0.7158(5)
O65 O 0.5435(7) 0.1277(4) 0.8186(6)
O66 O 0.8208(9) 0.2619(4) 0.8658(5)
C1 C -0.2363(9) 0.4355(5) 0.7577(5)
H39 H -0.2465 0.4714 0.7478
O67 O -0.1317(8) 0.2641(3) 0.5929(4)
H40 H -0.0942 0.2382 0.5836
H41 H -0.1658 0.2606 0.6240
C2 C -0.2224(9) 0.3994(4) 0.7125(5)
O68 O 0.7156(8) 0.0672(4) 0.7806(6)
H42 H 0.7749 0.0531 0.7787
H43 H 0.6641 0.0468 0.7839
C3 C -0.2086(9) 0.3460(4) 0.7268(6)
H44 H -0.2002 0.3214 0.6954
C4 C -0.1998(10) 0.3829(4) 0.2145(7)
H45 H -0.1750 0.3813 0.1757
O69 O 0.7580(9) 0.1605(4) 0.8628(6)
H46 H 0.7829 0.1889 0.8806
H47 H 0.7629 0.1315 0.8836
C5 C -0.2247(9) 0.4183(5) 0.6447(6)
C6 C -0.3414(9) 0.3865(4) 0.2710(6)
H48 H -0.4135 0.3882 0.2702
C7 C -0.2792(9) 0.3814(4) 0.3277(5)
C8 C -0.2191(10) 0.3680(5) 0.8338(6)
H49 H -0.2158 0.3581 0.8759
O70 O 0.8650(8) 0.1403(4) 0.7418(7)
H50 H 0.9068 0.1649 0.7342
H51 H 0.8834 0.1081 0.7374
C9 C -0.1726(9) 0.3776(5) 0.3276(5)
H52 H -0.1287 0.3744 0.3654
O71 O 0.6447(11) 0.2193(5) 0.6628(6)
H53 H 0.6902 0.2420 0.6549
H54 H 0.5816 0.2290 0.6532
O72 O 0.6913(10) 0.1143(5) 0.6551(6)
H55 H 0.6419 0.0928 0.6431
H56 H 0.7505 0.1058 0.6448
C10 C -0.3284(10) 0.3800(4) 0.3884(5)
C11 C 0.8006(9) 0.2721(5) 0.8083(7)
C12 C 0.4844(11) 0.1279(5) 0.7686(8)
C13 C -0.1308(9) 0.3787(4) 0.2709(7)
C14 C -0.2074(9) 0.3296(5) 0.7889(6)
Tb1C Tb 0.33413(4) 0.16131(2) 1.02200(2)
Tb1_2 Tb 0.83413(4) 0.33869(2) 0.52200(2)
Tb2C Tb 0.18657(5) 0.33876(3) 0.25296(4)
Tb2_2 Tb -0.31343(5) 0.16124(3) 0.75296(4)
O41_2 O 0.7807(7) 0.3831(3) 0.6037(4)
O43C O -0.1990(6) 0.2628(3) 0.4556(4)
O53C O 0.2326(7) 0.1265(3) 0.9376(4)
O57_2 O -0.2116(7) 0.2390(4) 0.7646(5)
N3_2 N 0.7651(7) 0.4184(4) 0.8176(4)
H35_2 H 0.7553 0.4413 0.8462
O60_2 O 0.7674(9) 0.4672(3) 0.6343(5)
O61C O 0.0758(7) 0.1136(4) 0.8846(4)
N4C N 0.1990(8) 0.1109(4) 0.7179(5)
H38C H 0.1579 0.1049 0.6837
O64C O 0.0145(8) 0.3638(4) 0.2158(5)
O65C O 0.0435(7) 0.3723(4) 0.3186(6)
O66_2 O -0.1792(9) 0.2619(4) 0.8658(5)
C1_2 C 0.7637(9) 0.4355(5) 0.7577(5)
H39_2 H 0.7535 0.4714 0.7478
C2_2 C 0.7776(9) 0.3994(4) 0.7125(5)
C3_2 C 0.7914(9) 0.3460(4) 0.7268(6)
H44_2 H 0.7998 0.3214 0.6954
C4C C 0.3002(10) 0.1171(4) 0.7145(7)
H45C H 0.3250 0.1187 0.6757
C5_2 C 0.7753(9) 0.4183(5) 0.6447(6)
C6C C 0.1586(9) 0.1135(4) 0.7710(6)
H48C H 0.0865 0.1118 0.7702
C7C C 0.2208(9) 0.1186(4) 0.8277(5)
C8_2 C 0.7809(10) 0.3680(5) 0.8338(6)
H49_2 H 0.7842 0.3581 0.8759
C9C C 0.3274(9) 0.1224(5) 0.8276(5)
H52C H 0.3713 0.1256 0.8654
C10C C 0.1716(10) 0.1200(4) 0.8884(5)
C11_2 C -0.1994(9) 0.2721(5) 0.8083(7)
C12C C -0.0156(11) 0.3721(5) 0.2686(8)
C13C C 0.3692(9) 0.1213(4) 0.7709(7)
C14_2 C 0.7926(9) 0.3296(5) 0.7889(6)
O1 O 0.9064(8) 0.0415(5) 0.8543(5)
H1 H 0.9397 0.0620 0.8815
H2 H 0.9173 0.0083 0.8598
O73? O 0.440(3) 0.4755(10) 1.0504(14)
H57? H 0.4875 0.4849 1.0794
H58? H 0.3989 0.5010 1.0381
Tb3? Tb 0.7025(3) 0.16252(16) 0.8006(2)
loop_
_geom_bond_atom_site_label_1
_geom_bond_atom_site_label_2
_geom_bond_site_symmetry_1
_geom_bond_site_symmetry_2
O1 H1 1_555 1_555
H2 O1 1_555 1_555
O2 H3 1_555 1_555
H4 O2 1_555 1_555
O3 H5 1_555 1_555
H6 O3 1_555 1_555
O4 H7 1_555 1_555
H8 O4 1_555 1_555
O5 H9 1_555 1_555
H10 O5 1_555 1_555
O6 H11 1_555 1_555
H12 O6 1_555 1_555
O7 H13 1_555 1_555
H14 O7 1_555 1_555
O8 H15 1_555 1_555
H16 O8 1_555 1_555
O9 H17 1_555 1_555
H18 O9 1_555 1_555
O10 H19 1_555 1_555
H20 O10 1_555 1_555
O11 H21 1_555 1_555
H22 O11 1_555 1_555
O12 H23 1_555 1_555
H24 O12 1_555 1_555
O13 H25 1_555 1_555
H26 O13 1_555 1_555
O14 H27 1_555 1_555
H28 O14 1_555 1_555
O15 H29 1_555 1_555
H30 O15 1_555 1_555
W1 O16 1_555 1_555
W2 O18 1_555 1_555
W3 O17 1_555 1_555
W4 O26 1_555 1_555
W5 O16 1_555 1_555
W6 O20 1_555 1_555
W7 O20 1_555 1_555
W8 O18 1_555 1_555
W9 O23 1_555 1_555
W10 O17 1_555 1_555
W11 O18 1_555 1_555
W12 O21 1_555 1_555
Tb1 O29 1_555 1_555
Tb2 O57 1_555 1_555
O19 W5 1_555 1_555
O21 W7 1_555 1_555
O22 W5 1_555 1_555
O23 W5 1_555 1_555
O24 W1 1_555 1_555
O25 W1 1_555 1_555
O26 W3 1_555 1_555
O27 W8 1_555 1_555
O28 W6 1_555 1_555
O29 W11 1_555 1_555
O30 W2 1_555 1_555
O31 W9 1_555 1_555
O32 W7 1_555 1_555
O33 W8 1_555 1_555
O34 W3 1_555 1_555
O35 W2 1_555 1_555
O36 W10 1_555 1_555
O37 W6 1_555 1_555
O38 W2 1_555 1_555
O39 W4 1_555 1_555
O40 W1 1_555 1_555
O41 Tb1 1_555 1_555
O42 W2 1_555 1_555
O43 W6 1_555 1_555
O44 W6 1_555 1_555
O45 W3 1_555 1_555
O46 W4 1_555 1_555
O47 W1 1_555 1_555
O48 W2 1_555 1_555
O49 W8 1_555 1_555
O50 W4 1_555 1_555
O51 W4 1_555 1_555
O52 W1 1_555 1_555
O53 Tb1 1_555 1_555
O54 Tb1 1_555 1_555
H31 O54 1_555 1_555
H32 O54 1_555 1_555
O55 W7 1_555 1_555
O56 Tb1 1_555 1_555
H33 O56 1_555 1_555
H34 O56 1_555 1_555
O57 C11 1_555 1_555
N3 H35 1_555 1_555
O58 W3 1_555 1_555
O59 Tb1 1_555 1_555
H36 O59 1_555 1_555
H37 O59 1_555 1_555
O60 C5 1_555 1_555
O61 C10 1_555 1_555
N4 H38 1_555 1_555
O62 W5 1_555 1_555
O63 W12 1_555 1_555
O64 Tb2 1_555 1_555
O65 Tb2 1_555 1_555
O66 C11 1_555 1_555
C1 N3 1_555 1_555
H39 C1 1_555 1_555
O67 Tb1 1_555 1_555
H40 O67 1_555 1_555
H41 O67 1_555 1_555
C2 C1 1_555 1_555
O68 Tb2 1_555 1_555
H42 O68 1_555 1_555
H43 O68 1_555 1_555
C3 C2 1_555 1_555
H44 C3 1_555 1_555
C4 N4 1_555 1_555
H45 C4 1_555 1_555
O69 Tb2 1_555 1_555
H46 O69 1_555 1_555
H47 O69 1_555 1_555
C5 O41 1_555 1_555
C6 N4 1_555 1_555
H48 C6 1_555 1_555
C7 C6 1_555 1_555
C8 N3 1_555 1_555
H49 C8 1_555 1_555
O70 Tb2 1_555 1_555
H50 O70 1_555 1_555
H51 O70 1_555 1_555
C9 C7 1_555 1_555
H52 C9 1_555 1_555
O71 Tb2 1_555 1_555
H53 O71 1_555 1_555
H54 O71 1_555 1_555
O72 Tb2 1_555 1_555
H55 O72 1_555 1_555
H56 O72 1_555 1_555
C10 O53 1_555 1_555
C11 C14_2 1_555 1_555
C12 O64 1_555 1_555
C13 C4 1_555 1_555
C14 C3 1_555 1_555
Tb1C O43 1_555 1_555
Tb1_2 O41_2 1_555 1_555
Tb2C O64C 1_555 1_555
Tb2_2 O57_2 1_555 1_555
O41_2 C5_2 1_555 1_555
O43C Tb1 1_555 1_555
O53C Tb1C 1_555 1_555
O57_2 C11_2 1_555 1_555
N3_2 H35_2 1_555 1_555
O60_2 C5_2 1_555 1_555
O61C C10C 1_555 1_555
N4C H38C 1_555 1_555
O64C C12C 1_555 1_555
O65C Tb2C 1_555 1_555
O66_2 C11_2 1_555 1_555
C1_2 N3_2 1_555 1_555
H39_2 C1_2 1_555 1_555
C2_2 C1_2 1_555 1_555
C3_2 C2_2 1_555 1_555
H44_2 C3_2 1_555 1_555
C4C N4C 1_555 1_555
H45C C4C 1_555 1_555
C5_2 C2_2 1_555 1_555
C6C N4C 1_555 1_555
H48C C6C 1_555 1_555
C7C C6C 1_555 1_555
C8_2 N3_2 1_555 1_555
H49_2 C8_2 1_555 1_555
C9C C7C 1_555 1_555
H52C C9C 1_555 1_555
C10C O53C 1_555 1_555
C11_2 C14 1_555 1_555
C12C C13 1_555 1_555
C13C C12 1_555 1_555
C14_2 C3_2 1_555 1_555
W3 O24 1_555 1_555
W4 O45 1_555 1_555
W5 O40 1_555 1_555
W6 O48 1_555 1_555
W7 O22 1_555 1_555
W7 O37 1_555 1_555
W8 O35 1_555 1_555
W8 O50 1_555 1_555
W9 O25 1_555 1_555
W9 O28 1_555 1_555
W9 O38 1_555 1_555
W9 O40 1_555 1_555
W10 O19 1_555 1_555
W10 O32 1_555 1_555
W10 O45 1_555 1_555
W10 O51 1_555 1_555
W11 O30 1_555 1_555
W11 O34 1_555 1_555
W11 O47 1_555 1_555
W11 O49 1_555 1_555
W12 O27 1_555 1_555
W12 O37 1_555 1_555
W12 O39 1_555 1_555
W12 O44 1_555 1_555
Tb2 O63 1_555 1_555
O65 C12 1_555 1_555
C2 C5 1_555 1_555
C7 C10 1_555 1_555
C8 C14 1_555 1_555
C9 C13 1_555 1_555
O65C C12C 1_555 1_555
C4C C13C 1_555 1_555
C7C C10C 1_555 1_555
C8_2 C14_2 1_555 1_555
C9C C13C 1_555 1_555

#END
