
#######################################################################
#
#                 Cambridge Crystallographic Data Centre
#                                CCDC 
#
#######################################################################
#
# If this CIF has been generated from an entry in the Cambridge 
# Structural Database, then it will include bibliographic, chemical, 
# crystal, experimental, refinement or atomic coordinate data resulting 
# from the CCDC's data processing and validation procedures.
#
#######################################################################

data_KAPSOL
_symmetry_cell_setting           monoclinic
_symmetry_space_group_name_H-M   'P 21/c'
_symmetry_Int_Tables_number      14
_space_group_name_Hall           '-P 2ybc'
loop_
_symmetry_equiv_pos_site_id
_symmetry_equiv_pos_as_xyz
1 x,y,z
2 -x,1/2+y,1/2-z
3 -x,-y,-z
4 x,1/2-y,1/2+z
_cell_length_a                   13.167(3)
_cell_length_b                   22.657(5)
_cell_length_c                   13.560(4)
_cell_angle_alpha                90
_cell_angle_beta                 93.711(13)
_cell_angle_gamma                90
_cell_volume                     4036.8
loop_
_atom_site_label
_atom_site_type_symbol
_atom_site_fract_x
_atom_site_fract_y
_atom_site_fract_z
I1 I 1.24312(5) -0.24091(3) -0.01529(5)
I2 I 1.22674(6) -0.37369(3) -0.25950(5)
I3 I 0.94144(6) -0.14400(4) 0.04754(6)
I4 I 1.43583(6) -0.20431(4) -0.26149(6)
I5 I 1.40819(6) -0.53535(3) -0.22211(6)
I6 I 1.05299(6) -0.18459(3) -0.27372(6)
I7 I 0.95506(7) -0.34381(4) -0.08976(6)
I8 I 1.26284(7) -0.44516(4) 0.06398(7)
I9 I 1.53567(7) -0.35948(5) -0.07637(7)
Ag1 Ag 1.36442(11) -0.30107(6) -0.14543(11)
Ag2 Ag 1.02643(10) -0.22620(6) -0.07390(11)
Ag3 Ag 1.03379(9) -0.31033(5) -0.27499(9)
Ag4 Ag 1.37023(12) -0.44002(6) -0.10735(11)
Ag5 Ag 1.23690(10) -0.26058(9) 0.19395(12)
Ag6 Ag 1.45898(10) -0.10671(6) -0.39441(9)
Ag8 Ag 1.1644(13) -0.3558(7) -0.0280(8)
I3C I 0.94144(6) -0.35600(4) -0.45246(6)
I4C I 1.43583(6) -0.29569(4) 0.23851(6)
I5A I 1.59181(6) -0.03535(3) -0.27789(6)
I6C I 1.05299(6) -0.31541(3) 0.22628(6)
I8C I 1.26284(7) -0.05484(4) -0.43602(7)
I9C I 1.53567(7) -0.14052(5) -0.57637(7)
Ag3C Ag 1.03379(9) -0.18967(5) 0.22501(9)
Ag5C Ag 1.23690(10) -0.23942(9) -0.30605(12)
Ag6A Ag 1.54102(10) -0.60671(6) -0.10559(9)
Ag6C Ag 1.45898(10) -0.39329(6) 0.10559(9)
Cu1 Cu 0.75805(11) -0.08775(6) -0.09627(10)
N1 N 0.6445(7) -0.1143(4) -0.0192(6)
N2 N 0.7487(8) -0.0175(4) -0.0106(7)
O1 O 0.8588(8) -0.0531(5) -0.1746(9)
O2 O 0.7573(8) -0.1604(5) -0.1712(8)
N3 N 0.7463(9) -0.2213(8) -0.2986(15)
N4 N 0.9677(14) -0.0200(6) -0.2763(16)
C1 C 0.5951(9) -0.1660(5) -0.0286(9)
H1 H 0.6144 -0.1933 -0.0750
C2 C 0.5159(9) -0.1793(6) 0.0297(10)
H2 H 0.4819 -0.2152 0.0217
C3 C 0.4886(11) -0.1413(7) 0.0964(13)
H3 H 0.4357 -0.1506 0.1360
C4 C 0.5386(11) -0.0873(6) 0.1081(12)
H4 H 0.5196 -0.0604 0.1553
C5 C 0.6164(9) -0.0744(5) 0.0488(9)
C6 C 0.6758(9) -0.0202(5) 0.0543(8)
C7 C 0.6581(12) 0.0267(6) 0.1147(12)
H5 H 0.6060 0.0247 0.1578
C8 C 0.7160(13) 0.0758(6) 0.1120(13)
H6 H 0.7035 0.1078 0.1525
C9 C 0.7945(12) 0.0783(5) 0.0481(12)
H7 H 0.8377 0.1108 0.0475
C10 C 0.8060(10) 0.0313(6) -0.0140(10)
H8 H 0.8552 0.0333 -0.0601
C11 C 0.8767(17) -0.0470(11) -0.2518(17)
C12 C 1.061(3) 0.0048(12) -0.2416(16)
H9 H 1.0954 0.0205 -0.2963
H10 H 1.1030 -0.0251 -0.2092
H11 H 1.0494 0.0359 -0.1957
C13 C 0.951(2) -0.0210(12) -0.377(2)
H12 H 0.8838 -0.0362 -0.3936
H13 H 1.0004 -0.0458 -0.4048
H14 H 0.9560 0.0183 -0.4023
C14 C 0.7589(14) -0.1669(8) -0.2529(17)
H15 H 0.7693 -0.1340 -0.2921
C15 C 0.751(2) -0.2156(11) -0.406(2)
H16 H 0.7424 -0.2537 -0.4360
H17 H 0.8156 -0.1995 -0.4204
H18 H 0.6975 -0.1898 -0.4311
C16 C 0.7240(15) -0.2783(14) -0.2579(15)
H19 H 0.7210 -0.3073 -0.3096
H20 H 0.6596 -0.2768 -0.2285
H21 H 0.7764 -0.2888 -0.2085
Ag7? Ag 1.1669(13) -0.1416(9) -0.5599(7)
Ag9? Ag 1.1396(4) -0.1523(3) -0.4732(5)
C17? C 0.9368(17) -0.0370(11) -0.1778(17)
loop_
_geom_bond_atom_site_label_1
_geom_bond_atom_site_label_2
_geom_bond_site_symmetry_1
_geom_bond_site_symmetry_2
I1 Ag1 1_555 1_555
I2 Ag1 1_555 1_555
I3 Ag2 1_555 1_555
I4 Ag1 1_555 1_555
I5 Ag4 1_555 1_555
I6 Ag2 1_555 1_555
I7 Ag2 1_555 1_555
I8 Ag4 1_555 1_555
I9 Ag1 1_555 1_555
Cu1 N1 1_555 1_555
Ag2 I1 1_555 1_555
Ag3 I2 1_555 1_555
Ag4 I9 1_555 1_555
Ag5 I1 1_555 1_555
Ag6 I4 1_555 1_555
Ag8 I1 1_555 1_555
N1 C1 1_555 1_555
N2 Cu1 1_555 1_555
O1 Cu1 1_555 1_555
O2 Cu1 1_555 1_555
N3 C14 1_555 1_555
N4 C11 1_555 1_555
C1 H1 1_555 1_555
C2 C1 1_555 1_555
H2 C2 1_555 1_555
C3 C2 1_555 1_555
H3 C3 1_555 1_555
C4 C3 1_555 1_555
H4 C4 1_555 1_555
C5 N1 1_555 1_555
C6 N2 1_555 1_555
C7 C6 1_555 1_555
H5 C7 1_555 1_555
C8 C7 1_555 1_555
H6 C8 1_555 1_555
C9 C8 1_555 1_555
H7 C9 1_555 1_555
C10 N2 1_555 1_555
H8 C10 1_555 1_555
C11 O1 1_555 1_555
C12 N4 1_555 1_555
H9 C12 1_555 1_555
H10 C12 1_555 1_555
H11 C12 1_555 1_555
C13 N4 1_555 1_555
H12 C13 1_555 1_555
H13 C13 1_555 1_555
H14 C13 1_555 1_555
C14 O2 1_555 1_555
H15 C14 1_555 1_555
C15 N3 1_555 1_555
H16 C15 1_555 1_555
H17 C15 1_555 1_555
H18 C15 1_555 1_555
C16 N3 1_555 1_555
H19 C16 1_555 1_555
H20 C16 1_555 1_555
H21 C16 1_555 1_555
I3C Ag3 1_555 1_555
I4C Ag5 1_555 1_555
I5A Ag6 1_555 1_555
I6C Ag5 1_555 1_555
I8C Ag6 1_555 1_555
I9C Ag6 1_555 1_555
Ag3C I3 1_555 1_555
Ag5C I4 1_555 1_555
Ag6A I5 1_555 1_555
Ag6C I8 1_555 1_555
I6 Ag3 1_555 1_555
I6 Ag5C 1_555 1_555
I7 Ag3 1_555 1_555
I7 Ag8 1_555 1_555
I8 Ag8 1_555 1_555
I9 Ag6C 1_555 1_555
C4 C5 1_555 1_555
C5 C6 1_555 1_555
C9 C10 1_555 1_555
I4C Ag6C 1_555 1_555
I6C Ag3C 1_555 1_555

#END
