
#######################################################################
#
#                 Cambridge Crystallographic Data Centre
#                                CCDC 
#
#######################################################################
#
# If this CIF has been generated from an entry in the Cambridge 
# Structural Database, then it will include bibliographic, chemical, 
# crystal, experimental, refinement or atomic coordinate data resulting 
# from the CCDC's data processing and validation procedures.
#
#######################################################################

data_KAPSIF
_symmetry_cell_setting           triclinic
_symmetry_space_group_name_H-M   'P -1'
_symmetry_Int_Tables_number      2
_space_group_name_Hall           '-P 1'
loop_
_symmetry_equiv_pos_site_id
_symmetry_equiv_pos_as_xyz
1 x,y,z
2 -x,-y,-z
_cell_length_a                   10.481(6)
_cell_length_b                   11.311(5)
_cell_length_c                   12.746(6)
_cell_angle_alpha                100.158(17)
_cell_angle_beta                 92.98(2)
_cell_angle_gamma                94.455(19)
_cell_volume                     1479.54
loop_
_atom_site_label
_atom_site_type_symbol
_atom_site_fract_x
_atom_site_fract_y
_atom_site_fract_z
I1 I 0.54078(4) -0.15479(4) 0.08860(4)
I2 I 0.66240(6) -0.44032(5) 0.29928(4)
I3 I 0.71408(5) -0.50971(5) -0.05730(5)
Ag1 Ag 0.54723(7) -0.41681(7) 0.10580(6)
Cu1 Cu 0.71975(7) -0.01967(7) 0.21901(6)
N1 N 0.8681(5) -0.1059(5) 0.1618(4)
N2 N 0.8348(5) 0.1280(5) 0.1853(4)
N3 N 0.5978(5) 0.0876(5) 0.2947(5)
N4 N 0.7650(5) -0.0442(5) 0.3766(4)
C1 C 0.8794(7) -0.2241(6) 0.1470(5)
H1 H 0.8101 -0.2763 0.1575
C2 C 0.9948(8) -0.2712(7) 0.1157(6)
H2 H 1.0000 -0.3542 0.1031
C3 C 1.0978(7) -0.1971(8) 0.1041(5)
H3 H 1.1753 -0.2286 0.0882
C4 C 1.0885(6) -0.0708(6) 0.1158(5)
C5 C 1.1893(6) 0.0143(8) 0.1007(5)
H4 H 1.2686 -0.0119 0.0827
C6 C 1.1723(7) 0.1329(8) 0.1122(5)
H5 H 1.2393 0.1865 0.0999
C7 C 1.0532(7) 0.1776(7) 0.1430(5)
C8 C 1.0281(8) 0.2992(7) 0.1539(6)
H6 H 1.0921 0.3575 0.1448
C9 C 0.9094(10) 0.3306(7) 0.1777(7)
H7 H 0.8915 0.4106 0.1836
C10 C 0.8144(8) 0.2444(7) 0.1933(6)
H8 H 0.7338 0.2683 0.2098
C11 C 0.9521(6) 0.0945(6) 0.1595(5)
C12 C 0.9706(6) -0.0305(6) 0.1458(4)
C13 C 0.5174(7) 0.1515(7) 0.2524(6)
H9 H 0.5048 0.1400 0.1784
C14 C 0.4497(9) 0.2368(8) 0.3147(8)
H10 H 0.3958 0.2834 0.2824
C15 C 0.4636(8) 0.2508(8) 0.4233(7)
H11 H 0.4183 0.3066 0.4655
C16 C 0.5448(7) 0.1823(7) 0.4704(6)
C17 C 0.5626(9) 0.1852(9) 0.5843(7)
H12 H 0.5147 0.2345 0.6302
C18 C 0.6464(9) 0.1189(9) 0.6257(6)
H13 H 0.6583 0.1259 0.6994
C19 C 0.7172(8) 0.0381(7) 0.5579(6)
C20 C 0.8040(9) -0.0345(9) 0.5944(7)
H14 H 0.8184 -0.0318 0.6674
C21 C 0.8674(9) -0.1086(9) 0.5253(7)
H15 H 0.9248 -0.1578 0.5499
C22 C 0.8455(8) -0.1103(7) 0.4149(6)
H16 H 0.8905 -0.1609 0.3675
C23 C 0.7006(7) 0.0293(6) 0.4474(5)
C24 C 0.6128(6) 0.1019(6) 0.4027(5)
I3A I 0.28592(5) -0.49029(5) 0.05730(5)
Ag1A Ag 0.45277(7) -0.58319(7) -0.10580(6)
O1 O 0.1003(10) 0.7326(8) 0.5602(7)
N5 N 0.1594(9) 0.5906(8) 0.4287(6)
C25 C 0.1588(13) 0.6458(11) 0.5298(8)
H17 H 0.2068 0.6157 0.5810
C26 C 0.2368(19) 0.4908(15) 0.3977(11)
H18 H 0.2204 0.4596 0.3228
H19 H 0.2153 0.4284 0.4376
H20 H 0.3260 0.5185 0.4124
C27 C 0.0910(15) 0.6298(13) 0.3457(9)
H21 H 0.1020 0.5779 0.2792
H22 H 0.1225 0.7109 0.3422
H23 H 0.0015 0.6274 0.3590
loop_
_geom_bond_atom_site_label_1
_geom_bond_atom_site_label_2
_geom_bond_site_symmetry_1
_geom_bond_site_symmetry_2
I1 Ag1 1_555 1_555
I2 Ag1 1_555 1_555
I3 Ag1 1_555 1_555
Ag1 I3A 1_555 1_555
Cu1 I1 1_555 1_555
N1 Cu1 1_555 1_555
N2 Cu1 1_555 1_555
N3 Cu1 1_555 1_555
N4 Cu1 1_555 1_555
C1 N1 1_555 1_555
H1 C1 1_555 1_555
C2 C1 1_555 1_555
H2 C2 1_555 1_555
C3 C2 1_555 1_555
H3 C3 1_555 1_555
C4 C3 1_555 1_555
C5 C4 1_555 1_555
H4 C5 1_555 1_555
C6 C5 1_555 1_555
H5 C6 1_555 1_555
C7 C6 1_555 1_555
C8 C7 1_555 1_555
H6 C8 1_555 1_555
C9 C8 1_555 1_555
H7 C9 1_555 1_555
C10 N2 1_555 1_555
H8 C10 1_555 1_555
C11 N2 1_555 1_555
C12 N1 1_555 1_555
C13 N3 1_555 1_555
H9 C13 1_555 1_555
C14 C13 1_555 1_555
H10 C14 1_555 1_555
C15 C14 1_555 1_555
H11 C15 1_555 1_555
C16 C15 1_555 1_555
C17 C16 1_555 1_555
H12 C17 1_555 1_555
C18 C17 1_555 1_555
H13 C18 1_555 1_555
C19 C18 1_555 1_555
C20 C19 1_555 1_555
H14 C20 1_555 1_555
C21 C20 1_555 1_555
H15 C21 1_555 1_555
C22 N4 1_555 1_555
H16 C22 1_555 1_555
C23 N4 1_555 1_555
C24 N3 1_555 1_555
O1 C25 1_555 1_555
N5 C25 1_555 1_555
C25 H17 1_555 1_555
C26 N5 1_555 1_555
H18 C26 1_555 1_555
H19 C26 1_555 1_555
H20 C26 1_555 1_555
C27 N5 1_555 1_555
H21 C27 1_555 1_555
H22 C27 1_555 1_555
H23 C27 1_555 1_555
I3A Ag1A 1_555 1_555
Ag1A I3 1_555 1_555
C4 C12 1_555 1_555
C7 C11 1_555 1_555
C9 C10 1_555 1_555
C11 C12 1_555 1_555
C16 C24 1_555 1_555
C19 C23 1_555 1_555
C21 C22 1_555 1_555
C23 C24 1_555 1_555

#END
