
#######################################################################
#
#                 Cambridge Crystallographic Data Centre
#                                CCDC 
#
#######################################################################
#
# If this CIF has been generated from an entry in the Cambridge 
# Structural Database, then it will include bibliographic, chemical, 
# crystal, experimental, refinement or atomic coordinate data resulting 
# from the CCDC's data processing and validation procedures.
#
#######################################################################

data_KAPSAX
_symmetry_cell_setting           monoclinic
_symmetry_space_group_name_H-M   'P 21/c'
_symmetry_Int_Tables_number      14
_space_group_name_Hall           '-P 2ybc'
loop_
_symmetry_equiv_pos_site_id
_symmetry_equiv_pos_as_xyz
1 x,y,z
2 -x,1/2+y,1/2-z
3 -x,-y,-z
4 x,1/2-y,1/2+z
_cell_length_a                   17.821(4)
_cell_length_b                   11.339(2)
_cell_length_c                   23.069(5)
_cell_angle_alpha                90
_cell_angle_beta                 109.61(3)
_cell_angle_gamma                90
_cell_volume                     4391.23
loop_
_atom_site_label
_atom_site_type_symbol
_atom_site_fract_x
_atom_site_fract_y
_atom_site_fract_z
W1 W 0.14022(3) 0.20871(4) 0.30487(2)
I1 I 0.34342(9) -0.07610(13) 0.36527(9)
I2 I 0.28790(11) 0.53927(18) 0.25841(9)
I3 I 0.06209(11) 0.36367(16) 0.46317(8)
Cu1 Cu 0.29210(9) 0.13180(15) 0.35962(8)
Cu2 Cu 0.18592(10) 0.38937(16) 0.24779(7)
Cu3 Cu 0.15368(10) 0.34294(15) 0.40509(7)
S1 S 0.2345(2) 0.1991(3) 0.25963(17)
S2 S 0.09891(18) 0.3986(3) 0.30303(14)
S3 S 0.1942(2) 0.1493(3) 0.40392(17)
O1 O 0.0590(6) 0.1213(10) 0.2663(6)
N1 N 0.3969(7) 0.2226(11) 0.4043(6)
N2 N 0.7488(6) 0.5495(11) 0.5529(5)
N3 N 0.1089(7) 0.4220(10) 0.1542(5)
C1 C 0.4054(10) 0.3348(16) 0.3888(9)
H1 H 0.3632 0.3700 0.3583
C2 C 0.4731(9) 0.4005(15) 0.4155(8)
H2 H 0.4774 0.4767 0.4020
C3 C 0.5355(8) 0.3502(13) 0.4636(7)
C4 C 0.5227(11) 0.2377(17) 0.4833(10)
H3 H 0.5591 0.2058 0.5188
C5 C 0.4578(11) 0.1752(16) 0.4510(10)
H4 H 0.4546 0.0964 0.4611
C6 C 0.7022(13) 0.574(2) 0.4952(9)
H5 H 0.7173 0.6336 0.4740
C7 C 0.6301(11) 0.511(2) 0.4648(8)
H6 H 0.5971 0.5324 0.4256
C8 C 0.6115(7) 0.4203(12) 0.4946(6)
C9 C 0.6573(10) 0.3951(14) 0.5529(6)
H7 H 0.6439 0.3345 0.5747
C10 C 0.7268(10) 0.4645(14) 0.5798(7)
H8 H 0.7585 0.4467 0.6199
C11 C 0.1321(10) 0.3870(15) 0.1043(7)
H9 H 0.1780 0.3420 0.1119
C12 C 0.0915(9) 0.4152(15) 0.0480(6)
H10 H 0.1095 0.3888 0.0168
C13 C 0.0228(7) 0.4826(11) 0.0319(5)
C14 C -0.0009(8) 0.5170(14) 0.0823(6)
H11 H -0.0466 0.5622 0.0756
C15 C 0.0437(8) 0.4834(13) 0.1411(5)
H12 H 0.0263 0.5059 0.1732
W1B W 0.85978(3) 0.79129(4) 0.69513(2)
I1B I 0.65658(9) 1.07610(13) 0.63473(9)
I2B I -0.28790(11) 0.46073(18) -0.25841(9)
I3B I 0.93791(11) 0.63633(16) 0.53683(8)
Cu1B Cu 0.70790(9) 0.86820(15) 0.64038(8)
Cu2B Cu -0.18592(10) 0.61063(16) -0.24779(7)
Cu2B_2 Cu 0.81408(10) 0.61063(16) 0.75221(7)
Cu3B Cu 0.84632(10) 0.65706(15) 0.59491(7)
S1B S 0.7655(2) 0.8009(3) 0.74037(17)
S1B_2 S -0.2345(2) 0.8009(3) -0.25963(17)
S2B S -0.09891(18) 0.6014(3) -0.30303(14)
S2B_2 S 0.90109(18) 0.6014(3) 0.69697(14)
S3B S 0.8058(2) 0.8507(3) 0.59608(17)
O1B O 0.9410(6) 0.8787(10) 0.7337(6)
N1B N 0.6031(7) 0.7774(11) 0.5957(6)
N2B N 0.2512(6) 0.4505(11) 0.4471(5)
N3B N -0.1089(7) 0.5780(10) -0.1542(5)
C1B C 0.5946(10) 0.6652(16) 0.6112(9)
H1B H 0.6368 0.6300 0.6417
C2B C 0.5269(9) 0.5995(15) 0.5845(8)
H2B H 0.5226 0.5233 0.5980
C3B C 0.4645(8) 0.6498(13) 0.5364(7)
C4B C 0.4773(11) 0.7623(17) 0.5167(10)
H3B H 0.4409 0.7942 0.4812
C5B C 0.5422(11) 0.8248(16) 0.5490(10)
H4B H 0.5454 0.9036 0.5389
C6B C 0.2978(13) 0.426(2) 0.5048(9)
H5B H 0.2827 0.3664 0.5260
C7B C 0.3699(11) 0.489(2) 0.5352(8)
H6B H 0.4029 0.4676 0.5744
C8B C 0.3885(7) 0.5797(12) 0.5054(6)
C9B C 0.3427(10) 0.6049(14) 0.4471(6)
H7B H 0.3561 0.6655 0.4253
C10B C 0.2732(10) 0.5355(14) 0.4202(7)
H8B H 0.2415 0.5533 0.3801
C11B C -0.1321(10) 0.6130(15) -0.1043(7)
H9B H -0.1780 0.6580 -0.1119
C12B C -0.0915(9) 0.5848(15) -0.0480(6)
H10B H -0.1095 0.6112 -0.0168
C13B C -0.0228(7) 0.5174(11) -0.0319(5)
C14B C 0.0009(8) 0.4830(14) -0.0823(6)
H11B H 0.0466 0.4378 -0.0756
C15B C -0.0437(8) 0.5166(13) -0.1411(5)
H12B H -0.0263 0.4941 -0.1732
N4 N 0.8461(10) 0.3518(14) 0.3137(8)
C16 C 0.7651(10) 0.3481(15) 0.3053(8)
H13 H 0.7336 0.2879 0.2821
C17 C 0.7312(9) 0.4345(19) 0.3314(10)
H14 H 0.6771 0.4321 0.3257
C18 C 0.7783(12) 0.5246(16) 0.3659(9)
H15 H 0.7556 0.5824 0.3834
C19 C 0.8592(12) 0.5282(15) 0.3744(8)
H16 H 0.8907 0.5884 0.3975
C20 C 0.8931(8) 0.4418(17) 0.3483(8)
H17 H 0.9473 0.4443 0.3539
C21 C 0.8861(15) 0.254(2) 0.2979(7)
H18 H 0.8756 0.1839 0.3177
H19 H 0.9431 0.2687 0.3137
C22 C 0.8607(16) 0.233(2) 0.2288(7)
H20 H 0.8032 0.2252 0.2130
H21 H 0.8830 0.1585 0.2220
C23 C 0.8846(17) 0.328(2) 0.1913(10)
H22 H 0.8480 0.3935 0.1846
H23 H 0.9375 0.3562 0.2143
N5 N 0.8841(9) 0.2832(13) 0.1329(6)
C24 C 0.8239(8) 0.3350(13) 0.0847(7)
H24 H 0.7874 0.3850 0.0929
C25 C 0.8184(9) 0.3120(15) 0.0242(6)
H25 H 0.7782 0.3466 -0.0081
C26 C 0.8731(11) 0.2372(15) 0.0120(6)
H26 H 0.8694 0.2218 -0.0285
C27 C 0.9332(10) 0.1854(14) 0.0602(8)
H27 H 0.9698 0.1354 0.0520
C28 C 0.9388(8) 0.2084(13) 0.1207(7)
H28 H 0.9790 0.1738 0.1529
loop_
_geom_bond_atom_site_label_1
_geom_bond_atom_site_label_2
_geom_bond_site_symmetry_1
_geom_bond_site_symmetry_2
W1 S1 1_555 1_555
I1 Cu1 1_555 1_555
I2 Cu2 1_555 1_555
I3 Cu3 1_555 1_555
Cu1 S1 1_555 1_555
Cu2 S1 1_555 1_555
Cu3 S2 1_555 1_555
S2 W1 1_555 1_555
S3 W1 1_555 1_555
O1 W1 1_555 1_555
N1 Cu1 1_555 1_555
N2 C6 1_555 1_555
N3 Cu2 1_555 1_555
C1 N1 1_555 1_555
H1 C1 1_555 1_555
C2 C1 1_555 1_555
H2 C2 1_555 1_555
C3 C2 1_555 1_555
C4 C3 1_555 1_555
H3 C4 1_555 1_555
C5 N1 1_555 1_555
H4 C5 1_555 1_555
C6 H5 1_555 1_555
C7 C6 1_555 1_555
H6 C7 1_555 1_555
C8 C3 1_555 1_555
C9 C8 1_555 1_555
H7 C9 1_555 1_555
C10 N2 1_555 1_555
H8 C10 1_555 1_555
C11 N3 1_555 1_555
H9 C11 1_555 1_555
C12 C11 1_555 1_555
H10 C12 1_555 1_555
C13 C12 1_555 1_555
C14 C13 1_555 1_555
H11 C14 1_555 1_555
C15 N3 1_555 1_555
H12 C15 1_555 1_555
N4 C16 1_555 1_555
C16 H13 1_555 1_555
C17 C16 1_555 1_555
H14 C17 1_555 1_555
C18 C17 1_555 1_555
H15 C18 1_555 1_555
C19 C18 1_555 1_555
H16 C19 1_555 1_555
C20 N4 1_555 1_555
H17 C20 1_555 1_555
C21 N4 1_555 1_555
H18 C21 1_555 1_555
H19 C21 1_555 1_555
C22 C21 1_555 1_555
H20 C22 1_555 1_555
H21 C22 1_555 1_555
C23 C22 1_555 1_555
H22 C23 1_555 1_555
H23 C23 1_555 1_555
N5 C23 1_555 1_555
C24 N5 1_555 1_555
H24 C24 1_555 1_555
C25 C24 1_555 1_555
H25 C25 1_555 1_555
C26 C25 1_555 1_555
H26 C26 1_555 1_555
C27 C26 1_555 1_555
H27 C27 1_555 1_555
C28 N5 1_555 1_555
H28 C28 1_555 1_555
W1B S1B 1_555 1_555
I1B Cu1B 1_555 1_555
I2B Cu2B 1_555 1_555
I3B Cu3B 1_555 1_555
Cu1B S1B 1_555 1_555
Cu2B S1B_2 1_555 1_555
Cu2B_2 S1B 1_555 1_555
Cu3B N2 1_555 1_555
S2B Cu2B 1_555 1_555
S2B_2 W1B 1_555 1_555
S3B W1B 1_555 1_555
O1B W1B 1_555 1_555
N1B Cu1B 1_555 1_555
N2B Cu3 1_555 1_555
N3B Cu2B 1_555 1_555
C1B N1B 1_555 1_555
H1B C1B 1_555 1_555
C2B C1B 1_555 1_555
H2B C2B 1_555 1_555
C3B C2B 1_555 1_555
C4B C3B 1_555 1_555
H3B C4B 1_555 1_555
C5B N1B 1_555 1_555
H4B C5B 1_555 1_555
C6B N2B 1_555 1_555
H5B C6B 1_555 1_555
C7B C6B 1_555 1_555
H6B C7B 1_555 1_555
C8B C3B 1_555 1_555
C9B C8B 1_555 1_555
H7B C9B 1_555 1_555
C10B N2B 1_555 1_555
H8B C10B 1_555 1_555
C11B N3B 1_555 1_555
H9B C11B 1_555 1_555
C12B C11B 1_555 1_555
H10B C12B 1_555 1_555
C13B C13 1_555 1_555
C14B C13B 1_555 1_555
H11B C14B 1_555 1_555
C15B N3B 1_555 1_555
H12B C15B 1_555 1_555
Cu1 S3 1_555 1_555
Cu2 S2 1_555 1_555
Cu3 S3 1_555 1_555
C4 C5 1_555 1_555
C7 C8 1_555 1_555
C9 C10 1_555 1_555
C14 C15 1_555 1_555
C19 C20 1_555 1_555
C27 C28 1_555 1_555
Cu1B S3B 1_555 1_555
Cu2B_2 S2B_2 1_555 1_555
Cu3B S2B_2 1_555 1_555
Cu3B S3B 1_555 1_555
C4B C5B 1_555 1_555
C7B C8B 1_555 1_555
C9B C10B 1_555 1_555
C12B C13B 1_555 1_555
C14B C15B 1_555 1_555

#END
