
#######################################################################
#
#                 Cambridge Crystallographic Data Centre
#                                CCDC 
#
#######################################################################
#
# If this CIF has been generated from an entry in the Cambridge 
# Structural Database, then it will include bibliographic, chemical, 
# crystal, experimental, refinement or atomic coordinate data resulting 
# from the CCDC's data processing and validation procedures.
#
#######################################################################

data_KAPVOO
_symmetry_cell_setting           orthorhombic
_symmetry_space_group_name_H-M   'I b c a'
_symmetry_Int_Tables_number      73
_space_group_name_Hall           '-I 2b 2c'
loop_
_symmetry_equiv_pos_site_id
_symmetry_equiv_pos_as_xyz
1 x,y,z
2 1/2-x,-y,1/2+z
3 -x,1/2+y,1/2-z
4 1/2+x,1/2-y,-z
5 1/2+x,1/2+y,1/2+z
6 -x,1/2-y,z
7 1/2-x,y,-z
8 x,-y,1/2-z
9 -x,-y,-z
10 1/2+x,y,1/2-z
11 x,1/2-y,1/2+z
12 1/2-x,1/2+y,z
13 1/2-x,1/2-y,1/2-z
14 x,1/2+y,-z
15 1/2+x,-y,z
16 -x,y,1/2+z
_cell_length_a                   16.4953(15)
_cell_length_b                   18.0452(16)
_cell_length_c                   26.868(3)
_cell_angle_alpha                90
_cell_angle_beta                 90
_cell_angle_gamma                90
_cell_volume                     7997.56
loop_
_atom_site_label
_atom_site_type_symbol
_atom_site_fract_x
_atom_site_fract_y
_atom_site_fract_z
Cd1 Cd 0.66921(4) 0.0000 0.2500
Br1 Br 0.67267(4) 0.10101(4) 0.32612(3)
N1 N 0.5672(3) 0.0675(3) 0.2065(3)
N2 N 0.3698(9) 0.4661(9) 0.0207(5)
N3 N 0.7706(3) 0.0720(3) 0.2082(2)
C1 C 0.5118(4) 0.1091(4) 0.2278(3)
H1 H 0.5138 0.1146 0.2622
C2 C 0.4516(5) 0.1447(5) 0.2027(4)
H2 H 0.4141 0.1729 0.2203
C3 C 0.4452(4) 0.1400(5) 0.1526(4)
C4 C 0.5042(6) 0.0973(4) 0.1298(3)
H3 H 0.5049 0.0927 0.0953
C5 C 0.5604(5) 0.0624(4) 0.1573(4)
H4 H 0.5975 0.0324 0.1407
C6 C 0.3791(6) 0.1747(9) 0.1250(5)
H5 H 0.3462 0.1338 0.1130
H6 H 0.3466 0.1996 0.1500
C7 C 0.3833(8) 0.2251(14) 0.0845(7)
H7 H 0.4248 0.2067 0.0621
H8 H 0.4033 0.2716 0.0978
C8 C 0.3132(8) 0.2427(14) 0.0541(5)
H9 H 0.2629 0.2377 0.0725
H10 H 0.3110 0.2126 0.0242
C9 C 0.3323(8) 0.3223(13) 0.0425(5)
C10 C 0.2896(9) 0.3779(14) 0.0632(6)
H11 H 0.2471 0.3685 0.0851
C11 C 0.3103(11) 0.4462(15) 0.0512(7)
H12 H 0.2802 0.4843 0.0655
C12 C 0.4076(12) 0.4044(14) -0.0001(8)
H13 H 0.4460 0.4145 -0.0245
C13 C 0.3974(11) 0.3411(12) 0.0091(6)
H14 H 0.4303 0.3047 -0.0048
C14 C 0.7660(4) 0.1467(4) 0.2077(3)
H15 H 0.7240 0.1696 0.2250
C15 C 0.8206(4) 0.1899(4) 0.1830(3)
H16 H 0.8158 0.2413 0.1841
C16 C 0.8829(4) 0.1576(4) 0.1562(3)
C17 C 0.8869(4) 0.0824(4) 0.1575(3)
H17 H 0.9284 0.0582 0.1406
C18 C 0.8312(4) 0.0419(4) 0.1831(3)
H18 H 0.8361 -0.0095 0.1830
C19 C 0.9426(4) 0.2039(4) 0.1275(3)
H19 H 0.9127 0.2370 0.1057
H20 H 0.9746 0.1713 0.1065
C20 C 1.0000 0.2500 0.1593(3)
H21 H 1.0314 0.2173 0.1805
Cd1B Cd 1.33079(4) 0.5000 0.2500
Br1G Br 0.67267(4) -0.10101(4) 0.17388(3)
N1G N 0.5672(3) -0.0675(3) 0.2935(3)
N2G N 0.3698(9) -0.4661(9) 0.4793(5)
N3E N 1.2294(3) 0.4280(3) 0.2082(2)
N3G N 0.7706(3) -0.0720(3) 0.2918(2)
C1G C 0.5118(4) -0.1091(4) 0.2722(3)
H1G H 0.5138 -0.1146 0.2378
C2G C 0.4516(5) -0.1447(5) 0.2973(4)
H2G H 0.4141 -0.1729 0.2797
C3G C 0.4452(4) -0.1400(5) 0.3474(4)
C4G C 0.5042(6) -0.0973(4) 0.3702(3)
H3G H 0.5049 -0.0927 0.4047
C5G C 0.5604(5) -0.0624(4) 0.3427(4)
H4G H 0.5975 -0.0324 0.3593
C6G C 0.3791(6) -0.1747(9) 0.3750(5)
H5G H 0.3462 -0.1338 0.3870
H6G H 0.3466 -0.1996 0.3500
C7G C 0.3833(8) -0.2251(14) 0.4155(7)
H7G H 0.4248 -0.2067 0.4379
H8G H 0.4033 -0.2716 0.4022
C8G C 0.3132(8) -0.2427(14) 0.4459(5)
H9G H 0.2629 -0.2377 0.4275
H10G H 0.3110 -0.2126 0.4758
C9G C 0.3323(8) -0.3223(13) 0.4575(5)
C10G C 0.2896(9) -0.3779(14) 0.4368(6)
H11G H 0.2471 -0.3685 0.4149
C11G C 0.3103(11) -0.4462(15) 0.4488(7)
H12G H 0.2802 -0.4843 0.4345
C12G C 0.4076(12) -0.4044(14) 0.5001(8)
H13G H 0.4460 -0.4145 0.5245
C13G C 0.3974(11) -0.3411(12) 0.4909(6)
H14G H 0.4303 -0.3047 0.5048
C14E C 1.2340(4) 0.3533(4) 0.2077(3)
H15E H 1.2760 0.3304 0.2250
C15E C 1.1794(4) 0.3101(4) 0.1830(3)
H16E H 1.1842 0.2587 0.1841
C16E C 1.1171(4) 0.3424(4) 0.1562(3)
C17E C 1.1131(4) 0.4176(4) 0.1575(3)
H17E H 1.0716 0.4418 0.1406
C18E C 1.1688(4) 0.4581(4) 0.1831(3)
H18E H 1.1639 0.5095 0.1830
C19E C 1.0574(4) 0.2961(4) 0.1275(3)
H19E H 1.0873 0.2630 0.1057
H20E H 1.0254 0.3287 0.1065
H21E H 0.9686 0.2827 0.1805
O1 O 0.4003(8) 0.6219(8) 0.0515(6)
H22 H 0.426(9) 0.583(6) 0.057(10)
H23 H 0.353(5) 0.628(9) 0.042(9)
loop_
_geom_bond_atom_site_label_1
_geom_bond_atom_site_label_2
_geom_bond_site_symmetry_1
_geom_bond_site_symmetry_2
Cd1 Br1 1_555 1_555
N1 Cd1 1_555 1_555
N2 C11 1_555 1_555
N3 Cd1 1_555 1_555
C1 N1 1_555 1_555
H1 C1 1_555 1_555
C2 C1 1_555 1_555
H2 C2 1_555 1_555
C3 C2 1_555 1_555
C4 C3 1_555 1_555
H3 C4 1_555 1_555
C5 N1 1_555 1_555
H4 C5 1_555 1_555
C6 C3 1_555 1_555
H5 C6 1_555 1_555
H6 C6 1_555 1_555
C7 C6 1_555 1_555
H7 C7 1_555 1_555
H8 C7 1_555 1_555
C8 C7 1_555 1_555
H9 C8 1_555 1_555
H10 C8 1_555 1_555
C9 C8 1_555 1_555
C10 C9 1_555 1_555
H11 C10 1_555 1_555
C11 C10 1_555 1_555
H12 C11 1_555 1_555
C12 N2 1_555 1_555
H13 C12 1_555 1_555
C13 C9 1_555 1_555
H14 C13 1_555 1_555
C14 N3 1_555 1_555
H15 C14 1_555 1_555
C15 C14 1_555 1_555
H16 C15 1_555 1_555
C16 C15 1_555 1_555
C17 C16 1_555 1_555
H17 C17 1_555 1_555
C18 N3 1_555 1_555
H18 C18 1_555 1_555
C19 C16 1_555 1_555
H19 C19 1_555 1_555
H20 C19 1_555 1_555
C20 C19 1_555 1_555
H21 C20 1_555 1_555
O1 H22 1_555 1_555
H23 O1 1_555 1_555
Cd1B N3E 1_555 1_555
Br1G Cd1 1_555 1_555
N1G Cd1 1_555 1_555
N2G C11G 1_555 1_555
N3E C14E 1_555 1_555
N3G Cd1 1_555 1_555
C1G N1G 1_555 1_555
H1G C1G 1_555 1_555
C2G C1G 1_555 1_555
H2G C2G 1_555 1_555
C3G C2G 1_555 1_555
C4G C3G 1_555 1_555
H3G C4G 1_555 1_555
C5G N1G 1_555 1_555
H4G C5G 1_555 1_555
C6G C3G 1_555 1_555
H5G C6G 1_555 1_555
H6G C6G 1_555 1_555
C7G C6G 1_555 1_555
H7G C7G 1_555 1_555
H8G C7G 1_555 1_555
C8G C7G 1_555 1_555
H9G C8G 1_555 1_555
H10G C8G 1_555 1_555
C9G C8G 1_555 1_555
C10G C9G 1_555 1_555
H11G C10G 1_555 1_555
C11G C10G 1_555 1_555
H12G C11G 1_555 1_555
C12G N2G 1_555 1_555
H13G C12G 1_555 1_555
C13G C9G 1_555 1_555
H14G C13G 1_555 1_555
C14E H15E 1_555 1_555
C15E C14E 1_555 1_555
H16E C15E 1_555 1_555
C16E C15E 1_555 1_555
C17E C16E 1_555 1_555
H17E C17E 1_555 1_555
C18E N3E 1_555 1_555
H18E C18E 1_555 1_555
C19E C20 1_555 1_555
H19E C19E 1_555 1_555
H20E C19E 1_555 1_555
H21E C20 1_555 1_555
C4 C5 1_555 1_555
C12 C13 1_555 1_555
C17 C18 1_555 1_555
C4G C5G 1_555 1_555
C12G C13G 1_555 1_555
C16E C19E 1_555 1_555
C17E C18E 1_555 1_555

#END
