
#######################################################################
#
#                 Cambridge Crystallographic Data Centre
#                                CCDC 
#
#######################################################################
#
# If this CIF has been generated from an entry in the Cambridge 
# Structural Database, then it will include bibliographic, chemical, 
# crystal, experimental, refinement or atomic coordinate data resulting 
# from the CCDC's data processing and validation procedures.
#
#######################################################################

data_KAPVUU
_symmetry_cell_setting           monoclinic
_symmetry_space_group_name_H-M   'P n'
_symmetry_Int_Tables_number      7
_space_group_name_Hall           'P -2yac'
loop_
_symmetry_equiv_pos_site_id
_symmetry_equiv_pos_as_xyz
1 x,y,z
2 1/2+x,-y,1/2+z
_cell_length_a                   10.3042(2)
_cell_length_b                   10.0251(2)
_cell_length_c                   21.0685(4)
_cell_angle_alpha                90
_cell_angle_beta                 98.1010(10)
_cell_angle_gamma                90
_cell_volume                     2154.67
loop_
_atom_site_label
_atom_site_type_symbol
_atom_site_fract_x
_atom_site_fract_y
_atom_site_fract_z
Cd1 Cd 0.58665(4) 0.26669(2) 0.86706(3)
S1 S 0.3688(2) 0.70578(19) 0.81319(15)
S2 S 0.7789(3) -0.18230(19) 0.91467(12)
N1 N 0.5062(4) 0.4730(4) 0.83093(18)
N2 N 0.6644(5) 0.0577(5) 0.9042(2)
N3 N 1.1638(3) 0.6413(3) 0.46856(15)
N4 N 0.8862(4) -0.2152(4) 0.40752(18)
N5 N 0.5177(3) 0.1703(3) 0.76468(16)
N6 N 0.7908(4) 0.3130(4) 0.82857(16)
C1 C 0.4529(4) 0.5679(4) 0.8251(2)
C2 C 0.7067(3) -0.0310(3) 0.90780(14)
C3 C 1.1623(7) 0.7134(6) 0.5224(3)
H1 H 1.1386 0.8029 0.5185
C4 C 1.1938(5) 0.6616(5) 0.5820(2)
H2 H 1.1913 0.7156 0.6177
C5 C 1.2298(4) 0.5288(4) 0.59025(19)
C6 C 1.2323(5) 0.4560(5) 0.5349(2)
H3 H 1.2570 0.3667 0.5375
C7 C 1.1987(5) 0.5146(5) 0.4761(2)
H4 H 1.2006 0.4626 0.4397
C8 C 0.8011(5) -0.3088(5) 0.4181(2)
H5 H 0.8181 -0.3961 0.4068
C9 C 0.6896(6) -0.2847(7) 0.4447(3)
H6 H 0.6334 -0.3548 0.4508
C10 C 0.6601(4) -0.1577(5) 0.4626(2)
C11 C 0.7483(5) -0.0606(5) 0.4521(3)
H7 H 0.7343 0.0268 0.4643
C12 C 0.8574(5) -0.0906(5) 0.4236(3)
H8 H 0.9131 -0.0217 0.4153
C13 C 0.5375(4) -0.1250(6) 0.4907(2)
H9 H 0.4809 -0.0711 0.4602
H10 H 0.4915 -0.2074 0.4968
C14 C 0.4725(5) 0.0459(5) 0.7578(2)
H11 H 0.4602 -0.0015 0.7945
C15 C 0.4434(4) -0.0159(5) 0.6996(2)
H12 H 0.4116 -0.1028 0.6973
C16 C 0.4612(4) 0.0511(5) 0.64422(19)
C17 C 0.5047(5) 0.1802(5) 0.65078(19)
H13 H 0.5152 0.2303 0.6147
C18 C 0.5333(7) 0.2364(5) 0.7122(3)
H14 H 0.5645 0.3236 0.7160
C19 C 0.4338(4) -0.0172(6) 0.5792(2)
H15 H 0.3815 0.0413 0.5491
H16 H 0.3841 -0.0982 0.5832
C20 C 0.5617(4) -0.0515(5) 0.55384(19)
H17 H 0.6095 0.0301 0.5483
H18 H 0.6157 -0.1063 0.5851
C21 C 0.8179(5) 0.4299(5) 0.8056(3)
H19 H 0.7580 0.4988 0.8071
C22 C 0.9304(5) 0.4561(5) 0.7792(3)
H20 H 0.9446 0.5407 0.7634
C23 C 1.0225(4) 0.3557(5) 0.77640(19)
C24 C 0.9933(7) 0.2359(6) 0.8009(4)
H21 H 1.0517 0.1652 0.8007
C25 C 0.8776(5) 0.2178(5) 0.8260(2)
H22 H 0.8603 0.1341 0.8419
C26 C 1.1471(4) 0.3784(6) 0.7477(2)
H23 H 1.2061 0.4324 0.7771
H24 H 1.1893 0.2929 0.7435
C27 C 1.1271(4) 0.4452(5) 0.68364(19)
H25 H 1.0847 0.5305 0.6877
H26 H 1.0686 0.3910 0.6541
C28 C 1.2524(4) 0.4679(7) 0.6556(2)
H27 H 1.3093 0.5260 0.6840
H28 H 1.2972 0.3833 0.6534
Cd1A Cd 1.08665(4) -0.26669(2) 0.36706(3)
Cd1A_2 Cd 1.08665(4) 0.73331(2) 0.36706(3)
N3A N 0.6638(3) 0.3587(3) 0.96856(15)
N4A N 0.3862(4) 0.2152(4) 0.90752(18)
S3 S 0.9123(2) 0.8953(2) 0.74266(11)
S4 S 1.05823(19) 0.9412(3) 0.69220(18)
C29 C 0.8138(8) 0.7766(7) 0.6954(4)
C30 C 0.6948(9) 0.7389(7) 0.7193(4)
H29 H 0.6718 0.7772 0.7564
C31 C 0.6191(7) 0.6482(7) 0.6869(3)
H30 H 0.5419 0.6242 0.7022
C32 C 0.6468(7) 0.5888(7) 0.6336(3)
H31 H 0.5904 0.5256 0.6124
C33 C 0.7606(7) 0.6232(6) 0.6107(3)
H32 H 0.7813 0.5809 0.5742
C34 C 0.8445(9) 0.7174(7) 0.6397(4)
H33 H 0.9198 0.7412 0.6227
C35 C 0.9919(5) 1.0604(7) 0.6318(4)
C36 C 0.8826(5) 1.1348(7) 0.6347(3)
H34 H 0.8346 1.1212 0.6684
C37 C 0.8410(11) 1.2298(10) 0.5890(6)
H35 H 0.7682 1.2822 0.5931
C38 C 0.9080(16) 1.2473(12) 0.5369(7)
H36 H 0.8773 1.3060 0.5040
C39 C 1.0186(18) 1.177(2) 0.5355(7)
H37 H 1.0689 1.1935 0.5030
C40 C 1.0590(11) 1.0828(13) 0.5793(8)
H38 H 1.1326 1.0319 0.5748
N7 N 0.5626(11) 0.3819(13) 0.5011(6)
C41 C 0.5820(17) 0.2994(19) 0.3910(6)
H39 H 0.6663 0.2592 0.3903
H40 H 0.5720 0.3739 0.3620
H41 H 0.5145 0.2350 0.3780
C42 C 0.5718(9) 0.3436(11) 0.4533(6)
loop_
_geom_bond_atom_site_label_1
_geom_bond_atom_site_label_2
_geom_bond_site_symmetry_1
_geom_bond_site_symmetry_2
Cd1 N1 1_555 1_555
S1 C1 1_555 1_555
S2 C2 1_555 1_555
N1 C1 1_555 1_555
N2 Cd1 1_555 1_555
N3 C3 1_555 1_555
N4 C8 1_555 1_555
N5 Cd1 1_555 1_555
N6 Cd1 1_555 1_555
C2 N2 1_555 1_555
C3 H1 1_555 1_555
C4 C3 1_555 1_555
H2 C4 1_555 1_555
C5 C4 1_555 1_555
C6 C5 1_555 1_555
H3 C6 1_555 1_555
C7 N3 1_555 1_555
H4 C7 1_555 1_555
C8 H5 1_555 1_555
C9 C8 1_555 1_555
H6 C9 1_555 1_555
C10 C9 1_555 1_555
C11 C10 1_555 1_555
H7 C11 1_555 1_555
C12 N4 1_555 1_555
H8 C12 1_555 1_555
C13 C10 1_555 1_555
H9 C13 1_555 1_555
H10 C13 1_555 1_555
C14 N5 1_555 1_555
H11 C14 1_555 1_555
C15 C14 1_555 1_555
H12 C15 1_555 1_555
C16 C15 1_555 1_555
C17 C16 1_555 1_555
H13 C17 1_555 1_555
C18 N5 1_555 1_555
H14 C18 1_555 1_555
C19 C16 1_555 1_555
H15 C19 1_555 1_555
H16 C19 1_555 1_555
C20 C13 1_555 1_555
H17 C20 1_555 1_555
H18 C20 1_555 1_555
C21 N6 1_555 1_555
H19 C21 1_555 1_555
C22 C21 1_555 1_555
H20 C22 1_555 1_555
C23 C22 1_555 1_555
C24 C23 1_555 1_555
H21 C24 1_555 1_555
C25 N6 1_555 1_555
H22 C25 1_555 1_555
C26 C23 1_555 1_555
H23 C26 1_555 1_555
H24 C26 1_555 1_555
C27 C26 1_555 1_555
H25 C27 1_555 1_555
H26 C27 1_555 1_555
C28 C5 1_555 1_555
H27 C28 1_555 1_555
H28 C28 1_555 1_555
S3 S4 1_555 1_555
S4 C35 1_555 1_555
C29 S3 1_555 1_555
C30 C29 1_555 1_555
H29 C30 1_555 1_555
C31 C30 1_555 1_555
H30 C31 1_555 1_555
C32 C31 1_555 1_555
H31 C32 1_555 1_555
C33 C32 1_555 1_555
H32 C33 1_555 1_555
C34 C29 1_555 1_555
H33 C34 1_555 1_555
C35 C36 1_555 1_555
C36 H34 1_555 1_555
C37 C36 1_555 1_555
H35 C37 1_555 1_555
C38 C37 1_555 1_555
H36 C38 1_555 1_555
C39 C38 1_555 1_555
H37 C39 1_555 1_555
C40 C35 1_555 1_555
H38 C40 1_555 1_555
N7 C42 1_555 1_555
C41 H39 1_555 1_555
H40 C41 1_555 1_555
H41 C41 1_555 1_555
C42 C41 1_555 1_555
Cd1A N4 1_555 1_555
Cd1A_2 N3 1_555 1_555
N3A Cd1 1_555 1_555
N4A Cd1 1_555 1_555
C6 C7 1_555 1_555
C11 C12 1_555 1_555
C17 C18 1_555 1_555
C19 C20 1_555 1_555
C24 C25 1_555 1_555
C27 C28 1_555 1_555
C33 C34 1_555 1_555
C39 C40 1_555 1_555

#END
