
#######################################################################
#
#                 Cambridge Crystallographic Data Centre
#                                CCDC 
#
#######################################################################
#
# If this CIF has been generated from an entry in the Cambridge 
# Structural Database, then it will include bibliographic, chemical, 
# crystal, experimental, refinement or atomic coordinate data resulting 
# from the CCDC's data processing and validation procedures.
#
#######################################################################

data_KAPWAB
_symmetry_cell_setting           monoclinic
_symmetry_space_group_name_H-M   'C 2/c'
_symmetry_Int_Tables_number      15
_space_group_name_Hall           '-C 2yn'
loop_
_symmetry_equiv_pos_site_id
_symmetry_equiv_pos_as_xyz
1 x,y,z
2 -x,y,1/2-z
3 1/2+x,1/2+y,z
4 1/2-x,1/2+y,1/2-z
5 -x,-y,-z
6 x,-y,1/2+z
7 1/2-x,1/2-y,-z
8 1/2+x,1/2-y,1/2+z
_cell_length_a                   23.9721(4)
_cell_length_b                   10.3929(2)
_cell_length_c                   18.0899(3)
_cell_angle_alpha                90
_cell_angle_beta                 110.2140(10)
_cell_angle_gamma                90
_cell_volume                     4229.32
loop_
_atom_site_label
_atom_site_type_symbol
_atom_site_fract_x
_atom_site_fract_y
_atom_site_fract_z
Cd1 Cd 0.5000 0.5000 0.5000
S1 S 0.5425(3) 0.8688(7) 0.3545(5)
N1 N 0.5059(3) 0.6939(6) 0.4420(4)
N2 N 0.4691(2) 0.4019(5) 0.3745(3)
N3 N 0.1018(2) 0.0420(6) 0.0203(3)
C1 C 0.5227(3) 0.7779(10) 0.4243(7)
C2 C 0.4440(4) 0.4661(8) 0.3086(5)
H1 H 0.4442 0.5554 0.3115
C3 C 0.4173(3) 0.4102(8) 0.2349(4)
H2 H 0.3996 0.4610 0.1907
C4 C 0.4178(3) 0.2782(7) 0.2287(4)
C5 C 0.4465(3) 0.2090(7) 0.2948(5)
H3 H 0.4498 0.1202 0.2919
C6 C 0.4714(3) 0.2732(7) 0.3677(4)
H4 H 0.4900 0.2247 0.4127
C7 C 0.3868(3) 0.2115(8) 0.1517(4)
H5 H 0.4051 0.1283 0.1514
H6 H 0.3907 0.2623 0.1087
C8 C 0.3209(3) 0.1935(7) 0.1401(4)
H7 H 0.3174 0.1574 0.1878
H8 H 0.3014 0.2768 0.1313
C9 C 0.2898(3) 0.1057(7) 0.0712(4)
H9 H 0.2949 0.1411 0.0243
H10 H 0.3093 0.0225 0.0810
C10 C 0.2242(3) 0.0854(7) 0.0543(4)
C11 C 0.1896(3) 0.1639(7) 0.0834(5)
H11 H 0.2068 0.2336 0.1154
C12 C 0.1303(3) 0.1390(7) 0.0652(4)
H12 H 0.1086 0.1937 0.0856
C13 C 0.1347(3) -0.0369(8) -0.0085(5)
H13 H 0.1161 -0.1056 -0.0405
C14 C 0.1949(3) -0.0182(8) 0.0084(5)
H14 H 0.2161 -0.0755 -0.0112
Cd1C Cd 0.0000 0.0000 0.0000
Cd1C_2 Cd 1.0000 1.0000 1.0000
S1D S 0.4575(3) 0.1312(7) 0.6455(5)
N1D N 0.4941(3) 0.3061(6) 0.5580(4)
N2D N 0.5309(2) 0.5981(5) 0.6255(3)
N3D N 0.8982(2) 0.9580(6) 0.9797(3)
N3C N 0.3982(2) 0.5420(6) 0.4797(3)
N3G N 0.6018(2) 0.4580(6) 0.5203(3)
C1D C 0.4773(3) 0.2221(10) 0.5757(7)
C2D C 0.5560(4) 0.5339(8) 0.6914(5)
H1D H 0.5558 0.4446 0.6885
C3D C 0.5827(3) 0.5898(8) 0.7651(4)
H2D H 0.6004 0.5390 0.8093
C4D C 0.5822(3) 0.7218(7) 0.7713(4)
C5D C 0.5535(3) 0.7910(7) 0.7052(5)
H3D H 0.5502 0.8798 0.7081
C6D C 0.5286(3) 0.7268(7) 0.6323(4)
H4D H 0.5100 0.7753 0.5873
C7D C 0.6132(3) 0.7885(8) 0.8483(4)
H5D H 0.5949 0.8717 0.8486
H6D H 0.6093 0.7377 0.8913
C8D C 0.6791(3) 0.8065(7) 0.8599(4)
H7D H 0.6826 0.8426 0.8122
H8D H 0.6986 0.7232 0.8687
C9D C 0.7102(3) 0.8943(7) 0.9288(4)
H9D H 0.7051 0.8589 0.9757
H10D H 0.6907 0.9775 0.9190
C10D C 0.7758(3) 0.9146(7) 0.9457(4)
C11D C 0.8104(3) 0.8361(7) 0.9166(5)
H11D H 0.7932 0.7664 0.8846
C12D C 0.8697(3) 0.8610(7) 0.9348(4)
H12D H 0.8914 0.8063 0.9144
C13D C 0.8653(3) 1.0369(8) 1.0085(5)
H13D H 0.8839 1.1056 1.0405
C14D C 0.8051(3) 1.0182(8) 0.9916(5)
H14D H 0.7839 1.0755 1.0112
S2 S 0.2111(3) 0.3273(6) 0.6023(3)
C15 C 0.1883(5) 0.6561(10) 0.7711(7)
C16 C 0.1373(5) 0.6222(18) 0.7120(11)
H15 H 0.1023 0.6652 0.7080
C17 C 0.1351(7) 0.5284(18) 0.6587(12)
H16 H 0.0986 0.5004 0.6240
C18 C 0.1861(7) 0.4757(12) 0.6561(7)
C19 C 0.2378(6) 0.5140(10) 0.7121(7)
H17 H 0.2732 0.4765 0.7127
C20 C 0.2399(4) 0.6048(10) 0.7672(6)
H18 H 0.2764 0.6321 0.8023
S3? S 0.2979(3) 0.2722(6) 0.6462(4)
S4? S 0.4508(3) 0.0687(7) 0.5782(5)
loop_
_geom_bond_atom_site_label_1
_geom_bond_atom_site_label_2
_geom_bond_site_symmetry_1
_geom_bond_site_symmetry_2
Cd1 N1 1_555 1_555
S1 C1 1_555 1_555
S2 C18 1_555 1_555
N1 C1 1_555 1_555
N2 Cd1 1_555 1_555
N3 C12 1_555 1_555
C2 N2 1_555 1_555
H1 C2 1_555 1_555
C3 C2 1_555 1_555
H2 C3 1_555 1_555
C4 C3 1_555 1_555
C5 C4 1_555 1_555
H3 C5 1_555 1_555
C6 N2 1_555 1_555
H4 C6 1_555 1_555
C7 C4 1_555 1_555
H5 C7 1_555 1_555
H6 C7 1_555 1_555
C8 C7 1_555 1_555
H7 C8 1_555 1_555
H8 C8 1_555 1_555
C9 C8 1_555 1_555
H9 C9 1_555 1_555
H10 C9 1_555 1_555
C10 C9 1_555 1_555
C11 C10 1_555 1_555
H11 C11 1_555 1_555
C12 C11 1_555 1_555
H12 C12 1_555 1_555
C13 N3 1_555 1_555
H13 C13 1_555 1_555
C14 C10 1_555 1_555
H14 C14 1_555 1_555
C15 C16 1_555 1_555
C16 H15 1_555 1_555
C17 C16 1_555 1_555
H16 C17 1_555 1_555
C18 C17 1_555 1_555
C19 C18 1_555 1_555
H17 C19 1_555 1_555
C20 C15 1_555 1_555
H18 C20 1_555 1_555
Cd1C N3 1_555 1_555
Cd1C_2 N3D 1_555 1_555
S1D C1D 1_555 1_555
N1D Cd1 1_555 1_555
N2D Cd1 1_555 1_555
N3D C12D 1_555 1_555
N3C Cd1 1_555 1_555
N3G Cd1 1_555 1_555
C1D N1D 1_555 1_555
C2D N2D 1_555 1_555
H1D C2D 1_555 1_555
C3D C2D 1_555 1_555
H2D C3D 1_555 1_555
C4D C3D 1_555 1_555
C5D C4D 1_555 1_555
H3D C5D 1_555 1_555
C6D N2D 1_555 1_555
H4D C6D 1_555 1_555
C7D C4D 1_555 1_555
H5D C7D 1_555 1_555
H6D C7D 1_555 1_555
C8D C7D 1_555 1_555
H7D C8D 1_555 1_555
H8D C8D 1_555 1_555
C9D C8D 1_555 1_555
H9D C9D 1_555 1_555
H10D C9D 1_555 1_555
C10D C9D 1_555 1_555
C11D C10D 1_555 1_555
H11D C11D 1_555 1_555
C12D C11D 1_555 1_555
H12D C12D 1_555 1_555
C13D N3D 1_555 1_555
H13D C13D 1_555 1_555
C14D C10D 1_555 1_555
H14D C14D 1_555 1_555
C5 C6 1_555 1_555
C13 C14 1_555 1_555
C19 C20 1_555 1_555
C5D C6D 1_555 1_555
C13D C14D 1_555 1_555

#END
