
#######################################################################
#
#                 Cambridge Crystallographic Data Centre
#                                CCDC 
#
#######################################################################
#
# If this CIF has been generated from an entry in the Cambridge 
# Structural Database, then it will include bibliographic, chemical, 
# crystal, experimental, refinement or atomic coordinate data resulting 
# from the CCDC's data processing and validation procedures.
#
#######################################################################

data_KAPXUW
_symmetry_cell_setting           monoclinic
_symmetry_space_group_name_H-M   'C 2/c'
_symmetry_Int_Tables_number      15
_space_group_name_Hall           '-C 2yn'
loop_
_symmetry_equiv_pos_site_id
_symmetry_equiv_pos_as_xyz
1 x,y,z
2 -x,y,1/2-z
3 1/2+x,1/2+y,z
4 1/2-x,1/2+y,1/2-z
5 -x,-y,-z
6 x,-y,1/2+z
7 1/2-x,1/2-y,-z
8 1/2+x,1/2-y,1/2+z
_cell_length_a                   25.993(7)
_cell_length_b                   14.628(4)
_cell_length_c                   21.521(5)
_cell_angle_alpha                90
_cell_angle_beta                 108.245(3)
_cell_angle_gamma                90
_cell_volume                     7771.46
loop_
_atom_site_label
_atom_site_type_symbol
_atom_site_fract_x
_atom_site_fract_y
_atom_site_fract_z
Cu2 Cu -0.23474(17) -0.2112(3) -0.08165(16)
N1 N -0.2839(8) -0.1178(15) -0.0813(8)
N2 N -0.3055(9) -0.1812(15) 0.0850(8)
C12 C -0.3573(8) 0.0158(14) -0.0713(9)
C13 C -0.3058(12) 0.0358(17) -0.0664(11)
H13 H -0.2938 0.0958 -0.0586
C14 C -0.2787(10) -0.094(2) 0.0929(12)
H14 H -0.2412 -0.0908 0.1033
C15 C -0.3357(10) -0.1401(16) -0.0863(11)
H15 H -0.3469 -0.2005 -0.0943
C16 C -0.2707(10) -0.0309(18) -0.0727(11)
H16 H -0.2357 -0.0137 -0.0708
C17 C -0.3734(10) -0.0736(15) -0.0796(10)
H17 H -0.4082 -0.0904 -0.0809
C18 C -0.3953(11) 0.0920(17) -0.0682(14)
H18 H -0.3747 0.1476 -0.0537
H19 H -0.4204 0.1029 -0.1116
C19 C -0.4001(15) 0.063(2) 0.0564(15)
H20 H -0.4264 0.0602 0.0799
H21 H -0.3784 0.1181 0.0702
C20 C -0.4295(13) 0.0668(19) -0.0179(14)
H22 H -0.4462 0.0075 -0.0307
H23 H -0.4586 0.1109 -0.0253
C23 C -0.3081(11) -0.0177(19) 0.0853(14)
H26 H -0.2903 0.0383 0.0899
C24 C -0.3596(9) -0.1822(15) 0.0724(9)
H27 H -0.3785 -0.2371 0.0627
C25 C -0.3651(10) -0.0184(13) 0.0705(11)
C26 C -0.3862(8) -0.1045(14) 0.0736(11)
H28 H -0.4210 -0.1084 0.0767
Cu2F Cu -0.26526(17) -0.2888(3) 0.08165(16)
N1F N -0.2161(8) -0.3822(15) 0.0813(8)
N2F N -0.1945(9) -0.3188(15) -0.0850(8)
C12F C -0.1427(8) -0.5158(14) 0.0713(9)
C13F C -0.1942(12) -0.5358(17) 0.0664(11)
H13F H -0.2062 -0.5958 0.0586
C14F C -0.2213(10) -0.406(2) -0.0929(12)
H14F H -0.2588 -0.4092 -0.1033
C15F C -0.1643(10) -0.3599(16) 0.0863(11)
H15F H -0.1531 -0.2995 0.0943
C16F C -0.2293(10) -0.4691(18) 0.0727(11)
H16F H -0.2643 -0.4863 0.0708
C17F C -0.1266(10) -0.4264(15) 0.0796(10)
H17F H -0.0918 -0.4096 0.0809
C18F C -0.1047(11) -0.5920(17) 0.0682(14)
H18F H -0.1253 -0.6476 0.0537
H19F H -0.0796 -0.6029 0.1116
C19F C -0.0999(15) -0.563(2) -0.0564(15)
H20F H -0.0736 -0.5602 -0.0799
H21F H -0.1216 -0.6181 -0.0702
C20F C -0.0705(13) -0.5668(19) 0.0179(14)
H22F H -0.0538 -0.5075 0.0307
H23F H -0.0414 -0.6109 0.0253
C23F C -0.1919(11) -0.4823(19) -0.0853(14)
H26F H -0.2097 -0.5383 -0.0899
C24F C -0.1404(9) -0.3178(15) -0.0724(9)
H27F H -0.1215 -0.2629 -0.0627
C25F C -0.1349(10) -0.4816(13) -0.0705(11)
C26F C -0.1138(8) -0.3955(14) -0.0736(11)
H28F H -0.0790 -0.3916 -0.0767
N3 N -0.1193(10) 0.130(2) 0.1576(9)
N4 N -0.4265(12) 0.199(3) 0.2531(18)
C1 C -0.2643(14) 0.249(3) 0.2476(17)
H1 H -0.2402 0.2485 0.2923
H2 H -0.2537 0.1983 0.2252
C2 C -0.203(2) 0.341(3) 0.213(2)
H3 H -0.2054 0.3915 0.1824
H4 H -0.1790 0.3613 0.2549
C3 C -0.255(2) 0.328(3) 0.2189(14)
H5 H -0.2619 0.3788 0.2438
H6 H -0.2807 0.3312 0.1755
C4 C -0.1230(13) 0.242(3) 0.2339(12)
H7 H -0.1085 0.2619 0.2770
C5 C -0.1977(13) 0.224(3) 0.1391(12)
H8 H -0.2329 0.2378 0.1139
C6 C -0.1782(12) 0.270(2) 0.1923(15)
C7 C -0.4011(9) 0.1288(19) 0.2372(7)
H9 H -0.4176 0.0719 0.2280
C8 C -0.4045(9) 0.2853(19) 0.2705(7)
H10 H -0.4237 0.3314 0.2832
C9 C -0.3523(9) 0.2992(19) 0.2678(7)
H11 H -0.3360 0.3562 0.2781
C10 C -0.3245(9) 0.2279(19) 0.2499(7)
C11 C -0.3489(9) 0.1427(19) 0.2346(7)
H12 H -0.3304 0.0951 0.2225
C21 C -0.1721(14) 0.154(2) 0.1150(13)
H24 H -0.1879 0.1264 0.0747
C22 C -0.0954(12) 0.188(3) 0.2052(10)
H25 H -0.0578 0.1904 0.2196
O2 O -0.5000 0.057(2) 0.2500
Cu3 Cu -0.5000 0.2012(8) 0.2500
N3A N -0.8807(10) 0.130(2) 0.3424(9)
N4A N -0.5735(12) 0.199(3) 0.2469(18)
C1A C -0.7357(14) 0.249(3) 0.2524(17)
H1A H -0.7598 0.2485 0.2077
H2A H -0.7463 0.1983 0.2748
C2A C -0.797(2) 0.341(3) 0.287(2)
H3A H -0.7946 0.3915 0.3176
H4A H -0.8210 0.3613 0.2451
C3A C -0.745(2) 0.328(3) 0.2811(14)
H5A H -0.7381 0.3788 0.2562
H6A H -0.7193 0.3312 0.3245
C4A C -0.8770(13) 0.242(3) 0.2661(12)
H7A H -0.8915 0.2619 0.2230
C5A C -0.8023(13) 0.224(3) 0.3609(12)
H8A H -0.7671 0.2378 0.3861
C6A C -0.8218(12) 0.270(2) 0.3077(15)
C7A C -0.5989(9) 0.1288(19) 0.2628(7)
H9A H -0.5824 0.0719 0.2720
C8A C -0.5955(9) 0.2853(19) 0.2295(7)
H10A H -0.5763 0.3314 0.2168
C9A C -0.6477(9) 0.2992(19) 0.2322(7)
H11A H -0.6640 0.3562 0.2219
C10A C -0.6755(9) 0.2279(19) 0.2501(7)
C11A C -0.6511(9) 0.1427(19) 0.2654(7)
H12A H -0.6696 0.0951 0.2775
C21A C -0.8279(14) 0.154(2) 0.3850(13)
H24A H -0.8121 0.1264 0.4253
C22A C -0.9046(12) 0.188(3) 0.2948(10)
H25A H -0.9422 0.1904 0.2804
W1 W -0.11572(3) 0.14280(5) -0.02948(3)
W2 W 0.00033(3) 0.22319(5) -0.06747(3)
W3 W -0.00530(3) -0.19273(5) -0.10127(3)
W4 W -0.11618(3) -0.08255(6) 0.03609(3)
W5 W -0.12035(3) -0.04908(6) -0.13264(3)
Cu1 Cu 0.00265(5) -0.02940(10) 0.16310(5)
P1 P 0.0000 0.0000 0.0000
O1 O -0.0240(10) 0.0899(18) -0.0024(11)
O3 O 0.0000 -0.0435(14) 0.2500
O4 O -0.1355(7) 0.0678(9) -0.1032(6)
O5 O -0.0750(7) -0.0437(14) 0.1202(9)
O6 O -0.1790(6) -0.0748(10) -0.1903(6)
O7 O -0.1693(7) 0.2109(12) -0.0412(7)
O8 O -0.1728(6) -0.1223(10) 0.0492(8)
O9 O -0.0264(9) -0.0447(15) -0.0702(10)
O10 O 0.0020(6) 0.3291(11) -0.0972(7)
O11 O 0.0238(10) 0.0649(17) -0.0483(11)
O12 O -0.0086(5) -0.2865(10) -0.1478(6)
O13 O 0.0163(6) 0.2451(11) 0.0225(6)
O14 O -0.0594(9) 0.0099(16) -0.0209(9)
O15 O -0.0701(6) 0.1865(12) 0.0524(6)
O16 O -0.0772(8) 0.0078(13) -0.1751(10)
O17 O -0.0735(6) 0.2102(11) -0.0702(6)
O18 O 0.0104(6) -0.1002(13) -0.1526(10)
O19 O -0.1360(7) -0.0994(9) -0.0535(7)
O20 O -0.1336(7) 0.0451(10) 0.0166(6)
O21 O 0.0750(7) 0.1898(14) -0.0457(8)
O22 O -0.0789(7) -0.1583(14) -0.1283(11)
O23 O -0.0125(6) 0.1523(15) -0.1398(9)
W1D W 0.11572(3) -0.14280(5) 0.02948(3)
W2D W -0.00033(3) -0.22319(5) 0.06747(3)
W3D W 0.00530(3) 0.19273(5) 0.10127(3)
W4D W 0.11618(3) 0.08255(6) -0.03609(3)
W5D W 0.12035(3) 0.04908(6) 0.13264(3)
Cu1D Cu -0.00265(5) 0.02940(10) -0.16310(5)
Cu1A Cu -0.00265(5) -0.02940(10) 0.33690(5)
O1D O 0.0240(10) -0.0899(18) 0.0024(11)
O3D O 0.0000 0.0435(14) -0.2500
O4D O 0.1355(7) -0.0678(9) 0.1032(6)
O5D O 0.0750(7) 0.0437(14) -0.1202(9)
O6D O 0.1790(6) 0.0748(10) 0.1903(6)
O7D O 0.1693(7) -0.2109(12) 0.0412(7)
O8D O 0.1728(6) 0.1223(10) -0.0492(8)
O9D O 0.0264(9) 0.0447(15) 0.0702(10)
O10D O -0.0020(6) -0.3291(11) 0.0972(7)
O11D O -0.0238(10) -0.0649(17) 0.0483(11)
O12D O 0.0086(5) 0.2865(10) 0.1478(6)
O13D O -0.0163(6) -0.2451(11) -0.0225(6)
O14D O 0.0594(9) -0.0099(16) 0.0209(9)
O15D O 0.0701(6) -0.1865(12) -0.0524(6)
O16D O 0.0772(8) -0.0078(13) 0.1751(10)
O17D O 0.0735(6) -0.2102(11) 0.0702(6)
O18D O -0.0104(6) 0.1002(13) 0.1526(10)
O19D O 0.1360(7) 0.0994(9) 0.0535(7)
O20D O 0.1336(7) -0.0451(10) -0.0166(6)
O21D O -0.0750(7) -0.1898(14) 0.0457(8)
O22D O 0.0789(7) 0.1583(14) 0.1283(11)
O23D O 0.0125(6) -0.1523(15) 0.1398(9)
W6? W 0.00265(5) -0.02940(10) 0.16310(5)
loop_
_geom_bond_atom_site_label_1
_geom_bond_atom_site_label_2
_geom_bond_site_symmetry_1
_geom_bond_site_symmetry_2
W1 O1 1_555 1_555
W2 O10 1_555 1_555
W3 O9 1_555 1_555
W4 O5 1_555 1_555
W5 O4 1_555 1_555
Cu1 O3 1_555 1_555
P1 O1 1_555 1_555
Cu2 N1 1_555 1_555
N1 C15 1_555 1_555
N2 C14 1_555 1_555
N3 C21 1_555 1_555
N4 C7 1_555 1_555
C1 H1 1_555 1_555
H2 C1 1_555 1_555
C2 H3 1_555 1_555
H4 C2 1_555 1_555
C3 C1 1_555 1_555
H5 C3 1_555 1_555
H6 C3 1_555 1_555
C4 H7 1_555 1_555
C5 H8 1_555 1_555
C6 C2 1_555 1_555
C7 H9 1_555 1_555
C8 N4 1_555 1_555
H10 C8 1_555 1_555
C9 C8 1_555 1_555
H11 C9 1_555 1_555
C10 C1 1_555 1_555
C11 C7 1_555 1_555
H12 C11 1_555 1_555
C12 C13 1_555 1_555
C13 H13 1_555 1_555
C14 H14 1_555 1_555
C15 H15 1_555 1_555
C16 N1 1_555 1_555
H16 C16 1_555 1_555
C17 C12 1_555 1_555
H17 C17 1_555 1_555
C18 C12 1_555 1_555
H18 C18 1_555 1_555
H19 C18 1_555 1_555
C19 H20 1_555 1_555
H21 C19 1_555 1_555
C20 C18 1_555 1_555
H22 C20 1_555 1_555
H23 C20 1_555 1_555
C21 C5 1_555 1_555
H24 C21 1_555 1_555
C22 N3 1_555 1_555
H25 C22 1_555 1_555
C23 C14 1_555 1_555
H26 C23 1_555 1_555
C24 N2 1_555 1_555
H27 C24 1_555 1_555
C25 C19 1_555 1_555
C26 C24 1_555 1_555
H28 C26 1_555 1_555
O1 O14 1_555 1_555
O2 Cu3 1_555 1_555
O3 Cu1A 1_555 1_555
O4 W1 1_555 1_555
O5 Cu1 1_555 1_555
O6 W5 1_555 1_555
O7 W1 1_555 1_555
O8 W4 1_555 1_555
O9 W5 1_555 1_555
O11 W2 1_555 1_555
O12 W3 1_555 1_555
O13 W2 1_555 1_555
O14 W1 1_555 1_555
O15 W1 1_555 1_555
O16 W5 1_555 1_555
O17 W1 1_555 1_555
O18 W3 1_555 1_555
O19 W4 1_555 1_555
O20 W1 1_555 1_555
O21 W2 1_555 1_555
O22 W3 1_555 1_555
O23 W2 1_555 1_555
Cu3 N4 1_555 1_555
W1D O1D 1_555 1_555
W2D O10D 1_555 1_555
W3D O13 1_555 1_555
W4D O11 1_555 1_555
W5D O4D 1_555 1_555
Cu1D O16 1_555 1_555
Cu2F N2 1_555 1_555
N1F Cu2F 1_555 1_555
N2F Cu2 1_555 1_555
N3A C21A 1_555 1_555
N4A Cu3 1_555 1_555
C1A H1A 1_555 1_555
H2A C1A 1_555 1_555
C2A H3A 1_555 1_555
H4A C2A 1_555 1_555
C3A C1A 1_555 1_555
H5A C3A 1_555 1_555
H6A C3A 1_555 1_555
C4A H7A 1_555 1_555
C5A H8A 1_555 1_555
C6A C2A 1_555 1_555
C7A N4A 1_555 1_555
H9A C7A 1_555 1_555
C8A N4A 1_555 1_555
H10A C8A 1_555 1_555
C9A C8A 1_555 1_555
H11A C9A 1_555 1_555
C10A C1A 1_555 1_555
C11A C7A 1_555 1_555
H12A C11A 1_555 1_555
C12F C13F 1_555 1_555
C13F H13F 1_555 1_555
C14F N2F 1_555 1_555
H14F C14F 1_555 1_555
C15F N1F 1_555 1_555
H15F C15F 1_555 1_555
C16F N1F 1_555 1_555
H16F C16F 1_555 1_555
C17F C12F 1_555 1_555
H17F C17F 1_555 1_555
C18F C12F 1_555 1_555
H18F C18F 1_555 1_555
H19F C18F 1_555 1_555
C19F H20F 1_555 1_555
H21F C19F 1_555 1_555
C20F C18F 1_555 1_555
H22F C20F 1_555 1_555
H23F C20F 1_555 1_555
C21A C5A 1_555 1_555
H24A C21A 1_555 1_555
C22A N3A 1_555 1_555
H25A C22A 1_555 1_555
C23F C14F 1_555 1_555
H26F C23F 1_555 1_555
C24F N2F 1_555 1_555
H27F C24F 1_555 1_555
C25F C19F 1_555 1_555
C26F C24F 1_555 1_555
H28F C26F 1_555 1_555
O1D P1 1_555 1_555
O3D Cu1D 1_555 1_555
O4D W1D 1_555 1_555
O5D W4D 1_555 1_555
O6D W5D 1_555 1_555
O7D W1D 1_555 1_555
O8D W4D 1_555 1_555
O9D P1 1_555 1_555
O11D W4 1_555 1_555
O12D W3D 1_555 1_555
O13D W3 1_555 1_555
O14D P1 1_555 1_555
O15D W3 1_555 1_555
O16D Cu1 1_555 1_555
O17D W1D 1_555 1_555
O18D Cu1 1_555 1_555
O19D W4D 1_555 1_555
O20D W1D 1_555 1_555
O21D W4 1_555 1_555
O22D W3D 1_555 1_555
O23D Cu1 1_555 1_555
W2 O17 1_555 1_555
W4 O20 1_555 1_555
W5 O19 1_555 1_555
W5 O22 1_555 1_555
P1 O9 1_555 1_555
P1 O11 1_555 1_555
P1 O14 1_555 1_555
P1 O11D 1_555 1_555
C2 C3 1_555 1_555
C4 C6 1_555 1_555
C4 C22 1_555 1_555
C5 C6 1_555 1_555
C9 C10 1_555 1_555
C10 C11 1_555 1_555
C13 C16 1_555 1_555
C15 C17 1_555 1_555
C19 C20 1_555 1_555
C23 C25 1_555 1_555
C25 C26 1_555 1_555
O9 O14 1_555 1_555
O15 W3D 1_555 1_555
O18 Cu1D 1_555 1_555
O21 W4D 1_555 1_555
O23 Cu1D 1_555 1_555
W1D O14D 1_555 1_555
W1D O15D 1_555 1_555
W2D O11D 1_555 1_555
W2D O13D 1_555 1_555
W2D O17D 1_555 1_555
W2D O21D 1_555 1_555
W2D O23D 1_555 1_555
W3D O9D 1_555 1_555
W3D O18D 1_555 1_555
W4D O20D 1_555 1_555
W5D O9D 1_555 1_555
W5D O16D 1_555 1_555
W5D O19D 1_555 1_555
W5D O22D 1_555 1_555
Cu1D O5D 1_555 1_555
C2A C3A 1_555 1_555
C4A C6A 1_555 1_555
C4A C22A 1_555 1_555
C5A C6A 1_555 1_555
C9A C10A 1_555 1_555
C10A C11A 1_555 1_555
C13F C16F 1_555 1_555
C15F C17F 1_555 1_555
C19F C20F 1_555 1_555
C23F C25F 1_555 1_555
C25F C26F 1_555 1_555
O1D O14D 1_555 1_555
O9D O14D 1_555 1_555

#END
