
#######################################################################
#
#                 Cambridge Crystallographic Data Centre
#                                CCDC 
#
#######################################################################
#
# If this CIF has been generated from an entry in the Cambridge 
# Structural Database, then it will include bibliographic, chemical, 
# crystal, experimental, refinement or atomic coordinate data resulting 
# from the CCDC's data processing and validation procedures.
#
#######################################################################

data_KAPYEH
_symmetry_cell_setting           monoclinic
_symmetry_space_group_name_H-M   'C 2/c'
_symmetry_Int_Tables_number      15
_space_group_name_Hall           '-C 2yn'
loop_
_symmetry_equiv_pos_site_id
_symmetry_equiv_pos_as_xyz
1 x,y,z
2 -x,y,1/2-z
3 1/2+x,1/2+y,z
4 1/2-x,1/2+y,1/2-z
5 -x,-y,-z
6 x,-y,1/2+z
7 1/2-x,1/2-y,-z
8 1/2+x,1/2-y,1/2+z
_cell_length_a                   21.497(4)
_cell_length_b                   12.232(2)
_cell_length_c                   7.7414(15)
_cell_angle_alpha                90
_cell_angle_beta                 98.76(3)
_cell_angle_gamma                90
_cell_volume                     2011.87
loop_
_atom_site_label
_atom_site_type_symbol
_atom_site_fract_x
_atom_site_fract_y
_atom_site_fract_z
Cd1 Cd 0.5000 0.34497(5) 0.2500
P1 P 0.59021(7) 0.42759(13) -0.0693(2)
O1 O 0.5723(2) 0.3496(4) 0.0629(7)
O2 O 0.5621(2) 0.5409(4) -0.0690(6)
O3 O 0.5767(3) 0.3717(4) -0.2525(7)
N1 N 0.4434(3) 0.1882(5) 0.1426(8)
C1 C 0.6746(3) 0.4488(6) -0.0279(10)
H1 H 0.6866 0.4942 -0.1235
H2 H 0.6850 0.4909 0.0820
C2 C 0.7139(3) 0.3463(6) -0.0130(10)
C3 C 0.7187(3) 0.2811(7) 0.1343(11)
H3 H 0.6974 0.3018 0.2283
C4 C 0.7459(3) 0.3144(7) -0.1469(10)
H4 H 0.7436 0.3584 -0.2488
C5 C 0.4702(4) 0.0908(5) 0.1939(9)
C6 C 0.3884(4) 0.1885(8) 0.0402(11)
H5 H 0.3703 0.2568 0.0018
C7 C 0.4412(5) -0.0100(6) 0.1412(12)
C8 C 0.3552(5) 0.0920(10) -0.0149(14)
H6 H 0.3148 0.0951 -0.0846
C9 C 0.3826(6) -0.0059(9) 0.0349(14)
H7 H 0.3617 -0.0720 -0.0031
C10 C 0.4723(6) -0.1101(7) 0.1972(14)
H8 H 0.4533 -0.1777 0.1587
H9 H 0.578(7) 0.415(9) -0.337(12)
Cd1D Cd 0.5000 0.65503(5) -0.2500
Cd1F Cd 1.0000 0.15503(5) -0.2500
Cd1B Cd 1.0000 -0.15503(5) 0.2500
P1F P 0.90979(7) 0.07241(13) 0.0693(2)
O1F O 0.9277(2) 0.1504(4) -0.0629(7)
O1A O 0.4277(2) 0.3496(4) 0.4371(7)
O2F O 0.9379(2) -0.0409(4) 0.0690(6)
O2D O 0.4379(2) 0.4591(4) 0.0690(6)
O2E O 0.5621(2) 0.4591(4) 0.4310(6)
O3F O 0.9233(3) 0.1283(4) 0.2525(7)
N1A N 0.5566(3) 0.1882(5) 0.3574(8)
C1F C 0.8254(3) 0.0512(6) 0.0279(10)
H1F H 0.8134 0.0058 0.1235
H2F H 0.8150 0.0091 -0.0820
C2F C 0.7861(3) 0.1537(6) 0.0130(10)
C3F C 0.7813(3) 0.2189(7) -0.1343(11)
H3F H 0.8026 0.1982 -0.2283
C4F C 0.7541(3) 0.1856(7) 0.1469(10)
H4F H 0.7564 0.1416 0.2488
C5A C 0.5298(4) 0.0908(5) 0.3061(9)
C6A C 0.6116(4) 0.1885(8) 0.4598(11)
H5A H 0.6297 0.2568 0.4982
C7A C 0.5588(5) -0.0100(6) 0.3588(12)
C8A C 0.6448(5) 0.0920(10) 0.5149(14)
H6A H 0.6852 0.0951 0.5846
C9A C 0.6174(6) -0.0059(9) 0.4651(14)
H7A H 0.6383 -0.0720 0.5031
C10A C 0.5277(6) -0.1101(7) 0.3028(14)
H8A H 0.5467 -0.1777 0.3413
H9F H 0.922(7) 0.085(9) 0.337(12)
loop_
_geom_bond_atom_site_label_1
_geom_bond_atom_site_label_2
_geom_bond_site_symmetry_1
_geom_bond_site_symmetry_2
Cd1 O1 1_555 1_555
P1 O1 1_555 1_555
O2 P1 1_555 1_555
O3 P1 1_555 1_555
N1 Cd1 1_555 1_555
C1 P1 1_555 1_555
H1 C1 1_555 1_555
H2 C1 1_555 1_555
C2 C1 1_555 1_555
C3 C2 1_555 1_555
H3 C3 1_555 1_555
C4 C2 1_555 1_555
H4 C4 1_555 1_555
C5 N1 1_555 1_555
C6 N1 1_555 1_555
H5 C6 1_555 1_555
C7 C5 1_555 1_555
C8 C6 1_555 1_555
H6 C8 1_555 1_555
C9 C7 1_555 1_555
H7 C9 1_555 1_555
C10 C7 1_555 1_555
H8 C10 1_555 1_555
H9 O3 1_555 1_555
Cd1D O2 1_555 1_555
Cd1F O1F 1_555 1_555
Cd1B O2F 1_555 1_555
P1F O1F 1_555 1_555
O1A Cd1 1_555 1_555
O2F P1F 1_555 1_555
O2D Cd1 1_555 1_555
O2E Cd1 1_555 1_555
O3F P1F 1_555 1_555
N1A Cd1 1_555 1_555
C1F P1F 1_555 1_555
H1F C1F 1_555 1_555
H2F C1F 1_555 1_555
C2F C1F 1_555 1_555
C3F C4 1_555 1_555
H3F C3F 1_555 1_555
C4F C3 1_555 1_555
H4F C4F 1_555 1_555
C5A C5 1_555 1_555
C6A N1A 1_555 1_555
H5A C6A 1_555 1_555
C7A C5A 1_555 1_555
C8A C6A 1_555 1_555
H6A C8A 1_555 1_555
C9A C7A 1_555 1_555
H7A C9A 1_555 1_555
C10A C10 1_555 1_555
H8A C10A 1_555 1_555
H9F O3F 1_555 1_555
C8 C9 1_555 1_555
N1A C5A 1_555 1_555
C2F C3F 1_555 1_555
C2F C4F 1_555 1_555
C7A C10A 1_555 1_555
C8A C9A 1_555 1_555

#END
