
#######################################################################
#
#                 Cambridge Crystallographic Data Centre
#                                CCDC 
#
#######################################################################
#
# If this CIF has been generated from an entry in the Cambridge 
# Structural Database, then it will include bibliographic, chemical, 
# crystal, experimental, refinement or atomic coordinate data resulting 
# from the CCDC's data processing and validation procedures.
#
#######################################################################

data_KAPYEH01
_symmetry_cell_setting           monoclinic
_symmetry_space_group_name_H-M   'C 2/c'
_symmetry_Int_Tables_number      15
_space_group_name_Hall           '-C 2yn'
loop_
_symmetry_equiv_pos_site_id
_symmetry_equiv_pos_as_xyz
1 x,y,z
2 -x,y,1/2-z
3 1/2+x,1/2+y,z
4 1/2-x,1/2+y,1/2-z
5 -x,-y,-z
6 x,-y,1/2+z
7 1/2-x,1/2-y,-z
8 1/2+x,1/2-y,1/2+z
_cell_length_a                   21.403(9)
_cell_length_b                   12.239(3)
_cell_length_c                   7.687(2)
_cell_angle_alpha                90
_cell_angle_beta                 98.983(10)
_cell_angle_gamma                90
_cell_volume                     1988.92
loop_
_atom_site_label
_atom_site_type_symbol
_atom_site_fract_x
_atom_site_fract_y
_atom_site_fract_z
Cd1 Cd 0.0000 0.84450(2) 0.2500
P1 P 0.09007(4) 1.07306(6) 0.43061(10)
O1 O 0.07616(10) 1.12897(17) 0.2448(3)
H1 H 0.0713 1.0809 0.1662
O2 O 0.07305(10) 1.15167(17) 0.5648(3)
O3 O 0.06125(10) 0.95993(17) 0.4318(3)
N1 N 0.05686(12) 0.6882(2) 0.3612(3)
C1 C 0.11258(15) 0.6885(3) 0.4653(4)
H2 H 0.1310 0.7552 0.5013
C2 C 0.14464(17) 0.5925(3) 0.5229(5)
H3 H 0.1837 0.5957 0.5953
C3 C 0.11795(18) 0.4934(3) 0.4716(4)
H4 H 0.1387 0.4288 0.5091
C4 C 0.05870(17) 0.4902(3) 0.3616(4)
C5 C 0.03010(15) 0.5908(2) 0.3084(4)
C6 C 0.02799(18) 0.3893(3) 0.3032(5)
H5 H 0.0472 0.3233 0.3397
C7 C 0.17489(14) 1.0503(3) 0.4714(4)
H6 H 0.1854 1.0089 0.5796
H7 H 0.1863 1.0061 0.3765
C8 C 0.21427(14) 1.1533(3) 0.4863(4)
C9 C 0.21800(14) 1.2188(3) 0.6358(4)
H8 H 0.1966 1.1986 0.7272
C10 C 0.24635(15) 1.1857(3) 0.3514(4)
H9 H 0.2440 1.1428 0.2507
P1F P 0.40993(4) 1.42694(6) 0.56939(10)
O1F O 0.42384(10) 1.37103(17) 0.7552(3)
H1F H 0.4287 1.4191 0.8338
O2F O 0.42695(10) 1.34833(17) 0.4352(3)
O3F O 0.43875(10) 1.54007(17) 0.5682(3)
C7F C 0.32511(14) 1.4497(3) 0.5286(4)
H6F H 0.3146 1.4911 0.4204
H7F H 0.3137 1.4939 0.6235
C8F C 0.28573(14) 1.3467(3) 0.5137(4)
C9F C 0.28200(14) 1.2812(3) 0.3642(4)
H8F H 0.3034 1.3014 0.2728
C10F C 0.25365(15) 1.3143(3) 0.6486(4)
H9F H 0.2560 1.3572 0.7493
N1A N -0.05686(12) 0.6882(2) 0.1388(3)
C1A C -0.11258(15) 0.6885(3) 0.0347(4)
H2A H -0.1310 0.7552 -0.0013
C2A C -0.14464(17) 0.5925(3) -0.0229(5)
H3A H -0.1837 0.5957 -0.0953
C3A C -0.11795(18) 0.4934(3) 0.0284(4)
H4A H -0.1387 0.4288 -0.0091
C4A C -0.05870(17) 0.4902(3) 0.1384(4)
C5A C -0.03010(15) 0.5908(2) 0.1916(4)
C6A C -0.02799(18) 0.3893(3) 0.1968(5)
H5A H -0.0472 0.3233 0.1603
Cd1B Cd 0.5000 1.34450(2) 0.2500
Cd1D Cd 0.0000 1.15550(2) 0.7500
Cd1F Cd 0.5000 1.65550(2) 0.7500
O2D O -0.07305(10) 0.84833(17) 0.4352(3)
O2E O 0.07305(10) 0.84833(17) 0.0648(3)
O3A O -0.06125(10) 0.95993(17) 0.0682(3)
loop_
_geom_bond_atom_site_label_1
_geom_bond_atom_site_label_2
_geom_bond_site_symmetry_1
_geom_bond_site_symmetry_2
Cd1 O3 1_555 1_555
P1 O1 1_555 1_555
O1 H1 1_555 1_555
O2 P1 1_555 1_555
O3 P1 1_555 1_555
N1 Cd1 1_555 1_555
C1 N1 1_555 1_555
H2 C1 1_555 1_555
C2 C1 1_555 1_555
H3 C2 1_555 1_555
C3 C2 1_555 1_555
H4 C3 1_555 1_555
C4 C3 1_555 1_555
C5 N1 1_555 1_555
C6 C4 1_555 1_555
H5 C6 1_555 1_555
C7 P1 1_555 1_555
H6 C7 1_555 1_555
H7 C7 1_555 1_555
C8 C7 1_555 1_555
C9 C8 1_555 1_555
H8 C9 1_555 1_555
C10 C8 1_555 1_555
H9 C10 1_555 1_555
P1F O1F 1_555 1_555
O1F H1F 1_555 1_555
O2F P1F 1_555 1_555
O3F P1F 1_555 1_555
C7F P1F 1_555 1_555
H6F C7F 1_555 1_555
H7F C7F 1_555 1_555
C8F C7F 1_555 1_555
C9F C10 1_555 1_555
H8F C9F 1_555 1_555
C10F C9 1_555 1_555
H9F C10F 1_555 1_555
N1A Cd1 1_555 1_555
C1A N1A 1_555 1_555
H2A C1A 1_555 1_555
C2A C1A 1_555 1_555
H3A C2A 1_555 1_555
C3A C2A 1_555 1_555
H4A C3A 1_555 1_555
C4A C3A 1_555 1_555
C5A C5 1_555 1_555
C6A C6 1_555 1_555
H5A C6A 1_555 1_555
Cd1B O2F 1_555 1_555
Cd1D O2 1_555 1_555
Cd1F O3F 1_555 1_555
O2D Cd1 1_555 1_555
O2E Cd1 1_555 1_555
O3A Cd1 1_555 1_555
C4 C5 1_555 1_555
C8F C9F 1_555 1_555
C8F C10F 1_555 1_555
N1A C5A 1_555 1_555
C4A C5A 1_555 1_555
C4A C6A 1_555 1_555

#END
