
#######################################################################
#
#                 Cambridge Crystallographic Data Centre
#                                CCDC 
#
#######################################################################
#
# If this CIF has been generated from an entry in the Cambridge 
# Structural Database, then it will include bibliographic, chemical, 
# crystal, experimental, refinement or atomic coordinate data resulting 
# from the CCDC's data processing and validation procedures.
#
#######################################################################

data_KAPYIL
_symmetry_cell_setting           monoclinic
_symmetry_space_group_name_H-M   'C 2/c'
_symmetry_Int_Tables_number      15
_space_group_name_Hall           '-C 2yn'
loop_
_symmetry_equiv_pos_site_id
_symmetry_equiv_pos_as_xyz
1 x,y,z
2 -x,y,1/2-z
3 1/2+x,1/2+y,z
4 1/2-x,1/2+y,1/2-z
5 -x,-y,-z
6 x,-y,1/2+z
7 1/2-x,1/2-y,-z
8 1/2+x,1/2-y,1/2+z
_cell_length_a                   18.197(4)
_cell_length_b                   25.081(5)
_cell_length_c                   8.8070(18)
_cell_angle_alpha                90
_cell_angle_beta                 102.39(3)
_cell_angle_gamma                90
_cell_volume                     3925.89
loop_
_atom_site_label
_atom_site_type_symbol
_atom_site_fract_x
_atom_site_fract_y
_atom_site_fract_z
Cd1 Cd 0.0000 0.229987(15) 0.2500
P1 P 0.11243(6) 0.12815(4) 0.15844(12)
O1 O 0.18113(17) 0.13866(12) 0.0871(4)
O2 O 0.13965(18) 0.11877(13) 0.3368(3)
O3 O 0.05843(19) 0.17302(14) 0.1252(4)
N1 N 0.0852(2) 0.24392(14) 0.4889(4)
N2 N 0.0883(2) 0.29574(15) 0.2224(4)
C1 C 0.1397(2) 0.28034(16) 0.4940(5)
C2 C 0.1441(2) 0.30700(17) 0.3444(5)
C3 C 0.0810(3) 0.2182(2) 0.6200(6)
H1 H 0.0424 0.1924 0.6161
C4 C 0.0699(2) 0.06648(18) 0.0807(5)
H2 H 0.1089 0.0383 0.0985
H3 H 0.0311 0.0564 0.1387
C5 C 0.0340(2) 0.06820(15) -0.0912(5)
C6 C 0.1302(4) 0.2273(2) 0.7609(6)
H4 H 0.1261 0.2081 0.8516
C7 C 0.2016(3) 0.3408(2) 0.3285(7)
H5 H 0.2406 0.3490 0.4158
C8 C 0.0900(3) 0.3183(2) 0.0853(6)
H6 H 0.0500 0.3105 -0.0005
C9 C -0.0437(2) 0.06893(19) -0.1404(5)
H7 H -0.0743 0.0702 -0.0657
C10 C 0.0771(2) 0.06789(19) -0.2029(5)
H8 H 0.1304 0.0670 -0.1715
C11 C 0.1855(4) 0.2654(3) 0.7649(7)
H9 H 0.2198 0.2732 0.8598
C12 C 0.1905(3) 0.2919(2) 0.6319(6)
H10 H 0.2286 0.3180 0.6336
C13 C 0.1456(3) 0.3515(2) 0.0614(7)
H11 H 0.1447 0.3663 -0.0383
C14 C 0.2024(4) 0.3628(2) 0.1844(8)
H12 H 0.2423 0.3857 0.1720
H13 H 0.164(3) 0.0897(15) 0.358(7)
H14 H 0.215(3) 0.117(2) 0.130(7)
Cd1_2 Cd 0.0000 0.229987(15) -0.7500
P1A P -0.11243(6) 0.12815(4) -0.65844(12)
O1A O -0.18113(17) 0.13866(12) -0.5871(4)
O2A O -0.13965(18) 0.11877(13) -0.8368(3)
O3A O -0.05843(19) 0.17302(14) -0.6252(4)
O3A_2 O -0.05843(19) 0.17302(14) 0.3748(4)
N1A N -0.0852(2) 0.24392(14) 0.0111(4)
N2A N -0.0883(2) 0.29574(15) 0.2776(4)
C1A C -0.1397(2) 0.28034(16) 0.0060(5)
C2A C -0.1441(2) 0.30700(17) 0.1556(5)
C3A C -0.0810(3) 0.2182(2) -0.1200(6)
H1A H -0.0424 0.1924 -0.1161
C4A C -0.0699(2) 0.06648(18) -0.5807(5)
H2A H -0.1089 0.0383 -0.5985
H3A H -0.0311 0.0564 -0.6387
C5A C -0.0340(2) 0.06820(15) -0.4088(5)
C6A C -0.1302(4) 0.2273(2) -0.2609(6)
H4A H -0.1261 0.2081 -0.3516
C7A C -0.2016(3) 0.3408(2) 0.1715(7)
H5A H -0.2406 0.3490 0.0842
C8A C -0.0900(3) 0.3183(2) 0.4147(6)
H6A H -0.0500 0.3105 0.5005
C9A C 0.0437(2) 0.06893(19) -0.3596(5)
H7A H 0.0743 0.0702 -0.4343
C10A C -0.0771(2) 0.06789(19) -0.2971(5)
H8A H -0.1304 0.0670 -0.3285
C11A C -0.1855(4) 0.2654(3) -0.2649(7)
H9A H -0.2198 0.2732 -0.3598
C12A C -0.1905(3) 0.2919(2) -0.1319(6)
H10A H -0.2286 0.3180 -0.1336
C13A C -0.1456(3) 0.3515(2) 0.4386(7)
H11A H -0.1447 0.3663 0.5383
C14A C -0.2024(4) 0.3628(2) 0.3156(8)
H12A H -0.2423 0.3857 0.3280
H13A H -0.164(3) 0.0897(15) -0.858(7)
H14A H -0.215(3) 0.117(2) -0.630(7)
P2 P 0.28216(5) 0.02975(4) 0.28502(11)
O4 O 0.22975(16) 0.03921(13) 0.3948(3)
O5 O 0.28499(16) 0.07459(12) 0.1729(4)
O6 O 0.2582(2) -0.02325(14) 0.1953(4)
C15 C 0.3738(2) 0.0182(2) 0.4055(5)
H15 H 0.3835 0.0462 0.4865
H16 H 0.3727 -0.0164 0.4589
C16 C 0.4389(2) 0.0175(2) 0.3245(5)
C17 C 0.4697(2) -0.0296(2) 0.2870(5)
H17 H 0.4494 -0.0626 0.3119
C18 C 0.4698(3) 0.0641(2) 0.2866(6)
H18 H 0.4495 0.0972 0.3110
H19 H 0.250(4) -0.019(3) 0.098(3)
P2A P 0.71784(5) 0.02975(4) 0.21498(11)
O4A O 0.77025(16) 0.03921(13) 0.1052(3)
O5A O 0.71501(16) 0.07459(12) 0.3271(4)
O6A O 0.7418(2) -0.02325(14) 0.3047(4)
C15A C 0.6262(2) 0.0182(2) 0.0945(5)
H15A H 0.6165 0.0462 0.0135
H16A H 0.6273 -0.0164 0.0411
C16A C 0.5611(2) 0.0175(2) 0.1755(5)
C17A C 0.5303(2) -0.0296(2) 0.2130(5)
H17A H 0.5506 -0.0626 0.1881
C18A C 0.5302(3) 0.0641(2) 0.2134(6)
H18A H 0.5505 0.0972 0.1890
H19A H 0.750(4) -0.019(3) 0.402(3)
loop_
_geom_bond_atom_site_label_1
_geom_bond_atom_site_label_2
_geom_bond_site_symmetry_1
_geom_bond_site_symmetry_2
Cd1 O3 1_555 1_555
P1 O1 1_555 1_555
O1 H14 1_555 1_555
O2 P1 1_555 1_555
O3 P1 1_555 1_555
N1 Cd1 1_555 1_555
N2 Cd1 1_555 1_555
C1 N1 1_555 1_555
C2 N2 1_555 1_555
C3 N1 1_555 1_555
H1 C3 1_555 1_555
C4 P1 1_555 1_555
H2 C4 1_555 1_555
H3 C4 1_555 1_555
C5 C4 1_555 1_555
C6 C3 1_555 1_555
H4 C6 1_555 1_555
C7 C2 1_555 1_555
H5 C7 1_555 1_555
C8 N2 1_555 1_555
H6 C8 1_555 1_555
C9 C5 1_555 1_555
H7 C9 1_555 1_555
C10 C5 1_555 1_555
H8 C10 1_555 1_555
C11 C6 1_555 1_555
H9 C11 1_555 1_555
C12 C1 1_555 1_555
H10 C12 1_555 1_555
C13 C8 1_555 1_555
H11 C13 1_555 1_555
C14 C7 1_555 1_555
H12 C14 1_555 1_555
H13 O2 1_555 1_555
P2 O4 1_555 1_555
O5 P2 1_555 1_555
O6 P2 1_555 1_555
C15 P2 1_555 1_555
H15 C15 1_555 1_555
H16 C15 1_555 1_555
C16 C15 1_555 1_555
C17 C16 1_555 1_555
H17 C17 1_555 1_555
C18 C16 1_555 1_555
H18 C18 1_555 1_555
H19 O6 1_555 1_555
Cd1_2 O3A 1_555 1_555
P1A O1A 1_555 1_555
O1A H14A 1_555 1_555
O2A P1A 1_555 1_555
O3A P1A 1_555 1_555
O3A_2 Cd1 1_555 1_555
N1A Cd1 1_555 1_555
N2A Cd1 1_555 1_555
C1A N1A 1_555 1_555
C2A N2A 1_555 1_555
C3A N1A 1_555 1_555
H1A C3A 1_555 1_555
C4A P1A 1_555 1_555
H2A C4A 1_555 1_555
H3A C4A 1_555 1_555
C5A C4A 1_555 1_555
C6A C3A 1_555 1_555
H4A C6A 1_555 1_555
C7A C2A 1_555 1_555
H5A C7A 1_555 1_555
C8A N2A 1_555 1_555
H6A C8A 1_555 1_555
C9A C10 1_555 1_555
H7A C9A 1_555 1_555
C10A C9 1_555 1_555
H8A C10A 1_555 1_555
C11A C6A 1_555 1_555
H9A C11A 1_555 1_555
C12A C1A 1_555 1_555
H10A C12A 1_555 1_555
C13A C8A 1_555 1_555
H11A C13A 1_555 1_555
C14A C7A 1_555 1_555
H12A C14A 1_555 1_555
H13A O2A 1_555 1_555
P2A O4A 1_555 1_555
O5A P2A 1_555 1_555
O6A P2A 1_555 1_555
C15A P2A 1_555 1_555
H15A C15A 1_555 1_555
H16A C15A 1_555 1_555
C16A C15A 1_555 1_555
C17A C17 1_555 1_555
H17A C17A 1_555 1_555
C18A C18 1_555 1_555
H18A C18A 1_555 1_555
H19A O6A 1_555 1_555
C1 C2 1_555 1_555
C11 C12 1_555 1_555
C13 C14 1_555 1_555
C1A C2A 1_555 1_555
C5A C9A 1_555 1_555
C5A C10A 1_555 1_555
C11A C12A 1_555 1_555
C13A C14A 1_555 1_555
C16A C17A 1_555 1_555
C16A C18A 1_555 1_555

#END
