
#######################################################################
#
#                 Cambridge Crystallographic Data Centre
#                                CCDC 
#
#######################################################################
#
# If this CIF has been generated from an entry in the Cambridge 
# Structural Database, then it will include bibliographic, chemical, 
# crystal, experimental, refinement or atomic coordinate data resulting 
# from the CCDC's data processing and validation procedures.
#
#######################################################################

data_KAQSEA
_symmetry_cell_setting           trigonal
_symmetry_space_group_name_H-M   'P 3 1 c'
_symmetry_Int_Tables_number      159
_space_group_name_Hall           "P 3 -2'c"
loop_
_symmetry_equiv_pos_site_id
_symmetry_equiv_pos_as_xyz
1 x,y,z
2 -y,x-y,z
3 -x+y,-x,z
4 y,x,1/2+z
5 x-y,-y,1/2+z
6 -x,-x+y,1/2+z
_cell_length_a                   14.454(2)
_cell_length_b                   14.454(2)
_cell_length_c                   15.300(3)
_cell_angle_alpha                90
_cell_angle_beta                 90
_cell_angle_gamma                120
_cell_volume                     2768.2
loop_
_atom_site_label
_atom_site_type_symbol
_atom_site_fract_x
_atom_site_fract_y
_atom_site_fract_z
Ag1 Ag -1.0000 0.0000 0.12183(10)
Ag2 Ag -0.6667 -0.3333 -0.14139(10)
S1 S -0.2773(2) -0.1400(2) 0.1664(2)
S2 S -0.5287(2) -0.1340(2) -0.0055(2)
N1 N -0.1369(6) -0.1686(6) 0.0815(6)
N2 N -0.3188(7) -0.3068(8) 0.0681(7)
N3 N -0.3419(7) -0.0593(8) -0.0890(7)
N4 N -0.4953(7) -0.2063(7) -0.1505(6)
C1 C -0.1086(9) -0.2275(9) 0.0305(7)
H1 H -0.0369(9) -0.2002(9) 0.0168(7)
C2 C -0.1810(11) -0.3236(10) -0.0008(9)
H2 H -0.1600(11) -0.3629(10) -0.0353(9)
C3 C -0.2831(11) -0.3616(11) 0.0185(10)
H3 H -0.3329(11) -0.4286(11) -0.0027(10)
C4 C -0.2429(8) -0.2143(8) 0.0971(6)
C5 C -0.4229(8) -0.2145(9) 0.1591(8)
H4 H -0.4452(8) -0.2260(9) 0.0984(8)
H5 H -0.4510(8) -0.2835(9) 0.1873(8)
C6 C -0.4631(8) -0.1502(8) 0.2036(6)
C7 C -0.4990(8) -0.1758(9) 0.2924(7)
H6 H -0.4990(8) -0.2332(9) 0.3199(7)
C8 C -0.5330(10) -0.1166(12) 0.3364(7)
H7 H -0.5540(10) -0.1326(12) 0.3945(7)
C9 C -0.5367(9) -0.0356(11) 0.2975(8)
H8 H -0.5614(9) 0.0035(11) 0.3279(8)
C10 C -0.5027(9) -0.0100(9) 0.2098(8)
H9 H -0.5041(9) 0.0468(9) 0.1826(8)
C11 C -0.4684(8) -0.0674(7) 0.1654(6)
C12 C -0.4320(9) -0.0354(8) 0.0709(7)
H10 H -0.3629(9) -0.0298(8) 0.0626(7)
H11 H -0.4243(9) 0.0341(8) 0.0591(7)
C13 C -0.4459(8) -0.1327(8) -0.0876(6)
C14 C -0.2847(11) -0.0585(13) -0.1547(10)
H12 H -0.2119(11) -0.0091(13) -0.1555(10)
C15 C -0.3296(13) -0.1300(14) -0.2244(10)
H13 H -0.2886(13) -0.1273(14) -0.2722(10)
C16 C -0.4354(11) -0.2038(11) -0.2196(8)
H14 H -0.4672(11) -0.2532(11) -0.2645(8)
N4A N -0.7937(7) -0.2890(10) -0.1505(6)
C13A C -0.8673(8) -0.3132(11) -0.0876(6)
S2A S -0.8660(2) -0.3947(3) -0.0055(2)
C12A C -0.9646(8) -0.3966(12) 0.0709(7)
C11A C -0.9326(7) -0.4010(11) 0.1654(6)
C6A C -0.8498(8) -0.3129(11) 0.2036(6)
C5A C -0.7855(9) -0.2084(12) 0.1591(8)
S1A S -0.8600(2) -0.1373(3) 0.1664(2)
C4A C -0.7857(8) -0.0286(11) 0.0971(6)
N1A N -0.8314(6) 0.0317(8) 0.0815(6)
Ag1_2 Ag 0.0000 0.0000 0.12183(10)
N1B N -1.0317(8) 0.1369(6) 0.0815(6)
C1B C -1.1189(13) 0.1086(9) 0.0305(7)
H1B H -1.1633(13) 0.0369(9) 0.0168(7)
C2B C -1.1426(15) 0.1810(11) -0.0008(9)
H2B H -1.2029(15) 0.1600(11) -0.0353(9)
C3B C -1.0785(16) 0.2831(11) 0.0185(10)
N2B N -0.9880(11) 0.3188(7) 0.0681(7)
C4B C -0.9714(11) 0.2429(8) 0.0971(6)
S1B S -0.8627(3) 0.2773(2) 0.1664(2)
C5B C -0.7916(12) 0.4229(8) 0.1591(8)
H4B H -0.7808(12) 0.4452(8) 0.0984(8)
H5B H -0.8325(12) 0.4510(8) 0.1873(8)
C6B C -0.6871(11) 0.4631(8) 0.2036(6)
C7B C -0.6768(12) 0.4990(8) 0.2924(7)
H6B H -0.7342(12) 0.4990(8) 0.3199(7)
C8B C -0.5836(16) 0.5330(10) 0.3364(7)
H7B H -0.5786(16) 0.5540(10) 0.3945(7)
C9B C -0.4989(14) 0.5367(9) 0.2975(8)
H8B H -0.4351(14) 0.5614(9) 0.3279(8)
C10B C -0.5073(13) 0.5027(9) 0.2098(8)
H9B H -0.4491(13) 0.5041(9) 0.1826(8)
C11B C -0.5990(11) 0.4684(8) 0.1654(6)
C12B C -0.6034(12) 0.4320(9) 0.0709(7)
S2B S -0.6053(3) 0.5287(2) -0.0055(2)
C13B C -0.6868(11) 0.4459(8) -0.0876(6)
N3B N -0.7174(11) 0.3419(7) -0.0890(7)
C14B C -0.7738(17) 0.2847(11) -0.1547(10)
H12B H -0.7972(17) 0.2119(11) -0.1555(10)
C15B C -0.8004(19) 0.3296(13) -0.2244(10)
H13B H -0.8387(19) 0.2886(13) -0.2722(10)
C16B C -0.7684(16) 0.4354(11) -0.2196(8)
N4B N -0.7110(10) 0.4953(7) -0.1505(6)
Ag2_2 Ag -0.6667 0.6667 -0.14139(10)
H14B H -0.7860(16) 0.4672(11) -0.2645(8)
H10B H -0.6669(12) 0.3629(9) 0.0626(7)
H11B H -0.5416(12) 0.4243(9) 0.0591(7)
H3B H -1.0957(16) 0.3329(11) -0.0027(10)
N1_2 N -1.1369(6) -0.1686(6) 0.0815(6)
C1A C -0.7725(9) 0.1189(13) 0.0305(7)
H1A H -0.7998(9) 0.1633(13) 0.0168(7)
C2A C -0.6764(10) 0.1426(15) -0.0008(9)
H2A H -0.6371(10) 0.2029(15) -0.0353(9)
C3A C -0.6384(11) 0.0785(16) 0.0185(10)
N2A N -0.6932(8) -0.0120(11) 0.0681(7)
H3A H -0.5714(11) 0.0957(16) -0.0027(10)
H4A H -0.7740(9) -0.2192(12) 0.0984(8)
H5A H -0.7165(9) -0.1675(12) 0.1873(8)
C7A C -0.8242(9) -0.3232(12) 0.2924(7)
H6A H -0.7668(9) -0.2658(12) 0.3199(7)
C8A C -0.8834(12) -0.4164(16) 0.3364(7)
H7A H -0.8674(12) -0.4214(16) 0.3945(7)
C9A C -0.9644(11) -0.5011(14) 0.2975(8)
H8A H -1.0035(11) -0.5649(14) 0.3279(8)
C10A C -0.9900(9) -0.4927(13) 0.2098(8)
H9A H -1.0468(9) -0.5509(13) 0.1826(8)
H10A H -0.9702(8) -0.3331(12) 0.0626(7)
H11A H -1.0341(8) -0.4584(12) 0.0591(7)
N3A N -0.9407(8) -0.2826(11) -0.0890(7)
C16A C -0.7962(11) -0.2316(16) -0.2196(8)
N4B_2 N -0.7110(10) -0.5047(7) -0.1505(6)
C14A C -0.9415(13) -0.2262(17) -0.1547(10)
C15A C -0.8700(14) -0.1996(19) -0.2244(10)
H14A H -0.7468(11) -0.2140(16) -0.2645(8)
H12A H -0.9909(13) -0.2028(17) -0.1555(10)
H13A H -0.8727(14) -0.1613(19) -0.2722(10)
Cl1 Cl 0.0000 0.0000 -0.1548(3)
O1 O 0.0987(24) 0.0122(23) -0.1823(21)
O2 O 0.0000 0.0000 -0.0612(32)
O1A O -0.0122(23) 0.0865(33) -0.1823(21)
O1B O -0.0865(33) -0.0987(24) -0.1823(21)
Cl2 Cl -0.3333 0.3333 0.0792(3)
O3 O -0.3626(19) 0.2319(18) 0.0435(14)
O4 O -0.3333 0.3333 0.1723(29)
O3A O -0.2319(18) 0.4055(26) 0.0435(14)
O3B O -0.4055(26) 0.3626(19) 0.0435(14)
loop_
_geom_bond_atom_site_label_1
_geom_bond_atom_site_label_2
_geom_bond_site_symmetry_1
_geom_bond_site_symmetry_2
Ag1 N1A 1_555 1_555
Ag2 N4 1_555 1_555
S1 C4 1_555 1_555
S2 C12 1_555 1_555
N1 C1 1_555 1_555
N2 C3 1_555 1_555
N3 C13 1_555 1_555
N4 C13 1_555 1_555
C1 H1 1_555 1_555
C2 C1 1_555 1_555
H2 C2 1_555 1_555
C3 C2 1_555 1_555
H3 C3 1_555 1_555
C4 N1 1_555 1_555
C5 S1 1_555 1_555
H4 C5 1_555 1_555
H5 C5 1_555 1_555
C6 C5 1_555 1_555
C7 C6 1_555 1_555
H6 C7 1_555 1_555
C8 C7 1_555 1_555
H7 C8 1_555 1_555
C9 C8 1_555 1_555
H8 C9 1_555 1_555
C10 C9 1_555 1_555
H9 C10 1_555 1_555
C11 C6 1_555 1_555
C12 C11 1_555 1_555
H10 C12 1_555 1_555
H11 C12 1_555 1_555
C13 S2 1_555 1_555
C14 N3 1_555 1_555
H12 C14 1_555 1_555
C15 C14 1_555 1_555
H13 C15 1_555 1_555
C16 N4 1_555 1_555
H14 C16 1_555 1_555
Cl1 O1 1_555 1_555
Cl2 O3 1_555 1_555
O2 Cl1 1_555 1_555
O4 Cl2 1_555 1_555
N4A Ag2 1_555 1_555
C13A N4A 1_555 1_555
S2A C13A 1_555 1_555
C12A S2A 1_555 1_555
C11A C12A 1_555 1_555
C6A C11A 1_555 1_555
C5A C6A 1_555 1_555
S1A C5A 1_555 1_555
C4A S1A 1_555 1_555
N1A C4A 1_555 1_555
Ag1_2 N1 1_555 1_555
N1B Ag1 1_555 1_555
C1B N1B 1_555 1_555
H1B C1B 1_555 1_555
C2B C1B 1_555 1_555
H2B C2B 1_555 1_555
C3B C2B 1_555 1_555
N2B C3B 1_555 1_555
C4B N1B 1_555 1_555
S1B C4B 1_555 1_555
C5B S1B 1_555 1_555
H4B C5B 1_555 1_555
H5B C5B 1_555 1_555
C6B C5B 1_555 1_555
C7B C6B 1_555 1_555
H6B C7B 1_555 1_555
C8B C7B 1_555 1_555
H7B C8B 1_555 1_555
C9B C8B 1_555 1_555
H8B C9B 1_555 1_555
C10B C9B 1_555 1_555
H9B C10B 1_555 1_555
C11B C6B 1_555 1_555
C12B C11B 1_555 1_555
S2B C12B 1_555 1_555
C13B S2B 1_555 1_555
N3B C13B 1_555 1_555
C14B N3B 1_555 1_555
H12B C14B 1_555 1_555
C15B C14B 1_555 1_555
H13B C15B 1_555 1_555
C16B C15B 1_555 1_555
N4B C13B 1_555 1_555
Ag2_2 N4B 1_555 1_555
H14B C16B 1_555 1_555
H10B C12B 1_555 1_555
H11B C12B 1_555 1_555
H3B C3B 1_555 1_555
N1_2 Ag1 1_555 1_555
C1A N1A 1_555 1_555
H1A C1A 1_555 1_555
C2A C1A 1_555 1_555
H2A C2A 1_555 1_555
C3A C2A 1_555 1_555
N2A C4A 1_555 1_555
H3A C3A 1_555 1_555
H4A C5A 1_555 1_555
H5A C5A 1_555 1_555
C7A C6A 1_555 1_555
H6A C7A 1_555 1_555
C8A C7A 1_555 1_555
H7A C8A 1_555 1_555
C9A C8A 1_555 1_555
H8A C9A 1_555 1_555
C10A C11A 1_555 1_555
H9A C10A 1_555 1_555
H10A C12A 1_555 1_555
H11A C12A 1_555 1_555
N3A C13A 1_555 1_555
C16A N4A 1_555 1_555
N4B_2 Ag2 1_555 1_555
O1A Cl1 1_555 1_555
O1B Cl1 1_555 1_555
O3A Cl2 1_555 1_555
O3B Cl2 1_555 1_555
C14A N3A 1_555 1_555
C15A C16A 1_555 1_555
H14A C16A 1_555 1_555
H12A C14A 1_555 1_555
H13A C15A 1_555 1_555
N2 C4 1_555 1_555
C10 C11 1_555 1_555
C15 C16 1_555 1_555
N2B C4B 1_555 1_555
C10B C11B 1_555 1_555
C16B N4B 1_555 1_555
C3A N2A 1_555 1_555
C9A C10A 1_555 1_555
C14A C15A 1_555 1_555

#END
