
#######################################################################
#
#                 Cambridge Crystallographic Data Centre
#                                CCDC 
#
#######################################################################
#
# If this CIF has been generated from an entry in the Cambridge 
# Structural Database, then it will include bibliographic, chemical, 
# crystal, experimental, refinement or atomic coordinate data resulting 
# from the CCDC's data processing and validation procedures.
#
#######################################################################

data_KAQYAC
_symmetry_cell_setting           triclinic
_symmetry_space_group_name_H-M   'P -1'
_symmetry_Int_Tables_number      2
_space_group_name_Hall           '-P 1'
loop_
_symmetry_equiv_pos_site_id
_symmetry_equiv_pos_as_xyz
1 x,y,z
2 -x,-y,-z
_cell_length_a                   9.0450(10)
_cell_length_b                   10.4380(10)
_cell_length_c                   12.7190(10)
_cell_angle_alpha                100.480(10)
_cell_angle_beta                 95.050(10)
_cell_angle_gamma                95.860(10)
_cell_volume                     1167.63
loop_
_atom_site_label
_atom_site_type_symbol
_atom_site_fract_x
_atom_site_fract_y
_atom_site_fract_z
O1 O 0.2811(3) -0.8275(2) 0.4002(2)
O2 O 0.3758(3) -0.9914(2) 0.3089(2)
O3 O 0.2114(3) -0.6493(2) 0.2117(2)
O4 O 0.1581(3) -0.8539(2) 0.1286(2)
N1 N 0.4719(3) -0.5852(2) 0.4017(2)
N2 N 0.6586(3) -0.7663(2) 0.3408(2)
N3 N 0.5271(3) -0.0770(2) 0.9054(2)
N4 N 0.5419(3) 0.3397(2) 1.1388(2)
C1 C 0.6010(3) -0.5790(3) 0.4635(2)
C2 C 0.3728(3) -0.5070(3) 0.4375(2)
C3 C 0.7108(3) -0.6665(3) 0.4226(2)
C4 C 0.8588(4) -0.6463(3) 0.4657(3)
C5 C 0.9572(4) -0.7294(4) 0.4227(3)
C6 C 0.9039(4) -0.8323(4) 0.3407(3)
C7 C 0.7548(4) -0.8470(3) 0.3019(3)
C8 C 0.4623(3) -0.1315(3) 0.9792(2)
C9 C 0.4354(4) -0.0523(3) 1.0743(3)
C10 C 0.5805(3) 0.2763(3) 1.0459(2)
C11 C 0.6569(4) 0.3417(3) 0.9778(3)
C12 C 0.6986(4) 0.4750(3) 1.0085(3)
C13 C 0.6640(4) 0.5397(3) 1.1052(3)
C14 C 0.5839(4) 0.4687(3) 1.1668(3)
C15 C 0.3054(4) -0.9453(3) 0.3846(3)
C16 C 0.2510(8) -1.0305(5) 0.4601(4)
C17 C 0.1258(4) -0.7386(3) 0.1503(3)
C18 C -0.0180(5) -0.7060(5) 0.0996(4)
Cd1 Cd 0.40617(2) -0.77795(2) 0.25320(2)
H1 H 0.2867(36) -0.5098(31) 0.3927(25)
H2 H 0.8906(38) -0.5770(35) 0.5220(29)
H3 H 1.0588(46) -0.7169(38) 0.4520(32)
H4 H 0.9620(41) -0.8908(36) 0.3042(29)
H5 H 0.7185(34) -0.9176(31) 0.2482(25)
H6 H 0.6117(36) 0.0842(32) 0.8723(26)
H7 H 0.6766(37) 0.2947(34) 0.9169(28)
H8 H 0.7516(37) 0.5192(32) 0.9686(26)
H9 H 0.6964(41) 0.6357(38) 1.1283(29)
H10 H 0.5571(39) 0.5082(35) 1.2303(29)
H11 H 0.2172(62) -0.9875(54) 0.5123(47)
H12 H 0.2029(86) -1.1044(77) 0.4164(61)
H13 H 0.3329(88) -1.0445(80) 0.4948(64)
H14 H -0.0923(67) -0.7786(60) 0.0914(48)
H15 H -0.0540(59) -0.6520(54) 0.1416(44)
H16 H -0.0041(70) -0.6878(65) 0.0226(54)
C2A C 0.6272(3) -0.4930(3) 0.5625(2)
N1A N 0.5281(3) -0.4148(2) 0.5983(2)
C1A C 0.3990(3) -0.4210(3) 0.5365(2)
C3A C 0.2892(3) -0.3335(3) 0.5774(2)
N2A N 0.3414(3) -0.2337(2) 0.6592(2)
C7A C 0.2452(4) -0.1530(3) 0.6981(3)
C6A C 0.0961(4) -0.1677(4) 0.6593(3)
C5A C 0.0428(4) -0.2706(4) 0.5773(3)
C4A C 0.1412(4) -0.3537(3) 0.5343(3)
H2A H 0.1094(38) -0.4230(35) 0.4780(29)
H3A H -0.0588(46) -0.2831(38) 0.5480(32)
H4A H 0.0380(41) -0.1092(36) 0.6958(29)
H5A H 0.2815(34) -0.0824(31) 0.7518(25)
Cd1A Cd 0.59383(2) -0.22205(2) 0.74680(2)
O1A O 0.7189(3) -0.1725(2) 0.5998(2)
C15A C 0.6946(4) -0.0547(3) 0.6154(3)
O2A O 0.6242(3) -0.0086(2) 0.6911(2)
O3A O 0.7886(3) -0.3507(2) 0.7883(2)
C17A C 0.8742(4) -0.2614(3) 0.8497(3)
O4A O 0.8419(3) -0.1461(2) 0.8714(2)
N3A N 0.4729(3) -0.9230(2) 0.0946(2)
N3A_2 N 0.4729(3) 0.0770(2) 1.0946(2)
C8A C 0.5377(3) 0.1315(3) 1.0208(2)
C9A C 0.5646(4) 0.0523(3) 0.9257(3)
N4_2 N 0.5419(3) -0.6603(2) 0.1388(2)
Cd1_2 Cd 0.40617(2) 0.22205(2) 1.25320(2)
H6A H 0.3883(36) -0.0842(32) 1.1277(26)
C10A C 0.4195(3) -0.2763(3) 0.9541(2)
N4A N 0.4581(3) -0.3397(2) 0.8612(2)
C14A C 0.4161(4) -0.4687(3) 0.8332(3)
C13A C 0.3360(4) -0.5397(3) 0.8948(3)
C12A C 0.3014(4) -0.4750(3) 0.9915(3)
C11A C 0.3431(4) -0.3417(3) 1.0222(3)
H7A H 0.3234(37) -0.2947(34) 1.0831(28)
H8A H 0.2484(37) -0.5192(32) 1.0314(26)
H9A H 0.3036(41) -0.6357(38) 0.8717(29)
H10A H 0.4429(39) -0.5082(35) 0.7697(29)
C18A C 1.0180(5) -0.2940(5) 0.9004(4)
H14A H 1.0923(67) -0.2214(60) 0.9086(48)
H15A H 1.0540(59) -0.3480(54) 0.8584(44)
H16A H 1.0041(70) -0.3122(65) 0.9774(54)
C16A C 0.7490(8) 0.0305(5) 0.5399(4)
H11A H 0.7828(62) -0.0125(54) 0.4877(47)
H12A H 0.7971(86) 0.1044(77) 0.5836(61)
H13A H 0.6671(88) 0.0445(80) 0.5052(64)
H1A H 0.7133(36) -0.4902(31) 0.6073(25)
O5 O 0.3014(3) -0.7011(3) 0.6168(3)
H17 H 0.2888(46) -0.7471(42) 0.5492(37)
H18 H 0.2379(44) -0.7324(38) 0.6419(31)
O6 O 0.4317(4) -1.2471(3) 0.2882(3)
H19 H 0.4238(45) -1.1674(43) 0.3026(32)
H20 H 0.5227(53) -1.2465(43) 0.3170(36)
O7 O 0.1517(4) -0.3827(4) 0.2464(3)
H21 H 0.1569(44) -0.4562(41) 0.2316(31)
H22 H 0.2481(72) -0.3352(61) 0.2668(48)
O8 O 0.0964(5) -0.9462(4) -0.1062(3)
H23 H 0.1192(65) -0.9223(58) -0.0430(51)
H24 H 0.011(11) -0.9940(99) -0.1092(76)
O9 O 0.9262(4) -0.2150(4) 0.2682(3)
H25 H 0.9409(64) -0.1648(59) 0.1995(48)
H26 H 0.9789(60) -0.2572(51) 0.2637(44)
loop_
_geom_bond_atom_site_label_1
_geom_bond_atom_site_label_2
_geom_bond_site_symmetry_1
_geom_bond_site_symmetry_2
O1 C15 1_555 1_555
O2 C15 1_555 1_555
O3 C17 1_555 1_555
O4 C17 1_555 1_555
N1 C1 1_555 1_555
N2 C3 1_555 1_555
N3 C8 1_555 1_555
N4 C10 1_555 1_555
C1 C3 1_555 1_555
C2 N1 1_555 1_555
C3 C4 1_555 1_555
C4 C5 1_555 1_555
C5 C6 1_555 1_555
C6 C7 1_555 1_555
C7 N2 1_555 1_555
C8 C9 1_555 1_555
C9 N3A_2 1_555 1_555
C10 C11 1_555 1_555
C11 C12 1_555 1_555
C12 C13 1_555 1_555
C13 C14 1_555 1_555
C14 N4 1_555 1_555
C15 C16 1_555 1_555
C16 H11 1_555 1_555
C17 C18 1_555 1_555
C18 H14 1_555 1_555
Cd1 O1 1_555 1_555
H1 C2 1_555 1_555
H2 C4 1_555 1_555
H3 C5 1_555 1_555
H4 C6 1_555 1_555
H5 C7 1_555 1_555
H6 C9A 1_555 1_555
H7 C11 1_555 1_555
H8 C12 1_555 1_555
H9 C13 1_555 1_555
H10 C14 1_555 1_555
H12 C16 1_555 1_555
H13 C16 1_555 1_555
H15 C18 1_555 1_555
H16 C18 1_555 1_555
O5 H17 1_555 1_555
O6 H19 1_555 1_555
O7 H21 1_555 1_555
O8 H23 1_555 1_555
O9 H25 1_555 1_555
H18 O5 1_555 1_555
H20 O6 1_555 1_555
H22 O7 1_555 1_555
H24 O8 1_555 1_555
H26 O9 1_555 1_555
C2A C1 1_555 1_555
N1A C2A 1_555 1_555
C1A C2 1_555 1_555
C3A C1A 1_555 1_555
N2A C3A 1_555 1_555
C7A N2A 1_555 1_555
C6A C7A 1_555 1_555
C5A C6A 1_555 1_555
C4A C3A 1_555 1_555
H2A C4A 1_555 1_555
H3A C5A 1_555 1_555
H4A C6A 1_555 1_555
H5A C7A 1_555 1_555
Cd1A N3 1_555 1_555
O1A Cd1A 1_555 1_555
C15A O1A 1_555 1_555
O2A Cd1A 1_555 1_555
O3A Cd1A 1_555 1_555
C17A O3A 1_555 1_555
O4A Cd1A 1_555 1_555
N3A Cd1 1_555 1_555
N3A_2 C8A 1_555 1_555
C8A C10 1_555 1_555
C9A N3 1_555 1_555
N4_2 Cd1 1_555 1_555
Cd1_2 N4 1_555 1_555
H6A C9 1_555 1_555
C10A C8 1_555 1_555
N4A Cd1A 1_555 1_555
C14A N4A 1_555 1_555
C13A C14A 1_555 1_555
C12A C13A 1_555 1_555
C11A C10A 1_555 1_555
H7A C11A 1_555 1_555
H8A C12A 1_555 1_555
H9A C13A 1_555 1_555
H10A C14A 1_555 1_555
C18A C17A 1_555 1_555
H14A C18A 1_555 1_555
H15A C18A 1_555 1_555
H16A C18A 1_555 1_555
C16A C15A 1_555 1_555
H11A C16A 1_555 1_555
H12A C16A 1_555 1_555
H13A C16A 1_555 1_555
H1A C2A 1_555 1_555
O2 Cd1 1_555 1_555
O3 Cd1 1_555 1_555
O4 Cd1 1_555 1_555
N1 Cd1 1_555 1_555
N2 Cd1 1_555 1_555
N1A C1A 1_555 1_555
N1A Cd1A 1_555 1_555
N2A Cd1A 1_555 1_555
C5A C4A 1_555 1_555
C15A O2A 1_555 1_555
C17A O4A 1_555 1_555
N3A_2 Cd1_2 1_555 1_555
C8A C9A 1_555 1_555
C10A N4A 1_555 1_555
C12A C11A 1_555 1_555

#END
