
#######################################################################
#
#                 Cambridge Crystallographic Data Centre
#                                CCDC 
#
#######################################################################
#
# If this CIF has been generated from an entry in the Cambridge 
# Structural Database, then it will include bibliographic, chemical, 
# crystal, experimental, refinement or atomic coordinate data resulting 
# from the CCDC's data processing and validation procedures.
#
#######################################################################

data_KAQYAD
_symmetry_cell_setting           monoclinic
_symmetry_space_group_name_H-M   'P 21/c'
_symmetry_Int_Tables_number      14
_space_group_name_Hall           '-P 2ybc'
loop_
_symmetry_equiv_pos_site_id
_symmetry_equiv_pos_as_xyz
1 x,y,z
2 -x,1/2+y,1/2-z
3 -x,-y,-z
4 x,1/2-y,1/2+z
_cell_length_a                   8.4090(1)
_cell_length_b                   11.7400(1)
_cell_length_c                   6.7210(1)
_cell_angle_alpha                90
_cell_angle_beta                 101.86(2)
_cell_angle_gamma                90
_cell_volume                     649.344
loop_
_atom_site_label
_atom_site_type_symbol
_atom_site_fract_x
_atom_site_fract_y
_atom_site_fract_z
Ag1 Ag -0.05622 0.15326 0.21449
S1 S -0.02015 0.37534 0.24085
S2 S 0.27546 0.51119 0.30988
N1 N 0.27745 0.28310 0.30497
N2 N 0.22082 0.17525 0.31511
C1 C 0.18358 0.38347 0.28642
C2 C 0.44052 0.27715 0.31586
C3 C 0.48467 0.16561 0.33273
C4 C 0.34889 0.10264 0.33227
Ag1A Ag 0.05622 0.65326 0.28551
S2A S -0.27546 0.01119 0.19012
loop_
_geom_bond_atom_site_label_1
_geom_bond_atom_site_label_2
_geom_bond_site_symmetry_1
_geom_bond_site_symmetry_2
Ag1 S1 1_555 1_555
S1 C1 1_555 1_555
S2 C1 1_555 1_555
N1 N2 1_555 1_555
N2 Ag1 1_555 1_555
C1 N1 1_555 1_555
C2 N1 1_555 1_555
C3 C2 1_555 1_555
C4 N2 1_555 1_555
Ag1A S2 1_555 1_555
S2A Ag1 1_555 1_555
C3 C4 1_555 1_555

#END
