
#######################################################################
#
#                 Cambridge Crystallographic Data Centre
#                                CCDC 
#
#######################################################################
#
# If this CIF has been generated from an entry in the Cambridge 
# Structural Database, then it will include bibliographic, chemical, 
# crystal, experimental, refinement or atomic coordinate data resulting 
# from the CCDC's data processing and validation procedures.
#
#######################################################################

data_KAQYOR
_symmetry_cell_setting           triclinic
_symmetry_space_group_name_H-M   'P -1'
_symmetry_Int_Tables_number      2
_space_group_name_Hall           '-P 1'
loop_
_symmetry_equiv_pos_site_id
_symmetry_equiv_pos_as_xyz
1 x,y,z
2 -x,-y,-z
_cell_length_a                   3.74980(10)
_cell_length_b                   11.5531(5)
_cell_length_c                   11.6843(5)
_cell_angle_alpha                89.189(5)
_cell_angle_beta                 80.976(5)
_cell_angle_gamma                86.250(6)
_cell_volume                     498.846
loop_
_atom_site_label
_atom_site_type_symbol
_atom_site_fract_x
_atom_site_fract_y
_atom_site_fract_z
Cu1 Cu 0.29439(6) 0.107790(19) 0.507899(19)
Cl1 Cl 0.24620(11) -0.07843(3) 0.37766(3)
O1 O 0.5254(3) 0.35234(10) 0.24361(10)
N1 N 0.4377(4) 0.21163(12) 0.37406(12)
C1 C 0.1800(4) 0.41212(14) 0.42742(14)
C2 C 0.2004(5) 0.52872(14) 0.39386(14)
H1 H 0.345(6) 0.5484(18) 0.3237(19)
C3 C -0.0226(5) 0.38401(15) 0.53413(15)
H2 H -0.059(6) 0.3082(19) 0.5551(18)
C4 C 0.3754(4) 0.32134(14) 0.35238(14)
C5 C 0.6459(5) 0.16636(15) 0.27343(15)
H3 H 0.7346 0.0895 0.2630
C6 C 0.6985(5) 0.25148(14) 0.19361(14)
C7 C 0.8746(5) 0.25694(15) 0.07355(14)
C8 C 1.0718(5) 0.15829(15) 0.02250(16)
H4 H 1.0985 0.0913 0.0662
C9 C 1.2266(5) 0.16122(16) -0.09334(16)
H5 H 1.3557 0.0957 -0.1272
C10 C 1.1905(5) 0.26092(17) -0.15907(16)
H6 H 1.2937 0.2620 -0.2368
C11 C 0.9998(5) 0.35934(17) -0.10852(16)
H7 H 0.9779 0.4266 -0.1523
C12 C 0.8418(5) 0.35739(15) 0.00752(15)
H8 H 0.7140 0.4233 0.0411
Cu1A Cu -0.29439(6) -0.107790(19) 0.492101(19)
Cu1A_2 Cu 0.70561(6) -0.107790(19) 0.492101(19)
Cu1A_3 Cu -0.29439(6) 0.892210(19) 0.492101(19)
Cu1_2 Cu -0.70561(6) 0.107790(19) 0.507899(19)
Cl1A Cl -0.24620(11) 0.07843(3) 0.62234(3)
Cl1A_2 Cl 0.75380(11) 0.07843(3) 0.62234(3)
Cl1_2 Cl -0.75380(11) -0.07843(3) 0.37766(3)
O1A O -0.5254(3) 0.64766(10) 0.75639(10)
N1A N -0.4377(4) 0.78837(12) 0.62594(12)
N1A_2 N -0.4377(4) -0.21163(12) 0.62594(12)
C1A C -0.1800(4) 0.58788(14) 0.57258(14)
C2A C -0.2004(5) 0.47128(14) 0.60614(14)
H1A H -0.345(6) 0.4516(18) 0.6763(19)
C3A C 0.0226(5) 0.61599(15) 0.46587(15)
H2A H 0.059(6) 0.6918(19) 0.4449(18)
C4A C -0.3754(4) 0.67866(14) 0.64762(14)
C5A C -0.6459(5) 0.83364(15) 0.72657(15)
H3A H -0.7346 0.9105 0.7370
C6A C -0.6985(5) 0.74852(14) 0.80639(14)
C7A C -0.8746(5) 0.74306(15) 0.92645(14)
C8A C -1.0718(5) 0.84171(15) 0.97750(16)
H4A H -1.0985 0.9087 0.9338
C9A C -1.2266(5) 0.83878(16) 1.09334(16)
H5A H -1.3557 0.9043 1.1272
C10A C -1.1905(5) 0.73908(17) 1.15907(16)
H6A H -1.2937 0.7380 1.2368
C11A C -0.9998(5) 0.64066(17) 1.10852(16)
H7A H -0.9779 0.5734 1.1523
C12A C -0.8418(5) 0.64261(15) 0.99248(15)
H8A H -0.7140 0.5767 0.9589
loop_
_geom_bond_atom_site_label_1
_geom_bond_atom_site_label_2
_geom_bond_site_symmetry_1
_geom_bond_site_symmetry_2
Cu1 Cl1 1_555 1_555
Cl1 Cu1A 1_555 1_555
O1 C4 1_555 1_555
N1 Cu1 1_555 1_555
C1 C2 1_555 1_555
C2 H1 1_555 1_555
C3 C1 1_555 1_555
H2 C3 1_555 1_555
C4 N1 1_555 1_555
C5 N1 1_555 1_555
H3 C5 1_555 1_555
C6 O1 1_555 1_555
C7 C6 1_555 1_555
C8 C7 1_555 1_555
H4 C8 1_555 1_555
C9 C8 1_555 1_555
H5 C9 1_555 1_555
C10 C9 1_555 1_555
H6 C10 1_555 1_555
C11 C10 1_555 1_555
H7 C11 1_555 1_555
C12 C7 1_555 1_555
H8 C12 1_555 1_555
Cu1A Cu1_2 1_555 1_555
Cu1A_2 Cu1 1_555 1_555
Cu1A_3 N1A 1_555 1_555
Cu1_2 Cl1A 1_555 1_555
Cl1A Cu1 1_555 1_555
Cl1A_2 Cu1 1_555 1_555
Cl1_2 Cu1A 1_555 1_555
O1A C4A 1_555 1_555
N1A C4A 1_555 1_555
N1A_2 Cu1A 1_555 1_555
C1A C2A 1_555 1_555
C2A C3 1_555 1_555
H1A C2A 1_555 1_555
C3A C2 1_555 1_555
H2A C3A 1_555 1_555
C4A C1A 1_555 1_555
C5A N1A 1_555 1_555
H3A C5A 1_555 1_555
C6A O1A 1_555 1_555
C7A C6A 1_555 1_555
C8A C7A 1_555 1_555
H4A C8A 1_555 1_555
C9A C8A 1_555 1_555
H5A C9A 1_555 1_555
C10A C9A 1_555 1_555
H6A C10A 1_555 1_555
C11A C10A 1_555 1_555
H7A C11A 1_555 1_555
C12A C7A 1_555 1_555
H8A C12A 1_555 1_555
Cl1 Cu1A_2 1_555 1_555
C1 C4 1_555 1_555
C5 C6 1_555 1_555
C11 C12 1_555 1_555
Cu1A Cl1A 1_555 1_555
Cu1A_2 Cl1A_2 1_555 1_555
Cu1_2 Cl1_2 1_555 1_555
C1A C3A 1_555 1_555
C5A C6A 1_555 1_555
C11A C12A 1_555 1_555

#END
