
#######################################################################
#
#                 Cambridge Crystallographic Data Centre
#                                CCDC 
#
#######################################################################
#
# If this CIF has been generated from an entry in the Cambridge 
# Structural Database, then it will include bibliographic, chemical, 
# crystal, experimental, refinement or atomic coordinate data resulting 
# from the CCDC's data processing and validation procedures.
#
#######################################################################

data_KAQYEG
_symmetry_cell_setting           monoclinic
_symmetry_space_group_name_H-M   'C 2/c'
_symmetry_Int_Tables_number      15
_space_group_name_Hall           '-C 2yn'
loop_
_symmetry_equiv_pos_site_id
_symmetry_equiv_pos_as_xyz
1 x,y,z
2 x,-y,1/2+z
3 1/2+x,1/2+y,z
4 1/2+x,1/2-y,1/2+z
5 -x,-y,-z
6 -x,y,1/2-z
7 1/2-x,1/2-y,-z
8 1/2-x,1/2+y,1/2-z
_cell_length_a                   11.66018(26)
_cell_length_b                   11.98703(25)
_cell_length_c                   12.14530(29)
_cell_angle_alpha                90
_cell_angle_beta                 103.3485(18)
_cell_angle_gamma                90
_cell_volume                     1651.7
loop_
_atom_site_label
_atom_site_type_symbol
_atom_site_fract_x
_atom_site_fract_y
_atom_site_fract_z
Cd1 Cd 0.50000 0.31689 0.25000
N1 N 0.6623 0.27301 0.40527
N2 N 0.44089 0.18808 0.37861
N3 N 0.59381 0.50501 0.15001
O1 O 0.6558 0.42748 0.19793
O2 O 0.48526 0.49525 0.12886
O3 O 0.64226 0.58859 0.11491
C1 C 0.63937 0.21064 0.48786
C2 C 0.77357 0.30726 0.41204
C3 C 0.51877 0.17592 0.48202
C4 C 0.48082 0.12416 0.57176
C5 C 0.36086 0.09647 0.55649
C6 C 0.28857 0.11079 0.45423
C7 C 0.3286 0.15114 0.36575
H1 H 0.79359 0.35573 0.35814
H2 H 0.5221 0.1421 0.64548
H3 H 0.34151 0.04442 0.60624
H4 H 0.20789 0.09652 0.44504
H5 H 0.27438 0.15962 0.29423
N1E N 0.3377 0.27301 0.09473
N2E N 0.55911 0.18808 0.12139
O1E O 0.3442 0.42748 0.30207
O2E O 0.51474 0.49525 0.37114
C2F C 0.72643 0.19274 0.58796
C1F C 0.86063 0.28936 0.51214
C1E C 0.36063 0.21064 0.01214
C2E C 0.22643 0.30726 0.08796
C3E C 0.48123 0.17592 0.01798
C7E C 0.6714 0.15114 0.13425
N3E N 0.40619 0.50501 0.34999
N1F N 0.8377 0.22699 0.59473
H1F H 0.70641 0.14427 0.64186
C3F C 0.98123 0.32408 0.51798
C2C C 0.27357 0.19274 -0.08796
C1C C 0.13937 0.28936 -0.01214
H1E H 0.20641 0.35573 0.14186
C4E C 0.51918 0.12416 -0.07176
C6E C 0.71143 0.11079 0.04577
H5E H 0.72562 0.15962 0.20577
O3E O 0.35774 0.58859 0.38509
Cd1C Cd 1.00000 0.18311 0.75000
N2F N 1.05911 0.31192 0.62139
C4F C 1.01918 0.37584 0.42824
N1C N 0.1623 0.22699 -0.09473
H1C H 0.29359 0.14427 -0.14186
C3C C 0.01877 0.32408 -0.01798
C5E C 0.63914 0.09647 -0.05649
H2E H 0.4779 0.1421 -0.14548
H4E H 0.79211 0.09652 0.05496
N1C_2 N 1.1623 0.22699 0.90527
N2C N 0.94089 0.31192 0.87861
O1C O 1.1558 0.07252 0.69793
O1F O 0.8442 0.07252 0.80207
O2C O 0.98526 0.00475 0.62886
O2F O 1.01474 0.00475 0.87114
C7F C 1.1714 0.34886 0.63425
C5F C 1.13914 0.40353 0.44351
H2F H 0.9779 0.3579 0.35452
Cd1C_2 Cd 0.00000 0.18311 -0.25000
N2C_2 N -0.05911 0.31192 -0.12139
C4C C -0.01918 0.37584 0.07176
H3E H 0.65849 0.04442 -0.10624
N3C N 1.09381 -0.00501 0.65001
N3F N 0.90619 -0.00501 0.84999
C6F C 1.21143 0.38921 0.54577
H5F H 1.22562 0.34038 0.70577
H3F H 1.15849 0.45558 0.39376
C7C C -0.1714 0.34886 -0.13425
C5C C -0.13914 0.40353 0.05649
H2C H 0.0221 0.3579 0.14548
O3C O 1.14226 -0.08859 0.61491
O3F O 0.85774 -0.08859 0.88509
H4F H 1.29211 0.40348 0.55496
C6C C -0.21143 0.38921 -0.04577
H5C H -0.22562 0.34038 -0.20577
H3C H -0.15849 0.45558 0.10624
H4C H -0.29211 0.40348 -0.05496
loop_
_geom_bond_atom_site_label_1
_geom_bond_atom_site_label_2
_geom_bond_site_symmetry_1
_geom_bond_site_symmetry_2
Cd1 N1 1_555 1_555
N1 C1 1_555 1_555
N2 Cd1 1_555 1_555
N3 O1 1_555 1_555
O1 Cd1 1_555 1_555
O2 Cd1 1_555 1_555
O3 N3 1_555 1_555
C1 C3 1_555 1_555
C2 N1 1_555 1_555
C3 N2 1_555 1_555
C4 C3 1_555 1_555
C5 C4 1_555 1_555
C6 C5 1_555 1_555
C7 N2 1_555 1_555
H1 C2 1_555 1_555
H2 C4 1_555 1_555
H3 C5 1_555 1_555
H4 C6 1_555 1_555
H5 C7 1_555 1_555
N1E Cd1 1_555 1_555
N2E Cd1 1_555 1_555
O1E Cd1 1_555 1_555
O2E Cd1 1_555 1_555
C2F C1 1_555 1_555
C1F C2 1_555 1_555
C1E N1E 1_555 1_555
C2E N1E 1_555 1_555
C3E N2E 1_555 1_555
C7E N2E 1_555 1_555
N3E O1E 1_555 1_555
N1F C2F 1_555 1_555
H1F C2F 1_555 1_555
C3F C1F 1_555 1_555
C2C C1E 1_555 1_555
C1C C2E 1_555 1_555
H1E C2E 1_555 1_555
C4E C3E 1_555 1_555
C6E C7E 1_555 1_555
H5E C7E 1_555 1_555
O3E N3E 1_555 1_555
Cd1C N1F 1_555 1_555
N2F C3F 1_555 1_555
C4F C3F 1_555 1_555
N1C C2C 1_555 1_555
H1C C2C 1_555 1_555
C3C C1C 1_555 1_555
C5E C4E 1_555 1_555
H2E C4E 1_555 1_555
H4E C6E 1_555 1_555
N1C_2 Cd1C 1_555 1_555
N2C Cd1C 1_555 1_555
O1C Cd1C 1_555 1_555
O1F Cd1C 1_555 1_555
O2C Cd1C 1_555 1_555
O2F Cd1C 1_555 1_555
C7F N2F 1_555 1_555
C5F C4F 1_555 1_555
H2F C4F 1_555 1_555
Cd1C_2 N1C 1_555 1_555
N2C_2 C3C 1_555 1_555
C4C C3C 1_555 1_555
H3E C5E 1_555 1_555
N3C O1C 1_555 1_555
N3F O1F 1_555 1_555
C6F C7F 1_555 1_555
H5F C7F 1_555 1_555
H3F C5F 1_555 1_555
C7C N2C_2 1_555 1_555
C5C C4C 1_555 1_555
H2C C4C 1_555 1_555
O3C N3C 1_555 1_555
O3F N3F 1_555 1_555
H4F C6F 1_555 1_555
C6C C7C 1_555 1_555
H5C C7C 1_555 1_555
H3C C5C 1_555 1_555
H4C C6C 1_555 1_555
N3 O2 1_555 1_555
C6 C7 1_555 1_555
O2E N3E 1_555 1_555
C1F N1F 1_555 1_555
C1E C3E 1_555 1_555
C1C N1C 1_555 1_555
C6E C5E 1_555 1_555
Cd1C N2F 1_555 1_555
O2C N3C 1_555 1_555
O2F N3F 1_555 1_555
C5F C6F 1_555 1_555
Cd1C_2 N2C_2 1_555 1_555
C5C C6C 1_555 1_555

#END
