
#######################################################################
#
#                 Cambridge Crystallographic Data Centre
#                                CCDC 
#
#######################################################################
#
# If this CIF has been generated from an entry in the Cambridge 
# Structural Database, then it will include bibliographic, chemical, 
# crystal, experimental, refinement or atomic coordinate data resulting 
# from the CCDC's data processing and validation procedures.
#
#######################################################################

data_KAQYIL
_symmetry_cell_setting           monoclinic
_symmetry_space_group_name_H-M   'C 2/c'
_symmetry_Int_Tables_number      15
_space_group_name_Hall           '-C 2yn'
loop_
_symmetry_equiv_pos_site_id
_symmetry_equiv_pos_as_xyz
1 x,y,z
2 1/2+x,1/2+y,z
3 -x,y,1/2-z
4 1/2-x,1/2+y,1/2-z
5 -x,-y,-z
6 1/2-x,1/2-y,-z
7 x,-y,1/2+z
8 1/2+x,1/2-y,1/2+z
_cell_length_a                   14.2680(5)
_cell_length_b                   12.7763(6)
_cell_length_c                   11.81650(10)
_cell_angle_alpha                90
_cell_angle_beta                 101.347(2)
_cell_angle_gamma                90
_cell_volume                     2111.95
loop_
_atom_site_label
_atom_site_type_symbol
_atom_site_fract_x
_atom_site_fract_y
_atom_site_fract_z
Cu1 Cu 0.5000 0.38775(6) 0.2500
O1 O 0.22600(17) 0.3336(2) 0.2899(2)
O2 O 0.4950(3) 0.5574(3) 0.1595(3)
O3 O 0.5000 0.7031(5) 0.2500
N1 N 0.3776(2) 0.3646(3) 0.2874(3)
N2 N 0.5000 0.6095(5) 0.2500
C1 C 0.3342(3) 0.3036(3) 0.0354(3)
H1 H 0.3911 0.3401 0.0590
C2 C 0.1876(3) 0.2367(4) 0.0744(3)
H2 H 0.1452 0.2278 0.1243
C3 C 0.2727(3) 0.2906(3) 0.1113(3)
C4 C 0.2965(2) 0.3309(3) 0.2287(3)
C5 C 0.3597(3) 0.3909(3) 0.3953(3)
H3 H 0.4046 0.4174 0.4565
C6 C 0.2679(3) 0.3724(3) 0.3974(3)
C7 C 0.2081(3) 0.3845(3) 0.4829(3)
C8 C 0.1109(4) 0.3680(4) 0.4558(5)
H4 H 0.0813 0.3481 0.3817
C9 C 0.0579(4) 0.3817(5) 0.5418(7)
H5 H -0.0079 0.3716 0.5247
C10 C 0.1017(5) 0.4098(5) 0.6518(6)
H6 H 0.0654 0.4180 0.7085
C11 C 0.1963(4) 0.4255(4) 0.6777(4)
H7 H 0.2253 0.4449 0.7522
C12 C 0.2510(4) 0.4131(4) 0.5940(4)
H8 H 0.3167 0.4240 0.6124
Cu1G Cu 0.0000 0.11225(6) -0.2500
O1E O 0.27400(17) 0.1664(2) -0.2899(2)
O2B O 0.5050(3) 0.5574(3) 0.3405(3)
N1E N 0.1224(2) 0.1354(3) -0.2874(3)
N1B N 0.6224(2) 0.3646(3) 0.2126(3)
C1E C 0.1658(3) 0.1964(3) -0.0354(3)
H1E H 0.1089 0.1599 -0.0590
C2E C 0.3124(3) 0.2633(4) -0.0744(3)
H2E H 0.3548 0.2722 -0.1243
C3E C 0.2273(3) 0.2094(3) -0.1113(3)
C4E C 0.2035(2) 0.1691(3) -0.2287(3)
C5E C 0.1403(3) 0.1091(3) -0.3953(3)
H3E H 0.0954 0.0826 -0.4565
C6E C 0.2321(3) 0.1276(3) -0.3974(3)
C7E C 0.2919(3) 0.1155(3) -0.4829(3)
C8E C 0.3891(4) 0.1320(4) -0.4558(5)
H4E H 0.4187 0.1519 -0.3817
C9E C 0.4421(4) 0.1183(5) -0.5418(7)
H5E H 0.5079 0.1284 -0.5247
C10E C 0.3983(5) 0.0902(5) -0.6518(6)
H6E H 0.4346 0.0820 -0.7085
C11E C 0.3037(4) 0.0745(4) -0.6777(4)
H7E H 0.2747 0.0551 -0.7522
C12E C 0.2490(4) 0.0869(4) -0.5940(4)
H8E H 0.1833 0.0760 -0.6124
loop_
_geom_bond_atom_site_label_1
_geom_bond_atom_site_label_2
_geom_bond_site_symmetry_1
_geom_bond_site_symmetry_2
Cu1 O2 1_555 1_555
O1 C4 1_555 1_555
O2 N2 1_555 1_555
O3 N2 1_555 1_555
N1 Cu1 1_555 1_555
N2 O2B 1_555 1_555
C1 H1 1_555 1_555
C2 H2 1_555 1_555
C3 C1 1_555 1_555
C4 N1 1_555 1_555
C5 N1 1_555 1_555
H3 C5 1_555 1_555
C6 O1 1_555 1_555
C7 C6 1_555 1_555
C8 C7 1_555 1_555
H4 C8 1_555 1_555
C9 C8 1_555 1_555
H5 C9 1_555 1_555
C10 C9 1_555 1_555
H6 C10 1_555 1_555
C11 C10 1_555 1_555
H7 C11 1_555 1_555
C12 C7 1_555 1_555
H8 C12 1_555 1_555
Cu1G N1E 1_555 1_555
O1E C4E 1_555 1_555
O2B Cu1 1_555 1_555
N1E C4E 1_555 1_555
N1B Cu1 1_555 1_555
C1E C2 1_555 1_555
H1E C1E 1_555 1_555
C2E C1 1_555 1_555
H2E C2E 1_555 1_555
C3E C1E 1_555 1_555
C4E C3E 1_555 1_555
C5E N1E 1_555 1_555
H3E C5E 1_555 1_555
C6E O1E 1_555 1_555
C7E C6E 1_555 1_555
C8E C7E 1_555 1_555
H4E C8E 1_555 1_555
C9E C8E 1_555 1_555
H5E C9E 1_555 1_555
C10E C9E 1_555 1_555
H6E C10E 1_555 1_555
C11E C10E 1_555 1_555
H7E C11E 1_555 1_555
C12E C7E 1_555 1_555
H8E C12E 1_555 1_555
C2 C3 1_555 1_555
C3 C4 1_555 1_555
C5 C6 1_555 1_555
C11 C12 1_555 1_555
C2E C3E 1_555 1_555
C5E C6E 1_555 1_555
C11E C12E 1_555 1_555

#END
