
#######################################################################
#
#                 Cambridge Crystallographic Data Centre
#                                CCDC 
#
#######################################################################
#
# If this CIF has been generated from an entry in the Cambridge 
# Structural Database, then it will include bibliographic, chemical, 
# crystal, experimental, refinement or atomic coordinate data resulting 
# from the CCDC's data processing and validation procedures.
#
#######################################################################

data_KAQZEJ
_symmetry_cell_setting           triclinic
_symmetry_space_group_name_H-M   'P -1'
_symmetry_Int_Tables_number      2
_space_group_name_Hall           '-P 1'
loop_
_symmetry_equiv_pos_site_id
_symmetry_equiv_pos_as_xyz
1 x,y,z
2 -x,-y,-z
_cell_length_a                   8.583(2)
_cell_length_b                   10.021(2)
_cell_length_c                   11.7336(16)
_cell_angle_alpha                65.615(16)
_cell_angle_beta                 84.96(2)
_cell_angle_gamma                87.15(3)
_cell_volume                     915.525
loop_
_atom_site_label
_atom_site_type_symbol
_atom_site_fract_x
_atom_site_fract_y
_atom_site_fract_z
Co1 Co 0.0000 0.5000 1.0000
O5 O -0.2298(2) 0.4453(2) 1.00690(17)
N1 N 0.1471(2) 0.25173(19) 0.78495(17)
N2 N 0.0775(3) 0.1404(2) 0.8846(2)
N3 N 0.0618(2) 0.34796(19) 0.91447(17)
N4 N 0.0899(2) 0.22863(19) 0.37707(17)
N5 N -0.0495(3) 0.1658(2) 0.3823(2)
N6 N 0.0136(2) 0.3350(2) 0.18719(17)
C1 C 0.2178(3) 0.2278(3) 0.6772(2)
H1 H 0.2695 0.1312 0.7070
H2 H 0.2981 0.3016 0.6334
C2 C 0.0997(3) 0.2360(3) 0.5851(2)
H3 H 0.0592 0.3365 0.5446
H4 H 0.0116 0.1717 0.6298
C3 C 0.1792(3) 0.1883(3) 0.4866(2)
H5 H 0.2825 0.2332 0.4599
H6 H 0.1948 0.0818 0.5243
C4 C 0.0286(3) 0.2031(3) 0.9596(2)
H7 H -0.0250 0.1523 1.0382
C5 C 0.1358(3) 0.3734(2) 0.8041(2)
H8 H 0.1749 0.4648 0.7473
C6 C -0.0892(3) 0.2331(3) 0.2659(2)
H9 H -0.1815 0.2121 0.2394
C7 C 0.1233(3) 0.3276(2) 0.2621(2)
H10 H 0.2134 0.3854 0.2367
H15 H -0.297(3) 0.443(4) 1.063(3)
H16 H -0.258(4) 0.407(3) 0.962(3)
Co1_2 Co 0.0000 0.5000 0.0000
Co1_3 Co 0.0000 0.5000 2.0000
O5A O 0.2298(2) 0.5547(2) 0.99310(17)
N1_2 N 0.1471(2) 0.25173(19) 1.78495(17)
N2_2 N 0.0775(3) 0.1404(2) 1.8846(2)
N3_2 N 0.0618(2) 0.34796(19) 1.91447(17)
N3A N -0.0618(2) 0.65204(19) 1.08553(17)
N4_2 N 0.0899(2) 0.22863(19) 1.37707(17)
N5_2 N -0.0495(3) 0.1658(2) 1.3823(2)
N6_2 N 0.0136(2) 0.3350(2) 1.18719(17)
N6A N -0.0136(2) 0.6650(2) 0.81281(17)
C1_2 C 0.2178(3) 0.2278(3) 1.6772(2)
H1_2 H 0.2695 0.1312 1.7070
H2_2 H 0.2981 0.3016 1.6334
C2_2 C 0.0997(3) 0.2360(3) 1.5851(2)
H3_2 H 0.0592 0.3365 1.5446
H4_2 H 0.0116 0.1717 1.6298
C3_2 C 0.1792(3) 0.1883(3) 1.4866(2)
H5_2 H 0.2825 0.2332 1.4599
H6_2 H 0.1948 0.0818 1.5243
C4_2 C 0.0286(3) 0.2031(3) 1.9596(2)
H7_2 H -0.0250 0.1523 2.0382
C5_2 C 0.1358(3) 0.3734(2) 1.8041(2)
H8_2 H 0.1749 0.4648 1.7473
C6_2 C -0.0892(3) 0.2331(3) 1.2659(2)
H9_2 H -0.1815 0.2121 1.2394
C7_2 C 0.1233(3) 0.3276(2) 1.2621(2)
H10_2 H 0.2134 0.3854 1.2367
H15A H 0.297(3) 0.557(4) 0.937(3)
H16A H 0.258(4) 0.593(3) 1.038(3)
O1 O 0.4322(2) 0.7453(3) 0.57217(19)
O2 O 0.2887(3) 0.6036(2) 0.5230(2)
O3 O 0.2414(3) 0.5774(2) 0.3351(2)
O4 O 0.3385(2) 0.6751(2) 0.13847(19)
C8 C 0.3694(3) 0.8382(3) 0.3611(2)
C9 C 0.3411(3) 0.8228(3) 0.2502(2)
C10 C 0.3529(4) 0.9442(3) 0.1370(3)
H11 H 0.3350 0.9333 0.0634
C11 C 0.3900(4) 1.0805(3) 0.1280(3)
H12 H 0.3938 1.1619 0.0501
C12 C 0.4213(4) 1.0957(3) 0.2347(3)
H13 H 0.4495 1.1875 0.2298
C13 C 0.4116(3) 0.9777(3) 0.3483(3)
H14 H 0.4340 0.9903 0.4202
C14 C 0.3654(3) 0.7229(3) 0.4933(3)
C15 C 0.3041(3) 0.6818(3) 0.2411(3)
H19 H 0.267(5) 0.587(4) 0.447(4)
O6 O 0.4450(3) 0.5570(2) 0.81702(19)
H17 H 0.436(4) 0.606(3) 0.7389(18)
H18 H 0.501(4) 0.480(3) 0.832(3)
loop_
_geom_bond_atom_site_label_1
_geom_bond_atom_site_label_2
_geom_bond_site_symmetry_1
_geom_bond_site_symmetry_2
Co1 O5 1_555 1_555
O1 C14 1_555 1_555
O2 C14 1_555 1_555
O3 C15 1_555 1_555
O4 C15 1_555 1_555
O5 H15 1_555 1_555
O6 H17 1_555 1_555
N1 N2 1_555 1_555
N2 C4 1_555 1_555
N3 Co1 1_555 1_555
N4 N5 1_555 1_555
N5 C6 1_555 1_555
N6 C6 1_555 1_555
C1 N1 1_555 1_555
H1 C1 1_555 1_555
H2 C1 1_555 1_555
C2 C1 1_555 1_555
H3 C2 1_555 1_555
H4 C2 1_555 1_555
C3 N4 1_555 1_555
H5 C3 1_555 1_555
H6 C3 1_555 1_555
C4 N3 1_555 1_555
H7 C4 1_555 1_555
C5 N1 1_555 1_555
H8 C5 1_555 1_555
C6 H9 1_555 1_555
C7 N4 1_555 1_555
H10 C7 1_555 1_555
C8 C9 1_555 1_555
C9 C10 1_555 1_555
C10 H11 1_555 1_555
C11 C10 1_555 1_555
H12 C11 1_555 1_555
C12 C11 1_555 1_555
H13 C12 1_555 1_555
C13 C8 1_555 1_555
H14 C13 1_555 1_555
C14 C8 1_555 1_555
C15 C9 1_555 1_555
H16 O5 1_555 1_555
H18 O6 1_555 1_555
H19 O2 1_555 1_555
Co1_2 N6 1_555 1_555
Co1_3 N3_2 1_555 1_555
O5A Co1 1_555 1_555
N1_2 N2_2 1_555 1_555
N2_2 C4_2 1_555 1_555
N3_2 C4_2 1_555 1_555
N3A Co1 1_555 1_555
N4_2 N5_2 1_555 1_555
N5_2 C6_2 1_555 1_555
N6_2 Co1 1_555 1_555
N6A Co1 1_555 1_555
C1_2 N1_2 1_555 1_555
H1_2 C1_2 1_555 1_555
H2_2 C1_2 1_555 1_555
C2_2 C1_2 1_555 1_555
H3_2 C2_2 1_555 1_555
H4_2 C2_2 1_555 1_555
C3_2 N4_2 1_555 1_555
H5_2 C3_2 1_555 1_555
H6_2 C3_2 1_555 1_555
C4_2 H7_2 1_555 1_555
C5_2 N1_2 1_555 1_555
H8_2 C5_2 1_555 1_555
C6_2 N6_2 1_555 1_555
H9_2 C6_2 1_555 1_555
C7_2 N4_2 1_555 1_555
H10_2 C7_2 1_555 1_555
H15A O5A 1_555 1_555
H16A O5A 1_555 1_555
N3 C5 1_555 1_555
N6 C7 1_555 1_555
C2 C3 1_555 1_555
C12 C13 1_555 1_555
N3_2 C5_2 1_555 1_555
N6_2 C7_2 1_555 1_555
C2_2 C3_2 1_555 1_555

#END
