
#######################################################################
#
#                 Cambridge Crystallographic Data Centre
#                                CCDC 
#
#######################################################################
#
# If this CIF has been generated from an entry in the Cambridge 
# Structural Database, then it will include bibliographic, chemical, 
# crystal, experimental, refinement or atomic coordinate data resulting 
# from the CCDC's data processing and validation procedures.
#
#######################################################################

data_KAQZIN
_symmetry_cell_setting           triclinic
_symmetry_space_group_name_H-M   'P -1'
_symmetry_Int_Tables_number      2
_space_group_name_Hall           '-P 1'
loop_
_symmetry_equiv_pos_site_id
_symmetry_equiv_pos_as_xyz
1 x,y,z
2 -x,-y,-z
_cell_length_a                   10.1188(8)
_cell_length_b                   10.1677(19)
_cell_length_c                   10.7160(19)
_cell_angle_alpha                80.51(3)
_cell_angle_beta                 65.78(2)
_cell_angle_gamma                68.49(2)
_cell_volume                     935.305
loop_
_atom_site_label
_atom_site_type_symbol
_atom_site_fract_x
_atom_site_fract_y
_atom_site_fract_z
Co1 Co -0.02311(9) 0.40196(9) 0.79318(8)
O1 O 0.1934(5) 0.3889(5) 0.7999(5)
O2 O 0.1123(5) 0.5422(5) 0.6568(5)
O3 O 0.8016(5) 0.4922(5) 0.7295(5)
O4 O 0.6764(6) 0.3462(6) 0.8495(6)
O5 O -0.1519(6) 0.5738(5) 0.9354(5)
N1 N 0.1498(6) 0.1703(5) 0.4349(5)
N2 N 0.2531(7) 0.0764(6) 0.4845(6)
N3 N 0.0892(6) 0.2508(5) 0.6341(5)
N4 N 0.0387(6) 0.0942(5) 0.0978(5)
N5 N -0.1146(7) 0.1285(6) 0.1492(6)
N6 N -0.0377(6) 0.2560(5) -0.0414(5)
C1 C 0.1528(9) 0.1498(7) 0.3002(7)
H1 H 0.2556 0.1356 0.2315
H2 H 0.0834 0.2340 0.2746
C2 C 0.1053(9) 0.0225(7) 0.3041(6)
H3 H 0.1626 -0.0578 0.3452
H4 H -0.0030 0.0437 0.3608
C3 C 0.1344(9) -0.0158(7) 0.1614(7)
H5 H 0.2417 -0.0318 0.1036
H6 H 0.1144 -0.1033 0.1670
C4 C 0.2112(8) 0.1310(7) 0.6043(7)
H7 H 0.2622 0.0897 0.6634
C5 C 0.0535(7) 0.2717(7) 0.5236(6)
H8 H -0.0272 0.3466 0.5111
C6 C -0.1570(8) 0.2264(7) 0.0629(7)
H9 H -0.2589 0.2711 0.0726
C7 C 0.0845(8) 0.1678(7) -0.0159(7)
H10 H 0.1862 0.1596 -0.0698
C8 C 0.3386(6) 0.5420(7) 0.6780(6)
C9 C 0.4496(7) 0.4730(7) 0.7340(6)
H11 H 0.4435 0.3926 0.7886
C10 C 0.5684(7) 0.5225(7) 0.7093(6)
C11 C 0.5739(7) 0.6447(7) 0.6294(7)
H12 H 0.6514 0.6811 0.6139
C12 C 0.4653(8) 0.7117(8) 0.5734(7)
H13 H 0.4710 0.7923 0.5189
C13 C 0.3475(7) 0.6604(7) 0.5971(7)
H14 H 0.2749 0.7060 0.5583
C14 C 0.2091(7) 0.4873(7) 0.7127(6)
C15 C 0.6904(7) 0.4474(7) 0.7686(7)
H15 H -0.147(8) 0.558(7) 1.016(7)
H16 H -0.256(12) 0.638(11) 0.932(10)
Co1_2 Co 0.97689(9) 0.40196(9) 0.79318(8)
Co1_3 Co -0.02311(9) 0.40196(9) -0.20682(8)
O3_2 O -0.1984(5) 0.4922(5) 0.7295(5)
N6_2 N -0.0377(6) 0.2560(5) 0.9586(5)
O6 O 0.4610(7) 0.2316(9) 0.0114(8)
O7 O 0.5359(10) 0.9679(14) 0.1955(13)
loop_
_geom_bond_atom_site_label_1
_geom_bond_atom_site_label_2
_geom_bond_site_symmetry_1
_geom_bond_site_symmetry_2
Co1 O1 1_555 1_555
O1 C14 1_555 1_555
O2 Co1 1_555 1_555
O3 C15 1_555 1_555
O4 C15 1_555 1_555
O5 Co1 1_555 1_555
N1 N2 1_555 1_555
N2 C4 1_555 1_555
N3 Co1 1_555 1_555
N4 N5 1_555 1_555
N5 C6 1_555 1_555
N6 C6 1_555 1_555
C1 N1 1_555 1_555
H1 C1 1_555 1_555
H2 C1 1_555 1_555
C2 C1 1_555 1_555
H3 C2 1_555 1_555
H4 C2 1_555 1_555
C3 N4 1_555 1_555
H5 C3 1_555 1_555
H6 C3 1_555 1_555
C4 N3 1_555 1_555
H7 C4 1_555 1_555
C5 N1 1_555 1_555
H8 C5 1_555 1_555
C6 H9 1_555 1_555
C7 N4 1_555 1_555
H10 C7 1_555 1_555
C8 C9 1_555 1_555
C9 H11 1_555 1_555
C10 C9 1_555 1_555
C11 C10 1_555 1_555
H12 C11 1_555 1_555
C12 C11 1_555 1_555
H13 C12 1_555 1_555
C13 C8 1_555 1_555
H14 C13 1_555 1_555
C14 O2 1_555 1_555
C15 C10 1_555 1_555
H15 O5 1_555 1_555
H16 O5 1_555 1_555
Co1_2 O3 1_555 1_555
Co1_3 N6 1_555 1_555
O3_2 Co1 1_555 1_555
N6_2 Co1 1_555 1_555
N3 C5 1_555 1_555
N6 C7 1_555 1_555
C2 C3 1_555 1_555
C8 C14 1_555 1_555
C12 C13 1_555 1_555

#END
