
#######################################################################
#
#                 Cambridge Crystallographic Data Centre
#                                CCDC 
#
#######################################################################
#
# If this CIF has been generated from an entry in the Cambridge 
# Structural Database, then it will include bibliographic, chemical, 
# crystal, experimental, refinement or atomic coordinate data resulting 
# from the CCDC's data processing and validation procedures.
#
#######################################################################

data_KARCUD
_symmetry_cell_setting           monoclinic
_symmetry_space_group_name_H-M   'P 21/c'
_symmetry_Int_Tables_number      14
_space_group_name_Hall           '-P 2ybc'
loop_
_symmetry_equiv_pos_site_id
_symmetry_equiv_pos_as_xyz
1 x,y,z
2 -x,1/2+y,1/2-z
3 -x,-y,-z
4 x,1/2-y,1/2+z
_cell_length_a                   10.594(16)
_cell_length_b                   15.10(2)
_cell_length_c                   20.05(3)
_cell_angle_alpha                90
_cell_angle_beta                 95.01(2)
_cell_angle_gamma                90
_cell_volume                     3195.13
loop_
_atom_site_label
_atom_site_type_symbol
_atom_site_fract_x
_atom_site_fract_y
_atom_site_fract_z
Cu1 Cu 0.82547(11) 0.48066(8) 0.03086(5)
O1 O 0.8804(6) 0.3962(4) 0.0996(3)
O2 O 0.7313(7) 0.4573(5) 0.1574(3)
N1 N 0.8794(8) 0.1441(6) 0.4148(4)
N2 N 0.9387(9) 0.0820(6) 0.4519(4)
N3 N 1.0508(8) 0.0676(6) 0.4297(4)
N4 N 1.0666(8) 0.1161(6) 0.3761(4)
N5 N 0.6740(7) 0.4127(6) -0.0036(4)
N6 N 0.7434(8) 0.5668(6) -0.0344(4)
C1 C 0.9604(11) 0.1623(7) 0.3680(5)
C2 C 0.9279(10) 0.2261(7) 0.3142(5)
C3 C 0.8240(11) 0.2775(8) 0.3167(5)
H1 H 0.7756 0.2733 0.3531
C4 C 0.7889(10) 0.3365(8) 0.2653(6)
H2 H 0.7177 0.3722 0.2675
C5 C 0.8622(10) 0.3421(7) 0.2096(5)
C6 C 0.9687(10) 0.2868(8) 0.2070(5)
H3 H 1.0169 0.2886 0.1704
C7 C 1.0010(11) 0.2287(8) 0.2608(5)
H4 H 1.0715 0.1922 0.2602
C8 C 0.8199(11) 0.4057(8) 0.1530(5)
C9 C 0.6161(11) 0.6767(7) -0.1308(5)
C10 C 0.5417(13) 0.7362(9) -0.1812(7)
H5 H 0.5607 0.7971 -0.1708
H6 H 0.4526 0.7260 -0.1794
H7 H 0.5648 0.7231 -0.2254
C11 C 0.5701(10) 0.5927(8) -0.1157(5)
H8 H 0.4947 0.5729 -0.1380
C12 C 0.6341(9) 0.5383(7) -0.0682(5)
C13 C 0.5967(9) 0.4499(6) -0.0518(4)
C14 C 0.4961(10) 0.4058(8) -0.0847(5)
H9 H 0.4440 0.4350 -0.1173
C15 C 0.4718(11) 0.3192(8) -0.0697(6)
C16 C 0.3626(12) 0.2709(8) -0.1025(7)
H10 H 0.3731 0.2086 -0.0942
H11 H 0.3574 0.2817 -0.1498
H12 H 0.2863 0.2910 -0.0848
C17 C 0.5494(11) 0.2810(7) -0.0207(6)
H13 H 0.5356 0.2228 -0.0079
C18 C 0.6501(10) 0.3292(8) 0.0106(5)
H14 H 0.7035 0.3011 0.0433
C19 C 0.7868(10) 0.6512(9) -0.0506(6)
H15 H 0.8626 0.6709 -0.0287
C20 C 0.7248(7) 0.7065(5) -0.0967(4)
H16 H 0.7560 0.7628 -0.1044
Cu1C Cu 0.82547(11) 0.01934(8) 0.53086(5)
Cu1A Cu 1.17453(11) -0.01934(8) 0.46914(5)
N2C N 0.9387(9) 0.4180(6) -0.0481(4)
N3A N 0.9492(8) 0.5676(6) 0.0703(4)
O3 O 0.1790(7) 0.4887(5) 0.2332(4)
C21 C 0.2904(7) 0.5464(5) 0.2532(4)
N7 N 0.3215(7) 0.5502(5) 0.3212(4)
C22 C 0.2759(7) 0.6240(5) 0.3521(4)
C23 C 0.3729(7) 0.4860(5) 0.3529(4)
C24? C 0.3151(7) 0.6195(5) 0.4030(4)
C25? C 0.5544(7) 0.6098(5) 0.3580(4)
C26? C 0.2833(7) 0.0930(5) 0.2488(4)
C27? C 0.9517(7) 0.9770(5) 0.9368(4)
C28? C 1.0223(7) 0.8695(5) 0.9652(4)
C29? C 0.8370(7) 0.9090(5) 0.8700(4)
loop_
_geom_bond_atom_site_label_1
_geom_bond_atom_site_label_2
_geom_bond_site_symmetry_1
_geom_bond_site_symmetry_2
Cu1 O1 1_555 1_555
O1 C8 1_555 1_555
O2 C8 1_555 1_555
N1 N2 1_555 1_555
N2 N3 1_555 1_555
N3 N4 1_555 1_555
N4 C1 1_555 1_555
N5 Cu1 1_555 1_555
N6 Cu1 1_555 1_555
C1 N1 1_555 1_555
C2 C1 1_555 1_555
C3 C2 1_555 1_555
H1 C3 1_555 1_555
C4 C3 1_555 1_555
H2 C4 1_555 1_555
C5 C4 1_555 1_555
C6 C5 1_555 1_555
H3 C6 1_555 1_555
C7 C2 1_555 1_555
H4 C7 1_555 1_555
C8 C5 1_555 1_555
C9 C10 1_555 1_555
C10 H5 1_555 1_555
H6 C10 1_555 1_555
H7 C10 1_555 1_555
C11 C9 1_555 1_555
H8 C11 1_555 1_555
C12 N6 1_555 1_555
C13 N5 1_555 1_555
C14 C13 1_555 1_555
H9 C14 1_555 1_555
C15 C14 1_555 1_555
C16 C15 1_555 1_555
H10 C16 1_555 1_555
H11 C16 1_555 1_555
H12 C16 1_555 1_555
C17 C15 1_555 1_555
H13 C17 1_555 1_555
C18 N5 1_555 1_555
H14 C18 1_555 1_555
C19 N6 1_555 1_555
H15 C19 1_555 1_555
C20 C9 1_555 1_555
H16 C20 1_555 1_555
O3 C21 1_555 1_555
C21 N7 1_555 1_555
N7 C22 1_555 1_555
C23 N7 1_555 1_555
Cu1C N2 1_555 1_555
Cu1A N3 1_555 1_555
N2C Cu1 1_555 1_555
N3A Cu1 1_555 1_555
C6 C7 1_555 1_555
C11 C12 1_555 1_555
C12 C13 1_555 1_555
C17 C18 1_555 1_555
C19 C20 1_555 1_555

#END
