
#######################################################################
#
#                 Cambridge Crystallographic Data Centre
#                                CCDC 
#
#######################################################################
#
# If this CIF has been generated from an entry in the Cambridge 
# Structural Database, then it will include bibliographic, chemical, 
# crystal, experimental, refinement or atomic coordinate data resulting 
# from the CCDC's data processing and validation procedures.
#
#######################################################################

data_KARDUD01
_symmetry_cell_setting           monoclinic
_symmetry_space_group_name_H-M   'C 2/c'
_symmetry_Int_Tables_number      15
_space_group_name_Hall           '-C 2yn'
loop_
_symmetry_equiv_pos_site_id
_symmetry_equiv_pos_as_xyz
1 x,y,z
2 -x,y,1/2-z
3 1/2+x,1/2+y,z
4 1/2-x,1/2+y,1/2-z
5 -x,-y,-z
6 x,-y,1/2+z
7 1/2-x,1/2-y,-z
8 1/2+x,1/2-y,1/2+z
_cell_length_a                   14.929(2)
_cell_length_b                   14.4025(13)
_cell_length_c                   7.5428(11)
_cell_angle_alpha                90
_cell_angle_beta                 91.961(6)
_cell_angle_gamma                90
_cell_volume                     1620.86
loop_
_atom_site_label
_atom_site_type_symbol
_atom_site_fract_x
_atom_site_fract_y
_atom_site_fract_z
Zn1 Zn 0.5000 0.5000 0.5000
O1 O 0.40680(9) 0.40753(9) 0.38283(15)
O2 O 0.39589(8) 0.42662(9) 0.08731(15)
O3 O 0.5000 0.58494(9) 0.2500
N1 N 0.14620(8) 0.20508(9) 0.23221(16)
C1 C 0.22399(11) 0.18428(10) 0.3075(2)
C2 C 0.29962(10) 0.24374(10) 0.3085(2)
C3 C 0.29358(10) 0.32726(10) 0.22272(18)
C4 C 0.19859(11) 0.43283(11) 0.0286(2)
C5 C 0.11735(13) 0.45081(12) -0.0528(2)
C6 C 0.04541(12) 0.38852(14) -0.0379(2)
C7 C 0.05608(11) 0.30808(13) 0.0555(2)
C8 C 0.13929(10) 0.28722(10) 0.14128(19)
C9 C 0.21217(9) 0.35055(10) 0.13033(18)
C10 C 0.37322(9) 0.39320(10) 0.23183(19)
H1 H 0.2299 0.1255 0.3648
H2 H 0.3543 0.2252 0.3697
H3 H 0.2469 0.4754 0.0182
H4 H 0.1092 0.5063 -0.1217
H5 H -0.0115 0.4034 -0.0929
H6 H 0.0073 0.2655 0.0619
H7 H 0.5454 0.6264 0.2501
Zn1A Zn 0.5000 0.5000 0.0000
O1A O 0.59320(9) 0.40753(9) 0.11717(15)
O1D O 0.59320(9) 0.59247(9) 0.61717(15)
O2A O 0.60411(8) 0.42662(9) 0.41269(15)
O2E O 0.39589(8) 0.57338(9) 0.58731(15)
O3D O 0.5000 0.41506(9) 0.7500
N1A N 0.85380(8) 0.20508(9) 0.26779(16)
C1A C 0.77601(11) 0.18428(10) 0.1925(2)
C2A C 0.70038(10) 0.24374(10) 0.1915(2)
C3A C 0.70642(10) 0.32726(10) 0.27728(18)
C4A C 0.80141(11) 0.43283(11) 0.4714(2)
C5A C 0.88265(13) 0.45081(12) 0.5528(2)
C6A C 0.95459(12) 0.38852(14) 0.5379(2)
C7A C 0.94392(11) 0.30808(13) 0.4445(2)
C8A C 0.86071(10) 0.28722(10) 0.35872(19)
C9A C 0.78783(9) 0.35055(10) 0.36967(18)
C10A C 0.62678(9) 0.39320(10) 0.26817(19)
H1A H 0.7701 0.1255 0.1352
H2A H 0.6457 0.2252 0.1303
H3A H 0.7531 0.4754 0.4818
H4A H 0.8908 0.5063 0.6217
H5A H 1.0115 0.4034 0.5929
H6A H 0.9927 0.2655 0.4381
H7A H 0.4546 0.6264 0.2499
H7D H 0.4546 0.3736 0.7499
H7E H 0.5454 0.3736 0.7501
loop_
_geom_bond_atom_site_label_1
_geom_bond_atom_site_label_2
_geom_bond_site_symmetry_1
_geom_bond_site_symmetry_2
Zn1 O1 1_555 1_555
O1 C10 1_555 1_555
O2 C10 1_555 1_555
O3 Zn1 1_555 1_555
N1 C1 1_555 1_555
C1 C2 1_555 1_555
C2 C3 1_555 1_555
C3 C9 1_555 1_555
C4 C5 1_555 1_555
C5 C6 1_555 1_555
C6 C7 1_555 1_555
C7 C8 1_555 1_555
C8 N1 1_555 1_555
C9 C4 1_555 1_555
C10 C3 1_555 1_555
H1 C1 1_555 1_555
H2 C2 1_555 1_555
H3 C4 1_555 1_555
H4 C5 1_555 1_555
H5 C6 1_555 1_555
H6 C7 1_555 1_555
H7 O3 1_555 1_555
Zn1A O2 1_555 1_555
O1A Zn1A 1_555 1_555
O1D Zn1 1_555 1_555
O2A Zn1 1_555 1_555
O2E Zn1 1_555 1_555
O3D Zn1 1_555 1_555
N1A C1A 1_555 1_555
C1A C2A 1_555 1_555
C2A C3A 1_555 1_555
C3A C9A 1_555 1_555
C4A C5A 1_555 1_555
C5A C6A 1_555 1_555
C6A C7A 1_555 1_555
C7A C8A 1_555 1_555
C8A N1A 1_555 1_555
C9A C4A 1_555 1_555
C10A O1A 1_555 1_555
H1A C1A 1_555 1_555
H2A C2A 1_555 1_555
H3A C4A 1_555 1_555
H4A C5A 1_555 1_555
H5A C6A 1_555 1_555
H6A C7A 1_555 1_555
H7A O3 1_555 1_555
H7D O3D 1_555 1_555
H7E O3D 1_555 1_555
O3 Zn1A 1_555 1_555
C8 C9 1_555 1_555
O2A C10A 1_555 1_555
C3A C10A 1_555 1_555
C8A C9A 1_555 1_555

#END
