
#######################################################################
#
#                 Cambridge Crystallographic Data Centre
#                                CCDC 
#
#######################################################################
#
# If this CIF has been generated from an entry in the Cambridge 
# Structural Database, then it will include bibliographic, chemical, 
# crystal, experimental, refinement or atomic coordinate data resulting 
# from the CCDC's data processing and validation procedures.
#
#######################################################################

data_KARDEO
_symmetry_cell_setting           monoclinic
_symmetry_space_group_name_H-M   'P 21/c'
_symmetry_Int_Tables_number      14
_space_group_name_Hall           '-P 2ybc'
loop_
_symmetry_equiv_pos_site_id
_symmetry_equiv_pos_as_xyz
1 x,y,z
2 -x,1/2+y,1/2-z
3 -x,-y,-z
4 x,1/2-y,1/2+z
_cell_length_a                   7.0737(14)
_cell_length_b                   19.296(4)
_cell_length_c                   10.680(2)
_cell_angle_alpha                90
_cell_angle_beta                 100.599(4)
_cell_angle_gamma                90
_cell_volume                     1432.89
loop_
_atom_site_label
_atom_site_type_symbol
_atom_site_fract_x
_atom_site_fract_y
_atom_site_fract_z
Zn1 Zn -0.19473(11) -0.41996(3) 0.30545(6)
C1 C -0.1994(9) -0.2925(3) 0.4469(6)
H1 H -0.1452 -0.2469 0.4678
H2 H -0.3353 -0.2907 0.4505
C2 C -0.1016(10) -0.3442(3) 0.5416(6)
H3 H -0.1300 -0.3338 0.6251
H4 H 0.0365 -0.3413 0.5469
C3 C 0.3173(8) -0.6153(3) -0.0210(6)
H5 H 0.3431 -0.6599 -0.0462
C4 C 0.2396(7) -0.5013(3) -0.0739(5)
C5 C 0.1949(8) -0.4510(3) -0.1760(5)
C6 C 0.1767(8) -0.3831(3) -0.1414(5)
H6 H 0.1541 -0.3490 -0.2039
C7 C 0.3334(8) -0.6017(3) 0.1076(5)
H7 H 0.3636 -0.6371 0.1671
C8 C 0.3045(8) -0.5356(3) 0.1463(5)
H8 H 0.3174 -0.5256 0.2326
C9 C 0.2553(7) -0.4828(3) 0.0553(5)
C10 C 0.2278(8) -0.4109(3) 0.0840(5)
C11 C 0.1921(8) -0.3646(3) -0.0126(5)
H9 H 0.1768 -0.3183 0.0072
O1 O 0.1876(6) -0.4735(2) -0.2941(3)
O2 O 0.1281(6) -0.4228(2) 0.3080(4)
O3 O 0.2122(6) -0.3094(2) 0.2381(4)
O4 O 0.4564(6) -0.3973(3) 0.3024(4)
N1 N -0.1752(7) -0.3115(2) 0.3185(4)
H10 H -0.2676 -0.2917 0.2603
H11 H -0.0600 -0.2971 0.3043
N2 N -0.1687(8) -0.4153(3) 0.5030(5)
H12 H -0.0832 -0.4470 0.5406
H13 H -0.2829 -0.4238 0.5258
N3 N 0.2669(6) -0.5678(2) -0.1095(4)
S1 S 0.2591(2) -0.38251(8) 0.24287(14)
Zn1B Zn 0.19473(11) -0.58004(3) -0.30545(6)
O1B O -0.1876(6) -0.5265(2) 0.2941(3)
N3B N -0.2669(6) -0.4322(2) 0.1095(4)
O5 O 0.4299(8) -0.4076(3) -0.4250(4)
H14 H 0.369(9) -0.419(4) -0.500(3)
H15 H 0.354(7) -0.427(3) -0.381(5)
O6 O 0.4913(7) -0.7695(3) -0.1585(5)
H16 H 0.526(11) -0.810(2) -0.128(7)
H17 H 0.589(7) -0.758(4) -0.191(6)
loop_
_geom_bond_atom_site_label_1
_geom_bond_atom_site_label_2
_geom_bond_site_symmetry_1
_geom_bond_site_symmetry_2
Zn1 O2 1_555 1_555
C1 H1 1_555 1_555
H2 C1 1_555 1_555
C2 C1 1_555 1_555
H3 C2 1_555 1_555
H4 C2 1_555 1_555
C3 H5 1_555 1_555
C4 C5 1_555 1_555
C5 C6 1_555 1_555
C6 H6 1_555 1_555
C7 C3 1_555 1_555
H7 C7 1_555 1_555
C8 C7 1_555 1_555
H8 C8 1_555 1_555
C9 C4 1_555 1_555
C10 C9 1_555 1_555
C11 C6 1_555 1_555
H9 C11 1_555 1_555
O1 C5 1_555 1_555
O2 S1 1_555 1_555
O3 S1 1_555 1_555
O4 S1 1_555 1_555
N1 Zn1 1_555 1_555
H10 N1 1_555 1_555
H11 N1 1_555 1_555
N2 Zn1 1_555 1_555
H12 N2 1_555 1_555
H13 N2 1_555 1_555
N3 C3 1_555 1_555
S1 C10 1_555 1_555
O5 H14 1_555 1_555
H15 O5 1_555 1_555
O6 H16 1_555 1_555
H17 O6 1_555 1_555
Zn1B O1 1_555 1_555
O1B Zn1 1_555 1_555
N3B Zn1 1_555 1_555
C1 N1 1_555 1_555
C2 N2 1_555 1_555
C4 N3 1_555 1_555
C8 C9 1_555 1_555
C10 C11 1_555 1_555
N3 Zn1B 1_555 1_555

#END
