
#######################################################################
#
#                 Cambridge Crystallographic Data Centre
#                                CCDC 
#
#######################################################################
#
# If this CIF has been generated from an entry in the Cambridge 
# Structural Database, then it will include bibliographic, chemical, 
# crystal, experimental, refinement or atomic coordinate data resulting 
# from the CCDC's data processing and validation procedures.
#
#######################################################################

data_KARDUD
_symmetry_cell_setting           monoclinic
_symmetry_space_group_name_H-M   'C 2/c'
_symmetry_Int_Tables_number      15
_space_group_name_Hall           '-C 2yn'
loop_
_symmetry_equiv_pos_site_id
_symmetry_equiv_pos_as_xyz
1 x,y,z
2 1/2+x,1/2+y,z
3 -x,y,1/2-z
4 1/2-x,1/2+y,1/2-z
5 -x,-y,-z
6 1/2-x,1/2-y,-z
7 x,-y,1/2+z
8 1/2+x,1/2-y,1/2+z
_cell_length_a                   14.923(3)
_cell_length_b                   14.426(3)
_cell_length_c                   7.544(2)
_cell_angle_alpha                90
_cell_angle_beta                 91.90(3)
_cell_angle_gamma                90
_cell_volume                     1623.17
loop_
_atom_site_label
_atom_site_type_symbol
_atom_site_fract_x
_atom_site_fract_y
_atom_site_fract_z
Zn1 Zn 0.5000 0.5000 0.5000
O1 O 0.39586(19) 0.57308(19) 0.5872(3)
O2 O 0.4069(2) 0.59261(19) 0.8824(3)
O3 O 0.5000 0.5845(2) 0.2500
H1 H 0.456(2) 0.622(2) 0.256(6)
N1 N 0.1465(2) 0.79481(19) 0.7329(3)
C1 C 0.3731(2) 0.6069(2) 0.7317(4)
C2 C 0.2933(2) 0.6728(2) 0.7220(4)
C3 C 0.2995(3) 0.7564(2) 0.8085(4)
H2 H 0.3527 0.7739 0.8670
C4 C 0.2239(3) 0.8157(2) 0.8075(4)
H3 H 0.2299 0.8729 0.8633
C5 C 0.1389(2) 0.7130(2) 0.6407(4)
C6 C 0.0566(3) 0.6921(3) 0.5565(5)
H4 H 0.0089 0.7332 0.5644
C7 C 0.0458(3) 0.6115(3) 0.4623(5)
H5 H -0.0094 0.5981 0.4073
C8 C 0.1174(3) 0.5488(3) 0.4481(5)
H6 H 0.1094 0.4943 0.3835
C9 C 0.1981(3) 0.5677(2) 0.5286(4)
H7 H 0.2452 0.5262 0.5164
C10 C 0.2121(2) 0.6493(2) 0.6308(4)
Zn1F Zn 0.5000 0.5000 1.0000
Zn1F_2 Zn 0.5000 0.5000 0.0000
O1D O 0.60414(19) 0.42692(19) 0.4128(3)
O2D O 0.5931(2) 0.40739(19) 0.1176(3)
O2F O 0.4069(2) 0.40739(19) 0.3824(3)
O2B O 0.5931(2) 0.59261(19) 0.6176(3)
O3F O 0.5000 0.4155(2) 0.7500
H1B H 0.544(2) 0.622(2) 0.244(6)
H1F H 0.456(2) 0.378(2) 0.756(6)
H1D H 0.544(2) 0.378(2) 0.744(6)
N1D N 0.8535(2) 0.20519(19) 0.2671(3)
C1D C 0.6269(2) 0.3931(2) 0.2683(4)
C2D C 0.7067(2) 0.3272(2) 0.2780(4)
C3D C 0.7005(3) 0.2436(2) 0.1915(4)
H2D H 0.6473 0.2261 0.1330
C4D C 0.7761(3) 0.1843(2) 0.1925(4)
H3D H 0.7701 0.1271 0.1367
C5D C 0.8611(2) 0.2870(2) 0.3593(4)
C6D C 0.9434(3) 0.3079(3) 0.4435(5)
H4D H 0.9911 0.2668 0.4356
C7D C 0.9542(3) 0.3885(3) 0.5377(5)
H5D H 1.0094 0.4019 0.5927
C8D C 0.8826(3) 0.4512(3) 0.5519(5)
H6D H 0.8906 0.5057 0.6165
C9D C 0.8019(3) 0.4323(2) 0.4714(4)
H7D H 0.7548 0.4738 0.4836
C10D C 0.7879(2) 0.3507(2) 0.3692(4)
loop_
_geom_bond_atom_site_label_1
_geom_bond_atom_site_label_2
_geom_bond_site_symmetry_1
_geom_bond_site_symmetry_2
Zn1 O1 1_555 1_555
O1 C1 1_555 1_555
O2 C1 1_555 1_555
O3 Zn1 1_555 1_555
H1 O3 1_555 1_555
N1 C4 1_555 1_555
C1 C2 1_555 1_555
C2 C3 1_555 1_555
C3 H2 1_555 1_555
C4 C3 1_555 1_555
H3 C4 1_555 1_555
C5 N1 1_555 1_555
C6 C5 1_555 1_555
H4 C6 1_555 1_555
C7 C6 1_555 1_555
H5 C7 1_555 1_555
C8 C7 1_555 1_555
H6 C8 1_555 1_555
C9 C8 1_555 1_555
H7 C9 1_555 1_555
C10 C2 1_555 1_555
Zn1F O2 1_555 1_555
Zn1F_2 O3 1_555 1_555
O1D Zn1 1_555 1_555
O2D Zn1F_2 1_555 1_555
O2F Zn1 1_555 1_555
O2B Zn1 1_555 1_555
O3F Zn1 1_555 1_555
H1B O3 1_555 1_555
H1F O3F 1_555 1_555
H1D O3F 1_555 1_555
N1D C4D 1_555 1_555
C1D O1D 1_555 1_555
C2D C1D 1_555 1_555
C3D C2D 1_555 1_555
H2D C3D 1_555 1_555
C4D C3D 1_555 1_555
H3D C4D 1_555 1_555
C5D N1D 1_555 1_555
C6D C5D 1_555 1_555
H4D C6D 1_555 1_555
C7D C6D 1_555 1_555
H5D C7D 1_555 1_555
C8D C7D 1_555 1_555
H6D C8D 1_555 1_555
C9D C8D 1_555 1_555
H7D C9D 1_555 1_555
C10D C2D 1_555 1_555
C5 C10 1_555 1_555
C9 C10 1_555 1_555
Zn1F O3F 1_555 1_555
O2D C1D 1_555 1_555
C5D C10D 1_555 1_555
C9D C10D 1_555 1_555

#END
