
#######################################################################
#
#                 Cambridge Crystallographic Data Centre
#                                CCDC 
#
#######################################################################
#
# If this CIF has been generated from an entry in the Cambridge 
# Structural Database, then it will include bibliographic, chemical, 
# crystal, experimental, refinement or atomic coordinate data resulting 
# from the CCDC's data processing and validation procedures.
#
#######################################################################

data_KARGER
_symmetry_cell_setting           monoclinic
_symmetry_space_group_name_H-M   'P 21/n'
_symmetry_Int_Tables_number      14
_space_group_name_Hall           '-P 2yn'
loop_
_symmetry_equiv_pos_site_id
_symmetry_equiv_pos_as_xyz
1 x,y,z
2 1/2-x,1/2+y,1/2-z
3 -x,-y,-z
4 1/2+x,1/2-y,1/2+z
_cell_length_a                   6.5318(16)
_cell_length_b                   17.492(4)
_cell_length_c                   10.688(3)
_cell_angle_alpha                90
_cell_angle_beta                 100.841(4)
_cell_angle_gamma                90
_cell_volume                     1199.36
loop_
_atom_site_label
_atom_site_type_symbol
_atom_site_fract_x
_atom_site_fract_y
_atom_site_fract_z
Zn1 Zn 0.5000 0.0000 0.5000
O1 O 0.2637(2) -0.05009(8) 0.37102(13)
O2 O -0.0489(2) -0.02422(9) 0.25237(14)
O3 O -0.2974(2) 0.13226(9) 0.19599(14)
O4 O -0.4227(2) 0.06057(9) 0.33735(14)
N1 N 0.2633(3) 0.08175(10) 0.49910(16)
C1 C 0.0916(3) 0.06432(11) 0.41304(18)
C2 C -0.0806(3) 0.11310(12) 0.39556(19)
N2 N -0.0771(3) 0.17909(10) 0.46055(17)
C3 C 0.0948(3) 0.19435(12) 0.5460(2)
H1 H 0.1004 0.2400 0.5947
C4 C 0.2654(3) 0.14582(12) 0.5662(2)
H2 H 0.3848 0.1584 0.6284
C5 C 0.0996(3) -0.00905(11) 0.33778(19)
C6 C -0.2832(3) 0.09904(11) 0.30218(19)
Zn1_2 Zn -0.5000 0.0000 0.5000
Zn1_3 Zn 1.5000 0.0000 0.5000
O1_2 O 1.2637(2) -0.05009(8) 0.37102(13)
O1B O 0.7363(2) 0.05009(8) 0.62898(13)
O2_2 O 0.9511(2) -0.02422(9) 0.25237(14)
O3_2 O 0.7026(2) 0.13226(9) 0.19599(14)
O4_2 O 0.5773(2) 0.06057(9) 0.33735(14)
O4B O 0.4227(2) -0.06057(9) 0.66265(14)
N1_2 N 1.2633(3) 0.08175(10) 0.49910(16)
N1B N 0.7367(3) -0.08175(10) 0.50090(16)
C1_2 C 1.0916(3) 0.06432(11) 0.41304(18)
C2_2 C 0.9194(3) 0.11310(12) 0.39556(19)
N2_2 N 0.9229(3) 0.17909(10) 0.46055(17)
C3_2 C 1.0948(3) 0.19435(12) 0.5460(2)
H1_2 H 1.1004 0.2400 0.5947
C4_2 C 1.2654(3) 0.14582(12) 0.5662(2)
H2_2 H 1.3848 0.1584 0.6284
C5_2 C 1.0996(3) -0.00905(11) 0.33778(19)
C6_2 C 0.7168(3) 0.09904(11) 0.30218(19)
H3 H 0.4930 0.0961 0.0682
H4 H 0.3070 0.1055 -0.0324
N3 N 0.4047(3) 0.07314(11) 0.00370(17)
C7 C 0.5386(3) 0.05634(13) -0.0920(2)
H5 H 0.6088 0.1037 -0.1119
H6 H 0.4509 0.0374 -0.1717
C8 C 0.3005(3) 0.00301(12) 0.0400(2)
H7 H 0.2053 -0.0177 -0.0355
H8 H 0.2168 0.0159 0.1053
H3B H 0.5070 -0.0961 -0.0682
H4B H 0.6930 -0.1055 0.0324
N3B N 0.5953(3) -0.07314(11) -0.00370(17)
C7B C 0.4614(3) -0.05634(13) 0.0920(2)
H5B H 0.3912 -0.1037 0.1119
H6B H 0.5491 -0.0374 0.1717
C8B C 0.6995(3) -0.00301(12) -0.0400(2)
H7B H 0.7947 0.0177 0.0355
H8B H 0.7832 -0.0159 -0.1053
O5 O 0.1550(3) 0.19413(9) 0.90928(17)
H9 H 0.0446 0.1962 0.8560
H10 H 0.2167 0.2401 0.9167
O6 O -0.2205(3) 0.18886(10) 0.76799(16)
H11 H -0.2249 0.1489 0.7134
H12 H -0.2782 0.2269 0.7280
O7 O 0.5841(3) 0.31525(11) 0.65378(18)
H13 H 0.4632 0.3340 0.6621
H14 H 0.5624 0.3161 0.5682
loop_
_geom_bond_atom_site_label_1
_geom_bond_atom_site_label_2
_geom_bond_site_symmetry_1
_geom_bond_site_symmetry_2
Zn1 O1 1_555 1_555
O1 C5 1_555 1_555
O2 C5 1_555 1_555
O3 C6 1_555 1_555
O4 C6 1_555 1_555
N1 Zn1 1_555 1_555
C1 N1 1_555 1_555
C2 C1 1_555 1_555
N2 C2 1_555 1_555
C3 N2 1_555 1_555
H1 C3 1_555 1_555
C4 N1 1_555 1_555
H2 C4 1_555 1_555
C5 C1 1_555 1_555
C6 C2 1_555 1_555
H3 N3 1_555 1_555
H4 N3 1_555 1_555
N3 C7 1_555 1_555
C7 H5 1_555 1_555
H6 C7 1_555 1_555
C8 N3 1_555 1_555
H7 C8 1_555 1_555
H8 C8 1_555 1_555
O5 H9 1_555 1_555
H10 O5 1_555 1_555
O6 H11 1_555 1_555
H12 O6 1_555 1_555
O7 H13 1_555 1_555
H14 O7 1_555 1_555
Zn1_2 O4 1_555 1_555
Zn1_3 O1_2 1_555 1_555
O1_2 C5_2 1_555 1_555
O1B Zn1 1_555 1_555
O2_2 C5_2 1_555 1_555
O3_2 C6_2 1_555 1_555
O4_2 Zn1 1_555 1_555
O4B Zn1 1_555 1_555
N1_2 Zn1_3 1_555 1_555
N1B Zn1 1_555 1_555
C1_2 N1_2 1_555 1_555
C2_2 C1_2 1_555 1_555
N2_2 C2_2 1_555 1_555
C3_2 N2_2 1_555 1_555
H1_2 C3_2 1_555 1_555
C4_2 N1_2 1_555 1_555
H2_2 C4_2 1_555 1_555
C5_2 C1_2 1_555 1_555
C6_2 O4_2 1_555 1_555
H3B N3B 1_555 1_555
H4B N3B 1_555 1_555
N3B C7B 1_555 1_555
C7B C8 1_555 1_555
H5B C7B 1_555 1_555
H6B C7B 1_555 1_555
C8B C7 1_555 1_555
H7B C8B 1_555 1_555
H8B C8B 1_555 1_555
C3 C4 1_555 1_555
C2_2 C6_2 1_555 1_555
C3_2 C4_2 1_555 1_555
N3B C8B 1_555 1_555

#END
