
#######################################################################
#
#                 Cambridge Crystallographic Data Centre
#                                CCDC 
#
#######################################################################
#
# If this CIF has been generated from an entry in the Cambridge 
# Structural Database, then it will include bibliographic, chemical, 
# crystal, experimental, refinement or atomic coordinate data resulting 
# from the CCDC's data processing and validation procedures.
#
#######################################################################

data_KARJAQ
_symmetry_cell_setting           monoclinic
_symmetry_space_group_name_H-M   'P 21/c'
_symmetry_Int_Tables_number      14
_space_group_name_Hall           '-P 2ybc'
loop_
_symmetry_equiv_pos_site_id
_symmetry_equiv_pos_as_xyz
1 x,y,z
2 -x,1/2+y,1/2-z
3 -x,-y,-z
4 x,1/2-y,1/2+z
_cell_length_a                   12.365(2)
_cell_length_b                   15.639(3)
_cell_length_c                   31.194(5)
_cell_angle_alpha                90
_cell_angle_beta                 94.022(2)
_cell_angle_gamma                90
_cell_volume                     6017.32
loop_
_atom_site_label
_atom_site_type_symbol
_atom_site_fract_x
_atom_site_fract_y
_atom_site_fract_z
Cd1 Cd 1.03733(4) 0.51356(3) 0.443411(16)
Cd2 Cd 0.83708(5) 0.54439(3) 0.352589(16)
Cd3 Cd 0.87603(4) 0.58561(3) 0.230626(17)
Cd4 Cd 0.62294(4) 0.44855(3) 0.278078(17)
Cd5 Cd 0.66539(4) 0.48662(3) 0.155040(15)
Cd6 Cd 0.47656(4) 0.51214(3) 0.058212(16)
Cl1 Cl 0.87473(17) 0.44493(14) 0.48504(6)
Cl2 Cl 0.91347(19) 0.63732(13) 0.41386(7)
Cl3 Cl 0.98792(15) 0.58183(14) 0.30101(6)
Cl4 Cl 1.01458(17) 0.56931(16) 0.17609(7)
Cl5 Cl 0.70286(14) 0.60151(11) 0.28989(5)
Cl6 Cl 0.79889(14) 0.43162(11) 0.21877(5)
Cl7 Cl 0.48213(19) 0.46768(17) 0.33080(8)
Cl8 Cl 0.51462(14) 0.45285(13) 0.20688(6)
Cl9 Cl 0.58921(17) 0.38956(12) 0.09484(6)
Cl10 Cl 0.62963(16) 0.55301(14) 0.00696(6)
N1 N 1.1104(5) 0.3775(4) 0.4344(2)
N2 N 0.6449(5) 0.3034(4) 0.28280(18)
N3 N 1.2281(7) 0.6669(5) 0.3639(3)
N4 N 0.8536(5) 0.7312(4) 0.22378(19)
N5 N 0.4255(5) 0.6550(4) 0.05804(18)
N6 N 0.2406(8) 0.3822(6) 0.1330(3)
O1 O 0.9533(4) 0.4433(3) 0.38315(15)
O2 O 0.7712(4) 0.4142(3) 0.32612(15)
O3 O 0.6883(5) 0.5265(5) 0.3927(2)
H1 H 0.6375 0.5068 0.3758
H2 H 0.6658 0.5727 0.4033
O4 O 1.1795(6) 0.5694(6) 0.4095(3)
O5 O 0.7235(4) 0.6174(3) 0.18349(14)
O6 O 0.5565(4) 0.5868(3) 0.11905(15)
O7 O 0.8124(5) 0.5069(4) 0.11646(18)
H3 H 0.8663 0.5239 0.1326
H4 H 0.8365 0.4747 0.0974
O8 O 0.3231(5) 0.4800(5) 0.0940(2)
C2 C 1.1980(7) 0.3489(6) 0.4583(3)
H7 H 1.2302 0.3843 0.4795
C3 C 1.2414(7) 0.2687(6) 0.4524(3)
H8 H 1.3013 0.2502 0.4697
C4 C 1.1958(6) 0.2173(5) 0.4211(3)
H9 H 1.2244 0.1633 0.4166
C5 C 1.1056(6) 0.2460(5) 0.3958(2)
H10 H 1.0737 0.2114 0.3742
C6 C 1.0643(6) 0.3260(5) 0.4031(2)
C7 C 0.9667(6) 0.3646(5) 0.3783(2)
C8 C 0.8980(6) 0.3108(5) 0.3526(2)
H11 H 0.9171 0.2534 0.3508
C9 C 0.8025(6) 0.3378(5) 0.3296(2)
C10 C 0.7292(6) 0.2715(5) 0.3078(2)
C11 C 0.7428(7) 0.1849(5) 0.3130(3)
H12 H 0.7997 0.1631 0.3308
C12 C 0.6700(7) 0.1311(6) 0.2912(3)
H13 H 0.6799 0.0723 0.2935
C13 C 0.5836(7) 0.1622(5) 0.2662(3)
H14 H 0.5329 0.1261 0.2522
C14 C 0.5758(7) 0.2483(5) 0.2630(3)
H15 H 0.5182 0.2707 0.2458
C15 C 1.2185(8) 0.5935(7) 0.3779(3)
H16 H 1.2460 0.5505 0.3611
C16 C 1.2769(11) 0.6957(9) 0.3263(4)
H17 H 1.3484 0.7169 0.3341
H18 H 1.2337 0.7407 0.3129
H19 H 1.2813 0.6490 0.3065
C17 C 1.1735(11) 0.7356(8) 0.3841(4)
H20 H 1.1725 0.7853 0.3660
H21 H 1.2111 0.7487 0.4113
H22 H 1.1005 0.7188 0.3885
C18 C 0.9241(7) 0.7854(5) 0.2416(3)
H23 H 0.9837 0.7635 0.2578
C19 C 0.9150(7) 0.8719(6) 0.2377(3)
H24 H 0.9669 0.9082 0.2508
C20 C 0.8267(7) 0.9036(6) 0.2137(3)
H25 H 0.8173 0.9623 0.2104
C21 C 0.7515(7) 0.8471(5) 0.1946(3)
H26 H 0.6909 0.8677 0.1784
C22 C 0.7669(6) 0.7616(5) 0.1995(2)
C23 C 0.6949(6) 0.6941(5) 0.1775(2)
C24 C 0.6042(6) 0.7202(5) 0.1503(2)
H27 H 0.5837 0.7774 0.1513
C25 C 0.5434(6) 0.6664(5) 0.1223(2)
C26 C 0.4586(6) 0.7056(5) 0.0912(2)
C27 C 0.4179(6) 0.7871(5) 0.0957(3)
H28 H 0.4417 0.8206 0.1191
C28 C 0.3412(7) 0.8189(6) 0.0652(3)
H29 H 0.3107 0.8727 0.0682
C29 C 0.3115(7) 0.7676(6) 0.0299(3)
H30 H 0.2624 0.7875 0.0082
C30 C 0.3552(7) 0.6872(6) 0.0274(3)
H31 H 0.3354 0.6537 0.0035
C31 C 0.3161(8) 0.4267(7) 0.1217(3)
H32 H 0.3811 0.4171 0.1378
C32 C 0.1369(11) 0.3889(9) 0.1086(4)
H33 H 0.1095 0.4460 0.1108
H34 H 0.0867 0.3493 0.1197
H35 H 0.1459 0.3759 0.0789
C33 C 0.2423(11) 0.3161(9) 0.1674(4)
H36 H 0.3092 0.2848 0.1678
H37 H 0.1826 0.2775 0.1618
H38 H 0.2362 0.3433 0.1947
Cd1B Cd 0.96267(4) 0.48644(3) 0.556589(16)
Cd6B Cd 0.52344(4) 0.48786(3) -0.058212(16)
Cl1B Cl 1.12527(17) 0.55507(14) 0.51496(6)
Cl10B Cl 0.37037(16) 0.44699(14) -0.00696(6)
N7 N 0.0787(7) 0.6260(6) 0.0109(3)
C1 C 0.1216(8) 0.5768(7) -0.0178(3)
H5 H 0.1617 0.5289 -0.0089
C34 C 0.0968(9) 0.6087(8) 0.0563(4)
H39 H 0.1240 0.6593 0.0708
H40 H 0.1488 0.5633 0.0606
H41 H 0.0298 0.5920 0.0676
C35 C 0.0154(9) 0.7000(8) -0.0019(4)
H42 H 0.0303 0.7160 -0.0306
H43 H 0.0341 0.7464 0.0174
H44 H -0.0602 0.6870 -0.0010
O10 O 0.1092(7) 0.5938(6) -0.0564(3)
O9 O 0.587(2) 0.684(2) 0.4261(11)
H6 H 0.5300 0.6947 0.4120
C36 C 0.5713(15) 0.6076(12) 0.4552(6)
H45 H 0.5360 0.6258 0.4801
H46 H 0.6406 0.5833 0.4640
H47 H 0.5274 0.5655 0.4399
loop_
_geom_bond_atom_site_label_1
_geom_bond_atom_site_label_2
_geom_bond_site_symmetry_1
_geom_bond_site_symmetry_2
Cd1 Cl1 1_555 1_555
Cd2 Cl2 1_555 1_555
Cd3 Cl3 1_555 1_555
Cd4 Cl5 1_555 1_555
Cd5 Cl6 1_555 1_555
Cd6 Cl9 1_555 1_555
Cl1 Cd1B 1_555 1_555
Cl2 Cd1 1_555 1_555
Cl3 Cd2 1_555 1_555
Cl4 Cd3 1_555 1_555
Cl5 Cd2 1_555 1_555
Cl6 Cd3 1_555 1_555
Cl7 Cd4 1_555 1_555
Cl8 Cd4 1_555 1_555
Cl9 Cd5 1_555 1_555
Cl10 Cd6 1_555 1_555
N1 Cd1 1_555 1_555
N2 Cd4 1_555 1_555
N3 C15 1_555 1_555
N4 Cd3 1_555 1_555
N5 Cd6 1_555 1_555
N6 C31 1_555 1_555
N7 C1 1_555 1_555
O1 Cd1 1_555 1_555
O2 Cd2 1_555 1_555
O3 Cd2 1_555 1_555
H1 O3 1_555 1_555
H2 O3 1_555 1_555
O4 Cd1 1_555 1_555
O5 Cd3 1_555 1_555
O6 Cd5 1_555 1_555
O7 Cd5 1_555 1_555
H3 O7 1_555 1_555
H4 O7 1_555 1_555
O8 Cd6 1_555 1_555
C1 H5 1_555 1_555
O9 H6 1_555 1_555
C2 N1 1_555 1_555
H7 C2 1_555 1_555
C3 C2 1_555 1_555
H8 C3 1_555 1_555
C4 C3 1_555 1_555
H9 C4 1_555 1_555
C5 C4 1_555 1_555
H10 C5 1_555 1_555
C6 N1 1_555 1_555
C7 O1 1_555 1_555
C8 C7 1_555 1_555
H11 C8 1_555 1_555
C9 O2 1_555 1_555
C10 N2 1_555 1_555
C11 C10 1_555 1_555
H12 C11 1_555 1_555
C12 C11 1_555 1_555
H13 C12 1_555 1_555
C13 C12 1_555 1_555
H14 C13 1_555 1_555
C14 N2 1_555 1_555
H15 C14 1_555 1_555
C15 O4 1_555 1_555
H16 C15 1_555 1_555
C16 N3 1_555 1_555
H17 C16 1_555 1_555
H18 C16 1_555 1_555
H19 C16 1_555 1_555
C17 N3 1_555 1_555
H20 C17 1_555 1_555
H21 C17 1_555 1_555
H22 C17 1_555 1_555
C18 N4 1_555 1_555
H23 C18 1_555 1_555
C19 C18 1_555 1_555
H24 C19 1_555 1_555
C20 C19 1_555 1_555
H25 C20 1_555 1_555
C21 C20 1_555 1_555
H26 C21 1_555 1_555
C22 N4 1_555 1_555
C23 O5 1_555 1_555
C24 C23 1_555 1_555
H27 C24 1_555 1_555
C25 O6 1_555 1_555
C26 N5 1_555 1_555
C27 C26 1_555 1_555
H28 C27 1_555 1_555
C28 C27 1_555 1_555
H29 C28 1_555 1_555
C29 C28 1_555 1_555
H30 C29 1_555 1_555
C30 N5 1_555 1_555
H31 C30 1_555 1_555
C31 O8 1_555 1_555
H32 C31 1_555 1_555
C32 N6 1_555 1_555
H33 C32 1_555 1_555
H34 C32 1_555 1_555
H35 C32 1_555 1_555
C33 N6 1_555 1_555
H36 C33 1_555 1_555
H37 C33 1_555 1_555
H38 C33 1_555 1_555
C34 N7 1_555 1_555
H39 C34 1_555 1_555
H40 C34 1_555 1_555
H41 C34 1_555 1_555
C35 N7 1_555 1_555
H42 C35 1_555 1_555
H43 C35 1_555 1_555
H44 C35 1_555 1_555
O10 C1 1_555 1_555
C36 O9 1_555 1_555
H45 C36 1_555 1_555
H46 C36 1_555 1_555
H47 C36 1_555 1_555
Cd1B Cl1B 1_555 1_555
Cd6B Cl10 1_555 1_555
Cl1B Cd1 1_555 1_555
Cl10B Cd6 1_555 1_555
Cd2 O1 1_555 1_555
Cd3 Cl5 1_555 1_555
Cd4 Cl6 1_555 1_555
Cd4 O2 1_555 1_555
Cd5 Cl8 1_555 1_555
Cd5 O5 1_555 1_555
Cd6 O6 1_555 1_555
C5 C6 1_555 1_555
C6 C7 1_555 1_555
C8 C9 1_555 1_555
C9 C10 1_555 1_555
C13 C14 1_555 1_555
C21 C22 1_555 1_555
C22 C23 1_555 1_555
C24 C25 1_555 1_555
C25 C26 1_555 1_555
C29 C30 1_555 1_555
Cd6B Cl10B 1_555 1_555

#END
