
#######################################################################
#
#                 Cambridge Crystallographic Data Centre
#                                CCDC 
#
#######################################################################
#
# If this CIF has been generated from an entry in the Cambridge 
# Structural Database, then it will include bibliographic, chemical, 
# crystal, experimental, refinement or atomic coordinate data resulting 
# from the CCDC's data processing and validation procedures.
#
#######################################################################

data_KARPIC
_symmetry_cell_setting           tetragonal
_symmetry_space_group_name_H-M   'I 41/a'
_symmetry_Int_Tables_number      88
_space_group_name_Hall           '-I 4ad'
loop_
_symmetry_equiv_pos_site_id
_symmetry_equiv_pos_as_xyz
1 x,y,z
2 1/2+x,1/2+y,1/2+z
3 3/4-y,1/4+x,1/4+z
4 1/4-y,3/4+x,3/4+z
5 1/2-x,-y,1/2+z
6 -x,1/2-y,z
7 3/4+y,3/4-x,3/4+z
8 1/4+y,1/4-x,1/4+z
9 -x,-y,-z
10 1/2-x,1/2-y,1/2-z
11 1/4+y,3/4-x,3/4-z
12 3/4+y,1/4-x,1/4-z
13 1/2+x,y,1/2-z
14 x,1/2+y,-z
15 1/4-y,1/4+x,1/4-z
16 3/4-y,3/4+x,3/4-z
_cell_length_a                   22.442(11)
_cell_length_b                   22.442(11)
_cell_length_c                   3.839(1)
_cell_angle_alpha                90
_cell_angle_beta                 90
_cell_angle_gamma                90
_cell_volume                     1933.49
loop_
_atom_site_label
_atom_site_type_symbol
_atom_site_fract_x
_atom_site_fract_y
_atom_site_fract_z
Cu1 Cu 0.0000 0.2500 0.125
N1 N 0.0751(2) 0.2258(2) -0.1102(16)
N2 N 0.1693(2) 0.1881(2) -0.3549(15)
C1 C 0.2070(2) 0.2205(2) -0.5464(15)
C2 C 0.1979(2) 0.2804(2) -0.6467(18)
C3 C 0.2608(2) 0.1905(2) -0.6613(17)
C4 C 0.1195(3) 0.2119(3) -0.2353(16)
C5 C 0.3155(3) 0.1002(3) -0.6776(19)
O1 O 0.2653(2) 0.1333(2) -0.5543(13)
H1 H 0.164(3) 0.303(3) -0.559(18)
H2 H 0.309(3) 0.061(3) -0.580(19)
H3 H 0.351(3) 0.118(3) -0.561(18)
H4 H 0.318(3) 0.096(3) -0.925(18)
C3I C 0.2392(2) 0.3095(2) -0.8387(17)
C1I C 0.2930(2) 0.2795(2) -0.9536(15)
N2I N 0.3307(2) 0.3119(2) -1.1451(15)
C4I C 0.3805(3) 0.2881(3) -1.2647(16)
N1I N 0.4249(2) 0.2742(2) -1.3898(16)
C2I C 0.3021(2) 0.2196(2) -0.8533(18)
H1I H 0.336(3) 0.197(3) -0.941(18)
O1I O 0.2347(2) 0.3667(2) -0.9457(13)
C5I C 0.1845(3) 0.3998(3) -0.8224(19)
H2I H 0.191(3) 0.439(3) -0.920(19)
H3I H 0.149(3) 0.382(3) -0.939(18)
H4I H 0.182(3) 0.404(3) -0.575(18)
N1E N -0.0751(2) 0.2742(2) -0.1102(16)
N2E N -0.1693(2) 0.3119(2) -0.3549(15)
C1E C -0.2070(2) 0.2795(2) -0.5464(15)
C2E C -0.1979(2) 0.2196(2) -0.6467(18)
C3E C -0.2608(2) 0.3095(2) -0.6613(17)
C4E C -0.1195(3) 0.2881(3) -0.2353(16)
C5E C -0.3155(3) 0.3998(3) -0.6776(19)
O1E O -0.2653(2) 0.3667(2) -0.5543(13)
H1E H -0.164(3) 0.197(3) -0.559(18)
H2E H -0.309(3) 0.439(3) -0.580(19)
H3E H -0.351(3) 0.382(3) -0.561(18)
H4E H -0.318(3) 0.404(3) -0.925(18)
C3L C -0.2392(2) 0.1905(2) -0.8387(17)
C1L C -0.2930(2) 0.2205(2) -0.9536(15)
N2L N -0.3307(2) 0.1881(2) -1.1451(15)
C4L C -0.3805(3) 0.2119(3) -1.2647(16)
N1L N -0.4249(2) 0.2258(2) -1.3898(16)
C2L C -0.3021(2) 0.2804(2) -0.8533(18)
H1L H -0.336(3) 0.303(3) -0.941(18)
O1L O -0.2347(2) 0.1333(2) -0.9457(13)
C5L C -0.1845(3) 0.1002(3) -0.8224(19)
H2L H -0.191(3) 0.061(3) -0.920(19)
H3L H -0.149(3) 0.118(3) -0.939(18)
H4L H -0.182(3) 0.096(3) -0.575(18)
N1K N -0.0242(2) 0.1749(2) 0.3602(16)
N1N N 0.0242(2) 0.3251(2) 0.3602(16)
Cu1I Cu 0.5000 0.2500 -1.625
Cu1L Cu -0.5000 0.2500 -1.625
loop_
_geom_bond_atom_site_label_1
_geom_bond_atom_site_label_2
_geom_bond_site_symmetry_1
_geom_bond_site_symmetry_2
Cu1 N1 1_555 1_555
N1 C4 1_555 1_555
N2 C1 1_555 1_555
C1 C2 1_555 1_555
C2 H1 1_555 1_555
C3 C1 1_555 1_555
C4 N2 1_555 1_555
C5 O1 1_555 1_555
O1 C3 1_555 1_555
H2 C5 1_555 1_555
H3 C5 1_555 1_555
H4 C5 1_555 1_555
C3I C2 1_555 1_555
C1I C3I 1_555 1_555
N2I C1I 1_555 1_555
C4I N2I 1_555 1_555
N1I C4I 1_555 1_555
C2I C3 1_555 1_555
H1I C2I 1_555 1_555
O1I C3I 1_555 1_555
C5I O1I 1_555 1_555
H2I C5I 1_555 1_555
H3I C5I 1_555 1_555
H4I C5I 1_555 1_555
N1E Cu1 1_555 1_555
N2E C1E 1_555 1_555
C1E C2E 1_555 1_555
C2E H1E 1_555 1_555
C3E C1E 1_555 1_555
C4E N1E 1_555 1_555
C5E O1E 1_555 1_555
O1E C3E 1_555 1_555
H2E C5E 1_555 1_555
H3E C5E 1_555 1_555
H4E C5E 1_555 1_555
C3L C2E 1_555 1_555
C1L C3L 1_555 1_555
N2L C1L 1_555 1_555
C4L N2L 1_555 1_555
N1L C4L 1_555 1_555
C2L C3E 1_555 1_555
H1L C2L 1_555 1_555
O1L C3L 1_555 1_555
C5L O1L 1_555 1_555
H2L C5L 1_555 1_555
H3L C5L 1_555 1_555
H4L C5L 1_555 1_555
N1K Cu1 1_555 1_555
N1N Cu1 1_555 1_555
Cu1I N1I 1_555 1_555
Cu1L N1L 1_555 1_555
C1I C2I 1_555 1_555
N2E C4E 1_555 1_555
C1L C2L 1_555 1_555

#END
