
#######################################################################
#
#                 Cambridge Crystallographic Data Centre
#                                CCDC 
#
#######################################################################
#
# If this CIF has been generated from an entry in the Cambridge 
# Structural Database, then it will include bibliographic, chemical, 
# crystal, experimental, refinement or atomic coordinate data resulting 
# from the CCDC's data processing and validation procedures.
#
#######################################################################

data_KARRIE
_symmetry_cell_setting           tetragonal
_symmetry_space_group_name_H-M   'I 41/a'
_symmetry_Int_Tables_number      88
_space_group_name_Hall           '-I 4ad'
loop_
_symmetry_equiv_pos_site_id
_symmetry_equiv_pos_as_xyz
1 x,y,z
2 1/2+x,1/2+y,1/2+z
3 3/4-y,1/4+x,1/4+z
4 1/4-y,3/4+x,3/4+z
5 1/2-x,-y,1/2+z
6 -x,1/2-y,z
7 3/4+y,3/4-x,3/4+z
8 1/4+y,1/4-x,1/4+z
9 -x,-y,-z
10 1/2-x,1/2-y,1/2-z
11 1/4+y,3/4-x,3/4-z
12 3/4+y,1/4-x,1/4-z
13 1/2+x,y,1/2-z
14 x,1/2+y,-z
15 1/4-y,1/4+x,1/4-z
16 3/4-y,3/4+x,3/4-z
_cell_length_a                   21.55(2)
_cell_length_b                   21.55(2)
_cell_length_c                   3.816(1)
_cell_angle_alpha                90
_cell_angle_beta                 90
_cell_angle_gamma                90
_cell_volume                     1772.16
loop_
_atom_site_label
_atom_site_type_symbol
_atom_site_fract_x
_atom_site_fract_y
_atom_site_fract_z
Cu1 Cu 0.0000 0.2500 0.125
N1 N 0.0729(2) 0.2126(2) -0.1053(15)
N2 N 0.1731(2) 0.1789(2) -0.3366(14)
C1 C 0.2089(2) 0.2140(3) -0.5399(15)
C2 C 0.1939(2) 0.2764(3) -0.6386(15)
C3 C 0.2671(2) 0.1893(2) -0.6639(14)
C4 C 0.1204(2) 0.2002(2) -0.2227(16)
Cl1 Cl 0.2686(1) 0.1138(1) -0.5493(4)
H1 H 0.153(3) 0.291(3) -0.578(21)
C3I C 0.2329(2) 0.3107(2) -0.8361(14)
C1I C 0.2911(2) 0.2860(3) -0.9601(15)
N2I N 0.3269(2) 0.3211(2) -1.1634(14)
C4I C 0.3796(2) 0.2998(2) -1.2773(16)
N1I N 0.4271(2) 0.2874(2) -1.3947(15)
C2I C 0.3061(2) 0.2236(3) -0.8614(15)
H1I H 0.347(3) 0.209(3) -0.922(21)
Cl1I Cl 0.2314(1) 0.3862(1) -0.9507(4)
N1E N -0.0729(2) 0.2874(2) -0.1053(15)
N2E N -0.1731(2) 0.3211(2) -0.3366(14)
C1E C -0.2089(2) 0.2860(3) -0.5399(15)
C2E C -0.1939(2) 0.2236(3) -0.6386(15)
C3E C -0.2671(2) 0.3107(2) -0.6639(14)
C4E C -0.1204(2) 0.2998(2) -0.2227(16)
Cl1E Cl -0.2686(1) 0.3862(1) -0.5493(4)
H1E H -0.153(3) 0.209(3) -0.578(21)
C3L C -0.2329(2) 0.1893(2) -0.8361(14)
C1L C -0.2911(2) 0.2140(3) -0.9601(15)
N2L N -0.3269(2) 0.1789(2) -1.1634(14)
C4L C -0.3796(2) 0.2002(2) -1.2773(16)
N1L N -0.4271(2) 0.2126(2) -1.3947(15)
C2L C -0.3061(2) 0.2764(3) -0.8614(15)
H1L H -0.347(3) 0.291(3) -0.922(21)
Cl1L Cl -0.2314(1) 0.1138(1) -0.9507(4)
N1K N -0.0374(2) 0.1771(2) 0.3553(15)
N1N N 0.0374(2) 0.3229(2) 0.3553(15)
Cu1I Cu 0.5000 0.2500 -1.625
Cu1L Cu -0.5000 0.2500 -1.625
loop_
_geom_bond_atom_site_label_1
_geom_bond_atom_site_label_2
_geom_bond_site_symmetry_1
_geom_bond_site_symmetry_2
Cu1 N1 1_555 1_555
N1 C4 1_555 1_555
N2 C1 1_555 1_555
C1 C2 1_555 1_555
C2 H1 1_555 1_555
C3 C1 1_555 1_555
C4 N2 1_555 1_555
Cl1 C3 1_555 1_555
C3I C2 1_555 1_555
C1I C3I 1_555 1_555
N2I C1I 1_555 1_555
C4I N2I 1_555 1_555
N1I C4I 1_555 1_555
C2I C3 1_555 1_555
H1I C2I 1_555 1_555
Cl1I C3I 1_555 1_555
N1E Cu1 1_555 1_555
N2E C1E 1_555 1_555
C1E C2E 1_555 1_555
C2E H1E 1_555 1_555
C3E C1E 1_555 1_555
C4E N1E 1_555 1_555
Cl1E C3E 1_555 1_555
C3L C2E 1_555 1_555
C1L C3L 1_555 1_555
N2L C1L 1_555 1_555
C4L N2L 1_555 1_555
N1L C4L 1_555 1_555
C2L C3E 1_555 1_555
H1L C2L 1_555 1_555
Cl1L C3L 1_555 1_555
N1K Cu1 1_555 1_555
N1N Cu1 1_555 1_555
Cu1I N1I 1_555 1_555
Cu1L N1L 1_555 1_555
C1I C2I 1_555 1_555
N2E C4E 1_555 1_555
C1L C2L 1_555 1_555

#END
