
#######################################################################
#
#                 Cambridge Crystallographic Data Centre
#                                CCDC 
#
#######################################################################
#
# If this CIF has been generated from an entry in the Cambridge 
# Structural Database, then it will include bibliographic, chemical, 
# crystal, experimental, refinement or atomic coordinate data resulting 
# from the CCDC's data processing and validation procedures.
#
#######################################################################

data_KARRIF
_symmetry_cell_setting           monoclinic
_symmetry_space_group_name_H-M   'P 21'
_symmetry_Int_Tables_number      4
_space_group_name_Hall           'P 2yb'
loop_
_symmetry_equiv_pos_site_id
_symmetry_equiv_pos_as_xyz
1 x,y,z
2 -x,1/2+y,-z
_cell_length_a                   6.293(1)
_cell_length_b                   7.487(1)
_cell_length_c                   10.717(1)
_cell_angle_alpha                90
_cell_angle_beta                 98.28(1)
_cell_angle_gamma                90
_cell_volume                     499.675
loop_
_atom_site_label
_atom_site_type_symbol
_atom_site_fract_x
_atom_site_fract_y
_atom_site_fract_z
Ag1 Ag 0.93270(16) 0.99661(12) 0.51990(8)
S1 S 1.1618(5) 1.2462(4) 0.6157(2)
C1 C 1.0363(16) 1.2920(13) 0.7413(9)
N1 N 0.8370(15) 1.2321(15) 0.7551(8)
N2 N 0.7170(16) 1.1455(15) 0.6527(10)
H1 H 0.625(16) 1.088(12) 0.672(9)
H2 H 0.66(2) 1.235(13) 0.635(10)
C2 C 0.7472(18) 1.2545(15) 0.8661(8)
O1 O 0.5729(11) 1.1923(10) 0.8776(6)
C3 C 0.8792(18) 1.3563(16) 0.9654(8)
C4 C 0.796(2) 1.395(2) 1.0826(11)
H3 H 0.858(16) 1.435(14) 1.152(9)
H4 H 0.750(18) 1.284(17) 1.122(8)
H5 H 0.674(17) 1.439(14) 1.078(8)
N3 N 1.0658(15) 1.4157(12) 0.9507(7)
N4 N 1.1383(14) 1.3793(13) 0.8396(8)
H6 H 1.262(17) 1.418(14) 0.830(9)
Ag1A Ag 1.06730(16) 1.49661(12) 0.48010(8)
S1A S 0.8382(5) 0.7462(4) 0.3843(2)
Cl1 Cl 1.5877(4) 1.6631(4) 0.6888(2)
O2 O 1.7958(17) 1.7406(18) 0.7221(8)
O3 O 1.4327(16) 1.7986(11) 0.6478(7)
O4 O 1.5970(13) 1.5381(11) 0.5891(6)
O5 O 1.5310(12) 1.5730(10) 0.7990(6)
loop_
_geom_bond_atom_site_label_1
_geom_bond_atom_site_label_2
_geom_bond_site_symmetry_1
_geom_bond_site_symmetry_2
Ag1 S1 1_555 1_555
S1 C1 1_555 1_555
C1 N1 1_555 1_555
N1 N2 1_555 1_555
N2 Ag1 1_555 1_555
H1 N2 1_555 1_555
H2 N2 1_555 1_555
C2 N1 1_555 1_555
O1 C2 1_555 1_555
C3 C2 1_555 1_555
C4 C3 1_555 1_555
H3 C4 1_555 1_555
H4 C4 1_555 1_555
H5 C4 1_555 1_555
N3 C3 1_555 1_555
N4 C1 1_555 1_555
H6 N4 1_555 1_555
Cl1 O2 1_555 1_555
O3 Cl1 1_555 1_555
O4 Cl1 1_555 1_555
O5 Cl1 1_555 1_555
Ag1A S1 1_555 1_555
S1A Ag1 1_555 1_555
N3 N4 1_555 1_555

#END
