
#######################################################################
#
#                 Cambridge Crystallographic Data Centre
#                                CCDC 
#
#######################################################################
#
# If this CIF has been generated from an entry in the Cambridge 
# Structural Database, then it will include bibliographic, chemical, 
# crystal, experimental, refinement or atomic coordinate data resulting 
# from the CCDC's data processing and validation procedures.
#
#######################################################################

data_KARREA01
_symmetry_cell_setting           tetragonal
_symmetry_space_group_name_H-M   'I 41/a'
_symmetry_Int_Tables_number      88
_space_group_name_Hall           '-I 4ad'
loop_
_symmetry_equiv_pos_site_id
_symmetry_equiv_pos_as_xyz
1 x,y,z
2 1/2+x,1/2+y,1/2+z
3 3/4-y,1/4+x,1/4+z
4 1/4-y,3/4+x,3/4+z
5 1/2-x,-y,1/2+z
6 -x,1/2-y,z
7 3/4+y,3/4-x,3/4+z
8 1/4+y,1/4-x,1/4+z
9 -x,-y,-z
10 1/2-x,1/2-y,1/2-z
11 1/4+y,3/4-x,3/4-z
12 3/4+y,1/4-x,1/4-z
13 1/2+x,y,1/2-z
14 x,1/2+y,-z
15 1/4-y,1/4+x,1/4-z
16 3/4-y,3/4+x,3/4-z
_cell_length_a                   21.683(12)
_cell_length_b                   21.683(12)
_cell_length_c                   3.783(1)
_cell_angle_alpha                90
_cell_angle_beta                 90
_cell_angle_gamma                90
_cell_volume                     1778.59
loop_
_atom_site_label
_atom_site_type_symbol
_atom_site_fract_x
_atom_site_fract_y
_atom_site_fract_z
Cu1 Cu 0.0000 0.2500 0.125
N1 N 0.0720(3) 0.2118(3) -0.0974(20)
N2 N 0.1742(3) 0.1787(3) -0.3269(17)
C1 C 0.2096(3) 0.2138(3) -0.5319(19)
C2 C 0.1938(3) 0.2768(3) -0.6397(17)
C3 C 0.2674(3) 0.1891(3) -0.6578(18)
C4 C 0.1204(3) 0.1998(3) -0.2110(20)
Br1 Br 0.2890 0.1109 -0.5364(3)
N1E N -0.0720(3) 0.2882(3) -0.0974(20)
N1K N -0.0382(3) 0.1780(3) 0.3474(20)
N1N N 0.0382(3) 0.3220(3) 0.3474(20)
C3I C 0.2326(3) 0.3109(3) -0.8422(18)
C2I C 0.3062(3) 0.2232(3) -0.8603(17)
loop_
_geom_bond_atom_site_label_1
_geom_bond_atom_site_label_2
_geom_bond_site_symmetry_1
_geom_bond_site_symmetry_2
Cu1 N1 1_555 1_555
N1 C4 1_555 1_555
N2 C1 1_555 1_555
C1 C2 1_555 1_555
C2 C3I 1_555 1_555
C3 C1 1_555 1_555
C4 N2 1_555 1_555
Br1 C3 1_555 1_555
N1E Cu1 1_555 1_555
N1K Cu1 1_555 1_555
N1N Cu1 1_555 1_555
C2I C3 1_555 1_555

#END
