
#######################################################################
#
#                 Cambridge Crystallographic Data Centre
#                                CCDC 
#
#######################################################################
#
# If this CIF has been generated from an entry in the Cambridge 
# Structural Database, then it will include bibliographic, chemical, 
# crystal, experimental, refinement or atomic coordinate data resulting 
# from the CCDC's data processing and validation procedures.
#
#######################################################################

data_KARROL
_symmetry_cell_setting           triclinic
_symmetry_space_group_name_H-M   'P -1'
_symmetry_Int_Tables_number      2
_space_group_name_Hall           '-P 1'
loop_
_symmetry_equiv_pos_site_id
_symmetry_equiv_pos_as_xyz
1 x,y,z
2 -x,-y,-z
_cell_length_a                   8.0233(8)
_cell_length_b                   8.8273(9)
_cell_length_c                   9.4835(9)
_cell_angle_alpha                116.212(7)
_cell_angle_beta                 106.550(8)
_cell_angle_gamma                97.442(8)
_cell_volume                     551.579
loop_
_atom_site_label
_atom_site_type_symbol
_atom_site_fract_x
_atom_site_fract_y
_atom_site_fract_z
C1 C 0.3847(7) -0.0622(5) 0.2607(6)
H1 H 0.4156 -0.1474 0.1795
C2 C 0.2486(7) -0.1159(6) 0.3053(6)
H2 H 0.1925 -0.2358 0.2571
C3 C 0.1950(6) 0.0076(5) 0.4214(6)
C4 C 0.2892(7) 0.1841(6) 0.4919(6)
H3 H 0.2593 0.2723 0.5714
C5 C 0.4256(7) 0.2287(5) 0.4449(6)
H4 H 0.4873 0.3477 0.4950
C6 C 0.0441(7) -0.0512(6) 0.4615(6)
C7 C 0.4124(7) 0.3121(6) 0.0796(6)
C8 C 0.2727(11) 0.3798(12) 0.0019(11)
H5 H 0.1976 0.2888 -0.1129
H6 H 0.3328 0.4810 0.0015
H7 H 0.1983 0.4130 0.0673
C9 C 1.0533(7) 0.4110(6) 0.3174(7)
N1 N 0.4739(5) 0.1089(5) 0.3305(5)
N2 N 1.1424(8) 0.5550(6) 0.4136(7)
O1 O 0.5253(7) 0.4094(5) 0.2288(5)
O2 O 0.4108(6) 0.1564(5) -0.0073(5)
S1 S 0.93427(19) 0.20074(17) 0.17464(18)
Hg1 Hg 0.67292(2) 0.18941(2) 0.24434(2)
H8 H 0.006(8) -0.167(8) 0.429(8)
C1A C -0.3847(7) 0.0622(5) 0.7393(6)
H1A H -0.4156 0.1474 0.8205
C2A C -0.2486(7) 0.1159(6) 0.6947(6)
H2A H -0.1925 0.2358 0.7429
C3A C -0.1950(6) -0.0076(5) 0.5786(6)
C4A C -0.2892(7) -0.1841(6) 0.5081(6)
H3A H -0.2593 -0.2723 0.4286
C5A C -0.4256(7) -0.2287(5) 0.5551(6)
H4A H -0.4873 -0.3477 0.5050
C6A C -0.0441(7) 0.0512(6) 0.5385(6)
C7A C 0.5876(7) -0.3121(6) -0.0796(6)
C8A C 0.7273(11) -0.3798(12) -0.0019(11)
H5A H 0.8024 -0.2888 0.1129
H6A H 0.6672 -0.4810 -0.0015
H7A H 0.8017 -0.4130 -0.0673
C9A C -1.0533(7) -0.4110(6) 0.6826(7)
N1A N -0.4739(5) -0.1089(5) 0.6695(5)
N2A N -1.1424(8) -0.5550(6) 0.5864(7)
O1A O 0.4747(7) -0.4094(5) -0.2288(5)
O1A_2 O -0.5253(7) -0.4094(5) 0.7712(5)
O2A O 0.5892(6) -0.1564(5) 0.0073(5)
O2_2 O -0.5892(6) 0.1564(5) 0.9927(5)
O2A_2 O -0.4108(6) -0.1564(5) 1.0073(5)
S1A S -0.93427(19) -0.20074(17) 0.82536(18)
Hg1A Hg -0.67292(2) -0.18941(2) 0.75566(2)
Hg1A_2 Hg 0.32708(2) -0.18941(2) -0.24434(2)
H8A H -0.006(8) 0.167(8) 0.571(8)
loop_
_geom_bond_atom_site_label_1
_geom_bond_atom_site_label_2
_geom_bond_site_symmetry_1
_geom_bond_site_symmetry_2
C1 H1 1_555 1_555
C2 C1 1_555 1_555
H2 C2 1_555 1_555
C3 C2 1_555 1_555
C4 C3 1_555 1_555
H3 C4 1_555 1_555
C5 C4 1_555 1_555
H4 C5 1_555 1_555
C6 C3 1_555 1_555
C7 C8 1_555 1_555
C8 H5 1_555 1_555
H6 C8 1_555 1_555
H7 C8 1_555 1_555
C9 N2 1_555 1_555
N1 C1 1_555 1_555
O1 C7 1_555 1_555
O2 C7 1_555 1_555
S1 C9 1_555 1_555
Hg1 N1 1_555 1_555
H8 C6 1_555 1_555
C1A H1A 1_555 1_555
C2A C1A 1_555 1_555
H2A C2A 1_555 1_555
C3A C2A 1_555 1_555
C4A C3A 1_555 1_555
H3A C4A 1_555 1_555
C5A C4A 1_555 1_555
H4A C5A 1_555 1_555
C6A C6 1_555 1_555
C7A C8A 1_555 1_555
C8A H5A 1_555 1_555
H6A C8A 1_555 1_555
H7A C8A 1_555 1_555
C9A N2A 1_555 1_555
N1A C1A 1_555 1_555
O1A C7A 1_555 1_555
O1A_2 Hg1A 1_555 1_555
O2A Hg1 1_555 1_555
O2_2 Hg1A 1_555 1_555
O2A_2 Hg1A 1_555 1_555
S1A C9A 1_555 1_555
Hg1A N1A 1_555 1_555
Hg1A_2 O2 1_555 1_555
H8A C6A 1_555 1_555
C5 N1 1_555 1_555
O1 Hg1 1_555 1_555
O2 Hg1 1_555 1_555
S1 Hg1 1_555 1_555
C3A C6A 1_555 1_555
C5A N1A 1_555 1_555
C7A O2A 1_555 1_555
O1A Hg1A_2 1_555 1_555
O2A Hg1A_2 1_555 1_555
S1A Hg1A 1_555 1_555

#END
