
#######################################################################
#
#                 Cambridge Crystallographic Data Centre
#                                CCDC 
#
#######################################################################
#
# If this CIF has been generated from an entry in the Cambridge 
# Structural Database, then it will include bibliographic, chemical, 
# crystal, experimental, refinement or atomic coordinate data resulting 
# from the CCDC's data processing and validation procedures.
#
#######################################################################

data_KARRAW
_symmetry_cell_setting           tetragonal
_symmetry_space_group_name_H-M   'I 41/a'
_symmetry_Int_Tables_number      88
_space_group_name_Hall           '-I 4ad'
loop_
_symmetry_equiv_pos_site_id
_symmetry_equiv_pos_as_xyz
1 x,y,z
2 1/2+x,1/2+y,1/2+z
3 3/4-y,1/4+x,1/4+z
4 1/4-y,3/4+x,3/4+z
5 1/2-x,-y,1/2+z
6 -x,1/2-y,z
7 3/4+y,3/4-x,3/4+z
8 1/4+y,1/4-x,1/4+z
9 -x,-y,-z
10 1/2-x,1/2-y,1/2-z
11 1/4+y,3/4-x,3/4-z
12 3/4+y,1/4-x,1/4-z
13 1/2+x,y,1/2-z
14 x,1/2+y,-z
15 1/4-y,1/4+x,1/4-z
16 3/4-y,3/4+x,3/4-z
_cell_length_a                   21.558(10)
_cell_length_b                   21.558(10)
_cell_length_c                   3.896(1)
_cell_angle_alpha                90
_cell_angle_beta                 90
_cell_angle_gamma                90
_cell_volume                     1810.66
loop_
_atom_site_label
_atom_site_type_symbol
_atom_site_fract_x
_atom_site_fract_y
_atom_site_fract_z
Cu1 Cu 0.5000 0.2500 -1.625
N1 N 0.0729(3) 0.2140(3) -0.1077(18)
N2 N 0.1734(2) 0.1800(3) -0.3348(17)
C1 C 0.2092(3) 0.2144(3) -0.5365(17)
C2 C 0.1939(3) 0.2765(3) -0.6463(18)
C3 C 0.2670(3) 0.1899(3) -0.6578(18)
C4 C 0.1202(3) 0.2012(3) -0.2256(18)
Br1 Br 0.2899 0.1092 -0.5256(2)
H1 H 0.146(3) 0.294(4) -0.587(22)
C3I C 0.2330(3) 0.3101(3) -0.8422(18)
C1I C 0.2908(3) 0.2856(3) -0.9635(17)
N2I N 0.3266(2) 0.3200(3) -1.1652(17)
C4I C 0.3798(3) 0.2988(3) -1.2744(18)
N1I N 0.4271(3) 0.2860(3) -1.3923(18)
Cu1C Cu 0.0000 0.2500 0.125
N1L N 0.5729(3) 0.2140(3) -1.3923(18)
C4L C 0.6202(3) 0.2012(3) -1.2744(18)
N2L N 0.6734(2) 0.1800(3) -1.1652(17)
C1L C 0.7092(3) 0.2144(3) -0.9635(17)
C2L C 0.6939(3) 0.2765(3) -0.8537(18)
C3E C 0.7330(3) 0.3101(3) -0.6578(18)
C1E C 0.7908(3) 0.2856(3) -0.5365(17)
N2E N 0.8266(2) 0.3200(3) -0.3348(17)
C4E C 0.8798(3) 0.2988(3) -0.2256(18)
N1E N 0.9271(3) 0.2860(3) -0.1077(18)
Cu1C_2 Cu 1.0000 0.2500 0.125
C2E C 0.8061(3) 0.2235(3) -0.6463(18)
Br1E Br 0.7101 0.3908 -0.5256(2)
H1L H 0.646(3) 0.294(4) -0.913(22)
C3L C 0.7670(3) 0.1899(3) -0.8422(18)
N1B N 0.5360(3) 0.3229(3) -1.8577(18)
N1G N 0.4640(3) 0.1771(3) -1.8577(18)
C2I C 0.3061(3) 0.2235(3) -0.8537(18)
Br1I Br 0.2101 0.3908 -0.9744(2)
Br1L Br 0.7899 0.1092 -0.9744(2)
H1E H 0.854(3) 0.206(4) -0.587(22)
H1I H 0.354(3) 0.206(4) -0.913(22)
loop_
_geom_bond_atom_site_label_1
_geom_bond_atom_site_label_2
_geom_bond_site_symmetry_1
_geom_bond_site_symmetry_2
Cu1 N1I 1_555 1_555
N1 C4 1_555 1_555
N2 C1 1_555 1_555
C1 C2 1_555 1_555
C2 H1 1_555 1_555
C3 C1 1_555 1_555
C4 N2 1_555 1_555
Br1 C3 1_555 1_555
C3I C2 1_555 1_555
C1I C3I 1_555 1_555
N2I C1I 1_555 1_555
C4I N2I 1_555 1_555
N1I C4I 1_555 1_555
Cu1C N1 1_555 1_555
N1L Cu1 1_555 1_555
C4L N1L 1_555 1_555
N2L C4L 1_555 1_555
C1L N2L 1_555 1_555
C2L C1L 1_555 1_555
C3E C2L 1_555 1_555
C1E C3E 1_555 1_555
N2E C1E 1_555 1_555
C4E N2E 1_555 1_555
N1E C4E 1_555 1_555
Cu1C_2 N1E 1_555 1_555
C2E C1E 1_555 1_555
Br1E C3E 1_555 1_555
H1L C2L 1_555 1_555
C3L C1L 1_555 1_555
N1B Cu1 1_555 1_555
N1G Cu1 1_555 1_555
C2I C3 1_555 1_555
Br1I C3I 1_555 1_555
Br1L C3L 1_555 1_555
H1E C2E 1_555 1_555
H1I C2I 1_555 1_555
C1I C2I 1_555 1_555
C2E C3L 1_555 1_555

#END
