
#######################################################################
#
#                 Cambridge Crystallographic Data Centre
#                                CCDC 
#
#######################################################################
#
# If this CIF has been generated from an entry in the Cambridge 
# Structural Database, then it will include bibliographic, chemical, 
# crystal, experimental, refinement or atomic coordinate data resulting 
# from the CCDC's data processing and validation procedures.
#
#######################################################################

data_KARSAY
_symmetry_cell_setting           triclinic
_symmetry_space_group_name_H-M   'P -1'
_symmetry_Int_Tables_number      2
_space_group_name_Hall           '-P 1'
loop_
_symmetry_equiv_pos_site_id
_symmetry_equiv_pos_as_xyz
1 x,y,z
2 -x,-y,-z
_cell_length_a                   7.162(2)
_cell_length_b                   9.528(3)
_cell_length_c                   12.791(4)
_cell_angle_alpha                100.688(5)
_cell_angle_beta                 96.778(5)
_cell_angle_gamma                111.848(5)
_cell_volume                     779.184
loop_
_atom_site_label
_atom_site_type_symbol
_atom_site_fract_x
_atom_site_fract_y
_atom_site_fract_z
Ag1 Ag -0.23341(5) 0.55269(4) -0.04724(2)
Zn1 Zn -0.5000 0.0000 0.0000
C1 C -0.2482(5) 0.3316(5) -0.0472(3)
N1 N -0.2824(5) 0.2077(4) -0.0400(2)
C2 C -0.2812(6) -0.2461(5) -0.0450(3)
N2 N -0.3217(5) -0.1407(4) -0.0391(3)
O1 O -0.1794(4) 0.3831(4) 0.5680(2)
O2 O 0.2719(4) 0.1693(4) 0.4653(2)
N3 N -0.3337(4) 0.0829(3) 0.1634(2)
N4 N -0.0372(4) 0.3335(4) 0.5721(2)
N5 N 0.1853(5) 0.2417(4) 0.5217(2)
C3 C -0.4243(5) 0.0997(4) 0.2479(3)
H1 H -0.5658 0.0705 0.2343
C4 C -0.3175(5) 0.1584(4) 0.3541(3)
H2 H -0.3857 0.1692 0.4106
C5 C -0.1072(5) 0.2011(4) 0.3754(3)
C6 C -0.0123(5) 0.1824(4) 0.2876(3)
H3 H 0.1285 0.2088 0.2989
C7 C -0.1302(5) 0.1247(4) 0.1846(3)
H4 H -0.0656 0.1139 0.1265
C8 C 0.0135(5) 0.2594(4) 0.4872(3)
C9 C 0.0861(5) 0.3400(4) 0.6771(3)
C10 C 0.2778(6) 0.3289(4) 0.6387(3)
C11 C 0.1275(6) 0.4886(5) 0.7605(3)
H5 H 0.1881 0.5767 0.7309
H6 H 0.2200 0.4973 0.8244
H7 H 0.0006 0.4864 0.7792
C12 C -0.0450(7) 0.1979(5) 0.7140(3)
H8 H -0.1733 0.2036 0.7231
H9 H 0.0265 0.1964 0.7819
H10 H -0.0705 0.1045 0.6602
C13 C 0.4415(6) 0.4864(5) 0.6371(3)
H11 H 0.5476 0.4701 0.6038
H12 H 0.4998 0.5493 0.7101
H13 H 0.3799 0.5386 0.5962
C14 C 0.3728(7) 0.2387(5) 0.6960(3)
H14 H 0.2721 0.1347 0.6870
H15 H 0.4194 0.2901 0.7720
H16 H 0.4871 0.2342 0.6654
Ag1A Ag -0.76659(5) -0.55269(4) 0.04724(2)
Ag1_2 Ag -0.23341(5) -0.44731(4) -0.04724(2)
Ag1A_2 Ag -0.76659(5) 0.44731(4) 0.04724(2)
C1A C -0.7518(5) -0.3316(5) 0.0472(3)
N1A N -0.7176(5) -0.2077(4) 0.0400(2)
C2A C -0.7188(6) 0.2461(5) 0.0450(3)
C2_2 C -0.2812(6) 0.7539(5) -0.0450(3)
C2A_2 C -0.7188(6) -0.7539(5) 0.0450(3)
N2A N -0.6783(5) 0.1407(4) 0.0391(3)
O1A O -0.8206(4) -0.3831(4) -0.5680(2)
O2A O -1.2719(4) -0.1693(4) -0.4653(2)
N3A N -0.6663(4) -0.0829(3) -0.1634(2)
N4A N -0.9628(4) -0.3335(4) -0.5721(2)
N5A N -1.1853(5) -0.2417(4) -0.5217(2)
C3A C -0.5757(5) -0.0997(4) -0.2479(3)
H1A H -0.4342 -0.0705 -0.2343
C4A C -0.6825(5) -0.1584(4) -0.3541(3)
H2A H -0.6143 -0.1692 -0.4106
C5A C -0.8928(5) -0.2011(4) -0.3754(3)
C6A C -0.9877(5) -0.1824(4) -0.2876(3)
H3A H -1.1285 -0.2088 -0.2989
C7A C -0.8698(5) -0.1247(4) -0.1846(3)
H4A H -0.9344 -0.1139 -0.1265
C8A C -1.0135(5) -0.2594(4) -0.4872(3)
C9A C -1.0861(5) -0.3400(4) -0.6771(3)
C10A C -1.2778(6) -0.3289(4) -0.6387(3)
C11A C -1.1275(6) -0.4886(5) -0.7605(3)
H5A H -1.1881 -0.5767 -0.7309
H6A H -1.2200 -0.4973 -0.8244
H7A H -1.0006 -0.4864 -0.7792
C12A C -0.9550(7) -0.1979(5) -0.7140(3)
H8A H -0.8267 -0.2036 -0.7231
H9A H -1.0265 -0.1964 -0.7819
H10A H -0.9295 -0.1045 -0.6602
C13A C -1.4415(6) -0.4864(5) -0.6371(3)
H11A H -1.5476 -0.4701 -0.6038
H12A H -1.4998 -0.5493 -0.7101
H13A H -1.3799 -0.5386 -0.5962
C14A C -1.3728(7) -0.2387(5) -0.6960(3)
H14A H -1.2721 -0.1347 -0.6870
H15A H -1.4194 -0.2901 -0.7720
H16A H -1.4871 -0.2342 -0.6654
loop_
_geom_bond_atom_site_label_1
_geom_bond_atom_site_label_2
_geom_bond_site_symmetry_1
_geom_bond_site_symmetry_2
Ag1 C1 1_555 1_555
Zn1 N1 1_555 1_555
C1 N1 1_555 1_555
C2 N2 1_555 1_555
N2 Zn1 1_555 1_555
O1 N4 1_555 1_555
O2 N5 1_555 1_555
N3 Zn1 1_555 1_555
N4 C8 1_555 1_555
N5 C8 1_555 1_555
C3 N3 1_555 1_555
H1 C3 1_555 1_555
C4 C3 1_555 1_555
H2 C4 1_555 1_555
C5 C4 1_555 1_555
C6 C5 1_555 1_555
H3 C6 1_555 1_555
C7 N3 1_555 1_555
H4 C7 1_555 1_555
C8 C5 1_555 1_555
C9 N4 1_555 1_555
C10 N5 1_555 1_555
C11 C9 1_555 1_555
H5 C11 1_555 1_555
H6 C11 1_555 1_555
H7 C11 1_555 1_555
C12 C9 1_555 1_555
H8 C12 1_555 1_555
H9 C12 1_555 1_555
H10 C12 1_555 1_555
C13 C10 1_555 1_555
H11 C13 1_555 1_555
H12 C13 1_555 1_555
H13 C13 1_555 1_555
C14 C10 1_555 1_555
H14 C14 1_555 1_555
H15 C14 1_555 1_555
H16 C14 1_555 1_555
Ag1A C1A 1_555 1_555
Ag1_2 C2 1_555 1_555
Ag1A_2 C2A 1_555 1_555
C1A N1A 1_555 1_555
N1A Zn1 1_555 1_555
C2A N2A 1_555 1_555
C2_2 Ag1 1_555 1_555
C2A_2 Ag1A 1_555 1_555
N2A Zn1 1_555 1_555
O1A N4A 1_555 1_555
O2A N5A 1_555 1_555
N3A Zn1 1_555 1_555
N4A C8A 1_555 1_555
N5A C8A 1_555 1_555
C3A N3A 1_555 1_555
H1A C3A 1_555 1_555
C4A C3A 1_555 1_555
H2A C4A 1_555 1_555
C5A C4A 1_555 1_555
C6A C5A 1_555 1_555
H3A C6A 1_555 1_555
C7A N3A 1_555 1_555
H4A C7A 1_555 1_555
C8A C5A 1_555 1_555
C9A N4A 1_555 1_555
C10A N5A 1_555 1_555
C11A C9A 1_555 1_555
H5A C11A 1_555 1_555
H6A C11A 1_555 1_555
H7A C11A 1_555 1_555
C12A C9A 1_555 1_555
H8A C12A 1_555 1_555
H9A C12A 1_555 1_555
H10A C12A 1_555 1_555
C13A C10A 1_555 1_555
H11A C13A 1_555 1_555
H12A C13A 1_555 1_555
H13A C13A 1_555 1_555
C14A C10A 1_555 1_555
H14A C14A 1_555 1_555
H15A C14A 1_555 1_555
H16A C14A 1_555 1_555
C6 C7 1_555 1_555
C9 C10 1_555 1_555
C6A C7A 1_555 1_555
C9A C10A 1_555 1_555

#END
