
#######################################################################
#
#                 Cambridge Crystallographic Data Centre
#                                CCDC 
#
#######################################################################
#
# If this CIF has been generated from an entry in the Cambridge 
# Structural Database, then it will include bibliographic, chemical, 
# crystal, experimental, refinement or atomic coordinate data resulting 
# from the CCDC's data processing and validation procedures.
#
#######################################################################

data_KARVOP
_symmetry_cell_setting           triclinic
_symmetry_space_group_name_H-M   'P -1'
_symmetry_Int_Tables_number      2
_space_group_name_Hall           '-P 1'
loop_
_symmetry_equiv_pos_site_id
_symmetry_equiv_pos_as_xyz
1 x,y,z
2 -x,-y,-z
_cell_length_a                   17.207(3)
_cell_length_b                   17.717(3)
_cell_length_c                   27.198(4)
_cell_angle_alpha                98.03(2)
_cell_angle_beta                 99.113(19)
_cell_angle_gamma                111.51(2)
_cell_volume                     7438.04
loop_
_atom_site_label
_atom_site_type_symbol
_atom_site_fract_x
_atom_site_fract_y
_atom_site_fract_z
Zn1 Zn 0.73087(11) -0.44293(10) -0.36581(6)
N1 N 0.8362(6) -0.3794(6) -0.3947(4)
N2 N 0.6794(6) -0.5301(6) -0.4316(4)
N3 N 0.6120(6) -0.4846(6) -0.3477(4)
N4 N 0.7735(6) -0.3453(6) -0.3065(4)
C1 C 0.7992(7) -0.4813(6) -0.4770(4)
C2 C 0.7159(7) -0.5450(7) -0.4729(4)
C3 C 0.6630(7) -0.6143(7) -0.5093(5)
H1 H 0.6744 -0.6345 -0.5396
C4 C 0.5887(7) -0.6483(7) -0.4917(5)
H2 H 0.5412 -0.6973 -0.5071
C5 C 0.5996(7) -0.5953(7) -0.4475(4)
C6 C 0.5329(6) -0.6068(6) -0.4194(4)
C7 C 0.5399(7) -0.5536(7) -0.3729(4)
C8 C 0.4753(7) -0.5665(8) -0.3439(5)
H3 H 0.4207 -0.6088 -0.3529
C9 C 0.5090(8) -0.5047(8) -0.3001(5)
H4 H 0.4821 -0.4973 -0.2739
C10 C 0.5943(7) -0.4540(6) -0.3036(4)
C11 C 0.6541(7) -0.3854(7) -0.2643(4)
C12 C 0.7405(7) -0.3324(7) -0.2637(4)
C13 C 0.7901(8) -0.2649(8) -0.2262(5)
H5 H 0.7779 -0.2478 -0.1955
C14 C 0.8635(8) -0.2268(8) -0.2440(5)
H6 H 0.9106 -0.1781 -0.2276
C15 C 0.8520(7) -0.2775(7) -0.2923(4)
C16 C 0.9156(6) -0.2573(6) -0.3248(4)
C17 C 0.9033(7) -0.3059(7) -0.3732(4)
C18 C 0.9620(8) -0.2867(8) -0.4065(5)
H7 H 1.0135 -0.2404 -0.3997
C19 C 0.9293(8) -0.3480(8) -0.4494(5)
H8 H 0.9525 -0.3513 -0.4779
C20 C 0.8517(8) -0.4061(6) -0.4413(4)
C21 C 0.8286(5) -0.5066(5) -0.5237(3)
C22 C 0.8131(4) -0.4751(4) -0.5670(3)
C23 C 0.8377(5) -0.5004(5) -0.6113(3)
H9 H 0.8272 -0.4796 -0.6401
C24 C 0.8776(7) -0.5563(7) -0.6126(3)
C25 C 0.8935(8) -0.5868(7) -0.5692(4)
H10 H 0.9195 -0.6245 -0.5698
C26 C 0.8705(7) -0.5610(7) -0.5246(3)
C27 C 0.7709(7) -0.4144(7) -0.5674(5)
H11 H 0.7585 -0.4060 -0.6014
H12 H 0.8088 -0.3625 -0.5450
H13 H 0.7185 -0.4360 -0.5561
C28 C 0.8867(9) -0.5984(9) -0.4801(5)
H14 H 0.8868 -0.5640 -0.4495
H15 H 0.9413 -0.6024 -0.4772
H16 H 0.8424 -0.6529 -0.4851
C29 C 0.9012(8) -0.5832(8) -0.6611(4)
H17 H 0.9429 -0.6065 -0.6537
H18 H 0.9249 -0.5360 -0.6759
H19 H 0.8509 -0.6241 -0.6848
C30 C 0.4470(5) -0.6762(5) -0.4381(3)
C31 C 0.3863(6) -0.6657(5) -0.4738(3)
C32 C 0.3024(6) -0.7279(6) -0.4902(3)
H20 H 0.2618 -0.7213 -0.5143
C33 C 0.2804(5) -0.7997(6) -0.4701(4)
C34 C 0.3425(6) -0.8104(6) -0.4353(4)
H21 H 0.3283 -0.8591 -0.4232
C35 C 0.4260(6) -0.7483(6) -0.4183(4)
C36 C 0.4076(9) -0.5893(7) -0.4959(5)
H22 H 0.4509 -0.5862 -0.5148
H23 H 0.4284 -0.5409 -0.4689
H24 H 0.3570 -0.5921 -0.5183
C37 C 0.4915(8) -0.7597(10) -0.3795(5)
H25 H 0.4744 -0.8177 -0.3793
H26 H 0.4955 -0.7297 -0.3463
H27 H 0.5464 -0.7390 -0.3882
C38 C 0.1911(7) -0.8665(8) -0.4861(6)
H28 H 0.1929 -0.9188 -0.4818
H29 H 0.1676 -0.8704 -0.5213
H30 H 0.1557 -0.8530 -0.4654
C39 C 0.6199(6) -0.3679(6) -0.2181(3)
C40 C 0.5955(6) -0.3009(6) -0.2108(3)
H31 H 0.6026 -0.2657 -0.2336
C41 C 0.5603(6) -0.2866(6) -0.1692(4)
H32 H 0.5439 -0.2420 -0.1646
C42 C 0.5496(8) -0.3389(7) -0.1346(4)
C43 C 0.5749(9) -0.4056(7) -0.1412(4)
H33 H 0.5689 -0.4399 -0.1179
C44 C 0.6093(8) -0.4203(7) -0.1834(4)
H34 H 0.6252 -0.4651 -0.1883
C45 C 0.5096(9) -0.3271(9) -0.0910(4)
C46 C 0.4675(7) -0.3249(7) -0.0638(3)
C47 C 0.9940(5) -0.1782(5) -0.3059(3)
C48 C 0.9986(6) -0.1075(6) -0.3248(3)
C49 C 1.0733(7) -0.0339(6) -0.3065(4)
H35 H 1.0777 0.0135 -0.3189
C50 C 1.1406(6) -0.0323(6) -0.2697(5)
C51 C 1.1358(6) -0.1031(7) -0.2510(4)
H36 H 1.1814 -0.1014 -0.2268
C52 C 1.0614(7) -0.1771(6) -0.2692(4)
C53 C 0.9259(8) -0.1067(9) -0.3633(5)
H37 H 0.8899 -0.1625 -0.3813
H38 H 0.9485 -0.0740 -0.3870
H39 H 0.8929 -0.0830 -0.3460
C54 C 1.0548(10) -0.2538(8) -0.2489(6)
H40 H 1.1107 -0.2472 -0.2315
H41 H 1.0319 -0.3013 -0.2767
H42 H 1.0174 -0.2615 -0.2256
C55 C 1.2204(8) 0.0462(8) -0.2507(7)
H43 H 1.2657 0.0402 -0.2653
H44 H 1.2374 0.0565 -0.2142
H45 H 1.2093 0.0919 -0.2604
Zn2 Zn -0.13777(11) 0.09401(11) -0.32849(7)
N5 N -0.0811(5) 0.1720(6) -0.3721(4)
N6 N -0.0293(6) 0.1419(6) -0.2727(4)
N7 N -0.1860(6) -0.0011(6) -0.2920(4)
N8 N -0.2343(6) 0.0301(6) -0.3903(4)
C56 C 0.0496(6) 0.2674(6) -0.3065(4)
C57 C 0.0387(8) 0.2167(7) -0.2673(4)
C58 C 0.1029(7) 0.2382(7) -0.2220(4)
H46 H 0.1534 0.2857 -0.2107
C59 C 0.0729(7) 0.1722(8) -0.1988(5)
H47 H 0.1006 0.1646 -0.1688
C60 C -0.0075(7) 0.1188(7) -0.2295(4)
C61 C -0.0657(7) 0.0442(7) -0.2164(4)
C62 C -0.1535(7) -0.0095(7) -0.2443(4)
C63 C -0.2128(8) -0.0745(7) -0.2279(5)
H48 H -0.2043 -0.0914 -0.1973
C64 C -0.2857(8) -0.1077(8) -0.2664(5)
H49 H -0.3367 -0.1514 -0.2670
C65 C -0.2683(7) -0.0626(7) -0.3049(4)
C66 C -0.3239(7) -0.0815(7) -0.3544(4)
C67 C -0.3061(7) -0.0440(7) -0.3974(4)
C68 C -0.3574(7) -0.0738(8) -0.4462(5)
H50 H -0.4072 -0.1220 -0.4578
C69 C -0.3183(8) -0.0160(7) -0.4746(5)
H51 H -0.3370 -0.0160 -0.5086
C70 C -0.2446(7) 0.0414(7) -0.4394(4)
C71 C -0.1857(7) 0.1124(7) -0.4550(4)
C72 C -0.1079(7) 0.1756(7) -0.4209(4)
C73 C -0.0523(7) 0.2489(7) -0.4352(5)
H52 H -0.0592 0.2636 -0.4666
C74 C 0.0122(8) 0.2919(7) -0.3931(4)
H53 H 0.0589 0.3417 -0.3896
C75 C -0.0079(7) 0.2435(7) -0.3555(4)
C76 C 0.1278(5) 0.3467(5) -0.2908(3)
C77 C 0.1231(5) 0.4160(6) -0.2625(3)
C78 C 0.1964(6) 0.4903(6) -0.2441(3)
H54 H 0.1931 0.5367 -0.2255
C79 C 0.2756(6) 0.4936(5) -0.2544(5)
C80 C 0.2790(6) 0.4243(6) -0.2832(5)
H55 H 0.3313 0.4267 -0.2896
C81 C 0.2064(6) 0.3513(5) -0.3025(4)
C82 C 0.0390(8) 0.4122(10) -0.2512(6)
H56 H -0.0049 0.3894 -0.2822
H57 H 0.0443 0.4672 -0.2372
H58 H 0.0239 0.3777 -0.2271
C83 C 0.2121(9) 0.2756(7) -0.3323(5)
H59 H 0.2703 0.2881 -0.3348
H60 H 0.1760 0.2602 -0.3659
H61 H 0.1935 0.2305 -0.3152
C84 C 0.3547(8) 0.5729(9) -0.2338(6)
H62 H 0.3971 0.5734 -0.2530
H63 H 0.3772 0.5760 -0.1986
H64 H 0.3400 0.6196 -0.2367
C85 C -0.0310(5) 0.0180(5) -0.1710(3)
C86 C -0.0529(6) 0.0287(6) -0.1238(3)
H65 H -0.0911 0.0537 -0.1196
C87 C -0.0180(7) 0.0022(7) -0.0830(3)
H66 H -0.0328 0.0098 -0.0518
C88 C 0.0397(7) -0.0360(7) -0.0892(3)
C89 C 0.0603(7) -0.0480(7) -0.1367(4)
H67 H 0.0970 -0.0746 -0.1414
C90 C 0.0264(7) -0.0203(7) -0.1768(3)
H68 H 0.0419 -0.0272 -0.2078
C91 C 0.0787(9) -0.0619(10) -0.0447(4)
C92 C 0.1083(9) -0.0864(11) -0.0123(6)
C93 C -0.4011(5) -0.1609(6) -0.3608(3)
C94 C -0.3943(6) -0.2372(6) -0.3694(4)
C95 C -0.4647(8) -0.3107(6) -0.3712(4)
H69 H -0.4600 -0.3616 -0.3776
C96 C -0.5417(7) -0.3073(7) -0.3635(6)
C97 C -0.5494(6) -0.2308(8) -0.3557(5)
H70 H -0.6013 -0.2289 -0.3515
C98 C -0.4797(7) -0.1573(6) -0.3542(5)
C99 C -0.4863(9) -0.0744(8) -0.3468(6)
H71 H -0.4345 -0.0333 -0.3245
H72 H -0.5342 -0.0778 -0.3320
H73 H -0.4943 -0.0592 -0.3792
C100 C -0.3132(8) -0.2446(10) -0.3781(6)
H74 H -0.2671 -0.2123 -0.3491
H75 H -0.2998 -0.2243 -0.4080
H76 H -0.3208 -0.3018 -0.3829
C101 C -0.6165(10) -0.3860(11) -0.3642(8)
H77 H -0.6047 -0.4063 -0.3342
H78 H -0.6255 -0.4270 -0.3940
H79 H -0.6671 -0.3747 -0.3650
C102 C -0.2033(5) 0.1246(5) -0.5088(3)
C103 C -0.1548(5) 0.1080(5) -0.5431(3)
C104 C -0.1704(6) 0.1218(6) -0.5922(3)
H80 H -0.1388 0.1106 -0.6149
C105 C -0.2325(7) 0.1522(7) -0.6083(3)
C106 C -0.2792(7) 0.1699(8) -0.5740(3)
H81 H -0.3188 0.1923 -0.5839
C107 C -0.2667(6) 0.1540(7) -0.5247(3)
C108 C -0.0834(7) 0.0791(8) -0.5280(6)
H82 H -0.0645 0.0638 -0.5578
H83 H -0.1042 0.0320 -0.5128
H84 H -0.0363 0.1234 -0.5040
C109 C -0.3214(8) 0.1732(8) -0.4909(5)
H85 H -0.2865 0.2015 -0.4574
H86 H -0.3660 0.1224 -0.4889
H87 H -0.3466 0.2080 -0.5049
C110 C -0.2449(10) 0.1681(9) -0.6614(4)
H88 H -0.1954 0.1716 -0.6746
H89 H -0.2523 0.2194 -0.6604
H90 H -0.2948 0.1234 -0.6830
C111 C 0.1742(6) -0.4442(6) 0.0596(3)
C112 C 0.1588(7) -0.4922(6) 0.0967(4)
H91 H 0.1814 -0.5322 0.0988
C113 C 0.1083(7) -0.4791(7) 0.1309(4)
H92 H 0.0967 -0.5114 0.1551
C114 C 0.0763(8) -0.4179(8) 0.1281(5)
H93 H 0.0451 -0.4079 0.1514
C115 C 0.0907(8) -0.3708(8) 0.0901(5)
C116 C 0.1398(8) -0.3857(8) 0.0564(5)
C117 C 0.0526(9) -0.3057(9) 0.0894(6)
H94 H 0.0357 -0.2971 0.1214
H95 H 0.0008 -0.3281 0.0624
C118 C 0.1867(8) -0.1707(8) 0.1162(4)
C119 C 0.1104(8) -0.2205(7) 0.0816(4)
C120 C 0.0840(7) -0.1934(7) 0.0387(4)
H96 H 0.0331 -0.2271 0.0152
C121 C 0.1335(8) -0.1167(8) 0.0312(4)
C122 C 0.2121(8) -0.0665(7) 0.0651(5)
H97 H 0.2467 -0.0161 0.0589
C123 C 0.2386(7) -0.0943(8) 0.1096(5)
C124 C 0.3222(9) -0.0365(9) 0.1455(5)
H98 H 0.3078 -0.0115 0.1749
H99 H 0.3486 0.0080 0.1286
C125 C 0.3917(7) -0.0653(6) 0.1661(4)
C126 C 0.4356(7) -0.0371(7) 0.2162(5)
H100 H 0.4221 -0.0002 0.2374
C127 C 0.5000(8) -0.0620(7) 0.2363(5)
H101 H 0.5295 -0.0415 0.2702
C128 C 0.5190(8) -0.1182(7) 0.2044(4)
H102 H 0.5606 -0.1367 0.2172
C129 C 0.4762(7) -0.1466(7) 0.1537(4)
C130 C 0.4113(7) -0.1221(7) 0.1338(4)
C131 C 0.5012(5) -0.2039(5) 0.1190(3)
H103 H 0.5502 -0.1675 0.1083
H104 H 0.5233 -0.2334 0.1411
C132 C 0.4476(3) -0.2679(4) 0.0723(3)
C133 C 0.4799(4) -0.2676(4) 0.0278(3)
H105 H 0.5335 -0.2279 0.0282
C134 C 0.4317(5) -0.3264(5) -0.0168(3)
C135 C 0.3508(5) -0.3865(5) -0.0180(3)
H106 H 0.3188 -0.4257 -0.0478
C136 C 0.3185(4) -0.3868(4) 0.0265(3)
C137 C 0.3664(4) -0.3283(4) 0.0709(3)
C138 C 0.2306(6) -0.4537(5) 0.0223(5)
H107 H 0.2384 -0.5047 0.0246
H108 H 0.1973 -0.4621 -0.0118
O1 O 0.2091(6) -0.2029(6) 0.1582(3)
C139 C 0.2183(13) -0.1547(10) 0.2078(6)
H109 H 0.1921 -0.1150 0.2045
H110 H 0.2784 -0.1245 0.2244
C140 C 0.1726(9) -0.2167(9) 0.2391(5)
H111 H 0.1108 -0.2368 0.2277
H112 H 0.1889 -0.2638 0.2358
O2 O 0.1998(6) -0.1717(6) 0.2896(4)
C141 C 0.2776(8) -0.1747(9) 0.3163(5)
H113 H 0.3172 -0.1191 0.3343
H114 H 0.3046 -0.1953 0.2920
C142 C 0.2594(9) -0.2291(9) 0.3529(5)
H115 H 0.3128 -0.2234 0.3743
H116 H 0.2264 -0.2125 0.3747
O3 O 0.2128(7) -0.3129(6) 0.3270(3)
C143 C 0.1904(11) -0.3644(10) 0.3625(6)
H117 H 0.1477 -0.3532 0.3781
H118 H 0.2407 -0.3517 0.3893
C144 C 0.1558(10) -0.4534(9) 0.3371(6)
H119 H 0.1316 -0.4867 0.3606
H120 H 0.1099 -0.4641 0.3079
O4 O 0.2189(6) -0.4789(6) 0.3204(3)
C145 C 0.2340(9) -0.4735(9) 0.2693(5)
H121 H 0.1865 -0.4673 0.2483
H122 H 0.2383 -0.5238 0.2534
C146 C 0.3194(9) -0.3966(9) 0.2737(5)
H123 H 0.3111 -0.3451 0.2800
H124 H 0.3645 -0.3944 0.3010
O5 O 0.3400(8) -0.4111(7) 0.2241(4)
C147 C 0.3321(11) -0.3509(10) 0.1973(6)
H125 H 0.3688 -0.2952 0.2166
H126 H 0.2732 -0.3557 0.1897
C148 C 0.3615(10) -0.3719(10) 0.1472(5)
H127 H 0.4228 -0.3578 0.1543
H128 H 0.3316 -0.4304 0.1311
O6 O 0.3401(6) -0.3234(6) 0.1170(3)
O7 O 0.1544(6) -0.3401(6) 0.0180(3)
C149 C 0.0871(10) -0.3773(11) -0.0265(5)
H129 H 0.0340 -0.3786 -0.0181
H130 H 0.0800 -0.4342 -0.0382
C150 C 0.1048(11) -0.3298(12) -0.0699(6)
H131 H 0.0551 -0.3516 -0.0982
H132 H 0.1196 -0.2710 -0.0578
O8 O 0.1771(7) -0.3438(7) -0.0850(4)
C151 C 0.1928(10) -0.3026(12) -0.1260(7)
H133 H 0.2003 -0.2451 -0.1164
H134 H 0.1461 -0.3302 -0.1559
C152 C 0.2757(11) -0.3086(12) -0.1359(6)
H135 H 0.3232 -0.2747 -0.1073
H136 H 0.2702 -0.3657 -0.1395
O9 O 0.2923(8) -0.2795(8) -0.1829(4)
C153 C 0.3663(12) -0.2014(11) -0.1779(9)
H137 H 0.3987 -0.2083 -0.2030
H138 H 0.4037 -0.1863 -0.1443
C154 C 0.3359(13) -0.1351(11) -0.1856(7)
H139 H 0.3835 -0.0881 -0.1902
H140 H 0.2922 -0.1553 -0.2172
O10 O 0.3019(7) -0.1064(7) -0.1468(4)
C155 C 0.3649(13) -0.0420(11) -0.1067(6)
H141 H 0.3639 0.0113 -0.1103
H142 H 0.4216 -0.0400 -0.1080
C156 C 0.3445(12) -0.0605(10) -0.0559(7)
H143 H 0.3769 -0.0116 -0.0288
H144 H 0.2839 -0.0751 -0.0575
O11 O 0.3660(8) -0.1256(7) -0.0460(4)
C157 C 0.3365(10) -0.1595(10) -0.0040(5)
H145 H 0.3326 -0.2161 -0.0079
H146 H 0.2796 -0.1607 -0.0042
C158 C 0.3964(10) -0.1083(9) 0.0462(5)
H147 H 0.4548 -0.1019 0.0460
H148 H 0.3950 -0.0536 0.0531
O12 O 0.3660(6) -0.1529(6) 0.0831(3)
Zn1A Zn 0.26913(11) -0.55707(10) 0.36581(6)
Zn2A Zn 0.13777(11) -0.09401(11) 0.32849(7)
O2A O -0.1998(6) 0.1717(6) -0.2896(4)
O4A O 0.7811(6) -0.5211(6) -0.3204(3)
C159 C -0.1048 -0.2771 -0.1017
C160 C -0.1612 -0.2347 -0.0823
C161 C -0.1618 -0.2349 -0.0266
C162 C -0.2205 -0.1907 -0.0121
C163 C -0.2110 -0.1798 0.0464
C164 C -0.2650 -0.1330 0.0640
C165 C 0.5944 -0.2903 0.2465
C166 C 0.6453 -0.2888 0.2054
C167 C 0.6031 -0.3677 0.1632
C168 C 0.6493 -0.3582 0.1182
C169 C 0.5876 -0.4238 0.0713
C170 C 0.6254 -0.4147 0.0248
loop_
_geom_bond_atom_site_label_1
_geom_bond_atom_site_label_2
_geom_bond_site_symmetry_1
_geom_bond_site_symmetry_2
Zn1 N1 1_555 1_555
N1 C17 1_555 1_555
N2 Zn1 1_555 1_555
N3 Zn1 1_555 1_555
N4 Zn1 1_555 1_555
C1 C2 1_555 1_555
C2 N2 1_555 1_555
C3 C2 1_555 1_555
H1 C3 1_555 1_555
C4 C3 1_555 1_555
H2 C4 1_555 1_555
C5 N2 1_555 1_555
C6 C5 1_555 1_555
C7 N3 1_555 1_555
C8 C7 1_555 1_555
H3 C8 1_555 1_555
C9 C8 1_555 1_555
H4 C9 1_555 1_555
C10 N3 1_555 1_555
C11 C10 1_555 1_555
C12 N4 1_555 1_555
C13 C12 1_555 1_555
H5 C13 1_555 1_555
C14 C13 1_555 1_555
H6 C14 1_555 1_555
C15 N4 1_555 1_555
C16 C15 1_555 1_555
C17 C16 1_555 1_555
C18 C17 1_555 1_555
H7 C18 1_555 1_555
C19 C18 1_555 1_555
H8 C19 1_555 1_555
C20 N1 1_555 1_555
C21 C1 1_555 1_555
C22 C21 1_555 1_555
C23 C22 1_555 1_555
H9 C23 1_555 1_555
C24 C23 1_555 1_555
C25 C24 1_555 1_555
H10 C25 1_555 1_555
C26 C21 1_555 1_555
C27 C22 1_555 1_555
H11 C27 1_555 1_555
H12 C27 1_555 1_555
H13 C27 1_555 1_555
C28 C26 1_555 1_555
H14 C28 1_555 1_555
H15 C28 1_555 1_555
H16 C28 1_555 1_555
C29 C24 1_555 1_555
H17 C29 1_555 1_555
H18 C29 1_555 1_555
H19 C29 1_555 1_555
C30 C6 1_555 1_555
C31 C30 1_555 1_555
C32 C31 1_555 1_555
H20 C32 1_555 1_555
C33 C32 1_555 1_555
C34 C33 1_555 1_555
H21 C34 1_555 1_555
C35 C30 1_555 1_555
C36 C31 1_555 1_555
H22 C36 1_555 1_555
H23 C36 1_555 1_555
H24 C36 1_555 1_555
C37 C35 1_555 1_555
H25 C37 1_555 1_555
H26 C37 1_555 1_555
H27 C37 1_555 1_555
C38 C33 1_555 1_555
H28 C38 1_555 1_555
H29 C38 1_555 1_555
H30 C38 1_555 1_555
C39 C11 1_555 1_555
C40 C39 1_555 1_555
H31 C40 1_555 1_555
C41 C40 1_555 1_555
H32 C41 1_555 1_555
C42 C41 1_555 1_555
C43 C42 1_555 1_555
H33 C43 1_555 1_555
C44 C39 1_555 1_555
H34 C44 1_555 1_555
C45 C42 1_555 1_555
C46 C45 1_555 1_555
C47 C16 1_555 1_555
C48 C47 1_555 1_555
C49 C48 1_555 1_555
H35 C49 1_555 1_555
C50 C49 1_555 1_555
C51 C50 1_555 1_555
H36 C51 1_555 1_555
C52 C47 1_555 1_555
C53 C48 1_555 1_555
H37 C53 1_555 1_555
H38 C53 1_555 1_555
H39 C53 1_555 1_555
C54 C52 1_555 1_555
H40 C54 1_555 1_555
H41 C54 1_555 1_555
H42 C54 1_555 1_555
C55 C50 1_555 1_555
H43 C55 1_555 1_555
H44 C55 1_555 1_555
H45 C55 1_555 1_555
Zn2 N5 1_555 1_555
N5 C72 1_555 1_555
N6 Zn2 1_555 1_555
N7 Zn2 1_555 1_555
N8 Zn2 1_555 1_555
C56 C57 1_555 1_555
C57 N6 1_555 1_555
C58 C57 1_555 1_555
H46 C58 1_555 1_555
C59 C58 1_555 1_555
H47 C59 1_555 1_555
C60 N6 1_555 1_555
C61 C60 1_555 1_555
C62 N7 1_555 1_555
C63 C62 1_555 1_555
H48 C63 1_555 1_555
C64 C63 1_555 1_555
H49 C64 1_555 1_555
C65 N7 1_555 1_555
C66 C65 1_555 1_555
C67 N8 1_555 1_555
C68 C67 1_555 1_555
H50 C68 1_555 1_555
C69 C68 1_555 1_555
H51 C69 1_555 1_555
C70 N8 1_555 1_555
C71 C70 1_555 1_555
C72 C71 1_555 1_555
C73 C72 1_555 1_555
H52 C73 1_555 1_555
C74 C73 1_555 1_555
H53 C74 1_555 1_555
C75 N5 1_555 1_555
C76 C56 1_555 1_555
C77 C76 1_555 1_555
C78 C77 1_555 1_555
H54 C78 1_555 1_555
C79 C78 1_555 1_555
C80 C79 1_555 1_555
H55 C80 1_555 1_555
C81 C76 1_555 1_555
C82 C77 1_555 1_555
H56 C82 1_555 1_555
H57 C82 1_555 1_555
H58 C82 1_555 1_555
C83 C81 1_555 1_555
H59 C83 1_555 1_555
H60 C83 1_555 1_555
H61 C83 1_555 1_555
C84 C79 1_555 1_555
H62 C84 1_555 1_555
H63 C84 1_555 1_555
H64 C84 1_555 1_555
C85 C61 1_555 1_555
C86 C85 1_555 1_555
H65 C86 1_555 1_555
C87 C86 1_555 1_555
H66 C87 1_555 1_555
C88 C87 1_555 1_555
C89 C88 1_555 1_555
H67 C89 1_555 1_555
C90 C85 1_555 1_555
H68 C90 1_555 1_555
C91 C88 1_555 1_555
C92 C91 1_555 1_555
C93 C66 1_555 1_555
C94 C93 1_555 1_555
C95 C94 1_555 1_555
H69 C95 1_555 1_555
C96 C95 1_555 1_555
C97 C96 1_555 1_555
H70 C97 1_555 1_555
C98 C93 1_555 1_555
C99 C98 1_555 1_555
H71 C99 1_555 1_555
H72 C99 1_555 1_555
H73 C99 1_555 1_555
C100 C94 1_555 1_555
H74 C100 1_555 1_555
H75 C100 1_555 1_555
H76 C100 1_555 1_555
C101 C96 1_555 1_555
H77 C101 1_555 1_555
H78 C101 1_555 1_555
H79 C101 1_555 1_555
C102 C71 1_555 1_555
C103 C102 1_555 1_555
C104 C103 1_555 1_555
H80 C104 1_555 1_555
C105 C104 1_555 1_555
C106 C105 1_555 1_555
H81 C106 1_555 1_555
C107 C102 1_555 1_555
C108 C103 1_555 1_555
H82 C108 1_555 1_555
H83 C108 1_555 1_555
H84 C108 1_555 1_555
C109 C107 1_555 1_555
H85 C109 1_555 1_555
H86 C109 1_555 1_555
H87 C109 1_555 1_555
C110 C105 1_555 1_555
H88 C110 1_555 1_555
H89 C110 1_555 1_555
H90 C110 1_555 1_555
C111 C112 1_555 1_555
C112 H91 1_555 1_555
C113 C112 1_555 1_555
H92 C113 1_555 1_555
C114 C113 1_555 1_555
H93 C114 1_555 1_555
C115 C114 1_555 1_555
C116 C111 1_555 1_555
C117 C115 1_555 1_555
H94 C117 1_555 1_555
H95 C117 1_555 1_555
C118 C119 1_555 1_555
C119 C117 1_555 1_555
C120 C119 1_555 1_555
H96 C120 1_555 1_555
C121 C92 1_555 1_555
C122 C121 1_555 1_555
H97 C122 1_555 1_555
C123 C118 1_555 1_555
C124 C123 1_555 1_555
H98 C124 1_555 1_555
H99 C124 1_555 1_555
C125 C124 1_555 1_555
C126 C125 1_555 1_555
H100 C126 1_555 1_555
C127 C126 1_555 1_555
H101 C127 1_555 1_555
C128 C127 1_555 1_555
H102 C128 1_555 1_555
C129 C128 1_555 1_555
C130 C125 1_555 1_555
C131 C129 1_555 1_555
H103 C131 1_555 1_555
H104 C131 1_555 1_555
C132 C131 1_555 1_555
C133 C132 1_555 1_555
H105 C133 1_555 1_555
C134 C46 1_555 1_555
C135 C134 1_555 1_555
H106 C135 1_555 1_555
C136 C135 1_555 1_555
C137 C132 1_555 1_555
C138 C111 1_555 1_555
H107 C138 1_555 1_555
H108 C138 1_555 1_555
O1 C118 1_555 1_555
C139 O1 1_555 1_555
H109 C139 1_555 1_555
H110 C139 1_555 1_555
C140 C139 1_555 1_555
H111 C140 1_555 1_555
H112 C140 1_555 1_555
O2 C140 1_555 1_555
C141 O2 1_555 1_555
H113 C141 1_555 1_555
H114 C141 1_555 1_555
C142 C141 1_555 1_555
H115 C142 1_555 1_555
H116 C142 1_555 1_555
O3 C142 1_555 1_555
C143 O3 1_555 1_555
H117 C143 1_555 1_555
H118 C143 1_555 1_555
C144 C143 1_555 1_555
H119 C144 1_555 1_555
H120 C144 1_555 1_555
O4 C144 1_555 1_555
C145 O4 1_555 1_555
H121 C145 1_555 1_555
H122 C145 1_555 1_555
C146 C145 1_555 1_555
H123 C146 1_555 1_555
H124 C146 1_555 1_555
O5 C146 1_555 1_555
C147 O5 1_555 1_555
H125 C147 1_555 1_555
H126 C147 1_555 1_555
C148 C147 1_555 1_555
H127 C148 1_555 1_555
H128 C148 1_555 1_555
O6 C137 1_555 1_555
O7 C116 1_555 1_555
C149 O7 1_555 1_555
H129 C149 1_555 1_555
H130 C149 1_555 1_555
C150 C149 1_555 1_555
H131 C150 1_555 1_555
H132 C150 1_555 1_555
O8 C150 1_555 1_555
C151 O8 1_555 1_555
H133 C151 1_555 1_555
H134 C151 1_555 1_555
C152 C151 1_555 1_555
H135 C152 1_555 1_555
H136 C152 1_555 1_555
O9 C152 1_555 1_555
C153 O9 1_555 1_555
H137 C153 1_555 1_555
H138 C153 1_555 1_555
C154 C153 1_555 1_555
H139 C154 1_555 1_555
H140 C154 1_555 1_555
O10 C154 1_555 1_555
C155 O10 1_555 1_555
H141 C155 1_555 1_555
H142 C155 1_555 1_555
C156 C155 1_555 1_555
H143 C156 1_555 1_555
H144 C156 1_555 1_555
O11 C156 1_555 1_555
C157 O11 1_555 1_555
H145 C157 1_555 1_555
H146 C157 1_555 1_555
C158 C157 1_555 1_555
H147 C158 1_555 1_555
H148 C158 1_555 1_555
O12 C130 1_555 1_555
C159 C160 1_555 1_555
C160 C161 1_555 1_555
C161 C162 1_555 1_555
C162 C163 1_555 1_555
C163 C164 1_555 1_555
C165 C166 1_555 1_555
C166 C167 1_555 1_555
C167 C168 1_555 1_555
C168 C169 1_555 1_555
C169 C170 1_555 1_555
Zn1A O4 1_555 1_555
Zn2A O2 1_555 1_555
O2A Zn2 1_555 1_555
O4A Zn1 1_555 1_555
C1 C20 1_555 1_555
C4 C5 1_555 1_555
C6 C7 1_555 1_555
C9 C10 1_555 1_555
C11 C12 1_555 1_555
C14 C15 1_555 1_555
C19 C20 1_555 1_555
C25 C26 1_555 1_555
C34 C35 1_555 1_555
C43 C44 1_555 1_555
C51 C52 1_555 1_555
C56 C75 1_555 1_555
C59 C60 1_555 1_555
C61 C62 1_555 1_555
C64 C65 1_555 1_555
C66 C67 1_555 1_555
C69 C70 1_555 1_555
C74 C75 1_555 1_555
C80 C81 1_555 1_555
C89 C90 1_555 1_555
C97 C98 1_555 1_555
C106 C107 1_555 1_555
C115 C116 1_555 1_555
C120 C121 1_555 1_555
C122 C123 1_555 1_555
C129 C130 1_555 1_555
C133 C134 1_555 1_555
C136 C137 1_555 1_555
C136 C138 1_555 1_555
C148 O6 1_555 1_555
C158 O12 1_555 1_555

#END
