
#######################################################################
#
#                 Cambridge Crystallographic Data Centre
#                                CCDC 
#
#######################################################################
#
# If this CIF has been generated from an entry in the Cambridge 
# Structural Database, then it will include bibliographic, chemical, 
# crystal, experimental, refinement or atomic coordinate data resulting 
# from the CCDC's data processing and validation procedures.
#
#######################################################################

data_KARXIM
_symmetry_cell_setting           tetragonal
_symmetry_space_group_name_H-M   'I 41 c d'
_symmetry_Int_Tables_number      110
_space_group_name_Hall           'I 4bw -2c'
loop_
_symmetry_equiv_pos_site_id
_symmetry_equiv_pos_as_xyz
1 x,y,z
2 1/2-x,1/2-y,1/2+z
3 -y,1/2+x,1/4+z
4 1/2+y,-x,3/4+z
5 x,-y,1/2+z
6 1/2-x,1/2+y,z
7 -y,1/2-x,3/4+z
8 1/2+y,x,1/4+z
9 1/2+x,1/2+y,1/2+z
10 -x,-y,z
11 1/2-y,x,3/4+z
12 y,1/2-x,1/4+z
13 1/2+x,1/2-y,z
14 -x,y,1/2+z
15 1/2-y,-x,1/4+z
16 y,1/2+x,3/4+z
_cell_length_a                   16.2028(3)
_cell_length_b                   16.2028(3)
_cell_length_c                   24.4818(9)
_cell_angle_alpha                90
_cell_angle_beta                 90
_cell_angle_gamma                90
_cell_volume                     6427.22
loop_
_atom_site_label
_atom_site_type_symbol
_atom_site_fract_x
_atom_site_fract_y
_atom_site_fract_z
Co1 Co 0.5000 0.0000 0.49615(7)
C1 C 0.3824(2) -0.1362(2) 0.54117(19)
H1 H 0.4130 -0.1268 0.5727
C2 C 0.3208(2) -0.1952(2) 0.54229(17)
H2 H 0.3114 -0.2249 0.5742
C3 C 0.27349(18) -0.21056(19) 0.4969(2)
C4 C 0.2908(2) -0.1639(2) 0.45094(18)
H3 H 0.2605 -0.1714 0.4191
C5 C 0.3533(2) -0.1062(3) 0.45279(18)
H4 H 0.3633 -0.0754 0.4214
C6 C 0.1555(2) -0.4048(2) 0.52864(16)
H5 H 0.1611 -0.4504 0.5514
C7 C 0.2156(2) -0.3446(2) 0.52987(17)
H6 H 0.2606 -0.3500 0.5531
C8 C 0.20883(19) -0.27565(17) 0.4963(2)
C9 C 0.1400(2) -0.2708(2) 0.46285(16)
H7 H 0.1326 -0.2260 0.4396
C10 C 0.0822(2) -0.3339(2) 0.46460(16)
H8 H 0.0358 -0.3293 0.4425
N1 N 0.39967(15) -0.09169(14) 0.4960(2)
N2 N 0.08913(15) -0.40041(15) 0.4959(2)
O1 O 0.5000 0.0000 0.4118(2)
H10 H 0.5087 -0.0397 0.3898
O2 O 0.5000 0.0000 0.5796(2)
H11 H 0.5208 -0.0379 0.5993
Co1E Co 0.0000 -0.5000 0.49615(7)
Co1E_2 Co 1.0000 0.5000 0.49615(7)
C1I C 0.6176(2) 0.1362(2) 0.54117(19)
H1I H 0.5870 0.1268 0.5727
C2I C 0.6792(2) 0.1952(2) 0.54229(17)
H2I H 0.6886 0.2249 0.5742
C3I C 0.72651(18) 0.21056(19) 0.4969(2)
C4I C 0.7092(2) 0.1639(2) 0.45094(18)
H3I H 0.7395 0.1714 0.4191
C5I C 0.6467(2) 0.1062(3) 0.45279(18)
H4I H 0.6367 0.0754 0.4214
C6I C 0.8445(2) 0.4048(2) 0.52864(16)
H5I H 0.8389 0.4504 0.5514
C7I C 0.7844(2) 0.3446(2) 0.52987(17)
H6I H 0.7394 0.3500 0.5531
C8I C 0.79117(19) 0.27565(17) 0.4963(2)
C9I C 0.8600(2) 0.2708(2) 0.46285(16)
H7I H 0.8674 0.2260 0.4396
C10I C 0.9178(2) 0.3339(2) 0.46460(16)
H8I H 0.9642 0.3293 0.4425
N1I N 0.60033(15) 0.09169(14) 0.4960(2)
N2I N 0.91087(15) 0.40041(15) 0.4959(2)
N2E N 0.41087(15) 0.09959(15) 0.4959(2)
N2L N 0.58913(15) -0.09959(15) 0.4959(2)
H10I H 0.4913 0.0397 0.3898
H11I H 0.4792 0.0379 0.5993
C11 C 0.3609(3) -0.5059(3) 0.5395(2)
H9 H 0.3322 -0.5533 0.5495
C12 C 0.4345(2) -0.3978(3) 0.54426(18)
C13 C 0.4126(2) -0.4111(2) 0.49028(19)
C14 C 0.4323(3) -0.3609(3) 0.4448(2)
C15 C 0.4857(3) -0.3343(3) 0.56541(19)
N3 N 0.4007(2) -0.4582(2) 0.57671(15)
N4 N 0.3653(2) -0.4808(2) 0.48782(16)
N5 N 0.5284(3) -0.2841(3) 0.58163(18)
N6 N 0.4468(3) -0.3182(3) 0.40901(18)
O3 O 0.56235(17) -0.12781(16) 0.63811(11)
H12 H 0.5437 -0.1275 0.6706
H13 H 0.5496 -0.1721 0.6215
loop_
_geom_bond_atom_site_label_1
_geom_bond_atom_site_label_2
_geom_bond_site_symmetry_1
_geom_bond_site_symmetry_2
Co1 N1 1_555 1_555
C1 H1 1_555 1_555
C2 C1 1_555 1_555
H2 C2 1_555 1_555
C3 C2 1_555 1_555
C4 C3 1_555 1_555
H3 C4 1_555 1_555
C5 C4 1_555 1_555
H4 C5 1_555 1_555
C6 H5 1_555 1_555
C7 C6 1_555 1_555
H6 C7 1_555 1_555
C8 C3 1_555 1_555
C9 C8 1_555 1_555
H7 C9 1_555 1_555
C10 C9 1_555 1_555
H8 C10 1_555 1_555
C11 H9 1_555 1_555
C12 C13 1_555 1_555
C13 C14 1_555 1_555
C14 N6 1_555 1_555
C15 C12 1_555 1_555
N1 C1 1_555 1_555
N2 C6 1_555 1_555
N3 C11 1_555 1_555
N4 C11 1_555 1_555
N5 C15 1_555 1_555
O1 Co1 1_555 1_555
H10 O1 1_555 1_555
O2 Co1 1_555 1_555
H11 O2 1_555 1_555
O3 H12 1_555 1_555
H13 O3 1_555 1_555
Co1E N2 1_555 1_555
Co1E_2 N2I 1_555 1_555
C1I H1I 1_555 1_555
C2I C1I 1_555 1_555
H2I C2I 1_555 1_555
C3I C2I 1_555 1_555
C4I C3I 1_555 1_555
H3I C4I 1_555 1_555
C5I C4I 1_555 1_555
H4I C5I 1_555 1_555
C6I H5I 1_555 1_555
C7I C6I 1_555 1_555
H6I C7I 1_555 1_555
C8I C3I 1_555 1_555
C9I C8I 1_555 1_555
H7I C9I 1_555 1_555
C10I C9I 1_555 1_555
H8I C10I 1_555 1_555
N1I Co1 1_555 1_555
N2I C6I 1_555 1_555
N2E Co1 1_555 1_555
N2L Co1 1_555 1_555
H10I O1 1_555 1_555
H11I O2 1_555 1_555
C5 N1 1_555 1_555
C7 C8 1_555 1_555
C10 N2 1_555 1_555
C12 N3 1_555 1_555
C13 N4 1_555 1_555
C1I N1I 1_555 1_555
C5I N1I 1_555 1_555
C7I C8I 1_555 1_555
C10I N2I 1_555 1_555

#END
