
#######################################################################
#
#                 Cambridge Crystallographic Data Centre
#                                CCDC 
#
#######################################################################
#
# If this CIF has been generated from an entry in the Cambridge 
# Structural Database, then it will include bibliographic, chemical, 
# crystal, experimental, refinement or atomic coordinate data resulting 
# from the CCDC's data processing and validation procedures.
#
#######################################################################

data_KASHES
_symmetry_cell_setting           monoclinic
_symmetry_space_group_name_H-M   'P 21/n'
_symmetry_Int_Tables_number      14
_space_group_name_Hall           '-P 2yn'
loop_
_symmetry_equiv_pos_site_id
_symmetry_equiv_pos_as_xyz
1 x,y,z
2 1/2-x,1/2+y,1/2-z
3 -x,-y,-z
4 1/2+x,1/2-y,1/2+z
_cell_length_a                   9.5225(16)
_cell_length_b                   8.6825(15)
_cell_length_c                   19.210(3)
_cell_angle_alpha                90
_cell_angle_beta                 99.91(3)
_cell_angle_gamma                90
_cell_volume                     1564.57
loop_
_atom_site_label
_atom_site_type_symbol
_atom_site_fract_x
_atom_site_fract_y
_atom_site_fract_z
C1 C 0.5780(4) 0.7136(4) 0.03112(18)
C2 C 0.4492(4) 0.7004(4) 0.05483(19)
H1 H 0.4442 0.6398 0.0942
C3 C 0.3277(3) 0.7750(4) 0.02154(18)
C4 C 0.3334(4) 0.8601(4) -0.03910(19)
H2 H 0.2533 0.9119 -0.0623
C5 C 0.4599(4) 0.8660(4) -0.06401(18)
C6 C 0.5833(4) 0.7973(4) -0.02992(18)
H3 H 0.6681 0.8069 -0.0474
C7 C 0.7117(4) 0.6492(4) 0.07531(19)
C8 C 0.1942(3) 0.7721(4) 0.05344(18)
C9 C 0.9125(4) 0.7946(4) 0.2455(2)
H4 H 0.8167 0.7694 0.2322
C10 C 1.1072(4) 0.8935(5) 0.3040(2)
H5 H 1.1709 0.9478 0.3372
C11 C 1.1383(4) 0.8093(5) 0.2502(2)
H6 H 1.2292 0.7952 0.2397
C12 C 0.9652(5) 0.3062(5) 0.1865(2)
H7 H 0.9281 0.3420 0.2252
C13 C 0.9842(5) 0.1577(5) 0.1716(2)
H8 H 0.9634 0.0728 0.1975
C14 C 1.0537(4) 0.2998(5) 0.0919(2)
H9 H 1.0905 0.3293 0.0521
N1 N 0.4669(4) 0.9578(4) -0.12797(16)
N2 N 1.0143(3) 0.7466(4) 0.21246(15)
N3 N 0.9634(4) 0.8834(4) 0.30020(17)
H10 H 0.9143 0.9269 0.3283
N4 N 1.0084(3) 0.3965(3) 0.13652(16)
N5 N 1.0395(4) 0.1560(4) 0.1115(2)
H11 H 1.0616 0.0752 0.0898
O1 O 0.8279(2) 0.6843(3) 0.05587(13)
O2 O 0.7024(3) 0.5732(4) 0.12848(15)
O3 O 0.1739(3) 0.6484(3) 0.08612(15)
O4 O 0.1135(3) 0.8837(3) 0.04643(15)
O5 O 0.3562(3) 1.0152(4) -0.15859(16)
O6 O 0.5819(3) 0.9745(4) -0.14659(15)
Zn1 Zn 0.99693(4) 0.62360(5) 0.12402(2)
O3_2 O 1.1739(3) 0.6484(3) 0.08612(15)
Zn1_2 Zn -0.00307(4) 0.62360(5) 0.12402(2)
loop_
_geom_bond_atom_site_label_1
_geom_bond_atom_site_label_2
_geom_bond_site_symmetry_1
_geom_bond_site_symmetry_2
C1 C2 1_555 1_555
C2 H1 1_555 1_555
C3 C2 1_555 1_555
C4 C3 1_555 1_555
H2 C4 1_555 1_555
C5 C4 1_555 1_555
C6 C1 1_555 1_555
H3 C6 1_555 1_555
C7 C1 1_555 1_555
C8 C3 1_555 1_555
C9 H4 1_555 1_555
C10 H5 1_555 1_555
C11 C10 1_555 1_555
H6 C11 1_555 1_555
C12 H7 1_555 1_555
C13 C12 1_555 1_555
H8 C13 1_555 1_555
C14 H9 1_555 1_555
N1 C5 1_555 1_555
N2 C9 1_555 1_555
N3 C9 1_555 1_555
H10 N3 1_555 1_555
N4 C12 1_555 1_555
N5 C13 1_555 1_555
H11 N5 1_555 1_555
O1 C7 1_555 1_555
O2 C7 1_555 1_555
O3 C8 1_555 1_555
O4 C8 1_555 1_555
O5 N1 1_555 1_555
O6 N1 1_555 1_555
Zn1 N2 1_555 1_555
O3_2 Zn1 1_555 1_555
Zn1_2 O3 1_555 1_555
C5 C6 1_555 1_555
C10 N3 1_555 1_555
C11 N2 1_555 1_555
C14 N4 1_555 1_555
C14 N5 1_555 1_555
N4 Zn1 1_555 1_555
O1 Zn1 1_555 1_555

#END
