
#######################################################################
#
#                 Cambridge Crystallographic Data Centre
#                                CCDC 
#
#######################################################################
#
# If this CIF has been generated from an entry in the Cambridge 
# Structural Database, then it will include bibliographic, chemical, 
# crystal, experimental, refinement or atomic coordinate data resulting 
# from the CCDC's data processing and validation procedures.
#
#######################################################################

data_KASNIC
_symmetry_cell_setting           orthorhombic
_symmetry_space_group_name_H-M   'P b c a'
_symmetry_Int_Tables_number      61
_space_group_name_Hall           '-P 2ac 2ab'
loop_
_symmetry_equiv_pos_site_id
_symmetry_equiv_pos_as_xyz
1 x,y,z
2 1/2+x,1/2-y,-z
3 -x,1/2+y,1/2-z
4 1/2-x,-y,1/2+z
5 -x,-y,-z
6 1/2-x,1/2+y,z
7 x,1/2-y,1/2+z
8 1/2+x,y,1/2-z
_cell_length_a                   13.1389(3)
_cell_length_b                   25.6885(5)
_cell_length_c                   31.1822(7)
_cell_angle_alpha                90
_cell_angle_beta                 90
_cell_angle_gamma                90
_cell_volume                     10524.6
loop_
_atom_site_label
_atom_site_type_symbol
_atom_site_fract_x
_atom_site_fract_y
_atom_site_fract_z
K1 K 0.65124(7) 0.31112(4) 0.22689(3)
K2 K 0.91160(10) 0.22078(5) 0.20268(5)
Cl1 Cl 0.88351(8) 0.65505(4) 0.15211(4)
Cl2 Cl 0.77022(7) 0.15193(4) 0.48871(3)
O1 O 0.9160(2) 0.54777(9) 0.24328(8)
O2 O 0.6662(2) 0.23090(10) 0.36962(8)
O3 O 0.7443(3) 0.21530(10) 0.25240(10)
O4 O 0.8219(2) 0.31570(10) 0.17621(9)
O5 O 0.8845(2) 0.20620(10) 0.11450(10)
O6 O 1.0452(3) 0.15600(10) 0.24310(10)
O7 O 0.5678(3) 0.28690(10) 0.30720(10)
N1 N 0.5257(2) 0.27660(10) 0.15501(9)
N2 N 0.4876(2) 0.25160(10) 0.18950(10)
N3 N 0.3930(2) 0.23930(10) 0.18200(10)
N4 N 0.3671(2) 0.25560(10) 0.14228(9)
N5 N 0.7110(2) 0.53930(10) 0.18035(8)
N6 N 0.6955(2) 0.61610(10) 0.14960(10)
N7 N 0.6670(2) 0.42540(10) 0.29562(8)
N8 N 0.7311(2) 0.39690(10) 0.27112(9)
N9 N 0.8185(2) 0.42140(10) 0.26773(9)
N10 N 0.8141(2) 0.46660(10) 0.28928(8)
N11 N 0.5974(2) 0.26750(10) 0.45891(8)
N12 N 0.6807(2) 0.23950(10) 0.51621(9)
C1 C 0.4495(2) 0.27860(10) 0.12690(10)
C2 C 0.4532(2) 0.30250(10) 0.08390(10)
C3 C 0.4056(2) 0.27620(10) 0.05070(10)
C4 C 0.4054(3) 0.2954(2) 0.00930(10)
C5 C 0.4545(3) 0.3413(2) 0.00070(10)
C6 C 0.5026(3) 0.36820(10) 0.03340(10)
C7 C 0.5025(2) 0.34970(10) 0.07530(10)
C8 C 0.5516(2) 0.38260(10) 0.10920(10)
C9 C 0.6484(2) 0.40290(10) 0.10230(10)
C10 C 0.6916(2) 0.43650(10) 0.13170(10)
C11 C 0.6396(2) 0.45090(10) 0.16790(10)
C12 C 0.5437(2) 0.43020(10) 0.17550(10)
C13 C 0.5005(2) 0.39630(10) 0.14620(10)
C14 C 0.6829(3) 0.48920(10) 0.19970(10)
C15 C 0.8085(2) 0.56090(10) 0.18030(10)
C16 C 0.9018(3) 0.53740(10) 0.19860(10)
C17 C 0.7938(3) 0.60760(10) 0.16110(10)
C18 C 0.6468(3) 0.57350(10) 0.16180(10)
C19 C 0.5370(3) 0.56420(10) 0.15340(10)
C20 C 0.5157(3) 0.5473(2) 0.10740(10)
C21 C 0.4063(3) 0.5354(2) 0.09860(10)
C22 C 0.3849(4) 0.5172(2) 0.05390(10)
C23 C 0.7206(2) 0.46760(10) 0.30630(9)
C24 C 0.6840(2) 0.51090(10) 0.33300(10)
C25 C 0.7006(3) 0.56170(10) 0.31890(10)
C26 C 0.6697(3) 0.60380(10) 0.34290(10)
C27 C 0.6227(3) 0.59610(10) 0.38190(10)
C28 C 0.6055(3) 0.54600(10) 0.39640(10)
C29 C 0.6348(2) 0.50230(10) 0.37230(10)
C30 C 0.6107(2) 0.45000(10) 0.38890(10)
C31 C 0.5111(3) 0.43770(10) 0.40010(10)
C32 C 0.4861(3) 0.38870(10) 0.41510(10)
C33 C 0.5578(2) 0.35020(10) 0.41930(10)
C34 C 0.6578(2) 0.36240(10) 0.40930(10)
C35 C 0.6833(2) 0.41100(10) 0.39440(10)
C36 C 0.5245(2) 0.29650(10) 0.43290(10)
C37 C 0.6463(2) 0.22160(10) 0.44690(10)
C38 C 0.6373(3) 0.19770(10) 0.40380(10)
C39 C 0.6950(2) 0.20660(10) 0.48290(10)
C40 C 0.6204(3) 0.27640(10) 0.50090(10)
C41 C 0.5876(3) 0.32300(10) 0.52530(10)
C42 C 0.6699(3) 0.36490(10) 0.52720(10)
C43 C 0.6306(4) 0.4174(2) 0.5411(2)
C44 C 0.7060(6) 0.4587(3) 0.5409(3)
H1 H 1.0186 0.1225 0.2355
H2 H 1.0286 0.1635 0.2705
H3 H 0.3705 0.2434 0.0568
H4 H 0.3706 0.2763 -0.0136
H5 H 0.4555 0.3548 -0.0287
H6 H 0.5372 0.4011 0.0267
H7 H 0.6863 0.3932 0.0764
H8 H 0.7600 0.4503 0.1265
H9 H 0.5067 0.4395 0.2017
H10 H 0.4326 0.3820 0.1517
H11 H 0.7336 0.5676 0.2911
H12 H 0.6814 0.6394 0.3327
H13 H 0.6017 0.6259 0.3995
H14 H 0.5718 0.5407 0.4241
H15 H 0.4582 0.4644 0.3976
H16 H 0.4152 0.3814 0.4228
H17 H 0.7107 0.3358 0.4123
H18 H 0.7545 0.4187 0.3877
H19 H 0.7435 0.4740 0.2124
H20 H 0.6327 0.4953 0.2220
H21 H 0.9591 0.5520 0.1832
H22 H 0.8989 0.5001 0.1936
H23 H 0.5129 0.5372 0.1726
H24 H 0.5002 0.5962 0.1590
H25 H 0.5553 0.5163 0.1013
H26 H 0.5366 0.5752 0.0883
H27 H 0.3851 0.5081 0.1181
H28 H 0.3670 0.5666 0.1041
H29 H 0.4440 0.4991 0.0436
H30 H 0.3268 0.4946 0.0537
H31 H 0.3715 0.5466 0.0358
H32 H 0.5104 0.2763 0.4073
H33 H 0.4626 0.3002 0.4496
H34 H 0.5670 0.1875 0.3993
H35 H 0.6804 0.1671 0.4032
H36 H 0.5281 0.3374 0.5112
H37 H 0.5700 0.3129 0.5544
H38 H 0.7002 0.3683 0.4990
H39 H 0.7215 0.3541 0.5476
H40 H 0.5755 0.4268 0.5219
H41 H 0.6045 0.4143 0.5701
H42 H 0.7365 0.4601 0.5688
H43 H 0.6730 0.4911 0.5343
H44 H 0.7572 0.4506 0.5200
H45 H 0.8776 0.5205 0.2586
H46 H 0.7385 0.2385 0.3717
H47 H 0.7837 0.2163 0.2761
H48 H 0.6866 0.2012 0.2594
H49 H 0.8671 0.3425 0.1798
H50 H 0.8021 0.3135 0.1478
H51 H 0.8320 0.2303 0.1068
H52 H 0.8551 0.1723 0.1178
H53 H 0.5510 0.3213 0.3065
H54 H 0.6371 0.2883 0.3145
K2G K 0.41160(10) 0.22078(5) 0.29732(5)
O7G O 1.0678(3) 0.28690(10) 0.19280(10)
O8 O 0.7257(2) 0.27690(10) 0.10306(8)
H55 H 0.6644 0.2793 0.1184
H56 H 0.7084 0.2743 0.0734
O9 O 0.9657(2) 0.38630(10) 0.20690(10)
H57 H 0.9191 0.3987 0.2277
H58 H 1.0261 0.4037 0.2037
loop_
_geom_bond_atom_site_label_1
_geom_bond_atom_site_label_2
_geom_bond_site_symmetry_1
_geom_bond_site_symmetry_2
K1 O3 1_555 1_555
K2 O3 1_555 1_555
Cl1 C17 1_555 1_555
Cl2 C39 1_555 1_555
O1 C16 1_555 1_555
O2 C38 1_555 1_555
O3 H47 1_555 1_555
O4 K1 1_555 1_555
O5 K2 1_555 1_555
O6 K2 1_555 1_555
O7 K1 1_555 1_555
O8 H55 1_555 1_555
O9 H57 1_555 1_555
N1 K1 1_555 1_555
N2 K1 1_555 1_555
N3 N2 1_555 1_555
N4 N3 1_555 1_555
N5 C14 1_555 1_555
N6 C17 1_555 1_555
N7 N8 1_555 1_555
N8 K1 1_555 1_555
N9 N8 1_555 1_555
N10 N9 1_555 1_555
N11 C36 1_555 1_555
N12 C39 1_555 1_555
C1 N1 1_555 1_555
C2 C1 1_555 1_555
C3 C2 1_555 1_555
C4 C3 1_555 1_555
C5 C4 1_555 1_555
C6 C5 1_555 1_555
C7 C2 1_555 1_555
C8 C7 1_555 1_555
C9 C8 1_555 1_555
C10 C9 1_555 1_555
C11 C10 1_555 1_555
C12 C11 1_555 1_555
C13 C8 1_555 1_555
C14 C11 1_555 1_555
C15 N5 1_555 1_555
C16 C15 1_555 1_555
C17 C15 1_555 1_555
C18 N5 1_555 1_555
C19 C18 1_555 1_555
C20 C19 1_555 1_555
C21 C20 1_555 1_555
C22 C21 1_555 1_555
C23 N7 1_555 1_555
C24 C23 1_555 1_555
C25 C24 1_555 1_555
C26 C25 1_555 1_555
C27 C26 1_555 1_555
C28 C27 1_555 1_555
C29 C24 1_555 1_555
C30 C29 1_555 1_555
C31 C30 1_555 1_555
C32 C31 1_555 1_555
C33 C32 1_555 1_555
C34 C33 1_555 1_555
C35 C30 1_555 1_555
C36 C33 1_555 1_555
C37 N11 1_555 1_555
C38 C37 1_555 1_555
C39 C37 1_555 1_555
C40 N11 1_555 1_555
C41 C40 1_555 1_555
C42 C41 1_555 1_555
C43 C42 1_555 1_555
C44 C43 1_555 1_555
H1 O6 1_555 1_555
H2 O6 1_555 1_555
H3 C3 1_555 1_555
H4 C4 1_555 1_555
H5 C5 1_555 1_555
H6 C6 1_555 1_555
H7 C9 1_555 1_555
H8 C10 1_555 1_555
H9 C12 1_555 1_555
H10 C13 1_555 1_555
H11 C25 1_555 1_555
H12 C26 1_555 1_555
H13 C27 1_555 1_555
H14 C28 1_555 1_555
H15 C31 1_555 1_555
H16 C32 1_555 1_555
H17 C34 1_555 1_555
H18 C35 1_555 1_555
H19 C14 1_555 1_555
H20 C14 1_555 1_555
H21 C16 1_555 1_555
H22 C16 1_555 1_555
H23 C19 1_555 1_555
H24 C19 1_555 1_555
H25 C20 1_555 1_555
H26 C20 1_555 1_555
H27 C21 1_555 1_555
H28 C21 1_555 1_555
H29 C22 1_555 1_555
H30 C22 1_555 1_555
H31 C22 1_555 1_555
H32 C36 1_555 1_555
H33 C36 1_555 1_555
H34 C38 1_555 1_555
H35 C38 1_555 1_555
H36 C41 1_555 1_555
H37 C41 1_555 1_555
H38 C42 1_555 1_555
H39 C42 1_555 1_555
H40 C43 1_555 1_555
H41 C43 1_555 1_555
H42 C44 1_555 1_555
H43 C44 1_555 1_555
H44 C44 1_555 1_555
H45 O1 1_555 1_555
H46 O2 1_555 1_555
H48 O3 1_555 1_555
H49 O4 1_555 1_555
H50 O4 1_555 1_555
H51 O5 1_555 1_555
H52 O5 1_555 1_555
H53 O7 1_555 1_555
H54 O7 1_555 1_555
H56 O8 1_555 1_555
H58 O9 1_555 1_555
K2G O7 1_555 1_555
O7G K2 1_555 1_555
K2 O4 1_555 1_555
N1 N2 1_555 1_555
N4 C1 1_555 1_555
N6 C18 1_555 1_555
N10 C23 1_555 1_555
N12 C40 1_555 1_555
C6 C7 1_555 1_555
C12 C13 1_555 1_555
C28 C29 1_555 1_555
C34 C35 1_555 1_555

#END
