
#######################################################################
#
#                 Cambridge Crystallographic Data Centre
#                                CCDC 
#
#######################################################################
#
# If this CIF has been generated from an entry in the Cambridge 
# Structural Database, then it will include bibliographic, chemical, 
# crystal, experimental, refinement or atomic coordinate data resulting 
# from the CCDC's data processing and validation procedures.
#
#######################################################################

data_KASQUQ
_symmetry_cell_setting           orthorhombic
_symmetry_space_group_name_H-M   'P b c a'
_symmetry_Int_Tables_number      61
_space_group_name_Hall           '-P 2ac 2ab'
loop_
_symmetry_equiv_pos_site_id
_symmetry_equiv_pos_as_xyz
1 x,y,z
2 1/2-x,1/2+y,z
3 x,1/2-y,1/2+z
4 1/2+x,y,1/2-z
5 -x,-y,-z
6 1/2+x,1/2-y,-z
7 -x,1/2+y,1/2-z
8 1/2-x,-y,1/2+z
_cell_length_a                   14.48(1)
_cell_length_b                   15.64(1)
_cell_length_c                   10.957(6)
_cell_angle_alpha                90
_cell_angle_beta                 90
_cell_angle_gamma                90
_cell_volume                     2481.4
loop_
_atom_site_label
_atom_site_type_symbol
_atom_site_fract_x
_atom_site_fract_y
_atom_site_fract_z
Zn1 Zn 0.35013(3) 0.12902(3) -0.10321(4)
S1 S 0.32254(8) 0.23467(6) -0.24616(8)
S2 S 0.47834(7) 0.15848(7) 0.02450(8)
O1 O 0.3849(2) 0.0193(2) -0.1743(2)
O2 O 0.3226(2) 0.0448(2) -0.3575(2)
O3 O 0.3431(2) -0.0694(2) -0.6237(3)
O4 O 0.2473(2) -0.1175(2) -0.4790(2)
N1 N 0.3494(3) 0.3374(2) -0.0519(3)
N2 N 0.3074(3) 0.4018(2) -0.2308(3)
N3 N 0.5603(3) 0.1659(3) -0.1938(3)
N4 N 0.6337(2) 0.0864(3) -0.0476(3)
C1 C 0.3743(3) 0.0032(2) -0.2887(3)
C2 C 0.4279(3) -0.0719(3) -0.3347(3)
C3 C 0.4076(3) -0.1137(3) -0.4358(3)
C4 C 0.3274(3) -0.0965(2) -0.5178(3)
C5 C 0.3271(3) 0.3314(3) -0.1694(3)
C6 C 0.5639(3) 0.1345(3) -0.0815(4)
H1 H 0.3646 0.2896 -0.0048
H2 H 0.3524 0.3940 -0.0132
H3 H 0.3095 0.4573 -0.1926
H4 H 0.2903 0.3991 -0.3151
H5 H 0.5095 0.2012 -0.2172
H6 H 0.6065 0.1518 -0.2510
H7 H 0.6378 0.0638 0.0314
H8 H 0.6813 0.0719 -0.1069
H9 H 0.4806 -0.0887 -0.2895
H10 H 0.4465 -0.1630 -0.4524
O4G O 0.2527(2) 0.1175(2) 0.0210(2)
Zn1G Zn 0.14987(3) -0.12902(3) -0.60321(4)
loop_
_geom_bond_atom_site_label_1
_geom_bond_atom_site_label_2
_geom_bond_site_symmetry_1
_geom_bond_site_symmetry_2
Zn1 S1 1_555 1_555
S1 C5 1_555 1_555
S2 Zn1 1_555 1_555
O1 Zn1 1_555 1_555
O2 C1 1_555 1_555
O3 C4 1_555 1_555
O4 C4 1_555 1_555
N1 C5 1_555 1_555
N2 C5 1_555 1_555
N3 C6 1_555 1_555
N4 C6 1_555 1_555
C1 O1 1_555 1_555
C2 C1 1_555 1_555
C3 C2 1_555 1_555
C4 C3 1_555 1_555
C6 S2 1_555 1_555
H1 N1 1_555 1_555
H2 N1 1_555 1_555
H3 N2 1_555 1_555
H4 N2 1_555 1_555
H5 N3 1_555 1_555
H6 N3 1_555 1_555
H7 N4 1_555 1_555
H8 N4 1_555 1_555
H9 C2 1_555 1_555
H10 C3 1_555 1_555
O4G Zn1 1_555 1_555
Zn1G O4 1_555 1_555

#END
