
#######################################################################
#
#                 Cambridge Crystallographic Data Centre
#                                CCDC 
#
#######################################################################
#
# If this CIF has been generated from an entry in the Cambridge 
# Structural Database, then it will include bibliographic, chemical, 
# crystal, experimental, refinement or atomic coordinate data resulting 
# from the CCDC's data processing and validation procedures.
#
#######################################################################

data_KASQUS
_symmetry_cell_setting           monoclinic
_symmetry_space_group_name_H-M   'P 21/c'
_symmetry_Int_Tables_number      14
_space_group_name_Hall           '-P 2ybc'
loop_
_symmetry_equiv_pos_site_id
_symmetry_equiv_pos_as_xyz
1 x,y,z
2 -x,1/2+y,1/2-z
3 -x,-y,-z
4 x,1/2-y,1/2+z
_cell_length_a                   13.7007(16)
_cell_length_b                   17.152(2)
_cell_length_c                   21.461(3)
_cell_angle_alpha                90
_cell_angle_beta                 90.003(3)
_cell_angle_gamma                90
_cell_volume                     5043.21
loop_
_atom_site_label
_atom_site_type_symbol
_atom_site_fract_x
_atom_site_fract_y
_atom_site_fract_z
O1 O 1.1402(2) 0.69682(17) 0.42112(14)
Zn1 Zn 1.24314(2) 0.83637(2) 0.857581(18)
O2 O 1.1409(2) 0.82732(16) 0.42329(13)
Zn2 Zn 1.24454(2) 0.66178(2) 0.855422(18)
C1 C 0.7441(3) 0.7528(2) 0.63807(12)
C2 C 0.8375(3) 0.7542(2) 0.6740(2)
C3 C 0.9006(3) 0.6905(2) 0.67431(18)
H1 H 0.8842 0.6452 0.6510
C4 C 0.9865(3) 0.6919(2) 0.70805(18)
H2 H 1.0278 0.6474 0.7088
C5 C 1.0120(3) 0.7584(2) 0.7407(2)
C6 C 0.9508(3) 0.8230(2) 0.7403(2)
H3 H 0.9693 0.8692 0.7616
C7 C 0.8624(3) 0.8199(2) 0.70848(19)
H4 H 0.8187 0.8628 0.7104
C8 C 1.1052(3) 0.7605(2) 0.7787(2)
O3 O 1.1360(2) 0.82720(17) 0.79354(14)
O4 O 1.1422(2) 0.69642(18) 0.79258(14)
C9 C 0.6530(3) 0.75143(19) 0.6756(2)
C10 C 0.6337(3) 0.6872(2) 0.71384(18)
H5 H 0.6804 0.6466 0.7177
C11 C 0.5464(3) 0.6829(2) 0.74613(19)
H6 H 0.5327 0.6382 0.7708
C12 C 0.4784(3) 0.7431(2) 0.7430(2)
C13 C 0.5002(3) 0.8087(2) 0.70706(18)
H7 H 0.4561 0.8514 0.7062
C14 C 0.5862(3) 0.8120(2) 0.67246(18)
H8 H 0.5991 0.8559 0.6467
C15 C 0.3846(3) 0.7392(2) 0.7789(2)
O5 O 0.3461(2) 0.80278(17) 0.79461(14)
O6 O 0.3535(2) 0.67222(17) 0.79210(14)
C16 C 0.7436(3) 0.7534(2) 0.57544(13)
C17 C 0.6508(3) 0.74970(19) 0.5394(2)
C18 C 0.5884(3) 0.6869(2) 0.54562(19)
H9 H 0.6048 0.6455 0.5731
C19 C 0.5022(3) 0.6839(2) 0.51215(19)
H10 H 0.4606 0.6399 0.5161
C20 C 0.4763(3) 0.7441(2) 0.4731(2)
C21 C 0.5387(3) 0.8066(2) 0.4661(2)
H11 H 0.5213 0.8485 0.4394
C22 C 0.6269(3) 0.8086(2) 0.49794(19)
H12 H 0.6710 0.8506 0.4913
C23 C 0.3840(3) 0.7421(2) 0.4363(2)
O7 O 0.3474(2) 0.67569(16) 0.42493(14)
O8 O 0.3491(2) 0.80600(16) 0.41840(14)
C24 C 0.8360(3) 0.7566(2) 0.5391(2)
C25 C 0.8716(3) 0.6900(2) 0.50922(19)
H13 H 0.8352 0.6429 0.5106
C26 C 0.9587(3) 0.6921(2) 0.47795(19)
H14 H 0.9826 0.6458 0.4591
C27 C 1.0127(3) 0.7600(2) 0.4730(2)
C28 C 0.9771(3) 0.8270(2) 0.50172(17)
H15 H 1.0131 0.8742 0.4991
C29 C 0.8892(3) 0.8253(2) 0.53424(18)
H16 H 0.8654 0.8716 0.5533
C30 C 1.1054(3) 0.7617(2) 0.4366(2)
O9 O 1.2442(2) 0.95185(14) 0.86133(12)
H17 H 1.226(3) 0.973(2) 0.8941(12)
H18 H 1.241(4) 0.977(2) 0.8292(12)
O10 O 1.24179(19) 0.54546(14) 0.85735(13)
H19 H 1.262(3) 0.525(2) 0.8905(12)
H20 H 1.255(4) 0.516(2) 0.8256(13)
O1C O 1.1402(2) 0.80318(17) 0.92112(14)
Zn1C Zn 1.24314(2) 0.66363(2) 0.357581(18)
Zn1_2 Zn 0.24314(2) 0.83637(2) 0.857581(18)
Zn1C_2 Zn 0.24314(2) 0.66363(2) 0.357581(18)
O2C O 1.1409(2) 0.67268(16) 0.92329(13)
Zn2C Zn 1.24454(2) 0.83822(2) 0.355422(18)
Zn2_2 Zn 0.24454(2) 0.66178(2) 0.855422(18)
Zn2C_2 Zn 0.24454(2) 0.83822(2) 0.355422(18)
O5_2 O 1.3461(2) 0.80278(17) 0.79461(14)
O6_2 O 1.3535(2) 0.67222(17) 0.79210(14)
O7C O 1.3474(2) 0.82431(16) 0.92493(14)
O8C O 1.3491(2) 0.69400(16) 0.91840(14)
N1 N 0.1123(2) 0.0570(2) 0.67892(16)
C31 C 0.1369(3) 0.0247(2) 0.73289(19)
H21 H 0.0878 -0.0033 0.7547
O11 O 0.2194(2) 0.02821(16) 0.75706(14)
C32 C 0.1881(3) 0.0978(2) 0.6414(2)
H22 H 0.1797 0.0842 0.5969
H23 H 0.2536 0.0798 0.6546
C33 C 0.1823(4) 0.1851(2) 0.6487(2)
H24 H 0.1161 0.2028 0.6387
H25 H 0.2290 0.2100 0.6204
H26 H 0.1981 0.1993 0.6918
C34 C 0.0130(3) 0.0521(3) 0.6556(2)
H27 H -0.0073 0.1043 0.6405
H28 H -0.0309 0.0375 0.6903
C35 C 0.0008(3) -0.0055(3) 0.6038(3)
H29 H 0.0500 0.0043 0.5716
H30 H -0.0646 0.0000 0.5857
H31 H 0.0088 -0.0584 0.6202
N2 N 0.1563(3) 0.9177(2) 0.05627(17)
C36 C 0.1970(3) 0.9441(2) 0.00390(19)
H32 H 0.2571 0.9215 -0.0088
O12 O 0.1622(3) 0.99561(18) -0.02912(14)
C37 C 0.0608(4) 0.9458(3) 0.0769(2)
H33 H 0.0229 0.9008 0.0926
H34 H 0.0256 0.9669 0.0402
C38 C 0.0625(4) 1.0071(3) 0.1262(2)
H35 H 0.0917 0.9857 0.1642
H36 H -0.0044 1.0242 0.1350
H37 H 0.1012 1.0516 0.1118
C39 C 0.1980(5) 0.8499(3) 0.0866(2)
H38 H 0.2415 0.8230 0.0567
H39 H 0.1446 0.8135 0.0975
C40 C 0.2557(4) 0.8681(3) 0.1452(2)
H40 H 0.3180 0.8923 0.1338
H41 H 0.2682 0.8197 0.1681
H42 H 0.2183 0.9040 0.1715
N3 N 0.4164(3) 0.4437(2) 0.68976(17)
C41 C 0.3734(3) 0.4829(2) 0.73430(19)
H43 H 0.4078 0.5262 0.7511
O13 O 0.2922(2) 0.46869(17) 0.75632(14)
C42 C 0.3736(4) 0.3729(2) 0.66492(18)
H44 H 0.3390 0.3448 0.6987
H45 H 0.4261 0.3385 0.6491
C43 C 0.3045(4) 0.3901(3) 0.6140(3)
H46 H 0.2536 0.4254 0.6292
H47 H 0.2746 0.3414 0.5995
H48 H 0.3395 0.4148 0.5794
C44 C 0.5154(3) 0.4650(3) 0.6677(2)
H49 H 0.5579 0.4184 0.6701
H50 H 0.5429 0.5050 0.6960
C45 C 0.5171(4) 0.4957(3) 0.6025(3)
H51 H 0.4880 0.4571 0.5744
H52 H 0.5847 0.5058 0.5900
H53 H 0.4796 0.5443 0.6004
N4 N 0.3275(7) 0.5885(4) 0.0526(4)
C46 C 0.2850(16) 0.5553(12) 0.0039(10)
H54 H 0.2208 0.5719 -0.0063
O14 O 0.3227(6) 0.5037(5) -0.0298(4)
C47 C 0.4280(6) 0.5673(5) 0.0696(4)
H55 H 0.4613 0.6138 0.0869
H56 H 0.4636 0.5513 0.0316
C48 C 0.4332(11) 0.5024(10) 0.1165(7)
H57 H 0.5017 0.4902 0.1254
H58 H 0.4006 0.4561 0.0998
H59 H 0.4007 0.5187 0.1551
C49 C 0.2803(9) 0.6554(4) 0.0843(4)
H60 H 0.3296 0.6970 0.0902
H61 H 0.2288 0.6764 0.0566
C50 C 0.2364(7) 0.6377(6) 0.1450(4)
H62 H 0.2055 0.6847 0.1618
H63 H 0.2872 0.6198 0.1738
H64 H 0.1872 0.5967 0.1400
C51? C 0.288(4) 0.554(3) -0.001(2)
C52? C 0.4363(12) 0.5271(12) 0.0563(8)
C53? C 0.455(3) 0.502(3) 0.1224(14)
C54? C 0.323(2) 0.6377(10) 0.0859(10)
C55? C 0.2623(19) 0.6226(17) 0.1433(12)
H65? H 0.2455 0.5943 -0.0144
H66? H 0.4882 0.5635 0.0428
H67? H 0.4384 0.4809 0.0287
H68? H 0.5198 0.4783 0.1252
H69? H 0.4053 0.4644 0.1352
H70? H 0.4522 0.5479 0.1498
H71? H 0.2898 0.6764 0.0592
H72? H 0.3869 0.6599 0.0986
H73? H 0.2502 0.6719 0.1650
H74? H 0.2971 0.5868 0.1710
H75? H 0.1999 0.5993 0.1310
N5? N 0.3397(16) 0.5659(11) 0.0502(9)
O15? O 0.2898(16) 0.4931(12) -0.0326(10)
loop_
_geom_bond_atom_site_label_1
_geom_bond_atom_site_label_2
_geom_bond_site_symmetry_1
_geom_bond_site_symmetry_2
O1 C30 1_555 1_555
Zn1 O3 1_555 1_555
O2 C30 1_555 1_555
Zn2 O4 1_555 1_555
C1 C2 1_555 1_555
C2 C3 1_555 1_555
C3 H1 1_555 1_555
C4 C3 1_555 1_555
H2 C4 1_555 1_555
C5 C4 1_555 1_555
C6 C5 1_555 1_555
H3 C6 1_555 1_555
C7 C2 1_555 1_555
H4 C7 1_555 1_555
C8 C5 1_555 1_555
O3 C8 1_555 1_555
O4 C8 1_555 1_555
C9 C1 1_555 1_555
C10 C9 1_555 1_555
H5 C10 1_555 1_555
C11 C10 1_555 1_555
H6 C11 1_555 1_555
C12 C11 1_555 1_555
C13 C12 1_555 1_555
H7 C13 1_555 1_555
C14 C9 1_555 1_555
H8 C14 1_555 1_555
C15 C12 1_555 1_555
O5 C15 1_555 1_555
O6 C15 1_555 1_555
C16 C1 1_555 1_555
C17 C16 1_555 1_555
C18 C17 1_555 1_555
H9 C18 1_555 1_555
C19 C18 1_555 1_555
H10 C19 1_555 1_555
C20 C19 1_555 1_555
C21 C20 1_555 1_555
H11 C21 1_555 1_555
C22 C17 1_555 1_555
H12 C22 1_555 1_555
C23 C20 1_555 1_555
O7 C23 1_555 1_555
O8 C23 1_555 1_555
C24 C16 1_555 1_555
C25 C24 1_555 1_555
H13 C25 1_555 1_555
C26 C25 1_555 1_555
H14 C26 1_555 1_555
C27 C26 1_555 1_555
C28 C27 1_555 1_555
H15 C28 1_555 1_555
C29 C24 1_555 1_555
H16 C29 1_555 1_555
C30 C27 1_555 1_555
O9 Zn1 1_555 1_555
H17 O9 1_555 1_555
H18 O9 1_555 1_555
O10 Zn2 1_555 1_555
H19 O10 1_555 1_555
H20 O10 1_555 1_555
N1 C31 1_555 1_555
C31 H21 1_555 1_555
O11 C31 1_555 1_555
C32 N1 1_555 1_555
H22 C32 1_555 1_555
H23 C32 1_555 1_555
C33 C32 1_555 1_555
H24 C33 1_555 1_555
H25 C33 1_555 1_555
H26 C33 1_555 1_555
C34 N1 1_555 1_555
H27 C34 1_555 1_555
H28 C34 1_555 1_555
C35 C34 1_555 1_555
H29 C35 1_555 1_555
H30 C35 1_555 1_555
H31 C35 1_555 1_555
N2 C36 1_555 1_555
C36 H32 1_555 1_555
O12 C36 1_555 1_555
C37 N2 1_555 1_555
H33 C37 1_555 1_555
H34 C37 1_555 1_555
C38 C37 1_555 1_555
H35 C38 1_555 1_555
H36 C38 1_555 1_555
H37 C38 1_555 1_555
C39 N2 1_555 1_555
H38 C39 1_555 1_555
H39 C39 1_555 1_555
C40 C39 1_555 1_555
H40 C40 1_555 1_555
H41 C40 1_555 1_555
H42 C40 1_555 1_555
N3 C41 1_555 1_555
C41 H43 1_555 1_555
O13 C41 1_555 1_555
C42 N3 1_555 1_555
H44 C42 1_555 1_555
H45 C42 1_555 1_555
C43 C42 1_555 1_555
H46 C43 1_555 1_555
H47 C43 1_555 1_555
H48 C43 1_555 1_555
C44 N3 1_555 1_555
H49 C44 1_555 1_555
H50 C44 1_555 1_555
C45 C44 1_555 1_555
H51 C45 1_555 1_555
H52 C45 1_555 1_555
H53 C45 1_555 1_555
N4 C46 1_555 1_555
C46 H54 1_555 1_555
O14 C46 1_555 1_555
C47 N4 1_555 1_555
H55 C47 1_555 1_555
H56 C47 1_555 1_555
C48 C47 1_555 1_555
H57 C48 1_555 1_555
H58 C48 1_555 1_555
H59 C48 1_555 1_555
C49 N4 1_555 1_555
H60 C49 1_555 1_555
H61 C49 1_555 1_555
C50 C49 1_555 1_555
H62 C50 1_555 1_555
H63 C50 1_555 1_555
H64 C50 1_555 1_555
O1C Zn1 1_555 1_555
Zn1C O1 1_555 1_555
Zn1_2 O5 1_555 1_555
Zn1C_2 O7 1_555 1_555
O2C Zn2 1_555 1_555
Zn2C O2 1_555 1_555
Zn2_2 O6 1_555 1_555
Zn2C_2 O8 1_555 1_555
O5_2 Zn1 1_555 1_555
O6_2 Zn2 1_555 1_555
O7C Zn1 1_555 1_555
O8C Zn2 1_555 1_555
C6 C7 1_555 1_555
C13 C14 1_555 1_555
C21 C22 1_555 1_555
C28 C29 1_555 1_555

#END
