
#######################################################################
#
#                 Cambridge Crystallographic Data Centre
#                                CCDC 
#
#######################################################################
#
# If this CIF has been generated from an entry in the Cambridge 
# Structural Database, then it will include bibliographic, chemical, 
# crystal, experimental, refinement or atomic coordinate data resulting 
# from the CCDC's data processing and validation procedures.
#
#######################################################################

data_KASRUS
_symmetry_cell_setting           monoclinic
_symmetry_space_group_name_H-M   'P 21'
_symmetry_Int_Tables_number      4
_space_group_name_Hall           'P 2yb'
loop_
_symmetry_equiv_pos_site_id
_symmetry_equiv_pos_as_xyz
1 x,y,z
2 -x,1/2+y,-z
_cell_length_a                   3.8671(4)
_cell_length_b                   14.8937(17)
_cell_length_c                   7.6363(9)
_cell_angle_alpha                90
_cell_angle_beta                 93.742(2)
_cell_angle_gamma                90
_cell_volume                     438.878
loop_
_atom_site_label
_atom_site_type_symbol
_atom_site_fract_x
_atom_site_fract_y
_atom_site_fract_z
Cu1 Cu 0.3637(2) 0.86139(5) 0.63901(10)
Cl1 Cl 0.3741(5) 0.75984(13) 0.8595(2)
Cl2 Cl -0.2257(5) 0.95448(14) 0.7671(2)
N1 N 0.0701(15) 0.7804(4) 0.4796(8)
N2 N -0.1181(16) 0.7476(4) 0.2112(9)
H1 H -0.1604 0.7514 0.0995
N3 N 0.2332(18) 0.9406(4) 0.1335(8)
H2 H 0.1502 0.9267 0.0299
N4 N 0.3698(16) 0.9325(4) 0.4157(8)
C1 C -0.0925(18) 0.6984(5) 0.4822(10)
H3 H -0.1154 0.6628 0.5808
C2 C -0.214(2) 0.6785(5) 0.3162(11)
H4 H -0.3380 0.6275 0.2804
C3 C 0.0498(18) 0.8069(5) 0.3117(9)
C4 C 0.2134(18) 0.8932(5) 0.2766(9)
C5 C 0.499(2) 1.0099(5) 0.3543(10)
H5 H 0.6276 1.0520 0.4205
C6 C 0.410(2) 1.0157(6) 0.1810(11)
H6 H 0.4606 1.0630 0.1076
Cu1_2 Cu -0.6363(2) 0.86139(5) 0.63901(10)
Cl2_2 Cl 0.7743(5) 0.95448(14) 0.7671(2)
loop_
_geom_bond_atom_site_label_1
_geom_bond_atom_site_label_2
_geom_bond_site_symmetry_1
_geom_bond_site_symmetry_2
Cu1 Cl1 1_555 1_555
Cl2 Cu1 1_555 1_555
N1 Cu1 1_555 1_555
N2 H1 1_555 1_555
N3 H2 1_555 1_555
N4 Cu1 1_555 1_555
C1 N1 1_555 1_555
H3 C1 1_555 1_555
C2 N2 1_555 1_555
H4 C2 1_555 1_555
C3 N1 1_555 1_555
C4 N3 1_555 1_555
C5 N4 1_555 1_555
H5 C5 1_555 1_555
C6 N3 1_555 1_555
H6 C6 1_555 1_555
Cu1_2 Cl2 1_555 1_555
Cl2_2 Cu1 1_555 1_555
N2 C3 1_555 1_555
N4 C4 1_555 1_555
C1 C2 1_555 1_555
C3 C4 1_555 1_555
C5 C6 1_555 1_555

#END
