
#######################################################################
#
#                 Cambridge Crystallographic Data Centre
#                                CCDC 
#
#######################################################################
#
# If this CIF has been generated from an entry in the Cambridge 
# Structural Database, then it will include bibliographic, chemical, 
# crystal, experimental, refinement or atomic coordinate data resulting 
# from the CCDC's data processing and validation procedures.
#
#######################################################################

data_KASREC
_symmetry_cell_setting           monoclinic
_symmetry_space_group_name_H-M   'P 21/c'
_symmetry_Int_Tables_number      14
_space_group_name_Hall           '-P 2ybc'
loop_
_symmetry_equiv_pos_site_id
_symmetry_equiv_pos_as_xyz
1 x,y,z
2 -x,1/2+y,1/2-z
3 -x,-y,-z
4 x,1/2-y,1/2+z
_cell_length_a                   13.901(3)
_cell_length_b                   15.370(3)
_cell_length_c                   10.742(2)
_cell_angle_alpha                90
_cell_angle_beta                 101.61(3)
_cell_angle_gamma                90
_cell_volume                     2248.16
loop_
_atom_site_label
_atom_site_type_symbol
_atom_site_fract_x
_atom_site_fract_y
_atom_site_fract_z
Cd1 Cd 0.76417(2) 0.143867(18) 0.34358(3)
Mo1 Mo 0.82708(3) 0.13525(2) 0.00745(3)
O1 O 0.8087(3) 0.1648(2) 0.1595(3)
O3 O 0.7852(3) 0.2810(2) 0.3980(3)
O4 O 0.9512(3) 0.1171(3) 0.0171(3)
O5 O 0.7590(3) 0.0418(2) -0.0429(3)
N1 N 0.7861(2) -0.0096(2) 0.3265(3)
N2 N 0.8821(3) 0.0934(2) 0.5203(3)
N3 N 0.5991(3) 0.1374(3) 0.2297(4)
N4 N 0.6499(3) 0.1313(3) 0.4899(3)
C1 C 0.5720(4) 0.1421(4) 0.1033(5)
H3 H 0.6207 0.1496 0.0563
C2 C 0.4761(5) 0.1364(5) 0.0384(5)
H4 H 0.4615 0.1406 -0.0498
C3 C 0.4030(4) 0.1246(4) 0.1035(5)
H5 H 0.3381 0.1195 0.0604
C4 C 0.4265(3) 0.1201(3) 0.2371(4)
C5 C 0.3543(4) 0.1096(4) 0.3127(5)
H6 H 0.2885 0.1045 0.2734
C6 C 0.3796(4) 0.1071(4) 0.4398(5)
H7 H 0.3309 0.1000 0.4870
C7 C 0.4796(4) 0.1149(4) 0.5047(5)
C8 C 0.5098(4) 0.1132(4) 0.6391(5)
H8 H 0.4633 0.1064 0.6896
C9 C 0.6048(4) 0.1215(4) 0.6932(5)
H9 H 0.6246 0.1209 0.7812
C10 C 0.6743(4) 0.1310(4) 0.6156(5)
H10 H 0.7401 0.1374 0.6541
C11 C 0.5261(3) 0.1267(3) 0.2964(4)
C12 C 0.5540(3) 0.1243(3) 0.4342(4)
C13 C 0.9275(3) 0.1434(3) 0.6154(4)
H11 H 0.9270 0.2033 0.6034
C14 C 0.9756(3) 0.1102(3) 0.7320(4)
H12 H 1.0064 0.1475 0.7960
C15 C 0.9773(3) 0.0227(3) 0.7515(4)
H13 H 1.0076 -0.0002 0.8297
C16 C 0.9325(3) -0.0330(3) 0.6516(4)
C17 C 0.9345(4) -0.1262(3) 0.6628(4)
H14 H 0.9644 -0.1514 0.7395
C18 C 0.8940(3) -0.1777(3) 0.5651(4)
H15 H 0.8989 -0.2378 0.5735
C19 C 0.8430(3) -0.1399(3) 0.4469(4)
C20 C 0.7995(3) -0.1906(3) 0.3418(4)
H16 H 0.8026 -0.2510 0.3465
C21 C 0.7527(4) -0.1507(3) 0.2330(4)
H17 H 0.7251 -0.1835 0.1619
C22 C 0.7467(3) -0.0597(3) 0.2294(4)
H18 H 0.7135 -0.0333 0.1553
C23 C 0.8361(3) -0.0493(3) 0.4343(4)
C24 C 0.8839(3) 0.0061(3) 0.5375(3)
Mo1C Mo 0.82708(3) 0.36475(2) 0.50745(3)
O3C O 0.7852(3) 0.2190(2) -0.1020(3)
O2 O 0.8486(3) -0.1171(2) -0.0445(4)
H1 H 0.8260 -0.0656 -0.0554
H2 H 0.9070 -0.1237 -0.0556
loop_
_geom_bond_atom_site_label_1
_geom_bond_atom_site_label_2
_geom_bond_site_symmetry_1
_geom_bond_site_symmetry_2
Cd1 O1 1_555 1_555
Mo1 O1 1_555 1_555
O2 H1 1_555 1_555
H2 O2 1_555 1_555
O3 Cd1 1_555 1_555
O4 Mo1 1_555 1_555
O5 Mo1 1_555 1_555
N1 Cd1 1_555 1_555
N2 Cd1 1_555 1_555
N3 Cd1 1_555 1_555
N4 Cd1 1_555 1_555
C1 N3 1_555 1_555
H3 C1 1_555 1_555
C2 C1 1_555 1_555
H4 C2 1_555 1_555
C3 C2 1_555 1_555
H5 C3 1_555 1_555
C4 C3 1_555 1_555
C5 C4 1_555 1_555
H6 C5 1_555 1_555
C6 C5 1_555 1_555
H7 C6 1_555 1_555
C7 C6 1_555 1_555
C8 C7 1_555 1_555
H8 C8 1_555 1_555
C9 C8 1_555 1_555
H9 C9 1_555 1_555
C10 N4 1_555 1_555
H10 C10 1_555 1_555
C11 N3 1_555 1_555
C12 N4 1_555 1_555
C13 N2 1_555 1_555
H11 C13 1_555 1_555
C14 C13 1_555 1_555
H12 C14 1_555 1_555
C15 C14 1_555 1_555
H13 C15 1_555 1_555
C16 C15 1_555 1_555
C17 C16 1_555 1_555
H14 C17 1_555 1_555
C18 C17 1_555 1_555
H15 C18 1_555 1_555
C19 C18 1_555 1_555
C20 C19 1_555 1_555
H16 C20 1_555 1_555
C21 C20 1_555 1_555
H17 C21 1_555 1_555
C22 N1 1_555 1_555
H18 C22 1_555 1_555
C23 N1 1_555 1_555
C24 N2 1_555 1_555
Mo1C O3 1_555 1_555
O3C Mo1 1_555 1_555
C4 C11 1_555 1_555
C7 C12 1_555 1_555
C9 C10 1_555 1_555
C11 C12 1_555 1_555
C16 C24 1_555 1_555
C19 C23 1_555 1_555
C21 C22 1_555 1_555
C23 C24 1_555 1_555

#END
