
#######################################################################
#
#                 Cambridge Crystallographic Data Centre
#                                CCDC 
#
#######################################################################
#
# If this CIF has been generated from an entry in the Cambridge 
# Structural Database, then it will include bibliographic, chemical, 
# crystal, experimental, refinement or atomic coordinate data resulting 
# from the CCDC's data processing and validation procedures.
#
#######################################################################

data_KASSAZ
_symmetry_cell_setting           orthorhombic
_symmetry_space_group_name_H-M   'P c a 21'
_symmetry_Int_Tables_number      29
_space_group_name_Hall           'P 2c -2ac'
loop_
_symmetry_equiv_pos_site_id
_symmetry_equiv_pos_as_xyz
1 x,y,z
2 -x,-y,1/2+z
3 1/2-x,y,1/2+z
4 1/2+x,-y,z
_cell_length_a                   11.767(2)
_cell_length_b                   7.4180(15)
_cell_length_c                   33.870(7)
_cell_angle_alpha                90
_cell_angle_beta                 90
_cell_angle_gamma                90
_cell_volume                     2956.43
loop_
_atom_site_label
_atom_site_type_symbol
_atom_site_fract_x
_atom_site_fract_y
_atom_site_fract_z
Cu1 Cu 0.33425(3) 0.09184(6) 0.667215(13)
Br1 Br 0.07567(5) -0.48361(11) 0.820328(19)
S1 S 0.20441(9) -0.11723(15) 0.61383(4)
O1 O 0.3730(2) -0.0981(4) 0.70337(9)
N1 N 0.1976(3) 0.1526(5) 0.69653(9)
N2 N 0.2980(3) 0.3253(4) 0.63632(11)
N3 N -0.0150(3) -0.0758(5) 0.64335(12)
C1 C 0.1920(3) -0.1184(6) 0.73626(12)
C2 C 0.3036(3) -0.1779(6) 0.72835(12)
C3 C 0.3432(3) -0.3259(7) 0.74964(16)
H1 H 0.4174 -0.3650 0.7456
C4 C 0.2769(4) -0.4157(6) 0.77633(15)
H2 H 0.3062 -0.5128 0.7904
C5 C 0.1642(4) -0.3602(8) 0.78237(14)
C6 C 0.1232(3) -0.2129(7) 0.76302(13)
H3 H 0.0491 -0.1747 0.7676
C7 C 0.1461(3) 0.0470(6) 0.72063(12)
H4 H 0.0734 0.0798 0.7286
C8 C 0.1430(3) 0.3195(6) 0.68465(15)
H5 H 0.1677 0.4174 0.7016
H6 H 0.0612 0.3080 0.6870
C9 C 0.1750(3) 0.3588(6) 0.64241(15)
H7 H 0.1312 0.2824 0.6248
H8 H 0.1575 0.4834 0.6362
C10 C 0.3214(4) 0.3243(8) 0.59389(16)
H9 H 0.2739 0.2365 0.5812
H10 H 0.3998 0.2944 0.5895
H11 H 0.3059 0.4415 0.5831
C11 C 0.3676(4) 0.4688(7) 0.6555(2)
H12 H 0.3483 0.5839 0.6444
H13 H 0.4468 0.4449 0.6511
H14 H 0.3526 0.4700 0.6834
C12 C 0.0756(3) -0.0927(5) 0.63116(12)
Cu1C Cu -0.16575(3) -0.09184(6) 0.667215(13)
N3C N 0.4850(3) 0.0758(5) 0.64335(12)
Cu2 Cu 0.06807(4) 0.58332(6) 0.972960(14)
Br2 Br -0.17916(4) -0.04140(9) 0.826859(16)
S2 S -0.06251(9) 0.37270(16) 1.02598(4)
O2 O 0.1110(2) 0.3937(4) 0.93729(9)
N4 N -0.0690(3) 0.6343(5) 0.94268(10)
N5 N 0.0290(3) 0.8161(4) 1.00366(11)
N6 N -0.2805(3) 0.4281(5) 0.99760(12)
C13 C -0.0689(3) 0.3627(7) 0.90387(12)
C14 C 0.0439(3) 0.3088(6) 0.91264(11)
C15 C 0.0872(4) 0.1556(8) 0.89327(14)
H15 H 0.1622 0.1215 0.8976
C16 C 0.0212(4) 0.0561(7) 0.86824(14)
H16 H 0.0511 -0.0457 0.8561
C17 C -0.0912(4) 0.1068(7) 0.86090(12)
C18 C -0.1353(3) 0.2565(6) 0.87778(12)
H17 H -0.2098 0.2900 0.8722
C19 C -0.1168(3) 0.5282(6) 0.91865(12)
H18 H -0.1890 0.5596 0.9098
C20 C -0.1267(4) 0.8041(6) 0.95454(15)
H19 H -0.2084 0.7905 0.9522
H20 H -0.1029 0.9021 0.9375
C21 C -0.0952(3) 0.8449(6) 0.99657(16)
H21 H -0.1146 0.9690 1.0026
H22 H -0.1385 0.7676 1.0141
C22 C 0.0489(4) 0.8138(8) 1.04632(16)
H23 H 0.1288 0.8013 1.0514
H24 H 0.0089 0.7142 1.0579
H25 H 0.0221 0.9245 1.0577
C23 C 0.0980(4) 0.9591(7) 0.9845(2)
H26 H 0.0916 1.0687 0.9994
H27 H 0.0708 0.9788 0.9582
H28 H 0.1761 0.9221 0.9836
C24 C -0.1914(3) 0.4018(5) 1.00904(12)
Cu2C Cu -0.43193(4) 0.41668(6) 0.972960(14)
N6C N 0.2195(3) 0.5719(5) 0.99760(12)
loop_
_geom_bond_atom_site_label_1
_geom_bond_atom_site_label_2
_geom_bond_site_symmetry_1
_geom_bond_site_symmetry_2
Cu1 S1 1_555 1_555
Cu2 S2 1_555 1_555
Br1 C5 1_555 1_555
Br2 C17 1_555 1_555
S1 C12 1_555 1_555
S2 C24 1_555 1_555
O1 Cu1 1_555 1_555
O2 Cu2 1_555 1_555
N1 Cu1 1_555 1_555
N2 Cu1 1_555 1_555
N3 C12 1_555 1_555
N4 Cu2 1_555 1_555
N5 Cu2 1_555 1_555
N6 C24 1_555 1_555
C1 C2 1_555 1_555
C2 O1 1_555 1_555
C3 C2 1_555 1_555
H1 C3 1_555 1_555
C4 C3 1_555 1_555
H2 C4 1_555 1_555
C5 C4 1_555 1_555
C6 C1 1_555 1_555
H3 C6 1_555 1_555
C7 N1 1_555 1_555
H4 C7 1_555 1_555
C8 N1 1_555 1_555
H5 C8 1_555 1_555
H6 C8 1_555 1_555
C9 N2 1_555 1_555
H7 C9 1_555 1_555
H8 C9 1_555 1_555
C10 N2 1_555 1_555
H9 C10 1_555 1_555
H10 C10 1_555 1_555
H11 C10 1_555 1_555
C11 N2 1_555 1_555
H12 C11 1_555 1_555
H13 C11 1_555 1_555
H14 C11 1_555 1_555
C13 C14 1_555 1_555
C14 O2 1_555 1_555
C15 C14 1_555 1_555
H15 C15 1_555 1_555
C16 C15 1_555 1_555
H16 C16 1_555 1_555
C17 C16 1_555 1_555
C18 C13 1_555 1_555
H17 C18 1_555 1_555
C19 N4 1_555 1_555
H18 C19 1_555 1_555
C20 N4 1_555 1_555
H19 C20 1_555 1_555
H20 C20 1_555 1_555
C21 N5 1_555 1_555
H21 C21 1_555 1_555
H22 C21 1_555 1_555
C22 N5 1_555 1_555
H23 C22 1_555 1_555
H24 C22 1_555 1_555
H25 C22 1_555 1_555
C23 N5 1_555 1_555
H26 C23 1_555 1_555
H27 C23 1_555 1_555
H28 C23 1_555 1_555
Cu1C N3 1_555 1_555
Cu2C N6 1_555 1_555
N3C Cu1 1_555 1_555
N6C Cu2 1_555 1_555
C1 C7 1_555 1_555
C5 C6 1_555 1_555
C8 C9 1_555 1_555
C13 C19 1_555 1_555
C17 C18 1_555 1_555
C20 C21 1_555 1_555

#END
