
#######################################################################
#
#                 Cambridge Crystallographic Data Centre
#                                CCDC 
#
#######################################################################
#
# If this CIF has been generated from an entry in the Cambridge 
# Structural Database, then it will include bibliographic, chemical, 
# crystal, experimental, refinement or atomic coordinate data resulting 
# from the CCDC's data processing and validation procedures.
#
#######################################################################

data_KASTUV
_symmetry_cell_setting           monoclinic
_symmetry_space_group_name_H-M   'C 2'
_symmetry_Int_Tables_number      5
_space_group_name_Hall           'C 2y'
loop_
_symmetry_equiv_pos_site_id
_symmetry_equiv_pos_as_xyz
1 x,y,z
2 -x,y,-z
3 1/2+x,1/2+y,z
4 1/2-x,1/2+y,-z
_cell_length_a                   21.756(4)
_cell_length_b                   11.090(2)
_cell_length_c                   11.085(2)
_cell_angle_alpha                90
_cell_angle_beta                 119.155(2)
_cell_angle_gamma                90
_cell_volume                     2335.67
loop_
_atom_site_label
_atom_site_type_symbol
_atom_site_fract_x
_atom_site_fract_y
_atom_site_fract_z
Mn1 Mn 1.0000 0.75381(4) 1.0000
Mn2 Mn 0.5000 0.76950(4) 0.5000
C1 C 0.87863(12) 0.5822(2) 0.9464(3)
C2 C 0.81137(10) 0.52110(18) 0.8400(2)
H1 H 0.8198 0.4888 0.7670
C3 C 0.74787(10) 0.61178(19) 0.7712(2)
C4 C 0.68385(11) 0.52519(19) 0.7264(2)
C5 C 0.70957(12) 0.4409(2) 0.8518(3)
H2 H 0.7049 0.4793 0.9256
H3 H 0.6828 0.3664 0.8266
C6 C 0.78651(12) 0.4167(2) 0.8965(3)
H4 H 0.7915 0.3405 0.8593
H5 H 0.8141 0.4136 0.9965
C7 C 0.74720(13) 0.6811(3) 0.6515(3)
H6 H 0.7050 0.7285 0.6061
H7 H 0.7486 0.6252 0.5869
H8 H 0.7875 0.7332 0.6863
C8 C 0.75063(13) 0.7047(2) 0.8753(3)
H9 H 0.7913 0.7551 0.9039
H10 H 0.7534 0.6640 0.9542
H11 H 0.7089 0.7535 0.8332
C9 C 0.67015(15) 0.4494(3) 0.6002(3)
H12 H 0.6331 0.3927 0.5808
H13 H 0.7122 0.4066 0.6189
H14 H 0.6565 0.5013 0.5219
C10 C 0.61700(11) 0.5944(2) 0.6955(3)
C11 C 0.97711(12) 0.8985(2) 0.7418(2)
H15 H 0.9813 0.9235 0.6661
C12 C 0.93661(11) 0.9696(2) 0.7898(2)
C13 C 0.91221(13) 1.0836(2) 0.7365(3)
H16 H 0.9198 1.1152 0.6672
C14 C 0.87645(15) 1.1489(2) 0.7884(3)
H17 H 0.8602 1.2261 0.7555
C15 C 0.86500(14) 1.0991(2) 0.8892(3)
H18 H 0.8400 1.1410 0.9240
C16 C 0.89130(12) 0.9863(2) 0.9371(3)
H19 H 0.8842 0.9534 1.0065
C17 C 0.53457(12) 0.9169(2) 0.3010(2)
H20 H 0.5316 0.9472 0.2201
C18 C 0.57938(12) 0.97436(19) 0.4334(2)
C19 C 0.62145(14) 1.0706(2) 0.4426(3)
H21 H 0.6207 1.1015 0.3639
C20 C 0.66457(16) 1.1203(2) 0.5703(3)
H22 H 0.6942 1.1841 0.5794
C21 C 0.66334(15) 1.0746(3) 0.6835(3)
H23 H 0.6917 1.1077 0.7705
C22 C 0.61963(13) 0.9792(2) 0.6670(3)
H24 H 0.6185 0.9493 0.7443
N1 N 1.00637(10) 0.80245(17) 0.8053(2)
N2 N 0.92679(10) 0.92080(18) 0.8895(2)
N3 N 0.49953(10) 0.82408(18) 0.29850(19)
N4 N 0.57865(10) 0.92737(17) 0.5445(2)
O1 O 0.91448(9) 0.63643(16) 0.9018(2)
O2 O 0.89408(9) 0.57805(18) 1.07055(18)
O3 O 0.58541(9) 0.64896(17) 0.58100(19)
O4 O 0.59781(10) 0.59461(19) 0.7842(2)
O5 O 1.04354(10) 0.74321(19) 0.75277(18)
H25 H 1.0623 0.6832 0.7996
O6 O 0.45787(9) 0.77871(19) 0.16869(16)
H26 H 0.4379 0.7178 0.1737
Mn1_2 Mn 0.0000 0.75381(4) 0.0000
C1A C 0.12137(12) 0.5822(2) 0.0536(3)
C2A C 0.18863(10) 0.52110(18) 0.1600(2)
H1A H 0.1802 0.4888 0.2330
C3A C 0.25213(10) 0.61178(19) 0.2288(2)
C4A C 0.31615(11) 0.52519(19) 0.2736(2)
C5A C 0.29043(12) 0.4409(2) 0.1482(3)
H2A H 0.2951 0.4793 0.0744
H3A H 0.3172 0.3664 0.1734
C6A C 0.21349(12) 0.4167(2) 0.1035(3)
H4A H 0.2085 0.3405 0.1407
H5A H 0.1859 0.4136 0.0035
C7A C 0.25280(13) 0.6811(3) 0.3485(3)
H6A H 0.2950 0.7285 0.3939
H7A H 0.2514 0.6252 0.4131
H8A H 0.2125 0.7332 0.3137
C8A C 0.24937(13) 0.7047(2) 0.1247(3)
H9A H 0.2087 0.7551 0.0961
H10A H 0.2466 0.6640 0.0458
H11A H 0.2911 0.7535 0.1668
C9A C 0.32985(15) 0.4494(3) 0.3998(3)
H12A H 0.3669 0.3927 0.4192
H13A H 0.2878 0.4066 0.3811
H14A H 0.3435 0.5013 0.4781
C10A C 0.38300(11) 0.5944(2) 0.3045(3)
C11A C 1.02289(12) 0.8985(2) 1.2582(2)
H15A H 1.0187 0.9235 1.3339
C12A C 1.06339(11) 0.9696(2) 1.2102(2)
C13A C 1.08779(13) 1.0836(2) 1.2635(3)
H16A H 1.0802 1.1152 1.3328
C14A C 1.12355(15) 1.1489(2) 1.2116(3)
H17A H 1.1398 1.2261 1.2445
C15A C 1.13500(14) 1.0991(2) 1.1108(3)
H18A H 1.1600 1.1410 1.0760
C16A C 1.10870(12) 0.9863(2) 1.0629(3)
H19A H 1.1158 0.9534 0.9935
C17A C 0.46543(12) 0.9169(2) 0.6990(2)
H20A H 0.4684 0.9472 0.7799
C18A C 0.42062(12) 0.97436(19) 0.5666(2)
C19A C 0.37855(14) 1.0706(2) 0.5574(3)
H21A H 0.3793 1.1015 0.6361
C20A C 0.33543(16) 1.1203(2) 0.4297(3)
H22A H 0.3058 1.1841 0.4206
C21A C 0.33666(15) 1.0746(3) 0.3165(3)
H23A H 0.3083 1.1077 0.2295
C22A C 0.38037(13) 0.9792(2) 0.3330(3)
H24A H 0.3815 0.9493 0.2557
N1A N 0.99363(10) 0.80245(17) 1.1947(2)
N2A N 1.07321(10) 0.92080(18) 1.1105(2)
N3A N 0.50047(10) 0.82408(18) 0.70150(19)
N4A N 0.42135(10) 0.92737(17) 0.4555(2)
O1A O 1.08552(9) 0.63643(16) 1.0982(2)
O1A_2 O 0.08552(9) 0.63643(16) 0.0982(2)
O2A O 0.10592(9) 0.57805(18) -0.07055(18)
O3A O 0.41459(9) 0.64896(17) 0.41900(19)
O4A O 0.40219(10) 0.59461(19) 0.2158(2)
O5A O 0.95646(10) 0.74321(19) 1.24723(18)
H25A H 0.9377 0.6832 1.2004
O6A O 0.54213(9) 0.77871(19) 0.83131(16)
H26A H 0.5621 0.7178 0.8263
loop_
_geom_bond_atom_site_label_1
_geom_bond_atom_site_label_2
_geom_bond_site_symmetry_1
_geom_bond_site_symmetry_2
Mn1 N1 1_555 1_555
Mn2 N3 1_555 1_555
C1 C2 1_555 1_555
C2 H1 1_555 1_555
C3 C2 1_555 1_555
C4 C3 1_555 1_555
C5 C4 1_555 1_555
H2 C5 1_555 1_555
H3 C5 1_555 1_555
C6 C2 1_555 1_555
H4 C6 1_555 1_555
H5 C6 1_555 1_555
C7 C3 1_555 1_555
H6 C7 1_555 1_555
H7 C7 1_555 1_555
H8 C7 1_555 1_555
C8 C3 1_555 1_555
H9 C8 1_555 1_555
H10 C8 1_555 1_555
H11 C8 1_555 1_555
C9 C4 1_555 1_555
H12 C9 1_555 1_555
H13 C9 1_555 1_555
H14 C9 1_555 1_555
C10 C4 1_555 1_555
C11 H15 1_555 1_555
C12 C11 1_555 1_555
C13 C12 1_555 1_555
H16 C13 1_555 1_555
C14 C13 1_555 1_555
H17 C14 1_555 1_555
C15 C14 1_555 1_555
H18 C15 1_555 1_555
C16 C15 1_555 1_555
H19 C16 1_555 1_555
C17 H20 1_555 1_555
C18 C17 1_555 1_555
C19 C18 1_555 1_555
H21 C19 1_555 1_555
C20 C19 1_555 1_555
H22 C20 1_555 1_555
C21 C20 1_555 1_555
H23 C21 1_555 1_555
C22 C21 1_555 1_555
H24 C22 1_555 1_555
N1 C11 1_555 1_555
N2 Mn1 1_555 1_555
N3 C17 1_555 1_555
N4 Mn2 1_555 1_555
O1 Mn1 1_555 1_555
O2 C1 1_555 1_555
O3 Mn2 1_555 1_555
O4 C10 1_555 1_555
O5 N1 1_555 1_555
H25 O5 1_555 1_555
O6 N3 1_555 1_555
H26 O6 1_555 1_555
Mn1_2 O1A_2 1_555 1_555
C1A C2A 1_555 1_555
C2A H1A 1_555 1_555
C3A C2A 1_555 1_555
C4A C3A 1_555 1_555
C5A C4A 1_555 1_555
H2A C5A 1_555 1_555
H3A C5A 1_555 1_555
C6A C2A 1_555 1_555
H4A C6A 1_555 1_555
H5A C6A 1_555 1_555
C7A C3A 1_555 1_555
H6A C7A 1_555 1_555
H7A C7A 1_555 1_555
H8A C7A 1_555 1_555
C8A C3A 1_555 1_555
H9A C8A 1_555 1_555
H10A C8A 1_555 1_555
H11A C8A 1_555 1_555
C9A C4A 1_555 1_555
H12A C9A 1_555 1_555
H13A C9A 1_555 1_555
H14A C9A 1_555 1_555
C10A C4A 1_555 1_555
C11A H15A 1_555 1_555
C12A C11A 1_555 1_555
C13A C12A 1_555 1_555
H16A C13A 1_555 1_555
C14A C13A 1_555 1_555
H17A C14A 1_555 1_555
C15A C14A 1_555 1_555
H18A C15A 1_555 1_555
C16A C15A 1_555 1_555
H19A C16A 1_555 1_555
C17A H20A 1_555 1_555
C18A C17A 1_555 1_555
C19A C18A 1_555 1_555
H21A C19A 1_555 1_555
C20A C19A 1_555 1_555
H22A C20A 1_555 1_555
C21A C20A 1_555 1_555
H23A C21A 1_555 1_555
C22A C21A 1_555 1_555
H24A C22A 1_555 1_555
N1A Mn1 1_555 1_555
N2A Mn1 1_555 1_555
N3A Mn2 1_555 1_555
N4A Mn2 1_555 1_555
O1A Mn1 1_555 1_555
O1A_2 C1A 1_555 1_555
O2A C1A 1_555 1_555
O3A Mn2 1_555 1_555
O4A C10A 1_555 1_555
O5A N1A 1_555 1_555
H25A O5A 1_555 1_555
O6A N3A 1_555 1_555
H26A O6A 1_555 1_555
C1 O1 1_555 1_555
C5 C6 1_555 1_555
C10 O3 1_555 1_555
C12 N2 1_555 1_555
C16 N2 1_555 1_555
C18 N4 1_555 1_555
C22 N4 1_555 1_555
C5A C6A 1_555 1_555
C10A O3A 1_555 1_555
C11A N1A 1_555 1_555
C12A N2A 1_555 1_555
C16A N2A 1_555 1_555
C17A N3A 1_555 1_555
C18A N4A 1_555 1_555
C22A N4A 1_555 1_555

#END
