
#######################################################################
#
#                 Cambridge Crystallographic Data Centre
#                                CCDC 
#
#######################################################################
#
# If this CIF has been generated from an entry in the Cambridge 
# Structural Database, then it will include bibliographic, chemical, 
# crystal, experimental, refinement or atomic coordinate data resulting 
# from the CCDC's data processing and validation procedures.
#
#######################################################################

data_KASTUU
_symmetry_cell_setting           monoclinic
_symmetry_space_group_name_H-M   'P 21/c'
_symmetry_Int_Tables_number      14
_space_group_name_Hall           '-P 2ybc'
loop_
_symmetry_equiv_pos_site_id
_symmetry_equiv_pos_as_xyz
1 x,y,z
2 -x,1/2+y,1/2-z
3 -x,-y,-z
4 x,1/2-y,1/2+z
_cell_length_a                   18.5438(10)
_cell_length_b                   7.2746(3)
_cell_length_c                   19.8774(11)
_cell_angle_alpha                90
_cell_angle_beta                 106.578(4)
_cell_angle_gamma                90
_cell_volume                     2569.97
loop_
_atom_site_label
_atom_site_type_symbol
_atom_site_fract_x
_atom_site_fract_y
_atom_site_fract_z
C1 C 0.8945(2) 0.3366(6) 0.8898(2)
H1 H 0.8540 0.3653 0.8513
C2 C 0.9666(2) 0.3657(6) 0.8841(2)
H2 H 0.9740 0.4114 0.8428
C3 C 1.0264(2) 0.3255(6) 0.9405(3)
H3 H 1.0752 0.3451 0.9381
C4 C 1.0143(2) 0.2550(5) 1.0015(3)
C5 C 1.0741(2) 0.2094(6) 1.0619(3)
H4 H 1.1235 0.2255 1.0608
C6 C 1.0613(2) 0.1443(7) 1.1200(3)
H5 H 1.1017 0.1202 1.1591
C7 C 0.9860(2) 0.1106(6) 1.1233(2)
C8 C 0.9700(3) 0.0316(7) 1.1813(3)
H6 H 1.0088 0.0061 1.2216
C9 C 0.8975(3) -0.0082(8) 1.1790(3)
H7 H 0.8862 -0.0616 1.2173
C10 C 0.8410(3) 0.0329(7) 1.1180(3)
H8 H 0.7917 0.0039 1.1165
C11 C 0.9254(2) 0.1507(5) 1.0639(2)
C12 C 0.9392(2) 0.2282(5) 1.0023(2)
C13 C 0.6309(3) 0.3413(7) 1.0708(2)
H9 H 0.6800 0.3733 1.0948
C14 C 0.5761(3) 0.3539(7) 1.1060(2)
H10 H 0.5888 0.3935 1.1524
C15 C 0.5040(3) 0.3077(7) 1.0717(2)
H11 H 0.4667 0.3159 1.0944
C16 C 0.4863(2) 0.2477(6) 1.0021(3)
C17 C 0.4117(2) 0.1948(7) 0.9632(3)
H12 H 0.3733 0.1991 0.9848
C18 C 0.3963(2) 0.1395(7) 0.8967(3)
H13 H 0.3471 0.1091 0.8722
C19 C 0.4543(2) 0.1262(6) 0.8624(2)
C20 C 0.4408(2) 0.0614(6) 0.7936(2)
H14 H 0.3925 0.0257 0.7682
C21 C 0.4983(2) 0.0508(6) 0.7640(2)
H15 H 0.4900 0.0086 0.7182
C22 C 0.5698(2) 0.1042(6) 0.8036(2)
H16 H 0.6088 0.0970 0.7828
C23 C 0.52863(19) 0.1755(5) 0.8988(2)
C24 C 0.5450(2) 0.2390(5) 0.9704(2)
C25 C 0.7245(2) 0.6252(5) 0.8512(2)
C26 C 0.7444(2) 0.7346(5) 0.7972(2)
C27 C 0.74157(19) 0.9000(5) 0.8381(2)
C28 C 0.7247(2) 0.7912(5) 0.8926(2)
N1 N 0.87997(18) 0.2711(4) 0.94619(18)
N2 N 0.85302(18) 0.1108(5) 1.06212(19)
N3 N 0.61688(19) 0.2868(5) 1.00543(18)
N4 N 0.58577(17) 0.1645(5) 0.86886(16)
O1 O 0.71346(19) 0.4568(4) 0.85661(16)
O2 O 0.76046(19) 0.6971(4) 0.74210(16)
O3 O 0.75091(16) 1.0700(4) 0.83365(15)
O4 O 0.71735(18) 0.8329(5) 0.95123(15)
O5 O 0.7820(2) 0.5226(4) 1.02749(18)
Pb1 Pb 0.736284(7) 0.223905(18) 0.948366(7)
H17 H 0.760(3) 0.620(6) 1.013(2)
H18 H 0.793(3) 0.525(7) 1.0721(14)
O3_2 O 0.75091(16) 0.0700(4) 0.83365(15)
O4_2 O 0.71735(18) -0.1671(5) 0.95123(15)
Pb1_2 Pb 0.736284(7) 1.223905(18) 0.948366(7)
O6 O 0.8219(3) 0.5161(6) 1.1752(2)
H19 H 0.800(3) 0.597(6) 1.188(3)
H20 H 0.805(4) 0.412(5) 1.178(5)
O7 O 0.7511(3) 0.2963(6) 0.7197(2)
H21 H 0.752(3) 0.236(6) 0.756(2)
H22 H 0.747(3) 0.405(4) 0.729(3)
loop_
_geom_bond_atom_site_label_1
_geom_bond_atom_site_label_2
_geom_bond_site_symmetry_1
_geom_bond_site_symmetry_2
C1 H1 1_555 1_555
C2 C1 1_555 1_555
H2 C2 1_555 1_555
C3 C2 1_555 1_555
H3 C3 1_555 1_555
C4 C3 1_555 1_555
C5 C4 1_555 1_555
H4 C5 1_555 1_555
C6 C5 1_555 1_555
H5 C6 1_555 1_555
C7 C6 1_555 1_555
C8 C7 1_555 1_555
H6 C8 1_555 1_555
C9 C8 1_555 1_555
H7 C9 1_555 1_555
C10 C9 1_555 1_555
H8 C10 1_555 1_555
C11 C7 1_555 1_555
C12 C4 1_555 1_555
C13 H9 1_555 1_555
C14 C13 1_555 1_555
H10 C14 1_555 1_555
C15 C14 1_555 1_555
H11 C15 1_555 1_555
C16 C15 1_555 1_555
C17 C16 1_555 1_555
H12 C17 1_555 1_555
C18 C17 1_555 1_555
H13 C18 1_555 1_555
C19 C18 1_555 1_555
C20 C19 1_555 1_555
H14 C20 1_555 1_555
C21 C20 1_555 1_555
H15 C21 1_555 1_555
C22 C21 1_555 1_555
H16 C22 1_555 1_555
C23 C19 1_555 1_555
C24 C16 1_555 1_555
C25 C26 1_555 1_555
C26 C27 1_555 1_555
C27 C28 1_555 1_555
C28 C25 1_555 1_555
N1 C1 1_555 1_555
N2 C10 1_555 1_555
N3 C13 1_555 1_555
N4 C22 1_555 1_555
O1 C25 1_555 1_555
O2 C26 1_555 1_555
O3 C27 1_555 1_555
O4 C28 1_555 1_555
O5 Pb1 1_555 1_555
O6 H19 1_555 1_555
O7 H21 1_555 1_555
Pb1 N1 1_555 1_555
H17 O5 1_555 1_555
H18 O5 1_555 1_555
H20 O6 1_555 1_555
H22 O7 1_555 1_555
O3_2 Pb1 1_555 1_555
O4_2 Pb1 1_555 1_555
Pb1_2 O3 1_555 1_555
C11 C12 1_555 1_555
C11 N2 1_555 1_555
C12 N1 1_555 1_555
C23 C24 1_555 1_555
C23 N4 1_555 1_555
C24 N3 1_555 1_555
N2 Pb1 1_555 1_555
N3 Pb1 1_555 1_555
N4 Pb1 1_555 1_555
O1 Pb1 1_555 1_555
O4 Pb1_2 1_555 1_555

#END
