
#######################################################################
#
#                 Cambridge Crystallographic Data Centre
#                                CCDC 
#
#######################################################################
#
# If this CIF has been generated from an entry in the Cambridge 
# Structural Database, then it will include bibliographic, chemical, 
# crystal, experimental, refinement or atomic coordinate data resulting 
# from the CCDC's data processing and validation procedures.
#
#######################################################################

data_KASTAA
_symmetry_cell_setting           triclinic
_symmetry_space_group_name_H-M   'P -1'
_symmetry_Int_Tables_number      2
_space_group_name_Hall           '-P 1'
loop_
_symmetry_equiv_pos_site_id
_symmetry_equiv_pos_as_xyz
1 x,y,z
2 -x,-y,-z
_cell_length_a                   8.6928(17)
_cell_length_b                   8.8579(18)
_cell_length_c                   9.6059(19)
_cell_angle_alpha                85.17(3)
_cell_angle_beta                 65.14(3)
_cell_angle_gamma                74.03(3)
_cell_volume                     644.795
loop_
_atom_site_label
_atom_site_type_symbol
_atom_site_fract_x
_atom_site_fract_y
_atom_site_fract_z
Co1 Co 0.0000 0.5000 0.5000
N1 N 0.01189(18) 0.65316(15) 0.65628(14)
O1 O 0.21630(17) 0.20575(15) 0.64748(15)
O2 O 0.26087(15) 0.36416(14) 0.45035(12)
O3 O 0.4607(2) 0.25849(19) 1.16196(15)
O4 O 0.31661(18) 0.45166(16) 1.06256(14)
O5 O -0.10399(17) 0.35414(14) 0.68103(14)
C1 C 0.3139(2) 0.26778(18) 0.53829(17)
C2 C 0.5074(2) 0.2315(2) 0.50342(19)
H1 H 0.5460 0.3263 0.4696
H2 H 0.5728 0.1541 0.4191
C3 C 0.5527(2) 0.1696(2) 0.63869(19)
H3 H 0.5122 0.0759 0.6743
H4 H 0.6795 0.1400 0.6038
C4 C 0.4715(2) 0.2885(2) 0.77236(19)
H5 H 0.5150 0.3809 0.7382
H6 H 0.3449 0.3207 0.8059
C5 C 0.5139(3) 0.2225(2) 0.90591(19)
H7 H 0.4861 0.1219 0.9291
H8 H 0.6394 0.2033 0.8748
C6 C 0.4190(2) 0.3247(2) 1.04974(18)
C7 C 0.0758(2) 0.59803(19) 0.76044(19)
H9 H 0.1047 0.4900 0.7720
C8 C 0.1013(2) 0.6920(2) 0.8517(2)
H10 H 0.1464 0.6473 0.9224
C9 C 0.0594(2) 0.85315(19) 0.83761(18)
C10 C -0.0109(2) 0.91147(19) 0.73211(19)
H11 H -0.0437 1.0193 0.7204
C11 C -0.0320(2) 0.80941(19) 0.64446(18)
H12 H -0.0789 0.8511 0.5741
C12 C 0.0860(2) 0.9603(2) 0.9345(2)
H13 H 0.1372 1.0398 0.8706
H14 H 0.1676 0.8999 0.9759
H15 H 0.405(4) 0.310(3) 1.243(3)
H16 H -0.014(4) 0.300(3) 0.688(3)
H17 H -0.170(3) 0.414(3) 0.762(3)
Co1_2 Co 0.0000 1.5000 1.5000
N1A N -0.01189(18) 1.34684(15) 1.34372(14)
N1A_2 N -0.01189(18) 0.34684(15) 0.34372(14)
O1A O -0.21630(17) 0.79425(15) 0.35252(15)
O2A O -0.26087(15) 0.63584(14) 0.54965(12)
O3A O -0.4607(2) 0.74151(19) -0.16196(15)
O4A O -0.31661(18) 0.54834(16) -0.06256(14)
O5A O 0.10399(17) 0.64586(14) 0.31897(14)
C1A C -0.3139(2) 0.73222(18) 0.46171(17)
C2A C -0.5074(2) 0.7685(2) 0.49658(19)
H1A H -0.5460 0.6737 0.5304
H2A H -0.5728 0.8459 0.5809
C3A C -0.5527(2) 0.8304(2) 0.36131(19)
H3A H -0.5122 0.9241 0.3257
H4A H -0.6795 0.8600 0.3962
C4A C -0.4715(2) 0.7115(2) 0.22764(19)
H5A H -0.5150 0.6191 0.2618
H6A H -0.3449 0.6793 0.1941
C5A C -0.5139(3) 0.7775(2) 0.09409(19)
H7A H -0.4861 0.8781 0.0709
H8A H -0.6394 0.7967 0.1252
C6A C -0.4190(2) 0.6753(2) -0.04974(18)
C7A C -0.0758(2) 1.40197(19) 1.23956(19)
H9A H -0.1047 1.5100 1.2280
C8A C -0.1013(2) 1.3080(2) 1.1483(2)
H10A H -0.1464 1.3527 1.0776
C9A C -0.0594(2) 1.14685(19) 1.16239(18)
C10A C 0.0109(2) 1.08853(19) 1.26789(19)
H11A H 0.0437 0.9807 1.2796
C11A C 0.0320(2) 1.19059(19) 1.35554(18)
H12A H 0.0789 1.1489 1.4259
C12A C -0.0860(2) 1.0397(2) 1.0655(2)
H13A H -0.1372 0.9602 1.1294
H14A H -0.1676 1.1001 1.0241
H15A H -0.405(4) 0.690(3) -0.243(3)
H16A H 0.014(4) 0.700(3) 0.312(3)
H17A H 0.170(3) 0.586(3) 0.238(3)
loop_
_geom_bond_atom_site_label_1
_geom_bond_atom_site_label_2
_geom_bond_site_symmetry_1
_geom_bond_site_symmetry_2
Co1 N1 1_555 1_555
N1 C7 1_555 1_555
O1 C1 1_555 1_555
O2 Co1 1_555 1_555
O3 C6 1_555 1_555
O4 C6 1_555 1_555
O5 Co1 1_555 1_555
C1 O2 1_555 1_555
C2 C1 1_555 1_555
H1 C2 1_555 1_555
H2 C2 1_555 1_555
C3 C2 1_555 1_555
H3 C3 1_555 1_555
H4 C3 1_555 1_555
C4 C3 1_555 1_555
H5 C4 1_555 1_555
H6 C4 1_555 1_555
C5 C4 1_555 1_555
H7 C5 1_555 1_555
H8 C5 1_555 1_555
C6 C5 1_555 1_555
C7 H9 1_555 1_555
C8 C7 1_555 1_555
H10 C8 1_555 1_555
C9 C8 1_555 1_555
C10 C9 1_555 1_555
H11 C10 1_555 1_555
C11 N1 1_555 1_555
H12 C11 1_555 1_555
C12 C9 1_555 1_555
H13 C12 1_555 1_555
H14 C12 1_555 1_555
H15 O3 1_555 1_555
H16 O5 1_555 1_555
H17 O5 1_555 1_555
Co1_2 N1A 1_555 1_555
N1A C7A 1_555 1_555
N1A_2 Co1 1_555 1_555
O1A C1A 1_555 1_555
O2A Co1 1_555 1_555
O3A C6A 1_555 1_555
O4A C6A 1_555 1_555
O5A Co1 1_555 1_555
C1A O2A 1_555 1_555
C2A C1A 1_555 1_555
H1A C2A 1_555 1_555
H2A C2A 1_555 1_555
C3A C2A 1_555 1_555
H3A C3A 1_555 1_555
H4A C3A 1_555 1_555
C4A C3A 1_555 1_555
H5A C4A 1_555 1_555
H6A C4A 1_555 1_555
C5A C4A 1_555 1_555
H7A C5A 1_555 1_555
H8A C5A 1_555 1_555
C6A C5A 1_555 1_555
C7A H9A 1_555 1_555
C8A C7A 1_555 1_555
H10A C8A 1_555 1_555
C9A C8A 1_555 1_555
C10A C9A 1_555 1_555
H11A C10A 1_555 1_555
C11A N1A 1_555 1_555
H12A C11A 1_555 1_555
C12A C12 1_555 1_555
H13A C12A 1_555 1_555
H14A C12A 1_555 1_555
H15A O3A 1_555 1_555
H16A O5A 1_555 1_555
H17A O5A 1_555 1_555
C10 C11 1_555 1_555
C9A C12A 1_555 1_555
C10A C11A 1_555 1_555

#END
