
#######################################################################
#
#                 Cambridge Crystallographic Data Centre
#                                CCDC 
#
#######################################################################
#
# If this CIF has been generated from an entry in the Cambridge 
# Structural Database, then it will include bibliographic, chemical, 
# crystal, experimental, refinement or atomic coordinate data resulting 
# from the CCDC's data processing and validation procedures.
#
#######################################################################

data_KASXAD
_symmetry_cell_setting           monoclinic
_symmetry_space_group_name_H-M   'P 21/n'
_symmetry_Int_Tables_number      14
_space_group_name_Hall           '-P 2yn'
loop_
_symmetry_equiv_pos_site_id
_symmetry_equiv_pos_as_xyz
1 x,y,z
2 1/2-x,1/2+y,1/2-z
3 -x,-y,-z
4 1/2+x,1/2-y,1/2+z
_cell_length_a                   8.238(6)
_cell_length_b                   8.134(6)
_cell_length_c                   34.57(5)
_cell_angle_alpha                90
_cell_angle_beta                 92.51(5)
_cell_angle_gamma                90
_cell_volume                     2314.24
loop_
_atom_site_label
_atom_site_type_symbol
_atom_site_fract_x
_atom_site_fract_y
_atom_site_fract_z
Cd1 Cd 0.35178(4) 0.24243(5) -0.19500(1)
Cd2 Cd -0.07634(4) 0.19424(5) -0.061260(9)
S1 S 0.5849(1) 0.3783(2) -0.23277(3)
S2 S 0.1488(1) 0.0409(2) -0.02542(3)
S3 S -0.3491(1) 0.2826(2) -0.03998(4)
O1 O 0.2070(4) 0.5044(5) -0.18730(10)
O2 O 0.3625(4) 0.4076(5) -0.13874(10)
O3 O 0.1115(4) 0.0988(6) -0.1786(1)
O4 O 0.2039(5) 0.2208(5) -0.2528(1)
O5 O 0.0307(4) 0.3784(5) -0.1052(1)
O6 O 0.0678(5) 0.4723(5) -0.0454(1)
O7 O 0.9002(4) 0.0409(5) -0.11788(9)
O8 O 0.7373(4) -0.1069(5) -0.0815(1)
O9 O 0.5376(4) 0.0735(5) -0.1517(1)
O10 O 0.4445(4) -0.0260(5) -0.20823(10)
N1 N 0.8761(5) 0.4975(7) -0.2144(1)
N2 N 0.7736(5) 0.3363(6) -0.1675(1)
N3 N 0.3110(4) 0.1150(6) -0.0897(1)
N4 N 0.4290(5) -0.0717(6) -0.0471(1)
N5 N -0.4056(6) 0.5567(6) -0.0812(1)
N6 N -0.2619(6) 0.5920(6) -0.0237(1)
C1 C 0.7555(5) 0.4035(7) -0.2022(1)
C2 C 0.2665(6) 0.5147(7) -0.1531(1)
C3 C 0.2197(6) 0.6612(7) -0.1291(1)
C4 C 0.1388(5) 0.6496(7) -0.0969(1)
C5 C 0.0755(5) 0.4896(7) -0.0815(1)
C6 C 0.3067(5) 0.0294(7) -0.0568(1)
C7 C -0.3352(5) 0.4957(7) -0.0488(1)
C8 C 0.8016(6) -0.0748(7) -0.1126(1)
C9 C 0.7698(6) -0.1922(7) -0.1471(2)
C10 C 0.6524(7) -0.1788(7) -0.1739(2)
C11 C 0.5372(5) -0.0370(6) -0.1782(1)
H1 H 0.0144 0.1598 -0.1728
H2 H 0.1082 -0.0172 -0.1775
H3 H 0.1298 0.3027 -0.2606
H4 H 0.2191 0.1260 -0.2689
H5 H 0.9688 0.5204 -0.1990
H6 H 0.8648 0.5474 -0.2402
H7 H 0.8666 0.3587 -0.1510
H8 H 0.6888 0.2681 -0.1573
H9 H 0.2230 0.1888 -0.0976
H10 H 0.3995 0.1041 -0.1059
H11 H 0.4318 -0.1368 -0.0233
H12 H 0.5203 -0.0835 -0.0632
H13 H -0.3994 0.6720 -0.0853
H14 H -0.4574 0.4867 -0.0991
H15 H -0.2123 0.5492 -0.0008
H16 H -0.2582 0.7080 -0.0287
H17 H 0.2544 0.7675 -0.1383
H18 H 0.1180 0.7503 -0.0837
H19 H 0.8434 -0.2797 -0.1486
H20 H 0.6392 -0.2655 -0.1938
O7_2 O -0.0998(4) 0.0409(5) -0.11788(9)
Cd2_2 Cd 0.92366(4) 0.19424(5) -0.061260(9)
loop_
_geom_bond_atom_site_label_1
_geom_bond_atom_site_label_2
_geom_bond_site_symmetry_1
_geom_bond_site_symmetry_2
Cd1 S1 1_555 1_555
Cd2 S2 1_555 1_555
S1 C1 1_555 1_555
S2 C6 1_555 1_555
S3 Cd2 1_555 1_555
O1 Cd1 1_555 1_555
O2 Cd1 1_555 1_555
O3 Cd1 1_555 1_555
O4 Cd1 1_555 1_555
O5 Cd2 1_555 1_555
O6 Cd2 1_555 1_555
O7 C8 1_555 1_555
O8 C8 1_555 1_555
O9 Cd1 1_555 1_555
O10 Cd1 1_555 1_555
N1 C1 1_555 1_555
N2 C1 1_555 1_555
N3 C6 1_555 1_555
N4 C6 1_555 1_555
N5 C7 1_555 1_555
N6 C7 1_555 1_555
C2 O1 1_555 1_555
C3 C2 1_555 1_555
C4 C3 1_555 1_555
C5 O5 1_555 1_555
C7 S3 1_555 1_555
C8 C9 1_555 1_555
C9 C10 1_555 1_555
C10 C11 1_555 1_555
C11 O9 1_555 1_555
H1 O3 1_555 1_555
H2 O3 1_555 1_555
H3 O4 1_555 1_555
H4 O4 1_555 1_555
H5 N1 1_555 1_555
H6 N1 1_555 1_555
H7 N2 1_555 1_555
H8 N2 1_555 1_555
H9 N3 1_555 1_555
H10 N3 1_555 1_555
H11 N4 1_555 1_555
H12 N4 1_555 1_555
H13 N5 1_555 1_555
H14 N5 1_555 1_555
H15 N6 1_555 1_555
H16 N6 1_555 1_555
H17 C3 1_555 1_555
H18 C4 1_555 1_555
H19 C9 1_555 1_555
H20 C10 1_555 1_555
O7_2 Cd2 1_555 1_555
Cd2_2 O7 1_555 1_555
O2 C2 1_555 1_555
O6 C5 1_555 1_555
O10 C11 1_555 1_555
C4 C5 1_555 1_555

#END
