
#######################################################################
#
#                 Cambridge Crystallographic Data Centre
#                                CCDC 
#
#######################################################################
#
# If this CIF has been generated from an entry in the Cambridge 
# Structural Database, then it will include bibliographic, chemical, 
# crystal, experimental, refinement or atomic coordinate data resulting 
# from the CCDC's data processing and validation procedures.
#
#######################################################################

data_KATDAM
_symmetry_cell_setting           hexagonal
_symmetry_space_group_name_H-M   'P 61'
_symmetry_Int_Tables_number      169
_space_group_name_Hall           'P 61'
loop_
_symmetry_equiv_pos_site_id
_symmetry_equiv_pos_as_xyz
1 x,y,z
2 x-y,x,1/6+z
3 -y,x-y,1/3+z
4 -x,-y,1/2+z
5 -x+y,-x,2/3+z
6 y,-x+y,5/6+z
_cell_length_a                   21.0747(7)
_cell_length_b                   21.0747(7)
_cell_length_c                   11.2029(5)
_cell_angle_alpha                90
_cell_angle_beta                 90
_cell_angle_gamma                120
_cell_volume                     4309.07
loop_
_atom_site_label
_atom_site_type_symbol
_atom_site_fract_x
_atom_site_fract_y
_atom_site_fract_z
Cd1 Cd 0.57100(2) 0.54737(2) 0.06081(4)
O1 O 0.4508(3) 0.4738(3) 0.0057(5)
O2 O 0.4722(2) 0.4553(2) 0.1896(4)
O3 O 0.3741(2) 0.4639(2) 0.3754(4)
O4 O 0.3833(2) 0.3656(2) 0.4095(4)
O5 O 0.1493(5) 0.2505(5) 0.7144(8)
N1 N 0.6380(3) 0.5080(3) 0.1540(4)
N2 N 0.7209(3) 0.4793(3) 0.2058(4)
N3 N 0.6743(3) 0.1161(3) 0.1889(4)
N4 N 0.6312(3) 0.0524(3) 0.0249(4)
N5 N 0.2157(3) 0.2938(3) 0.3663(6)
C1 C 0.4289(3) 0.4421(3) 0.1050(7)
C2 C 0.3634(3) 0.4019(3) 0.3471(5)
C3 C 0.3500(3) 0.3849(3) 0.1211(6)
C4 C 0.3204(3) 0.3669(3) 0.2366(6)
C5 C 0.2467(4) 0.3130(3) 0.2476(7)
C6 C 0.2048(4) 0.2787(4) 0.1498(8)
H7 H 0.1556 0.2435 0.1590
C7 C 0.2352(4) 0.2960(5) 0.0381(8)
H8 H 0.2073 0.2710 -0.0281
C8 C 0.3061(4) 0.3497(4) 0.0237(6)
H9 H 0.3254 0.3629 -0.0529
C9 C 0.2078(5) 0.2341(6) 0.4204(10)
H10 H 0.2181 0.2021 0.3786
C10 C 0.1845(6) 0.2187(7) 0.5383(13)
H11 H 0.1794 0.1763 0.5732
C11 C 0.1684(5) 0.2648(8) 0.6068(11)
C12 C 0.1758(6) 0.3253(6) 0.5419(10)
H12 H 0.1635 0.3573 0.5788
C13 C 0.1995(5) 0.3383(5) 0.4307(9)
H13 H 0.2055 0.3806 0.3943
C14 C 0.6381(4) 0.5012(4) 0.2769(6)
H14 H 0.6077 0.5077 0.3295
C15 C 0.6889(4) 0.4838(4) 0.3084(6)
H15 H 0.7001 0.4763 0.3855
C16 C 0.6895(3) 0.4948(3) 0.1179(5)
H16 H 0.7025 0.4963 0.0382
C17 C 0.7762(3) 0.4567(3) 0.1979(6)
H17 H 0.8168 0.4875 0.2501
H18 H 0.7948 0.4643 0.1168
C18 C 0.7476(3) 0.3789(3) 0.2309(6)
C19 C 0.7942(3) 0.3588(3) 0.2883(5)
H19 H 0.8412 0.3947 0.3101
C20 C 0.7707(3) 0.2856(3) 0.3128(5)
H20 H 0.8025 0.2731 0.3496
C21 C 0.7007(3) 0.2312(3) 0.2831(5)
C22 C 0.6540(3) 0.2526(3) 0.2296(6)
H21 H 0.6063 0.2169 0.2108
C23 C 0.6765(3) 0.3238(3) 0.2047(5)
H22 H 0.6440 0.3359 0.1696
C24 C 0.6758(4) 0.1519(3) 0.3007(6)
H23 H 0.7085 0.1472 0.3562
H24 H 0.6271 0.1277 0.3354
C25 C 0.7321(4) 0.1208(4) 0.1286(7)
H25 H 0.7810 0.1467 0.1518
C26 C 0.7057(4) 0.0811(4) 0.0296(6)
H26 H 0.7335 0.0740 -0.0276
C27 C 0.6148(3) 0.0746(3) 0.1243(5)
H27 H 0.5676 0.0626 0.1463
Cd1C Cd 0.42900(2) 0.45263(2) 0.56081(4)
Cd1E Cd 0.54737(2) -0.02363(3) -0.10586(4)
O3C O 0.6259(2) 0.5361(2) -0.1246(4)
O4C O 0.6167(2) 0.6344(2) -0.0905(4)
N4A N 0.5788(4) 0.6312(3) 0.1916(4)
O6 O 0.4673(3) 0.3155(3) 0.2675(5)
H1 H 0.4428 0.3298 0.3086
H2 H 0.4936 0.3532 0.2254
O7 O 0.1094(12) 0.1315(10) 0.8418(15)
H3 H 0.1220 0.1705 0.8026
H4 H 0.1159 0.1001 0.7959
O8 O 0.978(4) 0.045(4) 0.687(8)
H5 H 1.0136 0.0676 0.7272
H6 H 0.9546 0.0006 0.7112
loop_
_geom_bond_atom_site_label_1
_geom_bond_atom_site_label_2
_geom_bond_site_symmetry_1
_geom_bond_site_symmetry_2
Cd1 O1 1_555 1_555
O1 C1 1_555 1_555
O2 Cd1 1_555 1_555
O3 C2 1_555 1_555
O4 C2 1_555 1_555
O5 C11 1_555 1_555
O6 H1 1_555 1_555
H2 O6 1_555 1_555
O7 H3 1_555 1_555
H4 O7 1_555 1_555
O8 H5 1_555 1_555
H6 O8 1_555 1_555
N1 Cd1 1_555 1_555
N2 C15 1_555 1_555
N3 C24 1_555 1_555
N4 C26 1_555 1_555
N5 C5 1_555 1_555
C1 O2 1_555 1_555
C2 C4 1_555 1_555
C3 C1 1_555 1_555
C4 C3 1_555 1_555
C5 C4 1_555 1_555
C6 C5 1_555 1_555
H7 C6 1_555 1_555
C7 C6 1_555 1_555
H8 C7 1_555 1_555
C8 C3 1_555 1_555
H9 C8 1_555 1_555
C9 N5 1_555 1_555
H10 C9 1_555 1_555
C10 C9 1_555 1_555
H11 C10 1_555 1_555
C11 C10 1_555 1_555
C12 C11 1_555 1_555
H12 C12 1_555 1_555
C13 N5 1_555 1_555
H13 C13 1_555 1_555
C14 N1 1_555 1_555
H14 C14 1_555 1_555
C15 C14 1_555 1_555
H15 C15 1_555 1_555
C16 N1 1_555 1_555
H16 C16 1_555 1_555
C17 N2 1_555 1_555
H17 C17 1_555 1_555
H18 C17 1_555 1_555
C18 C17 1_555 1_555
C19 C18 1_555 1_555
H19 C19 1_555 1_555
C20 C19 1_555 1_555
H20 C20 1_555 1_555
C21 C20 1_555 1_555
C22 C21 1_555 1_555
H21 C22 1_555 1_555
C23 C18 1_555 1_555
H22 C23 1_555 1_555
C24 C21 1_555 1_555
H23 C24 1_555 1_555
H24 C24 1_555 1_555
C25 N3 1_555 1_555
H25 C25 1_555 1_555
C26 C25 1_555 1_555
H26 C26 1_555 1_555
C27 N3 1_555 1_555
H27 C27 1_555 1_555
Cd1C O3 1_555 1_555
Cd1E N4 1_555 1_555
O3C Cd1 1_555 1_555
O4C Cd1 1_555 1_555
N4A Cd1 1_555 1_555
O4 Cd1C 1_555 1_555
N2 C16 1_555 1_555
N4 C27 1_555 1_555
C7 C8 1_555 1_555
C12 C13 1_555 1_555
C22 C23 1_555 1_555

#END
