
#######################################################################
#
#                 Cambridge Crystallographic Data Centre
#                                CCDC 
#
#######################################################################
#
# If this CIF has been generated from an entry in the Cambridge 
# Structural Database, then it will include bibliographic, chemical, 
# crystal, experimental, refinement or atomic coordinate data resulting 
# from the CCDC's data processing and validation procedures.
#
#######################################################################

data_KATHIX
_symmetry_cell_setting           monoclinic
_symmetry_space_group_name_H-M   'C 2/m'
_symmetry_Int_Tables_number      12
_space_group_name_Hall           '-C 2y'
loop_
_symmetry_equiv_pos_site_id
_symmetry_equiv_pos_as_xyz
1 x,y,z
2 1/2+x,1/2+y,z
3 -x,y,-z
4 1/2-x,1/2+y,-z
5 -x,-y,-z
6 1/2-x,1/2-y,-z
7 x,-y,z
8 1/2+x,1/2-y,z
_cell_length_a                   13.3866(17)
_cell_length_b                   7.3166(7)
_cell_length_c                   8.0595(10)
_cell_angle_alpha                90
_cell_angle_beta                 112.503(3)
_cell_angle_gamma                90
_cell_volume                     729.279
loop_
_atom_site_label
_atom_site_type_symbol
_atom_site_fract_x
_atom_site_fract_y
_atom_site_fract_z
Ni1 Ni 0.5000 0.5000 0.5000
O1 O 0.58082(11) 0.5000 0.77586(18)
N1 N 0.59942(9) 0.70410(15) 0.47063(15)
N2 N 0.63339(15) 1.0000 0.3571(2)
N3 N 0.73719(13) 0.5000 1.0204(2)
C1 C 0.61394(9) 0.84635(18) 0.42201(16)
C2 C 0.68128(15) 0.5000 0.8455(2)
H1 H 0.7242(17) 0.5000 0.774(3)
C3 C 0.6836(2) 0.5000 1.1460(3)
H2 H 0.7060(14) 0.6031(7) 1.217(2)
H3 H 0.6084(9) 0.5000 1.089(4)
C4 C 0.85511(17) 0.5000 1.0956(3)
H4 H 0.8843(13) 0.6028(7) 1.1684(16)
H5 H 0.882(2) 0.5000 1.004(2)
Ni1_2 Ni 0.5000 1.5000 0.5000
Ni1_3 Ni 0.5000 -0.5000 0.5000
O1D O 0.41918(11) 0.5000 0.22414(18)
N1F N 0.59942(9) 1.29590(15) 0.47063(15)
N1F_2 N 0.59942(9) 0.29590(15) 0.47063(15)
N1_2 N 0.59942(9) -0.29590(15) 0.47063(15)
N1D N 0.40058(9) 0.29590(15) 0.52937(15)
N1B N 0.40058(9) 0.70410(15) 0.52937(15)
N2_2 N 0.63339(15) 0.0000 0.3571(2)
N3D N 0.26281(13) 0.5000 -0.0204(2)
C1F C 0.61394(9) 1.15365(18) 0.42201(16)
C1F_2 C 0.61394(9) 0.15365(18) 0.42201(16)
C1_2 C 0.61394(9) -0.15365(18) 0.42201(16)
C2D C 0.31872(15) 0.5000 0.1545(2)
H1D H 0.2758(17) 0.5000 0.226(3)
C3D C 0.3164(2) 0.5000 -0.1460(3)
H2F H 0.7060(14) 0.3969(7) 1.217(2)
H2D H 0.2940(14) 0.3969(7) -0.217(2)
H2B H 0.2940(14) 0.6031(7) -0.217(2)
H3D H 0.3916(9) 0.5000 -0.089(4)
C4D C 0.14489(17) 0.5000 -0.0956(3)
H4F H 0.8843(13) 0.3972(7) 1.1684(16)
H4D H 0.1157(13) 0.3972(7) -0.1684(16)
H4B H 0.1157(13) 0.6028(7) -0.1684(16)
H5D H 0.118(2) 0.5000 -0.004(2)
loop_
_geom_bond_atom_site_label_1
_geom_bond_atom_site_label_2
_geom_bond_site_symmetry_1
_geom_bond_site_symmetry_2
Ni1 O1 1_555 1_555
O1 C2 1_555 1_555
N1 Ni1 1_555 1_555
N2 C1 1_555 1_555
N3 C2 1_555 1_555
C1 N1 1_555 1_555
C2 H1 1_555 1_555
C3 N3 1_555 1_555
H2 C3 1_555 1_555
H3 C3 1_555 1_555
C4 N3 1_555 1_555
H4 C4 1_555 1_555
H5 C4 1_555 1_555
Ni1_2 N1F 1_555 1_555
Ni1_3 N1_2 1_555 1_555
O1D Ni1 1_555 1_555
N1F C1F 1_555 1_555
N1F_2 Ni1 1_555 1_555
N1_2 C1_2 1_555 1_555
N1D Ni1 1_555 1_555
N1B Ni1 1_555 1_555
N2_2 C1F_2 1_555 1_555
N3D C2D 1_555 1_555
C1F N2 1_555 1_555
C1F_2 N1F_2 1_555 1_555
C1_2 N2_2 1_555 1_555
C2D O1D 1_555 1_555
H1D C2D 1_555 1_555
C3D N3D 1_555 1_555
H2F C3 1_555 1_555
H2D C3D 1_555 1_555
H2B C3D 1_555 1_555
H3D C3D 1_555 1_555
C4D N3D 1_555 1_555
H4F C4 1_555 1_555
H4D C4D 1_555 1_555
H4B C4D 1_555 1_555
H5D C4D 1_555 1_555

#END
