
#######################################################################
#
#                 Cambridge Crystallographic Data Centre
#                                CCDC 
#
#######################################################################
#
# If this CIF has been generated from an entry in the Cambridge 
# Structural Database, then it will include bibliographic, chemical, 
# crystal, experimental, refinement or atomic coordinate data resulting 
# from the CCDC's data processing and validation procedures.
#
#######################################################################

data_KATKIB
_symmetry_cell_setting           monoclinic
_symmetry_space_group_name_H-M   'P 21/c'
_symmetry_Int_Tables_number      14
_space_group_name_Hall           '-P 2ybc'
loop_
_symmetry_equiv_pos_site_id
_symmetry_equiv_pos_as_xyz
1 x,y,z
2 -x,1/2+y,1/2-z
3 -x,-y,-z
4 x,1/2-y,1/2+z
_cell_length_a                   7.2006(14)
_cell_length_b                   9.810(2)
_cell_length_c                   13.937(3)
_cell_angle_alpha                90
_cell_angle_beta                 101.01(3)
_cell_angle_gamma                90
_cell_volume                     966.36
loop_
_atom_site_label
_atom_site_type_symbol
_atom_site_fract_x
_atom_site_fract_y
_atom_site_fract_z
N1 N -0.6274(3) 0.2149(2) 0.03436(19)
N2 N -0.7465(4) 0.4655(3) 0.0959(2)
C1 C -0.5632(4) 0.4336(3) 0.1069(2)
C2 C -0.5046(4) 0.3103(3) 0.0754(2)
H1 H -0.3756 0.2930 0.0829
C3 C -0.8105(4) 0.2450(3) 0.0254(2)
H2 H -0.9009 0.1812 -0.0019
C4 C -0.8679(4) 0.3689(3) 0.0559(2)
H3 H -0.9969 0.3862 0.0483
N3 N -0.2363(5) 0.5070(2) 0.1699(2)
N4 N -0.4579(3) 0.6581(2) 0.18760(19)
N5 N -0.1639(3) 0.6199(2) 0.21454(18)
N6 N -0.2932(3) 0.7112(2) 0.2266(2)
C5 C -0.4207(4) 0.5340(3) 0.1539(2)
C6 C 0.0394(4) 0.6381(3) 0.2506(2)
H4 H 0.0637 0.7326 0.2693
H5 H 0.1065 0.6181 0.1982
O1 O 0.0098(5) 0.4755(3) 0.3743(3)
C7 C 0.1170(4) 0.5466(3) 0.3384(2)
O2 O 0.2928(3) 0.5562(3) 0.36413(18)
Cd1 Cd 0.5000 0.5000 0.5000
O3 O 0.6826 0.3785 0.4090
H6 H 0.7617 0.4313 0.3886
H7 H 0.6251 0.3201 0.3600
N1A N 0.6274(3) 0.7149(2) 0.46564(19)
N1C N 0.3726(3) 0.2851(2) 0.53436(19)
N1B N 1.6274(3) 0.7851(2) 0.96564(19)
N2B N 1.7465(4) 0.5345(3) 0.9041(2)
C1B C 1.5632(4) 0.5664(3) 0.8931(2)
C2B C 1.5046(4) 0.6897(3) 0.9246(2)
H1B H 1.3756 0.7070 0.9171
C3B C 1.8105(4) 0.7550(3) 0.9746(2)
H2B H 1.9009 0.8188 1.0019
C4B C 1.8679(4) 0.6311(3) 0.9441(2)
H3B H 1.9969 0.6138 0.9517
N3B N 1.2363(5) 0.4930(2) 0.8301(2)
N4B N 1.4579(3) 0.3419(2) 0.81240(19)
N5B N 1.1639(3) 0.3801(2) 0.78546(18)
N6B N 1.2932(3) 0.2888(2) 0.7734(2)
C5B C 1.4207(4) 0.4660(3) 0.8461(2)
C6B C 0.9606(4) 0.3619(3) 0.7494(2)
H4B H 0.9363 0.2674 0.7307
H5B H 0.8935 0.3819 0.8018
O1B O 0.9902(5) 0.5245(3) 0.6257(3)
C7B C 0.8830(4) 0.4534(3) 0.6616(2)
O2B O 0.7072(3) 0.4438(3) 0.63587(18)
Cd1A Cd -0.5000 0.0000 0.0000
Cd1A_2 Cd 1.5000 1.0000 1.0000
O3B O 0.3174 0.6215 0.5910
H6B H 0.2383 0.5687 0.6114
H7B H 0.3749 0.6799 0.6400
loop_
_geom_bond_atom_site_label_1
_geom_bond_atom_site_label_2
_geom_bond_site_symmetry_1
_geom_bond_site_symmetry_2
N1 C2 1_555 1_555
N2 C1 1_555 1_555
C1 C2 1_555 1_555
C2 H1 1_555 1_555
C3 N1 1_555 1_555
H2 C3 1_555 1_555
C4 N2 1_555 1_555
H3 C4 1_555 1_555
N3 N5 1_555 1_555
N4 N6 1_555 1_555
N5 N6 1_555 1_555
C5 C1 1_555 1_555
C6 N5 1_555 1_555
H4 C6 1_555 1_555
H5 C6 1_555 1_555
O1 C7 1_555 1_555
C7 C6 1_555 1_555
O2 C7 1_555 1_555
Cd1 O2 1_555 1_555
O3 Cd1 1_555 1_555
H6 O3 1_555 1_555
H7 O3 1_555 1_555
N1A Cd1 1_555 1_555
N1C Cd1 1_555 1_555
N1B C2B 1_555 1_555
N2B C1B 1_555 1_555
C1B C2B 1_555 1_555
C2B H1B 1_555 1_555
C3B N1B 1_555 1_555
H2B C3B 1_555 1_555
C4B N2B 1_555 1_555
H3B C4B 1_555 1_555
N3B N5B 1_555 1_555
N4B N6B 1_555 1_555
N5B N6B 1_555 1_555
C5B C1B 1_555 1_555
C6B N5B 1_555 1_555
H4B C6B 1_555 1_555
H5B C6B 1_555 1_555
O1B C7B 1_555 1_555
C7B C6B 1_555 1_555
O2B Cd1 1_555 1_555
Cd1A N1 1_555 1_555
Cd1A_2 N1B 1_555 1_555
O3B Cd1 1_555 1_555
H6B O3B 1_555 1_555
H7B O3B 1_555 1_555
C3 C4 1_555 1_555
N3 C5 1_555 1_555
N4 C5 1_555 1_555
C3B C4B 1_555 1_555
N3B C5B 1_555 1_555
N4B C5B 1_555 1_555
C7B O2B 1_555 1_555

#END
