
#######################################################################
#
#                 Cambridge Crystallographic Data Centre
#                                CCDC 
#
#######################################################################
#
# If this CIF has been generated from an entry in the Cambridge 
# Structural Database, then it will include bibliographic, chemical, 
# crystal, experimental, refinement or atomic coordinate data resulting 
# from the CCDC's data processing and validation procedures.
#
#######################################################################

data_KATKAT
_symmetry_cell_setting           triclinic
_symmetry_space_group_name_H-M   'P -1'
_symmetry_Int_Tables_number      2
_space_group_name_Hall           '-P 1'
loop_
_symmetry_equiv_pos_site_id
_symmetry_equiv_pos_as_xyz
1 x,y,z
2 -x,-y,-z
_cell_length_a                   7.3993(15)
_cell_length_b                   7.9352(16)
_cell_length_c                   9.1366(18)
_cell_angle_alpha                93.16(3)
_cell_angle_beta                 97.93(3)
_cell_angle_gamma                114.13(3)
_cell_volume                     481.193
loop_
_atom_site_label
_atom_site_type_symbol
_atom_site_fract_x
_atom_site_fract_y
_atom_site_fract_z
Zn1 Zn 0.0000 1.0000 0.0000
O1 O 0.0583(3) 0.7802(3) 0.0645(2)
O2 O 0.3775(2) 0.9321(2) 0.18074(19)
O3 O 0.3051(2) 1.1664(2) 0.01224(19)
H1 H 0.4011 1.1427 0.0545
H2 H 0.3561 1.2757 -0.0110
N1 N 0.5035(4) 0.7044(4) 0.3932(3)
N2 N 0.3920(4) 0.6125(3) 0.2632(3)
N3 N 0.4766(4) 0.5271(4) 0.1881(3)
N4 N 0.6527(4) 0.5617(4) 0.2702(3)
N5 N 0.9919(4) 0.8914(3) 0.7622(3)
N6 N 1.0068(4) 0.7276(4) 0.4879(3)
C1 C 0.2178(4) 0.7921(4) 0.1432(3)
C2 C 0.1978(4) 0.6106(4) 0.2030(4)
H3 H 0.1164 0.5886 0.2805
H4 H 0.1286 0.5086 0.1233
C3 C 0.6673(4) 0.6721(4) 0.3942(3)
C4 C 0.8413(4) 0.7449(4) 0.5150(3)
C5 C 0.8349(4) 0.8278(4) 0.6503(3)
H5 H 0.7181 0.8396 0.6637
C6 C 1.1587(5) 0.8756(5) 0.7351(4)
H6 H 1.2724 0.9198 0.8092
C7 C 1.1634(5) 0.7949(5) 0.5994(4)
H7 H 1.2817 0.7869 0.5848
Zn1_2 Zn -1.0000 1.0000 -1.0000
Zn1_3 Zn 1.0000 1.0000 1.0000
O1A O -0.0583(3) 1.2198(3) -0.0645(2)
O2A O -0.3775(2) 1.0679(2) -0.18074(19)
O3A O -0.3051(2) 0.8336(2) -0.01224(19)
H1A H -0.4011 0.8573 -0.0545
H2A H -0.3561 0.7243 0.0110
N1A N -0.5035(4) 1.2956(4) -0.3932(3)
N2A N -0.3920(4) 1.3875(3) -0.2632(3)
N3A N -0.4766(4) 1.4729(4) -0.1881(3)
N4A N -0.6527(4) 1.4383(4) -0.2702(3)
N5A N -0.9919(4) 1.1086(3) -0.7622(3)
N5_2 N -0.0081(4) 0.8914(3) -0.2378(3)
N5A_2 N 0.0081(4) 1.1086(3) 0.2378(3)
N6A N -1.0068(4) 1.2724(4) -0.4879(3)
C1A C -0.2178(4) 1.2079(4) -0.1432(3)
C2A C -0.1978(4) 1.3894(4) -0.2030(4)
H3A H -0.1164 1.4114 -0.2805
H4A H -0.1286 1.4914 -0.1233
C3A C -0.6673(4) 1.3279(4) -0.3942(3)
C4A C -0.8413(4) 1.2551(4) -0.5150(3)
C5A C -0.8349(4) 1.1722(4) -0.6503(3)
H5A H -0.7181 1.1604 -0.6637
C6A C -1.1587(5) 1.1244(5) -0.7351(4)
H6A H -1.2724 1.0802 -0.8092
C7A C -1.1634(5) 1.2051(5) -0.5994(4)
H7A H -1.2817 1.2131 -0.5848
loop_
_geom_bond_atom_site_label_1
_geom_bond_atom_site_label_2
_geom_bond_site_symmetry_1
_geom_bond_site_symmetry_2
Zn1 O1 1_555 1_555
O1 C1 1_555 1_555
O2 C1 1_555 1_555
O3 Zn1 1_555 1_555
H1 O3 1_555 1_555
H2 O3 1_555 1_555
N1 N2 1_555 1_555
N2 N3 1_555 1_555
N3 N4 1_555 1_555
N4 C3 1_555 1_555
N5 C5 1_555 1_555
N6 C4 1_555 1_555
C1 C2 1_555 1_555
C2 N2 1_555 1_555
H3 C2 1_555 1_555
H4 C2 1_555 1_555
C3 N1 1_555 1_555
C4 C3 1_555 1_555
C5 C4 1_555 1_555
H5 C5 1_555 1_555
C6 N5 1_555 1_555
H6 C6 1_555 1_555
C7 N6 1_555 1_555
H7 C7 1_555 1_555
Zn1_2 N5A 1_555 1_555
Zn1_3 N5 1_555 1_555
O1A Zn1 1_555 1_555
O2A C1A 1_555 1_555
O3A Zn1 1_555 1_555
H1A O3A 1_555 1_555
H2A O3A 1_555 1_555
N1A N2A 1_555 1_555
N2A N3A 1_555 1_555
N3A N4A 1_555 1_555
N4A C3A 1_555 1_555
N5A C5A 1_555 1_555
N5_2 Zn1 1_555 1_555
N5A_2 Zn1 1_555 1_555
N6A C4A 1_555 1_555
C1A O1A 1_555 1_555
C2A N2A 1_555 1_555
H3A C2A 1_555 1_555
H4A C2A 1_555 1_555
C3A N1A 1_555 1_555
C4A C3A 1_555 1_555
C5A C4A 1_555 1_555
H5A C5A 1_555 1_555
C6A N5A 1_555 1_555
H6A C6A 1_555 1_555
C7A N6A 1_555 1_555
H7A C7A 1_555 1_555
C6 C7 1_555 1_555
C1A C2A 1_555 1_555
C6A C7A 1_555 1_555

#END
