
#######################################################################
#
#                 Cambridge Crystallographic Data Centre
#                                CCDC 
#
#######################################################################
#
# If this CIF has been generated from an entry in the Cambridge 
# Structural Database, then it will include bibliographic, chemical, 
# crystal, experimental, refinement or atomic coordinate data resulting 
# from the CCDC's data processing and validation procedures.
#
#######################################################################

data_KATKOH
_symmetry_cell_setting           monoclinic
_symmetry_space_group_name_H-M   'P 21/c'
_symmetry_Int_Tables_number      14
_space_group_name_Hall           '-P 2ybc'
loop_
_symmetry_equiv_pos_site_id
_symmetry_equiv_pos_as_xyz
1 x,y,z
2 -x,1/2+y,1/2-z
3 -x,-y,-z
4 x,1/2-y,1/2+z
_cell_length_a                   7.1801(14)
_cell_length_b                   9.6579(19)
_cell_length_c                   13.937(3)
_cell_angle_alpha                90
_cell_angle_beta                 100.38(3)
_cell_angle_gamma                90
_cell_volume                     950.64
loop_
_atom_site_label
_atom_site_type_symbol
_atom_site_fract_x
_atom_site_fract_y
_atom_site_fract_z
Mn1 Mn 1.0000 0.0000 1.0000
N1 N 0.3469(5) 0.1172(4) 0.7178(3)
O1 O 0.7860(5) 0.0451(4) 0.8773(3)
N2 N 0.2186(6) 0.2110(4) 0.7296(3)
N3 N 0.2737(5) 0.0048(4) 0.6715(3)
N4 N 0.0537(5) 0.1594(4) 0.6893(3)
C1 C 0.6125(6) 0.0382(5) 0.8449(3)
C2 C 0.5476(6) 0.1322(5) 0.7571(3)
H1 H 0.5736 0.2278 0.7765
H2 H 0.6198 0.1104 0.7066
C3 C 0.0892(6) 0.0338(4) 0.6550(3)
O2 O 0.4974(5) -0.0342(4) 0.8752(3)
N5 N -0.2351(4) -0.0317(3) 0.5959(2)
O3 O 0.8404(4) 0.1102(3) 1.0948(2)
H3 H 0.8871 0.1875 1.1328
H4 H 0.7395 0.0955 1.1137
C4 C -0.0523(6) -0.0658(5) 0.6076(3)
C5 C -0.3563(7) -0.1285(5) 0.5561(3)
H5 H -0.4852 -0.1101 0.5484
C6 C 0.0035(6) -0.1915(5) 0.5764(3)
H6 H 0.1323 -0.2106 0.5844
N6 N -0.1191(5) -0.2875(4) 0.5352(3)
C7 C -0.2999(6) -0.2535(5) 0.5263(3)
H7 H -0.3915 -0.3170 0.4988
Mn1A Mn 0.0000 -0.5000 0.5000
Mn1A_2 Mn 2.0000 0.5000 1.5000
N1B N 1.6531(5) -0.1172(4) 1.2822(3)
O1B O 1.2140(5) -0.0451(4) 1.1227(3)
N2B N 1.7814(6) -0.2110(4) 1.2704(3)
N3B N 1.7263(5) -0.0048(4) 1.3285(3)
N4B N 1.9463(5) -0.1594(4) 1.3107(3)
C1B C 1.3875(6) -0.0382(5) 1.1551(3)
C2B C 1.4524(6) -0.1322(5) 1.2429(3)
H1B H 1.4264 -0.2278 1.2235
H2B H 1.3802 -0.1104 1.2934
C3B C 1.9108(6) -0.0338(4) 1.3450(3)
O2B O 1.5026(5) 0.0342(4) 1.1248(3)
N5B N 2.2351(4) 0.0317(3) 1.4041(2)
O3B O 1.1596(4) -0.1102(3) 0.9052(2)
H3B H 1.1129 -0.1875 0.8672
H4B H 1.2605 -0.0955 0.8863
C4B C 2.0523(6) 0.0658(5) 1.3924(3)
C5B C 2.3563(7) 0.1285(5) 1.4439(3)
H5B H 2.4852 0.1101 1.4516
C6B C 1.9965(6) 0.1915(5) 1.4236(3)
H6B H 1.8677 0.2106 1.4156
N6B N 2.1191(5) 0.2875(4) 1.4648(3)
N6A N 1.1191(5) 0.2125(4) 0.9648(3)
N6C N 0.8809(5) -0.2125(4) 1.0352(3)
C7B C 2.2999(6) 0.2535(5) 1.4737(3)
H7B H 2.3915 0.3170 1.5012
loop_
_geom_bond_atom_site_label_1
_geom_bond_atom_site_label_2
_geom_bond_site_symmetry_1
_geom_bond_site_symmetry_2
Mn1 O1 1_555 1_555
N1 N2 1_555 1_555
O1 C1 1_555 1_555
N2 N4 1_555 1_555
N3 N1 1_555 1_555
N4 C3 1_555 1_555
C1 C2 1_555 1_555
C2 N1 1_555 1_555
H1 C2 1_555 1_555
H2 C2 1_555 1_555
C3 N3 1_555 1_555
O2 C1 1_555 1_555
N5 C4 1_555 1_555
O3 Mn1 1_555 1_555
H3 O3 1_555 1_555
H4 O3 1_555 1_555
C4 C3 1_555 1_555
C5 N5 1_555 1_555
H5 C5 1_555 1_555
C6 C4 1_555 1_555
H6 C6 1_555 1_555
N6 C6 1_555 1_555
C7 C5 1_555 1_555
H7 C7 1_555 1_555
Mn1A N6 1_555 1_555
Mn1A_2 N6B 1_555 1_555
N1B N2B 1_555 1_555
O1B Mn1 1_555 1_555
N2B N4B 1_555 1_555
N3B N1B 1_555 1_555
N4B C3B 1_555 1_555
C1B O1B 1_555 1_555
C2B N1B 1_555 1_555
H1B C2B 1_555 1_555
H2B C2B 1_555 1_555
C3B N3B 1_555 1_555
O2B C1B 1_555 1_555
N5B C4B 1_555 1_555
O3B Mn1 1_555 1_555
H3B O3B 1_555 1_555
H4B O3B 1_555 1_555
C4B C3B 1_555 1_555
C5B N5B 1_555 1_555
H5B C5B 1_555 1_555
C6B C4B 1_555 1_555
H6B C6B 1_555 1_555
N6B C6B 1_555 1_555
N6A Mn1 1_555 1_555
N6C Mn1 1_555 1_555
C7B C5B 1_555 1_555
H7B C7B 1_555 1_555
N6 C7 1_555 1_555
C1B C2B 1_555 1_555
N6B C7B 1_555 1_555

#END
