
#######################################################################
#
#                 Cambridge Crystallographic Data Centre
#                                CCDC 
#
#######################################################################
#
# If this CIF has been generated from an entry in the Cambridge 
# Structural Database, then it will include bibliographic, chemical, 
# crystal, experimental, refinement or atomic coordinate data resulting 
# from the CCDC's data processing and validation procedures.
#
#######################################################################

data_KATLAU
_symmetry_cell_setting           triclinic
_symmetry_space_group_name_H-M   'P -1'
_symmetry_Int_Tables_number      2
_space_group_name_Hall           '-P 1'
loop_
_symmetry_equiv_pos_site_id
_symmetry_equiv_pos_as_xyz
1 x,y,z
2 -x,-y,-z
_cell_length_a                   7.3092(15)
_cell_length_b                   8.6745(17)
_cell_length_c                   9.1315(18)
_cell_angle_alpha                72.30(3)
_cell_angle_beta                 82.73(3)
_cell_angle_gamma                86.47(3)
_cell_volume                     546.965
loop_
_atom_site_label
_atom_site_type_symbol
_atom_site_fract_x
_atom_site_fract_y
_atom_site_fract_z
Ni1 Ni 0.5000 0.0000 0.0000
O1 O 0.2444(5) 0.0300(5) 0.1092(5)
O2 O 0.2625(6) 0.2524(5) 0.1812(5)
N1 N -0.1669(7) 0.3738(6) 0.2488(6)
N2 N -0.0944(7) 0.2293(6) 0.3151(6)
N3 N -0.0807(8) 0.1988(7) 0.4643(7)
N4 N -0.1467(8) 0.3305(7) 0.5002(6)
N5 N -0.4175(6) 0.8398(5) 0.2099(6)
N6 N -0.3191(8) 0.6313(6) 0.4882(6)
C1 C 0.1794(8) 0.1362(7) 0.1692(7)
C2 C -0.0233(8) 0.1139(7) 0.2303(8)
H1 H -0.0943 0.1276 0.1442
H2 H -0.0403 0.0045 0.2986
C3 C -0.1989(8) 0.4325(7) 0.3684(7)
C4 C -0.2863(8) 0.5935(7) 0.3570(7)
C5 C -0.3315(8) 0.6978(7) 0.2184(7)
H3 H -0.3012 0.6682 0.1285
C6 C -0.4519(9) 0.8766(7) 0.3419(7)
H4 H -0.5113 0.9746 0.3416
C7 C -0.4027(4) 0.7748(3) 0.4774(3)
H5 H -0.4284 0.8067 0.5665
O3 O 0.3998(4) -0.1905(3) -0.0530(3)
H6 H 0.3148 -0.2592 -0.0311
H7 H 0.4929 -0.1865 -0.1199
Ni1_2 Ni -0.5000 1.0000 0.0000
Ni1_3 Ni 1.5000 -1.0000 0.0000
O1A O 0.7556(5) -0.0300(5) -0.1092(5)
O2A O 0.7375(6) -0.2524(5) -0.1812(5)
N1A N 1.1669(7) -0.3738(6) -0.2488(6)
N2A N 1.0944(7) -0.2293(6) -0.3151(6)
N3A N 1.0807(8) -0.1988(7) -0.4643(7)
N4A N 1.1467(8) -0.3305(7) -0.5002(6)
N5A N 0.4175(6) 0.1602(5) -0.2099(6)
N5_2 N 0.5825(6) -0.1602(5) 0.2099(6)
N5A_2 N 1.4175(6) -0.8398(5) -0.2099(6)
N6A N 1.3191(8) -0.6313(6) -0.4882(6)
C1A C 0.8206(8) -0.1362(7) -0.1692(7)
C2A C 1.0233(8) -0.1139(7) -0.2303(8)
H1A H 1.0943 -0.1276 -0.1442
H2A H 1.0403 -0.0045 -0.2986
C3A C 1.1989(8) -0.4325(7) -0.3684(7)
C4A C 1.2863(8) -0.5935(7) -0.3570(7)
C5A C 1.3315(8) -0.6978(7) -0.2184(7)
H3A H 1.3012 -0.6682 -0.1285
C6A C 1.4519(9) -0.8766(7) -0.3419(7)
H4A H 1.5113 -0.9746 -0.3416
C7A C 1.4027(4) -0.7748(3) -0.4774(3)
H5A H 1.4284 -0.8067 -0.5665
O3A O 0.6002(4) 0.1905(3) 0.0530(3)
H6A H 0.6852 0.2592 0.0311
H7A H 0.5071 0.1865 0.1199
O4 O 0.2075(4) 0.5948(3) 0.1825(3)
H8 H 0.2321 0.5495 0.2746
H9 H 0.1072 0.5565 0.1723
loop_
_geom_bond_atom_site_label_1
_geom_bond_atom_site_label_2
_geom_bond_site_symmetry_1
_geom_bond_site_symmetry_2
Ni1 O1 1_555 1_555
O1 C1 1_555 1_555
O2 C1 1_555 1_555
N1 N2 1_555 1_555
N2 N3 1_555 1_555
N3 N4 1_555 1_555
N4 C3 1_555 1_555
N5 C5 1_555 1_555
N6 C4 1_555 1_555
C1 C2 1_555 1_555
C2 N2 1_555 1_555
H1 C2 1_555 1_555
H2 C2 1_555 1_555
C3 N1 1_555 1_555
C4 C3 1_555 1_555
C5 C4 1_555 1_555
H3 C5 1_555 1_555
C6 N5 1_555 1_555
H4 C6 1_555 1_555
C7 N6 1_555 1_555
H5 C7 1_555 1_555
O3 Ni1 1_555 1_555
H6 O3 1_555 1_555
H7 O3 1_555 1_555
O4 H8 1_555 1_555
H9 O4 1_555 1_555
Ni1_2 N5 1_555 1_555
Ni1_3 N5A_2 1_555 1_555
O1A Ni1 1_555 1_555
O2A C1A 1_555 1_555
N1A N2A 1_555 1_555
N2A N3A 1_555 1_555
N3A N4A 1_555 1_555
N4A C3A 1_555 1_555
N5A Ni1 1_555 1_555
N5_2 Ni1 1_555 1_555
N5A_2 C5A 1_555 1_555
N6A C4A 1_555 1_555
C1A O1A 1_555 1_555
C2A N2A 1_555 1_555
H1A C2A 1_555 1_555
H2A C2A 1_555 1_555
C3A N1A 1_555 1_555
C4A C3A 1_555 1_555
C5A C4A 1_555 1_555
H3A C5A 1_555 1_555
C6A N5A_2 1_555 1_555
H4A C6A 1_555 1_555
C7A N6A 1_555 1_555
H5A C7A 1_555 1_555
O3A Ni1 1_555 1_555
H6A O3A 1_555 1_555
H7A O3A 1_555 1_555
C6 C7 1_555 1_555
C1A C2A 1_555 1_555
C6A C7A 1_555 1_555

#END
