
#######################################################################
#
#                 Cambridge Crystallographic Data Centre
#                                CCDC 
#
#######################################################################
#
# If this CIF has been generated from an entry in the Cambridge 
# Structural Database, then it will include bibliographic, chemical, 
# crystal, experimental, refinement or atomic coordinate data resulting 
# from the CCDC's data processing and validation procedures.
#
#######################################################################

data_KATLUO
_symmetry_cell_setting           monoclinic
_symmetry_space_group_name_H-M   'C 2/c'
_symmetry_Int_Tables_number      15
_space_group_name_Hall           '-C 2yn'
loop_
_symmetry_equiv_pos_site_id
_symmetry_equiv_pos_as_xyz
1 x,y,z
2 -x,y,1/2-z
3 1/2+x,1/2+y,z
4 1/2-x,1/2+y,1/2-z
5 -x,-y,-z
6 x,-y,1/2+z
7 1/2-x,1/2-y,-z
8 1/2+x,1/2-y,1/2+z
_cell_length_a                   13.418(3)
_cell_length_b                   9.872(2)
_cell_length_c                   15.608(3)
_cell_angle_alpha                90
_cell_angle_beta                 91.20(3)
_cell_angle_gamma                90
_cell_volume                     2067.02
loop_
_atom_site_label
_atom_site_type_symbol
_atom_site_fract_x
_atom_site_fract_y
_atom_site_fract_z
Cd1 Cd -0.5000 0.17236(4) 0.2500
O1 O -0.9815(3) -0.1838(3) 0.1334(2)
O2 O -0.8386(3) -0.2054(4) 0.2039(2)
N1 N -0.2597(2) -0.0414(3) 0.4060(2)
N2 N -0.2814(2) 0.0577(3) 0.3522(2)
N3 N -0.3793(2) 0.0568(3) 0.3432(2)
N4 N -0.3386(2) -0.1091(3) 0.4336(2)
N5 N -0.6513(3) -0.2058(4) 0.4546(2)
N6 N -0.5793(2) -0.0031(4) 0.3476(2)
C1 C -0.1106(4) -0.1627(4) 0.3561(3)
C2 C -0.1570(3) -0.0780(4) 0.4275(3)
H1 H -0.1553 -0.1293 0.4805
H2 H -0.1181 0.0037 0.4364
C3 C -0.4125(3) -0.0448(4) 0.3930(2)
C4 C -0.5188(3) -0.0769(4) 0.3981(2)
C5 C -0.5546(3) -0.1765(4) 0.4515(3)
H3 H -0.5099 -0.2245 0.4862
C6 C -0.7118(3) -0.1333(5) 0.4043(3)
H4 H -0.7799 -0.1512 0.4045
C7 C -0.6765(3) -0.0306(4) 0.3510(2)
H5 H -0.7214 0.0190 0.3174
Cd1B Cd -1.0000 -0.32764(4) 0.2500
Cd1B_2 Cd 0.0000 -0.32764(4) 0.2500
O1B O -0.4815(3) 0.3162(3) 0.1334(2)
O1C O -0.5185(3) 0.3162(3) 0.3666(2)
O1A O -0.0185(3) -0.1838(3) 0.3666(2)
O2B O -0.3386(3) 0.2946(4) 0.2039(2)
O2C O -0.6614(3) 0.2946(4) 0.2961(2)
O2A O -0.1614(3) -0.2054(4) 0.2961(2)
N1A N -0.7403(2) -0.0414(3) 0.0940(2)
N2A N -0.7186(2) 0.0577(3) 0.1478(2)
N3A N -0.6207(2) 0.0568(3) 0.1568(2)
N4A N -0.6614(2) -0.1091(3) 0.0664(2)
N5A N -0.3487(3) -0.2058(4) 0.0454(2)
N6A N -0.4207(2) -0.0031(4) 0.1524(2)
C1A C -0.8894(4) -0.1627(4) 0.1439(3)
C2A C -0.8430(3) -0.0780(4) 0.0725(3)
H1A H -0.8447 -0.1293 0.0195
H2A H -0.8819 0.0037 0.0636
C3A C -0.5875(3) -0.0448(4) 0.1070(2)
C4A C -0.4812(3) -0.0769(4) 0.1019(2)
C5A C -0.4454(3) -0.1765(4) 0.0485(3)
H3A H -0.4901 -0.2245 0.0138
C6A C -0.2882(3) -0.1333(5) 0.0957(3)
H4A H -0.2201 -0.1512 0.0955
C7A C -0.3235(3) -0.0306(4) 0.1490(2)
H5A H -0.2786 0.0190 0.1826
O3 O -0.4459(3) 0.6325(4) 0.2693(2)
H6 H -0.4065 0.6983 0.2609
C8 C -0.4303(3) 0.5839(4) 0.3608(2)
H7 H -0.4467 0.6555 0.3996
H8 H -0.3619 0.5582 0.3697
H9 H -0.4725 0.5073 0.3708
loop_
_geom_bond_atom_site_label_1
_geom_bond_atom_site_label_2
_geom_bond_site_symmetry_1
_geom_bond_site_symmetry_2
Cd1 N3 1_555 1_555
O1 Cd1B 1_555 1_555
O2 Cd1B 1_555 1_555
N1 N2 1_555 1_555
N2 N3 1_555 1_555
N3 C3 1_555 1_555
N4 N1 1_555 1_555
N5 C5 1_555 1_555
N6 Cd1 1_555 1_555
C1 C2 1_555 1_555
C2 N1 1_555 1_555
H1 C2 1_555 1_555
H2 C2 1_555 1_555
C3 N4 1_555 1_555
C4 N6 1_555 1_555
C5 C4 1_555 1_555
H3 C5 1_555 1_555
C6 N5 1_555 1_555
H4 C6 1_555 1_555
C7 N6 1_555 1_555
H5 C7 1_555 1_555
O3 H6 1_555 1_555
C8 O3 1_555 1_555
H7 C8 1_555 1_555
H8 C8 1_555 1_555
H9 C8 1_555 1_555
Cd1B_2 O1A 1_555 1_555
O1B Cd1 1_555 1_555
O1C Cd1 1_555 1_555
O1A C1 1_555 1_555
O2B Cd1 1_555 1_555
O2C Cd1 1_555 1_555
O2A C1 1_555 1_555
N1A N2A 1_555 1_555
N2A N3A 1_555 1_555
N3A Cd1 1_555 1_555
N4A N1A 1_555 1_555
N5A C5A 1_555 1_555
N6A Cd1 1_555 1_555
C1A O1 1_555 1_555
C2A N1A 1_555 1_555
H1A C2A 1_555 1_555
H2A C2A 1_555 1_555
C3A N3A 1_555 1_555
C4A N6A 1_555 1_555
C5A C4A 1_555 1_555
H3A C5A 1_555 1_555
C6A N5A 1_555 1_555
H4A C6A 1_555 1_555
C7A N6A 1_555 1_555
H5A C7A 1_555 1_555
O2 C1A 1_555 1_555
C3 C4 1_555 1_555
C6 C7 1_555 1_555
Cd1B_2 O2A 1_555 1_555
N4A C3A 1_555 1_555
C1A C2A 1_555 1_555
C3A C4A 1_555 1_555
C6A C7A 1_555 1_555

#END
