
#######################################################################
#
#                 Cambridge Crystallographic Data Centre
#                                CCDC 
#
#######################################################################
#
# If this CIF has been generated from an entry in the Cambridge 
# Structural Database, then it will include bibliographic, chemical, 
# crystal, experimental, refinement or atomic coordinate data resulting 
# from the CCDC's data processing and validation procedures.
#
#######################################################################

data_KATLEY
_symmetry_cell_setting           triclinic
_symmetry_space_group_name_H-M   'P -1'
_symmetry_Int_Tables_number      2
_space_group_name_Hall           '-P 1'
loop_
_symmetry_equiv_pos_site_id
_symmetry_equiv_pos_as_xyz
1 x,y,z
2 -x,-y,-z
_cell_length_a                   7.3403(15)
_cell_length_b                   8.7531(18)
_cell_length_c                   9.1213(18)
_cell_angle_alpha                72.84(3)
_cell_angle_beta                 82.81(3)
_cell_angle_gamma                86.40(3)
_cell_volume                     555.349
loop_
_atom_site_label
_atom_site_type_symbol
_atom_site_fract_x
_atom_site_fract_y
_atom_site_fract_z
Zn1 Zn -0.5000 1.0000 0.5000
O1 O -0.2428(3) 0.9694(3) 0.3891(3)
O2 O -0.2582(2) 0.74323(17) 0.32414(18)
O3 O -0.4006(2) 1.19171(17) 0.55640(18)
H1 H -0.4777 1.2587 0.5817
H2 H -0.4027 1.2468 0.4627
N1 N 0.1658(3) 0.6276(3) 0.2464(3)
N2 N 0.0929(3) 0.7705(3) 0.1816(3)
N3 N 0.0779(4) 0.7991(3) 0.0331(3)
N4 N 0.1454(4) 0.6704(3) -0.0050(3)
N5 N 0.4137(3) 0.1664(3) 0.2809(3)
N6 N 0.3212(4) 0.3749(3) 0.0017(3)
C1 C -0.1764(4) 0.8608(3) 0.3312(3)
C2 C 0.0248(4) 0.8835(4) 0.2670(4)
H3 H 0.0400 0.9916 0.1993
H4 H 0.0978 0.8706 0.3517
C3 C 0.1967(4) 0.5678(3) 0.1268(3)
C4 C 0.2836(4) 0.4105(3) 0.1349(3)
C5 C 0.3278(4) 0.3073(3) 0.2736(3)
H5 H 0.2971 0.3366 0.3639
C6 C 0.4537(5) 0.1299(4) 0.1478(4)
H6 H 0.5159 0.0342 0.1471
C7 C 0.4034(3) 0.2331(3) 0.0112(3)
H7 H 0.4283 0.2018 -0.0784
Zn1_2 Zn -1.5000 2.0000 0.5000
Zn1_3 Zn 0.5000 0.0000 0.5000
O1A O -0.7572(3) 1.0306(3) 0.6109(3)
O2A O -0.7418(2) 1.25677(17) 0.67586(18)
O3A O -0.5994(2) 0.80829(17) 0.44360(18)
H1A H -0.5223 0.7413 0.4183
H2A H -0.5973 0.7532 0.5373
N1A N -1.1658(3) 1.3724(3) 0.7536(3)
N2A N -1.0929(3) 1.2295(3) 0.8184(3)
N3A N -1.0779(4) 1.2009(3) 0.9669(3)
N4A N -1.1454(4) 1.3296(3) 1.0050(3)
N5A N -1.4137(3) 1.8336(3) 0.7191(3)
N5_2 N -0.5863(3) 1.1664(3) 0.2809(3)
N5A_2 N -0.4137(3) 0.8336(3) 0.7191(3)
N6A N -1.3212(4) 1.6251(3) 0.9983(3)
C1A C -0.8236(4) 1.1392(3) 0.6688(3)
C2A C -1.0248(4) 1.1165(4) 0.7330(4)
H3A H -1.0400 1.0084 0.8007
H4A H -1.0978 1.1294 0.6483
C3A C -1.1967(4) 1.4322(3) 0.8732(3)
C4A C -1.2836(4) 1.5895(3) 0.8651(3)
C5A C -1.3278(4) 1.6927(3) 0.7264(3)
H5A H -1.2971 1.6634 0.6361
C6A C -1.4537(5) 1.8701(4) 0.8522(4)
H6A H -1.5159 1.9658 0.8529
C7A C -1.4034(3) 1.7669(3) 0.9888(3)
H7A H -1.4283 1.7982 1.0784
O4 O 0.7961(3) 0.4022(3) 0.3259(3)
H8 H 0.9073 0.4252 0.3248
H9 H 0.7870 0.3802 0.2425
loop_
_geom_bond_atom_site_label_1
_geom_bond_atom_site_label_2
_geom_bond_site_symmetry_1
_geom_bond_site_symmetry_2
Zn1 O1 1_555 1_555
O1 C1 1_555 1_555
O2 C1 1_555 1_555
O3 Zn1 1_555 1_555
H1 O3 1_555 1_555
H2 O3 1_555 1_555
N1 N2 1_555 1_555
N2 N3 1_555 1_555
N3 N4 1_555 1_555
N4 C3 1_555 1_555
N5 C5 1_555 1_555
N6 C4 1_555 1_555
C1 C2 1_555 1_555
C2 N2 1_555 1_555
H3 C2 1_555 1_555
H4 C2 1_555 1_555
C3 N1 1_555 1_555
C4 C3 1_555 1_555
C5 C4 1_555 1_555
H5 C5 1_555 1_555
C6 N5 1_555 1_555
H6 C6 1_555 1_555
C7 N6 1_555 1_555
H7 C7 1_555 1_555
O4 H8 1_555 1_555
H9 O4 1_555 1_555
Zn1_2 N5A 1_555 1_555
Zn1_3 N5 1_555 1_555
O1A Zn1 1_555 1_555
O2A C1A 1_555 1_555
O3A Zn1 1_555 1_555
H1A O3A 1_555 1_555
H2A O3A 1_555 1_555
N1A N2A 1_555 1_555
N2A N3A 1_555 1_555
N3A N4A 1_555 1_555
N4A C3A 1_555 1_555
N5A C5A 1_555 1_555
N5_2 Zn1 1_555 1_555
N5A_2 Zn1 1_555 1_555
N6A C4A 1_555 1_555
C1A O1A 1_555 1_555
C2A N2A 1_555 1_555
H3A C2A 1_555 1_555
H4A C2A 1_555 1_555
C3A N1A 1_555 1_555
C4A C3A 1_555 1_555
C5A C4A 1_555 1_555
H5A C5A 1_555 1_555
C6A N5A 1_555 1_555
H6A C6A 1_555 1_555
C7A N6A 1_555 1_555
H7A C7A 1_555 1_555
C6 C7 1_555 1_555
C1A C2A 1_555 1_555
C6A C7A 1_555 1_555

#END
