
#######################################################################
#
#                 Cambridge Crystallographic Data Centre
#                                CCDC 
#
#######################################################################
#
# If this CIF has been generated from an entry in the Cambridge 
# Structural Database, then it will include bibliographic, chemical, 
# crystal, experimental, refinement or atomic coordinate data resulting 
# from the CCDC's data processing and validation procedures.
#
#######################################################################

data_KATLOI
_symmetry_cell_setting           monoclinic
_symmetry_space_group_name_H-M   'P 21/n'
_symmetry_Int_Tables_number      14
_space_group_name_Hall           '-P 2yn'
loop_
_symmetry_equiv_pos_site_id
_symmetry_equiv_pos_as_xyz
1 x,y,z
2 1/2-x,1/2+y,1/2-z
3 -x,-y,-z
4 1/2+x,1/2-y,1/2+z
_cell_length_a                   7.7833(16)
_cell_length_b                   12.865(3)
_cell_length_c                   12.192(2)
_cell_angle_alpha                90
_cell_angle_beta                 91.73(3)
_cell_angle_gamma                90
_cell_volume                     1220.25
loop_
_atom_site_label
_atom_site_type_symbol
_atom_site_fract_x
_atom_site_fract_y
_atom_site_fract_z
N1 N -0.1158(5) 0.7239(3) -0.1083(3)
N2 N 0.1208(5) 0.9492(3) -0.1987(3)
N3 N 0.1548(4) 0.8486(3) -0.0513(3)
N4 N 0.2551(4) 0.9771(3) -0.1343(3)
N5 N 0.2786(4) 0.9190(3) -0.0452(3)
C1 C 0.0604(5) 0.8685(3) -0.1438(3)
C2 C -0.0836(6) 0.8020(3) -0.1769(3)
C3 C -0.2434(6) 0.6594(4) -0.1385(4)
H1 H -0.2711 0.6045 -0.0926
C4 C -0.1762(5) 0.8156(3) -0.2749(4)
H2 H -0.1493 0.8708 -0.3205
N6 N -0.3036(5) 0.7508(3) -0.3048(3)
C5 C -0.3352(6) 0.6726(4) -0.2363(4)
H3 H -0.4218 0.6255 -0.2550
C6 C 0.3611(6) 1.0681(3) -0.1568(4)
H4 H 0.3905 1.0682 -0.2336
H5 H 0.4671 1.0643 -0.1131
C7 C 0.2669(6) 1.1690(3) -0.1303(4)
O1 O 0.1193(4) 1.1612(2) -0.0926(3)
O2 O 0.3468(5) 1.2491(3) -0.1511(4)
Co1 Co 0.04843(8) 0.72340(4) 0.04333(4)
Cl1 Cl 0.23615(14) 0.59833(9) -0.03102(9)
O3 O -0.09740(14) 0.61163(9) 0.12603(9)
H6 H -0.0998 0.5476 0.1423
H7 H -0.1879 0.6395 0.1506
N6C N 0.1964(5) 0.7492(3) 0.1952(3)
O1B O -0.1193(4) 0.8388(2) 0.0926(3)
Co1C Co -0.45157(8) 0.77660(4) -0.45667(4)
Co1B Co -0.04843(8) 1.27660(4) -0.04333(4)
loop_
_geom_bond_atom_site_label_1
_geom_bond_atom_site_label_2
_geom_bond_site_symmetry_1
_geom_bond_site_symmetry_2
N1 C2 1_555 1_555
N2 N4 1_555 1_555
N3 N5 1_555 1_555
N4 N5 1_555 1_555
C1 N2 1_555 1_555
C2 C1 1_555 1_555
C3 N1 1_555 1_555
H1 C3 1_555 1_555
C4 C2 1_555 1_555
H2 C4 1_555 1_555
N6 C4 1_555 1_555
C5 C3 1_555 1_555
H3 C5 1_555 1_555
C6 N4 1_555 1_555
H4 C6 1_555 1_555
H5 C6 1_555 1_555
C7 C6 1_555 1_555
O1 C7 1_555 1_555
O2 C7 1_555 1_555
Co1 N1 1_555 1_555
Cl1 Co1 1_555 1_555
O3 Co1 1_555 1_555
H6 O3 1_555 1_555
H7 O3 1_555 1_555
N6C Co1 1_555 1_555
O1B Co1 1_555 1_555
Co1C N6 1_555 1_555
Co1B O1 1_555 1_555
N3 C1 1_555 1_555
N3 Co1 1_555 1_555
N6 C5 1_555 1_555

#END
