
#######################################################################
#
#                 Cambridge Crystallographic Data Centre
#                                CCDC 
#
#######################################################################
#
# If this CIF has been generated from an entry in the Cambridge 
# Structural Database, then it will include bibliographic, chemical, 
# crystal, experimental, refinement or atomic coordinate data resulting 
# from the CCDC's data processing and validation procedures.
#
#######################################################################

data_KATLEX
_symmetry_cell_setting           triclinic
_symmetry_space_group_name_H-M   'P -1'
_symmetry_Int_Tables_number      2
_space_group_name_Hall           '-P 1'
loop_
_symmetry_equiv_pos_site_id
_symmetry_equiv_pos_as_xyz
1 x,y,z
2 -x,-y,-z
_cell_length_a                   8.279(2)
_cell_length_b                   8.731(3)
_cell_length_c                   9.098(3)
_cell_angle_alpha                94.83(4)
_cell_angle_beta                 115.540(10)
_cell_angle_gamma                111.93(2)
_cell_volume                     526.288
loop_
_atom_site_label
_atom_site_type_symbol
_atom_site_fract_x
_atom_site_fract_y
_atom_site_fract_z
Ce1 Ce 0.41533(8) 0.48451(8) 0.72520(7)
O1 O 0.6588(11) 0.4845(11) 1.0135(11)
O2 O 0.8937(11) 0.5134(13) 1.2619(10)
O3 O 0.5873(13) 0.7910(12) 0.8990(11)
O4 O 0.5326(18) 0.9828(16) 0.7657(15)
O5 O 1.1199(13) 1.2845(13) 1.4465(11)
O6 O 1.3097(13) 1.3732(14) 1.3310(15)
O7 O 0.2323(13) 0.1990(13) 0.7615(12)
O8 O 0.5232(14) 0.2666(12) 0.6574(11)
O9 O 0.2847(13) 0.6612(13) 0.5349(12)
C1 C 0.8280(16) 0.4989(16) 1.1082(16)
C2 C 0.9506(16) 0.5004(17) 1.0307(18)
C3 C 0.6341(17) 0.9416(17) 0.8849(15)
C4 C 0.819(2) 1.0746(18) 1.0313(18)
C5 C 0.9708(16) 1.1737(16) 1.1595(15)
C6 C 1.1448(15) 1.2838(15) 1.3206(15)
H1 H 0.15(3) 0.61(3) 0.45(3)
H2 H 0.34(3) 0.77(3) 0.58(3)
Ce1A Ce 1.58467(8) 0.51549(8) 1.27480(7)
Ce1A_2 Ce 0.58467(8) 0.51549(8) 1.27480(7)
Ce1_2 Ce 1.41533(8) 1.48451(8) 1.72520(7)
Ce1A_3 Ce 1.58467(8) 1.51549(8) 1.27480(7)
Ce1_3 Ce 1.41533(8) 0.48451(8) 0.72520(7)
Ce1_4 Ce -0.58467(8) -0.51549(8) -0.27480(7)
Ce1A_4 Ce 0.58467(8) 0.51549(8) 0.27480(7)
O1A O 1.3412(11) 0.5155(11) 0.9865(11)
O1A_2 O 0.3412(11) 0.5155(11) 0.9865(11)
O1_2 O 1.6588(11) 0.4845(11) 1.0135(11)
O2A O 1.1063(11) 0.4866(13) 0.7381(10)
O2A_2 O 0.1063(11) 0.4866(13) 0.7381(10)
O2_2 O 1.8937(11) 0.5134(13) 1.2619(10)
O3_2 O -0.4127(13) -0.2090(12) -0.1010(11)
O3A O 1.4127(13) 0.2090(12) 1.1010(11)
O4_2 O -0.4674(18) -0.0172(16) -0.2343(15)
O5_2 O 0.1199(13) 0.2845(13) 0.4465(11)
O5A O 1.8801(13) 0.7155(13) 1.5535(11)
O6_2 O 0.3097(13) 0.3732(14) 0.3310(15)
O6A O 0.6903(13) 0.6268(14) 0.6690(15)
O6_3 O 1.3097(13) 0.3732(14) 1.3310(15)
O7A O 1.7677(13) 0.8010(13) 1.2385(12)
O8A O 1.4768(14) 0.7334(12) 1.3426(11)
O9A O 1.7153(13) 0.3388(13) 1.4651(12)
C1A C 1.1720(16) 0.5011(16) 0.8918(16)
C2A C 1.0494(16) 0.4996(17) 0.9693(18)
C3_2 C -0.3659(17) -0.0584(17) -0.1151(15)
C4_2 C -0.181(2) 0.0746(18) 0.0313(18)
C5_2 C -0.0292(16) 0.1737(16) 0.1595(15)
C6_2 C 0.1448(15) 0.2838(15) 0.3206(15)
H1A H 1.85(3) 0.39(3) 1.55(3)
H2A H 1.66(3) 0.23(3) 1.42(3)
loop_
_geom_bond_atom_site_label_1
_geom_bond_atom_site_label_2
_geom_bond_site_symmetry_1
_geom_bond_site_symmetry_2
Ce1 O1 1_555 1_555
O1 C1 1_555 1_555
O2 C1 1_555 1_555
O3 Ce1 1_555 1_555
O4 C3 1_555 1_555
O5 C6 1_555 1_555
O6 C6 1_555 1_555
O7 Ce1 1_555 1_555
O8 Ce1 1_555 1_555
O9 Ce1 1_555 1_555
C1 C2 1_555 1_555
C2 C2A 1_555 1_555
C3 O3 1_555 1_555
C4 C3 1_555 1_555
C5 C4 1_555 1_555
C6 C5 1_555 1_555
H1 O9 1_555 1_555
H2 O9 1_555 1_555
Ce1A O1A 1_555 1_555
Ce1A_2 O1 1_555 1_555
Ce1_2 O5 1_555 1_555
Ce1A_3 O6 1_555 1_555
Ce1_3 O1A 1_555 1_555
Ce1_4 O3_2 1_555 1_555
Ce1A_4 O6_2 1_555 1_555
O1A C1A 1_555 1_555
O1A_2 Ce1 1_555 1_555
O1_2 Ce1A 1_555 1_555
O2A Ce1_3 1_555 1_555
O2A_2 Ce1 1_555 1_555
O2_2 Ce1A 1_555 1_555
O3_2 C3_2 1_555 1_555
O3A Ce1A 1_555 1_555
O4_2 C3_2 1_555 1_555
O5_2 Ce1 1_555 1_555
O5A Ce1A 1_555 1_555
O6_2 C6_2 1_555 1_555
O6A Ce1 1_555 1_555
O6_3 Ce1A 1_555 1_555
O7A Ce1A 1_555 1_555
O8A Ce1A 1_555 1_555
O9A Ce1A 1_555 1_555
C1A O2A 1_555 1_555
C2A C1A 1_555 1_555
C3_2 C4_2 1_555 1_555
C4_2 C5_2 1_555 1_555
C5_2 C6_2 1_555 1_555
C6_2 O5_2 1_555 1_555
H1A O9A 1_555 1_555
H2A O9A 1_555 1_555
O2 Ce1A_2 1_555 1_555
Ce1A_2 O1A_2 1_555 1_555
Ce1_3 O1_2 1_555 1_555

#END
