
#######################################################################
#
#                 Cambridge Crystallographic Data Centre
#                                CCDC 
#
#######################################################################
#
# If this CIF has been generated from an entry in the Cambridge 
# Structural Database, then it will include bibliographic, chemical, 
# crystal, experimental, refinement or atomic coordinate data resulting 
# from the CCDC's data processing and validation procedures.
#
#######################################################################

data_KATLIC
_symmetry_cell_setting           triclinic
_symmetry_space_group_name_H-M   'P -1'
_symmetry_Int_Tables_number      2
_space_group_name_Hall           '-P 1'
loop_
_symmetry_equiv_pos_site_id
_symmetry_equiv_pos_as_xyz
1 x,y,z
2 -x,-y,-z
_cell_length_a                   7.2524(15)
_cell_length_b                   8.7822(18)
_cell_length_c                   9.2384(18)
_cell_angle_alpha                72.22(3)
_cell_angle_beta                 82.39(3)
_cell_angle_gamma                86.36(3)
_cell_volume                     555.207
loop_
_atom_site_label
_atom_site_type_symbol
_atom_site_fract_x
_atom_site_fract_y
_atom_site_fract_z
Co1 Co 1.0000 1.0000 -1.0000
O1 O 1.2567(3) 0.9664(2) -1.1135(3)
O2 O 1.1035(3) 1.1930(2) -0.9498(3)
H1 H 1.1728 1.2621 -1.0156
H2 H 1.0196 1.2505 -0.9170
O3 O 1.2360(5) 0.7462(4) -1.1829(4)
N1 N 1.5942(5) 0.7690(4) -1.3192(4)
N2 N 1.6680(5) 0.6256(4) -1.2545(4)
C1 C 1.3217(6) 0.8598(5) -1.1729(5)
C2 C 1.5258(6) 0.8826(5) -1.2371(5)
H3 H 1.5417 0.9904 -1.3059
H4 H 1.5994 0.8703 -1.1537
N3 N 1.8189(6) 0.3700(5) -1.4914(4)
N4 N 1.6479(6) 0.6678(5) -1.5026(4)
N5 N 1.5809(6) 0.7974(5) -1.4669(5)
C3 C 1.8296(6) 0.3036(5) -1.2224(5)
H5 H 1.8000 0.3341 -1.1339
C4 C 1.7842(6) 0.4063(5) -1.3610(5)
C5 C 1.6996(6) 0.5668(5) -1.3704(5)
C6 C 1.9020(7) 0.2273(5) -1.4801(6)
H6 H 1.9281 0.1952 -1.5679
C7 C 1.9501(7) 0.1265(5) -1.3450(5)
H7 H 2.0098 0.0295 -1.3447
N6 N 1.9145(4) 0.1622(3) -1.2132(3)
Co1_2 Co 0.0000 2.0000 -1.0000
Co1_3 Co 2.0000 0.0000 -1.0000
O1A O 0.7433(3) 1.0336(2) -0.8865(3)
O2A O 0.8965(3) 0.8070(2) -1.0502(3)
H1A H 0.8272 0.7379 -0.9844
H2A H 0.9804 0.7495 -1.0830
O3A O 0.7640(5) 1.2538(4) -0.8171(4)
N1A N 0.4058(5) 1.2310(4) -0.6808(4)
N2A N 0.3320(5) 1.3744(4) -0.7455(4)
C1A C 0.6783(6) 1.1402(5) -0.8271(5)
C2A C 0.4742(6) 1.1174(5) -0.7629(5)
H3A H 0.4583 1.0096 -0.6941
H4A H 0.4006 1.1297 -0.8463
N3A N 0.1811(6) 1.6300(5) -0.5086(4)
N4A N 0.3521(6) 1.3322(5) -0.4974(4)
N5A N 0.4191(6) 1.2026(5) -0.5331(5)
C3A C 0.1704(6) 1.6964(5) -0.7776(5)
H5A H 0.2000 1.6659 -0.8661
C4A C 0.2158(6) 1.5937(5) -0.6390(5)
C5A C 0.3004(6) 1.4332(5) -0.6296(5)
C6A C 0.0980(7) 1.7727(5) -0.5199(6)
H6A H 0.0719 1.8048 -0.4321
C7A C 0.0499(7) 1.8735(5) -0.6550(5)
H7A H -0.0098 1.9705 -0.6553
N6A N 0.0855(4) 1.8378(3) -0.7868(3)
N6_2 N 0.9145(4) 1.1622(3) -1.2132(3)
N6A_2 N 1.0855(4) 0.8378(3) -0.7868(3)
O4 O 1.2901(4) 1.4098(3) -1.1848(3)
H8 H 1.2813 1.5148 -1.1935
H9 H 1.3150 1.4030 -1.2783
loop_
_geom_bond_atom_site_label_1
_geom_bond_atom_site_label_2
_geom_bond_site_symmetry_1
_geom_bond_site_symmetry_2
Co1 O1 1_555 1_555
O1 C1 1_555 1_555
O2 Co1 1_555 1_555
H1 O2 1_555 1_555
H2 O2 1_555 1_555
O3 C1 1_555 1_555
N1 N2 1_555 1_555
N2 C5 1_555 1_555
C1 C2 1_555 1_555
C2 N1 1_555 1_555
H3 C2 1_555 1_555
H4 C2 1_555 1_555
N3 C4 1_555 1_555
N4 N5 1_555 1_555
N5 N1 1_555 1_555
C3 H5 1_555 1_555
C4 C3 1_555 1_555
C5 N4 1_555 1_555
C6 N3 1_555 1_555
H6 C6 1_555 1_555
C7 C6 1_555 1_555
H7 C7 1_555 1_555
N6 C3 1_555 1_555
O4 H8 1_555 1_555
H9 O4 1_555 1_555
Co1_2 N6A 1_555 1_555
Co1_3 N6 1_555 1_555
O1A Co1 1_555 1_555
O2A Co1 1_555 1_555
H1A O2A 1_555 1_555
H2A O2A 1_555 1_555
O3A C1A 1_555 1_555
N1A N2A 1_555 1_555
N2A C5A 1_555 1_555
C1A O1A 1_555 1_555
C2A N1A 1_555 1_555
H3A C2A 1_555 1_555
H4A C2A 1_555 1_555
N3A C4A 1_555 1_555
N4A N5A 1_555 1_555
N5A N1A 1_555 1_555
C3A H5A 1_555 1_555
C4A C3A 1_555 1_555
C5A N4A 1_555 1_555
C6A N3A 1_555 1_555
H6A C6A 1_555 1_555
C7A C6A 1_555 1_555
H7A C7A 1_555 1_555
N6A C3A 1_555 1_555
N6_2 Co1 1_555 1_555
N6A_2 Co1 1_555 1_555
C4 C5 1_555 1_555
C7 N6 1_555 1_555
C1A C2A 1_555 1_555
C4A C5A 1_555 1_555
C7A N6A 1_555 1_555

#END
