
#######################################################################
#
#                 Cambridge Crystallographic Data Centre
#                                CCDC 
#
#######################################################################
#
# If this CIF has been generated from an entry in the Cambridge 
# Structural Database, then it will include bibliographic, chemical, 
# crystal, experimental, refinement or atomic coordinate data resulting 
# from the CCDC's data processing and validation procedures.
#
#######################################################################

data_KATNOJ
_symmetry_cell_setting           triclinic
_symmetry_space_group_name_H-M   'P 1'
_symmetry_Int_Tables_number      1
_space_group_name_Hall           'P 1'
loop_
_symmetry_equiv_pos_site_id
_symmetry_equiv_pos_as_xyz
1 x,y,z
_cell_length_a                   5.7767(5)
_cell_length_b                   6.0835(5)
_cell_length_c                   23.880(2)
_cell_angle_alpha                83.1510(10)
_cell_angle_beta                 86.4820(10)
_cell_angle_gamma                61.6120(10)
_cell_volume                     733.009
loop_
_atom_site_label
_atom_site_type_symbol
_atom_site_fract_x
_atom_site_fract_y
_atom_site_fract_z
Na1 Na 0.8101(2) 0.0604(2) 0.74213(6)
O1 O 0.6838(5) -0.2600(5) 0.76335(13)
O2 O 0.4009(5) 0.3279(5) 0.70443(12)
O3 O 1.0901(5) -0.4352(5) 0.88818(13)
C1 C 1.2463(7) -0.3992(7) 0.91531(16)
C2 C 1.4239(9) -0.9043(8) 1.10835(19)
O4 O 1.4752(5) -0.4488(5) 0.89860(12)
O5 O 0.0412(5) 0.2862(5) 0.72135(12)
C3 C 0.1772(8) 0.3740(7) 0.58729(16)
C4 C 0.2351(7) 0.2636(7) 0.69105(15)
C5 C 0.2763(7) 0.1577(7) 0.63408(16)
H1 H 0.4662 0.0557 0.6285
C6 C 1.1606(8) -0.2955(8) 0.97265(17)
H2 H 1.2466 -0.1937 0.9775
C7 C 1.2584(7) -0.5127(7) 1.01917(16)
C8 C 1.4482(8) -0.5487(7) 1.05721(17)
H3 H 1.5235 -0.4423 1.0532
C9 C 0.2591(8) 0.6015(8) 0.50525(17)
H4 H 0.3792 0.6209 0.4801
C10 C 1.1546(8) -0.6809(7) 1.02605(16)
H5 H 1.0293 -0.6642 1.0009
C11 C 0.3501(8) 0.4087(7) 0.54911(16)
H6 H 0.5299 0.3015 0.5528
C12 C -0.1804(8) 0.7322(7) 0.53724(16)
H7 H -0.3597 0.8416 0.5339
C13 C 1.5283(8) -0.7395(8) 1.10103(17)
H8 H 1.6547 -0.7574 1.1261
C14 C -0.1055(10) 0.9738(9) 0.45030(18)
H9 H 0.0444 0.9669 0.4283
H10 H -0.1917 1.1339 0.4660
C15 C -0.0912(7) 0.5400(7) 0.58090(16)
H11 H -0.2113 0.5214 0.6062
C16 C 0.1498(9) -0.0118(7) 0.63103(17)
H12 H 0.1863 -0.0759 0.5949
H13 H -0.0371 0.0834 0.6361
H14 H 0.2207 -0.1492 0.6602
C17 C 0.8648(8) -0.1279(8) 0.97741(18)
H15 H 0.8229 -0.0702 1.0142
H16 H 0.7750 -0.2216 0.9717
H17 H 0.8102 0.0139 0.9493
C18 C 1.2363(8) -0.8713(8) 1.06984(17)
H18 H 1.1639 -0.9801 1.0736
C19 C -0.0067(9) 0.7648(8) 0.49833(17)
C20 C -0.2987(15) 0.9620(11) 0.4107(3)
H19 H -0.4547 0.9791 0.4325
C21 C 1.5115(10) -1.1107(10) 1.15591(19)
H20 H 1.6433 -1.1022 1.1775
H21 H 1.5947 -1.2708 1.1402
C22 C -0.383(2) 1.1818(15) 0.3643(3)
H22 H -0.5117 1.1814 0.3407
H23 H -0.2328 1.1647 0.3420
H24 H -0.4582 1.3369 0.3812
C23 C -0.177(2) 0.7143(14) 0.3849(3)
H25 H -0.1112 0.5778 0.4143
H26 H -0.0351 0.7032 0.3602
H27 H -0.3081 0.7055 0.3638
C24 C 1.2894(13) -1.1031(11) 1.1964(2)
H28 H 1.1636 -1.1220 1.1743
C25 C 1.141(2) -0.8562(14) 1.2220(3)
H29 H 1.0486 -0.7236 1.1928
H30 H 1.2628 -0.8218 1.2399
H31 H 1.0170 -0.8667 1.2494
O6 O 1.2223(5) -0.2962(5) 0.77081(11)
H32 H 1.204(12) -0.341(12) 0.8051(10)
C26 C 1.3995(18) -1.3255(15) 1.2423(3)
H33 H 1.5092 -1.3029 1.2672
H34 H 1.5014 -1.4784 1.2251
H35 H 1.2567 -1.3343 1.2634
O7 O 0.2274(5) 0.1389(5) 0.83852(12)
H36 H 0.197(13) 0.264(8) 0.856(3)
O8 O 0.7491(5) 0.1429(5) 0.83743(12)
Na2 Na 0.6547(2) -0.1969(2) 0.86123(6)
H37 H 0.651(11) 0.266(8) 0.856(2)
H38 H 0.789(10) -0.389(8) 0.747(3)
H39 H 0.545(7) -0.275(13) 0.765(3)
H40 H 0.203(12) 0.198(11) 0.8041(10)
H41 H 1.277(12) -0.409(9) 0.748(2)
H42 H 0.904(6) 0.115(12) 0.844(3)
Na1_2 Na -0.1899(2) 0.0604(2) 0.74213(6)
O4_2 O 0.4752(5) -0.4488(5) 0.89860(12)
O5_2 O 1.0412(5) 0.2862(5) 0.72135(12)
Na2_2 Na 1.6547(2) -0.1969(2) 0.86123(6)
loop_
_geom_bond_atom_site_label_1
_geom_bond_atom_site_label_2
_geom_bond_site_symmetry_1
_geom_bond_site_symmetry_2
Na1 O1 1_555 1_555
O1 Na2 1_555 1_555
O2 Na1 1_555 1_555
O3 C1 1_555 1_555
C1 O4 1_555 1_555
C2 C13 1_555 1_555
O4 Na2_2 1_555 1_555
O5 C4 1_555 1_555
C3 C5 1_555 1_555
C4 O2 1_555 1_555
C5 C4 1_555 1_555
H1 C5 1_555 1_555
C6 C1 1_555 1_555
H2 C6 1_555 1_555
C7 C6 1_555 1_555
C8 C7 1_555 1_555
H3 C8 1_555 1_555
C9 H4 1_555 1_555
C10 C7 1_555 1_555
H5 C10 1_555 1_555
C11 C3 1_555 1_555
H6 C11 1_555 1_555
C12 H7 1_555 1_555
C13 C8 1_555 1_555
H8 C13 1_555 1_555
C14 H9 1_555 1_555
H10 C14 1_555 1_555
C15 C3 1_555 1_555
H11 C15 1_555 1_555
C16 C5 1_555 1_555
H12 C16 1_555 1_555
H13 C16 1_555 1_555
H14 C16 1_555 1_555
C17 C6 1_555 1_555
H15 C17 1_555 1_555
H16 C17 1_555 1_555
H17 C17 1_555 1_555
C18 C2 1_555 1_555
H18 C18 1_555 1_555
C19 C9 1_555 1_555
C20 C14 1_555 1_555
H19 C20 1_555 1_555
C21 C2 1_555 1_555
H20 C21 1_555 1_555
H21 C21 1_555 1_555
C22 C20 1_555 1_555
H22 C22 1_555 1_555
H23 C22 1_555 1_555
H24 C22 1_555 1_555
C23 C20 1_555 1_555
H25 C23 1_555 1_555
H26 C23 1_555 1_555
H27 C23 1_555 1_555
C24 C21 1_555 1_555
H28 C24 1_555 1_555
C25 C24 1_555 1_555
H29 C25 1_555 1_555
H30 C25 1_555 1_555
H31 C25 1_555 1_555
O6 Na1 1_555 1_555
H32 O6 1_555 1_555
C26 C24 1_555 1_555
H33 C26 1_555 1_555
H34 C26 1_555 1_555
H35 C26 1_555 1_555
O7 H36 1_555 1_555
O8 Na1 1_555 1_555
Na2 O3 1_555 1_555
H37 O8 1_555 1_555
H38 O1 1_555 1_555
H39 O1 1_555 1_555
H40 O7 1_555 1_555
H41 O6 1_555 1_555
H42 O8 1_555 1_555
Na1_2 O5 1_555 1_555
O4_2 Na2 1_555 1_555
O5_2 Na1 1_555 1_555
C9 C11 1_555 1_555
C10 C18 1_555 1_555
C12 C15 1_555 1_555
C12 C19 1_555 1_555
C14 C19 1_555 1_555
O7 Na2 1_555 1_555
O8 Na2 1_555 1_555

#END
