
#######################################################################
#
#                 Cambridge Crystallographic Data Centre
#                                CCDC 
#
#######################################################################
#
# If this CIF has been generated from an entry in the Cambridge 
# Structural Database, then it will include bibliographic, chemical, 
# crystal, experimental, refinement or atomic coordinate data resulting 
# from the CCDC's data processing and validation procedures.
#
#######################################################################

data_KATPUQ01
_symmetry_cell_setting           monoclinic
_symmetry_space_group_name_H-M   'P 21/c'
_symmetry_Int_Tables_number      14
_space_group_name_Hall           '-P 2ybc'
loop_
_symmetry_equiv_pos_site_id
_symmetry_equiv_pos_as_xyz
1 x,y,z
2 x,1/2-y,1/2+z
3 -x,-y,-z
4 -x,1/2+y,1/2-z
_cell_length_a                   9.2457(19)
_cell_length_b                   7.3465(16)
_cell_length_c                   9.929(2)
_cell_angle_alpha                90
_cell_angle_beta                 100.702(5)
_cell_angle_gamma                90
_cell_volume                     662.682
loop_
_atom_site_label
_atom_site_type_symbol
_atom_site_fract_x
_atom_site_fract_y
_atom_site_fract_z
Ti1 Ti -0.50670(10) 0.14599(11) 0.23206(10)
P1 P -0.70819(16) 0.13199(15) -0.08724(14)
O1 O -0.6649(4) 0.1450(4) 0.0698(3)
O2 O -0.5517(4) -0.1353(4) 0.2757(3)
O3 O -0.8755(4) 0.1293(4) -0.1248(4)
O4 O -0.6448(4) -0.0421(4) -0.1365(4)
O5 O -0.6513(4) 0.3023(4) -0.1502(4)
N1 N -0.3502(5) 0.1025(5) 0.4262(5)
H1 H -0.3939 0.1412 0.4947
H2 H -0.3368 -0.0183 0.4370
N2 N 0.0073(5) 0.2903(5) 0.6240(5)
H3 H 0.0555 0.2676 0.7086
H4 H -0.0287 0.4029 0.6200
H5 H 0.0687 0.2794 0.5652
C1 C -0.1169(6) 0.1566(6) 0.5871(6)
H6 H -0.1821 0.1669 0.6529
H7 H -0.0772 0.0341 0.5931
C2 C -0.2039(6) 0.1875(7) 0.4452(5)
H8 H -0.2151 0.3173 0.4287
H9 H -0.1500 0.1377 0.3787
O2C O -0.4483(4) 0.3647(4) 0.2243(3)
O4B O -0.3552(4) 0.0421(4) 0.1365(4)
O5A O -0.6513(4) 0.1977(4) 0.3498(4)
Ti1C Ti -0.49330(10) -0.35401(11) 0.26794(10)
Ti1A Ti -0.50670(10) 0.35401(11) -0.26794(10)
Ti1B Ti -0.49330(10) -0.14599(11) -0.23206(10)
loop_
_geom_bond_atom_site_label_1
_geom_bond_atom_site_label_2
_geom_bond_site_symmetry_1
_geom_bond_site_symmetry_2
Ti1 O1 1_555 1_555
P1 O1 1_555 1_555
O2 Ti1 1_555 1_555
O3 P1 1_555 1_555
O4 P1 1_555 1_555
O5 P1 1_555 1_555
N1 Ti1 1_555 1_555
H1 N1 1_555 1_555
H2 N1 1_555 1_555
N2 H3 1_555 1_555
H4 N2 1_555 1_555
H5 N2 1_555 1_555
C1 N2 1_555 1_555
H6 C1 1_555 1_555
H7 C1 1_555 1_555
C2 N1 1_555 1_555
H8 C2 1_555 1_555
H9 C2 1_555 1_555
O2C Ti1 1_555 1_555
O4B Ti1 1_555 1_555
O5A Ti1 1_555 1_555
Ti1C O2 1_555 1_555
Ti1A O5 1_555 1_555
Ti1B O4 1_555 1_555
C1 C2 1_555 1_555

#END
