
#######################################################################
#
#                 Cambridge Crystallographic Data Centre
#                                CCDC 
#
#######################################################################
#
# If this CIF has been generated from an entry in the Cambridge 
# Structural Database, then it will include bibliographic, chemical, 
# crystal, experimental, refinement or atomic coordinate data resulting 
# from the CCDC's data processing and validation procedures.
#
#######################################################################

data_KATPUQ
_symmetry_cell_setting           monoclinic
_symmetry_space_group_name_H-M   'P 21/c'
_symmetry_Int_Tables_number      14
_space_group_name_Hall           '-P 2ybc'
loop_
_symmetry_equiv_pos_site_id
_symmetry_equiv_pos_as_xyz
1 x,y,z
2 x,1/2-y,1/2+z
3 -x,-y,-z
4 -x,1/2+y,1/2-z
_cell_length_a                   9.2650(2)
_cell_length_b                   7.35460(10)
_cell_length_c                   9.91780(10)
_cell_angle_alpha                90
_cell_angle_beta                 100.6130(10)
_cell_angle_gamma                90
_cell_volume                     664.242
loop_
_atom_site_label
_atom_site_type_symbol
_atom_site_fract_x
_atom_site_fract_y
_atom_site_fract_z
Ti1 Ti 0.00728(3) -0.35526(4) 0.26790(3)
P1 P 0.20843(5) -0.36796(6) 0.58662(4)
O1 O 0.37679(14) -0.37178(17) 0.62595(14)
O2 O 0.16764(15) -0.35426(18) 0.42947(13)
O3 O 0.14285(15) -0.54307(17) 0.63536(13)
O4 O 0.15139(14) -0.19685(17) 0.64973(13)
O5 O -0.05117(15) -0.13423(16) 0.27525(13)
N1 N -0.15071(18) -0.3991(2) 0.07349(16)
N2 N -0.50631(18) -0.2100(2) -0.12289(17)
C1 C -0.3836(2) -0.3444(2) -0.08807(19)
C2 C -0.2958(2) -0.3117(3) 0.05607(18)
H1 H -0.111(4) -0.363(4) 0.010(4)
H2 H -0.155(4) -0.511(5) 0.064(3)
H3 H -0.561(3) -0.238(5) -0.202(4)
H4 H -0.469(4) -0.105(4) -0.132(3)
H5 H -0.560(4) -0.206(4) -0.057(4)
H6 H -0.424(4) -0.466(5) -0.099(3)
H7 H -0.325(4) -0.331(4) -0.157(4)
H8 H -0.283(3) -0.183(5) 0.073(3)
H9 H -0.358(4) -0.357(4) 0.125(4)
Ti1B Ti -0.00728(3) -0.64474(4) 0.73210(3)
O3B O -0.14285(15) -0.45693(17) 0.36464(13)
O4A O 0.15139(14) -0.30315(17) 0.14973(13)
O5C O 0.05117(15) -0.63423(16) 0.22475(13)
Ti1C Ti -0.00728(3) 0.14474(4) 0.23210(3)
Ti1A Ti 0.00728(3) -0.14474(4) 0.76790(3)
loop_
_geom_bond_atom_site_label_1
_geom_bond_atom_site_label_2
_geom_bond_site_symmetry_1
_geom_bond_site_symmetry_2
Ti1 O2 1_555 1_555
P1 O1 1_555 1_555
O2 P1 1_555 1_555
O3 P1 1_555 1_555
O4 P1 1_555 1_555
O5 Ti1 1_555 1_555
N1 Ti1 1_555 1_555
N2 C1 1_555 1_555
C1 C2 1_555 1_555
C2 N1 1_555 1_555
H1 N1 1_555 1_555
H2 N1 1_555 1_555
H3 N2 1_555 1_555
H4 N2 1_555 1_555
H5 N2 1_555 1_555
H6 C1 1_555 1_555
H7 C1 1_555 1_555
H8 C2 1_555 1_555
H9 C2 1_555 1_555
Ti1B O3 1_555 1_555
O3B Ti1 1_555 1_555
O4A Ti1 1_555 1_555
O5C Ti1 1_555 1_555
Ti1C O5 1_555 1_555
Ti1A O4 1_555 1_555

#END
