
#######################################################################
#
#                 Cambridge Crystallographic Data Centre
#                                CCDC 
#
#######################################################################
#
# If this CIF has been generated from an entry in the Cambridge 
# Structural Database, then it will include bibliographic, chemical, 
# crystal, experimental, refinement or atomic coordinate data resulting 
# from the CCDC's data processing and validation procedures.
#
#######################################################################

data_KATSEE
_symmetry_cell_setting           monoclinic
_symmetry_space_group_name_H-M   'P 21/c'
_symmetry_Int_Tables_number      14
_space_group_name_Hall           '-P 2ybc'
loop_
_symmetry_equiv_pos_site_id
_symmetry_equiv_pos_as_xyz
1 x,y,z
2 -x,1/2+y,1/2-z
3 -x,-y,-z
4 x,1/2-y,1/2+z
_cell_length_a                   11.1020(16)
_cell_length_b                   10.2641(14)
_cell_length_c                   23.865(3)
_cell_angle_alpha                90
_cell_angle_beta                 92.366(3)
_cell_angle_gamma                90
_cell_volume                     2717.15
loop_
_atom_site_label
_atom_site_type_symbol
_atom_site_fract_x
_atom_site_fract_y
_atom_site_fract_z
Pb1 Pb 0.97851(2) 0.66733(2) 0.756640(10)
S1 S 0.86171(15) 0.84692(17) 0.80437(7)
O1 O 0.9275(4) 0.3830(4) 0.77571(19)
N1 N 0.6895(5) 0.8174(5) 0.8758(2)
H1 H 0.6792 0.8971 0.8657
N2 N 0.7643(5) 0.6208(5) 0.8448(2)
N3 N 0.8471(5) 0.5608(5) 0.8116(2)
C1 C 0.7676(6) 0.7461(7) 0.8438(3)
C2 C 0.8521(6) 0.4323(7) 0.8086(3)
C3 C 0.7696(6) 0.3476(7) 0.8421(3)
H2 H 0.7422 0.2745 0.8192
H3 H 0.6993 0.3979 0.8516
C4 C 0.6248(6) 0.7786(6) 0.9223(3)
C5 C 0.6483(5) 0.6633(7) 0.9520(3)
H4 H 0.7075 0.6061 0.9406
C6 C 0.5828(6) 0.6355(7) 0.9981(3)
H5 H 0.6004 0.5601 1.0185
C7 C 0.4905(6) 0.7171(7) 1.0154(3)
H6 H 0.4460 0.6956 1.0462
C8 C 0.4670(6) 0.8299(8) 0.9857(3)
H7 H 0.4061 0.8854 0.9968
C9 C 0.5329(6) 0.8619(7) 0.9397(3)
H8 H 0.5164 0.9388 0.9202
C10 C 0.8312(6) 0.2962(6) 0.8958(3)
C11 C 0.8307(6) 0.1634(7) 0.9078(3)
H9 H 0.7942 0.1061 0.8822
C12 C 0.8827(7) 0.1156(8) 0.9565(3)
H10 H 0.8800 0.0267 0.9640
C13 C 0.9395(7) 0.1998(8) 0.9948(3)
H11 H 0.9749 0.1679 1.0281
C14 C 0.9428(7) 0.3312(8) 0.9829(3)
H12 H 0.9816 0.3879 1.0081
C15 C 0.8890(7) 0.3800(7) 0.9337(3)
H13 H 0.8917 0.4689 0.9262
C16 C 0.8981(5) 0.6463(6) 0.6728(3)
C17 C 0.8708(6) 0.7575(7) 0.6424(3)
H14 H 0.8942 0.8386 0.6563
C18 C 0.8087(6) 0.7482(8) 0.5911(3)
H15 H 0.7907 0.8231 0.5705
C19 C 0.7729(6) 0.6258(7) 0.5701(3)
H16 H 0.7307 0.6194 0.5358
C20 C 0.8004(6) 0.5158(7) 0.6006(3)
H17 H 0.7771 0.4346 0.5866
C21 C 0.8632(5) 0.5244(7) 0.6524(3)
H18 H 0.8814 0.4496 0.6731
C22 C 1.1449(6) 0.6366(6) 0.8079(3)
C23 C 1.2514(6) 0.6028(6) 0.7846(3)
H19 H 1.2549 0.5914 0.7460
C24 C 1.3531(6) 0.5859(6) 0.8188(3)
H20 H 1.4254 0.5624 0.8033
C25 C 1.3485(6) 0.6034(7) 0.8758(3)
H21 H 1.4179 0.5933 0.8986
C26 C 1.2400(6) 0.6362(7) 0.8994(3)
H22 H 1.2363 0.6471 0.9380
C27 C 1.1377(6) 0.6522(7) 0.8650(3)
H23 H 1.0645 0.6735 0.8803
Pb1A Pb 1.02149(2) 0.16733(2) 0.743360(10)
O1A O 1.0725(4) 0.8830(4) 0.72429(19)
O2 O 0.4143(4) 0.9331(5) 0.1704(2)
C28 C 0.5147(6) 0.9326(7) 0.1924(3)
C29 C 0.5821(7) 0.8078(7) 0.2027(4)
H24 H 0.5329 0.7358 0.1901
H25 H 0.6014 0.7987 0.2421
H26 H 0.6551 0.8090 0.1825
C30 C 0.5773(7) 1.0572(8) 0.2097(3)
H27 H 0.5252 1.1298 0.2012
H28 H 0.6502 1.0661 0.1897
H29 H 0.5965 1.0553 0.2493
loop_
_geom_bond_atom_site_label_1
_geom_bond_atom_site_label_2
_geom_bond_site_symmetry_1
_geom_bond_site_symmetry_2
Pb1 S1 1_555 1_555
S1 C1 1_555 1_555
O1 C2 1_555 1_555
N1 H1 1_555 1_555
N2 N3 1_555 1_555
N3 Pb1 1_555 1_555
C1 N1 1_555 1_555
C2 N3 1_555 1_555
C3 C2 1_555 1_555
H2 C3 1_555 1_555
H3 C3 1_555 1_555
C4 N1 1_555 1_555
C5 C4 1_555 1_555
H4 C5 1_555 1_555
C6 C5 1_555 1_555
H5 C6 1_555 1_555
C7 C6 1_555 1_555
H6 C7 1_555 1_555
C8 C7 1_555 1_555
H7 C8 1_555 1_555
C9 C4 1_555 1_555
H8 C9 1_555 1_555
C10 C3 1_555 1_555
C11 C10 1_555 1_555
H9 C11 1_555 1_555
C12 C11 1_555 1_555
H10 C12 1_555 1_555
C13 C12 1_555 1_555
H11 C13 1_555 1_555
C14 C13 1_555 1_555
H12 C14 1_555 1_555
C15 C10 1_555 1_555
H13 C15 1_555 1_555
C16 Pb1 1_555 1_555
C17 C16 1_555 1_555
H14 C17 1_555 1_555
C18 C17 1_555 1_555
H15 C18 1_555 1_555
C19 C18 1_555 1_555
H16 C19 1_555 1_555
C20 C19 1_555 1_555
H17 C20 1_555 1_555
C21 C16 1_555 1_555
H18 C21 1_555 1_555
C22 Pb1 1_555 1_555
C23 C22 1_555 1_555
H19 C23 1_555 1_555
C24 C23 1_555 1_555
H20 C24 1_555 1_555
C25 C24 1_555 1_555
H21 C25 1_555 1_555
C26 C25 1_555 1_555
H22 C26 1_555 1_555
C27 C22 1_555 1_555
H23 C27 1_555 1_555
O2 C28 1_555 1_555
C28 C29 1_555 1_555
C29 H24 1_555 1_555
H25 C29 1_555 1_555
H26 C29 1_555 1_555
C30 C28 1_555 1_555
H27 C30 1_555 1_555
H28 C30 1_555 1_555
H29 C30 1_555 1_555
Pb1A O1 1_555 1_555
O1A Pb1 1_555 1_555
N2 C1 1_555 1_555
C8 C9 1_555 1_555
C14 C15 1_555 1_555
C20 C21 1_555 1_555
C26 C27 1_555 1_555

#END
