
#######################################################################
#
#                 Cambridge Crystallographic Data Centre
#                                CCDC 
#
#######################################################################
#
# If this CIF has been generated from an entry in the Cambridge 
# Structural Database, then it will include bibliographic, chemical, 
# crystal, experimental, refinement or atomic coordinate data resulting 
# from the CCDC's data processing and validation procedures.
#
#######################################################################

data_KATVIL
_symmetry_cell_setting           monoclinic
_symmetry_space_group_name_H-M   'P 21/m'
_symmetry_Int_Tables_number      11
_space_group_name_Hall           '-P 2yb'
loop_
_symmetry_equiv_pos_site_id
_symmetry_equiv_pos_as_xyz
1 x,y,z
2 -x,1/2+y,-z
3 -x,-y,-z
4 x,1/2-y,z
_cell_length_a                   7.971(2)
_cell_length_b                   7.204(2)
_cell_length_c                   8.664(3)
_cell_angle_alpha                90
_cell_angle_beta                 94.956(3)
_cell_angle_gamma                90
_cell_volume                     495.654
loop_
_atom_site_label
_atom_site_type_symbol
_atom_site_fract_x
_atom_site_fract_y
_atom_site_fract_z
Pb1 Pb 0.43443(6) 0.7500 0.09773(5)
O1 O 0.6245(12) 0.5999(12) 0.3113(9)
O2 O 0.6601(9) 0.9004(10) 0.9660(8)
O3 O 0.3204(17) 0.7500 -0.1953(13)
H1 H 0.2629 0.7500 -0.2826
H2 H 0.4252 0.7500 -0.2068
C1 C 0.7994(18) 0.7500 0.5114(15)
H3 H 0.9121 0.7500 0.4742
C2 C 0.7847(13) 0.9250(13) 0.6093(11)
H4 H 0.8061 1.0330 0.5471
H5 H 0.6707 0.9346 0.6397
C3 C 0.9069(12) 0.9245(13) 0.7532(11)
H6 H 0.8878 1.0340 0.8144
H7 H 1.0211 0.9306 0.7228
C4 C 0.8883(17) 0.7500 0.8535(14)
H8 H 0.9813 0.7500 0.9352
C5 C 0.672(2) 0.7500 0.3687(17)
C6 C 0.7233(18) 0.7500 0.9320(13)
Pb1_2 Pb 0.43443(6) 0.7500 1.09773(5)
Pb1B Pb 0.56557(6) 1.2500 0.90227(5)
Pb1B_2 Pb 0.56557(6) 0.2500 0.90227(5)
O1C O 0.6245(12) 0.9001(12) 0.3113(9)
O2C O 0.6601(9) 0.5996(10) 0.9660(8)
O2_2 O 0.6601(9) 0.9004(10) -0.0340(8)
O2C_2 O 0.6601(9) 0.5996(10) -0.0340(8)
O2B O 0.3399(9) 1.0996(10) 0.0340(8)
O2A O 0.3399(9) 0.4004(10) 0.0340(8)
C2C C 0.7847(13) 0.5750(13) 0.6093(11)
H4C H 0.8061 0.4670 0.5471
H5C H 0.6707 0.5654 0.6397
C3C C 0.9069(12) 0.5755(13) 0.7532(11)
H6C H 0.8878 0.4660 0.8144
H7C H 1.0211 0.5694 0.7228
loop_
_geom_bond_atom_site_label_1
_geom_bond_atom_site_label_2
_geom_bond_site_symmetry_1
_geom_bond_site_symmetry_2
Pb1 O1 1_555 1_555
O1 C5 1_555 1_555
O2 C6 1_555 1_555
O3 Pb1 1_555 1_555
H1 O3 1_555 1_555
H2 O3 1_555 1_555
C1 H3 1_555 1_555
C2 C1 1_555 1_555
H4 C2 1_555 1_555
H5 C2 1_555 1_555
C3 C2 1_555 1_555
H6 C3 1_555 1_555
H7 C3 1_555 1_555
C4 C3 1_555 1_555
H8 C4 1_555 1_555
C5 C1 1_555 1_555
C6 C4 1_555 1_555
Pb1_2 O2 1_555 1_555
Pb1B O2 1_555 1_555
Pb1B_2 O2C 1_555 1_555
O1C Pb1 1_555 1_555
O2C C6 1_555 1_555
O2_2 Pb1 1_555 1_555
O2C_2 Pb1 1_555 1_555
O2B Pb1 1_555 1_555
O2A Pb1 1_555 1_555
C2C C1 1_555 1_555
H4C C2C 1_555 1_555
H5C C2C 1_555 1_555
C3C C4 1_555 1_555
H6C C3C 1_555 1_555
H7C C3C 1_555 1_555
C5 O1C 1_555 1_555
Pb1_2 O2C 1_555 1_555
C2C C3C 1_555 1_555

#END
