
#######################################################################
#
#                 Cambridge Crystallographic Data Centre
#                                CCDC 
#
#######################################################################
#
# If this CIF has been generated from an entry in the Cambridge 
# Structural Database, then it will include bibliographic, chemical, 
# crystal, experimental, refinement or atomic coordinate data resulting 
# from the CCDC's data processing and validation procedures.
#
#######################################################################

data_KATWIM
_symmetry_cell_setting           monoclinic
_symmetry_space_group_name_H-M   'C 2/m'
_symmetry_Int_Tables_number      12
_space_group_name_Hall           '-C 2y'
loop_
_symmetry_equiv_pos_site_id
_symmetry_equiv_pos_as_xyz
1 x,y,z
2 1/2+x,1/2+y,z
3 -x,y,-z
4 1/2-x,1/2+y,-z
5 -x,-y,-z
6 1/2-x,1/2-y,-z
7 x,-y,z
8 1/2+x,1/2-y,z
_cell_length_a                   20.0760(10)
_cell_length_b                   19.9990(10)
_cell_length_c                   12.1202(8)
_cell_angle_alpha                90
_cell_angle_beta                 104.194(2)
_cell_angle_gamma                90
_cell_volume                     4717.7
loop_
_atom_site_label
_atom_site_type_symbol
_atom_site_fract_x
_atom_site_fract_y
_atom_site_fract_z
Ag1 Ag 0.150011(12) 0.50000 -0.05041(2)
Ag2 Ag 0.088487(9) 0.776615(10) 0.029160(16)
S1 S 0.01843(3) 0.65408(3) -0.15406(5)
O1 O 0.08446(9) 0.62325(10) -0.11617(19)
O2 O 0.01747(8) 0.72505(8) -0.12638(14)
O3 O -0.03979(10) 0.61826(11) -0.1353(2)
C1 C 0.00305(16) 0.65459(17) -0.3090(3)
F1 F -0.05757(12) 0.68013(12) -0.35802(17)
F2 F 0.00339(13) 0.59270(13) -0.3469(2)
F3 F 0.05071(15) 0.68788(18) -0.3419(2)
O6 O 0.0907(2) 0.50000 0.0763(4)
O7 O 0.00000 0.85821(11) 0.00000
P1 P 0.23970(3) 0.50000 -0.14307(6)
P2 P 0.30472(2) 0.29267(2) -0.15766(4)
C3 C 0.29670(9) 0.42745(9) -0.11367(17)
C4 C 0.25424(10) 0.36296(9) -0.12531(17)
C5 C 0.21013(15) 0.50000 -0.2970(2)
C6 C 0.14024(18) 0.50000 -0.3476(3)
C7 C 0.1172(3) 0.50000 -0.4658(4)
C8 C 0.1632(3) 0.50000 -0.5317(4)
C9 C 0.2328(3) 0.50000 -0.4829(3)
C10 C 0.2566(2) 0.50000 -0.3662(3)
C11 C 0.30796(11) 0.31035(9) -0.30313(17)
C12 C 0.37096(15) 0.31649(13) -0.3293(2)
C13 C 0.3731(2) 0.33169(17) -0.4412(3)
C14 C 0.3137(2) 0.34007(14) -0.5234(2)
C15 C 0.2511(2) 0.33444(13) -0.4983(2)
C16 C 0.24738(14) 0.31932(12) -0.38783(19)
C17 C 0.25063(10) 0.21929(9) -0.16873(16)
C18 C 0.28324(13) 0.15750(10) -0.1706(2)
C19 C 0.24486(16) 0.09893(11) -0.1820(2)
C20 C 0.17519(15) 0.10094(12) -0.1900(2)
C21 C 0.14279(14) 0.16165(13) -0.1870(2)
C22 C 0.18026(11) 0.22104(10) -0.17663(19)
H1 H 0.076(2) 0.533(2) 0.095(3)
H2 H -0.0089(17) 0.8805(17) -0.063(3)
H3 H 0.3225(14) 0.4322(14) -0.043(2)
H4 H 0.3242(14) 0.4286(13) -0.165(2)
H5 H 0.2396(15) 0.3546(14) -0.064(3)
H6 H 0.2122(14) 0.3676(13) -0.184(2)
H7 H 0.112(2) 0.50000 -0.288(4)
H8 H 0.071(3) 0.50000 -0.493(5)
H9 H 0.148(3) 0.50000 -0.590(5)
H10 H 0.262(2) 0.50000 -0.520(4)
H11 H 0.303(3) 0.50000 -0.341(4)
H12 H 0.4101(15) 0.3116(14) -0.277(2)
H13 H 0.415(2) 0.3332(19) -0.449(3)
H14 H 0.319(2) 0.346(2) -0.597(4)
H15 H 0.213(2) 0.338(2) -0.560(3)
H16 H 0.206(2) 0.3146(19) -0.371(3)
H17 H 0.3305(18) 0.1589(17) -0.162(3)
H18 H 0.2640(16) 0.0631(17) -0.180(3)
H19 H 0.1479(15) 0.0590(16) -0.194(3)
H20 H 0.0969(16) 0.1639(15) -0.192(3)
H21 H 0.1556(15) 0.2644(15) -0.174(3)
Ag2F Ag 0.088487(9) 0.223385(10) 0.029160(16)
Ag2B Ag -0.088487(9) 0.776615(10) -0.029160(16)
Ag2C Ag 0.411513(9) 0.276615(10) -0.029160(16)
Ag2E Ag 0.411513(9) 0.723385(10) -0.029160(16)
Ag2D Ag -0.088487(9) 0.223385(10) -0.029160(16)
S1F S 0.01843(3) 0.34592(3) -0.15406(5)
O1F O 0.08446(9) 0.37675(10) -0.11617(19)
O2F O 0.01747(8) 0.27495(8) -0.12638(14)
O2B O -0.01747(8) 0.72505(8) 0.12638(14)
O2D O -0.01747(8) 0.27495(8) 0.12638(14)
O3F O -0.03979(10) 0.38174(11) -0.1353(2)
C1F C 0.00305(16) 0.34541(17) -0.3090(3)
F1F F -0.05757(12) 0.31987(12) -0.35802(17)
F2F F 0.00339(13) 0.40730(13) -0.3469(2)
F3F F 0.05071(15) 0.31212(18) -0.3419(2)
O7F O 0.00000 0.14179(11) 0.00000
P2F P 0.30472(2) 0.70733(2) -0.15766(4)
P2C P 0.19528(2) 0.79267(2) 0.15766(4)
P2E P 0.19528(2) 0.20733(2) 0.15766(4)
C3F C 0.29670(9) 0.57255(9) -0.11367(17)
C4F C 0.25424(10) 0.63704(9) -0.12531(17)
C11F C 0.30796(11) 0.68965(9) -0.30313(17)
C12F C 0.37096(15) 0.68351(13) -0.3293(2)
C13F C 0.3731(2) 0.66831(17) -0.4412(3)
C14F C 0.3137(2) 0.65993(14) -0.5234(2)
C15F C 0.2511(2) 0.66556(13) -0.4983(2)
C16F C 0.24738(14) 0.68068(12) -0.38783(19)
C17F C 0.25063(10) 0.78071(9) -0.16873(16)
C18F C 0.28324(13) 0.84250(10) -0.1706(2)
C19F C 0.24486(16) 0.90107(11) -0.1820(2)
C20F C 0.17519(15) 0.89906(12) -0.1900(2)
C21F C 0.14279(14) 0.83835(13) -0.1870(2)
C22F C 0.18026(11) 0.77896(10) -0.17663(19)
H1F H 0.076(2) 0.467(2) 0.095(3)
H2B H 0.0089(17) 0.8805(17) 0.063(3)
H2F H -0.0089(17) 0.1195(17) -0.063(3)
H2D H 0.0089(17) 0.1195(17) 0.063(3)
H3F H 0.3225(14) 0.5678(14) -0.043(2)
H4F H 0.3242(14) 0.5714(13) -0.165(2)
H5F H 0.2396(15) 0.6454(14) -0.064(3)
H6F H 0.2122(14) 0.6324(13) -0.184(2)
H12F H 0.4101(15) 0.6884(14) -0.277(2)
H13F H 0.415(2) 0.6668(19) -0.449(3)
H14F H 0.319(2) 0.654(2) -0.597(4)
H15F H 0.213(2) 0.662(2) -0.560(3)
H16F H 0.206(2) 0.6854(19) -0.371(3)
H17F H 0.3305(18) 0.8411(17) -0.162(3)
H18F H 0.2640(16) 0.9369(17) -0.180(3)
H19F H 0.1479(15) 0.9410(16) -0.194(3)
H20F H 0.0969(16) 0.8361(15) -0.192(3)
H21F H 0.1556(15) 0.7356(15) -0.174(3)
S2 S 0.50980(4) 0.50000 0.19197(7)
O4 O 0.54718(12) 0.56005(11) 0.18038(19)
O5 O 0.43933(13) 0.50000 0.1304(2)
C2 C 0.5095(2) 0.50000 0.3419(3)
F4 F 0.47787(13) 0.55421(16) 0.36653(18)
F5 F 0.57200(13) 0.50000 0.4086(2)
O4F O 0.54718(12) 0.43995(11) 0.18038(19)
F4F F 0.47787(13) 0.44579(16) 0.36653(18)
loop_
_geom_bond_atom_site_label_1
_geom_bond_atom_site_label_2
_geom_bond_site_symmetry_1
_geom_bond_site_symmetry_2
Ag1 O1 1_555 1_555
Ag2 O2 1_555 1_555
S1 O1 1_555 1_555
O2 S1 1_555 1_555
O3 S1 1_555 1_555
C1 S1 1_555 1_555
F1 C1 1_555 1_555
F2 C1 1_555 1_555
F3 C1 1_555 1_555
S2 O4 1_555 1_555
O5 S2 1_555 1_555
C2 S2 1_555 1_555
F4 C2 1_555 1_555
F5 C2 1_555 1_555
O6 Ag1 1_555 1_555
O7 Ag2 1_555 1_555
P1 Ag1 1_555 1_555
P2 C4 1_555 1_555
C3 P1 1_555 1_555
C4 C3 1_555 1_555
C5 P1 1_555 1_555
C6 C5 1_555 1_555
C7 C6 1_555 1_555
C8 C7 1_555 1_555
C9 C8 1_555 1_555
C10 C5 1_555 1_555
C11 P2 1_555 1_555
C12 C11 1_555 1_555
C13 C12 1_555 1_555
C14 C13 1_555 1_555
C15 C14 1_555 1_555
C16 C11 1_555 1_555
C17 P2 1_555 1_555
C18 C17 1_555 1_555
C19 C18 1_555 1_555
C20 C19 1_555 1_555
C21 C20 1_555 1_555
C22 C17 1_555 1_555
H1 O6 1_555 1_555
H2 O7 1_555 1_555
H3 C3 1_555 1_555
H4 C3 1_555 1_555
H5 C4 1_555 1_555
H6 C4 1_555 1_555
H7 C6 1_555 1_555
H8 C7 1_555 1_555
H9 C8 1_555 1_555
H10 C9 1_555 1_555
H11 C10 1_555 1_555
H12 C12 1_555 1_555
H13 C13 1_555 1_555
H14 C14 1_555 1_555
H15 C15 1_555 1_555
H16 C16 1_555 1_555
H17 C18 1_555 1_555
H18 C19 1_555 1_555
H19 C20 1_555 1_555
H20 C21 1_555 1_555
H21 C22 1_555 1_555
Ag2F O2F 1_555 1_555
Ag2B O2 1_555 1_555
Ag2C P2 1_555 1_555
Ag2E P2F 1_555 1_555
Ag2D O2F 1_555 1_555
S1F O1F 1_555 1_555
O1F Ag1 1_555 1_555
O2F S1F 1_555 1_555
O2B Ag2 1_555 1_555
O2D Ag2F 1_555 1_555
O3F S1F 1_555 1_555
C1F S1F 1_555 1_555
F1F C1F 1_555 1_555
F2F C1F 1_555 1_555
F3F C1F 1_555 1_555
O4F S2 1_555 1_555
F4F C2 1_555 1_555
O7F Ag2F 1_555 1_555
P2F C4F 1_555 1_555
P2C Ag2 1_555 1_555
P2E Ag2F 1_555 1_555
C3F P1 1_555 1_555
C4F C3F 1_555 1_555
C11F P2F 1_555 1_555
C12F C11F 1_555 1_555
C13F C12F 1_555 1_555
C14F C13F 1_555 1_555
C15F C14F 1_555 1_555
C16F C11F 1_555 1_555
C17F P2F 1_555 1_555
C18F C17F 1_555 1_555
C19F C18F 1_555 1_555
C20F C19F 1_555 1_555
C21F C20F 1_555 1_555
C22F C17F 1_555 1_555
H1F O6 1_555 1_555
H2B O7 1_555 1_555
H2F O7F 1_555 1_555
H2D O7F 1_555 1_555
H3F C3F 1_555 1_555
H4F C3F 1_555 1_555
H5F C4F 1_555 1_555
H6F C4F 1_555 1_555
H12F C12F 1_555 1_555
H13F C13F 1_555 1_555
H14F C14F 1_555 1_555
H15F C15F 1_555 1_555
H16F C16F 1_555 1_555
H17F C18F 1_555 1_555
H18F C19F 1_555 1_555
H19F C20F 1_555 1_555
H20F C21F 1_555 1_555
H21F C22F 1_555 1_555
O7 Ag2B 1_555 1_555
C9 C10 1_555 1_555
C15 C16 1_555 1_555
C21 C22 1_555 1_555
Ag2B O2B 1_555 1_555
Ag2D O2D 1_555 1_555
Ag2D O7F 1_555 1_555
C15F C16F 1_555 1_555
C21F C22F 1_555 1_555

#END
