
#######################################################################
#
#                 Cambridge Crystallographic Data Centre
#                                CCDC 
#
#######################################################################
#
# If this CIF has been generated from an entry in the Cambridge 
# Structural Database, then it will include bibliographic, chemical, 
# crystal, experimental, refinement or atomic coordinate data resulting 
# from the CCDC's data processing and validation procedures.
#
#######################################################################

data_KATYUA
_symmetry_cell_setting           triclinic
_symmetry_space_group_name_H-M   'P -1'
_symmetry_Int_Tables_number      2
_space_group_name_Hall           '-P 1'
loop_
_symmetry_equiv_pos_site_id
_symmetry_equiv_pos_as_xyz
1 x,y,z
2 -x,-y,-z
_cell_length_a                   8.1873(5)
_cell_length_b                   10.4403(7)
_cell_length_c                   11.7809(8)
_cell_angle_alpha                108.3010(10)
_cell_angle_beta                 105.4640(10)
_cell_angle_gamma                97.4750(10)
_cell_volume                     895.951
loop_
_atom_site_label
_atom_site_type_symbol
_atom_site_fract_x
_atom_site_fract_y
_atom_site_fract_z
Er1 Er 0.583540(14) 0.922448(12) 0.845728(10)
C1 C 0.7548(4) 0.7086(3) 0.8440(3)
C2 C 0.8333(4) 0.5904(3) 0.8503(3)
H1 H 0.9454 0.6074 0.9056
C3 C 0.7478(5) 0.4607(4) 0.7791(4)
H2 H 0.6366 0.4476 0.7241
C4 C 0.8129(6) 0.3338(4) 0.7786(6)
H3 H 0.9314 0.3602 0.8338
H4 H 0.8074 0.2805 0.6942
H5 H 0.7419 0.2790 0.8074
C5 C 0.2562(4) 0.7776(3) 0.6698(3)
C6 C 0.0835(4) 0.7009(3) 0.5778(3)
H6 H 0.0700 0.6765 0.4923
C7 C -0.0528(4) 0.6646(3) 0.6090(3)
H7 H -0.0349 0.6855 0.6948
C8 C -0.2339(4) 0.5933(4) 0.5211(4)
H8 H -0.2391 0.5829 0.4363
H9 H -0.3134 0.6477 0.5453
H10 H -0.2654 0.5035 0.5254
C9 C 0.4400(3) 1.1654(3) 0.8915(3)
C10 C 0.3790(4) 1.2953(3) 0.9079(3)
H11 H 0.3641 1.3408 0.9848
C11 C 0.3443(4) 1.3508(3) 0.8202(3)
H12 H 0.3629 1.3057 0.7447
C12 C 0.2784(5) 1.4784(4) 0.8316(4)
H13 H 0.2674 1.5166 0.9139
H14 H 0.1665 1.4561 0.7681
H15 H 0.3585 1.5450 0.8200
C13 C 0.9358(4) 1.0063(3) 0.7474(3)
H16 H 0.9956 1.0256 0.8321
C14 C 1.0322(4) 1.0211(3) 0.6704(3)
H17 H 1.1531 1.0484 0.7039
C15 C 0.9499(3) 0.9956(3) 0.5437(3)
C16 C 0.7684(4) 0.9587(3) 0.5022(3)
H18 H 0.7056 0.9437 0.4189
C17 C 0.6817(4) 0.9444(3) 0.5849(3)
H19 H 0.5606 0.9184 0.5541
N1 N 0.7613(3) 0.9659(2) 0.7077(2)
O1 O 0.8432(3) 0.8323(2) 0.9104(2)
O2 O 0.5996(3) 0.6892(2) 0.7765(2)
O3 O 0.2864(3) 0.8115(2) 0.78839(19)
O4 O 0.3781(3) 0.8133(2) 0.63144(19)
O5 O 0.4829(3) 1.1091(2) 0.79614(18)
O6 O 0.4468(2) 1.1092(2) 0.97316(19)
O7 O 0.8016(3) 1.1162(2) 0.9981(2)
H20 H 0.781(5) 1.145(4) 1.059(4)
H21 H 0.906(5) 1.130(4) 1.019(3)
Er1A Er 1.416460(14) 1.077552(12) 0.154272(10)
Er1A_2 Er 0.416460(14) 1.077552(12) 1.154272(10)
C1A C 1.2452(4) 1.2914(3) 0.1560(3)
C2A C 1.1667(4) 1.4096(3) 0.1497(3)
H1A H 1.0546 1.3926 0.0944
C3A C 1.2522(5) 1.5393(4) 0.2209(4)
H2A H 1.3634 1.5524 0.2759
C4A C 1.1871(6) 1.6662(4) 0.2214(6)
H3A H 1.0686 1.6398 0.1662
H4A H 1.1926 1.7195 0.3058
H5A H 1.2581 1.7210 0.1926
C5A C 1.7438(4) 1.2224(3) 0.3302(3)
C6A C 1.9165(4) 1.2991(3) 0.4222(3)
H6A H 1.9300 1.3235 0.5077
C7A C 2.0528(4) 1.3354(3) 0.3910(3)
H7A H 2.0349 1.3145 0.3052
C8A C 2.2339(4) 1.4067(4) 0.4789(4)
H8A H 2.2391 1.4171 0.5637
H9A H 2.3134 1.3523 0.4547
H10A H 2.2654 1.4965 0.4746
C9A C 0.5600(3) 0.8346(3) 1.1085(3)
C10A C 0.6210(4) 0.7047(3) 1.0921(3)
H11A H 0.6359 0.6592 1.0152
C11A C 0.6557(4) 0.6492(3) 1.1798(3)
H12A H 0.6371 0.6943 1.2553
C12A C 0.7216(5) 0.5216(4) 1.1684(4)
H13A H 0.7326 0.4834 1.0861
H14A H 0.8335 0.5439 1.2319
H15A H 0.6415 0.4550 1.1800
C13A C 1.0642(4) 0.9937(3) 0.2526(3)
H16A H 1.0044 0.9744 0.1679
C14A C 0.9678(4) 0.9789(3) 0.3296(3)
H17A H 0.8469 0.9516 0.2961
C15A C 1.0501(3) 1.0044(3) 0.4563(3)
C16A C 1.2316(4) 1.0413(3) 0.4978(3)
H18A H 1.2944 1.0563 0.5811
C17A C 1.3183(4) 1.0556(3) 0.4151(3)
H19A H 1.4394 1.0816 0.4459
N1A N 1.2387(3) 1.0341(2) 0.2923(2)
O1A O 1.1568(3) 1.1677(2) 0.0896(2)
O2A O 1.4004(3) 1.3108(2) 0.2235(2)
O3A O 1.7136(3) 1.1885(2) 0.21161(19)
O4A O 1.6219(3) 1.1867(2) 0.36856(19)
O5A O 0.5171(3) 0.8909(2) 1.20386(18)
O5A_2 O 1.5171(3) 0.8909(2) 0.20386(18)
O6A O 0.5532(2) 0.8908(2) 1.02684(19)
O6_2 O 1.4468(2) 1.1092(2) -0.02684(19)
O6A_2 O 1.5532(2) 0.8908(2) 0.02684(19)
O7A O 1.1984(3) 0.8838(2) 0.0019(2)
H20A H 1.219(5) 0.855(4) -0.059(4)
H21A H 1.094(5) 0.870(4) -0.019(3)
loop_
_geom_bond_atom_site_label_1
_geom_bond_atom_site_label_2
_geom_bond_site_symmetry_1
_geom_bond_site_symmetry_2
Er1 N1 1_555 1_555
C1 C2 1_555 1_555
C2 H1 1_555 1_555
C3 C2 1_555 1_555
H2 C3 1_555 1_555
C4 C3 1_555 1_555
H3 C4 1_555 1_555
H4 C4 1_555 1_555
H5 C4 1_555 1_555
C5 C6 1_555 1_555
C6 H6 1_555 1_555
C7 C6 1_555 1_555
H7 C7 1_555 1_555
C8 C7 1_555 1_555
H8 C8 1_555 1_555
H9 C8 1_555 1_555
H10 C8 1_555 1_555
C9 C10 1_555 1_555
C10 H11 1_555 1_555
C11 C10 1_555 1_555
H12 C11 1_555 1_555
C12 C11 1_555 1_555
H13 C12 1_555 1_555
H14 C12 1_555 1_555
H15 C12 1_555 1_555
C13 H16 1_555 1_555
C14 C13 1_555 1_555
H17 C14 1_555 1_555
C15 C14 1_555 1_555
C16 C15 1_555 1_555
H18 C16 1_555 1_555
C17 C16 1_555 1_555
H19 C17 1_555 1_555
N1 C13 1_555 1_555
O1 Er1 1_555 1_555
O2 Er1 1_555 1_555
O3 Er1 1_555 1_555
O4 Er1 1_555 1_555
O5 Er1 1_555 1_555
O6 Er1 1_555 1_555
O7 Er1 1_555 1_555
H20 O7 1_555 1_555
H21 O7 1_555 1_555
Er1A N1A 1_555 1_555
Er1A_2 O6 1_555 1_555
C1A C2A 1_555 1_555
C2A H1A 1_555 1_555
C3A C2A 1_555 1_555
H2A C3A 1_555 1_555
C4A C3A 1_555 1_555
H3A C4A 1_555 1_555
H4A C4A 1_555 1_555
H5A C4A 1_555 1_555
C5A C6A 1_555 1_555
C6A H6A 1_555 1_555
C7A C6A 1_555 1_555
H7A C7A 1_555 1_555
C8A C7A 1_555 1_555
H8A C8A 1_555 1_555
H9A C8A 1_555 1_555
H10A C8A 1_555 1_555
C9A C10A 1_555 1_555
C10A H11A 1_555 1_555
C11A C10A 1_555 1_555
H12A C11A 1_555 1_555
C12A C11A 1_555 1_555
H13A C12A 1_555 1_555
H14A C12A 1_555 1_555
H15A C12A 1_555 1_555
C13A H16A 1_555 1_555
C14A C13A 1_555 1_555
H17A C14A 1_555 1_555
C15A C15 1_555 1_555
C16A C15A 1_555 1_555
H18A C16A 1_555 1_555
C17A C16A 1_555 1_555
H19A C17A 1_555 1_555
N1A C13A 1_555 1_555
O1A Er1A 1_555 1_555
O2A Er1A 1_555 1_555
O3A Er1A 1_555 1_555
O4A Er1A 1_555 1_555
O5A Er1A_2 1_555 1_555
O5A_2 Er1A 1_555 1_555
O6A Er1 1_555 1_555
O6_2 Er1A 1_555 1_555
O6A_2 Er1A 1_555 1_555
O7A Er1A 1_555 1_555
H20A O7A 1_555 1_555
H21A O7A 1_555 1_555
C1 O1 1_555 1_555
C1 O2 1_555 1_555
C5 O3 1_555 1_555
C5 O4 1_555 1_555
C9 O5 1_555 1_555
C9 O6 1_555 1_555
C17 N1 1_555 1_555
Er1A_2 O6A 1_555 1_555
C1A O1A 1_555 1_555
C1A O2A 1_555 1_555
C5A O3A 1_555 1_555
C5A O4A 1_555 1_555
C9A O5A 1_555 1_555
C9A O6A 1_555 1_555
C14A C15A 1_555 1_555
C17A N1A 1_555 1_555

#END
