
#######################################################################
#
#                 Cambridge Crystallographic Data Centre
#                                CCDC 
#
#######################################################################
#
# If this CIF has been generated from an entry in the Cambridge 
# Structural Database, then it will include bibliographic, chemical, 
# crystal, experimental, refinement or atomic coordinate data resulting 
# from the CCDC's data processing and validation procedures.
#
#######################################################################

data_KATZOV
_symmetry_cell_setting           triclinic
_symmetry_space_group_name_H-M   'P -1'
_symmetry_Int_Tables_number      2
_space_group_name_Hall           '-P 1'
loop_
_symmetry_equiv_pos_site_id
_symmetry_equiv_pos_as_xyz
1 x,y,z
2 -x,-y,-z
_cell_length_a                   8.3027(6)
_cell_length_b                   10.5110(8)
_cell_length_c                   11.9177(9)
_cell_angle_alpha                108.0050(10)
_cell_angle_beta                 106.1360(10)
_cell_angle_gamma                97.3180(10)
_cell_volume                     923.899
loop_
_atom_site_label
_atom_site_type_symbol
_atom_site_fract_x
_atom_site_fract_y
_atom_site_fract_z
Nd1 Nd 0.582430(14) 0.922015(12) 0.844708(10)
C1 C 0.7519(3) 0.6995(3) 0.8403(2)
C2 C 0.8301(4) 0.5819(3) 0.8459(3)
H1 H 0.9408 0.5988 0.9018
C3 C 0.7483(5) 0.4540(3) 0.7746(4)
H2 H 0.6381 0.4410 0.7196
C4 C 0.8130(6) 0.3280(4) 0.7726(5)
H3 H 0.9285 0.3534 0.8306
H4 H 0.8123 0.2790 0.6897
H5 H 0.7399 0.2701 0.7960
C5 C 0.2473(3) 0.7766(3) 0.6651(2)
C6 C 0.0745(3) 0.6997(3) 0.5738(2)
H6 H 0.0590 0.6775 0.4891
C7 C -0.0580(4) 0.6611(3) 0.6047(3)
H7 H -0.0385 0.6807 0.6897
C8 C -0.2369(4) 0.5888(3) 0.5180(3)
H8 H -0.2436 0.5780 0.4337
H9 H -0.3162 0.6420 0.5413
H10 H -0.2662 0.5000 0.5232
C9 C 0.4408(3) 1.1719(2) 0.8895(2)
C10 C 0.3772(3) 1.2992(3) 0.9082(2)
H11 H 0.3599 1.3405 0.9836
C11 C 0.3436(3) 1.3573(3) 0.8234(3)
H12 H 0.3647 1.3157 0.7495
C12 C 0.2755(4) 1.4825(3) 0.8347(3)
H13 H 0.2625 1.5179 0.9154
H14 H 0.1655 1.4600 0.7704
H15 H 0.3543 1.5507 0.8257
C13 C 0.9363(3) 1.0082(3) 0.7442(2)
H16 H 0.9953 1.0291 0.8287
C14 C 1.0311(3) 1.0239(3) 0.6687(2)
H17 H 1.1504 1.0543 0.7033
C15 C 0.9501(3) 0.9946(2) 0.5420(2)
C16 C 0.7713(3) 0.9535(3) 0.4994(2)
H18 H 0.7091 0.9354 0.4159
C17 C 0.6857(3) 0.9395(3) 0.5803(2)
H19 H 0.5661 0.9108 0.5485
N1 N 0.7647(3) 0.9647(2) 0.70257(19)
O1 O 0.8400(2) 0.82129(19) 0.90706(18)
O2 O 0.5982(2) 0.6793(2) 0.7724(2)
O3 O 0.2761(2) 0.8068(2) 0.78232(16)
O4 O 0.3649(2) 0.8135(2) 0.62745(16)
O5 O 0.4831(2) 1.11976(18) 0.79539(15)
O6 O 0.4504(2) 1.11333(18) 0.96997(15)
O7 O 0.8123(2) 1.1198(2) 1.00650(18)
H20 H 0.796(4) 1.150(4) 1.076(3)
H21 H 0.919(5) 1.140(4) 1.031(3)
Nd1A Nd 1.417570(14) 1.077985(12) 0.155292(10)
Nd1A_2 Nd 0.417570(14) 1.077985(12) 1.155292(10)
C1A C 1.2481(3) 1.3005(3) 0.1597(2)
C2A C 1.1699(4) 1.4181(3) 0.1541(3)
H1A H 1.0592 1.4012 0.0982
C3A C 1.2517(5) 1.5460(3) 0.2254(4)
H2A H 1.3619 1.5590 0.2804
C4A C 1.1870(6) 1.6720(4) 0.2274(5)
H3A H 1.0715 1.6466 0.1694
H4A H 1.1877 1.7210 0.3103
H5A H 1.2601 1.7299 0.2040
C5A C 1.7527(3) 1.2234(3) 0.3349(2)
C6A C 1.9255(3) 1.3003(3) 0.4262(2)
H6A H 1.9410 1.3225 0.5109
C7A C 2.0580(4) 1.3389(3) 0.3953(3)
H7A H 2.0385 1.3193 0.3103
C8A C 2.2369(4) 1.4112(3) 0.4820(3)
H8A H 2.2436 1.4220 0.5663
H9A H 2.3162 1.3580 0.4587
H10A H 2.2662 1.5000 0.4768
C9A C 0.5592(3) 0.8281(2) 1.1105(2)
C10A C 0.6228(3) 0.7008(3) 1.0918(2)
H11A H 0.6401 0.6595 1.0164
C11A C 0.6564(3) 0.6427(3) 1.1766(3)
H12A H 0.6353 0.6843 1.2505
C12A C 0.7245(4) 0.5175(3) 1.1653(3)
H13A H 0.7375 0.4821 1.0846
H14A H 0.8345 0.5400 1.2296
H15A H 0.6457 0.4493 1.1743
C13A C 1.0637(3) 0.9918(3) 0.2558(2)
H16A H 1.0047 0.9709 0.1713
C14A C 0.9689(3) 0.9761(3) 0.3313(2)
H17A H 0.8496 0.9457 0.2967
C15A C 1.0499(3) 1.0054(2) 0.4580(2)
C16A C 1.2287(3) 1.0465(3) 0.5006(2)
H18A H 1.2909 1.0646 0.5841
C17A C 1.3143(3) 1.0605(3) 0.4197(2)
H19A H 1.4339 1.0892 0.4515
N1A N 1.2353(3) 1.0353(2) 0.29743(19)
O1A O 1.1600(2) 1.17871(19) 0.09294(18)
O2A O 1.4018(2) 1.3207(2) 0.2276(2)
O3A O 1.7239(2) 1.1932(2) 0.21768(16)
O4A O 1.6351(2) 1.1865(2) 0.37255(16)
O5A O 0.5169(2) 0.88024(18) 1.20461(15)
O5A_2 O 1.5169(2) 0.88024(18) 0.20461(15)
O6A O 0.5496(2) 0.88667(18) 1.03003(15)
O6_2 O 1.4504(2) 1.11333(18) -0.03003(15)
O6A_2 O 1.5496(2) 0.88667(18) 0.03003(15)
O7A O 1.1877(2) 0.8802(2) -0.00650(18)
H20A H 1.204(4) 0.850(4) -0.076(3)
H21A H 1.081(5) 0.860(4) -0.031(3)
loop_
_geom_bond_atom_site_label_1
_geom_bond_atom_site_label_2
_geom_bond_site_symmetry_1
_geom_bond_site_symmetry_2
Nd1 N1 1_555 1_555
C1 C2 1_555 1_555
C2 H1 1_555 1_555
C3 C2 1_555 1_555
H2 C3 1_555 1_555
C4 C3 1_555 1_555
H3 C4 1_555 1_555
H4 C4 1_555 1_555
H5 C4 1_555 1_555
C5 C6 1_555 1_555
C6 H6 1_555 1_555
C7 C6 1_555 1_555
H7 C7 1_555 1_555
C8 C7 1_555 1_555
H8 C8 1_555 1_555
H9 C8 1_555 1_555
H10 C8 1_555 1_555
C9 C10 1_555 1_555
C10 H11 1_555 1_555
C11 C10 1_555 1_555
H12 C11 1_555 1_555
C12 C11 1_555 1_555
H13 C12 1_555 1_555
H14 C12 1_555 1_555
H15 C12 1_555 1_555
C13 H16 1_555 1_555
C14 C13 1_555 1_555
H17 C14 1_555 1_555
C15 C14 1_555 1_555
C16 C15 1_555 1_555
H18 C16 1_555 1_555
C17 C16 1_555 1_555
H19 C17 1_555 1_555
N1 C13 1_555 1_555
O1 Nd1 1_555 1_555
O2 Nd1 1_555 1_555
O3 Nd1 1_555 1_555
O4 Nd1 1_555 1_555
O5 Nd1 1_555 1_555
O6 Nd1 1_555 1_555
O7 Nd1 1_555 1_555
H20 O7 1_555 1_555
H21 O7 1_555 1_555
Nd1A N1A 1_555 1_555
Nd1A_2 O6 1_555 1_555
C1A C2A 1_555 1_555
C2A H1A 1_555 1_555
C3A C2A 1_555 1_555
H2A C3A 1_555 1_555
C4A C3A 1_555 1_555
H3A C4A 1_555 1_555
H4A C4A 1_555 1_555
H5A C4A 1_555 1_555
C5A C6A 1_555 1_555
C6A H6A 1_555 1_555
C7A C6A 1_555 1_555
H7A C7A 1_555 1_555
C8A C7A 1_555 1_555
H8A C8A 1_555 1_555
H9A C8A 1_555 1_555
H10A C8A 1_555 1_555
C9A C10A 1_555 1_555
C10A H11A 1_555 1_555
C11A C10A 1_555 1_555
H12A C11A 1_555 1_555
C12A C11A 1_555 1_555
H13A C12A 1_555 1_555
H14A C12A 1_555 1_555
H15A C12A 1_555 1_555
C13A H16A 1_555 1_555
C14A C13A 1_555 1_555
H17A C14A 1_555 1_555
C15A C15 1_555 1_555
C16A C15A 1_555 1_555
H18A C16A 1_555 1_555
C17A C16A 1_555 1_555
H19A C17A 1_555 1_555
N1A C13A 1_555 1_555
O1A Nd1A 1_555 1_555
O2A Nd1A 1_555 1_555
O3A Nd1A 1_555 1_555
O4A Nd1A 1_555 1_555
O5A Nd1A_2 1_555 1_555
O5A_2 Nd1A 1_555 1_555
O6A Nd1 1_555 1_555
O6_2 Nd1A 1_555 1_555
O6A_2 Nd1A 1_555 1_555
O7A Nd1A 1_555 1_555
H20A O7A 1_555 1_555
H21A O7A 1_555 1_555
C1 O1 1_555 1_555
C1 O2 1_555 1_555
C5 O3 1_555 1_555
C5 O4 1_555 1_555
C9 O5 1_555 1_555
C9 O6 1_555 1_555
C17 N1 1_555 1_555
Nd1A_2 O6A 1_555 1_555
C1A O1A 1_555 1_555
C1A O2A 1_555 1_555
C5A O3A 1_555 1_555
C5A O4A 1_555 1_555
C9A O5A 1_555 1_555
C9A O6A 1_555 1_555
C14A C15A 1_555 1_555
C17A N1A 1_555 1_555

#END
