
#######################################################################
#
#                 Cambridge Crystallographic Data Centre
#                                CCDC 
#
#######################################################################
#
# If this CIF has been generated from an entry in the Cambridge 
# Structural Database, then it will include bibliographic, chemical, 
# crystal, experimental, refinement or atomic coordinate data resulting 
# from the CCDC's data processing and validation procedures.
#
#######################################################################

data_KATZAH
_symmetry_cell_setting           triclinic
_symmetry_space_group_name_H-M   'P -1'
_symmetry_Int_Tables_number      2
_space_group_name_Hall           '-P 1'
loop_
_symmetry_equiv_pos_site_id
_symmetry_equiv_pos_as_xyz
1 x,y,z
2 -x,-y,-z
_cell_length_a                   8.2277(9)
_cell_length_b                   10.4630(11)
_cell_length_c                   11.8266(13)
_cell_angle_alpha                108.190(2)
_cell_angle_beta                 105.794(2)
_cell_angle_gamma                97.364(2)
_cell_volume                     905.065
loop_
_atom_site_label
_atom_site_type_symbol
_atom_site_fract_x
_atom_site_fract_y
_atom_site_fract_z
Gd1 Gd 0.58278(4) 0.92250(3) 0.84545(3)
C1 C 0.7533(8) 0.7046(7) 0.8422(6)
C2 C 0.8290(9) 0.5859(7) 0.8482(7)
H1 H 0.9396 0.6027 0.9052
C3 C 0.7484(11) 0.4588(8) 0.7775(8)
H2 H 0.6381 0.4454 0.7213
C4 C 0.8138(12) 0.3313(8) 0.7765(11)
H3 H 0.9284 0.3570 0.8370
H4 H 0.8174 0.2828 0.6939
H5 H 0.7374 0.2724 0.7977
C5 C 0.2524(8) 0.7778(6) 0.6676(6)
C6 C 0.0792(9) 0.7007(7) 0.5767(6)
H6 H 0.0647 0.6774 0.4913
C7 C -0.0547(9) 0.6630(7) 0.6066(6)
H7 H -0.0363 0.6840 0.6922
C8 C -0.2360(9) 0.5893(8) 0.5191(7)
H8 H -0.2427 0.5787 0.4342
H9 H -0.3162 0.6424 0.5430
H10 H -0.2648 0.4999 0.5241
C9 C 0.4416(7) 1.1683(6) 0.8897(6)
C10 C 0.3790(8) 1.2977(7) 0.9086(6)
H11 H 0.3636 1.3408 0.9854
C11 C 0.3437(8) 1.3551(7) 0.8225(6)
H12 H 0.3631 1.3116 0.7474
C12 C 0.2765(10) 1.4815(7) 0.8332(7)
H13 H 0.2559 1.5149 0.9122
H14 H 0.1698 1.4604 0.7652
H15 H 0.3603 1.5513 0.8291
C13 C 0.9350(8) 1.0056(6) 0.7454(6)
H16 H 0.9942 1.0230 0.8298
C14 C 1.0318(8) 1.0231(6) 0.6691(6)
H17 H 1.1520 1.0542 0.7035
C15 C 0.9496(7) 0.9943(6) 0.5423(6)
C16 C 0.7705(8) 0.9548(7) 0.5013(6)
H18 H 0.7077 0.9367 0.4175
C17 C 0.6833(8) 0.9417(7) 0.5832(6)
H19 H 0.5627 0.9149 0.5518
N1 N 0.7622(7) 0.9654(5) 0.7045(5)
O1 O 0.8415(6) 0.8275(4) 0.9094(4)
O2 O 0.5984(6) 0.6846(4) 0.7744(4)
O3 O 0.2800(5) 0.8097(5) 0.7853(4)
O4 O 0.3723(6) 0.8140(5) 0.6296(4)
O5 O 0.4826(5) 1.1139(4) 0.7954(4)
O6 O 0.4482(5) 1.1108(4) 0.9714(4)
O7 O 0.8070(7) 1.1186(5) 1.0021(5)
H20 H 0.790(7) 1.145(5) 1.071(5)
H21 H 0.902(9) 1.128(7) 1.016(6)
Gd1A Gd 1.41722(4) 1.07750(3) 0.15455(3)
Gd1A_2 Gd 0.41722(4) 1.07750(3) 1.15455(3)
C1A C 1.2467(8) 1.2954(7) 0.1578(6)
C2A C 1.1710(9) 1.4141(7) 0.1518(7)
H1A H 1.0604 1.3973 0.0948
C3A C 1.2516(11) 1.5412(8) 0.2225(8)
H2A H 1.3619 1.5546 0.2787
C4A C 1.1862(12) 1.6687(8) 0.2235(11)
H3A H 1.0716 1.6430 0.1630
H4A H 1.1826 1.7172 0.3061
H5A H 1.2626 1.7276 0.2023
C5A C 1.7476(8) 1.2222(6) 0.3324(6)
C6A C 1.9208(9) 1.2993(7) 0.4233(6)
H6A H 1.9353 1.3226 0.5087
C7A C 2.0547(9) 1.3370(7) 0.3934(6)
H7A H 2.0363 1.3160 0.3078
C8A C 2.2360(9) 1.4107(8) 0.4809(7)
H8A H 2.2427 1.4213 0.5658
H9A H 2.3162 1.3576 0.4570
H10A H 2.2648 1.5001 0.4759
C9A C 0.5584(7) 0.8317(6) 1.1103(6)
C10A C 0.6210(8) 0.7023(7) 1.0914(6)
H11A H 0.6364 0.6592 1.0146
C11A C 0.6563(8) 0.6449(7) 1.1775(6)
H12A H 0.6369 0.6884 1.2526
C12A C 0.7235(10) 0.5185(7) 1.1668(7)
H13A H 0.7441 0.4851 1.0878
H14A H 0.8302 0.5396 1.2348
H15A H 0.6397 0.4487 1.1709
C13A C 1.0650(8) 0.9944(6) 0.2546(6)
H16A H 1.0058 0.9770 0.1702
C14A C 0.9682(8) 0.9769(6) 0.3309(6)
H17A H 0.8480 0.9458 0.2965
C15A C 1.0504(7) 1.0057(6) 0.4577(6)
C16A C 1.2295(8) 1.0452(7) 0.4987(6)
H18A H 1.2923 1.0633 0.5825
C17A C 1.3167(8) 1.0583(7) 0.4168(6)
H19A H 1.4373 1.0851 0.4482
N1A N 1.2378(7) 1.0346(5) 0.2955(5)
O1A O 1.1585(6) 1.1725(4) 0.0906(4)
O2A O 1.4016(6) 1.3154(4) 0.2256(4)
O3A O 1.7200(5) 1.1903(5) 0.2147(4)
O4A O 1.6277(6) 1.1860(5) 0.3704(4)
O5A O 0.5174(5) 0.8861(4) 1.2046(4)
O5A_2 O 1.5174(5) 0.8861(4) 0.2046(4)
O6A O 0.5518(5) 0.8892(4) 1.0286(4)
O6_2 O 1.4482(5) 1.1108(4) -0.0286(4)
O6A_2 O 1.5518(5) 0.8892(4) 0.0286(4)
O7A O 1.1930(7) 0.8814(5) -0.0021(5)
H20A H 1.210(7) 0.855(5) -0.071(5)
H21A H 1.098(9) 0.872(7) -0.016(6)
loop_
_geom_bond_atom_site_label_1
_geom_bond_atom_site_label_2
_geom_bond_site_symmetry_1
_geom_bond_site_symmetry_2
Gd1 N1 1_555 1_555
C1 C2 1_555 1_555
C2 H1 1_555 1_555
C3 C2 1_555 1_555
H2 C3 1_555 1_555
C4 C3 1_555 1_555
H3 C4 1_555 1_555
H4 C4 1_555 1_555
H5 C4 1_555 1_555
C5 C6 1_555 1_555
C6 H6 1_555 1_555
C7 C6 1_555 1_555
H7 C7 1_555 1_555
C8 C7 1_555 1_555
H8 C8 1_555 1_555
H9 C8 1_555 1_555
H10 C8 1_555 1_555
C9 C10 1_555 1_555
C10 H11 1_555 1_555
C11 C10 1_555 1_555
H12 C11 1_555 1_555
C12 C11 1_555 1_555
H13 C12 1_555 1_555
H14 C12 1_555 1_555
H15 C12 1_555 1_555
C13 H16 1_555 1_555
C14 C13 1_555 1_555
H17 C14 1_555 1_555
C15 C14 1_555 1_555
C16 C15 1_555 1_555
H18 C16 1_555 1_555
C17 C16 1_555 1_555
H19 C17 1_555 1_555
N1 C13 1_555 1_555
O1 Gd1 1_555 1_555
O2 Gd1 1_555 1_555
O3 Gd1 1_555 1_555
O4 Gd1 1_555 1_555
O5 Gd1 1_555 1_555
O6 Gd1 1_555 1_555
O7 Gd1 1_555 1_555
H20 O7 1_555 1_555
H21 O7 1_555 1_555
Gd1A N1A 1_555 1_555
Gd1A_2 O6 1_555 1_555
C1A C2A 1_555 1_555
C2A H1A 1_555 1_555
C3A C2A 1_555 1_555
H2A C3A 1_555 1_555
C4A C3A 1_555 1_555
H3A C4A 1_555 1_555
H4A C4A 1_555 1_555
H5A C4A 1_555 1_555
C5A C6A 1_555 1_555
C6A H6A 1_555 1_555
C7A C6A 1_555 1_555
H7A C7A 1_555 1_555
C8A C7A 1_555 1_555
H8A C8A 1_555 1_555
H9A C8A 1_555 1_555
H10A C8A 1_555 1_555
C9A C10A 1_555 1_555
C10A H11A 1_555 1_555
C11A C10A 1_555 1_555
H12A C11A 1_555 1_555
C12A C11A 1_555 1_555
H13A C12A 1_555 1_555
H14A C12A 1_555 1_555
H15A C12A 1_555 1_555
C13A H16A 1_555 1_555
C14A C13A 1_555 1_555
H17A C14A 1_555 1_555
C15A C15 1_555 1_555
C16A C15A 1_555 1_555
H18A C16A 1_555 1_555
C17A C16A 1_555 1_555
H19A C17A 1_555 1_555
N1A C13A 1_555 1_555
O1A Gd1A 1_555 1_555
O2A Gd1A 1_555 1_555
O3A Gd1A 1_555 1_555
O4A Gd1A 1_555 1_555
O5A Gd1A_2 1_555 1_555
O5A_2 Gd1A 1_555 1_555
O6A Gd1 1_555 1_555
O6_2 Gd1A 1_555 1_555
O6A_2 Gd1A 1_555 1_555
O7A Gd1A 1_555 1_555
H20A O7A 1_555 1_555
H21A O7A 1_555 1_555
C1 O1 1_555 1_555
C1 O2 1_555 1_555
C5 O3 1_555 1_555
C5 O4 1_555 1_555
C9 O5 1_555 1_555
C9 O6 1_555 1_555
C17 N1 1_555 1_555
Gd1A_2 O6A 1_555 1_555
C1A O1A 1_555 1_555
C1A O2A 1_555 1_555
C5A O3A 1_555 1_555
C5A O4A 1_555 1_555
C9A O5A 1_555 1_555
C9A O6A 1_555 1_555
C14A C15A 1_555 1_555
C17A N1A 1_555 1_555

#END
