
#######################################################################
#
#                 Cambridge Crystallographic Data Centre
#                                CCDC 
#
#######################################################################
#
# If this CIF has been generated from an entry in the Cambridge 
# Structural Database, then it will include bibliographic, chemical, 
# crystal, experimental, refinement or atomic coordinate data resulting 
# from the CCDC's data processing and validation procedures.
#
#######################################################################

data_KATZEL
_symmetry_cell_setting           triclinic
_symmetry_space_group_name_H-M   'P -1'
_symmetry_Int_Tables_number      2
_space_group_name_Hall           '-P 1'
loop_
_symmetry_equiv_pos_site_id
_symmetry_equiv_pos_as_xyz
1 x,y,z
2 -x,-y,-z
_cell_length_a                   8.173(2)
_cell_length_b                   10.403(3)
_cell_length_c                   11.757(3)
_cell_angle_alpha                108.226(4)
_cell_angle_beta                 105.614(4)
_cell_angle_gamma                97.420(4)
_cell_volume                     889.223
loop_
_atom_site_label
_atom_site_type_symbol
_atom_site_fract_x
_atom_site_fract_y
_atom_site_fract_z
Y1 Y 0.58329(7) 0.92238(6) 0.84574(5)
C1 C 0.7510(8) 0.7066(6) 0.8435(5)
C2 C 0.8313(8) 0.5896(6) 0.8504(6)
H1 H 0.9431 0.6075 0.9071
C3 C 0.7490(9) 0.4603(7) 0.7782(7)
H2 H 0.6386 0.4466 0.7213
C4 C 0.8149(11) 0.3339(7) 0.7787(9)
H3 H 0.9260 0.3600 0.8443
H4 H 0.8279 0.2882 0.6981
H5 H 0.7334 0.2717 0.7941
C5 C 0.2570(8) 0.7780(6) 0.6697(5)
C6 C 0.0818(8) 0.7009(6) 0.5780(5)
H6 H 0.0673 0.6779 0.4923
C7 C -0.0530(8) 0.6630(6) 0.6079(6)
H7 H -0.0341 0.6820 0.6938
C8 C -0.2339(8) 0.5929(7) 0.5216(6)
H8 H -0.2364 0.5683 0.4353
H9 H -0.3096 0.6547 0.5374
H10 H -0.2726 0.5103 0.5364
C9 C 0.4397(7) 1.1682(6) 0.8928(5)
C10 C 0.3784(7) 1.2955(6) 0.9073(5)
H11 H 0.3607 1.3399 0.9835
C11 C 0.3469(7) 1.3516(6) 0.8225(6)
H12 H 0.3691 1.3075 0.7481
C12 C 0.2794(8) 1.4780(6) 0.8306(6)
H13 H 0.2723 1.5201 0.9138
H14 H 0.1653 1.4535 0.7687
H15 H 0.3567 1.5427 0.8145
C13 C 0.9347(7) 1.0071(6) 0.7466(5)
H16 H 0.9944 1.0280 0.8319
C14 C 1.0315(7) 1.0218(6) 0.6702(5)
H17 H 1.1526 1.0504 0.7042
C15 C 0.9491(7) 0.9940(5) 0.5431(5)
C16 C 0.7681(7) 0.9578(6) 0.5014(5)
H18 H 0.7051 0.9430 0.4179
C17 C 0.6821(7) 0.9438(6) 0.5843(5)
H19 H 0.5607 0.9178 0.5535
N1 N 0.7622(6) 0.9654(5) 0.7067(4)
O1 O 0.8436(5) 0.8317(4) 0.9105(4)
O2 O 0.5999(5) 0.6885(4) 0.7770(4)
O3 O 0.2848(5) 0.8108(4) 0.7879(3)
O4 O 0.3771(5) 0.8143(4) 0.6314(4)
O5 O 0.4834(5) 1.1096(4) 0.7966(3)
O6 O 0.4463(5) 1.1097(4) 0.9732(3)
O7 O 0.8019(7) 1.1168(5) 0.9990(4)
H20 H 0.780(12) 1.137(9) 1.061(9)
H21 H 0.898(8) 1.133(6) 1.019(6)
Y1A Y 1.41671(7) 1.07762(6) 0.15426(5)
Y1A_2 Y 0.41671(7) 1.07762(6) 1.15426(5)
C1A C 1.2490(8) 1.2934(6) 0.1565(5)
C2A C 1.1687(8) 1.4104(6) 0.1496(6)
H1A H 1.0569 1.3925 0.0929
C3A C 1.2510(9) 1.5397(7) 0.2218(7)
H2A H 1.3614 1.5534 0.2787
C4A C 1.1851(11) 1.6661(7) 0.2213(9)
H3A H 1.0740 1.6400 0.1557
H4A H 1.1721 1.7118 0.3019
H5A H 1.2666 1.7283 0.2059
C5A C 1.7430(8) 1.2220(6) 0.3303(5)
C6A C 1.9182(8) 1.2991(6) 0.4220(5)
H6A H 1.9327 1.3221 0.5077
C7A C 2.0530(8) 1.3370(6) 0.3921(6)
H7A H 2.0341 1.3180 0.3062
C8A C 2.2339(8) 1.4071(7) 0.4784(6)
H8A H 2.2364 1.4317 0.5647
H9A H 2.3096 1.3453 0.4626
H10A H 2.2726 1.4897 0.4636
C9A C 0.5603(7) 0.8318(6) 1.1072(5)
C10A C 0.6216(7) 0.7045(6) 1.0927(5)
H11A H 0.6393 0.6601 1.0165
C11A C 0.6531(7) 0.6484(6) 1.1775(6)
H12A H 0.6309 0.6925 1.2519
C12A C 0.7206(8) 0.5220(6) 1.1694(6)
H13A H 0.7277 0.4799 1.0862
H14A H 0.8347 0.5465 1.2313
H15A H 0.6433 0.4573 1.1855
C13A C 1.0653(7) 0.9929(6) 0.2534(5)
H16A H 1.0056 0.9720 0.1681
C14A C 0.9685(7) 0.9782(6) 0.3298(5)
H17A H 0.8474 0.9496 0.2958
C15A C 1.0509(7) 1.0060(5) 0.4569(5)
C16A C 1.2319(7) 1.0422(6) 0.4986(5)
H18A H 1.2949 1.0570 0.5821
C17A C 1.3179(7) 1.0562(6) 0.4157(5)
H19A H 1.4393 1.0822 0.4465
N1A N 1.2378(6) 1.0346(5) 0.2933(4)
O1A O 1.1564(5) 1.1683(4) 0.0895(4)
O2A O 1.4001(5) 1.3115(4) 0.2230(4)
O3A O 1.7152(5) 1.1892(4) 0.2121(3)
O4A O 1.6229(5) 1.1857(4) 0.3686(4)
O5A O 0.5166(5) 0.8904(4) 1.2034(3)
O5A_2 O 1.5166(5) 0.8904(4) 0.2034(3)
O6A O 0.5537(5) 0.8903(4) 1.0268(3)
O6_2 O 1.4463(5) 1.1097(4) -0.0268(3)
O6A_2 O 1.5537(5) 0.8903(4) 0.0268(3)
O7A O 1.1981(7) 0.8832(5) 0.0010(4)
H20A H 1.220(12) 0.863(9) -0.061(9)
H21A H 1.102(8) 0.867(6) -0.019(6)
loop_
_geom_bond_atom_site_label_1
_geom_bond_atom_site_label_2
_geom_bond_site_symmetry_1
_geom_bond_site_symmetry_2
Y1 N1 1_555 1_555
C1 C2 1_555 1_555
C2 H1 1_555 1_555
C3 C2 1_555 1_555
H2 C3 1_555 1_555
C4 C3 1_555 1_555
H3 C4 1_555 1_555
H4 C4 1_555 1_555
H5 C4 1_555 1_555
C5 C6 1_555 1_555
C6 H6 1_555 1_555
C7 C6 1_555 1_555
H7 C7 1_555 1_555
C8 C7 1_555 1_555
H8 C8 1_555 1_555
H9 C8 1_555 1_555
H10 C8 1_555 1_555
C9 C10 1_555 1_555
C10 H11 1_555 1_555
C11 C10 1_555 1_555
H12 C11 1_555 1_555
C12 C11 1_555 1_555
H13 C12 1_555 1_555
H14 C12 1_555 1_555
H15 C12 1_555 1_555
C13 H16 1_555 1_555
C14 C13 1_555 1_555
H17 C14 1_555 1_555
C15 C14 1_555 1_555
C16 C15 1_555 1_555
H18 C16 1_555 1_555
C17 C16 1_555 1_555
H19 C17 1_555 1_555
N1 C13 1_555 1_555
O1 Y1 1_555 1_555
O2 Y1 1_555 1_555
O3 Y1 1_555 1_555
O4 Y1 1_555 1_555
O5 Y1 1_555 1_555
O6 Y1 1_555 1_555
O7 Y1 1_555 1_555
H20 O7 1_555 1_555
H21 O7 1_555 1_555
Y1A N1A 1_555 1_555
Y1A_2 O6 1_555 1_555
C1A C2A 1_555 1_555
C2A H1A 1_555 1_555
C3A C2A 1_555 1_555
H2A C3A 1_555 1_555
C4A C3A 1_555 1_555
H3A C4A 1_555 1_555
H4A C4A 1_555 1_555
H5A C4A 1_555 1_555
C5A C6A 1_555 1_555
C6A H6A 1_555 1_555
C7A C6A 1_555 1_555
H7A C7A 1_555 1_555
C8A C7A 1_555 1_555
H8A C8A 1_555 1_555
H9A C8A 1_555 1_555
H10A C8A 1_555 1_555
C9A C10A 1_555 1_555
C10A H11A 1_555 1_555
C11A C10A 1_555 1_555
H12A C11A 1_555 1_555
C12A C11A 1_555 1_555
H13A C12A 1_555 1_555
H14A C12A 1_555 1_555
H15A C12A 1_555 1_555
C13A H16A 1_555 1_555
C14A C13A 1_555 1_555
H17A C14A 1_555 1_555
C15A C15 1_555 1_555
C16A C15A 1_555 1_555
H18A C16A 1_555 1_555
C17A C16A 1_555 1_555
H19A C17A 1_555 1_555
N1A C13A 1_555 1_555
O1A Y1A 1_555 1_555
O2A Y1A 1_555 1_555
O3A Y1A 1_555 1_555
O4A Y1A 1_555 1_555
O5A Y1A_2 1_555 1_555
O5A_2 Y1A 1_555 1_555
O6A Y1 1_555 1_555
O6_2 Y1A 1_555 1_555
O6A_2 Y1A 1_555 1_555
O7A Y1A 1_555 1_555
H20A O7A 1_555 1_555
H21A O7A 1_555 1_555
C1 O1 1_555 1_555
C1 O2 1_555 1_555
C5 O3 1_555 1_555
C5 O4 1_555 1_555
C9 O5 1_555 1_555
C9 O6 1_555 1_555
C17 N1 1_555 1_555
Y1A_2 O6A 1_555 1_555
C1A O1A 1_555 1_555
C1A O2A 1_555 1_555
C5A O3A 1_555 1_555
C5A O4A 1_555 1_555
C9A O5A 1_555 1_555
C9A O6A 1_555 1_555
C14A C15A 1_555 1_555
C17A N1A 1_555 1_555

#END
