
#######################################################################
#
#                 Cambridge Crystallographic Data Centre
#                                CCDC 
#
#######################################################################
#
# If this CIF has been generated from an entry in the Cambridge 
# Structural Database, then it will include bibliographic, chemical, 
# crystal, experimental, refinement or atomic coordinate data resulting 
# from the CCDC's data processing and validation procedures.
#
#######################################################################

data_KAVCIU
_symmetry_cell_setting           monoclinic
_symmetry_space_group_name_H-M   'C 2/c'
_symmetry_Int_Tables_number      15
_space_group_name_Hall           '-C 2yn'
loop_
_symmetry_equiv_pos_site_id
_symmetry_equiv_pos_as_xyz
1 x,y,z
2 1/2+x,1/2+y,z
3 -x,y,1/2-z
4 1/2-x,1/2+y,1/2-z
5 -x,-y,-z
6 1/2-x,1/2-y,-z
7 x,-y,1/2+z
8 1/2+x,1/2-y,1/2+z
_cell_length_a                   24.059(3)
_cell_length_b                   13.2261(16)
_cell_length_c                   29.020(4)
_cell_angle_alpha                90
_cell_angle_beta                 99.581(2)
_cell_angle_gamma                90
_cell_volume                     9105.55
loop_
_atom_site_label
_atom_site_type_symbol
_atom_site_fract_x
_atom_site_fract_y
_atom_site_fract_z
Ag1 Ag 1.0000 -1.00044(6) 0.7500
Ag2 Ag 0.97604(2) -0.69459(4) 0.66825(2)
Ag3 Ag 1.16938(2) -1.29599(4) 0.607940(19)
N1 N 1.06717(18) -1.0740(3) 0.71247(16)
N2 N 1.1390(2) -1.1630(4) 0.65764(19)
N3 N 0.98770(17) -0.9463(3) 0.67192(16)
N4 N 0.95367(18) -0.8624(3) 0.65801(16)
N5 N 0.88056(18) -0.7105(3) 0.63083(17)
N6 N 0.76408(19) -0.7487(4) 0.61434(17)
N7 N 1.03790(19) -0.5797(3) 0.64186(16)
N8 N 1.1129(2) -0.4307(4) 0.61972(17)
N9 N 1.00689(18) -0.5732(3) 0.72867(15)
C1 C 1.1063(2) -1.1432(4) 0.7306(2)
C2 C 1.1080(3) -1.1720(5) 0.7774(2)
H1 H 1.0805 -1.1511 0.7944
C3 C 1.1531(3) -1.2338(5) 0.7974(3)
H2 H 1.1566 -1.2516 0.8287
C4 C 1.1922(3) -1.2687(5) 0.7716(3)
H3 H 1.2220 -1.3083 0.7862
C5 C 1.1884(2) -1.2474(4) 0.7269(2)
H4 H 1.2147 -1.2738 0.7099
C6 C 1.1442(2) -1.1838(4) 0.7044(2)
C7 C 1.1013(2) -1.0971(4) 0.6408(2)
H5 H 1.0976 -1.0800 0.6093
C8 C 1.0648(2) -1.0492(4) 0.6688(2)
C9 C 1.0242(3) -0.9686(4) 0.6475(2)
C10 C 1.0287(3) -0.9231(6) 0.6016(2)
H6 H 0.9994 -0.8740 0.5936
H7 H 1.0250 -0.9750 0.5782
H8 H 1.0648 -0.8908 0.6034
C11 C 0.9009(2) -0.8888(4) 0.6417(2)
C12 C 0.8792(3) -0.9919(5) 0.6337(3)
H9 H 0.9093 -1.0393 0.6423
H10 H 0.8636 -1.0003 0.6013
H11 H 0.8504 -1.0036 0.6524
C13 C 0.8608(2) -0.8005(4) 0.6310(2)
C14 C 0.8009(2) -0.8189(4) 0.6230(2)
H12 H 0.7884 -0.8852 0.6241
C15 C 0.7848(3) -0.6524(5) 0.6136(2)
C16 C 0.7479(3) -0.5698(5) 0.6035(3)
H13 H 0.7091 -0.5800 0.5984
C17 C 0.7691(3) -0.4758(5) 0.6012(3)
H14 H 0.7442 -0.4221 0.5941
C18 C 0.8250(3) -0.4563(5) 0.6089(3)
H15 H 0.8383 -0.3904 0.6078
C19 C 0.8612(3) -0.5346(4) 0.6182(3)
H16 H 0.8998 -0.5221 0.6226
C20 C 0.8424(2) -0.6332(4) 0.6213(2)
C21 C 1.0491(2) -0.5699(4) 0.5982(2)
C22 C 1.0229(3) -0.6356(5) 0.5622(2)
H17 H 0.9979 -0.6845 0.5693
C23 C 1.0332(3) -0.6291(6) 0.5191(2)
H18 H 1.0162 -0.6729 0.4959
C24 C 1.0707(3) -0.5538(6) 0.5094(2)
H19 H 1.0780 -0.5493 0.4790
C25 C 1.0968(3) -0.4878(5) 0.5409(2)
H20 H 1.1208 -0.4386 0.5324
C26 C 1.0869(2) -0.4950(5) 0.5863(2)
C27 C 1.1003(2) -0.4405(5) 0.6617(2)
H21 H 1.1168 -0.3962 0.6848
C28 C 1.0626(2) -0.5152(4) 0.67399(19)
C29 C 1.0487(2) -0.5198(4) 0.7216(2)
C30 C 1.0790(3) -0.4502(7) 0.7583(2)
H22 H 1.0657 -0.4617 0.7873
H23 H 1.0717 -0.3813 0.7487
H24 H 1.1188 -0.4630 0.7624
Cl1 Cl 1.12749(18) -1.1878(3) 0.50041(14)
O1 O 1.1283(4) -1.1887(6) 0.54448(17)
O2 O 1.1565(3) -1.2702(5) 0.4900(4)
O3 O 1.1549(3) -1.1088(5) 0.4871(3)
O4 O 1.0768(3) -1.1922(9) 0.4759(3)
Ag2B Ag 1.02396(2) -0.69459(4) 0.83175(2)
Ag3B Ag 0.83062(2) -1.29599(4) 0.892060(19)
Ag3A Ag 0.66938(2) -0.79599(4) 0.607940(19)
Ag3_2 Ag 1.16938(2) -0.29599(4) 0.607940(19)
Ag3B_2 Ag 0.83062(2) -0.29599(4) 0.892060(19)
Ag3C Ag 1.33062(2) -0.79599(4) 0.892060(19)
N1B N 0.93283(18) -1.0740(3) 0.78753(16)
N2B N 0.8610(2) -1.1630(4) 0.84236(19)
N3B N 1.01230(17) -0.9463(3) 0.82808(16)
N4B N 1.04633(18) -0.8624(3) 0.84199(16)
N5B N 1.11944(18) -0.7105(3) 0.86917(17)
N6B N 1.23592(19) -0.7487(4) 0.88566(17)
N6A N 1.26408(19) -1.2487(4) 0.61434(17)
N6C N 0.73592(19) -1.2487(4) 0.88566(17)
N7B N 0.96210(19) -0.5797(3) 0.85814(16)
N8B N 0.8871(2) -0.4307(4) 0.88028(17)
N8_2 N 1.1129(2) -1.4307(4) 0.61972(17)
N8B_2 N 0.8871(2) -1.4307(4) 0.88028(17)
N9B N 0.99311(18) -0.5732(3) 0.77133(15)
C1B C 0.8937(2) -1.1432(4) 0.7694(2)
C2B C 0.8920(3) -1.1720(5) 0.7226(2)
H1B H 0.9195 -1.1511 0.7056
C3B C 0.8469(3) -1.2338(5) 0.7026(3)
H2B H 0.8434 -1.2516 0.6713
C4B C 0.8078(3) -1.2687(5) 0.7284(3)
H3B H 0.7780 -1.3083 0.7138
C5B C 0.8116(2) -1.2474(4) 0.7731(2)
H4B H 0.7853 -1.2738 0.7901
C6B C 0.8558(2) -1.1838(4) 0.7956(2)
C7B C 0.8987(2) -1.0971(4) 0.8592(2)
H5B H 0.9024 -1.0800 0.8907
C8B C 0.9352(2) -1.0492(4) 0.8312(2)
C9B C 0.9758(3) -0.9686(4) 0.8525(2)
C10B C 0.9713(3) -0.9231(6) 0.8984(2)
H6B H 1.0006 -0.8740 0.9064
H7B H 0.9750 -0.9750 0.9218
H8B H 0.9352 -0.8908 0.8966
C11B C 1.0991(2) -0.8888(4) 0.8583(2)
C12B C 1.1208(3) -0.9919(5) 0.8663(3)
H9B H 1.0907 -1.0393 0.8577
H10B H 1.1364 -1.0003 0.8987
H11B H 1.1496 -1.0036 0.8476
C13B C 1.1392(2) -0.8005(4) 0.8690(2)
C14B C 1.1991(2) -0.8189(4) 0.8770(2)
H12B H 1.2116 -0.8852 0.8759
C15B C 1.2152(3) -0.6524(5) 0.8864(2)
C16B C 1.2521(3) -0.5698(5) 0.8965(3)
H13B H 1.2909 -0.5800 0.9016
C17B C 1.2309(3) -0.4758(5) 0.8988(3)
H14B H 1.2558 -0.4221 0.9059
C18B C 1.1750(3) -0.4563(5) 0.8911(3)
H15B H 1.1617 -0.3904 0.8922
C19B C 1.1388(3) -0.5346(4) 0.8818(3)
H16B H 1.1002 -0.5221 0.8774
C20B C 1.1576(2) -0.6332(4) 0.8787(2)
C21B C 0.9509(2) -0.5699(4) 0.9018(2)
C22B C 0.9771(3) -0.6356(5) 0.9378(2)
H17B H 1.0021 -0.6845 0.9307
C23B C 0.9668(3) -0.6291(6) 0.9809(2)
H18B H 0.9838 -0.6729 1.0041
C24B C 0.9293(3) -0.5538(6) 0.9906(2)
H19B H 0.9220 -0.5493 1.0210
C25B C 0.9032(3) -0.4878(5) 0.9591(2)
H20B H 0.8792 -0.4386 0.9676
C26B C 0.9131(2) -0.4950(5) 0.9137(2)
C27B C 0.8997(2) -0.4405(5) 0.8383(2)
H21B H 0.8832 -0.3962 0.8152
C28B C 0.9374(2) -0.5152(4) 0.82601(19)
C29B C 0.9513(2) -0.5198(4) 0.7784(2)
C30B C 0.9210(3) -0.4502(7) 0.7417(2)
H22B H 0.9343 -0.4617 0.7127
H23B H 0.9283 -0.3813 0.7513
H24B H 0.8812 -0.4630 0.7376
Cl1B Cl 0.87251(18) -1.1878(3) 0.99959(14)
O1B O 0.8717(4) -1.1887(6) 0.95552(17)
O2B O 0.8435(3) -1.2702(5) 1.0100(4)
O3B O 0.8451(3) -1.1088(5) 1.0129(3)
O4B O 0.9232(3) -1.1922(9) 1.0241(3)
Cl2 Cl 0.37392(10) 0.70541(18) 0.76478(9)
O5 O 0.4304(3) 0.7074(6) 0.7599(3)
O6 O 0.3474(5) 0.7846(8) 0.7444(4)
O7 O 0.3584(4) 0.6222(8) 0.7371(4)
O8 O 0.3666(5) 0.6745(10) 0.8062(4)
Cl3 Cl 0.97590(8) 0.28025(13) 0.12218(7)
O9 O 0.9309(4) 0.2251(7) 0.1171(3)
O10 O 0.9678(3) 0.3764(5) 0.1074(3)
O11 O 1.0056(3) 0.2786(5) 0.1689(2)
O12 O 1.0053(4) 0.2376(9) 0.0947(4)
O13 O 0.2444(7) 0.4979(14) 0.7067(7)
O14 O 0.2024(10) 0.3182(18) 0.6206(8)
O15 O 1.2642(10) -0.043(2) 0.4769(9)
O16? O 0.2386(8) 0.4719(13) 0.7489(7)
loop_
_geom_bond_atom_site_label_1
_geom_bond_atom_site_label_2
_geom_bond_site_symmetry_1
_geom_bond_site_symmetry_2
Ag1 N1 1_555 1_555
Ag2 N4 1_555 1_555
Ag3 N2 1_555 1_555
N1 C1 1_555 1_555
N2 C6 1_555 1_555
N3 Ag1 1_555 1_555
N4 N3 1_555 1_555
N5 Ag2 1_555 1_555
N6 C14 1_555 1_555
N7 Ag2 1_555 1_555
N8 C26 1_555 1_555
N9 Ag2 1_555 1_555
C1 C2 1_555 1_555
C2 H1 1_555 1_555
C3 C2 1_555 1_555
H2 C3 1_555 1_555
C4 C3 1_555 1_555
H3 C4 1_555 1_555
C5 C4 1_555 1_555
H4 C5 1_555 1_555
C6 C1 1_555 1_555
C7 N2 1_555 1_555
H5 C7 1_555 1_555
C8 N1 1_555 1_555
C9 N3 1_555 1_555
C10 C9 1_555 1_555
H6 C10 1_555 1_555
H7 C10 1_555 1_555
H8 C10 1_555 1_555
C11 N4 1_555 1_555
C12 C11 1_555 1_555
H9 C12 1_555 1_555
H10 C12 1_555 1_555
H11 C12 1_555 1_555
C13 N5 1_555 1_555
C14 C13 1_555 1_555
H12 C14 1_555 1_555
C15 N6 1_555 1_555
C16 C15 1_555 1_555
H13 C16 1_555 1_555
C17 C16 1_555 1_555
H14 C17 1_555 1_555
C18 C17 1_555 1_555
H15 C18 1_555 1_555
C19 C18 1_555 1_555
H16 C19 1_555 1_555
C20 N5 1_555 1_555
C21 N7 1_555 1_555
C22 C21 1_555 1_555
H17 C22 1_555 1_555
C23 C22 1_555 1_555
H18 C23 1_555 1_555
C24 C23 1_555 1_555
H19 C24 1_555 1_555
C25 C24 1_555 1_555
H20 C25 1_555 1_555
C26 C21 1_555 1_555
C27 N8 1_555 1_555
H21 C27 1_555 1_555
C28 N7 1_555 1_555
C29 N9 1_555 1_555
C30 C29 1_555 1_555
H22 C30 1_555 1_555
H23 C30 1_555 1_555
H24 C30 1_555 1_555
Cl1 O1 1_555 1_555
O1 Ag3 1_555 1_555
O2 Cl1 1_555 1_555
O3 Cl1 1_555 1_555
O4 Cl1 1_555 1_555
Cl2 O5 1_555 1_555
O6 Cl2 1_555 1_555
O7 Cl2 1_555 1_555
O8 Cl2 1_555 1_555
Cl3 O9 1_555 1_555
O10 Cl3 1_555 1_555
O11 Cl3 1_555 1_555
O12 Cl3 1_555 1_555
Ag2B N4B 1_555 1_555
Ag3B N2B 1_555 1_555
Ag3A N6 1_555 1_555
Ag3_2 N8 1_555 1_555
Ag3B_2 N8B 1_555 1_555
Ag3C N6B 1_555 1_555
N1B Ag1 1_555 1_555
N2B C6B 1_555 1_555
N3B Ag1 1_555 1_555
N4B N3B 1_555 1_555
N5B Ag2B 1_555 1_555
N6B C14B 1_555 1_555
N6A Ag3 1_555 1_555
N6C Ag3B 1_555 1_555
N7B Ag2B 1_555 1_555
N8B C26B 1_555 1_555
N8_2 Ag3 1_555 1_555
N8B_2 Ag3B 1_555 1_555
N9B N9 1_555 1_555
C1B N1B 1_555 1_555
C2B C1B 1_555 1_555
H1B C2B 1_555 1_555
C3B C2B 1_555 1_555
H2B C3B 1_555 1_555
C4B C3B 1_555 1_555
H3B C4B 1_555 1_555
C5B C4B 1_555 1_555
H4B C5B 1_555 1_555
C6B C1B 1_555 1_555
C7B N2B 1_555 1_555
H5B C7B 1_555 1_555
C8B N1B 1_555 1_555
C9B N3B 1_555 1_555
C10B C9B 1_555 1_555
H6B C10B 1_555 1_555
H7B C10B 1_555 1_555
H8B C10B 1_555 1_555
C11B N4B 1_555 1_555
C12B C11B 1_555 1_555
H9B C12B 1_555 1_555
H10B C12B 1_555 1_555
H11B C12B 1_555 1_555
C13B N5B 1_555 1_555
C14B C13B 1_555 1_555
H12B C14B 1_555 1_555
C15B N6B 1_555 1_555
C16B C15B 1_555 1_555
H13B C16B 1_555 1_555
C17B C16B 1_555 1_555
H14B C17B 1_555 1_555
C18B C17B 1_555 1_555
H15B C18B 1_555 1_555
C19B C18B 1_555 1_555
H16B C19B 1_555 1_555
C20B N5B 1_555 1_555
C21B N7B 1_555 1_555
C22B C21B 1_555 1_555
H17B C22B 1_555 1_555
C23B C22B 1_555 1_555
H18B C23B 1_555 1_555
C24B C23B 1_555 1_555
H19B C24B 1_555 1_555
C25B C24B 1_555 1_555
H20B C25B 1_555 1_555
C26B C21B 1_555 1_555
C27B N8B 1_555 1_555
H21B C27B 1_555 1_555
C28B N7B 1_555 1_555
C29B N9B 1_555 1_555
C30B C29B 1_555 1_555
H22B C30B 1_555 1_555
H23B C30B 1_555 1_555
H24B C30B 1_555 1_555
Cl1B O1B 1_555 1_555
O1B Ag3B 1_555 1_555
O2B Cl1B 1_555 1_555
O3B Cl1B 1_555 1_555
O4B Cl1B 1_555 1_555
C5 C6 1_555 1_555
C7 C8 1_555 1_555
C8 C9 1_555 1_555
C11 C13 1_555 1_555
C15 C20 1_555 1_555
C19 C20 1_555 1_555
C25 C26 1_555 1_555
C27 C28 1_555 1_555
C28 C29 1_555 1_555
Ag2B N9B 1_555 1_555
C5B C6B 1_555 1_555
C7B C8B 1_555 1_555
C8B C9B 1_555 1_555
C11B C13B 1_555 1_555
C15B C20B 1_555 1_555
C19B C20B 1_555 1_555
C25B C26B 1_555 1_555
C27B C28B 1_555 1_555
C28B C29B 1_555 1_555

#END
