
#######################################################################
#
#                 Cambridge Crystallographic Data Centre
#                                CCDC 
#
#######################################################################
#
# If this CIF has been generated from an entry in the Cambridge 
# Structural Database, then it will include bibliographic, chemical, 
# crystal, experimental, refinement or atomic coordinate data resulting 
# from the CCDC's data processing and validation procedures.
#
#######################################################################

data_KAVDIV
_symmetry_cell_setting           rhombohedral
_symmetry_space_group_name_H-M   'R -3'
_symmetry_Int_Tables_number      148
_space_group_name_Hall           '-R 3'
loop_
_symmetry_equiv_pos_site_id
_symmetry_equiv_pos_as_xyz
1 x,y,z
2 -y,x-y,z
3 -x+y,-x,z
4 2/3+x,1/3+y,1/3+z
5 2/3-y,1/3+x-y,1/3+z
6 2/3-x+y,1/3-x,1/3+z
7 1/3+x,2/3+y,2/3+z
8 1/3-y,2/3+x-y,2/3+z
9 1/3-x+y,2/3-x,2/3+z
10 -x,-y,-z
11 y,-x+y,-z
12 x-y,x,-z
13 1/3-x,2/3-y,2/3-z
14 1/3+y,2/3-x+y,2/3-z
15 1/3+x-y,2/3+x,2/3-z
16 2/3-x,1/3-y,1/3-z
17 2/3+y,1/3-x+y,1/3-z
18 2/3+x-y,1/3+x,1/3-z
_cell_length_a                   17.7161(8)
_cell_length_b                   17.7161(8)
_cell_length_c                   26.869(3)
_cell_angle_alpha                90
_cell_angle_beta                 90
_cell_angle_gamma                120.00
_cell_volume                     7303.29
loop_
_atom_site_label
_atom_site_type_symbol
_atom_site_fract_x
_atom_site_fract_y
_atom_site_fract_z
Co1 Co 0.3333 0.6667 -0.02920(2)
C1 C 0.66190(18) 0.8607(2) 0.31414(10)
C2 C 0.5981(2) 0.8837(3) 0.31769(13)
H1 H 0.5611 0.8653 0.3451
C3 C 0.7163(2) 0.8914(3) 0.27314(12)
H2 H 0.7607 0.8784 0.2694
C4 C 0.5885(2) 0.9326(3) 0.28215(14)
H3 H 0.5447 0.9467 0.2852
C5 C 0.7048(2) 0.9407(3) 0.23830(13)
H4 H 0.7418 0.9608 0.2109
C6 C 0.6284(3) 1.0114(3) 0.20280(15)
H5 H 0.6833 1.0634 0.1954
H6 H 0.5879 1.0292 0.2145
C7 C 0.5932(2) 0.9580(2) 0.15661(12)
C8 C 0.5052(2) 0.8991(2) 0.15222(13)
H7 H 0.4675 0.8930 0.1780
C9 C 0.6484(2) 0.9661(3) 0.11757(14)
H8 H 0.7077 1.0058 0.1202
C10 C 0.4730(2) 0.8493(2) 0.10960(12)
H9 H 0.4137 0.8099 0.1068
C11 C 0.6168(2) 0.9164(2) 0.07529(13)
H10 H 0.6547 0.9224 0.0497
C12 C 0.5288(2) 0.8576(2) 0.07069(11)
C13 C 0.4932(2) 0.8043(2) 0.02405(11)
N1 N 0.64203(19) 0.96060(19) 0.24254(11)
O1 O 0.54645(18) 0.80025(19) -0.00527(10)
O2 O 0.24473(19) 0.55711(19) -0.07269(10)
O3 O 0.41331(16) 0.76893(15) 0.01745(9)
Co1L Co 1.0000 1.0000 0.69587(2)
Co1A Co 1.3333 0.6666 -0.02920(2)
Co1_2 Co 1.3333 1.6667 -0.02920(2)
C1L C 0.67143(18) 0.8060(2) 0.35253(10)
C1M C 1.1940(2) 0.86547(27) 0.35253(10)
C1A C 1.1393(2) 0.80120(27) 0.31414(10)
C1N C 1.13453(27) 1.32857(18) 0.35253(10)
C1B C 1.19880(27) 1.33810(18) 0.31414(10)
C2L C 0.7352(2) 0.7830(3) 0.34898(13)
C2M C 1.2170(3) 0.9523(4) 0.34898(13)
C2A C 1.1163(3) 0.7144(4) 0.31769(13)
C2N C 1.0477(4) 1.2648(2) 0.34898(13)
C2B C 1.2856(4) 1.4019(2) 0.31769(13)
H1L H 0.7722 0.8014 0.3216
H1A H 1.1347 0.6958 0.3451
H1M H 1.1986 0.9709 0.3216
H1N H 1.0291 1.2278 0.3216
H1B H 1.3042 1.4389 0.3451
C3L C 0.6170(2) 0.7753(3) 0.39353(12)
C3A C 1.1086(3) 0.8249(4) 0.27314(12)
C3M C 1.2247(3) 0.8418(4) 0.39353(12)
C3N C 1.1582(4) 1.3830(2) 0.39353(12)
C3B C 1.1751(4) 1.2837(2) 0.27314(12)
H2L H 0.5726 0.7883 0.3973
H2A H 1.1216 0.8823 0.2694
H2M H 1.2117 0.7844 0.3973
H2N H 1.2156 1.4274 0.3973
H2B H 1.1177 1.2393 0.2694
C4L C 0.7448(2) 0.7341(3) 0.38452(14)
C4M C 1.2659(3) 1.0108(4) 0.38452(14)
C4A C 1.0674(3) 0.6559(4) 0.28215(14)
C4N C 0.9892(4) 1.2552(2) 0.38452(14)
C4B C 1.3441(4) 1.4115(2) 0.28215(14)
H3L H 0.7886 0.7200 0.3815
H3A H 1.0533 0.5980 0.2852
H3M H 1.2800 1.0687 0.3815
H3N H 0.9313 1.2114 0.3815
H3B H 1.4020 1.4553 0.2852
C5L C 0.6285(2) 0.7260(3) 0.42837(13)
C5A C 1.0593(3) 0.7641(4) 0.23830(13)
C5M C 1.2740(3) 0.9026(4) 0.42837(13)
C5N C 1.0974(4) 1.3715(2) 0.42837(13)
C5B C 1.2359(4) 1.2952(2) 0.23830(13)
H4L H 0.5915 0.7059 0.4558
H4A H 1.0392 0.7810 0.2109
H4M H 1.2941 0.8857 0.4558
H4N H 1.1143 1.4085 0.4558
H4B H 1.2190 1.2582 0.2109
C6L C 0.7049(3) 0.6553(3) 0.46387(15)
C6M C 1.3447(3) 1.0497(4) 0.46387(15)
C6A C 0.9886(3) 0.6170(4) 0.20280(15)
C6N C 0.9503(4) 1.2951(3) 0.46387(15)
C6B C 1.3830(4) 1.3716(3) 0.20280(15)
H5L H 0.6500 0.6033 0.4713
H5M H 1.3967 1.0468 0.4713
H5A H 0.9366 0.6199 0.1954
H5N H 0.9532 1.3500 0.4713
H5B H 1.3801 1.3167 0.1954
H6L H 0.7454 0.6375 0.4522
H6M H 1.3625 1.1080 0.4522
H6A H 0.9708 0.5587 0.2145
H6N H 0.8920 1.2546 0.4522
H6B H 1.4413 1.4121 0.2145
C7L C 0.7401(2) 0.7087(2) 0.51006(12)
C7M C 1.2913(2) 1.0315(3) 0.51006(12)
C7A C 1.0420(2) 0.6352(3) 0.15661(12)
C7N C 0.9685(3) 1.2599(2) 0.51006(12)
C7B C 1.3648(3) 1.4068(2) 0.15661(12)
C8L C 0.8281(2) 0.7676(2) 0.51445(13)
C8M C 1.2324(2) 1.0606(3) 0.51445(13)
C8A C 1.1009(2) 0.6061(3) 0.15222(13)
C8N C 0.9394(3) 1.1719(2) 0.51445(13)
C8B C 1.3939(3) 1.4948(2) 0.15222(13)
H7L H 0.8658 0.7737 0.4887
H7A H 1.1070 0.5745 0.1780
H7M H 1.2263 1.0922 0.4887
H7N H 0.9078 1.1342 0.4887
H7B H 1.4255 1.5325 0.1780
C9L C 0.6849(2) 0.7006(3) 0.54910(14)
C9A C 1.0339(3) 0.6823(4) 0.11757(14)
C9M C 1.2994(3) 0.9844(4) 0.54910(14)
C9N C 1.0156(4) 1.3151(2) 0.54910(14)
C9B C 1.3177(4) 1.3516(2) 0.11757(14)
H8L H 0.6256 0.6609 0.5465
H8A H 0.9942 0.7019 0.1202
H8M H 1.3391 0.9648 0.5465
H8N H 1.0352 1.3744 0.5465
H8B H 1.2981 1.2923 0.1202
C10L C 0.8603(2) 0.8174(2) 0.55707(12)
C10M C 1.1826(2) 1.0430(3) 0.55707(12)
C10A C 1.1507(2) 0.6237(3) 0.10960(12)
C10N C 0.9570(3) 1.1397(2) 0.55707(12)
C10B C 1.3763(3) 1.5270(2) 0.10960(12)
H9L H 0.9196 0.8568 0.5599
H9A H 1.1901 0.6038 0.1068
H9M H 1.1432 1.0629 0.5599
H9N H 0.9371 1.0804 0.5599
H9B H 1.3962 1.5863 0.1068
C11L C 0.7165(2) 0.7503(2) 0.59138(13)
C11A C 1.0836(2) 0.7004(3) 0.07529(13)
C11M C 1.2497(2) 0.9663(3) 0.59138(13)
C11N C 1.0337(3) 1.2835(2) 0.59138(13)
C11B C 1.2996(3) 1.3832(2) 0.07529(13)
H10L H 0.6786 0.7443 0.6170
H10A H 1.0776 0.7323 0.0497
H10M H 1.2557 0.9344 0.6170
H10N H 1.0656 1.3214 0.6170
H10B H 1.2677 1.3453 0.0497
C12L C 0.8045(2) 0.8091(2) 0.59598(11)
C12M C 1.1909(2) 0.9955(3) 0.59598(11)
C12A C 1.1424(2) 0.6712(3) 0.07069(11)
C12N C 1.0045(3) 1.1955(2) 0.59598(11)
C12B C 1.3288(3) 1.4712(2) 0.07069(11)
C13L C 0.8401(2) 0.8624(2) 0.64262(11)
C13M C 1.1376(2) 0.9778(3) 0.64262(11)
C13A C 1.1957(2) 0.6889(3) 0.02405(11)
C13N C 1.0222(3) 1.1599(2) 0.64262(11)
C13B C 1.3111(3) 1.5068(2) 0.02405(11)
N1L N 0.69130(19) 0.70607(19) 0.42413(11)
N1M N 1.29393(19) 0.98524(27) 0.42413(11)
N1A N 1.03940(19) 0.68143(27) 0.24254(11)
N1N N 1.01476(27) 1.30870(19) 0.42413(11)
N1B N 1.31857(27) 1.35797(19) 0.24254(11)
O1L O 0.78688(18) 0.86642(19) 0.67194(10)
O1A O 1.19975(19) 0.74620(26) -0.00527(10)
O1M O 1.13358(19) 0.92047(26) 0.67194(10)
O1N O 1.07953(26) 1.21312(18) 0.67194(10)
O1B O 1.25380(26) 1.45355(18) -0.00527(10)
O2A O 0.44289(19) 0.68762(27) -0.07269(10)
O2B O 0.31238(27) 0.75527(19) -0.07269(10)
O2L O 1.08860(19) 1.10956(19) 0.73936(10)
O2M O 0.89044(19) 0.97905(27) 0.73936(10)
O2N O 1.02095(27) 0.91140(19) 0.73936(10)
O3L O 0.92002(16) 0.89774(15) 0.64922(9)
O3M O 1.10226(15) 1.02229(22) 0.64922(9)
O3A O 1.23107(15) 0.64438(22) 0.01745(9)
O3N O 0.97771(22) 1.07998(16) 0.64922(9)
O3A_2 O 0.23107(15) 0.64438(22) 0.01745(9)
O3B O 0.35562(22) 0.58669(16) 0.01745(9)
O3B_2 O 1.35562(22) 1.58669(16) 0.01745(9)
O4 O 0.8920(3) 1.0813(5) 0.15868(16)
O5 O 0.8333 1.1667 0.1667
O6 O 0.7077(7) 0.8792(9) -0.0531(4)
O7 O 0.5819(13) 1.1713(11) 0.1763(7)
O8 O 0.6124(15) 1.1252(10) 0.3024(7)
loop_
_geom_bond_atom_site_label_1
_geom_bond_atom_site_label_2
_geom_bond_site_symmetry_1
_geom_bond_site_symmetry_2
Co1 O2 1_555 1_555
C1 C2 1_555 1_555
C2 H1 1_555 1_555
C3 C1 1_555 1_555
H2 C3 1_555 1_555
C4 C2 1_555 1_555
H3 C4 1_555 1_555
C5 C3 1_555 1_555
H4 C5 1_555 1_555
C6 H5 1_555 1_555
H6 C6 1_555 1_555
C7 C6 1_555 1_555
C8 C7 1_555 1_555
H7 C8 1_555 1_555
C9 C7 1_555 1_555
H8 C9 1_555 1_555
C10 C8 1_555 1_555
H9 C10 1_555 1_555
C11 C9 1_555 1_555
H10 C11 1_555 1_555
C12 C10 1_555 1_555
C13 C12 1_555 1_555
N1 C4 1_555 1_555
O1 C13 1_555 1_555
O3 Co1 1_555 1_555
Co1L O2L 1_555 1_555
Co1A O3A 1_555 1_555
Co1_2 O3B_2 1_555 1_555
C1L C1 1_555 1_555
C1M C1A 1_555 1_555
C1A C2A 1_555 1_555
C1N C1B 1_555 1_555
C1B C2B 1_555 1_555
C2L C1L 1_555 1_555
C2M C1M 1_555 1_555
C2A H1A 1_555 1_555
C2N C1N 1_555 1_555
C2B H1B 1_555 1_555
H1L C2L 1_555 1_555
H1M C2M 1_555 1_555
H1N C2N 1_555 1_555
C3L C1L 1_555 1_555
C3A C1A 1_555 1_555
C3M C1M 1_555 1_555
C3N C1N 1_555 1_555
C3B C1B 1_555 1_555
H2L C3L 1_555 1_555
H2A C3A 1_555 1_555
H2M C3M 1_555 1_555
H2N C3N 1_555 1_555
H2B C3B 1_555 1_555
C4L C2L 1_555 1_555
C4M C2M 1_555 1_555
C4A C2A 1_555 1_555
C4N C2N 1_555 1_555
C4B C2B 1_555 1_555
H3L C4L 1_555 1_555
H3A C4A 1_555 1_555
H3M C4M 1_555 1_555
H3N C4N 1_555 1_555
H3B C4B 1_555 1_555
C5L C3L 1_555 1_555
C5A C3A 1_555 1_555
C5M C3M 1_555 1_555
C5N C3N 1_555 1_555
C5B C3B 1_555 1_555
H4L C5L 1_555 1_555
H4A C5A 1_555 1_555
H4M C5M 1_555 1_555
H4N C5N 1_555 1_555
H4B C5B 1_555 1_555
C6L H5L 1_555 1_555
C6M H5M 1_555 1_555
C6A H5A 1_555 1_555
C6N H5N 1_555 1_555
C6B H5B 1_555 1_555
H6L C6L 1_555 1_555
H6M C6M 1_555 1_555
H6A C6A 1_555 1_555
H6N C6N 1_555 1_555
H6B C6B 1_555 1_555
C7L C6L 1_555 1_555
C7M C6M 1_555 1_555
C7A C6A 1_555 1_555
C7N C6N 1_555 1_555
C7B C6B 1_555 1_555
C8L C7L 1_555 1_555
C8M C7M 1_555 1_555
C8A C7A 1_555 1_555
C8N C7N 1_555 1_555
C8B C7B 1_555 1_555
H7L C8L 1_555 1_555
H7A C8A 1_555 1_555
H7M C8M 1_555 1_555
H7N C8N 1_555 1_555
H7B C8B 1_555 1_555
C9L C7L 1_555 1_555
C9A C7A 1_555 1_555
C9M C7M 1_555 1_555
C9N C7N 1_555 1_555
C9B C7B 1_555 1_555
H8L C9L 1_555 1_555
H8A C9A 1_555 1_555
H8M C9M 1_555 1_555
H8N C9N 1_555 1_555
H8B C9B 1_555 1_555
C10L C8L 1_555 1_555
C10M C8M 1_555 1_555
C10A C8A 1_555 1_555
C10N C8N 1_555 1_555
C10B C8B 1_555 1_555
H9L C10L 1_555 1_555
H9A C10A 1_555 1_555
H9M C10M 1_555 1_555
H9N C10N 1_555 1_555
H9B C10B 1_555 1_555
C11L C9L 1_555 1_555
C11A C9A 1_555 1_555
C11M C9M 1_555 1_555
C11N C9N 1_555 1_555
C11B C9B 1_555 1_555
H10L C11L 1_555 1_555
H10A C11A 1_555 1_555
H10M C11M 1_555 1_555
H10N C11N 1_555 1_555
H10B C11B 1_555 1_555
C12L C10L 1_555 1_555
C12M C10M 1_555 1_555
C12A C10A 1_555 1_555
C12N C10N 1_555 1_555
C12B C10B 1_555 1_555
C13L C12L 1_555 1_555
C13M C12M 1_555 1_555
C13A C12A 1_555 1_555
C13N C12N 1_555 1_555
C13B C12B 1_555 1_555
N1L C4L 1_555 1_555
N1M C4M 1_555 1_555
N1A C4A 1_555 1_555
N1N C4N 1_555 1_555
N1B C4B 1_555 1_555
O1L C13L 1_555 1_555
O1A C13A 1_555 1_555
O1M C13M 1_555 1_555
O1N C13N 1_555 1_555
O1B C13B 1_555 1_555
O2A Co1 1_555 1_555
O2B Co1 1_555 1_555
O2M Co1L 1_555 1_555
O2N Co1L 1_555 1_555
O3L Co1L 1_555 1_555
O3M Co1L 1_555 1_555
O3A C13A 1_555 1_555
O3N Co1L 1_555 1_555
O3A_2 Co1 1_555 1_555
O3B Co1 1_555 1_555
O3B_2 C13B 1_555 1_555
C5 N1 1_555 1_555
C6 N1 1_555 1_555
C11 C12 1_555 1_555
C13 O3 1_555 1_555
C5L N1L 1_555 1_555
C5A N1A 1_555 1_555
C5M N1M 1_555 1_555
C5N N1N 1_555 1_555
C5B N1B 1_555 1_555
C6L N1L 1_555 1_555
C6M N1M 1_555 1_555
C6A N1A 1_555 1_555
C6N N1N 1_555 1_555
C6B N1B 1_555 1_555
C11L C12L 1_555 1_555
C11A C12A 1_555 1_555
C11M C12M 1_555 1_555
C11N C12N 1_555 1_555
C11B C12B 1_555 1_555
C13L O3L 1_555 1_555
C13M O3M 1_555 1_555
C13N O3N 1_555 1_555

#END
