
#######################################################################
#
#                 Cambridge Crystallographic Data Centre
#                                CCDC 
#
#######################################################################
#
# If this CIF has been generated from an entry in the Cambridge 
# Structural Database, then it will include bibliographic, chemical, 
# crystal, experimental, refinement or atomic coordinate data resulting 
# from the CCDC's data processing and validation procedures.
#
#######################################################################

data_KAVDER
_symmetry_cell_setting           rhombohedral
_symmetry_space_group_name_H-M   'R -3'
_symmetry_Int_Tables_number      148
_space_group_name_Hall           '-R 3'
loop_
_symmetry_equiv_pos_site_id
_symmetry_equiv_pos_as_xyz
1 x,y,z
2 -y,x-y,z
3 -x+y,-x,z
4 2/3+x,1/3+y,1/3+z
5 2/3-y,1/3+x-y,1/3+z
6 2/3-x+y,1/3-x,1/3+z
7 1/3+x,2/3+y,2/3+z
8 1/3-y,2/3+x-y,2/3+z
9 1/3-x+y,2/3-x,2/3+z
10 -x,-y,-z
11 y,-x+y,-z
12 x-y,x,-z
13 1/3-x,2/3-y,2/3-z
14 1/3+y,2/3-x+y,2/3-z
15 1/3+x-y,2/3+x,2/3-z
16 2/3-x,1/3-y,1/3-z
17 2/3+y,1/3-x+y,1/3-z
18 2/3+x-y,1/3+x,1/3-z
_cell_length_a                   17.562(3)
_cell_length_b                   17.562(3)
_cell_length_c                   26.710(5)
_cell_angle_alpha                90
_cell_angle_beta                 90
_cell_angle_gamma                120.00
_cell_volume                     7134.32
loop_
_atom_site_label
_atom_site_type_symbol
_atom_site_fract_x
_atom_site_fract_y
_atom_site_fract_z
Ni1 Ni 0.3333 0.6667 -0.02920(2)
C1 C 0.66204(17) 0.8606(2) 0.31412(10)
C2 C 0.5981(2) 0.8836(2) 0.31769(12)
H1 H 0.5608 0.8651 0.3453
C3 C 0.7163(2) 0.8913(3) 0.27299(12)
H2 H 0.7610 0.8779 0.2690
C4 C 0.5883(2) 0.9323(3) 0.28213(14)
H3 H 0.5440 0.9465 0.2851
C5 C 0.7050(2) 0.9406(3) 0.23835(13)
H4 H 0.7424 0.9612 0.2108
C6 C 0.6287(3) 1.0116(3) 0.20277(15)
H5 H 0.6843 1.0641 0.1954
H6 H 0.5879 1.0298 0.2144
C7 C 0.5936(2) 0.9580(2) 0.15631(12)
C8 C 0.5053(2) 0.8991(2) 0.15210(12)
H7 H 0.4673 0.8929 0.1781
C9 C 0.6486(2) 0.9662(3) 0.11774(14)
H8 H 0.7084 1.0062 0.1205
C10 C 0.4731(2) 0.8495(2) 0.10957(11)
H9 H 0.4132 0.8101 0.1067
C11 C 0.6170(2) 0.9164(2) 0.07526(13)
H10 H 0.6553 0.9225 0.0495
C12 C 0.5287(2) 0.8574(2) 0.07078(11)
C13 C 0.4932(2) 0.8045(2) 0.02410(11)
N1 N 0.64178(18) 0.96043(19) 0.24265(10)
O1 O 0.54635(18) 0.80024(19) -0.00553(9)
O2 O 0.24488(19) 0.55706(19) -0.07260(10)
O3 O 0.41324(15) 0.76909(15) 0.01754(9)
Ni1L Ni 1.0000 1.0000 0.69587(2)
Ni1A Ni 1.3333 0.6666 -0.02920(2)
Ni1_2 Ni 1.3333 1.6667 -0.02920(2)
C1L C 0.67129(17) 0.8061(2) 0.35255(10)
C1M C 1.1939(2) 0.86523(26) 0.35255(10)
C1A C 1.1394(2) 0.80144(26) 0.31412(10)
C1N C 1.13477(26) 1.32871(17) 0.35255(10)
C1B C 1.19856(26) 1.33796(17) 0.31412(10)
C2L C 0.7352(2) 0.7831(2) 0.34898(12)
C2M C 1.2169(2) 0.9522(3) 0.34898(12)
C2A C 1.1164(2) 0.7145(3) 0.31769(12)
C2N C 1.0478(3) 1.2648(2) 0.34898(12)
C2B C 1.2855(3) 1.4019(2) 0.31769(12)
H1L H 0.7725 0.8016 0.3214
H1A H 1.1349 0.6957 0.3453
H1M H 1.1984 0.9710 0.3214
H1N H 1.0290 1.2275 0.3214
H1B H 1.3043 1.4392 0.3453
C3L C 0.6170(2) 0.7754(3) 0.39368(12)
C3A C 1.1087(3) 0.8250(4) 0.27299(12)
C3M C 1.2246(3) 0.8417(4) 0.39368(12)
C3N C 1.1583(4) 1.3830(2) 0.39368(12)
C3B C 1.1750(4) 1.2837(2) 0.27299(12)
H2L H 0.5723 0.7888 0.3977
H2A H 1.1221 0.8831 0.2690
H2M H 1.2112 0.7836 0.3977
H2N H 1.2164 1.4277 0.3977
H2B H 1.1169 1.2390 0.2690
C4L C 0.7450(2) 0.7344(3) 0.38454(14)
C4M C 1.2656(3) 1.0107(4) 0.38454(14)
C4A C 1.0677(3) 0.6560(4) 0.28213(14)
C4N C 0.9893(4) 1.2550(2) 0.38454(14)
C4B C 1.3440(4) 1.4117(2) 0.28213(14)
H3L H 0.7893 0.7202 0.3816
H3A H 1.0535 0.5975 0.2851
H3M H 1.2798 1.0692 0.3816
H3N H 0.9308 1.2107 0.3816
H3B H 1.4025 1.4560 0.2851
C5L C 0.6283(2) 0.7261(3) 0.42832(13)
C5A C 1.0594(3) 0.7644(4) 0.23835(13)
C5M C 1.2739(3) 0.9023(4) 0.42832(13)
C5N C 1.0977(4) 1.3717(2) 0.42832(13)
C5B C 1.2356(4) 1.2950(2) 0.23835(13)
H4L H 0.5909 0.7055 0.4559
H4A H 1.0388 0.7812 0.2108
H4M H 1.2945 0.8855 0.4559
H4N H 1.1145 1.4091 0.4559
H4B H 1.2188 1.2576 0.2108
C6L C 0.7046(3) 0.6551(3) 0.46390(15)
C6M C 1.3449(3) 1.0496(4) 0.46390(15)
C6A C 0.9884(3) 0.6171(4) 0.20277(15)
C6N C 0.9504(4) 1.2954(3) 0.46390(15)
C6B C 1.3829(4) 1.3713(3) 0.20277(15)
H5L H 0.6490 0.6026 0.4713
H5M H 1.3974 1.0465 0.4713
H5A H 0.9359 0.6202 0.1954
H5N H 0.9535 1.3510 0.4713
H5B H 1.3798 1.3157 0.1954
H6L H 0.7454 0.6369 0.4523
H6M H 1.3631 1.1086 0.4523
H6A H 0.9702 0.5581 0.2144
H6N H 0.8914 1.2546 0.4523
H6B H 1.4419 1.4121 0.2144
C7L C 0.7397(2) 0.7087(2) 0.51036(12)
C7M C 1.2913(2) 1.0311(3) 0.51036(12)
C7A C 1.0420(2) 0.6356(3) 0.15631(12)
C7N C 0.9689(3) 1.2603(2) 0.51036(12)
C7B C 1.3644(3) 1.4064(2) 0.15631(12)
C8L C 0.8280(2) 0.7676(2) 0.51457(12)
C8M C 1.2324(2) 1.0605(3) 0.51457(12)
C8A C 1.1009(2) 0.6062(3) 0.15210(12)
C8N C 0.9395(3) 1.1720(2) 0.51457(12)
C8B C 1.3938(3) 1.4947(2) 0.15210(12)
H7L H 0.8660 0.7738 0.4886
H7A H 1.1071 0.5744 0.1781
H7M H 1.2262 1.0923 0.4886
H7N H 0.9077 1.1340 0.4886
H7B H 1.4256 1.5327 0.1781
C9L C 0.6847(2) 0.7005(3) 0.54893(14)
C9A C 1.0338(3) 0.6824(4) 0.11774(14)
C9M C 1.2995(3) 0.9843(4) 0.54893(14)
C9N C 1.0157(4) 1.3153(2) 0.54893(14)
C9B C 1.3176(4) 1.3514(2) 0.11774(14)
H8L H 0.6249 0.6605 0.5462
H8A H 0.9938 0.7022 0.1205
H8M H 1.3395 0.9645 0.5462
H8N H 1.0355 1.3751 0.5462
H8B H 1.2978 1.2916 0.1205
C10L C 0.8602(2) 0.8172(2) 0.55710(11)
C10M C 1.1828(2) 1.0431(3) 0.55710(11)
C10A C 1.1505(2) 0.6236(3) 0.10957(11)
C10N C 0.9569(3) 1.1398(2) 0.55710(11)
C10B C 1.3764(3) 1.5269(2) 0.10957(11)
H9L H 0.9201 0.8566 0.5600
H9A H 1.1899 0.6031 0.1067
H9M H 1.1434 1.0636 0.5600
H9N H 0.9364 1.0799 0.5600
H9B H 1.3969 1.5868 0.1067
C11L C 0.7163(2) 0.7503(2) 0.59141(13)
C11A C 1.0836(2) 0.7006(3) 0.07526(13)
C11M C 1.2497(2) 0.9661(3) 0.59141(13)
C11N C 1.0339(3) 1.2837(2) 0.59141(13)
C11B C 1.2994(3) 1.3830(2) 0.07526(13)
H10L H 0.6780 0.7442 0.6172
H10A H 1.0775 0.7328 0.0495
H10M H 1.2558 0.9339 0.6172
H10N H 1.0661 1.3220 0.6172
H10B H 1.2672 1.3447 0.0495
C12L C 0.8046(2) 0.8093(2) 0.59589(11)
C12M C 1.1907(2) 0.9954(3) 0.59589(11)
C12A C 1.1426(2) 0.6713(3) 0.07078(11)
C12N C 1.0046(3) 1.1954(2) 0.59589(11)
C12B C 1.3287(3) 1.4713(2) 0.07078(11)
C13L C 0.8401(2) 0.8622(2) 0.64257(11)
C13M C 1.1378(2) 0.9780(3) 0.64257(11)
C13A C 1.1955(2) 0.6887(3) 0.02410(11)
C13N C 1.0220(3) 1.1599(2) 0.64257(11)
C13B C 1.3113(3) 1.5068(2) 0.02410(11)
N1L N 0.69155(18) 0.70624(19) 0.42402(10)
N1M N 1.29376(19) 0.98532(26) 0.42402(10)
N1A N 1.03957(19) 0.68135(26) 0.24265(10)
N1N N 1.01468(26) 1.30845(18) 0.42402(10)
N1B N 1.31865(26) 1.35822(18) 0.24265(10)
O1L O 0.78698(18) 0.86643(19) 0.67220(9)
O1A O 1.19976(19) 0.74611(26) -0.00553(9)
O1M O 1.13357(19) 0.92056(26) 0.67220(9)
O1N O 1.07944(26) 1.21302(18) 0.67220(9)
O1B O 1.25389(26) 1.45365(18) -0.00553(9)
O2A O 0.44294(19) 0.68782(27) -0.07260(10)
O2B O 0.31218(27) 0.75512(19) -0.07260(10)
O2L O 1.08845(19) 1.10961(19) 0.73927(10)
O2M O 0.89039(19) 0.97885(27) 0.73927(10)
O2N O 1.02115(27) 0.91155(19) 0.73927(10)
O3L O 0.92009(15) 0.89758(15) 0.64913(9)
O3M O 1.10242(15) 1.02252(21) 0.64913(9)
O3A O 1.23091(15) 0.64415(21) 0.01754(9)
O3N O 0.97748(21) 1.07991(15) 0.64913(9)
O3A_2 O 0.23091(15) 0.64415(21) 0.01754(9)
O3B O 0.35585(21) 0.58676(15) 0.01754(9)
O3B_2 O 1.35585(21) 1.58676(15) 0.01754(9)
O4 O 0.8910(3) 1.0819(4) 0.15916(15)
O5 O 0.8333 1.1667 0.1667
O6 O 0.7055(7) 0.8783(9) -0.0539(4)
O7 O 0.5817(11) 1.1650(9) 0.1833(9)
O8 O 0.6067(13) 1.1224(9) 0.3017(7)
loop_
_geom_bond_atom_site_label_1
_geom_bond_atom_site_label_2
_geom_bond_site_symmetry_1
_geom_bond_site_symmetry_2
Ni1 O2 1_555 1_555
C1 C2 1_555 1_555
C2 H1 1_555 1_555
C3 C1 1_555 1_555
H2 C3 1_555 1_555
C4 C2 1_555 1_555
H3 C4 1_555 1_555
C5 C3 1_555 1_555
H4 C5 1_555 1_555
C6 H5 1_555 1_555
H6 C6 1_555 1_555
C7 C6 1_555 1_555
C8 C7 1_555 1_555
H7 C8 1_555 1_555
C9 C7 1_555 1_555
H8 C9 1_555 1_555
C10 C8 1_555 1_555
H9 C10 1_555 1_555
C11 C9 1_555 1_555
H10 C11 1_555 1_555
C12 C10 1_555 1_555
C13 C12 1_555 1_555
N1 C4 1_555 1_555
O1 C13 1_555 1_555
O3 Ni1 1_555 1_555
Ni1L O2L 1_555 1_555
Ni1A O3A 1_555 1_555
Ni1_2 O3B_2 1_555 1_555
C1L C1 1_555 1_555
C1M C1A 1_555 1_555
C1A C2A 1_555 1_555
C1N C1B 1_555 1_555
C1B C2B 1_555 1_555
C2L C1L 1_555 1_555
C2M C1M 1_555 1_555
C2A H1A 1_555 1_555
C2N C1N 1_555 1_555
C2B H1B 1_555 1_555
H1L C2L 1_555 1_555
H1M C2M 1_555 1_555
H1N C2N 1_555 1_555
C3L C1L 1_555 1_555
C3A C1A 1_555 1_555
C3M C1M 1_555 1_555
C3N C1N 1_555 1_555
C3B C1B 1_555 1_555
H2L C3L 1_555 1_555
H2A C3A 1_555 1_555
H2M C3M 1_555 1_555
H2N C3N 1_555 1_555
H2B C3B 1_555 1_555
C4L C2L 1_555 1_555
C4M C2M 1_555 1_555
C4A C2A 1_555 1_555
C4N C2N 1_555 1_555
C4B C2B 1_555 1_555
H3L C4L 1_555 1_555
H3A C4A 1_555 1_555
H3M C4M 1_555 1_555
H3N C4N 1_555 1_555
H3B C4B 1_555 1_555
C5L C3L 1_555 1_555
C5A C3A 1_555 1_555
C5M C3M 1_555 1_555
C5N C3N 1_555 1_555
C5B C3B 1_555 1_555
H4L C5L 1_555 1_555
H4A C5A 1_555 1_555
H4M C5M 1_555 1_555
H4N C5N 1_555 1_555
H4B C5B 1_555 1_555
C6L H5L 1_555 1_555
C6M H5M 1_555 1_555
C6A H5A 1_555 1_555
C6N H5N 1_555 1_555
C6B H5B 1_555 1_555
H6L C6L 1_555 1_555
H6M C6M 1_555 1_555
H6A C6A 1_555 1_555
H6N C6N 1_555 1_555
H6B C6B 1_555 1_555
C7L C6L 1_555 1_555
C7M C6M 1_555 1_555
C7A C6A 1_555 1_555
C7N C6N 1_555 1_555
C7B C6B 1_555 1_555
C8L C7L 1_555 1_555
C8M C7M 1_555 1_555
C8A C7A 1_555 1_555
C8N C7N 1_555 1_555
C8B C7B 1_555 1_555
H7L C8L 1_555 1_555
H7A C8A 1_555 1_555
H7M C8M 1_555 1_555
H7N C8N 1_555 1_555
H7B C8B 1_555 1_555
C9L C7L 1_555 1_555
C9A C7A 1_555 1_555
C9M C7M 1_555 1_555
C9N C7N 1_555 1_555
C9B C7B 1_555 1_555
H8L C9L 1_555 1_555
H8A C9A 1_555 1_555
H8M C9M 1_555 1_555
H8N C9N 1_555 1_555
H8B C9B 1_555 1_555
C10L C8L 1_555 1_555
C10M C8M 1_555 1_555
C10A C8A 1_555 1_555
C10N C8N 1_555 1_555
C10B C8B 1_555 1_555
H9L C10L 1_555 1_555
H9A C10A 1_555 1_555
H9M C10M 1_555 1_555
H9N C10N 1_555 1_555
H9B C10B 1_555 1_555
C11L C9L 1_555 1_555
C11A C9A 1_555 1_555
C11M C9M 1_555 1_555
C11N C9N 1_555 1_555
C11B C9B 1_555 1_555
H10L C11L 1_555 1_555
H10A C11A 1_555 1_555
H10M C11M 1_555 1_555
H10N C11N 1_555 1_555
H10B C11B 1_555 1_555
C12L C10L 1_555 1_555
C12M C10M 1_555 1_555
C12A C10A 1_555 1_555
C12N C10N 1_555 1_555
C12B C10B 1_555 1_555
C13L C12L 1_555 1_555
C13M C12M 1_555 1_555
C13A C12A 1_555 1_555
C13N C12N 1_555 1_555
C13B C12B 1_555 1_555
N1L C4L 1_555 1_555
N1M C4M 1_555 1_555
N1A C4A 1_555 1_555
N1N C4N 1_555 1_555
N1B C4B 1_555 1_555
O1L C13L 1_555 1_555
O1A C13A 1_555 1_555
O1M C13M 1_555 1_555
O1N C13N 1_555 1_555
O1B C13B 1_555 1_555
O2A Ni1 1_555 1_555
O2B Ni1 1_555 1_555
O2M Ni1L 1_555 1_555
O2N Ni1L 1_555 1_555
O3L Ni1L 1_555 1_555
O3M Ni1L 1_555 1_555
O3A C13A 1_555 1_555
O3N Ni1L 1_555 1_555
O3A_2 Ni1 1_555 1_555
O3B Ni1 1_555 1_555
O3B_2 C13B 1_555 1_555
C5 N1 1_555 1_555
C6 N1 1_555 1_555
C11 C12 1_555 1_555
C13 O3 1_555 1_555
C5L N1L 1_555 1_555
C5A N1A 1_555 1_555
C5M N1M 1_555 1_555
C5N N1N 1_555 1_555
C5B N1B 1_555 1_555
C6L N1L 1_555 1_555
C6M N1M 1_555 1_555
C6A N1A 1_555 1_555
C6N N1N 1_555 1_555
C6B N1B 1_555 1_555
C11L C12L 1_555 1_555
C11A C12A 1_555 1_555
C11M C12M 1_555 1_555
C11N C12N 1_555 1_555
C11B C12B 1_555 1_555
C13L O3L 1_555 1_555
C13M O3M 1_555 1_555
C13N O3N 1_555 1_555

#END
