
#######################################################################
#
#                 Cambridge Crystallographic Data Centre
#                                CCDC 
#
#######################################################################
#
# If this CIF has been generated from an entry in the Cambridge 
# Structural Database, then it will include bibliographic, chemical, 
# crystal, experimental, refinement or atomic coordinate data resulting 
# from the CCDC's data processing and validation procedures.
#
#######################################################################

data_KAVGIY
_symmetry_cell_setting           triclinic
_symmetry_space_group_name_H-M   'P -1'
_symmetry_Int_Tables_number      2
_space_group_name_Hall           '-P 1'
loop_
_symmetry_equiv_pos_site_id
_symmetry_equiv_pos_as_xyz
1 x,y,z
2 -x,-y,-z
_cell_length_a                   9.0097(8)
_cell_length_b                   9.7735(5)
_cell_length_c                   10.8421(2)
_cell_angle_alpha                60.379(14)
_cell_angle_beta                 67.235(16)
_cell_angle_gamma                70.250(18)
_cell_volume                     752.376
loop_
_atom_site_label
_atom_site_type_symbol
_atom_site_fract_x
_atom_site_fract_y
_atom_site_fract_z
Sn1 Sn 0.834416(16) 0.604769(16) 0.578066(15)
Mn1 Mn 0.34697(4) 0.70396(4) 0.69484(4)
S1 S 0.60819(6) 0.73600(7) 0.48004(6)
S2 S 0.80487(7) 0.62382(7) 0.79330(6)
S3 S 0.91252(6) 0.32335(6) 0.61499(6)
N1 N 0.2474(2) 0.5123(2) 0.7035(2)
H1 H 0.1365 0.5437 0.7136
H2 H 0.2968 0.4992 0.6173
N2 N 0.4588(2) 0.4705(2) 0.8622(2)
H3 H 0.5660 0.4716 0.8478
H4 H 0.4015 0.4597 0.9566
N3 N 0.3929(3) 0.8629(2) 0.7685(2)
H5 H 0.4971 0.8285 0.7800
H6 H 0.3862 0.9660 0.6966
N4 N 0.1141(2) 0.7230(2) 0.8854(2)
H7 H 0.0219 0.7367 0.8602
H8 H 0.1187 0.6301 0.9698
N5 N 0.2165(2) 0.8916(3) 0.5159(2)
H9 H 0.2687 0.9781 0.4628
H10 H 0.2315 0.8484 0.4524
C1 C 0.2802(3) 0.3602(3) 0.8290(3)
H11 H 0.2717 0.2705 0.8153
H12 H 0.1981 0.3617 0.9211
C2 C 0.4500(3) 0.3363(3) 0.8402(3)
H13 H 0.4730 0.2337 0.9241
H14 H 0.5326 0.3329 0.7490
C3 C 0.2747(3) 0.8618(3) 0.9079(3)
H15 H 0.2716 0.9582 0.9180
H16 H 0.3098 0.7663 0.9916
C4 C 0.1051(3) 0.8596(3) 0.9121(3)
H17 H 0.0284 0.8498 1.0094
H18 H 0.0642 0.9608 0.8356
C5 C 0.0405(3) 0.9514(3) 0.5625(2)
H19 H 0.0246 1.0187 0.6128
H20 H -0.0148 0.8591 0.6349
Sn1A Sn 1.165584(16) 0.395231(16) 0.421934(15)
Mn1A Mn 1.65303(4) 0.29604(4) 0.30516(4)
Mn1A_2 Mn -0.34697(4) 1.29604(4) 0.30516(4)
S1A S 1.39181(6) 0.26400(7) 0.51996(6)
S2A S 1.19513(7) 0.37618(7) 0.20670(6)
S3A S 1.08748(6) 0.67665(6) 0.38501(6)
N1A N 1.7526(2) 0.4877(2) 0.2965(2)
H1A H 1.8635 0.4563 0.2864
H2A H 1.7032 0.5008 0.3827
N2A N 1.5412(2) 0.5295(2) 0.1378(2)
H3A H 1.4340 0.5284 0.1522
H4A H 1.5985 0.5403 0.0434
N3A N 1.6071(3) 0.1371(2) 0.2315(2)
H5A H 1.5029 0.1715 0.2200
H6A H 1.6138 0.0340 0.3034
N4A N 1.8859(2) 0.2770(2) 0.1146(2)
H7A H 1.9781 0.2633 0.1398
H8A H 1.8813 0.3699 0.0302
N5A N -0.2165(2) 1.1084(3) 0.4841(2)
N5A_2 N 1.7835(2) 0.1084(3) 0.4841(2)
H9A H -0.2687 1.0219 0.5372
H9A_2 H 1.7313 0.0219 0.5372
H10A H -0.2315 1.1516 0.5476
H10A_2 H 1.7685 0.1516 0.5476
C1A C 1.7198(3) 0.6398(3) 0.1710(3)
H11A H 1.7283 0.7295 0.1847
H12A H 1.8019 0.6383 0.0789
C2A C 1.5500(3) 0.6637(3) 0.1598(3)
H13A H 1.5270 0.7663 0.0759
H14A H 1.4674 0.6671 0.2510
C3A C 1.7253(3) 0.1382(3) 0.0921(3)
H15A H 1.7284 0.0418 0.0820
H16A H 1.6902 0.2337 0.0084
C4A C 1.8949(3) 0.1404(3) 0.0879(3)
H17A H 1.9716 0.1502 -0.0094
H18A H 1.9358 0.0392 0.1644
C5A C -0.0405(3) 1.0486(3) 0.4375(2)
H19A H -0.0246 0.9813 0.3872
H20A H 0.0148 1.1409 0.3651
loop_
_geom_bond_atom_site_label_1
_geom_bond_atom_site_label_2
_geom_bond_site_symmetry_1
_geom_bond_site_symmetry_2
Sn1 S1 1_555 1_555
Mn1 S1 1_555 1_555
S2 Sn1 1_555 1_555
S3 Sn1 1_555 1_555
N1 Mn1 1_555 1_555
H1 N1 1_555 1_555
H2 N1 1_555 1_555
N2 Mn1 1_555 1_555
H3 N2 1_555 1_555
H4 N2 1_555 1_555
N3 Mn1 1_555 1_555
H5 N3 1_555 1_555
H6 N3 1_555 1_555
N4 Mn1 1_555 1_555
H7 N4 1_555 1_555
H8 N4 1_555 1_555
N5 Mn1 1_555 1_555
H9 N5 1_555 1_555
H10 N5 1_555 1_555
C1 N1 1_555 1_555
H11 C1 1_555 1_555
H12 C1 1_555 1_555
C2 N2 1_555 1_555
H13 C2 1_555 1_555
H14 C2 1_555 1_555
C3 N3 1_555 1_555
H15 C3 1_555 1_555
H16 C3 1_555 1_555
C4 N4 1_555 1_555
H17 C4 1_555 1_555
H18 C4 1_555 1_555
C5 N5 1_555 1_555
H19 C5 1_555 1_555
H20 C5 1_555 1_555
Sn1A S3 1_555 1_555
Mn1A S1A 1_555 1_555
Mn1A_2 N5A 1_555 1_555
S1A Sn1A 1_555 1_555
S2A Sn1A 1_555 1_555
S3A Sn1 1_555 1_555
N1A Mn1A 1_555 1_555
H1A N1A 1_555 1_555
H2A N1A 1_555 1_555
N2A Mn1A 1_555 1_555
H3A N2A 1_555 1_555
H4A N2A 1_555 1_555
N3A Mn1A 1_555 1_555
H5A N3A 1_555 1_555
H6A N3A 1_555 1_555
N4A Mn1A 1_555 1_555
H7A N4A 1_555 1_555
H8A N4A 1_555 1_555
N5A H9A 1_555 1_555
N5A_2 Mn1A 1_555 1_555
H9A_2 N5A_2 1_555 1_555
H10A N5A 1_555 1_555
H10A_2 N5A_2 1_555 1_555
C1A N1A 1_555 1_555
H11A C1A 1_555 1_555
H12A C1A 1_555 1_555
C2A N2A 1_555 1_555
H13A C2A 1_555 1_555
H14A C2A 1_555 1_555
C3A N3A 1_555 1_555
H15A C3A 1_555 1_555
H16A C3A 1_555 1_555
C4A N4A 1_555 1_555
H17A C4A 1_555 1_555
H18A C4A 1_555 1_555
C5A C5 1_555 1_555
H19A C5A 1_555 1_555
H20A C5A 1_555 1_555
C1 C2 1_555 1_555
C3 C4 1_555 1_555
Sn1A S3A 1_555 1_555
N5A C5A 1_555 1_555
C1A C2A 1_555 1_555
C3A C4A 1_555 1_555

#END
