
#######################################################################
#
#                 Cambridge Crystallographic Data Centre
#                                CCDC 
#
#######################################################################
#
# If this CIF has been generated from an entry in the Cambridge 
# Structural Database, then it will include bibliographic, chemical, 
# crystal, experimental, refinement or atomic coordinate data resulting 
# from the CCDC's data processing and validation procedures.
#
#######################################################################

data_KAVGOE
_symmetry_cell_setting           triclinic
_symmetry_space_group_name_H-M   'P -1'
_symmetry_Int_Tables_number      2
_space_group_name_Hall           '-P 1'
loop_
_symmetry_equiv_pos_site_id
_symmetry_equiv_pos_as_xyz
1 x,y,z
2 -x,-y,-z
_cell_length_a                   9.9125(19)
_cell_length_b                   10.2339(19)
_cell_length_c                   13.055(2)
_cell_angle_alpha                102.880(4)
_cell_angle_beta                 102.706(4)
_cell_angle_gamma                94.705(3)
_cell_volume                     1247.39
loop_
_atom_site_label
_atom_site_type_symbol
_atom_site_fract_x
_atom_site_fract_y
_atom_site_fract_z
I1 I -0.30611(7) -0.53007(7) -0.53955(6)
Cu1 Cu -0.41393(15) -0.43843(13) -0.37544(11)
S1 S -0.3324(3) -0.2075(2) -0.3129(2)
S2 S -0.4072(3) 0.4624(2) -0.2328(2)
O1 O -0.1174(8) 0.3024(8) -0.0826(6)
O2 O -0.2577(8) 0.0363(7) -0.0799(6)
O3 O -0.3806(8) 0.0782(6) -0.3705(6)
C1 C -0.0548(12) 0.1911(11) -0.0529(11)
H1 H 0.0359 0.2232 -0.0047
H2 H -0.0436 0.1288 -0.1164
C2 C -0.1432(12) 0.1229(12) 0.0003(9)
H3 H -0.0896 0.0702 0.0420
H4 H -0.1784 0.1888 0.0487
C3 C -0.3343(11) -0.0609(10) -0.0487(9)
C4 C -0.3134(13) -0.0762(12) 0.0554(9)
H5 H -0.2443 -0.0156 0.1135
C5 C -0.3929(15) -0.1794(14) 0.0745(11)
H6 H -0.3765 -0.1937 0.1461
C6 C -0.4959(14) -0.2628(13) -0.0072(12)
H7 H -0.5537 -0.3319 0.0086
C7 C -0.5163(12) -0.2489(11) -0.1079(9)
H8 H -0.5866 -0.3112 -0.1639
C8 C -0.4383(11) -0.1454(10) -0.1362(9)
C9 C -0.4588(11) -0.1302(10) -0.2469(8)
H9 H -0.4507 -0.0357 -0.2457
H10 H -0.5512 -0.1713 -0.2877
C10 C -0.3581(12) -0.1502(10) -0.4375(9)
H11 H -0.3171 -0.2081 -0.4871
H12 H -0.4566 -0.1611 -0.4696
C11 C -0.2979(14) -0.0042(9) -0.4251(9)
H13 H -0.2024 0.0137 -0.3838
H14 H -0.3014 0.0131 -0.4948
C12 C -0.3275(11) 0.2194(8) -0.3390(8)
H15 H -0.3377 0.2570 -0.4010
H16 H -0.2309 0.2346 -0.3009
C13 C -0.4170(12) 0.2791(9) -0.2659(8)
H17 H -0.3913 0.2515 -0.1995
H18 H -0.5125 0.2409 -0.2998
C14 C -0.2459(12) 0.5171(10) -0.1274(8)
H19 H -0.2395 0.6130 -0.0990
H20 H -0.2536 0.4753 -0.0696
C15 C -0.1139(11) 0.4899(10) -0.1558(8)
C16 C -0.0512(12) 0.5739(12) -0.2102(9)
H21 H -0.0960 0.6482 -0.2285
C17 C 0.0751(13) 0.5501(14) -0.2376(10)
H22 H 0.1166 0.6064 -0.2753
C18 C 0.1387(13) 0.4434(14) -0.2090(10)
H23 H 0.2276 0.4291 -0.2241
C19 C 0.0769(12) 0.3565(12) -0.1589(10)
H24 H 0.1202 0.2803 -0.1432
C20 C -0.0475(12) 0.3812(10) -0.1319(8)
I1A I -0.69389(7) -0.46993(7) -0.46045(6)
Cu1A Cu -0.58607(15) -0.56157(13) -0.62456(11)
Cu1_2 Cu -0.41393(15) 0.56157(13) -0.37544(11)
S2_2 S -0.4072(3) -0.5376(2) -0.2328(2)
N1 N 0.108(4) -0.035(4) -0.327(2)
C21 C 0.064(2) -0.124(3) -0.397(2)
C22 C 0.014(2) -0.2279(19) -0.5045(19)
H25 H -0.0614 -0.2902 -0.5013
H26 H 0.0897 -0.2764 -0.5194
H27 H -0.0166 -0.1833 -0.5611
loop_
_geom_bond_atom_site_label_1
_geom_bond_atom_site_label_2
_geom_bond_site_symmetry_1
_geom_bond_site_symmetry_2
I1 Cu1 1_555 1_555
Cu1 S1 1_555 1_555
S1 C9 1_555 1_555
S2 C13 1_555 1_555
O1 C1 1_555 1_555
O2 C2 1_555 1_555
O3 C11 1_555 1_555
C1 H1 1_555 1_555
H2 C1 1_555 1_555
C2 C1 1_555 1_555
H3 C2 1_555 1_555
H4 C2 1_555 1_555
C3 O2 1_555 1_555
C4 C3 1_555 1_555
H5 C4 1_555 1_555
C5 C4 1_555 1_555
H6 C5 1_555 1_555
C6 C5 1_555 1_555
H7 C6 1_555 1_555
C7 C6 1_555 1_555
H8 C7 1_555 1_555
C8 C3 1_555 1_555
C9 C8 1_555 1_555
H9 C9 1_555 1_555
H10 C9 1_555 1_555
C10 S1 1_555 1_555
H11 C10 1_555 1_555
H12 C10 1_555 1_555
C11 C10 1_555 1_555
H13 C11 1_555 1_555
H14 C11 1_555 1_555
C12 O3 1_555 1_555
H15 C12 1_555 1_555
H16 C12 1_555 1_555
C13 C12 1_555 1_555
H17 C13 1_555 1_555
H18 C13 1_555 1_555
C14 S2 1_555 1_555
H19 C14 1_555 1_555
H20 C14 1_555 1_555
C15 C14 1_555 1_555
C16 C15 1_555 1_555
H21 C16 1_555 1_555
C17 C16 1_555 1_555
H22 C17 1_555 1_555
C18 C17 1_555 1_555
H23 C18 1_555 1_555
C19 C18 1_555 1_555
H24 C19 1_555 1_555
C20 O1 1_555 1_555
N1 C21 1_555 1_555
C21 C22 1_555 1_555
C22 H25 1_555 1_555
H26 C22 1_555 1_555
H27 C22 1_555 1_555
I1A Cu1 1_555 1_555
Cu1A I1 1_555 1_555
Cu1_2 S2 1_555 1_555
S2_2 Cu1 1_555 1_555
C7 C8 1_555 1_555
C15 C20 1_555 1_555
C19 C20 1_555 1_555
I1A Cu1A 1_555 1_555

#END
