
#######################################################################
#
#                 Cambridge Crystallographic Data Centre
#                                CCDC 
#
#######################################################################
#
# If this CIF has been generated from an entry in the Cambridge 
# Structural Database, then it will include bibliographic, chemical, 
# crystal, experimental, refinement or atomic coordinate data resulting 
# from the CCDC's data processing and validation procedures.
#
#######################################################################

data_KAVKIC
_symmetry_cell_setting           tetragonal
_symmetry_space_group_name_H-M   'I 41/a'
_symmetry_Int_Tables_number      88
_space_group_name_Hall           '-I 4ad'
loop_
_symmetry_equiv_pos_site_id
_symmetry_equiv_pos_as_xyz
1 x,y,z
2 3/4-y,1/4+x,1/4+z
3 1/2+x,1/2+y,1/2+z
4 1/4-y,3/4+x,3/4+z
5 1/4+y,1/4-x,1/4+z
6 1/2-x,-y,1/2+z
7 3/4+y,3/4-x,3/4+z
8 -x,1/2-y,z
9 -x,-y,-z
10 1/4+y,3/4-x,3/4-z
11 1/2-x,1/2-y,1/2-z
12 3/4+y,1/4-x,1/4-z
13 3/4-y,3/4+x,3/4-z
14 1/2+x,y,1/2-z
15 1/4-y,1/4+x,1/4-z
16 x,1/2+y,-z
_cell_length_a                   20.187(3)
_cell_length_b                   20.187(3)
_cell_length_c                   15.992(3)
_cell_angle_alpha                90
_cell_angle_beta                 90
_cell_angle_gamma                90
_cell_volume                     6516.98
loop_
_atom_site_label
_atom_site_type_symbol
_atom_site_fract_x
_atom_site_fract_y
_atom_site_fract_z
Dy1 Dy 0.706715(12) 0.673132(12) 0.090775(15)
Dy2 Dy 0.568960(12) 0.544010(11) 0.419210(15)
O1 O 0.58857(19) 0.61747(18) 0.3078(2)
O2 O 0.65182(18) 0.66906(18) 0.2157(2)
O3 O 0.7920(2) 0.66340(19) 0.1866(3)
O4 O 0.8752(2) 0.63270(18) 0.2675(3)
O5 O 0.91927(18) 0.53733(18) -0.1917(2)
O6 O 0.8688(2) 0.62532(19) -0.2464(2)
O7 O 0.77045(18) 0.71626(17) -0.1826(2)
O8 O 0.71623(18) 0.71571(18) -0.0628(2)
N1 N 0.6871(2) 0.5500(2) 0.3761(3)
N2 N 0.7984(2) 0.5550(2) 0.3624(3)
N3 N 0.7936(2) 0.6255(2) 0.0097(3)
N4 N 0.8742(2) 0.5591(2) -0.0394(3)
C1 C 0.7460(3) 0.5282(3) 0.4019(4)
H1 H 0.7505 0.4969 0.4442
C2 C 0.7696(3) 0.5979(3) 0.3059(3)
C3 C 0.7015(2) 0.5951(2) 0.3143(3)
C4 C 0.6457(3) 0.6298(3) 0.2761(3)
C5 C 0.8137(3) 0.6337(3) 0.2495(3)
C6 C 0.8378(3) 0.5779(3) 0.0258(3)
H2 H 0.8427 0.5592 0.0786
C7 C 0.8033(3) 0.6401(3) -0.0740(3)
C8 C 0.8531(2) 0.5990(2) -0.1030(3)
C9 C 0.8812(3) 0.5871(3) -0.1868(3)
C10 C 0.7612(3) 0.6931(2) -0.1089(3)
O9 O 0.7774(2) 0.7667(2) 0.0874(3)
O10 O 0.6295(2) 0.7609(2) 0.0822(3)
O11 O 0.4938(2) 0.6338(2) 0.4490(3)
Dy1D Dy 0.923132(12) 0.543285(12) 0.340775(15)
Dy2E Dy 0.931040(12) 0.455990(11) -0.080790(15)
Dy2D Dy 0.794010(11) 0.681040(12) -0.330790(15)
Dy2N Dy 0.705990(11) 0.818960(12) -0.169210(15)
O4C O 0.61730(18) 0.6252(2) 0.0175(3)
O5E O 0.58073(18) 0.46267(18) 0.3083(2)
O6C O 0.62468(19) 0.6188(2) 0.5036(2)
O7C O 0.53374(17) 0.52045(18) 0.5674(2)
O7K O 0.46626(17) 0.47955(18) 0.4326(2)
O8K O 0.46571(18) 0.53377(18) 0.3128(2)
N2C N 0.6950(2) 0.5484(2) 0.1124(3)
N4E N 0.6258(2) 0.4409(2) 0.4606(3)
O12 O 0.5019(9) 0.7061(10) -0.3005(12)
O13 O 0.5000 0.7500 0.1250
O14 O 0.5253(3) 0.6761(4) -0.1016(5)
loop_
_geom_bond_atom_site_label_1
_geom_bond_atom_site_label_2
_geom_bond_site_symmetry_1
_geom_bond_site_symmetry_2
Dy1 O2 1_555 1_555
Dy2 O1 1_555 1_555
O1 C4 1_555 1_555
O2 C4 1_555 1_555
O3 Dy1 1_555 1_555
O4 C5 1_555 1_555
O5 C9 1_555 1_555
O6 C9 1_555 1_555
O7 C10 1_555 1_555
O8 Dy1 1_555 1_555
N1 Dy2 1_555 1_555
N2 C1 1_555 1_555
N3 Dy1 1_555 1_555
N4 C6 1_555 1_555
C1 N1 1_555 1_555
H1 C1 1_555 1_555
C2 N2 1_555 1_555
C3 N1 1_555 1_555
C4 C3 1_555 1_555
C5 O3 1_555 1_555
C6 N3 1_555 1_555
H2 C6 1_555 1_555
C7 N3 1_555 1_555
C8 N4 1_555 1_555
C9 C8 1_555 1_555
C10 O8 1_555 1_555
O9 Dy1 1_555 1_555
O10 Dy1 1_555 1_555
O11 Dy2 1_555 1_555
Dy1D O4 1_555 1_555
Dy2E O5 1_555 1_555
Dy2D O6 1_555 1_555
Dy2N O7 1_555 1_555
O4C Dy1 1_555 1_555
O5E Dy2 1_555 1_555
O6C Dy2 1_555 1_555
O7C Dy2 1_555 1_555
O7K Dy2 1_555 1_555
O8K Dy2 1_555 1_555
N2C Dy1 1_555 1_555
N4E Dy2 1_555 1_555
O7 Dy2D 1_555 1_555
O8 Dy2N 1_555 1_555
N2 Dy1D 1_555 1_555
N4 Dy2E 1_555 1_555
C2 C3 1_555 1_555
C2 C5 1_555 1_555
C7 C8 1_555 1_555
C7 C10 1_555 1_555

#END
