
#######################################################################
#
#                 Cambridge Crystallographic Data Centre
#                                CCDC 
#
#######################################################################
#
# If this CIF has been generated from an entry in the Cambridge 
# Structural Database, then it will include bibliographic, chemical, 
# crystal, experimental, refinement or atomic coordinate data resulting 
# from the CCDC's data processing and validation procedures.
#
#######################################################################

data_KAVLAV
_symmetry_cell_setting           triclinic
_symmetry_space_group_name_H-M   'P -1'
_symmetry_Int_Tables_number      2
_space_group_name_Hall           '-P 1'
loop_
_symmetry_equiv_pos_site_id
_symmetry_equiv_pos_as_xyz
1 x,y,z
2 -x,-y,-z
_cell_length_a                   12.430(3)
_cell_length_b                   14.913(3)
_cell_length_c                   15.905(3)
_cell_angle_alpha                88.04(3)
_cell_angle_beta                 73.07(3)
_cell_angle_gamma                70.08(3)
_cell_volume                     2644.82
loop_
_atom_site_label
_atom_site_type_symbol
_atom_site_fract_x
_atom_site_fract_y
_atom_site_fract_z
Ni1 Ni 0.14928(6) 0.20652(4) 0.11500(4)
Ni2 Ni -0.82235(5) 0.56303(4) 0.47535(4)
C1 C -0.5641(5) 0.5392(4) 0.4083(4)
H1 H -0.5887 0.5903 0.4516
C2 C -0.4450(5) 0.4977(4) 0.3672(4)
H2 H -0.3890 0.5194 0.3823
C3 C -0.4058(4) 0.4237(4) 0.3032(3)
C4 C -0.4919(5) 0.3968(4) 0.2831(4)
H3 H -0.4695 0.3471 0.2388
C5 C -0.6123(5) 0.4438(4) 0.3289(3)
H4 H -0.6713 0.4256 0.3144
C6 C -0.2748(5) 0.3730(4) 0.2587(3)
C7 C -0.1906(5) 0.4124(4) 0.2639(4)
H5 H -0.2155 0.4725 0.2956
C8 C -0.0712(5) 0.3646(4) 0.2232(4)
H6 H -0.0151 0.3931 0.2274
C9 C -0.1120(5) 0.2417(4) 0.1735(4)
H7 H -0.0848 0.1815 0.1415
C10 C -0.2335(5) 0.2850(4) 0.2128(4)
H8 H -0.2878 0.2547 0.2085
C11 C 0.0281(5) 0.2822(3) -0.1567(3)
C12 C 0.0805(6) 0.1871(4) -0.1417(4)
H9 H 0.0913 0.1373 -0.1824
C13 C 0.1168(6) 0.1658(4) -0.0667(3)
H10 H 0.1516 0.1004 -0.0571
C14 C 0.0533(6) 0.3225(4) -0.0221(4)
H11 H 0.0425 0.3709 0.0201
C15 C 0.0145(6) 0.3497(4) -0.0941(4)
H12 H -0.0221 0.4157 -0.1010
C16 C -0.1156(6) 0.2992(4) -0.3380(4)
H13 H -0.1542 0.2648 -0.3605
C17 C -0.0716(6) 0.2640(4) -0.2693(4)
H14 H -0.0808 0.2068 -0.2454
C18 C -0.0140(5) 0.3114(3) -0.2346(3)
C19 C -0.0027(5) 0.3934(4) -0.2737(3)
H15 H 0.0372 0.4284 -0.2534
C20 C -0.0493(5) 0.4238(4) -0.3419(3)
H16 H -0.0404 0.4803 -0.3676
C31 C -0.8197(6) -0.1727(4) 0.5798(4)
C32 C -0.8891(8) -0.0967(5) 0.6391(6)
H25 H -0.9702 -0.0893 0.6688
C33 C -0.8409(11) -0.0291(5) 0.6563(8)
H26 H -0.8891 0.0238 0.6979
C34 C -0.7240(11) -0.0400(5) 0.6126(7)
C35 C -0.6547(11) -0.1153(8) 0.5553(7)
H27 H -0.5732 -0.1235 0.5260
C36 C -0.7047(9) -0.1816(6) 0.5396(6)
H28 H -0.6556 -0.2351 0.4988
C37 C -0.8711(5) -0.2465(3) 0.5636(3)
C38 C -0.7030(7) 0.1133(4) 0.6052(5)
C39 C -0.6656(7) 0.1753(4) 0.6395(5)
H29 H -0.6241 0.1556 0.6823
C40 C -0.6878(6) 0.2665(4) 0.6124(4)
H30 H -0.6613 0.3094 0.6366
C41 C -0.7487(4) 0.2969(3) 0.5499(3)
C42 C -0.7836(6) 0.2328(4) 0.5145(4)
H31 H -0.8224 0.2517 0.4701
C43 C -0.7639(8) 0.1423(5) 0.5418(5)
H32 H -0.7910 0.0994 0.5180
C44 C -0.7771(4) 0.3971(3) 0.5254(3)
C45 C 0.2839(5) -0.0674(3) 0.0464(4)
C46 C 0.2032(5) -0.1146(4) 0.0552(4)
H33 H 0.1204 -0.0815 0.0833
C47 C 0.2412(5) -0.2097(4) 0.0237(4)
H34 H 0.1848 -0.2409 0.0286
C48 C 0.3609(6) -0.2573(4) -0.0143(4)
C49 C 0.4444(5) -0.2118(4) -0.0220(5)
H35 H 0.5275 -0.2460 -0.0473
C50 C 0.4057(5) -0.1176(4) 0.0072(5)
H36 H 0.4621 -0.0861 0.0007
C51 C 0.2387(5) 0.0362(3) 0.0765(4)
C52 C 0.3573(5) -0.4155(4) -0.0015(4)
C53 C 0.3373(5) -0.4168(4) 0.0866(4)
H37 H 0.3504 -0.3705 0.1181
C54 C 0.2976(5) -0.4868(4) 0.1302(4)
H38 H 0.2833 -0.4879 0.1921
C55 C 0.2781(4) -0.5549(3) 0.0858(3)
C56 C 0.2995(6) -0.5517(4) -0.0041(4)
H39 H 0.2867 -0.5980 -0.0358
C57 C 0.3393(6) -0.4827(4) -0.0492(4)
H40 H 0.3539 -0.4811 -0.1112
C58 C 0.2353(5) -0.6314(3) 0.1339(3)
N1 N -0.6482(4) 0.5131(3) 0.3921(3)
N2 N -0.0299(4) 0.2796(3) 0.1776(3)
N3 N -0.1070(4) 0.3790(3) -0.3749(3)
N4 N 0.1058(4) 0.2311(3) -0.0077(3)
O1 O 0.1297(3) 0.0743(2) 0.1195(3)
O2 O 0.3056(3) 0.0846(3) 0.0555(3)
O3 O 0.2075(4) -0.6832(2) 0.0883(2)
O4 O 0.2306(5) -0.6391(3) 0.2122(3)
O5 O 0.4030(4) -0.3504(3) -0.0513(3)
O6 O -0.7505(3) 0.4563(2) 0.5622(2)
O7 O -0.8295(3) 0.4238(2) 0.4658(2)
O8 O -0.6739(8) 0.0236(4) 0.6343(5)
O9 O -0.7993(3) -0.3178(2) 0.5136(2)
O10 O -0.9783(4) -0.2329(3) 0.6029(3)
O11 O -0.9859(3) 0.6038(2) 0.5692(2)
O12 O 0.1823(4) 0.1984(3) 0.2380(3)
Ni1_2 Ni 0.14928(6) -0.79348(4) 0.11500(4)
Ni2A Ni -0.17765(5) 0.43697(4) -0.47535(4)
Ni2_2 Ni -0.82235(5) -0.43697(4) 0.47535(4)
N3A N -0.8930(4) 0.6210(3) 0.3749(3)
O3_2 O 0.2075(4) 0.3168(2) 0.0883(2)
O9_2 O -0.7993(3) 0.6822(2) 0.5136(2)
C21 C -0.6359(12) -0.0795(9) 0.8183(8)
H17 H -0.7110 -0.0727 0.8601
C22 C -0.5854(12) -0.0066(10) 0.8201(8)
H18 H -0.6254 0.0464 0.8627
C23 C -0.4803(10) -0.0149(9) 0.7605(8)
C24 C -0.4240(12) -0.0921(9) 0.6984(12)
H19 H -0.3514 -0.0981 0.6537
C25 C -0.4788(14) -0.1612(15) 0.7044(13)
H20 H -0.4376 -0.2163 0.6644
C26 C -0.434(2) 0.2203(12) 0.7875(15)
H21 H -0.4751 0.2862 0.8056
C27 C -0.4928(17) 0.1513(10) 0.8008(11)
H22 H -0.5734 0.1664 0.8368
C28 C -0.4253(12) 0.0603(9) 0.7579(9)
C29 C -0.3023(16) 0.0378(15) 0.7143(15)
H23 H -0.2502 -0.0266 0.6987
C30 C -0.261(6) 0.111(3) 0.696(4)
H24 H -0.1975 0.1066 0.6437
N5 N -0.304(2) 0.181(3) 0.7434(16)
N6 N -0.5833(10) -0.1562(8) 0.7612(8)
loop_
_geom_bond_atom_site_label_1
_geom_bond_atom_site_label_2
_geom_bond_site_symmetry_1
_geom_bond_site_symmetry_2
Ni1 N2 1_555 1_555
Ni2 N1 1_555 1_555
C1 H1 1_555 1_555
C2 C1 1_555 1_555
H2 C2 1_555 1_555
C3 C2 1_555 1_555
C4 C3 1_555 1_555
H3 C4 1_555 1_555
C5 C4 1_555 1_555
H4 C5 1_555 1_555
C6 C3 1_555 1_555
C7 C6 1_555 1_555
H5 C7 1_555 1_555
C8 C7 1_555 1_555
H6 C8 1_555 1_555
C9 H7 1_555 1_555
C10 C6 1_555 1_555
H8 C10 1_555 1_555
C11 C12 1_555 1_555
C12 H9 1_555 1_555
C13 C12 1_555 1_555
H10 C13 1_555 1_555
C14 H11 1_555 1_555
C15 C11 1_555 1_555
H12 C15 1_555 1_555
C16 H13 1_555 1_555
C17 C16 1_555 1_555
H14 C17 1_555 1_555
C18 C11 1_555 1_555
C19 C18 1_555 1_555
H15 C19 1_555 1_555
C20 C19 1_555 1_555
H16 C20 1_555 1_555
C21 H17 1_555 1_555
C22 C21 1_555 1_555
H18 C22 1_555 1_555
C23 C22 1_555 1_555
C24 C23 1_555 1_555
H19 C24 1_555 1_555
C25 C24 1_555 1_555
H20 C25 1_555 1_555
C26 H21 1_555 1_555
C27 C26 1_555 1_555
H22 C27 1_555 1_555
C28 C23 1_555 1_555
C29 C28 1_555 1_555
H23 C29 1_555 1_555
C30 C29 1_555 1_555
H24 C30 1_555 1_555
C31 C32 1_555 1_555
C32 H25 1_555 1_555
C33 C32 1_555 1_555
H26 C33 1_555 1_555
C34 C33 1_555 1_555
C35 C34 1_555 1_555
H27 C35 1_555 1_555
C36 C31 1_555 1_555
H28 C36 1_555 1_555
C37 C31 1_555 1_555
C38 C39 1_555 1_555
C39 H29 1_555 1_555
C40 C39 1_555 1_555
H30 C40 1_555 1_555
C41 C40 1_555 1_555
C42 C41 1_555 1_555
H31 C42 1_555 1_555
C43 C38 1_555 1_555
H32 C43 1_555 1_555
C44 C41 1_555 1_555
C45 C46 1_555 1_555
C46 H33 1_555 1_555
C47 C46 1_555 1_555
H34 C47 1_555 1_555
C48 C47 1_555 1_555
C49 C48 1_555 1_555
H35 C49 1_555 1_555
C50 C45 1_555 1_555
H36 C50 1_555 1_555
C51 C45 1_555 1_555
C52 C53 1_555 1_555
C53 H37 1_555 1_555
C54 C53 1_555 1_555
H38 C54 1_555 1_555
C55 C54 1_555 1_555
C56 C55 1_555 1_555
H39 C56 1_555 1_555
C57 C52 1_555 1_555
H40 C57 1_555 1_555
C58 C55 1_555 1_555
N1 C1 1_555 1_555
N2 C8 1_555 1_555
N3 C16 1_555 1_555
N4 Ni1 1_555 1_555
N5 C26 1_555 1_555
N6 C21 1_555 1_555
O1 Ni1 1_555 1_555
O2 Ni1 1_555 1_555
O3 C58 1_555 1_555
O4 C58 1_555 1_555
O5 C48 1_555 1_555
O6 Ni2 1_555 1_555
O7 Ni2 1_555 1_555
O8 C34 1_555 1_555
O9 C37 1_555 1_555
O10 C37 1_555 1_555
O11 Ni2 1_555 1_555
O12 Ni1 1_555 1_555
Ni1_2 O3 1_555 1_555
Ni2A N3 1_555 1_555
Ni2_2 O9 1_555 1_555
N3A Ni2 1_555 1_555
O3_2 Ni1 1_555 1_555
O9_2 Ni2 1_555 1_555
C5 N1 1_555 1_555
C9 C10 1_555 1_555
C9 N2 1_555 1_555
C13 N4 1_555 1_555
C14 C15 1_555 1_555
C14 N4 1_555 1_555
C17 C18 1_555 1_555
C20 N3 1_555 1_555
C25 N6 1_555 1_555
C27 C28 1_555 1_555
C30 N5 1_555 1_555
C35 C36 1_555 1_555
C38 O8 1_555 1_555
C42 C43 1_555 1_555
C44 O6 1_555 1_555
C44 O7 1_555 1_555
C49 C50 1_555 1_555
C51 O1 1_555 1_555
C51 O2 1_555 1_555
C52 O5 1_555 1_555
C56 C57 1_555 1_555

#END
