
#######################################################################
#
#                 Cambridge Crystallographic Data Centre
#                                CCDC 
#
#######################################################################
#
# If this CIF has been generated from an entry in the Cambridge 
# Structural Database, then it will include bibliographic, chemical, 
# crystal, experimental, refinement or atomic coordinate data resulting 
# from the CCDC's data processing and validation procedures.
#
#######################################################################

data_KAVLEZ
_symmetry_cell_setting           triclinic
_symmetry_space_group_name_H-M   'P -1'
_symmetry_Int_Tables_number      2
_space_group_name_Hall           '-P 1'
loop_
_symmetry_equiv_pos_site_id
_symmetry_equiv_pos_as_xyz
1 x,y,z
2 -x,-y,-z
_cell_length_a                   9.903(2)
_cell_length_b                   12.966(3)
_cell_length_c                   16.223(3)
_cell_angle_alpha                92.44(3)
_cell_angle_beta                 92.66(3)
_cell_angle_gamma                106.50(3)
_cell_volume                     1991.75
loop_
_atom_site_label
_atom_site_type_symbol
_atom_site_fract_x
_atom_site_fract_y
_atom_site_fract_z
Ni1 Ni 0.89873(6) 1.51778(4) 0.95313(3)
Ni2 Ni 0.0000 1.5000 0.5000
C1 C 1.5210(6) 2.0701(4) 0.6294(4)
H1 H 1.4907 2.0257 0.5816
C2 C 1.5187(7) 2.0253(4) 0.7048(4)
H2 H 1.4887 1.9508 0.7077
C3 C 1.5604(6) 2.0901(4) 0.7760(4)
C4 C 1.6182(6) 2.2013(5) 0.7729(4)
H3 H 1.6545 2.2444 0.8206
C5 C 1.6200(6) 2.2455(4) 0.6967(4)
H4 H 1.6563 2.3196 0.6936
C6 C 1.5683(6) 2.1811(4) 0.6239(3)
C7 C 1.5557(6) 2.2342(4) 0.5462(4)
C8 C 1.4597(6) 1.9567(5) 0.8734(4)
C9 C 1.5070(6) 1.8954(5) 0.9295(4)
H5 H 1.6007 1.9158 0.9499
C10 C 1.4127(6) 1.8032(5) 0.9548(3)
H6 H 1.4432 1.7622 0.9932
C11 C 1.2729(5) 1.7710(4) 0.9237(3)
C12 C 1.2299(6) 1.8345(5) 0.8674(4)
H7 H 1.1367 1.8139 0.8461
C13 C 1.3219(7) 1.9277(5) 0.8421(4)
H8 H 1.2912 1.9698 0.8046
C14 C 1.1708(5) 1.6711(4) 0.9510(3)
C15 C -0.1066(5) 0.6712(3) 0.1877(3)
C16 C -0.0337(5) 0.6791(4) 0.2637(3)
H9 H 0.0390 0.6472 0.2699
C17 C -0.0691(6) 0.7346(4) 0.3305(3)
H10 H -0.0203 0.7398 0.3816
C18 C -0.1758(6) 0.7815(4) 0.3210(3)
C19 C -0.2510(6) 0.7742(4) 0.2459(3)
H11 H -0.3238 0.8061 0.2403
C20 C -0.2161(5) 0.7182(4) 0.1788(3)
H12 H -0.2660 0.7122 0.1280
C21 C -0.0701(5) 0.6099(4) 0.1162(3)
C22 C -0.0396(5) 1.1673(4) 0.4191(3)
C23 C -0.1285(5) 1.1109(4) 0.4755(3)
H13 H -0.1515 1.1477 0.5207
C24 C -0.1840(6) 0.9995(4) 0.4651(3)
H14 H -0.2412 0.9615 0.5041
C25 C -0.1529(5) 0.9456(4) 0.3960(3)
C26 C -0.0676(6) 1.0024(4) 0.3379(3)
H15 H -0.0491 0.9665 0.2908
C27 C -0.0102(6) 1.1127(4) 0.3504(3)
H16 H 0.0489 1.1505 0.3122
C28 C 0.0263(5) 1.2878(4) 0.4311(3)
C29 C 0.1794(5) 1.5727(4) 0.6604(3)
H17 H 0.1107 1.6067 0.6713
C30 C 0.2875(5) 1.5824(4) 0.7199(3)
H18 H 0.2903 1.6217 0.7696
C31 C 0.3920(5) 1.5330(4) 0.7047(3)
C32 C 0.3795(5) 1.4745(4) 0.6296(3)
H19 H 0.4463 1.4392 0.6170
C33 C 0.2677(5) 1.4688(4) 0.5737(3)
H20 H 0.2615 1.4293 0.5238
C34 C 0.6111(5) 1.5357(5) 0.9019(3)
H21 H 0.6002 1.5346 0.9585
C35 C 0.4964(5) 1.5369(5) 0.8502(3)
H22 H 0.4110 1.5367 0.8718
C36 C 0.5110(5) 1.5384(4) 0.7656(3)
C37 C 0.6424(5) 1.5425(4) 0.7377(3)
H23 H 0.6573 1.5463 0.6816
C38 C 0.7510(5) 1.5409(4) 0.7935(3)
H24 H 0.8384 1.5433 0.7736
N2 N 0.7362(4) 1.5361(3) 0.8750(2)
N3 N 0.1686(4) 1.5168(3) 0.5878(2)
O1 O -0.1410(4) 0.6019(3) 0.0483(2)
O2 O 0.0313(4) 0.5697(3) 0.1276(2)
O4 O 0.1271(4) 1.3299(3) 0.3878(2)
O5 O -0.0267(3) 1.3376(2) 0.48291(19)
O6 O -0.2117(5) 0.8354(3) 0.3888(2)
O7 O 1.0459(4) 1.6479(3) 0.9229(2)
O8 O 1.2193(4) 1.6154(3) 1.0001(2)
O9 O 1.5593(5) 2.0519(3) 0.8551(3)
O10 O 1.5912(5) 2.3314(3) 0.5395(3)
O11 O 1.4948(5) 2.1654(3) 0.4824(3)
H31 H 1.4910 2.1989 0.4411
O12 O 0.1394(4) 1.5356(3) 0.4031(2)
H32 H 0.1735 1.4796 0.3911
H33 H 0.2297 1.5953 0.4343
Ni1A Ni -0.89873(6) 1.48222(4) 0.04687(3)
Ni1A_2 Ni 1.10127(6) 1.48222(4) 1.04687(3)
Ni1_2 Ni -0.10127(6) 0.51778(4) -0.04687(3)
Ni1A_3 Ni 0.10127(6) 0.48222(4) 0.04687(3)
Ni1A_4 Ni 0.10127(6) 2.48222(4) 1.04687(3)
Ni1_3 Ni -0.10127(6) 2.51778(4) 0.95313(3)
Ni1_4 Ni -1.10127(6) 1.51778(4) -0.04687(3)
C1A C 0.4790(6) 0.9299(4) 1.3706(4)
H1A H 0.5093 0.9743 1.4184
C2A C 0.4813(7) 0.9747(4) 1.2952(4)
H2A H 0.5113 1.0492 1.2923
C3A C 0.4396(6) 0.9099(4) 1.2240(4)
C4A C 0.3818(6) 0.7987(5) 1.2271(4)
H3A H 0.3455 0.7556 1.1794
C5A C 0.3800(6) 0.7545(4) 1.3033(4)
H4A H 0.3437 0.6804 1.3064
C6A C 0.4317(6) 0.8189(4) 1.3761(3)
C7A C 0.4443(6) 0.7658(4) 1.4538(4)
C8A C 0.5403(6) 1.0433(5) 1.1266(4)
C9A C 0.4930(6) 1.1046(5) 1.0705(4)
H5A H 0.3993 1.0842 1.0501
C10A C 0.5873(6) 1.1968(5) 1.0452(3)
H6A H 0.5568 1.2378 1.0068
C11A C 0.7271(5) 1.2290(4) 1.0763(3)
C12A C 0.7701(6) 1.1655(5) 1.1326(4)
H7A H 0.8633 1.1861 1.1539
C13A C 0.6781(7) 1.0723(5) 1.1579(4)
H8A H 0.7088 1.0302 1.1954
C14A C 0.8292(5) 1.3289(4) 1.0490(3)
C15A C 0.1066(5) 2.3288(3) 0.8123(3)
C16A C 0.0337(5) 2.3209(4) 0.7363(3)
H9A H -0.0390 2.3528 0.7301
C17A C 0.0691(6) 2.2654(4) 0.6695(3)
H10A H 0.0203 2.2602 0.6184
C18A C 0.1758(6) 2.2185(4) 0.6790(3)
C19A C 0.2510(6) 2.2258(4) 0.7541(3)
H11A H 0.3238 2.1939 0.7597
C20A C 0.2161(5) 2.2818(4) 0.8212(3)
H12A H 0.2660 2.2878 0.8720
C21A C 0.0701(5) 2.3901(4) 0.8838(3)
C22A C 0.0396(5) 1.8327(4) 0.5809(3)
C23A C 0.1285(5) 1.8891(4) 0.5245(3)
H13A H 0.1515 1.8523 0.4793
C24A C 0.1840(6) 2.0005(4) 0.5349(3)
H14A H 0.2412 2.0385 0.4959
C25A C 0.1529(5) 2.0544(4) 0.6040(3)
C26A C 0.0676(6) 1.9976(4) 0.6621(3)
H15A H 0.0491 2.0335 0.7092
C27A C 0.0102(6) 1.8873(4) 0.6496(3)
H16A H -0.0489 1.8495 0.6878
C28A C -0.0263(5) 1.7122(4) 0.5689(3)
C29A C -0.1794(5) 1.4273(4) 0.3396(3)
H17A H -0.1107 1.3933 0.3287
C30A C -0.2875(5) 1.4176(4) 0.2801(3)
H18A H -0.2903 1.3783 0.2304
C31A C -0.3920(5) 1.4670(4) 0.2953(3)
C32A C -0.3795(5) 1.5255(4) 0.3704(3)
H19A H -0.4463 1.5608 0.3830
C33A C -0.2677(5) 1.5312(4) 0.4263(3)
H20A H -0.2615 1.5707 0.4762
C34A C -0.6111(5) 1.4643(5) 0.0981(3)
H21A H -0.6002 1.4654 0.0415
C35A C -0.4964(5) 1.4631(5) 0.1498(3)
H22A H -0.4110 1.4633 0.1282
C36A C -0.5110(5) 1.4616(4) 0.2344(3)
C37A C -0.6424(5) 1.4575(4) 0.2623(3)
H23A H -0.6573 1.4537 0.3184
C38A C -0.7510(5) 1.4591(4) 0.2065(3)
H24A H -0.8384 1.4567 0.2264
N2A N -0.7362(4) 1.4639(3) 0.1250(2)
N3A N -0.1686(4) 1.4832(3) 0.4122(2)
O1A O 0.1410(4) 2.3981(3) 0.9517(2)
O1_2 O 0.8590(4) 1.6019(3) 1.0483(2)
O1A_2 O -0.8590(4) 1.3981(3) -0.0483(2)
O2A O -0.0313(4) 2.4303(3) 0.8724(2)
O2A_2 O 0.9687(4) 1.4303(3) 0.8724(2)
O2_2 O -0.9687(4) 1.5697(3) 0.1276(2)
O4A O -0.1271(4) 1.6701(3) 0.6122(2)
O5A O 0.0267(3) 1.6624(2) 0.51709(19)
O6A O 0.2117(5) 2.1646(3) 0.6112(2)
O7A O 0.9541(4) 1.3521(3) 1.0771(2)
O7A_2 O -1.0459(4) 1.3521(3) 0.0771(2)
O8A O 0.7807(4) 1.3846(3) 0.9999(2)
O8_2 O -0.7807(4) 1.6154(3) 0.0001(2)
O9A O 0.4407(5) 0.9481(3) 1.1449(3)
O10A O 0.4088(5) 0.6686(3) 1.4605(3)
O11A O 0.5052(5) 0.8346(3) 1.5176(3)
H31A H 0.5090 0.8011 1.5589
O12A O -0.1394(4) 1.4644(3) 0.5969(2)
H32A H -0.1735 1.5204 0.6089
H33A H -0.2297 1.4047 0.5657
C39 C 0.1793(11) 1.1617(8) 0.1350(6)
H25 H 0.2177 1.2353 0.1472
C40 C 0.1022(10) 1.1297(6) 0.0613(6)
H26 H 0.0895 1.1810 0.0258
C41 C 0.0424(7) 1.0200(6) 0.0394(4)
C42 C 0.0697(9) 0.9512(7) 0.0976(6)
H27 H 0.0340 0.8772 0.0870
C43 C 0.1472(10) 0.9898(8) 0.1696(6)
H28 H 0.1621 0.9404 0.2063
N1 N 0.2033(8) 1.0948(7) 0.1906(5)
C39A C -0.1793(11) 0.8383(8) -0.1350(6)
H25A H -0.2177 0.7647 -0.1472
C40A C -0.1022(10) 0.8703(6) -0.0613(6)
H26A H -0.0895 0.8190 -0.0258
C41A C -0.0424(7) 0.9800(6) -0.0394(4)
C42A C -0.0697(9) 1.0488(7) -0.0976(6)
H27A H -0.0340 1.1228 -0.0870
C43A C -0.1472(10) 1.0102(8) -0.1696(6)
H28A H -0.1621 1.0596 -0.2063
N1A N -0.2033(8) 0.9052(7) -0.1906(5)
O3 O 0.3572(5) 1.2275(4) -0.6469(3)
H29 H 0.3227 1.2016 -0.7094
H30 H 0.3137 1.1605 -0.6364
loop_
_geom_bond_atom_site_label_1
_geom_bond_atom_site_label_2
_geom_bond_site_symmetry_1
_geom_bond_site_symmetry_2
Ni1 N2 1_555 1_555
Ni2 N3 1_555 1_555
C1 H1 1_555 1_555
C2 C1 1_555 1_555
H2 C2 1_555 1_555
C3 C2 1_555 1_555
C4 C3 1_555 1_555
H3 C4 1_555 1_555
C5 C4 1_555 1_555
H4 C5 1_555 1_555
C6 C1 1_555 1_555
C7 C6 1_555 1_555
C8 C9 1_555 1_555
C9 H5 1_555 1_555
C10 C9 1_555 1_555
H6 C10 1_555 1_555
C11 C10 1_555 1_555
C12 C11 1_555 1_555
H7 C12 1_555 1_555
C13 C8 1_555 1_555
H8 C13 1_555 1_555
C14 C11 1_555 1_555
C15 C16 1_555 1_555
C16 H9 1_555 1_555
C17 C16 1_555 1_555
H10 C17 1_555 1_555
C18 C17 1_555 1_555
C19 C18 1_555 1_555
H11 C19 1_555 1_555
C20 C15 1_555 1_555
H12 C20 1_555 1_555
C21 C15 1_555 1_555
C22 C23 1_555 1_555
C23 H13 1_555 1_555
C24 C23 1_555 1_555
H14 C24 1_555 1_555
C25 C24 1_555 1_555
C26 C25 1_555 1_555
H15 C26 1_555 1_555
C27 C22 1_555 1_555
H16 C27 1_555 1_555
C28 C22 1_555 1_555
C29 H17 1_555 1_555
C30 C29 1_555 1_555
H18 C30 1_555 1_555
C31 C30 1_555 1_555
C32 C31 1_555 1_555
H19 C32 1_555 1_555
C33 C32 1_555 1_555
H20 C33 1_555 1_555
C34 H21 1_555 1_555
C35 C34 1_555 1_555
H22 C35 1_555 1_555
C36 C31 1_555 1_555
C37 C36 1_555 1_555
H23 C37 1_555 1_555
C38 C37 1_555 1_555
H24 C38 1_555 1_555
C39 H25 1_555 1_555
C40 C39 1_555 1_555
H26 C40 1_555 1_555
C41 C40 1_555 1_555
C42 C41 1_555 1_555
H27 C42 1_555 1_555
C43 C42 1_555 1_555
H28 C43 1_555 1_555
N1 C39 1_555 1_555
N2 C34 1_555 1_555
N3 C29 1_555 1_555
O1 C21 1_555 1_555
O2 C21 1_555 1_555
O3 H29 1_555 1_555
H30 O3 1_555 1_555
O4 C28 1_555 1_555
O5 Ni2 1_555 1_555
O6 C18 1_555 1_555
O7 Ni1 1_555 1_555
O8 C14 1_555 1_555
O9 C3 1_555 1_555
O10 C7 1_555 1_555
O11 C7 1_555 1_555
H31 O11 1_555 1_555
O12 Ni2 1_555 1_555
H32 O12 1_555 1_555
H33 O12 1_555 1_555
Ni1A Ni1_4 1_555 1_555
Ni1A_2 Ni1 1_555 1_555
Ni1_2 O1 1_555 1_555
Ni1A_3 O2 1_555 1_555
Ni1A_4 Ni1_3 1_555 1_555
Ni1_3 O2A 1_555 1_555
C1A H1A 1_555 1_555
C2A C1A 1_555 1_555
H2A C2A 1_555 1_555
C3A C2A 1_555 1_555
C4A C3A 1_555 1_555
H3A C4A 1_555 1_555
C5A C4A 1_555 1_555
H4A C5A 1_555 1_555
C6A C1A 1_555 1_555
C7A C6A 1_555 1_555
C8A C9A 1_555 1_555
C9A H5A 1_555 1_555
C10A C9A 1_555 1_555
H6A C10A 1_555 1_555
C11A C10A 1_555 1_555
C12A C11A 1_555 1_555
H7A C12A 1_555 1_555
C13A C8A 1_555 1_555
H8A C13A 1_555 1_555
C14A C11A 1_555 1_555
C15A C16A 1_555 1_555
C16A H9A 1_555 1_555
C17A C16A 1_555 1_555
H10A C17A 1_555 1_555
C18A C17A 1_555 1_555
C19A C18A 1_555 1_555
H11A C19A 1_555 1_555
C20A C15A 1_555 1_555
H12A C20A 1_555 1_555
C21A C15A 1_555 1_555
C22A C23A 1_555 1_555
C23A H13A 1_555 1_555
C24A C23A 1_555 1_555
H14A C24A 1_555 1_555
C25A C24A 1_555 1_555
C26A C25A 1_555 1_555
H15A C26A 1_555 1_555
C27A C22A 1_555 1_555
H16A C27A 1_555 1_555
C28A C22A 1_555 1_555
C29A H17A 1_555 1_555
C30A C29A 1_555 1_555
H18A C30A 1_555 1_555
C31A C30A 1_555 1_555
C32A C31A 1_555 1_555
H19A C32A 1_555 1_555
C33A C32A 1_555 1_555
H20A C33A 1_555 1_555
C34A H21A 1_555 1_555
C35A C34A 1_555 1_555
H22A C35A 1_555 1_555
C36A C31A 1_555 1_555
C37A C36A 1_555 1_555
H23A C37A 1_555 1_555
C38A C37A 1_555 1_555
H24A C38A 1_555 1_555
C39A H25A 1_555 1_555
C40A C39A 1_555 1_555
H26A C40A 1_555 1_555
C41A C41 1_555 1_555
C42A C41A 1_555 1_555
H27A C42A 1_555 1_555
C43A C42A 1_555 1_555
H28A C43A 1_555 1_555
N1A C39A 1_555 1_555
N2A Ni1A 1_555 1_555
N3A Ni2 1_555 1_555
O1A Ni1A_4 1_555 1_555
O1_2 Ni1 1_555 1_555
O1A_2 Ni1A 1_555 1_555
O2A C21A 1_555 1_555
O2A_2 Ni1 1_555 1_555
O2_2 Ni1A 1_555 1_555
O4A C28A 1_555 1_555
O5A Ni2 1_555 1_555
O6A C18A 1_555 1_555
O7A Ni1A_2 1_555 1_555
O7A_2 Ni1A 1_555 1_555
O8A Ni1 1_555 1_555
O8_2 Ni1A 1_555 1_555
O9A C3A 1_555 1_555
O10A C7A 1_555 1_555
O11A C7A 1_555 1_555
H31A O11A 1_555 1_555
O12A Ni2 1_555 1_555
H32A O12A 1_555 1_555
H33A O12A 1_555 1_555
C5 C6 1_555 1_555
C8 O9 1_555 1_555
C12 C13 1_555 1_555
C14 O7 1_555 1_555
C19 C20 1_555 1_555
C25 O6 1_555 1_555
C26 C27 1_555 1_555
C28 O5 1_555 1_555
C33 N3 1_555 1_555
C35 C36 1_555 1_555
C38 N2 1_555 1_555
C43 N1 1_555 1_555
O8 Ni1A_2 1_555 1_555
Ni1_2 Ni1A_3 1_555 1_555
C5A C6A 1_555 1_555
C8A O9A 1_555 1_555
C12A C13A 1_555 1_555
C14A O7A 1_555 1_555
C14A O8A 1_555 1_555
C19A C20A 1_555 1_555
C21A O1A 1_555 1_555
C25A O6A 1_555 1_555
C26A C27A 1_555 1_555
C28A O5A 1_555 1_555
C29A N3A 1_555 1_555
C33A N3A 1_555 1_555
C34A N2A 1_555 1_555
C35A C36A 1_555 1_555
C38A N2A 1_555 1_555
C40A C41A 1_555 1_555
C43A N1A 1_555 1_555

#END
