
#######################################################################
#
#                 Cambridge Crystallographic Data Centre
#                                CCDC 
#
#######################################################################
#
# If this CIF has been generated from an entry in the Cambridge 
# Structural Database, then it will include bibliographic, chemical, 
# crystal, experimental, refinement or atomic coordinate data resulting 
# from the CCDC's data processing and validation procedures.
#
#######################################################################

data_KAVLAV01
_symmetry_cell_setting           triclinic
_symmetry_space_group_name_H-M   'P -1'
_symmetry_Int_Tables_number      2
_space_group_name_Hall           '-P 1'
loop_
_symmetry_equiv_pos_site_id
_symmetry_equiv_pos_as_xyz
1 x,y,z
2 -x,-y,-z
_cell_length_a                   12.375(5)
_cell_length_b                   14.886(6)
_cell_length_c                   15.858(7)
_cell_angle_alpha                88.144(7)
_cell_angle_beta                 73.229(7)
_cell_angle_gamma                69.927(7)
_cell_volume                     2619.89
loop_
_atom_site_label
_atom_site_type_symbol
_atom_site_fract_x
_atom_site_fract_y
_atom_site_fract_z
Ni1 Ni -0.14976(8) 0.79290(6) 0.88598(5)
Ni2 Ni 0.82179(7) 0.43720(5) 0.52568(5)
O1 O -0.2074(4) 0.6827(3) 0.9130(3)
O2 O -0.2292(5) 0.6375(4) 0.7890(3)
O3 O -0.4040(5) 0.3510(3) 1.0511(4)
O4 O -0.1318(5) -0.0747(3) 0.8808(3)
O5 O -0.3059(4) -0.0846(3) 0.9457(3)
O6 O -0.1848(5) 0.8011(3) 0.7647(3)
H1 H -0.1588 0.7509 0.7302
H2 H -0.2245 0.8547 0.7495
O7 O 0.7493(4) 0.5442(3) 0.4391(3)
O8 O 0.8286(4) 0.5762(3) 0.5353(3)
O9 O 0.6766(8) 0.9760(4) 0.3662(6)
O10 O 0.7995(4) 1.3175(3) 0.4883(3)
O11 O 0.9801(5) 1.2315(4) 0.3988(4)
O12 O 0.9847(4) 0.3965(3) 0.4322(3)
H3 H 1.0049 0.4370 0.3982
H4 H 1.0326 0.3389 0.4271
N1 N 0.0286(5) 0.7194(4) 0.8225(4)
N2 N 0.6475(5) 0.4865(4) 0.6079(3)
N3 N -0.1052(5) 0.7687(3) 1.0073(3)
N4 N 0.1068(5) 0.6205(3) 1.3742(3)
C1 C -0.2359(6) 0.6310(5) 0.8670(4)
C2 C -0.2793(6) 0.5548(4) 0.9147(4)
C3 C -0.2998(7) 0.5520(5) 1.0049(5)
H5 H -0.2867 0.5972 1.0360
C4 C -0.3400(8) 0.4819(5) 1.0498(5)
H6 H -0.3546 0.4802 1.1106
C5 C -0.3575(7) 0.4159(5) 1.0026(5)
C6 C -0.3362(7) 0.4169(5) 0.9129(5)
H7 H -0.3484 0.3713 0.8816
C7 C -0.2967(6) 0.4864(5) 0.8699(5)
H8 H -0.2814 0.4870 0.8089
C8 C -0.3604(8) 0.2557(5) 1.0135(5)
C9 C -0.2430(7) 0.2096(5) 0.9767(5)
H9 H -0.1878 0.2402 0.9726
C10 C -0.2048(7) 0.1148(5) 0.9444(5)
H10 H -0.1234 0.0825 0.9166
C11 C -0.2847(6) 0.0680(5) 0.9529(5)
C12 C -0.4054(7) 0.1169(5) 0.9910(6)
H11 H -0.4605 0.0859 0.9963
C13 C -0.4454(7) 0.2132(5) 1.0219(6)
H12 H -0.5269 0.2474 1.0472
C14 C -0.2404(7) -0.0358(4) 0.9242(4)
C15 C -0.0549(7) 0.6772(5) 1.0229(5)
H13 H -0.0476 0.6295 0.9830
C16 C -0.0141(7) 0.6502(5) 1.0933(5)
H14 H 0.0235 0.5855 1.0993
C17 C -0.0278(6) 0.7182(4) 1.1563(4)
C18 C -0.0768(7) 0.8113(5) 1.1402(4)
H15 H -0.0851 0.8602 1.1792
C19 C -0.1141(7) 0.8332(5) 1.0662(5)
H16 H -0.1478 0.8976 1.0571
C20 C 0.0138(6) 0.6876(4) 1.2339(4)
C21 C 0.0021(6) 0.6064(5) 1.2735(4)
H17 H -0.0366 0.5717 1.2534
C22 C 0.0481(7) 0.5769(5) 1.3433(4)
H18 H 0.0371 0.5229 1.3701
C23 C 0.1190(7) 0.7000(5) 1.3365(5)
H19 H 0.1593 0.7323 1.3577
C24 C 0.0737(7) 0.7353(5) 1.2676(5)
H20 H 0.0831 0.7909 1.2434
C25 C 0.0709(7) 0.6361(6) 0.7758(5)
H21 H 0.0159 0.6090 0.7697
C26 C 0.1904(6) 0.5876(6) 0.7361(5)
H22 H 0.2147 0.5283 0.7057
C27 C 0.2752(6) 0.6262(5) 0.7409(4)
C28 C 0.2318(7) 0.7139(5) 0.7872(5)
H23 H 0.2847 0.7437 0.7923
C29 C 0.1114(7) 0.7571(5) 0.8257(5)
H24 H 0.0849 0.8166 0.8563
C30 C 0.4039(6) 0.5766(5) 0.6968(4)
C31 C 0.4912(7) 0.6021(5) 0.7169(5)
H25 H 0.4694 0.6502 0.7611
C32 C 0.6104(7) 0.5564(5) 0.6717(4)
H26 H 0.6679 0.5748 0.6860
C33 C 0.5648(7) 0.4607(5) 0.5923(6)
H27 H 0.5895 0.4098 0.5505
C34 C 0.4446(7) 0.5025(5) 0.6325(5)
H28 H 0.3901 0.4813 0.6168
C35 C 0.7750(6) 0.6038(4) 0.4766(4)
C36 C 0.7468(6) 0.7039(4) 0.4523(4)
C37 C 0.6871(7) 0.7338(5) 0.3901(5)
H29 H 0.6614 0.6916 0.3659
C38 C 0.6649(8) 0.8258(5) 0.3629(6)
H30 H 0.6233 0.8458 0.3214
C39 C 0.7037(9) 0.8861(6) 0.3969(6)
C40 C 0.7675(9) 0.8575(5) 0.4573(6)
H31 H 0.7975 0.8985 0.4786
C41 C 0.7855(8) 0.7660(5) 0.4854(5)
H32 H 0.8252 0.7465 0.5281
C42 C 0.7274(13) 1.0390(6) 0.3881(9)
C43 C 0.6591(13) 1.1126(9) 0.4465(8)
H33 H 0.5798 1.1194 0.4766
C44 C 0.7075(10) 1.1794(7) 0.4622(7)
H34 H 0.6596 1.2310 0.5034
C45 C 0.8208(8) 1.1722(5) 0.4200(5)
C46 C 0.8913(9) 1.0965(6) 0.3598(7)
H35 H 0.9704 1.0899 0.3293
C47 C 0.8422(14) 1.0291(7) 0.3447(10)
H36 H 0.8895 0.9767 0.3043
C48 C 0.8737(7) 1.2454(4) 0.4374(4)
Ni1_2 Ni -0.14976(8) -0.20710(6) 0.88598(5)
Ni2_2 Ni 0.82179(7) 1.43720(5) 0.52568(5)
Ni2A Ni 0.17821(7) 0.56280(5) 1.47432(5)
O4_2 O -0.1318(5) 0.9253(3) 0.8808(3)
O5_2 O -0.3059(4) 0.9154(3) 0.9457(3)
O10_2 O 0.7995(4) 0.3175(3) 0.4883(3)
N4A N 0.8932(5) 0.3795(3) 0.6258(3)
N5 N 0.4162(11) -0.1553(7) 0.7612(8)
N6 N 0.6928(19) 0.182(2) 0.7441(13)
C49 C 0.3643(12) -0.0789(10) 0.8169(8)
H37 H 0.2897 -0.0705 0.8574
C50 C 0.4176(13) -0.0084(10) 0.8179(8)
H38 H 0.3790 0.0431 0.8603
C51 C 0.5203(11) -0.0149(8) 0.7600(7)
C52 C 0.5742(12) -0.0914(9) 0.6987(11)
H39 H 0.6459 -0.0972 0.6556
C53 C 0.5220(14) -0.1607(11) 0.7009(13)
H40 H 0.5611 -0.2130 0.6594
C54 C 0.5744(12) 0.0601(10) 0.7562(9)
C55 C 0.5064(17) 0.1528(10) 0.7970(11)
H41 H 0.4254 0.1701 0.8290
C56 C 0.570(2) 0.2186(11) 0.7864(13)
H42 H 0.5300 0.2828 0.8068
C57 C 0.772(7) 0.103(3) 0.707(3)
H43 H 0.8544 0.0882 0.6822
C58 C 0.6983(15) 0.0380(14) 0.7137(14)
H44 H 0.7400 -0.0235 0.6864
loop_
_geom_bond_atom_site_label_1
_geom_bond_atom_site_label_2
_geom_bond_site_symmetry_1
_geom_bond_site_symmetry_2
Ni1 O1 1_555 1_555
Ni2 O7 1_555 1_555
O1 C1 1_555 1_555
O2 C1 1_555 1_555
O3 C5 1_555 1_555
O4 C14 1_555 1_555
O5 C14 1_555 1_555
O6 Ni1 1_555 1_555
H1 O6 1_555 1_555
H2 O6 1_555 1_555
O7 C35 1_555 1_555
O8 Ni2 1_555 1_555
O9 C39 1_555 1_555
O10 C48 1_555 1_555
O11 C48 1_555 1_555
O12 Ni2 1_555 1_555
H3 O12 1_555 1_555
H4 O12 1_555 1_555
N1 Ni1 1_555 1_555
N2 Ni2 1_555 1_555
N3 Ni1 1_555 1_555
N4 C22 1_555 1_555
N5 C49 1_555 1_555
N6 C56 1_555 1_555
C1 C2 1_555 1_555
C2 C3 1_555 1_555
C3 H5 1_555 1_555
C4 C3 1_555 1_555
H6 C4 1_555 1_555
C5 C4 1_555 1_555
C6 C5 1_555 1_555
H7 C6 1_555 1_555
C7 C2 1_555 1_555
H8 C7 1_555 1_555
C8 O3 1_555 1_555
C9 C8 1_555 1_555
H9 C9 1_555 1_555
C10 C9 1_555 1_555
H10 C10 1_555 1_555
C11 C10 1_555 1_555
C12 C11 1_555 1_555
H11 C12 1_555 1_555
C13 C8 1_555 1_555
H12 C13 1_555 1_555
C14 C11 1_555 1_555
C15 N3 1_555 1_555
H13 C15 1_555 1_555
C16 C15 1_555 1_555
H14 C16 1_555 1_555
C17 C16 1_555 1_555
C18 C17 1_555 1_555
H15 C18 1_555 1_555
C19 N3 1_555 1_555
H16 C19 1_555 1_555
C20 C17 1_555 1_555
C21 C20 1_555 1_555
H17 C21 1_555 1_555
C22 C21 1_555 1_555
H18 C22 1_555 1_555
C23 N4 1_555 1_555
H19 C23 1_555 1_555
C24 C20 1_555 1_555
H20 C24 1_555 1_555
C25 N1 1_555 1_555
H21 C25 1_555 1_555
C26 C25 1_555 1_555
H22 C26 1_555 1_555
C27 C26 1_555 1_555
C28 C27 1_555 1_555
H23 C28 1_555 1_555
C29 N1 1_555 1_555
H24 C29 1_555 1_555
C30 C27 1_555 1_555
C31 C30 1_555 1_555
H25 C31 1_555 1_555
C32 N2 1_555 1_555
H26 C32 1_555 1_555
C33 N2 1_555 1_555
H27 C33 1_555 1_555
C34 C30 1_555 1_555
H28 C34 1_555 1_555
C35 O8 1_555 1_555
C36 C35 1_555 1_555
C37 C36 1_555 1_555
H29 C37 1_555 1_555
C38 C37 1_555 1_555
H30 C38 1_555 1_555
C39 C38 1_555 1_555
C40 C39 1_555 1_555
H31 C40 1_555 1_555
C41 C36 1_555 1_555
H32 C41 1_555 1_555
C42 O9 1_555 1_555
C43 C42 1_555 1_555
H33 C43 1_555 1_555
C44 C43 1_555 1_555
H34 C44 1_555 1_555
C45 C44 1_555 1_555
C46 C45 1_555 1_555
H35 C46 1_555 1_555
C47 C42 1_555 1_555
H36 C47 1_555 1_555
C48 C45 1_555 1_555
C49 H37 1_555 1_555
C50 C49 1_555 1_555
H38 C50 1_555 1_555
C51 C50 1_555 1_555
C52 C51 1_555 1_555
H39 C52 1_555 1_555
C53 N5 1_555 1_555
H40 C53 1_555 1_555
C54 C51 1_555 1_555
C55 C54 1_555 1_555
H41 C55 1_555 1_555
C56 C55 1_555 1_555
H42 C56 1_555 1_555
C57 N6 1_555 1_555
H43 C57 1_555 1_555
C58 C54 1_555 1_555
H44 C58 1_555 1_555
Ni1_2 O4 1_555 1_555
Ni2_2 O10 1_555 1_555
Ni2A N4 1_555 1_555
O4_2 Ni1 1_555 1_555
O5_2 Ni1 1_555 1_555
O10_2 Ni2 1_555 1_555
N4A Ni2 1_555 1_555
O5 Ni1_2 1_555 1_555
C6 C7 1_555 1_555
C12 C13 1_555 1_555
C18 C19 1_555 1_555
C23 C24 1_555 1_555
C28 C29 1_555 1_555
C31 C32 1_555 1_555
C33 C34 1_555 1_555
C40 C41 1_555 1_555
C46 C47 1_555 1_555
C52 C53 1_555 1_555
C57 C58 1_555 1_555

#END
