
#######################################################################
#
#                 Cambridge Crystallographic Data Centre
#                                CCDC 
#
#######################################################################
#
# If this CIF has been generated from an entry in the Cambridge 
# Structural Database, then it will include bibliographic, chemical, 
# crystal, experimental, refinement or atomic coordinate data resulting 
# from the CCDC's data processing and validation procedures.
#
#######################################################################

data_KAVMIE
_symmetry_cell_setting           monoclinic
_symmetry_space_group_name_H-M   'P 21/c'
_symmetry_Int_Tables_number      14
_space_group_name_Hall           '-P 2ybc'
loop_
_symmetry_equiv_pos_site_id
_symmetry_equiv_pos_as_xyz
1 x,y,z
2 -x,1/2+y,1/2-z
3 -x,-y,-z
4 x,1/2-y,1/2+z
_cell_length_a                   11.8532(2)
_cell_length_b                   21.4355(4)
_cell_length_c                   14.2472(2)
_cell_angle_alpha                90
_cell_angle_beta                 113.7515(11)
_cell_angle_gamma                90
_cell_volume                     3313.31
loop_
_atom_site_label
_atom_site_type_symbol
_atom_site_fract_x
_atom_site_fract_y
_atom_site_fract_z
Cu1 Cu -0.03620(4) 0.468151(19) 0.58219(3)
Cu2 Cu 0.15720(3) 0.422661(19) 0.82180(3)
Cu3 Cu 0.10928(3) 0.43800(2) 1.01845(3)
Cu4 Cu -0.05428(3) 0.534390(18) 0.79269(3)
O1 O 0.2432(2) 0.31774(12) 0.86339(19)
N1 N 0.3113(2) 0.42094(12) 0.79339(18)
N2 N -0.1949(3) 0.40042(19) 0.4647(3)
N3 N -0.0871(3) 0.64200(18) 0.7346(3)
N4 N 0.1478(4) 0.3307(2) 1.0629(4)
N5 N 0.0765(3) 0.45799(14) 0.5101(2)
N6 N 0.1471(3) 0.41632(15) 0.5181(2)
N7 N 0.2143(3) 0.37672(18) 0.5272(3)
N8 N -0.1415(2) 0.49428(13) 0.65543(18)
N9 N -0.2513(3) 0.48559(14) 0.6174(2)
N10 N -0.3534(3) 0.4766(2) 0.5824(3)
N11 N 0.0443(2) 0.39868(13) 0.67937(18)
N12 N 0.0249(3) 0.34499(18) 0.6525(2)
N13 N 0.0074(5) 0.2939(2) 0.6270(3)
N14 N 0.0971(2) 0.52759(13) 0.7649(2)
N15 N 0.1640(3) 0.57239(16) 0.7806(2)
N16 N 0.2276(4) 0.61420(18) 0.7918(3)
N17 N 0.0178(2) 0.41830(14) 0.86970(19)
N18 N -0.0745(3) 0.38747(14) 0.8295(2)
N19 N -0.1622(3) 0.36044(19) 0.7899(3)
N20 N 0.2438(2) 0.44712(15) 0.97011(19)
N21 N 0.3489(3) 0.4513(2) 1.0184(3)
N22 N 0.4516(4) 0.4494(4) 1.0656(4)
N23 N -0.1984(2) 0.53395(12) 0.83490(18)
N24 N -0.2911(3) 0.56312(14) 0.7818(2)
N25 N -0.3781(3) 0.58908(18) 0.7328(3)
N26 N 0.0330(2) 0.55913(14) 0.94173(19)
N27 N 0.1182(3) 0.59470(19) 0.9739(2)
N28 N 0.1985(5) 0.6271(3) 1.0054(4)
C1 C 0.3353(3) 0.46475(16) 0.7375(2)
H1 H 0.2797 0.4974 0.7119
C2 C 0.4393(3) 0.46388(17) 0.7157(3)
H2 H 0.4522 0.4948 0.6753
C3 C 0.5228(4) 0.41638(19) 0.7551(3)
H3 H 0.5939 0.4149 0.7426
C4 C 0.4995(3) 0.37076(18) 0.8137(3)
H4 H 0.5548 0.3382 0.8411
C5 C 0.3929(3) 0.37422(16) 0.8310(2)
C6 C 0.3528(3) 0.32254(16) 0.8821(2)
C7 C 0.4426(3) 0.27706(17) 0.9491(2)
C8 C 0.5597(3) 0.29447(18) 1.0181(3)
H5 H 0.5850 0.3358 1.0215
C9 C 0.6379(4) 0.2505(2) 1.0814(3)
H6 H 0.7161 0.2623 1.1277
C10 C 0.6012(4) 0.1888(2) 1.0768(3)
H7 H 0.6550 0.1593 1.1194
C11 C 0.4852(4) 0.17127(18) 1.0093(3)
H8 H 0.4606 0.1298 1.0060
C12 C 0.4057(3) 0.21511(17) 0.9468(3)
H9 H 0.3265 0.2034 0.9026
C13 C -0.2567(4) 0.3641(2) 0.4153(3)
C14 C -0.3377(6) 0.3160(3) 0.3502(4)
H10 H -0.3833 0.3327 0.2829
H11 H -0.3939 0.3025 0.3792
H12 H -0.2891 0.2812 0.3456
C15 C -0.0521(4) 0.6781(2) 0.6971(3)
C16 C -0.0052(5) 0.7252(2) 0.6455(4)
H13 H 0.0175 0.7050 0.5956
H14 H -0.0684 0.7555 0.6121
H15 H 0.0656 0.7456 0.6955
C17 C 0.2282(9) 0.3007(3) 1.0994(5)
C18 C 0.3070(12) 0.2638(5) 1.1511(8)
H16 H 0.3638 0.2565 1.1197
H17 H 0.2686 0.2251 1.1558
H18 H 0.3505 0.2806 1.2186
Cu1B Cu 0.03620(4) 0.531849(19) 0.41781(3)
Cu3B Cu -0.10928(3) 0.56200(2) 0.98155(3)
Cu4B Cu 0.05428(3) 0.465610(18) 1.20731(3)
N5B N -0.0765(3) 0.54201(14) 0.4899(2)
N23B N 0.1984(2) 0.46605(12) 1.16510(18)
N26B N -0.0330(2) 0.44087(14) 1.05827(19)
loop_
_geom_bond_atom_site_label_1
_geom_bond_atom_site_label_2
_geom_bond_site_symmetry_1
_geom_bond_site_symmetry_2
Cu1 N2 1_555 1_555
Cu2 O1 1_555 1_555
Cu3 N4 1_555 1_555
Cu4 N3 1_555 1_555
O1 C6 1_555 1_555
N1 Cu2 1_555 1_555
N2 C13 1_555 1_555
N3 C15 1_555 1_555
N4 C17 1_555 1_555
N5 Cu1 1_555 1_555
N6 N5 1_555 1_555
N7 N6 1_555 1_555
N8 Cu1 1_555 1_555
N9 N8 1_555 1_555
N10 N9 1_555 1_555
N11 Cu1 1_555 1_555
N12 N11 1_555 1_555
N13 N12 1_555 1_555
N14 Cu2 1_555 1_555
N15 N14 1_555 1_555
N16 N15 1_555 1_555
N17 Cu2 1_555 1_555
N18 N17 1_555 1_555
N19 N18 1_555 1_555
N20 Cu2 1_555 1_555
N21 N20 1_555 1_555
N22 N21 1_555 1_555
N23 Cu4 1_555 1_555
N24 N23 1_555 1_555
N25 N24 1_555 1_555
N26 Cu4 1_555 1_555
N27 N26 1_555 1_555
N28 N27 1_555 1_555
C1 N1 1_555 1_555
H1 C1 1_555 1_555
C2 C1 1_555 1_555
H2 C2 1_555 1_555
C3 C2 1_555 1_555
H3 C3 1_555 1_555
C4 C3 1_555 1_555
H4 C4 1_555 1_555
C5 N1 1_555 1_555
C6 C5 1_555 1_555
C7 C6 1_555 1_555
C8 C7 1_555 1_555
H5 C8 1_555 1_555
C9 C8 1_555 1_555
H6 C9 1_555 1_555
C10 C9 1_555 1_555
H7 C10 1_555 1_555
C11 C10 1_555 1_555
H8 C11 1_555 1_555
C12 C7 1_555 1_555
H9 C12 1_555 1_555
C13 C14 1_555 1_555
C14 H10 1_555 1_555
H11 C14 1_555 1_555
H12 C14 1_555 1_555
C15 C16 1_555 1_555
C16 H13 1_555 1_555
H14 C16 1_555 1_555
H15 C16 1_555 1_555
C17 C18 1_555 1_555
C18 H16 1_555 1_555
H17 C18 1_555 1_555
H18 C18 1_555 1_555
Cu1B N5 1_555 1_555
Cu3B N23 1_555 1_555
Cu4B N23B 1_555 1_555
N5B Cu1 1_555 1_555
N23B Cu3 1_555 1_555
N26B Cu3 1_555 1_555
Cu2 N11 1_555 1_555
Cu3 N17 1_555 1_555
Cu3 N20 1_555 1_555
Cu4 N8 1_555 1_555
Cu4 N14 1_555 1_555
N26 Cu3B 1_555 1_555
C4 C5 1_555 1_555
C11 C12 1_555 1_555
Cu1B N5B 1_555 1_555
Cu4B N26B 1_555 1_555

#END
