
#######################################################################
#
#                 Cambridge Crystallographic Data Centre
#                                CCDC 
#
#######################################################################
#
# If this CIF has been generated from an entry in the Cambridge 
# Structural Database, then it will include bibliographic, chemical, 
# crystal, experimental, refinement or atomic coordinate data resulting 
# from the CCDC's data processing and validation procedures.
#
#######################################################################

data_KAVMOK
_symmetry_cell_setting           monoclinic
_symmetry_space_group_name_H-M   'C 2/c'
_symmetry_Int_Tables_number      15
_space_group_name_Hall           '-C 2yn'
loop_
_symmetry_equiv_pos_site_id
_symmetry_equiv_pos_as_xyz
1 x,y,z
2 1/2+x,1/2+y,z
3 -x,y,1/2-z
4 1/2-x,1/2+y,1/2-z
5 -x,-y,-z
6 1/2-x,1/2-y,-z
7 x,-y,1/2+z
8 1/2+x,1/2-y,1/2+z
_cell_length_a                   22.9413(6)
_cell_length_b                   14.4026(4)
_cell_length_c                   10.7951(3)
_cell_angle_alpha                90
_cell_angle_beta                 97.2433(12)
_cell_angle_gamma                90
_cell_volume                     3538.39
loop_
_atom_site_label
_atom_site_type_symbol
_atom_site_fract_x
_atom_site_fract_y
_atom_site_fract_z
Cu1 Cu 0.343709(19) 0.03354(3) 1.16888(4)
Cu2 Cu 0.422199(18) 0.04035(3) 0.96144(4)
Cu3 Cu 0.5000 0.04119(4) 0.7500
O1 O 0.26111(12) -0.03166(16) 1.0673(2)
N1 N 0.27773(13) 0.10471(18) 1.2033(3)
N2 N 0.38566(14) 0.1148(2) 1.0750(3)
N3 N 0.37296(18) 0.1854(3) 1.0617(3)
N4 N 0.3615(3) 0.2530(3) 1.0534(5)
N5 N 0.46707(13) 0.11782(18) 0.8657(3)
N6 N 0.46064(14) 0.1913(2) 0.8574(3)
N7 N 0.45480(17) 0.2600(2) 0.8527(4)
N8 N 0.53327(13) -0.03640(18) 0.6360(3)
N9 N 0.53908(14) -0.1098(2) 0.6441(3)
N10 N 0.54425(18) -0.1785(2) 0.6479(3)
N11 N 0.34050(14) 0.0347(2) 0.8184(3)
N12 N 0.29588(17) 0.0700(2) 0.8350(3)
N13 N 0.25451(18) 0.1032(2) 0.8530(4)
N14 N 0.39990(13) -0.03857(19) 1.0919(3)
N15 N 0.38486(14) -0.1088(2) 1.0733(3)
N16 N 0.37103(19) -0.1744(2) 1.0584(4)
C1 C 0.28610(19) 0.1704(3) 1.2769(4)
H1 H 0.3241 0.1888 1.3073
C2 C 0.2397(2) 0.2148(3) 1.3124(4)
H2 H 0.2464 0.2647 1.3671
C3 C 0.1842(2) 0.1909(3) 1.2731(4)
H3 H 0.1529 0.2224 1.3011
C4 C 0.17508(19) 0.1229(3) 1.1950(4)
H4 H 0.1374 0.1033 1.1645
C5 C 0.22256(17) 0.0827(2) 1.1608(3)
C6 C 0.21662(18) 0.0076(2) 1.0811(3)
C7 C 0.15805(18) -0.0198(3) 1.0240(4)
C8 C 0.12341(19) 0.0296(3) 0.9408(4)
H5 H 0.1372 0.0869 0.9178
C9 C 0.0689(3) 0.0025(4) 0.8864(6)
H6 H 0.0471 0.0401 0.8278
C10 C 0.0493(3) -0.0734(4) 0.9171(6)
H7 H 0.0124 -0.0947 0.8832
C11 C 0.0827(2) -0.1207(3) 0.9978(7)
H8 H 0.0682 -0.1772 1.0223
C12 C 0.1377(2) -0.0955(3) 1.0514(5)
H9 H 0.1595 -0.1349 1.1077
Cu1B Cu 0.656291(19) 0.03354(3) 0.33112(4)
Cu1F Cu 0.343709(19) -0.03354(3) 0.66888(4)
Cu1D Cu 0.656291(19) -0.03354(3) 0.83112(4)
Cu2B Cu 0.577801(18) 0.04035(3) 0.53856(4)
O1B O 0.73889(12) -0.03166(16) 0.4327(2)
N1B N 0.72227(13) 0.10471(18) 0.2967(3)
N2B N 0.61434(14) 0.1148(2) 0.4250(3)
N3B N 0.62704(18) 0.1854(3) 0.4383(3)
N4B N 0.6385(3) 0.2530(3) 0.4466(5)
N5B N 0.53293(13) 0.11782(18) 0.6343(3)
N6B N 0.53936(14) 0.1913(2) 0.6426(3)
N7B N 0.54520(17) 0.2600(2) 0.6473(4)
N8B N 0.46673(13) -0.03640(18) 0.8640(3)
N9B N 0.46092(14) -0.1098(2) 0.8559(3)
N10B N 0.45575(18) -0.1785(2) 0.8521(3)
N11B N 0.65950(14) 0.0347(2) 0.6816(3)
N11F N 0.34050(14) -0.0347(2) 1.3184(3)
N11D N 0.65950(14) -0.0347(2) 0.1816(3)
N12B N 0.70412(17) 0.0700(2) 0.6650(3)
N13B N 0.74549(18) 0.1032(2) 0.6470(4)
N14B N 0.60010(13) -0.03857(19) 0.4081(3)
N15B N 0.61514(14) -0.1088(2) 0.4267(3)
N16B N 0.62897(19) -0.1744(2) 0.4416(4)
C1B C 0.71390(19) 0.1704(3) 0.2231(4)
H1B H 0.6759 0.1888 0.1927
C2B C 0.7603(2) 0.2148(3) 0.1876(4)
H2B H 0.7536 0.2647 0.1329
C3B C 0.8158(2) 0.1909(3) 0.2269(4)
H3B H 0.8471 0.2224 0.1989
C4B C 0.82492(19) 0.1229(3) 0.3050(4)
H4B H 0.8626 0.1033 0.3355
C5B C 0.77744(17) 0.0827(2) 0.3392(3)
C6B C 0.78338(18) 0.0076(2) 0.4189(3)
C7B C 0.84195(18) -0.0198(3) 0.4760(4)
C8B C 0.87659(19) 0.0296(3) 0.5592(4)
H5B H 0.8628 0.0869 0.5822
C9B C 0.9311(3) 0.0025(4) 0.6136(6)
H6B H 0.9529 0.0401 0.6722
C10B C 0.9507(3) -0.0734(4) 0.5829(6)
H7B H 0.9876 -0.0947 0.6168
C11B C 0.9173(2) -0.1207(3) 0.5022(7)
H8B H 0.9318 -0.1772 0.4777
C12B C 0.8623(2) -0.0955(3) 0.4486(5)
H9B H 0.8405 -0.1349 0.3923
loop_
_geom_bond_atom_site_label_1
_geom_bond_atom_site_label_2
_geom_bond_site_symmetry_1
_geom_bond_site_symmetry_2
Cu1 O1 1_555 1_555
Cu2 N2 1_555 1_555
Cu3 N5 1_555 1_555
O1 C6 1_555 1_555
N1 Cu1 1_555 1_555
N2 Cu1 1_555 1_555
N3 N2 1_555 1_555
N4 N3 1_555 1_555
N5 Cu2 1_555 1_555
N6 N5 1_555 1_555
N7 N6 1_555 1_555
N8 Cu3 1_555 1_555
N9 N8 1_555 1_555
N10 N9 1_555 1_555
N11 Cu2 1_555 1_555
N12 N11 1_555 1_555
N13 N12 1_555 1_555
N14 Cu1 1_555 1_555
N15 N14 1_555 1_555
N16 N15 1_555 1_555
C1 N1 1_555 1_555
H1 C1 1_555 1_555
C2 C1 1_555 1_555
H2 C2 1_555 1_555
C3 C2 1_555 1_555
H3 C3 1_555 1_555
C4 C3 1_555 1_555
H4 C4 1_555 1_555
C5 N1 1_555 1_555
C6 C5 1_555 1_555
C7 C6 1_555 1_555
C8 C7 1_555 1_555
H5 C8 1_555 1_555
C9 C8 1_555 1_555
H6 C9 1_555 1_555
C10 C9 1_555 1_555
H7 C10 1_555 1_555
C11 C10 1_555 1_555
H8 C11 1_555 1_555
C12 C7 1_555 1_555
H9 C12 1_555 1_555
Cu1B O1B 1_555 1_555
Cu1F N11 1_555 1_555
Cu1D N11B 1_555 1_555
Cu2B N8 1_555 1_555
O1B C6B 1_555 1_555
N1B Cu1B 1_555 1_555
N2B Cu1B 1_555 1_555
N3B N2B 1_555 1_555
N4B N3B 1_555 1_555
N5B Cu3 1_555 1_555
N6B N5B 1_555 1_555
N7B N6B 1_555 1_555
N8B Cu2 1_555 1_555
N9B N8B 1_555 1_555
N10B N9B 1_555 1_555
N11B Cu2B 1_555 1_555
N11F Cu1 1_555 1_555
N11D Cu1B 1_555 1_555
N12B N11B 1_555 1_555
N13B N12B 1_555 1_555
N14B Cu1B 1_555 1_555
N15B N14B 1_555 1_555
N16B N15B 1_555 1_555
C1B N1B 1_555 1_555
H1B C1B 1_555 1_555
C2B C1B 1_555 1_555
H2B C2B 1_555 1_555
C3B C2B 1_555 1_555
H3B C3B 1_555 1_555
C4B C3B 1_555 1_555
H4B C4B 1_555 1_555
C5B N1B 1_555 1_555
C6B C5B 1_555 1_555
C7B C6B 1_555 1_555
C8B C7B 1_555 1_555
H5B C8B 1_555 1_555
C9B C8B 1_555 1_555
H6B C9B 1_555 1_555
C10B C9B 1_555 1_555
H7B C10B 1_555 1_555
C11B C10B 1_555 1_555
H8B C11B 1_555 1_555
C12B C7B 1_555 1_555
H9B C12B 1_555 1_555
Cu2 N14 1_555 1_555
Cu3 N8B 1_555 1_555
C4 C5 1_555 1_555
C11 C12 1_555 1_555
Cu2B N2B 1_555 1_555
Cu2B N5B 1_555 1_555
Cu2B N14B 1_555 1_555
C4B C5B 1_555 1_555
C11B C12B 1_555 1_555

#END
