
#######################################################################
#
#                 Cambridge Crystallographic Data Centre
#                                CCDC 
#
#######################################################################
#
# If this CIF has been generated from an entry in the Cambridge 
# Structural Database, then it will include bibliographic, chemical, 
# crystal, experimental, refinement or atomic coordinate data resulting 
# from the CCDC's data processing and validation procedures.
#
#######################################################################

data_KAVRUW
_symmetry_cell_setting           monoclinic
_symmetry_space_group_name_H-M   'P 21/c'
_symmetry_Int_Tables_number      14
_space_group_name_Hall           '-P 2ybc'
loop_
_symmetry_equiv_pos_site_id
_symmetry_equiv_pos_as_xyz
1 x,y,z
2 -x,1/2+y,1/2-z
3 -x,-y,-z
4 x,1/2-y,1/2+z
_cell_length_a                   10.099(2)
_cell_length_b                   31.640(7)
_cell_length_c                   12.450(3)
_cell_angle_alpha                90
_cell_angle_beta                 95.854(2)
_cell_angle_gamma                90
_cell_volume                     3957.43
loop_
_atom_site_label
_atom_site_type_symbol
_atom_site_fract_x
_atom_site_fract_y
_atom_site_fract_z
Eu1 Eu 0.98835(2) 0.233348(7) 0.16330(2)
Eu2 Eu 1.38191(2) 0.226295(7) 0.14803(2)
Eu3 Eu 1.19017(2) 0.206310(7) 0.42791(2)
O1 O 0.7849(4) 0.27741(12) 0.1619(4)
H1 H 0.765(6) 0.3032(8) 0.177(6)
H2 H 0.718(4) 0.2613(15) 0.151(6)
O2 O 0.9756(3) 0.24200(11) 0.3562(3)
O3 O 0.8701(4) 0.26818(14) 0.4887(3)
O4 O 1.3751(4) 0.16599(12) 0.0122(3)
H3 H 1.379(6) 0.1459(14) 0.059(4)
H4 H 1.310(4) 0.1638(18) -0.037(3)
O6 O 1.2158(3) 0.24387(10) 0.2663(3)
O7 O 1.4038(3) 0.25688(10) -0.0314(3)
O8 O 1.5111(4) 0.27383(12) -0.1741(3)
O9 O 1.1656(3) 0.23531(9) 0.0449(3)
O10 O 1.0320(3) 0.33009(11) 0.0189(3)
O11 O 1.0315(3) 0.30863(10) 0.1905(3)
O12 O 0.8463(4) 0.36254(11) 0.2694(3)
O13 O 0.8636(5) 0.58213(12) 0.4504(3)
O14 O 0.9677(4) 0.65947(10) 0.4034(3)
O15 O 0.9275(3) 0.67037(10) 0.2286(3)
O16 O 1.5011(4) 0.29374(11) 0.1798(4)
O17 O 1.3005(4) 0.31149(12) 0.1090(3)
O18 O 1.6261(4) 0.35557(12) 0.0433(4)
O19 O 1.5152(5) 0.59017(12) 0.3636(4)
O20 O 1.6764(4) 0.64823(11) 0.1069(3)
O21 O 1.6367(4) 0.65576(11) 0.2785(3)
O22 O 0.6060(3) 0.20955(12) 0.1263(3)
O23 O 0.8048(3) 0.18684(11) 0.1947(3)
C1 C 0.8750(6) 0.2544(2) 0.3976(5)
H5 H 0.7946 0.2531 0.3541
C2 C 1.5071(5) 0.26000(18) -0.0819(4)
H6 H 1.5871 0.2509 -0.0457
C3 C 0.6835(5) 0.18332(17) 0.1730(5)
H7 H 0.6457 0.1582 0.1939
C4 C 0.9443(5) 0.64538(15) 0.3096(4)
C5 C 0.9497(5) 0.59947(15) 0.2864(4)
C6 C 0.9118(6) 0.56799(16) 0.3583(4)
C7 C 0.9217(6) 0.52610(16) 0.3320(5)
H8 H 0.8963 0.5058 0.3798
C8 C 0.9687(6) 0.51291(16) 0.2356(4)
C9 C 1.0038(6) 0.54416(16) 0.1649(4)
H9 H 1.0346 0.5365 0.0997
C10 C 0.9933(6) 0.58634(16) 0.1907(5)
H10 H 1.0164 0.6066 0.1417
C11 C 0.9811(5) 0.46744(15) 0.2075(4)
C12 C 0.9058(6) 0.43630(15) 0.2539(4)
H11 H 0.8469 0.4442 0.3030
C13 C 0.9179(5) 0.39401(16) 0.2278(4)
C14 C 1.0028(5) 0.38195(15) 0.1504(4)
C15 C 1.0749(6) 0.41289(16) 0.1048(5)
H12 H 1.1309 0.4053 0.0532
C16 C 1.0665(6) 0.45480(17) 0.1332(5)
H13 H 1.1186 0.4748 0.1024
C17 C 1.0236(5) 0.33684(15) 0.1176(4)
C18 C 0.7689(7) 0.3728(2) 0.3570(5)
H14 H 0.7246 0.3479 0.3788
H15 H 0.7039 0.3939 0.3335
H16 H 0.8266 0.3835 0.4168
C19 C 0.8107(7) 0.55273(19) 0.5201(5)
H17 H 0.7808 0.5674 0.5807
H18 H 0.8782 0.5327 0.5452
H19 H 0.7370 0.5381 0.4817
C20 C 1.6414(5) 0.63366(16) 0.1937(4)
C21 C 1.6090(5) 0.58768(16) 0.1963(4)
C22 C 1.5469(6) 0.56655(16) 0.2768(5)
C23 C 1.5213(6) 0.52362(16) 0.2698(5)
H20 H 1.4798 0.5106 0.3244
C24 C 1.5557(5) 0.49917(16) 0.1835(5)
C25 C 1.6165(6) 0.52008(17) 0.1031(5)
H21 H 1.6403 0.5050 0.0440
C26 C 1.6418(6) 0.56306(16) 0.1102(5)
H22 H 1.6824 0.5760 0.0550
C27 C 1.5227(5) 0.45332(16) 0.1745(5)
C28 C 1.5930(5) 0.42578(16) 0.1132(5)
H23 H 1.6636 0.4363 0.0788
C29 C 1.5607(5) 0.38349(16) 0.1024(5)
C30 C 1.4556(5) 0.36703(16) 0.1553(4)
C31 C 1.3862(6) 0.39409(17) 0.2159(5)
H24 H 1.3161 0.3835 0.2509
C32 C 1.4180(6) 0.43665(17) 0.2260(5)
H25 H 1.3694 0.4541 0.2674
C33 C 1.4172(5) 0.32105(16) 0.1468(4)
C34 C 1.7038(6) 0.3709(2) -0.0361(5)
H26 H 1.7430 0.3476 -0.0706
H27 H 1.7728 0.3889 -0.0028
H28 H 1.6484 0.3868 -0.0889
C35 C 1.4272(9) 0.5731(3) 0.4346(7)
H29 H 1.4145 0.5933 0.4902
H30 H 1.4647 0.5477 0.4668
H31 H 1.3431 0.5669 0.3947
Eu1C Eu 0.98835(2) 0.266652(7) 0.66330(2)
Eu1A Eu 1.01165(2) 0.733348(7) 0.33670(2)
Eu2C Eu 1.38191(2) 0.273705(7) -0.35197(2)
Eu2A Eu 1.61809(2) 0.726295(7) 0.35197(2)
Eu2_2 Eu 0.38191(2) 0.226295(7) 0.14803(2)
Eu3C Eu 1.19017(2) 0.293690(7) -0.07209(2)
Eu3A Eu 0.80983(2) 0.706310(7) 0.07209(2)
Eu3A_2 Eu 1.80983(2) 0.706310(7) 0.07209(2)
O3C O 0.8701(4) 0.23182(14) -0.0113(3)
O7C O 1.4038(3) 0.24312(10) 0.4686(3)
O8C O 1.5111(4) 0.22617(12) 0.3259(3)
O9C O 1.1656(3) 0.26469(9) 0.5449(3)
O10C O 1.0320(3) 0.16991(11) 0.5189(3)
O14A O 1.0323(4) 0.15947(10) 0.0966(3)
O15A O 1.0725(3) 0.17037(10) 0.2714(3)
O17C O 1.3005(4) 0.18851(12) 0.6090(3)
O20A O 1.3236(4) 0.14823(11) 0.3931(3)
O21A O 1.3633(4) 0.15576(11) 0.2215(3)
O22_2 O 1.6060(3) 0.20955(12) 0.1263(3)
O5 O 1.1303(4) 0.16027(13) -0.1059(3)
loop_
_geom_bond_atom_site_label_1
_geom_bond_atom_site_label_2
_geom_bond_site_symmetry_1
_geom_bond_site_symmetry_2
Eu1 O1 1_555 1_555
Eu2 O4 1_555 1_555
Eu3 O2 1_555 1_555
O1 H1 1_555 1_555
H2 O1 1_555 1_555
O2 Eu1 1_555 1_555
O3 C1 1_555 1_555
O4 H3 1_555 1_555
H4 O4 1_555 1_555
O6 Eu1 1_555 1_555
O7 Eu2 1_555 1_555
O8 C2 1_555 1_555
O9 Eu1 1_555 1_555
O10 C17 1_555 1_555
O11 Eu1 1_555 1_555
O12 C13 1_555 1_555
O13 C6 1_555 1_555
O14 C4 1_555 1_555
O15 C4 1_555 1_555
O16 Eu2 1_555 1_555
O17 C33 1_555 1_555
O18 C29 1_555 1_555
O19 C22 1_555 1_555
O20 C20 1_555 1_555
O21 C20 1_555 1_555
O22 C3 1_555 1_555
O23 Eu1 1_555 1_555
C1 O2 1_555 1_555
H5 C1 1_555 1_555
C2 O7 1_555 1_555
H6 C2 1_555 1_555
C3 O23 1_555 1_555
H7 C3 1_555 1_555
C4 C5 1_555 1_555
C5 C6 1_555 1_555
C6 C7 1_555 1_555
C7 H8 1_555 1_555
C8 C7 1_555 1_555
C9 C8 1_555 1_555
H9 C9 1_555 1_555
C10 C5 1_555 1_555
H10 C10 1_555 1_555
C11 C8 1_555 1_555
C12 C11 1_555 1_555
H11 C12 1_555 1_555
C13 C12 1_555 1_555
C14 C13 1_555 1_555
C15 C14 1_555 1_555
H12 C15 1_555 1_555
C16 C11 1_555 1_555
H13 C16 1_555 1_555
C17 O11 1_555 1_555
C18 O12 1_555 1_555
H14 C18 1_555 1_555
H15 C18 1_555 1_555
H16 C18 1_555 1_555
C19 O13 1_555 1_555
H17 C19 1_555 1_555
H18 C19 1_555 1_555
H19 C19 1_555 1_555
C20 C21 1_555 1_555
C21 C22 1_555 1_555
C22 C23 1_555 1_555
C23 H20 1_555 1_555
C24 C23 1_555 1_555
C25 C24 1_555 1_555
H21 C25 1_555 1_555
C26 C21 1_555 1_555
H22 C26 1_555 1_555
C27 C24 1_555 1_555
C28 C27 1_555 1_555
H23 C28 1_555 1_555
C29 C28 1_555 1_555
C30 C29 1_555 1_555
C31 C30 1_555 1_555
H24 C31 1_555 1_555
C32 C27 1_555 1_555
H25 C32 1_555 1_555
C33 O16 1_555 1_555
C34 O18 1_555 1_555
H26 C34 1_555 1_555
H27 C34 1_555 1_555
H28 C34 1_555 1_555
C35 O19 1_555 1_555
H29 C35 1_555 1_555
H30 C35 1_555 1_555
H31 C35 1_555 1_555
Eu1C O3 1_555 1_555
Eu1A O14 1_555 1_555
Eu2C O8 1_555 1_555
Eu2A O21 1_555 1_555
Eu2_2 O22 1_555 1_555
Eu3C O7 1_555 1_555
Eu3A O15 1_555 1_555
Eu3A_2 O20 1_555 1_555
O3C Eu1 1_555 1_555
O7C Eu3 1_555 1_555
O8C Eu2 1_555 1_555
O9C Eu3 1_555 1_555
O10C Eu3 1_555 1_555
O14A Eu1 1_555 1_555
O15A Eu1 1_555 1_555
O17C Eu3 1_555 1_555
O20A Eu3 1_555 1_555
O21A Eu2 1_555 1_555
O22_2 Eu2 1_555 1_555
Eu2 O6 1_555 1_555
Eu2 O9 1_555 1_555
Eu3 O6 1_555 1_555
Eu3 O15A 1_555 1_555
O9 Eu3C 1_555 1_555
O10 Eu3C 1_555 1_555
O15 Eu1A 1_555 1_555
O17 Eu3C 1_555 1_555
C9 C10 1_555 1_555
C14 C17 1_555 1_555
C15 C16 1_555 1_555
C25 C26 1_555 1_555
C30 C33 1_555 1_555
C31 C32 1_555 1_555
Eu1C O9C 1_555 1_555

#END
