
#######################################################################
#
#                 Cambridge Crystallographic Data Centre
#                                CCDC 
#
#######################################################################
#
# If this CIF has been generated from an entry in the Cambridge 
# Structural Database, then it will include bibliographic, chemical, 
# crystal, experimental, refinement or atomic coordinate data resulting 
# from the CCDC's data processing and validation procedures.
#
#######################################################################

data_KAVSIK
_symmetry_cell_setting           orthorhombic
_symmetry_space_group_name_H-M   'P n a 21'
_symmetry_Int_Tables_number      33
_space_group_name_Hall           'P 2c -2n'
loop_
_symmetry_equiv_pos_site_id
_symmetry_equiv_pos_as_xyz
1 x,y,z
2 -x,-y,1/2+z
3 1/2+x,1/2-y,z
4 1/2-x,1/2+y,1/2+z
_cell_length_a                   9.854
_cell_length_b                   9.109
_cell_length_c                   20.7412(13)
_cell_angle_alpha                90
_cell_angle_beta                 90
_cell_angle_gamma                90
_cell_volume                     1861.73
loop_
_atom_site_label
_atom_site_type_symbol
_atom_site_fract_x
_atom_site_fract_y
_atom_site_fract_z
P1 P -0.3217(2) 0.9303(2) 0.42874(9)
P2 P -0.3769(2) 0.7385(2) 0.75026(9)
P3 P -0.2472(2) 0.7693(2) 0.22990(10)
P4 P -0.0810(2) 0.9282(2) -0.08077(9)
O1 O -0.4167(6) 0.9342(6) 0.3724(3)
O2 O -0.4327(5) 0.8828(6) 0.7773(2)
O3 O -0.2681(5) 0.6815(6) 0.7992(2)
O4 O -0.3431(6) 0.8998(6) 0.2245(3)
O5 O -0.2516(6) 1.0729(5) 0.4444(3)
O6 O -0.2352(6) 0.9173(6) -0.0933(3)
O7 O -0.4867(6) 0.6237(6) 0.7397(3)
O8 O -0.1282(6) 0.8003(6) 0.2753(3)
O9 O -0.2084(6) 0.8096(6) 0.4182(3)
H1 H -0.1376 0.8493 0.4069
O10 O -0.0211(6) 1.0583(5) -0.1183(3)
O11 O -0.3130(6) 0.6281(6) 0.2553(3)
O12 O -0.0121(6) 0.7828(6) -0.0974(3)
C1 C -0.4116(8) 0.8705(9) 0.4996(4)
H2 H -0.4799 0.9430 0.5106
H3 H -0.4579 0.7790 0.4902
C2 C -0.3178(8) 0.8479(8) 0.5576(3)
H4 H -0.2655 0.9367 0.5645
H5 H -0.2545 0.7694 0.5478
C3 C -0.2940(8) 0.7740(9) 0.6754(4)
H6 H -0.2322 0.8560 0.6809
H7 H -0.2406 0.6888 0.6635
C4 C -0.3942(9) 0.8098(9) 0.6199(4)
H8 H -0.4526 0.7259 0.6124
H9 H -0.4510 0.8921 0.6324
C5 C -0.1836(8) 0.7304(8) 0.1512(4)
H10 H -0.1114 0.6585 0.1550
H11 H -0.2558 0.6863 0.1260
C6 C -0.1289(9) 0.8642(9) 0.1146(4)
H12 H -0.1942 0.9436 0.1175
H13 H -0.0454 0.8968 0.1347
C7 C -0.0625(9) 0.9646(8) 0.0041(4)
H14 H -0.1197 1.0469 0.0161
H15 H 0.0309 0.9910 0.0133
C8 C -0.1019(9) 0.8302(8) 0.0439(4)
H16 H -0.0295 0.7584 0.0412
H17 H -0.1827 0.7866 0.0253
Zn1 Zn -0.38524(9) 1.04237(9) 0.28820(4)
Zn2 Zn -0.31878(9) 0.73162(9) 0.89001(5)
Zn3 Zn -0.51551(9) 0.43963(8) 0.78353(4)
Na1 Na -0.6552(3) 0.9045(3) 0.34560(15)
O2A O -0.5673(5) 1.1172(6) 0.2773(2)
O3C O -0.2319(5) 1.1815(6) 0.2992(2)
O5C O -0.2484(6) 0.5729(5) 0.9444(3)
O6_2 O -0.2352(6) 0.9173(6) 0.9067(3)
O6A O -0.7648(6) 1.0827(6) 0.4067(3)
O8C O -0.3718(6) 0.3003(6) 0.7753(3)
O8B O -0.6282(6) 0.6997(6) 0.2753(3)
O9B O -0.7084(6) 0.6904(6) 0.4182(3)
H1B H -0.6376 0.6507 0.4069
O10B O -0.5211(6) 0.4417(5) 0.8817(3)
O11A O -0.6870(6) 0.3719(6) 0.7553(3)
O11B O -0.8130(6) 0.8719(6) 0.2553(3)
O12B O -0.5121(6) 0.7172(6) 0.9026(3)
Zn1A Zn -0.61476(9) 0.95763(9) 0.78820(4)
Zn1C Zn -0.11476(9) 0.54237(9) 0.78820(4)
Zn2C Zn -0.18122(9) 1.23162(9) 0.39001(5)
Zn2_2 Zn -0.31878(9) 0.73162(9) -0.10999(5)
Zn2B Zn 0.18122(9) 0.76838(9) -0.10999(5)
Zn3C Zn 0.01551(9) 0.93963(8) 0.28353(4)
Zn3B Zn -0.01551(9) 1.06037(8) -0.21647(4)
Zn3A Zn -0.48449(9) 0.56037(8) 0.28353(4)
Na1A Na -0.3448(3) 1.0955(3) 0.84560(15)
Na1A_2 Na -0.3448(3) 1.0955(3) -0.15440(15)
Na1B Na -0.1552(3) 0.5955(3) 0.34560(15)
loop_
_geom_bond_atom_site_label_1
_geom_bond_atom_site_label_2
_geom_bond_site_symmetry_1
_geom_bond_site_symmetry_2
P1 O1 1_555 1_555
P2 O2 1_555 1_555
P3 O4 1_555 1_555
P4 O6 1_555 1_555
O1 Zn1 1_555 1_555
O2 Zn1A 1_555 1_555
O3 P2 1_555 1_555
O4 Zn1 1_555 1_555
O5 P1 1_555 1_555
O6 Zn2_2 1_555 1_555
O7 P2 1_555 1_555
O8 P3 1_555 1_555
O9 P1 1_555 1_555
H1 O9 1_555 1_555
O10 P4 1_555 1_555
O11 P3 1_555 1_555
O12 P4 1_555 1_555
C1 P1 1_555 1_555
H2 C1 1_555 1_555
H3 C1 1_555 1_555
C2 C1 1_555 1_555
H4 C2 1_555 1_555
H5 C2 1_555 1_555
C3 P2 1_555 1_555
H6 C3 1_555 1_555
H7 C3 1_555 1_555
C4 C2 1_555 1_555
H8 C4 1_555 1_555
H9 C4 1_555 1_555
C5 P3 1_555 1_555
H10 C5 1_555 1_555
H11 C5 1_555 1_555
C6 C5 1_555 1_555
H12 C6 1_555 1_555
H13 C6 1_555 1_555
C7 P4 1_555 1_555
H14 C7 1_555 1_555
H15 C7 1_555 1_555
C8 C6 1_555 1_555
H16 C8 1_555 1_555
H17 C8 1_555 1_555
Zn1 O2A 1_555 1_555
Zn2 O3 1_555 1_555
Zn3 O7 1_555 1_555
Na1 O1 1_555 1_555
O2A Na1 1_555 1_555
O3C Zn1 1_555 1_555
O5C Zn2 1_555 1_555
O6_2 Zn2 1_555 1_555
O6A Na1 1_555 1_555
O8C Zn3 1_555 1_555
O8B Na1 1_555 1_555
O9B Na1 1_555 1_555
H1B O9B 1_555 1_555
O10B Zn3 1_555 1_555
O11A Zn3 1_555 1_555
O11B Na1 1_555 1_555
O12B Zn2 1_555 1_555
Zn1C O3 1_555 1_555
Zn2C O5 1_555 1_555
Zn2B O12 1_555 1_555
Zn3C O8 1_555 1_555
Zn3B O10 1_555 1_555
Zn3A O11 1_555 1_555
Na1A O2 1_555 1_555
Na1A_2 O6 1_555 1_555
Na1B O8 1_555 1_555
O9 Na1B 1_555 1_555
O11 Na1B 1_555 1_555
C3 C4 1_555 1_555
C7 C8 1_555 1_555
O3C Zn2C 1_555 1_555
O6_2 Na1A 1_555 1_555
O8B Zn3A 1_555 1_555

#END
