
#######################################################################
#
#                 Cambridge Crystallographic Data Centre
#                                CCDC 
#
#######################################################################
#
# If this CIF has been generated from an entry in the Cambridge 
# Structural Database, then it will include bibliographic, chemical, 
# crystal, experimental, refinement or atomic coordinate data resulting 
# from the CCDC's data processing and validation procedures.
#
#######################################################################

data_KAVSIL
_symmetry_cell_setting           triclinic
_symmetry_space_group_name_H-M   'P -1'
_symmetry_Int_Tables_number      2
_space_group_name_Hall           '-P 1'
loop_
_symmetry_equiv_pos_site_id
_symmetry_equiv_pos_as_xyz
1 x,y,z
2 -x,-y,-z
_cell_length_a                   8.7396(14)
_cell_length_b                   9.1057(15)
_cell_length_c                   10.0556(16)
_cell_angle_alpha                74.388(2)
_cell_angle_beta                 82.547(2)
_cell_angle_gamma                77.733(2)
_cell_volume                     750.866
loop_
_atom_site_label
_atom_site_type_symbol
_atom_site_fract_x
_atom_site_fract_y
_atom_site_fract_z
Cd1 Cd 0.18514(3) -1.06022(3) 1.37189(3)
Cd2 Cd 0.42108(3) -0.11892(3) 0.70775(3)
Cd3 Cd 0.5000 -0.5000 1.0000
Cl1 Cl 0.13161(10) -0.00465(10) 0.62394(9)
Cl2 Cl 0.48511(10) -1.13535(10) 1.41996(9)
Cl3 Cl 0.38295(10) -0.39732(10) 0.76130(9)
C1 C 0.1265(4) -0.5643(4) 1.1867(3)
C2 C 0.0269(4) -0.4133(4) 1.1352(4)
C3 C -0.1136(4) -0.3700(4) 1.2075(4)
H1 H -0.1430 -0.4362 1.2904
C4 C -0.2114(4) -0.2292(4) 1.1583(4)
H2 H -0.3064 -0.2024 1.2073
C5 C -0.1675(4) -0.1283(4) 1.0360(4)
C6 C -0.2636(4) 0.0248(4) 0.9825(4)
C7 C -0.0279(4) -0.1723(4) 0.9620(4)
H3 H 0.0015 -0.1057 0.8793
C8 C 0.0684(4) -0.3143(4) 1.0097(4)
H4 H 0.1607 -0.3435 0.9581
C9 C 0.2501(5) -1.4488(5) 1.4586(4)
H5 H 0.3047 -1.4331 1.3682
H6 H 0.1894 -1.5285 1.4710
H7 H 0.3248 -1.4797 1.5276
N1 N 0.0763(3) -0.6814(3) 1.2836(3)
N2 N 0.2002(3) -0.7979(3) 1.2976(3)
N3 N 0.3199(3) -0.7557(3) 1.2147(3)
N4 N 0.2779(3) -0.6076(3) 1.1422(3)
N5 N -0.2647(3) 0.1012(3) 0.8475(3)
N6 N -0.3580(3) 0.2398(4) 0.8428(3)
N7 N -0.4113(3) 0.2471(3) 0.9687(3)
N8 N -0.3542(3) 0.1129(3) 1.0608(3)
O1 O 0.1473(3) -1.3064(3) 1.4722(3)
H8 H 0.1216 -1.2543 1.3955
Cd1A Cd 0.81486(3) 0.06022(3) 0.62811(3)
Cd1A_2 Cd -0.18514(3) 0.06022(3) 0.62811(3)
Cd1_2 Cd 1.18514(3) -1.06022(3) 1.37189(3)
Cd1_3 Cd 0.18514(3) -0.06022(3) 0.37189(3)
Cd2A Cd 0.57892(3) -0.88108(3) 1.29225(3)
Cd2_2 Cd 0.42108(3) -1.11892(3) 1.70775(3)
Cd2A_2 Cd -0.42108(3) 0.11892(3) 1.29225(3)
Cd2_3 Cd 1.42108(3) -1.11892(3) 0.70775(3)
Cd2A_3 Cd 0.57892(3) 0.11892(3) 0.29225(3)
Cd3_2 Cd -0.5000 0.5000 1.0000
Cd3_3 Cd 1.5000 -1.5000 1.0000
Cl1A Cl -0.13161(10) -0.99535(10) 1.37606(9)
Cl1_2 Cl 0.13161(10) -1.00465(10) 1.62394(9)
Cl1A_2 Cl 0.86839(10) 0.00465(10) 0.37606(9)
Cl1_3 Cl 1.13161(10) -0.00465(10) 0.62394(9)
Cl1A_3 Cl 0.86839(10) -0.99535(10) 1.37606(9)
Cl2_2 Cl 0.48511(10) -0.13535(10) 0.41996(9)
Cl2A Cl 0.51489(10) 0.13535(10) 0.58004(9)
Cl2A_2 Cl 0.51489(10) -0.86465(10) 1.58004(9)
Cl3A Cl 0.61705(10) -0.60268(10) 1.23870(9)
C1A C 0.8735(4) -0.4357(4) 0.8133(3)
C2A C 0.9731(4) -0.5867(4) 0.8648(4)
C3A C 1.1136(4) -0.6300(4) 0.7925(4)
H1A H 1.1430 -0.5638 0.7096
C4A C 1.2114(4) -0.7708(4) 0.8417(4)
H2A H 1.3064 -0.7976 0.7927
C5A C 1.1675(4) -0.8717(4) 0.9640(4)
C6A C 1.2636(4) -1.0248(4) 1.0175(4)
C7A C 1.0279(4) -0.8277(4) 1.0380(4)
H3A H 0.9985 -0.8943 1.1207
C8A C 0.9316(4) -0.6857(4) 0.9903(4)
H4A H 0.8393 -0.6565 1.0419
C9A C 0.7499(5) 0.4488(5) 0.5414(4)
H5A H 0.6953 0.4331 0.6318
H6A H 0.8106 0.5285 0.5290
H7A H 0.6752 0.4797 0.4724
N1A N 0.9237(3) -0.3186(3) 0.7164(3)
N2A N 0.7998(3) -0.2021(3) 0.7024(3)
N3A N 0.6801(3) -0.2443(3) 0.7853(3)
N4A N 0.7221(3) -0.3924(3) 0.8578(3)
N5A N 1.2647(3) -1.1012(3) 1.1525(3)
N5A_2 N 0.2647(3) -1.1012(3) 1.1525(3)
N5_2 N 0.7353(3) 0.1012(3) 0.8475(3)
N6A N 1.3580(3) -1.2398(4) 1.1572(3)
N7A N 1.4113(3) -1.2471(3) 1.0313(3)
N7_2 N 0.5887(3) -0.7529(3) 0.9687(3)
N7A_2 N 0.4113(3) -0.2471(3) 1.0313(3)
N8A N 1.3542(3) -1.1129(3) 0.9392(3)
N8A_2 N 0.3542(3) -0.1129(3) 0.9392(3)
N8_2 N 0.6458(3) -0.8871(3) 1.0608(3)
O1A O 0.8527(3) 0.3064(3) 0.5278(3)
H8A H 0.8784 0.2543 0.6045
loop_
_geom_bond_atom_site_label_1
_geom_bond_atom_site_label_2
_geom_bond_site_symmetry_1
_geom_bond_site_symmetry_2
Cd1 Cl2 1_555 1_555
Cd2 Cl1 1_555 1_555
Cd3 Cl3 1_555 1_555
Cl1 Cd1A_2 1_555 1_555
Cl2 Cd2A 1_555 1_555
Cl3 Cd2 1_555 1_555
C1 C2 1_555 1_555
C2 C3 1_555 1_555
C3 H1 1_555 1_555
C4 C3 1_555 1_555
H2 C4 1_555 1_555
C5 C4 1_555 1_555
C6 C5 1_555 1_555
C7 C5 1_555 1_555
H3 C7 1_555 1_555
C8 C2 1_555 1_555
H4 C8 1_555 1_555
C9 H5 1_555 1_555
H6 C9 1_555 1_555
H7 C9 1_555 1_555
N1 C1 1_555 1_555
N2 Cd1 1_555 1_555
N3 N2 1_555 1_555
N4 Cd3 1_555 1_555
N5 C6 1_555 1_555
N6 N5 1_555 1_555
N7 N6 1_555 1_555
N8 C6 1_555 1_555
O1 Cd1 1_555 1_555
H8 O1 1_555 1_555
Cd1A Cl1A_2 1_555 1_555
Cd1A_2 N5 1_555 1_555
Cd1_2 Cl1A_3 1_555 1_555
Cd1_3 Cl1 1_555 1_555
Cd2A N3 1_555 1_555
Cd2_2 Cl2 1_555 1_555
Cd2A_2 N8 1_555 1_555
Cd2_3 N8A 1_555 1_555
Cd2A_3 Cl1A_2 1_555 1_555
Cd3_2 N7 1_555 1_555
Cd3_3 N7A 1_555 1_555
Cl1A Cd1 1_555 1_555
Cl1_2 Cd1 1_555 1_555
Cl1_3 Cd1A 1_555 1_555
Cl1A_3 Cd2A 1_555 1_555
Cl2_2 Cd2 1_555 1_555
Cl2A Cd2 1_555 1_555
Cl2A_2 Cd2A 1_555 1_555
Cl3A Cd3 1_555 1_555
C1A C2A 1_555 1_555
C2A C3A 1_555 1_555
C3A H1A 1_555 1_555
C4A C3A 1_555 1_555
H2A C4A 1_555 1_555
C5A C4A 1_555 1_555
C6A C5A 1_555 1_555
C7A C5A 1_555 1_555
H3A C7A 1_555 1_555
C8A C2A 1_555 1_555
H4A C8A 1_555 1_555
C9A H5A 1_555 1_555
H6A C9A 1_555 1_555
H7A C9A 1_555 1_555
N1A C1A 1_555 1_555
N2A Cd1A 1_555 1_555
N3A Cd2 1_555 1_555
N4A Cd3 1_555 1_555
N5A Cd1_2 1_555 1_555
N5A_2 Cd1 1_555 1_555
N5_2 Cd1A 1_555 1_555
N6A N5A 1_555 1_555
N7A N6A 1_555 1_555
N7_2 Cd3 1_555 1_555
N7A_2 Cd3 1_555 1_555
N8A C6A 1_555 1_555
N8A_2 Cd2 1_555 1_555
N8_2 Cd2A 1_555 1_555
O1A Cd1A 1_555 1_555
H8A O1A 1_555 1_555
C1 N4 1_555 1_555
C7 C8 1_555 1_555
C9 O1 1_555 1_555
N1 N2 1_555 1_555
N3 N4 1_555 1_555
N7 N8 1_555 1_555
Cd1A Cl2A 1_555 1_555
Cd1_3 Cl2_2 1_555 1_555
Cd2A Cl3A 1_555 1_555
Cd2_2 Cl1_2 1_555 1_555
Cd2_2 Cl2A_2 1_555 1_555
Cd2A_3 Cl2_2 1_555 1_555
Cd2A_3 Cl2A 1_555 1_555
C1A N4A 1_555 1_555
C6A N5A 1_555 1_555
C7A C8A 1_555 1_555
C9A O1A 1_555 1_555
N1A N2A 1_555 1_555
N2A N3A 1_555 1_555
N3A N4A 1_555 1_555
N7A N8A 1_555 1_555
N7_2 N8_2 1_555 1_555
N7A_2 N8A_2 1_555 1_555

#END
