
#######################################################################
#
#                 Cambridge Crystallographic Data Centre
#                                CCDC 
#
#######################################################################
#
# If this CIF has been generated from an entry in the Cambridge 
# Structural Database, then it will include bibliographic, chemical, 
# crystal, experimental, refinement or atomic coordinate data resulting 
# from the CCDC's data processing and validation procedures.
#
#######################################################################

data_KAVSEH
_symmetry_cell_setting           monoclinic
_symmetry_space_group_name_H-M   'P 21/c'
_symmetry_Int_Tables_number      14
_space_group_name_Hall           '-P 2ybc'
loop_
_symmetry_equiv_pos_site_id
_symmetry_equiv_pos_as_xyz
1 x,y,z
2 -x,1/2+y,1/2-z
3 -x,-y,-z
4 x,1/2-y,1/2+z
_cell_length_a                   9.9881(10)
_cell_length_b                   31.471(3)
_cell_length_c                   12.2888(12)
_cell_angle_alpha                90
_cell_angle_beta                 96.1470(10)
_cell_angle_gamma                90
_cell_volume                     3840.6
loop_
_atom_site_label
_atom_site_type_symbol
_atom_site_fract_x
_atom_site_fract_y
_atom_site_fract_z
Dy1 Dy -0.51556(4) 0.233430(11) -0.33656(3)
Dy2 Dy -0.12431(4) 0.226380(11) -0.35212(3)
Dy3 Dy -0.31556(4) 0.206960(11) -0.07255(3)
O1 O -0.7183(6) 0.2770(2) -0.3382(6)
H1 H -0.778(6) 0.2573(18) -0.352(8)
H2 H -0.751(8) 0.3014(13) -0.325(8)
O2 O -0.1280(6) 0.16799(18) -0.4895(5)
H3 H -0.108(8) 0.1483(18) -0.443(5)
H4 H -0.186(7) 0.163(2) -0.543(5)
O4 O -0.5271(5) 0.24270(17) -0.1457(4)
O5 O -0.6362(6) 0.2671(2) -0.0090(5)
O6 O -0.2887(5) 0.24395(16) -0.2345(4)
O7 O -0.1032(5) 0.25754(17) -0.5308(4)
O8 O 0.0053(6) 0.27500(18) -0.6745(4)
O9 O -0.3385(5) 0.23519(15) -0.4546(4)
O10 O -0.5244(6) 0.66038(16) -0.0942(5)
O11 O -0.5668(5) 0.67145(16) -0.2707(4)
O12 O -0.6315(7) 0.58322(18) -0.0461(5)
O13 O -0.6596(6) 0.36246(18) -0.2318(5)
O14 O -0.4750(5) 0.30747(17) -0.3132(4)
O15 O -0.4745(5) 0.32942(17) -0.4851(4)
O16 O 0.1835(6) 0.64943(17) -0.3934(4)
O17 O 0.1454(6) 0.65680(17) -0.2184(5)
O18 O 0.0220(7) 0.5913(2) -0.1321(5)
O19 O 0.1189(6) 0.35462(18) -0.4576(5)
O20 O -0.0084(6) 0.29335(18) -0.3167(5)
O21 O -0.2088(6) 0.31316(18) -0.3930(4)
O22 O -0.9016(5) 0.21116(18) -0.3742(5)
O23 O -0.6991(5) 0.18775(18) -0.3052(5)
C1 C -0.6303(8) 0.2548(3) -0.1031(7)
H5 H -0.7112 0.2542 -0.1483
C2 C 0.0015(8) 0.2612(3) -0.5815(7)
H6 H 0.0829 0.2526 -0.5441
C3 C -0.8228(9) 0.1842(3) -0.3294(7)
H7 H -0.8607 0.1585 -0.3120
C4 C -0.4836(8) 0.3360(3) -0.3854(6)
C5 C -0.4999(8) 0.3812(2) -0.3500(6)
C6 C -0.5863(8) 0.3940(3) -0.2714(6)
C7 C -0.5962(8) 0.4371(3) -0.2461(6)
H8 H -0.6568 0.4455 -0.1979
C8 C -0.5183(8) 0.4674(3) -0.2908(7)
C9 C -0.4308(9) 0.4543(3) -0.3679(7)
H9 H -0.3772 0.4741 -0.3990
C10 C -0.4258(8) 0.4124(3) -0.3963(7)
H10 H -0.3703 0.4044 -0.4489
C11 C -0.5279(8) 0.5130(3) -0.2627(7)
C12 C -0.5754(8) 0.5261(3) -0.1649(7)
H11 H -0.6005 0.5057 -0.1162
C13 C -0.5860(8) 0.5684(2) -0.1392(7)
C14 C -0.5462(8) 0.5999(3) -0.2127(6)
C15 C -0.5007(9) 0.5871(3) -0.3096(7)
H12 H -0.4749 0.6073 -0.3586
C16 C -0.4931(9) 0.5441(3) -0.3343(7)
H13 H -0.4639 0.5360 -0.4006
C17 C -0.5483(8) 0.6464(2) -0.1869(7)
C18 C -0.6896(10) 0.5536(3) 0.0220(7)
H14 H -0.7172 0.5681 0.0847
H15 H -0.6245 0.5322 0.0456
H16 H -0.7665 0.5406 -0.0182
C19 C -0.7352(10) 0.3728(3) -0.1420(7)
H17 H -0.7828 0.3481 -0.1214
H18 H -0.7985 0.3950 -0.1639
H19 H -0.6748 0.3823 -0.0808
C20 C -0.0905(8) 0.3212(2) -0.3519(6)
C21 C -0.0486(8) 0.3677(3) -0.3427(7)
C22 C 0.0563(8) 0.3838(3) -0.3973(7)
C23 C 0.0901(8) 0.4261(3) -0.3868(7)
H20 H 0.1599 0.4366 -0.4236
C24 C 0.0232(9) 0.4535(3) -0.3232(7)
C25 C -0.0825(9) 0.4373(3) -0.2711(7)
H21 H -0.1304 0.4555 -0.2298
C26 C -0.1185(9) 0.3948(3) -0.2789(7)
H22 H -0.1883 0.3845 -0.2420
C27 C 0.0572(8) 0.5004(3) -0.3153(7)
C28 C 0.0251(9) 0.5241(3) -0.2264(7)
H23 H -0.0158 0.5109 -0.1709
C29 C 0.0533(8) 0.5674(3) -0.2194(7)
C30 C 0.1147(8) 0.5880(2) -0.3022(7)
C31 C 0.1440(8) 0.5638(3) -0.3901(7)
H24 H 0.1824 0.5771 -0.4467
C32 C 0.1194(8) 0.5208(3) -0.3986(7)
H25 H 0.1434 0.5056 -0.4584
C33 C 0.1492(8) 0.6350(2) -0.3024(7)
C34 C -0.0655(12) 0.5735(3) -0.0609(9)
H26 H -0.0789 0.5935 -0.0040
H27 H -0.0263 0.5480 -0.0288
H28 H -0.1505 0.5670 -0.1015
C35 C 0.1988(9) 0.3704(3) -0.5386(7)
H29 H 0.2370 0.3469 -0.5746
H30 H 0.2698 0.3879 -0.5042
H31 H 0.1433 0.3868 -0.5915
Dy1A Dy -0.48444(4) 0.733430(11) -0.16344(3)
Dy1C Dy -0.51556(4) 0.266570(11) 0.16344(3)
Dy2A Dy 0.12431(4) 0.726380(11) -0.14788(3)
Dy2_2 Dy -1.12431(4) 0.226380(11) -0.35212(3)
Dy2C Dy -0.12431(4) 0.273620(11) -0.85212(3)
Dy3C Dy -0.31556(4) 0.293040(11) -0.57255(3)
Dy3A Dy -0.68444(4) 0.706960(11) -0.42745(3)
Dy3A_2 Dy 0.31556(4) 0.706960(11) -0.42745(3)
O5C O -0.6362(6) 0.2329(2) -0.5090(5)
O7C O -0.1032(5) 0.24246(17) -0.0308(4)
O8C O 0.0053(6) 0.22500(18) -0.1745(4)
O9C O -0.3385(5) 0.26481(15) 0.0454(4)
O10A O -0.4756(6) 0.16038(16) -0.4058(5)
O11A O -0.4332(5) 0.17145(16) -0.2293(4)
O15C O -0.4745(5) 0.17058(17) 0.0149(4)
O16A O -0.1835(6) 0.14943(17) -0.1066(4)
O17A O -0.1454(6) 0.15680(17) -0.2816(5)
O21C O -0.2088(6) 0.18684(18) 0.1070(4)
O22_2 O 0.0984(5) 0.21116(18) -0.3742(5)
O3 O -0.3756(6) 0.16095(19) -0.6078(5)
loop_
_geom_bond_atom_site_label_1
_geom_bond_atom_site_label_2
_geom_bond_site_symmetry_1
_geom_bond_site_symmetry_2
Dy1 O1 1_555 1_555
Dy2 O2 1_555 1_555
Dy3 O4 1_555 1_555
O1 H1 1_555 1_555
H2 O1 1_555 1_555
O2 H3 1_555 1_555
H4 O2 1_555 1_555
O4 Dy1 1_555 1_555
O5 C1 1_555 1_555
O6 Dy1 1_555 1_555
O7 Dy2 1_555 1_555
O8 C2 1_555 1_555
O9 Dy1 1_555 1_555
O10 C17 1_555 1_555
O11 C17 1_555 1_555
O12 C13 1_555 1_555
O13 C6 1_555 1_555
O14 Dy1 1_555 1_555
O15 C4 1_555 1_555
O16 C33 1_555 1_555
O17 C33 1_555 1_555
O18 C29 1_555 1_555
O19 C22 1_555 1_555
O20 Dy2 1_555 1_555
O21 C20 1_555 1_555
O22 C3 1_555 1_555
O23 Dy1 1_555 1_555
C1 O4 1_555 1_555
H5 C1 1_555 1_555
C2 O7 1_555 1_555
H6 C2 1_555 1_555
C3 O23 1_555 1_555
H7 C3 1_555 1_555
C4 O14 1_555 1_555
C5 C4 1_555 1_555
C6 C5 1_555 1_555
C7 C6 1_555 1_555
H8 C7 1_555 1_555
C8 C7 1_555 1_555
C9 C8 1_555 1_555
H9 C9 1_555 1_555
C10 C5 1_555 1_555
H10 C10 1_555 1_555
C11 C8 1_555 1_555
C12 C11 1_555 1_555
H11 C12 1_555 1_555
C13 C12 1_555 1_555
C14 C13 1_555 1_555
C15 C14 1_555 1_555
H12 C15 1_555 1_555
C16 C11 1_555 1_555
H13 C16 1_555 1_555
C17 C14 1_555 1_555
C18 O12 1_555 1_555
H14 C18 1_555 1_555
H15 C18 1_555 1_555
H16 C18 1_555 1_555
C19 O13 1_555 1_555
H17 C19 1_555 1_555
H18 C19 1_555 1_555
H19 C19 1_555 1_555
C20 O20 1_555 1_555
C21 C20 1_555 1_555
C22 C21 1_555 1_555
C23 C22 1_555 1_555
H20 C23 1_555 1_555
C24 C23 1_555 1_555
C25 C24 1_555 1_555
H21 C25 1_555 1_555
C26 C21 1_555 1_555
H22 C26 1_555 1_555
C27 C24 1_555 1_555
C28 C27 1_555 1_555
H23 C28 1_555 1_555
C29 C28 1_555 1_555
C30 C29 1_555 1_555
C31 C30 1_555 1_555
H24 C31 1_555 1_555
C32 C27 1_555 1_555
H25 C32 1_555 1_555
C33 C30 1_555 1_555
C34 O18 1_555 1_555
H26 C34 1_555 1_555
H27 C34 1_555 1_555
H28 C34 1_555 1_555
C35 O19 1_555 1_555
H29 C35 1_555 1_555
H30 C35 1_555 1_555
H31 C35 1_555 1_555
Dy1A O10 1_555 1_555
Dy1C O5 1_555 1_555
Dy2A O17 1_555 1_555
Dy2_2 O22 1_555 1_555
Dy2C O8 1_555 1_555
Dy3C O7 1_555 1_555
Dy3A O11 1_555 1_555
Dy3A_2 O16 1_555 1_555
O5C Dy1 1_555 1_555
O7C Dy3 1_555 1_555
O8C Dy2 1_555 1_555
O9C Dy3 1_555 1_555
O10A Dy1 1_555 1_555
O11A Dy1 1_555 1_555
O15C Dy3 1_555 1_555
O16A Dy3 1_555 1_555
O17A Dy2 1_555 1_555
O21C Dy3 1_555 1_555
O22_2 Dy2 1_555 1_555
Dy2 O6 1_555 1_555
Dy2 O9 1_555 1_555
Dy3 O6 1_555 1_555
Dy3 O11A 1_555 1_555
O9 Dy3C 1_555 1_555
O11 Dy1A 1_555 1_555
O15 Dy3C 1_555 1_555
O21 Dy3C 1_555 1_555
C9 C10 1_555 1_555
C15 C16 1_555 1_555
C25 C26 1_555 1_555
C31 C32 1_555 1_555
Dy1C O9C 1_555 1_555

#END
