
#######################################################################
#
#                 Cambridge Crystallographic Data Centre
#                                CCDC 
#
#######################################################################
#
# If this CIF has been generated from an entry in the Cambridge 
# Structural Database, then it will include bibliographic, chemical, 
# crystal, experimental, refinement or atomic coordinate data resulting 
# from the CCDC's data processing and validation procedures.
#
#######################################################################

data_KAVSUX
_symmetry_cell_setting           monoclinic
_symmetry_space_group_name_H-M   'P 2/c'
_symmetry_Int_Tables_number      13
_space_group_name_Hall           '-P 2yc'
loop_
_symmetry_equiv_pos_site_id
_symmetry_equiv_pos_as_xyz
1 x,y,z
2 -x,y,1/2-z
3 -x,-y,-z
4 x,-y,1/2+z
_cell_length_a                   16.910(3)
_cell_length_b                   5.8674(12)
_cell_length_c                   17.368(3)
_cell_angle_alpha                90
_cell_angle_beta                 108.49(3)
_cell_angle_gamma                90
_cell_volume                     1634.26
loop_
_atom_site_label
_atom_site_type_symbol
_atom_site_fract_x
_atom_site_fract_y
_atom_site_fract_z
Cd1 Cd 1.0000 0.34807(5) 0.2500
Cd2 Cd 0.5000 0.45819(6) 0.2500
O1 O 0.56098(15) 0.7303(4) 0.19303(14)
O2 O 0.53650(14) 0.4056(4) 0.12723(13)
O3 O 0.93807(14) 0.0626(4) 0.29651(13)
O4 O 0.89092(13) 0.6203(4) 0.23966(13)
O5 O 0.90166(13) 0.4418(4) 0.13174(13)
N1 N 0.38220(14) 0.2520(5) 0.18599(14)
N2 N 0.08164(15) -0.0432(4) 0.05814(15)
C1 C 0.38567(19) 0.0575(6) 0.14797(19)
H1 H 0.4381 0.0075 0.1451
C2 C 0.31581(18) -0.0755(5) 0.11229(18)
H2 H 0.3208 -0.2138 0.0858
C3 C 0.23857(18) -0.0055(5) 0.11549(18)
C4 C 0.23509(18) 0.1990(6) 0.15512(19)
H3 H 0.1835 0.2547 0.1584
C5 C 0.30786(18) 0.3190(6) 0.18952(19)
H4 H 0.3050 0.4568 0.2172
C6 C 0.16371(19) -0.1591(6) 0.0802(2)
H5 H 0.1692 -0.2337 0.0310
H6 H 0.1647 -0.2804 0.1201
C7 C 0.01609(17) -0.2195(5) 0.03383(18)
H7 H 0.0229 -0.3272 0.0794
H8 H 0.0221 -0.3064 -0.0129
C8 C 0.06989(18) 0.1140(5) -0.01064(18)
H9 H 0.0766 0.0301 -0.0576
H10 H 0.1127 0.2355 0.0045
C9 C 0.56261(17) 0.6064(5) 0.13391(18)
C10 C 0.59395(17) 0.7088(5) 0.06812(17)
H11 H 0.5439 0.7672 0.0245
C11 C 0.63433(18) 0.5283(5) 0.02899(18)
H12 H 0.5972 0.3938 0.0142
H13 H 0.6412 0.5908 -0.0215
C12 C 0.71925(18) 0.4546(5) 0.08620(18)
H14 H 0.7446 0.3433 0.0582
H15 H 0.7118 0.3788 0.1344
C13 C 0.77785(17) 0.6601(5) 0.11362(18)
H16 H 0.7847 0.7314 0.0639
C14 C 0.73870(18) 0.8377(5) 0.15429(19)
H17 H 0.7757 0.9725 0.1688
H18 H 0.7329 0.7736 0.2050
C15 C 0.65243(18) 0.9116(5) 0.09784(19)
H19 H 0.6270 1.0187 0.1273
H20 H 0.6593 0.9930 0.0504
C16 C 0.86246(17) 0.5729(5) 0.16477(18)
Cd1_2 Cd 0.0000 0.34807(5) 0.2500
Cd2B Cd -0.5000 -0.45819(6) -0.2500
O1A O 0.43902(15) 0.7303(4) 0.30697(14)
O2A O 0.46350(14) 0.4056(4) 0.37277(13)
O3A O 1.06193(14) 0.0626(4) 0.20349(13)
O4A O 0.10908(13) 0.6203(4) 0.26034(13)
O4A_2 O 1.10908(13) 0.6203(4) 0.26034(13)
O5A O 0.09834(13) 0.4418(4) 0.36826(13)
O5A_2 O 1.09834(13) 0.4418(4) 0.36826(13)
N1B N -0.38220(14) -0.2520(5) -0.18599(14)
N1A N 0.61780(14) 0.2520(5) 0.31401(14)
N2B N -0.08164(15) 0.0432(4) -0.05814(15)
C1B C -0.38567(19) -0.0575(6) -0.14797(19)
H1B H -0.4381 -0.0075 -0.1451
C2B C -0.31581(18) 0.0755(5) -0.11229(18)
H2B H -0.3208 0.2138 -0.0858
C3B C -0.23857(18) 0.0055(5) -0.11549(18)
C4B C -0.23509(18) -0.1990(6) -0.15512(19)
H3B H -0.1835 -0.2547 -0.1584
C5B C -0.30786(18) -0.3190(6) -0.18952(19)
H4B H -0.3050 -0.4568 -0.2172
C6B C -0.16371(19) 0.1591(6) -0.0802(2)
H5B H -0.1692 0.2337 -0.0310
H6B H -0.1647 0.2804 -0.1201
C7B C -0.01609(17) 0.2195(5) -0.03383(18)
H7B H -0.0229 0.3272 -0.0794
H8B H -0.0221 0.3064 0.0129
C8B C -0.06989(18) -0.1140(5) 0.01064(18)
H9B H -0.0766 -0.0301 0.0576
H10B H -0.1127 -0.2355 -0.0045
C9A C 0.43739(17) 0.6064(5) 0.36609(18)
C10A C 0.40605(17) 0.7088(5) 0.43188(17)
H11A H 0.4561 0.7672 0.4755
C11A C 0.36567(18) 0.5283(5) 0.47101(18)
H12A H 0.4028 0.3938 0.4858
H13A H 0.3588 0.5908 0.5215
C12A C 0.28075(18) 0.4546(5) 0.41380(18)
H14A H 0.2554 0.3433 0.4418
H15A H 0.2882 0.3788 0.3656
C13A C 0.22215(17) 0.6601(5) 0.38638(18)
H16A H 0.2153 0.7314 0.4361
C14A C 0.26130(18) 0.8377(5) 0.34571(19)
H17A H 0.2243 0.9725 0.3312
H18A H 0.2671 0.7736 0.2950
C15A C 0.34757(18) 0.9116(5) 0.40216(19)
H19A H 0.3730 1.0187 0.3727
H20A H 0.3407 0.9930 0.4496
C16A C 0.13754(17) 0.5729(5) 0.33523(18)
loop_
_geom_bond_atom_site_label_1
_geom_bond_atom_site_label_2
_geom_bond_site_symmetry_1
_geom_bond_site_symmetry_2
Cd1 O3 1_555 1_555
Cd2 O1 1_555 1_555
O1 C9 1_555 1_555
O2 Cd2 1_555 1_555
O4 Cd1 1_555 1_555
O5 Cd1 1_555 1_555
N1 Cd2 1_555 1_555
N2 C6 1_555 1_555
C1 N1 1_555 1_555
H1 C1 1_555 1_555
C2 C1 1_555 1_555
H2 C2 1_555 1_555
C3 C2 1_555 1_555
C4 C3 1_555 1_555
H3 C4 1_555 1_555
C5 N1 1_555 1_555
H4 C5 1_555 1_555
C6 C3 1_555 1_555
H5 C6 1_555 1_555
H6 C6 1_555 1_555
C7 N2 1_555 1_555
H7 C7 1_555 1_555
H8 C7 1_555 1_555
C8 N2 1_555 1_555
H9 C8 1_555 1_555
H10 C8 1_555 1_555
C9 O2 1_555 1_555
C10 C9 1_555 1_555
H11 C10 1_555 1_555
C11 C10 1_555 1_555
H12 C11 1_555 1_555
H13 C11 1_555 1_555
C12 C11 1_555 1_555
H14 C12 1_555 1_555
H15 C12 1_555 1_555
C13 C12 1_555 1_555
H16 C13 1_555 1_555
C14 C13 1_555 1_555
H17 C14 1_555 1_555
H18 C14 1_555 1_555
C15 C10 1_555 1_555
H19 C15 1_555 1_555
H20 C15 1_555 1_555
C16 O4 1_555 1_555
Cd1_2 O4A 1_555 1_555
Cd2B N1B 1_555 1_555
O1A Cd2 1_555 1_555
O2A Cd2 1_555 1_555
O3A Cd1 1_555 1_555
O4A C16A 1_555 1_555
O4A_2 Cd1 1_555 1_555
O5A Cd1_2 1_555 1_555
O5A_2 Cd1 1_555 1_555
N1B C1B 1_555 1_555
N1A Cd2 1_555 1_555
N2B C6B 1_555 1_555
C1B H1B 1_555 1_555
C2B C1B 1_555 1_555
H2B C2B 1_555 1_555
C3B C2B 1_555 1_555
C4B C3B 1_555 1_555
H3B C4B 1_555 1_555
C5B N1B 1_555 1_555
H4B C5B 1_555 1_555
C6B C3B 1_555 1_555
H5B C6B 1_555 1_555
H6B C6B 1_555 1_555
C7B C8 1_555 1_555
H7B C7B 1_555 1_555
H8B C7B 1_555 1_555
C8B C7 1_555 1_555
H9B C8B 1_555 1_555
H10B C8B 1_555 1_555
C9A O1A 1_555 1_555
C10A C9A 1_555 1_555
H11A C10A 1_555 1_555
C11A C10A 1_555 1_555
H12A C11A 1_555 1_555
H13A C11A 1_555 1_555
C12A C11A 1_555 1_555
H14A C12A 1_555 1_555
H15A C12A 1_555 1_555
C13A C12A 1_555 1_555
H16A C13A 1_555 1_555
C14A C13A 1_555 1_555
H17A C14A 1_555 1_555
H18A C14A 1_555 1_555
C15A C10A 1_555 1_555
H19A C15A 1_555 1_555
H20A C15A 1_555 1_555
C16A O5A 1_555 1_555
O5 C16 1_555 1_555
C4 C5 1_555 1_555
C13 C16 1_555 1_555
C14 C15 1_555 1_555
O2A C9A 1_555 1_555
N2B C7B 1_555 1_555
N2B C8B 1_555 1_555
C4B C5B 1_555 1_555
C13A C16A 1_555 1_555
C14A C15A 1_555 1_555

#END
