
#######################################################################
#
#                 Cambridge Crystallographic Data Centre
#                                CCDC 
#
#######################################################################
#
# If this CIF has been generated from an entry in the Cambridge 
# Structural Database, then it will include bibliographic, chemical, 
# crystal, experimental, refinement or atomic coordinate data resulting 
# from the CCDC's data processing and validation procedures.
#
#######################################################################

data_KAVTOS
_symmetry_cell_setting           triclinic
_symmetry_space_group_name_H-M   'P -1'
_symmetry_Int_Tables_number      2
_space_group_name_Hall           '-P 1'
loop_
_symmetry_equiv_pos_site_id
_symmetry_equiv_pos_as_xyz
1 x,y,z
2 -x,-y,-z
_cell_length_a                   8.8381(5)
_cell_length_b                   9.0763(5)
_cell_length_c                   12.3127(8)
_cell_angle_alpha                95.218(2)
_cell_angle_beta                 101.701(2)
_cell_angle_gamma                111.775(2)
_cell_volume                     883.032
loop_
_atom_site_label
_atom_site_type_symbol
_atom_site_fract_x
_atom_site_fract_y
_atom_site_fract_z
C1 C 0.6661(5) 0.4513(5) 0.2721(3)
H1 H 0.672 0.5408 0.3247
H2 H 0.5774 0.3546 0.2812
C2 C 0.8321(4) 0.4323(5) 0.3036(3)
C3 C 0.8354(5) 0.2805(5) 0.2809(3)
C4 C 0.6750(5) 0.1332(5) 0.2271(4)
H3 H 0.7007 0.0552 0.1851
H4 H 0.5977 0.1638 0.1773
H5 H 0.6247 0.087 0.2849
C5 C 0.9892(5) 0.2636(4) 0.3122(3)
C6 C 0.9956(5) 0.0986(5) 0.2948(3)
H6 H 0.889 0.0182 0.2993
H7 H 1.083 0.0962 0.3558
C7 C 1.1382(5) 0.3986(5) 0.3624(3)
C8 C 1.3047(5) 0.3823(5) 0.3907(3)
H8 H 1.2961 0.2868 0.3448
H9 H 1.3335 0.3746 0.4689
H10 H 1.3906 0.475 0.3766
C9 C 1.1322(5) 0.5494(5) 0.3892(3)
C10 C 1.2932(5) 0.6896(5) 0.4533(3)
H11 H 1.3649 0.6475 0.4992
H12 H 1.2651 0.7576 0.5042
C11 C 0.9798(5) 0.5675(5) 0.3589(3)
C12 C 0.9704(5) 0.7288(5) 0.3878(3)
H13 H 1.0818 0.8095 0.4215
H14 H 0.9017 0.7217 0.4399
H15 H 0.9219 0.7576 0.3203
Cu1 Cu 0.36936(6) 0.65715(6) 0.10302(4)
Cu2 Cu 0.75725(6) 0.74193(6) -0.00992(4)
P1 P 0.60867(12) 0.48588(12) 0.13116(8)
P2 P 1.03598(12) 0.04387(12) 0.16233(8)
P3 P 1.41249(12) 0.81403(12) 0.36826(8)
O1 O 0.4203(3) 0.4619(3) 0.1104(2)
O2 O 0.7154(3) 0.6567(3) 0.1231(2)
O3 O 0.6218(4) 0.3559(4) 0.0515(2)
O4 O 0.8728(3) -0.0393(3) 0.0731(2)
O5 O 1.1172(4) -0.0820(4) 0.1816(2)
H16 H 1.1948 -0.0598 0.242
O6 O 1.1587(4) 0.1948(3) 0.1365(2)
O7 O 1.4085(4) 0.7146(3) 0.2633(2)
O8 O 1.6009(3) 0.8881(3) 0.4413(2)
H17 H 1.6209 0.9285 0.5089
O9 O 1.3518(3) 0.9485(3) 0.3521(2)
O10 O 0.3163(4) 0.8454(4) 0.0701(3)
O11 O 0.0944(4) 0.4767(5) 0.0946(3)
C1A C 0.3339(5) 0.5487(5) -0.2721(3)
H1A H 0.328 0.4592 -0.3247
H2A H 0.4226 0.6454 -0.2812
C2A C 0.1679(4) 0.5677(5) -0.3036(3)
C3A C 0.1646(5) 0.7195(5) -0.2809(3)
C4A C 0.3250(5) 0.8668(5) -0.2271(4)
H3A H 0.2993 0.9448 -0.1851
H4A H 0.4023 0.8362 -0.1773
H5A H 0.3753 0.913 -0.2849
C5A C 0.0108(5) 0.7364(4) -0.3122(3)
C6A C 0.0044(5) 0.9014(5) -0.2948(3)
H6A H 0.111 0.9818 -0.2993
H7A H -0.083 0.9038 -0.3558
C7A C -0.1382(5) 0.6014(5) -0.3624(3)
C8A C -0.3047(5) 0.6177(5) -0.3907(3)
H8A H -0.2961 0.7132 -0.3448
H9A H -0.3335 0.6254 -0.4689
H10A H -0.3906 0.525 -0.3766
C9A C -0.1322(5) 0.4506(5) -0.3892(3)
C10A C -0.2932(5) 0.3104(5) -0.4533(3)
H11A H -0.3649 0.3525 -0.4992
H12A H -0.2651 0.2424 -0.5042
C11A C 0.0202(5) 0.4325(5) -0.3589(3)
C12A C 0.0296(5) 0.2712(5) -0.3878(3)
H13A H -0.0818 0.1905 -0.4215
H14A H 0.0983 0.2783 -0.4399
H15A H 0.0781 0.2424 -0.3203
Cu1A Cu 0.63064(6) 0.34285(6) -0.10302(4)
Cu1_2 Cu 1.36936(6) 0.65715(6) 0.10302(4)
Cu1A_2 Cu -0.36936(6) 0.34285(6) -0.10302(4)
Cu2A Cu 0.24275(6) 0.25807(6) 0.00992(4)
Cu2_2 Cu -0.24275(6) 0.74193(6) -0.00992(4)
Cu2_3 Cu 0.75725(6) -0.25807(6) -0.00992(4)
Cu2A_2 Cu 0.24275(6) 1.25807(6) 0.00992(4)
Cu2A_3 Cu 1.24275(6) 0.25807(6) 0.00992(4)
P1A P 0.39133(12) 0.51412(12) -0.13116(8)
P2A P -0.03598(12) 0.95613(12) -0.16233(8)
P3A P -0.41249(12) 0.18597(12) -0.36826(8)
O1A O 0.5797(3) 0.5381(3) -0.1104(2)
O2A O 0.2846(3) 0.3433(3) -0.1231(2)
O3A O 0.3782(4) 0.6441(4) -0.0515(2)
O4A O 0.1272(3) 1.0393(3) -0.0731(2)
O4_2 O 0.8728(3) 0.9607(3) 0.0731(2)
O4A_2 O 0.1272(3) 0.0393(3) -0.0731(2)
O5A O -0.1172(4) 1.0820(4) -0.1816(2)
H16A H -0.1948 1.0598 -0.242
O6A O -0.1587(4) 0.8052(3) -0.1365(2)
O6_2 O 0.1587(4) 0.1948(3) 0.1365(2)
O6A_2 O 0.8413(4) 0.8052(3) -0.1365(2)
O7A O -0.4085(4) 0.2854(3) -0.2633(2)
O7_2 O 0.4085(4) 0.7146(3) 0.2633(2)
O7A_2 O 0.5915(4) 0.2854(3) -0.2633(2)
O8A O -0.6009(3) 0.1119(3) -0.4413(2)
H17A H -0.6209 0.0715 -0.5089
O9A O -0.3518(3) 0.0515(3) -0.3521(2)
O10A O 0.6837(4) 0.1546(4) -0.0701(3)
O11A O 0.9056(4) 0.5233(5) -0.0946(3)
loop_
_geom_bond_atom_site_label_1
_geom_bond_atom_site_label_2
_geom_bond_site_symmetry_1
_geom_bond_site_symmetry_2
C1 H1 1_555 1_555
H2 C1 1_555 1_555
C2 C1 1_555 1_555
C3 C2 1_555 1_555
C4 C3 1_555 1_555
H3 C4 1_555 1_555
H4 C4 1_555 1_555
H5 C4 1_555 1_555
C5 C3 1_555 1_555
C6 C5 1_555 1_555
H6 C6 1_555 1_555
H7 C6 1_555 1_555
C7 C5 1_555 1_555
C8 C7 1_555 1_555
H8 C8 1_555 1_555
H9 C8 1_555 1_555
H10 C8 1_555 1_555
C9 C7 1_555 1_555
C10 C9 1_555 1_555
H11 C10 1_555 1_555
H12 C10 1_555 1_555
C11 C2 1_555 1_555
C12 C11 1_555 1_555
H13 C12 1_555 1_555
H14 C12 1_555 1_555
H15 C12 1_555 1_555
Cu1 O1 1_555 1_555
Cu2 O2 1_555 1_555
P1 C1 1_555 1_555
P2 C6 1_555 1_555
P3 C10 1_555 1_555
O1 P1 1_555 1_555
O2 P1 1_555 1_555
O3 P1 1_555 1_555
O4 P2 1_555 1_555
O5 P2 1_555 1_555
H16 O5 1_555 1_555
O6 P2 1_555 1_555
O7 P3 1_555 1_555
O8 P3 1_555 1_555
H17 O8 1_555 1_555
O9 P3 1_555 1_555
O10 Cu1 1_555 1_555
O11 Cu1 1_555 1_555
C1A H1A 1_555 1_555
H2A C1A 1_555 1_555
C2A C1A 1_555 1_555
C3A C2A 1_555 1_555
C4A C3A 1_555 1_555
H3A C4A 1_555 1_555
H4A C4A 1_555 1_555
H5A C4A 1_555 1_555
C5A C3A 1_555 1_555
C6A C5A 1_555 1_555
H6A C6A 1_555 1_555
H7A C6A 1_555 1_555
C7A C5A 1_555 1_555
C8A C7A 1_555 1_555
H8A C8A 1_555 1_555
H9A C8A 1_555 1_555
H10A C8A 1_555 1_555
C9A C7A 1_555 1_555
C10A C9A 1_555 1_555
H11A C10A 1_555 1_555
H12A C10A 1_555 1_555
C11A C2A 1_555 1_555
C12A C11A 1_555 1_555
H13A C12A 1_555 1_555
H14A C12A 1_555 1_555
H15A C12A 1_555 1_555
Cu1A O3 1_555 1_555
Cu1_2 O7 1_555 1_555
Cu1A_2 O7A 1_555 1_555
Cu2A O1 1_555 1_555
Cu2_2 O6A 1_555 1_555
Cu2_3 O4 1_555 1_555
Cu2A_2 O4A 1_555 1_555
Cu2A_3 O6 1_555 1_555
P1A C1A 1_555 1_555
P2A C6A 1_555 1_555
P3A C10A 1_555 1_555
O1A Cu2 1_555 1_555
O2A Cu2A 1_555 1_555
O3A Cu1 1_555 1_555
O4A P2A 1_555 1_555
O4_2 Cu2 1_555 1_555
O4A_2 Cu2A 1_555 1_555
O5A P2A 1_555 1_555
H16A O5A 1_555 1_555
O6A P2A 1_555 1_555
O6_2 Cu2A 1_555 1_555
O6A_2 Cu2 1_555 1_555
O7A P3A 1_555 1_555
O7_2 Cu1 1_555 1_555
O7A_2 Cu1A 1_555 1_555
O8A P3A 1_555 1_555
H17A O8A 1_555 1_555
O9A P3A 1_555 1_555
O10A Cu1A 1_555 1_555
O11A Cu1A 1_555 1_555
C9 C11 1_555 1_555
C9A C11A 1_555 1_555
Cu1A O1A 1_555 1_555
P1A O1A 1_555 1_555
P1A O2A 1_555 1_555
P1A O3A 1_555 1_555

#END
