
#######################################################################
#
#                 Cambridge Crystallographic Data Centre
#                                CCDC 
#
#######################################################################
#
# If this CIF has been generated from an entry in the Cambridge 
# Structural Database, then it will include bibliographic, chemical, 
# crystal, experimental, refinement or atomic coordinate data resulting 
# from the CCDC's data processing and validation procedures.
#
#######################################################################

data_KAVTAE
_symmetry_cell_setting           triclinic
_symmetry_space_group_name_H-M   'P -1'
_symmetry_Int_Tables_number      2
_space_group_name_Hall           '-P 1'
loop_
_symmetry_equiv_pos_site_id
_symmetry_equiv_pos_as_xyz
1 x,y,z
2 -x,-y,-z
_cell_length_a                   10.677(2)
_cell_length_b                   10.741(2)
_cell_length_c                   12.069(2)
_cell_angle_alpha                81.66(3)
_cell_angle_beta                 89.72(3)
_cell_angle_gamma                68.68(3)
_cell_volume                     1274.02
loop_
_atom_site_label
_atom_site_type_symbol
_atom_site_fract_x
_atom_site_fract_y
_atom_site_fract_z
Zn1 Zn 0.70720(3) 0.09275(3) 0.48905(2)
O1 O 0.8265(2) 0.1926(2) 0.49646(17)
O2 O 0.7461(3) 0.2252(2) 0.6628(2)
O3 O 0.4519(2) 0.7069(2) 0.6629(2)
O4 O 0.4880(2) 0.8181(2) 0.50672(17)
N1 N 0.7695(2) -0.0059(2) 0.35419(17)
N2 N 0.7585(2) -0.0628(2) -0.37848(17)
C1 C 0.8818(3) 0.3506(3) 0.5845(2)
H1 H 0.9807 0.3005 0.5811
C2 C 0.8601(3) 0.4189(3) 0.6892(2)
H2 H 0.8810 0.3485 0.7564
H3 H 0.9236 0.4666 0.6914
C3 C 0.7172(3) 0.5195(3) 0.6940(2)
H4 H 0.6550 0.4698 0.7048
H5 H 0.7124 0.5668 0.7594
C4 C 0.6720(2) 0.6233(2) 0.5884(2)
H6 H 0.7315 0.6773 0.5828
C5 C 0.6902(3) 0.5532(3) 0.4843(2)
H7 H 0.6299 0.5015 0.4862
H8 H 0.6647 0.6223 0.4162
C6 C 0.8354(3) 0.4578(3) 0.4791(2)
H9 H 0.8947 0.5108 0.4711
H10 H 0.8436 0.4123 0.4123
C7 C 0.8123(3) 0.2488(3) 0.5843(2)
C8 C 0.5275(3) 0.7215(3) 0.5886(2)
C9 C 0.7343(3) -0.1072(3) 0.3332(2)
H11 H 0.6827 -0.1397 0.3859
C10 C 0.7694(3) -0.1670(3) 0.2383(2)
H12 H 0.7419 -0.2392 0.2269
C11 C 0.8440(2) -0.1229(3) 0.1599(2)
C12 C 0.8809(3) -0.0180(3) 0.1823(3)
H13 H 0.9331 0.0159 0.1313
C13 C 0.8418(4) 0.0373(3) 0.2786(3)
H14 H 0.8676 0.1099 0.2919
C14 C 0.8852(3) -0.1508(3) -0.3608(2)
H15 H 0.9470 -0.1500 -0.4175
C15 C 0.9300(3) -0.2422(3) -0.2643(2)
H16 H 1.0211 -0.3028 -0.2553
C16 C 0.8430(3) -0.2465(2) -0.1805(2)
C17 C 0.7115(3) -0.1559(3) -0.2008(2)
H17 H 0.6470 -0.1558 -0.1463
C18 C 0.6736(3) -0.0668(3) -0.2985(2)
H18 H 0.5830 -0.0051 -0.3096
C19 C 0.8864(3) -0.1822(3) 0.0538(2)
H19 H 0.8539 -0.1080 -0.0106
H20 H 0.9860 -0.2185 0.0550
C20 C 0.8380(3) -0.2925(3) 0.0335(2)
H21 H 0.7384 -0.2568 0.0292
H22 H 0.8694 -0.3673 0.0975
C21 C 0.8894(3) -0.3471(3) -0.0747(2)
H23 H 0.9890 -0.3832 -0.0690
H24 H 0.8604 -0.4236 -0.0809
Zn1A Zn 0.29280(3) 0.90725(3) 0.51095(2)
Zn1_2 Zn 0.70720(3) 0.09275(3) -0.51095(2)
Zn1A_2 Zn 0.29280(3) 0.90725(3) 1.51095(2)
O1A O 0.1735(2) 0.8074(2) 0.50354(17)
O2A O 0.2539(3) 0.7748(2) 0.3372(2)
O3A O 0.5481(2) 0.2931(2) 0.3371(2)
O4A O 0.5120(2) 0.1819(2) 0.49328(17)
N1A N 0.2305(2) 1.0059(2) 0.64581(17)
N2A N 0.2415(2) 1.0628(2) 1.37848(17)
N2_2 N 0.7585(2) -0.0628(2) 0.62152(17)
N2A_2 N 0.2415(2) 1.0628(2) 0.37848(17)
C1A C 0.1182(3) 0.6494(3) 0.4155(2)
H1A H 0.0193 0.6995 0.4189
C2A C 0.1399(3) 0.5811(3) 0.3108(2)
H2A H 0.1190 0.6515 0.2436
H3A H 0.0764 0.5334 0.3086
C3A C 0.2828(3) 0.4805(3) 0.3060(2)
H4A H 0.3450 0.5302 0.2952
H5A H 0.2876 0.4332 0.2406
C4A C 0.3280(2) 0.3767(2) 0.4116(2)
H6A H 0.2685 0.3227 0.4172
C5A C 0.3098(3) 0.4468(3) 0.5157(2)
H7A H 0.3701 0.4985 0.5138
H8A H 0.3353 0.3777 0.5838
C6A C 0.1646(3) 0.5422(3) 0.5209(2)
H9A H 0.1053 0.4892 0.5289
H10A H 0.1564 0.5877 0.5877
C7A C 0.1877(3) 0.7512(3) 0.4157(2)
C8A C 0.4725(3) 0.2785(3) 0.4114(2)
C9A C 0.2657(3) 1.1072(3) 0.6668(2)
H11A H 0.3173 1.1397 0.6141
C10A C 0.2306(3) 1.1670(3) 0.7617(2)
H12A H 0.2581 1.2392 0.7731
C11A C 0.1560(2) 1.1229(3) 0.8401(2)
C12A C 0.1191(3) 1.0180(3) 0.8177(3)
H13A H 0.0669 0.9841 0.8687
C13A C 0.1582(4) 0.9627(3) 0.7214(3)
H14A H 0.1324 0.8901 0.7081
C14A C 0.1148(3) 1.1508(3) 1.3608(2)
H15A H 0.0530 1.1500 1.4175
C15A C 0.0700(3) 1.2422(3) 1.2643(2)
H16A H -0.0211 1.3028 1.2553
C16A C 0.1570(3) 1.2465(2) 1.1805(2)
C17A C 0.2885(3) 1.1559(3) 1.2008(2)
H17A H 0.3530 1.1558 1.1463
C18A C 0.3264(3) 1.0668(3) 1.2985(2)
H18A H 0.4170 1.0051 1.3096
C19A C 0.1136(3) 1.1822(3) 0.9462(2)
H19A H 0.1461 1.1080 1.0106
H20A H 0.0140 1.2185 0.9450
C20A C 0.1620(3) 1.2925(3) 0.9665(2)
H21A H 0.2616 1.2568 0.9708
H22A H 0.1306 1.3673 0.9025
C21A C 0.1106(3) 1.3471(3) 1.0747(2)
H23A H 0.0110 1.3832 1.0690
H24A H 0.1396 1.4236 1.0809
O5 O 0.5123(3) 0.7255(4) 0.2288(3)
H25 H 0.437(2) 0.726(4) 0.204(4)
H26 H 0.573(3) 0.648(2) 0.231(4)
O6 O 0.4453(3) 0.8977(3) 0.0230(3)
H27 H 0.509(2) 0.887(3) 0.0674(14)
H28 H 0.461(4) 0.840(3) -0.020(3)
O7 O 0.6926(4) 0.4555(5) 0.2238(3)
H29 H 0.735(3) 0.481(2) 0.171(3)
H30 H 0.6264(19) 0.440(3) 0.197(3)
O8 O 0.2110(3) 0.8264(5) 0.0967(3)
H31 H 0.277(3) 0.849(5) 0.073(3)
H32 H 0.220(4) 0.804(5) 0.1677(10)
O9 O 0.4921(4) 0.3213(5) 0.0995(3)
H33 H 0.510(5) 0.320(5) 0.1692(11)
H34 H 0.547(4) 0.348(5) 0.060(3)
O10 O 0.7122(6) 0.4178(6) -0.0003(3)
H35 H 0.6453(18) 0.469(3) -0.042(3)
H36 H 0.754(5) 0.344(3) -0.023(5)
loop_
_geom_bond_atom_site_label_1
_geom_bond_atom_site_label_2
_geom_bond_site_symmetry_1
_geom_bond_site_symmetry_2
Zn1 O1 1_555 1_555
O1 C7 1_555 1_555
O2 C7 1_555 1_555
O3 C8 1_555 1_555
O4 C8 1_555 1_555
N1 Zn1 1_555 1_555
N2 C14 1_555 1_555
C1 H1 1_555 1_555
C2 C1 1_555 1_555
H2 C2 1_555 1_555
H3 C2 1_555 1_555
C3 C2 1_555 1_555
H4 C3 1_555 1_555
H5 C3 1_555 1_555
C4 C3 1_555 1_555
H6 C4 1_555 1_555
C5 C4 1_555 1_555
H7 C5 1_555 1_555
H8 C5 1_555 1_555
C6 C1 1_555 1_555
H9 C6 1_555 1_555
H10 C6 1_555 1_555
C7 C1 1_555 1_555
C8 C4 1_555 1_555
C9 N1 1_555 1_555
H11 C9 1_555 1_555
C10 C9 1_555 1_555
H12 C10 1_555 1_555
C11 C10 1_555 1_555
C12 C11 1_555 1_555
H13 C12 1_555 1_555
C13 N1 1_555 1_555
H14 C13 1_555 1_555
C14 H15 1_555 1_555
C15 C14 1_555 1_555
H16 C15 1_555 1_555
C16 C15 1_555 1_555
C17 C16 1_555 1_555
H17 C17 1_555 1_555
C18 N2 1_555 1_555
H18 C18 1_555 1_555
C19 C11 1_555 1_555
H19 C19 1_555 1_555
H20 C19 1_555 1_555
C20 C19 1_555 1_555
H21 C20 1_555 1_555
H22 C20 1_555 1_555
C21 C16 1_555 1_555
H23 C21 1_555 1_555
H24 C21 1_555 1_555
O5 H25 1_555 1_555
H26 O5 1_555 1_555
O6 H27 1_555 1_555
H28 O6 1_555 1_555
O7 H29 1_555 1_555
H30 O7 1_555 1_555
O8 H31 1_555 1_555
H32 O8 1_555 1_555
O9 H33 1_555 1_555
H34 O9 1_555 1_555
O10 H35 1_555 1_555
H36 O10 1_555 1_555
Zn1A O4 1_555 1_555
Zn1_2 N2 1_555 1_555
Zn1A_2 N2A 1_555 1_555
O1A Zn1A 1_555 1_555
O2A C7A 1_555 1_555
O3A C8A 1_555 1_555
O4A Zn1 1_555 1_555
N1A Zn1A 1_555 1_555
N2A C14A 1_555 1_555
N2_2 Zn1 1_555 1_555
N2A_2 Zn1A 1_555 1_555
C1A H1A 1_555 1_555
C2A C1A 1_555 1_555
H2A C2A 1_555 1_555
H3A C2A 1_555 1_555
C3A C2A 1_555 1_555
H4A C3A 1_555 1_555
H5A C3A 1_555 1_555
C4A C3A 1_555 1_555
H6A C4A 1_555 1_555
C5A C4A 1_555 1_555
H7A C5A 1_555 1_555
H8A C5A 1_555 1_555
C6A C1A 1_555 1_555
H9A C6A 1_555 1_555
H10A C6A 1_555 1_555
C7A O1A 1_555 1_555
C8A O4A 1_555 1_555
C9A N1A 1_555 1_555
H11A C9A 1_555 1_555
C10A C9A 1_555 1_555
H12A C10A 1_555 1_555
C11A C10A 1_555 1_555
C12A C11A 1_555 1_555
H13A C12A 1_555 1_555
C13A N1A 1_555 1_555
H14A C13A 1_555 1_555
C14A H15A 1_555 1_555
C15A C14A 1_555 1_555
H16A C15A 1_555 1_555
C16A C15A 1_555 1_555
C17A C16A 1_555 1_555
H17A C17A 1_555 1_555
C18A N2A 1_555 1_555
H18A C18A 1_555 1_555
C19A C11A 1_555 1_555
H19A C19A 1_555 1_555
H20A C19A 1_555 1_555
C20A C19A 1_555 1_555
H21A C20A 1_555 1_555
H22A C20A 1_555 1_555
C21A C16A 1_555 1_555
H23A C21A 1_555 1_555
H24A C21A 1_555 1_555
C5 C6 1_555 1_555
C12 C13 1_555 1_555
C17 C18 1_555 1_555
C20 C21 1_555 1_555
C1A C7A 1_555 1_555
C4A C8A 1_555 1_555
C5A C6A 1_555 1_555
C12A C13A 1_555 1_555
C17A C18A 1_555 1_555
C20A C21A 1_555 1_555

#END
