
#######################################################################
#
#                 Cambridge Crystallographic Data Centre
#                                CCDC 
#
#######################################################################
#
# If this CIF has been generated from an entry in the Cambridge 
# Structural Database, then it will include bibliographic, chemical, 
# crystal, experimental, refinement or atomic coordinate data resulting 
# from the CCDC's data processing and validation procedures.
#
#######################################################################

data_KAVTIM
_symmetry_cell_setting           orthorhombic
_symmetry_space_group_name_H-M   'P c a b'
_symmetry_Int_Tables_number      61
_space_group_name_Hall           '-P 2bc 2ac'
loop_
_symmetry_equiv_pos_site_id
_symmetry_equiv_pos_as_xyz
1 x,y,z
2 -x,1/2-y,1/2+z
3 1/2+x,-y,1/2-z
4 1/2-x,1/2+y,-z
5 -x,-y,-z
6 x,1/2+y,1/2-z
7 1/2-x,y,1/2+z
8 1/2+x,1/2-y,z
_cell_length_a                   10.0780(2)
_cell_length_b                   16.9209(3)
_cell_length_c                   20.2287(4)
_cell_angle_alpha                90
_cell_angle_beta                 90
_cell_angle_gamma                90
_cell_volume                     3449.58
loop_
_atom_site_label
_atom_site_type_symbol
_atom_site_fract_x
_atom_site_fract_y
_atom_site_fract_z
Co1 Co 0.10356(9) 0.43788(6) 0.43713(4)
Co2 Co -0.19413(10) 0.34484(6) 0.43916(5)
Co3 Co 0.02021(10) 0.56500(6) 0.05708(5)
P1 P 0.07273(17) 0.26335(11) 0.38130(8)
P2 P 0.29797(17) 0.08254(11) 0.07506(8)
P3 P 0.31620(16) 0.48291(10) 0.08950(8)
O1 O 0.1572(5) 0.3350(3) 0.4001(2)
O2 O -0.0650(5) 0.2664(3) 0.4126(2)
O3 O 0.1348(5) 0.1841(3) 0.4024(3)
O4 O 0.1959(5) 0.0250(3) 0.1054(3)
O5 O 0.4040(5) 0.0347(3) 0.0369(2)
O6 O 0.2348(5) 0.1449(3) 0.0307(2)
O7 O 0.3343(5) 0.4313(3) 0.0282(2)
O8 O 0.4107(5) 0.5565(3) 0.0844(2)
O9 O 0.1767(4) 0.5117(3) 0.1001(2)
O10 O -0.0974(5) 0.6424(3) 0.0050(2)
O11 O -0.0959(5) 0.5896(3) 0.1428(3)
C1 C 0.0457(6) 0.2637(4) 0.2932(3)
H1 H -0.0006 0.2152 0.2823
H2 H -0.0147 0.3068 0.2836
C2 C 0.1617(6) 0.2710(4) 0.2458(3)
C3 C 0.2211(6) 0.2009(4) 0.2211(3)
C4 C 0.1834(8) 0.1205(4) 0.2489(4)
H3 H 0.1142 0.1268 0.2811
H4 H 0.2596 0.0968 0.2694
H5 H 0.1526 0.0872 0.2137
C5 C 0.3802(7) 0.1310(4) 0.1428(3)
H6 H 0.3888 0.0929 0.1784
H7 H 0.4692 0.1444 0.1284
C6 C 0.3172(7) 0.2055(4) 0.1714(3)
C7 C 0.3622(7) 0.2794(4) 0.1482(3)
C8 C 0.4675(7) 0.2824(4) 0.0952(4)
H8 H 0.488 0.3364 0.0851
H9 H 0.4355 0.2564 0.0561
H10 H 0.546 0.2561 0.1106
C9 C 0.3725(7) 0.4284(4) 0.1610(3)
H11 H 0.4672 0.4199 0.156
H12 H 0.3604 0.4619 0.1994
C10 C 0.3093(6) 0.3491(4) 0.1762(3)
C11 C 0.2057(6) 0.3445(4) 0.2232(3)
C12 C 0.1461(7) 0.4212(4) 0.2481(3)
H13 H 0.1214 0.4536 0.2112
H14 H 0.2102 0.4486 0.2747
H15 H 0.0689 0.4098 0.2743
Co1B Co 0.60356(9) 0.56212(6) 0.06287(4)
Co1E Co 0.10356(9) -0.06212(6) 0.06287(4)
Co1F Co 0.39644(9) 0.43788(6) -0.06287(4)
Co2A Co 0.19413(10) 0.15516(6) -0.06084(5)
Co2B Co 0.30587(10) 0.65516(6) 0.06084(5)
Co2G Co 0.30587(10) 0.15516(6) 0.43916(5)
Co3C Co 0.47979(10) 0.06500(6) -0.05708(5)
Co3G Co 0.52021(10) -0.06500(6) 0.05708(5)
O3G O -0.3652(5) 0.3159(3) 0.4024(3)
O4E O 0.1959(5) 0.5250(3) 0.3946(3)
O5C O 0.0960(5) 0.5347(3) -0.0369(2)
O5G O -0.0960(5) 0.4653(3) 0.0369(2)
O6A O -0.2348(5) 0.3551(3) 0.5307(2)
O7F O 0.1657(5) 0.4313(3) 0.5282(2)
O8B O -0.0893(5) 0.4435(3) 0.4156(2)
loop_
_geom_bond_atom_site_label_1
_geom_bond_atom_site_label_2
_geom_bond_site_symmetry_1
_geom_bond_site_symmetry_2
Co1 O1 1_555 1_555
Co2 O2 1_555 1_555
Co3 O9 1_555 1_555
P1 O1 1_555 1_555
P2 O4 1_555 1_555
P3 O7 1_555 1_555
O2 P1 1_555 1_555
O3 P1 1_555 1_555
O4 Co1E 1_555 1_555
O5 P2 1_555 1_555
O6 P2 1_555 1_555
O7 Co1F 1_555 1_555
O8 P3 1_555 1_555
O9 P3 1_555 1_555
O10 Co3 1_555 1_555
O11 Co3 1_555 1_555
C1 P1 1_555 1_555
H1 C1 1_555 1_555
H2 C1 1_555 1_555
C2 C1 1_555 1_555
C3 C2 1_555 1_555
C4 C3 1_555 1_555
H3 C4 1_555 1_555
H4 C4 1_555 1_555
H5 C4 1_555 1_555
C5 P2 1_555 1_555
H6 C5 1_555 1_555
H7 C5 1_555 1_555
C6 C3 1_555 1_555
C7 C6 1_555 1_555
C8 C7 1_555 1_555
H8 C8 1_555 1_555
H9 C8 1_555 1_555
H10 C8 1_555 1_555
C9 P3 1_555 1_555
H11 C9 1_555 1_555
H12 C9 1_555 1_555
C10 C7 1_555 1_555
C11 C2 1_555 1_555
C12 C11 1_555 1_555
H13 C12 1_555 1_555
H14 C12 1_555 1_555
H15 C12 1_555 1_555
Co1B O8 1_555 1_555
Co2A O6 1_555 1_555
Co2B O8 1_555 1_555
Co2G O3 1_555 1_555
Co3C O5 1_555 1_555
Co3G O5 1_555 1_555
O3G Co2 1_555 1_555
O4E Co1 1_555 1_555
O5C Co3 1_555 1_555
O5G Co3 1_555 1_555
O6A Co2 1_555 1_555
O7F Co1 1_555 1_555
O8B Co1 1_555 1_555
Co2 O8B 1_555 1_555
C5 C6 1_555 1_555
C9 C10 1_555 1_555
C10 C11 1_555 1_555

#END
