
#######################################################################
#
#                 Cambridge Crystallographic Data Centre
#                                CCDC 
#
#######################################################################
#
# If this CIF has been generated from an entry in the Cambridge 
# Structural Database, then it will include bibliographic, chemical, 
# crystal, experimental, refinement or atomic coordinate data resulting 
# from the CCDC's data processing and validation procedures.
#
#######################################################################

data_KAVVAG
_symmetry_cell_setting           orthorhombic
_symmetry_space_group_name_H-M   'P b c a'
_symmetry_Int_Tables_number      61
_space_group_name_Hall           '-P 2ac 2ab'
loop_
_symmetry_equiv_pos_site_id
_symmetry_equiv_pos_as_xyz
1 x,y,z
2 1/2-x,-y,1/2+z
3 -x,1/2+y,1/2-z
4 1/2+x,1/2-y,-z
5 -x,-y,-z
6 1/2+x,y,1/2-z
7 x,1/2-y,1/2+z
8 1/2-x,1/2+y,z
_cell_length_a                   19.249(4)
_cell_length_b                   7.6441(15)
_cell_length_c                   26.522(5)
_cell_angle_alpha                90
_cell_angle_beta                 90
_cell_angle_gamma                90
_cell_volume                     3902.48
loop_
_atom_site_label
_atom_site_type_symbol
_atom_site_fract_x
_atom_site_fract_y
_atom_site_fract_z
Mn1 Mn 0.19805(2) 0.27632(5) 0.020216(15)
O1 O 0.16877(11) 0.0927(3) 0.07784(7)
O2 O 0.20951(10) -0.1729(3) 0.05771(7)
O3 O 0.17210(10) -0.6101(3) 0.46050(7)
O4 O 0.27503(10) -0.4753(3) 0.46383(7)
O5 O 0.09914(11) 0.0208(3) 0.30600(7)
O6 O 0.12291(11) 0.2286(3) 0.25287(8)
O7 O 0.00451(13) -0.4504(5) 0.33564(10)
O8 O 0.03646(11) -0.3704(4) 0.26180(8)
N1 N 0.12057(12) 0.0730(3) 0.26489(8)
N2 N 0.04905(13) -0.4009(4) 0.30590(9)
N3 N 0.10997(12) 0.4277(3) 0.04533(9)
N4 N 0.03736(12) 0.6491(3) 0.05579(9)
C1 C 0.16109(14) -0.2277(4) 0.24313(10)
C2 C 0.14454(13) -0.0583(4) 0.22807(10)
C3 C 0.15035(13) -0.0044(4) 0.17807(10)
H1 H 0.1400 0.1104 0.1692
C4 C 0.17167(13) -0.1232(4) 0.14159(10)
C5 C 0.18550(14) -0.2962(4) 0.15541(10)
H2 H 0.1980 -0.3776 0.1310
C6 C 0.18058(15) -0.3470(4) 0.20561(11)
H3 H 0.1904 -0.4621 0.2144
C7 C 0.18383(13) -0.0629(4) 0.08798(10)
C8 C 0.16958(14) -0.2872(4) 0.29673(10)
C9 C 0.11989(14) -0.3764(4) 0.32531(10)
C10 C 0.13431(14) -0.4419(4) 0.37291(10)
H4 H 0.0999 -0.4993 0.3911
C11 C 0.20028(14) -0.4218(3) 0.39348(10)
C12 C 0.25044(14) -0.3300(4) 0.36628(9)
H5 H 0.2945 -0.3136 0.3799
C13 C 0.23483(14) -0.2629(4) 0.31881(10)
H6 H 0.2686 -0.2005 0.3014
C14 C 0.21749(14) -0.5065(3) 0.44330(10)
C15 C 0.08924(14) 0.5815(4) 0.02749(11)
H7 H 0.1080 0.6357 -0.0008
C16 C 0.06866(16) 0.3953(4) 0.08738(11)
H8 H 0.0711 0.2962 0.1076
C17 C 0.02423(16) 0.5313(4) 0.09415(11)
H9 H -0.0086 0.5429 0.1196
C18 C 0.00216(15) 0.8195(4) 0.05006(11)
H10 H 0.0143 0.8934 0.0785
H11 H -0.0477 0.8011 0.0509
C19 C 0.02074(15) 0.9138(4) 0.00186(11)
H12 H 0.0101 0.8400 -0.0269
H13 H 0.0701 0.9389 0.0014
Mn1D Mn -0.19805(2) 1.72368(5) -0.020216(15)
Mn1A Mn 0.30195(2) -0.27632(5) 0.520216(15)
Mn1B Mn -0.19805(2) 2.77632(5) -0.520216(15)
Mn1C Mn -0.30195(2) 2.22368(5) -0.020216(15)
Mn1E Mn -0.30195(2) 2.27632(5) -0.520216(15)
Mn1F Mn 0.19805(2) -0.77632(5) 0.520216(15)
Mn1G Mn 0.30195(2) -0.22368(5) 0.020216(15)
O1D O -0.16877(11) 1.9073(3) -0.07784(7)
O2D O -0.20951(10) 2.1729(3) -0.05771(7)
O2C O -0.29049(10) 1.6729(3) -0.05771(7)
O2G O 0.29049(10) 0.3271(3) 0.05771(7)
O3D O -0.17210(10) 2.6101(3) -0.46050(7)
O3B O -0.17210(10) 1.8899(3) 0.03950(7)
O3F O 0.17210(10) 0.1101(3) -0.03950(7)
O4D O -0.27503(10) 2.4753(3) -0.46383(7)
O4A O 0.22497(10) 0.4753(3) -0.03617(7)
O4E O -0.22497(10) 1.5247(3) 0.03617(7)
O5D O -0.09914(11) 1.9792(3) -0.30600(7)
O6D O -0.12291(11) 1.7714(3) -0.25287(8)
O7D O -0.00451(13) 2.4504(5) -0.33564(10)
O8D O -0.03646(11) 2.3704(4) -0.26180(8)
N1D N -0.12057(12) 1.9270(3) -0.26489(8)
N2D N -0.04905(13) 2.4009(4) -0.30590(9)
N3D N -0.10997(12) 1.5723(3) -0.04533(9)
N4D N -0.03736(12) 1.3509(3) -0.05579(9)
C1D C -0.16109(14) 2.2277(4) -0.24313(10)
C2D C -0.14454(13) 2.0583(4) -0.22807(10)
C3D C -0.15035(13) 2.0044(4) -0.17807(10)
H1D H -0.1400 1.8896 -0.1692
C4D C -0.17167(13) 2.1232(4) -0.14159(10)
C5D C -0.18550(14) 2.2962(4) -0.15541(10)
H2D H -0.1980 2.3776 -0.1310
C6D C -0.18058(15) 2.3470(4) -0.20561(11)
H3D H -0.1904 2.4621 -0.2144
C7D C -0.18383(13) 2.0629(4) -0.08798(10)
C8D C -0.16958(14) 2.2872(4) -0.29673(10)
C9D C -0.11989(14) 2.3764(4) -0.32531(10)
C10D C -0.13431(14) 2.4419(4) -0.37291(10)
H4D H -0.0999 2.4993 -0.3911
C11D C -0.20028(14) 2.4218(3) -0.39348(10)
C12D C -0.25044(14) 2.3300(4) -0.36628(9)
H5D H -0.2945 2.3136 -0.3799
C13D C -0.23483(14) 2.2629(4) -0.31881(10)
H6D H -0.2686 2.2005 -0.3014
C14D C -0.21749(14) 2.5065(3) -0.44330(10)
C15D C -0.08924(14) 1.4185(4) -0.02749(11)
H7D H -0.1080 1.3643 0.0008
C16D C -0.06866(16) 1.6047(4) -0.08738(11)
H8D H -0.0711 1.7038 -0.1076
C17D C -0.02423(16) 1.4687(4) -0.09415(11)
H9D H 0.0086 1.4571 -0.1196
C18D C -0.00216(15) 1.1805(4) -0.05006(11)
H10D H -0.0143 1.1066 -0.0785
H11D H 0.0477 1.1989 -0.0509
C19D C -0.02074(15) 1.0862(4) -0.00186(11)
H12D H -0.0101 1.1600 0.0269
H13D H -0.0701 1.0611 -0.0014
loop_
_geom_bond_atom_site_label_1
_geom_bond_atom_site_label_2
_geom_bond_site_symmetry_1
_geom_bond_site_symmetry_2
Mn1 O1 1_555 1_555
O1 C7 1_555 1_555
O2 C7 1_555 1_555
O3 C14 1_555 1_555
O4 C14 1_555 1_555
O5 N1 1_555 1_555
O6 N1 1_555 1_555
O7 N2 1_555 1_555
O8 N2 1_555 1_555
N1 C2 1_555 1_555
N2 C9 1_555 1_555
N3 Mn1 1_555 1_555
N4 C15 1_555 1_555
C1 C2 1_555 1_555
C2 C3 1_555 1_555
C3 H1 1_555 1_555
C4 C3 1_555 1_555
C5 C4 1_555 1_555
H2 C5 1_555 1_555
C6 C1 1_555 1_555
H3 C6 1_555 1_555
C7 C4 1_555 1_555
C8 C1 1_555 1_555
C9 C8 1_555 1_555
C10 C9 1_555 1_555
H4 C10 1_555 1_555
C11 C10 1_555 1_555
C12 C11 1_555 1_555
H5 C12 1_555 1_555
C13 C8 1_555 1_555
H6 C13 1_555 1_555
C14 C11 1_555 1_555
C15 N3 1_555 1_555
H7 C15 1_555 1_555
C16 N3 1_555 1_555
H8 C16 1_555 1_555
C17 N4 1_555 1_555
H9 C17 1_555 1_555
C18 N4 1_555 1_555
H10 C18 1_555 1_555
H11 C18 1_555 1_555
C19 C18 1_555 1_555
H12 C19 1_555 1_555
H13 C19 1_555 1_555
Mn1D O1D 1_555 1_555
Mn1A O4 1_555 1_555
Mn1B O3D 1_555 1_555
Mn1C O2D 1_555 1_555
Mn1E O4D 1_555 1_555
Mn1F O3 1_555 1_555
Mn1G O2 1_555 1_555
O1D C7D 1_555 1_555
O2D C7D 1_555 1_555
O2C Mn1D 1_555 1_555
O2G Mn1 1_555 1_555
O3D C14D 1_555 1_555
O3B Mn1D 1_555 1_555
O3F Mn1 1_555 1_555
O4D C14D 1_555 1_555
O4A Mn1 1_555 1_555
O4E Mn1D 1_555 1_555
O5D N1D 1_555 1_555
O6D N1D 1_555 1_555
O7D N2D 1_555 1_555
O8D N2D 1_555 1_555
N1D C2D 1_555 1_555
N2D C9D 1_555 1_555
N3D Mn1D 1_555 1_555
N4D C15D 1_555 1_555
C1D C2D 1_555 1_555
C2D C3D 1_555 1_555
C3D H1D 1_555 1_555
C4D C3D 1_555 1_555
C5D C4D 1_555 1_555
H2D C5D 1_555 1_555
C6D C1D 1_555 1_555
H3D C6D 1_555 1_555
C7D C4D 1_555 1_555
C8D C1D 1_555 1_555
C9D C8D 1_555 1_555
C10D C9D 1_555 1_555
H4D C10D 1_555 1_555
C11D C10D 1_555 1_555
C12D C11D 1_555 1_555
H5D C12D 1_555 1_555
C13D C8D 1_555 1_555
H6D C13D 1_555 1_555
C14D C11D 1_555 1_555
C15D N3D 1_555 1_555
H7D C15D 1_555 1_555
C16D N3D 1_555 1_555
H8D C16D 1_555 1_555
C17D N4D 1_555 1_555
H9D C17D 1_555 1_555
C18D N4D 1_555 1_555
H10D C18D 1_555 1_555
H11D C18D 1_555 1_555
C19D C19 1_555 1_555
H12D C19D 1_555 1_555
H13D C19D 1_555 1_555
C5 C6 1_555 1_555
C12 C13 1_555 1_555
C16 C17 1_555 1_555
C5D C6D 1_555 1_555
C12D C13D 1_555 1_555
C16D C17D 1_555 1_555
C18D C19D 1_555 1_555

#END
