
#######################################################################
#
#                 Cambridge Crystallographic Data Centre
#                                CCDC 
#
#######################################################################
#
# If this CIF has been generated from an entry in the Cambridge 
# Structural Database, then it will include bibliographic, chemical, 
# crystal, experimental, refinement or atomic coordinate data resulting 
# from the CCDC's data processing and validation procedures.
#
#######################################################################

data_KAVVUA
_symmetry_cell_setting           orthorhombic
_symmetry_space_group_name_H-M   'P b c a'
_symmetry_Int_Tables_number      61
_space_group_name_Hall           '-P 2ac 2ab'
loop_
_symmetry_equiv_pos_site_id
_symmetry_equiv_pos_as_xyz
1 x,y,z
2 1/2-x,-y,1/2+z
3 -x,1/2+y,1/2-z
4 1/2+x,1/2-y,-z
5 -x,-y,-z
6 1/2+x,y,1/2-z
7 x,1/2-y,1/2+z
8 1/2-x,1/2+y,z
_cell_length_a                   19.237(4)
_cell_length_b                   7.5997(15)
_cell_length_c                   26.035(5)
_cell_angle_alpha                90
_cell_angle_beta                 90
_cell_angle_gamma                90
_cell_volume                     3806.2
loop_
_atom_site_label
_atom_site_type_symbol
_atom_site_fract_x
_atom_site_fract_y
_atom_site_fract_z
Zn1 Zn 0.197420(19) 0.78752(5) 1.020060(13)
O1 O 0.17458(12) 0.6346(3) 0.96139(8)
O2 O 0.27779(12) 0.4978(3) 0.96414(8)
O3 O 0.21156(11) 0.1695(3) 0.55344(8)
O4 O 0.17359(13) -0.0992(3) 0.57640(8)
O5 O 0.00369(15) 0.4524(6) 0.83706(11)
O6 O 0.03651(13) 0.3873(4) 0.76082(9)
O7 O 0.12056(13) -0.2188(3) 0.75416(9)
O8 O 0.09784(13) -0.0057(3) 0.80688(8)
N1 N 0.04855(15) 0.4131(4) 0.80584(11)
N2 N 0.11905(14) -0.0619(4) 0.76545(10)
N3 N 0.11506(14) 0.9286(4) 1.04429(10)
N4 N 0.03943(14) 1.1437(4) 1.05441(10)
C1 C 0.16936(17) 0.3021(4) 0.79594(11)
C2 C 0.11994(17) 0.3907(5) 0.82528(12)
C3 C 0.13492(17) 0.4590(4) 0.87344(12)
H1 H 0.1007 0.5169 0.8921
C4 C 0.20141(17) 0.4402(4) 0.89363(11)
C5 C 0.25119(17) 0.3488(4) 0.86576(11)
H2 H 0.2956 0.3338 0.8792
C6 C 0.23501(17) 0.2794(4) 0.81770(11)
H3 H 0.2687 0.2166 0.7998
C7 C 0.22017(17) 0.5284(4) 0.94397(11)
C8 C 0.16029(16) 0.2390(4) 0.74157(11)
C9 C 0.14421(16) 0.0669(4) 0.72713(11)
C10 C 0.15112(16) 0.0086(4) 0.67696(12)
H4 H 0.1413 -0.1078 0.6687
C11 C 0.17283(16) 0.1248(4) 0.63914(11)
C12 C 0.18528(16) 0.3001(4) 0.65181(12)
H5 H 0.1972 0.3803 0.6263
C13 C 0.17990(17) 0.3553(4) 0.70270(12)
H6 H 0.1896 0.4719 0.7109
C14 C 0.18680(16) 0.0586(4) 0.58510(11)
C15 C 0.09355(17) 1.0830(4) 1.02661(12)
H7 H 0.1132 1.1416 0.9988
C16 C 0.07181(19) 0.8894(4) 1.08573(13)
H8 H 0.0744 0.7884 1.1058
C17 C 0.02561(19) 1.0215(5) 1.09217(13)
H9 H -0.0088 1.0285 1.1172
C18 C 0.00261(18) 1.3121(4) 1.04893(13)
H10 H 0.0120 1.3836 1.0790
H11 H -0.0470 1.2891 1.0481
C19 C 0.02215(18) 1.4157(5) 1.00162(13)
H12 H 0.0146 1.3444 0.9712
H13 H 0.0710 1.4466 1.0030
Zn1D Zn -0.197420(19) 2.21248(5) 0.979940(13)
Zn1A Zn 0.302580(19) 0.21248(5) 0.520060(13)
Zn1B Zn -0.197420(19) 3.28752(5) 1.479940(13)
Zn1C Zn -0.302580(19) 2.71248(5) 0.979940(13)
Zn1E Zn -0.302580(19) 2.78752(5) 1.479940(13)
Zn1F Zn 0.197420(19) -0.28752(5) 0.520060(13)
Zn1G Zn 0.302580(19) 0.28752(5) 1.020060(13)
O1D O -0.17458(12) 2.3654(3) 1.03861(8)
O2D O -0.27779(12) 2.5022(3) 1.03586(8)
O2C O -0.22221(12) 2.0022(3) 1.03586(8)
O2G O 0.22221(12) 0.9978(3) 0.96414(8)
O3D O -0.21156(11) 2.8305(3) 1.44656(8)
O3A O 0.28844(11) 0.8305(3) 1.05344(8)
O3E O -0.28844(11) 2.1695(3) 0.94656(8)
O4D O -0.17359(13) 3.0992(3) 1.42360(8)
O4B O -0.17359(13) 2.4008(3) 0.92360(8)
O4F O 0.17359(13) 0.5992(3) 1.07640(8)
O5D O -0.00369(15) 2.5476(6) 1.16294(11)
O6D O -0.03651(13) 2.6127(4) 1.23918(9)
O7D O -0.12056(13) 3.2188(3) 1.24584(9)
O8D O -0.09784(13) 3.0057(3) 1.19312(8)
N1D N -0.04855(15) 2.5869(4) 1.19416(11)
N2D N -0.11905(14) 3.0619(4) 1.23455(10)
N3D N -0.11506(14) 2.0714(4) 0.95571(10)
N4D N -0.03943(14) 1.8563(4) 0.94559(10)
C1D C -0.16936(17) 2.6979(4) 1.20406(11)
C2D C -0.11994(17) 2.6093(5) 1.17472(12)
C3D C -0.13492(17) 2.5410(4) 1.12656(12)
H1D H -0.1007 2.4831 1.1079
C4D C -0.20141(17) 2.5598(4) 1.10637(11)
C5D C -0.25119(17) 2.6512(4) 1.13424(11)
H2D H -0.2956 2.6662 1.1208
C6D C -0.23501(17) 2.7206(4) 1.18230(11)
H3D H -0.2687 2.7834 1.2002
C7D C -0.22017(17) 2.4716(4) 1.05603(11)
C8D C -0.16029(16) 2.7610(4) 1.25843(11)
C9D C -0.14421(16) 2.9331(4) 1.27287(11)
C10D C -0.15112(16) 2.9914(4) 1.32304(12)
H4D H -0.1413 3.1078 1.3313
C11D C -0.17283(16) 2.8752(4) 1.36086(11)
C12D C -0.18528(16) 2.6999(4) 1.34819(12)
H5D H -0.1972 2.6197 1.3737
C13D C -0.17990(17) 2.6447(4) 1.29730(12)
H6D H -0.1896 2.5281 1.2891
C14D C -0.18680(16) 2.9414(4) 1.41490(11)
C15D C -0.09355(17) 1.9170(4) 0.97339(12)
H7D H -0.1132 1.8584 1.0012
C16D C -0.07181(19) 2.1106(4) 0.91427(13)
H8D H -0.0744 2.2116 0.8942
C17D C -0.02561(19) 1.9785(5) 0.90783(13)
H9D H 0.0088 1.9715 0.8828
C18D C -0.00261(18) 1.6879(4) 0.95107(13)
H10D H -0.0120 1.6164 0.9210
H11D H 0.0470 1.7109 0.9519
C19D C -0.02215(18) 1.5843(5) 0.99838(13)
H12D H -0.0146 1.6556 1.0288
H13D H -0.0710 1.5534 0.9970
loop_
_geom_bond_atom_site_label_1
_geom_bond_atom_site_label_2
_geom_bond_site_symmetry_1
_geom_bond_site_symmetry_2
Zn1 O1 1_555 1_555
O1 C7 1_555 1_555
O2 C7 1_555 1_555
O3 C14 1_555 1_555
O4 C14 1_555 1_555
O5 N1 1_555 1_555
O6 N1 1_555 1_555
O7 N2 1_555 1_555
O8 N2 1_555 1_555
N1 C2 1_555 1_555
N2 C9 1_555 1_555
N3 Zn1 1_555 1_555
N4 C15 1_555 1_555
C1 C2 1_555 1_555
C2 C3 1_555 1_555
C3 H1 1_555 1_555
C4 C3 1_555 1_555
C5 C4 1_555 1_555
H2 C5 1_555 1_555
C6 C1 1_555 1_555
H3 C6 1_555 1_555
C7 C4 1_555 1_555
C8 C1 1_555 1_555
C9 C8 1_555 1_555
C10 C9 1_555 1_555
H4 C10 1_555 1_555
C11 C10 1_555 1_555
C12 C11 1_555 1_555
H5 C12 1_555 1_555
C13 C8 1_555 1_555
H6 C13 1_555 1_555
C14 C11 1_555 1_555
C15 N3 1_555 1_555
H7 C15 1_555 1_555
C16 N3 1_555 1_555
H8 C16 1_555 1_555
C17 N4 1_555 1_555
H9 C17 1_555 1_555
C18 N4 1_555 1_555
H10 C18 1_555 1_555
H11 C18 1_555 1_555
C19 C18 1_555 1_555
H12 C19 1_555 1_555
H13 C19 1_555 1_555
Zn1D O1D 1_555 1_555
Zn1A O3 1_555 1_555
Zn1B O4D 1_555 1_555
Zn1C O2D 1_555 1_555
Zn1E O3D 1_555 1_555
Zn1F O4 1_555 1_555
Zn1G O2 1_555 1_555
O1D C7D 1_555 1_555
O2D C7D 1_555 1_555
O2C Zn1D 1_555 1_555
O2G Zn1 1_555 1_555
O3D C14D 1_555 1_555
O3A Zn1 1_555 1_555
O3E Zn1D 1_555 1_555
O4D C14D 1_555 1_555
O4B Zn1D 1_555 1_555
O4F Zn1 1_555 1_555
O5D N1D 1_555 1_555
O6D N1D 1_555 1_555
O7D N2D 1_555 1_555
O8D N2D 1_555 1_555
N1D C2D 1_555 1_555
N2D C9D 1_555 1_555
N3D Zn1D 1_555 1_555
N4D C15D 1_555 1_555
C1D C2D 1_555 1_555
C2D C3D 1_555 1_555
C3D H1D 1_555 1_555
C4D C3D 1_555 1_555
C5D C4D 1_555 1_555
H2D C5D 1_555 1_555
C6D C1D 1_555 1_555
H3D C6D 1_555 1_555
C7D C4D 1_555 1_555
C8D C1D 1_555 1_555
C9D C8D 1_555 1_555
C10D C9D 1_555 1_555
H4D C10D 1_555 1_555
C11D C10D 1_555 1_555
C12D C11D 1_555 1_555
H5D C12D 1_555 1_555
C13D C8D 1_555 1_555
H6D C13D 1_555 1_555
C14D C11D 1_555 1_555
C15D N3D 1_555 1_555
H7D C15D 1_555 1_555
C16D N3D 1_555 1_555
H8D C16D 1_555 1_555
C17D N4D 1_555 1_555
H9D C17D 1_555 1_555
C18D N4D 1_555 1_555
H10D C18D 1_555 1_555
H11D C18D 1_555 1_555
C19D C19 1_555 1_555
H12D C19D 1_555 1_555
H13D C19D 1_555 1_555
C5 C6 1_555 1_555
C12 C13 1_555 1_555
C16 C17 1_555 1_555
C5D C6D 1_555 1_555
C12D C13D 1_555 1_555
C16D C17D 1_555 1_555
C18D C19D 1_555 1_555

#END
