
#######################################################################
#
#                 Cambridge Crystallographic Data Centre
#                                CCDC 
#
#######################################################################
#
# If this CIF has been generated from an entry in the Cambridge 
# Structural Database, then it will include bibliographic, chemical, 
# crystal, experimental, refinement or atomic coordinate data resulting 
# from the CCDC's data processing and validation procedures.
#
#######################################################################

data_KAVVOU
_symmetry_cell_setting           monoclinic
_symmetry_space_group_name_H-M   'P 21/c'
_symmetry_Int_Tables_number      14
_space_group_name_Hall           '-P 2ybc'
loop_
_symmetry_equiv_pos_site_id
_symmetry_equiv_pos_as_xyz
1 x,y,z
2 -x,1/2+y,1/2-z
3 -x,-y,-z
4 x,1/2-y,1/2+z
_cell_length_a                   8.2565(17)
_cell_length_b                   10.422(2)
_cell_length_c                   23.990(5)
_cell_angle_alpha                90
_cell_angle_beta                 96.68(3)
_cell_angle_gamma                90
_cell_volume                     2050.31
loop_
_atom_site_label
_atom_site_type_symbol
_atom_site_fract_x
_atom_site_fract_y
_atom_site_fract_z
Cu1 Cu -0.64595(6) 0.82533(6) 0.02669(2)
Cu2 Cu -1.0000 1.0000 0.0000
O1 O -0.7856(4) 0.7855(4) 0.08668(15)
O2 O -1.0301(4) 0.8672(4) 0.05430(16)
O3 O -1.5360(4) 0.6810(3) 0.45691(14)
O4 O -1.5542(4) 0.4734(3) 0.43143(14)
O5 O -0.8921(6) 0.6085(6) 0.32444(18)
O6 O -0.7419(5) 0.5519(5) 0.26239(19)
O7 O -1.4038(6) 0.3696(5) 0.24632(19)
O8 O -1.1748(5) 0.4413(4) 0.22641(16)
O9 O -0.7781(5) 0.9649(5) 0.0025(2)
N1 N -0.8612(6) 0.6069(5) 0.27685(19)
N2 N -1.2914(6) 0.4462(4) 0.25286(18)
N3 N -0.5135(5) 0.6765(4) 0.05465(17)
N4 N -0.3040(5) 0.5434(4) 0.06331(19)
C1 C -1.1329(6) 0.6988(4) 0.2411(2)
C2 C -0.9710(6) 0.6727(5) 0.23363(19)
C3 C -0.9053(5) 0.7073(5) 0.1853(2)
H1 H -0.7977 0.6869 0.1811
C4 C -1.0010(5) 0.7728(4) 0.14300(19)
C5 C -1.1617(5) 0.8021(5) 0.1502(2)
H2 H -1.2265 0.8467 0.1224
C6 C -1.2258(6) 0.7651(5) 0.1987(2)
H3 H -1.3335 0.7852 0.2028
C7 C -0.9315(6) 0.8133(5) 0.0906(2)
C8 C -1.2146(6) 0.6622(5) 0.2910(2)
C9 C -1.2979(6) 0.5471(5) 0.29524(19)
C10 C -1.3906(6) 0.5222(5) 0.3387(2)
H4 H -1.4429 0.4435 0.3405
C11 C -1.4054(6) 0.6140(5) 0.37938(19)
C12 C -1.3257(7) 0.7309(5) 0.3754(2)
H5 H -1.3351 0.7942 0.4021
C13 C -1.2329(7) 0.7539(5) 0.3320(2)
H6 H -1.1813 0.8329 0.3302
C14 C -1.5062(5) 0.5858(5) 0.42627(19)
C15 C -0.3724(6) 0.6483(5) 0.0370(2)
H7 H -0.3258 0.6947 0.0098
C16 C -0.5344(6) 0.5870(5) 0.0952(2)
H8 H -0.6230 0.5837 0.1158
C17 C -0.4068(6) 0.5043(5) 0.1008(2)
H9 H -0.3921 0.4348 0.1252
C18 C -0.1463(7) 0.4847(6) 0.0558(3)
H10 H -0.1587 0.3922 0.0539
H11 H -0.0682 0.5048 0.0880
C19 C -0.0818(6) 0.5315(6) 0.0033(3)
H12 H -0.0686 0.6239 0.0050
H13 H -0.1594 0.5113 -0.0291
H14 H -0.766(9) 1.000(7) -0.026(3)
Cu1B Cu -1.35405(6) 1.17467(6) -0.02669(2)
Cu1A Cu -1.35405(6) 0.32533(6) 0.47331(2)
Cu1A_2 Cu -0.35405(6) 1.32533(6) -0.52669(2)
Cu1B_2 Cu 0.64595(6) 0.17467(6) -0.02669(2)
Cu1C Cu -1.64595(6) 0.67467(6) 0.52669(2)
Cu1C_2 Cu -0.64595(6) 1.67467(6) -0.47331(2)
O1B O -1.2144(4) 1.2145(4) -0.08668(15)
O2B O -0.9699(4) 1.1328(4) -0.05430(16)
O3B O -0.4640(4) 1.3190(3) -0.45691(14)
O3A O -1.4640(4) 1.1810(3) 0.04309(14)
O3C O -0.5360(4) 0.8190(3) -0.04309(14)
O4B O -0.4458(4) 1.5266(3) -0.43143(14)
O4A O -0.4458(4) 0.9734(3) 0.06857(14)
O4C O -1.5542(4) 1.0266(3) -0.06857(14)
O5B O -1.1079(6) 1.3915(6) -0.32444(18)
O6B O -1.2581(5) 1.4481(5) -0.26239(19)
O7B O -0.5962(6) 1.6304(5) -0.24632(19)
O8B O -0.8252(5) 1.5587(4) -0.22641(16)
O9B O -1.2219(5) 1.0351(5) -0.0025(2)
N1B N -1.1388(6) 1.3931(5) -0.27685(19)
N2B N -0.7086(6) 1.5538(4) -0.25286(18)
N3B N 0.5135(5) 0.3235(4) -0.05465(17)
N3B_2 N -1.4865(5) 1.3235(4) -0.05465(17)
N4B N 0.3040(5) 0.4566(4) -0.06331(19)
C1B C -0.8671(6) 1.3012(4) -0.2411(2)
C2B C -1.0290(6) 1.3273(5) -0.23363(19)
C3B C -1.0947(5) 1.2927(5) -0.1853(2)
H1B H -1.2023 1.3131 -0.1811
C4B C -0.9990(5) 1.2272(4) -0.14300(19)
C5B C -0.8383(5) 1.1979(5) -0.1502(2)
H2B H -0.7735 1.1533 -0.1224
C6B C -0.7742(6) 1.2349(5) -0.1987(2)
H3B H -0.6665 1.2148 -0.2028
C7B C -1.0685(6) 1.1867(5) -0.0906(2)
C8B C -0.7854(6) 1.3378(5) -0.2910(2)
C9B C -0.7021(6) 1.4529(5) -0.29524(19)
C10B C -0.6094(6) 1.4778(5) -0.3387(2)
H4B H -0.5571 1.5565 -0.3405
C11B C -0.5946(6) 1.3860(5) -0.37938(19)
C12B C -0.6743(7) 1.2691(5) -0.3754(2)
H5B H -0.6649 1.2058 -0.4021
C13B C -0.7671(7) 1.2461(5) -0.3320(2)
H6B H -0.8187 1.1671 -0.3302
C14B C -0.4938(5) 1.4142(5) -0.42627(19)
C15B C 0.3724(6) 0.3517(5) -0.0370(2)
H7B H 0.3258 0.3053 -0.0098
C16B C 0.5344(6) 0.4130(5) -0.0952(2)
H8B H 0.6230 0.4163 -0.1158
C17B C 0.4068(6) 0.4957(5) -0.1008(2)
H9B H 0.3921 0.5652 -0.1252
C18B C 0.1463(7) 0.5153(6) -0.0558(3)
H10B H 0.1587 0.6078 -0.0539
H11B H 0.0682 0.4952 -0.0880
C19B C 0.0818(6) 0.4685(6) -0.0033(3)
H12B H 0.0686 0.3761 -0.0050
H13B H 0.1594 0.4887 0.0291
H14B H -1.234(9) 1.000(7) 0.026(3)
loop_
_geom_bond_atom_site_label_1
_geom_bond_atom_site_label_2
_geom_bond_site_symmetry_1
_geom_bond_site_symmetry_2
Cu1 O1 1_555 1_555
Cu2 O2 1_555 1_555
O1 C7 1_555 1_555
O2 C7 1_555 1_555
O3 C14 1_555 1_555
O4 C14 1_555 1_555
O5 N1 1_555 1_555
O6 N1 1_555 1_555
O7 N2 1_555 1_555
O8 N2 1_555 1_555
O9 Cu1 1_555 1_555
N1 C2 1_555 1_555
N2 C9 1_555 1_555
N3 Cu1 1_555 1_555
N4 C15 1_555 1_555
C1 C2 1_555 1_555
C2 C3 1_555 1_555
C3 H1 1_555 1_555
C4 C3 1_555 1_555
C5 C4 1_555 1_555
H2 C5 1_555 1_555
C6 C1 1_555 1_555
H3 C6 1_555 1_555
C7 C4 1_555 1_555
C8 C1 1_555 1_555
C9 C8 1_555 1_555
C10 C9 1_555 1_555
H4 C10 1_555 1_555
C11 C10 1_555 1_555
C12 C11 1_555 1_555
H5 C12 1_555 1_555
C13 C8 1_555 1_555
H6 C13 1_555 1_555
C14 C11 1_555 1_555
C15 N3 1_555 1_555
H7 C15 1_555 1_555
C16 N3 1_555 1_555
H8 C16 1_555 1_555
C17 N4 1_555 1_555
H9 C17 1_555 1_555
C18 N4 1_555 1_555
H10 C18 1_555 1_555
H11 C18 1_555 1_555
C19 C18 1_555 1_555
H12 C19 1_555 1_555
H13 C19 1_555 1_555
H14 O9 1_555 1_555
Cu1B O1B 1_555 1_555
Cu1A O4 1_555 1_555
Cu1A_2 O3B 1_555 1_555
Cu1B_2 N3B 1_555 1_555
Cu1C O3 1_555 1_555
Cu1C_2 O4B 1_555 1_555
O1B C7B 1_555 1_555
O2B Cu2 1_555 1_555
O3B C14B 1_555 1_555
O3A Cu1B 1_555 1_555
O3C Cu1 1_555 1_555
O4B C14B 1_555 1_555
O4A Cu1 1_555 1_555
O4C Cu1B 1_555 1_555
O5B N1B 1_555 1_555
O6B N1B 1_555 1_555
O7B N2B 1_555 1_555
O8B N2B 1_555 1_555
O9B Cu2 1_555 1_555
N1B C2B 1_555 1_555
N2B C9B 1_555 1_555
N3B C15B 1_555 1_555
N3B_2 Cu1B 1_555 1_555
N4B C15B 1_555 1_555
C1B C2B 1_555 1_555
C2B C3B 1_555 1_555
C3B H1B 1_555 1_555
C4B C3B 1_555 1_555
C5B C4B 1_555 1_555
H2B C5B 1_555 1_555
C6B C1B 1_555 1_555
H3B C6B 1_555 1_555
C7B O2B 1_555 1_555
C8B C1B 1_555 1_555
C9B C8B 1_555 1_555
C10B C9B 1_555 1_555
H4B C10B 1_555 1_555
C11B C10B 1_555 1_555
C12B C11B 1_555 1_555
H5B C12B 1_555 1_555
C13B C8B 1_555 1_555
H6B C13B 1_555 1_555
C14B C11B 1_555 1_555
C15B H7B 1_555 1_555
C16B N3B 1_555 1_555
H8B C16B 1_555 1_555
C17B N4B 1_555 1_555
H9B C17B 1_555 1_555
C18B N4B 1_555 1_555
H10B C18B 1_555 1_555
H11B C18B 1_555 1_555
C19B C19 1_555 1_555
H12B C19B 1_555 1_555
H13B C19B 1_555 1_555
H14B O9B 1_555 1_555
Cu2 O9 1_555 1_555
C5 C6 1_555 1_555
C12 C13 1_555 1_555
C16 C17 1_555 1_555
Cu1B O9B 1_555 1_555
C4B C7B 1_555 1_555
C5B C6B 1_555 1_555
C12B C13B 1_555 1_555
C16B C17B 1_555 1_555
C18B C19B 1_555 1_555

#END
