
#######################################################################
#
#                 Cambridge Crystallographic Data Centre
#                                CCDC 
#
#######################################################################
#
# If this CIF has been generated from an entry in the Cambridge 
# Structural Database, then it will include bibliographic, chemical, 
# crystal, experimental, refinement or atomic coordinate data resulting 
# from the CCDC's data processing and validation procedures.
#
#######################################################################

data_KAVWIP
_symmetry_cell_setting           monoclinic
_symmetry_space_group_name_H-M   'C 2/m'
_symmetry_Int_Tables_number      12
_space_group_name_Hall           '-C 2y'
loop_
_symmetry_equiv_pos_site_id
_symmetry_equiv_pos_as_xyz
1 x,y,z
2 -x,y,-z
3 1/2+x,1/2+y,z
4 1/2-x,1/2+y,-z
5 -x,-y,-z
6 x,-y,z
7 1/2-x,1/2-y,-z
8 1/2+x,1/2-y,z
_cell_length_a                   11.578(4)
_cell_length_b                   11.488(4)
_cell_length_c                   9.342(3)
_cell_angle_alpha                90
_cell_angle_beta                 113.459(6)
_cell_angle_gamma                90
_cell_volume                     1139.86
loop_
_atom_site_label
_atom_site_type_symbol
_atom_site_fract_x
_atom_site_fract_y
_atom_site_fract_z
Co1 Co 0.5000 0.5000 0.5000
O1 O 0.30892(16) 0.5000 0.3351(2)
N1 N 0.5000 0.31112(18) 0.5000
C1 C 0.2694(2) 0.5000 0.1886(3)
O2 O 0.3382(2) 0.5000 0.1135(3)
C2 C 0.1276(2) 0.5000 0.0927(3)
O3 O 0.5669(2) 0.5000 0.3194(2)
C3 C 0.06479(17) 0.39358(17) 0.0469(2)
H3 H 0.498(3) 0.5000 0.233(4)
H4 H 0.627(3) 0.5000 0.298(4)
C4 C 0.1346(2) 0.2786(2) 0.0964(3)
H5 H 0.1383 0.2396 0.0050
H6 H 0.0902 0.2287 0.1431
H7 H 0.2203 0.2933 0.1731
C5 C 0.57894(19) 0.24929(17) 0.4570(3)
H8 H 0.6365 0.2906 0.4265
C6 C 0.5819(2) 0.12910(17) 0.4543(3)
H9 H 0.6395 0.0902 0.4213
C7 C 0.5000 0.0650(2) 0.5000
Co1_2 Co 0.5000 -0.5000 0.5000
Co1_3 Co -0.5000 -0.5000 -0.5000
Co1_4 Co -0.5000 0.5000 -0.5000
Co1_5 Co 0.5000 1.5000 0.5000
O1A O -0.30892(16) 0.5000 -0.3351(2)
O1A_2 O -0.30892(16) -0.5000 -0.3351(2)
O1_2 O 0.30892(16) -0.5000 0.3351(2)
O1A_3 O 0.69108(16) -0.5000 0.6649(2)
O1A_4 O 0.69108(16) 0.5000 0.6649(2)
N1D N 0.5000 -0.31112(18) 0.5000
N1D_2 N 0.5000 0.68888(18) 0.5000
N1_2 N 0.5000 1.31112(18) 0.5000
N1_3 N 0.5000 -0.68888(18) 0.5000
C1A C -0.2694(2) 0.5000 -0.1886(3)
C1A_2 C -0.2694(2) -0.5000 -0.1886(3)
C1_2 C 0.2694(2) -0.5000 0.1886(3)
O2A O -0.3382(2) 0.5000 -0.1135(3)
O2A_2 O -0.3382(2) -0.5000 -0.1135(3)
O2_2 O 0.3382(2) -0.5000 0.1135(3)
C2A C -0.1276(2) 0.5000 -0.0927(3)
C2A_2 C -0.1276(2) -0.5000 -0.0927(3)
C2_2 C 0.1276(2) -0.5000 0.0927(3)
O3_2 O 0.5669(2) -0.5000 0.3194(2)
O3A O 0.4331(2) 0.5000 0.6806(2)
O3A_2 O 0.4331(2) -0.5000 0.6806(2)
C3A C -0.06479(17) 0.39358(17) -0.0469(2)
C3D C -0.06479(17) 0.60642(17) -0.0469(2)
C3E C 0.06479(17) 0.60642(17) 0.0469(2)
C3D_2 C -0.06479(17) -0.39358(17) -0.0469(2)
C3E_2 C 0.06479(17) -0.39358(17) 0.0469(2)
C3_2 C 0.06479(17) -0.60642(17) 0.0469(2)
C3A_2 C -0.06479(17) -0.60642(17) -0.0469(2)
H3_2 H 0.498(3) -0.5000 0.233(4)
H3A H 0.502(3) 0.5000 0.767(4)
H3A_2 H 0.502(3) -0.5000 0.767(4)
H4_2 H 0.627(3) -0.5000 0.298(4)
H4A H 0.373(3) 0.5000 0.702(4)
H4A_2 H 0.373(3) -0.5000 0.702(4)
C4A C -0.1346(2) 0.2786(2) -0.0964(3)
C4D C -0.1346(2) 0.7214(2) -0.0964(3)
C4E C 0.1346(2) 0.7214(2) 0.0964(3)
C4D_2 C -0.1346(2) -0.2786(2) -0.0964(3)
C4E_2 C 0.1346(2) -0.2786(2) 0.0964(3)
C4_2 C 0.1346(2) -0.7214(2) 0.0964(3)
C4A_2 C -0.1346(2) -0.7214(2) -0.0964(3)
H5A H -0.1383 0.2396 -0.0050
H5D H -0.1383 0.7604 -0.0050
H5E H 0.1383 0.7604 0.0050
H5D_2 H -0.1383 -0.2396 -0.0050
H5E_2 H 0.1383 -0.2396 0.0050
H5_2 H 0.1383 -0.7604 0.0050
H5A_2 H -0.1383 -0.7604 -0.0050
H6A H -0.0902 0.2287 -0.1431
H6D H -0.0902 0.7713 -0.1431
H6E H 0.0902 0.7713 0.1431
H6D_2 H -0.0902 -0.2287 -0.1431
H6E_2 H 0.0902 -0.2287 0.1431
H6_2 H 0.0902 -0.7713 0.1431
H6A_2 H -0.0902 -0.7713 -0.1431
H7A H -0.2203 0.2933 -0.1731
H7D H -0.2203 0.7067 -0.1731
H7E H 0.2203 0.7067 0.1731
H7D_2 H -0.2203 -0.2933 -0.1731
H7E_2 H 0.2203 -0.2933 0.1731
H7_2 H 0.2203 -0.7067 0.1731
H7A_2 H -0.2203 -0.7067 -0.1731
C5A C 0.42106(19) 0.24929(17) 0.5430(3)
C5D C 0.42106(19) -0.24929(17) 0.5430(3)
C5E C 0.57894(19) -0.24929(17) 0.4570(3)
C5E_2 C 0.57894(19) 0.75071(17) 0.4570(3)
C5D_2 C 0.42106(19) 0.75071(17) 0.5430(3)
C5A_2 C 0.42106(19) 1.24929(17) 0.5430(3)
C5_2 C 0.57894(19) 1.24929(17) 0.4570(3)
H8A H 0.3635 0.2906 0.5735
H8D H 0.3635 -0.2906 0.5735
H8E H 0.6365 -0.2906 0.4265
H8E_2 H 0.6365 0.7094 0.4265
H8D_2 H 0.3635 0.7094 0.5735
H8A_2 H 0.3635 1.2906 0.5735
H8_2 H 0.6365 1.2906 0.4265
C6A C 0.4181(2) 0.12910(17) 0.5457(3)
C6D C 0.4181(2) -0.12910(17) 0.5457(3)
C6E C 0.5819(2) -0.12910(17) 0.4543(3)
C6E_2 C 0.5819(2) 0.87090(17) 0.4543(3)
C6D_2 C 0.4181(2) 0.87090(17) 0.5457(3)
C6A_2 C 0.4181(2) 1.12910(17) 0.5457(3)
C6_2 C 0.5819(2) 1.12910(17) 0.4543(3)
H9A H 0.3605 0.0902 0.5787
H9D H 0.3605 -0.0902 0.5787
H9E H 0.6395 -0.0902 0.4213
H9E_2 H 0.6395 0.9098 0.4213
H9D_2 H 0.3605 0.9098 0.5787
H9A_2 H 0.3605 1.0902 0.5787
H9_2 H 0.6395 1.0902 0.4213
C7D C 0.5000 -0.0650(2) 0.5000
C7D_2 C 0.5000 0.9350(2) 0.5000
C7_2 C 0.5000 1.0650(2) 0.5000
H1 H 0.722(4) 0.5000 0.108(6)
H2 H 0.800(8) 0.5000 0.228(11)
O4 O 0.7484(3) 0.5000 0.2005(4)
loop_
_geom_bond_atom_site_label_1
_geom_bond_atom_site_label_2
_geom_bond_site_symmetry_1
_geom_bond_site_symmetry_2
Co1 O1 1_555 1_555
O1 C1 1_555 1_555
N1 Co1 1_555 1_555
C1 O2 1_555 1_555
H1 O4 1_555 1_555
C2 C1 1_555 1_555
H2 O4 1_555 1_555
O3 Co1 1_555 1_555
C3 C2 1_555 1_555
H3 O3 1_555 1_555
H4 O3 1_555 1_555
C4 C3 1_555 1_555
H5 C4 1_555 1_555
H6 C4 1_555 1_555
H7 C4 1_555 1_555
C5 N1 1_555 1_555
H8 C5 1_555 1_555
C6 C5 1_555 1_555
H9 C6 1_555 1_555
C7 C6 1_555 1_555
Co1_2 O1_2 1_555 1_555
Co1_3 O1A_2 1_555 1_555
Co1_4 O1A 1_555 1_555
Co1_5 N1_2 1_555 1_555
O1A C1A 1_555 1_555
O1A_2 C1A_2 1_555 1_555
O1_2 C1_2 1_555 1_555
O1A_3 Co1_2 1_555 1_555
O1A_4 Co1 1_555 1_555
N1D Co1_2 1_555 1_555
N1D_2 Co1 1_555 1_555
N1_2 C5A_2 1_555 1_555
N1_3 Co1_2 1_555 1_555
C1A O2A 1_555 1_555
C1A_2 O2A_2 1_555 1_555
C1_2 O2_2 1_555 1_555
C2A C1A 1_555 1_555
C2A_2 C1A_2 1_555 1_555
C2_2 C1_2 1_555 1_555
O3_2 Co1_2 1_555 1_555
O3A Co1 1_555 1_555
O3A_2 Co1_2 1_555 1_555
C3A C3 1_555 1_555
C3D C2A 1_555 1_555
C3E C2 1_555 1_555
C3D_2 C2A_2 1_555 1_555
C3E_2 C2_2 1_555 1_555
C3_2 C2_2 1_555 1_555
C3A_2 C2A_2 1_555 1_555
H3_2 O3_2 1_555 1_555
H3A O3A 1_555 1_555
H3A_2 O3A_2 1_555 1_555
H4_2 O3_2 1_555 1_555
H4A O3A 1_555 1_555
H4A_2 O3A_2 1_555 1_555
C4A C3A 1_555 1_555
C4D C3D 1_555 1_555
C4E C3E 1_555 1_555
C4D_2 C3D_2 1_555 1_555
C4E_2 C3E_2 1_555 1_555
C4_2 C3_2 1_555 1_555
C4A_2 C3A_2 1_555 1_555
H5A C4A 1_555 1_555
H5D C4D 1_555 1_555
H5E C4E 1_555 1_555
H5D_2 C4D_2 1_555 1_555
H5E_2 C4E_2 1_555 1_555
H5_2 C4_2 1_555 1_555
H5A_2 C4A_2 1_555 1_555
H6A C4A 1_555 1_555
H6D C4D 1_555 1_555
H6E C4E 1_555 1_555
H6D_2 C4D_2 1_555 1_555
H6E_2 C4E_2 1_555 1_555
H6_2 C4_2 1_555 1_555
H6A_2 C4A_2 1_555 1_555
H7A C4A 1_555 1_555
H7D C4D 1_555 1_555
H7E C4E 1_555 1_555
H7D_2 C4D_2 1_555 1_555
H7E_2 C4E_2 1_555 1_555
H7_2 C4_2 1_555 1_555
H7A_2 C4A_2 1_555 1_555
C5A N1 1_555 1_555
C5D N1D 1_555 1_555
C5E N1D 1_555 1_555
C5E_2 N1D_2 1_555 1_555
C5D_2 N1D_2 1_555 1_555
C5A_2 H8A_2 1_555 1_555
C5_2 N1_2 1_555 1_555
H8A C5A 1_555 1_555
H8D C5D 1_555 1_555
H8E C5E 1_555 1_555
H8E_2 C5E_2 1_555 1_555
H8D_2 C5D_2 1_555 1_555
H8_2 C5_2 1_555 1_555
C6A C7 1_555 1_555
C6D C5D 1_555 1_555
C6E C5E 1_555 1_555
C6E_2 C5E_2 1_555 1_555
C6D_2 C5D_2 1_555 1_555
C6A_2 C5A_2 1_555 1_555
C6_2 C5_2 1_555 1_555
H9A C6A 1_555 1_555
H9D C6D 1_555 1_555
H9E C6E 1_555 1_555
H9E_2 C6E_2 1_555 1_555
H9D_2 C6D_2 1_555 1_555
H9A_2 C6A_2 1_555 1_555
H9_2 C6_2 1_555 1_555
C7D C7 1_555 1_555
C7D_2 C6E_2 1_555 1_555
C7_2 C6A_2 1_555 1_555
C2A C3A 1_555 1_555
C3D C3E 1_555 1_555
C3D_2 C3E_2 1_555 1_555
C3_2 C3A_2 1_555 1_555
C5A C6A 1_555 1_555
C6D C7D 1_555 1_555
C6E C7D 1_555 1_555
C6D_2 C7D_2 1_555 1_555
C6_2 C7_2 1_555 1_555
C7D_2 C7_2 1_555 1_555

#END
