
#######################################################################
#
#                 Cambridge Crystallographic Data Centre
#                                CCDC 
#
#######################################################################
#
# If this CIF has been generated from an entry in the Cambridge 
# Structural Database, then it will include bibliographic, chemical, 
# crystal, experimental, refinement or atomic coordinate data resulting 
# from the CCDC's data processing and validation procedures.
#
#######################################################################

data_KAVWOV
_symmetry_cell_setting           monoclinic
_symmetry_space_group_name_H-M   'C 2/c'
_symmetry_Int_Tables_number      15
_space_group_name_Hall           '-C 2yn'
loop_
_symmetry_equiv_pos_site_id
_symmetry_equiv_pos_as_xyz
1 x,y,z
2 -x,y,1/2-z
3 1/2+x,1/2+y,z
4 1/2-x,1/2+y,1/2-z
5 -x,-y,-z
6 x,-y,1/2+z
7 1/2-x,1/2-y,-z
8 1/2+x,1/2-y,1/2+z
_cell_length_a                   14.1443(10)
_cell_length_b                   10.5695(7)
_cell_length_c                   13.5488(9)
_cell_angle_alpha                90
_cell_angle_beta                 109.7910(10)
_cell_angle_gamma                90
_cell_volume                     1905.88
loop_
_atom_site_label
_atom_site_type_symbol
_atom_site_fract_x
_atom_site_fract_y
_atom_site_fract_z
Ni1 Ni 0.5000 0.07924(3) 0.2500
O1 O 0.34745(11) 0.02734(12) 0.16684(11)
N1 N 0.50331(14) 0.22149(15) 0.14710(13)
C1 C 0.38267(15) -0.05931(17) 0.12418(14)
O2 O 0.47498(11) -0.06383(12) 0.13786(11)
C2 C 0.31387(15) -0.15876(17) 0.05887(14)
C3 C 0.26544(15) -0.13728(18) -0.04864(14)
C4 C 0.30004(15) -0.27000(18) 0.10798(14)
C5 C 0.35466(18) -0.2898(2) 0.22423(16)
H1 H 0.3909 -0.2124 0.2548
H2 H 0.4025 -0.3597 0.2342
H3 H 0.3059 -0.3102 0.2588
C6 C 0.28574(19) -0.0170(2) -0.09888(16)
H4 H 0.2290 0.0412 -0.1110
H5 H 0.2942 -0.0374 -0.1659
H6 H 0.3471 0.0230 -0.0522
C7 C 0.41920(19) 0.2606(2) 0.07183(18)
H7 H 0.3598 0.2118 0.0585
C8 C 0.41504(19) 0.3683(2) 0.01287(18)
H8 H 0.3537 0.3925 -0.0393
C9 C 0.50093(16) 0.44122(17) 0.03026(16)
C10 C 0.58770(17) 0.4000(2) 0.1078(2)
H9 H 0.6484 0.4466 0.1228
C11 C 0.58538(17) 0.2911(2) 0.16303(19)
H10 H 0.6458 0.2644 0.2154
Ni1F Ni 0.0000 -0.57924(3) -0.2500
Ni1D Ni 0.5000 0.92076(3) -0.2500
O1F O 0.15255(11) -0.52734(12) -0.16684(11)
O1A O 0.65255(11) 0.02734(12) 0.33316(11)
N1D N 0.49669(14) 0.77851(15) -0.14710(13)
N1A N 0.49669(14) 0.22149(15) 0.35290(13)
C1F C 0.11733(15) -0.44069(17) -0.12418(14)
O2F O 0.02502(11) -0.43617(12) -0.13786(11)
O2A O 0.52502(11) -0.06383(12) 0.36214(11)
C2F C 0.18613(15) -0.34124(17) -0.05887(14)
C3F C 0.23456(15) -0.36272(18) 0.04864(14)
C4F C 0.19996(15) -0.23000(18) -0.10798(14)
C5F C 0.14534(18) -0.2102(2) -0.22423(16)
H1F H 0.1091 -0.2876 -0.2548
H2F H 0.0975 -0.1403 -0.2342
H3F H 0.1941 -0.1898 -0.2588
C6F C 0.21426(19) -0.4830(2) 0.09888(16)
H4F H 0.2710 -0.5412 0.1110
H5F H 0.2058 -0.4626 0.1659
H6F H 0.1529 -0.5230 0.0522
C7D C 0.58080(19) 0.7394(2) -0.07183(18)
H7D H 0.6402 0.7882 -0.0585
C8D C 0.58496(19) 0.6317(2) -0.01287(18)
H8D H 0.6463 0.6075 0.0393
C9D C 0.49907(16) 0.55878(17) -0.03026(16)
C10D C 0.41230(17) 0.6000(2) -0.1078(2)
H9D H 0.3516 0.5534 -0.1228
C11D C 0.41462(17) 0.7089(2) -0.16303(19)
H10D H 0.3542 0.7356 -0.2154
loop_
_geom_bond_atom_site_label_1
_geom_bond_atom_site_label_2
_geom_bond_site_symmetry_1
_geom_bond_site_symmetry_2
Ni1 O1 1_555 1_555
O1 C1 1_555 1_555
N1 Ni1 1_555 1_555
C1 O2 1_555 1_555
O2 Ni1 1_555 1_555
C2 C1 1_555 1_555
C3 C2 1_555 1_555
C4 C2 1_555 1_555
C5 C4 1_555 1_555
H1 C5 1_555 1_555
H2 C5 1_555 1_555
H3 C5 1_555 1_555
C6 C3 1_555 1_555
H4 C6 1_555 1_555
H5 C6 1_555 1_555
H6 C6 1_555 1_555
C7 N1 1_555 1_555
H7 C7 1_555 1_555
C8 C7 1_555 1_555
H8 C8 1_555 1_555
C9 C8 1_555 1_555
C10 C9 1_555 1_555
H9 C10 1_555 1_555
C11 N1 1_555 1_555
H10 C11 1_555 1_555
Ni1F O1F 1_555 1_555
Ni1D N1D 1_555 1_555
O1F C1F 1_555 1_555
O1A Ni1 1_555 1_555
N1D C7D 1_555 1_555
N1A Ni1 1_555 1_555
C1F O2F 1_555 1_555
O2F Ni1F 1_555 1_555
O2A Ni1 1_555 1_555
C2F C1F 1_555 1_555
C3F C4 1_555 1_555
C4F C3 1_555 1_555
C5F C4F 1_555 1_555
H1F C5F 1_555 1_555
H2F C5F 1_555 1_555
H3F C5F 1_555 1_555
C6F C3F 1_555 1_555
H4F C6F 1_555 1_555
H5F C6F 1_555 1_555
H6F C6F 1_555 1_555
C7D H7D 1_555 1_555
C8D C7D 1_555 1_555
H8D C8D 1_555 1_555
C9D C9 1_555 1_555
C10D C9D 1_555 1_555
H9D C10D 1_555 1_555
C11D N1D 1_555 1_555
H10D C11D 1_555 1_555
C10 C11 1_555 1_555
C2F C3F 1_555 1_555
C2F C4F 1_555 1_555
C8D C9D 1_555 1_555
C10D C11D 1_555 1_555

#END
