
#######################################################################
#
#                 Cambridge Crystallographic Data Centre
#                                CCDC 
#
#######################################################################
#
# If this CIF has been generated from an entry in the Cambridge 
# Structural Database, then it will include bibliographic, chemical, 
# crystal, experimental, refinement or atomic coordinate data resulting 
# from the CCDC's data processing and validation procedures.
#
#######################################################################

data_KAVWUB
_symmetry_cell_setting           monoclinic
_symmetry_space_group_name_H-M   'C 2/c'
_symmetry_Int_Tables_number      15
_space_group_name_Hall           '-C 2yn'
loop_
_symmetry_equiv_pos_site_id
_symmetry_equiv_pos_as_xyz
1 x,y,z
2 -x,y,1/2-z
3 1/2+x,1/2+y,z
4 1/2-x,1/2+y,1/2-z
5 -x,-y,-z
6 x,-y,1/2+z
7 1/2-x,1/2-y,-z
8 1/2+x,1/2-y,1/2+z
_cell_length_a                   14.2254(8)
_cell_length_b                   10.6516(6)
_cell_length_c                   13.6134(8)
_cell_angle_alpha                90
_cell_angle_beta                 110.3700(10)
_cell_angle_gamma                90
_cell_volume                     1933.75
loop_
_atom_site_label
_atom_site_type_symbol
_atom_site_fract_x
_atom_site_fract_y
_atom_site_fract_z
Cu1 Cu 0.5000 0.40960(3) 0.2500
O1 O 0.45988(11) 0.54195(14) 0.14220(11)
O2 O 0.32061(11) 0.46697(14) 0.15681(12)
N1 N 0.49940(13) 0.27338(15) 0.14767(13)
C1 C 0.36625(15) 0.54651(18) 0.12273(14)
C2 C 0.30826(15) 0.65434(18) 0.05750(15)
C3 C 0.29894(15) 0.76470(19) 0.10897(15)
C4 C 0.26110(16) 0.63827(19) -0.05069(15)
C5 C 0.35253(18) 0.7786(2) 0.22643(16)
H1 H 0.3900 0.7037 0.2537
H2 H 0.3041 0.7919 0.2599
H3 H 0.3974 0.8490 0.2399
C6 C 0.2770(2) 0.5190(2) -0.10303(17)
H4 H 0.3200 0.4634 -0.0512
H5 H 0.3076 0.5389 -0.1538
H6 H 0.2136 0.4789 -0.1374
C7 C 0.41641(17) 0.2350(2) 0.07113(17)
H7 H 0.3579 0.2815 0.0575
C8 C 0.41374(17) 0.1294(2) 0.01155(18)
H8 H 0.3544 0.1059 -0.0409
C9 C 0.50027(16) 0.05816(18) 0.03040(16)
C10 C 0.58628(17) 0.0993(2) 0.10875(19)
H9 H 0.6460 0.0551 0.1236
C11 C 0.58286(16) 0.2060(2) 0.16452(18)
H10 H 0.6415 0.2325 0.2165
Cu1F Cu 0.0000 1.09040(3) -0.2500
Cu1D Cu 0.5000 -0.40960(3) -0.2500
O1F O 0.04012(11) 0.95805(14) -0.14220(11)
O1A O 0.54012(11) 0.54195(14) 0.35780(11)
O2F O 0.17939(11) 1.03303(14) -0.15681(12)
O2A O 0.67939(11) 0.46697(14) 0.34319(12)
N1D N 0.50060(13) -0.27338(15) -0.14767(13)
N1A N 0.50060(13) 0.27338(15) 0.35233(13)
C1F C 0.13375(15) 0.95349(18) -0.12273(14)
C2F C 0.19174(15) 0.84566(18) -0.05750(15)
C3F C 0.20106(15) 0.73530(19) -0.10897(15)
C4F C 0.23890(16) 0.86173(19) 0.05069(15)
C5F C 0.14747(18) 0.7214(2) -0.22643(16)
H1F H 0.1100 0.7963 -0.2537
H2F H 0.1959 0.7081 -0.2599
H3F H 0.1026 0.6510 -0.2399
C6F C 0.2230(2) 0.9810(2) 0.10303(17)
H4F H 0.1800 1.0366 0.0512
H5F H 0.1924 0.9611 0.1538
H6F H 0.2864 1.0211 0.1374
C7D C 0.58359(17) -0.2350(2) -0.07113(17)
H7D H 0.6421 -0.2815 -0.0575
C8D C 0.58626(17) -0.1294(2) -0.01155(18)
H8D H 0.6456 -0.1059 0.0409
C9D C 0.49973(16) -0.05816(18) -0.03040(16)
C10D C 0.41372(17) -0.0993(2) -0.10875(19)
H9D H 0.3540 -0.0551 -0.1236
C11D C 0.41714(16) -0.2060(2) -0.16452(18)
H10D H 0.3585 -0.2325 -0.2165
loop_
_geom_bond_atom_site_label_1
_geom_bond_atom_site_label_2
_geom_bond_site_symmetry_1
_geom_bond_site_symmetry_2
Cu1 O1 1_555 1_555
O1 C1 1_555 1_555
O2 Cu1 1_555 1_555
N1 Cu1 1_555 1_555
C1 O2 1_555 1_555
C2 C1 1_555 1_555
C3 C2 1_555 1_555
C4 C2 1_555 1_555
C5 C3 1_555 1_555
H1 C5 1_555 1_555
H2 C5 1_555 1_555
H3 C5 1_555 1_555
C6 C4 1_555 1_555
H4 C6 1_555 1_555
H5 C6 1_555 1_555
H6 C6 1_555 1_555
C7 N1 1_555 1_555
H7 C7 1_555 1_555
C8 C7 1_555 1_555
H8 C8 1_555 1_555
C9 C8 1_555 1_555
C10 C9 1_555 1_555
H9 C10 1_555 1_555
C11 N1 1_555 1_555
H10 C11 1_555 1_555
Cu1F O1F 1_555 1_555
Cu1D N1D 1_555 1_555
O1F C1F 1_555 1_555
O1A Cu1 1_555 1_555
O2F Cu1F 1_555 1_555
O2A Cu1 1_555 1_555
N1D C7D 1_555 1_555
N1A Cu1 1_555 1_555
C1F O2F 1_555 1_555
C2F C1F 1_555 1_555
C3F C4 1_555 1_555
C4F C3 1_555 1_555
C5F C3F 1_555 1_555
H1F C5F 1_555 1_555
H2F C5F 1_555 1_555
H3F C5F 1_555 1_555
C6F C4F 1_555 1_555
H4F C6F 1_555 1_555
H5F C6F 1_555 1_555
H6F C6F 1_555 1_555
C7D H7D 1_555 1_555
C8D C7D 1_555 1_555
H8D C8D 1_555 1_555
C9D C9 1_555 1_555
C10D C9D 1_555 1_555
H9D C10D 1_555 1_555
C11D N1D 1_555 1_555
H10D C11D 1_555 1_555
C10 C11 1_555 1_555
C2F C3F 1_555 1_555
C2F C4F 1_555 1_555
C8D C9D 1_555 1_555
C10D C11D 1_555 1_555

#END
