
#######################################################################
#
#                 Cambridge Crystallographic Data Centre
#                                CCDC 
#
#######################################################################
#
# If this CIF has been generated from an entry in the Cambridge 
# Structural Database, then it will include bibliographic, chemical, 
# crystal, experimental, refinement or atomic coordinate data resulting 
# from the CCDC's data processing and validation procedures.
#
#######################################################################

data_KAVXOW
_symmetry_cell_setting           tetragonal
_symmetry_space_group_name_H-M   'I 41/a'
_symmetry_Int_Tables_number      88
_space_group_name_Hall           '-I 4ad'
loop_
_symmetry_equiv_pos_site_id
_symmetry_equiv_pos_as_xyz
1 x,y,z
2 3/4-y,1/4+x,1/4+z
3 1/2-x,-y,1/2+z
4 3/4+y,3/4-x,3/4+z
5 1/2+x,1/2+y,1/2+z
6 1/4-y,3/4+x,3/4+z
7 -x,1/2-y,z
8 1/4+y,1/4-x,1/4+z
9 -x,-y,-z
10 1/4+y,3/4-x,3/4-z
11 1/2+x,y,1/2-z
12 1/4-y,1/4+x,1/4-z
13 1/2-x,1/2-y,1/2-z
14 3/4+y,1/4-x,1/4-z
15 x,1/2+y,-z
16 3/4-y,3/4+x,3/4-z
_cell_length_a                   22.878(9)
_cell_length_b                   22.878(9)
_cell_length_c                   15.853(3)
_cell_angle_alpha                90
_cell_angle_beta                 90
_cell_angle_gamma                90
_cell_volume                     8297.51
loop_
_atom_site_label
_atom_site_type_symbol
_atom_site_fract_x
_atom_site_fract_y
_atom_site_fract_z
Cu1 Cu 0.0000 0.2500 0.1250
Mo1 Mo -0.06323(3) 0.15429(3) 0.47619(5)
Mo2 Mo -0.10101(3) 0.30651(3) 0.47473(5)
V1 V -0.03722(4) 0.40300(5) 0.62963(8)
V2 V 0.0000 0.2500 0.37426(13)
P1 P 0.0000 0.2500 0.6250
O1 O 0.0000 0.2500 0.2734(5)
O2 O -0.0864(2) 0.3627(2) 0.5517(4)
O3 O -0.0534(2) 0.2362(2) 0.5695(4)
O4 O -0.0254(2) 0.1098(2) 0.5517(4)
O5 O -0.1594(2) 0.2698(2) 0.5301(4)
O6 O -0.1334(2) 0.1586(2) 0.5291(4)
O7 O -0.1368(2) 0.3410(3) 0.3967(4)
O8 O -0.0782(2) 0.1087(2) 0.3947(4)
O9 O -0.0801(2) 0.2308(2) 0.4124(4)
O10 O -0.0171(2) 0.3201(2) 0.4337(4)
O11 O -0.0547(2) 0.4700(2) 0.6123(4)
N1 N 0.0769(3) 0.2052(3) 0.1272(5)
N2 N 0.2414(3) -0.1440(3) 0.0923(5)
N3 N 0.1588(3) 0.1616(3) 0.0877(5)
N4 N 0.1860(4) -0.2187(4) 0.0820(7)
C1 C 0.2580(4) -0.0364(4) 0.1024(6)
C2 C 0.2782(4) -0.0978(4) 0.1277(7)
H1 H 0.3181 -0.1035 0.1087
H2 H 0.2779 -0.1009 0.1887
C3 C 0.2148(4) -0.1863(4) 0.1353(8)
H3 H 0.2166 -0.1918 0.1933
C4 C 0.1129(4) 0.1988(5) 0.1965(7)
H4 H 0.1045 0.2110 0.2512
C5 C 0.1068(3) 0.1823(3) 0.0633(6)
H5 H 0.0932 0.1809 0.0081
C6 C 0.1951(5) -0.1986(5) 0.0024(8)
H6 H 0.1800 -0.2145 -0.0470
C7 C 0.1997(4) -0.0250(4) 0.0865(7)
H7 H 0.1721 -0.0547 0.0909
C8 C 0.2979(4) 0.0081(4) 0.0985(6)
H8 H 0.3371 0.0004 0.1096
C9 C 0.1632(4) 0.1715(5) 0.1710(7)
H9 H 0.1947 0.1617 0.2052
C10 C 0.2808(3) 0.0637(4) 0.0784(6)
H10 H 0.3083 0.0936 0.0763
C11 C 0.2295(5) -0.1521(4) 0.0083(8)
H11 H 0.2430 -0.1292 -0.0361
C12 C 0.1826(4) 0.0311(4) 0.0640(6)
H12 H 0.1436 0.0384 0.0508
C13 C 0.2222(3) 0.0759(3) 0.0609(5)
C14 C 0.2038(4) 0.1369(4) 0.0338(6)
H13 H 0.2377 0.1624 0.0345
H14 H 0.1894 0.1353 -0.0237
Mo1F Mo 0.06323(3) 0.34571(3) 0.47619(5)
Mo1K Mo 0.09571(3) 0.18677(3) -0.22619(5)
Mo1M Mo -0.09571(3) 0.31323(3) -0.22619(5)
Mo1K_2 Mo 0.09571(3) 0.18677(3) 0.77381(5)
Mo1M_2 Mo -0.09571(3) 0.31323(3) 0.77381(5)
Mo2F Mo 0.10101(3) 0.19349(3) 0.47473(5)
Mo2K Mo -0.05651(3) 0.14899(3) -0.22473(5)
Mo2M Mo 0.05651(3) 0.35101(3) -0.22473(5)
Mo2K_2 Mo -0.05651(3) 0.14899(3) 0.77527(5)
Mo2M_2 Mo 0.05651(3) 0.35101(3) 0.77527(5)
V1F V 0.03722(4) 0.09700(5) 0.62963(8)
V1K V -0.15300(5) 0.21278(4) -0.37963(8)
V1M V 0.15300(5) 0.28722(4) -0.37963(8)
V1K_2 V -0.15300(5) 0.21278(4) 0.62037(8)
V1M_2 V 0.15300(5) 0.28722(4) 0.62037(8)
V1F_2 V 0.03722(4) 0.09700(5) -0.37037(8)
V1_2 V -0.03722(4) 0.40300(5) -0.37037(8)
V2K V 0.0000 0.2500 -0.12426(13)
O1K O 0.0000 0.2500 -0.0234(5)
O2F O 0.0864(2) 0.1373(2) 0.5517(4)
O2K O -0.1127(2) 0.1636(2) -0.3017(4)
O2M O 0.1127(2) 0.3364(2) -0.3017(4)
O3F O 0.0534(2) 0.2638(2) 0.5695(4)
O3K O 0.0138(2) 0.1966(2) 0.6805(4)
O3M O -0.0138(2) 0.3034(2) 0.6805(4)
O3K_2 O 0.0138(2) 0.1966(2) -0.3195(4)
O3M_2 O -0.0138(2) 0.3034(2) -0.3195(4)
O4F O 0.0254(2) 0.3902(2) 0.5517(4)
O4K O 0.1402(2) 0.2246(2) -0.3017(4)
O4M O -0.1402(2) 0.2754(2) -0.3017(4)
O5F O 0.1594(2) 0.2302(2) 0.5301(4)
O5K O -0.0198(2) 0.0906(2) -0.2801(4)
O5M O 0.0198(2) 0.4094(2) -0.2801(4)
O5M_2 O 0.0198(2) 0.4094(2) 0.7199(4)
O5K_2 O -0.0198(2) 0.0906(2) 0.7199(4)
O5_2 O -0.1594(2) 0.2698(2) -0.4699(4)
O5F_2 O 0.1594(2) 0.2302(2) -0.4699(4)
O6F O 0.1334(2) 0.3414(2) 0.5291(4)
O6K O 0.0914(2) 0.1166(2) -0.2791(4)
O6M O -0.0914(2) 0.3834(2) -0.2791(4)
O6M_2 O -0.0914(2) 0.3834(2) 0.7209(4)
O6K_2 O 0.0914(2) 0.1166(2) 0.7209(4)
O6_2 O -0.1334(2) 0.1586(2) -0.4709(4)
O6F_2 O 0.1334(2) 0.3414(2) -0.4709(4)
O7F O 0.1368(2) 0.1590(3) 0.3967(4)
O7K O -0.0910(3) 0.1132(2) -0.1467(4)
O7M O 0.0910(3) 0.3868(2) -0.1467(4)
O8F O 0.0782(2) 0.3913(2) 0.3947(4)
O8K O 0.1413(2) 0.1718(2) -0.1447(4)
O8M O -0.1413(2) 0.3282(2) -0.1447(4)
O9F O 0.0801(2) 0.2692(2) 0.4124(4)
O9K O 0.0192(2) 0.1699(2) -0.1624(4)
O9M O -0.0192(2) 0.3301(2) -0.1624(4)
O10F O 0.0171(2) 0.1799(2) 0.4337(4)
O10K O -0.0701(2) 0.2329(2) -0.1837(4)
O10M O 0.0701(2) 0.2671(2) -0.1837(4)
O11F O 0.0547(2) 0.0300(2) 0.6123(4)
O11K O -0.2200(2) 0.1953(2) -0.3623(4)
O11M O 0.2200(2) 0.3047(2) -0.3623(4)
N1F N -0.0769(3) 0.2948(3) 0.1272(5)
N1K N 0.0448(3) 0.3269(3) 0.1228(5)
N1M N -0.0448(3) 0.1731(3) 0.1228(5)
N2F N -0.2414(3) 0.6440(3) 0.0923(5)
N2K N 0.3940(3) 0.4914(3) 0.1577(5)
N2M N -0.3940(3) 0.0086(3) 0.1577(5)
N3F N -0.1588(3) 0.3384(3) 0.0877(5)
N3K N 0.0884(3) 0.4088(3) 0.1623(5)
N3M N -0.0884(3) 0.0912(3) 0.1623(5)
N4F N -0.1860(4) 0.7187(4) 0.0820(7)
N4K N 0.4687(4) 0.4360(4) 0.1680(7)
N4M N -0.4687(4) 0.0640(4) 0.1680(7)
C1F C -0.2580(4) 0.5364(4) 0.1024(6)
C1K C 0.2864(4) 0.5080(4) 0.1476(6)
C1M C -0.2864(4) -0.0080(4) 0.1476(6)
C2F C -0.2782(4) 0.5978(4) 0.1277(7)
C2K C 0.3478(4) 0.5282(4) 0.1223(7)
C2M C -0.3478(4) -0.0282(4) 0.1223(7)
H1F H -0.3181 0.6035 0.1087
H1K H 0.3535 0.5681 0.1413
H1M H -0.3535 -0.0681 0.1413
H2F H -0.2779 0.6009 0.1887
H2K H 0.3509 0.5279 0.0613
H2M H -0.3509 -0.0279 0.0613
C3F C -0.2148(4) 0.6863(4) 0.1353(8)
C3K C 0.4363(4) 0.4648(4) 0.1147(8)
C3M C -0.4363(4) 0.0352(4) 0.1147(8)
H3F H -0.2166 0.6918 0.1933
H3K H 0.4418 0.4666 0.0567
H3M H -0.4418 0.0334 0.0567
C4F C -0.1129(4) 0.3012(5) 0.1965(7)
C4K C 0.0512(5) 0.3629(4) 0.0535(7)
C4M C -0.0512(5) 0.1371(4) 0.0535(7)
H4F H -0.1045 0.2890 0.2512
H4K H 0.0390 0.3545 -0.0012
H4M H -0.0390 0.1455 -0.0012
C5F C -0.1068(3) 0.3177(3) 0.0633(6)
C5K C 0.0677(3) 0.3568(3) 0.1867(6)
C5M C -0.0677(3) 0.1432(3) 0.1867(6)
H5F H -0.0932 0.3191 0.0081
H5K H 0.0691 0.3432 0.2419
H5M H -0.0691 0.1568 0.2419
C6F C -0.1951(5) 0.6986(5) 0.0024(8)
C6K C 0.4486(5) 0.4451(5) 0.2476(8)
C6M C -0.4486(5) 0.0549(5) 0.2476(8)
H6F H -0.1800 0.7145 -0.0470
H6K H 0.4645 0.4300 0.2970
H6M H -0.4645 0.0700 0.2970
C7F C -0.1997(4) 0.5250(4) 0.0865(7)
C7K C 0.2750(4) 0.4497(4) 0.1635(7)
C7M C -0.2750(4) 0.0503(4) 0.1635(7)
H7F H -0.1721 0.5547 0.0909
H7K H 0.3047 0.4221 0.1591
H7M H -0.3047 0.0779 0.1591
C8F C -0.2979(4) 0.4919(4) 0.0985(6)
C8K C 0.2419(4) 0.5479(4) 0.1515(6)
C8M C -0.2419(4) -0.0479(4) 0.1515(6)
H8F H -0.3371 0.4996 0.1096
H8K H 0.2496 0.5871 0.1404
H8M H -0.2496 -0.0871 0.1404
C9F C -0.1632(4) 0.3285(5) 0.1710(7)
C9K C 0.0785(5) 0.4132(4) 0.0790(7)
C9M C -0.0785(5) 0.0868(4) 0.0790(7)
H9F H -0.1947 0.3383 0.2052
H9K H 0.0883 0.4447 0.0448
H9M H -0.0883 0.0553 0.0448
C10F C -0.2808(3) 0.4363(4) 0.0784(6)
C10K C 0.1863(4) 0.5308(3) 0.1716(6)
C10M C -0.1863(4) -0.0308(3) 0.1716(6)
H10F H -0.3083 0.4064 0.0763
H10K H 0.1564 0.5583 0.1737
H10M H -0.1564 -0.0583 0.1737
C11F C -0.2295(5) 0.6521(4) 0.0083(8)
C11K C 0.4021(4) 0.4795(5) 0.2417(8)
C11M C -0.4021(4) 0.0205(5) 0.2417(8)
H11F H -0.2430 0.6292 -0.0361
H11K H 0.3792 0.4930 0.2861
H11M H -0.3792 0.0070 0.2861
C12F C -0.1826(4) 0.4689(4) 0.0640(6)
C12K C 0.2189(4) 0.4326(4) 0.1860(6)
C12M C -0.2189(4) 0.0674(4) 0.1860(6)
H12F H -0.1436 0.4616 0.0508
H12K H 0.2116 0.3936 0.1992
H12M H -0.2116 0.1064 0.1992
C13F C -0.2222(3) 0.4241(3) 0.0609(5)
C13K C 0.1741(3) 0.4722(3) 0.1891(5)
C13M C -0.1741(3) 0.0278(3) 0.1891(5)
C14F C -0.2038(4) 0.3631(4) 0.0338(6)
C14K C 0.1131(4) 0.4538(4) 0.2162(6)
C14M C -0.1131(4) 0.0462(4) 0.2162(6)
H13F H -0.2377 0.3376 0.0345
H13K H 0.0876 0.4877 0.2155
H13M H -0.0876 0.0123 0.2155
H14F H -0.1894 0.3647 -0.0237
H14K H 0.1147 0.4394 0.2737
H14M H -0.1147 0.0606 0.2737
O12 O 0.3096(5) 0.2038(5) 0.1761(9)
Mo3? Mo 0.15300(4) 0.28722(5) 0.62037(8)
O13? O 0.2390(19) 0.2834(15) 0.176(3)
loop_
_geom_bond_atom_site_label_1
_geom_bond_atom_site_label_2
_geom_bond_site_symmetry_1
_geom_bond_site_symmetry_2
Cu1 O1 1_555 1_555
Mo1 O3 1_555 1_555
Mo2 O2 1_555 1_555
V1 O2 1_555 1_555
V2 O1 1_555 1_555
P1 O3 1_555 1_555
O3 Mo2 1_555 1_555
O4 Mo1 1_555 1_555
O5 Mo2 1_555 1_555
O6 Mo1 1_555 1_555
O7 Mo2 1_555 1_555
O8 Mo1 1_555 1_555
O9 Mo1 1_555 1_555
O10 Mo2 1_555 1_555
O11 V1 1_555 1_555
N1 Cu1 1_555 1_555
N2 C2 1_555 1_555
N3 C5 1_555 1_555
N4 C3 1_555 1_555
C1 C2 1_555 1_555
C2 H1 1_555 1_555
H2 C2 1_555 1_555
C3 N2 1_555 1_555
H3 C3 1_555 1_555
C4 N1 1_555 1_555
H4 C4 1_555 1_555
C5 N1 1_555 1_555
H5 C5 1_555 1_555
C6 N4 1_555 1_555
H6 C6 1_555 1_555
C7 C1 1_555 1_555
H7 C7 1_555 1_555
C8 C1 1_555 1_555
H8 C8 1_555 1_555
C9 N3 1_555 1_555
H9 C9 1_555 1_555
C10 C8 1_555 1_555
H10 C10 1_555 1_555
C11 N2 1_555 1_555
H11 C11 1_555 1_555
C12 C7 1_555 1_555
H12 C12 1_555 1_555
C13 C10 1_555 1_555
C14 N3 1_555 1_555
H13 C14 1_555 1_555
H14 C14 1_555 1_555
Mo1F O10 1_555 1_555
Mo1K O3K_2 1_555 1_555
Mo1M O3M_2 1_555 1_555
Mo1K_2 O3K 1_555 1_555
Mo1M_2 O3M 1_555 1_555
Mo2F O2F 1_555 1_555
Mo2K O2K 1_555 1_555
Mo2M O2M 1_555 1_555
Mo2K_2 O3K 1_555 1_555
Mo2M_2 O3M 1_555 1_555
V1F O4 1_555 1_555
V1K O2K 1_555 1_555
V1M O2M 1_555 1_555
V1K_2 O5 1_555 1_555
V1M_2 O5F 1_555 1_555
V1F_2 O5K 1_555 1_555
V1_2 O5M 1_555 1_555
V2K O1K 1_555 1_555
O1K Cu1 1_555 1_555
O2F V1F 1_555 1_555
O3F P1 1_555 1_555
O3K P1 1_555 1_555
O3M P1 1_555 1_555
O3K_2 Mo2K 1_555 1_555
O3M_2 Mo2M 1_555 1_555
O4F V1 1_555 1_555
O4K Mo1K 1_555 1_555
O4M Mo1M 1_555 1_555
O5F Mo2F 1_555 1_555
O5K Mo2K 1_555 1_555
O5M Mo2M 1_555 1_555
O5M_2 V1 1_555 1_555
O5K_2 Mo2K_2 1_555 1_555
O5_2 V1K 1_555 1_555
O5F_2 V1M 1_555 1_555
O6F Mo1F 1_555 1_555
O6K Mo1K 1_555 1_555
O6M Mo1M 1_555 1_555
O6M_2 V1 1_555 1_555
O6K_2 Mo1K_2 1_555 1_555
O6_2 V1K 1_555 1_555
O6F_2 V1M 1_555 1_555
O7F Mo2F 1_555 1_555
O7K Mo2K 1_555 1_555
O7M Mo2M 1_555 1_555
O8F Mo1F 1_555 1_555
O8K Mo1K 1_555 1_555
O8M Mo1M 1_555 1_555
O9F V2 1_555 1_555
O9K Mo1K 1_555 1_555
O9M Mo1M 1_555 1_555
O10F Mo1 1_555 1_555
O10K Mo1M 1_555 1_555
O10M Mo1K 1_555 1_555
O11F V1F 1_555 1_555
O11K V1K 1_555 1_555
O11M V1M 1_555 1_555
N1F Cu1 1_555 1_555
N1K Cu1 1_555 1_555
N1M Cu1 1_555 1_555
N2F C2F 1_555 1_555
N2K C2K 1_555 1_555
N2M C2M 1_555 1_555
N3F C5F 1_555 1_555
N3K C5K 1_555 1_555
N3M C5M 1_555 1_555
N4F C3F 1_555 1_555
N4K C3K 1_555 1_555
N4M C3M 1_555 1_555
C1F C2F 1_555 1_555
C1K C2K 1_555 1_555
C1M C2M 1_555 1_555
C2F H1F 1_555 1_555
C2K H1K 1_555 1_555
C2M H1M 1_555 1_555
H2F C2F 1_555 1_555
H2K C2K 1_555 1_555
H2M C2M 1_555 1_555
C3F N2F 1_555 1_555
C3K N2K 1_555 1_555
C3M N2M 1_555 1_555
H3F C3F 1_555 1_555
H3K C3K 1_555 1_555
H3M C3M 1_555 1_555
C4F N1F 1_555 1_555
C4K N1K 1_555 1_555
C4M N1M 1_555 1_555
H4F C4F 1_555 1_555
H4K C4K 1_555 1_555
H4M C4M 1_555 1_555
C5F N1F 1_555 1_555
C5K N1K 1_555 1_555
C5M N1M 1_555 1_555
H5F C5F 1_555 1_555
H5K C5K 1_555 1_555
H5M C5M 1_555 1_555
C6F N4F 1_555 1_555
C6K N4K 1_555 1_555
C6M N4M 1_555 1_555
H6F C6F 1_555 1_555
H6K C6K 1_555 1_555
H6M C6M 1_555 1_555
C7F C1F 1_555 1_555
C7K C1K 1_555 1_555
C7M C1M 1_555 1_555
H7F C7F 1_555 1_555
H7K C7K 1_555 1_555
H7M C7M 1_555 1_555
C8F C1F 1_555 1_555
C8K C1K 1_555 1_555
C8M C1M 1_555 1_555
H8F C8F 1_555 1_555
H8K C8K 1_555 1_555
H8M C8M 1_555 1_555
C9F N3F 1_555 1_555
C9K N3K 1_555 1_555
C9M N3M 1_555 1_555
H9F C9F 1_555 1_555
H9K C9K 1_555 1_555
H9M C9M 1_555 1_555
C10F C8F 1_555 1_555
C10K C8K 1_555 1_555
C10M C8M 1_555 1_555
H10F C10F 1_555 1_555
H10K C10K 1_555 1_555
H10M C10M 1_555 1_555
C11F N2F 1_555 1_555
C11K N2K 1_555 1_555
C11M N2M 1_555 1_555
H11F C11F 1_555 1_555
H11K C11K 1_555 1_555
H11M C11M 1_555 1_555
C12F C7F 1_555 1_555
C12K C7K 1_555 1_555
C12M C7M 1_555 1_555
H12F C12F 1_555 1_555
H12K C12K 1_555 1_555
H12M C12M 1_555 1_555
C13F C10F 1_555 1_555
C13K C10K 1_555 1_555
C13M C10M 1_555 1_555
C14F N3F 1_555 1_555
C14K N3K 1_555 1_555
C14M N3M 1_555 1_555
H13F C14F 1_555 1_555
H13K C14K 1_555 1_555
H13M C14M 1_555 1_555
H14F C14F 1_555 1_555
H14K C14K 1_555 1_555
H14M C14M 1_555 1_555
Mo2 O9 1_555 1_555
V2 O9 1_555 1_555
V2 O10 1_555 1_555
V2 O10F 1_555 1_555
O6 V1K_2 1_555 1_555
C4 C9 1_555 1_555
C6 C11 1_555 1_555
C12 C13 1_555 1_555
C13 C14 1_555 1_555
Mo1F O3F 1_555 1_555
Mo1F O4F 1_555 1_555
Mo1F O9F 1_555 1_555
Mo1M_2 O6M_2 1_555 1_555
Mo2F O3F 1_555 1_555
Mo2F O9F 1_555 1_555
Mo2F O10F 1_555 1_555
Mo2K O9K 1_555 1_555
Mo2K O10K 1_555 1_555
Mo2M O9M 1_555 1_555
Mo2M O10M 1_555 1_555
Mo2M_2 O5M_2 1_555 1_555
V1F O5K_2 1_555 1_555
V1F O6K_2 1_555 1_555
V1K O4M 1_555 1_555
V1M O4K 1_555 1_555
V1M_2 O6F 1_555 1_555
V1F_2 O6K 1_555 1_555
V1_2 O6M 1_555 1_555
V2K O9K 1_555 1_555
V2K O9M 1_555 1_555
V2K O10K 1_555 1_555
V2K O10M 1_555 1_555
C4F C9F 1_555 1_555
C4K C9K 1_555 1_555
C4M C9M 1_555 1_555
C6F C11F 1_555 1_555
C6K C11K 1_555 1_555
C6M C11M 1_555 1_555
C12F C13F 1_555 1_555
C12K C13K 1_555 1_555
C12M C13M 1_555 1_555
C13F C14F 1_555 1_555
C13K C14K 1_555 1_555
C13M C14M 1_555 1_555

#END
