
#######################################################################
#
#                 Cambridge Crystallographic Data Centre
#                                CCDC 
#
#######################################################################
#
# If this CIF has been generated from an entry in the Cambridge 
# Structural Database, then it will include bibliographic, chemical, 
# crystal, experimental, refinement or atomic coordinate data resulting 
# from the CCDC's data processing and validation procedures.
#
#######################################################################

data_KAVXUC
_symmetry_cell_setting           triclinic
_symmetry_space_group_name_H-M   'P -1'
_symmetry_Int_Tables_number      2
_space_group_name_Hall           '-P 1'
loop_
_symmetry_equiv_pos_site_id
_symmetry_equiv_pos_as_xyz
1 x,y,z
2 -x,-y,-z
_cell_length_a                   13.280(3)
_cell_length_b                   13.476(3)
_cell_length_c                   14.623(3)
_cell_angle_alpha                109.29(3)
_cell_angle_beta                 116.85(3)
_cell_angle_gamma                97.96(3)
_cell_volume                     2071.15
loop_
_atom_site_label
_atom_site_type_symbol
_atom_site_fract_x
_atom_site_fract_y
_atom_site_fract_z
Cu1 Cu 0.5000 0.5000 1.0000
N5 N 0.3866(8) 0.4452(8) 0.6770(7)
N6 N 0.4590(8) 0.4539(8) 0.8483(8)
C13 C 0.4073(10) 0.3472(10) 0.6706(10)
H13 H 0.3940 0.2885 0.6061
C14 C 0.4225(10) 0.5086(10) 0.7864(10)
H14 H 0.4218 0.5811 0.8145
C15 C 0.4505(11) 0.3518(10) 0.7750(11)
H15 H 0.4714 0.2957 0.7951
C16 C 0.5459(12) 0.5124(12) 0.6101(10)
H16 H 0.5782 0.5223 0.6851
C17 C 0.3407(12) 0.4774(11) 0.5831(11)
H17 H 0.2636 0.4215 0.5198
H18 H 0.3282 0.5481 0.6088
C18 C 0.3802(12) 0.4782(11) 0.4309(10)
H19 H 0.2988 0.4648 0.3842
C19 C 0.4254(11) 0.4885(9) 0.5418(9)
Cu1_2 Cu 0.5000 0.5000 0.0000
N5A N 0.6134(8) 0.5548(8) 0.3230(7)
N6A N 0.5410(8) 0.5461(8) 0.1517(8)
N6A_2 N 0.5410(8) 0.5461(8) 1.1517(8)
C13A C 0.5927(10) 0.6528(10) 0.3294(10)
H13A H 0.6060 0.7115 0.3939
C14A C 0.5775(10) 0.4914(10) 0.2136(10)
H14A H 0.5782 0.4189 0.1855
C15A C 0.5495(11) 0.6482(10) 0.2250(11)
H15A H 0.5286 0.7043 0.2049
C16A C 0.4541(12) 0.4876(12) 0.3899(10)
H16A H 0.4218 0.4777 0.3149
C17A C 0.6593(12) 0.5226(11) 0.4169(11)
H17A H 0.7364 0.5785 0.4802
H18A H 0.6718 0.4519 0.3912
C18A C 0.6198(12) 0.5218(11) 0.5691(10)
H19A H 0.7012 0.5352 0.6158
C19A C 0.5746(11) 0.5115(9) 0.4582(9)
Cu2 Cu 1.39604(14) 1.07013(12) 1.40820(13)
N1 N 1.0630(8) 0.8761(8) 1.1373(8)
N2 N 1.2399(9) 0.9666(8) 1.2986(8)
N3 N 0.5459(8) 0.1807(8) 0.5246(8)
N4 N 0.7133(9) 0.2873(8) 0.6909(8)
C1 C 0.7241(11) 0.3084(11) 0.6086(11)
H1 H 0.7891 0.3593 0.6207
C2 C 0.7823(10) 0.5239(10) 0.8988(10)
H2 H 0.7128 0.4846 0.8902
C3 C 0.9497(11) 0.5267(10) 0.8797(10)
H3 H 0.9949 0.4890 0.8585
C4 C 0.8030(11) 0.3403(10) 0.8143(10)
H4 H 0.8713 0.3154 0.8275
H5 H 0.7685 0.3167 0.8529
C5 C 1.1558(11) 0.9285(11) 1.3219(11)
H6 H 1.1718 0.9407 1.3943
C6 C 0.9879(10) 0.6417(10) 0.9257(10)
H7 H 1.0570 0.6804 0.9331
C7 C 1.0479(12) 0.8713(11) 1.2244(11)
H8 H 0.9772 0.8357 1.2165
C8 C 1.1791(11) 0.9329(9) 1.1855(10)
H9 H 1.2130 0.9470 1.1457
C9 C 0.6216(12) 0.2405(11) 0.5076(12)
H10 H 0.6051 0.2353 0.4369
C10 C 0.8454(9) 0.4660(9) 0.8644(9)
C11 C 0.8194(12) 0.6405(11) 0.9464(11)
H11 H 0.7750 0.6788 0.9685
C12 C 0.6037(10) 0.2108(9) 0.6361(10)
H12 H 0.5726 0.1827 0.6717
C27 C 0.9681(11) 0.8256(10) 1.0145(11)
H27 H 0.9988 0.8518 0.9746
H28 H 0.9004 0.8501 1.0061
C28 C 0.9256(10) 0.6987(10) 0.9600(9)
Cu2_2 Cu 0.39604(14) 0.07013(12) 0.40820(13)
N3_2 N 1.5459(8) 1.1807(8) 1.5246(8)
O23 O -0.0050(9) 0.6326(8) 0.6825(8)
O24 O -0.1795(10) -0.2523(9) -0.3217(10)
N7 N -0.0939(9) -0.3005(8) -0.5784(8)
C20 C -0.0827(10) -0.4557(10) -0.6689(12)
H20 H -0.0645 -0.5212 -0.6843
N8 N -0.1422(14) -0.4187(12) -0.7474(14)
C21 C -0.0554(11) -0.3842(11) -0.5688(12)
H21 H -0.0152 -0.3909 -0.5012
C22 C -0.1492(11) -0.3207(10) -0.6901(10)
H22 H -0.1850 -0.2758 -0.7212
C23 C -0.0796(12) -0.2014(10) -0.4842(10)
H23 H -0.1555 -0.2093 -0.4883
H24 H -0.0209 -0.1967 -0.4112
C24 C -0.1204(11) -0.0566(10) -0.5559(11)
H25 H -0.2022 -0.0940 -0.5926
C25 C 0.0834(11) -0.0370(10) -0.4329(10)
H26 H 0.1395 -0.0605 -0.3867
C26 C -0.0396(10) -0.0963(9) -0.4919(9)
N7A N 0.0939(9) 0.3005(8) -0.4216(8)
C20A C 0.0827(10) 0.4557(10) -0.3311(12)
H20A H 0.0645 0.5212 -0.3157
N8A N 0.1422(14) 0.4187(12) -0.2526(14)
C21A C 0.0554(11) 0.3842(11) -0.4312(12)
H21A H 0.0152 0.3909 -0.4988
C22A C 0.1492(11) 0.3207(10) -0.3099(10)
H22A H 0.1850 0.2758 -0.2788
C23A C 0.0796(12) 0.2014(10) -0.5158(10)
H23A H 0.1555 0.2093 -0.5117
H24A H 0.0209 0.1967 -0.5888
C24A C 0.1204(11) 0.0566(10) -0.4441(11)
H25A H 0.2022 0.0940 -0.4074
C25A C -0.0834(11) 0.0370(10) -0.5671(10)
H26A H -0.1395 0.0605 -0.6133
C26A C 0.0396(10) 0.0963(9) -0.5081(9)
Mo1 Mo 0.60332(9) -0.15122(8) -0.16808(8)
Mo2 Mo 0.29372(9) -0.22874(8) -0.26916(8)
Mo3 Mo 0.43956(9) 0.02269(9) -0.25249(8)
Mo4 Mo 0.81160(8) 0.06024(8) 0.11290(8)
Mo5 Mo 0.36330(9) 0.19323(9) -0.06954(9)
Mo6 Mo 0.66867(9) 0.24174(8) 0.01808(9)
P1 P 0.5000 0.0000 0.0000
O1 O 0.5187(9) 0.2720(10) -0.0083(9)
O2 O 0.5991(11) -0.0476(11) 0.0009(11)
O3 O 0.4950(11) 0.0829(11) -0.0559(11)
O4 O 0.3571(8) 0.1057(10) -0.2080(9)
O5 O 0.5849(9) 0.1526(10) -0.1376(10)
O6 O 0.3221(8) -0.1109(9) -0.3105(10)
O7 O 0.1854(11) -0.1600(9) -0.2385(9)
O8 O 0.5524(7) -0.0591(8) -0.2369(9)
O9 O 0.7785(10) -0.0596(7) 0.1359(7)
O10 O 0.6216(9) -0.2238(7) -0.0708(7)
O11 O 0.1959(8) -0.3355(7) -0.3958(8)
O12 O 0.2956(12) -0.2930(9) -0.1751(10)
O13 O 0.6503(9) -0.2222(7) -0.2463(9)
O14 O 0.7432(10) -0.0362(8) -0.0467(7)
O15 O 0.7792(11) 0.1715(10) 0.0514(9)
O16 O 0.7440(8) 0.3586(6) 0.0292(7)
O17 O 0.4369(7) -0.2438(9) -0.2505(10)
O18 O 0.4134(7) 0.0343(7) -0.3694(7)
O19 O 0.9561(7) 0.0915(9) 0.1606(7)
O20 O 0.2924(8) 0.2777(7) -0.1069(7)
O21 O 0.4695(11) -0.0672(10) -0.1223(11)
O22 O 0.6220(12) 0.0939(11) 0.0746(11)
Mo1A Mo 0.39668(9) 0.15122(8) 0.16808(8)
Mo2A Mo 0.70628(9) 0.22874(8) 0.26916(8)
Mo3A Mo 0.56044(9) -0.02269(9) 0.25249(8)
Mo4A Mo 0.18840(8) -0.06024(8) -0.11290(8)
Mo5A Mo 0.63670(9) -0.19323(9) 0.06954(9)
Mo6A Mo 0.33133(9) -0.24174(8) -0.01808(9)
O1A O 0.4813(9) -0.2720(10) 0.0083(9)
O2A O 0.4009(11) 0.0476(11) -0.0009(11)
O3A O 0.5050(11) -0.0829(11) 0.0559(11)
O4A O 0.6429(8) -0.1057(10) 0.2080(9)
O5A O 0.4151(9) -0.1526(10) 0.1376(10)
O6A O 0.6779(8) 0.1109(9) 0.3105(10)
O7A O 0.8146(11) 0.1600(9) 0.2385(9)
O8A O 0.4476(7) 0.0591(8) 0.2369(9)
O9A O 0.2215(10) 0.0596(7) -0.1359(7)
O10A O 0.3784(9) 0.2238(7) 0.0708(7)
O11A O 0.8041(8) 0.3355(7) 0.3958(8)
O12A O 0.7044(12) 0.2930(9) 0.1751(10)
O13A O 0.3497(9) 0.2222(7) 0.2463(9)
O14A O 0.2568(10) 0.0362(8) 0.0467(7)
O15A O 0.2208(11) -0.1715(10) -0.0514(9)
O16A O 0.2560(8) -0.3586(6) -0.0292(7)
O17A O 0.5631(7) 0.2438(9) 0.2505(10)
O18A O 0.5866(7) -0.0343(7) 0.3694(7)
O19A O 0.0439(7) -0.0915(9) -0.1606(7)
O20A O 0.7076(8) -0.2777(7) 0.1069(7)
O21A O 0.5305(11) 0.0672(10) 0.1223(11)
O22A O 0.3780(12) -0.0939(11) -0.0746(11)
loop_
_geom_bond_atom_site_label_1
_geom_bond_atom_site_label_2
_geom_bond_site_symmetry_1
_geom_bond_site_symmetry_2
Mo1 O2 1_555 1_555
Mo2 O6 1_555 1_555
Mo3 O3 1_555 1_555
Mo4 O2 1_555 1_555
Mo5 O1 1_555 1_555
Mo6 O1 1_555 1_555
Cu1 N6 1_555 1_555
Cu2 N2 1_555 1_555
P1 O2 1_555 1_555
O2 O21 1_555 1_555
O3 Mo5 1_555 1_555
O4 Mo3 1_555 1_555
O5 Mo3 1_555 1_555
O6 Mo3 1_555 1_555
O7 Mo2 1_555 1_555
O8 Mo1 1_555 1_555
O9 Mo4 1_555 1_555
O10 Mo1 1_555 1_555
O11 Mo2 1_555 1_555
O12 Mo2 1_555 1_555
O13 Mo1 1_555 1_555
O14 Mo1 1_555 1_555
O15 Mo4 1_555 1_555
O16 Mo6 1_555 1_555
O17 Mo1 1_555 1_555
O18 Mo3 1_555 1_555
O19 Mo4 1_555 1_555
O20 Mo5 1_555 1_555
O21 Mo2 1_555 1_555
O22 P1 1_555 1_555
N1 C7 1_555 1_555
N2 C5 1_555 1_555
N3 C9 1_555 1_555
N4 C1 1_555 1_555
N5 C13 1_555 1_555
N6 C14 1_555 1_555
C1 H1 1_555 1_555
C2 H2 1_555 1_555
C3 H3 1_555 1_555
C4 N4 1_555 1_555
H4 C4 1_555 1_555
H5 C4 1_555 1_555
C5 H6 1_555 1_555
C6 C3 1_555 1_555
H7 C6 1_555 1_555
C7 C5 1_555 1_555
H8 C7 1_555 1_555
C8 N1 1_555 1_555
H9 C8 1_555 1_555
C9 C1 1_555 1_555
H10 C9 1_555 1_555
C10 C2 1_555 1_555
C11 C2 1_555 1_555
H11 C11 1_555 1_555
C12 N3 1_555 1_555
H12 C12 1_555 1_555
C13 H13 1_555 1_555
C14 N5 1_555 1_555
H14 C14 1_555 1_555
C15 N6 1_555 1_555
H15 C15 1_555 1_555
C16 H16 1_555 1_555
C17 N5 1_555 1_555
H17 C17 1_555 1_555
H18 C17 1_555 1_555
C18 H19 1_555 1_555
C19 C16 1_555 1_555
N7 C21 1_555 1_555
C20 H20 1_555 1_555
N8 C20 1_555 1_555
C21 C20 1_555 1_555
H21 C21 1_555 1_555
C22 N7 1_555 1_555
H22 C22 1_555 1_555
C23 N7 1_555 1_555
H23 C23 1_555 1_555
H24 C23 1_555 1_555
C24 H25 1_555 1_555
C25 H26 1_555 1_555
C26 C23 1_555 1_555
C27 N1 1_555 1_555
H27 C27 1_555 1_555
H28 C27 1_555 1_555
C28 C6 1_555 1_555
Mo1A O2A 1_555 1_555
Mo2A O22 1_555 1_555
Mo3A O3A 1_555 1_555
Mo4A O7 1_555 1_555
Mo5A O9 1_555 1_555
Mo6A O12 1_555 1_555
Cu1_2 N6A 1_555 1_555
Cu2_2 N3 1_555 1_555
O1A Mo5A 1_555 1_555
O2A P1 1_555 1_555
O3A P1 1_555 1_555
O4A Mo3A 1_555 1_555
O5A Mo3A 1_555 1_555
O6A Mo2A 1_555 1_555
O7A Mo4 1_555 1_555
O8A Mo1A 1_555 1_555
O9A Mo5 1_555 1_555
O10A Mo5 1_555 1_555
O11A Mo2A 1_555 1_555
O12A Mo6 1_555 1_555
O13A Mo1A 1_555 1_555
O14A Mo1A 1_555 1_555
O15A Mo4A 1_555 1_555
O16A Mo6A 1_555 1_555
O17A Mo1A 1_555 1_555
O18A Mo3A 1_555 1_555
O19A Mo4A 1_555 1_555
O20A Mo5A 1_555 1_555
O21A P1 1_555 1_555
O22A Mo2 1_555 1_555
N3_2 Cu2 1_555 1_555
N5A C13A 1_555 1_555
N6A C14A 1_555 1_555
N6A_2 Cu1 1_555 1_555
C13A H13A 1_555 1_555
C14A N5A 1_555 1_555
H14A C14A 1_555 1_555
C15A N6A 1_555 1_555
H15A C15A 1_555 1_555
C16A C18 1_555 1_555
H16A C16A 1_555 1_555
C17A N5A 1_555 1_555
H17A C17A 1_555 1_555
H18A C17A 1_555 1_555
C18A C16 1_555 1_555
H19A C18A 1_555 1_555
C19A C16A 1_555 1_555
N7A C21A 1_555 1_555
C20A H20A 1_555 1_555
N8A C20A 1_555 1_555
C21A C20A 1_555 1_555
H21A C21A 1_555 1_555
C22A N7A 1_555 1_555
H22A C22A 1_555 1_555
C23A N7A 1_555 1_555
H23A C23A 1_555 1_555
H24A C23A 1_555 1_555
C24A C25 1_555 1_555
H25A C24A 1_555 1_555
C25A C24 1_555 1_555
H26A C25A 1_555 1_555
C26A C23A 1_555 1_555
Mo2 O17 1_555 1_555
Mo3 O8 1_555 1_555
Mo4 O14 1_555 1_555
Mo5 O4 1_555 1_555
Mo6 O3 1_555 1_555
Mo6 O5 1_555 1_555
Mo6 O15 1_555 1_555
P1 O3 1_555 1_555
P1 O21 1_555 1_555
P1 O22A 1_555 1_555
O2 O22 1_555 1_555
O10 Mo5A 1_555 1_555
O21 O22A 1_555 1_555
O22 O21A 1_555 1_555
N2 C8 1_555 1_555
N4 C12 1_555 1_555
C3 C10 1_555 1_555
C4 C10 1_555 1_555
C11 C28 1_555 1_555
C13 C15 1_555 1_555
C17 C19 1_555 1_555
C18 C19 1_555 1_555
N8 C22 1_555 1_555
C24 C26 1_555 1_555
C25 C26 1_555 1_555
C27 C28 1_555 1_555
Mo1A O10A 1_555 1_555
Mo2A O7A 1_555 1_555
Mo2A O12A 1_555 1_555
Mo2A O17A 1_555 1_555
Mo2A O21A 1_555 1_555
Mo3A O6A 1_555 1_555
Mo3A O8A 1_555 1_555
Mo4A O2A 1_555 1_555
Mo4A O9A 1_555 1_555
Mo4A O14A 1_555 1_555
Mo5A O3A 1_555 1_555
Mo5A O4A 1_555 1_555
Mo6A O1A 1_555 1_555
Mo6A O3A 1_555 1_555
Mo6A O5A 1_555 1_555
Mo6A O15A 1_555 1_555
O2A O21A 1_555 1_555
O2A O22A 1_555 1_555
C13A C15A 1_555 1_555
C17A C19A 1_555 1_555
C18A C19A 1_555 1_555
N8A C22A 1_555 1_555
C24A C26A 1_555 1_555
C25A C26A 1_555 1_555

#END
