
#######################################################################
#
#                 Cambridge Crystallographic Data Centre
#                                CCDC 
#
#######################################################################
#
# If this CIF has been generated from an entry in the Cambridge 
# Structural Database, then it will include bibliographic, chemical, 
# crystal, experimental, refinement or atomic coordinate data resulting 
# from the CCDC's data processing and validation procedures.
#
#######################################################################

data_KAVXIQ
_symmetry_cell_setting           tetragonal
_symmetry_space_group_name_H-M   'I 41/a'
_symmetry_Int_Tables_number      88
_space_group_name_Hall           '-I 4ad'
loop_
_symmetry_equiv_pos_site_id
_symmetry_equiv_pos_as_xyz
1 x,y,z
2 1/2-x,-y,1/2+z
3 3/4-y,1/4+x,1/4+z
4 3/4+y,3/4-x,3/4+z
5 1/2+x,1/2+y,1/2+z
6 -x,1/2-y,z
7 1/4-y,3/4+x,3/4+z
8 1/4+y,1/4-x,1/4+z
9 -x,-y,-z
10 1/2+x,y,1/2-z
11 1/4+y,3/4-x,3/4-z
12 1/4-y,1/4+x,1/4-z
13 1/2-x,1/2-y,1/2-z
14 x,1/2+y,-z
15 3/4+y,1/4-x,1/4-z
16 3/4-y,3/4+x,3/4-z
_cell_length_a                   22.921(3)
_cell_length_b                   22.921(3)
_cell_length_c                   15.642(3)
_cell_angle_alpha                90
_cell_angle_beta                 90
_cell_angle_gamma                90
_cell_volume                     8217.87
loop_
_atom_site_label
_atom_site_type_symbol
_atom_site_fract_x
_atom_site_fract_y
_atom_site_fract_z
P1 P 0.5000 0.2500 -0.1250
Zn1 Zn 0.5000 0.2500 0.3750
V1 V 0.5000 0.2500 0.12993(7)
V2 V 0.65279(3) 0.28611(3) -0.11995(4)
Mo2 Mo 0.399400(16) 0.306615(16) 0.02752(2)
Mo3 Mo 0.564107(17) 0.344720(16) 0.02599(3)
C1 C 0.39102(19) 0.32040(19) 0.4363(3)
H1 H 0.4055 0.3241 0.4916
C2 C 0.2416(2) 0.5389(2) 0.3996(3)
C3 C 0.2220(2) 0.6001(2) 0.3750(3)
H2 H 0.2220 0.6036 0.3132
H3 H 0.1823 0.6060 0.3947
C4 C 0.2865(3) 0.6872(2) 0.3690(4)
H4 H 0.2854 0.6924 0.3100
C5 C 0.2750(2) 0.4256(2) 0.4392(3)
C6 C 0.2923(2) 0.3641(2) 0.4655(3)
H5 H 0.3059 0.3649 0.5242
H6 H 0.2582 0.3392 0.4632
C7 C 0.2177(2) 0.4386(2) 0.4204(3)
H7 H 0.1900 0.4090 0.4200
C8 C 0.2009(2) 0.4950(2) 0.4024(3)
H8 H 0.1619 0.5033 0.3920
C9 C 0.3835(2) 0.2998(2) 0.3035(3)
H9 H 0.3923 0.2863 0.2489
C10 C 0.2993(2) 0.5260(2) 0.4169(3)
H10 H 0.3272 0.5555 0.4147
C11 C 0.3326(2) 0.3258(3) 0.3265(3)
H11 H 0.3006 0.3331 0.2915
C12 C 0.3158(2) 0.4699(2) 0.4374(3)
H12 H 0.3546 0.4618 0.4501
C13 C 0.3070(3) 0.6988(2) 0.5040(4)
H13 H 0.3230 0.7134 0.5543
C14 C 0.2714(2) 0.6530(2) 0.4966(4)
H14 H 0.2572 0.6302 0.5412
O1 O 0.63405(13) 0.34003(13) -0.0275(2)
O2 O 0.48349(12) 0.31952(13) 0.0687(2)
O3 O 0.44693(12) 0.23654(12) -0.06880(19)
O4 O 0.36401(14) 0.34204(14) 0.1058(2)
O5 O 0.41469(13) 0.36225(13) -0.0517(2)
O6 O 0.34017(13) 0.27024(13) -0.0283(2)
O7 O 0.57826(13) 0.39075(13) 0.10746(19)
O8 O 0.52634(13) 0.38889(13) -0.0516(2)
O9 O 0.58019(13) 0.26852(12) 0.0912(2)
O10 O 0.72000(13) 0.30311(14) -0.1397(2)
O11 O 0.5000 0.2500 0.2338(3)
N1 N 0.41972(16) 0.29623(16) 0.3725(2)
N2 N 0.25959(17) 0.64579(16) 0.4115(3)
N3 N 0.33790(17) 0.33915(16) 0.4114(3)
N4 N 0.3154(2) 0.7200(2) 0.4236(3)
V1J V 0.5000 0.2500 0.62007(7)
V2E V 0.34721(3) 0.21389(3) -0.11995(4)
V2O V 0.46389(3) 0.40279(3) -0.13005(4)
V2J V 0.53611(3) 0.09721(3) -0.13005(4)
Mo2E Mo 0.600600(16) 0.193385(16) 0.02752(2)
Mo2J Mo 0.556615(16) 0.350600(16) 0.72248(2)
Mo2O Mo 0.443385(16) 0.149400(16) 0.72248(2)
Mo2J_2 Mo 0.556615(16) 0.350600(16) -0.27752(2)
Mo2O_2 Mo 0.443385(16) 0.149400(16) -0.27752(2)
Mo3E Mo 0.435893(17) 0.155280(16) 0.02599(3)
Mo3J Mo 0.594720(16) 0.185893(17) 0.72401(3)
Mo3O Mo 0.405280(16) 0.314107(17) 0.72401(3)
Mo3O_2 Mo 0.405280(16) 0.314107(17) -0.27599(3)
Mo3J_2 Mo 0.594720(16) 0.185893(17) -0.27599(3)
C1E C 0.60898(19) 0.17960(19) 0.4363(3)
C1J C 0.57040(19) 0.35898(19) 0.3137(3)
C1O C 0.42960(19) 0.14102(19) 0.3137(3)
H1E H 0.5945 0.1759 0.4916
H1J H 0.5741 0.3445 0.2584
H1O H 0.4259 0.1555 0.2584
C2E C 0.7584(2) -0.0389(2) 0.3996(3)
C2J C 0.7889(2) 0.5084(2) 0.3504(3)
C2O C 0.2111(2) -0.0084(2) 0.3504(3)
C3E C 0.7780(2) -0.1001(2) 0.3750(3)
C3J C 0.8501(2) 0.5280(2) 0.3750(3)
C3O C 0.1499(2) -0.0280(2) 0.3750(3)
H2E H 0.7780 -0.1036 0.3132
H2J H 0.8536 0.5280 0.4368
H2O H 0.1464 -0.0280 0.4368
H3E H 0.8177 -0.1060 0.3947
H3J H 0.8560 0.5677 0.3553
H3O H 0.1440 -0.0677 0.3553
C4E C 0.7135(3) -0.1872(2) 0.3690(4)
C4J C 0.9372(2) 0.4635(3) 0.3810(4)
C4O C 0.0628(2) 0.0365(3) 0.3810(4)
H4E H 0.7146 -0.1924 0.3100
H4J H 0.9424 0.4646 0.4400
H4O H 0.0576 0.0354 0.4400
C5E C 0.7250(2) 0.0744(2) 0.4392(3)
C5J C 0.6756(2) 0.4750(2) 0.3108(3)
C5O C 0.3244(2) 0.0250(2) 0.3108(3)
C6E C 0.7077(2) 0.1359(2) 0.4655(3)
C6J C 0.6141(2) 0.4577(2) 0.2845(3)
C6O C 0.3859(2) 0.0423(2) 0.2845(3)
H5E H 0.6941 0.1351 0.5242
H5J H 0.6149 0.4441 0.2258
H5O H 0.3851 0.0559 0.2258
H6E H 0.7418 0.1608 0.4632
H6J H 0.5892 0.4918 0.2868
H6O H 0.4108 0.0082 0.2868
C7E C 0.7823(2) 0.0614(2) 0.4204(3)
C7J C 0.6886(2) 0.5323(2) 0.3296(3)
C7O C 0.3114(2) -0.0323(2) 0.3296(3)
H7E H 0.8100 0.0910 0.4200
H7J H 0.6590 0.5600 0.3300
H7O H 0.3410 -0.0600 0.3300
C8E C 0.7991(2) 0.0050(2) 0.4024(3)
C8J C 0.7450(2) 0.5491(2) 0.3476(3)
C8O C 0.2550(2) -0.0491(2) 0.3476(3)
H8E H 0.8381 -0.0033 0.3920
H8J H 0.7533 0.5881 0.3580
H8O H 0.2467 -0.0881 0.3580
C9E C 0.6165(2) 0.2002(2) 0.3035(3)
C9J C 0.5498(2) 0.3665(2) 0.4465(3)
C9O C 0.4502(2) 0.1335(2) 0.4465(3)
H9E H 0.6077 0.2137 0.2489
H9J H 0.5363 0.3577 0.5011
H9O H 0.4637 0.1423 0.5011
C10E C 0.7007(2) -0.0260(2) 0.4169(3)
C10J C 0.7760(2) 0.4507(2) 0.3331(3)
C10O C 0.2240(2) 0.0493(2) 0.3331(3)
H10E H 0.6728 -0.0555 0.4147
H10J H 0.8055 0.4228 0.3353
H10O H 0.1945 0.0772 0.3353
C11E C 0.6674(2) 0.1742(3) 0.3265(3)
C11J C 0.5758(3) 0.4174(2) 0.4235(3)
C11O C 0.4242(3) 0.0826(2) 0.4235(3)
H11E H 0.6994 0.1669 0.2915
H11J H 0.5831 0.4494 0.4585
H11O H 0.4169 0.0506 0.4585
C12E C 0.6842(2) 0.0301(2) 0.4374(3)
C12J C 0.7199(2) 0.4342(2) 0.3126(3)
C12O C 0.2801(2) 0.0658(2) 0.3126(3)
H12E H 0.6454 0.0382 0.4501
H12J H 0.7118 0.3954 0.2999
H12O H 0.2882 0.1046 0.2999
C13E C 0.6930(3) -0.1988(2) 0.5040(4)
C13J C 0.9488(2) 0.4430(3) 0.2460(4)
C13O C 0.0512(2) 0.0570(3) 0.2460(4)
H13E H 0.6770 -0.2134 0.5543
H13J H 0.9634 0.4270 0.1957
H13O H 0.0366 0.0730 0.1957
C14E C 0.7286(2) -0.1530(2) 0.4966(4)
C14J C 0.9030(2) 0.4786(2) 0.2534(4)
C14O C 0.0970(2) 0.0214(2) 0.2534(4)
H14E H 0.7428 -0.1302 0.5412
H14J H 0.8802 0.4928 0.2088
H14O H 0.1198 0.0072 0.2088
O1E O 0.36595(13) 0.15997(13) -0.0275(2)
O1O O 0.40997(13) 0.38405(13) -0.2225(2)
O1J O 0.59003(13) 0.11595(13) -0.2225(2)
O2E O 0.51651(12) 0.18048(13) 0.0687(2)
O2J O 0.56952(13) 0.26651(12) 0.6813(2)
O2O O 0.43048(13) 0.23349(12) 0.6813(2)
O2J_2 O 0.56952(13) 0.26651(12) -0.3187(2)
O2O_2 O 0.43048(13) 0.23349(12) -0.3187(2)
O3E O 0.55307(12) 0.26346(12) -0.06880(19)
O3J O 0.48654(12) 0.30307(12) -0.18120(19)
O3O O 0.51346(12) 0.19693(12) -0.18120(19)
O4E O 0.63599(14) 0.15796(14) 0.1058(2)
O4J O 0.59204(14) 0.38599(14) -0.3558(2)
O4O O 0.40796(14) 0.11401(14) -0.3558(2)
O5E O 0.58531(13) 0.13775(13) -0.0517(2)
O5J O 0.61225(13) 0.33531(13) -0.1983(2)
O5O O 0.38775(13) 0.16469(13) -0.1983(2)
O6E O 0.65983(13) 0.22976(13) -0.0283(2)
O6J O 0.52024(13) 0.40983(13) -0.2217(2)
O6O O 0.47976(13) 0.09017(13) -0.2217(2)
O7E O 0.42174(13) 0.10925(13) 0.10746(19)
O7O O 0.35925(13) 0.32826(13) -0.35746(19)
O7J O 0.64075(13) 0.17174(13) -0.35746(19)
O8E O 0.47366(13) 0.11111(13) -0.0516(2)
O8J O 0.63889(13) 0.22366(13) -0.1984(2)
O8O O 0.36111(13) 0.27634(13) -0.1984(2)
O9E O 0.41981(13) 0.23148(12) 0.0912(2)
O9J O 0.51852(12) 0.16981(13) 0.6588(2)
O9O O 0.48148(12) 0.33019(13) 0.6588(2)
O9O_2 O 0.48148(12) 0.33019(13) -0.3412(2)
O9J_2 O 0.51852(12) 0.16981(13) -0.3412(2)
O10E O 0.28000(13) 0.19689(14) -0.1397(2)
O10O O 0.44689(14) 0.47000(13) -0.1103(2)
O10J O 0.55311(14) 0.03000(13) -0.1103(2)
O11J O 0.5000 0.2500 0.5162(3)
N1E N 0.58028(16) 0.20377(16) 0.3725(2)
N1J N 0.54623(16) 0.33028(16) 0.3775(2)
N1O N 0.45377(16) 0.16972(16) 0.3775(2)
N2E N 0.74041(17) -0.14579(16) 0.4115(3)
N2J N 0.89579(16) 0.49041(17) 0.3385(3)
N2O N 0.10421(16) 0.00959(17) 0.3385(3)
N3E N 0.66210(17) 0.16085(16) 0.4114(3)
N3J N 0.58915(16) 0.41210(17) 0.3386(3)
N3O N 0.41085(16) 0.08790(17) 0.3386(3)
N4E N 0.6846(2) -0.2200(2) 0.4236(3)
N4J N 0.9700(2) 0.4346(2) 0.3264(3)
N4O N 0.0300(2) 0.0654(2) 0.3264(3)
O12 O 0.3078(4) 0.2044(4) 0.1777(7)
Mo1? Mo 0.34721(3) 0.21389(3) -0.11995(4)
loop_
_geom_bond_atom_site_label_1
_geom_bond_atom_site_label_2
_geom_bond_site_symmetry_1
_geom_bond_site_symmetry_2
P1 O3 1_555 1_555
Zn1 O11 1_555 1_555
V1 O2 1_555 1_555
V2 O1 1_555 1_555
Mo2 O2 1_555 1_555
Mo3 O1 1_555 1_555
C1 H1 1_555 1_555
C2 C3 1_555 1_555
C3 H2 1_555 1_555
H3 C3 1_555 1_555
C4 H4 1_555 1_555
C5 C6 1_555 1_555
C6 H5 1_555 1_555
H6 C6 1_555 1_555
C7 C5 1_555 1_555
H7 C7 1_555 1_555
C8 C2 1_555 1_555
H8 C8 1_555 1_555
C9 H9 1_555 1_555
C10 C2 1_555 1_555
H10 C10 1_555 1_555
C11 C9 1_555 1_555
H11 C11 1_555 1_555
C12 C5 1_555 1_555
H12 C12 1_555 1_555
C13 H13 1_555 1_555
C14 C13 1_555 1_555
H14 C14 1_555 1_555
O2 Mo3 1_555 1_555
O3 Mo2 1_555 1_555
O4 Mo2 1_555 1_555
O5 Mo2 1_555 1_555
O6 Mo2 1_555 1_555
O7 Mo3 1_555 1_555
O8 Mo3 1_555 1_555
O9 V1 1_555 1_555
O10 V2 1_555 1_555
O11 V1 1_555 1_555
N1 Zn1 1_555 1_555
N2 C3 1_555 1_555
N3 C1 1_555 1_555
N4 C4 1_555 1_555
V1J O2J 1_555 1_555
V2E O6 1_555 1_555
V2O O5 1_555 1_555
V2J O1J 1_555 1_555
Mo2E O9 1_555 1_555
Mo2J O2J 1_555 1_555
Mo2O O2O 1_555 1_555
Mo2J_2 O2J_2 1_555 1_555
Mo2O_2 O2O_2 1_555 1_555
Mo3E O3 1_555 1_555
Mo3J O2J 1_555 1_555
Mo3O O2O 1_555 1_555
Mo3O_2 O1O 1_555 1_555
Mo3J_2 O1J 1_555 1_555
C1E H1E 1_555 1_555
C1J H1J 1_555 1_555
C1O H1O 1_555 1_555
C2E C3E 1_555 1_555
C2J C3J 1_555 1_555
C2O C3O 1_555 1_555
C3E H2E 1_555 1_555
C3J H2J 1_555 1_555
C3O H2O 1_555 1_555
H3E C3E 1_555 1_555
H3J C3J 1_555 1_555
H3O C3O 1_555 1_555
C4E H4E 1_555 1_555
C4J H4J 1_555 1_555
C4O H4O 1_555 1_555
C5E C6E 1_555 1_555
C5J C6J 1_555 1_555
C5O C6O 1_555 1_555
C6E H5E 1_555 1_555
C6J H5J 1_555 1_555
C6O H5O 1_555 1_555
H6E C6E 1_555 1_555
H6J C6J 1_555 1_555
H6O C6O 1_555 1_555
C7E C5E 1_555 1_555
C7J C5J 1_555 1_555
C7O C5O 1_555 1_555
H7E C7E 1_555 1_555
H7J C7J 1_555 1_555
H7O C7O 1_555 1_555
C8E C2E 1_555 1_555
C8J C2J 1_555 1_555
C8O C2O 1_555 1_555
H8E C8E 1_555 1_555
H8J C8J 1_555 1_555
H8O C8O 1_555 1_555
C9E H9E 1_555 1_555
C9J H9J 1_555 1_555
C9O H9O 1_555 1_555
C10E C2E 1_555 1_555
C10J C2J 1_555 1_555
C10O C2O 1_555 1_555
H10E C10E 1_555 1_555
H10J C10J 1_555 1_555
H10O C10O 1_555 1_555
C11E C9E 1_555 1_555
C11J C9J 1_555 1_555
C11O C9O 1_555 1_555
H11E C11E 1_555 1_555
H11J C11J 1_555 1_555
H11O C11O 1_555 1_555
C12E C5E 1_555 1_555
C12J C5J 1_555 1_555
C12O C5O 1_555 1_555
H12E C12E 1_555 1_555
H12J C12J 1_555 1_555
H12O C12O 1_555 1_555
C13E H13E 1_555 1_555
C13J H13J 1_555 1_555
C13O H13O 1_555 1_555
C14E C13E 1_555 1_555
C14J C13J 1_555 1_555
C14O C13O 1_555 1_555
H14E C14E 1_555 1_555
H14J C14J 1_555 1_555
H14O C14O 1_555 1_555
O1E V2E 1_555 1_555
O1O V2O 1_555 1_555
O2E V1 1_555 1_555
O2O V1J 1_555 1_555
O2J_2 Mo3J_2 1_555 1_555
O2O_2 Mo3O_2 1_555 1_555
O3E P1 1_555 1_555
O3J P1 1_555 1_555
O3O P1 1_555 1_555
O4E Mo2E 1_555 1_555
O4J Mo2J_2 1_555 1_555
O4O Mo2O_2 1_555 1_555
O5E V2J 1_555 1_555
O5J V2 1_555 1_555
O5O V2E 1_555 1_555
O6E V2 1_555 1_555
O6J V2O 1_555 1_555
O6O V2J 1_555 1_555
O7E Mo3E 1_555 1_555
O7O Mo3O_2 1_555 1_555
O7J Mo3J_2 1_555 1_555
O8E V2J 1_555 1_555
O8J V2 1_555 1_555
O8O V2E 1_555 1_555
O9E V1 1_555 1_555
O9J V1J 1_555 1_555
O9O V1J 1_555 1_555
O9O_2 Mo2J_2 1_555 1_555
O9J_2 Mo2O_2 1_555 1_555
O10E V2E 1_555 1_555
O10O V2O 1_555 1_555
O10J V2J 1_555 1_555
O11J Zn1 1_555 1_555
N1E Zn1 1_555 1_555
N1J Zn1 1_555 1_555
N1O Zn1 1_555 1_555
N2E C3E 1_555 1_555
N2J C3J 1_555 1_555
N2O C3O 1_555 1_555
N3E C1E 1_555 1_555
N3J C1J 1_555 1_555
N3O C1O 1_555 1_555
N4E C4E 1_555 1_555
N4J C4J 1_555 1_555
N4O C4O 1_555 1_555
Mo2 O9E 1_555 1_555
Mo3 O9 1_555 1_555
Mo3 O3E 1_555 1_555
C1 N1 1_555 1_555
C4 N2 1_555 1_555
C6 N3 1_555 1_555
C7 C8 1_555 1_555
C9 N1 1_555 1_555
C10 C12 1_555 1_555
C11 N3 1_555 1_555
C13 N4 1_555 1_555
C14 N2 1_555 1_555
O8 V2O 1_555 1_555
V1J O11J 1_555 1_555
Mo2E O2E 1_555 1_555
Mo2E O3E 1_555 1_555
Mo2E O5E 1_555 1_555
Mo2E O6E 1_555 1_555
Mo2J O9O 1_555 1_555
Mo2O O9J 1_555 1_555
Mo2J_2 O3J 1_555 1_555
Mo2J_2 O5J 1_555 1_555
Mo2J_2 O6J 1_555 1_555
Mo2O_2 O3O 1_555 1_555
Mo2O_2 O5O 1_555 1_555
Mo2O_2 O6O 1_555 1_555
Mo3E O1E 1_555 1_555
Mo3E O2E 1_555 1_555
Mo3E O8E 1_555 1_555
Mo3E O9E 1_555 1_555
Mo3J O9J 1_555 1_555
Mo3O O9O 1_555 1_555
Mo3O_2 O3J 1_555 1_555
Mo3O_2 O8O 1_555 1_555
Mo3O_2 O9O_2 1_555 1_555
Mo3J_2 O3O 1_555 1_555
Mo3J_2 O8J 1_555 1_555
Mo3J_2 O9J_2 1_555 1_555
C1E N1E 1_555 1_555
C1J N1J 1_555 1_555
C1O N1O 1_555 1_555
C4E N2E 1_555 1_555
C4J N2J 1_555 1_555
C4O N2O 1_555 1_555
C6E N3E 1_555 1_555
C6J N3J 1_555 1_555
C6O N3O 1_555 1_555
C7E C8E 1_555 1_555
C7J C8J 1_555 1_555
C7O C8O 1_555 1_555
C9E N1E 1_555 1_555
C9J N1J 1_555 1_555
C9O N1O 1_555 1_555
C10E C12E 1_555 1_555
C10J C12J 1_555 1_555
C10O C12O 1_555 1_555
C11E N3E 1_555 1_555
C11J N3J 1_555 1_555
C11O N3O 1_555 1_555
C13E N4E 1_555 1_555
C13J N4J 1_555 1_555
C13O N4O 1_555 1_555
C14E N2E 1_555 1_555
C14J N2J 1_555 1_555
C14O N2O 1_555 1_555

#END
