
#######################################################################
#
#                 Cambridge Crystallographic Data Centre
#                                CCDC 
#
#######################################################################
#
# If this CIF has been generated from an entry in the Cambridge 
# Structural Database, then it will include bibliographic, chemical, 
# crystal, experimental, refinement or atomic coordinate data resulting 
# from the CCDC's data processing and validation procedures.
#
#######################################################################

data_KAVXEM
_symmetry_cell_setting           tetragonal
_symmetry_space_group_name_H-M   'I 41/a'
_symmetry_Int_Tables_number      88
_space_group_name_Hall           '-I 4ad'
loop_
_symmetry_equiv_pos_site_id
_symmetry_equiv_pos_as_xyz
1 x,y,z
2 3/4-y,1/4+x,1/4+z
3 1/2-x,-y,1/2+z
4 3/4+y,3/4-x,3/4+z
5 1/2+x,1/2+y,1/2+z
6 1/4-y,3/4+x,3/4+z
7 -x,1/2-y,z
8 1/4+y,1/4-x,1/4+z
9 -x,-y,-z
10 1/4+y,3/4-x,3/4-z
11 1/2+x,y,1/2-z
12 1/4-y,1/4+x,1/4-z
13 1/2-x,1/2-y,1/2-z
14 3/4+y,1/4-x,1/4-z
15 x,1/2+y,-z
16 3/4-y,3/4+x,3/4-z
_cell_length_a                   23.033(10)
_cell_length_b                   23.033(10)
_cell_length_c                   15.607(3)
_cell_angle_alpha                90
_cell_angle_beta                 90
_cell_angle_gamma                90
_cell_volume                     8279.81
loop_
_atom_site_label
_atom_site_type_symbol
_atom_site_fract_x
_atom_site_fract_y
_atom_site_fract_z
Mo1 Mo -0.06421(4) -0.34464(3) 0.52569(5)
Mo2 Mo -0.10067(3) -0.19383(4) 0.52721(5)
V1 V -0.15198(6) -0.28614(6) 0.38010(9)
Mn1 Mn 0.0000 -0.2500 0.8750
V2 V 0.0000 -0.2500 0.62975(13)
P1 P 0.0000 -0.2500 0.3750
O1 O -0.0782(3) -0.3909(3) 0.6068(4)
O2 O -0.2187(3) -0.3031(3) 0.3603(4)
O3 O -0.1362(3) -0.1585(3) 0.6053(4)
O4 O -0.0530(3) -0.2635(3) 0.4311(4)
O5 O -0.1340(3) -0.3400(3) 0.4719(4)
O6 O -0.1592(3) -0.2300(3) 0.4720(4)
O7 O -0.1114(3) -0.3349(3) 0.3020(4)
O8 O -0.0793(3) -0.2687(2) 0.5913(4)
O9 O -0.1385(3) -0.2246(3) 0.3013(4)
O10 O 0.0000 -0.2500 0.7345(6)
O11 O -0.0165(2) -0.1803(2) 0.5699(4)
N1 N 0.0468(4) -0.1684(4) 0.8778(5)
N2 N 0.0896(4) -0.0874(4) 0.8387(6)
N3 N 0.3954(4) -0.0086(4) 0.8390(6)
N4 N 0.4688(5) -0.0644(5) 0.8291(7)
C1 C 0.1147(5) -0.0419(5) 0.7830(7)
H1 H 0.0902 -0.0077 0.7848
H2 H 0.1157 -0.0558 0.7243
C2 C 0.4353(6) -0.0357(6) 0.8845(9)
H3 H 0.4394 -0.0349 0.9438
C3 C 0.4038(5) -0.0216(6) 0.7545(9)
H4 H 0.3817 -0.0078 0.7089
C4 C 0.4494(6) -0.0575(6) 0.7487(10)
H5 H 0.4645 -0.0742 0.6993
C5 C 0.1764(4) -0.0255(4) 0.8112(6)
C6 C 0.2452(5) 0.0491(5) 0.8464(7)
H6 H 0.2532 0.0881 0.8564
C7 C 0.0751(6) -0.0826(6) 0.9239(8)
H7 H 0.0817 -0.0507 0.9592
C8 C 0.2752(5) -0.0481(5) 0.8349(8)
H8 H 0.3042 -0.0761 0.8399
C9 C 0.1888(5) 0.0314(4) 0.8286(7)
H9 H 0.1590 0.0587 0.8284
C10 C 0.2204(4) -0.0649(4) 0.8136(7)
H10 H 0.2129 -0.1036 0.8007
C11 C 0.0712(4) -0.1405(4) 0.8144(6)
H11 H 0.0753 -0.1554 0.7594
C12 C 0.0497(6) -0.1323(5) 0.9461(7)
H12 H 0.0360 -0.1409 1.0006
C13 C 0.2888(5) 0.0091(4) 0.8493(6)
C14 C 0.3492(5) 0.0284(5) 0.8735(8)
H13 H 0.3550 0.0677 0.8531
H14 H 0.3522 0.0290 0.9355
Mo1F Mo 0.06421(4) -0.15536(3) 0.52569(5)
Mo1I Mo -0.09464(3) -0.18579(4) 0.22431(5)
Mo1O Mo 0.09464(3) -0.31421(4) 0.22431(5)
Mo1I_2 Mo -0.09464(3) -0.18579(4) 1.22431(5)
Mo1O_2 Mo 0.09464(3) -0.31421(4) 1.22431(5)
Mo2F Mo 0.10067(3) -0.30617(4) 0.52721(5)
Mo2I Mo 0.05617(4) -0.14933(3) 0.22279(5)
Mo2O Mo -0.05617(4) -0.35067(3) 0.22279(5)
Mo2I_2 Mo 0.05617(4) -0.14933(3) 1.22279(5)
Mo2O_2 Mo -0.05617(4) -0.35067(3) 1.22279(5)
V1O V 0.03614(6) -0.40198(6) 0.36990(9)
V1I V -0.03614(6) -0.09802(6) 0.36990(9)
V1F V 0.15198(6) -0.21386(6) 0.38010(9)
V2I V 0.0000 -0.2500 1.12025(13)
O1F O 0.0782(3) -0.1091(3) 0.6068(4)
O1I O -0.1409(3) -0.1718(3) 0.1432(4)
O1O O 0.1409(3) -0.3282(3) 0.1432(4)
O2O O 0.0531(3) -0.4687(3) 0.3897(4)
O2I O -0.0531(3) -0.0313(3) 0.3897(4)
O2F O 0.2187(3) -0.1969(3) 0.3603(4)
O3F O 0.1362(3) -0.3415(3) 0.6053(4)
O3I O 0.0915(3) -0.1138(3) 0.1447(4)
O3O O -0.0915(3) -0.3862(3) 0.1447(4)
O4F O 0.0530(3) -0.2365(3) 0.4311(4)
O4I O -0.0135(3) -0.1970(3) 0.3189(4)
O4O O 0.0135(3) -0.3030(3) 0.3189(4)
O5O O 0.0900(3) -0.3840(3) 0.2781(4)
O5I O -0.0900(3) -0.1160(3) 0.2781(4)
O5F O 0.1340(3) -0.1600(3) 0.4719(4)
O6O O -0.0200(3) -0.4092(3) 0.2780(4)
O6I O 0.0200(3) -0.0908(3) 0.2780(4)
O6F O 0.1592(3) -0.2700(3) 0.4720(4)
O7O O 0.0849(3) -0.3614(3) 0.4480(4)
O7I O -0.0849(3) -0.1386(3) 0.4480(4)
O7F O 0.1114(3) -0.1651(3) 0.3020(4)
O8F O 0.0793(3) -0.2313(2) 0.5913(4)
O8I O -0.0187(2) -0.1707(3) 1.1587(4)
O8O O 0.0187(2) -0.3293(3) 1.1587(4)
O8I_2 O -0.0187(2) -0.1707(3) 0.1587(4)
O8O_2 O 0.0187(2) -0.3293(3) 0.1587(4)
O9O O -0.0254(3) -0.3885(3) 0.4487(4)
O9I O 0.0254(3) -0.1115(3) 0.4487(4)
O9F O 0.1385(3) -0.2754(3) 0.3013(4)
O10I O 0.0000 -0.2500 1.0155(6)
O11F O 0.0165(2) -0.3197(2) 0.5699(4)
O11O O -0.0697(2) -0.2665(2) 1.1801(4)
O11I O 0.0697(2) -0.2335(2) 1.1801(4)
O11O_2 O -0.0697(2) -0.2665(2) 0.1801(4)
O11I_2 O 0.0697(2) -0.2335(2) 0.1801(4)
N1F N -0.0468(4) -0.3316(4) 0.8778(5)
N1I N 0.0816(4) -0.2968(4) 0.8722(5)
N1O N -0.0816(4) -0.2032(4) 0.8722(5)
N2F N -0.0896(4) -0.4126(4) 0.8387(6)
N2I N 0.1626(4) -0.3396(4) 0.9113(6)
N2O N -0.1626(4) -0.1604(4) 0.9113(6)
N3F N -0.3954(4) -0.4914(4) 0.8390(6)
N3I N 0.2414(4) -0.6454(4) 0.9110(6)
N3O N -0.2414(4) 0.1454(4) 0.9110(6)
N4F N -0.4688(5) -0.4356(5) 0.8291(7)
N4I N 0.1856(5) -0.7188(5) 0.9209(7)
N4O N -0.1856(5) 0.2188(5) 0.9209(7)
C1F C -0.1147(5) -0.4581(5) 0.7830(7)
C1I C 0.2081(5) -0.3647(5) 0.9670(7)
C1O C -0.2081(5) -0.1353(5) 0.9670(7)
H1F H -0.0902 -0.4923 0.7848
H1I H 0.2423 -0.3402 0.9652
H1O H -0.2423 -0.1598 0.9652
H2F H -0.1157 -0.4442 0.7243
H2I H 0.1942 -0.3657 1.0257
H2O H -0.1942 -0.1343 1.0257
C2F C -0.4353(6) -0.4643(6) 0.8845(9)
C2I C 0.2143(6) -0.6853(6) 0.8655(9)
C2O C -0.2143(6) 0.1853(6) 0.8655(9)
H3F H -0.4394 -0.4651 0.9438
H3I H 0.2151 -0.6894 0.8062
H3O H -0.2151 0.1894 0.8062
C3F C -0.4038(5) -0.4784(6) 0.7545(9)
C3I C 0.2284(6) -0.6538(5) 0.9955(9)
C3O C -0.2284(6) 0.1538(5) 0.9955(9)
H4F H -0.3817 -0.4922 0.7089
H4I H 0.2422 -0.6317 1.0411
H4O H -0.2422 0.1317 1.0411
C4F C -0.4494(6) -0.4425(6) 0.7487(10)
C4I C 0.1925(6) -0.6994(6) 1.0013(10)
C4O C -0.1925(6) 0.1994(6) 1.0013(10)
H5F H -0.4645 -0.4258 0.6993
H5I H 0.1758 -0.7145 1.0507
H5O H -0.1758 0.2145 1.0507
C5F C -0.1764(4) -0.4745(4) 0.8112(6)
C5I C 0.2245(4) -0.4264(4) 0.9388(6)
C5O C -0.2245(4) -0.0736(4) 0.9388(6)
C6F C -0.2452(5) -0.5491(5) 0.8464(7)
C6I C 0.2991(5) -0.4952(5) 0.9036(7)
C6O C -0.2991(5) -0.0048(5) 0.9036(7)
H6F H -0.2532 -0.5881 0.8564
H6I H 0.3381 -0.5032 0.8936
H6O H -0.3381 0.0032 0.8936
C7F C -0.0751(6) -0.4174(6) 0.9239(8)
C7I C 0.1674(6) -0.3251(6) 0.8261(8)
C7O C -0.1674(6) -0.1749(6) 0.8261(8)
H7F H -0.0817 -0.4493 0.9592
H7I H 0.1993 -0.3317 0.7908
H7O H -0.1993 -0.1683 0.7908
C8F C -0.2752(5) -0.4519(5) 0.8349(8)
C8I C 0.2019(5) -0.5252(5) 0.9151(8)
C8O C -0.2019(5) 0.0252(5) 0.9151(8)
H8F H -0.3042 -0.4239 0.8399
H8I H 0.1739 -0.5542 0.9101
H8O H -0.1739 0.0542 0.9101
C9F C -0.1888(5) -0.5314(4) 0.8286(7)
C9I C 0.2814(4) -0.4388(5) 0.9214(7)
C9O C -0.2814(4) -0.0612(5) 0.9214(7)
H9F H -0.1590 -0.5587 0.8284
H9I H 0.3087 -0.4090 0.9216
H9O H -0.3087 -0.0910 0.9216
C10F C -0.2204(4) -0.4351(4) 0.8136(7)
C10I C 0.1851(4) -0.4704(4) 0.9364(7)
C10O C -0.1851(4) -0.0296(4) 0.9364(7)
H10F H -0.2129 -0.3964 0.8007
H10I H 0.1464 -0.4629 0.9493
H10O H -0.1464 -0.0371 0.9493
C11F C -0.0712(4) -0.3595(4) 0.8144(6)
C11I C 0.1095(4) -0.3212(4) 0.9356(6)
C11O C -0.1095(4) -0.1788(4) 0.9356(6)
H11F H -0.0753 -0.3446 0.7594
H11I H 0.0946 -0.3253 0.9906
H11O H -0.0946 -0.1747 0.9906
C12F C -0.0497(6) -0.3677(5) 0.9461(7)
C12I C 0.1177(5) -0.2997(6) 0.8039(7)
C12O C -0.1177(5) -0.2003(6) 0.8039(7)
H12F H -0.0360 -0.3591 1.0006
H12I H 0.1091 -0.2860 0.7494
H12O H -0.1091 -0.2140 0.7494
C13F C -0.2888(5) -0.5091(4) 0.8493(6)
C13I C 0.2591(4) -0.5388(5) 0.9007(6)
C13O C -0.2591(4) 0.0388(5) 0.9007(6)
C14F C -0.3492(5) -0.5284(5) 0.8735(8)
C14I C 0.2784(5) -0.5992(5) 0.8765(8)
C14O C -0.2784(5) 0.0992(5) 0.8765(8)
H13F H -0.3550 -0.5677 0.8531
H13I H 0.3177 -0.6050 0.8969
H13O H -0.3177 0.1050 0.8969
H14F H -0.3522 -0.5290 0.9355
H14I H 0.2790 -0.6022 0.8145
H14O H -0.2790 0.1022 0.8145
O12 O -0.1923(9) -0.2939(10) 0.6769(14)
loop_
_geom_bond_atom_site_label_1
_geom_bond_atom_site_label_2
_geom_bond_site_symmetry_1
_geom_bond_site_symmetry_2
Mo1 O1 1_555 1_555
Mo2 O3 1_555 1_555
V1 O2 1_555 1_555
Mn1 O10 1_555 1_555
V2 O8 1_555 1_555
P1 O4 1_555 1_555
O4 Mo1 1_555 1_555
O5 Mo1 1_555 1_555
O6 Mo2 1_555 1_555
O7 V1 1_555 1_555
O8 Mo1 1_555 1_555
O9 V1 1_555 1_555
O10 V2 1_555 1_555
O11 Mo2 1_555 1_555
N1 Mn1 1_555 1_555
N2 C1 1_555 1_555
N3 C2 1_555 1_555
N4 C2 1_555 1_555
C1 H1 1_555 1_555
H2 C1 1_555 1_555
C2 H3 1_555 1_555
C3 N3 1_555 1_555
H4 C3 1_555 1_555
C4 N4 1_555 1_555
H5 C4 1_555 1_555
C5 C1 1_555 1_555
C6 H6 1_555 1_555
C7 N2 1_555 1_555
H7 C7 1_555 1_555
C8 H8 1_555 1_555
C9 C5 1_555 1_555
H9 C9 1_555 1_555
C10 C5 1_555 1_555
H10 C10 1_555 1_555
C11 N1 1_555 1_555
H11 C11 1_555 1_555
C12 N1 1_555 1_555
H12 C12 1_555 1_555
C13 C6 1_555 1_555
C14 N3 1_555 1_555
H13 C14 1_555 1_555
H14 C14 1_555 1_555
Mo1F O11 1_555 1_555
Mo1I O9 1_555 1_555
Mo1O O1O 1_555 1_555
Mo1I_2 O8I 1_555 1_555
Mo1O_2 O8O 1_555 1_555
Mo2F O3F 1_555 1_555
Mo2I O3I 1_555 1_555
Mo2O O7 1_555 1_555
Mo2I_2 O8I 1_555 1_555
Mo2O_2 O8O 1_555 1_555
V1O O2O 1_555 1_555
V1I O2I 1_555 1_555
V1F O2F 1_555 1_555
V2I O8I 1_555 1_555
O1F Mo1F 1_555 1_555
O1I Mo1I 1_555 1_555
O3O Mo2O 1_555 1_555
O4F P1 1_555 1_555
O4I P1 1_555 1_555
O4O P1 1_555 1_555
O5O Mo1O 1_555 1_555
O5I Mo1I 1_555 1_555
O5F Mo1F 1_555 1_555
O6O Mo2O 1_555 1_555
O6I Mo2I 1_555 1_555
O6F Mo2F 1_555 1_555
O7O Mo2F 1_555 1_555
O7I Mo2 1_555 1_555
O7F Mo2I 1_555 1_555
O8F V2 1_555 1_555
O8O V2I 1_555 1_555
O8I_2 Mo1I 1_555 1_555
O8O_2 Mo1O 1_555 1_555
O9O Mo1 1_555 1_555
O9I Mo1F 1_555 1_555
O9F Mo1O 1_555 1_555
O10I Mn1 1_555 1_555
O11F Mo1 1_555 1_555
O11O Mo1I_2 1_555 1_555
O11I Mo1O_2 1_555 1_555
O11O_2 Mo1I 1_555 1_555
O11I_2 Mo1O 1_555 1_555
N1F Mn1 1_555 1_555
N1I Mn1 1_555 1_555
N1O Mn1 1_555 1_555
N2F C1F 1_555 1_555
N2I C1I 1_555 1_555
N2O C1O 1_555 1_555
N3F C2F 1_555 1_555
N3I C2I 1_555 1_555
N3O C2O 1_555 1_555
N4F C2F 1_555 1_555
N4I C2I 1_555 1_555
N4O C2O 1_555 1_555
C1F H1F 1_555 1_555
C1I H1I 1_555 1_555
C1O H1O 1_555 1_555
H2F C1F 1_555 1_555
H2I C1I 1_555 1_555
H2O C1O 1_555 1_555
C2F H3F 1_555 1_555
C2I H3I 1_555 1_555
C2O H3O 1_555 1_555
C3F N3F 1_555 1_555
C3I N3I 1_555 1_555
C3O N3O 1_555 1_555
H4F C3F 1_555 1_555
H4I C3I 1_555 1_555
H4O C3O 1_555 1_555
C4F N4F 1_555 1_555
C4I N4I 1_555 1_555
C4O N4O 1_555 1_555
H5F C4F 1_555 1_555
H5I C4I 1_555 1_555
H5O C4O 1_555 1_555
C5F C1F 1_555 1_555
C5I C1I 1_555 1_555
C5O C1O 1_555 1_555
C6F H6F 1_555 1_555
C6I H6I 1_555 1_555
C6O H6O 1_555 1_555
C7F N2F 1_555 1_555
C7I N2I 1_555 1_555
C7O N2O 1_555 1_555
H7F C7F 1_555 1_555
H7I C7I 1_555 1_555
H7O C7O 1_555 1_555
C8F H8F 1_555 1_555
C8I H8I 1_555 1_555
C8O H8O 1_555 1_555
C9F C5F 1_555 1_555
C9I C5I 1_555 1_555
C9O C5O 1_555 1_555
H9F C9F 1_555 1_555
H9I C9I 1_555 1_555
H9O C9O 1_555 1_555
C10F C5F 1_555 1_555
C10I C5I 1_555 1_555
C10O C5O 1_555 1_555
H10F C10F 1_555 1_555
H10I C10I 1_555 1_555
H10O C10O 1_555 1_555
C11F N1F 1_555 1_555
C11I N1I 1_555 1_555
C11O N1O 1_555 1_555
H11F C11F 1_555 1_555
H11I C11I 1_555 1_555
H11O C11O 1_555 1_555
C12F N1F 1_555 1_555
C12I N1I 1_555 1_555
C12O N1O 1_555 1_555
H12F C12F 1_555 1_555
H12I C12I 1_555 1_555
H12O C12O 1_555 1_555
C13F C6F 1_555 1_555
C13I C6I 1_555 1_555
C13O C6O 1_555 1_555
C14F N3F 1_555 1_555
C14I N3I 1_555 1_555
C14O N3O 1_555 1_555
H13F C14F 1_555 1_555
H13I C14I 1_555 1_555
H13O C14O 1_555 1_555
H14F C14F 1_555 1_555
H14I C14I 1_555 1_555
H14O C14O 1_555 1_555
Mo2 O4 1_555 1_555
Mo2 O8 1_555 1_555
V1 O5 1_555 1_555
V1 O6 1_555 1_555
V2 O11 1_555 1_555
V2 O11F 1_555 1_555
N2 C11 1_555 1_555
C3 C4 1_555 1_555
C6 C9 1_555 1_555
C7 C12 1_555 1_555
C8 C10 1_555 1_555
C8 C13 1_555 1_555
C13 C14 1_555 1_555
Mo1F O4F 1_555 1_555
Mo1F O8F 1_555 1_555
Mo1I O4I 1_555 1_555
Mo1O O4O 1_555 1_555
Mo2F O4F 1_555 1_555
Mo2F O8F 1_555 1_555
Mo2F O11F 1_555 1_555
Mo2I O4I 1_555 1_555
Mo2I O8I_2 1_555 1_555
Mo2I O11I_2 1_555 1_555
Mo2O O4O 1_555 1_555
Mo2O O8O_2 1_555 1_555
Mo2O O11O_2 1_555 1_555
Mo2I_2 O11I 1_555 1_555
Mo2O_2 O11O 1_555 1_555
V1O O5O 1_555 1_555
V1O O6O 1_555 1_555
V1O O7O 1_555 1_555
V1O O9O 1_555 1_555
V1I O5I 1_555 1_555
V1I O6I 1_555 1_555
V1I O7I 1_555 1_555
V1I O9I 1_555 1_555
V1F O5F 1_555 1_555
V1F O6F 1_555 1_555
V1F O7F 1_555 1_555
V1F O9F 1_555 1_555
V2I O10I 1_555 1_555
V2I O11O 1_555 1_555
V2I O11I 1_555 1_555
N2F C11F 1_555 1_555
N2I C11I 1_555 1_555
N2O C11O 1_555 1_555
C3F C4F 1_555 1_555
C3I C4I 1_555 1_555
C3O C4O 1_555 1_555
C6F C9F 1_555 1_555
C6I C9I 1_555 1_555
C6O C9O 1_555 1_555
C7F C12F 1_555 1_555
C7I C12I 1_555 1_555
C7O C12O 1_555 1_555
C8F C10F 1_555 1_555
C8F C13F 1_555 1_555
C8I C10I 1_555 1_555
C8I C13I 1_555 1_555
C8O C10O 1_555 1_555
C8O C13O 1_555 1_555
C13F C14F 1_555 1_555
C13I C14I 1_555 1_555
C13O C14O 1_555 1_555

#END
