
#######################################################################
#
#                 Cambridge Crystallographic Data Centre
#                                CCDC 
#
#######################################################################
#
# If this CIF has been generated from an entry in the Cambridge 
# Structural Database, then it will include bibliographic, chemical, 
# crystal, experimental, refinement or atomic coordinate data resulting 
# from the CCDC's data processing and validation procedures.
#
#######################################################################

data_KAVYEN
_symmetry_cell_setting           monoclinic
_symmetry_space_group_name_H-M   'C c'
_symmetry_Int_Tables_number      9
_space_group_name_Hall           'C -2yc'
loop_
_symmetry_equiv_pos_site_id
_symmetry_equiv_pos_as_xyz
1 x,y,z
2 x,-y,1/2+z
3 1/2+x,1/2+y,z
4 1/2+x,1/2-y,1/2+z
_cell_length_a                   19.0130(4)
_cell_length_b                   9.2000(5)
_cell_length_c                   18.4820(8)
_cell_angle_alpha                90
_cell_angle_beta                 97.2680(10)
_cell_angle_gamma                90
_cell_volume                     3206.89
loop_
_atom_site_label
_atom_site_type_symbol
_atom_site_fract_x
_atom_site_fract_y
_atom_site_fract_z
V1 V 0.57421(4) 0.51137(8) 0.66539(4)
V2 V 0.62055(3) 0.16330(7) 0.61088(4)
V3 V 0.75110(4) -0.05953(7) 0.67937(4)
V4 V 0.65215(4) -0.25219(7) 0.77506(4)
Zn1 Zn 0.60958(2) 0.13039(5) 0.43175(3)
Zn2 Zn 0.40010(2) 0.60469(5) 0.64605(3)
C1 C 0.3162(3) 0.6052(6) 0.4951(4)
H1 H 0.2724 0.6032 0.5124
C2 C 0.3262(3) 0.6221(6) 0.4244(4)
H2 H 0.2912 0.6349 0.3850
C3 C 0.4278(3) 0.5989(6) 0.4905(3)
H3 H 0.4765 0.5924 0.5036
C4 C 0.4330(4) 0.6365(6) 0.3575(3)
H4 H 0.4041 0.5944 0.3157
H5 H 0.4778 0.5847 0.3641
C5 C 0.4470(3) 0.7969(6) 0.3416(4)
H6 H 0.4025 0.8497 0.3359
H7 H 0.4773 0.8387 0.3825
C6 C 0.4820(3) 0.8126(6) 0.2731(3)
H8 H 0.5096 0.9017 0.2766
H9 H 0.5148 0.7324 0.2709
C7 C 0.4331(3) 0.8157(5) 0.2044(3)
H10 H 0.4596 0.7968 0.1639
H11 H 0.3983 0.7388 0.2054
C8 C 0.3268(2) 0.9884(5) 0.2020(3)
H12 H 0.2927 0.9244 0.2150
C9 C 0.3189(3) 1.1317(5) 0.1888(3)
H13 H 0.2774 1.1844 0.1910
C10 C 0.4272(2) 1.0778(5) 0.1746(3)
H14 H 0.4742 1.0849 0.1656
C11 C 0.4672(3) 0.2319(6) 0.3548(3)
H15 H 0.4854 0.2565 0.3120
C12 C 0.3986(3) 0.2470(7) 0.3666(3)
H16 H 0.3614 0.2823 0.3337
C13 C 0.4599(3) 0.1582(6) 0.4624(3)
H17 H 0.4716 0.1209 0.5092
C14 C 0.3301(3) 0.1910(6) 0.4718(4)
H18 H 0.2941 0.2551 0.4475
H19 H 0.3409 0.2236 0.5219
C15 C 0.3016(3) 0.0389(6) 0.4711(5)
H20 H 0.3379 -0.0249 0.4951
H21 H 0.2909 0.0068 0.4209
C16 C 0.2343(3) 0.0244(6) 0.5091(4)
H22 H 0.2343 -0.0710 0.5314
H23 H 0.2366 0.0958 0.5479
C17 C 0.1658(3) 0.0439(5) 0.4607(3)
H24 H 0.1629 -0.0286 0.4223
H25 H 0.1271 0.0263 0.4890
C18 C 0.1378(2) 0.3124(5) 0.4605(3)
H26 H 0.1272 0.3173 0.5082
C19 C 0.1547(3) 0.3706(5) 0.3501(3)
H27 H 0.1579 0.4246 0.3081
C20 C 0.1666(3) 0.2260(5) 0.3577(3)
H28 H 0.1793 0.1631 0.3221
N1 N 0.3812(2) 0.5916(4) 0.5375(2)
N2 N 0.3974(2) 0.6167(5) 0.4222(2)
N3 N 0.3960(2) 0.9554(4) 0.1923(2)
N4 N 0.38171(19) 1.1882(4) 0.1715(2)
N5 N 0.5052(2) 0.1749(4) 0.4155(2)
N6 N 0.3946(2) 0.2011(5) 0.4353(3)
N7 N 0.1566(2) 0.1899(4) 0.4269(2)
N8 N 0.1369(2) 0.4244(4) 0.4148(2)
O1 O 0.63623(17) -0.4330(3) 0.7421(2)
O2 O 0.58802(17) -0.1496(3) 0.7420(2)
O3 O 0.73377(16) -0.1828(3) 0.75031(19)
O4 O 0.83376(16) 0.0037(3) 0.6996(2)
O5 O 0.7447(2) -0.1423(4) 0.6027(2)
O6 O 0.69198(17) 0.0919(3) 0.6729(2)
O7 O 0.55595(19) 0.0494(4) 0.5993(2)
O8 O 0.5911(2) 0.3250(4) 0.6483(3)
O9 O 0.64661(17) 0.1922(4) 0.52925(18)
O10 O 0.49104(16) 0.5283(3) 0.6851(2)
O11 O 0.5824(2) 0.6071(5) 0.5952(3)
O12 O 0.65739(18) 0.2488(3) 0.36653(18)
V1_2 V 0.57421(4) -0.48863(8) 0.66539(4)
V4A V 0.65215(4) 0.25219(7) 0.27506(4)
Zn1B Zn 0.10958(2) 0.63039(5) 0.43175(3)
Zn2A Zn 0.40010(2) 1.39531(5) 0.14605(3)
Zn2B Zn 0.90010(2) 0.10469(5) 0.64605(3)
N4A N 0.38171(19) 0.8118(4) 0.6715(2)
N8B N 0.6369(2) -0.0756(4) 0.4148(2)
O1_2 O 0.63623(17) 0.5670(3) 0.7421(2)
O4B O 0.33376(16) 0.5037(3) 0.6996(2)
O12A O 0.65739(18) -0.2488(3) 0.86653(18)
loop_
_geom_bond_atom_site_label_1
_geom_bond_atom_site_label_2
_geom_bond_site_symmetry_1
_geom_bond_site_symmetry_2
V1 O8 1_555 1_555
V2 O6 1_555 1_555
V3 O3 1_555 1_555
V4 O1 1_555 1_555
Zn1 N5 1_555 1_555
Zn2 N1 1_555 1_555
C1 H1 1_555 1_555
C2 C1 1_555 1_555
H2 C2 1_555 1_555
C3 H3 1_555 1_555
C4 H4 1_555 1_555
H5 C4 1_555 1_555
C5 C4 1_555 1_555
H6 C5 1_555 1_555
H7 C5 1_555 1_555
C6 C5 1_555 1_555
H8 C6 1_555 1_555
H9 C6 1_555 1_555
C7 C6 1_555 1_555
H10 C7 1_555 1_555
H11 C7 1_555 1_555
C8 H12 1_555 1_555
C9 C8 1_555 1_555
H13 C9 1_555 1_555
C10 H14 1_555 1_555
C11 H15 1_555 1_555
C12 C11 1_555 1_555
H16 C12 1_555 1_555
C13 H17 1_555 1_555
C14 H18 1_555 1_555
H19 C14 1_555 1_555
C15 C14 1_555 1_555
H20 C15 1_555 1_555
H21 C15 1_555 1_555
C16 C15 1_555 1_555
H22 C16 1_555 1_555
H23 C16 1_555 1_555
C17 C16 1_555 1_555
H24 C17 1_555 1_555
H25 C17 1_555 1_555
C18 H26 1_555 1_555
C19 H27 1_555 1_555
C20 C19 1_555 1_555
H28 C20 1_555 1_555
N1 C1 1_555 1_555
N2 C2 1_555 1_555
N3 C7 1_555 1_555
N4 C9 1_555 1_555
N5 C11 1_555 1_555
N6 C12 1_555 1_555
N7 C17 1_555 1_555
N8 C18 1_555 1_555
O1 V1_2 1_555 1_555
O2 V4 1_555 1_555
O3 V4 1_555 1_555
O4 V3 1_555 1_555
O5 V3 1_555 1_555
O6 V3 1_555 1_555
O7 V2 1_555 1_555
O8 V2 1_555 1_555
O9 V2 1_555 1_555
O10 V1 1_555 1_555
O11 V1 1_555 1_555
O12 Zn1 1_555 1_555
V4A O12 1_555 1_555
Zn1B N8 1_555 1_555
Zn2A N4 1_555 1_555
Zn2B O4 1_555 1_555
N4A Zn2 1_555 1_555
N8B Zn1 1_555 1_555
O1_2 V1 1_555 1_555
O4B Zn2 1_555 1_555
O12A V4 1_555 1_555
Zn1 O9 1_555 1_555
Zn2 O10 1_555 1_555
C3 N1 1_555 1_555
C3 N2 1_555 1_555
C4 N2 1_555 1_555
C8 N3 1_555 1_555
C10 N3 1_555 1_555
C10 N4 1_555 1_555
C13 N5 1_555 1_555
C13 N6 1_555 1_555
C14 N6 1_555 1_555
C18 N7 1_555 1_555
C19 N8 1_555 1_555
C20 N7 1_555 1_555

#END
