
#######################################################################
#
#                 Cambridge Crystallographic Data Centre
#                                CCDC 
#
#######################################################################
#
# If this CIF has been generated from an entry in the Cambridge 
# Structural Database, then it will include bibliographic, chemical, 
# crystal, experimental, refinement or atomic coordinate data resulting 
# from the CCDC's data processing and validation procedures.
#
#######################################################################

data_KAVYAJ
_symmetry_cell_setting           triclinic
_symmetry_space_group_name_H-M   'P 1'
_symmetry_Int_Tables_number      1
_space_group_name_Hall           'P 1'
loop_
_symmetry_equiv_pos_site_id
_symmetry_equiv_pos_as_xyz
1 x,y,z
_cell_length_a                   8.3560(6)
_cell_length_b                   9.8220(7)
_cell_length_c                   9.9040(7)
_cell_angle_alpha                68.2920(10)
_cell_angle_beta                 85.2000(10)
_cell_angle_gamma                82.7590(10)
_cell_volume                     748.572
loop_
_atom_site_label
_atom_site_type_symbol
_atom_site_fract_x
_atom_site_fract_y
_atom_site_fract_z
Zn1 Zn 0.53882(10) -0.30416(9) 0.50291(10)
Zn2 Zn 0.34064(10) -0.51541(9) 0.81364(10)
V1 V 0.18200(15) -0.43053(16) 0.12604(15)
V2 V 0.48635(15) -0.57568(15) 0.37569(15)
V3 V -0.23356(16) -0.40540(16) 0.15111(15)
O1 O 0.6554(7) -0.5625(7) 0.2501(7)
N1 N 0.4139(8) -0.1257(7) 0.3686(7)
N2 N 0.9402(8) -0.1924(8) 0.6378(7)
C1 C -0.4627(9) 0.1807(9) -0.1285(9)
H1 H -0.4972 0.1644 -0.2076
N3 N 0.2748(8) 0.0299(8) 0.1902(7)
O2 O 0.2460(7) -0.5060(7) 1.0058(6)
O3 O 0.4762(10) -0.7424(7) 0.4762(8)
C2 C 1.0177(10) -0.2278(10) 0.5278(9)
H2 H 1.1269 -0.2232 0.5015
N4 N 1.1496(7) 0.4230(7) 0.7499(7)
O4 O -0.2981(8) -0.2792(8) 0.2165(9)
C3 C 0.3476(9) -0.1060(9) 0.2480(9)
H3 H 0.3507 -0.1777 0.2072
O5 O 0.4167(6) -0.3350(6) 0.6924(6)
C4 C 1.0087(11) -0.1371(10) 0.7377(9)
H4 H 1.1085 -0.1974 0.7737
H5 H 0.9340 -0.1475 0.8205
C5 C -0.3743(10) 0.0810(10) -0.0215(9)
H6 H -0.3372 -0.0153 -0.0123
C6 C 1.1384(10) 0.3678(9) 0.6496(9)
H7 H 1.2259 0.3463 0.5938
N5 N 0.9903(8) 0.3462(8) 0.6370(8)
O6 O -0.0212(7) -0.4578(7) 0.1793(8)
C7 C 0.9083(10) -0.2714(9) 0.4625(9)
H8 H 0.9299 -0.3045 0.3855
C8 C -0.0863(9) 0.1224(10) 0.1808(9)
H9 H -0.0847 0.2285 0.1396
H10 H -0.0350 0.0865 0.2736
O7 O 0.5073(7) -0.4899(6) 0.4910(6)
N6 N 0.7576(8) -0.2579(7) 0.5312(7)
C9 C 0.1850(9) 0.0882(10) 0.0541(8)
H11 H 0.2365 0.0442 -0.0136
H12 H 0.1896 0.1938 0.0099
N7 N -0.3499(7) 0.1517(7) 0.0725(7)
C10 C 0.2973(10) 0.1014(10) 0.2791(10)
H13 H 0.2604 0.1987 0.2658
C11 C 0.7810(9) -0.2102(9) 0.6330(9)
H14 H 0.6996 -0.1905 0.6952
C12 C -0.2590(9) 0.0869(10) 0.2057(9)
H15 H -0.2609 -0.0192 0.2430
H16 H -0.3112 0.1235 0.2787
O8 O 0.2021(9) -0.2562(8) 0.0548(8)
C13 C 0.9952(11) 0.4416(9) 0.8033(9)
H17 H 0.9638 0.4800 0.8755
C14 C 0.0089(9) 0.0561(9) 0.0812(9)
H18 H -0.0427 0.0927 -0.0115
H19 H 0.0055 -0.0498 0.1221
N8 N -0.4944(7) 0.3093(7) -0.1039(7)
C15 C -0.4242(9) 0.2885(10) 0.0185(10)
H20 H -0.4264 0.3589 0.0608
C16 C 0.3831(9) 0.0055(10) 0.3909(10)
H21 H 0.4157 0.0246 0.4691
C17 C 0.8981(11) 0.1270(10) 0.6083(10)
H22 H 0.8185 0.1214 0.6868
H23 H 0.8504 0.0977 0.5385
C18 C 1.0424(11) 0.0207(11) 0.6684(12)
H24 H 1.0879 0.0488 0.7401
H25 H 1.1232 0.0292 0.5903
O9 O 0.3029(7) -0.5141(9) 0.2833(7)
C19 C 0.9368(13) 0.2860(11) 0.5343(10)
H26 H 1.0209 0.2910 0.4595
H27 H 0.8414 0.3463 0.4875
O10 O -0.2708(9) -0.3498(10) -0.0171(7)
C20 C 0.8970(11) 0.3942(10) 0.7325(10)
H28 H 0.7855 0.3944 0.7465
H31 H 0.454(5) -0.285(3) 0.734(2)
Zn2_2 Zn 1.34064(10) 0.48459(9) 0.81364(10)
Zn2_3 Zn -0.65936(10) 0.48459(9) -0.18636(10)
V1_2 V 0.18200(15) -0.43053(16) 1.12604(15)
V3_2 V 0.76644(16) -0.40540(16) 0.15111(15)
O1_2 O -0.3446(7) -0.5625(7) 0.2501(7)
O2_2 O 0.2460(7) -0.5060(7) 0.0058(6)
N4_2 N 0.1496(7) -0.5770(7) 0.7499(7)
N8_2 N 0.5056(7) -0.6907(7) 0.8961(7)
O11 O 0.4610(9) -0.1673(11) 0.8597(8)
H29 H 0.366(3) -0.133(10) 0.874(9)
H30 H 0.512(8) -0.195(12) 0.937(5)
loop_
_geom_bond_atom_site_label_1
_geom_bond_atom_site_label_2
_geom_bond_site_symmetry_1
_geom_bond_site_symmetry_2
Zn1 N1 1_555 1_555
Zn2 O2 1_555 1_555
V1 O6 1_555 1_555
V2 O1 1_555 1_555
V3 O4 1_555 1_555
O1 V3_2 1_555 1_555
N1 C3 1_555 1_555
N2 C2 1_555 1_555
C1 H1 1_555 1_555
N3 C3 1_555 1_555
O2 V1_2 1_555 1_555
O3 V2 1_555 1_555
C2 H2 1_555 1_555
N4 C6 1_555 1_555
C3 H3 1_555 1_555
O5 Zn1 1_555 1_555
C4 N2 1_555 1_555
H4 C4 1_555 1_555
H5 C4 1_555 1_555
C5 C1 1_555 1_555
H6 C5 1_555 1_555
C6 H7 1_555 1_555
N5 C6 1_555 1_555
O6 V3 1_555 1_555
C7 C2 1_555 1_555
H8 C7 1_555 1_555
C8 H9 1_555 1_555
H10 C8 1_555 1_555
O7 Zn1 1_555 1_555
N6 Zn1 1_555 1_555
C9 N3 1_555 1_555
H11 C9 1_555 1_555
H12 C9 1_555 1_555
N7 C5 1_555 1_555
C10 N3 1_555 1_555
H13 C10 1_555 1_555
C11 N2 1_555 1_555
H14 C11 1_555 1_555
C12 C8 1_555 1_555
H15 C12 1_555 1_555
H16 C12 1_555 1_555
O8 V1 1_555 1_555
C13 N4 1_555 1_555
H17 C13 1_555 1_555
C14 C8 1_555 1_555
H18 C14 1_555 1_555
H19 C14 1_555 1_555
N8 C1 1_555 1_555
C15 N7 1_555 1_555
H20 C15 1_555 1_555
C16 N1 1_555 1_555
H21 C16 1_555 1_555
C17 H22 1_555 1_555
H23 C17 1_555 1_555
C18 C4 1_555 1_555
H24 C18 1_555 1_555
H25 C18 1_555 1_555
O9 V1 1_555 1_555
C19 N5 1_555 1_555
H26 C19 1_555 1_555
H27 C19 1_555 1_555
O10 V3 1_555 1_555
C20 N5 1_555 1_555
H28 C20 1_555 1_555
O11 H29 1_555 1_555
H30 O11 1_555 1_555
H31 O5 1_555 1_555
Zn2_2 N4 1_555 1_555
Zn2_3 N8 1_555 1_555
O1_2 V3 1_555 1_555
O2_2 V1 1_555 1_555
N4_2 Zn2 1_555 1_555
N8_2 Zn2 1_555 1_555
Zn2 O5 1_555 1_555
V2 O7 1_555 1_555
V2 O9 1_555 1_555
C7 N6 1_555 1_555
N6 C11 1_555 1_555
C9 C14 1_555 1_555
N7 C12 1_555 1_555
C10 C16 1_555 1_555
C13 C20 1_555 1_555
N8 C15 1_555 1_555
C17 C18 1_555 1_555
C17 C19 1_555 1_555

#END
