
#######################################################################
#
#                 Cambridge Crystallographic Data Centre
#                                CCDC 
#
#######################################################################
#
# If this CIF has been generated from an entry in the Cambridge 
# Structural Database, then it will include bibliographic, chemical, 
# crystal, experimental, refinement or atomic coordinate data resulting 
# from the CCDC's data processing and validation procedures.
#
#######################################################################

data_KAVYEN01
_symmetry_cell_setting           monoclinic
_symmetry_space_group_name_H-M   'C 2/c'
_symmetry_Int_Tables_number      15
_space_group_name_Hall           '-C 2yn'
loop_
_symmetry_equiv_pos_site_id
_symmetry_equiv_pos_as_xyz
1 x,y,z
2 -x,y,1/2-z
3 1/2+x,1/2+y,z
4 1/2-x,1/2+y,1/2-z
5 -x,-y,-z
6 x,-y,1/2+z
7 1/2-x,1/2-y,-z
8 1/2+x,1/2-y,1/2+z
_cell_length_a                   15.5740(5)
_cell_length_b                   5.6170(7)
_cell_length_c                   19.0900(15)
_cell_angle_alpha                90
_cell_angle_beta                 108.4080(10)
_cell_angle_gamma                90
_cell_volume                     1584.53
loop_
_atom_site_label
_atom_site_type_symbol
_atom_site_fract_x
_atom_site_fract_y
_atom_site_fract_z
Zn1 Zn -0.5000 -0.54821(8) 0.2500
V1 V -0.31322(3) -0.81586(8) 0.21867(3)
C1 C -0.4967(2) -0.3678(8) 0.40099(19)
H1 H -0.5430 -0.4675 0.4043
C2 C -0.4494(3) -0.2201(8) 0.4543(2)
H2 H -0.4554 -0.2008 0.5009
C3 C -0.4039(3) -0.1894(8) 0.3585(2)
H3 H -0.3714 -0.1388 0.3279
C4 C -0.2946(10) -0.004(2) 0.4789(8)
C5 C -0.3523(8) 0.125(2) 0.4580(9)
C6 C -0.2574(7) 0.121(2) 0.4622(11)
C7 C -0.3250(11) 0.227(2) 0.4945(11)
N1 N -0.46711(17) -0.3503(5) 0.34094(13)
N2 N -0.3919(3) -0.1064(7) 0.4269(2)
O1 O -0.27520(16) -1.1066(4) 0.25207(18)
O2 O -0.3484(3) -0.8138(7) 0.13046(16)
O3 O -0.39764(15) -0.7404(5) 0.25019(15)
Zn1F Zn 0.0000 1.04821(8) 0.7500
V1A V -0.68678(3) -0.81586(8) 0.28133(3)
V1C V -0.18678(3) -1.31586(8) 0.28133(3)
V1C_2 V -0.18678(3) -0.31586(8) 0.28133(3)
C1F C -0.0033(2) 0.8678(8) 0.59901(19)
H1F H 0.0430 0.9675 0.5957
C2F C -0.0506(3) 0.7201(8) 0.5457(2)
H2F H -0.0446 0.7008 0.4991
C3F C -0.0961(3) 0.6894(8) 0.6415(2)
H3F H -0.1286 0.6388 0.6721
C4F C -0.2054(10) 0.504(2) 0.5211(8)
C5F C -0.1477(8) 0.375(2) 0.5420(9)
C6F C -0.2426(7) 0.379(2) 0.5378(11)
C7F C -0.1750(11) 0.273(2) 0.5055(11)
N1F N -0.03289(17) 0.8503(5) 0.65906(13)
N1A N -0.53289(17) -0.3503(5) 0.15906(13)
N2F N -0.1081(3) 0.6064(7) 0.5731(2)
O1C O -0.22480(16) -0.6066(4) 0.24793(18)
O1A O -0.72480(16) -1.1066(4) 0.24793(18)
O1B O -0.77520(16) -0.6066(4) 0.25207(18)
O2A O -0.6516(3) -0.8138(7) 0.36954(16)
O3A O -0.60236(15) -0.7404(5) 0.24981(15)
loop_
_geom_bond_atom_site_label_1
_geom_bond_atom_site_label_2
_geom_bond_site_symmetry_1
_geom_bond_site_symmetry_2
Zn1 N1 1_555 1_555
V1 O1 1_555 1_555
C1 H1 1_555 1_555
C2 C1 1_555 1_555
H2 C2 1_555 1_555
C3 H3 1_555 1_555
C4 C5 1_555 1_555
C5 C6 1_555 1_555
C6 C4 1_555 1_555
C7 C4 1_555 1_555
N1 C1 1_555 1_555
N2 C2 1_555 1_555
O1 V1C 1_555 1_555
O2 V1 1_555 1_555
O3 Zn1 1_555 1_555
Zn1F N1F 1_555 1_555
V1A O1A 1_555 1_555
V1C_2 O1C 1_555 1_555
C1F H1F 1_555 1_555
C2F C1F 1_555 1_555
H2F C2F 1_555 1_555
C3F H3F 1_555 1_555
C4F C5F 1_555 1_555
C5F C6F 1_555 1_555
C6F C7 1_555 1_555
C7F C6 1_555 1_555
N1F C1F 1_555 1_555
N1A Zn1 1_555 1_555
N2F C2F 1_555 1_555
O1C V1 1_555 1_555
O1B V1A 1_555 1_555
O2A V1A 1_555 1_555
O3A Zn1 1_555 1_555
V1 O3 1_555 1_555
C3 N1 1_555 1_555
C3 N2 1_555 1_555
C4 N2 1_555 1_555
C5 C7 1_555 1_555
C5 N2 1_555 1_555
C6 C7 1_555 1_555
V1A O3A 1_555 1_555
C3F N1F 1_555 1_555
C3F N2F 1_555 1_555
C4F C6F 1_555 1_555
C4F C7F 1_555 1_555
C4F N2F 1_555 1_555
C5F C7F 1_555 1_555
C5F N2F 1_555 1_555
C6F C7F 1_555 1_555

#END
