
#######################################################################
#
#                 Cambridge Crystallographic Data Centre
#                                CCDC 
#
#######################################################################
#
# If this CIF has been generated from an entry in the Cambridge 
# Structural Database, then it will include bibliographic, chemical, 
# crystal, experimental, refinement or atomic coordinate data resulting 
# from the CCDC's data processing and validation procedures.
#
#######################################################################

data_KAVZAK
_symmetry_cell_setting           monoclinic
_symmetry_space_group_name_H-M   'P 21/n'
_symmetry_Int_Tables_number      14
_space_group_name_Hall           '-P 2yn'
loop_
_symmetry_equiv_pos_site_id
_symmetry_equiv_pos_as_xyz
1 x,y,z
2 1/2-x,1/2+y,1/2-z
3 -x,-y,-z
4 1/2+x,1/2-y,1/2+z
_cell_length_a                   6.6319(14)
_cell_length_b                   6.5149(14)
_cell_length_c                   14.398(3)
_cell_angle_alpha                90
_cell_angle_beta                 99.015(3)
_cell_angle_gamma                90
_cell_volume                     614.398
loop_
_atom_site_label
_atom_site_type_symbol
_atom_site_fract_x
_atom_site_fract_y
_atom_site_fract_z
Cd1 Cd 0.0000 1.0000 0.5000
N1 N -0.0231(3) 1.0709(3) 0.65477(12)
N2 N -0.0788(3) 1.2659(3) 0.67542(13)
N3 N -0.0814(3) 1.2866(3) 0.76423(13)
N4 N -0.0276(3) 1.0995(3) 0.80327(12)
N5 N -0.0200(4) 1.0505(4) 0.89850(15)
H1 H -0.1470 1.0667 0.9118
H2 H 0.0692 1.1435 0.9257
N6 N 0.0687(3) 0.7735(3) 0.75133(14)
H3 H 0.0661 0.7202 0.8080
H4 H 0.0595 0.6839 0.7043
C1 C 0.0082(3) 0.9660(3) 0.73570(17)
N7 N 0.0225(4) 0.6511(3) 0.54391(15)
N8 N 0.0000 0.5000 0.5000
N9 N 0.3610(4) 1.0270(4) 0.5395(2)
N10 N 0.5000 1.0000 0.5000
Cd1_2 Cd 0.0000 0.0000 0.5000
Cd1_3 Cd 1.0000 1.0000 0.5000
N1B N 0.0231(3) 0.9291(3) 0.34523(12)
N2B N 0.0788(3) 0.7341(3) 0.32458(13)
N3B N 0.0814(3) 0.7134(3) 0.23577(13)
N4B N 0.0276(3) 0.9005(3) 0.19673(12)
N5B N 0.0200(4) 0.9495(4) 0.10150(15)
H1B H 0.1470 0.9333 0.0882
H2B H -0.0692 0.8565 0.0743
N6B N -0.0687(3) 1.2265(3) 0.24867(14)
H3B H -0.0661 1.2798 0.1920
H4B H -0.0595 1.3161 0.2957
C1B C -0.0082(3) 1.0340(3) 0.26430(17)
N7B N -0.0225(4) 0.3489(3) 0.45609(15)
N7B_2 N -0.0225(4) 1.3489(3) 0.45609(15)
N9B N 0.6390(4) 0.9730(4) 0.4605(2)
N9B_2 N -0.3610(4) 0.9730(4) 0.4605(2)
loop_
_geom_bond_atom_site_label_1
_geom_bond_atom_site_label_2
_geom_bond_site_symmetry_1
_geom_bond_site_symmetry_2
Cd1 N1 1_555 1_555
N1 N2 1_555 1_555
N2 N3 1_555 1_555
N3 N4 1_555 1_555
N4 N5 1_555 1_555
N5 H1 1_555 1_555
H2 N5 1_555 1_555
N6 H3 1_555 1_555
H4 N6 1_555 1_555
C1 N1 1_555 1_555
N7 Cd1 1_555 1_555
N8 N7 1_555 1_555
N9 Cd1 1_555 1_555
N10 N9 1_555 1_555
Cd1_2 N7B 1_555 1_555
Cd1_3 N9B 1_555 1_555
N1B Cd1 1_555 1_555
N2B N1B 1_555 1_555
N3B N2B 1_555 1_555
N4B N3B 1_555 1_555
N5B N4B 1_555 1_555
H1B N5B 1_555 1_555
H2B N5B 1_555 1_555
N6B H3B 1_555 1_555
H4B N6B 1_555 1_555
C1B N1B 1_555 1_555
N7B N8 1_555 1_555
N7B_2 Cd1 1_555 1_555
N9B N10 1_555 1_555
N9B_2 Cd1 1_555 1_555
N4 C1 1_555 1_555
N6 C1 1_555 1_555
N4B C1B 1_555 1_555
N6B C1B 1_555 1_555

#END
