
#######################################################################
#
#                 Cambridge Crystallographic Data Centre
#                                CCDC 
#
#######################################################################
#
# If this CIF has been generated from an entry in the Cambridge 
# Structural Database, then it will include bibliographic, chemical, 
# crystal, experimental, refinement or atomic coordinate data resulting 
# from the CCDC's data processing and validation procedures.
#
#######################################################################

data_KAWBUH
_symmetry_cell_setting           monoclinic
_symmetry_space_group_name_H-M   'P 21/n'
_symmetry_Int_Tables_number      14
_space_group_name_Hall           '-P 2yn'
loop_
_symmetry_equiv_pos_site_id
_symmetry_equiv_pos_as_xyz
1 x,y,z
2 1/2-x,1/2+y,1/2-z
3 -x,-y,-z
4 1/2+x,1/2-y,1/2+z
_cell_length_a                   14.3147(15)
_cell_length_b                   12.5692(13)
_cell_length_c                   17.753(2)
_cell_angle_alpha                90
_cell_angle_beta                 94.401(6)
_cell_angle_gamma                90
_cell_volume                     3184.78
loop_
_atom_site_label
_atom_site_type_symbol
_atom_site_fract_x
_atom_site_fract_y
_atom_site_fract_z
Mn1 Mn 0.83309(2) 0.56594(3) 0.145332(19)
Mn2 Mn 1.0000 0.5000 0.0000
C1 C 1.06559(16) 0.04381(18) 0.18315(13)
C2 C 1.14420(17) -0.05856(18) 0.28645(13)
C3 C 1.17876(16) 0.13073(18) 0.27275(13)
C4 C 1.09654(17) 0.23411(17) 0.17097(13)
H1 H 1.0813 0.2218 0.1175
H2 H 1.1517 0.2791 0.1764
C5 C 1.01606(18) 0.28954(19) 0.20402(14)
H3 H 1.0357 0.3115 0.2552
H4 H 0.9650 0.2393 0.2068
C6 C 0.98026(16) 0.38616(17) 0.15956(12)
C7 C 1.02413(17) -0.14300(18) 0.19991(14)
H5 H 0.9606 -0.1204 0.1851
H6 H 1.0218 -0.1914 0.2423
C8 C 1.06305(18) -0.20123(19) 0.13467(15)
H7 H 1.1276 -0.2209 0.1488
H8 H 1.0629 -0.1536 0.0917
C9 C 1.00796(17) -0.30057(17) 0.11155(14)
C10 C 1.26214(17) 0.0272(2) 0.37382(13)
H9 H 1.3150 0.0731 0.3659
H10 H 1.2852 -0.0450 0.3799
C11 C 1.2182(2) 0.0612(2) 0.44472(14)
H11 H 1.2147 0.1382 0.4454
H12 H 1.1546 0.0341 0.4425
C12 C 1.26903(16) 0.02452(18) 0.51754(13)
C13 C 0.7150(2) 0.5101(3) 0.3831(2)
H13 H 0.7328 0.4664 0.3422
H14 H 0.6504 0.4976 0.3912
H15 H 0.7533 0.4928 0.4282
C14 C 0.7041(3) 0.6984(3) 0.42216(17)
H16 H 0.7143 0.7695 0.4048
H17 H 0.7428 0.6858 0.4679
H18 H 0.6394 0.6900 0.4318
C15 C 0.7846(3) 0.7633(2) 0.28578(19)
H19 H 0.8119 0.7694 0.2382
H20 H 0.8273 0.7913 0.3253
H21 H 0.7271 0.8028 0.2838
C16 C 0.76518(19) 0.6486(2) 0.30140(15)
C17 C 0.5332(3) 0.6997(5) -0.0250(3)
H22 H 0.4781 0.7354 -0.0105
H23 H 0.5165 0.6303 -0.0443
H24 H 0.5608 0.7402 -0.0633
C18 C 0.5579(3) 0.6299(5) 0.1125(3)
H25 H 0.6062 0.6247 0.1529
H26 H 0.5366 0.5598 0.0980
H27 H 0.5064 0.6703 0.1290
C19 C 0.7214(4) 0.7663(3) -0.0155(2)
H28 H 0.7190 0.7182 -0.0576
H29 H 0.7852 0.7869 -0.0025
H30 H 0.6847 0.8284 -0.0289
C20 C 0.6815(4) 0.7106(3) 0.0532(3)
N1 N 1.11673(13) 0.13141(14) 0.20940(11)
N2 N 1.08078(14) -0.04887(14) 0.22422(11)
N3 N 1.19378(14) 0.03281(15) 0.30701(10)
N4 N 0.72810(16) 0.62220(19) 0.36430(13)
N5 N 0.5996(3) 0.6893(4) 0.0400(3)
O1 O 1.01172(14) 0.04803(15) 0.12773(11)
O2 O 1.15618(15) -0.14088(14) 0.32046(11)
O3 O 1.21847(14) 0.20996(14) 0.29606(11)
O4 O 1.02164(13) 0.41202(14) 0.10352(10)
O5 O 0.91087(13) 0.43182(14) 0.18395(10)
O6 O 0.94052(13) -0.32282(15) 0.14992(11)
O7 O 1.03409(13) -0.35171(14) 0.05703(11)
O8 O 1.34702(11) -0.02291(13) 0.51685(9)
O9 O 1.22942(13) 0.03662(15) 0.57691(10)
O10 O 0.78455(15) 0.57733(15) 0.25546(11)
O11 O 0.73104(16) 0.69299(18) 0.11187(13)
Mn1B Mn 1.16691(2) 0.43406(3) -0.145332(19)
Mn1_2 Mn 0.83309(2) -0.43406(3) 0.145332(19)
Mn1C Mn 1.33309(2) -0.06594(3) 0.645332(19)
Mn1B_2 Mn 1.16691(2) 1.43406(3) -0.145332(19)
Mn1A Mn 0.66691(2) 1.06594(3) -0.645332(19)
Mn2_2 Mn 1.0000 -0.5000 0.0000
Mn2A Mn 1.5000 0.0000 0.5000
Mn2_3 Mn 1.0000 1.5000 0.0000
Mn2A_2 Mn 0.5000 1.0000 -0.5000
C1B C 0.93441(16) 0.95619(18) -0.18315(13)
C2B C 0.85580(17) 1.05856(18) -0.28645(13)
C3B C 0.82124(16) 0.86927(18) -0.27275(13)
C4B C 0.90346(17) 0.76589(17) -0.17097(13)
H1B H 0.9187 0.7782 -0.1175
H2B H 0.8483 0.7209 -0.1764
C5B C 0.98394(18) 0.71046(19) -0.20402(14)
H3B H 0.9643 0.6885 -0.2552
H4B H 1.0350 0.7607 -0.2068
C6B C 1.01974(16) 0.61384(17) -0.15956(12)
C7B C 0.97587(17) 1.14300(18) -0.19991(14)
H5B H 1.0394 1.1204 -0.1851
H6B H 0.9782 1.1914 -0.2423
C8B C 0.93695(18) 1.20123(19) -0.13467(15)
H7B H 0.8724 1.2209 -0.1488
H8B H 0.9371 1.1536 -0.0917
C9B C 0.99204(17) 1.30057(17) -0.11155(14)
C10B C 0.73786(17) 0.9728(2) -0.37382(13)
H9B H 0.6850 0.9269 -0.3659
H10B H 0.7148 1.0450 -0.3799
C11B C 0.7818(2) 0.9388(2) -0.44472(14)
H11B H 0.7853 0.8618 -0.4454
H12B H 0.8454 0.9659 -0.4425
C12B C 0.73097(16) 0.97548(18) -0.51754(13)
C13B C 1.2850(2) 0.4899(3) -0.3831(2)
H13B H 1.2672 0.5336 -0.3422
H14B H 1.3496 0.5024 -0.3912
H15B H 1.2467 0.5072 -0.4282
C14B C 1.2959(3) 0.3016(3) -0.42216(17)
H16B H 1.2857 0.2305 -0.4048
H17B H 1.2572 0.3142 -0.4679
H18B H 1.3606 0.3100 -0.4318
C15B C 1.2154(3) 0.2367(2) -0.28578(19)
H19B H 1.1881 0.2306 -0.2382
H20B H 1.1727 0.2087 -0.3253
H21B H 1.2729 0.1972 -0.2838
C16B C 1.23482(19) 0.3514(2) -0.30140(15)
C17B C 1.4668(3) 0.3003(5) 0.0250(3)
H22B H 1.5219 0.2646 0.0105
H23B H 1.4835 0.3697 0.0443
H24B H 1.4392 0.2598 0.0633
C18B C 1.4421(3) 0.3701(5) -0.1125(3)
H25B H 1.3938 0.3753 -0.1529
H26B H 1.4634 0.4402 -0.0980
H27B H 1.4936 0.3297 -0.1290
C19B C 1.2786(4) 0.2337(3) 0.0155(2)
H28B H 1.2810 0.2818 0.0576
H29B H 1.2148 0.2131 0.0025
H30B H 1.3153 0.1716 0.0289
C20B C 1.3185(4) 0.2894(3) -0.0532(3)
N1B N 0.88327(13) 0.86859(14) -0.20940(11)
N2B N 0.91922(14) 1.04887(14) -0.22422(11)
N3B N 0.80622(14) 0.96719(15) -0.30701(10)
N4B N 1.27190(16) 0.37780(19) -0.36430(13)
N5B N 1.4004(3) 0.3107(4) -0.0400(3)
O1B O 0.98828(14) 0.95197(15) -0.12773(11)
O2B O 0.84382(15) 1.14088(14) -0.32046(11)
O3B O 0.78153(14) 0.79004(14) -0.29606(11)
O4B O 0.97836(13) 0.58798(14) -0.10352(10)
O5B O 1.08913(13) 0.56818(14) -0.18395(10)
O6B O 1.05948(13) 1.32282(15) -0.14992(11)
O6_2 O 0.94052(13) 0.67718(15) 0.14992(11)
O6B_2 O 1.05948(13) 0.32282(15) -0.14992(11)
O7B O 0.96591(13) 1.35171(14) -0.05703(11)
O7_2 O 1.03409(13) 0.64829(14) 0.05703(11)
O7B_2 O 0.96591(13) 0.35171(14) -0.05703(11)
O8B O 0.65298(11) 1.02291(13) -0.51685(9)
O8C O 0.84702(11) 0.52291(13) 0.01685(9)
O8A O 1.15298(11) 0.47709(13) -0.01685(9)
O9B O 0.77058(13) 0.96338(15) -0.57691(10)
O9C O 0.72942(13) 0.46338(15) 0.07691(10)
O9A O 1.27058(13) 0.53662(15) -0.07691(10)
O10B O 1.21545(15) 0.42267(15) -0.25546(11)
O11B O 1.26896(16) 0.30701(18) -0.11187(13)
C21 C 0.5440(3) 0.9725(5) 0.1135(3)
H31 H 0.5441 0.9221 0.0729
H32 H 0.5797 0.9447 0.1571
H33 H 0.5713 1.0381 0.0985
C22 C 0.4231(3) 1.0716(3) 0.1956(2)
H34 H 0.3752 1.1236 0.1836
H35 H 0.4830 1.1063 0.2017
H36 H 0.4111 1.0361 0.2418
C23 C 0.2819(3) 0.9594(4) 0.1248(3)
H37 H 0.2813 1.0142 0.1624
H38 H 0.2594 0.8941 0.1449
H39 H 0.2421 0.9797 0.0812
C24 C 0.3988(8) 0.9408(4) 0.0985(3)
N6 N 0.4234(5) 0.9965(3) 0.1365(2)
O12 O 0.4007(2) 0.8750(3) 0.0504(2)
loop_
_geom_bond_atom_site_label_1
_geom_bond_atom_site_label_2
_geom_bond_site_symmetry_1
_geom_bond_site_symmetry_2
Mn1 O5 1_555 1_555
Mn2 O4 1_555 1_555
C1 N1 1_555 1_555
C2 N2 1_555 1_555
C3 N1 1_555 1_555
C4 H1 1_555 1_555
H2 C4 1_555 1_555
C5 C4 1_555 1_555
H3 C5 1_555 1_555
H4 C5 1_555 1_555
C6 C5 1_555 1_555
C7 H5 1_555 1_555
H6 C7 1_555 1_555
C8 C7 1_555 1_555
H7 C8 1_555 1_555
H8 C8 1_555 1_555
C9 C8 1_555 1_555
C10 H9 1_555 1_555
H10 C10 1_555 1_555
C11 C10 1_555 1_555
H11 C11 1_555 1_555
H12 C11 1_555 1_555
C12 C11 1_555 1_555
C13 H13 1_555 1_555
H14 C13 1_555 1_555
H15 C13 1_555 1_555
C14 H16 1_555 1_555
H17 C14 1_555 1_555
H18 C14 1_555 1_555
C15 H19 1_555 1_555
H20 C15 1_555 1_555
H21 C15 1_555 1_555
C16 C15 1_555 1_555
C17 H22 1_555 1_555
H23 C17 1_555 1_555
H24 C17 1_555 1_555
C18 H25 1_555 1_555
H26 C18 1_555 1_555
H27 C18 1_555 1_555
C19 H28 1_555 1_555
H29 C19 1_555 1_555
H30 C19 1_555 1_555
C20 C19 1_555 1_555
N1 C4 1_555 1_555
N2 C1 1_555 1_555
N3 C2 1_555 1_555
N4 C13 1_555 1_555
N5 C17 1_555 1_555
O1 C1 1_555 1_555
O2 C2 1_555 1_555
O3 C3 1_555 1_555
O4 C6 1_555 1_555
O5 C6 1_555 1_555
O6 C9 1_555 1_555
O7 C9 1_555 1_555
O8 C12 1_555 1_555
O9 C12 1_555 1_555
O10 Mn1 1_555 1_555
O11 Mn1 1_555 1_555
C21 H31 1_555 1_555
H32 C21 1_555 1_555
H33 C21 1_555 1_555
C22 H34 1_555 1_555
H35 C22 1_555 1_555
H36 C22 1_555 1_555
C23 H37 1_555 1_555
H38 C23 1_555 1_555
H39 C23 1_555 1_555
C24 C23 1_555 1_555
N6 C21 1_555 1_555
O12 C24 1_555 1_555
Mn1B O5B 1_555 1_555
Mn1_2 O6 1_555 1_555
Mn1C O8 1_555 1_555
Mn1B_2 O6B 1_555 1_555
Mn1A O8B 1_555 1_555
Mn2_2 O7 1_555 1_555
Mn2A O8 1_555 1_555
Mn2_3 O7B 1_555 1_555
Mn2A_2 O8B 1_555 1_555
C1B N1B 1_555 1_555
C2B N2B 1_555 1_555
C3B N1B 1_555 1_555
C4B H1B 1_555 1_555
H2B C4B 1_555 1_555
C5B C4B 1_555 1_555
H3B C5B 1_555 1_555
H4B C5B 1_555 1_555
C6B C5B 1_555 1_555
C7B H5B 1_555 1_555
H6B C7B 1_555 1_555
C8B C7B 1_555 1_555
H7B C8B 1_555 1_555
H8B C8B 1_555 1_555
C9B C8B 1_555 1_555
C10B H9B 1_555 1_555
H10B C10B 1_555 1_555
C11B C10B 1_555 1_555
H11B C11B 1_555 1_555
H12B C11B 1_555 1_555
C12B C11B 1_555 1_555
C13B H13B 1_555 1_555
H14B C13B 1_555 1_555
H15B C13B 1_555 1_555
C14B H16B 1_555 1_555
H17B C14B 1_555 1_555
H18B C14B 1_555 1_555
C15B H19B 1_555 1_555
H20B C15B 1_555 1_555
H21B C15B 1_555 1_555
C16B C15B 1_555 1_555
C17B H22B 1_555 1_555
H23B C17B 1_555 1_555
H24B C17B 1_555 1_555
C18B H25B 1_555 1_555
H26B C18B 1_555 1_555
H27B C18B 1_555 1_555
C19B H28B 1_555 1_555
H29B C19B 1_555 1_555
H30B C19B 1_555 1_555
C20B C19B 1_555 1_555
N1B C4B 1_555 1_555
N2B C1B 1_555 1_555
N3B C2B 1_555 1_555
N4B C13B 1_555 1_555
N5B C17B 1_555 1_555
O1B C1B 1_555 1_555
O2B C2B 1_555 1_555
O3B C3B 1_555 1_555
O4B Mn2 1_555 1_555
O5B C6B 1_555 1_555
O6B C9B 1_555 1_555
O6_2 Mn1 1_555 1_555
O6B_2 Mn1B 1_555 1_555
O7B C9B 1_555 1_555
O7_2 Mn2 1_555 1_555
O7B_2 Mn2 1_555 1_555
O8B C12B 1_555 1_555
O8C Mn1 1_555 1_555
O8A Mn2 1_555 1_555
O9B Mn1A 1_555 1_555
O9C Mn1 1_555 1_555
O9A Mn1B 1_555 1_555
O10B Mn1B 1_555 1_555
O11B Mn1B 1_555 1_555
Mn2 O8C 1_555 1_555
C3 N3 1_555 1_555
C7 N2 1_555 1_555
C10 N3 1_555 1_555
C14 N4 1_555 1_555
C16 N4 1_555 1_555
C16 O10 1_555 1_555
C18 N5 1_555 1_555
C20 N5 1_555 1_555
C20 O11 1_555 1_555
O9 Mn1C 1_555 1_555
C22 N6 1_555 1_555
C24 N6 1_555 1_555
Mn1B O8A 1_555 1_555
C3B N3B 1_555 1_555
C6B O4B 1_555 1_555
C7B N2B 1_555 1_555
C10B N3B 1_555 1_555
C12B O9B 1_555 1_555
C14B N4B 1_555 1_555
C16B N4B 1_555 1_555
C16B O10B 1_555 1_555
C18B N5B 1_555 1_555
C20B N5B 1_555 1_555
C20B O11B 1_555 1_555

#END
