
#######################################################################
#
#                 Cambridge Crystallographic Data Centre
#                                CCDC 
#
#######################################################################
#
# If this CIF has been generated from an entry in the Cambridge 
# Structural Database, then it will include bibliographic, chemical, 
# crystal, experimental, refinement or atomic coordinate data resulting 
# from the CCDC's data processing and validation procedures.
#
#######################################################################

data_KAWCOC
_symmetry_cell_setting           triclinic
_symmetry_space_group_name_H-M   'P -1'
_symmetry_Int_Tables_number      2
_space_group_name_Hall           '-P 1'
loop_
_symmetry_equiv_pos_site_id
_symmetry_equiv_pos_as_xyz
1 x,y,z
2 -x,-y,-z
_cell_length_a                   5.8963(4)
_cell_length_b                   7.1928(4)
_cell_length_c                   10.9481(7)
_cell_angle_alpha                73.6100(10)
_cell_angle_beta                 86.5760(10)
_cell_angle_gamma                87.0680(10)
_cell_volume                     444.37
loop_
_atom_site_label
_atom_site_type_symbol
_atom_site_fract_x
_atom_site_fract_y
_atom_site_fract_z
Cd1 Cd 0.0000 0.5000 0.5000
S1 S -0.24558(9) 0.80546(8) 0.34892(6)
C1 C -0.5009(3) 0.7210(3) 0.39058(19)
N1 N -0.6806(3) 0.6643(3) 0.4178(2)
N2 N 0.0704(3) 0.1802(3) 0.12904(17)
N3 N 0.0284(3) 0.3443(3) 0.33209(17)
N4 N -0.4213(3) 0.4802(3) 0.04794(17)
C2 C 0.2225(4) 0.1461(3) 0.2179(2)
H1 H 0.3473 0.0640 0.2119
C3 C 0.2050(4) 0.2257(4) 0.3181(2)
H2 H 0.3174 0.1970 0.3774
C4 C -0.1269(4) 0.3787(3) 0.2439(2)
H3 H -0.2529 0.4589 0.2508
C5 C -0.1064(4) 0.2989(3) 0.14219(19)
C6 C -0.2771(4) 0.3427(3) 0.04258(19)
C7 C -0.2667(6) 0.2276(4) -0.0511(3)
H4 H -0.3998 0.2570 -0.1005
H5 H -0.2598 0.0919 -0.0068
H6 H -0.1336 0.2596 -0.1068
Cd1_2 Cd -1.0000 0.5000 -0.5000
Cd1_3 Cd -1.0000 0.5000 0.5000
Cd1_4 Cd 1.0000 0.5000 0.5000
S1A S 0.24558(9) 0.19454(8) 0.65108(6)
C1A C 0.5009(3) 0.2790(3) 0.60942(19)
N1A N 0.6806(3) 0.3357(3) 0.5822(2)
N1_2 N 0.3194(3) 0.6643(3) 0.4178(2)
N1A_2 N -0.3194(3) 0.3357(3) 0.5822(2)
N2A N -1.0704(3) 0.8198(3) -0.12904(17)
N3A N -1.0284(3) 0.6557(3) -0.33209(17)
N3A_2 N -0.0284(3) 0.6557(3) 0.66791(17)
N4A N -0.5787(3) 0.5198(3) -0.04794(17)
C2A C -1.2225(4) 0.8539(3) -0.2179(2)
H1A H -1.3473 0.9360 -0.2119
C3A C -1.2050(4) 0.7743(4) -0.3181(2)
H2A H -1.3174 0.8030 -0.3774
C4A C -0.8731(4) 0.6213(3) -0.2439(2)
H3A H -0.7471 0.5411 -0.2508
C5A C -0.8936(4) 0.7011(3) -0.14219(19)
C6A C -0.7229(4) 0.6573(3) -0.04258(19)
C7A C -0.7333(6) 0.7724(4) 0.0511(3)
H4A H -0.6002 0.7430 0.1005
H5A H -0.7402 0.9081 0.0068
H6A H -0.8664 0.7404 0.1068
loop_
_geom_bond_atom_site_label_1
_geom_bond_atom_site_label_2
_geom_bond_site_symmetry_1
_geom_bond_site_symmetry_2
Cd1 S1 1_555 1_555
S1 C1 1_555 1_555
C1 N1 1_555 1_555
N1 Cd1_3 1_555 1_555
N2 C2 1_555 1_555
N3 Cd1 1_555 1_555
N4 C6 1_555 1_555
C2 H1 1_555 1_555
C3 N3 1_555 1_555
H2 C3 1_555 1_555
C4 N3 1_555 1_555
H3 C4 1_555 1_555
C5 N2 1_555 1_555
C6 C5 1_555 1_555
C7 C6 1_555 1_555
H4 C7 1_555 1_555
H5 C7 1_555 1_555
H6 C7 1_555 1_555
Cd1_2 N3A 1_555 1_555
Cd1_4 N1A 1_555 1_555
S1A Cd1 1_555 1_555
C1A S1A 1_555 1_555
N1A C1A 1_555 1_555
N1_2 Cd1 1_555 1_555
N1A_2 Cd1 1_555 1_555
N2A C2A 1_555 1_555
N3A C3A 1_555 1_555
N3A_2 Cd1 1_555 1_555
N4A N4 1_555 1_555
C2A H1A 1_555 1_555
C3A C2A 1_555 1_555
H2A C3A 1_555 1_555
C4A N3A 1_555 1_555
H3A C4A 1_555 1_555
C5A N2A 1_555 1_555
C6A N4A 1_555 1_555
C7A C6A 1_555 1_555
H4A C7A 1_555 1_555
H5A C7A 1_555 1_555
H6A C7A 1_555 1_555
C2 C3 1_555 1_555
C4 C5 1_555 1_555
C4A C5A 1_555 1_555
C5A C6A 1_555 1_555

#END
