
#######################################################################
#
#                 Cambridge Crystallographic Data Centre
#                                CCDC 
#
#######################################################################
#
# If this CIF has been generated from an entry in the Cambridge 
# Structural Database, then it will include bibliographic, chemical, 
# crystal, experimental, refinement or atomic coordinate data resulting 
# from the CCDC's data processing and validation procedures.
#
#######################################################################

data_KAWCUI
_symmetry_cell_setting           triclinic
_symmetry_space_group_name_H-M   'P -1'
_symmetry_Int_Tables_number      2
_space_group_name_Hall           '-P 1'
loop_
_symmetry_equiv_pos_site_id
_symmetry_equiv_pos_as_xyz
1 x,y,z
2 -x,-y,-z
_cell_length_a                   4.1197(2)
_cell_length_b                   8.0163(4)
_cell_length_c                   12.4386(8)
_cell_angle_alpha                91.739(3)
_cell_angle_beta                 94.104(3)
_cell_angle_gamma                94.716(3)
_cell_volume                     408.07
loop_
_atom_site_label
_atom_site_type_symbol
_atom_site_fract_x
_atom_site_fract_y
_atom_site_fract_z
Cd1 Cd 0.0000 -0.5000 0.0000
I1 I -0.49220(4) -0.712221(19) 0.097219(13)
N1 N 0.0589(6) -0.3175(3) 0.16158(17)
N2 N 0.1125(6) -0.1129(3) 0.34792(18)
N3 N 0.4423(6) -0.4724(3) 0.44958(17)
C1 C 0.0160(8) -0.0581(4) 0.2516(2)
H1 H -0.0373 0.0521 0.2469
C2 C -0.0077(8) -0.1572(3) 0.1594(2)
H2 H -0.0715 -0.1122 0.0939
C3 C 0.1557(7) -0.3738(3) 0.2575(2)
H3 H 0.2034 -0.4848 0.2623
C4 C 0.1875(6) -0.2714(3) 0.3505(2)
C5 C 0.3115(6) -0.3335(3) 0.4560(2)
C6 C 0.2707(8) -0.2325(4) 0.5555(2)
H4 H 0.3008 -0.3000 0.6173
H5 H 0.0552 -0.1946 0.5522
H6 H 0.4296 -0.1375 0.5613
Cd1_2 Cd -1.0000 -0.5000 0.0000
Cd1_3 Cd 1.0000 -0.5000 1.0000
I1A I -0.50780(4) -0.287779(19) -0.097219(13)
I1_2 I 0.50780(4) -0.712221(19) 0.097219(13)
I1A_2 I 0.49220(4) -0.287779(19) -0.097219(13)
N1A N 0.9411(6) -0.6825(3) 0.83842(17)
N1A_2 N -0.0589(6) -0.6825(3) -0.16158(17)
N2A N 0.8875(6) -0.8871(3) 0.65208(18)
N3A N 0.5577(6) -0.5276(3) 0.55042(17)
C1A C 0.9840(8) -0.9419(4) 0.7484(2)
H1A H 1.0373 -1.0521 0.7531
C2A C 1.0077(8) -0.8428(3) 0.8406(2)
H2A H 1.0715 -0.8878 0.9061
C3A C 0.8443(7) -0.6262(3) 0.7425(2)
H3A H 0.7966 -0.5152 0.7377
C4A C 0.8125(6) -0.7286(3) 0.6495(2)
C5A C 0.6885(6) -0.6665(3) 0.5440(2)
C6A C 0.7293(8) -0.7675(4) 0.4445(2)
H4A H 0.6992 -0.7000 0.3827
H5A H 0.9448 -0.8054 0.4478
H6A H 0.5704 -0.8625 0.4387
loop_
_geom_bond_atom_site_label_1
_geom_bond_atom_site_label_2
_geom_bond_site_symmetry_1
_geom_bond_site_symmetry_2
Cd1 I1 1_555 1_555
I1 Cd1_2 1_555 1_555
N1 Cd1 1_555 1_555
N2 C1 1_555 1_555
N3 C5 1_555 1_555
C1 H1 1_555 1_555
C2 N1 1_555 1_555
H2 C2 1_555 1_555
C3 N1 1_555 1_555
H3 C3 1_555 1_555
C4 N2 1_555 1_555
C5 C4 1_555 1_555
C6 C5 1_555 1_555
H4 C6 1_555 1_555
H5 C6 1_555 1_555
H6 C6 1_555 1_555
Cd1_2 I1A 1_555 1_555
Cd1_3 N1A 1_555 1_555
I1A Cd1 1_555 1_555
I1_2 Cd1 1_555 1_555
I1A_2 Cd1 1_555 1_555
N1A C2A 1_555 1_555
N1A_2 Cd1 1_555 1_555
N2A C1A 1_555 1_555
N3A N3 1_555 1_555
C1A H1A 1_555 1_555
C2A C1A 1_555 1_555
H2A C2A 1_555 1_555
C3A N1A 1_555 1_555
H3A C3A 1_555 1_555
C4A N2A 1_555 1_555
C5A N3A 1_555 1_555
C6A C5A 1_555 1_555
H4A C6A 1_555 1_555
H5A C6A 1_555 1_555
H6A C6A 1_555 1_555
C1 C2 1_555 1_555
C3 C4 1_555 1_555
C3A C4A 1_555 1_555
C4A C5A 1_555 1_555

#END
