
#######################################################################
#
#                 Cambridge Crystallographic Data Centre
#                                CCDC 
#
#######################################################################
#
# If this CIF has been generated from an entry in the Cambridge 
# Structural Database, then it will include bibliographic, chemical, 
# crystal, experimental, refinement or atomic coordinate data resulting 
# from the CCDC's data processing and validation procedures.
#
#######################################################################

data_KAWCAO
_symmetry_cell_setting           monoclinic
_symmetry_space_group_name_H-M   'P 21/c'
_symmetry_Int_Tables_number      14
_space_group_name_Hall           '-P 2ybc'
loop_
_symmetry_equiv_pos_site_id
_symmetry_equiv_pos_as_xyz
1 x,y,z
2 -x,1/2+y,1/2-z
3 -x,-y,-z
4 x,1/2-y,1/2+z
_cell_length_a                   13.1120(11)
_cell_length_b                   23.1084(19)
_cell_length_c                   6.7362(6)
_cell_angle_alpha                90
_cell_angle_beta                 92.9860(10)
_cell_angle_gamma                90
_cell_volume                     2038.28
loop_
_atom_site_label
_atom_site_type_symbol
_atom_site_fract_x
_atom_site_fract_y
_atom_site_fract_z
Mn1 Mn 0.05737(5) 0.70834(3) 0.22696(10)
C1 C 0.4697(4) 0.6310(2) 0.8872(7)
C2 C 0.6500(4) 0.6500(2) 0.9583(7)
C3 C 0.5637(4) 0.6907(2) 0.6624(7)
C4 C 0.3865(4) 0.6643(2) 0.5781(7)
H1 H 0.3539 0.6256 0.5751
H2 H 0.4088 0.6728 0.4429
C5 C 0.3090(4) 0.7092(2) 0.6342(7)
H3 H 0.3410 0.7480 0.6337
H4 H 0.2879 0.7013 0.7705
C6 C 0.2155(3) 0.7089(2) 0.4920(6)
C7 C 0.5521(4) 0.6025(2) 1.2083(8)
H5 H 0.4798 0.5990 1.2422
H6 H 0.5867 0.6289 1.3059
C8 C 0.6026(5) 0.5429(3) 1.2232(8)
H7 H 0.5570 0.5136 1.1584
H8 H 0.6673 0.5434 1.1536
C9 C 0.6240(5) 0.5272(2) 1.4391(8)
C10 C 0.7472(4) 0.7068(2) 0.7297(7)
H9 H 0.7918 0.7119 0.8516
H10 H 0.7334 0.7455 0.6716
C11 C 0.8020(4) 0.6702(2) 0.5828(7)
H11 H 0.7616 0.6697 0.4546
H12 H 0.8067 0.6300 0.6327
C12 C 0.9082(4) 0.6923(2) 0.5485(7)
C13 C 0.1021(6) 0.6225(3) -0.1138(10)
H13 H 0.1630 0.6446 -0.1182
C14 C 0.0873(5) 0.5765(3) -0.2616(9)
H14 H 0.1367 0.5674 -0.3551
C15 C -0.0002(6) 0.5488(3) -0.2540(12)
C16 C -0.0674(7) 0.5573(3) -0.1212(10)
H15 H -0.1280 0.5349 -0.1163
C17 C -0.0436(6) 0.6018(3) 0.0130(10)
H16 H -0.0922 0.6090 0.1098
C18 C -0.0244(6) 0.5029(4) -0.4151(10)
H17 H -0.0780 0.4764 -0.3928
N1 N 0.4768(3) 0.66322(18) 0.7188(6)
N2 N 0.5568(3) 0.6275(2) 1.0065(6)
N3 N 0.6507(3) 0.68033(17) 0.7823(6)
N4 N 0.0403(4) 0.63587(19) 0.0221(6)
O1 O 0.3900(3) 0.60791(19) 0.9283(6)
O2 O 0.7252(3) 0.6443(2) 1.0671(6)
O3 O 0.5650(3) 0.72130(16) 0.5173(5)
O4 O 0.2052(3) 0.67042(15) 0.3611(5)
O5 O 0.1495(2) 0.74854(15) 0.5027(5)
O6 O 0.5890(4) 0.55148(19) 1.5770(6)
O7 O 0.6866(4) 0.48325(19) 1.4581(6)
O8 O 0.9391(3) 0.73472(17) 0.6533(5)
O9 O 0.9588(3) 0.66716(15) 0.4215(5)
Mn1B Mn -0.05737(5) 0.29166(3) -1.22696(10)
Mn1C Mn 0.05737(5) 0.79166(3) 0.72696(10)
Mn1C_2 Mn 1.05737(5) 0.79166(3) 0.72696(10)
Mn1_2 Mn 1.05737(5) 0.70834(3) 0.22696(10)
Mn1C_3 Mn 0.05737(5) 0.79166(3) -0.27304(10)
Mn1C_4 Mn 1.05737(5) 0.79166(3) -0.27304(10)
C1C C 0.4697(4) 0.8690(2) 0.3872(7)
C2C C 0.6500(4) 0.8500(2) 0.4583(7)
C3C C 0.5637(4) 0.8093(2) 0.1624(7)
C4C C 0.3865(4) 0.8357(2) 0.0781(7)
H1C H 0.3539 0.8744 0.0751
H2C H 0.4088 0.8272 -0.0571
C5C C 0.3090(4) 0.7908(2) 0.1342(7)
H3C H 0.3410 0.7520 0.1337
H4C H 0.2879 0.7987 0.2705
C6C C 0.2155(3) 0.7911(2) -0.0080(6)
C7C C 0.5521(4) 0.8975(2) 0.7083(8)
H5C H 0.4798 0.9010 0.7422
H6C H 0.5867 0.8711 0.8059
C8C C 0.6026(5) 0.9571(3) 0.7232(8)
H7C H 0.5570 0.9864 0.6584
H8C H 0.6673 0.9566 0.6536
C9C C 0.6240(5) 0.9728(2) 0.9391(8)
C10C C 0.7472(4) 0.7932(2) 0.2297(7)
H9C H 0.7918 0.7881 0.3516
H10C H 0.7334 0.7545 0.1716
C11C C 0.8020(4) 0.8298(2) 0.0828(7)
H11C H 0.7616 0.8303 -0.0454
H12C H 0.8067 0.8700 0.1327
C12C C 0.9082(4) 0.8077(2) 0.0485(7)
C13B C -0.1021(6) 0.3775(3) -0.8862(10)
H13B H -0.1630 0.3554 -0.8818
C14B C -0.0873(5) 0.4235(3) -0.7384(9)
H14B H -0.1367 0.4326 -0.6449
C15B C 0.0002(6) 0.4512(3) -0.7460(12)
C16B C 0.0674(7) 0.4427(3) -0.8788(10)
H15B H 0.1280 0.4651 -0.8837
C17B C 0.0436(6) 0.3982(3) -1.0130(10)
H16B H 0.0922 0.3910 -1.1098
C18B C 0.0244(6) 0.4971(4) -0.5849(10)
H17B H 0.0780 0.5236 -0.6072
N1C N 0.4768(3) 0.83678(18) 0.2188(6)
N2C N 0.5568(3) 0.8725(2) 0.5065(6)
N3C N 0.6507(3) 0.81967(17) 0.2823(6)
N4B N -0.0403(4) 0.36413(19) -1.0221(6)
O1C O 0.3900(3) 0.89209(19) 0.4283(6)
O2C O 0.7252(3) 0.8557(2) 0.5671(6)
O3C O 0.5650(3) 0.77870(16) 0.0173(5)
O4C O 0.2052(3) 0.82958(15) -0.1389(5)
O4B O -0.2052(3) 0.32958(15) -1.3611(5)
O5C O 0.1495(2) 0.75146(15) 0.0027(5)
O5B O -0.1495(2) 0.25146(15) -1.5027(5)
O5A O -0.1495(2) 0.24854(15) -1.0027(5)
O6C O 0.5890(4) 0.94852(19) 1.0770(6)
O7C O 0.6866(4) 1.01675(19) 0.9581(6)
O8C O 0.9391(3) 0.76528(17) 0.1533(5)
O8C_2 O -0.0609(3) 0.76528(17) 0.1533(5)
O8A O 0.0609(3) 0.23472(17) -1.1533(5)
O9C O 0.9588(3) 0.83284(15) -0.0785(5)
O9_2 O -0.0412(3) 0.66716(15) 0.4215(5)
O9B O 0.0412(3) 0.33284(15) -1.4215(5)
O10 O 0.2610(4) 0.56270(17) 0.2049(7)
H18 H 0.318(4) 0.567(3) 0.153(16)
H19 H 0.236(5) 0.5948(16) 0.230(10)
loop_
_geom_bond_atom_site_label_1
_geom_bond_atom_site_label_2
_geom_bond_site_symmetry_1
_geom_bond_site_symmetry_2
Mn1 N4 1_555 1_555
C1 N1 1_555 1_555
C2 N2 1_555 1_555
C3 N1 1_555 1_555
C4 H1 1_555 1_555
H2 C4 1_555 1_555
C5 C4 1_555 1_555
H3 C5 1_555 1_555
H4 C5 1_555 1_555
C6 C5 1_555 1_555
C7 H5 1_555 1_555
H6 C7 1_555 1_555
C8 C7 1_555 1_555
H7 C8 1_555 1_555
H8 C8 1_555 1_555
C9 C8 1_555 1_555
C10 H9 1_555 1_555
H10 C10 1_555 1_555
C11 C10 1_555 1_555
H11 C11 1_555 1_555
H12 C11 1_555 1_555
C12 C11 1_555 1_555
C13 H13 1_555 1_555
C14 C13 1_555 1_555
H14 C14 1_555 1_555
C15 C14 1_555 1_555
C16 C15 1_555 1_555
H15 C16 1_555 1_555
C17 C16 1_555 1_555
H16 C17 1_555 1_555
C18 C15 1_555 1_555
H17 C18 1_555 1_555
N1 C4 1_555 1_555
N2 C1 1_555 1_555
N3 C2 1_555 1_555
N4 C13 1_555 1_555
O1 C1 1_555 1_555
O2 C2 1_555 1_555
O3 C3 1_555 1_555
O4 Mn1 1_555 1_555
O5 Mn1 1_555 1_555
O6 C9 1_555 1_555
O7 C9 1_555 1_555
O8 C12 1_555 1_555
O9 C12 1_555 1_555
O10 H18 1_555 1_555
H19 O10 1_555 1_555
Mn1B N4B 1_555 1_555
Mn1C O5 1_555 1_555
Mn1C_2 O8 1_555 1_555
Mn1_2 O9 1_555 1_555
Mn1C_3 O4C 1_555 1_555
Mn1C_4 O9C 1_555 1_555
C1C N1C 1_555 1_555
C2C N2C 1_555 1_555
C3C N1C 1_555 1_555
C4C H1C 1_555 1_555
H2C C4C 1_555 1_555
C5C C4C 1_555 1_555
H3C C5C 1_555 1_555
H4C C5C 1_555 1_555
C6C C5C 1_555 1_555
C7C H5C 1_555 1_555
H6C C7C 1_555 1_555
C8C C7C 1_555 1_555
H7C C8C 1_555 1_555
H8C C8C 1_555 1_555
C9C C8C 1_555 1_555
C10C H9C 1_555 1_555
H10C C10C 1_555 1_555
C11C C10C 1_555 1_555
H11C C11C 1_555 1_555
H12C C11C 1_555 1_555
C12C C11C 1_555 1_555
C13B H13B 1_555 1_555
C14B C13B 1_555 1_555
H14B C14B 1_555 1_555
C15B C14B 1_555 1_555
C16B C15B 1_555 1_555
H15B C16B 1_555 1_555
C17B C16B 1_555 1_555
H16B C17B 1_555 1_555
C18B C18 1_555 1_555
H17B C18B 1_555 1_555
N1C C4C 1_555 1_555
N2C C1C 1_555 1_555
N3C C2C 1_555 1_555
N4B C13B 1_555 1_555
O1C C1C 1_555 1_555
O2C C2C 1_555 1_555
O3C C3C 1_555 1_555
O4C C6C 1_555 1_555
O4B Mn1B 1_555 1_555
O5C Mn1 1_555 1_555
O5B Mn1B 1_555 1_555
O5A Mn1B 1_555 1_555
O6C C9C 1_555 1_555
O7C C9C 1_555 1_555
O8C Mn1_2 1_555 1_555
O8C_2 Mn1 1_555 1_555
O8A Mn1B 1_555 1_555
O9C C12C 1_555 1_555
O9_2 Mn1 1_555 1_555
O9B Mn1B 1_555 1_555
C3 N3 1_555 1_555
C6 O4 1_555 1_555
C6 O5 1_555 1_555
C7 N2 1_555 1_555
C10 N3 1_555 1_555
C17 N4 1_555 1_555
Mn1C_3 O5C 1_555 1_555
C3C N3C 1_555 1_555
C6C O5C 1_555 1_555
C7C N2C 1_555 1_555
C10C N3C 1_555 1_555
C12C O8C 1_555 1_555
C15B C18B 1_555 1_555
C17B N4B 1_555 1_555

#END
