
#######################################################################
#
#                 Cambridge Crystallographic Data Centre
#                                CCDC 
#
#######################################################################
#
# If this CIF has been generated from an entry in the Cambridge 
# Structural Database, then it will include bibliographic, chemical, 
# crystal, experimental, refinement or atomic coordinate data resulting 
# from the CCDC's data processing and validation procedures.
#
#######################################################################

data_KAWCES
_symmetry_cell_setting           monoclinic
_symmetry_space_group_name_H-M   'C 2/c'
_symmetry_Int_Tables_number      15
_space_group_name_Hall           '-C 2yn'
loop_
_symmetry_equiv_pos_site_id
_symmetry_equiv_pos_as_xyz
1 x,y,z
2 -x,y,1/2-z
3 1/2+x,1/2+y,z
4 1/2-x,1/2+y,1/2-z
5 -x,-y,-z
6 x,-y,1/2+z
7 1/2-x,1/2-y,-z
8 1/2+x,1/2-y,1/2+z
_cell_length_a                   12.2040(10)
_cell_length_b                   8.1960(10)
_cell_length_c                   18.415(2)
_cell_angle_alpha                90
_cell_angle_beta                 105.230(10)
_cell_angle_gamma                90
_cell_volume                     1777.25
loop_
_atom_site_label
_atom_site_type_symbol
_atom_site_fract_x
_atom_site_fract_y
_atom_site_fract_z
Ag1 Ag 0.96733(4) 0.25920(5) 0.61100(3)
N1 N 1.1146(4) 0.0865(5) 0.6010(3)
N2 N 1.0242(4) 0.0720(5) 0.7193(2)
N3 N 1.3022(4) -0.1045(6) 0.6000(3)
C1 C 1.1598(5) 0.0849(7) 0.5433(3)
H1 H 1.1280 0.1508 0.5020
C2 C 1.2529(4) -0.0113(7) 0.5417(3)
H2 H 1.2809 -0.0103 0.4994
C3 C 1.2568(4) -0.1026(7) 0.6584(3)
H3 H 1.2895 -0.1672 0.6999
C4 C 1.1633(4) -0.0092(6) 0.6600(3)
C5 C 1.1126(4) -0.0146(6) 0.7254(3)
C6 C 1.1642(5) -0.1234(9) 0.7899(4)
H4 H 1.1224 -0.1146 0.8272
H5 H 1.2417 -0.0916 0.8115
H6 H 1.1620 -0.2342 0.7727
N4 N 1.0550(5) 0.6289(7) 0.5846(4)
O1 O 1.0969(4) 0.4924(6) 0.5926(3)
O2 O 0.9887(5) 0.6830(8) 0.6187(3)
O3 O 1.0765(5) 0.7177(7) 0.5361(3)
Ag1A Ag 1.03267(4) 0.25920(5) 0.88900(3)
Ag1B Ag 1.46733(4) -0.24080(5) 0.61100(3)
Ag1D Ag 1.03267(4) 0.74080(5) 0.38900(3)
Ag1C Ag 0.53267(4) -0.24080(5) 0.88900(3)
Ag1E Ag 0.96733(4) 0.74080(5) 1.11100(3)
N1A N 0.8854(4) 0.0865(5) 0.8990(3)
N2A N 0.9758(4) 0.0720(5) 0.7807(2)
N3A N 0.6978(4) -0.1045(6) 0.9000(3)
N3B N 0.8022(4) 0.3955(6) 0.6000(3)
N3C N 1.1978(4) 0.3955(6) 0.9000(3)
C1A C 0.8402(5) 0.0849(7) 0.9567(3)
H1A H 0.8720 0.1508 0.9980
C2A C 0.7471(4) -0.0113(7) 0.9583(3)
H2A H 0.7191 -0.0103 1.0006
C3A C 0.7432(4) -0.1026(7) 0.8416(3)
H3A H 0.7105 -0.1672 0.8001
C4A C 0.8367(4) -0.0092(6) 0.8400(3)
C5A C 0.8874(4) -0.0146(6) 0.7746(3)
C6A C 0.8358(5) -0.1234(9) 0.7101(4)
H4A H 0.8776 -0.1146 0.6728
H5A H 0.7583 -0.0916 0.6885
H6A H 0.8380 -0.2342 0.7273
N4A N 0.9450(5) 0.6289(7) 0.9154(4)
O1A O 0.9031(4) 0.4924(6) 0.9074(3)
O2A O 1.0113(5) 0.6830(8) 0.8813(3)
O3D O 0.9235(5) 0.2823(7) 0.4639(3)
O3E O 1.0765(5) 0.2823(7) 1.0361(3)
O3A O 0.9235(5) 0.7177(7) 0.9639(3)
O4 O 1.0000 0.4756(10) 0.7500
H7 H 0.9967 0.5352 0.7117
H7A H 1.0033 0.5352 0.7883
loop_
_geom_bond_atom_site_label_1
_geom_bond_atom_site_label_2
_geom_bond_site_symmetry_1
_geom_bond_site_symmetry_2
Ag1 N1 1_555 1_555
N1 C1 1_555 1_555
N2 Ag1 1_555 1_555
N3 C2 1_555 1_555
C1 H1 1_555 1_555
C2 C1 1_555 1_555
H2 C2 1_555 1_555
C3 N3 1_555 1_555
H3 C3 1_555 1_555
C4 N1 1_555 1_555
C5 N2 1_555 1_555
C6 C5 1_555 1_555
H4 C6 1_555 1_555
H5 C6 1_555 1_555
H6 C6 1_555 1_555
N4 O1 1_555 1_555
O1 Ag1 1_555 1_555
O2 N4 1_555 1_555
O3 N4 1_555 1_555
O4 H7 1_555 1_555
Ag1A N1A 1_555 1_555
Ag1B N3 1_555 1_555
Ag1D O3 1_555 1_555
Ag1C N3A 1_555 1_555
Ag1E O3A 1_555 1_555
N1A C1A 1_555 1_555
N2A N2 1_555 1_555
N3A C2A 1_555 1_555
N3B Ag1 1_555 1_555
N3C Ag1A 1_555 1_555
C1A H1A 1_555 1_555
C2A C1A 1_555 1_555
H2A C2A 1_555 1_555
C3A N3A 1_555 1_555
H3A C3A 1_555 1_555
C4A N1A 1_555 1_555
C5A N2A 1_555 1_555
C6A C5A 1_555 1_555
H4A C6A 1_555 1_555
H5A C6A 1_555 1_555
H6A C6A 1_555 1_555
N4A O1A 1_555 1_555
O1A Ag1A 1_555 1_555
O2A N4A 1_555 1_555
O3D Ag1 1_555 1_555
O3E Ag1A 1_555 1_555
O3A N4A 1_555 1_555
H7A O4 1_555 1_555
C3 C4 1_555 1_555
C4 C5 1_555 1_555
Ag1A N2A 1_555 1_555
C3A C4A 1_555 1_555
C4A C5A 1_555 1_555

#END
