
#######################################################################
#
#                 Cambridge Crystallographic Data Centre
#                                CCDC 
#
#######################################################################
#
# If this CIF has been generated from an entry in the Cambridge 
# Structural Database, then it will include bibliographic, chemical, 
# crystal, experimental, refinement or atomic coordinate data resulting 
# from the CCDC's data processing and validation procedures.
#
#######################################################################

data_KAWCIW
_symmetry_cell_setting           orthorhombic
_symmetry_space_group_name_H-M   'A b a 2'
_symmetry_Int_Tables_number      41
_space_group_name_Hall           'A 2 -2ab'
loop_
_symmetry_equiv_pos_site_id
_symmetry_equiv_pos_as_xyz
1 x,y,z
2 -x,-y,z
3 1/2+x,1/2-y,z
4 1/2-x,1/2+y,z
5 x,1/2+y,1/2+z
6 -x,1/2-y,1/2+z
7 1/2+x,-y,1/2+z
8 1/2-x,y,1/2+z
_cell_length_a                   12.2275(7)
_cell_length_b                   21.7867(13)
_cell_length_c                   7.0262(4)
_cell_angle_alpha                90
_cell_angle_beta                 90
_cell_angle_gamma                90
_cell_volume                     1871.76
loop_
_atom_site_label
_atom_site_type_symbol
_atom_site_fract_x
_atom_site_fract_y
_atom_site_fract_z
Ag1 Ag -0.285478(18) -0.259011(12) 0.40460(7)
S1 S -0.65391(7) -0.17889(4) 0.59900(13)
C1 C -0.5386(3) -0.2145(2) 0.5443(5)
N1 N -0.4563(3) -0.2370(2) 0.5110(7)
N2 N -0.1740(3) -0.03403(14) 0.2691(4)
N3 N -0.2273(2) -0.15584(14) 0.3520(4)
N4 N -0.4605(2) -0.02260(14) 0.3232(4)
C2 C -0.0973(3) -0.07710(19) 0.2937(5)
H1 H -0.0241 -0.0663 0.2800
C3 C -0.1232(3) -0.13670(18) 0.3385(5)
H2 H -0.0670 -0.1646 0.3601
C4 C -0.3033(3) -0.11331(17) 0.3247(5)
H3 H -0.3765 -0.1248 0.3298
C5 C -0.2777(2) -0.05226(17) 0.2889(5)
C6 C -0.3651(3) -0.00497(16) 0.2683(4)
C7 C -0.3385(3) 0.05671(18) 0.1901(6)
H4 H -0.4038 0.0811 0.1844
H5 H -0.3086 0.0523 0.0645
H6 H -0.2859 0.0765 0.2709
Ag1A Ag -0.714522(18) 0.259011(12) 0.40460(7)
Ag1B Ag -0.785478(18) -0.240989(12) 0.40460(7)
Ag1C Ag -0.214522(18) 0.240989(12) 0.40460(7)
Ag1D Ag -0.285478(18) 0.240989(12) 0.90460(7)
Ag1E Ag -0.714522(18) -0.240989(12) 0.90460(7)
S1A S -0.34609(7) 0.17889(4) 0.59900(13)
S1B S -0.15391(7) -0.32111(4) 0.59900(13)
S1C S -0.84609(7) 0.32111(4) 0.59900(13)
S1D S -0.65391(7) 0.32111(4) 0.09900(13)
S1E S -0.34609(7) -0.32111(4) 0.09900(13)
C1A C -0.4614(3) 0.2145(2) 0.5443(5)
N1A N -0.5437(3) 0.2370(2) 0.5110(7)
N2A N -0.8260(3) 0.03403(14) 0.2691(4)
N3A N -0.7727(2) 0.15584(14) 0.3520(4)
N4A N -0.5395(2) 0.02260(14) 0.3232(4)
C2A C -0.9027(3) 0.07710(19) 0.2937(5)
H1A H -0.9759 0.0663 0.2800
C3A C -0.8768(3) 0.13670(18) 0.3385(5)
H2A H -0.9330 0.1646 0.3601
C4A C -0.6967(3) 0.11331(17) 0.3247(5)
H3A H -0.6235 0.1248 0.3298
C5A C -0.7223(2) 0.05226(17) 0.2889(5)
C6A C -0.6349(3) 0.00497(16) 0.2683(4)
C7A C -0.6615(3) -0.05671(18) 0.1901(6)
H4A H -0.5962 -0.0811 0.1844
H5A H -0.6914 -0.0523 0.0645
H6A H -0.7141 -0.0765 0.2709
loop_
_geom_bond_atom_site_label_1
_geom_bond_atom_site_label_2
_geom_bond_site_symmetry_1
_geom_bond_site_symmetry_2
Ag1 N1 1_555 1_555
S1 C1 1_555 1_555
C1 N1 1_555 1_555
N2 C2 1_555 1_555
N3 Ag1 1_555 1_555
N4 C6 1_555 1_555
C2 H1 1_555 1_555
C3 N3 1_555 1_555
H2 C3 1_555 1_555
C4 N3 1_555 1_555
H3 C4 1_555 1_555
C5 N2 1_555 1_555
C6 C5 1_555 1_555
C7 C6 1_555 1_555
H4 C7 1_555 1_555
H5 C7 1_555 1_555
H6 C7 1_555 1_555
Ag1A S1C 1_555 1_555
Ag1B S1 1_555 1_555
Ag1C S1A 1_555 1_555
Ag1D S1A 1_555 1_555
Ag1E S1 1_555 1_555
S1A C1A 1_555 1_555
S1B Ag1 1_555 1_555
S1D Ag1A 1_555 1_555
S1E Ag1 1_555 1_555
C1A N1A 1_555 1_555
N1A Ag1A 1_555 1_555
N2A C2A 1_555 1_555
N3A Ag1A 1_555 1_555
N4A N4 1_555 1_555
C2A H1A 1_555 1_555
C3A N3A 1_555 1_555
H2A C3A 1_555 1_555
C4A N3A 1_555 1_555
H3A C4A 1_555 1_555
C5A N2A 1_555 1_555
C6A N4A 1_555 1_555
C7A C6A 1_555 1_555
H4A C7A 1_555 1_555
H5A C7A 1_555 1_555
H6A C7A 1_555 1_555
C2 C3 1_555 1_555
C4 C5 1_555 1_555
C2A C3A 1_555 1_555
C4A C5A 1_555 1_555
C5A C6A 1_555 1_555

#END
