
#######################################################################
#
#                 Cambridge Crystallographic Data Centre
#                                CCDC 
#
#######################################################################
#
# If this CIF has been generated from an entry in the Cambridge 
# Structural Database, then it will include bibliographic, chemical, 
# crystal, experimental, refinement or atomic coordinate data resulting 
# from the CCDC's data processing and validation procedures.
#
#######################################################################

data_KAWFIX
_symmetry_cell_setting           monoclinic
_symmetry_space_group_name_H-M   'C 2'
_symmetry_Int_Tables_number      5
_space_group_name_Hall           'C 2y'
loop_
_symmetry_equiv_pos_site_id
_symmetry_equiv_pos_as_xyz
1 x,y,z
2 1/2+x,1/2+y,z
3 -x,y,-z
4 1/2-x,1/2+y,-z
_cell_length_a                   23.298(1)
_cell_length_b                   6.532(1)
_cell_length_c                   14.587(2)
_cell_angle_alpha                90
_cell_angle_beta                 118.09(1)
_cell_angle_gamma                90
_cell_volume                     1958.4
loop_
_atom_site_label
_atom_site_type_symbol
_atom_site_fract_x
_atom_site_fract_y
_atom_site_fract_z
Ca1 Ca -0.12124(3) 0.54876 -0.71210(5)
O1 O -0.0727(1) 0.6381(5) -0.5307(2)
O2 O -0.0616(1) 0.8286(5) -0.3982(2)
O3 O -0.2444(1) 1.3269(4) -0.5825(2)
O4 O -0.1864(1) 1.3524(5) -0.6663(2)
O5 O -0.1419(1) 0.2693(5) -0.8296(2)
O6 O -0.0491(1) 0.7134(4) -0.7679(2)
O7 O -0.2060(1) 0.6765(4) -0.8732(2)
O8 O -0.0161(1) 0.3695(5) -0.6231(2)
N1 N -0.1591(2) 0.8874(6) -0.6749(2)
C1 C -0.0801(2) 0.8013(7) -0.4944(3)
C2 C -0.1177(1) 0.9747(5) -0.5707(2)
C3 C -0.1565(2) 1.1008(6) -0.5312(3)
C4 C -0.1982(1) 1.2732(6) -0.6000(2)
H1 H -0.1537 0.9939 -0.7166
H2 H -0.2005 0.8301 -0.6765
H3 H -0.0863 1.0664 -0.5806
H4 H -0.1200 1.1762 -0.4622
H5 H -0.1838 1.0146 -0.4943
H6 H -0.1119 0.1991 -0.8436
H7 H -0.1789 0.2113 -0.8693
H8 H -0.0608 0.8205 -0.8140
H9 H -0.0100 0.7493 -0.7082
H10 H -0.2223 0.6292 -0.9351
H11 H -0.2265 0.7877 -0.8845
H12 H 0.0004 0.3163 -0.6597
H13 H 0.0144 0.4511 -0.5774
O4_2 O -0.1864(1) 0.3524(5) -0.6663(2)
Ca1_2 Ca -0.12124(3) 1.54876 -0.71210(5)
Ca2 Ca -0.12306(3) 0.31470(9) -0.21489(5)
O9 O -0.0739(1) 0.2249(4) -0.0315(2)
O10 O -0.0682(1) 0.0461(5) 0.1015(2)
O11 O -0.2373(1) -0.4206(4) -0.0757(2)
O12 O -0.1956(1) -0.5130(5) -0.1780(2)
O13 O -0.1376(1) 0.6045(5) -0.3260(2)
O14 O -0.0521(1) 0.1368(5) -0.2646(2)
O15 O -0.2162(1) 0.2218(4) -0.3752(2)
O16 O -0.0184(1) 0.4850(5) -0.1250(2)
N2 N -0.1622(2) -0.0236(7) -0.1771(3)
C5 C -0.0913(1) 0.0784(5) 0.0052(3)
C6 C -0.1470(1) -0.0588(5) -0.0686(2)
C7 C -0.1337(2) -0.2845(5) -0.0376(3)
C8 C -0.1932(2) -0.4150(6) -0.1017(3)
H14 H -0.1199 -0.1060 -0.1754
H15 H -0.2084 -0.0539 -0.2223
H16 H -0.1873 -0.0167 -0.0631
H17 H -0.1215 -0.3059 0.0389
H18 H -0.0993 -0.3296 -0.0570
H19 H -0.1171 0.6582 -0.3611
H20 H -0.1713 0.6593 -0.3606
H21 H -0.0617 0.0472 -0.3126
H22 H -0.0082 0.1137 -0.2091
H23 H -0.2230 0.2497 -0.4385
H24 H -0.2269 0.0844 -0.3878
H25 H 0.0007 0.5458 -0.1577
H26 H 0.0115 0.4183 -0.0777
O12_2 O -0.1956(1) 0.4870(5) -0.1780(2)
Ca2_2 Ca -0.12306(3) -0.68530(9) -0.21489(5)
loop_
_geom_bond_atom_site_label_1
_geom_bond_atom_site_label_2
_geom_bond_site_symmetry_1
_geom_bond_site_symmetry_2
Ca1 O1 1_555 1_555
O1 C1 1_555 1_555
O2 C1 1_555 1_555
O3 C4 1_555 1_555
O4 C4 1_555 1_555
O5 Ca1 1_555 1_555
O6 Ca1 1_555 1_555
O7 Ca1 1_555 1_555
O8 Ca1 1_555 1_555
N1 Ca1 1_555 1_555
C1 C2 1_555 1_555
C2 N1 1_555 1_555
C3 C2 1_555 1_555
C4 C3 1_555 1_555
H1 N1 1_555 1_555
H2 N1 1_555 1_555
H3 C2 1_555 1_555
H4 C3 1_555 1_555
H5 C3 1_555 1_555
H6 O5 1_555 1_555
H7 O5 1_555 1_555
H8 O6 1_555 1_555
H9 O6 1_555 1_555
H10 O7 1_555 1_555
H11 O7 1_555 1_555
H12 O8 1_555 1_555
H13 O8 1_555 1_555
Ca2 O9 1_555 1_555
O9 C5 1_555 1_555
O10 C5 1_555 1_555
O11 C8 1_555 1_555
O12 C8 1_555 1_555
O13 Ca2 1_555 1_555
O14 Ca2 1_555 1_555
O15 Ca2 1_555 1_555
O16 Ca2 1_555 1_555
N2 Ca2 1_555 1_555
C5 C6 1_555 1_555
C6 N2 1_555 1_555
C7 C6 1_555 1_555
C8 C7 1_555 1_555
H14 N2 1_555 1_555
H15 N2 1_555 1_555
H16 C6 1_555 1_555
H17 C7 1_555 1_555
H18 C7 1_555 1_555
H19 O13 1_555 1_555
H20 O13 1_555 1_555
H21 O14 1_555 1_555
H22 O14 1_555 1_555
H23 O15 1_555 1_555
H24 O15 1_555 1_555
H25 O16 1_555 1_555
H26 O16 1_555 1_555
O4_2 Ca1 1_555 1_555
Ca1_2 O4 1_555 1_555
O12_2 Ca2 1_555 1_555
Ca2_2 O12 1_555 1_555

#END
