
#######################################################################
#
#                 Cambridge Crystallographic Data Centre
#                                CCDC 
#
#######################################################################
#
# If this CIF has been generated from an entry in the Cambridge 
# Structural Database, then it will include bibliographic, chemical, 
# crystal, experimental, refinement or atomic coordinate data resulting 
# from the CCDC's data processing and validation procedures.
#
#######################################################################

data_KAWFUL
_symmetry_cell_setting           monoclinic
_symmetry_space_group_name_H-M   'C 2'
_symmetry_Int_Tables_number      5
_space_group_name_Hall           'C 2y'
loop_
_symmetry_equiv_pos_site_id
_symmetry_equiv_pos_as_xyz
1 x,y,z
2 -x,y,-z
3 1/2+x,1/2+y,z
4 1/2-x,1/2+y,-z
_cell_length_a                   19.885(4)
_cell_length_b                   4.2080(8)
_cell_length_c                   13.807(3)
_cell_angle_alpha                90
_cell_angle_beta                 100.83(3)
_cell_angle_gamma                90
_cell_volume                     1134.74
loop_
_atom_site_label
_atom_site_type_symbol
_atom_site_fract_x
_atom_site_fract_y
_atom_site_fract_z
I1 I 0.73248(3) 0.1990(2) 0.63340(4)
Cu1 Cu 0.71023(7) 0.1961(9) 0.44328(11)
S1 S 0.57710(16) 0.7882(8) 0.5016(2)
N1 N 0.5060(3) 0.5637(19) 0.3171(5)
C1 C 0.5644(4) 0.486(2) 0.3854(4)
N2 N 0.6132(3) 0.285(2) 0.3588(4)
C2 C 0.6037(3) 0.161(2) 0.2638(5)
H1 H 0.6368 0.0248 0.2458
C3 C 0.5454(4) 0.239(2) 0.1955(4)
H2 H 0.5390 0.1552 0.1313
C4 C 0.4965(3) 0.440(2) 0.2222(5)
C5 C 0.4356(3) 0.567(3) 0.1543(5)
C6 C 0.4328(3) 0.546(2) 0.0531(5)
C7 C 0.3774(4) 0.674(3) -0.0117(4)
H3 H 0.3755 0.6598 -0.0801
C8 C 0.3250(3) 0.824(2) 0.0246(5)
H4 H 0.2876 0.9102 -0.0192
C9 C 0.3278(3) 0.845(2) 0.1258(5)
H5 H 0.2923 0.9457 0.1503
C10 C 0.3831(4) 0.717(3) 0.1906(4)
H6 H 0.3851 0.7309 0.2590
C11 C 0.5000 0.551(5) 0.5000
H7 H 0.5069 0.4160 0.5572
I1A I 0.26752(3) 0.1990(2) 0.36660(4)
I1B I 0.23248(3) -0.3010(2) 0.63340(4)
I1B_2 I 0.23248(3) 0.6990(2) 0.63340(4)
I1C I 0.76752(3) -0.3010(2) 0.36660(4)
I1C_2 I 0.76752(3) 0.6990(2) 0.36660(4)
Cu1A Cu 0.28977(7) 0.1961(9) 0.55672(11)
Cu1B Cu 0.21023(7) -0.3039(9) 0.44328(11)
Cu1B_2 Cu 0.21023(7) 0.6961(9) 0.44328(11)
Cu1C Cu 0.78977(7) -0.3039(9) 0.55672(11)
Cu1C_2 Cu 0.78977(7) 0.6961(9) 0.55672(11)
S1A S 0.42290(16) 0.7882(8) 0.4984(2)
N1A N 0.4940(3) 0.5637(19) 0.6829(5)
C1A C 0.4356(4) 0.486(2) 0.6146(4)
N2A N 0.3868(3) 0.285(2) 0.6412(4)
C2A C 0.3963(3) 0.161(2) 0.7362(5)
H1A H 0.3632 0.0248 0.7542
C3A C 0.4546(4) 0.239(2) 0.8045(4)
H2A H 0.4610 0.1552 0.8687
C4A C 0.5035(3) 0.440(2) 0.7778(5)
C5A C 0.5644(3) 0.567(3) 0.8457(5)
C6A C 0.5672(3) 0.546(2) 0.9469(5)
C7A C 0.6226(4) 0.674(3) 1.0117(4)
H3A H 0.6245 0.6598 1.0801
C8A C 0.6750(3) 0.824(2) 0.9754(5)
H4A H 0.7124 0.9102 1.0192
C9A C 0.6722(3) 0.845(2) 0.8742(5)
H5A H 0.7077 0.9457 0.8497
C10A C 0.6169(4) 0.717(3) 0.8094(4)
H6A H 0.6149 0.7309 0.7410
H7A H 0.4931 0.4160 0.4428
loop_
_geom_bond_atom_site_label_1
_geom_bond_atom_site_label_2
_geom_bond_site_symmetry_1
_geom_bond_site_symmetry_2
I1 Cu1 1_555 1_555
Cu1 N2 1_555 1_555
S1 C1 1_555 1_555
N1 C1 1_555 1_555
C1 N2 1_555 1_555
N2 C2 1_555 1_555
C2 H1 1_555 1_555
C3 C2 1_555 1_555
H2 C3 1_555 1_555
C4 N1 1_555 1_555
C5 C4 1_555 1_555
C6 C5 1_555 1_555
C7 C6 1_555 1_555
H3 C7 1_555 1_555
C8 C7 1_555 1_555
H4 C8 1_555 1_555
C9 C8 1_555 1_555
H5 C9 1_555 1_555
C10 C5 1_555 1_555
H6 C10 1_555 1_555
C11 S1 1_555 1_555
H7 C11 1_555 1_555
I1A Cu1A 1_555 1_555
I1B Cu1A 1_555 1_555
I1B_2 Cu1A 1_555 1_555
I1C Cu1 1_555 1_555
I1C_2 Cu1 1_555 1_555
Cu1A N2A 1_555 1_555
Cu1B I1A 1_555 1_555
Cu1B_2 I1A 1_555 1_555
Cu1C I1 1_555 1_555
Cu1C_2 I1 1_555 1_555
S1A C11 1_555 1_555
N1A C1A 1_555 1_555
C1A S1A 1_555 1_555
N2A C1A 1_555 1_555
C2A N2A 1_555 1_555
H1A C2A 1_555 1_555
C3A C2A 1_555 1_555
H2A C3A 1_555 1_555
C4A N1A 1_555 1_555
C5A C4A 1_555 1_555
C6A C5A 1_555 1_555
C7A C6A 1_555 1_555
H3A C7A 1_555 1_555
C8A C7A 1_555 1_555
H4A C8A 1_555 1_555
C9A C8A 1_555 1_555
H5A C9A 1_555 1_555
C10A C5A 1_555 1_555
H6A C10A 1_555 1_555
H7A C11 1_555 1_555
C3 C4 1_555 1_555
C9 C10 1_555 1_555
I1B Cu1B 1_555 1_555
I1B_2 Cu1B_2 1_555 1_555
I1C Cu1C 1_555 1_555
I1C_2 Cu1C_2 1_555 1_555
C3A C4A 1_555 1_555
C9A C10A 1_555 1_555

#END
