
#######################################################################
#
#                 Cambridge Crystallographic Data Centre
#                                CCDC 
#
#######################################################################
#
# If this CIF has been generated from an entry in the Cambridge 
# Structural Database, then it will include bibliographic, chemical, 
# crystal, experimental, refinement or atomic coordinate data resulting 
# from the CCDC's data processing and validation procedures.
#
#######################################################################

data_KAWGEW
_symmetry_cell_setting           triclinic
_symmetry_space_group_name_H-M   'P -1'
_symmetry_Int_Tables_number      2
_space_group_name_Hall           '-P 1'
loop_
_symmetry_equiv_pos_site_id
_symmetry_equiv_pos_as_xyz
1 x,y,z
2 -x,-y,-z
_cell_length_a                   10.357(2)
_cell_length_b                   11.510(2)
_cell_length_c                   13.130(3)
_cell_angle_alpha                93.44(3)
_cell_angle_beta                 102.57(3)
_cell_angle_gamma                97.87(3)
_cell_volume                     1506.77
loop_
_atom_site_label
_atom_site_type_symbol
_atom_site_fract_x
_atom_site_fract_y
_atom_site_fract_z
Cu1 Cu 0.95234(9) 0.27396(7) 0.28233(7)
Cu2 Cu 0.92034(8) 0.01381(7) 0.19501(6)
Cu3 Cu 1.14522(8) -0.00660(7) 0.03268(5)
I1 I 0.90487(4) 0.09297(3) 0.38060(3)
I2 I 1.02957(4) 0.17448(3) 0.09199(3)
I3 I 0.68234(4) -0.07427(3) 0.07838(3)
N1 N 0.6404(5) 0.4845(4) 0.2337(4)
N2 N 0.7815(6) 0.3387(4) 0.2277(4)
N3 N 1.2711(5) 0.8540(4) 0.3296(4)
N4 N 1.2547(5) 0.9458(4) 0.1694(3)
N5 N 1.1228(6) 0.3779(5) 0.3242(4)
S1 S 0.87227(18) 0.51047(13) 0.37732(11)
S2 S 1.02727(15) 0.84380(12) 0.20556(10)
C1 C 0.7516(7) 0.4404(5) 0.2674(4)
C2 C 0.6874(7) 0.2790(5) 0.1497(5)
H1 H 0.7030 0.2070 0.1206
C3 C 0.5697(7) 0.3173(5) 0.1102(5)
H2 H 0.5038 0.2725 0.0562
C4 C 0.5503(6) 0.4263(5) 0.1532(4)
C5 C 0.4272(7) 0.4806(5) 0.1140(5)
C6 C 0.3147(7) 0.4155(6) 0.0478(6)
H3 H 0.3153 0.3360 0.0270
C7 C 0.2008(8) 0.4661(7) 0.0115(7)
H4 H 0.1252 0.4221 -0.0345
C8 C 0.2010(8) 0.5834(8) 0.0448(7)
H5 H 0.1234 0.6180 0.0242
C9 C 0.3144(10) 0.6483(7) 0.1076(7)
H6 H 0.3152 0.7285 0.1265
C10 C 0.4267(8) 0.5980(6) 0.1434(6)
H7 H 0.5030 0.6432 0.1876
C11 C 0.8193(7) 0.6536(5) 0.3898(4)
H8 H 0.7229 0.6422 0.3863
H9 H 0.8649 0.6937 0.4588
C12 C 0.8484(6) 0.7322(5) 0.3057(4)
H10 H 0.8035 0.8015 0.3090
H11 H 0.8122 0.6890 0.2365
C13 C 0.9987(6) 0.7723(5) 0.3196(4)
H12 H 1.0462 0.7042 0.3277
H13 H 1.0328 0.8272 0.3828
C14 C 1.2035(6) 0.8861(5) 0.2413(4)
C15 C 1.3867(6) 0.9730(5) 0.1938(5)
H14 H 1.4280 1.0147 0.1471
C16 C 1.4679(6) 0.9434(5) 0.2844(4)
H15 H 1.5616 0.9630 0.2983
C17 C 1.4053(6) 0.8839(5) 0.3536(4)
C18 C 1.4795(6) 0.8499(5) 0.4551(4)
C19 C 1.6176(7) 0.8673(6) 0.4834(5)
H16 H 1.6674 0.9004 0.4375
C20 C 1.6831(7) 0.8362(6) 0.5790(5)
H17 H 1.7772 0.8494 0.5984
C21 C 1.6104(7) 0.7857(6) 0.6461(5)
H18 H 1.6552 0.7622 0.7099
C22 C 1.4746(7) 0.7700(6) 0.6201(5)
H19 H 1.4259 0.7380 0.6672
C23 C 1.4068(7) 0.8008(5) 0.5245(4)
H20 H 1.3127 0.7887 0.5065
C24 C 1.2200(8) 0.4436(6) 0.3496(5)
C25 C 1.3383(11) 0.5259(8) 0.3826(8)
H21 H 1.3722 0.5254 0.4575
H22 H 1.3191 0.6039 0.3671
H23 H 1.4048 0.5050 0.3460
Cu2_2 Cu 0.92034(8) 1.01381(7) 0.19501(6)
Cu3A Cu 0.85478(8) 0.00660(7) -0.03268(5)
Cu3_2 Cu 1.14522(8) 0.99340(7) 0.03268(5)
I2A I 0.97043(4) -0.17448(3) -0.09199(3)
I3A I 1.31766(4) 0.07427(3) -0.07838(3)
N4_2 N 1.2547(5) -0.0542(4) 0.1694(3)
S2_2 S 1.02727(15) -0.15620(12) 0.20556(10)
loop_
_geom_bond_atom_site_label_1
_geom_bond_atom_site_label_2
_geom_bond_site_symmetry_1
_geom_bond_site_symmetry_2
Cu1 I1 1_555 1_555
Cu2 I1 1_555 1_555
Cu3 I2 1_555 1_555
I2 Cu1 1_555 1_555
I3 Cu2 1_555 1_555
N1 C1 1_555 1_555
N2 Cu1 1_555 1_555
N3 C14 1_555 1_555
N4 C14 1_555 1_555
N5 Cu1 1_555 1_555
S1 C1 1_555 1_555
S2 C13 1_555 1_555
C1 N2 1_555 1_555
C2 N2 1_555 1_555
H1 C2 1_555 1_555
C3 C2 1_555 1_555
H2 C3 1_555 1_555
C4 N1 1_555 1_555
C5 C4 1_555 1_555
C6 C5 1_555 1_555
H3 C6 1_555 1_555
C7 C6 1_555 1_555
H4 C7 1_555 1_555
C8 C7 1_555 1_555
H5 C8 1_555 1_555
C9 C8 1_555 1_555
H6 C9 1_555 1_555
C10 C5 1_555 1_555
H7 C10 1_555 1_555
C11 S1 1_555 1_555
H8 C11 1_555 1_555
H9 C11 1_555 1_555
C12 C11 1_555 1_555
H10 C12 1_555 1_555
H11 C12 1_555 1_555
C13 C12 1_555 1_555
H12 C13 1_555 1_555
H13 C13 1_555 1_555
C14 S2 1_555 1_555
C15 N4 1_555 1_555
H14 C15 1_555 1_555
C16 C15 1_555 1_555
H15 C16 1_555 1_555
C17 N3 1_555 1_555
C18 C17 1_555 1_555
C19 C18 1_555 1_555
H16 C19 1_555 1_555
C20 C19 1_555 1_555
H17 C20 1_555 1_555
C21 C20 1_555 1_555
H18 C21 1_555 1_555
C22 C21 1_555 1_555
H19 C22 1_555 1_555
C23 C18 1_555 1_555
H20 C23 1_555 1_555
C24 N5 1_555 1_555
C25 C24 1_555 1_555
H21 C25 1_555 1_555
H22 C25 1_555 1_555
H23 C25 1_555 1_555
Cu2_2 S2 1_555 1_555
Cu3A I2 1_555 1_555
Cu3_2 N4 1_555 1_555
I2A Cu3 1_555 1_555
I3A Cu3 1_555 1_555
N4_2 Cu3 1_555 1_555
S2_2 Cu2 1_555 1_555
Cu2 I2 1_555 1_555
I3 Cu3A 1_555 1_555
C3 C4 1_555 1_555
C9 C10 1_555 1_555
C16 C17 1_555 1_555
C22 C23 1_555 1_555
Cu3A I2A 1_555 1_555

#END
