
#######################################################################
#
#                 Cambridge Crystallographic Data Centre
#                                CCDC 
#
#######################################################################
#
# If this CIF has been generated from an entry in the Cambridge 
# Structural Database, then it will include bibliographic, chemical, 
# crystal, experimental, refinement or atomic coordinate data resulting 
# from the CCDC's data processing and validation procedures.
#
#######################################################################

data_KAWGAS
_symmetry_cell_setting           triclinic
_symmetry_space_group_name_H-M   'P -1'
_symmetry_Int_Tables_number      2
_space_group_name_Hall           '-P 1'
loop_
_symmetry_equiv_pos_site_id
_symmetry_equiv_pos_as_xyz
1 x,y,z
2 -x,-y,-z
_cell_length_a                   7.6628(15)
_cell_length_b                   8.3550(17)
_cell_length_c                   11.668(2)
_cell_angle_alpha                95.20(3)
_cell_angle_beta                 102.55(3)
_cell_angle_gamma                93.44(3)
_cell_volume                     723.723
loop_
_atom_site_label
_atom_site_type_symbol
_atom_site_fract_x
_atom_site_fract_y
_atom_site_fract_z
Cu1 Cu -0.14203(10) 1.04268(9) 0.03832(7)
Cu2 Cu -0.45862(10) 0.86937(9) -0.08789(7)
I1 I -0.34583(5) 0.87508(4) 0.14171(4)
I2 I 0.18014(5) 1.07429(5) 0.18703(4)
N1 N -0.1118(6) 1.4914(5) 0.2207(5)
N2 N -0.3936(6) 1.3343(6) 0.1765(5)
C1 C -0.2384(7) 1.3883(6) 0.1525(5)
C2 C -0.4245(8) 1.4043(7) 0.2766(6)
H1 H -0.5344 1.3764 0.2960
C3 C -0.3043(9) 1.5153(7) 0.3533(6)
H2 H -0.3307 1.5622 0.4232
C4 C -0.1427(8) 1.5552(7) 0.3233(5)
C5 C 0.0039(8) 1.6651(7) 0.3990(6)
C6 C -0.0147(9) 1.7507(7) 0.5035(6)
H3 H -0.1239 1.7389 0.5273
C7 C 0.1228(10) 1.8510(8) 0.5715(7)
H4 H 0.1073 1.9080 0.6414
C8 C 0.2841(10) 1.8696(8) 0.5389(6)
H5 H 0.3779 1.9393 0.5868
C9 C 0.3095(10) 1.7888(9) 0.4388(7)
H6 H 0.4206 1.8014 0.4176
C10 C 0.1659(9) 1.6840(8) 0.3656(6)
H7 H 0.1815 1.6285 0.2952
C11 C 0.0090(8) 1.4127(6) 0.0120(6)
H8 H 0.0918 1.4089 0.0884
H9 H 0.0596 1.3565 -0.0491
S1 S -0.20491(19) 1.31108(16) 0.01346(14)
Cu1A Cu 0.14203(10) 0.95732(9) -0.03832(7)
Cu1A_2 Cu 0.14203(10) 1.95732(9) -0.03832(7)
Cu1A_3 Cu -0.85797(10) 0.95732(9) -0.03832(7)
Cu2A Cu -0.54138(10) 1.13063(9) 0.08789(7)
Cu2A_2 Cu 0.45862(10) 1.13063(9) 0.08789(7)
Cu2_2 Cu 0.54138(10) 1.86937(9) -0.08789(7)
I1A I -0.65417(5) 1.12492(4) -0.14171(4)
I1A_2 I 0.34583(5) 1.12492(4) -0.14171(4)
I2A I -0.18014(5) 0.92571(5) -0.18703(4)
I2_2 I -0.81986(5) 1.07429(5) 0.18703(4)
N1A N 0.1118(6) 1.5086(5) -0.2207(5)
N2A N 0.3936(6) 1.6657(6) -0.1765(5)
N2A_2 N -0.6064(6) 0.6657(6) -0.1765(5)
C1A C 0.2384(7) 1.6117(6) -0.1525(5)
C2A C 0.4245(8) 1.5957(7) -0.2766(6)
H1A H 0.5344 1.6236 -0.2960
C3A C 0.3043(9) 1.4847(7) -0.3533(6)
H2A H 0.3307 1.4378 -0.4232
C4A C 0.1427(8) 1.4448(7) -0.3233(5)
C5A C -0.0039(8) 1.3349(7) -0.3990(6)
C6A C 0.0147(9) 1.2493(7) -0.5035(6)
H3A H 0.1239 1.2611 -0.5273
C7A C -0.1228(10) 1.1490(8) -0.5715(7)
H4A H -0.1073 1.0920 -0.6414
C8A C -0.2841(10) 1.1304(8) -0.5389(6)
H5A H -0.3779 1.0607 -0.5868
C9A C -0.3095(10) 1.2112(9) -0.4388(7)
H6A H -0.4206 1.1986 -0.4176
C10A C -0.1659(9) 1.3160(8) -0.3656(6)
H7A H -0.1815 1.3715 -0.2952
C11A C -0.0090(8) 1.5873(6) -0.0120(6)
H8A H -0.0918 1.5911 -0.0884
H9A H -0.0596 1.6435 0.0491
S1A S 0.20491(19) 1.68892(16) -0.01346(14)
S1A_2 S 0.20491(19) 0.68892(16) -0.01346(14)
loop_
_geom_bond_atom_site_label_1
_geom_bond_atom_site_label_2
_geom_bond_site_symmetry_1
_geom_bond_site_symmetry_2
Cu1 I1 1_555 1_555
Cu2 I1 1_555 1_555
I1 Cu2A 1_555 1_555
I2 Cu1 1_555 1_555
N1 C1 1_555 1_555
N2 C1 1_555 1_555
C1 S1 1_555 1_555
C2 N2 1_555 1_555
H1 C2 1_555 1_555
C3 C2 1_555 1_555
H2 C3 1_555 1_555
C4 N1 1_555 1_555
C5 C4 1_555 1_555
C6 C5 1_555 1_555
H3 C6 1_555 1_555
C7 C6 1_555 1_555
H4 C7 1_555 1_555
C8 C7 1_555 1_555
H5 C8 1_555 1_555
C9 C8 1_555 1_555
H6 C9 1_555 1_555
C10 C5 1_555 1_555
H7 C10 1_555 1_555
C11 H8 1_555 1_555
H9 C11 1_555 1_555
S1 Cu1 1_555 1_555
Cu1A I2 1_555 1_555
Cu1A_2 S1A 1_555 1_555
Cu1A_3 I1A 1_555 1_555
Cu2A N2 1_555 1_555
Cu2A_2 I2 1_555 1_555
Cu2_2 N2A 1_555 1_555
I1A Cu2 1_555 1_555
I1A_2 Cu1A 1_555 1_555
I2A Cu1 1_555 1_555
I2_2 Cu1A_3 1_555 1_555
N1A C1A 1_555 1_555
N2A C1A 1_555 1_555
N2A_2 Cu2 1_555 1_555
C1A S1A 1_555 1_555
C2A N2A 1_555 1_555
H1A C2A 1_555 1_555
C3A C2A 1_555 1_555
H2A C3A 1_555 1_555
C4A N1A 1_555 1_555
C5A C4A 1_555 1_555
C6A C5A 1_555 1_555
H3A C6A 1_555 1_555
C7A C6A 1_555 1_555
H4A C7A 1_555 1_555
C8A C7A 1_555 1_555
H5A C8A 1_555 1_555
C9A C8A 1_555 1_555
H6A C9A 1_555 1_555
C10A C5A 1_555 1_555
H7A C10A 1_555 1_555
C11A C11 1_555 1_555
H8A C11A 1_555 1_555
H9A C11A 1_555 1_555
S1A C11A 1_555 1_555
S1A_2 Cu1A 1_555 1_555
Cu2 I2A 1_555 1_555
C3 C4 1_555 1_555
C9 C10 1_555 1_555
C11 S1 1_555 1_555
Cu1A I2A 1_555 1_555
Cu2A I1A 1_555 1_555
Cu2A I2_2 1_555 1_555
Cu2A_2 I1A_2 1_555 1_555
C3A C4A 1_555 1_555
C9A C10A 1_555 1_555

#END
