
#######################################################################
#
#                 Cambridge Crystallographic Data Centre
#                                CCDC 
#
#######################################################################
#
# If this CIF has been generated from an entry in the Cambridge 
# Structural Database, then it will include bibliographic, chemical, 
# crystal, experimental, refinement or atomic coordinate data resulting 
# from the CCDC's data processing and validation procedures.
#
#######################################################################

data_KAWGIA
_symmetry_cell_setting           triclinic
_symmetry_space_group_name_H-M   'P -1'
_symmetry_Int_Tables_number      2
_space_group_name_Hall           '-P 1'
loop_
_symmetry_equiv_pos_site_id
_symmetry_equiv_pos_as_xyz
1 x,y,z
2 -x,-y,-z
_cell_length_a                   7.7834(16)
_cell_length_b                   9.768(2)
_cell_length_c                   11.779(2)
_cell_angle_alpha                110.16(3)
_cell_angle_beta                 91.73(3)
_cell_angle_gamma                109.35(3)
_cell_volume                     782.573
loop_
_atom_site_label
_atom_site_type_symbol
_atom_site_fract_x
_atom_site_fract_y
_atom_site_fract_z
Cu1 Cu 0.35579(7) 0.53088(6) 0.46503(4)
I1 I 0.30355(4) 0.31510(3) 0.56040(2)
N1 N 0.0965(4) 0.2852(4) 0.0849(2)
N2 N 0.1757(4) 0.4364(4) 0.3007(2)
N3 N 0.2712(5) 0.7055(4) 0.5676(3)
S1 S 0.36883(15) 0.26310(13) 0.21152(8)
C1 C 0.1949(5) 0.3346(4) 0.1943(3)
C2 C 0.0364(5) 0.4852(5) 0.2912(3)
H1 H 0.0142 0.5539 0.3625
C3 C -0.0757(5) 0.4401(5) 0.1827(3)
H2 H -0.1740 0.4751 0.1796
C4 C -0.0392(5) 0.3409(4) 0.0772(3)
C5 C -0.1440(5) 0.2901(4) -0.0471(3)
C6 C -0.2834(5) 0.3435(5) -0.0654(3)
H3 H -0.3115 0.4144 0.0015
C7 C -0.3811(6) 0.2925(5) -0.1817(3)
H4 H -0.4745 0.3297 -0.1934
C8 C -0.3418(6) 0.1876(5) -0.2804(3)
H5 H -0.4090 0.1526 -0.3591
C9 C -0.2038(6) 0.1343(5) -0.2631(3)
H6 H -0.1772 0.0625 -0.3303
C10 C -0.1040(6) 0.1858(5) -0.1476(3)
H7 H -0.0087 0.1501 -0.1369
C11 C 0.3498(5) 0.1261(5) 0.0578(3)
H8 H 0.2265 0.0441 0.0311
H9 H 0.3716 0.1800 0.0003
C12 C 0.4967(5) 0.0551(4) 0.0632(3)
H10 H 0.6177 0.1394 0.0967
H11 H 0.4695 -0.0024 0.1181
C13 C 0.2206(6) 0.8027(5) 0.6175(3)
C14 C 0.1555(7) 0.9269(6) 0.6826(4)
H12 H 0.0217 0.8875 0.6660
H13 H 0.2046 1.0133 0.6553
H14 H 0.1968 0.9630 0.7699
Cu1A Cu 0.64421(7) 0.46912(6) 0.53497(4)
Cu1A_2 Cu 0.64421(7) -0.53088(6) -0.46503(4)
I1A I 0.69645(4) 0.68490(3) 0.43960(2)
N1A N 0.9035(4) -0.2852(4) -0.0849(2)
N2A N 0.8243(4) -0.4364(4) -0.3007(2)
N2A_2 N 0.8243(4) 0.5636(4) 0.6993(2)
N3A N 0.7288(5) 0.2945(4) 0.4324(3)
S1A S 0.63117(15) -0.26310(13) -0.21152(8)
C1A C 0.8051(5) -0.3346(4) -0.1943(3)
C2A C 0.9636(5) -0.4852(5) -0.2912(3)
H1A H 0.9858 -0.5539 -0.3625
C3A C 1.0757(5) -0.4401(5) -0.1827(3)
H2A H 1.1740 -0.4751 -0.1796
C4A C 1.0392(5) -0.3409(4) -0.0772(3)
C5A C 1.1440(5) -0.2901(4) 0.0471(3)
C6A C 1.2834(5) -0.3435(5) 0.0654(3)
H3A H 1.3115 -0.4144 -0.0015
C7A C 1.3811(6) -0.2925(5) 0.1817(3)
H4A H 1.4745 -0.3297 0.1934
C8A C 1.3418(6) -0.1876(5) 0.2804(3)
H5A H 1.4090 -0.1526 0.3591
C9A C 1.2038(6) -0.1343(5) 0.2631(3)
H6A H 1.1772 -0.0625 0.3303
C10A C 1.1040(6) -0.1858(5) 0.1476(3)
H7A H 1.0087 -0.1501 0.1369
C11A C 0.6502(5) -0.1261(5) -0.0578(3)
H8A H 0.7735 -0.0441 -0.0311
H9A H 0.6284 -0.1800 -0.0003
C12A C 0.5033(5) -0.0551(4) -0.0632(3)
H10A H 0.3823 -0.1394 -0.0967
H11A H 0.5305 0.0024 -0.1181
C13A C 0.7794(6) 0.1973(5) 0.3825(3)
C14A C 0.8445(7) 0.0731(6) 0.3174(4)
H12A H 0.9783 0.1125 0.3340
H13A H 0.7954 -0.0133 0.3447
H14A H 0.8032 0.0370 0.2301
loop_
_geom_bond_atom_site_label_1
_geom_bond_atom_site_label_2
_geom_bond_site_symmetry_1
_geom_bond_site_symmetry_2
Cu1 I1 1_555 1_555
I1 Cu1A 1_555 1_555
N1 C1 1_555 1_555
N2 Cu1 1_555 1_555
N3 Cu1 1_555 1_555
S1 C1 1_555 1_555
C1 N2 1_555 1_555
C2 N2 1_555 1_555
H1 C2 1_555 1_555
C3 C2 1_555 1_555
H2 C3 1_555 1_555
C4 N1 1_555 1_555
C5 C4 1_555 1_555
C6 C5 1_555 1_555
H3 C6 1_555 1_555
C7 C6 1_555 1_555
H4 C7 1_555 1_555
C8 C7 1_555 1_555
H5 C8 1_555 1_555
C9 C8 1_555 1_555
H6 C9 1_555 1_555
C10 C5 1_555 1_555
H7 C10 1_555 1_555
C11 S1 1_555 1_555
H8 C11 1_555 1_555
H9 C11 1_555 1_555
C12 C11 1_555 1_555
H10 C12 1_555 1_555
H11 C12 1_555 1_555
C13 N3 1_555 1_555
C14 C13 1_555 1_555
H12 C14 1_555 1_555
H13 C14 1_555 1_555
H14 C14 1_555 1_555
Cu1A I1A 1_555 1_555
Cu1A_2 N2A 1_555 1_555
I1A Cu1 1_555 1_555
N1A C1A 1_555 1_555
N2A C1A 1_555 1_555
N2A_2 Cu1A 1_555 1_555
N3A Cu1A 1_555 1_555
S1A C1A 1_555 1_555
C2A N2A 1_555 1_555
H1A C2A 1_555 1_555
C3A C2A 1_555 1_555
H2A C3A 1_555 1_555
C4A N1A 1_555 1_555
C5A C4A 1_555 1_555
C6A C5A 1_555 1_555
H3A C6A 1_555 1_555
C7A C6A 1_555 1_555
H4A C7A 1_555 1_555
C8A C7A 1_555 1_555
H5A C8A 1_555 1_555
C9A C8A 1_555 1_555
H6A C9A 1_555 1_555
C10A C5A 1_555 1_555
H7A C10A 1_555 1_555
C11A S1A 1_555 1_555
H8A C11A 1_555 1_555
H9A C11A 1_555 1_555
C12A C12 1_555 1_555
H10A C12A 1_555 1_555
H11A C12A 1_555 1_555
C13A N3A 1_555 1_555
C14A C13A 1_555 1_555
H12A C14A 1_555 1_555
H13A C14A 1_555 1_555
H14A C14A 1_555 1_555
C3 C4 1_555 1_555
C9 C10 1_555 1_555
C3A C4A 1_555 1_555
C9A C10A 1_555 1_555
C11A C12A 1_555 1_555

#END
