
#######################################################################
#
#                 Cambridge Crystallographic Data Centre
#                                CCDC 
#
#######################################################################
#
# If this CIF has been generated from an entry in the Cambridge 
# Structural Database, then it will include bibliographic, chemical, 
# crystal, experimental, refinement or atomic coordinate data resulting 
# from the CCDC's data processing and validation procedures.
#
#######################################################################

data_KAWHEW01
_symmetry_cell_setting           monoclinic
_symmetry_space_group_name_H-M   'P c'
_symmetry_Int_Tables_number      7
_space_group_name_Hall           'P -2yc'
loop_
_symmetry_equiv_pos_site_id
_symmetry_equiv_pos_as_xyz
1 x,y,z
2 x,-y,1/2+z
_cell_length_a                   8.1162(2)
_cell_length_b                   11.4395(6)
_cell_length_c                   16.8733(4)
_cell_angle_alpha                90
_cell_angle_beta                 94.120(2)
_cell_angle_gamma                90
_cell_volume                     1562.56
loop_
_atom_site_label
_atom_site_type_symbol
_atom_site_fract_x
_atom_site_fract_y
_atom_site_fract_z
Co1 Co 0.18128(7) 0.45828(19) 0.27199(4)
Co2 Co 0.78935(7) 0.95889(18) 0.44462(4)
O1 O 0.5696(9) 1.0461(10) 0.4693(5)
O2 O 0.4027(10) 0.5446(9) 0.2464(5)
N1 N 0.0821(11) 0.4823(10) 0.1522(5)
O3 O 0.6838(10) 0.9139(10) 0.3330(5)
N2 N 0.8896(10) 0.9813(11) 0.5636(5)
O4 O 0.2876(9) 1.4148(9) 0.3835(5)
O5 O -0.0458(10) 0.3676(10) 0.2902(5)
O6 O 1.0119(9) 0.8659(9) 0.4247(5)
O7 O 0.8426(10) 0.7647(13) 0.3079(5)
O8 O 0.1296(10) 1.2576(12) 0.4045(5)
C1 C 0.7523(14) 0.7973(14) 0.5802(7)
C2 C 0.2224(14) 0.2983(14) 0.1360(7)
O9 O 0.8753(10) 1.1130(11) 0.3978(5)
O10 O 0.0966(10) 0.6123(10) 0.3201(5)
C3 C 0.3640(16) 0.2237(16) 0.2458(8)
C4 C 0.6014(14) 0.7267(14) 0.4667(7)
N3 N 0.7018(11) 0.8062(11) 0.5029(5)
C5 C 0.0483(15) 0.4001(15) 0.0229(7)
C6 C 0.8534(14) 0.8953(14) 0.6145(7)
O11 O 0.3472(11) 0.7320(10) 0.2720(6)
O12 O 0.6190(12) 1.2325(12) 0.4442(7)
C7 C 0.3866(16) 1.1872(16) 0.5173(7)
C8 C 0.9129(14) 0.8936(15) 0.6951(7)
C9 C 0.7264(15) 0.8293(14) 0.2889(7)
C10 C 0.1133(14) 0.3938(14) 0.1024(7)
C11 C 0.2423(15) 1.3336(15) 0.4247(8)
C12 C 1.0536(15) 1.0790(16) 0.6692(8)
C13 C 0.5806(14) 0.6857(13) 0.1971(6)
N4 N 0.2693(10) 0.3120(12) 0.2142(5)
C14 C -0.0834(17) 0.5713(18) 0.0492(8)
C15 C 0.2676(12) 0.2015(10) 0.0904(6)
C16 C 0.7018(17) 0.7047(15) 0.6247(8)
C17 C 0.5510(17) 0.6289(15) 0.5099(9)
C18 C 1.0219(15) 0.9897(18) 0.7188(7)
C19 C 0.4221(15) 0.1309(14) 0.2076(7)
C20 C -0.0437(15) 0.4859(15) -0.0051(7)
C21 C 0.4304(16) 0.6492(17) 0.2418(8)
C22 C 0.5363(13) 1.1543(14) 0.4719(6)
C23 C 0.6336(15) 0.8117(14) 0.2100(6)
C24 C 0.3340(16) 1.3148(16) 0.5071(8)
C25 C 0.9853(14) 1.0686(14) 0.5904(8)
C26 C -0.0159(15) 0.5684(16) 0.1258(8)
C27 C 0.3678(19) 0.1169(18) 0.1270(9)
C28 C 0.5994(14) 0.6182(13) 0.5887(7)
H1 H 0.432(6) 1.179(6) 0.571(3)
H2 H 0.464(7) 0.580(7) 0.469(4)
H3 H 0.570(8) 0.638(7) 0.142(4)
H4 H -0.032(6) 0.636(6) 0.151(3)
H5 H 0.083(5) 0.331(5) -0.014(2)
H6 H 0.561(6) 0.551(6) 0.628(3)
H7 H 0.537(6) 0.879(6) 0.209(3)
H8 H 0.285(6) 1.133(5) 0.501(3)
H9 H 0.378(8) 0.220(8) 0.290(4)
H10 H 0.566(6) 0.748(6) 0.411(3)
H11 H 1.099(6) 0.874(6) 0.406(3)
H12 H 0.717(7) 0.682(6) 0.678(3)
H13 H 1.054(6) 0.997(6) 0.781(3)
H14 H -0.005(6) 0.333(5) 0.326(3)
H15 H 0.686(6) 0.828(5) 0.173(3)
H16 H 1.141(6) 1.147(5) 0.687(3)
H17 H -0.112(9) 0.615(8) 0.041(4)
H18 H 0.957(7) 1.191(7) 0.420(3)
H19 H -0.003(6) 0.616(5) 0.310(3)
H20 H 0.789(5) 1.192(5) 0.398(3)
H21 H 0.170(5) 0.632(5) 0.284(3)
H22 H 1.010(7) 1.113(7) 0.535(4)
H23 H 0.437(8) 1.339(7) 0.526(4)
H24 H 0.224(6) 1.326(5) 0.552(3)
H25 H 0.626(9) 0.616(9) 0.215(4)
H26 H 0.484(10) 0.077(9) 0.224(5)
H27 H -0.107(8) 0.468(7) -0.041(4)
H28 H 0.193(6) 0.182(5) 0.042(3)
H29 H 0.398(12) 0.075(10) 0.110(5)
H30 H -0.162(8) 0.442(8) 0.304(4)
Co1_2 Co 0.18128(7) 1.45828(19) 0.27199(4)
O4_2 O 0.2876(9) 0.4148(9) 0.3835(5)
O13 O 1.3076(11) 0.9388(12) 0.3713(6)
H31 H 1.392(8) 0.995(8) 0.393(4)
H32 H 1.311(7) 0.883(6) 0.356(4)
O14 O -0.3397(11) 0.4305(12) 0.3423(7)
H33 H -0.393(6) 0.366(5) 0.384(3)
H34 H -0.422(8) 0.430(7) 0.316(3)
loop_
_geom_bond_atom_site_label_1
_geom_bond_atom_site_label_2
_geom_bond_site_symmetry_1
_geom_bond_site_symmetry_2
Co1 O2 1_555 1_555
Co2 O1 1_555 1_555
O1 C22 1_555 1_555
O2 C21 1_555 1_555
N1 Co1 1_555 1_555
O3 Co2 1_555 1_555
N2 Co2 1_555 1_555
O4 C11 1_555 1_555
O5 Co1 1_555 1_555
O6 Co2 1_555 1_555
O7 C9 1_555 1_555
O8 C11 1_555 1_555
C1 N3 1_555 1_555
C2 C10 1_555 1_555
O9 Co2 1_555 1_555
O10 Co1 1_555 1_555
C3 N4 1_555 1_555
C4 N3 1_555 1_555
N3 Co2 1_555 1_555
C5 C10 1_555 1_555
C6 N2 1_555 1_555
O11 C21 1_555 1_555
O12 C22 1_555 1_555
C7 C22 1_555 1_555
C8 C6 1_555 1_555
C9 O3 1_555 1_555
C10 N1 1_555 1_555
C11 C24 1_555 1_555
C12 C18 1_555 1_555
C13 C21 1_555 1_555
N4 Co1 1_555 1_555
C14 C20 1_555 1_555
C15 C2 1_555 1_555
C16 C1 1_555 1_555
C17 C4 1_555 1_555
C18 C8 1_555 1_555
C19 C3 1_555 1_555
C20 C5 1_555 1_555
C23 C9 1_555 1_555
C24 C7 1_555 1_555
C25 N2 1_555 1_555
C26 N1 1_555 1_555
C27 C15 1_555 1_555
C28 C16 1_555 1_555
H1 C7 1_555 1_555
H2 C17 1_555 1_555
H3 C13 1_555 1_555
H4 C26 1_555 1_555
H5 C5 1_555 1_555
H6 C28 1_555 1_555
H7 C23 1_555 1_555
H8 C7 1_555 1_555
H9 C3 1_555 1_555
H10 C4 1_555 1_555
H11 O6 1_555 1_555
H12 C16 1_555 1_555
H13 C18 1_555 1_555
H14 O5 1_555 1_555
H15 C23 1_555 1_555
H16 C12 1_555 1_555
H17 C14 1_555 1_555
H18 O9 1_555 1_555
H19 O10 1_555 1_555
H20 O9 1_555 1_555
H21 O10 1_555 1_555
H22 C25 1_555 1_555
H23 C24 1_555 1_555
H24 C24 1_555 1_555
H25 C13 1_555 1_555
H26 C19 1_555 1_555
H27 C20 1_555 1_555
H28 C15 1_555 1_555
H29 C27 1_555 1_555
H30 O5 1_555 1_555
O13 H31 1_555 1_555
H32 O13 1_555 1_555
O14 H33 1_555 1_555
H34 O14 1_555 1_555
Co1_2 O4 1_555 1_555
O4_2 Co1 1_555 1_555
C1 C6 1_555 1_555
C2 N4 1_555 1_555
C12 C25 1_555 1_555
C13 C23 1_555 1_555
C14 C26 1_555 1_555
C17 C28 1_555 1_555
C19 C27 1_555 1_555

#END
