
#######################################################################
#
#                 Cambridge Crystallographic Data Centre
#                                CCDC 
#
#######################################################################
#
# If this CIF has been generated from an entry in the Cambridge 
# Structural Database, then it will include bibliographic, chemical, 
# crystal, experimental, refinement or atomic coordinate data resulting 
# from the CCDC's data processing and validation procedures.
#
#######################################################################

data_KAWHIA
_symmetry_cell_setting           triclinic
_symmetry_space_group_name_H-M   'P -1'
_symmetry_Int_Tables_number      2
_space_group_name_Hall           '-P 1'
loop_
_symmetry_equiv_pos_site_id
_symmetry_equiv_pos_as_xyz
1 x,y,z
2 -x,-y,-z
_cell_length_a                   7.4798(4)
_cell_length_b                   10.2092(6)
_cell_length_c                   10.5362(6)
_cell_angle_alpha                97.5330(10)
_cell_angle_beta                 106.6750(10)
_cell_angle_gamma                100.8370(10)
_cell_volume                     742.209
loop_
_atom_site_label
_atom_site_type_symbol
_atom_site_fract_x
_atom_site_fract_y
_atom_site_fract_z
Ni1 Ni 0.28717(4) 0.30897(3) 0.78993(3)
C1 C -0.0472(4) 0.4337(3) 0.7206(3)
C2 C -0.2057(4) 0.4675(3) 0.6118(3)
H1 H -0.2865 0.3838 0.5518
H2 H -0.1481 0.5223 0.5588
C3 C -0.3307(4) 0.5442(2) 0.6695(3)
H3 H -0.2488 0.6142 0.7463
H4 H -0.3989 0.5886 0.6015
C4 C -0.4752(3) 0.4515(2) 0.7137(2)
C5 C -0.0719(4) 0.0736(3) 0.6505(3)
H5 H -0.1431 0.1392 0.6398
C6 C -0.1649(4) -0.0621(3) 0.5943(3)
H6 H -0.2961 -0.0861 0.5478
C7 C -0.0630(5) -0.1595(3) 0.6075(3)
H7 H -0.1231 -0.2497 0.5667
C8 C 0.1347(4) -0.1232(3) 0.6834(3)
C9 C 0.2531(5) -0.2183(3) 0.7071(3)
H8 H 0.1998 -0.3103 0.6708
C10 C 0.4408(5) -0.1767(3) 0.7812(3)
H9 H 0.5139 -0.2409 0.7960
C11 C 0.5304(4) -0.0350(3) 0.8379(3)
C12 C 0.7243(5) 0.0147(3) 0.9173(3)
H10 H 0.8040 -0.0449 0.9363
C13 C 0.7944(4) 0.1511(3) 0.9663(3)
H11 H 0.9229 0.1852 1.0180
C14 C 0.6724(4) 0.2397(3) 0.9385(3)
H12 H 0.7224 0.3323 0.9730
C15 C 0.4176(4) 0.0602(3) 0.8156(3)
C16 C 0.2168(4) 0.0160(3) 0.7378(3)
N1 N 0.1161(3) 0.1129(2) 0.7196(2)
N2 N 0.4879(3) 0.1966(2) 0.8648(2)
O1 O 0.0761(3) 0.38603(19) 0.67964(19)
O2 O -0.0497(3) 0.4514(3) 0.8384(2)
O3 O -0.5696(3) 0.33832(17) 0.64007(17)
O4 O -0.5047(3) 0.49041(17) 0.82438(18)
O5 O 0.2192(3) 0.33776(19) 0.96494(19)
H13 H 0.314(3) 0.384(2) 1.032(2)
H14 H 0.139(3) 0.387(2) 0.943(3)
Ni1_2 Ni -0.71283(4) 0.30897(3) 0.78993(3)
O3_2 O 0.4304(3) 0.33832(17) 0.64007(17)
O4_2 O 0.4953(3) 0.49041(17) 0.82438(18)
loop_
_geom_bond_atom_site_label_1
_geom_bond_atom_site_label_2
_geom_bond_site_symmetry_1
_geom_bond_site_symmetry_2
Ni1 N1 1_555 1_555
C1 C2 1_555 1_555
C2 H1 1_555 1_555
H2 C2 1_555 1_555
C3 C2 1_555 1_555
H3 C3 1_555 1_555
H4 C3 1_555 1_555
C4 C3 1_555 1_555
C5 H5 1_555 1_555
C6 C5 1_555 1_555
H6 C6 1_555 1_555
C7 C6 1_555 1_555
H7 C7 1_555 1_555
C8 C7 1_555 1_555
C9 C8 1_555 1_555
H8 C9 1_555 1_555
C10 C9 1_555 1_555
H9 C10 1_555 1_555
C11 C10 1_555 1_555
C12 C11 1_555 1_555
H10 C12 1_555 1_555
C13 C12 1_555 1_555
H11 C13 1_555 1_555
C14 C13 1_555 1_555
H12 C14 1_555 1_555
C15 C11 1_555 1_555
C16 C8 1_555 1_555
N1 C5 1_555 1_555
N2 Ni1 1_555 1_555
O1 Ni1 1_555 1_555
O2 C1 1_555 1_555
O3 C4 1_555 1_555
O4 C4 1_555 1_555
O5 Ni1 1_555 1_555
H13 O5 1_555 1_555
H14 O5 1_555 1_555
Ni1_2 O3 1_555 1_555
O3_2 Ni1 1_555 1_555
O4_2 Ni1 1_555 1_555
C1 O1 1_555 1_555
C14 N2 1_555 1_555
C15 C16 1_555 1_555
C15 N2 1_555 1_555
C16 N1 1_555 1_555
O4 Ni1_2 1_555 1_555

#END
