
#######################################################################
#
#                 Cambridge Crystallographic Data Centre
#                                CCDC 
#
#######################################################################
#
# If this CIF has been generated from an entry in the Cambridge 
# Structural Database, then it will include bibliographic, chemical, 
# crystal, experimental, refinement or atomic coordinate data resulting 
# from the CCDC's data processing and validation procedures.
#
#######################################################################

data_KAWHEW
_symmetry_cell_setting           monoclinic
_symmetry_space_group_name_H-M   'P 21/c'
_symmetry_Int_Tables_number      14
_space_group_name_Hall           '-P 2ybc'
loop_
_symmetry_equiv_pos_site_id
_symmetry_equiv_pos_as_xyz
1 x,y,z
2 -x,1/2+y,1/2-z
3 -x,-y,-z
4 x,1/2-y,1/2+z
_cell_length_a                   8.1405(3)
_cell_length_b                   11.4833(5)
_cell_length_c                   17.0073(7)
_cell_angle_alpha                90
_cell_angle_beta                 94.1930(10)
_cell_angle_gamma                90
_cell_volume                     1585.58
loop_
_atom_site_label
_atom_site_type_symbol
_atom_site_fract_x
_atom_site_fract_y
_atom_site_fract_z
Co1 Co 0.30376(3) 0.20587(2) 0.835901(15)
N1 N 0.2174(2) 0.05676(15) 0.89475(10)
N2 N 0.4034(2) 0.22994(16) 0.95416(10)
O1 O 0.19861(17) 0.15923(13) 0.72581(8)
O2 O 0.3555(2) 0.00770(15) 0.70207(11)
O3 O -0.1389(2) -0.02242(16) 0.66409(14)
O4 O -0.08510(18) -0.20760(12) 0.63979(10)
O5 O 0.3898(2) 0.35926(15) 0.78834(11)
O6 O 0.5273(2) 0.11538(16) 0.81643(10)
C1 C 0.2408(2) 0.07690(17) 0.68333(12)
C2 C 0.1482(3) 0.05896(19) 0.60425(12)
H1 H 0.2184 0.0804 0.5629
H2 H 0.0525 0.1095 0.6001
C3 C 0.0926(3) -0.06689(18) 0.59233(12)
H3 H 0.0668 -0.0801 0.5365
H4 H 0.1836 -0.1178 0.6092
C4 C -0.0554(2) -0.10027(18) 0.63613(12)
C5 C 0.1210(3) -0.02668(19) 0.86189(14)
H5 H 0.0873 -0.0206 0.8086
C6 C 0.0688(3) -0.1214(2) 0.90316(17)
H6 H 0.0017 -0.1779 0.8783
C7 C 0.1184(3) -0.1301(2) 0.98166(18)
H7 H 0.0843 -0.1927 1.0111
C8 C 0.2186(3) -0.0459(2) 1.01651(15)
H8 H 0.2545 -0.0517 1.0695
C9 C 0.2662(3) 0.04835(19) 0.97194(12)
C10 C 0.3695(3) 0.1452(2) 1.00511(12)
C11 C 0.4290(3) 0.1499(2) 1.08347(14)
H9 H 0.4025 0.0916 1.1183
C12 C 0.5273(3) 0.2412(3) 1.10935(15)
H10 H 0.5685 0.2451 1.1617
C13 C 0.5642(3) 0.3265(3) 1.05726(16)
H11 H 0.6321 0.3885 1.0735
C14 C 0.4989(3) 0.3189(2) 0.98032(14)
H12 H 0.5220 0.3778 0.9452
H13 H 0.318(4) 0.402(3) 0.7997(18)
H14 H 0.601(4) 0.142(3) 0.8025(17)
H15 H 0.488(4) 0.074(3) 0.7765(19)
H17 H 0.484(4) 0.393(3) 0.7991(18)
Co1A Co -0.30376(3) -0.29413(2) 0.664099(15)
O4A O 0.08510(18) 0.29240(12) 0.86021(10)
O7 O 0.8231(3) 0.1787(2) 0.76462(17)
H16 H 0.856(5) 0.139(4) 0.736(2)
H18 H 0.908(5) 0.211(3) 0.792(2)
loop_
_geom_bond_atom_site_label_1
_geom_bond_atom_site_label_2
_geom_bond_site_symmetry_1
_geom_bond_site_symmetry_2
Co1 N1 1_555 1_555
N1 C5 1_555 1_555
N2 Co1 1_555 1_555
O1 Co1 1_555 1_555
O2 C1 1_555 1_555
O3 C4 1_555 1_555
O4 C4 1_555 1_555
O5 Co1 1_555 1_555
O6 Co1 1_555 1_555
O7 H16 1_555 1_555
C1 O1 1_555 1_555
C2 C1 1_555 1_555
H1 C2 1_555 1_555
H2 C2 1_555 1_555
C3 C2 1_555 1_555
H3 C3 1_555 1_555
H4 C3 1_555 1_555
C4 C3 1_555 1_555
C5 H5 1_555 1_555
C6 C5 1_555 1_555
H6 C6 1_555 1_555
C7 C6 1_555 1_555
H7 C7 1_555 1_555
C8 C7 1_555 1_555
H8 C8 1_555 1_555
C9 N1 1_555 1_555
C10 N2 1_555 1_555
C11 C10 1_555 1_555
H9 C11 1_555 1_555
C12 C11 1_555 1_555
H10 C12 1_555 1_555
C13 C12 1_555 1_555
H11 C13 1_555 1_555
C14 N2 1_555 1_555
H12 C14 1_555 1_555
H13 O5 1_555 1_555
H14 O6 1_555 1_555
H15 O6 1_555 1_555
H17 O5 1_555 1_555
H18 O7 1_555 1_555
Co1A O4 1_555 1_555
O4A Co1 1_555 1_555
C8 C9 1_555 1_555
C9 C10 1_555 1_555
C13 C14 1_555 1_555

#END
