
#######################################################################
#
#                 Cambridge Crystallographic Data Centre
#                                CCDC 
#
#######################################################################
#
# If this CIF has been generated from an entry in the Cambridge 
# Structural Database, then it will include bibliographic, chemical, 
# crystal, experimental, refinement or atomic coordinate data resulting 
# from the CCDC's data processing and validation procedures.
#
#######################################################################

data_KAWNOL
_symmetry_cell_setting           monoclinic
_symmetry_space_group_name_H-M   'P 21/c'
_symmetry_Int_Tables_number      14
_space_group_name_Hall           '-P 2ybc'
loop_
_symmetry_equiv_pos_site_id
_symmetry_equiv_pos_as_xyz
1 x,y,z
2 -x,1/2+y,1/2-z
3 -x,-y,-z
4 x,1/2-y,1/2+z
_cell_length_a                   13.169(1)
_cell_length_b                   8.623(1)
_cell_length_c                   19.161(2)
_cell_angle_alpha                90
_cell_angle_beta                 90.93(1)
_cell_angle_gamma                90
_cell_volume                     2175.57
loop_
_atom_site_label
_atom_site_type_symbol
_atom_site_fract_x
_atom_site_fract_y
_atom_site_fract_z
Ca1 Ca 0.52071(8) 0.4214(1) 0.64172(6)
P1 P 0.4192(1) 0.5396(2) 0.80954(7)
P2 P 0.6382(1) 0.3879(2) 0.47159(8)
O1 O 0.3901(3) 0.4168(5) 0.8670(2)
O2 O 0.4361(3) 0.4470(5) 0.7451(2)
O3 O 0.5020(3) 0.6467(4) 0.8339(2)
O4 O 0.2347(3) 0.8917(5) 0.7840(2)
O5 O 0.7234(3) 0.2634(5) 0.4547(2)
O6 O 0.6183(3) 0.3701(5) 0.5473(2)
O7 O 0.5524(3) 0.3774(5) 0.4202(2)
O8 O 0.6809(3) 0.8111(5) 0.4037(2)
O9 O 0.6257(3) 0.6285(5) 0.6980(2)
N1 N 0.3204(4) 0.7989(5) 0.7976(2)
N2 N 0.6455(4) 0.6610(5) 0.4163(2)
C1 C 0.3770(7) 0.458(1) 0.9402(3)
C2 C 0.3032(4) 0.6527(7) 0.7972(3)
C3 C 0.2043(4) 0.5742(7) 0.7888(3)
C4 C 0.1912(6) 0.458(1) 0.7380(4)
C5 C 0.0971(7) 0.380(1) 0.7320(5)
C6 C 0.0186(6) 0.414(1) 0.7768(5)
C7 C 0.0324(6) 0.527(1) 0.8284(5)
C8 C 0.1256(5) 0.6091(8) 0.8344(4)
C9 C 0.7339(6) 0.202(1) 0.3848(4)
C10 C 0.7020(4) 0.5763(7) 0.4585(3)
C11 C 0.7985(5) 0.6181(8) 0.4930(3)
C12 C 0.8667(5) 0.721(1) 0.4637(4)
C13 C 0.9615(6) 0.751(1) 0.4982(5)
C14 C 0.9850(6) 0.681(1) 0.5613(5)
C15 C 0.9163(7) 0.579(1) 0.5904(5)
C16 C 0.8238(6) 0.546(1) 0.5570(4)
O3A O 0.4980(3) 0.1467(4) 0.6661(2)
O7B O 0.4476(3) 0.6226(5) 0.5798(2)
N1A N 0.6796(4) 0.2989(5) 0.7024(2)
N2B N 0.3545(4) 0.3390(5) 0.5837(2)
Ca1A Ca 0.47929(8) 0.9214(1) 0.85828(6)
Ca1B Ca 0.47929(8) 0.5786(1) 0.35828(6)
loop_
_geom_bond_atom_site_label_1
_geom_bond_atom_site_label_2
_geom_bond_site_symmetry_1
_geom_bond_site_symmetry_2
Ca1 O2 1_555 1_555
P1 O1 1_555 1_555
P2 O5 1_555 1_555
O1 C1 1_555 1_555
O2 P1 1_555 1_555
O3 P1 1_555 1_555
O4 N1 1_555 1_555
O5 C9 1_555 1_555
O6 Ca1 1_555 1_555
O7 P2 1_555 1_555
O8 N2 1_555 1_555
O9 Ca1 1_555 1_555
N1 C2 1_555 1_555
N2 C10 1_555 1_555
C2 P1 1_555 1_555
C3 C2 1_555 1_555
C4 C3 1_555 1_555
C5 C4 1_555 1_555
C6 C5 1_555 1_555
C7 C6 1_555 1_555
C8 C3 1_555 1_555
C10 P2 1_555 1_555
C11 C10 1_555 1_555
C12 C11 1_555 1_555
C13 C12 1_555 1_555
C14 C13 1_555 1_555
C15 C14 1_555 1_555
C16 C11 1_555 1_555
O3A Ca1 1_555 1_555
O7B Ca1 1_555 1_555
N1A Ca1 1_555 1_555
N2B Ca1 1_555 1_555
Ca1A O3 1_555 1_555
Ca1B O7 1_555 1_555
P2 O6 1_555 1_555
N1 Ca1A 1_555 1_555
N2 Ca1B 1_555 1_555
C7 C8 1_555 1_555
C15 C16 1_555 1_555

#END
