
#######################################################################
#
#                 Cambridge Crystallographic Data Centre
#                                CCDC 
#
#######################################################################
#
# If this CIF has been generated from an entry in the Cambridge 
# Structural Database, then it will include bibliographic, chemical, 
# crystal, experimental, refinement or atomic coordinate data resulting 
# from the CCDC's data processing and validation procedures.
#
#######################################################################

data_KAWNUR
_symmetry_cell_setting           monoclinic
_symmetry_space_group_name_H-M   'P 21/c'
_symmetry_Int_Tables_number      14
_space_group_name_Hall           '-P 2ybc'
loop_
_symmetry_equiv_pos_site_id
_symmetry_equiv_pos_as_xyz
1 x,y,z
2 -x,1/2+y,1/2-z
3 -x,-y,-z
4 x,1/2-y,1/2+z
_cell_length_a                   13.010(1)
_cell_length_b                   8.666(1)
_cell_length_c                   18.906(2)
_cell_angle_alpha                90
_cell_angle_beta                 91.84(1)
_cell_angle_gamma                90
_cell_volume                     2130.45
loop_
_atom_site_label
_atom_site_type_symbol
_atom_site_fract_x
_atom_site_fract_y
_atom_site_fract_z
Cd1 Cd 0.51894(4) 0.41585(6) 0.64105(3)
P1 P 0.4216(2) 0.5356(2) 0.8068(1)
P2 P 0.6315(2) 0.3853(2) 0.4730(1)
O1 O 0.3940(4) 0.4143(6) 0.8658(2)
O2 O 0.4329(4) 0.4437(6) 0.7412(3)
O3 O 0.5093(4) 0.6385(5) 0.8300(3)
O4 O 0.2416(4) 0.8938(6) 0.7856(3)
O5 O 0.7164(5) 0.2625(7) 0.4531(3)
O6 O 0.6170(4) 0.3612(6) 0.5504(3)
O7 O 0.5411(4) 0.3766(6) 0.4228(3)
O8 O 0.6791(5) 0.8055(6) 0.4036(3)
O9 O 0.6238(4) 0.6257(6) 0.6968(3)
N1 N 0.3267(5) 0.7995(7) 0.7983(3)
N2 N 0.6401(5) 0.6577(7) 0.4170(3)
C1 C 0.379(1) 0.457(1) 0.9388(5)
C2 C 0.3070(6) 0.6534(8) 0.7973(3)
C3 C 0.2051(6) 0.5786(9) 0.7888(4)
C4 C 0.1866(8) 0.464(1) 0.7392(5)
C5 C 0.0927(9) 0.393(2) 0.7357(6)
C6 C 0.0168(8) 0.428(1) 0.7803(6)
C7 C 0.0351(8) 0.538(1) 0.8309(6)
C8 C 0.1291(7) 0.614(1) 0.8344(5)
C9 C 0.7226(9) 0.202(1) 0.3849(5)
C10 C 0.6952(5) 0.5734(9) 0.4595(3)
C11 C 0.7945(6) 0.611(1) 0.4948(4)
C12 C 0.8672(8) 0.705(2) 0.4655(6)
C13 C 0.9611(9) 0.733(2) 0.4994(7)
C14 C 0.9820(8) 0.673(1) 0.5648(6)
C15 C 0.9100(9) 0.586(2) 0.5953(6)
C16 C 0.8192(8) 0.553(2) 0.5612(5)
H1 H 0.407(1) 0.373(1) 0.9652(5)
H2 H 0.306(1) 0.457(1) 0.9424(5)
H3 H 0.406(1) 0.551(1) 0.9570(5)
H4 H 0.2386(8) 0.435(1) 0.7077(5)
H5 H 0.0803(9) 0.316(2) 0.7006(6)
H6 H -0.0478(8) 0.377(1) 0.7765(6)
H7 H -0.0163(8) 0.562(1) 0.8638(6)
H8 H 0.1406(7) 0.692(1) 0.8689(5)
H9 H 0.7600(9) 0.108(1) 0.3839(5)
H10 H 0.6586(9) 0.189(1) 0.3599(5)
H11 H 0.7611(9) 0.281(1) 0.3632(5)
H12 H 0.8523(8) 0.753(2) 0.4211(6)
H13 H 1.0113(9) 0.793(2) 0.4768(7)
H14 H 1.0462(8) 0.692(1) 0.5885(6)
H15 H 0.9229(9) 0.547(2) 0.6417(6)
H16 H 0.7712(8) 0.489(2) 0.5838(5)
O3A O 0.4907(4) 0.1385(5) 0.6700(3)
O7B O 0.4589(4) 0.6234(6) 0.5772(3)
N1A N 0.6733(5) 0.2995(7) 0.7017(3)
N2B N 0.3599(5) 0.3423(7) 0.5830(3)
Cd1A Cd 0.48106(4) 0.91585(6) 0.85895(3)
Cd1B Cd 0.48106(4) 0.58415(6) 0.35895(3)
loop_
_geom_bond_atom_site_label_1
_geom_bond_atom_site_label_2
_geom_bond_site_symmetry_1
_geom_bond_site_symmetry_2
Cd1 O2 1_555 1_555
P1 O1 1_555 1_555
P2 O5 1_555 1_555
O1 C1 1_555 1_555
O2 P1 1_555 1_555
O3 P1 1_555 1_555
O4 N1 1_555 1_555
O5 C9 1_555 1_555
O6 Cd1 1_555 1_555
O7 P2 1_555 1_555
O8 N2 1_555 1_555
O9 Cd1 1_555 1_555
N1 C2 1_555 1_555
N2 C10 1_555 1_555
C1 H1 1_555 1_555
C2 P1 1_555 1_555
C3 C2 1_555 1_555
C4 C3 1_555 1_555
C5 C4 1_555 1_555
C6 C5 1_555 1_555
C7 C6 1_555 1_555
C8 C3 1_555 1_555
C9 H9 1_555 1_555
C10 P2 1_555 1_555
C11 C10 1_555 1_555
C12 C11 1_555 1_555
C13 C12 1_555 1_555
C14 C13 1_555 1_555
C15 C14 1_555 1_555
C16 C11 1_555 1_555
H2 C1 1_555 1_555
H3 C1 1_555 1_555
H4 C4 1_555 1_555
H5 C5 1_555 1_555
H6 C6 1_555 1_555
H7 C7 1_555 1_555
H8 C8 1_555 1_555
H10 C9 1_555 1_555
H11 C9 1_555 1_555
H12 C12 1_555 1_555
H13 C13 1_555 1_555
H14 C14 1_555 1_555
H15 C15 1_555 1_555
H16 C16 1_555 1_555
O3A Cd1 1_555 1_555
O7B Cd1 1_555 1_555
N1A Cd1 1_555 1_555
N2B Cd1 1_555 1_555
Cd1A O3 1_555 1_555
Cd1B O7 1_555 1_555
P2 O6 1_555 1_555
N1 Cd1A 1_555 1_555
N2 Cd1B 1_555 1_555
C7 C8 1_555 1_555
C15 C16 1_555 1_555

#END
