
#######################################################################
#
#                 Cambridge Crystallographic Data Centre
#                                CCDC 
#
#######################################################################
#
# If this CIF has been generated from an entry in the Cambridge 
# Structural Database, then it will include bibliographic, chemical, 
# crystal, experimental, refinement or atomic coordinate data resulting 
# from the CCDC's data processing and validation procedures.
#
#######################################################################

data_KAWNUT
_symmetry_cell_setting           triclinic
_symmetry_space_group_name_H-M   'P -1'
_symmetry_Int_Tables_number      2
_space_group_name_Hall           '-P 1'
loop_
_symmetry_equiv_pos_site_id
_symmetry_equiv_pos_as_xyz
1 x,y,z
2 -x,-y,-z
_cell_length_a                   6.6639(13)
_cell_length_b                   9.5487(19)
_cell_length_c                   9.977(2)
_cell_angle_alpha                84.26(3)
_cell_angle_beta                 75.75(3)
_cell_angle_gamma                86.71(3)
_cell_volume                     611.88
loop_
_atom_site_label
_atom_site_type_symbol
_atom_site_fract_x
_atom_site_fract_y
_atom_site_fract_z
Ag1 Ag 0.67928(8) -0.01259(6) 0.63245(6)
Ag2 Ag -0.02654(9) 0.65508(8) 0.02683(7)
Br1 Br 0.80075(11) 0.70310(7) 0.41616(7)
S1 S 0.8411(2) 0.14001(14) 0.31588(15)
O1 O 0.6777(7) 0.0506(5) 0.3967(5)
O2 O 0.6738(9) 0.0960(5) 0.8355(6)
H1 H 0.553(6) 0.112(8) 0.886(9)
H2 H 0.741(11) 0.172(5) 0.818(10)
O3 O 0.9199(7) 0.0996(5) 0.1750(5)
O4 O -0.2470(8) 0.8823(6) 0.0679(5)
H3 H -0.2246 0.9010 -0.0195
H4 H -0.1920 0.9457 0.0997
O5 O 1.0010(7) 0.1549(5) 0.3880(6)
O6 O 0.4946(7) 0.2199(4) 0.1848(5)
H5 H 0.4014 0.2456 0.1465
O7 O 0.2281(7) 0.6170(5) 0.1315(5)
O8 O 0.2432(7) 0.3883(5) 0.0982(5)
C1 C 0.7243(8) 0.3108(6) 0.2990(6)
C2 C 0.5604(8) 0.3318(6) 0.2330(6)
C3 C 0.4711(8) 0.4670(6) 0.2185(6)
C4 C 0.5442(9) 0.5780(6) 0.2747(6)
H6 H 0.4856 0.6683 0.2666
C5 C 0.7020(9) 0.5531(6) 0.3413(6)
C6 C 0.7944(9) 0.4201(6) 0.3534(6)
H7 H 0.9023 0.4049 0.3977
C7 C 0.3007(9) 0.4959(6) 0.1453(6)
Ag1A Ag 0.32072(8) 0.01259(6) 0.36755(6)
Ag1A_2 Ag 1.32072(8) 0.01259(6) 0.36755(6)
Ag2A Ag 0.02654(9) 0.34492(8) -0.02683(7)
O1A O 0.3223(7) -0.0506(5) 0.6033(5)
O5A O 0.9990(7) -0.1549(5) 0.6120(6)
O6A O 0.5054(7) -0.2199(4) 0.8152(5)
H5A H 0.5986 -0.2456 0.8535
O8A O -0.2432(7) 0.6117(5) -0.0982(5)
loop_
_geom_bond_atom_site_label_1
_geom_bond_atom_site_label_2
_geom_bond_site_symmetry_1
_geom_bond_site_symmetry_2
Ag1 O1 1_555 1_555
Ag2 O4 1_555 1_555
Br1 C5 1_555 1_555
S1 O1 1_555 1_555
O1 Ag1A 1_555 1_555
O2 Ag1 1_555 1_555
H1 O2 1_555 1_555
H2 O2 1_555 1_555
O3 S1 1_555 1_555
O4 H3 1_555 1_555
H4 O4 1_555 1_555
O5 S1 1_555 1_555
O6 H5 1_555 1_555
O7 Ag2 1_555 1_555
O8 C7 1_555 1_555
C1 S1 1_555 1_555
C2 O6 1_555 1_555
C3 C2 1_555 1_555
C4 C3 1_555 1_555
H6 C4 1_555 1_555
C5 C4 1_555 1_555
C6 C1 1_555 1_555
H7 C6 1_555 1_555
C7 O7 1_555 1_555
Ag1A O6 1_555 1_555
Ag1A_2 O5 1_555 1_555
Ag2A Ag2 1_555 1_555
O1A Ag1 1_555 1_555
O5A Ag1 1_555 1_555
O6A Ag1 1_555 1_555
H5A O6A 1_555 1_555
O8A Ag2 1_555 1_555
O8 Ag2A 1_555 1_555
C1 C2 1_555 1_555
C3 C7 1_555 1_555
C5 C6 1_555 1_555
Ag1A O1A 1_555 1_555

#END
