
#######################################################################
#
#                 Cambridge Crystallographic Data Centre
#                                CCDC 
#
#######################################################################
#
# If this CIF has been generated from an entry in the Cambridge 
# Structural Database, then it will include bibliographic, chemical, 
# crystal, experimental, refinement or atomic coordinate data resulting 
# from the CCDC's data processing and validation procedures.
#
#######################################################################

data_KAWPOP
_symmetry_cell_setting           triclinic
_symmetry_space_group_name_H-M   'P -1'
_symmetry_Int_Tables_number      2
_space_group_name_Hall           '-P 1'
loop_
_symmetry_equiv_pos_site_id
_symmetry_equiv_pos_as_xyz
1 x,y,z
2 -x,-y,-z
_cell_length_a                   6.2647(13)
_cell_length_b                   8.3431(17)
_cell_length_c                   12.831(3)
_cell_angle_alpha                89.65(3)
_cell_angle_beta                 80.19(3)
_cell_angle_gamma                83.36(3)
_cell_volume                     656.336
loop_
_atom_site_label
_atom_site_type_symbol
_atom_site_fract_x
_atom_site_fract_y
_atom_site_fract_z
Ag1 Ag 1.0000 0.0000 0.5000
Ag2 Ag 0.65557(12) -0.11724(8) 0.38127(6)
Ag3 Ag -0.5000 0.0000 0.0000
Ag4 Ag 0.44749(10) 0.67299(7) 0.03470(5)
S1 S 0.3593(3) 0.4463(2) 0.28660(13)
O1 O 0.5941(9) 0.4265(7) 0.2642(5)
O2 O 0.2686(11) 0.4750(8) 0.3983(4)
O3 O 0.2622(10) 0.5688(7) 0.2204(5)
O4 O 0.4853(9) 0.1066(7) 0.3603(5)
O5 O -0.1731(9) 0.2712(7) 0.0416(4)
O6 O -0.2469(9) 0.0235(7) 0.0908(4)
N1 N 1.1559(12) -0.2255(8) 0.5470(5)
H1 H 1.2606 -0.2068 0.5827
H2 H 1.2137 -0.2854 0.4898
H3 H 1.0578 -0.2777 0.5880
N2 N 0.8059(13) -0.3547(9) 0.3871(7)
H4 H 0.7342 -0.4212 0.3557
H5 H 0.8037 -0.3829 0.4542
H6 H 0.9433 -0.3607 0.3537
N3 N 0.7484(11) 0.6500(9) 0.0930(6)
H7 H 0.7798 0.5487 0.1125
H8 H 0.7369 0.7160 0.1484
H9 H 0.8542 0.6758 0.0424
C1 C 0.2693(11) 0.2627(8) 0.2511(5)
C2 C 0.3515(11) 0.1138(9) 0.2945(6)
C3 C 0.2665(12) -0.0257(9) 0.2624(6)
H10 H 0.3186 -0.1266 0.2850
C4 C 0.1078(12) -0.0148(9) 0.1983(6)
H11 H 0.0522 -0.1083 0.1816
C5 C 0.0298(11) 0.1310(9) 0.1585(5)
C6 C 0.1202(11) 0.2687(8) 0.1860(5)
H12 H 0.0754 0.3677 0.1582
C7 C -0.1441(11) 0.1417(9) 0.0937(5)
Ag2A Ag 1.34443(12) 0.11724(8) 0.61873(6)
Ag3_2 Ag 0.5000 1.0000 0.0000
Ag3_3 Ag 2.5000 0.0000 1.0000
Ag3_4 Ag 1.5000 -1.0000 1.0000
Ag4A Ag 1.55251(10) -0.67299(7) 0.96530(5)
Ag4_2 Ag -0.55251(10) -0.32701(7) 0.03470(5)
Ag4A_2 Ag -0.44749(10) 0.32701(7) -0.03470(5)
Ag4A_3 Ag 0.55251(10) 0.32701(7) -0.03470(5)
Ag4_3 Ag 2.44749(10) -0.32701(7) 1.03470(5)
Ag4_4 Ag 1.44749(10) -0.32701(7) 1.03470(5)
S1A S 1.6407(3) -0.4463(2) 0.71340(13)
O1A O 1.4059(9) -0.4265(7) 0.7358(5)
O2A O 1.7314(11) -0.4750(8) 0.6017(4)
O3A O 1.7378(10) -0.5688(7) 0.7796(5)
O4A O 1.5147(9) -0.1066(7) 0.6397(5)
O5A O 2.1731(9) -0.2712(7) 0.9584(4)
O5A_2 O 0.1731(9) 0.7288(7) -0.0416(4)
O5_2 O 1.8269(9) -0.7288(7) 1.0416(4)
O6A O 2.2469(9) -0.0235(7) 0.9092(4)
O6A_2 O -0.7531(9) -0.0235(7) -0.0908(4)
N1A N 0.8441(12) 0.2255(8) 0.4530(5)
H1A H 0.7394 0.2068 0.4173
H2A H 0.7863 0.2854 0.5102
H3A H 0.9422 0.2777 0.4120
N2A N 1.1941(13) 0.3547(9) 0.6129(7)
H4A H 1.2658 0.4212 0.6443
H5A H 1.1963 0.3829 0.5458
H6A H 1.0567 0.3607 0.6463
N3A N 1.2516(11) -0.6500(9) 0.9070(6)
H7A H 1.2202 -0.5487 0.8875
H8A H 1.2631 -0.7160 0.8516
H9A H 1.1458 -0.6758 0.9576
C1A C 1.7307(11) -0.2627(8) 0.7489(5)
C2A C 1.6485(11) -0.1138(9) 0.7055(6)
C3A C 1.7335(12) 0.0257(9) 0.7376(6)
H10A H 1.6814 0.1266 0.7150
C4A C 1.8922(12) 0.0148(9) 0.8017(6)
H11A H 1.9478 0.1083 0.8184
C5A C 1.9702(11) -0.1310(9) 0.8415(5)
C6A C 1.8798(11) -0.2687(8) 0.8140(5)
H12A H 1.9246 -0.3677 0.8418
C7A C 2.1441(11) -0.1417(9) 0.9063(5)
loop_
_geom_bond_atom_site_label_1
_geom_bond_atom_site_label_2
_geom_bond_site_symmetry_1
_geom_bond_site_symmetry_2
Ag1 Ag2 1_555 1_555
Ag2 O4 1_555 1_555
Ag3 O6 1_555 1_555
Ag4 O3 1_555 1_555
S1 O1 1_555 1_555
O2 S1 1_555 1_555
O3 S1 1_555 1_555
O4 C2 1_555 1_555
O5 C7 1_555 1_555
O6 C7 1_555 1_555
N1 Ag1 1_555 1_555
H1 N1 1_555 1_555
H2 N1 1_555 1_555
H3 N1 1_555 1_555
N2 Ag2 1_555 1_555
H4 N2 1_555 1_555
H5 N2 1_555 1_555
H6 N2 1_555 1_555
N3 Ag4 1_555 1_555
H7 N3 1_555 1_555
H8 N3 1_555 1_555
H9 N3 1_555 1_555
C1 S1 1_555 1_555
C2 C1 1_555 1_555
C3 C2 1_555 1_555
H10 C3 1_555 1_555
C4 C3 1_555 1_555
H11 C4 1_555 1_555
C5 C4 1_555 1_555
C6 C1 1_555 1_555
H12 C6 1_555 1_555
C7 C5 1_555 1_555
Ag2A Ag1 1_555 1_555
Ag3_2 Ag4 1_555 1_555
Ag3_3 Ag4_3 1_555 1_555
Ag3_4 Ag4A 1_555 1_555
Ag4A Ag4_4 1_555 1_555
Ag4_2 Ag3 1_555 1_555
Ag4A_2 Ag3 1_555 1_555
Ag4A_3 Ag4 1_555 1_555
Ag4_3 O5A 1_555 1_555
S1A O1A 1_555 1_555
O2A S1A 1_555 1_555
O3A Ag4A 1_555 1_555
O4A Ag2A 1_555 1_555
O5A C7A 1_555 1_555
O5A_2 Ag4 1_555 1_555
O5_2 Ag4A 1_555 1_555
O6A Ag3_3 1_555 1_555
O6A_2 Ag3 1_555 1_555
N1A Ag1 1_555 1_555
H1A N1A 1_555 1_555
H2A N1A 1_555 1_555
H3A N1A 1_555 1_555
N2A Ag2A 1_555 1_555
H4A N2A 1_555 1_555
H5A N2A 1_555 1_555
H6A N2A 1_555 1_555
N3A Ag4A 1_555 1_555
H7A N3A 1_555 1_555
H8A N3A 1_555 1_555
H9A N3A 1_555 1_555
C1A S1A 1_555 1_555
C2A O4A 1_555 1_555
C3A C2A 1_555 1_555
H10A C3A 1_555 1_555
C4A C3A 1_555 1_555
H11A C4A 1_555 1_555
C5A C4A 1_555 1_555
C6A C1A 1_555 1_555
H12A C6A 1_555 1_555
C7A O6A 1_555 1_555
O5 Ag4A_2 1_555 1_555
C5 C6 1_555 1_555
S1A O3A 1_555 1_555
C1A C2A 1_555 1_555
C5A C6A 1_555 1_555
C5A C7A 1_555 1_555

#END
