
#######################################################################
#
#                 Cambridge Crystallographic Data Centre
#                                CCDC 
#
#######################################################################
#
# If this CIF has been generated from an entry in the Cambridge 
# Structural Database, then it will include bibliographic, chemical, 
# crystal, experimental, refinement or atomic coordinate data resulting 
# from the CCDC's data processing and validation procedures.
#
#######################################################################

data_KAWPIJ
_symmetry_cell_setting           monoclinic
_symmetry_space_group_name_H-M   'C 2/c'
_symmetry_Int_Tables_number      15
_space_group_name_Hall           '-C 2yn'
loop_
_symmetry_equiv_pos_site_id
_symmetry_equiv_pos_as_xyz
1 x,y,z
2 -x,y,1/2-z
3 1/2+x,1/2+y,z
4 1/2-x,1/2+y,1/2-z
5 -x,-y,-z
6 x,-y,1/2+z
7 1/2-x,1/2-y,-z
8 1/2+x,1/2-y,1/2+z
_cell_length_a                   19.227(4)
_cell_length_b                   8.2824(17)
_cell_length_c                   11.582(2)
_cell_angle_alpha                90
_cell_angle_beta                 106.27(3)
_cell_angle_gamma                90
_cell_volume                     1770.52
loop_
_atom_site_label
_atom_site_type_symbol
_atom_site_fract_x
_atom_site_fract_y
_atom_site_fract_z
Ag1 Ag -0.02065(3) 0.63946(6) 0.09766(4)
Ag2 Ag -0.04223(3) 1.01680(7) -0.12796(6)
S1 S -0.09836(7) 0.63458(16) -0.20921(13)
O1 O -0.1167(2) 0.7412(5) -0.3124(3)
O2 O -0.0422(2) 0.6998(5) -0.1096(3)
O3 O -0.0782(2) 0.4741(4) -0.2393(4)
O4 O -0.1168(2) 0.4253(6) -0.0144(4)
H1 H -0.1214 0.3789 0.0456
O5 O -0.4326(2) 0.5987(5) -0.1390(4)
O6 O -0.3717(2) 0.4826(5) 0.0359(4)
C1 C -0.1777(3) 0.6115(6) -0.1621(4)
C2 C -0.1782(3) 0.5065(6) -0.0676(5)
C3 C -0.2427(3) 0.4898(6) -0.0329(5)
H2 H -0.2436 0.4227 0.0311
C4 C -0.3053(3) 0.5744(7) -0.0947(5)
C5 C -0.3024(3) 0.6774(7) -0.1879(5)
H3 H -0.3436 0.7344 -0.2290
C6 C -0.2393(3) 0.6959(7) -0.2198(5)
H4 H -0.2381 0.7667 -0.2815
C7 C -0.3750(3) 0.5501(7) -0.0626(5)
Ag1D Ag 0.02065(3) 0.36054(6) -0.09766(4)
Ag1E Ag -0.02065(3) 0.36054(6) -0.40234(4)
Ag1F Ag -0.47935(3) 0.86054(6) -0.09766(4)
Ag2D Ag 0.04223(3) 0.98320(7) 0.12796(6)
Ag2B Ag -0.54223(3) 0.51680(7) -0.12796(6)
Ag2F Ag -0.45777(3) 0.48320(7) 0.12796(6)
O3D O 0.0782(2) 0.5259(4) 0.2393(4)
O3E O -0.0782(2) 0.5259(4) 0.2607(4)
O5F O -0.0674(2) 0.9013(5) 0.1390(4)
O5B O 0.0674(2) 1.0987(5) -0.1390(4)
O6F O -0.1283(2) 1.0174(5) -0.0359(4)
loop_
_geom_bond_atom_site_label_1
_geom_bond_atom_site_label_2
_geom_bond_site_symmetry_1
_geom_bond_site_symmetry_2
Ag1 O2 1_555 1_555
Ag2 O2 1_555 1_555
S1 O1 1_555 1_555
O2 S1 1_555 1_555
O3 S1 1_555 1_555
O4 Ag1 1_555 1_555
H1 O4 1_555 1_555
O5 C7 1_555 1_555
O6 C7 1_555 1_555
C1 S1 1_555 1_555
C2 O4 1_555 1_555
C3 C2 1_555 1_555
H2 C3 1_555 1_555
C4 C3 1_555 1_555
C5 C4 1_555 1_555
H3 C5 1_555 1_555
C6 C1 1_555 1_555
H4 C6 1_555 1_555
C7 C4 1_555 1_555
Ag1D O3 1_555 1_555
Ag1E O3 1_555 1_555
Ag1F O5 1_555 1_555
Ag2D O5F 1_555 1_555
Ag2B O5 1_555 1_555
Ag2F O6 1_555 1_555
O3D Ag1 1_555 1_555
O3E Ag1 1_555 1_555
O5F Ag1 1_555 1_555
O5B Ag2 1_555 1_555
O6F Ag2 1_555 1_555
C1 C2 1_555 1_555
C5 C6 1_555 1_555

#END
