
#######################################################################
#
#                 Cambridge Crystallographic Data Centre
#                                CCDC 
#
#######################################################################
#
# If this CIF has been generated from an entry in the Cambridge 
# Structural Database, then it will include bibliographic, chemical, 
# crystal, experimental, refinement or atomic coordinate data resulting 
# from the CCDC's data processing and validation procedures.
#
#######################################################################

data_KAWQOP
_symmetry_cell_setting           monoclinic
_symmetry_space_group_name_H-M   'P 21/n'
_symmetry_Int_Tables_number      14
_space_group_name_Hall           '-P 2yn'
loop_
_symmetry_equiv_pos_site_id
_symmetry_equiv_pos_as_xyz
1 x,y,z
2 1/2-x,1/2+y,1/2-z
3 -x,-y,-z
4 1/2+x,1/2-y,1/2+z
_cell_length_a                   7.634(2)
_cell_length_b                   10.658(2)
_cell_length_c                   12.973(3)
_cell_angle_alpha                90
_cell_angle_beta                 90.21(1)
_cell_angle_gamma                90
_cell_volume                     1055.52
loop_
_atom_site_label
_atom_site_type_symbol
_atom_site_fract_x
_atom_site_fract_y
_atom_site_fract_z
Cu1 Cu -0.49849(9) 0.72568(7) 0.81601(5)
Fe1 Fe 0.0000 0.5000 1.0000
N1 N -0.2853(7) 0.6591(4) 0.9000(3)
N2 N 0.2830(7) 0.6713(5) 0.9009(3)
N3 N -0.4958(7) 0.5730(4) 0.7382(4)
H1 H -0.3831 0.5485 0.7419
H2 H -0.5540 0.5195 0.7795
N4 N -0.0015(6) 0.6714(5) 1.1920(3)
N5 N -0.9628(8) 0.3715(5) 0.5984(4)
H3 H -1.0365 0.3701 0.5441
H4 H -1.0159 0.4421 0.6327
C1 C -0.1754(7) 0.6012(5) 0.9361(4)
C2 C 0.1753(7) 0.6032(6) 0.9341(4)
C3 C -0.5492(8) 0.5334(6) 0.6384(4)
H5 H -0.4494 0.4989 0.6021
H6 H -0.5915 0.6053 0.5997
C4 C -0.6852(8) 0.4404(5) 0.6438(4)
H7 H -0.7689 0.4793 0.6891
H8 H -0.6299 0.3737 0.6852
C5 C -0.7815(9) 0.3808(7) 0.5618(5)
H9 H -0.7341 0.2982 0.5476
H10 H -0.7759 0.4307 0.4993
C6 C -0.0184(8) 0.6110(5) 1.1218(4)
Cu1B Cu 0.49849(9) 0.27432(7) 1.18399(5)
Cu1_2 Cu 0.50151(9) 0.72568(7) 0.81601(5)
Cu1C Cu 0.00151(9) 0.77432(7) 1.31601(5)
Cu1A Cu -1.00151(9) 0.22568(7) 0.68399(5)
Cu1B_2 Cu -0.50151(9) 0.27432(7) 1.18399(5)
Cu1A_2 Cu -0.00151(9) 0.22568(7) 0.68399(5)
Cu1A_3 Cu -1.00151(9) 1.22568(7) 0.68399(5)
N1B N 0.2853(7) 0.3409(4) 1.1000(3)
N2B N -0.2830(7) 0.3287(5) 1.0991(3)
N2_2 N -0.7170(7) 0.6713(5) 0.9009(3)
N2B_2 N 0.7170(7) 0.3287(5) 1.0991(3)
N3A N -1.0042(7) 1.0730(4) 0.7618(4)
N3B N 0.4958(7) 0.4270(4) 1.2618(4)
H1A H -1.1169 1.0485 0.7581
H1B H 0.3831 0.4515 1.2581
H2A H -0.9460 1.0195 0.7205
H2B H 0.5540 0.4805 1.2205
N4B N 0.0015(6) 0.3286(5) 0.8080(3)
N4C N -0.5015(6) 0.8286(5) 0.6920(3)
N4A N 0.5015(6) 0.1714(5) 1.3080(3)
N5A N -0.5372(8) 0.8715(5) 0.9016(4)
N5C N 0.5372(8) 0.1285(5) 1.0984(4)
H3A H -0.4635 0.8701 0.9559
H3C H 0.4635 0.1299 1.0441
H4A H -0.4841 0.9421 0.8673
H4C H 0.4841 0.0579 1.1327
C1B C 0.1754(7) 0.3988(5) 1.0639(4)
C2B C -0.1753(7) 0.3968(6) 1.0659(4)
C3A C -0.9508(8) 1.0334(6) 0.8616(4)
H5A H -1.0506 0.9989 0.8979
H6A H -0.9085 1.1053 0.9003
C4A C -0.8148(8) 0.9404(5) 0.8562(4)
H7A H -0.7311 0.9793 0.8109
H8A H -0.8701 0.8737 0.8148
C5A C -0.7185(9) 0.8808(7) 0.9382(5)
H9A H -0.7659 0.7982 0.9524
H10A H -0.7241 0.9307 1.0007
C6B C 0.0184(8) 0.3890(5) 0.8782(4)
O1 O 0.5071(10) 0.3359(7) 0.8865(5)
H11 H 0.4217 0.3019 0.8550
H12 H 0.6029 0.3095 0.8615
loop_
_geom_bond_atom_site_label_1
_geom_bond_atom_site_label_2
_geom_bond_site_symmetry_1
_geom_bond_site_symmetry_2
Cu1 N1 1_555 1_555
Fe1 C1 1_555 1_555
N1 C1 1_555 1_555
N2 C2 1_555 1_555
N3 Cu1 1_555 1_555
H1 N3 1_555 1_555
H2 N3 1_555 1_555
N4 C6 1_555 1_555
N5 H3 1_555 1_555
H4 N5 1_555 1_555
C2 Fe1 1_555 1_555
C3 N3 1_555 1_555
H5 C3 1_555 1_555
H6 C3 1_555 1_555
C4 C3 1_555 1_555
H7 C4 1_555 1_555
H8 C4 1_555 1_555
C5 N5 1_555 1_555
H9 C5 1_555 1_555
H10 C5 1_555 1_555
C6 Fe1 1_555 1_555
O1 H11 1_555 1_555
H12 O1 1_555 1_555
Cu1B N1B 1_555 1_555
Cu1_2 N2 1_555 1_555
Cu1C N4 1_555 1_555
Cu1A N5 1_555 1_555
Cu1B_2 N2B 1_555 1_555
Cu1A_2 N4B 1_555 1_555
Cu1A_3 N3A 1_555 1_555
N1B C1B 1_555 1_555
N2B C2B 1_555 1_555
N2_2 Cu1 1_555 1_555
N2B_2 Cu1B 1_555 1_555
N3A H1A 1_555 1_555
N3B Cu1B 1_555 1_555
H1B N3B 1_555 1_555
H2A N3A 1_555 1_555
H2B N3B 1_555 1_555
N4B C6B 1_555 1_555
N4C Cu1 1_555 1_555
N4A Cu1B 1_555 1_555
N5A Cu1 1_555 1_555
N5C Cu1B 1_555 1_555
H3A N5A 1_555 1_555
H3C N5C 1_555 1_555
H4A N5A 1_555 1_555
H4C N5C 1_555 1_555
C1B Fe1 1_555 1_555
C2B Fe1 1_555 1_555
C3A N3A 1_555 1_555
H5A C3A 1_555 1_555
H6A C3A 1_555 1_555
C4A C3A 1_555 1_555
H7A C4A 1_555 1_555
H8A C4A 1_555 1_555
C5A N5A 1_555 1_555
H9A C5A 1_555 1_555
H10A C5A 1_555 1_555
C6B Fe1 1_555 1_555
C4 C5 1_555 1_555
C4A C5A 1_555 1_555

#END
