
#######################################################################
#
#                 Cambridge Crystallographic Data Centre
#                                CCDC 
#
#######################################################################
#
# If this CIF has been generated from an entry in the Cambridge 
# Structural Database, then it will include bibliographic, chemical, 
# crystal, experimental, refinement or atomic coordinate data resulting 
# from the CCDC's data processing and validation procedures.
#
#######################################################################

data_KAWRAC
_symmetry_cell_setting           monoclinic
_symmetry_space_group_name_H-M   'P 21/c'
_symmetry_Int_Tables_number      14
_space_group_name_Hall           '-P 2ybc'
loop_
_symmetry_equiv_pos_site_id
_symmetry_equiv_pos_as_xyz
1 x,y,z
2 -x,1/2+y,1/2-z
3 -x,-y,-z
4 x,1/2-y,1/2+z
_cell_length_a                   19.0847(15)
_cell_length_b                   18.4854(14)
_cell_length_c                   27.494(2)
_cell_angle_alpha                90
_cell_angle_beta                 94.347(2)
_cell_angle_gamma                90
_cell_volume                     9671.66
loop_
_atom_site_label
_atom_site_type_symbol
_atom_site_fract_x
_atom_site_fract_y
_atom_site_fract_z
Zn1 Zn 0.09747(6) 0.25220(7) 0.71776(4)
Zn2 Zn 0.25957(6) 0.14388(6) 0.75381(5)
Zn3 Zn 0.16863(6) 0.24192(7) 0.85115(4)
Zn4 Zn 0.25496(6) 0.35494(6) 0.75615(4)
Zn5 Zn 0.36362(6) 0.25505(7) 0.85375(4)
Zn6 Zn -0.58531(6) 0.25119(7) 0.72606(4)
Co1 Co 0.28075(7) 0.06894(7) 0.88385(5)
Zn7 Zn 0.26092(7) 0.42101(7) 0.89049(5)
S1 S 0.13918(15) 0.37061(15) 0.72125(11)
S2 S 0.17569(15) 0.16666(16) 0.68860(11)
S3 S 0.07468(14) 0.20919(15) 0.79508(10)
S4 S 0.26138(12) 0.24839(15) 0.80149(9)
S5 S 0.23322(16) 0.04709(15) 0.80291(11)
S6 S 0.37016(14) 0.13378(14) 0.72257(10)
S7 S 0.32913(14) 0.33163(15) 0.69380(10)
S8 S -0.55122(14) 0.29704(15) 0.80305(10)
S9 S 0.38494(15) 0.13766(15) 0.87952(11)
S10 S 0.34420(15) 0.33244(15) 0.91736(10)
S11 S 0.15276(15) 0.35770(14) 0.88387(10)
S12 S 0.29050(14) 0.44639(14) 0.80941(10)
S13 S 0.28765(19) 0.52637(18) 0.92929(13)
S14 S 0.19294(15) 0.15059(15) 0.90864(10)
S15 S 0.3240(2) -0.02694(19) 0.92837(16)
N1 N 0.0055(4) 0.2527(5) 0.6760(3)
N2 N -0.5003(5) 0.2467(5) 0.6855(3)
C1 C -0.0191(7) 0.1995(7) 0.6484(6)
H1 H 0.0111 0.1598 0.6454
C2 C -0.0812(7) 0.1950(7) 0.6241(6)
H2 H -0.0933 0.1521 0.6071
C3 C -0.1264(6) 0.2481(7) 0.6228(4)
C4 C -0.1029(8) 0.3080(8) 0.6506(7)
H3 H -0.1323 0.3485 0.6527
C5 C -0.0375(8) 0.3083(7) 0.6749(6)
H4 H -0.0225 0.3505 0.6917
C6 C 0.1191(6) 0.0897(6) 0.6781(4)
C7 C 0.1095(7) 0.0637(7) 0.6305(5)
H5 H 0.1388 0.0807 0.6070
C8 C 0.0580(10) 0.0133(8) 0.6170(6)
H6 H 0.0513 -0.0039 0.5848
C9 C 0.0162(8) -0.0110(8) 0.6537(7)
H7 H -0.0213 -0.0427 0.6456
C10 C 0.0292(7) 0.0106(7) 0.7002(6)
H8 H 0.0022 -0.0081 0.7246
C11 C 0.0812(6) 0.0594(6) 0.7121(5)
H9 H 0.0909 0.0722 0.7450
C12 C -0.0039(5) 0.2395(6) 0.8179(4)
C13 C -0.0435(7) 0.1953(8) 0.8449(5)
H10 H -0.0268 0.1484 0.8522
C14 C -0.1034(8) 0.2151(10) 0.8613(5)
H11 H -0.1280 0.1821 0.8796
C15 C -0.1311(7) 0.2829(9) 0.8524(6)
H12 H -0.1744 0.2962 0.8641
C16 C -0.0948(7) 0.3298(8) 0.8266(6)
H13 H -0.1121 0.3769 0.8210
C17 C -0.0310(6) 0.3088(7) 0.8078(5)
H14 H -0.0069 0.3411 0.7886
C18 C 0.1586(6) 0.3995(6) 0.6629(4)
C19 C 0.1600(7) 0.3585(6) 0.6226(4)
H15 H 0.1470 0.3097 0.6249
C20 C 0.1788(8) 0.3828(8) 0.5788(5)
H16 H 0.1784 0.3513 0.5518
C21 C 0.1981(8) 0.4534(9) 0.5744(5)
H17 H 0.2101 0.4712 0.5441
C22 C 0.2002(8) 0.4983(8) 0.6141(6)
H18 H 0.2150 0.5466 0.6117
C23 C 0.1800(7) 0.4713(7) 0.6580(5)
H19 H 0.1807 0.5021 0.6851
C24 C 0.2727(6) -0.0301(6) 0.7789(4)
C25 C 0.3428(6) -0.0375(6) 0.7734(5)
H20 H 0.3737 -0.0004 0.7846
C26 C 0.3691(7) -0.0978(6) 0.7521(5)
H21 H 0.4176 -0.1010 0.7485
C27 C 0.3258(8) -0.1533(7) 0.7358(5)
H22 H 0.3438 -0.1939 0.7204
C28 C 0.2574(9) -0.1480(8) 0.7426(7)
H23 H 0.2274 -0.1866 0.7329
C29 C 0.2295(8) -0.0876(7) 0.7632(6)
H24 H 0.1809 -0.0851 0.7668
C30 C 0.3469(6) 0.1108(6) 0.6604(4)
C31 C 0.3165(7) 0.0426(7) 0.6514(5)
H25 H 0.3083 0.0111 0.6772
C32 C 0.2987(8) 0.0231(8) 0.6038(6)
H26 H 0.2798 -0.0233 0.5978
C33 C 0.3072(7) 0.0678(8) 0.5642(5)
H27 H 0.2939 0.0531 0.5321
C34 C 0.3359(7) 0.1346(8) 0.5744(4)
H28 H 0.3427 0.1668 0.5487
C35 C 0.3553(6) 0.1556(6) 0.6228(4)
H29 H 0.3745 0.2018 0.6289
C36 C 0.3800(6) 0.4087(6) 0.6814(4)
C37 C 0.3850(8) 0.4303(7) 0.6350(5)
H30 H 0.3553 0.4093 0.6101
C38 C 0.4319(11) 0.4820(9) 0.6232(6)
H31 H 0.4361 0.4937 0.5903
C39 C 0.4727(9) 0.5167(9) 0.6587(8)
H32 H 0.5046 0.5527 0.6504
C40 C 0.4667(7) 0.4986(7) 0.7069(7)
H33 H 0.4946 0.5220 0.7318
C41 C 0.4191(6) 0.4454(6) 0.7184(5)
H34 H 0.4133 0.4342 0.7512
C42 C -0.4709(5) 0.2585(6) 0.8276(4)
C43 C -0.4465(6) 0.1938(6) 0.8123(5)
H35 H -0.4727 0.1670 0.7883
C44 C -0.3815(7) 0.1674(8) 0.8329(5)
H36 H -0.3641 0.1228 0.8226
C45 C -0.3454(7) 0.2055(10) 0.8664(6)
H37 H -0.3014 0.1882 0.8789
C46 C -0.3690(8) 0.2684(10) 0.8837(6)
H38 H -0.3424 0.2932 0.9085
C47 C -0.4329(7) 0.2966(8) 0.8646(5)
H39 H -0.4500 0.3404 0.8763
C48 C 0.4161(8) 0.1485(7) 0.9408(5)
C49 C 0.3689(9) 0.1633(8) 0.9769(5)
H40 H 0.3205 0.1667 0.9679
C50 C 0.3934(11) 0.1730(10) 1.0263(6)
H41 H 0.3628 0.1840 1.0505
C51 C 0.4645(12) 0.1653(13) 1.0370(8)
H42 H 0.4815 0.1686 1.0699
C52 C 0.5114(11) 0.1535(13) 1.0042(9)
H43 H 0.5596 0.1503 1.0138
C53 C 0.4863(8) 0.1461(9) 0.9540(7)
H44 H 0.5184 0.1394 0.9301
C54 C 0.4252(6) 0.3762(6) 0.9329(4)
C55 C 0.4477(6) 0.4361(7) 0.9084(4)
H45 H 0.4202 0.4539 0.8812
C56 C 0.5101(6) 0.4701(7) 0.9234(5)
H46 H 0.5253 0.5103 0.9060
C57 C 0.5497(7) 0.4452(8) 0.9634(5)
H47 H 0.5914 0.4690 0.9744
C58 C 0.5284(7) 0.3864(8) 0.9869(5)
H48 H 0.5568 0.3688 1.0137
C59 C 0.4676(6) 0.3514(7) 0.9734(4)
H49 H 0.4540 0.3108 0.9910
C60 C 0.1288(6) 0.3319(6) 0.9436(4)
C61 C 0.0600(6) 0.3155(7) 0.9498(5)
H50 H 0.0262 0.3190 0.9232
C62 C 0.0396(8) 0.2940(9) 0.9949(6)
H51 H -0.0072 0.2808 0.9986
C63 C 0.0880(8) 0.2921(8) 1.0332(5)
H52 H 0.0741 0.2779 1.0639
C64 C 0.1542(8) 0.3095(8) 1.0288(5)
H53 H 0.1870 0.3079 1.0560
C65 C 0.1751(6) 0.3305(7) 0.9834(4)
H54 H 0.2221 0.3439 0.9804
C66 C 0.2425(6) 0.5247(5) 0.7893(4)
C67 C 0.2785(7) 0.5783(6) 0.7663(5)
H55 H 0.3266 0.5729 0.7619
C68 C 0.2424(8) 0.6406(7) 0.7497(5)
H56 H 0.2669 0.6782 0.7355
C69 C 0.1734(8) 0.6471(8) 0.7538(5)
H57 H 0.1495 0.6881 0.7409
C70 C 0.1371(7) 0.5946(7) 0.7768(5)
H58 H 0.0890 0.6002 0.7811
C71 C 0.1729(7) 0.5336(7) 0.7932(5)
H59 H 0.1479 0.4967 0.8079
C72 C 0.2208(7) 0.5562(6) 0.9650(4)
C73 C 0.2412(8) 0.6047(6) 1.0020(5)
H60 H 0.2884 0.6195 1.0061
C74 C 0.1931(10) 0.6319(8) 1.0333(6)
H61 H 0.2073 0.6648 1.0582
C75 C 0.1262(10) 0.6097(9) 1.0267(6)
H62 H 0.0933 0.6278 1.0473
C76 C 0.1041(9) 0.5607(9) 0.9903(6)
H63 H 0.0568 0.5460 0.9863
C77 C 0.1528(6) 0.5342(6) 0.9603(5)
H64 H 0.1387 0.5003 0.9360
C78 C 0.1124(5) 0.1031(6) 0.9116(5)
C79 C 0.0768(7) 0.1109(7) 0.9521(5)
H65 H 0.0935 0.1434 0.9766
C80 C 0.0149(9) 0.0709(11) 0.9581(7)
H66 H -0.0081 0.0738 0.9870
C81 C -0.0112(8) 0.0265(11) 0.9190(9)
H67 H -0.0542 0.0022 0.9208
C82 C 0.0241(8) 0.0189(8) 0.8803(7)
H68 H 0.0079 -0.0135 0.8556
C83 C 0.0847(6) 0.0578(7) 0.8754(5)
H69 H 0.1078 0.0532 0.8465
C84 C 0.2562(7) -0.0693(6) 0.9565(5)
C85 C 0.1853(7) -0.0630(7) 0.9420(5)
H70 H 0.1718 -0.0334 0.9152
C86 C 0.1340(9) -0.0980(8) 0.9652(6)
H71 H 0.0867 -0.0931 0.9533
C87 C 0.1505(9) -0.1396(8) 1.0052(6)
H72 H 0.1151 -0.1617 1.0219
C88 C 0.2216(10) -0.1489(9) 1.0211(5)
H73 H 0.2345 -0.1807 1.0469
C89 C 0.2720(8) -0.1116(7) 0.9987(5)
H74 H 0.3189 -0.1142 1.0119
C90 C -0.1972(6) 0.2438(7) 0.5954(5)
H75 H -0.2024 0.2852 0.5732
H76 H -0.1992 0.1998 0.5756
C91 C -0.2561(6) 0.2434(7) 0.6260(4)
H77 H -0.2559 0.2881 0.6451
H78 H -0.2511 0.2026 0.6488
C92 C -0.3261(5) 0.2368(6) 0.5947(4)
H79 H -0.3303 0.2764 0.5710
H80 H -0.3272 0.1910 0.5767
C93 C -0.4686(6) 0.3066(6) 0.6695(4)
H81 H -0.4858 0.3521 0.6783
C94 C -0.4151(6) 0.3047(6) 0.6423(4)
H82 H -0.3954 0.3486 0.6327
C95 C -0.3861(6) 0.2394(6) 0.6269(4)
C96 C -0.4170(7) 0.1782(6) 0.6439(5)
H83 H -0.3987 0.1324 0.6369
C97 C -0.4741(6) 0.1834(6) 0.6710(4)
H84 H -0.4962 0.1405 0.6799
Zn5_2 Zn -0.63638(6) 0.25505(7) 0.85375(4)
Zn6_2 Zn 0.41469(6) 0.25119(7) 0.72606(4)
S6_2 S -0.62984(14) 0.13378(14) 0.72257(10)
S7_2 S -0.67087(14) 0.33163(15) 0.69380(10)
S8_2 S 0.44878(14) 0.29704(15) 0.80305(10)
loop_
_geom_bond_atom_site_label_1
_geom_bond_atom_site_label_2
_geom_bond_site_symmetry_1
_geom_bond_site_symmetry_2
Zn1 S1 1_555 1_555
Zn2 S2 1_555 1_555
Zn3 S3 1_555 1_555
Zn4 S1 1_555 1_555
Zn5 S4 1_555 1_555
Zn6 S8 1_555 1_555
Co1 S5 1_555 1_555
Zn7 S10 1_555 1_555
S1 C18 1_555 1_555
S2 Zn1 1_555 1_555
S3 Zn1 1_555 1_555
S4 Zn2 1_555 1_555
S5 Zn2 1_555 1_555
S6 Zn2 1_555 1_555
S7 Zn4 1_555 1_555
S8 C42 1_555 1_555
S9 Zn5 1_555 1_555
S10 Zn5 1_555 1_555
S11 Zn3 1_555 1_555
S12 Zn4 1_555 1_555
S13 Zn7 1_555 1_555
S14 Zn3 1_555 1_555
S15 Co1 1_555 1_555
N1 Zn1 1_555 1_555
N2 Zn6 1_555 1_555
C1 N1 1_555 1_555
H1 C1 1_555 1_555
C2 C1 1_555 1_555
H2 C2 1_555 1_555
C3 C2 1_555 1_555
C4 C3 1_555 1_555
H3 C4 1_555 1_555
C5 N1 1_555 1_555
H4 C5 1_555 1_555
C6 S2 1_555 1_555
C7 C6 1_555 1_555
H5 C7 1_555 1_555
C8 C7 1_555 1_555
H6 C8 1_555 1_555
C9 C8 1_555 1_555
H7 C9 1_555 1_555
C10 C9 1_555 1_555
H8 C10 1_555 1_555
C11 C6 1_555 1_555
H9 C11 1_555 1_555
C12 S3 1_555 1_555
C13 C12 1_555 1_555
H10 C13 1_555 1_555
C14 C13 1_555 1_555
H11 C14 1_555 1_555
C15 C14 1_555 1_555
H12 C15 1_555 1_555
C16 C15 1_555 1_555
H13 C16 1_555 1_555
C17 C12 1_555 1_555
H14 C17 1_555 1_555
C18 C19 1_555 1_555
C19 H15 1_555 1_555
C20 C19 1_555 1_555
H16 C20 1_555 1_555
C21 C20 1_555 1_555
H17 C21 1_555 1_555
C22 C21 1_555 1_555
H18 C22 1_555 1_555
C23 C18 1_555 1_555
H19 C23 1_555 1_555
C24 S5 1_555 1_555
C25 C24 1_555 1_555
H20 C25 1_555 1_555
C26 C25 1_555 1_555
H21 C26 1_555 1_555
C27 C26 1_555 1_555
H22 C27 1_555 1_555
C28 C27 1_555 1_555
H23 C28 1_555 1_555
C29 C24 1_555 1_555
H24 C29 1_555 1_555
C30 S6 1_555 1_555
C31 C30 1_555 1_555
H25 C31 1_555 1_555
C32 C31 1_555 1_555
H26 C32 1_555 1_555
C33 C32 1_555 1_555
H27 C33 1_555 1_555
C34 C33 1_555 1_555
H28 C34 1_555 1_555
C35 C30 1_555 1_555
H29 C35 1_555 1_555
C36 S7 1_555 1_555
C37 C36 1_555 1_555
H30 C37 1_555 1_555
C38 C37 1_555 1_555
H31 C38 1_555 1_555
C39 C38 1_555 1_555
H32 C39 1_555 1_555
C40 C39 1_555 1_555
H33 C40 1_555 1_555
C41 C36 1_555 1_555
H34 C41 1_555 1_555
C42 C43 1_555 1_555
C43 H35 1_555 1_555
C44 C43 1_555 1_555
H36 C44 1_555 1_555
C45 C44 1_555 1_555
H37 C45 1_555 1_555
C46 C45 1_555 1_555
H38 C46 1_555 1_555
C47 C42 1_555 1_555
H39 C47 1_555 1_555
C48 S9 1_555 1_555
C49 C48 1_555 1_555
H40 C49 1_555 1_555
C50 C49 1_555 1_555
H41 C50 1_555 1_555
C51 C50 1_555 1_555
H42 C51 1_555 1_555
C52 C51 1_555 1_555
H43 C52 1_555 1_555
C53 C48 1_555 1_555
H44 C53 1_555 1_555
C54 S10 1_555 1_555
C55 C54 1_555 1_555
H45 C55 1_555 1_555
C56 C55 1_555 1_555
H46 C56 1_555 1_555
C57 C56 1_555 1_555
H47 C57 1_555 1_555
C58 C57 1_555 1_555
H48 C58 1_555 1_555
C59 C54 1_555 1_555
H49 C59 1_555 1_555
C60 S11 1_555 1_555
C61 C60 1_555 1_555
H50 C61 1_555 1_555
C62 C61 1_555 1_555
H51 C62 1_555 1_555
C63 C62 1_555 1_555
H52 C63 1_555 1_555
C64 C63 1_555 1_555
H53 C64 1_555 1_555
C65 C60 1_555 1_555
H54 C65 1_555 1_555
C66 S12 1_555 1_555
C67 C66 1_555 1_555
H55 C67 1_555 1_555
C68 C67 1_555 1_555
H56 C68 1_555 1_555
C69 C68 1_555 1_555
H57 C69 1_555 1_555
C70 C69 1_555 1_555
H58 C70 1_555 1_555
C71 C66 1_555 1_555
H59 C71 1_555 1_555
C72 S13 1_555 1_555
C73 C72 1_555 1_555
H60 C73 1_555 1_555
C74 C73 1_555 1_555
H61 C74 1_555 1_555
C75 C74 1_555 1_555
H62 C75 1_555 1_555
C76 C75 1_555 1_555
H63 C76 1_555 1_555
C77 C72 1_555 1_555
H64 C77 1_555 1_555
C78 S14 1_555 1_555
C79 C78 1_555 1_555
H65 C79 1_555 1_555
C80 C79 1_555 1_555
H66 C80 1_555 1_555
C81 C80 1_555 1_555
H67 C81 1_555 1_555
C82 C81 1_555 1_555
H68 C82 1_555 1_555
C83 C78 1_555 1_555
H69 C83 1_555 1_555
C84 S15 1_555 1_555
C85 C84 1_555 1_555
H70 C85 1_555 1_555
C86 C85 1_555 1_555
H71 C86 1_555 1_555
C87 C86 1_555 1_555
H72 C87 1_555 1_555
C88 C87 1_555 1_555
H73 C88 1_555 1_555
C89 C84 1_555 1_555
H74 C89 1_555 1_555
C90 C3 1_555 1_555
H75 C90 1_555 1_555
H76 C90 1_555 1_555
C91 C90 1_555 1_555
H77 C91 1_555 1_555
H78 C91 1_555 1_555
C92 C91 1_555 1_555
H79 C92 1_555 1_555
H80 C92 1_555 1_555
C93 N2 1_555 1_555
H81 C93 1_555 1_555
C94 C93 1_555 1_555
H82 C94 1_555 1_555
C95 C92 1_555 1_555
C96 C95 1_555 1_555
H83 C96 1_555 1_555
C97 N2 1_555 1_555
H84 C97 1_555 1_555
Zn5_2 S8 1_555 1_555
Zn6_2 S6 1_555 1_555
S6_2 Zn6 1_555 1_555
S7_2 Zn6 1_555 1_555
S8_2 Zn5 1_555 1_555
Zn3 S4 1_555 1_555
Zn4 S4 1_555 1_555
Co1 S9 1_555 1_555
Co1 S14 1_555 1_555
Zn7 S11 1_555 1_555
Zn7 S12 1_555 1_555
S7 Zn6_2 1_555 1_555
C4 C5 1_555 1_555
C10 C11 1_555 1_555
C16 C17 1_555 1_555
C22 C23 1_555 1_555
C28 C29 1_555 1_555
C34 C35 1_555 1_555
C40 C41 1_555 1_555
C46 C47 1_555 1_555
C52 C53 1_555 1_555
C58 C59 1_555 1_555
C64 C65 1_555 1_555
C70 C71 1_555 1_555
C76 C77 1_555 1_555
C82 C83 1_555 1_555
C88 C89 1_555 1_555
C94 C95 1_555 1_555
C96 C97 1_555 1_555
Zn6_2 S8_2 1_555 1_555

#END
