
#######################################################################
#
#                 Cambridge Crystallographic Data Centre
#                                CCDC 
#
#######################################################################
#
# If this CIF has been generated from an entry in the Cambridge 
# Structural Database, then it will include bibliographic, chemical, 
# crystal, experimental, refinement or atomic coordinate data resulting 
# from the CCDC's data processing and validation procedures.
#
#######################################################################

data_KAWXAI
_symmetry_cell_setting           triclinic
_symmetry_space_group_name_H-M   'P -1'
_symmetry_Int_Tables_number      2
_space_group_name_Hall           '-P 1'
loop_
_symmetry_equiv_pos_site_id
_symmetry_equiv_pos_as_xyz
1 x,y,z
2 -x,-y,-z
_cell_length_a                   7.745(3)
_cell_length_b                   8.624(3)
_cell_length_c                   10.657(4)
_cell_angle_alpha                101.006(6)
_cell_angle_beta                 92.293(7)
_cell_angle_gamma                94.893(7)
_cell_volume                     695.019
loop_
_atom_site_label
_atom_site_type_symbol
_atom_site_fract_x
_atom_site_fract_y
_atom_site_fract_z
Ni1 Ni 0.35444(19) 0.85908(17) 0.00122(13)
Ni2 Ni 0.45407(19) 1.12717(17) 0.30233(13)
F1 F 0.4540(9) 1.0719(8) 0.1101(6)
O1 O 0.2925(11) 0.9342(10) 0.3159(8)
O2 O 0.1825(12) 0.7989(11) 0.1243(8)
O3 O 0.0230(12) 0.8657(12) 0.7072(8)
O4 O -0.2391(10) 0.7384(9) 0.6979(7)
O5 O -0.3858(11) 0.3243(10) 0.3062(8)
O6 O -0.2529(12) 0.3363(11) 0.1248(8)
O7 O 0.4788(12) 1.1828(10) 0.5009(8)
O8 O 0.1778(12) 0.9870(12) -0.0674(8)
O9 O 0.6582(11) 0.9864(10) 0.3112(7)
O10 O 0.5429(13) 0.7438(11) 0.0866(9)
C1 C 0.1873(14) 0.8347(13) 0.2449(10)
C2 C 0.0532(14) 0.7486(14) 0.3093(10)
C3 C 0.0364(15) 0.7984(14) 0.4410(11)
H1 H 0.1074 0.8852 0.4862
C4 C -0.0868(14) 0.7187(14) 0.5054(11)
C5 C -0.1032(14) 0.7805(13) 0.6479(10)
C6 C -0.1862(15) 0.5864(13) 0.4403(10)
H2 H -0.2657 0.5332 0.4841
C7 C -0.1706(15) 0.5291(13) 0.3084(10)
C8 C -0.2778(14) 0.3841(12) 0.2407(10)
C9 C -0.0499(15) 0.6144(14) 0.2462(11)
H3 H -0.0384 0.5796 0.1591
Ni1A Ni 0.64556(19) 1.14092(17) -0.00122(13)
Ni1A_2 Ni -0.35444(19) 0.14092(17) -0.00122(13)
Ni2A Ni -0.45407(19) 0.87283(17) 0.69767(13)
Ni2_2 Ni -0.54593(19) 0.12717(17) 0.30233(13)
F1A F 0.5460(9) 0.9281(8) -0.1101(6)
O4A O 0.2391(10) 1.2616(9) 0.3021(7)
O5_2 O 0.6142(11) 1.3243(10) 0.3062(8)
O6A O 0.2529(12) 0.6637(11) -0.1248(8)
O11 O 0.3966(19) 0.5619(17) 0.248(2)
O12 O 0.1470(14) 0.2930(14) 0.0575(10)
loop_
_geom_bond_atom_site_label_1
_geom_bond_atom_site_label_2
_geom_bond_site_symmetry_1
_geom_bond_site_symmetry_2
Ni1 F1 1_555 1_555
Ni2 F1 1_555 1_555
F1 Ni1A 1_555 1_555
O1 Ni2 1_555 1_555
O2 Ni1 1_555 1_555
O3 C5 1_555 1_555
O4 C5 1_555 1_555
O5 C8 1_555 1_555
O6 C8 1_555 1_555
O7 Ni2 1_555 1_555
O8 Ni1 1_555 1_555
O9 Ni2 1_555 1_555
O10 Ni1 1_555 1_555
C1 O1 1_555 1_555
C2 C1 1_555 1_555
C3 C2 1_555 1_555
H1 C3 1_555 1_555
C4 C3 1_555 1_555
C5 C4 1_555 1_555
C6 C4 1_555 1_555
H2 C6 1_555 1_555
C7 C6 1_555 1_555
C8 C7 1_555 1_555
C9 C2 1_555 1_555
H3 C9 1_555 1_555
Ni1A F1A 1_555 1_555
Ni1A_2 O6 1_555 1_555
Ni2A O4 1_555 1_555
Ni2_2 O5 1_555 1_555
F1A Ni1 1_555 1_555
O4A Ni2 1_555 1_555
O5_2 Ni2 1_555 1_555
O6A Ni1 1_555 1_555
O2 C1 1_555 1_555
C7 C9 1_555 1_555

#END
