
#######################################################################
#
#                 Cambridge Crystallographic Data Centre
#                                CCDC 
#
#######################################################################
#
# If this CIF has been generated from an entry in the Cambridge 
# Structural Database, then it will include bibliographic, chemical, 
# crystal, experimental, refinement or atomic coordinate data resulting 
# from the CCDC's data processing and validation procedures.
#
#######################################################################

data_KAXBER
_symmetry_cell_setting           monoclinic
_symmetry_space_group_name_H-M   'P 21/n'
_symmetry_Int_Tables_number      14
_space_group_name_Hall           '-P 2yn'
loop_
_symmetry_equiv_pos_site_id
_symmetry_equiv_pos_as_xyz
1 x,y,z
2 1/2-x,1/2+y,1/2-z
3 -x,-y,-z
4 1/2+x,1/2-y,1/2+z
_cell_length_a                   11.784(2)
_cell_length_b                   8.899(2)
_cell_length_c                   13.934(3)
_cell_angle_alpha                90
_cell_angle_beta                 95.19(3)
_cell_angle_gamma                90
_cell_volume                     1455.21
loop_
_atom_site_label
_atom_site_type_symbol
_atom_site_fract_x
_atom_site_fract_y
_atom_site_fract_z
Ni1 Ni 0.573837(10) 0.150688(14) 0.225043(9)
Cr1 Cr 0.746805(13) 0.403328(16) 0.390834(11)
O1 O 0.68372(6) 0.26427(9) 0.32972(6)
O2 O 0.71695(6) 0.03503(9) 0.18304(5)
O3 O 0.86416(7) 0.34252(9) 0.45536(6)
O4 O 0.65695(7) 0.47593(10) 0.46249(6)
O5 O 0.46924(6) 0.02509(9) 0.12072(5)
N1 N 0.60273(8) 0.30968(10) 0.12242(6)
C1 C 0.65472(12) 0.42296(15) -0.01058(9)
C2 C 0.59987(11) 0.45755(13) 0.13385(9)
N2 N 0.63065(10) 0.52896(12) 0.05625(8)
C3 C 0.63733(11) 0.28756(13) 0.03133(8)
N3 N 0.43402(7) 0.26569(11) 0.26514(6)
C4 C 0.25610(11) 0.33858(19) 0.28378(11)
C5 C 0.43300(10) 0.34468(13) 0.34544(9)
N4 N 0.32718(9) 0.39087(14) 0.35807(8)
C6 C 0.32244(11) 0.26206(17) 0.22575(10)
N5 N 0.54869(8) -0.02341(11) 0.32005(6)
N6 N 0.56250(10) -0.24395(13) 0.39075(9)
C7 C 0.45985(11) -0.04220(15) 0.37630(10)
C8 C 0.46654(13) -0.17803(17) 0.41989(11)
C9 C 0.60876(11) -0.14870(14) 0.33106(10)
H1 H 0.4913(14) 0.3782(18) 0.3859(13)
H2 H 0.1775(16) 0.365(2) 0.2871(14)
H3 H 0.4457(14) 0.0727(19) 0.0686(12)
H4 H 0.6492(14) 0.192(2) 0.0008(13)
H5 H 0.6722(15) -0.1651(19) 0.3016(14)
H6 H 0.4164(15) 0.032(2) 0.3874(13)
H7 H 0.3025(14) 0.223(2) 0.1727(14)
H8 H 0.5146(14) -0.041(2) 0.1002(12)
H9 H 0.5879(18) -0.317(2) 0.4049(17)
H10 H 0.5854(15) 0.512(2) 0.1881(14)
H11 H 0.4310(14) -0.216(2) 0.4646(13)
H12 H 0.6823(15) 0.451(2) -0.0726(14)
H13 H 0.637(2) 0.627(3) 0.0622(18)
H14 H 0.3101(18) 0.441(3) 0.4016(16)
Cr1A Cr 0.753195(13) -0.096672(16) 0.109166(11)
O2A O 0.78305(6) 0.53503(9) 0.31696(5)
loop_
_geom_bond_atom_site_label_1
_geom_bond_atom_site_label_2
_geom_bond_site_symmetry_1
_geom_bond_site_symmetry_2
Ni1 O1 1_555 1_555
Cr1 O1 1_555 1_555
O2 Ni1 1_555 1_555
O3 Cr1 1_555 1_555
O4 Cr1 1_555 1_555
O5 Ni1 1_555 1_555
N1 Ni1 1_555 1_555
C1 N2 1_555 1_555
C2 N1 1_555 1_555
N2 C2 1_555 1_555
C3 N1 1_555 1_555
N3 Ni1 1_555 1_555
C4 N4 1_555 1_555
C5 N3 1_555 1_555
N4 C5 1_555 1_555
C6 N3 1_555 1_555
N5 Ni1 1_555 1_555
N6 C8 1_555 1_555
C7 N5 1_555 1_555
C8 C7 1_555 1_555
C9 N5 1_555 1_555
H1 C5 1_555 1_555
H2 C4 1_555 1_555
H3 O5 1_555 1_555
H4 C3 1_555 1_555
H5 C9 1_555 1_555
H6 C7 1_555 1_555
H7 C6 1_555 1_555
H8 O5 1_555 1_555
H9 N6 1_555 1_555
H10 C2 1_555 1_555
H11 C8 1_555 1_555
H12 C1 1_555 1_555
H13 N2 1_555 1_555
H14 N4 1_555 1_555
Cr1A O2 1_555 1_555
O2A Cr1 1_555 1_555
C1 C3 1_555 1_555
C4 C6 1_555 1_555
N6 C9 1_555 1_555

#END
