
#######################################################################
#
#                 Cambridge Crystallographic Data Centre
#                                CCDC 
#
#######################################################################
#
# If this CIF has been generated from an entry in the Cambridge 
# Structural Database, then it will include bibliographic, chemical, 
# crystal, experimental, refinement or atomic coordinate data resulting 
# from the CCDC's data processing and validation procedures.
#
#######################################################################

data_KAXDEU
_symmetry_cell_setting           monoclinic
_symmetry_space_group_name_H-M   'P 21/n'
_symmetry_Int_Tables_number      14
_space_group_name_Hall           '-P 2yn'
loop_
_symmetry_equiv_pos_site_id
_symmetry_equiv_pos_as_xyz
1 x,y,z
2 1/2-x,1/2+y,1/2-z
3 -x,-y,-z
4 1/2+x,1/2-y,1/2+z
_cell_length_a                   10.3274(15)
_cell_length_b                   11.2089(19)
_cell_length_c                   17.151(2)
_cell_angle_alpha                90
_cell_angle_beta                 92.542(7)
_cell_angle_gamma                90
_cell_volume                     1983.43
loop_
_atom_site_label
_atom_site_type_symbol
_atom_site_fract_x
_atom_site_fract_y
_atom_site_fract_z
Mo1 Mo 0.12784(4) 0.20513(4) 0.69759(2)
Cu1 Cu 0.34424(6) 0.06000(6) 0.68688(4)
S1 S 0.14044(12) 0.01264(11) 0.63352(8)
S2 S 0.33941(12) 0.24299(11) 0.75440(7)
S3 S 0.08487(12) 0.41291(12) 0.72942(8)
O1 O 0.1887(3) 0.2557(3) 0.5948(2)
O2 O 0.1152(3) 0.1154(3) 0.7967(2)
O3 O -0.0621(3) 0.2133(2) 0.6808(2)
N1 N 0.4643(4) 0.0955(4) 0.6000(2)
C1 C 0.1651(4) 0.0634(4) 0.5379(3)
C2 C 0.1645(5) -0.0114(5) 0.4735(3)
C3 C 0.1960(5) 0.0340(5) 0.4018(3)
C4 C 0.2273(5) 0.1537(5) 0.3947(3)
C5 C 0.2281(5) 0.2287(5) 0.4587(3)
C6 C 0.1930(4) 0.1847(4) 0.5313(3)
C7 C 0.3186(4) 0.1844(4) 0.8478(3)
C8 C 0.4111(5) 0.1934(5) 0.9091(3)
C9 C 0.3924(6) 0.1324(5) 0.9775(3)
C10 C 0.2851(6) 0.0633(5) 0.9848(3)
C11 C 0.1891(5) 0.0539(4) 0.9252(3)
C12 C 0.2043(5) 0.1170(4) 0.8557(2)
C13 C -0.0821(4) 0.4187(4) 0.7084(2)
C14 C -0.1590(4) 0.5215(4) 0.7119(3)
C15 C -0.2924(5) 0.5127(5) 0.6964(3)
C16 C -0.3467(5) 0.4035(5) 0.6774(3)
C17 C -0.2713(4) 0.3021(4) 0.6725(2)
C18 C -0.1389(4) 0.3098(4) 0.6869(2)
C19 C 0.5086(5) 0.1315(5) 0.5458(3)
C20 C 0.5667(6) 0.1831(5) 0.4768(3)
H1 H 0.1425 -0.0932 0.4787
H2 H 0.1962 -0.0168 0.3575
H3 H 0.2485 0.1845 0.3453
H4 H 0.2525 0.3099 0.4534
H5 H 0.4863 0.2410 0.9039
H6 H 0.4547 0.1386 1.0197
H7 H 0.2753 0.0202 1.0319
H8 H 0.1148 0.0056 0.9316
H9 H -0.1206 0.5964 0.7248
H10 H -0.3457 0.5816 0.6988
H11 H -0.4377 0.3978 0.6675
H12 H -0.3103 0.2276 0.6593
H13 H 0.4996 0.2241 0.4447
H14 H 0.6051 0.1194 0.4462
H15 H 0.6342 0.2403 0.4935
Cu1A Cu 0.15576(6) 0.56000(6) 0.81312(4)
S3A S 0.41513(12) -0.08709(12) 0.77058(8)
loop_
_geom_bond_atom_site_label_1
_geom_bond_atom_site_label_2
_geom_bond_site_symmetry_1
_geom_bond_site_symmetry_2
Mo1 S1 1_555 1_555
Cu1 S1 1_555 1_555
S1 C1 1_555 1_555
S2 Mo1 1_555 1_555
S3 Mo1 1_555 1_555
O1 Mo1 1_555 1_555
O2 Mo1 1_555 1_555
O3 Mo1 1_555 1_555
N1 Cu1 1_555 1_555
C1 C2 1_555 1_555
C2 C3 1_555 1_555
C3 C4 1_555 1_555
C4 C5 1_555 1_555
C5 C6 1_555 1_555
C6 O1 1_555 1_555
C7 S2 1_555 1_555
C8 C7 1_555 1_555
C9 C8 1_555 1_555
C10 C9 1_555 1_555
C11 C10 1_555 1_555
C12 O2 1_555 1_555
C13 S3 1_555 1_555
C14 C13 1_555 1_555
C15 C14 1_555 1_555
C16 C15 1_555 1_555
C17 C16 1_555 1_555
C18 O3 1_555 1_555
C19 N1 1_555 1_555
C20 C19 1_555 1_555
H1 C2 1_555 1_555
H2 C3 1_555 1_555
H3 C4 1_555 1_555
H4 C5 1_555 1_555
H5 C8 1_555 1_555
H6 C9 1_555 1_555
H7 C10 1_555 1_555
H8 C11 1_555 1_555
H9 C14 1_555 1_555
H10 C15 1_555 1_555
H11 C16 1_555 1_555
H12 C17 1_555 1_555
H13 C20 1_555 1_555
H14 C20 1_555 1_555
H15 C20 1_555 1_555
Cu1A S3 1_555 1_555
S3A Cu1 1_555 1_555
Cu1 S2 1_555 1_555
C1 C6 1_555 1_555
C7 C12 1_555 1_555
C11 C12 1_555 1_555
C13 C18 1_555 1_555
C17 C18 1_555 1_555

#END
