
#######################################################################
#
#                 Cambridge Crystallographic Data Centre
#                                CCDC 
#
#######################################################################
#
# If this CIF has been generated from an entry in the Cambridge 
# Structural Database, then it will include bibliographic, chemical, 
# crystal, experimental, refinement or atomic coordinate data resulting 
# from the CCDC's data processing and validation procedures.
#
#######################################################################

data_KAXFIA
_symmetry_cell_setting           orthorhombic
_symmetry_space_group_name_H-M   'P c c a'
_symmetry_Int_Tables_number      54
_space_group_name_Hall           '-P 2a 2ac'
loop_
_symmetry_equiv_pos_site_id
_symmetry_equiv_pos_as_xyz
1 x,y,z
2 1/2-x,-y,z
3 -x,y,1/2-z
4 1/2+x,-y,1/2-z
5 -x,-y,-z
6 1/2+x,y,-z
7 x,-y,1/2+z
8 1/2-x,y,1/2+z
_cell_length_a                   14.347(3)
_cell_length_b                   14.902(3)
_cell_length_c                   12.099(2)
_cell_angle_alpha                90
_cell_angle_beta                 90
_cell_angle_gamma                90
_cell_volume                     2586.75
loop_
_atom_site_label
_atom_site_type_symbol
_atom_site_fract_x
_atom_site_fract_y
_atom_site_fract_z
Ca1 Ca 0.64411(2) 0.75946(2) 0.77894(3)
O1 O 0.62817(10) 0.60077(9) 0.72616(10)
O2 O 0.80927(10) 0.75692(9) 0.80607(12)
H1 H 0.8427(16) 0.7525(15) 0.7482(12)
H2 H 0.8377(16) 0.7352(16) 0.8604(13)
O3 O 0.72230(9) 0.74230(9) 0.59694(11)
H3 H 0.7534(14) 0.7785(13) 0.5560(16)
H4 H 0.6857(13) 0.7132(14) 0.5549(15)
O4 O 0.59049(9) 0.34798(8) 0.95958(10)
O5 O 0.48836(9) 0.75143(7) 0.86565(10)
H5 H 0.4771(15) 0.7045(7) 0.9022(15)
H6 H 0.4706(15) 0.7969(8) 0.9028(15)
O6 O 0.62576(10) 0.90935(8) 0.70893(10)
O8 O 0.66183(9) 1.15223(8) 0.45747(10)
N1 N 0.64645(11) 0.61375(10) 0.91091(13)
N2 N 0.62696(11) 0.48715(10) 1.02390(12)
H9 H 0.6267(16) 0.4621(15) 1.0891(11)
N3 N 0.58746(10) 0.89460(10) 0.52785(12)
N4 N 0.61742(11) 1.01215(10) 0.40498(11)
H10 H 0.6189(15) 1.0364(15) 0.3394(11)
C1 C 0.62679(12) 0.56033(11) 0.81919(14)
C2 C 0.60744(13) 0.46867(11) 0.83223(14)
H11 H 0.5952 0.4335 0.7704
C3 C 0.60644(11) 0.43009(11) 0.93669(14)
C4 C 0.64561(12) 0.57428(11) 1.00633(14)
H12 H 0.6591 0.6093 1.0679
C5 C 0.62021(12) 0.94787(11) 0.61356(13)
C6 C 0.64415(12) 1.03746(12) 0.59419(14)
H13 H 0.6610 1.0741 0.6531
C7 C 0.64289(11) 1.07217(10) 0.48742(14)
C8 C 0.58927(12) 0.92880(11) 0.42909(14)
H14 H 0.5696 0.8927 0.3709
Ca1B Ca 0.35589(2) 0.75946(2) 0.72106(3)
Ca1D Ca 0.35589(2) 1.24054(2) 1.22106(3)
Ca1F Ca 0.64411(2) 1.24054(2) 0.27894(3)
O1B O 0.37183(10) 0.60077(9) 0.77384(10)
O2B O 0.19073(10) 0.75692(9) 0.69393(12)
H1B H 0.1573(16) 0.7525(15) 0.7518(12)
H2B H 0.1623(16) 0.7352(16) 0.6396(13)
O3B O 0.27770(9) 0.74230(9) 0.90306(11)
H3B H 0.2466(14) 0.7785(13) 0.9440(16)
H4B H 0.3143(13) 0.7132(14) 0.9451(15)
O4B O 0.40951(9) 0.34798(8) 0.54042(10)
O5B O 0.51164(9) 0.75143(7) 0.63435(10)
H5B H 0.5229(15) 0.7045(7) 0.5978(15)
H6B H 0.5294(15) 0.7969(8) 0.5972(15)
O6B O 0.37424(10) 0.90935(8) 0.79107(10)
O8B O 0.33817(9) 1.15223(8) 1.04253(10)
O8D O 0.33817(9) 0.84777(8) 0.54253(10)
O8F O 0.66183(9) 0.84777(8) 0.95747(10)
N1B N 0.35355(11) 0.61375(10) 0.58909(13)
N2B N 0.37304(11) 0.48715(10) 0.47610(12)
H9B H 0.3733(16) 0.4621(15) 0.4109(11)
N3B N 0.41254(10) 0.89460(10) 0.97215(12)
N4B N 0.38258(11) 1.01215(10) 1.09502(11)
H10B H 0.3811(15) 1.0364(15) 1.1606(11)
C1B C 0.37321(12) 0.56033(11) 0.68081(14)
C2B C 0.39256(13) 0.46867(11) 0.66777(14)
H11B H 0.4048 0.4335 0.7296
C3B C 0.39356(11) 0.43009(11) 0.56331(14)
C4B C 0.35439(12) 0.57428(11) 0.49367(14)
H12B H 0.3409 0.6093 0.4321
C5B C 0.37979(12) 0.94787(11) 0.88644(13)
C6B C 0.35585(12) 1.03746(12) 0.90581(14)
H13B H 0.3390 1.0741 0.8469
C7B C 0.35711(11) 1.07217(10) 1.01258(14)
C8B C 0.41073(12) 0.92880(11) 1.07091(14)
H14B H 0.4304 0.8927 1.1291
O7 O 0.55946(11) 0.75262(11) 1.13450(13)
H7 H 0.5840(17) 0.7718(18) 1.0746(14)
H8 H 0.5104(12) 0.7242(17) 1.121(2)
loop_
_geom_bond_atom_site_label_1
_geom_bond_atom_site_label_2
_geom_bond_site_symmetry_1
_geom_bond_site_symmetry_2
Ca1 O1 1_555 1_555
O1 C1 1_555 1_555
O2 Ca1 1_555 1_555
H1 O2 1_555 1_555
H2 O2 1_555 1_555
O3 Ca1 1_555 1_555
H3 O3 1_555 1_555
H4 O3 1_555 1_555
O4 C3 1_555 1_555
O5 Ca1 1_555 1_555
H5 O5 1_555 1_555
H6 O5 1_555 1_555
O6 Ca1 1_555 1_555
O7 H7 1_555 1_555
H8 O7 1_555 1_555
O8 C7 1_555 1_555
N1 Ca1 1_555 1_555
N2 H9 1_555 1_555
N3 C5 1_555 1_555
N4 H10 1_555 1_555
C1 N1 1_555 1_555
C2 C1 1_555 1_555
H11 C2 1_555 1_555
C3 N2 1_555 1_555
C4 N1 1_555 1_555
H12 C4 1_555 1_555
C5 O6 1_555 1_555
C6 C5 1_555 1_555
H13 C6 1_555 1_555
C7 N4 1_555 1_555
C8 N3 1_555 1_555
H14 C8 1_555 1_555
Ca1B O5 1_555 1_555
Ca1D O8B 1_555 1_555
Ca1F O8 1_555 1_555
O1B Ca1B 1_555 1_555
O2B Ca1B 1_555 1_555
H1B O2B 1_555 1_555
H2B O2B 1_555 1_555
O3B Ca1B 1_555 1_555
H3B O3B 1_555 1_555
H4B O3B 1_555 1_555
O4B C3B 1_555 1_555
O5B Ca1 1_555 1_555
H5B O5B 1_555 1_555
H6B O5B 1_555 1_555
O6B Ca1B 1_555 1_555
O8B C7B 1_555 1_555
O8D Ca1B 1_555 1_555
O8F Ca1 1_555 1_555
N1B Ca1B 1_555 1_555
N2B H9B 1_555 1_555
N3B C5B 1_555 1_555
N4B H10B 1_555 1_555
C1B O1B 1_555 1_555
C2B C1B 1_555 1_555
H11B C2B 1_555 1_555
C3B N2B 1_555 1_555
C4B N1B 1_555 1_555
H12B C4B 1_555 1_555
C5B O6B 1_555 1_555
C6B C5B 1_555 1_555
H13B C6B 1_555 1_555
C7B N4B 1_555 1_555
C8B N3B 1_555 1_555
H14B C8B 1_555 1_555
N2 C4 1_555 1_555
N4 C8 1_555 1_555
C2 C3 1_555 1_555
C6 C7 1_555 1_555
Ca1B O5B 1_555 1_555
N1B C1B 1_555 1_555
N2B C4B 1_555 1_555
N4B C8B 1_555 1_555
C2B C3B 1_555 1_555
C6B C7B 1_555 1_555

#END
