
#######################################################################
#
#                 Cambridge Crystallographic Data Centre
#                                CCDC 
#
#######################################################################
#
# If this CIF has been generated from an entry in the Cambridge 
# Structural Database, then it will include bibliographic, chemical, 
# crystal, experimental, refinement or atomic coordinate data resulting 
# from the CCDC's data processing and validation procedures.
#
#######################################################################

data_KAXKOK
_symmetry_cell_setting           monoclinic
_symmetry_space_group_name_H-M   'P 2/c'
_symmetry_Int_Tables_number      13
_space_group_name_Hall           '-P 2yc'
loop_
_symmetry_equiv_pos_site_id
_symmetry_equiv_pos_as_xyz
1 x,y,z
2 -x,y,1/2-z
3 -x,-y,-z
4 x,-y,1/2+z
_cell_length_a                   13.811(11)
_cell_length_b                   8.155(7)
_cell_length_c                   7.354(6)
_cell_angle_alpha                90
_cell_angle_beta                 94.667(15)
_cell_angle_gamma                90
_cell_volume                     825.525
loop_
_atom_site_label
_atom_site_type_symbol
_atom_site_fract_x
_atom_site_fract_y
_atom_site_fract_z
Mn1 Mn 0.0000 0.0000 0.5000
C1 C 0.1737(3) -0.2493(5) 0.1270(6)
H1 H 0.1905 -0.2704 0.0093
C2 C 0.1715(3) -0.2533(5) 0.4207(6)
H2 H 0.1867 -0.2759 0.5437
N1 N 0.1098(2) -0.1438(4) 0.3608(5)
N2 N 0.1116(2) -0.1392(4) 0.1717(4)
N3 N 0.2111(2) -0.3306(4) 0.2845(4)
H5 H 0.2507 -0.4121 0.2922
Cl1 Cl 0.0000 0.21394(14) 0.2500
Mn1C Mn 0.0000 0.0000 0.0000
Mn1C_2 Mn 0.0000 0.0000 1.0000
C1B C -0.1737(3) 0.2493(5) 0.8730(6)
H1B H -0.1905 0.2704 0.9907
C2B C -0.1715(3) 0.2533(5) 0.5793(6)
H2B H -0.1867 0.2759 0.4563
N1B N -0.1098(2) 0.1438(4) 0.6392(5)
N2B N -0.1116(2) 0.1392(4) 0.8283(4)
N2C N 0.1116(2) 0.1392(4) 0.6717(4)
N2A N -0.1116(2) -0.1392(4) 0.3283(4)
N3B N -0.2111(2) 0.3306(4) 0.7155(4)
H5B H -0.2507 0.4121 0.7078
Cl1C Cl 0.0000 -0.21394(14) 0.7500
C3 C 0.3841(3) 0.3825(4) 0.2767(5)
C4 C 0.4495(2) 0.2372(4) 0.2580(5)
C5 C 0.4041(3) 0.0872(5) 0.2726(6)
H3 H 0.3381 0.0872 0.2901
C6 C 0.4488(3) -0.0593(5) 0.2631(5)
H4 H 0.4148 -0.1569 0.2731
O1 O 0.29714(17) 0.3644(3) 0.2954(4)
O2 O 0.41856(19) 0.5295(3) 0.2752(4)
H6 H 0.4197 0.5662 0.1514
C3A C 0.6159(3) 0.3825(4) 0.2233(5)
C4A C 0.5505(2) 0.2372(4) 0.2420(5)
C5A C 0.5959(3) 0.0872(5) 0.2274(6)
H3A H 0.6619 0.0872 0.2099
C6A C 0.5512(3) -0.0593(5) 0.2369(5)
H4A H 0.5852 -0.1569 0.2269
O1A O 0.70286(17) 0.3644(3) 0.2046(4)
O2A O 0.58144(19) 0.5295(3) 0.2248(4)
H6A H 0.5803 0.5662 0.3486
loop_
_geom_bond_atom_site_label_1
_geom_bond_atom_site_label_2
_geom_bond_site_symmetry_1
_geom_bond_site_symmetry_2
Mn1 N1 1_555 1_555
C1 H1 1_555 1_555
C2 H2 1_555 1_555
C3 C4 1_555 1_555
C4 C5 1_555 1_555
C5 H3 1_555 1_555
C6 C5 1_555 1_555
H4 C6 1_555 1_555
N1 C2 1_555 1_555
N2 C1 1_555 1_555
N3 C1 1_555 1_555
H5 N3 1_555 1_555
O1 C3 1_555 1_555
O2 C3 1_555 1_555
H6 O2 1_555 1_555
Cl1 Mn1 1_555 1_555
Mn1C N2 1_555 1_555
Mn1C_2 N2B 1_555 1_555
C1B H1B 1_555 1_555
C2B H2B 1_555 1_555
C3A C4A 1_555 1_555
C4A C4 1_555 1_555
C5A C4A 1_555 1_555
H3A C5A 1_555 1_555
C6A C6 1_555 1_555
H4A C6A 1_555 1_555
N1B Mn1 1_555 1_555
N2B C1B 1_555 1_555
N2C Mn1 1_555 1_555
N2A Mn1 1_555 1_555
N3B C1B 1_555 1_555
H5B N3B 1_555 1_555
O1A C3A 1_555 1_555
O2A C3A 1_555 1_555
H6A O2A 1_555 1_555
Cl1C Mn1 1_555 1_555
C2 N3 1_555 1_555
N1 N2 1_555 1_555
Cl1 Mn1C 1_555 1_555
Mn1C_2 Cl1C 1_555 1_555
C2B N1B 1_555 1_555
C2B N3B 1_555 1_555
C5A C6A 1_555 1_555
N1B N2B 1_555 1_555

#END
