
#######################################################################
#
#                 Cambridge Crystallographic Data Centre
#                                CCDC 
#
#######################################################################
#
# If this CIF has been generated from an entry in the Cambridge 
# Structural Database, then it will include bibliographic, chemical, 
# crystal, experimental, refinement or atomic coordinate data resulting 
# from the CCDC's data processing and validation procedures.
#
#######################################################################

data_KAXLAY
_symmetry_cell_setting           triclinic
_symmetry_space_group_name_H-M   'P -1'
_symmetry_Int_Tables_number      2
_space_group_name_Hall           '-P 1'
loop_
_symmetry_equiv_pos_site_id
_symmetry_equiv_pos_as_xyz
1 x,y,z
2 -x,-y,-z
_cell_length_a                   11.826(2)
_cell_length_b                   11.991(2)
_cell_length_c                   13.470(3)
_cell_angle_alpha                103.02(3)
_cell_angle_beta                 94.88(3)
_cell_angle_gamma                99.91(3)
_cell_volume                     1817.92
loop_
_atom_site_label
_atom_site_type_symbol
_atom_site_fract_x
_atom_site_fract_y
_atom_site_fract_z
Co1 Co 0.0000 0.0000 0.0000
S1 S 0.01657(14) 0.10500(14) 0.24740(12)
S2 S -0.15958(14) 0.23342(13) 0.26240(12)
F1 F 0.2104(4) 0.0971(5) 0.3435(4)
F2 F 0.2080(5) 0.2541(5) 0.3015(6)
F3 F 0.1229(5) 0.2208(6) 0.4242(4)
F4 F -0.2138(5) 0.3974(4) 0.3993(4)
F5 F -0.0517(5) 0.4427(4) 0.3525(5)
F6 F -0.0729(5) 0.3282(5) 0.4512(4)
O1 O 0.0624(4) 0.0583(4) 0.1548(3)
O2 O -0.0400(5) 0.0225(4) 0.2940(5)
O3 O -0.2286(4) 0.1454(4) 0.2961(4)
O4 O -0.2128(4) 0.2791(4) 0.1866(3)
N1 N 0.1695(4) 0.0048(4) -0.0260(4)
N2 N -0.0103(4) -0.1718(4) 0.0110(4)
N3 N -0.0387(4) 0.2092(4) 0.2336(4)
C1 C 0.2647(5) 0.0032(5) -0.0224(4)
C2 C 0.3865(5) 0.0007(5) -0.0133(4)
C3 C 0.4376(5) -0.0376(5) -0.0971(4)
H1 H 0.3941 -0.0624 -0.1617
C4 C 0.4451(5) 0.0400(5) 0.0869(5)
H2 H 0.4077 0.0661 0.1430
C5 C -0.0083(5) -0.2666(5) 0.0092(4)
C6 C -0.0042(5) -0.3856(5) 0.0046(4)
C7 C 0.0806(5) -0.4344(5) -0.0440(5)
H3 H 0.1346 -0.3897 -0.0728
C8 C -0.0843(5) -0.4508(5) 0.0493(5)
H4 H -0.1402 -0.4168 0.0826
C9 C 0.1495(8) 0.1768(8) 0.3314(7)
C10 C -0.1198(8) 0.3579(7) 0.3693(7)
Co1_2 Co 0.0000 -1.0000 0.0000
Co1_3 Co 1.0000 0.0000 0.0000
S1A S -0.01657(14) -0.10500(14) -0.24740(12)
S2A S 0.15958(14) -0.23342(13) -0.26240(12)
F1A F -0.2104(4) -0.0971(5) -0.3435(4)
F2A F -0.2080(5) -0.2541(5) -0.3015(6)
F3A F -0.1229(5) -0.2208(6) -0.4242(4)
F4A F 0.2138(5) -0.3974(4) -0.3993(4)
F5A F 0.0517(5) -0.4427(4) -0.3525(5)
F6A F 0.0729(5) -0.3282(5) -0.4512(4)
O1A O -0.0624(4) -0.0583(4) -0.1548(3)
O2A O 0.0400(5) -0.0225(4) -0.2940(5)
O3A O 0.2286(4) -0.1454(4) -0.2961(4)
O4A O 0.2128(4) -0.2791(4) -0.1866(3)
N1A N 0.8305(4) -0.0048(4) 0.0260(4)
N1A_2 N -0.1695(4) -0.0048(4) 0.0260(4)
N2A N 0.0103(4) -0.8282(4) -0.0110(4)
N2A_2 N 0.0103(4) 0.1718(4) -0.0110(4)
N3A N 0.0387(4) -0.2092(4) -0.2336(4)
C1A C 0.7353(5) -0.0032(5) 0.0224(4)
C2A C 0.6135(5) -0.0007(5) 0.0133(4)
C3A C 0.5624(5) 0.0376(5) 0.0971(4)
H1A H 0.6059 0.0624 0.1617
C4A C 0.5549(5) -0.0400(5) -0.0869(5)
H2A H 0.5923 -0.0661 -0.1430
C5A C 0.0083(5) -0.7334(5) -0.0092(4)
C6A C 0.0042(5) -0.6144(5) -0.0046(4)
C7A C -0.0806(5) -0.5656(5) 0.0440(5)
H3A H -0.1346 -0.6103 0.0728
C8A C 0.0843(5) -0.5492(5) -0.0493(5)
H4A H 0.1402 -0.5832 -0.0826
C9A C -0.1495(8) -0.1768(8) -0.3314(7)
C10A C 0.1198(8) -0.3579(7) -0.3693(7)
I1 I 0.42278(4) 0.67731(4) 0.04269(3)
Sn1 Sn 0.43532(4) 0.67995(3) 0.24764(3)
Co2 Co 0.47036(7) 0.47355(7) 0.25830(6)
Co3 Co 0.60924(7) 0.84563(6) 0.34238(6)
Co4 Co 0.23465(7) 0.71973(7) 0.29944(6)
O5 O 0.3745(5) 0.5243(4) 0.4530(4)
O6 O 0.5211(5) 0.2536(4) 0.2916(4)
O7 O 0.3036(5) 0.3658(4) 0.0745(4)
O8 O 0.7074(5) 0.5533(4) 0.2238(5)
O9 O 0.6059(4) 0.7156(4) 0.5012(3)
O10 O 0.8079(4) 1.0142(4) 0.4663(4)
O11 O 0.4541(4) 1.0105(4) 0.3406(4)
O12 O 0.7318(5) 0.7931(5) 0.1630(4)
O13 O 0.1451(4) 0.4706(4) 0.2208(4)
O14 O 0.0100(5) 0.7658(6) 0.3554(5)
O15 O 0.3572(4) 0.8021(4) 0.5082(3)
O16 O 0.2430(4) 0.8767(5) 0.1628(4)
C11 C 0.4125(6) 0.5083(5) 0.3767(5)
C12 C 0.5007(6) 0.3397(5) 0.2777(5)
C13 C 0.3678(6) 0.4098(5) 0.1451(5)
C14 C 0.6125(7) 0.5269(5) 0.2396(6)
C15 C 0.6058(5) 0.7633(5) 0.4365(5)
C16 C 0.7303(6) 0.9507(5) 0.4157(5)
C17 C 0.5137(6) 0.9442(5) 0.3394(5)
C18 C 0.6825(7) 0.8104(6) 0.2306(6)
C19 C 0.1829(6) 0.5712(6) 0.2510(5)
C20 C 0.0973(7) 0.7510(7) 0.3356(6)
C21 C 0.3111(6) 0.7688(6) 0.4259(5)
C22 C 0.2436(5) 0.8155(5) 0.2172(5)
loop_
_geom_bond_atom_site_label_1
_geom_bond_atom_site_label_2
_geom_bond_site_symmetry_1
_geom_bond_site_symmetry_2
Co1 O1 1_555 1_555
S1 O1 1_555 1_555
S2 O3 1_555 1_555
F1 C9 1_555 1_555
F2 C9 1_555 1_555
F3 C9 1_555 1_555
F4 C10 1_555 1_555
F5 C10 1_555 1_555
F6 C10 1_555 1_555
O2 S1 1_555 1_555
O4 S2 1_555 1_555
N1 Co1 1_555 1_555
N2 Co1 1_555 1_555
N3 S1 1_555 1_555
C1 N1 1_555 1_555
C2 C1 1_555 1_555
C3 C2 1_555 1_555
H1 C3 1_555 1_555
C4 C2 1_555 1_555
H2 C4 1_555 1_555
C5 N2 1_555 1_555
C6 C5 1_555 1_555
C7 C6 1_555 1_555
H3 C7 1_555 1_555
C8 C6 1_555 1_555
H4 C8 1_555 1_555
C9 S1 1_555 1_555
C10 S2 1_555 1_555
I1 Sn1 1_555 1_555
Sn1 Co2 1_555 1_555
Co2 C11 1_555 1_555
Co3 Sn1 1_555 1_555
Co4 Sn1 1_555 1_555
O5 C11 1_555 1_555
O6 C12 1_555 1_555
O7 C13 1_555 1_555
O8 C14 1_555 1_555
O9 C15 1_555 1_555
O10 C16 1_555 1_555
O11 C17 1_555 1_555
O12 C18 1_555 1_555
O13 C19 1_555 1_555
O14 C20 1_555 1_555
O15 C21 1_555 1_555
O16 C22 1_555 1_555
C12 Co2 1_555 1_555
C13 Co2 1_555 1_555
C14 Co2 1_555 1_555
C15 Co3 1_555 1_555
C16 Co3 1_555 1_555
C17 Co3 1_555 1_555
C18 Co3 1_555 1_555
C19 Co4 1_555 1_555
C20 Co4 1_555 1_555
C21 Co4 1_555 1_555
C22 Co4 1_555 1_555
Co1_2 N2A 1_555 1_555
Co1_3 N1A 1_555 1_555
S1A O1A 1_555 1_555
S2A O3A 1_555 1_555
F1A C9A 1_555 1_555
F2A C9A 1_555 1_555
F3A C9A 1_555 1_555
F4A C10A 1_555 1_555
F5A C10A 1_555 1_555
F6A C10A 1_555 1_555
O1A Co1 1_555 1_555
O2A S1A 1_555 1_555
O4A S2A 1_555 1_555
N1A C1A 1_555 1_555
N1A_2 Co1 1_555 1_555
N2A C5A 1_555 1_555
N2A_2 Co1 1_555 1_555
N3A S1A 1_555 1_555
C1A C2A 1_555 1_555
C2A C3A 1_555 1_555
C3A C4 1_555 1_555
H1A C3A 1_555 1_555
C4A C3 1_555 1_555
H2A C4A 1_555 1_555
C5A C6A 1_555 1_555
C6A C7A 1_555 1_555
C7A C8 1_555 1_555
H3A C7A 1_555 1_555
C8A C7 1_555 1_555
H4A C8A 1_555 1_555
C9A S1A 1_555 1_555
C10A S2A 1_555 1_555
S2 N3 1_555 1_555
S2A N3A 1_555 1_555
C2A C4A 1_555 1_555
C6A C8A 1_555 1_555

#END
