
#######################################################################
#
#                 Cambridge Crystallographic Data Centre
#                                CCDC 
#
#######################################################################
#
# If this CIF has been generated from an entry in the Cambridge 
# Structural Database, then it will include bibliographic, chemical, 
# crystal, experimental, refinement or atomic coordinate data resulting 
# from the CCDC's data processing and validation procedures.
#
#######################################################################

data_KAXTEK
_symmetry_cell_setting           triclinic
_symmetry_space_group_name_H-M   'P -1'
_symmetry_Int_Tables_number      2
_space_group_name_Hall           '-P 1'
loop_
_symmetry_equiv_pos_site_id
_symmetry_equiv_pos_as_xyz
1 x,y,z
2 -x,-y,-z
_cell_length_a                   8.605(11)
_cell_length_b                   11.526(14)
_cell_length_c                   12.862(16)
_cell_angle_alpha                113.698(17)
_cell_angle_beta                 99.844(17)
_cell_angle_gamma                101.204(17)
_cell_volume                     1100.91
loop_
_atom_site_label
_atom_site_type_symbol
_atom_site_fract_x
_atom_site_fract_y
_atom_site_fract_z
Zn1 Zn 0.64485(6) 0.30929(5) 0.39458(4)
C1 C 0.8626(5) 0.3965(5) 0.6043(4)
C2 C 0.9735(6) 0.4894(5) 0.7228(4)
H1 H 0.9890 0.5792 0.7456
C3 C 1.0512(6) 0.4581(5) 0.7981(4)
H2 H 1.0332 0.3678 0.7741
C4 C 1.1632(6) 0.5448(5) 0.9154(4)
C5 C 1.2052(9) 0.6819(6) 0.9633(6)
H3 H 1.1605 0.7215 0.9200
C6 C 1.3119(11) 0.7597(7) 1.0742(7)
H4 H 1.3392 0.8515 1.1055
C7 C 1.3793(10) 0.7019(6) 1.1398(6)
H5 H 1.4528 0.7556 1.2142
C8 C 1.2329(6) 0.4925(5) 0.9843(4)
H6 H 1.2071 0.4009 0.9537
C9 C 1.3402(7) 0.5699(5) 1.0976(5)
C10 C 1.4122(7) 0.5083(6) 1.1685(5)
H7 H 1.4944 0.5660 1.2380
C11 C 1.3748(7) 0.3856(5) 1.1456(5)
H8 H 1.2958 0.3261 1.0750
C12 C 1.4464(6) 0.3304(5) 1.2217(4)
C13 C 0.9213(5) 0.2205(5) 0.3173(4)
H9 H 0.9822 0.2914 0.3897
C14 C 0.6724(6) 0.0832(5) 0.1859(4)
H10 H 0.5578 0.0593 0.1658
C15 C 0.7463(6) 0.0094(5) 0.1085(4)
H11 H 0.6831 -0.0642 0.0385
C16 C 1.0041(6) 0.1528(5) 0.2428(4)
H12 H 1.1188 0.1794 0.2648
C17 C 0.9187(6) 0.0461(5) 0.1361(4)
C18 C 1.0013(8) -0.0237(6) 0.0467(5)
H13 H 1.102(3) -0.004(5) 0.084(4)
H14 H 0.959(6) -0.106(2) 0.020(4)
C19 C 0.0806(7) 0.0338(7) 0.5497(6)
H15 H 0.103(8) -0.050(6) 0.557(5)
H16 H 0.063(8) 0.106(6) 0.615(6)
C20 C 0.2137(6) 0.0995(5) 0.5112(4)
C21 C 0.2532(6) 0.2310(5) 0.5405(4)
H17 H 0.1975 0.2840 0.5857
C22 C 0.2983(7) 0.0248(5) 0.4417(6)
H18 H 0.2731 -0.0659 0.4175
C23 C 0.4201(6) 0.0872(5) 0.4093(5)
H19 H 0.4784 0.0364 0.3648
C24 C 0.3756(6) 0.2855(5) 0.5030(4)
H20 H 0.4009 0.3757 0.5246
O1 O 0.8365(5) 0.2767(4) 0.5699(3)
O2 O 0.8009(4) 0.4476(3) 0.5430(3)
O3 O 1.5603(4) 0.4070(3) 1.3134(3)
O4 O 1.3906(5) 0.2076(4) 1.1863(3)
N1 N 0.7572(4) 0.1890(3) 0.2901(3)
N2 N 0.4596(4) 0.2151(3) 0.4373(3)
Zn1A Zn -0.64485(6) -0.30929(5) 0.60542(4)
Zn1_2 Zn 1.64485(6) 0.30929(5) 1.39458(4)
Zn1A_2 Zn -1.64485(6) -0.30929(5) -0.39458(4)
Zn1A_3 Zn 1.35515(6) -0.30929(5) -0.39458(4)
C1A C -0.8626(5) -0.3965(5) 0.3957(4)
C2A C -0.9735(6) -0.4894(5) 0.2772(4)
H1A H -0.9890 -0.5792 0.2544
C3A C -1.0512(6) -0.4581(5) 0.2019(4)
H2A H -1.0332 -0.3678 0.2259
C4A C -1.1632(6) -0.5448(5) 0.0846(4)
C5A C -1.2052(9) -0.6819(6) 0.0367(6)
H3A H -1.1605 -0.7215 0.0800
C6A C -1.3119(11) -0.7597(7) -0.0742(7)
H4A H -1.3392 -0.8515 -0.1055
C7A C -1.3793(10) -0.7019(6) -0.1398(6)
H5A H -1.4528 -0.7556 -0.2142
C8A C -1.2329(6) -0.4925(5) 0.0157(4)
H6A H -1.2071 -0.4009 0.0463
C9A C -1.3402(7) -0.5699(5) -0.0976(5)
C10A C -1.4122(7) -0.5083(6) -0.1685(5)
H7A H -1.4944 -0.5660 -0.2380
C11A C -1.3748(7) -0.3856(5) -0.1456(5)
H8A H -1.2958 -0.3261 -0.0750
C12A C -1.4464(6) -0.3304(5) -0.2217(4)
C13A C 1.0787(5) -0.2205(5) -0.3173(4)
H9A H 1.0178 -0.2914 -0.3897
C14A C 1.3276(6) -0.0832(5) -0.1859(4)
H10A H 1.4422 -0.0593 -0.1658
C15A C 1.2537(6) -0.0094(5) -0.1085(4)
H11A H 1.3169 0.0642 -0.0385
C16A C 0.9959(6) -0.1528(5) -0.2428(4)
H12A H 0.8812 -0.1794 -0.2648
C17A C 1.0813(6) -0.0461(5) -0.1361(4)
C18A C 0.9987(8) 0.0237(6) -0.0467(5)
H13A H 0.898(3) 0.004(5) -0.084(4)
H14A H 1.041(6) 0.106(2) -0.020(4)
C19A C -0.0806(7) -0.0338(7) 0.4503(6)
H15A H -0.103(8) 0.050(6) 0.443(5)
H16A H -0.063(8) -0.106(6) 0.385(6)
C20A C -0.2137(6) -0.0995(5) 0.4888(4)
C21A C -0.2532(6) -0.2310(5) 0.4595(4)
H17A H -0.1975 -0.2840 0.4143
C22A C -0.2983(7) -0.0248(5) 0.5583(6)
H18A H -0.2731 0.0659 0.5825
C23A C -0.4201(6) -0.0872(5) 0.5907(5)
H19A H -0.4784 -0.0364 0.6352
C24A C -0.3756(6) -0.2855(5) 0.4970(4)
H20A H -0.4009 -0.3757 0.4754
O1A O -0.8365(5) -0.2767(4) 0.4301(3)
O2A O -0.8009(4) -0.4476(3) 0.4570(3)
O3A O -1.5603(4) -0.4070(3) -0.3134(3)
O3_2 O 0.5603(4) 0.4070(3) 0.3134(3)
O3A_2 O -0.5603(4) -0.4070(3) 0.6866(3)
O4A O -1.3906(5) -0.2076(4) -0.1863(3)
N1A N 1.2428(4) -0.1890(3) -0.2901(3)
N1A_2 N -0.7572(4) -0.1890(3) 0.7099(3)
N2A N -0.4596(4) -0.2151(3) 0.5627(3)
loop_
_geom_bond_atom_site_label_1
_geom_bond_atom_site_label_2
_geom_bond_site_symmetry_1
_geom_bond_site_symmetry_2
Zn1 O2 1_555 1_555
C1 C2 1_555 1_555
C2 H1 1_555 1_555
C3 C2 1_555 1_555
H2 C3 1_555 1_555
C4 C3 1_555 1_555
C5 C4 1_555 1_555
H3 C5 1_555 1_555
C6 C5 1_555 1_555
H4 C6 1_555 1_555
C7 C6 1_555 1_555
H5 C7 1_555 1_555
C8 C4 1_555 1_555
H6 C8 1_555 1_555
C9 C7 1_555 1_555
C10 C9 1_555 1_555
H7 C10 1_555 1_555
C11 C10 1_555 1_555
H8 C11 1_555 1_555
C12 C11 1_555 1_555
C13 H9 1_555 1_555
C14 H10 1_555 1_555
C15 C14 1_555 1_555
H11 C15 1_555 1_555
C16 C13 1_555 1_555
H12 C16 1_555 1_555
C17 C15 1_555 1_555
C18 C17 1_555 1_555
H13 C18 1_555 1_555
H14 C18 1_555 1_555
C19 H15 1_555 1_555
H16 C19 1_555 1_555
C20 C19 1_555 1_555
C21 C20 1_555 1_555
H17 C21 1_555 1_555
C22 C20 1_555 1_555
H18 C22 1_555 1_555
C23 C22 1_555 1_555
H19 C23 1_555 1_555
C24 C21 1_555 1_555
H20 C24 1_555 1_555
O1 C1 1_555 1_555
O2 C1 1_555 1_555
O3 C12 1_555 1_555
O4 C12 1_555 1_555
N1 Zn1 1_555 1_555
N2 Zn1 1_555 1_555
Zn1A O2A 1_555 1_555
Zn1_2 O3 1_555 1_555
Zn1A_2 O3A 1_555 1_555
Zn1A_3 N1A 1_555 1_555
C1A C2A 1_555 1_555
C2A H1A 1_555 1_555
C3A C2A 1_555 1_555
H2A C3A 1_555 1_555
C4A C3A 1_555 1_555
C5A C4A 1_555 1_555
H3A C5A 1_555 1_555
C6A C5A 1_555 1_555
H4A C6A 1_555 1_555
C7A C6A 1_555 1_555
H5A C7A 1_555 1_555
C8A C4A 1_555 1_555
H6A C8A 1_555 1_555
C9A C7A 1_555 1_555
C10A C9A 1_555 1_555
H7A C10A 1_555 1_555
C11A C10A 1_555 1_555
H8A C11A 1_555 1_555
C12A C11A 1_555 1_555
C13A H9A 1_555 1_555
C14A H10A 1_555 1_555
C15A C14A 1_555 1_555
H11A C15A 1_555 1_555
C16A C13A 1_555 1_555
H12A C16A 1_555 1_555
C17A C15A 1_555 1_555
C18A C18 1_555 1_555
H13A C18A 1_555 1_555
H14A C18A 1_555 1_555
C19A C19 1_555 1_555
H15A C19A 1_555 1_555
H16A C19A 1_555 1_555
C20A C19A 1_555 1_555
C21A C20A 1_555 1_555
H17A C21A 1_555 1_555
C22A C20A 1_555 1_555
H18A C22A 1_555 1_555
C23A C22A 1_555 1_555
H19A C23A 1_555 1_555
C24A C21A 1_555 1_555
H20A C24A 1_555 1_555
O1A C1A 1_555 1_555
O2A C1A 1_555 1_555
O3A C12A 1_555 1_555
O3_2 Zn1 1_555 1_555
O3A_2 Zn1A 1_555 1_555
O4A C12A 1_555 1_555
N1A C13A 1_555 1_555
N1A_2 Zn1A 1_555 1_555
N2A Zn1A 1_555 1_555
C8 C9 1_555 1_555
C13 N1 1_555 1_555
C14 N1 1_555 1_555
C16 C17 1_555 1_555
C23 N2 1_555 1_555
C24 N2 1_555 1_555
C8A C9A 1_555 1_555
C14A N1A 1_555 1_555
C16A C17A 1_555 1_555
C17A C18A 1_555 1_555
C23A N2A 1_555 1_555
C24A N2A 1_555 1_555

#END
