
#######################################################################
#
#                 Cambridge Crystallographic Data Centre
#                                CCDC 
#
#######################################################################
#
# If this CIF has been generated from an entry in the Cambridge 
# Structural Database, then it will include bibliographic, chemical, 
# crystal, experimental, refinement or atomic coordinate data resulting 
# from the CCDC's data processing and validation procedures.
#
#######################################################################

data_KAXTIO
_symmetry_cell_setting           monoclinic
_symmetry_space_group_name_H-M   'C 2/c'
_symmetry_Int_Tables_number      15
_space_group_name_Hall           '-C 2yn'
loop_
_symmetry_equiv_pos_site_id
_symmetry_equiv_pos_as_xyz
1 x,y,z
2 -x,y,1/2-z
3 1/2+x,1/2+y,z
4 1/2-x,1/2+y,1/2-z
5 -x,-y,-z
6 x,-y,1/2+z
7 1/2-x,1/2-y,-z
8 1/2+x,1/2-y,1/2+z
_cell_length_a                   18.8968(7)
_cell_length_b                   16.8266(6)
_cell_length_c                   16.1483(6)
_cell_angle_alpha                90
_cell_angle_beta                 108.3490(10)
_cell_angle_gamma                90
_cell_volume                     4873.59
loop_
_atom_site_label
_atom_site_type_symbol
_atom_site_fract_x
_atom_site_fract_y
_atom_site_fract_z
Zn1 Zn 0.32595(2) 0.09607(2) 0.72573(3)
C1 C 0.3650(2) 0.2087(2) 0.6317(2)
C2 C 0.4147(2) 0.2533(2) 0.5936(2)
H1 H 0.4650 0.2574 0.6255
C3 C 0.3908(2) 0.2877(2) 0.5159(2)
H2 H 0.3404 0.2827 0.4848
C4 C 0.43678(19) 0.33279(19) 0.4749(2)
C5 C 0.5032(2) 0.3676(2) 0.5248(2)
H3 H 0.5186 0.3607 0.5850
C6 C 0.4142(2) 0.3432(2) 0.3855(2)
H4 H 0.3700 0.3205 0.3509
C7 C 0.4575(2) 0.3876(3) 0.3473(3)
H5 H 0.4424 0.3943 0.2871
C8 C 0.5235(2) 0.4221(2) 0.3991(3)
H6 H 0.5521 0.4521 0.3732
C9 C 0.5471(2) 0.4121(2) 0.4884(3)
C10 C 0.6157(2) 0.4486(2) 0.5498(3)
H7 H 0.6202 0.4456 0.6088
C11 C 0.6692(2) 0.4837(3) 0.5314(3)
H8 H 0.6662 0.4887 0.4730
C12 C 0.7344(3) 0.5160(3) 0.5975(5)
C13 C -0.1181(2) 0.4518(2) 0.8372(3)
H9 H -0.1680 0.4371 0.8184
C14 C -0.02678(18) 0.5416(2) 0.8390(2)
H10 H -0.0124 0.5898 0.8211
C15 C 0.02698(19) 0.4941(2) 0.8935(2)
H11 H 0.0765 0.5106 0.9125
C16 C -0.0677(2) 0.4015(2) 0.8905(3)
H12 H -0.0837 0.3536 0.9071
C17 C 0.0073(2) 0.4211(2) 0.9203(2)
C18 C 0.0637(2) 0.3668(3) 0.9802(3)
H13 H 0.0402 0.3406 1.0181
H14 H 0.1038 0.3993 1.0168
O1 O 0.39776(14) 0.16135(16) 0.69320(17)
O2 O 0.29637(14) 0.21861(18) 0.60577(18)
O3 O 0.7355(2) 0.5193(2) 0.6798(3)
O4 O 0.7859(3) 0.5418(3) 0.5749(4)
N1 N -0.09896(15) 0.52181(16) 0.81041(18)
C19 C 0.0978(3) 0.3035(3) 0.9380(4)
H15 H 0.1270 0.2676 0.9827
H16 H 0.0582 0.2730 0.8978
C20 C 0.1437(4) 0.3356(3) 0.8928(4)
H17 H 0.1760 0.3752 0.9296
H18 H 0.1124 0.3626 0.8411
C21 C 0.1939(3) 0.2728(3) 0.8638(4)
C22 C 0.1877(3) 0.1912(4) 0.8688(4)
H19 H 0.1554 0.1696 0.8960
C23 C 0.2440(3) 0.2994(3) 0.8278(3)
H20 H 0.2524 0.3538 0.8258
C24 C 0.2292(3) 0.1410(3) 0.8334(3)
H21 H 0.2232 0.0863 0.8367
C25 C 0.2831(2) 0.2472(2) 0.7937(3)
H22 H 0.3164 0.2683 0.7675
N2 N 0.27680(15) 0.16811(17) 0.79536(19)
Zn1B Zn -0.17405(2) -0.40393(2) 0.72573(3)
Zn1B_2 Zn 0.82595(2) 0.59607(2) 0.72573(3)
Zn1B_3 Zn -0.17405(2) 0.59607(2) 0.72573(3)
Zn1B_4 Zn 0.82595(2) -0.40393(2) 0.72573(3)
C1B C -0.1350(2) -0.2913(2) 0.6317(2)
C2B C -0.0853(2) -0.2467(2) 0.5936(2)
H1B H -0.0350 -0.2426 0.6255
C3B C -0.1092(2) -0.2123(2) 0.5159(2)
H2B H -0.1596 -0.2173 0.4848
C4B C -0.06322(19) -0.16721(19) 0.4749(2)
C5B C 0.0032(2) -0.1324(2) 0.5248(2)
H3B H 0.0186 -0.1393 0.5850
C6B C -0.0858(2) -0.1568(2) 0.3855(2)
H4B H -0.1300 -0.1795 0.3509
C7B C -0.0425(2) -0.1124(3) 0.3473(3)
H5B H -0.0576 -0.1057 0.2871
C8B C 0.0235(2) -0.0779(2) 0.3991(3)
H6B H 0.0521 -0.0479 0.3732
C9B C 0.0471(2) -0.0879(2) 0.4884(3)
C10B C 0.1157(2) -0.0514(2) 0.5498(3)
H7B H 0.1202 -0.0544 0.6088
C11B C 0.1692(2) -0.0163(3) 0.5314(3)
H8B H 0.1662 -0.0113 0.4730
C12B C 0.2344(3) 0.0160(3) 0.5975(5)
C13B C 0.3819(2) -0.0482(2) 0.8372(3)
H9B H 0.3320 -0.0629 0.8184
C14B C 0.47322(18) 0.0416(2) 0.8390(2)
H10B H 0.4876 0.0898 0.8211
C15B C 0.52698(19) -0.0059(2) 0.8935(2)
H11B H 0.5765 0.0106 0.9125
C16B C 0.4323(2) -0.0985(2) 0.8905(3)
H12B H 0.4163 -0.1464 0.9071
C17B C 0.5073(2) -0.0789(2) 0.9203(2)
C18B C 0.5637(2) -0.1332(3) 0.9802(3)
H13B H 0.5402 -0.1594 1.0181
H14B H 0.6038 -0.1007 1.0168
O1B O -0.10224(14) -0.33865(16) 0.69320(17)
O2B O -0.20363(14) -0.28139(18) 0.60577(18)
O3B O 0.2355(2) 0.0193(2) 0.6798(3)
O3_2 O -0.2645(2) -0.4807(2) 0.6798(3)
O4B O 0.2859(3) 0.0418(3) 0.5749(4)
N1B N 0.40104(15) 0.02181(16) 0.81041(18)
N1_2 N -0.09896(15) -0.47819(16) 0.81041(18)
C19B C 0.5978(3) -0.1965(3) 0.9380(4)
H15B H 0.6270 -0.2324 0.9827
H16B H 0.5582 -0.2270 0.8978
C20B C 0.6437(4) -0.1644(3) 0.8928(4)
H17B H 0.6760 -0.1248 0.9296
H18B H 0.6124 -0.1374 0.8411
C21B C 0.6939(3) -0.2272(3) 0.8638(4)
C22B C 0.6877(3) -0.3088(4) 0.8688(4)
H19B H 0.6554 -0.3304 0.8960
C23B C 0.7440(3) -0.2006(3) 0.8278(3)
H20B H 0.7524 -0.1462 0.8258
C24B C 0.7292(3) -0.3590(3) 0.8334(3)
H21B H 0.7232 -0.4137 0.8367
C25B C 0.7831(2) -0.2528(2) 0.7937(3)
H22B H 0.8164 -0.2317 0.7675
N2B N 0.77680(15) -0.33189(17) 0.79536(19)
N2B_2 N -0.22320(15) -0.33189(17) 0.79536(19)
O5 O 0.5000 0.3844(5) 0.7500
H23 H 0.4618(10) 0.416(2) 0.740(10)
H23A H 0.5382(10) 0.416(2) 0.760(10)
O6 O 0.2444(2) 0.3753(2) 0.5858(3)
H24 H 0.238(4) 0.401(3) 0.539(3)
H25 H 0.260(4) 0.329(2) 0.579(4)
O7 O 0.3568(3) 0.4562(3) 0.7055(4)
H26 H 0.329(5) 0.460(6) 0.739(5)
H27 H 0.338(5) 0.418(4) 0.670(5)
loop_
_geom_bond_atom_site_label_1
_geom_bond_atom_site_label_2
_geom_bond_site_symmetry_1
_geom_bond_site_symmetry_2
Zn1 O1 1_555 1_555
C1 C2 1_555 1_555
C2 H1 1_555 1_555
C3 C2 1_555 1_555
H2 C3 1_555 1_555
C4 C3 1_555 1_555
C5 C4 1_555 1_555
H3 C5 1_555 1_555
C6 C4 1_555 1_555
H4 C6 1_555 1_555
C7 C6 1_555 1_555
H5 C7 1_555 1_555
C8 C7 1_555 1_555
H6 C8 1_555 1_555
C9 C5 1_555 1_555
C10 C9 1_555 1_555
H7 C10 1_555 1_555
C11 C10 1_555 1_555
H8 C11 1_555 1_555
C12 C11 1_555 1_555
C13 H9 1_555 1_555
C14 H10 1_555 1_555
C15 C14 1_555 1_555
H11 C15 1_555 1_555
C16 C13 1_555 1_555
H12 C16 1_555 1_555
C17 C15 1_555 1_555
C18 C17 1_555 1_555
H13 C18 1_555 1_555
H14 C18 1_555 1_555
O1 C1 1_555 1_555
O2 C1 1_555 1_555
O3 C12 1_555 1_555
O4 C12 1_555 1_555
N1 C13 1_555 1_555
C19 C18 1_555 1_555
H15 C19 1_555 1_555
H16 C19 1_555 1_555
C20 C19 1_555 1_555
H17 C20 1_555 1_555
H18 C20 1_555 1_555
C21 C20 1_555 1_555
C22 C21 1_555 1_555
H19 C22 1_555 1_555
C23 C21 1_555 1_555
H20 C23 1_555 1_555
C24 C22 1_555 1_555
H21 C24 1_555 1_555
C25 C23 1_555 1_555
H22 C25 1_555 1_555
N2 Zn1 1_555 1_555
O5 H23 1_555 1_555
O6 H24 1_555 1_555
H25 O6 1_555 1_555
O7 H26 1_555 1_555
H27 O7 1_555 1_555
Zn1B O1B 1_555 1_555
Zn1B_2 O3 1_555 1_555
Zn1B_3 N1 1_555 1_555
Zn1B_4 N2B 1_555 1_555
C1B C2B 1_555 1_555
C2B H1B 1_555 1_555
C3B C2B 1_555 1_555
H2B C3B 1_555 1_555
C4B C3B 1_555 1_555
C5B C4B 1_555 1_555
H3B C5B 1_555 1_555
C6B C4B 1_555 1_555
H4B C6B 1_555 1_555
C7B C6B 1_555 1_555
H5B C7B 1_555 1_555
C8B C7B 1_555 1_555
H6B C8B 1_555 1_555
C9B C5B 1_555 1_555
C10B C9B 1_555 1_555
H7B C10B 1_555 1_555
C11B C10B 1_555 1_555
H8B C11B 1_555 1_555
C12B C11B 1_555 1_555
C13B H9B 1_555 1_555
C14B H10B 1_555 1_555
C15B C14B 1_555 1_555
H11B C15B 1_555 1_555
C16B C13B 1_555 1_555
H12B C16B 1_555 1_555
C17B C15B 1_555 1_555
C18B C17B 1_555 1_555
H13B C18B 1_555 1_555
H14B C18B 1_555 1_555
O1B C1B 1_555 1_555
O2B C1B 1_555 1_555
O3B Zn1 1_555 1_555
O3_2 Zn1B 1_555 1_555
O4B C12B 1_555 1_555
N1B Zn1 1_555 1_555
N1_2 Zn1B 1_555 1_555
C19B C18B 1_555 1_555
H15B C19B 1_555 1_555
H16B C19B 1_555 1_555
C20B C19B 1_555 1_555
H17B C20B 1_555 1_555
H18B C20B 1_555 1_555
C21B C20B 1_555 1_555
C22B C21B 1_555 1_555
H19B C22B 1_555 1_555
C23B C21B 1_555 1_555
H20B C23B 1_555 1_555
C24B C22B 1_555 1_555
H21B C24B 1_555 1_555
C25B C23B 1_555 1_555
H22B C25B 1_555 1_555
N2B C24B 1_555 1_555
N2B_2 Zn1B 1_555 1_555
H23A O5 1_555 1_555
C8 C9 1_555 1_555
C14 N1 1_555 1_555
C16 C17 1_555 1_555
C24 N2 1_555 1_555
C25 N2 1_555 1_555
C8B C9B 1_555 1_555
C12B O3B 1_555 1_555
C13B N1B 1_555 1_555
C14B N1B 1_555 1_555
C16B C17B 1_555 1_555
C25B N2B 1_555 1_555

#END
