
#######################################################################
#
#                 Cambridge Crystallographic Data Centre
#                                CCDC 
#
#######################################################################
#
# If this CIF has been generated from an entry in the Cambridge 
# Structural Database, then it will include bibliographic, chemical, 
# crystal, experimental, refinement or atomic coordinate data resulting 
# from the CCDC's data processing and validation procedures.
#
#######################################################################

data_KAXTOU
_symmetry_cell_setting           triclinic
_symmetry_space_group_name_H-M   'P -1'
_symmetry_Int_Tables_number      2
_space_group_name_Hall           '-P 1'
loop_
_symmetry_equiv_pos_site_id
_symmetry_equiv_pos_as_xyz
1 x,y,z
2 -x,-y,-z
_cell_length_a                   11.0529(10)
_cell_length_b                   13.3248(10)
_cell_length_c                   13.3632(8)
_cell_angle_alpha                100.674(6)
_cell_angle_beta                 94.942(6)
_cell_angle_gamma                99.900(7)
_cell_volume                     1891.04
loop_
_atom_site_label
_atom_site_type_symbol
_atom_site_fract_x
_atom_site_fract_y
_atom_site_fract_z
Ag2 Ag 0.83021(10) 0.09835(9) 0.17115(8)
Ag3 Ag 0.0000 0.0000 -1.0000
C1 C 0.2833(12) -0.3933(10) -0.4907(9)
C2 C 0.2863(14) -0.4474(11) -0.5883(10)
H1 H 0.3336 -0.4168 -0.6328
C3 C 0.2183(13) -0.5480(11) -0.6203(10)
H2 H 0.2162 -0.5832 -0.6875
C4 C 0.1549(12) -0.5949(10) -0.5535(9)
C5 C 0.1546(13) -0.5448(10) -0.4535(10)
H3 H 0.1128 -0.5784 -0.4079
C6 C 0.2192(13) -0.4417(10) -0.4225(10)
H4 H 0.2190 -0.4057 -0.3559
C7 C 0.0733(13) -0.7800(11) -0.5418(10)
H5 H 0.1157 -0.7827 -0.4795
C8 C 0.0013(12) -0.7257(10) -0.6770(9)
H6 H -0.0118 -0.6831 -0.7231
C9 C -0.0095(13) -0.8589(11) -0.6064(11)
H7 H -0.0317 -0.9265 -0.5961
C10 C 0.4043(11) -0.2431(9) -0.3619(9)
C11 C 0.4687(13) -0.3047(10) -0.3122(11)
H8 H 0.4737 -0.3711 -0.3461
C12 C 0.5253(12) -0.2672(10) -0.2123(10)
H9 H 0.5665 -0.3090 -0.1785
C13 C 0.5201(12) -0.1693(10) -0.1641(9)
C14 C 0.4605(11) -0.1040(10) -0.2138(9)
H10 H 0.4602 -0.0361 -0.1812
C15 C 0.4010(11) -0.1441(11) -0.3146(10)
H11 H 0.3595 -0.1029 -0.3487
C16 C 0.6527(12) -0.0336(10) -0.0243(10)
H12 H 0.6592 0.0216 -0.0584
C17 C 0.5987(16) -0.1858(11) 0.0114(11)
H13 H 0.5648 -0.2558 0.0063
C18 C 0.6719(14) -0.1214(10) 0.0931(10)
H14 H 0.6926 -0.1381 0.1561
C19 C 0.3094(12) -0.2216(11) -0.5276(10)
C20 C 0.1860(12) -0.2345(10) -0.5744(11)
H15 H 0.1264 -0.2879 -0.5625
C21 C 0.1530(12) -0.1717(11) -0.6354(10)
H16 H 0.0709 -0.1811 -0.6634
C22 C 0.2396(11) -0.0934(10) -0.6570(9)
C23 C 0.3629(13) -0.0788(12) -0.6142(11)
H17 H 0.4223 -0.0271 -0.6294
C24 C 0.3949(13) -0.1401(11) -0.5511(11)
H18 H 0.4768 -0.1284 -0.5217
C25 C 0.1194(11) -0.0625(11) -0.8102(11)
H19 H 0.0784 -0.1310 -0.8337
C26 C 0.1838(12) 0.1004(10) -0.7971(10)
H20 H 0.1943 0.1671 -0.8108
C27 C 0.2430(12) 0.0737(10) -0.7188(9)
H21 H 0.3017 0.1177 -0.6685
N1 N 0.3439(11) -0.2855(9) -0.4633(8)
N2 N 0.5844(10) -0.1274(9) -0.0622(8)
N3 N 0.7097(9) -0.0285(9) 0.0671(8)
N4 N 0.0801(10) -0.6968(8) -0.5883(8)
N5 N -0.0531(10) -0.8227(9) -0.6870(8)
N6 N 0.2027(10) -0.0294(8) -0.7253(8)
N7 N 0.1040(9) 0.0144(8) -0.8551(7)
Ag2_2 Ag -0.16979(10) -0.90165(9) -0.82885(8)
Ag2A Ag 0.16979(10) 0.90165(9) -1.17115(8)
Ag2A_2 Ag -0.83021(10) -0.09835(9) -2.17115(8)
C1A C -0.2833(12) 0.3933(10) -1.5093(9)
C2A C -0.2863(14) 0.4474(11) -1.4117(10)
H1A H -0.3336 0.4168 -1.3672
C3A C -0.2183(13) 0.5480(11) -1.3797(10)
H2A H -0.2162 0.5832 -1.3125
C4A C -0.1549(12) 0.5949(10) -1.4465(9)
C5A C -0.1546(13) 0.5448(10) -1.5465(10)
H3A H -0.1128 0.5784 -1.5921
C6A C -0.2192(13) 0.4417(10) -1.5775(10)
H4A H -0.2190 0.4057 -1.6441
C7A C -0.0733(13) 0.7800(11) -1.4582(10)
H5A H -0.1157 0.7827 -1.5205
C8A C -0.0013(12) 0.7257(10) -1.3230(9)
H6A H 0.0118 0.6831 -1.2769
C9A C 0.0095(13) 0.8589(11) -1.3936(11)
H7A H 0.0317 0.9265 -1.4039
C10A C -0.4043(11) 0.2431(9) -1.6381(9)
C11A C -0.4687(13) 0.3047(10) -1.6878(11)
H8A H -0.4737 0.3711 -1.6539
C12A C -0.5253(12) 0.2672(10) -1.7877(10)
H9A H -0.5665 0.3090 -1.8215
C13A C -0.5201(12) 0.1693(10) -1.8359(9)
C14A C -0.4605(11) 0.1040(10) -1.7862(9)
H10A H -0.4602 0.0361 -1.8188
C15A C -0.4010(11) 0.1441(11) -1.6854(10)
H11A H -0.3595 0.1029 -1.6513
C16A C -0.6527(12) 0.0336(10) -1.9757(10)
H12A H -0.6592 -0.0216 -1.9416
C17A C -0.5987(16) 0.1858(11) -2.0114(11)
H13A H -0.5648 0.2558 -2.0063
C18A C -0.6719(14) 0.1214(10) -2.0931(10)
H14A H -0.6926 0.1381 -2.1561
C19A C -0.3094(12) 0.2216(11) -1.4724(10)
C20A C -0.1860(12) 0.2345(10) -1.4256(11)
H15A H -0.1264 0.2879 -1.4375
C21A C -0.1530(12) 0.1717(11) -1.3646(10)
H16A H -0.0709 0.1811 -1.3366
C22A C -0.2396(11) 0.0934(10) -1.3430(9)
C23A C -0.3629(13) 0.0788(12) -1.3858(11)
H17A H -0.4223 0.0271 -1.3706
C24A C -0.3949(13) 0.1401(11) -1.4489(11)
H18A H -0.4768 0.1284 -1.4783
C25A C -0.1194(11) 0.0625(11) -1.1898(11)
H19A H -0.0784 0.1310 -1.1663
C26A C -0.1838(12) -0.1004(10) -1.2029(10)
H20A H -0.1943 -0.1671 -1.1892
C27A C -0.2430(12) -0.0737(10) -1.2812(9)
H21A H -0.3017 -0.1177 -1.3315
N1A N -0.3439(11) 0.2855(9) -1.5367(8)
N2A N -0.5844(10) 0.1274(9) -1.9378(8)
N3A N 0.2903(9) 1.0285(9) -1.0671(8)
N3A_2 N -0.7097(9) 0.0285(9) -2.0671(8)
N4A N -0.0801(10) 0.6968(8) -1.4117(8)
N5_2 N 0.9469(10) 0.1773(9) 0.3130(8)
N5A N 0.0531(10) 0.8227(9) -1.3130(8)
N6A N -0.2027(10) 0.0294(8) -1.2747(8)
N7A N -0.1040(9) -0.0144(8) -1.1449(7)
Ag1 Ag 0.5000 -0.5000 0.0000
Mo1 Mo 0.20242(9) -0.38952(8) -0.08362(8)
Mo2 Mo -0.09032(8) -0.55882(7) -0.12117(7)
Mo3 Mo 0.07356(9) -0.68539(7) 0.03825(7)
Mo4 Mo 0.18451(10) -0.63883(8) -0.17064(8)
O1 O 0.2195(9) -0.2864(8) -0.1411(7)
O2 O 0.1982(8) -0.5009(7) -0.1950(7)
O3 O 0.3280(8) -0.6247(7) -0.1077(8)
O4 O 0.1849(10) -0.7128(8) -0.2862(7)
O5 O 0.0979(8) -0.7357(6) -0.1007(6)
O6 O -0.0164(8) -0.6281(7) -0.2109(6)
O7 O 0.1076(6) -0.5358(6) -0.0247(5)
O8 O 0.2160(8) -0.6673(7) 0.1015(7)
O9 O -0.0036(8) -0.7942(7) 0.0684(7)
O10 O 0.1187(7) -0.3357(7) 0.0373(6)
O11 O -0.0100(7) -0.4204(6) -0.1364(6)
O12 O -0.2327(7) -0.5688(7) -0.1787(7)
O13 O 0.3452(8) -0.3842(8) -0.0215(8)
O14 O 0.539(2) -0.499(2) -0.171(3)
Ag1_2 Ag -0.5000 -0.5000 0.0000
Mo1A Mo -0.20242(9) -0.61048(8) 0.08362(8)
Mo2A Mo 0.09032(8) -0.44118(7) 0.12117(7)
Mo3A Mo -0.07356(9) -0.31461(7) -0.03825(7)
Mo4A Mo -0.18451(10) -0.36117(8) 0.17064(8)
O1A O -0.2195(9) -0.7136(8) 0.1411(7)
O2A O -0.1982(8) -0.4991(7) 0.1950(7)
O3A O -0.3280(8) -0.3753(7) 0.1077(8)
O3A_2 O 0.6720(8) -0.3753(7) 0.1077(8)
O4A O -0.1849(10) -0.2872(8) 0.2862(7)
O5A O -0.0979(8) -0.2643(6) 0.1007(6)
O6A O 0.0164(8) -0.3719(7) 0.2109(6)
O7A O -0.1076(6) -0.4642(6) 0.0247(5)
O8A O -0.2160(8) -0.3327(7) -0.1015(7)
O9A O 0.0036(8) -0.2058(7) -0.0684(7)
O10A O -0.1187(7) -0.6643(7) -0.0373(6)
O11A O 0.0100(7) -0.5796(6) 0.1364(6)
O12A O 0.2327(7) -0.4312(7) 0.1787(7)
O13A O -0.3452(8) -0.6158(8) 0.0215(8)
O13A_2 O 0.6548(8) -0.6158(8) 0.0215(8)
O14A O 0.461(2) -0.501(2) 0.171(3)
Na1? Na 0.5000 -0.5000 0.0000
loop_
_geom_bond_atom_site_label_1
_geom_bond_atom_site_label_2
_geom_bond_site_symmetry_1
_geom_bond_site_symmetry_2
Ag1 O3 1_555 1_555
Ag2 N3 1_555 1_555
Ag3 N7 1_555 1_555
Mo1 O1 1_555 1_555
Mo2 O6 1_555 1_555
Mo3 O5 1_555 1_555
Mo4 O2 1_555 1_555
C1 C2 1_555 1_555
C2 H1 1_555 1_555
C3 C2 1_555 1_555
H2 C3 1_555 1_555
C4 C3 1_555 1_555
C5 C4 1_555 1_555
H3 C5 1_555 1_555
C6 C1 1_555 1_555
H4 C6 1_555 1_555
C7 H5 1_555 1_555
C8 H6 1_555 1_555
C9 C7 1_555 1_555
H7 C9 1_555 1_555
C10 C11 1_555 1_555
C11 H8 1_555 1_555
C12 C11 1_555 1_555
H9 C12 1_555 1_555
C13 C12 1_555 1_555
C14 C13 1_555 1_555
H10 C14 1_555 1_555
C15 C10 1_555 1_555
H11 C15 1_555 1_555
C16 H12 1_555 1_555
C17 H13 1_555 1_555
C18 C17 1_555 1_555
H14 C18 1_555 1_555
C19 C20 1_555 1_555
C20 H15 1_555 1_555
C21 C20 1_555 1_555
H16 C21 1_555 1_555
C22 C21 1_555 1_555
C23 C22 1_555 1_555
H17 C23 1_555 1_555
C24 C19 1_555 1_555
H18 C24 1_555 1_555
C25 H19 1_555 1_555
C26 H20 1_555 1_555
C27 C26 1_555 1_555
H21 C27 1_555 1_555
N1 C1 1_555 1_555
N2 C13 1_555 1_555
N3 C16 1_555 1_555
N4 C4 1_555 1_555
N5 C8 1_555 1_555
N6 C22 1_555 1_555
N7 C25 1_555 1_555
O2 Mo1 1_555 1_555
O3 Mo4 1_555 1_555
O4 Mo4 1_555 1_555
O5 Mo4 1_555 1_555
O6 Mo4 1_555 1_555
O7 Mo1 1_555 1_555
O8 Mo3 1_555 1_555
O9 Mo3 1_555 1_555
O10 Mo1 1_555 1_555
O11 Mo1 1_555 1_555
O12 Mo2 1_555 1_555
O13 Ag1 1_555 1_555
O14 Ag1 1_555 1_555
Ag1_2 O3A 1_555 1_555
Ag2_2 N5 1_555 1_555
Ag2A N3A 1_555 1_555
Ag2A_2 N3A_2 1_555 1_555
Mo1A O1A 1_555 1_555
Mo2A O7 1_555 1_555
Mo3A O10 1_555 1_555
Mo4A O2A 1_555 1_555
C1A C2A 1_555 1_555
C2A H1A 1_555 1_555
C3A C2A 1_555 1_555
H2A C3A 1_555 1_555
C4A C3A 1_555 1_555
C5A C4A 1_555 1_555
H3A C5A 1_555 1_555
C6A C1A 1_555 1_555
H4A C6A 1_555 1_555
C7A H5A 1_555 1_555
C8A H6A 1_555 1_555
C9A C7A 1_555 1_555
H7A C9A 1_555 1_555
C10A C11A 1_555 1_555
C11A H8A 1_555 1_555
C12A C11A 1_555 1_555
H9A C12A 1_555 1_555
C13A C12A 1_555 1_555
C14A C13A 1_555 1_555
H10A C14A 1_555 1_555
C15A C10A 1_555 1_555
H11A C15A 1_555 1_555
C16A H12A 1_555 1_555
C17A H13A 1_555 1_555
C18A C17A 1_555 1_555
H14A C18A 1_555 1_555
C19A C20A 1_555 1_555
C20A H15A 1_555 1_555
C21A C20A 1_555 1_555
H16A C21A 1_555 1_555
C22A C21A 1_555 1_555
C23A C22A 1_555 1_555
H17A C23A 1_555 1_555
C24A C19A 1_555 1_555
H18A C24A 1_555 1_555
C25A H19A 1_555 1_555
C26A H20A 1_555 1_555
C27A C26A 1_555 1_555
H21A C27A 1_555 1_555
N1A C1A 1_555 1_555
N2A C13A 1_555 1_555
N3A_2 C16A 1_555 1_555
N4A C4A 1_555 1_555
N5_2 Ag2 1_555 1_555
N5A Ag2A 1_555 1_555
N6A C22A 1_555 1_555
N7A Ag3 1_555 1_555
O2A Mo1A 1_555 1_555
O3A Mo4A 1_555 1_555
O3A_2 Ag1 1_555 1_555
O4A Mo4A 1_555 1_555
O5A Mo3A 1_555 1_555
O6A Mo2A 1_555 1_555
O7A Mo2 1_555 1_555
O8A Mo3A 1_555 1_555
O9A Mo3A 1_555 1_555
O10A Mo2 1_555 1_555
O11A Mo3 1_555 1_555
O12A Mo2A 1_555 1_555
O13A Ag1_2 1_555 1_555
O13A_2 Ag1 1_555 1_555
O14A Ag1 1_555 1_555
Mo1 O13 1_555 1_555
Mo2 O7 1_555 1_555
Mo2 O11 1_555 1_555
Mo3 O7 1_555 1_555
Mo3 O10A 1_555 1_555
C5 C6 1_555 1_555
C7 N4 1_555 1_555
C8 N4 1_555 1_555
C9 N5 1_555 1_555
C10 N1 1_555 1_555
C14 C15 1_555 1_555
C16 N2 1_555 1_555
C17 N2 1_555 1_555
C18 N3 1_555 1_555
C19 N1 1_555 1_555
C23 C24 1_555 1_555
C25 N6 1_555 1_555
C26 N7 1_555 1_555
C27 N6 1_555 1_555
O10 Mo2A 1_555 1_555
O11 Mo3A 1_555 1_555
Mo1A O7A 1_555 1_555
Mo1A O10A 1_555 1_555
Mo1A O11A 1_555 1_555
Mo1A O13A 1_555 1_555
Mo2A O7A 1_555 1_555
Mo2A O11A 1_555 1_555
Mo3A O7A 1_555 1_555
Mo4A O5A 1_555 1_555
Mo4A O6A 1_555 1_555
C5A C6A 1_555 1_555
C7A N4A 1_555 1_555
C8A N4A 1_555 1_555
C8A N5A 1_555 1_555
C9A N5A 1_555 1_555
C10A N1A 1_555 1_555
C14A C15A 1_555 1_555
C16A N2A 1_555 1_555
C17A N2A 1_555 1_555
C18A N3A_2 1_555 1_555
C19A N1A 1_555 1_555
C23A C24A 1_555 1_555
C25A N6A 1_555 1_555
C25A N7A 1_555 1_555
C26A N7A 1_555 1_555
C27A N6A 1_555 1_555

#END
