
#######################################################################
#
#                 Cambridge Crystallographic Data Centre
#                                CCDC 
#
#######################################################################
#
# If this CIF has been generated from an entry in the Cambridge 
# Structural Database, then it will include bibliographic, chemical, 
# crystal, experimental, refinement or atomic coordinate data resulting 
# from the CCDC's data processing and validation procedures.
#
#######################################################################

data_KAXWUD
_symmetry_cell_setting           triclinic
_symmetry_space_group_name_H-M   'P -1'
_symmetry_Int_Tables_number      2
_space_group_name_Hall           '-P 1'
loop_
_symmetry_equiv_pos_site_id
_symmetry_equiv_pos_as_xyz
1 x,y,z
2 -x,-y,-z
_cell_length_a                   13.424(5)
_cell_length_b                   15.123(5)
_cell_length_c                   15.702(5)
_cell_angle_alpha                79.627(5)
_cell_angle_beta                 75.548(5)
_cell_angle_gamma                80.163(5)
_cell_volume                     3009.72
loop_
_atom_site_label
_atom_site_type_symbol
_atom_site_fract_x
_atom_site_fract_y
_atom_site_fract_z
Cd1 Cd -0.62670(3) 0.40501(3) 0.14665(2)
Cd2 Cd -0.71772(3) 0.21991(3) 0.33885(2)
Cd3 Cd -1.17818(3) 0.83041(3) 0.40872(2)
O1 O -0.6946(3) 0.3768(3) 0.3158(2)
O2 O -1.0752(3) 0.7321(2) 0.4909(2)
C1 C -1.0505(5) 0.9283(4) -0.1449(3)
O3 O -1.0726(3) 0.6961(3) 0.3604(2)
O4 O -0.2675(3) -0.0345(3) -0.5696(2)
N1 N -0.4492(3) 0.3612(3) 0.1575(3)
C2 C -0.9550(4) 0.6074(3) 0.4417(3)
O5 O -0.2412(3) -0.0824(2) -0.4344(2)
C3 C -1.1711(4) 0.7901(4) 0.2094(3)
H1 H -1.1366 0.7322 0.2221
N2 N -1.2150(3) 0.8460(3) 0.2689(3)
O6 O -0.8212(3) 0.4988(3) 0.6139(2)
N3 N -1.1839(4) 0.8292(3) 0.1296(3)
N4 N -1.0884(4) 0.8433(3) -0.0232(3)
N5 N -0.0318(3) 0.2175(3) 0.3020(3)
N6 N -0.3536(3) 0.3413(3) 0.3979(3)
N7 N 0.1210(3) 0.2415(3) 0.3094(2)
C4 C -0.8459(4) 0.5142(4) 0.5326(3)
C5 C -0.8625(6) 0.7459(6) 0.1517(4)
H2 H -0.8649 0.6934 0.1930
N8 N -0.3994(4) 0.4072(4) 0.7133(3)
C6 C -0.9030(4) 0.5581(4) 0.3709(3)
H3 H -0.9229 0.5718 0.3169
C7 C -0.7619(4) 0.4441(4) 0.3043(3)
C8 C -0.8237(4) 0.4903(4) 0.3821(3)
N9 N -0.2225(3) 0.2482(3) 0.4472(3)
N10 N -1.2372(4) 0.9147(4) 0.1337(3)
C9 C -0.7962(4) 0.4659(3) 0.4640(3)
H4 H -0.7447 0.4176 0.4722
N11 N -1.1280(4) 0.8862(3) -0.0958(3)
N12 N -0.0027(4) 0.2799(4) 0.2293(3)
C10 C -1.1583(4) 0.7915(4) 0.0487(3)
H5 H -1.1253 0.7295 0.0591
H6 H -1.2216 0.7901 0.0301
N13 N -0.2161(3) 0.2442(3) 0.3594(3)
C11 C -0.9239(4) 0.5847(4) 0.5208(3)
H7 H -0.9559 0.6175 0.5673
C12 C -0.2944(4) 0.3013(4) 0.3307(3)
C13 C -0.3054(4) 0.3079(4) 0.4668(3)
C14 C 0.0412(4) 0.1969(4) 0.3475(3)
H8 H 0.0371 0.1561 0.3998
C15 C -1.0390(4) 0.6825(4) 0.4300(3)
N14 N -0.9650(4) 0.9159(3) -0.1093(3)
C16 C -0.3175(4) 0.3186(4) 0.2419(3)
C17 C -0.3287(5) 0.3354(5) 0.7021(3)
H9 H -0.2987 0.3078 0.7492
C18 C -0.1300(4) 0.1821(4) 0.3180(3)
H10 H -0.1415 0.1722 0.2620
H11 H -0.1270 0.1241 0.3562
C19 C -0.3725(4) 0.3644(4) 0.0833(3)
H12 H -0.3905 0.3813 0.0286
C20 C -0.4200(4) 0.3370(4) 0.2355(3)
H13 H -0.4714 0.3326 0.2876
C21 C -0.9261(5) 0.8381(4) 0.0313(3)
C22 C -0.4155(5) 0.4134(4) 0.5654(3)
H14 H -0.4476 0.4412 0.5196
C23 C -0.3399(4) 0.3396(4) 0.5533(3)
C24 C -0.7444(4) 0.4277(4) 0.6312(3)
H15 H -0.6785 0.4389 0.5912
H16 H -0.7618 0.3714 0.6211
C25 C -0.9922(5) 0.8625(4) -0.0323(3)
C26 C -0.2402(4) 0.3207(4) 0.1645(3)
H17 H -0.1705 0.3068 0.1662
C27 C -0.9282(5) 0.7620(5) 0.0954(4)
H18 H -0.9750 0.7215 0.1001
C28 C -0.8551(5) 0.8947(4) 0.0289(4)
H19 H -0.8499 0.9468 -0.0128
C29 C -0.2707(5) 0.3444(5) 0.0844(3)
H20 H -0.2209 0.3465 0.0311
C30 C -0.2970(5) 0.2992(4) 0.6224(3)
H21 H -0.2474 0.2483 0.6169
C31 C -0.2862(4) -0.0293(4) -0.4870(3)
C32 C -1.2533(5) 0.9205(4) 0.2193(4)
H22 H -1.2884 0.9720 0.2435
N15 N -0.7952(5) 0.8013(5) 0.1504(4)
C33 C -0.4429(5) 0.4455(5) 0.6456(4)
H23 H -0.4935 0.4956 0.6530
C34 C 0.0872(5) 0.2918(5) 0.2377(4)
H24 H 0.1269 0.3322 0.1972
C35 C -0.7922(6) 0.8740(5) 0.0883(5)
H25 H -0.7445 0.9132 0.0850
O7 O -0.7758(3) 0.4780(3) 0.2282(2)
C36 C -0.7349(4) 0.4196(4) 0.7261(3)
C37 C -1.0550(4) 0.9867(4) -0.2290(3)
C38 C -0.6510(4) 0.3677(4) 0.7522(3)
H26 H -0.6020 0.3352 0.7121
C39 C -0.9735(5) 1.0367(4) -0.2695(3)
H27 H -0.9186 1.0301 -0.2417
C40 C -0.6382(5) 0.3630(4) 0.8375(3)
H28 H -0.5802 0.3281 0.8540
N16 N -0.9689(3) 1.0932(3) -0.3452(3)
C41 C -1.0509(5) 1.1038(4) -0.3832(3)
H29 H -1.0509 1.1446 -0.4351
C42 C -0.3721(4) 0.0439(4) -0.4549(3)
C43 C -0.3947(4) 0.0587(4) -0.3662(3)
H30 H -0.3552 0.0256 -0.3275
C44 C -0.5385(4) 0.1706(3) -0.3938(3)
H31 H -0.5936 0.2136 -0.3735
C45 C -0.4330(4) 0.0918(4) -0.5120(3)
H32 H -0.4170 0.0824 -0.5711
C46 C -0.4769(4) 0.1235(4) -0.3367(3)
C47 C -0.5182(4) 0.1539(3) -0.4811(3)
O8 O -0.5052(3) 0.1454(3) -0.2523(2)
C48 C -0.5915(4) 0.1942(3) -0.5390(3)
C49 C -0.4947(5) 0.1235(4) -0.1005(3)
C50 C -0.4432(5) 0.0986(4) -0.1914(3)
H33 H -0.4378 0.0336 -0.1902
H34 H -0.3739 0.1160 -0.2100
O9 O -0.6809(3) 0.2334(2) -0.5057(2)
O10 O -0.5651(3) 0.1851(3) -0.6201(2)
C51 C -0.5883(4) 0.1596(4) 0.0715(3)
C52 C -0.6918(6) 0.4075(4) 0.9900(3)
C53 C -0.6198(4) 0.0934(4) 0.0384(3)
H35 H -0.6712 0.0600 0.0737
C54 C -0.7964(5) 0.4575(5) 0.8735(3)
H36 H -0.8480 0.4860 0.9150
C55 C -0.5745(5) 0.0768(4) -0.0478(4)
H37 H -0.5979 0.0337 -0.0708
C56 C -0.4626(5) 0.1878(4) -0.0664(3)
H38 H -0.4087 0.2190 -0.1004
C57 C -0.5097(4) 0.2067(4) 0.0187(3)
H39 H -0.4883 0.2516 0.0407
C58 C -0.8092(5) 0.4650(4) 0.7864(3)
H40 H -0.8671 0.5001 0.7698
C59 C -0.7110(5) 0.4099(4) 0.8989(3)
O11 O -0.6739(3) 0.1166(3) 0.2217(2)
O12 O -0.6015(4) 0.4111(3) 0.9973(2)
C60 C -0.6365(4) 0.1763(4) 0.1651(3)
O13 O -0.7671(4) 0.4017(4) 1.0552(3)
O14 O -0.6355(3) 0.2531(3) 0.1872(2)
C61 C -1.1368(4) 0.9972(4) -0.2697(3)
H41 H -1.1929 0.9650 -0.2451
C62 C -1.1338(5) 1.0571(4) -0.3484(4)
H42 H -1.1881 1.0653 -0.3773
O15 O -0.5767(3) 0.5480(3) 0.1221(2)
Cd1_2 Cd -0.62670(3) 0.40501(3) 1.14665(2)
Cd2A Cd -0.28228(3) -0.21991(3) -0.33885(2)
Cd2_2 Cd 0.28228(3) 0.21991(3) 0.33885(2)
Cd2_3 Cd -0.71772(3) 0.21991(3) -0.66115(2)
Cd3_2 Cd -0.17818(3) -0.16959(3) -0.59128(2)
Cd3A Cd -0.82182(3) 1.16959(3) -0.40872(2)
Cd3A_2 Cd -0.82182(3) 0.16959(3) -0.40872(2)
O4_2 O -1.2675(3) 0.9655(3) 0.4304(2)
O5A O -0.7588(3) 0.0824(2) 0.4344(2)
N7_2 N -0.8790(3) 0.2415(3) 0.3094(2)
N16A N -1.0311(3) 0.9068(3) 0.3452(3)
O9_2 O -0.6809(3) 0.2334(2) 0.4943(2)
O9A O -1.3191(3) 0.7666(2) 0.5057(2)
O10_2 O -0.5651(3) 0.1851(3) 0.3799(2)
O12_2 O -0.6015(4) 0.4111(3) -0.0027(2)
O13_2 O -0.7671(4) 0.4017(4) 0.0552(3)
O16 O 0.4071(6) -0.1092(6) 0.7610(5)
O17 O 0.0030(6) 0.3724(6) 1.0306(5)
O18 O -0.9307(6) 0.5321(7) 1.1206(6)
loop_
_geom_bond_atom_site_label_1
_geom_bond_atom_site_label_2
_geom_bond_site_symmetry_1
_geom_bond_site_symmetry_2
Cd1 O1 1_555 1_555
Cd2 O1 1_555 1_555
Cd3 O2 1_555 1_555
O1 C7 1_555 1_555
O2 C15 1_555 1_555
C1 N11 1_555 1_555
O3 Cd3 1_555 1_555
O4 C31 1_555 1_555
N1 Cd1 1_555 1_555
C2 C6 1_555 1_555
O5 C31 1_555 1_555
C3 H1 1_555 1_555
N2 Cd3 1_555 1_555
O6 C4 1_555 1_555
N3 C3 1_555 1_555
N4 N11 1_555 1_555
N5 N12 1_555 1_555
N6 C12 1_555 1_555
N7 C14 1_555 1_555
C4 C9 1_555 1_555
C5 H2 1_555 1_555
N8 C17 1_555 1_555
C6 H3 1_555 1_555
C7 C8 1_555 1_555
C8 C6 1_555 1_555
N9 N13 1_555 1_555
N10 N3 1_555 1_555
C9 C8 1_555 1_555
H4 C9 1_555 1_555
N12 C34 1_555 1_555
C10 N3 1_555 1_555
H5 C10 1_555 1_555
H6 C10 1_555 1_555
N13 C12 1_555 1_555
C11 C2 1_555 1_555
H7 C11 1_555 1_555
C12 C16 1_555 1_555
C13 N6 1_555 1_555
C14 N5 1_555 1_555
H8 C14 1_555 1_555
C15 O3 1_555 1_555
N14 C1 1_555 1_555
C16 C20 1_555 1_555
C17 H9 1_555 1_555
C18 N5 1_555 1_555
H10 C18 1_555 1_555
H11 C18 1_555 1_555
C19 N1 1_555 1_555
H12 C19 1_555 1_555
C20 N1 1_555 1_555
H13 C20 1_555 1_555
C21 C25 1_555 1_555
C22 H14 1_555 1_555
C23 C13 1_555 1_555
C24 O6 1_555 1_555
H15 C24 1_555 1_555
H16 C24 1_555 1_555
C25 N4 1_555 1_555
C26 C16 1_555 1_555
H17 C26 1_555 1_555
C27 C5 1_555 1_555
H18 C27 1_555 1_555
C28 C21 1_555 1_555
H19 C28 1_555 1_555
C29 C19 1_555 1_555
H20 C29 1_555 1_555
C30 C17 1_555 1_555
H21 C30 1_555 1_555
C31 C42 1_555 1_555
C32 N2 1_555 1_555
H22 C32 1_555 1_555
N15 C5 1_555 1_555
C33 N8 1_555 1_555
H23 C33 1_555 1_555
C34 N7 1_555 1_555
H24 C34 1_555 1_555
C35 C28 1_555 1_555
H25 C35 1_555 1_555
O7 Cd1 1_555 1_555
C36 C24 1_555 1_555
C37 C1 1_555 1_555
C38 C36 1_555 1_555
H26 C38 1_555 1_555
C39 C37 1_555 1_555
H27 C39 1_555 1_555
C40 C38 1_555 1_555
H28 C40 1_555 1_555
N16 C39 1_555 1_555
C41 N16 1_555 1_555
H29 C41 1_555 1_555
C42 C43 1_555 1_555
C43 H30 1_555 1_555
C44 H31 1_555 1_555
C45 C42 1_555 1_555
H32 C45 1_555 1_555
C46 C43 1_555 1_555
C47 C44 1_555 1_555
O8 C46 1_555 1_555
C48 C47 1_555 1_555
C49 C50 1_555 1_555
C50 O8 1_555 1_555
H33 C50 1_555 1_555
H34 C50 1_555 1_555
O9 C48 1_555 1_555
O10 C48 1_555 1_555
C51 C53 1_555 1_555
C52 C59 1_555 1_555
C53 H35 1_555 1_555
C54 H36 1_555 1_555
C55 C49 1_555 1_555
H37 C55 1_555 1_555
C56 C49 1_555 1_555
H38 C56 1_555 1_555
C57 C51 1_555 1_555
H39 C57 1_555 1_555
C58 C36 1_555 1_555
H40 C58 1_555 1_555
C59 C40 1_555 1_555
O11 Cd2 1_555 1_555
O12 C52 1_555 1_555
C60 C51 1_555 1_555
O13 C52 1_555 1_555
O14 Cd1 1_555 1_555
C61 C37 1_555 1_555
H41 C61 1_555 1_555
C62 C41 1_555 1_555
H42 C62 1_555 1_555
O15 Cd1 1_555 1_555
Cd1_2 O12 1_555 1_555
Cd2A O5 1_555 1_555
Cd2_2 N7 1_555 1_555
Cd2_3 O9 1_555 1_555
Cd3_2 O4 1_555 1_555
Cd3A N16 1_555 1_555
Cd3A_2 O9 1_555 1_555
O4_2 Cd3 1_555 1_555
O5A Cd2 1_555 1_555
N7_2 Cd2 1_555 1_555
N16A Cd3 1_555 1_555
O9_2 Cd2 1_555 1_555
O9A Cd3 1_555 1_555
O10_2 Cd2 1_555 1_555
O12_2 Cd1 1_555 1_555
O13_2 Cd1 1_555 1_555
Cd2 O14 1_555 1_555
C2 C15 1_555 1_555
C3 N2 1_555 1_555
N4 C10 1_555 1_555
C4 C11 1_555 1_555
C7 O7 1_555 1_555
N9 C13 1_555 1_555
N10 C32 1_555 1_555
N13 C18 1_555 1_555
N14 C25 1_555 1_555
C21 C27 1_555 1_555
C22 C23 1_555 1_555
C22 C33 1_555 1_555
C23 C30 1_555 1_555
C26 C29 1_555 1_555
N15 C35 1_555 1_555
C44 C46 1_555 1_555
C45 C47 1_555 1_555
O10 Cd2_3 1_555 1_555
C53 C55 1_555 1_555
C54 C58 1_555 1_555
C54 C59 1_555 1_555
C56 C57 1_555 1_555
O11 C60 1_555 1_555
C60 O14 1_555 1_555
O13 Cd1_2 1_555 1_555
C61 C62 1_555 1_555

#END
