
#######################################################################
#
#                 Cambridge Crystallographic Data Centre
#                                CCDC 
#
#######################################################################
#
# If this CIF has been generated from an entry in the Cambridge 
# Structural Database, then it will include bibliographic, chemical, 
# crystal, experimental, refinement or atomic coordinate data resulting 
# from the CCDC's data processing and validation procedures.
#
#######################################################################

data_KAXWEN
_symmetry_cell_setting           monoclinic
_symmetry_space_group_name_H-M   'P 21/n'
_symmetry_Int_Tables_number      14
_space_group_name_Hall           '-P 2yn'
loop_
_symmetry_equiv_pos_site_id
_symmetry_equiv_pos_as_xyz
1 x,y,z
2 1/2-x,1/2+y,1/2-z
3 -x,-y,-z
4 1/2+x,1/2-y,1/2+z
_cell_length_a                   10.769(5)
_cell_length_b                   31.913(5)
_cell_length_c                   17.493(5)
_cell_angle_alpha                90
_cell_angle_beta                 90.805(5)
_cell_angle_gamma                90
_cell_volume                     6011.25
loop_
_atom_site_label
_atom_site_type_symbol
_atom_site_fract_x
_atom_site_fract_y
_atom_site_fract_z
Ag1 Ag 0.30598(4) -0.192930(12) 0.66818(2)
Ag2 Ag 0.67090(4) -0.216951(11) 0.45083(2)
Ag3 Ag 0.27255(3) -0.705990(10) 0.48462(2)
Ag4 Ag 0.40058(3) 0.215102(10) 0.30187(2)
Ag5 Ag 0.10218(3) -0.198590(10) 0.27549(2)
C1 C 0.3373(4) -0.10459(13) 0.6020(3)
H1 H 0.3658 -0.0988 0.6513
C2 C 0.3429(4) -0.07337(13) 0.5480(3)
H2 H 0.3732 -0.0470 0.5611
C3 C 0.3028(4) -0.08159(12) 0.4737(2)
C4 C 0.2538(4) -0.12110(13) 0.4583(3)
H3 H 0.2241 -0.1277 0.4096
C5 C 0.2499(4) -0.15041(14) 0.5165(3)
H4 H 0.2157 -0.1766 0.5060
C6 C 0.3156(4) -0.04850(12) 0.4155(2)
C7 C 0.3369(4) 0.00995(12) 0.3632(2)
C8 C 0.3686(4) -0.09172(12) 0.2975(2)
H5 H 0.2970 -0.1101 0.2938
H6 H 0.3928 -0.0840 0.2462
C9 C 0.6378(4) -0.11961(13) 0.3943(3)
H7 H 0.7153 -0.1140 0.4160
C10 C 0.4788(4) -0.15288(13) 0.3597(2)
H8 H 0.4196 -0.1736 0.3506
C11 C 0.3457(4) 0.05564(12) 0.3523(2)
C12 C 0.3477(4) 0.08252(13) 0.4143(3)
H9 H 0.3408 0.0721 0.4638
C13 C 0.3603(4) 0.12498(14) 0.4018(3)
H10 H 0.3630 0.1427 0.4441
C14 C 0.3662(4) 0.11588(13) 0.2727(3)
H11 H 0.3721 0.1270 0.2237
C15 C 0.3554(4) 0.07306(13) 0.2802(3)
H12 H 0.3546 0.0560 0.2372
C16 C 0.8405(3) -0.21975(11) 0.6000(2)
C17 C 1.0836(3) -0.21236(11) 0.8485(2)
C18 C 0.9196(3) -0.19610(11) 0.6579(2)
C19 C 0.9598(3) -0.21456(11) 0.7254(2)
H13 H 0.9379 -0.2421 0.7364
C20 C 1.0336(3) -0.19169(11) 0.7769(2)
C21 C 1.0639(4) -0.15045(12) 0.7606(2)
H14 H 1.1130 -0.1352 0.7948
C22 C 1.0212(4) -0.13185(11) 0.6935(2)
C23 C 0.9509(3) -0.15462(11) 0.6412(2)
H15 H 0.9248 -0.1424 0.5955
C24 C 1.0083(4) -0.06914(12) 0.6195(3)
H16 H 0.9214 -0.0761 0.6112
H17 H 1.0539 -0.0777 0.5747
C25 C 1.0221(4) -0.02247(12) 0.6311(2)
C26 C 1.0834(4) 0.00172(12) 0.5789(3)
H18 H 1.1270 -0.0110 0.5398
C27 C 1.0809(4) 0.04508(12) 0.5842(3)
H19 H 1.1216 0.0611 0.5478
C28 C 1.0189(4) 0.06482(12) 0.6424(2)
C29 C 0.9647(4) 0.04039(13) 0.6986(3)
H20 H 0.9276 0.0530 0.7404
C30 C 0.9661(4) -0.00296(13) 0.6921(3)
H21 H 0.9286 -0.0192 0.7295
C31 C 1.0034(4) 0.11220(12) 0.6421(3)
C32 C 0.4819(4) -0.27561(14) 0.6000(2)
C33 C 0.2201(4) -0.27209(12) 0.3605(2)
C34 C 0.2916(3) -0.29583(12) 0.4209(2)
C35 C 0.3562(3) -0.27487(12) 0.4779(2)
H22 H 0.3603 -0.2458 0.4773
C36 C 0.4147(3) -0.29714(12) 0.5360(2)
C37 C 0.4088(4) -0.34074(12) 0.5366(2)
H23 H 0.4467 -0.3557 0.5761
C38 C 0.3469(4) -0.36160(12) 0.4788(2)
C39 C 0.2884(4) -0.33940(12) 0.4207(2)
H24 H 0.2470 -0.3536 0.3815
C40 C 0.3006(5) -0.42846(13) 0.4235(3)
H25 H 0.3488 -0.4231 0.3781
H26 H 0.2150 -0.4208 0.4127
C41 C 0.3083(4) -0.47438(12) 0.4445(3)
C42 C 0.3493(4) -0.48738(13) 0.5154(3)
H27 H 0.3742 -0.4676 0.5515
C43 C 0.3538(4) -0.52938(12) 0.5335(3)
H28 H 0.3821 -0.5377 0.5817
C44 C 0.3164(4) -0.55924(12) 0.4807(2)
C45 C 0.2752(5) -0.54645(14) 0.4093(3)
H29 H 0.2499 -0.5662 0.3733
C46 C 0.2717(5) -0.50451(14) 0.3917(3)
H30 H 0.2441 -0.4962 0.3434
C47 C 0.3185(4) -0.60450(12) 0.5004(2)
N1 N 0.2929(3) -0.14288(11) 0.5872(2)
N2 N 0.3147(3) -0.00813(10) 0.43193(19)
N3 N 0.3371(3) -0.05429(10) 0.34063(19)
N4 N 0.3528(3) -0.01653(10) 0.30627(19)
N5 N 0.4704(3) -0.11322(10) 0.33612(19)
N6 N 0.5726(3) -0.09128(11) 0.3582(2)
N7 N 0.5836(3) -0.15817(11) 0.3977(2)
N8 N 0.3687(3) 0.14224(10) 0.3322(2)
O1 O 0.8078(2) -0.19985(8) 0.54059(16)
O2 O 0.8121(3) -0.25716(8) 0.61381(16)
O3 O 1.0667(3) -0.25044(8) 0.85646(16)
O4 O 1.1441(3) -0.18962(8) 0.89675(16)
O5 O 1.0545(3) -0.09066(8) 0.68481(17)
O6 O 1.0522(3) 0.13105(9) 0.58674(19)
O7 O 0.9367(3) 0.12822(9) 0.6920(2)
O8 O 0.1474(3) -0.29411(9) 0.31922(17)
O9 O 0.2324(3) -0.23328(9) 0.35618(17)
O10 O 0.4906(3) -0.23640(10) 0.59674(19)
O11 O 0.5264(3) -0.29763(11) 0.65226(19)
O12 O 0.3474(3) -0.40451(9) 0.48513(19)
O13 O 0.3600(3) -0.61207(9) 0.56931(17)
H31 H 0.3592 -0.6374 0.5771
O14 O 0.2839(3) -0.63181(9) 0.45568(18)
H32 H 0.016(5) -0.6384(18) 0.567(3)
O15 O 0.2989(4) -0.16723(11) 0.20063(19)
Ag6 Ag -0.03265(3) -0.200460(10) 0.42514(2)
Ag7 Ag -0.09018(4) -0.281310(11) 0.35588(2)
O16 O 0.1267(3) -0.63865(9) 0.68189(18)
O17 O 0.0242(4) -0.61767(11) 0.5767(2)
C48 C 0.1120(4) -0.56555(12) 0.6540(2)
C49 C 0.0897(4) -0.61090(13) 0.6395(3)
C50 C 0.0533(4) -0.53479(13) 0.6096(3)
H33 H -0.0018 -0.5426 0.5707
C51 C 0.0767(4) -0.49300(12) 0.6232(3)
H34 H 0.0361 -0.4727 0.5940
O18 O 0.1034(3) -0.40990(8) 0.6585(2)
C52 C 0.1601(4) -0.48090(12) 0.6798(2)
C53 C 0.1945(4) -0.55353(13) 0.7110(3)
H35 H 0.2346 -0.5738 0.7406
C54 C 0.2176(4) -0.51180(12) 0.7241(2)
H36 H 0.2724 -0.5040 0.7632
C55 C 0.1948(4) -0.43608(12) 0.6929(3)
H37 H 0.2752 -0.4304 0.6708
H38 H 0.2003 -0.4304 0.7473
C56 C 0.0713(4) -0.34697(12) 0.5935(2)
H39 H 0.0218 -0.3617 0.5589
C57 C 0.1280(4) -0.36782(12) 0.6546(2)
C58 C 0.1590(3) -0.28218(11) 0.6383(2)
H40 H 0.1684 -0.2533 0.6335
C59 C 0.0346(3) -0.28164(11) 0.5159(2)
C60 C 0.2018(4) -0.34611(12) 0.7061(2)
H41 H 0.2427 -0.3603 0.7454
C61 C 0.2149(3) -0.30302(12) 0.6991(2)
C62 C 0.0886(3) -0.30437(11) 0.5843(2)
O19 O 0.0579(2) -0.24394(8) 0.50843(15)
O20 O 0.3321(3) -0.30097(9) 0.81365(17)
O21 O -0.0326(3) -0.30334(8) 0.47010(16)
C63 C 0.2899(3) -0.28038(12) 0.7587(2)
O22 O 0.3075(2) -0.24083(8) 0.75328(15)
H42 H 0.269(4) -0.1506(10) 0.1676(17)
H43 H 0.321(4) -0.1911(6) 0.184(2)
Ag1B Ag 0.69402(4) 0.192930(12) 0.33182(2)
Ag2B Ag 0.32910(4) -0.783049(11) 0.54917(2)
Ag2C Ag 1.17090(4) -0.283049(11) 0.95083(2)
Ag2_2 Ag -0.32910(4) -0.216951(11) 0.45083(2)
Ag3B Ag 0.72745(3) -0.294010(10) 0.51538(2)
Ag3A Ag 1.22745(3) -0.205990(10) 1.01538(2)
Ag3B_2 Ag -0.27255(3) -0.294010(10) 0.51538(2)
Ag4B Ag 0.59942(3) -0.215102(10) 0.69813(2)
Ag4A Ag 0.09942(3) -0.284898(10) 0.19813(2)
Ag5A Ag 0.39782(3) 0.301410(10) 0.22451(2)
Ag5B Ag 0.89782(3) 0.198590(10) 0.72451(2)
Ag5C Ag 0.60218(3) -0.301410(10) 0.77549(2)
O1_2 O -0.1922(2) -0.19985(8) 0.54059(16)
O2B O 0.1879(3) -0.74284(8) 0.38619(16)
O3C O 0.5667(3) -0.24956(8) 0.35646(16)
O4A O 0.3559(3) -0.68962(8) 0.60325(16)
O6B O -0.0522(3) -0.13105(9) 0.41326(19)
O7B O 0.0633(3) -0.12822(9) 0.3080(2)
O8A O 0.3526(3) 0.20589(9) 0.18078(17)
O10B O 0.5094(3) 0.23640(10) 0.40326(19)
O11C O 0.0264(3) -0.20237(11) 0.15226(19)
Ag6_2 Ag 0.96735(3) -0.200460(10) 0.42514(2)
Ag6B Ag 1.03265(3) 0.200460(10) 0.57486(2)
Ag6C Ag 0.46735(3) -0.299540(10) 0.92514(2)
Ag7B Ag 0.09018(4) -0.718690(11) 0.64412(2)
Ag7C Ag 0.40982(4) -0.218690(11) 0.85588(2)
O16B O -0.1267(3) -0.36135(9) 0.31811(18)
O20C O -0.1679(3) -0.19903(9) 0.31365(17)
O21B O 0.0326(3) -0.69666(8) 0.52990(16)
O22C O -0.1925(2) -0.25917(8) 0.25328(15)
loop_
_geom_bond_atom_site_label_1
_geom_bond_atom_site_label_2
_geom_bond_site_symmetry_1
_geom_bond_site_symmetry_2
Ag1 N1 1_555 1_555
Ag2 N7 1_555 1_555
Ag3 O14 1_555 1_555
Ag4 N8 1_555 1_555
Ag5 O9 1_555 1_555
C1 H1 1_555 1_555
C2 C1 1_555 1_555
H2 C2 1_555 1_555
C3 C2 1_555 1_555
C4 C3 1_555 1_555
H3 C4 1_555 1_555
C5 C4 1_555 1_555
H4 C5 1_555 1_555
C6 C3 1_555 1_555
C7 C11 1_555 1_555
C8 H5 1_555 1_555
H6 C8 1_555 1_555
C9 H7 1_555 1_555
C10 H8 1_555 1_555
C11 C12 1_555 1_555
C12 H9 1_555 1_555
C13 C12 1_555 1_555
H10 C13 1_555 1_555
C14 H11 1_555 1_555
C15 C11 1_555 1_555
H12 C15 1_555 1_555
C16 C18 1_555 1_555
C17 C20 1_555 1_555
C18 C19 1_555 1_555
C19 H13 1_555 1_555
C20 C19 1_555 1_555
C21 C20 1_555 1_555
H14 C21 1_555 1_555
C22 C21 1_555 1_555
C23 C18 1_555 1_555
H15 C23 1_555 1_555
C24 H16 1_555 1_555
H17 C24 1_555 1_555
C25 C24 1_555 1_555
C26 C25 1_555 1_555
H18 C26 1_555 1_555
C27 C26 1_555 1_555
H19 C27 1_555 1_555
C28 C27 1_555 1_555
C29 C28 1_555 1_555
H20 C29 1_555 1_555
C30 C25 1_555 1_555
H21 C30 1_555 1_555
C31 C28 1_555 1_555
C32 C36 1_555 1_555
C33 C34 1_555 1_555
C34 C35 1_555 1_555
C35 H22 1_555 1_555
C36 C35 1_555 1_555
C37 C36 1_555 1_555
H23 C37 1_555 1_555
C38 C37 1_555 1_555
C39 C34 1_555 1_555
H24 C39 1_555 1_555
C40 H25 1_555 1_555
H26 C40 1_555 1_555
C41 C40 1_555 1_555
C42 C41 1_555 1_555
H27 C42 1_555 1_555
C43 C42 1_555 1_555
H28 C43 1_555 1_555
C44 C43 1_555 1_555
C45 C44 1_555 1_555
H29 C45 1_555 1_555
C46 C41 1_555 1_555
H30 C46 1_555 1_555
C47 C44 1_555 1_555
N1 C1 1_555 1_555
N2 C6 1_555 1_555
N3 C6 1_555 1_555
N4 C7 1_555 1_555
N5 C8 1_555 1_555
N6 C9 1_555 1_555
N7 C9 1_555 1_555
N8 C13 1_555 1_555
O1 Ag2 1_555 1_555
O2 C16 1_555 1_555
O3 C17 1_555 1_555
O4 C17 1_555 1_555
O5 C22 1_555 1_555
O6 C31 1_555 1_555
O7 C31 1_555 1_555
O8 C33 1_555 1_555
O9 C33 1_555 1_555
O10 Ag1 1_555 1_555
O11 C32 1_555 1_555
O12 C38 1_555 1_555
O13 C47 1_555 1_555
H31 O13 1_555 1_555
O14 C47 1_555 1_555
H32 O17 1_555 1_555
O15 Ag5 1_555 1_555
Ag6 Ag5 1_555 1_555
Ag7 O8 1_555 1_555
O16 C49 1_555 1_555
O17 C49 1_555 1_555
C48 C49 1_555 1_555
C50 C48 1_555 1_555
H33 C50 1_555 1_555
C51 C50 1_555 1_555
H34 C51 1_555 1_555
O18 C55 1_555 1_555
C52 C51 1_555 1_555
C53 C48 1_555 1_555
H35 C53 1_555 1_555
C54 C52 1_555 1_555
H36 C54 1_555 1_555
C55 C52 1_555 1_555
H37 C55 1_555 1_555
H38 C55 1_555 1_555
C56 H39 1_555 1_555
C57 O18 1_555 1_555
C58 H40 1_555 1_555
C59 C62 1_555 1_555
C60 C57 1_555 1_555
H41 C60 1_555 1_555
C61 C58 1_555 1_555
C62 C56 1_555 1_555
O19 Ag6 1_555 1_555
O20 C63 1_555 1_555
O21 Ag7 1_555 1_555
C63 C61 1_555 1_555
O22 Ag1 1_555 1_555
H42 O15 1_555 1_555
H43 O15 1_555 1_555
Ag1B Ag4 1_555 1_555
Ag2B Ag3 1_555 1_555
Ag2C O3 1_555 1_555
Ag2_2 Ag6 1_555 1_555
Ag3B Ag2 1_555 1_555
Ag3A O4 1_555 1_555
Ag3B_2 O21 1_555 1_555
Ag4B Ag1 1_555 1_555
Ag4A Ag5 1_555 1_555
Ag5A Ag4 1_555 1_555
Ag5B O7 1_555 1_555
Ag5C O11 1_555 1_555
O1_2 Ag6 1_555 1_555
O2B Ag3 1_555 1_555
O3C Ag2 1_555 1_555
O4A Ag3 1_555 1_555
O6B Ag6 1_555 1_555
O7B Ag5 1_555 1_555
O8A Ag4 1_555 1_555
O10B Ag4 1_555 1_555
O11C Ag5 1_555 1_555
Ag6_2 Ag2 1_555 1_555
Ag6B O6 1_555 1_555
Ag6C O20 1_555 1_555
Ag7B O16 1_555 1_555
Ag7C O22 1_555 1_555
O16B Ag7 1_555 1_555
O20C Ag6 1_555 1_555
O21B Ag3 1_555 1_555
O22C Ag7 1_555 1_555
C5 N1 1_555 1_555
C7 N2 1_555 1_555
C8 N3 1_555 1_555
C10 N5 1_555 1_555
C10 N7 1_555 1_555
C14 C15 1_555 1_555
C14 N8 1_555 1_555
C16 O1 1_555 1_555
C22 C23 1_555 1_555
C24 O5 1_555 1_555
C29 C30 1_555 1_555
C32 O10 1_555 1_555
C38 C39 1_555 1_555
C40 O12 1_555 1_555
C45 C46 1_555 1_555
N3 N4 1_555 1_555
N5 N6 1_555 1_555
O1 Ag6_2 1_555 1_555
O2 Ag3B 1_555 1_555
O8 Ag4A 1_555 1_555
O10 Ag4B 1_555 1_555
Ag6 Ag7 1_555 1_555
C53 C54 1_555 1_555
C56 C57 1_555 1_555
C58 C62 1_555 1_555
C59 O19 1_555 1_555
C59 O21 1_555 1_555
C60 C61 1_555 1_555
C63 O22 1_555 1_555
Ag1B O10B 1_555 1_555
Ag2C Ag3A 1_555 1_555
Ag2_2 Ag3B_2 1_555 1_555
Ag2_2 O1_2 1_555 1_555
Ag4B Ag5C 1_555 1_555
Ag5B Ag6B 1_555 1_555
Ag5C Ag6C 1_555 1_555
Ag6C Ag7C 1_555 1_555
Ag7B O21B 1_555 1_555

#END
