
#######################################################################
#
#                 Cambridge Crystallographic Data Centre
#                                CCDC 
#
#######################################################################
#
# If this CIF has been generated from an entry in the Cambridge 
# Structural Database, then it will include bibliographic, chemical, 
# crystal, experimental, refinement or atomic coordinate data resulting 
# from the CCDC's data processing and validation procedures.
#
#######################################################################

data_KAXWOX
_symmetry_cell_setting           triclinic
_symmetry_space_group_name_H-M   'P -1'
_symmetry_Int_Tables_number      2
_space_group_name_Hall           '-P 1'
loop_
_symmetry_equiv_pos_site_id
_symmetry_equiv_pos_as_xyz
1 x,y,z
2 -x,-y,-z
_cell_length_a                   8.548(5)
_cell_length_b                   19.599(5)
_cell_length_c                   20.740(5)
_cell_angle_alpha                108.107(5)
_cell_angle_beta                 95.042(5)
_cell_angle_gamma                96.301(5)
_cell_volume                     3255.11
loop_
_atom_site_label
_atom_site_type_symbol
_atom_site_fract_x
_atom_site_fract_y
_atom_site_fract_z
Cd1 Cd 0.93635(4) -0.19858(2) -0.530816(18)
Cd2 Cd 1.53146(4) -0.30419(2) -0.490130(17)
Cd3 Cd 0.74035(5) -0.76691(2) -0.995540(19)
C1 C 0.7275(6) -0.2160(3) -0.6801(3)
H1 H 0.6739 -0.1812 -0.6531
C2 C 0.6933(7) -0.2367(3) -0.7502(3)
H2 H 0.6186 -0.2157 -0.7701
C3 C 0.7704(7) -0.2886(3) -0.7904(3)
H3 H 0.7466 -0.3040 -0.8378
C4 C 0.8842(6) -0.3180(3) -0.7596(3)
C5 C 0.9105(6) -0.2940(3) -0.6896(3)
H4 H 0.9856 -0.3137 -0.6684
C6 C 0.9719(7) -0.3729(3) -0.7996(3)
C7 C 1.2552(6) -0.3077(3) -0.7540(3)
H5 H 1.3243 -0.2940 -0.7840
H6 H 1.2056 -0.2659 -0.7315
C8 C 1.3548(7) -0.3028(3) -0.6348(3)
H7 H 1.2923 -0.2700 -0.6111
C9 C 1.5208(6) -0.3748(3) -0.6606(3)
H8 H 1.5995 -0.4027 -0.6559
C10 C 1.0402(7) -0.4662(3) -0.8703(2)
C11 C 1.0383(7) -0.5364(3) -0.9234(2)
C12 C 1.1660(7) -0.5480(4) -0.9598(3)
H9 H 1.2472 -0.5101 -0.9542
C13 C 1.1722(8) -0.6155(4) -1.0042(3)
H10 H 1.2578 -0.6245 -1.0288
C14 C 1.0497(8) -0.6693(4) -1.0117(3)
H11 H 1.0555 -0.7152 -1.0416
C15 C 0.9193(7) -0.5944(3) -0.9353(3)
H12 H 0.8319 -0.5870 -0.9116
C16 C 1.7503(6) -0.2904(3) -0.3440(3)
H13 H 1.8032 -0.3246 -0.3722
C17 C 1.7882(7) -0.2716(3) -0.2745(3)
H14 H 1.8672 -0.2918 -0.2561
C18 C 1.7077(7) -0.2225(3) -0.2323(3)
H15 H 1.7313 -0.2094 -0.1851
C19 C 1.5912(6) -0.1925(3) -0.2608(2)
C20 C 1.5643(6) -0.2140(3) -0.3313(3)
H16 H 1.4874 -0.1939 -0.3510
C21 C 1.4982(7) -0.1416(3) -0.2191(2)
C22 C 1.2180(6) -0.2049(3) -0.2719(3)
H17 H 1.2687 -0.2453 -0.2968
H18 H 1.1465 -0.2223 -0.2447
C23 C 1.1166(6) -0.2023(3) -0.3882(2)
H19 H 1.1768 -0.2349 -0.4138
C24 C 0.9557(6) -0.1295(3) -0.3575(3)
H20 H 0.8782 -0.1003 -0.3600
C25 C 1.4288(7) -0.0557(3) -0.1426(3)
C26 C 1.4287(7) 0.0104(3) -0.0840(3)
C27 C 1.2998(8) 0.0208(4) -0.0478(3)
H21 H 1.2123 -0.0153 -0.0592
C28 C 1.3007(8) 0.0833(4) 0.0040(3)
H22 H 1.2152 0.0908 0.0289
C29 C 1.4307(8) 0.1349(4) 0.0184(3)
H23 H 1.4305 0.1779 0.0538
C30 C 1.5553(7) 0.0656(3) -0.0649(3)
H24 H 1.6435 0.0591 -0.0882
C31 C 0.8907(6) -0.3513(3) -0.5362(2)
C32 C 0.6870(6) -0.6049(3) -0.5426(2)
C33 C 0.7995(5) -0.5520(3) -0.5624(2)
C34 C 0.7892(6) -0.4784(3) -0.5405(2)
H25 H 0.7121 -0.4608 -0.5134
C35 C 0.8949(5) -0.4312(3) -0.5594(2)
C36 C 1.0090(6) -0.4577(3) -0.6003(2)
H26 H 1.0800 -0.4260 -0.6127
C37 C 1.0175(6) -0.5315(3) -0.6228(2)
C38 C 0.9139(5) -0.5779(3) -0.6030(2)
H27 H 0.9211 -0.6272 -0.6171
C39 C 1.2418(7) -0.5142(3) -0.6798(3)
H28 H 1.3042 -0.4817 -0.6381
H29 H 1.1909 -0.4852 -0.7034
C40 C 1.3465(6) -0.5590(3) -0.7245(3)
C41 C 1.3068(7) -0.5878(3) -0.7938(3)
H30 H 1.2123 -0.5797 -0.8140
C42 C 1.4041(7) -0.6285(3) -0.8338(3)
H31 H 1.3751 -0.6470 -0.8810
C43 C 1.5442(6) -0.6427(3) -0.8058(3)
C44 C 1.5846(7) -0.6146(3) -0.7358(3)
H32 H 1.6782 -0.6237 -0.7156
C45 C 1.4865(7) -0.5728(3) -0.6951(3)
H33 H 1.5149 -0.5540 -0.6480
C46 C 1.6483(8) -0.6886(3) -0.8493(3)
C47 C 0.5895(6) -0.1488(3) -0.4810(2)
C48 C 0.8305(6) 0.1083(3) -0.4436(3)
C49 C 0.5943(6) -0.0687(3) -0.4485(2)
C50 C 0.7074(5) -0.0197(3) -0.4613(2)
H34 H 0.7819 -0.0364 -0.4904
C51 C 0.7091(6) 0.0540(3) -0.4307(2)
C52 C 0.5978(5) 0.0787(3) -0.3883(2)
H35 H 0.5984 0.1283 -0.3684
C53 C 0.4847(6) 0.0299(3) -0.3750(2)
C54 C 0.4820(6) -0.0438(3) -0.4058(2)
H36 H 0.4050 -0.0766 -0.3980
C55 C 0.2569(7) 0.0111(3) -0.3202(3)
H37 H 0.3022 -0.0218 -0.2998
H38 H 0.1940 -0.0174 -0.3633
C56 C 0.1555(7) 0.0543(3) -0.2738(3)
C57 C 0.0188(7) 0.0724(3) -0.3003(3)
H39 H -0.0087 0.0578 -0.3474
C58 C -0.0780(7) 0.1118(3) -0.2580(3)
H40 H -0.1683 0.1247 -0.2769
C59 C -0.0422(7) 0.1325(3) -0.1876(3)
C60 C 0.0957(7) 0.1150(4) -0.1618(3)
H41 H 0.1237 0.1294 -0.1147
C61 C 0.1930(7) 0.0767(4) -0.2043(3)
H42 H 0.2860 0.0659 -0.1854
C62 C -0.1485(7) 0.1740(3) -0.1418(3)
N1 N 0.8353(5) -0.2443(2) -0.6500(2)
N2 N 0.9112(5) -0.4362(3) -0.8475(2)
N3 N 1.1321(5) -0.3674(2) -0.7948(2)
N4 N 1.1771(5) -0.4267(3) -0.8402(2)
N5 N 1.3494(5) -0.3280(2) -0.7027(2)
N6 N 1.4579(5) -0.3741(3) -0.7200(2)
N7 N 1.4622(5) -0.3315(2) -0.6066(2)
N8 N 0.9231(6) -0.6606(3) -0.9791(2)
N9 N 1.6398(5) -0.2613(2) -0.3733(2)
N10 N 1.5598(5) -0.0834(3) -0.1663(2)
N11 N 1.3389(5) -0.1477(2) -0.2266(2)
N12 N 1.2920(5) -0.0929(3) -0.1769(2)
N13 N 1.1273(5) -0.1799(2) -0.3202(2)
N14 N 1.0211(5) -0.1329(3) -0.2997(2)
N15 N 1.0094(5) -0.1719(2) -0.4138(2)
N16 N 1.5571(6) 0.1285(3) -0.0142(2)
O1 O 1.0008(4) -0.31113(18) -0.54945(17)
O2 O 0.7803(4) -0.3263(2) -0.5060(2)
O3 O 0.9216(6) -0.7911(3) -0.9134(2)
O4 O 0.5830(4) -0.5814(2) -0.50568(18)
O5 O 0.5657(5) -0.7373(3) -1.0735(2)
O6 O 0.6979(4) -0.6705(2) -0.5647(2)
O8 O 1.1240(4) -0.56272(19) -0.66398(17)
O10 O 1.6174(5) -0.7022(2) -0.91261(19)
O12 O 1.7610(7) -0.7090(3) -0.8222(2)
O14 O 0.6899(4) -0.1729(2) -0.51890(19)
O15 O 0.4795(4) -0.18954(18) -0.46804(16)
O16 O 0.9357(4) 0.0858(2) -0.47944(19)
O17 O 0.8261(4) 0.1745(2) -0.4159(2)
O18 O 0.3808(4) 0.05971(19) -0.33151(17)
O19 O -0.1359(5) 0.1722(2) -0.08119(17)
O20 O -0.2450(6) 0.2065(3) -0.1649(2)
Cd1A Cd 1.06365(4) 0.19858(2) -0.469184(18)
Cd2_2 Cd 0.53146(4) -0.30419(2) -0.490130(17)
Cd2A Cd 0.46854(4) -0.69581(2) -0.509870(17)
Cd3_2 Cd 1.74035(5) 0.23309(2) 0.004460(19)
Cd3_3 Cd 1.74035(5) -0.76691(2) -0.995540(19)
Cd3_4 Cd -0.25965(5) 0.23309(2) 0.004460(19)
N16_2 N 0.5571(6) -0.8715(3) -1.0142(2)
O2_2 O 1.7803(4) -0.3263(2) -0.5060(2)
O4A O 1.4170(4) -0.4186(2) -0.49432(18)
O6A O 1.3021(4) -0.3295(2) -0.4353(2)
O10_2 O 0.6174(5) -0.7022(2) -0.91261(19)
O15_2 O 1.4795(4) -0.18954(18) -0.46804(16)
O16A O 1.0643(4) -0.0858(2) -0.52056(19)
O17A O 1.1739(4) -0.1745(2) -0.5841(2)
O19_2 O 0.8641(5) -0.8278(2) -1.08119(17)
O7 O 0.9384(7) -0.0767(4) -0.1375(3)
O9 O 0.5666(6) -0.4733(4) -0.8818(3)
O11 O 1.5576(7) -0.5898(4) -1.0233(4)
O13 O -0.0666(10) 0.0644(6) -0.0260(5)
loop_
_geom_bond_atom_site_label_1
_geom_bond_atom_site_label_2
_geom_bond_site_symmetry_1
_geom_bond_site_symmetry_2
Cd1 N1 1_555 1_555
Cd2 N7 1_555 1_555
Cd3 N8 1_555 1_555
C1 H1 1_555 1_555
C2 C1 1_555 1_555
H2 C2 1_555 1_555
C3 C2 1_555 1_555
H3 C3 1_555 1_555
C4 C3 1_555 1_555
C5 C4 1_555 1_555
H4 C5 1_555 1_555
C6 C4 1_555 1_555
C7 H5 1_555 1_555
H6 C7 1_555 1_555
C8 H7 1_555 1_555
C9 H8 1_555 1_555
C10 C11 1_555 1_555
C11 C12 1_555 1_555
C12 H9 1_555 1_555
C13 C12 1_555 1_555
H10 C13 1_555 1_555
C14 C13 1_555 1_555
H11 C14 1_555 1_555
C15 C11 1_555 1_555
H12 C15 1_555 1_555
C16 H13 1_555 1_555
C17 C16 1_555 1_555
H14 C17 1_555 1_555
C18 C17 1_555 1_555
H15 C18 1_555 1_555
C19 C18 1_555 1_555
C20 C19 1_555 1_555
H16 C20 1_555 1_555
C21 C19 1_555 1_555
C22 H17 1_555 1_555
H18 C22 1_555 1_555
C23 H19 1_555 1_555
C24 H20 1_555 1_555
C25 C26 1_555 1_555
C26 C27 1_555 1_555
C27 H21 1_555 1_555
C28 C27 1_555 1_555
H22 C28 1_555 1_555
C29 C28 1_555 1_555
H23 C29 1_555 1_555
C30 C26 1_555 1_555
H24 C30 1_555 1_555
C31 C35 1_555 1_555
C32 C33 1_555 1_555
C33 C34 1_555 1_555
C34 H25 1_555 1_555
C35 C34 1_555 1_555
C36 C35 1_555 1_555
H26 C36 1_555 1_555
C37 C36 1_555 1_555
C38 C33 1_555 1_555
H27 C38 1_555 1_555
C39 H28 1_555 1_555
H29 C39 1_555 1_555
C40 C39 1_555 1_555
C41 C40 1_555 1_555
H30 C41 1_555 1_555
C42 C41 1_555 1_555
H31 C42 1_555 1_555
C43 C42 1_555 1_555
C44 C43 1_555 1_555
H32 C44 1_555 1_555
C45 C40 1_555 1_555
H33 C45 1_555 1_555
C46 C43 1_555 1_555
C47 C49 1_555 1_555
C48 C51 1_555 1_555
C49 C50 1_555 1_555
C50 H34 1_555 1_555
C51 C50 1_555 1_555
C52 C51 1_555 1_555
H35 C52 1_555 1_555
C53 C52 1_555 1_555
C54 C49 1_555 1_555
H36 C54 1_555 1_555
C55 H37 1_555 1_555
H38 C55 1_555 1_555
C56 C55 1_555 1_555
C57 C56 1_555 1_555
H39 C57 1_555 1_555
C58 C57 1_555 1_555
H40 C58 1_555 1_555
C59 C58 1_555 1_555
C60 C59 1_555 1_555
H41 C60 1_555 1_555
C61 C56 1_555 1_555
H42 C61 1_555 1_555
C62 C59 1_555 1_555
N1 C1 1_555 1_555
N2 C6 1_555 1_555
N3 C6 1_555 1_555
N4 C10 1_555 1_555
N5 C7 1_555 1_555
N6 C9 1_555 1_555
N7 C8 1_555 1_555
N8 C14 1_555 1_555
N9 Cd2 1_555 1_555
N10 C21 1_555 1_555
N11 C21 1_555 1_555
N12 C25 1_555 1_555
N13 C22 1_555 1_555
N14 C24 1_555 1_555
N15 Cd1 1_555 1_555
N16 C29 1_555 1_555
O1 Cd1 1_555 1_555
O2 C31 1_555 1_555
O3 Cd3 1_555 1_555
O4 C32 1_555 1_555
O5 Cd3 1_555 1_555
O6 C32 1_555 1_555
O8 C37 1_555 1_555
O10 C46 1_555 1_555
O12 C46 1_555 1_555
O14 Cd1 1_555 1_555
O15 C47 1_555 1_555
O16 C48 1_555 1_555
O17 C48 1_555 1_555
O18 C53 1_555 1_555
O19 C62 1_555 1_555
O20 C62 1_555 1_555
Cd1A O16 1_555 1_555
Cd2_2 O2 1_555 1_555
Cd2A O4 1_555 1_555
Cd3_2 N16 1_555 1_555
Cd3_3 O10 1_555 1_555
Cd3_4 O19 1_555 1_555
N16_2 Cd3 1_555 1_555
O2_2 Cd2 1_555 1_555
O4A Cd2 1_555 1_555
O6A Cd2 1_555 1_555
O10_2 Cd3 1_555 1_555
O15_2 Cd2 1_555 1_555
O16A Cd1 1_555 1_555
O17A Cd1 1_555 1_555
O19_2 Cd3 1_555 1_555
C5 N1 1_555 1_555
C7 N3 1_555 1_555
C8 N5 1_555 1_555
C9 N7 1_555 1_555
C10 N2 1_555 1_555
C15 N8 1_555 1_555
C16 N9 1_555 1_555
C20 N9 1_555 1_555
C22 N11 1_555 1_555
C23 N13 1_555 1_555
C23 N15 1_555 1_555
C24 N15 1_555 1_555
C25 N10 1_555 1_555
C30 N16 1_555 1_555
C31 O1 1_555 1_555
C37 C38 1_555 1_555
C39 O8 1_555 1_555
C44 C45 1_555 1_555
C47 O14 1_555 1_555
C53 C54 1_555 1_555
C55 O18 1_555 1_555
C60 C61 1_555 1_555
N3 N4 1_555 1_555
N5 N6 1_555 1_555
N11 N12 1_555 1_555
N13 N14 1_555 1_555
O6 Cd2A 1_555 1_555
O15 Cd2_2 1_555 1_555
O17 Cd1A 1_555 1_555

#END
