
#######################################################################
#
#                 Cambridge Crystallographic Data Centre
#                                CCDC 
#
#######################################################################
#
# If this CIF has been generated from an entry in the Cambridge 
# Structural Database, then it will include bibliographic, chemical, 
# crystal, experimental, refinement or atomic coordinate data resulting 
# from the CCDC's data processing and validation procedures.
#
#######################################################################

data_KAXXAK
_symmetry_cell_setting           triclinic
_symmetry_space_group_name_H-M   'P -1'
_symmetry_Int_Tables_number      2
_space_group_name_Hall           '-P 1'
loop_
_symmetry_equiv_pos_site_id
_symmetry_equiv_pos_as_xyz
1 x,y,z
2 -x,-y,-z
_cell_length_a                   7.6017(16)
_cell_length_b                   9.873(2)
_cell_length_c                   12.050(3)
_cell_angle_alpha                91.991(4)
_cell_angle_beta                 93.712(4)
_cell_angle_gamma                96.626(4)
_cell_volume                     895.633
loop_
_atom_site_label
_atom_site_type_symbol
_atom_site_fract_x
_atom_site_fract_y
_atom_site_fract_z
C1 C 1.1769(4) 0.7892(3) 0.0264(2)
H1 H 1.2346 0.8527 -0.0182
C2 C 1.2685(4) 0.7446(3) 0.1191(2)
C3 C 1.1821(4) 0.6486(3) 0.1845(2)
H2 H 1.2430 0.6183 0.2465
C4 C 1.0051(4) 0.5970(3) 0.1584(2)
C5 C 0.9164(4) 0.6433(3) 0.0655(2)
H3 H 0.7986 0.6089 0.0472
C6 C 0.9996(4) 0.7397(3) -0.0005(2)
C7 C 0.9006(4) 0.7883(3) -0.0961(2)
C8 C 0.7436(4) 0.7380(3) -0.1506(2)
H4 H 0.6725 0.6606 -0.1313
C9 C 0.8379(4) 0.9142(3) -0.2355(3)
H5 H 0.8476 0.9835 -0.2858
C10 C 1.4538(4) 0.8004(3) 0.1467(2)
C11 C 1.5741(4) 0.8738(3) 0.0869(3)
H6 H 1.5538 0.8959 0.0131
C12 C 1.7040(4) 0.8579(3) 0.2466(3)
H7 H 1.7887 0.8661 0.3064
C13 C 0.9149(4) 0.4959(3) 0.2275(2)
C14 C 0.7413(4) 0.4456(3) 0.2305(3)
H8 H 0.6489 0.4732 0.1857
C15 C 0.8823(4) 0.3415(3) 0.3524(3)
H9 H 0.9097 0.2834 0.4084
C16 C 0.5593(3) 0.4743(3) 0.5478(2)
C17 C 0.4027(4) 0.0014(3) 0.5142(2)
Mn1 Mn 0.48704(5) 0.24137(4) 0.38063(3)
N1 N 0.9577(3) 0.9016(2) -0.1523(2)
H10 H 1.0542 0.9551 -0.1365
N2 N 0.7043(3) 0.8168(2) -0.2379(2)
N3 N 1.7299(3) 0.9106(3) 0.1505(2)
N4 N 1.5407(3) 0.7905(3) 0.2489(2)
H11 H 1.4983 0.7486 0.3045
N5 N 0.7213(3) 0.3486(3) 0.3087(2)
N6 N 1.0015(3) 0.4276(3) 0.3068(2)
H12 H 1.1138 0.4386 0.3243
O1 O 0.5726(3) 0.3505(2) 0.54714(17)
O2 O 0.6311(3) 0.5626(2) 0.61886(17)
O3 O 0.3249(3) 0.0968(2) 0.47710(18)
O4 O 0.3391(3) -0.0897(2) 0.57396(18)
C1A C -0.1769(4) 0.2108(3) -0.0264(2)
H1A H -0.2346 0.1473 0.0182
C2A C -0.2685(4) 0.2554(3) -0.1191(2)
C3A C -0.1821(4) 0.3514(3) -0.1845(2)
H2A H -0.2430 0.3817 -0.2465
C4A C -0.0051(4) 0.4030(3) -0.1584(2)
C5A C 0.0836(4) 0.3567(3) -0.0655(2)
H3A H 0.2014 0.3911 -0.0472
C6A C 0.0004(4) 0.2603(3) 0.0005(2)
C7A C 0.0994(4) 0.2117(3) 0.0961(2)
C8A C 0.2564(4) 0.2620(3) 0.1506(2)
H4A H 0.3275 0.3394 0.1313
C9A C 0.1621(4) 0.0858(3) 0.2355(3)
H5A H 0.1524 0.0165 0.2858
C10A C -0.4538(4) 0.1996(3) -0.1467(2)
C11A C -0.5741(4) 0.1262(3) -0.0869(3)
H6A H -0.5538 0.1041 -0.0131
C12A C -0.7040(4) 0.1421(3) -0.2466(3)
H7A H -0.7887 0.1339 -0.3064
C13A C 0.0851(4) 0.5041(3) -0.2275(2)
C14A C 0.2587(4) 0.5544(3) -0.2305(3)
H8A H 0.3511 0.5268 -0.1857
C15A C 0.1177(4) 0.6585(3) -0.3524(3)
H9A H 0.0903 0.7166 -0.4084
C16A C 0.4407(3) 0.5257(3) 0.4522(2)
C17A C 0.5973(4) -0.0014(3) 0.4858(2)
Mn1A Mn 0.51296(5) 0.75863(4) -0.38063(3)
Mn1A_2 Mn 0.51296(5) 0.75863(4) 0.61937(3)
Mn1A_3 Mn 0.51296(5) -0.24137(4) 0.61937(3)
N1A N 0.0423(3) 0.0984(2) 0.1523(2)
H10A H -0.0542 0.0449 0.1365
N2A N 0.2957(3) 0.1832(2) 0.2379(2)
N3A N -0.7299(3) 0.0894(3) -0.1505(2)
N4A N -0.5407(3) 0.2095(3) -0.2489(2)
H11A H -0.4983 0.2514 -0.3045
N5A N 0.2787(3) 0.6514(3) -0.3087(2)
N6A N -0.0015(3) 0.5724(3) -0.3068(2)
H12A H -0.1138 0.5614 -0.3243
O1A O 0.4274(3) 0.6495(2) 0.45286(17)
O1A_2 O 0.4274(3) 0.6495(2) -0.54714(17)
O2A O 0.3689(3) 0.4374(2) 0.38114(17)
O2_2 O 0.6311(3) 0.5626(2) -0.38114(17)
O3A O 0.6751(3) -0.0968(2) 0.52290(18)
O3A_2 O 0.6751(3) 0.9032(2) -0.47710(18)
O4A O 0.6609(3) 0.0897(2) 0.42604(18)
O4_2 O 0.3391(3) 0.9103(2) -0.42604(18)
O5 O 0.9966(11) 0.1420(11) 0.5531(7)
loop_
_geom_bond_atom_site_label_1
_geom_bond_atom_site_label_2
_geom_bond_site_symmetry_1
_geom_bond_site_symmetry_2
C1 H1 1_555 1_555
C2 C1 1_555 1_555
C3 C2 1_555 1_555
H2 C3 1_555 1_555
C4 C3 1_555 1_555
C5 C4 1_555 1_555
H3 C5 1_555 1_555
C6 C1 1_555 1_555
C7 C6 1_555 1_555
C8 C7 1_555 1_555
H4 C8 1_555 1_555
C9 H5 1_555 1_555
C10 C2 1_555 1_555
C11 C10 1_555 1_555
H6 C11 1_555 1_555
C12 H7 1_555 1_555
C13 C4 1_555 1_555
C14 C13 1_555 1_555
H8 C14 1_555 1_555
C15 H9 1_555 1_555
C16 O1 1_555 1_555
C17 O3 1_555 1_555
Mn1 N5 1_555 1_555
N1 C7 1_555 1_555
H10 N1 1_555 1_555
N2 C8 1_555 1_555
N3 C11 1_555 1_555
N4 C10 1_555 1_555
H11 N4 1_555 1_555
N5 C14 1_555 1_555
N6 C13 1_555 1_555
H12 N6 1_555 1_555
O1 Mn1 1_555 1_555
O2 C16 1_555 1_555
O3 Mn1 1_555 1_555
O4 C17 1_555 1_555
C1A H1A 1_555 1_555
C2A C1A 1_555 1_555
C3A C2A 1_555 1_555
H2A C3A 1_555 1_555
C4A C3A 1_555 1_555
C5A C4A 1_555 1_555
H3A C5A 1_555 1_555
C6A C1A 1_555 1_555
C7A C6A 1_555 1_555
C8A C7A 1_555 1_555
H4A C8A 1_555 1_555
C9A H5A 1_555 1_555
C10A C2A 1_555 1_555
C11A C10A 1_555 1_555
H6A C11A 1_555 1_555
C12A H7A 1_555 1_555
C13A C4A 1_555 1_555
C14A C13A 1_555 1_555
H8A C14A 1_555 1_555
C15A H9A 1_555 1_555
C16A C16 1_555 1_555
C17A C17 1_555 1_555
Mn1A N2 1_555 1_555
Mn1A_2 O2 1_555 1_555
Mn1A_3 O4 1_555 1_555
N1A C7A 1_555 1_555
H10A N1A 1_555 1_555
N2A Mn1 1_555 1_555
N3A C11A 1_555 1_555
N4A C10A 1_555 1_555
H11A N4A 1_555 1_555
N5A C14A 1_555 1_555
N6A C13A 1_555 1_555
H12A N6A 1_555 1_555
O1A C16A 1_555 1_555
O1A_2 Mn1A 1_555 1_555
O2A Mn1 1_555 1_555
O2_2 Mn1A 1_555 1_555
O3A C17A 1_555 1_555
O3A_2 Mn1A 1_555 1_555
O4A Mn1 1_555 1_555
O4_2 Mn1A 1_555 1_555
C5 C6 1_555 1_555
C9 N1 1_555 1_555
C9 N2 1_555 1_555
C12 N3 1_555 1_555
C12 N4 1_555 1_555
C15 N5 1_555 1_555
C15 N6 1_555 1_555
C5A C6A 1_555 1_555
C8A N2A 1_555 1_555
C9A N1A 1_555 1_555
C9A N2A 1_555 1_555
C12A N3A 1_555 1_555
C12A N4A 1_555 1_555
C15A N5A 1_555 1_555
C15A N6A 1_555 1_555
C16A O2A 1_555 1_555
C17A O4A 1_555 1_555
Mn1A N5A 1_555 1_555
Mn1A_2 O1A 1_555 1_555
Mn1A_3 O3A 1_555 1_555

#END
