
#######################################################################
#
#                 Cambridge Crystallographic Data Centre
#                                CCDC 
#
#######################################################################
#
# If this CIF has been generated from an entry in the Cambridge 
# Structural Database, then it will include bibliographic, chemical, 
# crystal, experimental, refinement or atomic coordinate data resulting 
# from the CCDC's data processing and validation procedures.
#
#######################################################################

data_KAXXUE
_symmetry_cell_setting           triclinic
_symmetry_space_group_name_H-M   'P -1'
_symmetry_Int_Tables_number      2
_space_group_name_Hall           '-P 1'
loop_
_symmetry_equiv_pos_site_id
_symmetry_equiv_pos_as_xyz
1 x,y,z
2 -x,-y,-z
_cell_length_a                   8.6962(10)
_cell_length_b                   9.3262(11)
_cell_length_c                   15.8629(19)
_cell_angle_alpha                74.271(2)
_cell_angle_beta                 75.232(2)
_cell_angle_gamma                80.071(2)
_cell_volume                     1190.04
loop_
_atom_site_label
_atom_site_type_symbol
_atom_site_fract_x
_atom_site_fract_y
_atom_site_fract_z
Co1 Co -0.02401(4) 0.54464(4) 0.68600(2)
C1 C 0.7319(3) 0.0529(3) 0.46041(18)
C2 C 0.7379(3) 0.1195(3) 0.36953(18)
H1 H 0.8103 0.0782 0.3258
C3 C 0.6346(3) 0.2487(3) 0.34438(18)
C4 C 0.5293(3) 0.3097(3) 0.41076(18)
H2 H 0.4624 0.3967 0.3943
C5 C 0.5217(3) 0.2442(3) 0.50080(18)
C6 C 0.6227(3) 0.1156(3) 0.52533(18)
H3 H 0.6176 0.0706 0.5858
C7 C 0.8371(3) -0.0825(3) 0.49038(17)
C8 C 0.8260(3) -0.1794(3) 0.57168(18)
H4 H 0.7427 -0.1738 0.6213
C9 C 1.0428(3) -0.2541(3) 0.48817(19)
H5 H 1.1393 -0.3079 0.4677
C10 C 0.6336(3) 0.3199(3) 0.24988(18)
C11 C 0.7526(4) 0.3231(3) 0.17537(19)
H6 H 0.8577 0.2795 0.1734
C12 C 0.5355(4) 0.4449(4) 0.1378(2)
H7 H 0.4641 0.5006 0.1032
C13 C 0.4056(3) 0.3127(3) 0.56702(17)
C14 C 0.2627(3) 0.3968(3) 0.56216(18)
H8 H 0.2191 0.4263 0.5115
C15 C 0.2932(3) 0.3703(3) 0.69611(18)
H9 H 0.2765 0.3762 0.7554
C16 C 0.1510(4) 0.1723(4) 0.9239(2)
C17 C 0.1828(5) 0.0733(4) 0.8695(3)
H10 H 0.0994 0.0473 0.8518
C18 C 0.3356(5) 0.0132(4) 0.8415(3)
H11 H 0.3538 -0.0542 0.8053
C19 C 0.4625(5) 0.0479(4) 0.8645(2)
C20 C 0.4325(5) 0.1489(5) 0.9175(3)
H12 H 0.5169 0.1761 0.9337
C21 C 0.2775(4) 0.2106(3) 0.94691(18)
H13 H 0.2591 0.2787 0.9827
C22 C 0.6289(4) -0.0285(3) 0.83804(18)
H14 H 0.6190 -0.1233 0.8268
H15 H 0.6784 -0.0513 0.8892
C23 C 0.7418(4) 0.0543(3) 0.75760(19)
C24 C -0.0165(5) 0.2406(5) 0.9556(3)
H16 H -0.0238 0.2646 1.0123
H17 H -0.0897 0.1667 0.9663
C25 C -0.0696(4) 0.3811(4) 0.8904(2)
N1 N 0.1916(3) 0.4323(2) 0.64338(15)
N2 N 0.4228(3) 0.2982(3) 0.65309(15)
H18 H 0.5031 0.2510 0.6752
N3 N 0.6892(3) 0.4026(3) 0.10377(16)
N4 N 0.4977(3) 0.3994(3) 0.22480(16)
H19 H 0.4062 0.4157 0.2595
N5 N 0.9562(3) -0.2881(2) 0.57072(15)
N6 N 0.9758(3) -0.1334(2) 0.43756(15)
H20 H 1.0128 -0.0943 0.3818
O1 O 0.8758(3) -0.0159(2) 0.73567(14)
O2 O 0.6985(3) 0.1834(2) 0.71721(14)
O3 O -0.0151(3) 0.3871(3) 0.80951(14)
O4 O -0.1641(3) 0.4806(3) 0.92227(14)
O5 O -0.1041(3) 0.6891(2) 0.76574(14)
O6 O -0.2264(2) 0.4647(2) 0.68397(15)
Co1_2 Co 0.97599(4) -0.45536(4) 0.68600(2)
N5_2 N -0.0438(3) 0.7119(2) 0.57072(15)
loop_
_geom_bond_atom_site_label_1
_geom_bond_atom_site_label_2
_geom_bond_site_symmetry_1
_geom_bond_site_symmetry_2
Co1 N1 1_555 1_555
C1 C2 1_555 1_555
C2 H1 1_555 1_555
C3 C2 1_555 1_555
C4 C3 1_555 1_555
H2 C4 1_555 1_555
C5 C4 1_555 1_555
C6 C1 1_555 1_555
H3 C6 1_555 1_555
C7 C1 1_555 1_555
C8 C7 1_555 1_555
H4 C8 1_555 1_555
C9 H5 1_555 1_555
C10 C3 1_555 1_555
C11 C10 1_555 1_555
H6 C11 1_555 1_555
C12 H7 1_555 1_555
C13 C5 1_555 1_555
C14 C13 1_555 1_555
H8 C14 1_555 1_555
C15 H9 1_555 1_555
C16 C17 1_555 1_555
C17 H10 1_555 1_555
C18 C17 1_555 1_555
H11 C18 1_555 1_555
C19 C18 1_555 1_555
C20 C19 1_555 1_555
H12 C20 1_555 1_555
C21 C16 1_555 1_555
H13 C21 1_555 1_555
C22 C19 1_555 1_555
H14 C22 1_555 1_555
H15 C22 1_555 1_555
C23 C22 1_555 1_555
C24 C16 1_555 1_555
H16 C24 1_555 1_555
H17 C24 1_555 1_555
C25 C24 1_555 1_555
N1 C14 1_555 1_555
N2 C13 1_555 1_555
H18 N2 1_555 1_555
N3 C11 1_555 1_555
N4 C10 1_555 1_555
H19 N4 1_555 1_555
N5 C8 1_555 1_555
N6 C7 1_555 1_555
H20 N6 1_555 1_555
O1 C23 1_555 1_555
O2 C23 1_555 1_555
O3 Co1 1_555 1_555
O4 C25 1_555 1_555
O5 Co1 1_555 1_555
O6 Co1 1_555 1_555
Co1_2 N5 1_555 1_555
N5_2 Co1 1_555 1_555
C5 C6 1_555 1_555
C9 N5 1_555 1_555
C9 N6 1_555 1_555
C12 N3 1_555 1_555
C12 N4 1_555 1_555
C15 N1 1_555 1_555
C15 N2 1_555 1_555
C20 C21 1_555 1_555
C25 O3 1_555 1_555

#END
