
#######################################################################
#
#                 Cambridge Crystallographic Data Centre
#                                CCDC 
#
#######################################################################
#
# If this CIF has been generated from an entry in the Cambridge 
# Structural Database, then it will include bibliographic, chemical, 
# crystal, experimental, refinement or atomic coordinate data resulting 
# from the CCDC's data processing and validation procedures.
#
#######################################################################

data_KAXXIS
_symmetry_cell_setting           monoclinic
_symmetry_space_group_name_H-M   'P 2/c'
_symmetry_Int_Tables_number      13
_space_group_name_Hall           '-P 2yc'
loop_
_symmetry_equiv_pos_site_id
_symmetry_equiv_pos_as_xyz
1 x,y,z
2 -x,y,1/2-z
3 -x,-y,-z
4 x,-y,1/2+z
_cell_length_a                   13.4051(13)
_cell_length_b                   11.8197(12)
_cell_length_c                   20.1860(15)
_cell_angle_alpha                90
_cell_angle_beta                 127.807(4)
_cell_angle_gamma                90
_cell_volume                     2526.96
loop_
_atom_site_label
_atom_site_type_symbol
_atom_site_fract_x
_atom_site_fract_y
_atom_site_fract_z
Co1 Co 1.04509(6) 0.67677(4) 0.10516(3)
C1 C 1.1597(4) 0.9297(3) -0.2013(2)
C2 C 1.1634(4) 0.9074(3) -0.1323(2)
H1 H 1.1632 0.9675 -0.1026
C3 C 1.1675(4) 0.7974(3) -0.1067(2)
C4 C 1.1670(4) 0.7082(3) -0.1510(2)
H2 H 1.1675 0.6343 -0.1350
C5 C 1.1656(4) 0.7283(3) -0.2197(2)
C6 C 1.1617(4) 0.8385(3) -0.2441(2)
H3 H 1.1604 0.8520 -0.2901
C7 C 1.1444(4) 1.0451(3) -0.2325(2)
C8 C 1.1033(4) 1.0864(3) -0.3077(2)
H4 H 1.0795 1.0424 -0.3535
C9 C 1.1413(4) 1.2297(3) -0.2312(2)
H5 H 1.1496 1.3036 -0.2126
C10 C 1.1672(4) 0.7788(3) -0.0350(2)
C11 C 1.1098(4) 0.7024(3) -0.0185(2)
H6 H 1.0610 0.6420 -0.0531
C12 C 1.2089(4) 0.8156(4) 0.0862(3)
H7 H 1.2428 0.8496 0.1376
C13 C 1.1633(4) 0.6333(3) -0.2670(2)
C14 C 1.1117(4) 0.5300(3) -0.2837(2)
H8 H 1.0705 0.5021 -0.2631
C15 C 1.1915(5) 0.5388(4) -0.3477(3)
H9 H 1.2177 0.5208 -0.3797
C16 C 0.6273(4) 0.5685(4) 0.0833(3)
H10 H 0.6680 0.4994 0.0944
C17 C 0.5814(5) 0.5957(5) 0.1258(3)
H11 H 0.5920 0.5460 0.1654
C18 C 0.5198(5) 0.6960(5) 0.1100(4)
H12 H 0.4901 0.7165 0.1396
C19 C 0.5028(5) 0.7663(4) 0.0491(3)
H13 H 0.4594 0.8339 0.0373
C20 C 0.5476(4) 0.7403(4) 0.0049(3)
C21 C 0.6155(4) 0.6397(4) 0.0245(3)
C22 C 0.6754(4) 0.6075(4) -0.0155(3)
H14 H 0.6353 0.6497 -0.0673
H15 H 0.6606 0.5277 -0.0297
C23 C 0.8172(4) 0.6299(4) 0.0405(3)
C24 C 0.5197(5) 0.8211(4) -0.0620(3)
H16 H 0.4514 0.8705 -0.0759
H17 H 0.4897 0.7778 -0.1118
C25 C 0.6297(5) 0.8944(4) -0.0399(3)
N1 N 1.1338(3) 0.7267(3) 0.05670(19)
N2 N 1.2299(3) 0.8503(3) 0.0332(2)
H18 H 1.2749 0.9077 0.0402
N3 N 1.1680(3) 1.1394(3) -0.18470(19)
H19 H 1.1954 1.1394 -0.1334
N4 N 1.1017(3) 1.2030(2) -0.30707(19)
N5 N 1.2142(4) 0.6371(3) -0.3088(2)
H20 H 1.2540 0.6935 -0.3096
N6 N 1.1277(3) 0.4705(3) -0.3352(2)
O1 O 0.8823(3) 0.6227(3) 0.11708(19)
O2 O 0.8672(3) 0.6529(3) 0.00507(18)
O3 O 0.7395(3) 0.8689(2) 0.01845(18)
O4 O 0.6002(3) 0.9813(3) -0.0839(2)
Co1C Co 1.04509(6) 1.32323(4) -0.39484(3)
Co1C_2 Co 1.04509(6) 0.32323(4) -0.39484(3)
N4C N 1.1017(3) 0.7970(2) 0.19293(19)
N6C N 1.1277(3) 0.5295(3) 0.1648(2)
O5 O 0.4025(5) 0.0235(5) 0.7576(4)
O6 O 0.3281(10) 0.1839(5) 0.1735(6)
O7 O 0.8905(11) 0.8995(8) 0.9613(8)
loop_
_geom_bond_atom_site_label_1
_geom_bond_atom_site_label_2
_geom_bond_site_symmetry_1
_geom_bond_site_symmetry_2
Co1 N1 1_555 1_555
C1 C2 1_555 1_555
C2 H1 1_555 1_555
C3 C2 1_555 1_555
C4 C3 1_555 1_555
H2 C4 1_555 1_555
C5 C4 1_555 1_555
C6 C1 1_555 1_555
H3 C6 1_555 1_555
C7 C1 1_555 1_555
C8 C7 1_555 1_555
H4 C8 1_555 1_555
C9 H5 1_555 1_555
C10 C3 1_555 1_555
C11 C10 1_555 1_555
H6 C11 1_555 1_555
C12 H7 1_555 1_555
C13 C5 1_555 1_555
C14 C13 1_555 1_555
H8 C14 1_555 1_555
C15 H9 1_555 1_555
C16 H10 1_555 1_555
C17 C16 1_555 1_555
H11 C17 1_555 1_555
C18 C17 1_555 1_555
H12 C18 1_555 1_555
C19 C18 1_555 1_555
H13 C19 1_555 1_555
C20 C19 1_555 1_555
C21 C16 1_555 1_555
C22 C21 1_555 1_555
H14 C22 1_555 1_555
H15 C22 1_555 1_555
C23 C22 1_555 1_555
C24 C20 1_555 1_555
H16 C24 1_555 1_555
H17 C24 1_555 1_555
C25 C24 1_555 1_555
N1 C11 1_555 1_555
N2 C10 1_555 1_555
H18 N2 1_555 1_555
N3 C7 1_555 1_555
H19 N3 1_555 1_555
N4 C8 1_555 1_555
N5 C13 1_555 1_555
H20 N5 1_555 1_555
N6 C14 1_555 1_555
O1 C23 1_555 1_555
O2 Co1 1_555 1_555
O3 C25 1_555 1_555
O4 C25 1_555 1_555
Co1C N4 1_555 1_555
Co1C_2 N6 1_555 1_555
N4C Co1 1_555 1_555
N6C Co1 1_555 1_555
C5 C6 1_555 1_555
C9 N3 1_555 1_555
C9 N4 1_555 1_555
C12 N1 1_555 1_555
C12 N2 1_555 1_555
C15 N5 1_555 1_555
C15 N6 1_555 1_555
C20 C21 1_555 1_555
C23 O2 1_555 1_555

#END
