
#######################################################################
#
#                 Cambridge Crystallographic Data Centre
#                                CCDC 
#
#######################################################################
#
# If this CIF has been generated from an entry in the Cambridge 
# Structural Database, then it will include bibliographic, chemical, 
# crystal, experimental, refinement or atomic coordinate data resulting 
# from the CCDC's data processing and validation procedures.
#
#######################################################################

data_KAXXEO
_symmetry_cell_setting           monoclinic
_symmetry_space_group_name_H-M   'P 21/n'
_symmetry_Int_Tables_number      14
_space_group_name_Hall           '-P 2yn'
loop_
_symmetry_equiv_pos_site_id
_symmetry_equiv_pos_as_xyz
1 x,y,z
2 1/2-x,1/2+y,1/2-z
3 -x,-y,-z
4 1/2+x,1/2-y,1/2+z
_cell_length_a                   11.841(4)
_cell_length_b                   15.942(6)
_cell_length_c                   13.104(4)
_cell_angle_alpha                90
_cell_angle_beta                 102.542(7)
_cell_angle_gamma                90
_cell_volume                     2414.6
loop_
_atom_site_label
_atom_site_type_symbol
_atom_site_fract_x
_atom_site_fract_y
_atom_site_fract_z
Zn1 Zn 0.60726(6) 0.62016(4) 0.66125(5)
Zn2 Zn 0.36255(6) 0.80858(4) 0.30561(5)
C1 C 0.3354(5) 0.9034(3) 0.5461(4)
C2 C 0.2640(5) 0.9121(3) 0.6159(5)
H1 H 0.2654 0.8716 0.6673
C3 C 0.1907(5) 0.9800(4) 0.6106(4)
C4 C 0.1840(5) 1.0379(4) 0.5309(4)
H2 H 0.1310 1.0817 0.5245
C5 C 0.2553(5) 1.0312(3) 0.4608(4)
C6 C 0.3324(5) 0.9645(3) 0.4710(4)
H3 H 0.3833 0.9609 0.4262
C7 C 0.4071(5) 0.8283(3) 0.5474(4)
C8 C 0.4600(5) 0.7790(4) 0.6275(5)
H4 H 0.4558 0.7864 0.6970
C9 C 0.5021(5) 0.7318(4) 0.4907(5)
H5 H 0.5340 0.6984 0.4460
C10 C 0.2407(5) 1.0907(4) 0.3724(5)
C11 C 0.1822(6) 1.1645(4) 0.3536(5)
H6 H 0.1435 1.1903 0.3997
C12 C 0.2521(6) 1.1408(4) 0.2206(5)
H7 H 0.2722 1.1464 0.1562
C13 C 0.1159(5) 0.9919(4) 0.6846(4)
C14 C 0.0556(5) 1.0592(4) 0.7045(5)
H8 H 0.0525 1.1103 0.6697
C15 C 0.0269(5) 0.9652(4) 0.8113(5)
H9 H 0.0014 0.9369 0.8641
C16 C 0.8051(5) 0.5297(4) 0.4621(5)
C17 C 0.8892(5) 0.5693(4) 0.4214(5)
H10 H 0.9050 0.6257 0.4363
C18 C 0.9497(6) 0.5273(4) 0.3598(5)
H11 H 1.0053 0.5550 0.3319
C19 C 0.9274(5) 0.4436(5) 0.3396(5)
C20 C 0.8423(6) 0.4025(4) 0.3778(5)
H12 H 0.8262 0.3462 0.3622
C21 C 0.7815(5) 0.4466(4) 0.4397(5)
H13 H 0.7243 0.4197 0.4662
C22 C 0.7411(6) 0.5795(4) 0.5294(5)
C23 C 1.0031(6) 0.3946(5) 0.2808(5)
N1 N 0.5198(4) 0.7173(3) 0.5919(4)
N2 N 0.4355(4) 0.7972(3) 0.4575(4)
N3 N 0.1882(4) 1.1953(3) 0.2577(4)
N4 N 0.2847(5) 1.0771(3) 0.2853(4)
H14 H 0.3258 1.0349 0.2746
N5 N -0.0008(4) 1.0422(3) 0.7831(4)
N6 N 0.0972(4) 0.9321(3) 0.7542(4)
H15 H 0.1254 0.8822 0.7603
O1 O 0.6706(4) 0.5406(3) 0.5719(3)
O2 O 0.7605(5) 0.6556(3) 0.5404(4)
O3 O 1.0816(4) 0.4337(3) 0.2479(4)
O4 O 0.9870(5) 0.3178(3) 0.2642(4)
O5 O 0.7045(3) 0.6497(2) 0.7960(3)
Zn1A Zn -0.10726(6) 1.12016(4) 0.83875(5)
Zn2A Zn 0.13745(6) 1.30858(4) 0.19439(5)
Zn2A_2 Zn 1.13745(6) 0.30858(4) 0.19439(5)
Zn2C Zn 0.86255(6) 0.69142(4) 0.80561(5)
N3A N 0.3118(4) 0.6953(3) 0.2423(4)
N5A N 0.5008(4) 0.5422(3) 0.7169(4)
O3A O 0.4184(4) 0.9337(3) 0.2521(4)
O4A O 0.5130(5) 0.8178(3) 0.2358(4)
O5C O 0.2045(3) 0.8503(2) 0.2960(3)
O6 O 0.5842(12) 0.7464(7) 0.9179(10)
O7 O 0.2956(5) 0.2766(3) 0.6842(5)
loop_
_geom_bond_atom_site_label_1
_geom_bond_atom_site_label_2
_geom_bond_site_symmetry_1
_geom_bond_site_symmetry_2
Zn1 N1 1_555 1_555
Zn2 N2 1_555 1_555
C1 C2 1_555 1_555
C2 H1 1_555 1_555
C3 C2 1_555 1_555
C4 C3 1_555 1_555
H2 C4 1_555 1_555
C5 C4 1_555 1_555
C6 C1 1_555 1_555
H3 C6 1_555 1_555
C7 C1 1_555 1_555
C8 C7 1_555 1_555
H4 C8 1_555 1_555
C9 H5 1_555 1_555
C10 C5 1_555 1_555
C11 C10 1_555 1_555
H6 C11 1_555 1_555
C12 H7 1_555 1_555
C13 C3 1_555 1_555
C14 C13 1_555 1_555
H8 C14 1_555 1_555
C15 H9 1_555 1_555
C16 C17 1_555 1_555
C17 H10 1_555 1_555
C18 C17 1_555 1_555
H11 C18 1_555 1_555
C19 C18 1_555 1_555
C20 C19 1_555 1_555
H12 C20 1_555 1_555
C21 C16 1_555 1_555
H13 C21 1_555 1_555
C22 C16 1_555 1_555
C23 C19 1_555 1_555
N1 C8 1_555 1_555
N2 C7 1_555 1_555
N3 C11 1_555 1_555
N4 C10 1_555 1_555
H14 N4 1_555 1_555
N5 C14 1_555 1_555
N6 C13 1_555 1_555
H15 N6 1_555 1_555
O1 Zn1 1_555 1_555
O2 C22 1_555 1_555
O3 C23 1_555 1_555
O4 C23 1_555 1_555
O5 Zn1 1_555 1_555
Zn1A N5 1_555 1_555
Zn2A N3 1_555 1_555
Zn2A_2 O3 1_555 1_555
Zn2C O5 1_555 1_555
N3A Zn2 1_555 1_555
N5A Zn1 1_555 1_555
O3A Zn2 1_555 1_555
O4A Zn2 1_555 1_555
O5C Zn2 1_555 1_555
C5 C6 1_555 1_555
C9 N1 1_555 1_555
C9 N2 1_555 1_555
C12 N3 1_555 1_555
C12 N4 1_555 1_555
C15 N5 1_555 1_555
C15 N6 1_555 1_555
C20 C21 1_555 1_555
C22 O1 1_555 1_555
O4 Zn2A_2 1_555 1_555

#END
