
#######################################################################
#
#                 Cambridge Crystallographic Data Centre
#                                CCDC 
#
#######################################################################
#
# If this CIF has been generated from an entry in the Cambridge 
# Structural Database, then it will include bibliographic, chemical, 
# crystal, experimental, refinement or atomic coordinate data resulting 
# from the CCDC's data processing and validation procedures.
#
#######################################################################

data_KAXXOY
_symmetry_cell_setting           monoclinic
_symmetry_space_group_name_H-M   'P 21/c'
_symmetry_Int_Tables_number      14
_space_group_name_Hall           '-P 2ybc'
loop_
_symmetry_equiv_pos_site_id
_symmetry_equiv_pos_as_xyz
1 x,y,z
2 -x,1/2+y,1/2-z
3 -x,-y,-z
4 x,1/2-y,1/2+z
_cell_length_a                   13.400(2)
_cell_length_b                   12.5628(17)
_cell_length_c                   14.279(3)
_cell_angle_alpha                90
_cell_angle_beta                 107.719(7)
_cell_angle_gamma                90
_cell_volume                     2289.72
loop_
_atom_site_label
_atom_site_type_symbol
_atom_site_fract_x
_atom_site_fract_y
_atom_site_fract_z
Ni1 Ni 0.263062(14) 0.157749(16) 0.477824(15)
O1 O 0.32822(9) 0.22543(10) 0.61901(9)
O2 O 0.32319(9) 0.05131(9) 0.60672(9)
O3 O 0.77147(9) -0.05560(10) 0.64081(9)
O4 O 0.94418(9) -0.03802(11) 0.70748(10)
N1 N 0.00640(11) 0.09366(12) 0.58294(12)
H1 H -0.0253 0.0519 0.6144
N2 N 0.12362(11) 0.15015(11) 0.51414(12)
N3 N -0.21894(10) 0.70160(11) 0.59718(10)
N4 N -0.11688(11) 0.56906(11) 0.67012(11)
H2 H -0.0638 0.5349 0.7107
N5 N -0.44205(10) 0.11057(11) 0.43596(10)
H3 H -0.3994 0.0727 0.4130
N6 N -0.58635(10) 0.16118(10) 0.46621(10)
C1 C 0.51796(14) 0.10167(16) 0.78268(12)
C2 C 0.58475(17) 0.17992(16) 0.76734(15)
H4 H 0.5597 0.2506 0.7524
C3 C 0.68732(17) 0.15569(17) 0.77361(16)
H5 H 0.7319 0.2101 0.7630
C4 C 0.72605(14) 0.05331(17) 0.79509(13)
C5 C 0.66034(16) -0.02396(16) 0.81173(14)
H6 H 0.6857 -0.0944 0.8273
C6 C 0.55769(16) -0.00008(16) 0.80598(14)
H7 H 0.5138 -0.0543 0.8182
C7 C 0.40350(16) 0.12699(19) 0.76785(14)
H8 H 0.3973 0.1950 0.8008
H9 H 0.3713 0.0700 0.7969
C8 C 0.34753(13) 0.13557(14) 0.65822(13)
C9 C 0.83652(16) 0.0267(2) 0.79872(16)
H10 H 0.8667 -0.0204 0.8560
H11 H 0.8779 0.0933 0.8105
C10 C 0.85077(12) -0.02723(13) 0.70783(13)
C11 C -0.20612(12) 0.40964(13) 0.57456(12)
C12 C -0.11717(13) 0.35194(13) 0.57494(14)
H12 H -0.0508 0.3861 0.5936
C13 C -0.12421(12) 0.24522(14) 0.54844(13)
C14 C -0.22181(13) 0.19418(14) 0.52289(13)
H13 H -0.2267 0.1206 0.5066
C15 C -0.31193(12) 0.25114(13) 0.52133(12)
C16 C -0.30343(12) 0.35876(13) 0.54685(12)
H14 H -0.3646 0.3979 0.5454
C17 C -0.19847(12) 0.52388(13) 0.59765(13)
C18 C -0.26055(12) 0.60713(13) 0.55387(13)
H15 H -0.3236 0.6008 0.5010
C19 C -0.13299(14) 0.67525(14) 0.66771(14)
H16 H -0.0883 0.7246 0.7111
C20 C -0.02827(13) 0.19134(14) 0.54318(14)
C21 C 0.04601(13) 0.22524(15) 0.50270(15)
H17 H 0.0444 0.2919 0.4708
C22 C 0.09767(13) 0.07322(14) 0.56512(14)
H18 H 0.1384 0.0109 0.5867
C23 C -0.41616(12) 0.20155(13) 0.49199(12)
C24 C -0.50676(12) 0.23170(13) 0.51005(12)
H19 H -0.5139 0.2923 0.5473
C25 C -0.54362(12) 0.08967(13) 0.42240(12)
H20 H -0.5802 0.0309 0.3859
Ni1B Ni 0.736938(14) -0.157749(16) 0.522176(15)
Ni1B_2 Ni -0.263062(14) 0.842251(16) 0.522176(15)
Ni1_2 Ni -0.736938(14) 0.157749(16) 0.477824(15)
O3B O 0.22853(9) 0.05560(10) 0.35919(9)
N3B N 0.21894(10) 0.29840(11) 0.40282(10)
N6_2 N 0.41365(10) 0.16118(10) 0.46621(10)
loop_
_geom_bond_atom_site_label_1
_geom_bond_atom_site_label_2
_geom_bond_site_symmetry_1
_geom_bond_site_symmetry_2
Ni1 O1 1_555 1_555
O1 C8 1_555 1_555
O2 Ni1 1_555 1_555
O3 C10 1_555 1_555
O4 C10 1_555 1_555
N1 H1 1_555 1_555
N2 Ni1 1_555 1_555
N3 C18 1_555 1_555
N4 H2 1_555 1_555
N5 H3 1_555 1_555
N6 C24 1_555 1_555
C1 C2 1_555 1_555
C2 H4 1_555 1_555
C3 C2 1_555 1_555
H5 C3 1_555 1_555
C4 C3 1_555 1_555
C5 C4 1_555 1_555
H6 C5 1_555 1_555
C6 C1 1_555 1_555
H7 C6 1_555 1_555
C7 C1 1_555 1_555
H8 C7 1_555 1_555
H9 C7 1_555 1_555
C8 O2 1_555 1_555
C9 C4 1_555 1_555
H10 C9 1_555 1_555
H11 C9 1_555 1_555
C10 C9 1_555 1_555
C11 C12 1_555 1_555
C12 H12 1_555 1_555
C13 C12 1_555 1_555
C14 C13 1_555 1_555
H13 C14 1_555 1_555
C15 C14 1_555 1_555
C16 C11 1_555 1_555
H14 C16 1_555 1_555
C17 N4 1_555 1_555
C18 C17 1_555 1_555
H15 C18 1_555 1_555
C19 N3 1_555 1_555
H16 C19 1_555 1_555
C20 N1 1_555 1_555
C21 N2 1_555 1_555
H17 C21 1_555 1_555
C22 N1 1_555 1_555
H18 C22 1_555 1_555
C23 N5 1_555 1_555
C24 C23 1_555 1_555
H19 C24 1_555 1_555
C25 N5 1_555 1_555
H20 C25 1_555 1_555
Ni1B O3 1_555 1_555
Ni1B_2 N3 1_555 1_555
Ni1_2 N6 1_555 1_555
O3B Ni1 1_555 1_555
N3B Ni1 1_555 1_555
N6_2 Ni1 1_555 1_555
N2 C22 1_555 1_555
N4 C19 1_555 1_555
N6 C25 1_555 1_555
C5 C6 1_555 1_555
C7 C8 1_555 1_555
C11 C17 1_555 1_555
C13 C20 1_555 1_555
C15 C16 1_555 1_555
C15 C23 1_555 1_555
C20 C21 1_555 1_555

#END
