
#######################################################################
#
#                 Cambridge Crystallographic Data Centre
#                                CCDC 
#
#######################################################################
#
# If this CIF has been generated from an entry in the Cambridge 
# Structural Database, then it will include bibliographic, chemical, 
# crystal, experimental, refinement or atomic coordinate data resulting 
# from the CCDC's data processing and validation procedures.
#
#######################################################################

data_KAXYOZ
_symmetry_cell_setting           triclinic
_symmetry_space_group_name_H-M   'P -1'
_symmetry_Int_Tables_number      2
_space_group_name_Hall           '-P 1'
loop_
_symmetry_equiv_pos_site_id
_symmetry_equiv_pos_as_xyz
1 x,y,z
2 -x,-y,-z
_cell_length_a                   8.5677(5)
_cell_length_b                   8.8858(7)
_cell_length_c                   13.8837(6)
_cell_angle_alpha                87.271(6)
_cell_angle_beta                 79.774(4)
_cell_angle_gamma                65.615(4)
_cell_volume                     947.006
loop_
_atom_site_label
_atom_site_type_symbol
_atom_site_fract_x
_atom_site_fract_y
_atom_site_fract_z
Cu1 Cu -1.0000 0.5000 0.0000
Cu2 Cu 0.0000 -0.5000 -0.5000
P1 P -0.9124(12) 0.8142(11) -0.0828(6)
P2 P -0.1522(12) 0.2608(12) -0.4624(7)
O1 O -0.7883(21) 0.7673(23) -0.0076(12)
O2 O -0.9636(26) 0.6686(19) -0.0883(11)
O3 O -1.0709(19) 0.9505(20) -0.0563(12)
O4 O -0.1521(25) 0.1312(20) -0.5308(12)
O5 O -0.2008(17) 0.4341(17) -0.4854(12)
O6 O 0.0329(20) 0.2059(17) -0.4580(13)
C1 C -0.7772(22) 0.8255(22) -0.2004(12)
C2 C -0.6057(21) 0.6681(19) -0.2113(12)
C3 C -0.5484(22) 0.5485(24) -0.2861(13)
C4 C -0.3906(21) 0.4121(21) -0.2899(13)
C5 C -0.3126(25) 0.3777(22) -0.2097(16)
C6 C -0.3761(27) 0.4873(29) -0.1327(14)
C7 C -0.5273(27) 0.6305(24) -0.1318(13)
C8 C -0.3238(23) 0.2633(24) -0.3661(14)
N1 N -0.7950(16) 0.3070(16) -0.0820(10)
N2 N -0.1961(20) -0.3075(17) -0.4369(11)
C9 C -0.6261(22) 0.2250(25) -0.0658(13)
C10 C -0.4918(21) 0.1018(22) -0.1361(14)
C11 C -0.5355(20) 0.0565(19) -0.2186(13)
C12 C -0.7021(23) 0.1244(22) -0.2227(13)
C13 C -0.8123(23) 0.2737(19) -0.1672(12)
C14 C -0.4204(21) -0.0735(20) -0.2945(12)
C15 C -0.4824(21) -0.1078(23) -0.3704(15)
C16 C -0.3612(24) -0.2296(27) -0.4414(14)
C17 C -0.2365(24) -0.1575(26) -0.3022(11)
C18 C -0.1311(21) -0.2387(24) -0.3922(13)
Cu2_2 Cu 0.0000 0.5000 -0.5000
Cu2_3 Cu -2.0000 1.5000 0.5000
Cu2_4 Cu -2.0000 0.5000 0.5000
P1A P -1.0876(12) 0.1858(11) 0.0828(6)
P2A P -1.8478(12) 0.7392(12) 0.4624(7)
O1A O -1.2117(21) 0.2327(23) 0.0076(12)
O2A O -1.0364(26) 0.3314(19) 0.0883(11)
O3A O -0.9291(19) 0.0495(20) 0.0563(12)
O4A O -1.8479(25) 0.8688(20) 0.5308(12)
O5_2 O -0.2008(17) -0.5659(17) -0.4854(12)
O5A O 0.2008(17) -0.4341(17) -0.5146(12)
O5A_2 O -1.7992(17) 0.5659(17) 0.4854(12)
O6A O -2.0329(20) 0.7941(17) 0.4580(13)
C1A C -1.2228(22) 0.1745(22) 0.2004(12)
C2A C -1.3943(21) 0.3319(19) 0.2113(12)
C3A C -1.4516(22) 0.4515(24) 0.2861(13)
C4A C -1.6094(21) 0.5879(21) 0.2899(13)
C5A C -1.6874(25) 0.6223(22) 0.2097(16)
C6A C -1.6239(27) 0.5127(29) 0.1327(14)
C7A C -1.4727(27) 0.3695(24) 0.1318(13)
C8A C -1.6762(23) 0.7367(24) 0.3661(14)
N1A N -1.2050(16) 0.6930(16) 0.0820(10)
N2A N 0.1961(20) -0.6925(17) -0.5631(11)
N2A_2 N -1.8039(20) 1.3075(17) 0.4369(11)
C9A C -1.3739(22) 0.7750(25) 0.0658(13)
C10A C -1.5082(21) 0.8982(22) 0.1361(14)
C11A C -1.4645(20) 0.9435(19) 0.2186(13)
C12A C -1.2979(23) 0.8756(22) 0.2227(13)
C13A C -1.1877(23) 0.7263(19) 0.1672(12)
C14A C -1.5796(21) 1.0735(20) 0.2945(12)
C15A C -1.5176(21) 1.1078(23) 0.3704(15)
C16A C -1.6388(24) 1.2296(27) 0.4414(14)
C17A C -1.7635(24) 1.1575(26) 0.3022(11)
C18A C -1.8689(21) 1.2387(24) 0.3922(13)
loop_
_geom_bond_atom_site_label_1
_geom_bond_atom_site_label_2
_geom_bond_site_symmetry_1
_geom_bond_site_symmetry_2
Cu1 O2 1_555 1_555
Cu2 N2 1_555 1_555
P1 O1 1_555 1_555
P2 O4 1_555 1_555
O2 P1 1_555 1_555
O3 P1 1_555 1_555
O5 P2 1_555 1_555
O6 P2 1_555 1_555
C1 P1 1_555 1_555
C2 C1 1_555 1_555
C3 C2 1_555 1_555
C4 C3 1_555 1_555
C5 C4 1_555 1_555
C6 C5 1_555 1_555
C7 C2 1_555 1_555
C8 P2 1_555 1_555
N1 Cu1 1_555 1_555
N2 C16 1_555 1_555
C9 N1 1_555 1_555
C10 C9 1_555 1_555
C11 C10 1_555 1_555
C12 C11 1_555 1_555
C13 N1 1_555 1_555
C14 C11 1_555 1_555
C15 C14 1_555 1_555
C16 C15 1_555 1_555
C17 C14 1_555 1_555
C18 N2 1_555 1_555
Cu2_2 O5 1_555 1_555
Cu2_3 N2A_2 1_555 1_555
Cu2_4 O5A_2 1_555 1_555
P1A O1A 1_555 1_555
P2A O4A 1_555 1_555
O2A Cu1 1_555 1_555
O3A P1A 1_555 1_555
O5_2 Cu2 1_555 1_555
O5A Cu2 1_555 1_555
O5A_2 P2A 1_555 1_555
O6A P2A 1_555 1_555
C1A P1A 1_555 1_555
C2A C1A 1_555 1_555
C3A C2A 1_555 1_555
C4A C3A 1_555 1_555
C5A C4A 1_555 1_555
C6A C5A 1_555 1_555
C7A C2A 1_555 1_555
C8A P2A 1_555 1_555
N1A Cu1 1_555 1_555
N2A Cu2 1_555 1_555
N2A_2 C16A 1_555 1_555
C9A N1A 1_555 1_555
C10A C9A 1_555 1_555
C11A C10A 1_555 1_555
C12A C11A 1_555 1_555
C13A N1A 1_555 1_555
C14A C11A 1_555 1_555
C15A C14A 1_555 1_555
C16A C15A 1_555 1_555
C17A C14A 1_555 1_555
C18A N2A_2 1_555 1_555
C4 C8 1_555 1_555
C6 C7 1_555 1_555
C12 C13 1_555 1_555
C17 C18 1_555 1_555
P1A O2A 1_555 1_555
C4A C8A 1_555 1_555
C6A C7A 1_555 1_555
C12A C13A 1_555 1_555
C17A C18A 1_555 1_555

#END
