
#######################################################################
#
#                 Cambridge Crystallographic Data Centre
#                                CCDC 
#
#######################################################################
#
# If this CIF has been generated from an entry in the Cambridge 
# Structural Database, then it will include bibliographic, chemical, 
# crystal, experimental, refinement or atomic coordinate data resulting 
# from the CCDC's data processing and validation procedures.
#
#######################################################################

data_KAXYAL
_symmetry_cell_setting           orthorhombic
_symmetry_space_group_name_H-M   'P b c a'
_symmetry_Int_Tables_number      61
_space_group_name_Hall           '-P 2ac 2ab'
loop_
_symmetry_equiv_pos_site_id
_symmetry_equiv_pos_as_xyz
1 x,y,z
2 1/2-x,-y,1/2+z
3 -x,1/2+y,1/2-z
4 1/2+x,1/2-y,-z
5 -x,-y,-z
6 1/2+x,y,1/2-z
7 x,1/2-y,1/2+z
8 1/2-x,1/2+y,z
_cell_length_a                   8.4623(9)
_cell_length_b                   21.721(2)
_cell_length_c                   29.534(3)
_cell_angle_alpha                90
_cell_angle_beta                 90
_cell_angle_gamma                90
_cell_volume                     5428.63
loop_
_atom_site_label
_atom_site_type_symbol
_atom_site_fract_x
_atom_site_fract_y
_atom_site_fract_z
Co1 Co 0.54732(5) 0.384717(17) 0.232732(13)
Co2 Co 0.82004(5) 0.253923(17) 0.077364(12)
C1 C 0.4943(4) 0.13247(12) 0.29321(10)
C2 C 0.5379(3) 0.16185(12) 0.33305(9)
H1 H 0.5231 0.1420 0.3606
C3 C 0.6030(3) 0.21996(13) 0.33225(9)
C4 C 0.6283(4) 0.24856(12) 0.29086(10)
H2 H 0.6748 0.2873 0.2901
C5 C 0.5852(3) 0.22011(12) 0.25068(9)
C6 C 0.5172(4) 0.16223(12) 0.25233(10)
H3 H 0.4864 0.1431 0.2256
C7 C 0.4326(4) 0.06970(12) 0.29607(9)
C8 C 0.4578(4) 0.01907(13) 0.27068(10)
H4 H 0.5168 0.0183 0.2441
C9 C 0.3126(4) -0.00973(13) 0.32583(10)
H5 H 0.2504 -0.0334 0.3451
C10 C 0.6545(3) 0.24790(12) 0.37514(9)
C11 C 0.8005(4) 0.26583(15) 0.38670(11)
H6 H 0.8894 0.2658 0.3682
C12 C 0.6475(4) 0.27740(14) 0.44444(10)
H7 H 0.6121 0.2873 0.4734
C13 C 0.6227(4) 0.24964(12) 0.20717(9)
C14 C 0.6743(3) 0.22197(13) 0.16878(9)
H8 H 0.6813 0.1797 0.1644
C15 C 0.6846(4) 0.31775(13) 0.15781(9)
H9 H 0.7010 0.3556 0.1439
C16 C 0.6545(4) 0.46955(14) 0.37625(10)
C17 C 0.6462(4) 0.53160(15) 0.36949(11)
H10 H 0.7069 0.5494 0.3467
C18 C 0.5503(4) 0.56854(14) 0.39543(10)
H11 H 0.5476 0.6107 0.3901
C19 C 0.4577(4) 0.54359(13) 0.42942(10)
C20 C 0.4598(4) 0.48127(14) 0.43507(10)
H12 H 0.3948 0.4634 0.4568
C21 C 0.5574(4) 0.44409(14) 0.40905(11)
H13 H 0.5576 0.4017 0.4137
C22 C 0.7712(4) 0.43006(16) 0.35080(10)
H14 H 0.8671 0.4537 0.3461
H15 H 0.7983 0.3950 0.3696
C23 C 0.7156(4) 0.40691(12) 0.30597(10)
C24 C 0.3645(4) 0.58465(13) 0.46132(10)
H16 H 0.2904 0.5593 0.4781
H17 H 0.4371 0.6027 0.4830
C25 C 0.2750(3) 0.63539(13) 0.43859(9)
C26 C 0.6873(4) 0.34024(13) 0.02327(10)
C27 C 0.6678(4) 0.38457(15) -0.01576(11)
H18 H 0.6144 0.3630 -0.0401
H19 H 0.7722 0.3955 -0.0266
C28 C 0.5781(4) 0.44359(13) -0.00652(10)
C29 C 0.5493(4) 0.48275(15) -0.04173(11)
H20 H 0.5817 0.4716 -0.0707
C30 C 0.5267(4) 0.46154(15) 0.03554(11)
H21 H 0.5433 0.4358 0.0603
N1 N 0.6289(3) 0.31241(10) 0.19987(8)
N2 N 0.7142(3) 0.26519(10) 0.13760(7)
N3 N 0.3401(3) 0.04963(10) 0.33151(8)
H22 H 0.3061 0.0719 0.3535
N4 N 0.3843(3) -0.03117(10) 0.28953(8)
N5 N 0.5566(3) 0.25494(10) 0.41230(8)
N6 N 0.7934(3) 0.28420(13) 0.43090(9)
H23 H 0.8709 0.2978 0.4469
O1 O 0.2695(3) 0.68643(9) 0.45874(6)
O2 O 0.2103(3) 0.62709(9) 0.40173(7)
O3 O 0.5708(2) 0.40364(9) 0.29806(7)
O4 O 0.8150(2) 0.38882(9) 0.27673(7)
O5 O 0.8247(3) 0.32492(9) 0.03409(7)
O6 O 0.5727(3) 0.31934(13) 0.04268(10)
Co1B Co 0.45268(5) 0.884717(17) 0.267268(13)
Co1B_2 Co 0.45268(5) -0.115283(17) 0.267268(13)
Co1E Co 1.04732(5) 0.384717(17) 0.267268(13)
Co1E_2 Co 0.04732(5) 0.384717(17) 0.267268(13)
Co2B Co 0.17996(5) 0.753923(17) 0.422636(12)
Co2E Co 0.32004(5) 0.253923(17) 0.422636(12)
Co2D Co 0.17996(5) 0.746077(17) -0.077364(12)
Co2G Co -0.32004(5) 0.753923(17) 0.077364(12)
Co2G_2 Co 0.67996(5) 0.753923(17) 0.077364(12)
C1B C 0.5057(4) 0.63247(12) 0.20679(10)
C2B C 0.4621(3) 0.66185(12) 0.16695(9)
H1B H 0.4769 0.6420 0.1394
C3B C 0.3970(3) 0.71996(13) 0.16775(9)
C4B C 0.3717(4) 0.74856(12) 0.20914(10)
H2B H 0.3252 0.7873 0.2099
C5B C 0.4148(3) 0.72011(12) 0.24932(9)
C6B C 0.4828(4) 0.66223(12) 0.24767(10)
H3B H 0.5136 0.6431 0.2744
C7B C 0.5674(4) 0.56970(12) 0.20393(9)
C8B C 0.5422(4) 0.51907(13) 0.22932(10)
H4B H 0.4832 0.5183 0.2559
C9B C 0.6874(4) 0.49027(13) 0.17417(10)
H5B H 0.7496 0.4666 0.1549
C10B C 0.3455(3) 0.74790(12) 0.12486(9)
C11B C 0.1995(4) 0.76583(15) 0.11330(11)
H6B H 0.1106 0.7658 0.1318
C12B C 0.3525(4) 0.77740(14) 0.05556(10)
H7B H 0.3879 0.7873 0.0266
C13B C 0.3773(4) 0.74964(12) 0.29283(9)
C14B C 0.3257(3) 0.72197(13) 0.33122(9)
H8B H 0.3187 0.6797 0.3356
C15B C 0.3154(4) 0.81775(13) 0.34219(9)
H9B H 0.2990 0.8556 0.3561
C16E C 0.1545(4) 0.46955(14) 0.12375(10)
C17E C 0.1462(4) 0.53160(15) 0.13051(11)
H10E H 0.2069 0.5494 0.1533
C18E C 0.0503(4) 0.56854(14) 0.10457(10)
H11E H 0.0476 0.6107 0.1099
C19E C -0.0423(4) 0.54359(13) 0.07058(10)
C20E C -0.0402(4) 0.48127(14) 0.06493(10)
H12E H -0.1052 0.4634 0.0432
C21E C 0.0574(4) 0.44409(14) 0.09095(11)
H13E H 0.0576 0.4017 0.0863
C22E C 0.2712(4) 0.43006(16) 0.14920(10)
H14E H 0.3671 0.4537 0.1539
H15E H 0.2983 0.3950 0.1304
C23E C 0.2156(4) 0.40691(12) 0.19403(10)
C24E C -0.1355(4) 0.58465(13) 0.03868(10)
H16E H -0.2096 0.5593 0.0219
H17E H -0.0629 0.6027 0.0170
C25E C -0.2250(3) 0.63539(13) 0.06141(9)
C26D C 0.3127(4) 0.65976(13) -0.02327(10)
C27D C 0.3322(4) 0.61543(15) 0.01576(11)
H18D H 0.3856 0.6370 0.0401
H19D H 0.2278 0.6045 0.0266
C28D C 0.4219(4) 0.55641(13) 0.00652(10)
C29D C 0.4507(4) 0.51725(15) 0.04173(11)
H20D H 0.4183 0.5284 0.0707
C30D C 0.4733(4) 0.53846(15) -0.03554(11)
H21D H 0.4567 0.5642 -0.0603
N1B N 0.3711(3) 0.81241(10) 0.30013(8)
N2B N 0.2858(3) 0.76519(10) 0.36240(7)
N3B N 0.6599(3) 0.54963(10) 0.16849(8)
H22B H 0.6939 0.5719 0.1465
N4B N 0.6157(3) 0.46883(10) 0.21047(8)
N4_2 N 0.3843(3) 0.96883(10) 0.28953(8)
N5B N 0.4434(3) 0.75494(10) 0.08770(8)
N5E N 1.0566(3) 0.25494(10) 0.08770(8)
N5G N -0.0566(3) 0.75494(10) 0.41230(8)
N6B N 0.2066(3) 0.78420(13) 0.06910(9)
H23B H 0.1291 0.7978 0.0531
O1E O -0.2305(3) 0.68643(9) 0.04126(6)
O1B O 0.7305(3) 0.18643(9) 0.04126(6)
O2E O -0.2897(3) 0.62709(9) 0.09827(7)
O3E O 0.0708(2) 0.40364(9) 0.20194(7)
O3B O 0.4292(2) 0.90364(9) 0.20194(7)
O4E O 0.3150(2) 0.38882(9) 0.22327(7)
O4G O 0.6850(2) 0.88882(9) 0.27673(7)
O5D O 0.1753(3) 0.67508(9) -0.03409(7)
O5B O 0.1753(3) 0.82492(9) 0.46591(7)
O6D O 0.4273(3) 0.68066(13) -0.04268(10)
loop_
_geom_bond_atom_site_label_1
_geom_bond_atom_site_label_2
_geom_bond_site_symmetry_1
_geom_bond_site_symmetry_2
Co1 N1 1_555 1_555
Co2 N2 1_555 1_555
C1 C2 1_555 1_555
C2 H1 1_555 1_555
C3 C2 1_555 1_555
C4 C3 1_555 1_555
H2 C4 1_555 1_555
C5 C4 1_555 1_555
C6 C1 1_555 1_555
H3 C6 1_555 1_555
C7 C1 1_555 1_555
C8 C7 1_555 1_555
H4 C8 1_555 1_555
C9 H5 1_555 1_555
C10 C3 1_555 1_555
C11 C10 1_555 1_555
H6 C11 1_555 1_555
C12 H7 1_555 1_555
C13 C5 1_555 1_555
C14 C13 1_555 1_555
H8 C14 1_555 1_555
C15 H9 1_555 1_555
C16 C17 1_555 1_555
C17 H10 1_555 1_555
C18 C17 1_555 1_555
H11 C18 1_555 1_555
C19 C18 1_555 1_555
C20 C19 1_555 1_555
H12 C20 1_555 1_555
C21 C16 1_555 1_555
H13 C21 1_555 1_555
C22 C16 1_555 1_555
H14 C22 1_555 1_555
H15 C22 1_555 1_555
C23 C22 1_555 1_555
C24 C19 1_555 1_555
H16 C24 1_555 1_555
H17 C24 1_555 1_555
C25 C24 1_555 1_555
C26 C27 1_555 1_555
C27 H18 1_555 1_555
H19 C27 1_555 1_555
C28 C27 1_555 1_555
C29 C28 1_555 1_555
H20 C29 1_555 1_555
C30 C28 1_555 1_555
H21 C30 1_555 1_555
N1 C13 1_555 1_555
N2 C14 1_555 1_555
N3 C7 1_555 1_555
H22 N3 1_555 1_555
N4 C8 1_555 1_555
N5 C10 1_555 1_555
N6 C11 1_555 1_555
H23 N6 1_555 1_555
O1 C25 1_555 1_555
O2 C25 1_555 1_555
O3 Co1 1_555 1_555
O4 C23 1_555 1_555
O5 Co2 1_555 1_555
O6 C26 1_555 1_555
Co1B N1B 1_555 1_555
Co1B_2 N4 1_555 1_555
Co1E O4 1_555 1_555
Co1E_2 O3E 1_555 1_555
Co2B O1 1_555 1_555
Co2E N5 1_555 1_555
Co2D O5D 1_555 1_555
Co2G O1E 1_555 1_555
Co2G_2 N5B 1_555 1_555
C1B C2B 1_555 1_555
C2B H1B 1_555 1_555
C3B C2B 1_555 1_555
C4B C3B 1_555 1_555
H2B C4B 1_555 1_555
C5B C4B 1_555 1_555
C6B C1B 1_555 1_555
H3B C6B 1_555 1_555
C7B C1B 1_555 1_555
C8B C7B 1_555 1_555
H4B C8B 1_555 1_555
C9B H5B 1_555 1_555
C10B C3B 1_555 1_555
C11B C10B 1_555 1_555
H6B C11B 1_555 1_555
C12B H7B 1_555 1_555
C13B C5B 1_555 1_555
C14B C13B 1_555 1_555
H8B C14B 1_555 1_555
C15B H9B 1_555 1_555
C16E C17E 1_555 1_555
C17E H10E 1_555 1_555
C18E C17E 1_555 1_555
H11E C18E 1_555 1_555
C19E C18E 1_555 1_555
C20E C19E 1_555 1_555
H12E C20E 1_555 1_555
C21E C16E 1_555 1_555
H13E C21E 1_555 1_555
C22E C16E 1_555 1_555
H14E C22E 1_555 1_555
H15E C22E 1_555 1_555
C23E C22E 1_555 1_555
C24E C19E 1_555 1_555
H16E C24E 1_555 1_555
H17E C24E 1_555 1_555
C25E C24E 1_555 1_555
C26D C27D 1_555 1_555
C27D H18D 1_555 1_555
H19D C27D 1_555 1_555
C28D C27D 1_555 1_555
C29D C30 1_555 1_555
H20D C29D 1_555 1_555
C30D C29 1_555 1_555
H21D C30D 1_555 1_555
N1B C13B 1_555 1_555
N2B Co2B 1_555 1_555
N3B C7B 1_555 1_555
H22B N3B 1_555 1_555
N4B Co1 1_555 1_555
N4_2 Co1B 1_555 1_555
N5B C10B 1_555 1_555
N5E Co2 1_555 1_555
N5G Co2B 1_555 1_555
N6B C11B 1_555 1_555
H23B N6B 1_555 1_555
O1E C25E 1_555 1_555
O1B Co2 1_555 1_555
O2E C25E 1_555 1_555
O3E C23E 1_555 1_555
O3B Co1B 1_555 1_555
O4E Co1 1_555 1_555
O4G Co1B 1_555 1_555
O5D C26D 1_555 1_555
O5B Co2B 1_555 1_555
O6D C26D 1_555 1_555
C5 C6 1_555 1_555
C9 N3 1_555 1_555
C9 N4 1_555 1_555
C12 N5 1_555 1_555
C12 N6 1_555 1_555
C15 N1 1_555 1_555
C15 N2 1_555 1_555
C20 C21 1_555 1_555
C23 O3 1_555 1_555
C26 O5 1_555 1_555
C5B C6B 1_555 1_555
C8B N4B 1_555 1_555
C9B N3B 1_555 1_555
C9B N4B 1_555 1_555
C12B N5B 1_555 1_555
C12B N6B 1_555 1_555
C14B N2B 1_555 1_555
C15B N1B 1_555 1_555
C15B N2B 1_555 1_555
C20E C21E 1_555 1_555
C23E O4E 1_555 1_555
C28D C29D 1_555 1_555
C28D C30D 1_555 1_555

#END
