
#######################################################################
#
#                 Cambridge Crystallographic Data Centre
#                                CCDC 
#
#######################################################################
#
# If this CIF has been generated from an entry in the Cambridge 
# Structural Database, then it will include bibliographic, chemical, 
# crystal, experimental, refinement or atomic coordinate data resulting 
# from the CCDC's data processing and validation procedures.
#
#######################################################################

data_KAXYIT
_symmetry_cell_setting           triclinic
_symmetry_space_group_name_H-M   'P -1'
_symmetry_Int_Tables_number      2
_space_group_name_Hall           '-P 1'
loop_
_symmetry_equiv_pos_site_id
_symmetry_equiv_pos_as_xyz
1 x,y,z
2 -x,-y,-z
_cell_length_a                   7.72490(34)
_cell_length_b                   7.93093(25)
_cell_length_c                   17.7798(4)
_cell_angle_alpha                100.1464(33)
_cell_angle_beta                 91.0311(27)
_cell_angle_gamma                106.1918(28)
_cell_volume                     1027.12
loop_
_atom_site_label
_atom_site_type_symbol
_atom_site_fract_x
_atom_site_fract_y
_atom_site_fract_z
Cu1 Cu -0.5 0.0000 -0.5
Cu2 Cu 0.5000 0.5000 0.0000
P1 P -0.8015(16) -0.2998(14) -0.4184(5)
P2 P -0.2533(13) -0.1185(13) -0.0251(6)
O1 O -0.9770(22) -0.3135(29) -0.4508(11)
O2 O -0.6788(24) -0.1213(23) -0.4293(9)
O3 O -0.7431(27) -0.4369(26) -0.4739(10)
O4 O -0.4288(23) -0.2692(17) -0.0317(10)
O5 O -0.0907(22) -0.1681(22) -0.0368(10)
O6 O -0.2212(23) -0.0410(23) 0.0531(9)
C1 C -0.8188(29) -0.3658(25) -0.3184(10)
C2 C -0.6267(24) -0.3001(19) -0.2823(8)
C3 C -0.5657(22) -0.1923(22) -0.2104(10)
C4 C -0.3818(21) -0.1295(20) -0.1773(9)
C5 C -0.2485(22) -0.1795(24) -0.2166(11)
C6 C -0.2988(28) -0.2867(28) -0.2873(11)
C7 C -0.4941(31) -0.3504(22) -0.3211(9)
C8 C -0.3113(32) -0.0031(26) -0.0963(11)
N1 N -0.3113(16) 0.0962(15) -0.4082(6)
N2 N 0.3448(16) 0.4513(16) -0.1003(6)
C9 C -0.3362(21) 0.2143(18) -0.3513(8)
C10 C -0.2106(25) 0.2910(18) -0.2900(8)
C11 C -0.0583(21) 0.2390(18) -0.2882(8)
C12 C -0.0388(21) 0.1222(21) -0.3477(9)
C13 C -0.1630(21) 0.0542(19) -0.4060(8)
C14 C 0.0816(20) 0.3106(19) -0.2245(8)
C15 C 0.0709(21) 0.4324(22) -0.1624(10)
C16 C 0.2035(22) 0.5062(19) -0.0998(8)
C17 C 0.2297(24) 0.2583(17) -0.2224(7)
C18 C 0.3581(20) 0.3316(18) -0.1607(8)
O7 O -0.4397(32) -0.2974(19) -0.5265(11)
O8 O 0.2247(20) 0.5347(23) 0.0694(10)
Cu2_2 Cu -0.5000 -0.5000 0.0000
Cu2_3 Cu -0.5000 0.5000 -1.0000
Cu2_4 Cu -1.5000 -0.5000 -1.0000
P1A P -0.1985(16) 0.2998(14) -0.5816(5)
P2A P -0.7467(13) 0.1185(13) -0.9749(6)
O1A O -0.0230(22) 0.3135(29) -0.5492(11)
O2A O -0.3212(24) 0.1213(23) -0.5707(9)
O3A O -0.2569(27) 0.4369(26) -0.5261(10)
O4A O -0.5712(23) 0.2692(17) -0.9683(10)
O4_2 O 0.5712(23) 0.7308(17) -0.0317(10)
O4A_2 O 0.4288(23) 0.2692(17) 0.0317(10)
O5A O -0.9093(22) 0.1681(22) -0.9632(10)
O6A O -0.7788(23) 0.0410(23) -1.0531(9)
C1A C -0.1812(29) 0.3658(25) -0.6816(10)
C2A C -0.3733(24) 0.3001(19) -0.7177(8)
C3A C -0.4343(22) 0.1923(22) -0.7896(10)
C4A C -0.6182(21) 0.1295(20) -0.8227(9)
C5A C -0.7515(22) 0.1795(24) -0.7834(11)
C6A C -0.7012(28) 0.2867(28) -0.7127(11)
C7A C -0.5059(31) 0.3504(22) -0.6789(9)
C8A C -0.6887(32) 0.0031(26) -0.9037(11)
N1A N -0.6887(16) -0.0962(15) -0.5918(6)
N2A N -1.3448(16) -0.4513(16) -0.8997(6)
N2A_2 N 0.6552(16) 0.5487(16) 0.1003(6)
C9A C -0.6638(21) -0.2143(18) -0.6487(8)
C10A C -0.7894(25) -0.2910(18) -0.7100(8)
C11A C -0.9417(21) -0.2390(18) -0.7118(8)
C12A C -0.9612(21) -0.1222(21) -0.6523(9)
C13A C -0.8370(21) -0.0542(19) -0.5940(8)
C14A C -1.0816(20) -0.3106(19) -0.7755(8)
C15A C -1.0709(21) -0.4324(22) -0.8376(10)
C16A C -1.2035(22) -0.5062(19) -0.9002(8)
C17A C -1.2297(24) -0.2583(17) -0.7776(7)
C18A C -1.3581(20) -0.3316(18) -0.8393(8)
O7A O -0.5603(32) 0.2974(19) -0.4735(11)
O8A O 0.7753(20) 0.4653(23) -0.0694(10)
loop_
_geom_bond_atom_site_label_1
_geom_bond_atom_site_label_2
_geom_bond_site_symmetry_1
_geom_bond_site_symmetry_2
Cu1 O2 1_555 1_555
Cu2 N2 1_555 1_555
P1 O1 1_555 1_555
P2 O4 1_555 1_555
O2 P1 1_555 1_555
O3 P1 1_555 1_555
O4 Cu2_2 1_555 1_555
O5 P2 1_555 1_555
O6 P2 1_555 1_555
C1 P1 1_555 1_555
C2 C1 1_555 1_555
C3 C2 1_555 1_555
C4 C3 1_555 1_555
C5 C4 1_555 1_555
C6 C5 1_555 1_555
C7 C2 1_555 1_555
C8 P2 1_555 1_555
N1 Cu1 1_555 1_555
N2 C16 1_555 1_555
C9 N1 1_555 1_555
C10 C9 1_555 1_555
C11 C10 1_555 1_555
C12 C11 1_555 1_555
C13 N1 1_555 1_555
C14 C11 1_555 1_555
C15 C14 1_555 1_555
C16 C15 1_555 1_555
C17 C14 1_555 1_555
C18 N2 1_555 1_555
O7 Cu1 1_555 1_555
O8 Cu2 1_555 1_555
Cu2_3 O4A 1_555 1_555
Cu2_4 N2A 1_555 1_555
P1A O1A 1_555 1_555
P2A O4A 1_555 1_555
O2A Cu1 1_555 1_555
O3A P1A 1_555 1_555
O4_2 Cu2 1_555 1_555
O4A_2 Cu2 1_555 1_555
O5A P2A 1_555 1_555
O6A P2A 1_555 1_555
C1A P1A 1_555 1_555
C2A C1A 1_555 1_555
C3A C2A 1_555 1_555
C4A C3A 1_555 1_555
C5A C4A 1_555 1_555
C6A C5A 1_555 1_555
C7A C2A 1_555 1_555
C8A P2A 1_555 1_555
N1A Cu1 1_555 1_555
N2A C16A 1_555 1_555
N2A_2 Cu2 1_555 1_555
C9A N1A 1_555 1_555
C10A C9A 1_555 1_555
C11A C10A 1_555 1_555
C12A C11A 1_555 1_555
C13A N1A 1_555 1_555
C14A C11A 1_555 1_555
C15A C14A 1_555 1_555
C16A C15A 1_555 1_555
C17A C14A 1_555 1_555
C18A N2A 1_555 1_555
O7A Cu1 1_555 1_555
O8A Cu2 1_555 1_555
C4 C8 1_555 1_555
C6 C7 1_555 1_555
C12 C13 1_555 1_555
C17 C18 1_555 1_555
P1A O2A 1_555 1_555
C4A C8A 1_555 1_555
C6A C7A 1_555 1_555
C12A C13A 1_555 1_555
C17A C18A 1_555 1_555

#END
