
#######################################################################
#
#                 Cambridge Crystallographic Data Centre
#                                CCDC 
#
#######################################################################
#
# If this CIF has been generated from an entry in the Cambridge 
# Structural Database, then it will include bibliographic, chemical, 
# crystal, experimental, refinement or atomic coordinate data resulting 
# from the CCDC's data processing and validation procedures.
#
#######################################################################

data_KAXZIU
_symmetry_cell_setting           monoclinic
_symmetry_space_group_name_H-M   'P 21/c'
_symmetry_Int_Tables_number      14
_space_group_name_Hall           '-P 2ybc'
loop_
_symmetry_equiv_pos_site_id
_symmetry_equiv_pos_as_xyz
1 x,y,z
2 -x,1/2+y,1/2-z
3 -x,-y,-z
4 x,1/2-y,1/2+z
_cell_length_a                   17.217(3)
_cell_length_b                   9.803(2)
_cell_length_c                   21.927(8)
_cell_angle_alpha                90
_cell_angle_beta                 123.42(2)
_cell_angle_gamma                90
_cell_volume                     3088.89
loop_
_atom_site_label
_atom_site_type_symbol
_atom_site_fract_x
_atom_site_fract_y
_atom_site_fract_z
Cd1 Cd -0.102988(17) -0.59501(2) -0.085811(14)
O1 O -0.1164(3) -0.3969(3) -0.1499(2)
O2 O 0.0123(3) -0.4092(3) -0.04436(17)
O3 O 0.0002(2) 0.2721(3) -0.09298(18)
O4 O -0.10635(17) 0.1544(3) -0.09031(14)
N1 N -0.2248(2) -0.6489(4) -0.21450(18)
N2 N -0.3140(3) -0.7682(3) -0.31812(19)
N3 N -0.3162(2) -0.6329(3) -0.33235(17)
N4 N -0.7099(2) -0.8483(4) -0.44331(19)
N5 N -0.6405(3) -0.9297(4) -0.3921(2)
N6 N -0.7813(2) -1.0092(4) -0.42586(19)
N7 N -0.5974(3) -0.8865(3) -0.67301(19)
N8 N -0.6619(3) -0.7850(4) -0.7049(2)
N9 N -0.6393(4) -0.8802(5) -0.7865(2)
C1 C -0.0377(3) -0.3505(4) -0.1044(2)
C2 C -0.0473(3) -0.2156(4) -0.2056(2)
H1 H -0.1147 -0.2170 -0.2320
H2 H -0.0277 -0.2945 -0.2206
C3 C -0.0049(3) -0.2227(3) -0.12285(19)
C4 C -0.0381(3) -0.0982(3) -0.10058(19)
H3 H -0.1054 -0.0998 -0.1263
H4 H -0.0122 -0.1015 -0.0486
C5 C -0.0157(4) -0.0851(4) -0.2241(3)
H5 H -0.0422 -0.0815 -0.2767
C6 C 0.1023(3) -0.2201(4) -0.0806(3)
H6 H 0.1292 -0.2230 -0.0284
H7 H 0.1244 -0.2988 -0.0937
C7 C -0.0073(2) 0.0337(4) -0.1190(2)
C8 C 0.0907(5) -0.0821(5) -0.1818(4)
H8 H 0.1126 -0.1592 -0.1960
H9 H 0.1108 0.0009 -0.1933
C9 C -0.0499(3) 0.0372(4) -0.2017(2)
H10 H -0.1172 0.0347 -0.2279
H11 H -0.0323 0.1212 -0.2144
C10 C 0.1315(3) -0.0879(4) -0.1007(3)
H12 H 0.1995 -0.0853 -0.0742
C11 C 0.0985(3) 0.0353(4) -0.0786(3)
H13 H 0.1183 0.1184 -0.0902
H14 H 0.1261 0.0335 -0.0263
C12 C -0.0401(2) 0.1613(4) -0.09868(19)
C13 C -0.2582(3) -0.7710(4) -0.2465(2)
H15 H -0.2429 -0.8516 -0.2198
C14 C -0.2627(3) -0.5646(4) -0.2708(2)
H16 H -0.2533 -0.4708 -0.2675
C15 C -0.3744(3) -0.5811(4) -0.4075(2)
H17 H -0.3393 -0.5836 -0.4301
H18 H -0.3909 -0.4869 -0.4065
C16 C -0.3940(3) -0.7709(6) -0.5185(3)
H19 H -0.4067 -0.8485 -0.5494
H20 H -0.3360 -0.7842 -0.4726
H21 H -0.3903 -0.6904 -0.5417
C17 C -0.4712(3) -0.7546(4) -0.50585(19)
C18 C -0.4621(2) -0.6647(4) -0.45257(19)
C19 C -0.5313(2) -0.6556(4) -0.4378(2)
C20 C -0.5158(4) -0.5665(5) -0.3753(3)
H22 H -0.5033 -0.6231 -0.3352
H23 H -0.5705 -0.5129 -0.3915
H24 H -0.4638 -0.5070 -0.3599
C21 C -0.6131(2) -0.7311(4) -0.4798(2)
C22 C -0.6265(3) -0.8150(4) -0.5368(2)
C23 C -0.5542(3) -0.8307(4) -0.5475(2)
C24 C -0.5625(4) -0.9379(5) -0.5999(2)
H25 H -0.5018 -0.9786 -0.5802
H26 H -0.6039 -1.0091 -0.6034
C25 C -0.7193(3) -0.8864(5) -0.5873(3)
H27 H -0.7203 -0.9706 -0.5654
H28 H -0.7271 -0.9049 -0.6334
H29 H -0.7690 -0.8287 -0.5949
C26 C -0.6890(3) -0.7193(4) -0.4650(3)
H30 H -0.6702 -0.6526 -0.4266
H31 H -0.7452 -0.6858 -0.5088
C27 C -0.7921(3) -0.8964(4) -0.4623(2)
H32 H -0.8491 -0.8566 -0.4963
C28 C -0.6880(3) -1.0252(5) -0.3836(3)
H33 H -0.6595 -1.0974 -0.3510
C29 C -0.5870(4) -0.9414(6) -0.7228(3)
H34 H -0.5475 -1.0142 -0.7142
C30 C -0.6837(4) -0.7872(6) -0.7722(3)
H35 H -0.7273 -0.7278 -0.8078
Cd1B Cd 0.102988(17) -0.40499(2) 0.085811(14)
Cd1_2 Cd -0.102988(17) 0.40499(2) -0.085811(14)
Cd1A Cd -0.897012(17) -1.09501(2) -0.414189(14)
O2B O -0.0123(3) -0.5908(3) 0.04436(17)
O3_2 O 0.0002(2) -0.7279(3) -0.09298(18)
O4_2 O -0.10635(17) -0.8456(3) -0.09031(14)
N6A N -0.2187(2) -0.5092(4) -0.07414(19)
O5 O 0.2809(3) -0.3998(5) -0.3968(3)
O6 O 0.451(3) -0.282(4) -0.286(2)
loop_
_geom_bond_atom_site_label_1
_geom_bond_atom_site_label_2
_geom_bond_site_symmetry_1
_geom_bond_site_symmetry_2
Cd1 O1 1_555 1_555
O1 C1 1_555 1_555
O2 Cd1 1_555 1_555
O3 C12 1_555 1_555
O4 C12 1_555 1_555
N1 Cd1 1_555 1_555
N2 N3 1_555 1_555
N3 C14 1_555 1_555
N4 N5 1_555 1_555
N5 C28 1_555 1_555
N6 C27 1_555 1_555
N7 N8 1_555 1_555
N8 C30 1_555 1_555
N9 C29 1_555 1_555
C1 O2 1_555 1_555
C2 H1 1_555 1_555
H2 C2 1_555 1_555
C3 C1 1_555 1_555
C4 C3 1_555 1_555
H3 C4 1_555 1_555
H4 C4 1_555 1_555
C5 C2 1_555 1_555
H5 C5 1_555 1_555
C6 C3 1_555 1_555
H6 C6 1_555 1_555
H7 C6 1_555 1_555
C7 C4 1_555 1_555
C8 C5 1_555 1_555
H8 C8 1_555 1_555
H9 C8 1_555 1_555
C9 C5 1_555 1_555
H10 C9 1_555 1_555
H11 C9 1_555 1_555
C10 C6 1_555 1_555
H12 C10 1_555 1_555
C11 C7 1_555 1_555
H13 C11 1_555 1_555
H14 C11 1_555 1_555
C12 C7 1_555 1_555
C13 N1 1_555 1_555
H15 C13 1_555 1_555
C14 N1 1_555 1_555
H16 C14 1_555 1_555
C15 N3 1_555 1_555
H17 C15 1_555 1_555
H18 C15 1_555 1_555
C16 H19 1_555 1_555
H20 C16 1_555 1_555
H21 C16 1_555 1_555
C17 C16 1_555 1_555
C18 C15 1_555 1_555
C19 C18 1_555 1_555
C20 C19 1_555 1_555
H22 C20 1_555 1_555
H23 C20 1_555 1_555
H24 C20 1_555 1_555
C21 C19 1_555 1_555
C22 C21 1_555 1_555
C23 C17 1_555 1_555
C24 N7 1_555 1_555
H25 C24 1_555 1_555
H26 C24 1_555 1_555
C25 C22 1_555 1_555
H27 C25 1_555 1_555
H28 C25 1_555 1_555
H29 C25 1_555 1_555
C26 N4 1_555 1_555
H30 C26 1_555 1_555
H31 C26 1_555 1_555
C27 N4 1_555 1_555
H32 C27 1_555 1_555
C28 N6 1_555 1_555
H33 C28 1_555 1_555
C29 N7 1_555 1_555
H34 C29 1_555 1_555
C30 N9 1_555 1_555
H35 C30 1_555 1_555
Cd1B O2 1_555 1_555
Cd1_2 O3 1_555 1_555
Cd1A N6 1_555 1_555
O2B Cd1 1_555 1_555
O3_2 Cd1 1_555 1_555
O4_2 Cd1 1_555 1_555
N6A Cd1 1_555 1_555
O4 Cd1_2 1_555 1_555
N2 C13 1_555 1_555
C2 C3 1_555 1_555
C7 C9 1_555 1_555
C8 C10 1_555 1_555
C10 C11 1_555 1_555
C17 C18 1_555 1_555
C21 C26 1_555 1_555
C22 C23 1_555 1_555
C23 C24 1_555 1_555
Cd1B O2B 1_555 1_555

#END
