
#######################################################################
#
#                 Cambridge Crystallographic Data Centre
#                                CCDC 
#
#######################################################################
#
# If this CIF has been generated from an entry in the Cambridge 
# Structural Database, then it will include bibliographic, chemical, 
# crystal, experimental, refinement or atomic coordinate data resulting 
# from the CCDC's data processing and validation procedures.
#
#######################################################################

data_KAXZAM
_symmetry_cell_setting           triclinic
_symmetry_space_group_name_H-M   'P -1'
_symmetry_Int_Tables_number      2
_space_group_name_Hall           '-P 1'
loop_
_symmetry_equiv_pos_site_id
_symmetry_equiv_pos_as_xyz
1 x,y,z
2 -x,-y,-z
_cell_length_a                   12.873(3)
_cell_length_b                   16.984(3)
_cell_length_c                   17.868(4)
_cell_angle_alpha                101.37(3)
_cell_angle_beta                 110.85(3)
_cell_angle_gamma                106.33(3)
_cell_volume                     3305.47
loop_
_atom_site_label
_atom_site_type_symbol
_atom_site_fract_x
_atom_site_fract_y
_atom_site_fract_z
Cd1 Cd 0.29099(3) 0.23897(2) 0.55791(2)
Cd2 Cd 0.38680(3) 0.76701(2) 1.09911(2)
Cd3 Cd 0.00707(3) 0.27491(2) 0.22341(2)
O1 O 0.3689(3) 0.1315(2) 0.5979(2)
O2 O 0.3272(3) 0.1371(2) 0.4690(2)
O3 O 0.1366(4) 1.1965(2) 1.2727(2)
O4 O 0.0211(4) 1.1556(3) 1.1377(2)
O5 O 0.2429(4) 0.2852(2) 0.4399(2)
O6 O 0.0559(4) 0.3312(3) 0.3756(3)
O7 O -0.0933(3) 0.2890(3) 0.0918(2)
O8 O -0.0265(4) 0.3957(3) 0.2907(3)
O9 O 0.3043(4) 0.2752(3) 0.7156(3)
O10 O 0.2620(5) 0.3510(3) 0.6306(3)
O11 O 0.3000(3) 0.6805(2) 0.9511(2)
O12 O 0.4059(4) 0.6345(2) 1.0446(2)
O13 O 0.5080(4) 0.7684(3) 1.2315(2)
O14 O 0.3869(4) 0.8936(3) 1.1859(2)
O15 O 0.2741(3) 0.8551(2) 1.0501(2)
N1 N 0.4919(4) 0.3216(3) 0.5939(3)
N2 N 0.6910(5) 0.3789(5) 0.6460(4)
N3 N 0.6411(4) 0.3629(3) 0.5620(3)
N4 N 0.3585(4) 0.4164(3) 0.2330(3)
N5 N 0.2962(5) 0.4515(4) 0.1804(4)
N6 N 0.1797(4) 0.3674(3) 0.2261(3)
N7 N 0.8211(4) 0.1920(3) 0.2085(3)
N8 N 0.6333(6) 0.0965(4) 0.1492(5)
N9 N 0.6490(4) 0.1585(3) 0.2140(3)
N10 N -0.1019(5) 0.1109(5) 0.4816(4)
N11 N -0.0468(4) 0.1004(4) 0.5559(3)
N12 N 0.0948(4) 0.1527(3) 0.5187(3)
N13 N 0.2721(4) 0.1164(3) 0.9167(3)
N14 N 0.3365(5) 0.0821(4) 0.9684(3)
N15 N -0.2201(4) 0.3143(3) 0.8887(3)
N16 N -0.0658(8) 0.4225(4) 0.9001(6)
N17 N -0.0613(5) 0.3492(3) 0.8664(4)
N18 N 0.4456(4) 0.1587(3) 0.9144(3)
C1 C 0.1529(8) 0.2733(6) 0.9649(5)
H1 H 0.2198 0.2580 0.9917
H2 H 0.1815 0.3343 0.9722
H3 H 0.0985 0.2608 0.9903
C2 C 0.0872(6) 0.2206(5) 0.8701(5)
C3 C 0.0361(7) 0.3479(4) 0.8431(6)
H4 H 0.0319 0.3739 0.7989
H5 H 0.1128 0.3823 0.8921
C4 C 0.0284(6) 0.2558(4) 0.8118(5)
C5 C -0.0381(5) 0.2065(5) 0.7262(5)
C6 C -0.1059(8) 0.2440(6) 0.6649(6)
H6 H -0.0615 0.2634 0.6343
H7 H -0.1835 0.2001 0.6256
H8 H -0.1158 0.2922 0.6957
C7 C -0.1544(6) 0.2861(4) 0.8591(5)
H9 H -0.1714 0.2275 0.8353
C8 C -0.1617(9) 0.3989(5) 0.9135(7)
H10 H -0.1865 0.4388 0.9386
C9 C 0.2855(5) 1.0102(3) 1.2255(3)
H11 H 0.3369 0.9981 1.2693
C10 C 0.2574(4) 0.9676(3) 1.1429(3)
C11 C 0.3105(5) 0.9016(3) 1.1250(3)
C12 C 0.4385(6) 0.1086(4) 0.9634(4)
H12 H 0.5022 0.0937 0.9918
C13 C 0.3379(5) 0.1606(4) 0.8851(4)
H13 H 0.3113 0.1892 0.8473
C14 C 0.1466(6) 0.0994(6) 0.9032(6)
H14 H 0.1015 0.0371 0.8823
H15 H 0.1462 0.1230 0.9571
C15 C 0.0853(5) 0.1387(5) 0.8413(5)
C16 C 0.0249(6) 0.0903(4) 0.7547(5)
C17 C 0.0350(7) 0.0045(4) 0.7223(6)
H16 H 0.0735 0.0090 0.6852
H17 H 0.0819 -0.0092 0.7694
H18 H -0.0439 -0.0407 0.6917
C18 C 0.3429(4) 0.6257(3) 0.9702(3)
C19 C 0.3203(4) 0.5485(3) 0.9003(3)
C20 C 0.3569(5) 0.4829(3) 0.9186(3)
H19 H 0.3918 0.4852 0.9748
C21 C 0.2652(5) 0.5419(3) 0.8160(3)
H20 H 0.2357 0.5837 0.8019
C22 C 0.2534(5) 0.4744(4) 0.7527(3)
H21 H 0.2189 0.4722 0.6965
C23 C 0.2925(4) 0.4097(3) 0.7717(3)
C24 C 0.3425(5) 0.4139(3) 0.8552(4)
H22 H 0.3668 0.3699 0.8689
C25 C 0.2855(5) 0.3400(4) 0.7010(4)
C26 C -0.0392(5) 0.1234(4) 0.6977(4)
C27 C -0.1116(6) 0.0701(5) 0.6047(5)
H23 H -0.1256 0.0093 0.5974
H24 H -0.1891 0.0753 0.5836
C28 C -0.0131(6) 0.1420(5) 0.4623(4)
H25 H -0.0248 0.1555 0.4127
C29 C 0.0697(5) 0.1263(4) 0.5766(4)
H26 H 0.1266 0.1260 0.6262
C30 C 0.3739(4) 0.1109(3) 0.5276(3)
C31 C 0.4894(7) 0.0189(5) 0.5738(4)
H27 H 0.4841 0.0316 0.6251
C32 C 0.4397(4) 0.0528(3) 0.5145(3)
C33 C 0.4522(7) 0.0345(5) 0.4420(4)
H28 H 0.4205 0.0587 0.4013
C34 C 0.5248(5) 0.3290(4) 0.5334(4)
H29 H 0.4711 0.3120 0.4765
C35 C 0.5965(6) 0.3542(5) 0.6618(4)
H30 H 0.6029 0.3594 0.7163
C36 C 0.7182(5) 0.3852(5) 0.5197(4)
H31 H 0.7777 0.3592 0.5343
H32 H 0.7607 0.4478 0.5400
C37 C 0.6871(7) 0.2171(5) 0.4206(6)
H33 H 0.7729 0.2476 0.4502
H34 H 0.6681 0.1633 0.3792
H35 H 0.6557 0.2053 0.4603
C38 C 0.6318(5) 0.2721(4) 0.3769(5)
C39 C 0.6469(5) 0.3539(4) 0.4243(4)
C40 C 0.6093(7) 0.4935(4) 0.4394(5)
H36 H 0.6164 0.4907 0.4941
H37 H 0.5395 0.5056 0.4117
H38 H 0.6798 0.5388 0.4463
C41 C 0.5969(5) 0.4063(4) 0.3853(4)
C42 C 0.5354(5) 0.3790(4) 0.2966(4)
C43 C 0.4871(5) 0.4376(4) 0.2547(4)
H39 H 0.5328 0.4973 0.2924
H40 H 0.4983 0.4332 0.2033
C44 C 0.5198(5) 0.2979(4) 0.2479(4)
C45 C 0.5672(5) 0.2450(4) 0.2880(5)
C46 C 0.5477(6) 0.1557(4) 0.2344(5)
H41 H 0.5378 0.1152 0.2651
H42 H 0.4744 0.1349 0.1822
C47 C 0.4511(7) 0.2678(5) 0.1513(4)
H43 H 0.4163 0.3084 0.1351
H44 H 0.3884 0.2114 0.1316
H45 H 0.5054 0.2646 0.1264
C48 C 0.2881(5) 0.3670(4) 0.2577(4)
H46 H 0.3122 0.3358 0.2932
C49 C 0.1893(6) 0.4196(5) 0.1782(5)
H47 H 0.1248 0.4318 0.1463
C50 C -0.0233(5) 0.5160(4) 0.4244(4)
H48 H -0.0392 0.5269 0.3733
C51 C 0.0079(4) 0.4456(3) 0.4345(3)
C52 C 0.0309(5) 0.4303(4) 0.5110(4)
H49 H 0.0517 0.3833 0.5187
C53 C 0.0135(5) 0.3874(4) 0.3616(4)
C54 C 0.7406(7) 0.1202(5) 0.1491(6)
H50 H 0.7569 0.0878 0.1094
C55 C 0.7564(6) 0.2159(4) 0.2413(5)
H51 H 0.7845 0.2703 0.2815
C56 C 0.1019(5) 1.1506(3) 1.1979(3)
C57 C 0.1594(4) 1.0884(3) 1.1803(3)
C58 C 0.2382(5) 1.0708(3) 1.2443(3)
H52 H 0.2597 1.1002 1.3007
C59 C 0.1325(5) 1.0456(3) 1.0977(3)
H53 H 0.0811 1.0576 1.0538
C60 C 0.1801(5) 0.9849(3) 1.0786(3)
H54 H 0.1597 0.9560 1.0224
Cd1A Cd 0.70901(3) -0.23897(2) 0.44209(2)
Cd1A_2 Cd -0.29099(3) 0.76103(2) 1.44209(2)
Cd1_2 Cd -0.70901(3) 0.23897(2) 0.55791(2)
Cd2A Cd -0.38680(3) 0.23299(2) 0.90089(2)
Cd2A_2 Cd 0.61320(3) 0.23299(2) 0.90089(2)
Cd2_2 Cd -0.61320(3) 0.76701(2) 1.09911(2)
Cd2_3 Cd 0.38680(3) -0.23299(2) 0.09911(2)
Cd2A_3 Cd 0.61320(3) -0.76701(2) -0.09911(2)
Cd3_2 Cd 1.00707(3) 0.27491(2) 0.22341(2)
Cd3_3 Cd 0.00707(3) 1.27491(2) 1.22341(2)
Cd3A Cd -0.00707(3) 0.72509(2) 0.77659(2)
Cd3_4 Cd -0.99293(3) 0.27491(2) 0.22341(2)
O1A O 0.6311(3) -0.1315(2) 0.4021(2)
O2A O 0.6728(3) -0.1371(2) 0.5310(2)
O3_2 O 0.1366(4) 0.1965(2) 0.2727(2)
O3_3 O 1.1366(4) 0.1965(2) 0.2727(2)
O4_2 O 0.0211(4) 0.1556(3) 0.1377(2)
O4_3 O 1.0211(4) 0.1556(3) 0.1377(2)
O5A O 0.7571(4) -0.2852(2) 0.5601(2)
O6A O -0.0559(4) 0.6688(3) 0.6244(3)
O6_2 O 1.0559(4) 0.3312(3) 0.3756(3)
O7_2 O 0.9067(3) 0.2890(3) 0.0918(2)
O8A O 0.0265(4) 0.6043(3) 0.7093(3)
O8_2 O 0.9735(4) 0.3957(3) 0.2907(3)
O9A O 0.6957(4) -0.2752(3) 0.2844(3)
O10A O 0.7380(5) -0.3510(3) 0.3694(3)
O11A O 0.7000(3) -0.6805(2) 0.0489(2)
O11A_2 O -0.3000(3) 0.3195(2) 1.0489(2)
O12A O 0.5941(4) -0.6345(2) -0.0446(2)
O12A_2 O -0.4059(4) 0.3655(2) 0.9554(2)
O13A O -0.5080(4) 0.2316(3) 0.7685(2)
O14_2 O 0.3869(4) -0.1064(3) 0.1859(2)
O14A O -0.3869(4) 0.1064(3) 0.8141(2)
O15_2 O 0.2741(3) -0.1449(2) 0.0501(2)
O15A O -0.2741(3) 0.1449(2) 0.9499(2)
N1_2 N -0.5081(4) 0.3216(3) 0.5939(3)
N1A N 0.5081(4) -0.3216(3) 0.4061(3)
N2_2 N -0.3090(5) 0.3789(5) 0.6460(4)
N3_2 N -0.3589(4) 0.3629(3) 0.5620(3)
N4_2 N -0.6415(4) 0.4164(3) 0.2330(3)
N5_2 N -0.7038(5) 0.4515(4) 0.1804(4)
N6_2 N -0.8203(4) 0.3674(3) 0.2261(3)
N6_3 N 1.1797(4) 0.3674(3) 0.2261(3)
N7_2 N -0.1789(4) 0.1920(3) 0.2085(3)
N8_2 N -0.3667(6) 0.0965(4) 0.1492(5)
N9_2 N -0.3510(4) 0.1585(3) 0.2140(3)
N10A N 0.1019(5) 0.8891(5) 1.5184(4)
N11A N 0.0468(4) 0.8996(4) 1.4441(3)
N12A N -0.0948(4) 0.8473(3) 1.4813(3)
N12A_2 N 0.9052(4) -0.1527(3) 0.4813(3)
N13A N -0.2721(4) 0.8836(3) 1.0833(3)
N14A N -0.3365(5) 0.9179(4) 1.0316(3)
N15A N 0.2201(4) 0.6857(3) 1.1113(3)
N16A N 0.0658(8) 0.5775(4) 1.0999(6)
N17A N 0.0613(5) 0.6508(3) 1.1336(4)
N18A N -0.4456(4) 0.8413(3) 1.0856(3)
N18A_2 N 0.5544(4) 0.8413(3) 1.0856(3)
N18_2 N -0.5544(4) 0.1587(3) 0.9144(3)
C1A C -0.1529(8) 0.7267(6) 1.0351(5)
H1A H -0.2198 0.7420 1.0083
H2A H -0.1815 0.6657 1.0278
H3A H -0.0985 0.7392 1.0097
C2A C -0.0872(6) 0.7794(5) 1.1299(5)
C3A C -0.0361(7) 0.6521(4) 1.1569(6)
H4A H -0.0319 0.6261 1.2011
H5A H -0.1128 0.6177 1.1079
C4A C -0.0284(6) 0.7442(4) 1.1882(5)
C5A C 0.0381(5) 0.7935(5) 1.2738(5)
C6A C 0.1059(8) 0.7560(6) 1.3351(6)
H6A H 0.0615 0.7366 1.3657
H7A H 0.1835 0.7999 1.3744
H8A H 0.1158 0.7078 1.3043
C7A C 0.1544(6) 0.7139(4) 1.1409(5)
H9A H 0.1714 0.7725 1.1647
C8A C 0.1617(9) 0.6011(5) 1.0865(7)
H10A H 0.1865 0.5612 1.0614
C9_2 C 0.2855(5) 0.0102(3) 0.2255(3)
H11_2 H 0.3369 -0.0019 0.2693
C10_2 C 0.2574(4) -0.0324(3) 0.1429(3)
C11_2 C 0.3105(5) -0.0984(3) 0.1250(3)
C12A C -0.4385(6) 0.8914(4) 1.0366(4)
H12A H -0.5022 0.9063 1.0082
C13A C -0.3379(5) 0.8394(4) 1.1149(4)
H13A H -0.3113 0.8108 1.1527
C14A C -0.1466(6) 0.9006(6) 1.0968(6)
H14A H -0.1015 0.9629 1.1177
H15A H -0.1462 0.8770 1.0429
C15A C -0.0853(5) 0.8613(5) 1.1587(5)
C16A C -0.0249(6) 0.9097(4) 1.2453(5)
C17A C -0.0350(7) 0.9955(4) 1.2777(6)
H16A H -0.0735 0.9910 1.3148
H17A H -0.0819 1.0092 1.2306
H18A H 0.0439 1.0407 1.3083
C18A C 0.6571(4) -0.6257(3) 0.0298(3)
C19A C 0.6797(4) -0.5485(3) 0.0997(3)
C20A C 0.6431(5) -0.4829(3) 0.0814(3)
H19A H 0.6082 -0.4852 0.0252
C21A C 0.7348(5) -0.5419(3) 0.1840(3)
H20A H 0.7643 -0.5837 0.1981
C22A C 0.7466(5) -0.4744(4) 0.2473(3)
H21A H 0.7811 -0.4722 0.3035
C23A C 0.7075(4) -0.4097(3) 0.2283(3)
C24A C 0.6575(5) -0.4139(3) 0.1448(4)
H22A H 0.6332 -0.3699 0.1311
C25A C 0.7145(5) -0.3400(4) 0.2990(4)
C26A C 0.0392(5) 0.8766(4) 1.3023(4)
C27A C 0.1116(6) 0.9299(5) 1.3953(5)
H23A H 0.1256 0.9907 1.4026
H24A H 0.1891 0.9247 1.4164
C28A C 0.0131(6) 0.8580(5) 1.5377(4)
H25A H 0.0248 0.8445 1.5873
C29A C -0.0697(5) 0.8737(4) 1.4234(4)
H26A H -0.1266 0.8740 1.3738
C30A C 0.6261(4) -0.1109(3) 0.4724(3)
C31A C 0.5106(7) -0.0189(5) 0.4262(4)
H27A H 0.5159 -0.0316 0.3749
C32A C 0.5603(4) -0.0528(3) 0.4855(3)
C33A C 0.5478(7) -0.0345(5) 0.5580(4)
H28A H 0.5795 -0.0587 0.5987
C34_2 C -0.4752(5) 0.3290(4) 0.5334(4)
H29_2 H -0.5289 0.3120 0.4765
C35_2 C -0.4035(6) 0.3542(5) 0.6618(4)
H30_2 H -0.3971 0.3594 0.7163
C36_2 C -0.2818(5) 0.3852(5) 0.5197(4)
H31_2 H -0.2223 0.3592 0.5343
H32_2 H -0.2393 0.4478 0.5400
C37_2 C -0.3129(7) 0.2171(5) 0.4206(6)
H33_2 H -0.2271 0.2476 0.4502
H34_2 H -0.3319 0.1633 0.3792
H35_2 H -0.3443 0.2053 0.4603
C38_2 C -0.3682(5) 0.2721(4) 0.3769(5)
C39_2 C -0.3531(5) 0.3539(4) 0.4243(4)
C40_2 C -0.3907(7) 0.4935(4) 0.4394(5)
H36_2 H -0.3836 0.4907 0.4941
H37_2 H -0.4605 0.5056 0.4117
H38_2 H -0.3202 0.5388 0.4463
C41_2 C -0.4031(5) 0.4063(4) 0.3853(4)
C42_2 C -0.4646(5) 0.3790(4) 0.2966(4)
C43_2 C -0.5129(5) 0.4376(4) 0.2547(4)
H39_2 H -0.4672 0.4973 0.2924
H40_2 H -0.5017 0.4332 0.2033
C44_2 C -0.4802(5) 0.2979(4) 0.2479(4)
C45_2 C -0.4328(5) 0.2450(4) 0.2880(5)
C46_2 C -0.4523(6) 0.1557(4) 0.2344(5)
H41_2 H -0.4622 0.1152 0.2651
H42_2 H -0.5256 0.1349 0.1822
C47_2 C -0.5489(7) 0.2678(5) 0.1513(4)
H43_2 H -0.5837 0.3084 0.1351
H44_2 H -0.6116 0.2114 0.1316
H45_2 H -0.4946 0.2646 0.1264
C48_2 C -0.7119(5) 0.3670(4) 0.2577(4)
H46_2 H -0.6878 0.3358 0.2932
C49_2 C -0.8107(6) 0.4196(5) 0.1782(5)
H47_2 H -0.8752 0.4318 0.1463
C50A C 0.0233(5) 0.4840(4) 0.5756(4)
H48A H 0.0392 0.4731 0.6267
C51A C -0.0079(4) 0.5544(3) 0.5655(3)
C52A C -0.0309(5) 0.5697(4) 0.4890(4)
H49A H -0.0517 0.6167 0.4813
C53A C -0.0135(5) 0.6126(4) 0.6384(4)
C54_2 C -0.2594(7) 0.1202(5) 0.1491(6)
H50_2 H -0.2431 0.0878 0.1094
C55_2 C -0.2436(6) 0.2159(4) 0.2413(5)
H51_2 H -0.2155 0.2703 0.2815
C56_2 C 0.1019(5) 0.1506(3) 0.1979(3)
C57_2 C 0.1594(4) 0.0884(3) 0.1803(3)
C58_2 C 0.2382(5) 0.0708(3) 0.2443(3)
H52_2 H 0.2597 0.1002 0.3007
C59_2 C 0.1325(5) 0.0456(3) 0.0977(3)
H53_2 H 0.0811 0.0576 0.0538
C60_2 C 0.1801(5) -0.0151(3) 0.0786(3)
H54_2 H 0.1597 -0.0440 0.0224
O16 O 0.6767(9) 0.9944(6) 0.2926(6)
loop_
_geom_bond_atom_site_label_1
_geom_bond_atom_site_label_2
_geom_bond_site_symmetry_1
_geom_bond_site_symmetry_2
Cd1 O1 1_555 1_555
Cd2 O11 1_555 1_555
Cd3 O6 1_555 1_555
O1 C30 1_555 1_555
O2 Cd1 1_555 1_555
O3 C56 1_555 1_555
O4 C56 1_555 1_555
O5 Cd1 1_555 1_555
O6 C53 1_555 1_555
O7 Cd3 1_555 1_555
O8 Cd3 1_555 1_555
O9 C25 1_555 1_555
O10 Cd1 1_555 1_555
O11 C18 1_555 1_555
O12 Cd2 1_555 1_555
O13 Cd2 1_555 1_555
O14 Cd2 1_555 1_555
O15 Cd2 1_555 1_555
N1 Cd1 1_555 1_555
N2 N3 1_555 1_555
N3 C34 1_555 1_555
N4 N5 1_555 1_555
N5 C49 1_555 1_555
N6 Cd3 1_555 1_555
N7 C54 1_555 1_555
N8 N9 1_555 1_555
N9 C46 1_555 1_555
N10 N11 1_555 1_555
N11 C27 1_555 1_555
N12 Cd1 1_555 1_555
N13 N14 1_555 1_555
N14 C12 1_555 1_555
N15 C7 1_555 1_555
N16 N17 1_555 1_555
N17 C3 1_555 1_555
N18 C12 1_555 1_555
C1 H1 1_555 1_555
H2 C1 1_555 1_555
H3 C1 1_555 1_555
C2 C1 1_555 1_555
C3 H4 1_555 1_555
H5 C3 1_555 1_555
C4 C2 1_555 1_555
C5 C4 1_555 1_555
C6 C5 1_555 1_555
H6 C6 1_555 1_555
H7 C6 1_555 1_555
H8 C6 1_555 1_555
C7 N17 1_555 1_555
H9 C7 1_555 1_555
C8 N15 1_555 1_555
H10 C8 1_555 1_555
C9 H11 1_555 1_555
C10 C9 1_555 1_555
C11 O14 1_555 1_555
C12 H12 1_555 1_555
C13 N13 1_555 1_555
H13 C13 1_555 1_555
C14 N13 1_555 1_555
H14 C14 1_555 1_555
H15 C14 1_555 1_555
C15 C2 1_555 1_555
C16 C15 1_555 1_555
C17 C16 1_555 1_555
H16 C17 1_555 1_555
H17 C17 1_555 1_555
H18 C17 1_555 1_555
C18 O12 1_555 1_555
C19 C18 1_555 1_555
C20 C19 1_555 1_555
H19 C20 1_555 1_555
C21 C19 1_555 1_555
H20 C21 1_555 1_555
C22 C21 1_555 1_555
H21 C22 1_555 1_555
C23 C22 1_555 1_555
C24 C20 1_555 1_555
H22 C24 1_555 1_555
C25 O10 1_555 1_555
C26 C5 1_555 1_555
C27 C26 1_555 1_555
H23 C27 1_555 1_555
H24 C27 1_555 1_555
C28 N10 1_555 1_555
H25 C28 1_555 1_555
C29 N11 1_555 1_555
H26 C29 1_555 1_555
C30 O2 1_555 1_555
C31 H27 1_555 1_555
C32 C30 1_555 1_555
C33 C32 1_555 1_555
H28 C33 1_555 1_555
C34 N1 1_555 1_555
H29 C34 1_555 1_555
C35 N1 1_555 1_555
H30 C35 1_555 1_555
C36 N3 1_555 1_555
H31 C36 1_555 1_555
H32 C36 1_555 1_555
C37 H33 1_555 1_555
H34 C37 1_555 1_555
H35 C37 1_555 1_555
C38 C37 1_555 1_555
C39 C36 1_555 1_555
C40 H36 1_555 1_555
H37 C40 1_555 1_555
H38 C40 1_555 1_555
C41 C39 1_555 1_555
C42 C41 1_555 1_555
C43 N4 1_555 1_555
H39 C43 1_555 1_555
H40 C43 1_555 1_555
C44 C42 1_555 1_555
C45 C38 1_555 1_555
C46 C45 1_555 1_555
H41 C46 1_555 1_555
H42 C46 1_555 1_555
C47 C44 1_555 1_555
H43 C47 1_555 1_555
H44 C47 1_555 1_555
H45 C47 1_555 1_555
C48 N4 1_555 1_555
H46 C48 1_555 1_555
C49 N6 1_555 1_555
H47 C49 1_555 1_555
C50 H48 1_555 1_555
C51 C50 1_555 1_555
C52 C51 1_555 1_555
H49 C52 1_555 1_555
C53 O8 1_555 1_555
C54 N8 1_555 1_555
H50 C54 1_555 1_555
C55 N7 1_555 1_555
H51 C55 1_555 1_555
C56 C57 1_555 1_555
C57 C58 1_555 1_555
C58 C9 1_555 1_555
H52 C58 1_555 1_555
C59 C57 1_555 1_555
H53 C59 1_555 1_555
C60 C10 1_555 1_555
H54 C60 1_555 1_555
Cd1A O1A 1_555 1_555
Cd1A_2 N12A 1_555 1_555
Cd1_2 N1_2 1_555 1_555
Cd2A N15 1_555 1_555
Cd2A_2 N18 1_555 1_555
Cd2_2 N18A 1_555 1_555
Cd2_3 O14_2 1_555 1_555
Cd2A_3 O11A 1_555 1_555
Cd3_2 N7 1_555 1_555
Cd3_3 O3 1_555 1_555
Cd3A O6A 1_555 1_555
Cd3_4 N6_2 1_555 1_555
O1A C30A 1_555 1_555
O2A Cd1A 1_555 1_555
O3_2 Cd3 1_555 1_555
O3_3 Cd3_2 1_555 1_555
O4_2 Cd3 1_555 1_555
O4_3 Cd3_2 1_555 1_555
O5A Cd1A 1_555 1_555
O6A C53A 1_555 1_555
O6_2 Cd3_2 1_555 1_555
O7_2 Cd3_2 1_555 1_555
O8A Cd3A 1_555 1_555
O8_2 Cd3_2 1_555 1_555
O9A C25A 1_555 1_555
O10A Cd1A 1_555 1_555
O11A C18A 1_555 1_555
O11A_2 Cd2A 1_555 1_555
O12A Cd2A_3 1_555 1_555
O12A_2 Cd2A 1_555 1_555
O13A Cd2A 1_555 1_555
O14_2 C11_2 1_555 1_555
O14A Cd2A 1_555 1_555
O15_2 Cd2_3 1_555 1_555
O15A Cd2A 1_555 1_555
N1_2 C34_2 1_555 1_555
N1A Cd1A 1_555 1_555
N2_2 N3_2 1_555 1_555
N3_2 C34_2 1_555 1_555
N4_2 N5_2 1_555 1_555
N5_2 C49_2 1_555 1_555
N6_2 C48_2 1_555 1_555
N6_3 Cd3_2 1_555 1_555
N7_2 Cd3 1_555 1_555
N8_2 N9_2 1_555 1_555
N9_2 C46_2 1_555 1_555
N10A N11A 1_555 1_555
N11A C27A 1_555 1_555
N12A C28A 1_555 1_555
N12A_2 Cd1A 1_555 1_555
N13A N14A 1_555 1_555
N14A C12A 1_555 1_555
N15A Cd2 1_555 1_555
N16A N17A 1_555 1_555
N17A C3A 1_555 1_555
N18A C12A 1_555 1_555
N18A_2 Cd2 1_555 1_555
N18_2 Cd2A 1_555 1_555
C1A H1A 1_555 1_555
H2A C1A 1_555 1_555
H3A C1A 1_555 1_555
C2A C1A 1_555 1_555
C3A H4A 1_555 1_555
H5A C3A 1_555 1_555
C4A C2A 1_555 1_555
C5A C4A 1_555 1_555
C6A C5A 1_555 1_555
H6A C6A 1_555 1_555
H7A C6A 1_555 1_555
H8A C6A 1_555 1_555
C7A N15A 1_555 1_555
H9A C7A 1_555 1_555
C8A N15A 1_555 1_555
H10A C8A 1_555 1_555
C9_2 H11_2 1_555 1_555
C10_2 C9_2 1_555 1_555
C11_2 O15_2 1_555 1_555
C12A H12A 1_555 1_555
C13A N13A 1_555 1_555
H13A C13A 1_555 1_555
C14A N13A 1_555 1_555
H14A C14A 1_555 1_555
H15A C14A 1_555 1_555
C15A C2A 1_555 1_555
C16A C15A 1_555 1_555
C17A C16A 1_555 1_555
H16A C17A 1_555 1_555
H17A C17A 1_555 1_555
H18A C17A 1_555 1_555
C18A O12A 1_555 1_555
C19A C18A 1_555 1_555
C20A C19A 1_555 1_555
H19A C20A 1_555 1_555
C21A C19A 1_555 1_555
H20A C21A 1_555 1_555
C22A C21A 1_555 1_555
H21A C22A 1_555 1_555
C23A C22A 1_555 1_555
C24A C20A 1_555 1_555
H22A C24A 1_555 1_555
C25A O10A 1_555 1_555
C26A C5A 1_555 1_555
C27A C26A 1_555 1_555
H23A C27A 1_555 1_555
H24A C27A 1_555 1_555
C28A N10A 1_555 1_555
H25A C28A 1_555 1_555
C29A N11A 1_555 1_555
H26A C29A 1_555 1_555
C30A O2A 1_555 1_555
C31A C33 1_555 1_555
H27A C31A 1_555 1_555
C32A C30A 1_555 1_555
C33A C31 1_555 1_555
H28A C33A 1_555 1_555
C34_2 H29_2 1_555 1_555
C35_2 N1_2 1_555 1_555
H30_2 C35_2 1_555 1_555
C36_2 N3_2 1_555 1_555
H31_2 C36_2 1_555 1_555
H32_2 C36_2 1_555 1_555
C37_2 H33_2 1_555 1_555
H34_2 C37_2 1_555 1_555
H35_2 C37_2 1_555 1_555
C38_2 C37_2 1_555 1_555
C39_2 C36_2 1_555 1_555
C40_2 H36_2 1_555 1_555
H37_2 C40_2 1_555 1_555
H38_2 C40_2 1_555 1_555
C41_2 C39_2 1_555 1_555
C42_2 C41_2 1_555 1_555
C43_2 N4_2 1_555 1_555
H39_2 C43_2 1_555 1_555
H40_2 C43_2 1_555 1_555
C44_2 C42_2 1_555 1_555
C45_2 C38_2 1_555 1_555
C46_2 C45_2 1_555 1_555
H41_2 C46_2 1_555 1_555
H42_2 C46_2 1_555 1_555
C47_2 C44_2 1_555 1_555
H43_2 C47_2 1_555 1_555
H44_2 C47_2 1_555 1_555
H45_2 C47_2 1_555 1_555
C48_2 N4_2 1_555 1_555
H46_2 C48_2 1_555 1_555
C49_2 N6_2 1_555 1_555
H47_2 C49_2 1_555 1_555
C50A C52 1_555 1_555
H48A C50A 1_555 1_555
C51A C50A 1_555 1_555
C52A C50 1_555 1_555
H49A C52A 1_555 1_555
C53A O8A 1_555 1_555
C54_2 N7_2 1_555 1_555
H50_2 C54_2 1_555 1_555
C55_2 N7_2 1_555 1_555
H51_2 C55_2 1_555 1_555
C56_2 O3_2 1_555 1_555
C57_2 C56_2 1_555 1_555
C58_2 C9_2 1_555 1_555
H52_2 C58_2 1_555 1_555
C59_2 C57_2 1_555 1_555
H53_2 C59_2 1_555 1_555
C60_2 C10_2 1_555 1_555
H54_2 C60_2 1_555 1_555
O4 Cd3_3 1_555 1_555
O15 C11 1_555 1_555
N2 C35 1_555 1_555
N6 C48 1_555 1_555
N9 C55 1_555 1_555
N12 C28 1_555 1_555
N12 C29 1_555 1_555
N16 C8 1_555 1_555
N18 C13 1_555 1_555
C3 C4 1_555 1_555
C10 C11 1_555 1_555
C14 C15 1_555 1_555
C16 C26 1_555 1_555
C23 C24 1_555 1_555
C23 C25 1_555 1_555
C31 C32 1_555 1_555
C38 C39 1_555 1_555
C40 C41 1_555 1_555
C42 C43 1_555 1_555
C44 C45 1_555 1_555
C51 C53 1_555 1_555
C59 C60 1_555 1_555
O4_2 C56_2 1_555 1_555
N2_2 C35_2 1_555 1_555
N8_2 C54_2 1_555 1_555
N9_2 C55_2 1_555 1_555
N12A C29A 1_555 1_555
N16A C8A 1_555 1_555
N17A C7A 1_555 1_555
N18A C13A 1_555 1_555
C3A C4A 1_555 1_555
C10_2 C11_2 1_555 1_555
C14A C15A 1_555 1_555
C16A C26A 1_555 1_555
C23A C24A 1_555 1_555
C23A C25A 1_555 1_555
C31A C32A 1_555 1_555
C32A C33A 1_555 1_555
C38_2 C39_2 1_555 1_555
C40_2 C41_2 1_555 1_555
C42_2 C43_2 1_555 1_555
C44_2 C45_2 1_555 1_555
C51A C52A 1_555 1_555
C51A C53A 1_555 1_555
C57_2 C58_2 1_555 1_555
C59_2 C60_2 1_555 1_555

#END
