
#######################################################################
#
#                 Cambridge Crystallographic Data Centre
#                                CCDC 
#
#######################################################################
#
# If this CIF has been generated from an entry in the Cambridge 
# Structural Database, then it will include bibliographic, chemical, 
# crystal, experimental, refinement or atomic coordinate data resulting 
# from the CCDC's data processing and validation procedures.
#
#######################################################################

data_KAXZEQ
_symmetry_cell_setting           monoclinic
_symmetry_space_group_name_H-M   'P 21/c'
_symmetry_Int_Tables_number      14
_space_group_name_Hall           '-P 2ybc'
loop_
_symmetry_equiv_pos_site_id
_symmetry_equiv_pos_as_xyz
1 x,y,z
2 -x,1/2+y,1/2-z
3 -x,-y,-z
4 x,1/2-y,1/2+z
_cell_length_a                   13.996(3)
_cell_length_b                   11.340(2)
_cell_length_c                   34.124(10)
_cell_angle_alpha                90
_cell_angle_beta                 106.94(3)
_cell_angle_gamma                90
_cell_volume                     5180.98
loop_
_atom_site_label
_atom_site_type_symbol
_atom_site_fract_x
_atom_site_fract_y
_atom_site_fract_z
Cd1 Cd -0.39241(4) 0.77460(5) 0.713961(17)
Cd2 Cd 0.23487(5) 0.62743(6) 0.94377(2)
O1 O 0.1073(5) 0.7422(7) 0.9571(2)
H1 H 0.0976 0.8116 0.9501
O2 O -0.5462(4) 0.6614(5) 0.72613(19)
O3 O -0.4932(5) 0.6370(6) 0.6711(2)
O4 O -0.5814(4) 0.3957(5) 0.73045(17)
O5 O -0.7298(5) 0.3891(5) 0.7386(2)
O6 O -0.9940(5) 0.3980(7) 0.6096(3)
O7 O -0.9932(6) 0.4994(8) 0.5565(3)
O8 O -0.8873(7) 0.6272(7) 0.5320(2)
O9 O -0.7653(11) 0.7412(14) 0.5593(4)
O10 O 0.3230(7) 0.6439(8) 1.0125(2)
H2 H 0.3595 0.7010 1.0133
N1 N -0.1759(6) 0.7124(6) 0.6416(2)
N2 N -0.2589(7) 0.7377(8) 0.6099(3)
N3 N -0.2926(6) 0.7717(7) 0.6686(3)
N4 N 0.2507(5) 0.9526(6) 0.7179(2)
N5 N 0.1701(6) 1.0252(6) 0.7046(3)
N6 N 0.2988(5) 1.1169(6) 0.7489(2)
N7 N 0.1138(6) 0.5724(6) 0.8108(2)
N8 N 0.0406(6) 0.6532(8) 0.8108(3)
N9 N 0.1402(7) 0.6175(7) 0.8747(2)
N10 N -0.5927(5) 1.0722(6) 0.65469(19)
N11 N -0.6135(7) 1.0004(7) 0.6216(2)
N12 N -0.4943(6) 0.9203(7) 0.6734(2)
N13 N -0.8581(7) 1.2018(7) 0.4911(3)
N14 N -0.9490(8) 1.1440(10) 0.4817(4)
N15 N -0.8373(7) 1.0394(7) 0.4613(3)
N16 N -0.4117(6) 1.4254(6) 0.5807(3)
N17 N -0.3179(9) 1.4708(9) 0.6006(4)
N18 N -0.3049(7) 1.3007(7) 0.5685(3)
C1 C -0.3267(8) 0.7717(9) 0.6282(3)
H3 H -0.3916 0.7933 0.6139
C2 C -0.1985(7) 0.7349(8) 0.6758(3)
H4 H -0.1541 0.7262 0.7018
C3 C -0.0905(6) 0.6546(9) 0.6343(3)
H5 H -0.0778 0.6887 0.6102
H6 H -0.1055 0.5716 0.6288
C4 C 0.0022(7) 0.6666(8) 0.6705(3)
C5 C 0.0170(7) 0.5890(8) 0.7031(3)
C6 C -0.0590(9) 0.4932(8) 0.7024(4)
H7 H -0.0791 0.4973 0.7269
H8 H -0.0297 0.4175 0.7007
H9 H -0.1162 0.5041 0.6790
C7 C 0.0998(6) 0.6009(7) 0.7366(3)
C8 C 0.1168(9) 0.5159(8) 0.7725(3)
H10 H 0.1812 0.4781 0.7768
H11 H 0.0661 0.4548 0.7655
C9 C 0.1677(8) 0.5509(8) 0.8471(3)
H12 H 0.2194 0.4962 0.8537
C10 C 0.0634(8) 0.6762(10) 0.8504(3)
H13 H 0.0275 0.7308 0.8607
C11 C 0.1744(7) 0.6829(8) 0.7364(3)
C12 C 0.2667(8) 0.6983(9) 0.7733(4)
H14 H 0.2823 0.6247 0.7877
H15 H 0.2536 0.7570 0.7914
H16 H 0.3222 0.7227 0.7641
C13 C 0.1632(6) 0.7557(7) 0.7026(3)
C14 C 0.2481(7) 0.8354(7) 0.6985(3)
H17 H 0.3112 0.7959 0.7107
H18 H 0.2413 0.8464 0.6696
C15 C 0.3260(6) 1.0079(7) 0.7437(3)
H19 H 0.3884 0.9753 0.7563
C16 C 0.2038(6) 1.1212(7) 0.7247(3)
H20 H 0.1647 1.1885 0.7226
C17 C 0.0741(7) 0.7510(8) 0.6691(3)
C18 C 0.0594(8) 0.8373(9) 0.6342(3)
H21 H -0.0103 0.8554 0.6234
H22 H 0.0832 0.8030 0.6131
H23 H 0.0960 0.9082 0.6440
C19 C -0.2577(9) 1.3936(11) 0.5925(5)
H24 H -0.1885 1.4003 0.6022
C20 C -0.4007(7) 1.3298(9) 0.5618(3)
H25 H -0.4537 1.2862 0.5455
C21 C -0.4998(10) 1.4827(8) 0.5820(4)
H26 H -0.5202 1.5367 0.5590
H27 H -0.4855 1.5292 0.6069
C22 C -0.5862(7) 1.4006(7) 0.5807(3)
C23 C -0.5776(6) 1.3292(7) 0.6157(3)
C24 C -0.4839(8) 1.3290(8) 0.6511(3)
H28 H -0.4536 1.4057 0.6538
H29 H -0.4381 1.2716 0.6462
H30 H -0.4999 1.3095 0.6758
C25 C -0.6569(7) 1.2540(7) 0.6162(3)
C26 C -0.6488(6) 1.1824(8) 0.6542(3)
H31 H -0.6157 1.2290 0.6782
H32 H -0.7154 1.1636 0.6556
C27 C -0.7446(7) 1.2501(8) 0.5832(3)
C28 C -0.8291(7) 1.1746(10) 0.5860(3)
H33 H -0.8541 1.2027 0.6076
H34 H -0.8064 1.0948 0.5916
H35 H -0.8813 1.1775 0.5605
C29 C -0.7502(8) 1.3194(8) 0.5482(3)
C30 C -0.6700(8) 1.3913(8) 0.5470(3)
C31 C -0.6740(11) 1.4580(11) 0.5076(4)
H36 H -0.6075 1.4799 0.5078
H37 H -0.7139 1.5277 0.5058
H38 H -0.7029 1.4083 0.4844
C32 C -0.8471(9) 1.3128(10) 0.5128(4)
H39 H -0.9035 1.3236 0.5236
H40 H -0.8481 1.3766 0.4938
C33 C -0.7963(8) 1.1346(9) 0.4789(3)
H41 H -0.7297 1.1538 0.4826
C34 C -0.9337(9) 1.0485(12) 0.4639(4)
H42 H -0.9826 0.9916 0.4538
C35 C -0.5208(6) 1.0221(7) 0.6853(3)
H43 H -0.4939 1.0548 0.7112
C36 C -0.5525(8) 0.9102(8) 0.6340(3)
H44 H -0.5496 0.8461 0.6174
C37 C -0.5585(6) 0.6245(6) 0.6903(3)
C38 C -0.6568(6) 0.5749(7) 0.6661(2)
C39 C -0.7128(6) 0.4914(6) 0.6798(2)
C40 C -0.6710(6) 0.4219(6) 0.7200(2)
C41 C -0.8082(6) 0.4627(7) 0.6549(2)
H45 H -0.8458 0.4079 0.6644
C42 C -0.8484(6) 0.5123(6) 0.6170(2)
C43 C -0.9511(7) 0.4667(8) 0.5935(3)
C44 C -0.7934(6) 0.5941(8) 0.6026(2)
C45 C -0.8203(8) 0.6586(11) 0.5608(3)
C46 C -0.6996(7) 0.6221(7) 0.6276(3)
H46 H -0.6623 0.6766 0.6178
O13 O 0.3799(3) 0.5138(3) 0.93120(12)
Cd1A Cd -0.60759(4) 0.27460(5) 0.786039(17)
Cd1A_2 Cd 0.39241(4) 1.27460(5) 0.786039(17)
Cd2C Cd -0.76513(5) 0.87257(6) 0.44377(2)
Cd2A Cd -0.23487(5) 1.12743(6) 0.55623(2)
O4A O -0.4186(4) 0.8957(5) 0.76955(17)
O5A O -0.2702(5) 0.8891(5) 0.7614(2)
N6A N -0.2988(5) 0.6169(6) 0.7511(2)
N15C N 0.1627(7) 0.4606(7) 0.9613(3)
N18A N 0.3049(7) 0.8007(7) 0.9315(3)
O11 O 0.4755(13) 0.2541(13) 0.9691(5)
H47 H 0.5171 0.2546 0.9568
O12 O 0.5995(9) 0.5806(10) 0.9603(3)
H48 H 0.5456 0.5525 0.9480
loop_
_geom_bond_atom_site_label_1
_geom_bond_atom_site_label_2
_geom_bond_site_symmetry_1
_geom_bond_site_symmetry_2
Cd1 O3 1_555 1_555
Cd2 O1 1_555 1_555
O1 H1 1_555 1_555
O2 C37 1_555 1_555
O3 C37 1_555 1_555
O4 C40 1_555 1_555
O5 C40 1_555 1_555
O6 C43 1_555 1_555
O7 C43 1_555 1_555
O8 C45 1_555 1_555
O9 C45 1_555 1_555
O10 Cd2 1_555 1_555
H2 O10 1_555 1_555
N1 N2 1_555 1_555
N2 C1 1_555 1_555
N3 Cd1 1_555 1_555
N4 N5 1_555 1_555
N5 C16 1_555 1_555
N6 C15 1_555 1_555
N7 N8 1_555 1_555
N8 C10 1_555 1_555
N9 Cd2 1_555 1_555
N10 N11 1_555 1_555
N11 C36 1_555 1_555
N12 Cd1 1_555 1_555
N13 N14 1_555 1_555
N14 C34 1_555 1_555
N15 C33 1_555 1_555
N16 N17 1_555 1_555
N17 C19 1_555 1_555
N18 C19 1_555 1_555
C1 N3 1_555 1_555
H3 C1 1_555 1_555
C2 N1 1_555 1_555
H4 C2 1_555 1_555
C3 N1 1_555 1_555
H5 C3 1_555 1_555
H6 C3 1_555 1_555
C4 C3 1_555 1_555
C5 C4 1_555 1_555
C6 C5 1_555 1_555
H7 C6 1_555 1_555
H8 C6 1_555 1_555
H9 C6 1_555 1_555
C7 C5 1_555 1_555
C8 N7 1_555 1_555
H10 C8 1_555 1_555
H11 C8 1_555 1_555
C9 N7 1_555 1_555
H12 C9 1_555 1_555
C10 N9 1_555 1_555
H13 C10 1_555 1_555
C11 C7 1_555 1_555
C12 C11 1_555 1_555
H14 C12 1_555 1_555
H15 C12 1_555 1_555
H16 C12 1_555 1_555
C13 C11 1_555 1_555
C14 N4 1_555 1_555
H17 C14 1_555 1_555
H18 C14 1_555 1_555
C15 N4 1_555 1_555
H19 C15 1_555 1_555
C16 N6 1_555 1_555
H20 C16 1_555 1_555
C17 C4 1_555 1_555
C18 C17 1_555 1_555
H21 C18 1_555 1_555
H22 C18 1_555 1_555
H23 C18 1_555 1_555
C19 H24 1_555 1_555
C20 N16 1_555 1_555
H25 C20 1_555 1_555
C21 N16 1_555 1_555
H26 C21 1_555 1_555
H27 C21 1_555 1_555
C22 C21 1_555 1_555
C23 C22 1_555 1_555
C24 C23 1_555 1_555
H28 C24 1_555 1_555
H29 C24 1_555 1_555
H30 C24 1_555 1_555
C25 C23 1_555 1_555
C26 N10 1_555 1_555
H31 C26 1_555 1_555
H32 C26 1_555 1_555
C27 C25 1_555 1_555
C28 C27 1_555 1_555
H33 C28 1_555 1_555
H34 C28 1_555 1_555
H35 C28 1_555 1_555
C29 C27 1_555 1_555
C30 C22 1_555 1_555
C31 C30 1_555 1_555
H36 C31 1_555 1_555
H37 C31 1_555 1_555
H38 C31 1_555 1_555
C32 N13 1_555 1_555
H39 C32 1_555 1_555
H40 C32 1_555 1_555
C33 N13 1_555 1_555
H41 C33 1_555 1_555
C34 N15 1_555 1_555
H42 C34 1_555 1_555
C35 N10 1_555 1_555
H43 C35 1_555 1_555
C36 N12 1_555 1_555
H44 C36 1_555 1_555
C37 C38 1_555 1_555
C38 C39 1_555 1_555
C39 C40 1_555 1_555
C41 C39 1_555 1_555
H45 C41 1_555 1_555
C42 C41 1_555 1_555
C43 C42 1_555 1_555
C44 C42 1_555 1_555
C45 C44 1_555 1_555
C46 C38 1_555 1_555
H46 C46 1_555 1_555
O11 H47 1_555 1_555
O12 H48 1_555 1_555
O13 Cd2 1_555 1_555
Cd1A O4 1_555 1_555
Cd1A_2 N6 1_555 1_555
Cd2C N15 1_555 1_555
Cd2A N18 1_555 1_555
O4A Cd1 1_555 1_555
O5A Cd1 1_555 1_555
N6A Cd1 1_555 1_555
N15C Cd2 1_555 1_555
N18A Cd2 1_555 1_555
O5 Cd1A 1_555 1_555
N3 C2 1_555 1_555
N9 C9 1_555 1_555
N12 C35 1_555 1_555
N18 C20 1_555 1_555
C7 C8 1_555 1_555
C13 C14 1_555 1_555
C13 C17 1_555 1_555
C25 C26 1_555 1_555
C29 C30 1_555 1_555
C29 C32 1_555 1_555
C44 C46 1_555 1_555

#END
