
#######################################################################
#
#                 Cambridge Crystallographic Data Centre
#                                CCDC 
#
#######################################################################
#
# If this CIF has been generated from an entry in the Cambridge 
# Structural Database, then it will include bibliographic, chemical, 
# crystal, experimental, refinement or atomic coordinate data resulting 
# from the CCDC's data processing and validation procedures.
#
#######################################################################

data_KAYBOD
_symmetry_cell_setting           orthorhombic
_symmetry_space_group_name_H-M   'P 21 21 21'
_symmetry_Int_Tables_number      19
_space_group_name_Hall           'P 2ac 2ab'
loop_
_symmetry_equiv_pos_site_id
_symmetry_equiv_pos_as_xyz
1 x,y,z
2 1/2-x,-y,1/2+z
3 1/2+x,1/2-y,-z
4 -x,1/2+y,1/2-z
_cell_length_a                   6.2110(10)
_cell_length_b                   6.9005(9)
_cell_length_c                   18.285(3)
_cell_angle_alpha                90
_cell_angle_beta                 90
_cell_angle_gamma                90
_cell_volume                     783.677
loop_
_atom_site_label
_atom_site_type_symbol
_atom_site_fract_x
_atom_site_fract_y
_atom_site_fract_z
C1 C 0.8016(5) 0.0313(5) 1.04800(18)
C2 C 0.8946(6) 0.0409(4) 0.97886(18)
H1 H 1.0355 0.0841 0.9732
C3 C 0.5630(7) -0.0709(4) 0.9294(2)
H2 H 0.4791 -0.1110 0.8900
C4 C 0.4765(6) -0.0669(4) 1.0001(2)
H3 H 0.3330 -0.1011 1.0067
H4 H 0.017(5) -0.006(6) 1.2465(18)
H5 H 0.130(7) -0.091(6) 1.295(3)
N1 N 0.5929(4) -0.0156(4) 1.05834(15)
O1 O 0.8220(4) 0.0796(3) 1.17538(13)
O2 O 1.1303(4) 0.0627(4) 1.11178(13)
O3 O 0.9167(5) 0.1348(3) 0.81093(15)
O4 O 0.9105(5) -0.1825(3) 0.81609(14)
O5 O 0.1383(5) -0.0225(5) 1.27077(16)
Ca1 Ca 0.44054(11) 0.02451(9) 1.19154(4)
C5 C 0.9304(7) 0.0627(5) 1.11687(19)
C6 C 0.7746(6) -0.0146(5) 0.91863(16)
C7 C 0.8750(5) -0.0193(5) 0.84336(17)
O2_2 O 0.1303(4) 0.0627(4) 1.11178(13)
O3A O 0.5833(5) -0.1348(3) 1.31093(15)
O3B O 0.4167(5) 0.3652(3) 1.18907(15)
O4A O 0.5895(5) 0.1825(3) 1.31609(14)
O4B O 0.4105(5) -0.3175(3) 1.18391(14)
Ca1_2 Ca 1.44054(11) 0.02451(9) 1.19154(4)
Ca1A Ca 1.05946(11) -0.02451(9) 0.69154(4)
Ca1B Ca 0.94054(11) 0.47549(9) 0.80846(4)
Ca1B_2 Ca 0.94054(11) -0.52451(9) 0.80846(4)
loop_
_geom_bond_atom_site_label_1
_geom_bond_atom_site_label_2
_geom_bond_site_symmetry_1
_geom_bond_site_symmetry_2
C1 C2 1_555 1_555
C2 H1 1_555 1_555
C3 H2 1_555 1_555
C4 C3 1_555 1_555
H3 C4 1_555 1_555
H4 O5 1_555 1_555
H5 O5 1_555 1_555
N1 C1 1_555 1_555
O1 Ca1 1_555 1_555
O2 C5 1_555 1_555
O3 C7 1_555 1_555
O4 C7 1_555 1_555
O5 Ca1 1_555 1_555
Ca1 N1 1_555 1_555
C5 C1 1_555 1_555
C6 C2 1_555 1_555
C7 C6 1_555 1_555
O2_2 Ca1 1_555 1_555
O3A Ca1 1_555 1_555
O3B Ca1 1_555 1_555
O4A Ca1 1_555 1_555
O4B Ca1 1_555 1_555
Ca1_2 O2 1_555 1_555
Ca1A O3 1_555 1_555
Ca1B O3 1_555 1_555
Ca1B_2 O4 1_555 1_555
C3 C6 1_555 1_555
C4 N1 1_555 1_555
O1 C5 1_555 1_555
O4 Ca1A 1_555 1_555

#END
