
#######################################################################
#
#                 Cambridge Crystallographic Data Centre
#                                CCDC 
#
#######################################################################
#
# If this CIF has been generated from an entry in the Cambridge 
# Structural Database, then it will include bibliographic, chemical, 
# crystal, experimental, refinement or atomic coordinate data resulting 
# from the CCDC's data processing and validation procedures.
#
#######################################################################

data_KAYBET
_symmetry_cell_setting           orthorhombic
_symmetry_space_group_name_H-M   'P b c a'
_symmetry_Int_Tables_number      61
_space_group_name_Hall           '-P 2ac 2ab'
loop_
_symmetry_equiv_pos_site_id
_symmetry_equiv_pos_as_xyz
1 x,y,z
2 1/2-x,-y,1/2+z
3 -x,1/2+y,1/2-z
4 1/2+x,1/2-y,-z
5 -x,-y,-z
6 1/2+x,y,1/2-z
7 x,1/2-y,1/2+z
8 1/2-x,1/2+y,z
_cell_length_a                   11.355(5)
_cell_length_b                   7.443(3)
_cell_length_c                   18.452(9)
_cell_angle_alpha                90
_cell_angle_beta                 90
_cell_angle_gamma                90
_cell_volume                     1559.48
loop_
_atom_site_label
_atom_site_type_symbol
_atom_site_fract_x
_atom_site_fract_y
_atom_site_fract_z
H1 H 0.2832 0.2503 0.7159
Ca1 Ca 0.52945(3) 0.11210(4) 0.707862(18)
O1 O 0.60898(11) 0.41882(15) 0.72473(7)
C1 C 0.53622(15) 0.2509(2) 0.52051(9)
H2 H 0.4742 0.1712 0.5134
O2 O 0.50289(15) 0.11628(17) 0.37724(8)
C2 C 0.65354(16) 0.4134(2) 0.59826(9)
N1 N 0.56360(13) 0.29680(18) 0.58885(7)
O3 O 0.76809(12) 0.56737(17) 0.68660(7)
C3 C 0.55921(16) 0.2601(2) 0.38361(9)
C4 C 0.67975(15) 0.4708(2) 0.67600(9)
C5 C 0.59553(16) 0.3161(2) 0.45940(9)
C6 C 0.71890(18) 0.4808(3) 0.54114(9)
H3 H 0.7820 0.5575 0.5498
O4 O 0.35420(14) 0.2811(2) 0.69692(9)
C7 C 0.68918(18) 0.4326(3) 0.47051(10)
H4 H 0.7315 0.4778 0.4314
O5 O 0.58879(13) 0.36313(16) 0.33243(7)
H5 H 0.354(2) 0.383(3) 0.6829(14)
Ca1B Ca 0.47055(3) 0.61210(4) 0.792138(18)
Ca1D Ca 0.47055(3) -0.11210(4) 0.292138(18)
Ca1G Ca 0.97055(3) 0.61210(4) 0.707862(18)
Ca1F Ca 0.52945(3) 0.38790(4) 0.207862(18)
O1B O 0.39102(11) -0.08118(15) 0.77527(7)
O2D O 0.49711(15) -0.11628(17) 0.62276(8)
O3G O 0.73191(12) 0.06737(17) 0.68660(7)
O5F O 0.58879(13) 0.13687(16) 0.83243(7)
loop_
_geom_bond_atom_site_label_1
_geom_bond_atom_site_label_2
_geom_bond_site_symmetry_1
_geom_bond_site_symmetry_2
H1 O4 1_555 1_555
Ca1 O1 1_555 1_555
O1 C4 1_555 1_555
C1 H2 1_555 1_555
O2 C3 1_555 1_555
C2 N1 1_555 1_555
N1 Ca1 1_555 1_555
O3 C4 1_555 1_555
C3 C5 1_555 1_555
C4 C2 1_555 1_555
C5 C1 1_555 1_555
C6 C2 1_555 1_555
H3 C6 1_555 1_555
O4 Ca1 1_555 1_555
C7 C5 1_555 1_555
H4 C7 1_555 1_555
O5 C3 1_555 1_555
H5 O4 1_555 1_555
Ca1B O1 1_555 1_555
Ca1D O2 1_555 1_555
Ca1G O3 1_555 1_555
Ca1F O5 1_555 1_555
O1B Ca1 1_555 1_555
O2D Ca1 1_555 1_555
O3G Ca1 1_555 1_555
O5F Ca1 1_555 1_555
C1 N1 1_555 1_555
C6 C7 1_555 1_555

#END
