
#######################################################################
#
#                 Cambridge Crystallographic Data Centre
#                                CCDC 
#
#######################################################################
#
# If this CIF has been generated from an entry in the Cambridge 
# Structural Database, then it will include bibliographic, chemical, 
# crystal, experimental, refinement or atomic coordinate data resulting 
# from the CCDC's data processing and validation procedures.
#
#######################################################################

data_KAYBAP
_symmetry_cell_setting           monoclinic
_symmetry_space_group_name_H-M   'C c'
_symmetry_Int_Tables_number      9
_space_group_name_Hall           'C -2yc'
loop_
_symmetry_equiv_pos_site_id
_symmetry_equiv_pos_as_xyz
1 x,y,z
2 x,-y,1/2+z
3 1/2+x,1/2+y,z
4 1/2+x,1/2-y,1/2+z
_cell_length_a                   17.7443(10)
_cell_length_b                   9.0940(5)
_cell_length_c                   22.8204(16)
_cell_angle_alpha                90
_cell_angle_beta                 110.655(7)
_cell_angle_gamma                90
_cell_volume                     3445.75
loop_
_atom_site_label
_atom_site_type_symbol
_atom_site_fract_x
_atom_site_fract_y
_atom_site_fract_z
C1 C 0.6855(3) 0.5790(7) 1.3393(3)
C2 C 0.6424(3) 0.5401(7) 1.2726(3)
C3 C 0.5816(4) 0.4370(7) 1.2536(3)
H1 H 0.5614 0.3973 1.2826
C4 C 0.5506(4) 0.3924(7) 1.1922(3)
H2 H 0.5109 0.3203 1.1794
C5 C 0.5802(4) 0.4584(7) 1.1497(3)
C6 C 0.5550(4) 0.4032(6) 1.0839(3)
C7 C 0.6646(4) 0.6038(6) 1.2260(3)
H3 H 0.7032 0.6778 1.2377
C8 C 0.6311(3) 1.0684(6) 1.0122(3)
C9 C 0.7142(3) 1.1234(7) 1.0182(3)
C10 C 0.7817(3) 1.0369(7) 1.0448(3)
H4 H 0.7776 0.9434 1.0598
C11 C 0.8560(4) 1.0935(7) 1.0483(3)
H5 H 0.9033 1.0417 1.0684
C12 C 0.9367(4) 1.2916(6) 1.0199(3)
C13 C 0.7876(3) 1.3071(7) 0.9949(3)
H6 H 0.7898 1.3983 0.9771
C14 C 0.8834(3) 0.9688(7) 0.9043(3)
C15 C 0.8022(3) 0.9109(7) 0.9021(3)
C16 C 0.7326(4) 0.9865(7) 0.8719(3)
H7 H 0.7339 1.0730 0.8505
C17 C 0.6604(4) 0.9329(7) 0.8734(4)
H8 H 0.6122 0.9810 0.8522
C18 C 0.6614(3) 0.8058(6) 0.9074(3)
C19 C 0.5855(3) 0.7463(6) 0.9126(3)
C20 C 0.7346(4) 0.7368(7) 0.9353(3)
H9 H 0.7353 0.6504 0.9572
C21 C 0.9624(4) 0.3663(6) 1.3433(3)
C22 C 0.9384(3) 0.4381(6) 1.2784(3)
C23 C 0.9672(4) 0.3842(7) 1.2339(3)
H10 H 1.0063 0.3111 1.2443
C24 C 0.9372(4) 0.4399(7) 1.1735(3)
H11 H 0.9567 0.4059 1.1431
C25 C 0.8778(3) 0.5471(6) 1.1590(3)
C26 C 0.8380(4) 0.6037(6) 1.0935(3)
C27 C 0.8575(3) 1.2288(6) 1.0211(3)
C28 C 0.8551(3) 0.5993(6) 1.2071(3)
H12 H 0.8170 0.6741 1.1981
C29 C 0.7030(5) 0.9929(10) 1.1720(4)
H13 H 0.6524 1.0368 1.1590
C30 C 0.8451(5) 1.0206(9) 1.2182(5)
H14 H 0.8543 0.9899 1.1811
H15 H 0.8517 0.9381 1.2459
H16 H 0.8830 1.0960 1.2389
C31 C 0.7558(8) 1.2310(9) 1.2154(8)
H17 H 0.7303 1.2841 1.1771
H18 H 0.8082 1.2716 1.2370
H19 H 0.7237 1.2391 1.2414
N1 N 0.6349(3) 0.5674(5) 1.1658(2)
N2 N 0.8042(3) 0.7848(5) 0.9331(3)
N3 N 0.7162(3) 1.2565(5) 0.9941(2)
N4 N 0.8845(3) 0.5487(5) 1.2663(2)
N5 N 0.7634(5) 1.0780(7) 1.2013(4)
O1 O 0.7554(2) 0.6344(5) 1.3531(2)
O2 O 0.6503(2) 0.5526(4) 1.3771(2)
O3 O 0.5905(2) 0.4575(4) 1.04896(19)
O4 O 0.5020(3) 0.3082(5) 1.0684(2)
O5 O 0.9430(2) 0.8921(4) 0.9327(2)
O6 O 0.8834(2) 1.0864(5) 0.8762(2)
O7 O 0.5928(2) 0.6520(4) 0.9556(2)
O8 O 0.5208(2) 0.7936(5) 0.8753(2)
O9 O 0.5734(2) 1.1547(4) 0.9904(2)
O10 O 0.6266(2) 0.9398(5) 1.0295(2)
O11 O 0.9301(2) 1.3875(4) 0.9774(2)
O12 O 1.0000(2) 1.2455(4) 1.0590(2)
O13 O 1.0135(3) 0.2682(5) 1.3551(2)
O14 O 0.9263(2) 0.4153(4) 1.37840(18)
O15 O 0.8758(2) 0.5910(4) 1.0565(2)
O16 O 0.7693(3) 0.6563(5) 1.0804(2)
O17 O 0.7042(3) 0.8642(6) 1.1596(2)
Ca1 Ca 0.63619(6) 0.70802(12) 1.06789(5)
Ca2 Ca 0.58084(6) 1.38897(12) 0.94316(5)
Ca3 Ca 0.93802(6) 0.65361(12) 0.98437(5)
Ca4 Ca 0.88962(6) 0.66510(12) 1.37008(5)
O2A O 0.6503(2) 1.4474(4) 0.8771(2)
O3_2 O 0.5905(2) 1.4575(4) 1.04896(19)
O4B O 1.0020(3) 0.8082(5) 1.0684(2)
O5B O 0.4430(2) 1.3921(4) 0.9327(2)
O6A O 0.8834(2) 0.9136(5) 1.3762(2)
O7_2 O 0.5928(2) 1.6520(4) 0.9556(2)
O8C O 1.0208(2) 0.7064(5) 1.3753(2)
O9B O 1.0734(2) 0.6547(4) 0.9904(2)
O11_2 O 0.9301(2) 0.3875(4) 0.9774(2)
O11A O 0.9301(2) 0.6125(4) 1.4774(2)
O12B O 0.5000(2) 0.7455(4) 1.0590(2)
O13C O 0.5135(3) 1.2318(5) 0.8551(2)
O14A O 0.9263(2) 0.5847(4) 0.87840(18)
Ca1B Ca 1.13619(6) 1.20802(12) 1.06789(5)
Ca2A Ca 0.58084(6) 0.61103(12) 1.44316(5)
Ca2_2 Ca 0.58084(6) 0.38897(12) 0.94316(5)
Ca2B Ca 1.08084(6) 0.88897(12) 0.94316(5)
Ca2C Ca 1.08084(6) 0.11103(12) 1.44316(5)
Ca3B Ca 0.43802(6) 0.15361(12) 0.98437(5)
Ca3B_2 Ca 0.43802(6) 1.15361(12) 0.98437(5)
Ca3_2 Ca 0.93802(6) 1.65361(12) 0.98437(5)
Ca3A Ca 0.93802(6) 0.34639(12) 1.48437(5)
Ca4A Ca 0.88962(6) 1.33490(12) 0.87008(5)
Ca4C Ca 0.38962(6) 0.83490(12) 0.87008(5)
loop_
_geom_bond_atom_site_label_1
_geom_bond_atom_site_label_2
_geom_bond_site_symmetry_1
_geom_bond_site_symmetry_2
C1 C2 1_555 1_555
C2 C3 1_555 1_555
C3 H1 1_555 1_555
C4 C3 1_555 1_555
H2 C4 1_555 1_555
C5 C4 1_555 1_555
C6 C5 1_555 1_555
C7 C2 1_555 1_555
H3 C7 1_555 1_555
C8 C9 1_555 1_555
C9 C10 1_555 1_555
C10 H4 1_555 1_555
C11 C10 1_555 1_555
H5 C11 1_555 1_555
C12 C27 1_555 1_555
C13 H6 1_555 1_555
C14 C15 1_555 1_555
C15 C16 1_555 1_555
C16 H7 1_555 1_555
C17 C16 1_555 1_555
H8 C17 1_555 1_555
C18 C17 1_555 1_555
C19 C18 1_555 1_555
C20 C18 1_555 1_555
H9 C20 1_555 1_555
C21 C22 1_555 1_555
C22 C23 1_555 1_555
C23 H10 1_555 1_555
C24 C23 1_555 1_555
H11 C24 1_555 1_555
C25 C24 1_555 1_555
C26 C25 1_555 1_555
C27 C11 1_555 1_555
C28 C25 1_555 1_555
H12 C28 1_555 1_555
C29 H13 1_555 1_555
C30 H14 1_555 1_555
H15 C30 1_555 1_555
H16 C30 1_555 1_555
C31 H17 1_555 1_555
H18 C31 1_555 1_555
H19 C31 1_555 1_555
N1 C5 1_555 1_555
N2 C15 1_555 1_555
N3 C9 1_555 1_555
N4 C22 1_555 1_555
N5 C29 1_555 1_555
O1 C1 1_555 1_555
O2 C1 1_555 1_555
O3 C6 1_555 1_555
O4 C6 1_555 1_555
O5 C14 1_555 1_555
O6 C14 1_555 1_555
O7 C19 1_555 1_555
O8 C19 1_555 1_555
O9 C8 1_555 1_555
O10 C8 1_555 1_555
O11 C12 1_555 1_555
O12 C12 1_555 1_555
O13 C21 1_555 1_555
O14 C21 1_555 1_555
O15 C26 1_555 1_555
O16 C26 1_555 1_555
O17 C29 1_555 1_555
Ca1 N1 1_555 1_555
Ca2 N3 1_555 1_555
Ca3 N2 1_555 1_555
Ca4 N4 1_555 1_555
O2A Ca2 1_555 1_555
O3_2 Ca2 1_555 1_555
O4B Ca3 1_555 1_555
O5B Ca2 1_555 1_555
O6A Ca4 1_555 1_555
O7_2 Ca2 1_555 1_555
O8C Ca4 1_555 1_555
O9B Ca3 1_555 1_555
O11_2 Ca3 1_555 1_555
O11A Ca4 1_555 1_555
O12B Ca1 1_555 1_555
O13C Ca2 1_555 1_555
O14A Ca3 1_555 1_555
Ca1B O12 1_555 1_555
Ca2A O2 1_555 1_555
Ca2_2 O3 1_555 1_555
Ca2B O5 1_555 1_555
Ca2C O13 1_555 1_555
Ca3B O4 1_555 1_555
Ca3B_2 O9 1_555 1_555
Ca3_2 O11 1_555 1_555
Ca3A O14 1_555 1_555
Ca4A O6 1_555 1_555
Ca4C O8 1_555 1_555
C7 N1 1_555 1_555
C13 C27 1_555 1_555
C13 N3 1_555 1_555
C20 N2 1_555 1_555
C28 N4 1_555 1_555
C30 N5 1_555 1_555
C31 N5 1_555 1_555
O1 Ca4 1_555 1_555
O3 Ca1 1_555 1_555
O5 Ca3 1_555 1_555
O7 Ca1 1_555 1_555
O7 Ca2_2 1_555 1_555
O9 Ca2 1_555 1_555
O10 Ca1 1_555 1_555
O11 Ca4A 1_555 1_555
O14 Ca4 1_555 1_555
O15 Ca3 1_555 1_555
O16 Ca1 1_555 1_555
O17 Ca1 1_555 1_555
O5B Ca3B_2 1_555 1_555
O9B Ca2B 1_555 1_555
O11A Ca3A 1_555 1_555

#END
