
#######################################################################
#
#                 Cambridge Crystallographic Data Centre
#                                CCDC 
#
#######################################################################
#
# If this CIF has been generated from an entry in the Cambridge 
# Structural Database, then it will include bibliographic, chemical, 
# crystal, experimental, refinement or atomic coordinate data resulting 
# from the CCDC's data processing and validation procedures.
#
#######################################################################

data_KAYBOC
_symmetry_cell_setting           monoclinic
_symmetry_space_group_name_H-M   'P 21/c'
_symmetry_Int_Tables_number      14
_space_group_name_Hall           '-P 2ybc'
loop_
_symmetry_equiv_pos_site_id
_symmetry_equiv_pos_as_xyz
1 x,y,z
2 -x,1/2+y,1/2-z
3 -x,-y,-z
4 x,1/2-y,1/2+z
_cell_length_a                   9.2498(18)
_cell_length_b                   14.169(3)
_cell_length_c                   10.514(2)
_cell_angle_alpha                90
_cell_angle_beta                 95.77(3)
_cell_angle_gamma                90
_cell_volume                     1370.99
loop_
_atom_site_label
_atom_site_type_symbol
_atom_site_fract_x
_atom_site_fract_y
_atom_site_fract_z
Gd1 Gd 0.375233(17) -0.133751(12) 0.029435(15)
C1 C -0.0075(4) -0.1327(3) -0.0339(3)
H1 H 0.0027 -0.0821 0.0227
C2 C -0.1476(4) -0.1599(3) -0.0830(3)
C3 C -0.1629(4) -0.2338(3) -0.1677(4)
H2 H -0.2547 -0.2552 -0.1992
C4 C -0.0384(4) -0.2759(3) -0.2055(4)
H3 H -0.0457 -0.3244 -0.2655
C5 C 0.0963(4) -0.2450(3) -0.1530(3)
C6 C -0.2756(4) -0.1004(3) -0.0529(3)
C7 C 0.2371(4) -0.2840(3) -0.1934(3)
C8 C 0.6704(4) -0.0127(3) 0.3688(4)
C9 C 0.6094(5) -0.0810(3) 0.4393(4)
H4 H 0.5322 -0.1164 0.4010
C10 C 0.6581(5) -0.0984(3) 0.5623(4)
H5 H 0.6170 -0.1458 0.6082
C11 C 0.7651(6) -0.0465(4) 0.6150(4)
H6 H 0.7963 -0.0571 0.7007
C12 C 0.8343(6) 0.0226(4) 0.5518(4)
H7 H 0.9123 0.0560 0.5925
C13 C 0.7843(5) 0.0405(3) 0.4266(4)
H8 H 0.8264 0.0877 0.3812
C14 C 0.6104(4) 0.0048(3) 0.2333(3)
N1 N 0.1127(3) -0.1766(2) -0.0650(3)
O1 O 0.3503(3) -0.2646(2) -0.1224(2)
O2 O 0.2303(3) -0.3311(2) -0.2946(2)
O3 O -0.3931(3) -0.1435(2) -0.0468(3)
O4 O -0.2536(3) -0.0142(2) -0.0379(3)
O5 O 0.5185(3) -0.0509(2) 0.1829(3)
O6 O 0.6593(3) 0.0748(2) 0.1811(3)
O7 O 0.4883(3) -0.2631(2) 0.1481(3)
H9 H 0.4584 -0.2639 0.2246
H10 H 0.5570 -0.3002 0.1430
Gd1C Gd 0.375233(17) -0.366249(12) -0.470565(15)
Gd1_2 Gd -0.624767(17) -0.133751(12) 0.029435(15)
Gd1B Gd -0.375233(17) 0.133751(12) -0.029435(15)
Gd1B_2 Gd 0.624767(17) 0.133751(12) -0.029435(15)
O2C O 0.2303(3) -0.1689(2) 0.2054(2)
O3_2 O 0.6069(3) -0.1435(2) -0.0468(3)
O4B O 0.2536(3) 0.0142(2) 0.0379(3)
O6B O 0.3407(3) -0.0748(2) -0.1811(3)
loop_
_geom_bond_atom_site_label_1
_geom_bond_atom_site_label_2
_geom_bond_site_symmetry_1
_geom_bond_site_symmetry_2
Gd1 N1 1_555 1_555
C1 H1 1_555 1_555
C2 C1 1_555 1_555
C3 C2 1_555 1_555
H2 C3 1_555 1_555
C4 C3 1_555 1_555
H3 C4 1_555 1_555
C5 C4 1_555 1_555
C6 C2 1_555 1_555
C7 C5 1_555 1_555
C8 C9 1_555 1_555
C9 H4 1_555 1_555
C10 C9 1_555 1_555
H5 C10 1_555 1_555
C11 C10 1_555 1_555
H6 C11 1_555 1_555
C12 C11 1_555 1_555
H7 C12 1_555 1_555
C13 C8 1_555 1_555
H8 C13 1_555 1_555
C14 C8 1_555 1_555
N1 C1 1_555 1_555
O1 Gd1 1_555 1_555
O2 C7 1_555 1_555
O3 C6 1_555 1_555
O4 C6 1_555 1_555
O5 Gd1 1_555 1_555
O6 C14 1_555 1_555
O7 Gd1 1_555 1_555
H9 O7 1_555 1_555
H10 O7 1_555 1_555
Gd1C O2 1_555 1_555
Gd1_2 O3 1_555 1_555
Gd1B O4 1_555 1_555
Gd1B_2 O6 1_555 1_555
O2C Gd1 1_555 1_555
O3_2 Gd1 1_555 1_555
O4B Gd1 1_555 1_555
O6B Gd1 1_555 1_555
C5 N1 1_555 1_555
C7 O1 1_555 1_555
C12 C13 1_555 1_555
C14 O5 1_555 1_555

#END
