
#######################################################################
#
#                 Cambridge Crystallographic Data Centre
#                                CCDC 
#
#######################################################################
#
# If this CIF has been generated from an entry in the Cambridge 
# Structural Database, then it will include bibliographic, chemical, 
# crystal, experimental, refinement or atomic coordinate data resulting 
# from the CCDC's data processing and validation procedures.
#
#######################################################################

data_KAYCOE
_symmetry_cell_setting           monoclinic
_symmetry_space_group_name_H-M   'C c'
_symmetry_Int_Tables_number      9
_space_group_name_Hall           'C -2yc'
loop_
_symmetry_equiv_pos_site_id
_symmetry_equiv_pos_as_xyz
1 x,y,z
2 x,-y,1/2+z
3 1/2+x,1/2+y,z
4 1/2+x,1/2-y,1/2+z
_cell_length_a                   10.2526(3)
_cell_length_b                   12.6758(3)
_cell_length_c                   7.5294(3)
_cell_angle_alpha                90
_cell_angle_beta                 106.324(4)
_cell_angle_gamma                90
_cell_volume                     939.074
loop_
_atom_site_label
_atom_site_type_symbol
_atom_site_fract_x
_atom_site_fract_y
_atom_site_fract_z
C1 C -0.0502(6) 0.4095(6) 0.6024(9)
H1 H -0.1251 0.3725 0.6160
C2 C -0.0578(6) 0.5199(5) 0.5956(10)
C3 C -0.1878(6) 0.5720(4) 0.6007(9)
C4 C 0.0577(8) 0.57599(19) 0.5832(12)
H2 H 0.0569 0.6493 0.5779
C5 C 0.1714(7) 0.5203(5) 0.5791(9)
C6 C 0.3031(6) 0.5757(5) 0.5772(9)
C7 C 0.1662(5) 0.4121(5) 0.5773(9)
H3 H 0.2419 0.3751 0.5663
N1 N 0.0555(7) 0.35557(17) 0.5907(13)
O1 O -0.2898(3) 0.5173(4) 0.5902(8)
O2 O -0.1926(5) 0.6719(4) 0.6124(7)
O3 O 0.3063(5) 0.6717(5) 0.5658(7)
O4 O 0.4038(4) 0.5151(4) 0.5857(8)
O5 O -0.0020(5) 0.1734(4) 0.2670(8)
O6 O 0.1193(6) 0.1743(4) 0.9100(9)
Ca1 Ca 0.05722(19) 0.15814(3) 0.5888(4)
H4 H -0.0442 0.2319 0.2659
H5 H -0.0329 0.1181 0.1858
H6 H 0.1807 0.2230 0.9848
H7 H 0.1472 0.1067 0.9406
O1B O 0.2102(3) 0.0173(4) 0.5902(8)
O2B O 0.3074(5) 0.1719(4) 0.6124(7)
O3B O -0.1937(5) 0.1717(5) 0.5658(7)
O4B O -0.0962(4) 0.0151(4) 0.5857(8)
Ca1B Ca -0.44278(19) 0.65814(3) 0.5888(4)
Ca1B_2 Ca 0.55722(19) 0.65814(3) 0.5888(4)
loop_
_geom_bond_atom_site_label_1
_geom_bond_atom_site_label_2
_geom_bond_site_symmetry_1
_geom_bond_site_symmetry_2
C1 H1 1_555 1_555
C2 C1 1_555 1_555
C3 C2 1_555 1_555
C4 C2 1_555 1_555
H2 C4 1_555 1_555
C5 C4 1_555 1_555
C6 C5 1_555 1_555
C7 C5 1_555 1_555
H3 C7 1_555 1_555
N1 C1 1_555 1_555
O1 C3 1_555 1_555
O2 C3 1_555 1_555
O3 C6 1_555 1_555
O4 C6 1_555 1_555
O5 Ca1 1_555 1_555
O6 Ca1 1_555 1_555
Ca1 N1 1_555 1_555
H4 O5 1_555 1_555
H5 O5 1_555 1_555
H6 O6 1_555 1_555
H7 O6 1_555 1_555
O1B Ca1 1_555 1_555
O2B Ca1 1_555 1_555
O3B Ca1 1_555 1_555
O4B Ca1 1_555 1_555
Ca1B O1 1_555 1_555
Ca1B_2 O3 1_555 1_555
C7 N1 1_555 1_555
O2 Ca1B 1_555 1_555
O4 Ca1B_2 1_555 1_555

#END
