
#######################################################################
#
#                 Cambridge Crystallographic Data Centre
#                                CCDC 
#
#######################################################################
#
# If this CIF has been generated from an entry in the Cambridge 
# Structural Database, then it will include bibliographic, chemical, 
# crystal, experimental, refinement or atomic coordinate data resulting 
# from the CCDC's data processing and validation procedures.
#
#######################################################################

data_KAYJIF
_symmetry_cell_setting           monoclinic
_symmetry_space_group_name_H-M   'C 2/c'
_symmetry_Int_Tables_number      15
_space_group_name_Hall           '-C 2yn'
loop_
_symmetry_equiv_pos_site_id
_symmetry_equiv_pos_as_xyz
1 x,y,z
2 -x,y,1/2-z
3 1/2+x,1/2+y,z
4 1/2-x,1/2+y,1/2-z
5 -x,-y,-z
6 x,-y,1/2+z
7 1/2-x,1/2-y,-z
8 1/2+x,1/2-y,1/2+z
_cell_length_a                   31.7502(5)
_cell_length_b                   16.4836(3)
_cell_length_c                   17.7820(3)
_cell_angle_alpha                90
_cell_angle_beta                 121.7610(10)
_cell_angle_gamma                90
_cell_volume                     7912.73
loop_
_atom_site_label
_atom_site_type_symbol
_atom_site_fract_x
_atom_site_fract_y
_atom_site_fract_z
Br1 Br 0.575481(15) 1.07232(2) 0.72124(2)
Mn1 Mn 0.5000 1.07487(4) 0.7500
N1 N 0.54126(11) 1.17347(17) 0.85507(18)
C1 C 0.7385(2) 1.3576(4) 1.2972(7)
H1 H 0.7556 1.3272 1.2776
Br2 Br 0.425045(15) 0.42593(2) 0.07872(2)
Mn2 Mn 0.5000 0.42220(4) 0.2500
N2 N 0.7250(2) 1.3835(4) 1.4159(5)
C2 C 0.7451(3) 1.3428(5) 1.3779(8)
H2 H 0.7659 1.2998 1.4099
N3 N 0.45979(11) 0.97870(16) 0.64154(18)
C3 C 0.6951(3) 1.4434(5) 1.3649(8)
H3 H 0.6799 1.4742 1.3879
N4 N 0.45955(11) 0.51921(16) 0.28183(17)
C4 C 0.6849(2) 1.4630(4) 1.2839(7)
H4 H 0.6639 1.5064 1.2542
N5 N 0.45876(11) 0.32364(16) 0.27786(18)
C5 C 0.7053(2) 1.4197(3) 1.2429(6)
N6 N 0.2713(2) 0.1156(4) 0.4882(5)
C6 C 0.6942(3) 1.4387(5) 1.1532(7)
H5 H 0.7251 1.4524 1.1574
H6 H 0.6736 1.4869 1.1328
C7 C 0.6679(3) 1.3718(4) 1.0808(6)
H7 H 0.6731 1.3844 1.0331
H8 H 0.6844 1.3206 1.1063
C8 C 0.6213(2) 1.3612(3) 1.0470(4)
H9 H 0.6052 1.4124 1.0207
H10 H 0.6164 1.3510 1.0956
C9 C 0.59350(16) 1.2963(2) 0.9789(2)
C10 C 0.54304(16) 1.2938(2) 0.9304(3)
H11 H 0.5251 1.3339 0.9381
C11 C 0.51848(15) 1.2331(2) 0.8705(3)
H12 H 0.4840 1.2334 0.8388
C12 C 0.58995(15) 1.1757(2) 0.9015(2)
H13 H 0.6069 1.1347 0.8924
C13 C 0.61738(15) 1.2347(3) 0.9627(3)
H14 H 0.6518 1.2333 0.9930
C14 C 0.40852(15) 0.8612(2) 0.5831(3)
H15 H 0.3920 0.8194 0.5921
C15 C 0.43474(16) 0.9173(2) 0.6489(3)
H16 H 0.4350 0.9122 0.7013
C16 C 0.45874(14) 0.9835(2) 0.5657(2)
H17 H 0.4763 1.0252 0.5591
C17 C 0.43309(14) 0.9301(2) 0.4969(2)
H18 H 0.4335 0.9365 0.4453
C18 C 0.40658(12) 0.86665(19) 0.5038(2)
C19 C 0.37758(13) 0.8079(2) 0.4296(3)
H19 H 0.3563 0.8383 0.3758
H20 H 0.3564 0.7762 0.4425
C20 C 0.40944(12) 0.75023(19) 0.4132(2)
H21 H 0.4306 0.7191 0.4665
H22 H 0.4305 0.7814 0.3996
C21 C 0.37752(13) 0.6924(2) 0.3370(2)
H23 H 0.3561 0.6625 0.3507
H24 H 0.3566 0.7241 0.2841
C22 C 0.40645(12) 0.63291(19) 0.3177(2)
C23 C 0.43288(13) 0.5697(2) 0.3756(2)
H25 H 0.4333 0.5641 0.4280
C24 C 0.45832(13) 0.5156(2) 0.3556(2)
H26 H 0.4757 0.4741 0.3956
C25 C 0.43477(15) 0.5803(2) 0.2268(2)
H27 H 0.4351 0.5845 0.1750
C26 C 0.40875(14) 0.6372(2) 0.2425(2)
H28 H 0.3926 0.6790 0.2022
C27 C 0.45696(16) 0.2068(2) 0.3544(3)
H29 H 0.4750 0.1685 0.3983
C28 C 0.48144(14) 0.2666(2) 0.3391(3)
H30 H 0.5159 0.2673 0.3735
C29 C 0.40993(15) 0.3191(3) 0.2299(3)
H31 H 0.3929 0.3577 0.1858
C30 C 0.38296(15) 0.2608(3) 0.2414(3)
H32 H 0.3486 0.2607 0.2055
C31 C 0.40674(15) 0.2024(2) 0.3062(3)
C32 C 0.37924(19) 0.1381(3) 0.3248(4)
H33 H 0.3962 0.0867 0.3335
H34 H 0.3818 0.1516 0.3802
C33 C 0.3291(3) 0.1268(4) 0.2607(5)
H35 H 0.3263 0.1098 0.2059
H36 H 0.3120 0.1782 0.2498
C34 C 0.3029(3) 0.0621(4) 0.2874(6)
H37 H 0.2717 0.0481 0.2343
H38 H 0.3232 0.0135 0.3059
C35 C 0.29218(19) 0.0812(3) 0.3569(5)
C36 C 0.3122(2) 0.0367(3) 0.4323(6)
H39 H 0.3333 -0.0064 0.4415
C37 C 0.3010(3) 0.0560(4) 0.4943(6)
H40 H 0.3155 0.0246 0.5454
C38 C 0.2512(3) 0.1571(4) 0.4129(7)
H41 H 0.2296 0.1989 0.4047
C39 C 0.2597(2) 0.1435(4) 0.3483(5)
H42 H 0.2442 0.1753 0.2975
Br1A Br 0.424519(15) 1.07232(2) 0.77876(2)
N1A N 0.45874(11) 1.17347(17) 0.64493(18)
C1A C 0.2615(2) 1.3576(4) 0.2028(7)
H1A H 0.2444 1.3272 0.2224
Br2A Br 0.574955(15) 0.42593(2) 0.42128(2)
Mn2_2 Mn 0.5000 0.42220(4) 1.2500
N2A N 0.2750(2) 1.3835(4) 0.0841(5)
C2A C 0.2549(3) 1.3428(5) 0.1221(8)
H2A H 0.2341 1.2998 0.0901
N3A N 0.54021(11) 0.97870(16) 0.85846(18)
C3A C 0.3049(3) 1.4434(5) 0.1351(8)
H3A H 0.3201 1.4742 0.1121
N4A N 0.54045(11) 0.51921(16) 1.21817(17)
N4A_2 N 0.54045(11) 0.51921(16) 0.21817(17)
C4A C 0.3151(2) 1.4630(4) 0.2161(7)
H4A H 0.3361 1.5064 0.2458
N5A N 0.54124(11) 0.32364(16) 0.22214(18)
C5A C 0.2947(2) 1.4197(3) 0.2571(6)
N6A N 0.7287(2) 0.1156(4) 0.0118(5)
C6A C 0.3058(3) 1.4387(5) 0.3468(7)
H5A H 0.2749 1.4524 0.3426
H6A H 0.3264 1.4869 0.3672
C7A C 0.3321(3) 1.3718(4) 0.4192(6)
H7A H 0.3269 1.3844 0.4669
H8A H 0.3156 1.3206 0.3937
C8A C 0.3787(2) 1.3612(3) 0.4530(4)
H9A H 0.3948 1.4124 0.4793
H10A H 0.3836 1.3510 0.4044
C9A C 0.40650(16) 1.2963(2) 0.5211(2)
C10A C 0.45696(16) 1.2938(2) 0.5696(3)
H11A H 0.4749 1.3339 0.5619
C11A C 0.48152(15) 1.2331(2) 0.6295(3)
H12A H 0.5160 1.2334 0.6612
C12A C 0.41005(15) 1.1757(2) 0.5985(2)
H13A H 0.3931 1.1347 0.6076
C13A C 0.38262(15) 1.2347(3) 0.5373(3)
H14A H 0.3482 1.2333 0.5070
C14A C 0.59148(15) 0.8612(2) 0.9169(3)
H15A H 0.6080 0.8194 0.9079
C15A C 0.56526(16) 0.9173(2) 0.8511(3)
H16A H 0.5650 0.9122 0.7987
C16A C 0.54126(14) 0.9835(2) 0.9343(2)
H17A H 0.5237 1.0252 0.9409
C17A C 0.56691(14) 0.9301(2) 1.0031(2)
H18A H 0.5665 0.9365 1.0547
C18A C 0.59342(12) 0.86665(19) 0.9962(2)
C19A C 0.62242(13) 0.8079(2) 1.0704(3)
H19A H 0.6437 0.8383 1.1242
H20A H 0.6436 0.7762 1.0575
C20A C 0.59056(12) 0.75023(19) 1.0868(2)
H21A H 0.5694 0.7191 1.0335
H22A H 0.5695 0.7814 1.1004
C21A C 0.62248(13) 0.6924(2) 1.1630(2)
H23A H 0.6439 0.6625 1.1493
H24A H 0.6434 0.7241 1.2159
C22A C 0.59355(12) 0.63291(19) 1.1823(2)
C23A C 0.56712(13) 0.5697(2) 1.1244(2)
H25A H 0.5667 0.5641 1.0720
C24A C 0.54168(13) 0.5156(2) 1.1444(2)
H26A H 0.5243 0.4741 1.1044
C25A C 0.56523(15) 0.5803(2) 1.2732(2)
H27A H 0.5649 0.5845 1.3250
C26A C 0.59125(14) 0.6372(2) 1.2575(2)
H28A H 0.6074 0.6790 1.2978
C27A C 0.54304(16) 0.2068(2) 0.1456(3)
H29A H 0.5250 0.1685 0.1017
C28A C 0.51856(14) 0.2666(2) 0.1609(3)
H30A H 0.4841 0.2673 0.1265
C29A C 0.59007(15) 0.3191(3) 0.2701(3)
H31A H 0.6071 0.3577 0.3142
C30A C 0.61704(15) 0.2608(3) 0.2586(3)
H32A H 0.6514 0.2607 0.2945
C31A C 0.59326(15) 0.2024(2) 0.1938(3)
C32A C 0.62076(19) 0.1381(3) 0.1752(4)
H33A H 0.6038 0.0867 0.1665
H34A H 0.6182 0.1516 0.1198
C33A C 0.6709(3) 0.1268(4) 0.2393(5)
H35A H 0.6737 0.1098 0.2941
H36A H 0.6880 0.1782 0.2502
C34A C 0.6971(3) 0.0621(4) 0.2126(6)
H37A H 0.7283 0.0481 0.2657
H38A H 0.6768 0.0135 0.1941
C35A C 0.70782(19) 0.0812(3) 0.1431(5)
C36A C 0.6878(2) 0.0367(3) 0.0677(6)
H39A H 0.6667 -0.0064 0.0585
C37A C 0.6990(3) 0.0560(4) 0.0057(6)
H40A H 0.6845 0.0246 -0.0454
C38A C 0.7488(3) 0.1571(4) 0.0871(7)
H41A H 0.7704 0.1989 0.0953
C39A C 0.7403(2) 0.1435(4) 0.1517(5)
H42A H 0.7558 0.1753 0.2025
O1 O 0.6948(2) 1.1573(4) 0.8281(4)
H43 H 0.6717 1.1182 0.7979
H46 H 0.7106 1.1387 0.8873
O2 O 0.3019(2) 0.3491(4) -0.0513(5)
H44 H 0.3344 0.3620 -0.0303
H45 H 0.2899 0.3662 -0.0178
loop_
_geom_bond_atom_site_label_1
_geom_bond_atom_site_label_2
_geom_bond_site_symmetry_1
_geom_bond_site_symmetry_2
Br1 Mn1 1_555 1_555
Mn1 N1 1_555 1_555
O1 H43 1_555 1_555
N1 C11 1_555 1_555
C1 H1 1_555 1_555
Br2 Mn2 1_555 1_555
Mn2 N4 1_555 1_555
O2 H44 1_555 1_555
N2 C2 1_555 1_555
C2 C1 1_555 1_555
H2 C2 1_555 1_555
N3 Mn1 1_555 1_555
C3 N2 1_555 1_555
H3 C3 1_555 1_555
N4 C24 1_555 1_555
C4 C3 1_555 1_555
H4 C4 1_555 1_555
N5 Mn2 1_555 1_555
C5 C1 1_555 1_555
N6 C37 1_555 1_555
C6 C5 1_555 1_555
H5 C6 1_555 1_555
H6 C6 1_555 1_555
C7 C6 1_555 1_555
H7 C7 1_555 1_555
H8 C7 1_555 1_555
C8 C7 1_555 1_555
H9 C8 1_555 1_555
H10 C8 1_555 1_555
C9 C8 1_555 1_555
C10 C9 1_555 1_555
H11 C10 1_555 1_555
C11 C10 1_555 1_555
H12 C11 1_555 1_555
C12 N1 1_555 1_555
H13 C12 1_555 1_555
C13 C9 1_555 1_555
H14 C13 1_555 1_555
C14 H15 1_555 1_555
C15 N3 1_555 1_555
H16 C15 1_555 1_555
C16 N3 1_555 1_555
H17 C16 1_555 1_555
C17 C16 1_555 1_555
H18 C17 1_555 1_555
C18 C14 1_555 1_555
C19 C18 1_555 1_555
H19 C19 1_555 1_555
H20 C19 1_555 1_555
C20 C19 1_555 1_555
H21 C20 1_555 1_555
H22 C20 1_555 1_555
C21 C20 1_555 1_555
H23 C21 1_555 1_555
H24 C21 1_555 1_555
C22 C21 1_555 1_555
C23 C22 1_555 1_555
H25 C23 1_555 1_555
C24 C23 1_555 1_555
H26 C24 1_555 1_555
C25 N4 1_555 1_555
H27 C25 1_555 1_555
C26 C22 1_555 1_555
H28 C26 1_555 1_555
C27 H29 1_555 1_555
C28 N5 1_555 1_555
H30 C28 1_555 1_555
C29 N5 1_555 1_555
H31 C29 1_555 1_555
C30 C29 1_555 1_555
H32 C30 1_555 1_555
C31 C27 1_555 1_555
C32 C31 1_555 1_555
H33 C32 1_555 1_555
H34 C32 1_555 1_555
C33 C32 1_555 1_555
H35 C33 1_555 1_555
H36 C33 1_555 1_555
C34 C33 1_555 1_555
H37 C34 1_555 1_555
H38 C34 1_555 1_555
C35 C34 1_555 1_555
C36 C35 1_555 1_555
H39 C36 1_555 1_555
C37 C36 1_555 1_555
H40 C37 1_555 1_555
C38 N6 1_555 1_555
H41 C38 1_555 1_555
C39 C35 1_555 1_555
H42 C39 1_555 1_555
H45 O2 1_555 1_555
H46 O1 1_555 1_555
Br1A Mn1 1_555 1_555
N1A Mn1 1_555 1_555
C1A H1A 1_555 1_555
Br2A Mn2 1_555 1_555
Mn2_2 N4A 1_555 1_555
N2A C2A 1_555 1_555
C2A C1A 1_555 1_555
H2A C2A 1_555 1_555
N3A Mn1 1_555 1_555
C3A N2A 1_555 1_555
H3A C3A 1_555 1_555
N4A C24A 1_555 1_555
N4A_2 Mn2 1_555 1_555
C4A C3A 1_555 1_555
H4A C4A 1_555 1_555
N5A Mn2 1_555 1_555
C5A C1A 1_555 1_555
N6A C37A 1_555 1_555
C6A C5A 1_555 1_555
H5A C6A 1_555 1_555
H6A C6A 1_555 1_555
C7A C6A 1_555 1_555
H7A C7A 1_555 1_555
H8A C7A 1_555 1_555
C8A C7A 1_555 1_555
H9A C8A 1_555 1_555
H10A C8A 1_555 1_555
C9A C8A 1_555 1_555
C10A C9A 1_555 1_555
H11A C10A 1_555 1_555
C11A N1A 1_555 1_555
H12A C11A 1_555 1_555
C12A N1A 1_555 1_555
H13A C12A 1_555 1_555
C13A C9A 1_555 1_555
H14A C13A 1_555 1_555
C14A H15A 1_555 1_555
C15A N3A 1_555 1_555
H16A C15A 1_555 1_555
C16A N3A 1_555 1_555
H17A C16A 1_555 1_555
C17A C16A 1_555 1_555
H18A C17A 1_555 1_555
C18A C14A 1_555 1_555
C19A C18A 1_555 1_555
H19A C19A 1_555 1_555
H20A C19A 1_555 1_555
C20A C19A 1_555 1_555
H21A C20A 1_555 1_555
H22A C20A 1_555 1_555
C21A C20A 1_555 1_555
H23A C21A 1_555 1_555
H24A C21A 1_555 1_555
C22A C21A 1_555 1_555
C23A C22A 1_555 1_555
H25A C23A 1_555 1_555
C24A C23A 1_555 1_555
H26A C24A 1_555 1_555
C25A N4A 1_555 1_555
H27A C25A 1_555 1_555
C26A C22A 1_555 1_555
H28A C26A 1_555 1_555
C27A H29A 1_555 1_555
C28A N5A 1_555 1_555
H30A C28A 1_555 1_555
C29A N5A 1_555 1_555
H31A C29A 1_555 1_555
C30A C29A 1_555 1_555
H32A C30A 1_555 1_555
C31A C27A 1_555 1_555
C32A C31A 1_555 1_555
H33A C32A 1_555 1_555
H34A C32A 1_555 1_555
C33A C32A 1_555 1_555
H35A C33A 1_555 1_555
H36A C33A 1_555 1_555
C34A C33A 1_555 1_555
H37A C34A 1_555 1_555
H38A C34A 1_555 1_555
C35A C34A 1_555 1_555
C36A C35A 1_555 1_555
H39A C36A 1_555 1_555
C37A C36A 1_555 1_555
H40A C37A 1_555 1_555
C38A N6A 1_555 1_555
H41A C38A 1_555 1_555
C39A C35A 1_555 1_555
H42A C39A 1_555 1_555
C4 C5 1_555 1_555
C12 C13 1_555 1_555
C14 C15 1_555 1_555
C17 C18 1_555 1_555
C25 C26 1_555 1_555
C27 C28 1_555 1_555
C30 C31 1_555 1_555
C38 C39 1_555 1_555
C4A C5A 1_555 1_555
C10A C11A 1_555 1_555
C12A C13A 1_555 1_555
C14A C15A 1_555 1_555
C17A C18A 1_555 1_555
C25A C26A 1_555 1_555
C27A C28A 1_555 1_555
C30A C31A 1_555 1_555
C38A C39A 1_555 1_555

#END
