
#######################################################################
#
#                 Cambridge Crystallographic Data Centre
#                                CCDC 
#
#######################################################################
#
# If this CIF has been generated from an entry in the Cambridge 
# Structural Database, then it will include bibliographic, chemical, 
# crystal, experimental, refinement or atomic coordinate data resulting 
# from the CCDC's data processing and validation procedures.
#
#######################################################################

data_KAYJUR
_symmetry_cell_setting           monoclinic
_symmetry_space_group_name_H-M   'P 21'
_symmetry_Int_Tables_number      4
_space_group_name_Hall           'P 2yb'
loop_
_symmetry_equiv_pos_site_id
_symmetry_equiv_pos_as_xyz
1 x,y,z
2 -x,1/2+y,-z
_cell_length_a                   11.1368(11)
_cell_length_b                   17.2650(16)
_cell_length_c                   11.9320(13)
_cell_angle_alpha                90
_cell_angle_beta                 111.7800(10)
_cell_angle_gamma                90
_cell_volume                     2130.47
loop_
_atom_site_label
_atom_site_type_symbol
_atom_site_fract_x
_atom_site_fract_y
_atom_site_fract_z
Mn1 Mn 0.71292(9) 0.20729(5) 0.93469(8)
N1 N 0.9030(5) 0.2163(3) 0.8967(4)
N2 N 0.8181(5) 0.2231(3) 0.1391(4)
N3 N 0.5197(5) 0.1976(3) 0.9639(4)
N4 N 0.6056(5) 0.2000(4) 1.7278(4)
O1 O 0.6991(5) 0.3348(3) 0.9279(4)
H1 H 0.6905 0.3533 0.9905
H2 H 0.6371 0.3502 0.8654
O2 O 0.7415(5) 0.0841(3) 0.9666(4)
H3 H 0.8105 0.0753 1.0270
H4 H 0.7459 0.0613 0.9051
C1 C 0.9497(7) 0.1543(4) 0.8633(6)
H7 H 0.9204 0.1064 0.8783
C2 C 1.0370(7) 0.1542(5) 0.8088(6)
H8 H 1.0645 0.1081 0.7859
C3 C 1.0854(6) 0.2267(4) 0.7878(5)
C4 C 1.0429(7) 0.2903(5) 0.8274(6)
H9 H 1.0764 0.3384 0.8194
C5 C 0.9524(7) 0.2863(4) 0.8789(6)
H10 H 0.9234 0.3317 0.9025
C6 C 0.9292(7) 0.2627(5) 0.1838(6)
H11 H 0.9663 0.2805 0.1305
C7 C 0.9911(8) 0.2783(6) 0.3047(7)
H12 H 1.0683 0.3059 0.3301
C8 C 0.9428(7) 0.2545(4) 0.3876(6)
C9 C 0.8298(9) 0.2137(7) 0.3440(7)
H13 H 0.7919 0.1964 0.3970
C10 C 0.7706(9) 0.1977(7) 0.2216(7)
H14 H 0.6952 0.1684 0.1953
C11 C 1.1772(7) 0.2286(5) 0.7200(6)
H15 H 1.2458 0.1912 0.7559
H16 H 1.2165 0.2795 0.7288
C12 C 1.1097(7) 0.2103(5) 0.5845(6)
H17 H 1.0672 0.1603 0.5750
H18 H 1.1739 0.2073 0.5476
C13 C 1.0084(8) 0.2731(5) 0.5193(7)
H19 H 0.9442 0.2763 0.5563
H20 H 1.0508 0.3231 0.5283
C14 C 0.4858(7) 0.1295(4) 0.9993(7)
H21 H 0.5241 0.0843 0.9863
C15 C 0.3958(7) 0.1246(5) 1.0543(7)
H22 H 0.3756 0.0763 1.0770
C16 C 0.3358(6) 0.1895(5) 1.0759(5)
C17 C 0.3695(7) 0.2605(4) 1.0357(6)
H23 H 0.3318 0.3066 1.0464
C18 C 0.4594(7) 0.2608(4) 0.9800(6)
H24 H 0.4784 0.3078 0.9524
C19 C 0.6434(7) 0.1591(5) 1.6537(6)
H25 H 0.7110 0.1243 1.6877
C20 C 0.5908(7) 0.1638(6) 1.5299(6)
H26 H 0.6200 0.1320 1.4824
C21 C 0.4912(7) 0.2183(5) 1.4768(5)
C22 C 0.4505(7) 0.2601(5) 1.5520(6)
H27 H 0.3843 0.2960 1.5204
C23 C 0.5066(7) 0.2498(5) 1.6756(6)
H28 H 0.4750 0.2782 1.7249
C24 C 0.2511(6) 0.1888(5) 1.1479(6)
H29 H 0.1839 0.1502 1.1146
H30 H 0.2095 0.2389 1.1410
C25 C 0.3252(7) 0.1710(5) 1.2801(6)
H31 H 0.2655 0.1711 1.3222
H32 H 0.3621 0.1195 1.2872
C26 C 0.4323(7) 0.2285(6) 1.3400(6)
H33 H 0.3981 0.2807 1.3214
H34 H 0.4994 0.2223 1.3072
Mn1_2 Mn 0.71292(9) 0.20729(5) -0.06531(8)
Mn1_3 Mn 0.71292(9) 0.20729(5) 1.93469(8)
N2_2 N 0.8181(5) 0.2231(3) 1.1391(4)
N4_2 N 0.6056(5) 0.2000(4) 0.7278(4)
Cl1 Cl 0.40365(18) 0.45921(11) 0.73381(16)
O4 O 0.3149(9) 0.4097(5) 0.6501(9)
O5 O 0.5350(6) 0.4411(5) 0.7519(7)
O6 O 0.3725(8) 0.5379(4) 0.6986(8)
O7 O 0.3850(10) 0.4451(8) 0.8418(9)
I1 I 0.19721(7) 0.43179(4) 0.20085(7)
N5 N 0.7021(8) 0.4252(4) 0.1139(6)
N6 N 1.0562(7) 0.5275(4) 0.8460(7)
C27 C 0.8076(9) 0.4514(4) 0.2025(8)
H35 H 0.8877 0.4437 0.1966
C28 C 0.8029(8) 0.4896(5) 0.3032(7)
H36 H 0.8784 0.5089 0.3613
C29 C 0.6822(7) 0.4993(4) 0.3176(8)
C30 C 0.5751(8) 0.4702(5) 0.2246(7)
H37 H 0.4933 0.4742 0.2281
C31 C 0.5907(9) 0.4349(6) 0.1262(7)
H38 H 0.5169 0.4169 0.0645
C32 C 1.0641(9) 0.5103(6) 0.7370(8)
H39 H 1.1393 0.5218 0.7238
C33 C 0.9609(9) 0.4757(6) 0.6460(8)
H40 H 0.9677 0.4651 0.5722
C34 C 0.8504(8) 0.4572(4) 0.6629(6)
C35 C 0.8458(8) 0.4764(6) 0.7728(8)
H41 H 0.7713 0.4659 0.7881
C36 C 0.9505(8) 0.5112(5) 0.8615(7)
H42 H 0.9441 0.5233 0.9351
C37 C 0.6698(8) 0.5376(5) 0.4254(7)
H43 H 0.6055 0.5785 0.3988
H44 H 0.7517 0.5611 0.4741
C38 C 0.6305(8) 0.4796(6) 0.5014(7)
H45 H 0.6073 0.5078 0.5607
H46 H 0.5541 0.4522 0.4495
C39 C 0.7325(9) 0.4215(5) 0.5656(7)
H47 H 0.7599 0.3955 0.5071
H48 H 0.6956 0.3829 0.6024
O3 O 0.8704(8) 0.0294(8) 0.5489(8)
H5 H 0.8033 0.0306 0.4845
H6 H 0.8511 0.0069 0.6034
loop_
_geom_bond_atom_site_label_1
_geom_bond_atom_site_label_2
_geom_bond_site_symmetry_1
_geom_bond_site_symmetry_2
Mn1 N1 1_555 1_555
Cl1 O4 1_555 1_555
N1 C1 1_555 1_555
N2 C6 1_555 1_555
N3 Mn1 1_555 1_555
N4 C19 1_555 1_555
N5 C27 1_555 1_555
N6 C32 1_555 1_555
O1 Mn1 1_555 1_555
H1 O1 1_555 1_555
H2 O1 1_555 1_555
O2 Mn1 1_555 1_555
H3 O2 1_555 1_555
H4 O2 1_555 1_555
O3 H5 1_555 1_555
H6 O3 1_555 1_555
O5 Cl1 1_555 1_555
O6 Cl1 1_555 1_555
O7 Cl1 1_555 1_555
C1 H7 1_555 1_555
C2 C1 1_555 1_555
H8 C2 1_555 1_555
C3 C2 1_555 1_555
C4 C3 1_555 1_555
H9 C4 1_555 1_555
C5 N1 1_555 1_555
H10 C5 1_555 1_555
C6 H11 1_555 1_555
C7 C6 1_555 1_555
H12 C7 1_555 1_555
C8 C7 1_555 1_555
C9 C8 1_555 1_555
H13 C9 1_555 1_555
C10 N2 1_555 1_555
H14 C10 1_555 1_555
C11 C3 1_555 1_555
H15 C11 1_555 1_555
H16 C11 1_555 1_555
C12 C11 1_555 1_555
H17 C12 1_555 1_555
H18 C12 1_555 1_555
C13 C8 1_555 1_555
H19 C13 1_555 1_555
H20 C13 1_555 1_555
C14 N3 1_555 1_555
H21 C14 1_555 1_555
C15 C14 1_555 1_555
H22 C15 1_555 1_555
C16 C15 1_555 1_555
C17 C16 1_555 1_555
H23 C17 1_555 1_555
C18 N3 1_555 1_555
H24 C18 1_555 1_555
C19 H25 1_555 1_555
C20 C19 1_555 1_555
H26 C20 1_555 1_555
C21 C20 1_555 1_555
C22 C21 1_555 1_555
H27 C22 1_555 1_555
C23 N4 1_555 1_555
H28 C23 1_555 1_555
C24 C16 1_555 1_555
H29 C24 1_555 1_555
H30 C24 1_555 1_555
C25 C24 1_555 1_555
H31 C25 1_555 1_555
H32 C25 1_555 1_555
C26 C21 1_555 1_555
H33 C26 1_555 1_555
H34 C26 1_555 1_555
C27 H35 1_555 1_555
C28 C27 1_555 1_555
H36 C28 1_555 1_555
C29 C28 1_555 1_555
C30 C29 1_555 1_555
H37 C30 1_555 1_555
C31 N5 1_555 1_555
H38 C31 1_555 1_555
C32 H39 1_555 1_555
C33 C32 1_555 1_555
H40 C33 1_555 1_555
C34 C33 1_555 1_555
C35 C34 1_555 1_555
H41 C35 1_555 1_555
C36 N6 1_555 1_555
H42 C36 1_555 1_555
C37 C29 1_555 1_555
H43 C37 1_555 1_555
H44 C37 1_555 1_555
C38 C37 1_555 1_555
H45 C38 1_555 1_555
H46 C38 1_555 1_555
C39 C34 1_555 1_555
H47 C39 1_555 1_555
H48 C39 1_555 1_555
Mn1_2 N2 1_555 1_555
Mn1_3 N4 1_555 1_555
N2_2 Mn1 1_555 1_555
N4_2 Mn1 1_555 1_555
C4 C5 1_555 1_555
C9 C10 1_555 1_555
C12 C13 1_555 1_555
C17 C18 1_555 1_555
C22 C23 1_555 1_555
C25 C26 1_555 1_555
C30 C31 1_555 1_555
C35 C36 1_555 1_555
C38 C39 1_555 1_555

#END
