
#######################################################################
#
#                 Cambridge Crystallographic Data Centre
#                                CCDC 
#
#######################################################################
#
# If this CIF has been generated from an entry in the Cambridge 
# Structural Database, then it will include bibliographic, chemical, 
# crystal, experimental, refinement or atomic coordinate data resulting 
# from the CCDC's data processing and validation procedures.
#
#######################################################################

data_KAYLED
_symmetry_cell_setting           monoclinic
_symmetry_space_group_name_H-M   'P 21/n'
_symmetry_Int_Tables_number      14
_space_group_name_Hall           '-P 2yn'
loop_
_symmetry_equiv_pos_site_id
_symmetry_equiv_pos_as_xyz
1 x,y,z
2 1/2-x,1/2+y,1/2-z
3 -x,-y,-z
4 1/2+x,1/2-y,1/2+z
_cell_length_a                   14.856(3)
_cell_length_b                   18.083(4)
_cell_length_c                   14.927(3)
_cell_angle_alpha                90
_cell_angle_beta                 91.073(4)
_cell_angle_gamma                90
_cell_volume                     4009.3
loop_
_atom_site_label
_atom_site_type_symbol
_atom_site_fract_x
_atom_site_fract_y
_atom_site_fract_z
Fe1 Fe 0.85198(7) 0.73989(5) 0.19611(6)
Mn1 Mn 1.10221(8) 0.78984(6) -0.05314(7)
Cl1 Cl 1.29537(16) 0.71395(18) 0.39318(18)
Cl2 Cl 0.4387(2) 0.8756(2) -0.0068(2)
O1 O 0.7906(3) 0.8303(3) 0.1700(3)
O2 O 0.9289(3) 0.7922(2) 0.2749(3)
N1 N 0.9846(4) 0.7754(3) 0.0414(4)
N2 N 0.7224(5) 0.7092(4) 0.3538(5)
N3 N 0.7744(4) 0.6829(3) 0.1212(4)
N4 N 0.9111(4) 0.6478(3) 0.2182(4)
N5 N 1.0707(4) 0.9047(3) -0.0990(4)
N6 N 1.1695(4) 0.8768(6) 0.0402(4)
N7 N 1.1877(7) 0.7325(8) 0.0602(12)
H5 H 1.1426 0.7279 0.1002
N8 N 1.0867(13) 0.6668(5) -0.0890(9)
H6 H 1.1338 0.6669 -0.1271
N9 N 1.0138(5) 0.7863(5) -0.1782(5)
C1 C 0.9351(5) 0.7607(4) 0.0964(5)
C2 C 0.7695(5) 0.7209(4) 0.2959(5)
C3 C 0.6631(5) 0.7766(5) 0.0916(5)
C4 C 0.7108(6) 0.8344(5) 0.1334(5)
C5 C 0.6695(6) 0.9060(5) 0.1297(7)
H7 H 0.6996 0.9461 0.1553
C6 C 0.5880(7) 0.9169(6) 0.0900(7)
H8 H 0.5626 0.9639 0.0906
C7 C 0.5420(7) 0.8603(8) 0.0489(7)
C8 C 0.5784(6) 0.7905(6) 0.0486(6)
H9 H 0.5476 0.7521 0.0202
C9 C 0.6994(6) 0.7045(5) 0.0866(5)
H10 H 0.6656 0.6695 0.0551
C10 C 1.0446(5) 0.6994(4) 0.2893(5)
C11 C 1.0132(5) 0.7721(4) 0.2967(4)
C12 C 1.0717(6) 0.8255(5) 0.3327(5)
H11 H 1.0519 0.8739 0.3387
C13 C 1.1586(5) 0.8073(5) 0.3596(5)
H12 H 1.1973 0.8438 0.3813
C14 C 1.1873(5) 0.7361(6) 0.3541(5)
C15 C 1.1332(5) 0.6815(5) 0.3211(5)
H13 H 1.1537 0.6329 0.3193
C16 C 0.9903(5) 0.6400(4) 0.2569(5)
H14 H 1.0126 0.5923 0.2638
C17 C 0.8074(7) 0.6073(5) 0.1056(6)
H15 H 0.8462 0.6060 0.0541
H16 H 0.7575 0.5737 0.0951
C18 C 0.8590(6) 0.5861(5) 0.1893(6)
H17 H 0.8177 0.5718 0.2357
H18 H 0.8982 0.5445 0.1773
C19 C 1.1043(5) 0.9634(5) -0.0563(5)
C20 C 1.0872(8) 1.0350(6) -0.0817(8)
H19 H 1.1115 1.0749 -0.0503
C21 C 1.0322(9) 1.0446(6) -0.1558(10)
H20 H 1.0174 1.0924 -0.1737
C22 C 0.9986(8) 0.9863(6) -0.2040(8)
H21 H 0.9642 0.9939 -0.2559
C23 C 1.0176(5) 0.9151(5) -0.1731(5)
C24 C 1.1634(6) 0.9436(7) 0.0202(5)
C25 C 1.2124(9) 1.0046(8) 0.0727(8)
H22 H 1.2165 0.9911 0.1348
H23 H 1.1796 1.0501 0.0665
H24 H 1.2718 1.0108 0.0496
C26 C 0.9895(6) 0.8452(6) -0.2164(6)
C27 C 0.9322(9) 0.8515(9) -0.3040(7)
H25 H 0.9270 0.8037 -0.3316
H26 H 0.9608 0.8851 -0.3443
H27 H 0.8733 0.8697 -0.2903
C28 C 0.9923(8) 0.7100(6) -0.2163(8)
H28 H 0.9278 0.7035 -0.2238
H29 H 1.0203 0.7033 -0.2739
C29 C 1.0292(14) 0.6567(10) -0.1502(17)
H30 H 0.9770 0.6369 -0.1204
H31 H 1.0528 0.6164 -0.1857
C30 C 1.2368(16) 0.7779(14) 0.1081(13)
H32 H 1.2983 0.7703 0.0893
H33 H 1.2342 0.7599 0.1692
C31 C 1.2261(8) 0.8514(10) 0.1134(8)
H34 H 1.2843 0.8755 0.1111
H35 H 1.1988 0.8641 0.1699
C32 C 1.1933(16) 0.6592(12) 0.0427(12)
H36 H 1.1856 0.6337 0.0991
H37 H 1.2544 0.6495 0.0240
C33 C 1.1279(13) 0.6225(9) -0.0275(17)
H38 H 1.1618 0.5856 -0.0598
H39 H 1.0813 0.5967 0.0047
Mn1C Mn 0.60221(8) 0.71016(6) 0.44686(7)
N2C N 1.2224(5) 0.7908(4) -0.1462(5)
Cl3 Cl 0.6693(4) 0.0249(2) 0.6732(3)
O3 O 0.7281(14) -0.0241(11) 0.7061(13)
O4 O 0.6685(9) 0.0966(6) 0.6982(17)
O5 O 0.700(3) 0.0402(13) 0.5886(10)
O7 O 0.5963(11) -0.0166(10) 0.6401(13)
O8 O 0.6839(16) 0.4273(9) 0.1609(15)
H1 H 0.6855 0.4531 0.2112
H2 H 0.7406 0.4094 0.1585
O9 O 0.575(2) 0.4937(16) 0.991(2)
H3 H 0.6292 0.4822 0.9772
H4 H 0.5771 0.5392 1.0109
O6? O 0.6196(16) 0.0250(15) 0.7600(14)
loop_
_geom_bond_atom_site_label_1
_geom_bond_atom_site_label_2
_geom_bond_site_symmetry_1
_geom_bond_site_symmetry_2
Fe1 O1 1_555 1_555
Mn1 N1 1_555 1_555
Cl1 C14 1_555 1_555
Cl2 C7 1_555 1_555
Cl3 O3 1_555 1_555
O1 C4 1_555 1_555
O2 Fe1 1_555 1_555
O4 Cl3 1_555 1_555
O5 Cl3 1_555 1_555
O7 Cl3 1_555 1_555
O8 H1 1_555 1_555
H2 O8 1_555 1_555
O9 H3 1_555 1_555
H4 O9 1_555 1_555
N1 C1 1_555 1_555
N2 C2 1_555 1_555
N3 Fe1 1_555 1_555
N4 Fe1 1_555 1_555
N5 Mn1 1_555 1_555
N6 Mn1 1_555 1_555
N7 Mn1 1_555 1_555
H5 N7 1_555 1_555
N8 Mn1 1_555 1_555
H6 N8 1_555 1_555
N9 Mn1 1_555 1_555
C1 Fe1 1_555 1_555
C2 Fe1 1_555 1_555
C3 C4 1_555 1_555
C4 C5 1_555 1_555
C5 H7 1_555 1_555
C6 C5 1_555 1_555
H8 C6 1_555 1_555
C7 C6 1_555 1_555
C8 C3 1_555 1_555
H9 C8 1_555 1_555
C9 N3 1_555 1_555
H10 C9 1_555 1_555
C10 C11 1_555 1_555
C11 O2 1_555 1_555
C12 C11 1_555 1_555
H11 C12 1_555 1_555
C13 C12 1_555 1_555
H12 C13 1_555 1_555
C14 C13 1_555 1_555
C15 C10 1_555 1_555
H13 C15 1_555 1_555
C16 N4 1_555 1_555
H14 C16 1_555 1_555
C17 N3 1_555 1_555
H15 C17 1_555 1_555
H16 C17 1_555 1_555
C18 N4 1_555 1_555
H17 C18 1_555 1_555
H18 C18 1_555 1_555
C19 N5 1_555 1_555
C20 C19 1_555 1_555
H19 C20 1_555 1_555
C21 C20 1_555 1_555
H20 C21 1_555 1_555
C22 C21 1_555 1_555
H21 C22 1_555 1_555
C23 N5 1_555 1_555
C24 N6 1_555 1_555
C25 C24 1_555 1_555
H22 C25 1_555 1_555
H23 C25 1_555 1_555
H24 C25 1_555 1_555
C26 N9 1_555 1_555
C27 C26 1_555 1_555
H25 C27 1_555 1_555
H26 C27 1_555 1_555
H27 C27 1_555 1_555
C28 N9 1_555 1_555
H28 C28 1_555 1_555
H29 C28 1_555 1_555
C29 N8 1_555 1_555
H30 C29 1_555 1_555
H31 C29 1_555 1_555
C30 N7 1_555 1_555
H32 C30 1_555 1_555
H33 C30 1_555 1_555
C31 N6 1_555 1_555
H34 C31 1_555 1_555
H35 C31 1_555 1_555
C32 N7 1_555 1_555
H36 C32 1_555 1_555
H37 C32 1_555 1_555
C33 N8 1_555 1_555
H38 C33 1_555 1_555
H39 C33 1_555 1_555
Mn1C N2 1_555 1_555
N2C Mn1 1_555 1_555
C3 C9 1_555 1_555
C7 C8 1_555 1_555
C10 C16 1_555 1_555
C14 C15 1_555 1_555
C17 C18 1_555 1_555
C19 C24 1_555 1_555
C22 C23 1_555 1_555
C23 C26 1_555 1_555
C28 C29 1_555 1_555
C30 C31 1_555 1_555
C32 C33 1_555 1_555

#END
