
#######################################################################
#
#                 Cambridge Crystallographic Data Centre
#                                CCDC 
#
#######################################################################
#
# If this CIF has been generated from an entry in the Cambridge 
# Structural Database, then it will include bibliographic, chemical, 
# crystal, experimental, refinement or atomic coordinate data resulting 
# from the CCDC's data processing and validation procedures.
#
#######################################################################

data_KAYLIH
_symmetry_cell_setting           monoclinic
_symmetry_space_group_name_H-M   'P 21/n'
_symmetry_Int_Tables_number      14
_space_group_name_Hall           '-P 2yn'
loop_
_symmetry_equiv_pos_site_id
_symmetry_equiv_pos_as_xyz
1 x,y,z
2 1/2-x,1/2+y,1/2-z
3 -x,-y,-z
4 1/2+x,1/2-y,1/2+z
_cell_length_a                   14.908(9)
_cell_length_b                   18.264(11)
_cell_length_c                   14.955(9)
_cell_angle_alpha                90
_cell_angle_beta                 90.30
_cell_angle_gamma                90
_cell_volume                     4071.89
loop_
_atom_site_label
_atom_site_type_symbol
_atom_site_fract_x
_atom_site_fract_y
_atom_site_fract_z
Fe1 Fe 0.69633(10) 0.24067(7) 0.14557(8)
Mn1 Mn 0.94509(11) 0.20807(8) 0.39681(10)
Cl1 Cl 0.8908(2) 0.2131(2) -0.29782(19)
Cl2 Cl 0.4949(3) 0.3782(3) 0.5558(2)
O1 O 0.7771(4) 0.2912(3) 0.0677(4)
O2 O 0.6722(5) 0.3296(4) 0.2074(5)
O7 O 1.0631(12) 0.2659(10) 0.3122(8)
O8 O 0.9098(10) 0.3310(7) 0.4121(14)
N1 N 0.8515(6) 0.2061(5) 0.2756(6)
N2 N 0.5403(6) 0.2772(5) 0.0135(6)
N3 N 0.7173(6) 0.1493(4) 0.0854(6)
N4 N 0.6190(6) 0.1843(5) 0.2221(6)
N5 N 0.8980(7) 0.0937(5) 0.4297(6)
N6 N 1.0369(6) 0.1209(7) 0.3310(6)
N7 N 0.8202(7) 0.2124(6) 0.4876(6)
C1 C 0.7963(7) 0.2206(5) 0.2271(6)
C2 C 0.5974(7) 0.2622(5) 0.0621(6)
C3 C 0.7902(6) 0.1988(5) -0.0457(7)
C4 C 0.7983(6) 0.2712(6) -0.0154(7)
C5 C 0.8321(7) 0.3228(6) -0.0745(8)
H1 H 0.8359 0.3712 -0.0554
C6 C 0.8602(7) 0.3065(7) -0.1595(8)
H2 H 0.8837 0.3427 -0.1962
C7 C 0.8528(8) 0.2359(8) -0.1892(7)
C8 C 0.8186(7) 0.1809(6) -0.1338(7)
H3 H 0.8144 0.1330 -0.1544
C9 C 0.7550(7) 0.1394(6) 0.0073(7)
H4 H 0.7593 0.0920 -0.0150
C10 C 0.5920(8) 0.2789(7) 0.3333(8)
C11 C 0.6334(8) 0.3354(6) 0.2879(8)
C12 C 0.6333(9) 0.4062(7) 0.3287(9)
H5 H 0.6620 0.4443 0.2991
C13 C 0.5941(11) 0.4210(9) 0.4076(11)
H6 H 0.5958 0.4680 0.4317
C14 C 0.5505(9) 0.3637(12) 0.4526(9)
C15 C 0.5484(8) 0.2947(10) 0.4191(9)
H7 H 0.5196 0.2575 0.4503
C16 C 0.5853(7) 0.2078(7) 0.2964(8)
H8 H 0.5527 0.1739 0.3294
C17 C 0.6859(9) 0.0861(6) 0.1394(7)
H9 H 0.7318 0.0714 0.1820
H10 H 0.6721 0.0448 0.1010
C18 C 0.6028(9) 0.1115(6) 0.1877(8)
H11 H 0.5521 0.1122 0.1468
H12 H 0.5892 0.0783 0.2364
C19 C 0.9405(9) 0.0359(7) 0.3981(7)
C20 C 0.9130(10) -0.0368(6) 0.4135(8)
H13 H 0.9429 -0.0770 0.3897
C21 C 0.8399(12) -0.0431(9) 0.4655(10)
H14 H 0.8194 -0.0898 0.4794
C22 C 0.7965(10) 0.0130(9) 0.4973(10)
H15 H 0.7453 0.0055 0.5314
C23 C 0.8256(9) 0.0838(6) 0.4809(7)
C24 C 0.7816(8) 0.1556(8) 0.5119(7)
C25 C 0.6936(10) 0.1482(10) 0.5668(12)
H16 H 0.6778 0.1949 0.5914
H17 H 0.7026 0.1136 0.6143
H18 H 0.6461 0.1313 0.5283
C26 C 0.7852(11) 0.2866(9) 0.5071(10)
H19 H 0.7281 0.2940 0.4769
H20 H 0.7760 0.2923 0.5709
C27 C 0.850(2) 0.3393(11) 0.4761(13)
H21 H 0.8148 0.3819 0.4588
H22 H 0.8836 0.3536 0.5287
C28 C 0.972(2) 0.3768(10) 0.3686(14)
H23 H 1.0083 0.4007 0.4141
H24 H 0.9387 0.4148 0.3376
C29 C 1.0342(18) 0.3416(12) 0.3028(16)
H25 H 1.0061 0.3459 0.2444
H26 H 1.0881 0.3713 0.3012
C30 C 1.1008(16) 0.2163(12) 0.2514(16)
H27 H 1.0642 0.2182 0.1976
H28 H 1.1593 0.2354 0.2356
C31 C 1.1120(9) 0.1462(9) 0.2712(9)
H29 H 1.1692 0.1393 0.3013
H30 H 1.1123 0.1173 0.2167
C32 C 1.0199(9) 0.0537(9) 0.3389(8)
C33 C 1.0652(9) -0.0099(9) 0.2942(12)
H31 H 1.0239 -0.0330 0.2536
H32 H 1.0841 -0.0446 0.3387
H33 H 1.1165 0.0073 0.2618
Mn1C Mn 0.44509(11) 0.29193(8) -0.10319(10)
N2C N 1.0403(6) 0.2228(5) 0.5135(6)
Cl3 Cl 0.3273(3) 0.0257(2) 0.1706(4)
O3 O 0.2986(13) 0.0951(7) 0.1717(10)
O4 O 0.3671(19) -0.0060(11) 0.0939(13)
O5 O 0.4096(19) 0.0462(19) 0.191(3)
O6 O 0.2947(17) -0.0187(11) 0.2232(16)
loop_
_geom_bond_atom_site_label_1
_geom_bond_atom_site_label_2
_geom_bond_site_symmetry_1
_geom_bond_site_symmetry_2
Fe1 O1 1_555 1_555
Mn1 O7 1_555 1_555
Cl1 C7 1_555 1_555
Cl2 C14 1_555 1_555
Cl3 O3 1_555 1_555
O1 C4 1_555 1_555
O2 Fe1 1_555 1_555
O4 Cl3 1_555 1_555
O5 Cl3 1_555 1_555
O6 Cl3 1_555 1_555
O7 C29 1_555 1_555
O8 Mn1 1_555 1_555
N1 Mn1 1_555 1_555
N2 C2 1_555 1_555
N3 Fe1 1_555 1_555
N4 Fe1 1_555 1_555
N5 Mn1 1_555 1_555
N6 Mn1 1_555 1_555
N7 Mn1 1_555 1_555
C1 Fe1 1_555 1_555
C2 Fe1 1_555 1_555
C3 C4 1_555 1_555
C4 C5 1_555 1_555
C5 H1 1_555 1_555
C6 C5 1_555 1_555
H2 C6 1_555 1_555
C7 C6 1_555 1_555
C8 C3 1_555 1_555
H3 C8 1_555 1_555
C9 N3 1_555 1_555
H4 C9 1_555 1_555
C10 C11 1_555 1_555
C11 O2 1_555 1_555
C12 C11 1_555 1_555
H5 C12 1_555 1_555
C13 C12 1_555 1_555
H6 C13 1_555 1_555
C14 C13 1_555 1_555
C15 C10 1_555 1_555
H7 C15 1_555 1_555
C16 N4 1_555 1_555
H8 C16 1_555 1_555
C17 N3 1_555 1_555
H9 C17 1_555 1_555
H10 C17 1_555 1_555
C18 N4 1_555 1_555
H11 C18 1_555 1_555
H12 C18 1_555 1_555
C19 N5 1_555 1_555
C20 C19 1_555 1_555
H13 C20 1_555 1_555
C21 C20 1_555 1_555
H14 C21 1_555 1_555
C22 C21 1_555 1_555
H15 C22 1_555 1_555
C23 N5 1_555 1_555
C24 N7 1_555 1_555
C25 C24 1_555 1_555
H16 C25 1_555 1_555
H17 C25 1_555 1_555
H18 C25 1_555 1_555
C26 N7 1_555 1_555
H19 C26 1_555 1_555
H20 C26 1_555 1_555
C27 O8 1_555 1_555
H21 C27 1_555 1_555
H22 C27 1_555 1_555
C28 O8 1_555 1_555
H23 C28 1_555 1_555
H24 C28 1_555 1_555
C29 C28 1_555 1_555
H25 C29 1_555 1_555
H26 C29 1_555 1_555
C30 O7 1_555 1_555
H27 C30 1_555 1_555
H28 C30 1_555 1_555
C31 N6 1_555 1_555
H29 C31 1_555 1_555
H30 C31 1_555 1_555
C32 N6 1_555 1_555
C33 C32 1_555 1_555
H31 C33 1_555 1_555
H32 C33 1_555 1_555
H33 C33 1_555 1_555
Mn1C N2 1_555 1_555
N2C Mn1 1_555 1_555
N1 C1 1_555 1_555
C3 C9 1_555 1_555
C7 C8 1_555 1_555
C10 C16 1_555 1_555
C14 C15 1_555 1_555
C17 C18 1_555 1_555
C19 C32 1_555 1_555
C22 C23 1_555 1_555
C23 C24 1_555 1_555
C26 C27 1_555 1_555
C30 C31 1_555 1_555

#END
