
#######################################################################
#
#                 Cambridge Crystallographic Data Centre
#                                CCDC 
#
#######################################################################
#
# If this CIF has been generated from an entry in the Cambridge 
# Structural Database, then it will include bibliographic, chemical, 
# crystal, experimental, refinement or atomic coordinate data resulting 
# from the CCDC's data processing and validation procedures.
#
#######################################################################

data_KAYLON
_symmetry_cell_setting           monoclinic
_symmetry_space_group_name_H-M   'P 21'
_symmetry_Int_Tables_number      4
_space_group_name_Hall           'P 2yb'
loop_
_symmetry_equiv_pos_site_id
_symmetry_equiv_pos_as_xyz
1 x,y,z
2 -x,1/2+y,-z
_cell_length_a                   11.28680(10)
_cell_length_b                   7.73120(10)
_cell_length_c                   12.2914(2)
_cell_angle_alpha                90
_cell_angle_beta                 102.0460(10)
_cell_angle_gamma                90
_cell_volume                     1048.94
loop_
_atom_site_label
_atom_site_type_symbol
_atom_site_fract_x
_atom_site_fract_y
_atom_site_fract_z
Fe1 Fe 0.89429(3) 0.65699(5) 0.70256(2)
K1 K 0.99514(6) 1.02054(8) 0.55903(5)
Cl1 Cl 0.35363(7) 0.61008(14) 0.28265(7)
Cl2 Cl 1.50958(7) 0.76479(16) 0.99296(8)
O1 O 0.82603(15) 0.7701(3) 0.56573(14)
O2 O 1.05145(14) 0.6836(3) 0.66872(12)
O3 O 1.1112(3) 1.2053(5) 0.7547(3)
H1 H 1.0492 1.1972 0.7947
N1 N 0.8633(2) 0.3096(4) 0.5723(2)
N2 N 0.9256(2) 1.0107(4) 0.8288(2)
N3 N 0.73957(18) 0.6116(3) 0.73689(16)
N4 N 0.95697(18) 0.5514(3) 0.84278(16)
C1 C 0.8747(2) 0.4349(4) 0.6234(2)
C2 C 0.9129(2) 0.8822(4) 0.7819(2)
C3 C 0.6382(2) 0.6092(4) 0.6667(2)
C4 C 0.6239(2) 0.6550(5) 0.55069(19)
C5 C 0.5111(2) 0.6226(5) 0.4798(2)
H2 H 0.4494 0.5721 0.5085
C6 C 0.4909(2) 0.6637(5) 0.3702(2)
C7 C 0.5789(3) 0.7498(5) 0.3278(2)
H3 H 0.5631 0.7825 0.2534
C8 C 0.6895(2) 0.7873(5) 0.3946(2)
H4 H 0.7471 0.8469 0.3650
C9 C 0.7171(2) 0.7369(4) 0.5074(2)
C10 C 1.0673(2) 0.5628(4) 0.8990(2)
C11 C 1.1629(2) 0.6423(5) 0.85712(18)
C12 C 1.2760(2) 0.6645(5) 0.9324(2)
H5 H 1.2843 0.6312 1.0063
C13 C 1.3724(3) 0.7340(4) 0.8974(2)
C14 C 1.3640(2) 0.7819(5) 0.7875(2)
H6 H 1.4309 0.8281 0.7646
C15 C 1.2565(2) 0.7611(4) 0.7125(2)
H7 H 1.2521 0.7913 0.6385
C16 C 1.1522(2) 0.6946(4) 0.7449(2)
C17 C 0.7485(2) 0.5630(5) 0.8544(2)
H8 H 0.6787 0.4949 0.8626
H9 H 0.7523 0.6655 0.9005
C18 C 0.8633(3) 0.4581(4) 0.8876(2)
H10 H 0.8867 0.4491 0.9679
H11 H 0.8517 0.3426 0.8565
C19 C 1.1988(4) 1.1768(7) 0.8456(3)
H12 H 1.1699 1.2089 0.9109
H13 H 1.2688 1.2449 0.8411
H14 H 1.2201 1.0565 0.8495
K1_2 K 0.99514(6) 0.02054(8) 0.55903(5)
K1A K 1.00486(6) 0.52054(8) 0.44097(5)
N1_2 N 0.8633(2) 1.3096(4) 0.5723(2)
N1A N 1.1367(2) 0.8096(4) 0.4277(2)
loop_
_geom_bond_atom_site_label_1
_geom_bond_atom_site_label_2
_geom_bond_site_symmetry_1
_geom_bond_site_symmetry_2
Fe1 O1 1_555 1_555
K1 O1 1_555 1_555
Cl1 C6 1_555 1_555
Cl2 C13 1_555 1_555
O1 C9 1_555 1_555
O2 Fe1 1_555 1_555
O3 K1 1_555 1_555
H1 O3 1_555 1_555
N1 C1 1_555 1_555
N2 C2 1_555 1_555
N3 Fe1 1_555 1_555
N4 Fe1 1_555 1_555
C1 Fe1 1_555 1_555
C2 Fe1 1_555 1_555
C3 N3 1_555 1_555
C4 C3 1_555 1_555
C5 C4 1_555 1_555
H2 C5 1_555 1_555
C6 C5 1_555 1_555
C7 C6 1_555 1_555
H3 C7 1_555 1_555
C8 C7 1_555 1_555
H4 C8 1_555 1_555
C9 C4 1_555 1_555
C10 N4 1_555 1_555
C11 C10 1_555 1_555
C12 C11 1_555 1_555
H5 C12 1_555 1_555
C13 C12 1_555 1_555
C14 C13 1_555 1_555
H6 C14 1_555 1_555
C15 C14 1_555 1_555
H7 C15 1_555 1_555
C16 O2 1_555 1_555
C17 N3 1_555 1_555
H8 C17 1_555 1_555
H9 C17 1_555 1_555
C18 N4 1_555 1_555
H10 C18 1_555 1_555
H11 C18 1_555 1_555
C19 O3 1_555 1_555
H12 C19 1_555 1_555
H13 C19 1_555 1_555
H14 C19 1_555 1_555
K1_2 N1 1_555 1_555
K1A N1 1_555 1_555
N1_2 K1 1_555 1_555
N1A K1 1_555 1_555
C8 C9 1_555 1_555
C11 C16 1_555 1_555
C15 C16 1_555 1_555
C17 C18 1_555 1_555
K1A N1A 1_555 1_555

#END
