
#######################################################################
#
#                 Cambridge Crystallographic Data Centre
#                                CCDC 
#
#######################################################################
#
# If this CIF has been generated from an entry in the Cambridge 
# Structural Database, then it will include bibliographic, chemical, 
# crystal, experimental, refinement or atomic coordinate data resulting 
# from the CCDC's data processing and validation procedures.
#
#######################################################################

data_KAYLUT
_symmetry_cell_setting           triclinic
_symmetry_space_group_name_H-M   'P -1'
_symmetry_Int_Tables_number      2
_space_group_name_Hall           '-P 1'
loop_
_symmetry_equiv_pos_site_id
_symmetry_equiv_pos_as_xyz
1 x,y,z
2 -x,-y,-z
_cell_length_a                   5.4781(7)
_cell_length_b                   13.0181(17)
_cell_length_c                   15.287(2)
_cell_angle_alpha                109.181(2)
_cell_angle_beta                 93.861(2)
_cell_angle_gamma                92.658(2)
_cell_volume                     1024.61
loop_
_atom_site_label
_atom_site_type_symbol
_atom_site_fract_x
_atom_site_fract_y
_atom_site_fract_z
Zn1 Zn 0.39807(12) 0.67607(5) 0.30985(4)
Cl1 Cl 0.6736(3) 0.73292(13) 0.43516(10)
O1 O 0.5692(7) 0.6252(4) 0.1985(3)
O2 O 0.2095(9) 0.5860(5) 0.1197(3)
N1 N 0.2011(8) 0.8070(3) 0.3140(3)
N2 N 0.1903(8) 1.5507(3) 0.3261(3)
C1 C -0.0833(11) 1.3742(4) 0.3457(5)
C2 C 0.2591(12) 1.5043(5) 0.3895(4)
H1 H 0.4025 1.5325 0.4278
C3 C 0.4334(11) 0.5869(5) 0.1244(4)
C4 C -0.0798(11) 0.9844(5) 0.3317(5)
C5 C 0.1304(13) 1.4187(5) 0.4005(5)
H2 H 0.1869 1.3897 0.4456
C6 C -0.1555(12) 1.4229(5) 0.2824(5)
H3 H -0.3002 1.3971 0.2443
C7 C 0.2520(12) 0.9007(5) 0.3836(4)
H4 H 0.3824 0.9060 0.4275
C8 C -0.0174(11) 1.5091(5) 0.2745(5)
H5 H -0.0722 1.5400 0.2306
C9 C -0.1293(13) 0.8873(5) 0.2601(5)
H6 H -0.2609 0.8795 0.2162
C10 C 0.0143(11) 0.8017(5) 0.2531(5)
H7 H -0.0216 0.7373 0.2033
C11 C -0.2286(12) 1.2786(5) 0.3565(6)
H8 H -0.3819 1.2647 0.3175
H9 H -0.2673 1.2962 0.4205
C12 C -0.2280(13) 1.0817(5) 0.3436(6)
H10 H -0.2836 1.1048 0.4055
H11 H -0.3720 1.0603 0.2993
C13 C 0.1190(13) 0.9893(5) 0.3928(5)
H12 H 0.1642 1.0541 0.4412
C14 C 0.5700(14) 0.5468(8) 0.0375(5)
H13 H 0.7395 0.5317 0.0509
C15 C -0.0875(11) 1.1764(4) 0.3297(5)
H14 H -0.0538 1.1574 0.2651
H15 H 0.0684 1.1911 0.3672
C16 C 0.746(3) 0.6722(13) -0.0568(15)
H16 H 0.8715 0.6250 -0.0647
C17 C 0.551(3) 0.6579(12) -0.0103(11)
C18 C 0.390(4) 0.8167(15) -0.0287(15)
H17 H 0.2700 0.8664 -0.0185
C19 C 0.583(4) 0.8284(16) -0.0764(17)
H18 H 0.5949 0.8867 -0.0988
C20 C 0.758(4) 0.7562(17) -0.0918(16)
H19 H 0.8868 0.7637 -0.1263
C21 C 0.373(3) 0.7310(15) 0.0045(13)
H20 H 0.2411 0.7225 0.0372
Zn1A Zn 0.60193(12) 0.32393(5) -0.30985(4)
Zn1_2 Zn 0.39807(12) 1.67607(5) 0.30985(4)
Zn1_3 Zn 0.39807(12) -0.32393(5) 0.30985(4)
Cl1A Cl 0.3264(3) 0.26708(13) -0.43516(10)
O1A O 0.4308(7) 0.3748(4) -0.1985(3)
O2A O 0.7905(9) 0.4140(5) -0.1197(3)
N1_2 N 0.2011(8) -0.1930(3) 0.3140(3)
N1A N 0.7989(8) 0.1930(3) -0.3140(3)
N2_2 N 0.1903(8) 0.5507(3) 0.3261(3)
N2A N 0.8097(8) 0.4493(3) -0.3261(3)
C1_2 C -0.0833(11) 0.3742(4) 0.3457(5)
C2_2 C 0.2591(12) 0.5043(5) 0.3895(4)
H1_2 H 0.4025 0.5325 0.4278
C3A C 0.5666(11) 0.4131(5) -0.1244(4)
C4_2 C -0.0798(11) -0.0156(5) 0.3317(5)
C5_2 C 0.1304(13) 0.4187(5) 0.4005(5)
H2_2 H 0.1869 0.3897 0.4456
C6_2 C -0.1555(12) 0.4229(5) 0.2824(5)
H3_2 H -0.3002 0.3971 0.2443
C7_2 C 0.2520(12) -0.0993(5) 0.3836(4)
H4_2 H 0.3824 -0.0940 0.4275
C8_2 C -0.0174(11) 0.5091(5) 0.2745(5)
H5_2 H -0.0722 0.5400 0.2306
C9_2 C -0.1293(13) -0.1127(5) 0.2601(5)
H6_2 H -0.2609 -0.1205 0.2162
C10_2 C 0.0143(11) -0.1983(5) 0.2531(5)
H7_2 H -0.0216 -0.2627 0.2033
C11_2 C -0.2286(12) 0.2786(5) 0.3565(6)
H8_2 H -0.3819 0.2647 0.3175
H9_2 H -0.2673 0.2962 0.4205
C12_2 C -0.2280(13) 0.0817(5) 0.3436(6)
H10_2 H -0.2836 0.1048 0.4055
H11_2 H -0.3720 0.0603 0.2993
C13_2 C 0.1190(13) -0.0107(5) 0.3928(5)
H12_2 H 0.1642 0.0541 0.4412
C14A C 0.4300(14) 0.4532(8) -0.0375(5)
H13A H 0.2605 0.4683 -0.0509
C15_2 C -0.0875(11) 0.1764(4) 0.3297(5)
H14_2 H -0.0538 0.1574 0.2651
H15_2 H 0.0684 0.1911 0.3672
C16A C 0.254(3) 0.3278(13) 0.0568(15)
H16A H 0.1285 0.3750 0.0647
C17A C 0.449(3) 0.3421(12) 0.0103(11)
C18A C 0.610(4) 0.1833(15) 0.0287(15)
H17A H 0.7300 0.1336 0.0185
C19A C 0.417(4) 0.1716(16) 0.0764(17)
H18A H 0.4051 0.1133 0.0988
C20A C 0.242(4) 0.2438(17) 0.0918(16)
H19A H 0.1132 0.2363 0.1263
C21A C 0.627(3) 0.2690(15) -0.0045(13)
H20A H 0.7589 0.2775 -0.0372
loop_
_geom_bond_atom_site_label_1
_geom_bond_atom_site_label_2
_geom_bond_site_symmetry_1
_geom_bond_site_symmetry_2
Zn1 Cl1 1_555 1_555
O1 Zn1 1_555 1_555
O2 C3 1_555 1_555
N1 Zn1 1_555 1_555
N2 C2 1_555 1_555
C1 C5 1_555 1_555
C2 H1 1_555 1_555
C3 O1 1_555 1_555
C4 C9 1_555 1_555
C5 C2 1_555 1_555
H2 C5 1_555 1_555
C6 C1 1_555 1_555
H3 C6 1_555 1_555
C7 N1 1_555 1_555
H4 C7 1_555 1_555
C8 N2 1_555 1_555
H5 C8 1_555 1_555
C9 H6 1_555 1_555
C10 N1 1_555 1_555
H7 C10 1_555 1_555
C11 C1 1_555 1_555
H8 C11 1_555 1_555
H9 C11 1_555 1_555
C12 C4 1_555 1_555
H10 C12 1_555 1_555
H11 C12 1_555 1_555
C13 C4 1_555 1_555
H12 C13 1_555 1_555
C14 C3 1_555 1_555
H13 C14 1_555 1_555
C15 C11 1_555 1_555
H14 C15 1_555 1_555
H15 C15 1_555 1_555
C16 H16 1_555 1_555
C17 C14 1_555 1_555
C18 H17 1_555 1_555
C19 C18 1_555 1_555
H18 C19 1_555 1_555
C20 C16 1_555 1_555
H19 C20 1_555 1_555
C21 C17 1_555 1_555
H20 C21 1_555 1_555
Zn1A Cl1A 1_555 1_555
Zn1_2 N2 1_555 1_555
Zn1_3 N1_2 1_555 1_555
O1A Zn1A 1_555 1_555
O2A C3A 1_555 1_555
N1_2 C7_2 1_555 1_555
N1A Zn1A 1_555 1_555
N2_2 Zn1 1_555 1_555
N2A Zn1A 1_555 1_555
C1_2 C5_2 1_555 1_555
C2_2 N2_2 1_555 1_555
H1_2 C2_2 1_555 1_555
C3A O1A 1_555 1_555
C4_2 C9_2 1_555 1_555
C5_2 C2_2 1_555 1_555
H2_2 C5_2 1_555 1_555
C6_2 C1_2 1_555 1_555
H3_2 C6_2 1_555 1_555
C7_2 H4_2 1_555 1_555
C8_2 N2_2 1_555 1_555
H5_2 C8_2 1_555 1_555
C9_2 H6_2 1_555 1_555
C10_2 N1_2 1_555 1_555
H7_2 C10_2 1_555 1_555
C11_2 C1_2 1_555 1_555
H8_2 C11_2 1_555 1_555
H9_2 C11_2 1_555 1_555
C12_2 C4_2 1_555 1_555
H10_2 C12_2 1_555 1_555
H11_2 C12_2 1_555 1_555
C13_2 C4_2 1_555 1_555
H12_2 C13_2 1_555 1_555
C14A C14 1_555 1_555
H13A C14A 1_555 1_555
C15_2 C11_2 1_555 1_555
H14_2 C15_2 1_555 1_555
H15_2 C15_2 1_555 1_555
C16A H16A 1_555 1_555
C17A C14A 1_555 1_555
C18A H17A 1_555 1_555
C19A C18A 1_555 1_555
H18A C19A 1_555 1_555
C20A C16A 1_555 1_555
H19A C20A 1_555 1_555
C21A C17A 1_555 1_555
H20A C21A 1_555 1_555
C6 C8 1_555 1_555
C7 C13 1_555 1_555
C9 C10 1_555 1_555
C12 C15 1_555 1_555
C16 C17 1_555 1_555
C18 C21 1_555 1_555
C19 C20 1_555 1_555
C3A C14A 1_555 1_555
C6_2 C8_2 1_555 1_555
C7_2 C13_2 1_555 1_555
C9_2 C10_2 1_555 1_555
C12_2 C15_2 1_555 1_555
C16A C17A 1_555 1_555
C18A C21A 1_555 1_555
C19A C20A 1_555 1_555

#END
