
#######################################################################
#
#                 Cambridge Crystallographic Data Centre
#                                CCDC 
#
#######################################################################
#
# If this CIF has been generated from an entry in the Cambridge 
# Structural Database, then it will include bibliographic, chemical, 
# crystal, experimental, refinement or atomic coordinate data resulting 
# from the CCDC's data processing and validation procedures.
#
#######################################################################

data_KAYNOO
_symmetry_cell_setting           monoclinic
_symmetry_space_group_name_H-M   'C 2/c'
_symmetry_Int_Tables_number      15
_space_group_name_Hall           '-C 2yn'
loop_
_symmetry_equiv_pos_site_id
_symmetry_equiv_pos_as_xyz
1 x,y,z
2 1/2+x,1/2+y,z
3 -x,y,1/2-z
4 1/2-x,1/2+y,1/2-z
5 -x,-y,-z
6 1/2-x,1/2-y,-z
7 x,-y,1/2+z
8 1/2+x,1/2-y,1/2+z
_cell_length_a                   25.995(5)
_cell_length_b                   11.6819(13)
_cell_length_c                   16.660(3)
_cell_angle_alpha                90
_cell_angle_beta                 125.584(6)
_cell_angle_gamma                90
_cell_volume                     4114.43
loop_
_atom_site_label
_atom_site_type_symbol
_atom_site_fract_x
_atom_site_fract_y
_atom_site_fract_z
Cd1 Cd 0.054168(18) 0.82718(3) 0.89485(3)
O1 O -0.03930(19) 0.8345(4) 0.8837(3)
N1 N 0.0479(2) 1.0266(4) 0.8846(4)
C1 C -0.0773(3) 0.8449(5) 0.7924(4)
O2 O -0.0631(3) 0.8186(4) 0.7341(4)
N2 N 0.0545(2) 1.6322(5) 0.8950(4)
C2 C -0.1418(3) 0.8941(5) 0.7494(5)
H1 H -0.1731 0.8898 0.6802
O3 O -0.1124(2) 1.1449(5) 0.9290(4)
C3 C -0.1560(3) 0.9431(6) 0.8057(5)
H2 H -0.1239 0.9427 0.8747
O4 O -0.1656(2) 1.1491(6) 0.9928(4)
C4 C -0.2161(3) 0.9985(7) 0.7734(6)
C5 C -0.2725(4) 0.9640(9) 0.6840(7)
H3 H -0.2711 0.9074 0.6444
C6 C -0.3294(4) 1.0120(11) 0.6539(8)
H4 H -0.3671 0.9852 0.5951
C7 C -0.3329(4) 1.0980(11) 0.7069(9)
H5 H -0.3722 1.1334 0.6833
C8 C -0.2784(4) 1.1317(10) 0.7947(8)
H6 H -0.2806 1.1892 0.8329
C9 C -0.2198(3) 1.0832(8) 0.8290(6)
C10 C -0.1621(3) 1.1287(7) 0.9221(6)
C11 C 0.0810(4) 1.0854(6) 0.8603(6)
H7 H 0.1038 1.0441 0.8413
C12 C 0.0149(3) 1.0854(6) 0.9086(5)
H8 H -0.0093 1.0443 0.9250
C13 C 0.0835(3) 1.2036(6) 0.8616(6)
H9 H 0.1081 1.2424 0.8447
C14 C 0.0142(4) 1.2035(6) 0.9107(5)
H10 H -0.0104 1.2424 0.9276
C15 C 0.0497(3) 1.2645(5) 0.8877(4)
C16 C 0.0509(3) 1.3914(6) 0.8891(4)
C17 C 0.0979(5) 1.4535(7) 0.8934(9)
H11 H 0.1305 1.4140 0.8951
C18 C 0.0079(4) 1.4542(7) 0.8910(8)
H12 H -0.0249 1.4169 0.8900
C19 C 0.0982(5) 1.5716(7) 0.8954(9)
H13 H 0.1307 1.6114 0.8971
C20 C 0.0115(4) 1.5723(6) 0.8944(8)
H14 H -0.0193 1.6131 0.8965
Cd1B Cd -0.054168(18) 0.82718(3) 0.60515(3)
Cd1_2 Cd 0.054168(18) 1.82718(3) 0.89485(3)
Cd1D Cd -0.054168(18) 1.17282(3) 1.10515(3)
O2B O 0.0631(3) 0.8186(4) 0.7659(4)
N2_2 N 0.0545(2) 0.6322(5) 0.8950(4)
O3D O 0.1124(2) 0.8551(5) 1.0710(4)
O4D O 0.1656(2) 0.8509(6) 1.0072(4)
O5 O 0.1323(8) 1.2854(15) 0.7282(13)
O6 O -0.2415(12) 1.2525(17) 0.6253(16)
O7 O -0.2624(7) 1.1668(14) 1.0049(12)
O8 O -0.2427(6) 1.0701(17) 0.5121(12)
loop_
_geom_bond_atom_site_label_1
_geom_bond_atom_site_label_2
_geom_bond_site_symmetry_1
_geom_bond_site_symmetry_2
Cd1 O1 1_555 1_555
O1 C1 1_555 1_555
N1 Cd1 1_555 1_555
C1 O2 1_555 1_555
O2 Cd1 1_555 1_555
N2 C19 1_555 1_555
C2 C1 1_555 1_555
H1 C2 1_555 1_555
O3 C10 1_555 1_555
C3 C2 1_555 1_555
H2 C3 1_555 1_555
O4 C10 1_555 1_555
C4 C3 1_555 1_555
C5 C4 1_555 1_555
H3 C5 1_555 1_555
C6 C5 1_555 1_555
H4 C6 1_555 1_555
C7 C6 1_555 1_555
H5 C7 1_555 1_555
C8 C7 1_555 1_555
H6 C8 1_555 1_555
C9 C4 1_555 1_555
C10 C9 1_555 1_555
C11 N1 1_555 1_555
H7 C11 1_555 1_555
C12 N1 1_555 1_555
H8 C12 1_555 1_555
C13 C11 1_555 1_555
H9 C13 1_555 1_555
C14 C12 1_555 1_555
H10 C14 1_555 1_555
C15 C13 1_555 1_555
C16 C15 1_555 1_555
C17 C16 1_555 1_555
H11 C17 1_555 1_555
C18 C16 1_555 1_555
H12 C18 1_555 1_555
C19 C17 1_555 1_555
H13 C19 1_555 1_555
C20 N2 1_555 1_555
H14 C20 1_555 1_555
Cd1B O2 1_555 1_555
Cd1_2 N2 1_555 1_555
Cd1D O3 1_555 1_555
O2B Cd1 1_555 1_555
N2_2 Cd1 1_555 1_555
O3D Cd1 1_555 1_555
O4D Cd1 1_555 1_555
O4 Cd1D 1_555 1_555
C8 C9 1_555 1_555
C14 C15 1_555 1_555
C18 C20 1_555 1_555
Cd1B O2B 1_555 1_555

#END
