
#######################################################################
#
#                 Cambridge Crystallographic Data Centre
#                                CCDC 
#
#######################################################################
#
# If this CIF has been generated from an entry in the Cambridge 
# Structural Database, then it will include bibliographic, chemical, 
# crystal, experimental, refinement or atomic coordinate data resulting 
# from the CCDC's data processing and validation procedures.
#
#######################################################################

data_KAYNII
_symmetry_cell_setting           monoclinic
_symmetry_space_group_name_H-M   'P 21/c'
_symmetry_Int_Tables_number      14
_space_group_name_Hall           '-P 2ybc'
loop_
_symmetry_equiv_pos_site_id
_symmetry_equiv_pos_as_xyz
1 x,y,z
2 -x,1/2+y,1/2-z
3 -x,-y,-z
4 x,1/2-y,1/2+z
_cell_length_a                   9.190(4)
_cell_length_b                   15.360(6)
_cell_length_c                   16.170(7)
_cell_angle_alpha                90
_cell_angle_beta                 99.110(5)
_cell_angle_gamma                90
_cell_volume                     2253.74
loop_
_atom_site_label
_atom_site_type_symbol
_atom_site_fract_x
_atom_site_fract_y
_atom_site_fract_z
Cd1 Cd 0.74173(5) 0.85683(3) 0.08016(3)
N1 N 0.5404(5) 0.8011(3) 0.1346(3)
C1 C 0.7538(7) 1.0785(4) -0.2585(3)
O1 O 0.7837(5) 0.9048(3) -0.0492(3)
N2 N 0.2205(6) 0.2857(3) -0.0285(3)
C2 C 0.6278(7) 1.0852(5) -0.3195(4)
H1 H 0.5465 1.0477 -0.3165
O2 O 0.5421(5) 0.9090(3) -0.0535(3)
C3 C 0.6190(8) 1.1443(5) -0.3832(4)
H2 H 0.5315 1.1481 -0.4232
O3 O 1.1244(5) 1.1708(3) -0.2193(3)
C4 C 0.7359(8) 1.1984(5) -0.3901(4)
H3 H 0.7294 1.2394 -0.4346
O4 O 1.0048(5) 1.1140(3) -0.1260(2)
C5 C 0.8637(7) 1.1925(4) -0.3311(4)
H4 H 0.9454 1.2288 -0.3364
O5 O 0.7149(6) 1.0028(3) 0.1122(3)
H5 H 0.778(6) 1.026(4) 0.091(3)
H6 H 0.642(9) 1.037(6) 0.097(5)
C6 C 0.8735(7) 1.1339(4) -0.2643(3)
C7 C 0.7572(7) 1.0146(4) -0.1892(3)
H9 H 0.8502 0.9903 -0.1667
C8 C 0.6420(7) 0.9886(4) -0.1563(4)
H10 H 0.5465 1.0078 -0.1807
C9 C 0.6575(7) 0.9303(4) -0.0824(4)
C10 C 1.0099(7) 1.1386(4) -0.1992(4)
C11 C 0.4051(7) 0.8029(4) 0.0887(3)
H11 H 0.3886 0.8386 0.0401
C12 C 0.2899(7) 0.7551(4) 0.1092(4)
H12 H 0.1957 0.7588 0.0754
C13 C 0.3106(7) 0.7010(4) 0.1796(3)
C14 C 0.4490(7) 0.7029(4) 0.2283(4)
H13 H 0.4677 0.6697 0.2783
C15 C 0.5604(7) 0.7533(4) 0.2041(4)
H14 H 0.6544 0.7537 0.2385
C16 C 0.1884(8) 0.6434(4) 0.1999(4)
H15 H 0.0926 0.6681 0.1738
H16 H 0.1906 0.6430 0.2613
C17 C 0.2001(8) 0.5498(4) 0.1695(4)
H17 H 0.2921 0.5236 0.1992
H18 H 0.1164 0.5157 0.1840
C18 C 0.2248(10) 0.3587(4) -0.0731(4)
H19 H 0.2346 0.3531 -0.1305
C19 C 0.2160(9) 0.4408(4) -0.0417(4)
H20 H 0.2166 0.4900 -0.0773
C20 C 0.2063(7) 0.4521(4) 0.0425(4)
C21 C 0.1993(8) 0.3774(4) 0.0881(4)
H21 H 0.1907 0.3813 0.1458
C22 C 0.2045(9) 0.2972(4) 0.0518(4)
H22 H 0.1963 0.2471 0.0852
C23 C 0.2000(9) 0.5434(4) 0.0762(4)
H23 H 0.1097 0.5720 0.0469
H24 H 0.2855 0.5764 0.0624
Cd1B Cd 0.25827(5) 0.14317(3) -0.08016(3)
Cd1B_2 Cd 1.25827(5) 1.14317(3) -0.08016(3)
N2B N 0.7795(6) 0.7143(3) 0.0285(3)
O3B O 0.8756(5) 0.8292(3) 0.2193(3)
O4B O 0.9952(5) 0.8860(3) 0.1260(2)
O6 O 0.0916(6) 0.8970(4) -0.0364(4)
H7 H 0.000(3) 0.904(4) -0.051(4)
H8 H 0.074(17) 0.885(10) 0.012(4)
loop_
_geom_bond_atom_site_label_1
_geom_bond_atom_site_label_2
_geom_bond_site_symmetry_1
_geom_bond_site_symmetry_2
Cd1 N1 1_555 1_555
N1 C11 1_555 1_555
C1 C2 1_555 1_555
O1 Cd1 1_555 1_555
N2 C18 1_555 1_555
C2 H1 1_555 1_555
O2 Cd1 1_555 1_555
C3 C2 1_555 1_555
H2 C3 1_555 1_555
O3 C10 1_555 1_555
C4 C3 1_555 1_555
H3 C4 1_555 1_555
O4 C10 1_555 1_555
C5 C4 1_555 1_555
H4 C5 1_555 1_555
O5 Cd1 1_555 1_555
H5 O5 1_555 1_555
H6 O5 1_555 1_555
C6 C1 1_555 1_555
O6 H7 1_555 1_555
H8 O6 1_555 1_555
C7 C1 1_555 1_555
H9 C7 1_555 1_555
C8 C7 1_555 1_555
H10 C8 1_555 1_555
C9 O1 1_555 1_555
C10 C6 1_555 1_555
C11 H11 1_555 1_555
C12 C11 1_555 1_555
H12 C12 1_555 1_555
C13 C12 1_555 1_555
C14 C13 1_555 1_555
H13 C14 1_555 1_555
C15 N1 1_555 1_555
H14 C15 1_555 1_555
C16 C13 1_555 1_555
H15 C16 1_555 1_555
H16 C16 1_555 1_555
C17 C16 1_555 1_555
H17 C17 1_555 1_555
H18 C17 1_555 1_555
C18 H19 1_555 1_555
C19 C18 1_555 1_555
H20 C19 1_555 1_555
C20 C19 1_555 1_555
C21 C20 1_555 1_555
H21 C21 1_555 1_555
C22 N2 1_555 1_555
H22 C22 1_555 1_555
C23 C17 1_555 1_555
H23 C23 1_555 1_555
H24 C23 1_555 1_555
Cd1B N2 1_555 1_555
Cd1B_2 O3 1_555 1_555
N2B Cd1 1_555 1_555
O3B Cd1 1_555 1_555
O4B Cd1 1_555 1_555
O2 C9 1_555 1_555
O4 Cd1B_2 1_555 1_555
C5 C6 1_555 1_555
C8 C9 1_555 1_555
C14 C15 1_555 1_555
C20 C23 1_555 1_555
C21 C22 1_555 1_555

#END
