
#######################################################################
#
#                 Cambridge Crystallographic Data Centre
#                                CCDC 
#
#######################################################################
#
# If this CIF has been generated from an entry in the Cambridge 
# Structural Database, then it will include bibliographic, chemical, 
# crystal, experimental, refinement or atomic coordinate data resulting 
# from the CCDC's data processing and validation procedures.
#
#######################################################################

data_KAYPEF
_symmetry_cell_setting           orthorhombic
_symmetry_space_group_name_H-M   'P c a 21'
_symmetry_Int_Tables_number      29
_space_group_name_Hall           'P 2c -2ac'
loop_
_symmetry_equiv_pos_site_id
_symmetry_equiv_pos_as_xyz
1 x,y,z
2 1/2-x,y,1/2+z
3 1/2+x,-y,z
4 -x,-y,1/2+z
_cell_length_a                   24.97(2)
_cell_length_b                   4.009(1)
_cell_length_c                   9.116(7)
_cell_angle_alpha                90
_cell_angle_beta                 90
_cell_angle_gamma                90
_cell_volume                     912.555
loop_
_atom_site_label
_atom_site_type_symbol
_atom_site_fract_x
_atom_site_fract_y
_atom_site_fract_z
Cu1 Cu 0.10304(9) -0.06343(63) 0.50000
Cl1 Cl 0.1533(2) 0.3419(12) 0.3873(6)
N1 N 0.1458(6) -0.0857(41) 0.6782(18)
N2 N 0.1737(6) -0.2258(44) 0.9035(17)
N3 N 0.0546(6) -0.0818(39) 0.3331(17)
O1 O 0.0457(4) -0.3054(38) 0.6016(13)
O2 O -0.0421(5) -0.4329(35) 0.5852(15)
C1 C 0.1348(7) -0.2390(52) 0.8063(22)
C2 C 0.1975(8) 0.0409(62) 0.7028(26)
C3 C 0.2145(7) -0.0438(55) 0.8352(23)
C4 C 0.1731(8) -0.3478(66) 1.0479(22)
C5 C -0.0003(7) -0.1695(51) 0.3883(22)
C6 C -0.0009(7) -0.3048(48) 0.5287(19)
H1 H 0.0986 -0.3493 0.8278
H2 H 0.2190 0.1792 0.6310
H3 H 0.2508 0.0104 0.8804
H4 H 0.1360 -0.4290 1.0737
H5 H 0.1985 -0.5425 1.0575
H6 H 0.1837 -0.1707 1.1200
H7 H 0.0538 0.1445 0.2816
H8 H 0.0668 -0.2517 0.2602
H9 H -0.0226 0.0445 0.3916
H10 H -0.0175 -0.3275 0.3200
Cl1_2 Cl 0.1533(2) -0.6581(12) 0.3873(6)
Cu1_2 Cu 0.10304(9) 0.93657(63) 0.50000
loop_
_geom_bond_atom_site_label_1
_geom_bond_atom_site_label_2
_geom_bond_site_symmetry_1
_geom_bond_site_symmetry_2
Cu1 Cl1 1_555 1_555
Cl1 Cu1_2 1_555 1_555
N1 Cu1 1_555 1_555
N2 C1 1_555 1_555
N3 Cu1 1_555 1_555
O1 Cu1 1_555 1_555
O2 C6 1_555 1_555
C1 N1 1_555 1_555
C2 N1 1_555 1_555
C3 N2 1_555 1_555
C4 N2 1_555 1_555
C5 N3 1_555 1_555
C6 O1 1_555 1_555
H1 C1 1_555 1_555
H2 C2 1_555 1_555
H3 C3 1_555 1_555
H4 C4 1_555 1_555
H5 C4 1_555 1_555
H6 C4 1_555 1_555
H7 N3 1_555 1_555
H8 N3 1_555 1_555
H9 C5 1_555 1_555
H10 C5 1_555 1_555
Cl1_2 Cu1 1_555 1_555
C2 C3 1_555 1_555
C5 C6 1_555 1_555

#END
