
#######################################################################
#
#                 Cambridge Crystallographic Data Centre
#                                CCDC 
#
#######################################################################
#
# If this CIF has been generated from an entry in the Cambridge 
# Structural Database, then it will include bibliographic, chemical, 
# crystal, experimental, refinement or atomic coordinate data resulting 
# from the CCDC's data processing and validation procedures.
#
#######################################################################

data_KAYQAE
_symmetry_cell_setting           triclinic
_symmetry_space_group_name_H-M   'P -1'
_symmetry_Int_Tables_number      2
_space_group_name_Hall           '-P 1'
loop_
_symmetry_equiv_pos_site_id
_symmetry_equiv_pos_as_xyz
1 x,y,z
2 -x,-y,-z
_cell_length_a                   8.6331(12)
_cell_length_b                   10.8843(16)
_cell_length_c                   13.0022(19)
_cell_angle_alpha                80.341(2)
_cell_angle_beta                 87.758(2)
_cell_angle_gamma                77.471(2)
_cell_volume                     1175.75
loop_
_atom_site_label
_atom_site_type_symbol
_atom_site_fract_x
_atom_site_fract_y
_atom_site_fract_z
Pb1 Pb 0.95620(3) 0.63445(2) 0.83642(2)
O1 O 1.0686(8) 0.8120(6) 0.7399(4)
O3 O 1.118(3) 0.7988(13) 0.9024(8)
O4 O 1.1486(6) 1.4560(5) 0.9523(4)
O5 O 1.2142(5) 1.5066(4) 0.7903(4)
N1 N 0.9002(6) 0.6273(5) 0.6392(4)
N2 N 0.8638(6) 0.4322(5) 0.7924(4)
N3 N 0.6615(6) 0.4089(5) 0.4031(4)
H1 H 0.6606 0.4533 0.3417
N4 N 0.6257(6) 0.2510(5) 0.5317(4)
N5 N 0.4333(8) 0.2363(7) 0.1901(5)
C1 C 0.8510(8) 0.3357(6) 0.8685(5)
H2 H 0.8826 0.3390 0.9354
C2 C 0.7937(8) 0.2320(7) 0.8530(5)
H3 H 0.7910 0.1652 0.9075
C3 C 0.7403(8) 0.2287(6) 0.7555(5)
H4 H 0.6995 0.1602 0.7433
C4 C 0.7482(7) 0.3294(6) 0.6751(5)
C5 C 0.8143(7) 0.4288(6) 0.6963(5)
C6 C 0.6956(7) 0.3360(6) 0.5706(5)
C7 C 0.7175(7) 0.4343(6) 0.4929(5)
C8 C 0.7854(7) 0.5372(6) 0.5115(5)
C9 C 0.8056(8) 0.6390(6) 0.4341(5)
H5 H 0.7743 0.6431 0.3658
C10 C 0.8719(9) 0.7315(7) 0.4610(6)
H6 H 0.8873 0.7999 0.4113
C11 C 0.9163(8) 0.7220(6) 0.5646(5)
H7 H 0.9602 0.7865 0.5821
C12 C 0.8327(7) 0.5347(6) 0.6136(5)
C13 C 0.6072(8) 0.2984(6) 0.4310(5)
C14 C 0.5335(8) 0.2391(6) 0.3573(5)
C15 C 0.4824(12) 0.1294(8) 0.3952(7)
H8 H 0.4959 0.0934 0.4652
C16 C 0.4108(12) 0.0729(8) 0.3287(7)
H9 H 0.3778 -0.0027 0.3530
C17 C 0.3892(9) 0.1273(7) 0.2293(7)
H10 H 0.3414 0.0878 0.1851
C18 C 0.5044(9) 0.2872(7) 0.2573(6)
H11 H 0.5362 0.3629 0.2316
C19 C 1.1000(10) 0.8615(7) 0.8148(6)
C20 C 1.1509(9) 0.9854(6) 0.7895(5)
H12 H 1.0596 1.0505 0.7627
H13 H 1.2285 0.9790 0.7336
C21 C 1.2217(9) 1.0312(6) 0.8777(6)
H14 H 1.3133 0.9671 0.9053
H15 H 1.1441 1.0406 0.9334
C22 C 1.2717(9) 1.1577(6) 0.8428(5)
H16 H 1.1791 1.2225 0.8180
H17 H 1.3456 1.1492 0.7850
C23 C 1.3493(9) 1.2015(6) 0.9296(6)
H18 H 1.4467 1.1402 0.9508
H19 H 1.2788 1.2041 0.9895
C24 C 1.3870(8) 1.3338(6) 0.8948(6)
H20 H 1.4540 1.3506 0.9467
H21 H 1.4460 1.3340 0.8297
C25 C 1.2414(8) 1.4380(6) 0.8800(5)
Pb1_2 Pb 0.95620(3) 1.63445(2) 0.83642(2)
O4_2 O 1.1486(6) 0.4560(5) 0.9523(4)
O5_2 O 1.2142(5) 0.5066(4) 0.7903(4)
O2 O 0.065(3) 0.972(2) 0.4312(19)
O6? O 1.035(4) 0.834(2) 0.9090(16)
loop_
_geom_bond_atom_site_label_1
_geom_bond_atom_site_label_2
_geom_bond_site_symmetry_1
_geom_bond_site_symmetry_2
Pb1 O1 1_555 1_555
O1 C19 1_555 1_555
O3 Pb1 1_555 1_555
O4 C25 1_555 1_555
O5 C25 1_555 1_555
N1 Pb1 1_555 1_555
N2 Pb1 1_555 1_555
N3 H1 1_555 1_555
N4 C6 1_555 1_555
N5 C17 1_555 1_555
C1 N2 1_555 1_555
H2 C1 1_555 1_555
C2 C1 1_555 1_555
H3 C2 1_555 1_555
C3 C2 1_555 1_555
H4 C3 1_555 1_555
C4 C3 1_555 1_555
C5 N2 1_555 1_555
C6 C4 1_555 1_555
C7 N3 1_555 1_555
C8 C7 1_555 1_555
C9 C8 1_555 1_555
H5 C9 1_555 1_555
C10 C9 1_555 1_555
H6 C10 1_555 1_555
C11 N1 1_555 1_555
H7 C11 1_555 1_555
C12 N1 1_555 1_555
C13 N3 1_555 1_555
C14 C13 1_555 1_555
C15 C14 1_555 1_555
H8 C15 1_555 1_555
C16 C15 1_555 1_555
H9 C16 1_555 1_555
C17 C16 1_555 1_555
H10 C17 1_555 1_555
C18 N5 1_555 1_555
H11 C18 1_555 1_555
C19 O3 1_555 1_555
C20 C19 1_555 1_555
H12 C20 1_555 1_555
H13 C20 1_555 1_555
C21 C20 1_555 1_555
H14 C21 1_555 1_555
H15 C21 1_555 1_555
C22 C21 1_555 1_555
H16 C22 1_555 1_555
H17 C22 1_555 1_555
C23 C22 1_555 1_555
H18 C23 1_555 1_555
H19 C23 1_555 1_555
C24 C23 1_555 1_555
H20 C24 1_555 1_555
H21 C24 1_555 1_555
C25 C24 1_555 1_555
Pb1_2 O4 1_555 1_555
O4_2 Pb1 1_555 1_555
O5_2 Pb1 1_555 1_555
O5 Pb1_2 1_555 1_555
N4 C13 1_555 1_555
C4 C5 1_555 1_555
C5 C12 1_555 1_555
C6 C7 1_555 1_555
C8 C12 1_555 1_555
C10 C11 1_555 1_555
C14 C18 1_555 1_555

#END
