
#######################################################################
#
#                 Cambridge Crystallographic Data Centre
#                                CCDC 
#
#######################################################################
#
# If this CIF has been generated from an entry in the Cambridge 
# Structural Database, then it will include bibliographic, chemical, 
# crystal, experimental, refinement or atomic coordinate data resulting 
# from the CCDC's data processing and validation procedures.
#
#######################################################################

data_KAYSEK
_symmetry_cell_setting           triclinic
_symmetry_space_group_name_H-M   'P -1'
_symmetry_Int_Tables_number      2
_space_group_name_Hall           '-P 1'
loop_
_symmetry_equiv_pos_site_id
_symmetry_equiv_pos_as_xyz
1 x,y,z
2 -x,-y,-z
_cell_length_a                   10.0032(18)
_cell_length_b                   11.788(2)
_cell_length_c                   12.707(2)
_cell_angle_alpha                104.650(2)
_cell_angle_beta                 106.929(2)
_cell_angle_gamma                97.968(2)
_cell_volume                     1349.88
loop_
_atom_site_label
_atom_site_type_symbol
_atom_site_fract_x
_atom_site_fract_y
_atom_site_fract_z
Ag1 Ag -0.08346(5) 0.17452(4) -0.11264(3)
C1 C 0.1687(5) 0.0971(5) 0.0310(4)
H1 H 0.1602 0.0501 -0.0425
C2 C 0.2733(6) 0.0893(5) 0.1234(4)
H2 H 0.3333 0.0373 0.1118
C3 C 0.2914(6) 0.1575(5) 0.2342(4)
C4 C 0.1958(6) 0.2320(5) 0.2442(4)
H3 H 0.2023 0.2796 0.3169
C5 C 0.0917(5) 0.2356(5) 0.1469(4)
H4 H 0.0295 0.2862 0.1558
C6 C 0.4126(9) 0.1529(7) 0.3351(6)
H5 H 0.4871 0.1190 0.3219
C7 C 0.4144(9) 0.1972(10) 0.4441(6)
H6 H 0.3420 0.2341 0.4576
C8 C 0.5327(6) 0.1875(6) 0.5447(5)
C9 C 0.6625(7) 0.1600(7) 0.5377(5)
H7 H 0.6785 0.1448 0.4674
C10 C 0.7662(6) 0.1554(6) 0.6345(4)
H8 H 0.8529 0.1399 0.6288
C11 C 0.6207(6) 0.1942(5) 0.7399(4)
H9 H 0.6039 0.2030 0.8094
C12 C 0.5149(6) 0.2044(5) 0.6492(4)
H10 H 0.4309 0.2228 0.6587
N1 N 0.0770(4) 0.1691(4) 0.0404(3)
N2 N 0.7465(4) 0.1725(4) 0.7357(3)
Ag1_2 Ag 0.91654(5) 0.17452(4) 0.88736(3)
N2_2 N -0.2535(4) 0.1725(4) -0.2643(3)
C13 C 0.3029(5) 0.4545(4) 0.0571(4)
C14 C 0.3070(4) 0.3802(4) -0.0466(3)
C15 C 0.4061(5) 0.3087(4) -0.0429(4)
H11 H 0.4101 0.2607 -0.1119
C16 C 0.4997(4) 0.3073(4) 0.0617(3)
C17 C 0.4943(5) 0.3808(4) 0.1649(4)
H12 H 0.5561 0.3806 0.2355
C18 C 0.3966(5) 0.4540(4) 0.1621(4)
H13 H 0.3938 0.5031 0.2310
C19 C 0.2012(5) 0.5370(4) 0.0592(4)
C20 C 0.1958(5) 0.3667(4) -0.1613(4)
C21 C 0.5926(5) 0.2175(4) 0.0603(4)
C22 C 0.7112(5) 0.2262(4) 0.1683(3)
C23 C 0.7354(5) 0.1198(4) 0.1909(4)
H14 H 0.6809 0.0462 0.1377
C24 C 0.8402(5) 0.1220(4) 0.2921(3)
C25 C 0.9206(5) 0.2344(4) 0.3728(3)
C26 C 0.8987(5) 0.3395(4) 0.3478(4)
H15 H 0.9533 0.4134 0.4003
C27 C 0.7965(5) 0.3359(4) 0.2459(4)
H16 H 0.7850 0.4070 0.2291
C28 C 0.8630(5) 0.0049(4) 0.3123(4)
C29 C 1.0331(5) 0.2415(5) 0.4854(4)
O1 O 0.1336(4) 0.5243(4) 0.1329(3)
H17 H 0.0741 0.5659 0.1298
O2 O 0.1877(4) 0.6075(3) 0.0057(3)
O3 O 0.0700(3) 0.3652(3) -0.1689(3)
O4 O 0.2434(4) 0.3532(3) -0.2458(3)
O5 O 1.0575(5) 0.3363(4) 0.5686(3)
O6 O 1.0934(4) 0.1584(3) 0.4892(3)
O7 O 0.8185(4) -0.0140(4) 0.3948(4)
O8 O 0.9089(5) -0.0650(4) 0.2544(3)
O9 O 0.5665(4) 0.1333(3) -0.0275(3)
H18 H 0.166(9) 0.344(7) -0.308(8)
H19 H 0.842(6) -0.063(5) 0.416(5)
O10 O 0.3667(12) 0.4991(11) 0.5455(10)
H20 H 0.3053 0.5158 0.4930
H21 H 0.3331 0.4345 0.5512
H22 H 0.1611 0.5447 0.3096
H23 H 0.1066 0.5859 0.3980
O11 O 0.1738(8) 0.5510(7) 0.3797(7)
loop_
_geom_bond_atom_site_label_1
_geom_bond_atom_site_label_2
_geom_bond_site_symmetry_1
_geom_bond_site_symmetry_2
Ag1 N1 1_555 1_555
C1 H1 1_555 1_555
C2 C1 1_555 1_555
H2 C2 1_555 1_555
C3 C2 1_555 1_555
C4 C3 1_555 1_555
H3 C4 1_555 1_555
C5 C4 1_555 1_555
H4 C5 1_555 1_555
C6 C3 1_555 1_555
H5 C6 1_555 1_555
C7 C6 1_555 1_555
H6 C7 1_555 1_555
C8 C7 1_555 1_555
C9 C8 1_555 1_555
H7 C9 1_555 1_555
C10 C9 1_555 1_555
H8 C10 1_555 1_555
C11 H9 1_555 1_555
C12 C8 1_555 1_555
H10 C12 1_555 1_555
N1 C1 1_555 1_555
N2 C10 1_555 1_555
C13 C14 1_555 1_555
C14 C15 1_555 1_555
C15 H11 1_555 1_555
C16 C15 1_555 1_555
C17 C16 1_555 1_555
H12 C17 1_555 1_555
C18 C13 1_555 1_555
H13 C18 1_555 1_555
C19 C13 1_555 1_555
C20 C14 1_555 1_555
C21 C16 1_555 1_555
C22 C21 1_555 1_555
C23 C22 1_555 1_555
H14 C23 1_555 1_555
C24 C23 1_555 1_555
C25 C24 1_555 1_555
C26 C25 1_555 1_555
H15 C26 1_555 1_555
C27 C22 1_555 1_555
H16 C27 1_555 1_555
C28 C24 1_555 1_555
C29 C25 1_555 1_555
O1 C19 1_555 1_555
H17 O1 1_555 1_555
O2 C19 1_555 1_555
O3 C20 1_555 1_555
O4 C20 1_555 1_555
O5 C29 1_555 1_555
O6 C29 1_555 1_555
O7 C28 1_555 1_555
O8 C28 1_555 1_555
O9 C21 1_555 1_555
H18 O4 1_555 1_555
H19 O7 1_555 1_555
O10 H20 1_555 1_555
H21 O10 1_555 1_555
H22 O11 1_555 1_555
H23 O11 1_555 1_555
Ag1_2 N2 1_555 1_555
N2_2 Ag1 1_555 1_555
C5 N1 1_555 1_555
C11 C12 1_555 1_555
C11 N2 1_555 1_555
C17 C18 1_555 1_555
C26 C27 1_555 1_555

#END
