
#######################################################################
#
#                 Cambridge Crystallographic Data Centre
#                                CCDC 
#
#######################################################################
#
# If this CIF has been generated from an entry in the Cambridge 
# Structural Database, then it will include bibliographic, chemical, 
# crystal, experimental, refinement or atomic coordinate data resulting 
# from the CCDC's data processing and validation procedures.
#
#######################################################################

data_KAYWUE
_symmetry_cell_setting           triclinic
_symmetry_space_group_name_H-M   'P -1'
_symmetry_Int_Tables_number      2
_space_group_name_Hall           '-P 1'
loop_
_symmetry_equiv_pos_site_id
_symmetry_equiv_pos_as_xyz
1 x,y,z
2 -x,-y,-z
_cell_length_a                   9.2089(6)
_cell_length_b                   10.5917(7)
_cell_length_c                   14.3096(11)
_cell_angle_alpha                85.9350(12)
_cell_angle_beta                 76.8730(11)
_cell_angle_gamma                70.6070(10)
_cell_volume                     1282.12
loop_
_atom_site_label
_atom_site_type_symbol
_atom_site_fract_x
_atom_site_fract_y
_atom_site_fract_z
I1 I 1.06160(6) 0.28826(5) 0.24177(4)
I2 I 0.61291(7) 0.58521(5) 0.13120(4)
Cd1 Cd 0.76177(5) 0.35510(4) 0.21644(3)
N1 N 0.7597(6) 0.1809(5) 0.1377(4)
N2 N 0.7401(6) 0.0710(5) 0.0166(4)
N3 N 0.5883(6) 0.3650(5) 0.3583(4)
N4 N 0.3613(6) 0.4433(5) 0.4641(4)
C1 C 0.7009(7) 0.1878(6) 0.0611(5)
H1 H 0.6373 0.2675 0.0398
C2 C 0.8343(7) -0.0253(6) 0.0687(4)
C3 C 0.8460(7) 0.0441(6) 0.1440(4)
C4 C 0.9334(8) -0.0239(7) 0.2108(5)
H2 H 0.9411 0.0215 0.2618
C5 C 1.0088(8) -0.1613(7) 0.1991(5)
C6 C 0.9939(8) -0.2287(6) 0.1213(6)
C7 C 0.9069(7) -0.1615(6) 0.0553(5)
H3 H 0.8976 -0.2059 0.0043
C8 C 0.6837(8) 0.0443(7) -0.0661(5)
H4 H 0.7732 -0.0062 -0.1142
H5 H 0.6326 0.1287 -0.0945
C9 C 0.4519(8) 0.4606(7) 0.3795(5)
H6 H 0.4209 0.5334 0.3397
C10 C 0.4470(8) 0.3241(7) 0.5010(5)
C11 C 0.5873(7) 0.2770(7) 0.4351(5)
C12 C 0.7000(9) 0.1582(7) 0.4530(5)
H7 H 0.7967 0.1266 0.4102
C13 C 0.6664(10) 0.0880(8) 0.5350(6)
C14 C 0.5235(10) 0.1343(8) 0.6021(5)
C15 C 0.4141(9) 0.2528(8) 0.5861(5)
H8 H 0.3194 0.2861 0.6305
C16 C 0.4906(13) 0.0551(12) 0.6892(7)
H9 H 0.4054 0.1112 0.7358
H10 H 0.5831 0.0211 0.7156
H11 H 0.4618 -0.0182 0.6725
C17 C 0.0876(7) 0.4567(8) 0.4800(6)
H12 H 0.1090 0.3687 0.5090
H13 H 0.1056 0.4457 0.4111
C18 C 0.1976(7) 0.5248(7) 0.5022(5)
H14 H 0.1763 0.6129 0.4734
H15 H 0.1802 0.5354 0.5711
C19 C 1.0765(11) -0.3810(7) 0.1068(8)
H16 H 1.0698 -0.4067 0.0454
H17 H 1.0259 -0.4279 0.1564
H18 H 1.1853 -0.4031 0.1097
C20 C 1.1038(11) -0.2366(9) 0.2697(7)
H19 H 1.0617 -0.3050 0.2993
H20 H 1.0989 -0.1761 0.3180
H21 H 1.2115 -0.2771 0.2370
C21 C 0.7842(13) -0.0477(9) 0.5531(8)
H22 H 0.8877 -0.0534 0.5170
H23 H 0.7537 -0.1182 0.5334
H24 H 0.7850 -0.0565 0.6202
C22 C 0.5685(8) -0.0335(8) -0.0374(5)
H25 H 0.5326 -0.0465 -0.0936
H26 H 0.6230 -0.1211 -0.0147
I1A I -1.06160(6) 0.71174(5) 0.75823(4)
I2A I -0.61291(7) 0.41479(5) 0.86880(4)
Cd1A Cd 0.23823(5) -0.35510(4) -0.21644(3)
Cd1A_2 Cd -0.76177(5) 0.64490(4) 0.78356(3)
N1A N 0.2403(6) -0.1809(5) -0.1377(4)
N1A_2 N -0.7597(6) 0.8191(5) 0.8623(4)
N2A N 0.2599(6) -0.0710(5) -0.0166(4)
N3A N -0.5883(6) 0.6350(5) 0.6417(4)
N4A N -0.3613(6) 0.5567(5) 0.5359(4)
C1A C 0.2991(7) -0.1878(6) -0.0611(5)
H1A H 0.3627 -0.2675 -0.0398
C2A C 0.1657(7) 0.0253(6) -0.0687(4)
C3A C 0.1540(7) -0.0441(6) -0.1440(4)
C4A C 0.0666(8) 0.0239(7) -0.2108(5)
H2A H 0.0589 -0.0215 -0.2618
C5A C -0.0088(8) 0.1613(7) -0.1991(5)
C6A C 0.0061(8) 0.2287(6) -0.1213(6)
C7A C 0.0931(7) 0.1615(6) -0.0553(5)
H3A H 0.1024 0.2059 -0.0043
C8A C 0.3163(8) -0.0443(7) 0.0661(5)
H4A H 0.2268 0.0062 0.1142
H5A H 0.3674 -0.1287 0.0945
C9A C -0.4519(8) 0.5394(7) 0.6205(5)
H6A H -0.4209 0.4666 0.6603
C10A C -0.4470(8) 0.6759(7) 0.4990(5)
C11A C -0.5873(7) 0.7230(7) 0.5649(5)
C12A C -0.7000(9) 0.8418(7) 0.5470(5)
H7A H -0.7967 0.8734 0.5898
C13A C -0.6664(10) 0.9120(8) 0.4650(6)
C14A C -0.5235(10) 0.8657(8) 0.3979(5)
C15A C -0.4141(9) 0.7472(8) 0.4139(5)
H8A H -0.3194 0.7139 0.3695
C16A C -0.4906(13) 0.9449(12) 0.3108(7)
H9A H -0.4054 0.8888 0.2642
H10A H -0.5831 0.9789 0.2844
H11A H -0.4618 1.0182 0.3275
C17A C -0.0876(7) 0.5433(8) 0.5200(6)
H12A H -0.1090 0.6313 0.4910
H13A H -0.1056 0.5543 0.5889
C18A C -0.1976(7) 0.4752(7) 0.4978(5)
H14A H -0.1763 0.3871 0.5266
H15A H -0.1802 0.4646 0.4289
C19A C -0.0765(11) 0.3810(7) -0.1068(8)
H16A H -0.0698 0.4067 -0.0454
H17A H -0.0259 0.4279 -0.1564
H18A H -0.1853 0.4031 -0.1097
C20A C -0.1038(11) 0.2366(9) -0.2697(7)
H19A H -0.0617 0.3050 -0.2993
H20A H -0.0989 0.1761 -0.3180
H21A H -0.2115 0.2771 -0.2370
C21A C -0.7842(13) 1.0477(9) 0.4469(8)
H22A H -0.8877 1.0534 0.4830
H23A H -0.7537 1.1182 0.4666
H24A H -0.7850 1.0565 0.3798
C22A C 0.4315(8) 0.0335(8) 0.0374(5)
H25A H 0.4674 0.0465 0.0936
H26A H 0.3770 0.1211 0.0147
loop_
_geom_bond_atom_site_label_1
_geom_bond_atom_site_label_2
_geom_bond_site_symmetry_1
_geom_bond_site_symmetry_2
I1 Cd1 1_555 1_555
I2 Cd1 1_555 1_555
Cd1 N1 1_555 1_555
N1 C1 1_555 1_555
N2 C1 1_555 1_555
N3 Cd1 1_555 1_555
N4 C9 1_555 1_555
C1 H1 1_555 1_555
C2 N2 1_555 1_555
C3 N1 1_555 1_555
C4 C3 1_555 1_555
H2 C4 1_555 1_555
C5 C4 1_555 1_555
C6 C5 1_555 1_555
C7 C2 1_555 1_555
H3 C7 1_555 1_555
C8 N2 1_555 1_555
H4 C8 1_555 1_555
H5 C8 1_555 1_555
C9 N3 1_555 1_555
H6 C9 1_555 1_555
C10 N4 1_555 1_555
C11 N3 1_555 1_555
C12 C11 1_555 1_555
H7 C12 1_555 1_555
C13 C12 1_555 1_555
C14 C13 1_555 1_555
C15 C10 1_555 1_555
H8 C15 1_555 1_555
C16 C14 1_555 1_555
H9 C16 1_555 1_555
H10 C16 1_555 1_555
H11 C16 1_555 1_555
C17 H12 1_555 1_555
H13 C17 1_555 1_555
C18 N4 1_555 1_555
H14 C18 1_555 1_555
H15 C18 1_555 1_555
C19 C6 1_555 1_555
H16 C19 1_555 1_555
H17 C19 1_555 1_555
H18 C19 1_555 1_555
C20 C5 1_555 1_555
H19 C20 1_555 1_555
H20 C20 1_555 1_555
H21 C20 1_555 1_555
C21 C13 1_555 1_555
H22 C21 1_555 1_555
H23 C21 1_555 1_555
H24 C21 1_555 1_555
C22 C8 1_555 1_555
H25 C22 1_555 1_555
H26 C22 1_555 1_555
I1A Cd1A_2 1_555 1_555
I2A Cd1A_2 1_555 1_555
Cd1A N1A 1_555 1_555
Cd1A_2 N1A_2 1_555 1_555
N1A C1A 1_555 1_555
N2A C1A 1_555 1_555
N3A Cd1A_2 1_555 1_555
N4A C9A 1_555 1_555
C1A H1A 1_555 1_555
C2A N2A 1_555 1_555
C3A N1A 1_555 1_555
C4A C3A 1_555 1_555
H2A C4A 1_555 1_555
C5A C4A 1_555 1_555
C6A C5A 1_555 1_555
C7A C2A 1_555 1_555
H3A C7A 1_555 1_555
C8A N2A 1_555 1_555
H4A C8A 1_555 1_555
H5A C8A 1_555 1_555
C9A N3A 1_555 1_555
H6A C9A 1_555 1_555
C10A N4A 1_555 1_555
C11A N3A 1_555 1_555
C12A C11A 1_555 1_555
H7A C12A 1_555 1_555
C13A C12A 1_555 1_555
C14A C13A 1_555 1_555
C15A C10A 1_555 1_555
H8A C15A 1_555 1_555
C16A C14A 1_555 1_555
H9A C16A 1_555 1_555
H10A C16A 1_555 1_555
H11A C16A 1_555 1_555
C17A C17 1_555 1_555
H12A C17A 1_555 1_555
H13A C17A 1_555 1_555
C18A N4A 1_555 1_555
H14A C18A 1_555 1_555
H15A C18A 1_555 1_555
C19A C6A 1_555 1_555
H16A C19A 1_555 1_555
H17A C19A 1_555 1_555
H18A C19A 1_555 1_555
C20A C5A 1_555 1_555
H19A C20A 1_555 1_555
H20A C20A 1_555 1_555
H21A C20A 1_555 1_555
C21A C13A 1_555 1_555
H22A C21A 1_555 1_555
H23A C21A 1_555 1_555
H24A C21A 1_555 1_555
C22A C22 1_555 1_555
H25A C22A 1_555 1_555
H26A C22A 1_555 1_555
C2 C3 1_555 1_555
C6 C7 1_555 1_555
C10 C11 1_555 1_555
C14 C15 1_555 1_555
C17 C18 1_555 1_555
C2A C3A 1_555 1_555
C6A C7A 1_555 1_555
C8A C22A 1_555 1_555
C10A C11A 1_555 1_555
C14A C15A 1_555 1_555
C17A C18A 1_555 1_555

#END
