
#######################################################################
#
#                 Cambridge Crystallographic Data Centre
#                                CCDC 
#
#######################################################################
#
# If this CIF has been generated from an entry in the Cambridge 
# Structural Database, then it will include bibliographic, chemical, 
# crystal, experimental, refinement or atomic coordinate data resulting 
# from the CCDC's data processing and validation procedures.
#
#######################################################################

data_KAYWOY
_symmetry_cell_setting           monoclinic
_symmetry_space_group_name_H-M   'P 21/n'
_symmetry_Int_Tables_number      14
_space_group_name_Hall           '-P 2yn'
loop_
_symmetry_equiv_pos_site_id
_symmetry_equiv_pos_as_xyz
1 x,y,z
2 1/2-x,1/2+y,1/2-z
3 -x,-y,-z
4 1/2+x,1/2-y,1/2+z
_cell_length_a                   10.9075(8)
_cell_length_b                   14.5591(10)
_cell_length_c                   15.2928(11)
_cell_angle_alpha                90
_cell_angle_beta                 107.2890(10)
_cell_angle_gamma                90
_cell_volume                     2318.82
loop_
_atom_site_label
_atom_site_type_symbol
_atom_site_fract_x
_atom_site_fract_y
_atom_site_fract_z
Cd1 Cd 0.85459(6) 0.30774(4) 0.02282(4)
Br1 Br 1.06384(9) 0.37608(8) 0.14786(7)
C1 C 1.1572(8) -0.0911(6) 0.4864(6)
H1 H 1.2046 -0.0598 0.4544
C2 C 0.7919(9) 0.0840(6) 0.0190(6)
N1 N 0.9410(7) -0.0709(5) 0.3680(5)
C3 C 0.9511(8) -0.1440(5) 0.4974(6)
C4 C 1.0102(8) -0.1822(6) 0.5842(6)
H2 H 0.9613 -0.2114 0.6165
C5 C 1.0263(8) -0.1003(6) 0.4503(6)
C6 C 0.6698(10) 0.0864(7) -0.0436(7)
H3 H 0.6286 0.1422 -0.0623
C7 C 0.8523(10) 0.0007(6) 0.0479(6)
N2 N 0.8735(8) 0.1558(5) 0.0608(5)
C8 C 0.8227(8) -0.0967(6) 0.3699(6)
H4 H 0.7485 -0.0835 0.3227
N3 N 0.9719(8) 0.0231(5) 0.1081(5)
N4 N 0.8217(6) -0.1421(5) 0.4443(5)
C9 C 0.9766(9) 0.1159(6) 0.1127(6)
H5 H 1.0467 0.1482 0.1493
C10 C 1.2179(9) -0.1297(7) 0.5724(6)
C11 C 1.1401(9) -0.1756(6) 0.6203(6)
C12 C 0.7959(12) -0.0827(6) 0.0131(7)
H6 H 0.8385 -0.1381 0.0312
C13 C 0.6116(11) 0.0055(7) -0.0771(6)
C14 C 0.6751(12) -0.0806(7) -0.0488(7)
C15 C 1.2037(11) -0.2154(9) 0.7133(7)
H7 H 1.1396 -0.2404 0.7380
H8 H 1.2504 -0.1681 0.7531
H9 H 1.2618 -0.2632 0.7082
C16 C 1.3574(11) -0.1241(10) 0.6099(8)
H10 H 1.3912 -0.0876 0.5701
H11 H 1.3934 -0.1847 0.6148
H12 H 1.3793 -0.0962 0.6695
C17 C 1.0691(10) -0.0404(7) 0.1655(7)
H13 H 1.1456 -0.0057 0.1965
H14 H 1.0925 -0.0852 0.1263
C18 C 0.4748(13) 0.0079(10) -0.1416(8)
H15 H 0.4474 0.0705 -0.1533
H16 H 0.4187 -0.0238 -0.1138
H17 H 0.4724 -0.0217 -0.1982
Br2 Br 0.79546(8) 0.32050(8) -0.16288(6)
C19 C 0.9739(10) -0.0244(6) 0.2953(6)
H18 H 1.0397 0.0210 0.3213
H19 H 0.8989 0.0077 0.2575
C20 C 0.6077(19) -0.1691(9) -0.0907(10)
H20 H 0.6624 -0.2206 -0.0669
H21 H 0.5895 -0.1670 -0.1561
H22 H 0.5289 -0.1755 -0.0754
C21 C 1.0222(9) -0.0901(6) 0.2359(6)
H23 H 1.0918 -0.1267 0.2745
H24 H 0.9534 -0.1317 0.2050
Cd1A Cd 0.64541(6) -0.19226(4) 0.47718(4)
N4A N 0.6783(6) 0.3579(5) 0.0557(5)
loop_
_geom_bond_atom_site_label_1
_geom_bond_atom_site_label_2
_geom_bond_site_symmetry_1
_geom_bond_site_symmetry_2
Cd1 Br1 1_555 1_555
C1 H1 1_555 1_555
C2 C6 1_555 1_555
N1 C5 1_555 1_555
C3 C4 1_555 1_555
C4 H2 1_555 1_555
C5 C1 1_555 1_555
C6 H3 1_555 1_555
C7 C2 1_555 1_555
N2 Cd1 1_555 1_555
C8 N1 1_555 1_555
H4 C8 1_555 1_555
N3 C7 1_555 1_555
N4 C3 1_555 1_555
C9 N2 1_555 1_555
H5 C9 1_555 1_555
C10 C1 1_555 1_555
C11 C4 1_555 1_555
C12 C7 1_555 1_555
H6 C12 1_555 1_555
C13 C6 1_555 1_555
C14 C12 1_555 1_555
C15 C11 1_555 1_555
H7 C15 1_555 1_555
H8 C15 1_555 1_555
H9 C15 1_555 1_555
C16 C10 1_555 1_555
H10 C16 1_555 1_555
H11 C16 1_555 1_555
H12 C16 1_555 1_555
C17 N3 1_555 1_555
H13 C17 1_555 1_555
H14 C17 1_555 1_555
C18 C13 1_555 1_555
H15 C18 1_555 1_555
H16 C18 1_555 1_555
H17 C18 1_555 1_555
Br2 Cd1 1_555 1_555
C19 N1 1_555 1_555
H18 C19 1_555 1_555
H19 C19 1_555 1_555
C20 C14 1_555 1_555
H20 C20 1_555 1_555
H21 C20 1_555 1_555
H22 C20 1_555 1_555
C21 C17 1_555 1_555
H23 C21 1_555 1_555
H24 C21 1_555 1_555
Cd1A N4 1_555 1_555
N4A Cd1 1_555 1_555
C2 N2 1_555 1_555
C3 C5 1_555 1_555
C8 N4 1_555 1_555
N3 C9 1_555 1_555
C10 C11 1_555 1_555
C13 C14 1_555 1_555
C19 C21 1_555 1_555

#END
