
#######################################################################
#
#                 Cambridge Crystallographic Data Centre
#                                CCDC 
#
#######################################################################
#
# If this CIF has been generated from an entry in the Cambridge 
# Structural Database, then it will include bibliographic, chemical, 
# crystal, experimental, refinement or atomic coordinate data resulting 
# from the CCDC's data processing and validation procedures.
#
#######################################################################

data_KAYXIT
_symmetry_cell_setting           monoclinic
_symmetry_space_group_name_H-M   'P 21/c'
_symmetry_Int_Tables_number      14
_space_group_name_Hall           '-P 2ybc'
loop_
_symmetry_equiv_pos_site_id
_symmetry_equiv_pos_as_xyz
1 x,y,z
2 -x,1/2+y,1/2-z
3 -x,-y,-z
4 x,1/2-y,1/2+z
_cell_length_a                   10.144(4)
_cell_length_b                   20.317(8)
_cell_length_c                   18.900(6)
_cell_angle_alpha                90
_cell_angle_beta                 111.560(17)
_cell_angle_gamma                90
_cell_volume                     3622.67
loop_
_atom_site_label
_atom_site_type_symbol
_atom_site_fract_x
_atom_site_fract_y
_atom_site_fract_z
Zn1 Zn 1.50669(3) -0.115760(14) -1.180724(17)
Zn2 Zn 0.99586(3) -0.062414(15) -1.154824(18)
O6 O 0.9337(3) -0.01523(10) -1.26571(13)
O7 O 0.8323(4) -0.03826(12) -1.38974(15)
O8 O 1.0205(2) -0.14653(10) -1.07953(11)
O9 O 0.9410(3) -0.24938(11) -1.08153(12)
O10 O 0.7228(3) -0.28589(10) -1.37226(11)
H1 H 0.6979 -0.2735 -1.4165
O11 O 1.5869(2) -0.16614(9) -1.06298(10)
O12 O 1.6510(3) -0.26396(11) -1.01020(11)
O13 O 1.3969(3) -0.18860(12) -1.39681(11)
O14 O 1.4302(2) -0.11907(9) -1.30050(11)
O15 O 1.5387(3) -0.40603(11) -1.25336(14)
H2 H 1.5373 -0.4300 -1.2188
O16 O 1.2870(2) -0.09731(9) -1.17505(11)
O17 O 1.18508(19) -0.02455(9) -1.12067(12)
O18 O 1.7177(2) -0.08405(10) -1.16717(13)
O19 O 1.8774(2) -0.00598(10) -1.11525(13)
O20 O 1.5840(2) 0.14228(9) -1.00800(12)
H3 H 1.5255 0.1459 -0.9877
N3 N 0.9165(2) -0.13725(10) -1.22659(12)
N4 N 1.5217(2) -0.21232(10) -1.20014(11)
N5 N 1.5225(2) -0.02740(9) -1.13099(12)
C11 C 0.8769(4) -0.05353(14) -1.32116(18)
C12 C 0.8594(3) -0.12455(13) -1.30093(15)
C13 C 0.7906(3) -0.17271(13) -1.35254(15)
H12 H 0.7509 -0.1633 -1.4043
C14 C 0.7817(3) -0.23572(13) -1.32573(15)
C15 C 0.8366(3) -0.24759(13) -1.24716(15)
H13 H 0.8292 -0.2889 -1.2277
C16 C 0.9020(3) -0.19598(13) -1.19961(14)
C17 C 0.9595(3) -0.19734(14) -1.11365(15)
C18 C 1.6090(3) -0.22706(13) -1.06507(14)
C19 C 1.5707(3) -0.25659(12) -1.14382(14)
C20 C 1.5810(3) -0.32225(13) -1.15771(15)
H14 H 1.6171 -0.3519 -1.1177
C21 C 1.5359(4) -0.34381(14) -1.23343(17)
C22 C 1.4868(3) -0.29654(13) -1.29160(16)
H15 H 1.4579 -0.3089 -1.3424
C23 C 1.4824(3) -0.23164(12) -1.27191(14)
C24 C 1.4320(3) -0.17523(14) -1.32923(15)
C25 C 1.2850(3) -0.04584(12) -1.13925(14)
C26 C 1.4162(3) -0.00301(11) -1.11348(13)
C27 C 1.4294(3) 0.05462(12) -1.07302(14)
H16 H 1.3536 0.0715 -1.0623
C28 C 1.5597(3) 0.08698(11) -1.04868(14)
C29 C 1.6716(3) 0.06063(12) -1.06630(15)
H17 H 1.7595 0.0813 -1.0502
C30 C 1.6479(3) 0.00361(12) -1.10783(14)
C31 C 1.7558(3) -0.03172(13) -1.13193(16)
Zn2_2 Zn 1.99586(3) -0.062414(15) -1.154824(18)
O19_2 O 0.8774(2) -0.00598(10) -1.11525(13)
O1 O 1.0818(13) -0.0630(5) -1.4391(8)
O2 O 1.0566(14) 0.1140(4) -1.4222(7)
O3 O 1.1238(7) 0.0807(3) -1.2758(5)
O4 O 0.5880(6) -0.0438(3) -1.5166(3)
O5 O 1.6501(6) -0.4941(2) -1.1426(3)
N1 N 1.2990(3) -0.16436(13) -0.54370(14)
N2 N 1.0321(3) -0.22908(17) -0.93380(15)
C1 C 1.2680(6) -0.11435(16) -0.5938(2)
H4 H 1.2825 -0.0712 -0.5763
C2 C 1.2159(5) -0.12634(16) -0.66970(19)
H5 H 1.1937 -0.0912 -0.7036
C3 C 1.1954(3) -0.18994(13) -0.69728(15)
C4 C 1.1375(3) -0.20441(15) -0.78001(16)
C5 C 1.0815(4) -0.15352(18) -0.83236(18)
H6 H 1.0791 -0.1106 -0.8158
C6 C 1.0301(5) -0.1681(2) -0.9089(2)
H7 H 0.9930 -0.1345 -0.9440
C7 C 1.0835(4) -0.27874(19) -0.88542(18)
H8 H 1.0831 -0.3211 -0.9041
C8 C 1.1379(3) -0.26784(16) -0.80727(17)
H9 H 1.1740 -0.3026 -0.7737
C9 C 1.2313(3) -0.24071(13) -0.64340(15)
H10 H 1.2200 -0.2844 -0.6593
C10 C 1.2827(3) -0.22633(14) -0.56783(16)
H11 H 1.3068 -0.2604 -0.5325
O21? O 1.541(2) -0.4911(6) -1.1538(8)
loop_
_geom_bond_atom_site_label_1
_geom_bond_atom_site_label_2
_geom_bond_site_symmetry_1
_geom_bond_site_symmetry_2
Zn1 O11 1_555 1_555
Zn2 O6 1_555 1_555
O6 C11 1_555 1_555
O7 C11 1_555 1_555
O8 Zn2 1_555 1_555
O9 C17 1_555 1_555
O10 H1 1_555 1_555
O11 C18 1_555 1_555
O12 C18 1_555 1_555
O13 C24 1_555 1_555
O14 Zn1 1_555 1_555
O15 H2 1_555 1_555
O16 Zn1 1_555 1_555
O17 Zn2 1_555 1_555
O18 Zn1 1_555 1_555
O19 C31 1_555 1_555
O20 H3 1_555 1_555
N1 C1 1_555 1_555
N2 C6 1_555 1_555
N3 Zn2 1_555 1_555
N4 Zn1 1_555 1_555
N5 Zn1 1_555 1_555
C1 H4 1_555 1_555
C2 C1 1_555 1_555
H5 C2 1_555 1_555
C3 C2 1_555 1_555
C4 C3 1_555 1_555
C5 C4 1_555 1_555
H6 C5 1_555 1_555
C6 C5 1_555 1_555
H7 C6 1_555 1_555
C7 N2 1_555 1_555
H8 C7 1_555 1_555
C8 C4 1_555 1_555
H9 C8 1_555 1_555
C9 C3 1_555 1_555
H10 C9 1_555 1_555
C10 N1 1_555 1_555
H11 C10 1_555 1_555
C11 C12 1_555 1_555
C12 N3 1_555 1_555
C13 C12 1_555 1_555
H12 C13 1_555 1_555
C14 O10 1_555 1_555
C15 C14 1_555 1_555
H13 C15 1_555 1_555
C16 N3 1_555 1_555
C17 O8 1_555 1_555
C18 C19 1_555 1_555
C19 N4 1_555 1_555
C20 C19 1_555 1_555
H14 C20 1_555 1_555
C21 O15 1_555 1_555
C22 C21 1_555 1_555
H15 C22 1_555 1_555
C23 N4 1_555 1_555
C24 O14 1_555 1_555
C25 O16 1_555 1_555
C26 N5 1_555 1_555
C27 C26 1_555 1_555
H16 C27 1_555 1_555
C28 O20 1_555 1_555
C29 C28 1_555 1_555
H17 C29 1_555 1_555
C30 N5 1_555 1_555
C31 O18 1_555 1_555
Zn2_2 O19 1_555 1_555
O19_2 Zn2 1_555 1_555
O17 C25 1_555 1_555
C7 C8 1_555 1_555
C9 C10 1_555 1_555
C13 C14 1_555 1_555
C15 C16 1_555 1_555
C16 C17 1_555 1_555
C20 C21 1_555 1_555
C22 C23 1_555 1_555
C23 C24 1_555 1_555
C25 C26 1_555 1_555
C27 C28 1_555 1_555
C29 C30 1_555 1_555
C30 C31 1_555 1_555

#END
