
#######################################################################
#
#                 Cambridge Crystallographic Data Centre
#                                CCDC 
#
#######################################################################
#
# If this CIF has been generated from an entry in the Cambridge 
# Structural Database, then it will include bibliographic, chemical, 
# crystal, experimental, refinement or atomic coordinate data resulting 
# from the CCDC's data processing and validation procedures.
#
#######################################################################

data_KAYXAL
_symmetry_cell_setting           monoclinic
_symmetry_space_group_name_H-M   'P 21/n'
_symmetry_Int_Tables_number      14
_space_group_name_Hall           '-P 2yn'
loop_
_symmetry_equiv_pos_site_id
_symmetry_equiv_pos_as_xyz
1 x,y,z
2 1/2-x,1/2+y,1/2-z
3 -x,-y,-z
4 1/2+x,1/2-y,1/2+z
_cell_length_a                   11.0305(8)
_cell_length_b                   14.4886(10)
_cell_length_c                   16.3552(12)
_cell_angle_alpha                90
_cell_angle_beta                 98.6770(10)
_cell_angle_gamma                90
_cell_volume                     2583.91
loop_
_atom_site_label
_atom_site_type_symbol
_atom_site_fract_x
_atom_site_fract_y
_atom_site_fract_z
Cd1 Cd 0.07714(3) 0.10652(3) 0.83962(2)
Br1 Br -0.10564(5) 0.00260(4) 0.79232(4)
Br2 Br 0.05883(6) 0.23044(5) 0.94649(4)
N1 N 0.2300(4) 0.0187(3) 0.9078(3)
C1 C 0.7068(5) -0.1041(4) 1.4522(3)
H1 H 0.6503 -0.1342 1.4798
C2 C 0.3867(4) -0.0800(3) 0.9472(3)
C3 C 0.7462(5) -0.1435(4) 1.3835(3)
N2 N 0.7134(4) -0.2251(3) 1.3405(3)
C4 C 0.3557(5) -0.0990(4) 1.0968(3)
H2 H 0.3200 -0.0590 1.1344
H3 H 0.4441 -0.0973 1.1126
N3 N 0.3251(4) -0.0630(3) 1.0131(2)
C5 C 0.8306(5) -0.1004(4) 1.3411(3)
C6 C 0.2335(5) -0.0045(3) 0.9853(3)
H4 H 0.1778 0.0174 1.0182
C7 C 0.4896(4) -0.1333(4) 0.9396(3)
H5 H 0.5281 -0.1678 0.9840
C8 C 0.4729(4) -0.0805(4) 0.7975(3)
N4 N 0.8464(4) -0.1544(3) 1.2737(3)
C9 C 0.8776(5) -0.0155(4) 1.3682(3)
H6 H 0.9344 0.0140 1.3406
C10 C 0.3270(4) -0.0280(3) 0.8814(3)
C11 C 0.5330(4) -0.1338(4) 0.8649(3)
C12 C 0.7773(5) -0.2267(4) 1.2759(3)
H7 H 0.7722 -0.2743 1.2373
C13 C 0.3116(5) -0.1960(4) 1.1065(3)
H8 H 0.3534 -0.2375 1.0734
H9 H 0.2244 -0.1994 1.0864
C14 C 0.7537(6) -0.0189(5) 1.4787(3)
C15 C 0.3359(5) -0.2265(5) 1.1971(3)
H10 H 0.3011 -0.1809 1.2302
H11 H 0.2930 -0.2842 1.2022
C16 C 0.3715(4) -0.0287(4) 0.8063(3)
H12 H 0.3326 0.0059 0.7621
C17 C 0.6441(6) -0.1906(5) 0.8554(4)
H13 H 0.6760 -0.2183 0.9076
H14 H 0.7056 -0.1517 0.8377
H15 H 0.6216 -0.2381 0.8151
C18 C 0.8403(5) 0.0254(4) 1.4361(3)
C19 C 0.5238(6) -0.0773(5) 0.7173(3)
H16 H 0.4706 -0.0412 0.6778
H17 H 0.5293 -0.1389 0.6964
H18 H 0.6039 -0.0499 0.7264
C20 C 0.4901(5) -0.2545(4) 1.3250(3)
H19 H 0.4303 -0.2984 1.3394
H20 H 0.4775 -0.1966 1.3523
C21 C 0.6176(5) -0.2899(4) 1.3568(4)
H21 H 0.6298 -0.3485 1.3306
H22 H 0.6249 -0.3004 1.4160
C22 C 0.7099(8) 0.0265(5) 1.5526(4)
H23 H 0.6362 -0.0032 1.5635
H24 H 0.7721 0.0209 1.6002
H25 H 0.6935 0.0906 1.5409
C23 C 0.8907(7) 0.1181(5) 1.4643(4)
H26 H 0.8298 0.1646 1.4483
H27 H 0.9124 0.1180 1.5234
H28 H 0.9622 0.1309 1.4393
C24 C 0.4682(5) -0.2396(4) 1.2321(4)
H29 H 0.4998 -0.2924 1.2055
H30 H 0.5139 -0.1857 1.2191
Cd1B Cd 0.92286(3) -0.10652(3) 1.16038(2)
N4B N 0.1536(4) 0.1544(3) 0.7263(3)
loop_
_geom_bond_atom_site_label_1
_geom_bond_atom_site_label_2
_geom_bond_site_symmetry_1
_geom_bond_site_symmetry_2
Cd1 Br1 1_555 1_555
Br2 Cd1 1_555 1_555
N1 Cd1 1_555 1_555
C1 H1 1_555 1_555
C2 N3 1_555 1_555
C3 C1 1_555 1_555
N2 C3 1_555 1_555
C4 H2 1_555 1_555
H3 C4 1_555 1_555
N3 C4 1_555 1_555
C5 C3 1_555 1_555
C6 N1 1_555 1_555
H4 C6 1_555 1_555
C7 C2 1_555 1_555
H5 C7 1_555 1_555
C8 C11 1_555 1_555
N4 C5 1_555 1_555
C9 C5 1_555 1_555
H6 C9 1_555 1_555
C10 N1 1_555 1_555
C11 C7 1_555 1_555
C12 N2 1_555 1_555
H7 C12 1_555 1_555
C13 C4 1_555 1_555
H8 C13 1_555 1_555
H9 C13 1_555 1_555
C14 C1 1_555 1_555
C15 C13 1_555 1_555
H10 C15 1_555 1_555
H11 C15 1_555 1_555
C16 C8 1_555 1_555
H12 C16 1_555 1_555
C17 C11 1_555 1_555
H13 C17 1_555 1_555
H14 C17 1_555 1_555
H15 C17 1_555 1_555
C18 C9 1_555 1_555
C19 C8 1_555 1_555
H16 C19 1_555 1_555
H17 C19 1_555 1_555
H18 C19 1_555 1_555
C20 H19 1_555 1_555
H20 C20 1_555 1_555
C21 N2 1_555 1_555
H21 C21 1_555 1_555
H22 C21 1_555 1_555
C22 C14 1_555 1_555
H23 C22 1_555 1_555
H24 C22 1_555 1_555
H25 C22 1_555 1_555
C23 C18 1_555 1_555
H26 C23 1_555 1_555
H27 C23 1_555 1_555
H28 C23 1_555 1_555
C24 C15 1_555 1_555
H29 C24 1_555 1_555
H30 C24 1_555 1_555
Cd1B N4 1_555 1_555
N4B Cd1 1_555 1_555
C2 C10 1_555 1_555
N3 C6 1_555 1_555
N4 C12 1_555 1_555
C10 C16 1_555 1_555
C14 C18 1_555 1_555
C20 C21 1_555 1_555
C20 C24 1_555 1_555

#END
