
#######################################################################
#
#                 Cambridge Crystallographic Data Centre
#                                CCDC 
#
#######################################################################
#
# If this CIF has been generated from an entry in the Cambridge 
# Structural Database, then it will include bibliographic, chemical, 
# crystal, experimental, refinement or atomic coordinate data resulting 
# from the CCDC's data processing and validation procedures.
#
#######################################################################

data_KAYZIV
_symmetry_cell_setting           monoclinic
_symmetry_space_group_name_H-M   'P 21/c'
_symmetry_Int_Tables_number      14
_space_group_name_Hall           '-P 2ybc'
loop_
_symmetry_equiv_pos_site_id
_symmetry_equiv_pos_as_xyz
1 x,y,z
2 -x,1/2+y,1/2-z
3 -x,-y,-z
4 x,1/2-y,1/2+z
_cell_length_a                   11.708
_cell_length_b                   15.839
_cell_length_c                   18.196
_cell_angle_alpha                90
_cell_angle_beta                 117.34
_cell_angle_gamma                90
_cell_volume                     2997.4
loop_
_atom_site_label
_atom_site_type_symbol
_atom_site_fract_x
_atom_site_fract_y
_atom_site_fract_z
Cu1 Cu 0.48362(4) 0.12044(3) 0.03345(3)
Cu2 Cu 0.46918(4) 0.42333(3) 0.05225(3)
O1 O 0.4464(3) 0.0000(2) 0.0758(2)
C1 C 0.4186(4) -0.0739(3) 0.0797(3)
O2 O 0.4472(3) -0.13552(19) 0.0456(2)
C2 C 0.3449(6) -0.0954(4) 0.1260(4)
H1 H 0.3844 -0.0673 0.1801
H2 H 0.3463 -0.1566 0.1340
H3 H 0.2557 -0.0763 0.0944
O3 O 0.4239(3) 0.18224(17) 0.10939(19)
C3 C 0.4293(4) 0.2617(2) 0.1076(3)
O4 O 0.4664(3) 0.29922(17) 0.05995(18)
C4 C 0.3924(5) 0.3121(3) 0.1633(3)
H4 H 0.3993 0.2764 0.2092
H5 H 0.3037 0.3320 0.1319
H6 H 0.4503 0.3606 0.1853
O5 O 0.5315(3) 0.45140(17) -0.05199(18)
C5 C 0.5654(4) 0.4246(3) -0.1069(3)
C6 C 0.5635(5) 0.3307(3) -0.1199(3)
H7 H 0.6412 0.3137 -0.1235
H8 H 0.4874 0.3155 -0.1713
H9 H 0.5605 0.3015 -0.0733
O6 O 0.5940(3) 0.4736(2) -0.1489(2)
N1 N 1.2847(3) 0.0837(2) 0.4661(2)
N2 N 0.6612(3) 0.1146(2) 0.1300(2)
N3 N 0.3028(3) 0.1177(2) -0.0585(2)
N4 N -0.3459(3) 0.0814(2) -0.3616(2)
C7 C 1.1904(4) 0.0328(3) 0.4615(3)
H10 H 1.2105 -0.0091 0.5030
C8 C 1.0659(4) 0.0381(3) 0.3996(3)
H11 H 1.0014 0.0019 0.4000
C9 C 1.0351(4) 0.0972(3) 0.3363(3)
C10 C 1.1329(4) 0.1508(3) 0.3411(3)
H12 H 1.1160 0.1926 0.3000
C11 C 1.2539(4) 0.1422(3) 0.4062(3)
H13 H 1.3193 0.1796 0.4091
C12 C 0.6768(4) 0.0934(3) 0.2063(3)
H14 H 0.6021 0.0823 0.2127
C13 C 0.7946(4) 0.0870(3) 0.2747(3)
H15 H 0.8008 0.0719 0.3270
C14 C 0.9045(4) 0.1031(3) 0.2660(3)
C15 C 0.8886(4) 0.1243(3) 0.1865(3)
H16 H 0.9617 0.1347 0.1780
C16 C 0.7673(4) 0.1299(3) 0.1216(3)
H17 H 0.7580 0.1451 0.0686
C17 C 0.2092(4) 0.0980(3) -0.0377(3)
H18 H 0.2316 0.0894 0.0190
C18 C 0.0826(4) 0.0899(3) -0.0958(3)
H19 H 0.0190 0.0757 -0.0792
C19 C 0.0476(4) 0.1030(3) -0.1804(3)
C20 C 0.1436(4) 0.1234(3) -0.2013(3)
H20 H 0.1237 0.1329 -0.2575
C21 C 0.2698(4) 0.1298(3) -0.1392(3)
H21 H 0.3353 0.1432 -0.1543
C22 C -0.2944(4) 0.0299(3) -0.2953(3)
H22 H -0.3477 -0.0117 -0.2890
C23 C -0.1676(4) 0.0351(3) -0.2361(3)
H23 H -0.1349 -0.0029 -0.1906
C24 C -0.0881(4) 0.0958(3) -0.2431(3)
C25 C -0.1402(4) 0.1483(3) -0.3123(3)
H24 H -0.0883 0.1898 -0.3202
C26 C -0.2682(4) 0.1394(3) -0.3693(3)
H25 H -0.3028 0.1759 -0.4160
Cu1B Cu 0.51638(4) -0.12044(3) -0.03345(3)
Cu2B Cu 0.53082(4) 0.57667(3) -0.05225(3)
Cu2C Cu 1.46918(4) 0.07667(3) 0.55225(3)
Cu2C_2 Cu -0.53082(4) 0.07667(3) -0.44775(3)
O2B O 0.5528(3) 0.13552(19) -0.0456(2)
O5B O 0.4685(3) 0.54860(17) 0.05199(18)
N1C N 0.2847(3) 0.4163(2) -0.0339(2)
N4C N 0.6541(3) 0.4186(2) 0.1384(2)
P1 P 0.98124(13) 0.23462(8) 0.51981(9)
F1 F 0.8516(3) 0.2340(2) 0.5283(2)
F2 F 1.0591(4) 0.2280(3) 0.6205(2)
F3 F 0.9046(4) 0.2440(3) 0.4224(2)
F4 F 1.1118(3) 0.2359(3) 0.5140(3)
F5 F 0.9869(4) 0.3347(2) 0.5298(2)
F6 F 0.9757(5) 0.1353(2) 0.5133(3)
O7 O 0.2653(5) 0.1260(3) 0.1818(3)
H26 H 0.1806 0.1481 0.1497
H27 H 0.3159 0.1266 0.1526
loop_
_geom_bond_atom_site_label_1
_geom_bond_atom_site_label_2
_geom_bond_site_symmetry_1
_geom_bond_site_symmetry_2
Cu1 O1 1_555 1_555
Cu2 O4 1_555 1_555
O1 C1 1_555 1_555
C1 O2 1_555 1_555
O2 Cu1B 1_555 1_555
C2 C1 1_555 1_555
H1 C2 1_555 1_555
H2 C2 1_555 1_555
H3 C2 1_555 1_555
O3 Cu1 1_555 1_555
C3 O3 1_555 1_555
O4 C3 1_555 1_555
C4 C3 1_555 1_555
H4 C4 1_555 1_555
H5 C4 1_555 1_555
H6 C4 1_555 1_555
O5 Cu2 1_555 1_555
C5 O5 1_555 1_555
C6 C5 1_555 1_555
H7 C6 1_555 1_555
H8 C6 1_555 1_555
H9 C6 1_555 1_555
O6 C5 1_555 1_555
N1 C7 1_555 1_555
N2 Cu1 1_555 1_555
N3 Cu1 1_555 1_555
N4 C22 1_555 1_555
C7 H10 1_555 1_555
C8 C7 1_555 1_555
H11 C8 1_555 1_555
C9 C8 1_555 1_555
C10 C9 1_555 1_555
H12 C10 1_555 1_555
C11 N1 1_555 1_555
H13 C11 1_555 1_555
C12 N2 1_555 1_555
H14 C12 1_555 1_555
C13 C12 1_555 1_555
H15 C13 1_555 1_555
C14 C9 1_555 1_555
C15 C14 1_555 1_555
H16 C15 1_555 1_555
C16 N2 1_555 1_555
H17 C16 1_555 1_555
C17 N3 1_555 1_555
H18 C17 1_555 1_555
C18 C17 1_555 1_555
H19 C18 1_555 1_555
C19 C18 1_555 1_555
C20 C19 1_555 1_555
H20 C20 1_555 1_555
C21 N3 1_555 1_555
H21 C21 1_555 1_555
C22 H22 1_555 1_555
C23 C22 1_555 1_555
H23 C23 1_555 1_555
C24 C19 1_555 1_555
C25 C24 1_555 1_555
H24 C25 1_555 1_555
C26 N4 1_555 1_555
H25 C26 1_555 1_555
P1 F1 1_555 1_555
F2 P1 1_555 1_555
F3 P1 1_555 1_555
F4 P1 1_555 1_555
F5 P1 1_555 1_555
F6 P1 1_555 1_555
O7 H26 1_555 1_555
H27 O7 1_555 1_555
Cu2B O5 1_555 1_555
Cu2C N1 1_555 1_555
Cu2C_2 N4 1_555 1_555
O2B Cu1 1_555 1_555
O5B Cu2 1_555 1_555
N1C Cu2 1_555 1_555
N4C Cu2 1_555 1_555
C10 C11 1_555 1_555
C13 C14 1_555 1_555
C15 C16 1_555 1_555
C20 C21 1_555 1_555
C23 C24 1_555 1_555
C25 C26 1_555 1_555
Cu2B O5B 1_555 1_555

#END
