
#######################################################################
#
#                 Cambridge Crystallographic Data Centre
#                                CCDC 
#
#######################################################################
#
# If this CIF has been generated from an entry in the Cambridge 
# Structural Database, then it will include bibliographic, chemical, 
# crystal, experimental, refinement or atomic coordinate data resulting 
# from the CCDC's data processing and validation procedures.
#
#######################################################################

data_KAYZER
_symmetry_cell_setting           orthorhombic
_symmetry_space_group_name_H-M   'P n m a'
_symmetry_Int_Tables_number      62
_space_group_name_Hall           '-P 2ac 2n'
loop_
_symmetry_equiv_pos_site_id
_symmetry_equiv_pos_as_xyz
1 x,y,z
2 1/2-x,-y,1/2+z
3 1/2+x,1/2-y,1/2-z
4 -x,1/2+y,-z
5 -x,-y,-z
6 1/2+x,y,1/2-z
7 1/2-x,1/2+y,1/2+z
8 x,1/2-y,z
_cell_length_a                   7.634(2)
_cell_length_b                   11.074(2)
_cell_length_c                   14.975(2)
_cell_angle_alpha                90
_cell_angle_beta                 90
_cell_angle_gamma                90
_cell_volume                     1265.97
loop_
_atom_site_label
_atom_site_type_symbol
_atom_site_fract_x
_atom_site_fract_y
_atom_site_fract_z
Cu1 Cu 0.11748(5) 0.2500 0.17932(2)
N1 N 0.1043(2) 0.06996(17) 0.18433(12)
C1 C 0.1269(3) 0.0067(2) 0.10912(15)
H1 H 0.1465 0.0491 0.0549
C2 C 0.1229(3) -0.1184(2) 0.10714(15)
H2 H 0.1391 -0.1600 0.0523
C3 C 0.0951(3) -0.18298(19) 0.18543(14)
C4 C 0.0691(3) -0.1159(2) 0.26323(15)
H3 H 0.0479 -0.1557 0.3184
C5 C 0.0743(3) 0.0088(2) 0.25955(15)
H4 H 0.0556 0.0529 0.3131
N2 N 0.3694(4) 0.2500 0.00562(19)
O1 O 0.3604(3) 0.2500 0.08995(15)
O2 O 0.2364(4) 0.2500 -0.0392(2)
O3 O 0.5145(4) 0.2500 -0.0307(2)
O4 O 0.2948(3) 0.2500 0.27433(14)
O5 O 0.4161(3) 0.2500 0.40700(14)
C6 C 0.2822(4) 0.2500 0.3577(2)
H5 H 0.1693 0.2500 0.3844
Cu1B Cu 0.61748(5) 0.2500 0.32068(2)
Cu1_2 Cu 0.11748(5) -0.7500 0.17932(2)
N1G N 0.1043(2) -0.56996(17) 0.18433(12)
N1G_2 N 0.1043(2) 0.43004(17) 0.18433(12)
C1G C 0.1269(3) -0.5067(2) 0.10912(15)
H1G H 0.1465 -0.5491 0.0549
C2G C 0.1229(3) -0.3816(2) 0.10714(15)
H2G H 0.1391 -0.3400 0.0523
C3G C 0.0951(3) -0.31702(19) 0.18543(14)
C4G C 0.0691(3) -0.3841(2) 0.26323(15)
H3G H 0.0479 -0.3443 0.3184
C5G C 0.0743(3) -0.5088(2) 0.25955(15)
H4G H 0.0556 -0.5529 0.3131
O5B O -0.0839(3) 0.2500 0.09300(14)
loop_
_geom_bond_atom_site_label_1
_geom_bond_atom_site_label_2
_geom_bond_site_symmetry_1
_geom_bond_site_symmetry_2
Cu1 N1 1_555 1_555
N1 C1 1_555 1_555
C1 H1 1_555 1_555
C2 C1 1_555 1_555
H2 C2 1_555 1_555
C3 C2 1_555 1_555
C4 C3 1_555 1_555
H3 C4 1_555 1_555
C5 N1 1_555 1_555
H4 C5 1_555 1_555
N2 O1 1_555 1_555
O1 Cu1 1_555 1_555
O2 N2 1_555 1_555
O3 N2 1_555 1_555
O4 Cu1 1_555 1_555
O5 C6 1_555 1_555
C6 O4 1_555 1_555
H5 C6 1_555 1_555
Cu1B O5 1_555 1_555
Cu1_2 N1G 1_555 1_555
N1G C1G 1_555 1_555
N1G_2 Cu1 1_555 1_555
C1G H1G 1_555 1_555
C2G C1G 1_555 1_555
H2G C2G 1_555 1_555
C3G C3 1_555 1_555
C4G C3G 1_555 1_555
H3G C4G 1_555 1_555
C5G N1G 1_555 1_555
H4G C5G 1_555 1_555
O5B Cu1 1_555 1_555
C4 C5 1_555 1_555
C2G C3G 1_555 1_555
C4G C5G 1_555 1_555

#END
