
#######################################################################
#
#                 Cambridge Crystallographic Data Centre
#                                CCDC 
#
#######################################################################
#
# If this CIF has been generated from an entry in the Cambridge 
# Structural Database, then it will include bibliographic, chemical, 
# crystal, experimental, refinement or atomic coordinate data resulting 
# from the CCDC's data processing and validation procedures.
#
#######################################################################

data_KAYZUG
_symmetry_cell_setting           triclinic
_symmetry_space_group_name_H-M   'P -1'
_symmetry_Int_Tables_number      2
_space_group_name_Hall           '-P 1'
loop_
_symmetry_equiv_pos_site_id
_symmetry_equiv_pos_as_xyz
1 x,y,z
2 -x,-y,-z
_cell_length_a                   8.271(3)
_cell_length_b                   11.391(3)
_cell_length_c                   11.821(3)
_cell_angle_alpha                67.43(1)
_cell_angle_beta                 84.41(2)
_cell_angle_gamma                85.14(2)
_cell_volume                     1022.17
loop_
_atom_site_label
_atom_site_type_symbol
_atom_site_fract_x
_atom_site_fract_y
_atom_site_fract_z
Br1 Br -0.7024(5) 0.4591(3) 0.6241(3)
Br2 Br -0.8077(5) 0.5400(3) 0.2805(3)
Br3 Br -0.9975(5) 0.2363(3) 0.5392(3)
Br4 Br 0.1226(7) 0.1909(4) 0.8829(4)
Cu1 Cu -0.7096(6) 0.3794(3) 0.4617(3)
Cu2 Cu 0.0817(5) -0.3948(3) 0.6501(3)
Cu3 Cu 0.0385(6) 0.3299(4) 0.6871(3)
Cu4 Cu 0.0000 0.0000 1.0000
O1 O -0.439(2) 0.0182(15) 0.626(2)
O2 O 0.036(3) -0.102(2) 0.8024(15)
O3 O -0.315(2) 0.144(2) 0.9316(14)
N1 N -0.201(3) -0.050(2) 0.710(2)
N2 N -0.142(3) 0.019(2) 0.865(2)
N3 N -0.391(3) 0.091(2) 0.774(2)
C1 C -0.336(4) 0.018(2) 0.709(2)
C2 C -0.112(4) -0.041(2) 0.789(2)
C3 C -0.281(4) 0.082(2) 0.858(2)
C4 C -0.586(4) 0.109(3) 0.601(2)
C5 C -0.523(4) 0.232(2) 0.508(2)
C6 C -0.544(4) 0.279(3) 0.385(2)
C7 C 0.097(4) -0.177(3) 0.722(2)
C8 C 0.025(4) -0.305(3) 0.775(2)
C9 C 0.116(4) -0.410(3) 0.831(2)
C10 C -0.462(4) 0.219(3) 0.921(3)
C11 C -0.451(5) 0.290(4) 1.006(4)
C12 C -0.573(5) 0.321(3) 1.052(3)
H1 H -0.470 0.277 0.840
H2 H -0.551 0.161 0.946
H3 H -0.359 0.296 1.034
H4 H -0.689 0.318 1.033
H5 H -0.569 0.368 1.107
H6 H -0.659 0.078 0.566
H7 H -0.622 0.120 0.673
H8 H -0.460 0.281 0.534
H9 H -0.602 0.226 0.358
H10 H -0.505 0.351 0.333
H11 H 0.217 -0.189 0.720
H12 H 0.069 -0.132 0.637
H13 H -0.08 -0.305 0.767
H14 H 0.222 -0.410 0.843
H15 H 0.060 -0.488 0.867
Br1_2 Br 0.2976(5) -0.5409(3) 0.6241(3)
Br1_3 Br 0.2976(5) 0.4591(3) 0.6241(3)
Br1A Br 0.7024(5) -0.4591(3) 1.3759(3)
Br1A_2 Br -0.2976(5) 0.5409(3) 1.3759(3)
Br1A_3 Br -0.2976(5) -0.4591(3) 1.3759(3)
Br2A Br -0.1923(5) -0.5400(3) 0.7195(3)
Br2A_2 Br -0.1923(5) 0.4600(3) 0.7195(3)
Br2A_3 Br 0.8077(5) -0.5400(3) 1.7195(3)
Br2_2 Br 0.1923(5) 0.5400(3) 1.2805(3)
Br2_3 Br 0.1923(5) -0.4600(3) 1.2805(3)
Br3A Br -0.0025(5) -0.2363(3) 0.4608(3)
Br3_2 Br 0.0025(5) 0.2363(3) 0.5392(3)
Br3A_2 Br 0.9975(5) -0.2363(3) 1.4608(3)
Br3_3 Br 0.0025(5) 0.2363(3) 1.5392(3)
Br3A_3 Br -0.0025(5) -0.2363(3) 1.4608(3)
Br4A Br -0.1226(7) -0.1909(4) 1.1171(4)
Cu1A Cu 0.7096(6) -0.3794(3) 1.5383(3)
Cu1_2 Cu 0.2904(6) -0.6206(3) 0.4617(3)
Cu1A_2 Cu -0.2904(6) -0.3794(3) 0.5383(3)
Cu2A Cu -0.0817(5) 0.3948(3) 1.3499(3)
Cu2_2 Cu -0.9183(5) 0.6052(3) 0.6501(3)
Cu2A_2 Cu -1.0817(5) 0.3948(3) 0.3499(3)
Cu3A Cu -0.0385(6) -0.3299(4) 1.3129(3)
Cu3_2 Cu -0.9615(6) 0.3299(4) 0.6871(3)
Cu3A_2 Cu -1.0385(6) 0.6701(4) 0.3129(3)
Cu3_3 Cu 0.0385(6) -0.6701(4) 0.6871(3)
Cu3A_3 Cu -0.0385(6) -0.3299(4) 0.3129(3)
O1A O 0.439(2) -0.0182(15) 1.374(2)
O2A O -0.036(3) 0.102(2) 1.1976(15)
O3A O 0.315(2) -0.144(2) 1.0684(14)
N1A N 0.201(3) 0.050(2) 1.290(2)
N2A N 0.142(3) -0.019(2) 1.135(2)
N3A N 0.391(3) -0.091(2) 1.226(2)
C1A C 0.336(4) -0.018(2) 1.291(2)
C2A C 0.112(4) 0.041(2) 1.211(2)
C3A C 0.281(4) -0.082(2) 1.142(2)
C4A C 0.586(4) -0.109(3) 1.399(2)
C5A C 0.523(4) -0.232(2) 1.492(2)
C6A C 0.544(4) -0.279(3) 1.615(2)
C7A C -0.097(4) 0.177(3) 1.278(2)
C8A C -0.025(4) 0.305(3) 1.225(2)
C9A C -0.116(4) 0.410(3) 1.169(2)
C10A C 0.462(4) -0.219(3) 1.079(3)
C11A C 0.451(5) -0.290(4) 0.994(4)
C12A C 0.573(5) -0.321(3) 0.948(3)
H1A H 0.470 -0.277 1.160
H2A H 0.551 -0.161 1.054
H3A H 0.359 -0.296 0.966
H4A H 0.689 -0.318 0.967
H5A H 0.569 -0.368 0.893
H6A H 0.659 -0.078 1.434
H7A H 0.622 -0.120 1.327
H8A H 0.460 -0.281 1.466
H9A H 0.602 -0.226 1.642
H10A H 0.505 -0.351 1.667
H11A H -0.217 0.189 1.280
H12A H -0.069 0.132 1.363
H13A H 0.08 0.305 1.233
H14A H -0.222 0.410 1.157
H15A H -0.060 0.488 1.133
loop_
_geom_bond_atom_site_label_1
_geom_bond_atom_site_label_2
_geom_bond_site_symmetry_1
_geom_bond_site_symmetry_2
Br1 Cu1 1_555 1_555
Br2 Cu1 1_555 1_555
Br3 Cu1 1_555 1_555
Br4 Cu3 1_555 1_555
Cu1 C5 1_555 1_555
Cu2 C8 1_555 1_555
Cu3 Br1_3 1_555 1_555
Cu4 Br4 1_555 1_555
O1 C1 1_555 1_555
O2 C2 1_555 1_555
O3 C3 1_555 1_555
N1 C1 1_555 1_555
N2 Cu4 1_555 1_555
N3 C1 1_555 1_555
C2 N1 1_555 1_555
C3 N2 1_555 1_555
C4 O1 1_555 1_555
C5 C4 1_555 1_555
C6 Cu1 1_555 1_555
C7 O2 1_555 1_555
C8 C7 1_555 1_555
C9 Cu2 1_555 1_555
C10 O3 1_555 1_555
C11 C10 1_555 1_555
C12 C11 1_555 1_555
H1 C10 1_555 1_555
H2 C10 1_555 1_555
H3 C11 1_555 1_555
H4 C12 1_555 1_555
H5 C12 1_555 1_555
H6 C4 1_555 1_555
H7 C4 1_555 1_555
H8 C5 1_555 1_555
H9 C6 1_555 1_555
H10 C6 1_555 1_555
H11 C7 1_555 1_555
H12 C7 1_555 1_555
H13 C8 1_555 1_555
H14 C9 1_555 1_555
H15 C9 1_555 1_555
Br1_2 Cu2 1_555 1_555
Br1A Cu1A 1_555 1_555
Br1A_2 Cu2A 1_555 1_555
Br1A_3 Cu3A 1_555 1_555
Br2A Cu2 1_555 1_555
Br2A_2 Cu3 1_555 1_555
Br2A_3 Cu1A 1_555 1_555
Br2_2 Cu2A 1_555 1_555
Br2_3 Cu3A 1_555 1_555
Br3A Cu2 1_555 1_555
Br3_2 Cu3 1_555 1_555
Br3A_2 Cu1A 1_555 1_555
Br3_3 Cu2A 1_555 1_555
Br3A_3 Cu3A 1_555 1_555
Br4A Cu4 1_555 1_555
Cu1A C5A 1_555 1_555
Cu1_2 Br1_2 1_555 1_555
Cu1A_2 Br2A 1_555 1_555
Cu2A C8A 1_555 1_555
Cu2_2 Br1 1_555 1_555
Cu2A_2 Br2 1_555 1_555
Cu3A Br4A 1_555 1_555
Cu3_2 Br1 1_555 1_555
Cu3A_2 Br2 1_555 1_555
Cu3_3 Br1_2 1_555 1_555
Cu3A_3 Br3A 1_555 1_555
O1A C1A 1_555 1_555
O2A C2A 1_555 1_555
O3A C3A 1_555 1_555
N1A C1A 1_555 1_555
N2A Cu4 1_555 1_555
N3A C1A 1_555 1_555
C2A N1A 1_555 1_555
C3A N2A 1_555 1_555
C4A O1A 1_555 1_555
C5A C4A 1_555 1_555
C6A Cu1A 1_555 1_555
C7A O2A 1_555 1_555
C8A C7A 1_555 1_555
C9A Cu2A 1_555 1_555
C10A O3A 1_555 1_555
C11A C10A 1_555 1_555
C12A C11A 1_555 1_555
H1A C10A 1_555 1_555
H2A C10A 1_555 1_555
H3A C11A 1_555 1_555
H4A C12A 1_555 1_555
H5A C12A 1_555 1_555
H6A C4A 1_555 1_555
H7A C4A 1_555 1_555
H8A C5A 1_555 1_555
H9A C6A 1_555 1_555
H10A C6A 1_555 1_555
H11A C7A 1_555 1_555
H12A C7A 1_555 1_555
H13A C8A 1_555 1_555
H14A C9A 1_555 1_555
H15A C9A 1_555 1_555
Br3 Cu2A_2 1_555 1_555
Br3 Cu3_2 1_555 1_555
N2 C2 1_555 1_555
N3 C3 1_555 1_555
C5 C6 1_555 1_555
C8 C9 1_555 1_555
Br2A Cu3_3 1_555 1_555
Br3A Cu1A_2 1_555 1_555
N2A C2A 1_555 1_555
N3A C3A 1_555 1_555
C5A C6A 1_555 1_555
C8A C9A 1_555 1_555

#END
