
#######################################################################
#
#                 Cambridge Crystallographic Data Centre
#                                CCDC 
#
#######################################################################
#
# If this CIF has been generated from an entry in the Cambridge 
# Structural Database, then it will include bibliographic, chemical, 
# crystal, experimental, refinement or atomic coordinate data resulting 
# from the CCDC's data processing and validation procedures.
#
#######################################################################

data_KAZBEU
_symmetry_cell_setting           orthorhombic
_symmetry_space_group_name_H-M   'P 21 21 21'
_symmetry_Int_Tables_number      19
_space_group_name_Hall           'P 2ac 2ab'
loop_
_symmetry_equiv_pos_site_id
_symmetry_equiv_pos_as_xyz
1 x,y,z
2 1/2-x,-y,1/2+z
3 -x,1/2+y,1/2-z
4 1/2+x,1/2-y,-z
_cell_length_a                   12.958(3)
_cell_length_b                   14.823(3)
_cell_length_c                   16.559(3)
_cell_angle_alpha                90
_cell_angle_beta                 90
_cell_angle_gamma                90
_cell_volume                     3180.59
loop_
_atom_site_label
_atom_site_type_symbol
_atom_site_fract_x
_atom_site_fract_y
_atom_site_fract_z
Zn1 Zn 0.98514(10) 0.74113(11) 0.15988(12)
S1 S 0.5913(3) 0.2864(3) 0.1696(3)
O1 O 1.1226(6) 0.7507(7) 0.1104(5)
O2 O 0.9374(6) 0.8492(7) 0.1045(6)
O3 O 0.9577(7) 0.9801(8) 0.0421(7)
O4 O 1.4775(7) 0.9987(7) 0.0693(7)
O5 O 0.9795(10) 0.5774(7) 0.1570(9)
O6 O 0.8565(9) 0.6710(9) 0.1485(8)
O7 O 0.4824(9) 0.2650(8) -0.2220(7)
O8 O 0.6052(13) 0.1691(14) -0.2182(10)
O9 O 0.6427(10) 0.2078(8) 0.2009(7)
O10 O 0.4949(9) 0.3141(7) 0.2001(7)
N1 N 1.2646(7) 0.9881(8) 0.0650(7)
N2 N 1.5993(9) 0.8423(9) 0.0829(10)
N3 N 1.7633(10) 0.9449(9) 0.1551(13)
H1 H 1.8183 0.9104 0.1365
F1 F 1.4960(7) 0.6872(5) 0.1048(6)
C1 C 1.1643(10) 0.8234(11) 0.0946(9)
C2 C 1.1094(10) 0.9035(10) 0.0770(9)
C3 C 1.1610(10) 0.9827(11) 0.0649(8)
H2 H 1.1222 1.0361 0.0560
C4 C 1.3146(10) 1.0731(9) 0.0607(10)
H3 H 1.2718 1.1127 0.0251
C5 C 1.4176(10) 1.0643(10) 0.0222(10)
H4 H 1.4101 1.0433 -0.0342
H5 H 1.4532 1.1234 0.0217
C6 C 1.4301(10) 0.9163(10) 0.0758(9)
C7 C 1.4903(11) 0.8438(10) 0.0857(9)
C8 C 1.4357(11) 0.7622(11) 0.0967(9)
C9 C 1.3347(9) 0.7541(12) 0.0985(8)
H6 H 1.3033 0.6969 0.1068
C10 C 1.2745(10) 0.8314(10) 0.0879(9)
C11 C 1.3237(10) 0.9110(10) 0.0760(9)
C12 C 0.9920(13) 0.9126(13) 0.0754(11)
C13 C 1.3188(9) 1.1182(9) 0.1451(10)
H7 H 1.2488 1.1222 0.1674
H8 H 1.3480 1.1789 0.1402
H9 H 1.3620 1.0820 0.1812
C14 C 1.6552(12) 0.8062(10) 0.1485(14)
H10 H 1.7150 0.7714 0.1283
H11 H 1.6105 0.7650 0.1800
C15 C 1.6924(11) 0.8827(12) 0.2023(11)
H12 H 1.6324 0.9172 0.2226
H13 H 1.7299 0.8576 0.2493
C16 C 1.7085(12) 0.9762(12) 0.0866(12)
H14 H 1.7568 1.0116 0.0529
H15 H 1.6541 1.0181 0.1056
C17 C 1.6572(12) 0.9046(11) 0.0325(10)
H16 H 1.6103 0.9342 -0.0066
H17 H 1.7106 0.8714 0.0018
C18 C 1.8069(14) 1.0196(12) 0.2043(13)
H18 H 1.8521 1.0568 0.1705
H19 H 1.8468 0.9944 0.2492
H20 H 1.7507 1.0567 0.2257
C19 C 0.8111(10) 0.5187(11) 0.1655(11)
C20 C 0.8427(10) 0.4353(11) 0.1909(10)
H21 H 0.9122 0.4265 0.2075
C21 C 0.7762(11) 0.3657(9) 0.1927(8)
H22 H 0.8007 0.3070 0.2057
C22 C 0.6758(11) 0.3778(10) 0.1766(10)
C23 C 0.6449(10) 0.4617(12) 0.1492(11)
H23 H 0.5760 0.4698 0.1310
C24 C 0.7110(12) 0.5329(10) 0.1476(10)
H24 H 0.6870 0.5916 0.1342
C25 C 0.8876(12) 0.5940(13) 0.1553(14)
C26 C 0.5584(12) 0.2405(12) -0.0974(16)
C27 C 0.4901(14) 0.2931(11) -0.0595(13)
H25 H 0.4363 0.3209 -0.0895
C28 C 0.4966(13) 0.3077(9) 0.0247(15)
H26 H 0.4460 0.3425 0.0521
C29 C 0.5754(12) 0.2717(10) 0.0643(11)
C30 C 0.6480(12) 0.2186(10) 0.0275(13)
H27 H 0.7028 0.1924 0.0575
C31 C 0.6391(11) 0.2043(10) -0.0551(14)
H28 H 0.6894 0.1691 -0.0825
C32 C 0.5517(15) 0.2244(14) -0.1865(17)
Zn1A Zn 0.51486(10) 0.25887(11) -0.34012(12)
O7A O 1.0176(9) 0.7350(8) 0.2780(7)
O11 O 0.8495(13) 1.0147(13) -0.0970(10)
O12? O 1.651(4) 0.994(3) -0.127(3)
loop_
_geom_bond_atom_site_label_1
_geom_bond_atom_site_label_2
_geom_bond_site_symmetry_1
_geom_bond_site_symmetry_2
Zn1 O1 1_555 1_555
S1 O9 1_555 1_555
O1 C1 1_555 1_555
O2 Zn1 1_555 1_555
O3 C12 1_555 1_555
O4 C5 1_555 1_555
O5 Zn1 1_555 1_555
O6 Zn1 1_555 1_555
O7 C32 1_555 1_555
O8 C32 1_555 1_555
O10 S1 1_555 1_555
N1 C3 1_555 1_555
N2 C7 1_555 1_555
N3 H1 1_555 1_555
F1 C8 1_555 1_555
C1 C2 1_555 1_555
C2 C3 1_555 1_555
C3 H2 1_555 1_555
C4 N1 1_555 1_555
H3 C4 1_555 1_555
C5 C4 1_555 1_555
H4 C5 1_555 1_555
H5 C5 1_555 1_555
C6 O4 1_555 1_555
C7 C6 1_555 1_555
C8 C7 1_555 1_555
C9 C8 1_555 1_555
H6 C9 1_555 1_555
C10 C1 1_555 1_555
C11 N1 1_555 1_555
C12 O2 1_555 1_555
C13 C4 1_555 1_555
H7 C13 1_555 1_555
H8 C13 1_555 1_555
H9 C13 1_555 1_555
C14 N2 1_555 1_555
H10 C14 1_555 1_555
H11 C14 1_555 1_555
C15 N3 1_555 1_555
H12 C15 1_555 1_555
H13 C15 1_555 1_555
C16 N3 1_555 1_555
H14 C16 1_555 1_555
H15 C16 1_555 1_555
C17 N2 1_555 1_555
H16 C17 1_555 1_555
H17 C17 1_555 1_555
C18 N3 1_555 1_555
H18 C18 1_555 1_555
H19 C18 1_555 1_555
H20 C18 1_555 1_555
C19 C20 1_555 1_555
C20 H21 1_555 1_555
C21 C20 1_555 1_555
H22 C21 1_555 1_555
C22 S1 1_555 1_555
C23 C22 1_555 1_555
H23 C23 1_555 1_555
C24 C19 1_555 1_555
H24 C24 1_555 1_555
C25 O5 1_555 1_555
C26 C27 1_555 1_555
C27 H25 1_555 1_555
C28 C27 1_555 1_555
H26 C28 1_555 1_555
C29 S1 1_555 1_555
C30 C29 1_555 1_555
H27 C30 1_555 1_555
C31 C26 1_555 1_555
H28 C31 1_555 1_555
C32 C26 1_555 1_555
Zn1A O7 1_555 1_555
O7A Zn1 1_555 1_555
O6 C25 1_555 1_555
C2 C12 1_555 1_555
C6 C11 1_555 1_555
C9 C10 1_555 1_555
C10 C11 1_555 1_555
C14 C15 1_555 1_555
C16 C17 1_555 1_555
C19 C25 1_555 1_555
C21 C22 1_555 1_555
C23 C24 1_555 1_555
C28 C29 1_555 1_555
C30 C31 1_555 1_555

#END
