
#######################################################################
#
#                 Cambridge Crystallographic Data Centre
#                                CCDC 
#
#######################################################################
#
# If this CIF has been generated from an entry in the Cambridge 
# Structural Database, then it will include bibliographic, chemical, 
# crystal, experimental, refinement or atomic coordinate data resulting 
# from the CCDC's data processing and validation procedures.
#
#######################################################################

data_KAZBIY
_symmetry_cell_setting           triclinic
_symmetry_space_group_name_H-M   'P -1'
_symmetry_Int_Tables_number      2
_space_group_name_Hall           '-P 1'
loop_
_symmetry_equiv_pos_site_id
_symmetry_equiv_pos_as_xyz
1 x,y,z
2 -x,-y,-z
_cell_length_a                   10.416(2)
_cell_length_b                   12.255(3)
_cell_length_c                   13.031(3)
_cell_angle_alpha                72.96(3)
_cell_angle_beta                 73.57(3)
_cell_angle_gamma                76.51(3)
_cell_volume                     1504.77
loop_
_atom_site_label
_atom_site_type_symbol
_atom_site_fract_x
_atom_site_fract_y
_atom_site_fract_z
Co1 Co 0.051958(19) 0.069764(16) 0.292220(17)
F1 F -0.39339(10) 0.57426(10) 0.21934(14)
O1 O 0.01187(13) 0.03148(11) 0.15363(11)
O2 O 0.40398(11) 0.20861(10) 0.10722(12)
O3 O 0.08049(12) 0.10409(11) 0.43577(10)
O4 O 0.24002(11) 0.10904(10) 0.20596(11)
O5 O -0.02401(12) 0.24046(10) 0.23808(12)
O6 O 0.11199(12) -0.10544(10) 0.36061(10)
O7 O 0.18919(15) -0.16096(11) 0.20150(11)
O8 O 0.85021(11) -0.94467(10) 0.37996(10)
O9 O 0.74448(12) -0.96975(13) 0.26347(12)
O10 O 0.27640(13) -0.65083(11) 0.53043(11)
N1 N -0.42036(13) 1.00458(11) 0.14327(12)
H1 H -0.3761 1.0234 0.1842
H2 H -0.4840 1.0654 0.1244
N2 N -0.28132(13) 0.77436(11) 0.13704(11)
N3 N 0.16417(13) 0.52523(11) 0.09762(13)
C1 C 0.28204(15) 0.20319(13) 0.15677(13)
C2 C 0.18414(15) 0.31632(13) 0.15400(14)
C3 C 0.03935(15) 0.32418(13) 0.19372(13)
C4 C -0.03873(15) 0.44090(13) 0.17830(14)
C5 C -0.18193(17) 0.45591(14) 0.21116(16)
H3 H -0.2255 0.3918 0.2438
C6 C -0.25575(16) 0.56394(15) 0.19499(17)
C7 C -0.19700(16) 0.66612(13) 0.15129(14)
C8 C -0.05639(16) 0.65097(13) 0.12052(14)
H4 H -0.0135 0.7157 0.0921
C9 C 0.02284(15) 0.54000(13) 0.13135(14)
C10 C 0.23722(16) 0.41746(14) 0.10992(15)
H5 H 0.3311 0.4111 0.0867
C11 C 0.23210(17) 0.62614(14) 0.06230(18)
H6 H 0.2334 0.6601 0.1213
C12 C 0.2231(2) 0.71016(17) -0.04627(19)
H7 H 0.2166 0.7916 -0.0509
H8 H 0.1731 0.6937 -0.0910
C13 C 0.3545(2) 0.63213(18) -0.0319(2)
H9 H 0.3838 0.5687 -0.0680
H10 H 0.4273 0.6666 -0.0278
C14 C -0.37753(17) 0.79952(14) 0.23741(14)
H11 H -0.3290 0.8159 0.2832
H12 H -0.4198 0.7322 0.2791
C15 C -0.48626(17) 0.90230(14) 0.20902(15)
H13 H -0.5387 0.8847 0.1668
H14 H -0.5474 0.9189 0.2761
C16 C -0.32263(17) 0.97810(14) 0.04150(14)
H15 H -0.2790 1.0447 -0.0001
H16 H -0.3713 0.9623 -0.0046
C17 C -0.21528(16) 0.87379(13) 0.07117(14)
H17 H -0.1546 0.8559 0.0044
H18 H -0.1620 0.8913 0.1128
C18 C 0.33127(18) -0.49361(15) 0.36899(15)
H19 H 0.4030 -0.5416 0.3346
C19 C 0.29958(17) -0.37727(15) 0.31682(15)
H20 H 0.3507 -0.3480 0.2469
C20 C 0.19383(17) -0.30446(14) 0.36681(14)
C21 C 0.11698(19) -0.34984(15) 0.47219(16)
H21 H 0.0458 -0.3018 0.5070
C22 C 0.14645(18) -0.46566(15) 0.52465(15)
H22 H 0.0944 -0.4956 0.5939
C23 C 0.25409(17) -0.53671(14) 0.47316(15)
C24 C 0.39195(18) -0.72050(14) 0.48428(15)
C25 C 0.37635(18) -0.79869(18) 0.43269(17)
H23 H 0.2906 -0.8050 0.4290
C26 C 0.49133(17) -0.86763(17) 0.38651(17)
H24 H 0.4828 -0.9188 0.3493
C27 C 0.61962(16) -0.86089(14) 0.39527(14)
C28 C 0.63239(18) -0.78367(15) 0.45009(15)
H25 H 0.7173 -0.7802 0.4580
C29 C 0.51847(19) -0.71170(16) 0.49306(16)
H26 H 0.5269 -0.6580 0.5275
C30 C 0.16257(16) -0.18152(14) 0.30468(14)
C31 C 0.74630(15) -0.93116(14) 0.34249(14)
H27 H 0.0088(14) 0.1142(19) 0.4841(14)
H28 H -0.0694(10) 0.0235(19) 0.1802(18)
H29 H 0.0632(19) -0.0318(14) 0.160(2)
H30 H 0.1312(19) 0.0451(15) 0.4651(18)
Co1_2 Co 1.051958(19) -0.930236(16) 0.292220(17)
O8_2 O -0.14979(11) 0.05533(10) 0.37996(10)
loop_
_geom_bond_atom_site_label_1
_geom_bond_atom_site_label_2
_geom_bond_site_symmetry_1
_geom_bond_site_symmetry_2
Co1 O1 1_555 1_555
F1 C6 1_555 1_555
O1 H28 1_555 1_555
O2 C1 1_555 1_555
O3 Co1 1_555 1_555
O4 Co1 1_555 1_555
O5 Co1 1_555 1_555
O6 Co1 1_555 1_555
O7 C30 1_555 1_555
O8 C31 1_555 1_555
O9 C31 1_555 1_555
O10 C23 1_555 1_555
N1 H1 1_555 1_555
H2 N1 1_555 1_555
N2 C7 1_555 1_555
N3 C9 1_555 1_555
C1 O4 1_555 1_555
C2 C1 1_555 1_555
C3 O5 1_555 1_555
C4 C3 1_555 1_555
C5 C4 1_555 1_555
H3 C5 1_555 1_555
C6 C5 1_555 1_555
C7 C6 1_555 1_555
C8 C7 1_555 1_555
H4 C8 1_555 1_555
C9 C4 1_555 1_555
C10 N3 1_555 1_555
H5 C10 1_555 1_555
C11 N3 1_555 1_555
H6 C11 1_555 1_555
C12 C11 1_555 1_555
H7 C12 1_555 1_555
H8 C12 1_555 1_555
C13 C11 1_555 1_555
H9 C13 1_555 1_555
H10 C13 1_555 1_555
C14 N2 1_555 1_555
H11 C14 1_555 1_555
H12 C14 1_555 1_555
C15 N1 1_555 1_555
H13 C15 1_555 1_555
H14 C15 1_555 1_555
C16 N1 1_555 1_555
H15 C16 1_555 1_555
H16 C16 1_555 1_555
C17 N2 1_555 1_555
H17 C17 1_555 1_555
H18 C17 1_555 1_555
C18 H19 1_555 1_555
C19 C18 1_555 1_555
H20 C19 1_555 1_555
C20 C19 1_555 1_555
C21 C20 1_555 1_555
H21 C21 1_555 1_555
C22 C21 1_555 1_555
H22 C22 1_555 1_555
C23 C18 1_555 1_555
C24 O10 1_555 1_555
C25 C24 1_555 1_555
H23 C25 1_555 1_555
C26 C25 1_555 1_555
H24 C26 1_555 1_555
C27 C26 1_555 1_555
C28 C27 1_555 1_555
H25 C28 1_555 1_555
C29 C24 1_555 1_555
H26 C29 1_555 1_555
C30 O6 1_555 1_555
C31 C27 1_555 1_555
H27 O3 1_555 1_555
H29 O1 1_555 1_555
H30 O3 1_555 1_555
Co1_2 O8 1_555 1_555
O8_2 Co1 1_555 1_555
C2 C3 1_555 1_555
C2 C10 1_555 1_555
C8 C9 1_555 1_555
C12 C13 1_555 1_555
C14 C15 1_555 1_555
C16 C17 1_555 1_555
C20 C30 1_555 1_555
C22 C23 1_555 1_555
C28 C29 1_555 1_555

#END
