
#######################################################################
#
#                 Cambridge Crystallographic Data Centre
#                                CCDC 
#
#######################################################################
#
# If this CIF has been generated from an entry in the Cambridge 
# Structural Database, then it will include bibliographic, chemical, 
# crystal, experimental, refinement or atomic coordinate data resulting 
# from the CCDC's data processing and validation procedures.
#
#######################################################################

data_KAZBOE
_symmetry_cell_setting           triclinic
_symmetry_space_group_name_H-M   'P -1'
_symmetry_Int_Tables_number      2
_space_group_name_Hall           '-P 1'
loop_
_symmetry_equiv_pos_site_id
_symmetry_equiv_pos_as_xyz
1 x,y,z
2 -x,-y,-z
_cell_length_a                   10.3441(11)
_cell_length_b                   12.1845(12)
_cell_length_c                   12.9865(13)
_cell_angle_alpha                72.783(5)
_cell_angle_beta                 73.826(5)
_cell_angle_gamma                76.803(5)
_cell_volume                     1482.47
loop_
_atom_site_label
_atom_site_type_symbol
_atom_site_fract_x
_atom_site_fract_y
_atom_site_fract_z
Ni1 Ni 0.951011(16) 0.929410(13) 0.205830(14)
F1 F 1.39519(9) 0.42632(9) 0.28176(12)
O1 O 0.98771(12) 0.96498(10) 0.34239(9)
O2 O 0.59887(10) 0.79316(9) 0.39031(10)
O3 O 0.92106(11) 0.89471(9) 0.06698(9)
O4 O 0.76257(10) 0.89470(9) 0.29054(9)
O5 O 1.02782(11) 0.76143(9) 0.25750(10)
O6 O 0.89048(11) 1.10354(8) 0.13820(9)
O7 O 0.81480(13) 1.15897(10) 0.29742(9)
O8 O 0.15003(10) 1.94685(9) 0.11713(8)
O9 O 0.25494(11) 1.96889(11) 0.23647(10)
O10 O 0.72381(12) 1.65171(9) -0.03044(10)
N1 N 1.42064(12) -0.00473(10) 0.35685(10)
H1 H 1.4847 -0.0656 0.3760
H2 H 1.3762 -0.0239 0.3158
N2 N 1.28147(12) 0.22568(10) 0.36291(10)
N3 N 0.83625(12) 0.47633(10) 0.40033(11)
C1 C 0.72068(13) 0.79974(12) 0.33999(12)
C2 C 0.81804(14) 0.68556(12) 0.34292(12)
C3 C 0.96317(13) 0.67795(11) 0.30295(11)
C4 C 1.04056(13) 0.56047(11) 0.32005(12)
C5 C 1.18411(15) 0.54563(13) 0.28771(14)
H3 H 1.2284 0.6100 0.2548
C6 C 1.25724(14) 0.43673(13) 0.30498(14)
C7 C 1.19779(15) 0.33430(12) 0.34874(12)
C8 C 1.05671(14) 0.34934(12) 0.37894(12)
H4 H 1.0130 0.2844 0.4075
C9 C 0.97837(14) 0.46123(12) 0.36720(12)
C10 C 0.76440(14) 0.58461(12) 0.38698(13)
H5 H 0.6700 0.5913 0.4097
C11 C 0.76792(15) 0.37476(13) 0.43590(15)
H6 H 0.7666 0.3405 0.3768
C12 C 0.77563(18) 0.29070(15) 0.54502(17)
H7 H 0.8257 0.3072 0.5902
H8 H 0.7816 0.2087 0.5500
C13 C 0.64478(18) 0.36855(16) 0.5299(2)
H9 H 0.5715 0.3338 0.5256
H10 H 0.6156 0.4323 0.5658
C14 C 1.37744(15) 0.20112(13) 0.26203(12)
H11 H 1.4198 0.2691 0.2200
H12 H 1.3283 0.1844 0.2162
C15 C 1.48647(15) 0.09835(13) 0.29090(13)
H13 H 1.5478 0.0820 0.2237
H14 H 1.5393 0.1163 0.3332
C16 C 1.32267(15) 0.02126(12) 0.45858(12)
H15 H 1.3717 0.0370 0.5050
H16 H 1.2787 -0.0460 0.5002
C17 C 1.21531(14) 0.12568(12) 0.42867(12)
H17 H 1.1616 0.1082 0.3868
H18 H 1.1546 0.1433 0.4956
C18 C 0.66904(16) 1.49206(13) 0.13029(13)
H19 H 0.5967 1.5396 0.1648
C19 C 0.70121(15) 1.37540(13) 0.18223(13)
H20 H 0.6501 1.3452 0.2522
C20 C 0.80798(15) 1.30314(12) 0.13183(12)
C21 C 0.88478(16) 1.35014(13) 0.02640(13)
H21 H 0.9567 1.3027 -0.0086
C22 C 0.85440(16) 1.46632(13) -0.02579(13)
H22 H 0.9061 1.4971 -0.0954
C23 C 0.74647(15) 1.53678(12) 0.02614(12)
C24 C 0.60779(16) 1.72076(12) 0.01572(13)
C25 C 0.62397(16) 1.79891(15) 0.06744(15)
H23 H 0.7102 1.8050 0.0718
C26 C 0.50870(16) 1.86846(15) 0.11292(15)
H24 H 0.5177 1.9200 0.1499
C27 C 0.38079(14) 1.86187(12) 0.10380(12)
C28 C 0.36758(16) 1.78410(13) 0.04905(13)
H25 H 0.2821 1.7806 0.0411
C29 C 0.48120(16) 1.71187(13) 0.00633(13)
H26 H 0.4723 1.6581 -0.0282
C30 C 0.84039(14) 1.17983(12) 0.19419(12)
C31 C 0.25362(14) 1.93219(12) 0.15604(12)
H27 H 0.9340(16) 1.0272(12) 0.3370(18)
H28 H 1.0680(10) 0.9751(18) 0.3158(18)
H29 H 0.8679(16) 0.9465(15) 0.0328(15)
H30 H 0.9957(12) 0.8845(18) 0.0231(14)
Ni1_2 Ni -0.048989(16) 1.929410(13) 0.205830(14)
O8_2 O 1.15003(10) 0.94685(9) 0.11713(8)
loop_
_geom_bond_atom_site_label_1
_geom_bond_atom_site_label_2
_geom_bond_site_symmetry_1
_geom_bond_site_symmetry_2
Ni1 O1 1_555 1_555
F1 C6 1_555 1_555
O1 H27 1_555 1_555
O2 C1 1_555 1_555
O3 Ni1 1_555 1_555
O4 Ni1 1_555 1_555
O5 Ni1 1_555 1_555
O6 Ni1 1_555 1_555
O7 C30 1_555 1_555
O8 C31 1_555 1_555
O9 C31 1_555 1_555
O10 C23 1_555 1_555
N1 H1 1_555 1_555
H2 N1 1_555 1_555
N2 C7 1_555 1_555
N3 C9 1_555 1_555
C1 O4 1_555 1_555
C2 C1 1_555 1_555
C3 O5 1_555 1_555
C4 C3 1_555 1_555
C5 C4 1_555 1_555
H3 C5 1_555 1_555
C6 C5 1_555 1_555
C7 C6 1_555 1_555
C8 C7 1_555 1_555
H4 C8 1_555 1_555
C9 C4 1_555 1_555
C10 N3 1_555 1_555
H5 C10 1_555 1_555
C11 N3 1_555 1_555
H6 C11 1_555 1_555
C12 C11 1_555 1_555
H7 C12 1_555 1_555
H8 C12 1_555 1_555
C13 C11 1_555 1_555
H9 C13 1_555 1_555
H10 C13 1_555 1_555
C14 N2 1_555 1_555
H11 C14 1_555 1_555
H12 C14 1_555 1_555
C15 N1 1_555 1_555
H13 C15 1_555 1_555
H14 C15 1_555 1_555
C16 N1 1_555 1_555
H15 C16 1_555 1_555
H16 C16 1_555 1_555
C17 N2 1_555 1_555
H17 C17 1_555 1_555
H18 C17 1_555 1_555
C18 H19 1_555 1_555
C19 C18 1_555 1_555
H20 C19 1_555 1_555
C20 C19 1_555 1_555
C21 C20 1_555 1_555
H21 C21 1_555 1_555
C22 C21 1_555 1_555
H22 C22 1_555 1_555
C23 C18 1_555 1_555
C24 O10 1_555 1_555
C25 C24 1_555 1_555
H23 C25 1_555 1_555
C26 C25 1_555 1_555
H24 C26 1_555 1_555
C27 C26 1_555 1_555
C28 C27 1_555 1_555
H25 C28 1_555 1_555
C29 C24 1_555 1_555
H26 C29 1_555 1_555
C30 O6 1_555 1_555
C31 C27 1_555 1_555
H28 O1 1_555 1_555
H29 O3 1_555 1_555
H30 O3 1_555 1_555
Ni1_2 O8 1_555 1_555
O8_2 Ni1 1_555 1_555
C2 C3 1_555 1_555
C2 C10 1_555 1_555
C8 C9 1_555 1_555
C12 C13 1_555 1_555
C14 C15 1_555 1_555
C16 C17 1_555 1_555
C20 C30 1_555 1_555
C22 C23 1_555 1_555
C28 C29 1_555 1_555

#END
