
#######################################################################
#
#                 Cambridge Crystallographic Data Centre
#                                CCDC 
#
#######################################################################
#
# If this CIF has been generated from an entry in the Cambridge 
# Structural Database, then it will include bibliographic, chemical, 
# crystal, experimental, refinement or atomic coordinate data resulting 
# from the CCDC's data processing and validation procedures.
#
#######################################################################

data_KAZBUK
_symmetry_cell_setting           triclinic
_symmetry_space_group_name_H-M   'P -1'
_symmetry_Int_Tables_number      2
_space_group_name_Hall           '-P 1'
loop_
_symmetry_equiv_pos_site_id
_symmetry_equiv_pos_as_xyz
1 x,y,z
2 -x,-y,-z
_cell_length_a                   10.7386(6)
_cell_length_b                   10.9975(6)
_cell_length_c                   23.4143(12)
_cell_angle_alpha                77.0920(10)
_cell_angle_beta                 86.5480(10)
_cell_angle_gamma                86.5000(10)
_cell_volume                     2687.19
loop_
_atom_site_label
_atom_site_type_symbol
_atom_site_fract_x
_atom_site_fract_y
_atom_site_fract_z
Cu1 Cu 1.54587(4) 1.06220(4) -0.152392(17)
Cu2 Cu 1.98457(4) 1.17301(4) -0.130760(16)
O1 O 2.1625(3) 1.4833(3) -0.21154(10)
O2 O 2.0503(2) 1.3177(2) -0.18302(9)
O3 O 2.0056(2) 1.2367(2) -0.06182(9)
O4 O 1.8869(2) 1.0417(2) -0.08087(9)
O5 O 1.7207(2) 1.0657(3) -0.13354(11)
O6 O 1.5634(3) 0.8854(3) -0.13838(12)
O7 O 1.5921(3) 0.6924(2) -0.09090(11)
O8 O 1.5642(2) 0.5987(2) 0.12863(11)
O9 O 1.4798(3) 0.7614(2) 0.15891(11)
O10 O 1.6329(2) 0.9447(3) 0.16219(11)
O11 O 1.8308(2) 0.9403(2) 0.13306(10)
N1 N 2.0837(3) 1.2954(3) 0.10163(12)
N2 N 2.1906(3) 1.4786(3) 0.05237(12)
N3 N 2.2217(3) 1.5244(3) -0.04839(12)
N4 N 2.1776(3) 1.4204(3) 0.15326(12)
N5 N 2.2535(3) 1.4552(3) 0.26303(12)
H1 H 2.2378 1.4846 0.2958
H2 H 2.3302 1.4171 0.2649
C1 C 2.1122(3) 1.4063(3) -0.17179(14)
C2 C 2.1232(3) 1.4131(3) -0.10966(14)
C3 C 2.0708(3) 1.3291(3) -0.05988(14)
C4 C 2.0954(3) 1.3525(3) -0.00386(14)
C5 C 2.0577(3) 1.2759(3) 0.05040(14)
H5 H 2.0115 1.2073 0.0499
C6 C 2.1503(3) 1.3976(3) 0.10052(15)
C7 C 2.1674(3) 1.4516(3) 0.00149(14)
C8 C 2.1969(3) 1.5042(3) -0.10089(14)
H6 H 2.2326 1.5560 -0.1340
C9 C 2.3184(3) 1.6127(3) -0.04426(16)
H7 H 2.3633 1.5805 -0.0089
H8 H 2.3777 1.6179 -0.0775
C10 C 2.2639(4) 1.7418(4) -0.0432(2)
H9 H 2.3298 1.7951 -0.0405
H10 H 2.2207 1.7749 -0.0784
H11 H 2.2064 1.7376 -0.0098
C11 C 2.1810(4) 1.3158(4) 0.20469(15)
H12 H 2.1169 1.2587 0.2026
H13 H 2.2614 1.2705 0.2050
C12 C 2.1596(4) 1.3633(4) 0.26003(15)
H14 H 2.1655 1.2939 0.2937
H15 H 2.0764 1.4025 0.2612
C13 C 2.2501(4) 1.5610(4) 0.21081(15)
H16 H 2.1709 1.6082 0.2115
H17 H 2.3162 1.6163 0.2124
C14 C 2.2664(4) 1.5150(4) 0.15412(15)
H18 H 2.3508 1.4800 0.1503
H19 H 2.2540 1.5848 0.1211
C15 C 1.7120(3) 0.9365(3) -0.03608(14)
C16 C 1.6293(3) 0.8434(3) -0.03840(14)
C17 C 1.5819(3) 0.7720(3) 0.01430(14)
H20 H 1.5334 0.7054 0.0132
C18 C 1.6040(3) 0.7960(3) 0.06830(14)
C19 C 1.6868(3) 0.8898(3) 0.07047(14)
C20 C 1.7426(3) 0.9526(3) 0.01863(14)
H21 H 1.8034 1.0083 0.0202
C21 C 1.7766(3) 1.0195(3) -0.08761(14)
C22 C 1.5938(3) 0.8039(3) -0.09316(15)
C23 C 1.5457(3) 0.7118(3) 0.12222(15)
C24 C 1.7192(3) 0.9248(3) 0.12608(14)
O26 O 1.5876(3) 1.0752(4) -0.24773(12)
H45 H 1.551(3) 1.117(4) -0.2764(10)
H46 H 1.6581(18) 1.050(4) -0.2577(15)
O27 O 1.9351(3) 1.1163(3) -0.20022(12)
H47 H 1.890(3) 1.057(2) -0.1994(19)
H48 H 1.890(3) 1.180(2) -0.199(2)
Cu1A Cu 1.45413(4) 0.93780(4) 0.152392(17)
Cu2A Cu 2.01543(4) 0.82699(4) 0.130760(16)
O9A O 1.5202(3) 1.2386(2) -0.15891(11)
O10A O 1.3671(2) 1.0553(3) -0.16219(11)
O11A O 2.1692(2) 1.0597(2) -0.13306(10)
Cu3 Cu 1.57243(4) 1.60834(4) 0.351030(17)
Cu4 Cu 2.00173(4) 1.67153(4) 0.368900(16)
O12 O 2.1725(2) 1.9893(2) 0.29097(10)
O13 O 2.0637(2) 1.8202(2) 0.31709(9)
O14 O 2.0132(2) 1.7369(2) 0.43722(9)
O15 O 1.9106(2) 1.5344(2) 0.41846(9)
O16 O 1.7372(2) 1.6286(2) 0.38026(11)
O17 O 1.6275(3) 1.4399(2) 0.34599(10)
O18 O 1.5872(3) 1.2433(3) 0.38415(11)
O19 O 1.5358(3) 1.0865(2) 0.59475(12)
O20 O 1.4821(2) 1.2235(2) 0.64802(10)
O21 O 1.5995(2) 1.4284(3) 0.65826(11)
O22 O 1.8014(2) 1.4296(2) 0.63751(10)
N6 N 2.0764(3) 1.7866(3) 0.60261(12)
N7 N 2.1945(3) 1.9655(3) 0.55750(12)
N8 N 2.2277(3) 2.0201(3) 0.45661(12)
N9 N 2.1689(3) 1.9036(3) 0.65742(12)
N10 N 2.2066(3) 1.9476(3) 0.76936(12)
H3 H 2.1826 1.9831 0.7996
H4 H 2.2787 1.9031 0.7782
C25 C 2.1239(3) 1.9088(3) 0.32978(14)
C26 C 2.1345(3) 1.9123(3) 0.39240(14)
C27 C 2.0779(3) 1.8279(3) 0.44095(14)
C28 C 2.0988(3) 1.8480(3) 0.49761(14)
C29 C 2.0555(3) 1.7705(3) 0.55038(14)
H22 H 2.0089 1.7034 0.5480
C30 C 2.1461(3) 1.8854(3) 0.60380(14)
C31 C 2.1718(3) 1.9438(3) 0.50542(14)
C32 C 2.2066(3) 2.0031(3) 0.40322(14)
H23 H 2.2435 2.0566 0.3711
C33 C 2.3204(3) 2.1100(3) 0.46379(16)
H24 H 2.3844 2.1157 0.4324
H25 H 2.3605 2.0785 0.5006
C34 C 2.2634(4) 2.2371(4) 0.4632(2)
H26 H 2.3270 2.2912 0.4681
H27 H 2.2252 2.2697 0.4265
H28 H 2.2012 2.2325 0.4948
C35 C 2.1473(4) 1.8054(4) 0.71010(15)
H29 H 2.0816 1.7538 0.7038
H30 H 2.2228 1.7526 0.7181
C36 C 2.1104(4) 1.8625(4) 0.76187(15)
H31 H 2.1015 1.7971 0.7971
H32 H 2.0306 1.9086 0.7556
C37 C 2.2281(4) 2.0471(4) 0.71577(15)
H33 H 2.1531 2.1010 0.7085
H34 H 2.2951 2.0976 0.7217
C38 C 2.2619(4) 1.9911(4) 0.66332(16)
H35 H 2.3433 1.9477 0.6679
H36 H 2.2663 2.0570 0.6281
C39 C 1.7221(3) 1.4503(3) 0.46135(13)
C40 C 1.6422(3) 1.3626(3) 0.44987(14)
C41 C 1.5876(3) 1.2810(3) 0.49755(14)
H37 H 1.5421 1.2170 0.4905
C42 C 1.5978(3) 1.2905(3) 0.55539(14)
C43 C 1.6744(3) 1.3821(3) 0.56617(14)
C44 C 1.7415(3) 1.4525(3) 0.51929(14)
H38 H 1.8019 1.5033 0.5268
C45 C 1.7938(3) 1.5428(3) 0.41599(14)
C46 C 1.6169(3) 1.3454(3) 0.38935(14)
C47 C 1.5339(3) 1.1931(3) 0.60232(15)
C48 C 1.6939(3) 1.4114(3) 0.62535(14)
O28 O 1.6434(3) 1.6724(3) 0.25853(11)
H49 H 1.591(3) 1.705(4) 0.2344(13)
H50 H 1.702(3) 1.636(4) 0.2434(15)
O29 O 1.9624(3) 1.6069(3) 0.30008(11)
H51 H 1.968(4) 1.643(3) 0.2645(5)
H52 H 1.906(3) 1.555(3) 0.3057(16)
Cu3A Cu 1.42757(4) 1.39166(4) 0.648970(17)
Cu4A Cu 1.99827(4) 1.32847(4) 0.631100(16)
O20A O 1.5179(2) 1.7765(2) 0.35198(10)
O21A O 1.4005(2) 1.5716(3) 0.34174(11)
O22A O 2.1986(2) 1.5704(2) 0.36249(10)
O23 O 0.6047(4) 0.2188(4) 0.1968(2)
H39 H 0.555(5) 0.171(4) 0.218(2)
H40 H 0.585(5) 0.2925(16) 0.200(3)
O24 O 0.3947(3) 0.2017(3) 0.31330(16)
H41 H 0.459(2) 0.213(3) 0.3290(19)
H42 H 0.400(4) 0.131(2) 0.305(2)
O25 O 0.5241(3) 0.4248(3) 0.23674(12)
H43 H 0.535(4) 0.480(3) 0.2066(10)
H44 H 0.570(3) 0.432(4) 0.2628(11)
loop_
_geom_bond_atom_site_label_1
_geom_bond_atom_site_label_2
_geom_bond_site_symmetry_1
_geom_bond_site_symmetry_2
Cu1 O5 1_555 1_555
Cu2 O2 1_555 1_555
Cu3 O16 1_555 1_555
Cu4 O13 1_555 1_555
O1 C1 1_555 1_555
O2 C1 1_555 1_555
O3 Cu2 1_555 1_555
O4 Cu2 1_555 1_555
O5 C21 1_555 1_555
O6 Cu1 1_555 1_555
O7 C22 1_555 1_555
O8 C23 1_555 1_555
O9 C23 1_555 1_555
O10 C24 1_555 1_555
O11 C24 1_555 1_555
O12 C25 1_555 1_555
O13 C25 1_555 1_555
O14 Cu4 1_555 1_555
O15 Cu4 1_555 1_555
O16 C45 1_555 1_555
O17 Cu3 1_555 1_555
O18 C46 1_555 1_555
O19 C47 1_555 1_555
O20 C47 1_555 1_555
O21 C48 1_555 1_555
O22 C48 1_555 1_555
N1 C5 1_555 1_555
N2 C6 1_555 1_555
N3 C7 1_555 1_555
N4 C6 1_555 1_555
N5 H1 1_555 1_555
H2 N5 1_555 1_555
N6 C29 1_555 1_555
N7 C30 1_555 1_555
N8 C31 1_555 1_555
N9 C30 1_555 1_555
N10 H3 1_555 1_555
H4 N10 1_555 1_555
C1 C2 1_555 1_555
C2 C3 1_555 1_555
C3 O3 1_555 1_555
C4 C3 1_555 1_555
C5 C4 1_555 1_555
H5 C5 1_555 1_555
C6 N1 1_555 1_555
C7 N2 1_555 1_555
C8 N3 1_555 1_555
H6 C8 1_555 1_555
C9 N3 1_555 1_555
H7 C9 1_555 1_555
H8 C9 1_555 1_555
C10 C9 1_555 1_555
H9 C10 1_555 1_555
H10 C10 1_555 1_555
H11 C10 1_555 1_555
C11 N4 1_555 1_555
H12 C11 1_555 1_555
H13 C11 1_555 1_555
C12 N5 1_555 1_555
H14 C12 1_555 1_555
H15 C12 1_555 1_555
C13 N5 1_555 1_555
H16 C13 1_555 1_555
H17 C13 1_555 1_555
C14 N4 1_555 1_555
H18 C14 1_555 1_555
H19 C14 1_555 1_555
C15 C16 1_555 1_555
C16 C17 1_555 1_555
C17 H20 1_555 1_555
C18 C17 1_555 1_555
C19 C18 1_555 1_555
C20 C15 1_555 1_555
H21 C20 1_555 1_555
C21 O4 1_555 1_555
C22 O6 1_555 1_555
C23 C18 1_555 1_555
C24 C19 1_555 1_555
C25 C26 1_555 1_555
C26 C27 1_555 1_555
C27 O14 1_555 1_555
C28 C27 1_555 1_555
C29 C28 1_555 1_555
H22 C29 1_555 1_555
C30 N6 1_555 1_555
C31 N7 1_555 1_555
C32 N8 1_555 1_555
H23 C32 1_555 1_555
C33 N8 1_555 1_555
H24 C33 1_555 1_555
H25 C33 1_555 1_555
C34 C33 1_555 1_555
H26 C34 1_555 1_555
H27 C34 1_555 1_555
H28 C34 1_555 1_555
C35 N9 1_555 1_555
H29 C35 1_555 1_555
H30 C35 1_555 1_555
C36 N10 1_555 1_555
H31 C36 1_555 1_555
H32 C36 1_555 1_555
C37 N10 1_555 1_555
H33 C37 1_555 1_555
H34 C37 1_555 1_555
C38 N9 1_555 1_555
H35 C38 1_555 1_555
H36 C38 1_555 1_555
C39 C40 1_555 1_555
C40 C41 1_555 1_555
C41 H37 1_555 1_555
C42 C41 1_555 1_555
C43 C42 1_555 1_555
C44 C39 1_555 1_555
H38 C44 1_555 1_555
C45 O15 1_555 1_555
C46 O17 1_555 1_555
C47 C42 1_555 1_555
C48 C43 1_555 1_555
O23 H39 1_555 1_555
H40 O23 1_555 1_555
O24 H41 1_555 1_555
H42 O24 1_555 1_555
O25 H43 1_555 1_555
H44 O25 1_555 1_555
O26 Cu1 1_555 1_555
H45 O26 1_555 1_555
H46 O26 1_555 1_555
O27 Cu2 1_555 1_555
H47 O27 1_555 1_555
H48 O27 1_555 1_555
O28 Cu3 1_555 1_555
H49 O28 1_555 1_555
H50 O28 1_555 1_555
O29 Cu4 1_555 1_555
H51 O29 1_555 1_555
H52 O29 1_555 1_555
Cu1A O9 1_555 1_555
Cu2A O11 1_555 1_555
Cu3A O20 1_555 1_555
Cu4A O22 1_555 1_555
O9A Cu1 1_555 1_555
O10A Cu1 1_555 1_555
O11A Cu2 1_555 1_555
O20A Cu3 1_555 1_555
O21A Cu3 1_555 1_555
O22A Cu4 1_555 1_555
O10 Cu1A 1_555 1_555
O21 Cu3A 1_555 1_555
C2 C8 1_555 1_555
C4 C7 1_555 1_555
C11 C12 1_555 1_555
C13 C14 1_555 1_555
C15 C21 1_555 1_555
C16 C22 1_555 1_555
C19 C20 1_555 1_555
C26 C32 1_555 1_555
C28 C31 1_555 1_555
C35 C36 1_555 1_555
C37 C38 1_555 1_555
C39 C45 1_555 1_555
C40 C46 1_555 1_555
C43 C44 1_555 1_555

#END
