
#######################################################################
#
#                 Cambridge Crystallographic Data Centre
#                                CCDC 
#
#######################################################################
#
# If this CIF has been generated from an entry in the Cambridge 
# Structural Database, then it will include bibliographic, chemical, 
# crystal, experimental, refinement or atomic coordinate data resulting 
# from the CCDC's data processing and validation procedures.
#
#######################################################################

data_KAZCOD
_symmetry_cell_setting           monoclinic
_symmetry_space_group_name_H-M   'P 21/c'
_symmetry_Int_Tables_number      14
_space_group_name_Hall           '-P 2ybc'
loop_
_symmetry_equiv_pos_site_id
_symmetry_equiv_pos_as_xyz
1 x,y,z
2 x,1/2-y,1/2+z
3 -x,-y,-z
4 -x,1/2+y,1/2-z
_cell_length_a                   7.137(2)
_cell_length_b                   10.618(3)
_cell_length_c                   18.048(4)
_cell_angle_alpha                90
_cell_angle_beta                 93.94(2)
_cell_angle_gamma                90
_cell_volume                     1364.46
loop_
_atom_site_label
_atom_site_type_symbol
_atom_site_fract_x
_atom_site_fract_y
_atom_site_fract_z
K1 K 0.29968(5) 0.71750(4) 0.17068(2)
O1 O -0.0178(2) 0.60061(11) 0.22402(7)
O2 O -0.1413(2) 0.41661(11) 0.26483(7)
O3 O 0.3930(2) 0.3700(2) 0.33300(10)
O4 O 0.2373(2) 0.4003(2) 0.22849(9)
O5 O 0.2810(2) 0.6257(2) 0.54135(8)
O6 O 0.0274(3) 0.7364(2) 0.54260(9)
O7 O -0.4606(2) 0.6893(2) 0.35397(10)
O8 O -0.4103(2) 0.60222(15) 0.24988(9)
N1 N 0.2613(2) 0.4177(2) 0.29527(10)
N2 N 0.1282(3) 0.6608(2) 0.51127(9)
N3 N -0.3568(2) 0.63343(15) 0.31359(10)
C1 C -0.0492(2) 0.52980(15) 0.28920(9)
C2 C 0.1339(2) 0.4978(2) 0.33183(9)
C3 C 0.1874(3) 0.5378(2) 0.40152(10)
H1 H 0.3011(34) 0.5177(21) 0.4247(13)
C4 C 0.0694(3) 0.6144(2) 0.43975(9)
C5 C -0.1105(3) 0.6436(2) 0.40881(10)
H2 H -0.1834(30) 0.6915(22) 0.4366(13)
C6 C -0.1682(2) 0.6034(2) 0.34019(10)
C7 C -0.1039(3) 0.5400(2) 0.15951(11)
H3 H -0.2021(39) 0.5952(25) 0.1399(16)
H4 H -0.0205(39) 0.5284(25) 0.1273(17)
C8 C -0.1748(4) 0.4159(2) 0.18590(12)
H5 H -0.1098(38) 0.3445(29) 0.1667(16)
H6 H -0.2951(43) 0.4044(27) 0.1745(16)
O9 O 0.4470(2) 0.56799(14) 0.06253(8)
C9 C 0.5120(4) 0.6303(2) -0.00113(14)
H7 H 0.5863(29) 0.7029(23) 0.0191(12)
H8 H 0.4024(53) 0.6472(34) -0.0402(23)
C10 C 0.3577(4) 0.4531(2) 0.04063(14)
H9 H 0.2551(47) 0.4845(31) 0.0092(21)
H10 H 0.3167(38) 0.4221(25) 0.0855(17)
C10B C 0.6423(4) 0.5469(2) -0.04063(14)
O9B O 0.5530(2) 0.43201(14) -0.06253(8)
C9B C 0.4880(4) 0.3697(2) 0.00113(14)
H7B H 0.4137(29) 0.2971(23) -0.0191(12)
H8B H 0.5976(53) 0.3528(34) 0.0402(23)
H9B H 0.7449(47) 0.5155(31) -0.0092(21)
H10B H 0.6833(38) 0.5779(25) -0.0855(17)
O2C O 0.1413(2) 0.91661(11) 0.23517(7)
O5C O -0.2810(2) 1.1257(2) -0.04135(8)
O6C O -0.0274(3) 1.2364(2) -0.04260(9)
O3C O 0.6070(2) 0.8700(2) 0.16700(10)
O1A O -0.0178(2) 0.89939(11) -0.27598(7)
O2A O -0.1413(2) 1.08339(11) -0.23517(7)
O3A O 0.3930(2) 1.1300(2) -0.16700(10)
O4A O 0.2373(2) 1.0997(2) -0.27151(9)
O5A O 0.2810(2) 0.8743(2) 0.04135(8)
O6A O 0.0274(3) 0.7636(2) 0.04260(9)
O7A O -0.4606(2) 0.8107(2) -0.14603(10)
O8A O -0.4103(2) 0.89778(15) -0.25012(9)
N1A N 0.2613(2) 1.0823(2) -0.20473(10)
N2A N 0.1282(3) 0.8392(2) 0.01127(9)
N3A N -0.3568(2) 0.86657(15) -0.18641(10)
C1A C -0.0492(2) 0.97020(15) -0.21080(9)
C2A C 0.1339(2) 1.0022(2) -0.16817(9)
C3A C 0.1874(3) 0.9622(2) -0.09848(10)
H1A H 0.3011(34) 0.9823(21) -0.0753(13)
C4A C 0.0694(3) 0.8856(2) -0.06025(9)
C5A C -0.1105(3) 0.8564(2) -0.09119(10)
H2A H -0.1834(30) 0.8085(22) -0.0634(13)
C6A C -0.1682(2) 0.8966(2) -0.15981(10)
C7A C -0.1039(3) 0.9600(2) -0.34049(11)
H3A H -0.2021(39) 0.9048(25) -0.3601(16)
H4A H -0.0205(39) 0.9716(25) -0.3727(17)
C8A C -0.1748(4) 1.0841(2) -0.31410(12)
H5A H -0.1098(38) 1.1555(29) -0.3333(16)
H6A H -0.2951(43) 1.0956(27) -0.3255(16)
O8_2 O 0.5897(2) 0.60222(15) 0.24988(9)
K1A K 0.29968(5) 0.78250(4) -0.32932(2)
K1C K -0.29968(5) 0.21750(4) 0.32932(2)
K1B K -0.29968(5) 1.28250(4) -0.17068(2)
K1C_2 K 0.70032(5) 0.21750(4) 0.32932(2)
K1_2 K -0.70032(5) 0.71750(4) 0.17068(2)
K1B_2 K 0.70032(5) 1.28250(4) -0.17068(2)
K1A_2 K 0.29968(5) 0.78250(4) 0.67068(2)
K1A_3 K -0.70032(5) 0.78250(4) -0.32932(2)
K1B_3 K 0.70032(5) 0.28250(4) -0.17068(2)
O1B O 0.0178(2) 1.39939(11) -0.22402(7)
O3A_2 O -0.6070(2) 1.1300(2) -0.16700(10)
O8B O -0.5897(2) 1.39778(15) -0.24988(9)
O9B_2 O -0.4470(2) 1.43201(14) -0.06253(8)
loop_
_geom_bond_atom_site_label_1
_geom_bond_atom_site_label_2
_geom_bond_site_symmetry_1
_geom_bond_site_symmetry_2
K1 O1 1_555 1_555
O1 C1 1_555 1_555
O2 C1 1_555 1_555
O3 N1 1_555 1_555
O4 N1 1_555 1_555
O5 N2 1_555 1_555
O6 N2 1_555 1_555
O7 N3 1_555 1_555
O8 N3 1_555 1_555
N1 C2 1_555 1_555
N2 C4 1_555 1_555
N3 C6 1_555 1_555
C1 C2 1_555 1_555
C2 C3 1_555 1_555
C3 H1 1_555 1_555
C4 C3 1_555 1_555
C5 C4 1_555 1_555
H2 C5 1_555 1_555
C6 C1 1_555 1_555
C7 O1 1_555 1_555
H3 C7 1_555 1_555
H4 C7 1_555 1_555
C8 O2 1_555 1_555
H5 C8 1_555 1_555
H6 C8 1_555 1_555
O9 K1 1_555 1_555
C9 O9 1_555 1_555
H7 C9 1_555 1_555
H8 C9 1_555 1_555
C10 O9 1_555 1_555
H9 C10 1_555 1_555
H10 C10 1_555 1_555
C10B C9 1_555 1_555
O9B C10B 1_555 1_555
C9B C10 1_555 1_555
H7B C9B 1_555 1_555
H8B C9B 1_555 1_555
H9B C10B 1_555 1_555
H10B C10B 1_555 1_555
O2C K1 1_555 1_555
O5C K1B 1_555 1_555
O6C K1B 1_555 1_555
O3C K1 1_555 1_555
O1A C1A 1_555 1_555
O2A C1A 1_555 1_555
O3A N1A 1_555 1_555
O4A N1A 1_555 1_555
O5A K1 1_555 1_555
O6A K1 1_555 1_555
O7A N3A 1_555 1_555
O8A N3A 1_555 1_555
N1A C2A 1_555 1_555
N2A O5A 1_555 1_555
N3A C6A 1_555 1_555
C1A C2A 1_555 1_555
C2A C3A 1_555 1_555
C3A H1A 1_555 1_555
C4A N2A 1_555 1_555
C5A C4A 1_555 1_555
H2A C5A 1_555 1_555
C6A C1A 1_555 1_555
C7A O1A 1_555 1_555
H3A C7A 1_555 1_555
H4A C7A 1_555 1_555
C8A O2A 1_555 1_555
H5A C8A 1_555 1_555
H6A C8A 1_555 1_555
O8_2 K1 1_555 1_555
K1A O1A 1_555 1_555
K1C O2 1_555 1_555
K1B O2A 1_555 1_555
K1C_2 O3 1_555 1_555
K1_2 O8 1_555 1_555
K1B_2 O3A 1_555 1_555
K1A_2 O5 1_555 1_555
K1A_3 O8A 1_555 1_555
K1B_3 O9B 1_555 1_555
O1B K1B 1_555 1_555
O3A_2 K1B 1_555 1_555
O8B K1B 1_555 1_555
O9B_2 K1B 1_555 1_555
O6 K1A_2 1_555 1_555
C5 C6 1_555 1_555
C7 C8 1_555 1_555
O9B C9B 1_555 1_555
O6A N2A 1_555 1_555
C3A C4A 1_555 1_555
C5A C6A 1_555 1_555
C7A C8A 1_555 1_555

#END
