
#######################################################################
#
#                 Cambridge Crystallographic Data Centre
#                                CCDC 
#
#######################################################################
#
# If this CIF has been generated from an entry in the Cambridge 
# Structural Database, then it will include bibliographic, chemical, 
# crystal, experimental, refinement or atomic coordinate data resulting 
# from the CCDC's data processing and validation procedures.
#
#######################################################################

data_KAZHOK
_symmetry_cell_setting           monoclinic
_symmetry_space_group_name_H-M   'C c'
_symmetry_Int_Tables_number      9
_space_group_name_Hall           'C -2yc'
loop_
_symmetry_equiv_pos_site_id
_symmetry_equiv_pos_as_xyz
1 x,y,z
2 x,-y,1/2+z
3 1/2+x,1/2+y,z
4 1/2+x,1/2-y,1/2+z
_cell_length_a                   8.1892(3)
_cell_length_b                   18.8807(7)
_cell_length_c                   22.4534(9)
_cell_angle_alpha                90
_cell_angle_beta                 111.492(2)
_cell_angle_gamma                90
_cell_volume                     3230.3
loop_
_atom_site_label
_atom_site_type_symbol
_atom_site_fract_x
_atom_site_fract_y
_atom_site_fract_z
Co1 Co 0.64353(3) 0.151218(13) 0.267576(14)
Co2 Co 0.26063(3) 0.123666(13) 0.279044(14)
N1 N 0.3467(3) 0.03195(10) 0.33841(10)
N2 N 0.5468(3) 0.24394(11) 0.21154(10)
N3 N 0.1337(3) 0.20916(10) 0.21499(10)
N4 N 0.7578(3) 0.05644(10) 0.32007(10)
C1 C 0.4320(4) -0.02614(14) 0.44038(12)
H1 H 0.4537 -0.0225 0.4848
C2 C 0.4172(4) -0.09176(14) 0.34885(14)
H2 H 0.4299 -0.1347 0.3289
C3 C 0.3804(4) 0.03324(13) 0.40149(11)
H3 H 0.3685 0.0769 0.4205
C4 C 0.4519(4) -0.09057(14) 0.41464(13)
C5 C 0.3644(4) -0.03072(13) 0.31263(12)
H4 H 0.3397 -0.0331 0.2679
C6 C 0.9130(3) -0.06880(12) 0.38386(13)
C7 C 0.8454(3) 0.05489(12) 0.38335(11)
H5 H 0.8544 0.0975 0.4068
C8 C 0.8216(4) -0.06738(12) 0.31805(12)
H6 H 0.8106 -0.1093 0.2935
C9 C 0.7469(3) -0.00497(11) 0.28843(11)
H7 H 0.6846 -0.0054 0.2435
C10 C 0.9239(4) -0.00591(14) 0.41666(12)
H8 H 0.9847 -0.0042 0.4617
C11 C 0.4855(4) 0.36841(13) 0.20382(14)
H9 H 0.5032 0.4132 0.2245
C12 C 0.5609(3) 0.30813(13) 0.23819(12)
H10 H 0.6256 0.3126 0.2828
C13 C 0.3847(4) 0.36315(16) 0.13949(15)
C14 C 0.4596(4) 0.23913(13) 0.14849(12)
H11 H 0.4534 0.1944 0.1284
C15 C 0.3775(4) 0.29660(14) 0.11099(13)
H12 H 0.3168 0.2909 0.0662
C16 C 0.2818(5) 0.42626(18) 0.10098(15)
H13 H 0.1663 0.4099 0.0707
H14 H 0.2610 0.4611 0.1304
C17 C -0.0428(3) 0.24568(13) 0.10840(12)
H15 H -0.0891 0.2347 0.0640
C18 C -0.0805(3) 0.31061(13) 0.12979(13)
C19 C -0.0043(4) 0.32308(13) 0.19508(13)
H16 H -0.0237 0.3670 0.2121
C20 C 0.0624(3) 0.19704(13) 0.15177(12)
H17 H 0.0851 0.1529 0.1360
C21 C -0.1993(4) 0.36443(16) 0.08532(15)
H18 H -0.1396 0.4110 0.0945
H19 H -0.3068 0.3684 0.0955
C22 C 0.0992(4) 0.27225(12) 0.23538(11)
H20 H 0.1488 0.2823 0.2799
C23 C -0.2540(5) 0.35011(18) 0.01431(16)
H21 H -0.1505 0.3375 0.0045
H22 H -0.3088 0.3926 -0.0098
H23 H -0.3382 0.3109 0.0022
N5 N 0.7518(3) 0.11797(11) 0.19759(12)
N6 N 0.4028(3) 0.09536(12) 0.21955(10)
N7 N 1.0277(3) 0.06265(11) 0.22448(11)
N8 N 0.5018(3) 0.17856(12) 0.32789(10)
N9 N 0.8713(3) 0.20876(11) 0.32710(10)
N10 N 0.3625(3) 0.06707(11) 0.16852(10)
N11 N 0.5697(3) 0.18517(11) 0.38544(10)
N12 N 1.1548(3) 0.16475(12) 0.34695(11)
N13 N 0.6334(4) 0.19239(13) 0.43973(11)
N14 N 0.3248(4) 0.04097(16) 0.11885(13)
N15 N 0.8904(3) 0.09050(11) 0.21136(10)
N16 N 1.0121(3) 0.18592(11) 0.33617(9)
C24 C 0.5102(5) -0.15800(13) 0.45323(14)
H24 H 0.4147 -0.1933 0.4372
H25 H 0.6133 -0.1772 0.4456
C25 C 1.0491(6) -0.13873(17) 0.48715(16)
H26 H 1.1449 -0.1048 0.5059
H27 H 1.0892 -0.1864 0.5033
H28 H 0.9493 -0.1255 0.4990
C26 C 0.9942(5) -0.13791(16) 0.41610(15)
H29 H 0.9083 -0.1765 0.3983
H30 H 1.0981 -0.1483 0.4050
C27 C 0.5574(5) -0.14970(18) 0.52423(16)
H31 H 0.6604 -0.1189 0.5416
H32 H 0.5840 -0.1963 0.5448
H33 H 0.4585 -0.1285 0.5325
C28 C 0.3802(5) 0.4606(2) 0.0648(2)
H34 H 0.5027 0.4675 0.0932
H35 H 0.3271 0.5066 0.0486
H36 H 0.3758 0.4304 0.0288
Co2_2 Co 1.26063(3) 0.123666(13) 0.279044(14)
N7_2 N 0.0277(3) 0.06265(11) 0.22448(11)
N12_2 N 0.1548(3) 0.16475(12) 0.34695(11)
loop_
_geom_bond_atom_site_label_1
_geom_bond_atom_site_label_2
_geom_bond_site_symmetry_1
_geom_bond_site_symmetry_2
Co1 N2 1_555 1_555
Co2 N1 1_555 1_555
N1 C3 1_555 1_555
N2 C12 1_555 1_555
N3 Co2 1_555 1_555
N4 Co1 1_555 1_555
C1 H1 1_555 1_555
C2 H2 1_555 1_555
C3 C1 1_555 1_555
H3 C3 1_555 1_555
C4 C1 1_555 1_555
C5 N1 1_555 1_555
H4 C5 1_555 1_555
C6 C8 1_555 1_555
C7 N4 1_555 1_555
H5 C7 1_555 1_555
C8 H6 1_555 1_555
C9 N4 1_555 1_555
H7 C9 1_555 1_555
C10 C6 1_555 1_555
H8 C10 1_555 1_555
C11 H9 1_555 1_555
C12 C11 1_555 1_555
H10 C12 1_555 1_555
C13 C11 1_555 1_555
C14 N2 1_555 1_555
H11 C14 1_555 1_555
C15 C13 1_555 1_555
H12 C15 1_555 1_555
C16 C13 1_555 1_555
H13 C16 1_555 1_555
H14 C16 1_555 1_555
C17 H15 1_555 1_555
C18 C17 1_555 1_555
C19 C18 1_555 1_555
H16 C19 1_555 1_555
C20 N3 1_555 1_555
H17 C20 1_555 1_555
C21 C18 1_555 1_555
H18 C21 1_555 1_555
H19 C21 1_555 1_555
C22 N3 1_555 1_555
H20 C22 1_555 1_555
C23 C21 1_555 1_555
H21 C23 1_555 1_555
H22 C23 1_555 1_555
H23 C23 1_555 1_555
N5 Co1 1_555 1_555
N6 Co1 1_555 1_555
N7 N15 1_555 1_555
N8 Co1 1_555 1_555
N9 Co1 1_555 1_555
N10 N6 1_555 1_555
N11 N8 1_555 1_555
N12 N16 1_555 1_555
N13 N11 1_555 1_555
N14 N10 1_555 1_555
N15 N5 1_555 1_555
N16 N9 1_555 1_555
C24 C4 1_555 1_555
H24 C24 1_555 1_555
H25 C24 1_555 1_555
C25 H26 1_555 1_555
H27 C25 1_555 1_555
H28 C25 1_555 1_555
C26 C6 1_555 1_555
H29 C26 1_555 1_555
H30 C26 1_555 1_555
C27 C24 1_555 1_555
H31 C27 1_555 1_555
H32 C27 1_555 1_555
H33 C27 1_555 1_555
C28 C16 1_555 1_555
H34 C28 1_555 1_555
H35 C28 1_555 1_555
H36 C28 1_555 1_555
Co2_2 N7 1_555 1_555
N7_2 Co2 1_555 1_555
N12_2 Co2 1_555 1_555
Co2 N6 1_555 1_555
Co2 N8 1_555 1_555
C2 C4 1_555 1_555
C2 C5 1_555 1_555
C7 C10 1_555 1_555
C8 C9 1_555 1_555
C14 C15 1_555 1_555
C17 C20 1_555 1_555
C19 C22 1_555 1_555
N12 Co2_2 1_555 1_555
C25 C26 1_555 1_555

#END
