
#######################################################################
#
#                 Cambridge Crystallographic Data Centre
#                                CCDC 
#
#######################################################################
#
# If this CIF has been generated from an entry in the Cambridge 
# Structural Database, then it will include bibliographic, chemical, 
# crystal, experimental, refinement or atomic coordinate data resulting 
# from the CCDC's data processing and validation procedures.
#
#######################################################################

data_KAZHEZ
_symmetry_cell_setting           monoclinic
_symmetry_space_group_name_H-M   'C c'
_symmetry_Int_Tables_number      9
_space_group_name_Hall           'C -2yc'
loop_
_symmetry_equiv_pos_site_id
_symmetry_equiv_pos_as_xyz
1 x,y,z
2 x,-y,1/2+z
3 1/2+x,1/2+y,z
4 1/2+x,1/2-y,1/2+z
_cell_length_a                   10.2914(16)
_cell_length_b                   30.116(5)
_cell_length_c                   6.6628(11)
_cell_angle_alpha                90
_cell_angle_beta                 101.862(3)
_cell_angle_gamma                90
_cell_volume                     2020.94
loop_
_atom_site_label
_atom_site_type_symbol
_atom_site_fract_x
_atom_site_fract_y
_atom_site_fract_z
Ru1 Ru 0.78851(19) 0.628981(17) 0.8827(3)
K1 K 0.5967(2) 0.53580(13) 1.1464(3)
K2 K 0.9678(2) 0.53440(13) 0.6031(3)
N1 N 0.7268(12) 0.6844(4) 0.6956(17)
N2 N 0.5138(13) 0.6296(4) 1.031(2)
N3 N 1.0681(14) 0.6262(4) 0.735(2)
N4 N 0.8569(10) 0.6822(4) 1.0838(16)
N5 N 0.6751(11) 0.5541(4) 0.5646(16)
N6 N 0.8874(12) 0.5509(4) 1.1862(17)
C1 C 0.6614(13) 0.6860(5) 0.502(2)
H1 H 0.6380 0.6593 0.4346
C2 C 0.6254(13) 0.7250(5) 0.392(2)
H2 H 0.5779 0.7242 0.2577
C3 C 0.6621(12) 0.7644(5) 0.489(2)
H3 H 0.6416 0.7909 0.4179
C4 C 0.7296(13) 0.7656(5) 0.6926(19)
C5 C 0.7625(14) 0.7246(5) 0.792(2)
C6 C 0.8300(11) 0.7233(4) 1.0012(17)
C7 C 0.7685(13) 0.8055(5) 0.8117(18)
H4 H 0.7516 0.8331 0.7489
C8 C 0.8297(14) 0.8035(5) 1.015(2)
H5 H 0.8480 0.8296 1.0897
C9 C 0.8650(12) 0.7626(4) 1.1113(17)
C10 C 0.9334(11) 0.7589(4) 1.3163(17)
H6 H 0.9589 0.7842 1.3947
C11 C 0.9622(13) 0.7171(4) 1.3995(19)
H7 H 1.0079 0.7140 1.5344
C12 C 0.9220(11) 0.6797(4) 1.2788(17)
H8 H 0.9413 0.6518 1.3369
C13 C 0.9657(15) 0.6282(4) 0.785(2)
C14 C 0.6117(15) 0.6299(4) 0.975(2)
C15 C 0.7129(13) 0.5829(5) 0.6788(17)
C16 C 0.8503(14) 0.5798(6) 1.077(2)
O1 O 1.2322(7) 0.5790(2) 0.5010(10)
H9 H 1.236(8) 0.587(2) 0.380(6)
H10 H 1.186(8) 0.598(2) 0.552(10)
O2 O 1.1736(8) 0.5112(3) 0.9097(11)
H11 H 1.183(10) 0.531(2) 1.005(10)
H12 H 1.207(9) 0.4866(15) 0.960(11)
O4 O 0.4358(8) 0.4738(3) 1.2646(12)
H15 H 0.4295 0.4502 1.1933
H16 H 0.3593 0.4838 1.2692
K1A K 0.5967(2) 0.46420(13) 0.6464(3)
K1A_2 K 0.5967(2) 0.46420(13) 1.6464(3)
K1_2 K 0.5967(2) 0.53580(13) 0.1464(3)
K2_2 K 0.9678(2) 0.53440(13) 1.6031(3)
K2A K 0.9678(2) 0.46560(13) 1.1031(3)
K2A_2 K 0.9678(2) 0.46560(13) 0.1031(3)
N5_2 N 0.6751(11) 0.5541(4) 1.5646(16)
N5A N 0.6751(11) 0.4459(4) 1.0646(16)
N6_2 N 0.8874(12) 0.5509(4) 0.1862(17)
N6A N 0.8874(12) 0.4491(4) 0.6862(17)
O2A O 1.1736(8) 0.4888(3) 0.4097(11)
H11A H 1.183(10) 0.469(2) 0.505(10)
H12A H 1.207(9) 0.5134(15) 0.460(11)
O4A O 0.4358(8) 0.5262(3) 0.7646(12)
H15A H 0.4295 0.5498 0.6933
H16A H 0.3593 0.5162 0.7692
O3 O 1.2682(6) 0.5927(2) 1.0915(10)
H13 H 1.328(5) 0.611(2) 1.073(13)
H14 H 1.195(4) 0.600(3) 1.012(11)
loop_
_geom_bond_atom_site_label_1
_geom_bond_atom_site_label_2
_geom_bond_site_symmetry_1
_geom_bond_site_symmetry_2
Ru1 N1 1_555 1_555
K1 N2 1_555 1_555
K2 N3 1_555 1_555
N1 C1 1_555 1_555
N2 C14 1_555 1_555
N3 C13 1_555 1_555
N4 Ru1 1_555 1_555
N5 K2 1_555 1_555
N6 K1 1_555 1_555
C1 H1 1_555 1_555
C2 C1 1_555 1_555
H2 C2 1_555 1_555
C3 C2 1_555 1_555
H3 C3 1_555 1_555
C4 C3 1_555 1_555
C5 N1 1_555 1_555
C6 N4 1_555 1_555
C7 C4 1_555 1_555
H4 C7 1_555 1_555
C8 C7 1_555 1_555
H5 C8 1_555 1_555
C9 C6 1_555 1_555
C10 C9 1_555 1_555
H6 C10 1_555 1_555
C11 C10 1_555 1_555
H7 C11 1_555 1_555
C12 N4 1_555 1_555
H8 C12 1_555 1_555
C13 Ru1 1_555 1_555
C14 Ru1 1_555 1_555
C15 Ru1 1_555 1_555
C16 Ru1 1_555 1_555
O1 K2 1_555 1_555
H9 O1 1_555 1_555
H10 O1 1_555 1_555
O2 K2 1_555 1_555
H11 O2 1_555 1_555
H12 O2 1_555 1_555
O3 H13 1_555 1_555
H14 O3 1_555 1_555
O4 K1 1_555 1_555
H15 O4 1_555 1_555
H16 O4 1_555 1_555
K1A N5 1_555 1_555
K1A_2 O4 1_555 1_555
K1_2 N5 1_555 1_555
K2_2 N6 1_555 1_555
K2A N6 1_555 1_555
K2A_2 N6_2 1_555 1_555
N5_2 K1 1_555 1_555
N5A K1 1_555 1_555
N6_2 K2 1_555 1_555
N6A K2 1_555 1_555
O2A K2 1_555 1_555
H11A O2A 1_555 1_555
H12A O2A 1_555 1_555
O4A K1 1_555 1_555
H15A O4A 1_555 1_555
H16A O4A 1_555 1_555
K1 C14 1_555 1_555
K1 C16 1_555 1_555
K2 C13 1_555 1_555
K2 C15 1_555 1_555
N5 C15 1_555 1_555
N6 C16 1_555 1_555
C4 C5 1_555 1_555
C5 C6 1_555 1_555
C8 C9 1_555 1_555
C11 C12 1_555 1_555
O2 K2A 1_555 1_555
K1A N5A 1_555 1_555
K1A N6A 1_555 1_555
K1A O4A 1_555 1_555
K1A_2 N5_2 1_555 1_555
K1_2 N6_2 1_555 1_555
K2_2 N5_2 1_555 1_555
K2A N5A 1_555 1_555
K2A N6A 1_555 1_555
K2A_2 O2A 1_555 1_555

#END
