
#######################################################################
#
#                 Cambridge Crystallographic Data Centre
#                                CCDC 
#
#######################################################################
#
# If this CIF has been generated from an entry in the Cambridge 
# Structural Database, then it will include bibliographic, chemical, 
# crystal, experimental, refinement or atomic coordinate data resulting 
# from the CCDC's data processing and validation procedures.
#
#######################################################################

data_KAZHID
_symmetry_cell_setting           monoclinic
_symmetry_space_group_name_H-M   'P 21/c'
_symmetry_Int_Tables_number      14
_space_group_name_Hall           '-P 2ybc'
loop_
_symmetry_equiv_pos_site_id
_symmetry_equiv_pos_as_xyz
1 x,y,z
2 -x,1/2+y,1/2-z
3 -x,-y,-z
4 x,1/2-y,1/2+z
_cell_length_a                   6.5658(7)
_cell_length_b                   23.435(2)
_cell_length_c                   11.7021(12)
_cell_angle_alpha                90.00
_cell_angle_beta                 93.836(2)
_cell_angle_gamma                90.00
_cell_volume                     1796.56
loop_
_atom_site_label
_atom_site_type_symbol
_atom_site_fract_x
_atom_site_fract_y
_atom_site_fract_z
Ru1 Ru 0.74186(3) 0.873207(9) 0.773547(18)
K1 K 0.64031(10) 0.75484(3) 0.47849(6)
K2 K 0.61429(9) 1.14832(3) 0.77948(5)
C1 C 0.3711(4) 0.92962(13) 0.6379(2)
H1 H 0.3185 0.8922 0.6263
C2 C 0.2640(4) 0.97532(13) 0.5914(2)
H2 H 0.1392 0.9700 0.5467
C3 C 0.3435(4) 1.02910(13) 0.6117(3)
H3 H 0.2709 1.0612 0.5805
C4 C 0.6160(4) 0.99129(12) 0.7140(2)
C5 C 0.8176(4) 0.99753(12) 0.7803(2)
C6 C 1.0753(4) 1.05307(13) 0.8569(3)
H4 H 1.1335 1.0896 0.8728
C7 C 1.1827(4) 1.00472(12) 0.8938(2)
H5 H 1.3134 1.0077 0.9333
C8 C 1.0933(4) 0.95210(12) 0.8710(2)
H6 H 1.1629 0.9183 0.8958
C9 C 0.8771(4) 0.86599(11) 0.6223(2)
C10 C 0.9431(4) 0.82076(12) 0.8511(2)
C11 C 0.5626(4) 0.80700(12) 0.7276(2)
C12 C 0.5987(4) 0.87916(12) 0.9234(2)
N1 N 0.5500(3) 0.93710(10) 0.69973(19)
N2 N 0.5199(3) 1.03774(10) 0.6741(2)
N3 N 0.8918(3) 1.04982(10) 0.7996(2)
N4 N 0.9083(3) 0.94832(9) 0.81415(18)
N5 N 0.9466(4) 0.86312(11) 0.5347(2)
N6 N 1.0577(4) 0.79127(11) 0.9016(2)
N7 N 0.4592(4) 0.76891(10) 0.6997(2)
N8 N 0.5188(4) 0.88164(11) 1.0085(2)
O1 O 1.0305(3) 0.71614(9) 0.64380(18)
H7 H 1.0946 0.7442 0.6614
H8 H 1.0559 0.7165 0.5780
O2 O 0.7786(3) 0.83299(9) 0.30660(18)
H9 H 0.8590 0.8441 0.3581
H10 H 0.8429 0.8179 0.2597
O3 O 0.2830(3) 0.81043(9) 0.42170(16)
H11 H 0.2101 0.8314 0.4624
H12 H 0.2259 0.7768 0.4137
Ru1C Ru 0.74186(3) 0.626793(9) 0.273547(18)
K1C K 0.64031(10) 0.74516(3) 0.97849(6)
K1B K 0.35969(10) 1.24516(3) 0.52151(6)
K1A K 0.35969(10) 1.25484(3) 1.02151(6)
K2B K 0.38571(9) 0.85168(3) 0.22052(5)
K2A K 0.38571(9) 0.64832(3) 0.72052(5)
K2B_2 K 0.38571(9) 0.85168(3) 1.22052(5)
K2A_2 K 1.38571(9) 0.64832(3) 0.72052(5)
C10C C 0.9431(4) 0.67924(12) 0.3511(2)
C11C C 0.5626(4) 0.69300(12) 0.2276(2)
C12C C 0.5987(4) 0.62084(12) 0.4234(2)
N6C N 1.0577(4) 0.70873(11) 0.4016(2)
N7A N 0.5408(4) 1.26891(10) 0.8003(2)
N8C N 0.5188(4) 0.61836(11) 0.5085(2)
N8B N 0.4812(4) 1.11836(11) 0.9915(2)
O1A O 0.9695(3) 1.21614(9) 0.85620(18)
H7A H 0.9054 1.2442 0.8386
H8A H 0.9441 1.2165 0.9220
O2B O 0.2214(3) 1.16701(9) 0.69340(18)
H9B H 0.1410 1.1559 0.6419
H10B H 0.1571 1.1821 0.7403
O3B O 0.7170(3) 1.18957(9) 0.57830(16)
H11B H 0.7899 1.1686 0.5376
H12B H 0.7741 1.2232 0.5863
loop_
_geom_bond_atom_site_label_1
_geom_bond_atom_site_label_2
_geom_bond_site_symmetry_1
_geom_bond_site_symmetry_2
Ru1 C9 1_555 1_555
K1 C9 1_555 1_555
K2 N2 1_555 1_555
C1 H1 1_555 1_555
C2 C1 1_555 1_555
H2 C2 1_555 1_555
C3 C2 1_555 1_555
H3 C3 1_555 1_555
C4 C5 1_555 1_555
C5 N3 1_555 1_555
C6 H4 1_555 1_555
C7 C6 1_555 1_555
H5 C7 1_555 1_555
C8 C7 1_555 1_555
H6 C8 1_555 1_555
C9 N5 1_555 1_555
C10 Ru1 1_555 1_555
C11 Ru1 1_555 1_555
C12 Ru1 1_555 1_555
N1 Ru1 1_555 1_555
N2 C3 1_555 1_555
N3 K2 1_555 1_555
N4 Ru1 1_555 1_555
N5 K1 1_555 1_555
N6 C10 1_555 1_555
N7 K1 1_555 1_555
N8 C12 1_555 1_555
O1 K1 1_555 1_555
H7 O1 1_555 1_555
H8 O1 1_555 1_555
O2 K1 1_555 1_555
H9 O2 1_555 1_555
H10 O2 1_555 1_555
O3 K1 1_555 1_555
H11 O3 1_555 1_555
H12 O3 1_555 1_555
Ru1C C10C 1_555 1_555
K1C C10 1_555 1_555
K1B O2B 1_555 1_555
K1A N7A 1_555 1_555
K2B O2 1_555 1_555
K2A N7 1_555 1_555
K2B_2 N8 1_555 1_555
K2A_2 O1 1_555 1_555
C10C K1 1_555 1_555
C11C K1 1_555 1_555
C12C K1 1_555 1_555
N6C K1 1_555 1_555
N7A K2 1_555 1_555
N8C K1 1_555 1_555
N8B K2 1_555 1_555
O1A K2 1_555 1_555
H7A O1A 1_555 1_555
H8A O1A 1_555 1_555
O2B K2 1_555 1_555
H9B O2B 1_555 1_555
H10B O2B 1_555 1_555
O3B K2 1_555 1_555
H11B O3B 1_555 1_555
H12B O3B 1_555 1_555
K1 C11 1_555 1_555
C1 N1 1_555 1_555
C4 N1 1_555 1_555
C4 N2 1_555 1_555
C5 N4 1_555 1_555
C6 N3 1_555 1_555
C8 N4 1_555 1_555
C11 N7 1_555 1_555
C11 K1C 1_555 1_555
C12 K1C 1_555 1_555
N6 K1C 1_555 1_555
N8 K1C 1_555 1_555
O3 K2B 1_555 1_555
Ru1C C11C 1_555 1_555
Ru1C C12C 1_555 1_555
K1B O3B 1_555 1_555
K1A N8B 1_555 1_555
K2A N8C 1_555 1_555
C10C N6C 1_555 1_555
C12C N8C 1_555 1_555

#END
