
#######################################################################
#
#                 Cambridge Crystallographic Data Centre
#                                CCDC 
#
#######################################################################
#
# If this CIF has been generated from an entry in the Cambridge 
# Structural Database, then it will include bibliographic, chemical, 
# crystal, experimental, refinement or atomic coordinate data resulting 
# from the CCDC's data processing and validation procedures.
#
#######################################################################

data_KAZJAX
_symmetry_cell_setting           triclinic
_symmetry_space_group_name_H-M   'P -1'
_symmetry_Int_Tables_number      2
_space_group_name_Hall           '-P 1'
loop_
_symmetry_equiv_pos_site_id
_symmetry_equiv_pos_as_xyz
1 x,y,z
2 -x,-y,-z
_cell_length_a                   14.0042(16)
_cell_length_b                   16.3639(19)
_cell_length_c                   18.520(2)
_cell_angle_alpha                113.599(2)
_cell_angle_beta                 103.578(2)
_cell_angle_gamma                91.274(2)
_cell_volume                     3748.16
loop_
_atom_site_label
_atom_site_type_symbol
_atom_site_fract_x
_atom_site_fract_y
_atom_site_fract_z
Eu1 Eu 0.475171(18) 0.694456(16) 0.454203(15)
Eu2 Eu 0.464850(18) 0.748440(16) 0.938450(15)
Ru1 Ru 0.75015(3) 0.85392(3) 0.35926(2)
Ru2 Ru 0.23685(3) 0.66123(3) 0.62880(2)
Ru3 Ru 0.25654(3) 0.48141(3) 0.14606(2)
Ru4 Ru 0.24198(3) 0.94978(3) 1.12752(2)
N1 N 0.8622(3) 0.8523(3) 0.4599(3)
N2 N 0.9109(3) 0.9250(3) 0.2918(3)
H1 H 0.8695 0.9324 0.2517
N3 N 0.8832(3) 0.9043(3) 0.3476(3)
N4 N 0.6953(4) 1.0466(3) 0.4612(3)
N5 N 0.7876(3) 0.6644(3) 0.2344(3)
N6 N 0.6018(3) 0.8665(3) 0.2100(3)
N7 N 0.5837(3) 0.7639(3) 0.4012(3)
N8 N 0.1167(3) 0.6566(3) 0.5301(3)
N9 N 0.0921(3) 0.5805(3) 0.7031(3)
H2 H 0.1377 0.5761 0.7427
N10 N 0.1113(3) 0.6057(3) 0.6466(2)
N11 N 0.2210(4) 0.8587(3) 0.7541(3)
N12 N 0.2960(3) 0.4779(3) 0.5133(3)
N13 N 0.3908(3) 0.7400(3) 0.5675(3)
N14 N 0.3811(3) 0.6698(3) 0.7893(3)
N15 N 0.1558(3) 0.3788(3) 0.0399(3)
N16 N 0.0807(3) 0.5921(3) 0.2017(3)
H3 H 0.1175 0.6372 0.2455
N17 N 0.1165(3) 0.5245(3) 0.1503(3)
N18 N 0.2447(4) 0.3890(3) 0.2669(3)
N19 N 0.2914(3) 0.5906(3) 0.0435(3)
N20 N 0.4387(3) 0.3795(3) 0.1126(3)
N21 N 0.3846(3) 0.6399(3) 0.3061(3)
N22 N 0.1200(3) 0.8661(3) 1.0276(3)
N23 N 0.1019(3) 1.0941(3) 1.2090(3)
H4 H 0.1482 1.1334 1.2504
N24 N 0.1189(3) 1.0187(3) 1.1508(3)
N25 N 0.2899(4) 1.0480(4) 1.0210(3)
N26 N 0.2226(4) 0.8572(3) 1.2466(3)
N27 N 0.3920(3) 0.8235(3) 1.0560(3)
N28 N 0.4116(4) 1.0823(4) 1.2765(3)
O1 O 0.3953(3) 0.8183(3) 0.4451(3)
H5 H 0.4218 0.8484 0.4247
H6 H 0.3406 0.8361 0.4506
O2 O 0.5954(3) 0.8106(3) 0.5692(2)
H7 H 0.5913 0.8163 0.6155
H8 H 0.6163 0.8628 0.5737
O3 O 0.5512(3) 0.6271(3) 0.5456(2)
H9 H 0.6140 0.6266 0.5544
H10 H 0.5354 0.6301 0.5876
O4 O 0.5552(3) 0.5723(3) 0.3861(3)
H11 H 0.5357 0.5224 0.3858
H12 H 0.5916 0.5612 0.3533
O5 O 0.3419(3) 0.5736(2) 0.4160(2)
H13 H 0.3033 0.5476 0.3644
H14 H 0.3316 0.5549 0.4535
O6 O 0.5611(3) 0.7978(3) 0.8636(2)
H15 H 0.5155 0.8036 0.8174
H16 H 0.6049 0.7532 0.8434
O7 O 0.5577(3) 0.8937(3) 1.0222(3)
H17 H 0.6036 0.9014 1.0016
H18 H 0.5831 0.8973 1.0699
O8 O 0.3495(3) 0.8488(2) 0.9029(2)
H19 H 0.3686 0.9027 0.9380
H20 H 0.2914 0.8326 0.9030
O9 O 0.3385(3) 0.6444(3) 0.9296(2)
H21 H 0.2976 0.6119 0.8845
H22 H 0.3235 0.6329 0.9668
O10 O 0.5698(4) 0.7332(3) 1.0505(2)
H23 H 0.6309 0.7289 1.0573
H24 H 0.5477 0.7096 1.0778
C1 C 0.8465(4) 0.8293(4) 0.5182(3)
H31 H 0.7804 0.8115 0.5158
C2 C 0.9223(5) 0.8305(4) 0.5818(3)
H32 H 0.9083 0.8130 0.6218
C3 C 1.0186(4) 0.8572(4) 0.5865(3)
H33 H 1.0718 0.8597 0.6303
C4 C 1.0361(4) 0.8802(3) 0.5265(3)
H34 H 1.1017 0.8980 0.5279
C5 C 0.9564(4) 0.8770(3) 0.4637(3)
C6 C 0.9674(4) 0.9001(3) 0.3975(3)
C7 C 1.0499(4) 0.9178(4) 0.3727(4)
H35 H 1.1178 0.9190 0.3975
C8 C 1.0105(4) 0.9329(3) 0.3048(3)
H36 H 1.0466 0.9466 0.2727
C9 C 0.7201(4) 0.9779(4) 0.4281(3)
C10 C 0.7742(4) 0.7314(3) 0.2820(3)
C11 C 0.6570(4) 0.8606(3) 0.2647(3)
C12 C 0.6429(4) 0.7972(3) 0.3836(3)
C13 C 0.1230(4) 0.6780(3) 0.4683(3)
H37 H 0.1865 0.6975 0.4666
C14 C 0.0415(4) 0.6729(3) 0.4074(3)
H38 H 0.0491 0.6888 0.3649
C15 C -0.0520(4) 0.6442(3) 0.4089(3)
H39 H -0.1092 0.6405 0.3676
C16 C -0.0598(4) 0.6214(3) 0.4710(3)
H40 H -0.1227 0.6010 0.4731
C17 C 0.0245(4) 0.6284(3) 0.5305(3)
C18 C 0.0231(3) 0.6053(3) 0.5987(3)
C19 C -0.0530(4) 0.5794(3) 0.6256(3)
H41 H -0.1223 0.5743 0.6030
C20 C -0.0064(4) 0.5629(3) 0.6910(3)
H42 H -0.0376 0.5428 0.7223
C21 C 0.2194(4) 0.7869(3) 0.7056(3)
C22 C 0.2692(4) 0.5411(3) 0.5566(3)
C23 C 0.3375(4) 0.7131(3) 0.5948(3)
C24 C 0.3318(3) 0.6634(3) 0.7272(3)
C25 C 0.1799(4) 0.3071(4) -0.0167(3)
H43 H 0.2474 0.2971 -0.0087
C26 C 0.1120(5) 0.2471(4) -0.0860(3)
H44 H 0.1325 0.1972 -0.1247
C27 C 0.0137(4) 0.2607(4) -0.0984(4)
H45 H -0.0345 0.2208 -0.1462
C28 C -0.0132(4) 0.3330(4) -0.0402(3)
H46 H -0.0807 0.3431 -0.0468
C29 C 0.0587(4) 0.3909(3) 0.0281(3)
C30 C 0.0378(4) 0.4696(4) 0.0920(3)
C31 C -0.0500(4) 0.5046(4) 0.1082(4)
H47 H -0.1162 0.4794 0.0772
C32 C -0.0193(4) 0.5824(4) 0.1779(4)
H48 H -0.0608 0.6223 0.2047
C33 C 0.2444(4) 0.4189(3) 0.2200(3)
C34 C 0.2761(4) 0.5498(3) 0.0788(3)
C35 C 0.3735(4) 0.4202(3) 0.1264(3)
C36 C 0.3381(3) 0.5824(3) 0.2455(3)
C37 C 0.1252(4) 0.7918(4) 0.9632(3)
H49 H 0.1877 0.7710 0.9615
C38 C 0.0441(5) 0.7445(4) 0.8995(4)
H50 H 0.0511 0.6926 0.8544
C39 C -0.0479(5) 0.7729(4) 0.9014(4)
H51 H -0.1049 0.7402 0.8581
C40 C -0.0560(4) 0.8490(4) 0.9667(4)
H52 H -0.1183 0.8701 0.9691
C41 C 0.0290(4) 0.8947(4) 1.0293(3)
C42 C 0.0302(4) 0.9774(4) 1.0998(3)
C43 C -0.0451(4) 1.0269(4) 1.1262(4)
H53 H -0.1144 1.0124 1.1016
C44 C 0.0038(4) 1.1010(4) 1.1953(4)
H54 H -0.0261 1.1487 1.2277
C45 C 0.2690(4) 1.0139(4) 1.0596(3)
C46 C 0.2250(4) 0.8875(4) 1.2001(3)
C47 C 0.3474(4) 1.0347(4) 1.2221(3)
C48 C 0.3388(4) 0.8704(3) 1.0865(3)
Eu2A Eu 0.535150(18) 0.251560(16) 0.061550(15)
N20A N 0.5613(3) 0.6205(3) 0.8874(3)
O11 O 0.5308(3) 0.0383(3) 0.1490(2)
H25 H 0.4587 0.0266 0.1379
H26 H 0.5475 0.0904 0.1388
O12 O 0.4671(3) 0.9154(3) 0.3708(3)
H27 H 0.5304 0.9498 0.3802
H28 H 0.4153 0.9550 0.3754
O13 O 0.5073(4) 0.6244(3) 0.1525(3)
H29 H 0.4740 0.5759 0.1077
H30 H 0.5706 0.6236 0.1773
O14 O 0.5844(3) 0.5314(3) 0.2418(3)
O15 O 0.7633(3) 0.4879(2) 0.2153(2)
O16 O 0.4433(3) 0.3367(3) 0.2916(3)
O17 O 0.1927(3) 0.7454(3) 0.3236(3)
O18 O 0.7726(3) 0.7532(3) 0.6738(3)
O19 O 0.3160(3) 0.0213(3) 0.4061(3)
O20 O 0.7702(3) 0.9507(3) 0.1753(3)
O21 O 0.3424(3) 0.4049(3) 0.9243(3)
K1 K 0.61772(10) 0.07312(9) 0.30881(8)
K2 K 0.41746(12) 0.77423(11) 0.21308(12)
loop_
_geom_bond_atom_site_label_1
_geom_bond_atom_site_label_2
_geom_bond_site_symmetry_1
_geom_bond_site_symmetry_2
Eu1 N7 1_555 1_555
Eu2 N14 1_555 1_555
Ru1 N1 1_555 1_555
Ru2 N8 1_555 1_555
Ru3 N15 1_555 1_555
Ru4 N22 1_555 1_555
N1 C1 1_555 1_555
N2 H1 1_555 1_555
N3 Ru1 1_555 1_555
N4 C9 1_555 1_555
N5 C10 1_555 1_555
N6 C11 1_555 1_555
N7 C12 1_555 1_555
N8 C13 1_555 1_555
N9 H2 1_555 1_555
N10 Ru2 1_555 1_555
N11 C21 1_555 1_555
N12 C22 1_555 1_555
N13 Eu1 1_555 1_555
N14 C24 1_555 1_555
N15 C25 1_555 1_555
N16 H3 1_555 1_555
N17 Ru3 1_555 1_555
N18 C33 1_555 1_555
N19 C34 1_555 1_555
N20 C35 1_555 1_555
N21 Eu1 1_555 1_555
N22 C37 1_555 1_555
N23 H4 1_555 1_555
N24 Ru4 1_555 1_555
N25 C45 1_555 1_555
N26 C46 1_555 1_555
N27 Eu2 1_555 1_555
N28 C47 1_555 1_555
O1 Eu1 1_555 1_555
H5 O1 1_555 1_555
H6 O1 1_555 1_555
O2 Eu1 1_555 1_555
H7 O2 1_555 1_555
H8 O2 1_555 1_555
O3 Eu1 1_555 1_555
H9 O3 1_555 1_555
H10 O3 1_555 1_555
O4 Eu1 1_555 1_555
H11 O4 1_555 1_555
H12 O4 1_555 1_555
O5 Eu1 1_555 1_555
H13 O5 1_555 1_555
H14 O5 1_555 1_555
O6 Eu2 1_555 1_555
H15 O6 1_555 1_555
H16 O6 1_555 1_555
O7 Eu2 1_555 1_555
H17 O7 1_555 1_555
H18 O7 1_555 1_555
O8 Eu2 1_555 1_555
H19 O8 1_555 1_555
H20 O8 1_555 1_555
O9 Eu2 1_555 1_555
H21 O9 1_555 1_555
H22 O9 1_555 1_555
O10 Eu2 1_555 1_555
H23 O10 1_555 1_555
H24 O10 1_555 1_555
O11 H25 1_555 1_555
H26 O11 1_555 1_555
O12 H27 1_555 1_555
H28 O12 1_555 1_555
O13 H29 1_555 1_555
H30 O13 1_555 1_555
C1 H31 1_555 1_555
C2 C1 1_555 1_555
H32 C2 1_555 1_555
C3 C2 1_555 1_555
H33 C3 1_555 1_555
C4 C3 1_555 1_555
H34 C4 1_555 1_555
C5 N1 1_555 1_555
C6 N3 1_555 1_555
C7 C6 1_555 1_555
H35 C7 1_555 1_555
C8 N2 1_555 1_555
H36 C8 1_555 1_555
C9 Ru1 1_555 1_555
C10 Ru1 1_555 1_555
C11 Ru1 1_555 1_555
C12 Ru1 1_555 1_555
C13 H37 1_555 1_555
C14 C13 1_555 1_555
H38 C14 1_555 1_555
C15 C14 1_555 1_555
H39 C15 1_555 1_555
C16 C15 1_555 1_555
H40 C16 1_555 1_555
C17 N8 1_555 1_555
C18 N10 1_555 1_555
C19 C18 1_555 1_555
H41 C19 1_555 1_555
C20 N9 1_555 1_555
H42 C20 1_555 1_555
C21 Ru2 1_555 1_555
C22 Ru2 1_555 1_555
C23 Ru2 1_555 1_555
C24 Ru2 1_555 1_555
C25 H43 1_555 1_555
C26 C25 1_555 1_555
H44 C26 1_555 1_555
C27 C26 1_555 1_555
H45 C27 1_555 1_555
C28 C27 1_555 1_555
H46 C28 1_555 1_555
C29 N15 1_555 1_555
C30 N17 1_555 1_555
C31 C30 1_555 1_555
H47 C31 1_555 1_555
C32 N16 1_555 1_555
H48 C32 1_555 1_555
C33 Ru3 1_555 1_555
C34 Ru3 1_555 1_555
C35 Ru3 1_555 1_555
C36 Ru3 1_555 1_555
C37 H49 1_555 1_555
C38 C37 1_555 1_555
H50 C38 1_555 1_555
C39 C38 1_555 1_555
H51 C39 1_555 1_555
C40 C39 1_555 1_555
H52 C40 1_555 1_555
C41 N22 1_555 1_555
C42 N24 1_555 1_555
C43 C42 1_555 1_555
H53 C43 1_555 1_555
C44 N23 1_555 1_555
H54 C44 1_555 1_555
C45 Ru4 1_555 1_555
C46 Ru4 1_555 1_555
C47 Ru4 1_555 1_555
C48 Ru4 1_555 1_555
Eu2A N20 1_555 1_555
N20A Eu2 1_555 1_555
N2 N3 1_555 1_555
N9 N10 1_555 1_555
N13 C23 1_555 1_555
N16 N17 1_555 1_555
N21 C36 1_555 1_555
N23 N24 1_555 1_555
N27 C48 1_555 1_555
C4 C5 1_555 1_555
C5 C6 1_555 1_555
C7 C8 1_555 1_555
C16 C17 1_555 1_555
C17 C18 1_555 1_555
C19 C20 1_555 1_555
C28 C29 1_555 1_555
C29 C30 1_555 1_555
C31 C32 1_555 1_555
C40 C41 1_555 1_555
C41 C42 1_555 1_555
C43 C44 1_555 1_555

#END
