
#######################################################################
#
#                 Cambridge Crystallographic Data Centre
#                                CCDC 
#
#######################################################################
#
# If this CIF has been generated from an entry in the Cambridge 
# Structural Database, then it will include bibliographic, chemical, 
# crystal, experimental, refinement or atomic coordinate data resulting 
# from the CCDC's data processing and validation procedures.
#
#######################################################################

data_KAZNIJ
_symmetry_cell_setting           triclinic
_symmetry_space_group_name_H-M   'P -1'
_symmetry_Int_Tables_number      2
_space_group_name_Hall           '-P 1'
loop_
_symmetry_equiv_pos_site_id
_symmetry_equiv_pos_as_xyz
1 x,y,z
2 -x,-y,-z
_cell_length_a                   21.99(2)
_cell_length_b                   14.040(6)
_cell_length_c                   14.002(6)
_cell_angle_alpha                106.17(4)
_cell_angle_beta                 96.11(5)
_cell_angle_gamma                93.16(5)
_cell_volume                     4112.07
loop_
_atom_site_label
_atom_site_type_symbol
_atom_site_fract_x
_atom_site_fract_y
_atom_site_fract_z
Ag1 Ag 0.52887(8) 0.50879(15) 0.27741(14)
Br1 Br 0.43817(15) 0.3613(3) 0.2273(3)
C1 C 0.4637(12) 0.646(2) 0.4985(19)
C2 C 0.4185(11) 0.5516(18) 0.4807(17)
P1 P 0.4831(3) 0.6598(5) 0.3792(5)
C3 C 0.5248(12) 0.7783(15) 0.416(2)
C4 C 0.5166(10) 0.843(2) 0.3559(16)
C5 C 0.5506(14) 0.936(2) 0.384(2)
C6 C 0.5926(12) 0.9641(15) 0.471(2)
C7 C 0.6007(10) 0.900(2) 0.5308(16)
C8 C 0.5668(14) 0.807(2) 0.503(2)
H1 H 0.4880 0.824 0.297
H2 H 0.545 0.979 0.343
H3 H 0.6157 1.0272 0.490
H4 H 0.6292 0.919 0.590
H5 H 0.572 0.763 0.544
C9 C 0.4094(6) 0.6861(18) 0.3249(16)
C10 C 0.3884(10) 0.6380(14) 0.2240(15)
C11 C 0.3308(10) 0.6545(15) 0.1819(10)
C12 C 0.2939(6) 0.7190(18) 0.2407(15)
C13 C 0.3149(10) 0.7671(13) 0.3416(15)
C14 C 0.3726(10) 0.7507(15) 0.3836(10)
H6 H 0.4133 0.594 0.184
H7 H 0.3166 0.622 0.1134
H8 H 0.2548 0.730 0.212
H9 H 0.2899 0.811 0.382
H10 H 0.3868 0.783 0.4521
P2 P 0.6049(3) 0.4561(5) 0.3977(5)
C15 C 0.639(2) 0.338(2) 0.357(2)
C16 C 0.696(2) 0.323(2) 0.4019(14)
C17 C 0.7169(8) 0.228(4) 0.379(2)
C18 C 0.680(2) 0.1476(19) 0.312(2)
C19 C 0.6229(19) 0.162(3) 0.2678(13)
C20 C 0.6020(9) 0.257(4) 0.290(2)
H11 H 0.721 0.378 0.4474
H12 H 0.7560 0.218 0.409
H13 H 0.695 0.083 0.297
H14 H 0.598 0.107 0.2224
H15 H 0.5629 0.267 0.260
C21 C 0.6690(10) 0.5487(17) 0.4358(18)
C22 C 0.7105(13) 0.5511(14) 0.3671(13)
C23 C 0.7571(9) 0.629(2) 0.3894(16)
C24 C 0.7624(10) 0.7040(16) 0.4805(18)
C25 C 0.7209(13) 0.7016(15) 0.5492(13)
C26 C 0.6742(9) 0.624(2) 0.5267(17)
H16 H 0.707 0.5000 0.3053
H17 H 0.7853 0.630 0.343
H18 H 0.7942 0.757 0.496
H19 H 0.724 0.753 0.6110
H20 H 0.6460 0.622 0.573
C27 C 0.5298(12) 0.476(2) 0.005(2)
P3 P 0.5767(3) 0.5225(5) 0.1262(5)
C28 C 0.642(2) 0.445(4) 0.1026(13)
C29 C 0.699(3) 0.4860(11) 0.0911(13)
C30 C 0.7477(12) 0.425(4) 0.0736(16)
C31 C 0.7387(19) 0.324(4) 0.0677(13)
C32 C 0.681(3) 0.2838(11) 0.0792(13)
C33 C 0.6328(11) 0.344(4) 0.0967(16)
H21 H 0.705 0.5546 0.0951
H22 H 0.7867 0.453 0.066
H23 H 0.772 0.283 0.0560
H24 H 0.675 0.2153 0.0752
H25 H 0.5939 0.317 0.105
C34 C 0.6075(10) 0.6470(13) 0.138(2)
C35 C 0.6122(10) 0.6843(17) 0.0556(14)
C36 C 0.6421(11) 0.7787(18) 0.0699(16)
C37 C 0.6674(10) 0.8357(13) 0.166(2)
C38 C 0.6629(10) 0.7983(17) 0.2482(14)
C39 C 0.6328(11) 0.7040(18) 0.2339(16)
H26 H 0.5950 0.646 -0.0098
H27 H 0.6452 0.804 0.014
H28 H 0.6878 0.8998 0.176
H29 H 0.6801 0.837 0.3136
H30 H 0.6296 0.679 0.290
H66 H 0.49975 0.63801 0.53684
H67 H 0.44597 0.70430 0.53234
H68 H 0.43725 0.50075 0.45147
H69 H 0.38347 0.56586 0.44163
H70 H 0.55207 0.49227 -0.04639
H71 H 0.51916 0.40911 -0.01225
Ag1A Ag 0.47113(8) 0.49121(15) 0.72259(14)
Ag1A_2 Ag 0.47113(8) 0.49121(15) -0.27741(14)
Br1A Br 0.56183(15) 0.6387(3) 0.7727(3)
C1A C 0.5363(12) 0.354(2) 0.5015(19)
C2A C 0.5815(11) 0.4484(18) 0.5193(17)
P1A P 0.5169(3) 0.3402(5) 0.6208(5)
C3A C 0.4752(12) 0.2217(15) 0.584(2)
C4A C 0.4834(10) 0.157(2) 0.6441(16)
C5A C 0.4494(14) 0.064(2) 0.616(2)
C6A C 0.4074(12) 0.0359(15) 0.529(2)
C7A C 0.3993(10) 0.100(2) 0.4692(16)
C8A C 0.4332(14) 0.193(2) 0.497(2)
H1A H 0.5120 0.176 0.703
H2A H 0.455 0.021 0.657
H3A H 0.3843 -0.0272 0.510
H4A H 0.3708 0.081 0.410
H5A H 0.428 0.237 0.456
C9A C 0.5906(6) 0.3139(18) 0.6751(16)
C10A C 0.6116(10) 0.3620(14) 0.7760(15)
C11A C 0.6692(10) 0.3455(15) 0.8181(10)
C12A C 0.7061(6) 0.2810(18) 0.7593(15)
C13A C 0.6851(10) 0.2329(13) 0.6584(15)
C14A C 0.6274(10) 0.2493(15) 0.6164(10)
H6A H 0.5867 0.406 0.816
H7A H 0.6834 0.378 0.8866
H8A H 0.7452 0.270 0.788
H9A H 0.7101 0.189 0.618
H10A H 0.6132 0.217 0.5479
P2A P 0.3951(3) 0.5439(5) 0.6023(5)
C15A C 0.361(2) 0.662(2) 0.643(2)
C16A C 0.304(2) 0.677(2) 0.5981(14)
C17A C 0.2831(8) 0.772(4) 0.621(2)
C18A C 0.320(2) 0.8524(19) 0.688(2)
C19A C 0.3771(19) 0.838(3) 0.7322(13)
C20A C 0.3980(9) 0.743(4) 0.710(2)
H11A H 0.279 0.622 0.5526
H12A H 0.2440 0.782 0.591
H13A H 0.305 0.917 0.703
H14A H 0.402 0.893 0.7776
H15A H 0.4371 0.733 0.740
C21A C 0.3310(10) 0.4513(17) 0.5642(18)
C22A C 0.2895(13) 0.4489(14) 0.6329(13)
C23A C 0.2429(9) 0.371(2) 0.6106(16)
C24A C 0.2376(10) 0.2960(16) 0.5195(18)
C25A C 0.2791(13) 0.2984(15) 0.4508(13)
C26A C 0.3258(9) 0.376(2) 0.4733(17)
H16A H 0.293 0.5000 0.6947
H17A H 0.2147 0.370 0.657
H18A H 0.2058 0.243 0.504
H19A H 0.276 0.247 0.3890
H20A H 0.3540 0.378 0.427
C27A C 0.4702(12) 0.524(2) -0.005(2)
P3A P 0.4233(3) 0.4775(5) -0.1262(5)
P3A_2 P 0.4233(3) 0.4775(5) 0.8738(5)
C28A C 0.358(2) 0.555(4) -0.1026(13)
C29A C 0.301(3) 0.5140(11) -0.0911(13)
C30A C 0.2523(12) 0.575(4) -0.0736(16)
C31A C 0.2613(19) 0.676(4) -0.0677(13)
C32A C 0.319(3) 0.7162(11) -0.0792(13)
C33A C 0.3672(11) 0.656(4) -0.0967(16)
H21A H 0.295 0.4454 -0.0951
H22A H 0.2133 0.547 -0.066
H23A H 0.228 0.717 -0.0560
H24A H 0.325 0.7847 -0.0752
H25A H 0.4061 0.683 -0.105
C34A C 0.3925(10) 0.3530(13) -0.138(2)
C35A C 0.3878(10) 0.3157(17) -0.0556(14)
C36A C 0.3579(11) 0.2213(18) -0.0699(16)
C37A C 0.3326(10) 0.1643(13) -0.166(2)
C38A C 0.3371(10) 0.2017(17) -0.2482(14)
C39A C 0.3672(11) 0.2960(18) -0.2339(16)
H26A H 0.4050 0.354 0.0098
H27A H 0.3548 0.196 -0.014
H28A H 0.3122 0.1002 -0.176
H29A H 0.3199 0.163 -0.3136
H30A H 0.3704 0.321 -0.290
H66A H 0.50025 0.36199 0.46316
H67A H 0.55403 0.29570 0.46766
H68A H 0.56275 0.49925 0.54853
H69A H 0.61653 0.43414 0.55837
H70A H 0.44793 0.50773 0.04639
H71A H 0.48084 0.59089 0.01225
Ag2 Ag -0.01561(9) 0.29138(17) 0.04056(14)
Br2 Br -0.11967(13) 0.3034(3) -0.0794(2)
C40 C 0.0747(13) 0.424(2) -0.091(2)
C41 C 0.0141(13) 0.427(2) -0.155(2)
P4 P 0.0733(3) 0.3107(5) -0.0521(5)
C42 C 0.1468(8) 0.312(4) 0.0148(16)
C43 C 0.1654(18) 0.222(2) 0.0279(14)
C44 C 0.222(2) 0.2211(18) 0.0847(19)
C45 C 0.2592(8) 0.310(3) 0.1283(16)
C46 C 0.2406(18) 0.399(2) 0.1152(14)
C47 C 0.185(2) 0.401(2) 0.058(2)
H31 H 0.140 0.162 -0.002
H32 H 0.234 0.160 0.094
H33 H 0.2973 0.309 0.167
H34 H 0.266 0.460 0.145
H35 H 0.172 0.462 0.049
C48 C 0.0755(12) 0.2188(13) -0.1726(10)
C49 C 0.0217(7) 0.1603(19) -0.2222(15)
C50 C 0.0213(8) 0.0953(16) -0.3184(14)
C51 C 0.0748(11) 0.0888(12) -0.3650(10)
C52 C 0.1287(7) 0.1473(18) -0.3154(15)
C53 C 0.1290(8) 0.2122(16) -0.2192(14)
H36 H -0.0146 0.165 -0.191
H37 H -0.0153 0.056 -0.352
H38 H 0.0745 0.0448 -0.4303
H39 H 0.1650 0.143 -0.347
H40 H 0.1655 0.252 -0.185
P5 P -0.0044(3) 0.4523(5) 0.1805(5)
C54 C -0.0566(9) 0.4523(18) 0.2708(15)
C55 C -0.0438(8) 0.5068(16) 0.3720(17)
C56 C -0.0860(11) 0.5002(14) 0.4385(11)
C57 C -0.1409(8) 0.4390(17) 0.4039(15)
C58 C -0.1537(8) 0.3846(15) 0.3027(16)
C59 C -0.1115(11) 0.3912(14) 0.2361(11)
H41 H -0.0066 0.548 0.395
H42 H -0.0773 0.537 0.5071
H43 H -0.1695 0.434 0.449
H44 H -0.1910 0.343 0.279
H45 H -0.1202 0.354 0.1674
C60 C 0.0712(6) 0.473(3) 0.2547(13)
C61 C 0.0957(18) 0.3905(19) 0.2760(13)
C62 C 0.1557(19) 0.399(2) 0.3243(17)
C63 C 0.1912(6) 0.491(3) 0.3513(13)
C64 C 0.1666(18) 0.5737(18) 0.3301(13)
C65 C 0.107(2) 0.565(2) 0.2818(17)
H46 H 0.072 0.328 0.2576
H47 H 0.172 0.343 0.339
H48 H 0.2319 0.497 0.3839
H49 H 0.191 0.636 0.3485
H50 H 0.090 0.621 0.267
C66 C 0.009(2) 0.011(3) 0.051(3)
P6 P -0.0279(4) 0.1407(6) 0.1028(6)
C67 C -0.1068(7) 0.0869(16) 0.0954(15)
C68 C -0.1273(9) 0.0402(17) 0.1638(13)
C69 C -0.1891(10) 0.0056(14) 0.1541(14)
C70 C -0.2306(7) 0.0176(16) 0.0762(15)
C71 C -0.2101(9) 0.0643(16) 0.0077(13)
C72 C -0.1482(10) 0.0990(14) 0.0174(14)
H51 H -0.0991 0.032 0.2167
H52 H -0.2030 -0.026 0.2005
H53 H -0.2726 0.004 0.070
H54 H -0.2382 0.072 -0.0452
H55 H -0.1343 0.131 -0.0290
C73 C 0.0041(13) 0.158(2) 0.2352(15)
C74 C 0.0617(13) 0.1285(18) 0.262(2)
C75 C 0.0862(9) 0.153(2) 0.363(2)
C76 C 0.0532(13) 0.207(2) 0.4374(15)
C77 C -0.0043(13) 0.2364(17) 0.410(2)
C78 C -0.0289(9) 0.212(2) 0.309(2)
H56 H 0.084 0.092 0.212
H57 H 0.1253 0.133 0.382
H58 H 0.0699 0.223 0.5060
H59 H -0.0267 0.273 0.461
H60 H -0.0679 0.232 0.291
H72 H 0.07875 0.48087 -0.02788
H73 H 0.10826 0.43063 -0.12308
H74 H -0.01749 0.41498 -0.11759
H75 H 0.01467 0.37823 -0.21294
H76 H 0.05147 0.02927 0.04630
H77 H 0.00319 -0.02754 0.08818
Ag2A Ag 0.01561(9) 0.70862(17) -0.04056(14)
Ag2A_2 Ag 0.01561(9) -0.29138(17) -0.04056(14)
Br2A Br 0.11967(13) 0.6966(3) 0.0794(2)
C40A C -0.0747(13) 0.576(2) 0.091(2)
C41A C -0.0141(13) 0.573(2) 0.155(2)
P4A P -0.0733(3) 0.6893(5) 0.0521(5)
C42A C -0.1468(8) 0.688(4) -0.0148(16)
C43A C -0.1654(18) 0.778(2) -0.0279(14)
C44A C -0.222(2) 0.7789(18) -0.0847(19)
C45A C -0.2592(8) 0.690(3) -0.1283(16)
C46A C -0.2406(18) 0.601(2) -0.1152(14)
C47A C -0.185(2) 0.599(2) -0.058(2)
H31A H -0.140 0.838 0.002
H32A H -0.234 0.840 -0.094
H33A H -0.2973 0.691 -0.167
H34A H -0.266 0.540 -0.145
H35A H -0.172 0.538 -0.049
C48A C -0.0755(12) 0.7812(13) 0.1726(10)
C49A C -0.0217(7) 0.8397(19) 0.2222(15)
C50A C -0.0213(8) 0.9047(16) 0.3184(14)
C51A C -0.0748(11) 0.9112(12) 0.3650(10)
C52A C -0.1287(7) 0.8527(18) 0.3154(15)
C53A C -0.1290(8) 0.7878(16) 0.2192(14)
H36A H 0.0146 0.835 0.191
H37A H 0.0153 0.944 0.352
H38A H -0.0745 0.9552 0.4303
H39A H -0.1650 0.857 0.347
H40A H -0.1655 0.748 0.185
P5A P 0.0044(3) 0.5477(5) -0.1805(5)
C54A C 0.0566(9) 0.5477(18) -0.2708(15)
C55A C 0.0438(8) 0.4932(16) -0.3720(17)
C56A C 0.0860(11) 0.4998(14) -0.4385(11)
C57A C 0.1409(8) 0.5610(17) -0.4039(15)
C58A C 0.1537(8) 0.6154(15) -0.3027(16)
C59A C 0.1115(11) 0.6088(14) -0.2361(11)
H41A H 0.0066 0.452 -0.395
H42A H 0.0773 0.463 -0.5071
H43A H 0.1695 0.566 -0.449
H44A H 0.1910 0.657 -0.279
H45A H 0.1202 0.646 -0.1674
C60A C -0.0712(6) 0.527(3) -0.2547(13)
C61A C -0.0957(18) 0.6095(19) -0.2760(13)
C62A C -0.1557(19) 0.601(2) -0.3243(17)
C63A C -0.1912(6) 0.509(3) -0.3513(13)
C64A C -0.1666(18) 0.4263(18) -0.3301(13)
C65A C -0.107(2) 0.435(2) -0.2818(17)
H46A H -0.072 0.672 -0.2576
H47A H -0.172 0.657 -0.339
H48A H -0.2319 0.503 -0.3839
H49A H -0.191 0.364 -0.3485
H50A H -0.090 0.379 -0.267
C66A C -0.009(2) -0.011(3) -0.051(3)
P6A P 0.0279(4) -0.1407(6) -0.1028(6)
P6A_2 P 0.0279(4) 0.8593(6) -0.1028(6)
C67A C 0.1068(7) -0.0869(16) -0.0954(15)
C68A C 0.1273(9) -0.0402(17) -0.1638(13)
C69A C 0.1891(10) -0.0056(14) -0.1541(14)
C70A C 0.2306(7) -0.0176(16) -0.0762(15)
C71A C 0.2101(9) -0.0643(16) -0.0077(13)
C72A C 0.1482(10) -0.0990(14) -0.0174(14)
H51A H 0.0991 -0.032 -0.2167
H52A H 0.2030 0.026 -0.2005
H53A H 0.2726 -0.004 -0.070
H54A H 0.2382 -0.072 0.0452
H55A H 0.1343 -0.131 0.0290
C73A C -0.0041(13) -0.158(2) -0.2352(15)
C74A C -0.0617(13) -0.1285(18) -0.262(2)
C75A C -0.0862(9) -0.153(2) -0.363(2)
C76A C -0.0532(13) -0.207(2) -0.4374(15)
C77A C 0.0043(13) -0.2364(17) -0.410(2)
C78A C 0.0289(9) -0.212(2) -0.309(2)
H56A H -0.084 -0.092 -0.212
H57A H -0.1253 -0.133 -0.382
H58A H -0.0699 -0.223 -0.5060
H59A H 0.0267 -0.273 -0.461
H60A H 0.0679 -0.232 -0.291
H72A H -0.07875 0.51913 0.02788
H73A H -0.10826 0.56937 0.12308
H74A H 0.01749 0.58502 0.11759
H75A H -0.01467 0.62177 0.21294
H76A H -0.05147 -0.02927 -0.04630
H77A H -0.00319 0.02754 -0.08818
N1 N 0.1883(17) 0.942(3) 0.5183(18)
C79 C 0.2258(13) 1.005(2) 0.483(3)
C80 C 0.2227(14) 0.993(2) 0.380(3)
C81 C 0.1823(17) 0.918(3) 0.3121(18)
C82 C 0.1448(13) 0.855(2) 0.347(3)
C83 C 0.1478(14) 0.867(2) 0.451(3)
H61 H 0.2533 1.055 0.529
H62 H 0.248 1.036 0.356
H63 H 0.180 0.910 0.242
H64 H 0.1173 0.804 0.301
H65 H 0.122 0.824 0.475
O1 O 0.406(3) 0.927(6) 0.155(6)
O2 O 0.380(4) 0.071(6) 0.185(6)
loop_
_geom_bond_atom_site_label_1
_geom_bond_atom_site_label_2
_geom_bond_site_symmetry_1
_geom_bond_site_symmetry_2
Ag1 Br1 1_555 1_555
C1 C2 1_555 1_555
C2 H68 1_555 1_555
P1 Ag1 1_555 1_555
C3 P1 1_555 1_555
C4 C3 1_555 1_555
C5 C4 1_555 1_555
C6 C5 1_555 1_555
C7 C6 1_555 1_555
C8 C3 1_555 1_555
H1 C4 1_555 1_555
H2 C5 1_555 1_555
H3 C6 1_555 1_555
H4 C7 1_555 1_555
H5 C8 1_555 1_555
C9 P1 1_555 1_555
C10 C9 1_555 1_555
C11 C10 1_555 1_555
C12 C11 1_555 1_555
C13 C12 1_555 1_555
C14 C9 1_555 1_555
H6 C10 1_555 1_555
H7 C11 1_555 1_555
H8 C12 1_555 1_555
H9 C13 1_555 1_555
H10 C14 1_555 1_555
P2 Ag1 1_555 1_555
C15 P2 1_555 1_555
C16 C15 1_555 1_555
C17 C16 1_555 1_555
C18 C17 1_555 1_555
C19 C18 1_555 1_555
C20 C15 1_555 1_555
H11 C16 1_555 1_555
H12 C17 1_555 1_555
H13 C18 1_555 1_555
H14 C19 1_555 1_555
H15 C20 1_555 1_555
C21 P2 1_555 1_555
C22 C21 1_555 1_555
C23 C22 1_555 1_555
C24 C23 1_555 1_555
C25 C24 1_555 1_555
C26 C21 1_555 1_555
H16 C22 1_555 1_555
H17 C23 1_555 1_555
H18 C24 1_555 1_555
H19 C25 1_555 1_555
H20 C26 1_555 1_555
C27 P3 1_555 1_555
P3 Ag1 1_555 1_555
C28 P3 1_555 1_555
C29 C28 1_555 1_555
C30 C29 1_555 1_555
C31 C30 1_555 1_555
C32 C31 1_555 1_555
C33 C28 1_555 1_555
H21 C29 1_555 1_555
H22 C30 1_555 1_555
H23 C31 1_555 1_555
H24 C32 1_555 1_555
H25 C33 1_555 1_555
C34 P3 1_555 1_555
C35 C34 1_555 1_555
C36 C35 1_555 1_555
C37 C36 1_555 1_555
C38 C37 1_555 1_555
C39 C34 1_555 1_555
H26 C35 1_555 1_555
H27 C36 1_555 1_555
H28 C37 1_555 1_555
H29 C38 1_555 1_555
H30 C39 1_555 1_555
Ag2 Br2 1_555 1_555
C40 C41 1_555 1_555
C41 H74 1_555 1_555
P4 Ag2 1_555 1_555
C42 P4 1_555 1_555
C43 C42 1_555 1_555
C44 C43 1_555 1_555
C45 C44 1_555 1_555
C46 C45 1_555 1_555
C47 C42 1_555 1_555
H31 C43 1_555 1_555
H32 C44 1_555 1_555
H33 C45 1_555 1_555
H34 C46 1_555 1_555
H35 C47 1_555 1_555
C48 P4 1_555 1_555
C49 C48 1_555 1_555
C50 C49 1_555 1_555
C51 C50 1_555 1_555
C52 C51 1_555 1_555
C53 C48 1_555 1_555
H36 C49 1_555 1_555
H37 C50 1_555 1_555
H38 C51 1_555 1_555
H39 C52 1_555 1_555
H40 C53 1_555 1_555
P5 Ag2 1_555 1_555
C54 P5 1_555 1_555
C55 C54 1_555 1_555
C56 C55 1_555 1_555
C57 C56 1_555 1_555
C58 C57 1_555 1_555
C59 C54 1_555 1_555
H41 C55 1_555 1_555
H42 C56 1_555 1_555
H43 C57 1_555 1_555
H44 C58 1_555 1_555
H45 C59 1_555 1_555
C60 P5 1_555 1_555
C61 C60 1_555 1_555
C62 C61 1_555 1_555
C63 C62 1_555 1_555
C64 C63 1_555 1_555
C65 C60 1_555 1_555
H46 C61 1_555 1_555
H47 C62 1_555 1_555
H48 C63 1_555 1_555
H49 C64 1_555 1_555
H50 C65 1_555 1_555
C66 P6 1_555 1_555
P6 Ag2 1_555 1_555
C67 P6 1_555 1_555
C68 C67 1_555 1_555
C69 C68 1_555 1_555
C70 C69 1_555 1_555
C71 C70 1_555 1_555
C72 C67 1_555 1_555
H51 C68 1_555 1_555
H52 C69 1_555 1_555
H53 C70 1_555 1_555
H54 C71 1_555 1_555
H55 C72 1_555 1_555
C73 P6 1_555 1_555
C74 C73 1_555 1_555
C75 C74 1_555 1_555
C76 C75 1_555 1_555
C77 C76 1_555 1_555
C78 C73 1_555 1_555
H56 C74 1_555 1_555
H57 C75 1_555 1_555
H58 C76 1_555 1_555
H59 C77 1_555 1_555
H60 C78 1_555 1_555
N1 C79 1_555 1_555
C79 C80 1_555 1_555
C80 C81 1_555 1_555
C81 C82 1_555 1_555
C82 C83 1_555 1_555
C83 N1 1_555 1_555
H61 C79 1_555 1_555
H62 C80 1_555 1_555
H63 C81 1_555 1_555
H64 C82 1_555 1_555
H65 C83 1_555 1_555
H66 C1 1_555 1_555
H67 C1 1_555 1_555
H69 C2 1_555 1_555
H70 C27 1_555 1_555
H71 C27 1_555 1_555
H72 C40 1_555 1_555
H73 C40 1_555 1_555
H75 C41 1_555 1_555
H76 C66 1_555 1_555
H77 C66 1_555 1_555
Ag1A Br1A 1_555 1_555
Ag1A_2 P3A 1_555 1_555
C1A C2A 1_555 1_555
C2A P2 1_555 1_555
P1A Ag1A 1_555 1_555
C3A P1A 1_555 1_555
C4A C3A 1_555 1_555
C5A C4A 1_555 1_555
C6A C5A 1_555 1_555
C7A C6A 1_555 1_555
C8A C3A 1_555 1_555
H1A C4A 1_555 1_555
H2A C5A 1_555 1_555
H3A C6A 1_555 1_555
H4A C7A 1_555 1_555
H5A C8A 1_555 1_555
C9A P1A 1_555 1_555
C10A C9A 1_555 1_555
C11A C10A 1_555 1_555
C12A C11A 1_555 1_555
C13A C12A 1_555 1_555
C14A C9A 1_555 1_555
H6A C10A 1_555 1_555
H7A C11A 1_555 1_555
H8A C12A 1_555 1_555
H9A C13A 1_555 1_555
H10A C14A 1_555 1_555
P2A C2 1_555 1_555
C15A P2A 1_555 1_555
C16A C15A 1_555 1_555
C17A C16A 1_555 1_555
C18A C17A 1_555 1_555
C19A C18A 1_555 1_555
C20A C15A 1_555 1_555
H11A C16A 1_555 1_555
H12A C17A 1_555 1_555
H13A C18A 1_555 1_555
H14A C19A 1_555 1_555
H15A C20A 1_555 1_555
C21A P2A 1_555 1_555
C22A C21A 1_555 1_555
C23A C22A 1_555 1_555
C24A C23A 1_555 1_555
C25A C24A 1_555 1_555
C26A C21A 1_555 1_555
H16A C22A 1_555 1_555
H17A C23A 1_555 1_555
H18A C24A 1_555 1_555
H19A C25A 1_555 1_555
H20A C26A 1_555 1_555
C27A C27 1_555 1_555
P3A C27A 1_555 1_555
P3A_2 Ag1A 1_555 1_555
C28A P3A 1_555 1_555
C29A C28A 1_555 1_555
C30A C29A 1_555 1_555
C31A C30A 1_555 1_555
C32A C31A 1_555 1_555
C33A C28A 1_555 1_555
H21A C29A 1_555 1_555
H22A C30A 1_555 1_555
H23A C31A 1_555 1_555
H24A C32A 1_555 1_555
H25A C33A 1_555 1_555
C34A P3A 1_555 1_555
C35A C34A 1_555 1_555
C36A C35A 1_555 1_555
C37A C36A 1_555 1_555
C38A C37A 1_555 1_555
C39A C34A 1_555 1_555
H26A C35A 1_555 1_555
H27A C36A 1_555 1_555
H28A C37A 1_555 1_555
H29A C38A 1_555 1_555
H30A C39A 1_555 1_555
Ag2A Br2A 1_555 1_555
Ag2A_2 P6A 1_555 1_555
C40A C41A 1_555 1_555
C41A P5 1_555 1_555
P4A Ag2A 1_555 1_555
C42A P4A 1_555 1_555
C43A C42A 1_555 1_555
C44A C43A 1_555 1_555
C45A C44A 1_555 1_555
C46A C45A 1_555 1_555
C47A C42A 1_555 1_555
H31A C43A 1_555 1_555
H32A C44A 1_555 1_555
H33A C45A 1_555 1_555
H34A C46A 1_555 1_555
H35A C47A 1_555 1_555
C48A P4A 1_555 1_555
C49A C48A 1_555 1_555
C50A C49A 1_555 1_555
C51A C50A 1_555 1_555
C52A C51A 1_555 1_555
C53A C48A 1_555 1_555
H36A C49A 1_555 1_555
H37A C50A 1_555 1_555
H38A C51A 1_555 1_555
H39A C52A 1_555 1_555
H40A C53A 1_555 1_555
P5A C41 1_555 1_555
C54A P5A 1_555 1_555
C55A C54A 1_555 1_555
C56A C55A 1_555 1_555
C57A C56A 1_555 1_555
C58A C57A 1_555 1_555
C59A C54A 1_555 1_555
H41A C55A 1_555 1_555
H42A C56A 1_555 1_555
H43A C57A 1_555 1_555
H44A C58A 1_555 1_555
H45A C59A 1_555 1_555
C60A P5A 1_555 1_555
C61A C60A 1_555 1_555
C62A C61A 1_555 1_555
C63A C62A 1_555 1_555
C64A C63A 1_555 1_555
C65A C60A 1_555 1_555
H46A C61A 1_555 1_555
H47A C62A 1_555 1_555
H48A C63A 1_555 1_555
H49A C64A 1_555 1_555
H50A C65A 1_555 1_555
C66A C66 1_555 1_555
P6A C66A 1_555 1_555
P6A_2 Ag2A 1_555 1_555
C67A P6A 1_555 1_555
C68A C67A 1_555 1_555
C69A C68A 1_555 1_555
C70A C69A 1_555 1_555
C71A C70A 1_555 1_555
C72A C67A 1_555 1_555
H51A C68A 1_555 1_555
H52A C69A 1_555 1_555
H53A C70A 1_555 1_555
H54A C71A 1_555 1_555
H55A C72A 1_555 1_555
C73A P6A 1_555 1_555
C74A C73A 1_555 1_555
C75A C74A 1_555 1_555
C76A C75A 1_555 1_555
C77A C76A 1_555 1_555
C78A C73A 1_555 1_555
H56A C74A 1_555 1_555
H57A C75A 1_555 1_555
H58A C76A 1_555 1_555
H59A C77A 1_555 1_555
H60A C78A 1_555 1_555
H66A C1A 1_555 1_555
H67A C1A 1_555 1_555
H68A C2A 1_555 1_555
H69A C2A 1_555 1_555
H70A C27A 1_555 1_555
H71A C27A 1_555 1_555
H72A C40A 1_555 1_555
H73A C40A 1_555 1_555
H74A C41A 1_555 1_555
H75A C41A 1_555 1_555
H76A C66A 1_555 1_555
H77A C66A 1_555 1_555
C1 P1 1_555 1_555
C7 C8 1_555 1_555
C13 C14 1_555 1_555
C19 C20 1_555 1_555
C25 C26 1_555 1_555
C32 C33 1_555 1_555
C38 C39 1_555 1_555
C40 P4 1_555 1_555
C46 C47 1_555 1_555
C52 C53 1_555 1_555
C58 C59 1_555 1_555
C64 C65 1_555 1_555
C71 C72 1_555 1_555
C77 C78 1_555 1_555
Ag1A P2A 1_555 1_555
C1A P1A 1_555 1_555
C7A C8A 1_555 1_555
C13A C14A 1_555 1_555
C19A C20A 1_555 1_555
C25A C26A 1_555 1_555
C32A C33A 1_555 1_555
C38A C39A 1_555 1_555
Ag2A P5A 1_555 1_555
C40A P4A 1_555 1_555
C46A C47A 1_555 1_555
C52A C53A 1_555 1_555
C58A C59A 1_555 1_555
C64A C65A 1_555 1_555
C71A C72A 1_555 1_555
C77A C78A 1_555 1_555

#END
