
#######################################################################
#
#                 Cambridge Crystallographic Data Centre
#                                CCDC 
#
#######################################################################
#
# If this CIF has been generated from an entry in the Cambridge 
# Structural Database, then it will include bibliographic, chemical, 
# crystal, experimental, refinement or atomic coordinate data resulting 
# from the CCDC's data processing and validation procedures.
#
#######################################################################

data_KAZPEH
_symmetry_cell_setting           triclinic
_symmetry_space_group_name_H-M   'P -1'
_symmetry_Int_Tables_number      2
_space_group_name_Hall           '-P 1'
loop_
_symmetry_equiv_pos_site_id
_symmetry_equiv_pos_as_xyz
1 x,y,z
2 -x,-y,-z
_cell_length_a                   17.779(5)
_cell_length_b                   14.462(5)
_cell_length_c                   14.390(4)
_cell_angle_alpha                60.73(3)
_cell_angle_beta                 87.80(2)
_cell_angle_gamma                70.54(3)
_cell_volume                     3008.12
loop_
_atom_site_label
_atom_site_type_symbol
_atom_site_fract_x
_atom_site_fract_y
_atom_site_fract_z
C43 C -0.1654(13) 0.070(3) 0.202(2)
O2 O -0.2025(11) 0.1562(15) 0.1158(15)
O3 O -0.1027(10) 0.0633(14) 0.2434(13)
C44 C -0.186(2) -0.037(3) 0.244(3)
H44 H -0.16117 -0.09176 0.31986
H45 H -0.16784 -0.06875 0.19996
H46 H -0.24376 -0.01496 0.23878
O4 O -0.1258(15) 0.298(2) -0.0221(16)
O5 O -0.3677(12) 0.2031(19) 0.133(2)
O6 O -0.456(2) 0.395(4) 0.093(4)
C45 C -0.197(2) 0.332(3) 0.244(3)
C46 C -0.267(3) 0.348(4) 0.206(3)
C47 C -0.330(2) 0.417(3) 0.203(3)
C48 C -0.333(3) 0.456(4) 0.268(3)
C49 C -0.270(2) 0.461(3) 0.305(3)
C50 C -0.199(2) 0.381(3) 0.305(3)
H47 H -0.14679 0.28324 0.23860
H48 H -0.26687 0.30842 0.16973
H49 H -0.37536 0.44175 0.15277
H50 H -0.38801 0.48133 0.28415
H51 H -0.28278 0.50527 0.33741
H52 H -0.15181 0.38224 0.33831
C51 C 0.3638(16) 0.274(2) 0.660(2)
C52 C 0.3675(17) 0.233(2) 0.585(2)
C53 C 0.3783(16) 0.122(2) 0.627(2)
C54 C 0.3809(16) 0.054(2) 0.733(2)
C55 C 0.3750(17) 0.093(3) 0.797(2)
C56 C 0.3727(17) 0.196(2) 0.764(2)
H53 H 0.37259 0.34009 0.64155
H54 H 0.36309 0.27979 0.51538
H55 H 0.38005 0.08758 0.58461
H56 H 0.38495 -0.02099 0.77426
H57 H 0.37983 0.05227 0.86904
H58 H 0.35479 0.22949 0.80460
C57 C -0.342(2) 0.654(2) -0.284(3)
C58 C -0.266(2) 0.578(3) -0.243(3)
C59 C -0.237(2) 0.478(3) -0.165(3)
C60 C -0.303(2) 0.452(3) -0.133(3)
C61 C -0.3868(14) 0.509(4) -0.178(4)
C62 C -0.4012(12) 0.622(3) -0.251(3)
H59 H -0.35458 0.73086 -0.34097
H60 H -0.22745 0.61104 -0.27973
H61 H -0.18121 0.43094 -0.13793
H62 H -0.29085 0.38590 -0.06527
H63 H -0.42330 0.46936 -0.16040
H64 H -0.45552 0.67326 -0.27117
C63 C 0.428(3) 0.515(4) 0.451(4)
C64 C 0.436(2) 0.553(4) 0.515(4)
C65 C 0.503(3) 0.447(4) 0.440(4)
H65 H 0.37927 0.52807 0.41534
H66 H 0.38401 0.58960 0.52627
H67 H 0.51038 0.40591 0.40223
C63A C 0.572(3) 0.485(4) 0.549(4)
C64A C 0.564(2) 0.447(4) 0.485(4)
C65A C 0.497(3) 0.553(4) 0.560(4)
H65A H 0.62073 0.47193 0.58466
H66A H 0.61599 0.41040 0.47373
H67A H 0.48962 0.59409 0.59777
Ag1 Ag 0.13047(10) 0.10273(15) 0.19478(15)
O1 O -0.0214(8) 0.1949(12) 0.1630(11)
C1 C 0.1131(11) 0.4018(17) 0.0225(16)
C2 C 0.0206(12) 0.4396(17) 0.0061(18)
P1 P 0.1611(3) 0.2605(5) 0.0411(5)
C3 C 0.1318(11) 0.2824(15) -0.0917(15)
C4 C 0.0647(13) 0.2647(18) -0.1048(16)
C5 C 0.0416(13) 0.2839(18) -0.2056(18)
C6 C 0.0834(13) 0.3244(18) -0.2880(17)
C7 C 0.1527(12) 0.339(2) -0.2743(17)
C8 C 0.1762(11) 0.324(2) -0.1742(17)
C9 C 0.2682(11) 0.2393(16) 0.0489(15)
C10 C 0.3206(12) 0.1345(19) 0.069(2)
C11 C 0.4019(14) 0.112(2) 0.075(2)
C12 C 0.4306(16) 0.187(2) 0.066(2)
C13 C 0.3849(15) 0.290(2) 0.049(3)
C14 C 0.3015(13) 0.317(2) 0.036(2)
C15 C 0.1160(12) -0.0114(17) 0.4817(16)
C16 C 0.0204(12) 0.0380(17) 0.4579(15)
P2 P 0.1586(3) 0.0697(5) 0.3793(5)
C17 C 0.1302(11) 0.2016(16) 0.3810(16)
C18 C 0.0629(12) 0.2929(17) 0.3149(17)
C19 C 0.0367(12) 0.3934(19) 0.3171(18)
C20 C 0.0808(13) 0.4061(16) 0.386(2)
C21 C 0.1463(14) 0.3157(17) 0.4537(17)
C22 C 0.1696(11) 0.2108(16) 0.4553(16)
C23 C 0.2635(11) 0.0026(16) 0.4341(16)
C24 C 0.3160(12) 0.0447(19) 0.3646(18)
C25 C 0.3992(16) -0.001(2) 0.3975(18)
C26 C 0.4295(13) -0.091(2) 0.494(2)
C27 C 0.3820(14) -0.133(2) 0.567(2)
C28 C 0.2965(12) -0.0828(18) 0.5317(18)
C29 C 0.1127(10) -0.0551(17) 0.0621(16)
C30 C 0.0202(13) -0.011(2) 0.0565(17)
P3 P 0.1606(4) -0.0700(5) 0.1797(5)
C31 C 0.1396(11) -0.1855(15) 0.2876(15)
C32 C 0.0758(12) -0.1701(16) 0.3382(16)
C33 C 0.0536(12) -0.2511(16) 0.4231(17)
C34 C 0.1036(11) -0.3584(16) 0.4498(16)
C35 C 0.1634(12) -0.3909(18) 0.4044(18)
C36 C 0.1851(12) -0.3004(18) 0.3201(18)
C37 C 0.2676(11) -0.1295(17) 0.1777(16)
C38 C 0.2989(12) -0.159(2) 0.1043(19)
C39 C 0.3802(13) -0.200(2) 0.101(2)
C40 C 0.4302(13) -0.212(2) 0.178(2)
C41 C 0.4009(14) -0.185(2) 0.256(2)
C42 C 0.3182(12) -0.145(2) 0.2555(18)
H1 H -0.03633 0.22471 0.20082
H2 H 0.12996 0.40213 0.08465
H3 H 0.12877 0.45492 -0.03884
H4 H 0.00258 0.44251 -0.05711
H5 H 0.00399 0.38646 0.06662
H6 H 0.03366 0.24128 -0.04779
H7 H -0.00413 0.26845 -0.21668
H8 H 0.06301 0.34574 -0.35919
H9 H 0.18451 0.35856 -0.33064
H10 H 0.22215 0.34036 -0.16325
H11 H 0.30033 0.07831 0.07860
H12 H 0.43759 0.03972 0.08586
H13 H 0.48674 0.16747 0.07154
H14 H 0.40837 0.34037 0.04959
H15 H 0.26705 0.39186 0.01358
H16 H 0.13443 -0.08636 0.49253
H17 H 0.13224 -0.01551 0.54656
H18 H 0.00080 0.10996 0.45527
H19 H 0.00335 0.05056 0.38935
H20 H 0.03430 0.28071 0.26940
H21 H -0.00953 0.45054 0.26773
H22 H 0.06124 0.47766 0.38254
H23 H 0.17508 0.32621 0.50073
H24 H 0.21366 0.14832 0.51055
H25 H 0.29470 0.10363 0.29187
H26 H 0.43276 0.03537 0.35292
H27 H 0.48610 -0.12722 0.51348
H28 H 0.40364 -0.19561 0.63784
H29 H 0.26159 -0.11045 0.58191
H30 H 0.12799 -0.00467 -0.00077
H31 H 0.13040 -0.12852 0.06749
H32 H 0.00483 -0.06626 0.11597
H33 H 0.00340 0.05738 0.05799
H34 H 0.04445 -0.09141 0.31253
H35 H 0.00856 -0.23207 0.45624
H36 H 0.09162 -0.41659 0.51245
H37 H 0.18972 -0.46886 0.42644
H38 H 0.23037 -0.31890 0.28491
H39 H 0.26146 -0.15149 0.05335
H40 H 0.39974 -0.21834 0.04740
H41 H 0.48715 -0.24128 0.17994
H42 H 0.43618 -0.19435 0.30855
H43 H 0.29830 -0.13022 0.31114
Ag1A Ag -0.13047(10) 0.89727(15) -0.19478(15)
Ag1A_2 Ag -0.13047(10) -0.10273(15) 0.80522(15)
Ag1A_3 Ag -0.13047(10) -0.10273(15) -0.19478(15)
O1A O 0.0214(8) 0.8051(12) -0.1630(11)
C1A C -0.1131(11) 0.5982(17) -0.0225(16)
C2A C -0.0206(12) 0.5604(17) -0.0061(18)
P1A P -0.1611(3) 0.7395(5) -0.0411(5)
C3A C -0.1318(11) 0.7176(15) 0.0917(15)
C4A C -0.0647(13) 0.7353(18) 0.1048(16)
C5A C -0.0416(13) 0.7161(18) 0.2056(18)
C6A C -0.0834(13) 0.6756(18) 0.2880(17)
C7A C -0.1527(12) 0.661(2) 0.2743(17)
C8A C -0.1762(11) 0.676(2) 0.1742(17)
C9A C -0.2682(11) 0.7607(16) -0.0489(15)
C10A C -0.3206(12) 0.8655(19) -0.069(2)
C11A C -0.4019(14) 0.888(2) -0.075(2)
C12A C -0.4306(16) 0.813(2) -0.066(2)
C13A C -0.3849(15) 0.710(2) -0.049(3)
C14A C -0.3015(13) 0.683(2) -0.036(2)
C15A C -0.1160(12) 0.0114(17) 0.5183(16)
C16A C -0.0204(12) -0.0380(17) 0.5421(15)
P2A P -0.1586(3) 0.9303(5) -0.3793(5)
P2A_2 P -0.1586(3) -0.0697(5) 0.6207(5)
C17A C -0.1302(11) -0.2016(16) 0.6190(16)
C18A C -0.0629(12) -0.2929(17) 0.6851(17)
C19A C -0.0367(12) -0.3934(19) 0.6829(18)
C20A C -0.0808(13) -0.4061(16) 0.614(2)
C21A C -0.1463(14) -0.3157(17) 0.5463(17)
C22A C -0.1696(11) -0.2108(16) 0.5447(16)
C23A C -0.2635(11) -0.0026(16) 0.5659(16)
C24A C -0.3160(12) -0.0447(19) 0.6354(18)
C25A C -0.3992(16) 0.001(2) 0.6025(18)
C26A C -0.4295(13) 0.091(2) 0.506(2)
C27A C -0.3820(14) 0.133(2) 0.433(2)
C28A C -0.2965(12) 0.0828(18) 0.4683(18)
C29A C -0.1127(10) 0.0551(17) -0.0621(16)
C30A C -0.0202(13) 0.011(2) -0.0565(17)
P3A P -0.1606(4) 1.0700(5) -0.1797(5)
P3A_2 P -0.1606(4) 0.0700(5) -0.1797(5)
C31A C -0.1396(11) 0.1855(15) -0.2876(15)
C32A C -0.0758(12) 0.1701(16) -0.3382(16)
C33A C -0.0536(12) 0.2511(16) -0.4231(17)
C34A C -0.1036(11) 0.3584(16) -0.4498(16)
C35A C -0.1634(12) 0.3909(18) -0.4044(18)
C36A C -0.1851(12) 0.3004(18) -0.3201(18)
C37A C -0.2676(11) 0.1295(17) -0.1777(16)
C38A C -0.2989(12) 0.159(2) -0.1043(19)
C39A C -0.3802(13) 0.200(2) -0.101(2)
C40A C -0.4302(13) 0.212(2) -0.178(2)
C41A C -0.4009(14) 0.185(2) -0.256(2)
C42A C -0.3182(12) 0.145(2) -0.2555(18)
H1A H 0.03633 0.77529 -0.20082
H2A H -0.12996 0.59787 -0.08465
H3A H -0.12877 0.54508 0.03884
H4A H -0.00258 0.55749 0.05711
H5A H -0.00399 0.61354 -0.06662
H6A H -0.03366 0.75872 0.04779
H7A H 0.00413 0.73155 0.21668
H8A H -0.06301 0.65426 0.35919
H9A H -0.18451 0.64144 0.33064
H10A H -0.22215 0.65964 0.16325
H11A H -0.30033 0.92169 -0.07860
H12A H -0.43759 0.96028 -0.08586
H13A H -0.48674 0.83253 -0.07154
H14A H -0.40837 0.65963 -0.04959
H15A H -0.26705 0.60814 -0.01358
H16A H -0.13443 0.08636 0.50747
H17A H -0.13224 0.01551 0.45344
H18A H -0.00080 -0.10996 0.54473
H19A H -0.00335 -0.05056 0.61065
H20A H -0.03430 -0.28071 0.73060
H21A H 0.00953 -0.45054 0.73227
H22A H -0.06124 -0.47766 0.61746
H23A H -0.17508 -0.32621 0.49927
H24A H -0.21366 -0.14832 0.48945
H25A H -0.29470 -0.10363 0.70813
H26A H -0.43276 -0.03537 0.64708
H27A H -0.48610 0.12722 0.48652
H28A H -0.40364 0.19561 0.36216
H29A H -0.26159 0.11045 0.41809
H30A H -0.12799 0.00467 0.00077
H31A H -0.13040 0.12852 -0.06749
H32A H -0.00483 0.06626 -0.11597
H33A H -0.00340 -0.05738 -0.05799
H34A H -0.04445 0.09141 -0.31253
H35A H -0.00856 0.23207 -0.45624
H36A H -0.09162 0.41659 -0.51245
H37A H -0.18972 0.46886 -0.42644
H38A H -0.23037 0.31890 -0.28491
H39A H -0.26146 0.15149 -0.05335
H40A H -0.39974 0.21834 -0.04740
H41A H -0.48715 0.24128 -0.17994
H42A H -0.43618 0.19435 -0.30855
H43A H -0.29830 0.13022 -0.31114
loop_
_geom_bond_atom_site_label_1
_geom_bond_atom_site_label_2
_geom_bond_site_symmetry_1
_geom_bond_site_symmetry_2
Ag1 O1 1_555 1_555
O1 H1 1_555 1_555
C1 C2 1_555 1_555
C2 H4 1_555 1_555
P1 Ag1 1_555 1_555
C3 P1 1_555 1_555
C4 C3 1_555 1_555
C5 C4 1_555 1_555
C6 C5 1_555 1_555
C7 C6 1_555 1_555
C8 C3 1_555 1_555
C9 P1 1_555 1_555
C10 C9 1_555 1_555
C11 C10 1_555 1_555
C12 C11 1_555 1_555
C13 C12 1_555 1_555
C14 C9 1_555 1_555
C15 C16 1_555 1_555
C16 H18 1_555 1_555
P2 Ag1 1_555 1_555
C17 P2 1_555 1_555
C18 C17 1_555 1_555
C19 C18 1_555 1_555
C20 C19 1_555 1_555
C21 C20 1_555 1_555
C22 C17 1_555 1_555
C23 P2 1_555 1_555
C24 C23 1_555 1_555
C25 C24 1_555 1_555
C26 C25 1_555 1_555
C27 C26 1_555 1_555
C28 C23 1_555 1_555
C29 C30 1_555 1_555
C30 H32 1_555 1_555
P3 Ag1 1_555 1_555
C31 P3 1_555 1_555
C32 C31 1_555 1_555
C33 C32 1_555 1_555
C34 C33 1_555 1_555
C35 C34 1_555 1_555
C36 C31 1_555 1_555
C37 P3 1_555 1_555
C38 C37 1_555 1_555
C39 C38 1_555 1_555
C40 C39 1_555 1_555
C41 C40 1_555 1_555
C42 C37 1_555 1_555
C43 O2 1_555 1_555
O3 C43 1_555 1_555
C44 C43 1_555 1_555
C45 C46 1_555 1_555
C46 C47 1_555 1_555
C47 C48 1_555 1_555
C48 C49 1_555 1_555
C49 C50 1_555 1_555
C50 C45 1_555 1_555
C51 C52 1_555 1_555
C52 C53 1_555 1_555
C53 C54 1_555 1_555
C54 C55 1_555 1_555
C55 C56 1_555 1_555
C56 C51 1_555 1_555
C57 C58 1_555 1_555
C58 C59 1_555 1_555
C59 C60 1_555 1_555
C60 C61 1_555 1_555
C61 C62 1_555 1_555
C62 C57 1_555 1_555
C63 C64 1_555 1_555
C64 H66 1_555 1_555
C65 C63 1_555 1_555
H2 C1 1_555 1_555
H3 C1 1_555 1_555
H5 C2 1_555 1_555
H6 C4 1_555 1_555
H7 C5 1_555 1_555
H8 C6 1_555 1_555
H9 C7 1_555 1_555
H10 C8 1_555 1_555
H11 C10 1_555 1_555
H12 C11 1_555 1_555
H13 C12 1_555 1_555
H14 C13 1_555 1_555
H15 C14 1_555 1_555
H16 C15 1_555 1_555
H17 C15 1_555 1_555
H19 C16 1_555 1_555
H20 C18 1_555 1_555
H21 C19 1_555 1_555
H22 C20 1_555 1_555
H23 C21 1_555 1_555
H24 C22 1_555 1_555
H25 C24 1_555 1_555
H26 C25 1_555 1_555
H27 C26 1_555 1_555
H28 C27 1_555 1_555
H29 C28 1_555 1_555
H30 C29 1_555 1_555
H31 C29 1_555 1_555
H33 C30 1_555 1_555
H34 C32 1_555 1_555
H35 C33 1_555 1_555
H36 C34 1_555 1_555
H37 C35 1_555 1_555
H38 C36 1_555 1_555
H39 C38 1_555 1_555
H40 C39 1_555 1_555
H41 C40 1_555 1_555
H42 C41 1_555 1_555
H43 C42 1_555 1_555
H44 C44 1_555 1_555
H45 C44 1_555 1_555
H46 C44 1_555 1_555
H47 C45 1_555 1_555
H48 C46 1_555 1_555
H49 C47 1_555 1_555
H50 C48 1_555 1_555
H51 C49 1_555 1_555
H52 C50 1_555 1_555
H53 C51 1_555 1_555
H54 C52 1_555 1_555
H55 C53 1_555 1_555
H56 C54 1_555 1_555
H57 C55 1_555 1_555
H58 C56 1_555 1_555
H59 C57 1_555 1_555
H60 C58 1_555 1_555
H61 C59 1_555 1_555
H62 C60 1_555 1_555
H63 C61 1_555 1_555
H64 C62 1_555 1_555
H65 C63 1_555 1_555
H67 C65 1_555 1_555
Ag1A O1A 1_555 1_555
Ag1A_2 P2A_2 1_555 1_555
Ag1A_3 P3A_2 1_555 1_555
O1A H1A 1_555 1_555
C1A C2A 1_555 1_555
C2A C2 1_555 1_555
P1A Ag1A 1_555 1_555
C3A P1A 1_555 1_555
C4A C3A 1_555 1_555
C5A C4A 1_555 1_555
C6A C5A 1_555 1_555
C7A C6A 1_555 1_555
C8A C3A 1_555 1_555
C9A P1A 1_555 1_555
C10A C9A 1_555 1_555
C11A C10A 1_555 1_555
C12A C11A 1_555 1_555
C13A C12A 1_555 1_555
C14A C9A 1_555 1_555
C15A C16A 1_555 1_555
C16A C16 1_555 1_555
P2A Ag1A 1_555 1_555
P2A_2 C15A 1_555 1_555
C17A P2A_2 1_555 1_555
C18A C17A 1_555 1_555
C19A C18A 1_555 1_555
C20A C19A 1_555 1_555
C21A C20A 1_555 1_555
C22A C17A 1_555 1_555
C23A P2A_2 1_555 1_555
C24A C23A 1_555 1_555
C25A C24A 1_555 1_555
C26A C25A 1_555 1_555
C27A C26A 1_555 1_555
C28A C23A 1_555 1_555
C29A C30A 1_555 1_555
C30A C30 1_555 1_555
P3A Ag1A 1_555 1_555
P3A_2 C29A 1_555 1_555
C31A P3A_2 1_555 1_555
C32A C31A 1_555 1_555
C33A C32A 1_555 1_555
C34A C33A 1_555 1_555
C35A C34A 1_555 1_555
C36A C31A 1_555 1_555
C37A P3A_2 1_555 1_555
C38A C37A 1_555 1_555
C39A C38A 1_555 1_555
C40A C39A 1_555 1_555
C41A C40A 1_555 1_555
C42A C37A 1_555 1_555
C63A C64A 1_555 1_555
C64A C65 1_555 1_555
C65A C64 1_555 1_555
H2A C1A 1_555 1_555
H3A C1A 1_555 1_555
H4A C2A 1_555 1_555
H5A C2A 1_555 1_555
H6A C4A 1_555 1_555
H7A C5A 1_555 1_555
H8A C6A 1_555 1_555
H9A C7A 1_555 1_555
H10A C8A 1_555 1_555
H11A C10A 1_555 1_555
H12A C11A 1_555 1_555
H13A C12A 1_555 1_555
H14A C13A 1_555 1_555
H15A C14A 1_555 1_555
H16A C15A 1_555 1_555
H17A C15A 1_555 1_555
H18A C16A 1_555 1_555
H19A C16A 1_555 1_555
H20A C18A 1_555 1_555
H21A C19A 1_555 1_555
H22A C20A 1_555 1_555
H23A C21A 1_555 1_555
H24A C22A 1_555 1_555
H25A C24A 1_555 1_555
H26A C25A 1_555 1_555
H27A C26A 1_555 1_555
H28A C27A 1_555 1_555
H29A C28A 1_555 1_555
H30A C29A 1_555 1_555
H31A C29A 1_555 1_555
H32A C30A 1_555 1_555
H33A C30A 1_555 1_555
H34A C32A 1_555 1_555
H35A C33A 1_555 1_555
H36A C34A 1_555 1_555
H37A C35A 1_555 1_555
H38A C36A 1_555 1_555
H39A C38A 1_555 1_555
H40A C39A 1_555 1_555
H41A C40A 1_555 1_555
H42A C41A 1_555 1_555
H43A C42A 1_555 1_555
H65A C63A 1_555 1_555
H66A C64A 1_555 1_555
H67A C65A 1_555 1_555
C1 P1 1_555 1_555
C7 C8 1_555 1_555
C13 C14 1_555 1_555
C15 P2 1_555 1_555
C21 C22 1_555 1_555
C27 C28 1_555 1_555
C29 P3 1_555 1_555
C35 C36 1_555 1_555
C41 C42 1_555 1_555
C1A P1A 1_555 1_555
C7A C8A 1_555 1_555
C13A C14A 1_555 1_555
C21A C22A 1_555 1_555
C27A C28A 1_555 1_555
C35A C36A 1_555 1_555
C41A C42A 1_555 1_555
C63A C65A 1_555 1_555

#END
