
#######################################################################
#
#                 Cambridge Crystallographic Data Centre
#                                CCDC 
#
#######################################################################
#
# If this CIF has been generated from an entry in the Cambridge 
# Structural Database, then it will include bibliographic, chemical, 
# crystal, experimental, refinement or atomic coordinate data resulting 
# from the CCDC's data processing and validation procedures.
#
#######################################################################

data_KAZPOR
_symmetry_cell_setting           triclinic
_symmetry_space_group_name_H-M   'P -1'
_symmetry_Int_Tables_number      2
_space_group_name_Hall           '-P 1'
loop_
_symmetry_equiv_pos_site_id
_symmetry_equiv_pos_as_xyz
1 x,y,z
2 -x,-y,-z
_cell_length_a                   17.842(4)
_cell_length_b                   12.907(5)
_cell_length_c                   9.974(3)
_cell_angle_alpha                68.36(3)
_cell_angle_beta                 82.38(3)
_cell_angle_gamma                79.53(3)
_cell_volume                     2094.03
loop_
_atom_site_label
_atom_site_type_symbol
_atom_site_fract_x
_atom_site_fract_y
_atom_site_fract_z
Ag1 Ag 0.23360(4) 0.16640(5) 0.30172(7)
N1 N 0.2310(6) 0.1619(8) 0.5321(8)
C1 C 0.2423(10) 0.1188(10) 0.6369(14)
O1 O 0.2607(9) 0.0651(11) 0.7623(11)
C2 C 0.0805(5) 0.4241(6) 0.2389(8)
C3 C 0.0446(5) 0.4027(7) 0.3908(9)
C4 C 0.0212(5) 0.5101(7) 0.4272(8)
P1 P 0.11388(13) 0.29427(18) 0.1978(2)
C5 C 0.0267(5) 0.2355(7) 0.2186(9)
C6 C 0.0218(6) 0.1280(9) 0.3038(10)
C7 C -0.0440(7) 0.0813(9) 0.3186(12)
C8 C -0.1055(7) 0.1391(11) 0.2508(14)
C9 C -0.1019(8) 0.2496(13) 0.1645(16)
C10 C -0.0363(7) 0.2960(9) 0.1487(13)
C11 C 0.1346(5) 0.3449(8) 0.0031(9)
C12 C 0.1313(7) 0.2760(8) -0.0726(11)
C13 C 0.1526(9) 0.3058(13) -0.2156(15)
C14 C 0.1800(9) 0.4031(16) -0.2861(14)
C15 C 0.1845(7) 0.4763(11) -0.2170(13)
C16 C 0.1612(6) 0.4444(10) -0.0695(11)
C17 C 0.4101(5) 0.2437(7) 0.3456(9)
C18 C 0.4488(6) 0.1235(8) 0.3660(11)
C19 C 0.4817(7) 0.0594(8) 0.4975(12)
P2 P 0.34017(14) 0.29123(18) 0.2102(3)
C20 C 0.3081(5) 0.4368(6) 0.1970(9)
C21 C 0.2734(6) 0.4561(7) 0.3195(10)
C22 C 0.2415(6) 0.5636(9) 0.3117(11)
C23 C 0.2437(6) 0.6526(8) 0.1847(13)
C24 C 0.2778(6) 0.6345(8) 0.0644(11)
C25 C 0.3090(6) 0.5262(8) 0.0725(11)
C26 C 0.3960(6) 0.3091(7) 0.0386(10)
C27 C 0.3643(6) 0.2879(8) -0.0669(12)
C28 C 0.4009(8) 0.3029(11) -0.2011(13)
C29 C 0.4698(10) 0.3371(13) -0.2327(15)
C30 C 0.5027(7) 0.3606(11) -0.1324(17)
C31 C 0.4660(6) 0.3453(9) 0.0045(12)
C32 C 0.3281(5) -0.0326(6) 0.1177(8)
C33 C 0.4077(5) -0.0128(7) 0.1268(9)
C34 C 0.4615(4) -0.0153(7) -0.0035(9)
P3 P 0.26249(12) -0.02155(17) 0.2716(2)
C35 C 0.3037(5) -0.1357(7) 0.4237(8)
C36 C 0.3100(6) -0.1188(8) 0.5490(10)
C37 C 0.3412(7) -0.2042(12) 0.6665(11)
C38 C 0.3661(7) -0.3098(11) 0.6617(14)
C39 C 0.3603(7) -0.3284(9) 0.5391(14)
C40 C 0.3300(6) -0.2438(8) 0.4225(10)
C41 C 0.1799(4) -0.0748(6) 0.2435(9)
C42 C 0.1552(5) -0.0426(7) 0.1053(9)
C43 C 0.0908(6) -0.0796(10) 0.0852(12)
C44 C 0.0519(7) -0.1477(11) 0.1999(17)
C45 C 0.0746(7) -0.1803(9) 0.3354(15)
C46 C 0.1394(5) -0.1434(7) 0.3570(10)
H1 H 0.12338 0.46237 0.22717
H2 H 0.04405 0.47067 0.17338
H3 H 0.00079 0.36797 0.40153
H4 H 0.08075 0.35298 0.45681
H5 H 0.06622 0.54033 0.42605
H6 H -0.01031 0.56241 0.35549
H7 H 0.06400 0.08292 0.35483
H8 H -0.04435 0.00307 0.38064
H9 H -0.15024 0.10657 0.26075
H10 H -0.14452 0.29244 0.11480
H11 H -0.03529 0.37194 0.08654
H12 H 0.11450 0.20661 -0.02156
H13 H 0.14348 0.25206 -0.26300
H14 H 0.19620 0.41310 -0.38153
H15 H 0.20389 0.54324 -0.27243
H16 H 0.16154 0.49305 -0.02085
H17 H 0.44808 0.29145 0.31529
H18 H 0.38527 0.24458 0.43503
H19 H 0.41029 0.08256 0.35851
H20 H 0.48647 0.12719 0.28795
H21 H 0.52349 0.09866 0.50359
H22 H 0.44634 0.05844 0.57616
H23 H 0.27272 0.39618 0.40867
H24 H 0.21707 0.57437 0.39919
H25 H 0.22252 0.72609 0.18385
H26 H 0.27938 0.69472 -0.02362
H27 H 0.33144 0.51506 -0.01321
H28 H 0.31619 0.26375 -0.04668
H29 H 0.37851 0.29093 -0.27185
H30 H 0.49808 0.34486 -0.32437
H31 H 0.55007 0.38672 -0.15551
H32 H 0.48888 0.36064 0.07382
H33 H 0.33147 -0.10658 0.11597
H34 H 0.30847 0.02079 0.03139
H35 H 0.40410 0.06031 0.13334
H36 H 0.42832 -0.06786 0.21078
H37 H 0.46867 -0.08950 -0.00614
H38 H 0.43917 0.03617 -0.08883
H39 H 0.29222 -0.04779 0.55625
H40 H 0.34616 -0.19050 0.75161
H41 H 0.38507 -0.36879 0.74446
H42 H 0.37848 -0.40025 0.53268
H43 H 0.32613 -0.25951 0.33780
H44 H 0.18276 0.00453 0.02423
H45 H 0.07434 -0.05974 -0.00688
H46 H 0.00740 -0.17243 0.18406
H47 H 0.04555 -0.22569 0.41315
H48 H 0.15494 -0.16551 0.45056
Ag1A Ag -0.23360(4) 0.83360(5) 0.69828(7)
Ag1A_2 Ag 0.76640(4) -0.16640(5) 0.69828(7)
Ag1A_3 Ag 0.76640(4) -0.16640(5) -0.30172(7)
N1A N -0.2310(6) 0.8381(8) 0.4679(8)
C1A C -0.2423(10) 0.8812(10) 0.3631(14)
O1A O -0.2607(9) 0.9349(11) 0.2377(11)
C2A C -0.0805(5) 0.5759(6) 0.7611(8)
C3A C -0.0446(5) 0.5973(7) 0.6092(9)
C4A C -0.0212(5) 0.4899(7) 0.5728(8)
P1A P -0.11388(13) 0.70573(18) 0.8022(2)
C5A C -0.0267(5) 0.7645(7) 0.7814(9)
C6A C -0.0218(6) 0.8720(9) 0.6962(10)
C7A C 0.0440(7) 0.9187(9) 0.6814(12)
C8A C 0.1055(7) 0.8609(11) 0.7492(14)
C9A C 0.1019(8) 0.7504(13) 0.8355(16)
C10A C 0.0363(7) 0.7040(9) 0.8513(13)
C11A C -0.1346(5) 0.6551(8) 0.9969(9)
C12A C -0.1313(7) 0.7240(8) 1.0726(11)
C13A C -0.1526(9) 0.6942(13) 1.2156(15)
C14A C -0.1800(9) 0.5969(16) 1.2861(14)
C15A C -0.1845(7) 0.5237(11) 1.2170(13)
C16A C -0.1612(6) 0.5556(10) 1.0695(11)
C17A C 0.5899(5) -0.2437(7) 0.6544(9)
C18A C 0.5512(6) -0.1235(8) 0.6340(11)
C19A C 0.5183(7) -0.0594(8) 0.5025(12)
P2A P -0.34017(14) 0.70877(18) 0.7898(3)
P2A_2 P 0.65983(14) -0.29123(18) 0.7898(3)
C20A C 0.6919(5) -0.4368(6) 0.8030(9)
C21A C 0.7266(6) -0.4561(7) 0.6805(10)
C22A C 0.7585(6) -0.5636(9) 0.6883(11)
C23A C 0.7563(6) -0.6526(8) 0.8153(13)
C24A C 0.7222(6) -0.6345(8) 0.9356(11)
C25A C 0.6910(6) -0.5262(8) 0.9275(11)
C26A C 0.6040(6) -0.3091(7) 0.9614(10)
C27A C 0.6357(6) -0.2879(8) 1.0669(12)
C28A C 0.5991(8) -0.3029(11) 1.2011(13)
C29A C 0.5302(10) -0.3371(13) 1.2327(15)
C30A C 0.4973(7) -0.3606(11) 1.1324(17)
C31A C 0.5340(6) -0.3453(9) 0.9955(12)
C32A C 0.6719(5) 0.0326(6) -0.1177(8)
C33A C 0.5923(5) 0.0128(7) -0.1268(9)
C34A C 0.5385(4) 0.0153(7) 0.0035(9)
P3A P -0.26249(12) 1.02155(17) 0.7284(2)
P3A_2 P 0.73751(12) 0.02155(17) -0.2716(2)
C35A C 0.6963(5) 0.1357(7) -0.4237(8)
C36A C 0.6900(6) 0.1188(8) -0.5490(10)
C37A C 0.6588(7) 0.2042(12) -0.6665(11)
C38A C 0.6339(7) 0.3098(11) -0.6617(14)
C39A C 0.6397(7) 0.3284(9) -0.5391(14)
C40A C 0.6700(6) 0.2438(8) -0.4225(10)
C41A C 0.8201(4) 0.0748(6) -0.2435(9)
C42A C 0.8448(5) 0.0426(7) -0.1053(9)
C43A C 0.9092(6) 0.0796(10) -0.0852(12)
C44A C 0.9481(7) 0.1477(11) -0.1999(17)
C45A C 0.9254(7) 0.1803(9) -0.3354(15)
C46A C 0.8606(5) 0.1434(7) -0.3570(10)
H1A H -0.12338 0.53763 0.77283
H2A H -0.04405 0.52933 0.82662
H3A H -0.00079 0.63203 0.59847
H4A H -0.08075 0.64702 0.54319
H5A H -0.06622 0.45967 0.57395
H6A H 0.01031 0.43759 0.64451
H7A H -0.06400 0.91708 0.64517
H8A H 0.04435 0.99693 0.61936
H9A H 0.15024 0.89343 0.73925
H10A H 0.14452 0.70756 0.88520
H11A H 0.03529 0.62806 0.91346
H12A H -0.11450 0.79339 1.02156
H13A H -0.14348 0.74794 1.26300
H14A H -0.19620 0.58690 1.38153
H15A H -0.20389 0.45676 1.27243
H16A H -0.16154 0.50695 1.02085
H17A H 0.55192 -0.29145 0.68471
H18A H 0.61473 -0.24458 0.56497
H19A H 0.58971 -0.08256 0.64149
H20A H 0.51353 -0.12719 0.71205
H21A H 0.47651 -0.09866 0.49641
H22A H 0.55366 -0.05844 0.42384
H23A H 0.72728 -0.39618 0.59133
H24A H 0.78293 -0.57437 0.60081
H25A H 0.77748 -0.72609 0.81615
H26A H 0.72062 -0.69472 1.02362
H27A H 0.66856 -0.51506 1.01321
H28A H 0.68381 -0.26375 1.04668
H29A H 0.62149 -0.29093 1.27185
H30A H 0.50192 -0.34486 1.32437
H31A H 0.44993 -0.38672 1.15551
H32A H 0.51112 -0.36064 0.92618
H33A H 0.66853 0.10658 -0.11597
H34A H 0.69153 -0.02079 -0.03139
H35A H 0.59590 -0.06031 -0.13334
H36A H 0.57168 0.06786 -0.21078
H37A H 0.53133 0.08950 0.00614
H38A H 0.56083 -0.03617 0.08883
H39A H 0.70778 0.04779 -0.55625
H40A H 0.65384 0.19050 -0.75161
H41A H 0.61493 0.36879 -0.74446
H42A H 0.62152 0.40025 -0.53268
H43A H 0.67387 0.25951 -0.33780
H44A H 0.81724 -0.00453 -0.02423
H45A H 0.92566 0.05974 0.00688
H46A H 0.99260 0.17243 -0.18406
H47A H 0.95445 0.22569 -0.41315
H48A H 0.84506 0.16551 -0.45056
loop_
_geom_bond_atom_site_label_1
_geom_bond_atom_site_label_2
_geom_bond_site_symmetry_1
_geom_bond_site_symmetry_2
Ag1 N1 1_555 1_555
N1 C1 1_555 1_555
C1 O1 1_555 1_555
C2 C3 1_555 1_555
C3 C4 1_555 1_555
C4 H5 1_555 1_555
P1 Ag1 1_555 1_555
C5 P1 1_555 1_555
C6 C5 1_555 1_555
C7 C6 1_555 1_555
C8 C7 1_555 1_555
C9 C8 1_555 1_555
C10 C5 1_555 1_555
C11 P1 1_555 1_555
C12 C11 1_555 1_555
C13 C12 1_555 1_555
C14 C13 1_555 1_555
C15 C14 1_555 1_555
C16 C11 1_555 1_555
C17 C18 1_555 1_555
C18 C19 1_555 1_555
C19 H21 1_555 1_555
P2 Ag1 1_555 1_555
C20 P2 1_555 1_555
C21 C20 1_555 1_555
C22 C21 1_555 1_555
C23 C22 1_555 1_555
C24 C23 1_555 1_555
C25 C20 1_555 1_555
C26 P2 1_555 1_555
C27 C26 1_555 1_555
C28 C27 1_555 1_555
C29 C28 1_555 1_555
C30 C29 1_555 1_555
C31 C26 1_555 1_555
C32 C33 1_555 1_555
C33 C34 1_555 1_555
C34 H37 1_555 1_555
P3 Ag1 1_555 1_555
C35 P3 1_555 1_555
C36 C35 1_555 1_555
C37 C36 1_555 1_555
C38 C37 1_555 1_555
C39 C38 1_555 1_555
C40 C35 1_555 1_555
C41 P3 1_555 1_555
C42 C41 1_555 1_555
C43 C42 1_555 1_555
C44 C43 1_555 1_555
C45 C44 1_555 1_555
C46 C41 1_555 1_555
H1 C2 1_555 1_555
H2 C2 1_555 1_555
H3 C3 1_555 1_555
H4 C3 1_555 1_555
H6 C4 1_555 1_555
H7 C6 1_555 1_555
H8 C7 1_555 1_555
H9 C8 1_555 1_555
H10 C9 1_555 1_555
H11 C10 1_555 1_555
H12 C12 1_555 1_555
H13 C13 1_555 1_555
H14 C14 1_555 1_555
H15 C15 1_555 1_555
H16 C16 1_555 1_555
H17 C17 1_555 1_555
H18 C17 1_555 1_555
H19 C18 1_555 1_555
H20 C18 1_555 1_555
H22 C19 1_555 1_555
H23 C21 1_555 1_555
H24 C22 1_555 1_555
H25 C23 1_555 1_555
H26 C24 1_555 1_555
H27 C25 1_555 1_555
H28 C27 1_555 1_555
H29 C28 1_555 1_555
H30 C29 1_555 1_555
H31 C30 1_555 1_555
H32 C31 1_555 1_555
H33 C32 1_555 1_555
H34 C32 1_555 1_555
H35 C33 1_555 1_555
H36 C33 1_555 1_555
H38 C34 1_555 1_555
H39 C36 1_555 1_555
H40 C37 1_555 1_555
H41 C38 1_555 1_555
H42 C39 1_555 1_555
H43 C40 1_555 1_555
H44 C42 1_555 1_555
H45 C43 1_555 1_555
H46 C44 1_555 1_555
H47 C45 1_555 1_555
H48 C46 1_555 1_555
Ag1A N1A 1_555 1_555
Ag1A_2 P2A_2 1_555 1_555
Ag1A_3 P3A_2 1_555 1_555
N1A C1A 1_555 1_555
C1A O1A 1_555 1_555
C2A C3A 1_555 1_555
C3A C4A 1_555 1_555
C4A C4 1_555 1_555
P1A Ag1A 1_555 1_555
C5A P1A 1_555 1_555
C6A C5A 1_555 1_555
C7A C6A 1_555 1_555
C8A C7A 1_555 1_555
C9A C8A 1_555 1_555
C10A C5A 1_555 1_555
C11A P1A 1_555 1_555
C12A C11A 1_555 1_555
C13A C12A 1_555 1_555
C14A C13A 1_555 1_555
C15A C14A 1_555 1_555
C16A C11A 1_555 1_555
C17A C18A 1_555 1_555
C18A C19A 1_555 1_555
C19A C19 1_555 1_555
P2A Ag1A 1_555 1_555
P2A_2 C17A 1_555 1_555
C20A P2A_2 1_555 1_555
C21A C20A 1_555 1_555
C22A C21A 1_555 1_555
C23A C22A 1_555 1_555
C24A C23A 1_555 1_555
C25A C20A 1_555 1_555
C26A P2A_2 1_555 1_555
C27A C26A 1_555 1_555
C28A C27A 1_555 1_555
C29A C28A 1_555 1_555
C30A C29A 1_555 1_555
C31A C26A 1_555 1_555
C32A C33A 1_555 1_555
C33A C34A 1_555 1_555
C34A C34 1_555 1_555
P3A Ag1A 1_555 1_555
P3A_2 C32A 1_555 1_555
C35A P3A_2 1_555 1_555
C36A C35A 1_555 1_555
C37A C36A 1_555 1_555
C38A C37A 1_555 1_555
C39A C38A 1_555 1_555
C40A C35A 1_555 1_555
C41A P3A_2 1_555 1_555
C42A C41A 1_555 1_555
C43A C42A 1_555 1_555
C44A C43A 1_555 1_555
C45A C44A 1_555 1_555
C46A C41A 1_555 1_555
H1A C2A 1_555 1_555
H2A C2A 1_555 1_555
H3A C3A 1_555 1_555
H4A C3A 1_555 1_555
H5A C4A 1_555 1_555
H6A C4A 1_555 1_555
H7A C6A 1_555 1_555
H8A C7A 1_555 1_555
H9A C8A 1_555 1_555
H10A C9A 1_555 1_555
H11A C10A 1_555 1_555
H12A C12A 1_555 1_555
H13A C13A 1_555 1_555
H14A C14A 1_555 1_555
H15A C15A 1_555 1_555
H16A C16A 1_555 1_555
H17A C17A 1_555 1_555
H18A C17A 1_555 1_555
H19A C18A 1_555 1_555
H20A C18A 1_555 1_555
H21A C19A 1_555 1_555
H22A C19A 1_555 1_555
H23A C21A 1_555 1_555
H24A C22A 1_555 1_555
H25A C23A 1_555 1_555
H26A C24A 1_555 1_555
H27A C25A 1_555 1_555
H28A C27A 1_555 1_555
H29A C28A 1_555 1_555
H30A C29A 1_555 1_555
H31A C30A 1_555 1_555
H32A C31A 1_555 1_555
H33A C32A 1_555 1_555
H34A C32A 1_555 1_555
H35A C33A 1_555 1_555
H36A C33A 1_555 1_555
H37A C34A 1_555 1_555
H38A C34A 1_555 1_555
H39A C36A 1_555 1_555
H40A C37A 1_555 1_555
H41A C38A 1_555 1_555
H42A C39A 1_555 1_555
H43A C40A 1_555 1_555
H44A C42A 1_555 1_555
H45A C43A 1_555 1_555
H46A C44A 1_555 1_555
H47A C45A 1_555 1_555
H48A C46A 1_555 1_555
C2 P1 1_555 1_555
C9 C10 1_555 1_555
C15 C16 1_555 1_555
C17 P2 1_555 1_555
C24 C25 1_555 1_555
C30 C31 1_555 1_555
C32 P3 1_555 1_555
C39 C40 1_555 1_555
C45 C46 1_555 1_555
C2A P1A 1_555 1_555
C9A C10A 1_555 1_555
C15A C16A 1_555 1_555
C24A C25A 1_555 1_555
C30A C31A 1_555 1_555
C39A C40A 1_555 1_555
C45A C46A 1_555 1_555

#END
