
#######################################################################
#
#                 Cambridge Crystallographic Data Centre
#                                CCDC 
#
#######################################################################
#
# If this CIF has been generated from an entry in the Cambridge 
# Structural Database, then it will include bibliographic, chemical, 
# crystal, experimental, refinement or atomic coordinate data resulting 
# from the CCDC's data processing and validation procedures.
#
#######################################################################

data_KAZPAD
_symmetry_cell_setting           triclinic
_symmetry_space_group_name_H-M   'P -1'
_symmetry_Int_Tables_number      2
_space_group_name_Hall           '-P 1'
loop_
_symmetry_equiv_pos_site_id
_symmetry_equiv_pos_as_xyz
1 x,y,z
2 -x,-y,-z
_cell_length_a                   15.957(3)
_cell_length_b                   11.303(2)
_cell_length_c                   11.302(2)
_cell_angle_alpha                85.800(10)
_cell_angle_beta                 85.290(10)
_cell_angle_gamma                75.190(10)
_cell_volume                     1961.19
loop_
_atom_site_label
_atom_site_type_symbol
_atom_site_fract_x
_atom_site_fract_y
_atom_site_fract_z
Ag1 Ag 0.24269(2) 0.18147(3) 0.11761(3)
S1 S 0.20100(8) 0.13896(11) -0.09526(9)
C1 C 0.2811(3) 0.0178(5) -0.1161(4)
N1 N 0.3388(3) -0.0687(4) -0.1312(4)
C2 C 0.4576(3) 0.2358(4) 0.0215(4)
C3 C 0.4525(3) 0.1904(5) -0.0999(5)
C4 C 0.5349(3) 0.0967(5) -0.1420(5)
C5 C 0.6151(3) 0.1452(4) -0.1562(4)
P1 P 0.34900(6) 0.31224(9) 0.08487(10)
C6 C 0.3684(3) 0.3816(4) 0.2162(4)
C7 C 0.4374(4) 0.3295(5) 0.2859(5)
C8 C 0.4455(5) 0.3810(8) 0.3915(7)
C9 C 0.3864(6) 0.4845(8) 0.4246(7)
C10 C 0.3178(5) 0.5362(7) 0.3587(7)
C11 C 0.3086(4) 0.4858(5) 0.2559(6)
C12 C 0.3200(2) 0.4442(3) -0.0197(4)
C13 C 0.3661(3) 0.5340(4) -0.0307(5)
C14 C 0.3454(3) 0.6304(5) -0.1131(5)
C15 C 0.2791(4) 0.6397(5) -0.1830(6)
C16 C 0.2308(4) 0.5547(6) -0.1704(6)
C17 C 0.2521(3) 0.4564(5) -0.0890(5)
P2 P 0.29021(6) -0.03016(9) 0.21659(9)
C18 C 0.2057(2) -0.1135(3) 0.2274(3)
C19 C 0.1937(3) -0.1734(4) 0.1308(4)
C20 C 0.1267(3) -0.2307(5) 0.1326(5)
C21 C 0.0703(3) -0.2281(5) 0.2312(5)
C22 C 0.0799(3) -0.1675(4) 0.3278(5)
C23 C 0.1468(3) -0.1107(4) 0.3264(4)
C24 C 0.3200(2) -0.0237(4) 0.3675(3)
C25 C 0.3303(3) -0.1205(6) 0.4522(5)
C26 C 0.3577(4) -0.1093(8) 0.5635(5)
C27 C 0.3772(4) -0.0038(9) 0.5886(6)
C28 C 0.3684(5) 0.0916(8) 0.5072(6)
C29 C 0.3392(3) 0.0831(5) 0.3971(5)
C30 C 0.0476(3) 0.4436(3) 0.1538(4)
C31 C 0.0172(3) 0.4373(3) 0.0310(4)
P3 P 0.10151(6) 0.29304(8) 0.22064(8)
C32 C 0.0153(2) 0.2120(3) 0.2361(3)
C33 C -0.0467(3) 0.2269(4) 0.3306(4)
C34 C -0.1103(3) 0.1631(5) 0.3380(5)
C35 C -0.1141(3) 0.0873(4) 0.2526(5)
C36 C -0.0540(3) 0.0721(4) 0.1584(4)
C37 C 0.0116(3) 0.1334(4) 0.1514(4)
C38 C 0.1142(2) 0.3230(3) 0.3734(3)
C39 C 0.1293(3) 0.2264(4) 0.4579(4)
C40 C 0.1448(3) 0.2410(5) 0.5722(4)
C41 C 0.1485(4) 0.3519(6) 0.6049(5)
C42 C 0.1347(5) 0.4485(6) 0.5241(6)
C43 C 0.1168(4) 0.4358(4) 0.4081(5)
H1 H 0.493(2) 0.294(3) 0.015(3)
H2 H 0.483(2) 0.170(3) 0.084(3)
H3 H 0.404(3) 0.151(4) -0.096(3)
H4 H 0.444(3) 0.267(4) -0.151(4)
H5 H 0.549(3) 0.017(4) -0.078(4)
H6 H 0.523(2) 0.067(3) -0.219(3)
H7 H 0.605(2) 0.221(4) -0.206(3)
H8 H 0.629(3) 0.161(4) -0.080(4)
H9 H 0.482(3) 0.252(4) 0.254(4)
H10 H 0.494(5) 0.333(7) 0.434(7)
H11 H 0.382(4) 0.519(5) 0.496(5)
H12 H 0.269(4) 0.610(6) 0.389(6)
H13 H 0.262(3) 0.522(5) 0.213(5)
H14 H 0.416(3) 0.520(4) 0.027(3)
H15 H 0.377(3) 0.695(4) -0.114(4)
H16 H 0.262(3) 0.707(4) -0.233(4)
H17 H 0.180(3) 0.567(4) -0.214(4)
H18 H 0.219(3) 0.393(4) -0.078(4)
H19 H 0.226(2) -0.172(3) 0.060(3)
H20 H 0.121(3) -0.274(4) 0.071(4)
H21 H 0.025(3) -0.263(4) 0.236(4)
H22 H 0.036(3) -0.153(4) 0.403(4)
H23 H 0.159(2) -0.075(3) 0.388(3)
H24 H 0.324(2) -0.194(3) 0.425(3)
H25 H 0.359(4) -0.181(5) 0.604(5)
H26 H 0.400(4) -0.009(5) 0.665(6)
H27 H 0.383(4) 0.166(5) 0.526(6)
H28 H 0.337(3) 0.153(4) 0.333(4)
H29 H -0.002(3) 0.481(4) 0.211(4)
H30 H 0.087(2) 0.493(3) 0.151(3)
H31 H 0.058(3) 0.398(4) -0.018(3)
H32 H -0.028(2) 0.390(3) 0.037(3)
H33 H -0.043(2) 0.281(3) 0.388(3)
H34 H -0.147(3) 0.177(4) 0.396(4)
H35 H -0.157(3) 0.042(3) 0.257(3)
H36 H -0.056(3) 0.015(4) 0.105(4)
H37 H 0.054(2) 0.122(3) 0.087(3)
H38 H 0.127(3) 0.150(4) 0.439(4)
H39 H 0.154(3) 0.171(5) 0.631(4)
H40 H 0.160(3) 0.359(4) 0.676(4)
H41 H 0.139(4) 0.520(6) 0.537(6)
H42 H 0.109(3) 0.500(4) 0.350(4)
Ag1A Ag 0.75731(2) -0.18147(3) -0.11761(3)
Ag1A_2 Ag -0.24269(2) 0.81853(3) -0.11761(3)
S1A S 0.79900(8) -0.13896(11) 0.09526(9)
C1A C 0.7189(3) -0.0178(5) 0.1161(4)
N1A N 0.6612(3) 0.0687(4) 0.1312(4)
C2A C 0.5424(3) -0.2358(4) -0.0215(4)
C3A C 0.5475(3) -0.1904(5) 0.0999(5)
C4A C 0.4651(3) -0.0967(5) 0.1420(5)
C5A C 0.3849(3) -0.1452(4) 0.1562(4)
P1A P 0.65100(6) -0.31224(9) -0.08487(10)
C6A C 0.6316(3) -0.3816(4) -0.2162(4)
C7A C 0.5626(4) -0.3295(5) -0.2859(5)
C8A C 0.5545(5) -0.3810(8) -0.3915(7)
C9A C 0.6136(6) -0.4845(8) -0.4246(7)
C10A C 0.6822(5) -0.5362(7) -0.3587(7)
C11A C 0.6914(4) -0.4858(5) -0.2559(6)
C12A C 0.6800(2) -0.4442(3) 0.0197(4)
C13A C 0.6339(3) -0.5340(4) 0.0307(5)
C14A C 0.6546(3) -0.6304(5) 0.1131(5)
C15A C 0.7209(4) -0.6397(5) 0.1830(6)
C16A C 0.7692(4) -0.5547(6) 0.1704(6)
C17A C 0.7479(3) -0.4564(5) 0.0890(5)
P2A P 0.70979(6) 0.03016(9) -0.21659(9)
C18A C 0.7943(2) 0.1135(3) -0.2274(3)
C19A C 0.8063(3) 0.1734(4) -0.1308(4)
C20A C 0.8733(3) 0.2307(5) -0.1326(5)
C21A C 0.9297(3) 0.2281(5) -0.2312(5)
C22A C 0.9201(3) 0.1675(4) -0.3278(5)
C23A C 0.8532(3) 0.1107(4) -0.3264(4)
C24A C 0.6800(2) 0.0237(4) -0.3675(3)
C25A C 0.6697(3) 0.1205(6) -0.4522(5)
C26A C 0.6423(4) 0.1093(8) -0.5635(5)
C27A C 0.6228(4) 0.0038(9) -0.5886(6)
C28A C 0.6316(5) -0.0916(8) -0.5072(6)
C29A C 0.6608(3) -0.0831(5) -0.3971(5)
C30A C -0.0476(3) 0.5564(3) -0.1538(4)
C31A C -0.0172(3) 0.5627(3) -0.0310(4)
P3A P -0.10151(6) 0.70696(8) -0.22064(8)
P3A_2 P 0.89849(6) -0.29304(8) -0.22064(8)
C32A C -0.0153(2) 0.7880(3) -0.2361(3)
C33A C 0.0467(3) 0.7731(4) -0.3306(4)
C34A C 0.1103(3) 0.8369(5) -0.3380(5)
C35A C 0.1141(3) 0.9127(4) -0.2526(5)
C36A C 0.0540(3) 0.9279(4) -0.1584(4)
C37A C -0.0116(3) 0.8666(4) -0.1514(4)
C38A C -0.1142(2) 0.6770(3) -0.3734(3)
C39A C -0.1293(3) 0.7736(4) -0.4579(4)
C40A C -0.1448(3) 0.7590(5) -0.5722(4)
C41A C -0.1485(4) 0.6481(6) -0.6049(5)
C42A C -0.1347(5) 0.5515(6) -0.5241(6)
C43A C -0.1168(4) 0.5642(4) -0.4081(5)
H1A H 0.507(2) -0.294(3) -0.015(3)
H2A H 0.517(2) -0.170(3) -0.084(3)
H3A H 0.596(3) -0.151(4) 0.096(3)
H4A H 0.556(3) -0.267(4) 0.151(4)
H5A H 0.451(3) -0.017(4) 0.078(4)
H6A H 0.477(2) -0.067(3) 0.219(3)
H7A H 0.395(2) -0.221(4) 0.206(3)
H8A H 0.371(3) -0.161(4) 0.080(4)
H9A H 0.518(3) -0.252(4) -0.254(4)
H10A H 0.506(5) -0.333(7) -0.434(7)
H11A H 0.618(4) -0.519(5) -0.496(5)
H12A H 0.731(4) -0.610(6) -0.389(6)
H13A H 0.738(3) -0.522(5) -0.213(5)
H14A H 0.584(3) -0.520(4) -0.027(3)
H15A H 0.623(3) -0.695(4) 0.114(4)
H16A H 0.738(3) -0.707(4) 0.233(4)
H17A H 0.820(3) -0.567(4) 0.214(4)
H18A H 0.781(3) -0.393(4) 0.078(4)
H19A H 0.774(2) 0.172(3) -0.060(3)
H20A H 0.879(3) 0.274(4) -0.071(4)
H21A H 0.975(3) 0.263(4) -0.236(4)
H22A H 0.964(3) 0.153(4) -0.403(4)
H23A H 0.841(2) 0.075(3) -0.388(3)
H24A H 0.676(2) 0.194(3) -0.425(3)
H25A H 0.641(4) 0.181(5) -0.604(5)
H26A H 0.600(4) 0.009(5) -0.665(6)
H27A H 0.617(4) -0.166(5) -0.526(6)
H28A H 0.663(3) -0.153(4) -0.333(4)
H29A H 0.002(3) 0.519(4) -0.211(4)
H30A H -0.087(2) 0.507(3) -0.151(3)
H31A H -0.058(3) 0.602(4) 0.018(3)
H32A H 0.028(2) 0.610(3) -0.037(3)
H33A H 0.043(2) 0.719(3) -0.388(3)
H34A H 0.147(3) 0.823(4) -0.396(4)
H35A H 0.157(3) 0.958(3) -0.257(3)
H36A H 0.056(3) 0.985(4) -0.105(4)
H37A H -0.054(2) 0.878(3) -0.087(3)
H38A H -0.127(3) 0.850(4) -0.439(4)
H39A H -0.154(3) 0.829(5) -0.631(4)
H40A H -0.160(3) 0.641(4) -0.676(4)
H41A H -0.139(4) 0.480(6) -0.537(6)
H42A H -0.109(3) 0.500(4) -0.350(4)
loop_
_geom_bond_atom_site_label_1
_geom_bond_atom_site_label_2
_geom_bond_site_symmetry_1
_geom_bond_site_symmetry_2
Ag1 S1 1_555 1_555
S1 C1 1_555 1_555
C1 N1 1_555 1_555
C2 C3 1_555 1_555
C3 C4 1_555 1_555
C4 C5 1_555 1_555
C5 H7 1_555 1_555
P1 Ag1 1_555 1_555
C6 P1 1_555 1_555
C7 C6 1_555 1_555
C8 C7 1_555 1_555
C9 C8 1_555 1_555
C10 C9 1_555 1_555
C11 C6 1_555 1_555
C12 P1 1_555 1_555
C13 C12 1_555 1_555
C14 C13 1_555 1_555
C15 C14 1_555 1_555
C16 C15 1_555 1_555
C17 C12 1_555 1_555
P2 Ag1 1_555 1_555
C18 P2 1_555 1_555
C19 C18 1_555 1_555
C20 C19 1_555 1_555
C21 C20 1_555 1_555
C22 C21 1_555 1_555
C23 C18 1_555 1_555
C24 P2 1_555 1_555
C25 C24 1_555 1_555
C26 C25 1_555 1_555
C27 C26 1_555 1_555
C28 C27 1_555 1_555
C29 C24 1_555 1_555
C30 C31 1_555 1_555
C31 H31 1_555 1_555
P3 Ag1 1_555 1_555
C32 P3 1_555 1_555
C33 C32 1_555 1_555
C34 C33 1_555 1_555
C35 C34 1_555 1_555
C36 C35 1_555 1_555
C37 C32 1_555 1_555
C38 P3 1_555 1_555
C39 C38 1_555 1_555
C40 C39 1_555 1_555
C41 C40 1_555 1_555
C42 C41 1_555 1_555
C43 C38 1_555 1_555
H1 C2 1_555 1_555
H2 C2 1_555 1_555
H3 C3 1_555 1_555
H4 C3 1_555 1_555
H5 C4 1_555 1_555
H6 C4 1_555 1_555
H8 C5 1_555 1_555
H9 C7 1_555 1_555
H10 C8 1_555 1_555
H11 C9 1_555 1_555
H12 C10 1_555 1_555
H13 C11 1_555 1_555
H14 C13 1_555 1_555
H15 C14 1_555 1_555
H16 C15 1_555 1_555
H17 C16 1_555 1_555
H18 C17 1_555 1_555
H19 C19 1_555 1_555
H20 C20 1_555 1_555
H21 C21 1_555 1_555
H22 C22 1_555 1_555
H23 C23 1_555 1_555
H24 C25 1_555 1_555
H25 C26 1_555 1_555
H26 C27 1_555 1_555
H27 C28 1_555 1_555
H28 C29 1_555 1_555
H29 C30 1_555 1_555
H30 C30 1_555 1_555
H32 C31 1_555 1_555
H33 C33 1_555 1_555
H34 C34 1_555 1_555
H35 C35 1_555 1_555
H36 C36 1_555 1_555
H37 C37 1_555 1_555
H38 C39 1_555 1_555
H39 C40 1_555 1_555
H40 C41 1_555 1_555
H41 C42 1_555 1_555
H42 C43 1_555 1_555
Ag1A S1A 1_555 1_555
Ag1A_2 P3A 1_555 1_555
S1A C1A 1_555 1_555
C1A N1A 1_555 1_555
C2A C3A 1_555 1_555
C3A C4A 1_555 1_555
C4A C5A 1_555 1_555
C5A P2 1_555 1_555
P1A Ag1A 1_555 1_555
C6A P1A 1_555 1_555
C7A C6A 1_555 1_555
C8A C7A 1_555 1_555
C9A C8A 1_555 1_555
C10A C9A 1_555 1_555
C11A C6A 1_555 1_555
C12A P1A 1_555 1_555
C13A C12A 1_555 1_555
C14A C13A 1_555 1_555
C15A C14A 1_555 1_555
C16A C15A 1_555 1_555
C17A C12A 1_555 1_555
P2A C5 1_555 1_555
C18A P2A 1_555 1_555
C19A C18A 1_555 1_555
C20A C19A 1_555 1_555
C21A C20A 1_555 1_555
C22A C21A 1_555 1_555
C23A C18A 1_555 1_555
C24A P2A 1_555 1_555
C25A C24A 1_555 1_555
C26A C25A 1_555 1_555
C27A C26A 1_555 1_555
C28A C27A 1_555 1_555
C29A C24A 1_555 1_555
C30A C31A 1_555 1_555
C31A C31 1_555 1_555
P3A C30A 1_555 1_555
P3A_2 Ag1A 1_555 1_555
C32A P3A 1_555 1_555
C33A C32A 1_555 1_555
C34A C33A 1_555 1_555
C35A C34A 1_555 1_555
C36A C35A 1_555 1_555
C37A C32A 1_555 1_555
C38A P3A 1_555 1_555
C39A C38A 1_555 1_555
C40A C39A 1_555 1_555
C41A C40A 1_555 1_555
C42A C41A 1_555 1_555
C43A C38A 1_555 1_555
H1A C2A 1_555 1_555
H2A C2A 1_555 1_555
H3A C3A 1_555 1_555
H4A C3A 1_555 1_555
H5A C4A 1_555 1_555
H6A C4A 1_555 1_555
H7A C5A 1_555 1_555
H8A C5A 1_555 1_555
H9A C7A 1_555 1_555
H10A C8A 1_555 1_555
H11A C9A 1_555 1_555
H12A C10A 1_555 1_555
H13A C11A 1_555 1_555
H14A C13A 1_555 1_555
H15A C14A 1_555 1_555
H16A C15A 1_555 1_555
H17A C16A 1_555 1_555
H18A C17A 1_555 1_555
H19A C19A 1_555 1_555
H20A C20A 1_555 1_555
H21A C21A 1_555 1_555
H22A C22A 1_555 1_555
H23A C23A 1_555 1_555
H24A C25A 1_555 1_555
H25A C26A 1_555 1_555
H26A C27A 1_555 1_555
H27A C28A 1_555 1_555
H28A C29A 1_555 1_555
H29A C30A 1_555 1_555
H30A C30A 1_555 1_555
H31A C31A 1_555 1_555
H32A C31A 1_555 1_555
H33A C33A 1_555 1_555
H34A C34A 1_555 1_555
H35A C35A 1_555 1_555
H36A C36A 1_555 1_555
H37A C37A 1_555 1_555
H38A C39A 1_555 1_555
H39A C40A 1_555 1_555
H40A C41A 1_555 1_555
H41A C42A 1_555 1_555
H42A C43A 1_555 1_555
C2 P1 1_555 1_555
C10 C11 1_555 1_555
C16 C17 1_555 1_555
C22 C23 1_555 1_555
C28 C29 1_555 1_555
C30 P3 1_555 1_555
C36 C37 1_555 1_555
C42 C43 1_555 1_555
Ag1A P2A 1_555 1_555
C2A P1A 1_555 1_555
C10A C11A 1_555 1_555
C16A C17A 1_555 1_555
C22A C23A 1_555 1_555
C28A C29A 1_555 1_555
C36A C37A 1_555 1_555
C42A C43A 1_555 1_555

#END
