
#######################################################################
#
#                 Cambridge Crystallographic Data Centre
#                                CCDC 
#
#######################################################################
#
# If this CIF has been generated from an entry in the Cambridge 
# Structural Database, then it will include bibliographic, chemical, 
# crystal, experimental, refinement or atomic coordinate data resulting 
# from the CCDC's data processing and validation procedures.
#
#######################################################################

data_KAZQOT
_symmetry_cell_setting           monoclinic
_symmetry_space_group_name_H-M   'P 21/n'
_symmetry_Int_Tables_number      14
_space_group_name_Hall           '-P 2yn'
loop_
_symmetry_equiv_pos_site_id
_symmetry_equiv_pos_as_xyz
1 x,y,z
2 1/2-x,1/2+y,1/2-z
3 -x,-y,-z
4 1/2+x,1/2-y,1/2+z
_cell_length_a                   9.2872(19)
_cell_length_b                   11.644(2)
_cell_length_c                   16.208(3)
_cell_angle_alpha                90
_cell_angle_beta                 101.70(3)
_cell_angle_gamma                90
_cell_volume                     1716.32
loop_
_atom_site_label
_atom_site_type_symbol
_atom_site_fract_x
_atom_site_fract_y
_atom_site_fract_z
Cd1 Cd 0.5000 0.0000 0.0000
S1 S 0.30093(16) -0.26703(12) -0.16691(8)
N1 N 0.2712(5) -0.4447(4) -0.0727(3)
N2 N 0.3614(5) -0.3653(4) -0.0254(2)
N3 N 0.4974(5) -0.2577(4) 0.0694(3)
C1 C 0.2303(6) -0.4032(4) -0.1480(3)
C2 C 0.3903(6) -0.2667(4) -0.0628(3)
N4 N 0.4730(5) -0.1991(4) -0.0076(3)
C3 C 0.3368(7) -0.5396(5) 0.1098(4)
H1 H 0.2888 -0.5578 0.0553
C4 C 0.4189(6) -0.4392(5) 0.1251(3)
C5 C 0.4292(6) -0.3564(5) 0.0584(3)
C6 C 0.4903(8) -0.4144(6) 0.2061(4)
H2 H 0.5451 -0.3472 0.2167
C7 C 0.3268(8) -0.6123(6) 0.1758(4)
H3 H 0.2707 -0.6789 0.1656
C8 C 0.3995(9) -0.5868(6) 0.2570(4)
H4 H 0.3931 -0.6360 0.3013
C9 C 0.4818(11) -0.4872(6) 0.2713(5)
H5 H 0.5316 -0.4696 0.3256
N5 N 0.0092(6) -0.5058(4) -0.3537(3)
O1 O 0.7510(5) -0.0129(4) 0.0321(4)
H6 H 0.7932 -0.0690 0.0349
H7 H 0.7958 0.0355 0.0067
C10 C 0.1201(6) -0.4632(5) -0.2110(3)
C11 C 0.1113(6) -0.4516(5) -0.2970(3)
H8 H 0.1787 -0.4045 -0.3159
C12 C 0.0189(7) -0.5343(6) -0.1829(4)
H9 H 0.0220 -0.5440 -0.1257
C13 C -0.0877(7) -0.5718(5) -0.3259(4)
H10 H -0.1606 -0.6075 -0.3654
C14 C -0.0860(7) -0.5900(5) -0.2421(4)
H11 H -0.1541 -0.6389 -0.2254
Cd1A Cd 0.0000 -0.5000 -0.5000
Cd1A_2 Cd 1.0000 0.5000 0.5000
S1B S 0.69907(16) 0.26703(12) 0.16691(8)
N1B N 0.7288(5) 0.4447(4) 0.0727(3)
N2B N 0.6386(5) 0.3653(4) 0.0254(2)
N3B N 0.5026(5) 0.2577(4) -0.0694(3)
C1B C 0.7697(6) 0.4032(4) 0.1480(3)
C2B C 0.6097(6) 0.2667(4) 0.0628(3)
N4B N 0.5270(5) 0.1991(4) 0.0076(3)
C3B C 0.6632(7) 0.5396(5) -0.1098(4)
H1B H 0.7112 0.5578 -0.0553
C4B C 0.5811(6) 0.4392(5) -0.1251(3)
C5B C 0.5708(6) 0.3564(5) -0.0584(3)
C6B C 0.5097(8) 0.4144(6) -0.2061(4)
H2B H 0.4549 0.3472 -0.2167
C7B C 0.6732(8) 0.6123(6) -0.1758(4)
H3B H 0.7293 0.6789 -0.1656
C8B C 0.6005(9) 0.5868(6) -0.2570(4)
H4B H 0.6069 0.6360 -0.3013
C9B C 0.5182(11) 0.4872(6) -0.2713(5)
H5B H 0.4684 0.4696 -0.3256
N5B N 0.9908(6) 0.5058(4) 0.3537(3)
N5A N 0.4908(6) -0.0058(4) -0.1463(3)
N5C N 0.5092(6) 0.0058(4) 0.1463(3)
O1B O 0.2490(5) 0.0129(4) -0.0321(4)
H6B H 0.2068 0.0690 -0.0349
H7B H 0.2042 -0.0355 -0.0067
C10B C 0.8799(6) 0.4632(5) 0.2110(3)
C11B C 0.8887(6) 0.4516(5) 0.2970(3)
H8B H 0.8213 0.4045 0.3159
C12B C 0.9811(7) 0.5343(6) 0.1829(4)
H9B H 0.9780 0.5440 0.1257
C13B C 1.0877(7) 0.5718(5) 0.3259(4)
H10B H 1.1606 0.6075 0.3654
C14B C 1.0860(7) 0.5900(5) 0.2421(4)
H11B H 1.1541 0.6389 0.2254
Cl1 Cl -0.00096(16) 0.23691(18) 0.99815(10)
O2 O 0.1191(11) 0.2321(8) 0.9579(9)
O3 O -0.040(3) 0.3454(17) 0.9911(17)
O4 O 0.027(2) 0.213(2) 1.0806(8)
O5 O -0.118(2) 0.176(2) 0.9604(9)
loop_
_geom_bond_atom_site_label_1
_geom_bond_atom_site_label_2
_geom_bond_site_symmetry_1
_geom_bond_site_symmetry_2
Cd1 N4 1_555 1_555
S1 C1 1_555 1_555
N1 N2 1_555 1_555
N2 C2 1_555 1_555
N3 N4 1_555 1_555
C1 N1 1_555 1_555
C2 S1 1_555 1_555
N4 C2 1_555 1_555
C3 H1 1_555 1_555
C4 C3 1_555 1_555
C5 N2 1_555 1_555
C6 C4 1_555 1_555
H2 C6 1_555 1_555
C7 C3 1_555 1_555
H3 C7 1_555 1_555
C8 C7 1_555 1_555
H4 C8 1_555 1_555
C9 C6 1_555 1_555
H5 C9 1_555 1_555
Cl1 O2 1_555 1_555
N5 C11 1_555 1_555
O1 Cd1 1_555 1_555
H6 O1 1_555 1_555
H7 O1 1_555 1_555
C10 C1 1_555 1_555
C11 C10 1_555 1_555
H8 C11 1_555 1_555
C12 C10 1_555 1_555
H9 C12 1_555 1_555
C13 N5 1_555 1_555
H10 C13 1_555 1_555
C14 C12 1_555 1_555
H11 C14 1_555 1_555
O3 Cl1 1_555 1_555
O4 Cl1 1_555 1_555
O5 Cl1 1_555 1_555
Cd1A N5 1_555 1_555
Cd1A_2 N5B 1_555 1_555
S1B C1B 1_555 1_555
N1B N2B 1_555 1_555
N2B C2B 1_555 1_555
N3B N4B 1_555 1_555
C1B N1B 1_555 1_555
C2B S1B 1_555 1_555
N4B Cd1 1_555 1_555
C3B H1B 1_555 1_555
C4B C3B 1_555 1_555
C5B N2B 1_555 1_555
C6B C4B 1_555 1_555
H2B C6B 1_555 1_555
C7B C3B 1_555 1_555
H3B C7B 1_555 1_555
C8B C7B 1_555 1_555
H4B C8B 1_555 1_555
C9B C6B 1_555 1_555
H5B C9B 1_555 1_555
N5B C11B 1_555 1_555
N5A Cd1 1_555 1_555
N5C Cd1 1_555 1_555
O1B Cd1 1_555 1_555
H6B O1B 1_555 1_555
H7B O1B 1_555 1_555
C10B C1B 1_555 1_555
C11B C10B 1_555 1_555
H8B C11B 1_555 1_555
C12B C10B 1_555 1_555
H9B C12B 1_555 1_555
C13B N5B 1_555 1_555
H10B C13B 1_555 1_555
C14B C12B 1_555 1_555
H11B C14B 1_555 1_555
N3 C5 1_555 1_555
C4 C5 1_555 1_555
C8 C9 1_555 1_555
C13 C14 1_555 1_555
N3B C5B 1_555 1_555
C2B N4B 1_555 1_555
C4B C5B 1_555 1_555
C8B C9B 1_555 1_555
C13B C14B 1_555 1_555

#END
