
#######################################################################
#
#                 Cambridge Crystallographic Data Centre
#                                CCDC 
#
#######################################################################
#
# If this CIF has been generated from an entry in the Cambridge 
# Structural Database, then it will include bibliographic, chemical, 
# crystal, experimental, refinement or atomic coordinate data resulting 
# from the CCDC's data processing and validation procedures.
#
#######################################################################

data_KAZREK
_symmetry_cell_setting           monoclinic
_symmetry_space_group_name_H-M   'P 21/c'
_symmetry_Int_Tables_number      14
_space_group_name_Hall           '-P 2ybc'
loop_
_symmetry_equiv_pos_site_id
_symmetry_equiv_pos_as_xyz
1 x,y,z
2 -x,1/2+y,1/2-z
3 -x,-y,-z
4 x,1/2-y,1/2+z
_cell_length_a                   12.724(3)
_cell_length_b                   14.129(3)
_cell_length_c                   20.078(4)
_cell_angle_alpha                90
_cell_angle_beta                 100.01(3)
_cell_angle_gamma                90
_cell_volume                     3554.62
loop_
_atom_site_label
_atom_site_type_symbol
_atom_site_fract_x
_atom_site_fract_y
_atom_site_fract_z
Cu1 Cu 0.45121(7) 0.58342(6) 0.53510(4)
S1 S 0.45701(15) 0.69799(13) 0.36585(8)
S2 S 0.20973(16) 0.50967(13) 0.40897(8)
O1 O 0.4271(3) 0.5383(2) 0.44450(16)
H1 H 0.4726 0.5600 0.4245
N1 N 0.5516(5) 0.6747(4) 0.5042(3)
N2 N 0.6456(4) 0.7112(4) 0.5406(2)
N3 N 0.6228(5) 0.7669(4) 0.4377(2)
N4 N 0.6239(4) 0.8097(4) 0.3760(2)
N5 N 0.4805(5) 0.8717(4) 0.1309(3)
N6 N 0.3228(5) 0.5066(4) 0.5443(3)
N7 N 0.2987(5) 0.4613(4) 0.6016(3)
N8 N 0.1681(4) 0.4357(4) 0.5163(3)
N9 N 0.0789(5) 0.4130(4) 0.4707(3)
N10 N -0.1565(5) 0.4242(4) 0.2413(3)
C1 C 0.5398(6) 0.7078(5) 0.4421(3)
C2 C 0.6893(6) 0.7662(5) 0.4993(3)
C3 C 0.7934(5) 0.8111(5) 0.5150(3)
C4 C 0.8485(6) 0.8046(5) 0.5814(3)
H2 H 0.8160 0.7763 0.6144
C5 C 0.9501(7) 0.8398(5) 0.5983(4)
H3 H 0.9857 0.8366 0.6428
C6 C 0.9996(7) 0.8801(5) 0.5487(4)
H4 H 1.0691 0.9025 0.5598
C7 C 0.9453(7) 0.8872(5) 0.4824(4)
H5 H 0.9785 0.9150 0.4495
C8 C 0.8419(6) 0.8530(5) 0.4653(3)
H6 H 0.8054 0.8580 0.4211
C9 C 0.5410(6) 0.7799(5) 0.3349(3)
C10 C 0.5201(6) 0.8105(5) 0.2641(3)
C11 C 0.4460(7) 0.7659(6) 0.2162(3)
H7 H 0.4072 0.7146 0.2280
C12 C 0.4304(6) 0.7982(5) 0.1512(3)
H8 H 0.3814 0.7664 0.1192
C13 C 0.5524(6) 0.9165(5) 0.1765(3)
H9 H 0.5887 0.9681 0.1630
C14 C 0.5742(6) 0.8876(5) 0.2439(3)
H10 H 0.6245 0.9198 0.2750
C15 C 0.2449(6) 0.4881(5) 0.4935(3)
C16 C 0.2050(6) 0.4184(5) 0.5842(3)
C17 C 0.1551(6) 0.3607(5) 0.6295(3)
C18 C 0.2173(7) 0.3336(5) 0.6906(3)
H11 H 0.2878 0.3537 0.7017
C19 C 0.1731(8) 0.2761(6) 0.7351(4)
H12 H 0.2151 0.2552 0.7750
C20 C 0.0680(8) 0.2505(6) 0.7201(4)
H13 H 0.0374 0.2155 0.7511
C21 C 0.0079(8) 0.2764(6) 0.6598(4)
H14 H -0.0627 0.2565 0.6493
C22 C 0.0502(6) 0.3317(5) 0.6138(4)
H15 H 0.0084 0.3491 0.5729
C23 C 0.0908(6) 0.4477(5) 0.4129(3)
C24 C 0.0084(6) 0.4368(5) 0.3526(3)
C25 C -0.0804(6) 0.3793(5) 0.3543(3)
H16 H -0.0863 0.3442 0.3926
C26 C -0.1587(7) 0.3758(6) 0.2980(4)
H17 H -0.2173 0.3371 0.2996
C27 C -0.0694(7) 0.4769(5) 0.2388(4)
H18 H -0.0650 0.5093 0.1991
C28 C 0.0141(7) 0.4851(5) 0.2928(3)
H19 H 0.0731 0.5223 0.2892
Cu1B Cu 0.54879(7) 0.41658(6) 0.46490(4)
Cu1C Cu 0.45121(7) 0.91658(6) 0.03510(4)
O1B O 0.5729(3) 0.4617(2) 0.55550(16)
H1B H 0.5274 0.4400 0.5755
N5C N 0.4805(5) 0.6283(4) 0.6309(3)
F1 F 0.8485(8) 0.3549(6) 0.7650(5)
F2 F 0.7705(7) 0.3415(5) 0.8439(4)
F3 F 0.7000(7) 0.4184(4) 0.7460(3)
F4 F 0.8295(5) 0.4880(4) 0.8216(3)
B1 B 0.7747(8) 0.4080(7) 0.7992(4)
O2 O 0.3985(5) 0.8859(4) 0.4723(3)
C29 C 0.3552(10) 0.9600(7) 0.5102(5)
O3 O 0.3175(4) 0.7165(3) 0.4956(2)
C30 C 0.2090(7) 0.7359(6) 0.5010(4)
O4 O -0.3554(5) 0.4391(4) 0.1580(3)
C31 C -0.3959(10) 0.5298(9) 0.1733(6)
F5? F 0.6785(14) 0.4294(12) 0.8316(10)
loop_
_geom_bond_atom_site_label_1
_geom_bond_atom_site_label_2
_geom_bond_site_symmetry_1
_geom_bond_site_symmetry_2
Cu1 O1 1_555 1_555
S1 C1 1_555 1_555
S2 C15 1_555 1_555
F1 B1 1_555 1_555
F2 B1 1_555 1_555
F3 B1 1_555 1_555
F4 B1 1_555 1_555
O1 H1 1_555 1_555
O2 C29 1_555 1_555
O3 C30 1_555 1_555
O4 C31 1_555 1_555
N1 Cu1 1_555 1_555
N2 N1 1_555 1_555
N3 N4 1_555 1_555
N4 C9 1_555 1_555
N5 C12 1_555 1_555
N6 Cu1 1_555 1_555
N7 N6 1_555 1_555
N8 N9 1_555 1_555
N9 C23 1_555 1_555
N10 C26 1_555 1_555
C1 N1 1_555 1_555
C2 N2 1_555 1_555
C3 C2 1_555 1_555
C4 C3 1_555 1_555
H2 C4 1_555 1_555
C5 C4 1_555 1_555
H3 C5 1_555 1_555
C6 C5 1_555 1_555
H4 C6 1_555 1_555
C7 C6 1_555 1_555
H5 C7 1_555 1_555
C8 C3 1_555 1_555
H6 C8 1_555 1_555
C9 S1 1_555 1_555
C10 C9 1_555 1_555
C11 C10 1_555 1_555
H7 C11 1_555 1_555
C12 C11 1_555 1_555
H8 C12 1_555 1_555
C13 N5 1_555 1_555
H9 C13 1_555 1_555
C14 C10 1_555 1_555
H10 C14 1_555 1_555
C15 N6 1_555 1_555
C16 N7 1_555 1_555
C17 C16 1_555 1_555
C18 C17 1_555 1_555
H11 C18 1_555 1_555
C19 C18 1_555 1_555
H12 C19 1_555 1_555
C20 C19 1_555 1_555
H13 C20 1_555 1_555
C21 C20 1_555 1_555
H14 C21 1_555 1_555
C22 C17 1_555 1_555
H15 C22 1_555 1_555
C23 S2 1_555 1_555
C24 C23 1_555 1_555
C25 C24 1_555 1_555
H16 C25 1_555 1_555
C26 C25 1_555 1_555
H17 C26 1_555 1_555
C27 N10 1_555 1_555
H18 C27 1_555 1_555
C28 C24 1_555 1_555
H19 C28 1_555 1_555
Cu1B O1 1_555 1_555
Cu1C N5 1_555 1_555
O1B Cu1 1_555 1_555
H1B O1B 1_555 1_555
N5C Cu1 1_555 1_555
N3 C1 1_555 1_555
N3 C2 1_555 1_555
N8 C15 1_555 1_555
N8 C16 1_555 1_555
C7 C8 1_555 1_555
C13 C14 1_555 1_555
C21 C22 1_555 1_555
C27 C28 1_555 1_555
Cu1B O1B 1_555 1_555

#END
