
#######################################################################
#
#                 Cambridge Crystallographic Data Centre
#                                CCDC 
#
#######################################################################
#
# If this CIF has been generated from an entry in the Cambridge 
# Structural Database, then it will include bibliographic, chemical, 
# crystal, experimental, refinement or atomic coordinate data resulting 
# from the CCDC's data processing and validation procedures.
#
#######################################################################

data_KAZRAG
_symmetry_cell_setting           triclinic
_symmetry_space_group_name_H-M   'P 1'
_symmetry_Int_Tables_number      1
_space_group_name_Hall           'P 1'
loop_
_symmetry_equiv_pos_site_id
_symmetry_equiv_pos_as_xyz
1 x,y,z
_cell_length_a                   7.3047(15)
_cell_length_b                   10.152(2)
_cell_length_c                   11.641(2)
_cell_angle_alpha                91.98(3)
_cell_angle_beta                 105.00(3)
_cell_angle_gamma                105.94(3)
_cell_volume                     796.586
loop_
_atom_site_label
_atom_site_type_symbol
_atom_site_fract_x
_atom_site_fract_y
_atom_site_fract_z
Cu1 Cu 0.97555(4) 0.77960(3) 0.24322(3)
S1 S 0.98527(15) 0.97884(9) 0.53116(9)
S2 S 1.27125(14) 1.13395(9) 0.19011(8)
C1 C 0.9133(6) 0.9297(4) 0.6607(4)
N1 N 0.8990(6) 0.7253(3) 0.3895(3)
O1 O 0.9417(5) 0.9809(3) 0.2801(3)
N2 N 1.0891(6) 0.8473(4) 0.1139(3)
N3 N 1.2816(5) 0.9759(3) 0.0199(3)
O2 O 1.2658(5) 0.8887(3) 0.3646(3)
C2 C 0.9132(6) 0.8057(4) 0.4819(4)
N4 N 0.8485(5) 0.7296(3) 0.5651(3)
N5 N 1.4033(5) 1.1011(3) 0.0041(3)
N6 N 0.8437(5) 0.7985(4) 0.6672(3)
C3 C 1.4079(6) 1.1908(4) 0.0878(4)
C4 C 1.5293(6) 1.3364(4) 0.1020(3)
N7 N 0.7709(6) 0.9943(4) 0.2305(3)
N8 N 1.1010(6) 0.7657(4) 0.0185(3)
O3 O 1.2664(7) 0.6861(4) 0.3014(4)
N9 N 0.9691(7) 1.2326(4) 0.9400(4)
O4 O 0.6452(6) 0.8982(4) 0.1595(4)
C5 C 1.2182(6) 0.8433(4) -0.0376(3)
N10 N 0.8205(6) 0.5906(3) 0.4102(3)
C6 C 0.9337(6) 1.0338(4) 0.7555(4)
N11 N 1.3550(6) 0.7981(4) 0.3664(3)
C7 C 1.2655(6) 0.7952(4) -0.1420(3)
C8 C 0.8735(7) 1.0995(5) 0.9386(4)
H1 H 0.8162 1.0743 1.0003
O5 O 0.7394(7) 1.1034(4) 0.2531(4)
C9 C 0.7897(6) 0.5936(4) 0.5163(4)
C10 C 1.3507(6) 0.8860(4) -0.2136(4)
H2 H 1.3861 0.9806 -0.1924
C11 C 1.2006(6) 0.9735(4) 0.1117(4)
C12 C 1.3292(7) 0.6940(5) -0.3496(4)
H3 H 1.3518 0.6600 -0.4183
C13 C 0.8547(7) 0.9975(5) 0.8514(4)
H4 H 0.7905 0.9059 0.8562
C14 C 1.3829(7) 0.8349(4) -0.3171(4)
H5 H 1.4408 0.8957 -0.3645
C15 C 1.7204(7) 1.3669(4) 0.0921(4)
H6 H 1.7695 1.2976 0.0697
C16 C 0.5932(9) 0.3630(6) 0.7296(5)
H7 H 0.5731 0.3687 0.8051
C17 C 0.6533(8) 0.3425(4) 0.5026(5)
H8 H 0.6746 0.3367 0.4274
C18 C 1.0458(9) 1.2671(5) 0.8501(5)
H9 H 1.1135 1.3592 0.8499
C19 C 1.0302(8) 1.1719(5) 0.7549(4)
H10 H 1.0838 1.2011 0.6926
C20 C 1.2085(9) 0.6532(4) -0.1772(5)
H11 H 1.1478 0.5917 -0.1313
C21 C 0.6772(8) 0.4818(5) 0.6852(5)
H12 H 0.7150 0.5671 0.7304
C22 C 1.2415(10) 0.6041(5) -0.2788(5)
H13 H 1.2048 0.5095 -0.3006
C23 C 0.5703(9) 0.2235(5) 0.5489(5)
H14 H 0.5366 0.1376 0.5054
C24 C 1.4575(6) 1.4430(4) 0.1314(4)
H15 H 1.3275 1.4256 0.1353
C25 C 0.7052(7) 0.4719(4) 0.5696(4)
O6 O 1.5254(6) 0.8206(7) 0.4320(4)
C26 C 0.5377(9) 0.2345(6) 0.6633(6)
H16 H 0.4790 0.1557 0.6942
C27 C 1.8378(7) 1.5035(4) 0.1164(4)
H17 H 1.9664 1.5248 0.1094
C28 C 1.5853(7) 1.5753(4) 0.1546(4)
H18 H 1.5388 1.6469 0.1747
N12 N 1.7721(5) 1.6052(3) 0.1495(3)
Cu1_2 Cu 1.97555(4) 1.77960(3) 0.24322(3)
N12_2 N 0.7721(5) 0.6052(3) 0.1495(3)
C29 C 1.1495(10) 0.3741(7) 0.4098(6)
H19 H 1.1562 0.4611 0.4416
Cl1 Cl 1.249(3) 0.4038(18) 0.3229(17)
Cl2 Cl 1.034(5) 0.278(4) 0.483(4)
loop_
_geom_bond_atom_site_label_1
_geom_bond_atom_site_label_2
_geom_bond_site_symmetry_1
_geom_bond_site_symmetry_2
Cu1 N1 1_555 1_555
S1 C1 1_555 1_555
S2 C3 1_555 1_555
C1 N6 1_555 1_555
N1 C2 1_555 1_555
O1 Cu1 1_555 1_555
N2 Cu1 1_555 1_555
N3 N5 1_555 1_555
O2 Cu1 1_555 1_555
C2 S1 1_555 1_555
N4 C2 1_555 1_555
N5 C3 1_555 1_555
N6 N4 1_555 1_555
C3 C4 1_555 1_555
C4 C15 1_555 1_555
N7 O1 1_555 1_555
N8 N2 1_555 1_555
O3 Cu1 1_555 1_555
N9 C8 1_555 1_555
O4 N7 1_555 1_555
C5 N3 1_555 1_555
N10 N1 1_555 1_555
C6 C1 1_555 1_555
N11 O2 1_555 1_555
C7 C5 1_555 1_555
C8 H1 1_555 1_555
O5 N7 1_555 1_555
C9 N4 1_555 1_555
C10 C7 1_555 1_555
H2 C10 1_555 1_555
C11 S2 1_555 1_555
C12 H3 1_555 1_555
C13 C6 1_555 1_555
H4 C13 1_555 1_555
C14 C10 1_555 1_555
H5 C14 1_555 1_555
C15 H6 1_555 1_555
C16 H7 1_555 1_555
C17 H8 1_555 1_555
C18 N9 1_555 1_555
H9 C18 1_555 1_555
C19 C6 1_555 1_555
H10 C19 1_555 1_555
C20 C7 1_555 1_555
H11 C20 1_555 1_555
C21 C16 1_555 1_555
H12 C21 1_555 1_555
C22 C12 1_555 1_555
H13 C22 1_555 1_555
C23 C17 1_555 1_555
H14 C23 1_555 1_555
C24 C4 1_555 1_555
H15 C24 1_555 1_555
C25 C9 1_555 1_555
O6 N11 1_555 1_555
C26 C16 1_555 1_555
H16 C26 1_555 1_555
C27 C15 1_555 1_555
H17 C27 1_555 1_555
C28 C24 1_555 1_555
H18 C28 1_555 1_555
N12 C27 1_555 1_555
C29 H19 1_555 1_555
Cl1 C29 1_555 1_555
Cl2 C29 1_555 1_555
Cu1_2 N12 1_555 1_555
N12_2 Cu1 1_555 1_555
N2 C11 1_555 1_555
N3 C11 1_555 1_555
N8 C5 1_555 1_555
O3 N11 1_555 1_555
N10 C9 1_555 1_555
C8 C13 1_555 1_555
C12 C14 1_555 1_555
C17 C25 1_555 1_555
C18 C19 1_555 1_555
C20 C22 1_555 1_555
C21 C25 1_555 1_555
C23 C26 1_555 1_555
C28 N12 1_555 1_555

#END
