
#######################################################################
#
#                 Cambridge Crystallographic Data Centre
#                                CCDC 
#
#######################################################################
#
# If this CIF has been generated from an entry in the Cambridge 
# Structural Database, then it will include bibliographic, chemical, 
# crystal, experimental, refinement or atomic coordinate data resulting 
# from the CCDC's data processing and validation procedures.
#
#######################################################################

data_KAZSAG
_symmetry_cell_setting           triclinic
_symmetry_space_group_name_H-M   'P -1'
_symmetry_Int_Tables_number      2
_space_group_name_Hall           '-P 1'
loop_
_symmetry_equiv_pos_site_id
_symmetry_equiv_pos_as_xyz
1 x,y,z
2 -x,-y,-z
_cell_length_a                   22.474(3)
_cell_length_b                   14.152(3)
_cell_length_c                   13.937(5)
_cell_angle_alpha                67.75(2)
_cell_angle_beta                 74.75(2)
_cell_angle_gamma                77.85(2)
_cell_volume                     3927.54
loop_
_atom_site_label
_atom_site_type_symbol
_atom_site_fract_x
_atom_site_fract_y
_atom_site_fract_z
O1 O 0.4880(5) 1.1352(8) 0.9638(9)
H73 H 0.50393 1.07630 0.94366
H74 H 0.46641 1.18055 0.90998
O2 O 0.9342(12) 0.5242(18) 0.402(2)
H75 H 0.94365 0.48459 0.35560
H76 H 0.96093 0.49112 0.45158
N3 N 0.5434(8) 1.4179(13) 0.6665(14)
C81 C 0.5368(10) 1.3365(15) 0.6851(14)
C82 C 0.5263(15) 1.2395(17) 0.7055(15)
H77 H 0.56570 1.20049 0.69304
H78 H 0.50640 1.21254 0.77715
H79 H 0.50159 1.24082 0.66026
N4 N 0.9910(12) 0.7490(18) 0.444(2)
C83 C 0.9620(7) 0.7279(11) 0.4209(14)
C84 C 0.9219(9) 0.6835(14) 0.3846(15)
H80 H 0.88848 0.66017 0.44181
H81 H 0.90680 0.73478 0.32664
H82 H 0.94551 0.62789 0.36448
Ag1 Ag 0.76931(4) 0.98038(7) 0.27532(7)
Ag2 Ag 0.73296(4) 0.89724(6) 0.79146(7)
C1 C 0.8523(6) 0.8884(9) 0.3260(10)
N1 N 0.8908(6) 0.8356(10) 0.3613(11)
C2 C 0.6450(5) 0.9732(8) 0.8521(9)
N2 N 0.6003(5) 1.0088(9) 0.8889(9)
C3 C 0.6671(5) 0.8520(7) 0.5285(8)
C4 C 0.7277(5) 0.7956(8) 0.5655(8)
P1 P 0.67722(8) 0.87669(12) 0.38186(13)
C5 C 0.5974(5) 0.9240(8) 0.3555(8)
C6 C 0.5916(6) 0.9776(9) 0.2515(9)
C7 C 0.5333(6) 1.0151(10) 0.2234(10)
C8 C 0.4820(6) 1.0001(10) 0.3031(11)
C9 C 0.4863(6) 0.9460(10) 0.4068(10)
C10 C 0.5425(5) 0.9118(9) 0.4314(9)
C11 C 0.6868(5) 0.7394(8) 0.3869(8)
C12 C 0.7449(6) 0.6942(9) 0.3588(10)
C13 C 0.7551(7) 0.5895(9) 0.3692(12)
C14 C 0.7094(9) 0.5354(10) 0.4017(14)
C15 C 0.6501(8) 0.5781(11) 0.4300(15)
C16 C 0.6392(6) 0.6815(10) 0.4185(12)
As2 As 0.72243(7) 0.76428(12) 0.71457(12)
C17 C 0.7870(5) 0.6530(8) 0.7393(8)
C18 C 0.8447(7) 0.6650(11) 0.6767(14)
C19 C 0.8926(8) 0.5893(14) 0.6997(15)
C20 C 0.8896(7) 0.5022(12) 0.7779(14)
C21 C 0.8336(8) 0.4896(10) 0.8376(13)
C22 C 0.7823(6) 0.5671(11) 0.8200(11)
C23 C 0.6520(5) 0.6930(7) 0.7723(8)
C24 C 0.6423(5) 0.6195(9) 0.7414(9)
C25 C 0.5878(7) 0.5733(9) 0.7846(10)
C26 C 0.5424(6) 0.6060(10) 0.8624(10)
C27 C 0.5509(6) 0.6793(11) 0.8900(12)
C28 C 0.6054(6) 0.7258(9) 0.8468(10)
C29 C 0.7485(5) 1.0837(8) 0.5039(8)
C30 C 0.8134(5) 1.0363(8) 0.5249(8)
As3 As 0.74422(7) 1.12712(10) 0.35738(10)
C31 C 0.7978(5) 1.2303(7) 0.2974(8)
C32 C 0.8083(5) 1.2905(8) 0.3467(9)
C33 C 0.8488(6) 1.3668(10) 0.2948(12)
C34 C 0.8782(6) 1.3800(9) 0.1935(12)
C35 C 0.8700(6) 1.3217(10) 0.1440(9)
C36 C 0.8289(5) 1.2462(9) 0.1959(9)
C37 C 0.6634(5) 1.2046(7) 0.3604(8)
C38 C 0.6242(6) 1.1892(8) 0.3088(9)
C39 C 0.5655(6) 1.2414(9) 0.3072(10)
C40 C 0.5452(5) 1.3076(9) 0.3615(10)
C41 C 0.5821(6) 1.3261(8) 0.4118(9)
C42 C 0.6426(5) 1.2761(8) 0.4105(9)
P4 P 0.81483(9) 1.00854(14) 0.66690(14)
C43 C 0.8987(5) 0.9651(8) 0.6707(8)
C44 C 0.9247(6) 0.9948(11) 0.7329(11)
C45 C 0.9835(7) 0.9576(15) 0.7426(12)
C46 C 1.0194(7) 0.8949(13) 0.6892(13)
C47 C 0.9940(7) 0.8656(13) 0.6257(12)
C48 C 0.9325(6) 0.9011(10) 0.6175(10)
C49 C 0.8042(5) 1.1450(8) 0.6664(8)
C50 C 0.7474(6) 1.1801(9) 0.7151(10)
C51 C 0.7374(7) 1.2842(11) 0.7071(11)
C52 C 0.7823(8) 1.3481(10) 0.6517(11)
C53 C 0.8362(7) 1.3144(9) 0.6026(10)
C54 C 0.8482(6) 1.2124(9) 0.6087(9)
C55 C 0.7860(5) 0.9644(7) 0.0040(8)
C56 C 0.7450(5) 0.8749(7) 0.0552(8)
P5 P 0.77947(8) 1.05583(12) 0.07575(12)
C57 C 0.8531(5) 1.1153(8) -0.0037(8)
C58 C 0.9064(6) 1.0873(10) 0.0414(10)
C59 C 0.9608(6) 1.1262(11) -0.0169(11)
C60 C 0.9634(7) 1.1888(11) -0.1186(10)
C61 C 0.9133(7) 1.2172(10) -0.1621(9)
C62 C 0.8586(6) 1.1805(9) -0.1059(8)
C63 C 0.7173(5) 1.1616(8) 0.0255(8)
C64 C 0.7151(6) 1.2591(8) 0.0280(10)
C65 C 0.6671(6) 1.3351(9) 0.0012(10)
C66 C 0.6201(6) 1.3154(9) -0.0313(10)
C67 C 0.6211(6) 1.2203(9) -0.0366(11)
C68 C 0.6714(5) 1.1442(8) -0.0094(10)
As6 As 0.76499(7) 0.78838(11) 0.97348(11)
C69 C 0.8463(5) 0.7293(8) 0.9896(8)
C70 C 0.8641(6) 0.6977(10) 1.0873(11)
C71 C 0.9244(6) 0.6510(10) 1.0992(12)
C72 C 0.9643(6) 0.6351(11) 1.0139(13)
C73 C 0.9467(8) 0.6666(13) 0.9199(14)
C74 C 0.8872(6) 0.7122(11) 0.9110(10)
C75 C 0.7172(5) 0.6817(8) 1.0598(8)
C76 C 0.7421(6) 0.5799(8) 1.0921(9)
C77 C 0.7030(7) 0.5012(9) 1.1416(11)
C78 C 0.6403(7) 0.5247(10) 1.1612(10)
C79 C 0.6156(6) 0.6244(11) 1.1334(11)
C80 C 0.6528(6) 0.7023(10) 1.0824(12)
H1 H 0.65723 0.91565 0.54053
H2 H 0.63451 0.81076 0.56685
H3 H 0.75987 0.83782 0.52666
H4 H 0.73766 0.73296 0.55110
H5 H 0.62816 0.98901 0.19742
H6 H 0.52999 1.05009 0.15143
H7 H 0.44229 1.02781 0.28590
H8 H 0.44974 0.93346 0.46031
H9 H 0.54525 0.87763 0.50370
H10 H 0.77876 0.73339 0.33150
H11 H 0.79643 0.55817 0.35247
H12 H 0.71706 0.46579 0.40506
H13 H 0.61683 0.53730 0.45731
H14 H 0.59750 0.71261 0.43351
H15 H 0.85149 0.72652 0.61758
H16 H 0.93190 0.60060 0.65361
H17 H 0.92481 0.45277 0.79242
H18 H 0.82696 0.42612 0.89364
H19 H 0.74345 0.55658 0.86860
H20 H 0.67299 0.59882 0.68888
H21 H 0.58128 0.52093 0.76272
H22 H 0.50570 0.57349 0.89435
H23 H 0.51946 0.70175 0.94007
H24 H 0.61092 0.77962 0.86745
H25 H 0.73623 1.14174 0.52620
H26 H 0.72068 1.03394 0.54372
H27 H 0.84238 1.08299 0.48087
H28 H 0.82447 0.97399 0.51010
H29 H 0.78790 1.28021 0.41819
H30 H 0.85515 1.40828 0.33053
H31 H 0.90506 1.43177 0.15714
H32 H 0.89168 1.33063 0.07320
H33 H 0.82255 1.20596 0.15906
H34 H 0.63812 1.14079 0.27288
H35 H 0.53949 1.23109 0.26907
H36 H 0.50390 1.34186 0.36364
H37 H 0.56700 1.37353 0.44859
H38 H 0.66942 1.29136 0.44379
H39 H 0.90133 1.04089 0.76784
H40 H 1.00080 0.97492 0.78828
H41 H 1.06161 0.87129 0.69568
H42 H 1.01826 0.82153 0.58845
H43 H 0.91416 0.88158 0.57472
H44 H 0.71607 1.13598 0.75260
H45 H 0.69835 1.31126 0.73974
H46 H 0.77467 1.41747 0.64874
H47 H 0.86665 1.35972 0.56330
H48 H 0.88711 1.18856 0.57254
H49 H 0.77517 1.00319 -0.06281
H50 H 0.82801 0.93409 -0.00630
H51 H 0.70213 0.90329 0.06496
H52 H 0.75300 0.83715 0.12785
H53 H 0.90449 1.04076 0.11223
H54 H 0.99615 1.10961 0.01407
H55 H 1.00168 1.21339 -0.15955
H56 H 0.91606 1.26325 -0.23286
H57 H 0.82362 1.20074 -0.13870
H58 H 0.74802 1.27389 0.04904
H59 H 0.66658 1.40106 0.00433
H60 H 0.58629 1.36753 -0.04964
H61 H 0.58842 1.20614 -0.05874
H62 H 0.67305 1.07868 -0.01514
H63 H 0.83467 0.70809 1.14666
H64 H 0.93682 0.63144 1.16525
H65 H 1.00503 0.60090 1.02035
H66 H 0.97563 0.65694 0.86026
H67 H 0.87556 0.73227 0.84460
H68 H 0.78596 0.56249 1.08150
H69 H 0.72107 0.43108 1.16066
H70 H 0.61435 0.47150 1.19436
H71 H 0.57167 0.64108 1.14951
H72 H 0.63389 0.77158 1.06235
C56_2 C 0.7450(5) 0.8749(7) 1.0552(8)
As6_2 As 0.76499(7) 0.78838(11) -0.02652(11)
As1? As 0.67722(8) 0.87669(12) 0.38186(13)
P2? P 0.72243(7) 0.76428(12) 0.71457(12)
P3? P 0.74422(7) 1.12712(10) 0.35738(10)
As4? As 0.81483(9) 1.00854(14) 0.66690(14)
As5? As 0.77947(8) 1.05583(12) 0.07575(12)
P6? P 0.76499(7) 0.78838(11) -0.02652(11)
loop_
_geom_bond_atom_site_label_1
_geom_bond_atom_site_label_2
_geom_bond_site_symmetry_1
_geom_bond_site_symmetry_2
Ag1 C1 1_555 1_555
Ag2 C2 1_555 1_555
C1 N1 1_555 1_555
C2 N2 1_555 1_555
C3 C4 1_555 1_555
C4 As2 1_555 1_555
P1 Ag1 1_555 1_555
C5 P1 1_555 1_555
C6 C5 1_555 1_555
C7 C6 1_555 1_555
C8 C7 1_555 1_555
C9 C8 1_555 1_555
C10 C5 1_555 1_555
C11 P1 1_555 1_555
C12 C11 1_555 1_555
C13 C12 1_555 1_555
C14 C13 1_555 1_555
C15 C14 1_555 1_555
C16 C11 1_555 1_555
As2 Ag2 1_555 1_555
C17 As2 1_555 1_555
C18 C17 1_555 1_555
C19 C18 1_555 1_555
C20 C19 1_555 1_555
C21 C20 1_555 1_555
C22 C17 1_555 1_555
C23 As2 1_555 1_555
C24 C23 1_555 1_555
C25 C24 1_555 1_555
C26 C25 1_555 1_555
C27 C26 1_555 1_555
C28 C23 1_555 1_555
C29 C30 1_555 1_555
C30 P4 1_555 1_555
As3 Ag1 1_555 1_555
C31 As3 1_555 1_555
C32 C31 1_555 1_555
C33 C32 1_555 1_555
C34 C33 1_555 1_555
C35 C34 1_555 1_555
C36 C31 1_555 1_555
C37 As3 1_555 1_555
C38 C37 1_555 1_555
C39 C38 1_555 1_555
C40 C39 1_555 1_555
C41 C40 1_555 1_555
C42 C37 1_555 1_555
P4 Ag2 1_555 1_555
C43 P4 1_555 1_555
C44 C43 1_555 1_555
C45 C44 1_555 1_555
C46 C45 1_555 1_555
C47 C46 1_555 1_555
C48 C43 1_555 1_555
C49 P4 1_555 1_555
C50 C49 1_555 1_555
C51 C50 1_555 1_555
C52 C51 1_555 1_555
C53 C52 1_555 1_555
C54 C49 1_555 1_555
C55 C56 1_555 1_555
C56 H51 1_555 1_555
P5 Ag1 1_555 1_555
C57 P5 1_555 1_555
C58 C57 1_555 1_555
C59 C58 1_555 1_555
C60 C59 1_555 1_555
C61 C60 1_555 1_555
C62 C57 1_555 1_555
C63 P5 1_555 1_555
C64 C63 1_555 1_555
C65 C64 1_555 1_555
C66 C65 1_555 1_555
C67 C66 1_555 1_555
C68 C63 1_555 1_555
As6 Ag2 1_555 1_555
C69 As6 1_555 1_555
C70 C69 1_555 1_555
C71 C70 1_555 1_555
C72 C71 1_555 1_555
C73 C72 1_555 1_555
C74 C69 1_555 1_555
C75 As6 1_555 1_555
C76 C75 1_555 1_555
C77 C76 1_555 1_555
C78 C77 1_555 1_555
C79 C78 1_555 1_555
C80 C75 1_555 1_555
O1 H73 1_555 1_555
O2 H75 1_555 1_555
N3 C81 1_555 1_555
C81 C82 1_555 1_555
C82 H77 1_555 1_555
N4 C83 1_555 1_555
C83 C84 1_555 1_555
C84 H80 1_555 1_555
H1 C3 1_555 1_555
H2 C3 1_555 1_555
H3 C4 1_555 1_555
H4 C4 1_555 1_555
H5 C6 1_555 1_555
H6 C7 1_555 1_555
H7 C8 1_555 1_555
H8 C9 1_555 1_555
H9 C10 1_555 1_555
H10 C12 1_555 1_555
H11 C13 1_555 1_555
H12 C14 1_555 1_555
H13 C15 1_555 1_555
H14 C16 1_555 1_555
H15 C18 1_555 1_555
H16 C19 1_555 1_555
H17 C20 1_555 1_555
H18 C21 1_555 1_555
H19 C22 1_555 1_555
H20 C24 1_555 1_555
H21 C25 1_555 1_555
H22 C26 1_555 1_555
H23 C27 1_555 1_555
H24 C28 1_555 1_555
H25 C29 1_555 1_555
H26 C29 1_555 1_555
H27 C30 1_555 1_555
H28 C30 1_555 1_555
H29 C32 1_555 1_555
H30 C33 1_555 1_555
H31 C34 1_555 1_555
H32 C35 1_555 1_555
H33 C36 1_555 1_555
H34 C38 1_555 1_555
H35 C39 1_555 1_555
H36 C40 1_555 1_555
H37 C41 1_555 1_555
H38 C42 1_555 1_555
H39 C44 1_555 1_555
H40 C45 1_555 1_555
H41 C46 1_555 1_555
H42 C47 1_555 1_555
H43 C48 1_555 1_555
H44 C50 1_555 1_555
H45 C51 1_555 1_555
H46 C52 1_555 1_555
H47 C53 1_555 1_555
H48 C54 1_555 1_555
H49 C55 1_555 1_555
H50 C55 1_555 1_555
H52 C56 1_555 1_555
H53 C58 1_555 1_555
H54 C59 1_555 1_555
H55 C60 1_555 1_555
H56 C61 1_555 1_555
H57 C62 1_555 1_555
H58 C64 1_555 1_555
H59 C65 1_555 1_555
H60 C66 1_555 1_555
H61 C67 1_555 1_555
H62 C68 1_555 1_555
H63 C70 1_555 1_555
H64 C71 1_555 1_555
H65 C72 1_555 1_555
H66 C73 1_555 1_555
H67 C74 1_555 1_555
H68 C76 1_555 1_555
H69 C77 1_555 1_555
H70 C78 1_555 1_555
H71 C79 1_555 1_555
H72 C80 1_555 1_555
H74 O1 1_555 1_555
H76 O2 1_555 1_555
H78 C82 1_555 1_555
H79 C82 1_555 1_555
H81 C84 1_555 1_555
H82 C84 1_555 1_555
C56_2 As6 1_555 1_555
As6_2 C56 1_555 1_555
C3 P1 1_555 1_555
C9 C10 1_555 1_555
C15 C16 1_555 1_555
C21 C22 1_555 1_555
C27 C28 1_555 1_555
C29 As3 1_555 1_555
C35 C36 1_555 1_555
C41 C42 1_555 1_555
C47 C48 1_555 1_555
C53 C54 1_555 1_555
C55 P5 1_555 1_555
C61 C62 1_555 1_555
C67 C68 1_555 1_555
C73 C74 1_555 1_555
C79 C80 1_555 1_555

#END
