
#######################################################################
#
#                 Cambridge Crystallographic Data Centre
#                                CCDC 
#
#######################################################################
#
# If this CIF has been generated from an entry in the Cambridge 
# Structural Database, then it will include bibliographic, chemical, 
# crystal, experimental, refinement or atomic coordinate data resulting 
# from the CCDC's data processing and validation procedures.
#
#######################################################################

data_KAZWUE
_symmetry_cell_setting           monoclinic
_symmetry_space_group_name_H-M   'C 2/c'
_symmetry_Int_Tables_number      15
_space_group_name_Hall           '-C 2yn'
loop_
_symmetry_equiv_pos_site_id
_symmetry_equiv_pos_as_xyz
1 x,y,z
2 1/2+x,1/2+y,z
3 -x,y,1/2-z
4 1/2-x,1/2+y,1/2-z
5 -x,-y,-z
6 1/2-x,1/2-y,-z
7 x,-y,1/2+z
8 1/2+x,1/2-y,1/2+z
_cell_length_a                   14.631(4)
_cell_length_b                   14.195(4)
_cell_length_c                   12.559(3)
_cell_angle_alpha                90.00
_cell_angle_beta                 99.43(2)
_cell_angle_gamma                90.00
_cell_volume                     2573.09
loop_
_atom_site_label
_atom_site_type_symbol
_atom_site_fract_x
_atom_site_fract_y
_atom_site_fract_z
Zn1 Zn 0.5000 0.07276(5) -0.7500
N1 N -0.3954(2) -0.0205(2) 0.2427(3)
C1 C -0.3391(3) -0.0126(3) 0.1711(3)
C2 C -0.2720(2) -0.0783(2) 0.1594(3)
C3 C -0.2654(3) -0.1563(3) 0.2246(3)
C4 C -0.3233(3) -0.1649(3) 0.2999(3)
C5 C -0.3856(3) -0.0958(3) 0.3074(3)
C6 C -0.2113(2) -0.0680(3) 0.0781(3)
N2 N -0.2123(2) 0.0032(2) 0.0188(2)
C7 C -0.1523(2) 0.0030(2) -0.0590(3)
C8 C -0.1041(2) 0.0850(2) -0.0743(3)
C9 C -0.0448(2) 0.0840(2) -0.1498(3)
C10 C -0.0322(2) 0.0051(2) -0.2102(3)
C11 C -0.0838(3) -0.0747(3) -0.1951(3)
C12 C -0.1430(3) -0.0755(3) -0.1214(3)
C13 C -0.1127(4) 0.1714(3) -0.0089(5)
O1 O 0.5157(3) 0.1093(3) -0.5829(3)
O2 O 0.5968(3) 0.1854(3) -0.6791(4)
N3 N 0.5761(3) 0.1717(3) -0.5875(5)
O3 O 0.3911(3) 0.2160(3) -0.9898(4)
H1 H -0.349(3) 0.031(3) 0.129(3)
H2 H -0.232(3) -0.196(3) 0.219(3)
H3 H -0.320(2) -0.212(3) 0.341(3)
H4 H -0.422(3) -0.105(3) 0.347(3)
H5 H -0.170(3) -0.119(3) 0.076(3)
H6 H -0.013(3) 0.134(3) -0.159(3)
H7 H -0.079(3) -0.123(3) -0.233(3)
H8 H -0.174(3) -0.125(3) -0.116(3)
H9 H -0.168(4) 0.180(3) -0.009(4)
H10 H -0.111(3) 0.221(3) -0.043(4)
H11 H -0.083(3) 0.169(3) 0.054(4)
Zn1_2 Zn -0.5000 0.07276(5) 0.2500
N1B N 0.3954(2) -0.0205(2) -0.7427(3)
N1_2 N 0.6046(2) -0.0205(2) -0.7573(3)
C1B C 0.3391(3) -0.0126(3) -0.6711(3)
C2B C 0.2720(2) -0.0783(2) -0.6594(3)
C3B C 0.2654(3) -0.1563(3) -0.7246(3)
C4B C 0.3233(3) -0.1649(3) -0.7999(3)
C5B C 0.3856(3) -0.0958(3) -0.8074(3)
C6B C 0.2113(2) -0.0680(3) -0.5781(3)
N2B N 0.2123(2) 0.0032(2) -0.5188(2)
C7B C 0.1523(2) 0.0030(2) -0.4410(3)
C8B C 0.1041(2) 0.0850(2) -0.4257(3)
C9B C 0.0448(2) 0.0840(2) -0.3502(3)
C10B C 0.0322(2) 0.0051(2) -0.2898(3)
C11B C 0.0838(3) -0.0747(3) -0.3049(3)
C12B C 0.1430(3) -0.0755(3) -0.3786(3)
C13B C 0.1127(4) 0.1714(3) -0.4911(5)
O1B O 0.4843(3) 0.1093(3) -0.9171(3)
O2B O 0.4032(3) 0.1854(3) -0.8209(4)
N3B N 0.4239(3) 0.1717(3) -0.9125(5)
O3B O 0.6089(3) 0.2160(3) -0.5102(4)
H1B H 0.349(3) 0.031(3) -0.629(3)
H2B H 0.232(3) -0.196(3) -0.719(3)
H3B H 0.320(2) -0.212(3) -0.841(3)
H4B H 0.422(3) -0.105(3) -0.847(3)
H5B H 0.170(3) -0.119(3) -0.576(3)
H6B H 0.013(3) 0.134(3) -0.341(3)
H7B H 0.079(3) -0.123(3) -0.267(3)
H8B H 0.174(3) -0.125(3) -0.384(3)
H9B H 0.168(4) 0.180(3) -0.491(4)
H10B H 0.111(3) 0.221(3) -0.457(4)
H11B H 0.083(3) 0.169(3) -0.554(4)
loop_
_geom_bond_atom_site_label_1
_geom_bond_atom_site_label_2
_geom_bond_site_symmetry_1
_geom_bond_site_symmetry_2
Zn1 O1 1_555 1_555
N1 C1 1_555 1_555
C1 C2 1_555 1_555
C2 C3 1_555 1_555
C3 C4 1_555 1_555
C4 C5 1_555 1_555
C5 N1 1_555 1_555
C6 C2 1_555 1_555
N2 C6 1_555 1_555
C7 N2 1_555 1_555
C8 C7 1_555 1_555
C9 C8 1_555 1_555
C10 C9 1_555 1_555
C11 C10 1_555 1_555
C12 C7 1_555 1_555
C13 C8 1_555 1_555
O1 N3 1_555 1_555
O2 Zn1 1_555 1_555
N3 O2 1_555 1_555
O3 N3B 1_555 1_555
H1 C1 1_555 1_555
H2 C3 1_555 1_555
H3 C4 1_555 1_555
H4 C5 1_555 1_555
H5 C6 1_555 1_555
H6 C9 1_555 1_555
H7 C11 1_555 1_555
H8 C12 1_555 1_555
H9 C13 1_555 1_555
H10 C13 1_555 1_555
H11 C13 1_555 1_555
Zn1_2 N1 1_555 1_555
N1B Zn1 1_555 1_555
N1_2 Zn1 1_555 1_555
C1B N1B 1_555 1_555
C2B C1B 1_555 1_555
C3B C2B 1_555 1_555
C4B C3B 1_555 1_555
C5B N1B 1_555 1_555
C6B C2B 1_555 1_555
N2B C6B 1_555 1_555
C7B N2B 1_555 1_555
C8B C7B 1_555 1_555
C9B C8B 1_555 1_555
C10B C10 1_555 1_555
C11B C10B 1_555 1_555
C12B C7B 1_555 1_555
C13B C8B 1_555 1_555
O1B Zn1 1_555 1_555
O2B Zn1 1_555 1_555
N3B O1B 1_555 1_555
O3B N3 1_555 1_555
H1B C1B 1_555 1_555
H2B C3B 1_555 1_555
H3B C4B 1_555 1_555
H4B C5B 1_555 1_555
H5B C6B 1_555 1_555
H6B C9B 1_555 1_555
H7B C11B 1_555 1_555
H8B C12B 1_555 1_555
H9B C13B 1_555 1_555
H10B C13B 1_555 1_555
H11B C13B 1_555 1_555
C11 C12 1_555 1_555
C4B C5B 1_555 1_555
C9B C10B 1_555 1_555
C11B C12B 1_555 1_555
O2B N3B 1_555 1_555

#END
