
#######################################################################
#
#                 Cambridge Crystallographic Data Centre
#                                CCDC 
#
#######################################################################
#
# If this CIF has been generated from an entry in the Cambridge 
# Structural Database, then it will include bibliographic, chemical, 
# crystal, experimental, refinement or atomic coordinate data resulting 
# from the CCDC's data processing and validation procedures.
#
#######################################################################

data_KAZWUF
_symmetry_cell_setting           triclinic
_symmetry_space_group_name_H-M   'P -1'
_symmetry_Int_Tables_number      2
_space_group_name_Hall           '-P 1'
loop_
_symmetry_equiv_pos_site_id
_symmetry_equiv_pos_as_xyz
1 x,y,z
2 -x,-y,-z
_cell_length_a                   9.7156(19)
_cell_length_b                   10.047(2)
_cell_length_c                   11.134(2)
_cell_angle_alpha                67.25(3)
_cell_angle_beta                 77.74(3)
_cell_angle_gamma                66.87(3)
_cell_volume                     919.356
loop_
_atom_site_label
_atom_site_type_symbol
_atom_site_fract_x
_atom_site_fract_y
_atom_site_fract_z
C1 C -0.2431(5) 0.3797(5) 0.4999(4)
H1 H -0.2098 0.3503 0.5818
O1 O -0.5071(3) 0.1782(3) 0.5910(3)
O2 O -0.3497(3) 0.1799(4) 0.7094(3)
C2 C -0.4072(5) 0.2214(5) 0.6051(4)
C3 C -0.3499(5) 0.3278(5) 0.4865(4)
C4 C -0.3994(5) 0.3729(5) 0.3641(4)
H2 H -0.4721 0.3395 0.3550
O3 O 0.3975(3) 0.7409(3) 0.0577(3)
O4 O 0.1725(3) 0.9092(3) 0.0727(3)
C5 C 0.2568(5) 0.7772(5) 0.0723(4)
C6 C 0.1890(5) 0.6561(5) 0.0973(4)
C7 C 0.0327(5) 0.6942(5) 0.1112(4)
H3 H -0.0305 0.7951 0.0998
Zn1 Zn -0.57929(5) 0.03345(6) 0.74328(5)
Zn2 Zn -0.37336(5) 0.05656(6) 0.90705(5)
O5 O -0.5959(3) 0.0797(4) 0.8994(3)
O6 O -0.1821(3) 0.6161(3) 0.1603(3)
N1 N -0.7525(4) 0.0416(4) 0.6648(3)
O7 O 0.2722(3) 0.1478(3) 0.1322(3)
O8 O 0.4394(3) 0.1795(3) 0.2213(3)
C8 C -0.9502(5) 0.0108(5) 0.5356(4)
C9 C 0.0667(5) 0.4296(5) 0.1551(4)
H4 H 0.0249 0.3550 0.1706
C10 C -0.0251(5) 0.5791(5) 0.1421(4)
C11 C 0.3201(5) 0.2267(5) 0.1658(4)
C12 C 0.2213(5) 0.3910(5) 0.1449(4)
C13 C -0.9632(5) -0.0277(5) 0.6708(4)
H5 H -1.0385 -0.0650 0.7204
C14 C 0.2830(5) 0.5050(5) 0.1172(4)
H6 H 0.3864 0.4797 0.1120
C15 C -0.2349(5) 0.5160(5) 0.2714(4)
C16 C -0.3418(5) 0.4671(5) 0.2552(4)
H7 H -0.3745 0.4966 0.1731
C17 C -0.8390(5) 0.0706(6) 0.4682(4)
H8 H -0.8284 0.1018 0.3775
C18 C -0.1856(5) 0.4751(6) 0.3920(4)
H9 H -0.1148 0.5109 0.4009
C19 C -0.7441(5) 0.0842(6) 0.5349(5)
H10 H -0.6704 0.1250 0.4872
C20 C -0.8645(5) -0.0104(5) 0.7306(4)
H11 H -0.8756 -0.0358 0.8210
H12 H -0.647(4) 0.153(4) 0.894(4)
C1A C 0.2431(5) -0.3797(5) 0.5001(4)
H1A H 0.2098 -0.3503 0.4182
O1A O 0.5071(3) -0.1782(3) 0.4090(3)
O2A O 0.3497(3) -0.1799(4) 0.2906(3)
C2A C 0.4072(5) -0.2214(5) 0.3949(4)
C3A C 0.3499(5) -0.3278(5) 0.5135(4)
C4A C 0.3994(5) -0.3729(5) 0.6359(4)
H2A H 0.4721 -0.3395 0.6450
O3A O -0.3975(3) -0.7409(3) 0.9423(3)
O3A_2 O -0.3975(3) 0.2591(3) 0.9423(3)
O3_2 O 0.3975(3) -0.2591(3) 0.0577(3)
O4A O -0.1725(3) -0.9092(3) 0.9273(3)
O4A_2 O -0.1725(3) 0.0908(3) 0.9273(3)
O4_2 O 0.1725(3) -0.0908(3) 0.0727(3)
C5A C -0.2568(5) -0.7772(5) 0.9277(4)
C6A C -0.1890(5) -0.6561(5) 0.9027(4)
C7A C -0.0327(5) -0.6942(5) 0.8888(4)
H3A H 0.0305 -0.7951 0.9002
Zn1A Zn 0.57929(5) -0.03345(6) 0.25672(5)
Zn1A_2 Zn -1.42071(5) -0.03345(6) 0.25672(5)
Zn1A_3 Zn -0.42071(5) -0.03345(6) 1.25672(5)
Zn2A Zn 0.37336(5) -0.05656(6) 0.09295(5)
Zn2A_2 Zn 0.37336(5) 0.94344(6) 0.09295(5)
Zn2A_3 Zn -0.62664(5) -0.05656(6) 1.09295(5)
Zn2_2 Zn -0.37336(5) -0.94344(6) 0.90705(5)
O5A O -0.4041(3) -0.0797(4) 1.1006(3)
O5A_2 O 0.5959(3) -0.0797(4) 0.1006(3)
O5_2 O 0.4041(3) 0.0797(4) -0.1006(3)
O6A O 0.1821(3) -0.6161(3) 0.8397(3)
N1A N -1.2475(4) -0.0416(4) 0.3352(3)
N1A_2 N 0.7525(4) -0.0416(4) 0.3352(3)
O7A O -0.2722(3) -0.1478(3) 0.8678(3)
O8A O -0.4394(3) -0.1795(3) 0.7787(3)
C8A C -1.0498(5) -0.0108(5) 0.4644(4)
C9A C -0.0667(5) -0.4296(5) 0.8449(4)
H4A H -0.0249 -0.3550 0.8294
C10A C 0.0251(5) -0.5791(5) 0.8579(4)
C11A C -0.3201(5) -0.2267(5) 0.8342(4)
C12A C -0.2213(5) -0.3910(5) 0.8551(4)
C13A C -1.0368(5) 0.0277(5) 0.3292(4)
H5A H -0.9615 0.0650 0.2796
C14A C -0.2830(5) -0.5050(5) 0.8828(4)
H6A H -0.3864 -0.4797 0.8880
C15A C 0.2349(5) -0.5160(5) 0.7286(4)
C16A C 0.3418(5) -0.4671(5) 0.7448(4)
H7A H 0.3745 -0.4966 0.8269
C17A C -1.1610(5) -0.0706(6) 0.5318(4)
H8A H -1.1716 -0.1018 0.6225
C18A C 0.1856(5) -0.4751(6) 0.6080(4)
H9A H 0.1148 -0.5109 0.5991
C19A C -1.2559(5) -0.0842(6) 0.4651(5)
H10A H -1.3296 -0.1250 0.5128
C20A C -1.1355(5) 0.0104(5) 0.2694(4)
H11A H -1.1244 0.0358 0.1790
H12A H -0.353(4) -0.153(4) 1.106(4)
H12A_2 H 0.647(4) -0.153(4) 0.106(4)
H12_2 H 0.353(4) 0.153(4) -0.106(4)
loop_
_geom_bond_atom_site_label_1
_geom_bond_atom_site_label_2
_geom_bond_site_symmetry_1
_geom_bond_site_symmetry_2
C1 H1 1_555 1_555
O1 C2 1_555 1_555
O2 C2 1_555 1_555
C2 C3 1_555 1_555
C3 C1 1_555 1_555
C4 C3 1_555 1_555
H2 C4 1_555 1_555
O3 C5 1_555 1_555
O4 C5 1_555 1_555
C5 C6 1_555 1_555
C6 C7 1_555 1_555
C7 H3 1_555 1_555
Zn1 O1 1_555 1_555
Zn2 O2 1_555 1_555
O5 Zn1 1_555 1_555
O6 C10 1_555 1_555
N1 Zn1 1_555 1_555
O7 C11 1_555 1_555
O8 C11 1_555 1_555
C8 C13 1_555 1_555
C9 H4 1_555 1_555
C10 C7 1_555 1_555
C11 C12 1_555 1_555
C12 C9 1_555 1_555
C13 H5 1_555 1_555
C14 C6 1_555 1_555
H6 C14 1_555 1_555
C15 O6 1_555 1_555
C16 C4 1_555 1_555
H7 C16 1_555 1_555
C17 C8 1_555 1_555
H8 C17 1_555 1_555
C18 C1 1_555 1_555
H9 C18 1_555 1_555
C19 N1 1_555 1_555
H10 C19 1_555 1_555
C20 N1 1_555 1_555
H11 C20 1_555 1_555
H12 O5 1_555 1_555
C1A H1A 1_555 1_555
O1A C2A 1_555 1_555
O2A C2A 1_555 1_555
C2A C3A 1_555 1_555
C3A C1A 1_555 1_555
C4A C3A 1_555 1_555
H2A C4A 1_555 1_555
O3A C5A 1_555 1_555
O3A_2 Zn2 1_555 1_555
O3_2 Zn2A 1_555 1_555
O4A C5A 1_555 1_555
O4A_2 Zn2 1_555 1_555
O4_2 Zn2A 1_555 1_555
C5A C6A 1_555 1_555
C6A C7A 1_555 1_555
C7A H3A 1_555 1_555
Zn1A O8 1_555 1_555
Zn1A_2 N1A 1_555 1_555
Zn1A_3 O5A 1_555 1_555
Zn2A O7 1_555 1_555
Zn2A_2 O3 1_555 1_555
Zn2A_3 O5 1_555 1_555
Zn2_2 O3A 1_555 1_555
O5A Zn2 1_555 1_555
O5A_2 Zn1A 1_555 1_555
O5_2 Zn2A 1_555 1_555
O6A C10A 1_555 1_555
N1A C19A 1_555 1_555
N1A_2 Zn1A 1_555 1_555
O7A Zn2 1_555 1_555
O8A Zn1 1_555 1_555
C8A C8 1_555 1_555
C9A H4A 1_555 1_555
C10A C7A 1_555 1_555
C11A O7A 1_555 1_555
C12A C9A 1_555 1_555
C13A C8A 1_555 1_555
H5A C13A 1_555 1_555
C14A C6A 1_555 1_555
H6A C14A 1_555 1_555
C15A O6A 1_555 1_555
C16A C4A 1_555 1_555
H7A C16A 1_555 1_555
C17A C8A 1_555 1_555
H8A C17A 1_555 1_555
C18A C1A 1_555 1_555
H9A C18A 1_555 1_555
C19A C17A 1_555 1_555
H10A C19A 1_555 1_555
C20A N1A 1_555 1_555
H11A C20A 1_555 1_555
H12A O5A 1_555 1_555
H12A_2 O5A_2 1_555 1_555
H12_2 O5_2 1_555 1_555
O4 Zn2A_2 1_555 1_555
Zn2 O5 1_555 1_555
C9 C10 1_555 1_555
C12 C14 1_555 1_555
C13 C20 1_555 1_555
C15 C16 1_555 1_555
C15 C18 1_555 1_555
C17 C19 1_555 1_555
O1A Zn1A 1_555 1_555
O2A Zn2A 1_555 1_555
O4A Zn2_2 1_555 1_555
Zn2A O5A_2 1_555 1_555
Zn2A_3 O5A 1_555 1_555
O8A C11A 1_555 1_555
C9A C10A 1_555 1_555
C11A C12A 1_555 1_555
C12A C14A 1_555 1_555
C13A C20A 1_555 1_555
C15A C16A 1_555 1_555
C15A C18A 1_555 1_555

#END
