
#######################################################################
#
#                 Cambridge Crystallographic Data Centre
#                                CCDC 
#
#######################################################################
#
# If this CIF has been generated from an entry in the Cambridge 
# Structural Database, then it will include bibliographic, chemical, 
# crystal, experimental, refinement or atomic coordinate data resulting 
# from the CCDC's data processing and validation procedures.
#
#######################################################################

data_KAZWUF01
_symmetry_cell_setting           triclinic
_symmetry_space_group_name_H-M   'P -1'
_symmetry_Int_Tables_number      2
_space_group_name_Hall           '-P 1'
loop_
_symmetry_equiv_pos_site_id
_symmetry_equiv_pos_as_xyz
1 x,y,z
2 -x,-y,-z
_cell_length_a                   9.7068(2)
_cell_length_b                   10.0529(3)
_cell_length_c                   11.1279(2)
_cell_angle_alpha                67.27(2)
_cell_angle_beta                 77.74(3)
_cell_angle_gamma                66.80(2)
_cell_volume                     918.235
loop_
_atom_site_label
_atom_site_type_symbol
_atom_site_fract_x
_atom_site_fract_y
_atom_site_fract_z
Zn1 Zn 0.37320(6) 0.94375(6) 0.09330(5)
Zn2 Zn 0.57956(6) 0.96665(6) 0.25646(5)
O1 O 0.5956(3) 0.9215(4) 0.1006(3)
O2 O 0.1735(4) 0.9089(4) 0.0721(4)
O3 O 0.3982(4) 0.7396(4) 0.0599(4)
O4 O 0.4394(4) 0.1778(4) 0.2215(3)
O5 O 0.2719(4) 0.1482(4) 0.1322(3)
O6 O -0.1813(3) 0.6169(4) 0.1594(3)
O7 O -0.3488(4) 0.1791(4) 0.7088(3)
O8 O -0.5078(4) 0.1786(4) 0.5917(3)
N1 N 0.7531(4) 0.9591(5) 0.3342(4)
C1 C 0.9494(5) 0.9896(6) 0.4648(5)
C2 C 0.8380(6) 0.9293(7) 0.5315(5)
H1 H 0.8260 0.8987 0.6222
C3 C 0.9639(6) 1.0266(7) 0.3301(5)
H2 H 1.0410 1.0612 0.2810
C4 C 0.8637(6) 1.0118(6) 0.2694(5)
H3 H 0.8736 1.0400 0.1788
C5 C 0.7453(6) 0.9148(7) 0.4634(5)
H4 H 0.6730 0.8715 0.5105
H5 H 0.6355 0.8553 0.1028
C6 C 0.2584(5) 0.7759(6) 0.0725(5)
C7 C 0.1902(5) 0.6559(6) 0.0979(5)
C8 C 0.2828(5) 0.5039(6) 0.1173(4)
H6 H 0.3865 0.4777 0.1118
C9 C 0.2213(5) 0.3916(5) 0.1447(4)
C10 C 0.0661(5) 0.4290(5) 0.1558(4)
H7 H 0.0245 0.3542 0.1716
C11 C -0.0253(5) 0.5787(5) 0.1429(4)
C12 C 0.0337(5) 0.6938(5) 0.1119(5)
H8 H -0.0294 0.7947 0.1004
C13 C 0.3186(5) 0.2275(5) 0.1657(4)
C14 C -0.2348(5) 0.5163(6) 0.2707(5)
C15 C -0.1846(6) 0.4744(7) 0.3925(5)
H9 H -0.1123 0.5084 0.4015
C16 C -0.2444(6) 0.3806(7) 0.5006(6)
H10 H -0.2135 0.3529 0.5831
C17 C -0.3505(5) 0.3279(6) 0.4856(5)
C18 C -0.3990(6) 0.3728(6) 0.3643(5)
H11 H -0.4719 0.3395 0.3554
C19 C -0.3413(6) 0.4677(6) 0.2535(5)
H12 H -0.3737 0.4969 0.1712
C20 C -0.4066(5) 0.2210(6) 0.6058(5)
Zn1A Zn 0.62680(6) 1.05625(6) -0.09330(5)
Zn1_2 Zn 0.37320(6) -0.05625(6) 0.09330(5)
Zn1A_2 Zn -0.37320(6) 0.05625(6) 0.90670(5)
Zn1A_3 Zn -0.37320(6) 1.05625(6) 0.90670(5)
Zn2A Zn 0.42044(6) 1.03335(6) -0.25646(5)
Zn2_2 Zn 0.57956(6) -0.03335(6) 0.25646(5)
Zn2A_2 Zn -0.57956(6) 0.03335(6) 0.74354(5)
Zn2A_3 Zn 1.42044(6) 1.03335(6) 0.74354(5)
Zn2A_4 Zn -0.57956(6) 1.03335(6) 0.74354(5)
O1A O 0.4044(3) 1.0785(4) -0.1006(3)
O2A O -0.1735(4) 0.0911(4) 0.9279(4)
O2A_2 O 0.8265(4) 1.0911(4) -0.0721(4)
O3A O -0.3982(4) 0.2604(4) 0.9401(4)
O3A_2 O 0.6018(4) 1.2604(4) -0.0599(4)
O4A O -0.4394(4) 0.8222(4) 0.7785(3)
O4_2 O 0.4394(4) 1.1778(4) 0.2215(3)
O4A_2 O 0.5606(4) 0.8222(4) -0.2215(3)
O5A O -0.2719(4) 0.8518(4) 0.8678(3)
O5_2 O 0.2719(4) 1.1482(4) 0.1322(3)
O5A_2 O 0.7281(4) 0.8518(4) -0.1322(3)
O6A O 0.1813(3) 0.3831(4) 0.8406(3)
O7A O 0.3488(4) 0.8209(4) 0.2912(3)
O7_2 O 0.6512(4) 1.1791(4) -0.2912(3)
O8A O 0.5078(4) 0.8214(4) 0.4083(3)
O8_2 O 0.4922(4) 1.1786(4) -0.4083(3)
N1A N 1.2469(4) 1.0409(5) 0.6658(4)
N1A_2 N 0.2469(4) 1.0409(5) -0.3342(4)
C1A C 1.0506(5) 1.0104(6) 0.5352(5)
C2A C 1.1620(6) 1.0707(7) 0.4685(5)
H1A H 1.1740 1.1013 0.3778
C3A C 1.0361(6) 0.9734(7) 0.6699(5)
H2A H 0.9590 0.9388 0.7190
C4A C 1.1363(6) 0.9882(6) 0.7306(5)
H3A H 1.1264 0.9600 0.8212
C5A C 1.2547(6) 1.0852(7) 0.5366(5)
H4A H 1.3270 1.1285 0.4895
H5A H 0.3645 1.1447 -0.1028
C6A C -0.2584(5) 0.2241(6) 0.9275(5)
C7A C -0.1902(5) 0.3441(6) 0.9021(5)
C8A C -0.2828(5) 0.4961(6) 0.8827(4)
H6A H -0.3865 0.5223 0.8882
C9A C -0.2213(5) 0.6084(5) 0.8553(4)
C10A C -0.0661(5) 0.5710(5) 0.8442(4)
H7A H -0.0245 0.6458 0.8284
C11A C 0.0253(5) 0.4213(5) 0.8571(4)
C12A C -0.0337(5) 0.3062(5) 0.8881(5)
H8A H 0.0294 0.2053 0.8996
C13A C -0.3186(5) 0.7725(5) 0.8343(4)
C14A C 0.2348(5) 0.4837(6) 0.7293(5)
C15A C 0.1846(6) 0.5256(7) 0.6075(5)
H9A H 0.1123 0.4916 0.5985
C16A C 0.2444(6) 0.6194(7) 0.4994(6)
H10A H 0.2135 0.6471 0.4169
C17A C 0.3505(5) 0.6721(6) 0.5144(5)
C18A C 0.3990(6) 0.6272(6) 0.6357(5)
H11A H 0.4719 0.6605 0.6446
C19A C 0.3413(6) 0.5323(6) 0.7465(5)
H12A H 0.3737 0.5031 0.8288
C20A C 0.4066(5) 0.7790(6) 0.3942(5)
loop_
_geom_bond_atom_site_label_1
_geom_bond_atom_site_label_2
_geom_bond_site_symmetry_1
_geom_bond_site_symmetry_2
Zn1 O1 1_555 1_555
Zn2 O1 1_555 1_555
O1 H5 1_555 1_555
O2 Zn1 1_555 1_555
O3 Zn1 1_555 1_555
O4 C13 1_555 1_555
O5 C13 1_555 1_555
O6 C11 1_555 1_555
O7 C20 1_555 1_555
O8 C20 1_555 1_555
N1 Zn2 1_555 1_555
C1 C2 1_555 1_555
C2 H1 1_555 1_555
C3 C1 1_555 1_555
H2 C3 1_555 1_555
C4 N1 1_555 1_555
H3 C4 1_555 1_555
C5 N1 1_555 1_555
H4 C5 1_555 1_555
C6 O2 1_555 1_555
C7 C6 1_555 1_555
C8 C7 1_555 1_555
H6 C8 1_555 1_555
C9 C8 1_555 1_555
C10 C9 1_555 1_555
H7 C10 1_555 1_555
C11 C10 1_555 1_555
C12 C7 1_555 1_555
H8 C12 1_555 1_555
C13 C9 1_555 1_555
C14 O6 1_555 1_555
C15 C14 1_555 1_555
H9 C15 1_555 1_555
C16 C15 1_555 1_555
H10 C16 1_555 1_555
C17 C16 1_555 1_555
C18 C17 1_555 1_555
H11 C18 1_555 1_555
C19 C14 1_555 1_555
H12 C19 1_555 1_555
C20 C17 1_555 1_555
Zn1A O1 1_555 1_555
Zn1_2 O5 1_555 1_555
Zn1A_2 O7 1_555 1_555
Zn1A_3 O5A 1_555 1_555
Zn2A O1A 1_555 1_555
Zn2_2 O4 1_555 1_555
Zn2A_2 O8 1_555 1_555
Zn2A_3 N1A 1_555 1_555
Zn2A_4 O4A 1_555 1_555
O1A Zn1 1_555 1_555
O2A Zn1A_2 1_555 1_555
O2A_2 Zn1A 1_555 1_555
O3A Zn1A_2 1_555 1_555
O3A_2 Zn1A 1_555 1_555
O4A C13A 1_555 1_555
O4_2 Zn2 1_555 1_555
O4A_2 Zn2A 1_555 1_555
O5A C13A 1_555 1_555
O5_2 Zn1 1_555 1_555
O5A_2 Zn1A 1_555 1_555
O6A C11A 1_555 1_555
O7A Zn1 1_555 1_555
O7_2 Zn1A 1_555 1_555
O8A Zn2 1_555 1_555
O8_2 Zn2A 1_555 1_555
N1A C4A 1_555 1_555
N1A_2 Zn2A 1_555 1_555
C1A C1 1_555 1_555
C2A C1A 1_555 1_555
H1A C2A 1_555 1_555
C3A C1A 1_555 1_555
H2A C3A 1_555 1_555
C4A C3A 1_555 1_555
H3A C4A 1_555 1_555
C5A N1A 1_555 1_555
H4A C5A 1_555 1_555
H5A O1A 1_555 1_555
C6A O2A 1_555 1_555
C7A C6A 1_555 1_555
C8A C7A 1_555 1_555
H6A C8A 1_555 1_555
C9A C8A 1_555 1_555
C10A C9A 1_555 1_555
H7A C10A 1_555 1_555
C11A C10A 1_555 1_555
C12A C7A 1_555 1_555
H8A C12A 1_555 1_555
C13A C9A 1_555 1_555
C14A O6A 1_555 1_555
C15A C14A 1_555 1_555
H9A C15A 1_555 1_555
C16A C15A 1_555 1_555
H10A C16A 1_555 1_555
C17A C16A 1_555 1_555
C18A C17A 1_555 1_555
H11A C18A 1_555 1_555
C19A C14A 1_555 1_555
H12A C19A 1_555 1_555
C20A O7A 1_555 1_555
O3 C6 1_555 1_555
C2 C5 1_555 1_555
C3 C4 1_555 1_555
C11 C12 1_555 1_555
C18 C19 1_555 1_555
Zn1A O1A 1_555 1_555
O3A C6A 1_555 1_555
O8A C20A 1_555 1_555
C2A C5A 1_555 1_555
C11A C12A 1_555 1_555
C17A C20A 1_555 1_555
C18A C19A 1_555 1_555

#END
