
#######################################################################
#
#                 Cambridge Crystallographic Data Centre
#                                CCDC 
#
#######################################################################
#
# If this CIF has been generated from an entry in the Cambridge 
# Structural Database, then it will include bibliographic, chemical, 
# crystal, experimental, refinement or atomic coordinate data resulting 
# from the CCDC's data processing and validation procedures.
#
#######################################################################

data_KAZXEP
_symmetry_cell_setting           monoclinic
_symmetry_space_group_name_H-M   'C 2/c'
_symmetry_Int_Tables_number      15
_space_group_name_Hall           '-C 2yn'
loop_
_symmetry_equiv_pos_site_id
_symmetry_equiv_pos_as_xyz
1 x,y,z
2 1/2+x,1/2+y,z
3 -x,y,1/2-z
4 1/2-x,1/2+y,1/2-z
5 -x,-y,-z
6 1/2-x,1/2-y,-z
7 x,-y,1/2+z
8 1/2+x,1/2-y,1/2+z
_cell_length_a                   24.346(6)
_cell_length_b                   16.164(4)
_cell_length_c                   16.745(5)
_cell_angle_alpha                90
_cell_angle_beta                 128.103(16)
_cell_angle_gamma                90
_cell_volume                     5185.4
loop_
_atom_site_label
_atom_site_type_symbol
_atom_site_fract_x
_atom_site_fract_y
_atom_site_fract_z
C27 C 0.0513(7) 0.0162(7) -1.0069(10)
H23 H 0.0882 0.0278 -1.0081
C28 C 0.0643(6) 0.0091(6) -0.9180(8)
H24 H 0.1107 0.0154 -0.8612
C29 C -0.0169(8) 0.0067(9) -1.1008(12)
C30 C -0.0121(13) 0.0260(17) -1.1737(19)
H25 H -0.0574 0.0219 -1.2386
H26 H 0.0050 0.0815 -1.1637
H27 H 0.0194 -0.0116 -1.1713
C27D C -0.0513(7) -0.0162(7) -0.9931(10)
H23D H -0.0882 -0.0278 -0.9919
C28D C -0.0643(6) -0.0091(6) -1.0820(8)
H24D H -0.1107 -0.0154 -1.1388
C29D C 0.0169(8) -0.0067(9) -0.8992(12)
C30D C 0.0121(13) -0.0260(17) -0.8263(19)
H25D H 0.0574 -0.0219 -0.7614
H26D H -0.0050 -0.0815 -0.8363
H27D H -0.0194 0.0116 -0.8287
Co1 Co 0.0000 0.5000 -1.0000
N1 N 0.1047(2) 0.4503(3) -0.8766(3)
N2 N 0.2606(2) 0.3708(3) -0.5267(3)
N3 N 0.3673(3) 0.2951(3) 0.1451(3)
N4 N 0.4584(2) 0.1233(3) 0.4371(3)
C1 C 0.1580(3) 0.4567(4) -0.8797(4)
H1 H 0.1488 0.4770 -0.9389
C2 C 0.2251(3) 0.4356(5) -0.8016(4)
H2 H 0.2598 0.4409 -0.8089
C3 C 0.2417(3) 0.4062(4) -0.7115(4)
H3 H 0.2873 0.3921 -0.6571
C4 C 0.1874(3) 0.3985(3) -0.7054(4)
C5 C 0.1208(3) 0.4201(3) -0.7888(3)
H4 H 0.0848 0.4134 -0.7845
C6 C 0.2004(3) 0.3718(4) -0.6114(4)
H5 H 0.1627 0.3549 -0.6142
C7 C 0.2702(3) 0.3514(3) -0.4357(4)
C8 C 0.3376(3) 0.3328(4) -0.3514(4)
C9 C 0.3493(3) 0.3197(4) -0.2600(4)
H6 H 0.3943 0.3063 -0.2033
C10 C 0.2977(3) 0.3255(3) -0.2485(4)
C11 C 0.2310(3) 0.3424(4) -0.3348(4)
H7 H 0.1946 0.3447 -0.3309
C12 C 0.2174(3) 0.3560(4) -0.4267(4)
H8 H 0.1722 0.3685 -0.4834
C13 C 0.3142(3) 0.3143(3) -0.1468(4)
C14 C 0.3662(3) 0.2616(4) -0.0752(4)
H9 H 0.3904 0.2306 -0.0912
C15 C 0.3832(3) 0.2537(4) 0.0188(4)
H10 H 0.4186 0.2175 0.0654
C16 C 0.3483(3) 0.2991(4) 0.0463(4)
C17 C 0.2964(3) 0.3542(3) -0.0231(4)
C18 C 0.2790(3) 0.3601(3) -0.1195(4)
H11 H 0.2431 0.3954 -0.1670
C19 C 0.3964(3) 0.3257(5) -0.3583(5)
H12 H 0.4388 0.3120 -0.2928
H13 H 0.4021 0.3775 -0.3804
H14 H 0.3856 0.2832 -0.4060
C20 C 0.2592(4) 0.4071(4) 0.0048(5)
H15 H 0.2244 0.4402 -0.0525
H16 H 0.2923 0.4424 0.0606
H17 H 0.2372 0.3721 0.0239
C21 C 0.3848(3) 0.2266(4) 0.1905(4)
H18 H 0.3818 0.1798 0.1558
C22 C 0.4097(3) 0.2162(4) 0.2953(4)
C23 C 0.4155(3) 0.2813(4) 0.3534(4)
H19 H 0.4017 0.3343 0.3263
C24 C 0.4419(3) 0.2665(4) 0.4518(4)
H20 H 0.4458 0.3093 0.4922
C25 C 0.4625(3) 0.1876(3) 0.4904(4)
H21 H -0.0199 0.3214 -0.9427
C26 C -0.0690(3) 0.3615(3) -1.1602(4)
H22 H -0.0740 0.4056 -1.1998
O1 O 0.0287(2) 0.5117(4) -1.0936(3)
O2 O 0.0899(3) 0.5019(4) -1.1457(4)
N5 N 0.0554(3) 0.5114(7) -1.1280(4)
O3 O 0.0429(5) 0.6055(6) -1.1550(7)
Co1G Co 0.5000 0.0000 0.5000
Co1G_2 Co -0.5000 0.0000 -2.5000
N1G N -0.3953(2) 0.0497(3) -2.3766(3)
N1D N -0.1047(2) 0.5497(3) -1.1234(3)
N2G N -0.2394(2) 0.1292(3) -2.0267(3)
N3G N -0.1327(3) 0.2049(3) -1.3549(3)
N4C N 0.0416(2) 0.6233(3) -0.9371(3)
N4G N -0.0416(2) 0.3767(3) -1.0629(3)
C1G C -0.3420(3) 0.0433(4) -2.3797(4)
H1G H -0.3512 0.0230 -2.4389
C2G C -0.2749(3) 0.0644(5) -2.3016(4)
H2G H -0.2402 0.0591 -2.3089
C3G C -0.2583(3) 0.0938(4) -2.2115(4)
H3G H -0.2127 0.1079 -2.1571
C4G C -0.3126(3) 0.1015(3) -2.2054(4)
C5G C -0.3792(3) 0.0799(3) -2.2888(3)
H4G H -0.4152 0.0866 -2.2845
C6G C -0.2996(3) 0.1282(4) -2.1114(4)
H5G H -0.3373 0.1451 -2.1142
C7G C -0.2298(3) 0.1486(3) -1.9357(4)
C8G C -0.1624(3) 0.1672(4) -1.8514(4)
C9G C -0.1507(3) 0.1803(4) -1.7600(4)
H6G H -0.1057 0.1937 -1.7033
C10G C -0.2023(3) 0.1745(3) -1.7485(4)
C11G C -0.2690(3) 0.1576(4) -1.8348(4)
H7G H -0.3054 0.1553 -1.8309
C12G C -0.2826(3) 0.1440(4) -1.9267(4)
H8G H -0.3278 0.1315 -1.9834
C13G C -0.1858(3) 0.1857(3) -1.6468(4)
C14G C -0.1338(3) 0.2384(4) -1.5752(4)
H9G H -0.1096 0.2694 -1.5912
C15G C -0.1168(3) 0.2463(4) -1.4812(4)
H10G H -0.0814 0.2825 -1.4346
C16G C -0.1517(3) 0.2009(4) -1.4537(4)
C17G C -0.2036(3) 0.1458(3) -1.5231(4)
C18G C -0.2210(3) 0.1399(3) -1.6195(4)
H11G H -0.2569 0.1046 -1.6670
C19G C -0.1036(3) 0.1743(5) -1.8583(5)
H12G H -0.0612 0.1880 -1.7928
H13G H -0.0979 0.1225 -1.8804
H14G H -0.1144 0.2168 -1.9060
C20G C -0.2408(4) 0.0929(4) -1.4952(5)
H15G H -0.2756 0.0598 -1.5525
H16G H -0.2077 0.0576 -1.4394
H17G H -0.2628 0.1279 -1.4761
C21G C -0.1152(3) 0.2734(4) -1.3095(4)
H18G H -0.1182 0.3202 -1.3442
C22G C -0.0903(3) 0.2838(4) -1.2047(4)
C23G C -0.0845(3) 0.2187(4) -1.1466(4)
H19G H -0.0983 0.1657 -1.1737
C24G C -0.0581(3) 0.2335(4) -1.0482(4)
H20G H -0.0542 0.1907 -1.0078
C25G C -0.0375(3) 0.3124(3) -1.0096(4)
H21G H 0.4801 0.1786 0.5573
C26G C 0.4310(3) 0.1385(3) 0.3398(4)
H22G H 0.4260 0.0944 0.3002
O1D O -0.0287(2) 0.4883(4) -0.9064(3)
O2D O -0.0899(3) 0.4981(4) -0.8543(4)
N5D N -0.0554(3) 0.4886(7) -0.8720(4)
O3D O -0.0429(5) 0.3945(6) -0.8450(7)
O4? O 0.0518(8) 0.4113(8) -1.1276(14)
loop_
_geom_bond_atom_site_label_1
_geom_bond_atom_site_label_2
_geom_bond_site_symmetry_1
_geom_bond_site_symmetry_2
Co1 N1 1_555 1_555
N1 C1 1_555 1_555
N2 C6 1_555 1_555
N3 C16 1_555 1_555
N4 C25 1_555 1_555
C1 H1 1_555 1_555
C2 C1 1_555 1_555
H2 C2 1_555 1_555
C3 C2 1_555 1_555
H3 C3 1_555 1_555
C4 C3 1_555 1_555
C5 N1 1_555 1_555
H4 C5 1_555 1_555
C6 C4 1_555 1_555
H5 C6 1_555 1_555
C7 N2 1_555 1_555
C8 C7 1_555 1_555
C9 C8 1_555 1_555
H6 C9 1_555 1_555
C10 C9 1_555 1_555
C11 C10 1_555 1_555
H7 C11 1_555 1_555
C12 C7 1_555 1_555
H8 C12 1_555 1_555
C13 C10 1_555 1_555
C14 C13 1_555 1_555
H9 C14 1_555 1_555
C15 C14 1_555 1_555
H10 C15 1_555 1_555
C16 C15 1_555 1_555
C17 C16 1_555 1_555
C18 C13 1_555 1_555
H11 C18 1_555 1_555
C19 C8 1_555 1_555
H12 C19 1_555 1_555
H13 C19 1_555 1_555
H14 C19 1_555 1_555
C20 C17 1_555 1_555
H15 C20 1_555 1_555
H16 C20 1_555 1_555
H17 C20 1_555 1_555
C21 N3 1_555 1_555
H18 C21 1_555 1_555
C22 C21 1_555 1_555
C23 C22 1_555 1_555
H19 C23 1_555 1_555
C24 C23 1_555 1_555
H20 C24 1_555 1_555
C25 C24 1_555 1_555
H21 C25G 1_555 1_555
C26 H22 1_555 1_555
O1 Co1 1_555 1_555
O2 N5 1_555 1_555
N5 O1 1_555 1_555
O3 N5 1_555 1_555
C27 H23 1_555 1_555
C28 C27 1_555 1_555
H24 C28 1_555 1_555
C29 C27 1_555 1_555
C30 C29 1_555 1_555
H25 C30 1_555 1_555
H26 C30 1_555 1_555
H27 C30 1_555 1_555
Co1G N4 1_555 1_555
Co1G_2 N1G 1_555 1_555
N1G C1G 1_555 1_555
N1D Co1 1_555 1_555
N2G C6G 1_555 1_555
N3G C16G 1_555 1_555
N4C Co1 1_555 1_555
N4G Co1 1_555 1_555
C1G H1G 1_555 1_555
C2G C1G 1_555 1_555
H2G C2G 1_555 1_555
C3G C2G 1_555 1_555
H3G C3G 1_555 1_555
C4G C3G 1_555 1_555
C5G N1G 1_555 1_555
H4G C5G 1_555 1_555
C6G C4G 1_555 1_555
H5G C6G 1_555 1_555
C7G N2G 1_555 1_555
C8G C7G 1_555 1_555
C9G C8G 1_555 1_555
H6G C9G 1_555 1_555
C10G C9G 1_555 1_555
C11G C10G 1_555 1_555
H7G C11G 1_555 1_555
C12G C7G 1_555 1_555
H8G C12G 1_555 1_555
C13G C10G 1_555 1_555
C14G C13G 1_555 1_555
H9G C14G 1_555 1_555
C15G C14G 1_555 1_555
H10G C15G 1_555 1_555
C16G C15G 1_555 1_555
C17G C16G 1_555 1_555
C18G C13G 1_555 1_555
H11G C18G 1_555 1_555
C19G C8G 1_555 1_555
H12G C19G 1_555 1_555
H13G C19G 1_555 1_555
H14G C19G 1_555 1_555
C20G C17G 1_555 1_555
H15G C20G 1_555 1_555
H16G C20G 1_555 1_555
H17G C20G 1_555 1_555
C21G N3G 1_555 1_555
H18G C21G 1_555 1_555
C22G C26 1_555 1_555
C23G C22G 1_555 1_555
H19G C23G 1_555 1_555
C24G C23G 1_555 1_555
H20G C24G 1_555 1_555
C25G N4G 1_555 1_555
H21G C25 1_555 1_555
C26G N4 1_555 1_555
H22G C26G 1_555 1_555
O1D Co1 1_555 1_555
O2D N5D 1_555 1_555
N5D O1D 1_555 1_555
O3D N5D 1_555 1_555
C27D H23D 1_555 1_555
C28D C29 1_555 1_555
H24D C28D 1_555 1_555
C29D C28 1_555 1_555
C30D C29D 1_555 1_555
H25D C30D 1_555 1_555
H26D C30D 1_555 1_555
H27D C30D 1_555 1_555
C4 C5 1_555 1_555
C11 C12 1_555 1_555
C17 C18 1_555 1_555
C22 C26G 1_555 1_555
C26 N4G 1_555 1_555
C4G C5G 1_555 1_555
C11G C12G 1_555 1_555
C17G C18G 1_555 1_555
C21G C22G 1_555 1_555
C24G C25G 1_555 1_555
C27D C28D 1_555 1_555
C27D C29D 1_555 1_555

#END
