
#######################################################################
#
#                 Cambridge Crystallographic Data Centre
#                                CCDC 
#
#######################################################################
#
# If this CIF has been generated from an entry in the Cambridge 
# Structural Database, then it will include bibliographic, chemical, 
# crystal, experimental, refinement or atomic coordinate data resulting 
# from the CCDC's data processing and validation procedures.
#
#######################################################################

data_KBZILT01
_symmetry_cell_setting           monoclinic
_symmetry_space_group_name_H-M   'P 21/c'
_symmetry_Int_Tables_number      14
_space_group_name_Hall           '-P 2ybc'
loop_
_symmetry_equiv_pos_site_id
_symmetry_equiv_pos_as_xyz
1 x,y,z
2 x,1/2-y,1/2+z
3 -x,-y,-z
4 -x,1/2+y,1/2-z
_cell_length_a                   14.1283(15)
_cell_length_b                   9.0230(10)
_cell_length_c                   10.3639(11)
_cell_angle_alpha                90
_cell_angle_beta                 111.4740(10)
_cell_angle_gamma                90
_cell_volume                     1229.47
loop_
_atom_site_label
_atom_site_type_symbol
_atom_site_fract_x
_atom_site_fract_y
_atom_site_fract_z
K1 K 0.03541(3) 0.03185(5) 0.81633(4)
O1 O -0.14873(10) 0.10062(15) 0.56378(13)
H1 H -0.1388(19) 0.171(3) 0.608(3)
O2 O -0.07919(10) 0.21045(14) 0.29362(12)
O3 O -0.07120(10) 0.34354(15) 0.47690(14)
C1 C -0.10511(13) 0.23915(17) 0.39388(17)
C2 C -0.18665(12) 0.13989(18) 0.41996(17)
C3 C -0.28622(13) 0.22641(19) 0.38436(18)
C4 C -0.30634(16) 0.3527(2) 0.3034(2)
H2 H -0.2586 0.3871 0.2682
C5 C -0.3969(2) 0.4286(3) 0.2741(3)
H3 H -0.4096 0.5132 0.2191
C6 C -0.46796(18) 0.3802(4) 0.3253(3)
H4 H -0.5287 0.4318 0.3051
C7 C -0.44947(17) 0.2561(3) 0.4061(3)
H5 H -0.4974 0.2238 0.4418
C8 C -0.35905(15) 0.1778(2) 0.4352(2)
H6 H -0.3474 0.0924 0.4890
C9 C -0.20387(12) -0.00445(18) 0.33704(17)
C10 C -0.15691(14) -0.1350(2) 0.3976(2)
H7 H -0.1150 -0.1359 0.4908
C11 C -0.17182(17) -0.2646(2) 0.3206(2)
H8 H -0.1405 -0.3517 0.3630
C12 C -0.23233(17) -0.2654(2) 0.1825(2)
H9 H -0.2423 -0.3526 0.1315
C13 C -0.27835(15) -0.1355(2) 0.1199(2)
H10 H -0.3185 -0.1349 0.0260
C14 C -0.26491(14) -0.0057(2) 0.19657(19)
H11 H -0.2969 0.0810 0.1539
O2A O -0.07919(10) 0.28955(14) 0.79362(12)
O2B O 0.07919(10) -0.21045(14) 0.70638(12)
O3A O -0.07120(10) 0.15646(15) 0.97690(14)
O3C O 0.07120(10) -0.15646(15) 1.02310(14)
K1A K 0.03541(3) 0.46815(5) 0.31633(4)
K1B K -0.03541(3) -0.03185(5) 0.18367(4)
K1C K -0.03541(3) 0.53185(5) 0.68367(4)
loop_
_geom_bond_atom_site_label_1
_geom_bond_atom_site_label_2
_geom_bond_site_symmetry_1
_geom_bond_site_symmetry_2
K1 O1 1_555 1_555
O1 H1 1_555 1_555
O2 C1 1_555 1_555
O3 C1 1_555 1_555
C1 C2 1_555 1_555
C2 O1 1_555 1_555
C3 C2 1_555 1_555
C4 C3 1_555 1_555
H2 C4 1_555 1_555
C5 C4 1_555 1_555
H3 C5 1_555 1_555
C6 C5 1_555 1_555
H4 C6 1_555 1_555
C7 C6 1_555 1_555
H5 C7 1_555 1_555
C8 C3 1_555 1_555
H6 C8 1_555 1_555
C9 C2 1_555 1_555
C10 C9 1_555 1_555
H7 C10 1_555 1_555
C11 C10 1_555 1_555
H8 C11 1_555 1_555
C12 C11 1_555 1_555
H9 C12 1_555 1_555
C13 C12 1_555 1_555
H10 C13 1_555 1_555
C14 C9 1_555 1_555
H11 C14 1_555 1_555
O2A K1 1_555 1_555
O2B K1 1_555 1_555
O3A K1 1_555 1_555
O3C K1 1_555 1_555
K1A O2 1_555 1_555
K1B O2 1_555 1_555
K1C O3 1_555 1_555
O3 K1A 1_555 1_555
C7 C8 1_555 1_555
C13 C14 1_555 1_555
O2A K1C 1_555 1_555

#END
