
#######################################################################
#
#                 Cambridge Crystallographic Data Centre
#                                CCDC 
#
#######################################################################
#
# If this CIF has been generated from an entry in the Cambridge 
# Structural Database, then it will include bibliographic, chemical, 
# crystal, experimental, refinement or atomic coordinate data resulting 
# from the CCDC's data processing and validation procedures.
#
#######################################################################

data_KCUOXD02
_symmetry_cell_setting           triclinic
_symmetry_space_group_name_H-M   'P -1'
_symmetry_Int_Tables_number      2
_space_group_name_Hall           '-P 1'
loop_
_symmetry_equiv_pos_site_id
_symmetry_equiv_pos_as_xyz
1 x,y,z
2 -x,-y,-z
_cell_length_a                   6.938(2)
_cell_length_b                   8.703(3)
_cell_length_c                   9.022(3)
_cell_angle_alpha                108.250(4)
_cell_angle_beta                 99.957(4)
_cell_angle_gamma                97.188(4)
_cell_volume                     500.12
loop_
_atom_site_label
_atom_site_type_symbol
_atom_site_fract_x
_atom_site_fract_y
_atom_site_fract_z
Cu1 Cu 0.5000 1.0000 1.0000
Cu2 Cu 0.0000 1.0000 0.5000
K1 K 0.36788(8) 0.66481(6) 0.63692(7)
K2 K 0.25833(8) 0.62598(7) 1.03803(7)
O1 O 0.2319(2) 0.89288(19) 0.87477(19)
O2 O -0.0899(2) 1.2095(2) 0.5663(2)
O3 O 0.1166(2) 1.2873(2) 0.9715(2)
O4 O 0.4010(2) 1.20445(19) 1.03604(19)
O5 O 0.4090(3) 1.3890(2) 0.7505(2)
O6 O -0.0422(2) 0.9646(2) 0.7714(2)
O7 O 0.0373(3) 1.4695(2) 0.7209(2)
O8 O 0.2646(2) 1.12973(19) 0.6022(2)
C1 C 0.1243(3) 0.9973(3) 0.8614(3)
C2 C 0.2170(3) 1.1806(3) 0.9655(2)
C3 C 0.2632(3) 1.2829(3) 0.6725(3)
C4 C 0.0533(4) 1.3274(3) 0.6534(3)
O9 O 0.4273(3) 0.9834(3) 1.2523(3)
O10 O 0.7558(3) 0.6330(2) 0.6209(2)
H1 H 0.312(2) 0.980(4) 1.267(4)
H2 H 0.822(4) 0.577(3) 0.662(4)
H3 H 0.811(4) 0.7322(15) 0.663(4)
H4 H 0.499(4) 0.951(5) 1.316(4)
Cu2_2 Cu 1.0000 1.0000 1.5000
K1A K 0.63212(8) 1.33519(6) 1.36308(7)
K1A_2 K -0.36788(8) 1.33519(6) 0.36308(7)
K1_2 K 0.36788(8) 1.66481(6) 0.63692(7)
K1A_3 K 0.63212(8) 0.33519(6) 0.36308(7)
K1A_4 K -0.36788(8) 0.33519(6) 0.36308(7)
K2A K 0.74167(8) 1.37402(7) 0.96197(7)
K2_2 K 0.25833(8) 1.62598(7) 1.03803(7)
K2A_2 K -0.25833(8) 1.37402(7) 0.96197(7)
K2A_3 K 0.74167(8) 0.37402(7) 0.96197(7)
K2_3 K 1.25833(8) 0.62598(7) 1.03803(7)
K2A_4 K -0.25833(8) 0.37402(7) -0.03803(7)
K2_4 K -0.74167(8) 0.62598(7) 0.03803(7)
O1A O 0.7681(2) 1.10712(19) 1.12523(19)
O2A O 0.0899(2) 0.7905(2) 0.4337(2)
O2_2 O 0.9101(2) 1.2095(2) 1.5663(2)
O3A O 0.8834(2) 0.7127(2) 1.0285(2)
O3_2 O 0.1166(2) 0.2873(2) 0.9715(2)
O3A_2 O -0.1166(2) 0.7127(2) 1.0285(2)
O3A_3 O 0.8834(2) 1.7127(2) 1.0285(2)
O3_3 O 1.1166(2) 1.2873(2) 0.9715(2)
O4A O 0.5990(2) 0.79555(19) 0.96396(19)
O5A O -0.4090(3) 0.6110(2) 0.2495(2)
O5_2 O 0.4090(3) 0.3890(2) 0.7505(2)
O5A_2 O 0.5910(3) 0.6110(2) 1.2495(2)
O5A_3 O 0.5910(3) 1.6110(2) 1.2495(2)
O6A O 1.0422(2) 1.0354(2) 1.2286(2)
O6A_2 O 0.0422(2) 1.0354(2) 0.2286(2)
O7A O -0.0373(3) 0.5305(2) 0.2791(2)
O7_2 O 0.0373(3) 0.4695(2) 0.7209(2)
O7A_2 O 0.9627(3) 1.5305(2) 1.2791(2)
O8A O -0.2646(2) 0.87027(19) 0.3978(2)
C1A C 0.8757(3) 1.0027(3) 1.1386(3)
C2A C 0.7830(3) 0.8194(3) 1.0345(2)
C3A C -0.2632(3) 0.7171(3) 0.3275(3)
C4A C -0.0533(4) 0.6726(3) 0.3466(3)
O9A O 0.5727(3) 1.0166(3) 0.7477(3)
O10A O 0.2442(3) 0.3670(2) 0.3791(2)
O10A_2 O 0.2442(3) 1.3670(2) 1.3791(2)
O10_2 O 0.7558(3) 1.6330(2) 1.6209(2)
H1A H 0.688(2) 1.020(4) 0.733(4)
H2A H 0.178(4) 0.423(3) 0.338(4)
H2A_2 H 0.178(4) 1.423(3) 1.338(4)
H2_2 H 0.822(4) 1.577(3) 1.662(4)
H3A H 0.189(4) 0.2678(15) 0.337(4)
H3A_2 H 0.189(4) 1.2678(15) 1.337(4)
H3_2 H 0.811(4) 1.7322(15) 1.663(4)
H4A H 0.501(4) 1.049(5) 0.684(4)
loop_
_geom_bond_atom_site_label_1
_geom_bond_atom_site_label_2
_geom_bond_site_symmetry_1
_geom_bond_site_symmetry_2
Cu1 O1 1_555 1_555
Cu2 O2 1_555 1_555
K1 O1 1_555 1_555
K2 O1 1_555 1_555
O1 C1 1_555 1_555
O2 C4 1_555 1_555
O3 C2 1_555 1_555
O4 Cu1 1_555 1_555
O5 C3 1_555 1_555
O6 Cu2 1_555 1_555
O7 C4 1_555 1_555
O8 Cu2 1_555 1_555
C1 O6 1_555 1_555
C2 O4 1_555 1_555
C3 O8 1_555 1_555
C4 C3 1_555 1_555
O9 Cu1 1_555 1_555
O10 K1 1_555 1_555
H1 O9 1_555 1_555
H2 O10 1_555 1_555
H3 O10 1_555 1_555
H4 O9 1_555 1_555
Cu2_2 O2_2 1_555 1_555
K1A O4 1_555 1_555
K1A_2 O2 1_555 1_555
K1_2 O5 1_555 1_555
K1A_3 O10 1_555 1_555
K1A_4 O5A 1_555 1_555
K2A O4 1_555 1_555
K2_2 O3 1_555 1_555
K2A_2 O3 1_555 1_555
K2A_3 O3A 1_555 1_555
K2_3 O3A 1_555 1_555
K2A_4 O5A 1_555 1_555
K2_4 O5A 1_555 1_555
O1A Cu1 1_555 1_555
O2A Cu2 1_555 1_555
O2_2 K1A 1_555 1_555
O3A C2A 1_555 1_555
O3_2 K2 1_555 1_555
O3A_2 K2 1_555 1_555
O3A_3 K2A 1_555 1_555
O3_3 K2A 1_555 1_555
O4A Cu1 1_555 1_555
O5A C3A 1_555 1_555
O5_2 K1 1_555 1_555
O5A_2 K2 1_555 1_555
O5A_3 K1A 1_555 1_555
O6A Cu2_2 1_555 1_555
O6A_2 Cu2 1_555 1_555
O7A K1A_4 1_555 1_555
O7_2 K1 1_555 1_555
O7A_2 K1A 1_555 1_555
O8A Cu2 1_555 1_555
C1A O1A 1_555 1_555
C2A O4A 1_555 1_555
C3A O8A 1_555 1_555
C4A O2A 1_555 1_555
O9A Cu1 1_555 1_555
O10A K1 1_555 1_555
O10A_2 K1A 1_555 1_555
O10_2 K1A 1_555 1_555
H1A O9A 1_555 1_555
H2A O10A 1_555 1_555
H2A_2 O10A_2 1_555 1_555
H2_2 O10_2 1_555 1_555
H3A O10A 1_555 1_555
H3A_2 O10A_2 1_555 1_555
H3_2 O10_2 1_555 1_555
H4A O9A 1_555 1_555
K1 O2A 1_555 1_555
K1 O4A 1_555 1_555
K1 O9A 1_555 1_555
K2 O9 1_555 1_555
K2 O4A 1_555 1_555
K2 O5_2 1_555 1_555
K2 O7_2 1_555 1_555
O5 K2A 1_555 1_555
O5 K2_2 1_555 1_555
O7 K1_2 1_555 1_555
O7 K2_2 1_555 1_555
C1 C2 1_555 1_555
O9 K1A 1_555 1_555
K1A O1A 1_555 1_555
K1A_3 O10A 1_555 1_555
K2A O1A 1_555 1_555
K2A O5A_3 1_555 1_555
K2A O7A_2 1_555 1_555
K2A O9A 1_555 1_555
K2_2 O5A_3 1_555 1_555
K2A_3 O5_2 1_555 1_555
K2A_3 O5A_2 1_555 1_555
K2A_4 O7A 1_555 1_555
O6A C1A 1_555 1_555
O7A C4A 1_555 1_555
C1A C2A 1_555 1_555
C3A C4A 1_555 1_555

#END
