
#######################################################################
#
#                 Cambridge Crystallographic Data Centre
#                                CCDC 
#
#######################################################################
#
# If this CIF has been generated from an entry in the Cambridge 
# Structural Database, then it will include bibliographic, chemical, 
# crystal, experimental, refinement or atomic coordinate data resulting 
# from the CCDC's data processing and validation procedures.
#
#######################################################################

data_KDGLUC01
_symmetry_cell_setting           monoclinic
_symmetry_space_group_name_H-M   'P 21'
_symmetry_Int_Tables_number      4
_space_group_name_Hall           'P 2yb'
loop_
_symmetry_equiv_pos_site_id
_symmetry_equiv_pos_as_xyz
1 x,y,z
2 -x,1/2+y,-z
_cell_length_a                   4.8417(2)
_cell_length_b                   10.8136(6)
_cell_length_c                   8.4630(5)
_cell_angle_alpha                90
_cell_angle_beta                 91.413(4)
_cell_angle_gamma                90
_cell_volume                     442.956
loop_
_atom_site_label
_atom_site_type_symbol
_atom_site_fract_x
_atom_site_fract_y
_atom_site_fract_z
K1 K 0.34443(14) 0.13313(6) 0.71635(7)
O1 O 0.3893(3) 0.31436(15) 0.47746(18)
O2 O 0.2320(4) 0.46633(15) 0.3193(2)
H1 H 0.1142 0.4741 0.2487
O3 O -0.1730(3) 0.32004(16) 0.20029(18)
H2 H -0.1062 0.3763 0.1487
O4 O 0.3445(3) 0.23923(15) 0.07342(16)
H3 H 0.4935 0.2655 0.1071
O5 O 0.1988(3) 0.00442(16) 0.00753(18)
H4 H 0.311(5) 0.059(2) -0.031(3)
O6 O -0.3167(3) -0.08373(14) 0.14591(19)
H5 H -0.4402 -0.0367 0.1163
O7 O 0.1158(3) -0.21157(16) 0.2709(2)
O8 O 0.2491(3) -0.04884(16) 0.41771(19)
C1 C 0.2322(4) 0.3601(2) 0.3670(2)
C2 C 0.0363(4) 0.26364(18) 0.2939(2)
H6 H -0.0501 0.2175 0.3793
C3 C 0.2100(4) 0.17305(18) 0.1961(2)
H7 H 0.3497 0.1341 0.2654
C4 C 0.0358(4) 0.07315(19) 0.1156(2)
H8 H -0.1091 0.1151 0.0530
C5 C -0.1091(4) -0.0157(2) 0.2289(2)
H9 H -0.1979 0.0336 0.3104
C6 C 0.0986(4) -0.1026(2) 0.3101(2)
K1A K -0.34443(14) 0.63313(6) 0.28365(7)
K1A_2 K 0.65557(14) 0.63313(6) 0.28365(7)
K1_2 K 0.34443(14) 0.13313(6) -0.28365(7)
K1A_3 K -0.34443(14) -0.36687(6) 0.28365(7)
K1A_4 K 0.65557(14) -0.36687(6) 0.28365(7)
O2A O -0.2320(4) -0.03367(15) 0.6807(2)
O2A_2 O 0.7680(4) -0.03367(15) 0.6807(2)
H1A H -0.1142 -0.0259 0.7513
H1A_2 H 0.8858 -0.0259 0.7513
O4_2 O 0.3445(3) 0.23923(15) 1.07342(16)
H3_2 H 0.4935 0.2655 1.1071
O5_2 O 0.1988(3) 0.00442(16) 1.00753(18)
H4_2 H 0.311(5) 0.059(2) 0.969(3)
O6A O 0.3167(3) 0.41627(14) 0.85409(19)
H5A H 0.4402 0.4633 0.8837
O7A O -0.1158(3) 0.28843(16) 0.7291(2)
O7A_2 O 0.8842(3) 0.28843(16) 0.7291(2)
loop_
_geom_bond_atom_site_label_1
_geom_bond_atom_site_label_2
_geom_bond_site_symmetry_1
_geom_bond_site_symmetry_2
K1 O1 1_555 1_555
O1 C1 1_555 1_555
O2 H1 1_555 1_555
O3 H2 1_555 1_555
O4 H3 1_555 1_555
O5 H4 1_555 1_555
O6 H5 1_555 1_555
O7 C6 1_555 1_555
O8 K1 1_555 1_555
C1 O2 1_555 1_555
C2 O3 1_555 1_555
H6 C2 1_555 1_555
C3 O4 1_555 1_555
H7 C3 1_555 1_555
C4 O5 1_555 1_555
H8 C4 1_555 1_555
C5 O6 1_555 1_555
H9 C5 1_555 1_555
C6 O8 1_555 1_555
K1A O2 1_555 1_555
K1A_2 O2 1_555 1_555
K1_2 O4 1_555 1_555
K1A_3 O6 1_555 1_555
K1A_4 O7 1_555 1_555
O2A K1 1_555 1_555
O2A_2 K1 1_555 1_555
H1A O2A 1_555 1_555
H1A_2 O2A_2 1_555 1_555
O4_2 K1 1_555 1_555
H3_2 O4_2 1_555 1_555
O5_2 K1 1_555 1_555
H4_2 O5_2 1_555 1_555
O6A K1 1_555 1_555
H5A O6A 1_555 1_555
O7A K1 1_555 1_555
O7A_2 K1 1_555 1_555
O5 K1_2 1_555 1_555
O7 K1A_3 1_555 1_555
C1 C2 1_555 1_555
C2 C3 1_555 1_555
C3 C4 1_555 1_555
C4 C5 1_555 1_555
C5 C6 1_555 1_555

#END
