
#######################################################################
#
#                 Cambridge Crystallographic Data Centre
#                                CCDC 
#
#######################################################################
#
# If this CIF has been generated from an entry in the Cambridge 
# Structural Database, then it will include bibliographic, chemical, 
# crystal, experimental, refinement or atomic coordinate data resulting 
# from the CCDC's data processing and validation procedures.
#
#######################################################################

data_KEBBAW
_symmetry_cell_setting           monoclinic
_symmetry_space_group_name_H-M   'P 21/n'
_symmetry_Int_Tables_number      14
_space_group_name_Hall           '-P 2yn'
loop_
_symmetry_equiv_pos_site_id
_symmetry_equiv_pos_as_xyz
1 x,y,z
2 1/2-x,1/2+y,1/2-z
3 -x,-y,-z
4 1/2+x,1/2-y,1/2+z
_cell_length_a                   3.8990(4)
_cell_length_b                   12.3800(13)
_cell_length_c                   16.7563(17)
_cell_angle_alpha                90
_cell_angle_beta                 93.536(2)
_cell_angle_gamma                90
_cell_volume                     807.28
loop_
_atom_site_label
_atom_site_type_symbol
_atom_site_fract_x
_atom_site_fract_y
_atom_site_fract_z
C1 C 0.834(4) 0.2483(11) 0.5585(9)
C2 C 0.784(5) 0.1869(12) 0.4843(9)
C3 C 0.713(4) 0.2019(12) 0.6315(9)
C4 C 0.576(4) 0.0977(12) 0.6343(9)
H1 H 0.5589 0.0552 0.5870
C5 C 0.464(4) 0.0556(12) 0.7038(8)
H2 H 0.3648 -0.0145 0.7033
C6 C 0.626(4) 0.2116(15) 0.7720(9)
H3 H 0.6462 0.2515 0.8205
C7 C 0.738(4) 0.2605(13) 0.7028(9)
H4 H 0.8279 0.3318 0.7043
N1 N 0.989(3) 0.3403(10) 0.5565(8)
N2 N 0.743(6) 0.1419(15) 0.4269(11)
N3 N 0.493(4) 0.1123(12) 0.7739(8)
O1 O 1.092(3) 0.3750(9) 0.4873(8)
Tl1 Tl 1.38029(14) 0.53279(6) 0.60028(3)
N3A N 1.007(4) 0.6123(12) 0.7261(8)
O1B O 0.908(3) 0.6250(9) 0.5127(8)
O1B_2 O 1.908(3) 0.6250(9) 0.5127(8)
Tl1A Tl 0.11971(14) 0.03279(6) 0.89972(3)
Tl1B Tl 0.61971(14) 0.46721(6) 0.39972(3)
Tl1B_2 Tl 1.61971(14) 0.46721(6) 0.39972(3)
loop_
_geom_bond_atom_site_label_1
_geom_bond_atom_site_label_2
_geom_bond_site_symmetry_1
_geom_bond_site_symmetry_2
C1 C2 1_555 1_555
C2 N2 1_555 1_555
C3 C1 1_555 1_555
C4 C3 1_555 1_555
H1 C4 1_555 1_555
C5 C4 1_555 1_555
H2 C5 1_555 1_555
C6 H3 1_555 1_555
C7 C3 1_555 1_555
H4 C7 1_555 1_555
N1 C1 1_555 1_555
N3 C5 1_555 1_555
O1 N1 1_555 1_555
Tl1 N1 1_555 1_555
N3A Tl1 1_555 1_555
O1B Tl1 1_555 1_555
O1B_2 Tl1 1_555 1_555
Tl1A N3 1_555 1_555
Tl1B O1 1_555 1_555
Tl1B_2 O1 1_555 1_555
C6 C7 1_555 1_555
C6 N3 1_555 1_555
O1 Tl1 1_555 1_555
O1B Tl1B 1_555 1_555
O1B_2 Tl1B_2 1_555 1_555

#END
