
#######################################################################
#
#                 Cambridge Crystallographic Data Centre
#                                CCDC 
#
#######################################################################
#
# If this CIF has been generated from an entry in the Cambridge 
# Structural Database, then it will include bibliographic, chemical, 
# crystal, experimental, refinement or atomic coordinate data resulting 
# from the CCDC's data processing and validation procedures.
#
#######################################################################

data_KEBDEC
_symmetry_cell_setting           monoclinic
_symmetry_space_group_name_H-M   'P 21/n'
_symmetry_Int_Tables_number      14
_space_group_name_Hall           '-P 2yn'
loop_
_symmetry_equiv_pos_site_id
_symmetry_equiv_pos_as_xyz
1 x,y,z
2 1/2-x,1/2+y,1/2-z
3 -x,-y,-z
4 1/2+x,1/2-y,1/2+z
_cell_length_a                   16.429(3)
_cell_length_b                   8.0925(13)
_cell_length_c                   22.732(4)
_cell_angle_alpha                90
_cell_angle_beta                 91.292(5)
_cell_angle_gamma                90
_cell_volume                     3021.49
loop_
_atom_site_label
_atom_site_type_symbol
_atom_site_fract_x
_atom_site_fract_y
_atom_site_fract_z
Cu1 Cu 0.76133(5) 0.54825(11) 0.06909(4)
Cu2 Cu 0.58180(5) 0.55209(11) 0.12471(4)
Cu3 Cu 0.71332(5) 0.27070(11) 0.17531(4)
C1 C 0.9265(5) 0.4598(10) 0.1229(3)
H1 H 0.9555 0.5397 0.1027
C2 C 0.5785(4) 0.2297(10) 0.2602(3)
H2 H 0.6022 0.1415 0.2804
C3 C 0.8964(5) 0.2573(10) 0.1792(3)
H3 H 0.8999 0.1699 0.2057
C4 C 0.5076(5) 0.3080(10) 0.2759(3)
H4 H 0.4749 0.2847 0.3077
C5 C 0.9611(5) 0.3461(10) 0.1610(3)
H5 H 1.0157 0.3333 0.1717
C6 C 0.4961(4) 0.4302(10) 0.2331(3)
H6 H 0.4532 0.5051 0.2315
N1 N 0.5566(3) 0.4229(7) 0.1947(2)
N2 N 0.8456(3) 0.4398(7) 0.1187(2)
N3 N 0.8257(4) 0.3126(8) 0.1538(3)
N4 N 0.6078(3) 0.2979(7) 0.2123(2)
N5 N 0.6712(4) 0.6563(7) 0.0257(3)
N6 N 0.5954(4) 0.6539(7) 0.0480(3)
C7 C 0.5455(5) 0.7291(10) 0.0085(4)
H7 H 0.4900 0.7467 0.0130
C8 C 0.6671(5) 0.7318(10) -0.0262(3)
H8 H 0.7114 0.7516 -0.0500
C9 C 0.5892(5) 0.7760(11) -0.0397(4)
H9 H 0.5697 0.8266 -0.0739
N7 N 0.8443(4) 0.7184(9) 0.0401(3)
C10 C 0.8961(5) 0.6814(10) -0.0016(4)
H10 H 0.8910 0.5801 -0.0206
C11 C 0.9121(5) 0.9767(9) 0.0499(3)
H11 H 0.9147 1.0790 0.0684
C12 C 0.9572(5) 0.7867(11) -0.0178(3)
H12 H 0.9929 0.7545 -0.0468
C13 C 0.8521(5) 0.8645(11) 0.0655(4)
H13 H 0.8163 0.8933 0.0949
C14 C 0.9662(4) 0.9402(10) 0.0084(3)
O1 O 0.6759(3) 0.4090(5) 0.10804(18)
N8 N 0.4879(4) 0.7051(8) 0.1416(3)
N9 N 0.1698(4) 1.2884(10) 0.1744(3)
C15 C 0.4374(5) 0.9569(10) 0.1816(3)
H14 H 0.4496 1.0553 0.2010
C16 C 0.3574(4) 0.9197(10) 0.1652(3)
C17 C 0.2913(5) 1.0425(10) 0.1723(3)
C18 C 0.4110(5) 0.6690(9) 0.1269(3)
H15 H 0.4012 0.5701 0.1071
C19 C 0.4976(5) 0.8476(10) 0.1689(3)
H16 H 0.5503 0.8761 0.1806
C20 C 0.3454(5) 0.7663(10) 0.1386(3)
H17 H 0.2931 0.7304 0.1288
C21 C 0.2102(5) 1.0047(9) 0.1595(3)
H18 H 0.1937 0.8986 0.1490
C22 C 0.3078(5) 1.2055(11) 0.1870(3)
H19 H 0.3609 1.2378 0.1962
C23 C 0.1553(5) 1.1346(13) 0.1632(4)
H20 H 0.1008 1.1072 0.1568
C24 C 0.2450(6) 1.3211(11) 0.1881(4)
H21 H 0.2580 1.4286 0.1994
O2 O 0.7871(4) 0.3551(7) -0.0105(2)
C25 C 0.7456(6) 0.2279(13) -0.0096(4)
H22 H 0.7653 0.1391 -0.0310
O3 O 0.6798(4) 0.2030(7) 0.0166(2)
O4 O 0.7453(3) 0.6533(5) 0.2517(2)
C26 C 0.7278(4) 0.7499(10) 0.2095(4)
H23 H 0.7463 0.8578 0.2142
O5 O 0.6901(3) 0.7226(6) 0.1632(2)
O6 O 0.6782(4) 0.0373(6) 0.1207(2)
H24 H 0.6611(13) 0.341(2) 0.0802(8)
H25 H 0.674(5) 0.056(8) 0.0824(11)
H26 H 0.690(5) -0.069(3) 0.123(3)
Cu1B Cu 1.23867(5) 1.45175(11) -0.06909(4)
Cu2B Cu 1.41820(5) 1.44791(11) -0.12471(4)
Cu2A Cu 0.91820(5) 0.05209(11) 0.37529(4)
Cu3B Cu 1.28668(5) 1.72930(11) -0.17531(4)
Cu3A Cu 0.78668(5) 0.77070(11) 0.32469(4)
C1B C 1.0735(5) 1.5402(10) -0.1229(3)
H1B H 1.0445 1.4603 -0.1027
C2B C 1.4215(4) 1.7703(10) -0.2602(3)
H2B H 1.3978 1.8585 -0.2804
C3B C 1.1036(5) 1.7427(10) -0.1792(3)
H3B H 1.1001 1.8301 -0.2057
C4B C 1.4924(5) 1.6920(10) -0.2759(3)
H4B H 1.5251 1.7153 -0.3077
C5B C 1.0389(5) 1.6539(10) -0.1610(3)
H5B H 0.9843 1.6667 -0.1717
C6B C 1.5039(4) 1.5698(10) -0.2331(3)
H6B H 1.5468 1.4949 -0.2315
N1B N 1.4434(3) 1.5771(7) -0.1947(2)
N2B N 1.1544(3) 1.5602(7) -0.1187(2)
N3B N 1.1743(4) 1.6874(8) -0.1538(3)
N4B N 1.3922(3) 1.7021(7) -0.2123(2)
N5B N 1.3288(4) 1.3437(7) -0.0257(3)
N6B N 1.4046(4) 1.3461(7) -0.0480(3)
C7B C 1.4545(5) 1.2709(10) -0.0085(4)
H7B H 1.5100 1.2533 -0.0130
C8B C 1.3329(5) 1.2682(10) 0.0262(3)
H8B H 1.2886 1.2484 0.0500
C9B C 1.4108(5) 1.2240(11) 0.0397(4)
H9B H 1.4303 1.1734 0.0739
N7B N 1.1557(4) 1.2816(9) -0.0401(3)
C10B C 1.1039(5) 1.3186(10) 0.0016(4)
H10B H 1.1090 1.4199 0.0206
C11B C 1.0879(5) 1.0233(9) -0.0499(3)
H11B H 1.0853 0.9210 -0.0684
C12B C 1.0428(5) 1.2133(11) 0.0178(3)
H12B H 1.0071 1.2455 0.0468
C13B C 1.1479(5) 1.1355(11) -0.0655(4)
H13B H 1.1837 1.1067 -0.0949
C14B C 1.0338(4) 1.0598(10) -0.0084(3)
O1B O 1.3241(3) 1.5910(5) -0.10804(18)
N8B N 1.5121(4) 1.2949(8) -0.1416(3)
N9B N 1.8302(4) 0.7116(10) -0.1744(3)
C15B C 1.5626(5) 1.0431(10) -0.1816(3)
H14B H 1.5504 0.9447 -0.2010
C16B C 1.6426(4) 1.0803(10) -0.1652(3)
C17B C 1.7087(5) 0.9575(10) -0.1723(3)
C18B C 1.5890(5) 1.3310(9) -0.1269(3)
H15B H 1.5988 1.4299 -0.1071
C19B C 1.5024(5) 1.1524(10) -0.1689(3)
H16B H 1.4497 1.1239 -0.1806
C20B C 1.6546(5) 1.2337(10) -0.1386(3)
H17B H 1.7069 1.2696 -0.1288
C21B C 1.7898(5) 0.9953(9) -0.1595(3)
H18B H 1.8063 1.1014 -0.1490
C22B C 1.6922(5) 0.7945(11) -0.1870(3)
H19B H 1.6391 0.7622 -0.1962
C23B C 1.8447(5) 0.8654(13) -0.1632(4)
H20B H 1.8992 0.8928 -0.1568
C24B C 1.7550(6) 0.6789(11) -0.1881(4)
H21B H 1.7420 0.5714 -0.1994
O2B O 1.2129(4) 1.6449(7) 0.0105(2)
C25B C 1.2544(6) 1.7721(13) 0.0096(4)
H22B H 1.2347 1.8609 0.0310
O3B O 1.3202(4) 1.7970(7) -0.0166(2)
O4A O 0.7547(3) 0.1533(5) 0.2483(2)
O4C O 1.2453(3) 1.8467(5) -0.2483(2)
C26A C 0.7722(4) 0.2499(10) 0.2905(4)
H23A H 0.7537 0.3578 0.2858
O5A O 0.8099(3) 0.2226(6) 0.3368(2)
O5B O 1.3099(3) 1.2774(6) -0.1632(2)
O6B O 1.3218(4) 1.9627(6) -0.1207(2)
H24B H 1.3389(13) 1.659(2) -0.0802(8)
H25B H 1.326(5) 1.944(8) -0.0824(11)
H26B H 1.310(5) 2.069(3) -0.123(3)
O7 O 0.8735(4) 0.3696(8) -0.1174(3)
H27 H 0.835(3) 0.355(9) -0.090(3)
H28 H 0.915(3) 0.315(9) -0.101(3)
loop_
_geom_bond_atom_site_label_1
_geom_bond_atom_site_label_2
_geom_bond_site_symmetry_1
_geom_bond_site_symmetry_2
Cu1 N2 1_555 1_555
Cu2 N1 1_555 1_555
Cu3 N3 1_555 1_555
C1 H1 1_555 1_555
C2 H2 1_555 1_555
C3 H3 1_555 1_555
C4 C2 1_555 1_555
H4 C4 1_555 1_555
C5 C1 1_555 1_555
H5 C5 1_555 1_555
C6 C4 1_555 1_555
H6 C6 1_555 1_555
N1 C6 1_555 1_555
N2 C1 1_555 1_555
N3 C3 1_555 1_555
N4 Cu3 1_555 1_555
N5 Cu1 1_555 1_555
N6 Cu2 1_555 1_555
C7 N6 1_555 1_555
H7 C7 1_555 1_555
C8 N5 1_555 1_555
H8 C8 1_555 1_555
C9 C7 1_555 1_555
H9 C9 1_555 1_555
N7 Cu1 1_555 1_555
C10 N7 1_555 1_555
H10 C10 1_555 1_555
C11 H11 1_555 1_555
C12 C10 1_555 1_555
H12 C12 1_555 1_555
C13 N7 1_555 1_555
H13 C13 1_555 1_555
C14 C11 1_555 1_555
O1 Cu1 1_555 1_555
N8 Cu2 1_555 1_555
N9 C23 1_555 1_555
C15 H14 1_555 1_555
C16 C15 1_555 1_555
C17 C16 1_555 1_555
C18 N8 1_555 1_555
H15 C18 1_555 1_555
C19 N8 1_555 1_555
H16 C19 1_555 1_555
C20 C16 1_555 1_555
H17 C20 1_555 1_555
C21 C17 1_555 1_555
H18 C21 1_555 1_555
C22 C17 1_555 1_555
H19 C22 1_555 1_555
C23 C21 1_555 1_555
H20 C23 1_555 1_555
C24 N9 1_555 1_555
H21 C24 1_555 1_555
O2 Cu1 1_555 1_555
C25 O2 1_555 1_555
H22 C25 1_555 1_555
O3 C25 1_555 1_555
O4 C26 1_555 1_555
C26 H23 1_555 1_555
O5 Cu2 1_555 1_555
O6 Cu3 1_555 1_555
O7 H27 1_555 1_555
H24 O1 1_555 1_555
H25 O6 1_555 1_555
H26 O6 1_555 1_555
H28 O7 1_555 1_555
Cu1B N2B 1_555 1_555
Cu2B N1B 1_555 1_555
Cu2A O5A 1_555 1_555
Cu3B N3B 1_555 1_555
Cu3A O4 1_555 1_555
C1B H1B 1_555 1_555
C2B H2B 1_555 1_555
C3B H3B 1_555 1_555
C4B C2B 1_555 1_555
H4B C4B 1_555 1_555
C5B C1B 1_555 1_555
H5B C5B 1_555 1_555
C6B C4B 1_555 1_555
H6B C6B 1_555 1_555
N1B C6B 1_555 1_555
N2B C1B 1_555 1_555
N3B C3B 1_555 1_555
N4B Cu3B 1_555 1_555
N5B Cu1B 1_555 1_555
N6B Cu2B 1_555 1_555
C7B N6B 1_555 1_555
H7B C7B 1_555 1_555
C8B N5B 1_555 1_555
H8B C8B 1_555 1_555
C9B C7B 1_555 1_555
H9B C9B 1_555 1_555
N7B Cu1B 1_555 1_555
C10B N7B 1_555 1_555
H10B C10B 1_555 1_555
C11B H11B 1_555 1_555
C12B C10B 1_555 1_555
H12B C12B 1_555 1_555
C13B N7B 1_555 1_555
H13B C13B 1_555 1_555
C14B C14 1_555 1_555
O1B Cu1B 1_555 1_555
N8B Cu2B 1_555 1_555
N9B C23B 1_555 1_555
C15B H14B 1_555 1_555
C16B C15B 1_555 1_555
C17B C16B 1_555 1_555
C18B N8B 1_555 1_555
H15B C18B 1_555 1_555
C19B N8B 1_555 1_555
H16B C19B 1_555 1_555
C20B C16B 1_555 1_555
H17B C20B 1_555 1_555
C21B C17B 1_555 1_555
H18B C21B 1_555 1_555
C22B C17B 1_555 1_555
H19B C22B 1_555 1_555
C23B C21B 1_555 1_555
H20B C23B 1_555 1_555
C24B N9B 1_555 1_555
H21B C24B 1_555 1_555
O2B Cu1B 1_555 1_555
C25B O2B 1_555 1_555
H22B C25B 1_555 1_555
O3B C25B 1_555 1_555
O4A Cu3 1_555 1_555
O4C Cu3B 1_555 1_555
C26A O4A 1_555 1_555
H23A C26A 1_555 1_555
O5A C26A 1_555 1_555
O5B Cu2B 1_555 1_555
O6B Cu3B 1_555 1_555
H24B O1B 1_555 1_555
H25B O6B 1_555 1_555
H26B O6B 1_555 1_555
Cu2 O1 1_555 1_555
Cu3 O1 1_555 1_555
C2 N4 1_555 1_555
C3 C5 1_555 1_555
N1 N4 1_555 1_555
N2 N3 1_555 1_555
N5 N6 1_555 1_555
C8 C9 1_555 1_555
C11 C13 1_555 1_555
C12 C14 1_555 1_555
C15 C19 1_555 1_555
C18 C20 1_555 1_555
C22 C24 1_555 1_555
C26 O5 1_555 1_555
Cu2B O1B 1_555 1_555
Cu3B O1B 1_555 1_555
C2B N4B 1_555 1_555
C3B C5B 1_555 1_555
N1B N4B 1_555 1_555
N2B N3B 1_555 1_555
N5B N6B 1_555 1_555
C8B C9B 1_555 1_555
C11B C13B 1_555 1_555
C11B C14B 1_555 1_555
C12B C14B 1_555 1_555
C15B C19B 1_555 1_555
C18B C20B 1_555 1_555
C22B C24B 1_555 1_555

#END
