
#######################################################################
#
#                 Cambridge Crystallographic Data Centre
#                                CCDC 
#
#######################################################################
#
# If this CIF has been generated from an entry in the Cambridge 
# Structural Database, then it will include bibliographic, chemical, 
# crystal, experimental, refinement or atomic coordinate data resulting 
# from the CCDC's data processing and validation procedures.
#
#######################################################################

data_KEBFUU
_symmetry_cell_setting           monoclinic
_symmetry_space_group_name_H-M   'P 21/c'
_symmetry_Int_Tables_number      14
_space_group_name_Hall           '-P 2ybc'
loop_
_symmetry_equiv_pos_site_id
_symmetry_equiv_pos_as_xyz
1 x,y,z
2 -x,1/2+y,1/2-z
3 -x,-y,-z
4 x,1/2-y,1/2+z
_cell_length_a                   7.8624(2)
_cell_length_b                   19.4751(4)
_cell_length_c                   17.7244(4)
_cell_angle_alpha                90
_cell_angle_beta                 100.0470(10)
_cell_angle_gamma                90
_cell_volume                     2672.36
loop_
_atom_site_label
_atom_site_type_symbol
_atom_site_fract_x
_atom_site_fract_y
_atom_site_fract_z
Nd1 Nd 0.24534(2) 0.531664(9) 0.485293(11)
Ag1 Ag 0.19477(6) -0.00572(2) 0.47275(2)
O1 O 0.2684(3) 0.40710(13) 0.45082(17)
O2 O 0.0171(3) 0.43062(12) 0.48091(15)
O3 O 0.2631(3) 0.48034(14) 0.61728(15)
O4 O 0.5044(3) 0.47094(13) 0.57292(15)
O5 O 0.0742(5) 0.5183(3) 0.3537(2)
O6 O 0.2127(7) 0.6447(2) 0.4228(3)
O7 O 0.4031(5) 0.61778(17) 0.5763(3)
N1 N 0.1036(5) 0.08132(18) 0.4054(2)
N2 N 0.6773(5) 0.41681(19) 0.9534(2)
C1 C -0.0018(6) 0.0751(2) 0.3370(3)
H1 H -0.0439 0.0319 0.3212
C2 C -0.0487(6) 0.1304(2) 0.2903(3)
H2 H -0.1210 0.1247 0.2432
C3 C 0.0122(6) 0.1941(2) 0.3137(3)
H3 H -0.0188 0.2321 0.2825
C4 C 0.1200(5) 0.2020(2) 0.3837(3)
C5 C 0.1618(6) 0.1447(2) 0.4270(3)
H4 H 0.2345 0.1495 0.4741
C6 C 0.1929(5) 0.2712(2) 0.4107(3)
H5 H 0.2432 0.2926 0.3703
H6 H 0.2838 0.2651 0.4548
C7 C 0.0545(5) 0.31781(19) 0.4321(2)
H7 H -0.0389 0.3217 0.3887
H8 H 0.0079 0.2970 0.4739
C8 C 0.1188(4) 0.38821(18) 0.4558(2)
C9 C 0.7052(6) 0.3500(2) 0.9657(3)
H9 H 0.7740 0.3361 1.0113
C10 C 0.6362(6) 0.3011(2) 0.9137(3)
H10 H 0.6583 0.2547 0.9238
C11 C 0.5332(6) 0.3216(2) 0.8461(3)
H11 H 0.4864 0.2890 0.8100
C12 C 0.5000(5) 0.3901(2) 0.8323(2)
C13 C 0.5749(6) 0.4360(2) 0.8879(2)
H12 H 0.5532 0.4825 0.8796
C14 C 0.3938(5) 0.4171(2) 0.7592(2)
H13 H 0.3403 0.4602 0.7694
H14 H 0.3027 0.3847 0.7402
C15 C 0.5062(5) 0.4281(2) 0.6992(2)
H15 H 0.6035 0.4567 0.7209
H16 H 0.5516 0.3841 0.6867
C16 C 0.4159(4) 0.46094(18) 0.6266(2)
H17 H -0.021(13) 0.540(5) 0.343(5)
H18 H 0.072(10) 0.487(4) 0.342(4)
H19 H 0.129(7) 0.665(3) 0.411(3)
H20 H 0.281(7) 0.668(3) 0.418(3)
H21 H 0.499(7) 0.618(3) 0.578(3)
H22 H 0.385(7) 0.618(3) 0.616(3)
Nd1B Nd -0.24534(2) 0.468336(9) 0.514707(11)
Nd1B_2 Nd 0.75466(2) 0.468336(9) 0.514707(11)
Ag1A Ag 0.80523(6) 0.49428(2) 1.02725(2)
O2B O -0.0171(3) 0.56938(12) 0.51909(15)
O4B O 0.4956(3) 0.52906(13) 0.42708(15)
N2A N 0.3227(5) -0.08319(19) 0.5466(2)
O8 O -0.1543(9) 0.6868(3) 0.3765(3)
O9 O 0.0008(8) 0.7721(4) 0.3801(4)
O10 O -0.2585(9) 0.7783(4) 0.3302(8)
N3 N -0.1377(8) 0.7461(3) 0.3654(4)
O11 O 0.3986(16) 0.6082(4) 0.8392(5)
O12 O 0.3100(16) 0.6449(6) 0.7269(6)
O13 O 0.5284(14) 0.5887(4) 0.7504(5)
N4 N 0.4086(16) 0.6144(5) 0.7728(7)
O14 O 0.4351(10) 0.7417(3) 0.3889(5)
O15 O 0.0806(15) 0.4066(4) 0.2660(4)
O16 O -0.1601(15) -0.0819(4) 0.3949(5)
O17 O 0.092(4) -0.1044(8) 0.3613(9)
loop_
_geom_bond_atom_site_label_1
_geom_bond_atom_site_label_2
_geom_bond_site_symmetry_1
_geom_bond_site_symmetry_2
Nd1 O1 1_555 1_555
Ag1 N1 1_555 1_555
O1 C8 1_555 1_555
O2 Nd1 1_555 1_555
O3 Nd1 1_555 1_555
O4 Nd1 1_555 1_555
O5 Nd1 1_555 1_555
O6 Nd1 1_555 1_555
O7 Nd1 1_555 1_555
O8 N3 1_555 1_555
O9 N3 1_555 1_555
O10 N3 1_555 1_555
O11 N4 1_555 1_555
O12 N4 1_555 1_555
O13 N4 1_555 1_555
N1 C1 1_555 1_555
N2 C9 1_555 1_555
C1 H1 1_555 1_555
C2 C1 1_555 1_555
H2 C2 1_555 1_555
C3 C2 1_555 1_555
H3 C3 1_555 1_555
C4 C3 1_555 1_555
C5 N1 1_555 1_555
H4 C5 1_555 1_555
C6 C4 1_555 1_555
H5 C6 1_555 1_555
H6 C6 1_555 1_555
C7 C6 1_555 1_555
H7 C7 1_555 1_555
H8 C7 1_555 1_555
C8 O2 1_555 1_555
C9 H9 1_555 1_555
C10 C9 1_555 1_555
H10 C10 1_555 1_555
C11 C10 1_555 1_555
H11 C11 1_555 1_555
C12 C11 1_555 1_555
C13 N2 1_555 1_555
H12 C13 1_555 1_555
C14 C12 1_555 1_555
H13 C14 1_555 1_555
H14 C14 1_555 1_555
C15 C14 1_555 1_555
H15 C15 1_555 1_555
H16 C15 1_555 1_555
C16 O3 1_555 1_555
H17 O5 1_555 1_555
H18 O5 1_555 1_555
H19 O6 1_555 1_555
H20 O6 1_555 1_555
H21 O7 1_555 1_555
H22 O7 1_555 1_555
Nd1B O2 1_555 1_555
Nd1B_2 O4 1_555 1_555
Ag1A N2 1_555 1_555
O2B Nd1 1_555 1_555
O4B Nd1 1_555 1_555
N2A Ag1 1_555 1_555
O4 C16 1_555 1_555
C4 C5 1_555 1_555
C7 C8 1_555 1_555
C12 C13 1_555 1_555
C15 C16 1_555 1_555
Nd1B O2B 1_555 1_555
Nd1B_2 O4B 1_555 1_555

#END
