
#######################################################################
#
#                 Cambridge Crystallographic Data Centre
#                                CCDC 
#
#######################################################################
#
# If this CIF has been generated from an entry in the Cambridge 
# Structural Database, then it will include bibliographic, chemical, 
# crystal, experimental, refinement or atomic coordinate data resulting 
# from the CCDC's data processing and validation procedures.
#
#######################################################################

data_KEBFAA
_symmetry_cell_setting           monoclinic
_symmetry_space_group_name_H-M   'P 21/c'
_symmetry_Int_Tables_number      14
_space_group_name_Hall           '-P 2ybc'
loop_
_symmetry_equiv_pos_site_id
_symmetry_equiv_pos_as_xyz
1 x,y,z
2 -x,1/2+y,1/2-z
3 -x,-y,-z
4 x,1/2-y,1/2+z
_cell_length_a                   7.8102(2)
_cell_length_b                   19.4048(5)
_cell_length_c                   17.9157(5)
_cell_angle_alpha                90
_cell_angle_beta                 100.2250(10)
_cell_angle_gamma                90
_cell_volume                     2672.1
loop_
_atom_site_label
_atom_site_type_symbol
_atom_site_fract_x
_atom_site_fract_y
_atom_site_fract_z
Eu1 Eu 0.245263(13) 0.530889(6) 0.485238(7)
Ag1 Ag 0.19847(4) -0.005868(15) 0.475924(17)
O1 O 0.0133(2) 0.43057(8) 0.48207(10)
O2 O 0.2658(2) 0.40786(9) 0.45302(11)
O3 O 0.2642(2) 0.48149(10) 0.61413(11)
O4 O 0.5072(2) 0.47154(9) 0.57152(11)
O5 O 0.0747(3) 0.51817(16) 0.35770(15)
O6 O 0.2146(4) 0.64189(14) 0.42350(18)
O7 O 0.4027(3) 0.61689(11) 0.57123(19)
N1 N 0.1069(3) 0.08048(12) 0.40699(16)
N2 N 0.6724(4) 0.41711(13) 0.94939(15)
C1 C 0.0041(4) 0.07352(15) 0.33873(19)
H1 H -0.0364 0.0299 0.3229
C2 C -0.0428(4) 0.12841(16) 0.29189(18)
H2 H -0.1132 0.1220 0.2448
C3 C 0.0152(4) 0.19350(15) 0.31491(18)
H3 H -0.0168 0.2313 0.2837
C4 C 0.1213(3) 0.20203(14) 0.38477(18)
C5 C 0.1628(4) 0.14438(15) 0.42877(18)
H4 H 0.2331 0.1497 0.4761
C6 C 0.1919(4) 0.27153(14) 0.4122(2)
H5 H 0.2428 0.2935 0.3726
H6 H 0.2833 0.2654 0.4560
C7 C 0.0519(3) 0.31800(13) 0.43339(17)
H7 H -0.0418 0.3221 0.3901
H8 H 0.0046 0.2966 0.4743
C8 C 0.1155(3) 0.38853(12) 0.45773(14)
C9 C 0.7004(4) 0.34953(17) 0.9604(2)
H9 H 0.7705 0.3350 1.0051
C10 C 0.6301(4) 0.30115(16) 0.9087(2)
H10 H 0.6501 0.2545 0.9186
C11 C 0.5289(4) 0.32230(16) 0.84138(18)
H11 H 0.4822 0.2900 0.8050
C12 C 0.4972(3) 0.39189(16) 0.82835(16)
C13 C 0.5723(4) 0.43689(16) 0.88426(18)
H12 H 0.5523 0.4838 0.8763
C14 C 0.3926(3) 0.41943(18) 0.75568(17)
H13 H 0.3400 0.4630 0.7656
H14 H 0.2998 0.3874 0.7366
C15 C 0.5071(3) 0.42976(16) 0.69637(16)
H15 H 0.6054 0.4583 0.7181
H16 H 0.5525 0.3853 0.6847
C16 C 0.4191(3) 0.46216(12) 0.62415(15)
H17 H 0.098(7) 0.492(3) 0.340(3)
H18 H -0.022(7) 0.526(2) 0.360(3)
H19 H 0.118(5) 0.670(2) 0.412(2)
H20 H 0.261(6) 0.665(2) 0.419(3)
H21 H 0.399(5) 0.615(2) 0.609(2)
H22 H 0.511(5) 0.6176(19) 0.568(2)
Eu1B Eu -0.245263(13) 0.469111(6) 0.514762(7)
Eu1B_2 Eu 0.754737(13) 0.469111(6) 0.514762(7)
Ag1A Ag 0.80153(4) 0.494132(15) 1.024076(17)
O1B O -0.0133(2) 0.56943(8) 0.51793(10)
O4B O 0.4928(2) 0.52846(9) 0.42848(11)
N2A N 0.3276(4) -0.08289(13) 0.55061(15)
O8 O -0.2538(6) 0.7775(3) 0.3248(5)
O9 O 0.0056(6) 0.7696(3) 0.3812(3)
O10 O -0.1569(7) 0.6860(2) 0.3770(2)
N3 N -0.1372(5) 0.7449(2) 0.3645(3)
O11 O 0.5201(10) 0.5952(4) 0.7396(4)
O12 O 0.4050(11) 0.6114(3) 0.8325(4)
O13 O 0.2978(12) 0.6502(5) 0.7241(5)
N4 N 0.4046(11) 0.6208(4) 0.7636(5)
O14 O 0.4413(8) 0.7405(2) 0.3960(4)
O15 O 0.1037(10) 0.4104(3) 0.2688(3)
O16 O 0.1699(12) 0.0827(3) 0.6026(3)
O17 O 0.0928(12) 0.6070(4) 0.8628(4)
loop_
_geom_bond_atom_site_label_1
_geom_bond_atom_site_label_2
_geom_bond_site_symmetry_1
_geom_bond_site_symmetry_2
Eu1 O1 1_555 1_555
Ag1 N1 1_555 1_555
O1 C8 1_555 1_555
O2 Eu1 1_555 1_555
O3 Eu1 1_555 1_555
O4 Eu1 1_555 1_555
O5 Eu1 1_555 1_555
O6 Eu1 1_555 1_555
O7 Eu1 1_555 1_555
O8 N3 1_555 1_555
O9 N3 1_555 1_555
O10 N3 1_555 1_555
O11 N4 1_555 1_555
O12 N4 1_555 1_555
O13 N4 1_555 1_555
N1 C1 1_555 1_555
N2 C9 1_555 1_555
C1 H1 1_555 1_555
C2 C1 1_555 1_555
H2 C2 1_555 1_555
C3 C2 1_555 1_555
H3 C3 1_555 1_555
C4 C3 1_555 1_555
C5 N1 1_555 1_555
H4 C5 1_555 1_555
C6 C4 1_555 1_555
H5 C6 1_555 1_555
H6 C6 1_555 1_555
C7 C6 1_555 1_555
H7 C7 1_555 1_555
H8 C7 1_555 1_555
C8 O2 1_555 1_555
C9 H9 1_555 1_555
C10 C9 1_555 1_555
H10 C10 1_555 1_555
C11 C10 1_555 1_555
H11 C11 1_555 1_555
C12 C11 1_555 1_555
C13 N2 1_555 1_555
H12 C13 1_555 1_555
C14 C12 1_555 1_555
H13 C14 1_555 1_555
H14 C14 1_555 1_555
C15 C14 1_555 1_555
H15 C15 1_555 1_555
H16 C15 1_555 1_555
C16 O3 1_555 1_555
H17 O5 1_555 1_555
H18 O5 1_555 1_555
H19 O6 1_555 1_555
H20 O6 1_555 1_555
H21 O7 1_555 1_555
H22 O7 1_555 1_555
Eu1B O1 1_555 1_555
Eu1B_2 O4 1_555 1_555
Ag1A N2 1_555 1_555
O1B Eu1 1_555 1_555
O4B Eu1 1_555 1_555
N2A Ag1 1_555 1_555
O4 C16 1_555 1_555
C4 C5 1_555 1_555
C7 C8 1_555 1_555
C12 C13 1_555 1_555
C15 C16 1_555 1_555
Eu1B O1B 1_555 1_555
Eu1B_2 O4B 1_555 1_555

#END
