
#######################################################################
#
#                 Cambridge Crystallographic Data Centre
#                                CCDC 
#
#######################################################################
#
# If this CIF has been generated from an entry in the Cambridge 
# Structural Database, then it will include bibliographic, chemical, 
# crystal, experimental, refinement or atomic coordinate data resulting 
# from the CCDC's data processing and validation procedures.
#
#######################################################################

data_KEBKAE
_symmetry_cell_setting           orthorhombic
_symmetry_space_group_name_H-M   'P b c a'
_symmetry_Int_Tables_number      61
_space_group_name_Hall           '-P 2ac 2ab'
loop_
_symmetry_equiv_pos_site_id
_symmetry_equiv_pos_as_xyz
1 x,y,z
2 1/2-x,-y,1/2+z
3 -x,1/2+y,1/2-z
4 1/2+x,1/2-y,-z
5 -x,-y,-z
6 1/2+x,y,1/2-z
7 x,1/2-y,1/2+z
8 1/2-x,1/2+y,z
_cell_length_a                   13.6274(9)
_cell_length_b                   10.0360(7)
_cell_length_c                   28.5576(19)
_cell_angle_alpha                90
_cell_angle_beta                 90
_cell_angle_gamma                90
_cell_volume                     3905.67
loop_
_atom_site_label
_atom_site_type_symbol
_atom_site_fract_x
_atom_site_fract_y
_atom_site_fract_z
Co1 Co 0.53086(5) 0.23131(7) 0.28203(2)
Co2 Co 0.38877(5) 0.02044(7) 0.24810(2)
Co3 Co 0.75991(5) 0.27575(7) 0.24519(2)
O1 O 0.4974(2) 0.0471(3) 0.29954(13)
O2 O 0.4795(3) -0.1332(4) 0.34354(15)
O3 O 0.7029(3) 0.1644(4) 0.30309(13)
O4 O 0.7730(3) -0.0355(4) 0.29473(14)
O5 O 0.5045(3) 0.5273(4) 0.30472(14)
O6 O 0.5127(3) 0.3324(4) 0.33990(13)
O7 O 0.2926(3) 0.3963(3) 0.31053(13)
O8 O 0.2184(2) 0.5896(3) 0.29474(12)
O9 O 0.4024(2) 0.2316(3) 0.24188(12)
H1 H 0.4183 0.2548 0.2094
O10 O 0.6161(2) 0.3179(4) 0.23677(12)
H2 H 0.5946 0.3001 0.2046
C1 C 0.5773(4) 0.0424(5) 0.37525(17)
H3 H 0.5713 0.1395 0.3730
C2 C 0.6835(4) 0.0029(6) 0.36442(19)
H4 H 0.6884 -0.0945 0.3660
C3 C 0.7527(5) 0.0621(9) 0.4011(2)
H5 H 0.7518 0.1585 0.3986
H6 H 0.8191 0.0321 0.3950
C4 C 0.7228(6) 0.0211(10) 0.4507(3)
H7 H 0.7310 -0.0743 0.4543
H8 H 0.7655 0.0649 0.4732
C5 C 0.6176(5) 0.0581(9) 0.4608(2)
H9 H 0.6111 0.1543 0.4608
H10 H 0.5995 0.0257 0.4916
C6 C 0.5492(5) -0.0007(7) 0.4247(2)
H11 H 0.4826 0.0277 0.4312
H12 H 0.5513 -0.0971 0.4267
C7 C 0.5120(4) -0.0213(6) 0.33798(19)
C8 C 0.7209(3) 0.0477(5) 0.31689(18)
C9 C 0.4166(4) 0.4986(5) 0.37659(18)
H13 H 0.3863 0.4202 0.3910
C10 C 0.4720(4) 0.5727(7) 0.4146(2)
H14 H 0.5034 0.6507 0.4012
H15 H 0.5229 0.5155 0.4273
C11 C 0.4036(5) 0.6159(9) 0.4540(2)
H16 H 0.4401 0.6683 0.4766
H17 H 0.3784 0.5376 0.4699
C12 C 0.3177(5) 0.6986(8) 0.4353(2)
H18 H 0.2728 0.7179 0.4607
H19 H 0.3424 0.7827 0.4234
C13 C 0.2629(4) 0.6273(7) 0.3968(2)
H20 H 0.2123 0.6854 0.3843
H21 H 0.2312 0.5486 0.4094
C14 C 0.3336(4) 0.5863(5) 0.35705(17)
H22 H 0.3633 0.6676 0.3444
C15 C 0.4826(3) 0.4498(5) 0.33722(18)
C16 C 0.2783(3) 0.5185(5) 0.31783(18)
Co2E Co 0.88877(5) 0.02044(7) 0.25190(2)
Co2B Co 0.61123(5) 0.52044(7) 0.25190(2)
Co2G Co 0.11123(5) 0.52044(7) 0.24810(2)
Co3G Co 0.74009(5) -0.22425(7) 0.24519(2)
Co3E Co 0.25991(5) 0.27575(7) 0.25481(2)
Co3B Co 0.24009(5) 0.77575(7) 0.25481(2)
O4E O 0.2730(3) -0.0355(4) 0.20527(14)
O4G O 0.7270(3) 0.4645(4) 0.29473(14)
O5B O 0.4955(3) 0.0273(4) 0.19528(14)
O7E O 0.7926(3) 0.3963(3) 0.18947(13)
O8G O 0.2816(2) 0.0896(3) 0.29474(12)
O8B O 0.7816(2) 0.0896(3) 0.20526(12)
O9E O 0.9024(2) 0.2316(3) 0.25812(12)
H1E H 0.9183 0.2548 0.2906
O10B O 0.3839(2) -0.1821(4) 0.26323(12)
H2B H 0.4054 -0.1999 0.2954
loop_
_geom_bond_atom_site_label_1
_geom_bond_atom_site_label_2
_geom_bond_site_symmetry_1
_geom_bond_site_symmetry_2
Co1 O1 1_555 1_555
Co2 O1 1_555 1_555
Co3 O3 1_555 1_555
O1 C7 1_555 1_555
O2 C7 1_555 1_555
O3 C8 1_555 1_555
O4 C8 1_555 1_555
O5 C15 1_555 1_555
O6 Co1 1_555 1_555
O7 C16 1_555 1_555
O8 C16 1_555 1_555
O9 Co1 1_555 1_555
H1 O9 1_555 1_555
O10 Co1 1_555 1_555
H2 O10 1_555 1_555
C1 H3 1_555 1_555
C2 C1 1_555 1_555
H4 C2 1_555 1_555
C3 C2 1_555 1_555
H5 C3 1_555 1_555
H6 C3 1_555 1_555
C4 C3 1_555 1_555
H7 C4 1_555 1_555
H8 C4 1_555 1_555
C5 C4 1_555 1_555
H9 C5 1_555 1_555
H10 C5 1_555 1_555
C6 C1 1_555 1_555
H11 C6 1_555 1_555
H12 C6 1_555 1_555
C7 C1 1_555 1_555
C8 C2 1_555 1_555
C9 H13 1_555 1_555
C10 C9 1_555 1_555
H14 C10 1_555 1_555
H15 C10 1_555 1_555
C11 C10 1_555 1_555
H16 C11 1_555 1_555
H17 C11 1_555 1_555
C12 C11 1_555 1_555
H18 C12 1_555 1_555
H19 C12 1_555 1_555
C13 C12 1_555 1_555
H20 C13 1_555 1_555
H21 C13 1_555 1_555
C14 C9 1_555 1_555
H22 C14 1_555 1_555
C15 O6 1_555 1_555
C16 C14 1_555 1_555
Co2E O4 1_555 1_555
Co2B O5 1_555 1_555
Co2G O8 1_555 1_555
Co3G O4 1_555 1_555
Co3E O7 1_555 1_555
Co3B O8 1_555 1_555
O4E Co2 1_555 1_555
O4G Co3 1_555 1_555
O5B Co2 1_555 1_555
O7E Co3 1_555 1_555
O8G Co2 1_555 1_555
O8B Co3 1_555 1_555
O9E Co3 1_555 1_555
H1E O9E 1_555 1_555
O10B Co2 1_555 1_555
H2B O10B 1_555 1_555
Co2 O9 1_555 1_555
Co3 O10 1_555 1_555
O9 Co3E 1_555 1_555
O10 Co2B 1_555 1_555
C5 C6 1_555 1_555
C9 C15 1_555 1_555
C13 C14 1_555 1_555
Co2E O8B 1_555 1_555
Co2E O9E 1_555 1_555
Co2B O4G 1_555 1_555
Co3E O8G 1_555 1_555

#END
