
#######################################################################
#
#                 Cambridge Crystallographic Data Centre
#                                CCDC 
#
#######################################################################
#
# If this CIF has been generated from an entry in the Cambridge 
# Structural Database, then it will include bibliographic, chemical, 
# crystal, experimental, refinement or atomic coordinate data resulting 
# from the CCDC's data processing and validation procedures.
#
#######################################################################

data_KEBKEJ
_symmetry_cell_setting           monoclinic
_symmetry_space_group_name_H-M   'P 21/n'
_symmetry_Int_Tables_number      14
_space_group_name_Hall           '-P 2yn'
loop_
_symmetry_equiv_pos_site_id
_symmetry_equiv_pos_as_xyz
1 x,y,z
2 1/2-x,1/2+y,1/2-z
3 -x,-y,-z
4 1/2+x,1/2-y,1/2+z
_cell_length_a                   10.220(2)
_cell_length_b                   23.211(3)
_cell_length_c                   17.646(5)
_cell_angle_alpha                90
_cell_angle_beta                 90.688(5)
_cell_angle_gamma                90
_cell_volume                     4185.62
loop_
_atom_site_label
_atom_site_type_symbol
_atom_site_fract_x
_atom_site_fract_y
_atom_site_fract_z
Co1 Co 0.48611(6) 0.37425(3) 0.25333(3)
Co2 Co 0.67656(6) 0.25942(3) 0.24201(3)
Co3 Co 0.02232(6) 0.34952(3) -0.15086(3)
O1 O 0.4676(3) 0.37210(15) 0.14074(18)
O2 O 0.6447(3) 0.31692(14) 0.15138(17)
O3 O 0.1457(3) 0.33217(14) -0.05637(17)
O4 O 0.2040(3) 0.29950(13) -0.16770(16)
O5 O 0.6659(3) 0.22476(14) -0.11281(17)
O6 O 0.9214(3) 0.27512(14) -0.12563(18)
O7 O 1.0064(3) 0.20567(14) -0.19904(17)
O8 O 0.3553(3) 0.43557(14) 0.28585(17)
O9 O 0.2668(3) 0.35482(14) 0.24726(18)
O10 O -0.2172(3) 0.32454(13) 0.29060(17)
O11 O -0.3409(3) 0.40473(13) 0.28853(17)
O12 O -0.0339(3) 0.55892(14) 0.36647(18)
O13 O -0.0633(3) 0.70530(15) 0.32176(18)
O14 O 0.0575(3) 0.64404(15) 0.25487(18)
N1 N -0.1208(4) 0.40785(17) -0.1103(2)
N2 N 0.1255(4) 0.42893(17) -0.1542(2)
C1 C 0.5457(4) 0.3349(2) 0.1149(3)
C2 C 0.5156(4) 0.31080(19) 0.0379(2)
C3 C 0.3943(4) 0.3208(2) 0.0051(2)
H1 H 0.3335 0.3433 0.0304
C4 C 0.3621(4) 0.2975(2) -0.0654(2)
C5 C 0.2297(4) 0.30910(19) -0.0980(2)
C6 C 0.4541(4) 0.26436(19) -0.1040(3)
H2 H 0.4347 0.2489 -0.1515
C7 C 0.5753(4) 0.2551(2) -0.0697(3)
C8 C 0.6070(4) 0.2770(2) 0.0007(3)
H3 H 0.6881 0.2693 0.0229
C9 C 0.7403(4) 0.1831(2) -0.0760(3)
C10 C 0.6847(5) 0.1446(2) -0.0263(3)
H4 H 0.5968 0.1477 -0.0138
C11 C 0.7624(5) 0.1010(2) 0.0051(3)
H5 H 0.7270 0.0760 0.0405
C12 C 0.8905(5) 0.0947(2) -0.0159(3)
H6 H 0.9409 0.0647 0.0038
C13 C 0.9442(5) 0.1336(2) -0.0670(3)
H7 H 1.0305 0.1290 -0.0820
C14 C 0.8718(4) 0.1790(2) -0.0956(2)
C15 C 0.9364(4) 0.2231(2) -0.1442(3)
C16 C 0.2533(4) 0.4046(2) 0.2733(3)
C17 C 0.1213(4) 0.42758(19) 0.2925(2)
C18 C 0.0113(4) 0.3925(2) 0.2853(3)
H8 H 0.0200 0.3547 0.2687
C19 C -0.1126(4) 0.41428(19) 0.3031(2)
C20 C -0.2320(4) 0.3780(2) 0.2933(2)
C21 C -0.1233(4) 0.47071(19) 0.3288(2)
H9 H -0.2052 0.4860 0.3394
C22 C -0.0125(4) 0.50399(19) 0.3387(2)
C23 C 0.1101(4) 0.4837(2) 0.3187(2)
H10 H 0.1833 0.5073 0.3227
C24 C 0.0663(4) 0.5872(2) 0.4062(2)
C25 C 0.1326(5) 0.5624(2) 0.4664(3)
H11 H 0.1196 0.5239 0.4785
C26 C 0.2194(5) 0.5961(2) 0.5085(3)
H12 H 0.2657 0.5801 0.5489
C27 C 0.2367(5) 0.6540(2) 0.4901(3)
H13 H 0.2946 0.6765 0.5183
C28 C 0.1678(5) 0.6780(2) 0.4297(3)
H14 H 0.1776 0.7169 0.4183
C29 C 0.0846(4) 0.64411(19) 0.3864(3)
C30 C 0.0195(4) 0.6665(2) 0.3152(3)
C31 C -0.2428(5) 0.3974(2) -0.0923(3)
H15 H -0.2733 0.3597 -0.0947
C32 C -0.3288(6) 0.4408(3) -0.0696(3)
H16 H -0.4148 0.4318 -0.0577
C33 C -0.2863(6) 0.4960(3) -0.0651(3)
H17 H -0.3436 0.5252 -0.0513
C34 C -0.1559(6) 0.5088(2) -0.0813(3)
C35 C -0.0989(7) 0.5650(2) -0.0745(3)
H18 H -0.1507 0.5956 -0.0586
C36 C 0.0286(7) 0.5747(2) -0.0907(3)
H19 H 0.0636 0.6113 -0.0839
C37 C 0.1107(6) 0.5287(2) -0.1182(3)
C38 C 0.2413(6) 0.5369(3) -0.1368(3)
H20 H 0.2805 0.5729 -0.1310
C39 C 0.3112(5) 0.4910(2) -0.1638(3)
H21 H 0.3988 0.4953 -0.1761
C40 C 0.2499(5) 0.4378(2) -0.1727(3)
H22 H 0.2976 0.4073 -0.1923
C41 C 0.0560(5) 0.4737(2) -0.1263(3)
C42 C -0.0768(5) 0.4630(2) -0.1063(3)
O15 O 0.8404(4) 0.22990(17) 0.18967(19)
H23 H 0.863(9) 0.1948(13) 0.184(4)
H24 H 0.858(5) 0.244(2) 0.1467(17)
Co1C Co 0.98611(6) 0.12575(3) -0.24667(3)
Co1_2 Co -0.51389(6) 0.37425(3) 0.25333(3)
Co2C Co 0.17656(6) 0.24058(3) -0.25799(3)
Co2C_2 Co 1.17656(6) 0.24058(3) -0.25799(3)
Co2_2 Co -0.32344(6) 0.25942(3) 0.24201(3)
Co2A Co -0.17656(6) 0.75942(3) 0.25799(3)
Co3_2 Co 1.02232(6) 0.34952(3) -0.15086(3)
Co3B Co -0.02232(6) 0.65048(3) 0.15086(3)
O4C O 0.7040(3) 0.20050(13) 0.33230(16)
O6_2 O -0.0786(3) 0.27512(14) -0.12563(18)
O7C O 0.5064(3) 0.29433(14) 0.30096(17)
O10_2 O 0.7828(3) 0.32454(13) 0.29060(17)
O11_2 O 0.6591(3) 0.40473(13) 0.28853(17)
O13A O 0.5633(3) 0.20530(15) 0.17824(18)
O14B O -0.0575(3) 0.35596(15) -0.25487(18)
O16 O -0.0619(4) 0.27842(19) 0.0552(2)
O17 O 0.9642(5) 0.1289(2) 0.2232(3)
O18 O 0.3433(5) -0.2170(2) 0.3608(3)
O19 O 1.1877(4) 0.1943(2) 0.2561(2)
O20 O 1.0205(13) 0.0271(4) 0.1461(5)
loop_
_geom_bond_atom_site_label_1
_geom_bond_atom_site_label_2
_geom_bond_site_symmetry_1
_geom_bond_site_symmetry_2
Co1 O1 1_555 1_555
Co2 O2 1_555 1_555
Co3 O3 1_555 1_555
O1 C1 1_555 1_555
O2 C1 1_555 1_555
O3 C5 1_555 1_555
O4 Co3 1_555 1_555
O5 C7 1_555 1_555
O6 C15 1_555 1_555
O7 C15 1_555 1_555
O8 Co1 1_555 1_555
O9 Co1 1_555 1_555
O10 C20 1_555 1_555
O11 C20 1_555 1_555
O12 C22 1_555 1_555
O13 C30 1_555 1_555
O14 C30 1_555 1_555
N1 Co3 1_555 1_555
N2 Co3 1_555 1_555
C1 C2 1_555 1_555
C2 C3 1_555 1_555
C3 H1 1_555 1_555
C4 C3 1_555 1_555
C5 O4 1_555 1_555
C6 C4 1_555 1_555
H2 C6 1_555 1_555
C7 C6 1_555 1_555
C8 C2 1_555 1_555
H3 C8 1_555 1_555
C9 O5 1_555 1_555
C10 C9 1_555 1_555
H4 C10 1_555 1_555
C11 C10 1_555 1_555
H5 C11 1_555 1_555
C12 C11 1_555 1_555
H6 C12 1_555 1_555
C13 C12 1_555 1_555
H7 C13 1_555 1_555
C14 C9 1_555 1_555
C15 C14 1_555 1_555
C16 O8 1_555 1_555
C17 C16 1_555 1_555
C18 C17 1_555 1_555
H8 C18 1_555 1_555
C19 C18 1_555 1_555
C20 C19 1_555 1_555
C21 C19 1_555 1_555
H9 C21 1_555 1_555
C22 C21 1_555 1_555
C23 C17 1_555 1_555
H10 C23 1_555 1_555
C24 O12 1_555 1_555
C25 C24 1_555 1_555
H11 C25 1_555 1_555
C26 C25 1_555 1_555
H12 C26 1_555 1_555
C27 C26 1_555 1_555
H13 C27 1_555 1_555
C28 C27 1_555 1_555
H14 C28 1_555 1_555
C29 C24 1_555 1_555
C30 C29 1_555 1_555
C31 N1 1_555 1_555
H15 C31 1_555 1_555
C32 C31 1_555 1_555
H16 C32 1_555 1_555
C33 C32 1_555 1_555
H17 C33 1_555 1_555
C34 C33 1_555 1_555
C35 C34 1_555 1_555
H18 C35 1_555 1_555
C36 C35 1_555 1_555
H19 C36 1_555 1_555
C37 C36 1_555 1_555
C38 C37 1_555 1_555
H20 C38 1_555 1_555
C39 C38 1_555 1_555
H21 C39 1_555 1_555
C40 N2 1_555 1_555
H22 C40 1_555 1_555
C41 N2 1_555 1_555
C42 N1 1_555 1_555
O15 Co2 1_555 1_555
H23 O15 1_555 1_555
H24 O15 1_555 1_555
Co1C O7 1_555 1_555
Co1_2 O11 1_555 1_555
Co2C O4 1_555 1_555
Co2C_2 O7 1_555 1_555
Co2_2 O10 1_555 1_555
Co2A O13 1_555 1_555
Co3_2 O6 1_555 1_555
Co3B O14 1_555 1_555
O4C Co2 1_555 1_555
O6_2 Co3 1_555 1_555
O7C Co1 1_555 1_555
O10_2 Co2 1_555 1_555
O11_2 Co1 1_555 1_555
O13A Co2 1_555 1_555
O14B Co3 1_555 1_555
Co2 O7C 1_555 1_555
O9 C16 1_555 1_555
C4 C5 1_555 1_555
C7 C8 1_555 1_555
C13 C14 1_555 1_555
C22 C23 1_555 1_555
C28 C29 1_555 1_555
C34 C42 1_555 1_555
C37 C41 1_555 1_555
C39 C40 1_555 1_555
C41 C42 1_555 1_555

#END
