
#######################################################################
#
#                 Cambridge Crystallographic Data Centre
#                                CCDC 
#
#######################################################################
#
# If this CIF has been generated from an entry in the Cambridge 
# Structural Database, then it will include bibliographic, chemical, 
# crystal, experimental, refinement or atomic coordinate data resulting 
# from the CCDC's data processing and validation procedures.
#
#######################################################################

data_KEBNOW
_symmetry_cell_setting           monoclinic
_symmetry_space_group_name_H-M   'C 2/c'
_symmetry_Int_Tables_number      15
_space_group_name_Hall           '-C 2yn'
loop_
_symmetry_equiv_pos_site_id
_symmetry_equiv_pos_as_xyz
1 x,y,z
2 -x,y,1/2-z
3 1/2+x,1/2+y,z
4 1/2-x,1/2+y,1/2-z
5 -x,-y,-z
6 x,-y,1/2+z
7 1/2-x,1/2-y,-z
8 1/2+x,1/2-y,1/2+z
_cell_length_a                   15.428(5)
_cell_length_b                   11.777(5)
_cell_length_c                   23.719(5)
_cell_angle_alpha                90
_cell_angle_beta                 99.161(5)
_cell_angle_gamma                90
_cell_volume                     4254.67
loop_
_atom_site_label
_atom_site_type_symbol
_atom_site_fract_x
_atom_site_fract_y
_atom_site_fract_z
Sn1 Sn 0.216012(13) 0.367534(16) 0.639294(9)
O1 O 0.13197(13) 0.29590(17) 0.69568(9)
O2 O 0.14813(14) 0.13286(16) 0.65007(10)
N1 N 0.0000 0.1936(4) 0.7500
N2 N 0.31955(16) 0.4545(2) 0.57424(11)
C1 C 0.11707(19) 0.1887(3) 0.68595(13)
C2 C 0.0565(2) 0.1326(2) 0.72085(13)
C3 C 0.0542(2) 0.0145(3) 0.72296(14)
H1 H 0.0931 -0.0254 0.7042
C4 C 0.0000 -0.0452(3) 0.7500
H2 H 0.0000 -0.1242 0.7500
C5 C 0.3968(2) 0.4930(3) 0.60053(14)
H3 H 0.4027 0.5079 0.6395
C6 C 0.4686(2) 0.5120(3) 0.57383(13)
H4 H 0.5211 0.5384 0.5945
C7 C 0.46165(19) 0.4913(2) 0.51531(13)
C8 C 0.3811(2) 0.4536(3) 0.48746(14)
H5 H 0.3729 0.4401 0.4483
C9 C 0.3128(2) 0.4363(3) 0.51793(14)
H6 H 0.2595 0.4106 0.4983
C10 C 0.1240(2) 0.3531(3) 0.56082(14)
H7 H 0.1265 0.4221 0.5388
H8 H 0.1422 0.2908 0.5386
C11 C 0.02895(19) 0.3330(3) 0.56922(14)
H9 H 0.0258 0.2615 0.5891
H10 H 0.0119 0.3928 0.5934
C12 C -0.0363(2) 0.3301(3) 0.51387(14)
H11 H -0.0217 0.2677 0.4904
H12 H -0.0319 0.4001 0.4930
C13 C -0.1304(2) 0.3157(3) 0.52503(16)
H13 H -0.1349 0.2467 0.5459
H14 H -0.1695 0.3123 0.4893
H15 H -0.1459 0.3790 0.5469
C14 C 0.2159(2) 0.5303(2) 0.68022(13)
H16 H 0.1729 0.5290 0.7059
H17 H 0.2731 0.5425 0.7032
C15 C 0.1956(2) 0.6297(2) 0.63939(15)
H18 H 0.1371 0.6196 0.6180
H19 H 0.2366 0.6284 0.6123
C16 C 0.2004(2) 0.7461(3) 0.66813(16)
H20 H 0.1579 0.7492 0.6941
H21 H 0.2583 0.7563 0.6904
C17 C 0.1822(3) 0.8424(3) 0.62499(18)
H22 H 0.2151 0.8302 0.5944
H23 H 0.1995 0.9133 0.6434
H24 H 0.1207 0.8445 0.6100
C18 C 0.32651(19) 0.2582(3) 0.66370(13)
H25 H 0.3774 0.3046 0.6774
H26 H 0.3151 0.2109 0.6952
C19 C 0.3484(2) 0.1815(3) 0.61592(14)
H27 H 0.3547 0.2281 0.5831
H28 H 0.2996 0.1300 0.6046
C20 C 0.4322(2) 0.1117(3) 0.63260(17)
H29 H 0.4462 0.0738 0.5988
H30 H 0.4803 0.1628 0.6463
C21 C 0.4253(3) 0.0227(4) 0.67853(18)
H31 H 0.4159 0.0598 0.7131
H32 H 0.4786 -0.0205 0.6856
H33 H 0.3769 -0.0271 0.6657
Sn1A Sn -0.216012(13) 0.367534(16) 0.860706(9)
Sn1D Sn 0.783988(13) 0.632466(16) 0.360706(9)
O1A O -0.13197(13) 0.29590(17) 0.80432(9)
O2A O -0.14813(14) 0.13286(16) 0.84993(10)
N2D N 0.68045(16) 0.5455(2) 0.42576(11)
N2A N -0.31955(16) 0.4545(2) 0.92576(11)
C1A C -0.11707(19) 0.1887(3) 0.81405(13)
C2A C -0.0565(2) 0.1326(2) 0.77915(13)
C3A C -0.0542(2) 0.0145(3) 0.77704(14)
H1A H -0.0931 -0.0254 0.7958
C5D C 0.6032(2) 0.5070(3) 0.39947(14)
H3D H 0.5973 0.4921 0.3605
C6D C 0.5314(2) 0.4880(3) 0.42617(13)
H4D H 0.4789 0.4616 0.4055
C7D C 0.53835(19) 0.5087(2) 0.48469(13)
C8D C 0.6189(2) 0.5464(3) 0.51254(14)
H5D H 0.6271 0.5599 0.5517
C9D C 0.6872(2) 0.5637(3) 0.48207(14)
H6D H 0.7405 0.5894 0.5017
C10A C -0.1240(2) 0.3531(3) 0.93918(14)
H7A H -0.1265 0.4221 0.9612
H8A H -0.1422 0.2908 0.9614
C11A C -0.02895(19) 0.3330(3) 0.93078(14)
H9A H -0.0258 0.2615 0.9109
H10A H -0.0119 0.3928 0.9066
C12A C 0.0363(2) 0.3301(3) 0.98613(14)
H11A H 0.0217 0.2677 1.0096
H12A H 0.0319 0.4001 1.0070
C13A C 0.1304(2) 0.3157(3) 0.97497(16)
H13A H 0.1349 0.2467 0.9541
H14A H 0.1695 0.3123 1.0107
H15A H 0.1459 0.3790 0.9531
C14A C -0.2159(2) 0.5303(2) 0.81978(13)
H16A H -0.1729 0.5290 0.7941
H17A H -0.2731 0.5425 0.7968
C15A C -0.1956(2) 0.6297(2) 0.86061(15)
H18A H -0.1371 0.6196 0.8820
H19A H -0.2366 0.6284 0.8877
C16A C -0.2004(2) 0.7461(3) 0.83187(16)
H20A H -0.1579 0.7492 0.8059
H21A H -0.2583 0.7563 0.8096
C17A C -0.1822(3) 0.8424(3) 0.87501(18)
H22A H -0.2151 0.8302 0.9056
H23A H -0.1995 0.9133 0.8566
H24A H -0.1207 0.8445 0.8900
C18A C -0.32651(19) 0.2582(3) 0.83630(13)
H25A H -0.3774 0.3046 0.8226
H26A H -0.3151 0.2109 0.8048
C19A C -0.3484(2) 0.1815(3) 0.88408(14)
H27A H -0.3547 0.2281 0.9169
H28A H -0.2996 0.1300 0.8954
C20A C -0.4322(2) 0.1117(3) 0.86740(17)
H29A H -0.4462 0.0738 0.9012
H30A H -0.4803 0.1628 0.8537
C21A C -0.4253(3) 0.0227(4) 0.82147(18)
H31A H -0.4159 0.0598 0.7869
H32A H -0.4786 -0.0205 0.8144
H33A H -0.3769 -0.0271 0.8343
loop_
_geom_bond_atom_site_label_1
_geom_bond_atom_site_label_2
_geom_bond_site_symmetry_1
_geom_bond_site_symmetry_2
Sn1 O1 1_555 1_555
O1 C1 1_555 1_555
O2 C1 1_555 1_555
N1 C2 1_555 1_555
N2 Sn1 1_555 1_555
C1 C2 1_555 1_555
C2 C3 1_555 1_555
C3 H1 1_555 1_555
C4 C3 1_555 1_555
H2 C4 1_555 1_555
C5 N2 1_555 1_555
H3 C5 1_555 1_555
C6 C5 1_555 1_555
H4 C6 1_555 1_555
C7 C6 1_555 1_555
C8 C7 1_555 1_555
H5 C8 1_555 1_555
C9 N2 1_555 1_555
H6 C9 1_555 1_555
C10 Sn1 1_555 1_555
H7 C10 1_555 1_555
H8 C10 1_555 1_555
C11 C10 1_555 1_555
H9 C11 1_555 1_555
H10 C11 1_555 1_555
C12 C11 1_555 1_555
H11 C12 1_555 1_555
H12 C12 1_555 1_555
C13 C12 1_555 1_555
H13 C13 1_555 1_555
H14 C13 1_555 1_555
H15 C13 1_555 1_555
C14 Sn1 1_555 1_555
H16 C14 1_555 1_555
H17 C14 1_555 1_555
C15 C14 1_555 1_555
H18 C15 1_555 1_555
H19 C15 1_555 1_555
C16 C15 1_555 1_555
H20 C16 1_555 1_555
H21 C16 1_555 1_555
C17 C16 1_555 1_555
H22 C17 1_555 1_555
H23 C17 1_555 1_555
H24 C17 1_555 1_555
C18 Sn1 1_555 1_555
H25 C18 1_555 1_555
H26 C18 1_555 1_555
C19 C18 1_555 1_555
H27 C19 1_555 1_555
H28 C19 1_555 1_555
C20 C19 1_555 1_555
H29 C20 1_555 1_555
H30 C20 1_555 1_555
C21 C20 1_555 1_555
H31 C21 1_555 1_555
H32 C21 1_555 1_555
H33 C21 1_555 1_555
Sn1A O1A 1_555 1_555
Sn1D N2D 1_555 1_555
O1A C1A 1_555 1_555
O2A C1A 1_555 1_555
N2D C5D 1_555 1_555
N2A Sn1A 1_555 1_555
C1A C2A 1_555 1_555
C2A N1 1_555 1_555
C3A C4 1_555 1_555
H1A C3A 1_555 1_555
C5D H3D 1_555 1_555
C6D C5D 1_555 1_555
H4D C6D 1_555 1_555
C7D C7 1_555 1_555
C8D C7D 1_555 1_555
H5D C8D 1_555 1_555
C9D N2D 1_555 1_555
H6D C9D 1_555 1_555
C10A Sn1A 1_555 1_555
H7A C10A 1_555 1_555
H8A C10A 1_555 1_555
C11A C10A 1_555 1_555
H9A C11A 1_555 1_555
H10A C11A 1_555 1_555
C12A C11A 1_555 1_555
H11A C12A 1_555 1_555
H12A C12A 1_555 1_555
C13A C12A 1_555 1_555
H13A C13A 1_555 1_555
H14A C13A 1_555 1_555
H15A C13A 1_555 1_555
C14A Sn1A 1_555 1_555
H16A C14A 1_555 1_555
H17A C14A 1_555 1_555
C15A C14A 1_555 1_555
H18A C15A 1_555 1_555
H19A C15A 1_555 1_555
C16A C15A 1_555 1_555
H20A C16A 1_555 1_555
H21A C16A 1_555 1_555
C17A C16A 1_555 1_555
H22A C17A 1_555 1_555
H23A C17A 1_555 1_555
H24A C17A 1_555 1_555
C18A Sn1A 1_555 1_555
H25A C18A 1_555 1_555
H26A C18A 1_555 1_555
C19A C18A 1_555 1_555
H27A C19A 1_555 1_555
H28A C19A 1_555 1_555
C20A C19A 1_555 1_555
H29A C20A 1_555 1_555
H30A C20A 1_555 1_555
C21A C20A 1_555 1_555
H31A C21A 1_555 1_555
H32A C21A 1_555 1_555
H33A C21A 1_555 1_555
C8 C9 1_555 1_555
C2A C3A 1_555 1_555
C6D C7D 1_555 1_555
C8D C9D 1_555 1_555

#END
