
#######################################################################
#
#                 Cambridge Crystallographic Data Centre
#                                CCDC 
#
#######################################################################
#
# If this CIF has been generated from an entry in the Cambridge 
# Structural Database, then it will include bibliographic, chemical, 
# crystal, experimental, refinement or atomic coordinate data resulting 
# from the CCDC's data processing and validation procedures.
#
#######################################################################

data_KEBNUC
_symmetry_cell_setting           monoclinic
_symmetry_space_group_name_H-M   'C 2/c'
_symmetry_Int_Tables_number      15
_space_group_name_Hall           '-C 2yn'
loop_
_symmetry_equiv_pos_site_id
_symmetry_equiv_pos_as_xyz
1 x,y,z
2 -x,y,1/2-z
3 1/2+x,1/2+y,z
4 1/2-x,1/2+y,1/2-z
5 -x,-y,-z
6 x,-y,1/2+z
7 1/2-x,1/2-y,-z
8 1/2+x,1/2-y,1/2+z
_cell_length_a                   15.427(5)
_cell_length_b                   11.769(5)
_cell_length_c                   23.734(5)
_cell_angle_alpha                90
_cell_angle_beta                 99.322(5)
_cell_angle_gamma                90
_cell_volume                     4252.25
loop_
_atom_site_label
_atom_site_type_symbol
_atom_site_fract_x
_atom_site_fract_y
_atom_site_fract_z
Sn1 Sn 0.215980(14) 0.367505(18) 0.639279(9)
O1 O 0.13194(14) 0.29601(19) 0.69559(9)
O2 O 0.14800(15) 0.13297(18) 0.65001(10)
N1 N 0.0000 -0.0457(3) 0.7500
N2 N 0.31926(17) 0.4545(2) 0.57423(11)
C1 C 0.1173(2) 0.1890(3) 0.68608(14)
C2 C 0.0541(2) 0.0145(3) 0.72299(14)
H1 H 0.0930 -0.0253 0.7043
C3 C 0.0564(2) 0.1322(3) 0.72088(14)
C4 C 0.0000 0.1930(4) 0.7500
H2 H 0.0000 0.2720 0.7500
C5 C 0.3128(2) 0.4364(3) 0.51774(14)
H3 H 0.2593 0.4109 0.4980
C6 C 0.3811(2) 0.4536(3) 0.48730(14)
H4 H 0.3728 0.4402 0.4482
C7 C 0.4620(2) 0.4910(3) 0.51540(14)
C8 C 0.4686(2) 0.5120(3) 0.57365(14)
H5 H 0.5210 0.5390 0.5943
C9 C 0.3973(2) 0.4927(3) 0.60056(14)
H6 H 0.4037 0.5071 0.6395
C10 C 0.2157(2) 0.5303(3) 0.68011(14)
H7 H 0.1725 0.5289 0.7056
H8 H 0.2728 0.5423 0.7033
C11 C 0.1958(2) 0.6300(3) 0.63965(15)
H9 H 0.1374 0.6199 0.6179
H10 H 0.2370 0.6288 0.6128
C12 C 0.2002(3) 0.7457(3) 0.66807(16)
H11 H 0.2579 0.7557 0.6908
H12 H 0.1572 0.7488 0.6937
C13 C 0.1828(3) 0.8427(4) 0.62506(18)
H13 H 0.2154 0.8300 0.5944
H14 H 0.2010 0.9132 0.6436
H15 H 0.1212 0.8459 0.6101
C14 C 0.3266(2) 0.2584(3) 0.66400(14)
H16 H 0.3775 0.3049 0.6778
H17 H 0.3152 0.2109 0.6954
C15 C 0.3485(2) 0.1816(3) 0.61606(15)
H18 H 0.2997 0.1302 0.6045
H19 H 0.3549 0.2284 0.5834
C16 C 0.4319(2) 0.1120(3) 0.63278(17)
H20 H 0.4800 0.1631 0.6467
H21 H 0.4459 0.0744 0.5990
C17 C 0.4254(3) 0.0225(4) 0.67837(18)
H22 H 0.4145 0.0591 0.7127
H23 H 0.4795 -0.0192 0.6861
H24 H 0.3781 -0.0287 0.6650
C18 C 0.1242(2) 0.3532(3) 0.56097(14)
H25 H 0.1267 0.4223 0.5390
H26 H 0.1424 0.2910 0.5388
C19 C 0.0291(2) 0.3332(3) 0.56906(15)
H27 H 0.0260 0.2617 0.5890
H28 H 0.0119 0.3931 0.5931
C20 C -0.0364(2) 0.3298(3) 0.51363(15)
H29 H -0.0218 0.2672 0.4903
H30 H -0.0321 0.3996 0.4926
C21 C -0.1302(2) 0.3154(4) 0.52494(16)
H31 H -0.1346 0.2464 0.5459
H32 H -0.1696 0.3120 0.4893
H33 H -0.1455 0.3787 0.5468
Sn1A Sn -0.215980(14) 0.367505(18) 0.860721(9)
Sn1D Sn 0.784020(14) 0.632495(18) 0.360721(9)
O1A O -0.13194(14) 0.29601(19) 0.80441(9)
O2A O -0.14800(15) 0.13297(18) 0.84999(10)
N2D N 0.68074(17) 0.5455(2) 0.42577(11)
N2A N -0.31926(17) 0.4545(2) 0.92577(11)
C1A C -0.1173(2) 0.1890(3) 0.81392(14)
C2A C -0.0541(2) 0.0145(3) 0.77701(14)
H1A H -0.0930 -0.0253 0.7957
C3A C -0.0564(2) 0.1322(3) 0.77912(14)
C5D C 0.6872(2) 0.5636(3) 0.48226(14)
H3D H 0.7407 0.5891 0.5020
C6D C 0.6189(2) 0.5464(3) 0.51270(14)
H4D H 0.6272 0.5598 0.5518
C7D C 0.5380(2) 0.5090(3) 0.48460(14)
C8D C 0.5314(2) 0.4880(3) 0.42635(14)
H5D H 0.4790 0.4610 0.4057
C9D C 0.6027(2) 0.5073(3) 0.39944(14)
H6D H 0.5963 0.4929 0.3605
C10A C -0.2157(2) 0.5303(3) 0.81989(14)
H7A H -0.1725 0.5289 0.7944
H8A H -0.2728 0.5423 0.7967
C11A C -0.1958(2) 0.6300(3) 0.86035(15)
H9A H -0.1374 0.6199 0.8821
H10A H -0.2370 0.6288 0.8872
C12A C -0.2002(3) 0.7457(3) 0.83193(16)
H11A H -0.2579 0.7557 0.8092
H12A H -0.1572 0.7488 0.8063
C13A C -0.1828(3) 0.8427(4) 0.87494(18)
H13A H -0.2154 0.8300 0.9056
H14A H -0.2010 0.9132 0.8564
H15A H -0.1212 0.8459 0.8899
C14A C -0.3266(2) 0.2584(3) 0.83600(14)
H16A H -0.3775 0.3049 0.8222
H17A H -0.3152 0.2109 0.8046
C15A C -0.3485(2) 0.1816(3) 0.88394(15)
H18A H -0.2997 0.1302 0.8955
H19A H -0.3549 0.2284 0.9166
C16A C -0.4319(2) 0.1120(3) 0.86722(17)
H20A H -0.4800 0.1631 0.8533
H21A H -0.4459 0.0744 0.9010
C17A C -0.4254(3) 0.0225(4) 0.82163(18)
H22A H -0.4145 0.0591 0.7873
H23A H -0.4795 -0.0192 0.8139
H24A H -0.3781 -0.0287 0.8350
C18A C -0.1242(2) 0.3532(3) 0.93903(14)
H25A H -0.1267 0.4223 0.9610
H26A H -0.1424 0.2910 0.9612
C19A C -0.0291(2) 0.3332(3) 0.93094(15)
H27A H -0.0260 0.2617 0.9110
H28A H -0.0119 0.3931 0.9069
C20A C 0.0364(2) 0.3298(3) 0.98637(15)
H29A H 0.0218 0.2672 1.0097
H30A H 0.0321 0.3996 1.0074
C21A C 0.1302(2) 0.3154(4) 0.97506(16)
H31A H 0.1346 0.2464 0.9541
H32A H 0.1696 0.3120 1.0107
H33A H 0.1455 0.3787 0.9532
loop_
_geom_bond_atom_site_label_1
_geom_bond_atom_site_label_2
_geom_bond_site_symmetry_1
_geom_bond_site_symmetry_2
Sn1 O1 1_555 1_555
O1 C1 1_555 1_555
O2 C1 1_555 1_555
N1 C2 1_555 1_555
N2 Sn1 1_555 1_555
C1 C3 1_555 1_555
C2 H1 1_555 1_555
C3 C2 1_555 1_555
C4 C3 1_555 1_555
H2 C4 1_555 1_555
C5 N2 1_555 1_555
H3 C5 1_555 1_555
C6 C5 1_555 1_555
H4 C6 1_555 1_555
C7 C6 1_555 1_555
C8 C7 1_555 1_555
H5 C8 1_555 1_555
C9 N2 1_555 1_555
H6 C9 1_555 1_555
C10 Sn1 1_555 1_555
H7 C10 1_555 1_555
H8 C10 1_555 1_555
C11 C10 1_555 1_555
H9 C11 1_555 1_555
H10 C11 1_555 1_555
C12 C11 1_555 1_555
H11 C12 1_555 1_555
H12 C12 1_555 1_555
C13 C12 1_555 1_555
H13 C13 1_555 1_555
H14 C13 1_555 1_555
H15 C13 1_555 1_555
C14 Sn1 1_555 1_555
H16 C14 1_555 1_555
H17 C14 1_555 1_555
C15 C14 1_555 1_555
H18 C15 1_555 1_555
H19 C15 1_555 1_555
C16 C15 1_555 1_555
H20 C16 1_555 1_555
H21 C16 1_555 1_555
C17 C16 1_555 1_555
H22 C17 1_555 1_555
H23 C17 1_555 1_555
H24 C17 1_555 1_555
C18 Sn1 1_555 1_555
H25 C18 1_555 1_555
H26 C18 1_555 1_555
C19 C18 1_555 1_555
H27 C19 1_555 1_555
H28 C19 1_555 1_555
C20 C19 1_555 1_555
H29 C20 1_555 1_555
H30 C20 1_555 1_555
C21 C20 1_555 1_555
H31 C21 1_555 1_555
H32 C21 1_555 1_555
H33 C21 1_555 1_555
Sn1A O1A 1_555 1_555
Sn1D N2D 1_555 1_555
O1A C1A 1_555 1_555
O2A C1A 1_555 1_555
N2D C5D 1_555 1_555
N2A Sn1A 1_555 1_555
C1A C3A 1_555 1_555
C2A N1 1_555 1_555
H1A C2A 1_555 1_555
C3A C4 1_555 1_555
C5D H3D 1_555 1_555
C6D C5D 1_555 1_555
H4D C6D 1_555 1_555
C7D C7 1_555 1_555
C8D C7D 1_555 1_555
H5D C8D 1_555 1_555
C9D N2D 1_555 1_555
H6D C9D 1_555 1_555
C10A Sn1A 1_555 1_555
H7A C10A 1_555 1_555
H8A C10A 1_555 1_555
C11A C10A 1_555 1_555
H9A C11A 1_555 1_555
H10A C11A 1_555 1_555
C12A C11A 1_555 1_555
H11A C12A 1_555 1_555
H12A C12A 1_555 1_555
C13A C12A 1_555 1_555
H13A C13A 1_555 1_555
H14A C13A 1_555 1_555
H15A C13A 1_555 1_555
C14A Sn1A 1_555 1_555
H16A C14A 1_555 1_555
H17A C14A 1_555 1_555
C15A C14A 1_555 1_555
H18A C15A 1_555 1_555
H19A C15A 1_555 1_555
C16A C15A 1_555 1_555
H20A C16A 1_555 1_555
H21A C16A 1_555 1_555
C17A C16A 1_555 1_555
H22A C17A 1_555 1_555
H23A C17A 1_555 1_555
H24A C17A 1_555 1_555
C18A Sn1A 1_555 1_555
H25A C18A 1_555 1_555
H26A C18A 1_555 1_555
C19A C18A 1_555 1_555
H27A C19A 1_555 1_555
H28A C19A 1_555 1_555
C20A C19A 1_555 1_555
H29A C20A 1_555 1_555
H30A C20A 1_555 1_555
C21A C20A 1_555 1_555
H31A C21A 1_555 1_555
H32A C21A 1_555 1_555
H33A C21A 1_555 1_555
C8 C9 1_555 1_555
C2A C3A 1_555 1_555
C6D C7D 1_555 1_555
C8D C9D 1_555 1_555

#END
