
#######################################################################
#
#                 Cambridge Crystallographic Data Centre
#                                CCDC 
#
#######################################################################
#
# If this CIF has been generated from an entry in the Cambridge 
# Structural Database, then it will include bibliographic, chemical, 
# crystal, experimental, refinement or atomic coordinate data resulting 
# from the CCDC's data processing and validation procedures.
#
#######################################################################

data_KEBPEO
_symmetry_cell_setting           tetragonal
_symmetry_space_group_name_H-M   'I 41/a'
_symmetry_Int_Tables_number      88
_space_group_name_Hall           '-I 4ad'
loop_
_symmetry_equiv_pos_site_id
_symmetry_equiv_pos_as_xyz
1 x,y,z
2 -x,1/2-y,z
3 3/4-y,1/4+x,1/4+z
4 1/4+y,1/4-x,1/4+z
5 1/2+x,1/2+y,1/2+z
6 1/2-x,-y,1/2+z
7 1/4-y,3/4+x,3/4+z
8 3/4+y,3/4-x,3/4+z
9 -x,-y,-z
10 x,1/2+y,-z
11 1/4+y,3/4-x,3/4-z
12 3/4-y,3/4+x,3/4-z
13 1/2-x,1/2-y,1/2-z
14 1/2+x,y,1/2-z
15 3/4+y,1/4-x,1/4-z
16 1/4-y,1/4+x,1/4-z
_cell_length_a                   15.403(1)
_cell_length_b                   15.403(1)
_cell_length_c                   22.617(3)
_cell_angle_alpha                90
_cell_angle_beta                 90
_cell_angle_gamma                90
_cell_volume                     5365.94
loop_
_atom_site_label
_atom_site_type_symbol
_atom_site_fract_x
_atom_site_fract_y
_atom_site_fract_z
Cu1 Cu 0.03811(4) 0.01676(4) 0.55678(3)
N1 N 0.2780(3) -0.1178(3) 0.5339(2)
C1 C 0.2112(4) -0.0750(4) 0.5547(3)
H1 H 0.2169 -0.0551 0.5933
N2 N 0.1367(3) -0.0562(3) 0.5285(2)
C2 C 0.1343(4) -0.0877(4) 0.4720(3)
C3 C 0.2047(5) -0.1332(4) 0.4428(3)
C4 C 0.2747(4) -0.1486(4) 0.4751(3)
N3 N 0.3449(3) -0.1921(3) 0.4520(2)
H2 H 0.3438 -0.2099 0.4159
H3 H 0.3898 -0.2016 0.4736
N4 N 0.1823(3) -0.1517(3) 0.3862(2)
C5 C 0.1028(4) -0.1184(4) 0.3830(3)
H4 H 0.0702 -0.1215 0.3485
N5 N 0.0710(3) -0.0796(3) 0.4325(2)
C6 C -0.0755(4) -0.1283(4) 0.5488(3)
O1 O -0.0234(3) -0.0911(3) 0.58261(17)
O2 O -0.0855(3) -0.1113(2) 0.49508(17)
C7 C -0.1364(5) -0.1982(4) 0.5712(3)
H5 H -0.1952 -0.1814 0.5610
H6 H -0.1236 -0.2514 0.5500
C8 C -0.1342(6) -0.2174(4) 0.6344(3)
H7 H -0.0745 -0.2300 0.6451
H8 H -0.1674 -0.2701 0.6409
C9 C -0.1683(5) -0.1481(5) 0.6771(3)
H9 H -0.1422 -0.0924 0.6677
H10 H -0.2307 -0.1427 0.6728
C10 C -0.1469(6) -0.1722(6) 0.7389(4)
O3 O -0.1118(5) -0.2379(4) 0.7540(3)
O4 O -0.1633(4) -0.1112(4) 0.7758(3)
H13 H -0.1467 -0.1256 0.8116
Cu1F Cu 0.23324(4) -0.21189(4) 0.30678(3)
Cu1H Cu -0.03811(4) -0.01676(4) 0.44322(3)
N4C N 0.0983(3) 0.0677(3) 0.6362(2)
N5H N -0.0710(3) 0.0796(3) 0.5675(2)
O2H O 0.0855(3) 0.1113(2) 0.50492(17)
O5 O -0.1011(3) -0.1638(3) 0.8810(2)
H11 H -0.0910 -0.2187 0.8814
H12 H -0.1354 -0.1605 0.9109
loop_
_geom_bond_atom_site_label_1
_geom_bond_atom_site_label_2
_geom_bond_site_symmetry_1
_geom_bond_site_symmetry_2
Cu1 N2 1_555 1_555
N1 C1 1_555 1_555
C1 H1 1_555 1_555
N2 C1 1_555 1_555
C2 N2 1_555 1_555
C3 C2 1_555 1_555
C4 N1 1_555 1_555
N3 C4 1_555 1_555
H2 N3 1_555 1_555
H3 N3 1_555 1_555
N4 C3 1_555 1_555
C5 N4 1_555 1_555
H4 C5 1_555 1_555
N5 C2 1_555 1_555
C6 O1 1_555 1_555
O1 Cu1 1_555 1_555
O2 C6 1_555 1_555
C7 C6 1_555 1_555
H5 C7 1_555 1_555
H6 C7 1_555 1_555
C8 C7 1_555 1_555
H7 C8 1_555 1_555
H8 C8 1_555 1_555
C9 C8 1_555 1_555
H9 C9 1_555 1_555
H10 C9 1_555 1_555
C10 C9 1_555 1_555
O3 C10 1_555 1_555
O4 C10 1_555 1_555
O5 H11 1_555 1_555
H12 O5 1_555 1_555
H13 O4 1_555 1_555
Cu1F N4 1_555 1_555
Cu1H N5 1_555 1_555
N4C Cu1 1_555 1_555
N5H Cu1 1_555 1_555
O2H Cu1 1_555 1_555
C3 C4 1_555 1_555
C5 N5 1_555 1_555
O2 Cu1H 1_555 1_555

#END
