
#######################################################################
#
#                 Cambridge Crystallographic Data Centre
#                                CCDC 
#
#######################################################################
#
# If this CIF has been generated from an entry in the Cambridge 
# Structural Database, then it will include bibliographic, chemical, 
# crystal, experimental, refinement or atomic coordinate data resulting 
# from the CCDC's data processing and validation procedures.
#
#######################################################################

data_KEBQAL
_symmetry_cell_setting           triclinic
_symmetry_space_group_name_H-M   'P -1'
_symmetry_Int_Tables_number      2
_space_group_name_Hall           '-P 1'
loop_
_symmetry_equiv_pos_site_id
_symmetry_equiv_pos_as_xyz
1 x,y,z
2 -x,-y,-z
_cell_length_a                   7.758(2)
_cell_length_b                   8.341(2)
_cell_length_c                   11.773(2)
_cell_angle_alpha                100.98(2)
_cell_angle_beta                 97.44(2)
_cell_angle_gamma                94.19(2)
_cell_volume                     737.835
loop_
_atom_site_label
_atom_site_type_symbol
_atom_site_fract_x
_atom_site_fract_y
_atom_site_fract_z
Cu1 Cu 1.01237(9) 0.05165(9) 1.39955(5)
N1 N 0.7144(6) 0.1219(5) 0.9765(3)
C1 C 0.8237(7) 0.1975(6) 0.9231(4)
H1 H 0.7816 0.2133 0.8489
N2 N 0.9914(6) 0.2544(5) 0.9659(3)
C2 C 1.1038(7) 0.3390(6) 0.8996(4)
H2 H 1.0401 0.3418 0.8246
H3 H 1.2050 0.2812 0.8890
H4 H 1.1397 0.4491 0.9419
C3 C 1.0528(7) 0.2261(6) 1.0750(4)
C4 C 0.9455(6) 0.1449(6) 1.1359(4)
C5 C 0.7711(7) 0.0950(6) 1.0867(4)
N3 N 0.6528(6) 0.0211(5) 1.1382(4)
H5 H 0.5478 -0.0069 1.1026
H6 H 0.6817 0.0016 1.2069
N4 N 1.0458(5) 0.1342(5) 1.2403(3)
C6 C 1.2009(7) 0.2071(6) 1.2311(4)
H7 H 1.2958 0.2163 1.2897
N5 N 1.2153(5) 0.2673(5) 1.1328(3)
C7 C 1.1406(6) -0.2612(6) 1.4289(4)
O1 O 1.1125(4) -0.1596(4) 1.3613(3)
O2 O 1.0938(5) -0.2467(4) 1.5286(3)
C8 C 1.2445(7) -0.3996(6) 1.3879(4)
H8 H 1.2218 -0.4313 1.3033
H9 H 1.2111 -0.4939 1.4202
C9 C 1.4397(7) -0.3435(6) 1.4279(4)
H10 H 1.4580 -0.3013 1.5117
H11 H 1.5054 -0.4379 1.4130
C10 C 1.5111(6) -0.2116(6) 1.3675(4)
H12 H 1.5068 -0.2586 1.2851
H13 H 1.4356 -0.1235 1.3736
C11 C 1.6950(6) -0.1405(6) 1.4170(4)
O3 O 1.7747(4) -0.0636(5) 1.3534(3)
O4 O 1.7543(4) -0.1541(4) 1.5174(3)
Cu1A Cu 0.98763(9) -0.05165(9) 1.60045(5)
Cu1_2 Cu 2.01237(9) 0.05165(9) 1.39955(5)
Cu1A_2 Cu 1.98763(9) -0.05165(9) 1.60045(5)
O2A O 0.9062(5) 0.2467(4) 1.4714(3)
O3_2 O 0.7747(4) -0.0636(5) 1.3534(3)
O4A O 1.2457(4) 0.1541(4) 1.4826(3)
O5 O 1.5182(5) -0.5255(5) 1.1202(3)
O6 O 0.8020(6) 0.4805(5) 1.3156(4)
loop_
_geom_bond_atom_site_label_1
_geom_bond_atom_site_label_2
_geom_bond_site_symmetry_1
_geom_bond_site_symmetry_2
Cu1 N4 1_555 1_555
N1 C1 1_555 1_555
C1 H1 1_555 1_555
N2 C1 1_555 1_555
C2 N2 1_555 1_555
H2 C2 1_555 1_555
H3 C2 1_555 1_555
H4 C2 1_555 1_555
C3 N2 1_555 1_555
C4 C3 1_555 1_555
C5 N1 1_555 1_555
N3 C5 1_555 1_555
H5 N3 1_555 1_555
H6 N3 1_555 1_555
N4 C4 1_555 1_555
C6 N4 1_555 1_555
H7 C6 1_555 1_555
N5 C3 1_555 1_555
C7 O1 1_555 1_555
O1 Cu1 1_555 1_555
O2 C7 1_555 1_555
C8 C7 1_555 1_555
H8 C8 1_555 1_555
H9 C8 1_555 1_555
C9 C8 1_555 1_555
H10 C9 1_555 1_555
H11 C9 1_555 1_555
C10 C9 1_555 1_555
H12 C10 1_555 1_555
H13 C10 1_555 1_555
C11 C10 1_555 1_555
O3 C11 1_555 1_555
O4 C11 1_555 1_555
Cu1A O2 1_555 1_555
Cu1_2 O3 1_555 1_555
Cu1A_2 O4 1_555 1_555
O2A Cu1 1_555 1_555
O3_2 Cu1 1_555 1_555
O4A Cu1 1_555 1_555
C4 C5 1_555 1_555
C6 N5 1_555 1_555

#END
