
#######################################################################
#
#                 Cambridge Crystallographic Data Centre
#                                CCDC 
#
#######################################################################
#
# If this CIF has been generated from an entry in the Cambridge 
# Structural Database, then it will include bibliographic, chemical, 
# crystal, experimental, refinement or atomic coordinate data resulting 
# from the CCDC's data processing and validation procedures.
#
#######################################################################

data_KEBQEP
_symmetry_cell_setting           triclinic
_symmetry_space_group_name_H-M   'P -1'
_symmetry_Int_Tables_number      2
_space_group_name_Hall           '-P 1'
loop_
_symmetry_equiv_pos_site_id
_symmetry_equiv_pos_as_xyz
1 x,y,z
2 -x,-y,-z
_cell_length_a                   7.8705(8)
_cell_length_b                   8.5184(7)
_cell_length_c                   11.2615(7)
_cell_angle_alpha                69.155(7)
_cell_angle_beta                 77.225(9)
_cell_angle_gamma                65.995(9)
_cell_volume                     641.987
loop_
_atom_site_label
_atom_site_type_symbol
_atom_site_fract_x
_atom_site_fract_y
_atom_site_fract_z
Cu1 Cu 0.50435(4) 0.85711(4) 0.60167(3)
N1 N 0.8717(3) 0.3509(3) 0.9977(2)
C1 C 0.8196(4) 0.2073(4) 1.0362(3)
H1 H 0.8834 0.1113 1.1016
N2 N 0.6898(3) 0.1823(3) 0.9942(2)
C2 C 0.6029(4) 0.3310(3) 0.9019(2)
C3 C 0.6411(4) 0.4884(3) 0.8506(2)
C4 C 0.7851(4) 0.4961(3) 0.9020(2)
N3 N 0.8417(3) 0.6362(3) 0.8621(2)
H2 H 0.9305 0.6327 0.8969
H3 H 0.7893 0.7298 0.8017
N4 N 0.5205(3) 0.6089(3) 0.7569(2)
C5 C 0.4167(4) 0.5224(3) 0.7551(3)
H4 H 0.3225 0.5713 0.7008
N5 N 0.4590(3) 0.3550(3) 0.8396(2)
C6 C 0.3669(4) 0.2263(4) 0.8635(3)
H5 H 0.4262 0.1181 0.9283
H6 H 0.3766 0.1982 0.7863
H7 H 0.2376 0.2782 0.8914
C7 C 0.7922(3) 0.8116(3) 0.3962(2)
C8 C 0.9823(3) 0.7022(3) 0.3457(3)
H8 H 0.9944 0.5771 0.3697
H9 H 0.9962 0.7470 0.2533
C9 C 1.1341(4) 0.7171(3) 0.4016(3)
H10 H 1.2532 0.6265 0.3860
H11 H 1.1057 0.6928 0.4933
C10 C 1.1503(4) 0.9019(3) 0.3447(2)
H12 H 1.0282 0.9924 0.3546
H13 H 1.1866 0.9218 0.2540
C11 C 1.2881(3) 0.9287(3) 0.4030(2)
O1 O 0.7261(3) 0.7341(3) 0.5025(2)
O2 O 0.7203(3) 0.9736(2) 0.33309(18)
O3 O 1.3403(3) 0.8240(3) 0.50984(18)
O4 O 1.3397(3) 1.0599(3) 0.33975(19)
Cu1A Cu 0.49565(4) 1.14289(4) 0.39833(3)
Cu1_2 Cu 1.50435(4) 0.85711(4) 0.60167(3)
Cu1A_2 Cu 1.49565(4) 1.14289(4) 0.39833(3)
O2A O 0.2797(3) 1.0264(2) 0.66691(18)
O3_2 O 0.3403(3) 0.8240(3) 0.50984(18)
O4A O 0.6603(3) 0.9401(3) 0.66025(19)
loop_
_geom_bond_atom_site_label_1
_geom_bond_atom_site_label_2
_geom_bond_site_symmetry_1
_geom_bond_site_symmetry_2
Cu1 N4 1_555 1_555
N1 C1 1_555 1_555
C1 H1 1_555 1_555
N2 C1 1_555 1_555
C2 N2 1_555 1_555
C3 C2 1_555 1_555
C4 N1 1_555 1_555
N3 C4 1_555 1_555
H2 N3 1_555 1_555
H3 N3 1_555 1_555
N4 C3 1_555 1_555
C5 N4 1_555 1_555
H4 C5 1_555 1_555
N5 C2 1_555 1_555
C6 N5 1_555 1_555
H5 C6 1_555 1_555
H6 C6 1_555 1_555
H7 C6 1_555 1_555
C7 C8 1_555 1_555
C8 H8 1_555 1_555
H9 C8 1_555 1_555
C9 C8 1_555 1_555
H10 C9 1_555 1_555
H11 C9 1_555 1_555
C10 C9 1_555 1_555
H12 C10 1_555 1_555
H13 C10 1_555 1_555
C11 C10 1_555 1_555
O1 Cu1 1_555 1_555
O2 C7 1_555 1_555
O3 C11 1_555 1_555
O4 C11 1_555 1_555
Cu1A O2 1_555 1_555
Cu1_2 O3 1_555 1_555
Cu1A_2 O4 1_555 1_555
O2A Cu1 1_555 1_555
O3_2 Cu1 1_555 1_555
O4A Cu1 1_555 1_555
C3 C4 1_555 1_555
C5 N5 1_555 1_555
C7 O1 1_555 1_555

#END
