
#######################################################################
#
#                 Cambridge Crystallographic Data Centre
#                                CCDC 
#
#######################################################################
#
# If this CIF has been generated from an entry in the Cambridge 
# Structural Database, then it will include bibliographic, chemical, 
# crystal, experimental, refinement or atomic coordinate data resulting 
# from the CCDC's data processing and validation procedures.
#
#######################################################################

data_KEBQUF
_symmetry_cell_setting           monoclinic
_symmetry_space_group_name_H-M   'P 21/c'
_symmetry_Int_Tables_number      14
_space_group_name_Hall           '-P 2ybc'
loop_
_symmetry_equiv_pos_site_id
_symmetry_equiv_pos_as_xyz
1 x,y,z
2 -x,1/2+y,1/2-z
3 -x,-y,-z
4 x,1/2-y,1/2+z
_cell_length_a                   11.0633(6)
_cell_length_b                   12.5347(5)
_cell_length_c                   11.1579(7)
_cell_angle_alpha                90
_cell_angle_beta                 104.120(6)
_cell_angle_gamma                90
_cell_volume                     1500.57
loop_
_atom_site_label
_atom_site_type_symbol
_atom_site_fract_x
_atom_site_fract_y
_atom_site_fract_z
Co1 Co -0.00643(6) 0.06602(6) 0.77804(6)
Co2 Co -0.06737(7) -0.10887(6) 0.49272(6)
O1 O -0.1670(4) 0.0933(3) 0.8328(4)
O2 O -0.8152(4) 0.0720(3) 0.8071(4)
O3 O -0.0601(3) 0.0298(3) 0.5901(3)
O4 O -0.7616(4) 0.0535(3) 0.6302(4)
O5 O -0.2055(4) -0.1869(4) 0.5719(4)
O6 O -0.5271(5) 0.1784(4) 1.1750(4)
O7 O -0.3305(5) 0.1769(4) 1.1905(4)
O8 O -0.2986(5) 0.0646(6) 0.6511(5)
N1 N 0.0054(4) -0.0992(3) 0.8252(4)
N2 N 0.0088(4) -0.2739(3) 0.7883(4)
N3 N -0.0450(4) -0.2576(3) 0.8892(4)
N4 N 0.0830(4) -0.1629(3) 0.6511(4)
H2 H 0.0940 -0.2164 0.6067
H3 H 0.1006 -0.0995 0.6312
N5 N -0.0894(4) -0.1040(4) 0.9960(4)
H4 H -0.1198 -0.1416 1.0461
H5 H -0.0870 -0.0356 1.0025
N6 N -0.4368(5) 0.1669(4) 1.1303(5)
C1 C -0.7370(5) 0.0701(4) 0.7431(5)
C2 C -0.6041(5) 0.0906(4) 0.8119(5)
C3 C -0.5804(5) 0.1206(4) 0.9359(5)
H6 H -0.6453 0.1277 0.9749
C4 C -0.4597(5) 0.1393(5) 0.9990(5)
C5 C -0.3597(5) 0.1265(5) 0.9477(6)
H7 H -0.2786 0.1369 0.9943
C6 C -0.3835(5) 0.0976(5) 0.8241(6)
C7 C -0.5044(5) 0.0809(5) 0.7567(6)
H8 H -0.5195 0.0629 0.6735
C8 C -0.2762(6) 0.0830(5) 0.7614(6)
C9 C -0.0446(5) -0.1533(4) 0.9052(4)
C10 C 0.0363(5) -0.1790(4) 0.7559(5)
H9 H -0.284(4) -0.156(6) 0.537(7)
H10 H -0.161(8) -0.201(8) 0.654(3)
H11 H -0.131(4) 0.059(6) 0.572(8)
Co1_2 Co -1.00643(6) 0.06602(6) 0.77804(6)
Co1A Co 0.00643(6) -0.43398(6) 0.72196(6)
Co1B Co 0.00643(6) -0.06602(6) 1.22196(6)
Co2B Co 0.06737(7) 0.10887(6) 0.50728(6)
Co2B_2 Co -0.93263(7) 0.10887(6) 0.50728(6)
Co2C Co -0.06737(7) -0.39113(6) 0.99272(6)
O2_2 O 0.1848(4) 0.0720(3) 0.8071(4)
O3B O 0.0601(3) -0.0298(3) 0.4099(3)
O4B O -0.2384(4) -0.0535(3) 0.3698(4)
N2A N -0.0088(4) 0.2261(3) 0.7117(4)
N3C N -0.0450(4) -0.2424(3) 0.3892(4)
N5B N 0.0894(4) 0.1040(4) 1.0040(4)
H4B H 0.1198 0.1416 0.9539
H5B H 0.0870 0.0356 0.9975
H11B H 0.131(4) -0.059(6) 0.428(8)
O9 O 0.4435(9) 0.1159(6) 0.4436(7)
H1? H -0.0154 0.4685 0.6805
loop_
_geom_bond_atom_site_label_1
_geom_bond_atom_site_label_2
_geom_bond_site_symmetry_1
_geom_bond_site_symmetry_2
Co1 O1 1_555 1_555
Co2 O3 1_555 1_555
O1 C8 1_555 1_555
O2 C1 1_555 1_555
O3 Co1 1_555 1_555
O4 C1 1_555 1_555
O5 Co2 1_555 1_555
O6 N6 1_555 1_555
O7 N6 1_555 1_555
O8 C8 1_555 1_555
N1 Co1 1_555 1_555
N2 N3 1_555 1_555
N3 C9 1_555 1_555
N4 Co2 1_555 1_555
H2 N4 1_555 1_555
H3 N4 1_555 1_555
N5 H4 1_555 1_555
H5 N5 1_555 1_555
N6 C4 1_555 1_555
C1 C2 1_555 1_555
C2 C3 1_555 1_555
C3 H6 1_555 1_555
C4 C3 1_555 1_555
C5 C4 1_555 1_555
H7 C5 1_555 1_555
C6 C5 1_555 1_555
C7 C2 1_555 1_555
H8 C7 1_555 1_555
C8 C6 1_555 1_555
C9 N1 1_555 1_555
C10 N1 1_555 1_555
H9 O5 1_555 1_555
H10 O5 1_555 1_555
H11 O3 1_555 1_555
Co1_2 O2 1_555 1_555
Co1A N2 1_555 1_555
Co1B N5 1_555 1_555
Co2B O3 1_555 1_555
Co2B_2 O4 1_555 1_555
Co2C N3 1_555 1_555
O2_2 Co1 1_555 1_555
O3B Co2 1_555 1_555
O4B Co2 1_555 1_555
N2A Co1 1_555 1_555
N3C Co2 1_555 1_555
N5B Co1 1_555 1_555
H4B N5B 1_555 1_555
H5B N5B 1_555 1_555
H11B O3B 1_555 1_555
N2 C10 1_555 1_555
N4 C10 1_555 1_555
N5 C9 1_555 1_555
C6 C7 1_555 1_555
Co2B O3B 1_555 1_555

#END
