
#######################################################################
#
#                 Cambridge Crystallographic Data Centre
#                                CCDC 
#
#######################################################################
#
# If this CIF has been generated from an entry in the Cambridge 
# Structural Database, then it will include bibliographic, chemical, 
# crystal, experimental, refinement or atomic coordinate data resulting 
# from the CCDC's data processing and validation procedures.
#
#######################################################################

data_KEBREO
_symmetry_cell_setting           monoclinic
_symmetry_space_group_name_H-M   'C 2/c'
_symmetry_Int_Tables_number      15
_space_group_name_Hall           '-C 2yn'
loop_
_symmetry_equiv_pos_site_id
_symmetry_equiv_pos_as_xyz
1 x,y,z
2 1/2+x,1/2+y,z
3 -x,y,1/2-z
4 1/2-x,1/2+y,1/2-z
5 -x,-y,-z
6 1/2-x,1/2-y,-z
7 x,-y,1/2+z
8 1/2+x,1/2-y,1/2+z
_cell_length_a                   19.149(7)
_cell_length_b                   14.814(4)
_cell_length_c                   13.911(5)
_cell_angle_alpha                90
_cell_angle_beta                 119.08(3)
_cell_angle_gamma                90
_cell_volume                     3448.73
loop_
_atom_site_label
_atom_site_type_symbol
_atom_site_fract_x
_atom_site_fract_y
_atom_site_fract_z
I1 I -0.31149(5) 0.83448(7) 0.05859(8)
Cu1 Cu -0.1737(1) 0.7922(1) 0.0766(2)
Cr1 Cr 0.00000 0.8915(2) 0.2500
S1 S -0.1038(2) 0.9195(3) 0.0625(3)
S2 S -0.0860(2) 0.9999(3) 0.2635(3)
C1 C -0.1372(7) 1.0017(10) 0.1206(10)
N1 N -0.1949(6) 1.0580(7) 0.0641(9)
C2 C -0.2171(8) 1.1288(10) 0.1168(12)
C3 C -0.2771(10) 1.1009(11) 0.1499(13)
C4 C -0.2371(8) 1.0532(11) -0.0542(12)
C5 C -0.2028(10) 1.1155(12) -0.1066(12)
S3 S -0.0665(2) 0.7618(3) 0.2725(3)
C6 C 0.00000 0.6978(13) 0.2500
N2 N 0.00000 0.6100(11) 0.2500
C7 C 0.0642(10) 0.5547(12) 0.2445(17)
C8 C 0.0349(11) 0.5272(15) 0.1340(18)
H1 H -0.171 1.150 0.182
H2 H -0.240 1.181 0.069
H3 H -0.326 1.080 0.086
H4 H -0.258 1.049 0.200
H5 H -0.294 1.145 0.186
H6 H -0.236 0.991 -0.078
H7 H -0.294 1.066 -0.084
H8 H -0.206 1.176 -0.085
H9 H -0.148 1.101 -0.079
H10 H -0.231 1.110 -0.183
H11 H 0.115 0.587 0.273
H12 H 0.079 0.499 0.292
H13 H -0.013 0.493 0.106
H14 H 0.024 0.581 0.087
H15 H 0.076 0.494 0.130
Cu1E Cu -0.3263(1) 0.7078(1) -0.0766(2)
I1E I -0.18851(5) 0.66552(7) -0.05859(8)
S1B S 0.1038(2) 0.9195(3) 0.4375(3)
S2B S 0.0860(2) 0.9999(3) 0.2365(3)
S3B S 0.0665(2) 0.7618(3) 0.2275(3)
C7B C -0.0642(10) 0.5547(12) 0.2555(17)
S1E S -0.3962(2) 0.5805(3) -0.0625(3)
S3E S -0.4335(2) 0.7382(3) -0.2725(3)
Cu1B Cu 0.1737(1) 0.7922(1) 0.4234(2)
C1B C 0.1372(7) 1.0017(10) 0.3794(10)
C8B C -0.0349(11) 0.5272(15) 0.3660(18)
H11B H -0.115 0.587 0.227
H12B H -0.079 0.499 0.208
Cr1E Cr -0.50000 0.6085(2) -0.2500
C1E C -0.3628(7) 0.4983(10) -0.1206(10)
C6E C -0.50000 0.8022(13) -0.2500
I1B I 0.31149(5) 0.83448(7) 0.44141(8)
I1G I 0.18851(5) 0.66552(7) 0.55859(8)
N1B N 0.1949(6) 1.0580(7) 0.4359(9)
H13B H 0.013 0.493 0.394
H14B H -0.024 0.581 0.413
H15B H -0.076 0.494 0.370
S1G S -0.6038(2) 0.5805(3) -0.4375(3)
S2E S -0.4140(2) 0.5001(3) -0.2635(3)
S2G S -0.5860(2) 0.5001(3) -0.2365(3)
S3G S -0.5665(2) 0.7382(3) -0.2275(3)
N1E N -0.3051(6) 0.4420(7) -0.0641(9)
N2E N -0.50000 0.8900(11) -0.2500
Cu1G Cu 0.3263(1) 0.7078(1) 0.5766(2)
C2B C 0.2171(8) 1.1288(10) 0.3832(12)
C4B C 0.2371(8) 1.0532(11) 0.5542(12)
Cu1G_2 Cu -0.6737(1) 0.7078(1) -0.4234(2)
C1G C -0.6372(7) 0.4983(10) -0.3794(10)
C2E C -0.2829(8) 0.3712(10) -0.1168(12)
C4E C -0.2629(8) 0.4468(11) 0.0542(12)
C7E C -0.5642(10) 0.9453(12) -0.2445(17)
C7G C -0.4358(10) 0.9453(12) -0.2555(17)
C3B C 0.2771(10) 1.1009(11) 0.3501(13)
H1B H 0.171 1.150 0.318
H2B H 0.240 1.181 0.431
C5B C 0.2028(10) 1.1155(12) 0.6066(12)
H6B H 0.236 0.991 0.578
H7B H 0.294 1.066 0.584
N1G N -0.6949(6) 0.4420(7) -0.4359(9)
C3E C -0.2229(10) 0.3991(11) -0.1499(13)
H1E H -0.329 0.350 -0.182
H2E H -0.260 0.319 -0.069
C5E C -0.2972(10) 0.3845(12) 0.1066(12)
H6E H -0.264 0.509 0.078
H7E H -0.206 0.434 0.084
C8E C -0.5349(11) 0.9728(15) -0.1340(18)
H11E H -0.615 0.913 -0.273
H12E H -0.579 1.001 -0.292
C8G C -0.4651(11) 0.9728(15) -0.3660(18)
H11G H -0.385 0.913 -0.227
H12G H -0.421 1.001 -0.208
H3B H 0.326 1.080 0.414
H4B H 0.258 1.049 0.300
H5B H 0.294 1.145 0.314
H8B H 0.206 1.176 0.585
H9B H 0.148 1.101 0.579
H10B H 0.231 1.110 0.683
C2G C -0.7171(8) 0.3712(10) -0.3832(12)
C4G C -0.7371(8) 0.4468(11) -0.5542(12)
H3E H -0.174 0.420 -0.086
H4E H -0.242 0.451 -0.200
H5E H -0.206 0.355 -0.186
H8E H -0.294 0.324 0.085
H9E H -0.352 0.399 0.079
H10E H -0.269 0.390 0.183
H13E H -0.487 1.007 -0.106
H14E H -0.524 0.919 -0.087
H15E H -0.576 1.006 -0.130
H13G H -0.513 1.007 -0.394
H14G H -0.476 0.919 -0.413
H15G H -0.424 1.006 -0.370
C3G C -0.7771(10) 0.3991(11) -0.3501(13)
H1G H -0.671 0.350 -0.318
H2G H -0.740 0.319 -0.431
C5G C -0.7028(10) 0.3845(12) -0.6066(12)
H6G H -0.736 0.509 -0.578
H7G H -0.794 0.434 -0.584
H3G H -0.826 0.420 -0.414
H4G H -0.758 0.451 -0.300
H5G H -0.794 0.355 -0.314
H8G H -0.706 0.324 -0.585
H9G H -0.648 0.399 -0.579
H10G H -0.731 0.390 -0.683
I1B_2 I -0.68851(5) 0.83448(7) -0.55859(8)
I1G_2 I -0.81149(5) 0.66552(7) -0.44141(8)
N3 N 0.593(1) 0.812(1) 0.383(2)
C9 C 0.546(1) 0.774(1) 0.394(1)
C10 C 0.487(1) 0.723(2) 0.409(2)
H16 H 0.512 0.660 0.433
H17 H 0.436 0.715 0.344
H18 H 0.476 0.745 0.466
loop_
_geom_bond_atom_site_label_1
_geom_bond_atom_site_label_2
_geom_bond_site_symmetry_1
_geom_bond_site_symmetry_2
I1 Cu1 1_555 1_555
Cu1 S1 1_555 1_555
Cr1 S1 1_555 1_555
S1 C1 1_555 1_555
S2 Cr1 1_555 1_555
C1 S2 1_555 1_555
N1 C1 1_555 1_555
C2 N1 1_555 1_555
C3 C2 1_555 1_555
C4 N1 1_555 1_555
C5 C4 1_555 1_555
S3 Cu1 1_555 1_555
C6 S3 1_555 1_555
N2 C6 1_555 1_555
C7 N2 1_555 1_555
C8 C7 1_555 1_555
H1 C2 1_555 1_555
H2 C2 1_555 1_555
H3 C3 1_555 1_555
H4 C3 1_555 1_555
H5 C3 1_555 1_555
H6 C4 1_555 1_555
H7 C4 1_555 1_555
H8 C5 1_555 1_555
H9 C5 1_555 1_555
H10 C5 1_555 1_555
H11 C7 1_555 1_555
H12 C7 1_555 1_555
H13 C8 1_555 1_555
H14 C8 1_555 1_555
H15 C8 1_555 1_555
N3 C9 1_555 1_555
C9 C10 1_555 1_555
C10 H16 1_555 1_555
H17 C10 1_555 1_555
H18 C10 1_555 1_555
Cu1E I1 1_555 1_555
I1E Cu1 1_555 1_555
S1B Cr1 1_555 1_555
S2B Cr1 1_555 1_555
S3B Cr1 1_555 1_555
C7B N2 1_555 1_555
S1E Cu1E 1_555 1_555
S3E Cu1E 1_555 1_555
Cu1B S1B 1_555 1_555
C1B S1B 1_555 1_555
C8B C7B 1_555 1_555
H11B C7B 1_555 1_555
H12B C7B 1_555 1_555
Cr1E S1E 1_555 1_555
C1E S1E 1_555 1_555
C6E S3E 1_555 1_555
I1B Cu1B 1_555 1_555
I1G Cu1B 1_555 1_555
N1B C1B 1_555 1_555
H13B C8B 1_555 1_555
H14B C8B 1_555 1_555
H15B C8B 1_555 1_555
S1G Cr1E 1_555 1_555
S2E Cr1E 1_555 1_555
S2G Cr1E 1_555 1_555
S3G Cr1E 1_555 1_555
N1E C1E 1_555 1_555
N2E C6E 1_555 1_555
Cu1G I1B 1_555 1_555
C2B N1B 1_555 1_555
C4B N1B 1_555 1_555
Cu1G_2 S1G 1_555 1_555
C1G S1G 1_555 1_555
C2E N1E 1_555 1_555
C4E N1E 1_555 1_555
C7E N2E 1_555 1_555
C7G N2E 1_555 1_555
C3B C2B 1_555 1_555
H1B C2B 1_555 1_555
H2B C2B 1_555 1_555
C5B C4B 1_555 1_555
H6B C4B 1_555 1_555
H7B C4B 1_555 1_555
N1G C1G 1_555 1_555
C3E C2E 1_555 1_555
H1E C2E 1_555 1_555
H2E C2E 1_555 1_555
C5E C4E 1_555 1_555
H6E C4E 1_555 1_555
H7E C4E 1_555 1_555
C8E C7E 1_555 1_555
H11E C7E 1_555 1_555
H12E C7E 1_555 1_555
C8G C7G 1_555 1_555
H11G C7G 1_555 1_555
H12G C7G 1_555 1_555
H3B C3B 1_555 1_555
H4B C3B 1_555 1_555
H5B C3B 1_555 1_555
H8B C5B 1_555 1_555
H9B C5B 1_555 1_555
H10B C5B 1_555 1_555
C2G N1G 1_555 1_555
C4G N1G 1_555 1_555
H3E C3E 1_555 1_555
H4E C3E 1_555 1_555
H5E C3E 1_555 1_555
H8E C5E 1_555 1_555
H9E C5E 1_555 1_555
H10E C5E 1_555 1_555
H13E C8E 1_555 1_555
H14E C8E 1_555 1_555
H15E C8E 1_555 1_555
H13G C8G 1_555 1_555
H14G C8G 1_555 1_555
H15G C8G 1_555 1_555
C3G C2G 1_555 1_555
H1G C2G 1_555 1_555
H2G C2G 1_555 1_555
C5G C4G 1_555 1_555
H6G C4G 1_555 1_555
H7G C4G 1_555 1_555
H3G C3G 1_555 1_555
H4G C3G 1_555 1_555
H5G C3G 1_555 1_555
H8G C5G 1_555 1_555
H9G C5G 1_555 1_555
H10G C5G 1_555 1_555
I1B_2 Cu1G_2 1_555 1_555
I1G_2 Cu1G_2 1_555 1_555
Cr1 S3 1_555 1_555
C6 S3B 1_555 1_555
Cu1E I1E 1_555 1_555
S2B C1B 1_555 1_555
S3B Cu1B 1_555 1_555
S3E Cr1E 1_555 1_555
C1E S2E 1_555 1_555
C6E S3G 1_555 1_555
I1G Cu1G 1_555 1_555
S2G C1G 1_555 1_555
S3G Cu1G_2 1_555 1_555

#END
