
#######################################################################
#
#                 Cambridge Crystallographic Data Centre
#                                CCDC 
#
#######################################################################
#
# If this CIF has been generated from an entry in the Cambridge 
# Structural Database, then it will include bibliographic, chemical, 
# crystal, experimental, refinement or atomic coordinate data resulting 
# from the CCDC's data processing and validation procedures.
#
#######################################################################

data_KEBRIS
_symmetry_cell_setting           orthorhombic
_symmetry_space_group_name_H-M   'C 2 2 21'
_symmetry_Int_Tables_number      20
_space_group_name_Hall           'C 2n 2'
loop_
_symmetry_equiv_pos_site_id
_symmetry_equiv_pos_as_xyz
1 x,y,z
2 1/2+x,1/2+y,z
3 x,-y,-z
4 1/2+x,1/2-y,-z
5 -x,y,1/2-z
6 1/2-x,1/2+y,1/2-z
7 -x,-y,1/2+z
8 1/2-x,1/2-y,1/2+z
_cell_length_a                   18.26(2)
_cell_length_b                   11.983(7)
_cell_length_c                   14.473(5)
_cell_angle_alpha                90
_cell_angle_beta                 90
_cell_angle_gamma                90
_cell_volume                     3166.83
loop_
_atom_site_label
_atom_site_type_symbol
_atom_site_fract_x
_atom_site_fract_y
_atom_site_fract_z
I1 I 0.0000 0.4693(2) 0.2500
I2 I 0.1240(1) 0.7850(2) 0.2442(2)
Cu1 Cu 0.0966(2) 0.5982(4) 0.3221(2)
Cu2 Cu 0.0098(6) 0.8195(7) 0.3206(6)
N1 N -0.011(4) 0.911(4) 0.437(4)
C1 C -0.012(3) 0.981(4) 0.459(3)
Cr1 Cr 0.1890(3) 0.5000 0.5000
S1 S 0.2030(4) 0.4796(5) 0.3357(5)
S2 S 0.2795(4) 0.6377(7) 0.4549(5)
C2 C 0.267(1) 0.588(3) 0.347(2)
N2 N 0.307(1) 0.622(2) 0.276(1)
C3 C 0.295(2) 0.562(3) 0.179(2)
C4 C 0.344(2) 0.655(3) 0.123(2)
C5 C 0.404(2) 0.673(2) 0.186(2)
C6 C 0.367(1) 0.691(2) 0.277(2)
S3 S 0.0833(4) 0.6228(7) 0.4858(5)
C7 C 0.031(2) 0.5000 0.5000
N3 N -0.040(2) 0.5000 0.5000
C8 C -0.082(1) 0.392(3) 0.504(2)
C9 C -0.160(1) 0.443(2) 0.480(2)
H1 H 0.318 0.489 0.176
H2 H 0.247 0.559 0.160
H3 H 0.362 0.629 0.064
H4 H 0.319 0.723 0.114
H5 H 0.436 0.606 0.188
H6 H 0.436 0.733 0.168
H7 H 0.405 0.669 0.326
H8 H 0.361 0.767 0.286
H9 H -0.061 0.337 0.455
H10 H -0.076 0.351 0.560
H11 H -0.168 0.451 0.414
H12 H -0.199 0.398 0.504
Cu1D Cu -0.0966(2) 0.5982(4) 0.1779(2)
Cu2D Cu -0.0098(6) 0.8195(7) 0.1794(6)
I2D I -0.1240(1) 0.7850(2) 0.2558(2)
C1B C -0.012(3) 1.019(4) 0.541(3)
S1B S 0.2030(4) 0.5204(5) 0.6643(5)
S2B S 0.2795(4) 0.3623(7) 0.5451(5)
S3B S 0.0833(4) 0.3772(7) 0.5142(5)
C8B C -0.082(1) 0.608(3) 0.496(2)
C9B C -0.160(1) 0.557(2) 0.520(2)
loop_
_geom_bond_atom_site_label_1
_geom_bond_atom_site_label_2
_geom_bond_site_symmetry_1
_geom_bond_site_symmetry_2
I1 Cu1 1_555 1_555
I2 Cu1 1_555 1_555
Cu1 S1 1_555 1_555
Cu2 I2 1_555 1_555
N1 Cu2 1_555 1_555
C1 N1 1_555 1_555
Cr1 S1 1_555 1_555
S1 C2 1_555 1_555
S2 Cr1 1_555 1_555
C2 S2 1_555 1_555
N2 C2 1_555 1_555
C3 N2 1_555 1_555
C4 C3 1_555 1_555
C5 C4 1_555 1_555
C6 N2 1_555 1_555
S3 Cu1 1_555 1_555
C7 S3 1_555 1_555
N3 C7 1_555 1_555
C8 N3 1_555 1_555
C9 C8 1_555 1_555
H1 C3 1_555 1_555
H2 C3 1_555 1_555
H3 C4 1_555 1_555
H4 C4 1_555 1_555
H5 C5 1_555 1_555
H6 C5 1_555 1_555
H7 C6 1_555 1_555
H8 C6 1_555 1_555
H9 C8 1_555 1_555
H10 C8 1_555 1_555
H11 C9 1_555 1_555
H12 C9 1_555 1_555
Cu1D I1 1_555 1_555
Cu2D I2 1_555 1_555
I2D Cu2 1_555 1_555
C1B C1 1_555 1_555
S1B Cr1 1_555 1_555
S2B Cr1 1_555 1_555
S3B Cr1 1_555 1_555
C8B N3 1_555 1_555
C9B C9 1_555 1_555
Cu2 Cu2D 1_555 1_555
Cr1 S3 1_555 1_555
C5 C6 1_555 1_555
C7 S3B 1_555 1_555
Cu1D I2D 1_555 1_555
Cu2D I2D 1_555 1_555
C8B C9B 1_555 1_555

#END
