
#######################################################################
#
#                 Cambridge Crystallographic Data Centre
#                                CCDC 
#
#######################################################################
#
# If this CIF has been generated from an entry in the Cambridge 
# Structural Database, then it will include bibliographic, chemical, 
# crystal, experimental, refinement or atomic coordinate data resulting 
# from the CCDC's data processing and validation procedures.
#
#######################################################################

data_KEBRAK
_symmetry_cell_setting           cubic
_symmetry_space_group_name_H-M   'I -4 3 d'
_symmetry_Int_Tables_number      220
_space_group_name_Hall           'I -4bd 2c 3'
loop_
_symmetry_equiv_pos_site_id
_symmetry_equiv_pos_as_xyz
1 x,y,z
2 1/2+x,1/2+y,1/2+z
3 z,x,y
4 y,z,x
5 1/2+z,1/2+x,1/2+y
6 1/2+y,1/2+z,1/2+x
7 1/2+x,1/2-y,-z
8 x,-y,1/2-z
9 1/2+z,1/2-x,-y
10 1/2+y,1/2-z,-x
11 z,-x,1/2-y
12 y,-z,1/2-x
13 -x,1/2+y,1/2-z
14 1/2-x,y,-z
15 -z,1/2+x,1/2-y
16 -y,1/2+z,1/2-x
17 1/2-z,x,-y
18 1/2-y,z,-x
19 1/2-x,-y,1/2+z
20 -x,1/2-y,z
21 1/2-z,-x,1/2+y
22 1/2-y,-z,1/2+x
23 -z,1/2-x,y
24 -y,1/2-z,x
25 1/4+y,1/4+x,1/4+z
26 3/4+y,3/4+x,3/4+z
27 1/4+x,1/4+z,1/4+y
28 1/4+z,1/4+y,1/4+x
29 3/4+x,3/4+z,3/4+y
30 3/4+z,3/4+y,3/4+x
31 3/4-y,3/4+x,1/4-z
32 1/4-y,1/4+x,3/4-z
33 3/4-x,3/4+z,1/4-y
34 3/4-z,3/4+y,1/4-x
35 1/4-x,1/4+z,3/4-y
36 1/4-z,1/4+y,3/4-x
37 3/4+y,1/4-x,3/4-z
38 1/4+y,3/4-x,1/4-z
39 3/4+x,1/4-z,3/4-y
40 3/4+z,1/4-y,3/4-x
41 1/4+x,3/4-z,1/4-y
42 1/4+z,3/4-y,1/4-x
43 1/4-y,3/4-x,3/4+z
44 3/4-y,1/4-x,1/4+z
45 1/4-x,3/4-z,3/4+y
46 1/4-z,3/4-y,3/4+x
47 3/4-x,1/4-z,1/4+y
48 3/4-z,1/4-y,1/4+x
_cell_length_a                   23.71(1)
_cell_length_b                   23.71(1)
_cell_length_c                   23.71(1)
_cell_angle_alpha                90
_cell_angle_beta                 90
_cell_angle_gamma                90
_cell_volume                     13328.9
loop_
_atom_site_label
_atom_site_type_symbol
_atom_site_fract_x
_atom_site_fract_y
_atom_site_fract_z
I1 I 0.0055(2) -0.0864(2) 0.2196(2)
Cu1 Cu 0.0230(4) 0.0183(3) 0.1972(3)
Rh1 Rh 0.0760(2) 0.0760(2) 0.0760(2)
S1 S 0.1147(7) 0.0395(7) 0.1601(7)
S2 S -0.0163(7) 0.0535(7) 0.1088(7)
C1 C 0.130(2) -0.020(2) 0.125(2)
N1 N 0.157(2) -0.063(2) 0.147(2)
C2 C 0.159(2) -0.116(3) 0.117(3)
C3 C 0.168(3) -0.158(3) 0.166(3)
C4 C 0.198(3) -0.122(3) 0.212(3)
C5 C 0.172(2) -0.058(3) 0.210(3)
H1 H 0.124 -0.127 0.096
H2 H 0.188 -0.121 0.090
H3 H 0.130 -0.170 0.179
H4 H 0.187 -0.191 0.155
H5 H 0.190 -0.143 0.249
H6 H 0.237 -0.126 0.206
H7 H 0.141 -0.053 0.235
H8 H 0.200 -0.031 0.218
Cu1G Cu 0.0230(4) -0.0183(3) 0.3028(3)
I1G I 0.0055(2) 0.0864(2) 0.2804(2)
S1B S 0.1601(7) 0.1147(7) 0.0395(7)
S1C S 0.0395(7) 0.1601(7) 0.1147(7)
S2B S 0.1088(7) -0.0163(7) 0.0535(7)
S2C S 0.0535(7) 0.1088(7) -0.0163(7)
C1C C -0.020(2) 0.125(2) 0.130(2)
Cu1B Cu 0.1972(3) 0.0230(4) 0.0183(3)
C1B C 0.125(2) 0.130(2) -0.020(2)
Cu1C Cu 0.0183(3) 0.1972(3) 0.0230(4)
N1C N -0.063(2) 0.147(2) 0.157(2)
I1B I 0.2196(2) 0.0055(2) -0.0864(2)
I1P I 0.2804(2) 0.0055(2) 0.0864(2)
Cu1P Cu 0.3028(3) 0.0230(4) -0.0183(3)
N1B N 0.147(2) 0.157(2) -0.063(2)
I1C I -0.0864(2) 0.2196(2) 0.0055(2)
I1W I 0.0864(2) 0.2804(2) 0.0055(2)
Cu1W Cu -0.0183(3) 0.3028(3) 0.0230(4)
C2C C -0.116(3) 0.117(3) 0.159(2)
C5C C -0.058(3) 0.210(3) 0.172(2)
C2B C 0.117(3) 0.159(2) -0.116(3)
C5B C 0.210(3) 0.172(2) -0.058(3)
C3C C -0.158(3) 0.166(3) 0.168(3)
H1C H -0.127 0.096 0.124
H2C H -0.121 0.090 0.188
C4C C -0.122(3) 0.212(3) 0.198(3)
H7C H -0.053 0.235 0.141
H8C H -0.031 0.218 0.200
C3B C 0.166(3) 0.168(3) -0.158(3)
H1B H 0.096 0.124 -0.127
H2B H 0.090 0.188 -0.121
C4B C 0.212(3) 0.198(3) -0.122(3)
H7B H 0.235 0.141 -0.053
H8B H 0.218 0.200 -0.031
H3C H -0.170 0.179 0.130
H4C H -0.191 0.155 0.187
H5C H -0.143 0.249 0.190
H6C H -0.126 0.206 0.237
H3B H 0.179 0.130 -0.170
H4B H 0.155 0.187 -0.191
H5B H 0.249 0.190 -0.143
H6B H 0.206 0.237 -0.126
loop_
_geom_bond_atom_site_label_1
_geom_bond_atom_site_label_2
_geom_bond_site_symmetry_1
_geom_bond_site_symmetry_2
I1 Cu1 1_555 1_555
Cu1 S1 1_555 1_555
Rh1 S1 1_555 1_555
S1 C1 1_555 1_555
S2 Cu1 1_555 1_555
C1 N1 1_555 1_555
N1 C2 1_555 1_555
C2 C3 1_555 1_555
C3 C4 1_555 1_555
C4 C5 1_555 1_555
C5 N1 1_555 1_555
H1 C2 1_555 1_555
H2 C2 1_555 1_555
H3 C3 1_555 1_555
H4 C3 1_555 1_555
H5 C4 1_555 1_555
H6 C4 1_555 1_555
H7 C5 1_555 1_555
H8 C5 1_555 1_555
Cu1G I1 1_555 1_555
I1G Cu1 1_555 1_555
S1B Rh1 1_555 1_555
S1C Rh1 1_555 1_555
S2B Rh1 1_555 1_555
S2C Rh1 1_555 1_555
C1C S2 1_555 1_555
Cu1B S1B 1_555 1_555
C1B S1B 1_555 1_555
Cu1C S1C 1_555 1_555
N1C C1C 1_555 1_555
I1B Cu1B 1_555 1_555
I1P Cu1B 1_555 1_555
Cu1P Cu1B 1_555 1_555
N1B C1B 1_555 1_555
I1C Cu1C 1_555 1_555
I1W Cu1C 1_555 1_555
Cu1W Cu1C 1_555 1_555
C2C N1C 1_555 1_555
C5C N1C 1_555 1_555
C2B N1B 1_555 1_555
C5B N1B 1_555 1_555
C3C C2C 1_555 1_555
H1C C2C 1_555 1_555
H2C C2C 1_555 1_555
C4C C5C 1_555 1_555
H7C C5C 1_555 1_555
H8C C5C 1_555 1_555
C3B C2B 1_555 1_555
H1B C2B 1_555 1_555
H2B C2B 1_555 1_555
C4B C5B 1_555 1_555
H7B C5B 1_555 1_555
H8B C5B 1_555 1_555
H3C C3C 1_555 1_555
H4C C3C 1_555 1_555
H5C C4C 1_555 1_555
H6C C4C 1_555 1_555
H3B C3B 1_555 1_555
H4B C3B 1_555 1_555
H5B C4B 1_555 1_555
H6B C4B 1_555 1_555
Cu1 Cu1G 1_555 1_555
Rh1 S2 1_555 1_555
C1 S2B 1_555 1_555
Cu1G I1G 1_555 1_555
S1C C1C 1_555 1_555
S2B Cu1B 1_555 1_555
S2C C1B 1_555 1_555
S2C Cu1C 1_555 1_555
I1B Cu1P 1_555 1_555
I1P Cu1P 1_555 1_555
I1C Cu1W 1_555 1_555
I1W Cu1W 1_555 1_555
C3C C4C 1_555 1_555
C3B C4B 1_555 1_555

#END
