
#######################################################################
#
#                 Cambridge Crystallographic Data Centre
#                                CCDC 
#
#######################################################################
#
# If this CIF has been generated from an entry in the Cambridge 
# Structural Database, then it will include bibliographic, chemical, 
# crystal, experimental, refinement or atomic coordinate data resulting 
# from the CCDC's data processing and validation procedures.
#
#######################################################################

data_KEBSOA
_symmetry_cell_setting           monoclinic
_symmetry_space_group_name_H-M   'C c'
_symmetry_Int_Tables_number      9
_space_group_name_Hall           'C -2yc'
loop_
_symmetry_equiv_pos_site_id
_symmetry_equiv_pos_as_xyz
1 x,y,z
2 x,-y,1/2+z
3 1/2+x,1/2+y,z
4 1/2+x,1/2-y,1/2+z
_cell_length_a                   11.5289(3)
_cell_length_b                   18.0383(7)
_cell_length_c                   7.3507(3)
_cell_angle_alpha                90
_cell_angle_beta                 119.5680(10)
_cell_angle_gamma                90
_cell_volume                     1329.59
loop_
_atom_site_label
_atom_site_type_symbol
_atom_site_fract_x
_atom_site_fract_y
_atom_site_fract_z
La1 La 0.37488(11) 0.16762(2) 0.35169(12)
C1 C 1.0057(16) 0.0086(8) 1.013(2)
C2 C 0.9381(15) 0.0758(9) 0.932(2)
H1 H 0.9812 0.1206 0.9870
C3 C 0.8067(18) 0.0752(9) 0.770(2)
C4 C 0.742(2) 0.0072(7) 0.692(3)
H2 H 0.6535 0.0066 0.5844
C5 C 0.8059(15) -0.0570(9) 0.771(2)
C6 C 0.9369(18) -0.0577(10) 0.930(2)
H3 H 0.9798 -0.1028 0.9824
C7 C 0.7312(11) 0.1462(5) 0.6788(16)
C8 C 0.7399(11) -0.1326(5) 0.6975(16)
C9 C 1.1486(11) 0.0072(6) 1.1863(16)
O1 O 0.4776(9) 0.2386(4) 0.1526(12)
H4 H 0.507(14) 0.205(5) 0.110(16)
H5 H 0.425(11) 0.261(6) 0.045(10)
O2 O 0.8076(8) -0.1901(4) 0.7691(12)
O3 O 0.1977(9) 0.1794(4) -0.0367(13)
H6 H 0.151(12) 0.208(5) -0.131(12)
H7 H 0.184(14) 0.139(3) -0.095(15)
O4 O 0.6164(8) -0.1331(4) 0.5716(12)
O5 O 0.4206(8) 0.0682(4) 0.1344(11)
H8 H 0.355(7) 0.066(8) 0.018(8)
H9 H 0.484(7) 0.071(8) 0.114(17)
O6 O 0.6219(8) 0.1437(4) 0.5117(12)
O7 O 0.7818(8) 0.2052(4) 0.7774(11)
O8 O 0.4954(8) 0.2501(4) 0.6732(13)
H10 H 0.4411 0.2678 0.7025
H11 H 0.569(2) 0.263(7) 0.769(12)
O9 O 0.2225(9) 0.1860(4) 0.5230(12)
H12 H 0.2455 0.2236 0.5952
H13 H 0.169(10) 0.201(3) 0.405(5)
O10 O 1.2081(8) 0.0687(4) 1.2567(11)
O11 O 0.4550(10) 0.0854(4) 0.6725(12)
H14 H 0.5025 0.1096 0.7779
H15 H 0.482(11) 0.0427(18) 0.702(10)
O12 O 1.2022(8) -0.0537(4) 1.2532(13)
La1C La 0.87488(11) 0.33238(2) 0.85169(12)
La1_2 La 1.37488(11) 0.16762(2) 1.35169(12)
O7C O 0.2818(8) 0.2948(4) 0.2774(11)
O10_2 O 0.2081(8) 0.0687(4) 0.2567(11)
loop_
_geom_bond_atom_site_label_1
_geom_bond_atom_site_label_2
_geom_bond_site_symmetry_1
_geom_bond_site_symmetry_2
La1 O1 1_555 1_555
C1 C2 1_555 1_555
C2 H1 1_555 1_555
C3 C2 1_555 1_555
C4 C3 1_555 1_555
H2 C4 1_555 1_555
C5 C4 1_555 1_555
C6 C1 1_555 1_555
H3 C6 1_555 1_555
C7 C3 1_555 1_555
C8 C5 1_555 1_555
C9 C1 1_555 1_555
O1 H4 1_555 1_555
H5 O1 1_555 1_555
O2 C8 1_555 1_555
O3 La1 1_555 1_555
H6 O3 1_555 1_555
H7 O3 1_555 1_555
O4 C8 1_555 1_555
O5 La1 1_555 1_555
H8 O5 1_555 1_555
H9 O5 1_555 1_555
O6 La1 1_555 1_555
O7 C7 1_555 1_555
O8 La1 1_555 1_555
H10 O8 1_555 1_555
H11 O8 1_555 1_555
O9 La1 1_555 1_555
H12 O9 1_555 1_555
H13 O9 1_555 1_555
O10 C9 1_555 1_555
O11 La1 1_555 1_555
H14 O11 1_555 1_555
H15 O11 1_555 1_555
O12 C9 1_555 1_555
La1C O7 1_555 1_555
La1_2 O10 1_555 1_555
O7C La1 1_555 1_555
O10_2 La1 1_555 1_555
C5 C6 1_555 1_555
C7 O6 1_555 1_555

#END
