
#######################################################################
#
#                 Cambridge Crystallographic Data Centre
#                                CCDC 
#
#######################################################################
#
# If this CIF has been generated from an entry in the Cambridge 
# Structural Database, then it will include bibliographic, chemical, 
# crystal, experimental, refinement or atomic coordinate data resulting 
# from the CCDC's data processing and validation procedures.
#
#######################################################################

data_KEBTAN
_symmetry_cell_setting           triclinic
_symmetry_space_group_name_H-M   'P -1'
_symmetry_Int_Tables_number      2
_space_group_name_Hall           '-P 1'
loop_
_symmetry_equiv_pos_site_id
_symmetry_equiv_pos_as_xyz
1 x,y,z
2 -x,-y,-z
_cell_length_a                   6.2122(8)
_cell_length_b                   10.2277(13)
_cell_length_c                   14.9426(16)
_cell_angle_alpha                97.568(3)
_cell_angle_beta                 93.046(5)
_cell_angle_gamma                105.951(6)
_cell_volume                     900.911
loop_
_atom_site_label
_atom_site_type_symbol
_atom_site_fract_x
_atom_site_fract_y
_atom_site_fract_z
Cd1 Cd 0.03469(4) 0.67942(2) 0.352600(14)
Cl1 Cl -0.1641(2) 0.13967(11) -0.07133(6)
O1 O 0.2834(4) 0.5568(2) 0.32408(15)
N1 N -0.1753(5) 0.6039(3) 0.21314(18)
C1 C 0.1834(5) 0.4458(3) 0.3509(2)
H1 H 0.255(8) 0.236(5) 0.027(3)
O2 O -0.0131(4) 0.4234(2) 0.37378(16)
C2 C 0.3181(6) 0.3436(3) 0.3587(2)
O3 O 0.3497(4) -0.1296(2) 0.32371(17)
C3 C 0.1854(5) 0.1940(3) 0.3216(2)
H2 H 0.048(6) 0.174(4) 0.358(2)
O4 O 0.0191(4) -0.0936(2) 0.33368(16)
C4 C 0.3393(6) 0.1031(3) 0.3363(2)
O5 O 0.1928(4) 0.7419(3) 0.49870(15)
H3 H 0.2140 0.8268 0.5195
H4 H 0.1496 0.7050 0.5319
C5 C 0.2284(5) -0.0498(3) 0.3288(2)
O6 O -0.3020(4) 0.6784(3) 0.41609(16)
C6 C 0.0977(6) 0.1769(3) 0.2229(2)
C7 C 0.2389(7) 0.2235(4) 0.1579(3)
H5 H 0.405(8) 0.262(5) 0.177(3)
C8 C 0.1605(8) 0.2107(4) 0.0687(3)
C9 C -0.0647(7) 0.1508(4) 0.0419(2)
C10 C -0.2111(7) 0.1008(5) 0.1036(3)
H6 H -0.359(8) 0.059(5) 0.089(3)
C11 C -0.1268(6) 0.1142(5) 0.1935(3)
H7 H -0.228(8) 0.078(5) 0.234(3)
C12 C -0.3397(6) 0.6595(4) 0.1926(2)
H8 H -0.4185 0.6200 0.3922
H9 H -0.3056 0.7629 0.4319
H12 H -0.360(6) 0.731(4) 0.237(3)
C13 C -0.4729(6) 0.6195(4) 0.1103(2)
H13 H -0.569(7) 0.660(4) 0.100(3)
C14 C -0.4330(5) 0.5213(3) 0.0453(2)
C15 C -0.2611(3) 0.4634(2) 0.06660(13)
H14 H -0.216(6) 0.395(4) 0.025(2)
C16 C -0.1396(6) 0.5071(4) 0.1517(2)
H15 H -0.027(6) 0.470(4) 0.167(3)
H16 H 0.368(6) 0.354(4) 0.426(3)
H17 H 0.417(6) 0.130(4) 0.399(3)
H18 H 0.447(7) 0.368(4) 0.328(3)
H19 H 0.444(7) 0.116(4) 0.299(3)
Cd1_2 Cd 0.03469(4) 1.67942(2) 0.352600(14)
Cd1_3 Cd 0.03469(4) -0.32058(2) 0.352600(14)
Cd1A Cd -1.03469(4) 0.32058(2) -0.352600(14)
Cl1_2 Cl -0.1641(2) 1.13967(11) -0.07133(6)
O1_2 O 0.2834(4) 1.5568(2) 0.32408(15)
N1A N -0.8247(5) 0.3961(3) -0.21314(18)
N1_2 N -0.1753(5) 1.6039(3) 0.21314(18)
C1_2 C 0.1834(5) 1.4458(3) 0.3509(2)
H1_2 H 0.255(8) 1.236(5) 0.027(3)
O2_2 O -0.0131(4) 1.4234(2) 0.37378(16)
C2_2 C 0.3181(6) 1.3436(3) 0.3587(2)
O3_2 O 0.3497(4) 0.8704(2) 0.32371(17)
O3_3 O 0.3497(4) 1.8704(2) 0.32371(17)
C3_2 C 0.1854(5) 1.1940(3) 0.3216(2)
H2_2 H 0.048(6) 1.174(4) 0.358(2)
O4_2 O 0.0191(4) 0.9064(2) 0.33368(16)
O4_3 O 0.0191(4) 1.9064(2) 0.33368(16)
C4_2 C 0.3393(6) 1.1031(3) 0.3363(2)
O5_2 O 0.1928(4) 1.7419(3) 0.49870(15)
H3_2 H 0.2140 1.8268 0.5195
H4_2 H 0.1496 1.7050 0.5319
C5_2 C 0.2284(5) 0.9502(3) 0.3288(2)
O6_2 O -0.3020(4) 1.6784(3) 0.41609(16)
C6_2 C 0.0977(6) 1.1769(3) 0.2229(2)
C7_2 C 0.2389(7) 1.2235(4) 0.1579(3)
H5_2 H 0.405(8) 1.262(5) 0.177(3)
C8_2 C 0.1605(8) 1.2107(4) 0.0687(3)
C9_2 C -0.0647(7) 1.1508(4) 0.0419(2)
C10_2 C -0.2111(7) 1.1008(5) 0.1036(3)
H6_2 H -0.359(8) 1.059(5) 0.089(3)
C11_2 C -0.1268(6) 1.1142(5) 0.1935(3)
H7_2 H -0.228(8) 1.078(5) 0.234(3)
C12A C -0.6603(6) 0.3405(4) -0.1926(2)
H8_2 H -0.4185 1.6200 0.3922
H9_2 H -0.3056 1.7629 0.4319
H12A H -0.640(6) 0.269(4) -0.237(3)
C13A C -0.5271(6) 0.3805(4) -0.1103(2)
H13A H -0.431(7) 0.340(4) -0.100(3)
C14A C -0.5670(5) 0.4787(3) -0.0453(2)
C15A C -0.7389(3) 0.5366(2) -0.06660(13)
H14A H -0.784(6) 0.605(4) -0.025(2)
C16A C -0.8604(6) 0.4929(4) -0.1517(2)
H15A H -0.973(6) 0.530(4) -0.167(3)
H16_2 H 0.368(6) 1.354(4) 0.426(3)
H17_2 H 0.417(6) 1.130(4) 0.399(3)
H18_2 H 0.447(7) 1.368(4) 0.328(3)
H19_2 H 0.444(7) 1.116(4) 0.299(3)
H10 H 0.4012 1.0586 0.5982
H11 H 0.1562 1.0251 0.5933
O7 O 0.2720(3) 1.0236(2) 0.55619(13)
loop_
_geom_bond_atom_site_label_1
_geom_bond_atom_site_label_2
_geom_bond_site_symmetry_1
_geom_bond_site_symmetry_2
Cd1 O1 1_555 1_555
Cl1 C9 1_555 1_555
O1 C1 1_555 1_555
N1 Cd1 1_555 1_555
C1 O2 1_555 1_555
H1 C8 1_555 1_555
O2 Cd1 1_555 1_555
C2 C1 1_555 1_555
O3 C5 1_555 1_555
C3 C2 1_555 1_555
H2 C3 1_555 1_555
O4 C5 1_555 1_555
C4 C3 1_555 1_555
O5 Cd1 1_555 1_555
H3 O5 1_555 1_555
H4 O5 1_555 1_555
C5 C4 1_555 1_555
O6 Cd1 1_555 1_555
C6 C3 1_555 1_555
C7 C6 1_555 1_555
H5 C7 1_555 1_555
C8 C7 1_555 1_555
C9 C8 1_555 1_555
C10 C9 1_555 1_555
H6 C10 1_555 1_555
C11 C6 1_555 1_555
H7 C11 1_555 1_555
C12 N1 1_555 1_555
H8 O6 1_555 1_555
H9 O6 1_555 1_555
H10 O7 1_555 1_555
H11 O7 1_555 1_555
H12 C12 1_555 1_555
C13 C12 1_555 1_555
H13 C13 1_555 1_555
C14 C13 1_555 1_555
C15 C14 1_555 1_555
H14 C15 1_555 1_555
C16 N1 1_555 1_555
H15 C16 1_555 1_555
H16 C2 1_555 1_555
H17 C4 1_555 1_555
H18 C2 1_555 1_555
H19 C4 1_555 1_555
Cd1_2 O1_2 1_555 1_555
Cd1_3 O3 1_555 1_555
Cd1A N1A 1_555 1_555
Cl1_2 C9_2 1_555 1_555
O1_2 C1_2 1_555 1_555
N1A C12A 1_555 1_555
N1_2 Cd1_2 1_555 1_555
C1_2 O2_2 1_555 1_555
H1_2 C8_2 1_555 1_555
O2_2 Cd1_2 1_555 1_555
C2_2 C1_2 1_555 1_555
O3_2 Cd1 1_555 1_555
O3_3 Cd1_2 1_555 1_555
C3_2 C2_2 1_555 1_555
H2_2 C3_2 1_555 1_555
O4_2 Cd1 1_555 1_555
O4_3 Cd1_2 1_555 1_555
C4_2 C3_2 1_555 1_555
O5_2 Cd1_2 1_555 1_555
H3_2 O5_2 1_555 1_555
H4_2 O5_2 1_555 1_555
C5_2 O3_2 1_555 1_555
O6_2 Cd1_2 1_555 1_555
C6_2 C3_2 1_555 1_555
C7_2 C6_2 1_555 1_555
H5_2 C7_2 1_555 1_555
C8_2 C7_2 1_555 1_555
C9_2 C8_2 1_555 1_555
C10_2 C9_2 1_555 1_555
H6_2 C10_2 1_555 1_555
C11_2 C6_2 1_555 1_555
H7_2 C11_2 1_555 1_555
C12A H12A 1_555 1_555
H8_2 O6_2 1_555 1_555
H9_2 O6_2 1_555 1_555
C13A C12A 1_555 1_555
H13A C13A 1_555 1_555
C14A C14 1_555 1_555
C15A C14A 1_555 1_555
H14A C15A 1_555 1_555
C16A N1A 1_555 1_555
H15A C16A 1_555 1_555
H16_2 C2_2 1_555 1_555
H17_2 C4_2 1_555 1_555
H18_2 C2_2 1_555 1_555
H19_2 C4_2 1_555 1_555
O4 Cd1_3 1_555 1_555
C10 C11 1_555 1_555
C15 C16 1_555 1_555
O4_2 C5_2 1_555 1_555
C4_2 C5_2 1_555 1_555
C10_2 C11_2 1_555 1_555
C13A C14A 1_555 1_555
C15A C16A 1_555 1_555

#END
