
#######################################################################
#
#                 Cambridge Crystallographic Data Centre
#                                CCDC 
#
#######################################################################
#
# If this CIF has been generated from an entry in the Cambridge 
# Structural Database, then it will include bibliographic, chemical, 
# crystal, experimental, refinement or atomic coordinate data resulting 
# from the CCDC's data processing and validation procedures.
#
#######################################################################

data_KEBWEU
_symmetry_cell_setting           triclinic
_symmetry_space_group_name_H-M   'P -1'
_symmetry_Int_Tables_number      2
_space_group_name_Hall           '-P 1'
loop_
_symmetry_equiv_pos_site_id
_symmetry_equiv_pos_as_xyz
1 x,y,z
2 -x,-y,-z
_cell_length_a                   8.9849(11)
_cell_length_b                   11.2108(11)
_cell_length_c                   13.6744(19)
_cell_angle_alpha                74.024(2)
_cell_angle_beta                 81.549(2)
_cell_angle_gamma                80.0350(10)
_cell_volume                     1297.02
loop_
_atom_site_label
_atom_site_type_symbol
_atom_site_fract_x
_atom_site_fract_y
_atom_site_fract_z
Cu1 Cu 0.62347(4) 0.78206(3) 0.83378(2)
V1 V -0.01015(5) 0.95520(4) 0.78379(3)
P1 P 0.30053(7) 0.79662(6) 0.71859(5)
P2 P 0.16155(7) 1.11815(7) 0.37230(5)
O1 O 0.4109(2) 0.73156(17) 0.79443(13)
O2 O 0.1998(2) 0.70144(18) 0.70888(15)
O3 O 0.1956(2) 0.91055(17) 0.74679(15)
O4 O -0.0395(2) 1.08117(19) 0.82407(17)
O5 O 0.3033(2) 1.16011(19) 0.30598(14)
O6 O -0.0842(2) 0.84505(19) 0.87133(15)
O7 O 0.1080(2) 1.01484(18) 0.33240(15)
O8 O 0.0329(2) 1.22146(19) 0.38136(15)
N1 N 0.4907(3) 0.9443(2) 0.85342(17)
N2 N 0.5478(3) 0.7303(2) 0.97650(16)
N3 N 0.7523(3) 0.6114(2) 0.87499(17)
C1 C 0.4694(4) 1.0536(2) 0.7824(2)
H1 H 0.5365 1.0665 0.7211
C2 C 0.3531(4) 1.1484(3) 0.7954(2)
H2 H 0.3399 1.2247 0.7437
C3 C 0.2567(4) 1.1297(3) 0.8850(2)
H3 H 0.1760 1.1933 0.8956
C4 C 0.2785(4) 1.0171(3) 0.9599(2)
H4 H 0.2136 1.0029 1.0222
C5 C 0.3962(4) 0.9267(2) 0.9415(2)
C6 C 0.4342(3) 0.8040(2) 1.01455(19)
C7 C 0.3669(4) 0.7645(3) 1.1138(2)
H5 H 0.2845 0.8166 1.1398
C8 C 0.4216(4) 0.6465(2) 1.1759(2)
C9 C 0.5395(3) 0.5719(2) 1.13269(19)
H6 H 0.5782 0.4913 1.1718
C10 C 0.5999(3) 0.6162(2) 1.03214(19)
C11 C 0.7220(3) 0.5489(3) 0.9746(2)
C12 C 0.8009(3) 0.4336(3) 1.0171(2)
H7 H 0.7781 0.3918 1.0869
C13 C 0.9149(4) 0.3798(4) 0.9553(3)
H8 H 0.9706 0.3002 0.9824
C14 C 0.9460(4) 0.4433(4) 0.8546(3)
H9 H 1.0239 0.4082 0.8115
C15 C 0.8619(3) 0.5594(3) 0.8166(2)
H10 H 0.8834 0.6028 0.7471
C16 C 0.3563(4) 0.6036(3) 1.2833(2)
C17 C 0.2501(4) 0.6776(3) 1.3313(2)
H11 H 0.2164 0.7607 1.2945
C18 C 0.1902(4) 0.6349(3) 1.4319(2)
H12 H 0.1160 0.6894 1.4619
C19 C 0.2344(6) 0.5178(3) 1.4888(2)
C20 C 0.3356(14) 0.4443(5) 1.4408(4)
H13 H 0.3675 0.3607 1.4775
C21 C 0.3957(13) 0.4851(5) 1.3398(4)
H14 H 0.4662 0.4286 1.3095
C22 C 0.1698(7) 0.4714(3) 1.5986(3)
H15 H 0.1515 0.3845 1.6111
H16 H 0.0738 0.5241 1.6117
H17 H 0.2421 0.4756 1.6443
C23 C 0.3095(3) 0.9091(3) 0.5030(2)
H18 H 0.3814 0.9150 0.4401
H19 H 0.2401 0.8493 0.5034
C24 C 0.2160(3) 1.0377(3) 0.4980(2)
H20 H 0.2759 1.0902 0.5201
H21 H 0.1232 1.0274 0.5467
C25 C 0.3999(3) 0.8561(3) 0.5960(2)
H22 H 0.4544 0.9231 0.6018
H23 H 0.4780 0.7877 0.5811
H24 H 0.108(5) 0.735(4) 0.668(3)
Cu1A Cu 0.37653(4) 1.21794(3) 0.16622(2)
V1A V 0.01015(5) 1.04480(4) 0.21621(3)
O5A O 0.6967(2) 0.83989(19) 0.69402(14)
O7A O -0.1080(2) 0.98516(18) 0.66760(15)
loop_
_geom_bond_atom_site_label_1
_geom_bond_atom_site_label_2
_geom_bond_site_symmetry_1
_geom_bond_site_symmetry_2
Cu1 O1 1_555 1_555
V1 O3 1_555 1_555
P1 O1 1_555 1_555
P2 O5 1_555 1_555
O2 P1 1_555 1_555
O3 P1 1_555 1_555
O4 V1 1_555 1_555
O5 Cu1A 1_555 1_555
O6 V1 1_555 1_555
O7 P2 1_555 1_555
O8 P2 1_555 1_555
N1 Cu1 1_555 1_555
N2 Cu1 1_555 1_555
N3 Cu1 1_555 1_555
C1 N1 1_555 1_555
H1 C1 1_555 1_555
C2 C1 1_555 1_555
H2 C2 1_555 1_555
C3 C2 1_555 1_555
H3 C3 1_555 1_555
C4 C3 1_555 1_555
H4 C4 1_555 1_555
C5 N1 1_555 1_555
C6 N2 1_555 1_555
C7 C6 1_555 1_555
H5 C7 1_555 1_555
C8 C7 1_555 1_555
C9 C8 1_555 1_555
H6 C9 1_555 1_555
C10 N2 1_555 1_555
C11 N3 1_555 1_555
C12 C11 1_555 1_555
H7 C12 1_555 1_555
C13 C12 1_555 1_555
H8 C13 1_555 1_555
C14 C13 1_555 1_555
H9 C14 1_555 1_555
C15 N3 1_555 1_555
H10 C15 1_555 1_555
C16 C8 1_555 1_555
C17 C16 1_555 1_555
H11 C17 1_555 1_555
C18 C17 1_555 1_555
H12 C18 1_555 1_555
C19 C18 1_555 1_555
C20 C19 1_555 1_555
H13 C20 1_555 1_555
C21 C16 1_555 1_555
H14 C21 1_555 1_555
C22 C19 1_555 1_555
H15 C22 1_555 1_555
H16 C22 1_555 1_555
H17 C22 1_555 1_555
C23 H18 1_555 1_555
H19 C23 1_555 1_555
C24 P2 1_555 1_555
H20 C24 1_555 1_555
H21 C24 1_555 1_555
C25 P1 1_555 1_555
H22 C25 1_555 1_555
H23 C25 1_555 1_555
H24 O2 1_555 1_555
V1A O7 1_555 1_555
O5A Cu1 1_555 1_555
O7A V1 1_555 1_555
C4 C5 1_555 1_555
C5 C6 1_555 1_555
C9 C10 1_555 1_555
C10 C11 1_555 1_555
C14 C15 1_555 1_555
C20 C21 1_555 1_555
C23 C24 1_555 1_555
C23 C25 1_555 1_555

#END
