
#######################################################################
#
#                 Cambridge Crystallographic Data Centre
#                                CCDC 
#
#######################################################################
#
# If this CIF has been generated from an entry in the Cambridge 
# Structural Database, then it will include bibliographic, chemical, 
# crystal, experimental, refinement or atomic coordinate data resulting 
# from the CCDC's data processing and validation procedures.
#
#######################################################################

data_KEBWOE
_symmetry_cell_setting           monoclinic
_symmetry_space_group_name_H-M   'C 2/c'
_symmetry_Int_Tables_number      15
_space_group_name_Hall           '-C 2yn'
loop_
_symmetry_equiv_pos_site_id
_symmetry_equiv_pos_as_xyz
1 x,y,z
2 1/2+x,1/2+y,z
3 -x,y,1/2-z
4 1/2-x,1/2+y,1/2-z
5 -x,-y,-z
6 1/2-x,1/2-y,-z
7 x,-y,1/2+z
8 1/2+x,1/2-y,1/2+z
_cell_length_a                   27.7564(18)
_cell_length_b                   12.7861(8)
_cell_length_c                   17.6380(12)
_cell_angle_alpha                90
_cell_angle_beta                 125.3010(10)
_cell_angle_gamma                90
_cell_volume                     5108.68
loop_
_atom_site_label
_atom_site_type_symbol
_atom_site_fract_x
_atom_site_fract_y
_atom_site_fract_z
Cu1 Cu 0.071157(9) 0.367926(16) 0.502474(14)
P1 P 0.191020(19) 0.33905(4) 0.50435(3)
P2 P 0.37630(2) 0.66591(4) 0.87067(3)
O1 O 0.13238(5) 0.39002(10) 0.46502(8)
O2 O 0.38315(6) 0.78353(10) 0.88875(9)
O3 O 0.21312(6) 0.37898(10) 0.44441(9)
O4 O 0.19098(6) 0.21971(10) 0.50532(9)
O5 O 0.35723(7) 0.61349(11) 0.93048(10)
O6 O 0.42907(6) 0.60802(11) 0.88995(9)
N1 N 0.01119(7) 0.26791(12) 0.39463(10)
N2 N 0.01748(6) 0.46907(11) 0.40908(10)
N3 N 0.09961(7) 0.50411(12) 0.57918(10)
C1 C 0.00819(9) 0.16322(15) 0.39245(13)
H1 H 0.0363 0.1255 0.4472
C2 C -0.03422(9) 0.10724(15) 0.31370(13)
H2 H -0.0360 0.0332 0.3155
C3 C -0.07365(9) 0.16131(15) 0.23300(13)
H3 H -0.1023 0.1250 0.1777
C4 C -0.07072(8) 0.26968(14) 0.23392(12)
H4 H -0.0973 0.3086 0.1791
C5 C -0.02864(8) 0.32045(14) 0.31550(12)
C6 C -0.02466(7) 0.43554(14) 0.32381(12)
C7 C -0.06045(8) 0.50545(14) 0.25282(12)
H5 H -0.0892 0.4806 0.1919
C8 C -0.05401(8) 0.61297(14) 0.27135(13)
C9 C -0.09204(8) 0.68812(14) 0.19533(13)
C10 C -0.14408(9) 0.65410(15) 0.11279(14)
H6 H -0.1567 0.5838 0.1076
C11 C -0.17729(9) 0.72223(15) 0.03861(14)
H7 H -0.2127 0.6978 -0.0164
C12 C -0.15993(9) 0.82550(15) 0.04282(13)
C13 C -0.10890(9) 0.85972(15) 0.12605(14)
H8 H -0.0966 0.9303 0.1313
C14 C -0.07585(8) 0.79308(15) 0.20117(13)
H9 H -0.0418 0.8189 0.2574
C15 C -0.00993(8) 0.64593(14) 0.36228(13)
H10 H -0.0048 0.7182 0.3776
C16 C 0.02595(8) 0.57179(14) 0.42937(12)
C17 C 0.07540(8) 0.59202(14) 0.52772(12)
C18 C 0.09589(8) 0.69134(15) 0.56496(13)
H11 H 0.0788 0.7521 0.5275
C19 C 0.14212(9) 0.69905(16) 0.65872(14)
H12 H 0.1572 0.7658 0.6861
C20 C 0.16596(9) 0.60968(16) 0.71185(13)
H13 H 0.1970 0.6140 0.7762
C21 C 0.14363(8) 0.51332(15) 0.66922(12)
H14 H 0.1603 0.4516 0.7054
C22 C -0.19452(10) 0.89694(17) -0.03956(15)
H15 H -0.2131 0.9520 -0.0260
H16 H -0.2251 0.8567 -0.0937
H17 H -0.1679 0.9287 -0.0527
C23 C 0.24538(8) 0.38181(14) 0.62119(12)
H18 H 0.2327 0.3596 0.6609
H19 H 0.2831 0.3459 0.6442
C24 C 0.25643(8) 0.49976(15) 0.63238(12)
H20 H 0.2701 0.5229 0.5942
H21 H 0.2191 0.5367 0.6100
C25 C 0.30251(8) 0.52766(15) 0.73343(12)
H22 H 0.3397 0.4910 0.7547
H23 H 0.2891 0.5015 0.7711
C26 C 0.31530(8) 0.64530(14) 0.75183(12)
H24 H 0.2799 0.6819 0.7391
H25 H 0.3249 0.6743 0.7099
H28 H 0.2399(12) 0.351(2) 0.4555(18)
H29 H 0.3405(13) 0.652(2) 0.943(2)
Cu1C Cu 0.428843(9) 0.867926(16) 0.997526(14)
O2C O 0.11685(6) 0.28353(10) 0.61125(9)
O7 O 0.95121(7) 0.07976(13) 0.51146(13)
H26 H 0.9889(13) 0.086(2) 0.5386(18)
H27 H 0.9397(15) 0.037(3) 0.472(2)
loop_
_geom_bond_atom_site_label_1
_geom_bond_atom_site_label_2
_geom_bond_site_symmetry_1
_geom_bond_site_symmetry_2
Cu1 O1 1_555 1_555
P1 O1 1_555 1_555
P2 O2 1_555 1_555
O2 Cu1C 1_555 1_555
O3 P1 1_555 1_555
O4 P1 1_555 1_555
O5 P2 1_555 1_555
O6 P2 1_555 1_555
O7 H26 1_555 1_555
N1 Cu1 1_555 1_555
N2 Cu1 1_555 1_555
N3 Cu1 1_555 1_555
C1 N1 1_555 1_555
H1 C1 1_555 1_555
C2 C1 1_555 1_555
H2 C2 1_555 1_555
C3 C2 1_555 1_555
H3 C3 1_555 1_555
C4 C3 1_555 1_555
H4 C4 1_555 1_555
C5 N1 1_555 1_555
C6 N2 1_555 1_555
C7 C6 1_555 1_555
H5 C7 1_555 1_555
C8 C7 1_555 1_555
C9 C8 1_555 1_555
C10 C9 1_555 1_555
H6 C10 1_555 1_555
C11 C10 1_555 1_555
H7 C11 1_555 1_555
C12 C11 1_555 1_555
C13 C12 1_555 1_555
H8 C13 1_555 1_555
C14 C9 1_555 1_555
H9 C14 1_555 1_555
C15 C8 1_555 1_555
H10 C15 1_555 1_555
C16 N2 1_555 1_555
C17 N3 1_555 1_555
C18 C17 1_555 1_555
H11 C18 1_555 1_555
C19 C18 1_555 1_555
H12 C19 1_555 1_555
C20 C19 1_555 1_555
H13 C20 1_555 1_555
C21 N3 1_555 1_555
H14 C21 1_555 1_555
C22 C12 1_555 1_555
H15 C22 1_555 1_555
H16 C22 1_555 1_555
H17 C22 1_555 1_555
C23 P1 1_555 1_555
H18 C23 1_555 1_555
H19 C23 1_555 1_555
C24 C23 1_555 1_555
H20 C24 1_555 1_555
H21 C24 1_555 1_555
C25 C24 1_555 1_555
H22 C25 1_555 1_555
H23 C25 1_555 1_555
C26 P2 1_555 1_555
H24 C26 1_555 1_555
H25 C26 1_555 1_555
H27 O7 1_555 1_555
H28 O3 1_555 1_555
H29 O5 1_555 1_555
O2C Cu1 1_555 1_555
C4 C5 1_555 1_555
C5 C6 1_555 1_555
C13 C14 1_555 1_555
C15 C16 1_555 1_555
C16 C17 1_555 1_555
C20 C21 1_555 1_555
C25 C26 1_555 1_555

#END
