
#######################################################################
#
#                 Cambridge Crystallographic Data Centre
#                                CCDC 
#
#######################################################################
#
# If this CIF has been generated from an entry in the Cambridge 
# Structural Database, then it will include bibliographic, chemical, 
# crystal, experimental, refinement or atomic coordinate data resulting 
# from the CCDC's data processing and validation procedures.
#
#######################################################################

data_KEBWIY
_symmetry_cell_setting           monoclinic
_symmetry_space_group_name_H-M   'C 2/c'
_symmetry_Int_Tables_number      15
_space_group_name_Hall           '-C 2yn'
loop_
_symmetry_equiv_pos_site_id
_symmetry_equiv_pos_as_xyz
1 x,y,z
2 1/2+x,1/2+y,z
3 -x,y,1/2-z
4 1/2-x,1/2+y,1/2-z
5 -x,-y,-z
6 1/2-x,1/2-y,-z
7 x,-y,1/2+z
8 1/2+x,1/2-y,1/2+z
_cell_length_a                   14.6527(13)
_cell_length_b                   25.481(2)
_cell_length_c                   13.7823(12)
_cell_angle_alpha                90
_cell_angle_beta                 106.866(2)
_cell_angle_gamma                90
_cell_volume                     4924.49
loop_
_atom_site_label
_atom_site_type_symbol
_atom_site_fract_x
_atom_site_fract_y
_atom_site_fract_z
Cu1 Cu 0.24173(2) 0.122916(11) 0.73357(2)
V1 V 0.33127(3) 0.132427(16) 0.99661(3)
V2 V 0.29010(3) 0.320904(16) 0.84561(3)
P1 P 0.39378(4) 0.20469(2) 0.85014(5)
O1 O 0.34807(12) 0.17134(7) 0.75733(13)
O2 O 0.23769(12) 0.12249(7) 0.89725(14)
O3 O 0.30134(14) 0.16973(8) 1.09237(16)
O4 O 0.37867(14) 0.07696(8) 1.03992(15)
O5 O 0.41879(12) 0.17097(7) 0.94791(13)
O6 O 0.32938(13) 0.25018(7) 0.86235(15)
O7 O 0.37838(14) 0.36077(8) 0.88939(17)
O8 O 0.24579(16) 0.33244(8) 0.72574(15)
N1 N 0.13482(14) 0.17451(8) 0.67237(15)
N2 N 0.13676(14) 0.07476(8) 0.68430(15)
N3 N 0.31185(14) 0.05280(8) 0.76237(16)
C1 C 0.14108(18) 0.22688(10) 0.6692(2)
H1 H 0.2025 0.2426 0.6866
C2 C 0.06127(19) 0.25892(10) 0.6415(2)
H2 H 0.0680 0.2960 0.6402
C3 C -0.02854(19) 0.23620(10) 0.6158(2)
H3 H -0.0842 0.2575 0.5985
C4 C -0.03581(18) 0.18195(10) 0.61569(18)
H4 H -0.0966 0.1654 0.5967
C5 C 0.04695(17) 0.15210(9) 0.64375(17)
C6 C 0.04861(16) 0.09444(9) 0.64601(17)
C7 C -0.02910(17) 0.06163(9) 0.61282(18)
H5 H -0.0913 0.0760 0.5868
C8 C -0.01611(17) 0.00694(10) 0.61753(17)
C9 C -0.09865(17) -0.02895(10) 0.58211(18)
C10 C -0.19052(18) -0.00900(11) 0.5367(2)
H6 H -0.1997 0.0278 0.5284
C11 C -0.26780(19) -0.04243(12) 0.5038(2)
H7 H -0.3291 -0.0281 0.4723
C12 C -0.25758(19) -0.09620(11) 0.5160(2)
C13 C -0.1663(2) -0.11623(11) 0.5606(2)
H8 H -0.1577 -0.1531 0.5688
C14 C -0.08809(19) -0.08324(11) 0.5931(2)
H9 H -0.0267 -0.0978 0.6232
C15 C 0.07748(17) -0.01210(10) 0.65705(18)
H10 H 0.0894 -0.0488 0.6607
C16 C 0.15229(17) 0.02312(9) 0.69061(18)
C17 C 0.25421(17) 0.01015(10) 0.73692(18)
C18 C 0.28816(19) -0.04053(10) 0.7563(2)
H11 H 0.2466 -0.0697 0.7364
C19 C 0.3845(2) -0.04790(11) 0.8055(2)
H12 H 0.4100 -0.0823 0.8188
C20 C 0.44268(19) -0.00461(11) 0.8349(2)
H13 H 0.5082 -0.0089 0.8708
C21 C 0.40443(18) 0.04514(11) 0.8114(2)
H14 H 0.4450 0.0748 0.8305
C22 C -0.3429(2) -0.13193(13) 0.4829(2)
H15 H -0.3923 -0.1200 0.5129
H16 H -0.3239 -0.1678 0.5054
H17 H -0.3681 -0.1312 0.4088
C23 C 0.50452(17) 0.23242(10) 0.84390(19)
H18 H 0.5305 0.2545 0.9048
H19 H 0.5502 0.2034 0.8471
C24 C 0.5000 0.26567(14) 0.7500
H20 H 0.5570 0.2886 0.7647
H21 H 0.4430 0.2886 0.7353
Cu1B Cu 0.75827(2) 0.122916(11) 0.76643(2)
V1B V 0.66873(3) 0.132427(16) 0.50339(3)
V1E V 0.16873(3) 0.367573(16) 1.00339(3)
V2B V 0.70990(3) 0.320904(16) 0.65439(3)
V2E V 0.20990(3) 0.179096(16) 1.15439(3)
P1B P 0.60622(4) 0.20469(2) 0.64986(5)
O1B O 0.65193(12) 0.17134(7) 0.74267(13)
O2B O 0.76231(12) 0.12249(7) 0.60275(14)
O3E O 0.19866(14) 0.33027(8) 0.90763(16)
O3B O 0.69866(14) 0.16973(8) 0.40763(16)
O3G O 0.80134(14) 0.33027(8) 0.59237(16)
O4B O 0.62133(14) 0.07696(8) 0.46008(15)
O5B O 0.58121(12) 0.17097(7) 0.55209(13)
O6B O 0.67062(13) 0.25018(7) 0.63765(15)
O7B O 0.62162(14) 0.36077(8) 0.61061(17)
O8B O 0.75421(16) 0.33244(8) 0.77426(15)
N1B N 0.86518(14) 0.17451(8) 0.82763(15)
N2B N 0.86324(14) 0.07476(8) 0.81570(15)
N3B N 0.68815(14) 0.05280(8) 0.73763(16)
C1B C 0.85892(18) 0.22688(10) 0.8308(2)
H1B H 0.7975 0.2426 0.8134
C2B C 0.93873(19) 0.25892(10) 0.8585(2)
H2B H 0.9320 0.2960 0.8598
C3B C 1.02854(19) 0.23620(10) 0.8842(2)
H3B H 1.0842 0.2575 0.9015
C4B C 1.03581(18) 0.18195(10) 0.88431(18)
H4B H 1.0966 0.1654 0.9033
C5B C 0.95305(17) 0.15210(9) 0.85625(17)
C6B C 0.95139(16) 0.09444(9) 0.85399(17)
C7B C 1.02910(17) 0.06163(9) 0.88718(18)
H5B H 1.0913 0.0760 0.9132
C8B C 1.01611(17) 0.00694(10) 0.88247(17)
C9B C 1.09865(17) -0.02895(10) 0.91789(18)
C10B C 1.19052(18) -0.00900(11) 0.9633(2)
H6B H 1.1997 0.0278 0.9716
C11B C 1.26780(19) -0.04243(12) 0.9962(2)
H7B H 1.3291 -0.0281 1.0277
C12B C 1.25758(19) -0.09620(11) 0.9840(2)
C13B C 1.1663(2) -0.11623(11) 0.9394(2)
H8B H 1.1577 -0.1531 0.9312
C14B C 1.08809(19) -0.08324(11) 0.9069(2)
H9B H 1.0267 -0.0978 0.8768
C15B C 0.92252(17) -0.01210(10) 0.84295(18)
H10B H 0.9106 -0.0488 0.8393
C16B C 0.84771(17) 0.02312(9) 0.80939(18)
C17B C 0.74579(17) 0.01015(10) 0.76308(18)
C18B C 0.71184(19) -0.04053(10) 0.7437(2)
H11B H 0.7534 -0.0697 0.7636
C19B C 0.6155(2) -0.04790(11) 0.6945(2)
H12B H 0.5900 -0.0823 0.6812
C20B C 0.55732(19) -0.00461(11) 0.6651(2)
H13B H 0.4918 -0.0089 0.6292
C21B C 0.59557(18) 0.04514(11) 0.6886(2)
H14B H 0.5550 0.0748 0.6695
C22B C 1.3429(2) -0.13193(13) 1.0171(2)
H15B H 1.3923 -0.1200 0.9871
H16B H 1.3239 -0.1678 0.9946
H17B H 1.3681 -0.1312 1.0912
C23B C 0.49548(17) 0.23242(10) 0.65610(19)
H18B H 0.4695 0.2545 0.5952
H19B H 0.4498 0.2034 0.6529
loop_
_geom_bond_atom_site_label_1
_geom_bond_atom_site_label_2
_geom_bond_site_symmetry_1
_geom_bond_site_symmetry_2
Cu1 O1 1_555 1_555
V1 O2 1_555 1_555
V2 O6 1_555 1_555
P1 O1 1_555 1_555
O2 Cu1 1_555 1_555
O3 V1 1_555 1_555
O4 V1 1_555 1_555
O5 V1 1_555 1_555
O6 P1 1_555 1_555
O7 V2 1_555 1_555
O8 V2 1_555 1_555
N1 Cu1 1_555 1_555
N2 Cu1 1_555 1_555
N3 Cu1 1_555 1_555
C1 N1 1_555 1_555
H1 C1 1_555 1_555
C2 C1 1_555 1_555
H2 C2 1_555 1_555
C3 C2 1_555 1_555
H3 C3 1_555 1_555
C4 C3 1_555 1_555
H4 C4 1_555 1_555
C5 N1 1_555 1_555
C6 N2 1_555 1_555
C7 C6 1_555 1_555
H5 C7 1_555 1_555
C8 C7 1_555 1_555
C9 C8 1_555 1_555
C10 C9 1_555 1_555
H6 C10 1_555 1_555
C11 C10 1_555 1_555
H7 C11 1_555 1_555
C12 C11 1_555 1_555
C13 C12 1_555 1_555
H8 C13 1_555 1_555
C14 C9 1_555 1_555
H9 C14 1_555 1_555
C15 C8 1_555 1_555
H10 C15 1_555 1_555
C16 N2 1_555 1_555
C17 N3 1_555 1_555
C18 C17 1_555 1_555
H11 C18 1_555 1_555
C19 C18 1_555 1_555
H12 C19 1_555 1_555
C20 C19 1_555 1_555
H13 C20 1_555 1_555
C21 N3 1_555 1_555
H14 C21 1_555 1_555
C22 C12 1_555 1_555
H15 C22 1_555 1_555
H16 C22 1_555 1_555
H17 C22 1_555 1_555
C23 P1 1_555 1_555
H18 C23 1_555 1_555
H19 C23 1_555 1_555
C24 C23 1_555 1_555
H20 C24 1_555 1_555
H21 C24 1_555 1_555
Cu1B O1B 1_555 1_555
V1B O2B 1_555 1_555
V1E O3E 1_555 1_555
V2B O3G 1_555 1_555
V2E O3 1_555 1_555
P1B O1B 1_555 1_555
O2B Cu1B 1_555 1_555
O3E V2 1_555 1_555
O3B V1B 1_555 1_555
O4B V1B 1_555 1_555
O5B V1B 1_555 1_555
O6B V2B 1_555 1_555
O7B V2B 1_555 1_555
O8B V2B 1_555 1_555
N1B Cu1B 1_555 1_555
N2B Cu1B 1_555 1_555
N3B Cu1B 1_555 1_555
C1B N1B 1_555 1_555
H1B C1B 1_555 1_555
C2B C1B 1_555 1_555
H2B C2B 1_555 1_555
C3B C2B 1_555 1_555
H3B C3B 1_555 1_555
C4B C3B 1_555 1_555
H4B C4B 1_555 1_555
C5B N1B 1_555 1_555
C6B N2B 1_555 1_555
C7B C6B 1_555 1_555
H5B C7B 1_555 1_555
C8B C7B 1_555 1_555
C9B C8B 1_555 1_555
C10B C9B 1_555 1_555
H6B C10B 1_555 1_555
C11B C10B 1_555 1_555
H7B C11B 1_555 1_555
C12B C11B 1_555 1_555
C13B C12B 1_555 1_555
H8B C13B 1_555 1_555
C14B C9B 1_555 1_555
H9B C14B 1_555 1_555
C15B C8B 1_555 1_555
H10B C15B 1_555 1_555
C16B N2B 1_555 1_555
C17B N3B 1_555 1_555
C18B C17B 1_555 1_555
H11B C18B 1_555 1_555
C19B C18B 1_555 1_555
H12B C19B 1_555 1_555
C20B C19B 1_555 1_555
H13B C20B 1_555 1_555
C21B N3B 1_555 1_555
H14B C21B 1_555 1_555
C22B C12B 1_555 1_555
H15B C22B 1_555 1_555
H16B C22B 1_555 1_555
H17B C22B 1_555 1_555
C23B C24 1_555 1_555
H18B C23B 1_555 1_555
H19B C23B 1_555 1_555
P1 O5 1_555 1_555
C4 C5 1_555 1_555
C5 C6 1_555 1_555
C13 C14 1_555 1_555
C15 C16 1_555 1_555
C16 C17 1_555 1_555
C20 C21 1_555 1_555
P1B O5B 1_555 1_555
P1B O6B 1_555 1_555
P1B C23B 1_555 1_555
C4B C5B 1_555 1_555
C5B C6B 1_555 1_555
C13B C14B 1_555 1_555
C15B C16B 1_555 1_555
C16B C17B 1_555 1_555
C20B C21B 1_555 1_555

#END
