
#######################################################################
#
#                 Cambridge Crystallographic Data Centre
#                                CCDC 
#
#######################################################################
#
# If this CIF has been generated from an entry in the Cambridge 
# Structural Database, then it will include bibliographic, chemical, 
# crystal, experimental, refinement or atomic coordinate data resulting 
# from the CCDC's data processing and validation procedures.
#
#######################################################################

data_KEBZUN
_symmetry_cell_setting           monoclinic
_symmetry_space_group_name_H-M   'P 21/a'
_symmetry_Int_Tables_number      14
_space_group_name_Hall           '-P 2yab'
loop_
_symmetry_equiv_pos_site_id
_symmetry_equiv_pos_as_xyz
1 x,y,z
2 1/2-x,1/2+y,-z
3 -x,-y,-z
4 1/2+x,1/2-y,z
_cell_length_a                   8.1382(5)
_cell_length_b                   15.2089(9)
_cell_length_c                   9.5381(7)
_cell_angle_alpha                90
_cell_angle_beta                 93.494(5)
_cell_angle_gamma                90
_cell_volume                     1178.37
loop_
_atom_site_label
_atom_site_type_symbol
_atom_site_fract_x
_atom_site_fract_y
_atom_site_fract_z
Ni1 Ni 0.0000 0.0000 0.0000
N1 N 0.16481(14) 0.05271(8) 0.15506(12)
N2 N 0.38473(15) 0.09815(8) 0.33047(13)
N3 N 0.11921(13) 0.06749(7) -0.15617(11)
N4 N 0.16563(17) 0.13996(9) -0.34934(14)
N5 N -0.16140(14) 0.10565(7) 0.02737(12)
N6 N -0.29359(18) 0.20695(9) 0.14064(15)
O1 O 0.68735(13) 0.10610(7) 0.56497(12)
C1 C 0.26630(16) 0.07015(8) 0.24043(13)
C2 C 0.44714(16) 0.04134(8) 0.42503(13)
C3 C 0.58508(16) 0.04831(9) 0.52968(14)
C4 C 0.05349(18) 0.09686(10) -0.27753(14)
H1 H -0.0582 0.0886 -0.3097
C5 C 0.31188(19) 0.13849(11) -0.27080(17)
H2 H 0.4132 0.1639 -0.2944
C6 C 0.28236(17) 0.09312(10) -0.15164(15)
H3 H 0.3617 0.0810 -0.0770
C7 C -0.18227(19) 0.14149(10) 0.15145(15)
H4 H -0.1261 0.1234 0.2368
C8 C -0.3492(2) 0.21329(11) 0.00284(18)
H5 H -0.4290 0.2532 -0.0366
C9 C -0.26644(18) 0.15059(10) -0.06617(16)
H6 H -0.2791 0.1394 -0.1642
H7 H 0.147(3) 0.1663(16) -0.430(3)
H8 H -0.328(3) 0.2328(15) 0.213(2)
Ni1_2 Ni 1.0000 0.0000 1.0000
N1B N 0.83519(14) -0.05271(8) 0.84494(12)
N1B_2 N -0.16481(14) -0.05271(8) -0.15506(12)
N2B N 0.61527(15) -0.09815(8) 0.66953(13)
N3B N -0.11921(13) -0.06749(7) 0.15617(11)
N4B N -0.16563(17) -0.13996(9) 0.34934(14)
N5B N 0.16140(14) -0.10565(7) -0.02737(12)
N6B N 0.29359(18) -0.20695(9) -0.14064(15)
O1B O 0.31265(13) -0.10610(7) 0.43503(12)
C1B C 0.73370(16) -0.07015(8) 0.75957(13)
C2B C 0.55286(16) -0.04134(8) 0.57497(13)
C3B C 0.41492(16) -0.04831(9) 0.47032(14)
C4B C -0.05349(18) -0.09686(10) 0.27753(14)
H1B H 0.0582 -0.0886 0.3097
C5B C -0.31188(19) -0.13849(11) 0.27080(17)
H2B H -0.4132 -0.1639 0.2944
C6B C -0.28236(17) -0.09312(10) 0.15164(15)
H3B H -0.3617 -0.0810 0.0770
C7B C 0.18227(19) -0.14149(10) -0.15145(15)
H4B H 0.1261 -0.1234 -0.2368
C8B C 0.3492(2) -0.21329(11) -0.00284(18)
H5B H 0.4290 -0.2532 0.0366
C9B C 0.26644(18) -0.15059(10) 0.06617(16)
H6B H 0.2791 -0.1394 0.1642
H7B H -0.147(3) -0.1663(16) 0.430(3)
H8B H 0.328(3) -0.2328(15) -0.213(2)
O2 O 0.08707(17) 0.25091(8) 0.41277(12)
H9 H 0.137(4) 0.294(2) 0.462(3)
H10 H -0.005(4) 0.274(2) 0.384(3)
loop_
_geom_bond_atom_site_label_1
_geom_bond_atom_site_label_2
_geom_bond_site_symmetry_1
_geom_bond_site_symmetry_2
Ni1 N1 1_555 1_555
N1 C1 1_555 1_555
N2 C1 1_555 1_555
N3 Ni1 1_555 1_555
N4 C4 1_555 1_555
N5 Ni1 1_555 1_555
N6 C7 1_555 1_555
O1 C3 1_555 1_555
C2 N2 1_555 1_555
C3 C2 1_555 1_555
C4 N3 1_555 1_555
H1 C4 1_555 1_555
C5 N4 1_555 1_555
H2 C5 1_555 1_555
C6 N3 1_555 1_555
H3 C6 1_555 1_555
C7 N5 1_555 1_555
H4 C7 1_555 1_555
C8 N6 1_555 1_555
H5 C8 1_555 1_555
C9 N5 1_555 1_555
H6 C9 1_555 1_555
H7 N4 1_555 1_555
H8 N6 1_555 1_555
O2 H9 1_555 1_555
H10 O2 1_555 1_555
Ni1_2 N1B 1_555 1_555
N1B C1B 1_555 1_555
N1B_2 Ni1 1_555 1_555
N2B C1B 1_555 1_555
N3B Ni1 1_555 1_555
N4B C4B 1_555 1_555
N5B Ni1 1_555 1_555
N6B C7B 1_555 1_555
O1B C3B 1_555 1_555
C2B C3 1_555 1_555
C3B C2 1_555 1_555
C4B N3B 1_555 1_555
H1B C4B 1_555 1_555
C5B N4B 1_555 1_555
H2B C5B 1_555 1_555
C6B N3B 1_555 1_555
H3B C6B 1_555 1_555
C7B N5B 1_555 1_555
H4B C7B 1_555 1_555
C8B N6B 1_555 1_555
H5B C8B 1_555 1_555
C9B N5B 1_555 1_555
H6B C9B 1_555 1_555
H7B N4B 1_555 1_555
H8B N6B 1_555 1_555
C5 C6 1_555 1_555
C8 C9 1_555 1_555
N2B C2B 1_555 1_555
C2B C3B 1_555 1_555
C5B C6B 1_555 1_555
C8B C9B 1_555 1_555

#END
