
#######################################################################
#
#                 Cambridge Crystallographic Data Centre
#                                CCDC 
#
#######################################################################
#
# If this CIF has been generated from an entry in the Cambridge 
# Structural Database, then it will include bibliographic, chemical, 
# crystal, experimental, refinement or atomic coordinate data resulting 
# from the CCDC's data processing and validation procedures.
#
#######################################################################

data_KEBZEX
_symmetry_cell_setting           triclinic
_symmetry_space_group_name_H-M   'P -1'
_symmetry_Int_Tables_number      2
_space_group_name_Hall           '-P 1'
loop_
_symmetry_equiv_pos_site_id
_symmetry_equiv_pos_as_xyz
1 x,y,z
2 -x,-y,-z
_cell_length_a                   7.9503(6)
_cell_length_b                   8.6881(6)
_cell_length_c                   9.2157(7)
_cell_angle_alpha                69.6850(10)
_cell_angle_beta                 80.4360(10)
_cell_angle_gamma                76.2540(10)
_cell_volume                     577.413
loop_
_atom_site_label
_atom_site_type_symbol
_atom_site_fract_x
_atom_site_fract_y
_atom_site_fract_z
Cu1 Cu 0.39098(3) -0.79979(3) 0.37780(3)
O1 O 0.58934(19) -0.75615(18) 0.20494(17)
O2 O 0.7145(2) -0.54670(19) 0.04012(18)
O3 O 0.21796(19) -0.76623(18) 0.56246(17)
O4 O 0.08542(19) -0.56641(18) 0.66892(17)
O5 O 0.39126(19) -0.02984(18) 0.41013(16)
O6 O 0.38826(18) 0.03509(18) 0.15278(17)
O7 O 0.1180(2) -0.7171(2) 0.2519(2)
N1 N 0.3934(2) -0.5720(2) 0.35122(19)
C1 C 0.3920(2) -0.2457(2) 0.3102(2)
C2 C 0.4979(2) -0.3237(2) 0.2089(2)
H1 H 0.5668 -0.2655 0.1259
C3 C 0.4972(2) -0.4912(2) 0.2362(2)
C4 C 0.2868(2) -0.3345(2) 0.4330(2)
H2 H 0.2175 -0.2844 0.5025
C5 C 0.2892(2) -0.4987(2) 0.4479(2)
C6 C 0.1875(3) -0.6189(3) 0.5710(2)
C7 C 0.6108(3) -0.6045(3) 0.1508(2)
C8 C 0.3900(2) -0.0648(2) 0.2860(2)
H3 H 0.053(4) -0.635(4) 0.273(3)
H4 H 0.138(4) -0.693(4) 0.162(4)
Cu1_2 Cu 0.39098(3) -1.79979(3) 0.37780(3)
Cu1_3 Cu 0.39098(3) 0.20021(3) 0.37780(3)
Cu1A Cu 0.60902(3) -0.20021(3) 0.62220(3)
Cu1A_2 Cu 0.60902(3) -1.20021(3) 0.62220(3)
O1_2 O 0.58934(19) -1.75615(18) 0.20494(17)
O2_2 O 0.7145(2) -1.54670(19) 0.04012(18)
O3_2 O 0.21796(19) -1.76623(18) 0.56246(17)
O4_2 O 0.08542(19) -1.56641(18) 0.66892(17)
O5_2 O 0.39126(19) -1.02984(18) 0.41013(16)
O5A O 0.60874(19) -0.97016(18) 0.58987(16)
O5_3 O 0.39126(19) -2.02984(18) 0.41013(16)
O5A_2 O 0.60874(19) -1.97016(18) 0.58987(16)
O6_2 O 0.38826(18) -0.96491(18) 0.15278(17)
O7_2 O 0.1180(2) -1.7171(2) 0.2519(2)
N1_2 N 0.3934(2) -1.5720(2) 0.35122(19)
C1_2 C 0.3920(2) -1.2457(2) 0.3102(2)
C2_2 C 0.4979(2) -1.3237(2) 0.2089(2)
H1_2 H 0.5668 -1.2655 0.1259
C3_2 C 0.4972(2) -1.4912(2) 0.2362(2)
C4_2 C 0.2868(2) -1.3345(2) 0.4330(2)
H2_2 H 0.2175 -1.2844 0.5025
C5_2 C 0.2892(2) -1.4987(2) 0.4479(2)
C6_2 C 0.1875(3) -1.6189(3) 0.5710(2)
C7_2 C 0.6108(3) -1.6045(3) 0.1508(2)
C8_2 C 0.3900(2) -1.0648(2) 0.2860(2)
H3_2 H 0.053(4) -1.635(4) 0.273(3)
H4_2 H 0.138(4) -1.693(4) 0.162(4)
Cu2 Cu 0.0000 0.0000 0.0000
O8 O -0.0122(2) 0.2427(2) -0.0459(2)
O9 O 0.24678(19) -0.0132(2) -0.06397(19)
O10 O 0.0193(2) -0.0254(2) 0.26178(19)
H5 H 0.300(4) -0.014(4) -0.004(4)
H6 H 0.295(4) -0.089(4) -0.101(4)
H7 H 0.017(4) 0.283(4) -0.129(4)
H8 H -0.065(4) -0.067(4) 0.323(4)
H9 H -0.107(5) 0.303(5) -0.014(5)
H10 H 0.012(5) 0.054(5) 0.277(4)
O8A O 0.0122(2) -0.2427(2) 0.0459(2)
O9A O -0.24678(19) 0.0132(2) 0.06397(19)
O10A O -0.0193(2) 0.0254(2) -0.26178(19)
H5A H -0.300(4) 0.014(4) 0.004(4)
H6A H -0.295(4) 0.089(4) 0.101(4)
H7A H -0.017(4) -0.283(4) 0.129(4)
H8A H 0.065(4) 0.067(4) -0.323(4)
H9A H 0.107(5) -0.303(5) 0.014(5)
H10A H -0.012(5) -0.054(5) -0.277(4)
loop_
_geom_bond_atom_site_label_1
_geom_bond_atom_site_label_2
_geom_bond_site_symmetry_1
_geom_bond_site_symmetry_2
Cu1 O1 1_555 1_555
O1 C7 1_555 1_555
O2 C7 1_555 1_555
O3 Cu1 1_555 1_555
O4 C6 1_555 1_555
O5 C8 1_555 1_555
O6 C8 1_555 1_555
O7 Cu1 1_555 1_555
N1 Cu1 1_555 1_555
C1 C2 1_555 1_555
C2 H1 1_555 1_555
C3 N1 1_555 1_555
C4 C1 1_555 1_555
H2 C4 1_555 1_555
C5 N1 1_555 1_555
C6 O3 1_555 1_555
C7 C3 1_555 1_555
C8 C1 1_555 1_555
H3 O7 1_555 1_555
H4 O7 1_555 1_555
Cu2 O8 1_555 1_555
O8 H7 1_555 1_555
O9 Cu2 1_555 1_555
O10 Cu2 1_555 1_555
H5 O9 1_555 1_555
H6 O9 1_555 1_555
H8 O10 1_555 1_555
H9 O8 1_555 1_555
H10 O10 1_555 1_555
Cu1_2 O1_2 1_555 1_555
Cu1_3 O5 1_555 1_555
Cu1A O5 1_555 1_555
Cu1A_2 O5_2 1_555 1_555
O1_2 C7_2 1_555 1_555
O2_2 C7_2 1_555 1_555
O3_2 Cu1_2 1_555 1_555
O4_2 C6_2 1_555 1_555
O5_2 Cu1 1_555 1_555
O5A Cu1 1_555 1_555
O5_3 Cu1_2 1_555 1_555
O5A_2 Cu1_2 1_555 1_555
O6_2 C8_2 1_555 1_555
O7_2 Cu1_2 1_555 1_555
N1_2 Cu1_2 1_555 1_555
C1_2 C2_2 1_555 1_555
C2_2 H1_2 1_555 1_555
C3_2 N1_2 1_555 1_555
C4_2 C1_2 1_555 1_555
H2_2 C4_2 1_555 1_555
C5_2 N1_2 1_555 1_555
C6_2 O3_2 1_555 1_555
C7_2 C3_2 1_555 1_555
C8_2 O5_2 1_555 1_555
H3_2 O7_2 1_555 1_555
H4_2 O7_2 1_555 1_555
O8A Cu2 1_555 1_555
O9A Cu2 1_555 1_555
O10A Cu2 1_555 1_555
H5A O9A 1_555 1_555
H6A O9A 1_555 1_555
H7A O8A 1_555 1_555
H8A O10A 1_555 1_555
H9A O8A 1_555 1_555
H10A O10A 1_555 1_555
C2 C3 1_555 1_555
C4 C5 1_555 1_555
C5 C6 1_555 1_555
Cu1A_2 O5A 1_555 1_555
C1_2 C8_2 1_555 1_555
C2_2 C3_2 1_555 1_555
C4_2 C5_2 1_555 1_555
C5_2 C6_2 1_555 1_555

#END
