
#######################################################################
#
#                 Cambridge Crystallographic Data Centre
#                                CCDC 
#
#######################################################################
#
# If this CIF has been generated from an entry in the Cambridge 
# Structural Database, then it will include bibliographic, chemical, 
# crystal, experimental, refinement or atomic coordinate data resulting 
# from the CCDC's data processing and validation procedures.
#
#######################################################################

data_KECBAW
_symmetry_cell_setting           triclinic
_symmetry_space_group_name_H-M   'P -1'
_symmetry_Int_Tables_number      2
_space_group_name_Hall           '-P 1'
loop_
_symmetry_equiv_pos_site_id
_symmetry_equiv_pos_as_xyz
1 x,y,z
2 -x,-y,-z
_cell_length_a                   8.7197(10)
_cell_length_b                   10.7245(13)
_cell_length_c                   11.2267(13)
_cell_angle_alpha                82.742(14)
_cell_angle_beta                 68.829(13)
_cell_angle_gamma                73.240(14)
_cell_volume                     937.123
loop_
_atom_site_label
_atom_site_type_symbol
_atom_site_fract_x
_atom_site_fract_y
_atom_site_fract_z
Ni1 Ni 0.38932(2) 0.26053(2) 0.292310(19)
N1 N 0.53777(19) 0.06051(15) 0.31008(15)
N2 N 0.84702(18) -0.04122(14) 0.21451(14)
N3 N 0.62354(19) 0.30026(15) 0.19838(15)
N4 N 0.92062(18) 0.30718(14) 0.08313(14)
N5 N 0.16365(18) 0.20500(14) 0.37754(14)
N6 N -0.0641(2) 0.15935(17) 0.51920(17)
N7 N 0.26991(19) 0.44790(14) 0.25036(14)
N8 N 0.2239(2) 0.64556(17) 0.16851(17)
N9 N 0.38701(18) 0.30989(15) 0.46583(14)
N10 N 0.4300(2) 0.2976(2) 0.64807(17)
O1 O 1.24502(15) -0.10628(12) 0.03894(12)
O2 O 1.27895(15) 0.38457(12) -0.04909(12)
C1 C 0.6823(2) 0.01371(16) 0.25907(16)
C2 C 0.9299(2) -0.01679(16) 0.09335(17)
C3 C 1.1106(2) -0.04845(16) 0.01797(17)
C4 C 0.7598(2) 0.31096(16) 0.14205(17)
C5 C 0.9617(2) 0.41742(17) 0.03734(16)
C6 C 1.1265(2) 0.44673(17) -0.02208(16)
C7 C 0.0886(2) 0.17886(18) 0.49893(18)
H1 H 0.1362 0.1744 0.5637
C8 C -0.0882(2) 0.1728(2) 0.4042(2)
H2 H -0.1849 0.1649 0.3885
C9 C 0.0533(2) 0.19975(19) 0.31725(19)
H3 H 0.0736 0.2130 0.2282
C10 C 0.3430(2) 0.53635(18) 0.17813(19)
H4 H 0.4624 0.5245 0.1387
C11 C 0.0677(3) 0.62627(19) 0.23710(19)
H5 H -0.0401 0.6863 0.2471
C12 C 0.0973(2) 0.50423(19) 0.28805(19)
H6 H 0.0120 0.4637 0.3417
C13 C 0.3250(2) 0.4310(2) 0.51810(19)
H7 H 0.2718 0.5079 0.4808
C14 C 0.3509(3) 0.4245(2) 0.6310(2)
H8 H 0.3202 0.4941 0.6867
C15 C 0.4500(2) 0.2322(2) 0.54751(18)
H9 H 0.5026 0.1416 0.5363
O3 O 0.40503(17) 0.19532(13) 0.11472(12)
H10 H -0.124(3) 0.140(2) 0.587(3)
H11 H 0.239(3) 0.713(3) 0.132(2)
H12 H 0.458(3) 0.268(3) 0.708(3)
H13 H 0.362(3) 0.255(3) 0.064(3)
H14 H 0.499(4) 0.167(3) 0.078(3)
Ni1A Ni 1.61068(2) -0.26053(2) -0.292310(19)
Ni1A_2 Ni 1.61068(2) 0.73947(2) -0.292310(19)
N1A N 1.46223(19) -0.06051(15) -0.31008(15)
N2A N 1.15298(18) 0.04122(14) -0.21451(14)
N3A N 1.37646(19) 0.69974(15) -0.19838(15)
N3A_2 N 1.37646(19) -0.30026(15) -0.19838(15)
N4A N 1.07938(18) 0.69282(14) -0.08313(14)
N5A N 1.83635(18) -0.20500(14) -0.37754(14)
N6A N 2.0641(2) -0.15935(17) -0.51920(17)
N7A N 1.73009(19) -0.44790(14) -0.25036(14)
N8A N 1.7761(2) -0.64556(17) -0.16851(17)
N9A N 1.61299(18) -0.30989(15) -0.46583(14)
N10A N 1.5700(2) -0.2976(2) -0.64807(17)
O1A O 0.75498(15) 0.10628(12) -0.03894(12)
O2A O 0.72105(15) 0.61543(12) 0.04909(12)
C1A C 1.3177(2) -0.01371(16) -0.25907(16)
C2A C 1.0701(2) 0.01679(16) -0.09335(17)
C3A C 0.8894(2) 0.04845(16) -0.01797(17)
C4A C 1.2402(2) 0.68904(16) -0.14205(17)
C5A C 1.0383(2) 0.58258(17) -0.03734(16)
C6A C 0.8735(2) 0.55327(17) 0.02208(16)
C7A C 1.9114(2) -0.17886(18) -0.49893(18)
H1A H 1.8638 -0.1744 -0.5637
C8A C 2.0882(2) -0.1728(2) -0.4042(2)
H2A H 2.1849 -0.1649 -0.3885
C9A C 1.9467(2) -0.19975(19) -0.31725(19)
H3A H 1.9264 -0.2130 -0.2282
C10A C 1.6570(2) -0.53635(18) -0.17813(19)
H4A H 1.5376 -0.5245 -0.1387
C11A C 1.9323(3) -0.62627(19) -0.23710(19)
H5A H 2.0401 -0.6863 -0.2471
C12A C 1.9027(2) -0.50423(19) -0.28805(19)
H6A H 1.9880 -0.4637 -0.3417
C13A C 1.6750(2) -0.4310(2) -0.51810(19)
H7A H 1.7282 -0.5079 -0.4808
C14A C 1.6491(3) -0.4245(2) -0.6310(2)
H8A H 1.6798 -0.4941 -0.6867
C15A C 1.5500(2) -0.2322(2) -0.54751(18)
H9A H 1.4974 -0.1416 -0.5363
O3A O 1.59497(17) -0.19532(13) -0.11472(12)
H10A H 2.124(3) -0.140(2) -0.587(3)
H11A H 1.761(3) -0.713(3) -0.132(2)
H12A H 1.542(3) -0.268(3) -0.708(3)
H13A H 1.638(3) -0.255(3) -0.064(3)
H14A H 1.501(4) -0.167(3) -0.078(3)
O4 O 0.33141(18) 0.90102(15) 0.25425(14)
H15 H 0.301(3) 0.913(3) 0.194(3)
H16 H 0.354(3) 0.966(3) 0.262(3)
loop_
_geom_bond_atom_site_label_1
_geom_bond_atom_site_label_2
_geom_bond_site_symmetry_1
_geom_bond_site_symmetry_2
Ni1 N1 1_555 1_555
N1 C1 1_555 1_555
N2 C1 1_555 1_555
N3 Ni1 1_555 1_555
N4 C4 1_555 1_555
N5 Ni1 1_555 1_555
N6 C7 1_555 1_555
N7 Ni1 1_555 1_555
N8 C10 1_555 1_555
N9 Ni1 1_555 1_555
N10 C14 1_555 1_555
O1 C3 1_555 1_555
O2 C6 1_555 1_555
C2 N2 1_555 1_555
C3 C2 1_555 1_555
C4 N3 1_555 1_555
C5 N4 1_555 1_555
C6 C5 1_555 1_555
C7 N5 1_555 1_555
H1 C7 1_555 1_555
C8 N6 1_555 1_555
H2 C8 1_555 1_555
C9 N5 1_555 1_555
H3 C9 1_555 1_555
C10 N7 1_555 1_555
H4 C10 1_555 1_555
C11 N8 1_555 1_555
H5 C11 1_555 1_555
C12 N7 1_555 1_555
H6 C12 1_555 1_555
C13 N9 1_555 1_555
H7 C13 1_555 1_555
C14 C13 1_555 1_555
H8 C14 1_555 1_555
C15 N9 1_555 1_555
H9 C15 1_555 1_555
O3 Ni1 1_555 1_555
H10 N6 1_555 1_555
H11 N8 1_555 1_555
H12 N10 1_555 1_555
H13 O3 1_555 1_555
H14 O3 1_555 1_555
O4 H15 1_555 1_555
H16 O4 1_555 1_555
Ni1A N1A 1_555 1_555
Ni1A_2 N3A 1_555 1_555
N1A C1A 1_555 1_555
N2A C1A 1_555 1_555
N3A C4A 1_555 1_555
N3A_2 Ni1A 1_555 1_555
N4A C4A 1_555 1_555
N5A Ni1A 1_555 1_555
N6A C7A 1_555 1_555
N7A Ni1A 1_555 1_555
N8A C10A 1_555 1_555
N9A Ni1A 1_555 1_555
N10A C14A 1_555 1_555
O1A C3A 1_555 1_555
O2A C6A 1_555 1_555
C2A C3 1_555 1_555
C3A C2 1_555 1_555
C5A C6 1_555 1_555
C6A C5 1_555 1_555
C7A N5A 1_555 1_555
H1A C7A 1_555 1_555
C8A N6A 1_555 1_555
H2A C8A 1_555 1_555
C9A N5A 1_555 1_555
H3A C9A 1_555 1_555
C10A N7A 1_555 1_555
H4A C10A 1_555 1_555
C11A N8A 1_555 1_555
H5A C11A 1_555 1_555
C12A N7A 1_555 1_555
H6A C12A 1_555 1_555
C13A N9A 1_555 1_555
H7A C13A 1_555 1_555
C14A C13A 1_555 1_555
H8A C14A 1_555 1_555
C15A N9A 1_555 1_555
H9A C15A 1_555 1_555
O3A Ni1A 1_555 1_555
H10A N6A 1_555 1_555
H11A N8A 1_555 1_555
H12A N10A 1_555 1_555
H13A O3A 1_555 1_555
H14A O3A 1_555 1_555
N10 C15 1_555 1_555
C8 C9 1_555 1_555
C11 C12 1_555 1_555
N2A C2A 1_555 1_555
N4A C5A 1_555 1_555
N10A C15A 1_555 1_555
C2A C3A 1_555 1_555
C5A C6A 1_555 1_555
C8A C9A 1_555 1_555
C11A C12A 1_555 1_555

#END
