
#######################################################################
#
#                 Cambridge Crystallographic Data Centre
#                                CCDC 
#
#######################################################################
#
# If this CIF has been generated from an entry in the Cambridge 
# Structural Database, then it will include bibliographic, chemical, 
# crystal, experimental, refinement or atomic coordinate data resulting 
# from the CCDC's data processing and validation procedures.
#
#######################################################################

data_KECBEA
_symmetry_cell_setting           monoclinic
_symmetry_space_group_name_H-M   'P 21/c'
_symmetry_Int_Tables_number      14
_space_group_name_Hall           '-P 2ybc'
loop_
_symmetry_equiv_pos_site_id
_symmetry_equiv_pos_as_xyz
1 x,y,z
2 -x,1/2+y,1/2-z
3 -x,-y,-z
4 x,1/2-y,1/2+z
_cell_length_a                   8.0640(7)
_cell_length_b                   14.8991(13)
_cell_length_c                   16.1880(13)
_cell_angle_alpha                90
_cell_angle_beta                 99.777(7)
_cell_angle_gamma                90
_cell_volume                     1916.68
loop_
_atom_site_label
_atom_site_type_symbol
_atom_site_fract_x
_atom_site_fract_y
_atom_site_fract_z
Ni1 Ni 0.33271(4) 0.26445(2) 0.936324(17)
O1 O -0.4081(2) 0.33876(11) 1.17466(10)
O2 O 0.0743(2) 0.17384(12) 1.19681(10)
N1 N 0.1302(3) 0.28346(14) 0.99641(13)
N2 N -0.1178(2) 0.32170(14) 1.06018(12)
N3 N -0.2167(2) 0.19295(14) 1.31220(12)
N4 N -0.4635(3) 0.23544(14) 1.37462(13)
N5 N 0.4437(2) 0.17241(13) 1.02321(12)
N6 N 0.4976(3) 0.08631(15) 1.13456(14)
H1 H 0.4881 0.0612 1.1827
N7 N 0.2045(3) 0.16751(13) 0.85902(13)
N8 N 0.1253(3) 0.07140(16) 0.75768(15)
H2 H 0.1238 0.0412 0.7108
C1 C 0.0174(3) 0.29813(16) 1.02921(14)
C2 C -0.1432(3) 0.28277(15) 1.13101(14)
C3 C -0.2754(3) 0.29390(16) 1.18051(14)
C4 C -0.1912(3) 0.22942(15) 1.24092(15)
C5 C -0.0571(3) 0.21789(16) 1.19114(14)
C6 C -0.3508(3) 0.21868(16) 1.34212(14)
C7 C 0.3951(3) 0.14838(17) 1.09401(16)
H3 H 0.2996 0.1722 1.1136
C8 C 0.6197(4) 0.06894(19) 1.08772(18)
H4 H 0.7102 0.0277 1.1006
C9 C 0.5857(3) 0.12250(17) 1.01908(17)
H5 H 0.6499 0.1251 0.9751
C10 C 0.2356(4) 0.13645(17) 0.78768(16)
H6 H 0.3241 0.1570 0.7606
C11 C 0.0169(4) 0.0608(2) 0.8129(2)
H7 H -0.0747 0.0200 0.8084
C12 C 0.0663(3) 0.12008(18) 0.87534(19)
H8 H 0.0141 0.1280 0.9232
O3 O 0.2303(2) 0.36914(11) 0.85177(10)
O4 O 0.4560(2) 0.37050(11) 1.01031(10)
H9 H 0.1785 0.3472 0.8029
H10 H 0.3050 0.4075 0.8410
H11 H 0.4984 0.3444 1.0631
H12 H 0.3894 0.4200 1.0205
Ni1C Ni -0.66729(4) 0.23555(2) 1.436324(17)
N4C N 0.5365(3) 0.26456(14) 0.87462(13)
O5 O 0.6941(2) 0.47584(12) 0.94285(12)
H13 H 0.7809 0.5107 0.9973
H14 H 0.6472 0.4252 0.9600
O6 O 0.4634(2) 0.48295(12) 0.79714(11)
H15 H 0.4340 0.5435 0.8016
H16 H 0.5502 0.4766 0.8419
O7 O 0.9988(3) 0.48737(14) 0.89835(13)
H17 H 1.0722 0.4423 0.8893
H18 H 1.0920 0.5478 0.9208
loop_
_geom_bond_atom_site_label_1
_geom_bond_atom_site_label_2
_geom_bond_site_symmetry_1
_geom_bond_site_symmetry_2
Ni1 N1 1_555 1_555
O1 C3 1_555 1_555
O2 C5 1_555 1_555
N1 C1 1_555 1_555
N2 C1 1_555 1_555
N3 C4 1_555 1_555
N4 C6 1_555 1_555
N5 Ni1 1_555 1_555
N6 H1 1_555 1_555
N7 Ni1 1_555 1_555
N8 H2 1_555 1_555
C2 N2 1_555 1_555
C3 C2 1_555 1_555
C4 C3 1_555 1_555
C5 C2 1_555 1_555
C6 N3 1_555 1_555
C7 N5 1_555 1_555
H3 C7 1_555 1_555
C8 N6 1_555 1_555
H4 C8 1_555 1_555
C9 N5 1_555 1_555
H5 C9 1_555 1_555
C10 N7 1_555 1_555
H6 C10 1_555 1_555
C11 N8 1_555 1_555
H7 C11 1_555 1_555
C12 N7 1_555 1_555
H8 C12 1_555 1_555
O3 Ni1 1_555 1_555
O4 Ni1 1_555 1_555
H9 O3 1_555 1_555
H10 O3 1_555 1_555
H11 O4 1_555 1_555
H12 O4 1_555 1_555
O5 H13 1_555 1_555
H14 O5 1_555 1_555
O6 H15 1_555 1_555
H16 O6 1_555 1_555
O7 H17 1_555 1_555
H18 O7 1_555 1_555
Ni1C N4 1_555 1_555
N4C Ni1 1_555 1_555
N6 C7 1_555 1_555
N8 C10 1_555 1_555
C4 C5 1_555 1_555
C8 C9 1_555 1_555
C11 C12 1_555 1_555

#END
