
#######################################################################
#
#                 Cambridge Crystallographic Data Centre
#                                CCDC 
#
#######################################################################
#
# If this CIF has been generated from an entry in the Cambridge 
# Structural Database, then it will include bibliographic, chemical, 
# crystal, experimental, refinement or atomic coordinate data resulting 
# from the CCDC's data processing and validation procedures.
#
#######################################################################

data_KECDUS
_symmetry_cell_setting           triclinic
_symmetry_space_group_name_H-M   'P -1'
_symmetry_Int_Tables_number      2
_space_group_name_Hall           '-P 1'
loop_
_symmetry_equiv_pos_site_id
_symmetry_equiv_pos_as_xyz
1 x,y,z
2 -x,-y,-z
_cell_length_a                   7.4264(15)
_cell_length_b                   10.434(2)
_cell_length_c                   14.864(3)
_cell_angle_alpha                104.58(3)
_cell_angle_beta                 92.95(3)
_cell_angle_gamma                90.27(3)
_cell_volume                     1113.01
loop_
_atom_site_label
_atom_site_type_symbol
_atom_site_fract_x
_atom_site_fract_y
_atom_site_fract_z
Cu1 Cu 0.14928(7) 0.46978(5) 0.17927(3)
K1 K -0.39083(13) 0.61676(11) 0.29693(7)
K2 K -0.18076(12) 0.65089(10) 0.07522(7)
C1 C 0.1471(5) 0.8429(4) 0.3609(3)
C2 C 0.2347(6) 0.8495(4) 0.4479(3)
C3 C 0.2623(6) 0.9763(4) 0.5071(3)
C4 C 0.2172(6) 1.0908(4) 0.4818(3)
H1 H 0.2440 1.1732 0.5222
C5 C 0.1317(6) 1.0817(4) 0.3956(3)
H2 H 0.1002 1.1582 0.3776
C6 C 0.0930(6) 0.9588(4) 0.3360(3)
H3 H 0.0308 0.9527 0.2791
C7 C 0.1021(5) 0.7127(4) 0.2920(3)
C8 C 0.2845(6) 0.7218(4) 0.4742(3)
C9 C 0.3089(5) 0.7804(4) 0.0719(3)
C10 C 0.2260(6) 0.8001(4) -0.0106(3)
C11 C 0.2248(5) 0.9304(4) -0.0199(3)
C12 C 0.2872(6) 1.0378(4) 0.0500(3)
H4 H 0.2776 1.1234 0.0425
C13 C 0.3642(7) 1.0155(5) 0.1312(3)
H5 H 0.4064 1.0864 0.1792
C14 C 0.3784(6) 0.8883(4) 0.1410(3)
H6 H 0.4355 0.8739 0.1947
C15 C 0.3294(6) 0.6449(4) 0.0912(3)
C16 C 0.1394(6) 0.6811(4) -0.0817(3)
O1 O -0.0499(4) 0.6928(3) 0.2521(2)
O2 O 0.2300(4) 0.6285(3) 0.2764(2)
O3 O 0.4443(4) 0.6853(3) 0.4673(2)
O4 O 0.1562(5) 0.6585(3) 0.4956(2)
O5 O 0.3629(6) 0.8929(4) 0.6320(2)
O6 O 0.3833(5) 1.1029(3) 0.6496(2)
O7 O 0.4808(4) 0.6164(3) 0.1184(2)
O8 O 0.1841(4) 0.5718(3) 0.08242(19)
O9 O 0.2379(4) 0.5953(3) -0.1273(2)
O10 O -0.0303(4) 0.6753(3) -0.08376(19)
O11 O 0.1384(5) 0.8633(3) -0.1769(2)
O12 O 0.1331(5) 1.0719(3) -0.1111(3)
O13 O 0.0838(6) 0.3800(4) 0.2772(2)
O14 O 0.4159(5) 0.3562(4) 0.1774(4)
O15 O -0.5933(7) 0.4034(5) 0.3825(3)
O16 O -0.1457(6) 0.5237(5) 0.4021(3)
N1 N 0.3432(5) 0.9911(4) 0.6029(3)
N2 N 0.1611(5) 0.9559(4) -0.1089(3)
H7 H -0.076(8) 0.573(6) 0.432(4)
H8 H 0.173(7) 0.383(5) 0.308(4)
H9 H 0.002(9) 0.428(6) 0.305(5)
H10 H -0.563(11) 0.358(8) 0.410(6)
H11 H -0.592(9) 0.479(7) 0.412(5)
H12 H -0.168(8) 0.469(6) 0.435(4)
H13 H 0.409(5) 0.362(4) 0.1180(11)
H14 H 0.500(14) 0.337(13) 0.218(7)
Cu1A Cu -0.14928(7) 0.53022(5) -0.17927(3)
K1_2 K 0.60917(13) 0.61676(11) 0.29693(7)
K1A K 0.39083(13) 1.38324(11) 0.70307(7)
K1A_2 K 0.39083(13) 0.38324(11) -0.29693(7)
K2A K 0.18076(12) 0.34911(10) -0.07522(7)
K2_2 K 0.81924(12) 0.65089(10) 0.07522(7)
K2A_2 K 0.18076(12) 1.34911(10) -0.07522(7)
O2_2 O -0.7700(4) 0.6285(3) 0.2764(2)
O3_2 O -0.5557(4) 0.6853(3) 0.4673(2)
O6A O -0.3833(5) 0.8971(3) 0.3504(2)
O7_2 O -0.5192(4) 0.6164(3) 0.1184(2)
O8A O -0.1841(4) 0.4282(3) -0.08242(19)
O9A O -0.2379(4) 0.4047(3) 0.1273(2)
O10A O 0.0303(4) 0.3247(3) 0.08376(19)
O12A O -0.1331(5) 0.9281(3) 0.1111(3)
O14_2 O -0.5841(5) 0.3562(4) 0.1774(4)
H13_2 H -0.591(5) 0.362(4) 0.1180(11)
H14_2 H -0.500(14) 0.337(13) 0.218(7)
loop_
_geom_bond_atom_site_label_1
_geom_bond_atom_site_label_2
_geom_bond_site_symmetry_1
_geom_bond_site_symmetry_2
Cu1 O2 1_555 1_555
K1 O1 1_555 1_555
K2 O1 1_555 1_555
C1 C2 1_555 1_555
C2 C3 1_555 1_555
C3 C4 1_555 1_555
C4 H1 1_555 1_555
C5 C4 1_555 1_555
H2 C5 1_555 1_555
C6 C1 1_555 1_555
H3 C6 1_555 1_555
C7 C1 1_555 1_555
C8 C2 1_555 1_555
C9 C10 1_555 1_555
C10 C11 1_555 1_555
C11 C12 1_555 1_555
C12 H4 1_555 1_555
C13 C12 1_555 1_555
H5 C13 1_555 1_555
C14 C9 1_555 1_555
H6 C14 1_555 1_555
C15 C9 1_555 1_555
C16 C10 1_555 1_555
O1 C7 1_555 1_555
O2 C7 1_555 1_555
O3 C8 1_555 1_555
O4 C8 1_555 1_555
O5 N1 1_555 1_555
O6 N1 1_555 1_555
O7 C15 1_555 1_555
O8 Cu1 1_555 1_555
O9 C16 1_555 1_555
O10 K2 1_555 1_555
O11 N2 1_555 1_555
O12 N2 1_555 1_555
O13 Cu1 1_555 1_555
O14 Cu1 1_555 1_555
O15 K1 1_555 1_555
O16 K1 1_555 1_555
N1 C3 1_555 1_555
N2 C11 1_555 1_555
H7 O16 1_555 1_555
H8 O13 1_555 1_555
H9 O13 1_555 1_555
H10 O15 1_555 1_555
H11 O15 1_555 1_555
H12 O16 1_555 1_555
H13 O14 1_555 1_555
H14 O14 1_555 1_555
Cu1A O10 1_555 1_555
K1_2 O2 1_555 1_555
K1A O6 1_555 1_555
K1A_2 O9 1_555 1_555
K2A O8 1_555 1_555
K2_2 O7 1_555 1_555
K2A_2 O12 1_555 1_555
O2_2 K1 1_555 1_555
O3_2 K1 1_555 1_555
O6A K1 1_555 1_555
O7_2 K1 1_555 1_555
O8A K2 1_555 1_555
O9A K1 1_555 1_555
O10A Cu1 1_555 1_555
O12A K2 1_555 1_555
O14_2 K1 1_555 1_555
H13_2 O14_2 1_555 1_555
H14_2 O14_2 1_555 1_555
K2 O8 1_555 1_555
K2 O7_2 1_555 1_555
K2 O9A 1_555 1_555
C5 C6 1_555 1_555
C13 C14 1_555 1_555
C15 O8 1_555 1_555
C16 O10 1_555 1_555
O3 K1_2 1_555 1_555
O7 K1_2 1_555 1_555
O9 K2A 1_555 1_555
O14 K1_2 1_555 1_555
Cu1A O8A 1_555 1_555
K2A O8A 1_555 1_555
K2A O10A 1_555 1_555

#END
