
#######################################################################
#
#                 Cambridge Crystallographic Data Centre
#                                CCDC 
#
#######################################################################
#
# If this CIF has been generated from an entry in the Cambridge 
# Structural Database, then it will include bibliographic, chemical, 
# crystal, experimental, refinement or atomic coordinate data resulting 
# from the CCDC's data processing and validation procedures.
#
#######################################################################

data_KECGOP
_symmetry_cell_setting           monoclinic
_symmetry_space_group_name_H-M   'C 2/c'
_symmetry_Int_Tables_number      15
_space_group_name_Hall           '-C 2yn'
loop_
_symmetry_equiv_pos_site_id
_symmetry_equiv_pos_as_xyz
1 x,y,z
2 1/2+x,1/2+y,z
3 -x,y,1/2-z
4 1/2-x,1/2+y,1/2-z
5 -x,-y,-z
6 1/2-x,1/2-y,-z
7 x,-y,1/2+z
8 1/2+x,1/2-y,1/2+z
_cell_length_a                   14.1732(17)
_cell_length_b                   16.115(3)
_cell_length_c                   12.809(3)
_cell_angle_alpha                90
_cell_angle_beta                 117.039(2)
_cell_angle_gamma                90
_cell_volume                     2605.82
loop_
_atom_site_label
_atom_site_type_symbol
_atom_site_fract_x
_atom_site_fract_y
_atom_site_fract_z
Mn1 Mn 0.0000 0.50109(2) 0.7500
O1 O 0.07724(11) 0.41262(8) 0.69154(11)
O2 O 0.22361(11) 0.37958(9) 0.85322(11)
O3 O -0.15007(11) 0.50784(10) 0.57865(12)
H1 H -0.1852(19) 0.4685(16) 0.594(2)
H2 H -0.176(2) 0.5454(16) 0.573(2)
N1 N 0.22282(11) 0.16473(8) 0.57229(12)
N2 N -0.03820(11) 0.61237(9) 0.82925(12)
C1 C 0.17763(12) 0.29779(10) 0.68478(14)
C2 C 0.20744(13) 0.31093(10) 0.59904(14)
H3 H 0.2168(15) 0.3666(12) 0.5747(16)
C3 C 0.23135(12) 0.24271(10) 0.54518(13)
C4 C 0.18969(13) 0.15033(10) 0.65607(15)
C5 C 0.17906(16) 0.06737(11) 0.68486(18)
H4 H 0.1894(17) 0.0276(14) 0.6473(19)
C6 C 0.15364(17) 0.05011(12) 0.77311(19)
H5 H 0.1472(17) -0.0068(13) 0.7972(19)
C7 C 0.13499(17) 0.11377(13) 0.83483(19)
H6 H 0.1144(19) 0.1001(15) 0.893(2)
C8 C 0.14044(16) 0.19418(12) 0.80635(17)
H7 H 0.1290(16) 0.2347(13) 0.8470(18)
C9 C 0.16812(13) 0.21513(10) 0.71704(15)
C10 C 0.15780(14) 0.36943(10) 0.74869(15)
C11 C -0.07152(15) 0.61120(14) 0.91078(16)
H8 H -0.0842(16) 0.5578(14) 0.9359(18)
C12 C -0.08917(17) 0.68299(16) 0.95912(19)
H9 H -0.1143(18) 0.6771(15) 1.013(2)
C13 C -0.07147(17) 0.75745(15) 0.92301(19)
H10 H -0.0847(18) 0.8080(15) 0.950(2)
C14 C -0.03485(15) 0.76218(12) 0.83775(17)
C15 C -0.01895(13) 0.68658(10) 0.79343(14)
C16 C -0.01553(19) 0.83748(13) 0.7924(2)
H11 H -0.0282(18) 0.8863(14) 0.825(2)
Mn1G Mn 0.5000 -0.00109(2) 0.2500
O1E O 0.42276(11) 0.08738(8) 0.30846(11)
O1B O -0.07724(11) 0.41262(8) 0.80846(11)
O2E O 0.27639(11) 0.12042(9) 0.14678(11)
O3B O 0.15007(11) 0.50784(10) 0.92135(12)
H1B H 0.1852(19) 0.4685(16) 0.906(2)
H2B H 0.176(2) 0.5454(16) 0.927(2)
N1E N 0.27718(11) 0.33527(8) 0.42771(12)
N2B N 0.03820(11) 0.61237(9) 0.67075(12)
C1E C 0.32237(12) 0.20221(10) 0.31522(14)
C2E C 0.29256(13) 0.18907(10) 0.40096(14)
H3E H 0.2832(15) 0.1334(12) 0.4253(16)
C3E C 0.26865(12) 0.25729(10) 0.45482(13)
C4E C 0.31031(13) 0.34967(10) 0.34393(15)
C5E C 0.32094(16) 0.43263(11) 0.31514(18)
H4E H 0.3106(17) 0.4724(14) 0.3527(19)
C6E C 0.34636(17) 0.44989(12) 0.22689(19)
H5E H 0.3528(17) 0.5068(13) 0.2028(19)
C7E C 0.36501(17) 0.38623(13) 0.16517(19)
H6E H 0.3856(19) 0.3999(15) 0.107(2)
C8E C 0.35956(16) 0.30582(12) 0.19365(17)
H7E H 0.3710(16) 0.2653(13) 0.1530(18)
C9E C 0.33188(13) 0.28487(10) 0.28296(15)
C10E C 0.34220(14) 0.13057(10) 0.25131(15)
C11B C 0.07152(15) 0.61120(14) 0.58922(16)
H8B H 0.0842(16) 0.5578(14) 0.5641(18)
C12B C 0.08917(17) 0.68299(16) 0.54088(19)
H9B H 0.1143(18) 0.6771(15) 0.487(2)
C13B C 0.07147(17) 0.75745(15) 0.57699(19)
H10B H 0.0847(18) 0.8080(15) 0.550(2)
C14B C 0.03485(15) 0.76218(12) 0.66225(17)
C15B C 0.01895(13) 0.68658(10) 0.70657(14)
C16B C 0.01553(19) 0.83748(13) 0.7076(2)
H11B H 0.0282(18) 0.8863(14) 0.675(2)
loop_
_geom_bond_atom_site_label_1
_geom_bond_atom_site_label_2
_geom_bond_site_symmetry_1
_geom_bond_site_symmetry_2
Mn1 O1 1_555 1_555
O1 C10 1_555 1_555
O2 C10 1_555 1_555
O3 Mn1 1_555 1_555
H1 O3 1_555 1_555
H2 O3 1_555 1_555
N1 C3 1_555 1_555
N2 Mn1 1_555 1_555
C1 C2 1_555 1_555
C2 H3 1_555 1_555
C3 C2 1_555 1_555
C4 N1 1_555 1_555
C5 C4 1_555 1_555
H4 C5 1_555 1_555
C6 C5 1_555 1_555
H5 C6 1_555 1_555
C7 C6 1_555 1_555
H6 C7 1_555 1_555
C8 C7 1_555 1_555
H7 C8 1_555 1_555
C9 C1 1_555 1_555
C10 C1 1_555 1_555
C11 N2 1_555 1_555
H8 C11 1_555 1_555
C12 C11 1_555 1_555
H9 C12 1_555 1_555
C13 C12 1_555 1_555
H10 C13 1_555 1_555
C14 C13 1_555 1_555
C15 N2 1_555 1_555
C16 C14 1_555 1_555
H11 C16 1_555 1_555
Mn1G O1E 1_555 1_555
O1E C10E 1_555 1_555
O1B Mn1 1_555 1_555
O2E C10E 1_555 1_555
O3B Mn1 1_555 1_555
H1B O3B 1_555 1_555
H2B O3B 1_555 1_555
N1E C3E 1_555 1_555
N2B Mn1 1_555 1_555
C1E C2E 1_555 1_555
C2E H3E 1_555 1_555
C3E C3 1_555 1_555
C4E N1E 1_555 1_555
C5E C4E 1_555 1_555
H4E C5E 1_555 1_555
C6E C5E 1_555 1_555
H5E C6E 1_555 1_555
C7E C6E 1_555 1_555
H6E C7E 1_555 1_555
C8E C7E 1_555 1_555
H7E C8E 1_555 1_555
C9E C1E 1_555 1_555
C10E C1E 1_555 1_555
C11B N2B 1_555 1_555
H8B C11B 1_555 1_555
C12B C11B 1_555 1_555
H9B C12B 1_555 1_555
C13B C12B 1_555 1_555
H10B C13B 1_555 1_555
C14B C13B 1_555 1_555
C15B C15 1_555 1_555
C16B C16 1_555 1_555
H11B C16B 1_555 1_555
C4 C9 1_555 1_555
C8 C9 1_555 1_555
C14 C15 1_555 1_555
N2B C15B 1_555 1_555
C2E C3E 1_555 1_555
C4E C9E 1_555 1_555
C8E C9E 1_555 1_555
C14B C15B 1_555 1_555
C14B C16B 1_555 1_555

#END
