
#######################################################################
#
#                 Cambridge Crystallographic Data Centre
#                                CCDC 
#
#######################################################################
#
# If this CIF has been generated from an entry in the Cambridge 
# Structural Database, then it will include bibliographic, chemical, 
# crystal, experimental, refinement or atomic coordinate data resulting 
# from the CCDC's data processing and validation procedures.
#
#######################################################################

data_KECGUV
_symmetry_cell_setting           monoclinic
_symmetry_space_group_name_H-M   'C 2/c'
_symmetry_Int_Tables_number      15
_space_group_name_Hall           '-C 2yn'
loop_
_symmetry_equiv_pos_site_id
_symmetry_equiv_pos_as_xyz
1 x,y,z
2 1/2+x,1/2+y,z
3 -x,y,1/2-z
4 1/2-x,1/2+y,1/2-z
5 -x,-y,-z
6 1/2-x,1/2-y,-z
7 x,-y,1/2+z
8 1/2+x,1/2-y,1/2+z
_cell_length_a                   14.5050(8)
_cell_length_b                   15.1932(8)
_cell_length_c                   12.7549(6)
_cell_angle_alpha                90
_cell_angle_beta                 116.8010(11)
_cell_angle_gamma                90
_cell_volume                     2508.94
loop_
_atom_site_label
_atom_site_type_symbol
_atom_site_fract_x
_atom_site_fract_y
_atom_site_fract_z
Mn1 Mn 1.0000 0.49479(2) 0.7500
O1 O 0.92256(9) 0.58842(7) 0.80919(9)
O2 O 0.79672(9) 0.63892(7) 0.64073(9)
O3 O 0.85986(9) 0.49422(8) 0.57597(9)
N1 N 0.77833(10) 0.84534(8) 0.93667(11)
N2 N 1.04349(10) 0.37488(8) 0.67771(11)
C1 C 0.77007(11) 0.76073(9) 0.95685(12)
C2 C 0.79764(12) 0.69278(10) 0.89999(13)
C3 C 0.82786(11) 0.71304(9) 0.81579(12)
C4 C 0.83499(11) 0.80298(9) 0.78957(13)
C5 C 0.86271(14) 0.83149(11) 0.70217(15)
C6 C 0.86923(15) 0.91903(12) 0.68286(17)
C7 C 0.85123(15) 0.98201(12) 0.75192(18)
C8 C 0.82465(14) 0.95702(10) 0.83672(16)
C9 C 0.81299(11) 0.86665(10) 0.85618(13)
C10 C 0.85107(12) 0.64070(9) 0.74926(13)
C11 C 1.01939(11) 0.29537(10) 0.70495(12)
C12 C 1.02978(14) 0.21964(11) 0.65126(15)
C13 C 1.06856(14) 0.22518(13) 0.57040(15)
C14 C 1.09348(14) 0.30619(13) 0.54309(15)
C15 C 1.07893(13) 0.37924(12) 0.59716(14)
H1 H 0.7942(13) 0.6322(11) 0.9224(14)
H2 H 0.8741(14) 0.7881(12) 0.6547(16)
H3 H 0.8862(15) 0.9378(13) 0.6257(18)
H4 H 0.8530(14) 1.0426(14) 0.7348(17)
H5 H 0.8145(15) 0.9994(11) 0.8819(18)
H6 H 1.0085(14) 0.1663(12) 0.6678(15)
H7 H 1.0784(15) 0.1725(14) 0.5338(17)
H8 H 1.1214(15) 0.3152(13) 0.4933(17)
H9 H 1.0938(13) 0.4378(12) 0.5754(15)
H10 H 0.8287(16) 0.5422(15) 0.5860(19)
H11 H 0.8200(15) 0.4554(14) 0.5646(18)
Mn1G Mn 0.5000 1.00521(2) 1.2500
O1E O 0.57744(9) 0.91158(7) 1.19081(9)
O1B O 1.07744(9) 0.58842(7) 0.69081(9)
O2E O 0.70328(9) 0.86108(7) 1.35927(9)
O3B O 1.14014(9) 0.49422(8) 0.92403(9)
N1E N 0.72167(10) 0.65466(8) 1.06333(11)
N2B N 0.95651(10) 0.37488(8) 0.82229(11)
C1E C 0.72993(11) 0.73927(9) 1.04315(12)
C2E C 0.70236(12) 0.80722(10) 1.10001(13)
C3E C 0.67214(11) 0.78696(9) 1.18421(12)
C4E C 0.66501(11) 0.69702(9) 1.21043(13)
C5E C 0.63729(14) 0.66851(11) 1.29783(15)
C6E C 0.63077(15) 0.58097(12) 1.31714(17)
C7E C 0.64877(15) 0.51799(12) 1.24808(18)
C8E C 0.67535(14) 0.54298(10) 1.16328(16)
C9E C 0.68701(11) 0.63335(10) 1.14382(13)
C10E C 0.64893(12) 0.85930(9) 1.25074(13)
C11B C 0.98061(11) 0.29537(10) 0.79505(12)
C12B C 0.97022(14) 0.21964(11) 0.84874(15)
C13B C 0.93144(14) 0.22518(13) 0.92960(15)
C14B C 0.90652(14) 0.30619(13) 0.95691(15)
C15B C 0.92107(13) 0.37924(12) 0.90284(14)
H1E H 0.7058(13) 0.8678(11) 1.0776(14)
H2E H 0.6259(14) 0.7119(12) 1.3453(16)
H3E H 0.6138(15) 0.5622(13) 1.3743(18)
H4E H 0.6470(14) 0.4574(14) 1.2652(17)
H5E H 0.6855(15) 0.5006(11) 1.1181(18)
H6B H 0.9915(14) 0.1663(12) 0.8322(15)
H7B H 0.9216(15) 0.1725(14) 0.9662(17)
H8B H 0.8786(15) 0.3152(13) 1.0067(17)
H9B H 0.9062(13) 0.4378(12) 0.9246(15)
H10B H 1.1713(16) 0.5422(15) 0.9140(19)
H11B H 1.1800(15) 0.4554(14) 0.9354(18)
loop_
_geom_bond_atom_site_label_1
_geom_bond_atom_site_label_2
_geom_bond_site_symmetry_1
_geom_bond_site_symmetry_2
Mn1 O1 1_555 1_555
O1 C10 1_555 1_555
O2 C10 1_555 1_555
O3 Mn1 1_555 1_555
N1 C1 1_555 1_555
N2 Mn1 1_555 1_555
C1 C2 1_555 1_555
C2 C3 1_555 1_555
C3 C4 1_555 1_555
C4 C5 1_555 1_555
C5 C6 1_555 1_555
C6 C7 1_555 1_555
C7 C8 1_555 1_555
C8 C9 1_555 1_555
C9 N1 1_555 1_555
C10 C3 1_555 1_555
C11 N2 1_555 1_555
C12 C11 1_555 1_555
C13 C12 1_555 1_555
C14 C13 1_555 1_555
C15 N2 1_555 1_555
H1 C2 1_555 1_555
H2 C5 1_555 1_555
H3 C6 1_555 1_555
H4 C7 1_555 1_555
H5 C8 1_555 1_555
H6 C12 1_555 1_555
H7 C13 1_555 1_555
H8 C14 1_555 1_555
H9 C15 1_555 1_555
H10 O3 1_555 1_555
H11 O3 1_555 1_555
Mn1G O1E 1_555 1_555
O1E C10E 1_555 1_555
O1B Mn1 1_555 1_555
O2E C10E 1_555 1_555
O3B Mn1 1_555 1_555
N1E C1E 1_555 1_555
N2B Mn1 1_555 1_555
C1E C1 1_555 1_555
C2E C1E 1_555 1_555
C3E C2E 1_555 1_555
C4E C3E 1_555 1_555
C5E C4E 1_555 1_555
C6E C5E 1_555 1_555
C7E C6E 1_555 1_555
C8E C7E 1_555 1_555
C9E N1E 1_555 1_555
C10E C3E 1_555 1_555
C11B C11 1_555 1_555
C12B C11B 1_555 1_555
C13B C12B 1_555 1_555
C14B C13B 1_555 1_555
C15B N2B 1_555 1_555
H1E C2E 1_555 1_555
H2E C5E 1_555 1_555
H3E C6E 1_555 1_555
H4E C7E 1_555 1_555
H5E C8E 1_555 1_555
H6B C12B 1_555 1_555
H7B C13B 1_555 1_555
H8B C14B 1_555 1_555
H9B C15B 1_555 1_555
H10B O3B 1_555 1_555
H11B O3B 1_555 1_555
C4 C9 1_555 1_555
C14 C15 1_555 1_555
N2B C11B 1_555 1_555
C4E C9E 1_555 1_555
C8E C9E 1_555 1_555
C14B C15B 1_555 1_555

#END
