
#######################################################################
#
#                 Cambridge Crystallographic Data Centre
#                                CCDC 
#
#######################################################################
#
# If this CIF has been generated from an entry in the Cambridge 
# Structural Database, then it will include bibliographic, chemical, 
# crystal, experimental, refinement or atomic coordinate data resulting 
# from the CCDC's data processing and validation procedures.
#
#######################################################################

data_KECGIJ
_symmetry_cell_setting           monoclinic
_symmetry_space_group_name_H-M   'P 21/n'
_symmetry_Int_Tables_number      14
_space_group_name_Hall           '-P 2yn'
loop_
_symmetry_equiv_pos_site_id
_symmetry_equiv_pos_as_xyz
1 x,y,z
2 1/2-x,1/2+y,1/2-z
3 -x,-y,-z
4 1/2+x,1/2-y,1/2+z
_cell_length_a                   13.656(3)
_cell_length_b                   10.015(2)
_cell_length_c                   19.127(4)
_cell_angle_alpha                90
_cell_angle_beta                 107.13(3)
_cell_angle_gamma                90
_cell_volume                     2499.86
loop_
_atom_site_label
_atom_site_type_symbol
_atom_site_fract_x
_atom_site_fract_y
_atom_site_fract_z
Zn1 Zn 0.554008(15) -0.13248(2) 0.617426(11)
O1 O 0.40517(11) -0.12227(16) 0.60357(9)
O2 O 0.31035(12) -0.12081(17) 0.48632(8)
O3 O -0.40212(10) -0.20444(15) 0.51150(9)
O4 O -0.29256(11) -0.14761(15) 0.61576(8)
O5 O 0.55757(12) 0.07077(15) 0.58989(8)
H1 H 0.600(2) 0.087(2) 0.5696(14)
H2 H 0.501(2) 0.107(3) 0.5638(15)
N1 N 0.05069(12) -0.01777(17) 0.61645(8)
N2 N -0.03929(12) -0.28517(15) 0.49055(9)
N3 N 0.59654(12) -0.10882(16) 0.73176(8)
N4 N 0.57218(12) -0.33643(16) 0.65666(9)
C1 C 0.13840(14) 0.05397(19) 0.64645(10)
C2 C 0.13364(17) 0.1586(2) 0.69501(12)
H3 H 0.0730 0.1740 0.7065
C3 C 0.21691(19) 0.2370(2) 0.72511(12)
H4 H 0.2126 0.3066 0.7563
C4 C 0.30902(18) 0.2130(2) 0.70911(12)
H5 H 0.3656 0.2667 0.7301
C5 C 0.31694(16) 0.1119(2) 0.66316(11)
H6 H 0.3790 0.0969 0.6537
C6 C 0.23156(14) 0.02947(18) 0.62976(9)
C7 C 0.23019(13) -0.07168(18) 0.57689(9)
C8 C 0.14075(14) -0.13851(17) 0.54567(10)
H7 H 0.1376 -0.2025 0.5099
C9 C 0.05289(13) -0.11023(17) 0.56787(10)
C10 C -0.04334(13) -0.18711(18) 0.53553(10)
C11 C -0.13280(13) -0.15502(17) 0.55448(10)
H8 H -0.1319 -0.0850 0.5866
C12 C -0.22095(13) -0.22657(17) 0.52580(9)
C13 C -0.21970(14) -0.33393(18) 0.47721(10)
C14 C -0.30391(15) -0.4199(2) 0.44564(12)
H9 H -0.3663 -0.4055 0.4548
C15 C -0.29380(18) -0.5235(2) 0.40202(13)
H10 H -0.3493 -0.5795 0.3821
C16 C -0.20136(19) -0.5468(2) 0.38671(13)
H11 H -0.1961 -0.6173 0.3564
C17 C -0.11890(17) -0.4667(2) 0.41599(12)
H12 H -0.0575 -0.4831 0.4057
C18 C -0.12595(14) -0.35903(18) 0.46177(10)
C19 C 0.32273(14) -0.10734(18) 0.55256(11)
C20 C -0.31174(14) -0.19036(18) 0.55178(12)
C21 C 0.60018(19) 0.0079(2) 0.76571(12)
H13 H 0.5834 0.0851 0.7377
C22 C 0.6280(2) 0.0187(3) 0.84092(14)
H14 H 0.6301 0.1016 0.8632
C23 C 0.6521(2) -0.0944(3) 0.88174(13)
H15 H 0.6706 -0.0897 0.9325
C24 C 0.6492(2) -0.2157(3) 0.84775(12)
H16 H 0.6664 -0.2935 0.8752
C25 C 0.62036(15) -0.2206(2) 0.77169(10)
C26 C 0.61205(15) -0.3469(2) 0.72973(11)
C27 C 0.6438(2) -0.4687(3) 0.76281(15)
H17 H 0.6725 -0.4743 0.8133
C28 C 0.6326(2) -0.5811(3) 0.7203(2)
H18 H 0.6534 -0.6636 0.7418
C29 C 0.5905(2) -0.5714(2) 0.6460(2)
H19 H 0.5813 -0.6470 0.6165
C30 C 0.56185(17) -0.4463(2) 0.61571(14)
H20 H 0.5346 -0.4387 0.5652
Zn1_2 Zn -0.445992(15) -0.13248(2) 0.617426(11)
O3_2 O 0.59788(10) -0.20444(15) 0.51150(9)
O4_2 O 0.70744(11) -0.14761(15) 0.61576(8)
loop_
_geom_bond_atom_site_label_1
_geom_bond_atom_site_label_2
_geom_bond_site_symmetry_1
_geom_bond_site_symmetry_2
Zn1 O1 1_555 1_555
O1 C19 1_555 1_555
O2 C19 1_555 1_555
O3 C20 1_555 1_555
O4 C20 1_555 1_555
O5 Zn1 1_555 1_555
H1 O5 1_555 1_555
H2 O5 1_555 1_555
N1 C1 1_555 1_555
N2 C10 1_555 1_555
N3 Zn1 1_555 1_555
N4 Zn1 1_555 1_555
C1 C2 1_555 1_555
C2 H3 1_555 1_555
C3 C2 1_555 1_555
H4 C3 1_555 1_555
C4 C3 1_555 1_555
H5 C4 1_555 1_555
C5 C4 1_555 1_555
H6 C5 1_555 1_555
C6 C1 1_555 1_555
C7 C6 1_555 1_555
C8 C7 1_555 1_555
H7 C8 1_555 1_555
C9 N1 1_555 1_555
C10 C9 1_555 1_555
C11 C10 1_555 1_555
H8 C11 1_555 1_555
C12 C11 1_555 1_555
C13 C12 1_555 1_555
C14 C13 1_555 1_555
H9 C14 1_555 1_555
C15 C14 1_555 1_555
H10 C15 1_555 1_555
C16 C15 1_555 1_555
H11 C16 1_555 1_555
C17 C16 1_555 1_555
H12 C17 1_555 1_555
C18 N2 1_555 1_555
C19 C7 1_555 1_555
C20 C12 1_555 1_555
C21 N3 1_555 1_555
H13 C21 1_555 1_555
C22 C21 1_555 1_555
H14 C22 1_555 1_555
C23 C22 1_555 1_555
H15 C23 1_555 1_555
C24 C23 1_555 1_555
H16 C24 1_555 1_555
C25 N3 1_555 1_555
C26 N4 1_555 1_555
C27 C26 1_555 1_555
H17 C27 1_555 1_555
C28 C27 1_555 1_555
H18 C28 1_555 1_555
C29 C28 1_555 1_555
H19 C29 1_555 1_555
C30 N4 1_555 1_555
H20 C30 1_555 1_555
Zn1_2 O3 1_555 1_555
O3_2 Zn1 1_555 1_555
O4_2 Zn1 1_555 1_555
O4 Zn1_2 1_555 1_555
C5 C6 1_555 1_555
C8 C9 1_555 1_555
C13 C18 1_555 1_555
C17 C18 1_555 1_555
C24 C25 1_555 1_555
C25 C26 1_555 1_555
C29 C30 1_555 1_555

#END
