
#######################################################################
#
#                 Cambridge Crystallographic Data Centre
#                                CCDC 
#
#######################################################################
#
# If this CIF has been generated from an entry in the Cambridge 
# Structural Database, then it will include bibliographic, chemical, 
# crystal, experimental, refinement or atomic coordinate data resulting 
# from the CCDC's data processing and validation procedures.
#
#######################################################################

data_KECHAC
_symmetry_cell_setting           triclinic
_symmetry_space_group_name_H-M   'P -1'
_symmetry_Int_Tables_number      2
_space_group_name_Hall           '-P 1'
loop_
_symmetry_equiv_pos_site_id
_symmetry_equiv_pos_as_xyz
1 x,y,z
2 -x,-y,-z
_cell_length_a                   10.3995(12)
_cell_length_b                   13.5437(15)
_cell_length_c                   14.6455(17)
_cell_angle_alpha                66.289(2)
_cell_angle_beta                 76.241(2)
_cell_angle_gamma                87.576(2)
_cell_volume                     1831.16
loop_
_atom_site_label
_atom_site_type_symbol
_atom_site_fract_x
_atom_site_fract_y
_atom_site_fract_z
S1 S 0.5000 0.0000 1.0000
O1 O 0.4564(5) 0.1070(4) 0.9842(4)
O2 O 0.6524(5) 0.0085(4) 0.9661(4)
O1A O 0.5436(5) -0.1070(4) 1.0158(4)
O2A O 0.3476(5) -0.0085(4) 1.0339(4)
O9 O 0.7279(10) 0.6185(7) 0.5033(6)
Ag1 Ag 0.91450(3) 0.52447(2) 0.74333(3)
N1 N 0.6229(3) 0.3075(3) 0.8569(3)
H1 H 0.5975 0.2452 0.8593
C1 C 0.4671(4) 0.4455(3) 0.8696(3)
H2 H 0.5123 0.4577 0.9169
H3 H 0.4354 0.5153 0.8281
N2 N 0.7508(3) 0.2107(2) 0.9659(3)
H4 H 0.7230 0.1552 0.9575
C2 C 0.5648(4) 0.4054(3) 0.7992(3)
H5 H 0.5188 0.3910 0.7535
H6 H 0.6362 0.4623 0.7555
N3 N 0.2532(4) 0.1995(3) 0.8708(3)
H7 H 0.3025 0.1584 0.9110
C3 C 0.2518(5) 0.3816(3) 0.8714(4)
H8 H 0.2955 0.4105 0.7971
H9 H 0.1904 0.4354 0.8835
N4 N 0.3395(4) 0.1143(3) 0.7655(3)
H10 H 0.4002 0.0942 0.8013
C4 C 0.1729(4) 0.2767(3) 0.9010(4)
H11 H 0.1361 0.2442 0.9764
H12 H 0.0975 0.2927 0.8678
O5 O 0.2198(3) 0.1605(2) 1.2896(2)
N5 N 0.3713(3) 0.1970(3) 1.1372(2)
H13 H 0.4231 0.1686 1.0983
C5 C 0.2984(4) 0.3720(3) 1.0295(3)
H14 H 0.2066 0.3392 1.0572
H15 H 0.2950 0.4486 1.0202
O6 O 0.1855(4) 0.2397(3) 0.7252(3)
N6 N 0.2766(3) 0.0261(2) 1.2325(2)
H16 H 0.3298 0.0119 1.1834
C6 C 0.3812(5) 0.3131(3) 1.1064(3)
H17 H 0.4752 0.3399 1.0753
H18 H 0.3507 0.3293 1.1680
O7 O 0.7665(3) 0.3960(2) 0.8986(2)
N7 N 0.3530(3) 0.3670(2) 0.9300(3)
C7 C 0.7149(4) 0.3106(3) 0.9067(3)
O8 O 0.7797(4) 0.6616(3) 0.6591(3)
N8 N 0.9731(4) 0.3668(3) 1.2229(3)
C8 C 0.2544(4) 0.1891(3) 0.7827(3)
N9 N 0.4780(6) -0.2761(4) 0.6922(4)
C9 C 0.2847(4) 0.1312(3) 1.2240(3)
N10 N 0.0688(4) -0.4047(3) 1.3231(3)
C10 C 0.8265(4) 0.1883(3) 1.0380(3)
C11 C 0.8487(4) 0.2610(3) 1.0793(3)
H19 H 0.8163 0.3312 1.0561
C12 C 0.9194(4) 0.2280(3) 1.1555(3)
C13 C 0.9664(4) 0.1251(3) 1.1925(3)
H20 H 1.0113 0.1036 1.2463
C14 C 0.9462(4) 0.0546(3) 1.1495(4)
H21 H 0.9790 -0.0155 1.1727
C15 C 0.8780(4) 0.0865(3) 1.0721(3)
H22 H 0.8662 0.0381 1.0421
C16 C 0.9471(4) 0.3041(3) 1.1948(3)
C17 C 0.3903(4) -0.0341(3) 0.7165(3)
H23 H 0.4271 -0.0678 0.7745
C18 C 0.3885(4) -0.0858(3) 0.6516(3)
C19 C 0.3373(5) -0.0384(4) 0.5655(4)
H24 H 0.3359 -0.0746 0.5220
C20 C 0.2885(5) 0.0629(4) 0.5446(4)
H25 H 0.2556 0.0974 0.4848
C21 C 0.2867(5) 0.1151(4) 0.6091(4)
H26 H 0.2503 0.1838 0.5941
C22 C 0.3380(4) 0.0675(4) 0.6963(3)
C23 C 0.4392(5) -0.1924(4) 0.6757(4)
C24 C 0.1933(4) -0.0604(3) 1.3105(3)
C25 C 0.1761(4) -0.1499(3) 1.2888(3)
H27 H 0.2189 -0.1497 1.2237
C26 C 0.0961(4) -0.2389(3) 1.3629(3)
C27 C 0.0322(4) -0.2415(3) 1.4588(3)
H28 H -0.0226 -0.3028 1.5089
C28 C 0.0504(4) -0.1526(3) 1.4793(3)
H29 H 0.0076 -0.1533 1.5446
C29 C 0.1295(4) -0.0627(3) 1.4069(3)
H30 H 0.1404 -0.0025 1.4227
C30 C 0.0799(4) -0.3309(3) 1.3395(3)
H31 H 0.756(3) 0.640(3) 0.616(3)
H32 H 0.770(9) 0.727(8) 0.674(8)
Ag1A Ag 1.08550(3) 0.47553(2) 1.25667(3)
Ag1A_2 Ag 0.08550(3) -0.52447(2) 1.25667(3)
N8A N 1.0269(4) 0.6332(3) 0.7771(3)
N10A N 0.9312(4) 0.4047(3) 0.6769(3)
O3? O 0.4621(6) -0.0748(4) 1.1073(4)
O4? O 0.4539(5) -0.0421(4) 0.9347(4)
loop_
_geom_bond_atom_site_label_1
_geom_bond_atom_site_label_2
_geom_bond_site_symmetry_1
_geom_bond_site_symmetry_2
Ag1 O7 1_555 1_555
S1 O1 1_555 1_555
N1 H1 1_555 1_555
C1 H2 1_555 1_555
H3 C1 1_555 1_555
O2 S1 1_555 1_555
N2 H4 1_555 1_555
C2 N1 1_555 1_555
H5 C2 1_555 1_555
H6 C2 1_555 1_555
N3 H7 1_555 1_555
C3 H8 1_555 1_555
H9 C3 1_555 1_555
N4 H10 1_555 1_555
C4 N3 1_555 1_555
H11 C4 1_555 1_555
H12 C4 1_555 1_555
O5 C9 1_555 1_555
N5 H13 1_555 1_555
C5 H14 1_555 1_555
H15 C5 1_555 1_555
O6 C8 1_555 1_555
N6 H16 1_555 1_555
C6 N5 1_555 1_555
H17 C6 1_555 1_555
H18 C6 1_555 1_555
O7 C7 1_555 1_555
N7 C1 1_555 1_555
C7 N1 1_555 1_555
O8 Ag1 1_555 1_555
N8 C16 1_555 1_555
C8 N3 1_555 1_555
N9 C23 1_555 1_555
C9 N5 1_555 1_555
N10 C30 1_555 1_555
C10 N2 1_555 1_555
C11 C10 1_555 1_555
H19 C11 1_555 1_555
C12 C11 1_555 1_555
C13 C12 1_555 1_555
H20 C13 1_555 1_555
C14 C13 1_555 1_555
H21 C14 1_555 1_555
C15 C10 1_555 1_555
H22 C15 1_555 1_555
C16 C12 1_555 1_555
C17 H23 1_555 1_555
C18 C17 1_555 1_555
C19 C18 1_555 1_555
H24 C19 1_555 1_555
C20 C19 1_555 1_555
H25 C20 1_555 1_555
C21 C20 1_555 1_555
H26 C21 1_555 1_555
C22 N4 1_555 1_555
C23 C18 1_555 1_555
C24 N6 1_555 1_555
C25 C24 1_555 1_555
H27 C25 1_555 1_555
C26 C25 1_555 1_555
C27 C26 1_555 1_555
H28 C27 1_555 1_555
C28 C27 1_555 1_555
H29 C28 1_555 1_555
C29 C24 1_555 1_555
H30 C29 1_555 1_555
C30 C26 1_555 1_555
H31 O8 1_555 1_555
H32 O8 1_555 1_555
Ag1A N8 1_555 1_555
Ag1A_2 N10 1_555 1_555
O1A S1 1_555 1_555
O2A S1 1_555 1_555
N8A Ag1 1_555 1_555
N10A Ag1 1_555 1_555
C1 C2 1_555 1_555
N2 C7 1_555 1_555
C3 C4 1_555 1_555
C3 N7 1_555 1_555
N4 C8 1_555 1_555
C5 C6 1_555 1_555
C5 N7 1_555 1_555
N6 C9 1_555 1_555
C14 C15 1_555 1_555
C17 C22 1_555 1_555
C21 C22 1_555 1_555
C28 C29 1_555 1_555

#END
