
#######################################################################
#
#                 Cambridge Crystallographic Data Centre
#                                CCDC 
#
#######################################################################
#
# If this CIF has been generated from an entry in the Cambridge 
# Structural Database, then it will include bibliographic, chemical, 
# crystal, experimental, refinement or atomic coordinate data resulting 
# from the CCDC's data processing and validation procedures.
#
#######################################################################

data_KECSEQ
_symmetry_cell_setting           monoclinic
_symmetry_space_group_name_H-M   'P 21/n'
_symmetry_Int_Tables_number      14
_space_group_name_Hall           '-P 2yn'
loop_
_symmetry_equiv_pos_site_id
_symmetry_equiv_pos_as_xyz
1 x,y,z
2 1/2-x,1/2+y,1/2-z
3 -x,-y,-z
4 1/2+x,1/2-y,1/2+z
_cell_length_a                   11.996(3)
_cell_length_b                   14.703(3)
_cell_length_c                   15.094(3)
_cell_angle_alpha                90
_cell_angle_beta                 111.77(2)
_cell_angle_gamma                90
_cell_volume                     2472.37
loop_
_atom_site_label
_atom_site_type_symbol
_atom_site_fract_x
_atom_site_fract_y
_atom_site_fract_z
Cu1 Cu 0.0295(1) 0.0440(1) 0.1077(1)
Cu2 Cu 0.5000 0.0000 0.0000
N1 N 0.1231(3) -0.0094(2) 0.0011(2)
N2 N 0.2082(3) 0.0295(2) -0.0045(2)
N3 N 0.2914(3) 0.0674(2) -0.0068(3)
N4 N 0.1791(3) 0.0872(3) 0.2089(3)
N5 N 0.2506(3) 0.0412(3) 0.2662(3)
N6 N 0.3215(4) -0.0010(3) 0.3246(4)
N7 N 0.5797(3) 0.0712(2) 0.1191(3)
N8 N 0.6856(4) 0.0835(2) 0.1475(2)
N9 N 0.7880(4) 0.0985(3) 0.1759(3)
N10 N 0.0350(3) -0.0759(2) 0.1726(2)
C1 C -0.0493(4) -0.0957(3) 0.2084(3)
C2 C -0.0518(4) -0.1765(3) 0.2551(4)
C3 C 0.0405(4) -0.2380(3) 0.2654(3)
C4 C 0.1264(4) -0.2182(3) 0.2295(3)
C5 C 0.1210(4) -0.1371(3) 0.1826(3)
C6 C -0.1517(6) -0.1986(5) 0.2902(6)
C7 C -0.2276(6) -0.1285(5) 0.2972(6)
N11 N 0.0043(3) 0.1741(2) 0.0592(2)
C8 C 0.0941(3) 0.2188(3) 0.0451(3)
C9 C 0.0846(4) 0.3061(3) 0.0095(3)
C10 C -0.0242(4) 0.3493(3) -0.0100(4)
C11 C -0.1165(4) 0.3049(3) 0.0044(4)
C12 C -0.0993(4) 0.2168(3) 0.0385(3)
C13 C 0.1900(5) 0.3485(4) -0.0065(4)
C14 C 0.1598(6) 0.4194(4) -0.0835(5)
N12 N 0.5205(3) 0.1043(2) -0.0796(2)
C15 C 0.4977(3) 0.1898(3) -0.0607(3)
C16 C 0.5057(4) 0.2646(3) -0.1135(3)
C17 C 0.5408(4) 0.2479(3) -0.1904(3)
C18 C 0.5647(4) 0.1605(3) -0.2107(3)
C19 C 0.5526(4) 0.0898(3) -0.1545(3)
C20 C 0.4720(5) 0.3578(3) -0.0913(4)
C21 C 0.5591(5) 0.4317(3) -0.0875(5)
H1 H -0.1092(4) -0.0530(3) 0.2014(3)
H2 H 0.0435(4) -0.2927(3) 0.2970(3)
H3 H 0.1882(4) -0.2593(3) 0.2365(3)
H4 H 0.1791(4) -0.1245(3) 0.1571(3)
H5 H -0.2018(6) -0.2448(5) 0.2482(6)
H6 H -0.1152(6) -0.2260(5) 0.3528(6)
H7 H -0.1807(8) -0.0825(17) 0.3400(27)
H8 H -0.2852(29) -0.1528(9) 0.3212(34)
H9 H -0.2687(33) -0.1024(22) 0.2353(8)
H10 H 0.1672(3) 0.1890(3) 0.0603(3)
H11 H -0.0348(4) 0.4087(3) -0.0328(4)
H12 H -0.1899(4) 0.3337(3) -0.0087(4)
H13 H -0.1626(4) 0.1865(3) 0.0471(3)
H14 H 0.2421(5) 0.3760(4) 0.0528(4)
H15 H 0.2352(5) 0.3005(4) -0.0220(4)
H16 H 0.2310(11) 0.4359(29) -0.0944(30)
H17 H 0.1275(49) 0.4721(16) -0.0641(18)
H18 H 0.1014(39) 0.3954(14) -0.1413(12)
H19 H 0.4751(3) 0.1995(3) -0.0088(3)
H20 H 0.5481(4) 0.2959(3) -0.2280(3)
H21 H 0.5887(4) 0.1491(3) -0.2616(3)
H22 H 0.5672(4) 0.0306(3) -0.1690(3)
H23 H 0.3946(5) 0.3737(3) -0.1392(4)
H24 H 0.4626(5) 0.3555(3) -0.0302(4)
H25 H 0.5282(17) 0.4889(5) -0.0762(28)
H26 H 0.5707(26) 0.4341(17) -0.1470(10)
H27 H 0.6344(12) 0.4195(14) -0.0367(18)
Cu1B Cu -0.0295(1) -0.0440(1) -0.1077(1)
N1B N -0.1231(3) 0.0094(2) -0.0011(2)
N4B N -0.1791(3) -0.0872(3) -0.2089(3)
N5B N -0.2506(3) -0.0412(3) -0.2662(3)
N6B N -0.3215(4) 0.0010(3) -0.3246(4)
N10B N -0.0350(3) 0.0759(2) -0.1726(2)
C1B C 0.0493(4) 0.0957(3) -0.2084(3)
C2B C 0.0518(4) 0.1765(3) -0.2551(4)
C3B C -0.0405(4) 0.2380(3) -0.2654(3)
C4B C -0.1264(4) 0.2182(3) -0.2295(3)
C5B C -0.1210(4) 0.1371(3) -0.1826(3)
H4B H -0.1791(4) 0.1245(3) -0.1571(3)
H3B H -0.1882(4) 0.2593(3) -0.2365(3)
H2B H -0.0435(4) 0.2927(3) -0.2970(3)
C6B C 0.1517(6) 0.1986(5) -0.2902(6)
C7B C 0.2276(6) 0.1285(5) -0.2972(6)
H7B H 0.1807(8) 0.0825(17) -0.3400(27)
H8B H 0.2852(29) 0.1528(9) -0.3212(34)
H9B H 0.2687(33) 0.1024(22) -0.2353(8)
H5B H 0.2018(6) 0.2448(5) -0.2482(6)
H6B H 0.1152(6) 0.2260(5) -0.3528(6)
H1B H 0.1092(4) 0.0530(3) -0.2014(3)
N11B N -0.0043(3) -0.1741(2) -0.0592(2)
C8B C -0.0941(3) -0.2188(3) -0.0451(3)
C9B C -0.0846(4) -0.3061(3) -0.0095(3)
C10B C 0.0242(4) -0.3493(3) 0.0100(4)
C11B C 0.1165(4) -0.3049(3) -0.0044(4)
C12B C 0.0993(4) -0.2168(3) -0.0385(3)
H13B H 0.1626(4) -0.1865(3) -0.0471(3)
H12B H 0.1899(4) -0.3337(3) 0.0087(4)
H11B H 0.0348(4) -0.4087(3) 0.0328(4)
C13B C -0.1900(5) -0.3485(4) 0.0065(4)
C14B C -0.1598(6) -0.4194(4) 0.0835(5)
H16B H -0.2310(11) -0.4359(29) 0.0944(30)
H17B H -0.1275(49) -0.4721(16) 0.0641(18)
H18B H -0.1014(39) -0.3954(14) 0.1413(12)
H14B H -0.2421(5) -0.3760(4) -0.0528(4)
H15B H -0.2352(5) -0.3005(4) 0.0220(4)
H10B H -0.1672(3) -0.1890(3) -0.0603(3)
N3B N 0.7086(3) -0.0674(2) 0.0068(3)
N7B N 0.4203(3) -0.0712(2) -0.1191(3)
N8B N 0.3144(4) -0.0835(2) -0.1475(2)
N9B N 0.2120(4) -0.0985(3) -0.1759(3)
N12B N 0.4795(3) -0.1043(2) 0.0796(2)
C15B C 0.5023(3) -0.1898(3) 0.0607(3)
C16B C 0.4943(4) -0.2646(3) 0.1135(3)
C17B C 0.4592(4) -0.2479(3) 0.1904(3)
C18B C 0.4353(4) -0.1605(3) 0.2107(3)
C19B C 0.4474(4) -0.0898(3) 0.1545(3)
H22B H 0.4328(4) -0.0306(3) 0.1690(3)
H21B H 0.4113(4) -0.1491(3) 0.2616(3)
H20B H 0.4519(4) -0.2959(3) 0.2280(3)
C20B C 0.5280(5) -0.3578(3) 0.0913(4)
C21B C 0.4409(5) -0.4317(3) 0.0875(5)
H25B H 0.4718(17) -0.4889(5) 0.0762(28)
H26B H 0.4293(26) -0.4341(17) 0.1470(10)
H27B H 0.3656(12) -0.4195(14) 0.0367(18)
H23B H 0.6054(5) -0.3737(3) 0.1392(4)
H24B H 0.5374(5) -0.3555(3) 0.0302(4)
H19B H 0.5249(3) -0.1995(3) 0.0088(3)
N2B N -0.2082(3) -0.0295(2) 0.0045(2)
N3B_2 N -0.2914(3) -0.0674(2) 0.0068(3)
Cu2_2 Cu -0.5000 0.0000 0.0000
loop_
_geom_bond_atom_site_label_1
_geom_bond_atom_site_label_2
_geom_bond_site_symmetry_1
_geom_bond_site_symmetry_2
Cu1 N1 1_555 1_555
Cu2 N3 1_555 1_555
N1 N2 1_555 1_555
N2 N3 1_555 1_555
N4 Cu1 1_555 1_555
N5 N4 1_555 1_555
N6 N5 1_555 1_555
N7 Cu2 1_555 1_555
N8 N7 1_555 1_555
N9 N8 1_555 1_555
N10 Cu1 1_555 1_555
C1 N10 1_555 1_555
C2 C1 1_555 1_555
C3 C2 1_555 1_555
C4 C3 1_555 1_555
C5 N10 1_555 1_555
C6 C2 1_555 1_555
C7 C6 1_555 1_555
N11 Cu1 1_555 1_555
C8 N11 1_555 1_555
C9 C8 1_555 1_555
C10 C9 1_555 1_555
C11 C10 1_555 1_555
C12 N11 1_555 1_555
C13 C9 1_555 1_555
C14 C13 1_555 1_555
N12 Cu2 1_555 1_555
C15 N12 1_555 1_555
C16 C15 1_555 1_555
C17 C16 1_555 1_555
C18 C17 1_555 1_555
C19 N12 1_555 1_555
C20 C16 1_555 1_555
C21 C20 1_555 1_555
H1 C1 1_555 1_555
H2 C3 1_555 1_555
H3 C4 1_555 1_555
H4 C5 1_555 1_555
H5 C6 1_555 1_555
H6 C6 1_555 1_555
H7 C7 1_555 1_555
H8 C7 1_555 1_555
H9 C7 1_555 1_555
H10 C8 1_555 1_555
H11 C10 1_555 1_555
H12 C11 1_555 1_555
H13 C12 1_555 1_555
H14 C13 1_555 1_555
H15 C13 1_555 1_555
H16 C14 1_555 1_555
H17 C14 1_555 1_555
H18 C14 1_555 1_555
H19 C15 1_555 1_555
H20 C17 1_555 1_555
H21 C18 1_555 1_555
H22 C19 1_555 1_555
H23 C20 1_555 1_555
H24 C20 1_555 1_555
H25 C21 1_555 1_555
H26 C21 1_555 1_555
H27 C21 1_555 1_555
Cu1B N1 1_555 1_555
N1B Cu1 1_555 1_555
N4B Cu1B 1_555 1_555
N5B N4B 1_555 1_555
N6B N5B 1_555 1_555
N10B Cu1B 1_555 1_555
C1B N10B 1_555 1_555
C2B C1B 1_555 1_555
C3B C2B 1_555 1_555
C4B C3B 1_555 1_555
C5B N10B 1_555 1_555
H4B C5B 1_555 1_555
H3B C4B 1_555 1_555
H2B C3B 1_555 1_555
C6B C2B 1_555 1_555
C7B C6B 1_555 1_555
H7B C7B 1_555 1_555
H8B C7B 1_555 1_555
H9B C7B 1_555 1_555
H5B C6B 1_555 1_555
H6B C6B 1_555 1_555
H1B C1B 1_555 1_555
N11B Cu1B 1_555 1_555
C8B N11B 1_555 1_555
C9B C8B 1_555 1_555
C10B C9B 1_555 1_555
C11B C10B 1_555 1_555
C12B N11B 1_555 1_555
H13B C12B 1_555 1_555
H12B C11B 1_555 1_555
H11B C10B 1_555 1_555
C13B C9B 1_555 1_555
C14B C13B 1_555 1_555
H16B C14B 1_555 1_555
H17B C14B 1_555 1_555
H18B C14B 1_555 1_555
H14B C13B 1_555 1_555
H15B C13B 1_555 1_555
H10B C8B 1_555 1_555
N3B Cu2 1_555 1_555
N7B Cu2 1_555 1_555
N8B N7B 1_555 1_555
N9B N8B 1_555 1_555
N12B Cu2 1_555 1_555
C15B N12B 1_555 1_555
C16B C15B 1_555 1_555
C17B C16B 1_555 1_555
C18B C17B 1_555 1_555
C19B N12B 1_555 1_555
H22B C19B 1_555 1_555
H21B C18B 1_555 1_555
H20B C17B 1_555 1_555
C20B C16B 1_555 1_555
C21B C20B 1_555 1_555
H25B C21B 1_555 1_555
H26B C21B 1_555 1_555
H27B C21B 1_555 1_555
H23B C20B 1_555 1_555
H24B C20B 1_555 1_555
H19B C15B 1_555 1_555
N2B N1B 1_555 1_555
N3B_2 N2B 1_555 1_555
Cu2_2 N3B_2 1_555 1_555
C4 C5 1_555 1_555
C11 C12 1_555 1_555
C18 C19 1_555 1_555
Cu1B N1B 1_555 1_555
C4B C5B 1_555 1_555
C11B C12B 1_555 1_555
C18B C19B 1_555 1_555

#END
