
#######################################################################
#
#                 Cambridge Crystallographic Data Centre
#                                CCDC 
#
#######################################################################
#
# If this CIF has been generated from an entry in the Cambridge 
# Structural Database, then it will include bibliographic, chemical, 
# crystal, experimental, refinement or atomic coordinate data resulting 
# from the CCDC's data processing and validation procedures.
#
#######################################################################

data_KECVIX
_symmetry_cell_setting           monoclinic
_symmetry_space_group_name_H-M   'P 21/n'
_symmetry_Int_Tables_number      14
_space_group_name_Hall           '-P 2yn'
loop_
_symmetry_equiv_pos_site_id
_symmetry_equiv_pos_as_xyz
1 x,y,z
2 1/2-x,1/2+y,1/2-z
3 -x,-y,-z
4 1/2+x,1/2-y,1/2+z
_cell_length_a                   14.653(6)
_cell_length_b                   8.076(3)
_cell_length_c                   15.114(7)
_cell_angle_alpha                90
_cell_angle_beta                 109.56(3)
_cell_angle_gamma                90
_cell_volume                     1685.34
loop_
_atom_site_label
_atom_site_type_symbol
_atom_site_fract_x
_atom_site_fract_y
_atom_site_fract_z
Cu1 Cu -0.3962(1) 0.0242(1) -0.3842(1)
N1 N -0.3901(5) -0.1165(8) -0.2757(5)
N2 N -0.3222(5) -0.2009(8) -0.2357(5)
N3 N -0.2601(5) -0.2876(10) -0.1953(5)
N4 N -0.4271(5) 0.1472(8) -0.5047(4)
N5 N -0.3711(5) 0.1554(7) -0.5457(5)
N6 N -0.3202(6) 0.1706(10) -0.5879(6)
N7 N -0.4713(4) 0.1913(6) -0.3356(4)
C1 C -0.5378(5) 0.1443(9) -0.2998(5)
C2 C -0.5886(6) 0.2567(11) -0.2655(6)
C3 C -0.5719(6) 0.4230(10) -0.2667(5)
C4 C -0.5024(6) 0.4712(10) -0.3034(5)
C5 C -0.4547(6) 0.3540(9) -0.3374(5)
C6 C -0.6235(9) 0.5450(14) -0.2252(7)
C7 C -0.5956(16) 0.5668(23) -0.1374(12)
N8 N -0.3142(4) -0.1423(7) -0.4221(4)
C8 C -0.3499(5) -0.2914(9) -0.4528(5)
C9 C -0.2946(6) -0.4148(10) -0.4698(6)
C10 C -0.1988(6) -0.3922(10) -0.4553(7)
C11 C -0.1630(6) -0.2382(11) -0.4266(6)
C12 C -0.2210(6) -0.1173(9) -0.4104(6)
C13 C -0.1279(9) -0.5481(19) -0.4575(8)
C14 C -0.1345(8) -0.5400(15) -0.5493(9)
H1 H -0.5508(5) 0.0319(9) -0.2975(5)
H2 H -0.6351(6) 0.2184(11) -0.2411(6)
H3 H -0.4874(6) 0.5828(10) -0.3053(5)
H4 H -0.4086(6) 0.3895(9) -0.3630(5)
H5 H -0.6211(9) 0.6517(14) -0.2539(7)
H6 H -0.6911(9) 0.5123(14) -0.2449(7)
H7 H -0.6368(85) 0.506(18) -0.1113(20)
H8 H -0.599(13) 0.6825(32) -0.1241(12)
H9 H -0.5301(49) 0.529(22) -0.1100(20)
H10 H -0.4150(5) -0.3120(9) -0.4629(5)
H11 H -0.3229(6) -0.5165(10) -0.4917(6)
H12 H -0.0984(6) -0.2150(11) -0.4179(6)
H13 H -0.1944(6) -0.0137(9) -0.3905(6)
H14 H -0.0621(9) -0.5308(19) -0.4156(8)
H15 H -0.1524(9) -0.6521(19) -0.4425(8)
H16 H -0.0961(44) -0.6266(58) -0.5627(16)
H17 H -0.1110(50) -0.4345(38) -0.5617(15)
H18 H -0.2008(11) -0.5532(93) -0.5884(9)
N3A N -0.2399(5) 0.2124(10) -0.3047(5)
Cu1A Cu -0.1038(1) -0.4758(1) -0.1158(1)
loop_
_geom_bond_atom_site_label_1
_geom_bond_atom_site_label_2
_geom_bond_site_symmetry_1
_geom_bond_site_symmetry_2
Cu1 N1 1_555 1_555
N1 N2 1_555 1_555
N2 N3 1_555 1_555
N3 Cu1A 1_555 1_555
N4 Cu1 1_555 1_555
N5 N4 1_555 1_555
N6 N5 1_555 1_555
N7 Cu1 1_555 1_555
C1 N7 1_555 1_555
C2 C1 1_555 1_555
C3 C2 1_555 1_555
C4 C3 1_555 1_555
C5 N7 1_555 1_555
C6 C3 1_555 1_555
C7 C6 1_555 1_555
N8 Cu1 1_555 1_555
C8 N8 1_555 1_555
C9 C8 1_555 1_555
C10 C9 1_555 1_555
C11 C10 1_555 1_555
C12 N8 1_555 1_555
C13 C10 1_555 1_555
C14 C13 1_555 1_555
H1 C1 1_555 1_555
H2 C2 1_555 1_555
H3 C4 1_555 1_555
H4 C5 1_555 1_555
H5 C6 1_555 1_555
H6 C6 1_555 1_555
H7 C7 1_555 1_555
H8 C7 1_555 1_555
H9 C7 1_555 1_555
H10 C8 1_555 1_555
H11 C9 1_555 1_555
H12 C11 1_555 1_555
H13 C12 1_555 1_555
H14 C13 1_555 1_555
H15 C13 1_555 1_555
H16 C14 1_555 1_555
H17 C14 1_555 1_555
H18 C14 1_555 1_555
N3A Cu1 1_555 1_555
C4 C5 1_555 1_555
C11 C12 1_555 1_555

#END
