
#######################################################################
#
#                 Cambridge Crystallographic Data Centre
#                                CCDC 
#
#######################################################################
#
# If this CIF has been generated from an entry in the Cambridge 
# Structural Database, then it will include bibliographic, chemical, 
# crystal, experimental, refinement or atomic coordinate data resulting 
# from the CCDC's data processing and validation procedures.
#
#######################################################################

data_KEDNOY
_symmetry_cell_setting           cubic
_symmetry_space_group_name_H-M   'P 21 3'
_symmetry_Int_Tables_number      198
_space_group_name_Hall           'P 2ac 2ab 3'
loop_
_symmetry_equiv_pos_site_id
_symmetry_equiv_pos_as_xyz
1 x,y,z
2 1/2-x,-y,1/2+z
3 -x,1/2+y,1/2-z
4 1/2+x,1/2-y,-z
5 z,x,y
6 1/2+z,1/2-x,-y
7 1/2-z,-x,1/2+y
8 -z,1/2+x,1/2-y
9 y,z,x
10 -y,1/2+z,1/2-x
11 1/2+y,1/2-z,-x
12 1/2-y,-z,1/2+x
_cell_length_a                   14.0563(4)
_cell_length_b                   14.0563(4)
_cell_length_c                   14.0563(4)
_cell_angle_alpha                90
_cell_angle_beta                 90
_cell_angle_gamma                90
_cell_volume                     2777.24
loop_
_atom_site_label
_atom_site_type_symbol
_atom_site_fract_x
_atom_site_fract_y
_atom_site_fract_z
Ag1 Ag 1.125904(14) 0.374096(14) 0.625904(14)
Al1 Al 0.77064(6) 0.27064(6) 0.22936(6)
O1 O 0.76405(13) 0.27206(13) 0.36247(13)
O2 O 0.90284(13) 0.27724(14) 0.23452(14)
C1 C 0.7994(2) 0.2661(2) 0.5263(2)
H1 H 0.8373 0.3119 0.5625
H2 H 0.8088 0.2022 0.5525
H3 H 0.7319 0.2832 0.5305
C2 C 0.8299(2) 0.26741(19) 0.42436(19)
C3 C 0.9269(2) 0.2636(2) 0.39931(19)
C4 C 0.95929(19) 0.26973(19) 0.3043(2)
C5 C 1.0632(2) 0.2678(2) 0.2813(2)
H4 H 1.1001 0.2685 0.3404
H5 H 1.0796 0.3237 0.2430
H6 H 1.0780 0.2099 0.2453
C6 C 0.9949(2) 0.2626(2) 0.4745(2)
N1 N 1.04734(18) 0.2634(2) 0.53684(19)
Al1A Al 0.72936(6) 0.72936(6) 0.72936(6)
Al1B Al 1.22936(6) 0.77064(6) 0.27064(6)
O1E O 0.86247(13) 0.73595(13) 0.72794(13)
O1K O 1.22794(13) 0.63753(13) 0.26405(13)
O1G O 0.63753(13) 0.26405(13) 0.22794(13)
O1J O 0.77206(13) 0.13753(13) 0.23595(13)
O2E O 0.73452(14) 0.59716(13) 0.72276(14)
O2K O 1.22276(14) 0.76548(14) 0.40284(13)
O2G O 0.76548(14) 0.40284(13) 0.22276(14)
O2J O 0.77724(14) 0.26548(14) 0.09716(13)
C1E C 1.0263(2) 0.7006(2) 0.7339(2)
C1K C 1.2339(2) 0.4737(2) 0.2994(2)
H1E H 1.0625 0.6627 0.6881
H1K H 1.1881 0.4375 0.3373
H2E H 1.0525 0.6912 0.7978
H2K H 1.2978 0.4475 0.3088
H3E H 1.0305 0.7681 0.7168
H3K H 1.2168 0.4695 0.2319
C2E C 0.92436(19) 0.6701(2) 0.73259(19)
C2K C 1.23259(19) 0.57564(19) 0.3299(2)
C3E C 0.89931(19) 0.5731(2) 0.7364(2)
C3K C 1.2364(2) 0.60069(19) 0.4269(2)
C4E C 0.8043(2) 0.54071(19) 0.73027(19)
C4K C 1.23027(19) 0.6957(2) 0.45929(19)
C5E C 0.7813(2) 0.4368(2) 0.7322(2)
C5K C 1.2322(2) 0.7187(2) 0.5632(2)
H4E H 0.8404 0.3999 0.7315
H4K H 1.2315 0.6596 0.6001
H5E H 0.7430 0.4204 0.6763
H5K H 1.1763 0.7570 0.5796
H6E H 0.7453 0.4220 0.7901
H6K H 1.2901 0.7547 0.5780
C6E C 0.9745(2) 0.5051(2) 0.7374(2)
C6K C 1.2374(2) 0.5255(2) 0.4949(2)
N1E N 1.03684(19) 0.45266(18) 0.7366(2)
N1K N 1.2366(2) 0.46316(19) 0.54734(18)
C7 C 0.5614(2) 0.5614(2) 0.5614(2)
H7 H 0.6024 0.6024 0.6024
Cl1 Cl 0.63661(13) 0.49354(11) 0.48990(9)
Cl1D Cl 0.48990(9) 0.63661(13) 0.49354(11)
Cl1H Cl 0.49354(11) 0.48990(9) 0.63661(13)
P1 P 0.95606(6) 0.54394(6) 0.45606(6)
F1 F 0.91883(18) 0.46825(17) 0.53174(18)
F2 F 0.8819(2) 0.5012(3) 0.3827(2)
F1E F 1.03174(18) 0.58117(18) 0.53175(17)
F1K F 1.03175(17) 0.46826(18) 0.41883(18)
F2E F 0.8827(2) 0.6181(2) 0.4988(3)
F2K F 0.9988(3) 0.6173(2) 0.3819(2)
loop_
_geom_bond_atom_site_label_1
_geom_bond_atom_site_label_2
_geom_bond_site_symmetry_1
_geom_bond_site_symmetry_2
Ag1 N1 1_555 1_555
Al1 O1 1_555 1_555
O1 C2 1_555 1_555
O2 Al1 1_555 1_555
C1 H1 1_555 1_555
H2 C1 1_555 1_555
H3 C1 1_555 1_555
C2 C1 1_555 1_555
C3 C2 1_555 1_555
C4 O2 1_555 1_555
C5 C4 1_555 1_555
H4 C5 1_555 1_555
H5 C5 1_555 1_555
H6 C5 1_555 1_555
C6 C3 1_555 1_555
N1 C6 1_555 1_555
C7 H7 1_555 1_555
Cl1 C7 1_555 1_555
P1 F1 1_555 1_555
F2 P1 1_555 1_555
Al1A O1E 1_555 1_555
Al1B O1K 1_555 1_555
O1E C2E 1_555 1_555
O1K C2K 1_555 1_555
O1G Al1 1_555 1_555
O1J Al1 1_555 1_555
O2E Al1A 1_555 1_555
O2K Al1B 1_555 1_555
O2G Al1 1_555 1_555
O2J Al1 1_555 1_555
C1E H1E 1_555 1_555
C1K H1K 1_555 1_555
H2E C1E 1_555 1_555
H2K C1K 1_555 1_555
H3E C1E 1_555 1_555
H3K C1K 1_555 1_555
C2E C1E 1_555 1_555
C2K C1K 1_555 1_555
C3E C2E 1_555 1_555
C3K C2K 1_555 1_555
C4E O2E 1_555 1_555
C4K O2K 1_555 1_555
C5E C4E 1_555 1_555
C5K C4K 1_555 1_555
H4E C5E 1_555 1_555
H4K C5K 1_555 1_555
H5E C5E 1_555 1_555
H5K C5K 1_555 1_555
H6E C5E 1_555 1_555
H6K C5K 1_555 1_555
C6E C3E 1_555 1_555
C6K C3K 1_555 1_555
N1E Ag1 1_555 1_555
N1K Ag1 1_555 1_555
Cl1D C7 1_555 1_555
Cl1H C7 1_555 1_555
F1E P1 1_555 1_555
F1K P1 1_555 1_555
F2E P1 1_555 1_555
F2K P1 1_555 1_555
C3 C4 1_555 1_555
C3E C4E 1_555 1_555
C3K C4K 1_555 1_555
C6E N1E 1_555 1_555
C6K N1K 1_555 1_555

#END
