
#######################################################################
#
#                 Cambridge Crystallographic Data Centre
#                                CCDC 
#
#######################################################################
#
# If this CIF has been generated from an entry in the Cambridge 
# Structural Database, then it will include bibliographic, chemical, 
# crystal, experimental, refinement or atomic coordinate data resulting 
# from the CCDC's data processing and validation procedures.
#
#######################################################################

data_KEDNEO
_symmetry_cell_setting           monoclinic
_symmetry_space_group_name_H-M   'P 21/c'
_symmetry_Int_Tables_number      14
_space_group_name_Hall           '-P 2ybc'
loop_
_symmetry_equiv_pos_site_id
_symmetry_equiv_pos_as_xyz
1 x,y,z
2 -x,1/2+y,1/2-z
3 -x,-y,-z
4 x,1/2-y,1/2+z
_cell_length_a                   11.8241(9)
_cell_length_b                   19.9619(15)
_cell_length_c                   18.6120(14)
_cell_angle_alpha                90
_cell_angle_beta                 100.8740(10)
_cell_angle_gamma                90
_cell_volume                     4314.14
loop_
_atom_site_label
_atom_site_type_symbol
_atom_site_fract_x
_atom_site_fract_y
_atom_site_fract_z
Ag1 Ag 0.191766(19) 0.196667(11) 0.055869(13)
Al1 Al -0.32175(7) 0.41839(4) -0.11078(4)
O1 O -0.27960(15) 0.39369(9) -0.01204(9)
O2 O -0.23137(16) 0.34927(9) -0.13854(10)
O3 O 0.55048(16) 0.13763(9) 0.38230(10)
O4 O 0.63738(15) 0.05723(9) 0.29110(10)
O5 O 0.41294(15) 0.51207(9) 0.08503(10)
O6 O 0.19330(15) 0.52435(9) 0.09856(10)
N1 N 0.0021(2) 0.22474(13) 0.04430(14)
N2 N 0.3195(2) 0.16537(13) 0.14980(14)
N3 N 0.2405(2) 0.30328(13) 0.02161(15)
C1 C -0.1930(2) 0.34443(14) 0.09914(14)
H1 H -0.2663 0.3391 0.1135
H2 H -0.1453 0.3064 0.1154
H3 H -0.1564 0.3844 0.1209
C2 C -0.2099(2) 0.34963(12) 0.01819(14)
C3 C -0.1497(2) 0.30698(13) -0.02244(15)
C4 C -0.1668(2) 0.30734(13) -0.09995(15)
C5 C -0.1070(3) 0.25715(14) -0.13911(16)
H4 H -0.0256 0.2657 -0.1289
H5 H -0.1216 0.2129 -0.1228
H6 H -0.1354 0.2606 -0.1908
C6 C -0.0670(2) 0.26096(14) 0.01569(15)
C7 C 0.3826(2) 0.20026(14) 0.33952(16)
H7 H 0.3801 0.2018 0.3908
H8 H 0.3095 0.1855 0.3127
H9 H 0.3992 0.2442 0.3231
C8 C 0.4744(2) 0.15271(13) 0.32706(15)
C9 C 0.4746(2) 0.12563(14) 0.25670(14)
C10 C 0.5551(2) 0.07715(13) 0.24240(14)
C11 C 0.5426(2) 0.04622(14) 0.16794(15)
H10 H 0.6114 0.0220 0.1644
H11 H 0.5301 0.0808 0.1314
H12 H 0.4782 0.0161 0.1603
C12 C 0.3880(2) 0.14738(14) 0.19776(16)
C13 C 0.4865(2) 0.40712(14) 0.05849(16)
H13 H 0.5534 0.4338 0.0567
H14 H 0.4649 0.3829 0.0134
H15 H 0.5033 0.3760 0.0984
C14 C 0.3898(2) 0.45162(13) 0.06923(14)
C15 C 0.2761(2) 0.42604(13) 0.06236(14)
C16 C 0.1828(2) 0.46395(13) 0.07816(14)
C17 C 0.0654(2) 0.43333(14) 0.07020(15)
H16 H 0.0171 0.4617 0.0932
H17 H 0.0714 0.3901 0.0931
H18 H 0.0324 0.4286 0.0192
C18 C 0.2563(3) 0.35797(15) 0.04020(16)
C19 C 0.3028(3) 0.02297(17) 0.0148(2)
H19 H 0.3475 -0.0117 0.0385
C20 C 0.1896(4) 0.0266(2) 0.0186(2)
H20 H 0.1571 -0.0049 0.0454
C21 C 0.1222(3) 0.0781(3) -0.0179(3)
H21 H 0.0445 0.0815 -0.0156
C22 C 0.1735(4) 0.12415(19) -0.05796(19)
H22 H 0.1301 0.1583 -0.0837
C23 C 0.2884(4) 0.11864(19) -0.05886(19)
H23 H 0.3236 0.1497 -0.0847
C24 C 0.3511(3) 0.06846(19) -0.0226(2)
H24 H 0.4293 0.0655 -0.0237
Al1C Al 0.67825(7) 0.08161(4) 0.38922(4)
Al1B Al 0.32175(7) 0.58161(4) 0.11078(4)
O3C O -0.44952(16) 0.36237(9) -0.11770(10)
O4C O -0.36262(15) 0.44277(9) -0.20890(10)
O5B O -0.41294(15) 0.48793(9) -0.08503(10)
O6B O -0.19330(15) 0.47565(9) -0.09856(10)
P1 P 0.40092(7) -0.14090(4) 0.20552(4)
F1 F 0.35992(16) -0.20786(9) 0.16169(11)
F2 F 0.49351(17) -0.18304(10) 0.26119(12)
F3 F 0.30799(16) -0.15229(9) 0.25617(10)
F4 F 0.30921(19) -0.09859(10) 0.15011(11)
F5 F 0.49404(18) -0.12933(10) 0.15473(11)
F6 F 0.44418(19) -0.07443(9) 0.25048(11)
C25 C 0.1596(3) 0.05615(18) 0.75971(17)
H25 H 0.1795 0.0114 0.7682
C26 C 0.2383(3) 0.09947(18) 0.74295(17)
H26 H 0.3118 0.0842 0.7406
C27 C 0.2117(4) 0.16506(19) 0.72945(18)
H27 H 0.2657 0.1946 0.7170
C28 C 0.1000(5) 0.1876(2) 0.73477(19)
H28 H 0.0795 0.2323 0.7264
C29 C 0.0209(3) 0.1412(3) 0.75295(19)
H29 H -0.0529 0.1548 0.7571
C30 C 0.0531(3) 0.0765(2) 0.76436(18)
H30 H 0.0004 0.0455 0.7757
C31 C 0.3916(4) -0.1980(2) -0.0340(3)
H31 H 0.4423 -0.2108 0.0083
C32 C 0.4068(4) -0.22031(17) -0.1050(3)
H32 H 0.4679 -0.2482 -0.1097
C33 C 0.3299(4) -0.19990(18) -0.1654(2)
H33 H 0.3378 -0.2150 -0.2115
C34 C 0.2444(4) -0.15897(19) -0.1590(2)
H34 H 0.1946 -0.1445 -0.2008
C35 C 0.2281(4) -0.1378(2) -0.0932(2)
H35 H 0.1665 -0.1094 -0.0908
C36 C 0.2976(4) -0.15629(19) -0.0310(2)
H36 H 0.2834 -0.1415 0.0138
C37 C 0.1092(3) 0.08391(19) 0.2226(2)
H37 H 0.0821 0.0991 0.1752
C38 C 0.1981(3) 0.03876(17) 0.2358(2)
H38 H 0.2298 0.0224 0.1972
C39 C 0.2400(3) 0.01772(17) 0.3055(2)
H39 H 0.3018 -0.0119 0.3146
C40 C 0.1906(4) 0.04040(19) 0.3621(2)
H40 H 0.2183 0.0255 0.4095
C41 C 0.1014(4) 0.0845(2) 0.3491(2)
H41 H 0.0683 0.0996 0.3876
C42 C 0.0601(3) 0.1067(2) 0.2795(2)
H42 H -0.0007 0.1370 0.2706
loop_
_geom_bond_atom_site_label_1
_geom_bond_atom_site_label_2
_geom_bond_site_symmetry_1
_geom_bond_site_symmetry_2
Ag1 N1 1_555 1_555
Al1 O1 1_555 1_555
P1 F1 1_555 1_555
O1 C2 1_555 1_555
O2 Al1 1_555 1_555
O3 C8 1_555 1_555
O4 C10 1_555 1_555
O5 C14 1_555 1_555
O6 C16 1_555 1_555
N1 C6 1_555 1_555
N2 Ag1 1_555 1_555
N3 Ag1 1_555 1_555
C1 H1 1_555 1_555
H2 C1 1_555 1_555
H3 C1 1_555 1_555
C2 C1 1_555 1_555
C3 C2 1_555 1_555
C4 O2 1_555 1_555
C5 C4 1_555 1_555
H4 C5 1_555 1_555
H5 C5 1_555 1_555
H6 C5 1_555 1_555
C6 C3 1_555 1_555
C7 H7 1_555 1_555
H8 C7 1_555 1_555
H9 C7 1_555 1_555
C8 C7 1_555 1_555
C9 C8 1_555 1_555
C10 C9 1_555 1_555
C11 C10 1_555 1_555
H10 C11 1_555 1_555
H11 C11 1_555 1_555
H12 C11 1_555 1_555
C12 N2 1_555 1_555
C13 H13 1_555 1_555
H14 C13 1_555 1_555
H15 C13 1_555 1_555
C14 C13 1_555 1_555
C15 C14 1_555 1_555
C16 C15 1_555 1_555
C17 C16 1_555 1_555
H16 C17 1_555 1_555
H17 C17 1_555 1_555
H18 C17 1_555 1_555
C18 N3 1_555 1_555
C19 H19 1_555 1_555
C20 C19 1_555 1_555
H20 C20 1_555 1_555
C21 C20 1_555 1_555
H21 C21 1_555 1_555
C22 Ag1 1_555 1_555
H22 C22 1_555 1_555
C23 C22 1_555 1_555
H23 C23 1_555 1_555
C24 C19 1_555 1_555
H24 C24 1_555 1_555
C25 H25 1_555 1_555
C26 C25 1_555 1_555
H26 C26 1_555 1_555
C27 C26 1_555 1_555
H27 C27 1_555 1_555
C28 C27 1_555 1_555
H28 C28 1_555 1_555
C29 C28 1_555 1_555
H29 C29 1_555 1_555
C30 C25 1_555 1_555
H30 C30 1_555 1_555
C31 H31 1_555 1_555
C32 C31 1_555 1_555
H32 C32 1_555 1_555
C33 C32 1_555 1_555
H33 C33 1_555 1_555
C34 C33 1_555 1_555
H34 C34 1_555 1_555
C35 C34 1_555 1_555
H35 C35 1_555 1_555
C36 C31 1_555 1_555
H36 C36 1_555 1_555
C37 H37 1_555 1_555
C38 C37 1_555 1_555
H38 C38 1_555 1_555
C39 C38 1_555 1_555
H39 C39 1_555 1_555
C40 C39 1_555 1_555
H40 C40 1_555 1_555
C41 C40 1_555 1_555
H41 C41 1_555 1_555
C42 C37 1_555 1_555
H42 C42 1_555 1_555
F2 P1 1_555 1_555
F3 P1 1_555 1_555
F4 P1 1_555 1_555
F5 P1 1_555 1_555
F6 P1 1_555 1_555
Al1C O3 1_555 1_555
Al1B O5 1_555 1_555
O3C Al1 1_555 1_555
O4C Al1 1_555 1_555
O5B Al1 1_555 1_555
O6B Al1 1_555 1_555
O4 Al1C 1_555 1_555
O6 Al1B 1_555 1_555
C3 C4 1_555 1_555
C9 C12 1_555 1_555
C15 C18 1_555 1_555
C21 C22 1_555 1_555
C23 C24 1_555 1_555
C29 C30 1_555 1_555
C35 C36 1_555 1_555
C41 C42 1_555 1_555

#END
