
#######################################################################
#
#                 Cambridge Crystallographic Data Centre
#                                CCDC 
#
#######################################################################
#
# If this CIF has been generated from an entry in the Cambridge 
# Structural Database, then it will include bibliographic, chemical, 
# crystal, experimental, refinement or atomic coordinate data resulting 
# from the CCDC's data processing and validation procedures.
#
#######################################################################

data_KEDNIS
_symmetry_cell_setting           triclinic
_symmetry_space_group_name_H-M   'P -1'
_symmetry_Int_Tables_number      2
_space_group_name_Hall           '-P 1'
loop_
_symmetry_equiv_pos_site_id
_symmetry_equiv_pos_as_xyz
1 x,y,z
2 -x,-y,-z
_cell_length_a                   11.3849(9)
_cell_length_b                   12.2052(10)
_cell_length_c                   13.1682(11)
_cell_angle_alpha                109.1660(18)
_cell_angle_beta                 106.1805(18)
_cell_angle_gamma                105.8493(19)
_cell_volume                     1519.94
loop_
_atom_site_label
_atom_site_type_symbol
_atom_site_fract_x
_atom_site_fract_y
_atom_site_fract_z
Ag1 Ag 0.56869(5) 0.40276(5) 0.48405(4)
Al1 Al 0.93808(14) 0.75525(12) 1.18313(12)
O1 O 0.9008(3) 0.6006(3) 1.0630(3)
O2 O 0.8840(3) 0.8170(3) 1.0737(3)
O3 O -0.0289(3) -0.0914(3) 0.3046(3)
O4 O 0.1127(3) -0.1816(3) 0.1951(3)
O5 O 0.9936(3) 0.6932(3) 0.2916(3)
O6 O 0.7613(3) 0.6926(3) 0.1704(3)
N1 N 0.6599(5) 0.5173(4) 0.6765(4)
N2 N 0.3643(5) 0.2561(4) 0.4180(4)
N3 N 0.6628(5) 0.4570(5) 0.3745(4)
C1 C 0.8044(5) 0.4196(5) 0.8826(5)
H1 H 0.8326 0.3818 0.9350
H2 H 0.8525 0.4142 0.8311
H3 H 0.7081 0.3739 0.8346
C2 C 0.8351(4) 0.5560(4) 0.9544(4)
C3 C 0.7922(5) 0.6291(4) 0.9003(4)
C4 C 0.8251(5) 0.7601(4) 0.9636(4)
C5 C 0.7918(5) 0.8365(5) 0.9003(4)
H4 H 0.7938 0.9146 0.9554
H5 H 0.7024 0.7871 0.8365
H6 H 0.8573 0.8577 0.8673
C6 C 0.7204(5) 0.5691(5) 0.7759(5)
C7 C 0.0611(6) 0.1243(5) 0.4393(4)
H7 H -0.0299 0.1017 0.4357
H8 H 0.0861 0.1982 0.4231
H9 H 0.1231 0.1445 0.5179
C8 C 0.0672(5) 0.0149(5) 0.3494(4)
C9 C 0.1806(5) 0.0326(4) 0.3203(4)
C10 C 0.1980(5) -0.0698(4) 0.2441(4)
C11 C 0.3197(5) -0.0473(5) 0.2187(5)
H10 H 0.3439 -0.1201 0.2088
H11 H 0.3935 0.0292 0.2843
H12 H 0.3018 -0.0360 0.1464
C12 C 0.2826(6) 0.1572(5) 0.3760(4)
C13 C 1.0017(6) 0.5869(5) 0.4122(4)
H13 H 1.0971 0.6232 0.4293
H14 H 0.9688 0.4943 0.3777
H15 H 0.9886 0.6179 0.4851
C14 C 0.9265(5) 0.6253(4) 0.3272(4)
C15 C 0.7868(5) 0.5875(4) 0.2903(4)
C16 C 0.7109(5) 0.6236(4) 0.2126(4)
C17 C 0.5621(5) 0.5803(6) 0.1773(6)
H16 H 0.5293 0.6294 0.1394
H17 H 0.5427 0.5934 0.2473
H18 H 0.5176 0.4902 0.1221
C18 C 0.7181(6) 0.5134(5) 0.3365(4)
O9 O 0.6227(7) 0.2078(6) 0.4735(6)
H27 H 0.6537 0.1679 0.4349
C21 C 0.6390(11) 0.1751(10) 0.5623(7)
H28 H 0.7345 0.2092 0.6120
H29 H 0.6014 0.0825 0.5308
H30 H 0.5932 0.2096 0.6092
Al1_2 Al -0.06192(14) -0.24475(12) 0.18313(12)
Al1_3 Al 0.93808(14) 0.75525(12) 0.18313(12)
O3_2 O 0.9711(3) 0.9086(3) 1.3046(3)
O4_2 O 1.1127(3) 0.8184(3) 1.1951(3)
O5_2 O 0.9936(3) 0.6932(3) 1.2916(3)
O6_2 O 0.7613(3) 0.6926(3) 1.1704(3)
P1 P 0.87434(15) 0.21513(13) 0.16630(12)
F1 F 0.9160(3) 0.1704(4) 0.0598(3)
F2 F 0.7211(3) 0.1308(4) 0.0769(3)
F3 F 0.8306(4) 0.2601(4) 0.2726(3)
F4 F 1.0252(4) 0.2984(4) 0.2552(3)
F5 F 0.8635(5) 0.3328(3) 0.1432(4)
F6 F 0.8792(5) 0.0962(4) 0.1890(3)
O7 O 0.4131(5) 0.6985(5) -0.0027(5)
H19 H 0.344(9) 0.707(8) -0.032(8)
C19 C 0.5121(8) 0.7792(9) -0.0210(8)
H20 H 0.5238 0.8671 0.0197
H21 H 0.4845 0.7550 -0.1054
H22 H 0.5968 0.7714 0.0099
O8 O 0.7220(8) 0.0749(7) 0.3496(7)
H23 H 0.7547 0.1213 0.3262
C20 C 0.6647(10) -0.0627(9) 0.3041(11)
H24 H 0.7301 -0.0957 0.2876
H25 H 0.5843 -0.0991 0.2315
H26 H 0.6412 -0.0856 0.3626
loop_
_geom_bond_atom_site_label_1
_geom_bond_atom_site_label_2
_geom_bond_site_symmetry_1
_geom_bond_site_symmetry_2
Ag1 N1 1_555 1_555
Al1 O1 1_555 1_555
O1 C2 1_555 1_555
O2 Al1 1_555 1_555
O3 C8 1_555 1_555
O4 C10 1_555 1_555
O5 C14 1_555 1_555
O6 C16 1_555 1_555
N1 C6 1_555 1_555
N2 Ag1 1_555 1_555
N3 Ag1 1_555 1_555
C1 H1 1_555 1_555
H2 C1 1_555 1_555
H3 C1 1_555 1_555
C2 C1 1_555 1_555
C3 C2 1_555 1_555
C4 O2 1_555 1_555
C5 C4 1_555 1_555
H4 C5 1_555 1_555
H5 C5 1_555 1_555
H6 C5 1_555 1_555
C6 C3 1_555 1_555
C7 H7 1_555 1_555
H8 C7 1_555 1_555
H9 C7 1_555 1_555
C8 C7 1_555 1_555
C9 C8 1_555 1_555
C10 C9 1_555 1_555
C11 C10 1_555 1_555
H10 C11 1_555 1_555
H11 C11 1_555 1_555
H12 C11 1_555 1_555
C12 N2 1_555 1_555
C13 H13 1_555 1_555
H14 C13 1_555 1_555
H15 C13 1_555 1_555
C14 C13 1_555 1_555
C15 C14 1_555 1_555
C16 C15 1_555 1_555
C17 C16 1_555 1_555
H16 C17 1_555 1_555
H17 C17 1_555 1_555
H18 C17 1_555 1_555
C18 N3 1_555 1_555
P1 F1 1_555 1_555
F2 P1 1_555 1_555
F3 P1 1_555 1_555
F4 P1 1_555 1_555
F5 P1 1_555 1_555
F6 P1 1_555 1_555
O7 H19 1_555 1_555
C19 O7 1_555 1_555
H20 C19 1_555 1_555
H21 C19 1_555 1_555
H22 C19 1_555 1_555
O8 H23 1_555 1_555
C20 O8 1_555 1_555
H24 C20 1_555 1_555
H25 C20 1_555 1_555
H26 C20 1_555 1_555
O9 Ag1 1_555 1_555
H27 O9 1_555 1_555
C21 O9 1_555 1_555
H28 C21 1_555 1_555
H29 C21 1_555 1_555
H30 C21 1_555 1_555
Al1_2 O3 1_555 1_555
Al1_3 O5 1_555 1_555
O3_2 Al1 1_555 1_555
O4_2 Al1 1_555 1_555
O5_2 Al1 1_555 1_555
O6_2 Al1 1_555 1_555
O4 Al1_2 1_555 1_555
O6 Al1_3 1_555 1_555
C3 C4 1_555 1_555
C9 C12 1_555 1_555
C15 C18 1_555 1_555

#END
