
#######################################################################
#
#                 Cambridge Crystallographic Data Centre
#                                CCDC 
#
#######################################################################
#
# If this CIF has been generated from an entry in the Cambridge 
# Structural Database, then it will include bibliographic, chemical, 
# crystal, experimental, refinement or atomic coordinate data resulting 
# from the CCDC's data processing and validation procedures.
#
#######################################################################

data_KEFBOO
_symmetry_cell_setting           rhombohedral
_symmetry_space_group_name_H-M   'R -3 m'
_symmetry_Int_Tables_number      166
_space_group_name_Hall           '-R 3 2"'
loop_
_symmetry_equiv_pos_site_id
_symmetry_equiv_pos_as_xyz
1 x,y,z
2 -y,x-y,z
3 -x+y,-x,z
4 y,x,-z
5 x-y,-y,-z
6 -x,-x+y,-z
7 2/3+x,1/3+y,1/3+z
8 2/3-y,1/3+x-y,1/3+z
9 2/3-x+y,1/3-x,1/3+z
10 2/3+y,1/3+x,1/3-z
11 2/3+x-y,1/3-y,1/3-z
12 2/3-x,1/3-x+y,1/3-z
13 1/3+x,2/3+y,2/3+z
14 1/3-y,2/3+x-y,2/3+z
15 1/3-x+y,2/3-x,2/3+z
16 1/3+y,2/3+x,2/3-z
17 1/3+x-y,2/3-y,2/3-z
18 1/3-x,2/3-x+y,2/3-z
19 -x,-y,-z
20 y,-x+y,-z
21 x-y,x,-z
22 -y,-x,z
23 -x+y,y,z
24 x,x-y,z
25 1/3-x,2/3-y,2/3-z
26 1/3+y,2/3-x+y,2/3-z
27 1/3+x-y,2/3+x,2/3-z
28 1/3-y,2/3-x,2/3+z
29 1/3-x+y,2/3+y,2/3+z
30 1/3+x,2/3+x-y,2/3+z
31 2/3-x,1/3-y,1/3-z
32 2/3+y,1/3-x+y,1/3-z
33 2/3+x-y,1/3+x,1/3-z
34 2/3-y,1/3-x,1/3+z
35 2/3-x+y,1/3+y,1/3+z
36 2/3+x,1/3+x-y,1/3+z
_cell_length_a                   23.8339(9)
_cell_length_b                   23.8339(9)
_cell_length_c                   20.2720(17)
_cell_angle_alpha                90
_cell_angle_beta                 90
_cell_angle_gamma                120
_cell_volume                     9972.81
loop_
_atom_site_label
_atom_site_type_symbol
_atom_site_fract_x
_atom_site_fract_y
_atom_site_fract_z
C1 C 0.36168(11) 0.98383(11) 0.37146(14)
C2 C 0.30443(11) 0.92478(12) 0.37159(13)
H1 H 0.3002 0.8899 0.3961
C3 C 0.25310(16) 0.91977(16) 0.3333
C4 C 0.36838(14) 1.03505(14) 0.3333
H2 H 0.4074 1.0741 0.3333
C5 C 0.41753(11) 0.99153(12) 0.41333(15)
C6 C 0.19069(14) 0.85736(14) 0.3333
O1 O 0.41091(8) 0.94230(8) 0.44258(9)
O2 O 0.46399(8) 1.04741(7) 0.41904(9)
O3 O 0.41664(6) 0.83328(11) 0.51738(14)
Zn1 Zn 0.464516(9) 0.929032(18) 0.51250(2)
C1O C 0.31716(11) 1.02835(11) 0.29521(14)
C1U C 0.01617(11) 0.63832(11) 0.37146(14)
C1X C -0.02835(11) 0.68284(11) 0.29521(14)
C2O C 0.25811(12) 0.97110(11) 0.29508(13)
C2U C 0.07522(12) 0.69557(11) 0.37159(13)
C2X C 0.02890(11) 0.74189(12) 0.29508(13)
H1O H 0.2232 0.9669 0.2706
H1X H 0.0331 0.7768 0.2706
H1U H 0.1101 0.6998 0.3961
C3U C 0.08023(16) 0.74690(16) 0.3333
C4U C -0.03505(14) 0.63162(14) 0.3333
H2U H -0.0741 0.5926 0.3333
C5O C 0.32486(12) 1.08420(11) 0.25334(15)
C5X C -0.08420(11) 0.67514(12) 0.25334(15)
C5U C 0.00847(12) 0.58247(11) 0.41333(15)
C6U C 0.14264(14) 0.80931(14) 0.3333
O1O O 0.27563(8) 1.07758(8) 0.22409(9)
O1X O -0.07758(8) 0.72437(8) 0.22409(9)
O1U O 0.05770(8) 0.58909(8) 0.44258(9)
O1V O 0.53139(11) 0.94230(8) 0.44258(9)
O1Y O 0.27563(8) 1.19806(11) 0.22409(9)
O2O O 0.38074(7) 1.13066(8) 0.24763(9)
O2X O -0.13066(8) 0.61926(7) 0.24763(9)
O2U O -0.04741(7) 0.53601(8) 0.41904(9)
O2D O 0.41658(11) 0.95259(7) 0.58096(9)
O2R O 0.53601(8) 0.95259(7) 0.58096(9)
O2M O 0.28592(7) 1.08325(11) 0.08571(9)
O2AA O 0.28592(7) 1.20268(8) 0.08571(9)
O3O O 0.16661(11) 1.08331(6) 0.14929(14)
Zn1O Zn 0.262365(18) 1.131183(9) 0.15417(2)
Zn1D Zn 0.535484(20) 1.070968(18) 0.48750(2)
Zn1M Zn 0.404301(18) 1.202151(20) 0.17917(2)
Zn1P Zn -0.131183(20) 0.737635(18) 0.15417(2)
Zn1L Zn -0.202151(9) 0.595699(18) 0.17917(2)
Zn1A Zn 0.070968(18) 0.535484(20) 0.51250(2)
Zn1C Zn -0.070968(18) 0.464516(9) 0.48750(2)
loop_
_geom_bond_atom_site_label_1
_geom_bond_atom_site_label_2
_geom_bond_site_symmetry_1
_geom_bond_site_symmetry_2
C1 C2 1_555 1_555
C2 H1 1_555 1_555
C3 C2 1_555 1_555
C4 C1 1_555 1_555
H2 C4 1_555 1_555
C5 C1 1_555 1_555
C6 C3 1_555 1_555
O1 C5 1_555 1_555
O2 C5 1_555 1_555
O3 Zn1 1_555 1_555
Zn1 O1 1_555 1_555
C1O C4 1_555 1_555
C1U C2U 1_555 1_555
C1X C2X 1_555 1_555
C2O C3 1_555 1_555
C2U H1U 1_555 1_555
C2X H1X 1_555 1_555
H1O C2O 1_555 1_555
C3U C2U 1_555 1_555
C4U C1U 1_555 1_555
H2U C4U 1_555 1_555
C5O C1O 1_555 1_555
C5X C1X 1_555 1_555
C5U C1U 1_555 1_555
C6U C6 1_555 1_555
O1O C5O 1_555 1_555
O1X C5X 1_555 1_555
O1U C5U 1_555 1_555
O1V Zn1 1_555 1_555
O1Y Zn1O 1_555 1_555
O2O C5O 1_555 1_555
O2X C5X 1_555 1_555
O2U C5U 1_555 1_555
O2D Zn1 1_555 1_555
O2R Zn1 1_555 1_555
O2M Zn1O 1_555 1_555
O2AA Zn1O 1_555 1_555
O3O Zn1O 1_555 1_555
Zn1O O1O 1_555 1_555
Zn1D O2 1_555 1_555
Zn1M O2O 1_555 1_555
Zn1P O1X 1_555 1_555
Zn1L O2X 1_555 1_555
Zn1A O1U 1_555 1_555
Zn1C O2U 1_555 1_555
C1O C2O 1_555 1_555
C1X C4U 1_555 1_555
C2X C3U 1_555 1_555
C3U C6U 1_555 1_555

#END
