
#######################################################################
#
#                 Cambridge Crystallographic Data Centre
#                                CCDC 
#
#######################################################################
#
# If this CIF has been generated from an entry in the Cambridge 
# Structural Database, then it will include bibliographic, chemical, 
# crystal, experimental, refinement or atomic coordinate data resulting 
# from the CCDC's data processing and validation procedures.
#
#######################################################################

data_KEFBII
_symmetry_cell_setting           tetragonal
_symmetry_space_group_name_H-M   'P 42/n n m'
_symmetry_Int_Tables_number      134
_space_group_name_Hall           '-P 4ac 2bc'
loop_
_symmetry_equiv_pos_site_id
_symmetry_equiv_pos_as_xyz
1 x,y,z
2 1/2-x,1/2-y,z
3 1/2-y,x,1/2+z
4 y,1/2-x,1/2+z
5 1/2-x,y,1/2-z
6 x,1/2-y,1/2-z
7 y,x,-z
8 1/2-y,1/2-x,-z
9 -x,-y,-z
10 1/2+x,1/2+y,-z
11 1/2+y,-x,1/2-z
12 -y,1/2+x,1/2-z
13 1/2+x,-y,1/2+z
14 -x,1/2+y,1/2+z
15 -y,-x,z
16 1/2+y,1/2+x,z
_cell_length_a                   17.2089(12)
_cell_length_b                   17.2089(12)
_cell_length_c                   28.523(4)
_cell_angle_alpha                90
_cell_angle_beta                 90
_cell_angle_gamma                90
_cell_volume                     8446.98
loop_
_atom_site_label
_atom_site_type_symbol
_atom_site_fract_x
_atom_site_fract_y
_atom_site_fract_z
Zn1 Zn 0.16369(3) 0.2500 0.2500
Zn2 Zn -0.046610(17) 0.046610(17) 0.466001(16)
C1 C 0.32166(18) -0.01501(18) 0.39600(12)
C2 C 0.32022(17) 0.04158(17) 0.35907(11)
H1 H 0.3623 0.0466 0.3377
C3 C 0.25563(18) 0.08925(18) 0.35337(11)
C4 C 0.19003(19) 0.08299(18) 0.38325(11)
H2 H 0.1433 0.1137 0.3778
C5 C 0.19281(17) 0.02917(18) 0.41976(11)
C6 C 0.25739(18) -0.01953(19) 0.42710(11)
H3 H 0.2581 -0.0546 0.4536
C7 C 0.2548(2) 0.1472(2) 0.31474(13)
C8 C 0.12320(18) 0.02358(18) 0.45146(11)
C9 C 0.38317(19) -0.06764(18) 0.39967(12)
O1 O 0.19084(12) 0.18011(11) 0.30550(7)
O2 O 0.31786(12) 0.15854(12) 0.29274(7)
O3 O 0.06116(11) 0.05486(12) 0.43827(8)
O4 O 0.13232(12) -0.01623(13) 0.48835(8)
O5 O 0.0491(2) 0.2500 0.2500
O6 O -0.10735(13) 0.10735(13) 0.41917(12)
Zn1A Zn 0.33631(3) 0.2500 0.2500
Zn1K Zn 0.7500 -0.33631(3) 0.2500
Zn1J Zn 0.7500 -0.16369(3) 0.2500
Zn2F Zn 0.046610(17) -0.046610(17) 0.533999(16)
Zn2A Zn 0.546610(17) -0.546610(17) 0.466001(16)
Zn2G Zn 0.453390(17) -0.453390(17) 0.533999(16)
C1O C 0.48499(18) -0.17834(18) 0.39600(12)
C2O C 0.54158(17) -0.17978(17) 0.35907(11)
H1O H 0.5466 -0.1377 0.3377
C3O C 0.58925(18) -0.24437(18) 0.35337(11)
C4O C 0.58299(18) -0.30997(19) 0.38325(11)
H2O H 0.6137 -0.3567 0.3778
C5O C 0.52917(18) -0.30719(17) 0.41976(11)
C6O C 0.48047(19) -0.24261(18) 0.42710(11)
H3O H 0.4454 -0.2419 0.4536
C7O C 0.6472(2) -0.2452(2) 0.31474(13)
C8O C 0.52358(18) -0.37680(18) 0.45146(11)
C9O C 0.43236(18) -0.11683(19) 0.39967(12)
O1O O 0.68011(11) -0.30916(12) 0.30550(7)
O1E O 0.19084(12) 0.31989(11) 0.19450(7)
O2O O 0.65854(12) -0.18214(12) 0.29274(7)
O2A O 0.18214(12) 0.34146(12) 0.29274(7)
O2D O 0.18214(12) 0.15854(12) 0.20726(7)
O3O O 0.55486(12) -0.43884(11) 0.43827(8)
O3N O -0.05486(12) -0.06116(11) 0.43827(8)
O4O O 0.48377(13) -0.36768(12) 0.48835(8)
O4F O -0.01623(13) 0.13232(12) 0.51165(8)
O4H O -0.13232(12) 0.01623(13) 0.51165(8)
loop_
_geom_bond_atom_site_label_1
_geom_bond_atom_site_label_2
_geom_bond_site_symmetry_1
_geom_bond_site_symmetry_2
Zn1 O1 1_555 1_555
Zn2 O3 1_555 1_555
C1 C2 1_555 1_555
C2 H1 1_555 1_555
C3 C2 1_555 1_555
C4 C3 1_555 1_555
H2 C4 1_555 1_555
C5 C4 1_555 1_555
C6 C1 1_555 1_555
H3 C6 1_555 1_555
C7 C3 1_555 1_555
C8 C5 1_555 1_555
C9 C1 1_555 1_555
O1 C7 1_555 1_555
O2 C7 1_555 1_555
O3 C8 1_555 1_555
O4 C8 1_555 1_555
O5 Zn1 1_555 1_555
O6 Zn2 1_555 1_555
Zn1A O2 1_555 1_555
Zn1K O1O 1_555 1_555
Zn1J O2O 1_555 1_555
Zn2F O4 1_555 1_555
Zn2A O3O 1_555 1_555
Zn2G O4O 1_555 1_555
C1O C2O 1_555 1_555
C2O H1O 1_555 1_555
C3O C2O 1_555 1_555
C4O C3O 1_555 1_555
H2O C4O 1_555 1_555
C5O C4O 1_555 1_555
C6O C1O 1_555 1_555
H3O C6O 1_555 1_555
C7O C3O 1_555 1_555
C8O C5O 1_555 1_555
C9O C9 1_555 1_555
O1O C7O 1_555 1_555
O1E Zn1 1_555 1_555
O2O C7O 1_555 1_555
O2A Zn1 1_555 1_555
O2D Zn1 1_555 1_555
O3O C8O 1_555 1_555
O3N Zn2 1_555 1_555
O4O C8O 1_555 1_555
O4F Zn2 1_555 1_555
O4H Zn2 1_555 1_555
C5 C6 1_555 1_555
C1O C9O 1_555 1_555
C5O C6O 1_555 1_555

#END
