
#######################################################################
#
#                 Cambridge Crystallographic Data Centre
#                                CCDC 
#
#######################################################################
#
# If this CIF has been generated from an entry in the Cambridge 
# Structural Database, then it will include bibliographic, chemical, 
# crystal, experimental, refinement or atomic coordinate data resulting 
# from the CCDC's data processing and validation procedures.
#
#######################################################################

data_KEFDOO
_symmetry_cell_setting           orthorhombic
_symmetry_space_group_name_H-M   'P 21 21 21'
_symmetry_Int_Tables_number      19
_space_group_name_Hall           'P 2ac 2ab'
loop_
_symmetry_equiv_pos_site_id
_symmetry_equiv_pos_as_xyz
1 x,y,z
2 1/2-x,-y,1/2+z
3 1/2+x,1/2-y,-z
4 -x,1/2+y,1/2-z
_cell_length_a                   9.963(2)
_cell_length_b                   11.004(3)
_cell_length_c                   20.144(6)
_cell_angle_alpha                90
_cell_angle_beta                 90
_cell_angle_gamma                90
_cell_volume                     2208.44
loop_
_atom_site_label
_atom_site_type_symbol
_atom_site_fract_x
_atom_site_fract_y
_atom_site_fract_z
Sn1 Sn 0.01518(3) 0.07735(3) 0.21903(2)
C1 C 0.0860(6) 0.2035(5) 0.1448(3)
C2 C 0.2206(6) 0.2568(6) 0.1586(3)
C3 C 0.2657(6) 0.3503(6) 0.1070(4)
C4 C 0.2504(7) 0.3019(7) 0.0375(3)
C5 C 0.1161(7) 0.2501(6) 0.0238(3)
C6 C 0.0742(6) 0.1565(6) 0.0741(3)
C7 C -0.1968(5) 0.0383(4) 0.2065(3)
C8 C -0.2261(5) -0.0729(6) 0.1638(3)
C9 C -0.3767(6) -0.0958(6) 0.1579(4)
C10 C -0.4489(6) 0.0144(6) 0.1313(4)
C11 C -0.4210(6) 0.1265(6) 0.1714(4)
C12 C -0.2696(5) 0.1510(5) 0.1783(3)
C13 C 0.1366(5) 0.0213(5) 0.3032(3)
C14 C 0.2832(5) 0.0519(5) 0.2910(3)
C15 C 0.3748(7) 0.0027(7) 0.3462(4)
C16 C 0.3283(7) 0.0414(6) 0.4143(3)
C17 C 0.1820(7) 0.0096(6) 0.4257(3)
C18 C 0.0927(6) 0.0621(6) 0.3715(3)
C19 C 0.1096(5) -0.1867(5) 0.1788(3)
O1 O 0.1000(3) -0.0756(4) 0.1627(2)
O2 O -0.0401(3) 0.2644(3) 0.2767(2)
C20 C 0.2161(7) -0.2587(6) 0.1428(3)
C21 C 0.2208(7) -0.2348(6) 0.0688(3)
C22 C 0.3318(8) -0.3060(7) 0.0345(4)
O2C O 0.0401(3) -0.2356(3) 0.2233(2)
C19C C -0.1096(5) 0.3133(5) 0.3212(3)
Sn1C Sn -0.01518(3) -0.42265(3) 0.28097(2)
O1C O -0.1000(3) 0.4244(4) 0.3373(2)
C20C C -0.2161(7) 0.2413(6) 0.3572(3)
C1C C -0.0860(6) -0.2965(5) 0.3552(3)
C7C C 0.1968(5) -0.4617(4) 0.2935(3)
C13C C -0.1366(5) -0.4787(5) 0.1968(3)
O1C_2 O -0.1000(3) -0.5756(4) 0.3373(2)
Sn1C_2 Sn -0.01518(3) 0.57735(3) 0.28097(2)
C21C C -0.2208(7) 0.2652(6) 0.4312(3)
C2C C -0.2206(6) -0.2432(6) 0.3414(3)
C6C C -0.0742(6) -0.3435(6) 0.4259(3)
C8C C 0.2261(5) -0.5729(6) 0.3362(3)
C12C C 0.2696(5) -0.3490(5) 0.3217(3)
C14C C -0.2832(5) -0.4481(5) 0.2090(3)
C18C C -0.0927(6) -0.4379(6) 0.1285(3)
C22C C -0.3318(8) 0.1940(7) 0.4655(4)
C3C C -0.2657(6) -0.1497(6) 0.3930(4)
C5C C -0.1161(7) -0.2499(6) 0.4762(3)
C9C C 0.3767(6) -0.5958(6) 0.3421(4)
C11C C 0.4210(6) -0.3735(6) 0.3286(4)
C15C C -0.3748(7) -0.4973(7) 0.1538(4)
C17C C -0.1820(7) -0.4904(6) 0.0743(3)
C4C C -0.2504(7) -0.1981(7) 0.4625(3)
C10C C 0.4489(6) -0.4856(6) 0.3687(4)
C16C C -0.3283(7) -0.4586(6) 0.0857(3)
loop_
_geom_bond_atom_site_label_1
_geom_bond_atom_site_label_2
_geom_bond_site_symmetry_1
_geom_bond_site_symmetry_2
Sn1 C1 1_555 1_555
C1 C2 1_555 1_555
C2 C3 1_555 1_555
C3 C4 1_555 1_555
C4 C5 1_555 1_555
C5 C6 1_555 1_555
C6 C1 1_555 1_555
C7 Sn1 1_555 1_555
C8 C7 1_555 1_555
C9 C8 1_555 1_555
C10 C9 1_555 1_555
C11 C10 1_555 1_555
C12 C7 1_555 1_555
C13 Sn1 1_555 1_555
C14 C13 1_555 1_555
C15 C14 1_555 1_555
C16 C15 1_555 1_555
C17 C16 1_555 1_555
C18 C13 1_555 1_555
C19 O1 1_555 1_555
O1 Sn1 1_555 1_555
O2 Sn1 1_555 1_555
C20 C19 1_555 1_555
C21 C20 1_555 1_555
C22 C21 1_555 1_555
O2C C19 1_555 1_555
C19C O2 1_555 1_555
Sn1C O2C 1_555 1_555
O1C C19C 1_555 1_555
C20C C19C 1_555 1_555
C1C Sn1C 1_555 1_555
C7C Sn1C 1_555 1_555
C13C Sn1C 1_555 1_555
O1C_2 Sn1C 1_555 1_555
Sn1C_2 O1C 1_555 1_555
C21C C20C 1_555 1_555
C2C C1C 1_555 1_555
C6C C1C 1_555 1_555
C8C C7C 1_555 1_555
C12C C7C 1_555 1_555
C14C C13C 1_555 1_555
C18C C13C 1_555 1_555
C22C C21C 1_555 1_555
C3C C2C 1_555 1_555
C5C C6C 1_555 1_555
C9C C8C 1_555 1_555
C11C C12C 1_555 1_555
C15C C14C 1_555 1_555
C17C C18C 1_555 1_555
C4C C3C 1_555 1_555
C10C C9C 1_555 1_555
C16C C15C 1_555 1_555
C11 C12 1_555 1_555
C17 C18 1_555 1_555
C5C C4C 1_555 1_555
C11C C10C 1_555 1_555
C17C C16C 1_555 1_555

#END
