
#######################################################################
#
#                 Cambridge Crystallographic Data Centre
#                                CCDC 
#
#######################################################################
#
# If this CIF has been generated from an entry in the Cambridge 
# Structural Database, then it will include bibliographic, chemical, 
# crystal, experimental, refinement or atomic coordinate data resulting 
# from the CCDC's data processing and validation procedures.
#
#######################################################################

data_KEFMAK
_symmetry_cell_setting           triclinic
_symmetry_space_group_name_H-M   'P -1'
_symmetry_Int_Tables_number      2
_space_group_name_Hall           '-P 1'
loop_
_symmetry_equiv_pos_site_id
_symmetry_equiv_pos_as_xyz
1 x,y,z
2 -x,-y,-z
_cell_length_a                   8.160(2)
_cell_length_b                   7.4832(17)
_cell_length_c                   14.269(3)
_cell_angle_alpha                96.305(17)
_cell_angle_beta                 94.278(19)
_cell_angle_gamma                99.22(2)
_cell_volume                     851.065
loop_
_atom_site_label
_atom_site_type_symbol
_atom_site_fract_x
_atom_site_fract_y
_atom_site_fract_z
Cu1 Cu 0.79659(3) 0.26459(4) 0.774664(19)
N1 N 0.6287(3) 0.2714(3) 0.87431(15)
C1 C 0.4889(3) 0.3285(4) 0.8414(2)
C2 C 0.3537(4) 0.3337(5) 0.8934(3)
H1 H 0.2583 0.3721 0.8690
C3 C 0.3642(5) 0.2803(5) 0.9824(3)
H2 H 0.2742 0.2805 1.0187
C4 C 0.5059(6) 0.2273(5) 1.0177(2)
H3 H 0.5146 0.1943 1.0786
C5 C 0.6382(4) 0.2230(4) 0.9612(2)
H4 H 0.7347 0.1856 0.9848
C6 C 0.4941(3) 0.3785(4) 0.7452(2)
H5 H 0.4064 0.4231 0.7155
N2 N 0.6211(3) 0.3587(3) 0.70505(16)
C7 C 0.6445(4) 0.3883(6) 0.6069(2)
H6 H 0.6118 0.5028 0.5938
H7 H 0.5775 0.2903 0.5635
C8 C 0.8273(4) 0.3926(5) 0.5958(2)
H8 H 0.8447 0.3764 0.5291
H9 H 0.8903 0.5098 0.6239
N3 N 0.8862(3) 0.2442(3) 0.64340(17)
C9 C 0.8181(5) 0.0605(5) 0.5922(3)
H10 H 0.6985 0.0407 0.5894
H11 H 0.8596 -0.0307 0.6251
H12 H 0.8520 0.0529 0.5291
C10 C 1.0709(4) 0.2740(5) 0.6474(3)
H13 H 1.1155 0.3926 0.6805
H14 H 1.1044 0.2663 0.5842
H15 H 1.1122 0.1825 0.6801
N4 N 0.9212(3) 0.0925(3) 0.82825(18)
C11 C 0.9620(3) -0.0305(3) 0.85720(18)
N5 N 1.0148(3) -0.1577(3) 0.89915(17)
C12 C 0.9816(3) -0.3266(3) 0.85949(18)
N6 N 0.9583(3) -0.4790(3) 0.83326(18)
Cu1_2 Cu 0.79659(3) -0.73541(4) 0.774664(19)
N6_2 N 0.9583(3) 0.5210(3) 0.83326(18)
Cl1 Cl 0.35674(14) -0.16515(11) 0.68323(6)
O1 O 0.4060(12) -0.2869(12) 0.6171(5)
O3 O 0.3784(6) -0.0119(6) 0.6387(5)
O4 O 0.1605(9) -0.2000(11) 0.6651(7)
O5 O 0.5226(10) -0.1387(12) 0.7433(5)
O2? O 0.308(2) -0.3261(14) 0.6414(13)
O6? O 0.333(2) -0.248(2) 0.7632(7)
O7? O 0.312(2) -0.083(2) 0.7624(10)
loop_
_geom_bond_atom_site_label_1
_geom_bond_atom_site_label_2
_geom_bond_site_symmetry_1
_geom_bond_site_symmetry_2
Cu1 N1 1_555 1_555
N1 C1 1_555 1_555
C1 C2 1_555 1_555
C2 H1 1_555 1_555
C3 C2 1_555 1_555
H2 C3 1_555 1_555
C4 C3 1_555 1_555
H3 C4 1_555 1_555
C5 N1 1_555 1_555
H4 C5 1_555 1_555
C6 C1 1_555 1_555
H5 C6 1_555 1_555
N2 Cu1 1_555 1_555
C7 N2 1_555 1_555
H6 C7 1_555 1_555
H7 C7 1_555 1_555
C8 C7 1_555 1_555
H8 C8 1_555 1_555
H9 C8 1_555 1_555
N3 Cu1 1_555 1_555
C9 N3 1_555 1_555
H10 C9 1_555 1_555
H11 C9 1_555 1_555
H12 C9 1_555 1_555
C10 N3 1_555 1_555
H13 C10 1_555 1_555
H14 C10 1_555 1_555
H15 C10 1_555 1_555
N4 Cu1 1_555 1_555
C11 N4 1_555 1_555
N5 C11 1_555 1_555
C12 N5 1_555 1_555
N6 C12 1_555 1_555
Cl1 O1 1_555 1_555
O3 Cl1 1_555 1_555
O4 Cl1 1_555 1_555
O5 Cl1 1_555 1_555
Cu1_2 N6 1_555 1_555
N6_2 Cu1 1_555 1_555
C4 C5 1_555 1_555
C6 N2 1_555 1_555
C8 N3 1_555 1_555

#END
