
#######################################################################
#
#                 Cambridge Crystallographic Data Centre
#                                CCDC 
#
#######################################################################
#
# If this CIF has been generated from an entry in the Cambridge 
# Structural Database, then it will include bibliographic, chemical, 
# crystal, experimental, refinement or atomic coordinate data resulting 
# from the CCDC's data processing and validation procedures.
#
#######################################################################

data_KEFVUN
_symmetry_cell_setting           monoclinic
_symmetry_space_group_name_H-M   'C 2/c'
_symmetry_Int_Tables_number      15
_space_group_name_Hall           '-C 2yn'
loop_
_symmetry_equiv_pos_site_id
_symmetry_equiv_pos_as_xyz
1 x,y,z
2 1/2+x,1/2+y,z
3 -x,y,1/2-z
4 1/2-x,1/2+y,1/2-z
5 -x,-y,-z
6 1/2-x,1/2-y,-z
7 x,-y,1/2+z
8 1/2+x,1/2-y,1/2+z
_cell_length_a                   13.9377(8)
_cell_length_b                   20.4459(9)
_cell_length_c                   15.5448(8)
_cell_angle_alpha                90
_cell_angle_beta                 110.542(2)
_cell_angle_gamma                90
_cell_volume                     4148.12
loop_
_atom_site_label
_atom_site_type_symbol
_atom_site_fract_x
_atom_site_fract_y
_atom_site_fract_z
Cu1 Cu 0.0000 0.73372(3) 0.2500
O1 O -0.35477(19) 0.78122(11) 0.38565(15)
O2 O -0.5515(2) 0.72918(13) 0.44526(16)
N1 N -0.0882(2) 0.80493(12) 0.27492(18)
N2 N -0.9034(2) 0.66545(12) 0.23135(18)
C1 C -0.1074(3) 0.80593(16) 0.3542(2)
H1 H -0.0810 0.7713 0.3967
C2 C -0.1630(3) 0.85413(16) 0.3769(2)
C3 C -0.2031(3) 0.90399(17) 0.3133(2)
H2 H -0.2416 0.9385 0.3262
C4 C -0.1859(3) 0.90229(16) 0.2310(2)
H3 H -0.2138 0.9353 0.1862
C5 C -0.1285(3) 0.85292(15) 0.2140(2)
H4 H -0.1168 0.8526 0.1573
C6 C -0.1772(3) 0.85230(18) 0.4692(2)
H5 H -0.1619 0.8076 0.4948
H6 H -0.1272 0.8824 0.5118
N3 N -0.2796(2) 0.87038(15) 0.4646(2)
H7 H -0.282(3) 0.9054(19) 0.487(3)
C7 C -0.3611(3) 0.83290(17) 0.4241(2)
C8 C -0.4605(3) 0.85610(19) 0.4322(3)
H8 H -0.4636 0.9044 0.4274
H9 H -0.4614 0.8441 0.4936
C9 C -0.5543(3) 0.82760(17) 0.3595(3)
H10 H -0.6160 0.8499 0.3626
H11 H -0.5505 0.8365 0.2981
C10 C -0.5657(3) 0.75489(18) 0.3696(2)
N4 N -0.5960(2) 0.72012(15) 0.2925(2)
H12 H -0.607(2) 0.7390(15) 0.246(2)
C11 C -0.6183(3) 0.65074(18) 0.2899(3)
H13 H -0.5913 0.6332 0.3533
H14 H -0.5821 0.6282 0.2538
C12 C -0.7305(3) 0.63546(16) 0.2488(2)
C13 C -0.8020(3) 0.67538(16) 0.2666(2)
H15 H -0.7775 0.7119 0.3061
C14 C -0.9371(3) 0.61248(15) 0.1785(2)
H16 H -1.0086 0.6041 0.1543
C15 C -0.8718(3) 0.56986(17) 0.1580(2)
H17 H -0.8979 0.5327 0.1204
C16 C -0.7674(3) 0.58193(17) 0.1932(2)
H18 H -0.7213 0.5534 0.1790
O3 O 0.1102(2) 0.73003(13) 0.41160(16)
H19 H 0.1451 0.6952 0.4326
H20 H 0.0961 0.7463 0.4553
Cu1_2 Cu -1.0000 0.73372(3) 0.2500
Cu1_3 Cu 1.0000 0.73372(3) 0.2500
O1B O 0.35477(19) 0.78122(11) 0.11435(15)
O2B O 0.5515(2) 0.72918(13) 0.05474(16)
N1B N 0.0882(2) 0.80493(12) 0.22508(18)
N2B N 0.9034(2) 0.66545(12) 0.26865(18)
N2_2 N 0.0966(2) 0.66545(12) 0.23135(18)
N2B_2 N -0.0966(2) 0.66545(12) 0.26865(18)
C1B C 0.1074(3) 0.80593(16) 0.1458(2)
H1B H 0.0810 0.7713 0.1033
C2B C 0.1630(3) 0.85413(16) 0.1231(2)
C3B C 0.2031(3) 0.90399(17) 0.1867(2)
H2B H 0.2416 0.9385 0.1738
C4B C 0.1859(3) 0.90229(16) 0.2690(2)
H3B H 0.2138 0.9353 0.3138
C5B C 0.1285(3) 0.85292(15) 0.2860(2)
H4B H 0.1168 0.8526 0.3427
C6B C 0.1772(3) 0.85230(18) 0.0308(2)
H5B H 0.1619 0.8076 0.0052
H6B H 0.1272 0.8824 -0.0118
N3B N 0.2796(2) 0.87038(15) 0.0354(2)
H7B H 0.282(3) 0.9054(19) 0.013(3)
C7B C 0.3611(3) 0.83290(17) 0.0759(2)
C8B C 0.4605(3) 0.85610(19) 0.0678(3)
H8B H 0.4636 0.9044 0.0726
H9B H 0.4614 0.8441 0.0064
C9B C 0.5543(3) 0.82760(17) 0.1405(3)
H10B H 0.6160 0.8499 0.1374
H11B H 0.5505 0.8365 0.2019
C10B C 0.5657(3) 0.75489(18) 0.1304(2)
N4B N 0.5960(2) 0.72012(15) 0.2075(2)
H12B H 0.607(2) 0.7390(15) 0.254(2)
C11B C 0.6183(3) 0.65074(18) 0.2101(3)
H13B H 0.5913 0.6332 0.1467
H14B H 0.5821 0.6282 0.2462
C12B C 0.7305(3) 0.63546(16) 0.2512(2)
C13B C 0.8020(3) 0.67538(16) 0.2334(2)
H15B H 0.7775 0.7119 0.1939
C14B C 0.9371(3) 0.61248(15) 0.3215(2)
H16B H 1.0086 0.6041 0.3457
C15B C 0.8718(3) 0.56986(17) 0.3420(2)
H17B H 0.8979 0.5327 0.3796
C16B C 0.7674(3) 0.58193(17) 0.3068(2)
H18B H 0.7213 0.5534 0.3210
O3B O -0.1102(2) 0.73003(13) 0.08840(16)
H19B H -0.1451 0.6952 0.0674
H20B H -0.0961 0.7463 0.0447
Cl1 Cl -0.79175(10) 0.55240(5) 0.47323(7)
O4 O -0.7235(3) 0.50786(13) 0.53014(19)
O5 O -0.8801(3) 0.5525(2) 0.5063(3)
O6 O -0.7590(3) 0.61648(14) 0.4832(3)
O7 O -0.8297(3) 0.53336(15) 0.38012(19)
O10 O -0.5068(17) 0.4947(11) 0.612(2)
O11 O -0.5645(17) 0.5887(11) 0.4974(15)
O8? O -1.007(3) 0.4552(5) 0.245(3)
O9? O -0.4701(16) 0.5233(8) 0.3059(16)
loop_
_geom_bond_atom_site_label_1
_geom_bond_atom_site_label_2
_geom_bond_site_symmetry_1
_geom_bond_site_symmetry_2
Cu1 N1 1_555 1_555
O1 C7 1_555 1_555
O2 C10 1_555 1_555
N1 C1 1_555 1_555
N2 C13 1_555 1_555
C1 H1 1_555 1_555
C2 C1 1_555 1_555
C3 C2 1_555 1_555
H2 C3 1_555 1_555
C4 C3 1_555 1_555
H3 C4 1_555 1_555
C5 N1 1_555 1_555
H4 C5 1_555 1_555
C6 C2 1_555 1_555
H5 C6 1_555 1_555
H6 C6 1_555 1_555
N3 C6 1_555 1_555
H7 N3 1_555 1_555
C7 N3 1_555 1_555
C8 C7 1_555 1_555
H8 C8 1_555 1_555
H9 C8 1_555 1_555
C9 C8 1_555 1_555
H10 C9 1_555 1_555
H11 C9 1_555 1_555
C10 C9 1_555 1_555
N4 C10 1_555 1_555
H12 N4 1_555 1_555
C11 N4 1_555 1_555
H13 C11 1_555 1_555
H14 C11 1_555 1_555
C12 C11 1_555 1_555
C13 C12 1_555 1_555
H15 C13 1_555 1_555
C14 N2 1_555 1_555
H16 C14 1_555 1_555
C15 C14 1_555 1_555
H17 C15 1_555 1_555
C16 C12 1_555 1_555
H18 C16 1_555 1_555
O3 Cu1 1_555 1_555
H19 O3 1_555 1_555
H20 O3 1_555 1_555
Cl1 O4 1_555 1_555
O5 Cl1 1_555 1_555
O6 Cl1 1_555 1_555
O7 Cl1 1_555 1_555
Cu1_2 N2 1_555 1_555
Cu1_3 N2B 1_555 1_555
O1B C7B 1_555 1_555
O2B C10B 1_555 1_555
N1B Cu1 1_555 1_555
N2B C13B 1_555 1_555
N2_2 Cu1 1_555 1_555
N2B_2 Cu1 1_555 1_555
C1B N1B 1_555 1_555
H1B C1B 1_555 1_555
C2B C1B 1_555 1_555
C3B C2B 1_555 1_555
H2B C3B 1_555 1_555
C4B C3B 1_555 1_555
H3B C4B 1_555 1_555
C5B N1B 1_555 1_555
H4B C5B 1_555 1_555
C6B C2B 1_555 1_555
H5B C6B 1_555 1_555
H6B C6B 1_555 1_555
N3B C6B 1_555 1_555
H7B N3B 1_555 1_555
C7B N3B 1_555 1_555
C8B C7B 1_555 1_555
H8B C8B 1_555 1_555
H9B C8B 1_555 1_555
C9B C8B 1_555 1_555
H10B C9B 1_555 1_555
H11B C9B 1_555 1_555
C10B C9B 1_555 1_555
N4B C10B 1_555 1_555
H12B N4B 1_555 1_555
C11B N4B 1_555 1_555
H13B C11B 1_555 1_555
H14B C11B 1_555 1_555
C12B C11B 1_555 1_555
C13B C12B 1_555 1_555
H15B C13B 1_555 1_555
C14B N2B 1_555 1_555
H16B C14B 1_555 1_555
C15B C14B 1_555 1_555
H17B C15B 1_555 1_555
C16B C12B 1_555 1_555
H18B C16B 1_555 1_555
O3B Cu1 1_555 1_555
H19B O3B 1_555 1_555
H20B O3B 1_555 1_555
C4 C5 1_555 1_555
C15 C16 1_555 1_555
C4B C5B 1_555 1_555
C15B C16B 1_555 1_555

#END
