
#######################################################################
#
#                 Cambridge Crystallographic Data Centre
#                                CCDC 
#
#######################################################################
#
# If this CIF has been generated from an entry in the Cambridge 
# Structural Database, then it will include bibliographic, chemical, 
# crystal, experimental, refinement or atomic coordinate data resulting 
# from the CCDC's data processing and validation procedures.
#
#######################################################################

data_KEFWID
_symmetry_cell_setting           monoclinic
_symmetry_space_group_name_H-M   'C 2/c'
_symmetry_Int_Tables_number      15
_space_group_name_Hall           '-C 2yn'
loop_
_symmetry_equiv_pos_site_id
_symmetry_equiv_pos_as_xyz
1 x,y,z
2 -x,y,1/2-z
3 1/2+x,1/2+y,z
4 1/2-x,1/2+y,1/2-z
5 -x,-y,-z
6 x,-y,1/2+z
7 1/2-x,1/2-y,-z
8 1/2+x,1/2-y,1/2+z
_cell_length_a                   10.7608(3)
_cell_length_b                   20.6327(6)
_cell_length_c                   16.8538(7)
_cell_angle_alpha                90
_cell_angle_beta                 100.938(3)
_cell_angle_gamma                90
_cell_volume                     3673.97
loop_
_atom_site_label
_atom_site_type_symbol
_atom_site_fract_x
_atom_site_fract_y
_atom_site_fract_z
Gd1 Gd 0.17048(4) 0.08543(2) 0.05143(3)
Co1 Co 0.2500 0.2500 0.0000
O1 O 0.0000 0.1297(5) -0.2500
O2 O 0.0961(6) 0.0789(3) -0.1006(4)
O3 O 0.1221(6) 0.1755(3) -0.0460(4)
O4 O -0.1909(7) 0.0216(4) -0.0209(5)
O5 O -0.0463(6) 0.0955(3) 0.0241(4)
O6 O -0.3769(6) 0.0980(3) 0.0083(4)
O7 O -0.6500(5) 0.1719(3) 0.0596(4)
O8 O -0.6313(6) 0.0800(3) -0.0036(5)
O9 O 0.0000 0.2183(4) 0.2500
O10 O 0.1311(6) 0.1662(3) 0.1422(4)
O11 O 0.1607(6) 0.2656(3) 0.0940(4)
O12 O 0.0860(8) 0.0205(4) 0.1534(5)
H1 H 0.0094 0.0078 0.1434
H2 H 0.1333 0.0110 0.1983
O13 O 0.3377(7) 0.0545(5) 0.1637(6)
C1 C 0.0425(9) 0.1698(5) -0.1850(6)
C2 C 0.0284(10) 0.2326(6) -0.2067(6)
H3 H 0.0501 0.2685 -0.1737
C3 C 0.0904(8) 0.1387(5) -0.1073(6)
C4 C 0.0337(12) 0.3204(5) 0.2173(7)
H4 H 0.0585 0.3565 0.1910
C5 C 0.0544(9) 0.2578(5) 0.2012(6)
C6 C 0.1210(8) 0.2267(5) 0.1408(5)
C7 C -0.5831(9) 0.1310(5) 0.0275(6)
C8 C -0.1576(9) 0.0744(5) 0.0077(6)
C9 C -0.2553(9) 0.1202(5) 0.0234(6)
C10 C -0.2518(10) 0.1811(5) 0.0542(7)
H5 H -0.1805 0.2071 0.0690
C11 C -0.3772(10) 0.1974(6) 0.0592(7)
H6 H -0.4043 0.2360 0.0788
C12 C -0.4500(9) 0.1469(5) 0.0306(7)
H7 H 0.3017 0.0350 0.1973
H8 H 0.3902 0.0809 0.1880
Gd1A Gd -0.17048(4) 0.08543(2) -0.55143(3)
Gd1_2 Gd -0.82952(4) 0.08543(2) 0.05143(3)
Gd1A_2 Gd -0.17048(4) 0.08543(2) 0.44857(3)
Gd1A_3 Gd 0.82952(4) 0.08543(2) -0.55143(3)
Gd1D Gd -0.17048(4) -0.08543(2) -0.05143(3)
Gd1E Gd 0.17048(4) -0.08543(2) -0.44857(3)
Co1_2 Co -0.7500 0.2500 0.0000
Co1A Co -0.2500 0.2500 0.5000
Co1A_2 Co 0.7500 0.2500 -0.5000
Co1A_3 Co -0.2500 0.2500 -0.5000
O2A O -0.0961(6) 0.0789(3) -0.3994(4)
O3A O -0.1221(6) 0.1755(3) -0.4540(4)
O3F O 0.3779(6) 0.3245(3) 0.0460(4)
O4A O 0.1909(7) 0.0216(4) -0.4791(5)
O4D O 0.1909(7) -0.0216(4) 0.0209(5)
O4E O -0.1909(7) -0.0216(4) -0.5209(5)
O5A O 0.0463(6) 0.0955(3) -0.5241(4)
O6A O 0.3769(6) 0.0980(3) -0.5083(4)
O7A O 0.6500(5) 0.1719(3) -0.5596(4)
O7_2 O 0.3500(5) 0.1719(3) 0.0596(4)
O7A_2 O -0.3500(5) 0.1719(3) -0.5596(4)
O7F O 0.1500(5) 0.3281(3) -0.0596(4)
O8A O 0.6313(6) 0.0800(3) -0.4964(5)
O8_2 O 0.3687(6) 0.0800(3) -0.0036(5)
O8A_2 O -0.3687(6) 0.0800(3) -0.4964(5)
O10A O -0.1311(6) 0.1662(3) 0.3578(4)
O10A_2 O -0.1311(6) 0.1662(3) -0.6422(4)
O11A O -0.1607(6) 0.2656(3) 0.4060(4)
O11F O 0.3393(6) 0.2344(3) -0.0940(4)
O12A O -0.0860(8) 0.0205(4) -0.6534(5)
H1A H -0.0094 0.0078 -0.6434
H2A H -0.1333 0.0110 -0.6983
O13A O -0.3377(7) 0.0545(5) -0.6637(6)
C1A C -0.0425(9) 0.1698(5) -0.3150(6)
C2A C -0.0284(10) 0.2326(6) -0.2933(6)
H3A H -0.0501 0.2685 -0.3263
C3A C -0.0904(8) 0.1387(5) -0.3927(6)
C4A C -0.0337(12) 0.3204(5) 0.2827(7)
H4A H -0.0585 0.3565 0.3090
C5A C -0.0544(9) 0.2578(5) 0.2988(6)
C6A C -0.1210(8) 0.2267(5) 0.3592(5)
C7A C 0.5831(9) 0.1310(5) -0.5275(6)
C7_2 C 0.4169(9) 0.1310(5) 0.0275(6)
C7A_2 C -0.4169(9) 0.1310(5) -0.5275(6)
C8A C 0.1576(9) 0.0744(5) -0.5077(6)
C9A C 0.2553(9) 0.1202(5) -0.5234(6)
C10A C 0.2518(10) 0.1811(5) -0.5542(7)
H5A H 0.1805 0.2071 -0.5690
C11A C 0.3772(10) 0.1974(6) -0.5592(7)
H6A H 0.4043 0.2360 -0.5788
C12A C 0.4500(9) 0.1469(5) -0.5306(7)
H7A H -0.3017 0.0350 -0.6973
H8A H -0.3902 0.0809 -0.6880
O14 O -0.5313(13) 0.0177(6) -0.1351(8)
H9 H -0.4808 0.0386 -0.0991
H10 H -0.5780 -0.0056 -0.1112
loop_
_geom_bond_atom_site_label_1
_geom_bond_atom_site_label_2
_geom_bond_site_symmetry_1
_geom_bond_site_symmetry_2
Gd1 O2 1_555 1_555
Co1 O3 1_555 1_555
O1 C1 1_555 1_555
O2 C3 1_555 1_555
O3 Gd1 1_555 1_555
O4 C8 1_555 1_555
O5 Gd1 1_555 1_555
O6 C9 1_555 1_555
O7 C7 1_555 1_555
O8 C7 1_555 1_555
O9 C5 1_555 1_555
O10 Gd1 1_555 1_555
O11 Co1 1_555 1_555
O12 Gd1 1_555 1_555
H1 O12 1_555 1_555
H2 O12 1_555 1_555
O13 Gd1 1_555 1_555
C1 C2 1_555 1_555
C2 H3 1_555 1_555
C3 O3 1_555 1_555
C4 H4 1_555 1_555
C5 C4 1_555 1_555
C6 O10 1_555 1_555
C7 C12 1_555 1_555
C8 O5 1_555 1_555
C9 C8 1_555 1_555
C10 C9 1_555 1_555
H5 C10 1_555 1_555
C11 C10 1_555 1_555
H6 C11 1_555 1_555
C12 O6 1_555 1_555
O14 H9 1_555 1_555
H7 O13 1_555 1_555
H8 O13 1_555 1_555
H10 O14 1_555 1_555
Gd1A O2A 1_555 1_555
Gd1_2 O7 1_555 1_555
Gd1A_2 O10A 1_555 1_555
Gd1A_3 O7A 1_555 1_555
Gd1D O4 1_555 1_555
Gd1E O4A 1_555 1_555
Co1_2 O7 1_555 1_555
Co1A O11A 1_555 1_555
Co1A_2 O7A 1_555 1_555
Co1A_3 O3A 1_555 1_555
O2A C3A 1_555 1_555
O3A Gd1A 1_555 1_555
O3F Co1 1_555 1_555
O4A C8A 1_555 1_555
O4D Gd1 1_555 1_555
O4E Gd1A 1_555 1_555
O5A Gd1A 1_555 1_555
O6A C9A 1_555 1_555
O7A C7A 1_555 1_555
O7_2 Gd1 1_555 1_555
O7A_2 Gd1A 1_555 1_555
O7F Co1 1_555 1_555
O8A Gd1A_3 1_555 1_555
O8_2 Gd1 1_555 1_555
O8A_2 Gd1A 1_555 1_555
O10A C6A 1_555 1_555
O10A_2 Gd1A 1_555 1_555
O11A C6A 1_555 1_555
O11F Co1 1_555 1_555
O12A Gd1A 1_555 1_555
H1A O12A 1_555 1_555
H2A O12A 1_555 1_555
O13A Gd1A 1_555 1_555
C1A O1 1_555 1_555
C2A C2 1_555 1_555
H3A C2A 1_555 1_555
C3A O3A 1_555 1_555
C4A C4 1_555 1_555
H4A C4A 1_555 1_555
C5A O9 1_555 1_555
C6A C5A 1_555 1_555
C7A O8A 1_555 1_555
C7_2 O7_2 1_555 1_555
C7A_2 O7A_2 1_555 1_555
C8A O5A 1_555 1_555
C9A C8A 1_555 1_555
C10A C9A 1_555 1_555
H5A C10A 1_555 1_555
C11A C10A 1_555 1_555
H6A C11A 1_555 1_555
C12A O6A 1_555 1_555
H7A O13A 1_555 1_555
H8A O13A 1_555 1_555
Co1 O7_2 1_555 1_555
O8 Gd1_2 1_555 1_555
O11 C6 1_555 1_555
C1 C3 1_555 1_555
C5 C6 1_555 1_555
C11 C12 1_555 1_555
Co1A_3 O7A_2 1_555 1_555
O8_2 C7_2 1_555 1_555
O8A_2 C7A_2 1_555 1_555
C1A C2A 1_555 1_555
C1A C3A 1_555 1_555
C4A C5A 1_555 1_555
C7A C12A 1_555 1_555
C11A C12A 1_555 1_555

#END
