
#######################################################################
#
#                 Cambridge Crystallographic Data Centre
#                                CCDC 
#
#######################################################################
#
# If this CIF has been generated from an entry in the Cambridge 
# Structural Database, then it will include bibliographic, chemical, 
# crystal, experimental, refinement or atomic coordinate data resulting 
# from the CCDC's data processing and validation procedures.
#
#######################################################################

data_KEFWUP
_symmetry_cell_setting           orthorhombic
_symmetry_space_group_name_H-M   'P n n m'
_symmetry_Int_Tables_number      58
_space_group_name_Hall           '-P 2 2n'
loop_
_symmetry_equiv_pos_site_id
_symmetry_equiv_pos_as_xyz
1 x,y,z
2 -x,-y,z
3 1/2-x,1/2+y,1/2-z
4 1/2+x,1/2-y,1/2-z
5 -x,-y,-z
6 x,y,-z
7 1/2+x,1/2-y,1/2+z
8 1/2-x,1/2+y,1/2+z
_cell_length_a                   17.647(2)
_cell_length_b                   5.2995(7)
_cell_length_c                   13.9680(18)
_cell_angle_alpha                90
_cell_angle_beta                 90
_cell_angle_gamma                90
_cell_volume                     1306.29
loop_
_atom_site_label
_atom_site_type_symbol
_atom_site_fract_x
_atom_site_fract_y
_atom_site_fract_z
Zn1 Zn 0.23120(3) 0.57343(12) 0.5000
C1 C 0.0000 1.0000 0.0539(3)
C2 C 0.0500(2) 0.8459(8) 0.1046(3)
H1 H 0.0836 0.7415 0.0719
C3 C 0.0493(2) 0.8492(8) 0.2026(3)
C4 C 0.0000 1.0000 0.2536(4)
H2 H 0.0000 1.0000 0.3202
C5 C 0.1265(2) 0.7410(8) 0.3445(3)
H3 H 0.1113 0.8787 0.3810
C6 C 0.1819(2) 0.4017(8) 0.2976(3)
H4 H 0.2125 0.2587 0.2972
C7 C 0.1381(2) 0.4783(8) 0.2239(3)
H5 H 0.1332 0.4011 0.1644
C8 C 0.2594(3) 0.0648(10) 0.5000
N1 N 0.10201(18) 0.6945(6) 0.2548(2)
N2 N 0.17458(18) 0.5673(6) 0.3739(2)
O1 O 0.2947(2) 0.2750(8) 0.5000
O2 O 0.3004(2) -0.1385(7) 0.5000
O3 O 0.1884(2) 0.0528(7) 0.5000
Zn1A Zn -0.23120(3) 1.42657(12) 0.5000
Zn1_2 Zn 0.23120(3) -0.42657(12) 0.5000
Zn1_3 Zn 0.23120(3) 0.57343(12) -0.5000
Zn1A_2 Zn -0.23120(3) 1.42657(12) -0.5000
Zn1A_3 Zn -0.23120(3) 2.42657(12) 0.5000
C1D C 0.0000 1.0000 -0.0539(3)
C2A C -0.0500(2) 1.1541(8) 0.1046(3)
C2D C -0.0500(2) 1.1541(8) -0.1046(3)
C2E C 0.0500(2) 0.8459(8) -0.1046(3)
H1A H -0.0836 1.2585 0.0719
H1D H -0.0836 1.2585 -0.0719
H1E H 0.0836 0.7415 -0.0719
C3A C -0.0493(2) 1.1508(8) 0.2026(3)
C3D C -0.0493(2) 1.1508(8) -0.2026(3)
C3E C 0.0493(2) 0.8492(8) -0.2026(3)
C4D C 0.0000 1.0000 -0.2536(4)
H2D H 0.0000 1.0000 -0.3202
C5A C -0.1265(2) 1.2590(8) 0.3445(3)
C5D C -0.1265(2) 1.2590(8) -0.3445(3)
C5E C 0.1265(2) 0.7410(8) -0.3445(3)
H3A H -0.1113 1.1213 0.3810
H3D H -0.1113 1.1213 -0.3810
H3E H 0.1113 0.8787 -0.3810
C6A C -0.1819(2) 1.5983(8) 0.2976(3)
C6D C -0.1819(2) 1.5983(8) -0.2976(3)
C6E C 0.1819(2) 0.4017(8) -0.2976(3)
H4A H -0.2125 1.7413 0.2972
H4D H -0.2125 1.7413 -0.2972
H4E H 0.2125 0.2587 -0.2972
C7A C -0.1381(2) 1.5217(8) 0.2239(3)
C7D C -0.1381(2) 1.5217(8) -0.2239(3)
C7E C 0.1381(2) 0.4783(8) -0.2239(3)
H5A H -0.1332 1.5989 0.1644
H5D H -0.1332 1.5989 -0.1644
H5E H 0.1332 0.4011 -0.1644
C8A C -0.2594(3) 1.9352(10) 0.5000
N1A N -0.10201(18) 1.3055(6) 0.2548(2)
N1D N -0.10201(18) 1.3055(6) -0.2548(2)
N1E N 0.10201(18) 0.6945(6) -0.2548(2)
N2A N -0.17458(18) 1.4327(6) 0.3739(2)
N2D N -0.17458(18) 1.4327(6) -0.3739(2)
N2E N 0.17458(18) 0.5673(6) -0.3739(2)
N2D_2 N -0.17458(18) 1.4327(6) 0.6261(2)
N2E_2 N 0.17458(18) 0.5673(6) 0.6261(2)
O1A O -0.2947(2) 1.7250(8) 0.5000
O2A O -0.3004(2) 2.1385(7) 0.5000
O2_2 O 0.3004(2) 0.8615(7) 0.5000
O2A_2 O -0.3004(2) 1.1385(7) 0.5000
O3A O -0.1884(2) 1.9472(7) 0.5000
O4 O 0.0352(3) 0.2411(12) 0.5000
loop_
_geom_bond_atom_site_label_1
_geom_bond_atom_site_label_2
_geom_bond_site_symmetry_1
_geom_bond_site_symmetry_2
Zn1 N2 1_555 1_555
C1 C2 1_555 1_555
C2 H1 1_555 1_555
C3 C2 1_555 1_555
C4 C3 1_555 1_555
H2 C4 1_555 1_555
C5 H3 1_555 1_555
C6 H4 1_555 1_555
C7 C6 1_555 1_555
H5 C7 1_555 1_555
C8 O1 1_555 1_555
N1 C3 1_555 1_555
N2 C5 1_555 1_555
O1 Zn1 1_555 1_555
O2 C8 1_555 1_555
O3 C8 1_555 1_555
Zn1A N2A 1_555 1_555
Zn1_2 O2 1_555 1_555
Zn1_3 N2E 1_555 1_555
Zn1A_2 N2D 1_555 1_555
Zn1A_3 O2A 1_555 1_555
C1D C1 1_555 1_555
C2A C1 1_555 1_555
C2D C1D 1_555 1_555
C2E C1D 1_555 1_555
H1A C2A 1_555 1_555
H1D C2D 1_555 1_555
H1E C2E 1_555 1_555
C3A C4 1_555 1_555
C3D C2D 1_555 1_555
C3E C2E 1_555 1_555
C4D C3D 1_555 1_555
H2D C4D 1_555 1_555
C5A H3A 1_555 1_555
C5D H3D 1_555 1_555
C5E H3E 1_555 1_555
C6A H4A 1_555 1_555
C6D H4D 1_555 1_555
C6E H4E 1_555 1_555
C7A C6A 1_555 1_555
C7D C6D 1_555 1_555
C7E C6E 1_555 1_555
H5A C7A 1_555 1_555
H5D C7D 1_555 1_555
H5E C7E 1_555 1_555
C8A O1A 1_555 1_555
N1A C3A 1_555 1_555
N1D C3D 1_555 1_555
N1E C3E 1_555 1_555
N2A C5A 1_555 1_555
N2D C5D 1_555 1_555
N2E C5E 1_555 1_555
N2D_2 Zn1A 1_555 1_555
N2E_2 Zn1 1_555 1_555
O1A Zn1A 1_555 1_555
O2A C8A 1_555 1_555
O2_2 Zn1 1_555 1_555
O2A_2 Zn1A 1_555 1_555
O3A C8A 1_555 1_555
C5 N1 1_555 1_555
C6 N2 1_555 1_555
C7 N1 1_555 1_555
C2A C3A 1_555 1_555
C3E C4D 1_555 1_555
C5A N1A 1_555 1_555
C5D N1D 1_555 1_555
C5E N1E 1_555 1_555
C6A N2A 1_555 1_555
C6D N2D 1_555 1_555
C6E N2E 1_555 1_555
C7A N1A 1_555 1_555
C7D N1D 1_555 1_555
C7E N1E 1_555 1_555

#END
