
#######################################################################
#
#                 Cambridge Crystallographic Data Centre
#                                CCDC 
#
#######################################################################
#
# If this CIF has been generated from an entry in the Cambridge 
# Structural Database, then it will include bibliographic, chemical, 
# crystal, experimental, refinement or atomic coordinate data resulting 
# from the CCDC's data processing and validation procedures.
#
#######################################################################

data_KEFWEZ
_symmetry_cell_setting           monoclinic
_symmetry_space_group_name_H-M   'P 21/c'
_symmetry_Int_Tables_number      14
_space_group_name_Hall           '-P 2ybc'
loop_
_symmetry_equiv_pos_site_id
_symmetry_equiv_pos_as_xyz
1 x,y,z
2 -x,1/2+y,1/2-z
3 -x,-y,-z
4 x,1/2-y,1/2+z
_cell_length_a                   9.2915(4)
_cell_length_b                   15.0734(7)
_cell_length_c                   17.8179(7)
_cell_angle_alpha                90
_cell_angle_beta                 97.323(4)
_cell_angle_gamma                90
_cell_volume                     2475.12
loop_
_atom_site_label
_atom_site_type_symbol
_atom_site_fract_x
_atom_site_fract_y
_atom_site_fract_z
Co1 Co 0.5000 0.0000 0.5000
Co2 Co 0.57713(9) -0.11256(6) 0.66364(5)
O1 O 0.0529(5) -0.0395(3) 0.6237(2)
O2 O 0.3173(5) -0.1194(4) 0.6721(3)
O3 O 0.4348(5) -0.0190(3) 0.6137(2)
O4 O -0.2281(5) -0.0717(3) 0.6403(3)
O5 O -0.2979(5) 0.0337(4) 0.5544(3)
O6 O 0.4098(5) 0.2913(3) 0.5885(2)
O7 O 0.4458(5) 0.1397(3) 0.5087(3)
O8 O 0.4422(6) 0.2191(3) 0.4023(2)
O9 O 0.3952(5) 0.3241(4) 0.7354(3)
O10 O 0.3782(7) 0.4669(4) 0.7180(3)
C1 C -0.0530(7) 0.0184(5) 0.5960(4)
C2 C 0.0045(7) 0.0917(5) 0.5679(4)
H3 H -0.0460 0.1403 0.5457
C3 C 0.1586(7) 0.0799(5) 0.5789(4)
H4 H 0.2282 0.1198 0.5665
C4 C 0.1828(7) -0.0006(5) 0.6108(4)
C5 C 0.3149(7) -0.0521(5) 0.6344(3)
C6 C -0.2057(7) -0.0096(5) 0.5985(4)
C7 C 0.4131(8) 0.2945(5) 0.5125(4)
C8 C 0.3864(8) 0.3772(5) 0.6104(4)
C9 C 0.3777(10) 0.4323(6) 0.5514(4)
H5 H 0.3642 0.4934 0.5519
C10 C 0.3931(11) 0.3784(6) 0.4877(5)
H6 H 0.3900 0.3975 0.4379
C11 C 0.4369(7) 0.2099(5) 0.4725(4)
C12 C 0.3848(8) 0.3910(6) 0.6925(4)
Co1_2 Co -0.5000 0.0000 0.5000
Co1_3 Co 1.5000 0.0000 0.5000
Co2B Co 0.42287(9) 0.11256(6) 0.33636(5)
Co2_2 Co -0.42287(9) -0.11256(6) 0.66364(5)
Co2A Co 0.42287(9) 0.38744(6) 0.83636(5)
Co2B_2 Co 1.42287(9) 0.11256(6) 0.33636(5)
Co2C Co 0.57713(9) -0.38744(6) 0.16364(5)
O1B O 0.9471(5) 0.0395(3) 0.3763(2)
O2B O 0.6827(5) 0.1194(4) 0.3279(3)
O3B O 0.5652(5) 0.0190(3) 0.3863(2)
O4B O 1.2281(5) 0.0717(3) 0.3597(3)
O4_2 O 0.7719(5) -0.0717(3) 0.6403(3)
O4B_2 O 0.2281(5) 0.0717(3) 0.3597(3)
O5B O 1.2979(5) -0.0337(4) 0.4456(3)
O5_2 O 0.7021(5) 0.0337(4) 0.5544(3)
O5B_2 O 0.2979(5) -0.0337(4) 0.4456(3)
O6B O 0.5902(5) -0.2913(3) 0.4115(2)
O7B O 0.5542(5) -0.1397(3) 0.4913(3)
O8B O 0.5578(6) -0.2191(3) 0.5977(2)
O9B O 0.6048(5) -0.3241(4) 0.2646(3)
O9A O 0.6048(5) -0.1759(4) 0.7646(3)
O9C O 0.3952(5) 0.1759(4) 0.2354(3)
O10B O 0.6218(7) -0.4669(4) 0.2820(3)
O10A O 0.6218(7) -0.0331(4) 0.7820(3)
O10C O 0.3782(7) 0.0331(4) 0.2180(3)
C1B C 1.0530(7) -0.0184(5) 0.4040(4)
C2B C 0.9955(7) -0.0917(5) 0.4321(4)
H3B H 1.0460 -0.1403 0.4543
C3B C 0.8414(7) -0.0799(5) 0.4211(4)
H4B H 0.7718 -0.1198 0.4335
C4B C 0.8172(7) 0.0006(5) 0.3892(4)
C5B C 0.6851(7) 0.0521(5) 0.3656(3)
C6B C 1.2057(7) 0.0096(5) 0.4015(4)
C7B C 0.5869(8) -0.2945(5) 0.4875(4)
C8B C 0.6136(8) -0.3772(5) 0.3896(4)
C9B C 0.6223(10) -0.4323(6) 0.4486(4)
H5B H 0.6358 -0.4934 0.4481
C10B C 0.6069(11) -0.3784(6) 0.5123(5)
H6B H 0.6100 -0.3975 0.5621
C11B C 0.5631(7) -0.2099(5) 0.5275(4)
C12B C 0.6152(8) -0.3910(6) 0.3075(4)
O11 O 0.930(2) 0.5676(11) 0.6890(10)
N2 N 0.9215(17) 0.4132(11) 0.6831(9)
C18 C 0.988(2) 0.3316(14) 0.7121(12)
H20 H 0.9223 0.3001 0.7398
H21 H 1.0755 0.3449 0.7451
H22 H 1.0112 0.2957 0.6708
C19 C 0.774(2) 0.3992(18) 0.6446(12)
H23 H 0.7784 0.3812 0.5932
H24 H 0.7198 0.4535 0.6448
H25 H 0.7268 0.3539 0.6704
C20 C 0.989(2) 0.4968(13) 0.7019(13)
H26 H 1.0844 0.4968 0.7255
O12 O 0.7307(17) 0.3609(10) 0.4031(9)
N3 N 0.9465(19) 0.3103(11) 0.4437(10)
C15 C 0.827(2) 0.3085(15) 0.4065(13)
H13 H 0.8087 0.2586 0.3761
C16 C 1.041(3) 0.2521(13) 0.4116(13)
H14 H 1.0622 0.2759 0.3644
H15 H 0.9950 0.1952 0.4032
H16 H 1.1290 0.2456 0.4455
C17 C 1.000(2) 0.3860(15) 0.4895(12)
H17 H 1.0873 0.3697 0.5214
H18 H 0.9281 0.4045 0.5204
H19 H 1.0207 0.4340 0.4571
N1 N 0.5464(13) 0.3379(9) 0.2662(7)
H1 H 0.5386 0.2800 0.2774
H2 H 0.5960 0.3638 0.3071
C13 C 0.4031(13) 0.3740(8) 0.2580(7)
H7 H 0.3702 0.3836 0.2053
H8 H 0.4038 0.4294 0.2846
H9 H 0.3389 0.3333 0.2785
C14 C 0.6356(14) 0.3434(8) 0.2065(7)
H10 H 0.5754 0.3525 0.1592
H11 H 0.6892 0.2893 0.2043
H12 H 0.7018 0.3922 0.2159
loop_
_geom_bond_atom_site_label_1
_geom_bond_atom_site_label_2
_geom_bond_site_symmetry_1
_geom_bond_site_symmetry_2
Co1 O3 1_555 1_555
Co2 O2 1_555 1_555
O1 C1 1_555 1_555
O2 C5 1_555 1_555
O3 Co2 1_555 1_555
O4 C6 1_555 1_555
O5 C6 1_555 1_555
O6 C7 1_555 1_555
O7 Co1 1_555 1_555
O8 C11 1_555 1_555
O9 C12 1_555 1_555
O10 C12 1_555 1_555
O11 C20 1_555 1_555
O12 C15 1_555 1_555
N1 H1 1_555 1_555
H2 N1 1_555 1_555
N2 C18 1_555 1_555
N3 C15 1_555 1_555
C1 C2 1_555 1_555
C2 H3 1_555 1_555
C3 C2 1_555 1_555
H4 C3 1_555 1_555
C4 O1 1_555 1_555
C5 O3 1_555 1_555
C6 C1 1_555 1_555
C7 C10 1_555 1_555
C8 O6 1_555 1_555
C9 C8 1_555 1_555
H5 C9 1_555 1_555
C10 C9 1_555 1_555
H6 C10 1_555 1_555
C11 O7 1_555 1_555
C12 C8 1_555 1_555
C13 N1 1_555 1_555
H7 C13 1_555 1_555
H8 C13 1_555 1_555
H9 C13 1_555 1_555
C14 N1 1_555 1_555
H10 C14 1_555 1_555
H11 C14 1_555 1_555
H12 C14 1_555 1_555
C15 H13 1_555 1_555
C16 N3 1_555 1_555
H14 C16 1_555 1_555
H15 C16 1_555 1_555
H16 C16 1_555 1_555
C17 N3 1_555 1_555
H17 C17 1_555 1_555
H18 C17 1_555 1_555
H19 C17 1_555 1_555
C18 H20 1_555 1_555
H21 C18 1_555 1_555
H22 C18 1_555 1_555
C19 N2 1_555 1_555
H23 C19 1_555 1_555
H24 C19 1_555 1_555
H25 C19 1_555 1_555
C20 N2 1_555 1_555
H26 C20 1_555 1_555
Co1_2 O5 1_555 1_555
Co1_3 O5B 1_555 1_555
Co2B O8 1_555 1_555
Co2_2 O4 1_555 1_555
Co2A O9 1_555 1_555
Co2B_2 O4B 1_555 1_555
Co2C O9B 1_555 1_555
O1B C1B 1_555 1_555
O2B Co2B 1_555 1_555
O3B Co1 1_555 1_555
O4B C6B 1_555 1_555
O4_2 Co2 1_555 1_555
O4B_2 Co2B 1_555 1_555
O5B C6B 1_555 1_555
O5_2 Co1 1_555 1_555
O5B_2 Co1 1_555 1_555
O6B C7B 1_555 1_555
O7B Co1 1_555 1_555
O8B Co2 1_555 1_555
O9B C12B 1_555 1_555
O9A Co2 1_555 1_555
O9C Co2B 1_555 1_555
O10B Co2C 1_555 1_555
O10A Co2 1_555 1_555
O10C Co2B 1_555 1_555
C1B C2B 1_555 1_555
C2B H3B 1_555 1_555
C3B C2B 1_555 1_555
H4B C3B 1_555 1_555
C4B O1B 1_555 1_555
C5B O2B 1_555 1_555
C6B C1B 1_555 1_555
C7B C10B 1_555 1_555
C8B O6B 1_555 1_555
C9B C8B 1_555 1_555
H5B C9B 1_555 1_555
C10B C9B 1_555 1_555
H6B C10B 1_555 1_555
C11B O7B 1_555 1_555
C12B O10B 1_555 1_555
O10 Co2A 1_555 1_555
C3 C4 1_555 1_555
C4 C5 1_555 1_555
C7 C11 1_555 1_555
Co2B O3B 1_555 1_555
O3B C5B 1_555 1_555
O8B C11B 1_555 1_555
C3B C4B 1_555 1_555
C4B C5B 1_555 1_555
C7B C11B 1_555 1_555
C8B C12B 1_555 1_555

#END
