
#######################################################################
#
#                 Cambridge Crystallographic Data Centre
#                                CCDC 
#
#######################################################################
#
# If this CIF has been generated from an entry in the Cambridge 
# Structural Database, then it will include bibliographic, chemical, 
# crystal, experimental, refinement or atomic coordinate data resulting 
# from the CCDC's data processing and validation procedures.
#
#######################################################################

data_KEFWOJ
_symmetry_cell_setting           triclinic
_symmetry_space_group_name_H-M   'P -1'
_symmetry_Int_Tables_number      2
_space_group_name_Hall           '-P 1'
loop_
_symmetry_equiv_pos_site_id
_symmetry_equiv_pos_as_xyz
1 x,y,z
2 -x,-y,-z
_cell_length_a                   9.2134(15)
_cell_length_b                   10.1780(8)
_cell_length_c                   11.5556(8)
_cell_angle_alpha                74.073(7)
_cell_angle_beta                 79.441(10)
_cell_angle_gamma                83.594(10)
_cell_volume                     1022.22
loop_
_atom_site_label
_atom_site_type_symbol
_atom_site_fract_x
_atom_site_fract_y
_atom_site_fract_z
Dy1 Dy 0.90201(5) -0.09611(4) 0.36414(4)
Co1 Co 1.0000 0.0000 0.0000
O1 O 0.1674(7) -0.0626(6) 0.3305(5)
O2 O 0.0572(6) 0.0195(5) 0.1683(5)
O3 O 0.4363(7) 0.0144(6) 0.1972(5)
O4 O 0.7208(8) -0.0235(7) 0.2427(6)
O5 O 0.7973(7) 0.0849(6) 0.0477(6)
O6 O 0.9373(7) 0.7964(6) 0.0830(5)
O7 O 0.9960(7) 0.7333(6) 0.2721(5)
O8 O 0.9140(8) 0.1170(6) 0.3821(5)
O9 O 1.0207(7) 0.2473(6) 0.4650(6)
O10 O 0.9616(7) 0.4728(5) 0.2938(5)
O11 O 0.7071(7) -0.0494(6) 0.5217(5)
O12 O 0.7228(8) -0.2700(7) 0.4326(6)
H1 H 0.7120 -0.3487 0.4316
H2 H 0.7371 -0.0117 0.5694
C1 C 0.1742(3) 0.0033(2) 0.2169(2)
C2 C 0.3075(3) 0.0593(2) 0.1491(2)
C3 C 0.3384(3) 0.1553(2) 0.0411(2)
H3 H 0.2713 0.2032 -0.0090
C4 C 0.4927(3) 0.1675(2) 0.0205(2)
H4 H 0.5470 0.2247 -0.0466
C5 C 0.5467(3) 0.0806(2) 0.1161(2)
C6 C 0.6997(3) 0.0443(2) 0.1379(2)
C7 C 0.9570(3) 0.7100(2) 0.1801(2)
C8 C 0.9565(3) 0.2289(2) 0.3855(2)
C9 C 0.9276(3) 0.3482(2) 0.2859(2)
C10 C 0.8744(3) 0.3658(2) 0.1788(2)
H5 H 0.8430 0.2979 0.1511
C11 C 0.8763(3) 0.5046(2) 0.1196(2)
H6 H 0.8462 0.5467 0.0448
C12 C 0.9293(3) 0.5663(2) 0.1897(2)
C13 C 0.6086(3) -0.1523(2) 0.5879(2)
H7 H 0.5164 -0.1120 0.6229
H8 H 0.6526 -0.2168 0.6529
C14 C 0.5833(3) -0.2212(2) 0.4958(2)
H9 H 0.5229 -0.2982 0.5359
H10 H 0.5296 -0.1575 0.4366
Dy1A Dy 0.09799(5) 0.09611(4) -0.36414(4)
Dy1_2 Dy -0.09799(5) -0.09611(4) -0.63586(4)
Dy1_3 Dy -0.09799(5) -0.09611(4) 0.36414(4)
Dy1_4 Dy 0.90201(5) 0.90389(4) 0.36414(4)
Dy1A_2 Dy 0.09799(5) -0.90389(4) -0.36414(4)
Dy1A_3 Dy 1.09799(5) 0.09611(4) -0.36414(4)
Dy1A_4 Dy 1.09799(5) 0.09611(4) 0.63586(4)
Co1_2 Co 0.0000 -1.0000 0.0000
Co1_3 Co 0.0000 0.0000 0.0000
Co1_4 Co 1.0000 1.0000 0.0000
O1A O 0.8326(7) 0.0626(6) -0.3305(5)
O1_2 O 1.1674(7) -0.0626(6) 0.3305(5)
O1A_2 O -0.1674(7) 0.0626(6) -0.3305(5)
O2A O 0.9428(6) -0.0195(5) -0.1683(5)
O2_2 O 1.0572(6) 0.0195(5) 0.1683(5)
O2A_2 O -0.0572(6) -0.0195(5) -0.1683(5)
O3A O 0.5637(7) -0.0144(6) -0.1972(5)
O4A O 0.2792(8) 0.0235(7) -0.2427(6)
O5A O 0.2027(7) -0.0849(6) -0.0477(6)
O5A_2 O 1.2027(7) -0.0849(6) -0.0477(6)
O6A O 0.0627(7) -0.7964(6) -0.0830(5)
O6_2 O 0.9373(7) -0.2036(6) 0.0830(5)
O6A_2 O 1.0627(7) 0.2036(6) -0.0830(5)
O7A O 0.0040(7) -0.7333(6) -0.2721(5)
O7_2 O 0.9960(7) -0.2667(6) 0.2721(5)
O7A_2 O 0.0040(7) 0.2667(6) -0.2721(5)
O8A O 0.0860(8) -0.1170(6) -0.3821(5)
O9A O -0.0207(7) -0.2473(6) -0.4650(6)
O9_2 O 0.0207(7) 0.2473(6) -0.5350(6)
O9A_2 O 0.9793(7) -0.2473(6) 0.5350(6)
O10A O 0.0384(7) -0.4728(5) -0.2938(5)
O11A O 0.2929(7) 0.0494(6) -0.5217(5)
O12A O 0.2772(8) 0.2700(7) -0.4326(6)
H1A H 0.2880 0.3487 -0.4316
H2A H 0.2629 0.0117 -0.5694
C1A C 0.8258(3) -0.0033(2) -0.2169(2)
C1_2 C 1.1742(3) 0.0033(2) 0.2169(2)
C1A_2 C -0.1742(3) -0.0033(2) -0.2169(2)
C2A C 0.6925(3) -0.0593(2) -0.1491(2)
C3A C 0.6616(3) -0.1553(2) -0.0411(2)
H3A H 0.7287 -0.2032 0.0090
C4A C 0.5073(3) -0.1675(2) -0.0205(2)
H4A H 0.4530 -0.2247 0.0466
C5A C 0.4533(3) -0.0806(2) -0.1161(2)
C6A C 0.3003(3) -0.0443(2) -0.1379(2)
C7A C 0.0430(3) -0.7100(2) -0.1801(2)
C8A C 0.0435(3) -0.2289(2) -0.3855(2)
C9A C 0.0724(3) -0.3482(2) -0.2859(2)
C10A C 0.1256(3) -0.3658(2) -0.1788(2)
H5A H 0.1570 -0.2979 -0.1511
C11A C 0.1237(3) -0.5046(2) -0.1196(2)
H6A H 0.1538 -0.5467 -0.0448
C12A C 0.0707(3) -0.5663(2) -0.1897(2)
C13A C 0.3914(3) 0.1523(2) -0.5879(2)
H7A H 0.4836 0.1120 -0.6229
H8A H 0.3474 0.2168 -0.6529
C14A C 0.4167(3) 0.2212(2) -0.4958(2)
H9A H 0.4771 0.2982 -0.5359
H10A H 0.4704 0.1575 -0.4366
O13 O 0.2068(3) 0.5139(2) 0.4163(2)
H11 H 0.2769 0.4534 0.4089
H12 H 0.2382 0.5931 0.3828
loop_
_geom_bond_atom_site_label_1
_geom_bond_atom_site_label_2
_geom_bond_site_symmetry_1
_geom_bond_site_symmetry_2
Dy1 O4 1_555 1_555
Co1 O5 1_555 1_555
O1 C1 1_555 1_555
O2 C1 1_555 1_555
O3 C2 1_555 1_555
O4 C6 1_555 1_555
O5 C6 1_555 1_555
O6 C7 1_555 1_555
O7 C7 1_555 1_555
O8 Dy1 1_555 1_555
O9 C8 1_555 1_555
O10 C9 1_555 1_555
O11 Dy1 1_555 1_555
O12 Dy1 1_555 1_555
O13 H11 1_555 1_555
H1 O12 1_555 1_555
H2 O11 1_555 1_555
C1 C2 1_555 1_555
C2 C3 1_555 1_555
C3 H3 1_555 1_555
C4 C3 1_555 1_555
H4 C4 1_555 1_555
C5 O3 1_555 1_555
C6 C5 1_555 1_555
C7 C12 1_555 1_555
C8 O8 1_555 1_555
C9 C8 1_555 1_555
C10 C9 1_555 1_555
H5 C10 1_555 1_555
C11 C10 1_555 1_555
H6 C11 1_555 1_555
C12 O10 1_555 1_555
C13 O11 1_555 1_555
H7 C13 1_555 1_555
H8 C13 1_555 1_555
C14 O12 1_555 1_555
H9 C14 1_555 1_555
H10 C14 1_555 1_555
H12 O13 1_555 1_555
Dy1A O1A_2 1_555 1_555
Dy1_2 O9A 1_555 1_555
Dy1_3 O1 1_555 1_555
Dy1_4 O7 1_555 1_555
Dy1A_2 O7A 1_555 1_555
Dy1A_3 O1A 1_555 1_555
Dy1A_4 O9 1_555 1_555
Co1_2 O6A 1_555 1_555
Co1_3 O2 1_555 1_555
Co1_4 O6 1_555 1_555
O1A C1A 1_555 1_555
O1_2 Dy1 1_555 1_555
O1A_2 C1A_2 1_555 1_555
O2A Co1 1_555 1_555
O2_2 Dy1 1_555 1_555
O2A_2 Dy1A 1_555 1_555
O3A C2A 1_555 1_555
O4A Dy1A 1_555 1_555
O5A Co1_3 1_555 1_555
O5A_2 Co1 1_555 1_555
O6A C7A 1_555 1_555
O6_2 Co1 1_555 1_555
O6A_2 Co1 1_555 1_555
O7A C7A 1_555 1_555
O7_2 Dy1 1_555 1_555
O7A_2 Dy1A 1_555 1_555
O8A Dy1A 1_555 1_555
O9A C8A 1_555 1_555
O9_2 Dy1A 1_555 1_555
O9A_2 Dy1 1_555 1_555
O10A C9A 1_555 1_555
O11A Dy1A 1_555 1_555
O12A Dy1A 1_555 1_555
H1A O12A 1_555 1_555
H2A O11A 1_555 1_555
C1A O2A 1_555 1_555
C1_2 O1_2 1_555 1_555
C1A_2 O2A_2 1_555 1_555
C2A C1A 1_555 1_555
C3A C2A 1_555 1_555
H3A C3A 1_555 1_555
C4A C3A 1_555 1_555
H4A C4A 1_555 1_555
C5A O3A 1_555 1_555
C6A O4A 1_555 1_555
C7A C12A 1_555 1_555
C8A O8A 1_555 1_555
C9A C8A 1_555 1_555
C10A C9A 1_555 1_555
H5A C10A 1_555 1_555
C11A C10A 1_555 1_555
H6A C11A 1_555 1_555
C12A O10A 1_555 1_555
C13A O11A 1_555 1_555
H7A C13A 1_555 1_555
H8A C13A 1_555 1_555
C14A O12A 1_555 1_555
H9A C14A 1_555 1_555
H10A C14A 1_555 1_555
Co1 O2_2 1_555 1_555
O2 Dy1_3 1_555 1_555
C4 C5 1_555 1_555
C11 C12 1_555 1_555
C13 C14 1_555 1_555
Dy1A_3 O2A 1_555 1_555
Co1_3 O2A_2 1_555 1_555
O2_2 C1_2 1_555 1_555
O5A C6A 1_555 1_555
C4A C5A 1_555 1_555
C5A C6A 1_555 1_555
C11A C12A 1_555 1_555
C13A C14A 1_555 1_555

#END
