
#######################################################################
#
#                 Cambridge Crystallographic Data Centre
#                                CCDC 
#
#######################################################################
#
# If this CIF has been generated from an entry in the Cambridge 
# Structural Database, then it will include bibliographic, chemical, 
# crystal, experimental, refinement or atomic coordinate data resulting 
# from the CCDC's data processing and validation procedures.
#
#######################################################################

data_KEFXOK
_symmetry_cell_setting           monoclinic
_symmetry_space_group_name_H-M   'C 2/c'
_symmetry_Int_Tables_number      15
_space_group_name_Hall           '-C 2yn'
loop_
_symmetry_equiv_pos_site_id
_symmetry_equiv_pos_as_xyz
1 x,y,z
2 -x,y,1/2-z
3 1/2+x,1/2+y,z
4 1/2-x,1/2+y,1/2-z
5 -x,-y,-z
6 x,-y,1/2+z
7 1/2-x,1/2-y,-z
8 1/2+x,1/2-y,1/2+z
_cell_length_a                   42.542(5)
_cell_length_b                   13.6415(15)
_cell_length_c                   15.2419(16)
_cell_angle_alpha                90
_cell_angle_beta                 99.301(2)
_cell_angle_gamma                90
_cell_volume                     8729.14
loop_
_atom_site_label
_atom_site_type_symbol
_atom_site_fract_x
_atom_site_fract_y
_atom_site_fract_z
Cd1 Cd 0.032470(10) 0.24529(3) 0.35258(3)
Cd2 Cd 0.218030(10) 0.23383(3) 0.38989(3)
C1 C 0.20953(16) 0.7333(5) 0.3820(5)
H1 H 0.2315 0.7314 0.3855
C2 C 0.19123(14) 0.6481(5) 0.3741(4)
C3 C 0.15858(14) 0.6495(5) 0.3711(4)
H2 H 0.1471 0.5912 0.3668
C4 C 0.14314(14) 0.7386(4) 0.3746(4)
C5 C 0.16059(14) 0.8253(4) 0.3797(4)
H3 H 0.1503 0.8855 0.3798
C6 C 0.19328(14) 0.8213(4) 0.3845(4)
C7 C 0.10756(14) 0.7417(4) 0.3685(4)
C8 C 0.09061(14) 0.6547(4) 0.3731(4)
H4 H 0.1014 0.5953 0.3820
C9 C 0.05750(13) 0.6570(4) 0.3646(4)
C10 C 0.04130(15) 0.7446(4) 0.3573(4)
H5 H 0.0192 0.7459 0.3527
C11 C 0.05829(13) 0.8305(4) 0.3570(4)
C12 C 0.09113(14) 0.8307(4) 0.3614(4)
H6 H 0.1021 0.8894 0.3596
C13 C 0.1353(3) 0.4651(9) 0.6616(7)
H7 H 0.1379 0.5325 0.6688
C14 C 0.1610(3) 0.4049(10) 0.6579(7)
H8 H 0.1812 0.4327 0.6631
C15 C 0.15817(18) 0.3100(8) 0.6473(5)
C16 C 0.12907(19) 0.2677(7) 0.6424(5)
H9 H 0.1274 0.1998 0.6393
C17 C 0.1018(2) 0.3230(9) 0.6419(5)
C18 C 0.1062(3) 0.4234(11) 0.6544(7)
H10 H 0.0886 0.4628 0.6579
C19 C -0.1090(3) 0.0269(9) 0.4377(6)
H11 H -0.1046 -0.0381 0.4538
C20 C -0.1409(2) 0.0625(9) 0.4222(6)
H12 H -0.1577 0.0197 0.4252
C21 C -0.14704(18) 0.1601(8) 0.4026(5)
C22 C -0.12150(19) 0.2214(7) 0.3993(5)
H13 H -0.1251 0.2880 0.3892
C23 C -0.09075(17) 0.1859(7) 0.4105(5)
C24 C -0.0849(2) 0.0905(8) 0.4284(5)
H14 H -0.0641 0.0674 0.4347
C25 C 0.19778(15) 0.4663(5) 0.3875(5)
H15 H 0.1794 0.4536 0.4112
C26 C 0.24092(17) 0.4465(5) 0.3340(6)
H16 H 0.2581 0.4167 0.3138
C27 C 0.23495(16) 0.5446(5) 0.3320(6)
H17 H 0.2471 0.5935 0.3114
C28 C 0.04939(16) 0.4761(5) 0.3483(5)
H18 H 0.0690 0.4615 0.3317
C29 C 0.00300(19) 0.4625(6) 0.3831(7)
H19 H -0.0160 0.4354 0.3942
C30 C 0.01081(18) 0.5585(6) 0.3906(7)
H20 H -0.0016 0.6085 0.4085
C31 C 0.1874(2) 0.2506(9) 0.6456(6)
H21 H 0.1831 0.1839 0.6622
H22 H 0.2041 0.2760 0.6906
C32 C 0.19954(18) 0.2477(7) 0.5594(6)
C33 C 0.0686(2) 0.2758(10) 0.6287(6)
H23 H 0.0703 0.2131 0.6591
H24 H 0.0547 0.3170 0.6574
C34 C 0.05332(19) 0.2596(8) 0.5359(5)
C35 C 0.01193(17) 0.9320(6) 0.3837(6)
H25 H -0.0013 0.8827 0.3990
C36 C 0.00628(17) 1.0289(6) 0.3814(6)
H26 H -0.0119 1.0579 0.3962
C37 C 0.05188(15) 1.0123(5) 0.3412(5)
H27 H 0.0712 1.0261 0.3227
C38 C -0.18092(19) 0.1954(9) 0.3871(6)
H28 H -0.1819 0.2566 0.4189
H29 H -0.1939 0.1480 0.4126
C39 C -0.19528(17) 0.2112(7) 0.2914(5)
C40 C -0.0629(2) 0.2529(8) 0.4035(6)
H30 H -0.0691 0.3196 0.4145
H31 H -0.0454 0.2354 0.4498
C41 C -0.05132(17) 0.2496(6) 0.3150(5)
C42 C 0.20105(17) 1.0013(5) 0.3871(6)
H32 H 0.1796 1.0181 0.3759
C43 C 0.25111(18) 1.0156(6) 0.4138(7)
H33 H 0.2714 1.0427 0.4244
C44 C 0.24437(17) 0.9172(6) 0.4098(7)
H34 H 0.2589 0.8657 0.4177
N1 N 0.20716(12) 0.5570(4) 0.3666(4)
N2 N 0.21782(13) 0.3984(4) 0.3700(4)
N3 N 0.04009(12) 0.5687(4) 0.3672(4)
N4 N 0.02772(14) 0.4109(4) 0.3563(4)
N5 N 0.04167(12) 0.9209(4) 0.3582(4)
N6 N 0.03052(13) 1.0791(4) 0.3547(4)
N7 N 0.21177(12) 0.9104(4) 0.3918(4)
N8 N 0.22459(14) 1.0652(4) 0.4003(4)
O1 O 0.22745(12) 0.2546(4) 0.5568(4)
O2 O 0.18106(16) 0.2415(7) 0.4888(4)
O3 O 0.07058(13) 0.2574(6) 0.4757(4)
O4 O 0.02393(13) 0.2502(4) 0.5193(4)
O5 O -0.02323(12) 0.2406(4) 0.3119(4)
O6 O -0.07107(15) 0.2552(6) 0.2439(4)
O7 O -0.17786(11) 0.2055(5) 0.2308(3)
O8 O -0.22460(12) 0.2257(4) 0.2728(4)
Cd1_2 Cd 0.032470(10) 1.24529(3) 0.35258(3)
Cd1A Cd -0.032470(10) 0.24529(3) 0.14742(3)
Cd2_2 Cd 0.218030(10) 1.23383(3) 0.38989(3)
Cd2F Cd 0.281970(10) 0.26617(3) 0.61011(3)
Cd2A Cd -0.218030(10) 0.23383(3) 0.11011(3)
N6_2 N 0.03052(13) 0.0791(4) 0.3547(4)
N8_2 N 0.22459(14) 0.0652(4) 0.4003(4)
O1F O 0.27255(12) 0.2454(4) 0.4432(4)
O5A O 0.02323(12) 0.2406(4) 0.1881(4)
O6A O 0.07107(15) 0.2552(6) 0.2561(4)
O7A O 0.17786(11) 0.2055(5) 0.2692(3)
O8A O 0.22460(12) 0.2257(4) 0.2272(4)
O9 O 0.12524(15) 0.4406(5) 0.4383(5)
O10 O 0.37136(15) 0.8374(6) 0.2098(4)
O11 O 0.37497(13) 0.5428(5) 0.1988(4)
O12 O 0.37619(15) 0.6594(6) 0.0585(5)
loop_
_geom_bond_atom_site_label_1
_geom_bond_atom_site_label_2
_geom_bond_site_symmetry_1
_geom_bond_site_symmetry_2
Cd1 N4 1_555 1_555
Cd2 N2 1_555 1_555
C1 H1 1_555 1_555
C2 C1 1_555 1_555
C3 C2 1_555 1_555
H2 C3 1_555 1_555
C4 C3 1_555 1_555
C5 C4 1_555 1_555
H3 C5 1_555 1_555
C6 C1 1_555 1_555
C7 C4 1_555 1_555
C8 C7 1_555 1_555
H4 C8 1_555 1_555
C9 C8 1_555 1_555
C10 C9 1_555 1_555
H5 C10 1_555 1_555
C11 C10 1_555 1_555
C12 C7 1_555 1_555
H6 C12 1_555 1_555
C13 H7 1_555 1_555
C14 C13 1_555 1_555
H8 C14 1_555 1_555
C15 C14 1_555 1_555
C16 C15 1_555 1_555
H9 C16 1_555 1_555
C17 C16 1_555 1_555
C18 C13 1_555 1_555
H10 C18 1_555 1_555
C19 H11 1_555 1_555
C20 C19 1_555 1_555
H12 C20 1_555 1_555
C21 C20 1_555 1_555
C22 C21 1_555 1_555
H13 C22 1_555 1_555
C23 C22 1_555 1_555
C24 C19 1_555 1_555
H14 C24 1_555 1_555
C25 H15 1_555 1_555
C26 H16 1_555 1_555
C27 C26 1_555 1_555
H17 C27 1_555 1_555
C28 H18 1_555 1_555
C29 H19 1_555 1_555
C30 C29 1_555 1_555
H20 C30 1_555 1_555
C31 C15 1_555 1_555
H21 C31 1_555 1_555
H22 C31 1_555 1_555
C32 C31 1_555 1_555
C33 C17 1_555 1_555
H23 C33 1_555 1_555
H24 C33 1_555 1_555
C34 C33 1_555 1_555
C35 H25 1_555 1_555
C36 C35 1_555 1_555
H26 C36 1_555 1_555
C37 H27 1_555 1_555
C38 C21 1_555 1_555
H28 C38 1_555 1_555
H29 C38 1_555 1_555
C39 C38 1_555 1_555
C40 C23 1_555 1_555
H30 C40 1_555 1_555
H31 C40 1_555 1_555
C41 C40 1_555 1_555
C42 H32 1_555 1_555
C43 H33 1_555 1_555
C44 C43 1_555 1_555
H34 C44 1_555 1_555
N1 C2 1_555 1_555
N2 C25 1_555 1_555
N3 C9 1_555 1_555
N4 C28 1_555 1_555
N5 C11 1_555 1_555
N6 C36 1_555 1_555
N7 C6 1_555 1_555
N8 C42 1_555 1_555
O1 Cd2 1_555 1_555
O2 Cd2 1_555 1_555
O3 Cd1 1_555 1_555
O4 Cd1 1_555 1_555
O5 Cd1 1_555 1_555
O6 C41 1_555 1_555
O7 C39 1_555 1_555
O8 C39 1_555 1_555
Cd1_2 N6 1_555 1_555
Cd1A O5 1_555 1_555
Cd2_2 N8 1_555 1_555
Cd2F O1 1_555 1_555
Cd2A O7 1_555 1_555
N6_2 Cd1 1_555 1_555
N8_2 Cd2 1_555 1_555
O1F Cd2 1_555 1_555
O5A Cd1 1_555 1_555
O6A Cd1 1_555 1_555
O7A Cd2 1_555 1_555
O8A Cd2 1_555 1_555
C5 C6 1_555 1_555
C11 C12 1_555 1_555
C17 C18 1_555 1_555
C23 C24 1_555 1_555
C25 N1 1_555 1_555
C26 N2 1_555 1_555
C27 N1 1_555 1_555
C28 N3 1_555 1_555
C29 N4 1_555 1_555
C30 N3 1_555 1_555
C32 O1 1_555 1_555
C32 O2 1_555 1_555
C34 O3 1_555 1_555
C34 O4 1_555 1_555
C35 N5 1_555 1_555
C37 N5 1_555 1_555
C37 N6 1_555 1_555
C41 O5 1_555 1_555
C42 N7 1_555 1_555
C43 N8 1_555 1_555
C44 N7 1_555 1_555
O6 Cd1A 1_555 1_555
O8 Cd2A 1_555 1_555
Cd1A O5A 1_555 1_555
Cd2F O1F 1_555 1_555

#END
