
#######################################################################
#
#                 Cambridge Crystallographic Data Centre
#                                CCDC 
#
#######################################################################
#
# If this CIF has been generated from an entry in the Cambridge 
# Structural Database, then it will include bibliographic, chemical, 
# crystal, experimental, refinement or atomic coordinate data resulting 
# from the CCDC's data processing and validation procedures.
#
#######################################################################

data_KEFXUQ
_symmetry_cell_setting           monoclinic
_symmetry_space_group_name_H-M   'P 21/c'
_symmetry_Int_Tables_number      14
_space_group_name_Hall           '-P 2ybc'
loop_
_symmetry_equiv_pos_site_id
_symmetry_equiv_pos_as_xyz
1 x,y,z
2 -x,1/2+y,1/2-z
3 -x,-y,-z
4 x,1/2-y,1/2+z
_cell_length_a                   6.761(5)
_cell_length_b                   16.856(5)
_cell_length_c                   18.782(5)
_cell_angle_alpha                90
_cell_angle_beta                 95.091(5)
_cell_angle_gamma                90
_cell_volume                     2132.02
loop_
_atom_site_label
_atom_site_type_symbol
_atom_site_fract_x
_atom_site_fract_y
_atom_site_fract_z
Zn1 Zn 1.04197(4) 0.208986(15) 0.692151(13)
C1 C 0.0846(3) -0.00430(13) 0.52861(11)
C2 C 0.2434(4) 0.04839(13) 0.53253(12)
H1 H 0.2419 0.0910 0.5011
C3 C 0.4043(3) 0.03793(13) 0.58308(12)
C4 C 0.4103(4) -0.02463(14) 0.63123(11)
H2 H 0.5194 -0.0325 0.6642
C5 C 0.2485(4) -0.07487(14) 0.62843(11)
C6 C 0.0870(3) -0.06563(14) 0.57780(11)
H3 H -0.0195 -0.1007 0.5770
C7 C 1.7146(5) 0.13284(18) 0.95178(17)
H4 H 1.8446 0.1514 0.9547
C8 C 1.6270(5) 0.10349(17) 0.88714(15)
H5 H 1.6973 0.1036 0.8468
C9 C 1.4371(4) 0.07458(15) 0.88323(12)
C10 C 1.3336(4) 0.07738(15) 0.94350(13)
H6 H 1.2039 0.0586 0.9410
C11 C 1.4193(5) 0.10754(16) 1.00733(14)
C12 C 1.6104(5) 0.13448(18) 1.01081(16)
H7 H 1.6700 0.1541 1.0537
C13 C 0.7136(4) 0.10062(14) 0.63883(12)
H8 H 0.7198 0.0724 0.6815
C14 C 0.7815(4) 0.18045(15) 0.55524(12)
H9 H 0.8463 0.2184 0.5298
C15 C 0.6134(4) 0.14347(15) 0.53166(12)
H10 H 0.5406 0.1509 0.4878
C16 C 0.0918(4) -0.17902(17) 0.69833(13)
H11 H -0.0387 -0.1688 0.6808
C17 C 0.3464(4) -0.22969(17) 0.75682(16)
H12 H 0.4250 -0.2619 0.7881
C18 C 0.4152(4) -0.17269(18) 0.71521(16)
H13 H 0.5471 -0.1584 0.7125
C19 C 1.3431(5) 0.03760(16) 0.81421(14)
H14 H 1.4470 0.0241 0.7839
H15 H 1.2763 -0.0111 0.8256
C20 C 1.1959(4) 0.09189(15) 0.77368(13)
C21 C 1.3036(6) 0.10971(18) 1.07351(15)
H16 H 1.1932 0.0730 1.0664
H17 H 1.3897 0.0909 1.1141
C22 C 1.2232(4) 0.19017(16) 1.09198(14)
N1 N 0.5690(3) 0.09211(11) 0.58512(9)
N2 N 0.8442(3) 0.15381(11) 0.62302(10)
N3 N 0.2516(3) -0.13996(12) 0.67767(10)
N4 N 0.1445(3) -0.23322(13) 0.74633(11)
O1 O 1.2638(3) 0.15248(11) 0.74351(11)
O2 O 1.0152(3) 0.07748(13) 0.76983(11)
O3 O 1.2119(3) 0.24532(12) 1.04918(11)
O4 O 1.1615(3) 0.19405(10) 1.15467(9)
Zn1B Zn -1.04197(4) -0.208986(15) 0.307849(13)
Zn1A Zn -1.04197(4) -0.291014(15) -0.192151(13)
Zn1A_2 Zn -0.04197(4) -0.291014(15) 0.807849(13)
Zn1C Zn 0.04197(4) 0.291014(15) 0.192151(13)
Zn1C_2 Zn 1.04197(4) 0.291014(15) 1.192151(13)
C1B C -0.0846(3) 0.00430(13) 0.47139(11)
C2B C -0.2434(4) -0.04839(13) 0.46747(12)
H1B H -0.2419 -0.0910 0.4989
C3B C -0.4043(3) -0.03793(13) 0.41692(12)
C4B C -0.4103(4) 0.02463(14) 0.36877(11)
H2B H -0.5194 0.0325 0.3358
C5B C -0.2485(4) 0.07487(14) 0.37157(11)
C6B C -0.0870(3) 0.06563(14) 0.42220(11)
H3B H 0.0195 0.1007 0.4230
C7B C -1.7146(5) -0.13284(18) 0.04822(17)
H4B H -1.8446 -0.1514 0.0453
C8B C -1.6270(5) -0.10349(17) 0.11286(15)
H5B H -1.6973 -0.1036 0.1532
C9B C -1.4371(4) -0.07458(15) 0.11677(12)
C10B C -1.3336(4) -0.07738(15) 0.05650(13)
H6B H -1.2039 -0.0586 0.0590
C11B C -1.4193(5) -0.10754(16) -0.00733(14)
C12B C -1.6104(5) -0.13448(18) -0.01081(16)
H7B H -1.6700 -0.1541 -0.0537
C13B C -0.7136(4) -0.10062(14) 0.36117(12)
H8B H -0.7198 -0.0724 0.3185
C14B C -0.7815(4) -0.18045(15) 0.44476(12)
H9B H -0.8463 -0.2184 0.4702
C15B C -0.6134(4) -0.14347(15) 0.46834(12)
H10B H -0.5406 -0.1509 0.5122
C16B C -0.0918(4) 0.17902(17) 0.30167(13)
H11B H 0.0387 0.1688 0.3192
C17B C -0.3464(4) 0.22969(17) 0.24318(16)
H12B H -0.4250 0.2619 0.2119
C18B C -0.4152(4) 0.17269(18) 0.28479(16)
H13B H -0.5471 0.1584 0.2875
C19B C -1.3431(5) -0.03760(16) 0.18579(14)
H14B H -1.4470 -0.0241 0.2161
H15B H -1.2763 0.0111 0.1744
C20B C -1.1959(4) -0.09189(15) 0.22632(13)
C21B C -1.3036(6) -0.10971(18) -0.07351(15)
H16B H -1.1932 -0.0730 -0.0664
H17B H -1.3897 -0.0909 -0.1141
C22B C -1.2232(4) -0.19017(16) -0.09198(14)
N1B N -0.5690(3) -0.09211(11) 0.41488(9)
N2B N -0.8442(3) -0.15381(11) 0.37698(10)
N3B N -0.2516(3) 0.13996(12) 0.32233(10)
N4B N -0.1445(3) 0.23322(13) 0.25367(11)
N4A N 0.8555(3) 0.26678(13) 0.75367(11)
N4C N -0.8555(3) -0.26678(13) 0.24633(11)
O1B O -1.2638(3) -0.15248(11) 0.25649(11)
O2B O -1.0152(3) -0.07748(13) 0.23017(11)
O3B O -1.2119(3) -0.24532(12) -0.04918(11)
O4B O -1.1615(3) -0.19405(10) -0.15467(9)
O4A O -1.1615(3) -0.30595(10) 0.34533(9)
O4C O 1.1615(3) 0.30595(10) 0.65467(9)
O5 O 0.7918(3) 0.94368(12) 0.75552(10)
O6 O 0.2836(4) 0.27893(13) 0.91040(12)
loop_
_geom_bond_atom_site_label_1
_geom_bond_atom_site_label_2
_geom_bond_site_symmetry_1
_geom_bond_site_symmetry_2
Zn1 N2 1_555 1_555
C1 C2 1_555 1_555
C2 H1 1_555 1_555
C3 C2 1_555 1_555
C4 C3 1_555 1_555
H2 C4 1_555 1_555
C5 C4 1_555 1_555
C6 C1 1_555 1_555
H3 C6 1_555 1_555
C7 H4 1_555 1_555
C8 C7 1_555 1_555
H5 C8 1_555 1_555
C9 C8 1_555 1_555
C10 C9 1_555 1_555
H6 C10 1_555 1_555
C11 C10 1_555 1_555
C12 C7 1_555 1_555
H7 C12 1_555 1_555
C13 H8 1_555 1_555
C14 H9 1_555 1_555
C15 C14 1_555 1_555
H10 C15 1_555 1_555
C16 H11 1_555 1_555
C17 H12 1_555 1_555
C18 C17 1_555 1_555
H13 C18 1_555 1_555
C19 C9 1_555 1_555
H14 C19 1_555 1_555
H15 C19 1_555 1_555
C20 C19 1_555 1_555
C21 C11 1_555 1_555
H16 C21 1_555 1_555
H17 C21 1_555 1_555
C22 C21 1_555 1_555
N1 C3 1_555 1_555
N2 C13 1_555 1_555
N3 C5 1_555 1_555
N4 C16 1_555 1_555
O1 Zn1 1_555 1_555
O2 C20 1_555 1_555
O3 C22 1_555 1_555
O4 C22 1_555 1_555
Zn1B N2B 1_555 1_555
Zn1A O4B 1_555 1_555
Zn1A_2 N4 1_555 1_555
Zn1C N4B 1_555 1_555
Zn1C_2 O4 1_555 1_555
C1B C1 1_555 1_555
C2B C1B 1_555 1_555
H1B C2B 1_555 1_555
C3B C2B 1_555 1_555
C4B C3B 1_555 1_555
H2B C4B 1_555 1_555
C5B C4B 1_555 1_555
C6B C1B 1_555 1_555
H3B C6B 1_555 1_555
C7B H4B 1_555 1_555
C8B C7B 1_555 1_555
H5B C8B 1_555 1_555
C9B C8B 1_555 1_555
C10B C9B 1_555 1_555
H6B C10B 1_555 1_555
C11B C10B 1_555 1_555
C12B C7B 1_555 1_555
H7B C12B 1_555 1_555
C13B H8B 1_555 1_555
C14B H9B 1_555 1_555
C15B C14B 1_555 1_555
H10B C15B 1_555 1_555
C16B H11B 1_555 1_555
C17B H12B 1_555 1_555
C18B C17B 1_555 1_555
H13B C18B 1_555 1_555
C19B C9B 1_555 1_555
H14B C19B 1_555 1_555
H15B C19B 1_555 1_555
C20B C19B 1_555 1_555
C21B C11B 1_555 1_555
H16B C21B 1_555 1_555
H17B C21B 1_555 1_555
C22B C21B 1_555 1_555
N1B C3B 1_555 1_555
N2B C13B 1_555 1_555
N3B C5B 1_555 1_555
N4B C16B 1_555 1_555
N4A Zn1 1_555 1_555
N4C Zn1B 1_555 1_555
O1B Zn1B 1_555 1_555
O2B C20B 1_555 1_555
O3B C22B 1_555 1_555
O4B C22B 1_555 1_555
O4A Zn1B 1_555 1_555
O4C Zn1 1_555 1_555
C5 C6 1_555 1_555
C11 C12 1_555 1_555
C13 N1 1_555 1_555
C14 N2 1_555 1_555
C15 N1 1_555 1_555
C16 N3 1_555 1_555
C17 N4 1_555 1_555
C18 N3 1_555 1_555
C20 O1 1_555 1_555
C5B C6B 1_555 1_555
C11B C12B 1_555 1_555
C13B N1B 1_555 1_555
C14B N2B 1_555 1_555
C15B N1B 1_555 1_555
C16B N3B 1_555 1_555
C17B N4B 1_555 1_555
C18B N3B 1_555 1_555
C20B O1B 1_555 1_555

#END
