
#######################################################################
#
#                 Cambridge Crystallographic Data Centre
#                                CCDC 
#
#######################################################################
#
# If this CIF has been generated from an entry in the Cambridge 
# Structural Database, then it will include bibliographic, chemical, 
# crystal, experimental, refinement or atomic coordinate data resulting 
# from the CCDC's data processing and validation procedures.
#
#######################################################################

data_KEFYOL
_symmetry_cell_setting           monoclinic
_symmetry_space_group_name_H-M   'C 2/c'
_symmetry_Int_Tables_number      15
_space_group_name_Hall           '-C 2yn'
loop_
_symmetry_equiv_pos_site_id
_symmetry_equiv_pos_as_xyz
1 x,y,z
2 -x,y,1/2-z
3 1/2+x,1/2+y,z
4 1/2-x,1/2+y,1/2-z
5 -x,-y,-z
6 x,-y,1/2+z
7 1/2-x,1/2-y,-z
8 1/2+x,1/2-y,1/2+z
_cell_length_a                   10.1158(12)
_cell_length_b                   20.723(3)
_cell_length_c                   25.027(3)
_cell_angle_alpha                90
_cell_angle_beta                 92.667(2)
_cell_angle_gamma                90
_cell_volume                     5240.72
loop_
_atom_site_label
_atom_site_type_symbol
_atom_site_fract_x
_atom_site_fract_y
_atom_site_fract_z
N1 N 0.2097(6) 0.3693(3) 0.0015(2)
H1 H 0.1901 0.3624 -0.0326
N2 N 0.3703(5) 0.3875(2) 0.36712(17)
H2 H 0.3810 0.3913 0.4021
C7 C 0.1789(9) 0.3241(4) 0.0372(3)
H3 H 0.1348 0.2858 0.0255
C8 C 0.2107(8) 0.3330(4) 0.0903(3)
H4 H 0.1908 0.3005 0.1155
C9 C 0.2725(7) 0.3898(3) 0.1073(2)
C10 C 0.3008(6) 0.4360(3) 0.0689(2)
H5 H 0.3422 0.4754 0.0795
C11 C 0.2691(6) 0.4247(3) 0.0161(2)
H6 H 0.2892 0.4560 -0.0101
C12 C 0.3029(6) 0.4059(3) 0.1643(2)
H7 H 0.3195 0.4496 0.1739
C13 C 0.3076(6) 0.3620(3) 0.2017(2)
H8 H 0.2934 0.3185 0.1910
C14 C 0.3329(5) 0.3742(3) 0.2590(2)
C15 C 0.3455(6) 0.3206(3) 0.2919(2)
H9 H 0.3414 0.2785 0.2769
C16 C 0.3638(7) 0.3285(3) 0.3457(2)
H10 H 0.3719 0.2917 0.3683
C17 C 0.3614(6) 0.4408(3) 0.3374(2)
H11 H 0.3680 0.4821 0.3539
C18 C 0.3424(6) 0.4358(3) 0.2829(2)
H12 H 0.3358 0.4736 0.2614
O14 O -0.0005(11) 0.3677(4) 0.2776(4)
C19 C -0.0172(16) 0.4472(8) 0.3450(7)
H13 H -0.0559 0.4752 0.3187
C20 C -0.0031(15) 0.4685(8) 0.3966(6)
H14 H -0.0234 0.5119 0.4051
C21 C 0.0407(14) 0.4266(7) 0.4360(6)
C22 C 0.0452(13) 0.4407(7) 0.4915(5)
C23 C 0.0875(14) 0.4011(7) 0.5310(6)
H15 H 0.0857 0.4129 0.5677
C24 C 0.1329(14) 0.3430(7) 0.5148(6)
H16 H 0.1673 0.3145 0.5417
C25 C 0.1331(14) 0.3213(7) 0.4609(6)
H17 H 0.1661 0.2800 0.4517
C26 C 0.0832(15) 0.3633(7) 0.4231(6)
C27 C 0.0646(14) 0.3439(8) 0.3667(6)
H18 H 0.0828 0.3003 0.3577
C28 C 0.0252(11) 0.3824(5) 0.3288(4)
O14A O 0.0005(11) 0.3677(4) 0.2224(4)
O16 O 0.0936(5) 0.6969(2) 0.41445(17)
H25 H 0.0186 0.6779 0.3966
H26 H 0.0727 0.7373 0.4305
Ba1 Ba 0.0000 0.61053(2) 0.2500
Fe1 Fe 0.50928(7) 0.63864(4) 0.38772(3)
O1 O 0.3964(3) 0.69480(17) 0.33848(14)
O2 O 0.2031(4) 0.69342(18) 0.29028(14)
O3 O 0.1446(4) 0.57908(19) 0.34140(15)
O4 O 0.3379(3) 0.58889(17) 0.38767(13)
O5 O 0.5892(4) 0.57903(17) 0.44342(13)
O6 O 0.6270(5) 0.5690(2) 0.53126(15)
O7 O 0.5166(5) 0.6908(2) 0.54148(15)
O8 O 0.4804(4) 0.69183(18) 0.45288(14)
O9 O 0.6804(4) 0.68534(17) 0.37387(14)
O10 O -0.1268(3) 0.67015(17) 0.33465(13)
O11 O 0.5790(3) 0.58008(17) 0.33138(13)
O12 O -0.2434(4) 0.56507(18) 0.28221(14)
C1 C 0.2820(5) 0.6703(2) 0.32398(19)
C2 C 0.2493(5) 0.6070(3) 0.35280(19)
C3 C 0.5876(6) 0.5988(3) 0.4914(2)
C4 C 0.5245(6) 0.6673(3) 0.4971(2)
C5 C -0.2428(5) 0.6555(2) 0.34301(19)
C6 C -0.3063(5) 0.5947(2) 0.31578(19)
O2A O -0.2031(4) 0.69342(18) 0.20972(14)
O3A O -0.1446(4) 0.57908(19) 0.15860(15)
O9_2 O -0.3196(4) 0.68534(17) 0.37387(14)
O10A O 0.1268(3) 0.67015(17) 0.16535(13)
O11_2 O -0.4210(3) 0.58008(17) 0.33138(13)
O12A O 0.2434(4) 0.56507(18) 0.21779(14)
C5_2 C 0.7572(5) 0.6555(2) 0.34301(19)
C6_2 C 0.6937(5) 0.5947(2) 0.31578(19)
O13? O -0.0002(9) 0.4810(5) 0.2171(5)
O15? O -0.012(2) 0.5054(12) 0.4995(11)
C29? C 0.006(3) 0.2978(5) 0.2595(8)
H19? H -0.0157 0.2953 0.2209
H20? H -0.0578 0.2721 0.2787
H21? H 0.0954 0.2810 0.2671
C30? C -0.0406(15) 0.5172(7) 0.5573(6)
H22? H -0.0783 0.5604 0.5611
H23? H 0.0418 0.5139 0.5794
H24? H -0.1037 0.4848 0.5690
loop_
_geom_bond_atom_site_label_1
_geom_bond_atom_site_label_2
_geom_bond_site_symmetry_1
_geom_bond_site_symmetry_2
Ba1 O2 1_555 1_555
Fe1 O1 1_555 1_555
O1 C1 1_555 1_555
O2 C1 1_555 1_555
O3 Ba1 1_555 1_555
O4 Fe1 1_555 1_555
O5 Fe1 1_555 1_555
O6 C3 1_555 1_555
O7 C4 1_555 1_555
O8 Fe1 1_555 1_555
O9 Fe1 1_555 1_555
O10 Ba1 1_555 1_555
O11 Fe1 1_555 1_555
O12 Ba1 1_555 1_555
C1 C2 1_555 1_555
C2 O3 1_555 1_555
C3 O5 1_555 1_555
C4 O8 1_555 1_555
C5 O10 1_555 1_555
C6 O12 1_555 1_555
N1 H1 1_555 1_555
N2 H2 1_555 1_555
C7 N1 1_555 1_555
H3 C7 1_555 1_555
C8 C7 1_555 1_555
H4 C8 1_555 1_555
C9 C8 1_555 1_555
C10 C9 1_555 1_555
H5 C10 1_555 1_555
C11 N1 1_555 1_555
H6 C11 1_555 1_555
C12 C9 1_555 1_555
H7 C12 1_555 1_555
C13 C12 1_555 1_555
H8 C13 1_555 1_555
C14 C13 1_555 1_555
C15 C14 1_555 1_555
H9 C15 1_555 1_555
C16 N2 1_555 1_555
H10 C16 1_555 1_555
C17 N2 1_555 1_555
H11 C17 1_555 1_555
C18 C14 1_555 1_555
H12 C18 1_555 1_555
O14 C28 1_555 1_555
C19 H13 1_555 1_555
C20 C19 1_555 1_555
H14 C20 1_555 1_555
C21 C20 1_555 1_555
C22 C21 1_555 1_555
C23 C22 1_555 1_555
H15 C23 1_555 1_555
C24 C23 1_555 1_555
H16 C24 1_555 1_555
C25 C24 1_555 1_555
H17 C25 1_555 1_555
C26 C21 1_555 1_555
C27 C26 1_555 1_555
H18 C27 1_555 1_555
C28 C19 1_555 1_555
O16 H25 1_555 1_555
H26 O16 1_555 1_555
O2A Ba1 1_555 1_555
O3A Ba1 1_555 1_555
O9_2 C5 1_555 1_555
O10A Ba1 1_555 1_555
O11_2 C6 1_555 1_555
O12A Ba1 1_555 1_555
C5_2 O9 1_555 1_555
C6_2 O11 1_555 1_555
O14A O14 1_555 1_555
O4 C2 1_555 1_555
C3 C4 1_555 1_555
C5 C6 1_555 1_555
C10 C11 1_555 1_555
C15 C16 1_555 1_555
C17 C18 1_555 1_555
C25 C26 1_555 1_555
C27 C28 1_555 1_555
C5_2 C6_2 1_555 1_555

#END
