
#######################################################################
#
#                 Cambridge Crystallographic Data Centre
#                                CCDC 
#
#######################################################################
#
# If this CIF has been generated from an entry in the Cambridge 
# Structural Database, then it will include bibliographic, chemical, 
# crystal, experimental, refinement or atomic coordinate data resulting 
# from the CCDC's data processing and validation procedures.
#
#######################################################################

data_KEFYUR
_symmetry_cell_setting           monoclinic
_symmetry_space_group_name_H-M   'P 21/c'
_symmetry_Int_Tables_number      14
_space_group_name_Hall           '-P 2ybc'
loop_
_symmetry_equiv_pos_site_id
_symmetry_equiv_pos_as_xyz
1 x,y,z
2 -x,1/2+y,1/2-z
3 -x,-y,-z
4 x,1/2-y,1/2+z
_cell_length_a                   25.8392(18)
_cell_length_b                   10.6613(7)
_cell_length_c                   20.8311(14)
_cell_angle_alpha                90
_cell_angle_beta                 112.231(2)
_cell_angle_gamma                90
_cell_volume                     5311.97
loop_
_atom_site_label
_atom_site_type_symbol
_atom_site_fract_x
_atom_site_fract_y
_atom_site_fract_z
Ba1 Ba 0.376841(8) -0.093637(18) 0.363926(10)
Fe1 Fe 0.45657(2) 0.40575(4) 0.29294(2)
Fe2 Fe 0.17433(2) -0.22696(4) 0.43858(2)
O1 O 0.48621(10) 0.2583(2) 0.35538(12)
O2 O 0.45781(10) 0.1014(2) 0.40540(12)
O3 O 0.38405(10) 0.3138(2) 0.27570(12)
O4 O 0.34891(9) 0.1584(2) 0.31825(12)
O5 O 0.45792(10) 0.5015(2) 0.37598(12)
O6 O 0.42579(10) 0.6751(2) 0.40644(12)
O7 O 0.40923(10) 0.5518(2) 0.24433(12)
O8 O 0.36563(11) 0.7188(2) 0.26514(13)
O9 O 0.53110(10) 0.4742(2) 0.30306(12)
O10 O 0.58762(10) 0.4929(2) 0.24453(13)
O11 O 0.46040(9) 0.3362(2) 0.20558(12)
O12 O 0.51466(10) 0.3400(2) 0.14324(12)
O13 O 0.23019(10) -0.3127(2) 0.41068(13)
O14 O 0.30733(11) -0.2726(2) 0.38996(14)
O15 O 0.22788(10) -0.0844(2) 0.45492(12)
O16 O 0.29951(10) -0.0254(2) 0.42636(13)
O17 O 0.20421(10) -0.3013(2) 0.53545(12)
O18 O 0.18902(10) -0.2990(2) 0.63424(12)
O19 O 0.12049(10) -0.1499(2) 0.47749(12)
O20 O 0.07959(10) -0.2143(2) 0.54936(12)
O21 O 0.11718(10) -0.3636(2) 0.39669(12)
O22 O 0.02896(10) -0.3810(2) 0.31900(13)
O23 O 0.12762(10) -0.1419(2) 0.34915(12)
O24 O 0.03610(10) -0.1335(2) 0.28396(12)
O25 O 0.42741(13) -0.0654(3) 0.50560(16)
H1 H 0.416(2) -0.087(5) 0.521(3)
H2 H 0.466(2) -0.079(4) 0.529(2)
O26 O 0.26829(13) -0.0896(3) 0.26140(16)
H3 H 0.253(2) -0.009(4) 0.239(2)
H4 H 0.258(2) -0.126(5) 0.223(3)
C1 C 0.44930(14) 0.1882(3) 0.36372(17)
C2 C 0.38834(14) 0.2208(3) 0.31555(17)
C3 C 0.42830(14) 0.6014(3) 0.36260(18)
C4 C 0.39718(15) 0.6285(3) 0.28389(18)
C5 C 0.54582(14) 0.4536(3) 0.25139(17)
C6 C 0.50438(14) 0.3693(3) 0.19365(18)
C7 C 0.26975(15) -0.2409(3) 0.40829(18)
C8 C 0.26653(14) -0.1034(3) 0.43178(17)
C9 C 0.17496(15) -0.2762(3) 0.57216(18)
C10 C 0.11935(15) -0.2079(3) 0.53098(17)
C11 C 0.07280(14) -0.3233(3) 0.34795(18)
C12 C 0.07766(15) -0.1867(3) 0.32444(17)
Ba1_2 Ba 0.376841(8) 0.906363(18) 0.363926(10)
Ba1A Ba 0.623159(8) 0.406363(18) 0.136074(10)
O6_2 O 0.42579(10) -0.3249(2) 0.40644(12)
O8_2 O 0.36563(11) -0.2812(2) 0.26514(13)
O10A O 0.41238(10) -0.0071(2) 0.25547(13)
O12A O 0.48534(10) -0.1600(2) 0.35676(12)
N1 N -0.01684(13) 0.2429(3) 0.35828(15)
H5 H -0.0566(17) 0.247(3) 0.3373(19)
N2 N 0.36038(16) 0.2834(4) 0.62948(18)
H6 H 0.399(2) 0.267(4) 0.658(2)
C13 C 0.00575(16) 0.1317(3) 0.38241(19)
H7 H -0.0171 0.0589 0.3721
C14 C 0.06148(16) 0.1217(3) 0.42174(19)
H8 H 0.0774 0.0418 0.4377
C15 C 0.09502(15) 0.2284(4) 0.43847(18)
C16 C 0.06993(15) 0.3442(3) 0.41253(17)
H9 H 0.0916 0.4188 0.4226
C17 C 0.01385(15) 0.3489(3) 0.37249(17)
H10 H -0.0034 0.4270 0.3548
C18 C 0.33573(19) 0.3950(5) 0.6152(2)
H11 H 0.3567 0.4690 0.6330
C19 C 0.27980(19) 0.4028(5) 0.5745(2)
H12 H 0.2621 0.4824 0.5644
C20 C 0.24919(17) 0.2954(5) 0.5483(2)
C21 C 0.27695(18) 0.1803(5) 0.5639(2)
H13 H 0.2573 0.1047 0.5462
C22 C 0.3334(2) 0.1774(5) 0.6055(2)
H14 H 0.3526 0.0995 0.6167
C23 C 0.15452(16) 0.2142(4) 0.48118(19)
H15 H 0.1687 0.1316 0.4928
C24 C 0.18928(17) 0.3073(4) 0.50430(19)
H16 H 0.1749 0.3896 0.4919
N3 N 0.0724(3) 0.2492(7) 0.2574(4)
H17 H 0.0363 0.2429 0.2329
N4 N 0.44609(15) 0.3458(4) 0.5243(2)
H18 H 0.4821 0.3422 0.5496
C25 C 0.10194(15) 0.1440(4) 0.2783(2)
H19 H 0.0851 0.0634 0.2681
C26 C 0.1569(2) 0.1498(8) 0.3158(3)
H20 H 0.1777 0.0747 0.3313
C27 C 0.1837(2) 0.2655(7) 0.3322(2)
C28 C 0.1513(3) 0.3744(6) 0.3092(3)
H21 H 0.1682 0.4548 0.3196
C29 C 0.0949(3) 0.3636(5) 0.2716(4)
H22 H 0.0723 0.4362 0.2561
C30 C 0.4181(2) 0.2378(5) 0.5063(3)
H23 H 0.4364 0.1596 0.5211
C31 C 0.3633(4) 0.2429(5) 0.4669(4)
H24 H 0.3428 0.1669 0.4542
C32 C 0.3357(3) 0.3559(8) 0.4439(3)
C33 C 0.3663(3) 0.4664(4) 0.4655(3)
H25 H 0.3487 0.5458 0.4523
C34 C 0.4229(2) 0.4585(5) 0.5065(3)
H26 H 0.4448 0.5323 0.5217
C35 C 0.2442(2) 0.2655(4) 0.3753(2)
H27 H 0.2620 0.1860 0.3865
C36 C 0.27566(19) 0.3644(5) 0.3997(2)
H28 H 0.2591 0.4451 0.3884
O27 O 0.02029(10) 0.3720(2) 0.05578(13)
H29 H -0.0109 0.3428 0.0301
O28 O 0.24670(10) 0.1571(2) 0.21774(13)
H30 H 0.2781 0.1862 0.2427
C37 C 0.05749(14) 0.2766(3) 0.08023(17)
C38 C 0.04323(15) 0.1522(3) 0.06820(17)
H31 H 0.0056 0.1294 0.0418
C39 C 0.08417(15) 0.0584(3) 0.09488(18)
H32 H 0.0741 -0.0271 0.0847
C40 C 0.13859(15) 0.0885(3) 0.13541(18)
H33 H 0.1655 0.0240 0.1540
C41 C 0.15429(14) 0.2163(3) 0.14931(17)
C42 C 0.21061(15) 0.2529(3) 0.19016(18)
C43 C 0.22533(15) 0.3763(3) 0.19913(18)
H34 H 0.2630 0.3990 0.2257
C44 C 0.18531(16) 0.4702(3) 0.16943(19)
H35 H 0.1963 0.5558 0.1759
C45 C 0.13079(15) 0.4403(3) 0.13127(18)
H36 H 0.1041 0.5049 0.1121
C46 C 0.11424(14) 0.3132(3) 0.12035(17)
O29 O 0.32155(16) 0.8095(5) 0.1241(2)
O30 O 0.3716(5) 0.6070(12) 0.0987(6)
O31 O 0.3936(2) 0.7636(5) 0.0667(2)
O32 O 0.12746(13) 0.7521(3) 0.21545(15)
H37 H 0.145(2) 0.768(4) 0.191(2)
H38 H 0.138(2) 0.783(5) 0.242(3)
C47? C 0.1040(8) 0.1467(14) 0.2836(13)
C48? C 0.1592(7) 0.1806(17) 0.3212(11)
C49? C 0.1750(7) 0.3060(19) 0.3259(9)
C50? C 0.1355(10) 0.3975(14) 0.2930(10)
C51? C 0.0803(9) 0.3636(17) 0.2554(12)
C52? C 0.4276(7) 0.2922(14) 0.5153(9)
C53? C 0.3743(9) 0.2503(12) 0.4742(13)
C54? C 0.3310(6) 0.3359(19) 0.4462(14)
C55? C 0.3409(6) 0.4633(17) 0.4593(10)
C56? C 0.3941(7) 0.5052(11) 0.5004(8)
C57? C 0.2330(6) 0.3560(14) 0.3675(7)
C58? C 0.2800(8) 0.2827(17) 0.4037(9)
H39? H 0.0933 0.0610 0.2804
H40? H 0.1862 0.1180 0.3436
H41? H 0.1463 0.4832 0.2962
H42? H 0.0533 0.4262 0.2330
H43? H 0.4572 0.2337 0.5345
H44? H 0.3676 0.1632 0.4653
H45? H 0.3112 0.5217 0.4401
H46? H 0.4008 0.5922 0.5093
H47? H 0.2379 0.4444 0.3691
H48? H 0.2771 0.1940 0.3993
H49? H 0.0296 0.2168 0.2270
H50? H 0.4711 0.4461 0.5544
N5? N 0.0646(7) 0.238(2) 0.2507(14)
N6? N 0.4374(5) 0.4196(15) 0.5284(7)
O33? O 0.3120(7) 0.696(2) 0.1206(8)
loop_
_geom_bond_atom_site_label_1
_geom_bond_atom_site_label_2
_geom_bond_site_symmetry_1
_geom_bond_site_symmetry_2
Ba1 O2 1_555 1_555
Fe1 O1 1_555 1_555
Fe2 O13 1_555 1_555
O1 C1 1_555 1_555
O2 C1 1_555 1_555
O3 Fe1 1_555 1_555
O4 Ba1 1_555 1_555
O5 Fe1 1_555 1_555
O6 C3 1_555 1_555
O7 Fe1 1_555 1_555
O8 C4 1_555 1_555
O9 Fe1 1_555 1_555
O10 C5 1_555 1_555
O11 Fe1 1_555 1_555
O12 C6 1_555 1_555
O13 C7 1_555 1_555
O14 Ba1 1_555 1_555
O15 Fe2 1_555 1_555
O16 Ba1 1_555 1_555
O17 Fe2 1_555 1_555
O18 C9 1_555 1_555
O19 Fe2 1_555 1_555
O20 C10 1_555 1_555
O21 Fe2 1_555 1_555
O22 C11 1_555 1_555
O23 Fe2 1_555 1_555
O24 C12 1_555 1_555
O25 Ba1 1_555 1_555
H1 O25 1_555 1_555
H2 O25 1_555 1_555
O26 Ba1 1_555 1_555
H3 O26 1_555 1_555
H4 O26 1_555 1_555
C1 C2 1_555 1_555
C2 O3 1_555 1_555
C3 O5 1_555 1_555
C4 O7 1_555 1_555
C5 O9 1_555 1_555
C6 O11 1_555 1_555
C7 O14 1_555 1_555
C8 O15 1_555 1_555
C9 O17 1_555 1_555
C10 O19 1_555 1_555
C11 O21 1_555 1_555
C12 O23 1_555 1_555
N1 H5 1_555 1_555
N2 H6 1_555 1_555
C13 N1 1_555 1_555
H7 C13 1_555 1_555
C14 C13 1_555 1_555
H8 C14 1_555 1_555
C15 C14 1_555 1_555
C16 C15 1_555 1_555
H9 C16 1_555 1_555
C17 N1 1_555 1_555
H10 C17 1_555 1_555
C18 N2 1_555 1_555
H11 C18 1_555 1_555
C19 C18 1_555 1_555
H12 C19 1_555 1_555
C20 C19 1_555 1_555
C21 C20 1_555 1_555
H13 C21 1_555 1_555
C22 N2 1_555 1_555
H14 C22 1_555 1_555
C23 C15 1_555 1_555
H15 C23 1_555 1_555
C24 C20 1_555 1_555
H16 C24 1_555 1_555
N3 H17 1_555 1_555
N4 H18 1_555 1_555
C25 N3 1_555 1_555
H19 C25 1_555 1_555
C26 C25 1_555 1_555
H20 C26 1_555 1_555
C27 C26 1_555 1_555
C28 C27 1_555 1_555
H21 C28 1_555 1_555
C29 N3 1_555 1_555
H22 C29 1_555 1_555
C30 N4 1_555 1_555
H23 C30 1_555 1_555
C31 C30 1_555 1_555
H24 C31 1_555 1_555
C32 C31 1_555 1_555
C33 C32 1_555 1_555
H25 C33 1_555 1_555
C34 N4 1_555 1_555
H26 C34 1_555 1_555
C35 C27 1_555 1_555
H27 C35 1_555 1_555
C36 C32 1_555 1_555
H28 C36 1_555 1_555
O27 H29 1_555 1_555
O28 H30 1_555 1_555
C37 O27 1_555 1_555
C38 C37 1_555 1_555
H31 C38 1_555 1_555
C39 C38 1_555 1_555
H32 C39 1_555 1_555
C40 C39 1_555 1_555
H33 C40 1_555 1_555
C41 C40 1_555 1_555
C42 O28 1_555 1_555
C43 C42 1_555 1_555
H34 C43 1_555 1_555
C44 C43 1_555 1_555
H35 C44 1_555 1_555
C45 C44 1_555 1_555
H36 C45 1_555 1_555
C46 C37 1_555 1_555
O32 H37 1_555 1_555
H38 O32 1_555 1_555
Ba1_2 O6 1_555 1_555
Ba1A O10 1_555 1_555
O6_2 Ba1 1_555 1_555
O8_2 Ba1 1_555 1_555
O10A Ba1 1_555 1_555
O12A Ba1 1_555 1_555
O4 C2 1_555 1_555
O8 Ba1_2 1_555 1_555
O12 Ba1A 1_555 1_555
O16 C8 1_555 1_555
C3 C4 1_555 1_555
C5 C6 1_555 1_555
C7 C8 1_555 1_555
C9 C10 1_555 1_555
C11 C12 1_555 1_555
C16 C17 1_555 1_555
C21 C22 1_555 1_555
C23 C24 1_555 1_555
C28 C29 1_555 1_555
C33 C34 1_555 1_555
C35 C36 1_555 1_555
C41 C42 1_555 1_555
C41 C46 1_555 1_555
C45 C46 1_555 1_555

#END
