
#######################################################################
#
#                 Cambridge Crystallographic Data Centre
#                                CCDC 
#
#######################################################################
#
# If this CIF has been generated from an entry in the Cambridge 
# Structural Database, then it will include bibliographic, chemical, 
# crystal, experimental, refinement or atomic coordinate data resulting 
# from the CCDC's data processing and validation procedures.
#
#######################################################################

data_KEFZIG
_symmetry_cell_setting           monoclinic
_symmetry_space_group_name_H-M   'C 2/c'
_symmetry_Int_Tables_number      15
_space_group_name_Hall           '-C 2yn'
loop_
_symmetry_equiv_pos_site_id
_symmetry_equiv_pos_as_xyz
1 x,y,z
2 -x,y,1/2-z
3 1/2+x,1/2+y,z
4 1/2-x,1/2+y,1/2-z
5 -x,-y,-z
6 x,-y,1/2+z
7 1/2-x,1/2-y,-z
8 1/2+x,1/2-y,1/2+z
_cell_length_a                   28.835(3)
_cell_length_b                   7.3637(7)
_cell_length_c                   14.1679(13)
_cell_angle_alpha                90
_cell_angle_beta                 109.161(5)
_cell_angle_gamma                90
_cell_volume                     2841.64
loop_
_atom_site_label
_atom_site_type_symbol
_atom_site_fract_x
_atom_site_fract_y
_atom_site_fract_z
Co1 Co 0.426043(16) 0.62009(7) 0.86076(3)
N1 N 0.39895(10) 0.7251(4) 0.9621(2)
C1 C 0.35283(12) 0.7942(5) 0.9472(3)
H1 H 0.3281 0.8021 0.8856
C2 C 0.34862(12) 0.8493(5) 1.0356(2)
N2 N 0.39376(10) 0.8134(4) 1.1057(2)
H2 H 0.4019 0.8345 1.1688
C3 C 0.42261(12) 0.7400(5) 1.0590(3)
H3 H 0.4550 0.7043 1.0903
C4 C 0.30698(12) 0.9230(5) 1.0615(3)
C5 C 0.26455(11) 0.9764(5) 0.9870(2)
H4 H 0.2633 0.9685 0.9207
C6 C 0.22364(12) 1.0418(5) 1.0084(2)
C7 C 0.22683(13) 1.0583(6) 1.1087(3)
H5 H 0.2007 1.1060 1.1253
C8 C 0.26868(13) 1.0038(6) 1.1824(3)
H6 H 0.2700 1.0116 1.2488
C9 C 0.30873(13) 0.9377(6) 1.1607(3)
H7 H 0.3369 0.9031 1.2121
N3 N 0.11834(10) 1.1350(4) 0.7815(2)
C10 C 0.16560(12) 1.0713(5) 0.8273(3)
H8 H 0.1855 1.0223 0.7938
C11 C 0.17863(12) 1.0903(5) 0.9270(3)
N4 N 0.13862(10) 1.1681(4) 0.9435(2)
H9 H 0.1365 1.1961 1.0009
C12 C 0.10382(12) 1.1928(5) 0.8559(3)
H10 H 0.0733 1.2439 0.8478
S1 S 0.42929(3) 0.23858(12) 0.89010(6)
O1 O 0.46379(9) 0.3935(3) 0.8949(2)
O2 O 0.44424(9) 0.1439(4) 0.98554(18)
O3 O 0.43061(9) 0.1154(3) 0.80949(18)
O4 O 0.38006(9) 0.3196(4) 0.86804(18)
O5 O 0.47819(8) 0.7983(3) 0.85643(18)
Co1C Co 0.073957(16) 1.12009(7) 0.63924(3)
N3C N 0.38166(10) 0.6350(4) 0.7185(2)
loop_
_geom_bond_atom_site_label_1
_geom_bond_atom_site_label_2
_geom_bond_site_symmetry_1
_geom_bond_site_symmetry_2
Co1 N1 1_555 1_555
N1 C1 1_555 1_555
C1 H1 1_555 1_555
C2 C1 1_555 1_555
N2 C2 1_555 1_555
H2 N2 1_555 1_555
C3 N1 1_555 1_555
H3 C3 1_555 1_555
C4 C2 1_555 1_555
C5 C4 1_555 1_555
H4 C5 1_555 1_555
C6 C5 1_555 1_555
C7 C6 1_555 1_555
H5 C7 1_555 1_555
C8 C7 1_555 1_555
H6 C8 1_555 1_555
C9 C4 1_555 1_555
H7 C9 1_555 1_555
N3 C10 1_555 1_555
C10 H8 1_555 1_555
C11 C6 1_555 1_555
N4 C11 1_555 1_555
H9 N4 1_555 1_555
C12 N3 1_555 1_555
H10 C12 1_555 1_555
S1 O1 1_555 1_555
O1 Co1 1_555 1_555
O2 S1 1_555 1_555
O3 S1 1_555 1_555
O4 S1 1_555 1_555
O5 Co1 1_555 1_555
Co1C N3 1_555 1_555
N3C Co1 1_555 1_555
N2 C3 1_555 1_555
C8 C9 1_555 1_555
C10 C11 1_555 1_555
N4 C12 1_555 1_555

#END
