
#######################################################################
#
#                 Cambridge Crystallographic Data Centre
#                                CCDC 
#
#######################################################################
#
# If this CIF has been generated from an entry in the Cambridge 
# Structural Database, then it will include bibliographic, chemical, 
# crystal, experimental, refinement or atomic coordinate data resulting 
# from the CCDC's data processing and validation procedures.
#
#######################################################################

data_KEGKEO
_symmetry_cell_setting           monoclinic
_symmetry_space_group_name_H-M   'P 2/n'
_symmetry_Int_Tables_number      13
_space_group_name_Hall           '-P 2yac'
loop_
_symmetry_equiv_pos_site_id
_symmetry_equiv_pos_as_xyz
1 x,y,z
2 1/2-x,y,1/2-z
3 -x,-y,-z
4 1/2+x,-y,1/2+z
_cell_length_a                   7.5896(15)
_cell_length_b                   11.444(2)
_cell_length_c                   12.894(3)
_cell_angle_alpha                90
_cell_angle_beta                 90.99(3)
_cell_angle_gamma                90
_cell_volume                     1119.75
loop_
_atom_site_label
_atom_site_type_symbol
_atom_site_fract_x
_atom_site_fract_y
_atom_site_fract_z
Co1 Co 0.7500 0.63145(4) 0.7500
O1 O 0.8515(4) 0.6257(2) 0.60085(18)
O2 O 0.6137(4) 0.6526(3) 0.4994(2)
O3 O 1.0162(4) 0.62874(19) 0.8097(2)
H1 H 1.091(5) 0.671(4) 0.786(3)
H2 H 0.997(7) 0.641(4) 0.8731(18)
N1 N 0.8130(4) 0.6698(3) 0.3247(2)
N2 N 0.7500 0.8217(3) 0.7500
N3 N 0.7500 1.4440(3) 0.7500
C1 C 0.7724(5) 0.6371(3) 0.5151(3)
C2 C 0.8957(6) 0.6308(4) 0.4224(3)
H3 H 1.0007 0.6798 0.4372
H4 H 0.9363 0.5491 0.4142
C3 C 0.7500 0.6019(5) 0.2500
H5 H 0.7500 0.5189 0.2500
C4 C 0.7882(6) 0.7841(3) 0.2962(3)
H6 H 0.8202 0.8510 0.3359
C5 C 0.8228(8) 0.8832(3) 0.8273(4)
H7 H 0.8755 0.8418 0.8836
C6 C 0.8260(7) 1.0041(3) 0.8302(4)
H8 H 0.8805 1.0432 0.8873
C7 C 0.7500 1.0684(4) 0.7500
C8 C 0.7500 1.1977(4) 0.7500
C9 C 0.8276(4) 1.2616(3) 0.8307(3)
H9 H 0.8820 1.2222 0.8876
C10 C 0.8252(5) 1.3824(3) 0.8278(3)
H10 H 0.8795 1.4239 0.8835
Co1_2 Co 0.7500 1.63145(4) 0.7500
Co1_3 Co 0.7500 0.63145(4) -0.2500
O1A O 0.6485(4) 0.6257(2) -0.10085(18)
O1A_2 O 0.6485(4) 0.6257(2) 0.89915(18)
O2A O 0.8863(4) 0.6526(3) 0.0006(2)
O3A O 0.4838(4) 0.62874(19) 0.6903(2)
H1A H 0.409(5) 0.671(4) 0.714(3)
H2A H 0.503(7) 0.641(4) 0.6269(18)
N1A N 0.6870(4) 0.6698(3) 0.1753(2)
N3_2 N 0.7500 0.4440(3) 0.7500
C1A C 0.7276(5) 0.6371(3) -0.0151(3)
C2A C 0.6043(6) 0.6308(4) 0.0776(3)
H3A H 0.4993 0.6798 0.0628
H4A H 0.5637 0.5491 0.0858
C4A C 0.7118(6) 0.7841(3) 0.2038(3)
H6A H 0.6798 0.8510 0.1641
C5A C 0.6772(8) 0.8832(3) 0.6727(4)
H7A H 0.6245 0.8418 0.6164
C6A C 0.6740(7) 1.0041(3) 0.6698(4)
H8A H 0.6195 1.0432 0.6127
C9A C 0.6724(4) 1.2616(3) 0.6693(3)
H9A H 0.6180 1.2222 0.6124
C10A C 0.6748(5) 1.3824(3) 0.6722(3)
H10A H 0.6205 1.4239 0.6165
O4 O 0.2500 0.7999(7) 0.7500
H11 H 0.2500 0.7261(19) 0.7500
O5 O 1.007(2) 0.8965(11) 0.4973(11)
O6? O 1.100(7) 0.968(4) 0.541(4)
loop_
_geom_bond_atom_site_label_1
_geom_bond_atom_site_label_2
_geom_bond_site_symmetry_1
_geom_bond_site_symmetry_2
Co1 O1 1_555 1_555
O1 C1 1_555 1_555
O2 C1 1_555 1_555
O3 Co1 1_555 1_555
H1 O3 1_555 1_555
H2 O3 1_555 1_555
N1 C2 1_555 1_555
N2 Co1 1_555 1_555
N3 C10 1_555 1_555
C1 C2 1_555 1_555
C2 H3 1_555 1_555
H4 C2 1_555 1_555
C3 N1 1_555 1_555
H5 C3 1_555 1_555
C4 N1 1_555 1_555
H6 C4 1_555 1_555
C5 N2 1_555 1_555
H7 C5 1_555 1_555
C6 C5 1_555 1_555
H8 C6 1_555 1_555
C7 C6 1_555 1_555
C8 C7 1_555 1_555
C9 C8 1_555 1_555
H9 C9 1_555 1_555
C10 C9 1_555 1_555
H10 C10 1_555 1_555
O4 H11 1_555 1_555
Co1_2 N3 1_555 1_555
Co1_3 O1A 1_555 1_555
O1A C1A 1_555 1_555
O1A_2 Co1 1_555 1_555
O2A C1A 1_555 1_555
O3A Co1 1_555 1_555
H1A O3A 1_555 1_555
H2A O3A 1_555 1_555
N1A C3 1_555 1_555
N3_2 Co1 1_555 1_555
C1A C2A 1_555 1_555
C2A N1A 1_555 1_555
H3A C2A 1_555 1_555
H4A C2A 1_555 1_555
C4A C4 1_555 1_555
H6A C4A 1_555 1_555
C5A N2 1_555 1_555
H7A C5A 1_555 1_555
C6A C7 1_555 1_555
H8A C6A 1_555 1_555
C9A C8 1_555 1_555
H9A C9A 1_555 1_555
C10A N3 1_555 1_555
H10A C10A 1_555 1_555
N1A C4A 1_555 1_555
C5A C6A 1_555 1_555
C9A C10A 1_555 1_555

#END
