
#######################################################################
#
#                 Cambridge Crystallographic Data Centre
#                                CCDC 
#
#######################################################################
#
# If this CIF has been generated from an entry in the Cambridge 
# Structural Database, then it will include bibliographic, chemical, 
# crystal, experimental, refinement or atomic coordinate data resulting 
# from the CCDC's data processing and validation procedures.
#
#######################################################################

data_KEGKIS
_symmetry_cell_setting           monoclinic
_symmetry_space_group_name_H-M   'C 2'
_symmetry_Int_Tables_number      5
_space_group_name_Hall           'C 2y'
loop_
_symmetry_equiv_pos_site_id
_symmetry_equiv_pos_as_xyz
1 x,y,z
2 -x,y,-z
3 1/2+x,1/2+y,z
4 1/2-x,1/2+y,-z
_cell_length_a                   17.479(4)
_cell_length_b                   11.689(2)
_cell_length_c                   11.670(2)
_cell_angle_alpha                90
_cell_angle_beta                 117.13(3)
_cell_angle_gamma                90
_cell_volume                     2121.98
loop_
_atom_site_label
_atom_site_type_symbol
_atom_site_fract_x
_atom_site_fract_y
_atom_site_fract_z
Cd1 Cd 0.375246(9) 1.22015(4) 0.385344(13)
O1 O 0.35417(12) 1.2071(3) 0.59356(19)
O2 O 0.48388(11) 1.2134(4) 0.60711(16)
O3 O 0.21735(17) 1.3380(3) 1.1024(2)
O4 O 0.33682(12) 1.2314(4) 1.16416(18)
O8 O 0.22615(15) 1.2453(3) 0.3153(2)
H1 H 0.226(3) 1.277(4) 0.249(3)
H2 H 0.196(3) 1.184(3) 0.286(5)
N1 N 0.31577(14) 1.2234(4) 0.91286(19)
N2 N 0.41215(19) 1.1840(2) 0.8526(2)
N3 N 0.37293(19) 1.0228(6) 0.3878(3)
N4 N 0.3807(2) 0.4159(5) 0.3999(4)
C1 C 0.43257(16) 1.2058(3) 0.6566(2)
C2 C 0.47431(19) 1.1964(4) 0.8029(3)
H7 H 0.5135 1.1296 0.8302
H8 H 0.5093 1.2657 0.8408
C3 C 0.3818(3) 1.0809(4) 0.8747(4)
H9 H 0.3994 1.0066 0.8639
C4 C 0.3705(2) 1.2677(4) 0.8746(3)
H10 H 0.3782 1.3469 0.8647
C5 C 0.3226(3) 1.1063(4) 0.9144(4)
H11 H 0.2914 1.0533 0.9387
C6 C 0.2555(2) 1.2871(4) 0.9434(3)
H12 H 0.1971 1.2565 0.8900
H13 H 0.2556 1.3679 0.9180
C7 C 0.2729(2) 1.2847(3) 1.0831(3)
C8 C 0.3317(4) 0.9663(5) 0.4391(7)
H14 H 0.3014 1.0080 0.4753
C9 C 0.3306(4) 0.8458(5) 0.4427(6)
H15 H 0.2977 0.8082 0.4775
C10 C 0.3763(2) 0.7827(6) 0.3969(4)
C11 C 0.3785(2) 0.6558(6) 0.3974(4)
C12 C 0.3454(4) 0.5930(5) 0.4685(6)
H16 H 0.3212 0.6314 0.5161
C13 C 0.3486(4) 0.4771(5) 0.4678(6)
H17 H 0.3272 0.4362 0.5176
C14 C 0.4127(4) 0.4781(5) 0.3357(6)
H18 H 0.4377 0.4379 0.2903
C15 C 0.4122(4) 0.5932(5) 0.3301(6)
H19 H 0.4349 0.6313 0.2803
C16 C 0.4213(3) 0.8439(4) 0.3438(5)
H20 H 0.4549 0.8047 0.3112
C17 C 0.4162(4) 0.9640(4) 0.3393(5)
H21 H 0.4450 1.0047 0.2998
Cd1A Cd 0.624754(9) 1.22015(4) 0.614656(13)
Cd1_2 Cd 0.375246(9) 1.22015(4) 1.385344(13)
Cd1_3 Cd 0.375246(9) 0.22015(4) 0.385344(13)
O2A O 0.51612(11) 1.2134(4) 0.39289(16)
O4_2 O 0.33682(12) 1.2314(4) 0.16416(18)
N4_2 N 0.3807(2) 1.4159(5) 0.3999(4)
O5 O 0.5393(3) 0.6502(4) 0.1930(6)
O6 O 0.5057(3) 0.4748(4) 0.1459(5)
O7 O 0.6370(2) 0.5275(4) 0.2323(4)
N5 N 0.5599(3) 0.5500(4) 0.1890(4)
O9 O 0.4590(3) 0.8773(5) 0.0978(5)
H3 H 0.453(5) 0.822(6) 0.044(7)
H4 H 0.5157(18) 0.875(9) 0.151(7)
O10 O 0.1692(3) 0.0510(5) 0.0040(5)
H5 H 0.174(5) 0.121(3) -0.013(9)
H6 H 0.116(2) 0.040(6) -0.014(9)
loop_
_geom_bond_atom_site_label_1
_geom_bond_atom_site_label_2
_geom_bond_site_symmetry_1
_geom_bond_site_symmetry_2
Cd1 O1 1_555 1_555
O1 C1 1_555 1_555
O2 Cd1 1_555 1_555
O3 C7 1_555 1_555
O4 C7 1_555 1_555
O5 N5 1_555 1_555
O6 N5 1_555 1_555
O7 N5 1_555 1_555
O8 Cd1 1_555 1_555
H1 O8 1_555 1_555
H2 O8 1_555 1_555
O9 H3 1_555 1_555
H4 O9 1_555 1_555
O10 H5 1_555 1_555
H6 O10 1_555 1_555
N1 C4 1_555 1_555
N2 C2 1_555 1_555
N3 Cd1 1_555 1_555
N4 C13 1_555 1_555
C1 O2 1_555 1_555
C2 C1 1_555 1_555
H7 C2 1_555 1_555
H8 C2 1_555 1_555
C3 N2 1_555 1_555
H9 C3 1_555 1_555
C4 N2 1_555 1_555
H10 C4 1_555 1_555
C5 N1 1_555 1_555
H11 C5 1_555 1_555
C6 N1 1_555 1_555
H12 C6 1_555 1_555
H13 C6 1_555 1_555
C7 C6 1_555 1_555
C8 N3 1_555 1_555
H14 C8 1_555 1_555
C9 C8 1_555 1_555
H15 C9 1_555 1_555
C10 C9 1_555 1_555
C11 C10 1_555 1_555
C12 C11 1_555 1_555
H16 C12 1_555 1_555
C13 C12 1_555 1_555
H17 C13 1_555 1_555
C14 N4 1_555 1_555
H18 C14 1_555 1_555
C15 C11 1_555 1_555
H19 C15 1_555 1_555
C16 C10 1_555 1_555
H20 C16 1_555 1_555
C17 N3 1_555 1_555
H21 C17 1_555 1_555
Cd1A O2 1_555 1_555
Cd1_2 O4 1_555 1_555
Cd1_3 N4 1_555 1_555
O2A Cd1 1_555 1_555
O4_2 Cd1 1_555 1_555
N4_2 Cd1 1_555 1_555
C3 C5 1_555 1_555
C14 C15 1_555 1_555
C16 C17 1_555 1_555
Cd1A O2A 1_555 1_555

#END
