
#######################################################################
#
#                 Cambridge Crystallographic Data Centre
#                                CCDC 
#
#######################################################################
#
# If this CIF has been generated from an entry in the Cambridge 
# Structural Database, then it will include bibliographic, chemical, 
# crystal, experimental, refinement or atomic coordinate data resulting 
# from the CCDC's data processing and validation procedures.
#
#######################################################################

data_KEGMAM
_symmetry_cell_setting           triclinic
_symmetry_space_group_name_H-M   'P -1'
_symmetry_Int_Tables_number      2
_space_group_name_Hall           '-P 1'
loop_
_symmetry_equiv_pos_site_id
_symmetry_equiv_pos_as_xyz
1 x,y,z
2 -x,-y,-z
_cell_length_a                   13.2016(5)
_cell_length_b                   17.2227(6)
_cell_length_c                   25.8373(8)
_cell_angle_alpha                72.5210(9)
_cell_angle_beta                 84.3774(10)
_cell_angle_gamma                68.5483(9)
_cell_volume                     5214.68
loop_
_atom_site_label
_atom_site_type_symbol
_atom_site_fract_x
_atom_site_fract_y
_atom_site_fract_z
Na1 Na 0.7077(5) 0.1597(4) 0.3567(3)
Na2 Na 1.5654(7) -0.2272(5) 0.2232(3)
Na3 Na 1.6983(6) -0.3297(5) -0.1385(3)
O23 O 0.5871(8) 0.1363(6) 0.4350(4)
O24 O 0.7662(9) 0.0189(7) 0.4172(4)
O25 O 0.8539(9) 0.1700(7) 0.3934(4)
O26 O 0.8803(8) 0.1374(7) 0.3000(4)
O27 O 1.3802(9) -0.1408(7) 0.2391(4)
O28 O 1.5255(9) -0.2189(7) 0.3147(5)
O29 O 1.6356(10) -0.3826(8) 0.2649(6)
O30 O 1.7406(10) -0.3002(8) 0.1930(6)
O31 O 1.8124(9) -0.3650(7) -0.0608(5)
O32 O 1.7437(10) -0.4743(7) -0.0826(5)
O33 O 1.5249(9) -0.3132(8) -0.1049(5)
O34 O 1.5581(9) -0.3339(7) -0.2012(5)
O35 O 1.453(4) -0.303(3) 0.1827(16)
N1 N 0.6294(14) 0.1251(11) 0.2933(6)
N2 N 0.6217(12) 0.3164(9) 0.3520(6)
N3 N 1.516(2) -0.1686(16) 0.1283(11)
N4 N 1.6618(18) -0.1280(13) 0.2313(8)
N5 N 1.8260(18) -0.3535(13) -0.2056(9)
N6 N 1.6536(14) -0.1790(10) -0.1307(8)
C1 C 0.4813(13) 0.1997(10) 0.4439(8)
C2 C 0.8668(14) -0.0420(11) 0.4074(7)
C3 C 0.6239(10) 0.0616(10) 0.4784(6)
C4 C 0.7232(13) -0.0026(10) 0.4682(6)
C5 C 0.5752(12) 0.0466(9) 0.5277(6)
C6 C 0.7676(11) -0.0779(9) 0.5098(6)
C7 C 0.6207(12) -0.0328(9) 0.5705(6)
C8 C 0.7202(12) -0.0951(9) 0.5604(6)
C9 C 0.7795(12) -0.1785(9) 0.6030(6)
C10 C 0.8365(16) 0.1801(14) 0.4481(7)
C11 C 0.8974(12) 0.1140(10) 0.2482(6)
C12 C 0.9536(11) 0.1639(8) 0.3697(6)
C13 C 0.9688(12) 0.1464(9) 0.3189(6)
C14 C 1.0316(12) 0.1785(9) 0.3915(6)
C15 C 1.0687(12) 0.1378(9) 0.2945(6)
C16 C 0.8632(11) -0.1678(8) 0.6323(6)
C17 C 1.1507(12) 0.1508(9) 0.3165(7)
C18 C 1.2604(13) 0.1378(9) 0.2877(6)
C19 C 1.2906(14) -0.1002(11) 0.2010(7)
C20 C 1.6074(17) -0.2611(11) 0.3541(8)
C21 C 1.3853(13) -0.0883(10) 0.2705(7)
C22 C 1.4669(13) -0.1341(10) 0.3133(6)
C23 C 1.3213(13) -0.0031(10) 0.2637(7)
C24 C 1.4788(12) -0.0877(10) 0.3451(6)
C25 C 1.3359(12) 0.0419(9) 0.2979(6)
C26 C 1.4153(12) 0.0014(9) 0.3377(6)
C27 C 0.5627(13) -0.0435(9) 0.6222(6)
C28 C 1.5791(18) -0.4295(13) 0.3065(8)
C29 C 1.805(2) -0.2573(12) 0.1564(10)
C30 C 1.7057(13) -0.4303(10) 0.2325(7)
C31 C 1.7633(13) -0.3848(10) 0.1940(7)
C32 C 1.7225(12) -0.5154(9) 0.2376(6)
C33 C 1.8342(12) -0.4290(9) 0.1617(6)
C34 C 1.7948(12) -0.5594(9) 0.2032(7)
C35 C 1.8537(12) -0.5162(9) 0.1646(6)
C36 C 1.9345(11) -0.5554(10) 0.1253(6)
C37 C 1.8580(14) -0.3067(11) -0.0518(6)
C38 C 1.714(2) -0.5370(12) -0.0971(8)
C39 C 1.8263(12) -0.4419(8) -0.0187(6)
C40 C 1.7863(14) -0.5007(11) -0.0315(8)
C41 C 1.8680(11) -0.4598(9) 0.0313(6)
C42 C 1.7957(13) -0.5784(8) 0.0091(6)
C43 C 1.8797(12) -0.5382(9) 0.0701(6)
C44 C 1.8437(12) -0.5979(9) 0.0592(6)
C45 C 1.8488(12) -0.6870(9) 0.0994(6)
C46 C 1.5099(16) -0.3009(14) -0.0515(7)
C47 C 1.5817(16) -0.3493(12) -0.2540(7)
C48 C 1.4401(13) -0.3195(10) -0.1281(7)
C49 C 1.4578(12) -0.3308(9) -0.1808(6)
C50 C 1.3400(13) -0.3148(10) -0.1040(7)
C51 C 1.3768(12) -0.3389(9) -0.2064(6)
C52 C 1.7437(13) -0.6799(9) 0.1314(7)
C53 C 1.2748(12) -0.3331(9) -0.1824(6)
C54 C 1.8092(13) -0.6552(9) 0.2121(6)
C55 C 0.5842(14) 0.1181(12) 0.2626(8)
C56 C 0.5223(17) 0.1136(14) 0.2211(8)
C57 C 0.5991(17) 0.3538(12) 0.3839(9)
C58 C 0.560(3) 0.4021(16) 0.4229(10)
C59 C 1.552(3) -0.191(3) 0.0914(16)
C60 C 1.579(3) -0.215(2) 0.0382(13)
C61 C 1.729(2) -0.1163(14) 0.2503(11)
C62 C 1.8169(19) -0.0970(13) 0.2729(9)
C63 C 1.893(3) -0.359(2) -0.2333(14)
C64 C 1.977(3) -0.3799(17) -0.2736(11)
C65 C 1.6050(16) -0.1190(15) -0.1193(8)
C66 C 1.535(2) -0.0346(17) -0.1089(10)
H1 H 0.4896 0.2251 0.4717
H2 H 0.4285 0.1703 0.4560
H3 H 0.4554 0.2459 0.4099
H4 H 0.8541 -0.0904 0.4001
H5 H 0.9143 -0.0643 0.4395
H6 H 0.9015 -0.0136 0.3761
H7 H 0.5095 0.0897 0.5339
H8 H 0.8340 -0.1201 0.5034
H9 H 0.7264 -0.1957 0.6294
H10 H 0.8151 -0.2255 0.5855
H11 H 0.8947 0.1343 0.4724
H12 H 0.8370 0.2372 0.4473
H13 H 0.7661 0.1757 0.4612
H14 H 0.8293 0.1132 0.2367
H15 H 0.9202 0.1571 0.2203
H16 H 0.9540 0.0563 0.2534
H17 H 1.0162 0.1963 0.4237
H18 H 1.0816 0.1225 0.2614
H19 H 1.2466 0.1643 0.2482
H20 H 1.2985 0.1694 0.2999
H21 H 1.2235 -0.0754 0.2196
H22 H 1.3041 -0.0537 0.1716
H23 H 1.2831 -0.1436 0.1859
H24 H 1.6608 -0.2319 0.3465
H25 H 1.5758 -0.2593 0.3899
H26 H 1.6435 -0.3218 0.3538
H27 H 1.2670 0.0257 0.2359
H28 H 1.5320 -0.1162 0.3734
H29 H 0.5820 -0.1066 0.6404
H30 H 0.4836 -0.0191 0.6141
H31 H 1.5368 -0.4518 0.2894
H32 H 1.6324 -0.4782 0.3320
H33 H 1.5299 -0.3900 0.3261
H34 H 1.8819 -0.2921 0.1637
H35 H 1.7865 -0.2504 0.1190
H36 H 1.7892 -0.1999 0.1614
H37 H 1.6850 -0.5453 0.2647
H38 H 1.8729 -0.3990 0.1355
H39 H 1.9928 -0.5303 0.1186
H40 H 1.9685 -0.6190 0.1419
H41 H 1.8190 -0.2832 -0.0225
H42 H 1.9350 -0.3381 -0.0417
H43 H 1.8512 -0.2590 -0.0851
H44 H 1.7730 -0.5936 -0.0871
H45 H 1.6477 -0.5419 -0.0778
H46 H 1.7000 -0.5183 -0.1363
H47 H 1.8893 -0.4179 0.0398
H48 H 1.7687 -0.6185 0.0022
H49 H 1.9107 -0.7084 0.1250
H50 H 1.8617 -0.7298 0.0789
H51 H 1.4970 -0.3511 -0.0256
H52 H 1.4472 -0.2479 -0.0521
H53 H 1.5753 -0.2954 -0.0404
H54 H 1.5331 -0.3002 -0.2813
H55 H 1.5704 -0.4029 -0.2531
H56 H 1.6575 -0.3553 -0.2631
H57 H 1.3276 -0.3079 -0.0686
H58 H 1.3902 -0.3486 -0.2411
H59 H 1.8049 -0.6829 0.2514
H60 H 1.8825 -0.6857 0.2000
Na1A Na 1.2923(5) -0.1597(4) 0.6433(3)
Na1A_2 Na 2.2923(5) -1.1597(4) -0.3567(3)
Na2A Na 1.4346(7) -0.7728(5) -0.2232(3)
Na3A Na 1.3017(6) -0.6703(5) 0.1385(3)
O23A O 1.4129(8) -0.1363(6) 0.5650(4)
O23A_2 O 2.4129(8) -1.1363(6) -0.4350(4)
O23_2 O 1.5871(8) -0.8637(6) -0.5650(4)
O24A O 1.2338(9) -0.0189(7) 0.5828(4)
O24A_2 O 2.2338(9) -1.0189(7) -0.4172(4)
O24_2 O 1.7662(9) -0.9811(7) -0.5828(4)
O25A O 2.1461(9) -1.1700(7) -0.3934(4)
O25A_2 O 1.1461(9) -0.1700(7) 0.6066(4)
O26A O 2.1197(8) -1.1374(7) -0.3000(4)
O26A_2 O 1.1197(8) -0.1374(7) 0.7000(4)
O27A O 1.6198(9) -0.8592(7) -0.2391(4)
O28A O 1.4745(9) -0.7811(7) -0.3147(5)
O29A O 1.3644(10) -0.6174(8) -0.2649(6)
O30A O 1.2594(10) -0.6998(8) -0.1930(6)
O31A O 1.1876(9) -0.6350(7) 0.0608(5)
O32A O 1.2563(10) -0.5257(7) 0.0826(5)
O33A O 1.4751(9) -0.6868(8) 0.1049(5)
O34A O 1.4419(9) -0.6661(7) 0.2012(5)
O35A O 1.547(4) -0.697(3) -0.1827(16)
N1A N 2.3706(14) -1.1251(11) -0.2933(6)
N1A_2 N 1.3706(14) -0.1251(11) 0.7067(6)
N2A N 2.3783(12) -1.3164(9) -0.3520(6)
N2A_2 N 1.3783(12) -0.3164(9) 0.6480(6)
N3A N 1.484(2) -0.8314(16) -0.1283(11)
N4A N 1.3382(18) -0.8720(13) -0.2313(8)
N5A N 1.1740(18) -0.6465(13) 0.2056(9)
N6A N 1.3464(14) -0.8210(10) 0.1307(8)
C1A C 1.5187(13) -0.1997(10) 0.5561(8)
C2A C 1.1332(14) 0.0420(11) 0.5926(7)
C3A C 1.3761(10) -0.0616(10) 0.5216(6)
C3_2 C 1.6239(10) -0.9384(10) -0.5216(6)
C4A C 1.2768(13) 0.0026(10) 0.5318(6)
C4_2 C 1.7232(13) -1.0026(10) -0.5318(6)
C5A C 1.4248(12) -0.0466(9) 0.4723(6)
C5_2 C 1.5752(12) -0.9534(9) -0.4723(6)
C6A C 1.2324(11) 0.0779(9) 0.4902(6)
C6_2 C 1.7676(11) -1.0779(9) -0.4902(6)
C7A C 1.3793(12) 0.0328(9) 0.4295(6)
C7_2 C 1.6207(12) -1.0328(9) -0.4295(6)
C8A C 1.2798(12) 0.0951(9) 0.4396(6)
C8_2 C 1.7202(12) -1.0951(9) -0.4396(6)
C9A C 1.2205(12) 0.1785(9) 0.3970(6)
C9_2 C 1.7795(12) -1.1785(9) -0.3970(6)
C10A C 2.1635(16) -1.1801(14) -0.4481(7)
C11A C 2.1026(12) -1.1140(10) -0.2482(6)
C12A C 2.0464(11) -1.1639(8) -0.3697(6)
C13A C 2.0312(12) -1.1464(9) -0.3189(6)
C14A C 1.9684(12) -1.1785(9) -0.3915(6)
C14A_2 C 0.9684(12) -0.1785(9) 0.6085(6)
C15A C 1.9313(12) -1.1378(9) -0.2945(6)
C16A C 1.1368(11) 0.1678(8) 0.3677(6)
C16_2 C 1.8632(11) -1.1678(8) -0.3677(6)
C17A C 1.8493(12) -1.1508(9) -0.3165(7)
C17A_2 C 0.8493(12) -0.1508(9) 0.6835(7)
C18A C 1.7396(13) -1.1378(9) -0.2877(6)
C19A C 1.7094(14) -0.8998(11) -0.2010(7)
C20A C 1.3926(17) -0.7389(11) -0.3541(8)
C21A C 1.6147(13) -0.9117(10) -0.2705(7)
C22A C 1.5331(13) -0.8659(10) -0.3133(6)
C23A C 1.6787(13) -0.9969(10) -0.2637(7)
C24A C 1.5212(12) -0.9123(10) -0.3451(6)
C25A C 1.6641(12) -1.0419(9) -0.2979(6)
C26A C 1.5847(12) -1.0014(9) -0.3377(6)
C26A_2 C 0.5847(12) -0.0014(9) 0.6623(6)
C27A C 1.4373(13) 0.0435(9) 0.3778(6)
C27_2 C 1.5627(13) -1.0435(9) -0.3778(6)
C28A C 1.4209(18) -0.5705(13) -0.3065(8)
C29A C 1.195(2) -0.7427(12) -0.1564(10)
C30A C 1.2943(13) -0.5697(10) -0.2325(7)
C31A C 1.2367(13) -0.6152(10) -0.1940(7)
C32A C 1.2775(12) -0.4846(9) -0.2376(6)
C33A C 1.1658(12) -0.5710(9) -0.1617(6)
C34A C 1.2052(12) -0.4406(9) -0.2032(7)
C35A C 1.1463(12) -0.4838(9) -0.1646(6)
C36A C 1.0655(11) -0.4446(10) -0.1253(6)
C37A C 1.1420(14) -0.6933(11) 0.0518(6)
C38A C 1.286(2) -0.4630(12) 0.0971(8)
C39A C 1.1737(12) -0.5581(8) 0.0187(6)
C40A C 1.2137(14) -0.4993(11) 0.0315(8)
C41A C 1.1320(11) -0.5402(9) -0.0313(6)
C42A C 1.2043(13) -0.4216(8) -0.0091(6)
C43A C 1.1203(12) -0.4618(9) -0.0701(6)
C44A C 1.1563(12) -0.4021(9) -0.0592(6)
C45A C 1.1512(12) -0.3130(9) -0.0994(6)
C46A C 1.4901(16) -0.6991(14) 0.0515(7)
C47A C 1.4183(16) -0.6507(12) 0.2540(7)
C48A C 1.5599(13) -0.6805(10) 0.1281(7)
C49A C 1.5422(12) -0.6692(9) 0.1808(6)
C50A C 1.6600(13) -0.6852(10) 0.1040(7)
C51A C 1.6232(12) -0.6611(9) 0.2064(6)
C52A C 1.2563(13) -0.3201(9) -0.1314(7)
C53A C 1.7252(12) -0.6669(9) 0.1824(6)
C54A C 1.1908(13) -0.3448(9) -0.2121(6)
C55A C 2.4158(14) -1.1181(12) -0.2626(8)
C55A_2 C 1.4158(14) -0.1181(12) 0.7374(8)
C56A C 2.4777(17) -1.1136(14) -0.2211(8)
C56A_2 C 1.4777(17) -0.1136(14) 0.7789(8)
C57A C 2.4009(17) -1.3538(12) -0.3839(9)
C57A_2 C 1.4009(17) -0.3538(12) 0.6161(9)
C58A C 2.440(3) -1.4021(16) -0.4229(10)
C58A_2 C 1.440(3) -0.4021(16) 0.5771(10)
C59A C 1.448(3) -0.809(3) -0.0914(16)
C60A C 1.421(3) -0.785(2) -0.0382(13)
C61A C 1.271(2) -0.8837(14) -0.2503(11)
C62A C 1.1831(19) -0.9030(13) -0.2729(9)
C63A C 1.107(3) -0.641(2) 0.2333(14)
C64A C 1.023(3) -0.6201(17) 0.2736(11)
C65A C 1.3950(16) -0.8810(15) 0.1193(8)
C66A C 1.465(2) -0.9654(17) 0.1089(10)
H1A H 1.5104 -0.2251 0.5283
H2A H 1.5715 -0.1703 0.5440
H3A H 1.5446 -0.2459 0.5901
H4A H 1.1459 0.0904 0.5999
H5A H 1.0857 0.0643 0.5605
H6A H 1.0985 0.0136 0.6239
H7_2 H 1.5095 -0.9103 -0.4661
H7A H 1.4905 -0.0897 0.4661
H8_2 H 1.8340 -1.1201 -0.4966
H8A H 1.1660 0.1201 0.4966
H9_2 H 1.7264 -1.1957 -0.3706
H9A H 1.2736 0.1957 0.3706
H10_2 H 1.8151 -1.2255 -0.4145
H10A H 1.1849 0.2255 0.4145
H11A H 2.1053 -1.1343 -0.4724
H12A H 2.1630 -1.2372 -0.4473
H13A H 2.2339 -1.1757 -0.4612
H14A H 2.1707 -1.1132 -0.2367
H15A H 2.0798 -1.1571 -0.2203
H16A H 2.0460 -1.0563 -0.2534
H17A H 1.9838 -1.1963 -0.4237
H18A H 1.9184 -1.1225 -0.2614
H19A H 1.7534 -1.1643 -0.2482
H20A H 1.7015 -1.1694 -0.2999
H21A H 1.7765 -0.9246 -0.2196
H22A H 1.6959 -0.9463 -0.1716
H23A H 1.7169 -0.8564 -0.1859
H24A H 1.3392 -0.7681 -0.3465
H25A H 1.4242 -0.7407 -0.3899
H26A H 1.3565 -0.6782 -0.3538
H27A H 1.7330 -1.0257 -0.2359
H28A H 1.4680 -0.8838 -0.3734
H29_2 H 1.5820 -1.1066 -0.3596
H29A H 1.4180 0.1066 0.3596
H30_2 H 1.4836 -1.0191 -0.3859
H30A H 1.5164 0.0191 0.3859
H31A H 1.4632 -0.5482 -0.2894
H32A H 1.3676 -0.5218 -0.3320
H33A H 1.4701 -0.6100 -0.3261
H34A H 1.1181 -0.7079 -0.1637
H35A H 1.2135 -0.7496 -0.1190
H36A H 1.2108 -0.8001 -0.1614
H37A H 1.3150 -0.4547 -0.2647
H38A H 1.1271 -0.6010 -0.1355
H39A H 1.0072 -0.4697 -0.1186
H40A H 1.0315 -0.3810 -0.1419
H41A H 1.1810 -0.7168 0.0225
H42A H 1.0650 -0.6619 0.0417
H43A H 1.1488 -0.7410 0.0851
H44A H 1.2270 -0.4064 0.0871
H45A H 1.3523 -0.4581 0.0778
H46A H 1.3000 -0.4817 0.1363
H47A H 1.1107 -0.5821 -0.0398
H48A H 1.2313 -0.3815 -0.0022
H49A H 1.0893 -0.2916 -0.1250
H50A H 1.1383 -0.2702 -0.0789
H51A H 1.5030 -0.6489 0.0256
H52A H 1.5528 -0.7521 0.0521
H53A H 1.4247 -0.7046 0.0404
H54A H 1.4669 -0.6998 0.2813
H55A H 1.4296 -0.5971 0.2531
H56A H 1.3425 -0.6447 0.2631
H57A H 1.6724 -0.6921 0.0686
H58A H 1.6098 -0.6514 0.2411
H59A H 1.1951 -0.3171 -0.2514
H60A H 1.1175 -0.3143 -0.2000
O36 O 0.420(4) 0.436(3) 0.9003(17)
O37 O 0.846(4) 0.404(3) 0.7784(18)
N7 N 0.636(2) 0.2299(16) 0.5458(9)
C67 C 0.705(2) 0.1592(16) 0.5694(10)
C68 C 0.792(3) 0.079(2) 0.5902(13)
N8 N 0.9234(19) 0.1100(15) 0.6879(9)
C69 C 0.864(3) 0.1778(18) 0.6890(11)
C70 C 0.773(4) 0.264(3) 0.6800(15)
Mo7 Mo 0.18762(12) 0.43434(8) 0.39886(5)
Mo8 Mo 0.20557(11) 0.28928(8) 0.53233(6)
Mo9 Mo 0.27691(12) 0.47764(9) 0.50997(7)
Mo10 Mo -0.07519(12) 0.31239(8) 0.54273(7)
Mo11 Mo -0.07951(11) 0.42562(8) 0.40176(5)
Mo12 Mo -0.04413(11) 0.63078(8) 0.36243(5)
P2 P 0.0000 0.5000 0.5000
O38 O 0.2732(11) 0.3971(8) 0.3541(6)
O39 O 0.3050(9) 0.1930(6) 0.5514(5)
O40 O 0.4013(8) 0.4716(8) 0.5112(6)
O41 O -0.1042(10) 0.2227(7) 0.5582(5)
O42 O -0.1235(12) 0.3946(8) 0.3558(7)
O43 O -0.0553(11) 0.6910(9) 0.3004(6)
O44 O 0.0640(10) 0.3987(6) 0.3889(5)
O45 O 0.1034(9) 0.5451(7) 0.3608(5)
O46 O 0.2419(17) 0.3126(13) 0.4537(8)
O47 O 0.2953(19) 0.4554(14) 0.4293(9)
O48 O 0.3085(16) 0.3562(12) 0.5312(7)
O49 O -0.1552(16) 0.6708(13) 0.4089(8)
O50 O -0.0964(9) 0.5480(7) 0.3617(5)
O51 O -0.2368(17) 0.4817(13) 0.4233(8)
O52 O -0.0706(12) 0.3362(9) 0.4624(6)
O53 O 0.2068(12) 0.6012(8) 0.4680(6)
O54 O 0.0469(12) 0.6763(12) 0.3953(7)
O55 O 0.1185(16) 0.4473(12) 0.4860(8)
O56 O -0.0261(15) 0.5933(11) 0.4586(7)
O57 O -0.0749(16) 0.4600(11) 0.4839(8)
O58 O 0.0083(14) 0.4980(11) 0.4456(7)
O59 O 0.0838(11) 0.2647(11) 0.5310(7)
Mo7A Mo -0.18762(12) 0.56566(8) 0.60114(5)
Mo8A Mo -0.20557(11) 0.71072(8) 0.46767(6)
Mo9A Mo -0.27691(12) 0.52236(9) 0.49003(7)
Mo10A Mo 0.07519(12) 0.68761(8) 0.45727(7)
Mo11A Mo 0.07951(11) 0.57438(8) 0.59824(5)
Mo12A Mo 0.04413(11) 0.36922(8) 0.63757(5)
O38A O -0.2732(11) 0.6029(8) 0.6459(6)
O39A O -0.3050(9) 0.8070(6) 0.4486(5)
O40A O -0.4013(8) 0.5284(8) 0.4888(6)
O41A O 0.1042(10) 0.7773(7) 0.4418(5)
O42A O 0.1235(12) 0.6054(8) 0.6442(7)
O43A O 0.0553(11) 0.3090(9) 0.6996(6)
O44A O -0.0640(10) 0.6013(6) 0.6111(5)
O45A O -0.1034(9) 0.4549(7) 0.6392(5)
O46A O -0.2419(17) 0.6874(13) 0.5463(8)
O47A O -0.2953(19) 0.5446(14) 0.5707(9)
O48A O -0.3085(16) 0.6438(12) 0.4688(7)
O49A O 0.1552(16) 0.3292(13) 0.5911(8)
O50A O 0.0964(9) 0.4520(7) 0.6383(5)
O51A O 0.2368(17) 0.5183(13) 0.5767(8)
O52A O 0.0706(12) 0.6638(9) 0.5376(6)
O53A O -0.2068(12) 0.3988(8) 0.5320(6)
O54A O -0.0469(12) 0.3237(12) 0.6047(7)
O55A O -0.1185(16) 0.5527(12) 0.5140(8)
O56A O 0.0261(15) 0.4067(11) 0.5414(7)
O57A O 0.0749(16) 0.5400(11) 0.5161(8)
O58A O -0.0083(14) 0.5020(11) 0.5544(7)
O59A O -0.0838(11) 0.7353(11) 0.4690(7)
Mo1 Mo -0.07709(12) -0.07430(8) 0.90056(5)
Mo2 Mo -0.03135(12) 0.12798(8) 0.86185(5)
Mo3 Mo 0.19235(10) -0.07226(7) 0.90251(5)
Mo4 Mo 0.24396(11) -0.18201(8) 1.04446(6)
Mo5 Mo 0.25322(11) 0.03188(9) 0.98968(6)
Mo6 Mo 0.00503(13) 0.21468(8) 0.96492(6)
P1 P 0.0000 0.0000 1.0000
O1 O -0.1061(9) -0.1125(8) 0.8536(5)
O2 O -0.0522(9) 0.1852(8) 0.7987(5)
O3 O 0.2816(12) -0.0991(8) 0.8558(6)
O4 O 0.3560(9) -0.2686(8) 1.0613(5)
O5 O 0.3706(8) 0.0414(9) 0.9890(5)
O6 O 0.0133(9) 0.3134(7) 0.9444(5)
O7 O 0.1781(19) 0.1543(14) 0.9654(9)
O8 O -0.0117(17) 0.2173(13) 0.8827(8)
O9 O 0.1011(10) 0.0488(7) 0.8608(7)
O10 O 0.2570(11) -0.0055(7) 0.9309(5)
O11 O 0.2894(10) -0.0892(8) 1.0327(5)
O12 O 0.2465(13) -0.1595(8) 0.9641(5)
O13 O 0.0828(10) -0.1060(7) 0.8894(7)
O14 O -0.0919(9) 0.0376(7) 0.8626(6)
O15 O -0.0253(12) -0.1818(8) 0.9618(5)
O16 O -0.1400(12) 0.2350(10) 0.9655(6)
O17 O -0.1790(13) 0.1732(11) 0.8926(7)
O18 O -0.2013(14) -0.0427(9) 0.9363(6)
O19 O -0.0520(13) 0.0920(10) 0.9607(7)
O20 O 0.0225(14) -0.0028(10) 0.9409(7)
O21 O 0.1145(14) -0.0375(10) 0.9892(7)
O22 O 0.0643(13) 0.0553(10) 1.0098(7)
Mo1A Mo 0.07709(12) 0.07430(8) 1.09944(5)
Mo2A Mo 0.03135(12) -0.12798(8) 1.13815(5)
Mo3A Mo -0.19235(10) 0.07226(7) 1.09749(5)
Mo4A Mo -0.24396(11) 0.18201(8) 0.95554(6)
Mo5A Mo -0.25322(11) -0.03188(9) 1.01032(6)
Mo6A Mo -0.00503(13) -0.21468(8) 1.03508(6)
O1A O 0.1061(9) 0.1125(8) 1.1464(5)
O2A O 0.0522(9) -0.1852(8) 1.2013(5)
O3A O -0.2816(12) 0.0991(8) 1.1442(6)
O4A O -0.3560(9) 0.2686(8) 0.9387(5)
O5A O -0.3706(8) -0.0414(9) 1.0110(5)
O6A O -0.0133(9) -0.3134(7) 1.0556(5)
O7A O -0.1781(19) -0.1543(14) 1.0346(9)
O8A O 0.0117(17) -0.2173(13) 1.1173(8)
O9A O -0.1011(10) -0.0488(7) 1.1392(7)
O10A O -0.2570(11) 0.0055(7) 1.0691(5)
O11A O -0.2894(10) 0.0892(8) 0.9673(5)
O12A O -0.2465(13) 0.1595(8) 1.0359(5)
O13A O -0.0828(10) 0.1060(7) 1.1106(7)
O14A O 0.0919(9) -0.0376(7) 1.1374(6)
O15A O 0.0253(12) 0.1818(8) 1.0382(5)
O16A O 0.1400(12) -0.2350(10) 1.0345(6)
O17A O 0.1790(13) -0.1732(11) 1.1074(7)
O18A O 0.2013(14) 0.0427(9) 1.0637(6)
O19A O 0.0520(13) -0.0920(10) 1.0393(7)
O20A O -0.0225(14) 0.0028(10) 1.0591(7)
O21A O -0.1145(14) 0.0375(10) 1.0108(7)
O22A O -0.0643(13) -0.0553(10) 0.9902(7)
O60? O 0.1925(19) 0.3353(14) 0.4666(9)
O61? O 0.2427(19) 0.4728(14) 0.4443(9)
O62? O 0.2496(18) 0.3781(13) 0.5424(8)
O63? O 0.1631(17) 0.2874(14) 0.6168(9)
O64? O 0.210(2) 0.5008(15) 0.5631(10)
O65? O 0.1399(18) 0.1356(14) 0.9593(9)
O66? O 0.0224(15) 0.1741(12) 0.9046(8)
O67? O 0.485(5) 0.426(4) 0.852(3)
O68? O 0.729(4) 0.401(3) 0.7709(15)
C71? C 0.617(6) 0.290(5) 0.560(3)
C72? C 0.627(7) 0.313(5) 0.600(3)
C73? C 0.859(5) 0.083(4) 0.649(2)
C74? C 0.811(4) 0.068(3) 0.6060(19)
C75? C 0.121(5) 0.423(4) 1.230(2)
C76? C 0.046(6) 0.496(5) 1.251(3)
loop_
_geom_bond_atom_site_label_1
_geom_bond_atom_site_label_2
_geom_bond_site_symmetry_1
_geom_bond_site_symmetry_2
Mo1 O1 1_555 1_555
Mo2 O2 1_555 1_555
Mo3 O3 1_555 1_555
Mo4 O4 1_555 1_555
Mo5 O5 1_555 1_555
Mo6 O6 1_555 1_555
P1 O19 1_555 1_555
O7 Mo5 1_555 1_555
O8 Mo2 1_555 1_555
O9 Mo2 1_555 1_555
O10 Mo3 1_555 1_555
O11 Mo4 1_555 1_555
O12 Mo3 1_555 1_555
O13 Mo1 1_555 1_555
O14 Mo1 1_555 1_555
O15 Mo1 1_555 1_555
O16 Mo6 1_555 1_555
O17 Mo2 1_555 1_555
O18 Mo1 1_555 1_555
O19 O20 1_555 1_555
O20 Mo3 1_555 1_555
O21 P1 1_555 1_555
O22 Mo5 1_555 1_555
Na1 O23 1_555 1_555
Na2 O27 1_555 1_555
Na3 O31 1_555 1_555
O23 C1 1_555 1_555
O24 Na1 1_555 1_555
O25 Na1 1_555 1_555
O26 Na1 1_555 1_555
O27 C19 1_555 1_555
O28 Na2 1_555 1_555
O29 Na2 1_555 1_555
O30 Na2 1_555 1_555
O31 C37 1_555 1_555
O32 Na3 1_555 1_555
O33 Na3 1_555 1_555
O34 Na3 1_555 1_555
O35 Na2 1_555 1_555
N1 Na1 1_555 1_555
N2 Na1 1_555 1_555
N3 Na2 1_555 1_555
N4 Na2 1_555 1_555
N5 Na3 1_555 1_555
N6 Na3 1_555 1_555
C1 H1 1_555 1_555
C2 O24 1_555 1_555
C3 O23 1_555 1_555
C4 O24 1_555 1_555
C5 C3 1_555 1_555
C6 C4 1_555 1_555
C7 C5 1_555 1_555
C8 C6 1_555 1_555
C9 C8 1_555 1_555
C10 O25 1_555 1_555
C11 O26 1_555 1_555
C12 O25 1_555 1_555
C13 O26 1_555 1_555
C14 C12 1_555 1_555
C15 C13 1_555 1_555
C16 C9 1_555 1_555
C17 C15 1_555 1_555
C18 C17 1_555 1_555
C19 H21 1_555 1_555
C20 O28 1_555 1_555
C21 O27 1_555 1_555
C22 O28 1_555 1_555
C23 C21 1_555 1_555
C24 C22 1_555 1_555
C25 C18 1_555 1_555
C26 C24 1_555 1_555
C27 C7 1_555 1_555
C28 O29 1_555 1_555
C29 O30 1_555 1_555
C30 O29 1_555 1_555
C31 O30 1_555 1_555
C32 C30 1_555 1_555
C33 C31 1_555 1_555
C34 C32 1_555 1_555
C35 C33 1_555 1_555
C36 C35 1_555 1_555
C37 H41 1_555 1_555
C38 O32 1_555 1_555
C39 O31 1_555 1_555
C40 O32 1_555 1_555
C41 C39 1_555 1_555
C42 C40 1_555 1_555
C43 C36 1_555 1_555
C44 C42 1_555 1_555
C45 C44 1_555 1_555
C46 O33 1_555 1_555
C47 O34 1_555 1_555
C48 O33 1_555 1_555
C49 O34 1_555 1_555
C50 C48 1_555 1_555
C51 C49 1_555 1_555
C52 C45 1_555 1_555
C53 C51 1_555 1_555
C54 C34 1_555 1_555
C55 N1 1_555 1_555
C56 C55 1_555 1_555
C57 N2 1_555 1_555
C58 C57 1_555 1_555
C59 N3 1_555 1_555
C60 C59 1_555 1_555
C61 N4 1_555 1_555
C62 C61 1_555 1_555
C63 N5 1_555 1_555
C64 C63 1_555 1_555
C65 N6 1_555 1_555
C66 C65 1_555 1_555
H2 C1 1_555 1_555
H3 C1 1_555 1_555
H4 C2 1_555 1_555
H5 C2 1_555 1_555
H6 C2 1_555 1_555
H7 C5 1_555 1_555
H8 C6 1_555 1_555
H9 C9 1_555 1_555
H10 C9 1_555 1_555
H11 C10 1_555 1_555
H12 C10 1_555 1_555
H13 C10 1_555 1_555
H14 C11 1_555 1_555
H15 C11 1_555 1_555
H16 C11 1_555 1_555
H17 C14 1_555 1_555
H18 C15 1_555 1_555
H19 C18 1_555 1_555
H20 C18 1_555 1_555
H22 C19 1_555 1_555
H23 C19 1_555 1_555
H24 C20 1_555 1_555
H25 C20 1_555 1_555
H26 C20 1_555 1_555
H27 C23 1_555 1_555
H28 C24 1_555 1_555
H29 C27 1_555 1_555
H30 C27 1_555 1_555
H31 C28 1_555 1_555
H32 C28 1_555 1_555
H33 C28 1_555 1_555
H34 C29 1_555 1_555
H35 C29 1_555 1_555
H36 C29 1_555 1_555
H37 C32 1_555 1_555
H38 C33 1_555 1_555
H39 C36 1_555 1_555
H40 C36 1_555 1_555
H42 C37 1_555 1_555
H43 C37 1_555 1_555
H44 C38 1_555 1_555
H45 C38 1_555 1_555
H46 C38 1_555 1_555
H47 C41 1_555 1_555
H48 C42 1_555 1_555
H49 C45 1_555 1_555
H50 C45 1_555 1_555
H51 C46 1_555 1_555
H52 C46 1_555 1_555
H53 C46 1_555 1_555
H54 C47 1_555 1_555
H55 C47 1_555 1_555
H56 C47 1_555 1_555
H57 C50 1_555 1_555
H58 C51 1_555 1_555
H59 C54 1_555 1_555
H60 C54 1_555 1_555
N7 C67 1_555 1_555
C67 C68 1_555 1_555
N8 C69 1_555 1_555
C69 C70 1_555 1_555
Mo7 O38 1_555 1_555
Mo8 O39 1_555 1_555
Mo9 O40 1_555 1_555
Mo10 O41 1_555 1_555
Mo11 O42 1_555 1_555
Mo12 O43 1_555 1_555
P2 O55 1_555 1_555
O44 Mo7 1_555 1_555
O45 Mo7 1_555 1_555
O46 Mo7 1_555 1_555
O47 Mo7 1_555 1_555
O48 Mo8 1_555 1_555
O49 Mo12 1_555 1_555
O50 Mo11 1_555 1_555
O51 Mo11 1_555 1_555
O52 Mo10 1_555 1_555
O53 Mo9 1_555 1_555
O54 Mo12 1_555 1_555
O55 Mo7 1_555 1_555
O56 Mo12 1_555 1_555
O57 Mo11 1_555 1_555
O58 P2 1_555 1_555
O59 Mo8 1_555 1_555
Mo1A O1A 1_555 1_555
Mo2A O2A 1_555 1_555
Mo3A O3A 1_555 1_555
Mo4A O16 1_555 1_555
Mo5A O18 1_555 1_555
Mo6A O15 1_555 1_555
O4A Mo4A 1_555 1_555
O5A Mo5A 1_555 1_555
O6A Mo6A 1_555 1_555
O7A Mo5A 1_555 1_555
O8A Mo2A 1_555 1_555
O9A Mo2A 1_555 1_555
O10A Mo3A 1_555 1_555
O11A Mo4A 1_555 1_555
O12A Mo3A 1_555 1_555
O13A Mo1A 1_555 1_555
O14A Mo1A 1_555 1_555
O15A Mo6 1_555 1_555
O16A Mo4 1_555 1_555
O17A Mo4 1_555 1_555
O18A Mo5 1_555 1_555
O19A P1 1_555 1_555
O20A P1 1_555 1_555
O21A P1 1_555 1_555
O22A P1 1_555 1_555
Na1A O23A 1_555 1_555
Na1A_2 O23A_2 1_555 1_555
Na2A O27A 1_555 1_555
Na3A O31A 1_555 1_555
O23A C1A 1_555 1_555
O23_2 C3_2 1_555 1_555
O24A Na1A 1_555 1_555
O24A_2 Na1A_2 1_555 1_555
O24_2 C4_2 1_555 1_555
O25A Na1A_2 1_555 1_555
O25A_2 Na1A 1_555 1_555
O26A Na1A_2 1_555 1_555
O26A_2 Na1A 1_555 1_555
O27A C19A 1_555 1_555
O28A Na2A 1_555 1_555
O29A Na2A 1_555 1_555
O30A Na2A 1_555 1_555
O31A C37A 1_555 1_555
O32A Na3A 1_555 1_555
O33A Na3A 1_555 1_555
O34A Na3A 1_555 1_555
O35A Na2A 1_555 1_555
N1A Na1A_2 1_555 1_555
N1A_2 Na1A 1_555 1_555
N2A Na1A_2 1_555 1_555
N2A_2 Na1A 1_555 1_555
N3A Na2A 1_555 1_555
N4A Na2A 1_555 1_555
N5A Na3A 1_555 1_555
N6A Na3A 1_555 1_555
C1A H1A 1_555 1_555
C2A O24A 1_555 1_555
C3A O23A 1_555 1_555
C3_2 C4_2 1_555 1_555
C4A O24A 1_555 1_555
C4_2 C6_2 1_555 1_555
C5A C3A 1_555 1_555
C5_2 C3_2 1_555 1_555
C6A C4A 1_555 1_555
C6_2 C8_2 1_555 1_555
C7A C5A 1_555 1_555
C7_2 C5_2 1_555 1_555
C8A C6A 1_555 1_555
C8_2 C7_2 1_555 1_555
C9A C8A 1_555 1_555
C9_2 C8_2 1_555 1_555
C10A O25A 1_555 1_555
C11A O26A 1_555 1_555
C12A O25A 1_555 1_555
C13A O26A 1_555 1_555
C14A C12A 1_555 1_555
C14A_2 C16 1_555 1_555
C15A C13A 1_555 1_555
C16A C14 1_555 1_555
C16_2 C9_2 1_555 1_555
C17A C15A 1_555 1_555
C17A_2 C16 1_555 1_555
C18A C17A 1_555 1_555
C19A H21A 1_555 1_555
C20A O28A 1_555 1_555
C21A O27A 1_555 1_555
C22A O28A 1_555 1_555
C23A C21A 1_555 1_555
C24A C22A 1_555 1_555
C25A C18A 1_555 1_555
C26A C24A 1_555 1_555
C26A_2 C27 1_555 1_555
C27A C26 1_555 1_555
C27_2 C7_2 1_555 1_555
C28A O29A 1_555 1_555
C29A O30A 1_555 1_555
C30A O29A 1_555 1_555
C31A O30A 1_555 1_555
C32A C30A 1_555 1_555
C33A C31A 1_555 1_555
C34A C32A 1_555 1_555
C35A C33A 1_555 1_555
C36A C35A 1_555 1_555
C37A H41A 1_555 1_555
C38A O32A 1_555 1_555
C39A O31A 1_555 1_555
C40A O32A 1_555 1_555
C41A C39A 1_555 1_555
C42A C40A 1_555 1_555
C43A C36A 1_555 1_555
C44A C42A 1_555 1_555
C45A C44A 1_555 1_555
C46A O33A 1_555 1_555
C47A O34A 1_555 1_555
C48A O33A 1_555 1_555
C49A O34A 1_555 1_555
C50A C52 1_555 1_555
C51A C49A 1_555 1_555
C52A C50 1_555 1_555
C53A C52 1_555 1_555
C54A C53 1_555 1_555
C55A N1A 1_555 1_555
C55A_2 N1A_2 1_555 1_555
C56A C55A 1_555 1_555
C56A_2 C55A_2 1_555 1_555
C57A N2A 1_555 1_555
C57A_2 N2A_2 1_555 1_555
C58A C57A 1_555 1_555
C58A_2 C57A_2 1_555 1_555
C59A N3A 1_555 1_555
C60A C59A 1_555 1_555
C61A N4A 1_555 1_555
C62A C61A 1_555 1_555
C63A N5A 1_555 1_555
C64A C63A 1_555 1_555
C65A N6A 1_555 1_555
C66A C65A 1_555 1_555
H2A C1A 1_555 1_555
H3A C1A 1_555 1_555
H4A C2A 1_555 1_555
H5A C2A 1_555 1_555
H6A C2A 1_555 1_555
H7_2 C5_2 1_555 1_555
H7A C5A 1_555 1_555
H8_2 C6_2 1_555 1_555
H8A C6A 1_555 1_555
H9_2 C9_2 1_555 1_555
H9A C9A 1_555 1_555
H10_2 C9_2 1_555 1_555
H10A C9A 1_555 1_555
H11A C10A 1_555 1_555
H12A C10A 1_555 1_555
H13A C10A 1_555 1_555
H14A C11A 1_555 1_555
H15A C11A 1_555 1_555
H16A C11A 1_555 1_555
H17A C14A 1_555 1_555
H18A C15A 1_555 1_555
H19A C18A 1_555 1_555
H20A C18A 1_555 1_555
H22A C19A 1_555 1_555
H23A C19A 1_555 1_555
H24A C20A 1_555 1_555
H25A C20A 1_555 1_555
H26A C20A 1_555 1_555
H27A C23A 1_555 1_555
H28A C24A 1_555 1_555
H29_2 C27_2 1_555 1_555
H29A C27A 1_555 1_555
H30_2 C27_2 1_555 1_555
H30A C27A 1_555 1_555
H31A C28A 1_555 1_555
H32A C28A 1_555 1_555
H33A C28A 1_555 1_555
H34A C29A 1_555 1_555
H35A C29A 1_555 1_555
H36A C29A 1_555 1_555
H37A C32A 1_555 1_555
H38A C33A 1_555 1_555
H39A C36A 1_555 1_555
H40A C36A 1_555 1_555
H42A C37A 1_555 1_555
H43A C37A 1_555 1_555
H44A C38A 1_555 1_555
H45A C38A 1_555 1_555
H46A C38A 1_555 1_555
H47A C41A 1_555 1_555
H48A C42A 1_555 1_555
H49A C45A 1_555 1_555
H50A C45A 1_555 1_555
H51A C46A 1_555 1_555
H52A C46A 1_555 1_555
H53A C46A 1_555 1_555
H54A C47A 1_555 1_555
H55A C47A 1_555 1_555
H56A C47A 1_555 1_555
H57A C50A 1_555 1_555
H58A C51A 1_555 1_555
H59A C54A 1_555 1_555
H60A C54A 1_555 1_555
Mo7A O38A 1_555 1_555
Mo8A O49 1_555 1_555
Mo9A O51 1_555 1_555
Mo10A O53 1_555 1_555
Mo11A O42A 1_555 1_555
Mo12A O43A 1_555 1_555
O39A Mo8A 1_555 1_555
O40A Mo9A 1_555 1_555
O41A Mo10A 1_555 1_555
O44A Mo7A 1_555 1_555
O45A Mo7A 1_555 1_555
O46A Mo7A 1_555 1_555
O47A Mo7A 1_555 1_555
O48A Mo8A 1_555 1_555
O49A Mo8 1_555 1_555
O50A Mo11A 1_555 1_555
O51A Mo9 1_555 1_555
O52A Mo10A 1_555 1_555
O53A Mo10 1_555 1_555
O54A Mo10 1_555 1_555
O55A P2 1_555 1_555
O56A P2 1_555 1_555
O57A P2 1_555 1_555
O58A P2 1_555 1_555
O59A Mo8A 1_555 1_555
Mo2 O14 1_555 1_555
Mo3 O9 1_555 1_555
Mo3 O13 1_555 1_555
Mo4 O12 1_555 1_555
Mo5 O10 1_555 1_555
Mo5 O11 1_555 1_555
Mo6 O7 1_555 1_555
Mo6 O8 1_555 1_555
P1 O20 1_555 1_555
P1 O22 1_555 1_555
O17 Mo4A 1_555 1_555
O19 O21A 1_555 1_555
O20 O21 1_555 1_555
O21 O22 1_555 1_555
O21 O19A 1_555 1_555
C3 C4 1_555 1_555
C7 C8 1_555 1_555
C12 C13 1_555 1_555
C17 C16A 1_555 1_555
C21 C22 1_555 1_555
C23 C25 1_555 1_555
C25 C26 1_555 1_555
C30 C31 1_555 1_555
C34 C35 1_555 1_555
C39 C40 1_555 1_555
C41 C43 1_555 1_555
C43 C44 1_555 1_555
C48 C49 1_555 1_555
C53 C52A 1_555 1_555
C54 C53A 1_555 1_555
Mo8 O46 1_555 1_555
Mo9 O47 1_555 1_555
Mo9 O48 1_555 1_555
Mo10 O59 1_555 1_555
Mo11 O44 1_555 1_555
Mo11 O52 1_555 1_555
Mo12 O45 1_555 1_555
Mo12 O50 1_555 1_555
P2 O56 1_555 1_555
P2 O57 1_555 1_555
O54 Mo10A 1_555 1_555
O55 O58 1_555 1_555
O56 O58 1_555 1_555
O57 O58 1_555 1_555
Mo1A O15A 1_555 1_555
Mo1A O18A 1_555 1_555
Mo2A O14A 1_555 1_555
Mo2A O17A 1_555 1_555
Mo3A O9A 1_555 1_555
Mo3A O13A 1_555 1_555
Mo3A O20A 1_555 1_555
Mo4A O12A 1_555 1_555
Mo5A O10A 1_555 1_555
Mo5A O11A 1_555 1_555
Mo5A O22A 1_555 1_555
Mo6A O7A 1_555 1_555
Mo6A O8A 1_555 1_555
Mo6A O16A 1_555 1_555
O19A O20A 1_555 1_555
O20A O21A 1_555 1_555
O21A O22A 1_555 1_555
C3A C4A 1_555 1_555
C7A C8A 1_555 1_555
C7A C27A 1_555 1_555
C9A C16A 1_555 1_555
C12A C13A 1_555 1_555
C14A C16_2 1_555 1_555
C16_2 C17A 1_555 1_555
C21A C22A 1_555 1_555
C23A C25A 1_555 1_555
C25A C26A 1_555 1_555
C26A C27_2 1_555 1_555
C30A C31A 1_555 1_555
C34A C35A 1_555 1_555
C34A C54A 1_555 1_555
C39A C40A 1_555 1_555
C41A C43A 1_555 1_555
C43A C44A 1_555 1_555
C45A C52A 1_555 1_555
C48A C49A 1_555 1_555
C48A C50A 1_555 1_555
C51A C53A 1_555 1_555
Mo7A O55A 1_555 1_555
Mo8A O46A 1_555 1_555
Mo9A O47A 1_555 1_555
Mo9A O48A 1_555 1_555
Mo9A O53A 1_555 1_555
Mo10A O59A 1_555 1_555
Mo11A O44A 1_555 1_555
Mo11A O51A 1_555 1_555
Mo11A O52A 1_555 1_555
Mo11A O57A 1_555 1_555
Mo12A O45A 1_555 1_555
Mo12A O49A 1_555 1_555
Mo12A O50A 1_555 1_555
Mo12A O54A 1_555 1_555
Mo12A O56A 1_555 1_555
O55A O58A 1_555 1_555
O56A O58A 1_555 1_555
O57A O58A 1_555 1_555

#END
