
#######################################################################
#
#                 Cambridge Crystallographic Data Centre
#                                CCDC 
#
#######################################################################
#
# If this CIF has been generated from an entry in the Cambridge 
# Structural Database, then it will include bibliographic, chemical, 
# crystal, experimental, refinement or atomic coordinate data resulting 
# from the CCDC's data processing and validation procedures.
#
#######################################################################

data_KEGQUI
_symmetry_cell_setting           monoclinic
_symmetry_space_group_name_H-M   'P 21'
_symmetry_Int_Tables_number      4
_space_group_name_Hall           'P 2yb'
loop_
_symmetry_equiv_pos_site_id
_symmetry_equiv_pos_as_xyz
1 x,y,z
2 -x,1/2+y,-z
_cell_length_a                   12.3864(8)
_cell_length_b                   9.7426(13)
_cell_length_c                   17.2440(12)
_cell_angle_alpha                90
_cell_angle_beta                 99.332(6)
_cell_angle_gamma                90
_cell_volume                     2053.39
loop_
_atom_site_label
_atom_site_type_symbol
_atom_site_fract_x
_atom_site_fract_y
_atom_site_fract_z
Cu1 Cu -0.1059(1) -0.1621(1) 0.3829(1)
S3 S -0.0014(2) 0.0165(3) 0.5178(2)
S4 S -0.3394(2) -0.2478(3) 0.3197(2)
O5 O 0.0139(6) 0.1617(9) 0.5331(5)
O6 O 0.0249(6) -0.0672(11) 0.5869(4)
O7 O -0.4056(6) -0.3584(11) 0.3410(5)
O8 O -0.3999(6) -0.1495(11) 0.2684(5)
N6 N -0.1110(5) -0.0180(9) 0.4625(4)
N7 N -0.2609(6) -0.1859(8) 0.3919(5)
N8 N 0.0553(6) -0.0982(9) 0.3880(5)
N9 N -0.1352(6) -0.3012(10) 0.2950(5)
C19 C -0.2101(7) -0.0387(11) 0.5011(6)
C20 C -0.2410(8) 0.0885(13) 0.5461(7)
C21 C -0.3459(8) 0.0630(16) 0.5811(7)
C22 C -0.4391(7) 0.0205(18) 0.5169(7)
C23 C -0.4072(7) -0.1063(13) 0.4689(6)
C24 C -0.3035(7) -0.0736(12) 0.4347(6)
C25 C 0.0929(7) -0.0224(12) 0.4514(6)
C26 C 0.1992(7) 0.0195(15) 0.4707(7)
C27 C 0.2709(7) -0.0105(17) 0.4232(6)
C28 C 0.2333(8) -0.0855(16) 0.3550(7)
C29 C 0.1243(8) -0.1205(15) 0.3383(7)
C30 C -0.2446(8) -0.3273(12) 0.2679(7)
C31 C -0.2788(9) -0.4148(13) 0.2080(7)
C32 C -0.2044(10) -0.4778(17) 0.1700(8)
C33 C -0.0937(10) -0.4585(15) 0.1984(8)
C34 C -0.0622(9) -0.3685(14) 0.2607(7)
H19 H -0.1975(7) -0.1167(11) 0.5374(6)
H20 H -0.2521(8) 0.1663(13) 0.5106(7)
H21 H -0.1814(8) 0.1106(13) 0.5880(7)
H22 H -0.3659(8) 0.1459(16) 0.6065(7)
H23 H -0.3328(8) -0.0088(16) 0.6205(7)
H24 H -0.4584(7) 0.0972(18) 0.4815(7)
H25 H -0.5028(7) -0.0024(18) 0.5405(7)
H26 H -0.3947(7) -0.1858(13) 0.5031(6)
H27 H -0.4667(7) -0.1275(13) 0.4267(6)
H28 H -0.3176(7) 0.0059(12) 0.3998(6)
H29 H 0.2214(7) 0.0687(15) 0.5168(7)
H30 H 0.3435(7) 0.0175(17) 0.4351(6)
H31 H 0.2813(8) -0.1114(16) 0.3213(7)
H32 H 0.0981(8) -0.1613(15) 0.2901(7)
H33 H -0.3531(9) -0.4318(13) 0.1928(7)
H34 H -0.2270(10) -0.5325(17) 0.1262(8)
H35 H -0.0412(10) -0.5054(15) 0.1758(8)
H36 H 0.0119(9) -0.3551(14) 0.2789(7)
Cu1A Cu 0.1059(1) 0.3379(1) 0.6171(1)
O5A O -0.0139(6) -0.3383(9) 0.4669(5)
Cu2 Cu -0.3845(1) -0.0013(1) 0.1172(1)
S1 S -0.4942(2) -0.1599(3) -0.0243(2)
S2 S -0.1522(2) 0.0796(3) 0.1828(2)
O1 O -0.4925(7) -0.3081(9) -0.0310(6)
O2 O -0.5411(5) -0.0909(1) -0.0947(4)
O3 O -0.1129(6) 0.1918(10) 0.1396(5)
O4 O -0.0698(6) 0.0167(11) 0.2407(5)
N1 N -0.3831(5) -0.0952(9) 0.0168(4)
N2 N -0.2266(6) -0.0254(10) 0.1293(5)
N3 N -0.5421(6) -0.0603(10) 0.1114(5)
N4 N -0.3548(7) 0.1407(10) 0.2044(5)
C1 C -0.2798(7) -0.1661(12) 0.0157(6)
C2 C -0.2554(8) -0.2069(16) -0.0638(7)
C3 C -0.1425(9) -0.2739(17) -0.0566(7)
C4 C -0.0539(9) -0.1792(23) -0.0154(8)
C5 C -0.0788(7) -0.1336(13) 0.0651(7)
C6 C -0.1916(7) -0.0684(14) 0.0553(6)
C7 C -0.5842(7) -0.1239(11) 0.0438(6)
C8 C -0.6909(8) -0.1679(16) 0.0248(7)
C9 C -0.7608(9) -0.1349(19) 0.0804(8)
C10 C -0.7193(8) -0.0705(16) 0.1482(7)
C11 C -0.6117(8) -0.0340(13) 0.1623(7)
C12 C -0.2518(8) 0.1542(11) 0.2353(6)
C13 C -0.2138(8) 0.2319(14) 0.3019(7)
C14 C -0.2911(10) 0.3064(15) 0.3350(7)
C15 C -0.3990(10) 0.2969(15) 0.3029(7)
C16 C -0.4285(9) 0.2148(12) 0.2370(7)
H1 H -0.2786(7) -0.2489(12) 0.0481(6)
H2 H -0.2579(8) -0.1263(16) -0.0970(7)
H3 H -0.3107(8) -0.2708(16) -0.0882(7)
H4 H -0.1421(9) -0.3588(17) -0.0272(7)
H5 H -0.1272(9) -0.2959(17) -0.1086(7)
H6 H -0.0485(9) -0.0989(23) -0.0479(8)
H7 H 0.0160(9) -0.2263(23) -0.0085(8)
H8 H -0.0761(7) -0.2123(13) 0.0998(7)
H9 H -0.0241(7) -0.0680(13) 0.0885(7)
H10 H -0.1912(7) 0.0127(14) 0.0218(6)
H11 H -0.7158(8) -0.2160(16) -0.0212(7)
H12 H -0.8347(9) -0.1576(19) 0.0700(8)
H13 H -0.7641(8) -0.0512(16) 0.1852(7)
H14 H -0.5849(8) 0.0110(13) 0.2090(7)
H15 H -0.1399(8) 0.2340(14) 0.3235(7)
H16 H -0.2693(10) 0.3621(15) 0.3785(7)
H17 H -0.4518(10) 0.3445(15) 0.3247(7)
H18 H -0.5018(9) 0.2106(12) 0.2144(7)
N5 N -0.8117(9) -0.3898(19) 0.2154(8)
C17 C -0.6077(9) -0.4178(19) 0.1965(9)
C18 C -0.7221(10) -0.4041(17) 0.2082(8)
N10 N 0.3178(10) 1.2375(17) 0.2801(8)
C35 C 0.1149(9) 1.2709(20) 0.2909(9)
C36 C 0.2288(9) 1.2501(16) 0.2849(8)
loop_
_geom_bond_atom_site_label_1
_geom_bond_atom_site_label_2
_geom_bond_site_symmetry_1
_geom_bond_site_symmetry_2
Cu1 N6 1_555 1_555
Cu2 N1 1_555 1_555
S1 O1 1_555 1_555
S2 O3 1_555 1_555
S3 O5 1_555 1_555
S4 O7 1_555 1_555
O2 S1 1_555 1_555
O4 S2 1_555 1_555
O5 Cu1A 1_555 1_555
O6 S3 1_555 1_555
O8 S4 1_555 1_555
N1 S1 1_555 1_555
N2 Cu2 1_555 1_555
N3 Cu2 1_555 1_555
N4 Cu2 1_555 1_555
N5 C18 1_555 1_555
C1 N1 1_555 1_555
C2 C1 1_555 1_555
C3 C2 1_555 1_555
C4 C3 1_555 1_555
C5 C4 1_555 1_555
C6 N2 1_555 1_555
C7 S1 1_555 1_555
C8 C7 1_555 1_555
C9 C8 1_555 1_555
C10 C9 1_555 1_555
C11 N3 1_555 1_555
C12 S2 1_555 1_555
C13 C12 1_555 1_555
C14 C13 1_555 1_555
C15 C14 1_555 1_555
C16 N4 1_555 1_555
C17 C18 1_555 1_555
N6 S3 1_555 1_555
N7 Cu1 1_555 1_555
N8 Cu1 1_555 1_555
N9 Cu1 1_555 1_555
N10 C36 1_555 1_555
C19 N6 1_555 1_555
C20 C19 1_555 1_555
C21 C20 1_555 1_555
C22 C21 1_555 1_555
C23 C22 1_555 1_555
C24 N7 1_555 1_555
C25 S3 1_555 1_555
C26 C25 1_555 1_555
C27 C26 1_555 1_555
C28 C27 1_555 1_555
C29 N8 1_555 1_555
C30 S4 1_555 1_555
C31 C30 1_555 1_555
C32 C31 1_555 1_555
C33 C32 1_555 1_555
C34 N9 1_555 1_555
C35 C36 1_555 1_555
H1 C1 1_555 1_555
H2 C2 1_555 1_555
H3 C2 1_555 1_555
H4 C3 1_555 1_555
H5 C3 1_555 1_555
H6 C4 1_555 1_555
H7 C4 1_555 1_555
H8 C5 1_555 1_555
H9 C5 1_555 1_555
H10 C6 1_555 1_555
H11 C8 1_555 1_555
H12 C9 1_555 1_555
H13 C10 1_555 1_555
H14 C11 1_555 1_555
H15 C13 1_555 1_555
H16 C14 1_555 1_555
H17 C15 1_555 1_555
H18 C16 1_555 1_555
H19 C19 1_555 1_555
H20 C20 1_555 1_555
H21 C20 1_555 1_555
H22 C21 1_555 1_555
H23 C21 1_555 1_555
H24 C22 1_555 1_555
H25 C22 1_555 1_555
H26 C23 1_555 1_555
H27 C23 1_555 1_555
H28 C24 1_555 1_555
H29 C26 1_555 1_555
H30 C27 1_555 1_555
H31 C28 1_555 1_555
H32 C29 1_555 1_555
H33 C31 1_555 1_555
H34 C32 1_555 1_555
H35 C33 1_555 1_555
H36 C34 1_555 1_555
O5A Cu1 1_555 1_555
S2 N2 1_555 1_555
S4 N7 1_555 1_555
N3 C7 1_555 1_555
N4 C12 1_555 1_555
C1 C6 1_555 1_555
C5 C6 1_555 1_555
C10 C11 1_555 1_555
C15 C16 1_555 1_555
N8 C25 1_555 1_555
N9 C30 1_555 1_555
C19 C24 1_555 1_555
C23 C24 1_555 1_555
C28 C29 1_555 1_555
C33 C34 1_555 1_555

#END
