
#######################################################################
#
#                 Cambridge Crystallographic Data Centre
#                                CCDC 
#
#######################################################################
#
# If this CIF has been generated from an entry in the Cambridge 
# Structural Database, then it will include bibliographic, chemical, 
# crystal, experimental, refinement or atomic coordinate data resulting 
# from the CCDC's data processing and validation procedures.
#
#######################################################################

data_KEGRAR
_symmetry_cell_setting           triclinic
_symmetry_space_group_name_H-M   'P -1'
_symmetry_Int_Tables_number      2
_space_group_name_Hall           '-P 1'
loop_
_symmetry_equiv_pos_site_id
_symmetry_equiv_pos_as_xyz
1 x,y,z
2 -x,-y,-z
_cell_length_a                   11.7831(10)
_cell_length_b                   23.3253(16)
_cell_length_c                   23.6327(19)
_cell_angle_alpha                68.589(4)
_cell_angle_beta                 76.730(5)
_cell_angle_gamma                79.409(4)
_cell_volume                     5849.63
loop_
_atom_site_label
_atom_site_type_symbol
_atom_site_fract_x
_atom_site_fract_y
_atom_site_fract_z
N1 N -0.415(2) 0.5587(10) 0.2352(10)
C1 C -0.391(3) 0.5070(14) 0.2919(14)
H1 H -0.3240 0.5146 0.3054
H2 H -0.3725 0.4680 0.2832
H3 H -0.4601 0.5043 0.3247
C2 C -0.514(3) 0.5518(15) 0.2093(15)
H4 H -0.5254 0.5880 0.1726
H5 H -0.5860 0.5486 0.2403
H6 H -0.4957 0.5143 0.1979
N2 N 0.062(2) 0.6070(11) 0.2608(11)
C3 C -0.049(3) 0.6079(14) 0.3057(14)
H7 H -0.0608 0.5656 0.3337
H8 H -0.1153 0.6248 0.2833
H9 H -0.0456 0.6338 0.3296
C4 C 0.082(4) 0.6693(18) 0.2182(18)
H10 H 0.1552 0.6674 0.1889
H11 H 0.0875 0.6955 0.2415
H12 H 0.0165 0.6868 0.1955
N3 N -0.233(2) 0.4969(12) 0.4958(12)
C5 C -0.357(3) 0.4912(18) 0.5251(18)
H13 H -0.4074 0.5220 0.4980
H14 H -0.3709 0.4981 0.5647
H15 H -0.3753 0.4495 0.5321
C6 C -0.157(4) 0.455(2) 0.529(2)
H16 H -0.0762 0.4610 0.5074
H17 H -0.1722 0.4128 0.5356
H18 H -0.1664 0.4599 0.5697
N4 N -0.495(2) 0.3115(11) 0.3872(11)
C7 C -0.453(3) 0.2471(14) 0.4201(15)
H19 H -0.4754 0.2195 0.4027
H20 H -0.4883 0.2361 0.4640
H21 H -0.3675 0.2429 0.4156
C8 C -0.465(3) 0.3548(17) 0.4109(18)
H22 H -0.4951 0.3970 0.3879
H23 H -0.3797 0.3518 0.4062
H24 H -0.5003 0.3449 0.4547
W1 W -0.63244(10) 0.14504(5) 0.90805(5)
W2 W -0.46977(10) 0.26409(5) 0.86036(5)
W3 W -0.73355(9) 0.28585(5) 0.81917(5)
W4 W -0.38410(10) 0.05422(5) 0.84085(5)
W5 W -0.22082(10) 0.17358(5) 0.79210(5)
W6 W -0.33615(9) 0.32880(5) 0.69454(5)
W7 W -0.60045(9) 0.34863(5) 0.65411(5)
W8 W -0.78113(9) 0.21627(5) 0.70864(5)
W9 W -0.67636(10) 0.07610(5) 0.79630(5)
W10 W -0.26365(9) 0.11090(5) 0.69086(5)
W11 W -0.37443(9) 0.26521(5) 0.59299(5)
Si1 Si -0.5025(5) 0.2009(3) 0.7504(3)
Ru1 Ru -0.55470(19) 0.13954(9) 0.65532(9)
O1 O -0.6909(16) 0.1007(8) 0.9820(8)
O2 O -0.3958(15) 0.1002(8) 0.6705(8)
O3 O -0.4236(17) 0.2987(9) 0.9031(9)
O4 O -0.8595(17) 0.3325(8) 0.8374(9)
O5 O -0.3580(18) -0.0182(9) 0.8937(9)
O6 O -0.0932(17) 0.1760(9) 0.8162(9)
O7 O -0.2464(17) 0.3815(9) 0.6865(9)
O8 O -0.6774(16) 0.4168(8) 0.6184(8)
O9 O -0.9187(15) 0.2443(8) 0.6922(8)
O10 O -0.7469(18) 0.0109(9) 0.8365(9)
O11 O -0.1507(17) 0.0730(9) 0.6520(9)
O12 O -0.4780(14) 0.2145(7) 0.5985(7)
O13 O -0.5961(15) 0.1690(8) 0.7319(8)
O14 O -0.3020(15) 0.2817(8) 0.5184(8)
O15 O -0.5432(16) 0.1970(8) 0.9253(8)
O16 O -0.7512(15) 0.2132(8) 0.8941(8)
O17 O -0.4895(15) 0.0974(8) 0.8923(8)
O18 O -0.6892(17) 0.1114(9) 0.8600(9)
O19 O -0.5621(15) 0.2180(8) 0.8114(8)
O20 O -0.6252(15) 0.3089(8) 0.8550(8)
O21 O -0.3407(15) 0.2065(8) 0.8473(8)
O22 O -0.4213(14) 0.3166(7) 0.7772(7)
O23 O -0.4660(14) 0.2628(7) 0.6942(7)
O24 O -0.6655(16) 0.3386(8) 0.7408(8)
O25 O -0.7886(15) 0.2435(7) 0.7789(8)
O26 O -0.3832(16) 0.1531(8) 0.7620(8)
O27 O -0.2611(16) 0.0938(8) 0.8503(8)
O28 O -0.5208(15) 0.0486(8) 0.8138(8)
O29 O -0.2434(14) 0.2532(7) 0.7314(7)
O30 O -0.4709(15) 0.3812(8) 0.6689(8)
O31 O -0.6967(14) 0.2896(7) 0.6628(7)
O32 O -0.7146(15) 0.1822(8) 0.6472(8)
O33 O -0.8048(15) 0.1354(7) 0.7686(8)
O34 O -0.6302(15) 0.0683(8) 0.7193(8)
O35 O -0.2752(14) 0.1970(7) 0.6355(7)
O36 O -0.2860(16) 0.0423(8) 0.7684(8)
O37 O -0.1608(15) 0.1390(8) 0.7289(8)
O38 O -0.2877(14) 0.3149(7) 0.6186(7)
O39 O -0.4954(15) 0.3349(8) 0.5841(8)
N5 N -0.5308(19) 0.1103(10) 0.5808(10)
C9 C -0.625(2) 0.1019(12) 0.5592(12)
H25 H -0.7016 0.1073 0.5816
C10 C -0.613(2) 0.0870(12) 0.5096(12)
H26 H -0.6797 0.0807 0.4970
C11 C -0.499(2) 0.0804(13) 0.4756(13)
C12 C -0.402(2) 0.0917(12) 0.4944(12)
H27 H -0.3252 0.0898 0.4711
C13 C -0.425(2) 0.1055(12) 0.5477(12)
H28 H -0.3609 0.1120 0.5617
C14 C -0.477(3) 0.0622(15) 0.4166(15)
O40 O -0.382(2) 0.0629(10) 0.3888(10)
O41 O -0.563(2) 0.0486(10) 0.4034(10)
W12 W 0.05749(9) -0.48859(5) 0.80451(5)
W13 W -0.22737(9) -0.51385(5) 0.83921(5)
W14 W -0.12676(9) -0.44122(5) 0.91407(5)
W15 W 0.14721(9) -0.32979(5) 0.72150(5)
W16 W 0.03389(10) -0.41097(5) 0.64037(5)
W17 W -0.25027(10) -0.43491(5) 0.67386(5)
W18 W -0.45503(9) -0.38098(5) 0.79414(5)
W19 W -0.35207(10) -0.30873(5) 0.86863(5)
W20 W -0.03553(10) -0.28275(5) 0.83208(5)
W21 W -0.17070(10) -0.28869(5) 0.59960(5)
W22 W -0.37296(10) -0.23656(5) 0.71848(5)
Si2 Si -0.1512(5) -0.3615(3) 0.7576(3)
Ru2 Ru -0.06469(19) -0.22203(9) 0.69080(10)
O42 O -0.0436(15) -0.2086(8) 0.7672(8)
O43 O -0.1221(13) -0.4285(7) 0.8102(7)
O44 O -0.0881(14) -0.2437(7) 0.6220(7)
O45 O 0.1777(19) -0.5417(10) 0.8132(10)
O46 O -0.2845(16) -0.5839(8) 0.8681(8)
O47 O -0.1259(16) -0.4635(8) 0.9916(8)
O48 O 0.2982(16) -0.3358(8) 0.7035(8)
O49 O 0.1505(17) -0.4415(9) 0.5952(9)
O50 O -0.3179(19) -0.4792(10) 0.6487(10)
O51 O -0.5891(17) -0.4102(9) 0.8118(9)
O52 O -0.4197(18) -0.2887(10) 0.9313(10)
O53 O -0.0026(18) -0.2575(9) 0.8850(9)
O54 O -0.1914(19) -0.2443(10) 0.5270(10)
O55 O -0.2830(15) -0.3320(7) 0.7756(8)
O56 O -0.2385(16) -0.2045(8) 0.7097(8)
O57 O -0.468(2) -0.1732(10) 0.6879(10)
O58 O -0.1383(16) -0.3719(8) 0.6921(8)
O59 O -0.0606(15) -0.3140(8) 0.7512(8)
O60 O 0.1045(16) -0.2479(8) 0.6761(8)
O61 O -0.0644(15) -0.5448(8) 0.8267(8)
O62 O 0.0153(15) -0.4880(8) 0.8876(8)
O63 O 0.1213(15) -0.4141(7) 0.7779(8)
O64 O 0.0437(15) -0.4699(8) 0.7211(8)
O65 O -0.2073(14) -0.5068(7) 0.9148(7)
O66 O -0.2181(15) -0.4932(8) 0.7526(8)
O67 O -0.3616(15) -0.4532(8) 0.8370(8)
O68 O -0.0496(16) -0.3700(8) 0.8811(8)
O69 O -0.2718(14) -0.3891(7) 0.9082(7)
O70 O 0.1187(16) -0.3089(8) 0.7966(8)
O71 O 0.1092(14) -0.3600(7) 0.6640(7)
O72 O -0.0321(18) -0.3390(9) 0.5794(9)
O73 O -0.0927(17) -0.4532(9) 0.6388(9)
O74 O -0.2536(16) -0.3583(8) 0.6062(8)
O75 O -0.3792(16) -0.4017(8) 0.7219(8)
O76 O -0.4894(16) -0.2990(8) 0.7457(8)
O77 O -0.4662(16) -0.3547(8) 0.8647(8)
O78 O -0.2079(15) -0.2787(8) 0.8524(8)
O79 O -0.4123(17) -0.2411(9) 0.8061(9)
O80 O -0.3125(15) -0.2651(8) 0.6505(8)
N6 N -0.0513(19) -0.1326(10) 0.6384(10)
C15 C -0.136(3) -0.0971(13) 0.6083(13)
H29 H -0.2010 -0.1156 0.6078
C16 C -0.132(2) -0.0329(12) 0.5770(12)
H30 H -0.1935 -0.0075 0.5571
C17 C -0.037(3) -0.0100(13) 0.5769(13)
C18 C 0.054(3) -0.0443(13) 0.6035(13)
H31 H 0.1226 -0.0262 0.5991
C19 C 0.045(3) -0.1051(13) 0.6367(13)
H32 H 0.1054 -0.1290 0.6589
C20 C -0.027(3) 0.0627(13) 0.5404(14)
O81 O -0.1162(18) 0.0914(9) 0.5183(9)
O82 O 0.0591(18) 0.0842(9) 0.5395(9)
Cs1 Cs 0.001(3) 0.2073(18) 0.5882(16)
Cs2 Cs -0.3302(19) -0.2890(10) 0.4731(10)
Cs3 Cs -0.963(2) 0.1571(11) 0.9038(11)
Cs4 Cs -0.582(7) 0.033(4) 0.307(4)
Cs5 Cs -0.151(6) 0.211(3) 0.461(3)
O83 O -0.173(2) -0.3970(12) 0.4944(12)
O84 O -0.937(5) 0.032(2) 0.941(2)
O85 O -1.042(6) 0.236(3) 0.974(3)
Cs6 Cs 0.2846(17) -0.2810(9) 0.8702(9)
O86 O 0.207(2) -0.4235(12) 0.9082(12)
O87 O 0.261(3) -0.2949(17) 1.0197(17)
O88 O 0.322(5) -0.402(3) 0.973(3)
O89 O 0.192(4) -0.139(2) 0.887(2)
N7 N -1.342(3) 0.1041(17) 0.9831(17)
C21 C -1.375(5) 0.047(3) 1.021(3)
C22 C -1.218(8) 0.112(4) 0.974(4)
O90 O -0.444(5) 0.113(2) 0.172(2)
N8 N -0.879(4) 0.372(2) 0.940(2)
C23 C -1.015(5) 0.368(2) 0.977(3)
C24 C -0.801(4) 0.328(2) 0.979(2)
O91 O -0.052(4) 0.000(2) 0.857(2)
O92 O 0.030(6) -0.001(3) 0.734(3)
O93 O -0.740(6) -0.017(3) 0.698(3)
O94 O -0.312(6) 0.544(3) 0.108(3)
O95 O -0.485(6) 0.609(3) 0.038(3)
O96 O -0.417(7) 0.187(4) 1.042(4)
Cs7? Cs -0.9677(8) 0.1860(4) 0.6012(4)
Cs8? Cs -1.034(4) 0.233(2) 0.609(2)
Cs9? Cs -0.3644(13) -0.0571(6) 0.7240(6)
Cs10? Cs -0.422(5) -0.049(2) 0.725(3)
Cs11? Cs -0.733(4) 0.1706(19) 1.0734(19)
O97? O -0.415(10) 0.234(5) 0.595(5)
O98? O -0.678(5) 0.171(2) 1.077(2)
O99? O -0.898(4) 0.140(2) 1.068(2)
O100? O -1.028(5) 0.302(3) 0.564(3)
O101? O -0.674(4) -0.041(2) 0.713(2)
O102? O -0.271(4) 0.191(2) 0.248(2)
O103? O -0.117(5) -0.098(3) 0.786(3)
O104? O -0.832(4) 0.129(2) 1.086(2)
O105? O -1.110(3) 0.2103(13) 0.4762(13)
O106? O -0.320(7) 0.216(4) 0.197(4)
O107? O -0.008(7) 0.025(4) 0.815(4)
O108? O -0.017(9) 0.021(4) 0.774(5)
O109? O -0.977(3) 0.3677(14) 0.9679(15)
loop_
_geom_bond_atom_site_label_1
_geom_bond_atom_site_label_2
_geom_bond_site_symmetry_1
_geom_bond_site_symmetry_2
N1 C1 1_555 1_555
C1 H1 1_555 1_555
H2 C1 1_555 1_555
H3 C1 1_555 1_555
C2 N1 1_555 1_555
H4 C2 1_555 1_555
H5 C2 1_555 1_555
H6 C2 1_555 1_555
N2 C3 1_555 1_555
C3 H7 1_555 1_555
H8 C3 1_555 1_555
H9 C3 1_555 1_555
C4 N2 1_555 1_555
H10 C4 1_555 1_555
H11 C4 1_555 1_555
H12 C4 1_555 1_555
N3 C5 1_555 1_555
C5 H13 1_555 1_555
H14 C5 1_555 1_555
H15 C5 1_555 1_555
C6 N3 1_555 1_555
H16 C6 1_555 1_555
H17 C6 1_555 1_555
H18 C6 1_555 1_555
N4 C7 1_555 1_555
C7 H19 1_555 1_555
H20 C7 1_555 1_555
H21 C7 1_555 1_555
C8 N4 1_555 1_555
H22 C8 1_555 1_555
H23 C8 1_555 1_555
H24 C8 1_555 1_555
W1 O1 1_555 1_555
W2 O3 1_555 1_555
W3 O4 1_555 1_555
W4 O5 1_555 1_555
W5 O6 1_555 1_555
W6 O7 1_555 1_555
W7 O8 1_555 1_555
W8 O9 1_555 1_555
W9 O10 1_555 1_555
W10 O2 1_555 1_555
W11 O12 1_555 1_555
Si1 O13 1_555 1_555
Ru1 O2 1_555 1_555
O11 W10 1_555 1_555
O12 Ru1 1_555 1_555
O13 W8 1_555 1_555
O14 W11 1_555 1_555
O15 W1 1_555 1_555
O16 W1 1_555 1_555
O17 W1 1_555 1_555
O18 W1 1_555 1_555
O19 W1 1_555 1_555
O20 W2 1_555 1_555
O21 W2 1_555 1_555
O22 W2 1_555 1_555
O23 W6 1_555 1_555
O24 W3 1_555 1_555
O25 W3 1_555 1_555
O26 W4 1_555 1_555
O27 W4 1_555 1_555
O28 W4 1_555 1_555
O29 W5 1_555 1_555
O30 W6 1_555 1_555
O31 W7 1_555 1_555
O32 W8 1_555 1_555
O33 W8 1_555 1_555
O34 W9 1_555 1_555
O35 W10 1_555 1_555
O36 W4 1_555 1_555
O37 W5 1_555 1_555
O38 W6 1_555 1_555
O39 W7 1_555 1_555
N5 Ru1 1_555 1_555
C9 N5 1_555 1_555
H25 C9 1_555 1_555
C10 C9 1_555 1_555
H26 C10 1_555 1_555
C11 C10 1_555 1_555
C12 C11 1_555 1_555
H27 C12 1_555 1_555
C13 N5 1_555 1_555
H28 C13 1_555 1_555
C14 C11 1_555 1_555
O40 C14 1_555 1_555
O41 C14 1_555 1_555
W12 O43 1_555 1_555
W13 O43 1_555 1_555
W14 O43 1_555 1_555
W15 O48 1_555 1_555
W16 O49 1_555 1_555
W17 O50 1_555 1_555
W18 O51 1_555 1_555
W19 O52 1_555 1_555
W20 O42 1_555 1_555
W21 O44 1_555 1_555
W22 O55 1_555 1_555
Si2 O43 1_555 1_555
Ru2 O42 1_555 1_555
O44 Ru2 1_555 1_555
O45 W12 1_555 1_555
O46 W13 1_555 1_555
O47 W14 1_555 1_555
O53 W20 1_555 1_555
O54 W21 1_555 1_555
O55 W18 1_555 1_555
O56 W22 1_555 1_555
O57 W22 1_555 1_555
O58 W16 1_555 1_555
O59 W15 1_555 1_555
O60 W15 1_555 1_555
O61 W12 1_555 1_555
O62 W12 1_555 1_555
O63 W12 1_555 1_555
O64 W12 1_555 1_555
O65 W13 1_555 1_555
O66 W13 1_555 1_555
O67 W13 1_555 1_555
O68 W14 1_555 1_555
O69 W14 1_555 1_555
O70 W15 1_555 1_555
O71 W15 1_555 1_555
O72 W16 1_555 1_555
O73 W16 1_555 1_555
O74 W17 1_555 1_555
O75 W17 1_555 1_555
O76 W18 1_555 1_555
O77 W18 1_555 1_555
O78 W19 1_555 1_555
O79 W19 1_555 1_555
O80 W21 1_555 1_555
N6 Ru2 1_555 1_555
C15 N6 1_555 1_555
H29 C15 1_555 1_555
C16 C15 1_555 1_555
H30 C16 1_555 1_555
C17 C16 1_555 1_555
C18 C17 1_555 1_555
H31 C18 1_555 1_555
C19 N6 1_555 1_555
H32 C19 1_555 1_555
C20 C17 1_555 1_555
O81 C20 1_555 1_555
O82 C20 1_555 1_555
N7 C21 1_555 1_555
C22 N7 1_555 1_555
N8 C23 1_555 1_555
C24 N8 1_555 1_555
W2 O15 1_555 1_555
W2 O19 1_555 1_555
W3 O16 1_555 1_555
W3 O19 1_555 1_555
W3 O20 1_555 1_555
W4 O17 1_555 1_555
W5 O21 1_555 1_555
W5 O26 1_555 1_555
W5 O27 1_555 1_555
W6 O22 1_555 1_555
W6 O29 1_555 1_555
W7 O23 1_555 1_555
W7 O24 1_555 1_555
W7 O30 1_555 1_555
W8 O25 1_555 1_555
W8 O31 1_555 1_555
W9 O13 1_555 1_555
W9 O18 1_555 1_555
W9 O28 1_555 1_555
W9 O33 1_555 1_555
W10 O26 1_555 1_555
W10 O36 1_555 1_555
W10 O37 1_555 1_555
W11 O23 1_555 1_555
W11 O35 1_555 1_555
W11 O38 1_555 1_555
W11 O39 1_555 1_555
Si1 O19 1_555 1_555
Si1 O23 1_555 1_555
Si1 O26 1_555 1_555
Ru1 O13 1_555 1_555
Ru1 O32 1_555 1_555
Ru1 O34 1_555 1_555
C12 C13 1_555 1_555
W13 O61 1_555 1_555
W14 O62 1_555 1_555
W14 O65 1_555 1_555
W15 O63 1_555 1_555
W16 O64 1_555 1_555
W16 O71 1_555 1_555
W17 O58 1_555 1_555
W17 O66 1_555 1_555
W17 O73 1_555 1_555
W18 O67 1_555 1_555
W18 O75 1_555 1_555
W19 O55 1_555 1_555
W19 O69 1_555 1_555
W19 O77 1_555 1_555
W20 O59 1_555 1_555
W20 O68 1_555 1_555
W20 O70 1_555 1_555
W20 O78 1_555 1_555
W21 O58 1_555 1_555
W21 O72 1_555 1_555
W21 O74 1_555 1_555
W22 O76 1_555 1_555
W22 O79 1_555 1_555
W22 O80 1_555 1_555
Si2 O55 1_555 1_555
Si2 O58 1_555 1_555
Si2 O59 1_555 1_555
Ru2 O56 1_555 1_555
Ru2 O59 1_555 1_555
Ru2 O60 1_555 1_555
C18 C19 1_555 1_555

#END
