
#######################################################################
#
#                 Cambridge Crystallographic Data Centre
#                                CCDC 
#
#######################################################################
#
# If this CIF has been generated from an entry in the Cambridge 
# Structural Database, then it will include bibliographic, chemical, 
# crystal, experimental, refinement or atomic coordinate data resulting 
# from the CCDC's data processing and validation procedures.
#
#######################################################################

data_KEGYEB
_symmetry_cell_setting           triclinic
_symmetry_space_group_name_H-M   'P -1'
_symmetry_Int_Tables_number      2
_space_group_name_Hall           '-P 1'
loop_
_symmetry_equiv_pos_site_id
_symmetry_equiv_pos_as_xyz
1 x,y,z
2 -x,-y,-z
_cell_length_a                   8.0380(7)
_cell_length_b                   10.1220(9)
_cell_length_c                   13.8458(12)
_cell_angle_alpha                76.3450(10)
_cell_angle_beta                 80.9370(10)
_cell_angle_gamma                68.7230(10)
_cell_volume                     1016.83
loop_
_atom_site_label
_atom_site_type_symbol
_atom_site_fract_x
_atom_site_fract_y
_atom_site_fract_z
Ag1 Ag 0.13385(5) 1.34435(4) -0.03217(3)
Ag2 Ag -0.12105(6) 1.95945(4) -0.06857(3)
Ag3 Ag 0.14578(5) 1.34427(4) -0.31351(3)
Ag4 Ag 0.87023(5) 1.36010(4) -0.54022(3)
Ag5 Ag 0.46994(5) 1.36147(4) -0.43424(3)
Ag6 Ag 0.80627(5) 2.08610(4) -0.45348(3)
O1 O 0.1391(4) 1.6017(3) -0.0441(2)
O2 O 0.0723(4) 1.8077(3) -0.1567(2)
O3 O 0.2522(4) 1.4090(4) -0.1996(2)
O4 O 0.5222(4) 1.3434(3) -0.2801(2)
O5 O 0.7221(4) 1.2078(3) -0.0952(3)
O6 O 0.9450(4) 1.2532(4) -0.1925(3)
O7 O 0.8892(4) 1.4255(3) -0.4025(2)
O8 O 0.6064(4) 1.5664(4) -0.4130(2)
O9 O 0.8061(4) 1.7680(4) -0.4148(2)
O10 O 0.6158(4) 1.9475(3) -0.3456(2)
O11 O 0.3489(4) 1.8457(3) -0.4207(2)
O12 O 0.2384(4) 1.6740(3) -0.3378(2)
O13 O 0.4170(5) 1.2039(4) 0.0232(3)
H1 H 0.441(6) 1.127(4) 0.067(3)
H2 H 0.512(4) 1.214(6) -0.009(4)
O14 O -0.2131(6) 1.9523(5) 0.0994(3)
H3 H -0.143(5) 1.888(5) 0.140(3)
H4 H -0.318(3) 1.948(7) 0.113(5)
O15 O 0.3001(5) 1.1564(4) -0.4003(3)
H5 H 0.275(7) 1.172(5) -0.4599(16)
H6 H 0.383(5) 1.077(3) -0.386(3)
N1 N 0.9689(6) 2.0525(5) -0.3369(3)
H9 H 0.995(5) 1.9632(19) -0.300(3)
H10 H 1.071(3) 2.069(4) -0.361(4)
H11 H 0.907(6) 2.116(3) -0.298(3)
C1 C 0.3760(5) 1.6439(4) -0.1582(3)
H12 H 0.4310 1.6638 -0.1074
C2 C 0.4766(5) 1.4815(4) -0.1548(3)
H13 H 0.4573 1.4346 -0.0855
C3 C 0.6793(5) 1.4544(4) -0.1719(3)
H14 H 0.7042 1.4885 -0.1169
C4 C 0.7386(5) 1.5498(4) -0.2666(3)
H15 H 0.8617 1.5401 -0.2585
C5 C 0.6260(5) 1.7092(4) -0.2662(3)
H16 H 0.6538 1.7271 -0.2051
C6 C 0.4196(5) 1.7445(4) -0.2533(3)
H17 H 0.3693 1.8419 -0.2383
C7 C 0.1776(6) 1.6873(5) -0.1192(3)
C8 C 0.4116(6) 1.4072(4) -0.2177(3)
C9 C 0.7900(6) 1.2936(5) -0.1533(3)
C10 C 0.7444(6) 1.5103(4) -0.3682(3)
C11 C 0.6871(6) 1.8155(5) -0.3498(3)
C12 C 0.3302(5) 1.7522(5) -0.3453(3)
Ag1A Ag -0.13385(5) 1.65565(4) 0.03217(3)
Ag2_2 Ag 0.87895(6) 0.95945(4) -0.06857(3)
Ag3_2 Ag 1.14578(5) 1.34427(4) -0.31351(3)
Ag4_2 Ag 0.87023(5) 2.36010(4) -0.54022(3)
Ag4A Ag 1.12977(5) 1.63990(4) -0.45978(3)
Ag4A_2 Ag 0.12977(5) 1.63990(4) -0.45978(3)
Ag5A Ag 0.53006(5) 1.63853(4) -0.56576(3)
Ag6_2 Ag 0.80627(5) 1.08610(4) -0.45348(3)
Ag6A Ag 0.19373(5) 1.91390(4) -0.54652(3)
O1A O -0.1391(4) 1.3983(3) 0.0441(2)
O5_2 O -0.2779(4) 2.2078(3) -0.0952(3)
O6_2 O -0.0550(4) 1.2532(4) -0.1925(3)
O7_2 O -0.1108(4) 1.4255(3) -0.4025(2)
O8A O 0.3936(4) 1.4336(4) -0.5870(2)
O9A O 1.1939(4) 1.2320(4) -0.5852(2)
O11A O 0.6511(4) 2.1543(3) -0.5793(2)
O12A O 0.7616(4) 1.3260(3) -0.6622(2)
O16 O 0.4364(6) 0.9648(4) 0.1740(3)
H7 H 0.408(9) 0.889(4) 0.187(4)
H8 H 0.408(8) 1.005(5) 0.224(3)
loop_
_geom_bond_atom_site_label_1
_geom_bond_atom_site_label_2
_geom_bond_site_symmetry_1
_geom_bond_site_symmetry_2
Ag1 O1 1_555 1_555
Ag2 O2 1_555 1_555
Ag3 Ag5 1_555 1_555
Ag4 O7 1_555 1_555
Ag5 O4 1_555 1_555
Ag6 O10 1_555 1_555
O1 C7 1_555 1_555
O2 C7 1_555 1_555
O3 Ag1 1_555 1_555
O4 C8 1_555 1_555
O5 C9 1_555 1_555
O6 C9 1_555 1_555
O7 C10 1_555 1_555
O8 C10 1_555 1_555
O9 C11 1_555 1_555
O10 C11 1_555 1_555
O11 C12 1_555 1_555
O12 C12 1_555 1_555
O13 Ag1 1_555 1_555
H1 O13 1_555 1_555
H2 O13 1_555 1_555
O14 Ag2 1_555 1_555
H3 O14 1_555 1_555
H4 O14 1_555 1_555
O15 Ag3 1_555 1_555
H5 O15 1_555 1_555
H6 O15 1_555 1_555
O16 H7 1_555 1_555
H8 O16 1_555 1_555
N1 Ag6 1_555 1_555
H9 N1 1_555 1_555
H10 N1 1_555 1_555
H11 N1 1_555 1_555
C1 H12 1_555 1_555
C2 C1 1_555 1_555
H13 C2 1_555 1_555
C3 C2 1_555 1_555
H14 C3 1_555 1_555
C4 C3 1_555 1_555
H15 C4 1_555 1_555
C5 C4 1_555 1_555
H16 C5 1_555 1_555
C6 C1 1_555 1_555
H17 C6 1_555 1_555
C7 C1 1_555 1_555
C8 O3 1_555 1_555
C9 C3 1_555 1_555
C10 C4 1_555 1_555
C11 C5 1_555 1_555
C12 C6 1_555 1_555
Ag1A O1 1_555 1_555
Ag2_2 O5 1_555 1_555
Ag3_2 O6 1_555 1_555
Ag4_2 Ag6 1_555 1_555
Ag4A O9 1_555 1_555
Ag4A_2 O12 1_555 1_555
Ag5A O8 1_555 1_555
Ag6_2 Ag4 1_555 1_555
Ag6A O11 1_555 1_555
O1A Ag1 1_555 1_555
O5_2 Ag2 1_555 1_555
O6_2 Ag3 1_555 1_555
O7_2 Ag3 1_555 1_555
O8A Ag5 1_555 1_555
O9A Ag4 1_555 1_555
O11A Ag6 1_555 1_555
O12A Ag4 1_555 1_555
Ag3 O3 1_555 1_555
O7 Ag3_2 1_555 1_555
C2 C8 1_555 1_555
C5 C6 1_555 1_555
Ag1A O1A 1_555 1_555
Ag4A_2 Ag6A 1_555 1_555

#END
