
#######################################################################
#
#                 Cambridge Crystallographic Data Centre
#                                CCDC 
#
#######################################################################
#
# If this CIF has been generated from an entry in the Cambridge 
# Structural Database, then it will include bibliographic, chemical, 
# crystal, experimental, refinement or atomic coordinate data resulting 
# from the CCDC's data processing and validation procedures.
#
#######################################################################

data_KEGZIG
_symmetry_cell_setting           orthorhombic
_symmetry_space_group_name_H-M   'P 21 21 21'
_symmetry_Int_Tables_number      19
_space_group_name_Hall           'P 2ac 2ab'
loop_
_symmetry_equiv_pos_site_id
_symmetry_equiv_pos_as_xyz
1 x,y,z
2 1/2-x,-y,1/2+z
3 -x,1/2+y,1/2-z
4 1/2+x,1/2-y,-z
_cell_length_a                   4.5101(3)
_cell_length_b                   7.3272(5)
_cell_length_c                   26.7275(14)
_cell_angle_alpha                90
_cell_angle_beta                 90
_cell_angle_gamma                90
_cell_volume                     883.248
loop_
_atom_site_label
_atom_site_type_symbol
_atom_site_fract_x
_atom_site_fract_y
_atom_site_fract_z
Ag1 Ag 0.70494(11) 0.21756(5) 0.232387(15)
I1 I 0.79739(8) -0.16334(4) 0.213860(12)
N1 N 0.4557(11) 0.3930(6) 0.05000(18)
C1 C 0.3340(12) 0.4849(6) 0.08876(19)
C2 C 0.4061(11) 0.4409(7) 0.1382(2)
H1 H 0.3142 0.5063 0.1647
N2 N 0.6019(10) 0.3087(6) 0.14935(17)
C3 C 0.7220(13) 0.2175(6) 0.11060(19)
H2 H 0.8589 0.1217 0.1169
C4 C 0.6495(14) 0.2612(7) 0.0619(2)
H3 H 0.7410 0.1947 0.0356
C5 C 0.1293(12) 0.6397(7) 0.0767(2)
H4 H -0.0145 0.6549 0.1044
H5 H 0.0164 0.6099 0.0460
C6 C 0.2955(16) 0.8180(8) 0.0689(3)
H6 H 0.1537 0.9155 0.0613
H7 H 0.4345 0.8045 0.0409
H8 H 0.4053 0.8490 0.0993
Ag1B Ag 0.29506(11) -0.28244(5) 0.267613(15)
Ag1B_2 Ag 1.29506(11) -0.28244(5) 0.267613(15)
I1B I 0.20261(8) 0.33666(4) 0.286140(12)
I1B_2 I 1.20261(8) 0.33666(4) 0.286140(12)
loop_
_geom_bond_atom_site_label_1
_geom_bond_atom_site_label_2
_geom_bond_site_symmetry_1
_geom_bond_site_symmetry_2
Ag1 I1 1_555 1_555
I1 Ag1B 1_555 1_555
N1 C1 1_555 1_555
C1 C2 1_555 1_555
C2 H1 1_555 1_555
N2 Ag1 1_555 1_555
C3 N2 1_555 1_555
H2 C3 1_555 1_555
C4 N1 1_555 1_555
H3 C4 1_555 1_555
C5 C1 1_555 1_555
H4 C5 1_555 1_555
H5 C5 1_555 1_555
C6 C5 1_555 1_555
H6 C6 1_555 1_555
H7 C6 1_555 1_555
H8 C6 1_555 1_555
Ag1B_2 I1 1_555 1_555
I1B Ag1 1_555 1_555
I1B_2 Ag1 1_555 1_555
C2 N2 1_555 1_555
C3 C4 1_555 1_555

#END
