
#######################################################################
#
#                 Cambridge Crystallographic Data Centre
#                                CCDC 
#
#######################################################################
#
# If this CIF has been generated from an entry in the Cambridge 
# Structural Database, then it will include bibliographic, chemical, 
# crystal, experimental, refinement or atomic coordinate data resulting 
# from the CCDC's data processing and validation procedures.
#
#######################################################################

data_KEHDEI
_symmetry_cell_setting           monoclinic
_symmetry_space_group_name_H-M   'P 21/n'
_symmetry_Int_Tables_number      14
_space_group_name_Hall           '-P 2yn'
loop_
_symmetry_equiv_pos_site_id
_symmetry_equiv_pos_as_xyz
1 x,y,z
2 1/2-x,1/2+y,1/2-z
3 -x,-y,-z
4 1/2+x,1/2-y,1/2+z
_cell_length_a                   14.7635(12)
_cell_length_b                   29.457(3)
_cell_length_c                   17.5708(16)
_cell_angle_alpha                90
_cell_angle_beta                 90.031(8)
_cell_angle_gamma                90
_cell_volume                     7641.34
loop_
_atom_site_label
_atom_site_type_symbol
_atom_site_fract_x
_atom_site_fract_y
_atom_site_fract_z
Cd1 Cd 0.77223(5) 0.03496(2) 0.73841(4)
Cd2 Cd 1.26569(5) 0.21301(2) 0.76682(4)
O1 O 0.8298(6) 0.1085(3) 0.7661(4)
H1 H 0.8104 0.1255 0.8016
H2 H 0.8189 0.1216 0.7241
O2 O 0.6350(6) 0.0735(3) 0.7083(5)
H3 H 0.5925 0.0540 0.7064
H4 H 0.6144 0.0975 0.7288
O3 O 1.3165(5) 0.1389(2) 0.7364(4)
H5 H 1.3078 0.1229 0.7761
H6 H 1.2954 0.1243 0.6986
O4 O 1.1220(5) 0.1797(2) 0.7993(4)
H7 H 1.1028 0.1550 0.7800
H8 H 1.0829 0.2002 0.7909
N1 N 0.8275(6) 0.0509(3) 0.6180(4)
N2 N 0.7899(7) 0.0343(3) 0.5523(5)
N3 N 0.8942(6) 0.0838(3) 0.5219(5)
N4 N 1.2432(7) 0.2407(3) 0.5861(5)
N5 N 1.2082(6) 0.2150(3) 0.6438(4)
N6 N 1.1329(6) 0.1973(3) 0.5421(4)
N7 N 0.7137(6) 0.0357(3) 0.8623(5)
N8 N 0.7462(7) 0.0108(3) 0.9212(5)
N9 N 0.6402(6) 0.0571(3) 0.9653(5)
N10 N 0.3142(6) 0.1941(3) 0.8861(4)
N11 N 0.2702(6) 0.2080(3) 0.9513(4)
N12 N 0.3877(6) 0.1648(3) 0.9814(4)
N13 N 1.1044(5) -0.2529(3) 0.7811(4)
N14 N 1.0220(6) -0.2719(3) 0.7999(5)
N15 N 1.0374(5) -0.2078(3) 0.8630(4)
N16 N 0.8975(5) -0.0004(3) 0.7894(5)
N17 N 0.9759(6) 0.0226(3) 0.8122(5)
N18 N 0.9695(5) -0.0443(3) 0.8687(4)
N19 N 0.2891(6) -0.2213(3) 0.6834(5)
N20 N 0.2744(6) -0.1795(3) 0.7181(4)
N21 N 0.3661(5) -0.1695(3) 0.6194(4)
N22 N 0.7108(6) -0.0298(3) 0.6917(4)
N23 N 0.7242(6) -0.0714(3) 0.7267(5)
N24 N 0.6392(5) -0.0800(3) 0.6245(4)
C1 C 0.8848(8) 0.0809(4) 0.5987(6)
H9 H 0.9172 0.0993 0.6339
C2 C 0.8359(10) 0.0525(4) 0.4962(7)
H10 H 0.8288 0.0445 0.4442
C3 C 1.1974(8) 0.2303(4) 0.5268(6)
H11 H 1.2065 0.2435 0.4781
C4 C 1.1422(8) 0.1896(4) 0.6170(6)
H12 H 1.1067 0.1690 0.6460
C5 C 0.9502(7) 0.1164(4) 0.4765(5)
C6 C 1.0137(7) 0.1404(3) 0.5305(5)
H13 H 1.0541 0.1180 0.5553
H14 H 0.9784 0.1559 0.5707
C7 C 1.0706(7) 0.1753(4) 0.4868(5)
C8 C 1.0084(6) 0.2107(3) 0.4515(6)
H15 H 1.0446 0.2336 0.4235
H16 H 0.9736 0.2265 0.4917
C9 C 0.9439(7) 0.1865(4) 0.3970(6)
H17 H 0.9032 0.2094 0.3727
C10 C 0.8850(7) 0.1510(4) 0.4399(6)
H18 H 0.8483 0.1662 0.4797
H19 H 0.8435 0.1356 0.4041
C11 C 1.0055(7) 0.0915(4) 0.4145(6)
H20 H 1.0465 0.0690 0.4381
H21 H 0.9642 0.0754 0.3792
C12 C 1.0605(7) 0.1271(4) 0.3709(5)
H22 H 1.0957 0.1119 0.3296
C13 C 1.1266(7) 0.1509(4) 0.4259(6)
H23 H 1.1671 0.1283 0.4499
H24 H 1.1644 0.1730 0.3978
C14 C 0.9966(8) 0.1621(4) 0.3357(6)
H25 H 1.0321 0.1844 0.3059
H26 H 0.9541 0.1467 0.3006
C15 C 0.6518(8) 0.0633(4) 0.8887(5)
H27 H 0.6195 0.0848 0.8588
C16 C 0.7010(8) 0.0242(4) 0.9810(6)
H28 H 0.7100 0.0120 1.0304
C17 C 0.3846(8) 0.1689(4) 0.9045(5)
H29 H 0.4262 0.1557 0.8698
C18 C 0.3160(8) 0.1893(4) 1.0075(5)
H30 H 0.3007 0.1924 1.0598
C19 C 0.5825(7) 0.0837(4) 1.0192(5)
C20 C 0.5132(7) 0.1112(4) 0.9724(5)
H31 H 0.5453 0.1321 0.9375
H32 H 0.4757 0.0903 0.9414
C21 C 0.4526(7) 0.1383(4) 1.0262(5)
C22 C 0.5112(8) 0.1715(4) 1.0709(6)
H33 H 0.4729 0.1898 1.1054
H34 H 0.5427 0.1923 1.0356
C23 C 0.5814(8) 0.1443(4) 1.1177(6)
H35 H 0.6202 0.1657 1.1476
C24 C 0.6415(7) 0.1161(4) 1.0629(6)
H36 H 0.6735 0.1366 1.0272
H37 H 0.6874 0.0990 1.0923
C25 C 0.5331(7) 0.0515(4) 1.0726(5)
H38 H 0.5774 0.0336 1.1025
H39 H 0.4952 0.0301 1.0430
C26 C 0.4734(8) 0.0798(4) 1.1261(6)
H40 H 0.4409 0.0590 1.1619
C27 C 0.4051(8) 0.1071(4) 1.0823(6)
H41 H 0.3683 0.1254 1.1180
H42 H 0.3640 0.0864 1.0544
C28 C 0.5311(9) 0.1127(4) 1.1718(6)
H43 H 0.5752 0.0956 1.2033
H44 H 0.4921 0.1307 1.2063
C29 C 1.1093(7) -0.2153(3) 0.8178(5)
H45 H 1.1588 -0.1948 0.8134
C30 C 0.9838(7) -0.2428(4) 0.8492(5)
H46 H 0.9257 -0.2469 0.8713
C31 C 0.8951(7) -0.0389(3) 0.8242(5)
H47 H 0.8478 -0.0606 0.8193
C32 C 1.0174(7) -0.0049(3) 0.8591(6)
H48 H 1.0734 0.0015 0.8834
C33 C 1.0232(6) -0.1676(3) 0.9126(5)
C34 C 1.0041(8) -0.1256(3) 0.8650(5)
H49 H 0.9494 -0.1306 0.8335
H50 H 1.0557 -0.1197 0.8304
C35 C 0.9895(7) -0.0842(3) 0.9175(5)
C36 C 1.0751(7) -0.0765(4) 0.9620(6)
H51 H 1.1260 -0.0708 0.9266
H52 H 1.0680 -0.0495 0.9950
C37 C 1.0954(8) -0.1174(4) 1.0099(6)
H53 H 1.1518 -0.1118 1.0400
C38 C 1.1094(7) -0.1604(3) 0.9583(5)
H54 H 1.1614 -0.1558 0.9237
H55 H 1.1218 -0.1874 0.9902
C39 C 0.9427(7) -0.1777(4) 0.9677(5)
H56 H 0.8866 -0.1835 0.9384
H57 H 0.9561 -0.2048 0.9991
C40 C 0.9308(8) -0.1354(4) 1.0192(6)
H58 H 0.8792 -0.1409 1.0549
C41 C 0.9093(7) -0.0936(3) 0.9707(5)
H59 H 0.8987 -0.0670 1.0040
H60 H 0.8538 -0.0990 0.9404
C42 C 1.0161(9) -0.1279(4) 1.0653(5)
H61 H 1.0300 -0.1554 1.0956
H62 H 1.0074 -0.1021 1.1008
C43 C 0.3444(7) -0.2136(4) 0.6268(6)
H63 H 0.3669 -0.2368 0.5943
C44 C 0.3207(7) -0.1505(4) 0.6770(6)
H64 H 0.3220 -0.1189 0.6873
C45 C 0.6622(8) -0.0366(4) 0.6317(6)
H65 H 0.6450 -0.0135 0.5969
C46 C 0.6786(8) -0.0996(4) 0.6848(6)
H66 H 0.6738 -0.1311 0.6958
C47 C 0.4330(7) -0.1486(4) 0.5685(5)
C48 C 0.5037(6) -0.1247(4) 0.6203(5)
H67 H 0.4732 -0.1015 0.6521
H68 H 0.5320 -0.1473 0.6546
C49 C 0.5765(7) -0.1022(4) 0.5714(5)
C50 C 0.5313(7) -0.0663(3) 0.5201(5)
H69 H 0.5009 -0.0431 0.5520
H70 H 0.5778 -0.0509 0.4888
C51 C 0.4617(7) -0.0894(4) 0.4683(6)
H71 H 0.4326 -0.0664 0.4344
C52 C 0.3890(7) -0.1124(4) 0.5184(6)
H72 H 0.3590 -0.0894 0.5508
H73 H 0.3423 -0.1266 0.4857
C53 C 0.4799(7) -0.1840(4) 0.5202(5)
H74 H 0.4352 -0.1994 0.4871
H75 H 0.5085 -0.2071 0.5533
C54 C 0.5543(7) -0.1601(4) 0.4698(6)
H76 H 0.5856 -0.1833 0.4377
C55 C 0.6231(7) -0.1373(4) 0.5226(5)
H77 H 0.6518 -0.1605 0.5554
H78 H 0.6711 -0.1227 0.4919
C56 C 0.5094(8) -0.1259(4) 0.4197(5)
H79 H 0.4644 -0.1412 0.3867
H80 H 0.5552 -0.1113 0.3866
Cd2_2 Cd 0.26569(5) 0.21301(2) 0.76682(4)
Cd2A Cd 1.23431(5) -0.28699(2) 0.73318(4)
Cd2A_2 Cd 0.23431(5) -0.28699(2) 0.73318(4)
N10_2 N 1.3142(6) 0.1941(3) 0.8861(4)
N13A N 1.3956(5) 0.2471(3) 0.7189(4)
N19A N 1.2109(6) 0.2787(3) 0.8166(5)
Cd3 Cd 0.79382(6) 0.23898(3) 0.74199(5)
Br1 Br 0.73407(12) 0.19609(5) 0.86317(6)
Br2 Br 0.75680(11) 0.18779(5) 0.62751(7)
Br3 Br 0.96286(9) 0.25643(6) 0.76253(12)
Br4 Br 0.71693(8) 0.31514(4) 0.71241(6)
Cd4 Cd 0.27986(6) 0.01364(3) 0.73394(5)
Br5 Br 0.25922(10) 0.05850(4) 0.86115(6)
Br6 Br 0.21984(10) 0.06213(4) 0.62002(6)
Br7 Br 0.18886(9) -0.05994(4) 0.74638(8)
Br8 Br 0.44888(9) 0.00021(6) 0.70793(9)
O5 O 0.5497(6) 0.1479(3) 0.7771(5)
H81 H 0.5964 0.1579 0.7999
H82 H 0.5254 0.1698 0.7532
O6 O 0.0502(5) 0.1007(2) 0.7335(4)
H83 H 0.0929 0.0914 0.7050
H84 H 0.0281 0.0780 0.7569
loop_
_geom_bond_atom_site_label_1
_geom_bond_atom_site_label_2
_geom_bond_site_symmetry_1
_geom_bond_site_symmetry_2
Cd1 O1 1_555 1_555
Cd2 O3 1_555 1_555
Cd3 Br1 1_555 1_555
Cd4 Br5 1_555 1_555
Br2 Cd3 1_555 1_555
Br3 Cd3 1_555 1_555
Br4 Cd3 1_555 1_555
Br6 Cd4 1_555 1_555
Br7 Cd4 1_555 1_555
Br8 Cd4 1_555 1_555
O1 H1 1_555 1_555
H2 O1 1_555 1_555
O2 Cd1 1_555 1_555
H3 O2 1_555 1_555
H4 O2 1_555 1_555
O3 H5 1_555 1_555
H6 O3 1_555 1_555
O4 Cd2 1_555 1_555
H7 O4 1_555 1_555
H8 O4 1_555 1_555
N1 Cd1 1_555 1_555
N2 N1 1_555 1_555
N3 C1 1_555 1_555
N4 N5 1_555 1_555
N5 Cd2 1_555 1_555
N6 C3 1_555 1_555
N7 Cd1 1_555 1_555
N8 N7 1_555 1_555
N9 C15 1_555 1_555
N10 N11 1_555 1_555
N11 C18 1_555 1_555
N12 C17 1_555 1_555
N13 N14 1_555 1_555
N14 C30 1_555 1_555
N15 C29 1_555 1_555
N16 Cd1 1_555 1_555
N17 N16 1_555 1_555
N18 C31 1_555 1_555
N19 N20 1_555 1_555
N20 C44 1_555 1_555
N21 C43 1_555 1_555
N22 Cd1 1_555 1_555
N23 N22 1_555 1_555
N24 C45 1_555 1_555
C1 N1 1_555 1_555
H9 C1 1_555 1_555
C2 N2 1_555 1_555
H10 C2 1_555 1_555
C3 N4 1_555 1_555
H11 C3 1_555 1_555
C4 N5 1_555 1_555
H12 C4 1_555 1_555
C5 N3 1_555 1_555
C6 C5 1_555 1_555
H13 C6 1_555 1_555
H14 C6 1_555 1_555
C7 N6 1_555 1_555
C8 C7 1_555 1_555
H15 C8 1_555 1_555
H16 C8 1_555 1_555
C9 C8 1_555 1_555
H17 C9 1_555 1_555
C10 C5 1_555 1_555
H18 C10 1_555 1_555
H19 C10 1_555 1_555
C11 C5 1_555 1_555
H20 C11 1_555 1_555
H21 C11 1_555 1_555
C12 C11 1_555 1_555
H22 C12 1_555 1_555
C13 C7 1_555 1_555
H23 C13 1_555 1_555
H24 C13 1_555 1_555
C14 C9 1_555 1_555
H25 C14 1_555 1_555
H26 C14 1_555 1_555
C15 N7 1_555 1_555
H27 C15 1_555 1_555
C16 N8 1_555 1_555
H28 C16 1_555 1_555
C17 N10 1_555 1_555
H29 C17 1_555 1_555
C18 N12 1_555 1_555
H30 C18 1_555 1_555
C19 N9 1_555 1_555
C20 C19 1_555 1_555
H31 C20 1_555 1_555
H32 C20 1_555 1_555
C21 N12 1_555 1_555
C22 C21 1_555 1_555
H33 C22 1_555 1_555
H34 C22 1_555 1_555
C23 C22 1_555 1_555
H35 C23 1_555 1_555
C24 C19 1_555 1_555
H36 C24 1_555 1_555
H37 C24 1_555 1_555
C25 C19 1_555 1_555
H38 C25 1_555 1_555
H39 C25 1_555 1_555
C26 C25 1_555 1_555
H40 C26 1_555 1_555
C27 C21 1_555 1_555
H41 C27 1_555 1_555
H42 C27 1_555 1_555
C28 C23 1_555 1_555
H43 C28 1_555 1_555
H44 C28 1_555 1_555
C29 N13 1_555 1_555
H45 C29 1_555 1_555
C30 N15 1_555 1_555
H46 C30 1_555 1_555
C31 N16 1_555 1_555
H47 C31 1_555 1_555
C32 N17 1_555 1_555
H48 C32 1_555 1_555
C33 N15 1_555 1_555
C34 C33 1_555 1_555
H49 C34 1_555 1_555
H50 C34 1_555 1_555
C35 N18 1_555 1_555
C36 C35 1_555 1_555
H51 C36 1_555 1_555
H52 C36 1_555 1_555
C37 C36 1_555 1_555
H53 C37 1_555 1_555
C38 C33 1_555 1_555
H54 C38 1_555 1_555
H55 C38 1_555 1_555
C39 C33 1_555 1_555
H56 C39 1_555 1_555
H57 C39 1_555 1_555
C40 C39 1_555 1_555
H58 C40 1_555 1_555
C41 C35 1_555 1_555
H59 C41 1_555 1_555
H60 C41 1_555 1_555
C42 C37 1_555 1_555
H61 C42 1_555 1_555
H62 C42 1_555 1_555
C43 N19 1_555 1_555
H63 C43 1_555 1_555
C44 N21 1_555 1_555
H64 C44 1_555 1_555
C45 N22 1_555 1_555
H65 C45 1_555 1_555
C46 N23 1_555 1_555
H66 C46 1_555 1_555
C47 N21 1_555 1_555
C48 C47 1_555 1_555
H67 C48 1_555 1_555
H68 C48 1_555 1_555
C49 N24 1_555 1_555
C50 C49 1_555 1_555
H69 C50 1_555 1_555
H70 C50 1_555 1_555
C51 C50 1_555 1_555
H71 C51 1_555 1_555
C52 C47 1_555 1_555
H72 C52 1_555 1_555
H73 C52 1_555 1_555
C53 C47 1_555 1_555
H74 C53 1_555 1_555
H75 C53 1_555 1_555
C54 C53 1_555 1_555
H76 C54 1_555 1_555
C55 C49 1_555 1_555
H77 C55 1_555 1_555
H78 C55 1_555 1_555
C56 C51 1_555 1_555
H79 C56 1_555 1_555
H80 C56 1_555 1_555
O5 H81 1_555 1_555
H82 O5 1_555 1_555
O6 H83 1_555 1_555
H84 O6 1_555 1_555
Cd2_2 N10 1_555 1_555
Cd2A N13 1_555 1_555
Cd2A_2 N19 1_555 1_555
N10_2 Cd2 1_555 1_555
N13A Cd2 1_555 1_555
N19A Cd2 1_555 1_555
N3 C2 1_555 1_555
N6 C4 1_555 1_555
N9 C16 1_555 1_555
N18 C32 1_555 1_555
N24 C46 1_555 1_555
C6 C7 1_555 1_555
C9 C10 1_555 1_555
C12 C13 1_555 1_555
C12 C14 1_555 1_555
C20 C21 1_555 1_555
C23 C24 1_555 1_555
C26 C27 1_555 1_555
C26 C28 1_555 1_555
C34 C35 1_555 1_555
C37 C38 1_555 1_555
C40 C41 1_555 1_555
C40 C42 1_555 1_555
C48 C49 1_555 1_555
C51 C52 1_555 1_555
C54 C55 1_555 1_555
C54 C56 1_555 1_555

#END
