
#######################################################################
#
#                 Cambridge Crystallographic Data Centre
#                                CCDC 
#
#######################################################################
#
# If this CIF has been generated from an entry in the Cambridge 
# Structural Database, then it will include bibliographic, chemical, 
# crystal, experimental, refinement or atomic coordinate data resulting 
# from the CCDC's data processing and validation procedures.
#
#######################################################################

data_KEHGEK
_symmetry_cell_setting           triclinic
_symmetry_space_group_name_H-M   'P -1'
_symmetry_Int_Tables_number      2
_space_group_name_Hall           '-P 1'
loop_
_symmetry_equiv_pos_site_id
_symmetry_equiv_pos_as_xyz
1 x,y,z
2 -x,-y,-z
_cell_length_a                   8.2271(2)
_cell_length_b                   14.3223(3)
_cell_length_c                   15.7025(4)
_cell_angle_alpha                76.877(4)
_cell_angle_beta                 89.004(4)
_cell_angle_gamma                82.816(4)
_cell_volume                     1787.66
loop_
_atom_site_label
_atom_site_type_symbol
_atom_site_fract_x
_atom_site_fract_y
_atom_site_fract_z
Cu1 Cu 0.94215(8) -0.48059(5) 0.57262(4)
Cu2 Cu 0.07611(9) -0.05046(5) 0.57117(4)
N1 N 0.8624(6) -0.4367(4) 0.6903(3)
C1 C 0.788(1) -0.4928(5) 0.7535(4)
C2 C 0.747(1) -0.4688(5) 0.8331(5)
C3 C 0.7869(8) -0.3835(4) 0.8474(4)
C4 C 0.8592(9) -0.3236(5) 0.7806(4)
C5 C 0.8944(9) -0.3514(5) 0.7040(4)
C6 C 0.7469(8) -0.3487(4) 0.9305(4)
O1 O 0.7674(7) -0.2668(3) 0.9350(3)
N2 N 0.6869(7) -0.4133(4) 0.9959(3)
C7 C 0.6311(8) -0.3889(4) 1.0761(4)
C8 C 0.7023(9) -0.4438(5) 1.1556(4)
C9 C 0.6475(9) -0.4224(6) 1.2330(4)
C10 C 0.5270(9) -0.3485(6) 1.2347(4)
C11 C 0.4559(9) -0.2928(5) 1.1565(4)
C12 C 0.5071(8) -0.3143(4) 1.0770(4)
N3 N 0.4279(7) -0.2591(4) 0.9970(3)
C13 C 0.3415(8) -0.3019(4) 0.9486(4)
O2 O 0.3132(7) -0.3862(3) 0.9706(3)
C14 C 0.2826(8) -0.2409(5) 0.8614(4)
C15 C 0.3036(9) -0.2795(5) 0.7882(4)
C16 C 0.2500(8) -0.2230(5) 0.7077(4)
N4 N 0.1769(7) -0.1325(4) 0.6971(3)
C17 C 0.156(1) -0.0963(5) 0.7683(5)
C18 C 0.208(1) -0.1474(6) 0.8510(5)
O3 O 1.0512(6) -0.6091(3) 0.6301(3)
O4 O 0.7513(5) -0.5425(3) 0.5503(3)
O5 O 0.8462(5) -0.5719(3) 0.4239(3)
O6 O 1.1532(6) -0.6416(3) 0.5052(3)
C19 C 0.7389(7) -0.5734(4) 0.4826(4)
C20 C 0.5862(8) -0.6150(5) 0.4680(5)
C21 C 1.1336(7) -0.6624(4) 0.5869(4)
C22 C 1.2144(9) -0.7591(5) 0.6367(5)
O7 O -0.1243(6) -0.1148(3) 0.5883(3)
O8 O -0.0384(6) 0.0533(3) 0.6219(3)
O9 O -0.1712(6) 0.1398(3) 0.5007(3)
C23 C -0.1356(8) 0.1240(4) 0.5810(4)
C24 C -0.2155(9) 0.1943(5) 0.6325(5)
O10 O -0.2533(5) -0.0300(3) 0.4670(3)
C25 C -0.2446(8) -0.0932(4) 0.5367(4)
C26 C -0.3896(9) -0.1486(5) 0.5608(6)
H1 H 0.7612 -0.5524 0.7443
H2 H 0.6928 -0.5110 0.8766
H3 H 0.8847 -0.2629 0.7877
H4 H 0.9435 -0.3087 0.6584
H5 H 0.7875 -0.4952 1.1557
H6 H 0.6948 -0.4600 1.2865
H7 H 0.4913 -0.3348 1.2890
H8 H 0.3730 -0.2405 1.1573
H9 H 0.3542 -0.3439 0.7932
H10 H 0.2660 -0.2498 0.6577
H11 H 0.1023 -0.0323 0.7619
H12 H 0.1931 -0.1184 0.8998
H13 H 0.5940 -0.6353 0.4143
H14 H 0.5737 -0.6688 0.5146
H15 H 0.4941 -0.5673 0.4656
H16 H 1.2712 -0.7926 0.5972
H17 H 1.2898 -0.7498 0.6783
H18 H 1.1334 -0.7959 0.6661
H19 H -0.2793 0.2462 0.5941
H20 H -0.2841 0.1621 0.6757
H21 H -0.1333 0.2186 0.6599
H22 H -0.4694 -0.1290 0.5152
H23 H -0.3546 -0.2158 0.5690
H24 H -0.4359 -0.1357 0.6134
Cu1A Cu 1.05785(8) -0.51941(5) 0.42738(4)
Cu2A Cu -0.07611(9) 0.05046(5) 0.42883(4)
O5A O 1.1538(5) -0.4281(3) 0.5761(3)
O6A O 0.8468(6) -0.3584(3) 0.4948(3)
O9A O 0.1712(6) -0.1398(3) 0.4993(3)
O10A O 0.2533(5) 0.0300(3) 0.5330(3)
S1 S 0.4365(5) 0.0783(2) 0.1874(2)
C27 C 0.240(2) 0.053(1) 0.193(1)
C28 C 0.512(2) -0.035(1) 0.256(1)
O11 O 0.494(1) 0.0702(6) 0.0872(7)
H25 H 0.1974 0.0566 0.2487
H26 H 0.1761 0.0993 0.1490
H27 H 0.2367 -0.0096 0.1834
H28 H 0.4832 -0.0348 0.3147
H29 H 0.4657 -0.0848 0.2380
H30 H 0.6280 -0.0450 0.2515
S2 S 0.9958(5) 0.1536(3) 0.9206(3)
O12 O 0.910(2) 0.1195(8) 0.860(1)
C29 C 1.192(2) 0.122(1) 0.914(1)
C30 C 0.994(2) 0.2777(9) 0.8817(9)
H31 H 1.2484 0.1458 0.9555
H32 H 1.2142 0.0539 0.9258
H33 H 1.2279 0.1491 0.8568
H34 H 1.0514 0.3028 0.9217
H35 H 1.0458 0.2899 0.8264
H36 H 0.8841 0.3080 0.8757
loop_
_geom_bond_atom_site_label_1
_geom_bond_atom_site_label_2
_geom_bond_site_symmetry_1
_geom_bond_site_symmetry_2
Cu1 N1 1_555 1_555
Cu2 N4 1_555 1_555
N1 C1 1_555 1_555
C1 C2 1_555 1_555
C2 C3 1_555 1_555
C3 C4 1_555 1_555
C4 C5 1_555 1_555
C5 N1 1_555 1_555
C6 C3 1_555 1_555
O1 C6 1_555 1_555
N2 C6 1_555 1_555
C7 N2 1_555 1_555
C8 C7 1_555 1_555
C9 C8 1_555 1_555
C10 C9 1_555 1_555
C11 C10 1_555 1_555
C12 C7 1_555 1_555
N3 C12 1_555 1_555
C13 N3 1_555 1_555
O2 C13 1_555 1_555
C14 C13 1_555 1_555
C15 C14 1_555 1_555
C16 C15 1_555 1_555
N4 C16 1_555 1_555
C17 N4 1_555 1_555
C18 C14 1_555 1_555
O3 Cu1 1_555 1_555
O4 Cu1 1_555 1_555
O5 C19 1_555 1_555
O6 C21 1_555 1_555
C19 O4 1_555 1_555
C20 C19 1_555 1_555
C21 O3 1_555 1_555
C22 C21 1_555 1_555
O7 Cu2 1_555 1_555
O8 Cu2 1_555 1_555
O9 C23 1_555 1_555
C23 O8 1_555 1_555
C24 C23 1_555 1_555
O10 C25 1_555 1_555
C25 O7 1_555 1_555
C26 C25 1_555 1_555
S1 C27 1_555 1_555
C27 H25 1_555 1_555
C28 S1 1_555 1_555
O11 S1 1_555 1_555
S2 O12 1_555 1_555
C29 S2 1_555 1_555
C30 S2 1_555 1_555
H1 C1 1_555 1_555
H2 C2 1_555 1_555
H3 C4 1_555 1_555
H4 C5 1_555 1_555
H5 C8 1_555 1_555
H6 C9 1_555 1_555
H7 C10 1_555 1_555
H8 C11 1_555 1_555
H9 C15 1_555 1_555
H10 C16 1_555 1_555
H11 C17 1_555 1_555
H12 C18 1_555 1_555
H13 C20 1_555 1_555
H14 C20 1_555 1_555
H15 C20 1_555 1_555
H16 C22 1_555 1_555
H17 C22 1_555 1_555
H18 C22 1_555 1_555
H19 C24 1_555 1_555
H20 C24 1_555 1_555
H21 C24 1_555 1_555
H22 C26 1_555 1_555
H23 C26 1_555 1_555
H24 C26 1_555 1_555
H26 C27 1_555 1_555
H27 C27 1_555 1_555
H28 C28 1_555 1_555
H29 C28 1_555 1_555
H30 C28 1_555 1_555
H31 C29 1_555 1_555
H32 C29 1_555 1_555
H33 C29 1_555 1_555
H34 C30 1_555 1_555
H35 C30 1_555 1_555
H36 C30 1_555 1_555
Cu1A O5 1_555 1_555
Cu2A O9 1_555 1_555
O5A Cu1 1_555 1_555
O6A Cu1 1_555 1_555
O9A Cu2 1_555 1_555
O10A Cu2 1_555 1_555
C11 C12 1_555 1_555
C17 C18 1_555 1_555
O6 Cu1A 1_555 1_555
O10 Cu2A 1_555 1_555

#END
