
#######################################################################
#
#                 Cambridge Crystallographic Data Centre
#                                CCDC 
#
#######################################################################
#
# If this CIF has been generated from an entry in the Cambridge 
# Structural Database, then it will include bibliographic, chemical, 
# crystal, experimental, refinement or atomic coordinate data resulting 
# from the CCDC's data processing and validation procedures.
#
#######################################################################

data_KEHGOU
_symmetry_cell_setting           monoclinic
_symmetry_space_group_name_H-M   'P 21/n'
_symmetry_Int_Tables_number      14
_space_group_name_Hall           '-P 2yn'
loop_
_symmetry_equiv_pos_site_id
_symmetry_equiv_pos_as_xyz
1 x,y,z
2 1/2-x,1/2+y,1/2-z
3 -x,-y,-z
4 1/2+x,1/2-y,1/2+z
_cell_length_a                   13.6671(13)
_cell_length_b                   11.5908(8)
_cell_length_c                   14.1521(16)
_cell_angle_alpha                90
_cell_angle_beta                 117.785(3)
_cell_angle_gamma                90
_cell_volume                     1983.39
loop_
_atom_site_label
_atom_site_type_symbol
_atom_site_fract_x
_atom_site_fract_y
_atom_site_fract_z
Cu1 Cu 0.54387(2) 0.86310(2) 0.047286(19)
N1 N 0.58205(15) 0.90981(17) 0.19864(13)
C1 C 0.50902(19) 0.9427(2) 0.23176(17)
H1 H 0.4334 0.9494 0.1804
C2 C 0.53911(19) 0.9676(2) 0.33797(17)
H2 H 0.4854 0.9918 0.3586
C3 C 0.64945(19) 0.9563(2) 0.41323(16)
C4 C 0.7249(2) 0.9248(2) 0.37854(17)
H3 H 0.8013 0.9189 0.4278
C5 C 0.6881(2) 0.9019(2) 0.27132(18)
H4 H 0.7407 0.8797 0.2485
C6 C 0.68246(19) 0.9816(2) 0.52904(17)
O1 O 0.63330(16) 1.05283(18) 0.55341(13)
N2 N 0.76878(16) 0.91725(18) 0.59891(14)
H5 H 0.8031 0.8759 0.5712
C7 C 0.81064(19) 0.9083(2) 0.71100(16)
C8 C 0.7843(2) 0.9838(2) 0.77181(17)
H6 H 0.7365 1.0475 0.7391
C9 C 0.8285(2) 0.9653(2) 0.88069(17)
H7 H 0.8109 1.0175 0.9223
C10 C 0.89777(19) 0.8725(2) 0.93073(17)
C11 C 0.9262(2) 0.7989(2) 0.87005(18)
H8 H 0.9750 0.7361 0.9029
C12 C 0.8829(2) 0.8179(2) 0.76141(18)
H9 H 0.9031 0.7677 0.7203
N3 N 0.93024(16) 0.85177(18) 1.03996(14)
H10 H 0.8887 0.8822 1.0658
C13 C 1.01905(19) 0.7896(2) 1.10845(17)
O2 O 1.09266(14) 0.75449(17) 1.09045(13)
C14 C 1.02026(19) 0.7638(2) 1.21411(16)
C15 C 1.1219(2) 0.7571(2) 1.30590(18)
H11 H 1.1886 0.7742 1.3034
C16 C 1.1237(2) 0.7251(2) 1.40076(18)
H12 H 1.1929 0.7234 1.4637
N4 N 1.03235(16) 0.69629(17) 1.40835(14)
C17 C 0.93446(19) 0.7039(2) 1.31951(17)
H13 H 0.8690 0.6855 1.3240
C18 C 0.92517(19) 0.7375(2) 1.22153(17)
H14 H 0.8547 0.7425 1.1605
O3 O 0.47701(14) 0.71702(14) 0.06627(12)
C19 C 0.5583(2) 0.6488(2) 0.11468(18)
O4 O 0.65499(15) 0.67544(17) 0.13903(16)
C20 C 0.5326(2) 0.5304(2) 0.1430(2)
H15 H 0.5919 0.4767 0.1525
H16 H 0.4623 0.5028 0.0854
H17 H 0.5271 0.5352 0.2095
O5 O 0.60891(14) 1.01459(14) 0.03076(12)
C21 C 0.7076(2) 1.0193(2) 0.06222(17)
O6 O 0.77265(15) 0.93573(16) 0.09751(13)
C22 C 0.7596(2) 1.1377(2) 0.0661(2)
H18 H 0.7047 1.1882 0.0117
H19 H 0.8230 1.1285 0.0522
H20 H 0.7844 1.1721 0.1369
Cu1C Cu 1.04387(2) 0.63690(2) 1.547286(19)
Cu1B Cu 0.45613(2) 1.13690(2) -0.047286(19)
N4C N 0.53235(16) 0.80371(17) -0.09165(14)
O5B O 0.39109(14) 0.98541(14) -0.03076(12)
loop_
_geom_bond_atom_site_label_1
_geom_bond_atom_site_label_2
_geom_bond_site_symmetry_1
_geom_bond_site_symmetry_2
Cu1 N1 1_555 1_555
N1 C1 1_555 1_555
C1 H1 1_555 1_555
C2 C1 1_555 1_555
H2 C2 1_555 1_555
C3 C2 1_555 1_555
C4 C3 1_555 1_555
H3 C4 1_555 1_555
C5 N1 1_555 1_555
H4 C5 1_555 1_555
C6 C3 1_555 1_555
O1 C6 1_555 1_555
N2 C6 1_555 1_555
H5 N2 1_555 1_555
C7 N2 1_555 1_555
C8 C7 1_555 1_555
H6 C8 1_555 1_555
C9 C8 1_555 1_555
H7 C9 1_555 1_555
C10 C9 1_555 1_555
C11 C10 1_555 1_555
H8 C11 1_555 1_555
C12 C7 1_555 1_555
H9 C12 1_555 1_555
N3 C10 1_555 1_555
H10 N3 1_555 1_555
C13 N3 1_555 1_555
O2 C13 1_555 1_555
C14 C13 1_555 1_555
C15 C14 1_555 1_555
H11 C15 1_555 1_555
C16 C15 1_555 1_555
H12 C16 1_555 1_555
N4 C16 1_555 1_555
C17 N4 1_555 1_555
H13 C17 1_555 1_555
C18 C14 1_555 1_555
H14 C18 1_555 1_555
O3 Cu1 1_555 1_555
C19 O3 1_555 1_555
O4 Cu1 1_555 1_555
C20 C19 1_555 1_555
H15 C20 1_555 1_555
H16 C20 1_555 1_555
H17 C20 1_555 1_555
O5 Cu1 1_555 1_555
C21 O5 1_555 1_555
O6 C21 1_555 1_555
C22 C21 1_555 1_555
H18 C22 1_555 1_555
H19 C22 1_555 1_555
H20 C22 1_555 1_555
Cu1C N4 1_555 1_555
Cu1B O5 1_555 1_555
N4C Cu1 1_555 1_555
O5B Cu1 1_555 1_555
C4 C5 1_555 1_555
C11 C12 1_555 1_555
C17 C18 1_555 1_555
C19 O4 1_555 1_555
Cu1B O5B 1_555 1_555

#END
