
#######################################################################
#
#                 Cambridge Crystallographic Data Centre
#                                CCDC 
#
#######################################################################
#
# If this CIF has been generated from an entry in the Cambridge 
# Structural Database, then it will include bibliographic, chemical, 
# crystal, experimental, refinement or atomic coordinate data resulting 
# from the CCDC's data processing and validation procedures.
#
#######################################################################

data_KEJBUY
_symmetry_cell_setting           triclinic
_symmetry_space_group_name_H-M   'P -1'
_symmetry_Int_Tables_number      2
_space_group_name_Hall           '-P 1'
loop_
_symmetry_equiv_pos_site_id
_symmetry_equiv_pos_as_xyz
1 x,y,z
2 -x,-y,-z
_cell_length_a                   9.3620(6)
_cell_length_b                   11.3576(8)
_cell_length_c                   12.7103(8)
_cell_angle_alpha                105.9040(10)
_cell_angle_beta                 102.7140(10)
_cell_angle_gamma                101.3280(10)
_cell_volume                     1219.48
loop_
_atom_site_label
_atom_site_type_symbol
_atom_site_fract_x
_atom_site_fract_y
_atom_site_fract_z
Cu1 Cu 0.5000 1.5000 0.5000
O1 O 0.4604(2) 0.85100(19) 0.31599(19)
O2 O 0.7126(2) 0.94076(18) 0.36964(18)
O3 O 0.7413(3) 0.9205(3) -0.0994(2)
O4 O 0.7487(2) 0.9277(2) 0.08011(18)
O5 O 0.7309(2) 0.5748(2) 0.08658(18)
O6 O 0.9568(2) 0.63755(18) 0.05394(16)
N1 N 0.9473(3) 0.8543(2) 0.2434(2)
N2 N 0.5250(2) 1.3231(2) 0.46781(18)
N3 N 0.2024(3) 0.7140(3) -0.1186(3)
N4 N 0.5998(2) 0.5386(2) -0.32947(19)
C1 C 0.4018(3) 1.2203(3) 0.4213(2)
H1 H 0.3031 1.2331 0.4112
C2 C 0.4151(3) 1.0981(3) 0.3881(2)
H2 H 0.3264 1.0280 0.3564
C3 C 0.5576(3) 1.0773(2) 0.4010(2)
C4 C 0.6845(3) 1.1818(3) 0.4513(2)
H3 H 0.7841 1.1707 0.4633
C5 C 0.6640(3) 1.3020(3) 0.4835(2)
H4 H 0.7514 1.3731 0.5182
C6 C 0.5684(3) 0.9433(3) 0.3575(2)
C7 C 0.7377(4) 0.8150(3) 0.3305(3)
H5 H 0.6766 0.7696 0.2499
H6 H 0.7060 0.7640 0.3775
C8 C 0.9043(4) 0.8317(3) 0.3412(3)
H7 H 0.9642 0.9044 0.4110
H8 H 0.9312 0.7545 0.3508
C9 C 0.2695(4) 0.7352(4) -0.1958(3)
H9 H 0.2091 0.7077 -0.2732
C10 C 0.4224(4) 0.7950(4) -0.1700(3)
H10 H 0.4649 0.8076 -0.2287
C11 C 0.5125(3) 0.8359(3) -0.0589(3)
C12 C 0.4443(4) 0.8123(4) 0.0220(3)
H11 H 0.5023 0.8373 0.0998
C13 C 0.2921(4) 0.7524(4) -0.0118(3)
H12 H 0.2471 0.7371 0.0450
C14 C 0.6791(3) 0.8993(3) -0.0301(3)
C15 C 0.9123(3) 0.9855(3) 0.1192(3)
H13 H 0.9362 1.0735 0.1170
H14 H 0.9636 0.9354 0.0707
C16 C 0.9631(3) 0.9852(3) 0.2411(3)
H15 H 1.0707 1.0358 0.2772
H16 H 0.9007 1.0256 0.2856
C17 C 0.5168(3) 0.5116(3) -0.2611(3)
H17 H 0.4095 0.4790 -0.2925
C18 C 0.5801(3) 0.5289(3) -0.1476(3)
H18 H 0.5174 0.5071 -0.1026
C19 C 0.7362(3) 0.5786(2) -0.0996(2)
C20 C 0.8236(3) 0.6090(3) -0.1683(2)
H19 H 0.9308 0.6436 -0.1380
C21 C 0.7520(3) 0.5880(3) -0.2820(2)
H20 H 0.8123 0.6092 -0.3287
C22 C 0.8043(3) 0.5967(3) 0.0238(2)
C23 C 1.0396(3) 0.6678(3) 0.1733(2)
H21 H 1.1333 0.6389 0.1789
H22 H 0.9758 0.6236 0.2111
C24 C 1.0802(3) 0.8093(3) 0.2313(2)
H23 H 1.1529 0.8321 0.3080
H24 H 1.1314 0.8527 0.1864
Cu1_2 Cu 0.5000 0.5000 -0.5000
Cu1_3 Cu 0.5000 2.5000 1.5000
O1A O 0.5396(2) 2.14900(19) 0.68401(19)
O2A O 0.2874(2) 2.05924(18) 0.63036(18)
O3A O 0.2587(3) 2.0795(3) 1.0994(2)
O4A O 0.2513(2) 2.0723(2) 0.91989(18)
O5A O 0.2691(2) 2.4252(2) 0.91342(18)
O6A O 0.0432(2) 2.36245(18) 0.94606(16)
N1A N 0.0527(3) 2.1457(2) 0.7566(2)
N2A N 0.4750(2) 1.6769(2) 0.53219(18)
N3A N 0.7976(3) 2.2860(3) 1.1186(3)
N4A N 0.4002(2) 2.4614(2) 1.32947(19)
N4_2 N 0.5998(2) 1.5386(2) 0.67053(19)
N4A_2 N 0.4002(2) 1.4614(2) 0.32947(19)
C1A C 0.5982(3) 1.7797(3) 0.5787(2)
H1A H 0.6969 1.7669 0.5888
C2A C 0.5849(3) 1.9019(3) 0.6119(2)
H2A H 0.6736 1.9720 0.6436
C3A C 0.4424(3) 1.9227(2) 0.5990(2)
C4A C 0.3155(3) 1.8182(3) 0.5487(2)
H3A H 0.2159 1.8293 0.5367
C5A C 0.3360(3) 1.6980(3) 0.5165(2)
H4A H 0.2486 1.6269 0.4818
C6A C 0.4316(3) 2.0567(3) 0.6425(2)
C7A C 0.2623(4) 2.1850(3) 0.6695(3)
H5A H 0.3234 2.2304 0.7501
H6A H 0.2940 2.2360 0.6225
C8A C 0.0957(4) 2.1683(3) 0.6588(3)
H7A H 0.0358 2.0956 0.5890
H8A H 0.0688 2.2455 0.6492
C9A C 0.7305(4) 2.2648(4) 1.1958(3)
H9A H 0.7909 2.2923 1.2732
C10A C 0.5776(4) 2.2050(4) 1.1700(3)
H10A H 0.5351 2.1924 1.2287
C11A C 0.4875(3) 2.1641(3) 1.0589(3)
C12A C 0.5557(4) 2.1877(4) 0.9780(3)
H11A H 0.4977 2.1627 0.9002
C13A C 0.7079(4) 2.2476(4) 1.0118(3)
H12A H 0.7529 2.2629 0.9550
C14A C 0.3209(3) 2.1007(3) 1.0301(3)
C15A C 0.0877(3) 2.0145(3) 0.8808(3)
H13A H 0.0638 1.9265 0.8830
H14A H 0.0364 2.0646 0.9293
C16A C 0.0369(3) 2.0148(3) 0.7589(3)
H15A H -0.0707 1.9642 0.7228
H16A H 0.0993 1.9744 0.7144
C17A C 0.4832(3) 2.4884(3) 1.2611(3)
H17A H 0.5905 2.5210 1.2925
C18A C 0.4199(3) 2.4711(3) 1.1476(3)
H18A H 0.4826 2.4929 1.1026
C19A C 0.2638(3) 2.4214(2) 1.0996(2)
C20A C 0.1764(3) 2.3910(3) 1.1683(2)
H19A H 0.0692 2.3564 1.1380
C21A C 0.2480(3) 2.4120(3) 1.2820(2)
H20A H 0.1877 2.3908 1.3287
C22A C 0.1957(3) 2.4033(3) 0.9762(2)
C23A C -0.0396(3) 2.3322(3) 0.8267(2)
H21A H -0.1333 2.3611 0.8211
H22A H 0.0242 2.3764 0.7889
C24A C -0.0802(3) 2.1907(3) 0.7687(2)
H23A H -0.1529 2.1679 0.6920
H24A H -0.1314 2.1473 0.8136
N5 N 0.8933(3) 1.6205(2) 0.4835(2)
O7 O 0.7552(2) 1.5660(2) 0.46660(18)
O8 O 0.9616(2) 1.5766(2) 0.41540(19)
O9 O 0.9564(2) 1.7194(2) 0.56697(19)
loop_
_geom_bond_atom_site_label_1
_geom_bond_atom_site_label_2
_geom_bond_site_symmetry_1
_geom_bond_site_symmetry_2
Cu1 N2 1_555 1_555
O1 C6 1_555 1_555
O2 C6 1_555 1_555
O3 C14 1_555 1_555
O4 C14 1_555 1_555
O5 C22 1_555 1_555
O6 C22 1_555 1_555
N1 C8 1_555 1_555
N2 C1 1_555 1_555
N3 C9 1_555 1_555
N4 C17 1_555 1_555
N5 O7 1_555 1_555
O8 N5 1_555 1_555
O9 N5 1_555 1_555
C1 H1 1_555 1_555
C2 C1 1_555 1_555
H2 C2 1_555 1_555
C3 C2 1_555 1_555
C4 C3 1_555 1_555
H3 C4 1_555 1_555
C5 N2 1_555 1_555
H4 C5 1_555 1_555
C6 C3 1_555 1_555
C7 O2 1_555 1_555
H5 C7 1_555 1_555
H6 C7 1_555 1_555
C8 C7 1_555 1_555
H7 C8 1_555 1_555
H8 C8 1_555 1_555
C9 H9 1_555 1_555
C10 C9 1_555 1_555
H10 C10 1_555 1_555
C11 C10 1_555 1_555
C12 C11 1_555 1_555
H11 C12 1_555 1_555
C13 N3 1_555 1_555
H12 C13 1_555 1_555
C14 C11 1_555 1_555
C15 O4 1_555 1_555
H13 C15 1_555 1_555
H14 C15 1_555 1_555
C16 N1 1_555 1_555
H15 C16 1_555 1_555
H16 C16 1_555 1_555
C17 H17 1_555 1_555
C18 C17 1_555 1_555
H18 C18 1_555 1_555
C19 C18 1_555 1_555
C20 C19 1_555 1_555
H19 C20 1_555 1_555
C21 N4 1_555 1_555
H20 C21 1_555 1_555
C22 C19 1_555 1_555
C23 O6 1_555 1_555
H21 C23 1_555 1_555
H22 C23 1_555 1_555
C24 N1 1_555 1_555
H23 C24 1_555 1_555
H24 C24 1_555 1_555
Cu1_2 N4 1_555 1_555
Cu1_3 N4A 1_555 1_555
O1A C6A 1_555 1_555
O2A C6A 1_555 1_555
O3A C14A 1_555 1_555
O4A C14A 1_555 1_555
O5A C22A 1_555 1_555
O6A C22A 1_555 1_555
N1A C8A 1_555 1_555
N2A Cu1 1_555 1_555
N3A C9A 1_555 1_555
N4A C17A 1_555 1_555
N4_2 Cu1 1_555 1_555
N4A_2 Cu1 1_555 1_555
C1A N2A 1_555 1_555
H1A C1A 1_555 1_555
C2A C1A 1_555 1_555
H2A C2A 1_555 1_555
C3A C2A 1_555 1_555
C4A C3A 1_555 1_555
H3A C4A 1_555 1_555
C5A N2A 1_555 1_555
H4A C5A 1_555 1_555
C6A C3A 1_555 1_555
C7A O2A 1_555 1_555
H5A C7A 1_555 1_555
H6A C7A 1_555 1_555
C8A C7A 1_555 1_555
H7A C8A 1_555 1_555
H8A C8A 1_555 1_555
C9A H9A 1_555 1_555
C10A C9A 1_555 1_555
H10A C10A 1_555 1_555
C11A C10A 1_555 1_555
C12A C11A 1_555 1_555
H11A C12A 1_555 1_555
C13A N3A 1_555 1_555
H12A C13A 1_555 1_555
C14A C11A 1_555 1_555
C15A O4A 1_555 1_555
H13A C15A 1_555 1_555
H14A C15A 1_555 1_555
C16A N1A 1_555 1_555
H15A C16A 1_555 1_555
H16A C16A 1_555 1_555
C17A H17A 1_555 1_555
C18A C17A 1_555 1_555
H18A C18A 1_555 1_555
C19A C18A 1_555 1_555
C20A C19A 1_555 1_555
H19A C20A 1_555 1_555
C21A N4A 1_555 1_555
H20A C21A 1_555 1_555
C22A C19A 1_555 1_555
C23A O6A 1_555 1_555
H21A C23A 1_555 1_555
H22A C23A 1_555 1_555
C24A N1A 1_555 1_555
H23A C24A 1_555 1_555
H24A C24A 1_555 1_555
C4 C5 1_555 1_555
C12 C13 1_555 1_555
C15 C16 1_555 1_555
C20 C21 1_555 1_555
C23 C24 1_555 1_555
C4A C5A 1_555 1_555
C12A C13A 1_555 1_555
C15A C16A 1_555 1_555
C20A C21A 1_555 1_555
C23A C24A 1_555 1_555

#END
