
#######################################################################
#
#                 Cambridge Crystallographic Data Centre
#                                CCDC 
#
#######################################################################
#
# If this CIF has been generated from an entry in the Cambridge 
# Structural Database, then it will include bibliographic, chemical, 
# crystal, experimental, refinement or atomic coordinate data resulting 
# from the CCDC's data processing and validation procedures.
#
#######################################################################

data_KEJBOQ
_symmetry_cell_setting           orthorhombic
_symmetry_space_group_name_H-M   'P b c a'
_symmetry_Int_Tables_number      61
_space_group_name_Hall           '-P 2ac 2ab'
loop_
_symmetry_equiv_pos_site_id
_symmetry_equiv_pos_as_xyz
1 x,y,z
2 1/2-x,-y,1/2+z
3 1/2+x,1/2-y,-z
4 -x,1/2+y,1/2-z
5 -x,-y,-z
6 1/2+x,y,1/2-z
7 1/2-x,1/2+y,z
8 x,1/2-y,1/2+z
_cell_length_a                   12.691(1)
_cell_length_b                   15.545(1)
_cell_length_c                   18.342(1)
_cell_angle_alpha                90
_cell_angle_beta                 90
_cell_angle_gamma                90
_cell_volume                     3618.54
loop_
_atom_site_label
_atom_site_type_symbol
_atom_site_fract_x
_atom_site_fract_y
_atom_site_fract_z
Cd1 Cd 0.31714(3) -0.71257(2) -0.18312(2)
O1 O 0.4945(3) -0.6494(3) -0.2394(3)
O2 O 0.3623(3) -0.5716(3) -0.1967(2)
O3 O 0.1990(3) -0.6995(3) -0.2795(2)
O4 O 0.6770(3) -0.8428(3) 0.1049(2)
O5 O 0.6883(3) -0.7026(3) 0.1216(2)
N1 N 0.6142(3) -0.3424(3) -0.2727(3)
N2 N 0.4161(3) -0.7270(3) -0.0745(3)
C1 C 0.4512(4) -0.5785(4) -0.2245(3)
C2 C 0.5111(4) -0.4957(4) -0.2408(3)
C3 C 0.4740(4) -0.4189(4) -0.2131(3)
C4 C 0.5277(5) -0.3436(4) -0.2310(3)
C5 C 0.6499(4) -0.4179(4) -0.2979(3)
C6 C 0.6014(4) -0.4956(3) -0.2835(3)
C7 C 0.1912(6) -0.7602(6) -0.3388(4)
C8 C 0.2724(7) -0.7408(7) -0.3943(5)
C9 C 0.6479(4) -0.7669(4) 0.0919(3)
C10 C 0.5634(4) -0.7519(4) 0.0358(3)
C11 C 0.5434(5) -0.6703(4) 0.0088(3)
C12 C 0.4708(5) -0.6608(4) -0.0463(3)
C13 C 0.4309(5) -0.8050(3) -0.0456(4)
C14 C 0.5047(4) -0.8211(4) 0.0085(3)
Cd1C Cd 0.68286(3) -0.21257(2) -0.31688(2)
O4B O 0.1770(3) -0.6572(3) -0.1049(2)
O5B O 0.1883(3) -0.7974(3) -0.1216(2)
N1C N 0.3858(3) -0.8424(3) -0.2273(3)
Cd1B Cd 0.81714(3) -0.78743(2) 0.18312(2)
O6 O -0.171(3) 0.5122(17) -0.0920(17)
C15 C -0.248(3) 0.518(2) -0.037(2)
C16 C -0.1833(16) 0.4990(10) 0.0241(9)
loop_
_geom_bond_atom_site_label_1
_geom_bond_atom_site_label_2
_geom_bond_site_symmetry_1
_geom_bond_site_symmetry_2
Cd1 O1 1_555 1_555
O1 C1 1_555 1_555
O2 Cd1 1_555 1_555
O3 Cd1 1_555 1_555
O4 C9 1_555 1_555
O5 C9 1_555 1_555
N1 C4 1_555 1_555
N2 Cd1 1_555 1_555
C1 O2 1_555 1_555
C2 C1 1_555 1_555
C3 C2 1_555 1_555
C4 C3 1_555 1_555
C5 N1 1_555 1_555
C6 C2 1_555 1_555
C7 O3 1_555 1_555
C8 C7 1_555 1_555
C9 C10 1_555 1_555
C10 C11 1_555 1_555
C11 C12 1_555 1_555
C12 N2 1_555 1_555
C13 N2 1_555 1_555
C14 C10 1_555 1_555
O6 C15 1_555 1_555
C15 C16 1_555 1_555
Cd1C N1 1_555 1_555
O4B Cd1 1_555 1_555
O5B Cd1 1_555 1_555
N1C Cd1 1_555 1_555
Cd1B O4 1_555 1_555
O5 Cd1B 1_555 1_555
C5 C6 1_555 1_555
C13 C14 1_555 1_555

#END
