
#######################################################################
#
#                 Cambridge Crystallographic Data Centre
#                                CCDC 
#
#######################################################################
#
# If this CIF has been generated from an entry in the Cambridge 
# Structural Database, then it will include bibliographic, chemical, 
# crystal, experimental, refinement or atomic coordinate data resulting 
# from the CCDC's data processing and validation procedures.
#
#######################################################################

data_KEJCAF
_symmetry_cell_setting           monoclinic
_symmetry_space_group_name_H-M   'C 2/c'
_symmetry_Int_Tables_number      15
_space_group_name_Hall           '-C 2yn'
loop_
_symmetry_equiv_pos_site_id
_symmetry_equiv_pos_as_xyz
1 x,y,z
2 -x,y,1/2-z
3 1/2+x,1/2+y,z
4 1/2-x,1/2+y,1/2-z
5 -x,-y,-z
6 x,-y,1/2+z
7 1/2-x,1/2-y,-z
8 1/2+x,1/2-y,1/2+z
_cell_length_a                   27.8219(13)
_cell_length_b                   12.7614(6)
_cell_length_c                   19.3950(9)
_cell_angle_alpha                90
_cell_angle_beta                 129.9340(10)
_cell_angle_gamma                90
_cell_volume                     5280.17
loop_
_atom_site_label
_atom_site_type_symbol
_atom_site_fract_x
_atom_site_fract_y
_atom_site_fract_z
Ag1 Ag 0.017626(13) 1.08562(2) 0.45593(2)
Ag2 Ag 0.0000 1.11144(3) 0.7500
O1 O 0.30825(13) 0.8268(2) 0.78916(19)
O2 O 0.33387(10) 0.99208(18) 0.84183(16)
O3 O 0.32754(12) 1.1812(2) 0.96849(19)
O4 O 0.33679(11) 1.08462(18) 1.07384(16)
O5 O 0.25565(13) 0.6322(2) 0.9062(2)
O6 O 0.28671(12) 0.79830(19) 0.94804(18)
N1 N 0.10907(13) 1.0268(2) 0.5716(2)
N2 N 0.10565(14) 1.1301(2) 0.8430(2)
N3 N 0.07008(13) 0.8493(2) 0.6645(2)
N4 N 0.39446(13) 0.9356(2) 1.03108(19)
C1 C 0.15033(16) 1.0895(3) 0.6424(2)
H1 H 0.1374 1.1582 0.6430
C2 C 0.21062(16) 1.0583(3) 0.7143(2)
H2 H 0.2385 1.1046 0.7629
C3 C 0.22957(16) 0.9576(3) 0.7138(2)
C4 C 0.18719(16) 0.8917(3) 0.6424(2)
H3 H 0.1986 0.8220 0.6411
C5 C 0.12799(16) 0.9294(3) 0.5731(2)
H4 H 0.0992 0.8841 0.5241
C6 C 0.29460(17) 0.9170(3) 0.7858(2)
C7 C 0.40020(16) 0.9643(3) 0.9086(2)
H5 H 0.4245 1.0038 0.8961
H6 H 0.4054 0.8886 0.9038
C8 C 0.42546(16) 0.9883(3) 1.0023(2)
H7 H 0.4705 0.9693 1.0446
H8 H 0.4226 1.0649 1.0072
C9 C 0.13317(16) 1.1926(3) 0.8209(2)
H9 H 0.1074 1.2368 0.7698
C10 C 0.19690(16) 1.1951(3) 0.8692(2)
H10 H 0.2141 1.2387 0.8503
C11 C 0.23596(16) 1.1337(2) 0.9456(2)
C12 C 0.20844(16) 1.0704(3) 0.9702(2)
H11 H 0.2335 1.0280 1.0226
C13 C 0.14354(17) 1.0705(3) 0.9164(2)
H12 H 0.1250 1.0257 0.9326
C14 C 0.30464(17) 1.1364(3) 0.9956(3)
C15 C 0.40476(16) 1.0784(3) 1.1277(3)
H13 H 0.4258 1.0961 1.1911
H14 H 0.4185 1.1292 1.1050
C16 C 0.42255(17) 0.9685(3) 1.1223(2)
H15 H 0.4687 0.9644 1.1607
H16 H 0.4095 0.9189 1.1469
C17 C 0.11111(16) 0.9095(3) 0.7358(2)
H17 H 0.1001 0.9803 0.7346
C18 C 0.16898(16) 0.8738(3) 0.8114(2)
H18 H 0.1974 0.9199 0.8599
C19 C 0.18472(15) 0.7707(3) 0.8152(2)
C20 C 0.14190(17) 0.7066(3) 0.7430(3)
H19 H 0.1509 0.6344 0.7444
C21 C 0.08592(18) 0.7486(3) 0.6688(3)
H20 H 0.0574 0.7044 0.6187
C22 C 0.24583(16) 0.7250(3) 0.8948(2)
C23 C 0.34945(17) 0.7660(3) 1.0276(3)
H21 H 0.3539 0.6891 1.0269
H22 H 0.3560 0.7845 1.0827
C24 C 0.39723(16) 0.8204(3) 1.0276(3)
H23 H 0.4396 0.7962 1.0801
H24 H 0.3905 0.8005 0.9726
Ag1A Ag -0.017626(13) 1.08562(2) 1.04407(2)
Ag1D Ag -0.017626(13) 0.91438(2) 0.54407(2)
Ag1E Ag 0.017626(13) 0.91438(2) 0.95593(2)
O1A O -0.30825(13) 0.8268(2) 0.71084(19)
O2A O -0.33387(10) 0.99208(18) 0.65817(16)
O3A O -0.32754(12) 1.1812(2) 0.53151(19)
O4A O -0.33679(11) 1.08462(18) 0.42616(16)
O5A O -0.25565(13) 0.6322(2) 0.5938(2)
O6A O -0.28671(12) 0.79830(19) 0.55196(18)
N1A N -0.10907(13) 1.0268(2) 0.9284(2)
N2A N -0.10565(14) 1.1301(2) 0.6570(2)
N3A N -0.07008(13) 0.8493(2) 0.8355(2)
N3D N -0.07008(13) 1.1507(2) 0.3355(2)
N3E N 0.07008(13) 1.1507(2) 1.1645(2)
N4A N -0.39446(13) 0.9356(2) 0.46892(19)
C1A C -0.15033(16) 1.0895(3) 0.8576(2)
H1A H -0.1374 1.1582 0.8570
C2A C -0.21062(16) 1.0583(3) 0.7857(2)
H2A H -0.2385 1.1046 0.7371
C3A C -0.22957(16) 0.9576(3) 0.7862(2)
C4A C -0.18719(16) 0.8917(3) 0.8576(2)
H3A H -0.1986 0.8220 0.8589
C5A C -0.12799(16) 0.9294(3) 0.9269(2)
H4A H -0.0992 0.8841 0.9759
C6A C -0.29460(17) 0.9170(3) 0.7142(2)
C7A C -0.40020(16) 0.9643(3) 0.5914(2)
H5A H -0.4245 1.0038 0.6039
H6A H -0.4054 0.8886 0.5962
C8A C -0.42546(16) 0.9883(3) 0.4977(2)
H7A H -0.4705 0.9693 0.4554
H8A H -0.4226 1.0649 0.4928
C9A C -0.13317(16) 1.1926(3) 0.6791(2)
H9A H -0.1074 1.2368 0.7302
C10A C -0.19690(16) 1.1951(3) 0.6308(2)
H10A H -0.2141 1.2387 0.6497
C11A C -0.23596(16) 1.1337(2) 0.5544(2)
C12A C -0.20844(16) 1.0704(3) 0.5298(2)
H11A H -0.2335 1.0280 0.4774
C13A C -0.14354(17) 1.0705(3) 0.5836(2)
H12A H -0.1250 1.0257 0.5674
C14A C -0.30464(17) 1.1364(3) 0.5044(3)
C15A C -0.40476(16) 1.0784(3) 0.3723(3)
H13A H -0.4258 1.0961 0.3089
H14A H -0.4185 1.1292 0.3950
C16A C -0.42255(17) 0.9685(3) 0.3777(2)
H15A H -0.4687 0.9644 0.3393
H16A H -0.4095 0.9189 0.3531
C17A C -0.11111(16) 0.9095(3) 0.7642(2)
H17A H -0.1001 0.9803 0.7654
C18A C -0.16898(16) 0.8738(3) 0.6886(2)
H18A H -0.1974 0.9199 0.6401
C19A C -0.18472(15) 0.7707(3) 0.6848(2)
C20A C -0.14190(17) 0.7066(3) 0.7570(3)
H19A H -0.1509 0.6344 0.7556
C21A C -0.08592(18) 0.7486(3) 0.8312(3)
H20A H -0.0574 0.7044 0.8813
C22A C -0.24583(16) 0.7250(3) 0.6052(2)
C23A C -0.34945(17) 0.7660(3) 0.4724(3)
H21A H -0.3539 0.6891 0.4731
H22A H -0.3560 0.7845 0.4173
C24A C -0.39723(16) 0.8204(3) 0.4724(3)
H23A H -0.4396 0.7962 0.4199
H24A H -0.3905 0.8005 0.5274
O7 O 0.01696(14) 1.2500(2) 0.54038(19)
O8 O 0.01045(15) 1.2908(3) 0.6418(2)
O9 O 0.01361(13) 1.1281(2) 0.61441(19)
N5 N 0.01312(13) 1.2229(3) 0.5987(2)
O10 O 0.03580(13) 0.9099(2) 0.82251(19)
O11 O 0.0000 0.7651(3) 0.7500
N6 N 0.0000 0.8608(3) 0.7500
O10A O -0.03580(13) 0.9099(2) 0.67749(19)
loop_
_geom_bond_atom_site_label_1
_geom_bond_atom_site_label_2
_geom_bond_site_symmetry_1
_geom_bond_site_symmetry_2
Ag1 N1 1_555 1_555
Ag2 N2 1_555 1_555
O1 C6 1_555 1_555
O2 C6 1_555 1_555
O3 C14 1_555 1_555
O4 C14 1_555 1_555
O5 C22 1_555 1_555
O6 C22 1_555 1_555
O7 N5 1_555 1_555
O8 N5 1_555 1_555
O9 N5 1_555 1_555
O10 N6 1_555 1_555
O11 N6 1_555 1_555
N1 C1 1_555 1_555
N2 C9 1_555 1_555
N3 C17 1_555 1_555
N4 C8 1_555 1_555
N6 O10A 1_555 1_555
C1 H1 1_555 1_555
C2 C1 1_555 1_555
H2 C2 1_555 1_555
C3 C2 1_555 1_555
C4 C3 1_555 1_555
H3 C4 1_555 1_555
C5 N1 1_555 1_555
H4 C5 1_555 1_555
C6 C3 1_555 1_555
C7 O2 1_555 1_555
H5 C7 1_555 1_555
H6 C7 1_555 1_555
C8 C7 1_555 1_555
H7 C8 1_555 1_555
H8 C8 1_555 1_555
C9 H9 1_555 1_555
C10 C9 1_555 1_555
H10 C10 1_555 1_555
C11 C10 1_555 1_555
C12 C11 1_555 1_555
H11 C12 1_555 1_555
C13 N2 1_555 1_555
H12 C13 1_555 1_555
C14 C11 1_555 1_555
C15 O4 1_555 1_555
H13 C15 1_555 1_555
H14 C15 1_555 1_555
C16 N4 1_555 1_555
H15 C16 1_555 1_555
H16 C16 1_555 1_555
C17 H17 1_555 1_555
C18 C17 1_555 1_555
H18 C18 1_555 1_555
C19 C18 1_555 1_555
C20 C19 1_555 1_555
H19 C20 1_555 1_555
C21 N3 1_555 1_555
H20 C21 1_555 1_555
C22 C19 1_555 1_555
C23 O6 1_555 1_555
H21 C23 1_555 1_555
H22 C23 1_555 1_555
C24 N4 1_555 1_555
H23 C24 1_555 1_555
H24 C24 1_555 1_555
Ag1A N1A 1_555 1_555
Ag1D N3 1_555 1_555
Ag1E N3A 1_555 1_555
O1A C6A 1_555 1_555
O2A C6A 1_555 1_555
O3A C14A 1_555 1_555
O4A C14A 1_555 1_555
O5A C22A 1_555 1_555
O6A C22A 1_555 1_555
N1A C1A 1_555 1_555
N2A Ag2 1_555 1_555
N3A C17A 1_555 1_555
N3D Ag1 1_555 1_555
N3E Ag1A 1_555 1_555
N4A C8A 1_555 1_555
C1A H1A 1_555 1_555
C2A C1A 1_555 1_555
H2A C2A 1_555 1_555
C3A C2A 1_555 1_555
C4A C3A 1_555 1_555
H3A C4A 1_555 1_555
C5A N1A 1_555 1_555
H4A C5A 1_555 1_555
C6A C3A 1_555 1_555
C7A O2A 1_555 1_555
H5A C7A 1_555 1_555
H6A C7A 1_555 1_555
C8A C7A 1_555 1_555
H7A C8A 1_555 1_555
H8A C8A 1_555 1_555
C9A N2A 1_555 1_555
H9A C9A 1_555 1_555
C10A C9A 1_555 1_555
H10A C10A 1_555 1_555
C11A C10A 1_555 1_555
C12A C11A 1_555 1_555
H11A C12A 1_555 1_555
C13A N2A 1_555 1_555
H12A C13A 1_555 1_555
C14A C11A 1_555 1_555
C15A O4A 1_555 1_555
H13A C15A 1_555 1_555
H14A C15A 1_555 1_555
C16A N4A 1_555 1_555
H15A C16A 1_555 1_555
H16A C16A 1_555 1_555
C17A H17A 1_555 1_555
C18A C17A 1_555 1_555
H18A C18A 1_555 1_555
C19A C18A 1_555 1_555
C20A C19A 1_555 1_555
H19A C20A 1_555 1_555
C21A N3A 1_555 1_555
H20A C21A 1_555 1_555
C22A C19A 1_555 1_555
C23A O6A 1_555 1_555
H21A C23A 1_555 1_555
H22A C23A 1_555 1_555
C24A N4A 1_555 1_555
H23A C24A 1_555 1_555
H24A C24A 1_555 1_555
C4 C5 1_555 1_555
C12 C13 1_555 1_555
C15 C16 1_555 1_555
C20 C21 1_555 1_555
C23 C24 1_555 1_555
C4A C5A 1_555 1_555
C12A C13A 1_555 1_555
C15A C16A 1_555 1_555
C20A C21A 1_555 1_555
C23A C24A 1_555 1_555

#END
