
#######################################################################
#
#                 Cambridge Crystallographic Data Centre
#                                CCDC 
#
#######################################################################
#
# If this CIF has been generated from an entry in the Cambridge 
# Structural Database, then it will include bibliographic, chemical, 
# crystal, experimental, refinement or atomic coordinate data resulting 
# from the CCDC's data processing and validation procedures.
#
#######################################################################

data_KEJDEJ
_symmetry_cell_setting           monoclinic
_symmetry_space_group_name_H-M   'C c'
_symmetry_Int_Tables_number      9
_space_group_name_Hall           'C -2yc'
loop_
_symmetry_equiv_pos_site_id
_symmetry_equiv_pos_as_xyz
1 x,y,z
2 x,-y,1/2+z
3 1/2+x,1/2+y,z
4 1/2+x,1/2-y,1/2+z
_cell_length_a                   15.0383(13)
_cell_length_b                   12.2779(11)
_cell_length_c                   8.7088(8)
_cell_angle_alpha                90
_cell_angle_beta                 92.935(2)
_cell_angle_gamma                90
_cell_volume                     1605.87
loop_
_atom_site_label
_atom_site_type_symbol
_atom_site_fract_x
_atom_site_fract_y
_atom_site_fract_z
Cr1 Cr 0.45860(9) 0.25209(7) 0.38294(12)
N1 N 0.4257(4) 0.4068(4) 0.3667(6)
N2 N 0.4964(4) 0.0975(4) 0.3735(7)
O1 O 0.5395(3) 0.3177(3) 0.5474(5)
O2 O 0.5958(4) 0.4766(4) 0.6361(6)
O3 O 0.3595(4) 0.2480(3) 0.2208(6)
O4 O 0.2549(4) 0.3485(4) 0.0950(6)
O5 O 0.5549(4) 0.2605(3) 0.2335(6)
O6 O 0.6678(4) 0.1684(4) 0.1379(6)
O7 O 0.3780(3) 0.1827(3) 0.5295(6)
O8 O 0.3254(4) 0.0212(4) 0.6078(6)
C1 C 0.4760(5) 0.4787(5) 0.4468(7)
C2 C 0.4614(5) 0.5913(5) 0.4267(8)
H1 H 0.4961 0.6424 0.4811
C3 C 0.3932(5) 0.6233(5) 0.3226(9)
H2 H 0.3814 0.6970 0.3079
C4 C 0.3421(5) 0.5462(5) 0.2398(8)
H3 H 0.2970 0.5677 0.1694
C5 C 0.3603(4) 0.4367(5) 0.2649(7)
C6 C 0.5436(5) 0.4226(5) 0.5519(7)
C7 C 0.3204(5) 0.3381(5) 0.1851(8)
C8 C 0.5631(5) 0.0720(5) 0.2847(8)
C9 C 0.5871(5) -0.0367(5) 0.2670(9)
H4 H 0.6345 -0.0561 0.2081
C10 C 0.5380(5) -0.1147(4) 0.3402(9)
H5 H 0.5522 -0.1878 0.3276
C11 C 0.4686(5) -0.0878(5) 0.4313(7)
H6 H 0.4364 -0.1408 0.4808
C12 C 0.4490(4) 0.0236(5) 0.4454(7)
C13 C 0.6008(5) 0.1721(5) 0.2124(8)
C14 C 0.3778(5) 0.0774(5) 0.5357(8)
Na1 Na 0.6950(2) 0.6314(2) 0.6429(3)
O9 O 0.7419(5) 0.6539(5) 0.9017(7)
O10 O 0.6869(5) 0.6443(5) 0.3685(7)
O5A O 0.5549(4) 0.7395(3) 0.7335(6)
O6A O 0.6678(4) 0.8316(4) 0.6379(6)
O8B O 0.8254(4) 0.5212(4) 0.6078(6)
Na1A Na 0.6950(2) 0.3686(2) 0.1429(3)
Na1B Na 0.1950(2) 0.1314(2) 0.6429(3)
loop_
_geom_bond_atom_site_label_1
_geom_bond_atom_site_label_2
_geom_bond_site_symmetry_1
_geom_bond_site_symmetry_2
Cr1 N1 1_555 1_555
N1 C1 1_555 1_555
N2 Cr1 1_555 1_555
O1 Cr1 1_555 1_555
O2 C6 1_555 1_555
O3 Cr1 1_555 1_555
O4 C7 1_555 1_555
O5 Cr1 1_555 1_555
O6 C13 1_555 1_555
O7 Cr1 1_555 1_555
O8 C14 1_555 1_555
C1 C2 1_555 1_555
C2 H1 1_555 1_555
C3 C2 1_555 1_555
H2 C3 1_555 1_555
C4 C3 1_555 1_555
H3 C4 1_555 1_555
C5 N1 1_555 1_555
C6 O1 1_555 1_555
C7 O3 1_555 1_555
C8 N2 1_555 1_555
C9 C8 1_555 1_555
H4 C9 1_555 1_555
C10 C9 1_555 1_555
H5 C10 1_555 1_555
C11 C10 1_555 1_555
H6 C11 1_555 1_555
C12 N2 1_555 1_555
C13 O5 1_555 1_555
C14 O7 1_555 1_555
Na1 O2 1_555 1_555
O9 Na1 1_555 1_555
O10 Na1 1_555 1_555
O5A Na1 1_555 1_555
O6A Na1 1_555 1_555
O8B Na1 1_555 1_555
Na1A O5 1_555 1_555
Na1B O8 1_555 1_555
O6 Na1A 1_555 1_555
C1 C6 1_555 1_555
C4 C5 1_555 1_555
C5 C7 1_555 1_555
C8 C13 1_555 1_555
C11 C12 1_555 1_555
C12 C14 1_555 1_555

#END
