
#######################################################################
#
#                 Cambridge Crystallographic Data Centre
#                                CCDC 
#
#######################################################################
#
# If this CIF has been generated from an entry in the Cambridge 
# Structural Database, then it will include bibliographic, chemical, 
# crystal, experimental, refinement or atomic coordinate data resulting 
# from the CCDC's data processing and validation procedures.
#
#######################################################################

data_KEJDEJ01
_symmetry_cell_setting           monoclinic
_symmetry_space_group_name_H-M   'C c'
_symmetry_Int_Tables_number      9
_space_group_name_Hall           'C -2yc'
loop_
_symmetry_equiv_pos_site_id
_symmetry_equiv_pos_as_xyz
1 x,y,z
2 x,-y,1/2+z
3 1/2+x,1/2+y,z
4 1/2+x,1/2-y,1/2+z
_cell_length_a                   15.000(4)
_cell_length_b                   12.255(3)
_cell_length_c                   8.690(1)
_cell_angle_alpha                90
_cell_angle_beta                 92.96(2)
_cell_angle_gamma                90
_cell_volume                     1595.31
loop_
_atom_site_label
_atom_site_type_symbol
_atom_site_fract_x
_atom_site_fract_y
_atom_site_fract_z
Cr1 Cr 0.61840(8) 0.24780(7) 0.56886(11)
O1 O 0.5197(4) 0.2520(3) 0.4060(6)
O2 O 0.4145(3) 0.1517(4) 0.2789(6)
O3 O 0.7000(3) 0.1827(3) 0.7331(5)
O4 O 0.7559(3) 0.0238(4) 0.8223(5)
N1 N 0.5864(4) 0.0920(4) 0.5537(6)
C1 C 0.6362(4) 0.0201(5) 0.6321(6)
C2 C 0.6222(5) -0.0905(5) 0.6113(7)
H1 H 0.6575 -0.1419 0.6644
C3 C 0.5531(5) -0.1219(5) 0.5076(8)
H2 H 0.5410 -0.1957 0.4933
C4 C 0.5022(4) -0.0459(5) 0.4253(7)
H3 H 0.4566 -0.0677 0.3554
C5 C 0.5206(4) 0.0637(5) 0.4496(7)
C6 C 0.4796(4) 0.1616(5) 0.3702(7)
C7 C 0.7044(4) 0.0775(5) 0.7383(7)
O5 O 0.5380(3) 0.3172(3) 0.7150(5)
O6 O 0.4855(4) 0.4787(4) 0.7932(6)
O7 O 0.7141(3) 0.2390(3) 0.4199(5)
O8 O 0.8273(3) 0.3317(4) 0.3231(6)
N2 N 0.6554(4) 0.4026(4) 0.5575(6)
C8 C 0.7233(4) 0.4278(5) 0.4716(7)
C9 C 0.7472(4) 0.5355(5) 0.4529(8)
H4 H 0.7946 0.5547 0.3936
C10 C 0.6973(5) 0.6150(4) 0.5264(8)
H5 H 0.7113 0.6884 0.5144
C11 C 0.6284(5) 0.5864(5) 0.6156(7)
H6 H 0.5953 0.6393 0.6637
C12 C 0.6094(4) 0.4766(5) 0.6322(7)
C13 C 0.5376(4) 0.4236(5) 0.7213(7)
C14 C 0.7599(4) 0.3272(5) 0.3971(7)
Na1 Na 0.8552(2) -0.1312(2) 0.8288(3)
O9 O 0.9032(4) -0.1536(5) 1.0860(6)
H7 H 0.917(9) -0.102(5) 1.150(8)
H8 H 0.898(11) -0.211(5) 1.142(9)
O10 O 0.8474(5) -0.1444(5) 0.5555(6)
O6B O 0.9855(4) -0.0213(4) 0.7932(6)
O7A O 0.7141(3) -0.2390(3) 0.9199(5)
O8A O 0.8273(3) -0.3317(4) 0.8231(6)
Na1B Na 0.3552(2) 0.3688(2) 0.8288(3)
Na1A Na 0.8552(2) 0.1312(2) 0.3288(3)
loop_
_geom_bond_atom_site_label_1
_geom_bond_atom_site_label_2
_geom_bond_site_symmetry_1
_geom_bond_site_symmetry_2
Cr1 O1 1_555 1_555
O1 C6 1_555 1_555
O2 C6 1_555 1_555
O3 Cr1 1_555 1_555
O4 C7 1_555 1_555
N1 Cr1 1_555 1_555
C1 N1 1_555 1_555
C2 C1 1_555 1_555
H1 C2 1_555 1_555
C3 C2 1_555 1_555
H2 C3 1_555 1_555
C4 C3 1_555 1_555
H3 C4 1_555 1_555
C5 N1 1_555 1_555
C6 C5 1_555 1_555
C7 O3 1_555 1_555
O5 Cr1 1_555 1_555
O6 C13 1_555 1_555
O7 Cr1 1_555 1_555
O8 C14 1_555 1_555
N2 Cr1 1_555 1_555
C8 N2 1_555 1_555
C9 C8 1_555 1_555
H4 C9 1_555 1_555
C10 C9 1_555 1_555
H5 C10 1_555 1_555
C11 C10 1_555 1_555
H6 C11 1_555 1_555
C12 N2 1_555 1_555
C13 O5 1_555 1_555
C14 O7 1_555 1_555
Na1 O4 1_555 1_555
O9 Na1 1_555 1_555
H7 O9 1_555 1_555
H8 O9 1_555 1_555
O10 Na1 1_555 1_555
O6B Na1 1_555 1_555
O7A Na1 1_555 1_555
O8A Na1 1_555 1_555
Na1B O6 1_555 1_555
Na1A O7 1_555 1_555
C1 C7 1_555 1_555
C4 C5 1_555 1_555
O8 Na1A 1_555 1_555
C8 C14 1_555 1_555
C11 C12 1_555 1_555
C12 C13 1_555 1_555

#END
