
#######################################################################
#
#                 Cambridge Crystallographic Data Centre
#                                CCDC 
#
#######################################################################
#
# If this CIF has been generated from an entry in the Cambridge 
# Structural Database, then it will include bibliographic, chemical, 
# crystal, experimental, refinement or atomic coordinate data resulting 
# from the CCDC's data processing and validation procedures.
#
#######################################################################

data_KEJDEJ02
_symmetry_cell_setting           monoclinic
_symmetry_space_group_name_H-M   'P 21/c'
_symmetry_Int_Tables_number      14
_space_group_name_Hall           '-P 2ybc'
loop_
_symmetry_equiv_pos_site_id
_symmetry_equiv_pos_as_xyz
1 x,y,z
2 -x,1/2+y,1/2-z
3 -x,-y,-z
4 x,1/2-y,1/2+z
_cell_length_a                   14.083(3)
_cell_length_b                   9.6685(19)
_cell_length_c                   13.016(3)
_cell_angle_alpha                90
_cell_angle_beta                 113.51(3)
_cell_angle_gamma                90
_cell_volume                     1625.16
loop_
_atom_site_label
_atom_site_type_symbol
_atom_site_fract_x
_atom_site_fract_y
_atom_site_fract_z
Cr1 Cr 0.25826(3) -0.04094(4) 0.23384(3)
O1 O 0.20550(13) -0.02026(18) 0.35304(14)
O2 O 0.06657(14) -0.04243(19) 0.39401(16)
O3 O 0.15369(15) -0.14571(19) -0.09215(16)
O4 O 0.25506(12) -0.08334(18) 0.08304(14)
O5 O 0.32580(13) -0.22145(16) 0.29441(15)
O6 O 0.47288(15) -0.32751(19) 0.39602(17)
O7 O 0.34074(16) 0.35739(18) 0.24013(17)
O8 O 0.24881(13) 0.16040(18) 0.20531(15)
N1 N 0.11429(14) -0.10451(19) 0.15447(16)
N2 N 0.40451(15) 0.0144(2) 0.31261(16)
C1 C 0.1105(2) -0.0539(2) 0.3303(2)
C2 C 0.05456(18) -0.1107(2) 0.2119(2)
C3 C -0.04468(19) -0.1636(3) 0.1620(2)
H1 H -0.0871 -0.1703 0.2012
C4 C -0.07871(19) -0.2065(3) 0.0511(2)
H2 H -0.1452 -0.2422 0.0154
C5 C -0.01560(19) -0.1971(2) -0.0071(2)
H3 H -0.0391 -0.2250 -0.0815
C6 C 0.08330(17) -0.1453(2) 0.0479(2)
C7 C 0.16721(19) -0.1258(2) 0.0050(2)
C8 C 0.42461(19) -0.2224(3) 0.3534(2)
C9 C 0.47527(18) -0.0826(3) 0.3653(2)
C10 C 0.57802(19) -0.0458(3) 0.4222(2)
H4 H 0.6279 -0.1117 0.4596
C11 C 0.6043(2) 0.0920(3) 0.4218(2)
H5 H 0.6733 0.1185 0.4577
C12 C 0.5297(2) 0.1912(3) 0.3687(2)
H6 H 0.5472 0.2842 0.3702
C13 C 0.42801(18) 0.1474(3) 0.3132(2)
C14 C 0.3329(2) 0.2334(3) 0.2484(2)
Na1 Na 0.27507(9) -0.04443(10) -0.19029(10)
O9 O 0.13472(16) -0.0423(2) -0.35912(17)
H7 H 0.0740 -0.0450 -0.3614
H8 H 0.1426 -0.0241 -0.4189
O10 O 0.32207(16) 0.1056(2) -0.03658(17)
H9 H 0.2969 0.0799 0.0107
H10 H 0.3841 0.1364 -0.0060
O5C O 0.32580(13) -0.27855(16) -0.20559(15)
O6C O 0.47288(15) -0.17249(19) -0.10398(17)
O7C O 0.34074(16) 0.14261(18) -0.25987(17)
Na1C Na 0.27507(9) -0.45557(10) 0.30971(10)
Na1C_2 Na 0.27507(9) 0.54443(10) 0.30971(10)
loop_
_geom_bond_atom_site_label_1
_geom_bond_atom_site_label_2
_geom_bond_site_symmetry_1
_geom_bond_site_symmetry_2
Cr1 O1 1_555 1_555
O1 C1 1_555 1_555
O2 C1 1_555 1_555
O3 C7 1_555 1_555
O4 Cr1 1_555 1_555
O5 Cr1 1_555 1_555
O6 C8 1_555 1_555
O7 C14 1_555 1_555
O8 Cr1 1_555 1_555
N1 Cr1 1_555 1_555
N2 Cr1 1_555 1_555
C1 C2 1_555 1_555
C2 N1 1_555 1_555
C3 C2 1_555 1_555
H1 C3 1_555 1_555
C4 C3 1_555 1_555
H2 C4 1_555 1_555
C5 C4 1_555 1_555
H3 C5 1_555 1_555
C6 N1 1_555 1_555
C7 O4 1_555 1_555
C8 O5 1_555 1_555
C9 N2 1_555 1_555
C10 C9 1_555 1_555
H4 C10 1_555 1_555
C11 C10 1_555 1_555
H5 C11 1_555 1_555
C12 C11 1_555 1_555
H6 C12 1_555 1_555
C13 N2 1_555 1_555
C14 O8 1_555 1_555
Na1 O3 1_555 1_555
O9 Na1 1_555 1_555
H7 O9 1_555 1_555
H8 O9 1_555 1_555
O10 Na1 1_555 1_555
H9 O10 1_555 1_555
H10 O10 1_555 1_555
O5C Na1 1_555 1_555
O6C Na1 1_555 1_555
O7C Na1 1_555 1_555
Na1C O5 1_555 1_555
Na1C_2 O7 1_555 1_555
O6 Na1C 1_555 1_555
C5 C6 1_555 1_555
C6 C7 1_555 1_555
C8 C9 1_555 1_555
C12 C13 1_555 1_555
C13 C14 1_555 1_555

#END
