
#######################################################################
#
#                 Cambridge Crystallographic Data Centre
#                                CCDC 
#
#######################################################################
#
# If this CIF has been generated from an entry in the Cambridge 
# Structural Database, then it will include bibliographic, chemical, 
# crystal, experimental, refinement or atomic coordinate data resulting 
# from the CCDC's data processing and validation procedures.
#
#######################################################################

data_KEJFIP
_symmetry_cell_setting           monoclinic
_symmetry_space_group_name_H-M   'P 21/n'
_symmetry_Int_Tables_number      14
_space_group_name_Hall           '-P 2yn'
loop_
_symmetry_equiv_pos_site_id
_symmetry_equiv_pos_as_xyz
1 x,y,z
2 1/2-x,1/2+y,1/2-z
3 -x,-y,-z
4 1/2+x,1/2-y,1/2+z
_cell_length_a                   13.9198(3)
_cell_length_b                   13.8843(3)
_cell_length_c                   19.8022(4)
_cell_angle_alpha                90
_cell_angle_beta                 95.47(6)
_cell_angle_gamma                90
_cell_volume                     3809.68
loop_
_atom_site_label
_atom_site_type_symbol
_atom_site_fract_x
_atom_site_fract_y
_atom_site_fract_z
Cu1 Cu 0.78921(4) 0.13402(4) 0.50011(3)
Cu2 Cu 0.64656(4) 0.30551(4) 0.45983(3)
N1 N 0.8797(2) 0.1013(2) 0.4309(2)
N2 N 0.7978(2) -0.0080(2) 0.5144(2)
C1 C 0.9207(3) 0.1637(3) 0.3908(2)
C2 C 0.9914(4) 0.1352(4) 0.3504(2)
C3 C 1.0210(4) 0.0414(4) 0.3513(2)
C4 C 0.9784(3) -0.0241(3) 0.3921(2)
C5 C 0.9077(3) 0.0075(3) 0.4305(2)
C6 C 0.8573(3) -0.0553(3) 0.4756(2)
C7 C 0.8677(3) -0.1540(3) 0.4781(2)
C8 C 0.8176(4) -0.2056(3) 0.5236(3)
C9 C 0.7591(3) -0.1584(3) 0.5634(3)
C10 C 0.7505(3) -0.0606(3) 0.5575(2)
N3 N 0.6339(2) 0.4444(2) 0.4844(2)
N4 N 0.6590(2) 0.3661(2) 0.3693(2)
C11 C 0.6198(3) 0.4782(3) 0.5464(2)
C12 C 0.6065(4) 0.5756(4) 0.5589(3)
C13 C 0.6082(4) 0.6382(3) 0.5060(3)
C14 C 0.6238(4) 0.6056(3) 0.4426(3)
C15 C 0.6371(3) 0.5075(3) 0.4332(2)
C16 C 0.6551(3) 0.4632(3) 0.3683(2)
C17 C 0.6674(4) 0.5143(3) 0.3097(3)
C18 C 0.6863(4) 0.4654(4) 0.2526(3)
C19 C 0.6915(4) 0.3679(4) 0.2537(2)
C20 C 0.6763(4) 0.3201(3) 0.3132(2)
O1 O 0.6110(2) 0.2666(2) 0.5487(1)
O2 O 0.7152(2) 0.1465(2) 0.5780(1)
O3 O 0.3474(2) -0.1736(2) 0.5727(1)
O4 O 0.5074(2) -0.1707(2) 0.5849(2)
C21 C 0.6457(3) 0.2009(3) 0.5882(2)
C22 C 0.5963(3) 0.1870(3) 0.6517(2)
C23 C 0.5013(3) 0.1337(3) 0.6375(2)
C24 C 0.5141(3) 0.0309(3) 0.6142(2)
C25 C 0.4212(3) -0.0257(3) 0.6075(2)
C26 C 0.4296(3) -0.1303(3) 0.5869(2)
O5 O 0.8019(2) 0.2718(2) 0.4883(1)
O6 O 0.9372(2) 0.2603(2) 0.5557(1)
C27 C 0.8787(3) 0.3087(3) 0.5204(2)
C28 C 0.8917(3) 0.4156(3) 0.5095(2)
C29 C 0.9952(3) 0.4460(3) 0.5035(2)
H1 H 0.9007 0.2291 0.3901
H2 H 1.0192 0.1807 0.3221
H3 H 1.0701 0.0213 0.3243
H4 H 0.9979 -0.0897 0.3935
H5 H 0.9082 -0.1861 0.4493
H6 H 0.8244 -0.2736 0.5269
H7 H 0.7245 -0.1926 0.5949
H8 H 0.7091 -0.0281 0.5854
H9 H 0.6188 0.4339 0.5829
H10 H 0.5966 0.5979 0.6030
H11 H 0.5984 0.7050 0.5131
H12 H 0.6255 0.6493 0.4058
H13 H 0.6627 0.5826 0.3093
H14 H 0.6957 0.4997 0.2122
H15 H 0.7054 0.3331 0.2145
H16 H 0.6784 0.2517 0.3137
H17 H 0.5842 0.2482 0.6704
H18 H 0.6374 0.1509 0.6833
H19 H 0.4626 0.1672 0.6031
H20 H 0.4696 0.1326 0.6779
H21 H 0.5586 -0.0006 0.6463
H22 H 0.5393 0.0321 0.5713
H23 H 0.3780 0.0053 0.5744
H24 H 0.3952 -0.0241 0.6501
H25 H 0.8691 0.4488 0.5468
H26 H 0.8540 0.4335 0.4689
H27 H 1.0172 0.4160 0.4646
H28 H 1.0341 0.4256 0.5429
Cu1B Cu 0.21079(4) -0.13402(4) 0.49989(3)
Cu1B_2 Cu 1.21079(4) 0.86598(4) 0.49989(3)
Cu2B Cu 0.35344(4) -0.30551(4) 0.54017(3)
Cu2B_2 Cu 1.35344(4) 0.69449(4) 0.54017(3)
N1B N 0.1203(2) -0.1013(2) 0.5691(2)
N2B N 0.2022(2) 0.0080(2) 0.4856(2)
C1B C 0.0793(3) -0.1637(3) 0.6092(2)
C2B C 0.0086(4) -0.1352(4) 0.6496(2)
C3B C -0.0210(4) -0.0414(4) 0.6487(2)
C4B C 0.0216(3) 0.0241(3) 0.6079(2)
C5B C 0.0923(3) -0.0075(3) 0.5695(2)
C6B C 0.1427(3) 0.0553(3) 0.5244(2)
C7B C 0.1323(3) 0.1540(3) 0.5219(2)
C8B C 0.1824(4) 0.2056(3) 0.4764(3)
C9B C 0.2409(3) 0.1584(3) 0.4366(3)
C10B C 0.2495(3) 0.0606(3) 0.4425(2)
N3B N 0.3661(2) -0.4444(2) 0.5156(2)
N4B N 0.3410(2) -0.3661(2) 0.6307(2)
C11B C 0.3802(3) -0.4782(3) 0.4536(2)
C12B C 0.3935(4) -0.5756(4) 0.4411(3)
C13B C 0.3918(4) -0.6382(3) 0.4940(3)
C14B C 0.3762(4) -0.6056(3) 0.5574(3)
C15B C 0.3629(3) -0.5075(3) 0.5668(2)
C16B C 0.3449(3) -0.4632(3) 0.6317(2)
C17B C 0.3326(4) -0.5143(3) 0.6903(3)
C18B C 0.3137(4) -0.4654(4) 0.7474(3)
C19B C 0.3085(4) -0.3679(4) 0.7463(2)
C20B C 0.3237(4) -0.3201(3) 0.6868(2)
O1B O 0.3890(2) -0.2666(2) 0.4513(1)
O2B O 0.2848(2) -0.1465(2) 0.4220(1)
O3B O 0.6526(2) 0.1736(2) 0.4273(1)
O4B O 0.4926(2) 0.1707(2) 0.4151(2)
C21B C 0.3543(3) -0.2009(3) 0.4118(2)
C22B C 0.4037(3) -0.1870(3) 0.3483(2)
C23B C 0.4987(3) -0.1337(3) 0.3625(2)
C24B C 0.4859(3) -0.0309(3) 0.3858(2)
C25B C 0.5788(3) 0.0257(3) 0.3925(2)
C26B C 0.5704(3) 0.1303(3) 0.4131(2)
O5B O 1.1981(2) 0.7282(2) 0.5117(1)
O5B_2 O 0.1981(2) -0.2718(2) 0.5117(1)
O6B O 1.0628(2) 0.7397(2) 0.4443(1)
C27B C 1.1213(3) 0.6913(3) 0.4796(2)
C28B C 1.1083(3) 0.5844(3) 0.4905(2)
C29B C 1.0048(3) 0.5540(3) 0.4965(2)
H1B H 0.0993 -0.2291 0.6099
H2B H -0.0192 -0.1807 0.6779
H3B H -0.0701 -0.0213 0.6757
H4B H 0.0021 0.0897 0.6065
H5B H 0.0918 0.1861 0.5507
H6B H 0.1756 0.2736 0.4731
H7B H 0.2755 0.1926 0.4051
H8B H 0.2909 0.0281 0.4146
H9B H 0.3812 -0.4339 0.4171
H10B H 0.4034 -0.5979 0.3970
H11B H 0.4016 -0.7050 0.4869
H12B H 0.3745 -0.6493 0.5942
H13B H 0.3373 -0.5826 0.6907
H14B H 0.3043 -0.4997 0.7878
H15B H 0.2946 -0.3331 0.7855
H16B H 0.3216 -0.2517 0.6863
H17B H 0.4158 -0.2482 0.3296
H18B H 0.3626 -0.1509 0.3167
H19B H 0.5374 -0.1672 0.3969
H20B H 0.5304 -0.1326 0.3221
H21B H 0.4414 0.0006 0.3537
H22B H 0.4607 -0.0321 0.4287
H23B H 0.6220 -0.0053 0.4256
H24B H 0.6048 0.0241 0.3499
H25B H 1.1309 0.5512 0.4532
H26B H 1.1460 0.5665 0.5311
H27B H 0.9828 0.5840 0.5354
H28B H 0.9659 0.5744 0.4571
N5 N 0.6856(4) 0.4237(4) 0.7429(3)
N6 N 0.8316(4) 0.6393(4) 0.6449(3)
N7 N 1.1584(4) 0.3337(4) 0.6734(3)
N8 N 1.0722(4) 0.6261(3) 0.6830(3)
C30 C 0.7594(4) 0.4456(4) 0.7254(3)
C31 C 0.8409(4) 0.5668(4) 0.6695(2)
C32 C 0.8463(4) 0.4764(3) 0.7008(2)
C33 C 0.9308(4) 0.4210(3) 0.7055(2)
C34 C 1.0219(4) 0.4504(3) 0.6919(2)
C35 C 1.0469(4) 0.5489(4) 0.6869(2)
C36 C 1.0959(4) 0.3838(4) 0.6824(3)
O7 O 0.9418(4) 0.3309(4) 0.7348(2)
C37 C 0.8623(7) 0.2591(7) 0.7191(5)
C39 C 0.8940(5) 0.1692(4) 0.7491(4)
O8? O 0.8869(8) 0.3269(8) 0.7075(5)
C38? C 0.953(1) 0.251(1) 0.7269(9)
loop_
_geom_bond_atom_site_label_1
_geom_bond_atom_site_label_2
_geom_bond_site_symmetry_1
_geom_bond_site_symmetry_2
Cu1 N1 1_555 1_555
Cu2 N3 1_555 1_555
N1 C1 1_555 1_555
N2 Cu1 1_555 1_555
C1 C2 1_555 1_555
C2 C3 1_555 1_555
C3 C4 1_555 1_555
C4 C5 1_555 1_555
C5 N1 1_555 1_555
C6 N2 1_555 1_555
C7 C6 1_555 1_555
C8 C7 1_555 1_555
C9 C8 1_555 1_555
C10 N2 1_555 1_555
N3 C11 1_555 1_555
N4 Cu2 1_555 1_555
C11 C12 1_555 1_555
C12 C13 1_555 1_555
C13 C14 1_555 1_555
C14 C15 1_555 1_555
C15 N3 1_555 1_555
C16 N4 1_555 1_555
C17 C16 1_555 1_555
C18 C17 1_555 1_555
C19 C18 1_555 1_555
C20 N4 1_555 1_555
O1 Cu2 1_555 1_555
O2 Cu1 1_555 1_555
O3 C26 1_555 1_555
O4 C26 1_555 1_555
C21 O1 1_555 1_555
C22 C21 1_555 1_555
C23 C22 1_555 1_555
C24 C23 1_555 1_555
C25 C24 1_555 1_555
C26 C25 1_555 1_555
O5 Cu1 1_555 1_555
O6 C27 1_555 1_555
C27 O5 1_555 1_555
C28 C27 1_555 1_555
C29 C28 1_555 1_555
N5 C30 1_555 1_555
N6 C31 1_555 1_555
N7 C36 1_555 1_555
N8 C35 1_555 1_555
C30 C32 1_555 1_555
C31 C32 1_555 1_555
C32 C33 1_555 1_555
C33 C34 1_555 1_555
C34 C35 1_555 1_555
C36 C34 1_555 1_555
O7 C33 1_555 1_555
C37 O7 1_555 1_555
C39 C37 1_555 1_555
H1 C1 1_555 1_555
H2 C2 1_555 1_555
H3 C3 1_555 1_555
H4 C4 1_555 1_555
H5 C7 1_555 1_555
H6 C8 1_555 1_555
H7 C9 1_555 1_555
H8 C10 1_555 1_555
H9 C11 1_555 1_555
H10 C12 1_555 1_555
H11 C13 1_555 1_555
H12 C14 1_555 1_555
H13 C17 1_555 1_555
H14 C18 1_555 1_555
H15 C19 1_555 1_555
H16 C20 1_555 1_555
H17 C22 1_555 1_555
H18 C22 1_555 1_555
H19 C23 1_555 1_555
H20 C23 1_555 1_555
H21 C24 1_555 1_555
H22 C24 1_555 1_555
H23 C25 1_555 1_555
H24 C25 1_555 1_555
H25 C28 1_555 1_555
H26 C28 1_555 1_555
H27 C29 1_555 1_555
H28 C29 1_555 1_555
Cu1B O3 1_555 1_555
Cu1B_2 O5B 1_555 1_555
Cu2B O3 1_555 1_555
Cu2B_2 O5B 1_555 1_555
N1B Cu1B 1_555 1_555
N2B Cu1B 1_555 1_555
C1B N1B 1_555 1_555
C2B C1B 1_555 1_555
C3B C2B 1_555 1_555
C4B C3B 1_555 1_555
C5B N1B 1_555 1_555
C6B N2B 1_555 1_555
C7B C6B 1_555 1_555
C8B C7B 1_555 1_555
C9B C8B 1_555 1_555
C10B N2B 1_555 1_555
N3B Cu2B 1_555 1_555
N4B Cu2B 1_555 1_555
C11B N3B 1_555 1_555
C12B C11B 1_555 1_555
C13B C12B 1_555 1_555
C14B C13B 1_555 1_555
C15B N3B 1_555 1_555
C16B N4B 1_555 1_555
C17B C16B 1_555 1_555
C18B C17B 1_555 1_555
C19B C18B 1_555 1_555
C20B N4B 1_555 1_555
O1B Cu2B 1_555 1_555
O2B Cu1B 1_555 1_555
O3B Cu1 1_555 1_555
O4B C26B 1_555 1_555
C21B O1B 1_555 1_555
C22B C21B 1_555 1_555
C23B C22B 1_555 1_555
C24B C23B 1_555 1_555
C25B C24B 1_555 1_555
C26B O3B 1_555 1_555
O5B C27B 1_555 1_555
O5B_2 Cu1B 1_555 1_555
O6B C27B 1_555 1_555
C27B C28B 1_555 1_555
C28B C29B 1_555 1_555
C29B C29 1_555 1_555
H1B C1B 1_555 1_555
H2B C2B 1_555 1_555
H3B C3B 1_555 1_555
H4B C4B 1_555 1_555
H5B C7B 1_555 1_555
H6B C8B 1_555 1_555
H7B C9B 1_555 1_555
H8B C10B 1_555 1_555
H9B C11B 1_555 1_555
H10B C12B 1_555 1_555
H11B C13B 1_555 1_555
H12B C14B 1_555 1_555
H13B C17B 1_555 1_555
H14B C18B 1_555 1_555
H15B C19B 1_555 1_555
H16B C20B 1_555 1_555
H17B C22B 1_555 1_555
H18B C22B 1_555 1_555
H19B C23B 1_555 1_555
H20B C23B 1_555 1_555
H21B C24B 1_555 1_555
H22B C24B 1_555 1_555
H23B C25B 1_555 1_555
H24B C25B 1_555 1_555
H25B C28B 1_555 1_555
H26B C28B 1_555 1_555
H27B C29B 1_555 1_555
H28B C29B 1_555 1_555
Cu2 O5 1_555 1_555
Cu2 O3B 1_555 1_555
C5 C6 1_555 1_555
C9 C10 1_555 1_555
C15 C16 1_555 1_555
C19 C20 1_555 1_555
O2 C21 1_555 1_555
Cu2B O5B_2 1_555 1_555
C4B C5B 1_555 1_555
C5B C6B 1_555 1_555
C9B C10B 1_555 1_555
C14B C15B 1_555 1_555
C15B C16B 1_555 1_555
C19B C20B 1_555 1_555
O2B C21B 1_555 1_555
C25B C26B 1_555 1_555

#END
