
#######################################################################
#
#                 Cambridge Crystallographic Data Centre
#                                CCDC 
#
#######################################################################
#
# If this CIF has been generated from an entry in the Cambridge 
# Structural Database, then it will include bibliographic, chemical, 
# crystal, experimental, refinement or atomic coordinate data resulting 
# from the CCDC's data processing and validation procedures.
#
#######################################################################

data_KEJHIQ
_symmetry_cell_setting           orthorhombic
_symmetry_space_group_name_H-M   'P b c a'
_symmetry_Int_Tables_number      61
_space_group_name_Hall           '-P 2ac 2ab'
loop_
_symmetry_equiv_pos_site_id
_symmetry_equiv_pos_as_xyz
1 x,y,z
2 1/2-x,-y,1/2+z
3 1/2+x,1/2-y,-z
4 -x,1/2+y,1/2-z
5 -x,-y,-z
6 1/2+x,y,1/2-z
7 1/2-x,1/2+y,z
8 x,1/2-y,1/2+z
_cell_length_a                   12.081(1)
_cell_length_b                   15.323(2)
_cell_length_c                   19.705(3)
_cell_angle_alpha                90
_cell_angle_beta                 90
_cell_angle_gamma                90
_cell_volume                     3647.73
loop_
_atom_site_label
_atom_site_type_symbol
_atom_site_fract_x
_atom_site_fract_y
_atom_site_fract_z
Cd1 Cd 0.31115(1) -0.27225(1) 0.32128
O1 O 0.4891(2) -0.33596(13) 0.26934(14)
O2 O 0.35242(19) -0.41786(14) 0.30579(13)
O3 O 0.68465(17) -0.32266(16) 0.61400(12)
O4 O 0.6553(2) -0.18063(16) 0.61698(12)
O5 O 0.2080(3) -0.27674(19) 0.22121(15)
N1 N 0.6115(2) -0.64256(14) 0.21636(13)
N2 N 0.4110(2) -0.27242(16) 0.42633(15)
C1 C 0.4450(2) -0.40857(17) 0.27864(15)
C2 C 0.5063(2) -0.49003(16) 0.25773(15)
C3 C 0.5846(3) -0.48827(17) 0.20663(16)
C4 C 0.6342(3) -0.56552(19) 0.18764(16)
C5 C 0.5371(3) -0.64345(18) 0.26683(16)
C6 C 0.4821(3) -0.56885(18) 0.28869(17)
C7 C 0.6350(2) -0.2556(2) 0.59493(15)
C8 C 0.5501(3) -0.26403(18) 0.53941(16)
C9 C 0.5477(3) -0.3369(2) 0.49865(18)
C10 C 0.4780(3) -0.3387(2) 0.44265(19)
C11 C 0.4110(3) -0.2029(2) 0.46793(19)
C12 C 0.4788(3) -0.1965(2) 0.52369(18)
Cd1C Cd 0.68885(1) -0.77225(1) 0.17872
O3B O 0.18465(17) -0.17734(16) 0.38600(12)
O4B O 0.1553(2) -0.31937(16) 0.38302(12)
N1C N 0.3885(2) -0.14256(14) 0.28364(13)
Cd1B Cd 0.81115(1) -0.22775(1) 0.67872
N3 N 0.2762(5) -0.6322(3) 0.0686(3)
N4 N 0.2734(5) -0.4715(3) 0.1143(3)
C13 C 0.2814(3) -0.6223(3) 0.1350(2)
C14 C 0.2729(6) -0.5620(4) 0.0253(3)
C15 C 0.2713(5) -0.4816(3) 0.0476(3)
C16 C 0.2791(4) -0.5410(4) 0.1571(2)
loop_
_geom_bond_atom_site_label_1
_geom_bond_atom_site_label_2
_geom_bond_site_symmetry_1
_geom_bond_site_symmetry_2
Cd1 O1 1_555 1_555
O1 C1 1_555 1_555
O2 Cd1 1_555 1_555
O3 C7 1_555 1_555
O4 C7 1_555 1_555
O5 Cd1 1_555 1_555
N1 C4 1_555 1_555
N2 Cd1 1_555 1_555
C1 O2 1_555 1_555
C2 C1 1_555 1_555
C3 C2 1_555 1_555
C4 C3 1_555 1_555
C5 N1 1_555 1_555
C6 C2 1_555 1_555
C7 C8 1_555 1_555
C8 C9 1_555 1_555
C9 C10 1_555 1_555
C10 N2 1_555 1_555
C11 N2 1_555 1_555
C12 C8 1_555 1_555
N3 C13 1_555 1_555
N4 C15 1_555 1_555
C13 C16 1_555 1_555
C14 N3 1_555 1_555
C15 C14 1_555 1_555
C16 N4 1_555 1_555
Cd1C N1 1_555 1_555
O3B Cd1 1_555 1_555
O4B Cd1 1_555 1_555
N1C Cd1 1_555 1_555
Cd1B O3 1_555 1_555
O4 Cd1B 1_555 1_555
C5 C6 1_555 1_555
C11 C12 1_555 1_555

#END
