
#######################################################################
#
#                 Cambridge Crystallographic Data Centre
#                                CCDC 
#
#######################################################################
#
# If this CIF has been generated from an entry in the Cambridge 
# Structural Database, then it will include bibliographic, chemical, 
# crystal, experimental, refinement or atomic coordinate data resulting 
# from the CCDC's data processing and validation procedures.
#
#######################################################################

data_KEJRIC
_symmetry_cell_setting           triclinic
_symmetry_space_group_name_H-M   'P -1'
_symmetry_Int_Tables_number      2
_space_group_name_Hall           '-P 1'
loop_
_symmetry_equiv_pos_site_id
_symmetry_equiv_pos_as_xyz
1 x,y,z
2 -x,-y,-z
_cell_length_a                   10.7428(18)
_cell_length_b                   15.528(3)
_cell_length_c                   17.617(4)
_cell_angle_alpha                85.855(7)
_cell_angle_beta                 80.114(8)
_cell_angle_gamma                78.562(7)
_cell_volume                     2835.41
loop_
_atom_site_label
_atom_site_type_symbol
_atom_site_fract_x
_atom_site_fract_y
_atom_site_fract_z
Ag1 Ag 0.31697(2) -0.598286(14) 0.692006(12)
Ag2 Ag 0.36987(2) -0.066066(13) 0.215565(12)
N1 N 0.32898(19) -0.50501(13) 0.59668(12)
N2 N 0.3740(2) -0.17520(13) 0.29688(12)
N3 N 0.36928(19) -0.97832(13) 1.11615(12)
N4 N 0.3520(2) -0.69363(14) 0.78313(13)
C1 C 0.2583(2) -0.49775(16) 0.53980(14)
H3 H 0.2000 -0.5367 0.5412
C2 C 0.2665(2) -0.43621(16) 0.47946(14)
H4 H 0.2143 -0.4335 0.4406
C3 C 0.3517(2) -0.37773(16) 0.47526(14)
C4 C 0.4261(2) -0.38637(17) 0.53397(15)
H5 H 0.4866 -0.3492 0.5337
C5 C 0.4112(3) -0.44923(17) 0.59223(16)
H6 H 0.4622 -0.4535 0.6318
C6 C 0.3625(2) -0.30896(16) 0.41279(14)
C7 C 0.2984(3) -0.3048(2) 0.35021(18)
H7 H 0.2486 -0.3478 0.3456
C8 C 0.3073(3) -0.2387(2) 0.29534(19)
H8 H 0.2628 -0.2378 0.2530
C9 C 0.4376(3) -0.18051(19) 0.35530(17)
H9 H 0.4880 -0.1372 0.3578
C10 C 0.4351(3) -0.24537(19) 0.41282(17)
H10 H 0.4842 -0.2462 0.4530
C11 C 0.4150(2) -0.90301(16) 1.11145(14)
H11 H 0.4451 -0.8869 1.1550
C12 C 0.4199(2) -0.84861(16) 1.04650(14)
H12 H 0.4523 -0.7959 1.0460
C13 C 0.3774(2) -0.87051(16) 0.98096(14)
C14 C 0.3314(2) -0.94941(16) 0.98580(15)
H13 H 0.3020 -0.9678 0.9428
C15 C 0.3289(2) -1.00012(16) 1.05328(15)
H14 H 0.2971 -1.0533 1.0555
C16 C 0.3747(2) -0.81203(16) 0.91077(14)
C17 C 0.4338(2) -0.73876(16) 0.90118(15)
H15 H 0.4838 -0.7280 0.9378
C18 C 0.4189(2) -0.68181(16) 0.83763(15)
H16 H 0.4584 -0.6316 0.8326
C19 C 0.3024(3) -0.76738(19) 0.79005(17)
H17 H 0.2596 -0.7794 0.7502
C20 C 0.3105(3) -0.82611(19) 0.85192(16)
H18 H 0.2721 -0.8766 0.8546
Ag2_2 Ag 0.36987(2) -1.066066(13) 1.215565(12)
N3_2 N 0.36928(19) 0.02168(13) 0.11615(12)
O1 O 0.42823(18) 0.05435(11) 0.29403(10)
O2 O 0.48789(17) 0.08908(11) 0.40203(10)
O3 O 0.21045(16) 0.20037(11) 0.43284(10)
O4 O 0.30985(16) 0.28762(12) 0.48875(10)
H1 H 0.2560 0.2795 0.5279
O5 O 0.35654(17) 0.52702(11) 0.24027(12)
O6 O 0.56594(16) 0.47867(11) 0.20793(12)
O7 O 0.51370(17) 0.35758(13) 0.08632(10)
O8 O 0.69456(16) 0.27998(12) 0.12182(9)
H2 H 0.7242 0.2849 0.0747
N5 N 0.50864(18) 0.21732(13) 0.23983(11)
C21 C 0.4531(2) 0.10609(16) 0.33719(14)
C22 C 0.4416(2) 0.20218(16) 0.30963(13)
C23 C 0.3694(2) 0.26953(15) 0.35624(13)
C24 C 0.3700(2) 0.35599(15) 0.32966(13)
H19 H 0.3225 0.4032 0.3603
C25 C 0.4400(2) 0.37304(15) 0.25846(14)
C26 C 0.5070(2) 0.30122(16) 0.21499(14)
C27 C 0.5744(2) 0.31586(16) 0.13352(14)
C28 C 0.2880(2) 0.24847(16) 0.43072(14)
C29 C 0.4565(2) 0.46516(16) 0.23219(14)
Ag3 Ag 0.14372(2) 0.083569(13) 0.297451(12)
Ag4 Ag 0.182679(19) -0.402444(13) 0.806708(12)
N6 N 0.14332(19) -0.01065(13) 0.39094(12)
N7 N 0.15269(19) -0.30514(13) 0.71642(12)
N8 N 0.17268(19) 0.50276(13) -0.09876(12)
N9 N 0.12921(19) 0.18436(14) 0.20911(12)
C30 C 0.0583(3) -0.06445(17) 0.40588(16)
H20 H -0.0004 -0.0633 0.3710
C31 C 0.0516(3) -0.12165(17) 0.46964(15)
H21 H -0.0107 -0.1585 0.4780
C32 C 0.1361(2) -0.12492(16) 0.52103(14)
C33 C 0.2239(3) -0.06879(17) 0.50593(16)
H22 H 0.2834 -0.0686 0.5400
C34 C 0.2242(3) -0.01346(18) 0.44134(16)
H23 H 0.2848 0.0246 0.4321
C35 C 0.1357(2) -0.18513(16) 0.59010(14)
C36 C 0.0895(2) -0.26377(16) 0.59260(14)
H24 H 0.0518 -0.2776 0.5511
C37 C 0.0993(2) -0.32131(16) 0.65644(15)
H25 H 0.0670 -0.3742 0.6578
C38 C 0.1927(2) -0.22783(16) 0.71544(15)
H26 H 0.2272 -0.2146 0.7585
C39 C 0.1855(2) -0.16764(17) 0.65453(15)
H27 H 0.2144 -0.1139 0.6561
C40 C 0.0853(3) 0.45066(17) -0.09141(15)
H28 H 0.0298 0.4574 -0.1289
C41 C 0.0712(2) 0.38796(16) -0.03279(14)
H29 H 0.0078 0.3526 -0.0304
C42 C 0.1517(2) 0.37721(16) 0.02318(14)
C43 C 0.2425(2) 0.43177(16) 0.01601(14)
H30 H 0.2990 0.4269 0.0528
C44 C 0.2495(2) 0.49257(16) -0.04476(14)
H31 H 0.3117 0.5291 -0.0487
C45 C 0.1394(2) 0.31127(16) 0.08784(14)
C46 C 0.0930(2) 0.23434(16) 0.08154(15)
H32 H 0.0635 0.2245 0.0357
C47 C 0.0904(2) 0.17274(17) 0.14243(15)
H33 H 0.0602 0.1204 0.1370
C48 C 0.1689(2) 0.26018(16) 0.21622(15)
H34 H 0.1930 0.2701 0.2638
C49 C 0.1760(2) 0.32373(16) 0.15801(14)
H35 H 0.2056 0.3758 0.1654
Ag4_2 Ag 0.182679(19) 0.597556(13) -0.193292(12)
N8_2 N 0.17268(19) -0.49724(13) 0.90124(12)
O9 O 0.07441(18) 0.95252(11) 0.19069(11)
O10 O -0.02715(18) 0.91500(11) 0.09949(11)
H36 H -0.0465 0.9695 0.0910
O11 O 0.23692(18) 0.82044(12) 0.04567(10)
O12 O 0.19128(16) 0.69735(11) 0.00918(10)
O13 O 0.14705(16) 0.48212(11) 0.26733(12)
H37 H 0.2118 0.5061 0.2621
O14 O -0.06348(17) 0.52552(12) 0.28971(12)
O15 O -0.01006(17) 0.64543(14) 0.41070(11)
O16 O -0.18740(17) 0.73222(12) 0.38063(10)
N10 N -0.00975(19) 0.78905(13) 0.25678(11)
C50 C 0.0374(2) 0.89906(16) 0.15819(14)
C51 C 0.0523(2) 0.80294(15) 0.18497(13)
C52 C 0.1214(2) 0.73496(15) 0.13819(13)
C53 C 0.1242(2) 0.64907(15) 0.16765(13)
H38 H 0.1706 0.6011 0.1376
C54 C 0.0592(2) 0.63364(15) 0.24104(13)
C55 C -0.0056(2) 0.70576(16) 0.28425(14)
C56 C -0.0725(2) 0.69262(16) 0.36659(14)
C57 C 0.1905(2) 0.75361(15) 0.05889(14)
C58 C 0.0455(2) 0.54128(16) 0.26988(14)
O17 O 0.89030(17) 0.08008(11) 0.07505(11)
H39 H 0.8283 0.0792 0.1137
H40 H 0.8644 0.1038 0.0340
O18 O 0.70970(18) 0.05376(14) 0.19286(12)
H41 H 0.7063 0.0057 0.2198
H42 H 0.6418 0.0941 0.2024
O19 O 0.20886(17) 0.05939(12) 0.68620(11)
H43 H 0.2689 0.0680 0.6482
H44 H 0.1549 0.1090 0.6952
O20 O 0.39932(17) 0.07907(11) 0.56493(10)
H45 H 0.4406 0.0281 0.5770
H46 H 0.4030 0.0917 0.5171
O21 O 0.0813(2) 0.42335(15) 0.43770(14)
O22 O 0.4133(3) 0.5754(2) 0.0673(2)
loop_
_geom_bond_atom_site_label_1
_geom_bond_atom_site_label_2
_geom_bond_site_symmetry_1
_geom_bond_site_symmetry_2
Ag1 N1 1_555 1_555
Ag2 N2 1_555 1_555
O1 C21 1_555 1_555
O2 C21 1_555 1_555
O3 C28 1_555 1_555
O4 H1 1_555 1_555
O5 C29 1_555 1_555
O6 C29 1_555 1_555
O7 C27 1_555 1_555
O8 H2 1_555 1_555
N1 C1 1_555 1_555
N2 C8 1_555 1_555
N3 C11 1_555 1_555
N4 Ag1 1_555 1_555
N5 C22 1_555 1_555
C1 H3 1_555 1_555
C2 C1 1_555 1_555
H4 C2 1_555 1_555
C3 C2 1_555 1_555
C4 C3 1_555 1_555
H5 C4 1_555 1_555
C5 N1 1_555 1_555
H6 C5 1_555 1_555
C6 C3 1_555 1_555
C7 C6 1_555 1_555
H7 C7 1_555 1_555
C8 C7 1_555 1_555
H8 C8 1_555 1_555
C9 N2 1_555 1_555
H9 C9 1_555 1_555
C10 C6 1_555 1_555
H10 C10 1_555 1_555
C11 H11 1_555 1_555
C12 C11 1_555 1_555
H12 C12 1_555 1_555
C13 C12 1_555 1_555
C14 C13 1_555 1_555
H13 C14 1_555 1_555
C15 N3 1_555 1_555
H14 C15 1_555 1_555
C16 C13 1_555 1_555
C17 C16 1_555 1_555
H15 C17 1_555 1_555
C18 N4 1_555 1_555
H16 C18 1_555 1_555
C19 N4 1_555 1_555
H17 C19 1_555 1_555
C20 C16 1_555 1_555
H18 C20 1_555 1_555
C21 C22 1_555 1_555
C22 C23 1_555 1_555
C23 C24 1_555 1_555
C24 H19 1_555 1_555
C25 C24 1_555 1_555
C26 N5 1_555 1_555
C27 O8 1_555 1_555
C28 O4 1_555 1_555
C29 C25 1_555 1_555
Ag3 N6 1_555 1_555
Ag4 N7 1_555 1_555
N6 C30 1_555 1_555
N7 C37 1_555 1_555
N8 C40 1_555 1_555
N9 Ag3 1_555 1_555
C30 H20 1_555 1_555
C31 C30 1_555 1_555
H21 C31 1_555 1_555
C32 C31 1_555 1_555
C33 C32 1_555 1_555
H22 C33 1_555 1_555
C34 N6 1_555 1_555
H23 C34 1_555 1_555
C35 C32 1_555 1_555
C36 C35 1_555 1_555
H24 C36 1_555 1_555
C37 C36 1_555 1_555
H25 C37 1_555 1_555
C38 N7 1_555 1_555
H26 C38 1_555 1_555
C39 C35 1_555 1_555
H27 C39 1_555 1_555
C40 H28 1_555 1_555
C41 C40 1_555 1_555
H29 C41 1_555 1_555
C42 C41 1_555 1_555
C43 C42 1_555 1_555
H30 C43 1_555 1_555
C44 N8 1_555 1_555
H31 C44 1_555 1_555
C45 C42 1_555 1_555
C46 C45 1_555 1_555
H32 C46 1_555 1_555
C47 N9 1_555 1_555
H33 C47 1_555 1_555
C48 N9 1_555 1_555
H34 C48 1_555 1_555
C49 C45 1_555 1_555
H35 C49 1_555 1_555
O9 C50 1_555 1_555
O10 H36 1_555 1_555
O11 C57 1_555 1_555
O12 C57 1_555 1_555
O13 H37 1_555 1_555
O14 C58 1_555 1_555
O15 C56 1_555 1_555
O16 C56 1_555 1_555
N10 C51 1_555 1_555
C50 O10 1_555 1_555
C51 C50 1_555 1_555
C52 C51 1_555 1_555
C53 C52 1_555 1_555
H38 C53 1_555 1_555
C54 C53 1_555 1_555
C55 N10 1_555 1_555
C56 C55 1_555 1_555
C57 C52 1_555 1_555
C58 O13 1_555 1_555
O17 H39 1_555 1_555
H40 O17 1_555 1_555
O18 H41 1_555 1_555
H42 O18 1_555 1_555
O19 H43 1_555 1_555
H44 O19 1_555 1_555
O20 H45 1_555 1_555
H46 O20 1_555 1_555
Ag2_2 N3 1_555 1_555
N3_2 Ag2 1_555 1_555
Ag4_2 N8 1_555 1_555
N8_2 Ag4 1_555 1_555
C4 C5 1_555 1_555
C9 C10 1_555 1_555
C14 C15 1_555 1_555
C17 C18 1_555 1_555
C19 C20 1_555 1_555
C23 C28 1_555 1_555
C25 C26 1_555 1_555
C26 C27 1_555 1_555
C33 C34 1_555 1_555
C38 C39 1_555 1_555
C43 C44 1_555 1_555
C46 C47 1_555 1_555
C48 C49 1_555 1_555
C54 C55 1_555 1_555
C54 C58 1_555 1_555

#END
