
#######################################################################
#
#                 Cambridge Crystallographic Data Centre
#                                CCDC 
#
#######################################################################
#
# If this CIF has been generated from an entry in the Cambridge 
# Structural Database, then it will include bibliographic, chemical, 
# crystal, experimental, refinement or atomic coordinate data resulting 
# from the CCDC's data processing and validation procedures.
#
#######################################################################

data_KEJVOL
_symmetry_cell_setting           monoclinic
_symmetry_space_group_name_H-M   'P 21/c'
_symmetry_Int_Tables_number      14
_space_group_name_Hall           '-P 2ybc'
loop_
_symmetry_equiv_pos_site_id
_symmetry_equiv_pos_as_xyz
1 x,y,z
2 -x,1/2+y,1/2-z
3 -x,-y,-z
4 x,1/2-y,1/2+z
_cell_length_a                   10.1584(4)
_cell_length_b                   13.8447(5)
_cell_length_c                   6.4644(2)
_cell_angle_alpha                90
_cell_angle_beta                 94.6970(13)
_cell_angle_gamma                90
_cell_volume                     906.1
loop_
_atom_site_label
_atom_site_type_symbol
_atom_site_fract_x
_atom_site_fract_y
_atom_site_fract_z
Fe1 Fe -0.25090(3) 0.24921(3) 0.02480(4)
O1 O -0.24913(17) 0.10099(13) 0.4501(2)
O2 O -0.24821(18) 0.10020(12) 0.1015(2)
N1 N -0.3899(2) 0.27319(16) 0.2566(3)
N2 N -0.4988(3) 0.30432(17) 0.2423(3)
N3 N -0.6051(3) 0.3339(2) 0.2262(4)
N4 N -0.1130(2) 0.22144(16) -0.2082(3)
N5 N -0.0316(3) 0.1592(2) -0.1980(3)
N6 N 0.0443(3) 0.0973(2) -0.1839(5)
C1 C -0.2510(3) 0.0609(2) 0.2752(4)
H3 H -0.2550 -0.0063 0.2751
Fe1C Fe -0.25090(3) 0.25079(3) -0.47520(4)
Fe1C_2 Fe -0.25090(3) 0.25079(3) 0.52480(4)
O1C O -0.24913(17) 0.39901(13) -0.0499(2)
N1C N -0.3899(2) 0.22681(16) -0.2434(3)
N4C N -0.1130(2) 0.27856(16) 0.2918(3)
N7 N -0.2376(3) 0.53899(19) 0.2658(3)
H1 H -0.2338 0.4911 0.1722
H2 H -0.2042 0.5160 0.3894
C2 C -0.1540(4) 0.6198(3) 0.2049(5)
H4 H -0.1859 0.6426 0.0698
H5 H -0.0645 0.5979 0.2015
H6 H -0.1572 0.6713 0.3037
C3 C -0.3764(3) 0.5651(2) 0.2811(5)
H7 H -0.3821 0.6133 0.3867
H8 H -0.4251 0.5088 0.3165
H9 H -0.4129 0.5901 0.1503
loop_
_geom_bond_atom_site_label_1
_geom_bond_atom_site_label_2
_geom_bond_site_symmetry_1
_geom_bond_site_symmetry_2
Fe1 O2 1_555 1_555
O1 C1 1_555 1_555
O2 C1 1_555 1_555
N1 Fe1 1_555 1_555
N2 N1 1_555 1_555
N3 N2 1_555 1_555
N4 Fe1 1_555 1_555
N5 N4 1_555 1_555
N6 N5 1_555 1_555
N7 H1 1_555 1_555
H2 N7 1_555 1_555
C1 H3 1_555 1_555
C2 N7 1_555 1_555
H4 C2 1_555 1_555
H5 C2 1_555 1_555
H6 C2 1_555 1_555
C3 N7 1_555 1_555
H7 C3 1_555 1_555
H8 C3 1_555 1_555
H9 C3 1_555 1_555
Fe1C N4 1_555 1_555
Fe1C_2 O1 1_555 1_555
O1C Fe1 1_555 1_555
N1C Fe1 1_555 1_555
N4C Fe1 1_555 1_555
N1 Fe1C_2 1_555 1_555
Fe1C N1C 1_555 1_555
Fe1C_2 N4C 1_555 1_555

#END
