
#######################################################################
#
#                 Cambridge Crystallographic Data Centre
#                                CCDC 
#
#######################################################################
#
# If this CIF has been generated from an entry in the Cambridge 
# Structural Database, then it will include bibliographic, chemical, 
# crystal, experimental, refinement or atomic coordinate data resulting 
# from the CCDC's data processing and validation procedures.
#
#######################################################################

data_KEJVAY
_symmetry_cell_setting           rhombohedral
_symmetry_space_group_name_H-M   'R 3 c'
_symmetry_Int_Tables_number      161
_space_group_name_Hall           'R 3 -2"c'
loop_
_symmetry_equiv_pos_site_id
_symmetry_equiv_pos_as_xyz
1 x,y,z
2 -y,x-y,z
3 -x+y,-x,z
4 -y,-x,1/2+z
5 -x+y,y,1/2+z
6 x,x-y,1/2+z
7 2/3+x,1/3+y,1/3+z
8 2/3-y,1/3+x-y,1/3+z
9 2/3-x+y,1/3-x,1/3+z
10 2/3-y,1/3-x,5/6+z
11 2/3-x+y,1/3+y,5/6+z
12 2/3+x,1/3+x-y,5/6+z
13 1/3+x,2/3+y,2/3+z
14 1/3-y,2/3+x-y,2/3+z
15 1/3-x+y,2/3-x,2/3+z
16 1/3-y,2/3-x,1/6+z
17 1/3-x+y,2/3+y,1/6+z
18 1/3+x,2/3+x-y,1/6+z
_cell_length_a                   22.626(1)
_cell_length_b                   22.626(1)
_cell_length_c                   7.7330(7)
_cell_angle_alpha                90
_cell_angle_beta                 90
_cell_angle_gamma                120
_cell_volume                     3428.42
loop_
_atom_site_label
_atom_site_type_symbol
_atom_site_fract_x
_atom_site_fract_y
_atom_site_fract_z
Eu1 Eu 0.3333 0.6667 0.91057(14)
O1 O 0.25353(12) 0.64595(12) 0.6440(4)
O2 O 0.25598(14) 0.70777(15) 0.8655(4)
C1 C 0.12073(18) 0.76223(19) 0.6193(6)
C2 C 0.1256(2) 0.8230(2) 0.6730(6)
H1 H 0.1571 0.8490 0.7577
C3 C 0.0843(2) 0.8457(2) 0.6028(7)
H2 H 0.0889 0.8870 0.6386
C4 C 0.0368(2) 0.8074(3) 0.4805(7)
H3 H 0.0090 0.8227 0.4336
C5 C 0.0297(2) 0.7458(3) 0.4259(8)
H4 H -0.0032 0.7194 0.3441
C6 C 0.07235(19) 0.7237(2) 0.4950(7)
H5 H 0.0683 0.6828 0.4575
C7 C 0.16803(19) 0.7427(2) 0.6961(6)
H6 H 0.1899 0.7647 0.7979
C8 C 0.18241(19) 0.6967(2) 0.6337(6)
H7 H 0.1602 0.6723 0.5348
C9 C 0.23287(18) 0.68358(18) 0.7184(5)
Eu1C Eu 0.3333 0.6667 0.41057(14)
O1A O 0.35405(12) 0.60758(17) 0.6440(4)
O1B O 0.39242(17) 0.74647(12) 0.6440(4)
O1C O 0.35405(12) 0.74647(12) 1.1440(4)
O1D O 0.39242(17) 0.64595(12) 1.1440(4)
O1E O 0.25353(12) 0.60758(17) 1.1440(4)
O2A O 0.29223(15) 0.54821(21) 0.8655(4)
O2B O 0.45179(21) 0.74402(14) 0.8655(4)
loop_
_geom_bond_atom_site_label_1
_geom_bond_atom_site_label_2
_geom_bond_site_symmetry_1
_geom_bond_site_symmetry_2
Eu1 O1 1_555 1_555
O1 C9 1_555 1_555
O2 Eu1 1_555 1_555
C1 C2 1_555 1_555
C2 H1 1_555 1_555
C3 C2 1_555 1_555
H2 C3 1_555 1_555
C4 C3 1_555 1_555
H3 C4 1_555 1_555
C5 C4 1_555 1_555
H4 C5 1_555 1_555
C6 C1 1_555 1_555
H5 C6 1_555 1_555
C7 C1 1_555 1_555
H6 C7 1_555 1_555
C8 C7 1_555 1_555
H7 C8 1_555 1_555
C9 O2 1_555 1_555
Eu1C O1 1_555 1_555
O1A Eu1 1_555 1_555
O1B Eu1 1_555 1_555
O1C Eu1 1_555 1_555
O1D Eu1 1_555 1_555
O1E Eu1 1_555 1_555
O2A Eu1 1_555 1_555
O2B Eu1 1_555 1_555
C5 C6 1_555 1_555
C8 C9 1_555 1_555
Eu1C O1A 1_555 1_555
Eu1C O1B 1_555 1_555

#END
