
#######################################################################
#
#                 Cambridge Crystallographic Data Centre
#                                CCDC 
#
#######################################################################
#
# If this CIF has been generated from an entry in the Cambridge 
# Structural Database, then it will include bibliographic, chemical, 
# crystal, experimental, refinement or atomic coordinate data resulting 
# from the CCDC's data processing and validation procedures.
#
#######################################################################

data_KEJVUR
_symmetry_cell_setting           monoclinic
_symmetry_space_group_name_H-M   'P 21/c'
_symmetry_Int_Tables_number      14
_space_group_name_Hall           '-P 2ybc'
loop_
_symmetry_equiv_pos_site_id
_symmetry_equiv_pos_as_xyz
1 x,y,z
2 -x,1/2+y,1/2-z
3 -x,-y,-z
4 x,1/2-y,1/2+z
_cell_length_a                   10.0878(5)
_cell_length_b                   13.8377(5)
_cell_length_c                   6.4100(2)
_cell_angle_alpha                90
_cell_angle_beta                 94.6525(14)
_cell_angle_gamma                90
_cell_volume                     891.836
loop_
_atom_site_label
_atom_site_type_symbol
_atom_site_fract_x
_atom_site_fract_y
_atom_site_fract_z
Co1 Co -0.25004(3) 0.24932(3) 0.02389(4)
O1 O -0.2490(2) 0.10229(14) 0.4505(3)
O2 O -0.2474(2) 0.10147(13) 0.0985(3)
N1 N -0.3869(3) 0.27023(18) 0.2571(3)
N2 N -0.4949(3) 0.30374(19) 0.2425(3)
N3 N -0.6017(4) 0.3343(3) 0.2266(5)
N4 N -0.1134(3) 0.22523(16) -0.2094(3)
N5 N -0.0345(3) 0.1611(2) -0.1992(4)
N6 N 0.0405(3) 0.0982(3) -0.1851(5)
C1 C -0.2507(3) 0.0624(2) 0.2735(4)
H3 H -0.2551 -0.0048 0.2733
Co1C Co -0.25004(3) 0.25068(3) -0.47611(4)
Co1C_2 Co -0.25004(3) 0.25068(3) 0.52389(4)
O1C O -0.2490(2) 0.39771(14) -0.0495(3)
N1C N -0.3869(3) 0.22977(18) -0.2429(3)
N4C N -0.1134(3) 0.27477(16) 0.2906(3)
N7 N -0.2386(3) 0.5382(2) 0.2644(3)
H1 H -0.2345 0.4907 0.1690
H2 H -0.2050 0.5147 0.3886
C2 C -0.1545(4) 0.6198(3) 0.2045(6)
H4 H -0.1866 0.6432 0.0688
H5 H -0.0643 0.5982 0.2007
H6 H -0.1580 0.6708 0.3053
C3 C -0.3784(4) 0.5641(3) 0.2802(5)
H7 H -0.3845 0.6106 0.3901
H8 H -0.4279 0.5073 0.3109
H9 H -0.4144 0.5913 0.1499
loop_
_geom_bond_atom_site_label_1
_geom_bond_atom_site_label_2
_geom_bond_site_symmetry_1
_geom_bond_site_symmetry_2
Co1 O2 1_555 1_555
O1 C1 1_555 1_555
O2 C1 1_555 1_555
N1 Co1 1_555 1_555
N2 N1 1_555 1_555
N3 N2 1_555 1_555
N4 Co1 1_555 1_555
N5 N4 1_555 1_555
N6 N5 1_555 1_555
N7 H1 1_555 1_555
H2 N7 1_555 1_555
C1 H3 1_555 1_555
C2 N7 1_555 1_555
H4 C2 1_555 1_555
H5 C2 1_555 1_555
H6 C2 1_555 1_555
C3 N7 1_555 1_555
H7 C3 1_555 1_555
H8 C3 1_555 1_555
H9 C3 1_555 1_555
Co1C N4 1_555 1_555
Co1C_2 O1 1_555 1_555
O1C Co1 1_555 1_555
N1C Co1 1_555 1_555
N4C Co1 1_555 1_555
N1 Co1C_2 1_555 1_555
Co1C N1C 1_555 1_555
Co1C_2 N4C 1_555 1_555

#END
