
#######################################################################
#
#                 Cambridge Crystallographic Data Centre
#                                CCDC 
#
#######################################################################
#
# If this CIF has been generated from an entry in the Cambridge 
# Structural Database, then it will include bibliographic, chemical, 
# crystal, experimental, refinement or atomic coordinate data resulting 
# from the CCDC's data processing and validation procedures.
#
#######################################################################

data_KEJYAB
_symmetry_cell_setting           monoclinic
_symmetry_space_group_name_H-M   'P 21/c'
_symmetry_Int_Tables_number      14
_space_group_name_Hall           '-P 2ybc'
loop_
_symmetry_equiv_pos_site_id
_symmetry_equiv_pos_as_xyz
1 x,y,z
2 -x,1/2+y,1/2-z
3 -x,-y,-z
4 x,1/2-y,1/2+z
_cell_length_a                   12.711(3)
_cell_length_b                   23.256(4)
_cell_length_c                   14.759(4)
_cell_angle_alpha                90
_cell_angle_beta                 104.99(2)
_cell_angle_gamma                90
_cell_volume                     4214.4
loop_
_atom_site_label
_atom_site_type_symbol
_atom_site_fract_x
_atom_site_fract_y
_atom_site_fract_z
Au1 Au 0.50874(2) -0.469290(13) 0.21373(2)
P1 P 0.64364(16) -0.52727(8) 0.17940(14)
P2 P 0.37288(16) -0.42214(9) 0.26626(14)
C1 C 0.7446(6) -0.5470(4) 0.2877(6)
C2 C 0.7696(9) -0.5071(6) 0.3605(7)
H1 H 0.7342 -0.4718 0.3529
C3 C 0.8463(11) -0.5190(6) 0.4440(8)
H2 H 0.8629 -0.4915 0.4913
C4 C 0.8973(10) -0.5708(8) 0.4567(9)
H3 H 0.9476 -0.5790 0.5132
C5 C 0.8742(9) -0.6118(6) 0.3849(11)
H4 H 0.9098 -0.6471 0.3938
C6 C 0.7985(7) -0.6003(5) 0.3002(8)
H5 H 0.7838 -0.6275 0.2525
C7 C 0.7193(6) -0.4983(3) 0.1000(5)
C8 C 0.8223(8) -0.5178(5) 0.1031(8)
H6 H 0.8540 -0.5463 0.1455
C9 C 0.8799(10) -0.4945(8) 0.0418(10)
H7 H 0.9493 -0.5081 0.0438
C10 C 0.8357(10) -0.4528(6) -0.0197(8)
H8 H 0.8741 -0.4381 -0.0602
C11 C 0.7353(11) -0.4324(5) -0.0224(8)
H9 H 0.7058 -0.4030 -0.0640
C12 C 0.6751(9) -0.4550(5) 0.0370(8)
H10 H 0.6058 -0.4410 0.0341
C13 C 0.5856(6) -0.5962(4) 0.1289(6)
C14 C 0.5907(8) -0.6156(4) 0.0399(7)
H11 H 0.6267 -0.5936 0.0047
C15 C 0.5427(10) -0.6671(5) 0.0039(9)
H12 H 0.5476 -0.6799 -0.0546
C16 C 0.4868(9) -0.6996(5) 0.0560(9)
H13 H 0.4552 -0.7344 0.0324
C17 C 0.4783(8) -0.6805(4) 0.1414(8)
H14 H 0.4400 -0.7023 0.1750
C18 C 0.5262(7) -0.6287(5) 0.1793(7)
H15 H 0.5189 -0.6159 0.2371
C19 C 0.2632(7) -0.4720(3) 0.2728(6)
C20 C 0.2882(9) -0.5310(4) 0.2857(7)
H16 H 0.3576 -0.5447 0.2879
C21 C 0.2065(9) -0.5680(5) 0.2950(8)
H17 H 0.2221 -0.6070 0.3029
C22 C 0.1053(10) -0.5500(5) 0.2931(8)
H18 H 0.0532 -0.5764 0.3006
C23 C 0.0781(8) -0.4917(6) 0.2800(7)
H19 H 0.0081 -0.4792 0.2785
C24 C 0.1575(7) -0.4526(4) 0.2692(7)
H20 H 0.1404 -0.4138 0.2597
C25 C 0.4283(7) -0.3948(4) 0.3859(6)
C26 C 0.5389(7) -0.3807(4) 0.4177(6)
H21 H 0.5845 -0.3859 0.3782
C27 C 0.5812(9) -0.3590(5) 0.5076(7)
H22 H 0.6541 -0.3486 0.5274
C28 C 0.5149(10) -0.3531(6) 0.5670(7)
H23 H 0.5436 -0.3400 0.6279
C29 C 0.4071(10) -0.3664(6) 0.5369(8)
H24 H 0.3622 -0.3609 0.5769
C30 C 0.3633(8) -0.3881(5) 0.4470(7)
H25 H 0.2900 -0.3981 0.4281
C31 C 0.3076(7) -0.3611(4) 0.1956(6)
C32 C 0.3374(10) -0.3051(4) 0.2240(8)
H26 H 0.3873 -0.2981 0.2813
C33 C 0.2902(14) -0.2579(5) 0.1638(11)
H27 H 0.3083 -0.2203 0.1834
C34 C 0.2196(11) -0.2676(5) 0.0788(10)
H28 H 0.1910 -0.2369 0.0398
C35 C 0.1906(9) -0.3234(6) 0.0506(7)
H29 H 0.1414 -0.3299 -0.0071
C36 C 0.2346(8) -0.3709(4) 0.1083(7)
H30 H 0.2151 -0.4082 0.0882
Ag1 Ag -0.14436(15) -0.24030(7) -0.46264(7)
B1 B -0.0741(11) -0.2266(6) -0.0970(7)
H31 H -0.0327 -0.2352 -0.0231
B2 B -0.2177(11) -0.2260(6) -0.1378(8)
H32 H -0.2701 -0.2340 -0.0903
B3 B -0.1417(11) -0.1624(6) -0.1309(7)
H33 H -0.1452 -0.1290 -0.0790
B4 B -0.0220(12) -0.1777(7) -0.1656(8)
H34 H 0.0534 -0.1534 -0.1365
B5 B -0.0178(14) -0.2516(8) -0.1889(9)
H35 H 0.0595 -0.2754 -0.1742
B6 B -0.1469(18) -0.2828(5) -0.1759(9)
H36 H -0.1530 -0.3276 -0.1538
B7 B -0.2510(13) -0.1742(9) -0.2300(8)
H37 H -0.3251 -0.1478 -0.2435
B8 B -0.1298(15) -0.1474(6) -0.2467(9)
H38 H -0.1248 -0.1031 -0.2711
B9 B -0.0569(11) -0.2024(6) -0.2833(7)
H39 H -0.0051 -0.1952 -0.3316
B10 B -0.1335(14) -0.2671(5) -0.2884(7)
H40 H -0.1310 -0.3016 -0.3388
B11 B -0.2556(15) -0.2505(9) -0.2558(9)
H41 H -0.3323 -0.2736 -0.2852
B12 B -0.1981(11) -0.1999(6) -0.3220(7)
H42 H -0.2386 -0.1903 -0.3958
Ag1C Ag -0.14436(15) -0.25970(7) 0.03736(7)
B1C B -0.0741(11) -0.2734(6) -0.5970(7)
H31C H -0.0327 -0.2648 -0.5231
B2C B -0.2177(11) -0.2740(6) -0.6378(8)
H32C H -0.2701 -0.2660 -0.5903
loop_
_geom_bond_atom_site_label_1
_geom_bond_atom_site_label_2
_geom_bond_site_symmetry_1
_geom_bond_site_symmetry_2
Au1 P1 1_555 1_555
P1 C1 1_555 1_555
P2 Au1 1_555 1_555
C1 C2 1_555 1_555
C2 H1 1_555 1_555
C3 C2 1_555 1_555
H2 C3 1_555 1_555
C4 C3 1_555 1_555
H3 C4 1_555 1_555
C5 C4 1_555 1_555
H4 C5 1_555 1_555
C6 C1 1_555 1_555
H5 C6 1_555 1_555
C7 P1 1_555 1_555
C8 C7 1_555 1_555
H6 C8 1_555 1_555
C9 C8 1_555 1_555
H7 C9 1_555 1_555
C10 C9 1_555 1_555
H8 C10 1_555 1_555
C11 C10 1_555 1_555
H9 C11 1_555 1_555
C12 C7 1_555 1_555
H10 C12 1_555 1_555
C13 P1 1_555 1_555
C14 C13 1_555 1_555
H11 C14 1_555 1_555
C15 C14 1_555 1_555
H12 C15 1_555 1_555
C16 C15 1_555 1_555
H13 C16 1_555 1_555
C17 C16 1_555 1_555
H14 C17 1_555 1_555
C18 C13 1_555 1_555
H15 C18 1_555 1_555
C19 P2 1_555 1_555
C20 C19 1_555 1_555
H16 C20 1_555 1_555
C21 C20 1_555 1_555
H17 C21 1_555 1_555
C22 C21 1_555 1_555
H18 C22 1_555 1_555
C23 C22 1_555 1_555
H19 C23 1_555 1_555
C24 C19 1_555 1_555
H20 C24 1_555 1_555
C25 P2 1_555 1_555
C26 C25 1_555 1_555
H21 C26 1_555 1_555
C27 C26 1_555 1_555
H22 C27 1_555 1_555
C28 C27 1_555 1_555
H23 C28 1_555 1_555
C29 C28 1_555 1_555
H24 C29 1_555 1_555
C30 C25 1_555 1_555
H25 C30 1_555 1_555
C31 P2 1_555 1_555
C32 C31 1_555 1_555
H26 C32 1_555 1_555
C33 C32 1_555 1_555
H27 C33 1_555 1_555
C34 C33 1_555 1_555
H28 C34 1_555 1_555
C35 C34 1_555 1_555
H29 C35 1_555 1_555
C36 C31 1_555 1_555
H30 C36 1_555 1_555
Ag1 B9 1_555 1_555
B1 H31 1_555 1_555
H31 Ag1C 1_555 1_555
B2 B1 1_555 1_555
H32 B2 1_555 1_555
B3 B1 1_555 1_555
H33 B3 1_555 1_555
B4 B1 1_555 1_555
H34 B4 1_555 1_555
B5 B1 1_555 1_555
H35 B5 1_555 1_555
B6 B1 1_555 1_555
H36 B6 1_555 1_555
B7 B2 1_555 1_555
H37 B7 1_555 1_555
B8 B3 1_555 1_555
H38 B8 1_555 1_555
B9 B4 1_555 1_555
H39 Ag1 1_555 1_555
B10 Ag1 1_555 1_555
H40 Ag1 1_555 1_555
B11 B2 1_555 1_555
H41 B11 1_555 1_555
B12 Ag1 1_555 1_555
H42 Ag1 1_555 1_555
Ag1C B1 1_555 1_555
B1C Ag1 1_555 1_555
H31C Ag1 1_555 1_555
B2C Ag1 1_555 1_555
H32C Ag1 1_555 1_555
C5 C6 1_555 1_555
C11 C12 1_555 1_555
C17 C18 1_555 1_555
C23 C24 1_555 1_555
C29 C30 1_555 1_555
C35 C36 1_555 1_555
B2 B3 1_555 1_555
B2 B6 1_555 1_555
B2 Ag1C 1_555 1_555
H32 Ag1C 1_555 1_555
B3 B4 1_555 1_555
B3 B7 1_555 1_555
B4 B5 1_555 1_555
B4 B8 1_555 1_555
B5 B6 1_555 1_555
B5 B9 1_555 1_555
B5 B10 1_555 1_555
B6 B10 1_555 1_555
B6 B11 1_555 1_555
B7 B8 1_555 1_555
B7 B11 1_555 1_555
B7 B12 1_555 1_555
B8 B9 1_555 1_555
B8 B12 1_555 1_555
B9 H39 1_555 1_555
B9 B10 1_555 1_555
B9 B12 1_555 1_555
B10 H40 1_555 1_555
B10 B11 1_555 1_555
B10 B12 1_555 1_555
B11 B12 1_555 1_555
B12 H42 1_555 1_555
B1C H31C 1_555 1_555
B1C B2C 1_555 1_555
B2C H32C 1_555 1_555

#END
