
#######################################################################
#
#                 Cambridge Crystallographic Data Centre
#                                CCDC 
#
#######################################################################
#
# If this CIF has been generated from an entry in the Cambridge 
# Structural Database, then it will include bibliographic, chemical, 
# crystal, experimental, refinement or atomic coordinate data resulting 
# from the CCDC's data processing and validation procedures.
#
#######################################################################

data_KEKDAG
_symmetry_cell_setting           triclinic
_symmetry_space_group_name_H-M   'P -1'
_symmetry_Int_Tables_number      2
_space_group_name_Hall           '-P 1'
loop_
_symmetry_equiv_pos_site_id
_symmetry_equiv_pos_as_xyz
1 x,y,z
2 -x,-y,-z
_cell_length_a                   14.512(3)
_cell_length_b                   15.018(3)
_cell_length_c                   16.192(3)
_cell_angle_alpha                114.26(3)
_cell_angle_beta                 109.06(3)
_cell_angle_gamma                90.55(3)
_cell_volume                     2998.26
loop_
_atom_site_label
_atom_site_type_symbol
_atom_site_fract_x
_atom_site_fract_y
_atom_site_fract_z
Mo1 Mo 1.03224(4) 1.14749(4) 0.76874(4)
Mo2 Mo 0.94681(3) 0.96824(4) 0.70680(4)
Mo3 Mo 0.77004(3) 0.84034(4) 0.47109(4)
Mo4 Mo 0.71925(3) 0.93174(4) 0.36223(4)
Mo5 Mo 0.82830(4) 1.17702(4) 0.44448(4)
Mo6 Mo 0.96005(4) 1.26989(4) 0.61747(4)
Zn1 Zn 1.17031(6) 1.55254(6) 0.92126(6)
Zn2 Zn 0.42565(5) 1.22937(6) 0.25940(5)
Zn3 Zn 1.0000 1.0000 0.5000
P1 P 0.99123(12) 1.38193(12) 0.85381(11)
P2 P 0.58671(11) 1.10972(12) 0.36567(12)
P3 P 0.72498(11) 0.85883(11) 0.66619(11)
P4 P 0.79501(11) 1.09444(12) 0.60302(11)
O1 O 0.7089(4) 1.1303(4) 0.6376(4)
O3 O 0.5707(4) 1.1467(4) 0.4669(3)
O4 O 0.8979(4) 1.4045(4) 0.8846(4)
O5 O 0.6649(3) 0.9478(3) 0.6895(4)
O6 O 0.4934(3) 1.1214(4) 0.2975(3)
O7 O 0.7489(3) 0.7237(3) 0.3866(3)
O8 O 0.6868(3) 0.7839(3) 0.6919(3)
O9 O 1.1438(3) 1.1473(4) 0.8433(4)
O10 O 0.8598(3) 1.2307(4) 0.3833(3)
O11 O 0.6864(3) 0.8363(4) 0.2524(3)
O12 O 1.0254(3) 1.3455(4) 0.5977(4)
O13 O 1.0174(4) 1.2864(3) 0.8597(3)
O14 O 0.5976(3) 1.0003(3) 0.3299(3)
O15 O 1.0733(3) 1.4685(4) 0.9298(3)
O16 O 0.8886(3) 1.1705(3) 0.6659(3)
O17 O 1.0777(3) 1.2266(3) 0.7033(3)
O18 O 0.9635(4) 1.3741(3) 0.7518(3)
O19 O 0.7643(3) 1.0795(3) 0.4972(3)
O20 O 0.7087(3) 0.8135(3) 0.5583(3)
O21 O 0.8114(3) 0.9944(3) 0.6047(3)
O22 O 0.6778(3) 1.1740(3) 0.3810(3)
O23 O 1.0352(3) 0.9232(3) 0.7665(3)
O24 O 0.9520(3) 1.1405(3) 0.5098(3)
O25 O 0.8341(3) 0.9035(3) 0.7277(3)
O26 O 0.7953(3) 1.0299(3) 0.3362(3)
O27 O 0.8511(3) 0.9116(3) 0.4326(3)
O28 O 0.9378(3) 1.0933(3) 0.8034(3)
O29 O 1.0144(3) 1.0281(3) 0.6480(3)
O30 O 0.6501(3) 0.8922(3) 0.4293(3)
O31 O 0.9028(3) 0.8412(3) 0.5721(3)
O32 O 0.8236(3) 1.2821(3) 0.5615(3)
C1 C 1.0302(6) 1.7178(6) 0.9639(6)
H1 H 1.0466 1.7218 1.0260
C2 C 0.9645(6) 1.7763(7) 0.9375(6)
H2 H 0.9411 1.8212 0.9826
C3 C 0.9349(7) 1.7680(7) 0.8468(7)
H3 H 0.8882 1.8047 0.8281
C4 C 0.9741(5) 1.7037(5) 0.7791(6)
C5 C 0.9500(6) 1.6938(6) 0.6829(6)
H4 H 0.8993 1.7236 0.6582
C6 C 1.0007(5) 1.6411(6) 0.6269(5)
H5 H 0.9864 1.6380 0.5654
C7 C 1.0762(5) 1.5899(5) 0.6612(5)
C8 C 1.1364(6) 1.5402(6) 0.6090(5)
H6 H 1.1307 1.5418 0.5508
C9 C 1.2028(6) 1.4900(6) 0.6458(5)
H7 H 1.2424 1.4563 0.6124
C10 C 1.2110(5) 1.4894(6) 0.7334(5)
H8 H 1.2541 1.4517 0.7554
C11 C 1.0443(5) 1.6515(5) 0.8135(5)
C12 C 1.0944(4) 1.5908(5) 0.7520(5)
C13 C 1.2767(6) 1.7547(6) 1.0967(6)
H9 H 1.2200 1.7795 1.0747
C14 C 1.3554(8) 1.8198(7) 1.1810(7)
H10 H 1.3513 1.8864 1.2125
C15 C 1.4376(7) 1.7835(6) 1.2155(6)
H11 H 1.4896 1.8255 1.2716
C16 C 1.4444(5) 1.6837(6) 1.1673(6)
C17 C 1.5257(6) 1.6384(8) 1.1996(7)
H12 H 1.5819 1.6778 1.2523
C18 C 1.5230(6) 1.5410(8) 1.1561(7)
H13 H 1.5758 1.5136 1.1815
C19 C 1.4411(5) 1.4775(6) 1.0715(6)
C20 C 1.4324(6) 1.3741(7) 1.0266(6)
H14 H 1.4823 1.3432 1.0508
C21 C 1.3498(7) 1.3184(7) 0.9465(6)
H15 H 1.3415 1.2496 0.9171
C22 C 1.2794(6) 1.3683(6) 0.9113(5)
H16 H 1.2256 1.3305 0.8549
C23 C 1.3613(5) 1.6241(5) 1.0822(5)
C24 C 1.3617(5) 1.5182(5) 1.0312(5)
C25 C 0.6080(5) 1.3787(6) 0.4474(5)
H17 H 0.6273 1.3231 0.4557
C26 C 0.6682(6) 1.4713(6) 0.5121(6)
H18 H 0.7281 1.4756 0.5591
C27 C 0.6388(5) 1.5538(6) 0.5055(5)
H19 H 0.6768 1.6156 0.5499
C28 C 0.5503(6) 1.5462(5) 0.4312(5)
C29 C 0.5148(7) 1.6300(6) 0.4232(6)
H20 H 0.5521 1.6926 0.4657
C30 C 0.4271(7) 1.6208(6) 0.3545(7)
H21 H 0.4017 1.6771 0.3533
C31 C 0.3728(7) 1.5244(6) 0.2833(6)
C32 C 0.2824(7) 1.5100(7) 0.2065(8)
H22 H 0.2543 1.5638 0.2012
C33 C 0.2374(7) 1.4139(8) 0.1397(8)
H23 H 0.1785 1.4021 0.0884
C34 C 0.4074(5) 1.4392(6) 0.2878(5)
C35 C 0.4975(5) 1.4503(5) 0.3670(5)
C36 C 0.6193(6) 1.2551(6) 0.2102(6)
H24 H 0.6509 1.2938 0.2767
C37 C 0.6735(7) 1.2415(6) 0.1505(7)
H25 H 0.7393 1.2714 0.1763
C38 C 0.6283(7) 1.1839(7) 0.0538(7)
H26 H 0.6636 1.1745 0.0130
C39 C 0.5304(6) 1.1390(6) 0.0146(5)
C40 C 0.2810(6) 1.3351(7) 0.1500(6)
H27 H 0.2516 1.2713 0.1025
C41 C 0.4786(6) 1.0750(6) -0.0854(5)
H28 H 0.5102 1.0644 -0.1294
C42 C 0.3863(6) 1.0301(7) -0.1175(6)
H29 H 0.3545 0.9898 -0.1836
C43 C 0.3344(5) 1.0421(6) -0.0528(5)
C44 C 0.2390(5) 0.9921(7) -0.0838(6)
H30 H 0.2047 0.9521 -0.1496
C45 C 0.1962(6) 1.0019(7) -0.0184(6)
H31 H 0.1334 0.9675 -0.0378
C46 C 0.2507(5) 1.0667(6) 0.0819(5)
H32 H 0.2224 1.0733 0.1276
C47 C 0.3828(5) 1.1034(5) 0.0463(5)
C48 C 0.4815(5) 1.1555(5) 0.0815(5)
N1 N 1.0712(4) 1.6557(4) 0.9044(4)
N2 N 1.1608(4) 1.5394(4) 0.7868(4)
N3 N 1.2797(4) 1.6594(4) 1.0472(4)
N4 N 1.2823(4) 1.4652(4) 0.9514(4)
N5 N 0.3615(4) 1.3459(5) 0.2232(4)
N6 N 0.5251(4) 1.3669(4) 0.3753(4)
N7 N 0.3393(4) 1.1175(4) 0.1120(4)
N8 N 0.5249(4) 1.2159(5) 0.1776(4)
Mo1A Mo 0.96776(4) 0.85251(4) 0.23126(4)
Mo2A Mo 1.05319(3) 1.03176(4) 0.29320(4)
Mo3A Mo 1.22996(3) 1.15966(4) 0.52891(4)
Mo4A Mo 1.28075(3) 1.06826(4) 0.63777(4)
Mo5A Mo 1.17170(4) 0.82298(4) 0.55552(4)
Mo6A Mo 1.03995(4) 0.73011(4) 0.38253(4)
Zn1A Zn 0.82969(6) 0.44746(6) 0.07874(6)
Zn2A Zn 1.57435(5) 0.77063(6) 0.74060(5)
Zn2A_2 Zn 0.57435(5) 0.77063(6) 0.74060(5)
Zn2_2 Zn 1.42565(5) 1.22937(6) 0.25940(5)
P1A P 1.00877(12) 0.61807(12) 0.14619(11)
P2A P 1.41329(11) 0.89028(12) 0.63433(12)
P3A P 1.27502(11) 1.14117(11) 0.33381(11)
P4A P 1.20499(11) 0.90556(12) 0.39698(11)
O1A O 1.2911(4) 0.8697(4) 0.3624(4)
O3A O 1.4293(4) 0.8533(4) 0.5331(3)
O4A O 1.1021(4) 0.5955(4) 0.1154(4)
O5A O 1.3351(3) 1.0522(3) 0.3105(4)
O6A O 1.5066(3) 0.8786(4) 0.7025(3)
O7A O 1.2511(3) 1.2763(3) 0.6134(3)
O8A O 1.3132(3) 1.2161(3) 0.3081(3)
O8A_2 O 0.3132(3) 1.2161(3) 0.3081(3)
O8_2 O 1.6868(3) 0.7839(3) 0.6919(3)
O9A O 0.8562(3) 0.8527(4) 0.1567(4)
O10A O 1.1402(3) 0.7693(4) 0.6167(3)
O11A O 1.3136(3) 1.1637(4) 0.7476(3)
O12A O 0.9746(3) 0.6545(4) 0.4023(4)
O13A O 0.9826(4) 0.7136(3) 0.1403(3)
O14A O 1.4024(3) 0.9997(3) 0.6701(3)
O15A O 0.9267(3) 0.5315(4) 0.0702(3)
O16A O 1.1114(3) 0.8295(3) 0.3341(3)
O17A O 0.9223(3) 0.7734(3) 0.2967(3)
O18A O 1.0365(4) 0.6259(3) 0.2482(3)
O19A O 1.2357(3) 0.9205(3) 0.5028(3)
O20A O 1.2913(3) 1.1865(3) 0.4417(3)
O21A O 1.1886(3) 1.0056(3) 0.3953(3)
O22A O 1.3222(3) 0.8260(3) 0.6190(3)
O23A O 0.9648(3) 1.0768(3) 0.2335(3)
O24A O 1.0480(3) 0.8595(3) 0.4902(3)
O25A O 1.1659(3) 1.0965(3) 0.2723(3)
O26A O 1.2047(3) 0.9701(3) 0.6638(3)
O27A O 1.1489(3) 1.0884(3) 0.5674(3)
O28A O 1.0622(3) 0.9067(3) 0.1966(3)
O29A O 0.9856(3) 0.9719(3) 0.3520(3)
O30A O 1.3499(3) 1.1078(3) 0.5707(3)
O31A O 1.0972(3) 1.1588(3) 0.4279(3)
O32A O 1.1764(3) 0.7179(3) 0.4385(3)
C1A C 0.9698(6) 0.2822(6) 0.0361(6)
H1A H 0.9534 0.2782 -0.0260
C2A C 1.0355(6) 0.2237(7) 0.0625(6)
H2A H 1.0589 0.1788 0.0174
C3A C 1.0651(7) 0.2320(7) 0.1532(7)
H3A H 1.1118 0.1953 0.1719
C4A C 1.0259(5) 0.2963(5) 0.2209(6)
C5A C 1.0500(6) 0.3062(6) 0.3171(6)
H4A H 1.1007 0.2764 0.3418
C6A C 0.9993(5) 0.3589(6) 0.3731(5)
H5A H 1.0136 0.3620 0.4346
C7A C 0.9238(5) 0.4101(5) 0.3388(5)
C8A C 0.8636(6) 0.4598(6) 0.3910(5)
H6A H 0.8693 0.4582 0.4492
C9A C 0.7972(6) 0.5100(6) 0.3542(5)
H7A H 0.7576 0.5437 0.3876
C10A C 0.7890(5) 0.5106(6) 0.2666(5)
H8A H 0.7459 0.5483 0.2446
C11A C 0.9557(5) 0.3485(5) 0.1865(5)
C12A C 0.9056(4) 0.4092(5) 0.2480(5)
C13A C 0.7233(6) 0.2453(6) -0.0967(6)
H9A H 0.7800 0.2205 -0.0747
C14A C 0.6446(8) 0.1802(7) -0.1810(7)
H10A H 0.6487 0.1136 -0.2125
C15A C 0.5624(7) 0.2165(6) -0.2155(6)
H11A H 0.5104 0.1745 -0.2716
C16A C 0.5556(5) 0.3163(6) -0.1673(6)
C17A C 0.4743(6) 0.3616(8) -0.1996(7)
H12A H 0.4181 0.3222 -0.2523
C18A C 0.4770(6) 0.4590(8) -0.1561(7)
H13A H 0.4242 0.4864 -0.1815
C19A C 0.5589(5) 0.5225(6) -0.0715(6)
C20A C 0.5676(6) 0.6259(7) -0.0266(6)
H14A H 0.5177 0.6568 -0.0508
C21A C 0.6502(7) 0.6816(7) 0.0535(6)
H15A H 0.6585 0.7504 0.0829
C22A C 0.7206(6) 0.6317(6) 0.0887(5)
H16A H 0.7744 0.6695 0.1451
C23A C 0.6387(5) 0.3759(5) -0.0822(5)
C24A C 0.6383(5) 0.4818(5) -0.0312(5)
C25A C 1.3920(5) 0.6213(6) 0.5526(5)
H17A H 1.3727 0.6769 0.5443
C26A C 1.3318(6) 0.5287(6) 0.4879(6)
H18A H 1.2719 0.5244 0.4409
C27A C 1.3612(5) 0.4462(6) 0.4945(5)
H19A H 1.3232 0.3844 0.4501
C28A C 1.4497(6) 0.4538(5) 0.5688(5)
C29A C 1.4852(7) 0.3700(6) 0.5768(6)
H20A H 1.4479 0.3074 0.5343
C30A C 1.5729(7) 0.3792(6) 0.6455(7)
H21A H 1.5983 0.3229 0.6467
C31A C 1.6272(7) 0.4756(6) 0.7167(6)
C32A C 1.7176(7) 0.4900(7) 0.7935(8)
H22A H 1.7457 0.4362 0.7988
C33A C 1.7626(7) 0.5861(8) 0.8603(8)
H23A H 1.8215 0.5979 0.9116
C34A C 1.5926(5) 0.5608(6) 0.7122(5)
C35A C 1.5025(5) 0.5497(5) 0.6330(5)
C36A C 1.3807(6) 0.7449(6) 0.7898(6)
H24A H 1.3491 0.7062 0.7233
C37A C 1.3265(7) 0.7585(6) 0.8495(7)
H25A H 1.2607 0.7286 0.8237
C38A C 1.3717(7) 0.8161(7) 0.9462(7)
H26A H 1.3364 0.8255 0.9870
C39A C 1.4696(6) 0.8610(6) 0.9854(5)
C40A C 1.7190(6) 0.6649(7) 0.8500(6)
H27A H 1.7484 0.7287 0.8975
C41A C 1.5214(6) 0.9250(6) 1.0854(5)
H28A H 1.4898 0.9356 1.1294
C42A C 1.6137(6) 0.9699(7) 1.1175(6)
H29A H 1.6455 1.0102 1.1836
C43A C 1.6656(5) 0.9579(6) 1.0528(5)
C44A C 1.7610(5) 1.0079(7) 1.0838(6)
H30A H 1.7953 1.0479 1.1496
C45A C 1.8038(6) 0.9981(7) 1.0184(6)
H31A H 1.8666 1.0325 1.0378
C46A C 1.7493(5) 0.9333(6) 0.9181(5)
H32A H 1.7776 0.9267 0.8724
C47A C 1.6172(5) 0.8966(5) 0.9537(5)
C48A C 1.5185(5) 0.8445(5) 0.9185(5)
N1A N 0.9288(4) 0.3443(4) 0.0956(4)
N2A N 0.8392(4) 0.4606(4) 0.2132(4)
N3A N 0.7203(4) 0.3406(4) -0.0472(4)
N4A N 0.7177(4) 0.5348(4) 0.0486(4)
N5A N 1.6385(4) 0.6541(5) 0.7768(4)
N6A N 1.4749(4) 0.6331(4) 0.6247(4)
N7A N 1.6607(4) 0.8825(4) 0.8880(4)
N8A N 1.4751(4) 0.7841(5) 0.8224(4)
O2 O 0.5679(8) 0.9812(9) 0.5415(6)
loop_
_geom_bond_atom_site_label_1
_geom_bond_atom_site_label_2
_geom_bond_site_symmetry_1
_geom_bond_site_symmetry_2
Mo1 Mo2 1_555 1_555
Mo2 O21 1_555 1_555
Mo3 Mo4 1_555 1_555
Mo4 O11 1_555 1_555
Mo5 Mo6 1_555 1_555
Mo6 O12 1_555 1_555
Zn1 O15 1_555 1_555
Zn2 O6 1_555 1_555
Zn3 O24 1_555 1_555
P1 O4 1_555 1_555
P2 O3 1_555 1_555
P3 O5 1_555 1_555
P4 O1 1_555 1_555
O6 P2 1_555 1_555
O7 Mo3 1_555 1_555
O8 P3 1_555 1_555
O9 Mo1 1_555 1_555
O10 Mo5 1_555 1_555
O13 Mo1 1_555 1_555
O14 Mo4 1_555 1_555
O15 P1 1_555 1_555
O16 Mo1 1_555 1_555
O17 Mo1 1_555 1_555
O18 Mo6 1_555 1_555
O19 Mo4 1_555 1_555
O20 Mo3 1_555 1_555
O21 Mo3 1_555 1_555
O22 Mo5 1_555 1_555
O23 Mo2 1_555 1_555
O24 Mo5 1_555 1_555
O25 Mo2 1_555 1_555
O26 Mo4 1_555 1_555
O27 Mo3 1_555 1_555
O28 Mo1 1_555 1_555
O29 Mo1 1_555 1_555
O30 Mo3 1_555 1_555
O31 Mo2 1_555 1_555
O32 Mo5 1_555 1_555
C1 H1 1_555 1_555
C2 C1 1_555 1_555
H2 C2 1_555 1_555
C3 C2 1_555 1_555
H3 C3 1_555 1_555
C4 C3 1_555 1_555
C5 C4 1_555 1_555
H4 C5 1_555 1_555
C6 C5 1_555 1_555
H5 C6 1_555 1_555
C7 C6 1_555 1_555
C8 C7 1_555 1_555
H6 C8 1_555 1_555
C9 C8 1_555 1_555
H7 C9 1_555 1_555
C10 C9 1_555 1_555
H8 C10 1_555 1_555
C11 C4 1_555 1_555
C12 C7 1_555 1_555
C13 H9 1_555 1_555
C14 C13 1_555 1_555
H10 C14 1_555 1_555
C15 C14 1_555 1_555
H11 C15 1_555 1_555
C16 C15 1_555 1_555
C17 C16 1_555 1_555
H12 C17 1_555 1_555
C18 C17 1_555 1_555
H13 C18 1_555 1_555
C19 C18 1_555 1_555
C20 C19 1_555 1_555
H14 C20 1_555 1_555
C21 C20 1_555 1_555
H15 C21 1_555 1_555
C22 C21 1_555 1_555
H16 C22 1_555 1_555
C23 C16 1_555 1_555
C24 C19 1_555 1_555
C25 H17 1_555 1_555
C26 C25 1_555 1_555
H18 C26 1_555 1_555
C27 C26 1_555 1_555
H19 C27 1_555 1_555
C28 C27 1_555 1_555
C29 C28 1_555 1_555
H20 C29 1_555 1_555
C30 C29 1_555 1_555
H21 C30 1_555 1_555
C31 C30 1_555 1_555
C32 C31 1_555 1_555
H22 C32 1_555 1_555
C33 C32 1_555 1_555
H23 C33 1_555 1_555
C34 C31 1_555 1_555
C35 C28 1_555 1_555
C36 H24 1_555 1_555
C37 C36 1_555 1_555
H25 C37 1_555 1_555
C38 C37 1_555 1_555
H26 C38 1_555 1_555
C39 C38 1_555 1_555
C40 C33 1_555 1_555
H27 C40 1_555 1_555
C41 C39 1_555 1_555
H28 C41 1_555 1_555
C42 C41 1_555 1_555
H29 C42 1_555 1_555
C43 C42 1_555 1_555
C44 C43 1_555 1_555
H30 C44 1_555 1_555
C45 C44 1_555 1_555
H31 C45 1_555 1_555
C46 C45 1_555 1_555
H32 C46 1_555 1_555
C47 C43 1_555 1_555
C48 C39 1_555 1_555
N1 Zn1 1_555 1_555
N2 Zn1 1_555 1_555
N3 Zn1 1_555 1_555
N4 Zn1 1_555 1_555
N5 Zn2 1_555 1_555
N6 Zn2 1_555 1_555
N7 Zn2 1_555 1_555
N8 Zn2 1_555 1_555
Mo1A Mo2A 1_555 1_555
Mo2A O21A 1_555 1_555
Mo3A Mo4A 1_555 1_555
Mo4A O11A 1_555 1_555
Mo5A Mo6A 1_555 1_555
Mo6A O12A 1_555 1_555
Zn1A O15A 1_555 1_555
Zn2A O6A 1_555 1_555
Zn2A_2 O8 1_555 1_555
Zn2_2 O8A 1_555 1_555
P1A O4A 1_555 1_555
P2A O3A 1_555 1_555
P3A O5A 1_555 1_555
P4A O1A 1_555 1_555
O6A P2A 1_555 1_555
O7A Mo3A 1_555 1_555
O8A P3A 1_555 1_555
O8A_2 Zn2 1_555 1_555
O8_2 Zn2A 1_555 1_555
O9A Mo1A 1_555 1_555
O10A Mo5A 1_555 1_555
O13A Mo1A 1_555 1_555
O14A Mo4A 1_555 1_555
O15A P1A 1_555 1_555
O16A Mo1A 1_555 1_555
O17A Mo1A 1_555 1_555
O18A Mo6A 1_555 1_555
O19A Mo4A 1_555 1_555
O20A Mo3A 1_555 1_555
O21A Mo3A 1_555 1_555
O22A Mo5A 1_555 1_555
O23A Mo2A 1_555 1_555
O24A Zn3 1_555 1_555
O25A Mo2A 1_555 1_555
O26A Mo4A 1_555 1_555
O27A Zn3 1_555 1_555
O28A Mo1A 1_555 1_555
O29A Zn3 1_555 1_555
O30A Mo3A 1_555 1_555
O31A Mo2A 1_555 1_555
O32A Mo5A 1_555 1_555
C1A H1A 1_555 1_555
C2A C1A 1_555 1_555
H2A C2A 1_555 1_555
C3A C2A 1_555 1_555
H3A C3A 1_555 1_555
C4A C3A 1_555 1_555
C5A C4A 1_555 1_555
H4A C5A 1_555 1_555
C6A C5A 1_555 1_555
H5A C6A 1_555 1_555
C7A C6A 1_555 1_555
C8A C7A 1_555 1_555
H6A C8A 1_555 1_555
C9A C8A 1_555 1_555
H7A C9A 1_555 1_555
C10A C9A 1_555 1_555
H8A C10A 1_555 1_555
C11A C4A 1_555 1_555
C12A C7A 1_555 1_555
C13A H9A 1_555 1_555
C14A C13A 1_555 1_555
H10A C14A 1_555 1_555
C15A C14A 1_555 1_555
H11A C15A 1_555 1_555
C16A C15A 1_555 1_555
C17A C16A 1_555 1_555
H12A C17A 1_555 1_555
C18A C17A 1_555 1_555
H13A C18A 1_555 1_555
C19A C18A 1_555 1_555
C20A C19A 1_555 1_555
H14A C20A 1_555 1_555
C21A C20A 1_555 1_555
H15A C21A 1_555 1_555
C22A C21A 1_555 1_555
H16A C22A 1_555 1_555
C23A C16A 1_555 1_555
C24A C19A 1_555 1_555
C25A H17A 1_555 1_555
C26A C25A 1_555 1_555
H18A C26A 1_555 1_555
C27A C26A 1_555 1_555
H19A C27A 1_555 1_555
C28A C27A 1_555 1_555
C29A C28A 1_555 1_555
H20A C29A 1_555 1_555
C30A C29A 1_555 1_555
H21A C30A 1_555 1_555
C31A C30A 1_555 1_555
C32A C31A 1_555 1_555
H22A C32A 1_555 1_555
C33A C32A 1_555 1_555
H23A C33A 1_555 1_555
C34A C31A 1_555 1_555
C35A C28A 1_555 1_555
C36A H24A 1_555 1_555
C37A C36A 1_555 1_555
H25A C37A 1_555 1_555
C38A C37A 1_555 1_555
H26A C38A 1_555 1_555
C39A C38A 1_555 1_555
C40A C33A 1_555 1_555
H27A C40A 1_555 1_555
C41A C39A 1_555 1_555
H28A C41A 1_555 1_555
C42A C41A 1_555 1_555
H29A C42A 1_555 1_555
C43A C42A 1_555 1_555
C44A C43A 1_555 1_555
H30A C44A 1_555 1_555
C45A C44A 1_555 1_555
H31A C45A 1_555 1_555
C46A C45A 1_555 1_555
H32A C46A 1_555 1_555
C47A C43A 1_555 1_555
C48A C39A 1_555 1_555
N1A Zn1A 1_555 1_555
N2A Zn1A 1_555 1_555
N3A Zn1A 1_555 1_555
N4A Zn1A 1_555 1_555
N5A Zn2A 1_555 1_555
N6A Zn2A 1_555 1_555
N7A Zn2A 1_555 1_555
N8A Zn2A 1_555 1_555
Mo2 O28 1_555 1_555
Mo2 O29 1_555 1_555
Mo3 O31 1_555 1_555
Mo4 O27 1_555 1_555
Mo4 O30 1_555 1_555
Mo5 O19 1_555 1_555
Mo5 O26 1_555 1_555
Mo6 O16 1_555 1_555
Mo6 O17 1_555 1_555
Mo6 O24 1_555 1_555
Mo6 O32 1_555 1_555
Zn3 O27 1_555 1_555
Zn3 O29 1_555 1_555
P1 O13 1_555 1_555
P1 O18 1_555 1_555
P2 O14 1_555 1_555
P2 O22 1_555 1_555
P3 O20 1_555 1_555
P3 O25 1_555 1_555
P4 O16 1_555 1_555
P4 O19 1_555 1_555
P4 O21 1_555 1_555
C1 N1 1_555 1_555
C10 N2 1_555 1_555
C11 C12 1_555 1_555
C11 N1 1_555 1_555
C12 N2 1_555 1_555
C13 N3 1_555 1_555
C22 N4 1_555 1_555
C23 C24 1_555 1_555
C23 N3 1_555 1_555
C24 N4 1_555 1_555
C25 N6 1_555 1_555
C34 C35 1_555 1_555
C34 N5 1_555 1_555
C35 N6 1_555 1_555
C36 N8 1_555 1_555
C40 N5 1_555 1_555
C46 N7 1_555 1_555
C47 C48 1_555 1_555
C47 N7 1_555 1_555
C48 N8 1_555 1_555
Mo1A O29A 1_555 1_555
Mo2A O28A 1_555 1_555
Mo2A O29A 1_555 1_555
Mo3A O27A 1_555 1_555
Mo3A O31A 1_555 1_555
Mo4A O27A 1_555 1_555
Mo4A O30A 1_555 1_555
Mo5A O19A 1_555 1_555
Mo5A O24A 1_555 1_555
Mo5A O26A 1_555 1_555
Mo6A O16A 1_555 1_555
Mo6A O17A 1_555 1_555
Mo6A O24A 1_555 1_555
Mo6A O32A 1_555 1_555
P1A O13A 1_555 1_555
P1A O18A 1_555 1_555
P2A O14A 1_555 1_555
P2A O22A 1_555 1_555
P3A O20A 1_555 1_555
P3A O25A 1_555 1_555
P4A O16A 1_555 1_555
P4A O19A 1_555 1_555
P4A O21A 1_555 1_555
C1A N1A 1_555 1_555
C10A N2A 1_555 1_555
C11A C12A 1_555 1_555
C11A N1A 1_555 1_555
C12A N2A 1_555 1_555
C13A N3A 1_555 1_555
C22A N4A 1_555 1_555
C23A C24A 1_555 1_555
C23A N3A 1_555 1_555
C24A N4A 1_555 1_555
C25A N6A 1_555 1_555
C34A C35A 1_555 1_555
C34A N5A 1_555 1_555
C35A N6A 1_555 1_555
C36A N8A 1_555 1_555
C40A N5A 1_555 1_555
C46A N7A 1_555 1_555
C47A C48A 1_555 1_555
C47A N7A 1_555 1_555
C48A N8A 1_555 1_555

#END
