
#######################################################################
#
#                 Cambridge Crystallographic Data Centre
#                                CCDC 
#
#######################################################################
#
# If this CIF has been generated from an entry in the Cambridge 
# Structural Database, then it will include bibliographic, chemical, 
# crystal, experimental, refinement or atomic coordinate data resulting 
# from the CCDC's data processing and validation procedures.
#
#######################################################################

data_KEKFIR
_symmetry_cell_setting           monoclinic
_symmetry_space_group_name_H-M   'P 21/c'
_symmetry_Int_Tables_number      14
_space_group_name_Hall           '-P 2ybc'
loop_
_symmetry_equiv_pos_site_id
_symmetry_equiv_pos_as_xyz
1 x,y,z
2 -x,1/2+y,1/2-z
3 -x,-y,-z
4 x,1/2-y,1/2+z
_cell_length_a                   11.3817(17)
_cell_length_b                   19.955(3)
_cell_length_c                   7.9848(11)
_cell_angle_alpha                90
_cell_angle_beta                 92.128(10)
_cell_angle_gamma                90
_cell_volume                     1812.27
loop_
_atom_site_label
_atom_site_type_symbol
_atom_site_fract_x
_atom_site_fract_y
_atom_site_fract_z
Cd1 Cd 1.12709(9) 0.74668(5) 0.03891(12)
Cd2 Cd 1.27111(9) 0.60854(5) 0.31073(12)
Cl1 Cl 1.2956(3) 0.73886(17) 0.2834(5)
Cl2 Cl 1.1503(4) 0.61724(17) 0.0378(4)
Cl3 Cl 1.1535(4) 0.87905(17) 0.0575(4)
Cl4 Cl 0.9861(3) 0.74885(17) -0.2175(4)
N1 N 1.3139(10) 0.4986(6) 0.2551(13)
C1 C 1.2506(13) 0.4483(7) 0.1927(18)
C2 C 1.1176(13) 0.4478(8) 0.1964(19)
H1 H 1.0912 0.4864 0.2585
H2 H 1.0918 0.4071 0.2503
H3 H 1.0847 0.4496 0.0827
C3 C 1.3274(15) 0.4016(7) 0.125(2)
H4 H 1.3054 0.3615 0.0711
C4 C 1.4377(13) 0.4239(7) 0.1519(17)
C5 C 1.5504(14) 0.3898(7) 0.1042(19)
H5 H 1.5319 0.3486 0.0444
H6 H 1.5975 0.3796 0.2048
H7 H 1.5942 0.4194 0.0329
N2 N 1.4296(11) 0.4847(6) 0.2313(15)
C6 C 1.5131(12) 0.5313(7) 0.2907(18)
C7 C 1.6371(13) 0.5210(7) 0.2673(19)
H8 H 1.6619 0.4827 0.2098
C8 C 1.7185(14) 0.5659(7) 0.3272(18)
C9 C 1.8422(14) 0.5573(9) 0.290(2)
H9 H 1.8519 0.5165 0.2264
H10 H 1.8886 0.5545 0.3945
H11 H 1.8684 0.5953 0.2258
C10 C 1.6761(12) 0.6245(7) 0.4152(17)
C11 C 1.7516(13) 0.6728(7) 0.4880(17)
H12 H 1.8331 0.6692 0.4746
C12 C 1.7086(15) 0.7249(8) 0.5782(19)
H13 H 1.7594 0.7578 0.6240
C13 C 1.5547(13) 0.6285(7) 0.4376(16)
C14 C 1.5886(15) 0.7285(8) 0.6010(17)
H14 H 1.5596 0.7633 0.6671
C15 C 1.5103(13) 0.6829(7) 0.5306(16)
H15 H 1.4291 0.6878 0.5440
N3 N 1.4745(10) 0.5864(6) 0.3663(12)
Cd1C Cd 1.12709(9) 0.75332(5) 0.53891(12)
Cd1C_2 Cd 1.12709(9) 0.75332(5) -0.46109(12)
Cd2C Cd 1.27111(9) 0.89146(5) -0.18927(12)
Cl1C Cl 1.2956(3) 0.76114(17) -0.2166(5)
Cl3C Cl 1.1535(4) 0.62095(17) 0.5575(4)
Cl4C Cl 0.9861(3) 0.75115(17) 0.2825(4)
loop_
_geom_bond_atom_site_label_1
_geom_bond_atom_site_label_2
_geom_bond_site_symmetry_1
_geom_bond_site_symmetry_2
Cd1 Cl1 1_555 1_555
Cd2 Cl1 1_555 1_555
Cl1 Cd1C 1_555 1_555
Cl2 Cd1 1_555 1_555
Cl3 Cd1 1_555 1_555
Cl4 Cd1 1_555 1_555
N1 Cd2 1_555 1_555
C1 N1 1_555 1_555
C2 C1 1_555 1_555
H1 C2 1_555 1_555
H2 C2 1_555 1_555
H3 C2 1_555 1_555
C3 C1 1_555 1_555
H4 C3 1_555 1_555
C4 C3 1_555 1_555
C5 C4 1_555 1_555
H5 C5 1_555 1_555
H6 C5 1_555 1_555
H7 C5 1_555 1_555
N2 N1 1_555 1_555
C6 N2 1_555 1_555
C7 C6 1_555 1_555
H8 C7 1_555 1_555
C8 C7 1_555 1_555
C9 C8 1_555 1_555
H9 C9 1_555 1_555
H10 C9 1_555 1_555
H11 C9 1_555 1_555
C10 C8 1_555 1_555
C11 C10 1_555 1_555
H12 C11 1_555 1_555
C12 C11 1_555 1_555
H13 C12 1_555 1_555
C13 C10 1_555 1_555
C14 C12 1_555 1_555
H14 C14 1_555 1_555
C15 C13 1_555 1_555
H15 C15 1_555 1_555
N3 Cd2 1_555 1_555
Cd1C Cl3C 1_555 1_555
Cd1C_2 Cl4 1_555 1_555
Cd2C Cl3 1_555 1_555
Cl1C Cd1 1_555 1_555
Cl3C Cd2 1_555 1_555
Cl4C Cd1 1_555 1_555
Cd2 Cl2 1_555 1_555
C4 N2 1_555 1_555
C6 N3 1_555 1_555
C13 N3 1_555 1_555
C14 C15 1_555 1_555
Cd1C Cl4C 1_555 1_555
Cd1C_2 Cl1C 1_555 1_555
Cd2C Cl1C 1_555 1_555

#END
