
#######################################################################
#
#                 Cambridge Crystallographic Data Centre
#                                CCDC 
#
#######################################################################
#
# If this CIF has been generated from an entry in the Cambridge 
# Structural Database, then it will include bibliographic, chemical, 
# crystal, experimental, refinement or atomic coordinate data resulting 
# from the CCDC's data processing and validation procedures.
#
#######################################################################

data_KEKJOB
_symmetry_cell_setting           triclinic
_symmetry_space_group_name_H-M   'P -1'
_symmetry_Int_Tables_number      2
_space_group_name_Hall           '-P 1'
loop_
_symmetry_equiv_pos_site_id
_symmetry_equiv_pos_as_xyz
1 x,y,z
2 -x,-y,-z
_cell_length_a                   8.362(2)
_cell_length_b                   10.605(2)
_cell_length_c                   14.617(3)
_cell_angle_alpha                73.26(3)
_cell_angle_beta                 86.23(3)
_cell_angle_gamma                69.45(3)
_cell_volume                     1161.4
loop_
_atom_site_label
_atom_site_type_symbol
_atom_site_fract_x
_atom_site_fract_y
_atom_site_fract_z
Cu1 Cu 0.57175(7) 0.58089(6) 0.72313(4)
N1 N 0.7501(5) 0.6732(4) 0.7102(3)
N2 N 0.5365(4) 0.6856(4) 0.5883(2)
N3 N 0.3886(4) 0.5203(4) 0.6841(3)
O1 O 0.6835(4) 0.4122(3) 0.8298(2)
O2 O 0.8192(4) 0.3250(3) 0.7149(2)
O3 O 0.3478(5) -0.1113(4) 0.7136(2)
O4 O 0.4233(4) -0.3183(3) 0.8214(2)
C1 C 0.8603(6) 0.6569(5) 0.7779(4)
H7 H 0.8584 0.5970 0.8383
C2 C 0.9772(6) 0.7248(6) 0.7623(4)
H8 H 1.0514 0.7120 0.8115
C3 C 0.9825(7) 0.8115(6) 0.6731(4)
H9 H 1.0623 0.8566 0.6606
C4 C 0.8675(6) 0.8312(6) 0.6020(4)
H10 H 0.8676 0.8911 0.5414
C5 C 0.7525(6) 0.7608(5) 0.6223(3)
C6 C 0.6255(6) 0.7704(5) 0.5533(3)
C7 C 0.5917(6) 0.8567(5) 0.4597(3)
H11 H 0.6509 0.9178 0.4343
C8 C 0.4689(7) 0.8492(6) 0.4060(4)
H12 H 0.4447 0.9064 0.3434
C9 C 0.3803(7) 0.7589(6) 0.4425(3)
H13 H 0.2985 0.7531 0.4053
C10 C 0.4178(6) 0.6771(5) 0.5365(3)
C11 C 0.3341(6) 0.5785(5) 0.5911(3)
C12 C 0.2123(7) 0.5458(6) 0.5538(4)
H14 H 0.1789 0.5841 0.4894
C13 C 0.1401(7) 0.4550(6) 0.6137(5)
H15 H 0.0585 0.4304 0.5899
C14 C 0.1899(6) 0.4019(6) 0.7083(4)
H16 H 0.1392 0.3436 0.7499
C15 C 0.3154(6) 0.4352(5) 0.7416(4)
H17 H 0.3502 0.3974 0.8059
C16 C 0.7881(5) 0.3134(5) 0.8009(3)
C17 C 0.8737(6) 0.1770(5) 0.8760(3)
H18 H 0.8450 0.1901 0.9388
H19 H 0.9967 0.1511 0.8712
C18 C 0.8205(6) 0.0575(5) 0.8659(4)
H20 H 0.8662 0.0340 0.8078
H21 H 0.8704 -0.0248 0.9194
C19 C 0.6272(6) 0.0934(5) 0.8626(3)
H22 H 0.5795 0.1312 0.9153
H23 H 0.5795 0.1660 0.8037
C20 C 0.5731(6) -0.0314(5) 0.8682(3)
H24 H 0.6186 -0.1037 0.9275
H25 H 0.6212 -0.0702 0.8158
C21 C 0.3794(6) 0.0092(5) 0.8633(3)
H26 H 0.3352 0.0750 0.8014
H27 H 0.3307 0.0561 0.9118
C22 C 0.3230(6) -0.1177(5) 0.8781(3)
H28 H 0.3757 -0.1869 0.9374
H29 H 0.2001 -0.0879 0.8847
C23 C 0.3684(6) -0.1864(5) 0.7976(3)
Cu1_2 Cu 0.57175(7) -0.41911(6) 0.72313(4)
O4_2 O 0.4233(4) 0.6817(3) 0.8214(2)
O5 O 1.1144(8) 0.3508(6) 0.9582(4)
H1 H 1.0767 0.4155 0.9852
H2 H 1.2007 0.2935 0.9320
O6 O 0.2610(6) 0.5561(5) 0.9830(3)
H3 H 0.3356 0.5747 0.9438
H4 H 0.3124 0.4646 0.9927
O7 O 0.0524(5) 1.1256(4) 0.6356(3)
H5 H 0.1600 1.0592 0.6707
H6 H -0.0067 1.1988 0.6584
loop_
_geom_bond_atom_site_label_1
_geom_bond_atom_site_label_2
_geom_bond_site_symmetry_1
_geom_bond_site_symmetry_2
Cu1 N1 1_555 1_555
N1 C1 1_555 1_555
N2 Cu1 1_555 1_555
N3 Cu1 1_555 1_555
O1 Cu1 1_555 1_555
O2 C16 1_555 1_555
O3 C23 1_555 1_555
O4 C23 1_555 1_555
O5 H1 1_555 1_555
H2 O5 1_555 1_555
O6 H3 1_555 1_555
H4 O6 1_555 1_555
O7 H5 1_555 1_555
H6 O7 1_555 1_555
C1 H7 1_555 1_555
C2 C1 1_555 1_555
H8 C2 1_555 1_555
C3 C2 1_555 1_555
H9 C3 1_555 1_555
C4 C3 1_555 1_555
H10 C4 1_555 1_555
C5 N1 1_555 1_555
C6 N2 1_555 1_555
C7 C6 1_555 1_555
H11 C7 1_555 1_555
C8 C7 1_555 1_555
H12 C8 1_555 1_555
C9 C8 1_555 1_555
H13 C9 1_555 1_555
C10 N2 1_555 1_555
C11 N3 1_555 1_555
C12 C11 1_555 1_555
H14 C12 1_555 1_555
C13 C12 1_555 1_555
H15 C13 1_555 1_555
C14 C13 1_555 1_555
H16 C14 1_555 1_555
C15 N3 1_555 1_555
H17 C15 1_555 1_555
C16 O1 1_555 1_555
C17 C16 1_555 1_555
H18 C17 1_555 1_555
H19 C17 1_555 1_555
C18 C17 1_555 1_555
H20 C18 1_555 1_555
H21 C18 1_555 1_555
C19 C18 1_555 1_555
H22 C19 1_555 1_555
H23 C19 1_555 1_555
C20 C19 1_555 1_555
H24 C20 1_555 1_555
H25 C20 1_555 1_555
C21 C20 1_555 1_555
H26 C21 1_555 1_555
H27 C21 1_555 1_555
C22 C21 1_555 1_555
H28 C22 1_555 1_555
H29 C22 1_555 1_555
C23 C22 1_555 1_555
Cu1_2 O4 1_555 1_555
O4_2 Cu1 1_555 1_555
C4 C5 1_555 1_555
C5 C6 1_555 1_555
C9 C10 1_555 1_555
C10 C11 1_555 1_555
C14 C15 1_555 1_555

#END
