
#######################################################################
#
#                 Cambridge Crystallographic Data Centre
#                                CCDC 
#
#######################################################################
#
# If this CIF has been generated from an entry in the Cambridge 
# Structural Database, then it will include bibliographic, chemical, 
# crystal, experimental, refinement or atomic coordinate data resulting 
# from the CCDC's data processing and validation procedures.
#
#######################################################################

data_KEKJIV
_symmetry_cell_setting           monoclinic
_symmetry_space_group_name_H-M   'C 2/c'
_symmetry_Int_Tables_number      15
_space_group_name_Hall           '-C 2yn'
loop_
_symmetry_equiv_pos_site_id
_symmetry_equiv_pos_as_xyz
1 x,y,z
2 -x,y,1/2-z
3 1/2+x,1/2+y,z
4 1/2-x,1/2+y,1/2-z
5 -x,-y,-z
6 x,-y,1/2+z
7 1/2-x,1/2-y,-z
8 1/2+x,1/2-y,1/2+z
_cell_length_a                   10.335(2)
_cell_length_b                   21.193(4)
_cell_length_c                   8.580(2)
_cell_angle_alpha                90
_cell_angle_beta                 111.99(3)
_cell_angle_gamma                90
_cell_volume                     1742.56
loop_
_atom_site_label
_atom_site_type_symbol
_atom_site_fract_x
_atom_site_fract_y
_atom_site_fract_z
Cu1 Cu 0.5000 0.616744(14) 0.7500
O1 O 0.64792(14) 0.54973(7) 0.75289(19)
O2 O 0.75893(14) 0.63619(7) 0.7294(2)
N1 N 0.41861(16) 0.63492(8) 0.4998(2)
N2 N 0.5000 0.70957(10) 0.7500
C1 C 0.3809(2) 0.59137(10) 0.3781(3)
H1 H 0.3916 0.5489 0.4071
C2 C 0.3263(2) 0.60809(11) 0.2094(3)
H2 H 0.3017 0.5771 0.1265
C3 C 0.3087(2) 0.67083(12) 0.1660(3)
H3 H 0.2712 0.6827 0.0535
C4 C 0.3474(2) 0.71616(10) 0.2914(2)
H4 H 0.3365 0.7589 0.2646
C5 C 0.40251(18) 0.69670(9) 0.4571(2)
C6 C 0.45047(18) 0.74018(9) 0.6034(2)
C7 C 0.4480(2) 0.80545(9) 0.5987(3)
H5 H 0.4124 0.8270 0.4970
C8 C 0.5000 0.83774(13) 0.7500
H6 H 0.5000 0.8816 0.7500
C9 C 0.75125(18) 0.57828(9) 0.7437(2)
C10 C 0.8755(2) 0.53725(10) 0.7480(3)
H7 H 0.9038 0.5107 0.8472
H8 H 0.8455 0.5099 0.6502
C11 C 1.0000 0.57545(16) 0.7500
H9 H 1.0296 0.6024 0.8483
Cu1_2 Cu 1.5000 0.616744(14) 0.7500
O1A O 1.35208(14) 0.54973(7) 0.74711(19)
O1A_2 O 0.35208(14) 0.54973(7) 0.74711(19)
O2A O 1.24107(14) 0.63619(7) 0.7706(2)
N1A N 0.58139(16) 0.63492(8) 1.0002(2)
C1A C 0.6191(2) 0.59137(10) 1.1219(3)
H1A H 0.6084 0.5489 1.0929
C2A C 0.6737(2) 0.60809(11) 1.2906(3)
H2A H 0.6983 0.5771 1.3735
C3A C 0.6913(2) 0.67083(12) 1.3340(3)
H3A H 0.7288 0.6827 1.4465
C4A C 0.6526(2) 0.71616(10) 1.2086(2)
H4A H 0.6635 0.7589 1.2354
C5A C 0.59749(18) 0.69670(9) 1.0429(2)
C6A C 0.54953(18) 0.74018(9) 0.8966(2)
C7A C 0.5520(2) 0.80545(9) 0.9013(3)
H5A H 0.5876 0.8270 1.0030
C9A C 1.24875(18) 0.57828(9) 0.7563(2)
C10A C 1.1245(2) 0.53725(10) 0.7520(3)
H7A H 1.0962 0.5107 0.6528
H8A H 1.1545 0.5099 0.8498
H9A H 0.9704 0.6024 0.6517
loop_
_geom_bond_atom_site_label_1
_geom_bond_atom_site_label_2
_geom_bond_site_symmetry_1
_geom_bond_site_symmetry_2
Cu1 O1 1_555 1_555
O1 C9 1_555 1_555
O2 C9 1_555 1_555
N1 Cu1 1_555 1_555
N2 Cu1 1_555 1_555
C1 N1 1_555 1_555
H1 C1 1_555 1_555
C2 C1 1_555 1_555
H2 C2 1_555 1_555
C3 C2 1_555 1_555
H3 C3 1_555 1_555
C4 C3 1_555 1_555
H4 C4 1_555 1_555
C5 N1 1_555 1_555
C6 N2 1_555 1_555
C7 C6 1_555 1_555
H5 C7 1_555 1_555
C8 C7 1_555 1_555
H6 C8 1_555 1_555
C9 C10 1_555 1_555
C10 H7 1_555 1_555
H8 C10 1_555 1_555
C11 C10 1_555 1_555
H9 C11 1_555 1_555
Cu1_2 O1A 1_555 1_555
O1A C9A 1_555 1_555
O1A_2 Cu1 1_555 1_555
O2A C9A 1_555 1_555
N1A Cu1 1_555 1_555
C1A N1A 1_555 1_555
H1A C1A 1_555 1_555
C2A C1A 1_555 1_555
H2A C2A 1_555 1_555
C3A C2A 1_555 1_555
H3A C3A 1_555 1_555
C4A C3A 1_555 1_555
H4A C4A 1_555 1_555
C5A N1A 1_555 1_555
C6A N2 1_555 1_555
C7A C8 1_555 1_555
H5A C7A 1_555 1_555
C9A C10A 1_555 1_555
C10A C11 1_555 1_555
H7A C10A 1_555 1_555
H8A C10A 1_555 1_555
H9A C11 1_555 1_555
C4 C5 1_555 1_555
C5 C6 1_555 1_555
C4A C5A 1_555 1_555
C5A C6A 1_555 1_555
C6A C7A 1_555 1_555

#END
