
#######################################################################
#
#                 Cambridge Crystallographic Data Centre
#                                CCDC 
#
#######################################################################
#
# If this CIF has been generated from an entry in the Cambridge 
# Structural Database, then it will include bibliographic, chemical, 
# crystal, experimental, refinement or atomic coordinate data resulting 
# from the CCDC's data processing and validation procedures.
#
#######################################################################

data_KEKJER
_symmetry_cell_setting           monoclinic
_symmetry_space_group_name_H-M   'P 21'
_symmetry_Int_Tables_number      4
_space_group_name_Hall           'P 2yb'
loop_
_symmetry_equiv_pos_site_id
_symmetry_equiv_pos_as_xyz
1 x,y,z
2 -x,1/2+y,-z
_cell_length_a                   12.0201(8)
_cell_length_b                   6.1495(4)
_cell_length_c                   14.8576(10)
_cell_angle_alpha                90
_cell_angle_beta                 94.172(1)
_cell_angle_gamma                90
_cell_volume                     1095.33
loop_
_atom_site_label
_atom_site_type_symbol
_atom_site_fract_x
_atom_site_fract_y
_atom_site_fract_z
Cu1 Cu -0.83612(2) -0.33429(6) -0.941404(19)
C1 C -0.6384(2) -0.3434(6) -0.83553(16)
C2 C -0.7166(2) -0.4637(5) -0.77544(19)
H1 H -0.7375 -0.3575 -0.7286
C3 C -0.6620(2) -0.6575(5) -0.7247(2)
H2 H -0.6435 -0.7710 -0.7685
H3 H -0.5917 -0.6099 -0.6916
C4 C -0.7391(3) -0.7506(5) -0.65925(19)
C5 C -0.7493(3) -0.6548(6) -0.5754(2)
H4 H -0.7047 -0.5320 -0.5583
C6 C -0.8236(3) -0.7361(6) -0.5162(2)
H5 H -0.8295 -0.6675 -0.4594
C7 C -0.8896(3) -0.9165(6) -0.5392(2)
H6 H -0.9398 -0.9732 -0.4986
C8 C -0.8800(3) -1.0115(5) -0.6232(2)
C9 C -0.8067(3) -0.9270(5) -0.6837(2)
H7 H -0.8034 -0.9908 -0.7417
C10 C -0.9459(3) -1.2027(6) -0.6506(2)
C11 C -0.9905(2) -0.4708(5) -1.07575(19)
C12 C -0.9051(2) -0.3495(6) -1.12884(16)
H8 H -0.9454 -0.2563 -1.1757
C13 C -0.8343(2) -0.5166(5) -1.17528(19)
H9 H -0.7856 -0.5911 -1.1283
H10 H -0.8849 -0.6276 -1.2039
C14 C -0.7618(2) -0.4301(5) -1.24594(19)
C15 C -0.7784(3) -0.2265(6) -1.2852(2)
H11 H -0.8356 -0.1348 -1.2659
C16 C -0.7116(3) -0.1543(6) -1.3535(2)
H12 H -0.7239 -0.0144 -1.3794
C17 C -0.6291(3) -0.2845(6) -1.3826(2)
H13 H -0.5845 -0.2365 -1.4290
C18 C -0.6114(3) -0.4877(6) -1.3433(2)
C19 C -0.6768(2) -0.5604(5) -1.27523(18)
H14 H -0.6631 -0.6995 -1.2488
C20 C -0.5254(3) -0.6254(7) -1.3753(2)
N1 N -0.8213(2) -0.5196(4) -0.83023(16)
N2 N -0.9939(2) -1.3547(6) -0.67388(19)
N3 N -0.83396(19) -0.2090(4) -1.06626(15)
N4 N -0.4575(3) -0.7299(7) -1.4034(2)
O1 O -0.68496(17) -0.2415(4) -0.90387(13)
O2 O -0.53717(14) -0.3388(5) -0.81455(11)
O3 O -0.97038(16) -0.4838(3) -0.98942(13)
O4 O -1.07106(17) -0.5551(4) -1.11813(13)
Cu1A Cu -1.16388(2) -0.83429(6) -1.058596(19)
O4A O -0.92894(17) -0.0551(4) -0.88187(13)
O5 O -0.59160(18) -0.1496(4) -0.09678(14)
H15 H -0.6062 -0.1878 -0.0439
H16 H -0.5523 -0.0370 -0.1042
O6 O -0.44633(18) -0.0813(4) -0.94505(14)
H17 H -0.3819 -0.1116 -0.9209
H18 H -0.4895 0.0016 -0.9179
O7 O -0.7123(2) 0.2086(4) -0.95615(17)
H19 H -0.6681 0.2660 -0.9914
H20 H -0.7140 0.2548 -0.9023
loop_
_geom_bond_atom_site_label_1
_geom_bond_atom_site_label_2
_geom_bond_site_symmetry_1
_geom_bond_site_symmetry_2
Cu1 N1 1_555 1_555
C1 C2 1_555 1_555
C2 H1 1_555 1_555
C3 C2 1_555 1_555
H2 C3 1_555 1_555
H3 C3 1_555 1_555
C4 C3 1_555 1_555
C5 C4 1_555 1_555
H4 C5 1_555 1_555
C6 C5 1_555 1_555
H5 C6 1_555 1_555
C7 C6 1_555 1_555
H6 C7 1_555 1_555
C8 C7 1_555 1_555
C9 C4 1_555 1_555
H7 C9 1_555 1_555
C10 C8 1_555 1_555
C11 C12 1_555 1_555
C12 H8 1_555 1_555
C13 C12 1_555 1_555
H9 C13 1_555 1_555
H10 C13 1_555 1_555
C14 C13 1_555 1_555
C15 C14 1_555 1_555
H11 C15 1_555 1_555
C16 C15 1_555 1_555
H12 C16 1_555 1_555
C17 C16 1_555 1_555
H13 C17 1_555 1_555
C18 C17 1_555 1_555
C19 C14 1_555 1_555
H14 C19 1_555 1_555
C20 C18 1_555 1_555
N1 C2 1_555 1_555
N2 C10 1_555 1_555
N3 Cu1 1_555 1_555
N4 C20 1_555 1_555
O1 Cu1 1_555 1_555
O2 C1 1_555 1_555
O3 Cu1 1_555 1_555
O4 C11 1_555 1_555
O5 H15 1_555 1_555
H16 O5 1_555 1_555
O6 H17 1_555 1_555
H18 O6 1_555 1_555
O7 H19 1_555 1_555
H20 O7 1_555 1_555
Cu1A O4 1_555 1_555
O4A Cu1 1_555 1_555
C1 O1 1_555 1_555
C8 C9 1_555 1_555
C11 O3 1_555 1_555
C12 N3 1_555 1_555
C18 C19 1_555 1_555

#END
