
#######################################################################
#
#                 Cambridge Crystallographic Data Centre
#                                CCDC 
#
#######################################################################
#
# If this CIF has been generated from an entry in the Cambridge 
# Structural Database, then it will include bibliographic, chemical, 
# crystal, experimental, refinement or atomic coordinate data resulting 
# from the CCDC's data processing and validation procedures.
#
#######################################################################

data_KEKMIY
_symmetry_cell_setting           monoclinic
_symmetry_space_group_name_H-M   'C 2/m'
_symmetry_Int_Tables_number      12
_space_group_name_Hall           '-C 2y'
loop_
_symmetry_equiv_pos_site_id
_symmetry_equiv_pos_as_xyz
1 x,y,z
2 -x,y,-z
3 1/2+x,1/2+y,z
4 1/2-x,1/2+y,-z
5 -x,-y,-z
6 x,-y,z
7 1/2-x,1/2-y,-z
8 1/2+x,1/2-y,z
_cell_length_a                   8.723(1)
_cell_length_b                   9.083(1)
_cell_length_c                   5.797(1)
_cell_angle_alpha                90
_cell_angle_beta                 95.07(1)
_cell_angle_gamma                90
_cell_volume                     457.505
loop_
_atom_site_label
_atom_site_type_symbol
_atom_site_fract_x
_atom_site_fract_y
_atom_site_fract_z
Ag1 Ag 0.0000 0.0000 0.0000
N1 N 0.1155(10) 0.0000 0.3475(14)
H1 H 0.2186 0.0000 0.3337
C1 C 0.0806(10) 0.1307(8) 0.4776(15)
H2 H 0.1446 0.1327 0.6232
H3 H 0.1030 0.2180 0.3903
Ag1_2 Ag 0.0000 0.0000 1.0000
N1A N -0.1155(10) 0.0000 0.6525(14)
N1A_2 N -0.1155(10) 0.0000 -0.3475(14)
H1A H -0.2186 0.0000 0.6663
H1A_2 H -0.2186 0.0000 -0.3337
C1A C -0.0806(10) 0.1307(8) 0.5224(15)
C1D C -0.0806(10) -0.1307(8) 0.5224(15)
C1E C 0.0806(10) -0.1307(8) 0.4776(15)
H2D H -0.1446 -0.1327 0.3768
H2E H 0.1446 -0.1327 0.6232
H2A H -0.1446 0.1327 0.3768
H3D H -0.1030 -0.2180 0.6097
H3E H 0.1030 -0.2180 0.3903
H3A H -0.1030 0.2180 0.6097
P1 P 0.5000 0.0000 0.0000
F1 F 0.6197(8) -0.1208(7) -0.0388(15)
F2 F 0.5450(17) 0.0000 0.2683(14)
F1A F 0.3803(8) -0.1208(7) 0.0388(15)
F1D F 0.3803(8) 0.1208(7) 0.0388(15)
F1E F 0.6197(8) 0.1208(7) -0.0388(15)
F2A F 0.4550(17) 0.0000 -0.2683(14)
loop_
_geom_bond_atom_site_label_1
_geom_bond_atom_site_label_2
_geom_bond_site_symmetry_1
_geom_bond_site_symmetry_2
Ag1 N1 1_555 1_555
P1 F1 1_555 1_555
N1 H1 1_555 1_555
C1 N1 1_555 1_555
H2 C1 1_555 1_555
H3 C1 1_555 1_555
F2 P1 1_555 1_555
Ag1_2 N1A 1_555 1_555
N1A H1A 1_555 1_555
N1A_2 Ag1 1_555 1_555
H1A_2 N1A_2 1_555 1_555
C1A C1 1_555 1_555
C1D N1A 1_555 1_555
C1E N1 1_555 1_555
H2D C1D 1_555 1_555
H2E C1E 1_555 1_555
H2A C1A 1_555 1_555
H3D C1D 1_555 1_555
H3E C1E 1_555 1_555
H3A C1A 1_555 1_555
F1A P1 1_555 1_555
F1D P1 1_555 1_555
F1E P1 1_555 1_555
F2A P1 1_555 1_555
N1A C1A 1_555 1_555
C1D C1E 1_555 1_555

#END
