
#######################################################################
#
#                 Cambridge Crystallographic Data Centre
#                                CCDC 
#
#######################################################################
#
# If this CIF has been generated from an entry in the Cambridge 
# Structural Database, then it will include bibliographic, chemical, 
# crystal, experimental, refinement or atomic coordinate data resulting 
# from the CCDC's data processing and validation procedures.
#
#######################################################################

data_KEKMEU
_symmetry_cell_setting           monoclinic
_symmetry_space_group_name_H-M   'P 21/c'
_symmetry_Int_Tables_number      14
_space_group_name_Hall           '-P 2ybc'
loop_
_symmetry_equiv_pos_site_id
_symmetry_equiv_pos_as_xyz
1 x,y,z
2 -x,1/2+y,1/2-z
3 -x,-y,-z
4 x,1/2-y,1/2+z
_cell_length_a                   6.207(1)
_cell_length_b                   12.533(1)
_cell_length_c                   11.386(1)
_cell_angle_alpha                90
_cell_angle_beta                 93.401(1)
_cell_angle_gamma                90
_cell_volume                     884.184
loop_
_atom_site_label
_atom_site_type_symbol
_atom_site_fract_x
_atom_site_fract_y
_atom_site_fract_z
Re1 Re 0.43562(6) 0.24939(3) 1.19796(3)
Ag1 Ag 0.91894(18) 0.02009(7) 1.24709(6)
O1 O 0.4192(15) 0.2439(5) 1.0469(7)
O2 O 0.1814(17) 0.2493(7) 1.2481(10)
O3 O 0.570(2) 0.1404(9) 1.2543(10)
O4 O 0.554(2) 0.3644(8) 1.2435(10)
N1 N 0.8527(14) -0.0498(6) 1.0742(6)
H1 H 0.7442 -0.0981 1.0800
N2 N 1.0461(16) 0.0800(7) 1.4165(6)
H2 H 1.1072 0.1446 1.4037
C1 C 0.7803(17) 0.0297(8) 0.9860(8)
H3 H 0.6560 0.0675 1.0128
H4 H 0.7370 -0.0059 0.9127
C2 C 1.2148(16) 0.0105(9) 1.4672(9)
H5 H 1.2818 0.0433 1.5374
H6 H 1.3249 0.0003 1.4112
C3 C 1.0427(16) -0.1078(7) 1.0345(8)
H7 H 1.0038 -0.1461 0.9623
H8 H 1.0920 -0.1593 1.0938
C4 C 0.881(2) 0.0960(8) 1.5020(8)
H9 H 0.7680 0.1425 1.4687
H10 H 0.9447 0.1296 1.5724
Re1B Re 1.56438(6) -0.24939(3) 0.80204(3)
Ag1B Ag 1.08106(18) -0.02009(7) 0.75291(6)
Ag1B_2 Ag 1.08106(18) -0.02009(7) 1.75291(6)
O1B O 1.5808(15) -0.2439(5) 0.9531(7)
O2B O 1.8186(17) -0.2493(7) 0.7519(10)
O3B O 1.430(2) -0.1404(9) 0.7457(10)
O4B O 1.446(2) -0.3644(8) 0.7565(10)
N1B N 1.1473(14) 0.0498(6) 0.9258(6)
H1B H 1.2558 0.0981 0.9200
N2B N 0.9539(16) -0.0800(7) 1.5835(6)
N2B_2 N 0.9539(16) -0.0800(7) 0.5835(6)
H2B H 0.8928 -0.1446 1.5963
H2B_2 H 0.8928 -0.1446 0.5963
C1B C 1.2197(17) -0.0297(8) 1.0140(8)
H3B H 1.3440 -0.0675 0.9872
H4B H 1.2630 0.0059 1.0873
C2B C 0.7852(16) -0.0105(9) 1.5328(9)
H5B H 0.7182 -0.0433 1.4626
H6B H 0.6751 -0.0003 1.5888
C3B C 0.9573(16) 0.1078(7) 0.9655(8)
H7B H 0.9962 0.1461 1.0377
H8B H 0.9080 0.1593 0.9062
C4B C 1.119(2) -0.0960(8) 1.4980(8)
H9B H 1.2320 -0.1425 1.5313
H10B H 1.0553 -0.1296 1.4276
loop_
_geom_bond_atom_site_label_1
_geom_bond_atom_site_label_2
_geom_bond_site_symmetry_1
_geom_bond_site_symmetry_2
Re1 O1 1_555 1_555
Ag1 O3 1_555 1_555
O2 Re1 1_555 1_555
O3 Re1 1_555 1_555
O4 Re1 1_555 1_555
N1 Ag1 1_555 1_555
H1 N1 1_555 1_555
N2 Ag1 1_555 1_555
H2 N2 1_555 1_555
C1 N1 1_555 1_555
H3 C1 1_555 1_555
H4 C1 1_555 1_555
C2 N2 1_555 1_555
H5 C2 1_555 1_555
H6 C2 1_555 1_555
C3 N1 1_555 1_555
H7 C3 1_555 1_555
H8 C3 1_555 1_555
C4 N2 1_555 1_555
H9 C4 1_555 1_555
H10 C4 1_555 1_555
Re1B O1B 1_555 1_555
Ag1B O3B 1_555 1_555
Ag1B_2 N2B 1_555 1_555
O2B Re1B 1_555 1_555
O3B Re1B 1_555 1_555
O4B Re1B 1_555 1_555
N1B Ag1B 1_555 1_555
H1B N1B 1_555 1_555
N2B H2B 1_555 1_555
N2B_2 Ag1B 1_555 1_555
H2B_2 N2B_2 1_555 1_555
C1B C3 1_555 1_555
H3B C1B 1_555 1_555
H4B C1B 1_555 1_555
C2B C4 1_555 1_555
H5B C2B 1_555 1_555
H6B C2B 1_555 1_555
C3B C1 1_555 1_555
H7B C3B 1_555 1_555
H8B C3B 1_555 1_555
C4B C2 1_555 1_555
H9B C4B 1_555 1_555
H10B C4B 1_555 1_555
N1B C1B 1_555 1_555
N1B C3B 1_555 1_555
N2B C2B 1_555 1_555
N2B C4B 1_555 1_555

#END
