
#######################################################################
#
#                 Cambridge Crystallographic Data Centre
#                                CCDC 
#
#######################################################################
#
# If this CIF has been generated from an entry in the Cambridge 
# Structural Database, then it will include bibliographic, chemical, 
# crystal, experimental, refinement or atomic coordinate data resulting 
# from the CCDC's data processing and validation procedures.
#
#######################################################################

data_KEKWIH
_symmetry_cell_setting           monoclinic
_symmetry_space_group_name_H-M   'C 2/c'
_symmetry_Int_Tables_number      15
_space_group_name_Hall           '-C 2yn'
loop_
_symmetry_equiv_pos_site_id
_symmetry_equiv_pos_as_xyz
1 x,y,z
2 1/2+x,1/2+y,z
3 -x,y,1/2-z
4 1/2-x,1/2+y,1/2-z
5 -x,-y,-z
6 1/2-x,1/2-y,-z
7 x,-y,1/2+z
8 1/2+x,1/2-y,1/2+z
_cell_length_a                   15.1307(3)
_cell_length_b                   8.4230(2)
_cell_length_c                   16.6322(4)
_cell_angle_alpha                90.00
_cell_angle_beta                 100.4200(10)
_cell_angle_gamma                90.00
_cell_volume                     2084.75
loop_
_atom_site_label
_atom_site_type_symbol
_atom_site_fract_x
_atom_site_fract_y
_atom_site_fract_z
Zn1 Zn 0.125535(12) -0.00448(2) 0.067050(10)
P1 P 0.05258(3) 0.14022(5) -0.11138(2)
H1 H 0.1132(13) 0.086(3) -0.1528(12)
O1 O 0.10132(10) 0.13818(17) -0.02336(8)
O2 O -0.02704(9) 0.02744(15) -0.12841(9)
O3 O 0.03202(8) 0.30909(13) -0.14057(6)
N1 N 0.37558(8) 0.08184(17) 0.26813(8)
H2 H 0.4266(14) 0.113(3) 0.3085(13)
H3 H 0.3640(17) -0.021(3) 0.2757(15)
H4 H 0.3919(16) 0.077(3) 0.2204(16)
C1 C 0.22657(10) 0.17194(18) 0.19387(8)
O4 O 0.16519(9) 0.26979(16) 0.18190(8)
O5 O 0.23271(8) 0.04995(15) 0.14983(7)
C2 C 0.29930(9) 0.19192(18) 0.27033(8)
H5 H 0.3253(13) 0.310(3) 0.2696(12)
C3 C 0.25473(10) 0.1601(2) 0.34470(9)
H6 H 0.2214(15) 0.064(3) 0.3350(13)
H7 H 0.2144(16) 0.237(3) 0.3462(14)
C4 C 0.31734(10) 0.14390(18) 0.42473(8)
N2 N 0.36049(9) 0.27003(16) 0.46846(7)
C5 C 0.40992(12) 0.2083(2) 0.53544(9)
H8 H 0.4474(15) 0.278(3) 0.5785(15)
N3 N 0.39950(11) 0.0511(2) 0.53637(9)
H9 H 0.4233(19) -0.017(3) 0.5682(18)
C6 C 0.34136(14) 0.0077(2) 0.46681(11)
H10 H 0.320(2) -0.104(4) 0.462(2)
Zn1D Zn -0.125535(12) 0.00448(2) -0.067050(10)
Zn1C Zn 0.374465(12) 0.49552(2) 0.432950(10)
Zn1C_2 Zn 0.374465(12) -0.50448(2) 0.432950(10)
P1D P -0.05258(3) -0.14022(5) 0.11138(2)
H1D H -0.1132(13) -0.086(3) 0.1528(12)
O1D O -0.10132(10) -0.13818(17) 0.02336(8)
O2D O 0.02704(9) -0.02744(15) 0.12841(9)
O3D O -0.03202(8) -0.30909(13) 0.14057(6)
N1C N 0.12442(8) -0.41816(17) 0.23187(8)
H2C H 0.0734(14) -0.387(3) 0.1915(13)
H3C H 0.1360(17) -0.521(3) 0.2243(15)
H4C H 0.1081(16) -0.423(3) 0.2796(16)
C1C C 0.27343(10) -0.32806(18) 0.30613(8)
O4C O 0.33481(9) -0.23021(16) 0.31810(8)
O5C O 0.26729(8) -0.45005(15) 0.35017(7)
O5D O -0.23271(8) -0.04995(15) -0.14983(7)
C2C C 0.20070(9) -0.30808(18) 0.22967(8)
H5C H 0.1747(13) -0.190(3) 0.2304(12)
C3C C 0.24527(10) -0.3399(2) 0.15530(9)
H6C H 0.2786(15) -0.436(3) 0.1650(13)
H7C H 0.2856(16) -0.263(3) 0.1538(14)
C4C C 0.18266(10) -0.35610(18) 0.07527(8)
N2C N 0.13951(9) -0.22997(16) 0.03154(7)
N2G N -0.13951(9) 0.22997(16) -0.03154(7)
C5C C 0.09008(12) -0.2917(2) -0.03544(9)
H8C H 0.0526(15) -0.222(3) -0.0785(15)
N3C N 0.10050(11) -0.4489(2) -0.03637(9)
H9C H 0.0767(19) -0.517(3) -0.0682(18)
C6C C 0.15864(14) -0.4923(2) 0.03319(11)
H10C H 0.180(2) -0.604(4) 0.038(2)
O6 O 0.0000 0.2888(5) 0.2500
H11 H 0.032(2) 0.212(4) 0.2306(19)
H11B H -0.032(2) 0.212(4) 0.2694(19)
loop_
_geom_bond_atom_site_label_1
_geom_bond_atom_site_label_2
_geom_bond_site_symmetry_1
_geom_bond_site_symmetry_2
Zn1 O1 1_555 1_555
P1 H1 1_555 1_555
O1 P1 1_555 1_555
O2 P1 1_555 1_555
O3 P1 1_555 1_555
N1 H2 1_555 1_555
H3 N1 1_555 1_555
H4 N1 1_555 1_555
C1 O4 1_555 1_555
O5 Zn1 1_555 1_555
C2 N1 1_555 1_555
H5 C2 1_555 1_555
C3 C2 1_555 1_555
H6 C3 1_555 1_555
H7 C3 1_555 1_555
C4 C3 1_555 1_555
N2 C4 1_555 1_555
C5 N2 1_555 1_555
H8 C5 1_555 1_555
N3 C5 1_555 1_555
H9 N3 1_555 1_555
C6 C4 1_555 1_555
H10 C6 1_555 1_555
O6 H11 1_555 1_555
Zn1D O2 1_555 1_555
Zn1C N2 1_555 1_555
Zn1C_2 O5C 1_555 1_555
P1D H1D 1_555 1_555
O1D Zn1D 1_555 1_555
O2D Zn1 1_555 1_555
O3D P1D 1_555 1_555
N1C H2C 1_555 1_555
H3C N1C 1_555 1_555
H4C N1C 1_555 1_555
C1C O4C 1_555 1_555
O5C C1C 1_555 1_555
O5D Zn1D 1_555 1_555
C2C N1C 1_555 1_555
H5C C2C 1_555 1_555
C3C C2C 1_555 1_555
H6C C3C 1_555 1_555
H7C C3C 1_555 1_555
C4C C3C 1_555 1_555
N2C Zn1 1_555 1_555
N2G Zn1D 1_555 1_555
C5C N2C 1_555 1_555
H8C C5C 1_555 1_555
N3C C5C 1_555 1_555
H9C N3C 1_555 1_555
C6C C4C 1_555 1_555
H10C C6C 1_555 1_555
H11B O6 1_555 1_555
C1 O5 1_555 1_555
C1 C2 1_555 1_555
N3 C6 1_555 1_555
P1D O1D 1_555 1_555
P1D O2D 1_555 1_555
C1C C2C 1_555 1_555
C4C N2C 1_555 1_555
N3C C6C 1_555 1_555

#END
