
#######################################################################
#
#                 Cambridge Crystallographic Data Centre
#                                CCDC 
#
#######################################################################
#
# If this CIF has been generated from an entry in the Cambridge 
# Structural Database, then it will include bibliographic, chemical, 
# crystal, experimental, refinement or atomic coordinate data resulting 
# from the CCDC's data processing and validation procedures.
#
#######################################################################

data_KEKWUS01
_symmetry_cell_setting           monoclinic
_symmetry_space_group_name_H-M   'C 2/c'
_symmetry_Int_Tables_number      15
_space_group_name_Hall           '-C 2yn'
loop_
_symmetry_equiv_pos_site_id
_symmetry_equiv_pos_as_xyz
1 x,y,z
2 1/2+x,1/2+y,z
3 -x,y,1/2-z
4 1/2-x,1/2+y,1/2-z
5 -x,-y,-z
6 1/2-x,1/2-y,-z
7 x,-y,1/2+z
8 1/2+x,1/2-y,1/2+z
_cell_length_a                   24.066(11)
_cell_length_b                   5.299(6)
_cell_length_c                   23.401(19)
_cell_angle_alpha                90
_cell_angle_beta                 98.73(6)
_cell_angle_gamma                90
_cell_volume                     2949.66
loop_
_atom_site_label
_atom_site_type_symbol
_atom_site_fract_x
_atom_site_fract_y
_atom_site_fract_z
Ag1 Ag 0.49954(2) 0.9378(1) 0.41445(2)
O1 O 0.5977(2) 0.945(1) 0.4147(2)
O2 O 0.6821(2) 0.8920(9) 0.1796(2)
O3 O 0.7150(2) 0.541(1) 0.2179(2)
O4 O 0.4641(1) 1.2014(8) 0.4794(2)
O5 O 0.2285(2) 1.6448(9) 0.3999(2)
O6 O 0.2647(2) 1.9427(8) 0.4565(2)
O7 O 0.4370(2) 0.664(1) 0.3483(3)
O8 O 0.5159(2) 0.507(1) 0.3688(3)
O9 O 0.4561(3) 0.285(1) 0.3216(3)
N1 N 0.6163(2) 0.889(1) 0.3665(2)
N2 N 0.6878(2) 0.736(1) 0.2186(2)
N3 N 0.4170(2) 1.3295(9) 0.4674(2)
N4 N 0.2669(2) 1.7367(9) 0.4329(2)
N5 N 0.4696(2) 0.484(1) 0.3441(2)
C1 C 0.6006(2) 1.025(1) 0.3184(3)
C2 C 0.6232(2) 0.981(1) 0.2689(2)
C3 C 0.6612(2) 0.785(1) 0.2696(2)
C4 C 0.6754(2) 0.638(1) 0.3177(2)
C5 C 0.6525(2) 0.694(1) 0.3660(2)
C6 C 0.4096(2) 1.535(1) 0.4996(2)
C7 C 0.3605(2) 1.673(1) 0.4890(2)
C8 C 0.3197(2) 1.594(1) 0.4450(2)
C9 C 0.3270(2) 1.385(1) 0.4125(2)
C10 C 0.3766(2) 1.256(1) 0.4239(2)
H1 H 0.578(2) 1.15(1) 0.319(2)
H2 H 0.611(2) 1.07(1) 0.230(2)
H3 H 0.702(2) 0.51(1) 0.317(2)
H4 H 0.661(2) 0.613(9) 0.402(2)
H5 H 0.438(2) 1.58(1) 0.530(2)
H6 H 0.356(2) 1.811(9) 0.509(2)
H7 H 0.298(2) 1.338(9) 0.381(2)
H8 H 0.385(2) 1.12(1) 0.405(2)
O4D O 0.5359(1) 0.7986(8) 0.5206(2)
Ag1D Ag 0.50046(2) 1.0622(1) 0.58555(2)
N3D N 0.5830(2) 0.6705(9) 0.5326(2)
O1D O 0.4023(2) 1.055(1) 0.5853(2)
O7D O 0.5630(2) 1.336(1) 0.6517(3)
O8D O 0.4841(2) 1.493(1) 0.6312(3)
C6D C 0.5904(2) 0.465(1) 0.5004(2)
C10D C 0.6234(2) 0.744(1) 0.5761(2)
N1D N 0.3837(2) 1.111(1) 0.6335(2)
N5D N 0.5304(2) 1.516(1) 0.6559(2)
C7D C 0.6395(2) 0.327(1) 0.5110(2)
H5D H 0.562(2) 0.42(1) 0.470(2)
C9D C 0.6730(2) 0.615(1) 0.5875(2)
H8D H 0.615(2) 0.88(1) 0.595(2)
C1D C 0.3994(2) 0.975(1) 0.6816(3)
C5D C 0.3475(2) 1.306(1) 0.6340(2)
O9D O 0.5439(3) 1.715(1) 0.6784(3)
C8D C 0.6803(2) 0.406(1) 0.5550(2)
H6D H 0.644(2) 0.189(9) 0.491(2)
H7D H 0.702(2) 0.662(9) 0.619(2)
C2D C 0.3768(2) 1.019(1) 0.7311(2)
H1D H 0.422(2) 0.85(1) 0.681(2)
C4D C 0.3246(2) 1.362(1) 0.6823(2)
H4D H 0.339(2) 1.387(9) 0.598(2)
N4D N 0.7331(2) 0.2633(9) 0.5671(2)
C3D C 0.3388(2) 1.215(1) 0.7304(2)
H2D H 0.389(2) 0.93(1) 0.770(2)
H3D H 0.298(2) 1.49(1) 0.683(2)
O5D O 0.7715(2) 0.3552(9) 0.6001(2)
O6D O 0.7353(2) 0.0573(8) 0.5435(2)
N2D N 0.3122(2) 1.264(1) 0.7814(2)
O2D O 0.3179(2) 1.1080(9) 0.8204(2)
O3D O 0.2850(2) 1.459(1) 0.7821(2)
loop_
_geom_bond_atom_site_label_1
_geom_bond_atom_site_label_2
_geom_bond_site_symmetry_1
_geom_bond_site_symmetry_2
Ag1 O1 1_555 1_555
O1 N1 1_555 1_555
O2 N2 1_555 1_555
O3 N2 1_555 1_555
O4 Ag1 1_555 1_555
O5 N4 1_555 1_555
O6 N4 1_555 1_555
O7 Ag1 1_555 1_555
O8 Ag1 1_555 1_555
O9 N5 1_555 1_555
N1 C1 1_555 1_555
N2 C3 1_555 1_555
N3 O4 1_555 1_555
N4 C8 1_555 1_555
N5 O7 1_555 1_555
C1 C2 1_555 1_555
C2 C3 1_555 1_555
C3 C4 1_555 1_555
C4 C5 1_555 1_555
C5 N1 1_555 1_555
C6 N3 1_555 1_555
C7 C6 1_555 1_555
C8 C7 1_555 1_555
C9 C8 1_555 1_555
C10 N3 1_555 1_555
H1 C1 1_555 1_555
H2 C2 1_555 1_555
H3 C4 1_555 1_555
H4 C5 1_555 1_555
H5 C6 1_555 1_555
H6 C7 1_555 1_555
H7 C9 1_555 1_555
H8 C10 1_555 1_555
O4D Ag1 1_555 1_555
Ag1D O4 1_555 1_555
N3D O4D 1_555 1_555
O1D Ag1D 1_555 1_555
O7D Ag1D 1_555 1_555
O8D Ag1D 1_555 1_555
C6D N3D 1_555 1_555
C10D N3D 1_555 1_555
N1D O1D 1_555 1_555
N5D O7D 1_555 1_555
C7D C6D 1_555 1_555
H5D C6D 1_555 1_555
C9D C10D 1_555 1_555
H8D C10D 1_555 1_555
C1D N1D 1_555 1_555
C5D N1D 1_555 1_555
O9D N5D 1_555 1_555
C8D C7D 1_555 1_555
H6D C7D 1_555 1_555
H7D C9D 1_555 1_555
C2D C1D 1_555 1_555
H1D C1D 1_555 1_555
C4D C5D 1_555 1_555
H4D C5D 1_555 1_555
N4D C8D 1_555 1_555
C3D C2D 1_555 1_555
H2D C2D 1_555 1_555
H3D C4D 1_555 1_555
O5D N4D 1_555 1_555
O6D N4D 1_555 1_555
N2D C3D 1_555 1_555
O2D N2D 1_555 1_555
O3D N2D 1_555 1_555
O8 N5 1_555 1_555
C9 C10 1_555 1_555
O4D Ag1D 1_555 1_555
O8D N5D 1_555 1_555
C9D C8D 1_555 1_555
C4D C3D 1_555 1_555

#END
