
#######################################################################
#
#                 Cambridge Crystallographic Data Centre
#                                CCDC 
#
#######################################################################
#
# If this CIF has been generated from an entry in the Cambridge 
# Structural Database, then it will include bibliographic, chemical, 
# crystal, experimental, refinement or atomic coordinate data resulting 
# from the CCDC's data processing and validation procedures.
#
#######################################################################

data_KEKXEF
_symmetry_cell_setting           monoclinic
_symmetry_space_group_name_H-M   'P 21/n'
_symmetry_Int_Tables_number      14
_space_group_name_Hall           '-P 2yn'
loop_
_symmetry_equiv_pos_site_id
_symmetry_equiv_pos_as_xyz
1 x,y,z
2 1/2-x,1/2+y,1/2-z
3 -x,-y,-z
4 1/2+x,1/2-y,1/2+z
_cell_length_a                   9.2672(18)
_cell_length_b                   11.9147(13)
_cell_length_c                   9.5336(19)
_cell_angle_alpha                90
_cell_angle_beta                 111.58(2)
_cell_angle_gamma                90
_cell_volume                     978.875
loop_
_atom_site_label
_atom_site_type_symbol
_atom_site_fract_x
_atom_site_fract_y
_atom_site_fract_z
K1 K 0.33220(3) 1.17307(3) 0.11102(3)
Na1 Na -0.02413(6) 1.01428(5) -0.18525(6)
O1 O 0.57962(10) 1.00661(8) 0.20801(11)
O2 O -0.07255(12) 0.89110(10) -0.39353(13)
O3 O 0.23056(10) 0.96329(8) -0.05920(11)
O4 O -0.01025(10) 0.85461(8) -0.03032(11)
O5 O 0.56524(11) 1.34382(9) 0.19064(12)
O6 O 0.60658(10) 0.82535(9) 0.16277(11)
O7 O 0.13349(10) 0.70458(8) 0.07156(12)
O8 O 0.15846(12) 1.37858(10) -0.01519(12)
O9 O 0.30158(10) 0.96413(8) 0.24336(11)
C1 C 0.11490(14) 0.80261(11) 0.01747(14)
C2 C 0.26379(13) 0.85964(11) 0.01836(14)
C3 C 0.53359(14) 0.90659(12) 0.18756(14)
C4 C 0.37045(13) 0.87903(11) 0.18367(14)
H1 H 0.3282(18) 0.9487(16) 0.3324(19)
H2 H 0.0714(19) 1.3516(15) -0.036(2)
H3 H 0.5548(19) 1.3726(14) 0.1036(19)
H4 H 0.3790(14) 0.8115(11) 0.2407(15)
H5 H 0.1454(19) 1.4221(16) -0.0890(19)
H6 H 0.2854(18) 0.9725(15) -0.1019(19)
H7 H 0.6531(19) 1.3365(16) 0.240(2)
H8 H 0.3173(16) 0.8066(12) -0.0218(16)
H9 H -0.1642(19) 0.8699(16) -0.4158(19)
H10 H -0.004(2) 0.8522(15) -0.368(2)
K1B K -0.33220(3) 0.82693(3) -0.11102(3)
K1B_2 K 0.66780(3) 0.82693(3) -0.11102(3)
K1A K 0.16780(3) 0.67307(3) 0.38898(3)
Na1B Na 0.02413(6) 0.98572(5) 0.18525(6)
Na1C Na 0.47587(6) 1.48572(5) 0.31475(6)
O4B O 0.01025(10) 1.14539(8) 0.03032(11)
O5C O 0.06524(11) 1.15618(9) -0.30936(12)
O6B O 0.39342(10) 1.17465(9) -0.16277(11)
O7A O 0.36651(10) 1.20458(8) 0.42844(12)
O9B O -0.30158(10) 1.03587(8) -0.24336(11)
H1B H -0.3282(18) 1.0513(16) -0.3324(19)
H3C H 0.0548(19) 1.1274(14) -0.3964(19)
H7C H 0.1531(19) 1.1635(16) -0.260(2)
loop_
_geom_bond_atom_site_label_1
_geom_bond_atom_site_label_2
_geom_bond_site_symmetry_1
_geom_bond_site_symmetry_2
K1 O1 1_555 1_555
Na1 O2 1_555 1_555
O1 C3 1_555 1_555
O2 H9 1_555 1_555
O3 K1 1_555 1_555
O4 Na1 1_555 1_555
O5 K1 1_555 1_555
O6 C3 1_555 1_555
O7 C1 1_555 1_555
O8 K1 1_555 1_555
O9 K1 1_555 1_555
C1 O4 1_555 1_555
C2 O3 1_555 1_555
C3 C4 1_555 1_555
C4 O9 1_555 1_555
H1 O9 1_555 1_555
H2 O8 1_555 1_555
H3 O5 1_555 1_555
H4 C4 1_555 1_555
H5 O8 1_555 1_555
H6 O3 1_555 1_555
H7 O5 1_555 1_555
H8 C2 1_555 1_555
H10 O2 1_555 1_555
K1B O4 1_555 1_555
K1B_2 O6 1_555 1_555
K1A O7 1_555 1_555
Na1B O4 1_555 1_555
Na1C O5 1_555 1_555
O4B K1 1_555 1_555
O5C Na1 1_555 1_555
O6B K1 1_555 1_555
O7A K1 1_555 1_555
O9B Na1 1_555 1_555
H1B O9B 1_555 1_555
H3C O5C 1_555 1_555
H7C O5C 1_555 1_555
Na1 O3 1_555 1_555
Na1 O4B 1_555 1_555
O9 Na1B 1_555 1_555
C1 C2 1_555 1_555
C2 C4 1_555 1_555
K1B O9B 1_555 1_555
Na1B O4B 1_555 1_555

#END
