
#######################################################################
#
#                 Cambridge Crystallographic Data Centre
#                                CCDC 
#
#######################################################################
#
# If this CIF has been generated from an entry in the Cambridge 
# Structural Database, then it will include bibliographic, chemical, 
# crystal, experimental, refinement or atomic coordinate data resulting 
# from the CCDC's data processing and validation procedures.
#
#######################################################################

data_KEKXAB
_symmetry_cell_setting           monoclinic
_symmetry_space_group_name_H-M   'P 21'
_symmetry_Int_Tables_number      4
_space_group_name_Hall           'P 2yb'
loop_
_symmetry_equiv_pos_site_id
_symmetry_equiv_pos_as_xyz
1 x,y,z
2 -x,1/2+y,-z
_cell_length_a                   8.0810(5)
_cell_length_b                   9.6711(5)
_cell_length_c                   10.9080(7)
_cell_angle_alpha                90
_cell_angle_beta                 107.775(2)
_cell_angle_gamma                90
_cell_volume                     811.788
loop_
_atom_site_label
_atom_site_type_symbol
_atom_site_fract_x
_atom_site_fract_y
_atom_site_fract_z
Zn1 Zn 0.85046(2) 0.88523(2) 0.474997(18)
Cl1 Cl 0.78777(6) 0.98289(5) 0.64232(5)
O1 O 1.09520(17) 0.96277(14) 0.49608(14)
O2 O 1.03660(16) 1.18853(14) 0.48509(14)
O3 O 1.2382(2) 1.62686(14) 0.72631(15)
H1 H 1.158(3) 1.644(2) 0.660(2)
N1 N 1.36868(19) 1.25806(16) 0.61705(15)
H2 H 1.4605 1.2904 0.5937
N2 N 1.2656(2) 1.48878(17) 0.69909(16)
C1 C 1.1403(2) 1.0878(2) 0.51371(18)
C2 C 1.4123(2) 1.2751(2) 0.75998(19)
C3 C 1.3882(2) 1.4276(2) 0.78351(18)
C4 C 1.5150(3) 1.4929(2) 0.8995(2)
H3 H 1.521(3) 1.445(2) 0.977(2)
H4 H 1.482(3) 1.594(3) 0.921(2)
C5 C 1.6899(3) 1.4852(2) 0.8724(2)
H5 H 1.719(3) 1.560(3) 0.829(3)
C6 C 1.7338(3) 1.3423(2) 0.8325(2)
H6 H 1.779(3) 1.348(2) 0.762(2)
C7 C 1.6012(3) 1.2310(2) 0.8323(2)
H7 H 1.599(3) 1.211(3) 0.917(2)
H8 H 1.631(3) 1.154(3) 0.799(2)
C8 C 1.8456(2) 1.4070(2) 0.95713(19)
C9 C 2.0208(3) 1.4618(3) 0.9555(3)
H9 H 2.057(3) 1.539(3) 1.017(3)
H10 H 2.102(4) 1.388(4) 0.977(3)
H11 H 2.009(4) 1.496(3) 0.866(3)
C10 C 1.8490(3) 1.3505(2) 1.0861(2)
H12 H 1.738(4) 1.322(3) 1.102(3)
H13 H 1.902(3) 1.415(3) 1.151(2)
H14 H 1.922(3) 1.274(3) 1.108(2)
C11 C 1.2840(3) 1.1921(2) 0.8097(2)
H15 H 1.287(3) 1.217(3) 0.896(3)
H16 H 1.310(3) 1.096(3) 0.807(2)
H17 H 1.158(3) 1.218(3) 0.756(3)
C12 C 1.3338(3) 1.1158(2) 0.5678(2)
H18 H 1.380(3) 1.059(3) 0.626(2)
H19 H 1.374(3) 1.100(2) 0.494(2)
Zn1A Zn 1.14954(2) 1.38523(2) 0.525003(18)
O2A O 0.96340(16) 0.68853(14) 0.51491(14)
N1A N 0.63132(19) 0.75806(16) 0.38295(15)
H2A H 0.5395 0.7904 0.4063
N2A N 0.7344(2) 0.98878(17) 0.30091(16)
O4 O 0.5381(3) 0.8386(2) 0.80058(18)
H20 H 0.620(4) 0.864(4) 0.755(3)
H21 H 0.458(4) 0.795(4) 0.727(4)
O5 O 0.3570(2) 0.76771(18) 0.50389(17)
H22 H 0.296(6) 0.697(5) 0.456(4)
H23 H 0.281(4) 0.826(3) 0.506(3)
loop_
_geom_bond_atom_site_label_1
_geom_bond_atom_site_label_2
_geom_bond_site_symmetry_1
_geom_bond_site_symmetry_2
Zn1 Cl1 1_555 1_555
O1 Zn1 1_555 1_555
O2 C1 1_555 1_555
O3 H1 1_555 1_555
N1 H2 1_555 1_555
N2 O3 1_555 1_555
C1 O1 1_555 1_555
C2 N1 1_555 1_555
C3 N2 1_555 1_555
C4 C3 1_555 1_555
H3 C4 1_555 1_555
H4 C4 1_555 1_555
C5 C4 1_555 1_555
H5 C5 1_555 1_555
C6 C5 1_555 1_555
H6 C6 1_555 1_555
C7 C2 1_555 1_555
H7 C7 1_555 1_555
H8 C7 1_555 1_555
C8 C5 1_555 1_555
C9 C8 1_555 1_555
H9 C9 1_555 1_555
H10 C9 1_555 1_555
H11 C9 1_555 1_555
C10 C8 1_555 1_555
H12 C10 1_555 1_555
H13 C10 1_555 1_555
H14 C10 1_555 1_555
C11 C2 1_555 1_555
H15 C11 1_555 1_555
H16 C11 1_555 1_555
H17 C11 1_555 1_555
C12 N1 1_555 1_555
H18 C12 1_555 1_555
H19 C12 1_555 1_555
O4 H20 1_555 1_555
H21 O4 1_555 1_555
O5 H22 1_555 1_555
H23 O5 1_555 1_555
Zn1A O2 1_555 1_555
O2A Zn1 1_555 1_555
N1A Zn1 1_555 1_555
H2A N1A 1_555 1_555
N2A Zn1 1_555 1_555
N1 Zn1A 1_555 1_555
N2 Zn1A 1_555 1_555
C1 C12 1_555 1_555
C2 C3 1_555 1_555
C6 C7 1_555 1_555
C6 C8 1_555 1_555

#END
