
#######################################################################
#
#                 Cambridge Crystallographic Data Centre
#                                CCDC 
#
#######################################################################
#
# If this CIF has been generated from an entry in the Cambridge 
# Structural Database, then it will include bibliographic, chemical, 
# crystal, experimental, refinement or atomic coordinate data resulting 
# from the CCDC's data processing and validation procedures.
#
#######################################################################

data_KEKZIL
_symmetry_cell_setting           orthorhombic
_symmetry_space_group_name_H-M   'P c a 21'
_symmetry_Int_Tables_number      29
_space_group_name_Hall           'P 2c -2ac'
loop_
_symmetry_equiv_pos_site_id
_symmetry_equiv_pos_as_xyz
1 x,y,z
2 -x,-y,1/2+z
3 1/2+x,-y,z
4 1/2-x,y,1/2+z
_cell_length_a                   25.9605(7)
_cell_length_b                   6.7634(2)
_cell_length_c                   6.3398(2)
_cell_angle_alpha                90
_cell_angle_beta                 90
_cell_angle_gamma                90
_cell_volume                     1113.15
loop_
_atom_site_label
_atom_site_type_symbol
_atom_site_fract_x
_atom_site_fract_y
_atom_site_fract_z
U1 U -0.393563(3) 1.414739(13) -1.18284(6)
O1 O -0.40219(9) 1.1724(4) -1.2819(4)
O2 O -0.38460(9) 1.6591(4) -1.0875(4)
O3 O -0.45377(10) 1.3270(4) -0.9208(4)
O4 O -0.52373(10) 1.4855(4) -0.8120(4)
O5 O -0.34806(9) 1.3121(4) -0.8727(4)
O6 O -0.30138(10) 1.1588(4) -0.6294(3)
O7 O -0.38482(5) 1.5331(2) -1.5441(4)
H1 H -0.35259(7) 1.5092(15) -1.550(3)
H2 H -0.3923(4) 1.6400(5) -1.6077(11)
O8 O -0.30618(9) 1.3825(4) -1.2932(4)
H3 H -0.2833(16) 1.463(4) -1.289(6)
H4 H -0.3019(16) 1.311(4) -1.401(4)
N1 N -0.43792(12) 0.8866(4) -0.6618(7)
N2 N -0.26391(14) 0.6964(5) -0.8098(5)
C1 C -0.46610(12) 1.0165(5) -0.6588(6)
C2 C -0.50408(11) 1.1767(4) -0.6521(5)
H5 H -0.5050 1.2325 -0.5078
H6 H -0.5386 1.1214 -0.6828
C3 C -0.49285(12) 1.3423(5) -0.8080(5)
C4 C -0.28398(14) 0.8325(6) -0.8745(5)
C5 C -0.31011(14) 1.0043(5) -0.9668(5)
H7 H -0.3434 0.9610 -1.0274
H8 H -0.2888 1.0571 -1.0833
C6 C -0.32007(12) 1.1694(5) -0.8071(5)
U1A U -0.606437(3) 1.585261(13) -0.68284(6)
O4A O -0.47627(10) 1.5145(4) -1.3120(4)
loop_
_geom_bond_atom_site_label_1
_geom_bond_atom_site_label_2
_geom_bond_site_symmetry_1
_geom_bond_site_symmetry_2
U1 O1 1_555 1_555
O2 U1 1_555 1_555
O3 U1 1_555 1_555
O4 C3 1_555 1_555
O5 U1 1_555 1_555
O6 C6 1_555 1_555
O7 U1 1_555 1_555
H1 O7 1_555 1_555
H2 O7 1_555 1_555
O8 U1 1_555 1_555
H3 O8 1_555 1_555
H4 O8 1_555 1_555
N1 C1 1_555 1_555
N2 C4 1_555 1_555
C1 C2 1_555 1_555
C2 H5 1_555 1_555
H6 C2 1_555 1_555
C3 O3 1_555 1_555
C4 C5 1_555 1_555
C5 H7 1_555 1_555
H8 C5 1_555 1_555
C6 O5 1_555 1_555
U1A O4 1_555 1_555
O4A U1 1_555 1_555
C2 C3 1_555 1_555
C5 C6 1_555 1_555

#END
