
#######################################################################
#
#                 Cambridge Crystallographic Data Centre
#                                CCDC 
#
#######################################################################
#
# If this CIF has been generated from an entry in the Cambridge 
# Structural Database, then it will include bibliographic, chemical, 
# crystal, experimental, refinement or atomic coordinate data resulting 
# from the CCDC's data processing and validation procedures.
#
#######################################################################

data_KELBUA01
_symmetry_cell_setting           monoclinic
_symmetry_space_group_name_H-M   'P 21'
_symmetry_Int_Tables_number      4
_space_group_name_Hall           'P 2yb'
loop_
_symmetry_equiv_pos_site_id
_symmetry_equiv_pos_as_xyz
1 x,y,z
2 -x,1/2+y,-z
_cell_length_a                   10.3316(7)
_cell_length_b                   16.7552(9)
_cell_length_c                   11.0137(6)
_cell_angle_alpha                90
_cell_angle_beta                 105.758(3)
_cell_angle_gamma                90
_cell_volume                     1834.91
loop_
_atom_site_label
_atom_site_type_symbol
_atom_site_fract_x
_atom_site_fract_y
_atom_site_fract_z
Cu1 Cu 0.35262(7) 0.56635(4) 0.41933(6)
Cu2 Cu 0.17646(8) 0.47049(4) -0.39588(7)
N1 N 0.2206(5) 0.6358(3) 0.3159(5)
N2 N 0.2102(5) 0.6334(3) 0.1857(4)
N3 N 0.3373(5) 0.4159(3) -0.1619(4)
N4 N 0.3138(5) 0.4031(3) -0.2924(4)
N5 N 0.4469(5) 0.5806(3) 0.0217(5)
H1 H 0.488(5) 0.537(3) 0.007(5)
N6 N 0.5146(5) 0.5047(3) 0.5125(5)
N7 N 0.0035(5) 0.5254(3) -0.4848(5)
O1 O 0.3073(4) 0.5978(2) 0.5689(3)
O2 O 0.3851(4) 0.5439(2) 0.2560(4)
O3 O 0.1641(4) 0.5049(2) -0.2305(4)
O4 O 0.2106(4) 0.4323(2) -0.5467(4)
O5 O 0.4512(5) 0.7102(3) 0.0723(5)
C1 C 0.2300(7) 0.6588(4) 0.5820(6)
C2 C 0.2285(7) 0.6823(4) 0.7038(6)
H2 H 0.2858 0.6572 0.7732
C3 C 0.1445(7) 0.7414(4) 0.7230(7)
H3 H 0.1441 0.7549 0.8048
C4 C 0.0596(7) 0.7814(4) 0.6209(7)
H4 H 0.0037 0.8218 0.6350
C5 C 0.0584(7) 0.7615(4) 0.5003(7)
H5 H 0.0003 0.7874 0.4323
C6 C 0.1465(6) 0.7009(4) 0.4790(6)
C7 C 0.1442(6) 0.6857(4) 0.3515(6)
H6 H 0.0827 0.7142 0.2893
C8 C 0.3027(6) 0.5828(4) 0.1694(5)
C9 C 0.3083(6) 0.5710(4) 0.0348(5)
H7 H 0.2492 0.6101 -0.0194
C10 C 0.2597(7) 0.4879(3) -0.0084(5)
H8 H 0.3187 0.4497 0.0458
H9 H 0.1707 0.4810 0.0032
C11 C 0.2533(7) 0.4682(4) -0.1432(5)
C12 C 0.3806(6) 0.3465(4) -0.3271(6)
H10 H 0.4397 0.3167 -0.2649
C13 C 0.3686(6) 0.3272(4) -0.4571(6)
C14 C 0.4475(7) 0.2637(4) -0.4811(7)
H11 H 0.5040 0.2365 -0.4136
C15 C 0.4427(7) 0.2411(4) -0.6014(7)
H12 H 0.4952 0.1990 -0.6158
C16 C 0.3590(7) 0.2816(4) -0.7013(6)
H13 H 0.3549 0.2661 -0.7833
C17 C 0.2821(7) 0.3443(4) -0.6819(6)
H14 H 0.2276 0.3711 -0.7509
C18 C 0.2842(6) 0.3689(4) -0.5579(6)
C19 C 0.5074(7) 0.6530(4) 0.0392(6)
C20 C 0.6431(6) 0.6603(3) 0.0181(5)
C21 C 0.7126(8) 0.7300(4) 0.0571(6)
H15 H 0.6747 0.7692 0.0966
C22 C 0.8379(8) 0.7425(4) 0.0383(7)
H16 H 0.8852 0.7892 0.0667
C23 C 0.8913(8) 0.6860(5) -0.0220(7)
H17 H 0.9748 0.6946 -0.0364
C24 C 0.8237(8) 0.6165(5) -0.0617(8)
H18 H 0.8613 0.5782 -0.1029
C25 C 0.6994(7) 0.6031(4) -0.0408(6)
H19 H 0.6540 0.5555 -0.0666
C26 C 0.5616(7) 0.5050(4) 0.6366(6)
H20 H 0.5212 0.5383 0.6831
C27 C 0.6679(7) 0.4581(5) 0.7000(6)
H21 H 0.6970 0.4593 0.7877
C28 C 0.7310(7) 0.4094(4) 0.6324(7)
H22 H 0.8030 0.3772 0.6734
C29 C 0.6850(7) 0.4098(4) 0.5040(7)
H23 H 0.7261 0.3781 0.4559
C30 C 0.5772(7) 0.4575(4) 0.4464(6)
H24 H 0.5464 0.4572 0.3588
C31 C -0.0430(7) 0.5241(4) -0.6119(6)
H25 H 0.0029 0.4938 -0.6574
C32 C -0.1555(7) 0.5657(5) -0.6770(6)
H26 H -0.1850 0.5631 -0.7645
C33 C -0.2233(8) 0.6109(5) -0.6103(8)
H27 H -0.3003 0.6391 -0.6513
C34 C -0.1746(7) 0.6133(4) -0.4818(7)
H28 H -0.2181 0.6442 -0.4347
C35 C -0.0617(6) 0.5704(5) -0.4213(6)
H29 H -0.0303 0.5730 -0.3338
Cu1_2 Cu 0.35262(7) 0.56635(4) -0.58067(6)
Cu2_2 Cu 0.17646(8) 0.47049(4) 0.60412(7)
O1_2 O 0.3073(4) 0.5978(2) -0.4311(3)
O4_2 O 0.2106(4) 0.4323(2) 0.4533(4)
O6 O 0.0508(7) 0.9174(4) 0.0320(6)
H30 H 0.098(8) 0.874(3) 0.050(3)
C36 C 0.0487(9) 0.9318(5) -0.0928(7)
H31 H 0.0175 0.8850 -0.1423
H32 H 0.1377 0.9447 -0.0974
H33 H -0.0107 0.9756 -0.1248
O7 O 0.5878(6) 0.4176(3) 0.0110(5)
H34 H 0.517(4) 0.417(4) -0.051(5)
C37 C 0.5962(8) 0.3785(4) 0.1240(7)
H35 H 0.5824 0.3223 0.1085
H36 H 0.5284 0.3988 0.1606
H37 H 0.6834 0.3872 0.1811
O8 O 0.2123(6) 0.7908(4) 0.0858(7)
H38 H 0.208(7) 0.750(3) 0.130(7)
H39 H 0.293(3) 0.804(4) 0.093(8)
loop_
_geom_bond_atom_site_label_1
_geom_bond_atom_site_label_2
_geom_bond_site_symmetry_1
_geom_bond_site_symmetry_2
Cu1 N1 1_555 1_555
Cu2 N4 1_555 1_555
N1 N2 1_555 1_555
N2 C8 1_555 1_555
N3 N4 1_555 1_555
N4 C12 1_555 1_555
N5 H1 1_555 1_555
N6 Cu1 1_555 1_555
N7 Cu2 1_555 1_555
O1 Cu1 1_555 1_555
O2 Cu1 1_555 1_555
O3 Cu2 1_555 1_555
O4 Cu2 1_555 1_555
O5 C19 1_555 1_555
C1 O1 1_555 1_555
C2 C1 1_555 1_555
H2 C2 1_555 1_555
C3 C2 1_555 1_555
H3 C3 1_555 1_555
C4 C3 1_555 1_555
H4 C4 1_555 1_555
C5 C4 1_555 1_555
H5 C5 1_555 1_555
C6 C1 1_555 1_555
C7 N1 1_555 1_555
H6 C7 1_555 1_555
C8 O2 1_555 1_555
C9 N5 1_555 1_555
H7 C9 1_555 1_555
C10 C9 1_555 1_555
H8 C10 1_555 1_555
H9 C10 1_555 1_555
C11 N3 1_555 1_555
C12 H10 1_555 1_555
C13 C12 1_555 1_555
C14 C13 1_555 1_555
H11 C14 1_555 1_555
C15 C14 1_555 1_555
H12 C15 1_555 1_555
C16 C15 1_555 1_555
H13 C16 1_555 1_555
C17 C16 1_555 1_555
H14 C17 1_555 1_555
C18 O4 1_555 1_555
C19 N5 1_555 1_555
C20 C19 1_555 1_555
C21 C20 1_555 1_555
H15 C21 1_555 1_555
C22 C21 1_555 1_555
H16 C22 1_555 1_555
C23 C22 1_555 1_555
H17 C23 1_555 1_555
C24 C23 1_555 1_555
H18 C24 1_555 1_555
C25 C20 1_555 1_555
H19 C25 1_555 1_555
C26 N6 1_555 1_555
H20 C26 1_555 1_555
C27 C26 1_555 1_555
H21 C27 1_555 1_555
C28 C27 1_555 1_555
H22 C28 1_555 1_555
C29 C28 1_555 1_555
H23 C29 1_555 1_555
C30 N6 1_555 1_555
H24 C30 1_555 1_555
C31 N7 1_555 1_555
H25 C31 1_555 1_555
C32 C31 1_555 1_555
H26 C32 1_555 1_555
C33 C32 1_555 1_555
H27 C33 1_555 1_555
C34 C33 1_555 1_555
H28 C34 1_555 1_555
C35 N7 1_555 1_555
H29 C35 1_555 1_555
O6 H30 1_555 1_555
C36 O6 1_555 1_555
H31 C36 1_555 1_555
H32 C36 1_555 1_555
H33 C36 1_555 1_555
O7 H34 1_555 1_555
C37 O7 1_555 1_555
H35 C37 1_555 1_555
H36 C37 1_555 1_555
H37 C37 1_555 1_555
O8 H38 1_555 1_555
H39 O8 1_555 1_555
Cu1_2 O4 1_555 1_555
Cu2_2 O1 1_555 1_555
O1_2 Cu2 1_555 1_555
O4_2 Cu1 1_555 1_555
O3 C11 1_555 1_555
C5 C6 1_555 1_555
C6 C7 1_555 1_555
C8 C9 1_555 1_555
C10 C11 1_555 1_555
C13 C18 1_555 1_555
C17 C18 1_555 1_555
C24 C25 1_555 1_555
C29 C30 1_555 1_555
C34 C35 1_555 1_555
Cu1_2 O1_2 1_555 1_555
Cu2_2 O4_2 1_555 1_555

#END
