
#######################################################################
#
#                 Cambridge Crystallographic Data Centre
#                                CCDC 
#
#######################################################################
#
# If this CIF has been generated from an entry in the Cambridge 
# Structural Database, then it will include bibliographic, chemical, 
# crystal, experimental, refinement or atomic coordinate data resulting 
# from the CCDC's data processing and validation procedures.
#
#######################################################################

data_KELCIN02
_symmetry_cell_setting           monoclinic
_symmetry_space_group_name_H-M   'P 21/m'
_symmetry_Int_Tables_number      11
_space_group_name_Hall           '-P 2yb'
loop_
_symmetry_equiv_pos_site_id
_symmetry_equiv_pos_as_xyz
1 x,y,z
2 -x,1/2+y,-z
3 -x,-y,-z
4 x,1/2-y,z
_cell_length_a                   9.0553(11)
_cell_length_b                   7.40105(62)
_cell_length_c                   5.59697(42)
_cell_angle_alpha                90
_cell_angle_beta                 99.4756(72)
_cell_angle_gamma                90
_cell_volume                     369.984
loop_
_atom_site_label
_atom_site_type_symbol
_atom_site_fract_x
_atom_site_fract_y
_atom_site_fract_z
Cu1 Cu 0.0000 0.0000 0.0000
N1 N -0.1916(18) -0.1582(13) -0.0496(23)
C1 C -0.3350(18) -0.1025(19) -0.1145(32)
C2 C -0.4235(29) -0.2500 -0.1324(42)
N2 N 0.1038(19) -0.1582(12) -0.2091(16)
C3 C 0.1629(25) -0.1026(17) -0.4035(28)
C4 C 0.2084(29) -0.2500 -0.5128(36)
Cu1C Cu 0.0000 -0.5000 0.0000
N1B N 0.1916(18) 0.1582(13) 0.0496(23)
N1C N -0.1916(18) -0.3418(13) -0.0496(23)
C1C C -0.3350(18) -0.3975(19) -0.1145(32)
N2B N -0.1038(19) 0.1582(12) 0.2091(16)
N2C N 0.1038(19) -0.3418(12) -0.2091(16)
C3C C 0.1629(25) -0.3974(17) -0.4035(28)
loop_
_geom_bond_atom_site_label_1
_geom_bond_atom_site_label_2
_geom_bond_site_symmetry_1
_geom_bond_site_symmetry_2
Cu1 N1 1_555 1_555
N1 C1 1_555 1_555
C1 C2 1_555 1_555
C2 C1C 1_555 1_555
N2 Cu1 1_555 1_555
C3 N2 1_555 1_555
C4 C3 1_555 1_555
Cu1C N1C 1_555 1_555
N1B Cu1 1_555 1_555
N1C N1 1_555 1_555
C1C N1C 1_555 1_555
N2B Cu1 1_555 1_555
N2C N2 1_555 1_555
C3C C4 1_555 1_555
Cu1C N2C 1_555 1_555
N2C C3C 1_555 1_555

#END
