
#######################################################################
#
#                 Cambridge Crystallographic Data Centre
#                                CCDC 
#
#######################################################################
#
# If this CIF has been generated from an entry in the Cambridge 
# Structural Database, then it will include bibliographic, chemical, 
# crystal, experimental, refinement or atomic coordinate data resulting 
# from the CCDC's data processing and validation procedures.
#
#######################################################################

data_KELGOZ
_symmetry_cell_setting           monoclinic
_symmetry_space_group_name_H-M   'P 21/c'
_symmetry_Int_Tables_number      14
_space_group_name_Hall           '-P 2ybc'
loop_
_symmetry_equiv_pos_site_id
_symmetry_equiv_pos_as_xyz
1 x,y,z
2 -x,1/2+y,1/2-z
3 -x,-y,-z
4 x,1/2-y,1/2+z
_cell_length_a                   7.234(1)
_cell_length_b                   15.451(1)
_cell_length_c                   8.036(1)
_cell_angle_alpha                90
_cell_angle_beta                 92.56(1)
_cell_angle_gamma                90
_cell_volume                     897.308
loop_
_atom_site_label
_atom_site_type_symbol
_atom_site_fract_x
_atom_site_fract_y
_atom_site_fract_z
Re1 Re 0.54698(4) 0.631172(16) 0.11410(3)
Ag1 Ag 0.55780(6) 0.40375(4) 0.37470(7)
N1 N 0.8654(7) 0.4012(4) 0.3864(7)
N2 N 1.2477(7) 0.4022(4) 0.3692(7)
O1 O 0.5160(9) 0.5715(4) 0.2917(7)
O2 O 0.7738(9) 0.6252(4) 0.0627(9)
O3 O 0.4034(10) 0.5920(5) -0.0452(8)
O4 O 0.4930(9) 0.7362(3) 0.1550(9)
C1 C 0.9706(8) 0.3474(4) 0.4806(8)
C2 C 0.9528(8) 0.4554(4) 0.2849(8)
H1 H 0.8832 0.4941 0.2194
C3 C 1.1430(9) 0.4550(4) 0.2753(9)
H2 H 1.1985 0.4924 0.2018
C4 C 1.1632(8) 0.3490(4) 0.4675(8)
H3 H 1.2344 0.3103 0.5317
C5 C 0.8834(11) 0.2880(6) 0.5986(12)
H4 H 0.7516 0.2956 0.5911
H5 H 0.9291 0.3005 0.7100
H6 H 0.9131 0.2293 0.5712
Ag1_2 Ag 1.55780(6) 0.40375(4) 0.37470(7)
Ag1B Ag 0.44220(6) 0.59625(4) -0.37470(7)
Ag1A Ag 0.44220(6) 0.90375(4) 0.12530(7)
N2_2 N 0.2477(7) 0.4022(4) 0.3692(7)
O3B O 0.5966(10) 0.4080(5) 0.0452(8)
O4A O 0.5070(9) 0.2362(3) 0.3450(9)
loop_
_geom_bond_atom_site_label_1
_geom_bond_atom_site_label_2
_geom_bond_site_symmetry_1
_geom_bond_site_symmetry_2
Re1 O1 1_555 1_555
Ag1 N1 1_555 1_555
N1 C1 1_555 1_555
N2 C3 1_555 1_555
O1 Ag1 1_555 1_555
O2 Re1 1_555 1_555
O3 Re1 1_555 1_555
O4 Re1 1_555 1_555
C1 C4 1_555 1_555
C2 N1 1_555 1_555
H1 C2 1_555 1_555
C3 C2 1_555 1_555
H2 C3 1_555 1_555
C4 N2 1_555 1_555
H3 C4 1_555 1_555
C5 C1 1_555 1_555
H4 C5 1_555 1_555
H5 C5 1_555 1_555
H6 C5 1_555 1_555
Ag1_2 N2 1_555 1_555
Ag1B O3 1_555 1_555
Ag1A O4 1_555 1_555
N2_2 Ag1 1_555 1_555
O3B Ag1 1_555 1_555
O4A Ag1 1_555 1_555

#END
