
#######################################################################
#
#                 Cambridge Crystallographic Data Centre
#                                CCDC 
#
#######################################################################
#
# If this CIF has been generated from an entry in the Cambridge 
# Structural Database, then it will include bibliographic, chemical, 
# crystal, experimental, refinement or atomic coordinate data resulting 
# from the CCDC's data processing and validation procedures.
#
#######################################################################

data_KELJUI
_symmetry_cell_setting           monoclinic
_symmetry_space_group_name_H-M   'C 2/m'
_symmetry_Int_Tables_number      12
_space_group_name_Hall           '-C 2y'
loop_
_symmetry_equiv_pos_site_id
_symmetry_equiv_pos_as_xyz
1 x,y,z
2 -x,y,-z
3 1/2+x,1/2+y,z
4 1/2-x,1/2+y,-z
5 -x,-y,-z
6 x,-y,z
7 1/2-x,1/2-y,-z
8 1/2+x,1/2-y,z
_cell_length_a                   16.228(11)
_cell_length_b                   10.705(8)
_cell_length_c                   14.453(10)
_cell_angle_alpha                90
_cell_angle_beta                 121.374(7)
_cell_angle_gamma                90
_cell_volume                     2143.68
loop_
_atom_site_label
_atom_site_type_symbol
_atom_site_fract_x
_atom_site_fract_y
_atom_site_fract_z
Zn1 Zn 0.60597(5) 0.5000 0.54753(6)
C1 C 0.6301(3) 0.8859(5) 0.9675(4)
C2 C 0.6404(5) 1.0000 0.8284(5)
C3 C 0.6325(4) 0.7730(6) 0.8198(4)
C4 C 0.5279(4) 0.7492(6) 0.7299(4)
H1 H 0.4934 0.7137 0.7619
H2 H 0.4978 0.8286 0.6976
C5 C 0.5170(4) 0.6629(5) 0.6415(4)
C6 C 0.6092(5) 1.0000 1.1019(5)
C7 C 0.7018(5) 1.0000 1.2105(5)
C8 C 0.6810(4) 1.0000 1.3016(5)
N1 N 0.6395(3) 0.8901(4) 0.8778(3)
N2 N 0.6274(4) 1.0000 1.0105(4)
O1 O 0.6243(3) 0.7875(4) 1.0063(3)
O2 O 0.6446(4) 1.0000 0.7467(4)
O3 O 0.5914(2) 0.6318(4) 0.6409(3)
O4 O 0.4322(3) 0.6295(4) 0.5726(3)
O5 O 0.7553(3) 1.0000 1.3998(3)
O6 O 0.5981(3) 1.0000 1.2825(4)
H10 H 0.574(3) 0.927(4) 1.097(3)
H11 H 0.653(4) 0.719(6) 0.870(5)
H12 H 0.742(3) 0.920(4) 1.219(3)
H13 H 0.684(5) 0.775(6) 0.797(5)
Zn1A Zn 0.39403(5) 0.5000 0.45247(6)
Zn1C Zn 0.89403(5) 1.0000 1.45247(6)
Zn1_2 Zn 0.60597(5) 1.5000 0.54753(6)
Zn1A_2 Zn 0.39403(5) 1.5000 0.45247(6)
C1E C 0.6301(3) 1.1141(5) 0.9675(4)
C3E C 0.6325(4) 1.2270(6) 0.8198(4)
C4E C 0.5279(4) 1.2508(6) 0.7299(4)
H1E H 0.4934 1.2863 0.7619
H2E H 0.4978 1.1714 0.6976
C5E C 0.5170(4) 1.3371(5) 0.6415(4)
N1E N 0.6395(3) 1.1099(4) 0.8778(3)
O1E O 0.6243(3) 1.2125(4) 1.0063(3)
O3E O 0.5914(2) 1.3682(4) 0.6409(3)
O3E_2 O 0.5914(2) 0.3682(4) 0.6409(3)
O4E O 0.4322(3) 1.3705(4) 0.5726(3)
O4A O 0.5678(3) 0.6295(4) 0.4274(3)
O4D O 0.5678(3) 0.3705(4) 0.4274(3)
O5C O 0.7447(3) 0.5000 0.6002(3)
H10E H 0.574(3) 1.073(4) 1.097(3)
H11E H 0.653(4) 1.281(6) 0.870(5)
H12E H 0.742(3) 1.080(4) 1.219(3)
H13E H 0.684(5) 1.225(6) 0.797(5)
C9 C 0.7075(14) 0.8798(15) 1.5768(11)
H3 H 0.7533 0.8267 1.5729
H4 H 0.6441 0.8645 1.5153
H5 H 0.7079 0.8622 1.6421
N3 N 0.7315(12) 1.0000 1.5768(12)
H14 H 0.7845 1.0000 1.5770
C9E C 0.7075(14) 1.1202(15) 1.5768(11)
H3E H 0.7533 1.1733 1.5729
H4E H 0.6441 1.1355 1.5153
H5E H 0.7079 1.1378 1.6421
O7 O 0.614(4) 0.5000 1.204(4)
H6? H 0.5962 0.4696 1.2452
H7? H 0.6130 0.4548 1.1550
O8? O 0.492(6) 0.5000 1.038(3)
H8? H 0.4333 0.4754 1.0034
H9? H 0.5280 0.4829 1.1046
loop_
_geom_bond_atom_site_label_1
_geom_bond_atom_site_label_2
_geom_bond_site_symmetry_1
_geom_bond_site_symmetry_2
Zn1 O3 1_555 1_555
C1 N1 1_555 1_555
C2 N1 1_555 1_555
C3 C4 1_555 1_555
C4 H1 1_555 1_555
H2 C4 1_555 1_555
C5 C4 1_555 1_555
C6 C7 1_555 1_555
C7 C8 1_555 1_555
C8 O5 1_555 1_555
N1 C3 1_555 1_555
N2 C1 1_555 1_555
O1 C1 1_555 1_555
O2 C2 1_555 1_555
O3 C5 1_555 1_555
O4 C5 1_555 1_555
O5 Zn1C 1_555 1_555
O6 C8 1_555 1_555
C9 H3 1_555 1_555
H4 C9 1_555 1_555
H5 C9 1_555 1_555
H10 C6 1_555 1_555
H11 C3 1_555 1_555
H12 C7 1_555 1_555
H13 C3 1_555 1_555
N3 C9 1_555 1_555
H14 N3 1_555 1_555
Zn1A O4 1_555 1_555
Zn1_2 O3E 1_555 1_555
Zn1A_2 O4E 1_555 1_555
C1E N2 1_555 1_555
C3E C4E 1_555 1_555
C4E H1E 1_555 1_555
H2E C4E 1_555 1_555
C5E C4E 1_555 1_555
N1E C2 1_555 1_555
O1E C1E 1_555 1_555
O3E C5E 1_555 1_555
O3E_2 Zn1 1_555 1_555
O4E C5E 1_555 1_555
O4A Zn1 1_555 1_555
O4D Zn1 1_555 1_555
O5C Zn1 1_555 1_555
C9E N3 1_555 1_555
H3E C9E 1_555 1_555
H4E C9E 1_555 1_555
H5E C9E 1_555 1_555
H10E C6 1_555 1_555
H11E C3E 1_555 1_555
H12E C7 1_555 1_555
H13E C3E 1_555 1_555
C6 N2 1_555 1_555
C1E N1E 1_555 1_555
C3E N1E 1_555 1_555

#END
