
#######################################################################
#
#                 Cambridge Crystallographic Data Centre
#                                CCDC 
#
#######################################################################
#
# If this CIF has been generated from an entry in the Cambridge 
# Structural Database, then it will include bibliographic, chemical, 
# crystal, experimental, refinement or atomic coordinate data resulting 
# from the CCDC's data processing and validation procedures.
#
#######################################################################

data_KELJES
_symmetry_cell_setting           monoclinic
_symmetry_space_group_name_H-M   'P 21/c'
_symmetry_Int_Tables_number      14
_space_group_name_Hall           '-P 2ybc'
loop_
_symmetry_equiv_pos_site_id
_symmetry_equiv_pos_as_xyz
1 x,y,z
2 -x,1/2+y,1/2-z
3 -x,-y,-z
4 x,1/2-y,1/2+z
_cell_length_a                   11.015(2)
_cell_length_b                   15.791(3)
_cell_length_c                   24.136(7)
_cell_angle_alpha                90
_cell_angle_beta                 96.266(2)
_cell_angle_gamma                90
_cell_volume                     4173.08
loop_
_atom_site_label
_atom_site_type_symbol
_atom_site_fract_x
_atom_site_fract_y
_atom_site_fract_z
Cu1 Cu 0.72209(5) 0.80974(4) 0.99117(3)
C1 C 0.4866(5) 0.8872(4) 1.0061(2)
H1 H 0.5347 0.9339 1.0173
C2 C 0.3618(5) 0.8929(3) 1.0074(2)
H2 H 0.3270 0.9425 1.0191
C3 C 0.2892(4) 0.8239(3) 0.9912(2)
C4 C 0.3462(5) 0.7522(4) 0.9736(2)
H3 H 0.3000 0.7049 0.9619
C5 C 0.4713(5) 0.7506(4) 0.9734(2)
H4 H 0.5082 0.7017 0.9618
C6 C 0.1540(4) 0.8248(4) 0.9919(2)
C7 C 0.0833(5) 0.8935(4) 0.9725(2)
H5 H 0.1189 0.9414 0.9588
C8 C -0.0407(5) 0.8887(3) 0.9740(2)
H6 H -0.0884 0.9343 0.9603
C9 C -0.0286(5) 0.7577(4) 1.0147(2)
H7 H -0.0661 0.7123 1.0306
C10 C 0.0963(5) 0.7563(4) 1.0134(2)
H8 H 0.1415 0.7095 1.0268
C11 C 0.5000(5) 0.7887(4) 1.2363(2)
C12 C 0.4519(5) 0.8582(3) 1.3221(2)
C13 C 0.5276(5) 0.9412(4) 1.2479(2)
C14 C 0.4915(6) 1.0086(4) 1.3362(3)
H9 H 0.5499 1.0490 1.3246
H10 H 0.5185 0.9921 1.3743
C15 C 0.3697(6) 1.0494(4) 1.3342(2)
H11 H 0.3098 1.0066 1.3407
H12 H 0.3480 1.0720 1.2971
C16 C 0.3631(7) 1.1188(4) 1.3754(3)
C17 C 0.4265(5) 0.7056(3) 1.3125(2)
H13 H 0.4482 0.7061 1.3525
H14 H 0.4721 0.6605 1.2969
C18 C 0.2906(6) 0.6884(4) 1.2998(3)
H15 H 0.2458 0.7349 1.3142
H16 H 0.2701 0.6872 1.2597
C19 C 0.2492(5) 0.6067(4) 1.3239(3)
C20 C 0.5672(5) 0.8739(4) 1.1609(2)
H17 H 0.5370 0.9271 1.1447
H18 H 0.5295 0.8283 1.1382
C21 C 0.7066(5) 0.8698(4) 1.1604(2)
H19 H 0.7456 0.9163 1.1817
H20 H 0.7383 0.8170 1.1765
C22 C 0.7313(4) 0.8761(3) 1.0999(2)
C23 C 0.9313(5) 0.9444(4) 0.7412(2)
C24 C 0.9511(5) 0.7901(4) 0.7494(2)
C25 C 1.0139(5) 0.8627(4) 0.6677(2)
C26 C 1.1506(5) 0.6839(4) 0.6760(2)
H21 H 1.1984 0.7306 0.6638
H22 H 1.1788 0.6721 0.7147
C27 C 1.0171(5) 0.7088(3) 0.6710(2)
H23 H 0.9863 0.7117 0.6318
H24 H 0.9716 0.6651 0.6880
C28 C 1.1693(6) 0.6066(4) 0.6411(2)
C29 C 1.0029(6) 1.0160(4) 0.6602(2)
H25 H 0.9462 1.0592 0.6700
H26 H 0.9872 1.0058 0.6204
C30 C 1.1297(6) 1.0476(4) 0.6733(2)
H27 H 1.1860 1.0010 0.6707
H28 H 1.1401 1.0682 0.7113
C31 C 1.1608(6) 1.1169(4) 0.6352(3)
C32 C 0.8799(5) 0.8724(4) 0.8245(2)
H29 H 0.9102 0.9244 0.8425
H30 H 0.9154 0.8252 0.8464
C33 C 0.7409(5) 0.8694(4) 0.8232(2)
H31 H 0.7045 0.9179 0.8031
H32 H 0.7093 0.8183 0.8046
C34 C 0.7097(4) 0.8705(4) 0.8832(2)
N1 N 0.5413(4) 0.8175(3) 0.98948(16)
N2 N -0.0967(4) 0.8220(3) 0.99401(16)
N3 N 0.5319(4) 0.8667(3) 1.21788(18)
N4 N 0.4601(4) 0.7872(3) 1.28896(18)
N5 N 0.4889(4) 0.9339(3) 1.30028(18)
N6 N 0.9952(4) 0.7906(3) 0.69743(18)
N7 N 0.9808(4) 0.9374(3) 0.69035(17)
N8 N 0.9187(4) 0.8685(3) 0.76825(17)
O1 O 0.4431(6) 1.1323(4) 1.4123(2)
H33 H 0.4357 1.1001 1.4384
O2 O 0.2645(4) 1.1655(3) 1.36781(18)
O3 O 0.3118(4) 0.5876(2) 1.37199(16)
H34 H 0.2876 0.5422 1.3832
O4 O 0.1677(4) 0.5643(3) 1.3016(2)
O5 O 0.7358(3) 0.8051(2) 1.07353(13)
O6 O 0.7382(3) 0.9451(2) 1.07721(14)
O7 O 0.5075(5) 0.7252(3) 1.20985(18)
O8 O 0.4134(4) 0.8550(3) 1.36685(16)
O9 O 0.5556(4) 1.0090(3) 1.22951(18)
O10 O 0.7118(3) 0.7994(2) 0.90839(14)
O11 O 0.6895(3) 0.9380(2) 0.90689(15)
O12 O 1.2626(4) 1.1567(3) 0.65110(18)
H35 H 1.2669 1.1994 0.6321
O13 O 1.1018(6) 1.1321(4) 0.5927(2)
O14 O 1.0917(4) 0.5730(3) 0.61020(17)
O15 O 1.2843(4) 0.5804(3) 0.64871(19)
H36 H 1.2911 0.5364 0.6313
O16 O 0.8996(4) 1.0110(3) 0.75858(16)
O17 O 1.0575(4) 0.8604(3) 0.62375(16)
O18 O 0.9417(5) 0.7260(3) 0.77517(18)
O19 O 0.7265(4) 0.6596(3) 0.99089(18)
H37 H 0.7235 0.6328 0.9602
H38 H 0.7313 0.6327 1.0215
Cu1_2 Cu -0.27791(5) 0.80974(4) 0.99117(3)
N2_2 N 0.9033(4) 0.8220(3) 0.99401(16)
O20 O 0.817(4) 1.047(2) 1.4659(15)
H39 H 0.8566 1.0064 1.4527
H40 H 0.8498 1.0752 1.4934
O21 O 0.650(3) 0.4906(13) 1.0094(11)
H41 H 0.6882 0.4832 1.0415
H42 H 0.6595 0.4564 0.9831
loop_
_geom_bond_atom_site_label_1
_geom_bond_atom_site_label_2
_geom_bond_site_symmetry_1
_geom_bond_site_symmetry_2
Cu1 N1 1_555 1_555
C1 H1 1_555 1_555
C2 C1 1_555 1_555
H2 C2 1_555 1_555
C3 C2 1_555 1_555
C4 C3 1_555 1_555
H3 C4 1_555 1_555
C5 C4 1_555 1_555
H4 C5 1_555 1_555
C6 C3 1_555 1_555
C7 C6 1_555 1_555
H5 C7 1_555 1_555
C8 C7 1_555 1_555
H6 C8 1_555 1_555
C9 H7 1_555 1_555
C10 C6 1_555 1_555
H8 C10 1_555 1_555
C11 N3 1_555 1_555
C12 N4 1_555 1_555
C13 N3 1_555 1_555
C14 H9 1_555 1_555
H10 C14 1_555 1_555
C15 C14 1_555 1_555
H11 C15 1_555 1_555
H12 C15 1_555 1_555
C16 C15 1_555 1_555
C17 H13 1_555 1_555
H14 C17 1_555 1_555
C18 C17 1_555 1_555
H15 C18 1_555 1_555
H16 C18 1_555 1_555
C19 C18 1_555 1_555
C20 H17 1_555 1_555
H18 C20 1_555 1_555
C21 C20 1_555 1_555
H19 C21 1_555 1_555
H20 C21 1_555 1_555
C22 C21 1_555 1_555
C23 N7 1_555 1_555
C24 N6 1_555 1_555
C25 N6 1_555 1_555
C26 H21 1_555 1_555
H22 C26 1_555 1_555
C27 C26 1_555 1_555
H23 C27 1_555 1_555
H24 C27 1_555 1_555
C28 C26 1_555 1_555
C29 H25 1_555 1_555
H26 C29 1_555 1_555
C30 C29 1_555 1_555
H27 C30 1_555 1_555
H28 C30 1_555 1_555
C31 C30 1_555 1_555
C32 H29 1_555 1_555
H30 C32 1_555 1_555
C33 C32 1_555 1_555
H31 C33 1_555 1_555
H32 C33 1_555 1_555
C34 C33 1_555 1_555
N1 C1 1_555 1_555
N2 C8 1_555 1_555
N3 C20 1_555 1_555
N4 C11 1_555 1_555
N5 C12 1_555 1_555
N6 C27 1_555 1_555
N7 C25 1_555 1_555
N8 C23 1_555 1_555
O1 C16 1_555 1_555
H33 O1 1_555 1_555
O2 C16 1_555 1_555
O3 C19 1_555 1_555
H34 O3 1_555 1_555
O4 C19 1_555 1_555
O5 Cu1 1_555 1_555
O6 C22 1_555 1_555
O7 C11 1_555 1_555
O8 C12 1_555 1_555
O9 C13 1_555 1_555
O10 Cu1 1_555 1_555
O11 C34 1_555 1_555
O12 C31 1_555 1_555
H35 O12 1_555 1_555
O13 C31 1_555 1_555
O14 C28 1_555 1_555
O15 C28 1_555 1_555
H36 O15 1_555 1_555
O16 C23 1_555 1_555
O17 C25 1_555 1_555
O18 C24 1_555 1_555
O19 Cu1 1_555 1_555
H37 O19 1_555 1_555
H38 O19 1_555 1_555
O20 H39 1_555 1_555
H40 O20 1_555 1_555
O21 H41 1_555 1_555
H42 O21 1_555 1_555
Cu1_2 N2 1_555 1_555
N2_2 Cu1 1_555 1_555
C5 N1 1_555 1_555
C9 C10 1_555 1_555
C9 N2 1_555 1_555
C13 N5 1_555 1_555
C14 N5 1_555 1_555
C17 N4 1_555 1_555
C22 O5 1_555 1_555
C24 N8 1_555 1_555
C29 N7 1_555 1_555
C32 N8 1_555 1_555
C34 O10 1_555 1_555

#END
