
#######################################################################
#
#                 Cambridge Crystallographic Data Centre
#                                CCDC 
#
#######################################################################
#
# If this CIF has been generated from an entry in the Cambridge 
# Structural Database, then it will include bibliographic, chemical, 
# crystal, experimental, refinement or atomic coordinate data resulting 
# from the CCDC's data processing and validation procedures.
#
#######################################################################

data_KELJIW
_symmetry_cell_setting           monoclinic
_symmetry_space_group_name_H-M   'P 21/c'
_symmetry_Int_Tables_number      14
_space_group_name_Hall           '-P 2ybc'
loop_
_symmetry_equiv_pos_site_id
_symmetry_equiv_pos_as_xyz
1 x,y,z
2 -x,1/2+y,1/2-z
3 -x,-y,-z
4 x,1/2-y,1/2+z
_cell_length_a                   12.217(2)
_cell_length_b                   10.038(2)
_cell_length_c                   13.770(2)
_cell_angle_alpha                90
_cell_angle_beta                 105.225(12)
_cell_angle_gamma                90
_cell_volume                     1629.4
loop_
_atom_site_label
_atom_site_type_symbol
_atom_site_fract_x
_atom_site_fract_y
_atom_site_fract_z
Gd1 Gd 0.577995(19) 0.28830(2) 0.059852(19)
C1 C 0.3655(4) 0.3754(6) -0.1182(5)
C2 C 0.3010(4) 0.3210(6) -0.2264(5)
C3 C 0.2743(5) 0.1849(6) -0.2327(6)
H1 H 0.2883 0.1313 -0.1756
C4 C 0.2222(5) 0.1297(8) -0.3356(6)
H2 H 0.2030 0.0398 -0.3404
C5 C 0.1991(5) 0.2071(9) -0.4300(6)
C6 C 0.2210(5) 0.3403(9) -0.4256(5)
H3 H 0.2044 0.3937 -0.4828
C7 C 0.2734(5) 0.3956(7) -0.3227(5)
H4 H 0.2905 0.4861 -0.3189
C8 C 0.0615(5) 0.1677(9) -0.5951(6)
C9 C 0.0386(5) 0.1262(10) -0.7048(6)
H5 H 0.0971 0.0857 -0.7255
C10 C -0.0589(5) 0.1441(9) -0.7723(5)
H6 H -0.0749 0.1215 -0.8401
C11 C -0.1315(5) 0.2010(7) -0.7260(5)
C12 C -0.1068(6) 0.2361(9) -0.6128(6)
H7 H -0.1659 0.2714 -0.5900
C13 C -0.0091(6) 0.2200(9) -0.5470(6)
H8 H 0.0078 0.2412 -0.4790
C14 C -0.2349(5) 0.2206(6) -0.7993(5)
C15 C 0.5107(4) 0.0050(5) -0.0584(4)
O1 O 0.4073(4) 0.2946(5) -0.0420(4)
O2 O 0.3776(4) 0.4968(5) -0.1104(4)
O3 O 0.1602(4) 0.1454(8) -0.5339(5)
O4 O -0.2527(4) 0.2083(5) -0.9049(4)
O5 O -0.3059(3) 0.2516(5) -0.7545(3)
O6 O 0.5557(3) 0.1069(4) -0.0775(3)
O7 O 0.4800(3) -0.0877(4) -0.1265(3)
O8 O 0.6085(4) 0.3791(4) -0.1084(3)
H9 H 0.6028 0.3271 -0.1582
H10 H 0.6240 0.4610 -0.1135
O9 O 0.4816(3) 0.3573(4) 0.1918(3)
H11 H 0.4459 0.4308 0.1863
H12 H 0.4846 0.3070 0.2421
Gd1B Gd 0.422005(19) 0.71170(2) -0.059852(19)
Gd1_2 Gd -0.422005(19) 0.28830(2) -0.940148(19)
Gd1B_2 Gd 0.422005(19) -0.28830(2) -0.059852(19)
Gd1B_3 Gd 1.422005(19) 0.71170(2) 0.940148(19)
C1B C 0.6345(4) 0.6246(6) 0.1182(5)
C2B C 0.6990(4) 0.6790(6) 0.2264(5)
C3B C 0.7257(5) 0.8151(6) 0.2327(6)
H1B H 0.7117 0.8687 0.1756
C4B C 0.7778(5) 0.8703(8) 0.3356(6)
H2B H 0.7970 0.9602 0.3404
C5B C 0.8009(5) 0.7929(9) 0.4300(6)
C6B C 0.7790(5) 0.6597(9) 0.4256(5)
H3B H 0.7956 0.6063 0.4828
C7B C 0.7266(5) 0.6044(7) 0.3227(5)
H4B H 0.7095 0.5139 0.3189
C8B C 0.9385(5) 0.8323(9) 0.5951(6)
C9B C 0.9614(5) 0.8738(10) 0.7048(6)
H5B H 0.9029 0.9143 0.7255
C10B C 1.0589(5) 0.8559(9) 0.7723(5)
H6B H 1.0749 0.8785 0.8401
C11B C 1.1315(5) 0.7990(7) 0.7260(5)
C12B C 1.1068(6) 0.7639(9) 0.6128(6)
H7B H 1.1659 0.7286 0.5900
C13B C 1.0091(6) 0.7800(9) 0.5470(6)
H8B H 0.9922 0.7588 0.4790
C14B C 1.2349(5) 0.7794(6) 0.7993(5)
C15B C 0.4893(4) -0.0050(5) 0.0584(4)
O1B O 0.5927(4) 0.7054(5) 0.0420(4)
O2B O 0.6224(4) 0.5032(5) 0.1104(4)
O3B O 0.8398(4) 0.8546(8) 0.5339(5)
O4B O 1.2527(4) 0.7917(5) 0.9049(4)
O4_2 O 0.7473(4) 0.2083(5) 0.0951(4)
O4B_2 O 0.2527(4) 0.7917(5) -0.0951(4)
O5B O 1.3059(3) 0.7484(5) 0.7545(3)
O5_2 O 0.6941(3) 0.2516(5) 0.2455(3)
O5B_2 O 0.3059(3) 0.7484(5) -0.2455(3)
O6B O 0.4443(3) -0.1069(4) 0.0775(3)
O6B_2 O 0.4443(3) 0.8931(4) 0.0775(3)
O7B O 0.5200(3) 0.0877(4) 0.1265(3)
O7_2 O 0.4800(3) 0.9123(4) -0.1265(3)
O8B O 0.3915(4) 0.6209(4) 0.1084(3)
H9B H 0.3972 0.6729 0.1582
H10B H 0.3760 0.5390 0.1135
O9B O 0.5184(3) 0.6427(4) -0.1918(3)
H11B H 0.5541 0.5692 -0.1863
H12B H 0.5154 0.6930 -0.2421
loop_
_geom_bond_atom_site_label_1
_geom_bond_atom_site_label_2
_geom_bond_site_symmetry_1
_geom_bond_site_symmetry_2
Gd1 O1 1_555 1_555
C1 C2 1_555 1_555
C2 C3 1_555 1_555
C3 H1 1_555 1_555
C4 C3 1_555 1_555
H2 C4 1_555 1_555
C5 C4 1_555 1_555
C6 C5 1_555 1_555
H3 C6 1_555 1_555
C7 C2 1_555 1_555
H4 C7 1_555 1_555
C8 C9 1_555 1_555
C9 H5 1_555 1_555
C10 C9 1_555 1_555
H6 C10 1_555 1_555
C11 C10 1_555 1_555
C12 C11 1_555 1_555
H7 C12 1_555 1_555
C13 C8 1_555 1_555
H8 C13 1_555 1_555
C14 C11 1_555 1_555
C15 O6 1_555 1_555
O1 C1 1_555 1_555
O2 C1 1_555 1_555
O3 C5 1_555 1_555
O4 C14 1_555 1_555
O5 C14 1_555 1_555
O6 Gd1 1_555 1_555
O7 C15 1_555 1_555
O8 Gd1 1_555 1_555
H9 O8 1_555 1_555
H10 O8 1_555 1_555
O9 Gd1 1_555 1_555
H11 O9 1_555 1_555
H12 O9 1_555 1_555
Gd1B O2 1_555 1_555
Gd1_2 O4 1_555 1_555
Gd1B_2 O7 1_555 1_555
Gd1B_3 O4B 1_555 1_555
C1B C2B 1_555 1_555
C2B C3B 1_555 1_555
C3B H1B 1_555 1_555
C4B C3B 1_555 1_555
H2B C4B 1_555 1_555
C5B C4B 1_555 1_555
C6B C5B 1_555 1_555
H3B C6B 1_555 1_555
C7B C2B 1_555 1_555
H4B C7B 1_555 1_555
C8B C9B 1_555 1_555
C9B H5B 1_555 1_555
C10B C9B 1_555 1_555
H6B C10B 1_555 1_555
C11B C10B 1_555 1_555
C12B C11B 1_555 1_555
H7B C12B 1_555 1_555
C13B C8B 1_555 1_555
H8B C13B 1_555 1_555
C14B C11B 1_555 1_555
C15B C15 1_555 1_555
O1B Gd1B 1_555 1_555
O2B Gd1 1_555 1_555
O3B C5B 1_555 1_555
O4B C14B 1_555 1_555
O4_2 Gd1 1_555 1_555
O4B_2 Gd1B 1_555 1_555
O5B Gd1B_3 1_555 1_555
O5_2 Gd1 1_555 1_555
O5B_2 Gd1B 1_555 1_555
O6B Gd1B_2 1_555 1_555
O6B_2 Gd1B 1_555 1_555
O7B Gd1 1_555 1_555
O7_2 Gd1B 1_555 1_555
O8B Gd1B 1_555 1_555
H9B O8B 1_555 1_555
H10B O8B 1_555 1_555
O9B Gd1B 1_555 1_555
H11B O9B 1_555 1_555
H12B O9B 1_555 1_555
C6 C7 1_555 1_555
C8 O3 1_555 1_555
C12 C13 1_555 1_555
O5 Gd1_2 1_555 1_555
C1B O1B 1_555 1_555
C1B O2B 1_555 1_555
C6B C7B 1_555 1_555
C8B O3B 1_555 1_555
C12B C13B 1_555 1_555
C14B O5B 1_555 1_555
C15B O6B 1_555 1_555
C15B O7B 1_555 1_555

#END
