
#######################################################################
#
#                 Cambridge Crystallographic Data Centre
#                                CCDC 
#
#######################################################################
#
# If this CIF has been generated from an entry in the Cambridge 
# Structural Database, then it will include bibliographic, chemical, 
# crystal, experimental, refinement or atomic coordinate data resulting 
# from the CCDC's data processing and validation procedures.
#
#######################################################################

data_KELKOD
_symmetry_cell_setting           monoclinic
_symmetry_space_group_name_H-M   'P 21'
_symmetry_Int_Tables_number      4
_space_group_name_Hall           'P 2yb'
loop_
_symmetry_equiv_pos_site_id
_symmetry_equiv_pos_as_xyz
1 x,y,z
2 -x,1/2+y,-z
_cell_length_a                   12.3752(15)
_cell_length_b                   6.8283(9)
_cell_length_c                   13.4739(17)
_cell_angle_alpha                90
_cell_angle_beta                 91.108(2)
_cell_angle_gamma                90
_cell_volume                     1138.35
loop_
_atom_site_label
_atom_site_type_symbol
_atom_site_fract_x
_atom_site_fract_y
_atom_site_fract_z
Cd1 Cd 0.81955(3) 0.24582(5) 0.65777(3)
C1 C 0.7213(4) 0.2573(17) 0.4324(4)
H1 H 0.6554 0.2594 0.4644
C2 C 0.7199(4) 0.2531(18) 0.3313(4)
H2 H 0.6552 0.2644 0.2956
C3 C 0.8170(5) 0.2315(16) 0.2827(4)
H3 H 0.8182 0.2178 0.2140
C4 C 0.9126(5) 0.2307(15) 0.3389(4)
H4 H 0.9790 0.2212 0.3080
C5 C 0.9080(4) 0.2444(15) 0.4423(4)
C6 C 1.0084(4) 0.2412(15) 0.5055(3)
C7 C 1.1106(4) 0.2533(19) 0.4660(4)
H5 H 1.1186 0.2642 0.3978
C8 C 1.2005(4) 0.2492(16) 0.5282(4)
H6 H 1.2695 0.2544 0.5022
C9 C 1.1869(4) 0.2374(16) 0.6294(4)
H7 H 1.2463 0.2360 0.6727
C10 C 1.0823(4) 0.2275(15) 0.6652(4)
H8 H 1.0729 0.2165 0.7333
C11 C 0.3812(6) 0.8706(11) 0.9447(5)
H9 H 0.4090 0.7505 0.9653
C12 C 0.2735(6) 0.9150(14) 0.9626(6)
H10 H 0.2304 0.8258 0.9958
C13 C 0.2316(6) 1.0874(16) 0.9317(6)
H11 H 0.1597 1.1169 0.9437
C14 C 0.2945(7) 1.2185(16) 0.8831(6)
H12 H 0.2650 1.3368 0.8617
C15 C 0.4022(7) 1.1772(10) 0.8650(5)
H13 H 0.4440 1.2677 0.8314
C16 C 0.4477(5) 1.0026(9) 0.8967(4)
C17 C 0.5669(5) 0.9574(10) 0.8808(5)
H14 H 0.6031 0.9495 0.9452
H15 H 0.5986 1.0659 0.8452
C18 C 0.5892(4) 0.7687(13) 0.8239(4)
H16 H 0.5529 0.7726 0.7595
H17 H 0.5620 0.6572 0.8604
C19 C 0.7115(4) 0.7482(18) 0.8108(4)
H18 H 0.7463 0.7482 0.8767
C20 C 0.7452(7) 0.5624(14) 0.7570(6)
C21 C 0.7563(7) 0.9212(12) 0.7521(6)
N1 N 0.8133(3) 0.2586(12) 0.4894(3)
N2 N 0.9947(3) 0.2334(12) 0.6052(3)
O1 O 0.6766(4) 0.4570(7) 0.7093(4)
O2 O 0.8446(4) 0.5216(8) 0.7544(4)
O3 O 0.8361(5) 1.0136(8) 0.7862(4)
O4 O 0.7102(4) 0.9688(6) 0.6728(3)
Cd1_2 Cd 0.81955(3) 1.24582(5) 0.65777(3)
O3_2 O 0.8361(5) 0.0136(8) 0.7862(4)
O4_2 O 0.7102(4) -0.0312(6) 0.6728(3)
O5 O 0.4949(4) 0.5070(9) 0.4189(4)
O6 O 0.4721(4) 0.4022(8) 0.6162(4)
O7 O 0.9852(6) 0.8808(12) 0.9297(5)
O8 O 0.9730(7) 0.0091(12) 0.1173(6)
loop_
_geom_bond_atom_site_label_1
_geom_bond_atom_site_label_2
_geom_bond_site_symmetry_1
_geom_bond_site_symmetry_2
Cd1 N1 1_555 1_555
C1 H1 1_555 1_555
C2 C1 1_555 1_555
H2 C2 1_555 1_555
C3 C2 1_555 1_555
H3 C3 1_555 1_555
C4 C3 1_555 1_555
H4 C4 1_555 1_555
C5 C4 1_555 1_555
C6 C5 1_555 1_555
C7 C6 1_555 1_555
H5 C7 1_555 1_555
C8 C7 1_555 1_555
H6 C8 1_555 1_555
C9 C8 1_555 1_555
H7 C9 1_555 1_555
C10 C9 1_555 1_555
H8 C10 1_555 1_555
C11 H9 1_555 1_555
C12 C11 1_555 1_555
H10 C12 1_555 1_555
C13 C12 1_555 1_555
H11 C13 1_555 1_555
C14 C13 1_555 1_555
H12 C14 1_555 1_555
C15 C14 1_555 1_555
H13 C15 1_555 1_555
C16 C11 1_555 1_555
C17 C16 1_555 1_555
H14 C17 1_555 1_555
H15 C17 1_555 1_555
C18 C17 1_555 1_555
H16 C18 1_555 1_555
H17 C18 1_555 1_555
C19 C18 1_555 1_555
H18 C19 1_555 1_555
C20 C19 1_555 1_555
C21 C19 1_555 1_555
N1 C1 1_555 1_555
N2 Cd1 1_555 1_555
O1 Cd1 1_555 1_555
O2 Cd1 1_555 1_555
O3 C21 1_555 1_555
O4 C21 1_555 1_555
Cd1_2 O3 1_555 1_555
O3_2 Cd1 1_555 1_555
O4_2 Cd1 1_555 1_555
C5 N1 1_555 1_555
C6 N2 1_555 1_555
C10 N2 1_555 1_555
C15 C16 1_555 1_555
C20 O1 1_555 1_555
C20 O2 1_555 1_555
O4 Cd1_2 1_555 1_555

#END
