
#######################################################################
#
#                 Cambridge Crystallographic Data Centre
#                                CCDC 
#
#######################################################################
#
# If this CIF has been generated from an entry in the Cambridge 
# Structural Database, then it will include bibliographic, chemical, 
# crystal, experimental, refinement or atomic coordinate data resulting 
# from the CCDC's data processing and validation procedures.
#
#######################################################################

data_KELNIY01
_symmetry_cell_setting           monoclinic
_symmetry_space_group_name_H-M   'P a'
_symmetry_Int_Tables_number      7
_space_group_name_Hall           'P -2ya'
loop_
_symmetry_equiv_pos_site_id
_symmetry_equiv_pos_as_xyz
1 x,y,z
2 1/2+x,-y,z
_cell_length_a                   10.127(3)
_cell_length_b                   8.222(2)
_cell_length_c                   11.958(3)
_cell_angle_alpha                90
_cell_angle_beta                 96.03(3)
_cell_angle_gamma                90
_cell_volume                     990.164
loop_
_atom_site_label
_atom_site_type_symbol
_atom_site_fract_x
_atom_site_fract_y
_atom_site_fract_z
Eu1 Eu 0.12000 0.25583(5) 0.25000
Eu2 Eu -0.11496(4) 0.24881(5) 0.74175(4)
O1 O 0.3496(7) 0.1639(9) 0.2420(7)
O2 O 0.4730(6) 0.5135(8) 0.1928(6)
O3 O 0.6003(9) -0.0078(10) 0.1455(8)
O4 O 0.7040(7) 0.3347(8) 0.0648(8)
O5 O -0.3407(8) 0.3445(8) 0.7506(8)
O6 O -0.5904(7) 0.5150(9) 0.8602(6)
O7 O -0.4758(7) -0.0129(8) 0.7874(6)
O8 O -0.6945(9) 0.1561(10) 0.9270(8)
O9 O 0.0578(9) 0.3630(9) 0.4291(7)
O10 O -0.1366(8) 0.4672(9) 0.6134(7)
O11 O 0.1400(9) 0.7351(9) 0.4010(8)
O12 O -0.1028(10) 0.8375(9) 0.5465(8)
O13 O 0.2517(7) 0.4880(9) 0.2965(6)
O14 O -0.1133(9) 0.1735(11) 0.2452(12)
O15 O 0.1721(8) 0.0565(8) 0.3943(7)
O16 O 0.1779(10) 0.3357(9) 0.0713(7)
O17 O -0.0429(10) 0.1516(10) 0.5701(7)
O18 O -0.2557(7) 0.0188(8) 0.6765(6)
O19 O -0.1661(8) 0.1610(9) 0.9229(8)
O20 O 0.1174(8) 0.3278(10) 0.7515(9)
C1 C 0.4527(13) 0.2167(14) 0.1994(11)
C2 C 0.5051(9) 0.3675(9) 0.1688(8)
C3 C 0.5528(11) 0.1316(10) 0.1486(8)
C4 C 0.6073(9) 0.2861(10) 0.1120(8)
C5 C -0.4380(8) 0.2924(9) 0.7987(8)
C6 C -0.5529(8) 0.3723(12) 0.8489(8)
C7 C -0.4910(10) 0.1304(12) 0.8136(9)
C8 C -0.5965(12) 0.2059(12) 0.8748(10)
C9 C 0.0249(12) 0.4918(12) 0.4707(9)
C10 C -0.0665(10) 0.5375(11) 0.5490(8)
C11 C 0.0561(12) 0.6578(12) 0.4522(10)
C12 C -0.0467(12) 0.7062(13) 0.5218(9)
O2A O -0.0270(6) 0.4865(8) 0.1928(6)
O3A O 0.1003(9) 0.0078(10) 0.1455(8)
O6A O -0.0904(7) 0.4850(9) 0.8602(6)
O7A O 0.0242(7) 0.0129(8) 0.7874(6)
Eu1A Eu 0.62000 0.74417(5) 0.25000
Eu1A_2 Eu 0.62000 -0.25583(5) 0.25000
Eu2A Eu -0.61496(4) 0.75119(5) 0.74175(4)
Eu2A_2 Eu -0.61496(4) -0.24881(5) 0.74175(4)
loop_
_geom_bond_atom_site_label_1
_geom_bond_atom_site_label_2
_geom_bond_site_symmetry_1
_geom_bond_site_symmetry_2
Eu1 O1 1_555 1_555
Eu2 O5 1_555 1_555
O1 C1 1_555 1_555
O2 C2 1_555 1_555
O3 C3 1_555 1_555
O4 C4 1_555 1_555
O5 C5 1_555 1_555
O6 C6 1_555 1_555
O7 C7 1_555 1_555
O8 C8 1_555 1_555
O9 Eu1 1_555 1_555
O10 Eu2 1_555 1_555
O11 C11 1_555 1_555
O12 C12 1_555 1_555
O13 Eu1 1_555 1_555
O14 Eu1 1_555 1_555
O15 Eu1 1_555 1_555
O16 Eu1 1_555 1_555
O17 Eu2 1_555 1_555
O18 Eu2 1_555 1_555
O19 Eu2 1_555 1_555
O20 Eu2 1_555 1_555
C1 C2 1_555 1_555
C2 C4 1_555 1_555
C3 C1 1_555 1_555
C4 C3 1_555 1_555
C5 C6 1_555 1_555
C6 C8 1_555 1_555
C7 C5 1_555 1_555
C8 C7 1_555 1_555
C9 O9 1_555 1_555
C10 O10 1_555 1_555
C11 C9 1_555 1_555
C12 C10 1_555 1_555
O2A Eu1 1_555 1_555
O3A Eu1 1_555 1_555
O6A Eu2 1_555 1_555
O7A Eu2 1_555 1_555
Eu1A O2 1_555 1_555
Eu1A_2 O3 1_555 1_555
Eu2A O6 1_555 1_555
Eu2A_2 O7 1_555 1_555
C9 C10 1_555 1_555
C11 C12 1_555 1_555

#END
