
#######################################################################
#
#                 Cambridge Crystallographic Data Centre
#                                CCDC 
#
#######################################################################
#
# If this CIF has been generated from an entry in the Cambridge 
# Structural Database, then it will include bibliographic, chemical, 
# crystal, experimental, refinement or atomic coordinate data resulting 
# from the CCDC's data processing and validation procedures.
#
#######################################################################

data_KELNEU
_symmetry_cell_setting           monoclinic
_symmetry_space_group_name_H-M   'P 2/c'
_symmetry_Int_Tables_number      13
_space_group_name_Hall           '-P 2yc'
loop_
_symmetry_equiv_pos_site_id
_symmetry_equiv_pos_as_xyz
1 x,y,z
2 -x,y,1/2-z
3 -x,-y,-z
4 x,-y,1/2+z
_cell_length_a                   9.687(1)
_cell_length_b                   7.632(1)
_cell_length_c                   16.423(1)
_cell_angle_alpha                90
_cell_angle_beta                 89.95(1)
_cell_angle_gamma                90
_cell_volume                     1214.17
loop_
_atom_site_label
_atom_site_type_symbol
_atom_site_fract_x
_atom_site_fract_y
_atom_site_fract_z
O5 O 0.3369(5) 0.6672(5) 0.0198(2)
H9 H 0.332 0.584 -0.010
H10 H 0.332 0.584 0.059
Pr1 Pr 0.21071(3) 0.18030(3) -0.09963(3)
O1 O 0.1708(4) -0.0335(5) 0.0117(2)
O2 O 0.2119(4) 0.1724(5) -0.2578(2)
O3 O 0.3817(4) 0.2339(6) 0.0108(8)
O4 O 0.4587(4) 0.1828(5) -0.1554(2)
O6 O 0.2932(5) 0.4775(5) -0.1254(2)
O7 O 0.2974(4) -0.1068(4) -0.1336(2)
O8 O 0.3520(4) -0.1181(5) -0.3280(2)
O9 O 0.3452(5) 0.4559(5) -0.3206(2)
O10 O 0.0023(4) -0.0027(5) -0.1453(2)
O11 O 0.0812(5) 0.3391(5) 0.0159(2)
O12 O 0.0134(4) 0.3632(5) -0.1525(3)
C1 C -0.0091(5) -0.3144(6) -0.2127(2)
C2 C -0.0088(8) -0.186(1) -0.1444(5)
C3 C 0.0326(8) 0.324(1) 0.0838(5)
C4 C 0.0036(9) 0.542(1) -0.1458(5)
C5 C 0.3129(6) 0.5862(6) -0.1818(3)
C6 C 0.3139(5) -0.2239(5) -0.1850(3)
C7 C 0.3396(5) -0.2304(6) -0.2735(3)
C8 C 0.3359(6) 0.5772(6) -0.2695(3)
H1 H 0.139 -0.041 0.059
H2 H 0.221 -0.125 0.008
H3 H 0.221 0.082 -0.289
H4 H 0.250 0.250 -0.289
H5 H 0.391 0.207 0.061
H6 H 0.445 0.250 0.010
H7 H 0.500 0.043 -0.145
H8 H 0.500 0.250 -0.178
C1A C 0.0091(5) -0.3144(6) -0.2873(2)
C4_2 C 0.0036(9) -0.458(1) -0.1458(5)
C3B C -0.0326(8) -0.324(1) -0.0838(5)
C4B C -0.0036(9) 0.458(1) 0.1458(5)
C2B C 0.0088(8) 0.186(1) 0.1444(5)
C1_2 C -0.0091(5) 0.6856(6) -0.2127(2)
C3B_2 C -0.0326(8) 0.676(1) -0.0838(5)
C6_2 C 0.3139(5) 0.7761(5) -0.1850(3)
C5_2 C 0.3129(6) -0.4138(6) -0.1818(3)
C8_2 C 0.3359(6) -0.4228(6) -0.2695(3)
C7_2 C 0.3396(5) 0.7696(6) -0.2735(3)
loop_
_geom_bond_atom_site_label_1
_geom_bond_atom_site_label_2
_geom_bond_site_symmetry_1
_geom_bond_site_symmetry_2
Pr1 O1 1_555 1_555
O1 H1 1_555 1_555
O2 Pr1 1_555 1_555
O3 Pr1 1_555 1_555
O4 Pr1 1_555 1_555
O5 H9 1_555 1_555
O6 Pr1 1_555 1_555
O7 Pr1 1_555 1_555
O8 C7 1_555 1_555
O9 C8 1_555 1_555
O10 Pr1 1_555 1_555
O11 Pr1 1_555 1_555
O12 Pr1 1_555 1_555
C1 C2 1_555 1_555
C2 O10 1_555 1_555
C3 O11 1_555 1_555
C4 O12 1_555 1_555
C5 O6 1_555 1_555
C6 O7 1_555 1_555
C7 C6 1_555 1_555
C8 C5 1_555 1_555
H2 O1 1_555 1_555
H3 O2 1_555 1_555
H4 O2 1_555 1_555
H5 O3 1_555 1_555
H6 O3 1_555 1_555
H7 O4 1_555 1_555
H8 O4 1_555 1_555
H10 O5 1_555 1_555
C1A C1 1_555 1_555
C4_2 C1 1_555 1_555
C3B C2 1_555 1_555
C4B C3 1_555 1_555
C2B C3 1_555 1_555
C1_2 C4 1_555 1_555
C3B_2 C4 1_555 1_555
C6_2 C5 1_555 1_555
C5_2 C6 1_555 1_555
C8_2 C7 1_555 1_555
C7_2 C8 1_555 1_555
C4_2 C3B 1_555 1_555
C6_2 C7_2 1_555 1_555
C5_2 C8_2 1_555 1_555

#END
