
#######################################################################
#
#                 Cambridge Crystallographic Data Centre
#                                CCDC 
#
#######################################################################
#
# If this CIF has been generated from an entry in the Cambridge 
# Structural Database, then it will include bibliographic, chemical, 
# crystal, experimental, refinement or atomic coordinate data resulting 
# from the CCDC's data processing and validation procedures.
#
#######################################################################

data_KELNIY
_symmetry_cell_setting           monoclinic
_symmetry_space_group_name_H-M   'P c'
_symmetry_Int_Tables_number      7
_space_group_name_Hall           'P -2yc'
loop_
_symmetry_equiv_pos_site_id
_symmetry_equiv_pos_as_xyz
1 x,y,z
2 x,-y,1/2+z
_cell_length_a                   11.937(2)
_cell_length_b                   8.205(1)
_cell_length_c                   10.106(2)
_cell_angle_alpha                90
_cell_angle_beta                 96.04(1)
_cell_angle_gamma                90
_cell_volume                     984.318
loop_
_atom_site_label
_atom_site_type_symbol
_atom_site_fract_x
_atom_site_fract_y
_atom_site_fract_z
Eu1 Eu 0.00000 0.75571(5) 0.00000
Eu2 Eu -0.49173(5) 0.74862(6) 0.23501(5)
O1 O -0.0581(8) 0.984(1) -0.1402(8)
O2 O -0.1775(8) 0.852(1) 0.065(1)
O3 O 0.007(1) 0.676(1) 0.2386(8)
O4 O 0.1766(9) 0.836(1) -0.059(1)
O5 O -0.6737(8) 0.663(1) 0.282(1)
O6 O -0.4409(9) 0.520(1) 0.3653(9)
O7 O -0.500(1) 0.828(1) 0.010(1)
O8 O -0.3481(9) 0.962(1) 0.267(1)
O9 O 0.1119(9) 0.511(1) 0.024(1)
O10 O 0.1869(8) 0.169(1) -0.0875(8)
O11 O 0.0413(7) -0.006(1) 0.1396(8)
O12 O 0.0049(8) 0.345(1) 0.2670(9)
O13 O -0.5518(7) 0.5180(9) 0.0871(7)
O14 O -0.6756(9) 0.342(1) 0.3078(9)
O15 O -0.6040(9) -0.011(1) 0.214(1)
O16 O -0.5016(8) 0.162(1) -0.0409(8)
O17 O -0.3428(9) 0.257(1) 0.251(1)
O18 O -0.198(1) 0.170(1) 0.006(1)
O19 O -0.1304(9) 0.550(1) -0.038(1)
O20 O -0.3180(9) 0.640(1) 0.170(1)
C1 C 0.102(1) 0.373(1) 0.058(1)
C2 C 0.1375(8) 0.210(1) 0.014(1)
C3 C 0.075(1) 0.137(1) 0.118(1)
C4 C 0.064(1) 0.298(1) 0.176(1)
C5 C -0.570(1) 0.374(1) 0.115(1)
C6 C -0.626(1) 0.292(2) 0.216(1)
C7 C -0.600(1) 0.134(1) 0.163(1)
C8 C -0.540(1) 0.218(1) 0.064(1)
C9 C -0.293(1) 0.348(2) 0.173(1)
C10 C -0.216(1) 0.297(2) 0.066(1)
C11 C -0.194(1) 0.458(2) 0.049(1)
C12 C -0.274(1) 0.515(2) 0.139(1)
H1 H -0.033 0.999 -0.220
H2 H -0.119 1.082 -0.109
H3 H -0.228 0.861 -0.001
H4 H -0.207 0.834 0.125
H5 H -0.001 0.584 0.249
H6 H -0.068 0.709 0.249
H7 H 0.192 0.793 -0.138
H8 H 0.192 0.918 -0.055
H9 H -0.728 0.749 0.313
H10 H -0.707 0.584 0.334
H11 H -0.394 0.529 0.418
H12 H -0.519 0.473 0.418
H13 H -0.516 0.918 -0.027
H14 H -0.437 0.779 -0.020
H15 H -0.344 1.082 0.279
H16 H -0.308 0.918 0.307
O11_2 O 0.0413(7) 0.994(1) 0.1396(8)
O12A O 0.0049(8) 0.655(1) -0.2330(9)
O15_2 O -0.6040(9) 0.989(1) 0.214(1)
O16A O -0.5016(8) 0.838(1) 0.4591(8)
Eu1_2 Eu 0.00000 -0.24429(5) 0.00000
Eu1A Eu 0.00000 0.24429(5) 0.50000
Eu2_2 Eu -0.49173(5) -0.25138(6) 0.23501(5)
Eu2A Eu -0.49173(5) 0.25138(6) -0.26499(5)
loop_
_geom_bond_atom_site_label_1
_geom_bond_atom_site_label_2
_geom_bond_site_symmetry_1
_geom_bond_site_symmetry_2
Eu1 O1 1_555 1_555
Eu2 O5 1_555 1_555
O1 H1 1_555 1_555
O2 Eu1 1_555 1_555
O3 Eu1 1_555 1_555
O4 Eu1 1_555 1_555
O5 H9 1_555 1_555
O6 Eu2 1_555 1_555
O7 Eu2 1_555 1_555
O8 Eu2 1_555 1_555
O9 Eu1 1_555 1_555
O10 C2 1_555 1_555
O11 C3 1_555 1_555
O12 C4 1_555 1_555
O13 Eu2 1_555 1_555
O14 C6 1_555 1_555
O15 C7 1_555 1_555
O16 C8 1_555 1_555
O17 C9 1_555 1_555
O18 C10 1_555 1_555
O19 Eu1 1_555 1_555
O20 Eu2 1_555 1_555
C1 O9 1_555 1_555
C2 C1 1_555 1_555
C3 C2 1_555 1_555
C4 C1 1_555 1_555
C5 O13 1_555 1_555
C6 C5 1_555 1_555
C7 C6 1_555 1_555
C8 C5 1_555 1_555
C9 C10 1_555 1_555
C10 C11 1_555 1_555
C11 O19 1_555 1_555
C12 O20 1_555 1_555
H2 O1 1_555 1_555
H3 O2 1_555 1_555
H4 O2 1_555 1_555
H5 O3 1_555 1_555
H6 O3 1_555 1_555
H7 O4 1_555 1_555
H8 O4 1_555 1_555
H10 O5 1_555 1_555
H11 O6 1_555 1_555
H12 O6 1_555 1_555
H13 O7 1_555 1_555
H14 O7 1_555 1_555
H15 O8 1_555 1_555
H16 O8 1_555 1_555
O11_2 Eu1 1_555 1_555
O12A Eu1 1_555 1_555
O15_2 Eu2 1_555 1_555
O16A Eu2 1_555 1_555
Eu1_2 O11 1_555 1_555
Eu1A O12 1_555 1_555
Eu2_2 O15 1_555 1_555
Eu2A O16 1_555 1_555
C3 C4 1_555 1_555
C7 C8 1_555 1_555
C9 C12 1_555 1_555
C11 C12 1_555 1_555

#END
