
#######################################################################
#
#                 Cambridge Crystallographic Data Centre
#                                CCDC 
#
#######################################################################
#
# If this CIF has been generated from an entry in the Cambridge 
# Structural Database, then it will include bibliographic, chemical, 
# crystal, experimental, refinement or atomic coordinate data resulting 
# from the CCDC's data processing and validation procedures.
#
#######################################################################

data_KELSUR
_symmetry_cell_setting           orthorhombic
_symmetry_space_group_name_H-M   'P b c a'
_symmetry_Int_Tables_number      61
_space_group_name_Hall           '-P 2ac 2ab'
loop_
_symmetry_equiv_pos_site_id
_symmetry_equiv_pos_as_xyz
1 x,y,z
2 1/2-x,-y,1/2+z
3 -x,1/2+y,1/2-z
4 1/2+x,1/2-y,-z
5 -x,-y,-z
6 1/2+x,y,1/2-z
7 x,1/2-y,1/2+z
8 1/2-x,1/2+y,z
_cell_length_a                   7.1964(5)
_cell_length_b                   11.4526(7)
_cell_length_c                   21.4238(13)
_cell_angle_alpha                90
_cell_angle_beta                 90
_cell_angle_gamma                90
_cell_volume                     1765.7
loop_
_atom_site_label
_atom_site_type_symbol
_atom_site_fract_x
_atom_site_fract_y
_atom_site_fract_z
Co1 Co 0.50000 0.50000 0.00000
O1 O 0.50022(12) 0.57816(9) 0.08564(5)
O2 O 0.34936(15) 0.74351(9) 0.06505(5)
O3 O 0.50645(16) 0.33440(10) 0.04389(6)
N1 N 0.8056(2) 0.49793(9) -0.00124(5)
C1 C 0.41600(18) 0.66993(12) 0.10230(6)
C2 C 0.39500(18) 0.68881(12) 0.17125(6)
C3 C 0.3236(2) 0.79291(14) 0.19453(8)
C4 C 0.3112(3) 0.81001(16) 0.25834(8)
C5 C 0.3667(2) 0.72395(18) 0.29901(8)
C6 C 0.4340(2) 0.61947(18) 0.27649(8)
C7 C 0.4481(2) 0.60179(15) 0.21270(7)
C8 C 0.9002(2) 0.50183(12) 0.05234(7)
C9 C 0.9073(2) 0.49609(13) -0.05345(7)
H1 H 0.404(4) 0.305(2) 0.0524(11)
H2 H 0.547(4) 0.297(2) 0.0143(12)
H3 H 0.279(3) 0.8534(17) 0.1652(9)
H4 H 0.265(3) 0.8793(18) 0.2723(8)
H5 H 0.357(3) 0.7348(17) 0.3431(10)
H6 H 0.476(3) 0.560(2) 0.3019(11)
H7 H 0.493(2) 0.532(2) 0.1973(10)
H8 H 0.835(3) 0.5030(14) 0.0893(11)
H9 H 0.847(3) 0.4938(13) -0.0911(10)
Co1_2 Co 1.50000 0.50000 0.00000
O1D O 0.49978(12) 0.42184(9) -0.08564(5)
O2D O 0.65064(15) 0.25649(9) -0.06505(5)
O3D O 0.49355(16) 0.66560(10) -0.04389(6)
N1D N 1.1944(2) 0.50207(9) 0.00124(5)
N1D_2 N 0.1944(2) 0.50207(9) 0.00124(5)
C1D C 0.58400(18) 0.33007(12) -0.10230(6)
C2D C 0.60500(18) 0.31119(12) -0.17125(6)
C3D C 0.6764(2) 0.20709(14) -0.19453(8)
C4D C 0.6888(3) 0.18999(16) -0.25834(8)
C5D C 0.6333(2) 0.27605(18) -0.29901(8)
C6D C 0.5660(2) 0.38053(18) -0.27649(8)
C7D C 0.5519(2) 0.39821(15) -0.21270(7)
C8D C 1.0998(2) 0.49817(12) -0.05234(7)
C9D C 1.0927(2) 0.50391(13) 0.05345(7)
H1D H 0.596(4) 0.695(2) -0.0524(11)
H2D H 0.453(4) 0.703(2) -0.0143(12)
H3D H 0.721(3) 0.1466(17) -0.1652(9)
H4D H 0.735(3) 0.1207(18) -0.2723(8)
H5D H 0.643(3) 0.2652(17) -0.3431(10)
H6D H 0.524(3) 0.440(2) -0.3019(11)
H7D H 0.507(2) 0.468(2) -0.1973(10)
H8D H 1.165(3) 0.4970(14) -0.0893(11)
H9D H 1.153(3) 0.5062(13) 0.0911(10)
loop_
_geom_bond_atom_site_label_1
_geom_bond_atom_site_label_2
_geom_bond_site_symmetry_1
_geom_bond_site_symmetry_2
Co1 O1 1_555 1_555
O1 C1 1_555 1_555
O2 C1 1_555 1_555
O3 Co1 1_555 1_555
N1 Co1 1_555 1_555
C1 C2 1_555 1_555
C2 C3 1_555 1_555
C3 C4 1_555 1_555
C4 C5 1_555 1_555
C5 C6 1_555 1_555
C6 C7 1_555 1_555
C7 C2 1_555 1_555
C8 N1 1_555 1_555
C9 N1 1_555 1_555
H1 O3 1_555 1_555
H2 O3 1_555 1_555
H3 C3 1_555 1_555
H4 C4 1_555 1_555
H5 C5 1_555 1_555
H6 C6 1_555 1_555
H7 C7 1_555 1_555
H8 C8 1_555 1_555
H9 C9 1_555 1_555
Co1_2 N1D 1_555 1_555
O1D Co1 1_555 1_555
O2D C1D 1_555 1_555
O3D Co1 1_555 1_555
N1D C8D 1_555 1_555
N1D_2 Co1 1_555 1_555
C1D O1D 1_555 1_555
C2D C1D 1_555 1_555
C3D C2D 1_555 1_555
C4D C3D 1_555 1_555
C5D C4D 1_555 1_555
C6D C5D 1_555 1_555
C7D C2D 1_555 1_555
C8D C9 1_555 1_555
C9D C8 1_555 1_555
H1D O3D 1_555 1_555
H2D O3D 1_555 1_555
H3D C3D 1_555 1_555
H4D C4D 1_555 1_555
H5D C5D 1_555 1_555
H6D C6D 1_555 1_555
H7D C7D 1_555 1_555
H8D C8D 1_555 1_555
H9D C9D 1_555 1_555
N1D C9D 1_555 1_555
C6D C7D 1_555 1_555

#END
