
#######################################################################
#
#                 Cambridge Crystallographic Data Centre
#                                CCDC 
#
#######################################################################
#
# If this CIF has been generated from an entry in the Cambridge 
# Structural Database, then it will include bibliographic, chemical, 
# crystal, experimental, refinement or atomic coordinate data resulting 
# from the CCDC's data processing and validation procedures.
#
#######################################################################

data_KELTEC
_symmetry_cell_setting           monoclinic
_symmetry_space_group_name_H-M   'P 21/n'
_symmetry_Int_Tables_number      14
_space_group_name_Hall           '-P 2yn'
loop_
_symmetry_equiv_pos_site_id
_symmetry_equiv_pos_as_xyz
1 x,y,z
2 1/2-x,1/2+y,1/2-z
3 -x,-y,-z
4 1/2+x,1/2-y,1/2+z
_cell_length_a                   4.6476(3)
_cell_length_b                   16.8681(10)
_cell_length_c                   15.5919(9)
_cell_angle_alpha                90
_cell_angle_beta                 97.019(1)
_cell_angle_gamma                90
_cell_volume                     1213.18
loop_
_atom_site_label
_atom_site_type_symbol
_atom_site_fract_x
_atom_site_fract_y
_atom_site_fract_z
Cd1 Cd 0.5000 0.50000 0.00000
O1 O 0.2889(4) 0.52254(12) 0.11949(11)
O2 O -0.1032(3) 0.44772(10) 0.08612(10)
O3 O -0.5835(6) 0.34309(14) 0.31710(17)
O4 O -0.5474(7) 0.39884(16) 0.44088(17)
O5 O 0.3704(6) 0.70212(15) 0.36671(16)
O6 O 0.3272(4) 0.37460(12) -0.02809(16)
N1 N -0.4864(5) 0.39424(14) 0.36716(16)
N2 N 0.2952(4) 0.61426(12) 0.25575(13)
C1 C 0.0583(5) 0.48959(13) 0.13706(14)
C2 C -0.0195(4) 0.50127(13) 0.22752(14)
C3 C -0.2147(5) 0.44765(13) 0.25541(14)
C4 C -0.2894(5) 0.45311(14) 0.33788(15)
C5 C -0.1825(6) 0.51280(16) 0.39411(16)
C6 C 0.0090(6) 0.56682(16) 0.36758(16)
C7 C 0.0974(5) 0.56136(13) 0.28465(14)
C8 C 0.4225(6) 0.67942(15) 0.29627(19)
C9 C 0.6295(6) 0.72166(17) 0.2459(2)
H1 H 0.3422 0.6036 0.206
H2 H 0.4588 0.3341 -0.0176
H3 H 0.164 0.3565 -0.0147
H6 H -0.2817 0.4136 0.2187
H7 H -0.2368 0.5148 0.4453
H8 H 0.0931 0.6061 0.406
H9 H 0.7904 0.7337 0.2842
H10 H 0.6707 0.6948 0.1977
H11 H 0.5614 0.7688 0.233
Cd1_2 Cd -0.5000 0.50000 0.00000
Cd1_3 Cd 1.5000 0.50000 0.00000
O1_2 O 1.2889(4) 0.52254(12) 0.11949(11)
O1B O 0.7111(4) 0.47746(12) -0.11949(11)
O2_2 O 0.8968(3) 0.44772(10) 0.08612(10)
O2B O 0.1032(3) 0.55228(10) -0.08612(10)
O3_2 O 0.4165(6) 0.34309(14) 0.31710(17)
O4_2 O 0.4526(7) 0.39884(16) 0.44088(17)
O5_2 O 1.3704(6) 0.70212(15) 0.36671(16)
O6B O 0.6728(4) 0.62540(12) 0.02809(16)
N1_2 N 0.5136(5) 0.39424(14) 0.36716(16)
N2_2 N 1.2952(4) 0.61426(12) 0.25575(13)
C1_2 C 1.0583(5) 0.48959(13) 0.13706(14)
C2_2 C 0.9805(4) 0.50127(13) 0.22752(14)
C3_2 C 0.7853(5) 0.44765(13) 0.25541(14)
C4_2 C 0.7106(5) 0.45311(14) 0.33788(15)
C5_2 C 0.8175(6) 0.51280(16) 0.39411(16)
C6_2 C 1.0090(6) 0.56682(16) 0.36758(16)
C7_2 C 1.0974(5) 0.56136(13) 0.28465(14)
C8_2 C 1.4225(6) 0.67942(15) 0.29627(19)
C9_2 C 1.6295(6) 0.72166(17) 0.2459(2)
H1_2 H 1.3422 0.6036 0.206
H2B H 0.5412 0.6659 0.0176
H3B H 0.836 0.6435 0.0147
H6_2 H 0.7183 0.4136 0.2187
H7_2 H 0.7632 0.5148 0.4453
H8_2 H 1.0931 0.6061 0.406
H9_2 H 1.7904 0.7337 0.2842
H10_2 H 1.6707 0.6948 0.1977
H11_2 H 1.5614 0.7688 0.233
O7 O 0.8145(13) 0.2755(4) -0.0066(6)
H4 H 0.8015 0.2265 -0.0404
H5 H 0.8826 0.2509 0.0449
O8? O 0.702(4) 0.2548(11) -0.0039(15)
loop_
_geom_bond_atom_site_label_1
_geom_bond_atom_site_label_2
_geom_bond_site_symmetry_1
_geom_bond_site_symmetry_2
Cd1 O1 1_555 1_555
O1 C1 1_555 1_555
O2 C1 1_555 1_555
O3 N1 1_555 1_555
O4 N1 1_555 1_555
O5 C8 1_555 1_555
O6 Cd1 1_555 1_555
O7 H4 1_555 1_555
N1 C4 1_555 1_555
N2 C7 1_555 1_555
C1 C2 1_555 1_555
C2 C3 1_555 1_555
C3 C4 1_555 1_555
C4 C5 1_555 1_555
C5 C6 1_555 1_555
C6 C7 1_555 1_555
C7 C2 1_555 1_555
C8 N2 1_555 1_555
C9 C8 1_555 1_555
H1 N2 1_555 1_555
H2 O6 1_555 1_555
H3 O6 1_555 1_555
H5 O7 1_555 1_555
H6 C3 1_555 1_555
H7 C5 1_555 1_555
H8 C6 1_555 1_555
H9 C9 1_555 1_555
H10 C9 1_555 1_555
H11 C9 1_555 1_555
Cd1_2 O2 1_555 1_555
Cd1_3 O1_2 1_555 1_555
O1_2 C1_2 1_555 1_555
O1B Cd1 1_555 1_555
O2_2 Cd1 1_555 1_555
O2B Cd1 1_555 1_555
O3_2 N1_2 1_555 1_555
O4_2 N1_2 1_555 1_555
O5_2 C8_2 1_555 1_555
O6B Cd1 1_555 1_555
N1_2 C4_2 1_555 1_555
N2_2 C7_2 1_555 1_555
C1_2 O2_2 1_555 1_555
C2_2 C1_2 1_555 1_555
C3_2 C2_2 1_555 1_555
C4_2 C3_2 1_555 1_555
C5_2 C4_2 1_555 1_555
C6_2 C5_2 1_555 1_555
C7_2 C2_2 1_555 1_555
C8_2 N2_2 1_555 1_555
C9_2 C8_2 1_555 1_555
H1_2 N2_2 1_555 1_555
H2B O6B 1_555 1_555
H3B O6B 1_555 1_555
H6_2 C3_2 1_555 1_555
H7_2 C5_2 1_555 1_555
H8_2 C6_2 1_555 1_555
H9_2 C9_2 1_555 1_555
H10_2 C9_2 1_555 1_555
H11_2 C9_2 1_555 1_555
C6_2 C7_2 1_555 1_555

#END
