
#######################################################################
#
#                 Cambridge Crystallographic Data Centre
#                                CCDC 
#
#######################################################################
#
# If this CIF has been generated from an entry in the Cambridge 
# Structural Database, then it will include bibliographic, chemical, 
# crystal, experimental, refinement or atomic coordinate data resulting 
# from the CCDC's data processing and validation procedures.
#
#######################################################################

data_KELVED01
_symmetry_cell_setting           monoclinic
_symmetry_space_group_name_H-M   'P 21/n'
_symmetry_Int_Tables_number      14
_space_group_name_Hall           '-P 2yn'
loop_
_symmetry_equiv_pos_site_id
_symmetry_equiv_pos_as_xyz
1 x,y,z
2 1/2-x,1/2+y,1/2-z
3 -x,-y,-z
4 1/2+x,1/2-y,1/2+z
_cell_length_a                   8.8941(3)
_cell_length_b                   22.4052(8)
_cell_length_c                   16.1449(6)
_cell_angle_alpha                90
_cell_angle_beta                 105.428(2)
_cell_angle_gamma                90
_cell_volume                     3101.33
loop_
_atom_site_label
_atom_site_type_symbol
_atom_site_fract_x
_atom_site_fract_y
_atom_site_fract_z
C1 C 0.1683(5) 0.1616(2) 0.3221(3)
H1 H 0.1357 0.1984 0.2968
Cu1 Cu 0.49503(6) 0.20214(2) 0.37812(3)
N1 N 0.3107(4) 0.15048(16) 0.3692(2)
O1 O 0.3505(3) 0.27603(12) 0.34820(19)
C2 C 0.1643(5) 0.0690(2) 0.3595(3)
H2 H 0.1315 0.0302 0.3656
Cu2 Cu 0.87710(6) 0.17121(3) 0.07787(4)
N2 N 0.0768(4) 0.11403(17) 0.3149(2)
H3 H -0.0200 0.1121 0.2871
O2 O 0.3547(3) 0.24477(13) 0.21902(19)
C3 C 0.3074(5) 0.0916(2) 0.3931(3)
H4 H 0.3915 0.0706 0.4273
N3 N 0.8240(4) 0.33067(18) 0.3855(3)
H5 H 0.8682 0.3640 0.4044
O3 O 0.6380(3) 0.13121(13) 0.39861(19)
C4 C 0.7108(5) 0.3046(2) 0.4113(3)
H6 H 0.6665 0.3201 0.4528
N4 N 0.6692(4) 0.25392(17) 0.3707(2)
O4 O 0.5512(3) 0.12169(13) 0.25683(19)
C5 C 0.8583(6) 0.2958(3) 0.3242(3)
H7 H 0.9330 0.3030 0.2946
N5 N 0.6882(4) 0.21959(16) 0.0644(2)
O5 O 0.6200(3) 0.04179(14) 0.11007(19)
C6 C 0.7619(5) 0.2486(2) 0.3153(3)
H8 H 0.7585 0.2172 0.2772
N6 N 0.4720(4) 0.25669(18) 0.0805(3)
H9 H 0.3910 0.2616 0.0994
O6 O 0.8082(3) 0.10629(13) 0.17264(18)
C7 C 0.3162(4) 0.2817(2) 0.2655(3)
N7 N 1.0615(4) 0.12075(17) 0.0849(2)
O7 O 0.0020(3) 0.23424(13) 0.15653(18)
C8 C 0.2270(4) 0.3361(2) 0.2270(3)
N8 N 1.2975(4) 0.08481(18) 0.1216(3)
H10 H 1.3952 0.0814 0.1470
O8 O 0.0250(4) 0.26751(14) 0.0306(2)
C9 C 0.1042(5) 0.3316(2) 0.1517(3)
H11 H 0.794(6) 0.160(2) -0.087(2)
H12 H 0.703(4) 0.121(2) -0.053(3)
O9 O 0.7878(4) 0.13890(17) -0.0446(2)
C10 C 0.0304(6) 0.3834(2) 0.1166(3)
H13 H -0.0524 0.3812 0.0674
C11 C 0.0765(6) 0.4383(2) 0.1527(4)
H14 H 0.0251 0.4726 0.1276
C12 C 0.1984(6) 0.4428(2) 0.2259(4)
H15 H 0.2303 0.4798 0.2504
C13 C 0.2722(5) 0.3911(2) 0.2620(3)
H16 H 0.3547 0.3937 0.3114
C14 C 0.6334(4) 0.1050(2) 0.3276(3)
C15 C 0.7293(4) 0.04928(19) 0.3318(3)
C16 C 0.7796(5) 0.0174(2) 0.4070(3)
H17 H 0.7644 0.0329 0.4576
C17 C 0.8526(5) -0.0375(2) 0.4087(3)
H18 H 0.8856 -0.0585 0.4601
C18 C 0.8761(5) -0.0612(2) 0.3341(3)
H19 H 0.9229 -0.0983 0.3347
C19 C 0.8294(5) -0.0289(2) 0.2586(3)
H20 H 0.8464 -0.0446 0.2086
C20 C 0.7577(4) 0.02639(19) 0.2557(3)
C21 C 0.7243(5) 0.0613(2) 0.1728(3)
C22 C 1.2051(5) 0.1290(2) 0.1311(3)
H21 H 1.2380 0.1619 0.1664
C23 C 1.2106(6) 0.0459(3) 0.0645(4)
H22 H 1.2445 0.0107 0.0448
C24 C 1.0639(6) 0.0686(2) 0.0416(4)
H23 H 0.9787 0.0513 0.0028
C25 C 0.5780(5) 0.2141(2) 0.1046(3)
H24 H 0.5750 0.1844 0.1444
C26 C 0.5129(5) 0.2910(2) 0.0215(3)
H25 H 0.4591 0.3239 -0.0070
C27 C 0.6472(5) 0.2682(2) 0.0119(3)
H26 H 0.7033 0.2831 -0.0246
C28 C 0.0421(4) 0.2737(2) 0.1096(3)
Cu1C Cu -0.00497(6) 0.29786(2) -0.12188(3)
Cu2_2 Cu -0.12290(6) 0.17121(3) 0.07787(4)
O7_2 O 1.0020(3) 0.23424(13) 0.15653(18)
O8_2 O 1.0250(4) 0.26751(14) 0.0306(2)
O8C O 0.5250(4) 0.23249(14) 0.5306(2)
H27 H 0.547(6) 0.062(2) 0.9943(15)
H28 H 0.468(4) 0.0391(13) 0.922(3)
O10 O 0.5170(4) 0.07075(16) 0.9413(3)
loop_
_geom_bond_atom_site_label_1
_geom_bond_atom_site_label_2
_geom_bond_site_symmetry_1
_geom_bond_site_symmetry_2
C1 H1 1_555 1_555
Cu1 N1 1_555 1_555
N1 C1 1_555 1_555
O1 Cu1 1_555 1_555
C2 H2 1_555 1_555
Cu2 N5 1_555 1_555
N2 C1 1_555 1_555
H3 N2 1_555 1_555
O2 Cu1 1_555 1_555
C3 N1 1_555 1_555
H4 C3 1_555 1_555
N3 H5 1_555 1_555
O3 Cu1 1_555 1_555
C4 N3 1_555 1_555
H6 C4 1_555 1_555
N4 Cu1 1_555 1_555
O4 C14 1_555 1_555
C5 N3 1_555 1_555
H7 C5 1_555 1_555
N5 C25 1_555 1_555
O5 C21 1_555 1_555
C6 N4 1_555 1_555
H8 C6 1_555 1_555
N6 H9 1_555 1_555
O6 Cu2 1_555 1_555
C7 O1 1_555 1_555
N7 Cu2 1_555 1_555
O7 C28 1_555 1_555
C8 C7 1_555 1_555
N8 H10 1_555 1_555
O8 C28 1_555 1_555
C9 C8 1_555 1_555
H11 O9 1_555 1_555
H12 O9 1_555 1_555
O9 Cu2 1_555 1_555
C10 C9 1_555 1_555
H13 C10 1_555 1_555
C11 C10 1_555 1_555
H14 C11 1_555 1_555
C12 C11 1_555 1_555
H15 C12 1_555 1_555
C13 C8 1_555 1_555
H16 C13 1_555 1_555
C14 O3 1_555 1_555
C15 C14 1_555 1_555
C16 C15 1_555 1_555
H17 C16 1_555 1_555
C17 C16 1_555 1_555
H18 C17 1_555 1_555
C18 C17 1_555 1_555
H19 C18 1_555 1_555
C19 C18 1_555 1_555
H20 C19 1_555 1_555
C20 C15 1_555 1_555
C21 O6 1_555 1_555
C22 N7 1_555 1_555
H21 C22 1_555 1_555
C23 N8 1_555 1_555
H22 C23 1_555 1_555
C24 N7 1_555 1_555
H23 C24 1_555 1_555
C25 N6 1_555 1_555
H24 C25 1_555 1_555
C26 N6 1_555 1_555
H25 C26 1_555 1_555
C27 N5 1_555 1_555
H26 C27 1_555 1_555
C28 C9 1_555 1_555
H27 O10 1_555 1_555
H28 O10 1_555 1_555
Cu1C O8 1_555 1_555
Cu2_2 O7 1_555 1_555
O7_2 Cu2 1_555 1_555
O8_2 Cu2 1_555 1_555
O8C Cu1 1_555 1_555
C2 N2 1_555 1_555
C2 C3 1_555 1_555
O2 C7 1_555 1_555
C4 N4 1_555 1_555
C5 C6 1_555 1_555
N8 C22 1_555 1_555
O8 Cu2_2 1_555 1_555
C12 C13 1_555 1_555
C19 C20 1_555 1_555
C20 C21 1_555 1_555
C23 C24 1_555 1_555
C26 C27 1_555 1_555

#END
