
#######################################################################
#
#                 Cambridge Crystallographic Data Centre
#                                CCDC 
#
#######################################################################
#
# If this CIF has been generated from an entry in the Cambridge 
# Structural Database, then it will include bibliographic, chemical, 
# crystal, experimental, refinement or atomic coordinate data resulting 
# from the CCDC's data processing and validation procedures.
#
#######################################################################

data_KELVED
_symmetry_cell_setting           monoclinic
_symmetry_space_group_name_H-M   'P 21/c'
_symmetry_Int_Tables_number      14
_space_group_name_Hall           '-P 2ybc'
loop_
_symmetry_equiv_pos_site_id
_symmetry_equiv_pos_as_xyz
1 x,y,z
2 -x,1/2+y,1/2-z
3 -x,-y,-z
4 x,1/2-y,1/2+z
_cell_length_a                   8.8863(4)
_cell_length_b                   22.3787(10)
_cell_length_c                   16.1281(7)
_cell_angle_alpha                90
_cell_angle_beta                 106.4700(10)
_cell_angle_gamma                90
_cell_volume                     3075.7
loop_
_atom_site_label
_atom_site_type_symbol
_atom_site_fract_x
_atom_site_fract_y
_atom_site_fract_z
Cu1 Cu 0.38368(3) 0.702231(12) 0.878265(18)
N1 N 0.5591(2) 0.65009(9) 0.86917(12)
N2 N 0.2021(2) 0.75450(9) 0.87043(13)
O1 O 0.49842(19) 0.77613(7) 0.84819(10)
O2 O 0.2610(2) 0.63140(7) 0.89838(10)
Cu2 Cu -0.29856(3) 0.671130(13) 0.577870(18)
N3 N -0.4760(2) 0.62074(9) 0.58464(14)
N4 N -0.1225(2) 0.71926(9) 0.56451(12)
O3 O -0.13405(19) 0.60632(7) 0.67299(10)
O4 O 0.65465(19) 0.73412(7) 0.65622(10)
O5 O -0.3319(2) 0.63837(8) 0.45539(11)
H1 H -0.261(3) 0.6222(12) 0.4422(18)
H2 H -0.365(3) 0.6648(10) 0.4201(16)
C1 C 0.6547(3) 0.66159(11) 0.82204(15)
H3 H 0.6618 0.6984 0.7967
C2 C 0.6965(3) 0.56865(12) 0.85990(18)
H4 H 0.7356 0.5299 0.8662
C3 C 0.5854(3) 0.59150(11) 0.89289(17)
H5 H 0.5343 0.5705 0.9267
C4 C 0.2016(3) 0.80465(12) 0.91175(18)
H6 H 0.2874 0.8198 0.9539
C5 C -0.0332(3) 0.79600(14) 0.82388(19)
H7 H -0.1375 0.8033 0.7939
C6 C 0.0537(3) 0.74857(13) 0.81509(17)
H8 H 0.0189 0.7167 0.7775
C7 C -0.5727(3) 0.62872(12) 0.63158(16)
H9 H -0.5697 0.6615 0.6675
C8 C -0.6459(5) 0.54609(15) 0.5640(3)
H10 H -0.6992 0.5108 0.5440
C9 C -0.5248(4) 0.56878(14) 0.5413(3)
H11 H -0.4798 0.5516 0.5016
C10 C 0.0270(3) 0.71387(12) 0.60444(16)
H12 H 0.0698 0.6843 0.6447
C11 C 0.0095(3) 0.79167(12) 0.52102(18)
H13 H 0.0347 0.8248 0.4927
C12 C -0.1347(3) 0.76869(13) 0.51215(18)
H14 H -0.2278 0.7839 0.4762
C13 C 0.4505(3) 0.78165(10) 0.76600(14)
C14 C 0.5001(3) 0.83598(10) 0.72686(14)
C15 C 0.4891(3) 0.89181(11) 0.76187(16)
H15 H 0.4555 0.8948 0.8113
C16 C 0.5270(4) 0.94293(12) 0.7248(2)
H16 H 0.5192 0.9802 0.7488
C17 C 0.5762(5) 0.93809(14) 0.6521(2)
H17 H 0.6038 0.9723 0.6271
C18 C 0.5852(4) 0.88334(13) 0.6156(2)
H18 H 0.6174 0.8811 0.5657
C19 C -0.0015(3) 0.52635(10) 0.75601(14)
C20 C 0.1022(3) 0.54924(10) 0.83137(14)
C21 C 0.1268(3) 0.51692(11) 0.90732(16)
H19 H 0.1923 0.5325 0.9583
C22 C 0.0565(3) 0.46243(12) 0.90900(18)
H20 H 0.0752 0.4415 0.9607
C23 C -0.0410(3) 0.43879(12) 0.83460(18)
H21 H -0.0867 0.4015 0.8354
C24 C -0.0712(3) 0.47110(11) 0.75797(17)
H22 H -0.1387 0.4555 0.7076
C25 C 0.1949(3) 0.60498(10) 0.82795(15)
C26 C -0.0498(3) 0.56143(10) 0.67332(14)
C27 C 0.5476(3) 0.83174(10) 0.65162(15)
C28 C 0.5676(3) 0.77355(11) 0.60908(15)
N5 N 0.7395(3) 0.61428(11) 0.81527(14)
H23 H 0.796(3) 0.6112(14) 0.7802(17)
N6 N 0.0619(3) 0.83122(11) 0.88552(16)
H24 H 0.037(4) 0.8644(10) 0.901(2)
N7 N -0.6756(3) 0.58435(11) 0.62159(16)
H25 H -0.741(3) 0.5815(14) 0.6514(19)
N8 N 0.1098(3) 0.75650(11) 0.57973(15)
H26 H 0.206(2) 0.7628(14) 0.6051(19)
O6 O 0.36521(19) 0.74479(7) 0.71874(10)
O7 O 0.2060(2) 0.62187(8) 0.75677(10)
O8 O -0.0101(2) 0.54151(8) 0.60978(11)
O9 O 0.5061(2) 0.76725(8) 0.53056(11)
Cu1C Cu 0.38368(3) 0.797769(12) 0.378265(18)
Cu2_2 Cu 0.70144(3) 0.671130(13) 0.577870(18)
O4_2 O -0.34535(19) 0.73412(7) 0.65622(10)
O9C O 0.5061(2) 0.73275(8) 1.03056(11)
O10 O 0.0749(2) 0.42958(8) 0.55832(12)
H27 H 0.051(4) 0.4349(13) 0.5062(11)
H28 H 0.057(4) 0.4611(10) 0.5795(16)
loop_
_geom_bond_atom_site_label_1
_geom_bond_atom_site_label_2
_geom_bond_site_symmetry_1
_geom_bond_site_symmetry_2
Cu1 N1 1_555 1_555
N1 C1 1_555 1_555
N2 Cu1 1_555 1_555
O1 Cu1 1_555 1_555
O2 Cu1 1_555 1_555
Cu2 N3 1_555 1_555
N3 C7 1_555 1_555
N4 Cu2 1_555 1_555
O3 Cu2 1_555 1_555
O4 C28 1_555 1_555
O5 Cu2 1_555 1_555
H1 O5 1_555 1_555
H2 O5 1_555 1_555
C1 H3 1_555 1_555
C2 H4 1_555 1_555
C3 N1 1_555 1_555
H5 C3 1_555 1_555
C4 N2 1_555 1_555
H6 C4 1_555 1_555
C5 H7 1_555 1_555
C6 N2 1_555 1_555
H8 C6 1_555 1_555
C7 H9 1_555 1_555
C8 H10 1_555 1_555
C9 N3 1_555 1_555
H11 C9 1_555 1_555
C10 N4 1_555 1_555
H12 C10 1_555 1_555
C11 H13 1_555 1_555
C12 N4 1_555 1_555
H14 C12 1_555 1_555
C13 O1 1_555 1_555
C14 C13 1_555 1_555
C15 C14 1_555 1_555
H15 C15 1_555 1_555
C16 C15 1_555 1_555
H16 C16 1_555 1_555
C17 C16 1_555 1_555
H17 C17 1_555 1_555
C18 C17 1_555 1_555
H18 C18 1_555 1_555
C19 C20 1_555 1_555
C20 C21 1_555 1_555
C21 H19 1_555 1_555
C22 C21 1_555 1_555
H20 C22 1_555 1_555
C23 C22 1_555 1_555
H21 C23 1_555 1_555
C24 C19 1_555 1_555
H22 C24 1_555 1_555
C25 O2 1_555 1_555
C26 O3 1_555 1_555
C27 C14 1_555 1_555
C28 C27 1_555 1_555
N5 C1 1_555 1_555
H23 N5 1_555 1_555
N6 C4 1_555 1_555
H24 N6 1_555 1_555
N7 C7 1_555 1_555
H25 N7 1_555 1_555
N8 C10 1_555 1_555
H26 N8 1_555 1_555
O6 C13 1_555 1_555
O7 C25 1_555 1_555
O8 C26 1_555 1_555
O9 C28 1_555 1_555
O10 H27 1_555 1_555
H28 O10 1_555 1_555
Cu1C O9 1_555 1_555
Cu2_2 O4 1_555 1_555
O4_2 Cu2 1_555 1_555
O9C Cu1 1_555 1_555
C2 C3 1_555 1_555
C2 N5 1_555 1_555
C5 C6 1_555 1_555
C5 N6 1_555 1_555
C8 C9 1_555 1_555
C8 N7 1_555 1_555
C11 C12 1_555 1_555
C11 N8 1_555 1_555
C18 C27 1_555 1_555
C19 C26 1_555 1_555
C20 C25 1_555 1_555
C23 C24 1_555 1_555

#END
