
#######################################################################
#
#                 Cambridge Crystallographic Data Centre
#                                CCDC 
#
#######################################################################
#
# If this CIF has been generated from an entry in the Cambridge 
# Structural Database, then it will include bibliographic, chemical, 
# crystal, experimental, refinement or atomic coordinate data resulting 
# from the CCDC's data processing and validation procedures.
#
#######################################################################

data_KELXAB
_symmetry_cell_setting           monoclinic
_symmetry_space_group_name_H-M   'P 21/c'
_symmetry_Int_Tables_number      14
_space_group_name_Hall           '-P 2ybc'
loop_
_symmetry_equiv_pos_site_id
_symmetry_equiv_pos_as_xyz
1 x,y,z
2 -x,1/2+y,1/2-z
3 -x,-y,-z
4 x,1/2-y,1/2+z
_cell_length_a                   10.9253(2)
_cell_length_b                   15.6992(3)
_cell_length_c                   8.3683(2)
_cell_angle_alpha                90
_cell_angle_beta                 109.0658(11)
_cell_angle_gamma                90
_cell_volume                     1356.58
loop_
_atom_site_label
_atom_site_type_symbol
_atom_site_fract_x
_atom_site_fract_y
_atom_site_fract_z
Al1 Al 0.33722(6) 0.11702(4) 0.45485(8)
P1 P 0.35434(5) -0.07885(4) 0.37549(7)
P2 P 0.44344(5) 0.21582(4) 0.19047(7)
O1 O 0.29540(15) 0.00850(10) 0.3538(2)
O2 O 0.29123(18) -0.12728(12) 0.2062(2)
O3 O 0.31179(18) -0.12502(13) 0.5139(2)
O4 O 0.49944(14) -0.08290(10) 0.4190(2)
O5 O 0.36772(16) 0.15630(11) 0.2653(2)
O6 O 0.55159(16) 0.25843(11) 0.33436(19)
O7 O 0.51146(17) 0.15828(11) 0.0893(2)
O8 O 0.35594(15) 0.27790(10) 0.0666(2)
N1 N 0.14300(19) 0.14493(13) 0.3472(3)
N2 N 0.26171(19) 0.07492(14) 0.6399(2)
C1 C 0.0885(2) 0.17565(17) 0.1911(3)
C2 C -0.0449(3) 0.18628(19) 0.1194(4)
C3 C -0.1235(3) 0.16563(19) 0.2133(5)
C4 C -0.0683(3) 0.13487(19) 0.3760(4)
C5 C 0.0655(2) 0.12496(15) 0.4400(3)
C6 C 0.1342(2) 0.09104(15) 0.6102(3)
C7 C 0.0758(3) 0.0765(2) 0.7322(4)
C8 C 0.1503(3) 0.0440(2) 0.8874(4)
C9 C 0.2779(3) 0.02525(19) 0.9158(3)
C10 C 0.3318(3) 0.04208(18) 0.7896(3)
H1 H 0.340(4) -0.169(3) 0.201(5)
H2 H 0.356(4) -0.168(3) 0.560(5)
H3 H 0.521(3) 0.187(3) 0.000(5)
H4 H 0.1454 0.1916 0.1235
H5 H -0.0830 0.2086 0.0016
H6 H -0.2195 0.1728 0.1642
H7 H -0.1237 0.1200 0.4464
H8 H -0.0181 0.0893 0.7086
H9 H 0.1110 0.0343 0.9782
H10 H 0.3318 -0.0002 1.0259
H11 H 0.4255 0.0293 0.8113
Al1B Al 0.66278(6) -0.11702(4) 0.54515(8)
Al1C Al 0.33722(6) 0.38298(4) -0.04515(8)
O4B O 0.50056(14) 0.08290(10) 0.5810(2)
O8C O 0.35594(15) 0.22210(10) 0.5666(2)
loop_
_geom_bond_atom_site_label_1
_geom_bond_atom_site_label_2
_geom_bond_site_symmetry_1
_geom_bond_site_symmetry_2
Al1 O1 1_555 1_555
P1 O1 1_555 1_555
P2 O5 1_555 1_555
O2 P1 1_555 1_555
O3 P1 1_555 1_555
O4 P1 1_555 1_555
O5 Al1 1_555 1_555
O6 P2 1_555 1_555
O7 P2 1_555 1_555
O8 P2 1_555 1_555
N1 Al1 1_555 1_555
N2 Al1 1_555 1_555
C1 N1 1_555 1_555
C2 C1 1_555 1_555
C3 C2 1_555 1_555
C4 C3 1_555 1_555
C5 N1 1_555 1_555
C6 N2 1_555 1_555
C7 C6 1_555 1_555
C8 C7 1_555 1_555
C9 C8 1_555 1_555
C10 N2 1_555 1_555
H1 O2 1_555 1_555
H2 O3 1_555 1_555
H3 O7 1_555 1_555
H4 C1 1_555 1_555
H5 C2 1_555 1_555
H6 C3 1_555 1_555
H7 C4 1_555 1_555
H8 C7 1_555 1_555
H9 C8 1_555 1_555
H10 C9 1_555 1_555
H11 C10 1_555 1_555
Al1B O4 1_555 1_555
Al1C O8 1_555 1_555
O4B Al1 1_555 1_555
O8C Al1 1_555 1_555
C4 C5 1_555 1_555
C5 C6 1_555 1_555
C9 C10 1_555 1_555

#END
