
#######################################################################
#
#                 Cambridge Crystallographic Data Centre
#                                CCDC 
#
#######################################################################
#
# If this CIF has been generated from an entry in the Cambridge 
# Structural Database, then it will include bibliographic, chemical, 
# crystal, experimental, refinement or atomic coordinate data resulting 
# from the CCDC's data processing and validation procedures.
#
#######################################################################

data_KELZIM
_symmetry_cell_setting           orthorhombic
_symmetry_space_group_name_H-M   'P m c 21'
_symmetry_Int_Tables_number      26
_space_group_name_Hall           'P 2c -2'
loop_
_symmetry_equiv_pos_site_id
_symmetry_equiv_pos_as_xyz
1 x,y,z
2 -x,-y,1/2+z
3 -x,y,z
4 x,-y,1/2+z
_cell_length_a                   11.3873(14)
_cell_length_b                   6.2921(11)
_cell_length_c                   7.0799(13)
_cell_angle_alpha                90
_cell_angle_beta                 90
_cell_angle_gamma                90
_cell_volume                     507.275
loop_
_atom_site_label
_atom_site_type_symbol
_atom_site_fract_x
_atom_site_fract_y
_atom_site_fract_z
Eu1 Eu 1.0000 1.298390(13) 0.7499
Cl1 Cl 0.85508(4) 1.56919(6) 0.54213(7)
N1 N 0.79506(17) 1.1168(2) 0.7158(2)
C1 C 0.71284(17) 1.0139(3) 0.7285(3)
Cl2 Cl 1.0000 0.90665(9) 0.91450(8)
C2 C 0.60568(15) 0.8977(3) 0.7522(4)
C3 C 0.6066(2) 0.6879(3) 0.8203(3)
H1 H 0.6787 0.6167 0.8439
C4 C 0.5000 0.5867(4) 0.8526(4)
H2 H 0.5000 0.4446 0.8979
C5 C 0.5000 1.0017(4) 0.7175(4)
H3 H 0.5000 1.1431 0.6704
Eu1_2 Eu 0.0000 1.298390(13) 0.7499
Eu1A Eu 1.0000 0.701610(13) 1.2499
Eu1A_2 Eu 1.0000 1.701610(13) 0.2499
Cl1B Cl 1.14492(4) 1.56919(6) 0.54213(7)
Cl1A Cl 1.14492(4) 1.43081(6) 1.04213(7)
Cl1C Cl 0.85508(4) 1.43081(6) 1.04213(7)
N1B N 0.20494(17) 1.1168(2) 0.7158(2)
N1B_2 N 1.20494(17) 1.1168(2) 0.7158(2)
C1B C 0.28716(17) 1.0139(3) 0.7285(3)
Cl2A Cl 1.0000 1.09335(9) 0.41450(8)
C2B C 0.39432(15) 0.8977(3) 0.7522(4)
C3B C 0.3934(2) 0.6879(3) 0.8203(3)
H1B H 0.3213 0.6167 0.8439
loop_
_geom_bond_atom_site_label_1
_geom_bond_atom_site_label_2
_geom_bond_site_symmetry_1
_geom_bond_site_symmetry_2
Eu1 Cl1 1_555 1_555
Cl1 Eu1A_2 1_555 1_555
N1 Eu1 1_555 1_555
C1 N1 1_555 1_555
Cl2 Eu1 1_555 1_555
C2 C1 1_555 1_555
C3 C2 1_555 1_555
H1 C3 1_555 1_555
C4 C3 1_555 1_555
H2 C4 1_555 1_555
C5 C2 1_555 1_555
H3 C5 1_555 1_555
Eu1_2 N1B 1_555 1_555
Eu1A Cl2 1_555 1_555
Eu1A_2 Cl1B 1_555 1_555
Cl1B Eu1 1_555 1_555
Cl1A Eu1 1_555 1_555
Cl1C Eu1 1_555 1_555
N1B C1B 1_555 1_555
N1B_2 Eu1 1_555 1_555
C1B C2B 1_555 1_555
Cl2A Eu1 1_555 1_555
C2B C5 1_555 1_555
C3B C4 1_555 1_555
H1B C3B 1_555 1_555
C2B C3B 1_555 1_555

#END
