
#######################################################################
#
#                 Cambridge Crystallographic Data Centre
#                                CCDC 
#
#######################################################################
#
# If this CIF has been generated from an entry in the Cambridge 
# Structural Database, then it will include bibliographic, chemical, 
# crystal, experimental, refinement or atomic coordinate data resulting 
# from the CCDC's data processing and validation procedures.
#
#######################################################################

data_KEMKUJ
_symmetry_cell_setting           orthorhombic
_symmetry_space_group_name_H-M   'P b c 21'
_symmetry_Int_Tables_number      29
_space_group_name_Hall           'P 2c -2b'
loop_
_symmetry_equiv_pos_site_id
_symmetry_equiv_pos_as_xyz
1 x,y,z
2 -x,1/2+y,z
3 x,1/2-y,1/2+z
4 -x,-y,1/2+z
_cell_length_a                   10.531(1)
_cell_length_b                   21.440(1)
_cell_length_c                   22.895(1)
_cell_angle_alpha                90
_cell_angle_beta                 90
_cell_angle_gamma                90
_cell_volume                     5169.34
loop_
_atom_site_label
_atom_site_type_symbol
_atom_site_fract_x
_atom_site_fract_y
_atom_site_fract_z
Cu1 Cu -1.21313(5) 0.96177(2) 0.12467(3)
Cu2 Cu -1.40774(5) 0.82344(2) 0.13021(3)
Cu3 Cu -1.09913(5) 0.81215(2) 0.09771(3)
Cu4 Cu -1.19870(6) 0.95715(3) 0.36228(3)
Cu5 Cu -1.32155(6) 0.81045(3) 0.38868(3)
Cu6 Cu -1.01715(6) 0.81514(3) 0.35578(3)
Cu7 Cu -0.69443(6) 0.67160(3) 0.23200(4)
K1 K -1.21100(10) 0.85874(4) 0.24361(5)
S1 S -1.2304(3) 0.95796(11) -0.01573(12)
S2 S -0.78370(12) 0.74678(7) 0.16675(6)
S3 S -1.63370(14) 0.73860(7) 0.31575(7)
S4 S -1.12434(15) 1.11376(6) 0.25162(10)
S6 S -0.30991(15) 0.56590(8) 0.23120(10)
O1 O -1.0888(3) 0.89564(15) 0.13666(15)
O2 O -1.3566(3) 0.90945(14) 0.14729(16)
O3 O -1.2421(3) 0.78597(14) 0.14670(15)
O4 O -1.3269(3) 0.89319(15) 0.35395(16)
O5 O -1.0583(3) 0.90283(16) 0.34195(16)
O6 O -1.1871(3) 0.78155(15) 0.34021(17)
N1 N -0.9415(4) 0.8380(2) 0.0577(2)
H1 H -0.9496 0.8322 0.0189
H2 H -0.8760 0.8147 0.0703
N2 N -1.0632(4) 1.01817(19) 0.1166(2)
H3 H -1.0791 1.0553 0.1334
H4 H -1.0449 1.0245 0.0787
N3 N -1.3406(5) 1.0287(2) 0.1108(2)
H5 H -1.3251 1.0482 0.0768
H6 H -1.3386 1.0569 0.1398
N4 N -1.5769(4) 0.8599(2) 0.1176(2)
H7 H -1.6379 0.8316 0.1251
H8 H -1.5853 0.8728 0.0804
N5 N -1.4664(4) 0.7369(2) 0.1142(2)
H9 H -1.5178 0.7363 0.0828
H10 H -1.5093 0.7218 0.1450
N6 N -1.0651(5) 0.7207(2) 0.0873(2)
H11 H -0.9810 0.7132 0.0871
H12 H -1.0985 0.7070 0.0535
N7 N -1.2404(7) 0.8372(3) 0.0201(3)
N8 N -1.3452(5) 1.0156(2) 0.3677(3)
H13 H -1.3276 1.0512 0.3485
H14 H -1.3611 1.0249 0.4053
N9 N -1.4628(7) 0.8436(3) 0.4402(4)
H15 H -1.4391 0.8418 0.4779
H16 H -1.5330 0.8202 0.4357
N10 N -1.0658(5) 1.0189(3) 0.3801(3)
H17 H -1.0505 1.0198 0.4188
H18 H -1.0907 1.0572 0.3687
N11 N -0.8441(6) 0.8454(4) 0.3764(4)
H19 H -0.7849 0.8250 0.3555
H20 H -0.8285 0.8394 0.4146
N12 N -0.9647(5) 0.7277(2) 0.3666(3)
H21 H -0.9115 0.7246 0.3973
H22 H -0.9240 0.7139 0.3346
N13 N -1.3580(5) 0.7217(2) 0.4032(3)
H23 H -1.4422 0.7155 0.4067
H24 H -1.3198 0.7089 0.4363
N14 N -0.9556(6) 0.8000(3) 0.2467(3)
N15 N -1.4640(5) 0.8029(2) 0.2431(3)
N16 N -1.2159(5) 0.9916(2) 0.2434(3)
N18 N -0.5405(5) 0.6255(3) 0.2150(3)
C1 C -0.9618(4) 0.9180(2) 0.1310(2)
H25 H -0.9078 0.8951 0.1585
C2 C -0.9168(5) 0.9044(2) 0.0700(3)
H26 H -0.8267 0.9131 0.0667
H27 H -0.9619 0.9304 0.0422
C3 C -0.9564(5) 0.9868(2) 0.1463(2)
H28 H -0.8764 1.0045 0.1335
H29 H -0.9632 0.9923 0.1882
C4 C -1.4649(4) 0.9489(2) 0.1561(2)
H30 H -1.4545 0.9702 0.1937
C5 C -1.4649(5) 0.9971(3) 0.1090(3)
H31 H -1.5326 1.0269 0.1155
H32 H -1.4777 0.9776 0.0712
C6 C -1.5864(4) 0.9131(2) 0.1582(3)
H33 H -1.6566 0.9398 0.1469
H34 H -1.6016 0.8981 0.1975
C7 C -1.2544(5) 0.7182(2) 0.1487(2)
H35 H -1.2846 0.7055 0.1874
C8 C -1.3503(6) 0.6987(2) 0.1030(3)
H36 H -1.3695 0.6546 0.1065
H37 H -1.3178 0.7066 0.0641
C9 C -1.1262(5) 0.6897(2) 0.1375(3)
H38 H -1.1356 0.6455 0.1295
H39 H -1.0733 0.6942 0.1719
C10 C -1.2372(6) 0.8868(3) 0.0055(3)
C11 C -1.4519(5) 0.9158(2) 0.3612(3)
H40 H -1.5093 0.8913 0.3366
C12 C -1.4567(6) 0.9848(3) 0.3414(3)
H41 H -1.5345 1.0045 0.3547
H42 H -1.4532 0.9876 0.2991
C13 C -1.4889(6) 0.9070(3) 0.4240(3)
H43 H -1.5786 0.9160 0.4290
H44 H -1.4409 0.9353 0.4486
C14 C -0.9412(8) 0.9359(4) 0.3352(4)
H45 H -0.9208 0.9335 0.2935
C15 C -0.9502(9) 1.0002(4) 0.3481(6)
H46 H -0.8767 1.0121 0.3711
H47 H -0.9467 1.0233 0.3118
C16 C -0.8421(12) 0.9062(7) 0.3637(16)
H48 H -0.8296 0.9281 0.4003
H49 H -0.7666 0.9134 0.3404
C17 C -1.1797(6) 0.7137(2) 0.3362(3)
H50 H -1.1586 0.7018 0.2960
C18 C -1.0771(6) 0.6910(3) 0.3769(4)
H51 H -1.0595 0.6473 0.3696
H52 H -1.1043 0.6955 0.4171
C19 C -1.3075(6) 0.6874(3) 0.3522(4)
H53 H -1.2994 0.6435 0.3616
H54 H -1.3653 0.6915 0.3194
C20 C -0.8828(5) 0.7788(3) 0.2145(3)
C21 C -1.5344(5) 0.7783(2) 0.2724(3)
C22 C -1.1806(4) 1.0429(2) 0.2478(2)
C24 C -0.4438(6) 0.6001(2) 0.2214(3)
Cu7_2 Cu -1.69443(6) 0.67160(3) 0.23200(4)
Cu7A Cu -1.30557(6) 1.17160(3) 0.23200(4)
S3_2 S -0.63370(14) 0.73860(7) 0.31575(7)
S4A S -0.87566(15) 0.61376(6) 0.25162(10)
S5 S 0.56866(17) 0.11636(10) 0.47110(9)
N17 N 0.8177(6) 0.1352(3) 0.4365(3)
C23 C 0.7165(6) 0.1303(3) 0.4508(3)
S7 S 0.1838(2) 0.44977(11) 0.50752(12)
N19 N 0.1502(10) 0.3315(4) 0.4642(4)
C25 C 0.1635(9) 0.3814(4) 0.4832(3)
S8 S 0.7082(2) 0.26984(10) 0.50508(12)
N20 N 0.8196(15) 0.3795(7) 0.5420(8)
C26 C 0.7641(10) 0.3355(4) 0.5272(4)
N21? N 0.8461(11) 0.3667(6) 0.5117(6)
loop_
_geom_bond_atom_site_label_1
_geom_bond_atom_site_label_2
_geom_bond_site_symmetry_1
_geom_bond_site_symmetry_2
Cu1 O1 1_555 1_555
Cu2 O2 1_555 1_555
Cu3 O1 1_555 1_555
Cu4 O4 1_555 1_555
Cu5 O4 1_555 1_555
Cu6 O5 1_555 1_555
Cu7 S2 1_555 1_555
K1 O1 1_555 1_555
S1 C10 1_555 1_555
S2 C20 1_555 1_555
S3 C21 1_555 1_555
S4 C22 1_555 1_555
S5 C23 1_555 1_555
S6 C24 1_555 1_555
S7 C25 1_555 1_555
S8 C26 1_555 1_555
O1 C1 1_555 1_555
O2 Cu1 1_555 1_555
O3 Cu2 1_555 1_555
O4 K1 1_555 1_555
O5 Cu4 1_555 1_555
O6 Cu5 1_555 1_555
N1 Cu3 1_555 1_555
H1 N1 1_555 1_555
H2 N1 1_555 1_555
N2 Cu1 1_555 1_555
H3 N2 1_555 1_555
H4 N2 1_555 1_555
N3 Cu1 1_555 1_555
H5 N3 1_555 1_555
H6 N3 1_555 1_555
N4 Cu2 1_555 1_555
H7 N4 1_555 1_555
H8 N4 1_555 1_555
N5 Cu2 1_555 1_555
H9 N5 1_555 1_555
H10 N5 1_555 1_555
N6 Cu3 1_555 1_555
H11 N6 1_555 1_555
H12 N6 1_555 1_555
N7 Cu3 1_555 1_555
N8 Cu4 1_555 1_555
H13 N8 1_555 1_555
H14 N8 1_555 1_555
N9 Cu5 1_555 1_555
H15 N9 1_555 1_555
H16 N9 1_555 1_555
N10 Cu4 1_555 1_555
H17 N10 1_555 1_555
H18 N10 1_555 1_555
N11 Cu6 1_555 1_555
H19 N11 1_555 1_555
H20 N11 1_555 1_555
N12 Cu6 1_555 1_555
H21 N12 1_555 1_555
H22 N12 1_555 1_555
N13 Cu5 1_555 1_555
H23 N13 1_555 1_555
H24 N13 1_555 1_555
N14 K1 1_555 1_555
N15 K1 1_555 1_555
N16 K1 1_555 1_555
N17 C23 1_555 1_555
N18 Cu7 1_555 1_555
N19 C25 1_555 1_555
N20 C26 1_555 1_555
C1 H25 1_555 1_555
C2 N1 1_555 1_555
H26 C2 1_555 1_555
H27 C2 1_555 1_555
C3 N2 1_555 1_555
H28 C3 1_555 1_555
H29 C3 1_555 1_555
C4 O2 1_555 1_555
H30 C4 1_555 1_555
C5 N3 1_555 1_555
H31 C5 1_555 1_555
H32 C5 1_555 1_555
C6 N4 1_555 1_555
H33 C6 1_555 1_555
H34 C6 1_555 1_555
C7 O3 1_555 1_555
H35 C7 1_555 1_555
C8 N5 1_555 1_555
H36 C8 1_555 1_555
H37 C8 1_555 1_555
C9 N6 1_555 1_555
H38 C9 1_555 1_555
H39 C9 1_555 1_555
C10 N7 1_555 1_555
C11 O4 1_555 1_555
H40 C11 1_555 1_555
C12 N8 1_555 1_555
H41 C12 1_555 1_555
H42 C12 1_555 1_555
C13 N9 1_555 1_555
H43 C13 1_555 1_555
H44 C13 1_555 1_555
C14 O5 1_555 1_555
H45 C14 1_555 1_555
C15 N10 1_555 1_555
H46 C15 1_555 1_555
H47 C15 1_555 1_555
C16 N11 1_555 1_555
H48 C16 1_555 1_555
H49 C16 1_555 1_555
C17 O6 1_555 1_555
H50 C17 1_555 1_555
C18 N12 1_555 1_555
H51 C18 1_555 1_555
H52 C18 1_555 1_555
C19 N13 1_555 1_555
H53 C19 1_555 1_555
H54 C19 1_555 1_555
C20 N14 1_555 1_555
C21 N15 1_555 1_555
C22 N16 1_555 1_555
C24 N18 1_555 1_555
Cu7_2 S3 1_555 1_555
Cu7A S4 1_555 1_555
S3_2 Cu7 1_555 1_555
S4A Cu7 1_555 1_555
Cu3 O3 1_555 1_555
Cu6 O6 1_555 1_555
K1 O2 1_555 1_555
K1 O3 1_555 1_555
K1 O5 1_555 1_555
K1 O6 1_555 1_555
C1 C2 1_555 1_555
C1 C3 1_555 1_555
C4 C5 1_555 1_555
C4 C6 1_555 1_555
C7 C8 1_555 1_555
C7 C9 1_555 1_555
C11 C12 1_555 1_555
C11 C13 1_555 1_555
C14 C15 1_555 1_555
C14 C16 1_555 1_555
C17 C18 1_555 1_555
C17 C19 1_555 1_555

#END
