
#######################################################################
#
#                 Cambridge Crystallographic Data Centre
#                                CCDC 
#
#######################################################################
#
# If this CIF has been generated from an entry in the Cambridge 
# Structural Database, then it will include bibliographic, chemical, 
# crystal, experimental, refinement or atomic coordinate data resulting 
# from the CCDC's data processing and validation procedures.
#
#######################################################################

data_KEMLOF
_symmetry_cell_setting           triclinic
_symmetry_space_group_name_H-M   'P -1'
_symmetry_Int_Tables_number      2
_space_group_name_Hall           '-P 1'
loop_
_symmetry_equiv_pos_site_id
_symmetry_equiv_pos_as_xyz
1 x,y,z
2 -x,-y,-z
_cell_length_a                   11.2456(3)
_cell_length_b                   12.6499(4)
_cell_length_c                   15.6257(5)
_cell_angle_alpha                107.2050(10)
_cell_angle_beta                 91.0660(10)
_cell_angle_gamma                102.065(2)
_cell_volume                     2068.76
loop_
_atom_site_label
_atom_site_type_symbol
_atom_site_fract_x
_atom_site_fract_y
_atom_site_fract_z
Cu1 Cu 0.5000 1.0000 0.0000
Cu2 Cu 0.46877(3) 0.81370(3) 0.14984(2)
O1 O 0.4079(2) 0.64741(17) 0.09338(14)
H1 H 0.3767 0.6275 0.0390
H2 H 0.4572 0.6045 0.0948
N1 N 0.5915(2) 0.8784(2) -0.00676(16)
N2 N 0.5796(2) 0.8123(2) 0.04939(16)
N3 N 0.7148(2) 0.7640(2) -0.04424(16)
N4 N 1.3154(2) 0.8414(2) 0.06848(16)
N5 N 1.3389(2) 0.89250(19) 0.00270(16)
N6 N 1.1552(2) 0.7853(2) -0.02844(15)
N7 N 0.3804(2) 0.7993(2) 0.25626(16)
N8 N 0.2971(3) 0.8632(3) 0.28991(19)
N9 N 0.3125(2) 0.7517(2) 0.37256(16)
N10 N 0.4722(2) 1.0190(2) 0.79224(16)
N11 N 0.4705(2) 0.9420(2) 0.83804(16)
N12 N 0.4089(2) 0.8505(2) 0.69713(16)
C1 C 0.6729(3) 0.8473(2) -0.0618(2)
H7 H 0.6987 0.8797 -0.1079
C2 C 0.6534(3) 0.7437(3) 0.0253(2)
H8 H 0.6627 0.6877 0.0525
C3 C 1.2054(3) 0.7792(3) 0.0483(2)
H9 H 1.1653 0.7349 0.0833
C4 C 1.2423(3) 0.8584(3) -0.0541(2)
H10 H 1.2342 0.8815 -0.1061
C5 C 0.8120(2) 0.7076(2) -0.0860(2)
C6 C 0.8121(3) 0.7019(3) -0.18500(19)
H11 H 0.8261 0.7795 -0.1905
H12 H 0.7323 0.6579 -0.2174
C7 C 0.9138(3) 0.6446(3) -0.2259(2)
H13 H 0.9146 0.6406 -0.2907
C8 C 1.0371(3) 0.7133(3) -0.1764(2)
H14 H 1.0530 0.7909 -0.1819
H15 H 1.1030 0.6767 -0.2033
C9 C 1.0351(2) 0.7191(2) -0.07700(19)
C10 C 0.9347(2) 0.7784(2) -0.03535(19)
H16 H 0.9497 0.8560 -0.0407
H17 H 0.9340 0.7842 0.0292
C11 C 0.7882(3) 0.5878(2) -0.0791(2)
H18 H 0.7083 0.5436 -0.1113
H19 H 0.7858 0.5904 -0.0153
C12 C 0.8895(3) 0.5309(3) -0.1204(2)
H20 H 0.8740 0.4523 -0.1153
C13 C 1.0117(3) 0.5986(2) -0.0697(2)
H21 H 1.0778 0.5615 -0.0955
H22 H 1.0107 0.6015 -0.0057
C14 C 0.8910(3) 0.5241(3) -0.2183(2)
H23 H 0.8119 0.4787 -0.2512
H24 H 0.9563 0.4867 -0.2453
C15 C 0.3886(3) 0.7348(3) 0.3069(2)
H25 H 0.4410 0.6833 0.2985
C16 C 0.2588(4) 0.8317(4) 0.3580(3)
H26 H 0.1993 0.8617 0.3941
C17 C 0.4350(3) 0.9633(3) 0.7084(2)
H27 H 0.4275 0.9969 0.6623
C18 C 0.4328(3) 0.8429(3) 0.7800(2)
H28 H 0.4230 0.7734 0.7937
C19 C 0.2997(3) 0.7053(3) 0.4497(2)
C20 C 0.3619(3) 0.8013(2) 0.53412(19)
H29 H 0.4492 0.8273 0.5262
H30 H 0.3227 0.8666 0.5440
C21 C 0.3499(3) 0.7565(3) 0.61458(19)
C22 C 0.2168(3) 0.7179(3) 0.6279(2)
H31 H 0.1762 0.7825 0.6388
H32 H 0.2097 0.6899 0.6808
C23 C 0.1554(4) 0.6232(3) 0.5438(2)
H33 H 0.0673 0.5980 0.5524
C24 C 0.1649(3) 0.6685(3) 0.4620(2)
H34 H 0.1233 0.6082 0.4073
H35 H 0.1255 0.7337 0.4724
C25 C 0.3627(3) 0.6066(3) 0.4341(2)
H36 H 0.4501 0.6322 0.4264
H37 H 0.3247 0.5453 0.3788
C26 C 0.3494(4) 0.5622(3) 0.5162(2)
H38 H 0.3889 0.4962 0.5063
C27 C 0.2151(4) 0.5245(3) 0.5290(2)
H39 H 0.1743 0.4624 0.4752
H40 H 0.2071 0.4957 0.5815
C28 C 0.4131(4) 0.6574(3) 0.6003(2)
H41 H 0.4075 0.6297 0.6534
H42 H 0.5005 0.6825 0.5921
Cu1_2 Cu 1.5000 1.0000 0.0000
Cu1_3 Cu -0.5000 1.0000 0.0000
Cu2A Cu 0.53123(3) 1.18630(3) -0.14984(2)
Cu2_2 Cu 1.46877(3) 0.81370(3) 0.14984(2)
Cu2A_2 Cu 0.53123(3) 1.18630(3) 0.85016(2)
Cu2A_3 Cu -0.46877(3) 1.18630(3) -0.14984(2)
O1A O 0.5921(2) 1.35259(17) -0.09338(14)
H1A H 0.6233 1.3725 -0.0390
H2A H 0.5428 1.3955 -0.0948
N1A N 0.4085(2) 1.1216(2) 0.00676(16)
N2A N 0.4204(2) 1.1877(2) -0.04939(16)
N3A N 0.2852(2) 1.2360(2) 0.04424(16)
N4A N -0.3154(2) 1.1586(2) -0.06848(16)
N4_2 N 0.3154(2) 0.8414(2) 0.06848(16)
N4A_2 N 0.6846(2) 1.1586(2) -0.06848(16)
N5A N -0.3389(2) 1.10750(19) -0.00270(16)
N5_2 N 0.3389(2) 0.89250(19) 0.00270(16)
N5A_2 N 0.6611(2) 1.10750(19) -0.00270(16)
N6A N -0.1552(2) 1.2147(2) 0.02844(15)
N7A N 0.6196(2) 1.2007(2) 0.74374(16)
N7A_2 N 0.6196(2) 1.2007(2) -0.25626(16)
N8A N 0.7029(3) 1.1368(3) 0.71009(19)
N9A N 0.6875(2) 1.2483(2) 0.62744(16)
N10A N 0.5278(2) 0.9810(2) 0.20776(16)
N10_2 N 0.4722(2) 1.0190(2) -0.20776(16)
N11A N 0.5295(2) 1.0580(2) 0.16196(16)
N12A N 0.5911(2) 1.1495(2) 0.30287(16)
C1A C 0.3271(3) 1.1527(2) 0.0618(2)
H7A H 0.3013 1.1203 0.1079
C2A C 0.3466(3) 1.2563(3) -0.0253(2)
H8A H 0.3373 1.3123 -0.0525
C3A C -0.2054(3) 1.2208(3) -0.0483(2)
H9A H -0.1653 1.2651 -0.0833
C4A C -0.2423(3) 1.1416(3) 0.0541(2)
H10A H -0.2342 1.1185 0.1061
C5A C 0.1880(2) 1.2924(2) 0.0860(2)
C6A C 0.1879(3) 1.2981(3) 0.18500(19)
H11A H 0.1739 1.2205 0.1905
H12A H 0.2677 1.3421 0.2174
C7A C 0.0862(3) 1.3554(3) 0.2259(2)
H13A H 0.0854 1.3594 0.2907
C8A C -0.0371(3) 1.2867(3) 0.1764(2)
H14A H -0.0530 1.2091 0.1819
H15A H -0.1030 1.3233 0.2033
C9A C -0.0351(2) 1.2809(2) 0.07700(19)
C10A C 0.0653(2) 1.2216(2) 0.03535(19)
H16A H 0.0503 1.1440 0.0407
H17A H 0.0660 1.2158 -0.0292
C11A C 0.2118(3) 1.4122(2) 0.0791(2)
H18A H 0.2917 1.4564 0.1113
H19A H 0.2142 1.4096 0.0153
C12A C 0.1105(3) 1.4691(3) 0.1204(2)
H20A H 0.1260 1.5477 0.1153
C13A C -0.0117(3) 1.4014(2) 0.0697(2)
H21A H -0.0778 1.4385 0.0955
H22A H -0.0107 1.3985 0.0057
C14A C 0.1090(3) 1.4759(3) 0.2183(2)
H23A H 0.1881 1.5213 0.2512
H24A H 0.0437 1.5133 0.2453
C15A C 0.6114(3) 1.2652(3) 0.6931(2)
H25A H 0.5590 1.3167 0.7015
C16A C 0.7412(4) 1.1683(4) 0.6420(3)
H26A H 0.8007 1.1383 0.6059
C17A C 0.5650(3) 1.0367(3) 0.2916(2)
H27A H 0.5725 1.0031 0.3377
C18A C 0.5672(3) 1.1571(3) 0.2200(2)
H28A H 0.5770 1.2266 0.2063
C19A C 0.7003(3) 1.2947(3) 0.5503(2)
C20A C 0.6381(3) 1.1987(2) 0.46588(19)
H29A H 0.5508 1.1727 0.4738
H30A H 0.6773 1.1334 0.4560
C21A C 0.6501(3) 1.2435(3) 0.38542(19)
C22A C 0.7832(3) 1.2821(3) 0.3721(2)
H31A H 0.8238 1.2175 0.3612
H32A H 0.7903 1.3101 0.3192
C23A C 0.8446(4) 1.3768(3) 0.4562(2)
H33A H 0.9327 1.4020 0.4476
C24A C 0.8351(3) 1.3315(3) 0.5380(2)
H34A H 0.8767 1.3918 0.5927
H35A H 0.8745 1.2663 0.5276
C25A C 0.6373(3) 1.3934(3) 0.5659(2)
H36A H 0.5499 1.3678 0.5736
H37A H 0.6753 1.4547 0.6212
C26A C 0.6506(4) 1.4378(3) 0.4838(2)
H38A H 0.6111 1.5038 0.4937
C27A C 0.7849(4) 1.4755(3) 0.4710(2)
H39A H 0.8257 1.5376 0.5248
H40A H 0.7929 1.5043 0.4185
C28A C 0.5869(4) 1.3426(3) 0.3997(2)
H41A H 0.5925 1.3703 0.3466
H42A H 0.4995 1.3175 0.4079
Si1 Si 0.63210(9) 0.47670(8) 0.16728(6)
F1 F 0.5372(3) 0.5000(3) 0.09384(19)
F2 F 0.7340(3) 0.5893(2) 0.1559(2)
F3 F 0.6844(3) 0.3938(2) 0.07746(17)
F4 F 0.7301(3) 0.4525(3) 0.23392(18)
F5 F 0.5269(2) 0.3691(2) 0.1764(2)
F6 F 0.5793(3) 0.5645(2) 0.2510(2)
O2 O 0.6570(3) 0.7980(2) 0.23510(19)
H3 H 0.6812 0.7366 0.2108
H4 H 0.7022 0.8505 0.2182
O3 O 0.2533(4) 1.0621(3) 0.2410(3)
O4 O 0.9800(4) 0.7122(4) 0.1761(3)
H5 H 0.9051 0.6789 0.1719
H6 H 1.0003 0.7511 0.2322
O5 O 0.8210(4) 0.9959(4) 0.1766(4)
loop_
_geom_bond_atom_site_label_1
_geom_bond_atom_site_label_2
_geom_bond_site_symmetry_1
_geom_bond_site_symmetry_2
Cu1 N1 1_555 1_555
Cu2 O1 1_555 1_555
Si1 F1 1_555 1_555
F2 Si1 1_555 1_555
F3 Si1 1_555 1_555
F4 Si1 1_555 1_555
F5 Si1 1_555 1_555
F6 Si1 1_555 1_555
O1 H1 1_555 1_555
H2 O1 1_555 1_555
O2 H3 1_555 1_555
H4 O2 1_555 1_555
O4 H5 1_555 1_555
H6 O4 1_555 1_555
N1 N2 1_555 1_555
N2 Cu2 1_555 1_555
N3 C1 1_555 1_555
N4 N5 1_555 1_555
N5 C4 1_555 1_555
N6 C3 1_555 1_555
N7 Cu2 1_555 1_555
N8 N7 1_555 1_555
N9 C15 1_555 1_555
N10 N11 1_555 1_555
N11 C18 1_555 1_555
N12 C17 1_555 1_555
C1 N1 1_555 1_555
H7 C1 1_555 1_555
C2 N2 1_555 1_555
H8 C2 1_555 1_555
C3 N4 1_555 1_555
H9 C3 1_555 1_555
C4 N6 1_555 1_555
H10 C4 1_555 1_555
C5 N3 1_555 1_555
C6 C5 1_555 1_555
H11 C6 1_555 1_555
H12 C6 1_555 1_555
C7 C6 1_555 1_555
H13 C7 1_555 1_555
C8 C7 1_555 1_555
H14 C8 1_555 1_555
H15 C8 1_555 1_555
C9 N6 1_555 1_555
C10 C5 1_555 1_555
H16 C10 1_555 1_555
H17 C10 1_555 1_555
C11 C5 1_555 1_555
H18 C11 1_555 1_555
H19 C11 1_555 1_555
C12 C11 1_555 1_555
H20 C12 1_555 1_555
C13 C9 1_555 1_555
H21 C13 1_555 1_555
H22 C13 1_555 1_555
C14 C7 1_555 1_555
H23 C14 1_555 1_555
H24 C14 1_555 1_555
C15 N7 1_555 1_555
H25 C15 1_555 1_555
C16 N8 1_555 1_555
H26 C16 1_555 1_555
C17 N10 1_555 1_555
H27 C17 1_555 1_555
C18 N12 1_555 1_555
H28 C18 1_555 1_555
C19 N9 1_555 1_555
C20 C19 1_555 1_555
H29 C20 1_555 1_555
H30 C20 1_555 1_555
C21 N12 1_555 1_555
C22 C21 1_555 1_555
H31 C22 1_555 1_555
H32 C22 1_555 1_555
C23 C22 1_555 1_555
H33 C23 1_555 1_555
C24 C19 1_555 1_555
H34 C24 1_555 1_555
H35 C24 1_555 1_555
C25 C19 1_555 1_555
H36 C25 1_555 1_555
H37 C25 1_555 1_555
C26 C25 1_555 1_555
H38 C26 1_555 1_555
C27 C23 1_555 1_555
H39 C27 1_555 1_555
H40 C27 1_555 1_555
C28 C21 1_555 1_555
H41 C28 1_555 1_555
H42 C28 1_555 1_555
Cu1_2 N5 1_555 1_555
Cu1_3 N5A 1_555 1_555
Cu2A O1A 1_555 1_555
Cu2_2 N4 1_555 1_555
Cu2A_2 N10 1_555 1_555
Cu2A_3 N4A 1_555 1_555
O1A H1A 1_555 1_555
H2A O1A 1_555 1_555
N1A Cu1 1_555 1_555
N2A Cu2A 1_555 1_555
N3A C1A 1_555 1_555
N4A N5A 1_555 1_555
N4_2 Cu2 1_555 1_555
N4A_2 Cu2A 1_555 1_555
N5A C4A 1_555 1_555
N5_2 Cu1 1_555 1_555
N5A_2 Cu1 1_555 1_555
N6A C3A 1_555 1_555
N7A Cu2A_2 1_555 1_555
N7A_2 Cu2A 1_555 1_555
N8A N7A 1_555 1_555
N9A C15A 1_555 1_555
N10A Cu2 1_555 1_555
N10_2 Cu2A 1_555 1_555
N11A N10A 1_555 1_555
N12A C17A 1_555 1_555
C1A N1A 1_555 1_555
H7A C1A 1_555 1_555
C2A N2A 1_555 1_555
H8A C2A 1_555 1_555
C3A N4A 1_555 1_555
H9A C3A 1_555 1_555
C4A N6A 1_555 1_555
H10A C4A 1_555 1_555
C5A N3A 1_555 1_555
C6A C5A 1_555 1_555
H11A C6A 1_555 1_555
H12A C6A 1_555 1_555
C7A C6A 1_555 1_555
H13A C7A 1_555 1_555
C8A C7A 1_555 1_555
H14A C8A 1_555 1_555
H15A C8A 1_555 1_555
C9A N6A 1_555 1_555
C10A C5A 1_555 1_555
H16A C10A 1_555 1_555
H17A C10A 1_555 1_555
C11A C5A 1_555 1_555
H18A C11A 1_555 1_555
H19A C11A 1_555 1_555
C12A C11A 1_555 1_555
H20A C12A 1_555 1_555
C13A C9A 1_555 1_555
H21A C13A 1_555 1_555
H22A C13A 1_555 1_555
C14A C7A 1_555 1_555
H23A C14A 1_555 1_555
H24A C14A 1_555 1_555
C15A N7A 1_555 1_555
H25A C15A 1_555 1_555
C16A N8A 1_555 1_555
H26A C16A 1_555 1_555
C17A N10A 1_555 1_555
H27A C17A 1_555 1_555
C18A N11A 1_555 1_555
H28A C18A 1_555 1_555
C19A N9A 1_555 1_555
C20A C19A 1_555 1_555
H29A C20A 1_555 1_555
H30A C20A 1_555 1_555
C21A N12A 1_555 1_555
C22A C21A 1_555 1_555
H31A C22A 1_555 1_555
H32A C22A 1_555 1_555
C23A C22A 1_555 1_555
H33A C23A 1_555 1_555
C24A C19A 1_555 1_555
H34A C24A 1_555 1_555
H35A C24A 1_555 1_555
C25A C19A 1_555 1_555
H36A C25A 1_555 1_555
H37A C25A 1_555 1_555
C26A C25A 1_555 1_555
H38A C26A 1_555 1_555
C27A C23A 1_555 1_555
H39A C27A 1_555 1_555
H40A C27A 1_555 1_555
C28A C21A 1_555 1_555
H41A C28A 1_555 1_555
H42A C28A 1_555 1_555
N3 C2 1_555 1_555
N9 C16 1_555 1_555
C8 C9 1_555 1_555
C9 C10 1_555 1_555
C12 C13 1_555 1_555
C12 C14 1_555 1_555
C20 C21 1_555 1_555
C23 C24 1_555 1_555
C26 C27 1_555 1_555
C26 C28 1_555 1_555
N1A N2A 1_555 1_555
N3A C2A 1_555 1_555
N4_2 N5_2 1_555 1_555
N4A_2 N5A_2 1_555 1_555
N9A C16A 1_555 1_555
N12A C18A 1_555 1_555
C8A C9A 1_555 1_555
C9A C10A 1_555 1_555
C12A C13A 1_555 1_555
C12A C14A 1_555 1_555
C20A C21A 1_555 1_555
C23A C24A 1_555 1_555
C26A C27A 1_555 1_555
C26A C28A 1_555 1_555

#END
