
#######################################################################
#
#                 Cambridge Crystallographic Data Centre
#                                CCDC 
#
#######################################################################
#
# If this CIF has been generated from an entry in the Cambridge 
# Structural Database, then it will include bibliographic, chemical, 
# crystal, experimental, refinement or atomic coordinate data resulting 
# from the CCDC's data processing and validation procedures.
#
#######################################################################

data_KEMLEV
_symmetry_cell_setting           monoclinic
_symmetry_space_group_name_H-M   'P 21/m'
_symmetry_Int_Tables_number      11
_space_group_name_Hall           '-P 2yb'
loop_
_symmetry_equiv_pos_site_id
_symmetry_equiv_pos_as_xyz
1 x,y,z
2 -x,1/2+y,-z
3 -x,-y,-z
4 x,1/2-y,z
_cell_length_a                   10.7779(11)
_cell_length_b                   7.0648(5)
_cell_length_c                   12.9275(12)
_cell_angle_alpha                90
_cell_angle_beta                 104.377(10)
_cell_angle_gamma                90
_cell_volume                     953.521
loop_
_atom_site_label
_atom_site_type_symbol
_atom_site_fract_x
_atom_site_fract_y
_atom_site_fract_z
Cu1 Cu 1.0000 0.5000 1.0000
N1 N 1.1540(2) 0.3457(4) 1.0714(2)
N2 N 1.3313(3) 0.2500 1.1808(3)
N3 N 1.8967(2) 0.3457(4) 1.0794(2)
N4 N 1.7852(3) 0.2500 1.1890(3)
C1 C 1.2616(3) 0.4020(5) 1.1369(2)
H1 H 1.2863 0.5289 1.1511
C2 C 1.8296(3) 0.4031(5) 1.1457(3)
H2 H 1.8147 0.5301 1.1607
C3 C 1.4617(4) 0.2500 1.2553(3)
C4 C 1.5588(3) 0.2500 1.1868(3)
H3 H 1.5465 0.3623 1.1409
C5 C 1.6948(3) 0.2500 1.2605(3)
C6 C 1.7150(3) 0.0724(6) 1.3305(2)
H4 H 1.8021 0.0713 1.3767
H5 H 1.7036 -0.0410 1.2855
C7 C 1.6166(3) 0.0735(6) 1.3987(2)
H6 H 1.6292 -0.0407 1.4446
C8 C 1.4798(3) 0.0717(5) 1.3254(2)
H7 H 1.4671 -0.0418 1.2804
H8 H 1.4168 0.0701 1.3686
C9 C 1.6355(5) 0.2500 1.4694(4)
H9 H 1.5736 0.2500 1.5136
H10 H 1.7219 0.2500 1.5169
Cu1_2 Cu 2.0000 0.5000 1.0000
Cu1A Cu 1.0000 0.0000 1.0000
Cu1A_2 Cu 2.0000 0.0000 1.0000
N1C N 1.1540(2) 0.1543(4) 1.0714(2)
N1B N 0.8460(2) 0.6543(4) 0.9286(2)
N3C N 1.8967(2) 0.1543(4) 1.0794(2)
N3_2 N 0.8967(2) 0.3457(4) 1.0794(2)
N3B N 1.1033(2) 0.6543(4) 0.9206(2)
C1C C 1.2616(3) 0.0980(5) 1.1369(2)
H1C H 1.2863 -0.0289 1.1511
C2C C 1.8296(3) 0.0969(5) 1.1457(3)
H2C H 1.8147 -0.0301 1.1607
H3C H 1.5465 0.1377 1.1409
C6C C 1.7150(3) 0.4276(6) 1.3305(2)
H4C H 1.8021 0.4287 1.3767
H5C H 1.7036 0.5410 1.2855
C7C C 1.6166(3) 0.4265(6) 1.3987(2)
H6C H 1.6292 0.5407 1.4446
C8C C 1.4798(3) 0.4283(5) 1.3254(2)
H7C H 1.4671 0.5418 1.2804
H8C H 1.4168 0.4299 1.3686
S1 S 1.07862(12) 0.7500 1.24759(9)
O1 O 1.0423(4) 0.7500 1.1304(3)
O2 O 0.9536(5) 0.7500 1.2809(4)
O3 O 1.1505(5) 0.5812(8) 1.2901(3)
O3C O 1.1505(5) 0.9188(8) 1.2901(3)
O4 O 0.8242(7) -0.2500 0.6013(6)
H11 H 0.8334 -0.3476 0.6408
H11C H 0.8334 -0.1524 0.6408
O5? O 1.0138(6) 0.1893(12) 0.5163(5)
H12? H 1.0370 0.2156 0.5825
H13? H 1.0745 0.2846 0.4878
O6? O 0.9603(14) 0.081(3) 0.7103(11)
O7? O 0.7764(15) 0.2500 0.7364(13)
loop_
_geom_bond_atom_site_label_1
_geom_bond_atom_site_label_2
_geom_bond_site_symmetry_1
_geom_bond_site_symmetry_2
Cu1 N1 1_555 1_555
S1 O1 1_555 1_555
O2 S1 1_555 1_555
O3 S1 1_555 1_555
N1 C1 1_555 1_555
N2 C1 1_555 1_555
N3 C2 1_555 1_555
N4 C2 1_555 1_555
C1 H1 1_555 1_555
C2 H2 1_555 1_555
C3 N2 1_555 1_555
C4 C3 1_555 1_555
H3 C4 1_555 1_555
C5 N4 1_555 1_555
C6 C5 1_555 1_555
H4 C6 1_555 1_555
H5 C6 1_555 1_555
C7 C6 1_555 1_555
H6 C7 1_555 1_555
C8 C3 1_555 1_555
H7 C8 1_555 1_555
H8 C8 1_555 1_555
C9 C7 1_555 1_555
H9 C9 1_555 1_555
H10 C9 1_555 1_555
O4 H11 1_555 1_555
Cu1_2 N3 1_555 1_555
Cu1A N1C 1_555 1_555
Cu1A_2 N3C 1_555 1_555
O3C S1 1_555 1_555
N1C N1 1_555 1_555
N1B Cu1 1_555 1_555
N3C N3 1_555 1_555
N3_2 Cu1 1_555 1_555
N3B Cu1 1_555 1_555
C1C N2 1_555 1_555
H1C C1C 1_555 1_555
C2C N4 1_555 1_555
H2C C2C 1_555 1_555
H3C C4 1_555 1_555
C6C C5 1_555 1_555
H4C C6C 1_555 1_555
H5C C6C 1_555 1_555
C7C C9 1_555 1_555
H6C C7C 1_555 1_555
C8C C3 1_555 1_555
H7C C8C 1_555 1_555
H8C C8C 1_555 1_555
H11C O4 1_555 1_555
C4 C5 1_555 1_555
C7 C8 1_555 1_555
N1C C1C 1_555 1_555
N3C C2C 1_555 1_555
C6C C7C 1_555 1_555
C7C C8C 1_555 1_555

#END
