
#######################################################################
#
#                 Cambridge Crystallographic Data Centre
#                                CCDC 
#
#######################################################################
#
# If this CIF has been generated from an entry in the Cambridge 
# Structural Database, then it will include bibliographic, chemical, 
# crystal, experimental, refinement or atomic coordinate data resulting 
# from the CCDC's data processing and validation procedures.
#
#######################################################################

data_KEMNAT
_symmetry_cell_setting           monoclinic
_symmetry_space_group_name_H-M   'P 21/n'
_symmetry_Int_Tables_number      14
_space_group_name_Hall           '-P 2yn'
loop_
_symmetry_equiv_pos_site_id
_symmetry_equiv_pos_as_xyz
1 x,y,z
2 1/2-x,1/2+y,1/2-z
3 -x,-y,-z
4 1/2+x,1/2-y,1/2+z
_cell_length_a                   12.562(3)
_cell_length_b                   7.1830(14)
_cell_length_c                   17.020(3)
_cell_angle_alpha                90
_cell_angle_beta                 90.71(3)
_cell_angle_gamma                90
_cell_volume                     1535.65
loop_
_atom_site_label
_atom_site_type_symbol
_atom_site_fract_x
_atom_site_fract_y
_atom_site_fract_z
Li1 Li 0.4929(3) -0.1252(5) 0.4139(2)
O1 O 0.47668(12) -0.4040(2) 0.42920(9)
C1 C 0.39362(18) -0.4671(4) 0.48015(16)
H1 H 0.336(2) -0.372(4) 0.4758(16)
H2 H 0.3697(19) -0.594(4) 0.4626(14)
C2 C 0.4341(2) -0.4719(4) 0.56353(15)
H3 H 0.455(2) -0.348(4) 0.5785(16)
H4 H 0.384(2) -0.520(4) 0.5990(16)
S1 S 0.25852(5) -0.19850(9) 0.29868(4)
N1 N 0.39329(14) 0.1380(3) 0.67493(11)
C3 C 0.40111(18) 0.1792(3) 0.75061(13)
H5 H 0.470(2) 0.176(4) 0.7703(16)
N2 N 0.37974(14) 0.0406(3) 0.52215(11)
C4 C 0.3170(2) 0.2269(3) 0.79832(13)
H6 H 0.3263(19) 0.254(4) 0.8492(15)
N3 N 0.35521(14) -0.0105(3) 0.44716(11)
C5 C 0.21653(19) 0.2340(3) 0.76380(14)
H7 H 0.156(2) 0.270(4) 0.7951(15)
C6 C 0.20480(18) 0.1906(3) 0.68495(13)
H8 H 0.139(2) 0.193(4) 0.6594(15)
C7 C 0.29411(17) 0.1402(3) 0.64196(13)
C8 C 0.28848(16) 0.0848(3) 0.55900(13)
C9 C 0.20195(17) 0.0632(3) 0.50767(13)
H9 H 0.1272(19) 0.079(3) 0.5180(14)
C10 C 0.24779(16) 0.0012(3) 0.43828(13)
C11 C 0.19563(17) -0.0538(3) 0.36447(13)
C12 C 0.09375(18) -0.0087(3) 0.33819(13)
H10 H 0.0546(19) 0.061(4) 0.3634(15)
C13 C 0.07092(19) -0.0899(3) 0.26342(14)
H11 H 0.007(2) -0.074(4) 0.2353(17)
C14 C 0.1517(2) -0.1950(4) 0.23542(14)
H12 H 0.154(2) -0.264(4) 0.1884(17)
Li1B Li 0.5071(3) -0.8748(5) 0.5861(2)
Li1_2 Li 0.4929(3) -1.1252(5) 0.4139(2)
Li1B_2 Li 0.5071(3) 0.1252(5) 0.5861(2)
O1B O 0.52332(12) -0.5960(2) 0.57080(9)
C1B C 0.60638(18) -0.5329(4) 0.51985(16)
H1B H 0.664(2) -0.628(4) 0.5242(16)
H2B H 0.6303(19) -0.406(4) 0.5374(14)
C2B C 0.5659(2) -0.5281(4) 0.43647(15)
H3B H 0.545(2) -0.652(4) 0.4215(16)
H4B H 0.616(2) -0.480(4) 0.4010(16)
S1B S 0.74148(5) -0.80150(9) 0.70132(4)
N1B N 0.60671(14) -1.1380(3) 0.32507(11)
N1_2 N 0.39329(14) -0.8620(3) 0.67493(11)
N1B_2 N 0.60671(14) -0.1380(3) 0.32507(11)
C3B C 0.59889(18) -1.1792(3) 0.24939(13)
H5B H 0.530(2) -1.176(4) 0.2297(16)
N2B N 0.62026(14) -1.0406(3) 0.47785(11)
N2_2 N 0.37974(14) -0.9594(3) 0.52215(11)
N2B_2 N 0.62026(14) -0.0406(3) 0.47785(11)
C4B C 0.6830(2) -1.2269(3) 0.20168(13)
H6B H 0.6737(19) -1.254(4) 0.1508(15)
N3B N 0.64479(14) -0.9895(3) 0.55284(11)
C5B C 0.78347(19) -1.2340(3) 0.23620(14)
H7B H 0.844(2) -1.270(4) 0.2049(15)
C6B C 0.79520(18) -1.1906(3) 0.31505(13)
H8B H 0.861(2) -1.193(4) 0.3406(15)
C7B C 0.70589(17) -1.1402(3) 0.35804(13)
C8B C 0.71152(16) -1.0848(3) 0.44100(13)
C9B C 0.79805(17) -1.0632(3) 0.49233(13)
H9B H 0.8728(19) -1.079(3) 0.4820(14)
C10B C 0.75221(16) -1.0012(3) 0.56172(13)
C11B C 0.80437(17) -0.9462(3) 0.63553(13)
C12B C 0.90625(18) -0.9913(3) 0.66181(13)
H10B H 0.9454(19) -1.061(4) 0.6366(15)
C13B C 0.92908(19) -0.9101(3) 0.73658(14)
H11B H 0.993(2) -0.926(4) 0.7647(17)
C14B C 0.8483(2) -0.8050(4) 0.76458(14)
H12B H 0.846(2) -0.736(4) 0.8116(17)
O2 O 0.48520(13) 0.1577(2) 0.95033(11)
C15 C 0.5629(2) 0.0189(4) 0.93338(16)
H13 H 0.531(2) -0.070(4) 0.8969(16)
H14 H 0.623(2) 0.084(4) 0.9052(17)
C16 C 0.60050(19) -0.0743(4) 1.00773(16)
H15 H 0.652(2) -0.180(4) 0.9942(17)
H16 H 0.638(2) 0.016(4) 1.0424(15)
O2B O 0.51480(13) -0.1577(2) 1.04967(11)
C15B C 0.4371(2) -0.0189(4) 1.06662(16)
H13B H 0.469(2) 0.070(4) 1.1031(16)
H14B H 0.377(2) -0.084(4) 1.0948(17)
C16B C 0.39950(19) 0.0743(4) 0.99227(16)
H15B H 0.348(2) 0.180(4) 1.0058(17)
H16B H 0.362(2) -0.016(4) 0.9576(15)
loop_
_geom_bond_atom_site_label_1
_geom_bond_atom_site_label_2
_geom_bond_site_symmetry_1
_geom_bond_site_symmetry_2
Li1 O1 1_555 1_555
O1 C1 1_555 1_555
C1 H1 1_555 1_555
H2 C1 1_555 1_555
C2 C1 1_555 1_555
H3 C2 1_555 1_555
H4 C2 1_555 1_555
S1 C11 1_555 1_555
N1 C3 1_555 1_555
C3 H5 1_555 1_555
N2 N3 1_555 1_555
C4 C3 1_555 1_555
H6 C4 1_555 1_555
N3 Li1 1_555 1_555
C5 C4 1_555 1_555
H7 C5 1_555 1_555
C6 C5 1_555 1_555
H8 C6 1_555 1_555
C7 N1 1_555 1_555
C8 N2 1_555 1_555
C9 C8 1_555 1_555
H9 C9 1_555 1_555
C10 N3 1_555 1_555
C11 C10 1_555 1_555
C12 C11 1_555 1_555
H10 C12 1_555 1_555
C13 C12 1_555 1_555
H11 C13 1_555 1_555
C14 S1 1_555 1_555
H12 C14 1_555 1_555
O2 C15 1_555 1_555
C15 H13 1_555 1_555
H14 C15 1_555 1_555
C16 C15 1_555 1_555
H15 C16 1_555 1_555
H16 C16 1_555 1_555
Li1B O1B 1_555 1_555
Li1_2 N1B 1_555 1_555
Li1B_2 N1 1_555 1_555
O1B C2 1_555 1_555
C1B O1B 1_555 1_555
H1B C1B 1_555 1_555
H2B C1B 1_555 1_555
C2B O1 1_555 1_555
H3B C2B 1_555 1_555
H4B C2B 1_555 1_555
S1B C11B 1_555 1_555
N1B C3B 1_555 1_555
N1_2 Li1B 1_555 1_555
N1B_2 Li1 1_555 1_555
C3B H5B 1_555 1_555
N2B Li1_2 1_555 1_555
N2_2 Li1B 1_555 1_555
N2B_2 Li1 1_555 1_555
C4B C3B 1_555 1_555
H6B C4B 1_555 1_555
N3B Li1B 1_555 1_555
C5B C4B 1_555 1_555
H7B C5B 1_555 1_555
C6B C5B 1_555 1_555
H8B C6B 1_555 1_555
C7B N1B 1_555 1_555
C8B N2B 1_555 1_555
C9B C8B 1_555 1_555
H9B C9B 1_555 1_555
C10B N3B 1_555 1_555
C11B C10B 1_555 1_555
C12B C11B 1_555 1_555
H10B C12B 1_555 1_555
C13B C12B 1_555 1_555
H11B C13B 1_555 1_555
C14B S1B 1_555 1_555
H12B C14B 1_555 1_555
O2B C16 1_555 1_555
C15B O2B 1_555 1_555
H13B C15B 1_555 1_555
H14B C15B 1_555 1_555
C16B O2 1_555 1_555
H15B C16B 1_555 1_555
H16B C16B 1_555 1_555
N2 Li1B_2 1_555 1_555
C6 C7 1_555 1_555
C7 C8 1_555 1_555
C9 C10 1_555 1_555
C13 C14 1_555 1_555
C1B C2B 1_555 1_555
N2B N3B 1_555 1_555
C6B C7B 1_555 1_555
C7B C8B 1_555 1_555
C9B C10B 1_555 1_555
C13B C14B 1_555 1_555
C15B C16B 1_555 1_555

#END
