
#######################################################################
#
#                 Cambridge Crystallographic Data Centre
#                                CCDC 
#
#######################################################################
#
# If this CIF has been generated from an entry in the Cambridge 
# Structural Database, then it will include bibliographic, chemical, 
# crystal, experimental, refinement or atomic coordinate data resulting 
# from the CCDC's data processing and validation procedures.
#
#######################################################################

data_KEMYIM
_symmetry_cell_setting           triclinic
_symmetry_space_group_name_H-M   'P -1'
_symmetry_Int_Tables_number      2
_space_group_name_Hall           '-P 1'
loop_
_symmetry_equiv_pos_site_id
_symmetry_equiv_pos_as_xyz
1 x,y,z
2 -x,-y,-z
_cell_length_a                   13.3041(3)
_cell_length_b                   13.4866(3)
_cell_length_c                   16.1856(4)
_cell_angle_alpha                69.9230(14)
_cell_angle_beta                 70.140(1)
_cell_angle_gamma                72.6340(13)
_cell_volume                     2510.48
loop_
_atom_site_label
_atom_site_type_symbol
_atom_site_fract_x
_atom_site_fract_y
_atom_site_fract_z
Cu1 Cu 0.5000 0.5000 0.5000
Cu2 Cu 0.5000 0.0000 1.0000
Cu3 Cu 0.0000 0.5000 1.0000
N1 N 0.4231(2) 0.4935(2) 0.63134(19)
H1 H 0.4467 0.4237 0.6646
N2 N 0.6023(2) 0.5724(2) 0.51473(18)
H2 H 0.5799 0.6463 0.4913
N3 N 0.2631(2) 0.4402(2) 0.6307(2)
N4 N 0.0642(2) 0.3254(2) 0.81219(19)
N5 N 0.0349(2) 0.3938(2) 0.9263(2)
N6 N 0.0016(2) 0.3803(2) 1.1153(2)
N7 N 0.0577(2) 0.2667(2) 1.23318(19)
N8 N 0.2964(2) 0.1380(2) 1.1295(2)
N9 N 0.3481(2) 0.0780(2) 0.99047(19)
H3 H 0.3020 0.0292 1.0202
N10 N 0.5332(2) 0.0013(2) 0.8680(2)
H4 H 0.5700 0.0567 0.8318
C1 C 0.3020(3) 0.5120(3) 0.6554(3)
H5 H 0.2730 0.5030 0.7220
H6 H 0.2731 0.5873 0.6244
C2 C 0.4635(3) 0.5660(3) 0.6588(3)
H7 H 0.4492 0.5460 0.7260
H8 H 0.4263 0.6419 0.6381
C3 C 0.5853(3) 0.5521(3) 0.6139(2)
H9 H 0.6154 0.6036 0.6252
H10 H 0.6231 0.4780 0.6395
C4 C 0.2813(3) 0.4578(3) 0.5344(2)
H11 H 0.2385 0.4155 0.5252
H12 H 0.2536 0.5350 0.5072
C5 C 0.2874(3) 0.3260(3) 0.6832(2)
H13 H 0.3626 0.2920 0.6551
H14 H 0.2834 0.3227 0.7463
C6 C 0.2074(3) 0.2633(3) 0.6859(2)
H15 H 0.2218 0.1896 0.7265
H16 H 0.2200 0.2568 0.6239
C7 C 0.0888(3) 0.3164(3) 0.7194(2)
H17 H 0.0409 0.2734 0.7183
H18 H 0.0733 0.3893 0.6779
C8 C 0.0542(3) 0.4139(3) 0.8366(2)
H19 H 0.0601 0.4828 0.7948
C9 C 0.0502(3) 0.2422(3) 0.8911(2)
H20 H 0.0522 0.1695 0.8959
C10 C 0.0330(3) 0.2847(3) 0.9603(2)
H21 H 0.0214 0.2457 1.0229
C11 C 0.0846(3) 0.3383(3) 1.1525(2)
H22 H 0.1545 0.3567 1.1253
C12 C -0.0834(3) 0.3315(3) 1.1762(2)
H23 H -0.1545 0.3453 1.1685
C13 C -0.0483(3) 0.2607(3) 1.2487(2)
H24 H -0.0893 0.2158 1.3003
C14 C 0.1332(3) 0.1999(3) 1.2894(2)
H25 H 0.1987 0.2315 1.2692
H26 H 0.0972 0.2001 1.3538
C15 C 0.1680(3) 0.0847(3) 1.2825(2)
H27 H 0.2248 0.0454 1.3156
H28 H 0.1045 0.0495 1.3133
C16 C 0.2125(3) 0.0748(3) 1.1852(2)
H29 H 0.1515 0.0989 1.1563
H30 H 0.2438 -0.0021 1.1867
C17 C 0.3053(3) 0.1699(3) 1.0331(2)
H31 H 0.2323 0.2072 1.0233
H32 H 0.3541 0.2221 1.0019
C18 C 0.3517(3) 0.1141(3) 0.8918(3)
H33 H 0.2774 0.1277 0.8847
H34 H 0.3791 0.1820 0.8625
C19 C 0.4266(3) 0.0272(3) 0.8469(3)
H35 H 0.4364 0.0531 0.7801
H36 H 0.3947 -0.0380 0.8706
C20 C 0.3983(3) 0.1017(3) 1.1539(3)
H37 H 0.3826 0.0917 1.2202
H38 H 0.4413 0.1590 1.1219
Cu3_2 Cu 1.0000 0.5000 0.0000
Cu3_3 Cu 1.0000 -0.5000 1.0000
N1A N 0.5769(2) 0.5065(2) 0.36866(19)
H1A H 0.5533 0.5763 0.3354
N2A N 0.3977(2) 0.4276(2) 0.48527(18)
H2A H 0.4201 0.3537 0.5087
N3A N 0.7369(2) 0.5598(2) 0.3693(2)
N4A N 0.9358(2) 0.6746(2) 0.18781(19)
N5A N 0.9651(2) 0.6062(2) 0.0737(2)
N5A_2 N -0.0349(2) 0.6062(2) 1.0737(2)
N6A N 0.9984(2) -0.3803(2) 0.8847(2)
N6A_2 N -0.0016(2) 0.6197(2) 0.8847(2)
N7A N 0.9423(2) -0.2667(2) 0.76682(19)
N8A N 0.7036(2) -0.1380(2) 0.8705(2)
N9A N 0.6519(2) -0.0780(2) 1.00953(19)
H3A H 0.6980 -0.0292 0.9798
N10A N 0.4668(2) -0.0013(2) 1.1320(2)
H4A H 0.4300 -0.0567 1.1682
C1A C 0.6980(3) 0.4880(3) 0.3446(3)
H5A H 0.7270 0.4970 0.2780
H6A H 0.7269 0.4127 0.3756
C2A C 0.5365(3) 0.4340(3) 0.3412(3)
H7A H 0.5508 0.4540 0.2740
H8A H 0.5737 0.3581 0.3619
C3A C 0.4147(3) 0.4479(3) 0.3861(2)
H9A H 0.3846 0.3964 0.3748
H10A H 0.3769 0.5220 0.3605
C4A C 0.7187(3) 0.5422(3) 0.4656(2)
H11A H 0.7615 0.5845 0.4748
H12A H 0.7464 0.4650 0.4928
C5A C 0.7126(3) 0.6740(3) 0.3168(2)
H13A H 0.6374 0.7080 0.3449
H14A H 0.7166 0.6773 0.2537
C6A C 0.7926(3) 0.7367(3) 0.3141(2)
H15A H 0.7782 0.8104 0.2735
H16A H 0.7800 0.7432 0.3761
C7A C 0.9112(3) 0.6836(3) 0.2806(2)
H17A H 0.9591 0.7266 0.2817
H18A H 0.9267 0.6107 0.3221
C8A C 0.9458(3) 0.5861(3) 0.1634(2)
H19A H 0.9399 0.5172 0.2052
C9A C 0.9498(3) 0.7578(3) 0.1089(2)
H20A H 0.9478 0.8305 0.1041
C10A C 0.9670(3) 0.7153(3) 0.0397(2)
H21A H 0.9786 0.7543 -0.0229
C11A C 0.9154(3) -0.3383(3) 0.8475(2)
H22A H 0.8455 -0.3567 0.8747
C12A C 1.0834(3) -0.3315(3) 0.8238(2)
H23A H 1.1545 -0.3453 0.8315
C13A C 1.0483(3) -0.2607(3) 0.7513(2)
H24A H 1.0893 -0.2158 0.6997
C14A C 0.8668(3) -0.1999(3) 0.7106(2)
H25A H 0.8013 -0.2315 0.7308
H26A H 0.9028 -0.2001 0.6462
C15A C 0.8320(3) -0.0847(3) 0.7175(2)
H27A H 0.7752 -0.0454 0.6844
H28A H 0.8955 -0.0495 0.6867
C16A C 0.7875(3) -0.0748(3) 0.8148(2)
H29A H 0.8485 -0.0989 0.8437
H30A H 0.7562 0.0021 0.8133
C17A C 0.6947(3) -0.1699(3) 0.9669(2)
H31A H 0.7677 -0.2072 0.9767
H32A H 0.6459 -0.2221 0.9981
C18A C 0.6483(3) -0.1141(3) 1.1082(3)
H33A H 0.7226 -0.1277 1.1153
H34A H 0.6209 -0.1820 1.1375
C19A C 0.5734(3) -0.0272(3) 1.1531(3)
H35A H 0.5636 -0.0531 1.2199
H36A H 0.6053 0.0380 1.1294
C20A C 0.6017(3) -0.1017(3) 0.8461(3)
H37A H 0.6174 -0.0917 0.7798
H38A H 0.5587 -0.1590 0.8781
O1 O 0.5469(2) 0.2156(2) 0.5198(2)
O2 O 0.6050(2) 0.31848(19) 0.56790(19)
C21 C 0.6192(3) 0.2396(3) 0.5375(3)
C22 C 0.7334(3) 0.1700(3) 0.5216(2)
C23 C 0.8186(3) 0.2008(3) 0.5312(2)
H39 H 0.8054 0.2671 0.5453
C24 C 0.9224(3) 0.1364(3) 0.5206(2)
H40 H 0.9795 0.1606 0.5259
C25 C 0.9457(3) 0.0361(3) 0.5022(2)
C26 C 0.8589(3) 0.0082(3) 0.4902(2)
H41 H 0.8716 -0.0575 0.4752
C27 C 0.7553(3) 0.0733(3) 0.4996(2)
H42 H 0.6987 0.0516 0.4910
O1A O 1.4531(2) -0.2156(2) 0.4802(2)
O2A O 1.3950(2) -0.31848(19) 0.43210(19)
C21A C 1.3808(3) -0.2396(3) 0.4625(3)
C22A C 1.2666(3) -0.1700(3) 0.4784(2)
C23A C 1.1814(3) -0.2008(3) 0.4688(2)
H39A H 1.1946 -0.2671 0.4547
C24A C 1.0776(3) -0.1364(3) 0.4794(2)
H40A H 1.0205 -0.1606 0.4741
C25A C 1.0543(3) -0.0361(3) 0.4978(2)
C26A C 1.1411(3) -0.0082(3) 0.5098(2)
H41A H 1.1284 0.0575 0.5248
C27A C 1.2447(3) -0.0733(3) 0.5004(2)
H42A H 1.3013 -0.0516 0.5090
O3 O 0.6015(3) 0.5616(4) -0.1324(2)
O4 O 0.6738(2) 0.6693(2) -0.2686(2)
O5 O -0.2212(2) 1.1088(3) -0.0798(2)
O6 O -0.1795(3) 1.2030(3) -0.2275(3)
C28 C 0.5952(3) 0.6461(4) -0.2009(3)
C29 C 0.4839(3) 0.7182(3) -0.2006(3)
C30 C 0.4666(3) 0.8070(3) -0.2734(3)
H43 H 0.5258 0.8220 -0.3257
C31 C 0.3643(3) 0.8743(3) -0.2709(3)
H44 H 0.3543 0.9348 -0.3214
C32 C 0.2763(3) 0.8540(3) -0.1953(3)
C33 C 0.2938(3) 0.7627(3) -0.1231(3)
H45 H 0.2345 0.7456 -0.0715
C34 C 0.3964(3) 0.6970(3) -0.1262(3)
H46 H 0.4067 0.6361 -0.0761
C35 C 0.1673(3) 0.9269(3) -0.1891(2)
C36 C 0.1337(3) 0.9967(3) -0.2663(3)
H47 H 0.1822 0.9985 -0.3252
C37 C 0.0305(3) 1.0632(3) -0.2579(3)
H48 H 0.0102 1.1114 -0.3109
C38 C -0.0439(3) 1.0601(3) -0.1722(3)
C39 C -0.0113(3) 0.9890(3) -0.0963(3)
H49 H -0.0615 0.9839 -0.0377
C40 C 0.0925(3) 0.9251(3) -0.1038(3)
H50 H 0.1133 0.8795 -0.0502
C41 C -0.1559(3) 1.1309(3) -0.1590(3)
O7 O 0.4353(2) 0.8253(2) 0.0392(2)
H51 H 0.4667 0.7605 0.0405
H52 H 0.3664 0.8458 0.0525
O8 O 0.8736(2) 0.5294(2) -0.2995(2)
H53 H 0.8724 0.4830 -0.3227
H54 H 0.8129 0.5721 -0.2901
O9 O 0.5632(3) 0.6532(3) 0.1885(3)
H55 H 0.5061 0.6953 0.2084
H56 H 0.5596 0.6350 0.1450
O10 O 0.8015(2) 0.4934(2) 0.0203(2)
H57 H 0.7985 0.4592 -0.0131
H58 H 0.7365 0.5280 0.0302
O11 O 0.3768(3) 0.7916(3) 0.2522(2)
H59 H 0.3825 0.7591 0.3054
H60 H 0.3169 0.7935 0.2443
O12 O 0.4223(3) 0.0788(2) 0.5372(2)
H61 H 0.3741 0.1205 0.5115
H62 H 0.4610 0.1209 0.5320
O13 O 1.2647(3) 0.2153(3) -0.5461(2)
H63 H 1.2834 0.2494 -0.6012
H64 H 1.2014 0.2534 -0.5357
O14 O 0.5514(4) 0.5934(3) 0.0435(3)
H65 H 0.5666 0.5842 -0.0085
H66 H 0.5089 0.5501 0.0687
O15 O 1.0584(3) 0.3395(3) -0.5125(3)
H67 H 1.0283 0.3643 -0.5555
H68 H 1.0768 0.4012 -0.5109
O16 O 0.7801(3) 0.4019(4) -0.1107(3)
H69 H 0.7247 0.4509 -0.1174
H70 H 0.8161 0.4419 -0.1563
O17 O 0.8680(2) 0.3755(2) -0.3774(2)
H71 H 0.8533 0.3234 -0.3318
H72 H 0.9257 0.3648 -0.4185
loop_
_geom_bond_atom_site_label_1
_geom_bond_atom_site_label_2
_geom_bond_site_symmetry_1
_geom_bond_site_symmetry_2
Cu1 N1 1_555 1_555
Cu2 N9 1_555 1_555
Cu3 N5 1_555 1_555
N1 H1 1_555 1_555
N2 Cu1 1_555 1_555
H2 N2 1_555 1_555
N3 C1 1_555 1_555
N4 C7 1_555 1_555
N5 C8 1_555 1_555
N6 Cu3 1_555 1_555
N7 C11 1_555 1_555
N8 C16 1_555 1_555
N9 H3 1_555 1_555
N10 Cu2 1_555 1_555
H4 N10 1_555 1_555
C1 N1 1_555 1_555
H5 C1 1_555 1_555
H6 C1 1_555 1_555
C2 N1 1_555 1_555
H7 C2 1_555 1_555
H8 C2 1_555 1_555
C3 N2 1_555 1_555
H9 C3 1_555 1_555
H10 C3 1_555 1_555
C4 N3 1_555 1_555
H11 C4 1_555 1_555
H12 C4 1_555 1_555
C5 N3 1_555 1_555
H13 C5 1_555 1_555
H14 C5 1_555 1_555
C6 C5 1_555 1_555
H15 C6 1_555 1_555
H16 C6 1_555 1_555
C7 C6 1_555 1_555
H17 C7 1_555 1_555
H18 C7 1_555 1_555
C8 N4 1_555 1_555
H19 C8 1_555 1_555
C9 N4 1_555 1_555
H20 C9 1_555 1_555
C10 N5 1_555 1_555
H21 C10 1_555 1_555
C11 N6 1_555 1_555
H22 C11 1_555 1_555
C12 N6 1_555 1_555
H23 C12 1_555 1_555
C13 N7 1_555 1_555
H24 C13 1_555 1_555
C14 N7 1_555 1_555
H25 C14 1_555 1_555
H26 C14 1_555 1_555
C15 C14 1_555 1_555
H27 C15 1_555 1_555
H28 C15 1_555 1_555
C16 C15 1_555 1_555
H29 C16 1_555 1_555
H30 C16 1_555 1_555
C17 N8 1_555 1_555
H31 C17 1_555 1_555
H32 C17 1_555 1_555
C18 N9 1_555 1_555
H33 C18 1_555 1_555
H34 C18 1_555 1_555
C19 N10 1_555 1_555
H35 C19 1_555 1_555
H36 C19 1_555 1_555
C20 N8 1_555 1_555
H37 C20 1_555 1_555
H38 C20 1_555 1_555
O1 C21 1_555 1_555
O2 C21 1_555 1_555
C21 C22 1_555 1_555
C22 C23 1_555 1_555
C23 H39 1_555 1_555
C24 C23 1_555 1_555
H40 C24 1_555 1_555
C25 C24 1_555 1_555
C26 C25 1_555 1_555
H41 C26 1_555 1_555
C27 C22 1_555 1_555
H42 C27 1_555 1_555
O3 C28 1_555 1_555
O4 C28 1_555 1_555
O5 C41 1_555 1_555
O6 C41 1_555 1_555
C28 C29 1_555 1_555
C29 C30 1_555 1_555
C30 H43 1_555 1_555
C31 C30 1_555 1_555
H44 C31 1_555 1_555
C32 C31 1_555 1_555
C33 C32 1_555 1_555
H45 C33 1_555 1_555
C34 C29 1_555 1_555
H46 C34 1_555 1_555
C35 C32 1_555 1_555
C36 C35 1_555 1_555
H47 C36 1_555 1_555
C37 C36 1_555 1_555
H48 C37 1_555 1_555
C38 C37 1_555 1_555
C39 C38 1_555 1_555
H49 C39 1_555 1_555
C40 C35 1_555 1_555
H50 C40 1_555 1_555
C41 C38 1_555 1_555
O7 H51 1_555 1_555
H52 O7 1_555 1_555
O8 H53 1_555 1_555
H54 O8 1_555 1_555
O9 H55 1_555 1_555
H56 O9 1_555 1_555
O10 H57 1_555 1_555
H58 O10 1_555 1_555
O11 H59 1_555 1_555
H60 O11 1_555 1_555
O12 H61 1_555 1_555
H62 O12 1_555 1_555
O13 H63 1_555 1_555
H64 O13 1_555 1_555
O14 H65 1_555 1_555
H66 O14 1_555 1_555
O15 H67 1_555 1_555
H68 O15 1_555 1_555
O16 H69 1_555 1_555
H70 O16 1_555 1_555
O17 H71 1_555 1_555
H72 O17 1_555 1_555
Cu3_2 N5A 1_555 1_555
Cu3_3 N6A 1_555 1_555
N1A Cu1 1_555 1_555
H1A N1A 1_555 1_555
N2A Cu1 1_555 1_555
H2A N2A 1_555 1_555
N3A C1A 1_555 1_555
N4A C7A 1_555 1_555
N5A C8A 1_555 1_555
N5A_2 Cu3 1_555 1_555
N6A C11A 1_555 1_555
N6A_2 Cu3 1_555 1_555
N7A C11A 1_555 1_555
N8A C16A 1_555 1_555
N9A Cu2 1_555 1_555
H3A N9A 1_555 1_555
N10A Cu2 1_555 1_555
H4A N10A 1_555 1_555
C1A N1A 1_555 1_555
H5A C1A 1_555 1_555
H6A C1A 1_555 1_555
C2A N1A 1_555 1_555
H7A C2A 1_555 1_555
H8A C2A 1_555 1_555
C3A N2A 1_555 1_555
H9A C3A 1_555 1_555
H10A C3A 1_555 1_555
C4A N2 1_555 1_555
H11A C4A 1_555 1_555
H12A C4A 1_555 1_555
C5A N3A 1_555 1_555
H13A C5A 1_555 1_555
H14A C5A 1_555 1_555
C6A C5A 1_555 1_555
H15A C6A 1_555 1_555
H16A C6A 1_555 1_555
C7A C6A 1_555 1_555
H17A C7A 1_555 1_555
H18A C7A 1_555 1_555
C8A N4A 1_555 1_555
H19A C8A 1_555 1_555
C9A N4A 1_555 1_555
H20A C9A 1_555 1_555
C10A N5A 1_555 1_555
H21A C10A 1_555 1_555
C11A H22A 1_555 1_555
C12A N6A 1_555 1_555
H23A C12A 1_555 1_555
C13A N7A 1_555 1_555
H24A C13A 1_555 1_555
C14A N7A 1_555 1_555
H25A C14A 1_555 1_555
H26A C14A 1_555 1_555
C15A C14A 1_555 1_555
H27A C15A 1_555 1_555
H28A C15A 1_555 1_555
C16A C15A 1_555 1_555
H29A C16A 1_555 1_555
H30A C16A 1_555 1_555
C17A N8A 1_555 1_555
H31A C17A 1_555 1_555
H32A C17A 1_555 1_555
C18A N9A 1_555 1_555
H33A C18A 1_555 1_555
H34A C18A 1_555 1_555
C19A N10A 1_555 1_555
H35A C19A 1_555 1_555
H36A C19A 1_555 1_555
C20A N10 1_555 1_555
H37A C20A 1_555 1_555
H38A C20A 1_555 1_555
O1A C21A 1_555 1_555
O2A C21A 1_555 1_555
C21A C22A 1_555 1_555
C22A C23A 1_555 1_555
C23A H39A 1_555 1_555
C24A C23A 1_555 1_555
H40A C24A 1_555 1_555
C25A C25 1_555 1_555
C26A C25A 1_555 1_555
H41A C26A 1_555 1_555
C27A C22A 1_555 1_555
H42A C27A 1_555 1_555
N9 C17 1_555 1_555
C2 C3 1_555 1_555
C4 N2A 1_555 1_555
C9 C10 1_555 1_555
C12 C13 1_555 1_555
C18 C19 1_555 1_555
C20 N10A 1_555 1_555
C26 C27 1_555 1_555
C33 C34 1_555 1_555
C39 C40 1_555 1_555
N3A C4A 1_555 1_555
N8A C20A 1_555 1_555
N9A C17A 1_555 1_555
C2A C3A 1_555 1_555
C9A C10A 1_555 1_555
C12A C13A 1_555 1_555
C18A C19A 1_555 1_555
C24A C25A 1_555 1_555
C26A C27A 1_555 1_555

#END
