
#######################################################################
#
#                 Cambridge Crystallographic Data Centre
#                                CCDC 
#
#######################################################################
#
# If this CIF has been generated from an entry in the Cambridge 
# Structural Database, then it will include bibliographic, chemical, 
# crystal, experimental, refinement or atomic coordinate data resulting 
# from the CCDC's data processing and validation procedures.
#
#######################################################################

data_KENCOX
_symmetry_cell_setting           monoclinic
_symmetry_space_group_name_H-M   'P 21/c'
_symmetry_Int_Tables_number      14
_space_group_name_Hall           '-P 2ybc'
loop_
_symmetry_equiv_pos_site_id
_symmetry_equiv_pos_as_xyz
1 x,y,z
2 -x,1/2+y,1/2-z
3 -x,-y,-z
4 x,1/2-y,1/2+z
_cell_length_a                   10.715(2)
_cell_length_b                   8.4923(14)
_cell_length_c                   15.983(3)
_cell_angle_alpha                90
_cell_angle_beta                 101.329(5)
_cell_angle_gamma                90
_cell_volume                     1426.04
loop_
_atom_site_label
_atom_site_type_symbol
_atom_site_fract_x
_atom_site_fract_y
_atom_site_fract_z
Cu1 Cu 0.5000 0.0000 0.5000
S1 S 0.30495(9) 0.02979(12) 0.74745(6)
N1 N 0.6225(2) 0.4264(3) 0.41930(17)
N2 N 0.6469(3) 0.4554(3) 0.50480(18)
N3 N 0.5539(2) 0.2205(3) 0.47615(17)
N4 N 1.1351(3) 0.1345(3) 0.37632(17)
N5 N 1.0986(3) 0.0547(4) 0.4410(2)
N6 N 1.3115(3) 0.0523(3) 0.45600(17)
N7 N 0.4819(3) 0.0750(4) 0.6420(2)
C1 C 0.8085(3) 0.5169(4) 0.3650(2)
C2 C 0.8575(3) 0.3807(4) 0.3352(2)
H1 H 0.8011 0.3011 0.3085
C3 C 0.9877(3) 0.3601(4) 0.3440(2)
C4 C 1.0691(3) 0.4777(4) 0.3821(2)
H2 H 1.1585 0.4649 0.3882
C5 C 1.0210(3) 0.6130(4) 0.4111(2)
H3 H 1.0774 0.6931 0.4371
C6 C 0.8912(3) 0.6330(4) 0.4027(2)
H4 H 0.8587 0.7267 0.4228
C7 C 0.6668(3) 0.5342(4) 0.3595(2)
H5 H 0.6470 0.6440 0.3730
H6 H 0.6216 0.5109 0.3006
C8 C 1.0401(3) 0.2120(4) 0.3109(2)
H7 H 0.9692 0.1379 0.2906
H8 H 1.0794 0.2393 0.2616
C9 C 0.6037(3) 0.3286(4) 0.5363(2)
H9 H 0.6068 0.3137 0.5955
C10 C 0.5677(3) 0.2868(4) 0.4031(2)
H10 H 0.5423 0.2413 0.3480
C11 C 1.2080(3) 0.0071(4) 0.4873(2)
H11 H 1.2138 -0.0534 0.5380
C12 C 1.2605(3) 0.1323(4) 0.3861(2)
H12 H 1.3075 0.1810 0.3485
C13 C 0.4078(3) 0.0583(4) 0.6859(2)
Cu1_2 Cu 1.5000 0.0000 0.5000
Cu1_3 Cu -0.5000 0.0000 0.5000
S1B S 0.69505(9) -0.02979(12) 0.25255(6)
N1B N 0.3775(2) -0.4264(3) 0.58070(17)
N2B N 0.3531(3) -0.4554(3) 0.49520(18)
N3B N 0.4461(2) -0.2205(3) 0.52385(17)
N4B N -0.1351(3) -0.1345(3) 0.62368(17)
N5B N -0.0986(3) -0.0547(4) 0.5590(2)
N6B N -0.3115(3) -0.0523(3) 0.54400(17)
N6_2 N 0.3115(3) 0.0523(3) 0.45600(17)
N6B_2 N 0.6885(3) -0.0523(3) 0.54400(17)
N7B N 0.5181(3) -0.0750(4) 0.3580(2)
C1B C 0.1915(3) -0.5169(4) 0.6350(2)
C2B C 0.1425(3) -0.3807(4) 0.6648(2)
H1B H 0.1989 -0.3011 0.6915
C3B C 0.0123(3) -0.3601(4) 0.6560(2)
C4B C -0.0691(3) -0.4777(4) 0.6179(2)
H2B H -0.1585 -0.4649 0.6118
C5B C -0.0210(3) -0.6130(4) 0.5889(2)
H3B H -0.0774 -0.6931 0.5629
C6B C 0.1088(3) -0.6330(4) 0.5973(2)
H4B H 0.1413 -0.7267 0.5772
C7B C 0.3332(3) -0.5342(4) 0.6405(2)
H5B H 0.3530 -0.6440 0.6270
H6B H 0.3784 -0.5109 0.6994
C8B C -0.0401(3) -0.2120(4) 0.6891(2)
H7B H 0.0308 -0.1379 0.7094
H8B H -0.0794 -0.2393 0.7384
C9B C 0.3963(3) -0.3286(4) 0.4637(2)
H9B H 0.3932 -0.3137 0.4045
C10B C 0.4323(3) -0.2868(4) 0.5969(2)
H10B H 0.4577 -0.2413 0.6520
C11B C -0.2080(3) -0.0071(4) 0.5127(2)
H11B H -0.2138 0.0534 0.4620
C12B C -0.2605(3) -0.1323(4) 0.6139(2)
H12B H -0.3075 -0.1810 0.6515
C13B C 0.5922(3) -0.0583(4) 0.3141(2)
loop_
_geom_bond_atom_site_label_1
_geom_bond_atom_site_label_2
_geom_bond_site_symmetry_1
_geom_bond_site_symmetry_2
Cu1 N3 1_555 1_555
S1 C13 1_555 1_555
N1 N2 1_555 1_555
N2 C9 1_555 1_555
N3 C9 1_555 1_555
N4 N5 1_555 1_555
N5 C11 1_555 1_555
N6 C11 1_555 1_555
N7 Cu1 1_555 1_555
C1 C2 1_555 1_555
C2 H1 1_555 1_555
C3 C2 1_555 1_555
C4 C3 1_555 1_555
H2 C4 1_555 1_555
C5 C4 1_555 1_555
H3 C5 1_555 1_555
C6 C1 1_555 1_555
H4 C6 1_555 1_555
C7 N1 1_555 1_555
H5 C7 1_555 1_555
H6 C7 1_555 1_555
C8 N4 1_555 1_555
H7 C8 1_555 1_555
H8 C8 1_555 1_555
C9 H9 1_555 1_555
C10 N1 1_555 1_555
H10 C10 1_555 1_555
C11 H11 1_555 1_555
C12 N4 1_555 1_555
H12 C12 1_555 1_555
C13 N7 1_555 1_555
Cu1_2 N6 1_555 1_555
Cu1_3 N6B 1_555 1_555
S1B C13B 1_555 1_555
N1B N2B 1_555 1_555
N2B C9B 1_555 1_555
N3B Cu1 1_555 1_555
N4B N5B 1_555 1_555
N5B C11B 1_555 1_555
N6B C11B 1_555 1_555
N6_2 Cu1 1_555 1_555
N6B_2 Cu1 1_555 1_555
N7B Cu1 1_555 1_555
C1B C2B 1_555 1_555
C2B H1B 1_555 1_555
C3B C2B 1_555 1_555
C4B C3B 1_555 1_555
H2B C4B 1_555 1_555
C5B C4B 1_555 1_555
H3B C5B 1_555 1_555
C6B C1B 1_555 1_555
H4B C6B 1_555 1_555
C7B N1B 1_555 1_555
H5B C7B 1_555 1_555
H6B C7B 1_555 1_555
C8B N4B 1_555 1_555
H7B C8B 1_555 1_555
H8B C8B 1_555 1_555
C9B N3B 1_555 1_555
H9B C9B 1_555 1_555
C10B N1B 1_555 1_555
H10B C10B 1_555 1_555
C11B H11B 1_555 1_555
C12B N4B 1_555 1_555
H12B C12B 1_555 1_555
C13B N7B 1_555 1_555
N3 C10 1_555 1_555
N6 C12 1_555 1_555
C1 C7 1_555 1_555
C3 C8 1_555 1_555
C5 C6 1_555 1_555
N3B C10B 1_555 1_555
N6B C12B 1_555 1_555
C1B C7B 1_555 1_555
C3B C8B 1_555 1_555
C5B C6B 1_555 1_555

#END
