
#######################################################################
#
#                 Cambridge Crystallographic Data Centre
#                                CCDC 
#
#######################################################################
#
# If this CIF has been generated from an entry in the Cambridge 
# Structural Database, then it will include bibliographic, chemical, 
# crystal, experimental, refinement or atomic coordinate data resulting 
# from the CCDC's data processing and validation procedures.
#
#######################################################################

data_KENDAK
_symmetry_cell_setting           monoclinic
_symmetry_space_group_name_H-M   'C 2/m'
_symmetry_Int_Tables_number      12
_space_group_name_Hall           '-C 2y'
loop_
_symmetry_equiv_pos_site_id
_symmetry_equiv_pos_as_xyz
1 x,y,z
2 -x,y,-z
3 1/2+x,1/2+y,z
4 1/2-x,1/2+y,-z
5 -x,-y,-z
6 x,-y,z
7 1/2-x,1/2-y,-z
8 1/2+x,1/2-y,z
_cell_length_a                   14.104(3)
_cell_length_b                   17.003(3)
_cell_length_c                   8.4344(19)
_cell_angle_alpha                90
_cell_angle_beta                 122.266(4)
_cell_angle_gamma                90
_cell_volume                     1710.32
loop_
_atom_site_label
_atom_site_type_symbol
_atom_site_fract_x
_atom_site_fract_y
_atom_site_fract_z
Cu1 Cu 0.2500 0.7500 1.0000
O1 O 0.2951(2) 0.85123(14) 0.9411(4)
O2 O 0.4634(2) 0.80113(15) 1.1377(4)
N1 N 0.3025(3) 0.6632(2) 0.6040(5)
N2 N 0.2067(3) 0.6224(2) 0.5446(5)
N3 N 0.2471(3) 0.69996(18) 0.7869(5)
C1 C 0.4374(3) 0.5706(2) 0.6227(5)
C2 C 0.5379(4) 0.5701(3) 0.7954(6)
H1 H 0.5724 0.6185 0.8547
C3 C 0.5881(5) 0.5000 0.8815(10)
H2 H 0.6569 0.5000 0.9996
C4 C 0.3883(4) 0.5000 0.5366(7)
H3 H 0.3203 0.5000 0.4173
C5 C 0.3766(4) 0.6459(2) 0.5337(6)
H4 H 0.4310 0.6893 0.5669
H5 H 0.3316 0.6404 0.3955
C6 C 0.1759(4) 0.6460(3) 0.6594(6)
C7 C 0.3261(3) 0.7094(2) 0.7474(6)
C8 C 0.4521(3) 0.9282(2) 1.0054(5)
C9 C 0.4058(4) 1.0000 1.0092(8)
H6 H 0.3402 1.0000 1.0144
C10 C 0.4020(3) 0.8538(2) 1.0304(5)
Cu1C Cu 0.2500 1.2500 1.0000
Cu1B Cu 0.7500 1.2500 1.0000
Cu1A Cu 0.7500 0.7500 1.0000
Cu1C_2 Cu 0.2500 0.2500 1.0000
O1E O 0.2951(2) 1.14877(14) 0.9411(4)
O1D O 0.7049(2) 1.14877(14) 1.0589(4)
O1A O 0.7049(2) 0.85123(14) 1.0589(4)
O1F O 0.2049(2) 0.64877(14) 1.0589(4)
O1C O 0.2049(2) 1.35123(14) 1.0589(4)
O2E O 0.4634(2) 1.19887(15) 1.1377(4)
O2D O 0.5366(2) 1.19887(15) 0.8623(4)
O2A O 0.5366(2) 0.80113(15) 0.8623(4)
N1E N 0.3025(3) 0.3368(2) 0.6040(5)
N1F N 0.1975(3) 0.8368(2) 1.3960(5)
N1C N 0.1975(3) 1.1632(2) 1.3960(5)
N2E N 0.2067(3) 0.3776(2) 0.5446(5)
N2F N 0.2933(3) 0.8776(2) 1.4554(5)
N2C N 0.2933(3) 1.1224(2) 1.4554(5)
N3E N 0.2471(3) 0.30004(18) 0.7869(5)
N3F N 0.2529(3) 0.80004(18) 1.2131(5)
N3C N 0.2529(3) 1.19996(18) 1.2131(5)
N3E_2 N 0.2471(3) 1.30004(18) 0.7869(5)
C1E C 0.4374(3) 0.4294(2) 0.6227(5)
C1F C 0.0626(3) 0.9294(2) 1.3773(5)
C1C C 0.0626(3) 1.0706(2) 1.3773(5)
C2E C 0.5379(4) 0.4299(3) 0.7954(6)
C2F C -0.0379(4) 0.9299(3) 1.2046(6)
C2C C -0.0379(4) 1.0701(3) 1.2046(6)
H1E H 0.5724 0.3815 0.8547
H1F H -0.0724 0.8815 1.1453
H1C H -0.0724 1.1185 1.1453
C3C C -0.0881(5) 1.0000 1.1185(10)
H2C H -0.1569 1.0000 1.0004
C4C C 0.1117(4) 1.0000 1.4634(7)
H3C H 0.1797 1.0000 1.5827
C5E C 0.3766(4) 0.3541(2) 0.5337(6)
C5F C 0.1234(4) 0.8541(2) 1.4663(6)
C5C C 0.1234(4) 1.1459(2) 1.4663(6)
H4E H 0.4310 0.3107 0.5669
H4F H 0.0690 0.8107 1.4331
H4C H 0.0690 1.1893 1.4331
H5E H 0.3316 0.3596 0.3955
H5F H 0.1684 0.8596 1.6045
H5C H 0.1684 1.1404 1.6045
C6E C 0.1759(4) 0.3540(3) 0.6594(6)
C6F C 0.3241(4) 0.8540(3) 1.3406(6)
C6C C 0.3241(4) 1.1460(3) 1.3406(6)
C7E C 0.3261(3) 0.2906(2) 0.7474(6)
C7F C 0.1739(3) 0.7906(2) 1.2526(6)
C7C C 0.1739(3) 1.2094(2) 1.2526(6)
C8A C 0.5479(3) 0.9282(2) 0.9946(5)
C8D C 0.5479(3) 1.0718(2) 0.9946(5)
C8E C 0.4521(3) 1.0718(2) 1.0054(5)
C9A C 0.5942(4) 1.0000 0.9908(8)
H6A H 0.6598 1.0000 0.9856
C10E C 0.4020(3) 1.1462(2) 1.0304(5)
C10D C 0.5980(3) 1.1462(2) 0.9696(5)
C10A C 0.5980(3) 0.8538(2) 0.9696(5)
loop_
_geom_bond_atom_site_label_1
_geom_bond_atom_site_label_2
_geom_bond_site_symmetry_1
_geom_bond_site_symmetry_2
Cu1 O1 1_555 1_555
O1 C10 1_555 1_555
O2 C10 1_555 1_555
N1 N2 1_555 1_555
N2 C6 1_555 1_555
N3 Cu1 1_555 1_555
C1 C2 1_555 1_555
C2 H1 1_555 1_555
C3 C2 1_555 1_555
H2 C3 1_555 1_555
C4 C1 1_555 1_555
H3 C4 1_555 1_555
C5 N1 1_555 1_555
H4 C5 1_555 1_555
H5 C5 1_555 1_555
C6 N3 1_555 1_555
C7 N1 1_555 1_555
C8 C9 1_555 1_555
C9 H6 1_555 1_555
C10 C8 1_555 1_555
Cu1C O1E 1_555 1_555
Cu1B O1D 1_555 1_555
Cu1A O1A 1_555 1_555
Cu1C_2 N3E 1_555 1_555
O1E C10E 1_555 1_555
O1D C10D 1_555 1_555
O1A C10A 1_555 1_555
O1F Cu1 1_555 1_555
O1C Cu1C 1_555 1_555
O2E C10E 1_555 1_555
O2D C10D 1_555 1_555
O2A C10A 1_555 1_555
N1E N2E 1_555 1_555
N1F N2F 1_555 1_555
N1C N2C 1_555 1_555
N2E C6E 1_555 1_555
N2F C6F 1_555 1_555
N2C C6C 1_555 1_555
N3E C6E 1_555 1_555
N3F Cu1 1_555 1_555
N3C Cu1C 1_555 1_555
N3E_2 Cu1C 1_555 1_555
C1E C4 1_555 1_555
C1F C2F 1_555 1_555
C1C C2C 1_555 1_555
C2E C3 1_555 1_555
C2F H1F 1_555 1_555
C2C H1C 1_555 1_555
H1E C2E 1_555 1_555
C3C C2F 1_555 1_555
H2C C3C 1_555 1_555
C4C C1F 1_555 1_555
H3C C4C 1_555 1_555
C5E N1E 1_555 1_555
C5F N1F 1_555 1_555
C5C N1C 1_555 1_555
H4E C5E 1_555 1_555
H4F C5F 1_555 1_555
H4C C5C 1_555 1_555
H5E C5E 1_555 1_555
H5F C5F 1_555 1_555
H5C C5C 1_555 1_555
C6F N3F 1_555 1_555
C6C N3C 1_555 1_555
C7E N1E 1_555 1_555
C7F N1F 1_555 1_555
C7C N1C 1_555 1_555
C8A C8 1_555 1_555
C8D C8E 1_555 1_555
C8E C9 1_555 1_555
C9A C8A 1_555 1_555
H6A C9A 1_555 1_555
C10E C8E 1_555 1_555
C10D C8D 1_555 1_555
C10A C8A 1_555 1_555
N3 C7 1_555 1_555
C1 C5 1_555 1_555
N3E C7E 1_555 1_555
N3F C7F 1_555 1_555
N3C C7C 1_555 1_555
C1E C2E 1_555 1_555
C1E C5E 1_555 1_555
C1F C5F 1_555 1_555
C1C C4C 1_555 1_555
C1C C5C 1_555 1_555
C2C C3C 1_555 1_555
C8D C9A 1_555 1_555

#END
