
#######################################################################
#
#                 Cambridge Crystallographic Data Centre
#                                CCDC 
#
#######################################################################
#
# If this CIF has been generated from an entry in the Cambridge 
# Structural Database, then it will include bibliographic, chemical, 
# crystal, experimental, refinement or atomic coordinate data resulting 
# from the CCDC's data processing and validation procedures.
#
#######################################################################

data_KENJEU
_symmetry_cell_setting           monoclinic
_symmetry_space_group_name_H-M   'P 21/c'
_symmetry_Int_Tables_number      14
_space_group_name_Hall           '-P 2ybc'
loop_
_symmetry_equiv_pos_site_id
_symmetry_equiv_pos_as_xyz
1 x,y,z
2 -x,1/2+y,1/2-z
3 -x,-y,-z
4 x,1/2-y,1/2+z
_cell_length_a                   24.972(2)
_cell_length_b                   13.6883(11)
_cell_length_c                   18.2727(14)
_cell_angle_alpha                90
_cell_angle_beta                 101.0970(10)
_cell_angle_gamma                90
_cell_volume                     6129.27
loop_
_atom_site_label
_atom_site_type_symbol
_atom_site_fract_x
_atom_site_fract_y
_atom_site_fract_z
Zn1 Zn -0.34769(2) 0.81465(4) 0.37182(3)
Zn2 Zn 0.03840(2) 1.10535(4) 0.22728(3)
Zn3 Zn -0.33866(2) 0.21270(4) 0.92922(3)
C1 C -0.16958(17) 1.0390(3) 0.4807(3)
C2 C -0.13886(17) 1.0152(3) 0.4288(3)
H1 H -0.1544 0.9805 0.3862
C3 C -0.08511(18) 1.0427(3) 0.4397(3)
C4 C -0.06111(17) 1.0961(3) 0.5018(3)
H2 H -0.0244 1.1133 0.5097
C5 C -0.09353(17) 1.1229(3) 0.5513(2)
C6 C -0.14718(18) 1.0946(3) 0.5425(3)
H3 H -0.1681 1.1124 0.5773
C7 C -0.24488(18) 0.9278(4) 0.4311(3)
H4 H -0.2238 0.8836 0.4102
C8 C -0.31236(18) 0.9989(4) 0.4642(3)
H5 H -0.3477 1.0129 0.4700
C9 C -0.26805(18) 1.0536(4) 0.4916(3)
H6 H -0.2670 1.1107 0.5195
C10 C -0.01749(17) 1.0736(3) 0.3592(3)
H7 H -0.0035 1.1314 0.3819
C11 C -0.0333(2) 0.9529(4) 0.2849(3)
H8 H -0.0318 0.9107 0.2454
C12 C -0.0648(2) 0.9404(4) 0.3350(3)
H9 H -0.0890 0.8891 0.3368
C13 C -0.02932(18) 1.2470(3) 0.6210(3)
H10 H -0.0088 1.2571 0.5843
C14 C -0.0595(2) 1.2550(5) 0.7223(3)
H11 H -0.0636 1.2733 0.7699
C15 C -0.0898(2) 1.1876(5) 0.6798(3)
H12 H -0.1181 1.1514 0.6925
C16 C -0.38555(18) 0.5563(3) 0.5821(3)
C17 C -0.35441(18) 0.5060(3) 0.6422(3)
H13 H -0.3171 0.4976 0.6452
C18 C -0.37967(18) 0.4692(3) 0.6967(3)
C19 C -0.43518(18) 0.4823(3) 0.6934(3)
H14 H -0.4521 0.4585 0.7309
C20 C -0.46476(18) 0.5318(3) 0.6329(3)
C21 C -0.44079(18) 0.5658(3) 0.5760(3)
H15 H -0.4618 0.5949 0.5341
C22 C -0.37461(19) 0.6794(4) 0.4873(3)
H16 H -0.4050 0.7168 0.4912
C23 C -0.30140(19) 0.6269(4) 0.4543(3)
H17 H -0.2719 0.6225 0.4303
C24 C -0.31195(19) 0.5643(4) 0.5060(3)
H18 H -0.2916 0.5095 0.5239
C25 C -0.36820(19) 0.3621(4) 0.8078(3)
H19 H -0.4046 0.3626 0.8128
C26 C -0.29358(19) 0.3955(4) 0.7687(3)
H20 H -0.2685 0.4214 0.7424
C27 C -0.2834(2) 0.3319(4) 0.8251(3)
H21 H -0.2491 0.3065 0.8450
C28 C -0.55151(18) 0.6238(4) 0.6006(3)
H22 H -0.5375 0.6762 0.5779
C29 C -0.60589(19) 0.5307(4) 0.6446(3)
H23 H -0.6375 0.5066 0.6578
C30 C -0.55722(19) 0.4860(4) 0.6579(3)
H24 H -0.5490 0.4263 0.6818
C31 C -0.51372(19) 0.8679(4) 0.3447(3)
H25 H -0.5260 0.9043 0.2983
C32 C -0.5522(2) 0.7801(4) 0.3442(4)
H26 H -0.5494 0.7380 0.3024
H27 H -0.5410 0.7427 0.3897
C33 C -0.6097(2) 0.8108(5) 0.3384(4)
H28 H -0.6321 0.7532 0.3397
H29 H -0.6219 0.8428 0.2908
C34 C -0.6177(2) 0.8792(4) 0.4002(3)
H30 H -0.6543 0.9071 0.3859
C35 C -0.5769(3) 0.9651(4) 0.4070(4)
H31 H -0.5880 1.0089 0.3651
H32 H -0.5784 1.0013 0.4522
C36 C -0.5201(2) 0.9341(5) 0.4087(4)
H33 H -0.5068 0.9003 0.4553
H34 H -0.4977 0.9917 0.4076
C37 C -0.4553(3) 0.8340(5) 0.3453(5)
C38 C -0.6160(2) 0.8230(4) 0.4743(4)
C39 C -0.26199(19) 0.7639(4) 0.2032(3)
H35 H -0.2887 0.7916 0.1621
C40 C -0.2085(2) 0.8180(4) 0.2078(3)
H36 H -0.1828 0.7958 0.2514
H37 H -0.2145 0.8873 0.2136
C41 C -0.1842(2) 0.8018(5) 0.1388(3)
H38 H -0.2080 0.8304 0.0959
H39 H -0.1492 0.8346 0.1450
C42 C -0.1766(2) 0.6944(5) 0.1243(3)
H40 H -0.1659 0.6890 0.0756
C43 C -0.2303(2) 0.6408(5) 0.1189(3)
H41 H -0.2244 0.5715 0.1127
H42 H -0.2557 0.6636 0.0752
C44 C -0.2549(2) 0.6564(4) 0.1874(3)
H43 H -0.2315 0.6267 0.2301
H44 H -0.2902 0.6243 0.1804
C45 C -0.2840(2) 0.7734(4) 0.2741(3)
C46 C -0.1306(3) 0.6453(6) 0.1828(3)
C47 C 0.1788(2) 0.8892(4) 0.0513(3)
H45 H 0.1703 0.8529 0.0043
C48 C 0.14521(19) 0.8442(4) 0.1040(4)
H46 H 0.1519 0.8799 0.1508
H47 H 0.1566 0.7771 0.1145
C49 C 0.0856(2) 0.8467(4) 0.0712(4)
H48 H 0.0785 0.8043 0.0278
H49 H 0.0654 0.8215 0.1074
C50 C 0.0656(2) 0.9490(4) 0.0484(3)
H50 H 0.0295 0.9409 0.0166
C51 C 0.1006(2) 0.9976(5) 0.0005(3)
H51 H 0.0943 0.9665 -0.0481
H52 H 0.0901 1.0656 -0.0065
C52 C 0.1614(2) 0.9917(4) 0.0348(4)
H53 H 0.1688 1.0296 0.0805
H54 H 0.1825 1.0197 0.0005
C53 C 0.2398(2) 0.8789(4) 0.0809(4)
C54 C 0.0569(2) 1.0109(5) 0.1142(3)
N1 N -0.29770(14) 0.9198(3) 0.4265(2)
N2 N -0.22495(14) 1.0076(3) 0.4697(2)
N3 N -0.00312(15) 1.0370(3) 0.2998(2)
N4 N -0.05492(14) 1.0182(3) 0.3837(2)
N5 N -0.02113(15) 1.2932(3) 0.6842(2)
N6 N -0.07113(15) 1.1823(3) 0.6147(2)
N7 N -0.34062(15) 0.6988(3) 0.4420(2)
N8 N -0.35885(15) 0.5967(3) 0.5278(2)
N9 N -0.33025(15) 0.3097(3) 0.8495(2)
N10 N -0.34855(14) 0.4152(3) 0.7571(2)
N11 N -0.60189(15) 0.6169(3) 0.6085(2)
N12 N -0.52194(15) 0.5454(3) 0.6295(2)
O1 O -0.41809(15) 0.8776(3) 0.3751(3)
O3 O -0.44823(17) 0.7540(4) 0.3141(3)
O5 O -0.65460(14) 0.7653(3) 0.4727(2)
O7 O -0.58010(16) 0.8368(3) 0.5301(2)
O9 O -0.33191(13) 0.8045(3) 0.27088(19)
O11 O -0.25491(14) 0.7504(3) 0.3349(2)
O13 O -0.13575(17) 0.5574(4) 0.2015(3)
O15 O -0.08995(15) 0.6937(3) 0.2061(2)
O17 O 0.26606(14) 0.8395(3) 0.0376(2)
O18 O 0.26113(15) 0.9095(3) 0.1441(3)
O19 O 0.07201(16) 1.0952(3) 0.1243(3)
O20 O 0.03069(17) 0.9742(3) 0.1580(2)
Zn2C Zn 0.03840(2) 1.39465(4) 0.72728(3)
Zn2A Zn -0.03840(2) 0.60535(4) 0.27272(3)
Zn3A Zn -0.66134(2) 0.71270(4) 0.57078(3)
Zn3B Zn 0.33866(2) 0.78730(4) 0.07078(3)
N5C N -0.02113(15) 1.2068(3) 0.1842(2)
N11A N -0.39811(15) 0.1169(3) 0.8915(2)
O5A O -0.34540(14) 0.2653(3) 1.0273(2)
O15A O 0.08995(15) 1.1937(3) 0.2939(2)
O17B O -0.26606(14) 0.1605(3) 0.9624(2)
O2 O 0.05747(17) 1.1955(4) 0.5017(3)
O4 O -0.14433(16) 0.7457(3) 0.3915(2)
O6 O -0.03672(19) 0.8028(4) 0.1186(3)
O8 O -0.7767(2) 0.5867(4) 0.7821(3)
O10 O -0.7633(2) 0.7532(5) 0.3715(3)
O12 O -0.5051(2) 0.6510(6) 0.1884(4)
O14 O -0.2151(6) 0.4322(7) 0.6444(10)
O16 O -0.4100(3) 0.7220(6) 0.1485(6)
O21? O -0.1731(12) 0.4141(17) 0.721(2)
O22? O -0.4716(4) 0.7042(7) 0.0537(6)
loop_
_geom_bond_atom_site_label_1
_geom_bond_atom_site_label_2
_geom_bond_site_symmetry_1
_geom_bond_site_symmetry_2
Zn1 N1 1_555 1_555
Zn2 N3 1_555 1_555
Zn3 N9 1_555 1_555
C1 C2 1_555 1_555
C2 H1 1_555 1_555
C3 C2 1_555 1_555
C4 C3 1_555 1_555
H2 C4 1_555 1_555
C5 C4 1_555 1_555
C6 C1 1_555 1_555
H3 C6 1_555 1_555
C7 H4 1_555 1_555
C8 H5 1_555 1_555
C9 C8 1_555 1_555
H6 C9 1_555 1_555
C10 H7 1_555 1_555
C11 H8 1_555 1_555
C12 C11 1_555 1_555
H9 C12 1_555 1_555
C13 H10 1_555 1_555
C14 H11 1_555 1_555
C15 C14 1_555 1_555
H12 C15 1_555 1_555
C16 C17 1_555 1_555
C17 H13 1_555 1_555
C18 C17 1_555 1_555
C19 C18 1_555 1_555
H14 C19 1_555 1_555
C20 C19 1_555 1_555
C21 C16 1_555 1_555
H15 C21 1_555 1_555
C22 H16 1_555 1_555
C23 H17 1_555 1_555
C24 C23 1_555 1_555
H18 C24 1_555 1_555
C25 H19 1_555 1_555
C26 H20 1_555 1_555
C27 C26 1_555 1_555
H21 C27 1_555 1_555
C28 H22 1_555 1_555
C29 H23 1_555 1_555
C30 C29 1_555 1_555
H24 C30 1_555 1_555
C31 H25 1_555 1_555
C32 C31 1_555 1_555
H26 C32 1_555 1_555
H27 C32 1_555 1_555
C33 C32 1_555 1_555
H28 C33 1_555 1_555
H29 C33 1_555 1_555
C34 C33 1_555 1_555
H30 C34 1_555 1_555
C35 C34 1_555 1_555
H31 C35 1_555 1_555
H32 C35 1_555 1_555
C36 C31 1_555 1_555
H33 C36 1_555 1_555
H34 C36 1_555 1_555
C37 C31 1_555 1_555
C38 C34 1_555 1_555
C39 H35 1_555 1_555
C40 C39 1_555 1_555
H36 C40 1_555 1_555
H37 C40 1_555 1_555
C41 C40 1_555 1_555
H38 C41 1_555 1_555
H39 C41 1_555 1_555
C42 C41 1_555 1_555
H40 C42 1_555 1_555
C43 C42 1_555 1_555
H41 C43 1_555 1_555
H42 C43 1_555 1_555
C44 C39 1_555 1_555
H43 C44 1_555 1_555
H44 C44 1_555 1_555
C45 C39 1_555 1_555
C46 C42 1_555 1_555
C47 H45 1_555 1_555
C48 C47 1_555 1_555
H46 C48 1_555 1_555
H47 C48 1_555 1_555
C49 C48 1_555 1_555
H48 C49 1_555 1_555
H49 C49 1_555 1_555
C50 C49 1_555 1_555
H50 C50 1_555 1_555
C51 C50 1_555 1_555
H51 C51 1_555 1_555
H52 C51 1_555 1_555
C52 C47 1_555 1_555
H53 C52 1_555 1_555
H54 C52 1_555 1_555
C53 C47 1_555 1_555
C54 C50 1_555 1_555
N1 C7 1_555 1_555
N2 C1 1_555 1_555
N3 C10 1_555 1_555
N4 C3 1_555 1_555
N5 C13 1_555 1_555
N6 C5 1_555 1_555
N7 Zn1 1_555 1_555
N8 C16 1_555 1_555
N9 C25 1_555 1_555
N10 C18 1_555 1_555
N11 C28 1_555 1_555
N12 C20 1_555 1_555
O1 Zn1 1_555 1_555
O3 C37 1_555 1_555
O5 C38 1_555 1_555
O7 C38 1_555 1_555
O9 Zn1 1_555 1_555
O11 C45 1_555 1_555
O13 C46 1_555 1_555
O15 C46 1_555 1_555
O17 C53 1_555 1_555
O18 C53 1_555 1_555
O19 Zn2 1_555 1_555
O20 Zn2 1_555 1_555
Zn2C N5 1_555 1_555
Zn2A O15 1_555 1_555
Zn3A N11 1_555 1_555
Zn3B O17 1_555 1_555
N5C Zn2 1_555 1_555
N11A Zn3 1_555 1_555
O5A Zn3 1_555 1_555
O15A Zn2 1_555 1_555
O17B Zn3 1_555 1_555
C5 C6 1_555 1_555
C7 N2 1_555 1_555
C8 N1 1_555 1_555
C9 N2 1_555 1_555
C10 N4 1_555 1_555
C11 N3 1_555 1_555
C12 N4 1_555 1_555
C13 N6 1_555 1_555
C14 N5 1_555 1_555
C15 N6 1_555 1_555
C20 C21 1_555 1_555
C22 N7 1_555 1_555
C22 N8 1_555 1_555
C23 N7 1_555 1_555
C24 N8 1_555 1_555
C25 N10 1_555 1_555
C26 N10 1_555 1_555
C27 N9 1_555 1_555
C28 N12 1_555 1_555
C29 N11 1_555 1_555
C30 N12 1_555 1_555
C35 C36 1_555 1_555
C37 O1 1_555 1_555
C43 C44 1_555 1_555
C45 O9 1_555 1_555
C51 C52 1_555 1_555
C54 O19 1_555 1_555
C54 O20 1_555 1_555
O5 Zn3A 1_555 1_555

#END
