
#######################################################################
#
#                 Cambridge Crystallographic Data Centre
#                                CCDC 
#
#######################################################################
#
# If this CIF has been generated from an entry in the Cambridge 
# Structural Database, then it will include bibliographic, chemical, 
# crystal, experimental, refinement or atomic coordinate data resulting 
# from the CCDC's data processing and validation procedures.
#
#######################################################################

data_KENJIY
_symmetry_cell_setting           monoclinic
_symmetry_space_group_name_H-M   'C 2/c'
_symmetry_Int_Tables_number      15
_space_group_name_Hall           '-C 2yn'
loop_
_symmetry_equiv_pos_site_id
_symmetry_equiv_pos_as_xyz
1 x,y,z
2 -x,y,1/2-z
3 1/2+x,1/2+y,z
4 1/2-x,1/2+y,1/2-z
5 -x,-y,-z
6 x,-y,1/2+z
7 1/2-x,1/2-y,-z
8 1/2+x,1/2-y,1/2+z
_cell_length_a                   19.460(9)
_cell_length_b                   16.088(8)
_cell_length_c                   17.972(7)
_cell_angle_alpha                90
_cell_angle_beta                 107.741(19)
_cell_angle_gamma                90
_cell_volume                     5358.96
loop_
_atom_site_label
_atom_site_type_symbol
_atom_site_fract_x
_atom_site_fract_y
_atom_site_fract_z
Zn1 Zn 0.5000 0.30421(7) 0.2500
Zn2 Zn 0.13575(4) 0.27523(6) 0.45889(6)
O1 O 0.4733(2) 0.3713(3) 0.3286(3)
O2 O 0.3733(2) 0.3925(3) 0.2327(3)
O3 O 0.1547(7) 0.3796(8) 0.4083(7)
O4 O 0.0779(6) 0.3194(6) 0.3059(6)
O5 O 0.2008(3) 0.7315(4) 0.0622(3)
O6 O 0.1764(7) 0.6037(9) 0.0823(6)
N1 N 0.3321(2) 0.1682(3) 0.0975(4)
N2 N 0.4298(2) 0.2265(3) 0.1772(4)
N3 N 0.0786(3) 0.2347(6) 0.0462(4)
N4 N -0.0275(9) 0.2640(11) 0.0578(11)
N5 N 0.1471(3) -0.0194(4) -0.0568(3)
N6 N 0.1376(3) -0.1559(4) -0.0756(3)
C1 C 0.2567(3) 0.1493(4) 0.0602(4)
C2 C 0.2050(3) 0.2047(5) 0.0682(4)
H1 H 0.2177 0.2554 0.0961
C3 C 0.1326(3) 0.1817(5) 0.0329(4)
C4 C 0.1135(3) 0.1113(5) -0.0107(4)
H2 H 0.0642 0.0993 -0.0367
C5 C 0.1670(3) 0.0579(5) -0.0164(4)
C6 C 0.2397(3) 0.0761(5) 0.0194(4)
H3 H 0.2765 0.0389 0.0156
C7 C 0.3584(3) 0.2287(4) 0.1484(4)
H4 H 0.3293 0.2694 0.1626
C8 C 0.3894(3) 0.1225(5) 0.0918(7)
H5 H 0.3877 0.0749 0.0601
C9 C 0.4489(3) 0.1588(5) 0.1404(7)
H6 H 0.4970 0.1404 0.1481
C10 C 0.0070(3) 0.2268(5) 0.0193(5)
H7 H -0.0162 0.1951 -0.0260
C11 C 0.0237(6) 0.2877(8) 0.1265(8)
H8 H 0.0157 0.3190 0.1679
C12 C 0.0881(6) 0.2572(8) 0.1231(8)
H9 H 0.1313 0.2523 0.1655
C13 C 0.1747(3) -0.0934(6) -0.0310(5)
H10 H 0.2157 -0.1013 0.0135
C14 C 0.0830(3) -0.1156(6) -0.1330(4)
H11 H 0.0470 -0.1425 -0.1737
C15 C 0.0889(3) -0.0333(6) -0.1220(5)
H12 H 0.0586 0.0079 -0.1533
C16 C 0.3147(3) 0.5025(4) 0.3159(4)
C17 C 0.2532(3) 0.4604(4) 0.3196(4)
H13 H 0.2578 0.4087 0.3463
C18 C 0.1848(3) 0.4941(4) 0.2840(4)
C19 C 0.1808(3) 0.5698(4) 0.2451(4)
H14 H 0.1345 0.5932 0.2210
C20 C 0.2415(3) 0.6127(4) 0.2399(4)
C21 C 0.3088(3) 0.5776(4) 0.2779(4)
H15 H 0.3514 0.6063 0.2774
C22 C 0.3884(3) 0.4624(5) 0.3534(5)
H16 H 0.4251 0.5068 0.3708
H17 H 0.3870 0.4309 0.4002
C23 C 0.4109(3) 0.4046(4) 0.2989(4)
C24 C 0.1171(4) 0.4485(5) 0.2827(5)
H18 H 0.0817 0.4905 0.2882
H19 H 0.0972 0.4235 0.2302
C25 C 0.1199(5) 0.3856(7) 0.3379(7)
C26 C 0.2366(4) 0.6926(5) 0.1962(4)
H20 H 0.2853 0.7160 0.2040
H21 H 0.2076 0.7336 0.2149
C27 C 0.1997(7) 0.6730(14) 0.1083(11)
Zn1_2 Zn -0.5000 0.30421(7) 0.2500
Zn2A Zn -0.13575(4) 0.27523(6) 0.04111(6)
Zn2D Zn -0.13575(4) -0.27523(6) 0.54111(6)
Zn2D_2 Zn -0.13575(4) 0.72477(6) 0.54111(6)
Zn2E Zn 0.13575(4) -0.27523(6) -0.04111(6)
Zn2E_2 Zn 0.13575(4) 0.72477(6) -0.04111(6)
O1A O -0.4733(2) 0.3713(3) 0.1714(3)
O1A_2 O 0.5267(2) 0.3713(3) 0.1714(3)
O2A O -0.3733(2) 0.3925(3) 0.2673(3)
O3A O -0.1547(7) 0.3796(8) 0.0917(7)
O4A O -0.0779(6) 0.3194(6) 0.1941(6)
O5A O -0.2008(3) 0.7315(4) 0.4378(3)
O5D O -0.2008(3) 0.2685(4) -0.0622(3)
O5E O 0.2008(3) 0.2685(4) 0.5622(3)
O6A O -0.1764(7) 0.6037(9) 0.4177(6)
N1A N -0.3321(2) 0.1682(3) 0.4025(4)
N2A N -0.4298(2) 0.2265(3) 0.3228(4)
N2A_2 N 0.5702(2) 0.2265(3) 0.3228(4)
N3A N -0.0786(3) 0.2347(6) 0.4538(4)
N4A N 0.0275(9) 0.2640(11) 0.4422(11)
N5A N -0.1471(3) -0.0194(4) 0.5568(3)
N6A N -0.1376(3) -0.1559(4) 0.5756(3)
N6D N -0.1376(3) 0.1559(4) 0.0756(3)
N6E N 0.1376(3) 0.1559(4) 0.4244(3)
C1A C -0.2567(3) 0.1493(4) 0.4398(4)
C2A C -0.2050(3) 0.2047(5) 0.4318(4)
H1A H -0.2177 0.2554 0.4039
C3A C -0.1326(3) 0.1817(5) 0.4671(4)
C4A C -0.1135(3) 0.1113(5) 0.5107(4)
H2A H -0.0642 0.0993 0.5367
C5A C -0.1670(3) 0.0579(5) 0.5164(4)
C6A C -0.2397(3) 0.0761(5) 0.4806(4)
H3A H -0.2765 0.0389 0.4844
C7A C -0.3584(3) 0.2287(4) 0.3516(4)
H4A H -0.3293 0.2694 0.3374
C8A C -0.3894(3) 0.1225(5) 0.4082(7)
H5A H -0.3877 0.0749 0.4399
C9A C -0.4489(3) 0.1588(5) 0.3596(7)
H6A H -0.4970 0.1404 0.3519
C10A C -0.0070(3) 0.2268(5) 0.4807(5)
H7A H 0.0162 0.1951 0.5260
C11A C -0.0237(6) 0.2877(8) 0.3735(8)
H8A H -0.0157 0.3190 0.3321
C12A C -0.0881(6) 0.2572(8) 0.3769(8)
H9A H -0.1313 0.2523 0.3345
C13A C -0.1747(3) -0.0934(6) 0.5310(5)
H10A H -0.2157 -0.1013 0.4865
C14A C -0.0830(3) -0.1156(6) 0.6330(4)
H11A H -0.0470 -0.1425 0.6737
C15A C -0.0889(3) -0.0333(6) 0.6220(5)
H12A H -0.0586 0.0079 0.6533
C16A C -0.3147(3) 0.5025(4) 0.1841(4)
C17A C -0.2532(3) 0.4604(4) 0.1804(4)
H13A H -0.2578 0.4087 0.1537
C18A C -0.1848(3) 0.4941(4) 0.2160(4)
C19A C -0.1808(3) 0.5698(4) 0.2549(4)
H14A H -0.1345 0.5932 0.2790
C20A C -0.2415(3) 0.6127(4) 0.2601(4)
C21A C -0.3088(3) 0.5776(4) 0.2221(4)
H15A H -0.3514 0.6063 0.2226
C22A C -0.3884(3) 0.4624(5) 0.1466(5)
H16A H -0.4251 0.5068 0.1292
H17A H -0.3870 0.4309 0.0998
C23A C -0.4109(3) 0.4046(4) 0.2011(4)
C24A C -0.1171(4) 0.4485(5) 0.2173(5)
H18A H -0.0817 0.4905 0.2118
H19A H -0.0972 0.4235 0.2698
C25A C -0.1199(5) 0.3856(7) 0.1621(7)
C26A C -0.2366(4) 0.6926(5) 0.3038(4)
H20A H -0.2853 0.7160 0.2960
H21A H -0.2076 0.7336 0.2851
C27A C -0.1997(7) 0.6730(14) 0.3917(11)
O7 O 0.2380(8) 0.4189(19) 0.1362(7)
O8 O 0.0512(10) 0.5431(12) 0.0162(13)
C28? C 0.2366(4) 0.6926(5) 0.1962(4)
C29? C 0.1827(11) 0.7112(16) 0.1165(15)
C30? C 0.0070(3) 0.2268(5) 0.0193(5)
C31? C 0.0161(8) 0.3562(9) 0.0571(11)
C32? C 0.0832(7) 0.3339(9) 0.0624(11)
H22? H 0.2850 0.7021 0.1904
H23? H 0.2295 0.7366 0.2317
H24? H -0.0161 0.1789 -0.0079
H25? H 0.0025 0.4104 0.0683
H26? H 0.1247 0.3685 0.0733
N7? N -0.0297(10) 0.2930(13) 0.0342(12)
O9? O 0.1424(9) 0.4190(10) 0.4083(9)
O10? O 0.1345(5) 0.3155(6) 0.3607(7)
O11? O 0.1191(7) 0.6984(16) 0.1100(11)
O12? O 0.2226(9) 0.371(2) 0.1457(10)
O13? O 0.0596(7) 0.2368(10) 0.2234(11)
loop_
_geom_bond_atom_site_label_1
_geom_bond_atom_site_label_2
_geom_bond_site_symmetry_1
_geom_bond_site_symmetry_2
Zn1 O1 1_555 1_555
Zn2 O3 1_555 1_555
O1 C23 1_555 1_555
O2 C23 1_555 1_555
O3 C25 1_555 1_555
O4 C25 1_555 1_555
O5 C27 1_555 1_555
O6 C27 1_555 1_555
N1 C1 1_555 1_555
N2 Zn1 1_555 1_555
N3 C3 1_555 1_555
N4 C10 1_555 1_555
N5 C5 1_555 1_555
N6 C13 1_555 1_555
C1 C2 1_555 1_555
C2 H1 1_555 1_555
C3 C2 1_555 1_555
C4 C3 1_555 1_555
H2 C4 1_555 1_555
C5 C4 1_555 1_555
C6 C1 1_555 1_555
H3 C6 1_555 1_555
C7 N1 1_555 1_555
H4 C7 1_555 1_555
C8 N1 1_555 1_555
H5 C8 1_555 1_555
C9 N2 1_555 1_555
H6 C9 1_555 1_555
C10 N3 1_555 1_555
H7 C10 1_555 1_555
C11 N4 1_555 1_555
H8 C11 1_555 1_555
C12 N3 1_555 1_555
H9 C12 1_555 1_555
C13 N5 1_555 1_555
H10 C13 1_555 1_555
C14 N6 1_555 1_555
H11 C14 1_555 1_555
C15 N5 1_555 1_555
H12 C15 1_555 1_555
C16 C17 1_555 1_555
C17 H13 1_555 1_555
C18 C17 1_555 1_555
C19 C18 1_555 1_555
H14 C19 1_555 1_555
C20 C19 1_555 1_555
C21 C16 1_555 1_555
H15 C21 1_555 1_555
C22 C16 1_555 1_555
H16 C22 1_555 1_555
H17 C22 1_555 1_555
C23 C22 1_555 1_555
C24 C18 1_555 1_555
H18 C24 1_555 1_555
H19 C24 1_555 1_555
C25 C24 1_555 1_555
C26 C20 1_555 1_555
H20 C26 1_555 1_555
H21 C26 1_555 1_555
C27 C26 1_555 1_555
Zn1_2 O1A 1_555 1_555
Zn2A N4 1_555 1_555
Zn2D N6A 1_555 1_555
Zn2D_2 O5A 1_555 1_555
Zn2E N6 1_555 1_555
Zn2E_2 O5 1_555 1_555
O1A C23A 1_555 1_555
O1A_2 Zn1 1_555 1_555
O2A C23A 1_555 1_555
O3A Zn2A 1_555 1_555
O4A C25A 1_555 1_555
O5A C27A 1_555 1_555
O5D Zn2A 1_555 1_555
O5E Zn2 1_555 1_555
O6A C27A 1_555 1_555
N1A C1A 1_555 1_555
N2A Zn1_2 1_555 1_555
N2A_2 Zn1 1_555 1_555
N3A C3A 1_555 1_555
N4A Zn2 1_555 1_555
N5A C5A 1_555 1_555
N6A C13A 1_555 1_555
N6D Zn2A 1_555 1_555
N6E Zn2 1_555 1_555
C1A C2A 1_555 1_555
C2A H1A 1_555 1_555
C3A C2A 1_555 1_555
C4A C3A 1_555 1_555
H2A C4A 1_555 1_555
C5A C4A 1_555 1_555
C6A C1A 1_555 1_555
H3A C6A 1_555 1_555
C7A N1A 1_555 1_555
H4A C7A 1_555 1_555
C8A N1A 1_555 1_555
H5A C8A 1_555 1_555
C9A N2A 1_555 1_555
H6A C9A 1_555 1_555
C10A N3A 1_555 1_555
H7A C10A 1_555 1_555
C11A N4A 1_555 1_555
H8A C11A 1_555 1_555
C12A N3A 1_555 1_555
H9A C12A 1_555 1_555
C13A N5A 1_555 1_555
H10A C13A 1_555 1_555
C14A N6A 1_555 1_555
H11A C14A 1_555 1_555
C15A N5A 1_555 1_555
H12A C15A 1_555 1_555
C16A C17A 1_555 1_555
C17A H13A 1_555 1_555
C18A C17A 1_555 1_555
C19A C18A 1_555 1_555
H14A C19A 1_555 1_555
C20A C19A 1_555 1_555
C21A C16A 1_555 1_555
H15A C21A 1_555 1_555
C22A C16A 1_555 1_555
H16A C22A 1_555 1_555
H17A C22A 1_555 1_555
C23A C22A 1_555 1_555
C24A C18A 1_555 1_555
H18A C24A 1_555 1_555
H19A C24A 1_555 1_555
C25A O3A 1_555 1_555
C26A C20A 1_555 1_555
H20A C26A 1_555 1_555
H21A C26A 1_555 1_555
C27A C26A 1_555 1_555
N2 C7 1_555 1_555
C5 C6 1_555 1_555
C8 C9 1_555 1_555
C11 C12 1_555 1_555
C14 C15 1_555 1_555
C20 C21 1_555 1_555
N2A C7A 1_555 1_555
N4A C10A 1_555 1_555
C5A C6A 1_555 1_555
C8A C9A 1_555 1_555
C11A C12A 1_555 1_555
C14A C15A 1_555 1_555
C20A C21A 1_555 1_555
C24A C25A 1_555 1_555

#END
