
#######################################################################
#
#                 Cambridge Crystallographic Data Centre
#                                CCDC 
#
#######################################################################
#
# If this CIF has been generated from an entry in the Cambridge 
# Structural Database, then it will include bibliographic, chemical, 
# crystal, experimental, refinement or atomic coordinate data resulting 
# from the CCDC's data processing and validation procedures.
#
#######################################################################

data_KENKAR
_symmetry_cell_setting           orthorhombic
_symmetry_space_group_name_H-M   'C 2 2 21'
_symmetry_Int_Tables_number      20
_space_group_name_Hall           'C 2n 2'
loop_
_symmetry_equiv_pos_site_id
_symmetry_equiv_pos_as_xyz
1 x,y,z
2 -x,-y,1/2+z
3 -x,y,1/2-z
4 x,-y,-z
5 1/2+x,1/2+y,z
6 1/2-x,1/2-y,1/2+z
7 1/2-x,1/2+y,1/2-z
8 1/2+x,1/2-y,-z
_cell_length_a                   8.7629(7)
_cell_length_b                   15.2538(12)
_cell_length_c                   17.0228(14)
_cell_angle_alpha                90
_cell_angle_beta                 90
_cell_angle_gamma                90
_cell_volume                     2275.4
loop_
_atom_site_label
_atom_site_type_symbol
_atom_site_fract_x
_atom_site_fract_y
_atom_site_fract_z
Zn1 Zn 0.46770(3) 0.11381(2) 0.473006(17)
N1 N 0.5754(3) 0.06717(15) 0.57858(13)
N2 N 0.5527(3) -0.01598(15) 0.60248(13)
N3 N 0.6019(3) -0.02567(19) 0.67417(14)
N4 N 0.6609(3) 0.05000(17) 0.69927(14)
N5 N 0.7507(3) 0.23429(17) 0.70809(12)
H1 H 0.7369 0.2142 0.7548
N6 N 0.8237(3) 0.32169(16) 0.61306(14)
N7 N 0.8306(3) 0.29852(19) 0.45563(13)
N8 N 0.7921(4) 0.2844(2) 0.37898(15)
N9 N 0.6854(4) 0.2257(2) 0.37686(14)
N10 N 0.6482(3) 0.20067(17) 0.45053(13)
C1 C 0.6428(3) 0.1052(2) 0.63910(15)
C2 C 0.7039(3) 0.19492(19) 0.64022(17)
C3 C 0.8215(4) 0.3093(2) 0.68997(16)
H2 H 0.8635 0.3477 0.7265
C4 C 0.7471(3) 0.2497(2) 0.58210(15)
C5 C 0.7401(3) 0.2471(2) 0.49691(16)
Zn1C Zn 0.46770(3) -0.11381(2) 0.526994(17)
Zn1G Zn 0.96770(3) 0.38619(2) 0.526994(17)
Zn1D Zn 0.96770(3) -0.38619(2) 0.473006(17)
N1C N 0.5754(3) -0.06717(15) 0.42142(13)
N2C N 0.5527(3) 0.01598(15) 0.39752(13)
N3C N 0.6019(3) 0.02567(19) 0.32583(14)
N4C N 0.6609(3) -0.05000(17) 0.30073(14)
N5C N 0.7507(3) -0.23429(17) 0.29191(12)
H1C H 0.7369 -0.2142 0.2452
N6C N 0.8237(3) -0.32169(16) 0.38694(14)
N6G N 0.3237(3) 0.17831(16) 0.38694(14)
N6D N 0.3237(3) -0.17831(16) 0.61306(14)
N7C N 0.8306(3) -0.29852(19) 0.54437(13)
N7G N 0.3306(3) 0.20148(19) 0.54437(13)
N7D N 0.3306(3) -0.20148(19) 0.45563(13)
N8C N 0.7921(4) -0.2844(2) 0.62102(15)
N9C N 0.6854(4) -0.2257(2) 0.62314(14)
N10C N 0.6482(3) -0.20067(17) 0.54947(13)
C1C C 0.6428(3) -0.1052(2) 0.36090(15)
C2C C 0.7039(3) -0.19492(19) 0.35978(17)
C3C C 0.8215(4) -0.3093(2) 0.31003(16)
H2C H 0.8635 -0.3477 0.2735
C4C C 0.7471(3) -0.2497(2) 0.41790(15)
C5C C 0.7401(3) -0.2471(2) 0.50309(16)
O1 O 0.3037(4) 0.0000 0.5000
H3 H 0.2395 -0.0133 0.4551
H3C H 0.2395 0.0133 0.5449
loop_
_geom_bond_atom_site_label_1
_geom_bond_atom_site_label_2
_geom_bond_site_symmetry_1
_geom_bond_site_symmetry_2
Zn1 N1 1_555 1_555
N1 N2 1_555 1_555
N2 N3 1_555 1_555
N3 N4 1_555 1_555
N4 C1 1_555 1_555
N5 H1 1_555 1_555
N6 C3 1_555 1_555
N7 N8 1_555 1_555
N8 N9 1_555 1_555
N9 N10 1_555 1_555
N10 Zn1 1_555 1_555
C1 N1 1_555 1_555
C2 N5 1_555 1_555
C3 N5 1_555 1_555
H2 C3 1_555 1_555
C4 N6 1_555 1_555
C5 N7 1_555 1_555
O1 H3 1_555 1_555
Zn1C N2 1_555 1_555
Zn1G N6 1_555 1_555
Zn1D N6C 1_555 1_555
N1C Zn1C 1_555 1_555
N2C Zn1 1_555 1_555
N3C N2C 1_555 1_555
N4C N3C 1_555 1_555
N5C H1C 1_555 1_555
N6C C3C 1_555 1_555
N6G Zn1 1_555 1_555
N6D Zn1C 1_555 1_555
N7C Zn1D 1_555 1_555
N7G Zn1 1_555 1_555
N7D Zn1C 1_555 1_555
N8C N7C 1_555 1_555
N9C N8C 1_555 1_555
N10C Zn1C 1_555 1_555
C1C N1C 1_555 1_555
C2C N5C 1_555 1_555
C3C N5C 1_555 1_555
H2C C3C 1_555 1_555
C4C N6C 1_555 1_555
C5C N7C 1_555 1_555
H3C O1 1_555 1_555
N7 Zn1G 1_555 1_555
N10 C5 1_555 1_555
C1 C2 1_555 1_555
C2 C4 1_555 1_555
C4 C5 1_555 1_555
N1C N2C 1_555 1_555
N4C C1C 1_555 1_555
N9C N10C 1_555 1_555
N10C C5C 1_555 1_555
C1C C2C 1_555 1_555
C2C C4C 1_555 1_555
C4C C5C 1_555 1_555

#END
