
#######################################################################
#
#                 Cambridge Crystallographic Data Centre
#                                CCDC 
#
#######################################################################
#
# If this CIF has been generated from an entry in the Cambridge 
# Structural Database, then it will include bibliographic, chemical, 
# crystal, experimental, refinement or atomic coordinate data resulting 
# from the CCDC's data processing and validation procedures.
#
#######################################################################

data_KENKOD
_symmetry_cell_setting           monoclinic
_symmetry_space_group_name_H-M   'P 21/c'
_symmetry_Int_Tables_number      14
_space_group_name_Hall           '-P 2ybc'
loop_
_symmetry_equiv_pos_site_id
_symmetry_equiv_pos_as_xyz
1 x,y,z
2 -x,1/2+y,1/2-z
3 -x,-y,-z
4 x,1/2-y,1/2+z
_cell_length_a                   10.311(1)
_cell_length_b                   13.170(1)
_cell_length_c                   19.000(2)
_cell_angle_alpha                90
_cell_angle_beta                 91.895(7)
_cell_angle_gamma                90
_cell_volume                     2578.71
loop_
_atom_site_label
_atom_site_type_symbol
_atom_site_fract_x
_atom_site_fract_y
_atom_site_fract_z
Zn1 Zn 0.4498(1) 0.6630(1) 0.7182(1)
Zn2 Zn 0.6449(1) 0.4887(1) 0.7836(1)
O1 O 0.6133(3) 0.7295(2) 0.7358(2)
O2 O 0.7419(4) 0.6155(2) 0.7872(3)
C1 C 0.7168(5) 0.7032(4) 0.7668(3)
C2 C 0.8165(5) 0.7820(3) 0.7811(3)
C3 C 0.9344(7) 0.7565(5) 0.8118(5)
C4 C 1.0287(8) 0.8332(7) 0.8209(6)
C5 C 0.9995(9) 0.9324(6) 0.8052(6)
C6 C 0.8820(7) 0.9591(5) 0.7767(5)
C7 C 0.7895(5) 0.8822(4) 0.7636(4)
O3 O 0.4446(4) 0.5491(2) 0.6540(2)
O4 O 0.5995(4) 0.4426(3) 0.6890(2)
C8 C 0.5106(5) 0.4696(3) 0.6473(3)
C9 C 0.4800(5) 0.4039(3) 0.5853(3)
C10 C 0.3753(8) 0.4292(5) 0.5398(4)
C11 C 0.3596(11) 0.3744(7) 0.4756(6)
C12 C 0.4353(13) 0.2910(8) 0.4643(6)
C13 C 0.5311(10) 0.2598(5) 0.5138(5)
C14 C 0.5552(7) 0.3197(4) 0.5734(3)
O5 O 0.3632(3) 0.6218(2) 0.8020(2)
O6 O 0.4963(3) 0.5015(2) 0.8421(2)
C15 C 0.3941(5) 0.5549(3) 0.8459(3)
C16 C 0.3095(5) 0.5364(3) 0.9052(3)
C17 C 0.3434(6) 0.4686(4) 0.9554(4)
C18 C 0.2702(10) 0.4494(8) 1.0160(5)
C19 C 0.1660(14) 0.5163(14) 1.0155(7)
C20 C 0.1261(13) 0.5851(12) 0.9604(8)
C21 C 0.1935(7) 0.5962(6) 0.9072(4)
O7 O 0.3536(3) 0.7748(2) 0.6769(2)
O8 O 0.7772(3) 0.4031(2) 0.8269(2)
C22 C 0.2461(4) 0.8120(3) 0.6607(2)
C23 C 0.1429(5) 0.7545(3) 0.6224(3)
C24 C 0.0178(6) 0.7943(6) 0.6183(6)
C25 C -0.0749(12) 0.7382(12) 0.5836(13)
C26 C -0.0346(15) 0.6545(11) 0.5397(13)
C27 C 0.0841(10) 0.6169(7) 0.5419(8)
C28 C 0.1763(7) 0.6692(4) 0.5855(4)
C22A C 0.7539(4) 0.3120(3) 0.8393(2)
O8A O 0.2228(3) 0.9031(2) 0.6731(2)
O7A O 0.6464(3) 0.2748(2) 0.8231(2)
C23A C 0.8571(5) 0.2545(3) 0.8776(3)
Zn2A Zn 0.3551(1) 0.9887(1) 0.7164(1)
Zn1A Zn 0.5502(1) 0.1630(1) 0.7818(1)
C24A C 0.9822(6) 0.2943(6) 0.8817(6)
C28A C 0.8237(7) 0.1692(4) 0.9145(4)
O2A O 0.2581(4) 1.1155(2) 0.7128(3)
O4A O 0.4005(4) 0.9426(3) 0.8110(2)
O6A O 0.5037(3) 1.0015(2) 0.6579(2)
O1A O 0.3867(3) 0.2295(2) 0.7642(2)
O3A O 0.5554(4) 0.0491(2) 0.8460(2)
O5A O 0.6368(3) 0.1218(2) 0.6980(2)
C25A C 1.0749(12) 0.2382(12) 0.9164(13)
C27A C 0.9159(10) 0.1169(7) 0.9581(8)
C1A C 0.2832(5) 1.2032(4) 0.7332(3)
C8A C 0.4894(5) 0.9696(3) 0.8527(3)
C15A C 0.6059(5) 1.0549(3) 0.6541(3)
C1A_2 C 0.2832(5) 0.2032(4) 0.7332(3)
C8A_2 C 0.4894(5) -0.0304(3) 0.8527(3)
C15A_2 C 0.6059(5) 0.0549(3) 0.6541(3)
C26A C 1.0346(15) 0.1545(11) 0.9603(13)
O1A_2 O 0.3867(3) 1.2295(2) 0.7642(2)
C2A C 0.1835(5) 1.2820(3) 0.7189(3)
O3A_2 O 0.5554(4) 1.0491(2) 0.8460(2)
C9A C 0.5200(5) 0.9039(3) 0.9147(3)
O5A_2 O 0.6368(3) 1.1218(2) 0.6980(2)
C16A C 0.6905(5) 1.0364(3) 0.5948(3)
C3A C 0.0656(7) 1.2565(5) 0.6882(5)
C7A C 0.2105(5) 1.3822(4) 0.7364(4)
C10A C 0.6247(8) 0.9292(5) 0.9602(4)
C14A C 0.4448(7) 0.8197(4) 0.9266(3)
C17A C 0.6566(6) 0.9686(4) 0.5446(4)
C21A C 0.8065(7) 1.0962(6) 0.5928(4)
C4A C -0.0287(8) 1.3332(7) 0.6791(6)
C6A C 0.1180(7) 1.4591(5) 0.7233(5)
C11A C 0.6404(11) 0.8744(7) 1.0244(6)
C13A C 0.4689(10) 0.7598(5) 0.9862(5)
C18A C 0.7298(10) 0.9494(8) 0.4840(5)
C20A C 0.8739(13) 1.0851(12) 0.5396(8)
C5A C 0.0005(9) 1.4324(6) 0.6948(6)
C12A C 0.5647(13) 0.7910(8) 1.0357(6)
C19A C 0.8340(14) 1.0163(14) 0.4845(7)
loop_
_geom_bond_atom_site_label_1
_geom_bond_atom_site_label_2
_geom_bond_site_symmetry_1
_geom_bond_site_symmetry_2
Zn1 O1 1_555 1_555
Zn2 O2 1_555 1_555
O1 C1 1_555 1_555
O2 C1 1_555 1_555
C1 C2 1_555 1_555
C2 C3 1_555 1_555
C3 C4 1_555 1_555
C4 C5 1_555 1_555
C5 C6 1_555 1_555
C6 C7 1_555 1_555
C7 C2 1_555 1_555
O3 Zn1 1_555 1_555
O4 Zn2 1_555 1_555
C8 O3 1_555 1_555
C9 C8 1_555 1_555
C10 C9 1_555 1_555
C11 C10 1_555 1_555
C12 C11 1_555 1_555
C13 C12 1_555 1_555
C14 C9 1_555 1_555
O5 Zn1 1_555 1_555
O6 Zn2 1_555 1_555
C15 O5 1_555 1_555
C16 C15 1_555 1_555
C17 C16 1_555 1_555
C18 C17 1_555 1_555
C19 C18 1_555 1_555
C20 C19 1_555 1_555
C21 C16 1_555 1_555
O7 Zn1 1_555 1_555
O8 Zn2 1_555 1_555
C22 O7 1_555 1_555
C23 C22 1_555 1_555
C24 C23 1_555 1_555
C25 C24 1_555 1_555
C26 C25 1_555 1_555
C27 C26 1_555 1_555
C28 C23 1_555 1_555
C22A O8 1_555 1_555
O8A C22 1_555 1_555
O7A C22A 1_555 1_555
C23A C22A 1_555 1_555
Zn2A O8A 1_555 1_555
Zn1A O7A 1_555 1_555
C24A C23A 1_555 1_555
C28A C23A 1_555 1_555
O2A Zn2A 1_555 1_555
O4A Zn2A 1_555 1_555
O6A Zn2A 1_555 1_555
O1A Zn1A 1_555 1_555
O3A Zn1A 1_555 1_555
O5A Zn1A 1_555 1_555
C25A C24A 1_555 1_555
C27A C28A 1_555 1_555
C1A O2A 1_555 1_555
C8A O4A 1_555 1_555
C15A O6A 1_555 1_555
C1A_2 O1A 1_555 1_555
C8A_2 O3A 1_555 1_555
C15A_2 O5A 1_555 1_555
C26A C25A 1_555 1_555
O1A_2 C1A 1_555 1_555
C2A C1A 1_555 1_555
O3A_2 C8A 1_555 1_555
C9A C8A 1_555 1_555
O5A_2 C15A 1_555 1_555
C16A C15A 1_555 1_555
C3A C2A 1_555 1_555
C7A C2A 1_555 1_555
C10A C9A 1_555 1_555
C14A C9A 1_555 1_555
C17A C16A 1_555 1_555
C21A C16A 1_555 1_555
C4A C3A 1_555 1_555
C6A C7A 1_555 1_555
C11A C10A 1_555 1_555
C13A C14A 1_555 1_555
C18A C17A 1_555 1_555
C20A C21A 1_555 1_555
C5A C4A 1_555 1_555
C12A C11A 1_555 1_555
C19A C18A 1_555 1_555
O4 C8 1_555 1_555
C13 C14 1_555 1_555
O6 C15 1_555 1_555
C20 C21 1_555 1_555
C27 C28 1_555 1_555
C27A C26A 1_555 1_555
C6A C5A 1_555 1_555
C13A C12A 1_555 1_555
C20A C19A 1_555 1_555

#END
