
#######################################################################
#
#                 Cambridge Crystallographic Data Centre
#                                CCDC 
#
#######################################################################
#
# If this CIF has been generated from an entry in the Cambridge 
# Structural Database, then it will include bibliographic, chemical, 
# crystal, experimental, refinement or atomic coordinate data resulting 
# from the CCDC's data processing and validation procedures.
#
#######################################################################

data_KENLEW
_symmetry_cell_setting           triclinic
_symmetry_space_group_name_H-M   'P -1'
_symmetry_Int_Tables_number      2
_space_group_name_Hall           '-P 1'
loop_
_symmetry_equiv_pos_site_id
_symmetry_equiv_pos_as_xyz
1 x,y,z
2 -x,-y,-z
_cell_length_a                   13.2567(1)
_cell_length_b                   13.6304(2)
_cell_length_c                   13.6409(2)
_cell_angle_alpha                89.695(1)
_cell_angle_beta                 63.049(1)
_cell_angle_gamma                86.105(1)
_cell_volume                     2191.16
loop_
_atom_site_label
_atom_site_type_symbol
_atom_site_fract_x
_atom_site_fract_y
_atom_site_fract_z
Pr1 Pr 0.510841(14) 0.764838(12) 0.239504(13)
Pr2 Pr 0.025937(14) 0.699581(12) 0.263085(14)
C1 C 0.3331(3) 0.8971(2) 0.1528(3)
C2 C 0.2780(3) 0.9750(3) 0.1257(3)
H1 H 0.2130 0.9656 0.1182
C3 C 0.3211(3) 1.0667(3) 0.1101(3)
H2 H 0.2853 1.1200 0.0925
C4 C 0.4191(3) 1.0773(3) 0.1213(3)
H3 H 0.4504 1.1379 0.1109
C5 C 0.4691(3) 0.9958(2) 0.1483(3)
C6 C 0.2904(3) 0.7956(2) 0.1747(3)
C7 C 0.5774(3) 1.0000(3) 0.1602(3)
C8 C 0.4764(3) 0.8481(3) 0.4933(3)
C9 C 0.4945(3) 0.8645(3) 0.5839(3)
H4 H 0.4391 0.8982 0.6461
C10 C 0.5971(3) 0.8297(3) 0.5799(3)
H5 H 0.6105 0.8381 0.6406
C11 C 0.6795(3) 0.7822(3) 0.4849(3)
H6 H 0.7493 0.7591 0.4801
C12 C 0.6552(3) 0.7701(2) 0.3970(3)
C13 C 0.3663(3) 0.8783(3) 0.4907(3)
C14 C 0.7399(3) 0.7239(2) 0.2869(3)
C15 C 0.6038(3) 0.5584(3) 0.0574(3)
C16 C 0.6223(3) 0.4629(3) 0.0166(3)
H7 H 0.6645 0.4485 -0.0583
C17 C 0.5755(3) 0.3883(3) 0.0914(3)
H8 H 0.5856 0.3231 0.0669
C18 C 0.5137(3) 0.4132(3) 0.2025(3)
H9 H 0.4811 0.3650 0.2536
C19 C 0.5015(3) 0.5105(3) 0.2361(3)
C20 C 0.6438(3) 0.6461(3) -0.0134(3)
C21 C 0.4403(3) 0.5443(3) 0.3567(3)
C22 C 0.0091(3) 0.4488(3) 0.2319(3)
C23 C -0.0092(3) 0.3509(3) 0.2542(3)
H10 H 0.0200 0.3032 0.1978
C24 C -0.0723(3) 0.3250(3) 0.3632(3)
H11 H -0.0871 0.2597 0.3806
C25 C -0.1128(3) 0.3980(3) 0.4456(3)
H12 H -0.1563 0.3827 0.5188
C26 C -0.0871(3) 0.4936(3) 0.4164(3)
C27 C 0.0713(3) 0.4863(3) 0.1161(3)
C28 C -0.1206(3) 0.5785(3) 0.4985(3)
N1 N 0.4267(2) 0.9077(2) 0.1650(2)
N2 N 0.5556(2) 0.8021(2) 0.4014(2)
N3 N 0.5448(2) 0.5825(2) 0.1654(2)
N4 N -0.0280(2) 0.5192(2) 0.3111(2)
O1 O 0.3448(2) 0.73294(18) 0.2048(2)
O2 O 0.2044(2) 0.78075(18) 0.1631(2)
O3 O 0.6123(2) 0.91942(18) 0.1869(2)
O4 O 0.6229(2) 1.07892(18) 0.1438(2)
O5 O 0.3633(2) 0.86409(19) 0.40018(19)
O6 O 0.2852(2) 0.9138(2) 0.5763(2)
O7 O 0.70387(19) 0.71678(17) 0.21525(18)
O8 O 0.83779(19) 0.69860(18) 0.27097(19)
O9 O 0.6195(2) 0.72966(18) 0.02831(19)
O10 O 0.7007(2) 0.6236(2) -0.1170(2)
H13 H 0.7204 0.6739 -0.1518
O11 O 0.4253(2) 0.63649(18) 0.37535(19)
O12 O 0.4125(2) 0.4780(2) 0.4245(2)
O13 O 0.0845(2) 0.57818(18) 0.10792(19)
O14 O 0.1025(3) 0.4282(2) 0.0366(2)
O15 O -0.0885(2) 0.66144(17) 0.45910(19)
O16 O -0.1764(2) 0.56258(19) 0.59892(19)
O17 O 0.1864(2) 0.59584(18) 0.2724(2)
H14 H 0.2396 0.6261 0.2655
H15 H 0.1838 0.5478 0.3084
O18 O 0.0328(2) 0.7815(2) 0.0968(2)
H16 H -0.0192 0.7765 0.0784
H17 H 0.0377 0.8441 0.0954
O19 O -0.0747(3) 0.8669(2) 0.3204(3)
H18 H -0.1063 0.8897 0.2817
H19 H -0.0488 0.9188 0.3321
O20 O 0.0724(3) 0.7872(2) 0.4034(2)
H20 H 0.1085 0.8368 0.4016
H21 H 0.0129 0.7973 0.4638
Pr2_2 Pr 1.025937(14) 0.699581(12) 0.263085(14)
O8_2 O -0.16221(19) 0.69860(18) 0.27097(19)
C29 C 0.7754(3) 0.4730(3) 0.1908(3)
H22 H 0.7921 0.5363 0.1657
C30 C 0.7119(3) 0.4574(3) 0.3032(3)
C31 C 0.6886(3) 0.3621(3) 0.3382(3)
H23 H 0.6461 0.3499 0.4124
C32 C 0.7298(4) 0.2850(3) 0.2605(3)
H24 H 0.7158 0.2207 0.2829
C33 C 0.7914(4) 0.3038(3) 0.1504(3)
H25 H 0.8184 0.2526 0.0980
N5 N 0.8118(3) 0.3968(2) 0.1202(2)
H26 H 0.8505 0.4077 0.0513
O21 O 0.6765(2) 0.53648(19) 0.3698(2)
H27 H 0.6395 0.5198 0.4334
O22 O 0.1667(3) 0.9567(3) 0.4229(3)
H28 H 0.2264 0.9299 0.4239
H29 H 0.1259 0.9656 0.4979
O23 O 0.8812(2) 0.7605(2) 0.0137(2)
H30 H 0.8902 0.7001 -0.0043
H31 H 0.8210 0.7625 0.0718
O24 O 0.7834(2) 0.9539(2) 0.2459(2)
H32 H 0.7513 0.9954 0.2972
H33 H 0.7327 0.9387 0.2318
O25 O 0.9689(3) 0.9188(2) -0.1098(3)
H34 H 0.9316 0.9663 -0.0687
H35 H 0.9380 0.8700 -0.0765
O26 O 0.8534(2) 1.0715(2) 0.0378(2)
H36 H 0.8831 1.0599 0.0789
H37 H 0.7854 1.0675 0.0757
O27 O 0.9502(3) 1.0686(3) 0.3259(3)
H38 H 0.8777 1.0818 0.3512
H39 H 0.9727 1.0772 0.2565
O28 O 0.8939(3) 0.8606(3) 0.6192(3)
H40 H 0.8595 0.9153 0.6157
H41 H 0.9165 0.8829 0.6692
O29 O 0.7463(2) 0.7265(2) 0.7231(2)
H42 H 0.7791 0.6829 0.6739
H43 H 0.7911 0.7699 0.7050
loop_
_geom_bond_atom_site_label_1
_geom_bond_atom_site_label_2
_geom_bond_site_symmetry_1
_geom_bond_site_symmetry_2
Pr1 N1 1_555 1_555
Pr2 N4 1_555 1_555
C1 C2 1_555 1_555
C2 H1 1_555 1_555
C3 C2 1_555 1_555
H2 C3 1_555 1_555
C4 C3 1_555 1_555
H3 C4 1_555 1_555
C5 C4 1_555 1_555
C6 C1 1_555 1_555
C7 C5 1_555 1_555
C8 C9 1_555 1_555
C9 H4 1_555 1_555
C10 C9 1_555 1_555
H5 C10 1_555 1_555
C11 C10 1_555 1_555
H6 C11 1_555 1_555
C12 C11 1_555 1_555
C13 C8 1_555 1_555
C14 C12 1_555 1_555
C15 C16 1_555 1_555
C16 H7 1_555 1_555
C17 C16 1_555 1_555
H8 C17 1_555 1_555
C18 C17 1_555 1_555
H9 C18 1_555 1_555
C19 C18 1_555 1_555
C20 C15 1_555 1_555
C21 C19 1_555 1_555
C22 C23 1_555 1_555
C23 H10 1_555 1_555
C24 C23 1_555 1_555
H11 C24 1_555 1_555
C25 C24 1_555 1_555
H12 C25 1_555 1_555
C26 C25 1_555 1_555
C27 C22 1_555 1_555
C28 C26 1_555 1_555
N1 C1 1_555 1_555
N2 Pr1 1_555 1_555
N3 Pr1 1_555 1_555
N4 C22 1_555 1_555
O1 Pr1 1_555 1_555
O2 Pr2 1_555 1_555
O3 Pr1 1_555 1_555
O4 C7 1_555 1_555
O5 Pr1 1_555 1_555
O6 C13 1_555 1_555
O7 Pr1 1_555 1_555
O8 C14 1_555 1_555
O9 Pr1 1_555 1_555
O10 C20 1_555 1_555
H13 O10 1_555 1_555
O11 Pr1 1_555 1_555
O12 C21 1_555 1_555
O13 Pr2 1_555 1_555
O14 C27 1_555 1_555
O15 Pr2 1_555 1_555
O16 C28 1_555 1_555
O17 Pr2 1_555 1_555
H14 O17 1_555 1_555
H15 O17 1_555 1_555
O18 Pr2 1_555 1_555
H16 O18 1_555 1_555
H17 O18 1_555 1_555
O19 Pr2 1_555 1_555
H18 O19 1_555 1_555
H19 O19 1_555 1_555
O20 Pr2 1_555 1_555
H20 O20 1_555 1_555
H21 O20 1_555 1_555
C29 H22 1_555 1_555
C30 C29 1_555 1_555
C31 C30 1_555 1_555
H23 C31 1_555 1_555
C32 C31 1_555 1_555
H24 C32 1_555 1_555
C33 C32 1_555 1_555
H25 C33 1_555 1_555
N5 C29 1_555 1_555
H26 N5 1_555 1_555
O21 C30 1_555 1_555
H27 O21 1_555 1_555
O22 H28 1_555 1_555
H29 O22 1_555 1_555
O23 H30 1_555 1_555
H31 O23 1_555 1_555
O24 H32 1_555 1_555
H33 O24 1_555 1_555
O25 H34 1_555 1_555
H35 O25 1_555 1_555
O26 H36 1_555 1_555
H37 O26 1_555 1_555
O27 H38 1_555 1_555
H39 O27 1_555 1_555
O28 H40 1_555 1_555
H41 O28 1_555 1_555
O29 H42 1_555 1_555
H43 O29 1_555 1_555
Pr2_2 O8 1_555 1_555
O8_2 Pr2 1_555 1_555
C5 N1 1_555 1_555
C6 O1 1_555 1_555
C6 O2 1_555 1_555
C7 O3 1_555 1_555
C8 N2 1_555 1_555
C12 N2 1_555 1_555
C13 O5 1_555 1_555
C14 O7 1_555 1_555
C15 N3 1_555 1_555
C19 N3 1_555 1_555
C20 O9 1_555 1_555
C21 O11 1_555 1_555
C26 N4 1_555 1_555
C27 O13 1_555 1_555
C28 O15 1_555 1_555
C33 N5 1_555 1_555

#END
