
#######################################################################
#
#                 Cambridge Crystallographic Data Centre
#                                CCDC 
#
#######################################################################
#
# If this CIF has been generated from an entry in the Cambridge 
# Structural Database, then it will include bibliographic, chemical, 
# crystal, experimental, refinement or atomic coordinate data resulting 
# from the CCDC's data processing and validation procedures.
#
#######################################################################

data_KENNAU
_symmetry_cell_setting           triclinic
_symmetry_space_group_name_H-M   'P -1'
_symmetry_Int_Tables_number      2
_space_group_name_Hall           '-P 1'
loop_
_symmetry_equiv_pos_site_id
_symmetry_equiv_pos_as_xyz
1 x,y,z
2 -x,-y,-z
_cell_length_a                   7.4137(13)
_cell_length_b                   7.4890(13)
_cell_length_c                   7.5391(14)
_cell_angle_alpha                118.928(19)
_cell_angle_beta                 109.295(17)
_cell_angle_gamma                92.470(14)
_cell_volume                     335.179
loop_
_atom_site_label
_atom_site_type_symbol
_atom_site_fract_x
_atom_site_fract_y
_atom_site_fract_z
Cu1 Cu 0.80990(8) 0.04593(9) 0.26970(8)
O1 O 0.8057(5) 0.3008(5) 0.5295(5)
O2 O 0.8037(6) -0.2125(6) 0.0115(6)
N1 N 0.1444(6) -0.3696(7) -0.1527(6)
N2 N 0.5590(6) -0.3137(7) 0.4468(6)
N3 N 0.2427(6) -0.4172(6) -0.0028(6)
N4 N 0.8560(5) -0.1418(6) 0.5615(6)
N5 N 0.4063(6) -0.1087(7) 0.0839(6)
N6 N 0.2413(5) -0.1874(6) -0.0982(6)
N7 N 0.7466(6) -0.2514(7) 0.5968(7)
N8 N 0.7491(6) -0.1252(6) 0.3938(6)
C1 C 0.4023(6) -0.2532(7) 0.1397(7)
C2 C 0.5663(7) -0.2339(8) 0.3257(8)
H1 H 0.899(6) 0.421(5) 0.603(8)
H2 H 0.691(6) 0.336(12) 0.494(12)
H3 H 0.792(8) -0.333(5) 0.009(9)
H4 H 0.780(9) -0.211(11) -0.112(6)
Cu1A Cu 0.19010(8) -0.04593(9) -0.26970(8)
Cu1_2 Cu -0.19010(8) 0.04593(9) -0.73030(8)
Cu1A_2 Cu 1.19010(8) -0.04593(9) 0.73030(8)
O1A O 0.1943(5) -0.3008(5) -0.5295(5)
O2A O 0.1963(6) 0.2125(6) -0.0115(6)
N1A N 0.8556(6) 0.3696(7) 0.1527(6)
N2A N 0.4410(6) 0.3137(7) -0.4468(6)
N3A N 0.7573(6) 0.4172(6) 0.0028(6)
N4A N 0.1440(5) 0.1418(6) -0.5615(6)
N4_2 N -0.1440(5) -0.1418(6) -0.4385(6)
N4A_2 N 1.1440(5) 0.1418(6) 0.4385(6)
N5A N 0.5937(6) 0.1087(7) -0.0839(6)
N6A N 0.7587(5) 0.1874(6) 0.0982(6)
N7A N 0.2534(6) 0.2514(7) -0.5968(7)
N8A N 0.2509(6) 0.1252(6) -0.3938(6)
C1A C 0.5977(6) 0.2532(7) -0.1397(7)
C2A C 0.4337(7) 0.2339(8) -0.3257(8)
H1A H 0.101(6) -0.421(5) -0.603(8)
H2A H 0.309(6) -0.336(12) -0.494(12)
H3A H 0.208(8) 0.333(5) -0.009(9)
H4A H 0.220(9) 0.211(11) 0.112(6)
loop_
_geom_bond_atom_site_label_1
_geom_bond_atom_site_label_2
_geom_bond_site_symmetry_1
_geom_bond_site_symmetry_2
Cu1 O1 1_555 1_555
O1 H1 1_555 1_555
O2 Cu1 1_555 1_555
N1 N3 1_555 1_555
N2 N7 1_555 1_555
N3 C1 1_555 1_555
N4 N7 1_555 1_555
N5 N6 1_555 1_555
N6 N1 1_555 1_555
N8 Cu1 1_555 1_555
C1 N5 1_555 1_555
C2 N2 1_555 1_555
H2 O1 1_555 1_555
H3 O2 1_555 1_555
H4 O2 1_555 1_555
Cu1A N6 1_555 1_555
Cu1_2 N4A 1_555 1_555
Cu1A_2 N4 1_555 1_555
O1A Cu1A 1_555 1_555
O2A Cu1A 1_555 1_555
N1A N3A 1_555 1_555
N2A N7A 1_555 1_555
N3A C1A 1_555 1_555
N4A N7A 1_555 1_555
N4_2 Cu1A 1_555 1_555
N4A_2 Cu1 1_555 1_555
N5A N6A 1_555 1_555
N6A Cu1 1_555 1_555
N8A Cu1A 1_555 1_555
C1A N5A 1_555 1_555
C2A N2A 1_555 1_555
H1A O1A 1_555 1_555
H2A O1A 1_555 1_555
H3A O2A 1_555 1_555
H4A O2A 1_555 1_555
N4 N8 1_555 1_555
N8 C2 1_555 1_555
C1 C2 1_555 1_555
N1A N6A 1_555 1_555
N4A N8A 1_555 1_555
N8A C2A 1_555 1_555
C1A C2A 1_555 1_555

#END
