
#######################################################################
#
#                 Cambridge Crystallographic Data Centre
#                                CCDC 
#
#######################################################################
#
# If this CIF has been generated from an entry in the Cambridge 
# Structural Database, then it will include bibliographic, chemical, 
# crystal, experimental, refinement or atomic coordinate data resulting 
# from the CCDC's data processing and validation procedures.
#
#######################################################################

data_KENRUR
_symmetry_cell_setting           triclinic
_symmetry_space_group_name_H-M   'P -1'
_symmetry_Int_Tables_number      2
_space_group_name_Hall           '-P 1'
loop_
_symmetry_equiv_pos_site_id
_symmetry_equiv_pos_as_xyz
1 x,y,z
2 -x,-y,-z
_cell_length_a                   9.2242(18)
_cell_length_b                   15.102(3)
_cell_length_c                   18.587(4)
_cell_angle_alpha                75.93(3)
_cell_angle_beta                 82.88(3)
_cell_angle_gamma                79.00(3)
_cell_volume                     2457.23
loop_
_atom_site_label
_atom_site_type_symbol
_atom_site_fract_x
_atom_site_fract_y
_atom_site_fract_z
C1 C -0.5702(4) 0.9572(3) 0.6899(2)
C2 C -0.6368(4) 1.0454(3) 0.7136(2)
C3 C -0.7591(5) 1.1023(3) 0.6813(3)
H1 H -0.8001 1.0863 0.6427
C4 C -0.8224(5) 1.1829(3) 0.7052(3)
H2 H -0.9036 1.2237 0.6818
C5 C -0.7638(5) 1.2017(3) 0.7636(3)
C6 C -0.6439(5) 1.1458(3) 0.7983(3)
H3 H -0.6071 1.1605 0.8387
C7 C -0.5790(5) 1.0677(3) 0.7723(2)
H4 H -0.4948 1.0289 0.7943
C8 C -0.0417(4) 0.9612(3) 0.6206(2)
C9 C -0.1222(4) 1.0585(3) 0.6178(2)
C10 C -0.2273(5) 1.0746(3) 0.6753(3)
H5 H -0.2533 1.0241 0.7133
C11 C -0.2943(5) 1.1643(3) 0.6775(3)
H6 H -0.3654 1.1761 0.7171
C12 C -0.2559(5) 1.2359(3) 0.6212(3)
C13 C -0.1528(5) 1.2217(3) 0.5629(3)
H7 H -0.1293 1.2722 0.5243
C14 C -0.0849(5) 1.1321(3) 0.5622(3)
H8 H -0.0118 1.1208 0.5232
C15 C -0.8347(5) 0.8954(3) 0.8142(2)
C16 C -0.8338(4) 0.9479(3) 0.8727(2)
C17 C -0.9384(5) 1.0277(3) 0.8745(2)
H9 H -1.0149 1.0451 0.8415
C18 C -0.9313(5) 1.0816(3) 0.9240(2)
H10 H -1.0031 1.1352 0.9265
C19 C -0.8159(5) 1.0547(3) 0.9698(2)
C20 C -0.7120(5) 0.9754(3) 0.9711(3)
H11 H -0.6360 0.9585 1.0044
C21 C -0.7225(5) 0.9211(3) 0.9222(2)
H12 H -0.6538 0.8656 0.9222
C22 C -0.5261(5) 0.6445(3) 0.7318(2)
C23 C -0.4708(5) 0.5439(3) 0.7637(2)
C24 C -0.3189(5) 0.5103(3) 0.7578(3)
H13 H -0.2517 0.5508 0.7335
C25 C -0.2662(5) 0.4176(3) 0.7874(3)
H14 H -0.1632 0.3936 0.7834
C26 C -0.3677(5) 0.3613(3) 0.8229(3)
C27 C -0.5184(5) 0.3923(3) 0.8303(3)
H15 H -0.5848 0.3519 0.8559
C28 C -0.5694(5) 0.4846(3) 0.7990(2)
H16 H -0.6728 0.5076 0.8017
C29 C -0.0400(4) 0.6677(3) 0.8180(2)
C30 C 0.0580(4) 0.6036(3) 0.8736(2)
C31 C 0.1585(5) 0.6376(3) 0.9057(3)
H17 H 0.1659 0.7015 0.8913
C32 C 0.2469(5) 0.5793(4) 0.9582(3)
H18 H 0.3117 0.6024 0.9823
C33 C 0.2383(5) 0.4861(3) 0.9745(2)
C34 C 0.1432(5) 0.4488(3) 0.9429(2)
H19 H 0.1420 0.3841 0.9549
C35 C 0.0488(5) 0.5098(3) 0.8927(2)
H20 H -0.0216 0.4872 0.8717
C36 C 0.0208(4) 0.6626(3) 0.6319(2)
C37 C 0.0874(5) 0.5720(3) 0.6112(2)
C38 C 0.2426(5) 0.5496(4) 0.6000(3)
H21 H 0.3039 0.5892 0.6086
C39 C 0.3049(6) 0.4703(4) 0.5767(3)
H22 H 0.4095 0.4547 0.5687
C40 C 0.2148(6) 0.4140(4) 0.5652(3)
C41 C 0.0614(6) 0.4315(3) 0.5781(3)
H23 H 0.0014 0.3903 0.5709
C42 C -0.0006(5) 0.5122(3) 0.6021(3)
H24 H -0.1049 0.5260 0.6123
Eu1 Eu -0.26226(2) 0.786975(14) 0.720218(11)
Eu2 Eu -0.81480(2) 0.812830(14) 0.686430(11)
N1 N -0.8346(4) 1.2840(3) 0.7921(3)
N2 N -0.3297(5) 1.3314(3) 0.6245(2)
N3 N -0.8021(4) 1.1153(3) 1.0193(2)
N4 N -0.3123(5) 0.2622(3) 0.8521(3)
N5 N 0.3384(4) 0.4232(3) 1.0278(2)
N6 N 0.2802(6) 0.3321(4) 0.5346(3)
O1 O -0.6512(3) 0.9215(2) 0.65942(18)
O2 O -0.4393(3) 0.9233(2) 0.70344(17)
O3 O -0.9072(5) 1.3470(3) 0.7502(2)
O4 O -0.8174(4) 1.2834(3) 0.8562(2)
O5 O -0.0984(3) 0.8934(2) 0.65919(16)
O6 O 0.0876(3) 0.9502(2) 0.58973(17)
O7 O -0.4340(4) 1.3406(3) 0.6707(2)
O8 O -0.2823(5) 1.3954(3) 0.5807(2)
O9 O -0.9350(3) 0.9215(2) 0.76957(16)
O10 O -0.7329(3) 0.8277(2) 0.80835(17)
O11 O -0.9075(4) 1.1732(3) 1.0316(2)
O12 O -0.6832(4) 1.1027(3) 1.0472(2)
O13 O -0.6644(3) 0.6697(2) 0.73118(17)
O14 O -0.4333(3) 0.6977(2) 0.70780(18)
O15 O -0.3990(5) 0.2132(3) 0.8876(3)
O16 O -0.1809(5) 0.2329(3) 0.8369(3)
O17 O -0.1707(3) 0.6554(2) 0.81921(17)
O18 O 0.0102(3) 0.7344(2) 0.77203(16)
O19 O 0.3587(4) 0.3399(3) 1.0283(2)
O20 O 0.3983(4) 0.4558(3) 1.0678(2)
O21 O -0.1123(3) 0.6730(2) 0.65760(17)
O22 O 0.1044(3) 0.7229(2) 0.61975(17)
O23 O 0.1959(5) 0.2866(3) 0.5190(2)
O24 O 0.4162(5) 0.3149(4) 0.5250(3)
O25 O -0.3222(3) 0.8258(2) 0.58710(17)
O26 O -0.4399(3) 0.7764(2) 0.83314(17)
O27 O -0.2165(3) 0.8777(2) 0.80634(16)
O28 O -0.6278(3) 0.7937(2) 0.57883(17)
Eu2_2 Eu 0.18520(2) 0.812830(14) 0.686430(11)
O5_2 O -1.0984(3) 0.8934(2) 0.65919(16)
O6_2 O -0.9124(3) 0.9502(2) 0.58973(17)
O18_2 O -0.9898(3) 0.7344(2) 0.77203(16)
O22_2 O -0.8956(3) 0.7229(2) 0.61975(17)
O29 O 0.6542(5) 0.9991(3) 0.5086(2)
loop_
_geom_bond_atom_site_label_1
_geom_bond_atom_site_label_2
_geom_bond_site_symmetry_1
_geom_bond_site_symmetry_2
C1 C2 1_555 1_555
C2 C3 1_555 1_555
C3 H1 1_555 1_555
C4 C3 1_555 1_555
H2 C4 1_555 1_555
C5 C4 1_555 1_555
C6 C5 1_555 1_555
H3 C6 1_555 1_555
C7 C2 1_555 1_555
H4 C7 1_555 1_555
C8 C9 1_555 1_555
C9 C10 1_555 1_555
C10 H5 1_555 1_555
C11 C10 1_555 1_555
H6 C11 1_555 1_555
C12 C11 1_555 1_555
C13 C12 1_555 1_555
H7 C13 1_555 1_555
C14 C9 1_555 1_555
H8 C14 1_555 1_555
C15 C16 1_555 1_555
C16 C17 1_555 1_555
C17 H9 1_555 1_555
C18 C17 1_555 1_555
H10 C18 1_555 1_555
C19 C18 1_555 1_555
C20 C19 1_555 1_555
H11 C20 1_555 1_555
C21 C16 1_555 1_555
H12 C21 1_555 1_555
C22 C23 1_555 1_555
C23 C24 1_555 1_555
C24 H13 1_555 1_555
C25 C24 1_555 1_555
H14 C25 1_555 1_555
C26 C25 1_555 1_555
C27 C26 1_555 1_555
H15 C27 1_555 1_555
C28 C23 1_555 1_555
H16 C28 1_555 1_555
C29 C30 1_555 1_555
C30 C31 1_555 1_555
C31 H17 1_555 1_555
C32 C31 1_555 1_555
H18 C32 1_555 1_555
C33 C32 1_555 1_555
C34 C33 1_555 1_555
H19 C34 1_555 1_555
C35 C30 1_555 1_555
H20 C35 1_555 1_555
C36 C37 1_555 1_555
C37 C38 1_555 1_555
C38 H21 1_555 1_555
C39 C38 1_555 1_555
H22 C39 1_555 1_555
C40 C39 1_555 1_555
C41 C40 1_555 1_555
H23 C41 1_555 1_555
C42 C37 1_555 1_555
H24 C42 1_555 1_555
Eu1 O2 1_555 1_555
Eu2 O1 1_555 1_555
N1 C5 1_555 1_555
N2 C12 1_555 1_555
N3 C19 1_555 1_555
N4 C26 1_555 1_555
N5 C33 1_555 1_555
N6 C40 1_555 1_555
O1 C1 1_555 1_555
O2 C1 1_555 1_555
O3 N1 1_555 1_555
O4 N1 1_555 1_555
O5 C8 1_555 1_555
O6 C8 1_555 1_555
O7 N2 1_555 1_555
O8 N2 1_555 1_555
O9 C15 1_555 1_555
O10 C15 1_555 1_555
O11 N3 1_555 1_555
O12 N3 1_555 1_555
O13 C22 1_555 1_555
O14 C22 1_555 1_555
O15 N4 1_555 1_555
O16 N4 1_555 1_555
O17 C29 1_555 1_555
O18 C29 1_555 1_555
O19 N5 1_555 1_555
O20 N5 1_555 1_555
O21 C36 1_555 1_555
O22 C36 1_555 1_555
O23 N6 1_555 1_555
O24 N6 1_555 1_555
O25 Eu1 1_555 1_555
O26 Eu1 1_555 1_555
O27 Eu1 1_555 1_555
O28 Eu2 1_555 1_555
Eu2_2 O5 1_555 1_555
O5_2 Eu2 1_555 1_555
O6_2 Eu2 1_555 1_555
O18_2 Eu2 1_555 1_555
O22_2 Eu2 1_555 1_555
C6 C7 1_555 1_555
C13 C14 1_555 1_555
C20 C21 1_555 1_555
C27 C28 1_555 1_555
C34 C35 1_555 1_555
C41 C42 1_555 1_555
Eu1 O5 1_555 1_555
Eu1 O14 1_555 1_555
Eu1 O17 1_555 1_555
Eu1 O18 1_555 1_555
Eu1 O21 1_555 1_555
Eu2 O9 1_555 1_555
Eu2 O10 1_555 1_555
Eu2 O13 1_555 1_555
O6 Eu2_2 1_555 1_555
O18 Eu2_2 1_555 1_555
O22 Eu2_2 1_555 1_555

#END
