
#######################################################################
#
#                 Cambridge Crystallographic Data Centre
#                                CCDC 
#
#######################################################################
#
# If this CIF has been generated from an entry in the Cambridge 
# Structural Database, then it will include bibliographic, chemical, 
# crystal, experimental, refinement or atomic coordinate data resulting 
# from the CCDC's data processing and validation procedures.
#
#######################################################################

data_KENZEK
_symmetry_cell_setting           monoclinic
_symmetry_space_group_name_H-M   'C c'
_symmetry_Int_Tables_number      9
_space_group_name_Hall           'C -2yc'
loop_
_symmetry_equiv_pos_site_id
_symmetry_equiv_pos_as_xyz
1 x,y,z
2 x,-y,1/2+z
3 1/2+x,1/2+y,z
4 1/2+x,1/2-y,1/2+z
_cell_length_a                   15.460(2)
_cell_length_b                   22.132(3)
_cell_length_c                   7.5636(11)
_cell_angle_alpha                90
_cell_angle_beta                 117.775(7)
_cell_angle_gamma                90
_cell_volume                     2289.79
loop_
_atom_site_label
_atom_site_type_symbol
_atom_site_fract_x
_atom_site_fract_y
_atom_site_fract_z
S1 S 0.29246(8) -0.03442(5) -0.23603(16)
Hg1 Hg 0.39467(2) 0.022175(6) 0.06653(3)
C1 C 0.3280(3) -0.1093(2) -0.1363(7)
C2 C 0.5439(3) -0.0922(2) 0.2893(7)
C3 C 0.6022(3) -0.0390(2) 0.4025(7)
C4 C 0.5573(3) 0.1174(2) 0.3113(7)
C5 C 0.6048(3) 0.1725(2) 0.3912(7)
H1 H 0.6661 0.1731 0.5027
C6 C 0.5590(4) 0.2248(2) 0.3017(7)
H2 H 0.5891 0.2618 0.3512
C7 C 0.4656(3) 0.2226(2) 0.1330(7)
C8 C 0.4238(3) 0.1660(2) 0.0575(7)
C9 C 0.4128(4) 0.2753(2) 0.0385(8)
H3 H 0.4393 0.3131 0.0878
C10 C 0.3231(4) 0.2709(2) -0.1249(8)
H4 H 0.2884 0.3058 -0.1857
C11 C 0.2831(4) 0.2144(2) -0.2012(7)
H5 H 0.2223 0.2120 -0.3134
C12 C 0.3325(3) 0.1623(2) -0.1126(7)
H6 H 0.3056 0.1248 -0.1652
C13 C 0.5857(4) -0.1534(2) 0.3447(7)
H7 H 0.5952 -0.1631 0.4762
H8 H 0.6474 -0.1549 0.3432
H9 H 0.5418 -0.1822 0.2507
C14 C 0.7003(4) -0.0462(3) 0.5755(7)
H10 H 0.7487 -0.0474 0.5296
H11 H 0.7026 -0.0832 0.6439
H12 H 0.7134 -0.0128 0.6653
C15 C 0.2810(4) -0.2145(2) -0.2022(8)
H13 H 0.3369 -0.2286 -0.2139
H14 H 0.2242 -0.2370 -0.2916
H15 H 0.2920 -0.2201 -0.0674
N1 N 0.2655(3) -0.15085(18) -0.2532(6)
N2 N 0.4040(3) -0.12616(17) 0.0271(5)
N3 N 0.6050(3) 0.06609(18) 0.4104(6)
H22 H 0.6601 0.0677 0.5174
N4 N 0.4600(3) -0.08032(17) 0.1418(6)
N5 N 0.5606(3) 0.01237(18) 0.3307(6)
N6 N 0.4712(3) 0.11352(17) 0.1507(5)
H23 H 0.230(3) -0.142(2) -0.374(4)
S1A S 0.29246(8) 0.03442(5) 0.26397(16)
Hg1A Hg 0.39467(2) -0.022175(6) -0.43347(3)
C16 C 0.0374(7) 0.8368(5) 0.7728(14)
H16 H 0.0890 0.8097 0.7889
H17 H -0.0129 0.8360 0.6364
H18 H 0.0106 0.8246 0.8589
C17 C -0.0222(7) 0.9457(6) 0.8160(14)
H19 H -0.0359 0.9310 0.9196
H20 H -0.0764 0.9370 0.6879
H21 H -0.0118 0.9886 0.8300
O4 O 0.1537(4) 0.9066(2) 1.0546(7)
S2 S 0.08395(11) 0.91003(8) 0.8350(2)
N7 N 0.8500(3) 0.0920(2) 0.7187(6)
O1 O 0.8334(3) 0.08331(19) 0.5441(6)
O2 O 0.7807(3) 0.0950(2) 0.7599(6)
O3 O 0.9351(3) 0.0989(3) 0.8516(6)
O5 O 0.6121(3) 0.37240(17) 0.3552(5)
loop_
_geom_bond_atom_site_label_1
_geom_bond_atom_site_label_2
_geom_bond_site_symmetry_1
_geom_bond_site_symmetry_2
S1 Hg1 1_555 1_555
Hg1 N4 1_555 1_555
C1 S1 1_555 1_555
C2 C3 1_555 1_555
C3 C14 1_555 1_555
C4 C5 1_555 1_555
C5 H1 1_555 1_555
C6 C5 1_555 1_555
H2 C6 1_555 1_555
C7 C6 1_555 1_555
C8 C7 1_555 1_555
C9 C7 1_555 1_555
H3 C9 1_555 1_555
C10 C9 1_555 1_555
H4 C10 1_555 1_555
C11 C10 1_555 1_555
H5 C11 1_555 1_555
C12 C8 1_555 1_555
H6 C12 1_555 1_555
C13 C2 1_555 1_555
H7 C13 1_555 1_555
H8 C13 1_555 1_555
H9 C13 1_555 1_555
C14 H10 1_555 1_555
H11 C14 1_555 1_555
H12 C14 1_555 1_555
C15 H13 1_555 1_555
H14 C15 1_555 1_555
H15 C15 1_555 1_555
C16 H16 1_555 1_555
H17 C16 1_555 1_555
H18 C16 1_555 1_555
C17 H19 1_555 1_555
H20 C17 1_555 1_555
H21 C17 1_555 1_555
N1 C1 1_555 1_555
N2 C1 1_555 1_555
N3 C4 1_555 1_555
H22 N3 1_555 1_555
N4 C2 1_555 1_555
N5 Hg1 1_555 1_555
N6 Hg1 1_555 1_555
N7 O1 1_555 1_555
O2 N7 1_555 1_555
O3 N7 1_555 1_555
O4 S2 1_555 1_555
S2 C16 1_555 1_555
H23 N1 1_555 1_555
S1A Hg1 1_555 1_555
Hg1A S1 1_555 1_555
C3 N5 1_555 1_555
C4 N6 1_555 1_555
C8 N6 1_555 1_555
C11 C12 1_555 1_555
C15 N1 1_555 1_555
C17 S2 1_555 1_555
N2 N4 1_555 1_555
N3 N5 1_555 1_555

#END
