
#######################################################################
#
#                 Cambridge Crystallographic Data Centre
#                                CCDC 
#
#######################################################################
#
# If this CIF has been generated from an entry in the Cambridge 
# Structural Database, then it will include bibliographic, chemical, 
# crystal, experimental, refinement or atomic coordinate data resulting 
# from the CCDC's data processing and validation procedures.
#
#######################################################################

data_KEPBIS
_symmetry_cell_setting           orthorhombic
_symmetry_space_group_name_H-M   'P b c a'
_symmetry_Int_Tables_number      61
_space_group_name_Hall           '-P 2ac 2ab'
loop_
_symmetry_equiv_pos_site_id
_symmetry_equiv_pos_as_xyz
1 x,y,z
2 1/2-x,-y,1/2+z
3 -x,1/2+y,1/2-z
4 1/2+x,1/2-y,-z
5 -x,-y,-z
6 1/2+x,y,1/2-z
7 x,1/2-y,1/2+z
8 1/2-x,1/2+y,z
_cell_length_a                   17.507(2)
_cell_length_b                   9.5357(11)
_cell_length_c                   21.263(2)
_cell_angle_alpha                90
_cell_angle_beta                 90
_cell_angle_gamma                90
_cell_volume                     3549.68
loop_
_atom_site_label
_atom_site_type_symbol
_atom_site_fract_x
_atom_site_fract_y
_atom_site_fract_z
Cu1 Cu 0.078873(17) 0.42059(3) 0.193868(16)
P1 P 0.02629(4) 0.15255(7) 0.25638(4)
C1 C 0.18147(15) 0.1668(3) 0.17583(15)
H1 H 0.1942 0.2044 0.2169
H2 H 0.1789 0.0654 0.1787
C2 C 0.23932(17) 0.2113(3) 0.12760(16)
H3 H 0.2855 0.1553 0.1302
H4 H 0.2523 0.3097 0.1319
C3 C 0.19541(19) 0.1829(3) 0.06628(16)
H5 H 0.1946 0.0837 0.0563
H6 H 0.2174 0.2341 0.0312
C4 C 0.11475(16) 0.2377(3) 0.08245(14)
H7 H 0.0761 0.1796 0.0617
C5 C 0.10386(15) 0.3879(3) 0.06472(14)
C6 C 0.09550(16) 0.5801(3) 0.00877(14)
C7 C 0.09680(17) 0.6827(3) -0.03794(15)
H8 H 0.1099 0.6619 -0.0793
C8 C 0.07769(18) 0.8164(3) -0.01941(16)
H9 H 0.0786 0.8887 -0.0488
C9 C 0.05695(18) 0.8459(3) 0.04266(16)
H10 H 0.0426 0.9368 0.0532
C10 C 0.05702(16) 0.7443(3) 0.08884(15)
H11 H 0.0440 0.7656 0.1302
C11 C 0.07721(14) 0.6096(3) 0.07123(14)
C12 C 0.04253(15) 0.1337(3) 0.17217(14)
H12 H 0.0549 0.0370 0.1624
H13 H -0.0034 0.1589 0.1493
N1 N 0.10653(12) 0.2265(2) 0.15254(11)
N2 N 0.08418(12) 0.4851(2) 0.10616(11)
N3 N 0.11186(14) 0.4385(2) 0.00610(11)
H14 H 0.1247 0.3917 -0.0268
O1 O 0.08386(10) 0.06929(19) 0.29364(9)
O2 O -0.05590(10) 0.10448(17) 0.26876(9)
O3 O 0.03385(10) 0.31310(17) 0.26441(9)
O4 O 0.19805(10) 0.4572(2) 0.23488(10)
H15 H 0.2388 0.4093 0.2385
H16 H 0.2039 0.5017 0.2691
Cu1B Cu -0.078873(17) -0.07941(3) 0.306132(16)
O2B O 0.05590(10) 0.60448(17) 0.23124(9)
O5 O 0.10078(12) 0.43254(19) 0.37175(10)
H17 H 0.0789 0.4090 0.3377
H18 H 0.1332 0.4964 0.3636
O6 O 0.20313(12) 0.6395(2) 0.33997(11)
H19 H 0.2010 0.7054 0.3130
H20 H 0.2434 0.6581 0.3609
O7 O 0.15587(10) 0.8357(2) 0.25569(11)
H21 H 0.1296 0.9061 0.2673
H22 H 0.1217 0.7791 0.2428
O8 O 0.15474(11) 0.1748(2) 0.39475(9)
H23 H 0.1438 0.2616 0.3934
H24 H 0.1340 0.1323 0.3640
loop_
_geom_bond_atom_site_label_1
_geom_bond_atom_site_label_2
_geom_bond_site_symmetry_1
_geom_bond_site_symmetry_2
Cu1 N1 1_555 1_555
P1 C12 1_555 1_555
C1 H1 1_555 1_555
H2 C1 1_555 1_555
C2 C1 1_555 1_555
H3 C2 1_555 1_555
H4 C2 1_555 1_555
C3 C2 1_555 1_555
H5 C3 1_555 1_555
H6 C3 1_555 1_555
C4 C3 1_555 1_555
H7 C4 1_555 1_555
C5 C4 1_555 1_555
C6 C7 1_555 1_555
C7 H8 1_555 1_555
C8 C7 1_555 1_555
H9 C8 1_555 1_555
C9 C8 1_555 1_555
H10 C9 1_555 1_555
C10 C9 1_555 1_555
H11 C10 1_555 1_555
C11 C6 1_555 1_555
C12 H12 1_555 1_555
H13 C12 1_555 1_555
N1 C1 1_555 1_555
N2 Cu1 1_555 1_555
N3 C5 1_555 1_555
H14 N3 1_555 1_555
O1 P1 1_555 1_555
O2 P1 1_555 1_555
O3 Cu1 1_555 1_555
O4 Cu1 1_555 1_555
H15 O4 1_555 1_555
H16 O4 1_555 1_555
O5 H17 1_555 1_555
H18 O5 1_555 1_555
O6 H19 1_555 1_555
H20 O6 1_555 1_555
O7 H21 1_555 1_555
H22 O7 1_555 1_555
O8 H23 1_555 1_555
H24 O8 1_555 1_555
Cu1B O2 1_555 1_555
O2B Cu1 1_555 1_555
P1 O3 1_555 1_555
C4 N1 1_555 1_555
C5 N2 1_555 1_555
C6 N3 1_555 1_555
C10 C11 1_555 1_555
C11 N2 1_555 1_555
C12 N1 1_555 1_555

#END
