
#######################################################################
#
#                 Cambridge Crystallographic Data Centre
#                                CCDC 
#
#######################################################################
#
# If this CIF has been generated from an entry in the Cambridge 
# Structural Database, then it will include bibliographic, chemical, 
# crystal, experimental, refinement or atomic coordinate data resulting 
# from the CCDC's data processing and validation procedures.
#
#######################################################################

data_KEPBEO
_symmetry_cell_setting           orthorhombic
_symmetry_space_group_name_H-M   'P b c a'
_symmetry_Int_Tables_number      61
_space_group_name_Hall           '-P 2ac 2ab'
loop_
_symmetry_equiv_pos_site_id
_symmetry_equiv_pos_as_xyz
1 x,y,z
2 1/2-x,-y,1/2+z
3 -x,1/2+y,1/2-z
4 1/2+x,1/2-y,-z
5 -x,-y,-z
6 1/2+x,y,1/2-z
7 x,1/2-y,1/2+z
8 1/2-x,1/2+y,z
_cell_length_a                   15.152(2)
_cell_length_b                   9.4530(13)
_cell_length_c                   19.960(3)
_cell_angle_alpha                90
_cell_angle_beta                 90
_cell_angle_gamma                90
_cell_volume                     2858.91
loop_
_atom_site_label
_atom_site_type_symbol
_atom_site_fract_x
_atom_site_fract_y
_atom_site_fract_z
Cu1 Cu 0.030671(18) 0.07788(3) 0.173989(13)
P1 P -0.07637(4) 0.28985(6) 0.25214(3)
C1 C 0.07555(14) 0.1644(2) 0.04491(10)
C2 C 0.12347(15) -0.0514(2) 0.04492(11)
C3 C 0.15350(17) -0.1856(3) 0.06049(13)
H1 H 0.1473 -0.2230 0.1033
C4 C 0.19328(17) -0.2617(3) 0.00939(13)
H2 H 0.2143 -0.3522 0.0184
C5 C 0.20279(16) -0.2073(3) -0.05483(13)
H3 H 0.2297 -0.2624 -0.0876
C6 C 0.17339(16) -0.0739(3) -0.07130(13)
H4 H 0.1798 -0.0373 -0.1143
C7 C 0.13350(14) 0.0032(3) -0.01994(11)
C8 C 0.03682(15) 0.2990(3) 0.06985(11)
H5 H -0.0223 0.3123 0.0509
C9 C 0.11536(16) 0.3495(3) 0.16904(12)
H6 H 0.1625 0.2801 0.1690
H7 H 0.1079 0.3851 0.2143
C10 C 0.0939(2) 0.4307(3) 0.05605(13)
H8 H 0.1385 0.4099 0.0226
H9 H 0.0576 0.5081 0.0399
C11 C -0.04747(16) 0.3616(3) 0.17060(11)
H10 H -0.0968 0.3508 0.1400
H11 H -0.0343 0.4617 0.1747
C12 C 0.1360(2) 0.4689(3) 0.12127(14)
H12 H 0.1122 0.5573 0.1380
H13 H 0.1993 0.4791 0.1159
N1 N 0.03106(11) 0.28515(19) 0.14395(9)
N2 N 0.08600(13) 0.0538(2) 0.08479(9)
N3 N 0.10188(13) 0.1395(2) -0.01800(9)
H14 H 0.0995 0.1978 -0.0510
O1 O -0.02688(10) 0.37744(17) 0.30499(8)
O2 O -0.17447(11) 0.29506(19) 0.26057(9)
O3 O -0.03752(11) 0.13989(17) 0.24969(8)
Cu1B Cu -0.030671(18) 0.57788(3) 0.326011(13)
O1B O 0.02688(10) -0.12256(17) 0.19501(8)
O4 O 0.09820(15) 0.2865(2) 0.86832(10)
H15 H 0.1322 0.3240 0.8395
H16 H 0.0633 0.2421 0.8425
O5 O 0.19735(19) 0.0898(2) 0.26424(16)
H17 H 0.2463 0.1329 0.2649
H18 H 0.2088 0.0050 0.2531
loop_
_geom_bond_atom_site_label_1
_geom_bond_atom_site_label_2
_geom_bond_site_symmetry_1
_geom_bond_site_symmetry_2
Cu1 N1 1_555 1_555
P1 C11 1_555 1_555
C1 C8 1_555 1_555
C2 C3 1_555 1_555
C3 H1 1_555 1_555
C4 C3 1_555 1_555
H2 C4 1_555 1_555
C5 C4 1_555 1_555
H3 C5 1_555 1_555
C6 C5 1_555 1_555
H4 C6 1_555 1_555
C7 C2 1_555 1_555
C8 H5 1_555 1_555
C9 H6 1_555 1_555
H7 C9 1_555 1_555
C10 C8 1_555 1_555
H8 C10 1_555 1_555
H9 C10 1_555 1_555
C11 H10 1_555 1_555
H11 C11 1_555 1_555
C12 C9 1_555 1_555
H12 C12 1_555 1_555
H13 C12 1_555 1_555
N1 C8 1_555 1_555
N2 Cu1 1_555 1_555
N3 C1 1_555 1_555
H14 N3 1_555 1_555
O1 P1 1_555 1_555
O2 P1 1_555 1_555
O3 Cu1 1_555 1_555
O4 H15 1_555 1_555
H16 O4 1_555 1_555
O5 H17 1_555 1_555
H18 O5 1_555 1_555
Cu1B O1 1_555 1_555
O1B Cu1 1_555 1_555
P1 O3 1_555 1_555
C1 N2 1_555 1_555
C2 N2 1_555 1_555
C6 C7 1_555 1_555
C7 N3 1_555 1_555
C9 N1 1_555 1_555
C10 C12 1_555 1_555
C11 N1 1_555 1_555

#END
