
#######################################################################
#
#                 Cambridge Crystallographic Data Centre
#                                CCDC 
#
#######################################################################
#
# If this CIF has been generated from an entry in the Cambridge 
# Structural Database, then it will include bibliographic, chemical, 
# crystal, experimental, refinement or atomic coordinate data resulting 
# from the CCDC's data processing and validation procedures.
#
#######################################################################

data_KEPBAK
_symmetry_cell_setting           monoclinic
_symmetry_space_group_name_H-M   'P 21/c'
_symmetry_Int_Tables_number      14
_space_group_name_Hall           '-P 2ybc'
loop_
_symmetry_equiv_pos_site_id
_symmetry_equiv_pos_as_xyz
1 x,y,z
2 -x,1/2+y,1/2-z
3 -x,-y,-z
4 x,1/2-y,1/2+z
_cell_length_a                   9.5112(15)
_cell_length_b                   8.7422(14)
_cell_length_c                   18.327(3)
_cell_angle_alpha                90
_cell_angle_beta                 104.342(2)
_cell_angle_gamma                90
_cell_volume                     1476.38
loop_
_atom_site_label
_atom_site_type_symbol
_atom_site_fract_x
_atom_site_fract_y
_atom_site_fract_z
Cu1 Cu 0.61626(5) 0.50150(4) 0.34417(2)
P1 P 0.61122(10) 0.27469(9) 0.22255(4)
C1 C 0.8859(4) 0.3298(4) 0.3811(2)
H1 H 0.9042 0.4389 0.3810
H2 H 0.9166 0.2839 0.3394
C2 C 0.9694(6) 0.2599(10) 0.4550(4)
H3 H 1.0116 0.3393 0.4907
H4 H 1.0465 0.1944 0.4470
C3 C 0.8580(4) 0.1668(4) 0.48400(19)
H5 H 0.8534 0.0620 0.4662
H6 H 0.8805 0.1670 0.5386
C7 C 0.7170(4) 0.2516(4) 0.45043(17)
H13 H 0.6333 0.1843 0.4472
C8 C 0.6680(4) 0.1821(4) 0.31522(18)
H14 H 0.5858 0.1313 0.3271
H15 H 0.7418 0.1059 0.3147
C9 C 0.7000(4) 0.3971(4) 0.49101(18)
C10 C 0.6600(3) 0.6402(4) 0.50629(18)
C11 C 0.6951(4) 0.5697(4) 0.57768(19)
C12 C 0.7058(4) 0.6527(5) 0.64395(19)
H16 H 0.7277 0.6057 0.6909
C13 C 0.6822(4) 0.8070(4) 0.6359(2)
H17 H 0.6895 0.8665 0.6787
C14 C 0.6471(4) 0.8785(4) 0.5650(2)
H18 H 0.6319 0.9837 0.5621
C15 C 0.6347(4) 0.7952(4) 0.4988(2)
H19 H 0.6104 0.8421 0.4518
N1 N 0.7267(3) 0.3007(3) 0.37291(14)
N2 N 0.6635(3) 0.5263(3) 0.45260(17)
N3 N 0.7193(3) 0.4163(4) 0.56566(16)
H20 H 0.7424 0.3465 0.5996
O1 O 0.7333(4) 0.2737(3) 0.18320(16)
O2 O 0.5706(3) 0.4359(3) 0.24208(12)
O3 O 0.4769(4) 0.1945(3) 0.17664(15)
Cu1A Cu 0.38374(5) 0.00150(4) 0.15583(2)
O3A O 0.5231(4) 0.6945(3) 0.32336(15)
O4 O 0.0006(8) 0.7922(9) 0.2782(4)
O7 O 0.8386(14) 0.7707(19) 0.3448(6)
C4? C 0.8859(4) 0.3298(4) 0.3811(2)
H7? H 0.9129 0.4307 0.4019
H8? H 0.9099 0.3219 0.3328
C5? C 0.9637(11) 0.2040(16) 0.4356(7)
H9? H 0.9818 0.1145 0.4080
H10? H 1.0553 0.2412 0.4665
C6? C 0.8580(4) 0.1668(4) 0.48400(19)
H11? H 0.8405 0.0575 0.4839
H12? H 0.8982 0.1993 0.5356
O5? O 0.0160(8) 0.9856(7) 0.2980(5)
O6? O 0.0169(7) 0.5939(8) 0.2703(4)
O8? O 0.795(2) 0.714(2) 0.3483(8)
loop_
_geom_bond_atom_site_label_1
_geom_bond_atom_site_label_2
_geom_bond_site_symmetry_1
_geom_bond_site_symmetry_2
Cu1 N1 1_555 1_555
P1 C8 1_555 1_555
C1 H1 1_555 1_555
H2 C1 1_555 1_555
C2 C1 1_555 1_555
H3 C2 1_555 1_555
H4 C2 1_555 1_555
C3 C2 1_555 1_555
H5 C3 1_555 1_555
H6 C3 1_555 1_555
C7 C3 1_555 1_555
H13 C7 1_555 1_555
C8 H14 1_555 1_555
H15 C8 1_555 1_555
C9 C7 1_555 1_555
C10 C11 1_555 1_555
C11 C12 1_555 1_555
C12 H16 1_555 1_555
C13 C12 1_555 1_555
H17 C13 1_555 1_555
C14 C13 1_555 1_555
H18 C14 1_555 1_555
C15 C10 1_555 1_555
H19 C15 1_555 1_555
N1 C1 1_555 1_555
N2 Cu1 1_555 1_555
N3 C9 1_555 1_555
H20 N3 1_555 1_555
O1 P1 1_555 1_555
O2 Cu1 1_555 1_555
O3 P1 1_555 1_555
Cu1A O3 1_555 1_555
O3A Cu1 1_555 1_555
P1 O2 1_555 1_555
C7 N1 1_555 1_555
C8 N1 1_555 1_555
C9 N2 1_555 1_555
C10 N2 1_555 1_555
C11 N3 1_555 1_555
C14 C15 1_555 1_555

#END
