
#######################################################################
#
#                 Cambridge Crystallographic Data Centre
#                                CCDC 
#
#######################################################################
#
# If this CIF has been generated from an entry in the Cambridge 
# Structural Database, then it will include bibliographic, chemical, 
# crystal, experimental, refinement or atomic coordinate data resulting 
# from the CCDC's data processing and validation procedures.
#
#######################################################################

data_KEPGES
_symmetry_cell_setting           triclinic
_symmetry_space_group_name_H-M   'P -1'
_symmetry_Int_Tables_number      2
_space_group_name_Hall           '-P 1'
loop_
_symmetry_equiv_pos_site_id
_symmetry_equiv_pos_as_xyz
1 x,y,z
2 -x,-y,-z
_cell_length_a                   12.888(2)
_cell_length_b                   16.738(3)
_cell_length_c                   17.424(3)
_cell_angle_alpha                82.961(3)
_cell_angle_beta                 76.528(3)
_cell_angle_gamma                74.766(3)
_cell_volume                     3519.28
loop_
_atom_site_label
_atom_site_type_symbol
_atom_site_fract_x
_atom_site_fract_y
_atom_site_fract_z
Gd1 Gd 0.123565(10) 0.486381(9) 0.357212(8)
Gd2 Gd 0.360866(10) 0.507030(8) 0.143186(8)
S1 S 0.35594(8) 0.23752(7) 0.45780(6)
S2 S -0.21305(6) 0.55806(6) 0.12931(4)
S3 S 0.06889(13) 0.83973(9) 0.31214(16)
S4 S 0.90502(7) 0.26348(6) -0.00864(6)
S5 S 0.70214(6) 0.42909(6) 0.37068(5)
S6 S 0.49852(9) 0.16097(6) 0.14133(6)
O1 O -0.02286(17) 0.40978(15) 0.38847(13)
O2 O 0.13799(18) 0.58430(15) 0.44899(13)
O3 O 0.49570(19) 0.59478(15) 0.11758(16)
O4 O 0.36382(19) 0.39912(15) 0.04762(13)
O7 O 0.11467(18) 0.42047(15) 0.48528(13)
O8 O 0.04798(18) 0.41285(16) 0.61473(13)
O9 O 0.4229(3) 0.2547(2) 0.38280(16)
O10 O 0.2635(2) 0.2039(2) 0.4609(3)
O11 O 0.05548(16) 0.49044(15) 0.23661(12)
O12 O 0.17655(15) 0.51700(14) 0.12686(12)
O13 O -0.30485(18) 0.52763(18) 0.17587(15)
O14 O -0.1973(2) 0.56072(18) 0.04487(13)
O15 O 0.1919(2) 0.58631(18) 0.26904(15)
O16 O 0.25874(19) 0.65242(14) 0.16399(14)
O17 O -0.0014(4) 0.8379(3) 0.3886(4)
O18 O 0.0556(4) 0.9156(2) 0.2650(3)
O19 O 0.53569(18) 0.41700(15) 0.11166(13)
O20 O 0.62409(19) 0.43496(16) -0.01253(13)
O21 O 0.8535(2) 0.20634(18) -0.02960(19)
O22 O 0.9919(2) 0.28726(19) -0.06728(18)
O23 O 0.31067(15) 0.46526(15) 0.37050(13)
O24 O 0.43032(16) 0.50003(15) 0.26269(12)
O25 O 0.79008(18) 0.46140(18) 0.32095(15)
O26 O 0.6857(2) 0.43487(18) 0.45448(13)
O27 O 0.19993(19) 0.34649(14) 0.32188(14)
O28 O 0.30902(19) 0.39573(13) 0.22240(13)
O29 O 0.5784(3) 0.1821(2) 0.0754(2)
O30 O 0.5370(3) 0.1116(2) 0.2069(2)
N1 N 0.3183(2) 0.32362(19) 0.50052(16)
H1 H 0.3522 0.3620 0.4818
N2 N -0.10328(17) 0.49990(17) 0.15375(15)
H2 H -0.1077 0.4620 0.1916
N3 N 0.0592(4) 0.7848(3) 0.2453(4)
H3 H 0.0365 0.8143 0.2057
N4 N 0.8196(2) 0.34903(18) 0.01862(18)
H4 H 0.8325 0.3957 -0.0021
N5 N 0.59057(19) 0.4782(2) 0.34309(17)
H5 H 0.5925 0.5140 0.3033
N6 N 0.4168(3) 0.24733(17) 0.17019(18)
H6 H 0.4278 0.2929 0.1452
C1 C 0.1221(2) 0.39486(19) 0.55388(17)
C2 C 0.2300(3) 0.3386(3) 0.5690(2)
H7 H 0.2539 0.3629 0.6075
H8 H 0.2166 0.2856 0.5923
C3 C 0.4398(3) 0.1659(2) 0.5151(2)
C4 C 0.5472(3) 0.1692(3) 0.5056(3)
H9 H 0.5733 0.2108 0.4726
C5 C 0.6158(3) 0.1106(3) 0.5451(3)
H10 H 0.6887 0.1131 0.5383
C6 C 0.5798(4) 0.0481(3) 0.5947(3)
C7 C 0.4715(4) 0.0458(3) 0.6029(3)
H11 H 0.4450 0.0044 0.6362
C8 C 0.4017(4) 0.1038(3) 0.5627(3)
H12 H 0.3294 0.1007 0.5680
C9 C 0.6565(5) -0.0154(3) 0.6384(3)
H13 H 0.7280 -0.0040 0.6252
H14 H 0.6619 -0.0699 0.6234
H15 H 0.6283 -0.0125 0.6943
C10 C 0.0848(2) 0.50585(18) 0.16366(16)
C11 C 0.0030(2) 0.5119(2) 0.11151(18)
H16 H -0.0077 0.5661 0.0833
H17 H 0.0344 0.4707 0.0725
C12 C -0.2281(3) 0.6599(2) 0.15453(19)
C13 C -0.2912(4) 0.7242(3) 0.1158(2)
H18 H -0.3251 0.7137 0.0777
C14 C -0.3037(5) 0.8053(3) 0.1343(3)
H19 H -0.3471 0.8491 0.1089
C15 C -0.2521(4) 0.8215(3) 0.1902(3)
C16 C -0.1920(3) 0.7550(3) 0.2301(2)
H20 H -0.1595 0.7650 0.2692
C17 C -0.1797(3) 0.6747(2) 0.2127(2)
H21 H -0.1393 0.6307 0.2398
C18 C -0.2585(7) 0.9098(3) 0.2066(4)
H22 H -0.2183 0.9090 0.2467
H23 H -0.3340 0.9382 0.2243
H24 H -0.2273 0.9381 0.1590
C19 C 0.1864(2) 0.6486(2) 0.22294(18)
C20 C 0.0782(4) 0.7062(3) 0.2386(3)
H25 H 0.0425 0.7004 0.1971
H26 H 0.0379 0.6844 0.2873
C21 C 0.2078(3) 0.8065(3) 0.3183(4)
C22 C 0.2875(5) 0.8337(3) 0.2656(3)
H27 H 0.2696 0.8750 0.2266
C23 C 0.3945(4) 0.8002(4) 0.2697(3)
H28 H 0.4488 0.8198 0.2331
C24 C 0.4258(3) 0.7385(3) 0.3258(3)
C25 C 0.3429(4) 0.7121(3) 0.3791(3)
H29 H 0.3607 0.6708 0.4181
C26 C 0.2347(4) 0.7452(3) 0.3762(4)
H30 H 0.1796 0.7266 0.4129
C27 C 0.5434(4) 0.7025(4) 0.3300(4)
H31 H 0.5478 0.6608 0.3729
H32 H 0.5754 0.7456 0.3384
H33 H 0.5828 0.6780 0.2812
C28 C 0.6188(2) 0.40498(18) 0.05637(17)
C29 C 0.7214(3) 0.3471(3) 0.0780(2)
H34 H 0.7305 0.3623 0.1275
H35 H 0.7119 0.2909 0.0859
C30 C 0.9527(3) 0.2221(2) 0.0782(2)
C31 C 0.9861(4) 0.2710(3) 0.1214(3)
H36 H 0.9785 0.3273 0.1070
C32 C 1.0309(4) 0.2361(4) 0.1861(3)
H37 H 1.0532 0.2691 0.2152
C33 C 1.0430(4) 0.1526(3) 0.2079(3)
C34 C 1.0052(4) 0.1050(3) 0.1662(3)
H38 H 1.0104 0.0492 0.1817
C35 C 0.9599(4) 0.1393(3) 0.1017(3)
H39 H 0.9343 0.1068 0.0742
C36 C 1.0977(5) 0.1144(4) 0.2769(3)
H40 H 1.0995 0.0564 0.2845
H41 H 1.0567 0.1414 0.3241
H42 H 1.1715 0.1215 0.2656
C37 C 0.4027(2) 0.4775(2) 0.33403(17)
C38 C 0.4869(2) 0.4619(3) 0.38550(19)
H43 H 0.4576 0.4970 0.4298
H44 H 0.4994 0.4046 0.4066
C39 C 0.7248(3) 0.3238(2) 0.3537(2)
C40 C 0.7939(4) 0.2656(3) 0.3952(3)
H45 H 0.8267 0.2824 0.4306
C41 C 0.8131(4) 0.1829(3) 0.3830(4)
H46 H 0.8597 0.1437 0.4102
C42 C 0.7642(5) 0.1569(3) 0.3308(4)
C43 C 0.6967(5) 0.2158(4) 0.2898(4)
H47 H 0.6642 0.1990 0.2542
C44 C 0.6766(4) 0.2995(3) 0.3009(3)
H48 H 0.6311 0.3388 0.2730
C45 C 0.7814(7) 0.0654(4) 0.3204(6)
H49 H 0.7418 0.0590 0.2821
H50 H 0.7549 0.0381 0.3700
H51 H 0.8584 0.0412 0.3024
C46 C 0.2761(2) 0.33729(18) 0.26204(18)
C47 C 0.3258(3) 0.25053(19) 0.23647(19)
H52 H 0.3508 0.2152 0.2803
H53 H 0.2701 0.2293 0.2223
C48 C 0.4180(3) 0.1074(2) 0.1087(2)
C49 C 0.4437(4) 0.0214(3) 0.1160(3)
H54 H 0.5021 -0.0077 0.1390
C50 C 0.3822(4) -0.0207(3) 0.0889(3)
H55 H 0.4012 -0.0785 0.0925
C51 C 0.2933(4) 0.0206(3) 0.0567(3)
C52 C 0.2673(4) 0.1067(3) 0.0506(3)
H56 H 0.2072 0.1356 0.0293
C53 C 0.3294(4) 0.1502(3) 0.0757(3)
H57 H 0.3119 0.2078 0.0705
C54 C 0.2246(5) -0.0254(4) 0.0281(4)
H58 H 0.2534 -0.0841 0.0364
H59 H 0.2269 -0.0113 -0.0272
H60 H 0.1500 -0.0101 0.0570
Gd1A Gd -0.123565(10) 0.513619(9) 0.642788(8)
Gd2A Gd 0.639134(10) 0.492970(8) -0.143186(8)
O8A O -0.04798(18) 0.58715(16) 0.38527(13)
O20A O 0.37591(19) 0.56504(16) 0.01253(13)
O5 O 0.0482(3) 0.2483(2) 0.4341(3)
O6 O 0.3968(3) 0.75549(19) 0.0830(2)
loop_
_geom_bond_atom_site_label_1
_geom_bond_atom_site_label_2
_geom_bond_site_symmetry_1
_geom_bond_site_symmetry_2
Gd1 O1 1_555 1_555
Gd2 O3 1_555 1_555
S1 O9 1_555 1_555
S2 O13 1_555 1_555
S3 O17 1_555 1_555
S4 O21 1_555 1_555
S5 O25 1_555 1_555
S6 O29 1_555 1_555
O2 Gd1 1_555 1_555
O4 Gd2 1_555 1_555
O7 Gd1 1_555 1_555
O8 C1 1_555 1_555
O10 S1 1_555 1_555
O11 Gd1 1_555 1_555
O12 Gd2 1_555 1_555
O14 S2 1_555 1_555
O15 Gd1 1_555 1_555
O16 Gd2 1_555 1_555
O18 S3 1_555 1_555
O19 Gd2 1_555 1_555
O20 C28 1_555 1_555
O22 S4 1_555 1_555
O23 Gd1 1_555 1_555
O24 Gd2 1_555 1_555
O26 S5 1_555 1_555
O27 Gd1 1_555 1_555
O28 Gd2 1_555 1_555
O30 S6 1_555 1_555
N1 S1 1_555 1_555
H1 N1 1_555 1_555
N2 S2 1_555 1_555
H2 N2 1_555 1_555
N3 S3 1_555 1_555
H3 N3 1_555 1_555
N4 S4 1_555 1_555
H4 N4 1_555 1_555
N5 S5 1_555 1_555
H5 N5 1_555 1_555
N6 S6 1_555 1_555
H6 N6 1_555 1_555
C1 O7 1_555 1_555
C2 N1 1_555 1_555
H7 C2 1_555 1_555
H8 C2 1_555 1_555
C3 S1 1_555 1_555
C4 C3 1_555 1_555
H9 C4 1_555 1_555
C5 C4 1_555 1_555
H10 C5 1_555 1_555
C6 C5 1_555 1_555
C7 C6 1_555 1_555
H11 C7 1_555 1_555
C8 C3 1_555 1_555
H12 C8 1_555 1_555
C9 C6 1_555 1_555
H13 C9 1_555 1_555
H14 C9 1_555 1_555
H15 C9 1_555 1_555
C10 O11 1_555 1_555
C11 N2 1_555 1_555
H16 C11 1_555 1_555
H17 C11 1_555 1_555
C12 S2 1_555 1_555
C13 C12 1_555 1_555
H18 C13 1_555 1_555
C14 C13 1_555 1_555
H19 C14 1_555 1_555
C15 C14 1_555 1_555
C16 C15 1_555 1_555
H20 C16 1_555 1_555
C17 C12 1_555 1_555
H21 C17 1_555 1_555
C18 C15 1_555 1_555
H22 C18 1_555 1_555
H23 C18 1_555 1_555
H24 C18 1_555 1_555
C19 O15 1_555 1_555
C20 N3 1_555 1_555
H25 C20 1_555 1_555
H26 C20 1_555 1_555
C21 S3 1_555 1_555
C22 C21 1_555 1_555
H27 C22 1_555 1_555
C23 C22 1_555 1_555
H28 C23 1_555 1_555
C24 C23 1_555 1_555
C25 C24 1_555 1_555
H29 C25 1_555 1_555
C26 C21 1_555 1_555
H30 C26 1_555 1_555
C27 C24 1_555 1_555
H31 C27 1_555 1_555
H32 C27 1_555 1_555
H33 C27 1_555 1_555
C28 O19 1_555 1_555
C29 N4 1_555 1_555
H34 C29 1_555 1_555
H35 C29 1_555 1_555
C30 S4 1_555 1_555
C31 C30 1_555 1_555
H36 C31 1_555 1_555
C32 C31 1_555 1_555
H37 C32 1_555 1_555
C33 C32 1_555 1_555
C34 C33 1_555 1_555
H38 C34 1_555 1_555
C35 C30 1_555 1_555
H39 C35 1_555 1_555
C36 C33 1_555 1_555
H40 C36 1_555 1_555
H41 C36 1_555 1_555
H42 C36 1_555 1_555
C37 O23 1_555 1_555
C38 N5 1_555 1_555
H43 C38 1_555 1_555
H44 C38 1_555 1_555
C39 S5 1_555 1_555
C40 C39 1_555 1_555
H45 C40 1_555 1_555
C41 C40 1_555 1_555
H46 C41 1_555 1_555
C42 C41 1_555 1_555
C43 C42 1_555 1_555
H47 C43 1_555 1_555
C44 C39 1_555 1_555
H48 C44 1_555 1_555
C45 C42 1_555 1_555
H49 C45 1_555 1_555
H50 C45 1_555 1_555
H51 C45 1_555 1_555
C46 O27 1_555 1_555
C47 N6 1_555 1_555
H52 C47 1_555 1_555
H53 C47 1_555 1_555
C48 S6 1_555 1_555
C49 C48 1_555 1_555
H54 C49 1_555 1_555
C50 C49 1_555 1_555
H55 C50 1_555 1_555
C51 C50 1_555 1_555
C52 C51 1_555 1_555
H56 C52 1_555 1_555
C53 C48 1_555 1_555
H57 C53 1_555 1_555
C54 C51 1_555 1_555
H58 C54 1_555 1_555
H59 C54 1_555 1_555
H60 C54 1_555 1_555
Gd1A O8 1_555 1_555
Gd2A O20 1_555 1_555
O8A Gd1 1_555 1_555
O20A Gd2 1_555 1_555
O12 C10 1_555 1_555
O16 C19 1_555 1_555
O24 C37 1_555 1_555
O28 C46 1_555 1_555
C1 C2 1_555 1_555
C7 C8 1_555 1_555
C10 C11 1_555 1_555
C16 C17 1_555 1_555
C19 C20 1_555 1_555
C25 C26 1_555 1_555
C28 C29 1_555 1_555
C34 C35 1_555 1_555
C37 C38 1_555 1_555
C43 C44 1_555 1_555
C46 C47 1_555 1_555
C52 C53 1_555 1_555

#END
