
#######################################################################
#
#                 Cambridge Crystallographic Data Centre
#                                CCDC 
#
#######################################################################
#
# If this CIF has been generated from an entry in the Cambridge 
# Structural Database, then it will include bibliographic, chemical, 
# crystal, experimental, refinement or atomic coordinate data resulting 
# from the CCDC's data processing and validation procedures.
#
#######################################################################

data_KEPGIW
_symmetry_cell_setting           triclinic
_symmetry_space_group_name_H-M   'P -1'
_symmetry_Int_Tables_number      2
_space_group_name_Hall           '-P 1'
loop_
_symmetry_equiv_pos_site_id
_symmetry_equiv_pos_as_xyz
1 x,y,z
2 -x,-y,-z
_cell_length_a                   14.556(4)
_cell_length_b                   18.019(5)
_cell_length_c                   22.378(6)
_cell_angle_alpha                73.016(5)
_cell_angle_beta                 77.073(5)
_cell_angle_gamma                75.469(5)
_cell_volume                     5361.65
loop_
_atom_site_label
_atom_site_type_symbol
_atom_site_fract_x
_atom_site_fract_y
_atom_site_fract_z
Er1 Er 0.064263(14) 0.494030(12) 0.595164(9)
Er2 Er 0.247832(13) 0.509381(11) 0.746891(9)
Er3 Er 0.404123(14) 0.493827(12) 0.925258(9)
S1 S -0.15070(11) 0.83232(7) 0.37816(6)
S2 S 0.18300(9) 0.74962(7) 0.49042(6)
S3 S 0.38695(9) 0.61197(8) 0.34381(6)
S4 S 0.10230(8) 0.82406(7) 0.74512(6)
S5 S 0.66523(8) 0.63436(8) 0.65119(6)
S6 S 0.50439(9) 0.24731(7) 1.18087(5)
S7 S 0.52435(9) 0.17124(7) 0.93638(6)
S8 S 0.16236(8) 0.24877(6) 0.84878(5)
S9 S -0.02363(9) 0.36018(8) 1.01194(6)
O1 O -0.08681(18) 0.45462(17) 0.61570(12)
H1 H -0.1003 0.4532 0.5824
O2 O -0.02208(18) 0.50621(17) 0.69760(12)
H2 H -0.0399 0.4647 0.7171
O3 O 0.32463(18) 0.50718(17) 0.64293(12)
H3 H 0.3549 0.5430 0.6286
O4 O 0.38992(19) 0.56027(17) 0.72227(13)
H4 H 0.4081 0.5575 0.7551
O5 O 0.32561(19) 0.50455(17) 1.02949(12)
H5 H 0.3064 0.4636 1.0489
O6 O 0.25800(19) 0.44769(18) 0.95156(13)
H6 H 0.2410 0.4474 0.9191
O7 O -0.03630(18) 0.61023(15) 0.55005(12)
O8 O -0.07388(19) 0.58863(16) 0.46699(12)
O9 O -0.2154(3) 0.84782(19) 0.33462(15)
O10 O -0.1679(3) 0.88285(19) 0.42007(16)
O11 O 0.14903(18) 0.55429(16) 0.49171(12)
O12 O 0.24037(18) 0.47139(16) 0.55793(12)
O13 O 0.3473(3) 0.6574(2) 0.28927(16)
O14 O 0.4571(2) 0.5408(2) 0.34160(16)
O15 O 0.12133(19) 0.58164(15) 0.62498(12)
O16 O 0.17033(19) 0.63101(15) 0.68869(12)
O17 O 0.1748(3) 0.73187(19) 0.43362(15)
O18 O 0.2674(2) 0.7140(2) 0.51744(17)
O19 O 0.23627(19) 0.58712(15) 0.81425(12)
O20 O 0.29485(17) 0.60978(15) 0.88881(12)
O21 O 0.0394(2) 0.8239(2) 0.70437(15)
O22 O 0.0684(2) 0.87401(19) 0.78757(16)
O23 O 0.47317(18) 0.56088(16) 0.82195(12)
O24 O 0.58151(19) 0.47603(16) 0.87426(13)
O25 O 0.6047(2) 0.6700(2) 0.60314(15)
O26 O 0.7437(2) 0.5708(2) 0.64138(16)
O27 O 0.47978(19) 0.37350(16) 0.98426(12)
O28 O 0.53181(19) 0.42027(16) 1.04835(13)
O29 O 0.5292(3) 0.26048(18) 1.23472(14)
O30 O 0.4134(2) 0.2857(2) 1.16353(17)
O31 O 0.4126(2) 0.41231(16) 0.86230(13)
O32 O 0.36025(18) 0.39487(15) 0.78261(12)
O33 O 0.5924(2) 0.16369(19) 0.97598(16)
O34 O 0.5457(3) 0.12116(19) 0.89410(16)
O35 O 0.18883(18) 0.42212(15) 0.71722(12)
O36 O 0.12999(18) 0.37225(15) 0.65801(12)
O37 O 0.1852(2) 0.26004(18) 0.90426(13)
O38 O 0.0717(2) 0.28881(19) 0.83035(16)
O39 O 0.17852(18) 0.43928(16) 0.84961(12)
O40 O 0.07343(19) 0.52455(16) 0.79360(13)
O41 O 0.0318(3) 0.3191(2) 1.06234(16)
O42 O -0.1029(3) 0.4228(2) 1.02214(18)
N1 N -0.1511(3) 0.7440(2) 0.42163(17)
H7 H -0.1731 0.7118 0.4093
N2 N 0.2991(2) 0.5878(2) 0.39874(16)
H8 H 0.2406 0.6065 0.3927
N3 N 0.0894(3) 0.7289(2) 0.54070(15)
H9 H 0.0405 0.7227 0.5284
N4 N 0.1291(2) 0.7340(2) 0.78565(16)
H10 H 0.1060 0.6974 0.7803
N5 N 0.5959(2) 0.6013(2) 0.71513(16)
H11 H 0.5346 0.6134 0.7167
N6 N 0.5889(2) 0.2694(2) 1.12310(16)
H12 H 0.6429 0.2739 1.1299
N7 N 0.5091(3) 0.2618(2) 0.89366(17)
H13 H 0.5340 0.2959 0.9013
N8 N 0.2489(2) 0.27200(19) 0.79143(15)
H14 H 0.3021 0.2770 0.7991
N9 N 0.0495(2) 0.3971(2) 0.95111(16)
H15 H 0.1104 0.3855 0.9517
C1 C -0.0724(3) 0.6317(2) 0.50032(18)
C2 C -0.1150(4) 0.7176(3) 0.4814(2)
H16 H -0.1675 0.7302 0.5145
H17 H -0.0667 0.7474 0.4788
C3 C -0.0347(4) 0.8356(3) 0.3342(2)
C4 C -0.0063(4) 0.9078(3) 0.3139(3)
H18 H -0.0464 0.9524 0.3251
C5 C 0.0824(5) 0.9124(4) 0.2769(3)
H19 H 0.1011 0.9611 0.2637
C6 C 0.1446(5) 0.8494(5) 0.2582(3)
C7 C 0.1105(5) 0.7782(4) 0.2810(3)
H20 H 0.1504 0.7331 0.2705
C8 C 0.0247(4) 0.7706(4) 0.3166(3)
H21 H 0.0057 0.7221 0.3292
C9 C 0.2426(5) 0.8580(5) 0.2193(3)
H22 H 0.2492 0.9122 0.2096
H23 H 0.2491 0.8428 0.1807
H24 H 0.2917 0.8246 0.2430
C10 C 0.2309(3) 0.5194(2) 0.50511(18)
C11 C 0.3208(3) 0.5334(3) 0.4591(2)
H25 H 0.3593 0.5553 0.4772
H26 H 0.3582 0.4833 0.4516
C12 C 0.4375(3) 0.6741(3) 0.3687(2)
C13 C 0.3945(4) 0.7543(4) 0.3615(3)
H27 H 0.3405 0.7764 0.3419
C14 C 0.4370(5) 0.8006(4) 0.3854(3)
H28 H 0.4086 0.8536 0.3823
C15 C 0.5159(4) 0.7707(4) 0.4120(3)
C16 C 0.5560(4) 0.6940(4) 0.4180(3)
H29 H 0.6110 0.6730 0.4367
C17 C 0.5172(4) 0.6452(4) 0.3971(3)
H30 H 0.5460 0.5919 0.4024
C18 C 0.5551(6) 0.8254(4) 0.4359(4)
H31 H 0.5163 0.8777 0.4267
H32 H 0.6202 0.8269 0.4154
H33 H 0.5534 0.8061 0.4809
C19 C 0.1307(3) 0.6383(2) 0.64287(17)
C20 C 0.0891(3) 0.7209(2) 0.60726(18)
H34 H 0.0234 0.7360 0.6274
H35 H 0.1255 0.7574 0.6106
C21 C 0.1682(3) 0.8529(3) 0.4760(2)
C22 C 0.1061(4) 0.9001(3) 0.4370(2)
H36 H 0.0746 0.8777 0.4170
C23 C 0.0894(4) 0.9823(3) 0.4269(3)
H37 H 0.0478 1.0141 0.3991
C24 C 0.1316(4) 1.0165(3) 0.4560(2)
C25 C 0.1963(4) 0.9688(3) 0.4942(3)
H38 H 0.2291 0.9914 0.5132
C26 C 0.2133(4) 0.8869(3) 0.5047(3)
H39 H 0.2561 0.8552 0.5315
C27 C 0.1097(5) 1.1056(3) 0.4461(3)
H40 H 0.1463 1.1196 0.4705
H41 H 0.0423 1.1233 0.4596
H42 H 0.1266 1.1303 0.4021
C28 C 0.2447(2) 0.6305(2) 0.84567(17)
C29 C 0.1934(3) 0.7157(2) 0.83173(19)
H43 H 0.1565 0.7276 0.8708
H44 H 0.2407 0.7493 0.8157
C30 C 0.2119(3) 0.8498(3) 0.6976(2)
C31 C 0.2814(3) 0.7952(3) 0.6709(2)
H45 H 0.2744 0.7430 0.6796
C32 C 0.3607(4) 0.8196(3) 0.6316(2)
H46 H 0.4090 0.7830 0.6147
C33 C 0.3706(4) 0.8991(4) 0.6162(2)
C34 C 0.2999(4) 0.9507(3) 0.6445(3)
H47 H 0.3060 1.0032 0.6359
C35 C 0.2227(4) 0.9276(3) 0.6842(2)
H48 H 0.1763 0.9638 0.7027
C36 C 0.4568(5) 0.9273(4) 0.5708(3)
H49 H 0.4507 0.9829 0.5662
H50 H 0.4594 0.9180 0.5303
H51 H 0.5147 0.8988 0.5873
C37 C 0.5596(3) 0.5274(2) 0.82552(19)
C38 C 0.6371(3) 0.5512(3) 0.7701(2)
H52 H 0.6760 0.5792 0.7822
H53 H 0.6786 0.5040 0.7595
C39 C 0.7068(3) 0.7099(3) 0.6646(2)
C40 C 0.6501(4) 0.7841(3) 0.6574(3)
H54 H 0.5949 0.7954 0.6393
C41 C 0.6739(4) 0.8431(3) 0.6767(3)
H55 H 0.6344 0.8930 0.6722
C42 C 0.7574(4) 0.8262(4) 0.7026(3)
C43 C 0.8143(4) 0.7521(4) 0.7089(3)
H56 H 0.8704 0.7409 0.7259
C44 C 0.7897(4) 0.6933(3) 0.6902(3)
H57 H 0.8290 0.6433 0.6949
C45 C 0.7814(4) 0.8898(4) 0.7237(3)
H58 H 0.8404 0.8698 0.7407
H59 H 0.7305 0.9059 0.7557
H60 H 0.7888 0.9344 0.6882
C46 C 0.5238(3) 0.3643(2) 1.02891(17)
C47 C 0.5719(3) 0.2817(2) 1.05931(19)
H61 H 0.5324 0.2453 1.0599
H62 H 0.6331 0.2683 1.0330
C48 C 0.5141(3) 0.1448(3) 1.1930(2)
C49 C 0.5765(3) 0.0940(3) 1.2322(2)
H63 H 0.6123 0.1140 1.2512
C50 C 0.5855(4) 0.0126(3) 1.2429(2)
H64 H 0.6272 -0.0214 1.2697
C51 C 0.5350(4) -0.0189(3) 1.2155(2)
C52 C 0.4713(4) 0.0340(3) 1.1770(2)
H65 H 0.4348 0.0144 1.1583
C53 C 0.4612(4) 0.1150(3) 1.1661(2)
H66 H 0.4181 0.1491 1.1403
C54 C 0.5476(4) -0.1082(3) 1.2274(3)
H67 H 0.5071 -0.1197 1.2043
H68 H 0.5303 -0.1309 1.2719
H69 H 0.6136 -0.1302 1.2136
C55 C 0.4062(3) 0.3709(2) 0.82849(18)
C56 C 0.4532(3) 0.2854(2) 0.8425(2)
H70 H 0.4041 0.2538 0.8535
H71 H 0.4952 0.2743 0.8045
C57 C 0.4126(3) 0.1568(3) 0.9852(2)
C58 C 0.3512(4) 0.2163(3) 1.0105(3)
H72 H 0.3653 0.2666 0.9997
C59 C 0.2695(4) 0.2003(4) 1.0516(3)
H73 H 0.2271 0.2410 1.0672
C60 C 0.2480(4) 0.1256(4) 1.0708(3)
C61 C 0.3097(4) 0.0676(4) 1.0454(3)
H74 H 0.2962 0.0170 1.0574
C62 C 0.3914(4) 0.0821(3) 1.0024(3)
H75 H 0.4319 0.0420 0.9853
C63 C 0.1579(5) 0.1064(4) 1.1187(3)
H76 H 0.1562 0.0515 1.1257
H77 H 0.1014 0.1387 1.1022
H78 H 0.1599 0.1169 1.1580
C64 C 0.1795(3) 0.3655(2) 0.69879(17)
C65 C 0.2344(3) 0.2841(2) 0.72731(18)
H79 H 0.1999 0.2449 0.7265
H80 H 0.2967 0.2750 0.7009
C66 C 0.1718(3) 0.1469(3) 0.85817(19)
C67 C 0.2386(3) 0.0945(3) 0.8930(2)
H81 H 0.2767 0.1133 0.9112
C68 C 0.2494(4) 0.0135(3) 0.9010(2)
H82 H 0.2947 -0.0214 0.9247
C69 C 0.1945(4) -0.0152(3) 0.8748(2)
C70 C 0.1268(3) 0.0375(3) 0.8408(2)
H83 H 0.0883 0.0183 0.8233
C71 C 0.1146(3) 0.1190(3) 0.8320(2)
H84 H 0.0686 0.1539 0.8089
C72 C 0.2089(4) -0.1035(3) 0.8824(3)
H85 H 0.1649 -0.1136 0.8609
H86 H 0.1973 -0.1298 0.9266
H87 H 0.2737 -0.1232 0.8645
C73 C 0.0927(3) 0.4737(2) 0.84276(19)
C74 C 0.0119(3) 0.4502(3) 0.8954(2)
H88 H -0.0293 0.4973 0.9064
H89 H -0.0266 0.4242 0.8809
C75 C -0.0628(3) 0.2876(3) 0.9923(2)
C76 C -0.0052(4) 0.2134(3) 0.9968(2)
H90 H 0.0514 0.2015 1.0134
C77 C -0.0302(4) 0.1561(3) 0.9770(3)
H91 H 0.0094 0.1063 0.9804
C78 C -0.1146(4) 0.1735(4) 0.9522(3)
C79 C -0.1713(4) 0.2455(4) 0.9474(3)
H92 H -0.2281 0.2562 0.9311
C80 C -0.1477(4) 0.3048(4) 0.9662(3)
H93 H -0.1872 0.3548 0.9616
C81 C -0.1397(5) 0.1096(4) 0.9315(3)
H94 H -0.1994 0.1294 0.9155
H95 H -0.1458 0.0648 0.9670
H96 H -0.0897 0.0939 0.8989
Er1A Er -0.064263(14) 0.505970(12) 0.404836(9)
Er3A Er 0.595877(14) 0.506173(12) 1.074742(9)
O8A O 0.07388(19) 0.41137(16) 0.53301(12)
O28A O 0.46819(19) 0.57973(16) 0.95165(13)
O43 O -0.1002(3) 0.3895(2) 0.78536(18)
O44 O 0.0739(2) 0.3501(2) 1.16989(18)
O45 O 0.2819(3) 0.6479(2) 0.17754(19)
O46 O 0.4372(3) 0.6178(3) 0.5707(2)
O47 O 0.2473(3) 0.3883(3) 1.1155(2)
loop_
_geom_bond_atom_site_label_1
_geom_bond_atom_site_label_2
_geom_bond_site_symmetry_1
_geom_bond_site_symmetry_2
Er1 O1 1_555 1_555
Er2 O3 1_555 1_555
Er3 O5 1_555 1_555
S1 O9 1_555 1_555
S2 O17 1_555 1_555
S3 O13 1_555 1_555
S4 O21 1_555 1_555
S5 O25 1_555 1_555
S6 O29 1_555 1_555
S7 O33 1_555 1_555
S8 O37 1_555 1_555
S9 O41 1_555 1_555
O1 H1 1_555 1_555
O2 Er1 1_555 1_555
H2 O2 1_555 1_555
O3 H3 1_555 1_555
O4 Er2 1_555 1_555
H4 O4 1_555 1_555
O5 H5 1_555 1_555
O6 Er3 1_555 1_555
H6 O6 1_555 1_555
O7 Er1 1_555 1_555
O8 C1 1_555 1_555
O10 S1 1_555 1_555
O11 Er1 1_555 1_555
O12 Er1 1_555 1_555
O14 S3 1_555 1_555
O15 Er1 1_555 1_555
O16 Er2 1_555 1_555
O18 S2 1_555 1_555
O19 Er2 1_555 1_555
O20 Er3 1_555 1_555
O22 S4 1_555 1_555
O23 Er3 1_555 1_555
O24 Er3 1_555 1_555
O26 S5 1_555 1_555
O27 Er3 1_555 1_555
O28 C46 1_555 1_555
O30 S6 1_555 1_555
O31 Er3 1_555 1_555
O32 Er2 1_555 1_555
O34 S7 1_555 1_555
O35 Er2 1_555 1_555
O36 Er1 1_555 1_555
O38 S8 1_555 1_555
O39 Er2 1_555 1_555
O40 Er2 1_555 1_555
O42 S9 1_555 1_555
N1 S1 1_555 1_555
H7 N1 1_555 1_555
N2 S3 1_555 1_555
H8 N2 1_555 1_555
N3 S2 1_555 1_555
H9 N3 1_555 1_555
N4 S4 1_555 1_555
H10 N4 1_555 1_555
N5 S5 1_555 1_555
H11 N5 1_555 1_555
N6 S6 1_555 1_555
H12 N6 1_555 1_555
N7 S7 1_555 1_555
H13 N7 1_555 1_555
N8 S8 1_555 1_555
H14 N8 1_555 1_555
N9 S9 1_555 1_555
H15 N9 1_555 1_555
C1 O7 1_555 1_555
C2 N1 1_555 1_555
H16 C2 1_555 1_555
H17 C2 1_555 1_555
C3 S1 1_555 1_555
C4 C3 1_555 1_555
H18 C4 1_555 1_555
C5 C4 1_555 1_555
H19 C5 1_555 1_555
C6 C5 1_555 1_555
C7 C6 1_555 1_555
H20 C7 1_555 1_555
C8 C3 1_555 1_555
H21 C8 1_555 1_555
C9 C6 1_555 1_555
H22 C9 1_555 1_555
H23 C9 1_555 1_555
H24 C9 1_555 1_555
C10 O11 1_555 1_555
C11 N2 1_555 1_555
H25 C11 1_555 1_555
H26 C11 1_555 1_555
C12 S3 1_555 1_555
C13 C12 1_555 1_555
H27 C13 1_555 1_555
C14 C13 1_555 1_555
H28 C14 1_555 1_555
C15 C14 1_555 1_555
C16 C15 1_555 1_555
H29 C16 1_555 1_555
C17 C12 1_555 1_555
H30 C17 1_555 1_555
C18 C15 1_555 1_555
H31 C18 1_555 1_555
H32 C18 1_555 1_555
H33 C18 1_555 1_555
C19 O15 1_555 1_555
C20 N3 1_555 1_555
H34 C20 1_555 1_555
H35 C20 1_555 1_555
C21 S2 1_555 1_555
C22 C21 1_555 1_555
H36 C22 1_555 1_555
C23 C22 1_555 1_555
H37 C23 1_555 1_555
C24 C23 1_555 1_555
C25 C24 1_555 1_555
H38 C25 1_555 1_555
C26 C21 1_555 1_555
H39 C26 1_555 1_555
C27 C24 1_555 1_555
H40 C27 1_555 1_555
H41 C27 1_555 1_555
H42 C27 1_555 1_555
C28 O19 1_555 1_555
C29 N4 1_555 1_555
H43 C29 1_555 1_555
H44 C29 1_555 1_555
C30 S4 1_555 1_555
C31 C30 1_555 1_555
H45 C31 1_555 1_555
C32 C31 1_555 1_555
H46 C32 1_555 1_555
C33 C32 1_555 1_555
C34 C33 1_555 1_555
H47 C34 1_555 1_555
C35 C30 1_555 1_555
H48 C35 1_555 1_555
C36 C33 1_555 1_555
H49 C36 1_555 1_555
H50 C36 1_555 1_555
H51 C36 1_555 1_555
C37 O23 1_555 1_555
C38 N5 1_555 1_555
H52 C38 1_555 1_555
H53 C38 1_555 1_555
C39 S5 1_555 1_555
C40 C39 1_555 1_555
H54 C40 1_555 1_555
C41 C40 1_555 1_555
H55 C41 1_555 1_555
C42 C41 1_555 1_555
C43 C42 1_555 1_555
H56 C43 1_555 1_555
C44 C39 1_555 1_555
H57 C44 1_555 1_555
C45 C42 1_555 1_555
H58 C45 1_555 1_555
H59 C45 1_555 1_555
H60 C45 1_555 1_555
C46 O27 1_555 1_555
C47 N6 1_555 1_555
H61 C47 1_555 1_555
H62 C47 1_555 1_555
C48 S6 1_555 1_555
C49 C48 1_555 1_555
H63 C49 1_555 1_555
C50 C49 1_555 1_555
H64 C50 1_555 1_555
C51 C50 1_555 1_555
C52 C51 1_555 1_555
H65 C52 1_555 1_555
C53 C48 1_555 1_555
H66 C53 1_555 1_555
C54 C51 1_555 1_555
H67 C54 1_555 1_555
H68 C54 1_555 1_555
H69 C54 1_555 1_555
C55 O31 1_555 1_555
C56 N7 1_555 1_555
H70 C56 1_555 1_555
H71 C56 1_555 1_555
C57 S7 1_555 1_555
C58 C57 1_555 1_555
H72 C58 1_555 1_555
C59 C58 1_555 1_555
H73 C59 1_555 1_555
C60 C59 1_555 1_555
C61 C60 1_555 1_555
H74 C61 1_555 1_555
C62 C57 1_555 1_555
H75 C62 1_555 1_555
C63 C60 1_555 1_555
H76 C63 1_555 1_555
H77 C63 1_555 1_555
H78 C63 1_555 1_555
C64 O35 1_555 1_555
C65 N8 1_555 1_555
H79 C65 1_555 1_555
H80 C65 1_555 1_555
C66 S8 1_555 1_555
C67 C66 1_555 1_555
H81 C67 1_555 1_555
C68 C67 1_555 1_555
H82 C68 1_555 1_555
C69 C68 1_555 1_555
C70 C69 1_555 1_555
H83 C70 1_555 1_555
C71 C66 1_555 1_555
H84 C71 1_555 1_555
C72 C69 1_555 1_555
H85 C72 1_555 1_555
H86 C72 1_555 1_555
H87 C72 1_555 1_555
C73 O39 1_555 1_555
C74 N9 1_555 1_555
H88 C74 1_555 1_555
H89 C74 1_555 1_555
C75 S9 1_555 1_555
C76 C75 1_555 1_555
H90 C76 1_555 1_555
C77 C76 1_555 1_555
H91 C77 1_555 1_555
C78 C77 1_555 1_555
C79 C78 1_555 1_555
H92 C79 1_555 1_555
C80 C75 1_555 1_555
H93 C80 1_555 1_555
C81 C78 1_555 1_555
H94 C81 1_555 1_555
H95 C81 1_555 1_555
H96 C81 1_555 1_555
Er1A O8 1_555 1_555
Er3A O28 1_555 1_555
O8A Er1 1_555 1_555
O28A Er3 1_555 1_555
O12 C10 1_555 1_555
O16 C19 1_555 1_555
O20 C28 1_555 1_555
O24 C37 1_555 1_555
O32 C55 1_555 1_555
O36 C64 1_555 1_555
O40 C73 1_555 1_555
C1 C2 1_555 1_555
C7 C8 1_555 1_555
C10 C11 1_555 1_555
C16 C17 1_555 1_555
C19 C20 1_555 1_555
C25 C26 1_555 1_555
C28 C29 1_555 1_555
C34 C35 1_555 1_555
C37 C38 1_555 1_555
C43 C44 1_555 1_555
C46 C47 1_555 1_555
C52 C53 1_555 1_555
C55 C56 1_555 1_555
C61 C62 1_555 1_555
C64 C65 1_555 1_555
C70 C71 1_555 1_555
C73 C74 1_555 1_555
C79 C80 1_555 1_555

#END
