
#######################################################################
#
#                 Cambridge Crystallographic Data Centre
#                                CCDC 
#
#######################################################################
#
# If this CIF has been generated from an entry in the Cambridge 
# Structural Database, then it will include bibliographic, chemical, 
# crystal, experimental, refinement or atomic coordinate data resulting 
# from the CCDC's data processing and validation procedures.
#
#######################################################################

data_KEPGAN
_symmetry_cell_setting           monoclinic
_symmetry_space_group_name_H-M   'C c'
_symmetry_Int_Tables_number      9
_space_group_name_Hall           'C -2yc'
loop_
_symmetry_equiv_pos_site_id
_symmetry_equiv_pos_as_xyz
1 x,y,z
2 x,-y,1/2+z
3 1/2+x,1/2+y,z
4 1/2+x,1/2-y,1/2+z
_cell_length_a                   15.724(3)
_cell_length_b                   8.849(2)
_cell_length_c                   18.354(4)
_cell_angle_alpha                90
_cell_angle_beta                 98.40(3)
_cell_angle_gamma                90
_cell_volume                     2526.41
loop_
_atom_site_label
_atom_site_type_symbol
_atom_site_fract_x
_atom_site_fract_y
_atom_site_fract_z
Ce1 Ce 0.258908(17) 0.05031(4) 0.054577(15)
Ce2 Ce 0.351062(19) 0.09102(4) 0.270855(17)
O1 O -0.0117(4) -0.3046(9) 0.2261(3)
O2 O -0.1147(3) -0.3490(6) 0.1357(3)
O3 O 0.1623(3) -0.0285(6) -0.0563(3)
O4 O 0.0508(4) -0.1572(9) -0.1150(3)
O5 O 0.2974(4) -0.1080(5) 0.1748(3)
O6 O 0.3065(6) -0.3307(7) 0.2331(3)
O7 O 0.2902(3) -0.7412(5) -0.0232(3)
O8 O 0.2809(5) -0.5635(6) -0.1101(3)
O9 O 0.2227(3) 0.1782(5) 0.1748(2)
O10 O 0.1315(4) 0.3066(7) 0.2339(3)
O11 O -0.0690(3) 0.3664(7) -0.1074(3)
O12 O -0.1286(3) 0.4749(6) -0.0181(3)
O13 O 0.2406(3) 0.1895(6) 0.3463(3)
H1 H 0.2020 0.1045 0.3563
H2 H 0.2072 0.2186 0.3104
O14 O 0.4752(4) -0.1050(8) 0.2821(4)
H3 H 0.4907 -0.1404 0.2417
H4 H 0.5028 -0.1388 0.3297
O15 O 0.3544(6) 0.3774(7) 0.2806(4)
H5 H 0.3373 0.4344 0.2405
H6 H 0.3729 0.4219 0.3241
O16 O 0.3133(4) -0.1260(6) 0.3390(3)
H7 H 0.3174 -0.1411 0.3831
H8 H 0.3148 -0.2107 0.3153
N1 N 0.0774(4) -0.1372(7) 0.1311(3)
H13 H 0.0966 -0.1197 0.1766
N2 N 0.1132(4) -0.0849(7) 0.0739(3)
N3 N 0.2776(4) -0.2443(7) 0.0449(3)
N4 N 0.2755(4) -0.3392(6) -0.0113(3)
H14 H 0.2674 -0.3115 -0.0567
N5 N 0.1315(4) 0.2450(7) 0.0447(3)
N6 N 0.0716(4) 0.2847(7) -0.0108(3)
H15 H 0.0761 0.2711 -0.0564
C1 C -0.0417(5) -0.2951(9) 0.1604(4)
C2 C 0.0070(4) -0.2222(8) 0.1071(4)
C3 C -0.0016(5) -0.2274(9) 0.0312(4)
H16 H -0.0447 -0.2795 -0.0022
C4 C 0.0660(4) -0.1401(8) 0.0145(4)
C5 C 0.0927(5) -0.1068(9) -0.0594(4)
C6 C 0.2982(6) -0.2543(8) 0.1771(3)
C7 C 0.2910(5) -0.3303(7) 0.1041(4)
C8 C 0.2983(5) -0.4831(8) 0.0854(4)
H17 H 0.3086 -0.5649 0.1172
C9 C 0.2875(5) -0.4851(8) 0.0107(4)
C10 C 0.2865(5) -0.6039(7) -0.0459(4)
C11 C 0.1539(4) 0.2571(8) 0.1774(4)
C12 C 0.1002(4) 0.2850(8) 0.1058(4)
C13 C 0.0192(4) 0.3523(9) 0.0878(4)
H18 H -0.0159 0.3912 0.1199
C14 C 0.0035(4) 0.3477(8) 0.0129(4)
C15 C -0.0709(4) 0.3989(8) -0.0412(4)
C1B C 0.4583(5) 0.2049(9) 0.1604(4)
O1B O 0.4883(4) 0.1954(9) 0.2261(3)
O2B O 0.3853(3) 0.1510(6) 0.1357(3)
O7_2 O 0.2902(3) 0.2588(5) -0.0232(3)
O11C O 0.4310(3) 0.1336(7) 0.3926(3)
O12B O 0.3714(3) -0.0251(6) -0.0181(3)
Ce2B Ce -0.148938(19) -0.40898(4) 0.270855(17)
Ce1B Ce -0.241092(17) -0.44969(4) 0.054577(15)
Ce1_2 Ce 0.258908(17) -0.94969(4) 0.054577(15)
Ce2C Ce -0.148938(19) 0.40898(4) -0.229145(17)
Ce1B_2 Ce -0.241092(17) 0.55031(4) 0.054577(15)
O17 O 0.6202(4) 0.1970(9) 0.3464(3)
H9 H 0.5710 0.1266 0.3364
H10 H 0.6583 0.1567 0.3263
O18 O 0.6061(9) 0.4685(10) 0.2712(4)
H11 H 0.6202 0.4630 0.3277
H12 H 0.6120 0.5612 0.2610
loop_
_geom_bond_atom_site_label_1
_geom_bond_atom_site_label_2
_geom_bond_site_symmetry_1
_geom_bond_site_symmetry_2
Ce1 O3 1_555 1_555
Ce2 O5 1_555 1_555
O1 C1 1_555 1_555
O2 C1 1_555 1_555
O3 C5 1_555 1_555
O4 C5 1_555 1_555
O5 Ce1 1_555 1_555
O6 C6 1_555 1_555
O7 C10 1_555 1_555
O8 C10 1_555 1_555
O9 Ce1 1_555 1_555
O10 C11 1_555 1_555
O11 C15 1_555 1_555
O12 C15 1_555 1_555
O13 Ce2 1_555 1_555
H1 O13 1_555 1_555
H2 O13 1_555 1_555
O14 Ce2 1_555 1_555
H3 O14 1_555 1_555
H4 O14 1_555 1_555
O15 Ce2 1_555 1_555
H5 O15 1_555 1_555
H6 O15 1_555 1_555
O16 Ce2 1_555 1_555
H7 O16 1_555 1_555
H8 O16 1_555 1_555
O17 H9 1_555 1_555
H10 O17 1_555 1_555
O18 H11 1_555 1_555
H12 O18 1_555 1_555
N1 H13 1_555 1_555
N2 Ce1 1_555 1_555
N3 Ce1 1_555 1_555
N4 N3 1_555 1_555
H14 N4 1_555 1_555
N5 Ce1 1_555 1_555
N6 N5 1_555 1_555
H15 N6 1_555 1_555
C1 C2 1_555 1_555
C2 N1 1_555 1_555
C3 C2 1_555 1_555
H16 C3 1_555 1_555
C4 N2 1_555 1_555
C5 C4 1_555 1_555
C6 O5 1_555 1_555
C7 N3 1_555 1_555
C8 C7 1_555 1_555
H17 C8 1_555 1_555
C9 N4 1_555 1_555
C10 C9 1_555 1_555
C11 O9 1_555 1_555
C12 N5 1_555 1_555
C13 C12 1_555 1_555
H18 C13 1_555 1_555
C14 N6 1_555 1_555
C15 C14 1_555 1_555
C1B O1B 1_555 1_555
O1B Ce2 1_555 1_555
O2B Ce1 1_555 1_555
O7_2 Ce1 1_555 1_555
O11C Ce2 1_555 1_555
O12B Ce1 1_555 1_555
Ce2B O1 1_555 1_555
Ce1B O2 1_555 1_555
Ce1_2 O7 1_555 1_555
Ce2C O11 1_555 1_555
Ce1B_2 O12 1_555 1_555
Ce2 O2B 1_555 1_555
Ce2 O9 1_555 1_555
O2 Ce2B 1_555 1_555
N1 N2 1_555 1_555
C3 C4 1_555 1_555
C6 C7 1_555 1_555
C8 C9 1_555 1_555
C11 C12 1_555 1_555
C13 C14 1_555 1_555
C1B O2B 1_555 1_555

#END
