
#######################################################################
#
#                 Cambridge Crystallographic Data Centre
#                                CCDC 
#
#######################################################################
#
# If this CIF has been generated from an entry in the Cambridge 
# Structural Database, then it will include bibliographic, chemical, 
# crystal, experimental, refinement or atomic coordinate data resulting 
# from the CCDC's data processing and validation procedures.
#
#######################################################################

data_KEPGIX
_symmetry_cell_setting           orthorhombic
_symmetry_space_group_name_H-M   'P 21 21 21'
_symmetry_Int_Tables_number      19
_space_group_name_Hall           'P 2ac 2ab'
loop_
_symmetry_equiv_pos_site_id
_symmetry_equiv_pos_as_xyz
1 x,y,z
2 1/2-x,-y,1/2+z
3 1/2+x,1/2-y,-z
4 -x,1/2+y,1/2-z
_cell_length_a                   16.2024(4)
_cell_length_b                   17.8809(4)
_cell_length_c                   20.8774(5)
_cell_angle_alpha                90
_cell_angle_beta                 90
_cell_angle_gamma                90
_cell_volume                     6048.46
loop_
_atom_site_label
_atom_site_type_symbol
_atom_site_fract_x
_atom_site_fract_y
_atom_site_fract_z
Fe1 Fe 0.27816(3) 0.61621(3) 0.56646(2)
Fe2 Fe -0.25425(3) 0.63163(3) 0.08869(2)
O1 O 0.34436(16) 0.52811(15) 0.53491(12)
O2 O 0.32881(15) 0.71434(14) 0.54147(12)
O3 O 0.36404(19) 0.30915(17) 0.60638(18)
O4 O 0.2626(2) 0.33638(15) 0.67443(14)
O5 O 0.2794(2) 0.93540(15) 0.59547(15)
O6 O 0.17058(18) 0.89536(15) 0.65037(13)
O7 O -0.33397(15) 0.66310(15) 0.15206(12)
O8 O -0.27240(15) 0.53022(14) 0.11760(11)
O9 O -0.4183(2) 0.8802(2) 0.18117(17)
O10 O -0.30443(19) 0.92426(17) 0.13277(15)
O11 O -0.1286(2) 0.34317(16) 0.07579(16)
O12 O -0.06526(17) 0.40699(15) -0.00100(13)
N1 N 0.18445(17) 0.68100(16) 0.60708(13)
N2 N 0.20285(17) 0.53416(16) 0.60642(14)
N3 N 0.20339(17) 0.61019(17) 0.47786(13)
N4 N 0.36103(19) 0.61641(19) 0.65492(13)
N5 N 0.0208(2) 0.5964(2) 0.33430(16)
N6 N 0.0225(2) 0.6467(2) 0.29372(16)
N7 N -0.17407(17) 0.60246(16) 0.02780(13)
N8 N -0.23268(17) 0.73068(15) 0.05986(13)
N9 N -0.16818(17) 0.63911(18) 0.15546(14)
N10 N 0.65713(17) 0.62420(17) 1.02226(13)
N11 N 0.49208(18) 0.63571(18) 0.86625(14)
N12 N 0.51732(19) 0.6061(2) 0.81619(15)
C1 C 0.3514(2) 0.4607(2) 0.55485(18)
C2 C 0.2977(2) 0.4292(2) 0.60055(18)
C3 C 0.2247(2) 0.46585(19) 0.62122(17)
H1 H 0.1885 0.4384 0.6482
C4 C 0.1223(2) 0.5605(2) 0.62082(18)
C5 C 0.0531(2) 0.5153(2) 0.6280(2)
H2 H 0.0591 0.4624 0.6270
C6 C -0.0243(3) 0.5460(3) 0.6366(2)
H3 H -0.0713 0.5146 0.6408
C7 C -0.0328(2) 0.6229(3) 0.6391(2)
H4 H -0.0856 0.6443 0.6465
C8 C 0.0346(2) 0.6689(2) 0.63098(18)
H5 H 0.0274 0.7216 0.6318
C9 C 0.1132(2) 0.6391(2) 0.62152(16)
C10 C 0.1843(2) 0.7534(2) 0.61463(16)
H6 H 0.1375 0.7745 0.6352
C11 C 0.2480(2) 0.80421(18) 0.59494(16)
C12 C 0.3166(2) 0.7820(2) 0.55773(18)
C13 C 0.4222(3) 0.4175(3) 0.5245(2)
H7 H 0.4478 0.4481 0.4910
H8 H 0.4011 0.3711 0.5057
H9 H 0.4634 0.4056 0.5574
C14 C 0.3797(3) 0.8364(3) 0.5324(2)
H10 H 0.4203 0.8095 0.5063
H11 H 0.4077 0.8609 0.5684
H12 H 0.3521 0.8742 0.5060
C15 C 0.3135(3) 0.3532(2) 0.6255(2)
C16 C 0.2679(4) 0.2591(3) 0.6984(3)
H13 H 0.3231 0.2494 0.7169
H14 H 0.2579 0.2230 0.6634
C17 C 0.2029(5) 0.2526(3) 0.7485(3)
H15 H 0.2218 0.2769 0.7879
H16 H 0.1918 0.1996 0.7570
H17 H 0.1523 0.2769 0.7334
C18 C 0.2362(2) 0.8830(2) 0.61177(17)
C19 C 0.1538(4) 0.9732(3) 0.6646(2)
H18 H 0.1384 1.0001 0.6249
H19 H 0.2037 0.9972 0.6827
C20 C 0.0847(4) 0.9766(3) 0.7117(3)
H20 H 0.0335 0.9599 0.6912
H21 H 0.0780 1.0281 0.7269
H22 H 0.0971 0.9439 0.7482
C21 C -0.2285(2) 0.4733(2) 0.10576(18)
C22 C -0.1650(2) 0.4720(2) 0.05928(18)
C23 C -0.1429(2) 0.5350(2) 0.02172(18)
H23 H -0.1021 0.5279 -0.0104
C24 C -0.1471(2) 0.6621(2) -0.01165(16)
C25 C -0.0935(2) 0.6568(2) -0.06398(19)
H24 H -0.0720 0.6095 -0.0763
C26 C -0.0717(2) 0.7194(2) -0.0975(2)
H25 H -0.0346 0.7156 -0.1326
C27 C -0.1033(3) 0.7879(2) -0.08064(19)
H26 H -0.0879 0.8310 -0.1043
C28 C -0.1571(2) 0.7951(2) -0.02992(19)
H27 H -0.1790 0.8428 -0.0192
C29 C -0.1794(2) 0.7321(2) 0.00574(17)
C30 C -0.2640(2) 0.7913(2) 0.08490(17)
H28 H -0.2473 0.8377 0.0669
C31 C -0.3206(2) 0.7940(2) 0.13644(18)
C32 C -0.3511(2) 0.7301(3) 0.16797(18)
C33 C -0.2484(3) 0.4066(2) 0.1482(2)
H29 H -0.2889 0.4214 0.1807
H30 H -0.1979 0.3892 0.1693
H31 H -0.2713 0.3661 0.1220
C34 C -0.4073(3) 0.7338(3) 0.22617(19)
H32 H -0.4650 0.7346 0.2122
H33 H -0.3952 0.7793 0.2506
H34 H -0.3978 0.6899 0.2533
C35 C -0.1206(2) 0.4013(2) 0.0470(2)
C36 C -0.0178(3) 0.3400(2) -0.0145(2)
H35 H -0.0552 0.2983 -0.0260
H36 H 0.0145 0.3252 0.0237
C37 C 0.0386(3) 0.3573(2) -0.0690(2)
H37 H 0.0059 0.3707 -0.1068
H38 H 0.0725 0.3133 -0.0786
H39 H 0.0745 0.3993 -0.0574
C38 C -0.3528(3) 0.8685(3) 0.1537(2)
C39 C -0.3345(4) 0.9998(3) 0.1460(3)
H40 H -0.3956 1.0002 0.1452
H41 H -0.3143 1.0346 0.1126
C40 C -0.3047(5) 1.0246(3) 0.2099(3)
H42 H -0.3269 0.9913 0.2430
H43 H -0.3233 1.0758 0.2180
H44 H -0.2442 1.0229 0.2109
C41 C 0.1200(3) 0.6715(2) 0.39861(19)
H45 H 0.1044 0.7166 0.3778
C42 C 0.1779(2) 0.6714(2) 0.44717(19)
H46 H 0.2010 0.7181 0.4596
C43 C 0.1689(3) 0.5455(2) 0.4600(2)
H47 H 0.1857 0.5009 0.4811
C44 C 0.1105(3) 0.5405(2) 0.4129(2)
H48 H 0.0872 0.4934 0.4020
C45 C 0.0859(2) 0.6041(2) 0.38153(18)
C46 C -0.0444(2) 0.6416(2) 0.24883(17)
C47 C -0.1198(2) 0.6080(3) 0.26085(18)
H49 H -0.1302 0.5844 0.3009
C48 C -0.1794(2) 0.6091(2) 0.21419(18)
H50 H -0.2316 0.5876 0.2237
C49 C -0.0947(2) 0.6726(2) 0.14536(18)
H51 H -0.0851 0.6953 0.1049
C50 C -0.0327(2) 0.6756(2) 0.19073(19)
H52 H 0.0175 0.7010 0.1817
C51 C 0.5445(2) 0.6810(2) 0.96594(18)
H53 H 0.5041 0.7195 0.9641
C52 C 0.5996(2) 0.6781(2) 1.01614(18)
H54 H 0.5968 0.7160 1.0480
C53 C 0.6567(2) 0.5694(2) 0.97684(18)
H55 H 0.6942 0.5289 0.9813
C54 C 0.6046(2) 0.5701(2) 0.92504(18)
H56 H 0.6072 0.5314 0.8940
C55 C 0.5485(2) 0.6277(2) 0.91856(16)
C56 C 0.4599(2) 0.6117(2) 0.76300(17)
C57 C 0.4894(3) 0.5877(3) 0.70491(19)
H57 H 0.5440 0.5689 0.7010
C58 C 0.4380(3) 0.5915(3) 0.65242(19)
H58 H 0.4589 0.5754 0.6122
C59 C 0.3335(3) 0.6379(3) 0.71233(19)
H59 H 0.2782 0.6552 0.7156
C60 C 0.3810(3) 0.6364(3) 0.76700(18)
H60 H 0.3588 0.6523 0.8069
Fe2_2 Fe 0.74575(3) 0.63163(3) 1.08869(2)
N10_2 N -0.34287(17) 0.62420(17) 0.02226(13)
loop_
_geom_bond_atom_site_label_1
_geom_bond_atom_site_label_2
_geom_bond_site_symmetry_1
_geom_bond_site_symmetry_2
Fe1 O1 1_555 1_555
Fe2 O7 1_555 1_555
O1 C1 1_555 1_555
O2 Fe1 1_555 1_555
O3 C15 1_555 1_555
O4 C15 1_555 1_555
O5 C18 1_555 1_555
O6 C18 1_555 1_555
O7 C32 1_555 1_555
O8 Fe2 1_555 1_555
O9 C38 1_555 1_555
O10 C38 1_555 1_555
O11 C35 1_555 1_555
O12 C35 1_555 1_555
N1 Fe1 1_555 1_555
N2 Fe1 1_555 1_555
N3 Fe1 1_555 1_555
N4 Fe1 1_555 1_555
N5 N6 1_555 1_555
N6 C46 1_555 1_555
N7 Fe2 1_555 1_555
N8 Fe2 1_555 1_555
N9 Fe2 1_555 1_555
N10 C52 1_555 1_555
N11 N12 1_555 1_555
N12 C56 1_555 1_555
C1 C2 1_555 1_555
C2 C3 1_555 1_555
C3 N2 1_555 1_555
H1 C3 1_555 1_555
C4 N2 1_555 1_555
C5 C4 1_555 1_555
H2 C5 1_555 1_555
C6 C5 1_555 1_555
H3 C6 1_555 1_555
C7 C6 1_555 1_555
H4 C7 1_555 1_555
C8 C7 1_555 1_555
H5 C8 1_555 1_555
C9 N1 1_555 1_555
C10 N1 1_555 1_555
H6 C10 1_555 1_555
C11 C10 1_555 1_555
C12 O2 1_555 1_555
C13 C1 1_555 1_555
H7 C13 1_555 1_555
H8 C13 1_555 1_555
H9 C13 1_555 1_555
C14 C12 1_555 1_555
H10 C14 1_555 1_555
H11 C14 1_555 1_555
H12 C14 1_555 1_555
C15 C2 1_555 1_555
C16 O4 1_555 1_555
H13 C16 1_555 1_555
H14 C16 1_555 1_555
C17 C16 1_555 1_555
H15 C17 1_555 1_555
H16 C17 1_555 1_555
H17 C17 1_555 1_555
C18 C11 1_555 1_555
C19 O6 1_555 1_555
H18 C19 1_555 1_555
H19 C19 1_555 1_555
C20 C19 1_555 1_555
H20 C20 1_555 1_555
H21 C20 1_555 1_555
H22 C20 1_555 1_555
C21 O8 1_555 1_555
C22 C21 1_555 1_555
C23 N7 1_555 1_555
H23 C23 1_555 1_555
C24 N7 1_555 1_555
C25 C24 1_555 1_555
H24 C25 1_555 1_555
C26 C25 1_555 1_555
H25 C26 1_555 1_555
C27 C26 1_555 1_555
H26 C27 1_555 1_555
C28 C27 1_555 1_555
H27 C28 1_555 1_555
C29 N8 1_555 1_555
C30 N8 1_555 1_555
H28 C30 1_555 1_555
C31 C30 1_555 1_555
C32 C31 1_555 1_555
C33 C21 1_555 1_555
H29 C33 1_555 1_555
H30 C33 1_555 1_555
H31 C33 1_555 1_555
C34 C32 1_555 1_555
H32 C34 1_555 1_555
H33 C34 1_555 1_555
H34 C34 1_555 1_555
C35 C22 1_555 1_555
C36 O12 1_555 1_555
H35 C36 1_555 1_555
H36 C36 1_555 1_555
C37 C36 1_555 1_555
H37 C37 1_555 1_555
H38 C37 1_555 1_555
H39 C37 1_555 1_555
C38 C31 1_555 1_555
C39 O10 1_555 1_555
H40 C39 1_555 1_555
H41 C39 1_555 1_555
C40 C39 1_555 1_555
H42 C40 1_555 1_555
H43 C40 1_555 1_555
H44 C40 1_555 1_555
C41 H45 1_555 1_555
C42 N3 1_555 1_555
H46 C42 1_555 1_555
C43 N3 1_555 1_555
H47 C43 1_555 1_555
C44 C43 1_555 1_555
H48 C44 1_555 1_555
C45 N5 1_555 1_555
C46 C47 1_555 1_555
C47 H49 1_555 1_555
C48 N9 1_555 1_555
H50 C48 1_555 1_555
C49 N9 1_555 1_555
H51 C49 1_555 1_555
C50 C46 1_555 1_555
H52 C50 1_555 1_555
C51 H53 1_555 1_555
C52 C51 1_555 1_555
H54 C52 1_555 1_555
C53 N10 1_555 1_555
H55 C53 1_555 1_555
C54 C53 1_555 1_555
H56 C54 1_555 1_555
C55 N11 1_555 1_555
C56 C57 1_555 1_555
C57 H57 1_555 1_555
C58 N4 1_555 1_555
H58 C58 1_555 1_555
C59 N4 1_555 1_555
H59 C59 1_555 1_555
C60 C56 1_555 1_555
H60 C60 1_555 1_555
Fe2_2 N10 1_555 1_555
N10_2 Fe2 1_555 1_555
C4 C9 1_555 1_555
C8 C9 1_555 1_555
C11 C12 1_555 1_555
C22 C23 1_555 1_555
C24 C29 1_555 1_555
C28 C29 1_555 1_555
C41 C42 1_555 1_555
C41 C45 1_555 1_555
C44 C45 1_555 1_555
C47 C48 1_555 1_555
C49 C50 1_555 1_555
C51 C55 1_555 1_555
C54 C55 1_555 1_555
C57 C58 1_555 1_555
C59 C60 1_555 1_555

#END
