
#######################################################################
#
#                 Cambridge Crystallographic Data Centre
#                                CCDC 
#
#######################################################################
#
# If this CIF has been generated from an entry in the Cambridge 
# Structural Database, then it will include bibliographic, chemical, 
# crystal, experimental, refinement or atomic coordinate data resulting 
# from the CCDC's data processing and validation procedures.
#
#######################################################################

data_KEPGAP
_symmetry_cell_setting           rhombohedral
_symmetry_space_group_name_H-M   'R -3 m'
_symmetry_Int_Tables_number      166
_space_group_name_Hall           '-R 3 2"'
loop_
_symmetry_equiv_pos_site_id
_symmetry_equiv_pos_as_xyz
1 x,y,z
2 -y,x-y,z
3 -x+y,-x,z
4 x-y,-y,-z
5 -x,-x+y,-z
6 y,x,-z
7 2/3+x,1/3+y,1/3+z
8 2/3-y,1/3+x-y,1/3+z
9 2/3-x+y,1/3-x,1/3+z
10 2/3+x-y,1/3-y,1/3-z
11 2/3-x,1/3-x+y,1/3-z
12 2/3+y,1/3+x,1/3-z
13 1/3+x,2/3+y,2/3+z
14 1/3-y,2/3+x-y,2/3+z
15 1/3-x+y,2/3-x,2/3+z
16 1/3+x-y,2/3-y,2/3-z
17 1/3-x,2/3-x+y,2/3-z
18 1/3+y,2/3+x,2/3-z
19 -x,-y,-z
20 y,-x+y,-z
21 x-y,x,-z
22 -x+y,y,z
23 x,x-y,z
24 -y,-x,z
25 1/3-x,2/3-y,2/3-z
26 1/3+y,2/3-x+y,2/3-z
27 1/3+x-y,2/3+x,2/3-z
28 1/3-x+y,2/3+y,2/3+z
29 1/3+x,2/3+x-y,2/3+z
30 1/3-y,2/3-x,2/3+z
31 2/3-x,1/3-y,1/3-z
32 2/3+y,1/3-x+y,1/3-z
33 2/3+x-y,1/3+x,1/3-z
34 2/3-x+y,1/3+y,1/3+z
35 2/3+x,1/3+x-y,1/3+z
36 2/3-y,1/3-x,1/3+z
_cell_length_a                   23.401(2)
_cell_length_b                   23.401(2)
_cell_length_c                   19.195(3)
_cell_angle_alpha                90
_cell_angle_beta                 90
_cell_angle_gamma                120
_cell_volume                     9103.06
loop_
_atom_site_label
_atom_site_type_symbol
_atom_site_fract_x
_atom_site_fract_y
_atom_site_fract_z
C1 C 0.3874(9) 0.0177(10) 0.0526(9)
H1 H 0.3732 0.0298 0.0923
C2 C 0.4464(11) 0.0204(10) 0.0551(9)
H2 H 0.4725 0.0363 0.0948
C3 C 0.4674(9) 0.0000 0.0000
C4 C 0.1350(5) -0.1350(5) 0.0289(11)
H3 H 0.1376 -0.1376 0.0771
C5 C 0.1599(6) -0.1003(6) -0.0765(8)
C6 C 0.2007(9) -0.0549(8) -0.1311(9)
N1 N 0.3504(7) 0.0000 0.0000
N2 N 0.1802(5) -0.0857(5) -0.0079(6)
O1 O 0.2516(5) -0.0046(5) -0.1142(6)
O2 O 0.1783(4) -0.0722(5) -0.1934(5)
Zn1 Zn 0.26345(9) 0.0000 0.0000
C1C C 0.3697(13) -0.0177(10) -0.0526(9)
C1R C 0.6126(9) -0.0177(10) -0.0526(9)
C1U C 0.6303(13) 0.0177(10) 0.0526(9)
H1C H 0.3434 -0.0298 -0.0923
H1R H 0.6268 -0.0298 -0.0923
H1U H 0.6566 0.0298 0.0923
C2C C 0.4260(15) -0.0204(10) -0.0551(9)
C2R C 0.5536(11) -0.0204(10) -0.0551(9)
C2U C 0.5740(15) 0.0204(10) 0.0551(9)
H2C H 0.4362 -0.0363 -0.0948
H2U H 0.5638 0.0363 0.0948
H2R H 0.5275 -0.0363 -0.0948
C3R C 0.5326(9) 0.0000 0.0000
C4C C 0.2700(7) 0.1350(5) -0.0289(11)
H3C H 0.2752 0.1376 -0.0771
C5W C 0.1003(6) -0.1599(6) -0.0765(8)
C5C C 0.2602(8) 0.1003(6) 0.0765(8)
C5T C 0.2602(8) 0.1599(6) 0.0765(8)
C6W C 0.0549(8) -0.2007(9) -0.1311(9)
C6C C 0.2556(12) 0.0549(8) 0.1311(9)
C6T C 0.2556(12) 0.2007(9) 0.1311(9)
N1R N 0.6496(7) 0.0000 0.0000
N2W N 0.0857(5) -0.1802(5) -0.0079(6)
N2C N 0.2659(7) 0.0857(5) 0.0079(6)
N2T N 0.2659(7) 0.1802(5) 0.0079(6)
N2R N 0.8198(5) 0.0857(5) 0.0079(6)
N2U N 0.7341(7) -0.0857(5) -0.0079(6)
O1W O 0.0046(5) -0.2516(5) -0.1142(6)
O1C O 0.2562(7) 0.0046(5) 0.1142(6)
O1T O 0.2562(7) 0.2516(5) 0.1142(6)
O1R O 0.7484(5) 0.0046(5) 0.1142(6)
O1U O 0.7438(7) -0.0046(5) -0.1142(6)
O2W O 0.0722(5) -0.1783(4) -0.1934(5)
O2C O 0.2505(6) 0.0722(5) 0.1934(5)
O2T O 0.2505(6) 0.1783(4) 0.1934(5)
Zn1R Zn 0.73655(9) 0.0000 0.0000
Zn1S Zn 0.0000 -0.26345(9) 0.0000
Zn1T Zn 0.26345(9) 0.26345(9) 0.0000
O3 O 0.5815(18) 0.163(4) 0.144(2)
C7? C 0.2260(15) -0.2260(15) 0.063(3)
loop_
_geom_bond_atom_site_label_1
_geom_bond_atom_site_label_2
_geom_bond_site_symmetry_1
_geom_bond_site_symmetry_2
C1 H1 1_555 1_555
C2 C1 1_555 1_555
H2 C2 1_555 1_555
C3 C2 1_555 1_555
C4 H3 1_555 1_555
C5 C6 1_555 1_555
C6 O1 1_555 1_555
N1 C1 1_555 1_555
N2 C4 1_555 1_555
O1 Zn1 1_555 1_555
O2 C6 1_555 1_555
Zn1 N1 1_555 1_555
C1C N1 1_555 1_555
C1R H1R 1_555 1_555
C1U H1U 1_555 1_555
H1C C1C 1_555 1_555
C2C C3 1_555 1_555
C2R C1R 1_555 1_555
C2U C1U 1_555 1_555
H2C C2C 1_555 1_555
H2U C2U 1_555 1_555
H2R C2R 1_555 1_555
C3R C3 1_555 1_555
C4C H3C 1_555 1_555
C5W C5 1_555 1_555
C5C C5T 1_555 1_555
C5T C6T 1_555 1_555
C6W C5W 1_555 1_555
C6C C5C 1_555 1_555
C6T O1T 1_555 1_555
N1R C1R 1_555 1_555
N2W C4 1_555 1_555
N2C Zn1 1_555 1_555
N2T C4C 1_555 1_555
N2R Zn1R 1_555 1_555
N2U Zn1R 1_555 1_555
O1W C6W 1_555 1_555
O1C Zn1 1_555 1_555
O1T Zn1T 1_555 1_555
O1R Zn1R 1_555 1_555
O1U Zn1R 1_555 1_555
O2W C6W 1_555 1_555
O2C C6C 1_555 1_555
O2T C6T 1_555 1_555
Zn1R N1R 1_555 1_555
Zn1S N2W 1_555 1_555
Zn1T N2T 1_555 1_555
C5 N2 1_555 1_555
N2 Zn1 1_555 1_555
C1C C2C 1_555 1_555
C1U N1R 1_555 1_555
C2R C3R 1_555 1_555
C2U C3R 1_555 1_555
C4C N2C 1_555 1_555
C5W N2W 1_555 1_555
C5C N2C 1_555 1_555
C5T N2T 1_555 1_555
C6C O1C 1_555 1_555
O1W Zn1S 1_555 1_555

#END
