
#######################################################################
#
#                 Cambridge Crystallographic Data Centre
#                                CCDC 
#
#######################################################################
#
# If this CIF has been generated from an entry in the Cambridge 
# Structural Database, then it will include bibliographic, chemical, 
# crystal, experimental, refinement or atomic coordinate data resulting 
# from the CCDC's data processing and validation procedures.
#
#######################################################################

data_KEPMIC
_symmetry_cell_setting           monoclinic
_symmetry_space_group_name_H-M   'P 21/c'
_symmetry_Int_Tables_number      14
_space_group_name_Hall           '-P 2ybc'
loop_
_symmetry_equiv_pos_site_id
_symmetry_equiv_pos_as_xyz
1 x,y,z
2 -x,1/2+y,1/2-z
3 -x,-y,-z
4 x,1/2-y,1/2+z
_cell_length_a                   10.1071(8)
_cell_length_b                   10.9569(9)
_cell_length_c                   14.1281(11)
_cell_angle_alpha                90
_cell_angle_beta                 101.257(3)
_cell_angle_gamma                90
_cell_volume                     1534.48
loop_
_atom_site_label
_atom_site_type_symbol
_atom_site_fract_x
_atom_site_fract_y
_atom_site_fract_z
Co1 Co 0.15942(2) 0.11654(2) 0.738092(13)
N1 N 0.26159(13) -0.04778(13) 0.79037(9)
N2 N 0.34789(13) 0.18360(13) 0.81284(9)
C1 C 0.21768(19) -0.16143(18) 0.77786(13)
H1 H 0.1288 -0.1747 0.7470
C2 C 0.2988(2) -0.26238(19) 0.80887(15)
H2 H 0.2642 -0.3410 0.7986
C3 C 0.4288(2) -0.24481(19) 0.85424(14)
H3 H 0.4836 -0.3114 0.8757
C4 C 0.47968(18) -0.12627(17) 0.86855(12)
C5 C 0.6143(2) -0.0980(2) 0.91635(14)
H4 H 0.6737 -0.1612 0.9387
C6 C 0.65670(18) 0.0177(2) 0.92961(13)
H5 H 0.7448 0.0330 0.9611
C7 C 0.56986(17) 0.11815(18) 0.89652(12)
C8 C 0.6061(2) 0.2417(2) 0.91074(13)
H6 H 0.6925 0.2625 0.9429
C9 C 0.5159(2) 0.3304(2) 0.87786(15)
H7 H 0.5393 0.4121 0.8883
C10 C 0.3868(2) 0.29823(18) 0.82795(12)
H8 H 0.3262 0.3601 0.8045
C11 C 0.43764(16) 0.09384(16) 0.84758(10)
C12 C 0.39219(15) -0.02979(16) 0.83500(10)
N3 N 0.09062(16) 0.28461(16) 0.66926(10)
C13 C 0.04308(17) 0.31142(17) 0.59140(12)
N4 N -0.02296(17) 0.3412(2) 0.50628(11)
C14 C 0.03479(16) 0.34705(18) 0.43159(12)
N5 N 0.07355(15) 0.35439(15) 0.36076(10)
N6 N 0.25010(17) 0.08615(17) 0.60974(11)
C15 C 0.23087(15) 0.05293(15) 0.53236(11)
N7 N 0.22466(16) 0.0123(2) 0.44552(12)
C16 C 0.10831(17) -0.00619(18) 0.38941(12)
N8 N 0.01426(16) -0.02814(17) 0.33328(11)
Co1C Co 0.15942(2) 0.38346(2) 0.238092(13)
Co1B Co -0.15942(2) -0.11654(2) 0.261908(13)
N5C N 0.07355(15) 0.14561(15) 0.86076(10)
N8B N -0.01426(16) 0.02814(17) 0.66672(11)
loop_
_geom_bond_atom_site_label_1
_geom_bond_atom_site_label_2
_geom_bond_site_symmetry_1
_geom_bond_site_symmetry_2
Co1 N1 1_555 1_555
N1 C1 1_555 1_555
N2 Co1 1_555 1_555
C1 H1 1_555 1_555
C2 C1 1_555 1_555
H2 C2 1_555 1_555
C3 C2 1_555 1_555
H3 C3 1_555 1_555
C4 C3 1_555 1_555
C5 C4 1_555 1_555
H4 C5 1_555 1_555
C6 C5 1_555 1_555
H5 C6 1_555 1_555
C7 C6 1_555 1_555
C8 C7 1_555 1_555
H6 C8 1_555 1_555
C9 C8 1_555 1_555
H7 C9 1_555 1_555
C10 N2 1_555 1_555
H8 C10 1_555 1_555
C11 N2 1_555 1_555
C12 N1 1_555 1_555
N3 Co1 1_555 1_555
C13 N3 1_555 1_555
N4 C13 1_555 1_555
C14 N4 1_555 1_555
N5 C14 1_555 1_555
N6 Co1 1_555 1_555
C15 N6 1_555 1_555
N7 C15 1_555 1_555
C16 N7 1_555 1_555
N8 C16 1_555 1_555
Co1C N5 1_555 1_555
Co1B N8 1_555 1_555
N5C Co1 1_555 1_555
N8B Co1 1_555 1_555
C4 C12 1_555 1_555
C7 C11 1_555 1_555
C9 C10 1_555 1_555
C11 C12 1_555 1_555

#END
