
#######################################################################
#
#                 Cambridge Crystallographic Data Centre
#                                CCDC 
#
#######################################################################
#
# If this CIF has been generated from an entry in the Cambridge 
# Structural Database, then it will include bibliographic, chemical, 
# crystal, experimental, refinement or atomic coordinate data resulting 
# from the CCDC's data processing and validation procedures.
#
#######################################################################

data_KEPMIB
_symmetry_cell_setting           monoclinic
_symmetry_space_group_name_H-M   'C c'
_symmetry_Int_Tables_number      9
_space_group_name_Hall           'C -2yc'
loop_
_symmetry_equiv_pos_site_id
_symmetry_equiv_pos_as_xyz
1 x,y,z
2 x,-y,1/2+z
3 1/2+x,1/2+y,z
4 1/2+x,1/2-y,1/2+z
_cell_length_a                   15.797(3)
_cell_length_b                   8.881(2)
_cell_length_c                   18.411(4)
_cell_angle_alpha                90
_cell_angle_beta                 98.37(3)
_cell_angle_gamma                90
_cell_volume                     2555.43
loop_
_atom_site_label
_atom_site_type_symbol
_atom_site_fract_x
_atom_site_fract_y
_atom_site_fract_z
La1 La 0.25898(4) 0.05113(8) 0.05420(4)
La2 La 0.35097(4) 0.09150(9) 0.27112(4)
O1 O -0.0118(7) -0.2997(16) 0.2265(6)
O2 O -0.1140(7) -0.3514(12) 0.1364(6)
O3 O 0.1604(6) -0.0315(12) -0.0574(5)
O4 O 0.0506(8) -0.1578(17) -0.1153(5)
O5 O 0.2997(7) -0.1092(9) 0.1740(5)
O6 O 0.3104(12) -0.3279(13) 0.2324(7)
O7 O 0.2900(7) -0.7363(11) -0.0236(5)
O8 O 0.2789(8) -0.5627(11) -0.1110(5)
O9 O 0.2215(7) 0.1779(12) 0.1748(5)
O10 O 0.1312(7) 0.3060(14) 0.2350(6)
O11 O -0.0681(6) 0.3650(12) -0.1074(5)
O12 O -0.1295(6) 0.4715(13) -0.0171(5)
O13 O 0.2389(6) 0.1868(12) 0.3459(5)
H1 H 0.2203 0.1250 0.3880
H2 H 0.1732 0.2117 0.3149
O14 O 0.4798(9) -0.1052(16) 0.2838(7)
H3 H 0.5197 -0.0768 0.2517
H4 H 0.4580 -0.2034 0.2697
O15 O 0.3535(9) 0.3777(13) 0.2815(7)
H5 H 0.3253 0.4211 0.2367
H6 H 0.3281 0.4044 0.3171
O16 O 0.3161(5) -0.1293(9) 0.3399(4)
H7 H 0.3189 -0.1458 0.3927
H8 H 0.3141 -0.2097 0.3149
N1 N 0.0761(8) -0.1363(13) 0.1315(6)
H9 H 0.0954 -0.1171 0.1790
N2 N 0.1143(8) -0.0839(14) 0.0742(6)
N3 N 0.2754(9) -0.2443(14) 0.0442(7)
N4 N 0.2759(9) -0.3389(13) -0.0121(6)
H10 H 0.2686 -0.3097 -0.0594
N5 N 0.1332(8) 0.2504(15) 0.0444(6)
N6 N 0.0736(7) 0.2881(13) -0.0107(6)
H11 H 0.0784 0.2740 -0.0583
C1 C -0.0410(9) -0.2922(17) 0.1585(9)
C2 C 0.0061(9) -0.2211(17) 0.1076(7)
C3 C 0.0001(9) -0.2225(16) 0.0320(7)
H12 H -0.0430 -0.2720 -0.0018
C4 C 0.0662(8) -0.1390(16) 0.0134(7)
C5 C 0.0927(9) -0.1066(17) -0.0585(7)
C6 C 0.2999(12) -0.2513(18) 0.1765(7)
C7 C 0.2947(10) -0.3301(14) 0.1028(8)
C8 C 0.2981(10) -0.4812(15) 0.0857(8)
H13 H 0.3047 -0.5652 0.1189
C9 C 0.2892(9) -0.4824(13) 0.0102(8)
C10 C 0.2863(8) -0.6033(15) -0.0453(6)
C11 C 0.1517(10) 0.2585(16) 0.1770(8)
C12 C 0.0984(9) 0.2856(16) 0.1060(8)
C13 C 0.0188(9) 0.3533(18) 0.0894(7)
H14 H -0.0172 0.3935 0.1224
C14 C 0.0047(9) 0.3498(16) 0.0133(7)
C15 C -0.0713(8) 0.4022(17) -0.0421(7)
C1B C 0.4590(9) 0.2078(17) 0.1585(9)
O1B O 0.4882(7) 0.2003(16) 0.2265(6)
O2B O 0.3860(7) 0.1486(12) 0.1364(6)
O7_2 O 0.2900(7) 0.2637(11) -0.0236(5)
O11C O 0.4319(6) 0.1350(12) 0.3926(5)
O12B O 0.3705(6) -0.0285(13) -0.0171(5)
La2B La -0.14903(4) -0.40850(9) 0.27112(4)
La1B La -0.24102(4) -0.44887(8) 0.05420(4)
La1_2 La 0.25898(4) -0.94887(8) 0.05420(4)
La2C La -0.14903(4) 0.40850(9) -0.22888(4)
La1B_2 La -0.24102(4) 0.55113(8) 0.05420(4)
O17 O 0.6184(5) 0.1980(9) 0.3484(4)
H15 H 0.6508 0.0852 0.3537
H16 H 0.6338 0.2241 0.3053
O18 O 0.6126(14) 0.4667(18) 0.2702(7)
H17 H 0.5983 0.4517 0.3214
H18 H 0.6172 0.5698 0.2720
loop_
_geom_bond_atom_site_label_1
_geom_bond_atom_site_label_2
_geom_bond_site_symmetry_1
_geom_bond_site_symmetry_2
La1 O3 1_555 1_555
La2 O5 1_555 1_555
O1 C1 1_555 1_555
O2 C1 1_555 1_555
O3 C5 1_555 1_555
O4 C5 1_555 1_555
O5 La1 1_555 1_555
O6 C6 1_555 1_555
O7 C10 1_555 1_555
O8 C10 1_555 1_555
O9 La1 1_555 1_555
O10 C11 1_555 1_555
O11 C15 1_555 1_555
O12 C15 1_555 1_555
O13 La2 1_555 1_555
H1 O13 1_555 1_555
H2 O13 1_555 1_555
O14 La2 1_555 1_555
H3 O14 1_555 1_555
H4 O14 1_555 1_555
O15 La2 1_555 1_555
H5 O15 1_555 1_555
H6 O15 1_555 1_555
O16 La2 1_555 1_555
H7 O16 1_555 1_555
H8 O16 1_555 1_555
N1 H9 1_555 1_555
N2 La1 1_555 1_555
N3 La1 1_555 1_555
N4 N3 1_555 1_555
H10 N4 1_555 1_555
N5 La1 1_555 1_555
N6 N5 1_555 1_555
H11 N6 1_555 1_555
C1 C2 1_555 1_555
C2 N1 1_555 1_555
C3 C2 1_555 1_555
H12 C3 1_555 1_555
C4 N2 1_555 1_555
C5 C4 1_555 1_555
C6 O5 1_555 1_555
C7 N3 1_555 1_555
C8 C7 1_555 1_555
H13 C8 1_555 1_555
C9 N4 1_555 1_555
C10 C9 1_555 1_555
C11 O9 1_555 1_555
C12 N5 1_555 1_555
C13 C12 1_555 1_555
H14 C13 1_555 1_555
C14 N6 1_555 1_555
C15 C14 1_555 1_555
O17 H15 1_555 1_555
H16 O17 1_555 1_555
O18 H17 1_555 1_555
H18 O18 1_555 1_555
C1B O1B 1_555 1_555
O1B La2 1_555 1_555
O2B La1 1_555 1_555
O7_2 La1 1_555 1_555
O11C La2 1_555 1_555
O12B La1 1_555 1_555
La2B O1 1_555 1_555
La1B O2 1_555 1_555
La1_2 O7 1_555 1_555
La2C O11 1_555 1_555
La1B_2 O12 1_555 1_555
La2 O9 1_555 1_555
La2 O2B 1_555 1_555
O2 La2B 1_555 1_555
N1 N2 1_555 1_555
C3 C4 1_555 1_555
C6 C7 1_555 1_555
C8 C9 1_555 1_555
C11 C12 1_555 1_555
C13 C14 1_555 1_555
C1B O2B 1_555 1_555

#END
