
#######################################################################
#
#                 Cambridge Crystallographic Data Centre
#                                CCDC 
#
#######################################################################
#
# If this CIF has been generated from an entry in the Cambridge 
# Structural Database, then it will include bibliographic, chemical, 
# crystal, experimental, refinement or atomic coordinate data resulting 
# from the CCDC's data processing and validation procedures.
#
#######################################################################

data_KEPMOI
_symmetry_cell_setting           monoclinic
_symmetry_space_group_name_H-M   'P 21/c'
_symmetry_Int_Tables_number      14
_space_group_name_Hall           '-P 2ybc'
loop_
_symmetry_equiv_pos_site_id
_symmetry_equiv_pos_as_xyz
1 x,y,z
2 -x,1/2+y,1/2-z
3 -x,-y,-z
4 x,1/2-y,1/2+z
_cell_length_a                   10.0591(2)
_cell_length_b                   10.9889(2)
_cell_length_c                   14.0219(3)
_cell_angle_alpha                90
_cell_angle_beta                 101.3840(10)
_cell_angle_gamma                90
_cell_volume                     1519.47
loop_
_atom_site_label
_atom_site_type_symbol
_atom_site_fract_x
_atom_site_fract_y
_atom_site_fract_z
Ni1 Ni 0.162006(18) 0.116315(19) 0.736656(12)
N1 N 0.25844(12) -0.04489(12) 0.78973(9)
N2 N 0.34584(12) 0.18491(13) 0.80980(8)
C1 C 0.21276(18) -0.15815(17) 0.77776(13)
H1 H 0.1233 -0.1711 0.7466
C2 C 0.2944(2) -0.25903(18) 0.81034(15)
H2 H 0.2592 -0.3373 0.8008
C3 C 0.4261(2) -0.24165(19) 0.85622(14)
H3 H 0.4811 -0.3079 0.8786
C4 C 0.47745(18) -0.12322(16) 0.86914(12)
C5 C 0.61316(19) -0.0954(2) 0.91730(14)
H4 H 0.6724 -0.1584 0.9406
C6 C 0.65646(17) 0.0203(2) 0.92946(13)
H5 H 0.7452 0.0357 0.9611
C7 C 0.56916(16) 0.12072(17) 0.89488(12)
C8 C 0.60538(19) 0.2441(2) 0.90836(13)
H6 H 0.6923 0.2651 0.9405
C9 C 0.5143(2) 0.3324(2) 0.87467(15)
H7 H 0.5375 0.4140 0.8848
C10 C 0.38400(19) 0.29966(17) 0.82410(12)
H8 H 0.3227 0.3609 0.7999
C11 C 0.43576(15) 0.09605(15) 0.84590(10)
C12 C 0.38997(14) -0.02731(15) 0.83433(10)
N3 N 0.09272(15) 0.28198(16) 0.66901(10)
C13 C 0.04522(16) 0.30968(17) 0.59050(12)
N4 N -0.02035(16) 0.3407(2) 0.50464(12)
C14 C 0.03786(15) 0.34759(17) 0.42962(11)
N5 N 0.07704(14) 0.35544(14) 0.35840(10)
N6 N 0.25023(16) 0.08624(17) 0.61037(11)
C15 C 0.23086(13) 0.05355(14) 0.53219(11)
N7 N 0.22379(15) 0.0139(2) 0.44434(12)
C16 C 0.10626(16) -0.00705(18) 0.38896(11)
N8 N 0.01081(15) -0.03066(16) 0.33377(11)
Ni1C Ni 0.162006(18) 0.383685(19) 0.236656(12)
Ni1B Ni -0.162006(18) -0.116315(19) 0.263344(12)
N5C N 0.07704(14) 0.14456(14) 0.85840(10)
N8B N -0.01081(15) 0.03066(16) 0.66623(11)
loop_
_geom_bond_atom_site_label_1
_geom_bond_atom_site_label_2
_geom_bond_site_symmetry_1
_geom_bond_site_symmetry_2
Ni1 N1 1_555 1_555
N1 C1 1_555 1_555
N2 Ni1 1_555 1_555
C1 H1 1_555 1_555
C2 C1 1_555 1_555
H2 C2 1_555 1_555
C3 C2 1_555 1_555
H3 C3 1_555 1_555
C4 C3 1_555 1_555
C5 C4 1_555 1_555
H4 C5 1_555 1_555
C6 C5 1_555 1_555
H5 C6 1_555 1_555
C7 C6 1_555 1_555
C8 C7 1_555 1_555
H6 C8 1_555 1_555
C9 C8 1_555 1_555
H7 C9 1_555 1_555
C10 N2 1_555 1_555
H8 C10 1_555 1_555
C11 N2 1_555 1_555
C12 N1 1_555 1_555
N3 Ni1 1_555 1_555
C13 N3 1_555 1_555
N4 C13 1_555 1_555
C14 N4 1_555 1_555
N5 C14 1_555 1_555
N6 Ni1 1_555 1_555
C15 N6 1_555 1_555
N7 C15 1_555 1_555
C16 N7 1_555 1_555
N8 C16 1_555 1_555
Ni1C N5 1_555 1_555
Ni1B N8 1_555 1_555
N5C Ni1 1_555 1_555
N8B Ni1 1_555 1_555
C4 C12 1_555 1_555
C7 C11 1_555 1_555
C9 C10 1_555 1_555
C11 C12 1_555 1_555

#END
