
#######################################################################
#
#                 Cambridge Crystallographic Data Centre
#                                CCDC 
#
#######################################################################
#
# If this CIF has been generated from an entry in the Cambridge 
# Structural Database, then it will include bibliographic, chemical, 
# crystal, experimental, refinement or atomic coordinate data resulting 
# from the CCDC's data processing and validation procedures.
#
#######################################################################

data_KEPNOJ
_symmetry_cell_setting           monoclinic
_symmetry_space_group_name_H-M   'P 21/n'
_symmetry_Int_Tables_number      14
_space_group_name_Hall           '-P 2yn'
loop_
_symmetry_equiv_pos_site_id
_symmetry_equiv_pos_as_xyz
1 x,y,z
2 1/2-x,1/2+y,1/2-z
3 -x,-y,-z
4 1/2+x,1/2-y,1/2+z
_cell_length_a                   8.8760(18)
_cell_length_b                   15.640(3)
_cell_length_c                   12.980(3)
_cell_angle_alpha                90
_cell_angle_beta                 94.39(3)
_cell_angle_gamma                90
_cell_volume                     1796.61
loop_
_atom_site_label
_atom_site_type_symbol
_atom_site_fract_x
_atom_site_fract_y
_atom_site_fract_z
Mn1 Mn 0.26282(9) 0.96518(5) 0.79339(6)
N1 N 0.4555(5) 0.8983(3) 0.7191(3)
N2 N 0.2555(5) 1.0107(3) 0.6230(3)
C1 C 0.5630(7) 0.8492(4) 0.7642(5)
C2 C 0.6393(8) 0.7871(4) 0.7065(7)
H1 H 0.7124 0.7518 0.7393
C3 C 0.6032(10) 0.7801(5) 0.6014(8)
H2 H 0.6523 0.7397 0.5635
C4 C 0.4949(9) 0.8326(4) 0.5520(6)
C5 C 0.4641(11) 0.8313(6) 0.4440(7)
H3 H 0.5097 0.7909 0.4040
C6 C 0.3677(11) 0.8895(8) 0.3992(7)
H4 H 0.3464 0.8878 0.3279
C7 C 0.2992(8) 0.9517(5) 0.4562(5)
C8 C 0.2010(10) 1.0156(7) 0.4105(6)
H5 H 0.1768 1.0164 0.3395
C9 C 0.1437(8) 1.0752(6) 0.4722(7)
H6 H 0.0841 1.1189 0.4424
C10 C 0.1710(7) 1.0728(4) 0.5767(5)
C11 C 0.3216(6) 0.9524(4) 0.5645(4)
C12 C 0.4258(6) 0.8916(4) 0.6143(5)
C13 C 0.6024(7) 0.8614(4) 0.8771(5)
H7 H 0.5406 0.9059 0.9026
H8 H 0.7070 0.8771 0.8884
H9 H 0.5850 0.8091 0.9131
C14 C 0.1114(8) 1.1429(4) 0.6414(6)
H10 H 0.1404 1.1322 0.7130
H11 H 0.0031 1.1446 0.6309
H12 H 0.1524 1.1967 0.6215
N3 N 0.1328(6) 0.8486(3) 0.7360(4)
C15 C 0.0826(7) 0.7884(4) 0.6990(4)
N4 N 0.0116(6) 0.7243(3) 0.6538(5)
C16 C 0.0691(7) 0.6479(4) 0.6584(4)
N5 N 0.1094(6) 0.5783(3) 0.6581(4)
N6 N 0.0461(6) 1.0206(3) 0.8275(4)
C17 C -0.0673(7) 1.0414(4) 0.8555(4)
N7 N -0.2028(5) 1.0645(3) 0.8756(4)
C18 C -0.2363(6) 1.0754(3) 0.9701(5)
N8 N -0.2759(6) 1.0874(3) 1.0492(4)
Mn1A Mn 0.23718(9) 0.46518(5) 0.70661(6)
Mn1B Mn -0.26282(9) 1.03482(5) 1.20661(6)
N5A N 0.3906(6) 1.0783(3) 0.8419(4)
N8B N 0.2759(6) 0.9126(3) 0.9508(4)
loop_
_geom_bond_atom_site_label_1
_geom_bond_atom_site_label_2
_geom_bond_site_symmetry_1
_geom_bond_site_symmetry_2
Mn1 N1 1_555 1_555
N1 C1 1_555 1_555
N2 Mn1 1_555 1_555
C1 C2 1_555 1_555
C2 H1 1_555 1_555
C3 C2 1_555 1_555
H2 C3 1_555 1_555
C4 C3 1_555 1_555
C5 C4 1_555 1_555
H3 C5 1_555 1_555
C6 C5 1_555 1_555
H4 C6 1_555 1_555
C7 C6 1_555 1_555
C8 C7 1_555 1_555
H5 C8 1_555 1_555
C9 C8 1_555 1_555
H6 C9 1_555 1_555
C10 N2 1_555 1_555
C11 N2 1_555 1_555
C12 N1 1_555 1_555
C13 C1 1_555 1_555
H7 C13 1_555 1_555
H8 C13 1_555 1_555
H9 C13 1_555 1_555
C14 C10 1_555 1_555
H10 C14 1_555 1_555
H11 C14 1_555 1_555
H12 C14 1_555 1_555
N3 Mn1 1_555 1_555
C15 N3 1_555 1_555
N4 C15 1_555 1_555
C16 N4 1_555 1_555
N5 C16 1_555 1_555
N6 Mn1 1_555 1_555
C17 N6 1_555 1_555
N7 C17 1_555 1_555
C18 N7 1_555 1_555
N8 C18 1_555 1_555
Mn1A N5 1_555 1_555
Mn1B N8 1_555 1_555
N5A Mn1 1_555 1_555
N8B Mn1 1_555 1_555
C4 C12 1_555 1_555
C7 C11 1_555 1_555
C9 C10 1_555 1_555
C11 C12 1_555 1_555

#END
