
#######################################################################
#
#                 Cambridge Crystallographic Data Centre
#                                CCDC 
#
#######################################################################
#
# If this CIF has been generated from an entry in the Cambridge 
# Structural Database, then it will include bibliographic, chemical, 
# crystal, experimental, refinement or atomic coordinate data resulting 
# from the CCDC's data processing and validation procedures.
#
#######################################################################

data_KEPNAV
_symmetry_cell_setting           monoclinic
_symmetry_space_group_name_H-M   'P 21/c'
_symmetry_Int_Tables_number      14
_space_group_name_Hall           '-P 2ybc'
loop_
_symmetry_equiv_pos_site_id
_symmetry_equiv_pos_as_xyz
1 x,y,z
2 -x,1/2+y,1/2-z
3 -x,-y,-z
4 x,1/2-y,1/2+z
_cell_length_a                   10.9810(3)
_cell_length_b                   11.4061(3)
_cell_length_c                   13.9694(4)
_cell_angle_alpha                90
_cell_angle_beta                 101.4210(10)
_cell_angle_gamma                90
_cell_volume                     1715.03
loop_
_atom_site_label
_atom_site_type_symbol
_atom_site_fract_x
_atom_site_fract_y
_atom_site_fract_z
Fe1 Fe 0.159670(19) 0.08516(2) 0.746410(15)
N1 N 0.24412(12) -0.08032(12) 0.80125(10)
N2 N 0.34910(12) 0.13198(13) 0.81772(9)
C1 C 0.19062(16) -0.18557(17) 0.79127(13)
H1 H 0.1060 -0.1903 0.7653
C2 C 0.25614(18) -0.28874(17) 0.81816(14)
H2 H 0.2146 -0.3602 0.8096
C3 C 0.38079(18) -0.28659(16) 0.85701(13)
C4 C 0.44062(15) -0.17563(16) 0.86844(11)
C5 C 0.57102(16) -0.16009(18) 0.90689(13)
H3 H 0.6204 -0.2254 0.9264
C6 C 0.62325(16) -0.05255(19) 0.91528(13)
H4 H 0.7079 -0.0459 0.9407
C7 C 0.55286(15) 0.05162(16) 0.88643(11)
C8 C 0.60476(15) 0.16549(18) 0.89373(12)
C9 C 0.52566(18) 0.25774(17) 0.86426(13)
H5 H 0.5564 0.3340 0.8692
C10 C 0.39960(17) 0.23817(16) 0.82693(12)
H6 H 0.3487 0.3025 0.8076
C11 C 0.42438(13) 0.03935(15) 0.84798(10)
C12 C 0.36831(14) -0.07528(14) 0.83964(11)
C13 C 0.4520(2) -0.39809(19) 0.88571(19)
H7 H 0.3967 -0.4639 0.8724
H8 H 0.4880 -0.3959 0.9542
H9 H 0.5167 -0.4056 0.8489
C14 C 0.74176(17) 0.1851(2) 0.93162(15)
H10 H 0.7597 0.2674 0.9305
H11 H 0.7886 0.1439 0.8911
H12 H 0.7641 0.1565 0.9974
N3 N 0.11942(15) 0.24962(17) 0.67758(12)
C15 C 0.08512(14) 0.30184(17) 0.60775(12)
N4 N 0.03820(17) 0.3694(2) 0.53570(12)
C16 C 0.06912(15) 0.36696(16) 0.45116(12)
N5 N 0.08892(14) 0.37410(15) 0.37382(11)
N6 N 0.23710(17) 0.03763(19) 0.61097(12)
C17 C 0.21094(14) 0.04935(16) 0.52820(12)
N7 N 0.19161(16) 0.06910(18) 0.43510(12)
C18 C 0.09069(16) 0.03168(18) 0.37931(12)
N8 N 0.00645(14) -0.00011(16) 0.32328(11)
Fe1C Fe 0.159670(19) 0.41484(2) 0.246410(15)
Fe1B Fe -0.159670(19) -0.08516(2) 0.253590(15)
N5C N 0.08892(14) 0.12590(15) 0.87382(11)
N8B N -0.00645(14) 0.00011(16) 0.67672(11)
loop_
_geom_bond_atom_site_label_1
_geom_bond_atom_site_label_2
_geom_bond_site_symmetry_1
_geom_bond_site_symmetry_2
Fe1 N1 1_555 1_555
N1 C1 1_555 1_555
N2 Fe1 1_555 1_555
C1 H1 1_555 1_555
C2 C1 1_555 1_555
H2 C2 1_555 1_555
C3 C2 1_555 1_555
C4 C3 1_555 1_555
C5 C4 1_555 1_555
H3 C5 1_555 1_555
C6 C5 1_555 1_555
H4 C6 1_555 1_555
C7 C6 1_555 1_555
C8 C7 1_555 1_555
C9 C8 1_555 1_555
H5 C9 1_555 1_555
C10 N2 1_555 1_555
H6 C10 1_555 1_555
C11 N2 1_555 1_555
C12 N1 1_555 1_555
C13 C3 1_555 1_555
H7 C13 1_555 1_555
H8 C13 1_555 1_555
H9 C13 1_555 1_555
C14 C8 1_555 1_555
H10 C14 1_555 1_555
H11 C14 1_555 1_555
H12 C14 1_555 1_555
N3 Fe1 1_555 1_555
C15 N3 1_555 1_555
N4 C15 1_555 1_555
C16 N4 1_555 1_555
N5 C16 1_555 1_555
N6 Fe1 1_555 1_555
C17 N6 1_555 1_555
N7 C17 1_555 1_555
C18 N7 1_555 1_555
N8 C18 1_555 1_555
Fe1C N5 1_555 1_555
Fe1B N8 1_555 1_555
N5C Fe1 1_555 1_555
N8B Fe1 1_555 1_555
C4 C12 1_555 1_555
C7 C11 1_555 1_555
C9 C10 1_555 1_555
C11 C12 1_555 1_555

#END
