
#######################################################################
#
#                 Cambridge Crystallographic Data Centre
#                                CCDC 
#
#######################################################################
#
# If this CIF has been generated from an entry in the Cambridge 
# Structural Database, then it will include bibliographic, chemical, 
# crystal, experimental, refinement or atomic coordinate data resulting 
# from the CCDC's data processing and validation procedures.
#
#######################################################################

data_KEPNID
_symmetry_cell_setting           monoclinic
_symmetry_space_group_name_H-M   'P 21/c'
_symmetry_Int_Tables_number      14
_space_group_name_Hall           '-P 2ybc'
loop_
_symmetry_equiv_pos_site_id
_symmetry_equiv_pos_as_xyz
1 x,y,z
2 -x,1/2+y,1/2-z
3 -x,-y,-z
4 x,1/2-y,1/2+z
_cell_length_a                   10.9540(6)
_cell_length_b                   11.4147(6)
_cell_length_c                   13.9354(7)
_cell_angle_alpha                90
_cell_angle_beta                 101.6600(10)
_cell_angle_gamma                90
_cell_volume                     1706.48
loop_
_atom_site_label
_atom_site_type_symbol
_atom_site_fract_x
_atom_site_fract_y
_atom_site_fract_z
Ni1 Ni 0.164886(19) 0.08292(2) 0.744964(14)
N1 N 0.23890(14) -0.07675(13) 0.80058(10)
N2 N 0.34513(13) 0.13320(13) 0.81415(10)
C1 C 0.18365(18) -0.18069(18) 0.79132(14)
H1 H 0.0986 -0.1847 0.7653
C2 C 0.2492(2) -0.28463(19) 0.81947(16)
H2 H 0.2067 -0.3556 0.8119
C3 C 0.3754(2) -0.28367(19) 0.85818(15)
C4 C 0.43669(17) -0.17323(17) 0.86887(13)
C5 C 0.56849(19) -0.1579(2) 0.90711(15)
H3 H 0.6176 -0.2233 0.9270
C6 C 0.62175(18) -0.0517(2) 0.91460(14)
H4 H 0.7068 -0.0454 0.9399
C7 C 0.55098(16) 0.05280(18) 0.88463(12)
C8 C 0.60303(17) 0.1668(2) 0.89124(13)
C9 C 0.5232(2) 0.2587(2) 0.86127(14)
H5 H 0.5538 0.3349 0.8662
C10 C 0.39544(18) 0.23895(18) 0.82318(13)
H6 H 0.3443 0.3032 0.8035
C11 C 0.42139(15) 0.04056(16) 0.84618(11)
C12 C 0.36434(16) -0.07313(16) 0.83862(12)
C13 C 0.4464(3) -0.3955(2) 0.8871(2)
H7 H 0.3905 -0.4609 0.8736
H8 H 0.4826 -0.3934 0.9558
H9 H 0.5112 -0.4033 0.8503
C14 C 0.74163(19) 0.1861(2) 0.92915(17)
H10 H 0.7599 0.2683 0.9281
H11 H 0.7880 0.1449 0.8882
H12 H 0.7646 0.1573 0.9951
N3 N 0.11982(16) 0.24253(18) 0.67527(12)
C15 C 0.08681(16) 0.29647(18) 0.60467(13)
N4 N 0.04150(19) 0.3665(2) 0.53250(13)
C16 C 0.07419(16) 0.36640(18) 0.44702(13)
N5 N 0.09554(15) 0.37694(16) 0.36942(12)
N6 N 0.24063(17) 0.0360(2) 0.61469(12)
C17 C 0.21157(16) 0.04831(17) 0.53115(13)
N7 N 0.18838(18) 0.0691(2) 0.43690(13)
C18 C 0.08653(18) 0.0272(2) 0.38111(13)
N8 N 0.00196(15) -0.00803(17) 0.32526(12)
Ni1C Ni 0.164886(19) 0.41708(2) 0.244964(14)
Ni1B Ni -0.164886(19) -0.08292(2) 0.255036(14)
N5C N 0.09554(15) 0.12306(16) 0.86942(12)
N8B N -0.00196(15) 0.00803(17) 0.67474(12)
loop_
_geom_bond_atom_site_label_1
_geom_bond_atom_site_label_2
_geom_bond_site_symmetry_1
_geom_bond_site_symmetry_2
Ni1 N1 1_555 1_555
N1 C1 1_555 1_555
N2 Ni1 1_555 1_555
C1 H1 1_555 1_555
C2 C1 1_555 1_555
H2 C2 1_555 1_555
C3 C2 1_555 1_555
C4 C3 1_555 1_555
C5 C4 1_555 1_555
H3 C5 1_555 1_555
C6 C5 1_555 1_555
H4 C6 1_555 1_555
C7 C6 1_555 1_555
C8 C7 1_555 1_555
C9 C8 1_555 1_555
H5 C9 1_555 1_555
C10 N2 1_555 1_555
H6 C10 1_555 1_555
C11 N2 1_555 1_555
C12 N1 1_555 1_555
C13 C3 1_555 1_555
H7 C13 1_555 1_555
H8 C13 1_555 1_555
H9 C13 1_555 1_555
C14 C8 1_555 1_555
H10 C14 1_555 1_555
H11 C14 1_555 1_555
H12 C14 1_555 1_555
N3 Ni1 1_555 1_555
C15 N3 1_555 1_555
N4 C15 1_555 1_555
C16 N4 1_555 1_555
N5 C16 1_555 1_555
N6 Ni1 1_555 1_555
C17 N6 1_555 1_555
N7 C17 1_555 1_555
C18 N7 1_555 1_555
N8 C18 1_555 1_555
Ni1C N5 1_555 1_555
Ni1B N8 1_555 1_555
N5C Ni1 1_555 1_555
N8B Ni1 1_555 1_555
C4 C12 1_555 1_555
C7 C11 1_555 1_555
C9 C10 1_555 1_555
C11 C12 1_555 1_555

#END
