
#######################################################################
#
#                 Cambridge Crystallographic Data Centre
#                                CCDC 
#
#######################################################################
#
# If this CIF has been generated from an entry in the Cambridge 
# Structural Database, then it will include bibliographic, chemical, 
# crystal, experimental, refinement or atomic coordinate data resulting 
# from the CCDC's data processing and validation procedures.
#
#######################################################################

data_KEPNUP
_symmetry_cell_setting           monoclinic
_symmetry_space_group_name_H-M   'P 21/n'
_symmetry_Int_Tables_number      14
_space_group_name_Hall           '-P 2yn'
loop_
_symmetry_equiv_pos_site_id
_symmetry_equiv_pos_as_xyz
1 x,y,z
2 1/2-x,1/2+y,1/2-z
3 -x,-y,-z
4 1/2+x,1/2-y,1/2+z
_cell_length_a                   8.8877(4)
_cell_length_b                   15.5110(7)
_cell_length_c                   12.9489(6)
_cell_angle_alpha                90
_cell_angle_beta                 94.887(2)
_cell_angle_gamma                90
_cell_volume                     1778.61
loop_
_atom_site_label
_atom_site_type_symbol
_atom_site_fract_x
_atom_site_fract_y
_atom_site_fract_z
Fe1 Fe 0.25912(3) 0.965561(14) 0.791291(19)
N1 N 0.45157(17) 0.89817(9) 0.72738(12)
N2 N 0.25046(17) 1.00839(11) 0.62521(12)
C1 C 0.5606(2) 0.85127(13) 0.77762(19)
C2 C 0.6421(3) 0.79038(17) 0.7218(3)
H1 H 0.7168 0.7569 0.7569
C3 C 0.6118(4) 0.78091(17) 0.6181(3)
H2 H 0.6642 0.7400 0.5829
C4 C 0.5038(3) 0.83138(16) 0.5640(2)
C5 C 0.4737(4) 0.8286(2) 0.4534(3)
H3 H 0.5198 0.7867 0.4156
C6 C 0.3796(5) 0.8858(3) 0.4040(2)
H4 H 0.3648 0.8841 0.3320
C7 C 0.3027(4) 0.9483(2) 0.45849(19)
C8 C 0.2066(4) 1.0132(3) 0.4108(2)
H5 H 0.1854 1.0135 0.3392
C9 C 0.1464(4) 1.0740(3) 0.4691(3)
H6 H 0.0893 1.1182 0.4371
C10 C 0.1687(2) 1.07123(17) 0.5766(2)
C11 C 0.3212(2) 0.94970(14) 0.56835(15)
C12 C 0.4259(2) 0.89045(13) 0.62195(16)
C13 C 0.5949(3) 0.86539(18) 0.8905(2)
H7 H 0.5312 0.9103 0.9134
H8 H 0.6988 0.8820 0.9041
H9 H 0.5770 0.8131 0.9272
C14 C 0.1059(3) 1.14235(17) 0.6384(3)
H10 H 0.1338 1.1330 0.7108
H11 H -0.0021 1.1431 0.6262
H12 H 0.1459 1.1966 0.6178
N3 N 0.13356(19) 0.85146(10) 0.73621(14)
C15 C 0.0833(2) 0.78860(11) 0.70254(14)
N4 N 0.0108(2) 0.72281(11) 0.66000(18)
C16 C 0.0717(2) 0.64671(11) 0.66395(14)
N5 N 0.1147(2) 0.57727(10) 0.66408(14)
N6 N 0.0479(2) 1.02121(13) 0.82533(15)
C17 C -0.0652(2) 1.04110(11) 0.85435(15)
N7 N -0.2006(2) 1.06463(14) 0.87450(13)
C18 C -0.2311(2) 1.07280(12) 0.97031(15)
N8 N -0.2690(2) 1.08282(13) 1.05175(14)
Fe1A Fe 0.24088(3) 0.465561(14) 0.708709(19)
Fe1B Fe -0.25912(3) 1.034439(14) 1.208709(19)
N5A N 0.3853(2) 1.07727(10) 0.83592(14)
N8B N 0.2690(2) 0.91718(13) 0.94825(14)
loop_
_geom_bond_atom_site_label_1
_geom_bond_atom_site_label_2
_geom_bond_site_symmetry_1
_geom_bond_site_symmetry_2
Fe1 N1 1_555 1_555
N1 C1 1_555 1_555
N2 Fe1 1_555 1_555
C1 C2 1_555 1_555
C2 H1 1_555 1_555
C3 C2 1_555 1_555
H2 C3 1_555 1_555
C4 C3 1_555 1_555
C5 C4 1_555 1_555
H3 C5 1_555 1_555
C6 C5 1_555 1_555
H4 C6 1_555 1_555
C7 C6 1_555 1_555
C8 C7 1_555 1_555
H5 C8 1_555 1_555
C9 C8 1_555 1_555
H6 C9 1_555 1_555
C10 N2 1_555 1_555
C11 N2 1_555 1_555
C12 N1 1_555 1_555
C13 C1 1_555 1_555
H7 C13 1_555 1_555
H8 C13 1_555 1_555
H9 C13 1_555 1_555
C14 C10 1_555 1_555
H10 C14 1_555 1_555
H11 C14 1_555 1_555
H12 C14 1_555 1_555
N3 Fe1 1_555 1_555
C15 N3 1_555 1_555
N4 C15 1_555 1_555
C16 N4 1_555 1_555
N5 C16 1_555 1_555
N6 Fe1 1_555 1_555
C17 N6 1_555 1_555
N7 C17 1_555 1_555
C18 N7 1_555 1_555
N8 C18 1_555 1_555
Fe1A N5 1_555 1_555
Fe1B N8 1_555 1_555
N5A Fe1 1_555 1_555
N8B Fe1 1_555 1_555
C4 C12 1_555 1_555
C7 C11 1_555 1_555
C9 C10 1_555 1_555
C11 C12 1_555 1_555

#END
