
#######################################################################
#
#                 Cambridge Crystallographic Data Centre
#                                CCDC 
#
#######################################################################
#
# If this CIF has been generated from an entry in the Cambridge 
# Structural Database, then it will include bibliographic, chemical, 
# crystal, experimental, refinement or atomic coordinate data resulting 
# from the CCDC's data processing and validation procedures.
#
#######################################################################

data_KEPPEB01
_symmetry_cell_setting           monoclinic
_symmetry_space_group_name_H-M   'P 21/n'
_symmetry_Int_Tables_number      14
_space_group_name_Hall           '-P 2yn'
loop_
_symmetry_equiv_pos_site_id
_symmetry_equiv_pos_as_xyz
1 x,y,z
2 1/2-x,1/2+y,1/2-z
3 -x,-y,-z
4 1/2+x,1/2-y,1/2+z
_cell_length_a                   8.8682(18)
_cell_length_b                   15.282(3)
_cell_length_c                   12.793(3)
_cell_angle_alpha                90
_cell_angle_beta                 93.99(3)
_cell_angle_gamma                90
_cell_volume                     1729.55
loop_
_atom_site_label
_atom_site_type_symbol
_atom_site_fract_x
_atom_site_fract_y
_atom_site_fract_z
Ni1 Ni 0.24401(3) 0.967001(13) 0.712124(17)
N1 N 0.05540(17) 0.89962(9) 0.76666(12)
N2 N 0.25385(17) 1.00777(11) 0.87181(12)
N3 N 0.4468(2) 1.02372(11) 0.67750(14)
N4 N 0.6967(2) 1.06332(13) 0.62345(14)
N5 N 0.7632(2) 1.07963(11) 0.44194(14)
N6 N 0.36755(18) 0.85497(10) 0.76188(13)
N7 N 0.4883(2) 0.72333(10) 0.83607(16)
N8 N 0.37824(19) 0.57694(10) 0.83080(13)
C1 C -0.0880(3) 0.87137(16) 0.6012(2)
H1 H -0.0667 0.9314 0.5855
H2 H -0.1926 0.8592 0.5824
H3 H -0.0258 0.8338 0.5622
C2 C -0.0555(2) 0.85557(12) 0.71470(19)
C3 C -0.1437(3) 0.79439(15) 0.7680(3)
H4 H -0.2199 0.7632 0.7310
C4 C -0.1173(3) 0.78137(15) 0.8721(3)
H5 H -0.1733 0.7398 0.9058
C5 C -0.0068(3) 0.82972(15) 0.9296(2)
C6 C 0.0759(2) 0.88991(12) 0.87291(16)
C7 C 0.0198(4) 0.8247(2) 1.0413(3)
H6 H -0.0287 0.7820 1.0785
C8 C 0.1152(4) 0.8816(2) 1.0929(2)
H7 H 0.1283 0.8786 1.1656
C9 C 0.1957(3) 0.94571(18) 1.03920(18)
C10 C 0.1807(2) 0.94805(13) 0.92887(15)
C11 C 0.2899(4) 1.0101(3) 1.0896(2)
H8 H 0.3082 1.0097 1.1621
C12 C 0.3524(3) 1.0715(2) 1.0316(2)
H9 H 0.4103 1.1154 1.0650
C13 C 0.3328(2) 1.07140(16) 0.92280(19)
C14 C 0.3969(3) 1.14522(16) 0.8623(2)
H10 H 0.3661 1.1388 0.7892
H11 H 0.5052 1.1441 0.8716
H12 H 0.3603 1.1999 0.8873
C15 C 0.5600(2) 1.04202(11) 0.64635(15)
C16 C 0.7264(2) 1.07083(12) 0.52486(16)
C17 C 0.4166(2) 0.79075(11) 0.79489(14)
C18 C 0.4237(2) 0.64662(11) 0.83136(15)
Ni1B Ni 0.75599(3) 1.032999(13) 0.287876(17)
Ni1A Ni 0.25599(3) 0.467001(13) 0.787876(17)
N5B N 0.2368(2) 0.92037(11) 0.55806(14)
N8A N 0.12176(19) 1.07694(10) 0.66920(13)
loop_
_geom_bond_atom_site_label_1
_geom_bond_atom_site_label_2
_geom_bond_site_symmetry_1
_geom_bond_site_symmetry_2
Ni1 N1 1_555 1_555
N1 C2 1_555 1_555
N2 Ni1 1_555 1_555
N3 Ni1 1_555 1_555
N4 C15 1_555 1_555
N5 C16 1_555 1_555
N6 Ni1 1_555 1_555
N7 C17 1_555 1_555
N8 C18 1_555 1_555
C1 H1 1_555 1_555
H2 C1 1_555 1_555
H3 C1 1_555 1_555
C2 C1 1_555 1_555
C3 C2 1_555 1_555
H4 C3 1_555 1_555
C4 C3 1_555 1_555
H5 C4 1_555 1_555
C5 C4 1_555 1_555
C6 N1 1_555 1_555
C7 C5 1_555 1_555
H6 C7 1_555 1_555
C8 C7 1_555 1_555
H7 C8 1_555 1_555
C9 C8 1_555 1_555
C10 N2 1_555 1_555
C11 C9 1_555 1_555
H8 C11 1_555 1_555
C12 C11 1_555 1_555
H9 C12 1_555 1_555
C13 N2 1_555 1_555
C14 C13 1_555 1_555
H10 C14 1_555 1_555
H11 C14 1_555 1_555
H12 C14 1_555 1_555
C15 N3 1_555 1_555
C16 N4 1_555 1_555
C17 N6 1_555 1_555
C18 N7 1_555 1_555
Ni1B N5 1_555 1_555
Ni1A N8 1_555 1_555
N5B Ni1 1_555 1_555
N8A Ni1 1_555 1_555
C5 C6 1_555 1_555
C6 C10 1_555 1_555
C9 C10 1_555 1_555
C12 C13 1_555 1_555

#END
