
#######################################################################
#
#                 Cambridge Crystallographic Data Centre
#                                CCDC 
#
#######################################################################
#
# If this CIF has been generated from an entry in the Cambridge 
# Structural Database, then it will include bibliographic, chemical, 
# crystal, experimental, refinement or atomic coordinate data resulting 
# from the CCDC's data processing and validation procedures.
#
#######################################################################

data_KEPPEB
_symmetry_cell_setting           monoclinic
_symmetry_space_group_name_H-M   'P 21/n'
_symmetry_Int_Tables_number      14
_space_group_name_Hall           '-P 2yn'
loop_
_symmetry_equiv_pos_site_id
_symmetry_equiv_pos_as_xyz
1 x,y,z
2 1/2-x,1/2+y,1/2-z
3 -x,-y,-z
4 1/2+x,1/2-y,1/2+z
_cell_length_a                   8.8725(4)
_cell_length_b                   15.3131(7)
_cell_length_c                   12.8028(6)
_cell_angle_alpha                90
_cell_angle_beta                 93.926(2)
_cell_angle_gamma                90
_cell_volume                     1735.38
loop_
_atom_site_label
_atom_site_type_symbol
_atom_site_fract_x
_atom_site_fract_y
_atom_site_fract_z
Ni1 Ni 0.25646(2) 0.967016(11) 0.787918(14)
N1 N 0.44538(14) 0.89959(8) 0.73310(10)
N2 N 0.24652(15) 1.00787(10) 0.62805(10)
C1 C 0.5561(2) 0.85545(11) 0.78509(16)
C2 C 0.6432(3) 0.79420(14) 0.7308(2)
H1 H 0.7193 0.7628 0.7676
C3 C 0.6173(3) 0.78102(14) 0.6270(2)
H2 H 0.6731 0.7395 0.5933
C4 C 0.5066(2) 0.82972(13) 0.57011(18)
C5 C 0.4792(4) 0.82515(19) 0.4580(2)
H3 H 0.5282 0.7828 0.4207
C6 C 0.3834(4) 0.8814(2) 0.4060(2)
H4 H 0.3694 0.8780 0.3335
C7 C 0.3035(3) 0.94568(17) 0.46075(15)
C8 C 0.2101(3) 1.0099(2) 0.41073(18)
H5 H 0.1917 1.0093 0.3383
C9 C 0.1476(3) 1.0720(2) 0.4683(2)
H6 H 0.0906 1.1161 0.4349
C10 C 0.1671(2) 1.07132(14) 0.57777(17)
C11 C 0.3195(2) 0.94774(12) 0.57104(12)
C12 C 0.42386(18) 0.88995(10) 0.62688(13)
C13 C 0.5887(2) 0.87159(15) 0.89963(17)
H7 H 0.5237 0.9170 0.9221
H8 H 0.6922 0.8891 0.9125
H9 H 0.5710 0.8190 0.9378
C14 C 0.1033(3) 1.14542(14) 0.6383(2)
H10 H 0.1300 1.1376 0.7117
H11 H -0.0047 1.1462 0.6264
H12 H 0.1440 1.1997 0.6155
N3 N 0.13266(16) 0.85499(8) 0.73812(11)
C15 C 0.08305(17) 0.79100(9) 0.70480(12)
N4 N 0.01091(19) 0.72332(9) 0.66400(14)
C16 C 0.07491(18) 0.64683(9) 0.66839(12)
N5 N 0.12111(18) 0.57695(8) 0.66894(11)
N6 N 0.05348(19) 1.02360(10) 0.82294(13)
C17 C -0.0604(2) 1.04194(9) 0.85393(13)
N7 N -0.19694(17) 1.06315(12) 0.87682(11)
C18 C -0.22632(18) 1.07069(10) 0.97489(13)
N8 N -0.26388(18) 1.07966(11) 1.05797(11)
Ni1A Ni 0.24354(2) 0.467016(11) 0.712082(14)
Ni1B Ni -0.25646(2) 1.032984(11) 1.212082(14)
N5A N 0.37889(18) 1.07695(8) 0.83106(11)
N8B N 0.26388(18) 0.92034(11) 0.94203(11)
loop_
_geom_bond_atom_site_label_1
_geom_bond_atom_site_label_2
_geom_bond_site_symmetry_1
_geom_bond_site_symmetry_2
Ni1 N1 1_555 1_555
N1 C1 1_555 1_555
N2 Ni1 1_555 1_555
C1 C2 1_555 1_555
C2 H1 1_555 1_555
C3 C2 1_555 1_555
H2 C3 1_555 1_555
C4 C3 1_555 1_555
C5 C4 1_555 1_555
H3 C5 1_555 1_555
C6 C5 1_555 1_555
H4 C6 1_555 1_555
C7 C6 1_555 1_555
C8 C7 1_555 1_555
H5 C8 1_555 1_555
C9 C8 1_555 1_555
H6 C9 1_555 1_555
C10 N2 1_555 1_555
C11 N2 1_555 1_555
C12 N1 1_555 1_555
C13 C1 1_555 1_555
H7 C13 1_555 1_555
H8 C13 1_555 1_555
H9 C13 1_555 1_555
C14 C10 1_555 1_555
H10 C14 1_555 1_555
H11 C14 1_555 1_555
H12 C14 1_555 1_555
N3 Ni1 1_555 1_555
C15 N3 1_555 1_555
N4 C15 1_555 1_555
C16 N4 1_555 1_555
N5 C16 1_555 1_555
N6 Ni1 1_555 1_555
C17 N6 1_555 1_555
N7 C17 1_555 1_555
C18 N7 1_555 1_555
N8 C18 1_555 1_555
Ni1A N5 1_555 1_555
Ni1B N8 1_555 1_555
N5A Ni1 1_555 1_555
N8B Ni1 1_555 1_555
C4 C12 1_555 1_555
C7 C11 1_555 1_555
C9 C10 1_555 1_555
C11 C12 1_555 1_555

#END
