
#######################################################################
#
#                 Cambridge Crystallographic Data Centre
#                                CCDC 
#
#######################################################################
#
# If this CIF has been generated from an entry in the Cambridge 
# Structural Database, then it will include bibliographic, chemical, 
# crystal, experimental, refinement or atomic coordinate data resulting 
# from the CCDC's data processing and validation procedures.
#
#######################################################################

data_KEPPOL
_symmetry_cell_setting           monoclinic
_symmetry_space_group_name_H-M   'P 21/c'
_symmetry_Int_Tables_number      14
_space_group_name_Hall           '-P 2ybc'
loop_
_symmetry_equiv_pos_site_id
_symmetry_equiv_pos_as_xyz
1 x,y,z
2 -x,1/2+y,1/2-z
3 -x,-y,-z
4 x,1/2-y,1/2+z
_cell_length_a                   9.8346(11)
_cell_length_b                   5.4564(6)
_cell_length_c                   14.9897(16)
_cell_angle_alpha                90
_cell_angle_beta                 105.400(2)
_cell_angle_gamma                90
_cell_volume                     775.489
loop_
_atom_site_label
_atom_site_type_symbol
_atom_site_fract_x
_atom_site_fract_y
_atom_site_fract_z
H1 H 0.683(3) 0.085(5) 0.4200(18)
H2 H 0.678(4) -0.234(6) 0.142(2)
H3 H 0.879(4) 0.372(7) 0.540(3)
H5 H 0.664(4) 0.233(7) 0.054(2)
H6 H 0.559(4) -0.347(8) 0.160(3)
H7 H 0.931(4) 0.299(7) 0.621(3)
H9 H 0.539(4) 0.233(6) 0.008(3)
Zn1 Zn 0.54152(3) 0.12045(5) 0.179809(17)
Zn2 Zn 1.0000 0.0000 0.5000
O1 O 0.74721(17) 0.1995(3) 0.24578(11)
O2 O 0.85009(17) -0.2663(3) 0.47914(12)
O3 O 0.55044(17) -0.0421(3) 0.30491(11)
O4 O 0.6005(2) -0.2207(3) 0.12937(12)
O5 O 0.5867(2) 0.2650(3) 0.05780(13)
O6 O 0.91633(17) 0.1373(3) 0.37282(11)
O7 O 0.66159(17) -0.4512(3) 0.39234(11)
O8 O 0.8844(2) 0.2767(4) 0.56551(15)
C1 C 0.7906(3) 0.1106(4) 0.32537(16)
C2 C 0.7363(2) -0.2650(4) 0.41469(15)
C3 C 0.6837(2) -0.0190(4) 0.36750(16)
H1B H 1.317(3) -0.085(5) 0.5800(18)
H2B H 1.322(4) 0.234(6) 0.858(2)
H3B H 1.121(4) -0.372(7) 0.460(3)
H5B H 1.336(4) -0.233(7) 0.946(2)
H6B H 1.441(4) 0.347(8) 0.840(3)
H7B H 1.069(4) -0.299(7) 0.379(3)
H9B H 1.461(4) -0.233(6) 0.992(3)
Zn1B Zn 1.45848(3) -0.12045(5) 0.820191(17)
Zn1A Zn 0.45848(3) -0.37955(5) 0.320191(17)
Zn1C Zn 1.54152(3) 0.37955(5) 0.679809(17)
O1B O 1.25279(17) -0.1995(3) 0.75422(11)
O2B O 1.14991(17) 0.2663(3) 0.52086(12)
O3B O 1.44956(17) 0.0421(3) 0.69509(11)
O3A O 0.44956(17) 0.4579(3) 0.19509(11)
O3C O 1.55044(17) -0.4579(3) 0.80491(11)
O4B O 1.3995(2) 0.2207(3) 0.87063(12)
O5B O 1.4133(2) -0.2650(3) 0.94220(13)
O6B O 1.08367(17) -0.1373(3) 0.62718(11)
O7B O 1.33841(17) 0.4512(3) 0.60766(11)
O7A O 0.33841(17) 0.0488(3) 0.10766(11)
O7C O 1.66159(17) -0.0488(3) 0.89234(11)
O8B O 1.1156(2) -0.2767(4) 0.43449(15)
C1B C 1.2094(3) -0.1106(4) 0.67463(16)
C2B C 1.2637(2) 0.2650(4) 0.58531(15)
C3B C 1.3163(2) 0.0190(4) 0.63250(16)
H4 H 0.938(4) 0.653(7) 0.209(3)
H8 H 0.865(5) 0.530(8) 0.239(3)
O9 O 0.8949(2) 0.6548(4) 0.24440(17)
loop_
_geom_bond_atom_site_label_1
_geom_bond_atom_site_label_2
_geom_bond_site_symmetry_1
_geom_bond_site_symmetry_2
H1 C3 1_555 1_555
H2 O4 1_555 1_555
H3 O8 1_555 1_555
H4 O9 1_555 1_555
H5 O5 1_555 1_555
H6 O4 1_555 1_555
H7 O8 1_555 1_555
H8 O9 1_555 1_555
H9 O5 1_555 1_555
Zn1 O1 1_555 1_555
Zn2 O2 1_555 1_555
O1 C1 1_555 1_555
O2 C2 1_555 1_555
O3 Zn1 1_555 1_555
O4 Zn1 1_555 1_555
O5 Zn1 1_555 1_555
O6 Zn2 1_555 1_555
O7 C2 1_555 1_555
O8 Zn2 1_555 1_555
C1 O6 1_555 1_555
C2 C3 1_555 1_555
C3 O3 1_555 1_555
H1B C3B 1_555 1_555
H2B O4B 1_555 1_555
H3B O8B 1_555 1_555
H5B O5B 1_555 1_555
H6B O4B 1_555 1_555
H7B O8B 1_555 1_555
H9B O5B 1_555 1_555
Zn1B O1B 1_555 1_555
Zn1A O3 1_555 1_555
Zn1C O3B 1_555 1_555
O1B C1B 1_555 1_555
O2B Zn2 1_555 1_555
O3B Zn1B 1_555 1_555
O3A Zn1 1_555 1_555
O3C Zn1B 1_555 1_555
O4B Zn1B 1_555 1_555
O5B Zn1B 1_555 1_555
O6B Zn2 1_555 1_555
O7B Zn1C 1_555 1_555
O7A Zn1 1_555 1_555
O7C Zn1B 1_555 1_555
O8B Zn2 1_555 1_555
C1B O6B 1_555 1_555
C2B O2B 1_555 1_555
C3B O3B 1_555 1_555
O7 Zn1A 1_555 1_555
C1 C3 1_555 1_555
O7B C2B 1_555 1_555
C1B C3B 1_555 1_555
C2B C3B 1_555 1_555

#END
