
#######################################################################
#
#                 Cambridge Crystallographic Data Centre
#                                CCDC 
#
#######################################################################
#
# If this CIF has been generated from an entry in the Cambridge 
# Structural Database, then it will include bibliographic, chemical, 
# crystal, experimental, refinement or atomic coordinate data resulting 
# from the CCDC's data processing and validation procedures.
#
#######################################################################

data_KEPRIH
_symmetry_cell_setting           monoclinic
_symmetry_space_group_name_H-M   'P 21/m'
_symmetry_Int_Tables_number      11
_space_group_name_Hall           '-P 2yb'
loop_
_symmetry_equiv_pos_site_id
_symmetry_equiv_pos_as_xyz
1 x,y,z
2 -x,1/2+y,-z
3 -x,-y,-z
4 x,1/2-y,z
_cell_length_a                   5.4688(3)
_cell_length_b                   13.5710(8)
_cell_length_c                   9.5408(5)
_cell_angle_alpha                90
_cell_angle_beta                 97.5830(10)
_cell_angle_gamma                90
_cell_volume                     701.898
loop_
_atom_site_label
_atom_site_type_symbol
_atom_site_fract_x
_atom_site_fract_y
_atom_site_fract_z
U1 U 0.21836(3) 0.588328(11) 0.238555(16)
Cs1 Cs 0.53923(8) 0.7500 0.64003(4)
O1 O -0.0665(6) 0.5529(2) 0.1424(3)
O2 O 0.4999(6) 0.6269(2) 0.3345(3)
O3 O 0.0379(6) 0.6224(2) 0.4531(3)
O4 O -0.1689(6) 0.5572(2) 0.6182(3)
O5 O 0.3752(6) 0.6162(2) 1.0169(3)
O6 O 0.5711(6) 0.5543(2) 0.8453(3)
O7 O 0.0899(9) 0.7500 0.1974(5)
O8 O 0.0583(12) 0.7500 0.8236(7)
C1 C -0.0381(8) 0.5523(3) 0.5206(5)
C2 C 0.4856(8) 0.5493(3) 0.9606(4)
H1 H 0.263(5) 0.7500 0.230(8)
H2 H 0.133(11) 0.690(3) 0.859(6)
U1C U 0.21836(3) 0.911672(11) 0.238555(16)
U1B U -0.21836(3) 0.411672(11) 0.761445(16)
U1_2 U 0.21836(3) 0.588328(11) 1.238555(16)
U1B_2 U 0.78164(3) 0.411672(11) 0.761445(16)
Cs1_2 Cs -0.46077(8) 0.7500 0.64003(4)
Cs1B Cs -0.53923(8) 0.2500 0.35997(4)
Cs1B_2 Cs 0.46077(8) 0.2500 0.35997(4)
Cs1B_3 Cs 0.46077(8) 0.2500 1.35997(4)
O1C O -0.0665(6) 0.9471(2) 0.1424(3)
O2C O 0.4999(6) 0.8731(2) 0.3345(3)
O3B O -0.0379(6) 0.3776(2) 0.5469(3)
O3C O 0.0379(6) 0.8776(2) 0.4531(3)
O4B O 0.1689(6) 0.4428(2) 0.3818(3)
O4_2 O 0.8311(6) 0.5572(2) 0.6182(3)
O4C O 0.8311(6) 0.9428(2) 0.6182(3)
O4A O 0.1689(6) 1.0572(2) 0.3818(3)
O5B O 0.6248(6) 0.3838(2) 0.9831(3)
O5_2 O 0.3752(6) 0.6162(2) 0.0169(3)
O5C O 0.3752(6) 0.8838(2) 0.0169(3)
O6B O 0.4289(6) 0.4457(2) 1.1547(3)
O6B_2 O 0.4289(6) 0.4457(2) 0.1547(3)
O6C O 0.5711(6) 0.9457(2) 0.8453(3)
O6A O 0.4289(6) 1.0543(2) 0.1547(3)
O8_2 O 1.0583(12) 0.7500 0.8236(7)
C1B C 0.0381(8) 0.4477(3) 0.4794(5)
C2B C 0.5144(8) 0.4507(3) 1.0394(4)
H2C H 0.133(11) 0.810(3) 0.859(6)
H2_2 H 1.133(11) 0.690(3) 0.859(6)
H2C_2 H 1.133(11) 0.810(3) 0.859(6)
loop_
_geom_bond_atom_site_label_1
_geom_bond_atom_site_label_2
_geom_bond_site_symmetry_1
_geom_bond_site_symmetry_2
U1 O1 1_555 1_555
Cs1 O2 1_555 1_555
O2 U1 1_555 1_555
O3 U1 1_555 1_555
O4 C1 1_555 1_555
O5 C2 1_555 1_555
O6 Cs1 1_555 1_555
O7 U1 1_555 1_555
O8 Cs1 1_555 1_555
C1 O3 1_555 1_555
C2 O6 1_555 1_555
H1 O7 1_555 1_555
H2 O8 1_555 1_555
U1C O7 1_555 1_555
U1B O4 1_555 1_555
U1_2 O5 1_555 1_555
U1B_2 O6 1_555 1_555
Cs1_2 O4 1_555 1_555
Cs1B O3B 1_555 1_555
Cs1B_2 O4B 1_555 1_555
Cs1B_3 O6B 1_555 1_555
O1C U1C 1_555 1_555
O2C Cs1 1_555 1_555
O3B U1B 1_555 1_555
O3C Cs1 1_555 1_555
O4B U1 1_555 1_555
O4_2 Cs1 1_555 1_555
O4C Cs1 1_555 1_555
O4A U1C 1_555 1_555
O5B U1B_2 1_555 1_555
O5_2 U1 1_555 1_555
O5C U1C 1_555 1_555
O6B U1_2 1_555 1_555
O6B_2 U1 1_555 1_555
O6C Cs1 1_555 1_555
O6A U1C 1_555 1_555
O8_2 Cs1 1_555 1_555
C1B C1 1_555 1_555
C2B C2 1_555 1_555
H2C O8 1_555 1_555
H2_2 O8_2 1_555 1_555
H2C_2 O8_2 1_555 1_555
Cs1 O3 1_555 1_555
O8 Cs1_2 1_555 1_555
U1C O2C 1_555 1_555
U1C O3C 1_555 1_555
U1B_2 O4_2 1_555 1_555
Cs1B_2 O6B_2 1_555 1_555
O3B C1B 1_555 1_555
O4B C1B 1_555 1_555
O5B C2B 1_555 1_555
O6B C2B 1_555 1_555

#END
