
#######################################################################
#
#                 Cambridge Crystallographic Data Centre
#                                CCDC 
#
#######################################################################
#
# If this CIF has been generated from an entry in the Cambridge 
# Structural Database, then it will include bibliographic, chemical, 
# crystal, experimental, refinement or atomic coordinate data resulting 
# from the CCDC's data processing and validation procedures.
#
#######################################################################

data_KEPRUT
_symmetry_cell_setting           monoclinic
_symmetry_space_group_name_H-M   'P 21/m'
_symmetry_Int_Tables_number      11
_space_group_name_Hall           '-P 2yb'
loop_
_symmetry_equiv_pos_site_id
_symmetry_equiv_pos_as_xyz
1 x,y,z
2 -x,1/2+y,-z
3 -x,-y,-z
4 x,1/2-y,z
_cell_length_a                   5.6427(4)
_cell_length_b                   13.7123(9)
_cell_length_c                   9.2669(6)
_cell_angle_alpha                90
_cell_angle_beta                 98.7490(10)
_cell_angle_gamma                90
_cell_volume                     708.678
loop_
_atom_site_label
_atom_site_type_symbol
_atom_site_fract_x
_atom_site_fract_y
_atom_site_fract_z
U1 U 0.28646(3) 0.408345(12) 0.764738(17)
K1 K -0.1977(4) 0.2500 0.40692(19)
O1 O 0.5578(6) 0.4435(3) 0.8725(3)
O2 O 0.0216(7) 0.3695(3) 0.6523(4)
O3 O -0.5068(7) 0.3799(3) 0.5588(4)
O4 O -0.3336(7) 0.4447(3) 0.3800(4)
O5 O 0.1155(7) 0.3833(3) 0.9886(4)
O6 O -0.0712(6) 0.4496(3) 1.1603(4)
O7 O 0.3878(8) 0.2500 0.8222(5)
O8 O -0.2943(12) 0.2500 0.0795(7)
O9 O -0.7450(13) 0.2500 0.2689(7)
C1 C -0.4549(9) 0.4492(4) 0.4824(5)
C2 C 0.0121(9) 0.4520(3) 1.0434(5)
H1 H 0.518(12) 0.2500 0.903(7)
H2 H -0.192(11) 0.304(3) 0.068(8)
H3 H -0.798(18) 0.2500 0.165(3)
U1C U 0.28646(3) 0.091655(12) 0.764738(17)
U1_2 U -0.71354(3) 0.408345(12) 0.764738(17)
U1B U -0.28646(3) 0.591655(12) 0.235262(17)
U1B_2 U -0.28646(3) 0.591655(12) 1.235262(17)
K1_2 K -1.1977(4) 0.2500 0.40692(19)
K1B K -0.8023(4) 0.7500 0.59308(19)
O1C O 0.5578(6) 0.0565(3) 0.8725(3)
O2C O 0.0216(7) 0.1305(3) 0.6523(4)
O3B O -0.4932(7) 0.6201(3) 0.4412(4)
O3_2 O 0.4932(7) 0.3799(3) 0.5588(4)
O3C O -0.5068(7) 0.1201(3) 0.5588(4)
O3C_2 O 0.4932(7) 0.1201(3) 0.5588(4)
O4B O -0.6664(7) 0.5553(3) 0.6200(4)
O4B_2 O 0.3336(7) 0.5553(3) 0.6200(4)
O4C O -0.3336(7) 0.0553(3) 0.3800(4)
O4A O 0.3336(7) -0.0553(3) 0.6200(4)
O5B O -0.1155(7) 0.6167(3) 1.0114(4)
O5C O 0.1155(7) 0.1167(3) 0.9886(4)
O6B O 0.0712(6) 0.5504(3) 0.8397(4)
O6A O 0.0712(6) -0.0504(3) 0.8397(4)
O9_2 O 0.2550(13) 0.2500 0.2689(7)
C1B C -0.5451(9) 0.5508(4) 0.5176(5)
C2B C -0.0121(9) 0.5480(3) 0.9566(5)
H2C H -0.192(11) 0.196(3) 0.068(8)
H3_2 H 0.202(18) 0.2500 0.165(3)
loop_
_geom_bond_atom_site_label_1
_geom_bond_atom_site_label_2
_geom_bond_site_symmetry_1
_geom_bond_site_symmetry_2
U1 O1 1_555 1_555
K1 O2 1_555 1_555
O2 U1 1_555 1_555
O3 K1 1_555 1_555
O4 K1 1_555 1_555
O5 U1 1_555 1_555
O6 C2 1_555 1_555
O7 U1 1_555 1_555
O8 K1 1_555 1_555
O9 K1 1_555 1_555
C1 O3 1_555 1_555
C2 O5 1_555 1_555
H1 O7 1_555 1_555
H2 O8 1_555 1_555
H3 O9 1_555 1_555
U1C O7 1_555 1_555
U1_2 O3 1_555 1_555
U1B O4 1_555 1_555
U1B_2 O6 1_555 1_555
K1_2 O9 1_555 1_555
K1B O3B 1_555 1_555
O1C U1C 1_555 1_555
O2C K1 1_555 1_555
O3B U1B 1_555 1_555
O3_2 U1 1_555 1_555
O3C K1 1_555 1_555
O3C_2 U1C 1_555 1_555
O4B U1_2 1_555 1_555
O4B_2 U1 1_555 1_555
O4C K1 1_555 1_555
O4A U1C 1_555 1_555
O5B U1B_2 1_555 1_555
O5C U1C 1_555 1_555
O6B U1 1_555 1_555
O6A U1C 1_555 1_555
O9_2 K1 1_555 1_555
C1B C1 1_555 1_555
C2B C2 1_555 1_555
H2C O8 1_555 1_555
H3_2 O9_2 1_555 1_555
O4 C1 1_555 1_555
U1C O2C 1_555 1_555
K1B O4B 1_555 1_555
O3B C1B 1_555 1_555
O4B C1B 1_555 1_555
O5B C2B 1_555 1_555
O6B C2B 1_555 1_555

#END
