
#######################################################################
#
#                 Cambridge Crystallographic Data Centre
#                                CCDC 
#
#######################################################################
#
# If this CIF has been generated from an entry in the Cambridge 
# Structural Database, then it will include bibliographic, chemical, 
# crystal, experimental, refinement or atomic coordinate data resulting 
# from the CCDC's data processing and validation procedures.
#
#######################################################################

data_KEPSEE
_symmetry_cell_setting           monoclinic
_symmetry_space_group_name_H-M   'P 21'
_symmetry_Int_Tables_number      4
_space_group_name_Hall           'P 2yb'
loop_
_symmetry_equiv_pos_site_id
_symmetry_equiv_pos_as_xyz
1 x,y,z
2 -x,1/2+y,-z
_cell_length_a                   5.5355(2)
_cell_length_b                   8.9581(3)
_cell_length_c                   16.0027(5)
_cell_angle_alpha                90
_cell_angle_beta                 92.687(2)
_cell_angle_gamma                90
_cell_volume                     792.662
loop_
_atom_site_label
_atom_site_type_symbol
_atom_site_fract_x
_atom_site_fract_y
_atom_site_fract_z
Cu1 Cu -1.05074(7) 0.36591(4) -0.08610(2)
O1 O -0.2046(5) -0.0202(3) 0.02577(15)
O2 O -0.0155(5) 0.1904(3) -0.00940(16)
O3 O -0.7392(5) 0.3201(3) -0.17599(15)
N1 N -0.3601(6) 0.2784(4) -0.11397(18)
N2 N -0.1590(6) 0.5080(4) -0.1778(2)
H1 H -0.1059 0.6028 -0.1648
H2 H -0.0936 0.4799 -0.2272
C1 C -0.1958(7) 0.1028(4) -0.0131(2)
C2 C -0.4225(7) 0.1449(4) -0.0675(2)
H3 H -0.5528 0.1725 -0.0291
C3 C -0.5149(7) 0.0138(4) -0.1216(2)
H4 H -0.5400 -0.0734 -0.0850
H5 H -0.6734 0.0409 -0.1485
C4 C -0.3437(7) -0.0303(4) -0.1890(2)
C5 C -0.1356(7) -0.1137(5) -0.1692(2)
H6 H -0.1043 -0.1477 -0.1136
C6 C 0.0256(7) -0.1472(6) -0.2304(2)
H7 H 0.1712 -0.1989 -0.2157
C7 C -0.0239(8) -0.1059(6) -0.3123(3)
H8 H 0.0835 -0.1328 -0.3544
C8 C -0.2313(9) -0.0248(6) -0.3329(3)
H9 H -0.2641 0.0057 -0.3891
C9 C -0.3923(8) 0.0124(5) -0.2718(3)
H10 H -0.5352 0.0670 -0.2866
C10 C -0.5224(6) 0.3536(6) -0.15897(18)
C11 C -0.4266(7) 0.5069(4) -0.1877(2)
H11 H -0.4851 0.5821 -0.1472
C12 C -0.5242(7) 0.5574(5) -0.2745(2)
H12 H -0.7028 0.5613 -0.2740
H13 H -0.4664 0.6603 -0.2841
C13 C -0.4556(7) 0.4616(5) -0.3479(2)
C14 C -0.6020(8) 0.3449(7) -0.3749(2)
H14 H -0.7430 0.3224 -0.3458
C15 C -0.5470(9) 0.2600(6) -0.4439(3)
H15 H -0.6517 0.1813 -0.4621
C16 C -0.3395(10) 0.2894(6) -0.4865(3)
H16 H -0.3012 0.2316 -0.5339
C17 C -0.1892(9) 0.4047(5) -0.4588(3)
H17 H -0.0464 0.4256 -0.4873
C18 C -0.2443(8) 0.4897(5) -0.3901(3)
H18 H -0.1384 0.5675 -0.3714
Cu1A Cu 0.05074(7) -0.13409(4) 0.08610(2)
Cu1_2 Cu -0.05074(7) 0.36591(4) -0.08610(2)
O1A O -0.7954(5) 0.4798(3) -0.02577(15)
O2_2 O -1.0155(5) 0.1904(3) -0.00940(16)
N1_2 N -1.3601(6) 0.2784(4) -0.11397(18)
N2_2 N -1.1590(6) 0.5080(4) -0.1778(2)
H1_2 H -1.1059 0.6028 -0.1648
H2_2 H -1.0936 0.4799 -0.2272
loop_
_geom_bond_atom_site_label_1
_geom_bond_atom_site_label_2
_geom_bond_site_symmetry_1
_geom_bond_site_symmetry_2
Cu1 O3 1_555 1_555
O1 C1 1_555 1_555
O2 C1 1_555 1_555
O3 C10 1_555 1_555
N1 C2 1_555 1_555
N2 H1 1_555 1_555
H2 N2 1_555 1_555
C1 C2 1_555 1_555
C2 H3 1_555 1_555
C3 C2 1_555 1_555
H4 C3 1_555 1_555
H5 C3 1_555 1_555
C4 C3 1_555 1_555
C5 C4 1_555 1_555
H6 C5 1_555 1_555
C6 C5 1_555 1_555
H7 C6 1_555 1_555
C7 C6 1_555 1_555
H8 C7 1_555 1_555
C8 C7 1_555 1_555
H9 C8 1_555 1_555
C9 C4 1_555 1_555
H10 C9 1_555 1_555
C10 N1 1_555 1_555
C11 N2 1_555 1_555
H11 C11 1_555 1_555
C12 C11 1_555 1_555
H12 C12 1_555 1_555
H13 C12 1_555 1_555
C13 C12 1_555 1_555
C14 C13 1_555 1_555
H14 C14 1_555 1_555
C15 C14 1_555 1_555
H15 C15 1_555 1_555
C16 C15 1_555 1_555
H16 C16 1_555 1_555
C17 C16 1_555 1_555
H17 C17 1_555 1_555
C18 C13 1_555 1_555
H18 C18 1_555 1_555
Cu1A O1 1_555 1_555
Cu1_2 O2 1_555 1_555
O1A Cu1 1_555 1_555
O2_2 Cu1 1_555 1_555
N1_2 Cu1 1_555 1_555
N2_2 Cu1 1_555 1_555
H1_2 N2_2 1_555 1_555
H2_2 N2_2 1_555 1_555
N1 Cu1_2 1_555 1_555
N2 Cu1_2 1_555 1_555
C8 C9 1_555 1_555
C10 C11 1_555 1_555
C17 C18 1_555 1_555

#END
