
#######################################################################
#
#                 Cambridge Crystallographic Data Centre
#                                CCDC 
#
#######################################################################
#
# If this CIF has been generated from an entry in the Cambridge 
# Structural Database, then it will include bibliographic, chemical, 
# crystal, experimental, refinement or atomic coordinate data resulting 
# from the CCDC's data processing and validation procedures.
#
#######################################################################

data_KEPSAA
_symmetry_cell_setting           orthorhombic
_symmetry_space_group_name_H-M   'P 21 21 21'
_symmetry_Int_Tables_number      19
_space_group_name_Hall           'P 2ac 2ab'
loop_
_symmetry_equiv_pos_site_id
_symmetry_equiv_pos_as_xyz
1 x,y,z
2 1/2+x,1/2-y,-z
3 -x,1/2+y,1/2-z
4 1/2-x,-y,1/2+z
_cell_length_a                   5.46270(10)
_cell_length_b                   9.0931(2)
_cell_length_c                   27.2711(8)
_cell_angle_alpha                90
_cell_angle_beta                 90
_cell_angle_gamma                90
_cell_volume                     1354.63
loop_
_atom_site_label
_atom_site_type_symbol
_atom_site_fract_x
_atom_site_fract_y
_atom_site_fract_z
Cu1 Cu 0.96078(8) 0.44902(5) 0.295302(16)
O1 O 1.2837(5) 0.4743(3) 0.35133(9)
O2 O 1.9781(5) 0.6311(3) 0.25476(9)
O3 O 1.7855(5) 0.8465(3) 0.24337(9)
N1 N 1.8619(6) 0.2813(3) 0.33748(12)
H1 H 1.8497 0.1979 0.3185
H2 H 1.9811 0.2652 0.3607
N2 N 1.6590(6) 0.5317(3) 0.31674(11)
C1 C 1.6227(7) 0.3078(4) 0.36267(13)
H3 H 1.5117 0.2238 0.3547
C2 C 1.5057(6) 0.4487(4) 0.34218(11)
C3 C 1.6584(8) 0.3107(4) 0.41867(14)
H4 H 1.7688 0.2268 0.4272
C4 C 1.4235(8) 0.2891(5) 0.44671(14)
H5 H 1.3135 0.3722 0.4405
H6 H 1.4593 0.2833 0.4819
H7 H 1.3448 0.1977 0.4360
C5 C 1.7881(7) 0.4533(4) 0.43516(14)
H8 H 1.6774 0.5371 0.4307
H9 H 1.9359 0.4682 0.4154
H10 H 1.8334 0.4452 0.4698
C6 C 1.5754(7) 0.6630(4) 0.29072(13)
H11 H 1.4495 0.6300 0.2665
C7 C 1.7970(7) 0.7166(4) 0.26119(14)
C8 C 1.4560(8) 0.7846(4) 0.32216(13)
H12 H 1.4284 0.8719 0.3012
H13 H 1.2938 0.7495 0.3334
C9 C 1.6025(8) 0.8314(4) 0.36654(14)
C10 C 1.5180(9) 0.8027(4) 0.41364(13)
H14 H 1.3685 0.7510 0.4179
C11 C 1.6485(11) 0.8484(5) 0.45443(16)
H15 H 1.5860 0.8301 0.4864
C12 C 1.8693(11) 0.9205(5) 0.44883(17)
H16 H 1.9606 0.9498 0.4768
C13 C 1.9565(8) 0.9497(4) 0.40229(15)
H17 H 2.1078 0.9999 0.3984
C14 C 1.8260(8) 0.9066(4) 0.36148(15)
H18 H 1.8876 0.9278 0.3297
Cu1_2 Cu 1.96078(8) 0.44902(5) 0.295302(16)
Cu1B Cu 2.03922(8) 0.94902(5) 0.204698(16)
O2_2 O 0.9781(5) 0.6311(3) 0.25476(9)
O3B O 1.2145(5) 0.3465(3) 0.25663(9)
N1_2 N 0.8619(6) 0.2813(3) 0.33748(12)
H1_2 H 0.8497 0.1979 0.3185
H2_2 H 0.9811 0.2652 0.3607
N2_2 N 0.6590(6) 0.5317(3) 0.31674(11)
loop_
_geom_bond_atom_site_label_1
_geom_bond_atom_site_label_2
_geom_bond_site_symmetry_1
_geom_bond_site_symmetry_2
Cu1 O1 1_555 1_555
O1 C2 1_555 1_555
O2 C7 1_555 1_555
O3 C7 1_555 1_555
N1 H1 1_555 1_555
H2 N1 1_555 1_555
N2 C2 1_555 1_555
C1 N1 1_555 1_555
H3 C1 1_555 1_555
C2 C1 1_555 1_555
C3 C1 1_555 1_555
H4 C3 1_555 1_555
C4 C3 1_555 1_555
H5 C4 1_555 1_555
H6 C4 1_555 1_555
H7 C4 1_555 1_555
C5 C3 1_555 1_555
H8 C5 1_555 1_555
H9 C5 1_555 1_555
H10 C5 1_555 1_555
C6 N2 1_555 1_555
H11 C6 1_555 1_555
C7 C6 1_555 1_555
C8 C6 1_555 1_555
H12 C8 1_555 1_555
H13 C8 1_555 1_555
C9 C8 1_555 1_555
C10 C9 1_555 1_555
H14 C10 1_555 1_555
C11 C10 1_555 1_555
H15 C11 1_555 1_555
C12 C11 1_555 1_555
H16 C12 1_555 1_555
C13 C12 1_555 1_555
H17 C13 1_555 1_555
C14 C9 1_555 1_555
H18 C14 1_555 1_555
Cu1_2 O2 1_555 1_555
Cu1B O3 1_555 1_555
O2_2 Cu1 1_555 1_555
O3B Cu1 1_555 1_555
N1_2 Cu1 1_555 1_555
H1_2 N1_2 1_555 1_555
H2_2 N1_2 1_555 1_555
N2_2 Cu1 1_555 1_555
N1 Cu1_2 1_555 1_555
N2 Cu1_2 1_555 1_555
C13 C14 1_555 1_555

#END
