
#######################################################################
#
#                 Cambridge Crystallographic Data Centre
#                                CCDC 
#
#######################################################################
#
# If this CIF has been generated from an entry in the Cambridge 
# Structural Database, then it will include bibliographic, chemical, 
# crystal, experimental, refinement or atomic coordinate data resulting 
# from the CCDC's data processing and validation procedures.
#
#######################################################################

data_KEPTIJ
_symmetry_cell_setting           monoclinic
_symmetry_space_group_name_H-M   'P 21/n'
_symmetry_Int_Tables_number      14
_space_group_name_Hall           '-P 2yn'
loop_
_symmetry_equiv_pos_site_id
_symmetry_equiv_pos_as_xyz
1 x,y,z
2 1/2-x,1/2+y,1/2-z
3 -x,-y,-z
4 1/2+x,1/2-y,1/2+z
_cell_length_a                   10.1467(8)
_cell_length_b                   7.6444(6)
_cell_length_c                   19.1170(16)
_cell_angle_alpha                90
_cell_angle_beta                 99.5030(10)
_cell_angle_gamma                90
_cell_volume                     1462.47
loop_
_atom_site_label
_atom_site_type_symbol
_atom_site_fract_x
_atom_site_fract_y
_atom_site_fract_z
Mn1 Mn 0.60012(4) 0.32920(6) 0.52534(2)
N1 N 0.8508(2) 0.3040(3) 0.52935(11)
N2 N 0.9194(2) 0.3653(3) 0.58577(12)
N3 N 0.9002(2) 0.5001(3) 0.69520(12)
N4 N 0.7103(2) 0.4503(3) 0.62222(12)
N5 N 0.5941(2) 0.5620(3) 0.45670(13)
N6 N 0.6326(3) 0.5785(4) 0.40138(15)
N7 N 0.6688(4) 0.5952(6) 0.34850(18)
N8 N 0.5306(3) 0.1662(4) 0.43397(13)
N9 N 0.4737(3) 0.0354(4) 0.42148(11)
N10 N 0.4139(3) -0.0934(4) 0.40654(14)
C1 C 1.0730(4) 0.1007(5) 0.38258(19)
H1 H 1.1209 0.0537 0.3496
C2 C 0.9367(4) 0.0986(5) 0.36959(18)
H2 H 0.8920 0.0514 0.3274
C3 C 0.8644(3) 0.1662(4) 0.41880(16)
H3 H 0.7715 0.1639 0.4099
C4 C 0.9308(3) 0.2372(4) 0.48114(14)
C5 C 1.0695(3) 0.2417(4) 0.49395(18)
H4 H 1.1149 0.2911 0.5355
C6 C 1.1394(4) 0.1720(4) 0.4442(2)
H5 H 1.2323 0.1735 0.4527
C7 C 0.8417(3) 0.4338(4) 0.63180(14)
C8 C 0.6831(3) 0.5303(4) 0.68217(16)
H6 H 0.5981 0.5597 0.6905
C9 C 0.7993(3) 0.5606(4) 0.72805(16)
H7 H 0.8079 0.6121 0.7726
C10 C 1.0452(3) 0.5004(5) 0.72355(18)
H8 H 1.0946 0.5289 0.6858
H9 H 1.0643 0.5895 0.7599
C11 C 1.0896(4) 0.3280(5) 0.75399(19)
H10 H 1.1839 0.3316 0.7716
H11 H 1.0716 0.2398 0.7179
H12 H 1.0424 0.3008 0.7922
Mn1B Mn 0.39988(4) 0.67080(6) 0.47466(2)
Mn1B_2 Mn 0.39988(4) -0.32920(6) 0.47466(2)
N5B N 0.4059(2) 0.4380(3) 0.54330(13)
N10B N 0.5861(3) 0.0934(4) 0.59346(14)
loop_
_geom_bond_atom_site_label_1
_geom_bond_atom_site_label_2
_geom_bond_site_symmetry_1
_geom_bond_site_symmetry_2
Mn1 N1 1_555 1_555
N1 N2 1_555 1_555
N2 C7 1_555 1_555
N3 C7 1_555 1_555
N4 Mn1 1_555 1_555
N5 Mn1 1_555 1_555
N6 N5 1_555 1_555
N7 N6 1_555 1_555
N8 Mn1 1_555 1_555
N9 N8 1_555 1_555
N10 N9 1_555 1_555
C1 H1 1_555 1_555
C2 C1 1_555 1_555
H2 C2 1_555 1_555
C3 C2 1_555 1_555
H3 C3 1_555 1_555
C4 N1 1_555 1_555
C5 C4 1_555 1_555
H4 C5 1_555 1_555
C6 C1 1_555 1_555
H5 C6 1_555 1_555
C7 N4 1_555 1_555
C8 N4 1_555 1_555
H6 C8 1_555 1_555
C9 N3 1_555 1_555
H7 C9 1_555 1_555
C10 N3 1_555 1_555
H8 C10 1_555 1_555
H9 C10 1_555 1_555
C11 C10 1_555 1_555
H10 C11 1_555 1_555
H11 C11 1_555 1_555
H12 C11 1_555 1_555
Mn1B N5 1_555 1_555
Mn1B_2 N10 1_555 1_555
N5B Mn1 1_555 1_555
N10B Mn1 1_555 1_555
C3 C4 1_555 1_555
C5 C6 1_555 1_555
C8 C9 1_555 1_555
Mn1B N5B 1_555 1_555

#END
