
#######################################################################
#
#                 Cambridge Crystallographic Data Centre
#                                CCDC 
#
#######################################################################
#
# If this CIF has been generated from an entry in the Cambridge 
# Structural Database, then it will include bibliographic, chemical, 
# crystal, experimental, refinement or atomic coordinate data resulting 
# from the CCDC's data processing and validation procedures.
#
#######################################################################

data_KEPYOU01
_symmetry_cell_setting           orthorhombic
_symmetry_space_group_name_H-M   'P b c n'
_symmetry_Int_Tables_number      60
_space_group_name_Hall           '-P 2n 2ab'
loop_
_symmetry_equiv_pos_site_id
_symmetry_equiv_pos_as_xyz
1 x,y,z
2 1/2-x,1/2-y,1/2+z
3 1/2+x,1/2-y,-z
4 -x,y,1/2-z
5 -x,-y,-z
6 1/2+x,1/2+y,1/2-z
7 1/2-x,1/2+y,z
8 x,-y,1/2+z
_cell_length_a                   12.542(4)
_cell_length_b                   15.743(5)
_cell_length_c                   15.190(5)
_cell_angle_alpha                90
_cell_angle_beta                 90
_cell_angle_gamma                90
_cell_volume                     2999.25
loop_
_atom_site_label
_atom_site_type_symbol
_atom_site_fract_x
_atom_site_fract_y
_atom_site_fract_z
Cd1 Cd 0.82035(2) 0.216444(16) 0.079506(18)
O1 O 0.7954(2) 0.36307(16) 0.0823(2)
O2 O 0.9588(2) 0.31557(16) 0.0818(2)
O3 O 0.8131(2) 0.17571(16) -0.08361(19)
O4 O 0.8782(2) 0.09419(18) 0.02137(19)
N1 N 0.8573(3) 0.69280(19) 0.0940(2)
N2 N 1.0254(3) 0.71262(19) 0.1324(2)
H1 H 1.0841 0.7397 0.1472
N3 N 0.8600(3) -0.1797(2) -0.2792(2)
N4 N 0.8794(3) -0.2011(2) -0.1363(2)
H2 H 0.8873 -0.2287 -0.0863
C1 C 0.8936(3) 0.3759(2) 0.0873(3)
C2 C 0.9344(3) 0.4643(2) 0.1015(2)
C3 C 0.8662(3) 0.5323(2) 0.0898(3)
H3 H 0.7939 0.5238 0.0734
C4 C 0.9066(3) 0.6133(2) 0.1029(3)
C5 C 0.9325(4) 0.7478(3) 0.1113(3)
H4 H 0.9218 0.8075 0.1091
C6 C 1.0126(3) 0.6257(2) 0.1267(2)
C7 C 1.0822(3) 0.5580(2) 0.1389(3)
H5 H 1.1544 0.5667 0.1555
C8 C 1.0416(3) 0.4776(2) 0.1259(3)
H6 H 1.0871 0.4299 0.1335
C9 C 0.8504(3) 0.1059(2) -0.0572(3)
C10 C 0.8590(3) 0.0331(2) -0.1204(3)
C11 C 0.8737(3) -0.0477(2) -0.0860(3)
H7 H 0.8837 -0.0571 -0.0248
C12 C 0.8730(3) -0.1141(2) -0.1462(3)
C13 C 0.8715(4) -0.2358(3) -0.2160(3)
H8 H 0.8739 -0.2954 -0.2261
C14 C 0.8610(3) -0.1014(2) -0.2367(2)
C15 C 0.8511(3) -0.0193(2) -0.2698(3)
H9 H 0.8463 -0.0093 -0.3313
C16 C 0.8484(3) 0.0464(2) -0.2113(3)
H10 H 0.8392 0.1026 -0.2327
Cd1F Cd 0.67965(2) 0.716444(16) 0.079506(18)
Cd1G Cd 0.82035(2) -0.216444(16) -0.420494(18)
N1F N 0.6427(3) 0.19280(19) 0.0940(2)
N3G N 0.8600(3) 0.1797(2) 0.2208(2)
loop_
_geom_bond_atom_site_label_1
_geom_bond_atom_site_label_2
_geom_bond_site_symmetry_1
_geom_bond_site_symmetry_2
Cd1 O1 1_555 1_555
O1 C1 1_555 1_555
O2 Cd1 1_555 1_555
O3 Cd1 1_555 1_555
O4 Cd1 1_555 1_555
N1 C4 1_555 1_555
N2 H1 1_555 1_555
N3 C13 1_555 1_555
N4 H2 1_555 1_555
C1 O2 1_555 1_555
C2 C1 1_555 1_555
C3 C2 1_555 1_555
H3 C3 1_555 1_555
C4 C3 1_555 1_555
C5 N1 1_555 1_555
H4 C5 1_555 1_555
C6 N2 1_555 1_555
C7 C6 1_555 1_555
H5 C7 1_555 1_555
C8 C2 1_555 1_555
H6 C8 1_555 1_555
C9 O3 1_555 1_555
C10 C9 1_555 1_555
C11 C10 1_555 1_555
H7 C11 1_555 1_555
C12 N4 1_555 1_555
C13 N4 1_555 1_555
H8 C13 1_555 1_555
C14 N3 1_555 1_555
C15 C14 1_555 1_555
H9 C15 1_555 1_555
C16 C10 1_555 1_555
H10 C16 1_555 1_555
Cd1F N1 1_555 1_555
Cd1G N3 1_555 1_555
N1F Cd1 1_555 1_555
N3G Cd1 1_555 1_555
O4 C9 1_555 1_555
N2 C5 1_555 1_555
C4 C6 1_555 1_555
C7 C8 1_555 1_555
C11 C12 1_555 1_555
C12 C14 1_555 1_555
C15 C16 1_555 1_555

#END
