
#######################################################################
#
#                 Cambridge Crystallographic Data Centre
#                                CCDC 
#
#######################################################################
#
# If this CIF has been generated from an entry in the Cambridge 
# Structural Database, then it will include bibliographic, chemical, 
# crystal, experimental, refinement or atomic coordinate data resulting 
# from the CCDC's data processing and validation procedures.
#
#######################################################################

data_KEPYIO
_symmetry_cell_setting           triclinic
_symmetry_space_group_name_H-M   'P -1'
_symmetry_Int_Tables_number      2
_space_group_name_Hall           '-P 1'
loop_
_symmetry_equiv_pos_site_id
_symmetry_equiv_pos_as_xyz
1 x,y,z
2 -x,-y,-z
_cell_length_a                   8.631
_cell_length_b                   10.814
_cell_length_c                   15.833
_cell_angle_alpha                89.86
_cell_angle_beta                 77.12
_cell_angle_gamma                76.25
_cell_volume                     1397.32
loop_
_atom_site_label
_atom_site_type_symbol
_atom_site_fract_x
_atom_site_fract_y
_atom_site_fract_z
Cd1 Cd 0.64259(4) 0.69498(3) 0.24139(2)
S1 S 0.79997(16) 1.15345(12) -0.26794(9)
S2 S 1.57326(16) 0.04457(12) 0.28560(10)
O1 O 0.8928(5) 0.7188(4) 0.1185(3)
O2 O 0.6393(4) 0.8278(3) 0.1336(2)
O3 O 0.8567(5) 0.6471(4) 0.3201(3)
O4 O 0.8081(5) 0.4968(4) 0.2471(3)
N1 N 0.5727(4) 1.3707(4) -0.2101(2)
N2 N 0.7930(5) 1.3506(4) -0.1554(3)
H1 H 0.8898 1.3170 -0.1449
N3 N 1.5073(4) -0.1665(3) 0.3571(2)
N4 N 1.3496(5) 0.0097(4) 0.4320(3)
H2 H 1.3075 0.0911 0.4470
C1 C 0.7865(7) 0.8016(5) 0.0932(3)
C2 C 0.8317(6) 0.8693(5) 0.0130(3)
C3 C 0.9847(6) 0.8316(5) -0.0431(4)
H3 H 1.0639 0.7608 -0.0307
C4 C 1.0218(6) 0.8966(5) -0.1169(4)
H4 H 1.1271 0.8699 -0.1549
C5 C 0.7189(6) 0.9722(5) -0.0064(3)
H5 H 0.6140 0.9993 0.0318
C6 C 0.7566(6) 1.0364(5) -0.0809(3)
H6 H 0.6766 1.1064 -0.0937
C7 C 0.9089(5) 1.0003(4) -0.1370(3)
C8 C 0.9610(5) 1.0692(5) -0.2179(3)
H7 H 1.0400 1.0060 -0.2616
H8 H 1.0200 1.1312 -0.2031
C9 C 0.7186(6) 1.2979(4) -0.2063(3)
C10 C 0.6903(6) 1.4678(5) -0.1221(3)
C11 C 0.7028(6) 1.5600(5) -0.0657(3)
H9 H 0.7957 1.5502 -0.0411
C12 C 0.5755(6) 1.6661(5) -0.0466(4)
H10 H 0.5798 1.7315 -0.0078
C13 C 0.4397(6) 1.6804(5) -0.0828(3)
H11 H 0.3546 1.7563 -0.0690
C14 C 0.4250(6) 1.5884(5) -0.1378(3)
H12 H 0.3309 1.5984 -0.1613
C15 C 0.5537(5) 1.4794(4) -0.1580(3)
C16 C 0.8921(6) 0.5345(5) 0.2897(3)
C17 C 1.0460(6) 0.4450(4) 0.3035(3)
C18 C 1.1313(7) 0.4767(5) 0.3604(4)
H13 H 1.0907 0.5559 0.3930
C19 C 1.2738(7) 0.3964(5) 0.3709(4)
H14 H 1.3287 0.4196 0.4119
C20 C 1.1099(6) 0.3306(5) 0.2552(3)
H15 H 1.0536 0.3066 0.2151
C21 C 1.2554(6) 0.2507(4) 0.2650(3)
H16 H 1.2981 0.1727 0.2310
C22 C 1.3391(6) 0.2818(4) 0.3225(3)
C23 C 1.5043(6) 0.2054(4) 0.3328(4)
H17 H 1.5015 0.2018 0.3956
H18 H 1.5872 0.2525 0.3070
C24 C 1.4734(5) -0.0394(4) 0.3619(3)
C25 C 1.3016(6) -0.0912(5) 0.4752(3)
C26 C 1.1785(7) -0.0962(6) 0.5478(3)
H19 H 1.1084 -0.0211 0.5789
C27 C 1.1642(8) -0.2158(6) 0.5720(4)
H20 H 1.0835 -0.2234 0.6221
C28 C 1.2637(8) -0.3264(6) 0.5257(4)
H21 H 1.2480 -0.4070 0.5443
C29 C 1.3854(7) -0.3208(5) 0.4529(4)
H22 H 1.4542 -0.3961 0.4215
C30 C 1.4024(6) -0.2016(5) 0.4279(3)
Cd1A Cd 0.35741(4) 1.30502(3) -0.24139(2)
Cd1_2 Cd 1.64259(4) -0.30502(3) 0.24139(2)
N1A N 0.4273(4) 0.6293(4) 0.2101(2)
N3_2 N 0.5073(4) 0.8335(3) 0.3571(2)
O5 O 0.1504(6) 0.2198(4) 0.5341(3)
loop_
_geom_bond_atom_site_label_1
_geom_bond_atom_site_label_2
_geom_bond_site_symmetry_1
_geom_bond_site_symmetry_2
Cd1 O1 1_555 1_555
S1 C8 1_555 1_555
S2 C23 1_555 1_555
O1 C1 1_555 1_555
O2 Cd1 1_555 1_555
O3 Cd1 1_555 1_555
O4 Cd1 1_555 1_555
N1 C9 1_555 1_555
N2 H1 1_555 1_555
N3 C24 1_555 1_555
N4 H2 1_555 1_555
C1 O2 1_555 1_555
C2 C1 1_555 1_555
C3 C2 1_555 1_555
H3 C3 1_555 1_555
C4 C3 1_555 1_555
H4 C4 1_555 1_555
C5 C2 1_555 1_555
H5 C5 1_555 1_555
C6 C5 1_555 1_555
H6 C6 1_555 1_555
C7 C4 1_555 1_555
C8 C7 1_555 1_555
H7 C8 1_555 1_555
H8 C8 1_555 1_555
C9 S1 1_555 1_555
C10 N2 1_555 1_555
C11 C10 1_555 1_555
H9 C11 1_555 1_555
C12 C11 1_555 1_555
H10 C12 1_555 1_555
C13 C12 1_555 1_555
H11 C13 1_555 1_555
C14 C13 1_555 1_555
H12 C14 1_555 1_555
C15 N1 1_555 1_555
C16 O3 1_555 1_555
C17 C16 1_555 1_555
C18 C17 1_555 1_555
H13 C18 1_555 1_555
C19 C18 1_555 1_555
H14 C19 1_555 1_555
C20 C17 1_555 1_555
H15 C20 1_555 1_555
C21 C20 1_555 1_555
H16 C21 1_555 1_555
C22 C19 1_555 1_555
C23 C22 1_555 1_555
H17 C23 1_555 1_555
H18 C23 1_555 1_555
C24 S2 1_555 1_555
C25 N4 1_555 1_555
C26 C25 1_555 1_555
H19 C26 1_555 1_555
C27 C26 1_555 1_555
H20 C27 1_555 1_555
C28 C27 1_555 1_555
H21 C28 1_555 1_555
C29 C28 1_555 1_555
H22 C29 1_555 1_555
C30 N3 1_555 1_555
Cd1A N1 1_555 1_555
Cd1_2 N3 1_555 1_555
N1A Cd1 1_555 1_555
N3_2 Cd1 1_555 1_555
O4 C16 1_555 1_555
N2 C9 1_555 1_555
N4 C24 1_555 1_555
C6 C7 1_555 1_555
C10 C15 1_555 1_555
C14 C15 1_555 1_555
C21 C22 1_555 1_555
C25 C30 1_555 1_555
C29 C30 1_555 1_555

#END
