
#######################################################################
#
#                 Cambridge Crystallographic Data Centre
#                                CCDC 
#
#######################################################################
#
# If this CIF has been generated from an entry in the Cambridge 
# Structural Database, then it will include bibliographic, chemical, 
# crystal, experimental, refinement or atomic coordinate data resulting 
# from the CCDC's data processing and validation procedures.
#
#######################################################################

data_KEPYOU
_symmetry_cell_setting           orthorhombic
_symmetry_space_group_name_H-M   'P b c n'
_symmetry_Int_Tables_number      60
_space_group_name_Hall           '-P 2n 2ab'
loop_
_symmetry_equiv_pos_site_id
_symmetry_equiv_pos_as_xyz
1 x,y,z
2 1/2-x,1/2-y,1/2+z
3 -x,y,1/2-z
4 1/2+x,1/2-y,-z
5 -x,-y,-z
6 1/2+x,1/2+y,1/2-z
7 x,-y,1/2+z
8 1/2-x,1/2+y,z
_cell_length_a                   12.533(4)
_cell_length_b                   15.705(5)
_cell_length_c                   15.200(5)
_cell_angle_alpha                90
_cell_angle_beta                 90
_cell_angle_gamma                90
_cell_volume                     2991.83
loop_
_atom_site_label
_atom_site_type_symbol
_atom_site_fract_x
_atom_site_fract_y
_atom_site_fract_z
Cd1 Cd 0.67969(4) 0.28362(3) 0.07954(3)
O1 O 0.7047(3) 0.1369(2) 0.0828(3)
O2 O 0.5408(3) 0.1844(2) 0.0818(3)
O3 O 0.6217(4) 0.4062(3) 0.0217(3)
O4 O 0.6874(4) 0.3243(2) -0.0838(3)
N1 N 0.4744(4) -0.2127(3) 0.1316(3)
H1 H 0.4166 -0.2392 0.1451
N2 N 0.6430(4) -0.1929(3) 0.0944(4)
N3 N 0.6408(4) 0.6796(3) -0.2797(3)
N4 N 0.6202(5) 0.7015(3) -0.1358(4)
H2 H 0.6121 0.7285 -0.0870
C1 C 0.6059(5) 0.1235(4) 0.0869(4)
C2 C 0.5654(5) 0.0349(4) 0.1014(4)
C3 C 0.4579(5) 0.0227(4) 0.1251(4)
H3 H 0.4131 0.0695 0.1314
C4 C 0.4186(5) -0.0578(4) 0.1390(4)
H4 H 0.3481 -0.0664 0.1558
C5 C 0.4874(5) -0.1254(4) 0.1272(4)
C6 C 0.5674(6) -0.2484(4) 0.1112(4)
H5 H 0.5779 -0.3070 0.1091
C7 C 0.5934(5) -0.1139(4) 0.1030(4)
C8 C 0.6342(5) -0.0325(3) 0.0905(4)
H6 H 0.7052 -0.0239 0.0753
C9 C 0.6496(5) 0.3939(4) -0.0571(4)
C10 C 0.6406(5) 0.4667(4) -0.1205(4)
C11 C 0.6520(5) 0.4536(4) -0.2110(4)
H7 H 0.6624 0.3986 -0.2318
C12 C 0.6481(5) 0.5196(4) -0.2697(4)
H8 H 0.6516 0.5097 -0.3300
C13 C 0.6389(5) 0.6022(4) -0.2364(4)
C14 C 0.6286(6) 0.7360(4) -0.2167(5)
H9 H 0.6260 0.7943 -0.2270
C15 C 0.6270(5) 0.6150(4) -0.1466(4)
C16 C 0.6270(5) 0.5485(4) -0.0862(4)
H10 H 0.6183 0.5580 -0.0263
Cd1G Cd 0.82031(4) -0.21638(3) 0.07954(3)
Cd1F Cd 0.67969(4) 0.71638(3) -0.42046(3)
N2G N 0.8570(4) 0.3071(3) 0.0944(4)
N3F N 0.6408(4) 0.3204(3) 0.2203(3)
loop_
_geom_bond_atom_site_label_1
_geom_bond_atom_site_label_2
_geom_bond_site_symmetry_1
_geom_bond_site_symmetry_2
Cd1 O1 1_555 1_555
O1 C1 1_555 1_555
O2 Cd1 1_555 1_555
O3 Cd1 1_555 1_555
O4 Cd1 1_555 1_555
N1 H1 1_555 1_555
N2 C6 1_555 1_555
N3 C13 1_555 1_555
N4 H2 1_555 1_555
C1 O2 1_555 1_555
C2 C1 1_555 1_555
C3 C2 1_555 1_555
H3 C3 1_555 1_555
C4 C3 1_555 1_555
H4 C4 1_555 1_555
C5 N1 1_555 1_555
C6 N1 1_555 1_555
H5 C6 1_555 1_555
C7 N2 1_555 1_555
C8 C2 1_555 1_555
H6 C8 1_555 1_555
C9 O3 1_555 1_555
C10 C9 1_555 1_555
C11 C10 1_555 1_555
H7 C11 1_555 1_555
C12 C11 1_555 1_555
H8 C12 1_555 1_555
C13 C12 1_555 1_555
C14 N3 1_555 1_555
H9 C14 1_555 1_555
C15 N4 1_555 1_555
C16 C10 1_555 1_555
H10 C16 1_555 1_555
Cd1G N2 1_555 1_555
Cd1F N3 1_555 1_555
N2G Cd1 1_555 1_555
N3F Cd1 1_555 1_555
O4 C9 1_555 1_555
N4 C14 1_555 1_555
C4 C5 1_555 1_555
C5 C7 1_555 1_555
C7 C8 1_555 1_555
C13 C15 1_555 1_555
C15 C16 1_555 1_555

#END
