
#######################################################################
#
#                 Cambridge Crystallographic Data Centre
#                                CCDC 
#
#######################################################################
#
# If this CIF has been generated from an entry in the Cambridge 
# Structural Database, then it will include bibliographic, chemical, 
# crystal, experimental, refinement or atomic coordinate data resulting 
# from the CCDC's data processing and validation procedures.
#
#######################################################################

data_KEQDER
_symmetry_cell_setting           tetragonal
_symmetry_space_group_name_H-M   'I 4/m m m'
_symmetry_Int_Tables_number      139
_space_group_name_Hall           '-I 4 2'
loop_
_symmetry_equiv_pos_site_id
_symmetry_equiv_pos_as_xyz
1 x,y,z
2 -y,x,z
3 y,-x,z
4 y,x,-z
5 1/2+x,1/2+y,1/2+z
6 1/2-y,1/2+x,1/2+z
7 1/2+y,1/2-x,1/2+z
8 1/2+y,1/2+x,1/2-z
9 -x,-y,z
10 -x,y,-z
11 x,-y,-z
12 -y,-x,-z
13 1/2-x,1/2-y,1/2+z
14 1/2-x,1/2+y,1/2-z
15 1/2+x,1/2-y,1/2-z
16 1/2-y,1/2-x,1/2-z
17 -x,-y,-z
18 y,-x,-z
19 -y,x,-z
20 -y,-x,z
21 1/2-x,1/2-y,1/2-z
22 1/2+y,1/2-x,1/2-z
23 1/2-y,1/2+x,1/2-z
24 1/2-y,1/2-x,1/2+z
25 x,y,-z
26 x,-y,z
27 -x,y,z
28 y,x,z
29 1/2+x,1/2+y,1/2-z
30 1/2+x,1/2-y,1/2+z
31 1/2-x,1/2+y,1/2+z
32 1/2+y,1/2+x,1/2+z
_cell_length_a                   18.765(3)
_cell_length_b                   18.765(3)
_cell_length_c                   46.463(12)
_cell_angle_alpha                90
_cell_angle_beta                 90
_cell_angle_gamma                90
_cell_volume                     16360.8
loop_
_atom_site_label
_atom_site_type_symbol
_atom_site_fract_x
_atom_site_fract_y
_atom_site_fract_z
Zn1 Zn 0.28747(3) 0.28747(3) 0.225609(14)
O1 O 0.2627(2) 0.36901(17) 0.25106(8)
C1 C 0.2013(5) 0.5000 0.33478(14)
C2 C 0.2100(3) 0.4367(3) 0.32092(9)
H1 H 0.2035 0.3934 0.3312
C3 C 0.2282(3) 0.4343(3) 0.29185(10)
C4 C 0.2395(4) 0.5000 0.27841(15)
H2 H 0.2557 0.5000 0.2590
C5 C 0.1699(7) 0.5000 0.38975(17)
C6 C 0.1826(6) 0.5000 0.36412(16)
C7 C 0.1487(9) 0.5000 0.42008(19)
O2 O 0.3363(2) 0.3363(2) 0.19307(8)
C8 C 0.0853(8) 0.5000 0.47303(15)
C9 C 0.1277(7) 0.4407(5) 0.43230(16)
H3 H 0.1325 0.3968 0.4223
C10 C 0.0983(6) 0.4416(5) 0.45983(15)
H4 H 0.0875 0.3977 0.4690
C11 C 0.0347(10) 0.5000 0.5000
C12 C 0.2339(3) 0.3660(4) 0.27683(12)
O3 O 0.2090(3) 0.3113(2) 0.28874(7)
Zn1J Zn 0.28747(3) 0.71253(3) 0.774391(14)
Zn1C Zn 0.28747(3) 0.28747(3) 0.774391(14)
Zn1H Zn -0.28747(3) 0.71253(3) 0.225609(14)
Zn1O Zn 0.21253(3) 0.21253(3) 0.274391(14)
Zn1E Zn 0.21253(3) 0.78747(3) 0.725609(14)
Zn1L Zn 0.21253(3) 0.21253(3) 0.725609(14)
Zn1G Zn -0.21253(3) 0.78747(3) 0.274391(14)
Zn1A Zn -0.28747(3) 0.28747(3) 0.225609(14)
Zn1N Zn -0.21253(3) 0.21253(3) 0.274391(14)
Zn1K Zn -0.28747(3) 0.71253(3) 0.774391(14)
Zn1D Zn -0.21253(3) 0.78747(3) 0.725609(14)
Zn1I Zn -0.28747(3) 0.28747(3) 0.774391(14)
Zn1F Zn -0.21253(3) 0.21253(3) 0.725609(14)
Zn1B Zn 0.28747(3) 0.71253(3) 0.225609(14)
Zn1M Zn 0.21253(3) 0.78747(3) 0.274391(14)
O1J O 0.2627(2) 0.63099(17) 0.74894(8)
O1X O 0.2627(2) 0.36901(17) 0.74894(8)
O1H O -0.2627(2) 0.63099(17) 0.25106(8)
O1Z O -0.2627(2) 0.36901(17) 0.25106(8)
O1P O -0.2627(2) 0.63099(17) 0.74894(8)
O1I O -0.2627(2) 0.36901(17) 0.74894(8)
O1Y O 0.2627(2) 0.63099(17) 0.25106(8)
O1AA O 0.36901(17) 0.2627(2) 0.25106(8)
O1Q O 0.36901(17) 0.7373(2) 0.74894(8)
O1C O 0.36901(17) 0.2627(2) 0.74894(8)
O1S O -0.36901(17) 0.7373(2) 0.25106(8)
C1J C 0.2013(5) 0.5000 0.66522(14)
C1H C -0.2013(5) 0.5000 0.33478(14)
C1I C -0.2013(5) 0.5000 0.66522(14)
C2X C 0.2100(3) 0.4367(3) 0.67908(9)
C2J C 0.2100(3) 0.5633(3) 0.67908(9)
C2Z C -0.2100(3) 0.4367(3) 0.32092(9)
C2H C -0.2100(3) 0.5633(3) 0.32092(9)
C2I C -0.2100(3) 0.4367(3) 0.67908(9)
C2P C -0.2100(3) 0.5633(3) 0.67908(9)
C2Y C 0.2100(3) 0.5633(3) 0.32092(9)
H1X H 0.2035 0.3934 0.6688
H1J H 0.2035 0.6066 0.6688
H1Z H -0.2035 0.3934 0.3312
H1H H -0.2035 0.6066 0.3312
H1I H -0.2035 0.3934 0.6688
H1P H -0.2035 0.6066 0.6688
H1Y H 0.2035 0.6066 0.3312
C3X C 0.2282(3) 0.4343(3) 0.70815(10)
C3J C 0.2282(3) 0.5657(3) 0.70815(10)
C3Z C -0.2282(3) 0.4343(3) 0.29185(10)
C3H C -0.2282(3) 0.5657(3) 0.29185(10)
C3I C -0.2282(3) 0.4343(3) 0.70815(10)
C3P C -0.2282(3) 0.5657(3) 0.70815(10)
C3Y C 0.2282(3) 0.5657(3) 0.29185(10)
C4J C 0.2395(4) 0.5000 0.72159(15)
C4H C -0.2395(4) 0.5000 0.27841(15)
C4I C -0.2395(4) 0.5000 0.72159(15)
H2J H 0.2557 0.5000 0.7410
H2H H -0.2557 0.5000 0.2590
H2I H -0.2557 0.5000 0.7410
C5J C 0.1699(7) 0.5000 0.61025(17)
C5H C -0.1699(7) 0.5000 0.38975(17)
C5I C -0.1699(7) 0.5000 0.61025(17)
C6J C 0.1826(6) 0.5000 0.63588(16)
C6H C -0.1826(6) 0.5000 0.36412(16)
C6I C -0.1826(6) 0.5000 0.63588(16)
C7J C 0.1487(9) 0.5000 0.57992(19)
C7H C -0.1487(9) 0.5000 0.42008(19)
C7I C -0.1487(9) 0.5000 0.57992(19)
O2J O 0.3363(2) 0.6637(2) 0.80693(8)
O2C O 0.3363(2) 0.3363(2) 0.80693(8)
O2H O -0.3363(2) 0.6637(2) 0.19307(8)
C8J C 0.0853(8) 0.5000 0.52697(15)
C8H C -0.0853(8) 0.5000 0.47303(15)
C8I C -0.0853(8) 0.5000 0.52697(15)
C9X C 0.1277(7) 0.4407(5) 0.56770(16)
C9J C 0.1277(7) 0.5593(5) 0.56770(16)
C9Z C -0.1277(7) 0.4407(5) 0.43230(16)
C9H C -0.1277(7) 0.5593(5) 0.43230(16)
C9I C -0.1277(7) 0.4407(5) 0.56770(16)
C9P C -0.1277(7) 0.5593(5) 0.56770(16)
C9Y C 0.1277(7) 0.5593(5) 0.43230(16)
H3J H 0.1325 0.6032 0.5777
H3X H 0.1325 0.3968 0.5777
H3H H -0.1325 0.6032 0.4223
H3Z H -0.1325 0.3968 0.4223
H3P H -0.1325 0.6032 0.5777
H3I H -0.1325 0.3968 0.5777
H3Y H 0.1325 0.6032 0.4223
C10X C 0.0983(6) 0.4416(5) 0.54017(15)
C10J C 0.0983(6) 0.5584(5) 0.54017(15)
C10Z C -0.0983(6) 0.4416(5) 0.45983(15)
C10H C -0.0983(6) 0.5584(5) 0.45983(15)
C10I C -0.0983(6) 0.4416(5) 0.54017(15)
C10P C -0.0983(6) 0.5584(5) 0.54017(15)
C10Y C 0.0983(6) 0.5584(5) 0.45983(15)
H4J H 0.0875 0.6023 0.5310
H4X H 0.0875 0.3977 0.5310
H4H H -0.0875 0.6023 0.4690
H4Z H -0.0875 0.3977 0.4690
H4P H -0.0875 0.6023 0.5310
H4I H -0.0875 0.3977 0.5310
H4Y H 0.0875 0.6023 0.4690
C11H C -0.0347(10) 0.5000 0.5000
C12J C 0.2339(3) 0.6340(4) 0.72317(12)
C12X C 0.2339(3) 0.3660(4) 0.72317(12)
C12H C -0.2339(3) 0.6340(4) 0.27683(12)
C12Z C -0.2339(3) 0.3660(4) 0.27683(12)
C12P C -0.2339(3) 0.6340(4) 0.72317(12)
C12I C -0.2339(3) 0.3660(4) 0.72317(12)
C12Y C 0.2339(3) 0.6340(4) 0.27683(12)
O3J O 0.2090(3) 0.6887(2) 0.71126(7)
O3X O 0.2090(3) 0.3113(2) 0.71126(7)
O3H O -0.2090(3) 0.6887(2) 0.28874(7)
O3Z O -0.2090(3) 0.3113(2) 0.28874(7)
O3P O -0.2090(3) 0.6887(2) 0.71126(7)
O3I O -0.2090(3) 0.3113(2) 0.71126(7)
O3Y O 0.2090(3) 0.6887(2) 0.28874(7)
O3T O 0.2910(3) 0.1887(2) 0.21126(7)
O3O O 0.1887(2) 0.2910(3) 0.21126(7)
O3DA O 0.2910(3) 0.8113(2) 0.78874(7)
O3E O 0.1887(2) 0.7090(3) 0.78874(7)
O3L O 0.2910(3) 0.1887(2) 0.78874(7)
O3W O 0.1887(2) 0.2910(3) 0.78874(7)
O3BA O -0.2910(3) 0.8113(2) 0.21126(7)
O3G O -0.1887(2) 0.7090(3) 0.21126(7)
loop_
_geom_bond_atom_site_label_1
_geom_bond_atom_site_label_2
_geom_bond_site_symmetry_1
_geom_bond_site_symmetry_2
Zn1 O1 1_555 1_555
O1 C12 1_555 1_555
C1 C2 1_555 1_555
C2 H1 1_555 1_555
C3 C2 1_555 1_555
C4 C3 1_555 1_555
H2 C4 1_555 1_555
C5 C6 1_555 1_555
C6 C1 1_555 1_555
C7 C5 1_555 1_555
O2 Zn1 1_555 1_555
C8 C10 1_555 1_555
C9 C7 1_555 1_555
H3 C9 1_555 1_555
C10 C9 1_555 1_555
H4 C10 1_555 1_555
C11 C8 1_555 1_555
C12 C3 1_555 1_555
O3 C12 1_555 1_555
Zn1J O1J 1_555 1_555
Zn1C O1X 1_555 1_555
Zn1H O1H 1_555 1_555
Zn1O O3 1_555 1_555
Zn1E O3J 1_555 1_555
Zn1L O3X 1_555 1_555
Zn1G O3H 1_555 1_555
Zn1A O1Z 1_555 1_555
Zn1N O3Z 1_555 1_555
Zn1K O1P 1_555 1_555
Zn1D O3P 1_555 1_555
Zn1I O1I 1_555 1_555
Zn1F O3I 1_555 1_555
Zn1B O1Y 1_555 1_555
Zn1M O3Y 1_555 1_555
O1J C12J 1_555 1_555
O1X C12X 1_555 1_555
O1H C12H 1_555 1_555
O1Z C12Z 1_555 1_555
O1P C12P 1_555 1_555
O1I C12I 1_555 1_555
O1Y C12Y 1_555 1_555
O1AA Zn1 1_555 1_555
O1Q Zn1J 1_555 1_555
O1C Zn1C 1_555 1_555
O1S Zn1H 1_555 1_555
C1J C2X 1_555 1_555
C1H C2Z 1_555 1_555
C1I C2I 1_555 1_555
C2X H1X 1_555 1_555
C2J C1J 1_555 1_555
C2Z H1Z 1_555 1_555
C2H C1H 1_555 1_555
C2I H1I 1_555 1_555
C2P C1I 1_555 1_555
C2Y C1 1_555 1_555
H1J C2J 1_555 1_555
H1H C2H 1_555 1_555
H1P C2P 1_555 1_555
H1Y C2Y 1_555 1_555
C3X C2X 1_555 1_555
C3J C2J 1_555 1_555
C3Z C2Z 1_555 1_555
C3H C2H 1_555 1_555
C3I C2I 1_555 1_555
C3P C2P 1_555 1_555
C3Y C4 1_555 1_555
C4J C3X 1_555 1_555
C4H C3Z 1_555 1_555
C4I C3I 1_555 1_555
H2J C4J 1_555 1_555
H2H C4H 1_555 1_555
H2I C4I 1_555 1_555
C5J C6J 1_555 1_555
C5H C6H 1_555 1_555
C5I C6I 1_555 1_555
C6J C1J 1_555 1_555
C6H C1H 1_555 1_555
C6I C1I 1_555 1_555
C7J C5J 1_555 1_555
C7H C5H 1_555 1_555
C7I C5I 1_555 1_555
O2J Zn1J 1_555 1_555
O2C Zn1C 1_555 1_555
O2H Zn1H 1_555 1_555
C8J C11 1_555 1_555
C8H C10Z 1_555 1_555
C8I C10I 1_555 1_555
C9X C7J 1_555 1_555
C9J C7J 1_555 1_555
C9Z C7H 1_555 1_555
C9H C7H 1_555 1_555
C9I C7I 1_555 1_555
C9P C7I 1_555 1_555
C9Y C7 1_555 1_555
H3J C9J 1_555 1_555
H3X C9X 1_555 1_555
H3H C9H 1_555 1_555
H3Z C9Z 1_555 1_555
H3P C9P 1_555 1_555
H3I C9I 1_555 1_555
H3Y C9Y 1_555 1_555
C10X C8J 1_555 1_555
C10J C8J 1_555 1_555
C10Z C9Z 1_555 1_555
C10H C8H 1_555 1_555
C10I C9I 1_555 1_555
C10P C8I 1_555 1_555
C10Y C8 1_555 1_555
H4J C10J 1_555 1_555
H4X C10X 1_555 1_555
H4H C10H 1_555 1_555
H4Z C10Z 1_555 1_555
H4P C10P 1_555 1_555
H4I C10I 1_555 1_555
H4Y C10Y 1_555 1_555
C11H C11 1_555 1_555
C12J C3J 1_555 1_555
C12X C3X 1_555 1_555
C12H C3H 1_555 1_555
C12Z C3Z 1_555 1_555
C12P C3P 1_555 1_555
C12I C3I 1_555 1_555
C12Y C3Y 1_555 1_555
O3J C12J 1_555 1_555
O3X C12X 1_555 1_555
O3H C12H 1_555 1_555
O3Z C12Z 1_555 1_555
O3P C12P 1_555 1_555
O3I C12I 1_555 1_555
O3Y C12Y 1_555 1_555
O3T Zn1 1_555 1_555
O3O Zn1 1_555 1_555
O3DA Zn1J 1_555 1_555
O3E Zn1J 1_555 1_555
O3L Zn1C 1_555 1_555
O3W Zn1C 1_555 1_555
O3BA Zn1H 1_555 1_555
O3G Zn1H 1_555 1_555
C2Y C3Y 1_555 1_555
C3J C4J 1_555 1_555
C3H C4H 1_555 1_555
C3P C4I 1_555 1_555
C8H C11H 1_555 1_555
C8I C11H 1_555 1_555
C9X C10X 1_555 1_555
C9J C10J 1_555 1_555
C9H C10H 1_555 1_555
C9P C10P 1_555 1_555
C9Y C10Y 1_555 1_555

#END
