
#######################################################################
#
#                 Cambridge Crystallographic Data Centre
#                                CCDC 
#
#######################################################################
#
# If this CIF has been generated from an entry in the Cambridge 
# Structural Database, then it will include bibliographic, chemical, 
# crystal, experimental, refinement or atomic coordinate data resulting 
# from the CCDC's data processing and validation procedures.
#
#######################################################################

data_KEQDOB
_symmetry_cell_setting           hexagonal
_symmetry_space_group_name_H-M   'P 62 2 2'
_symmetry_Int_Tables_number      180
_space_group_name_Hall           "P 62 2' (0,0,4)"
loop_
_symmetry_equiv_pos_site_id
_symmetry_equiv_pos_as_xyz
1 x,y,z
2 -y,x-y,2/3+z
3 -x+y,-x,1/3+z
4 -x,-y,z
5 y,-x+y,2/3+z
6 x-y,x,1/3+z
7 y,x,2/3-z
8 x-y,-y,-z
9 -x,-x+y,1/3-z
10 -y,-x,2/3-z
11 -x+y,y,-z
12 x,x-y,1/3-z
_cell_length_a                   30.0265(11)
_cell_length_b                   30.0265(11)
_cell_length_c                   7.7081(4)
_cell_angle_alpha                90
_cell_angle_beta                 90
_cell_angle_gamma                120
_cell_volume                     6018.49
loop_
_atom_site_label
_atom_site_type_symbol
_atom_site_fract_x
_atom_site_fract_y
_atom_site_fract_z
Zn1 Zn 0.43367(3) 0.56633(3) 0.3333
O1 O 0.3588(2) 0.5403(3) 0.3336(10)
O2 O 0.3382(2) 0.4598(3) 0.3893(10)
Cl1 Cl 0.46359(9) 0.54586(9) 0.5744(3)
N1 N 0.0441(2) 0.4195(3) 0.1391(10)
N2 N 0.1210(3) 0.4317(3) 0.1570(10)
C1 C 0.0000 0.4256(4) 0.1667
H1 H -0.0060 0.4425 0.0676
C2 C 0.0890(3) 0.4448(4) 0.2261(14)
H2 H 0.0961 0.4674 0.3182
C3 C 0.0482(4) 0.3883(4) 0.0112(16)
H3 H 0.0233 0.3669 -0.0679
C4 C 0.0947(4) 0.3960(5) 0.0279(13)
H4 H 0.1084 0.3798 -0.0379
C5 C 0.1737(3) 0.4477(4) 0.2088(12)
C6 C 0.1848(3) 0.4106(4) 0.2588(13)
H5 H 0.1594 0.3762 0.2656
C7 C 0.2350(3) 0.4263(4) 0.2986(12)
H6 H 0.2434 0.4012 0.3265
C8 C 0.2729(4) 0.4757(4) 0.2996(12)
C9 C 0.2589(4) 0.5140(4) 0.2525(12)
H7 H 0.2838 0.5487 0.2521
C10 C 0.2078(4) 0.4988(4) 0.2076(13)
C11 C 0.1970(4) 0.5411(4) 0.1578(17)
H8 H 0.2282 0.5737 0.1645
H9 H 0.1720 0.5409 0.2359
H10 H 0.1839 0.5355 0.0414
C12 C 0.3262(3) 0.4915(4) 0.3458(14)
Zn1H Zn -0.43367(3) 0.13266(4) 0.0000
O1H O -0.3588(2) 0.1815(4) -0.0003(10)
O1I O 0.4597(3) 0.6412(2) 0.3331(10)
O2H O -0.3382(2) 0.1216(4) -0.0560(10)
Cl1I Cl 0.45414(9) 0.53641(9) 0.0923(3)
N1H N -0.0441(2) 0.3754(4) 0.1942(10)
N2H N -0.1210(3) 0.3107(4) 0.1763(10)
H1H H 0.0060 0.4485 0.2657
C2H C -0.0890(3) 0.3558(5) 0.1072(14)
H2H H -0.0961 0.3713 0.0151
C3H C -0.0482(4) 0.3401(6) 0.3221(16)
H3H H -0.0233 0.3436 0.4012
C4H C -0.0947(4) 0.3013(6) 0.3054(13)
H4H H -0.1084 0.2714 0.3712
C5H C -0.1737(3) 0.2740(5) 0.1245(12)
C6H C -0.1848(3) 0.2258(5) 0.0745(13)
H5H H -0.1594 0.2168 0.0677
C7H C -0.2350(3) 0.1913(5) 0.0347(12)
H6H H -0.2434 0.1578 0.0068
C8H C -0.2729(4) 0.2028(6) 0.0337(12)
C9H C -0.2589(4) 0.2551(6) 0.0808(12)
H7H H -0.2838 0.2649 0.0812
C10H C -0.2078(4) 0.2910(6) 0.1257(13)
C11H C -0.1970(4) 0.3441(6) 0.1755(17)
H8H H -0.2282 0.3455 0.1688
H9H H -0.1720 0.3689 0.0974
H10H H -0.1839 0.3516 0.2919
C12H C -0.3262(3) 0.1653(5) -0.0125(14)
loop_
_geom_bond_atom_site_label_1
_geom_bond_atom_site_label_2
_geom_bond_site_symmetry_1
_geom_bond_site_symmetry_2
Zn1 O1 1_555 1_555
O1 C12 1_555 1_555
O2 C12 1_555 1_555
Cl1 Zn1 1_555 1_555
N1 C1 1_555 1_555
N2 C2 1_555 1_555
C1 H1 1_555 1_555
C2 N1 1_555 1_555
H2 C2 1_555 1_555
C3 N1 1_555 1_555
H3 C3 1_555 1_555
C4 N2 1_555 1_555
H4 C4 1_555 1_555
C5 N2 1_555 1_555
C6 C5 1_555 1_555
H5 C6 1_555 1_555
C7 C6 1_555 1_555
H6 C7 1_555 1_555
C8 C7 1_555 1_555
C9 C8 1_555 1_555
H7 C9 1_555 1_555
C10 C5 1_555 1_555
C11 C10 1_555 1_555
H8 C11 1_555 1_555
H9 C11 1_555 1_555
H10 C11 1_555 1_555
C12 C8 1_555 1_555
Zn1H O1H 1_555 1_555
O1H C12H 1_555 1_555
O1I Zn1 1_555 1_555
O2H C12H 1_555 1_555
Cl1I Zn1 1_555 1_555
N1H C1 1_555 1_555
N2H C2H 1_555 1_555
H1H C1 1_555 1_555
C2H N1H 1_555 1_555
H2H C2H 1_555 1_555
C3H N1H 1_555 1_555
H3H C3H 1_555 1_555
C4H N2H 1_555 1_555
H4H C4H 1_555 1_555
C5H N2H 1_555 1_555
C6H C5H 1_555 1_555
H5H C6H 1_555 1_555
C7H C6H 1_555 1_555
H6H C7H 1_555 1_555
C8H C7H 1_555 1_555
C9H C8H 1_555 1_555
H7H C9H 1_555 1_555
C10H C5H 1_555 1_555
C11H C10H 1_555 1_555
H8H C11H 1_555 1_555
H9H C11H 1_555 1_555
H10H C11H 1_555 1_555
C12H C8H 1_555 1_555
C3 C4 1_555 1_555
C9 C10 1_555 1_555
C3H C4H 1_555 1_555
C9H C10H 1_555 1_555

#END
