
#######################################################################
#
#                 Cambridge Crystallographic Data Centre
#                                CCDC 
#
#######################################################################
#
# If this CIF has been generated from an entry in the Cambridge 
# Structural Database, then it will include bibliographic, chemical, 
# crystal, experimental, refinement or atomic coordinate data resulting 
# from the CCDC's data processing and validation procedures.
#
#######################################################################

data_KEQGIX01
_symmetry_cell_setting           monoclinic
_symmetry_space_group_name_H-M   'C 2/c'
_symmetry_Int_Tables_number      15
_space_group_name_Hall           '-C 2yn'
loop_
_symmetry_equiv_pos_site_id
_symmetry_equiv_pos_as_xyz
1 x,y,z
2 1/2+x,1/2+y,z
3 -x,y,1/2-z
4 1/2-x,1/2+y,1/2-z
5 -x,-y,-z
6 1/2-x,1/2-y,-z
7 x,-y,1/2+z
8 1/2+x,1/2-y,1/2+z
_cell_length_a                   20.996(8)
_cell_length_b                   11.835(5)
_cell_length_c                   9.958(4)
_cell_angle_alpha                90
_cell_angle_beta                 110.161(5)
_cell_angle_gamma                90
_cell_volume                     2322.83
loop_
_atom_site_label
_atom_site_type_symbol
_atom_site_fract_x
_atom_site_fract_y
_atom_site_fract_z
Mn1 Mn 0.0000 0.03846(3) -0.2500
O1 O 0.07935(8) 0.03137(11) -0.04137(15)
O2 O 0.07866(9) -0.05321(12) 0.15910(16)
N1 N 0.0000 0.24124(19) -0.2500
N2 N 0.0000 0.84357(19) -0.2500
C1 C 0.10543(11) -0.03001(15) 0.0673(2)
C2 C 0.17543(11) -0.07775(16) 0.0933(2)
C3 C 0.20703(11) -0.14319(18) 0.2148(2)
H1 H 0.1845 -0.1575 0.2786
C4 C 0.27183(13) -0.18751(19) 0.2420(2)
C5 C 0.30495(12) -0.16299(19) 0.1459(3)
H2 H 0.3481 -0.1923 0.1629
C6 C 0.27558(12) -0.09624(19) 0.0258(2)
C7 C 0.21019(13) -0.05524(17) -0.0006(2)
H3 H 0.1894 -0.0122 -0.0821
C8 C 0.30638(16) -0.2588(3) 0.3733(4)
H4 H 0.3355 -0.3131 0.3519
H5 H 0.2727 -0.2975 0.4011
H6 H 0.3328 -0.2110 0.4502
C9 C 0.31529(15) -0.0712(3) -0.0725(3)
H7 H 0.3400 -0.0020 -0.0436
H8 H 0.2845 -0.0641 -0.1691
H9 H 0.3465 -0.1318 -0.0671
C10 C 0.05291(13) 0.30106(18) -0.2567(3)
H10 H 0.0904 0.2618 -0.2619
C11 C 0.05515(13) 0.41843(18) -0.2565(3)
H11 H 0.0934 0.4558 -0.2606
C12 C 0.0000 0.4792(2) -0.2500
C13 C 0.0000 0.6059(2) -0.2500
C14 C -0.01481(12) 0.66713(17) -0.1448(2)
H12 H -0.0256 0.6297 -0.0733
C15 C -0.01335(12) 0.78409(17) -0.1474(2)
H13 H -0.0220 0.8235 -0.0747
Mn1F Mn 0.0000 -0.03846(3) 0.2500
Mn1_2 Mn 0.0000 1.03846(3) -0.2500
Mn1F_2 Mn 0.0000 -0.03846(3) -0.7500
O1B O -0.07935(8) 0.03137(11) -0.45863(15)
O2B O -0.07866(9) -0.05321(12) -0.65910(16)
O2F O 0.07866(9) 0.05321(12) -0.34090(16)
O2D O -0.07866(9) 0.05321(12) -0.15910(16)
N2_2 N 0.0000 -0.15643(19) -0.2500
C1B C -0.10543(11) -0.03001(15) -0.5673(2)
C2B C -0.17543(11) -0.07775(16) -0.5933(2)
C3B C -0.20703(11) -0.14319(18) -0.7148(2)
H1B H -0.1845 -0.1575 -0.7786
C4B C -0.27183(13) -0.18751(19) -0.7420(2)
C5B C -0.30495(12) -0.16299(19) -0.6459(3)
H2B H -0.3481 -0.1923 -0.6629
C6B C -0.27558(12) -0.09624(19) -0.5258(2)
C7B C -0.21019(13) -0.05524(17) -0.4994(2)
H3B H -0.1894 -0.0122 -0.4179
C8B C -0.30638(16) -0.2588(3) -0.8733(4)
H4B H -0.3355 -0.3131 -0.8519
H5B H -0.2727 -0.2975 -0.9011
H6B H -0.3328 -0.2110 -0.9502
C9B C -0.31529(15) -0.0712(3) -0.4275(3)
H7B H -0.3400 -0.0020 -0.4564
H8B H -0.2845 -0.0641 -0.3309
H9B H -0.3465 -0.1318 -0.4329
C10B C -0.05291(13) 0.30106(18) -0.2433(3)
H10B H -0.0904 0.2618 -0.2381
C11B C -0.05515(13) 0.41843(18) -0.2435(3)
H11B H -0.0934 0.4558 -0.2394
C14B C 0.01481(12) 0.66713(17) -0.3552(2)
H12B H 0.0256 0.6297 -0.4267
C15B C 0.01335(12) 0.78409(17) -0.3526(2)
H13B H 0.0220 0.8235 -0.4253
loop_
_geom_bond_atom_site_label_1
_geom_bond_atom_site_label_2
_geom_bond_site_symmetry_1
_geom_bond_site_symmetry_2
Mn1 O1 1_555 1_555
O1 C1 1_555 1_555
O2 C1 1_555 1_555
N1 Mn1 1_555 1_555
N2 C15 1_555 1_555
C1 C2 1_555 1_555
C2 C3 1_555 1_555
C3 H1 1_555 1_555
C4 C3 1_555 1_555
C5 C4 1_555 1_555
H2 C5 1_555 1_555
C6 C5 1_555 1_555
C7 C2 1_555 1_555
H3 C7 1_555 1_555
C8 C4 1_555 1_555
H4 C8 1_555 1_555
H5 C8 1_555 1_555
H6 C8 1_555 1_555
C9 C6 1_555 1_555
H7 C9 1_555 1_555
H8 C9 1_555 1_555
H9 C9 1_555 1_555
C10 N1 1_555 1_555
H10 C10 1_555 1_555
C11 C10 1_555 1_555
H11 C11 1_555 1_555
C12 C11 1_555 1_555
C13 C12 1_555 1_555
C14 C13 1_555 1_555
H12 C14 1_555 1_555
C15 C14 1_555 1_555
H13 C15 1_555 1_555
Mn1F O2 1_555 1_555
Mn1_2 N2 1_555 1_555
Mn1F_2 O2B 1_555 1_555
O1B Mn1 1_555 1_555
O2B C1B 1_555 1_555
O2F Mn1 1_555 1_555
O2D Mn1 1_555 1_555
N2_2 Mn1 1_555 1_555
C1B O1B 1_555 1_555
C2B C1B 1_555 1_555
C3B C2B 1_555 1_555
H1B C3B 1_555 1_555
C4B C3B 1_555 1_555
C5B C4B 1_555 1_555
H2B C5B 1_555 1_555
C6B C5B 1_555 1_555
C7B C2B 1_555 1_555
H3B C7B 1_555 1_555
C8B C4B 1_555 1_555
H4B C8B 1_555 1_555
H5B C8B 1_555 1_555
H6B C8B 1_555 1_555
C9B C6B 1_555 1_555
H7B C9B 1_555 1_555
H8B C9B 1_555 1_555
H9B C9B 1_555 1_555
C10B N1 1_555 1_555
H10B C10B 1_555 1_555
C11B C12 1_555 1_555
H11B C11B 1_555 1_555
C14B C13 1_555 1_555
H12B C14B 1_555 1_555
C15B N2 1_555 1_555
H13B C15B 1_555 1_555
C6 C7 1_555 1_555
C6B C7B 1_555 1_555
C10B C11B 1_555 1_555
C14B C15B 1_555 1_555

#END
