
#######################################################################
#
#                 Cambridge Crystallographic Data Centre
#                                CCDC 
#
#######################################################################
#
# If this CIF has been generated from an entry in the Cambridge 
# Structural Database, then it will include bibliographic, chemical, 
# crystal, experimental, refinement or atomic coordinate data resulting 
# from the CCDC's data processing and validation procedures.
#
#######################################################################

data_KEQGIW
_symmetry_cell_setting           monoclinic
_symmetry_space_group_name_H-M   'C 2/c'
_symmetry_Int_Tables_number      15
_space_group_name_Hall           '-C 2yn'
loop_
_symmetry_equiv_pos_site_id
_symmetry_equiv_pos_as_xyz
1 x,y,z
2 1/2+x,1/2+y,z
3 -x,y,1/2-z
4 1/2-x,1/2+y,1/2-z
5 -x,-y,-z
6 1/2-x,1/2-y,-z
7 x,-y,1/2+z
8 1/2+x,1/2-y,1/2+z
_cell_length_a                   12.726(1)
_cell_length_b                   13.064(1)
_cell_length_c                   6.623(1)
_cell_angle_alpha                90
_cell_angle_beta                 97.350(1)
_cell_angle_gamma                90
_cell_volume                     1092.04
loop_
_atom_site_label
_atom_site_type_symbol
_atom_site_fract_x
_atom_site_fract_y
_atom_site_fract_z
Ag1 Ag 0.0000 0.0000 -1.5000
Ag2 Ag 0.0000 -0.18440(5) -1.2500
O1 O -0.0974(3) -0.2217(3) -1.5742(7)
N1 N -0.1420(4) -0.0559(4) -1.6519(7)
C1 C -0.1609(4) -0.1581(4) -1.6606(8)
Ag3 Ag -0.06572(3) -0.40969(4) -1.57670(7)
O2 O -0.1982(4) 0.1054(3) -1.7173(7)
N2 N -0.3146(4) -0.0221(4) -1.8250(7)
N3 N -0.2545(4) -0.1893(4) -1.7658(8)
H1 H -0.2652(4) -0.2539(4) -1.7831(8)
C2 C -0.2179(5) 0.0116(4) -1.7316(9)
C3 C -0.3324(5) -0.1230(5) -1.8453(9)
O3 O -0.4173(3) -0.1611(3) -1.9283(7)
O1B O 0.0974(3) -0.2217(3) -0.9258(7)
N1D N 0.1420(4) 0.0559(4) -1.3481(7)
Ag3C Ag -0.43428(3) 0.09031(4) -1.92330(7)
Ag3G Ag -0.56572(3) -0.09031(4) -2.07670(7)
N2C N -0.1854(4) -0.5221(4) -1.6750(7)
C2C C -0.2821(5) -0.4884(4) -1.7684(9)
N1C N -0.3580(4) -0.5559(4) -1.8481(7)
Ag1G Ag -0.5000 -0.5000 -2.0000
C1C C -0.3391(4) -0.6581(4) -1.8394(8)
O2C O -0.3018(4) -0.3946(3) -1.7827(7)
C3C C -0.1676(5) -0.6230(5) -1.6547(9)
N3C N -0.2455(4) -0.6893(4) -1.7342(8)
O1C O -0.4026(3) -0.7217(3) -1.9258(7)
H1C H -0.2348(4) -0.7539(4) -1.7169(8)
O3C O -0.0827(3) -0.6611(3) -1.5717(7)
Ag3D Ag 0.06572(3) -0.59031(4) -1.42330(7)
O1D O 0.0974(3) -0.7783(3) -1.4258(7)
N2G N 0.1854(4) -0.4779(4) -1.3250(7)
O3G O 0.0827(3) -0.3389(3) -1.4283(7)
Ag2A Ag -0.5000 -0.68440(5) -2.2500
Ag3C_2 Ag -0.43428(3) -0.90969(4) -1.92330(7)
loop_
_geom_bond_atom_site_label_1
_geom_bond_atom_site_label_2
_geom_bond_site_symmetry_1
_geom_bond_site_symmetry_2
Ag1 N1 1_555 1_555
Ag2 O1 1_555 1_555
O1 C1 1_555 1_555
N1 C1 1_555 1_555
C1 N3 1_555 1_555
Ag3 O1 1_555 1_555
O2 C2 1_555 1_555
N2 C2 1_555 1_555
N3 H1 1_555 1_555
C2 N1 1_555 1_555
C3 N2 1_555 1_555
O3 C3 1_555 1_555
O1B Ag2 1_555 1_555
N1D Ag1 1_555 1_555
Ag3C N2 1_555 1_555
Ag3G O3 1_555 1_555
N2C Ag3 1_555 1_555
C2C N2C 1_555 1_555
N1C C2C 1_555 1_555
Ag1G N1C 1_555 1_555
C1C N1C 1_555 1_555
O2C C2C 1_555 1_555
C3C N2C 1_555 1_555
N3C C1C 1_555 1_555
O1C C1C 1_555 1_555
H1C N3C 1_555 1_555
O3C C3C 1_555 1_555
Ag3D O3C 1_555 1_555
O1D Ag3D 1_555 1_555
N2G Ag3D 1_555 1_555
O3G Ag3 1_555 1_555
Ag2A O1C 1_555 1_555
Ag3C_2 O1C 1_555 1_555
N3 C3 1_555 1_555
C3C N3C 1_555 1_555

#END
