
#######################################################################
#
#                 Cambridge Crystallographic Data Centre
#                                CCDC 
#
#######################################################################
#
# If this CIF has been generated from an entry in the Cambridge 
# Structural Database, then it will include bibliographic, chemical, 
# crystal, experimental, refinement or atomic coordinate data resulting 
# from the CCDC's data processing and validation procedures.
#
#######################################################################

data_KEQJUM
_symmetry_cell_setting           monoclinic
_symmetry_space_group_name_H-M   'P 21/c'
_symmetry_Int_Tables_number      14
_space_group_name_Hall           '-P 2ybc'
loop_
_symmetry_equiv_pos_site_id
_symmetry_equiv_pos_as_xyz
1 x,y,z
2 -x,1/2+y,1/2-z
3 -x,-y,-z
4 x,1/2-y,1/2+z
_cell_length_a                   10.438(2)
_cell_length_b                   13.811(3)
_cell_length_c                   21.254(4)
_cell_angle_alpha                90
_cell_angle_beta                 95.60(3)
_cell_angle_gamma                90
_cell_volume                     3049.34
loop_
_atom_site_label
_atom_site_type_symbol
_atom_site_fract_x
_atom_site_fract_y
_atom_site_fract_z
Gd1 Gd 0.864549(13) 0.806971(9) 0.239530(6)
Gd2 Gd 1.063040(13) 0.566610(9) 0.309110(6)
O1 O 0.7281(2) 0.69028(15) 0.18560(11)
O3 O 0.9017(2) 0.61710(14) 0.22774(10)
O4 O 0.8838(2) 0.96523(14) 0.28304(10)
O5 O 0.7967(2) 1.10975(16) 0.27597(10)
O6 O 1.0447(2) 0.91150(14) 0.19951(9)
O7 O 1.0040(2) 0.77543(15) 0.14890(10)
O8 O 0.9022(2) 0.61236(16) 0.36737(11)
O9 O 0.7984(2) 0.74629(16) 0.33488(10)
O10 O 0.8843(2) 0.49755(16) 0.58597(10)
O11 O 0.7840(2) 0.58166(15) 0.65369(10)
O12 O 1.5537(2) 1.06443(19) 0.10078(12)
H1 H 1.6076 1.0999 0.1196
O13 O 1.5052(3) 1.0351(2) 0.19857(13)
O14 O 0.9077(3) 0.87228(19) 0.57368(11)
H2 H 0.9549 0.8316 0.5920
O15 O 0.9948(3) 0.81699(18) 0.48890(12)
O16 O 0.7723(2) 0.17797(15) 0.14501(10)
O17 O 0.9340(2) 0.25477(15) 0.19693(10)
O18 O 0.6421(2) 0.85936(19) 0.25221(13)
C1 C 0.7912(3) 0.6143(2) 0.19663(13)
C2 C 0.7342(3) 0.5205(2) 0.17353(14)
C3 C 0.6053(3) 0.5184(2) 0.14850(17)
H3 H 0.5569 0.5751 0.1457
C4 C 0.5503(3) 0.4318(2) 0.1280(2)
H4 H 0.4647 0.4303 0.1112
C5 C 0.6217(3) 0.3473(2) 0.13223(17)
H5 H 0.5839 0.2893 0.1181
C6 C 0.7495(3) 0.3484(2) 0.15745(14)
C7 C 0.8055(3) 0.4359(2) 0.17670(13)
H6 H 0.8921 0.4378 0.1919
C8 C 0.8232(3) 0.2564(2) 0.16666(13)
C9 C 0.8255(3) 1.0361(2) 0.30811(14)
C10 C 0.8039(3) 1.0287(2) 0.37559(14)
C11 C 0.7279(3) 1.0962(2) 0.40333(15)
H7 H 0.6876 1.1456 0.3792
C12 C 0.7127(4) 1.0892(3) 0.46735(16)
H8 H 0.6610 1.1336 0.4859
C13 C 0.7740(3) 1.0167(3) 0.50365(15)
H9 H 0.7629 1.0123 0.5464
C14 C 0.8521(3) 0.9502(2) 0.47630(15)
C15 C 0.8653(3) 0.9559(2) 0.41215(14)
H10 H 0.9156 0.9107 0.3935
C16 C 0.9253(3) 0.8728(2) 0.51272(16)
C17 C 1.0724(3) 0.8500(2) 0.15777(13)
C18 C 1.1844(3) 0.8717(2) 0.12172(15)
C19 C 1.1876(3) 0.8362(2) 0.06063(16)
H11 H 1.1229 0.7951 0.0433
C20 C 1.2869(4) 0.8619(3) 0.02580(17)
H12 H 1.2883 0.8386 -0.0152
C21 C 1.3843(3) 0.9220(2) 0.05132(16)
H13 H 1.4509 0.9393 0.0275
C22 C 1.3827(3) 0.9566(2) 0.11286(15)
C23 C 1.2825(3) 0.9310(2) 0.14809(15)
H14 H 1.2813 0.9537 0.1892
C24 C 1.4846(3) 1.0221(2) 0.14208(17)
C25 C 0.8271(3) 0.6808(2) 0.37519(14)
C26 C 0.7672(3) 0.6839(2) 0.43623(14)
C27 C 0.6729(3) 0.7520(2) 0.44538(15)
H15 H 0.6435 0.7931 0.4124
C28 C 0.6223(3) 0.7594(2) 0.50308(16)
H16 H 0.5582 0.8046 0.5085
C29 C 0.6670(3) 0.6994(2) 0.55269(15)
H17 H 0.6345 0.7052 0.5917
C30 C 0.7612(3) 0.6303(2) 0.54373(13)
C31 C 0.8102(3) 0.6221(2) 0.48560(14)
H18 H 0.8718 0.5752 0.4796
C32 C 0.8123(3) 0.5664(2) 0.59731(14)
H19 H 0.604(5) 0.910(2) 0.239(2)
H20 H 0.582(3) 0.818(3) 0.249(2)
Gd1C Gd 0.864549(13) 0.693029(9) 0.739530(6)
Gd1A Gd 1.135451(13) 0.306971(9) 0.260470(6)
Gd2A Gd 0.936960(13) 1.066610(9) 0.190890(6)
Gd2B Gd 0.936960(13) 0.433390(9) 0.690890(6)
Gd2A_2 Gd 0.936960(13) 0.066610(9) 0.190890(6)
O4A O 1.1162(2) 0.46523(14) 0.21696(10)
O5A O 1.2033(2) 0.60975(16) 0.22403(10)
O6A O 0.9553(2) 0.41150(14) 0.30049(9)
O10B O 1.1157(2) 0.50245(16) 0.41403(10)
O11C O 0.7840(2) 0.91834(15) 0.15369(10)
O11B O 1.2160(2) 0.41834(15) 0.34631(10)
O16A O 1.2277(2) 0.67797(15) 0.35499(10)
O17A O 1.0660(2) 0.75477(15) 0.30307(10)
O2 O 0.4510(4) 0.7200(3) 0.2363(2)
H21 H 0.482(8) 0.671(4) 0.257(4)
H22 H 0.3715(16) 0.709(4) 0.228(3)
loop_
_geom_bond_atom_site_label_1
_geom_bond_atom_site_label_2
_geom_bond_site_symmetry_1
_geom_bond_site_symmetry_2
Gd1 O1 1_555 1_555
Gd2 O3 1_555 1_555
O1 C1 1_555 1_555
O2 H21 1_555 1_555
O3 Gd1 1_555 1_555
O4 Gd1 1_555 1_555
O5 C9 1_555 1_555
O6 Gd1 1_555 1_555
O7 Gd1 1_555 1_555
O8 Gd2 1_555 1_555
O9 Gd1 1_555 1_555
O10 C32 1_555 1_555
O11 C32 1_555 1_555
O12 H1 1_555 1_555
O13 C24 1_555 1_555
O14 H2 1_555 1_555
O15 C16 1_555 1_555
O16 C8 1_555 1_555
O17 C8 1_555 1_555
O18 Gd1 1_555 1_555
C1 O3 1_555 1_555
C2 C1 1_555 1_555
C3 C2 1_555 1_555
H3 C3 1_555 1_555
C4 C3 1_555 1_555
H4 C4 1_555 1_555
C5 C4 1_555 1_555
H5 C5 1_555 1_555
C6 C5 1_555 1_555
C7 C2 1_555 1_555
H6 C7 1_555 1_555
C8 C6 1_555 1_555
C9 O4 1_555 1_555
C10 C9 1_555 1_555
C11 C10 1_555 1_555
H7 C11 1_555 1_555
C12 C11 1_555 1_555
H8 C12 1_555 1_555
C13 C12 1_555 1_555
H9 C13 1_555 1_555
C14 C13 1_555 1_555
C15 C10 1_555 1_555
H10 C15 1_555 1_555
C16 O14 1_555 1_555
C17 O6 1_555 1_555
C18 C17 1_555 1_555
C19 C18 1_555 1_555
H11 C19 1_555 1_555
C20 C19 1_555 1_555
H12 C20 1_555 1_555
C21 C20 1_555 1_555
H13 C21 1_555 1_555
C22 C21 1_555 1_555
C23 C18 1_555 1_555
H14 C23 1_555 1_555
C24 O12 1_555 1_555
C25 O8 1_555 1_555
C26 C25 1_555 1_555
C27 C26 1_555 1_555
H15 C27 1_555 1_555
C28 C27 1_555 1_555
H16 C28 1_555 1_555
C29 C28 1_555 1_555
H17 C29 1_555 1_555
C30 C29 1_555 1_555
C31 C26 1_555 1_555
H18 C31 1_555 1_555
C32 C30 1_555 1_555
H19 O18 1_555 1_555
H20 O18 1_555 1_555
H22 O2 1_555 1_555
Gd1C O11 1_555 1_555
Gd1A O17 1_555 1_555
Gd2A O4 1_555 1_555
Gd2B O10 1_555 1_555
Gd2A_2 O16 1_555 1_555
O4A Gd2 1_555 1_555
O5A Gd2 1_555 1_555
O6A Gd2 1_555 1_555
O10B Gd2 1_555 1_555
O11C Gd1 1_555 1_555
O11B Gd2 1_555 1_555
O16A Gd2 1_555 1_555
O17A Gd1 1_555 1_555
Gd2 O17A 1_555 1_555
O5 Gd2A 1_555 1_555
O6 Gd2A 1_555 1_555
O7 C17 1_555 1_555
O9 C25 1_555 1_555
O11 Gd2B 1_555 1_555
O17 Gd2A_2 1_555 1_555
C6 C7 1_555 1_555
C14 C15 1_555 1_555
C14 C16 1_555 1_555
C22 C23 1_555 1_555
C22 C24 1_555 1_555
C30 C31 1_555 1_555
Gd1A O4A 1_555 1_555
Gd1A O6A 1_555 1_555
Gd1A O11B 1_555 1_555
Gd2A O11C 1_555 1_555

#END
