
#######################################################################
#
#                 Cambridge Crystallographic Data Centre
#                                CCDC 
#
#######################################################################
#
# If this CIF has been generated from an entry in the Cambridge 
# Structural Database, then it will include bibliographic, chemical, 
# crystal, experimental, refinement or atomic coordinate data resulting 
# from the CCDC's data processing and validation procedures.
#
#######################################################################

data_KEQLOJ
_symmetry_cell_setting           orthorhombic
_symmetry_space_group_name_H-M   'P 21 21 21'
_symmetry_Int_Tables_number      19
_space_group_name_Hall           'P 2ac 2ab'
loop_
_symmetry_equiv_pos_site_id
_symmetry_equiv_pos_as_xyz
1 x,y,z
2 1/2-x,-y,1/2+z
3 -x,1/2+y,1/2-z
4 1/2+x,1/2-y,-z
_cell_length_a                   8.6919(13)
_cell_length_b                   15.754(2)
_cell_length_c                   16.664(3)
_cell_angle_alpha                90
_cell_angle_beta                 90
_cell_angle_gamma                90
_cell_volume                     2281.84
loop_
_atom_site_label
_atom_site_type_symbol
_atom_site_fract_x
_atom_site_fract_y
_atom_site_fract_z
Cu1 Cu 0.22169(6) 0.45706(3) 0.04572(3)
O1 O 0.4214(3) 0.4667(2) 0.09829(16)
N1 N 0.2643(4) 0.5799(2) -0.03094(19)
N2 N 0.2243(4) 0.6584(2) -0.1406(2)
N3 N -0.0181(4) 0.9452(2) -0.49650(19)
O2 O 0.1168(3) 0.49865(19) 0.14316(17)
C1 C -0.0726(4) 0.8349(2) -0.3953(2)
C2 C -0.2249(5) 0.8185(2) -0.4179(2)
C3 C 0.2150(5) 0.7035(2) -0.2799(2)
H1 H 0.3119 0.6799 -0.2879
N4 N -0.3061(4) 0.8685(2) -0.47237(19)
C4 C 0.3909(4) 0.6332(2) -0.0428(3)
C5 C 0.1435(5) 0.6973(3) -0.2060(3)
C6 C 0.1708(5) 0.5980(3) -0.0894(3)
H2 H 0.0757 0.5718 -0.0957
C7 C 0.5217(5) 0.6456(3) 0.0044(2)
H3 H 0.5384 0.6139 0.0507
C8 C 0.3357(5) 0.5141(3) 0.2259(3)
H4 H 0.3686 0.5292 0.2771
C9 C -0.0017(5) 0.7311(3) -0.1938(3)
H5 H -0.0497 0.7257 -0.1442
C10 C 0.2214(5) 0.9840(2) -0.4566(3)
H6 H 0.3153 1.0123 -0.4553
C11 C 0.0223(4) 0.8978(3) -0.4298(2)
C12 C 0.3673(5) 0.6828(3) -0.1115(2)
C13 C 0.1019(5) 0.9961(3) -0.5128(3)
H7 H 0.1058 1.0342 -0.5554
C14 C -0.3226(5) 0.7513(3) -0.3914(2)
H8 H -0.2969 0.7083 -0.3555
C15 C 0.1416(5) 0.7448(3) -0.3414(2)
H9 H 0.1888 0.7480 -0.3914
C16 C -0.4477(5) 0.8350(3) -0.4775(2)
H10 H -0.5267 0.8568 -0.5089
C17 C -0.4606(5) 0.7621(3) -0.4287(3)
H11 H -0.5472 0.7279 -0.4230
C18 C 0.0678(6) 0.5381(3) 0.2777(3)
H12 H 0.0128 0.5891 0.2647
H13 H 0.1242 0.5462 0.3266
H14 H -0.0037 0.4922 0.2844
C19 C 0.1726(5) 0.9230(3) -0.4048(3)
H15 H 0.2271 0.9016 -0.3612
C20 C 0.1792(5) 0.5169(3) 0.2102(2)
C21 C 0.4699(5) 0.7458(3) -0.1354(3)
H16 H 0.4519 0.7790 -0.1805
C22 C 0.4467(5) 0.4901(3) 0.1703(3)
C23 C -0.0021(5) 0.7821(3) -0.3305(2)
C24 C 0.5999(5) 0.7564(3) -0.0886(3)
H17 H 0.6718 0.7975 -0.1028
C25 C 0.6154(6) 0.4886(3) 0.1951(3)
H18 H 0.6738 0.4572 0.1563
H19 H 0.6249 0.4619 0.2467
H20 H 0.6538 0.5456 0.1981
C26 C -0.0748(5) 0.7730(3) -0.2558(3)
H21 H -0.1728 0.7953 -0.2481
C27 C 0.6255(5) 0.7066(3) -0.0202(3)
H22 H 0.7149 0.7149 0.0094
Cu1B Cu -0.22169(6) 0.95706(3) -0.54572(3)
N3B N 0.0181(4) 0.4452(2) -0.00350(19)
N4B N 0.3061(4) 0.3685(2) -0.02763(19)
loop_
_geom_bond_atom_site_label_1
_geom_bond_atom_site_label_2
_geom_bond_site_symmetry_1
_geom_bond_site_symmetry_2
Cu1 O1 1_555 1_555
O1 C22 1_555 1_555
N1 Cu1 1_555 1_555
N2 C5 1_555 1_555
N3 C11 1_555 1_555
O2 Cu1 1_555 1_555
C1 C2 1_555 1_555
C2 N4 1_555 1_555
C3 H1 1_555 1_555
N4 C16 1_555 1_555
C4 N1 1_555 1_555
C5 C3 1_555 1_555
C6 N1 1_555 1_555
H2 C6 1_555 1_555
C7 C4 1_555 1_555
H3 C7 1_555 1_555
C8 H4 1_555 1_555
C9 C5 1_555 1_555
H5 C9 1_555 1_555
C10 H6 1_555 1_555
C11 C1 1_555 1_555
C12 N2 1_555 1_555
C13 N3 1_555 1_555
H7 C13 1_555 1_555
C14 C2 1_555 1_555
H8 C14 1_555 1_555
C15 C3 1_555 1_555
H9 C15 1_555 1_555
C16 H10 1_555 1_555
C17 C14 1_555 1_555
H11 C17 1_555 1_555
C18 H12 1_555 1_555
H13 C18 1_555 1_555
H14 C18 1_555 1_555
C19 C10 1_555 1_555
H15 C19 1_555 1_555
C20 O2 1_555 1_555
C21 C12 1_555 1_555
H16 C21 1_555 1_555
C22 C8 1_555 1_555
C23 C1 1_555 1_555
C24 C21 1_555 1_555
H17 C24 1_555 1_555
C25 C22 1_555 1_555
H18 C25 1_555 1_555
H19 C25 1_555 1_555
H20 C25 1_555 1_555
C26 C9 1_555 1_555
H21 C26 1_555 1_555
C27 C7 1_555 1_555
H22 C27 1_555 1_555
Cu1B N3 1_555 1_555
N3B Cu1 1_555 1_555
N4B Cu1 1_555 1_555
N2 C6 1_555 1_555
N4 Cu1B 1_555 1_555
C4 C12 1_555 1_555
C8 C20 1_555 1_555
C10 C13 1_555 1_555
C11 C19 1_555 1_555
C15 C23 1_555 1_555
C16 C17 1_555 1_555
C18 C20 1_555 1_555
C23 C26 1_555 1_555
C24 C27 1_555 1_555

#END
