
#######################################################################
#
#                 Cambridge Crystallographic Data Centre
#                                CCDC 
#
#######################################################################
#
# If this CIF has been generated from an entry in the Cambridge 
# Structural Database, then it will include bibliographic, chemical, 
# crystal, experimental, refinement or atomic coordinate data resulting 
# from the CCDC's data processing and validation procedures.
#
#######################################################################

data_KEQMUQ
_symmetry_cell_setting           orthorhombic
_symmetry_space_group_name_H-M   'P c a 21'
_symmetry_Int_Tables_number      29
_space_group_name_Hall           'P 2c -2ac'
loop_
_symmetry_equiv_pos_site_id
_symmetry_equiv_pos_as_xyz
1 x,y,z
2 -x,-y,1/2+z
3 1/2-x,y,1/2+z
4 1/2+x,-y,z
_cell_length_a                   17.1477(15)
_cell_length_b                   15.9787(13)
_cell_length_c                   13.3678(11)
_cell_angle_alpha                90
_cell_angle_beta                 90
_cell_angle_gamma                90
_cell_volume                     3662.75
loop_
_atom_site_label
_atom_site_type_symbol
_atom_site_fract_x
_atom_site_fract_y
_atom_site_fract_z
C1 C 0.6282(3) 0.3591(3) 0.2957(4)
H1 H 0.6799 0.3437 0.2852
C2 C 0.5746(3) 0.2975(3) 0.3160(4)
H2 H 0.5902 0.2419 0.3212
C3 C 0.4980(3) 0.3190(3) 0.3284(5)
H3 H 0.4607 0.2782 0.3416
C4 C 0.4770(3) 0.4021(3) 0.3212(4)
H4 H 0.4250 0.4179 0.3276
C5 C 0.5339(2) 0.4614(2) 0.3043(4)
C6 C 0.5171(2) 0.5539(2) 0.3013(3)
C7 C 0.4421(2) 0.5861(3) 0.3097(3)
H5 H 0.3992 0.5512 0.3178
C8 C 0.4337(2) 0.6719(3) 0.3056(4)
C9 C 0.4971(2) 0.7237(3) 0.2924(4)
H6 H 0.4910 0.7814 0.2876
C10 C 0.5702(2) 0.6874(2) 0.2864(3)
C11 C 0.6439(2) 0.7360(2) 0.2762(3)
C12 C 0.6453(3) 0.8228(3) 0.2810(3)
H7 H 0.5995 0.8529 0.2902
C13 C 0.7160(3) 0.8636(3) 0.2721(4)
H8 H 0.7183 0.9217 0.2758
C14 C 0.7826(2) 0.8182(3) 0.2577(4)
H9 H 0.8307 0.8444 0.2517
C15 C 0.7762(2) 0.7320(3) 0.2523(4)
H10 H 0.8214 0.7010 0.2418
C16 C 0.8160(2) 0.4774(3) 0.1292(3)
C17 C 0.8764(3) 0.4500(3) 0.0546(4)
H11 H 0.8608 0.3977 0.0253
H12 H 0.9256 0.4431 0.0878
H13 H 0.8813 0.4915 0.0032
C18 C 0.8115(3) 0.5472(3) 0.4669(4)
N1 N 0.6095(2) 0.4402(2) 0.2904(3)
N2 N 0.57920(19) 0.60357(19) 0.2903(3)
N3 N 0.70911(17) 0.6913(2) 0.2612(4)
N4 N 0.7688(2) 0.5347(3) 0.4025(4)
S1 S 0.87575(7) 0.56606(7) 0.55515(10)
Cl1 Cl 0.34162(6) 0.71505(8) 0.31750(11)
Cd1 Cd 0.703004(16) 0.542507(17) 0.24886(2)
O1 O 0.82035(19) 0.55112(19) 0.1641(3)
O2 O 0.76264(18) 0.42839(18) 0.1541(3)
S1B S 0.62425(7) 0.56606(7) 0.05515(10)
Cd1B Cd 0.796996(16) 0.542507(17) 0.74886(2)
C19 C 0.5457(2) 0.7713(3) 0.5774(4)
H14 H 0.5909 0.8030 0.5845
C20 C 0.5532(3) 0.6858(3) 0.5681(4)
H15 H 0.6020 0.6605 0.5672
C21 C 0.4857(3) 0.6388(3) 0.5601(4)
H16 H 0.4884 0.5809 0.5542
C22 C 0.4148(3) 0.6784(2) 0.5609(3)
H17 H 0.3690 0.6474 0.5562
C23 C 0.4116(2) 0.7651(2) 0.5687(3)
C24 C 0.3373(2) 0.8129(2) 0.5659(3)
C25 C 0.2646(2) 0.7755(2) 0.5685(3)
H18 H 0.2596 0.7178 0.5755
C26 C 0.2002(2) 0.8259(3) 0.5603(4)
C27 C 0.2078(2) 0.9127(3) 0.5513(4)
H19 H 0.1643 0.9471 0.5450
C28 C 0.2825(2) 0.9453(3) 0.5521(4)
C29 C 0.2981(2) 1.0363(2) 0.5426(4)
C30 C 0.2402(3) 1.0943(3) 0.5201(4)
H20 H 0.1887 1.0775 0.5115
C31 C 0.2609(3) 1.1780(3) 0.5108(4)
H21 H 0.2230 1.2179 0.4967
C32 C 0.3372(3) 1.2018(3) 0.5222(4)
H22 H 0.3521 1.2574 0.5150
C33 C 0.3912(3) 1.1408(3) 0.5448(4)
H23 H 0.4429 1.1566 0.5540
C34 C 0.5673(3) 1.0227(3) 0.3854(4)
C35 C 0.5756(2) 1.0214(3) 0.7250(3)
C36 C 0.6337(3) 1.0491(3) 0.8028(4)
H24 H 0.6781 1.0738 0.7704
H25 H 0.6502 1.0017 0.8414
H26 H 0.6099 1.0896 0.8461
N5 N 0.47739(18) 0.81111(19) 0.5768(3)
N6 N 0.34559(18) 0.89646(19) 0.5595(3)
N7 N 0.3729(2) 1.0600(2) 0.5542(3)
N8 N 0.5342(2) 0.9900(3) 0.4496(4)
S2 S 0.61787(7) 1.06814(7) 0.29598(10)
Cl2 Cl 0.10812(6) 0.78236(7) 0.55925(11)
Cd2 Cd 0.468033(16) 0.959251(17) 0.59466(2)
O3 O 0.52163(18) 1.06966(19) 0.6999(3)
O4 O 0.58216(19) 0.9504(2) 0.6872(3)
S2A S 0.38213(7) 0.93186(7) 0.79598(10)
Cd2A Cd 0.531967(16) 1.040749(17) 0.09466(2)
loop_
_geom_bond_atom_site_label_1
_geom_bond_atom_site_label_2
_geom_bond_site_symmetry_1
_geom_bond_site_symmetry_2
C1 H1 1_555 1_555
C2 C1 1_555 1_555
H2 C2 1_555 1_555
C3 C2 1_555 1_555
H3 C3 1_555 1_555
C4 C3 1_555 1_555
H4 C4 1_555 1_555
C5 C4 1_555 1_555
C6 C5 1_555 1_555
C7 C6 1_555 1_555
H5 C7 1_555 1_555
C8 C7 1_555 1_555
C9 C8 1_555 1_555
H6 C9 1_555 1_555
C10 C9 1_555 1_555
C11 C10 1_555 1_555
C12 C11 1_555 1_555
H7 C12 1_555 1_555
C13 C12 1_555 1_555
H8 C13 1_555 1_555
C14 C13 1_555 1_555
H9 C14 1_555 1_555
C15 C14 1_555 1_555
H10 C15 1_555 1_555
C16 C17 1_555 1_555
C17 H11 1_555 1_555
H12 C17 1_555 1_555
H13 C17 1_555 1_555
C18 N4 1_555 1_555
C19 H14 1_555 1_555
C20 C19 1_555 1_555
H15 C20 1_555 1_555
C21 C20 1_555 1_555
H16 C21 1_555 1_555
C22 C21 1_555 1_555
H17 C22 1_555 1_555
C23 C22 1_555 1_555
C24 C23 1_555 1_555
C25 C24 1_555 1_555
H18 C25 1_555 1_555
C26 C25 1_555 1_555
C27 C26 1_555 1_555
H19 C27 1_555 1_555
C28 C27 1_555 1_555
C29 C28 1_555 1_555
C30 C29 1_555 1_555
H20 C30 1_555 1_555
C31 C30 1_555 1_555
H21 C31 1_555 1_555
C32 C31 1_555 1_555
H22 C32 1_555 1_555
C33 C32 1_555 1_555
H23 C33 1_555 1_555
C34 N8 1_555 1_555
C35 C36 1_555 1_555
C36 H24 1_555 1_555
H25 C36 1_555 1_555
H26 C36 1_555 1_555
N1 C1 1_555 1_555
N2 C6 1_555 1_555
N3 C11 1_555 1_555
N4 Cd1 1_555 1_555
N5 C19 1_555 1_555
N6 C24 1_555 1_555
N7 C29 1_555 1_555
N8 Cd2 1_555 1_555
S1 C18 1_555 1_555
S2 C34 1_555 1_555
Cl1 C8 1_555 1_555
Cl2 C26 1_555 1_555
Cd1 N1 1_555 1_555
Cd2 N5 1_555 1_555
O1 C16 1_555 1_555
O2 C16 1_555 1_555
O3 C35 1_555 1_555
O4 C35 1_555 1_555
S1B Cd1 1_555 1_555
S2A Cd2 1_555 1_555
Cd1B S1 1_555 1_555
Cd2A S2 1_555 1_555
C5 N1 1_555 1_555
C10 N2 1_555 1_555
C15 N3 1_555 1_555
C23 N5 1_555 1_555
C28 N6 1_555 1_555
C33 N7 1_555 1_555
N2 Cd1 1_555 1_555
N3 Cd1 1_555 1_555
N6 Cd2 1_555 1_555
N7 Cd2 1_555 1_555
Cd1 O1 1_555 1_555
Cd1 O2 1_555 1_555
Cd2 O3 1_555 1_555
Cd2 O4 1_555 1_555

#END
