
#######################################################################
#
#                 Cambridge Crystallographic Data Centre
#                                CCDC 
#
#######################################################################
#
# If this CIF has been generated from an entry in the Cambridge 
# Structural Database, then it will include bibliographic, chemical, 
# crystal, experimental, refinement or atomic coordinate data resulting 
# from the CCDC's data processing and validation procedures.
#
#######################################################################

data_KEQNUR
_symmetry_cell_setting           monoclinic
_symmetry_space_group_name_H-M   'P 21/n'
_symmetry_Int_Tables_number      14
_space_group_name_Hall           '-P 2yn'
loop_
_symmetry_equiv_pos_site_id
_symmetry_equiv_pos_as_xyz
1 x,y,z
2 1/2-x,1/2+y,1/2-z
3 -x,-y,-z
4 1/2+x,1/2-y,1/2+z
_cell_length_a                   8.224(1)
_cell_length_b                   24.974(2)
_cell_length_c                   11.737(1)
_cell_angle_alpha                90
_cell_angle_beta                 99.301(1)
_cell_angle_gamma                90
_cell_volume                     2378.92
loop_
_atom_site_label
_atom_site_type_symbol
_atom_site_fract_x
_atom_site_fract_y
_atom_site_fract_z
Zn1 Zn 0.62912(5) 0.122065(14) 0.75352(3)
O1 O 0.6664(3) -0.17895(9) 0.7672(2)
O2 O 0.7334(3) -0.32007(8) 0.7881(2)
O3 O 0.7214(4) -0.08189(10) 0.7209(3)
O4 O 0.7515(3) 0.06087(9) 0.7071(2)
O5 O 0.5571(4) 0.01132(10) 0.7648(3)
C1 C 0.7551(5) -0.15098(13) 0.8563(3)
N1 N 0.4001(4) 0.12654(11) 0.6614(2)
C2 C 0.6821(5) 0.01638(13) 0.7228(3)
C3 C 0.7726(5) -0.27090(13) 0.7745(3)
N2 N -0.3624(4) 0.12598(11) -0.0730(2)
O6 O 0.9024(4) -0.25482(11) 0.7509(3)
C4 C 0.7835(5) -0.09725(14) 0.8309(4)
C5 C -0.3195(5) 0.13168(18) 0.1677(3)
C6 C 0.1168(5) 0.1043(2) 0.6360(4)
H1 H 0.0334 0.0852 0.6625
C7 C -0.3876(5) 0.08754(18) 0.1086(3)
H2 H -0.4205 0.0584 0.1487
C8 C 0.6305(5) -0.23333(13) 0.7861(4)
H3 H 0.5349 -0.2439 0.7310
H4 H 0.6026 -0.2371 0.8629
C9 C -0.1169(5) 0.12957(18) 0.3524(3)
H5 H -0.0792 0.0935 0.3406
H6 H -0.0502 0.1542 0.3157
C10 C 0.8143(6) -0.17082(17) 0.9634(4)
H7 H 0.7976 -0.2066 0.9802
C11 C 0.2745(5) 0.10008(19) 0.6924(4)
H8 H 0.2952 0.0775 0.7561
C12 C 0.7702(7) -0.03135(15) 0.6822(5)
H9 H 0.7518 -0.0314 0.5984
H10 H 0.8875 -0.0270 0.7080
C13 C 0.8676(6) -0.06539(17) 0.9158(5)
H11 H 0.8868 -0.0297 0.9000
C14 C 0.2098(6) 0.1623(2) 0.5064(4)
H12 H 0.1917 0.1838 0.4409
C15 C 0.0798(5) 0.13605(18) 0.5411(3)
C16 C -0.2738(6) 0.17246(19) 0.1032(4)
H13 H -0.2261 0.2030 0.1396
C17 C -0.4070(5) 0.08640(16) -0.0099(3)
H14 H -0.4540 0.0561 -0.0479
C18 C -0.2964(5) 0.1350(2) 0.2968(3)
H15 H -0.3602 0.1069 0.3258
H16 H -0.3384 0.1692 0.3189
C19 C -0.0953(6) 0.1412(2) 0.4790(4)
H17 H -0.1334 0.1774 0.4896
H18 H -0.1646 0.1169 0.5143
C20 C 0.3673(6) 0.15715(18) 0.5674(4)
H19 H 0.4530 0.1756 0.5422
C21 C -0.2975(6) 0.16899(17) -0.0150(3)
H20 H -0.2669 0.1979 -0.0567
C22 C 0.9241(7) -0.0858(2) 1.0245(6)
H21 H 0.9790 -0.0635 1.0817
C23 C 0.8999(7) -0.1373(2) 1.0475(5)
H22 H 0.9405 -0.1509 1.1203
Zn1_2 Zn -0.37088(5) 0.122065(14) -0.24648(3)
Zn1A Zn 0.87088(5) -0.377935(14) 0.74648(3)
O2A O 0.7666(3) 0.17993(8) 0.7119(2)
N2_2 N 0.6376(4) 0.12598(11) 0.9270(2)
loop_
_geom_bond_atom_site_label_1
_geom_bond_atom_site_label_2
_geom_bond_site_symmetry_1
_geom_bond_site_symmetry_2
Zn1 O4 1_555 1_555
O1 C1 1_555 1_555
O2 C3 1_555 1_555
O3 C4 1_555 1_555
O4 C2 1_555 1_555
O5 C2 1_555 1_555
C1 C4 1_555 1_555
N1 Zn1 1_555 1_555
C2 C12 1_555 1_555
C3 O6 1_555 1_555
N2 C17 1_555 1_555
C4 C13 1_555 1_555
C5 C7 1_555 1_555
C6 H1 1_555 1_555
C7 H2 1_555 1_555
C8 O1 1_555 1_555
H3 C8 1_555 1_555
H4 C8 1_555 1_555
C9 H5 1_555 1_555
H6 C9 1_555 1_555
C10 C1 1_555 1_555
H7 C10 1_555 1_555
C11 N1 1_555 1_555
H8 C11 1_555 1_555
C12 O3 1_555 1_555
H9 C12 1_555 1_555
H10 C12 1_555 1_555
C13 H11 1_555 1_555
C14 H12 1_555 1_555
C15 C6 1_555 1_555
C16 C5 1_555 1_555
H13 C16 1_555 1_555
C17 C7 1_555 1_555
H14 C17 1_555 1_555
C18 C5 1_555 1_555
H15 C18 1_555 1_555
H16 C18 1_555 1_555
C19 C9 1_555 1_555
H17 C19 1_555 1_555
H18 C19 1_555 1_555
C20 N1 1_555 1_555
H19 C20 1_555 1_555
C21 N2 1_555 1_555
H20 C21 1_555 1_555
C22 C13 1_555 1_555
H21 C22 1_555 1_555
C23 C10 1_555 1_555
H22 C23 1_555 1_555
Zn1_2 N2 1_555 1_555
Zn1A O2 1_555 1_555
O2A Zn1 1_555 1_555
N2_2 Zn1 1_555 1_555
C3 C8 1_555 1_555
C6 C11 1_555 1_555
C9 C18 1_555 1_555
C14 C15 1_555 1_555
C14 C20 1_555 1_555
C15 C19 1_555 1_555
C16 C21 1_555 1_555
C22 C23 1_555 1_555

#END
