
#######################################################################
#
#                 Cambridge Crystallographic Data Centre
#                                CCDC 
#
#######################################################################
#
# If this CIF has been generated from an entry in the Cambridge 
# Structural Database, then it will include bibliographic, chemical, 
# crystal, experimental, refinement or atomic coordinate data resulting 
# from the CCDC's data processing and validation procedures.
#
#######################################################################

data_KEQNOK
_symmetry_cell_setting           triclinic
_symmetry_space_group_name_H-M   'P -1'
_symmetry_Int_Tables_number      2
_space_group_name_Hall           '-P 1'
loop_
_symmetry_equiv_pos_site_id
_symmetry_equiv_pos_as_xyz
1 x,y,z
2 -x,-y,-z
_cell_length_a                   8.4690(17)
_cell_length_b                   9.0086(18)
_cell_length_c                   13.100(3)
_cell_angle_alpha                100.55(3)
_cell_angle_beta                 103.95(3)
_cell_angle_gamma                97.85(3)
_cell_volume                     936.313
loop_
_atom_site_label
_atom_site_type_symbol
_atom_site_fract_x
_atom_site_fract_y
_atom_site_fract_z
Pr1 Pr 0.250747(16) 0.520682(15) 0.497569(10)
O1 O -0.0542(2) 0.3790(2) 0.40878(15)
O2 O 0.1196(2) 0.3457(3) 0.31034(16)
C1 C -0.0243(3) 0.3243(3) 0.3191(2)
C2 C -0.1659(3) 0.2321(4) 0.2266(2)
H1 H -0.2573 0.2873 0.2197
H2 H -0.2028 0.1352 0.2438
C3 C -0.1267(4) 0.1983(4) 0.1184(2)
H3 H -0.0434 0.1340 0.1223
H4 H -0.0811 0.2940 0.1032
C4 C -0.2795(4) 0.1176(4) 0.0271(2)
H5 H -0.3639 0.1806 0.0259
H6 H -0.3225 0.0208 0.0420
C5 C -0.2487(4) 0.0857(4) -0.0842(2)
H7 H -0.2024 0.1817 -0.0986
H8 H -0.1678 0.0191 -0.0843
C6 C -0.4055(4) 0.0103(4) -0.1736(2)
H9 H -0.4867 0.0764 -0.1727
H10 H -0.4511 -0.0861 -0.1593
C7 C -0.3768(4) -0.0209(4) -0.2854(2)
H11 H -0.3304 0.0750 -0.2999
H12 H -0.2976 -0.0888 -0.2872
C8 C -0.5363(4) -0.0936(3) -0.3718(2)
O3 O -0.6356(4) -0.0039(3) -0.3953(2)
H13 H -0.7177 -0.0606 -0.4441
O4 O -0.5672(3) -0.2307(3) -0.4117(2)
O5 O 0.5353(2) 0.4566(2) 0.59741(15)
O6 O 0.3621(3) 0.5063(3) 0.69220(16)
C9 C 0.4989(3) 0.4754(3) 0.6870(2)
C10 C 0.6191(4) 0.4552(4) 0.7862(2)
H14 H 0.5788 0.3591 0.8031
H15 H 0.7250 0.4487 0.7713
C11 C 0.6442(4) 0.5842(4) 0.8827(2)
H16 H 0.5371 0.5958 0.8939
H17 H 0.6923 0.6790 0.8676
C12 C 0.7550(4) 0.5602(4) 0.9856(2)
H18 H 0.8597 0.5423 0.9729
H19 H 0.7036 0.4686 1.0030
C13 C 0.7890(4) 0.6940(4) 1.0817(2)
H20 H 0.6847 0.7097 1.0962
H21 H 0.8371 0.7864 1.0636
C14 C 0.9048(4) 0.6707(4) 1.1833(2)
H22 H 0.8536 0.5825 1.2044
H23 H 1.0067 0.6487 1.1679
C15 C 0.9452(4) 0.8098(4) 1.2758(2)
H24 H 0.8439 0.8249 1.2950
H25 H 0.9842 0.8994 1.2511
C16 C 1.0737(4) 0.8010(3) 1.3762(2)
O7 O 1.1193(3) 0.9235(3) 1.45007(19)
O8 O 1.1273(3) 0.6825(2) 1.38272(16)
O9 O 0.2304(3) 0.2445(3) 0.5084(2)
H26 H 0.1590 0.1661 0.4893
H27 H 0.3228 0.2296 0.5363
Pr1A Pr -0.250747(16) 0.479318(15) 0.502431(10)
Pr1_2 Pr -0.749253(16) -0.479318(15) -0.502431(10)
Pr1A_2 Pr 0.749253(16) 0.479318(15) 0.502431(10)
Pr1_3 Pr 1.250747(16) 0.520682(15) 1.497569(10)
O1A O 0.0542(2) 0.6210(2) 0.59122(15)
O4_2 O 0.4328(3) 0.7693(3) 0.5883(2)
O5A O 0.4647(2) 0.5434(2) 0.40259(15)
O8_2 O 0.1273(3) 0.6825(2) 0.38272(16)
loop_
_geom_bond_atom_site_label_1
_geom_bond_atom_site_label_2
_geom_bond_site_symmetry_1
_geom_bond_site_symmetry_2
Pr1 O1 1_555 1_555
O1 C1 1_555 1_555
O2 Pr1 1_555 1_555
C1 O2 1_555 1_555
C2 C1 1_555 1_555
H1 C2 1_555 1_555
H2 C2 1_555 1_555
C3 C2 1_555 1_555
H3 C3 1_555 1_555
H4 C3 1_555 1_555
C4 C3 1_555 1_555
H5 C4 1_555 1_555
H6 C4 1_555 1_555
C5 C4 1_555 1_555
H7 C5 1_555 1_555
H8 C5 1_555 1_555
C6 C5 1_555 1_555
H9 C6 1_555 1_555
H10 C6 1_555 1_555
C7 C6 1_555 1_555
H11 C7 1_555 1_555
H12 C7 1_555 1_555
C8 C7 1_555 1_555
O3 C8 1_555 1_555
H13 O3 1_555 1_555
O4 C8 1_555 1_555
O5 Pr1 1_555 1_555
O6 Pr1 1_555 1_555
C9 O5 1_555 1_555
C10 C9 1_555 1_555
H14 C10 1_555 1_555
H15 C10 1_555 1_555
C11 C10 1_555 1_555
H16 C11 1_555 1_555
H17 C11 1_555 1_555
C12 C11 1_555 1_555
H18 C12 1_555 1_555
H19 C12 1_555 1_555
C13 C12 1_555 1_555
H20 C13 1_555 1_555
H21 C13 1_555 1_555
C14 C13 1_555 1_555
H22 C14 1_555 1_555
H23 C14 1_555 1_555
C15 C14 1_555 1_555
H24 C15 1_555 1_555
H25 C15 1_555 1_555
C16 C15 1_555 1_555
O7 C16 1_555 1_555
O8 C16 1_555 1_555
O9 Pr1 1_555 1_555
H26 O9 1_555 1_555
H27 O9 1_555 1_555
Pr1A O1 1_555 1_555
Pr1_2 O4 1_555 1_555
Pr1A_2 O5 1_555 1_555
Pr1_3 O8 1_555 1_555
O1A Pr1 1_555 1_555
O4_2 Pr1 1_555 1_555
O5A Pr1 1_555 1_555
O8_2 Pr1 1_555 1_555
O6 C9 1_555 1_555
Pr1A O1A 1_555 1_555
Pr1A_2 O5A 1_555 1_555

#END
