
#######################################################################
#
#                 Cambridge Crystallographic Data Centre
#                                CCDC 
#
#######################################################################
#
# If this CIF has been generated from an entry in the Cambridge 
# Structural Database, then it will include bibliographic, chemical, 
# crystal, experimental, refinement or atomic coordinate data resulting 
# from the CCDC's data processing and validation procedures.
#
#######################################################################

data_KEQNOL
_symmetry_cell_setting           orthorhombic
_symmetry_space_group_name_H-M   'I b a 2'
_symmetry_Int_Tables_number      45
_space_group_name_Hall           'I 2 -2c'
loop_
_symmetry_equiv_pos_site_id
_symmetry_equiv_pos_as_xyz
1 x,y,z
2 -x,-y,z
3 -x,y,1/2+z
4 x,-y,1/2+z
5 1/2+x,1/2+y,1/2+z
6 1/2-x,1/2-y,1/2+z
7 1/2-x,1/2+y,z
8 1/2+x,1/2-y,z
_cell_length_a                   13.147(2)
_cell_length_b                   41.567(6)
_cell_length_c                   6.986(1)
_cell_angle_alpha                90
_cell_angle_beta                 90
_cell_angle_gamma                90
_cell_volume                     3817.72
loop_
_atom_site_label
_atom_site_type_symbol
_atom_site_fract_x
_atom_site_fract_y
_atom_site_fract_z
Cd1 Cd -0.15705(2) 0.368040(7) -0.91635(10)
O1 O -0.1948(3) 0.67877(9) -0.6494(6)
O2 O -0.2848(3) 0.39174(11) -1.0948(7)
H1 H -0.2939 0.3846 -1.2078
H2 H -0.3443 0.3909 -1.0440
O3 O -0.3118(3) 0.66926(10) -0.3616(6)
O4 O -0.0434(3) 0.63642(8) -0.6738(7)
C1 C -0.0196(4) 0.48334(10) -0.8902(9)
O5 O -0.2437(4) 0.62251(13) -0.1378(8)
O6 O -0.0573(3) 0.32786(9) -0.8149(7)
N1 N -0.0924(3) 0.41979(9) -0.8933(9)
C2 C 0.2704(4) 0.29851(12) -0.6240(8)
C3 C -0.0460(4) 0.54302(10) -0.9099(12)
H3 H -0.1157 0.5398 -0.9220
C4 C -0.1213(5) 0.47643(13) -0.8729(9)
H4 H 0.1680 0.5069 -0.8597
C5 C -0.3349(4) 0.69537(14) -0.4706(8)
C6 C 0.1108(4) 0.31217(13) -0.7671(9)
H5 H 0.1322 0.3111 -0.8999
H6 H 0.0865 0.2911 -0.7297
C7 C -0.1550(4) 0.44476(15) -0.8750(10)
H7 H 0.2244 0.5592 -0.8631
C8 C 0.4171(4) 0.28441(13) -0.4353(12)
H8 H 0.4626 0.2887 -0.3368
O7 O -0.3652(4) 0.63169(15) 0.0761(18)
C9 C -0.0063(4) 0.57399(10) -0.9114(13)
H9 H -0.0509 0.5912 -0.9258
C10 C 0.0257(4) 0.33671(12) -0.7455(8)
C11 C -0.3199(6) 0.63711(19) -0.0758(11)
C12 C 0.3632(5) 0.25111(14) -0.6990(10)
H10 H 0.3720 0.2329 -0.7742
C13 C 0.4293(5) 0.25714(14) -0.5537(10)
H11 H 0.4833 0.2431 -0.5320
C14 C 0.2843(4) 0.27143(13) -0.7360(9)
H12 H 0.2398 0.2671 -0.8363
C15 C -0.3654(5) 0.66509(17) -0.1854(10)
H13 H -0.3607 0.6846 -0.1094
H14 H -0.4367 0.6609 -0.2112
Cd1C Cd -0.15705(2) 0.631960(7) -0.41635(10)
Cd1B Cd 0.15705(2) 0.368040(7) -0.41635(10)
Cd1A Cd 0.15705(2) 0.631960(7) -0.91635(10)
O1A O 0.1948(3) 0.32123(9) -0.6494(6)
O1C O -0.1948(3) 0.32123(9) -1.1494(6)
O1B O 0.1948(3) 0.67877(9) -1.1494(6)
O2A O 0.2848(3) 0.60826(11) -1.0948(7)
H1A H 0.2939 0.6154 -1.2078
H2A H 0.3443 0.6091 -1.0440
O3A O 0.3118(3) 0.33074(10) -0.3616(6)
O3C O -0.3118(3) 0.33074(10) -0.8616(6)
O3B O 0.3118(3) 0.66926(10) -0.8616(6)
O4A O 0.0434(3) 0.36358(8) -0.6738(7)
O4C O -0.0434(3) 0.36358(8) -1.1738(7)
O4B O 0.0434(3) 0.63642(8) -1.1738(7)
C1A C 0.0196(4) 0.51666(10) -0.8902(9)
O5C O -0.2437(4) 0.37749(13) -0.6378(8)
O5B O 0.2437(4) 0.62251(13) -0.6378(8)
O5A O 0.2437(4) 0.37749(13) -0.1378(8)
O6A O 0.0573(3) 0.67214(9) -0.8149(7)
N1A N 0.0924(3) 0.58021(9) -0.8933(9)
C2A C -0.2704(4) 0.70149(12) -0.6240(8)
C3A C 0.0460(4) 0.45698(10) -0.9099(12)
H3A H 0.1157 0.4602 -0.9220
C4A C 0.1213(5) 0.52357(13) -0.8729(9)
H4A H -0.1680 0.4931 -0.8597
C5A C 0.3349(4) 0.30463(14) -0.4706(8)
C6A C -0.1108(4) 0.68783(13) -0.7671(9)
H5A H -0.1322 0.6889 -0.8999
H6A H -0.0865 0.7089 -0.7297
C7A C 0.1550(4) 0.55524(15) -0.8750(10)
H7A H -0.2244 0.4408 -0.8631
C8A C -0.4171(4) 0.71559(13) -0.4353(12)
H8A H -0.4626 0.7113 -0.3368
O7A O 0.3652(4) 0.36831(15) 0.0761(18)
C9A C 0.0063(4) 0.42601(10) -0.9114(13)
H9A H 0.0509 0.4088 -0.9258
C10A C -0.0257(4) 0.66329(12) -0.7455(8)
C11A C 0.3199(6) 0.36289(19) -0.0758(11)
C12A C -0.3632(5) 0.74889(14) -0.6990(10)
H10A H -0.3720 0.7671 -0.7742
C13A C -0.4293(5) 0.74286(14) -0.5537(10)
H11A H -0.4833 0.7569 -0.5320
C14A C -0.2843(4) 0.72857(13) -0.7360(9)
H12A H -0.2398 0.7329 -0.8363
C15A C 0.3654(5) 0.33491(17) -0.1854(10)
H13A H 0.3607 0.3154 -0.1094
H14A H 0.4367 0.3391 -0.2112
O8 O 0.5394(5) 0.5946(2) 0.591(2)
H15 H 0.5274 0.5905 0.7086
H16 H 0.4826 0.5953 0.5335
O9 O 0.6880(11) 0.5477(5) 0.133(4)
H17 H 0.7088 0.5646 0.0745
H18 H 0.6538 0.5544 0.2268
loop_
_geom_bond_atom_site_label_1
_geom_bond_atom_site_label_2
_geom_bond_site_symmetry_1
_geom_bond_site_symmetry_2
Cd1 O2 1_555 1_555
O1 Cd1C 1_555 1_555
O2 H1 1_555 1_555
H2 O2 1_555 1_555
O3 C5 1_555 1_555
O4 Cd1C 1_555 1_555
C1 C4 1_555 1_555
O5 C11 1_555 1_555
O6 Cd1 1_555 1_555
N1 Cd1 1_555 1_555
C2 C14 1_555 1_555
C3 H3 1_555 1_555
C4 C7 1_555 1_555
H4 C4A 1_555 1_555
C5 C2A 1_555 1_555
C6 H5 1_555 1_555
H6 C6 1_555 1_555
C7 N1 1_555 1_555
H7 C7A 1_555 1_555
C8 H8 1_555 1_555
O7 C11 1_555 1_555
C9 C3 1_555 1_555
H9 C9 1_555 1_555
C10 O6 1_555 1_555
C11 C15 1_555 1_555
C12 H10 1_555 1_555
C13 C8 1_555 1_555
H11 C13 1_555 1_555
C14 C12 1_555 1_555
H12 C14 1_555 1_555
C15 O3 1_555 1_555
H13 C15 1_555 1_555
H14 C15 1_555 1_555
O8 H15 1_555 1_555
H16 O8 1_555 1_555
O9 H17 1_555 1_555
H18 O9 1_555 1_555
Cd1C O3 1_555 1_555
Cd1B O1A 1_555 1_555
Cd1A O1B 1_555 1_555
O1A C2 1_555 1_555
O1C Cd1 1_555 1_555
O2A Cd1A 1_555 1_555
H1A O2A 1_555 1_555
H2A O2A 1_555 1_555
O3A Cd1B 1_555 1_555
O3C Cd1 1_555 1_555
O3B Cd1A 1_555 1_555
O4A C10 1_555 1_555
O4C Cd1 1_555 1_555
O4B Cd1A 1_555 1_555
C1A C1 1_555 1_555
O5C Cd1 1_555 1_555
O5B Cd1A 1_555 1_555
O5A Cd1B 1_555 1_555
O6A Cd1A 1_555 1_555
N1A C9 1_555 1_555
C2A O1 1_555 1_555
C3A C1 1_555 1_555
H3A C3A 1_555 1_555
C4A C1A 1_555 1_555
H4A C4 1_555 1_555
C5A C2 1_555 1_555
C6A O1 1_555 1_555
H5A C6A 1_555 1_555
H6A C6A 1_555 1_555
C7A N1A 1_555 1_555
H7A C7 1_555 1_555
C8A C5 1_555 1_555
H8A C8A 1_555 1_555
O7A C11A 1_555 1_555
C9A N1 1_555 1_555
H9A C9A 1_555 1_555
C10A O4 1_555 1_555
C11A O5A 1_555 1_555
C12A H10A 1_555 1_555
C13A C8A 1_555 1_555
H11A C13A 1_555 1_555
C14A C2A 1_555 1_555
H12A C14A 1_555 1_555
C15A O3A 1_555 1_555
H13A C15A 1_555 1_555
H14A C15A 1_555 1_555
O5 Cd1C 1_555 1_555
C3 C1A 1_555 1_555
C6 C10 1_555 1_555
C6 O1A 1_555 1_555
C8 C5A 1_555 1_555
C12 C13 1_555 1_555
Cd1B O4A 1_555 1_555
Cd1A N1A 1_555 1_555
O3A C5A 1_555 1_555
O6A C10A 1_555 1_555
C3A C9A 1_555 1_555
C4A C7A 1_555 1_555
C6A C10A 1_555 1_555
C11A C15A 1_555 1_555
C12A C13A 1_555 1_555
C12A C14A 1_555 1_555

#END
