
#######################################################################
#
#                 Cambridge Crystallographic Data Centre
#                                CCDC 
#
#######################################################################
#
# If this CIF has been generated from an entry in the Cambridge 
# Structural Database, then it will include bibliographic, chemical, 
# crystal, experimental, refinement or atomic coordinate data resulting 
# from the CCDC's data processing and validation procedures.
#
#######################################################################

data_KEQNUQ
_symmetry_cell_setting           triclinic
_symmetry_space_group_name_H-M   'P -1'
_symmetry_Int_Tables_number      2
_space_group_name_Hall           '-P 1'
loop_
_symmetry_equiv_pos_site_id
_symmetry_equiv_pos_as_xyz
1 x,y,z
2 -x,-y,-z
_cell_length_a                   5.4005(11)
_cell_length_b                   8.9359(18)
_cell_length_c                   12.019(2)
_cell_angle_alpha                103.17(3)
_cell_angle_beta                 94.31(3)
_cell_angle_gamma                100.11(3)
_cell_volume                     551.966
loop_
_atom_site_label
_atom_site_type_symbol
_atom_site_fract_x
_atom_site_fract_y
_atom_site_fract_z
C1 C 0.0960(4) 0.1645(2) -0.06656(18)
H1 H 0.0303 0.0668 -0.1161
C2 C -0.0269(4) 0.2865(2) -0.07148(18)
H2 H -0.1694 0.2702 -0.1245
C3 C 0.0617(4) 0.4326(2) 0.00230(16)
C4 C 0.2721(5) 0.4456(3) 0.0795(2)
H3 H 0.3366 0.5406 0.1326
C5 C 0.3873(5) 0.3197(3) 0.0787(2)
H4 H 0.5294 0.3327 0.1314
C6 C 0.6301(5) 0.0823(3) 0.2267(2)
C7 C 0.7918(5) 0.1580(3) 0.33915(18)
C8 C 1.0121(7) 0.2602(4) 0.3462(2)
H5 H 1.0645 0.2860 0.2799
C9 C 1.1612(8) 0.3271(5) 0.4506(3)
H6 H 1.3133 0.3965 0.4542
C10 C 1.0840(7) 0.2907(4) 0.5469(2)
C11 C 0.8676(9) 0.1894(6) 0.5431(3)
H7 H 0.8171 0.1634 0.6097
C12 C 0.7202(8) 0.1241(5) 0.4384(3)
H8 H 0.5681 0.0551 0.4355
Cl1 Cl 1.2702(3) 0.37549(16) 0.67857(8)
Cu1 Cu 0.5000 0.0000 0.0000
N1 N 0.3040(3) 0.17955(18) 0.00567(14)
O1 O 0.7137(3) 0.12059(17) 0.13845(12)
O2 O 0.4322(4) -0.0108(3) 0.22212(17)
C1A C -0.0960(4) 0.8355(2) 0.06656(18)
H1A H -0.0303 0.9332 0.1161
C2A C 0.0269(4) 0.7135(2) 0.07148(18)
H2A H 0.1694 0.7298 0.1245
C3A C -0.0617(4) 0.5674(2) -0.00230(16)
C4A C -0.2721(5) 0.5544(3) -0.0795(2)
H3A H -0.3366 0.4594 -0.1326
C5A C -0.3873(5) 0.6803(3) -0.0787(2)
H4A H -0.5294 0.6673 -0.1314
C6A C 0.3699(5) -0.0823(3) -0.2267(2)
C7A C 0.2082(5) -0.1580(3) -0.33915(18)
C8A C -0.0121(7) -0.2602(4) -0.3462(2)
H5A H -0.0645 -0.2860 -0.2799
C9A C -0.1612(8) -0.3271(5) -0.4506(3)
H6A H -0.3133 -0.3965 -0.4542
C10A C -0.0840(7) -0.2907(4) -0.5469(2)
C11A C 0.1324(9) -0.1894(6) -0.5431(3)
H7A H 0.1829 -0.1634 -0.6097
C12A C 0.2798(8) -0.1241(5) -0.4384(3)
H8A H 0.4319 -0.0551 -0.4355
Cl1A Cl -0.2702(3) -0.37549(16) -0.67857(8)
Cu1_2 Cu -0.5000 1.0000 0.0000
N1A N -0.3040(3) 0.82045(18) -0.00567(14)
N1A_2 N 0.6960(3) -0.17955(18) -0.00567(14)
O1A O 0.2863(3) -0.12059(17) -0.13845(12)
O2A O 0.5678(4) 0.0108(3) -0.22212(17)
loop_
_geom_bond_atom_site_label_1
_geom_bond_atom_site_label_2
_geom_bond_site_symmetry_1
_geom_bond_site_symmetry_2
C1 H1 1_555 1_555
C2 C1 1_555 1_555
H2 C2 1_555 1_555
C3 C2 1_555 1_555
C4 C3 1_555 1_555
H3 C4 1_555 1_555
C5 C4 1_555 1_555
H4 C5 1_555 1_555
C6 C7 1_555 1_555
C7 C8 1_555 1_555
C8 H5 1_555 1_555
C9 C8 1_555 1_555
H6 C9 1_555 1_555
C10 C9 1_555 1_555
C11 C10 1_555 1_555
H7 C11 1_555 1_555
C12 C7 1_555 1_555
H8 C12 1_555 1_555
Cl1 C10 1_555 1_555
Cu1 N1 1_555 1_555
N1 C1 1_555 1_555
O1 C6 1_555 1_555
O2 C6 1_555 1_555
C1A H1A 1_555 1_555
C2A C1A 1_555 1_555
H2A C2A 1_555 1_555
C3A C3 1_555 1_555
C4A C3A 1_555 1_555
H3A C4A 1_555 1_555
C5A C4A 1_555 1_555
H4A C5A 1_555 1_555
C6A C7A 1_555 1_555
C7A C8A 1_555 1_555
C8A H5A 1_555 1_555
C9A C8A 1_555 1_555
H6A C9A 1_555 1_555
C10A C9A 1_555 1_555
C11A C10A 1_555 1_555
H7A C11A 1_555 1_555
C12A C7A 1_555 1_555
H8A C12A 1_555 1_555
Cl1A C10A 1_555 1_555
Cu1_2 N1A 1_555 1_555
N1A C1A 1_555 1_555
N1A_2 Cu1 1_555 1_555
O1A Cu1 1_555 1_555
O2A C6A 1_555 1_555
C5 N1 1_555 1_555
C11 C12 1_555 1_555
Cu1 O1 1_555 1_555
C2A C3A 1_555 1_555
C5A N1A 1_555 1_555
C6A O1A 1_555 1_555
C11A C12A 1_555 1_555

#END
