
#######################################################################
#
#                 Cambridge Crystallographic Data Centre
#                                CCDC 
#
#######################################################################
#
# If this CIF has been generated from an entry in the Cambridge 
# Structural Database, then it will include bibliographic, chemical, 
# crystal, experimental, refinement or atomic coordinate data resulting 
# from the CCDC's data processing and validation procedures.
#
#######################################################################

data_KEQNIF
_symmetry_cell_setting           orthorhombic
_symmetry_space_group_name_H-M   'P n a 21'
_symmetry_Int_Tables_number      33
_space_group_name_Hall           'P 2c -2n'
loop_
_symmetry_equiv_pos_site_id
_symmetry_equiv_pos_as_xyz
1 x,y,z
2 -x,-y,1/2+z
3 1/2+x,1/2-y,z
4 1/2-x,1/2+y,1/2+z
_cell_length_a                   16.5398(14)
_cell_length_b                   18.238(2)
_cell_length_c                   3.8367(7)
_cell_angle_alpha                90
_cell_angle_beta                 90
_cell_angle_gamma                90
_cell_volume                     1157.35
loop_
_atom_site_label
_atom_site_type_symbol
_atom_site_fract_x
_atom_site_fract_y
_atom_site_fract_z
Cd1 Cd 0.49400(4) 0.40433(4) 0.2515(5)
Cl1 Cl 0.41270(13) 0.47319(13) -0.2499(18)
Cl2 Cl 0.58132(16) 0.34945(15) -0.2339(17)
N1 N 0.3025(6) 0.2347(6) 0.113(3)
N2 N 0.2212(6) 0.2398(5) 0.213(7)
H1 H 0.1873 0.2041 0.2193
O1 O 0.4149(5) 0.3061(4) 0.211(5)
C1 C 0.3410(7) 0.2996(6) 0.213(8)
C2 C 0.2772(8) 0.3444(7) 0.334(4)
H2 H 0.2824 0.3915 0.4243
C3 C 0.2058(8) 0.3063(7) 0.294(8)
C4 C 0.1222(9) 0.3307(9) 0.391(5)
H3 H 0.1009 0.2987 0.5676
H4 H 0.0880 0.3291 0.1894
H5 H 0.1242 0.3799 0.4794
C5 C 0.3366(9) 0.1661(8) 0.014(4)
C6 C 0.4096(8) 0.1655(7) -0.168(5)
H6 H 0.4369 0.2092 -0.2086
C7 C 0.4418(8) 0.0995(7) -0.288(8)
H7 H 0.4909 0.0990 -0.4064
C8 C 0.4006(8) 0.0352(7) -0.232(12)
H8 H 0.4201 -0.0090 -0.3190
C9 C 0.3279(10) 0.0377(8) -0.039(5)
H9 H 0.3020 -0.0063 0.0130
C10 C 0.2929(9) 0.1034(7) 0.079(4)
H10 H 0.2434 0.1044 0.1934
Cd1_2 Cd 0.49400(4) 0.40433(4) -0.7485(5)
Cd1A Cd 0.50600(4) 0.59567(4) -0.2485(5)
Cl1_2 Cl 0.41270(13) 0.47319(13) 0.7501(18)
Cl1A Cl 0.58730(13) 0.52681(13) 0.2501(18)
Cl2_2 Cl 0.58132(16) 0.34945(15) 0.7661(17)
loop_
_geom_bond_atom_site_label_1
_geom_bond_atom_site_label_2
_geom_bond_site_symmetry_1
_geom_bond_site_symmetry_2
Cd1 Cl1 1_555 1_555
Cl1 Cd1_2 1_555 1_555
Cl2 Cd1 1_555 1_555
N1 N2 1_555 1_555
N2 H1 1_555 1_555
O1 Cd1 1_555 1_555
C1 N1 1_555 1_555
C2 C1 1_555 1_555
H2 C2 1_555 1_555
C3 N2 1_555 1_555
C4 C3 1_555 1_555
H3 C4 1_555 1_555
H4 C4 1_555 1_555
H5 C4 1_555 1_555
C5 N1 1_555 1_555
C6 C5 1_555 1_555
H6 C6 1_555 1_555
C7 C6 1_555 1_555
H7 C7 1_555 1_555
C8 C7 1_555 1_555
H8 C8 1_555 1_555
C9 C8 1_555 1_555
H9 C9 1_555 1_555
C10 C5 1_555 1_555
H10 C10 1_555 1_555
Cd1_2 Cl2 1_555 1_555
Cd1A Cl1 1_555 1_555
Cl1_2 Cd1 1_555 1_555
Cl1A Cd1 1_555 1_555
Cl2_2 Cd1 1_555 1_555
O1 C1 1_555 1_555
C2 C3 1_555 1_555
C9 C10 1_555 1_555
Cd1A Cl1A 1_555 1_555

#END
