
#######################################################################
#
#                 Cambridge Crystallographic Data Centre
#                                CCDC 
#
#######################################################################
#
# If this CIF has been generated from an entry in the Cambridge 
# Structural Database, then it will include bibliographic, chemical, 
# crystal, experimental, refinement or atomic coordinate data resulting 
# from the CCDC's data processing and validation procedures.
#
#######################################################################

data_KEQPED
_symmetry_cell_setting           monoclinic
_symmetry_space_group_name_H-M   'P 21/n'
_symmetry_Int_Tables_number      14
_space_group_name_Hall           '-P 2yn'
loop_
_symmetry_equiv_pos_site_id
_symmetry_equiv_pos_as_xyz
1 x,y,z
2 1/2-x,1/2+y,1/2-z
3 -x,-y,-z
4 1/2+x,1/2-y,1/2+z
_cell_length_a                   7.892(5)
_cell_length_b                   15.994(5)
_cell_length_c                   19.444(5)
_cell_angle_alpha                90
_cell_angle_beta                 101.002(5)
_cell_angle_gamma                90
_cell_volume                     2409.2
loop_
_atom_site_label
_atom_site_type_symbol
_atom_site_fract_x
_atom_site_fract_y
_atom_site_fract_z
Co1 Co 1.02380(3) 0.241712(15) 0.240762(11)
O1 O 1.33177(18) 0.29188(10) 0.14230(7)
O2 O 0.87538(17) 0.14240(11) -0.10678(7)
H1 H 0.7942 0.1659 -0.0941
O3 O 1.62538(17) 0.21753(10) -0.06216(7)
O4 O 1.09617(18) 0.21529(9) 0.14470(6)
O5 O 1.23634(18) 0.32211(9) 0.26038(7)
H2 H 1.2982 0.3147 0.2295
H3 H 1.2008 0.3725 0.2587
N1 N 0.6974(2) 0.43132(10) 0.12344(8)
N2 N 1.3265(2) 0.05496(10) 0.36813(8)
C1 C 1.4171(2) 0.02673(12) 0.43482(10)
N3 N 0.6284(2) 0.08620(11) 0.12584(9)
C2 C 1.3252(2) 0.20873(12) -0.06371(9)
O6 O 1.44268(19) 0.22857(10) -0.16510(7)
N4 N 0.8060(2) 0.16179(11) 0.20358(8)
C3 C 1.0430(2) 0.19258(12) 0.00128(9)
H4 H 0.9482 0.1875 0.0229
N5 N 0.8677(2) 0.34632(11) 0.19563(8)
C4 C 1.0273(2) 0.17225(12) -0.06894(9)
C5 C 1.4775(2) 0.21877(12) -0.10008(9)
N6 N 1.1707(2) 0.13682(10) 0.28882(8)
C6 C 1.3420(2) 0.22717(12) 0.00712(9)
H5 H 1.4482 0.2440 0.0329
C7 C 0.5641(3) 0.04111(12) 0.06244(11)
C8 C 0.5971(2) 0.46590(12) 0.06065(10)
C9 C 1.1671(2) 0.18184(12) -0.10192(9)
H6 H 1.1553 0.1703 -0.1495
C10 C 0.5590(3) 0.41859(12) 0.00009(10)
H7 H 0.5987 0.3639 0.0000
C11 C 1.1998(2) 0.22047(11) 0.03954(9)
C12 C 1.3816(3) -0.05200(12) 0.45826(11)
H8 H 1.3028 -0.0868 0.4302
C13 C 0.7876(3) 0.35900(13) 0.13058(10)
H9 H 0.7925 0.3224 0.0938
C14 C 1.2123(2) 0.24493(11) 0.11528(9)
C15 C 1.2613(3) 0.13273(12) 0.35313(10)
H10 H 1.2784 0.1775 0.3842
C16 C 0.5392(3) 0.11116(16) 0.17630(13)
H11 H 0.4248 0.0988 0.1778
C17 C 0.5380(3) 0.54748(12) 0.06026(10)
H12 H 0.5635 0.5796 0.1008
C18 C 0.8267(3) 0.41359(15) 0.23208(12)
H13 H 0.8652 0.4222 0.2798
C19 C 1.5350(3) 0.07854(12) 0.47584(11)
H14 H 1.5586 0.1311 0.4594
C20 C 1.2739(3) 0.00716(14) 0.30926(11)
H15 H 1.2985 -0.0490 0.3035
C21 C 0.7880(3) 0.11891(14) 0.14479(11)
H16 H 0.8753 0.1120 0.1193
C22 C 1.1793(3) 0.05801(13) 0.26147(11)
H17 H 1.1272 0.0420 0.2164
C23 C 0.6668(3) 0.02737(18) 0.01415(13)
H18 H 0.7803 0.0462 0.0232
C24 C 0.6489(3) 0.15702(15) 0.22330(12)
H19 H 0.6218 0.1817 0.2631
C25 C 0.3962(3) 0.01421(18) 0.04806(13)
H20 H 0.3245 0.0238 0.0800
C26 C 0.7222(4) 0.46603(16) 0.18918(12)
H21 H 0.6760 0.5160 0.2017
Co1C Co 0.52380(3) 0.258288(15) 0.740762(11)
Co1C_2 Co 1.52380(3) 0.258288(15) -0.259238(11)
Co1B Co -0.02380(3) 0.758288(15) -0.240762(11)
Co1B_2 Co 1.97620(3) -0.241712(15) 0.759238(11)
Co1B_3 Co -0.02380(3) -0.241712(15) -0.240762(11)
O1C O 0.83177(18) 0.20812(10) 0.64230(7)
O2C O 0.37538(17) 0.35760(11) 0.39322(7)
H1C H 0.2942 0.3341 0.4059
O3C O 1.12538(17) 0.28247(10) 0.43784(7)
O4C O 0.59617(18) 0.28471(9) 0.64470(6)
O5C O 0.73634(18) 0.17789(9) 0.76038(7)
H2C H 0.7982 0.1853 0.7295
H3C H 0.7008 0.1275 0.7587
N1B N 0.3026(2) 0.56868(10) -0.12344(8)
N2B N 1.6735(2) -0.05496(10) 0.63187(8)
C1B C 1.5829(2) -0.02673(12) 0.56518(10)
N3B N 0.3716(2) -0.08620(11) -0.12584(9)
C2C C 0.8252(2) 0.29127(12) 0.43629(9)
O6C O 0.94268(19) 0.27143(10) 0.33490(7)
O6_2 O 0.44268(19) 0.22857(10) 0.83490(7)
N4B N 0.1940(2) -0.16179(11) -0.20358(8)
N4C N 0.3060(2) 0.33821(11) 0.70358(8)
C3C C 0.5430(2) 0.30742(12) 0.50128(9)
H4C H 0.4482 0.3125 0.5229
N5B N 0.1323(2) 0.65368(11) -0.19563(8)
N5C N 0.3677(2) 0.15368(11) 0.69563(8)
C4C C 0.5273(2) 0.32775(12) 0.43106(9)
C5C C 0.9775(2) 0.28123(12) 0.39992(9)
N6B N 1.8293(2) -0.13682(10) 0.71118(8)
N6C N 0.6707(2) 0.36318(10) 0.78882(8)
C6C C 0.8420(2) 0.27283(12) 0.50712(9)
H5C H 0.9482 0.2560 0.5329
C7B C 0.4359(3) -0.04111(12) -0.06244(11)
C8B C 0.4029(2) 0.53410(12) -0.06065(10)
C9C C 0.6671(2) 0.31816(12) 0.39808(9)
H6C H 0.6553 0.3297 0.3505
C10B C 0.4410(3) 0.58141(12) -0.00009(10)
H7B H 0.4013 0.6361 0.0000
C11C C 0.6998(2) 0.27953(11) 0.53954(9)
C12B C 1.6184(3) 0.05200(12) 0.54174(11)
H8B H 1.6972 0.0868 0.5698
C13B C 0.2124(3) 0.64100(13) -0.13058(10)
H9B H 0.2075 0.6776 -0.0938
C14C C 0.7123(2) 0.25507(11) 0.61528(9)
C15B C 1.7387(3) -0.13273(12) 0.64687(10)
H10B H 1.7216 -0.1775 0.6158
C16B C 0.4608(3) -0.11116(16) -0.17630(13)
H11B H 0.5752 -0.0988 -0.1778
C17B C 0.4620(3) 0.45252(12) -0.06026(10)
H12B H 0.4365 0.4204 -0.1008
C18B C 0.1733(3) 0.58641(15) -0.23208(12)
H13B H 0.1348 0.5778 -0.2798
C19B C 1.4650(3) -0.07854(12) 0.52416(11)
H14B H 1.4414 -0.1311 0.5406
C20B C 1.7261(3) -0.00716(14) 0.69074(11)
H15B H 1.7015 0.0490 0.6965
C21B C 0.2120(3) -0.11891(14) -0.14479(11)
H16B H 0.1247 -0.1120 -0.1193
C22B C 1.8207(3) -0.05801(13) 0.73853(11)
H17B H 1.8728 -0.0420 0.7836
C23B C 0.3332(3) -0.02737(18) -0.01415(13)
H18B H 0.2197 -0.0462 -0.0232
C24B C 0.3511(3) -0.15702(15) -0.22330(12)
H19B H 0.3782 -0.1817 -0.2631
C25B C 0.6038(3) -0.01421(18) -0.04806(13)
H20B H 0.6755 -0.0238 -0.0800
C26B C 0.2778(4) 0.53397(16) -0.18918(12)
H21B H 0.3240 0.4840 -0.2017
loop_
_geom_bond_atom_site_label_1
_geom_bond_atom_site_label_2
_geom_bond_site_symmetry_1
_geom_bond_site_symmetry_2
Co1 O4 1_555 1_555
O1 C14 1_555 1_555
O2 H1 1_555 1_555
O3 C5 1_555 1_555
O4 C14 1_555 1_555
O5 Co1 1_555 1_555
H2 O5 1_555 1_555
H3 O5 1_555 1_555
N1 C8 1_555 1_555
N2 C1 1_555 1_555
C1 C12 1_555 1_555
N3 C7 1_555 1_555
C2 C5 1_555 1_555
O6 C5 1_555 1_555
N4 Co1 1_555 1_555
C3 H4 1_555 1_555
N5 Co1 1_555 1_555
C4 O2 1_555 1_555
N6 Co1 1_555 1_555
C6 C2 1_555 1_555
H5 C6 1_555 1_555
C7 C23 1_555 1_555
C8 C10 1_555 1_555
C9 C2 1_555 1_555
H6 C9 1_555 1_555
C10 H7 1_555 1_555
C11 C3 1_555 1_555
C12 H8 1_555 1_555
C13 N1 1_555 1_555
H9 C13 1_555 1_555
C14 C11 1_555 1_555
C15 N2 1_555 1_555
H10 C15 1_555 1_555
C16 N3 1_555 1_555
H11 C16 1_555 1_555
C17 C8 1_555 1_555
H12 C17 1_555 1_555
C18 N5 1_555 1_555
H13 C18 1_555 1_555
C19 C1 1_555 1_555
H14 C19 1_555 1_555
C20 N2 1_555 1_555
H15 C20 1_555 1_555
C21 N3 1_555 1_555
H16 C21 1_555 1_555
C22 N6 1_555 1_555
H17 C22 1_555 1_555
C23 H18 1_555 1_555
C24 N4 1_555 1_555
H19 C24 1_555 1_555
C25 C7 1_555 1_555
H20 C25 1_555 1_555
C26 N1 1_555 1_555
H21 C26 1_555 1_555
Co1C O4C 1_555 1_555
Co1C_2 O6 1_555 1_555
Co1B N5B 1_555 1_555
Co1B_2 N6B 1_555 1_555
Co1B_3 N4B 1_555 1_555
O1C C14C 1_555 1_555
O2C H1C 1_555 1_555
O3C C5C 1_555 1_555
O4C C14C 1_555 1_555
O5C Co1C 1_555 1_555
H2C O5C 1_555 1_555
H3C O5C 1_555 1_555
N1B C8B 1_555 1_555
N2B C1B 1_555 1_555
C1B C12B 1_555 1_555
N3B C7B 1_555 1_555
C2C C5C 1_555 1_555
O6C Co1 1_555 1_555
O6_2 Co1C 1_555 1_555
N4B C21B 1_555 1_555
N4C Co1C 1_555 1_555
C3C H4C 1_555 1_555
N5B C13B 1_555 1_555
N5C Co1C 1_555 1_555
C4C O2C 1_555 1_555
C5C O6C 1_555 1_555
N6B C15B 1_555 1_555
N6C Co1C 1_555 1_555
C6C C2C 1_555 1_555
H5C C6C 1_555 1_555
C7B C23B 1_555 1_555
C8B C10B 1_555 1_555
C9C C2C 1_555 1_555
H6C C9C 1_555 1_555
C10B C17 1_555 1_555
H7B C10B 1_555 1_555
C11C C3C 1_555 1_555
C12B C19 1_555 1_555
H8B C12B 1_555 1_555
C13B N1B 1_555 1_555
H9B C13B 1_555 1_555
C14C C11C 1_555 1_555
C15B N2B 1_555 1_555
H10B C15B 1_555 1_555
C16B N3B 1_555 1_555
H11B C16B 1_555 1_555
C17B C10 1_555 1_555
H12B C17B 1_555 1_555
C18B N5B 1_555 1_555
H13B C18B 1_555 1_555
C19B C12 1_555 1_555
H14B C19B 1_555 1_555
C20B N2B 1_555 1_555
H15B C20B 1_555 1_555
C21B N3B 1_555 1_555
H16B C21B 1_555 1_555
C22B N6B 1_555 1_555
H17B C22B 1_555 1_555
C23B C25 1_555 1_555
H18B C23B 1_555 1_555
C24B N4B 1_555 1_555
H19B C24B 1_555 1_555
C25B C23 1_555 1_555
H20B C25B 1_555 1_555
C26B N1B 1_555 1_555
H21B C26B 1_555 1_555
N4 C21 1_555 1_555
C3 C4 1_555 1_555
N5 C13 1_555 1_555
C4 C9 1_555 1_555
N6 C15 1_555 1_555
C6 C11 1_555 1_555
C16 C24 1_555 1_555
C18 C26 1_555 1_555
C20 C22 1_555 1_555
C1B C19B 1_555 1_555
C3C C4C 1_555 1_555
C4C C9C 1_555 1_555
C6C C11C 1_555 1_555
C7B C25B 1_555 1_555
C8B C17B 1_555 1_555
C16B C24B 1_555 1_555
C18B C26B 1_555 1_555
C20B C22B 1_555 1_555

#END
