
#######################################################################
#
#                 Cambridge Crystallographic Data Centre
#                                CCDC 
#
#######################################################################
#
# If this CIF has been generated from an entry in the Cambridge 
# Structural Database, then it will include bibliographic, chemical, 
# crystal, experimental, refinement or atomic coordinate data resulting 
# from the CCDC's data processing and validation procedures.
#
#######################################################################

data_KEQPUT
_symmetry_cell_setting           monoclinic
_symmetry_space_group_name_H-M   'P 21/n'
_symmetry_Int_Tables_number      14
_space_group_name_Hall           '-P 2yn'
loop_
_symmetry_equiv_pos_site_id
_symmetry_equiv_pos_as_xyz
1 x,y,z
2 1/2-x,1/2+y,1/2-z
3 -x,-y,-z
4 1/2+x,1/2-y,1/2+z
_cell_length_a                   8.5853(6)
_cell_length_b                   23.0165(15)
_cell_length_c                   18.0631(12)
_cell_angle_alpha                90
_cell_angle_beta                 97.976(2)
_cell_angle_gamma                90
_cell_volume                     3534.8
loop_
_atom_site_label
_atom_site_type_symbol
_atom_site_fract_x
_atom_site_fract_y
_atom_site_fract_z
Na1 Na 0.70732(9) 0.10188(3) 0.27922(4)
O1 O 1.25552(16) 0.18692(6) 0.26778(7)
O2 O 1.09038(17) 0.02163(6) 0.12754(7)
O3 O 1.1851(2) 0.19057(7) 0.01542(8)
O4 O 0.89737(15) 0.02835(6) 0.25629(7)
O5 O 1.42648(15) 0.06855(6) 0.23985(7)
O6 O 1.26219(19) -0.11200(6) 0.29332(9)
O7 O 0.94417(15) 0.14679(6) 0.31850(7)
O8 O 1.39684(16) 0.03554(6) 0.39930(7)
O9 O 1.21467(18) 0.17069(6) 0.55091(8)
O10 O 0.73082(19) 0.13144(7) 0.15531(8)
H1 H 0.762(3) 0.1653(13) 0.1428(15)
O11 O 0.7051(2) 0.03981(7) 0.38319(9)
H2 H 0.622(4) 0.0398(12) 0.3965(15)
O12 O 0.56475(19) 0.17461(7) 0.33246(9)
H3 H 0.473(4) 0.1693(13) 0.3140(16)
N1 N 1.21866(19) 0.18883(7) 0.14214(9)
N2 N 1.1130(2) 0.10795(7) 0.06990(9)
N3 N 1.08591(19) -0.03853(7) 0.29228(9)
N4 N 1.34090(19) -0.02278(7) 0.25967(9)
N5 N 1.07790(19) 0.15668(7) 0.43517(9)
N6 N 1.30516(19) 0.10323(7) 0.47504(8)
C1 C 1.1178(2) 0.10550(8) 0.20630(10)
H5 H 1.020(3) 0.1188(9) 0.2092(11)
C2 C 1.1657(2) 0.06244(7) 0.27168(10)
C3 C 1.1746(2) 0.08991(7) 0.34973(10)
C4 C 1.2061(2) 0.16248(8) 0.20973(10)
C5 C 1.1085(2) 0.07412(8) 0.13278(10)
C6 C 1.1716(2) 0.16474(9) 0.07235(11)
C7 C 1.0363(2) 0.01667(8) 0.26958(10)
C8 C 1.3246(2) 0.03665(8) 0.25814(10)
C9 C 1.2321(2) -0.06083(8) 0.28344(10)
C10 C 1.0600(2) 0.13099(8) 0.36368(10)
C11 C 1.2959(2) 0.07400(8) 0.40603(10)
C12 C 1.2005(2) 0.14539(8) 0.49013(10)
C13 C 1.2906(2) 0.24743(8) 0.14382(12)
H6 H 1.2663 0.2687 0.1885
H7 H 1.2449 0.2695 0.0989
C14 C 1.4667(2) 0.24359(9) 0.14593(12)
H8 H 1.5115 0.2828 0.1478
H9 H 1.4909 0.2236 0.1010
H10 H 1.5121 0.2218 0.1904
C15 C 1.0810(3) 0.08008(10) -0.00427(11)
H11 H 1.0412 0.1097 -0.0419
H12 H 0.9978 0.0504 -0.0033
C16 C 1.2248(3) 0.05178(12) -0.02717(13)
H13 H 1.1978 0.0338 -0.0764
H14 H 1.2637 0.0220 0.0095
H15 H 1.3066 0.0812 -0.0295
C17 C 0.9643(3) -0.08070(9) 0.30716(13)
H16 H 0.8792 -0.0600 0.3280
H17 H 1.0112 -0.1092 0.3449
C18 C 0.8955(3) -0.11260(10) 0.23703(15)
H18 H 0.8141 -0.1395 0.2488
H19 H 0.9788 -0.1344 0.2173
H20 H 0.8492 -0.0845 0.1995
C19 C 1.4867(2) -0.04900(9) 0.24025(12)
H21 H 1.5191 -0.0816 0.2747
H22 H 1.5719 -0.0197 0.2461
C20 C 1.4620(3) -0.07095(14) 0.16066(14)
H23 H 1.5588 -0.0894 0.1493
H24 H 1.4348 -0.0383 0.1265
H25 H 1.3763 -0.0994 0.1547
C21 C 0.9635(3) 0.20086(9) 0.45056(12)
H26 H 0.9526 0.2000 0.5044
H27 H 0.8597 0.1915 0.4219
C22 C 1.0122(3) 0.26139(10) 0.42981(14)
H28 H 0.9322 0.2895 0.4403
H29 H 1.0225 0.2625 0.3765
H30 H 1.1133 0.2713 0.4593
C23 C 1.4419(2) 0.09272(9) 0.53258(11)
H31 H 1.4824 0.0529 0.5268
H32 H 1.4089 0.0957 0.5828
C24 C 1.5710(3) 0.13637(10) 0.52586(13)
H33 H 1.6615 0.1281 0.5638
H34 H 1.5321 0.1756 0.5335
H35 H 1.6031 0.1336 0.4760
C25 C 0.6541(4) 0.10345(12) 0.09102(15)
H36 H 0.6312 0.0631 0.1032
H37 H 0.7222 0.1040 0.0517
H38 H 0.5556 0.1238 0.0734
C26 C 0.8200(3) 0.03035(11) 0.44564(13)
H39 H 0.9243 0.0294 0.4296
H40 H 0.7997 -0.0068 0.4690
H41 H 0.8158 0.0619 0.4818
C27 C 0.5754(3) 0.23455(10) 0.35387(15)
H42 H 0.6763 0.2504 0.3437
H43 H 0.5680 0.2380 0.4073
H44 H 0.4892 0.2563 0.3252
Na1_2 Na 1.70732(9) 0.10188(3) 0.27922(4)
O5_2 O 0.42648(15) 0.06855(6) 0.23985(7)
O13 O 0.8604(2) 0.23619(7) 0.12662(9)
H4 H 0.817(3) 0.2590(13) 0.0948(16)
C28 C 0.9030(3) 0.26516(10) 0.19610(13)
H45 H 0.9754 0.2971 0.1895
H46 H 0.9546 0.2376 0.2330
H47 H 0.8084 0.2807 0.2137
loop_
_geom_bond_atom_site_label_1
_geom_bond_atom_site_label_2
_geom_bond_site_symmetry_1
_geom_bond_site_symmetry_2
Na1 O4 1_555 1_555
O1 C4 1_555 1_555
O2 C5 1_555 1_555
O3 C6 1_555 1_555
O4 C7 1_555 1_555
O5 C8 1_555 1_555
O6 C9 1_555 1_555
O7 Na1 1_555 1_555
O8 C11 1_555 1_555
O9 C12 1_555 1_555
O10 Na1 1_555 1_555
H1 O10 1_555 1_555
O11 Na1 1_555 1_555
H2 O11 1_555 1_555
O12 Na1 1_555 1_555
H3 O12 1_555 1_555
O13 H4 1_555 1_555
N1 C4 1_555 1_555
N2 C5 1_555 1_555
N3 C7 1_555 1_555
N4 C8 1_555 1_555
N5 C10 1_555 1_555
N6 C11 1_555 1_555
C1 H5 1_555 1_555
C2 C1 1_555 1_555
C3 C2 1_555 1_555
C4 C1 1_555 1_555
C5 C1 1_555 1_555
C6 N1 1_555 1_555
C7 C2 1_555 1_555
C8 C2 1_555 1_555
C9 N3 1_555 1_555
C10 O7 1_555 1_555
C11 C3 1_555 1_555
C12 N5 1_555 1_555
C13 N1 1_555 1_555
H6 C13 1_555 1_555
H7 C13 1_555 1_555
C14 C13 1_555 1_555
H8 C14 1_555 1_555
H9 C14 1_555 1_555
H10 C14 1_555 1_555
C15 N2 1_555 1_555
H11 C15 1_555 1_555
H12 C15 1_555 1_555
C16 C15 1_555 1_555
H13 C16 1_555 1_555
H14 C16 1_555 1_555
H15 C16 1_555 1_555
C17 N3 1_555 1_555
H16 C17 1_555 1_555
H17 C17 1_555 1_555
C18 C17 1_555 1_555
H18 C18 1_555 1_555
H19 C18 1_555 1_555
H20 C18 1_555 1_555
C19 N4 1_555 1_555
H21 C19 1_555 1_555
H22 C19 1_555 1_555
C20 C19 1_555 1_555
H23 C20 1_555 1_555
H24 C20 1_555 1_555
H25 C20 1_555 1_555
C21 N5 1_555 1_555
H26 C21 1_555 1_555
H27 C21 1_555 1_555
C22 C21 1_555 1_555
H28 C22 1_555 1_555
H29 C22 1_555 1_555
H30 C22 1_555 1_555
C23 N6 1_555 1_555
H31 C23 1_555 1_555
H32 C23 1_555 1_555
C24 C23 1_555 1_555
H33 C24 1_555 1_555
H34 C24 1_555 1_555
H35 C24 1_555 1_555
C25 O10 1_555 1_555
H36 C25 1_555 1_555
H37 C25 1_555 1_555
H38 C25 1_555 1_555
C26 O11 1_555 1_555
H39 C26 1_555 1_555
H40 C26 1_555 1_555
H41 C26 1_555 1_555
C27 O12 1_555 1_555
H42 C27 1_555 1_555
H43 C27 1_555 1_555
H44 C27 1_555 1_555
C28 O13 1_555 1_555
H45 C28 1_555 1_555
H46 C28 1_555 1_555
H47 C28 1_555 1_555
Na1_2 O5 1_555 1_555
O5_2 Na1 1_555 1_555
N2 C6 1_555 1_555
N4 C9 1_555 1_555
N6 C12 1_555 1_555
C3 C10 1_555 1_555

#END
