
#######################################################################
#
#                 Cambridge Crystallographic Data Centre
#                                CCDC 
#
#######################################################################
#
# If this CIF has been generated from an entry in the Cambridge 
# Structural Database, then it will include bibliographic, chemical, 
# crystal, experimental, refinement or atomic coordinate data resulting 
# from the CCDC's data processing and validation procedures.
#
#######################################################################

data_KEQPON
_symmetry_cell_setting           triclinic
_symmetry_space_group_name_H-M   'P -1'
_symmetry_Int_Tables_number      2
_space_group_name_Hall           '-P 1'
loop_
_symmetry_equiv_pos_site_id
_symmetry_equiv_pos_as_xyz
1 x,y,z
2 -x,-y,-z
_cell_length_a                   8.385(3)
_cell_length_b                   11.397(4)
_cell_length_c                   12.812(5)
_cell_angle_alpha                87.16(3)
_cell_angle_beta                 88.29(3)
_cell_angle_gamma                79.87(4)
_cell_volume                     1203.52
loop_
_atom_site_label
_atom_site_type_symbol
_atom_site_fract_x
_atom_site_fract_y
_atom_site_fract_z
Na1 Na 0.21423(9) 0.80249(7) 0.74640(6)
O1 O 0.26735(17) 1.01884(12) 0.25218(11)
O2 O 0.33358(18) 1.29882(12) 0.49763(11)
O3 O 0.23579(19) 0.93399(13) 0.59935(12)
O4 O 0.55207(16) 1.33490(12) 0.31675(11)
O5 O 0.02585(16) 1.24519(12) 0.33016(11)
O6 O 0.11364(19) 1.62648(13) 0.32587(14)
O7 O 0.57449(16) 1.12315(12) 0.18718(11)
O8 O 0.07615(17) 1.37882(12) 0.12941(11)
O9 O 0.39175(19) 1.22364(14) -0.14136(11)
O10 O 0.0294(2) 0.93479(15) 0.84709(14)
H1 H -0.077(4) 0.938(3) 0.823(3)
O11 O 0.2275(2) 0.65632(16) 0.88120(15)
H2 H 0.121(5) 0.644(3) 0.889(3)
N1 N 0.2494(2) 0.97873(14) 0.42559(13)
N2 N 0.3161(2) 1.10926(14) 0.54941(12)
N3 N 0.3324(2) 1.48201(14) 0.30128(13)
N4 N 0.07229(19) 1.43404(14) 0.34096(13)
N5 N 0.4813(2) 1.17460(15) 0.02381(12)
N6 N 0.2267(2) 1.28902(14) -0.00467(13)
C1 C 0.3519(2) 1.16053(16) 0.36192(14)
H3 H 0.4715 1.1382 0.3498
C2 C 0.2974(2) 1.27217(16) 0.28792(14)
C3 C 0.3201(2) 1.25044(16) 0.17131(14)
C4 C 0.2831(2) 1.05034(16) 0.33944(15)
C5 C 0.3311(2) 1.19739(16) 0.47389(14)
C6 C 0.2656(2) 1.00281(17) 0.52895(15)
C7 C 0.4066(2) 1.36296(17) 0.30767(14)
C8 C 0.1190(2) 1.31681(17) 0.31801(14)
C9 C 0.1689(2) 1.52089(18) 0.32122(17)
C10 C 0.4634(2) 1.17952(16) 0.13304(14)
C11 C 0.2025(2) 1.30922(16) 0.10220(15)
C12 C 0.3689(2) 1.22862(17) -0.04685(15)
C13 C 0.1918(3) 0.86651(19) 0.40549(18)
H4 H 0.2130 0.8109 0.4663
H5 H 0.0751 0.8837 0.3929
H6 H 0.2491 0.8306 0.3439
C14 C 0.3210(3) 1.14105(19) 0.65959(15)
H7 H 0.4059 1.1890 0.6671
H8 H 0.2160 1.1871 0.6804
H9 H 0.3446 1.0681 0.7043
C15 C 0.4372(3) 1.5736(2) 0.2945(2)
H10 H 0.5373 1.5433 0.2558
H11 H 0.3803 1.6459 0.2581
H12 H 0.4635 1.5925 0.3650
C16 C -0.1005(2) 1.4743(2) 0.36702(19)
H13 H -0.1370 1.4180 0.4187
H14 H -0.1150 1.5536 0.3960
H15 H -0.1643 1.4782 0.3037
C17 C 0.6363(3) 1.1100(2) -0.01785(17)
H16 H 0.6335 1.1121 -0.0943
H17 H 0.7253 1.1481 0.0038
H18 H 0.6529 1.0269 0.0093
C18 C 0.0969(3) 1.3413(2) -0.07623(17)
H19 H 0.1335 1.3263 -0.1485
H20 H 0.0008 1.3050 -0.0605
H21 H 0.0698 1.4275 -0.0675
C19 C 0.0449(3) 1.0544(2) 0.86497(19)
H22 H 0.0074 1.0737 0.9363
H23 H -0.0209 1.1087 0.8149
H24 H 0.1587 1.0631 0.8561
C20 C 0.3349(3) 0.5794(2) 0.9461(2)
H25 H 0.2978 0.5877 1.0191
H26 H 0.4434 0.5999 0.9379
H27 H 0.3385 0.4968 0.9267
Na1A Na 0.78577(9) 1.19751(7) 0.25360(6)
Na1A_2 Na -0.21423(9) 1.19751(7) 0.25360(6)
O4A O 0.44793(16) 0.66510(12) 0.68325(11)
O5A O -0.02585(16) 0.75481(12) 0.66984(11)
O7A O 0.42551(16) 0.87685(12) 0.81282(11)
loop_
_geom_bond_atom_site_label_1
_geom_bond_atom_site_label_2
_geom_bond_site_symmetry_1
_geom_bond_site_symmetry_2
Na1 O3 1_555 1_555
O1 C4 1_555 1_555
O2 C5 1_555 1_555
O3 C6 1_555 1_555
O4 C7 1_555 1_555
O5 C8 1_555 1_555
O6 C9 1_555 1_555
O7 C10 1_555 1_555
O8 C11 1_555 1_555
O9 C12 1_555 1_555
O10 Na1 1_555 1_555
H1 O10 1_555 1_555
O11 Na1 1_555 1_555
H2 O11 1_555 1_555
N1 C4 1_555 1_555
N2 C5 1_555 1_555
N3 C7 1_555 1_555
N4 C8 1_555 1_555
N5 C10 1_555 1_555
N6 C11 1_555 1_555
C1 H3 1_555 1_555
C2 C1 1_555 1_555
C3 C2 1_555 1_555
C4 C1 1_555 1_555
C5 C1 1_555 1_555
C6 N1 1_555 1_555
C7 C2 1_555 1_555
C8 C2 1_555 1_555
C9 N3 1_555 1_555
C10 C3 1_555 1_555
C11 C3 1_555 1_555
C12 N5 1_555 1_555
C13 N1 1_555 1_555
H4 C13 1_555 1_555
H5 C13 1_555 1_555
H6 C13 1_555 1_555
C14 N2 1_555 1_555
H7 C14 1_555 1_555
H8 C14 1_555 1_555
H9 C14 1_555 1_555
C15 N3 1_555 1_555
H10 C15 1_555 1_555
H11 C15 1_555 1_555
H12 C15 1_555 1_555
C16 N4 1_555 1_555
H13 C16 1_555 1_555
H14 C16 1_555 1_555
H15 C16 1_555 1_555
C17 N5 1_555 1_555
H16 C17 1_555 1_555
H17 C17 1_555 1_555
H18 C17 1_555 1_555
C18 N6 1_555 1_555
H19 C18 1_555 1_555
H20 C18 1_555 1_555
H21 C18 1_555 1_555
C19 O10 1_555 1_555
H22 C19 1_555 1_555
H23 C19 1_555 1_555
H24 C19 1_555 1_555
C20 O11 1_555 1_555
H25 C20 1_555 1_555
H26 C20 1_555 1_555
H27 C20 1_555 1_555
Na1A O4 1_555 1_555
Na1A_2 O5 1_555 1_555
O4A Na1 1_555 1_555
O5A Na1 1_555 1_555
O7A Na1 1_555 1_555
O7 Na1A 1_555 1_555
N2 C6 1_555 1_555
N4 C9 1_555 1_555
N6 C12 1_555 1_555

#END
