
#######################################################################
#
#                 Cambridge Crystallographic Data Centre
#                                CCDC 
#
#######################################################################
#
# If this CIF has been generated from an entry in the Cambridge 
# Structural Database, then it will include bibliographic, chemical, 
# crystal, experimental, refinement or atomic coordinate data resulting 
# from the CCDC's data processing and validation procedures.
#
#######################################################################

data_KEQPIH
_symmetry_cell_setting           monoclinic
_symmetry_space_group_name_H-M   'C 2/c'
_symmetry_Int_Tables_number      15
_space_group_name_Hall           '-C 2yn'
loop_
_symmetry_equiv_pos_site_id
_symmetry_equiv_pos_as_xyz
1 x,y,z
2 -x,y,1/2-z
3 1/2+x,1/2+y,z
4 1/2-x,1/2+y,1/2-z
5 -x,-y,-z
6 x,-y,1/2+z
7 1/2-x,1/2-y,-z
8 1/2+x,1/2-y,1/2+z
_cell_length_a                   17.559(5)
_cell_length_b                   10.949(5)
_cell_length_c                   30.128(5)
_cell_angle_alpha                90
_cell_angle_beta                 99.951(5)
_cell_angle_gamma                90
_cell_volume                     5705.07
loop_
_atom_site_label
_atom_site_type_symbol
_atom_site_fract_x
_atom_site_fract_y
_atom_site_fract_z
Co1 Co 0.024441(12) 1.02300(2) 0.136400(8)
O1 O -0.07522(7) 0.88637(11) 0.14401(4)
O2 O -0.08366(7) 1.01971(12) 0.08899(5)
O3 O -0.41132(8) 0.65417(13) 0.11204(5)
O4 O -0.33234(9) 0.72458(14) 0.17323(5)
N1 N -0.12834(9) 1.77560(14) 0.26480(5)
N2 N -0.08100(8) 1.30009(13) 0.20520(5)
N3 N 0.13060(9) 0.79918(15) 0.04768(6)
C1 C -0.12948(11) 1.55535(17) 0.27607(6)
N4 N -0.02995(8) 1.13897(14) 0.17730(5)
C2 C -0.11204(9) 0.93586(16) 0.10912(6)
N5 N 0.06249(9) 0.89264(15) 0.09236(6)
C3 C -0.09530(9) 1.42335(15) 0.21762(6)
C4 C 0.19244(11) 0.77392(17) 0.02350(6)
N6 N -0.09679(9) 1.93480(14) 0.30914(5)
C5 C -0.31038(10) 0.78749(16) 0.10132(6)
C6 C -0.35454(10) 0.71659(16) 0.13218(6)
C7 C -0.09216(11) 1.52225(17) 0.18855(6)
C8 C -0.11255(12) 1.19785(17) 0.22172(7)
H1 H -0.1485 1.1963 0.2410
C9 C -0.11451(10) 1.44027(16) 0.26010(6)
H2 H -0.1174 1.3725 0.2784
C10 C -0.19285(10) 0.89242(16) 0.09088(6)
C11 C -0.22503(11) 0.91747(18) 0.04650(6)
H3 H -0.1973 0.9602 0.0279
C12 C -0.10455(10) 1.63760(17) 0.20545(6)
H4 H -0.1012 1.7057 0.1875
C13 C -0.29937(12) 0.8775(2) 0.03057(7)
C14 C -0.12162(10) 1.65382(16) 0.24806(6)
C15 C -0.23568(10) 0.82858(16) 0.11803(6)
H5 H -0.2141 0.8130 0.1479
C16 C -0.17102(11) 1.94956(17) 0.28600(7)
H6 H -0.2026 2.0162 0.2888
C17 C -0.03093(10) 1.25837(16) 0.17895(6)
H7 H -0.0010 1.3086 0.1640
C18 C -0.34268(11) 0.81204(19) 0.05688(7)
H8 H -0.3923 0.7853 0.0450
C19 C 0.26535(11) 0.74832(18) 0.04792(7)
C20 C 0.17667(11) 0.77498(19) -0.02293(7)
H9 H 0.1267 0.7915 -0.0377
C21 C -0.15438(15) 1.5699(2) 0.32121(8)
H10 H -0.2088 1.5537 0.3182
H11 H -0.1440 1.6519 0.3319
H12 H -0.1263 1.5135 0.3423
C22 C 0.12325(11) 0.89960(18) 0.07245(7)
H13 H 0.1570 0.9657 0.0751
C23 C -0.19119(10) 1.85238(17) 0.25848(7)
H14 H -0.2380 1.8402 0.2393
C24 C 0.07091(14) 0.7232(2) 0.05210(9)
H15 H 0.0607 0.6468 0.0389
N7 N -0.33322(13) 0.9077(2) -0.01624(7)
C25 C -0.07358(11) 1.82914(17) 0.29531(7)
H16 H -0.0250 1.7956 0.3055
O5 O -0.29041(12) 0.9370(2) -0.04186(6)
C26 C 0.02953(14) 0.7818(2) 0.07971(9)
H17 H -0.0148 0.7511 0.0887
O6 O -0.40310(13) 0.9045(3) -0.02668(8)
C27 C -0.08095(12) 1.10077(17) 0.20437(7)
H18 H -0.0920 1.0196 0.2099
C28 C -0.07667(16) 1.5136(2) 0.14082(7)
H19 H -0.0219 1.5110 0.1413
H20 H -0.0982 1.5836 0.1240
H21 H -0.1001 1.4407 0.1269
C29 C 0.28087(15) 0.7402(3) 0.09848(8)
H22 H 0.2465 0.6816 0.1081
H23 H 0.3334 0.7150 0.1085
H24 H 0.2727 0.8186 0.1110
Co1B Co 0.524441(12) 1.52300(2) 0.136400(8)
Co1B_2 Co -0.475559(12) 0.52300(2) 0.136400(8)
Co1A Co -0.024441(12) 2.02300(2) 0.363600(8)
Co1F Co 0.475559(12) 0.47700(2) -0.136400(8)
Co1A_2 Co -0.024441(12) 0.02300(2) 0.363600(8)
O1B O 0.42478(7) 1.38637(11) 0.14401(4)
O2B O 0.41634(7) 1.51971(12) 0.08899(5)
O3B O 0.08868(8) 1.15417(13) 0.11204(5)
O3_2 O 0.58868(8) 1.65417(13) 0.11204(5)
O4B O 0.16766(9) 1.22458(14) 0.17323(5)
N1A N 0.12834(9) 0.77560(14) 0.23520(5)
N2A N 0.08100(8) 0.30009(13) 0.29480(5)
N3F N 0.36940(9) 0.70082(15) -0.04768(6)
C1A C 0.12948(11) 0.55535(17) 0.22393(6)
N4A N 0.02995(8) 0.13897(14) 0.32270(5)
N4B N 0.47005(8) 1.63897(14) 0.17730(5)
C2B C 0.38796(9) 1.43586(16) 0.10912(6)
N5F N 0.43751(9) 0.60736(15) -0.09236(6)
N5B N 0.56249(9) 1.39264(15) 0.09236(6)
C3A C 0.09530(9) 0.42335(15) 0.28238(6)
C4F C 0.30756(11) 0.72608(17) -0.02350(6)
N6A N 0.09679(9) 0.93480(14) 0.19086(5)
N6C N 0.59679(9) 1.43480(14) 0.19086(5)
C5B C 0.18962(10) 1.28749(16) 0.10132(6)
C6B C 0.14546(10) 1.21659(16) 0.13218(6)
C7A C 0.09216(11) 0.52225(17) 0.31145(6)
C8A C 0.11255(12) 0.19785(17) 0.27828(7)
H1A H 0.1485 0.1963 0.2590
C9A C 0.11451(10) 0.44027(16) 0.23990(6)
H2A H 0.1174 0.3725 0.2216
C10B C 0.30715(10) 1.39242(16) 0.09088(6)
C11B C 0.27497(11) 1.41747(18) 0.04650(6)
H3B H 0.3027 1.4602 0.0279
C12A C 0.10455(10) 0.63760(17) 0.29455(6)
H4A H 0.1012 0.7057 0.3125
C13B C 0.20063(12) 1.3775(2) 0.03057(7)
C14A C 0.12162(10) 0.65382(16) 0.25194(6)
C15B C 0.26432(10) 1.32858(16) 0.11803(6)
H5B H 0.2859 1.3130 0.1479
C16A C 0.17102(11) 0.94956(17) 0.21400(7)
H6A H 0.2026 1.0162 0.2112
C17A C 0.03093(10) 0.25837(16) 0.32105(6)
H7A H 0.0010 0.3086 0.3360
C18B C 0.15732(11) 1.31204(19) 0.05688(7)
H8B H 0.1077 1.2853 0.0450
C19F C 0.23465(11) 0.75168(18) -0.04792(7)
C20F C 0.32333(11) 0.72502(19) 0.02293(7)
H9F H 0.3733 0.7085 0.0377
C21A C 0.15438(15) 0.5699(2) 0.17879(8)
H10A H 0.2088 0.5537 0.1818
H11A H 0.1440 0.6519 0.1681
H12A H 0.1263 0.5135 0.1577
C22F C 0.37675(11) 0.60040(18) -0.07245(7)
H13F H 0.3430 0.5343 -0.0751
C23A C 0.19119(10) 0.85238(17) 0.24152(7)
H14A H 0.2380 0.8402 0.2607
C24F C 0.42909(14) 0.7768(2) -0.05210(9)
H15F H 0.4393 0.8532 -0.0389
N7B N 0.16678(13) 1.4077(2) -0.01624(7)
C25A C 0.07358(11) 0.82914(17) 0.20469(7)
H16A H 0.0250 0.7956 0.1945
O5B O 0.20959(12) 1.4370(2) -0.04186(6)
C26F C 0.47047(14) 0.7182(2) -0.07971(9)
H17F H 0.5148 0.7489 -0.0887
O6B O 0.09690(13) 1.4045(3) -0.02668(8)
C27A C 0.08095(12) 0.10077(17) 0.29563(7)
H18A H 0.0920 0.0196 0.2901
C28A C 0.07667(16) 0.5136(2) 0.35918(7)
H19A H 0.0219 0.5110 0.3587
H20A H 0.0982 0.5836 0.3760
H21A H 0.1001 0.4407 0.3731
C29F C 0.21913(15) 0.7598(3) -0.09848(8)
H22F H 0.2535 0.8184 -0.1081
H23F H 0.1666 0.7850 -0.1085
H24F H 0.2273 0.6814 -0.1110
loop_
_geom_bond_atom_site_label_1
_geom_bond_atom_site_label_2
_geom_bond_site_symmetry_1
_geom_bond_site_symmetry_2
Co1 O1 1_555 1_555
O1 C2 1_555 1_555
O2 Co1 1_555 1_555
O3 C6 1_555 1_555
O4 C6 1_555 1_555
N1 C14 1_555 1_555
N2 C3 1_555 1_555
N3 C4 1_555 1_555
C1 C9 1_555 1_555
N4 Co1 1_555 1_555
C2 O2 1_555 1_555
N5 Co1 1_555 1_555
C3 C7 1_555 1_555
C4 C19 1_555 1_555
N6 C16 1_555 1_555
C5 C6 1_555 1_555
C7 C12 1_555 1_555
C8 N2 1_555 1_555
H1 C8 1_555 1_555
C9 C3 1_555 1_555
H2 C9 1_555 1_555
C10 C2 1_555 1_555
C11 C10 1_555 1_555
H3 C11 1_555 1_555
C12 H4 1_555 1_555
C13 C11 1_555 1_555
C14 C1 1_555 1_555
C15 C5 1_555 1_555
H5 C15 1_555 1_555
C16 H6 1_555 1_555
C17 N2 1_555 1_555
H7 C17 1_555 1_555
C18 C5 1_555 1_555
H8 C18 1_555 1_555
C19 C29 1_555 1_555
C20 C4 1_555 1_555
H9 C20 1_555 1_555
C21 C1 1_555 1_555
H10 C21 1_555 1_555
H11 C21 1_555 1_555
H12 C21 1_555 1_555
C22 N3 1_555 1_555
H13 C22 1_555 1_555
C23 N1 1_555 1_555
H14 C23 1_555 1_555
C24 N3 1_555 1_555
H15 C24 1_555 1_555
N7 C13 1_555 1_555
C25 N1 1_555 1_555
H16 C25 1_555 1_555
O5 N7 1_555 1_555
C26 N5 1_555 1_555
H17 C26 1_555 1_555
O6 N7 1_555 1_555
C27 N4 1_555 1_555
H18 C27 1_555 1_555
C28 C7 1_555 1_555
H19 C28 1_555 1_555
H20 C28 1_555 1_555
H21 C28 1_555 1_555
C29 H22 1_555 1_555
H23 C29 1_555 1_555
H24 C29 1_555 1_555
Co1B O1B 1_555 1_555
Co1B_2 O3 1_555 1_555
Co1A N6 1_555 1_555
Co1F N5F 1_555 1_555
Co1A_2 N4A 1_555 1_555
O1B C2B 1_555 1_555
O2B Co1B 1_555 1_555
O3B Co1 1_555 1_555
O3_2 Co1B 1_555 1_555
O4B C6B 1_555 1_555
N1A C14A 1_555 1_555
N2A C3A 1_555 1_555
N3F C4F 1_555 1_555
C1A C9A 1_555 1_555
N4A C17A 1_555 1_555
N4B Co1B 1_555 1_555
C2B O2B 1_555 1_555
N5F C22F 1_555 1_555
N5B Co1B 1_555 1_555
C3A C7A 1_555 1_555
C4F C19F 1_555 1_555
N6A Co1 1_555 1_555
N6C Co1B 1_555 1_555
C5B C6B 1_555 1_555
C6B O3B 1_555 1_555
C7A C12A 1_555 1_555
C8A N2A 1_555 1_555
H1A C8A 1_555 1_555
C9A C3A 1_555 1_555
H2A C9A 1_555 1_555
C10B C2B 1_555 1_555
C11B C10B 1_555 1_555
H3B C11B 1_555 1_555
C12A H4A 1_555 1_555
C13B C11B 1_555 1_555
C14A C1A 1_555 1_555
C15B C5B 1_555 1_555
H5B C15B 1_555 1_555
C16A N6A 1_555 1_555
H6A C16A 1_555 1_555
C17A N2A 1_555 1_555
H7A C17A 1_555 1_555
C18B C5B 1_555 1_555
H8B C18B 1_555 1_555
C19F C20 1_555 1_555
C20F C19 1_555 1_555
H9F C20F 1_555 1_555
C21A C1A 1_555 1_555
H10A C21A 1_555 1_555
H11A C21A 1_555 1_555
H12A C21A 1_555 1_555
C22F N3F 1_555 1_555
H13F C22F 1_555 1_555
C23A N1A 1_555 1_555
H14A C23A 1_555 1_555
C24F N3F 1_555 1_555
H15F C24F 1_555 1_555
N7B C13B 1_555 1_555
C25A N1A 1_555 1_555
H16A C25A 1_555 1_555
O5B N7B 1_555 1_555
C26F N5F 1_555 1_555
H17F C26F 1_555 1_555
O6B N7B 1_555 1_555
C27A N4A 1_555 1_555
H18A C27A 1_555 1_555
C28A C7A 1_555 1_555
H19A C28A 1_555 1_555
H20A C28A 1_555 1_555
H21A C28A 1_555 1_555
C29F C19F 1_555 1_555
H22F C29F 1_555 1_555
H23F C29F 1_555 1_555
H24F C29F 1_555 1_555
N4 C17 1_555 1_555
N5 C22 1_555 1_555
N6 C25 1_555 1_555
C8 C27 1_555 1_555
C10 C15 1_555 1_555
C12 C14 1_555 1_555
C13 C18 1_555 1_555
C16 C23 1_555 1_555
C24 C26 1_555 1_555
C4F C20F 1_555 1_555
N6A C25A 1_555 1_555
C8A C27A 1_555 1_555
C10B C15B 1_555 1_555
C12A C14A 1_555 1_555
C13B C18B 1_555 1_555
C16A C23A 1_555 1_555
C24F C26F 1_555 1_555

#END
