
#######################################################################
#
#                 Cambridge Crystallographic Data Centre
#                                CCDC 
#
#######################################################################
#
# If this CIF has been generated from an entry in the Cambridge 
# Structural Database, then it will include bibliographic, chemical, 
# crystal, experimental, refinement or atomic coordinate data resulting 
# from the CCDC's data processing and validation procedures.
#
#######################################################################

data_KEQPAZ
_symmetry_cell_setting           triclinic
_symmetry_space_group_name_H-M   'P -1'
_symmetry_Int_Tables_number      2
_space_group_name_Hall           '-P 1'
loop_
_symmetry_equiv_pos_site_id
_symmetry_equiv_pos_as_xyz
1 x,y,z
2 -x,-y,-z
_cell_length_a                   7.983(3)
_cell_length_b                   8.405(3)
_cell_length_c                   11.311(5)
_cell_angle_alpha                70.74(3)
_cell_angle_beta                 76.57(3)
_cell_angle_gamma                83.12(3)
_cell_volume                     696.096
loop_
_atom_site_label
_atom_site_type_symbol
_atom_site_fract_x
_atom_site_fract_y
_atom_site_fract_z
Na1 Na 0.37318(11) 0.97056(10) 0.65391(8)
Na2 Na 0.05257(10) 1.28031(10) 0.56929(8)
O1 O 0.34836(19) 1.28360(18) 0.55149(14)
H1 H 0.3832 1.3379 0.5946
H2 H 0.4242 1.3066 0.4775
O2 O 0.05181(19) 0.98899(19) 0.70362(15)
H3 H -0.0244 0.9831 0.7646
H4 H 0.0253 0.9062 0.6809
O3 O 0.66914(19) 1.00533(18) 0.55660(15)
H5 H 0.7122 1.0951 0.5526
H6 H 0.7332 0.9261 0.5930
O4 O 0.4253(3) 1.0587(2) 0.82938(17)
H7 H 0.3714 1.0462 0.9087
H8 H 0.4396 1.1747 0.8042
O5 O -0.24100(19) 1.31176(18) 0.56531(15)
H9 H -0.3240 1.3573 0.6012
H10 H -0.2297 1.3713 0.4926
C1 C 0.0726(2) 0.4033(2) 1.29015(18)
O7 O 0.08949(19) 0.25378(18) 1.36221(13)
O8 O -0.0195(2) 0.51498(19) 1.32907(15)
C2 C 0.4163(2) 0.5303(2) 0.75626(18)
O9 O 0.4747(2) 0.40098(18) 0.72326(14)
O10 O 0.4237(2) 0.67740(18) 0.68155(14)
C3 C 0.1647(2) 0.4461(2) 1.15234(17)
C4 C 0.2900(2) 0.3302(2) 1.11567(19)
H13 H 0.3183 0.2329 1.1779
C5 C 0.3728(2) 0.3564(2) 0.98952(19)
H14 H 0.4554 0.2774 0.9677
C6 C 0.3324(2) 0.5015(2) 0.89518(18)
C7 C 0.2129(2) 0.6197(2) 0.93012(18)
H15 H 0.1887 0.7184 0.8675
C8 C 0.1275(2) 0.5944(2) 1.05735(18)
N1 N 0.0112(2) 0.7236(2) 1.08514(17)
H16 H -0.0502 0.7796 1.0195
H17 H -0.0564 0.6817 1.1609
Na1A Na 0.62682(11) 1.02944(10) 0.34609(8)
Na2_2 Na 0.05257(10) 0.28031(10) 1.56929(8)
Na2A Na -0.05257(10) 0.71969(10) 1.43071(8)
O3A O 0.33086(19) 0.99467(18) 0.44340(15)
H5A H 0.2878 0.9049 0.4474
H6A H 0.2668 1.0739 0.4070
O7_2 O 0.08949(19) 1.25378(18) 0.36221(13)
O8A O 0.0195(2) 1.48502(19) 0.67093(15)
O6 O -0.2205(3) 1.0328(2) 0.91044(19)
H11 H -0.3173 1.0665 0.8768
H12 H -0.1535 1.1194 0.9129
loop_
_geom_bond_atom_site_label_1
_geom_bond_atom_site_label_2
_geom_bond_site_symmetry_1
_geom_bond_site_symmetry_2
Na1 O1 1_555 1_555
Na2 O1 1_555 1_555
O1 H1 1_555 1_555
H2 O1 1_555 1_555
O2 Na1 1_555 1_555
H3 O2 1_555 1_555
H4 O2 1_555 1_555
O3 Na1 1_555 1_555
H5 O3 1_555 1_555
H6 O3 1_555 1_555
O4 Na1 1_555 1_555
H7 O4 1_555 1_555
H8 O4 1_555 1_555
O5 Na2 1_555 1_555
H9 O5 1_555 1_555
H10 O5 1_555 1_555
O6 H11 1_555 1_555
H12 O6 1_555 1_555
C1 O7 1_555 1_555
O7 Na2_2 1_555 1_555
O8 C1 1_555 1_555
C2 O9 1_555 1_555
O10 Na1 1_555 1_555
C3 C1 1_555 1_555
C4 C3 1_555 1_555
H13 C4 1_555 1_555
C5 C4 1_555 1_555
H14 C5 1_555 1_555
C6 C2 1_555 1_555
C7 C6 1_555 1_555
H15 C7 1_555 1_555
C8 C3 1_555 1_555
N1 C8 1_555 1_555
H16 N1 1_555 1_555
H17 N1 1_555 1_555
Na1A O3 1_555 1_555
Na2A O8 1_555 1_555
O3A Na1 1_555 1_555
H5A O3A 1_555 1_555
H6A O3A 1_555 1_555
O7_2 Na2 1_555 1_555
O8A Na2 1_555 1_555
Na2 O2 1_555 1_555
C2 O10 1_555 1_555
C5 C6 1_555 1_555
C7 C8 1_555 1_555
Na1A O3A 1_555 1_555

#END
