
#######################################################################
#
#                 Cambridge Crystallographic Data Centre
#                                CCDC 
#
#######################################################################
#
# If this CIF has been generated from an entry in the Cambridge 
# Structural Database, then it will include bibliographic, chemical, 
# crystal, experimental, refinement or atomic coordinate data resulting 
# from the CCDC's data processing and validation procedures.
#
#######################################################################

data_KEQVUZ
_symmetry_cell_setting           monoclinic
_symmetry_space_group_name_H-M   'P 21/c'
_symmetry_Int_Tables_number      14
_space_group_name_Hall           '-P 2ybc'
loop_
_symmetry_equiv_pos_site_id
_symmetry_equiv_pos_as_xyz
1 x,y,z
2 -x,1/2+y,1/2-z
3 -x,-y,-z
4 x,1/2-y,1/2+z
_cell_length_a                   11.2075(2)
_cell_length_b                   12.9542(3)
_cell_length_c                   14.0872(3)
_cell_angle_alpha                90
_cell_angle_beta                 100.841(2)
_cell_angle_gamma                90
_cell_volume                     2008.74
loop_
_atom_site_label
_atom_site_type_symbol
_atom_site_fract_x
_atom_site_fract_y
_atom_site_fract_z
N1 N 0.1932(3) 0.2422(3) 1.1876(3)
C1 C 0.3576(4) 0.1419(3) 1.1541(3)
H1 H 0.4141 0.0897 1.1728
C2 C 0.1927(4) 0.2941(3) 1.1053(3)
H2 H 0.1370 0.3473 1.0890
C3 C 0.2716(4) 0.2720(3) 1.0436(3)
H3 H 0.2674 0.3086 0.9862
C4 C 0.3562(4) 0.1953(3) 1.0682(3)
C5 C 0.9127(5) 0.4175(4) 0.3886(3)
H4 H 0.9209 0.4645 0.3404
C6 C 0.8593(4) 0.4498(3) 0.4636(3)
H5 H 0.8323 0.5175 0.4657
C7 C 0.8822(4) 0.2808(3) 0.5271(3)
H6 H 0.8709 0.2314 0.5724
C8 C 0.8458(3) 0.3811(3) 0.5362(3)
C9 C 0.7943(3) 0.4187(3) 0.6193(3)
C10 C 0.7287(3) 0.3518(3) 0.7600(3)
C11 C 0.7522(4) 0.4313(3) 0.8236(3)
H7 H 0.8085 0.4820 0.8161
C12 C 0.6891(4) 0.4352(3) 0.9016(3)
H8 H 0.7046 0.4889 0.9460
C13 C 0.6068(4) 0.3622(3) 0.9126(3)
H9 H 0.5649 0.3673 0.9634
C14 C 0.5835(4) 0.2782(3) 0.8479(3)
C15 C 0.4975(4) 0.2002(3) 0.8548(3)
C16 C 0.4790(4) 0.1189(3) 0.7932(3)
H10 H 0.4210 0.0693 0.7995
C17 C 0.5474(4) 0.1098(3) 0.7199(3)
H11 H 0.5366 0.0528 0.6790
C18 C 0.6302(4) 0.1842(3) 0.7080(3)
H12 H 0.6747 0.1779 0.6588
C19 C 0.6481(3) 0.2709(3) 0.7708(3)
C20 C 0.4487(4) 0.1700(3) 1.0088(3)
C21 C 0.2755(4) 0.1668(4) 1.2108(3)
H13 H 0.2767 0.1300 1.2677
N2 N 0.9531(3) 0.3220(3) 0.3822(3)
O1 O 0.7647(3) 0.5050(2) 0.6307(2)
O2 O 0.7874(3) 0.33978(19) 0.68154(19)
O3 O 0.4204(3) 0.2153(2) 0.9208(2)
O4 O 0.5355(3) 0.1171(3) 1.0330(2)
Ag1 Ag 1.06405(4) 0.27957(4) 0.27875(3)
C22 C 0.9359(4) 0.2544(3) 0.4499(3)
H14 H 0.9611 0.1866 0.4449
N1_2 N 1.1932(3) 0.2422(3) 0.1876(3)
Ag1_2 Ag 0.06405(4) 0.27957(4) 1.27875(3)
N3 N 0.9151(5) 0.5110(3) 0.1442(4)
O5 O 0.8378(8) 0.5623(6) 0.1101(4)
O6 O 0.9740(6) 0.5671(5) 0.2134(5)
O7 O 0.9446(6) 0.4266(3) 0.1520(4)
loop_
_geom_bond_atom_site_label_1
_geom_bond_atom_site_label_2
_geom_bond_site_symmetry_1
_geom_bond_site_symmetry_2
N1 C2 1_555 1_555
C1 H1 1_555 1_555
C2 H2 1_555 1_555
C3 C2 1_555 1_555
H3 C3 1_555 1_555
C4 C1 1_555 1_555
C5 H4 1_555 1_555
C6 C5 1_555 1_555
H5 C6 1_555 1_555
C7 H6 1_555 1_555
C8 C6 1_555 1_555
C9 C8 1_555 1_555
C10 C11 1_555 1_555
C11 H7 1_555 1_555
C12 C11 1_555 1_555
H8 C12 1_555 1_555
C13 C12 1_555 1_555
H9 C13 1_555 1_555
C14 C13 1_555 1_555
C15 C14 1_555 1_555
C16 C15 1_555 1_555
H10 C16 1_555 1_555
C17 C16 1_555 1_555
H11 C17 1_555 1_555
C18 C17 1_555 1_555
H12 C18 1_555 1_555
C19 C10 1_555 1_555
C20 C4 1_555 1_555
C21 N1 1_555 1_555
H13 C21 1_555 1_555
N2 C5 1_555 1_555
O1 C9 1_555 1_555
O2 C9 1_555 1_555
O3 C15 1_555 1_555
O4 C20 1_555 1_555
Ag1 N2 1_555 1_555
C22 C7 1_555 1_555
H14 C22 1_555 1_555
N3 O5 1_555 1_555
O6 N3 1_555 1_555
O7 N3 1_555 1_555
N1_2 Ag1 1_555 1_555
Ag1_2 N1 1_555 1_555
C1 C21 1_555 1_555
C3 C4 1_555 1_555
C7 C8 1_555 1_555
C10 O2 1_555 1_555
C14 C19 1_555 1_555
C18 C19 1_555 1_555
C20 O3 1_555 1_555
N2 C22 1_555 1_555

#END
