
#######################################################################
#
#                 Cambridge Crystallographic Data Centre
#                                CCDC 
#
#######################################################################
#
# If this CIF has been generated from an entry in the Cambridge 
# Structural Database, then it will include bibliographic, chemical, 
# crystal, experimental, refinement or atomic coordinate data resulting 
# from the CCDC's data processing and validation procedures.
#
#######################################################################

data_KEQVOT
_symmetry_cell_setting           monoclinic
_symmetry_space_group_name_H-M   'P 21/n'
_symmetry_Int_Tables_number      14
_space_group_name_Hall           '-P 2yn'
loop_
_symmetry_equiv_pos_site_id
_symmetry_equiv_pos_as_xyz
1 x,y,z
2 1/2-x,1/2+y,1/2-z
3 -x,-y,-z
4 1/2+x,1/2-y,1/2+z
_cell_length_a                   5.07870(10)
_cell_length_b                   14.7949(2)
_cell_length_c                   14.54230(10)
_cell_angle_alpha                90
_cell_angle_beta                 96.3200(10)
_cell_angle_gamma                90
_cell_volume                     1086.05
loop_
_atom_site_label
_atom_site_type_symbol
_atom_site_fract_x
_atom_site_fract_y
_atom_site_fract_z
Ag1 Ag 0.11083(3) 0.663580(12) 0.135570(14)
C1 C -0.1196(5) 0.45896(15) 0.09903(17)
H1 H -0.2536 0.4921 0.0658
C2 C -0.1329(4) 0.36589(15) 0.09478(16)
H2 H -0.2725 0.3371 0.0597
C3 C 0.0673(4) 0.31619(14) 0.14426(14)
C4 C 0.2690(5) 0.36229(16) 0.19662(17)
H3 H 0.4049 0.3310 0.2310
C5 C 0.2640(5) 0.45521(17) 0.19658(19)
H4 H 0.3993 0.4857 0.2321
C6 C 0.0740(4) 0.21552(15) 0.14124(15)
C7 C -0.3104(5) -0.05550(16) 0.11132(18)
H5 H -0.4183 -0.0892 0.1461
C8 C -0.2917(5) 0.03845(16) 0.12419(17)
H6 H -0.3855 0.0671 0.1673
C9 C -0.1351(4) 0.08660(14) 0.07297(16)
C10 C 0.0107(4) 0.04796(13) 0.00610(15)
C11 C -0.1729(5) -0.09793(15) 0.04861(17)
H7 H -0.1856 -0.1603 0.0417
N1 N 0.0754(4) 0.50412(13) 0.14829(14)
N2 N -0.4544(4) 0.69409(13) 0.12419(15)
O1 O 0.2401(4) 0.16974(11) 0.18380(13)
O2 O -0.1260(3) 0.18176(10) 0.08265(12)
O3 O -0.3484(4) 0.66807(13) 0.05591(14)
O4 O -0.3002(3) 0.71807(14) 0.19131(13)
Ag1B Ag -0.11083(3) -0.663580(12) -0.135570(14)
Ag1_2 Ag -0.88917(3) 0.663580(12) 0.135570(14)
Ag1B_2 Ag 0.88917(3) -0.663580(12) -0.135570(14)
C1B C 0.1196(5) -0.45896(15) -0.09903(17)
H1B H 0.2536 -0.4921 -0.0658
C2B C 0.1329(4) -0.36589(15) -0.09478(16)
H2B H 0.2725 -0.3371 -0.0597
C3B C -0.0673(4) -0.31619(14) -0.14426(14)
C4B C -0.2690(5) -0.36229(16) -0.19662(17)
H3B H -0.4049 -0.3310 -0.2310
C5B C -0.2640(5) -0.45521(17) -0.19658(19)
H4B H -0.3993 -0.4857 -0.2321
C6B C -0.0740(4) -0.21552(15) -0.14124(15)
C7B C 0.3104(5) 0.05550(16) -0.11132(18)
H5B H 0.4183 0.0892 -0.1461
C8B C 0.2917(5) -0.03845(16) -0.12419(17)
H6B H 0.3855 -0.0671 -0.1673
C9B C 0.1351(4) -0.08660(14) -0.07297(16)
C10B C -0.0107(4) -0.04796(13) -0.00610(15)
C11B C 0.1729(5) 0.09793(15) -0.04861(17)
H7B H 0.1856 0.1603 -0.0417
N1B N -0.0754(4) -0.50412(13) -0.14829(14)
N2_2 N 0.5456(4) 0.69409(13) 0.12419(15)
N2B N -0.5456(4) -0.69409(13) -0.12419(15)
N2B_2 N 0.4544(4) -0.69409(13) -0.12419(15)
O1B O -0.2401(4) -0.16974(11) -0.18380(13)
O2B O 0.1260(3) -0.18176(10) -0.08265(12)
O3B O 0.3484(4) -0.66807(13) -0.05591(14)
O4B O 0.3002(3) -0.71807(14) -0.19131(13)
loop_
_geom_bond_atom_site_label_1
_geom_bond_atom_site_label_2
_geom_bond_site_symmetry_1
_geom_bond_site_symmetry_2
Ag1 N1 1_555 1_555
C1 H1 1_555 1_555
C2 C1 1_555 1_555
H2 C2 1_555 1_555
C3 C2 1_555 1_555
C4 C3 1_555 1_555
H3 C4 1_555 1_555
C5 C4 1_555 1_555
H4 C5 1_555 1_555
C6 C3 1_555 1_555
C7 H5 1_555 1_555
C8 C7 1_555 1_555
H6 C8 1_555 1_555
C9 C8 1_555 1_555
C10 C9 1_555 1_555
C11 C7 1_555 1_555
H7 C11 1_555 1_555
N1 C1 1_555 1_555
N2 O3 1_555 1_555
O1 C6 1_555 1_555
O2 C6 1_555 1_555
O3 Ag1 1_555 1_555
O4 Ag1 1_555 1_555
Ag1B N1B 1_555 1_555
Ag1_2 N2 1_555 1_555
Ag1B_2 N2B_2 1_555 1_555
C1B H1B 1_555 1_555
C2B C1B 1_555 1_555
H2B C2B 1_555 1_555
C3B C2B 1_555 1_555
C4B C3B 1_555 1_555
H3B C4B 1_555 1_555
C5B C4B 1_555 1_555
H4B C5B 1_555 1_555
C6B C3B 1_555 1_555
C7B H5B 1_555 1_555
C8B C7B 1_555 1_555
H6B C8B 1_555 1_555
C9B C8B 1_555 1_555
C10B C10 1_555 1_555
C11B C10 1_555 1_555
H7B C11B 1_555 1_555
N1B C1B 1_555 1_555
N2_2 Ag1 1_555 1_555
N2B Ag1B 1_555 1_555
N2B_2 O3B 1_555 1_555
O1B C6B 1_555 1_555
O2B C6B 1_555 1_555
O3B Ag1B 1_555 1_555
O4B Ag1B 1_555 1_555
C5 N1 1_555 1_555
C9 O2 1_555 1_555
C11 C10B 1_555 1_555
N2 O4 1_555 1_555
C5B N1B 1_555 1_555
C7B C11B 1_555 1_555
C9B C10B 1_555 1_555
C9B O2B 1_555 1_555
N2B_2 O4B 1_555 1_555

#END
