
#######################################################################
#
#                 Cambridge Crystallographic Data Centre
#                                CCDC 
#
#######################################################################
#
# If this CIF has been generated from an entry in the Cambridge 
# Structural Database, then it will include bibliographic, chemical, 
# crystal, experimental, refinement or atomic coordinate data resulting 
# from the CCDC's data processing and validation procedures.
#
#######################################################################

data_KEQWAG
_symmetry_cell_setting           triclinic
_symmetry_space_group_name_H-M   'P -1'
_symmetry_Int_Tables_number      2
_space_group_name_Hall           '-P 1'
loop_
_symmetry_equiv_pos_site_id
_symmetry_equiv_pos_as_xyz
1 x,y,z
2 -x,-y,-z
_cell_length_a                   8.3926(2)
_cell_length_b                   10.6444(3)
_cell_length_c                   13.5560(3)
_cell_angle_alpha                94.2480(10)
_cell_angle_beta                 94.1120(10)
_cell_angle_gamma                102.4220(10)
_cell_volume                     1174.63
loop_
_atom_site_label
_atom_site_type_symbol
_atom_site_fract_x
_atom_site_fract_y
_atom_site_fract_z
Ag1 Ag 0.3285(4) 0.3507(3) 0.0068(2)
N1 N 0.177(4) 0.424(3) -0.101(2)
N2 N 0.460(4) 0.297(3) 0.134(2)
O1 O -0.174(3) 0.510(2) -0.3865(19)
O2 O -0.158(4) 0.684(3) -0.279(2)
O3 O 0.711(3) 0.084(2) 0.3983(19)
O4 O 0.824(3) 0.293(3) 0.439(2)
C1 C 0.117(5) 0.361(4) -0.188(3)
H1 H 0.1417 0.2814 -0.2037
C2 C 0.019(4) 0.406(4) -0.257(3)
H2 H -0.0217 0.3578 -0.3166
C3 C -0.017(4) 0.524(3) -0.235(3)
C4 C 0.045(4) 0.589(4) -0.143(3)
H3 H 0.0193 0.6675 -0.1239
C5 C 0.143(4) 0.538(4) -0.081(3)
H4 H 0.1871 0.5852 -0.0208
C6 C -0.122(4) 0.583(4) -0.302(3)
C7 C -0.282(4) 0.552(3) -0.454(3)
C8 C -0.444(4) 0.479(3) -0.465(2)
C9 C -0.498(4) 0.371(3) -0.414(3)
H5 H -0.4240 0.3424 -0.3717
C10 C -0.230(5) 0.656(4) -0.505(3)
H6 H -0.1223 0.7021 -0.4949
C11 C -0.657(5) 0.307(4) -0.427(3)
H7 H -0.6922 0.2369 -0.3905
C12 C 0.524(4) 0.386(4) 0.208(3)
H8 H 0.5074 0.4693 0.2041
C13 C 0.614(4) 0.361(3) 0.291(3)
H9 H 0.6603 0.4260 0.3402
C14 C 0.734(4) 0.211(4) 0.387(3)
C15 C 0.956(4) 0.018(3) 0.458(3)
C16 C 1.014(5) 0.018(4) 0.366(3)
H10 H 0.9535 0.0404 0.3124
C17 C 0.634(4) 0.236(3) 0.298(3)
C18 C 0.567(5) 0.144(4) 0.222(3)
H11 H 0.5768 0.0590 0.2257
C19 C 0.482(5) 0.179(4) 0.140(3)
H12 H 0.4401 0.1164 0.0870
C20 C 1.160(6) -0.013(4) 0.352(3)
H13 H 1.1990 -0.0101 0.2894
C21 C 0.803(5) 0.052(3) 0.480(3)
C22 C 0.748(5) 0.050(4) 0.568(3)
H14 H 0.6494 0.0731 0.5784
Ag1A Ag -1.3285(4) 0.6493(3) -1.0068(2)
Ag1A_2 Ag 1.6715(4) -0.3507(3) 0.9932(2)
N1A N -1.177(4) 0.576(3) -0.899(2)
N2A N 1.540(4) -0.297(3) 0.866(2)
N2A_2 N -1.460(4) 0.703(3) -1.134(2)
O1A O -0.826(3) 0.490(2) -0.6135(19)
O2A O -0.842(4) 0.316(3) -0.721(2)
O3A O 1.289(3) -0.084(2) 0.6017(19)
O4A O 1.176(3) -0.293(3) 0.561(2)
C1A C -1.117(5) 0.639(4) -0.812(3)
H1A H -1.1417 0.7186 -0.7963
C2A C -1.019(4) 0.594(4) -0.743(3)
H2A H -0.9783 0.6422 -0.6834
C3A C -0.983(4) 0.476(3) -0.765(3)
C4A C -1.045(4) 0.411(4) -0.857(3)
H3A H -1.0193 0.3325 -0.8761
C5A C -1.143(4) 0.462(4) -0.919(3)
H4A H -1.1871 0.4148 -0.9792
C6A C -0.878(4) 0.417(4) -0.698(3)
C7A C -0.718(4) 0.448(3) -0.546(3)
C8A C -0.556(4) 0.521(3) -0.535(2)
C9A C -0.502(4) 0.629(3) -0.586(3)
H5A H -0.5760 0.6576 -0.6283
C10A C -0.770(5) 0.344(4) -0.495(3)
H6A H -0.8777 0.2979 -0.5051
C11A C -0.343(5) 0.693(4) -0.573(3)
H7A H -0.3078 0.7631 -0.6095
C12A C 1.476(4) -0.386(4) 0.792(3)
H8A H 1.4926 -0.4693 0.7959
C13A C 1.386(4) -0.361(3) 0.709(3)
H9A H 1.3397 -0.4260 0.6598
C14A C 1.266(4) -0.211(4) 0.613(3)
C15A C 1.044(4) -0.018(3) 0.542(3)
C16A C 0.986(5) -0.018(4) 0.634(3)
H10A H 1.0465 -0.0404 0.6876
C17A C 1.366(4) -0.236(3) 0.702(3)
C18A C 1.433(5) -0.144(4) 0.778(3)
H11A H 1.4232 -0.0590 0.7743
C19A C 1.518(5) -0.179(4) 0.860(3)
H12A H 1.5599 -0.1164 0.9130
C20A C 0.840(6) 0.013(4) 0.648(3)
H13A H 0.8010 0.0101 0.7106
C21A C 1.197(5) -0.052(3) 0.520(3)
C22A C 1.252(5) -0.050(4) 0.432(3)
H14A H 1.3506 -0.0731 0.4216
Cl1 Cl -0.4198(13) 0.2306(10) -0.1491(8)
O5 O -0.582(5) 0.181(5) -0.146(6)
O6 O -0.353(9) 0.178(5) -0.076(3)
O7 O -0.390(5) 0.366(3) -0.129(3)
O8 O -0.381(7) 0.190(4) -0.241(3)
O9 O 0.062(11) 0.085(6) 0.005(12)
H15? H 0.0016 0.0272 0.0778
H16? H 0.0065 0.0258 -0.0621
loop_
_geom_bond_atom_site_label_1
_geom_bond_atom_site_label_2
_geom_bond_site_symmetry_1
_geom_bond_site_symmetry_2
Ag1 N1 1_555 1_555
Cl1 O5 1_555 1_555
N1 C1 1_555 1_555
N2 Ag1 1_555 1_555
O1 C6 1_555 1_555
O2 C6 1_555 1_555
O3 C14 1_555 1_555
O4 C14 1_555 1_555
O6 Cl1 1_555 1_555
O7 Cl1 1_555 1_555
O8 Cl1 1_555 1_555
C1 H1 1_555 1_555
C2 C1 1_555 1_555
H2 C2 1_555 1_555
C3 C2 1_555 1_555
C4 C3 1_555 1_555
H3 C4 1_555 1_555
C5 N1 1_555 1_555
H4 C5 1_555 1_555
C6 C3 1_555 1_555
C7 O1 1_555 1_555
C8 C7 1_555 1_555
C9 C8 1_555 1_555
H5 C9 1_555 1_555
C10 C7 1_555 1_555
H6 C10 1_555 1_555
C11 C9 1_555 1_555
H7 C11 1_555 1_555
C12 N2 1_555 1_555
H8 C12 1_555 1_555
C13 C12 1_555 1_555
H9 C13 1_555 1_555
C14 C17 1_555 1_555
C15 C16 1_555 1_555
C16 H10 1_555 1_555
C17 C13 1_555 1_555
C18 C17 1_555 1_555
H11 C18 1_555 1_555
C19 N2 1_555 1_555
H12 C19 1_555 1_555
C20 C16 1_555 1_555
H13 C20 1_555 1_555
C21 O3 1_555 1_555
C22 C21 1_555 1_555
H14 C22 1_555 1_555
Ag1A N1A 1_555 1_555
Ag1A_2 N2A 1_555 1_555
N1A C1A 1_555 1_555
N2A C12A 1_555 1_555
N2A_2 Ag1A 1_555 1_555
O1A C6A 1_555 1_555
O2A C6A 1_555 1_555
O3A C14A 1_555 1_555
O4A C14A 1_555 1_555
C1A H1A 1_555 1_555
C2A C1A 1_555 1_555
H2A C2A 1_555 1_555
C3A C2A 1_555 1_555
C4A C3A 1_555 1_555
H3A C4A 1_555 1_555
C5A N1A 1_555 1_555
H4A C5A 1_555 1_555
C6A C3A 1_555 1_555
C7A O1A 1_555 1_555
C8A C8 1_555 1_555
C9A C8A 1_555 1_555
H5A C9A 1_555 1_555
C10A C11 1_555 1_555
H6A C10A 1_555 1_555
C11A C10 1_555 1_555
H7A C11A 1_555 1_555
C12A H8A 1_555 1_555
C13A C12A 1_555 1_555
H9A C13A 1_555 1_555
C14A C17A 1_555 1_555
C15A C15 1_555 1_555
C16A C15A 1_555 1_555
H10A C16A 1_555 1_555
C17A C13A 1_555 1_555
C18A C17A 1_555 1_555
H11A C18A 1_555 1_555
C19A N2A 1_555 1_555
H12A C19A 1_555 1_555
C20A C22 1_555 1_555
H13A C20A 1_555 1_555
C21A O3A 1_555 1_555
C22A C20 1_555 1_555
H14A C22A 1_555 1_555
C4 C5 1_555 1_555
C15 C21 1_555 1_555
C18 C19 1_555 1_555
C4A C5A 1_555 1_555
C7A C8A 1_555 1_555
C7A C10A 1_555 1_555
C9A C11A 1_555 1_555
C15A C21A 1_555 1_555
C16A C20A 1_555 1_555
C18A C19A 1_555 1_555
C21A C22A 1_555 1_555

#END
