
#######################################################################
#
#                 Cambridge Crystallographic Data Centre
#                                CCDC 
#
#######################################################################
#
# If this CIF has been generated from an entry in the Cambridge 
# Structural Database, then it will include bibliographic, chemical, 
# crystal, experimental, refinement or atomic coordinate data resulting 
# from the CCDC's data processing and validation procedures.
#
#######################################################################

data_KEQWIM
_symmetry_cell_setting           monoclinic
_symmetry_space_group_name_H-M   'C 2/c'
_symmetry_Int_Tables_number      15
_space_group_name_Hall           '-C 2yn'
loop_
_symmetry_equiv_pos_site_id
_symmetry_equiv_pos_as_xyz
1 x,y,z
2 1/2+x,1/2+y,z
3 x,-y,1/2+z
4 1/2+x,1/2-y,1/2+z
5 -x,-y,-z
6 1/2-x,1/2-y,-z
7 -x,y,1/2-z
8 1/2-x,1/2+y,1/2-z
_cell_length_a                   13.579(6)
_cell_length_b                   15.543(5)
_cell_length_c                   7.570(7)
_cell_angle_alpha                90
_cell_angle_beta                 92.03(5)
_cell_angle_gamma                90
_cell_volume                     1596.71
loop_
_atom_site_label
_atom_site_type_symbol
_atom_site_fract_x
_atom_site_fract_y
_atom_site_fract_z
Cu1 Cu -0.2500 0.2500 0.0000
N1 N -0.23033(16) 0.38257(15) 0.0019(2)
C1 C -0.14460(19) 0.42737(15) 0.0020(3)
N2 N -0.13917(18) 0.51412(15) 0.0128(4)
C2 C -0.2236(3) 0.5565(2) 0.0213(5)
H1 H -0.2217 0.6175 0.0291
C3 C -0.3139(2) 0.5161(2) 0.0194(5)
H2 H -0.3734 0.5479 0.0253
C4 C -0.3144(2) 0.42892(17) 0.0088(4)
H3 H -0.3758 0.3995 0.0061
N3 N -0.06009(16) 0.38577(13) -0.0063(3)
H4 H -0.0596 0.3292 -0.0119
H5 H -0.0043 0.4146 -0.0063
N4 N -0.15324(18) 0.23733(14) -0.8013(3)
C5 C -0.11503(17) 0.22628(16) -0.6649(3)
N5 N -0.06369(15) 0.21035(15) -0.5205(3)
C6 C -0.10281(16) 0.22256(15) -0.3672(3)
N6 N -0.13063(18) 0.23110(16) -0.2261(3)
N4E N -0.34676(18) 0.26267(14) -0.1987(3)
C5E C -0.38497(17) 0.27372(16) -0.3351(3)
N5E N -0.43631(15) 0.28965(15) -0.4795(3)
C6E C -0.39719(16) 0.27744(15) -0.6328(3)
N6E N -0.36937(18) 0.26890(16) -0.7739(3)
Cu1_2 Cu -0.2500 0.2500 -1.0000
N1E N -0.26967(16) 0.11743(15) -0.0019(2)
N4_2 N -0.15324(18) 0.23733(14) 0.1987(3)
N6E_2 N -0.36937(18) 0.26890(16) 0.2261(3)
C1E C -0.35540(19) 0.07263(15) -0.0020(3)
C4E C -0.1856(2) 0.07108(17) -0.0088(4)
N2E N -0.36083(18) -0.01412(15) -0.0128(4)
N3E N -0.43991(16) 0.11423(13) 0.0063(3)
C3E C -0.1861(2) -0.0161(2) -0.0194(5)
H3E H -0.1242 0.1005 -0.0061
C2E C -0.2764(3) -0.0565(2) -0.0213(5)
H4E H -0.4404 0.1708 0.0119
H5E H -0.4957 0.0854 0.0063
H2E H -0.1266 -0.0479 -0.0253
H1E H -0.2783 -0.1175 -0.0291
loop_
_geom_bond_atom_site_label_1
_geom_bond_atom_site_label_2
_geom_bond_site_symmetry_1
_geom_bond_site_symmetry_2
Cu1 N1 1_555 1_555
N1 C1 1_555 1_555
C1 N2 1_555 1_555
N2 C2 1_555 1_555
C2 H1 1_555 1_555
C3 C2 1_555 1_555
H2 C3 1_555 1_555
C4 N1 1_555 1_555
H3 C4 1_555 1_555
N3 C1 1_555 1_555
H4 N3 1_555 1_555
H5 N3 1_555 1_555
N4 C5 1_555 1_555
C5 N5 1_555 1_555
N5 C6 1_555 1_555
C6 N6 1_555 1_555
N6 Cu1 1_555 1_555
N4E Cu1 1_555 1_555
C5E N4E 1_555 1_555
N5E C5E 1_555 1_555
C6E N5E 1_555 1_555
N6E C6E 1_555 1_555
Cu1_2 N4 1_555 1_555
N1E Cu1 1_555 1_555
N4_2 Cu1 1_555 1_555
N6E_2 Cu1 1_555 1_555
C1E N1E 1_555 1_555
C4E N1E 1_555 1_555
N2E C1E 1_555 1_555
N3E C1E 1_555 1_555
C3E C4E 1_555 1_555
H3E C4E 1_555 1_555
C2E N2E 1_555 1_555
H4E N3E 1_555 1_555
H5E N3E 1_555 1_555
H2E C3E 1_555 1_555
H1E C2E 1_555 1_555
C3 C4 1_555 1_555
N6E Cu1_2 1_555 1_555
C3E C2E 1_555 1_555

#END
