
#######################################################################
#
#                 Cambridge Crystallographic Data Centre
#                                CCDC 
#
#######################################################################
#
# If this CIF has been generated from an entry in the Cambridge 
# Structural Database, then it will include bibliographic, chemical, 
# crystal, experimental, refinement or atomic coordinate data resulting 
# from the CCDC's data processing and validation procedures.
#
#######################################################################

data_KERCAM
_symmetry_cell_setting           triclinic
_symmetry_space_group_name_H-M   'P -1'
_symmetry_Int_Tables_number      2
_space_group_name_Hall           '-P 1'
loop_
_symmetry_equiv_pos_site_id
_symmetry_equiv_pos_as_xyz
1 x,y,z
2 -x,-y,-z
_cell_length_a                   7.730(4)
_cell_length_b                   10.000(6)
_cell_length_c                   11.533(6)
_cell_angle_alpha                85.672(7)
_cell_angle_beta                 71.590(7)
_cell_angle_gamma                69.562(7)
_cell_volume                     792.019
loop_
_atom_site_label
_atom_site_type_symbol
_atom_site_fract_x
_atom_site_fract_y
_atom_site_fract_z
Zn1 Zn 0.73323(9) -0.01806(7) 0.84971(6)
O1 O 0.5659(6) 0.2495(5) 0.7854(4)
O2 O 0.5557(6) 0.1479(4) 0.9633(4)
O3 O 0.0376(6) 0.7129(4) 0.7740(4)
O4 O -0.1136(5) 0.8501(4) 0.9442(4)
O5 O 0.0246(6) 0.6921(5) 1.3297(4)
O6 O 0.2447(7) 0.4780(5) 1.3346(4)
H1 H 0.2233 0.5069 1.4042
O7 O 0.9452(6) 0.0281(4) 0.7172(4)
H2 H 0.9082 0.1136 0.7045
H3 H 1.0628 -0.0162 0.7140
N1 N 0.5848(6) -0.0683(5) 0.7573(4)
N2 N 0.8312(7) -0.1671(7) 0.5710(5)
H4 H 0.9207 -0.1583 0.5958
H5 H 0.8597 -0.2029 0.4991
N3 N 0.4970(7) -0.1281(6) 0.6126(5)
H6 H 0.5036 -0.1604 0.5437
N4 N 0.3272(7) -0.0708(6) 0.7085(5)
C1 C 0.5031(8) 0.2559(6) 0.8982(5)
C2 C 0.3588(7) 0.3932(6) 0.9647(5)
C3 C 0.2623(7) 0.5003(6) 0.8981(5)
H7 H 0.2902 0.4855 0.8146
C4 C 0.1267(7) 0.6271(6) 0.9549(5)
C5 C 0.0121(8) 0.7369(6) 0.8828(5)
C6 C 0.0909(8) 0.6505(6) 1.0780(5)
H8 H 0.0006 0.7364 1.1164
C7 C 0.1877(8) 0.5477(6) 1.1456(5)
C8 C 0.1443(8) 0.5789(6) 1.2776(5)
C9 C 0.3211(8) 0.4164(6) 1.0880(5)
H9 H 0.3834 0.3456 1.1329
C10 C 0.6495(8) -0.1255(6) 0.6436(5)
C11 C 0.3888(9) -0.0374(7) 0.7901(6)
H10 H 0.3056 0.0047 0.8658
Zn1_2 Zn -0.26677(9) 0.98194(7) 0.84971(6)
O4_2 O 0.8864(5) -0.1499(4) 0.9442(4)
O8 O 0.5151(8) 0.2957(6) 0.5660(5)
H11 H 0.5105 0.2733 0.6393
H12 H 0.6183 0.3088 0.5203
O9 O 0.2332(7) 0.5535(5) 0.5584(4)
H13 H 0.1475 0.5976 0.6230
H14 H 0.3203 0.4768 0.5674
loop_
_geom_bond_atom_site_label_1
_geom_bond_atom_site_label_2
_geom_bond_site_symmetry_1
_geom_bond_site_symmetry_2
Zn1 O2 1_555 1_555
O1 C1 1_555 1_555
O2 C1 1_555 1_555
O3 C5 1_555 1_555
O4 C5 1_555 1_555
O5 C8 1_555 1_555
O6 H1 1_555 1_555
O7 Zn1 1_555 1_555
H2 O7 1_555 1_555
H3 O7 1_555 1_555
N1 Zn1 1_555 1_555
N2 H4 1_555 1_555
H5 N2 1_555 1_555
N3 H6 1_555 1_555
N4 N3 1_555 1_555
C1 C2 1_555 1_555
C2 C3 1_555 1_555
C3 H7 1_555 1_555
C4 C3 1_555 1_555
C5 C4 1_555 1_555
C6 C4 1_555 1_555
H8 C6 1_555 1_555
C7 C6 1_555 1_555
C8 O6 1_555 1_555
C9 C2 1_555 1_555
H9 C9 1_555 1_555
C10 N1 1_555 1_555
C11 N1 1_555 1_555
H10 C11 1_555 1_555
O8 H11 1_555 1_555
H12 O8 1_555 1_555
O9 H13 1_555 1_555
H14 O9 1_555 1_555
Zn1_2 O4 1_555 1_555
O4_2 Zn1 1_555 1_555
N2 C10 1_555 1_555
N3 C10 1_555 1_555
N4 C11 1_555 1_555
C7 C8 1_555 1_555
C7 C9 1_555 1_555

#END
