
#######################################################################
#
#                 Cambridge Crystallographic Data Centre
#                                CCDC 
#
#######################################################################
#
# If this CIF has been generated from an entry in the Cambridge 
# Structural Database, then it will include bibliographic, chemical, 
# crystal, experimental, refinement or atomic coordinate data resulting 
# from the CCDC's data processing and validation procedures.
#
#######################################################################

data_KERDIV
_symmetry_cell_setting           monoclinic
_symmetry_space_group_name_H-M   'P 21/c'
_symmetry_Int_Tables_number      14
_space_group_name_Hall           '-P 2ybc'
loop_
_symmetry_equiv_pos_site_id
_symmetry_equiv_pos_as_xyz
1 x,y,z
2 -x,1/2+y,1/2-z
3 -x,-y,-z
4 x,1/2-y,1/2+z
_cell_length_a                   14.549(4)
_cell_length_b                   7.5683(18)
_cell_length_c                   14.342(3)
_cell_angle_alpha                90
_cell_angle_beta                 104.771(3)
_cell_angle_gamma                90
_cell_volume                     1527.03
loop_
_atom_site_label
_atom_site_type_symbol
_atom_site_fract_x
_atom_site_fract_y
_atom_site_fract_z
Cu1 Cu -0.10968(2) 0.16823(5) -0.00253(2)
Cl1 Cl -0.08782(5) 0.09303(10) 0.15223(5)
F1 F 0.39165(13) 0.47620(19) 0.04801(12)
F2 F 0.50665(13) -0.0652(3) 0.18366(13)
N1 N 0.13944(14) 0.3879(3) -0.04876(14)
N2 N 0.16407(15) 0.3746(3) 0.04952(15)
N3 N 0.01412(14) 0.2833(3) -0.01175(15)
N4 N 0.29934(14) 0.5367(3) -0.24760(14)
N5 N 0.30197(17) 0.7138(3) -0.23018(16)
N6 N 0.20929(15) 0.6520(3) -0.37751(15)
O1 O 0.21863(12) 0.2090(2) -0.19735(12)
H1 H 0.1773 0.1598 -0.1772
C1 C 0.08641(18) 0.3113(4) 0.06726(18)
H2 H 0.0814 0.2874 0.1294
C2 C 0.05043(18) 0.3336(3) -0.08294(18)
H3 H 0.0182 0.3312 -0.1479
C3 C 0.2467(2) 0.7762(4) -0.3106(2)
H4 H 0.2342 0.8962 -0.3207
C4 C 0.24482(18) 0.5033(3) -0.33462(18)
H5 H 0.2331 0.3914 -0.3618
C5 C 0.20639(18) 0.4605(3) -0.09858(19)
H6 H 0.2448 0.5497 -0.0579
H7 H 0.1711 0.5182 -0.1572
C6 C 0.27258(17) 0.3217(3) -0.12480(17)
C7 C 0.34429(17) 0.4137(3) -0.17163(18)
H8 H 0.3905 0.4770 -0.1223
H9 H 0.3781 0.3245 -0.1984
C8 C 0.33231(17) 0.2167(3) -0.03880(17)
C9 C 0.39009(18) 0.2967(3) 0.04174(19)
C10 C 0.44900(19) 0.2066(4) 0.11680(18)
H10 H 0.4869 0.2652 0.1698
C11 C 0.44902(19) 0.0266(4) 0.10950(19)
C12 C 0.39503(19) -0.0631(4) 0.0327(2)
H11 H 0.3969 -0.1858 0.0302
C13 C 0.33719(18) 0.0331(3) -0.04157(18)
H12 H 0.3006 -0.0266 -0.0949
Cu1A Cu 0.10968(2) 0.66823(5) -0.49747(2)
N6A N -0.20929(15) 0.1520(3) -0.12249(15)
loop_
_geom_bond_atom_site_label_1
_geom_bond_atom_site_label_2
_geom_bond_site_symmetry_1
_geom_bond_site_symmetry_2
Cu1 Cl1 1_555 1_555
F1 C9 1_555 1_555
F2 C11 1_555 1_555
N1 N2 1_555 1_555
N2 C1 1_555 1_555
N3 Cu1 1_555 1_555
N4 N5 1_555 1_555
N5 C3 1_555 1_555
N6 C3 1_555 1_555
O1 H1 1_555 1_555
C1 N3 1_555 1_555
H2 C1 1_555 1_555
C2 N1 1_555 1_555
H3 C2 1_555 1_555
C3 H4 1_555 1_555
C4 N4 1_555 1_555
H5 C4 1_555 1_555
C5 N1 1_555 1_555
H6 C5 1_555 1_555
H7 C5 1_555 1_555
C6 O1 1_555 1_555
C7 N4 1_555 1_555
H8 C7 1_555 1_555
H9 C7 1_555 1_555
C8 C6 1_555 1_555
C9 C8 1_555 1_555
C10 C9 1_555 1_555
H10 C10 1_555 1_555
C11 C10 1_555 1_555
C12 C11 1_555 1_555
H11 C12 1_555 1_555
C13 C8 1_555 1_555
H12 C13 1_555 1_555
Cu1A N6 1_555 1_555
N6A Cu1 1_555 1_555
N3 C2 1_555 1_555
N6 C4 1_555 1_555
C5 C6 1_555 1_555
C6 C7 1_555 1_555
C12 C13 1_555 1_555

#END
