
#######################################################################
#
#                 Cambridge Crystallographic Data Centre
#                                CCDC 
#
#######################################################################
#
# If this CIF has been generated from an entry in the Cambridge 
# Structural Database, then it will include bibliographic, chemical, 
# crystal, experimental, refinement or atomic coordinate data resulting 
# from the CCDC's data processing and validation procedures.
#
#######################################################################

data_KERFOD
_symmetry_cell_setting           monoclinic
_symmetry_space_group_name_H-M   'C 2/c'
_symmetry_Int_Tables_number      15
_space_group_name_Hall           '-C 2yn'
loop_
_symmetry_equiv_pos_site_id
_symmetry_equiv_pos_as_xyz
1 x,y,z
2 1/2+x,1/2+y,z
3 -x,y,1/2-z
4 1/2-x,1/2+y,1/2-z
5 -x,-y,-z
6 1/2-x,1/2-y,-z
7 x,-y,1/2+z
8 1/2+x,1/2-y,1/2+z
_cell_length_a                   16.6827(5)
_cell_length_b                   11.1198(6)
_cell_length_c                   7.7254(5)
_cell_angle_alpha                90
_cell_angle_beta                 106.333(3)
_cell_angle_gamma                90
_cell_volume                     1375.29
loop_
_atom_site_label
_atom_site_type_symbol
_atom_site_fract_x
_atom_site_fract_y
_atom_site_fract_z
Cd1 Cd 0.0000 0.57871(4) -1.2500
I1 I -0.109910(18) 0.58985(3) -0.98618(4)
N1 N 0.0721(2) 0.7517(3) -1.1110(5)
C1 C 0.1424(3) 0.7505(6) -0.9767(8)
H1 H 0.1639 0.6769 -0.9276
C2 C 0.1854(4) 0.8556(7) -0.9067(10)
H2 H 0.2350 0.8523 -0.8141
C3 C 0.1524(5) 0.9641(7) -0.9781(10)
H3 H 0.1807 1.0350 -0.9353
C4 C 0.0771(4) 0.9686(4) -1.1141(9)
C5 C 0.0379(2) 0.8587(4) -1.1801(6)
C6 C 0.0374(3) 1.0775(4) -1.1844(9)
H4 H -0.0625 1.1503 -1.3593
Cd1F Cd 0.0000 0.42129(4) -0.7500
Cd1F_2 Cd 0.0000 0.42129(4) -1.7500
I1D I 0.109910(18) 0.41015(3) -1.01382(4)
I1F I -0.109910(18) 0.41015(3) -1.48618(4)
I1B I 0.109910(18) 0.58985(3) -1.51382(4)
N1B N -0.0721(2) 0.7517(3) -1.3890(5)
C1B C -0.1424(3) 0.7505(6) -1.5233(8)
H1B H -0.1639 0.6769 -1.5724
C2B C -0.1854(4) 0.8556(7) -1.5933(10)
H2B H -0.2350 0.8523 -1.6859
C3B C -0.1524(5) 0.9641(7) -1.5219(10)
H3B H -0.1807 1.0350 -1.5647
C4B C -0.0771(4) 0.9686(4) -1.3859(9)
C5B C -0.0379(2) 0.8587(4) -1.3199(6)
C6B C -0.0374(3) 1.0775(4) -1.3156(9)
H4B H 0.0625 1.1503 -1.1407
loop_
_geom_bond_atom_site_label_1
_geom_bond_atom_site_label_2
_geom_bond_site_symmetry_1
_geom_bond_site_symmetry_2
Cd1 I1 1_555 1_555
I1 Cd1F 1_555 1_555
N1 Cd1 1_555 1_555
C1 N1 1_555 1_555
H1 C1 1_555 1_555
C2 C1 1_555 1_555
H2 C2 1_555 1_555
C3 C2 1_555 1_555
H3 C3 1_555 1_555
C4 C3 1_555 1_555
C5 N1 1_555 1_555
C6 C4 1_555 1_555
H4 C6B 1_555 1_555
Cd1F I1D 1_555 1_555
Cd1F_2 I1F 1_555 1_555
I1D Cd1 1_555 1_555
I1F Cd1 1_555 1_555
I1B Cd1 1_555 1_555
N1B Cd1 1_555 1_555
C1B N1B 1_555 1_555
H1B C1B 1_555 1_555
C2B C1B 1_555 1_555
H2B C2B 1_555 1_555
C3B C2B 1_555 1_555
H3B C3B 1_555 1_555
C4B C3B 1_555 1_555
C5B C5 1_555 1_555
C6B C6 1_555 1_555
H4B C6 1_555 1_555
C4 C5 1_555 1_555
Cd1F_2 I1B 1_555 1_555
N1B C5B 1_555 1_555
C4B C5B 1_555 1_555
C4B C6B 1_555 1_555

#END
