
#######################################################################
#
#                 Cambridge Crystallographic Data Centre
#                                CCDC 
#
#######################################################################
#
# If this CIF has been generated from an entry in the Cambridge 
# Structural Database, then it will include bibliographic, chemical, 
# crystal, experimental, refinement or atomic coordinate data resulting 
# from the CCDC's data processing and validation procedures.
#
#######################################################################

data_KERGEU
_symmetry_cell_setting           orthorhombic
_symmetry_space_group_name_H-M   'I 21 21 21'
_symmetry_Int_Tables_number      24
_space_group_name_Hall           'I 2b 2c'
loop_
_symmetry_equiv_pos_site_id
_symmetry_equiv_pos_as_xyz
1 x,y,z
2 -x,1/2-y,z
3 x,-y,1/2-z
4 1/2-x,y,-z
5 1/2+x,1/2+y,1/2+z
6 1/2-x,-y,1/2+z
7 1/2+x,1/2-y,-z
8 -x,1/2+y,1/2-z
_cell_length_a                   9.802(2)
_cell_length_b                   13.696(3)
_cell_length_c                   31.459(6)
_cell_angle_alpha                90
_cell_angle_beta                 90
_cell_angle_gamma                90
_cell_volume                     4223.31
loop_
_atom_site_label
_atom_site_type_symbol
_atom_site_fract_x
_atom_site_fract_y
_atom_site_fract_z
C1 C -0.0816(5) 0.1187(4) 0.38150(16)
H1 H -0.0859 0.1163 0.4110
C2 C 0.0462(6) 0.1222(6) 0.36220(18)
H2 H 0.1252 0.1232 0.3786
C3 C 0.0537(5) 0.1242(5) 0.31911(18)
H3 H 0.1384 0.1251 0.3058
C4 C -0.0649(5) 0.1249(5) 0.29480(16)
C5 C -0.1881(5) 0.1220(5) 0.31663(15)
C6 C -0.3173(5) 0.1254(4) 0.29418(15)
C7 C -0.5514(5) 0.1266(5) 0.29899(16)
H4 H -0.6302 0.1271 0.3154
C8 C -0.5645(5) 0.1253(6) 0.25513(15)
H5 H -0.6505 0.1256 0.2427
C9 C -0.4500(5) 0.1237(5) 0.23035(16)
H6 H -0.4577 0.1213 0.2009
C10 C -0.3217(5) 0.1255(5) 0.24946(15)
C11 C -0.1926(5) 0.1252(5) 0.22614(16)
C12 C -0.0671(5) 0.1250(5) 0.24817(16)
C13 C 0.0489(5) 0.1262(5) 0.18470(17)
C14 C 0.1723(6) 0.1260(6) 0.16121(19)
H7 H 0.2560 0.1281 0.1751
C15 C 0.1662(6) 0.1227(6) 0.1181(2)
H8 H 0.2469 0.1237 0.1025
C16 C 0.0414(6) 0.1177(6) 0.09638(18)
H9 H 0.0407 0.1128 0.0669
C17 C -0.0783(6) 0.1201(5) 0.11797(18)
H10 H -0.1606 0.1187 0.1033
C18 C -0.0775(6) 0.1246(5) 0.16290(16)
C19 C -0.6515(5) 0.2030(5) 0.42716(15)
C20 C -0.7027(5) 0.1460(4) 0.46467(17)
C21 C -0.7014(6) 0.0452(5) 0.4653(2)
H11 H -0.6675 0.0107 0.4421
C22 C -0.7500 -0.0041(7) 0.5000
H12 H -0.7500 -0.0720 0.5000
C23 C -0.7500 0.1968(6) 0.5000
H13 H -0.7500 0.2647 0.5000
C24 C -0.4454(6) -0.0716(5) 0.4023(2)
C25 C -0.4690(6) -0.1653(5) 0.42481(19)
C26 C -0.4635(9) -0.1666(5) 0.4684(2)
H14 H -0.4351 -0.1112 0.4830
C27 C -0.5000 -0.2500 0.4909(4)
H15 H -0.5000 -0.2500 0.5205
C28 C -0.5000 -0.2500 0.4033(3)
H16 H -0.5000 -0.2500 0.3738
N1 N -0.4320(4) 0.1273(4) 0.31853(12)
N2 N -0.1975(4) 0.1185(4) 0.35973(13)
N3 N 0.0522(4) 0.1274(4) 0.22815(14)
N4 N -0.1988(4) 0.1247(4) 0.18385(13)
O1 O -0.6069(4) 0.1543(3) 0.39526(10)
O2 O -0.8412(4) 0.2928(3) 0.57184(12)
O3 O -0.5006(5) -0.0574(4) 0.36758(15)
O4 O -0.3743(4) -0.0046(3) 0.42080(16)
Co1 Co -0.40707(7) 0.11406(6) 0.38385(2)
C1C C -1.4184(5) 0.1187(4) 0.61850(16)
H1C H -1.4141 0.1163 0.5890
C2C C -1.5462(6) 0.1222(6) 0.63780(18)
H2C H -1.6252 0.1232 0.6214
C3C C -1.5537(5) 0.1242(5) 0.68089(18)
H3C H -1.6384 0.1251 0.6942
C4C C -1.4351(5) 0.1249(5) 0.70520(16)
C5C C -1.3119(5) 0.1220(5) 0.68337(15)
C6C C -1.1827(5) 0.1254(4) 0.70582(15)
C7C C -0.9486(5) 0.1266(5) 0.70101(16)
H4C H -0.8698 0.1271 0.6846
C8C C -0.9355(5) 0.1253(6) 0.74487(15)
H5C H -0.8495 0.1256 0.7573
C9C C -1.0500(5) 0.1237(5) 0.76965(16)
H6C H -1.0423 0.1213 0.7991
C10C C -1.1783(5) 0.1255(5) 0.75054(15)
C11C C -1.3074(5) 0.1252(5) 0.77386(16)
C12C C -1.4329(5) 0.1250(5) 0.75183(16)
C13C C -1.5489(5) 0.1262(5) 0.81530(17)
C14C C -1.6723(6) 0.1260(6) 0.83879(19)
H7C H -1.7560 0.1281 0.8249
C15C C -1.6662(6) 0.1227(6) 0.8819(2)
H8C H -1.7469 0.1237 0.8975
C16C C -1.5414(6) 0.1177(6) 0.90362(18)
H9C H -1.5407 0.1128 0.9331
C17C C -1.4217(6) 0.1201(5) 0.88203(18)
H10C H -1.3394 0.1187 0.8967
C18C C -1.4225(6) 0.1246(5) 0.83710(16)
C19C C -0.8485(5) 0.2030(5) 0.57284(15)
C20C C -0.7973(5) 0.1460(4) 0.53533(17)
C21C C -0.7986(6) 0.0452(5) 0.5347(2)
H11C H -0.8325 0.0107 0.5579
C24A C -0.5546(6) -0.4284(5) 0.4023(2)
C25A C -0.5310(6) -0.3347(5) 0.42481(19)
C26A C -0.5365(9) -0.3334(5) 0.4684(2)
H14A H -0.5649 -0.3888 0.4830
N1C N -1.0680(4) 0.1273(4) 0.68147(12)
N2C N -1.3025(4) 0.1185(4) 0.64027(13)
N3C N -1.5522(4) 0.1274(4) 0.77185(14)
N4C N -1.3012(4) 0.1247(4) 0.81615(13)
O1C O -0.8931(4) 0.1543(3) 0.60474(10)
O2A O -1.1588(4) 0.2072(3) 0.57184(12)
O2F O -0.3412(4) 0.2072(3) 0.42816(12)
O2C O -0.6588(4) 0.2928(3) 0.42816(12)
O3A O -0.4994(5) -0.4426(4) 0.36758(15)
O4C O -1.1257(4) -0.0046(3) 0.57920(16)
O4A O -0.6257(4) -0.4954(3) 0.42080(16)
Co1C Co -1.09293(7) 0.11406(6) 0.61615(2)
Co1F Co -0.90707(7) 0.38594(6) 0.61615(2)
Co1A Co -0.59293(7) 0.38594(6) 0.38385(2)
Co1A_2 Co -0.59293(7) -0.61406(6) 0.38385(2)
O5 O -0.3532(12) 0.0350(11) 0.5197(3)
loop_
_geom_bond_atom_site_label_1
_geom_bond_atom_site_label_2
_geom_bond_site_symmetry_1
_geom_bond_site_symmetry_2
C1 H1 1_555 1_555
C2 C1 1_555 1_555
H2 C2 1_555 1_555
C3 C2 1_555 1_555
H3 C3 1_555 1_555
C4 C3 1_555 1_555
C5 C4 1_555 1_555
C6 C5 1_555 1_555
C7 H4 1_555 1_555
C8 C7 1_555 1_555
H5 C8 1_555 1_555
C9 C8 1_555 1_555
H6 C9 1_555 1_555
C10 C6 1_555 1_555
C11 C10 1_555 1_555
C12 C4 1_555 1_555
C13 C14 1_555 1_555
C14 H7 1_555 1_555
C15 C14 1_555 1_555
H8 C15 1_555 1_555
C16 C15 1_555 1_555
H9 C16 1_555 1_555
C17 C16 1_555 1_555
H10 C17 1_555 1_555
C18 C13 1_555 1_555
C19 C20 1_555 1_555
C20 C21 1_555 1_555
C21 H11 1_555 1_555
C22 C21 1_555 1_555
H12 C22 1_555 1_555
C23 C20 1_555 1_555
H13 C23 1_555 1_555
C24 C25 1_555 1_555
C25 C26 1_555 1_555
C26 H14 1_555 1_555
C27 C26 1_555 1_555
H15 C27 1_555 1_555
C28 C25 1_555 1_555
H16 C28 1_555 1_555
N1 C6 1_555 1_555
N2 C1 1_555 1_555
N3 C12 1_555 1_555
N4 C11 1_555 1_555
O1 C19 1_555 1_555
O2 C19C 1_555 1_555
O3 C24 1_555 1_555
O4 C24 1_555 1_555
Co1 N1 1_555 1_555
C1C H1C 1_555 1_555
C2C C1C 1_555 1_555
H2C C2C 1_555 1_555
C3C C2C 1_555 1_555
H3C C3C 1_555 1_555
C4C C3C 1_555 1_555
C5C C4C 1_555 1_555
C6C C5C 1_555 1_555
C7C H4C 1_555 1_555
C8C C7C 1_555 1_555
H5C C8C 1_555 1_555
C9C C8C 1_555 1_555
H6C C9C 1_555 1_555
C10C C6C 1_555 1_555
C11C C10C 1_555 1_555
C12C C4C 1_555 1_555
C13C C14C 1_555 1_555
C14C H7C 1_555 1_555
C15C C14C 1_555 1_555
H8C C15C 1_555 1_555
C16C C15C 1_555 1_555
H9C C16C 1_555 1_555
C17C C16C 1_555 1_555
H10C C17C 1_555 1_555
C18C C13C 1_555 1_555
C19C C20C 1_555 1_555
C20C C23 1_555 1_555
C21C C22 1_555 1_555
H11C C21C 1_555 1_555
C24A C25A 1_555 1_555
C25A C28 1_555 1_555
C26A C27 1_555 1_555
H14A C26A 1_555 1_555
N1C C6C 1_555 1_555
N2C C1C 1_555 1_555
N3C C12C 1_555 1_555
N4C C11C 1_555 1_555
O1C C19C 1_555 1_555
O2A Co1C 1_555 1_555
O2F Co1 1_555 1_555
O2C C19 1_555 1_555
O3A C24A 1_555 1_555
O4C Co1C 1_555 1_555
O4A C24A 1_555 1_555
Co1C N1C 1_555 1_555
Co1F O2 1_555 1_555
Co1A O2C 1_555 1_555
Co1A_2 O4A 1_555 1_555
C5 N2 1_555 1_555
C7 N1 1_555 1_555
C9 C10 1_555 1_555
C11 C12 1_555 1_555
C13 N3 1_555 1_555
C17 C18 1_555 1_555
C18 N4 1_555 1_555
N2 Co1 1_555 1_555
O1 Co1 1_555 1_555
O4 Co1 1_555 1_555
C5C N2C 1_555 1_555
C7C N1C 1_555 1_555
C9C C10C 1_555 1_555
C11C C12C 1_555 1_555
C13C N3C 1_555 1_555
C17C C18C 1_555 1_555
C18C N4C 1_555 1_555
C20C C21C 1_555 1_555
C25A C26A 1_555 1_555
N2C Co1C 1_555 1_555
O1C Co1C 1_555 1_555

#END
