
#######################################################################
#
#                 Cambridge Crystallographic Data Centre
#                                CCDC 
#
#######################################################################
#
# If this CIF has been generated from an entry in the Cambridge 
# Structural Database, then it will include bibliographic, chemical, 
# crystal, experimental, refinement or atomic coordinate data resulting 
# from the CCDC's data processing and validation procedures.
#
#######################################################################

data_KERGAQ
_symmetry_cell_setting           tetragonal
_symmetry_space_group_name_H-M   'I 41/a'
_symmetry_Int_Tables_number      88
_space_group_name_Hall           '-I 4ad'
loop_
_symmetry_equiv_pos_site_id
_symmetry_equiv_pos_as_xyz
1 x,y,z
2 3/4-y,1/4+x,1/4+z
3 1/2+x,1/2+y,1/2+z
4 1/4-y,3/4+x,3/4+z
5 1/4+y,1/4-x,1/4+z
6 1/2-x,-y,1/2+z
7 3/4+y,3/4-x,3/4+z
8 -x,1/2-y,z
9 -x,-y,-z
10 1/4+y,3/4-x,3/4-z
11 1/2-x,1/2-y,1/2-z
12 3/4+y,1/4-x,1/4-z
13 3/4-y,3/4+x,3/4-z
14 1/2+x,y,1/2-z
15 1/4-y,1/4+x,1/4-z
16 x,1/2+y,-z
_cell_length_a                   14.9585(4)
_cell_length_b                   14.9585(4)
_cell_length_c                   14.2034(4)
_cell_angle_alpha                90
_cell_angle_beta                 90
_cell_angle_gamma                90
_cell_volume                     3178.11
loop_
_atom_site_label
_atom_site_type_symbol
_atom_site_fract_x
_atom_site_fract_y
_atom_site_fract_z
Cd1 Cd 0.0000 0.2500 -0.63720(2)
O1 O 0.0087(2) 0.13770(10) -0.52290(10)
O2 O -0.12890(10) 0.19050(10) -0.52830(10)
O3 O -0.38780(10) -0.27140(10) -0.4970(2)
O4 O -0.42220(10) -0.13040(10) -0.52680(10)
N1 N -0.18090(10) 0.03560(10) -0.4195(2)
N2 N -0.27760(10) -0.0716(2) -0.4175(2)
C1 C -0.0712(2) 0.1403(2) -0.4961(2)
C2 C -0.0932(2) 0.0793(2) -0.4135(2)
C3 C -0.2641(2) 0.0748(2) -0.4163(2)
C4 C -0.3242(2) 0.0078(2) -0.4145(2)
C5 C -0.1914(2) -0.0525(2) -0.4212(2)
C6 C -0.3129(2) -0.1626(2) -0.4085(2)
C7 C -0.3792(2) -0.1889(2) -0.4840(2)
H1 H -0.0475 0.0336 -0.4091
H2 H -0.0910 0.1142 -0.3559
H3 H -0.2764 0.1357 -0.4155
H4 H -0.3860 0.0141 -0.4118
H5 H -0.1453 -0.0941 -0.4245
H6 H -0.3416 -0.1683 -0.3476
H7 H -0.2632 -0.2043 -0.4100
Cd1I Cd -0.5000 -0.2500 -0.61280(2)
Cd1I_2 Cd 0.5000 0.7500 -0.61280(2)
O1G O -0.0087(2) 0.36230(10) -0.52290(10)
O2G O 0.12890(10) 0.30950(10) -0.52830(10)
O3L O 0.02140(10) 0.36220(10) -0.7530(2)
O3I O -0.02140(10) 0.13780(10) -0.7530(2)
O3G O 0.38780(10) 0.77140(10) -0.4970(2)
O4L O -0.11960(10) 0.32780(10) -0.72320(10)
O4I O 0.11960(10) 0.17220(10) -0.72320(10)
O4G O 0.42220(10) 0.63040(10) -0.52680(10)
N1G N 0.18090(10) 0.46440(10) -0.4195(2)
N2G N 0.27760(10) 0.5716(2) -0.4175(2)
C1G C 0.0712(2) 0.3597(2) -0.4961(2)
C2G C 0.0932(2) 0.4207(2) -0.4135(2)
C3G C 0.2641(2) 0.4252(2) -0.4163(2)
C4G C 0.3242(2) 0.4922(2) -0.4145(2)
C5G C 0.1914(2) 0.5525(2) -0.4212(2)
C6G C 0.3129(2) 0.6626(2) -0.4085(2)
C7G C 0.3792(2) 0.6889(2) -0.4840(2)
H1G H 0.0475 0.4664 -0.4091
H2G H 0.0910 0.3858 -0.3559
H3G H 0.2764 0.3643 -0.4155
H4G H 0.3860 0.4859 -0.4118
H5G H 0.1453 0.5941 -0.4245
H6G H 0.3416 0.6683 -0.3476
H7G H 0.2632 0.7043 -0.4100
loop_
_geom_bond_atom_site_label_1
_geom_bond_atom_site_label_2
_geom_bond_site_symmetry_1
_geom_bond_site_symmetry_2
Cd1 O1 1_555 1_555
O1 C1 1_555 1_555
O2 Cd1 1_555 1_555
O3 C7 1_555 1_555
O4 C7 1_555 1_555
N1 C2 1_555 1_555
N2 C4 1_555 1_555
C1 O2 1_555 1_555
C2 C1 1_555 1_555
C3 N1 1_555 1_555
C4 C3 1_555 1_555
C5 N1 1_555 1_555
C6 N2 1_555 1_555
C7 C6 1_555 1_555
H1 C2 1_555 1_555
H2 C2 1_555 1_555
H3 C3 1_555 1_555
H4 C4 1_555 1_555
H5 C5 1_555 1_555
H6 C6 1_555 1_555
H7 C6 1_555 1_555
Cd1I O3 1_555 1_555
Cd1I_2 O3G 1_555 1_555
O1G Cd1 1_555 1_555
O2G Cd1 1_555 1_555
O3L Cd1 1_555 1_555
O3I Cd1 1_555 1_555
O3G C7G 1_555 1_555
O4L Cd1 1_555 1_555
O4I Cd1 1_555 1_555
O4G Cd1I_2 1_555 1_555
N1G C2G 1_555 1_555
N2G C4G 1_555 1_555
C1G O1G 1_555 1_555
C2G C1G 1_555 1_555
C3G N1G 1_555 1_555
C4G C3G 1_555 1_555
C5G N1G 1_555 1_555
C6G N2G 1_555 1_555
C7G O4G 1_555 1_555
H1G C2G 1_555 1_555
H2G C2G 1_555 1_555
H3G C3G 1_555 1_555
H4G C4G 1_555 1_555
H5G C5G 1_555 1_555
H6G C6G 1_555 1_555
H7G C6G 1_555 1_555
O4 Cd1I 1_555 1_555
N2 C5 1_555 1_555
O2G C1G 1_555 1_555
N2G C5G 1_555 1_555
C6G C7G 1_555 1_555

#END
