
#######################################################################
#
#                 Cambridge Crystallographic Data Centre
#                                CCDC 
#
#######################################################################
#
# If this CIF has been generated from an entry in the Cambridge 
# Structural Database, then it will include bibliographic, chemical, 
# crystal, experimental, refinement or atomic coordinate data resulting 
# from the CCDC's data processing and validation procedures.
#
#######################################################################

data_KERKEY
_symmetry_cell_setting           monoclinic
_symmetry_space_group_name_H-M   'P c'
_symmetry_Int_Tables_number      7
_space_group_name_Hall           'P -2yc'
loop_
_symmetry_equiv_pos_site_id
_symmetry_equiv_pos_as_xyz
1 x,y,z
2 x,-y,1/2+z
_cell_length_a                   10.886(5)
_cell_length_b                   11.525(5)
_cell_length_c                   13.236(6)
_cell_angle_alpha                90
_cell_angle_beta                 95.249(6)
_cell_angle_gamma                90
_cell_volume                     1653.64
loop_
_atom_site_label
_atom_site_type_symbol
_atom_site_fract_x
_atom_site_fract_y
_atom_site_fract_z
Sn1 Sn 0.38379(5) 0.47796(4) 0.97654(4)
Sn2 Sn 0.85269(5) 0.39205(5) 0.75091(4)
N1 N 0.6540(6) 0.5467(6) 0.8555(6)
N2 N 0.7723(6) 0.5486(5) 0.8250(5)
N3 N 0.2715(7) 0.2916(6) 1.0268(5)
N4 N -0.0481(7) -0.2108(6) 1.1759(6)
S1 S 0.7431(2) 0.74312(17) 0.90677(18)
S2 S 0.4846(2) 0.6756(2) 0.9437(2)
S3 S 0.9816(2) 0.6751(2) 0.8250(2)
C1 C 0.6240(8) 0.6425(7) 0.8968(7)
C2 C 0.8359(7) 0.6446(6) 0.8477(6)
C3 C 0.3495(11) 0.4253(9) 0.8240(8)
H1 H 0.2784 0.4654 0.7932
H2 H 0.3348 0.3432 0.8213
H3 H 0.4198 0.4434 0.7880
C4 C 0.5349(9) 0.4057(9) 1.0675(9)
H4 H 0.5383 0.4384 1.1344
H5 H 0.6100 0.4228 1.0379
H6 H 0.5247 0.3231 1.0715
C5 C 0.2349(8) 0.5716(8) 1.0367(9)
H7 H 0.2584 0.5923 1.1060
H8 H 0.1627 0.5235 1.0333
H9 H 0.2175 0.6407 0.9974
C6 C 0.9881(9) 0.3637(8) 0.8738(8)
H10 H 0.9522 0.3215 0.9263
H11 H 1.0184 0.4370 0.9000
H12 H 1.0551 0.3197 0.8508
C7 C 0.6828(8) 0.3003(8) 0.7393(9)
H13 H 0.6727 0.2620 0.8024
H14 H 0.6828 0.2436 0.6861
H15 H 0.6160 0.3537 0.7240
C8 C 0.8904(10) 0.4822(7) 0.6171(7)
H16 H 0.8168 0.4858 0.5713
H17 H 0.9536 0.4420 0.5850
H18 H 0.9177 0.5595 0.6344
C9 C 0.2068(10) 0.2896(8) 1.1084(8)
H19 H 0.2043 0.3569 1.1469
C10 C 0.1430(11) 0.1927(9) 1.1390(8)
H20 H 0.1015 0.1959 1.1974
C11 C 0.1415(8) 0.0932(7) 1.0832(6)
C12 C 0.2062(11) 0.0962(8) 0.9981(8)
H21 H 0.2090 0.0306 0.9575
C13 C 0.2656(9) 0.1942(8) 0.9734(8)
H22 H 0.3055 0.1930 0.9142
C14 C -0.0409(10) -0.1127(8) 1.2325(8)
H23 H -0.0768 -0.1122 1.2936
C15 C 0.0168(10) -0.0144(8) 1.2035(8)
H24 H 0.0187 0.0509 1.2449
C16 C 0.0729(8) -0.0105(6) 1.1132(7)
C17 C 0.0601(9) -0.1107(7) 1.0548(7)
H25 H 0.0911 -0.1125 0.9916
C18 C 0.0031(9) -0.2057(8) 1.0885(7)
H26 H -0.0004 -0.2717 1.0480
Sn2A Sn -0.14731(5) -0.39205(5) 1.25091(4)
N4A N 0.9519(7) 0.2108(6) 0.6759(6)
N5 N 0.8027(11) 0.8740(8) 0.4590(8)
N6 N 0.3368(9) 1.0333(10) 0.7765(8)
C19 C 0.8020(10) 0.8317(10) 0.5515(10)
H27 H 0.8637 0.7794 0.5736
C20 C 0.7148(9) 0.8603(9) 0.6185(8)
H28 H 0.7203 0.8293 0.6836
C21 C 0.6177(9) 0.9373(7) 0.5855(7)
C22 C 0.6178(12) 0.9781(9) 0.4891(10)
H29 H 0.5553 1.0273 0.4626
C23 C 0.7119(15) 0.9460(10) 0.4299(10)
H30 H 0.7106 0.9776 0.3652
C24 C 0.3754(12) 1.1020(10) 0.7061(11)
H31 H 0.3384 1.1746 0.6986
C25 C 0.4643(9) 1.0767(8) 0.6434(8)
H32 H 0.4865 1.1308 0.5962
C26 C 0.5211(9) 0.9689(7) 0.6512(7)
C27 C 0.4814(10) 0.8945(9) 0.7231(8)
H33 H 0.5159 0.8209 0.7308
C28 C 0.3908(11) 0.9283(11) 0.7840(10)
H34 H 0.3663 0.8763 0.8320
loop_
_geom_bond_atom_site_label_1
_geom_bond_atom_site_label_2
_geom_bond_site_symmetry_1
_geom_bond_site_symmetry_2
Sn1 N3 1_555 1_555
Sn2 N2 1_555 1_555
N1 N2 1_555 1_555
N2 C2 1_555 1_555
N3 C9 1_555 1_555
N4 C14 1_555 1_555
N5 C19 1_555 1_555
N6 C24 1_555 1_555
S1 C1 1_555 1_555
S2 Sn1 1_555 1_555
S3 C2 1_555 1_555
C1 N1 1_555 1_555
C2 S1 1_555 1_555
C3 Sn1 1_555 1_555
H1 C3 1_555 1_555
H2 C3 1_555 1_555
H3 C3 1_555 1_555
C4 Sn1 1_555 1_555
H4 C4 1_555 1_555
H5 C4 1_555 1_555
H6 C4 1_555 1_555
C5 Sn1 1_555 1_555
H7 C5 1_555 1_555
H8 C5 1_555 1_555
H9 C5 1_555 1_555
C6 Sn2 1_555 1_555
H10 C6 1_555 1_555
H11 C6 1_555 1_555
H12 C6 1_555 1_555
C7 Sn2 1_555 1_555
H13 C7 1_555 1_555
H14 C7 1_555 1_555
H15 C7 1_555 1_555
C8 Sn2 1_555 1_555
H16 C8 1_555 1_555
H17 C8 1_555 1_555
H18 C8 1_555 1_555
C9 H19 1_555 1_555
C10 C9 1_555 1_555
H20 C10 1_555 1_555
C11 C10 1_555 1_555
C12 C11 1_555 1_555
H21 C12 1_555 1_555
C13 N3 1_555 1_555
H22 C13 1_555 1_555
C14 H23 1_555 1_555
C15 C14 1_555 1_555
H24 C15 1_555 1_555
C16 C11 1_555 1_555
C17 C16 1_555 1_555
H25 C17 1_555 1_555
C18 N4 1_555 1_555
H26 C18 1_555 1_555
C19 H27 1_555 1_555
C20 C19 1_555 1_555
H28 C20 1_555 1_555
C21 C20 1_555 1_555
C22 C21 1_555 1_555
H29 C22 1_555 1_555
C23 N5 1_555 1_555
H30 C23 1_555 1_555
C24 H31 1_555 1_555
C25 C24 1_555 1_555
H32 C25 1_555 1_555
C26 C21 1_555 1_555
C27 C26 1_555 1_555
H33 C27 1_555 1_555
C28 N6 1_555 1_555
H34 C28 1_555 1_555
Sn2A N4 1_555 1_555
N4A Sn2 1_555 1_555
S2 C1 1_555 1_555
C12 C13 1_555 1_555
C15 C16 1_555 1_555
C17 C18 1_555 1_555
C22 C23 1_555 1_555
C25 C26 1_555 1_555
C27 C28 1_555 1_555

#END
