
#######################################################################
#
#                 Cambridge Crystallographic Data Centre
#                                CCDC 
#
#######################################################################
#
# If this CIF has been generated from an entry in the Cambridge 
# Structural Database, then it will include bibliographic, chemical, 
# crystal, experimental, refinement or atomic coordinate data resulting 
# from the CCDC's data processing and validation procedures.
#
#######################################################################

data_KERKID
_symmetry_cell_setting           monoclinic
_symmetry_space_group_name_H-M   'P 21'
_symmetry_Int_Tables_number      4
_space_group_name_Hall           'P 2yb'
loop_
_symmetry_equiv_pos_site_id
_symmetry_equiv_pos_as_xyz
1 x,y,z
2 -x,1/2+y,-z
_cell_length_a                   13.279(2)
_cell_length_b                   14.915(3)
_cell_length_c                   27.4278(15)
_cell_angle_alpha                90
_cell_angle_beta                 102.879(3)
_cell_angle_gamma                90
_cell_volume                     5295.59
loop_
_atom_site_label
_atom_site_type_symbol
_atom_site_fract_x
_atom_site_fract_y
_atom_site_fract_z
B1 B 0.8067(4) 0.6129(4) 0.8646(2)
H1 H 0.8401 0.6425 0.8395
C1 C 0.8769(3) 0.3221(3) 0.95206(18)
H3 H 0.8740 0.3479 0.9838
H4 H 0.9364 0.2839 0.9561
H5 H 0.8156 0.2874 0.9397
C2 C 0.8841(3) 0.3924(3) 0.91707(18)
C3 C 0.9362(3) 0.3927(3) 0.87761(17)
H6 H 0.9754 0.3458 0.8693
C4 C 0.9195(3) 0.4740(3) 0.85337(17)
C5 C 0.9612(4) 0.5035(4) 0.81197(18)
H7 H 0.9059 0.5220 0.7850
H8 H 0.9984 0.4551 0.8010
H9 H 1.0072 0.5530 0.8223
C6 C 0.8304(3) 0.6979(3) 1.03991(17)
H10 H 0.7646 0.6732 1.0417
H11 H 0.8386 0.7556 1.0558
H12 H 0.8844 0.6586 1.0566
C7 C 0.8359(3) 0.7073(3) 0.98889(17)
C8 C 0.8807(4) 0.7770(4) 0.9688(2)
H13 H 0.9075 0.8295 0.9850
C9 C 0.8783(4) 0.7556(3) 0.92358(18)
C10 C 0.9234(4) 0.8033(4) 0.88025(19)
H14 H 0.9768 0.8448 0.8950
H15 H 0.8688 0.8350 0.8581
H16 H 0.9514 0.7587 0.8618
C11 C 0.4689(3) 0.5011(3) 0.88567(17)
H17 H 0.4764 0.4370 0.8856
H18 H 0.4000 0.5170 0.8686
H19 H 0.4816 0.5223 0.9195
C12 C 0.5433(3) 0.5422(3) 0.86005(17)
C13 C 0.5272(3) 0.5765(3) 0.81242(17)
H20 H 0.4644 0.5784 0.7892
C14 C 0.6225(3) 0.6083(3) 0.80501(17)
C15 C 0.6476(4) 0.6504(4) 0.76064(18)
H21 H 0.6582 0.7135 0.7664
H22 H 0.5916 0.6411 0.7322
H23 H 0.7094 0.6239 0.7544
C16 C 0.8110(3) 0.4927(3) 1.01657(16)
C17 C 0.6667(3) 0.4124(3) 0.95419(16)
C18 C 0.6298(3) 0.5799(3) 0.97927(16)
C19 C 0.71608(15) 0.1154(2) 0.96302(10)
C20 C 0.7571(2) 0.0698(2) 0.92772(8)
H24 H 0.7156 0.0567 0.8965
C21 C 0.8602(2) 0.0436(2) 0.93910(10)
H25 H 0.8876 0.0131 0.9155
C22 C 0.92222(16) 0.0631(2) 0.98577(11)
H26 H 0.9912 0.0457 0.9934
C23 C 0.88121(18) 0.1088(2) 1.02107(8)
H27 H 0.9227 0.1218 1.0523
C24 C 0.77814(19) 0.1349(2) 1.00969(9)
C25 C 0.7408(3) 0.1778(3) 1.04853(18)
H28 H 0.7872 0.1839 1.0792
C26 C 0.6153(3) 0.2472(3) 1.08809(17)
H29 H 0.5661 0.2048 1.0971
C27 C 0.70316(17) 0.2595(2) 1.13437(9)
C28 C 0.7718(2) 0.33085(17) 1.13829(9)
H30 H 0.7619 0.3748 1.1136
C29 C 0.85514(19) 0.33658(18) 1.17907(11)
H31 H 0.9010 0.3843 1.1817
C30 C 0.86991(19) 0.2709(2) 1.21593(9)
H32 H 0.9257 0.2747 1.2432
C31 C 0.8013(2) 0.1995(2) 1.21202(10)
H33 H 0.8112 0.1555 1.2367
C32 C 0.7179(2) 0.19377(18) 1.17123(11)
H34 H 0.6720 0.1460 1.1686
C33 C 0.5554(3) 0.3299(3) 1.06802(17)
H35 H 0.6055 0.3753 1.0629
C34 C 0.4987(2) 0.3673(2) 1.10656(11)
C35 C 0.5274(2) 0.4544(2) 1.12173(12)
H36 H 0.5781 0.4836 1.1092
C36 C 0.4803(2) 0.49766(16) 1.15562(12)
H37 H 0.4995 0.5559 1.1658
C37 C 0.4045(2) 0.4539(2) 1.17434(11)
H38 H 0.3730 0.4829 1.1970
C38 C 0.3758(2) 0.3669(2) 1.15917(12)
H39 H 0.3251 0.3377 1.1717
C39 C 0.4229(2) 0.32361(15) 1.12528(12)
H40 H 0.4038 0.2654 1.1151
C40 C 0.4071(3) 0.3638(3) 1.00347(17)
H41 H 0.3894 0.4056 1.0253
C41 C 0.34412(19) 0.3597(2) 0.95356(8)
C42 C 0.2654(2) 0.4229(2) 0.94315(10)
H42 H 0.2536 0.4605 0.9684
C43 C 0.2043(2) 0.4300(2) 0.89506(12)
H43 H 0.1516 0.4724 0.8881
C44 C 0.2219(2) 0.3739(2) 0.85738(9)
H44 H 0.1810 0.3787 0.8252
C45 C 0.3007(2) 0.3106(2) 0.86779(9)
H45 H 0.3125 0.2731 0.8426
C46 C 0.36177(19) 0.30354(19) 0.91588(10)
Fe1 Fe 0.73085(4) 0.52626(7) 0.95047(2)
Mn1 Mn 0.54350(5) 0.22151(7) 0.98032(2)
N1 N 0.8336(3) 0.4747(3) 0.91629(14)
N2 N 0.8592(3) 0.5214(3) 0.87772(14)
N3 N 0.8050(3) 0.6444(3) 0.95361(15)
N4 N 0.8316(3) 0.6718(3) 0.91041(14)
N5 N 0.6427(3) 0.5574(3) 0.88291(15)
N6 N 0.6903(3) 0.5984(3) 0.84806(13)
N7 N 0.8555(3) 0.4685(3) 1.05536(16)
N8 N 0.6319(3) 0.3442(3) 0.95792(16)
N9 N 0.5649(3) 0.6150(3) 0.99533(16)
N10 N 0.6499(3) 0.2088(3) 1.04542(14)
N11 N 0.4887(3) 0.3123(3) 1.02048(15)
O1 O 0.6165(2) 0.1389(2) 0.94883(12)
O2 O 0.4378(2) 0.2404(2) 0.92258(11)
Mn1A Mn 0.45650(5) 0.72151(7) 1.01968(2)
N9A N 0.4351(3) 0.1150(3) 1.00467(16)
B2 B 0.2174(4) 0.8890(4) 0.6466(2)
H2 H 0.1971 0.8380 0.6775
C47 C 0.5628(4) 1.0022(4) 0.6316(2)
H46 H 0.5913 0.9625 0.6107
H47 H 0.6168 1.0230 0.6586
H48 H 0.5312 1.0525 0.6122
C48 C 0.4836(3) 0.9535(3) 0.65231(18)
C49 C 0.4983(4) 0.9211(4) 0.70088(19)
H49 H 0.5589 0.9225 0.7256
C50 C 0.4067(4) 0.8875(3) 0.70459(18)
C51 C 0.3750(4) 0.8442(4) 0.74932(19)
H50 H 0.3550 0.8899 0.7699
H51 H 0.4323 0.8110 0.7685
H52 H 0.3179 0.8043 0.7377
C52 C 0.1543(4) 1.1868(4) 0.56221(19)
H53 H 0.2206 1.2145 0.5739
H54 H 0.1008 1.2298 0.5626
H55 H 0.1487 1.1654 0.5287
C53 C 0.1429(4) 1.1065(3) 0.59692(18)
C54 C 0.0838(4) 1.1035(4) 0.63223(18)
H56 H 0.0401 1.1480 0.6394
C55 C 0.1020(3) 1.0250(4) 0.65366(18)
C56 C 0.0617(4) 0.9808(4) 0.69674(19)
H57 H 0.0072 1.0167 0.7043
H58 H 0.1171 0.9762 0.7259
H59 H 0.0358 0.9220 0.6867
C57 C 0.1940(4) 0.8157(4) 0.46827(19)
H60 H 0.1414 0.8568 0.4521
H61 H 0.1845 0.7592 0.4512
H62 H 0.2607 0.8395 0.4674
C58 C 0.1866(4) 0.8024(4) 0.5229(2)
C59 C 0.1402(4) 0.7300(4) 0.54178(19)
H63 H 0.1120 0.6789 0.5246
C60 C 0.1455(3) 0.7515(3) 0.5937(2)
C61 C 0.1042(4) 0.7013(4) 0.6288(2)
H64 H 0.1589 0.6854 0.6568
H65 H 0.0721 0.6479 0.6132
H66 H 0.0538 0.7369 0.6403
C62 C 0.2213(4) 1.0141(4) 0.49817(18)
C63 C 0.4033(4) 0.9289(3) 0.53031(19)
C64 C 0.3644(4) 1.0910(3) 0.55879(19)
C65 C 0.74123(16) 0.8891(2) 0.47255(11)
C66 C 0.7793(2) 0.9422(2) 0.43907(9)
H67 H 0.7373 0.9566 0.4082
C67 C 0.8803(2) 0.9737(2) 0.45176(11)
H68 H 0.9058 1.0092 0.4294
C68 C 0.94316(17) 0.9522(2) 0.49793(11)
H69 H 1.0107 0.9733 0.5064
C69 C 0.90507(19) 0.8992(2) 0.53141(9)
H70 H 0.9471 0.8848 0.5623
C70 C 0.8041(2) 0.8676(2) 0.51872(10)
C71 C 0.7728(4) 0.8094(3) 0.55458(18)
H71 H 0.8221 0.7943 0.5832
C72 C 0.6662(3) 0.7085(3) 0.58947(18)
H72 H 0.6843 0.6487 0.5793
C73 C 0.7357(2) 0.7308(2) 0.63949(9)
C74 C 0.8165(2) 0.67291(19) 0.65935(11)
H73 H 0.8296 0.6236 0.6410
C75 C 0.8777(2) 0.6887(2) 0.70669(12)
H74 H 0.9317 0.6500 0.7200
C76 C 0.8581(2) 0.7624(2) 0.73418(9)
H75 H 0.8990 0.7730 0.7659
C77 C 0.7773(2) 0.8203(2) 0.71433(11)
H76 H 0.7642 0.8696 0.7327
C78 C 0.7161(2) 0.8045(2) 0.66698(12)
H77 H 0.6621 0.8432 0.6537
C79 C 0.5485(3) 0.7116(4) 0.58654(16)
H78 H 0.5317 0.7702 0.5987
C80 C 0.5152(2) 0.6396(2) 0.61902(11)
C81 C 0.5523(2) 0.5524(2) 0.61888(12)
H79 H 0.5961 0.5372 0.5980
C82 C 0.5239(3) 0.48802(18) 0.64992(13)
H80 H 0.5487 0.4297 0.6498
C83 C 0.4585(3) 0.5107(2) 0.68109(11)
H81 H 0.4395 0.4677 0.7019
C84 C 0.4214(2) 0.5979(2) 0.68123(11)
H82 H 0.3776 0.6131 0.7021
C85 C 0.4498(2) 0.66229(18) 0.65019(13)
H83 H 0.4250 0.7206 0.6503
C86 C 0.4220(3) 0.6539(4) 0.51500(19)
H84 H 0.3992 0.6168 0.5376
C87 C 0.3677(2) 0.6497(2) 0.46253(9)
C88 C 0.2916(3) 0.5841(2) 0.45209(10)
H85 H 0.2812 0.5459 0.4773
C89 C 0.2310(2) 0.5756(2) 0.40397(11)
H86 H 0.1800 0.5318 0.3970
C90 C 0.2465(2) 0.6328(2) 0.36628(9)
H87 H 0.2060 0.6271 0.3341
C91 C 0.3226(2) 0.6984(2) 0.37672(10)
H88 H 0.3330 0.7366 0.3515
C92 C 0.3832(2) 0.7068(2) 0.42485(11)
Fe2 Fe 0.29644(5) 0.97906(7) 0.56184(3)
Mn2 Mn 0.56573(6) 0.78422(8) 0.48990(3)
N12 N 0.3814(3) 0.9443(3) 0.62907(15)
N13 N 0.3369(3) 0.9038(3) 0.66151(15)
N14 N 0.1934(3) 1.0324(3) 0.59762(15)
N15 N 0.1682(3) 0.9793(3) 0.63405(14)
N16 N 0.2208(3) 0.8629(3) 0.55723(15)
N17 N 0.1946(3) 0.8303(3) 0.60061(16)
N18 N 0.1767(3) 1.0406(3) 0.45943(17)
N19 N 0.4697(3) 0.8967(3) 0.51684(16)
N20 N 0.3659(3) 1.1576(3) 0.53502(16)
N21 N 0.6822(3) 0.7770(3) 0.54986(14)
N22 N 0.4988(3) 0.7053(3) 0.53183(15)
O3 O 0.6423(2) 0.8597(3) 0.45797(13)
O4 O 0.4545(2) 0.7715(2) 0.43425(12)
Mn2A Mn 0.43427(6) 1.28422(8) 0.51010(3)
N20A N 0.6341(3) 0.6576(3) 0.46498(16)
O5 O 0.5681(7) 0.3138(6) 0.8181(3)
H89 H 0.5374 0.3640 0.8173
H90 H 0.5285 0.2720 0.8235
O6 O 0.2083(9) 0.0837(8) 0.8352(4)
H91 H 0.1869 0.0998 0.8608
H92 H 0.2274 0.0292 0.8382
O7 O 0.2321(8) 0.9218(8) 0.3518(4)
H93 H 0.1733 0.9230 0.3317
H94 H 0.2783 0.9079 0.3361
O8 O 0.1349(6) 0.5249(6) 0.2156(3)
H95 H 0.1293 0.5359 0.1847
H96 H 0.0790 0.5020 0.2200
O9 O 0.6996(7) 0.3715(7) 0.7512(4)
H97 H 0.6605 0.3274 0.7403
H98 H 0.6643 0.4195 0.7476
O10 O 0.8746(7) 0.1998(7) 0.8231(4)
H99 H 0.8345 0.2390 0.8065
H100 H 0.8892 0.1608 0.8032
O11 O 0.5838(7) 0.1345(7) 0.7416(4)
H101 H 0.5393 0.1646 0.7526
H102 H 0.5792 0.1469 0.7109
O12 O 0.6277(6) 0.6537(6) 0.3126(3)
H103 H 0.5712 0.6482 0.2909
H104 H 0.6773 0.6352 0.3003
O13 O 0.0011(8) 0.7870(8) 0.2690(4)
H105 H 0.0099 0.7998 0.2359
H106 H 0.0299 0.7292 0.2793
O14 O 0.8120(8) 0.9341(8) 0.2879(4)
H107 H 0.7649 0.9835 0.2860
H108 H 0.7844 0.8826 0.3014
O15 O 0.0009(7) 0.9184(7) 0.3568(4)
H109 H -0.0047 0.8917 0.3834
H110 H 0.0548 0.9509 0.3627
O16 O 0.2902(6) 0.2864(6) 0.7558(3)
H111 H 0.3227 0.3154 0.7375
H112 H 0.2282 0.2781 0.7399
loop_
_geom_bond_atom_site_label_1
_geom_bond_atom_site_label_2
_geom_bond_site_symmetry_1
_geom_bond_site_symmetry_2
B1 H1 1_555 1_555
B2 H2 1_555 1_555
C1 H3 1_555 1_555
H4 C1 1_555 1_555
H5 C1 1_555 1_555
C2 C1 1_555 1_555
C3 C2 1_555 1_555
H6 C3 1_555 1_555
C4 C3 1_555 1_555
C5 C4 1_555 1_555
H7 C5 1_555 1_555
H8 C5 1_555 1_555
H9 C5 1_555 1_555
C6 H10 1_555 1_555
H11 C6 1_555 1_555
H12 C6 1_555 1_555
C7 C6 1_555 1_555
C8 C7 1_555 1_555
H13 C8 1_555 1_555
C9 C8 1_555 1_555
C10 C9 1_555 1_555
H14 C10 1_555 1_555
H15 C10 1_555 1_555
H16 C10 1_555 1_555
C11 H17 1_555 1_555
H18 C11 1_555 1_555
H19 C11 1_555 1_555
C12 C11 1_555 1_555
C13 C12 1_555 1_555
H20 C13 1_555 1_555
C14 C13 1_555 1_555
C15 C14 1_555 1_555
H21 C15 1_555 1_555
H22 C15 1_555 1_555
H23 C15 1_555 1_555
C16 Fe1 1_555 1_555
C17 Fe1 1_555 1_555
C18 Fe1 1_555 1_555
C19 C20 1_555 1_555
C20 H24 1_555 1_555
C21 C20 1_555 1_555
H25 C21 1_555 1_555
C22 C21 1_555 1_555
H26 C22 1_555 1_555
C23 C22 1_555 1_555
H27 C23 1_555 1_555
C24 C19 1_555 1_555
C25 C24 1_555 1_555
H28 C25 1_555 1_555
C26 H29 1_555 1_555
C27 C26 1_555 1_555
C28 C27 1_555 1_555
H30 C28 1_555 1_555
C29 C28 1_555 1_555
H31 C29 1_555 1_555
C30 C29 1_555 1_555
H32 C30 1_555 1_555
C31 C30 1_555 1_555
H33 C31 1_555 1_555
C32 C27 1_555 1_555
H34 C32 1_555 1_555
C33 C26 1_555 1_555
H35 C33 1_555 1_555
C34 C33 1_555 1_555
C35 C34 1_555 1_555
H36 C35 1_555 1_555
C36 C35 1_555 1_555
H37 C36 1_555 1_555
C37 C36 1_555 1_555
H38 C37 1_555 1_555
C38 C37 1_555 1_555
H39 C38 1_555 1_555
C39 C34 1_555 1_555
H40 C39 1_555 1_555
C40 H41 1_555 1_555
C41 C40 1_555 1_555
C42 C41 1_555 1_555
H42 C42 1_555 1_555
C43 C42 1_555 1_555
H43 C43 1_555 1_555
C44 C43 1_555 1_555
H44 C44 1_555 1_555
C45 C44 1_555 1_555
H45 C45 1_555 1_555
C46 C41 1_555 1_555
C47 H46 1_555 1_555
H47 C47 1_555 1_555
H48 C47 1_555 1_555
C48 C47 1_555 1_555
C49 C48 1_555 1_555
H49 C49 1_555 1_555
C50 C49 1_555 1_555
C51 C50 1_555 1_555
H50 C51 1_555 1_555
H51 C51 1_555 1_555
H52 C51 1_555 1_555
C52 H53 1_555 1_555
H54 C52 1_555 1_555
H55 C52 1_555 1_555
C53 C52 1_555 1_555
C54 C53 1_555 1_555
H56 C54 1_555 1_555
C55 C54 1_555 1_555
C56 C55 1_555 1_555
H57 C56 1_555 1_555
H58 C56 1_555 1_555
H59 C56 1_555 1_555
C57 H60 1_555 1_555
H61 C57 1_555 1_555
H62 C57 1_555 1_555
C58 C57 1_555 1_555
C59 C58 1_555 1_555
H63 C59 1_555 1_555
C60 C59 1_555 1_555
C61 C60 1_555 1_555
H64 C61 1_555 1_555
H65 C61 1_555 1_555
H66 C61 1_555 1_555
C62 Fe2 1_555 1_555
C63 Fe2 1_555 1_555
C64 Fe2 1_555 1_555
C65 C66 1_555 1_555
C66 H67 1_555 1_555
C67 C66 1_555 1_555
H68 C67 1_555 1_555
C68 C67 1_555 1_555
H69 C68 1_555 1_555
C69 C68 1_555 1_555
H70 C69 1_555 1_555
C70 C65 1_555 1_555
C71 C70 1_555 1_555
H71 C71 1_555 1_555
C72 H72 1_555 1_555
C73 C72 1_555 1_555
C74 C73 1_555 1_555
H73 C74 1_555 1_555
C75 C74 1_555 1_555
H74 C75 1_555 1_555
C76 C75 1_555 1_555
H75 C76 1_555 1_555
C77 C76 1_555 1_555
H76 C77 1_555 1_555
C78 C73 1_555 1_555
H77 C78 1_555 1_555
C79 C72 1_555 1_555
H78 C79 1_555 1_555
C80 C79 1_555 1_555
C81 C80 1_555 1_555
H79 C81 1_555 1_555
C82 C81 1_555 1_555
H80 C82 1_555 1_555
C83 C82 1_555 1_555
H81 C83 1_555 1_555
C84 C83 1_555 1_555
H82 C84 1_555 1_555
C85 C80 1_555 1_555
H83 C85 1_555 1_555
C86 H84 1_555 1_555
C87 C86 1_555 1_555
C88 C87 1_555 1_555
H85 C88 1_555 1_555
C89 C88 1_555 1_555
H86 C89 1_555 1_555
C90 C89 1_555 1_555
H87 C90 1_555 1_555
C91 C90 1_555 1_555
H88 C91 1_555 1_555
C92 C87 1_555 1_555
Fe1 N1 1_555 1_555
Fe2 N12 1_555 1_555
Mn1 N8 1_555 1_555
Mn2 N19 1_555 1_555
N1 C2 1_555 1_555
N2 B1 1_555 1_555
N3 C7 1_555 1_555
N4 B1 1_555 1_555
N5 C12 1_555 1_555
N6 B1 1_555 1_555
N7 C16 1_555 1_555
N8 C17 1_555 1_555
N9 C18 1_555 1_555
N10 C25 1_555 1_555
N11 C33 1_555 1_555
N12 C48 1_555 1_555
N13 B2 1_555 1_555
N14 C53 1_555 1_555
N15 B2 1_555 1_555
N16 C58 1_555 1_555
N17 B2 1_555 1_555
N18 C62 1_555 1_555
N19 C63 1_555 1_555
N20 C64 1_555 1_555
N21 C71 1_555 1_555
N22 C79 1_555 1_555
O1 C19 1_555 1_555
O2 C46 1_555 1_555
O3 C65 1_555 1_555
O4 C92 1_555 1_555
O5 H89 1_555 1_555
H90 O5 1_555 1_555
O6 H91 1_555 1_555
H92 O6 1_555 1_555
O7 H93 1_555 1_555
H94 O7 1_555 1_555
O8 H95 1_555 1_555
H96 O8 1_555 1_555
O9 H97 1_555 1_555
H98 O9 1_555 1_555
O10 H99 1_555 1_555
H100 O10 1_555 1_555
O11 H101 1_555 1_555
H102 O11 1_555 1_555
O12 H103 1_555 1_555
H104 O12 1_555 1_555
O13 H105 1_555 1_555
H106 O13 1_555 1_555
O14 H107 1_555 1_555
H108 O14 1_555 1_555
O15 H109 1_555 1_555
H110 O15 1_555 1_555
O16 H111 1_555 1_555
H112 O16 1_555 1_555
Mn1A N9 1_555 1_555
Mn2A N20 1_555 1_555
N9A Mn1 1_555 1_555
N20A Mn2 1_555 1_555
C4 N2 1_555 1_555
C9 N4 1_555 1_555
C14 N6 1_555 1_555
C23 C24 1_555 1_555
C26 N10 1_555 1_555
C31 C32 1_555 1_555
C38 C39 1_555 1_555
C40 N11 1_555 1_555
C45 C46 1_555 1_555
C50 N13 1_555 1_555
C55 N15 1_555 1_555
C60 N17 1_555 1_555
C69 C70 1_555 1_555
C72 N21 1_555 1_555
C77 C78 1_555 1_555
C84 C85 1_555 1_555
C86 N22 1_555 1_555
C91 C92 1_555 1_555
Fe1 N3 1_555 1_555
Fe1 N5 1_555 1_555
Fe2 N14 1_555 1_555
Fe2 N16 1_555 1_555
Mn1 N10 1_555 1_555
Mn1 N11 1_555 1_555
Mn1 O1 1_555 1_555
Mn1 O2 1_555 1_555
Mn2 N21 1_555 1_555
Mn2 N22 1_555 1_555
Mn2 O3 1_555 1_555
Mn2 O4 1_555 1_555
N1 N2 1_555 1_555
N3 N4 1_555 1_555
N5 N6 1_555 1_555
N12 N13 1_555 1_555
N14 N15 1_555 1_555
N16 N17 1_555 1_555

#END
