
#######################################################################
#
#                 Cambridge Crystallographic Data Centre
#                                CCDC 
#
#######################################################################
#
# If this CIF has been generated from an entry in the Cambridge 
# Structural Database, then it will include bibliographic, chemical, 
# crystal, experimental, refinement or atomic coordinate data resulting 
# from the CCDC's data processing and validation procedures.
#
#######################################################################

data_KERMEA
_symmetry_cell_setting           triclinic
_symmetry_space_group_name_H-M   'P -1'
_symmetry_Int_Tables_number      2
_space_group_name_Hall           '-P 1'
loop_
_symmetry_equiv_pos_site_id
_symmetry_equiv_pos_as_xyz
1 x,y,z
2 -x,-y,-z
_cell_length_a                   9.7417(19)
_cell_length_b                   11.443(2)
_cell_length_c                   13.916(3)
_cell_angle_alpha                73.19(3)
_cell_angle_beta                 80.46(3)
_cell_angle_gamma                69.63(3)
_cell_volume                     1388.46
loop_
_atom_site_label
_atom_site_type_symbol
_atom_site_fract_x
_atom_site_fract_y
_atom_site_fract_z
C1 C 0.67821(19) 0.62357(15) 0.75979(13)
H1 H 0.6116 0.6683 0.8032
C2 C 0.67412(19) 0.50373(15) 0.76087(13)
H2 H 0.6058 0.4697 0.8038
C3 C 0.77310(17) 0.43451(14) 0.69721(11)
C4 C 0.87208(19) 0.49106(15) 0.63572(12)
H3 H 0.9410 0.4478 0.5925
C5 C 0.86824(19) 0.61173(15) 0.63878(12)
H4 H 0.9352 0.6481 0.5964
C6 C 0.77319(17) 0.30516(14) 0.69630(11)
C7 C 0.64704(18) 0.26852(15) 0.72454(14)
H5 H 0.5597 0.3257 0.7441
C8 C 0.65279(18) 0.14681(15) 0.72329(13)
H6 H 0.5674 0.1243 0.7420
C9 C 0.89546(18) 0.09477(15) 0.66942(12)
H7 H 0.9813 0.0354 0.6505
C10 C 0.89947(18) 0.21493(15) 0.66790(12)
H8 H 0.9862 0.2351 0.6480
Co1 Co 0.77598(2) 0.867739(17) 0.701167(14)
N1 N 0.77282(14) 0.67902(11) 0.69973(10)
N2 N 0.77463(14) 0.05954(12) 0.69663(9)
O1 O 0.66439(12) 0.85815(11) 0.84043(8)
H21 H 0.5735 0.8893 0.8523
H22 H 0.7067 0.8094 0.8918
O2 O 0.97600(12) 0.78816(11) 0.76942(8)
H23 H 0.9776 0.7683 0.8330
H24 H 1.0419 0.7298 0.7465
O3 O 0.89995(12) 0.87684(10) 0.56218(8)
H25 H 0.9915 0.8597 0.5617
H26 H 0.8630 0.9503 0.5239
O4 O 0.58164(13) 0.96032(11) 0.62452(9)
H27 H 0.5934 1.0137 0.5699
H28 H 0.5361 0.9143 0.6150
C1_2 C 0.67821(19) 1.62357(15) 0.75979(13)
H1_2 H 0.6116 1.6683 0.8032
C2_2 C 0.67412(19) 1.50373(15) 0.76087(13)
H2_2 H 0.6058 1.4697 0.8038
C3_2 C 0.77310(17) 1.43451(14) 0.69721(11)
C4_2 C 0.87208(19) 1.49106(15) 0.63572(12)
H3_2 H 0.9410 1.4478 0.5925
C5_2 C 0.86824(19) 1.61173(15) 0.63878(12)
H4_2 H 0.9352 1.6481 0.5964
C6_2 C 0.77319(17) 1.30516(14) 0.69630(11)
C7_2 C 0.64704(18) 1.26852(15) 0.72454(14)
H5_2 H 0.5597 1.3257 0.7441
C8_2 C 0.65279(18) 1.14681(15) 0.72329(13)
H6_2 H 0.5674 1.1243 0.7420
C9_2 C 0.89546(18) 1.09477(15) 0.66942(12)
H7_2 H 0.9813 1.0354 0.6505
C10_2 C 0.89947(18) 1.21493(15) 0.66790(12)
H8_2 H 0.9862 1.2351 0.6480
Co1_2 Co 0.77598(2) 1.867739(17) 0.701167(14)
Co1_3 Co 0.77598(2) -0.132261(17) 0.701167(14)
N1_2 N 0.77282(14) 1.67902(11) 0.69973(10)
N2_2 N 0.77463(14) 1.05954(12) 0.69663(9)
N2_3 N 0.77463(14) 2.05954(12) 0.69663(9)
O1_2 O 0.66439(12) 1.85815(11) 0.84043(8)
H21_2 H 0.5735 1.8893 0.8523
H22_2 H 0.7067 1.8094 0.8918
O2_2 O 0.97600(12) 1.78816(11) 0.76942(8)
H23_2 H 0.9776 1.7683 0.8330
H24_2 H 1.0419 1.7298 0.7465
O3_2 O 0.89995(12) 1.87684(10) 0.56218(8)
H25_2 H 0.9915 1.8597 0.5617
H26_2 H 0.8630 1.9503 0.5239
O4_2 O 0.58164(13) 1.96032(11) 0.62452(9)
H27_2 H 0.5934 2.0137 0.5699
H28_2 H 0.5361 1.9143 0.6150
C11 C 0.6875(2) 0.5367(2) 1.42484(15)
H9 H 0.6564 0.4827 1.4815
C12 C 0.6638(2) 0.6627(2) 1.42356(17)
H10 H 0.6163 0.6943 1.4789
C13 C 0.7107(2) 0.7416(2) 1.33998(18)
H11 H 0.6951 0.8268 1.3392
C14 C 0.7808(2) 0.69642(17) 1.25717(15)
H12 H 0.8110 0.7514 1.2008
C15 C 0.80628(18) 0.56933(15) 1.25778(12)
C16 C 0.75723(18) 0.48936(16) 1.34248(13)
C17 C 0.6697(2) 0.31574(19) 1.35203(17)
H13 H 0.6501 0.3181 1.2853
H14 H 0.5832 0.3724 1.3801
C18 C 0.69872(18) 0.17978(15) 1.41760(12)
C19 C 0.9810(2) 0.56981(18) 1.11544(13)
H15 H 1.0623 0.5013 1.0953
H16 H 1.0202 0.6096 1.1525
C20 C 0.9198(2) 0.67004(18) 1.02088(12)
O5 O 0.79150(14) 0.36136(12) 1.34430(12)
O6 O 0.82448(14) 0.11768(12) 1.44375(10)
O7 O 0.59040(15) 0.14030(13) 1.44072(11)
O8 O 0.87975(15) 0.51359(12) 1.18190(9)
O9 O 1.01267(15) 0.71330(15) 0.96294(9)
O10 O 0.78858(15) 0.69911(15) 1.00686(10)
C21 C 0.2652(2) 0.9489(2) 0.84590(15)
H17 H 0.2904 0.9381 0.7809
C22 C 0.1203(2) 0.9703(2) 0.88266(14)
H18 H 0.0514 0.9724 0.8427
C23 C 0.07717(18) 0.98843(16) 0.97849(13)
C24 C 0.1865(2) 0.9823(3) 1.03254(17)
H19 H 0.1646 0.9937 1.0975
C25 C 0.3288(2) 0.9592(3) 0.9904(2)
H20 H 0.4004 0.9546 1.0293
N3 N 0.37040(18) 0.94304(17) 0.89851(14)
C21A C -0.2652(2) 1.0511(2) 1.15410(15)
H17A H -0.2904 1.0619 1.2191
C22A C -0.1203(2) 1.0297(2) 1.11734(14)
H18A H -0.0514 1.0276 1.1573
C23A C -0.07717(18) 1.01157(16) 1.02151(13)
C24A C -0.1865(2) 1.0177(3) 0.96746(17)
H19A H -0.1646 1.0063 0.9025
C25A C -0.3288(2) 1.0408(3) 1.0096(2)
H20A H -0.4004 1.0454 0.9707
N3A N -0.37040(18) 1.05696(17) 1.10149(14)
O11 O 0.5504(2) 0.61085(19) 1.07054(16)
H29 H 0.6251 0.6345 1.0483
H30 H 0.4923 0.6323 1.0251
O12 O 0.6646(2) 0.3540(2) 1.0680(2)
H31 H 0.7276 0.3414 1.0174
H32 H 0.6366 0.4357 1.0638
loop_
_geom_bond_atom_site_label_1
_geom_bond_atom_site_label_2
_geom_bond_site_symmetry_1
_geom_bond_site_symmetry_2
C1 H1 1_555 1_555
C2 C1 1_555 1_555
H2 C2 1_555 1_555
C3 C2 1_555 1_555
C4 C3 1_555 1_555
H3 C4 1_555 1_555
C5 C4 1_555 1_555
H4 C5 1_555 1_555
C6 C3 1_555 1_555
C7 C6 1_555 1_555
H5 C7 1_555 1_555
C8 C7 1_555 1_555
H6 C8 1_555 1_555
C9 H7 1_555 1_555
C10 C6 1_555 1_555
H8 C10 1_555 1_555
C11 H9 1_555 1_555
C12 C11 1_555 1_555
H10 C12 1_555 1_555
C13 C12 1_555 1_555
H11 C13 1_555 1_555
C14 C13 1_555 1_555
H12 C14 1_555 1_555
C15 C14 1_555 1_555
C16 C11 1_555 1_555
C17 H13 1_555 1_555
H14 C17 1_555 1_555
C18 C17 1_555 1_555
C19 H15 1_555 1_555
H16 C19 1_555 1_555
C20 C19 1_555 1_555
C21 H17 1_555 1_555
C22 C21 1_555 1_555
H18 C22 1_555 1_555
C23 C22 1_555 1_555
C24 C23 1_555 1_555
H19 C24 1_555 1_555
C25 C24 1_555 1_555
H20 C25 1_555 1_555
Co1 N1 1_555 1_555
N1 C1 1_555 1_555
N2 C8 1_555 1_555
N3 C21 1_555 1_555
O1 Co1 1_555 1_555
H21 O1 1_555 1_555
H22 O1 1_555 1_555
O2 Co1 1_555 1_555
H23 O2 1_555 1_555
H24 O2 1_555 1_555
O3 Co1 1_555 1_555
H25 O3 1_555 1_555
H26 O3 1_555 1_555
O4 Co1 1_555 1_555
H27 O4 1_555 1_555
H28 O4 1_555 1_555
O5 C16 1_555 1_555
O6 C18 1_555 1_555
O7 C18 1_555 1_555
O8 C15 1_555 1_555
O9 C20 1_555 1_555
O10 C20 1_555 1_555
O11 H29 1_555 1_555
H30 O11 1_555 1_555
O12 H31 1_555 1_555
H32 O12 1_555 1_555
C1_2 H1_2 1_555 1_555
C2_2 C1_2 1_555 1_555
H2_2 C2_2 1_555 1_555
C3_2 C2_2 1_555 1_555
C4_2 C3_2 1_555 1_555
H3_2 C4_2 1_555 1_555
C5_2 C4_2 1_555 1_555
H4_2 C5_2 1_555 1_555
C6_2 C3_2 1_555 1_555
C7_2 C6_2 1_555 1_555
H5_2 C7_2 1_555 1_555
C8_2 C7_2 1_555 1_555
H6_2 C8_2 1_555 1_555
C9_2 H7_2 1_555 1_555
C10_2 C6_2 1_555 1_555
H8_2 C10_2 1_555 1_555
C21A H17A 1_555 1_555
C22A C21A 1_555 1_555
H18A C22A 1_555 1_555
C23A C23 1_555 1_555
C24A C23A 1_555 1_555
H19A C24A 1_555 1_555
C25A C24A 1_555 1_555
H20A C25A 1_555 1_555
Co1_2 N1_2 1_555 1_555
Co1_3 N2 1_555 1_555
N1_2 C1_2 1_555 1_555
N2_2 Co1 1_555 1_555
N2_3 Co1_2 1_555 1_555
N3A C21A 1_555 1_555
O1_2 Co1_2 1_555 1_555
H21_2 O1_2 1_555 1_555
H22_2 O1_2 1_555 1_555
O2_2 Co1_2 1_555 1_555
H23_2 O2_2 1_555 1_555
H24_2 O2_2 1_555 1_555
O3_2 Co1_2 1_555 1_555
H25_2 O3_2 1_555 1_555
H26_2 O3_2 1_555 1_555
O4_2 Co1_2 1_555 1_555
H27_2 O4_2 1_555 1_555
H28_2 O4_2 1_555 1_555
C5 N1 1_555 1_555
C9 C10 1_555 1_555
C9 N2 1_555 1_555
C15 C16 1_555 1_555
C17 O5 1_555 1_555
C19 O8 1_555 1_555
C25 N3 1_555 1_555
C5_2 N1_2 1_555 1_555
C8_2 N2_2 1_555 1_555
C9_2 C10_2 1_555 1_555
C9_2 N2_2 1_555 1_555
C22A C23A 1_555 1_555
C25A N3A 1_555 1_555

#END
