
#######################################################################
#
#                 Cambridge Crystallographic Data Centre
#                                CCDC 
#
#######################################################################
#
# If this CIF has been generated from an entry in the Cambridge 
# Structural Database, then it will include bibliographic, chemical, 
# crystal, experimental, refinement or atomic coordinate data resulting 
# from the CCDC's data processing and validation procedures.
#
#######################################################################

data_KERNAX
_symmetry_cell_setting           orthorhombic
_symmetry_space_group_name_H-M   'F d d 2'
_symmetry_Int_Tables_number      43
_space_group_name_Hall           'F 2 -2d'
loop_
_symmetry_equiv_pos_site_id
_symmetry_equiv_pos_as_xyz
1 x,y,z
2 -x,-y,z
3 1/4+x,1/4-y,1/4+z
4 1/4-x,1/4+y,1/4+z
5 x,1/2+y,1/2+z
6 -x,1/2-y,1/2+z
7 1/4+x,3/4-y,3/4+z
8 1/4-x,3/4+y,3/4+z
9 1/2+x,y,1/2+z
10 1/2-x,-y,1/2+z
11 3/4+x,1/4-y,3/4+z
12 3/4-x,1/4+y,3/4+z
13 1/2+x,1/2+y,z
14 1/2-x,1/2-y,z
15 3/4+x,3/4-y,1/4+z
16 3/4-x,3/4+y,1/4+z
_cell_length_a                   11.332(7)
_cell_length_b                   50.73(2)
_cell_length_c                   9.001(3)
_cell_angle_alpha                90
_cell_angle_beta                 90
_cell_angle_gamma                90
_cell_volume                     5174.43
loop_
_atom_site_label
_atom_site_type_symbol
_atom_site_fract_x
_atom_site_fract_y
_atom_site_fract_z
C1 C 0.3355(5) 0.15480(8) 0.3543(5)
C2 C 0.3747(5) 0.13661(8) 0.2508(4)
C3 C 0.3567(5) 0.11016(9) 0.2761(4)
C4 C 0.3944(5) 0.08943(9) 0.1660(5)
C5 C 0.2994(5) 0.10270(8) 0.4059(5)
C6 C 0.2627(5) 0.12213(9) 0.5039(5)
Cl1 Cl 0.03988(15) 0.18695(3) 0.51484(14)
Cl2 Cl 0.34190(15) 0.20682(2) 0.65898(14)
N1 N 0.2805(4) 0.14768(7) 0.4787(4)
O1 O 0.3854(4) 0.06616(6) 0.1993(4)
O2 O 0.4296(4) 0.09813(7) 0.0418(4)
Zn1 Zn 0.21056(6) 0.174718(10) 0.62187(5)
H3 H 0.3481 0.1726 0.3362
H4 H 0.4129 0.1422 0.1650
H5 H 0.2859 0.0850 0.4266
H6 H 0.2242 0.1171 0.5907
C1J C 0.0855(5) 0.09520(8) 1.1043(5)
C2J C 0.1247(5) 0.11339(8) 1.0008(4)
C3J C 0.1067(5) 0.13984(9) 1.0261(4)
C4J C 0.1444(5) 0.16057(9) 0.9160(5)
C5J C 0.0494(5) 0.14730(8) 1.1559(5)
C6J C 0.0127(5) 0.12787(9) 1.2539(5)
Cl1J Cl -0.21012(15) 0.06305(3) 1.26484(14)
Cl2J Cl 0.09190(15) 0.04318(2) 1.40898(14)
N1J N 0.0305(4) 0.10232(7) 1.2287(4)
O1J O 0.1354(4) 0.18384(6) 0.9493(4)
O2J O 0.1796(4) 0.15187(7) 0.7918(4)
O2H O -0.0704(4) 0.09813(7) 1.5418(4)
Zn1J Zn -0.03944(6) 0.075282(10) 1.37187(5)
Zn1B Zn 0.46056(6) 0.075282(10) -0.12813(5)
H3J H 0.0981 0.0774 1.0862
H4J H 0.1629 0.1078 0.9150
H5J H 0.0359 0.1650 1.1766
H6J H -0.0258 0.1329 1.3407
O3 O 0.1713(5) 0.21220(8) 0.2134(4)
O4 O 0.3675(4) 0.24046(10) 0.3724(5)
O5 O 0.3576(5) 0.23517(8) 0.0471(5)
H1 H 0.3615 0.2188 0.0407
H2 H 0.3505 0.2426 -0.0355
Zn2 Zn 0.2500 0.2500 0.21057(8)
H7 H 0.1185 0.2086 0.2769
H8 H 0.1584 0.2034 0.1337
H9 H 0.4398 0.2385 0.3490
H10 H 0.3551 0.2315 0.4507
O3M O 0.3287(5) 0.28780(8) 0.2134(4)
O4M O 0.1325(4) 0.25954(10) 0.3724(5)
O5M O 0.1424(5) 0.26483(8) 0.0471(5)
H1M H 0.1385 0.2812 0.0407
H2M H 0.1495 0.2574 -0.0355
H7M H 0.3815 0.2914 0.2769
H8M H 0.3416 0.2966 0.1337
H9M H 0.0602 0.2615 0.3490
H10M H 0.1449 0.2685 0.4507
O6 O 0.5993(4) 0.23227(7) 0.3175(4)
H11 H 0.6208 0.2405 0.2395
H12 H 0.6357 0.2171 0.3264
loop_
_geom_bond_atom_site_label_1
_geom_bond_atom_site_label_2
_geom_bond_site_symmetry_1
_geom_bond_site_symmetry_2
C1 C2 1_555 1_555
C2 C3 1_555 1_555
C3 C4 1_555 1_555
C4 O1 1_555 1_555
C5 C3 1_555 1_555
C6 C5 1_555 1_555
Cl1 Zn1 1_555 1_555
Cl2 Zn1 1_555 1_555
N1 C1 1_555 1_555
O2 C4 1_555 1_555
O3 Zn2 1_555 1_555
O4 Zn2 1_555 1_555
O5 H1 1_555 1_555
H2 O5 1_555 1_555
O6 H11 1_555 1_555
Zn1 N1 1_555 1_555
Zn2 O5 1_555 1_555
H3 C1 1_555 1_555
H4 C2 1_555 1_555
H5 C5 1_555 1_555
H6 C6 1_555 1_555
H7 O3 1_555 1_555
H8 O3 1_555 1_555
H9 O4 1_555 1_555
H10 O4 1_555 1_555
H12 O6 1_555 1_555
C1J C2J 1_555 1_555
C2J C3J 1_555 1_555
C3J C4J 1_555 1_555
C4J O1J 1_555 1_555
C5J C3J 1_555 1_555
C6J C5J 1_555 1_555
Cl1J Zn1J 1_555 1_555
Cl2J Zn1J 1_555 1_555
N1J C1J 1_555 1_555
O2J Zn1 1_555 1_555
O2H Zn1J 1_555 1_555
O3M Zn2 1_555 1_555
O4M Zn2 1_555 1_555
O5M Zn2 1_555 1_555
H1M O5M 1_555 1_555
H2M O5M 1_555 1_555
Zn1J N1J 1_555 1_555
Zn1B O2 1_555 1_555
H3J C1J 1_555 1_555
H4J C2J 1_555 1_555
H5J C5J 1_555 1_555
H6J C6J 1_555 1_555
H7M O3M 1_555 1_555
H8M O3M 1_555 1_555
H9M O4M 1_555 1_555
H10M O4M 1_555 1_555
C6 N1 1_555 1_555
C4J O2J 1_555 1_555
C6J N1J 1_555 1_555

#END
