
#######################################################################
#
#                 Cambridge Crystallographic Data Centre
#                                CCDC 
#
#######################################################################
#
# If this CIF has been generated from an entry in the Cambridge 
# Structural Database, then it will include bibliographic, chemical, 
# crystal, experimental, refinement or atomic coordinate data resulting 
# from the CCDC's data processing and validation procedures.
#
#######################################################################

data_KERREF
_symmetry_cell_setting           monoclinic
_symmetry_space_group_name_H-M   'P 21/n'
_symmetry_Int_Tables_number      14
_space_group_name_Hall           '-P 2yn'
loop_
_symmetry_equiv_pos_site_id
_symmetry_equiv_pos_as_xyz
1 x,y,z
2 1/2-x,1/2+y,1/2-z
3 -x,-y,-z
4 1/2+x,1/2-y,1/2+z
_cell_length_a                   17.395(11)
_cell_length_b                   7.254(4)
_cell_length_c                   18.210(11)
_cell_angle_alpha                90
_cell_angle_beta                 114.203(6)
_cell_angle_gamma                90
_cell_volume                     2095.82
loop_
_atom_site_label
_atom_site_type_symbol
_atom_site_fract_x
_atom_site_fract_y
_atom_site_fract_z
Cd1 Cd 0.386460(10) 0.87503(2) 0.131056(9)
O1 O 0.41610(10) 1.1973(3) 0.20968(10)
O2 O 0.51066(10) 0.9965(2) 0.20970(10)
N1 N 0.43777(13) 0.6187(3) 0.10115(12)
C1 C 0.54462(16) 1.4205(3) 0.32347(15)
H1 H 0.4905 1.4696 0.3018
C2 C 0.51257(17) 0.3768(3) 0.08703(15)
N2 N 0.42786(14) 0.3463(3) 0.04463(13)
H2 H 0.4052 0.2504 0.0162
C3 C 0.56005(14) 1.2524(3) 0.29643(13)
C4 C 0.49038(14) 1.1428(3) 0.23439(13)
C5 C 0.5833(2) 0.2726(4) 0.09756(17)
H3 H 0.5789 0.1586 0.0728
C6 C 0.59710(16) 0.6216(4) 0.17183(16)
H4 H 0.6022 0.7362 0.1962
C7 C 0.51858(15) 0.5491(3) 0.12247(13)
N3 N 0.21394(14) 0.7743(3) 0.24694(14)
H5 H 0.1637 0.7601 0.2439
C8 C 0.60917(15) 1.5156(4) 0.38239(15)
H6 H 0.5979 1.6283 0.4003
C9 C 0.43451(17) 0.8292(4) 0.34718(16)
H7 H 0.4784 0.8451 0.3311
N4 N 0.31792(13) 0.8101(3) 0.20758(12)
C10 C 0.28624(17) 0.7875(4) 0.31617(16)
C11 C 0.38716(17) 0.4916(3) 0.05535(15)
H8 H 0.3287 0.5020 0.0327
C12 C 0.35173(16) 0.8107(3) 0.29141(15)
C13 C 0.64135(15) 1.1847(4) 0.32836(15)
H9 H 0.6526 1.0728 0.3099
C14 C 0.23609(16) 0.7878(4) 0.18483(17)
H10 H 0.1978 0.7821 0.1312
C15 C 0.6602(2) 0.3460(4) 0.14631(19)
H11 H 0.7090 0.2799 0.1550
C16 C 0.3009(2) 0.7832(5) 0.39661(19)
H12 H 0.2571 0.7686 0.4129
C17 C 0.66665(17) 0.5164(5) 0.18293(17)
H13 H 0.7198 0.5609 0.2161
C18 C 0.4488(2) 0.8231(5) 0.42688(18)
H14 H 0.5038 0.8338 0.4658
C19 C 0.3826(2) 0.8012(5) 0.4513(2)
H15 H 0.3945 0.7990 0.5060
C20 C 0.75858(15) 1.5416(3) 0.48493(13)
C21 C 0.68993(14) 1.4465(3) 0.41513(13)
C22 C 0.70616(15) 1.2797(4) 0.38711(15)
H16 H 0.7606 1.2320 0.4079
O3 O 0.83108(10) 1.4681(2) 0.51424(9)
O4 O 0.74186(11) 1.6817(3) 0.51416(11)
Cd1C Cd 0.886460(10) 1.62497(2) 0.631056(9)
O3C O 0.33108(10) 1.0319(2) 0.01424(9)
O4C O 0.24186(11) 0.8183(3) 0.01416(11)
loop_
_geom_bond_atom_site_label_1
_geom_bond_atom_site_label_2
_geom_bond_site_symmetry_1
_geom_bond_site_symmetry_2
Cd1 O1 1_555 1_555
O1 C4 1_555 1_555
O2 Cd1 1_555 1_555
N1 Cd1 1_555 1_555
C1 H1 1_555 1_555
C2 N2 1_555 1_555
N2 H2 1_555 1_555
C3 C1 1_555 1_555
C4 O2 1_555 1_555
C5 C2 1_555 1_555
H3 C5 1_555 1_555
C6 H4 1_555 1_555
C7 N1 1_555 1_555
N3 H5 1_555 1_555
C8 C1 1_555 1_555
H6 C8 1_555 1_555
C9 H7 1_555 1_555
N4 Cd1 1_555 1_555
C10 N3 1_555 1_555
C11 N1 1_555 1_555
H8 C11 1_555 1_555
C12 C9 1_555 1_555
C13 C3 1_555 1_555
H9 C13 1_555 1_555
C14 N3 1_555 1_555
H10 C14 1_555 1_555
C15 C5 1_555 1_555
H11 C15 1_555 1_555
C16 C10 1_555 1_555
H12 C16 1_555 1_555
C17 C6 1_555 1_555
H13 C17 1_555 1_555
C18 C9 1_555 1_555
H14 C18 1_555 1_555
C19 C16 1_555 1_555
H15 C19 1_555 1_555
C20 C21 1_555 1_555
C21 C8 1_555 1_555
C22 C13 1_555 1_555
H16 C22 1_555 1_555
O3 C20 1_555 1_555
O4 C20 1_555 1_555
Cd1C O3 1_555 1_555
O3C Cd1 1_555 1_555
O4C Cd1 1_555 1_555
C2 C7 1_555 1_555
N2 C11 1_555 1_555
C3 C4 1_555 1_555
C6 C7 1_555 1_555
N4 C12 1_555 1_555
N4 C14 1_555 1_555
C10 C12 1_555 1_555
C15 C17 1_555 1_555
C18 C19 1_555 1_555
C21 C22 1_555 1_555
O4 Cd1C 1_555 1_555

#END
