
#######################################################################
#
#                 Cambridge Crystallographic Data Centre
#                                CCDC 
#
#######################################################################
#
# If this CIF has been generated from an entry in the Cambridge 
# Structural Database, then it will include bibliographic, chemical, 
# crystal, experimental, refinement or atomic coordinate data resulting 
# from the CCDC's data processing and validation procedures.
#
#######################################################################

data_KERRAC
_symmetry_cell_setting           monoclinic
_symmetry_space_group_name_H-M   'C 2/c'
_symmetry_Int_Tables_number      15
_space_group_name_Hall           '-C 2yn'
loop_
_symmetry_equiv_pos_site_id
_symmetry_equiv_pos_as_xyz
1 x,y,z
2 -x,y,1/2-z
3 1/2+x,1/2+y,z
4 1/2-x,1/2+y,1/2-z
5 -x,-y,-z
6 x,-y,1/2+z
7 1/2-x,1/2-y,-z
8 1/2+x,1/2-y,1/2+z
_cell_length_a                   19.207(3)
_cell_length_b                   13.1591(19)
_cell_length_c                   23.234(3)
_cell_angle_alpha                90
_cell_angle_beta                 96.582(4)
_cell_angle_gamma                90
_cell_volume                     5833.61
loop_
_atom_site_label
_atom_site_type_symbol
_atom_site_fract_x
_atom_site_fract_y
_atom_site_fract_z
Zn1 Zn 0.5000 -0.01698(7) 0.7500
Zn2 Zn 0.39454(4) 0.02713(5) 0.63792(2)
Zn3 Zn 0.44545(4) 0.23785(5) 0.68428(2)
S1 S 0.45033(9) -0.25686(13) 0.42984(6)
S2 S 0.43691(10) -0.18987(12) 0.50749(6)
S3 S 0.36486(10) -0.06503(12) 0.96089(6)
S4 S 0.37785(9) -0.03380(14) 0.87622(6)
O1 O 0.4771(2) 0.0945(3) 0.68253(15)
H1 H 0.5130(19) 0.105(5) 0.665(2)
O2 O 0.4839(2) -0.1352(3) 0.69204(14)
O3 O 0.3987(2) -0.0009(3) 0.76837(14)
O4 O 0.3699(2) -0.1126(3) 1.07159(13)
O5 O 0.3239(2) 0.0327(3) 0.69078(14)
O6 O 0.4236(2) -0.0990(3) 0.60717(14)
O7 O 0.3882(2) -0.2665(3) 1.11157(14)
O8 O 0.3887(2) -0.2571(3) 0.24626(15)
O9 O 0.4665(2) -0.3104(3) 0.31845(14)
C1 C 0.4780(3) -0.2594(4) 0.6188(2)
C2 C 0.5059(3) -0.3321(5) 0.6586(2)
H2 H 0.5177 -0.3130 0.6970
C3 C 0.5164(4) -0.4307(5) 0.6427(3)
H3 H 0.5359 -0.4778 0.6698
C4 C 0.4974(5) -0.4588(5) 0.5860(3)
H4 H 0.5024 -0.5260 0.5748
C5 C 0.4708(4) -0.3872(5) 0.5453(3)
H5 H 0.4583 -0.4074 0.5072
C6 C 0.4625(3) -0.2867(4) 0.5602(2)
C7 C 0.3637(4) -0.2821(4) 0.3971(2)
C8 C 0.3077(4) -0.2889(5) 0.4304(3)
H6 H 0.3162 -0.2856 0.4706
C9 C 0.2401(4) -0.3004(6) 0.4043(3)
H7 H 0.2036 -0.3062 0.4272
C10 C 0.2257(4) -0.3035(6) 0.3449(3)
H8 H 0.1799 -0.3101 0.3274
C11 C 0.2806(4) -0.2966(5) 0.3118(3)
H9 H 0.2714 -0.2979 0.2716
C12 C 0.3486(4) -0.2879(4) 0.3368(2)
C13 C 0.4054(4) -0.2848(4) 0.2976(3)
C14 C 0.3191(4) -0.2473(5) 0.9088(2)
H10 H 0.3122 -0.2105 0.8744
C15 C 0.3050(4) -0.3474(6) 0.9081(3)
H11 H 0.2890 -0.3782 0.8730
C16 C 0.3136(4) -0.4061(5) 0.9578(3)
H12 H 0.3034 -0.4752 0.9566
C17 C 0.3378(3) -0.3588(5) 1.0090(2)
H13 H 0.3454 -0.3972 1.0427
C18 C 0.3512(3) -0.2552(4) 1.0115(2)
C19 C 0.3438(3) -0.1973(4) 0.9601(2)
C20 C 0.2927(3) 0.0012(5) 0.8424(2)
C21 C 0.2356(4) 0.0081(7) 0.8734(3)
H14 H 0.2421 -0.0033 0.9132
C22 C 0.1706(4) 0.0311(7) 0.8479(3)
H15 H 0.1337 0.0354 0.8705
C23 C 0.1581(4) 0.0480(7) 0.7895(3)
H16 H 0.1131 0.0620 0.7720
C24 C 0.2138(4) 0.0437(6) 0.7576(3)
H17 H 0.2062 0.0566 0.7180
C25 C 0.2807(3) 0.0209(5) 0.7822(2)
C26 C 0.3395(3) 0.0166(4) 0.7450(2)
C27 C 0.4624(3) -0.1581(4) 0.6412(2)
C28 C 0.3717(3) -0.2078(5) 1.0691(2)
Zn2A Zn 0.60546(4) 0.02713(5) 0.86208(2)
Zn2E Zn 0.39454(4) -0.02713(5) 1.13792(2)
Zn2D Zn 0.60546(4) -0.02713(5) 0.36208(2)
Zn3A Zn 0.55455(4) 0.23785(5) 0.81572(2)
Zn3E Zn 0.44545(4) -0.23785(5) 1.18428(2)
Zn3E_2 Zn 0.44545(4) -0.23785(5) 0.18428(2)
Zn3D Zn 0.55455(4) -0.23785(5) 0.31572(2)
Zn3D_2 Zn 0.55455(4) -0.23785(5) 1.31572(2)
S1A S 0.54967(9) -0.25686(13) 1.07016(6)
S2A S 0.56309(10) -0.18987(12) 0.99251(6)
S3A S 0.63514(10) -0.06503(12) 0.53911(6)
S4A S 0.62215(9) -0.03380(14) 0.62378(6)
O1A O 0.5229(2) 0.0945(3) 0.81747(15)
H1A H 0.4870(19) 0.105(5) 0.835(2)
O2A O 0.5161(2) -0.1352(3) 0.80796(14)
O3A O 0.6013(2) -0.0009(3) 0.73163(14)
O4A O 0.6301(2) -0.1126(3) 0.42841(13)
O4E O 0.3699(2) 0.1126(3) 0.57159(13)
O4D O 0.6301(2) 0.1126(3) 0.92841(13)
O5A O 0.6761(2) 0.0327(3) 0.80922(14)
O6A O 0.5764(2) -0.0990(3) 0.89283(14)
O7A O 0.6118(2) -0.2665(3) 0.38843(14)
O7E O 0.3882(2) 0.2665(3) 0.61157(14)
O7D O 0.6118(2) 0.2665(3) 0.88843(14)
O8A O 0.6113(2) -0.2571(3) 1.25374(15)
O8E O 0.3887(2) 0.2571(3) 0.74626(15)
O8D O 0.6113(2) 0.2571(3) 0.75374(15)
O9A O 0.5335(2) -0.3104(3) 1.18155(14)
O9D O 0.5335(2) 0.3104(3) 0.68155(14)
O9E O 0.4665(2) 0.3104(3) 0.81845(14)
C1A C 0.5220(3) -0.2594(4) 0.8812(2)
C2A C 0.4941(3) -0.3321(5) 0.8414(2)
H2A H 0.4823 -0.3130 0.8030
C3A C 0.4836(4) -0.4307(5) 0.8573(3)
H3A H 0.4641 -0.4778 0.8302
C4A C 0.5026(5) -0.4588(5) 0.9140(3)
H4A H 0.4976 -0.5260 0.9252
C5A C 0.5292(4) -0.3872(5) 0.9547(3)
H5A H 0.5417 -0.4074 0.9928
C6A C 0.5375(3) -0.2867(4) 0.9398(2)
C7A C 0.6363(4) -0.2821(4) 1.1029(2)
C8A C 0.6923(4) -0.2889(5) 1.0696(3)
H6A H 0.6838 -0.2856 1.0294
C9A C 0.7599(4) -0.3004(6) 1.0957(3)
H7A H 0.7964 -0.3062 1.0728
C10A C 0.7743(4) -0.3035(6) 1.1551(3)
H8A H 0.8201 -0.3101 1.1726
C11A C 0.7194(4) -0.2966(5) 1.1882(3)
H9A H 0.7286 -0.2979 1.2284
C12A C 0.6514(4) -0.2879(4) 1.1632(2)
C13A C 0.5946(4) -0.2848(4) 1.2024(3)
C14A C 0.6809(4) -0.2473(5) 0.5912(2)
H10A H 0.6878 -0.2105 0.6256
C15A C 0.6950(4) -0.3474(6) 0.5919(3)
H11A H 0.7110 -0.3782 0.6270
C16A C 0.6864(4) -0.4061(5) 0.5422(3)
H12A H 0.6966 -0.4752 0.5434
C17A C 0.6622(3) -0.3588(5) 0.4910(2)
H13A H 0.6546 -0.3972 0.4573
C18A C 0.6488(3) -0.2552(4) 0.4885(2)
C19A C 0.6562(3) -0.1973(4) 0.5399(2)
C20A C 0.7073(3) 0.0012(5) 0.6576(2)
C21A C 0.7644(4) 0.0081(7) 0.6266(3)
H14A H 0.7579 -0.0033 0.5868
C22A C 0.8294(4) 0.0311(7) 0.6521(3)
H15A H 0.8663 0.0354 0.6295
C23A C 0.8419(4) 0.0480(7) 0.7105(3)
H16A H 0.8869 0.0620 0.7280
C24A C 0.7862(4) 0.0437(6) 0.7424(3)
H17A H 0.7938 0.0566 0.7820
C25A C 0.7193(3) 0.0209(5) 0.7178(2)
C26A C 0.6605(3) 0.0166(4) 0.7550(2)
C27A C 0.5376(3) -0.1581(4) 0.8588(2)
C28A C 0.6283(3) -0.2078(5) 0.4309(2)
loop_
_geom_bond_atom_site_label_1
_geom_bond_atom_site_label_2
_geom_bond_site_symmetry_1
_geom_bond_site_symmetry_2
Zn1 O1 1_555 1_555
Zn2 O1 1_555 1_555
Zn3 O1 1_555 1_555
S1 S2 1_555 1_555
S2 C6 1_555 1_555
S3 S4 1_555 1_555
S4 C20 1_555 1_555
O1 H1 1_555 1_555
O2 Zn1 1_555 1_555
O3 Zn1 1_555 1_555
O4 C28 1_555 1_555
O5 Zn2 1_555 1_555
O6 Zn2 1_555 1_555
O7 C28 1_555 1_555
O8 C13 1_555 1_555
O9 C13 1_555 1_555
C1 C2 1_555 1_555
C2 H2 1_555 1_555
C3 C2 1_555 1_555
H3 C3 1_555 1_555
C4 C3 1_555 1_555
H4 C4 1_555 1_555
C5 C4 1_555 1_555
H5 C5 1_555 1_555
C6 C1 1_555 1_555
C7 S1 1_555 1_555
C8 C7 1_555 1_555
H6 C8 1_555 1_555
C9 C8 1_555 1_555
H7 C9 1_555 1_555
C10 C9 1_555 1_555
H8 C10 1_555 1_555
C11 C10 1_555 1_555
H9 C11 1_555 1_555
C12 C7 1_555 1_555
C13 C12 1_555 1_555
C14 H10 1_555 1_555
C15 C14 1_555 1_555
H11 C15 1_555 1_555
C16 C15 1_555 1_555
H12 C16 1_555 1_555
C17 C16 1_555 1_555
H13 C17 1_555 1_555
C18 C17 1_555 1_555
C19 S3 1_555 1_555
C20 C21 1_555 1_555
C21 H14 1_555 1_555
C22 C21 1_555 1_555
H15 C22 1_555 1_555
C23 C22 1_555 1_555
H16 C23 1_555 1_555
C24 C23 1_555 1_555
H17 C24 1_555 1_555
C25 C20 1_555 1_555
C26 O3 1_555 1_555
C27 O2 1_555 1_555
C28 C18 1_555 1_555
Zn2A O1A 1_555 1_555
Zn2E O4 1_555 1_555
Zn2D O4A 1_555 1_555
Zn3A O1A 1_555 1_555
Zn3E O7 1_555 1_555
Zn3E_2 O8 1_555 1_555
Zn3D O9 1_555 1_555
Zn3D_2 O8A 1_555 1_555
S1A S2A 1_555 1_555
S2A C6A 1_555 1_555
S3A S4A 1_555 1_555
S4A C20A 1_555 1_555
O1A Zn1 1_555 1_555
H1A O1A 1_555 1_555
O2A Zn1 1_555 1_555
O3A Zn1 1_555 1_555
O4A C28A 1_555 1_555
O4E Zn2 1_555 1_555
O4D Zn2A 1_555 1_555
O5A Zn2A 1_555 1_555
O6A Zn2A 1_555 1_555
O7A Zn3D 1_555 1_555
O7E Zn3 1_555 1_555
O7D Zn3A 1_555 1_555
O8A C13A 1_555 1_555
O8E Zn3 1_555 1_555
O8D Zn3A 1_555 1_555
O9A Zn3E 1_555 1_555
O9D Zn3 1_555 1_555
O9E Zn3A 1_555 1_555
C1A C2A 1_555 1_555
C2A H2A 1_555 1_555
C3A C2A 1_555 1_555
H3A C3A 1_555 1_555
C4A C3A 1_555 1_555
H4A C4A 1_555 1_555
C5A C4A 1_555 1_555
H5A C5A 1_555 1_555
C6A C1A 1_555 1_555
C7A S1A 1_555 1_555
C8A C7A 1_555 1_555
H6A C8A 1_555 1_555
C9A C8A 1_555 1_555
H7A C9A 1_555 1_555
C10A C9A 1_555 1_555
H8A C10A 1_555 1_555
C11A C10A 1_555 1_555
H9A C11A 1_555 1_555
C12A C7A 1_555 1_555
C13A O9A 1_555 1_555
C14A H10A 1_555 1_555
C15A C14A 1_555 1_555
H11A C15A 1_555 1_555
C16A C15A 1_555 1_555
H12A C16A 1_555 1_555
C17A C16A 1_555 1_555
H13A C17A 1_555 1_555
C18A C17A 1_555 1_555
C19A S3A 1_555 1_555
C20A C21A 1_555 1_555
C21A H14A 1_555 1_555
C22A C21A 1_555 1_555
H15A C22A 1_555 1_555
C23A C22A 1_555 1_555
H16A C23A 1_555 1_555
C24A C23A 1_555 1_555
H17A C24A 1_555 1_555
C25A C20A 1_555 1_555
C26A O3A 1_555 1_555
C27A O2A 1_555 1_555
C28A O7A 1_555 1_555
O5 C26 1_555 1_555
O6 C27 1_555 1_555
C1 C27 1_555 1_555
C5 C6 1_555 1_555
C11 C12 1_555 1_555
C14 C19 1_555 1_555
C18 C19 1_555 1_555
C24 C25 1_555 1_555
C25 C26 1_555 1_555
O5A C26A 1_555 1_555
O6A C27A 1_555 1_555
C1A C27A 1_555 1_555
C5A C6A 1_555 1_555
C11A C12A 1_555 1_555
C12A C13A 1_555 1_555
C14A C19A 1_555 1_555
C18A C19A 1_555 1_555
C18A C28A 1_555 1_555
C24A C25A 1_555 1_555
C25A C26A 1_555 1_555

#END
