
#######################################################################
#
#                 Cambridge Crystallographic Data Centre
#                                CCDC 
#
#######################################################################
#
# If this CIF has been generated from an entry in the Cambridge 
# Structural Database, then it will include bibliographic, chemical, 
# crystal, experimental, refinement or atomic coordinate data resulting 
# from the CCDC's data processing and validation procedures.
#
#######################################################################

data_KERTOS
_symmetry_cell_setting           monoclinic
_symmetry_space_group_name_H-M   'P 21/c'
_symmetry_Int_Tables_number      14
_space_group_name_Hall           '-P 2ybc'
loop_
_symmetry_equiv_pos_site_id
_symmetry_equiv_pos_as_xyz
1 x,y,z
2 -x,1/2+y,1/2-z
3 -x,-y,-z
4 x,1/2-y,1/2+z
_cell_length_a                   11.804(7)
_cell_length_b                   14.022(8)
_cell_length_c                   15.576(9)
_cell_angle_alpha                90
_cell_angle_beta                 93.643(10)
_cell_angle_gamma                90
_cell_volume                     2572.86
loop_
_atom_site_label
_atom_site_type_symbol
_atom_site_fract_x
_atom_site_fract_y
_atom_site_fract_z
Cu1 Cu 0.31458(3) 0.31196(3) 0.30456(3)
O1 O 0.17585(18) 0.33076(16) 0.39559(13)
O2 O 0.2963(2) 0.41387(19) 0.48404(14)
O3 O 0.3647(2) 0.17777(19) 0.63242(14)
O4 O 0.20585(17) 0.18230(16) 0.70348(13)
O5 O -0.0129(2) 0.13577(17) 0.68945(15)
H1 H 0.0532 0.1537 0.6964
O6 O -0.1791(2) 0.20101(18) 0.65034(15)
O7 O -0.04214(19) 0.29418(18) 0.37577(16)
H2 H 0.0261 0.3043 0.3841
O8 O -0.1574(2) 0.1713(2) 0.38594(15)
N1 N 0.3301(2) 0.1662(2) 0.31321(17)
N2 N 0.4573(2) 0.3021(2) 0.37347(15)
N3 N 0.3652(2) 0.4519(2) 0.30322(15)
C1 C 0.3120(3) 0.5254(3) 0.2642(2)
H3 H 0.2465 0.5132 0.2296
C2 C 0.3492(3) 0.6191(3) 0.2726(2)
H4 H 0.3096 0.6686 0.2446
C3 C 0.4476(3) 0.6363(3) 0.3242(2)
H5 H 0.4754 0.6980 0.3311
C4 C 0.5035(3) 0.5612(3) 0.3648(2)
H6 H 0.5693 0.5720 0.3995
C5 C 0.4614(3) 0.4694(3) 0.3540(2)
C6 C 0.5140(3) 0.3830(3) 0.3939(2)
C7 C 0.6131(3) 0.3786(3) 0.4478(2)
H7 H 0.6540 0.4335 0.4624
C8 C 0.6487(3) 0.2908(3) 0.4787(2)
H8 H 0.7133 0.2870 0.5161
C9 C 0.5906(3) 0.2085(3) 0.4555(2)
H9 H 0.6163 0.1494 0.4757
C10 C 0.4926(3) 0.2157(3) 0.4012(2)
C11 C 0.4222(3) 0.1369(3) 0.3637(2)
C12 C 0.4473(3) 0.0397(3) 0.3723(2)
H10 H 0.5091 0.0198 0.4078
C13 C 0.3799(4) -0.0265(3) 0.3279(2)
H11 H 0.3971 -0.0911 0.3324
C14 C 0.2866(3) 0.0037(3) 0.2766(2)
H12 H 0.2399 -0.0400 0.2466
C15 C 0.2649(3) 0.1012(3) 0.2712(2)
H13 H 0.2023 0.1219 0.2370
C16 C 0.2055(3) 0.3728(2) 0.4678(2)
C17 C 0.2608(3) 0.1714(2) 0.6340(2)
C18 C -0.0765(3) 0.2062(3) 0.6548(2)
C19 C -0.0656(3) 0.2066(3) 0.4023(2)
C20 C 0.1187(3) 0.3718(2) 0.53603(18)
C21 C 0.0938(3) 0.4587(2) 0.5760(2)
H14 H 0.1313 0.5140 0.5610
C22 C 0.0143(3) 0.4627(3) 0.6374(2)
H15 H -0.0023 0.5206 0.6629
C23 C -0.0405(3) 0.3807(3) 0.6608(2)
H16 H -0.0944 0.3836 0.7017
C24 C -0.0155(3) 0.2933(2) 0.62316(19)
C25 C 0.0647(3) 0.2873(2) 0.56029(19)
C26 C 0.0953(3) 0.1930(2) 0.52119(18)
C27 C 0.1884(3) 0.1407(2) 0.55553(19)
C28 C 0.2152(3) 0.0519(2) 0.5204(2)
H17 H 0.2784 0.0185 0.5428
C29 C 0.1485(3) 0.0138(3) 0.4531(2)
H18 H 0.1654 -0.0458 0.4311
C30 C 0.0566(3) 0.0647(2) 0.4186(2)
H19 H 0.0114 0.0386 0.3735
C31 C 0.0304(3) 0.1542(2) 0.45000(19)
Cu1C Cu 0.31458(3) 0.18804(3) 0.80456(3)
O4C O 0.20585(17) 0.31770(16) 0.20348(13)
loop_
_geom_bond_atom_site_label_1
_geom_bond_atom_site_label_2
_geom_bond_site_symmetry_1
_geom_bond_site_symmetry_2
Cu1 O1 1_555 1_555
O1 C16 1_555 1_555
O2 C16 1_555 1_555
O3 C17 1_555 1_555
O4 C17 1_555 1_555
O5 H1 1_555 1_555
O6 C18 1_555 1_555
O7 H2 1_555 1_555
O8 C19 1_555 1_555
N1 Cu1 1_555 1_555
N2 Cu1 1_555 1_555
N3 Cu1 1_555 1_555
C1 N3 1_555 1_555
H3 C1 1_555 1_555
C2 C1 1_555 1_555
H4 C2 1_555 1_555
C3 C2 1_555 1_555
H5 C3 1_555 1_555
C4 C3 1_555 1_555
H6 C4 1_555 1_555
C5 N3 1_555 1_555
C6 N2 1_555 1_555
C7 C6 1_555 1_555
H7 C7 1_555 1_555
C8 C7 1_555 1_555
H8 C8 1_555 1_555
C9 C8 1_555 1_555
H9 C9 1_555 1_555
C10 N2 1_555 1_555
C11 N1 1_555 1_555
C12 C11 1_555 1_555
H10 C12 1_555 1_555
C13 C12 1_555 1_555
H11 C13 1_555 1_555
C14 C13 1_555 1_555
H12 C14 1_555 1_555
C15 N1 1_555 1_555
H13 C15 1_555 1_555
C16 C20 1_555 1_555
C17 C27 1_555 1_555
C18 O5 1_555 1_555
C19 O7 1_555 1_555
C20 C21 1_555 1_555
C21 H14 1_555 1_555
C22 C21 1_555 1_555
H15 C22 1_555 1_555
C23 C22 1_555 1_555
H16 C23 1_555 1_555
C24 C18 1_555 1_555
C25 C20 1_555 1_555
C26 C25 1_555 1_555
C27 C26 1_555 1_555
C28 C27 1_555 1_555
H17 C28 1_555 1_555
C29 C28 1_555 1_555
H18 C29 1_555 1_555
C30 C29 1_555 1_555
H19 C30 1_555 1_555
C31 C19 1_555 1_555
Cu1C O4 1_555 1_555
O4C Cu1 1_555 1_555
C4 C5 1_555 1_555
C5 C6 1_555 1_555
C9 C10 1_555 1_555
C10 C11 1_555 1_555
C14 C15 1_555 1_555
C23 C24 1_555 1_555
C24 C25 1_555 1_555
C26 C31 1_555 1_555
C30 C31 1_555 1_555

#END
