
#######################################################################
#
#                 Cambridge Crystallographic Data Centre
#                                CCDC 
#
#######################################################################
#
# If this CIF has been generated from an entry in the Cambridge 
# Structural Database, then it will include bibliographic, chemical, 
# crystal, experimental, refinement or atomic coordinate data resulting 
# from the CCDC's data processing and validation procedures.
#
#######################################################################

data_KERVUZ
_symmetry_cell_setting           monoclinic
_symmetry_space_group_name_H-M   'P 2/n'
_symmetry_Int_Tables_number      13
_space_group_name_Hall           '-P 2yac'
loop_
_symmetry_equiv_pos_site_id
_symmetry_equiv_pos_as_xyz
1 x,y,z
2 1/2-x,y,1/2-z
3 -x,-y,-z
4 1/2+x,-y,1/2+z
_cell_length_a                   7.029(5)
_cell_length_b                   11.649(5)
_cell_length_c                   11.541(5)
_cell_angle_alpha                90
_cell_angle_beta                 102.143(5)
_cell_angle_gamma                90
_cell_volume                     923.843
loop_
_atom_site_label
_atom_site_type_symbol
_atom_site_fract_x
_atom_site_fract_y
_atom_site_fract_z
Cd1 Cd 0.2500 0.392589(19) 0.2500
N1 N 0.2500 0.1942(2) 0.2500
N2 N 0.2500 -0.4135(2) 0.2500
C7 C 0.1851(4) 0.1339(2) 0.1509(2)
H3 H 0.1392 0.1739 0.0808
C8 C 0.1830(3) 0.0161(2) 0.14728(19)
H4 H 0.1366 -0.0218 0.0760
C9 C 0.2500 -0.0464(3) 0.2500
C10 C 0.2500 -0.1741(3) 0.2500
C11 C 0.2614(4) -0.2360(2) 0.3541(2)
H5 H 0.2690 -0.1980 0.4258
C12 C 0.2614(4) -0.3538(2) 0.3501(2)
H6 H 0.2698 -0.3940 0.4206
O3 O 0.5676(2) 0.40669(13) 0.35528(15)
H7 H 0.6206 0.4695 0.3462
H8 H 0.6419 0.3497 0.3514
O4 O 0.3835(3) 0.37430(16) 0.08328(15)
H9 H 0.4852 0.3335 0.0961
H10 H 0.3421 0.3762 0.0092
Cd1_2 Cd 0.2500 -0.607411(19) 0.2500
N2_2 N 0.2500 0.5865(2) 0.2500
C7A C 0.3149(4) 0.1339(2) 0.3491(2)
H3A H 0.3608 0.1739 0.4192
C8A C 0.3170(3) 0.0161(2) 0.35272(19)
H4A H 0.3634 -0.0218 0.4240
C11A C 0.2386(4) -0.2360(2) 0.1459(2)
H5A H 0.2310 -0.1980 0.0742
C12A C 0.2386(4) -0.3538(2) 0.1499(2)
H6A H 0.2302 -0.3940 0.0794
O3A O -0.0676(2) 0.40669(13) 0.14472(15)
H7A H -0.1206 0.4695 0.1538
H8A H -0.1419 0.3497 0.1486
O4A O 0.1165(3) 0.37430(16) 0.41672(15)
H9A H 0.0148 0.3335 0.4039
H10A H 0.1579 0.3762 0.4908
O1 O 0.2487(3) 0.38409(14) 0.84582(15)
O2 O 0.2074(3) -0.21758(15) 0.65089(15)
C1 C 0.2500 0.3335(3) 0.7500
C2 C 0.2500 0.2035(3) 0.7500
C3 C 0.3082(3) 0.1422(2) 0.8549(2)
H1 H 0.3467 0.1815 0.9262
C4 C 0.3097(3) 0.0233(2) 0.85460(19)
H2 H 0.3512 -0.0161 0.9255
C5 C 0.2500 -0.0380(3) 0.7500
C6 C 0.2500 -0.1670(3) 0.7500
O1A O 0.2513(3) 0.38409(14) 0.65418(15)
O2A O 0.2926(3) -0.21758(15) 0.84911(15)
C3A C 0.1918(3) 0.1422(2) 0.6451(2)
H1A H 0.1533 0.1815 0.5738
C4A C 0.1903(3) 0.0233(2) 0.64540(19)
H2A H 0.1488 -0.0161 0.5745
loop_
_geom_bond_atom_site_label_1
_geom_bond_atom_site_label_2
_geom_bond_site_symmetry_1
_geom_bond_site_symmetry_2
Cd1 N1 1_555 1_555
O1 C1 1_555 1_555
O2 C6 1_555 1_555
N1 C7 1_555 1_555
N2 C12 1_555 1_555
C1 C2 1_555 1_555
C2 C3 1_555 1_555
C3 H1 1_555 1_555
C4 C3 1_555 1_555
H2 C4 1_555 1_555
C5 C4 1_555 1_555
C6 C5 1_555 1_555
C7 H3 1_555 1_555
C8 C7 1_555 1_555
H4 C8 1_555 1_555
C9 C8 1_555 1_555
C10 C9 1_555 1_555
C11 C10 1_555 1_555
H5 C11 1_555 1_555
C12 C11 1_555 1_555
H6 C12 1_555 1_555
O3 Cd1 1_555 1_555
H7 O3 1_555 1_555
H8 O3 1_555 1_555
O4 Cd1 1_555 1_555
H9 O4 1_555 1_555
H10 O4 1_555 1_555
Cd1_2 N2 1_555 1_555
O1A C1 1_555 1_555
O2A C6 1_555 1_555
N2_2 Cd1 1_555 1_555
C3A C2 1_555 1_555
H1A C3A 1_555 1_555
C4A C5 1_555 1_555
H2A C4A 1_555 1_555
C7A N1 1_555 1_555
H3A C7A 1_555 1_555
C8A C9 1_555 1_555
H4A C8A 1_555 1_555
C11A C10 1_555 1_555
H5A C11A 1_555 1_555
C12A N2 1_555 1_555
H6A C12A 1_555 1_555
O3A Cd1 1_555 1_555
H7A O3A 1_555 1_555
H8A O3A 1_555 1_555
O4A Cd1 1_555 1_555
H9A O4A 1_555 1_555
H10A O4A 1_555 1_555
C3A C4A 1_555 1_555
C7A C8A 1_555 1_555
C11A C12A 1_555 1_555

#END
