
#######################################################################
#
#                 Cambridge Crystallographic Data Centre
#                                CCDC 
#
#######################################################################
#
# If this CIF has been generated from an entry in the Cambridge 
# Structural Database, then it will include bibliographic, chemical, 
# crystal, experimental, refinement or atomic coordinate data resulting 
# from the CCDC's data processing and validation procedures.
#
#######################################################################

data_KERWOU
_symmetry_cell_setting           monoclinic
_symmetry_space_group_name_H-M   'P 21/n'
_symmetry_Int_Tables_number      14
_space_group_name_Hall           '-P 2yn'
loop_
_symmetry_equiv_pos_site_id
_symmetry_equiv_pos_as_xyz
1 x,y,z
2 1/2-x,1/2+y,1/2-z
3 -x,-y,-z
4 1/2+x,1/2-y,1/2+z
_cell_length_a                   7.5357(7)
_cell_length_b                   11.7504(12)
_cell_length_c                   19.4596(19)
_cell_angle_alpha                90
_cell_angle_beta                 98.776(2)
_cell_angle_gamma                90
_cell_volume                     1702.93
loop_
_atom_site_label
_atom_site_type_symbol
_atom_site_fract_x
_atom_site_fract_y
_atom_site_fract_z
Zn1 Zn 0.45495(3) 0.77747(2) 0.256758(12)
O1 O 0.1994(3) 0.7119(2) 0.21672(10)
H1 H 0.127(4) 0.720(3) 0.2398(16)
H2 H 0.173(4) 0.681(3) 0.1818(12)
O2 O 0.6125(2) 0.65116(15) 0.21731(9)
H3 H 0.592(4) 0.5844(18) 0.2090(16)
H4 H 0.715(3) 0.662(3) 0.2355(16)
O3 O 0.3268(2) 0.91305(15) 0.29951(10)
H5 H 0.226(3) 0.917(3) 0.3050(15)
H6 H 0.377(4) 0.958(2) 0.3255(14)
S1 S 0.87271(7) 0.83801(4) 0.32630(3)
O4 O 0.6839(2) 0.86776(13) 0.30147(8)
O5 O 0.8973(3) 0.81849(17) 0.40117(9)
O6 O 0.9845(2) 0.93425(14) 0.31001(11)
O7 O 0.9234(2) 0.73484(14) 0.29049(9)
C1 C 0.4470(4) 0.5592(2) 0.34444(13)
H7 H 0.4278 0.5252 0.3008
C2 C 0.4666(4) 0.4895(2) 0.40242(13)
H8 H 0.4643 0.4109 0.3970
C3 C 0.4895(3) 0.5359(2) 0.46800(11)
C4 C 0.4942(5) 0.6531(2) 0.47111(13)
H9 H 0.5090 0.6893 0.5141
C5 C 0.4774(4) 0.7171(2) 0.41129(13)
H10 H 0.4826 0.7959 0.4154
N1 N 0.4539(3) 0.67186(17) 0.34782(10)
C6 C 0.4438(4) 0.8054(2) 0.09975(12)
H11 H 0.4185 0.7280 0.1005
C7 C 0.4572(3) 0.8551(2) 0.03678(12)
H12 H 0.4422 0.8115 -0.0036
C8 C 0.4934(3) 0.97103(19) 0.03363(11)
C9 C 0.5158(4) 1.0297(2) 0.09633(12)
H13 H 0.5414 1.1072 0.0973
C10 C 0.5001(4) 0.9731(2) 0.15718(12)
H14 H 0.5148 1.0145 0.1984
N2 N 0.4652(3) 0.86225(16) 0.16011(9)
Zn1B Zn 0.54505(3) 0.22253(2) 0.743242(12)
Zn1B_2 Zn 0.54505(3) 1.22253(2) -0.256758(12)
O1B O 0.8006(3) 0.2881(2) 0.78328(10)
H1B H 0.873(4) 0.280(3) 0.7602(16)
H2B H 0.827(4) 0.319(3) 0.8182(12)
O2B O 0.3875(2) 0.34884(15) 0.78269(9)
H3B H 0.408(4) 0.4156(18) 0.7910(16)
H4B H 0.285(3) 0.338(3) 0.7645(16)
O3B O 0.6732(2) 0.08695(15) 0.70049(10)
H5B H 0.774(3) 0.083(3) 0.6950(15)
H6B H 0.623(4) 0.042(2) 0.6745(14)
S1B S 0.12729(7) 0.16199(4) 0.67370(3)
O4B O 0.3161(2) 0.13224(13) 0.69853(8)
O5B O 0.1027(3) 0.18151(17) 0.59883(9)
O6B O 0.0155(2) 0.06575(14) 0.68999(11)
O7B O 0.0766(2) 0.26516(14) 0.70951(9)
C1B C 0.5530(4) 0.4408(2) 0.65556(13)
H7B H 0.5722 0.4748 0.6992
C2B C 0.5334(4) 0.5105(2) 0.59758(13)
H8B H 0.5357 0.5891 0.6030
C3B C 0.5105(3) 0.4641(2) 0.53200(11)
C4B C 0.5058(5) 0.3469(2) 0.52889(13)
H9B H 0.4910 0.3107 0.4859
C5B C 0.5226(4) 0.2829(2) 0.58871(13)
H10B H 0.5174 0.2041 0.5846
N1B N 0.5461(3) 0.32814(17) 0.65218(10)
C6B C 0.5562(4) 1.1946(2) -0.09975(12)
H11B H 0.5815 1.2720 -0.1005
C7B C 0.5428(3) 1.1449(2) -0.03678(12)
H12B H 0.5578 1.1885 0.0036
C8B C 0.5066(3) 1.02897(19) -0.03363(11)
C9B C 0.4842(4) 0.9703(2) -0.09633(12)
H13B H 0.4586 0.8928 -0.0973
C10B C 0.4999(4) 1.0269(2) -0.15718(12)
H14B H 0.4852 0.9855 -0.1984
N2B N 0.5348(3) 1.13775(16) -0.16011(9)
N2B_2 N 0.5348(3) 0.13775(16) 0.83989(9)
C11 C 0.6458(4) 1.1056(3) 0.41128(16)
H15 H 0.6742 1.1860 0.4099
H16 H 0.6904 1.0694 0.3725
O8 O 0.4561(3) 1.0934(2) 0.40191(11)
H17 H 0.414(5) 1.094(3) 0.4381(17)
C12 C 0.7429(4) 1.0565(3) 0.47738(18)
H18 H 0.8709 1.0669 0.4783
H19 H 0.7086 1.0982 0.5163
O9 O 0.7080(3) 0.9399(2) 0.48590(12)
H20 H 0.758(6) 0.902(4) 0.459(2)
loop_
_geom_bond_atom_site_label_1
_geom_bond_atom_site_label_2
_geom_bond_site_symmetry_1
_geom_bond_site_symmetry_2
Zn1 O1 1_555 1_555
O1 H1 1_555 1_555
H2 O1 1_555 1_555
O2 Zn1 1_555 1_555
H3 O2 1_555 1_555
H4 O2 1_555 1_555
O3 Zn1 1_555 1_555
H5 O3 1_555 1_555
H6 O3 1_555 1_555
S1 O4 1_555 1_555
O4 Zn1 1_555 1_555
O5 S1 1_555 1_555
O6 S1 1_555 1_555
O7 S1 1_555 1_555
C1 H7 1_555 1_555
C2 C1 1_555 1_555
H8 C2 1_555 1_555
C3 C2 1_555 1_555
C4 C3 1_555 1_555
H9 C4 1_555 1_555
C5 C4 1_555 1_555
H10 C5 1_555 1_555
N1 Zn1 1_555 1_555
C6 H11 1_555 1_555
C7 C6 1_555 1_555
H12 C7 1_555 1_555
C8 C7 1_555 1_555
C9 C8 1_555 1_555
H13 C9 1_555 1_555
C10 C9 1_555 1_555
H14 C10 1_555 1_555
N2 Zn1 1_555 1_555
C11 H15 1_555 1_555
H16 C11 1_555 1_555
O8 C11 1_555 1_555
H17 O8 1_555 1_555
C12 C11 1_555 1_555
H18 C12 1_555 1_555
H19 C12 1_555 1_555
O9 C12 1_555 1_555
H20 O9 1_555 1_555
Zn1B O1B 1_555 1_555
Zn1B_2 N2B 1_555 1_555
O1B H1B 1_555 1_555
H2B O1B 1_555 1_555
O2B Zn1B 1_555 1_555
H3B O2B 1_555 1_555
H4B O2B 1_555 1_555
O3B Zn1B 1_555 1_555
H5B O3B 1_555 1_555
H6B O3B 1_555 1_555
S1B O4B 1_555 1_555
O4B Zn1B 1_555 1_555
O5B S1B 1_555 1_555
O6B S1B 1_555 1_555
O7B S1B 1_555 1_555
C1B H7B 1_555 1_555
C2B C1B 1_555 1_555
H8B C2B 1_555 1_555
C3B C3 1_555 1_555
C4B C3B 1_555 1_555
H9B C4B 1_555 1_555
C5B C4B 1_555 1_555
H10B C5B 1_555 1_555
N1B Zn1B 1_555 1_555
C6B H11B 1_555 1_555
C7B C6B 1_555 1_555
H12B C7B 1_555 1_555
C8B C8 1_555 1_555
C9B C8B 1_555 1_555
H13B C9B 1_555 1_555
C10B C9B 1_555 1_555
H14B C10B 1_555 1_555
N2B C6B 1_555 1_555
N2B_2 Zn1B 1_555 1_555
C1 N1 1_555 1_555
C5 N1 1_555 1_555
C6 N2 1_555 1_555
C10 N2 1_555 1_555
C1B N1B 1_555 1_555
C2B C3B 1_555 1_555
C5B N1B 1_555 1_555
C7B C8B 1_555 1_555
C10B N2B 1_555 1_555

#END
