
#######################################################################
#
#                 Cambridge Crystallographic Data Centre
#                                CCDC 
#
#######################################################################
#
# If this CIF has been generated from an entry in the Cambridge 
# Structural Database, then it will include bibliographic, chemical, 
# crystal, experimental, refinement or atomic coordinate data resulting 
# from the CCDC's data processing and validation procedures.
#
#######################################################################

data_KERWIP
_symmetry_cell_setting           monoclinic
_symmetry_space_group_name_H-M   'P 21/n'
_symmetry_Int_Tables_number      14
_space_group_name_Hall           '-P 2yn'
loop_
_symmetry_equiv_pos_site_id
_symmetry_equiv_pos_as_xyz
1 x,y,z
2 1/2-x,1/2+y,1/2-z
3 -x,-y,-z
4 1/2+x,1/2-y,1/2+z
_cell_length_a                   12.453(3)
_cell_length_b                   11.674(3)
_cell_length_c                   17.814(3)
_cell_angle_alpha                90
_cell_angle_beta                 103.275(2)
_cell_angle_gamma                90
_cell_volume                     2520.53
loop_
_atom_site_label
_atom_site_type_symbol
_atom_site_fract_x
_atom_site_fract_y
_atom_site_fract_z
Mn1 Mn 0.60850(7) 0.12698(7) 0.76334(5)
N1 N 0.7380(4) 0.0151(4) 0.7897(3)
N2 N 0.4815(4) 0.2415(5) 0.7374(3)
N3 N 0.4804(5) -0.0228(5) 0.7634(3)
N4 N 0.3922(7) -0.0074(7) 0.7487(4)
N5 N 0.2971(7) 0.0020(10) 0.7329(5)
O1 O 0.6212(3) 0.1557(3) 0.8675(2)
O2 O 0.5495(3) 0.1951(4) 0.9926(2)
O3 O 0.7622(3) -0.2258(3) 0.7383(2)
O4 O 0.6055(3) 0.1076(3) 0.6596(2)
O5 O 0.6552(4) 0.0513(4) 0.5287(2)
O6 O 0.4364(7) 0.4741(9) 0.7860(6)
H1 H 0.4020 0.5228 0.8040
C1 C 0.7262(4) -0.0074(5) 0.9242(3)
C2 C 0.6548(4) 0.0830(5) 0.9266(3)
C3 C 0.6179(4) 0.1046(5) 0.9962(3)
C4 C 0.6545(5) 0.0332(6) 1.0579(4)
H3 H 0.6304 0.0455 1.1030
C5 C 0.7260(6) -0.0564(6) 1.0551(4)
H4 H 0.7486 -0.1036 1.0979
C6 C 0.7636(5) -0.0760(6) 0.9903(4)
H5 H 0.8140 -0.1346 0.9896
C7 C 0.7721(4) -0.0299(5) 0.8579(3)
H6 H 0.8310 -0.0809 0.8646
C8 C 0.7978(5) -0.0221(5) 0.7294(4)
H7 H 0.7962 0.0395 0.6926
H8 H 0.8743 -0.0380 0.7537
C9 C 0.7458(5) -0.1267(5) 0.6880(3)
H9 H 0.6674 -0.1136 0.6687
H10 H 0.7778 -0.1415 0.6441
C10 C 0.5116(6) 0.2187(6) 1.0613(4)
H11 H 0.5736 0.2345 1.1041
H12 H 0.4715 0.1534 1.0747
C11 C 0.4369(7) 0.3219(7) 1.0445(5)
H13 H 0.4782 0.3866 1.0333
H14 H 0.4075 0.3387 1.0886
H15 H 0.3774 0.3061 1.0009
C12 C 0.4821(5) 0.2559(5) 0.6003(4)
C13 C 0.5582(5) 0.1674(5) 0.5984(3)
C14 C 0.5825(5) 0.1394(5) 0.5266(3)
C15 C 0.5291(5) 0.1968(6) 0.4612(4)
H16 H 0.5434 0.1761 0.4140
C16 C 0.4553(6) 0.2840(7) 0.4633(4)
H17 H 0.4209 0.3213 0.4180
C17 C 0.4328(5) 0.3153(6) 0.5306(4)
H18 H 0.3849 0.3760 0.5319
C18 C 0.4434(5) 0.2824(6) 0.6696(4)
H19 H 0.3853 0.3341 0.6641
C19 C 0.4176(7) 0.2705(8) 0.7967(5)
H20 H 0.3400 0.2768 0.7714
H21 H 0.4253 0.2082 0.8336
C20 C 0.4512(10) 0.3712(12) 0.8359(7)
H22 H 0.5286 0.3644 0.8615
H23 H 0.4099 0.3814 0.8754
C21 C 0.6802(6) 0.0167(6) 0.4565(4)
H24 H 0.7094 0.0810 0.4330
H25 H 0.6139 -0.0103 0.4210
C22 C 0.7632(7) -0.0766(7) 0.4739(4)
H26 H 0.8309 -0.0470 0.5049
H27 H 0.7761 -0.1065 0.4265
H28 H 0.7362 -0.1366 0.5014
Mn1A Mn 0.89150(7) -0.37302(7) 0.73666(5)
O3A O 0.7378(3) 0.2742(3) 0.7617(2)
O7 O 0.5570(6) 0.7490(7) 0.7574(5)
H2 H 0.5455 0.8116 0.7749
C23 C 0.4549(11) 0.6894(12) 0.7323(9)
H29 H 0.4393 0.6465 0.7745
H30 H 0.4600 0.6380 0.6911
H31 H 0.3966 0.7435 0.7142
loop_
_geom_bond_atom_site_label_1
_geom_bond_atom_site_label_2
_geom_bond_site_symmetry_1
_geom_bond_site_symmetry_2
Mn1 N1 1_555 1_555
N1 C7 1_555 1_555
N2 Mn1 1_555 1_555
N3 Mn1 1_555 1_555
N4 N3 1_555 1_555
N5 N4 1_555 1_555
O1 Mn1 1_555 1_555
O2 C3 1_555 1_555
O3 C9 1_555 1_555
O4 Mn1 1_555 1_555
O5 C14 1_555 1_555
O6 H1 1_555 1_555
O7 H2 1_555 1_555
C1 C2 1_555 1_555
C2 O1 1_555 1_555
C3 C2 1_555 1_555
C4 C3 1_555 1_555
H3 C4 1_555 1_555
C5 C4 1_555 1_555
H4 C5 1_555 1_555
C6 C1 1_555 1_555
H5 C6 1_555 1_555
C7 C1 1_555 1_555
H6 C7 1_555 1_555
C8 N1 1_555 1_555
H7 C8 1_555 1_555
H8 C8 1_555 1_555
C9 C8 1_555 1_555
H9 C9 1_555 1_555
H10 C9 1_555 1_555
C10 O2 1_555 1_555
H11 C10 1_555 1_555
H12 C10 1_555 1_555
C11 C10 1_555 1_555
H13 C11 1_555 1_555
H14 C11 1_555 1_555
H15 C11 1_555 1_555
C12 C13 1_555 1_555
C13 O4 1_555 1_555
C14 C13 1_555 1_555
C15 C14 1_555 1_555
H16 C15 1_555 1_555
C16 C15 1_555 1_555
H17 C16 1_555 1_555
C17 C12 1_555 1_555
H18 C17 1_555 1_555
C18 N2 1_555 1_555
H19 C18 1_555 1_555
C19 N2 1_555 1_555
H20 C19 1_555 1_555
H21 C19 1_555 1_555
C20 O6 1_555 1_555
H22 C20 1_555 1_555
H23 C20 1_555 1_555
C21 O5 1_555 1_555
H24 C21 1_555 1_555
H25 C21 1_555 1_555
C22 C21 1_555 1_555
H26 C22 1_555 1_555
H27 C22 1_555 1_555
H28 C22 1_555 1_555
C23 O7 1_555 1_555
H29 C23 1_555 1_555
H30 C23 1_555 1_555
H31 C23 1_555 1_555
Mn1A O3 1_555 1_555
O3A Mn1 1_555 1_555
C5 C6 1_555 1_555
C12 C18 1_555 1_555
C16 C17 1_555 1_555
C19 C20 1_555 1_555

#END
