
#######################################################################
#
#                 Cambridge Crystallographic Data Centre
#                                CCDC 
#
#######################################################################
#
# If this CIF has been generated from an entry in the Cambridge 
# Structural Database, then it will include bibliographic, chemical, 
# crystal, experimental, refinement or atomic coordinate data resulting 
# from the CCDC's data processing and validation procedures.
#
#######################################################################

data_KESBER
_symmetry_cell_setting           monoclinic
_symmetry_space_group_name_H-M   'C 2/c'
_symmetry_Int_Tables_number      15
_space_group_name_Hall           '-C 2yn'
loop_
_symmetry_equiv_pos_site_id
_symmetry_equiv_pos_as_xyz
1 x,y,z
2 -x,y,1/2-z
3 1/2+x,1/2+y,z
4 1/2-x,1/2+y,1/2-z
5 -x,-y,-z
6 x,-y,1/2+z
7 1/2-x,1/2-y,-z
8 1/2+x,1/2-y,1/2+z
_cell_length_a                   22.786(5)
_cell_length_b                   15.712(3)
_cell_length_c                   18.305(4)
_cell_angle_alpha                90
_cell_angle_beta                 119.13(3)
_cell_angle_gamma                90
_cell_volume                     5724.54
loop_
_atom_site_label
_atom_site_type_symbol
_atom_site_fract_x
_atom_site_fract_y
_atom_site_fract_z
C1 C 0.01470(19) -0.0138(2) 0.2249(2)
H1 H 0.0257 -0.0654 0.2096
C2 C 0.47103(16) -0.10695(18) 0.25290(19)
H2 H 0.4517 -0.1585 0.2547
O1 O 0.32954(15) 0.33630(17) 0.16858(16)
O2 O 0.24756(12) 0.41571(16) 0.15979(15)
C3 C 0.29118(18) 0.3989(2) 0.13942(19)
C4 C 0.34578(17) 0.4418(2) 0.05341(19)
H3 H 0.3768 0.3980 0.0779
N1 N 0.09013(14) 0.13285(18) 0.13225(19)
Cd1 Cd 0.273627(11) 0.299661(13) 0.245600(12)
C5 C 0.36384(14) 0.14708(19) 0.37513(18)
C6 C 0.37632(17) 0.1852(2) 0.4500(2)
H4 H 0.3639 0.2412 0.4516
N2 N 0.36243(12) 0.04493(15) 0.29082(16)
C7 C 0.38297(14) 0.06316(19) 0.37406(19)
N3 N 0.33342(12) 0.17917(15) 0.29411(15)
N4 N 0.17117(13) 0.22898(17) 0.16607(16)
C8 C 0.12225(15) 0.2404(2) 0.0822(2)
C9 C 0.47098(14) 0.04372(17) 0.25323(18)
H5 H 0.4519 0.0952 0.2556
C10 C 0.33347(14) 0.11656(18) 0.24589(18)
C11 C 0.07126(16) 0.1812(2) 0.0606(2)
C12 C 0.44102(14) -0.03150(17) 0.25614(17)
C13 C 0.11967(19) 0.2976(2) 0.0226(2)
H6 H 0.1538 0.3370 0.0353
C14 C 0.1861(2) 0.1266(3) 0.2776(2)
H7 H 0.2088 0.0756 0.2766
H8 H 0.1545 0.1135 0.2965
H9 H 0.2184 0.1670 0.3151
C15 C 0.0646(2) 0.2933(3) -0.0559(3)
H10 H 0.0615 0.3310 -0.0968
C16 C 0.15006(16) 0.1634(2) 0.1926(2)
C17 C 0.37629(17) -0.03390(19) 0.2606(2)
H11 H 0.3392 -0.0460 0.2053
H12 H 0.3788 -0.0800 0.2973
C18 C 0.30543(18) 0.1234(2) 0.15385(19)
H13 H 0.2576 0.1158 0.1266
H14 H 0.3250 0.0803 0.1352
H15 H 0.3156 0.1785 0.1403
C19 C 0.40781(18) 0.1366(3) 0.5214(2)
H16 H 0.4168 0.1606 0.5723
C20 C 0.42646(17) 0.0528(3) 0.5195(2)
H17 H 0.4475 0.0220 0.5691
C21 C 0.41463(16) 0.0143(2) 0.4462(2)
H18 H 0.4272 -0.0418 0.4449
C22 C 0.01549(18) 0.1774(3) -0.0188(3)
H19 H -0.0187 0.1380 -0.0322
C23 C 0.02808(16) 0.0604(2) 0.1974(2)
C24 C 0.0567(2) 0.0552(2) 0.1379(3)
H20 H 0.0887 0.0087 0.1555
H21 H 0.0204 0.0415 0.0825
C25 C 0.0131(3) 0.1351(2) 0.2228(3)
H22 H 0.0206 0.1865 0.2036
C26 C 0.0136(2) 0.2348(3) -0.0762(3)
H23 H -0.0229 0.2344 -0.1300
O3 O 0.25124(11) 0.65855(14) -0.15353(13)
O4 O 0.34776(12) 0.60306(15) -0.13030(15)
C27 C 0.30240(15) 0.55814(18) -0.04367(17)
C28 C 0.25132(16) 0.5205(2) 0.03979(19)
H24 H 0.2187 0.5301 0.0554
C29 C 0.29674(15) 0.45511(18) 0.07641(18)
C30 C 0.25380(16) 0.57187(19) -0.01987(18)
H25 H 0.2229 0.6158 -0.0442
C31 C 0.30130(16) 0.60992(19) -0.11354(18)
C32 C 0.34864(16) 0.4935(2) -0.00585(19)
H26 H 0.3820 0.4847 -0.0204
C1A C -0.01470(19) -0.0138(2) 0.2751(2)
H1A H -0.0257 -0.0654 0.2904
C2A C 0.52897(16) -0.10695(18) 0.24710(19)
H2A H 0.5483 -0.1585 0.2453
O1E O 0.32954(15) 0.66370(17) 0.66858(16)
O2E O 0.24756(12) 0.58429(16) 0.65979(15)
C3E C 0.29118(18) 0.6011(2) 0.63942(19)
C4E C 0.34578(17) 0.5582(2) 0.55341(19)
H3E H 0.3768 0.6020 0.5779
N1A N -0.09013(14) 0.13285(18) 0.36775(19)
Cd1E Cd 0.273627(11) 0.700339(13) 0.745600(12)
Cd1E_2 Cd 0.273627(11) 0.700339(13) -0.254400(12)
Cd1A Cd -0.273627(11) 0.299661(13) 0.254400(12)
Cd1A_2 Cd 0.726373(11) 0.299661(13) 0.254400(12)
C5A C 0.63616(14) 0.14708(19) 0.12487(18)
C6A C 0.62368(17) 0.1852(2) 0.0500(2)
H4A H 0.6361 0.2412 0.0484
N2A N 0.63757(12) 0.04493(15) 0.20918(16)
C7A C 0.61703(14) 0.06316(19) 0.12594(19)
N3A N 0.66658(12) 0.17917(15) 0.20589(15)
N3E N 0.33342(12) 0.82083(15) 0.79411(15)
N4A N -0.17117(13) 0.22898(17) 0.33393(16)
N4E N 0.17117(13) 0.77102(17) 0.66607(16)
C8A C -0.12225(15) 0.2404(2) 0.4178(2)
C9A C 0.52902(14) 0.04372(17) 0.24677(18)
H5A H 0.5481 0.0952 0.2444
C10A C 0.66653(14) 0.11656(18) 0.25411(18)
C11A C -0.07126(16) 0.1812(2) 0.4394(2)
C12A C 0.55898(14) -0.03150(17) 0.24386(17)
C13A C -0.11967(19) 0.2976(2) 0.4774(2)
H6A H -0.1538 0.3370 0.4647
C14A C -0.1861(2) 0.1266(3) 0.2224(2)
H7A H -0.2088 0.0756 0.2234
H8A H -0.1545 0.1135 0.2035
H9A H -0.2184 0.1670 0.1849
C15A C -0.0646(2) 0.2933(3) 0.5559(3)
H10A H -0.0615 0.3310 0.5968
C16A C -0.15006(16) 0.1634(2) 0.3074(2)
C17A C 0.62371(17) -0.03390(19) 0.2394(2)
H11A H 0.6608 -0.0460 0.2947
H12A H 0.6212 -0.0800 0.2027
C18A C 0.69457(18) 0.1234(2) 0.34615(19)
H13A H 0.7424 0.1158 0.3734
H14A H 0.6750 0.0803 0.3648
H15A H 0.6844 0.1785 0.3597
C19A C 0.59219(18) 0.1366(3) -0.0214(2)
H16A H 0.5832 0.1606 -0.0723
C20A C 0.57354(17) 0.0528(3) -0.0195(2)
H17A H 0.5525 0.0220 -0.0691
C21A C 0.58537(16) 0.0143(2) 0.0538(2)
H18A H 0.5728 -0.0418 0.0551
C22A C -0.01549(18) 0.1774(3) 0.5188(3)
H19A H 0.0187 0.1380 0.5322
C23A C -0.02808(16) 0.0604(2) 0.3026(2)
C24A C -0.0567(2) 0.0552(2) 0.3621(3)
H20A H -0.0887 0.0087 0.3445
H21A H -0.0204 0.0415 0.4175
C25A C -0.0131(3) 0.1351(2) 0.2772(3)
H22A H -0.0206 0.1865 0.2964
C26A C -0.0136(2) 0.2348(3) 0.5762(3)
H23A H 0.0229 0.2344 0.6300
O3E O 0.25124(11) 0.34145(14) 0.34647(13)
O3_2 O 0.25124(11) 0.65855(14) 0.84647(13)
O4E O 0.34776(12) 0.39694(15) 0.36970(15)
O4_2 O 0.34776(12) 0.60306(15) 0.86970(15)
C27E C 0.30240(15) 0.44186(18) 0.45633(17)
C28E C 0.25132(16) 0.4795(2) 0.53979(19)
H24E H 0.2187 0.4699 0.5554
C29E C 0.29674(15) 0.54489(18) 0.57641(18)
C30E C 0.25380(16) 0.42813(19) 0.48013(18)
H25E H 0.2229 0.3842 0.4558
C31E C 0.30130(16) 0.39008(19) 0.38646(18)
C32E C 0.34864(16) 0.5065(2) 0.49415(19)
H26E H 0.3820 0.5153 0.4796
loop_
_geom_bond_atom_site_label_1
_geom_bond_atom_site_label_2
_geom_bond_site_symmetry_1
_geom_bond_site_symmetry_2
C1 H1 1_555 1_555
C2 H2 1_555 1_555
O1 C3 1_555 1_555
O2 C3 1_555 1_555
C3 C29 1_555 1_555
C4 H3 1_555 1_555
N1 C11 1_555 1_555
Cd1 O1 1_555 1_555
C5 C6 1_555 1_555
C6 H4 1_555 1_555
N2 C7 1_555 1_555
C7 C5 1_555 1_555
N3 Cd1 1_555 1_555
N4 Cd1 1_555 1_555
C8 N4 1_555 1_555
C9 H5 1_555 1_555
C10 N2 1_555 1_555
C11 C8 1_555 1_555
C12 C2 1_555 1_555
C13 C8 1_555 1_555
H6 C13 1_555 1_555
C14 H7 1_555 1_555
H8 C14 1_555 1_555
H9 C14 1_555 1_555
C15 C13 1_555 1_555
H10 C15 1_555 1_555
C16 N1 1_555 1_555
C17 N2 1_555 1_555
H11 C17 1_555 1_555
H12 C17 1_555 1_555
C18 C10 1_555 1_555
H13 C18 1_555 1_555
H14 C18 1_555 1_555
H15 C18 1_555 1_555
C19 C6 1_555 1_555
H16 C19 1_555 1_555
C20 C19 1_555 1_555
H17 C20 1_555 1_555
C21 C7 1_555 1_555
H18 C21 1_555 1_555
C22 C11 1_555 1_555
H19 C22 1_555 1_555
C23 C1 1_555 1_555
C24 N1 1_555 1_555
H20 C24 1_555 1_555
H21 C24 1_555 1_555
C25 C23 1_555 1_555
H22 C25 1_555 1_555
C26 C15 1_555 1_555
H23 C26 1_555 1_555
O3 C31 1_555 1_555
O4 C31 1_555 1_555
C27 C30 1_555 1_555
C28 H24 1_555 1_555
C29 C4 1_555 1_555
C30 C28 1_555 1_555
H25 C30 1_555 1_555
C31 C27 1_555 1_555
C32 C4 1_555 1_555
H26 C32 1_555 1_555
C1A C1 1_555 1_555
H1A C1A 1_555 1_555
C2A C2 1_555 1_555
H2A C2A 1_555 1_555
O1E C3E 1_555 1_555
O2E C3E 1_555 1_555
C3E C29E 1_555 1_555
C4E H3E 1_555 1_555
N1A C11A 1_555 1_555
Cd1E O1E 1_555 1_555
Cd1E_2 O3 1_555 1_555
Cd1A N4A 1_555 1_555
Cd1A_2 N3A 1_555 1_555
C5A C6A 1_555 1_555
C6A H4A 1_555 1_555
N2A C7A 1_555 1_555
C7A C5A 1_555 1_555
N3A C5A 1_555 1_555
N3E Cd1E 1_555 1_555
N4A C8A 1_555 1_555
N4E Cd1E 1_555 1_555
C8A C11A 1_555 1_555
C9A C9 1_555 1_555
H5A C9A 1_555 1_555
C10A N2A 1_555 1_555
C11A C22A 1_555 1_555
C12A C2A 1_555 1_555
C13A C8A 1_555 1_555
H6A C13A 1_555 1_555
C14A H7A 1_555 1_555
H8A C14A 1_555 1_555
H9A C14A 1_555 1_555
C15A C13A 1_555 1_555
H10A C15A 1_555 1_555
C16A N1A 1_555 1_555
C17A N2A 1_555 1_555
H11A C17A 1_555 1_555
H12A C17A 1_555 1_555
C18A C10A 1_555 1_555
H13A C18A 1_555 1_555
H14A C18A 1_555 1_555
H15A C18A 1_555 1_555
C19A C6A 1_555 1_555
H16A C19A 1_555 1_555
C20A C19A 1_555 1_555
H17A C20A 1_555 1_555
C21A C7A 1_555 1_555
H18A C21A 1_555 1_555
C22A H19A 1_555 1_555
C23A C1A 1_555 1_555
C24A N1A 1_555 1_555
H20A C24A 1_555 1_555
H21A C24A 1_555 1_555
C25A C25 1_555 1_555
H22A C25A 1_555 1_555
C26A C15A 1_555 1_555
H23A C26A 1_555 1_555
O3E Cd1 1_555 1_555
O3_2 Cd1E 1_555 1_555
O4E Cd1 1_555 1_555
O4_2 Cd1E 1_555 1_555
C27E C30E 1_555 1_555
C28E H24E 1_555 1_555
C29E C4E 1_555 1_555
C30E C28E 1_555 1_555
H25E C30E 1_555 1_555
C31E O3E 1_555 1_555
C32E C4E 1_555 1_555
H26E C32E 1_555 1_555
O2 Cd1 1_555 1_555
C5 N3 1_555 1_555
N3 C10 1_555 1_555
N4 C16 1_555 1_555
C9 C12 1_555 1_555
C12 C17 1_555 1_555
C14 C16 1_555 1_555
C20 C21 1_555 1_555
C22 C26 1_555 1_555
C23 C24 1_555 1_555
O4 Cd1E_2 1_555 1_555
C27 C32 1_555 1_555
C28 C29 1_555 1_555
O2E Cd1E 1_555 1_555
N3A C10A 1_555 1_555
N4A C16A 1_555 1_555
C9A C12A 1_555 1_555
C12A C17A 1_555 1_555
C14A C16A 1_555 1_555
C20A C21A 1_555 1_555
C22A C26A 1_555 1_555
C23A C24A 1_555 1_555
C23A C25A 1_555 1_555
O4E C31E 1_555 1_555
C27E C31E 1_555 1_555
C27E C32E 1_555 1_555
C28E C29E 1_555 1_555

#END
