
#######################################################################
#
#                 Cambridge Crystallographic Data Centre
#                                CCDC 
#
#######################################################################
#
# If this CIF has been generated from an entry in the Cambridge 
# Structural Database, then it will include bibliographic, chemical, 
# crystal, experimental, refinement or atomic coordinate data resulting 
# from the CCDC's data processing and validation procedures.
#
#######################################################################

data_KESBAN
_symmetry_cell_setting           monoclinic
_symmetry_space_group_name_H-M   'P 21/c'
_symmetry_Int_Tables_number      14
_space_group_name_Hall           '-P 2ybc'
loop_
_symmetry_equiv_pos_site_id
_symmetry_equiv_pos_as_xyz
1 x,y,z
2 -x,1/2+y,1/2-z
3 -x,-y,-z
4 x,1/2-y,1/2+z
_cell_length_a                   10.094(2)
_cell_length_b                   30.615(6)
_cell_length_c                   10.251(2)
_cell_angle_alpha                90
_cell_angle_beta                 94.35(3)
_cell_angle_gamma                90
_cell_volume                     3158.72
loop_
_atom_site_label
_atom_site_type_symbol
_atom_site_fract_x
_atom_site_fract_y
_atom_site_fract_z
Zn1 Zn 0.08795(3) 0.222507(10) -0.62110(3)
N1 N 0.2127(2) 0.17026(8) -0.5386(2)
C1 C 0.2301(3) 0.13295(10) -0.6040(3)
H1 H 0.1861 0.1298 -0.6864
C2 C 0.3092(4) 0.09923(11) -0.5562(3)
H2 H 0.3178 0.0740 -0.6052
C3 C 0.3762(3) 0.10348(10) -0.4333(3)
C4 C 0.3603(3) 0.14148(10) -0.3643(3)
H3 H 0.4035 0.1454 -0.2818
C5 C 0.2786(3) 0.17371(10) -0.4205(3)
H4 H 0.2689 0.1993 -0.3734
S1 S 0.47387(11) 0.05814(3) -0.37716(11)
S2 S 0.56419(9) 0.07628(4) -0.20261(11)
C6 C 0.4514(3) 0.06200(11) -0.0859(4)
C7 C 0.5060(5) 0.05401(13) 0.0399(4)
H5 H 0.5977 0.0547 0.0580
C8 C 0.4252(6) 0.04512(16) 0.1368(5)
H6 H 0.4646 0.0401 0.2204
N2 N 0.2926(5) 0.04306(13) 0.1195(4)
C9 C 0.2421(4) 0.04972(14) -0.0023(5)
H7 H 0.1503 0.0479 -0.0180
C10 C 0.3152(4) 0.05918(12) -0.1083(4)
H8 H 0.2737 0.0635 -0.1914
O1 O -0.01928(19) 0.27476(6) -0.7214(2)
H9 H -0.0991 0.2659 -0.7155
H10 H -0.0050 0.2753 -0.8126
O2 O 0.07846(19) 0.25452(6) -0.44250(18)
O3 O 0.1101(2) 0.30835(6) -0.30021(18)
C11 C 0.1219(2) 0.29182(9) -0.4096(2)
C12 C 0.1919(3) 0.31924(9) -0.5077(3)
H11 H 0.2321 0.3444 -0.4631
H12 H 0.1266 0.3298 -0.5746
C13 C 0.2988(2) 0.29381(9) -0.5725(3)
O4 O 0.26449(17) 0.25955(7) -0.63573(19)
O5 O 0.41418(17) 0.30871(6) -0.56187(19)
Zn2 Zn 0.59511(3) 0.277351(10) -0.59208(3)
N3 N 0.6992(2) 0.32955(8) -0.4865(2)
C14 C 0.8048(3) 0.34896(11) -0.5330(3)
H13 H 0.8325 0.3393 -0.6126
C15 C 0.8744(3) 0.38228(11) -0.4697(3)
H14 H 0.9471 0.3947 -0.5062
C16 C 0.8356(3) 0.39713(10) -0.3517(3)
C17 C 0.7292(3) 0.37693(10) -0.3005(3)
H15 H 0.7018 0.3855 -0.2198
C18 C 0.6632(3) 0.34364(10) -0.3711(3)
H16 H 0.5906 0.3305 -0.3362
S3 S 0.92586(10) 0.44226(3) -0.28196(10)
S4 S 0.80909(11) 0.46927(3) -0.15073(11)
C19 C 0.8749(3) 0.44936(11) 0.0042(4)
C20 C 0.9449(3) 0.41105(11) 0.0228(4)
H17 H 0.9611 0.3933 -0.0478
C21 C 0.9902(4) 0.39967(14) 0.1478(4)
H18 H 1.0384 0.3739 0.1585
N4 N 0.9707(3) 0.42253(12) 0.2545(3)
C22 C 0.8992(4) 0.45892(15) 0.2344(4)
H19 H 0.8812 0.4754 0.3072
C23 C 0.8505(4) 0.47372(13) 0.1139(4)
H20 H 0.8020 0.4995 0.1059
O6 O -0.42036(18) 0.24288(6) -0.41677(18)
O7 O -0.36020(18) 0.19210(6) -0.26893(18)
C24 C -0.3623(2) 0.20781(9) -0.3826(3)
C25 C -0.2942(3) 0.18144(9) -0.4840(3)
H21 H -0.3618 0.1695 -0.5463
H22 H -0.2485 0.1570 -0.4403
C26 C -0.1945(2) 0.20691(9) -0.5591(2)
O8 O -0.22835(18) 0.24318(7) -0.6081(2)
O9 O -0.08295(17) 0.18948(6) -0.57004(19)
O10 O 0.49150(18) 0.22531(6) -0.69719(19)
H23 H 0.5091 0.2313 -0.7829
H24 H 0.4081 0.2314 -0.6852
Zn1C Zn 0.08795(3) 0.277493(10) -0.12110(3)
O3C O 0.1101(2) 0.19165(6) -0.80021(18)
Zn2_2 Zn -0.40489(3) 0.277351(10) -0.59208(3)
Zn2C Zn -0.40489(3) 0.222649(10) -0.09208(3)
O6_2 O 0.57964(18) 0.24288(6) -0.41677(18)
O7C O 0.63980(18) 0.30790(6) -0.76893(18)
O8_2 O 0.77165(18) 0.24318(7) -0.6081(2)
loop_
_geom_bond_atom_site_label_1
_geom_bond_atom_site_label_2
_geom_bond_site_symmetry_1
_geom_bond_site_symmetry_2
Zn1 N1 1_555 1_555
N1 C1 1_555 1_555
C1 H1 1_555 1_555
C2 C1 1_555 1_555
H2 C2 1_555 1_555
C3 C2 1_555 1_555
C4 C3 1_555 1_555
H3 C4 1_555 1_555
C5 N1 1_555 1_555
H4 C5 1_555 1_555
S1 C3 1_555 1_555
S2 S1 1_555 1_555
C6 S2 1_555 1_555
C7 C6 1_555 1_555
H5 C7 1_555 1_555
C8 C7 1_555 1_555
H6 C8 1_555 1_555
N2 C8 1_555 1_555
C9 N2 1_555 1_555
H7 C9 1_555 1_555
C10 C6 1_555 1_555
H8 C10 1_555 1_555
O1 Zn1 1_555 1_555
H9 O1 1_555 1_555
H10 O1 1_555 1_555
O2 Zn1 1_555 1_555
O3 C11 1_555 1_555
C11 O2 1_555 1_555
C12 C11 1_555 1_555
H11 C12 1_555 1_555
H12 C12 1_555 1_555
C13 C12 1_555 1_555
O4 Zn1 1_555 1_555
O5 C13 1_555 1_555
Zn2 O5 1_555 1_555
N3 Zn2 1_555 1_555
C14 N3 1_555 1_555
H13 C14 1_555 1_555
C15 C14 1_555 1_555
H14 C15 1_555 1_555
C16 C15 1_555 1_555
C17 C16 1_555 1_555
H15 C17 1_555 1_555
C18 N3 1_555 1_555
H16 C18 1_555 1_555
S3 C16 1_555 1_555
S4 S3 1_555 1_555
C19 S4 1_555 1_555
C20 C19 1_555 1_555
H17 C20 1_555 1_555
C21 C20 1_555 1_555
H18 C21 1_555 1_555
N4 C21 1_555 1_555
C22 N4 1_555 1_555
H19 C22 1_555 1_555
C23 C19 1_555 1_555
H20 C23 1_555 1_555
O6 C24 1_555 1_555
O7 C24 1_555 1_555
C24 C25 1_555 1_555
C25 H21 1_555 1_555
H22 C25 1_555 1_555
C26 C25 1_555 1_555
O8 C26 1_555 1_555
O9 Zn1 1_555 1_555
O10 Zn2 1_555 1_555
H23 O10 1_555 1_555
H24 O10 1_555 1_555
Zn1C O3 1_555 1_555
O3C Zn1 1_555 1_555
Zn2_2 O6 1_555 1_555
Zn2C O7 1_555 1_555
O6_2 Zn2 1_555 1_555
O7C Zn2 1_555 1_555
O8_2 Zn2 1_555 1_555
C4 C5 1_555 1_555
C9 C10 1_555 1_555
C13 O4 1_555 1_555
C17 C18 1_555 1_555
C22 C23 1_555 1_555
C26 O9 1_555 1_555
O8 Zn2_2 1_555 1_555

#END
