
#######################################################################
#
#                 Cambridge Crystallographic Data Centre
#                                CCDC 
#
#######################################################################
#
# If this CIF has been generated from an entry in the Cambridge 
# Structural Database, then it will include bibliographic, chemical, 
# crystal, experimental, refinement or atomic coordinate data resulting 
# from the CCDC's data processing and validation procedures.
#
#######################################################################

data_KESFUL
_symmetry_cell_setting           triclinic
_symmetry_space_group_name_H-M   'P -1'
_symmetry_Int_Tables_number      2
_space_group_name_Hall           '-P 1'
loop_
_symmetry_equiv_pos_site_id
_symmetry_equiv_pos_as_xyz
1 x,y,z
2 -x,-y,-z
_cell_length_a                   10.1350(11)
_cell_length_b                   12.1708(13)
_cell_length_c                   12.7495(14)
_cell_angle_alpha                99.3140(10)
_cell_angle_beta                 91.0330(10)
_cell_angle_gamma                113.2160(10)
_cell_volume                     1420.45
loop_
_atom_site_label
_atom_site_type_symbol
_atom_site_fract_x
_atom_site_fract_y
_atom_site_fract_z
Cd1 Cd 0.715098(17) 0.811071(15) 0.050995(13)
Cd2 Cd 0.548220(17) -0.002270(15) -0.765650(13)
N1 N 0.6098(2) 0.1740(2) -0.64023(17)
N2 N 0.6182(3) 0.2941(2) -0.49245(18)
N3 N 0.6992(3) 0.3680(2) -0.5562(2)
N4 N 0.5109(2) 0.54925(18) -0.24666(16)
N5 N 0.6036(3) 0.6384(2) -0.29480(18)
N6 N 0.6214(2) 0.70302(18) -0.11803(16)
O1 O 0.46786(16) 0.84071(14) 0.07477(13)
O2 O 0.49745(17) 0.67735(16) 0.10337(15)
O3 O -0.04849(17) 0.81091(15) 0.03805(14)
O4 O -0.21355(18) 0.66648(17) 0.10521(15)
O5 O 1.30381(17) 1.00188(15) 0.21829(13)
O6 O 1.35816(18) 0.89744(17) 0.32484(14)
O7 O 0.77349(18) 0.95796(16) 0.20311(13)
O8 O 0.67300(19) 0.93483(19) 0.35429(15)
O9 O 0.79395(17) 0.99161(14) -0.02286(13)
H1 H 0.7605 0.9804 -0.0860
H2 H 0.8798 1.0417 -0.0161
O10 O 0.64532(19) 0.11476(15) -0.89154(13)
H3 H 0.6015 0.1327 -0.9368
H4 H 0.6913 0.0763 -0.9201
C1 C 0.2588(2) 0.6677(2) 0.10355(17)
C2 C 0.1630(2) 0.7195(2) 0.08412(17)
H5 H 0.1958 0.7932 0.0602
C3 C 0.0181(2) 0.6615(2) 0.10028(18)
C4 C -0.0293(2) 0.5517(2) 0.13668(19)
H6 H -0.1256 0.5139 0.1490
C5 C 0.0642(3) 0.4970(2) 0.15498(19)
C6 C 0.2080(2) 0.5557(2) 0.13678(18)
H7 H 0.2716 0.5195 0.1470
C7 C 0.4174(2) 0.7315(2) 0.09319(18)
C8 C -0.0876(2) 0.7162(2) 0.07974(18)
C9 C 0.0127(3) 0.3770(2) 0.1945(2)
H8 H 0.0163 0.3922 0.2710
H9 H 0.0739 0.3358 0.1722
H10 H -0.0846 0.3272 0.1652
C10 C 1.1276(2) 0.9040(2) 0.33459(18)
C11 C 1.0206(2) 0.9335(2) 0.29323(18)
H11 H 1.0346 0.9701 0.2334
C12 C 0.8925(2) 0.9080(2) 0.34146(18)
C13 C 0.8741(3) 0.8555(2) 0.43229(19)
H12 H 0.7912 0.8439 0.4672
C14 C 0.9764(3) 0.8201(2) 0.4720(2)
C15 C 1.1030(3) 0.8454(2) 0.42142(19)
H13 H 1.1730 0.8223 0.4466
C16 C 1.2708(2) 0.9356(2) 0.28894(18)
C17 C 0.7723(2) 0.9353(2) 0.29772(19)
C18 C 0.9532(3) 0.7574(3) 0.5676(2)
H14 H 0.8635 0.7518 0.5947
H15 H 1.0307 0.8034 0.6221
H16 H 0.9507 0.6771 0.5465
C19 C 0.5659(3) 0.1802(3) -0.5433(2)
H17 H 0.5066 0.1137 -0.5150
C20 C 0.6914(3) 0.2914(3) -0.6435(3)
H18 H 0.7385 0.3161 -0.7029
C21 C 0.5839(4) 0.3438(3) -0.3880(2)
H19 H 0.6700 0.4087 -0.3497
H20 H 0.5479 0.2806 -0.3455
C22 C 0.4716(3) 0.3918(3) -0.4067(2)
H21 H 0.3931 0.3289 -0.4545
H22 H 0.5136 0.4601 -0.4431
C23 C 0.4090(3) 0.4327(2) -0.3085(2)
H23 H 0.3215 0.4408 -0.3301
H24 H 0.3839 0.3713 -0.2638
C24 C 0.5235(3) 0.5896(2) -0.14243(19)
H25 H 0.4711 0.5448 -0.0934
C25 C 0.6666(3) 0.7277(2) -0.2146(2)
H26 H 0.7368 0.8023 -0.2229
Cd1_2 Cd -0.284902(17) 0.811071(15) 0.050995(13)
Cd2_2 Cd 0.548220(17) 0.997730(15) 0.234350(13)
Cd2_3 Cd 1.548220(17) 0.997730(15) 0.234350(13)
O1_2 O 0.46786(16) -0.15929(14) -0.92523(13)
O3_2 O 0.95151(17) 0.81091(15) 0.03805(14)
O4_2 O 0.78645(18) 0.66648(17) 0.10521(15)
O5_2 O 0.30381(17) 0.00188(15) -0.78171(13)
O6_2 O 0.35816(18) -0.10256(17) -0.67516(14)
O8_2 O 0.67300(19) -0.06517(19) -0.64571(15)
loop_
_geom_bond_atom_site_label_1
_geom_bond_atom_site_label_2
_geom_bond_site_symmetry_1
_geom_bond_site_symmetry_2
Cd1 N6 1_555 1_555
Cd2 N1 1_555 1_555
N1 C19 1_555 1_555
N2 N3 1_555 1_555
N3 C20 1_555 1_555
N4 N5 1_555 1_555
N5 C25 1_555 1_555
N6 C24 1_555 1_555
O1 C7 1_555 1_555
O2 Cd1 1_555 1_555
O3 C8 1_555 1_555
O4 C8 1_555 1_555
O5 C16 1_555 1_555
O6 C16 1_555 1_555
O7 Cd1 1_555 1_555
O8 C17 1_555 1_555
O9 Cd1 1_555 1_555
H1 O9 1_555 1_555
H2 O9 1_555 1_555
O10 Cd2 1_555 1_555
H3 O10 1_555 1_555
H4 O10 1_555 1_555
C1 C2 1_555 1_555
C2 H5 1_555 1_555
C3 C2 1_555 1_555
C4 C3 1_555 1_555
H6 C4 1_555 1_555
C5 C4 1_555 1_555
C6 C1 1_555 1_555
H7 C6 1_555 1_555
C7 O2 1_555 1_555
C8 C3 1_555 1_555
C9 C5 1_555 1_555
H8 C9 1_555 1_555
H9 C9 1_555 1_555
H10 C9 1_555 1_555
C10 C11 1_555 1_555
C11 H11 1_555 1_555
C12 C11 1_555 1_555
C13 C12 1_555 1_555
H12 C13 1_555 1_555
C14 C13 1_555 1_555
C15 C10 1_555 1_555
H13 C15 1_555 1_555
C16 C10 1_555 1_555
C17 O7 1_555 1_555
C18 C14 1_555 1_555
H14 C18 1_555 1_555
H15 C18 1_555 1_555
H16 C18 1_555 1_555
C19 N2 1_555 1_555
H17 C19 1_555 1_555
C20 N1 1_555 1_555
H18 C20 1_555 1_555
C21 N2 1_555 1_555
H19 C21 1_555 1_555
H20 C21 1_555 1_555
C22 C21 1_555 1_555
H21 C22 1_555 1_555
H22 C22 1_555 1_555
C23 N4 1_555 1_555
H23 C23 1_555 1_555
H24 C23 1_555 1_555
C24 N4 1_555 1_555
H25 C24 1_555 1_555
C25 N6 1_555 1_555
H26 C25 1_555 1_555
Cd1_2 O3 1_555 1_555
Cd2_2 O1 1_555 1_555
Cd2_3 O5 1_555 1_555
O1_2 Cd2 1_555 1_555
O3_2 Cd1 1_555 1_555
O4_2 Cd1 1_555 1_555
O5_2 Cd2 1_555 1_555
O6_2 Cd2 1_555 1_555
O8_2 Cd2 1_555 1_555
O4 Cd1_2 1_555 1_555
O6 Cd2_3 1_555 1_555
O8 Cd2_2 1_555 1_555
C1 C7 1_555 1_555
C5 C6 1_555 1_555
C12 C17 1_555 1_555
C14 C15 1_555 1_555
C22 C23 1_555 1_555

#END
