
#######################################################################
#
#                 Cambridge Crystallographic Data Centre
#                                CCDC 
#
#######################################################################
#
# If this CIF has been generated from an entry in the Cambridge 
# Structural Database, then it will include bibliographic, chemical, 
# crystal, experimental, refinement or atomic coordinate data resulting 
# from the CCDC's data processing and validation procedures.
#
#######################################################################

data_KESHEW
_symmetry_cell_setting           monoclinic
_symmetry_space_group_name_H-M   'P 21/n'
_symmetry_Int_Tables_number      14
_space_group_name_Hall           '-P 2yn'
loop_
_symmetry_equiv_pos_site_id
_symmetry_equiv_pos_as_xyz
1 x,y,z
2 1/2-x,1/2+y,1/2-z
3 -x,-y,-z
4 1/2+x,1/2-y,1/2+z
_cell_length_a                   9.629(1)
_cell_length_b                   16.286(2)
_cell_length_c                   15.267(2)
_cell_angle_alpha                90
_cell_angle_beta                 105.031(4)
_cell_angle_gamma                90
_cell_volume                     2312.22
loop_
_atom_site_label
_atom_site_type_symbol
_atom_site_fract_x
_atom_site_fract_y
_atom_site_fract_z
Co1 Co 0.4774(1) 0.00565(7) 0.25787(7)
S1 S 0.4854(2) -0.1540(1) 0.2102(1)
O1 O 0.4187(6) -0.0785(3) 0.1571(3)
O2 O 0.5310(6) -0.1245(3) 0.3057(3)
O3 O 0.6087(6) -0.1798(3) 0.1789(4)
O4 O 0.3773(6) -0.2187(3) 0.1996(4)
N1 N 0.6819(7) 0.0346(4) 0.2294(4)
N2 N 0.5779(7) 0.0840(4) 0.3601(4)
N3 N 0.3363(7) 0.0103(4) 0.3442(4)
N4 N 0.8716(7) 0.3980(4) 0.6718(4)
C1 C 0.7263(9) 0.0058(5) 0.1585(5)
C2 C 0.8502(10) 0.0339(6) 0.1390(6)
C3 C 0.9298(9) 0.0931(5) 0.1936(6)
C4 C 0.8861(9) 0.1233(5) 0.2661(5)
C5 C 0.7621(9) 0.0926(5) 0.2826(5)
C6 C 0.7034(9) 0.1215(5) 0.3589(5)
C7 C 0.7663(8) 0.1796(5) 0.4218(5)
C8 C 0.6982(9) 0.2013(5) 0.4890(5)
C9 C 0.5723(9) 0.1617(5) 0.4928(5)
C10 C 0.5155(8) 0.1026(5) 0.4271(5)
C11 C 0.3792(8) 0.0591(5) 0.4187(5)
C12 C 0.3004(9) 0.0652(5) 0.4818(5)
C13 C 0.1700(9) 0.0214(5) 0.4679(6)
C14 C 0.1283(9) -0.0272(5) 0.3920(6)
C15 C 0.2134(9) -0.0315(5) 0.3322(5)
C16 C 0.8815(8) 0.3979(5) 0.5854(5)
C17 C 0.8300(9) 0.3347(5) 0.5247(5)
C18 C 0.7596(9) 0.2685(5) 0.5518(5)
C19 C 0.7475(8) 0.2692(5) 0.6415(5)
C20 C 0.8061(9) 0.3335(5) 0.6980(5)
H1 H 0.6660 -0.0360 0.1207
H2 H 0.8813 0.0112 0.0881
H3 H 1.0164 0.1151 0.1809
H4 H 0.9412 0.1662 0.3045
H5 H 0.8564 0.2060 0.4192
H6 H 0.5274 0.1743 0.5412
H7 H 0.3354 0.0991 0.5355
H8 H 0.1119 0.0244 0.5107
H9 H 0.0381 -0.0572 0.3792
H10 H 0.1815 -0.0671 0.2803
H11 H 0.9273 0.4450 0.5640
H12 H 0.8434 0.3366 0.4644
H13 H 0.6966 0.2248 0.6619
H14 H 0.8030 0.3313 0.7612
Co1C Co 0.9774(1) 0.49435(7) 0.75787(7)
N4C N 0.3716(7) 0.1020(4) 0.1718(4)
O5 O 0.093(1) -0.1761(6) 0.1419(6)
C21 C 0.125(3) -0.064(2) 0.082(2)
C22 C 0.071(1) -0.1323(8) 0.0631(10)
H15 H 0.1130 -0.1439 0.2164
H16 H 0.1243 -0.1584 0.0217
H17 H -0.0260 -0.1297 0.0287
H18 H 0.2211 -0.0662 0.1138
H19 H 0.1133 -0.0295 0.0292
H20 H 0.0704 -0.0373 0.1201
O6 O 0.4171(9) -0.3108(5) -0.0638(6)
C23 C 0.326(1) -0.2477(9) -0.0500(10)
H21 H 0.3387 -0.3372 -0.1294
H22 H 0.3784 -0.2029 -0.0183
H23 H 0.2642 -0.2280 -0.1061
H24 H 0.2626 -0.2679 -0.0140
O7 O 0.4072(8) -0.3213(6) -0.2415(6)
H25 H 0.3381 -0.3037 -0.2108
H26 H 0.2954 -0.3529 -0.2755
loop_
_geom_bond_atom_site_label_1
_geom_bond_atom_site_label_2
_geom_bond_site_symmetry_1
_geom_bond_site_symmetry_2
Co1 O1 1_555 1_555
S1 O1 1_555 1_555
O2 Co1 1_555 1_555
O3 S1 1_555 1_555
O4 S1 1_555 1_555
O5 C22 1_555 1_555
O6 C23 1_555 1_555
O7 H25 1_555 1_555
N1 Co1 1_555 1_555
N2 Co1 1_555 1_555
N3 Co1 1_555 1_555
N4 C16 1_555 1_555
C1 N1 1_555 1_555
C2 C1 1_555 1_555
C3 C2 1_555 1_555
C4 C3 1_555 1_555
C5 N1 1_555 1_555
C6 N2 1_555 1_555
C7 C6 1_555 1_555
C8 C7 1_555 1_555
C9 C8 1_555 1_555
C10 N2 1_555 1_555
C11 N3 1_555 1_555
C12 C11 1_555 1_555
C13 C12 1_555 1_555
C14 C13 1_555 1_555
C15 N3 1_555 1_555
C16 C17 1_555 1_555
C17 C18 1_555 1_555
C18 C8 1_555 1_555
C19 C18 1_555 1_555
C20 N4 1_555 1_555
C21 C22 1_555 1_555
C22 H16 1_555 1_555
C23 H22 1_555 1_555
H1 C1 1_555 1_555
H2 C2 1_555 1_555
H3 C3 1_555 1_555
H4 C4 1_555 1_555
H5 C7 1_555 1_555
H6 C9 1_555 1_555
H7 C12 1_555 1_555
H8 C13 1_555 1_555
H9 C14 1_555 1_555
H10 C15 1_555 1_555
H11 C16 1_555 1_555
H12 C17 1_555 1_555
H13 C19 1_555 1_555
H14 C20 1_555 1_555
H15 O5 1_555 1_555
H17 C22 1_555 1_555
H18 C21 1_555 1_555
H19 C21 1_555 1_555
H20 C21 1_555 1_555
H21 O6 1_555 1_555
H23 C23 1_555 1_555
H24 C23 1_555 1_555
H26 O7 1_555 1_555
Co1C N4 1_555 1_555
N4C Co1 1_555 1_555
S1 O2 1_555 1_555
C4 C5 1_555 1_555
C5 C6 1_555 1_555
C9 C10 1_555 1_555
C10 C11 1_555 1_555
C14 C15 1_555 1_555
C19 C20 1_555 1_555

#END
