
#######################################################################
#
#                 Cambridge Crystallographic Data Centre
#                                CCDC 
#
#######################################################################
#
# If this CIF has been generated from an entry in the Cambridge 
# Structural Database, then it will include bibliographic, chemical, 
# crystal, experimental, refinement or atomic coordinate data resulting 
# from the CCDC's data processing and validation procedures.
#
#######################################################################

data_KESHUN
_symmetry_cell_setting           monoclinic
_symmetry_space_group_name_H-M   'C 2/c'
_symmetry_Int_Tables_number      15
_space_group_name_Hall           '-C 2yn'
loop_
_symmetry_equiv_pos_site_id
_symmetry_equiv_pos_as_xyz
1 x,y,z
2 -x,y,1/2-z
3 1/2+x,1/2+y,z
4 1/2-x,1/2+y,1/2-z
5 -x,-y,-z
6 x,-y,1/2+z
7 1/2-x,1/2-y,-z
8 1/2+x,1/2-y,1/2+z
_cell_length_a                   29.381(6)
_cell_length_b                   13.021(3)
_cell_length_c                   13.959(3)
_cell_angle_alpha                90
_cell_angle_beta                 102.48(3)
_cell_angle_gamma                90
_cell_volume                     5214.11
loop_
_atom_site_label
_atom_site_type_symbol
_atom_site_fract_x
_atom_site_fract_y
_atom_site_fract_z
Zn1 Zn 0.22352(4) 0.41570(8) -0.28414(8)
I1 I 0.18178(3) 0.28349(6) -0.40733(5)
I2 I 0.26055(4) 0.36106(7) -0.11022(6)
O1 O 0.4078(2) 0.6787(6) -0.4279(6)
O2 O 0.5761(3) 0.3197(5) -0.2107(5)
N1 N 0.2760(2) 0.4807(5) -0.3406(6)
N2 N 0.4410(2) 0.5265(5) -0.3708(5)
H1 H 0.4343 0.4676 -0.3499
N3 N 0.5897(3) 0.3684(6) -0.3582(6)
H2 H 0.6042 0.3538 -0.4038
N4 N 0.6812(3) 0.0414(6) -0.2827(5)
C1 C 0.2912(3) 0.5770(8) -0.3140(8)
H3 H 0.2733 0.6189 -0.2826
C2 C 0.3321(3) 0.6146(7) -0.3320(7)
H4 H 0.3413 0.6815 -0.3140
C3 C 0.3597(3) 0.5533(7) -0.3768(6)
C4 C 0.3429(3) 0.4568(7) -0.4073(7)
H5 H 0.3600 0.4139 -0.4395
C5 C 0.3013(3) 0.4242(8) -0.3901(7)
H6 H 0.2900 0.3602 -0.4136
C6 C 0.4048(3) 0.5935(7) -0.3948(6)
C7 C 0.5148(3) 0.4525(7) -0.3652(6)
H7 H 0.5018 0.3890 -0.3564
C8 C 0.4878(3) 0.5402(7) -0.3754(6)
C9 C 0.5075(3) 0.6372(7) -0.3885(7)
H8 H 0.4897 0.6968 -0.3936
C10 C 0.5545(3) 0.6404(8) -0.3934(8)
H9 H 0.5679 0.7029 -0.4040
C11 C 0.5811(3) 0.5530(8) -0.3827(7)
H10 H 0.6124 0.5569 -0.3854
C12 C 0.5621(3) 0.4606(7) -0.3683(6)
C13 C 0.5941(3) 0.3040(7) -0.2823(7)
C14 C 0.6611(4) 0.0872(9) -0.3662(8)
H11 H 0.6669 0.0607 -0.4243
C15 C 0.6325(4) 0.1710(9) -0.3722(8)
H12 H 0.6192 0.2002 -0.4325
C16 C 0.6240(3) 0.2113(7) -0.2849(7)
C17 C 0.6442(4) 0.1640(9) -0.1992(8)
H13 H 0.6383 0.1875 -0.1402
C18 C 0.6734(4) 0.0818(8) -0.1998(8)
H14 H 0.6884 0.0532 -0.1402
Zn1B Zn 0.72352(4) -0.08430(8) -0.28414(8)
N4B N 0.1812(3) 0.5414(6) -0.2827(5)
O3 O 0.5863(11) -0.097(3) -0.158(3)
C19 C 0.5659(14) -0.092(3) -0.242(3)
O4 O 0.4878(15) 0.150(3) -0.391(3)
O5 O 0.472(4) 0.038(11) -0.479(11)
loop_
_geom_bond_atom_site_label_1
_geom_bond_atom_site_label_2
_geom_bond_site_symmetry_1
_geom_bond_site_symmetry_2
Zn1 I1 1_555 1_555
I2 Zn1 1_555 1_555
O1 C6 1_555 1_555
O2 C13 1_555 1_555
N1 Zn1 1_555 1_555
N2 H1 1_555 1_555
N3 H2 1_555 1_555
N4 C14 1_555 1_555
C1 N1 1_555 1_555
H3 C1 1_555 1_555
C2 C1 1_555 1_555
H4 C2 1_555 1_555
C3 C2 1_555 1_555
C4 C3 1_555 1_555
H5 C4 1_555 1_555
C5 N1 1_555 1_555
H6 C5 1_555 1_555
C6 N2 1_555 1_555
C7 H7 1_555 1_555
C8 N2 1_555 1_555
C9 C8 1_555 1_555
H8 C9 1_555 1_555
C10 C9 1_555 1_555
H9 C10 1_555 1_555
C11 C10 1_555 1_555
H10 C11 1_555 1_555
C12 N3 1_555 1_555
C13 N3 1_555 1_555
C14 H11 1_555 1_555
C15 C14 1_555 1_555
H12 C15 1_555 1_555
C16 C13 1_555 1_555
C17 C16 1_555 1_555
H13 C17 1_555 1_555
C18 N4 1_555 1_555
H14 C18 1_555 1_555
O3 C19 1_555 1_555
Zn1B N4 1_555 1_555
N4B Zn1 1_555 1_555
C3 C6 1_555 1_555
C4 C5 1_555 1_555
C7 C8 1_555 1_555
C7 C12 1_555 1_555
C11 C12 1_555 1_555
C15 C16 1_555 1_555
C17 C18 1_555 1_555

#END
