
#######################################################################
#
#                 Cambridge Crystallographic Data Centre
#                                CCDC 
#
#######################################################################
#
# If this CIF has been generated from an entry in the Cambridge 
# Structural Database, then it will include bibliographic, chemical, 
# crystal, experimental, refinement or atomic coordinate data resulting 
# from the CCDC's data processing and validation procedures.
#
#######################################################################

data_KESHAS
_symmetry_cell_setting           monoclinic
_symmetry_space_group_name_H-M   'C 2/c'
_symmetry_Int_Tables_number      15
_space_group_name_Hall           '-C 2yn'
loop_
_symmetry_equiv_pos_site_id
_symmetry_equiv_pos_as_xyz
1 x,y,z
2 -x,y,1/2-z
3 1/2+x,1/2+y,z
4 1/2-x,1/2+y,1/2-z
5 -x,-y,-z
6 x,-y,1/2+z
7 1/2-x,1/2-y,-z
8 1/2+x,1/2-y,1/2+z
_cell_length_a                   15.5751(9)
_cell_length_b                   11.202(1)
_cell_length_c                   11.9673(6)
_cell_angle_alpha                90
_cell_angle_beta                 102.490(1)
_cell_angle_gamma                90
_cell_volume                     2038.55
loop_
_atom_site_label
_atom_site_type_symbol
_atom_site_fract_x
_atom_site_fract_y
_atom_site_fract_z
Co1 Co 0.0000 0.24189(5) 0.2500
S1 S 0.21338(6) 0.40637(9) 0.07327(8)
N1 N -0.0831(2) 0.1970(2) 0.0836(2)
N2 N 0.0000 0.0586(3) 0.2500
N3 N 0.0000 -0.5683(3) 0.2500
N4 N 0.1088(2) 0.2523(2) 0.1708(2)
C1 C -0.1242(2) 0.2698(3) 0.0005(3)
C2 C -0.1736(2) 0.2300(3) -0.1024(3)
C3 C -0.1786(2) 0.1088(3) -0.1246(3)
C4 C -0.1359(2) 0.0317(3) -0.0407(3)
C5 C -0.0902(2) 0.0772(3) 0.0631(3)
C6 C -0.0447(2) -0.0004(3) 0.1586(3)
C7 C -0.0472(2) -0.1238(3) 0.1563(3)
C8 C 0.0000 -0.1874(4) 0.2500
C9 C 0.0000 -0.3188(4) 0.2500
C10 C -0.0762(2) -0.3821(3) 0.2050(3)
C11 C -0.0736(2) -0.5051(3) 0.2091(3)
C12 C 0.1521(2) 0.3148(3) 0.1292(3)
H1 H -0.1196 0.3545 0.0134
H2 H -0.2034 0.2865 -0.1580
H3 H -0.2109 0.0785 -0.1968
H4 H -0.1376 -0.0522 -0.0534
H5 H -0.0812 -0.1652 0.0911
H6 H -0.1300 -0.3411 0.1710
H7 H -0.1269 -0.5485 0.1823
Co1_2 Co 0.0000 -0.75811(5) 0.2500
S1A S -0.21338(6) 0.40637(9) 0.42673(8)
N1A N 0.0831(2) 0.1970(2) 0.4164(2)
N3_2 N 0.0000 0.4317(3) 0.2500
N4A N -0.1088(2) 0.2523(2) 0.3292(2)
C1A C 0.1242(2) 0.2698(3) 0.4995(3)
C2A C 0.1736(2) 0.2300(3) 0.6024(3)
C3A C 0.1786(2) 0.1088(3) 0.6246(3)
C4A C 0.1359(2) 0.0317(3) 0.5407(3)
C5A C 0.0902(2) 0.0772(3) 0.4369(3)
C6A C 0.0447(2) -0.0004(3) 0.3414(3)
C7A C 0.0472(2) -0.1238(3) 0.3437(3)
C10A C 0.0762(2) -0.3821(3) 0.2950(3)
C11A C 0.0736(2) -0.5051(3) 0.2909(3)
C12A C -0.1521(2) 0.3148(3) 0.3708(3)
H1A H 0.1196 0.3545 0.4866
H2A H 0.2034 0.2865 0.6580
H3A H 0.2109 0.0785 0.6968
H4A H 0.1376 -0.0522 0.5534
H5A H 0.0812 -0.1652 0.4089
H6A H 0.1300 -0.3411 0.3290
H7A H 0.1269 -0.5485 0.3177
loop_
_geom_bond_atom_site_label_1
_geom_bond_atom_site_label_2
_geom_bond_site_symmetry_1
_geom_bond_site_symmetry_2
Co1 N1 1_555 1_555
S1 C12 1_555 1_555
N1 C1 1_555 1_555
N2 Co1 1_555 1_555
N3 C11 1_555 1_555
N4 Co1 1_555 1_555
C1 C2 1_555 1_555
C2 C3 1_555 1_555
C3 C4 1_555 1_555
C4 C5 1_555 1_555
C5 N1 1_555 1_555
C6 N2 1_555 1_555
C7 C6 1_555 1_555
C8 C7 1_555 1_555
C9 C8 1_555 1_555
C10 C9 1_555 1_555
C11 C10 1_555 1_555
C12 N4 1_555 1_555
H1 C1 1_555 1_555
H2 C2 1_555 1_555
H3 C3 1_555 1_555
H4 C4 1_555 1_555
H5 C7 1_555 1_555
H6 C10 1_555 1_555
H7 C11 1_555 1_555
Co1_2 N3 1_555 1_555
S1A C12A 1_555 1_555
N1A Co1 1_555 1_555
N3_2 Co1 1_555 1_555
N4A Co1 1_555 1_555
C1A N1A 1_555 1_555
C2A C1A 1_555 1_555
C3A C2A 1_555 1_555
C4A C3A 1_555 1_555
C5A N1A 1_555 1_555
C6A N2 1_555 1_555
C7A C8 1_555 1_555
C10A C9 1_555 1_555
C11A N3 1_555 1_555
C12A N4A 1_555 1_555
H1A C1A 1_555 1_555
H2A C2A 1_555 1_555
H3A C3A 1_555 1_555
H4A C4A 1_555 1_555
H5A C7A 1_555 1_555
H6A C10A 1_555 1_555
H7A C11A 1_555 1_555
C5 C6 1_555 1_555
C4A C5A 1_555 1_555
C5A C6A 1_555 1_555
C6A C7A 1_555 1_555
C10A C11A 1_555 1_555

#END
