
#######################################################################
#
#                 Cambridge Crystallographic Data Centre
#                                CCDC 
#
#######################################################################
#
# If this CIF has been generated from an entry in the Cambridge 
# Structural Database, then it will include bibliographic, chemical, 
# crystal, experimental, refinement or atomic coordinate data resulting 
# from the CCDC's data processing and validation procedures.
#
#######################################################################

data_KESMIG
_symmetry_cell_setting           monoclinic
_symmetry_space_group_name_H-M   'C 2/c'
_symmetry_Int_Tables_number      15
_space_group_name_Hall           '-C 2yn'
loop_
_symmetry_equiv_pos_site_id
_symmetry_equiv_pos_as_xyz
1 x,y,z
2 -x,y,1/2-z
3 1/2+x,1/2+y,z
4 1/2-x,1/2+y,1/2-z
5 -x,-y,-z
6 x,-y,1/2+z
7 1/2-x,1/2-y,-z
8 1/2+x,1/2-y,1/2+z
_cell_length_a                   28.088(4)
_cell_length_b                   9.6312(14)
_cell_length_c                   17.674(3)
_cell_angle_alpha                90
_cell_angle_beta                 127.945(2)
_cell_angle_gamma                90
_cell_volume                     3770.45
loop_
_atom_site_label
_atom_site_type_symbol
_atom_site_fract_x
_atom_site_fract_y
_atom_site_fract_z
C1 C 0.1489(2) 0.1645(5) 0.6991(3)
C2 C 0.12469(19) 0.2196(5) 0.7471(3)
C3 C 0.0729(2) 0.1553(5) 0.7241(3)
H1 H 0.0552 0.0835 0.6795
C4 C 0.04737(18) 0.1970(4) 0.7668(3)
C5 C 0.0737(2) 0.3050(5) 0.8335(3)
H2 H 0.0568 0.3333 0.8626
C6 C 0.12560(19) 0.3709(5) 0.8566(3)
H3 H 0.1430 0.4436 0.9005
C7 C 0.15074(18) 0.3272(4) 0.8138(3)
C8 C 0.2069(2) 0.4013(6) 0.8402(3)
C9 C 0.1540(2) -0.2717(5) 0.5999(3)
H4 H 0.1939 -0.2869 0.6244
C10 C 0.1214(2) -0.3834(5) 0.5928(3)
H5 H 0.1388 -0.4713 0.6110
C11 C 0.0632(2) -0.3646(5) 0.5588(3)
C12 C 0.0397(2) -0.2339(5) 0.5301(3)
H6 H -0.0002 -0.2177 0.5048
C13 C 0.0745(2) -0.1273(6) 0.5385(3)
H7 H 0.0575 -0.0391 0.5189
C14 C 0.0242(2) -0.4807(5) 0.5503(3)
H8 H 0.0492 -0.5613 0.5845
H9 H 0.0062 -0.4523 0.5803
C15 C 0.1540(2) 0.1216(5) 0.3972(3)
H10 H 0.1843 0.0597 0.4130
C16 C 0.1253(2) 0.2000(5) 0.3139(3)
H11 H 0.1363 0.1909 0.2742
C17 C 0.0803(2) 0.2911(5) 0.2905(3)
H12 H 0.0609 0.3437 0.2347
C18 C 0.0638(2) 0.3050(5) 0.3493(3)
H13 H 0.0335 0.3672 0.3332
C19 C 0.0927(2) 0.2254(5) 0.4336(3)
H14 H 0.0815 0.2336 0.4731
Cd1 Cd 0.193920(15) 0.04802(3) 0.61109(2)
N1 N 0.13291(17) -0.1443(4) 0.5742(3)
N2 N 0.13810(18) 0.1348(4) 0.4567(3)
O1 O 0.11833(13) 0.1810(3) 0.6105(2)
O2 O 0.19574(14) 0.0968(4) 0.7460(2)
O3 O 0.21922(14) 0.4028(4) 0.7840(2)
O4 O 0.23941(13) 0.4631(3) 0.9189(2)
O5 O 0.0000 0.1277(4) 0.7500
O6 O 0.24457(13) 0.2590(3) 0.6661(2)
H15 H 0.2739 0.2561 0.7348
H16 H 0.2161 0.3321 0.6481
C1A C -0.1489(2) 0.1645(5) 0.8009(3)
C2A C -0.12469(19) 0.2196(5) 0.7529(3)
C3A C -0.0729(2) 0.1553(5) 0.7759(3)
H1A H -0.0552 0.0835 0.8205
C4A C -0.04737(18) 0.1970(4) 0.7332(3)
C5A C -0.0737(2) 0.3050(5) 0.6665(3)
H2A H -0.0568 0.3333 0.6374
C6A C -0.12560(19) 0.3709(5) 0.6434(3)
H3A H -0.1430 0.4436 0.5995
C7A C -0.15074(18) 0.3272(4) 0.6862(3)
C8A C -0.2069(2) 0.4013(6) 0.6598(3)
C9D C -0.1540(2) -0.7283(5) 0.4001(3)
H4D H -0.1939 -0.7131 0.3756
C10D C -0.1214(2) -0.6166(5) 0.4072(3)
H5D H -0.1388 -0.5287 0.3890
C11D C -0.0632(2) -0.6354(5) 0.4412(3)
C12D C -0.0397(2) -0.7661(5) 0.4699(3)
H6D H 0.0002 -0.7823 0.4952
C13D C -0.0745(2) -0.8727(6) 0.4615(3)
H7D H -0.0575 -0.9609 0.4811
C14D C -0.0242(2) -0.5193(5) 0.4497(3)
H8D H -0.0492 -0.4387 0.4155
H9D H -0.0062 -0.5477 0.4197
C15A C -0.1540(2) 0.1216(5) 1.1028(3)
H10A H -0.1843 0.0597 1.0870
C16A C -0.1253(2) 0.2000(5) 1.1861(3)
H11A H -0.1363 0.1909 1.2258
C17A C -0.0803(2) 0.2911(5) 1.2095(3)
H12A H -0.0609 0.3437 1.2653
C18A C -0.0638(2) 0.3050(5) 1.1507(3)
H13A H -0.0335 0.3672 1.1668
C19A C -0.0927(2) 0.2254(5) 1.0664(3)
H14A H -0.0815 0.2336 1.0269
Cd1A Cd -0.193920(15) 0.04802(3) 0.88891(2)
Cd1B Cd -0.306080(15) 0.54802(3) 0.61109(2)
Cd1C Cd 0.306080(15) 0.54802(3) 0.88891(2)
Cd1D Cd -0.193920(15) -1.04802(3) 0.38891(2)
N1D N -0.13291(17) -0.8557(4) 0.4258(3)
N1A N -0.13291(17) -0.1443(4) 0.9258(3)
N2A N -0.13810(18) 0.1348(4) 1.0433(3)
O1A O -0.11833(13) 0.1810(3) 0.8895(2)
O2A O -0.19574(14) 0.0968(4) 0.7540(2)
O3A O -0.21922(14) 0.4028(4) 0.7160(2)
O3B O -0.28078(14) -0.0972(4) 0.7840(2)
O3C O 0.28078(14) -0.0972(4) 0.7160(2)
O4A O -0.23941(13) 0.4631(3) 0.5811(2)
O4B O -0.26059(13) -0.0369(3) 0.9189(2)
O4C O 0.26059(13) -0.0369(3) 0.5811(2)
O6A O -0.24457(13) 0.2590(3) 0.8339(2)
H15A H -0.2739 0.2561 0.7652
H16A H -0.2161 0.3321 0.8519
loop_
_geom_bond_atom_site_label_1
_geom_bond_atom_site_label_2
_geom_bond_site_symmetry_1
_geom_bond_site_symmetry_2
C1 C2 1_555 1_555
C2 C3 1_555 1_555
C3 H1 1_555 1_555
C4 C3 1_555 1_555
C5 C4 1_555 1_555
H2 C5 1_555 1_555
C6 C5 1_555 1_555
H3 C6 1_555 1_555
C7 C2 1_555 1_555
C8 C7 1_555 1_555
C9 H4 1_555 1_555
C10 C9 1_555 1_555
H5 C10 1_555 1_555
C11 C10 1_555 1_555
C12 C11 1_555 1_555
H6 C12 1_555 1_555
C13 C12 1_555 1_555
H7 C13 1_555 1_555
C14 C11 1_555 1_555
H8 C14 1_555 1_555
H9 C14 1_555 1_555
C15 H10 1_555 1_555
C16 C15 1_555 1_555
H11 C16 1_555 1_555
C17 C16 1_555 1_555
H12 C17 1_555 1_555
C18 C17 1_555 1_555
H13 C18 1_555 1_555
C19 C18 1_555 1_555
H14 C19 1_555 1_555
Cd1 N1 1_555 1_555
N1 C9 1_555 1_555
N2 C15 1_555 1_555
O1 C1 1_555 1_555
O2 C1 1_555 1_555
O3 C8 1_555 1_555
O4 C8 1_555 1_555
O5 C4 1_555 1_555
O6 Cd1 1_555 1_555
H15 O6 1_555 1_555
H16 O6 1_555 1_555
C1A C2A 1_555 1_555
C2A C3A 1_555 1_555
C3A H1A 1_555 1_555
C4A O5 1_555 1_555
C5A C4A 1_555 1_555
H2A C5A 1_555 1_555
C6A C5A 1_555 1_555
H3A C6A 1_555 1_555
C7A C2A 1_555 1_555
C8A C7A 1_555 1_555
C9D H4D 1_555 1_555
C10D C9D 1_555 1_555
H5D C10D 1_555 1_555
C11D C10D 1_555 1_555
C12D C11D 1_555 1_555
H6D C12D 1_555 1_555
C13D C12D 1_555 1_555
H7D C13D 1_555 1_555
C14D C14 1_555 1_555
H8D C14D 1_555 1_555
H9D C14D 1_555 1_555
C15A H10A 1_555 1_555
C16A C15A 1_555 1_555
H11A C16A 1_555 1_555
C17A C16A 1_555 1_555
H12A C17A 1_555 1_555
C18A C17A 1_555 1_555
H13A C18A 1_555 1_555
C19A C18A 1_555 1_555
H14A C19A 1_555 1_555
Cd1A N1A 1_555 1_555
Cd1B O3A 1_555 1_555
Cd1C O3 1_555 1_555
Cd1D N1D 1_555 1_555
N1D C9D 1_555 1_555
N2A C15A 1_555 1_555
O1A C1A 1_555 1_555
O2A C1A 1_555 1_555
O3A C8A 1_555 1_555
O3B Cd1A 1_555 1_555
O3C Cd1 1_555 1_555
O4A C8A 1_555 1_555
O4B Cd1A 1_555 1_555
O4C Cd1 1_555 1_555
O6A Cd1A 1_555 1_555
H15A O6A 1_555 1_555
H16A O6A 1_555 1_555
C6 C7 1_555 1_555
C13 N1 1_555 1_555
C19 N2 1_555 1_555
Cd1 N2 1_555 1_555
Cd1 O1 1_555 1_555
Cd1 O2 1_555 1_555
O4 Cd1C 1_555 1_555
C3A C4A 1_555 1_555
C6A C7A 1_555 1_555
C11D C14D 1_555 1_555
C13D N1D 1_555 1_555
C19A N2A 1_555 1_555
Cd1A N2A 1_555 1_555
Cd1A O1A 1_555 1_555
Cd1A O2A 1_555 1_555
Cd1B O4A 1_555 1_555

#END
