
#######################################################################
#
#                 Cambridge Crystallographic Data Centre
#                                CCDC 
#
#######################################################################
#
# If this CIF has been generated from an entry in the Cambridge 
# Structural Database, then it will include bibliographic, chemical, 
# crystal, experimental, refinement or atomic coordinate data resulting 
# from the CCDC's data processing and validation procedures.
#
#######################################################################

data_KESMEC
_symmetry_cell_setting           monoclinic
_symmetry_space_group_name_H-M   'C c'
_symmetry_Int_Tables_number      9
_space_group_name_Hall           'C -2yc'
loop_
_symmetry_equiv_pos_site_id
_symmetry_equiv_pos_as_xyz
1 x,y,z
2 x,-y,1/2+z
3 1/2+x,1/2+y,z
4 1/2+x,1/2-y,1/2+z
_cell_length_a                   23.406(10)
_cell_length_b                   16.651(8)
_cell_length_c                   10.363(5)
_cell_angle_alpha                90
_cell_angle_beta                 103.437(9)
_cell_angle_gamma                90
_cell_volume                     3928.25
loop_
_atom_site_label
_atom_site_type_symbol
_atom_site_fract_x
_atom_site_fract_y
_atom_site_fract_z
O1 O 0.2114(3) 0.8047(3) 0.1379(7)
O2 O 0.2530(3) 0.8584(4) -0.0191(6)
C1 C 0.2491(4) 0.8492(5) 0.0978(10)
C2 C 0.3175(5) 0.9501(6) 0.4287(11)
H1 H 0.3060 0.9686 0.5034
C3 C 0.2106(4) 0.9289(5) 0.3263(10)
C4 C 0.3756(4) 0.9489(6) 0.4269(11)
H2 H 0.4039 0.9645 0.5015
C5 C 0.2923(4) 0.8944(6) 0.2084(10)
C6 C 0.2757(4) 0.9238(5) 0.3192(9)
C7 C 0.3507(4) 0.8961(6) 0.2037(10)
H3 H 0.3626 0.8787 0.1287
O3 O 0.1786(3) 0.9737(4) 0.2489(8)
O4 O 0.1948(3) 0.8878(4) 0.4161(7)
C8 C -0.1462(5) 0.6520(7) 0.3169(12)
H4 H -0.1638 0.6064 0.3422
C9 C -0.1513(4) 0.7838(6) 0.2598(12)
H5 H -0.1719 0.8319 0.2432
N1 N -0.1772(4) 0.7210(5) 0.2962(10)
C10 C 0.3559(5) 0.7051(7) 0.3409(13)
H6 H 0.3407 0.7169 0.4141
C11 C 0.3402(5) 0.6705(7) 0.1271(12)
H7 H 0.3149 0.6578 0.0464
N2 N 0.3182(4) 0.6864(5) 0.2320(11)
N3 N 0.4585(4) 0.9238(6) 0.3282(11)
C12 C 0.3919(4) 0.9248(6) 0.3153(12)
Mn1 Mn 0.21713(6) 0.68724(8) 0.22223(12)
Mn2 Mn 0.22486(6) 0.78640(8) -0.19442(12)
N4 N 0.6269(4) 0.6962(5) 0.2838(10)
C13 C 0.5887(5) 0.7054(7) 0.1642(13)
H8 H 0.6029 0.7113 0.0881
C14 C 0.4398(5) 0.6936(6) 0.2485(12)
C15 C 0.5443(5) 0.6855(8) 0.3816(12)
H9 H 0.5308 0.6805 0.4587
C16 C 0.6029(4) 0.6854(6) 0.3878(11)
H10 H 0.6281 0.6772 0.4704
C17 C 0.5053(5) 0.6930(6) 0.2612(13)
C18 C 0.5296(6) 0.7061(7) 0.1544(14)
H11 H 0.5047 0.7158 0.0720
C19 C 0.0014(5) 0.7091(6) 0.2564(12)
C20 C 0.0824(5) 0.6352(6) 0.2196(13)
H12 H 0.0981 0.5863 0.2011
C21 C -0.0611(5) 0.7146(6) 0.2685(12)
C22 C 0.0242(5) 0.6367(7) 0.2254(13)
H13 H 0.0010 0.5908 0.2092
C23 C 0.0371(5) 0.7775(6) 0.2704(13)
H14 H 0.0220 0.8274 0.2853
C24 C 0.0943(6) 0.7702(7) 0.2619(14)
H15 H 0.1174 0.8163 0.2726
N5 N 0.1190(4) 0.7008(6) 0.2391(11)
O5 O 0.7223(3) 0.8230(4) 0.4151(7)
O6 O 0.6750(3) 0.8780(4) 0.5499(7)
C25 C 0.6453(4) 0.8964(5) 0.1960(10)
C26 C 0.5753(4) 0.9019(5) 0.3342(11)
H16 H 0.5674 0.8988 0.4179
C27 C 0.6799(4) 0.8610(5) 0.4351(10)
C28 C 0.6327(4) 0.8879(5) 0.3179(9)
C29 C 0.5314(4) 0.9201(6) 0.2259(12)
C30 C 0.6002(5) 0.9208(6) 0.0895(11)
H17 H 0.6087 0.9305 0.0076
C31 C 0.5437(5) 0.9307(7) 0.1030(15)
H18 H 0.5139 0.9443 0.0300
O7 O 0.2219(3) 0.8895(4) -0.3193(6)
H19 H 0.2081 0.8767 -0.3967
O8 O 0.7118(3) 0.8050(4) 0.1406(7)
O9 O 0.2405(3) 0.7400(5) 0.4190(7)
H20 H 0.2287 0.7110 0.4714
O10 O 0.2245(4) 0.5698(5) 0.3132(12)
H21 H 0.2550 0.5673 0.3711
N6 N 0.4687(5) 0.9242(6) 0.2192(12)
O11 O 0.7379(4) 0.9326(5) 0.1647(12)
C32 C 0.7045(5) 0.8755(6) 0.1673(11)
C33 C -0.0938(4) 0.7806(6) 0.2452(12)
H22 H -0.0775 0.8267 0.2178
C34 C -0.0903(4) 0.6465(7) 0.3024(12)
H23 H -0.0709 0.5973 0.3149
C35 C 0.4013(5) 0.6726(9) 0.1365(14)
H24 H 0.4154 0.6589 0.0625
C36 C 0.4183(5) 0.7095(7) 0.3598(13)
H25 H 0.4428 0.7222 0.4415
H26 H 0.198(7) 0.918(18) -0.292(14)
H27 H 0.232(8) 0.786(4) 0.391(17)
H28 H 0.227(5) 0.540(8) 0.250(9)
N1C N 0.3228(4) 0.7790(5) -0.2038(10)
Mn1C Mn 0.71713(6) 0.81276(8) 0.72223(12)
Mn2C Mn -0.27514(6) 0.71360(8) 0.30558(12)
Mn2C_2 Mn 0.72486(6) 0.71360(8) 0.30558(12)
N4C N 0.1269(4) 0.8038(5) -0.2162(10)
O5C O 0.2223(3) 0.6770(4) -0.0849(7)
O6C O 0.1750(3) 0.6220(4) 0.0499(7)
O8C O 0.2118(3) 0.6950(4) -0.3594(7)
loop_
_geom_bond_atom_site_label_1
_geom_bond_atom_site_label_2
_geom_bond_site_symmetry_1
_geom_bond_site_symmetry_2
O1 C1 1_555 1_555
O2 C1 1_555 1_555
C1 C5 1_555 1_555
C2 H1 1_555 1_555
C3 C6 1_555 1_555
C4 C2 1_555 1_555
H2 C4 1_555 1_555
C5 C6 1_555 1_555
C6 C2 1_555 1_555
C7 C5 1_555 1_555
H3 C7 1_555 1_555
O3 C3 1_555 1_555
O4 C3 1_555 1_555
C8 H4 1_555 1_555
C9 H5 1_555 1_555
N1 C8 1_555 1_555
C10 H6 1_555 1_555
C11 H7 1_555 1_555
N2 C10 1_555 1_555
N3 C12 1_555 1_555
C12 C4 1_555 1_555
Mn1 O1 1_555 1_555
Mn2 O2 1_555 1_555
N4 C13 1_555 1_555
C13 H8 1_555 1_555
C14 C17 1_555 1_555
C15 H9 1_555 1_555
C16 N4 1_555 1_555
H10 C16 1_555 1_555
C17 C15 1_555 1_555
C18 C13 1_555 1_555
H11 C18 1_555 1_555
C19 C21 1_555 1_555
C20 H12 1_555 1_555
C21 C33 1_555 1_555
C22 C19 1_555 1_555
H13 C22 1_555 1_555
C23 C19 1_555 1_555
H14 C23 1_555 1_555
C24 C23 1_555 1_555
H15 C24 1_555 1_555
N5 Mn1 1_555 1_555
O5 C27 1_555 1_555
O6 C27 1_555 1_555
C25 C28 1_555 1_555
C26 H16 1_555 1_555
C27 C28 1_555 1_555
C28 C26 1_555 1_555
C29 C26 1_555 1_555
C30 C25 1_555 1_555
H17 C30 1_555 1_555
C31 C29 1_555 1_555
H18 C31 1_555 1_555
O7 Mn2 1_555 1_555
H19 O7 1_555 1_555
O8 C32 1_555 1_555
O9 Mn1 1_555 1_555
H20 O9 1_555 1_555
O10 Mn1 1_555 1_555
H21 O10 1_555 1_555
N6 N3 1_555 1_555
O11 C32 1_555 1_555
C32 C25 1_555 1_555
C33 C9 1_555 1_555
H22 C33 1_555 1_555
C34 C8 1_555 1_555
H23 C34 1_555 1_555
C35 C11 1_555 1_555
H24 C35 1_555 1_555
C36 C10 1_555 1_555
H25 C36 1_555 1_555
H26 O7 1_555 1_555
H27 O9 1_555 1_555
H28 O10 1_555 1_555
N1C Mn2 1_555 1_555
Mn1C O6 1_555 1_555
Mn2C N1 1_555 1_555
Mn2C_2 N4 1_555 1_555
N4C Mn2 1_555 1_555
O5C Mn2 1_555 1_555
O6C Mn1 1_555 1_555
O8C Mn2 1_555 1_555
C7 C12 1_555 1_555
C9 N1 1_555 1_555
C11 N2 1_555 1_555
N2 Mn1 1_555 1_555
C14 C35 1_555 1_555
C14 C36 1_555 1_555
C15 C16 1_555 1_555
C17 C18 1_555 1_555
C20 C22 1_555 1_555
C20 N5 1_555 1_555
C21 C34 1_555 1_555
C24 N5 1_555 1_555
O5 Mn2C_2 1_555 1_555
C29 N6 1_555 1_555
C30 C31 1_555 1_555
O8 Mn2C_2 1_555 1_555

#END
