
#######################################################################
#
#                 Cambridge Crystallographic Data Centre
#                                CCDC 
#
#######################################################################
#
# If this CIF has been generated from an entry in the Cambridge 
# Structural Database, then it will include bibliographic, chemical, 
# crystal, experimental, refinement or atomic coordinate data resulting 
# from the CCDC's data processing and validation procedures.
#
#######################################################################

data_KESMAX
_symmetry_cell_setting           monoclinic
_symmetry_space_group_name_H-M   'P 21/n'
_symmetry_Int_Tables_number      14
_space_group_name_Hall           '-P 2yn'
loop_
_symmetry_equiv_pos_site_id
_symmetry_equiv_pos_as_xyz
1 x,y,z
2 1/2-x,1/2+y,1/2-z
3 -x,-y,-z
4 1/2+x,1/2-y,1/2+z
_cell_length_a                   6.835(2)
_cell_length_b                   9.882(2)
_cell_length_c                   14.006(2)
_cell_angle_alpha                90
_cell_angle_beta                 96.95(2)
_cell_angle_gamma                90
_cell_volume                     939.063
loop_
_atom_site_label
_atom_site_type_symbol
_atom_site_fract_x
_atom_site_fract_y
_atom_site_fract_z
Cd1 Cd -0.3040(1) -0.2125(1) 0.71980(7)
I1 I -0.5381(1) -0.42300(9) 0.64272(6)
I2 I -0.5015(1) 0.02529(9) 0.65390(7)
N1 N -0.337(1) -0.199(1) 0.8775(8)
N2 N -0.504(1) -0.305(1) 1.1685(8)
C1 C -0.543(2) -0.213(1) 0.898(1)
C2 C -0.576(2) -0.198(1) 1.002(1)
C3 C -0.499(2) -0.327(1) 1.0612(8)
H1 H -0.274 -0.107 0.899
H2 H -0.219 -0.255 0.917
H3 H -0.434 -0.210 1.162
H4 H -0.470 -0.390 1.195
H5 H -0.619 -0.144 0.864
H6 H -0.590 -0.299 0.876
H7 H -0.712 -0.186 1.009
H8 H -0.504 -0.122 1.030
H9 H -0.367 -0.347 1.049
H10 H -0.581 -0.402 1.040
Cd1C Cd -0.8040(1) -0.2875(1) 1.21980(7)
N2C N -0.004(1) -0.195(1) 0.6685(8)
H3C H 0.066 -0.290 0.662
H4C H 0.030 -0.110 0.695
loop_
_geom_bond_atom_site_label_1
_geom_bond_atom_site_label_2
_geom_bond_site_symmetry_1
_geom_bond_site_symmetry_2
Cd1 I1 1_555 1_555
I2 Cd1 1_555 1_555
N1 Cd1 1_555 1_555
N2 C3 1_555 1_555
C1 N1 1_555 1_555
C2 C1 1_555 1_555
C3 C2 1_555 1_555
H1 N1 1_555 1_555
H2 N1 1_555 1_555
H3 N2 1_555 1_555
H4 N2 1_555 1_555
H5 C1 1_555 1_555
H6 C1 1_555 1_555
H7 C2 1_555 1_555
H8 C2 1_555 1_555
H9 C3 1_555 1_555
H10 C3 1_555 1_555
Cd1C N2 1_555 1_555
N2C Cd1 1_555 1_555
H3C N2C 1_555 1_555
H4C N2C 1_555 1_555

#END
