
#######################################################################
#
#                 Cambridge Crystallographic Data Centre
#                                CCDC 
#
#######################################################################
#
# If this CIF has been generated from an entry in the Cambridge 
# Structural Database, then it will include bibliographic, chemical, 
# crystal, experimental, refinement or atomic coordinate data resulting 
# from the CCDC's data processing and validation procedures.
#
#######################################################################

data_KESRUW
_symmetry_cell_setting           monoclinic
_symmetry_space_group_name_H-M   'P 21/n'
_symmetry_Int_Tables_number      14
_space_group_name_Hall           '-P 2yn'
loop_
_symmetry_equiv_pos_site_id
_symmetry_equiv_pos_as_xyz
1 x,y,z
2 1/2-x,1/2+y,1/2-z
3 -x,-y,-z
4 1/2+x,1/2-y,1/2+z
_cell_length_a                   13.543(1)
_cell_length_b                   6.9515(5)
_cell_length_c                   30.757(2)
_cell_angle_alpha                90
_cell_angle_beta                 101.314(1)
_cell_angle_gamma                90
_cell_volume                     2839.32
loop_
_atom_site_label
_atom_site_type_symbol
_atom_site_fract_x
_atom_site_fract_y
_atom_site_fract_z
Cu1 Cu 0.87471(4) 0.05370(9) 0.145388(19)
Cu2 Cu 0.87515(4) -0.64280(9) 0.10624(2)
Cu3 Cu 1.23178(4) 0.18986(11) 0.16191(2)
Cu4 Cu 1.01824(4) 0.29184(11) 0.586770(19)
N1 N 0.8827(3) 0.1039(7) 0.21282(12)
N2 N 0.9986(3) 0.2600(7) 0.51977(13)
N3 N 0.8683(3) -0.6599(6) 0.03829(13)
N4 N 0.7515(3) -0.6898(7) -0.27057(13)
N5 N 1.0816(3) 0.1950(6) 0.13849(14)
N6 N 0.6671(3) 0.2076(6) 0.10940(14)
N7 N 1.3974(4) 0.1922(8) 0.11680(16)
N8 N 0.8738(3) -0.3742(8) 0.12276(14)
C1 C 0.8852(5) -0.0392(9) 0.24172(18)
H1 H 0.8869 -0.1645 0.2313
C2 C 0.8853(6) -0.0127(10) 0.2860(2)
H2 H 0.8912 -0.1177 0.3051
C3 C 0.8767(4) 0.1688(10) 0.30179(18)
C4 C 0.8771(6) 0.3158(10) 0.27242(19)
H3 H 0.8744 0.4424 0.2819
C5 C 0.8814(5) 0.2782(10) 0.22897(19)
H4 H 0.8835 0.3818 0.2100
C6 C 0.8726(4) 0.2068(12) 0.34945(18)
H5 H 0.8309 0.1103 0.3598
H6 H 0.8424 0.3317 0.3520
C7 C 0.9771(4) 0.2022(10) 0.37802(19)
H7 H 1.0168 0.3042 0.3684
H8 H 1.0086 0.0809 0.3732
C8 C 0.9804(4) 0.2253(9) 0.42751(17)
C9 C 1.0713(5) 0.2262(11) 0.45555(18)
H9 H 1.1297 0.2149 0.4441
C10 C 1.0781(4) 0.2435(10) 0.50028(18)
H10 H 1.1419 0.2438 0.5183
C11 C 0.8975(4) 0.2430(10) 0.44620(18)
H11 H 0.8335 0.2431 0.4284
C12 C 0.9089(4) 0.2612(9) 0.49273(18)
H12 H 0.8516 0.2746 0.5049
C13 C 0.8748(6) -0.8258(9) 0.01862(19)
H13 H 0.8764 -0.9375 0.0354
C14 C 0.8792(6) -0.8427(10) -0.0255(2)
H14 H 0.8845 -0.9638 -0.0377
C15 C 0.8758(4) -0.6828(10) -0.05151(18)
C16 C 0.8619(5) -0.5097(10) -0.03170(19)
H15 H 0.8536 -0.3971 -0.0483
C17 C 0.8606(5) -0.5050(9) 0.01308(18)
H16 H 0.8540 -0.3863 0.0262
C18 C 0.8802(4) -0.6964(11) -0.10009(18)
H17 H 0.9134 -0.8151 -0.1056
H18 H 0.9193 -0.5899 -0.1081
C19 C 0.7740(4) -0.6915(10) -0.12860(18)
H19 H 0.7370 -0.8024 -0.1212
H20 H 0.7399 -0.5773 -0.1210
C20 C 0.7704(4) -0.6914(9) -0.17829(18)
C21 C 0.6799(5) -0.6877(10) -0.20595(18)
H21 H 0.6216 -0.6855 -0.1942
C22 C 0.6724(4) -0.6870(10) -0.25110(18)
H22 H 0.6085 -0.6845 -0.2690
C23 C 0.8538(5) -0.6901(10) -0.19725(19)
H23 H 0.9180 -0.6891 -0.1796
C24 C 0.8409(4) -0.6901(11) -0.24368(18)
H24 H 0.8981 -0.6904 -0.2562
C25 C 1.0089(5) 0.2042(8) 0.13289(16)
C26 C 0.7421(5) 0.2054(7) 0.11564(16)
C27 C 1.3475(5) 0.1898(9) 0.13290(17)
C28 C 0.8761(3) -0.2152(8) 0.13180(15)
Cu1_2 Cu 0.87471(4) -0.94630(9) 0.145388(19)
Cu2_2 Cu 0.87515(4) 0.35720(9) 0.10624(2)
Cu3C Cu 0.73178(4) -0.68986(11) -0.33809(2)
Cu4C Cu 0.51824(4) 0.20816(11) 0.086770(19)
Cu4C_2 Cu 1.51824(4) 0.20816(11) 0.086770(19)
N4C N 1.2515(3) 0.1898(7) 0.22943(13)
N6C N 1.1671(3) 0.2924(6) 0.60940(14)
N7C N 0.8974(4) 0.3078(8) 0.61680(16)
C25_2 C 1.0089(5) -0.7958(8) 0.13289(16)
C26_2 C 0.7421(5) -0.7946(7) 0.11564(16)
loop_
_geom_bond_atom_site_label_1
_geom_bond_atom_site_label_2
_geom_bond_site_symmetry_1
_geom_bond_site_symmetry_2
Cu1 N1 1_555 1_555
Cu2 N3 1_555 1_555
Cu3 N5 1_555 1_555
Cu4 N2 1_555 1_555
N1 C1 1_555 1_555
N2 C10 1_555 1_555
N3 C13 1_555 1_555
N4 C22 1_555 1_555
N5 C25 1_555 1_555
N6 C26 1_555 1_555
N7 C27 1_555 1_555
N8 Cu2 1_555 1_555
C1 H1 1_555 1_555
C2 C1 1_555 1_555
H2 C2 1_555 1_555
C3 C2 1_555 1_555
C4 C3 1_555 1_555
H3 C4 1_555 1_555
C5 N1 1_555 1_555
H4 C5 1_555 1_555
C6 C3 1_555 1_555
H5 C6 1_555 1_555
H6 C6 1_555 1_555
C7 C6 1_555 1_555
H7 C7 1_555 1_555
H8 C7 1_555 1_555
C8 C7 1_555 1_555
C9 C8 1_555 1_555
H9 C9 1_555 1_555
C10 C9 1_555 1_555
H10 C10 1_555 1_555
C11 C8 1_555 1_555
H11 C11 1_555 1_555
C12 N2 1_555 1_555
H12 C12 1_555 1_555
C13 H13 1_555 1_555
C14 C13 1_555 1_555
H14 C14 1_555 1_555
C15 C14 1_555 1_555
C16 C15 1_555 1_555
H15 C16 1_555 1_555
C17 N3 1_555 1_555
H16 C17 1_555 1_555
C18 C15 1_555 1_555
H17 C18 1_555 1_555
H18 C18 1_555 1_555
C19 C18 1_555 1_555
H19 C19 1_555 1_555
H20 C19 1_555 1_555
C20 C19 1_555 1_555
C21 C20 1_555 1_555
H21 C21 1_555 1_555
C22 C21 1_555 1_555
H22 C22 1_555 1_555
C23 C20 1_555 1_555
H23 C23 1_555 1_555
C24 N4 1_555 1_555
H24 C24 1_555 1_555
C25 Cu1 1_555 1_555
C26 Cu1 1_555 1_555
C27 Cu3 1_555 1_555
C28 Cu1 1_555 1_555
Cu1_2 Cu2 1_555 1_555
Cu2_2 Cu1 1_555 1_555
Cu3C N4 1_555 1_555
Cu4C N6 1_555 1_555
Cu4C_2 N7 1_555 1_555
N4C Cu3 1_555 1_555
N6C Cu4 1_555 1_555
N7C Cu4 1_555 1_555
C25_2 Cu2 1_555 1_555
C26_2 Cu2 1_555 1_555
N8 C28 1_555 1_555
C4 C5 1_555 1_555
C11 C12 1_555 1_555
C16 C17 1_555 1_555
C23 C24 1_555 1_555
C25 Cu2_2 1_555 1_555
C26 Cu2_2 1_555 1_555
Cu1_2 C25_2 1_555 1_555
Cu1_2 C26_2 1_555 1_555

#END
