
#######################################################################
#
#                 Cambridge Crystallographic Data Centre
#                                CCDC 
#
#######################################################################
#
# If this CIF has been generated from an entry in the Cambridge 
# Structural Database, then it will include bibliographic, chemical, 
# crystal, experimental, refinement or atomic coordinate data resulting 
# from the CCDC's data processing and validation procedures.
#
#######################################################################

data_KESROQ
_symmetry_cell_setting           tetragonal
_symmetry_space_group_name_H-M   'P 43 21 2'
_symmetry_Int_Tables_number      96
_space_group_name_Hall           'P 4nw 2abw'
loop_
_symmetry_equiv_pos_site_id
_symmetry_equiv_pos_as_xyz
1 x,y,z
2 -x,-y,1/2+z
3 1/2-y,1/2+x,3/4+z
4 1/2+y,1/2-x,1/4+z
5 1/2-x,1/2+y,3/4-z
6 1/2+x,1/2-y,1/4-z
7 y,x,-z
8 -y,-x,1/2-z
_cell_length_a                   16.622(3)
_cell_length_b                   16.622(3)
_cell_length_c                   17.733(6)
_cell_angle_alpha                90
_cell_angle_beta                 90
_cell_angle_gamma                90
_cell_volume                     4899.47
loop_
_atom_site_label
_atom_site_type_symbol
_atom_site_fract_x
_atom_site_fract_y
_atom_site_fract_z
Cu1 Cu 0.78783(5) 0.76025(5) 0.07883(4)
Br1 Br 0.86162(4) 0.86162(4) 0.0000
Br2 Br 0.68707(4) 0.68707(4) 0.0000
N1 N 0.8681(3) 0.6827(3) 0.1240(2)
N2 N 1.1759(3) 0.2829(3) 0.3472(2)
C1 C 0.8431(4) 0.6128(4) 0.1502(3)
H1 H 0.7898 0.5981 0.1419
C2 C 0.8922(4) 0.5601(4) 0.1893(3)
H2 H 0.8714 0.5118 0.2070
C3 C 0.9705(4) 0.5786(4) 0.2020(3)
C4 C 0.9978(4) 0.6506(4) 0.1743(3)
H3 H 1.0512 0.6660 0.1805
C5 C 0.9435(4) 0.7000(4) 0.1367(3)
H4 H 0.9623 0.7493 0.1193
C6 C 1.0263(4) 0.5212(3) 0.2445(3)
H5 H 1.0776 0.5478 0.2525
H6 H 1.0032 0.5102 0.2937
C7 C 1.0411(4) 0.4433(4) 0.2054(3)
H7 H 1.0700 0.4534 0.1589
H8 H 0.9899 0.4190 0.1925
C8 C 1.0890(4) 0.3851(4) 0.2535(3)
C9 C 1.0521(4) 0.3333(4) 0.3022(3)
H9 H 0.9962 0.3314 0.3047
C10 C 1.0978(4) 0.2834(4) 0.3479(3)
H10 H 1.0712 0.2487 0.3805
C11 C 1.2121(4) 0.3337(4) 0.3000(3)
H11 H 1.2680 0.3348 0.2984
C12 C 1.1703(4) 0.3838(4) 0.2541(3)
H12 H 1.1984 0.4182 0.2221
Cu1F Cu 0.76025(5) 0.78783(5) -0.07883(4)
Cu1G Cu 1.23975(5) 0.21217(5) 0.42117(4)
Cu1G_2 Cu 0.23975(5) 1.21217(5) 0.42117(4)
N1G N 0.3173(3) 1.1319(3) 0.3760(2)
N1F N 0.6827(3) 0.8681(3) -0.1240(2)
N2G N 0.7171(3) 0.8241(3) 0.1528(2)
N2A N 0.8241(3) 0.7171(3) -0.1528(2)
C1G C 0.3872(4) 1.1569(4) 0.3498(3)
H1G H 0.4019 1.2102 0.3581
C2G C 0.4399(4) 1.1078(4) 0.3107(3)
H2G H 0.4882 1.1286 0.2930
C3G C 0.4214(4) 1.0295(4) 0.2980(3)
C4G C 0.3494(4) 1.0022(4) 0.3257(3)
H3G H 0.3340 0.9488 0.3195
C5G C 0.3000(4) 1.0565(4) 0.3633(3)
H4G H 0.2507 1.0377 0.3807
C6G C 0.4788(3) 0.9737(4) 0.2555(3)
H5G H 0.4522 0.9224 0.2475
H6G H 0.4898 0.9968 0.2063
C7G C 0.5567(4) 0.9589(4) 0.2946(3)
H7G H 0.5466 0.9300 0.3411
H8G H 0.5810 1.0101 0.3075
C8G C 0.6149(4) 0.9110(4) 0.2465(3)
C9G C 0.6667(4) 0.9479(4) 0.1978(3)
H9G H 0.6686 1.0038 0.1953
C10G C 0.7166(4) 0.9022(4) 0.1521(3)
H10G H 0.7513 0.9288 0.1195
C11G C 0.6663(4) 0.7879(4) 0.2000(3)
H11G H 0.6652 0.7320 0.2016
C12G C 0.6162(4) 0.8297(4) 0.2459(3)
H12G H 0.5818 0.8016 0.2779
Cu2 Cu 0.26132(5) 0.23582(5) 0.07551(4)
Br3 Br 0.15291(4) 0.32926(4) 0.02261(3)
N3 N 0.3487(3) 0.3023(3) 0.1247(2)
N4 N 0.1971(3) 0.1611(3) 0.1429(2)
C13 C 0.4101(4) 0.2681(4) 0.1619(3)
H13 H 0.4186 0.2131 0.1564
C14 C 0.4602(4) 0.3105(4) 0.2072(3)
H14 H 0.5018 0.2835 0.2316
C15 C 0.4521(4) 0.3909(4) 0.2183(3)
C16 C 0.3907(4) 0.4267(4) 0.1784(3)
H15 H 0.3829 0.4820 0.1817
C17 C 0.3415(4) 0.3813(4) 0.1340(3)
H16 H 0.3001 0.4074 0.1085
C18 C 0.5055(4) 0.4393(4) 0.2692(3)
H17 H 0.4719 0.4703 0.3032
H18 H 0.5370 0.4025 0.2998
C19 C 0.1256(4) 0.1819(4) 0.1683(3)
H19 H 0.1066 0.2333 0.1577
C20 C 0.0767(4) 0.1299(4) 0.2107(3)
H20 H 0.0252 0.1455 0.2250
C21 C 0.1057(4) 0.0562(4) 0.2307(3)
C22 C 0.1802(4) 0.0357(4) 0.2049(3)
H21 H 0.2015 -0.0146 0.2162
C23 C 0.2236(4) 0.0888(4) 0.1627(3)
H22 H 0.2747 0.0735 0.1469
C24 C 0.0531(4) -0.0007(4) 0.2749(3)
H23 H 0.0190 0.0303 0.3085
H24 H 0.0870 -0.0349 0.3058
Cu2F Cu 0.23582(5) 0.26132(5) -0.07551(4)
Cu2G Cu 0.76418(5) 0.73868(5) 0.42449(4)
Cu2G_2 Cu -0.23582(5) -0.26132(5) 0.42449(4)
Br3F Br 0.32926(4) 0.15291(4) -0.02261(3)
N3G N 0.6977(3) 0.6513(3) 0.3753(2)
N3F N 0.3023(3) 0.3487(3) -0.1247(2)
N4G N -0.1611(3) -0.1971(3) 0.3571(2)
N4F N 0.1611(3) 0.1971(3) -0.1429(2)
C13G C 0.7319(4) 0.5899(4) 0.3381(3)
H13G H 0.7869 0.5814 0.3436
C14G C 0.6895(4) 0.5398(4) 0.2928(3)
H14G H 0.7165 0.4982 0.2684
C15G C 0.6091(4) 0.5479(4) 0.2817(3)
C16G C 0.5733(4) 0.6093(4) 0.3216(3)
H15G H 0.5180 0.6171 0.3183
C17G C 0.6187(4) 0.6585(4) 0.3660(3)
H16G H 0.5926 0.6999 0.3915
C18G C 0.5607(4) 0.4945(4) 0.2308(3)
H17G H 0.5297 0.5281 0.1968
H18G H 0.5975 0.4630 0.2002
C19G C -0.1819(4) -0.1256(4) 0.3317(3)
H19G H -0.2333 -0.1066 0.3423
C20G C -0.1299(4) -0.0767(4) 0.2893(3)
H20G H -0.1455 -0.0252 0.2750
C21G C -0.0562(4) -0.1057(4) 0.2693(3)
C22G C -0.0357(4) -0.1802(4) 0.2951(3)
H21G H 0.0146 -0.2015 0.2838
C23G C -0.0888(4) -0.2236(4) 0.3373(3)
H22G H -0.0735 -0.2747 0.3531
C24G C 0.0007(4) -0.0531(4) 0.2251(3)
H23G H -0.0303 -0.0190 0.1915
H24G H 0.0349 -0.0870 0.1942
loop_
_geom_bond_atom_site_label_1
_geom_bond_atom_site_label_2
_geom_bond_site_symmetry_1
_geom_bond_site_symmetry_2
Cu1 Br1 1_555 1_555
Cu2 Br3 1_555 1_555
Br1 Cu1F 1_555 1_555
Br2 Cu1 1_555 1_555
Br3 Cu2F 1_555 1_555
N1 Cu1 1_555 1_555
N2 C10 1_555 1_555
N3 Cu2 1_555 1_555
N4 Cu2 1_555 1_555
C1 N1 1_555 1_555
H1 C1 1_555 1_555
C2 C1 1_555 1_555
H2 C2 1_555 1_555
C3 C2 1_555 1_555
C4 C3 1_555 1_555
H3 C4 1_555 1_555
C5 N1 1_555 1_555
H4 C5 1_555 1_555
C6 C3 1_555 1_555
H5 C6 1_555 1_555
H6 C6 1_555 1_555
C7 C6 1_555 1_555
H7 C7 1_555 1_555
H8 C7 1_555 1_555
C8 C7 1_555 1_555
C9 C8 1_555 1_555
H9 C9 1_555 1_555
C10 C9 1_555 1_555
H10 C10 1_555 1_555
C11 N2 1_555 1_555
H11 C11 1_555 1_555
C12 C8 1_555 1_555
H12 C12 1_555 1_555
C13 N3 1_555 1_555
H13 C13 1_555 1_555
C14 C13 1_555 1_555
H14 C14 1_555 1_555
C15 C14 1_555 1_555
C16 C15 1_555 1_555
H15 C16 1_555 1_555
C17 N3 1_555 1_555
H16 C17 1_555 1_555
C18 C15 1_555 1_555
H17 C18 1_555 1_555
H18 C18 1_555 1_555
C19 N4 1_555 1_555
H19 C19 1_555 1_555
C20 C19 1_555 1_555
H20 C20 1_555 1_555
C21 C20 1_555 1_555
C22 C21 1_555 1_555
H21 C22 1_555 1_555
C23 N4 1_555 1_555
H22 C23 1_555 1_555
C24 C21 1_555 1_555
H23 C24 1_555 1_555
H24 C24 1_555 1_555
Cu1F Br2 1_555 1_555
Cu1G N2 1_555 1_555
Cu1G_2 N1G 1_555 1_555
Cu2F Br3F 1_555 1_555
Cu2G N3G 1_555 1_555
Cu2G_2 N4G 1_555 1_555
Br3F Cu2 1_555 1_555
N1G C1G 1_555 1_555
N1F Cu1F 1_555 1_555
N2G Cu1 1_555 1_555
N2A Cu1F 1_555 1_555
N3G C13G 1_555 1_555
N3F Cu2F 1_555 1_555
N4G C19G 1_555 1_555
N4F Cu2F 1_555 1_555
C1G H1G 1_555 1_555
C2G C1G 1_555 1_555
H2G C2G 1_555 1_555
C3G C2G 1_555 1_555
C4G C3G 1_555 1_555
H3G C4G 1_555 1_555
C5G N1G 1_555 1_555
H4G C5G 1_555 1_555
C6G C3G 1_555 1_555
H5G C6G 1_555 1_555
H6G C6G 1_555 1_555
C7G C6G 1_555 1_555
H7G C7G 1_555 1_555
H8G C7G 1_555 1_555
C8G C7G 1_555 1_555
C9G C8G 1_555 1_555
H9G C9G 1_555 1_555
C10G N2G 1_555 1_555
H10G C10G 1_555 1_555
C11G N2G 1_555 1_555
H11G C11G 1_555 1_555
C12G C8G 1_555 1_555
H12G C12G 1_555 1_555
C13G H13G 1_555 1_555
C14G C13G 1_555 1_555
H14G C14G 1_555 1_555
C15G C14G 1_555 1_555
C16G C15G 1_555 1_555
H15G C16G 1_555 1_555
C17G N3G 1_555 1_555
H16G C17G 1_555 1_555
C18G C18 1_555 1_555
H17G C18G 1_555 1_555
H18G C18G 1_555 1_555
C19G H19G 1_555 1_555
C20G C19G 1_555 1_555
H20G C20G 1_555 1_555
C21G C20G 1_555 1_555
C22G C21G 1_555 1_555
H21G C22G 1_555 1_555
C23G N4G 1_555 1_555
H22G C23G 1_555 1_555
C24G C24 1_555 1_555
H23G C24G 1_555 1_555
H24G C24G 1_555 1_555
C4 C5 1_555 1_555
C11 C12 1_555 1_555
C16 C17 1_555 1_555
C22 C23 1_555 1_555
C4G C5G 1_555 1_555
C9G C10G 1_555 1_555
C11G C12G 1_555 1_555
C15G C18G 1_555 1_555
C16G C17G 1_555 1_555
C21G C24G 1_555 1_555
C22G C23G 1_555 1_555

#END
