
#######################################################################
#
#                 Cambridge Crystallographic Data Centre
#                                CCDC 
#
#######################################################################
#
# If this CIF has been generated from an entry in the Cambridge 
# Structural Database, then it will include bibliographic, chemical, 
# crystal, experimental, refinement or atomic coordinate data resulting 
# from the CCDC's data processing and validation procedures.
#
#######################################################################

data_KESSOS01
_symmetry_cell_setting           monoclinic
_symmetry_space_group_name_H-M   'P 21/c'
_symmetry_Int_Tables_number      14
_space_group_name_Hall           '-P 2ybc'
loop_
_symmetry_equiv_pos_site_id
_symmetry_equiv_pos_as_xyz
1 x,y,z
2 -x,1/2+y,1/2-z
3 -x,-y,-z
4 x,1/2-y,1/2+z
_cell_length_a                   7.3564(10)
_cell_length_b                   14.7571(17)
_cell_length_c                   7.1892(10)
_cell_angle_alpha                90
_cell_angle_beta                 94.711(5)
_cell_angle_gamma                90
_cell_volume                     777.817
loop_
_atom_site_label
_atom_site_type_symbol
_atom_site_fract_x
_atom_site_fract_y
_atom_site_fract_z
Cu1 Cu 0.5000 0.5000 0.0000
O1 O 0.6376(4) 0.3890(2) -0.0327(4)
O2 O 0.3142(5) 0.0162(2) 0.1649(5)
O3 O 0.0650(5) 0.0938(2) 0.1619(5)
N1 N 0.3173(5) 0.4188(2) 0.0902(5)
N2 N 0.2319(6) 0.0889(3) 0.1462(5)
C1 C 0.1587(6) 0.4397(3) 0.1503(6)
H1 H 0.1247 0.5016 0.1583
C2 C 0.0382(6) 0.3722(3) 0.2031(6)
H2 H -0.0751 0.3887 0.2480
C3 C 0.0843(6) 0.2828(3) 0.1898(6)
H3 H 0.0027 0.2371 0.2245
C4 C 0.2554(6) 0.2582(3) 0.1235(6)
C5 C 0.3312(6) 0.1693(3) 0.1045(6)
C6 C 0.5032(6) 0.1576(3) 0.0474(6)
H4 H 0.5496 0.0977 0.0409
C7 C 0.6125(6) 0.2289(3) -0.0012(6)
H5 H 0.7298 0.2174 -0.0425
C8 C 0.5486(6) 0.3182(3) 0.0112(6)
C9 C 0.3679(6) 0.3302(3) 0.0770(6)
O1B O 0.3624(4) 0.6110(2) 0.0327(4)
O2B O 0.6858(5) 0.9838(2) -0.1649(5)
O3B O 0.9350(5) 0.9062(2) -0.1619(5)
N1B N 0.6827(5) 0.5812(2) -0.0902(5)
N2B N 0.7681(6) 0.9111(3) -0.1462(5)
C1B C 0.8413(6) 0.5603(3) -0.1503(6)
H1B H 0.8753 0.4984 -0.1583
C2B C 0.9618(6) 0.6278(3) -0.2031(6)
H2B H 1.0751 0.6113 -0.2480
C3B C 0.9157(6) 0.7172(3) -0.1898(6)
H3B H 0.9973 0.7629 -0.2245
C4B C 0.7446(6) 0.7418(3) -0.1235(6)
C5B C 0.6688(6) 0.8307(3) -0.1045(6)
C6B C 0.4968(6) 0.8424(3) -0.0474(6)
H4B H 0.4504 0.9023 -0.0409
C7B C 0.3875(6) 0.7711(3) 0.0012(6)
H5B H 0.2702 0.7826 0.0425
C8B C 0.4514(6) 0.6818(3) -0.0112(6)
C9B C 0.6321(6) 0.6698(3) -0.0770(6)
Cu1A Cu 0.5000 0.0000 0.5000
Cu1A_2 Cu 0.5000 1.0000 -0.5000
O2A O 0.6858(5) 0.5162(2) 0.3351(5)
O2C O 0.3142(5) 0.4838(2) -0.3351(5)
loop_
_geom_bond_atom_site_label_1
_geom_bond_atom_site_label_2
_geom_bond_site_symmetry_1
_geom_bond_site_symmetry_2
Cu1 O1 1_555 1_555
O1 C8 1_555 1_555
O2 N2 1_555 1_555
O3 N2 1_555 1_555
N1 Cu1 1_555 1_555
N2 C5 1_555 1_555
C1 N1 1_555 1_555
H1 C1 1_555 1_555
C2 C1 1_555 1_555
H2 C2 1_555 1_555
C3 C2 1_555 1_555
H3 C3 1_555 1_555
C4 C3 1_555 1_555
C5 C4 1_555 1_555
C6 C5 1_555 1_555
H4 C6 1_555 1_555
C7 C6 1_555 1_555
H5 C7 1_555 1_555
C8 C7 1_555 1_555
C9 N1 1_555 1_555
O1B Cu1 1_555 1_555
O2B N2B 1_555 1_555
O3B N2B 1_555 1_555
N1B Cu1 1_555 1_555
N2B C5B 1_555 1_555
C1B N1B 1_555 1_555
H1B C1B 1_555 1_555
C2B C1B 1_555 1_555
H2B C2B 1_555 1_555
C3B C2B 1_555 1_555
H3B C3B 1_555 1_555
C4B C3B 1_555 1_555
C5B C4B 1_555 1_555
C6B C5B 1_555 1_555
H4B C6B 1_555 1_555
C7B C6B 1_555 1_555
H5B C7B 1_555 1_555
C8B O1B 1_555 1_555
C9B N1B 1_555 1_555
Cu1A O2 1_555 1_555
Cu1A_2 O2B 1_555 1_555
O2A Cu1 1_555 1_555
O2C Cu1 1_555 1_555
C4 C9 1_555 1_555
C8 C9 1_555 1_555
C4B C9B 1_555 1_555
C7B C8B 1_555 1_555
C8B C9B 1_555 1_555

#END
