
#######################################################################
#
#                 Cambridge Crystallographic Data Centre
#                                CCDC 
#
#######################################################################
#
# If this CIF has been generated from an entry in the Cambridge 
# Structural Database, then it will include bibliographic, chemical, 
# crystal, experimental, refinement or atomic coordinate data resulting 
# from the CCDC's data processing and validation procedures.
#
#######################################################################

data_KESSAE
_symmetry_cell_setting           monoclinic
_symmetry_space_group_name_H-M   'P 21/n'
_symmetry_Int_Tables_number      14
_space_group_name_Hall           '-P 2yn'
loop_
_symmetry_equiv_pos_site_id
_symmetry_equiv_pos_as_xyz
1 x,y,z
2 1/2-x,1/2+y,1/2-z
3 -x,-y,-z
4 1/2+x,1/2-y,1/2+z
_cell_length_a                   11.844(5)
_cell_length_b                   15.988(7)
_cell_length_c                   13.610(6)
_cell_angle_alpha                90
_cell_angle_beta                 91.583(5)
_cell_angle_gamma                90
_cell_volume                     2576.23
loop_
_atom_site_label
_atom_site_type_symbol
_atom_site_fract_x
_atom_site_fract_y
_atom_site_fract_z
Cd1 Cd 0.658018(14) 1.100160(10) 0.751510(13)
O1 O 0.83927(15) 1.16543(13) 0.77189(14)
O2 O 0.91863(19) 0.72749(11) 0.81123(15)
O3 O 0.95493(17) 0.69212(11) 0.66073(15)
N1 N 1.05163(16) 0.49110(12) 1.16331(15)
O4 O 0.80554(16) 1.08759(12) 0.64116(16)
N2 N 0.66560(18) 1.01341(13) 0.88576(16)
N3 N 0.98373(18) 0.60419(12) 1.09228(18)
C1 C 0.9542(2) 0.74474(15) 0.7282(2)
C2 C 0.9966(2) 0.97817(14) 0.75229(18)
H1 H 0.9825 1.0199 0.7979
N4 N 0.68435(19) 0.96151(13) 1.03444(16)
C3 C 1.0627(2) 1.08880(14) 0.63601(18)
C4 C 1.0643(2) 0.93554(15) 0.59591(18)
H2 H 1.0970 0.9479 0.5363
C5 C 0.99193(19) 0.83282(14) 0.70734(18)
C6 C 1.1804(2) 0.61483(16) 1.1662(2)
H3 H 1.2259 0.5810 1.2102
H4 H 1.1642 0.6672 1.1972
H5 H 1.2207 0.6248 1.1071
C7 C 1.0386(2) 0.85328(14) 0.61867(19)
H6 H 1.0530 0.8112 0.5735
C8 C 0.9026(2) 0.54315(18) 1.0814(2)
H7 H 0.8323 0.5484 1.0498
C9 C 1.1637(2) 1.11192(15) 0.5922(2)
H8 H 1.2156 1.0708 0.5763
C10 C 0.9852(2) 1.15165(14) 0.65687(18)
C11 C 0.8688(2) 1.13327(15) 0.6926(2)
C12 C 1.0728(2) 0.57052(15) 1.14169(18)
C13 C 1.04144(18) 0.99964(14) 0.66135(18)
C14 C 0.7224(2) 1.01528(16) 0.9686(2)
C15 C 1.1875(2) 1.19481(17) 0.5723(2)
H9 H 1.2550 1.2089 0.5430
C16 C 0.9454(2) 0.47410(17) 1.1258(2)
H10 H 0.9085 0.4229 1.1303
C17 C 0.9730(2) 0.89574(14) 0.77510(19)
H11 H 0.9444 0.8825 0.8361
C18 C 0.9680(2) 0.69188(17) 1.0614(2)
H12 H 0.9598 0.6946 0.9903
H13 H 1.0340 0.7244 1.0812
C19 C 1.0115(2) 1.23493(15) 0.6376(2)
H14 H 0.9605 1.2767 0.6533
C20 C 0.5827(2) 0.95157(16) 0.8988(2)
H15 H 0.5287 0.9356 0.8515
C21 C 0.8468(2) 0.82045(16) 1.0881(2)
H16 H 0.9149 0.8513 1.1058
H17 H 0.8299 0.8297 1.0188
C22 C 1.1122(2) 1.25615(17) 0.5955(2)
H18 H 1.1289 1.3119 0.5830
C23 C 0.5927(2) 0.91970(17) 0.9874(2)
H19 H 0.5483 0.8779 1.0141
C24 C 0.8660(3) 0.72774(18) 1.1066(3)
H20 H 0.8717 0.7186 1.1770
H21 H 0.8003 0.6973 1.0819
C25 C 0.7219(3) 0.94308(18) 1.1343(2)
H22 H 0.6628 0.9582 1.1790
H23 H 0.7879 0.9767 1.1508
C26 C 0.7507(3) 0.85149(18) 1.1477(2)
H24 H 0.7690 0.8417 1.2166
H25 H 0.6842 0.8186 1.1308
C27 C 0.8206(3) 1.0716(2) 0.9892(3)
H26 H 0.8894 1.0401 0.9856
H27 H 0.8148 1.0951 1.0538
H28 H 0.8208 1.1158 0.9414
Cd1A Cd 0.841982(14) 0.600160(10) 0.748490(13)
Cd1C Cd 1.158018(14) 0.399840(10) 1.251510(13)
O2A O 0.58137(19) 1.22749(11) 0.68877(15)
O3A O 0.54507(17) 1.19212(11) 0.83927(15)
N1C N 0.55163(16) 1.00890(12) 0.66331(15)
loop_
_geom_bond_atom_site_label_1
_geom_bond_atom_site_label_2
_geom_bond_site_symmetry_1
_geom_bond_site_symmetry_2
Cd1 O1 1_555 1_555
O1 C11 1_555 1_555
O2 C1 1_555 1_555
O3 C1 1_555 1_555
N1 C12 1_555 1_555
O4 Cd1 1_555 1_555
N2 Cd1 1_555 1_555
N3 C8 1_555 1_555
C1 C5 1_555 1_555
C2 H1 1_555 1_555
N4 C14 1_555 1_555
C3 C9 1_555 1_555
C4 H2 1_555 1_555
C5 C7 1_555 1_555
C6 H3 1_555 1_555
H4 C6 1_555 1_555
H5 C6 1_555 1_555
C7 C4 1_555 1_555
H6 C7 1_555 1_555
C8 H7 1_555 1_555
C9 H8 1_555 1_555
C10 C3 1_555 1_555
C11 O4 1_555 1_555
C12 N3 1_555 1_555
C13 C2 1_555 1_555
C14 N2 1_555 1_555
C15 C9 1_555 1_555
H9 C15 1_555 1_555
C16 N1 1_555 1_555
H10 C16 1_555 1_555
C17 C2 1_555 1_555
H11 C17 1_555 1_555
C18 N3 1_555 1_555
H12 C18 1_555 1_555
H13 C18 1_555 1_555
C19 C10 1_555 1_555
H14 C19 1_555 1_555
C20 N2 1_555 1_555
H15 C20 1_555 1_555
C21 H16 1_555 1_555
H17 C21 1_555 1_555
C22 C15 1_555 1_555
H18 C22 1_555 1_555
C23 N4 1_555 1_555
H19 C23 1_555 1_555
C24 C18 1_555 1_555
H20 C24 1_555 1_555
H21 C24 1_555 1_555
C25 N4 1_555 1_555
H22 C25 1_555 1_555
H23 C25 1_555 1_555
C26 C21 1_555 1_555
H24 C26 1_555 1_555
H25 C26 1_555 1_555
C27 C14 1_555 1_555
H26 C27 1_555 1_555
H27 C27 1_555 1_555
H28 C27 1_555 1_555
Cd1A O2 1_555 1_555
Cd1C N1 1_555 1_555
O2A Cd1 1_555 1_555
O3A Cd1 1_555 1_555
N1C Cd1 1_555 1_555
O3 Cd1A 1_555 1_555
C3 C13 1_555 1_555
C4 C13 1_555 1_555
C5 C17 1_555 1_555
C6 C12 1_555 1_555
C8 C16 1_555 1_555
C10 C11 1_555 1_555
C19 C22 1_555 1_555
C20 C23 1_555 1_555
C21 C24 1_555 1_555
C25 C26 1_555 1_555

#END
