
#######################################################################
#
#                 Cambridge Crystallographic Data Centre
#                                CCDC 
#
#######################################################################
#
# If this CIF has been generated from an entry in the Cambridge 
# Structural Database, then it will include bibliographic, chemical, 
# crystal, experimental, refinement or atomic coordinate data resulting 
# from the CCDC's data processing and validation procedures.
#
#######################################################################

data_KESSIL
_symmetry_cell_setting           monoclinic
_symmetry_space_group_name_H-M   'C 2/m'
_symmetry_Int_Tables_number      12
_space_group_name_Hall           '-C 2y'
loop_
_symmetry_equiv_pos_site_id
_symmetry_equiv_pos_as_xyz
1 x,y,z
2 1/2+x,1/2+y,z
3 -x,y,-z
4 1/2-x,1/2+y,-z
5 -x,-y,-z
6 1/2-x,1/2-y,-z
7 x,-y,z
8 1/2+x,1/2-y,z
_cell_length_a                   15.7611(17)
_cell_length_b                   13.1490(14)
_cell_length_c                   8.4107(9)
_cell_angle_alpha                90
_cell_angle_beta                 94.423(2)
_cell_angle_gamma                90
_cell_volume                     1737.87
loop_
_atom_site_label
_atom_site_type_symbol
_atom_site_fract_x
_atom_site_fract_y
_atom_site_fract_z
I1 I 0.39958(2) 0.5000 0.18195(5)
Cu1 Cu 0.43651(5) 0.5000 -0.11633(10)
N1 N 0.3865(2) 0.3708(3) -0.2213(4)
C1 C 0.4216(3) 0.3298(4) -0.3461(6)
H1 H 0.4696 0.3626 -0.3848
C2 C 0.3916(3) 0.2422(4) -0.4218(6)
H2 H 0.4186 0.2166 -0.5106
C3 C 0.3222(3) 0.1917(4) -0.3682(6)
C4 C 0.2853(3) 0.2349(4) -0.2403(6)
H3 H 0.2371 0.2036 -0.1999
C5 C 0.3180(3) 0.3229(4) -0.1712(6)
H4 H 0.2909 0.3510 -0.0841
C6 C 0.2895(3) 0.0949(4) -0.4463(6)
H5 H 0.3033 0.0947 -0.5591
H6 H 0.2268 0.0928 -0.4448
C7 C 0.3274(5) 0.0000 -0.3635(9)
H7 H 0.3900 0.0000 -0.3680
H8 H 0.3148 0.0000 -0.2500
I1D I 0.60042(2) 0.5000 -0.18195(5)
Cu1D Cu 0.56349(5) 0.5000 0.11633(10)
Cu1_2 Cu 0.43651(5) -0.5000 -0.11633(10)
Cu1_3 Cu 0.43651(5) 1.5000 -0.11633(10)
N1F N 0.3865(2) -0.3708(3) -0.2213(4)
N1F_2 N 0.3865(2) 0.6292(3) -0.2213(4)
N1_2 N 0.3865(2) 1.3708(3) -0.2213(4)
N1D N 0.6135(2) 0.6292(3) 0.2213(4)
N1B N 0.6135(2) 0.3708(3) 0.2213(4)
C1F C 0.4216(3) -0.3298(4) -0.3461(6)
C1F_2 C 0.4216(3) 0.6702(4) -0.3461(6)
C1_2 C 0.4216(3) 1.3298(4) -0.3461(6)
H1F H 0.4696 -0.3626 -0.3848
H1F_2 H 0.4696 0.6374 -0.3848
H1_2 H 0.4696 1.3626 -0.3848
C2F C 0.3916(3) -0.2422(4) -0.4218(6)
C2F_2 C 0.3916(3) 0.7578(4) -0.4218(6)
C2_2 C 0.3916(3) 1.2422(4) -0.4218(6)
H2F H 0.4186 -0.2166 -0.5106
H2F_2 H 0.4186 0.7834 -0.5106
H2_2 H 0.4186 1.2166 -0.5106
C3F C 0.3222(3) -0.1917(4) -0.3682(6)
C3F_2 C 0.3222(3) 0.8083(4) -0.3682(6)
C3_2 C 0.3222(3) 1.1917(4) -0.3682(6)
C4F C 0.2853(3) -0.2349(4) -0.2403(6)
C4F_2 C 0.2853(3) 0.7651(4) -0.2403(6)
C4_2 C 0.2853(3) 1.2349(4) -0.2403(6)
H3F H 0.2371 -0.2036 -0.1999
H3F_2 H 0.2371 0.7964 -0.1999
H3_2 H 0.2371 1.2036 -0.1999
C5F C 0.3180(3) -0.3229(4) -0.1712(6)
C5F_2 C 0.3180(3) 0.6771(4) -0.1712(6)
C5_2 C 0.3180(3) 1.3229(4) -0.1712(6)
H4F H 0.2909 -0.3510 -0.0841
H4F_2 H 0.2909 0.6490 -0.0841
H4_2 H 0.2909 1.3510 -0.0841
C6F C 0.2895(3) -0.0949(4) -0.4463(6)
C6F_2 C 0.2895(3) 0.9051(4) -0.4463(6)
C6_2 C 0.2895(3) 1.0949(4) -0.4463(6)
H5F H 0.3033 -0.0947 -0.5591
H5F_2 H 0.3033 0.9053 -0.5591
H5_2 H 0.3033 1.0947 -0.5591
H6F H 0.2268 -0.0928 -0.4448
H6F_2 H 0.2268 0.9072 -0.4448
H6_2 H 0.2268 1.0928 -0.4448
C7_2 C 0.3274(5) 1.0000 -0.3635(9)
H7_2 H 0.3900 1.0000 -0.3680
H8_2 H 0.3148 1.0000 -0.2500
C8 C 0.4671(9) 0.0000 0.0519(18)
C9 C 0.4275(9) 0.0907(13) 0.1128(19)
H9 H 0.3824 0.0943 0.1812
C10 C 0.4737(8) 0.1759(10) 0.0438(15)
H10 H 0.4572 0.2415 0.0773
C8D C 0.5329(9) 0.0000 -0.0519(18)
C9D C 0.5725(9) -0.0907(13) -0.1128(19)
C9F C 0.4275(9) -0.0907(13) 0.1128(19)
C9B C 0.5725(9) 0.0907(13) -0.1128(19)
H9D H 0.6176 -0.0943 -0.1812
H9B H 0.6176 0.0943 -0.1812
H9F H 0.3824 -0.0943 0.1812
C10D C 0.5263(8) -0.1759(10) -0.0438(15)
C10F C 0.4737(8) -0.1759(10) 0.0438(15)
C10B C 0.5263(8) 0.1759(10) -0.0438(15)
H10B H 0.5428 0.2415 -0.0773
H10F H 0.4572 -0.2415 0.0773
H10D H 0.5428 -0.2415 -0.0773
loop_
_geom_bond_atom_site_label_1
_geom_bond_atom_site_label_2
_geom_bond_site_symmetry_1
_geom_bond_site_symmetry_2
I1 Cu1 1_555 1_555
Cu1 N1 1_555 1_555
N1 C1 1_555 1_555
C1 H1 1_555 1_555
C2 C1 1_555 1_555
H2 C2 1_555 1_555
C3 C2 1_555 1_555
C4 C3 1_555 1_555
H3 C4 1_555 1_555
C5 N1 1_555 1_555
H4 C5 1_555 1_555
C6 C3 1_555 1_555
H5 C6 1_555 1_555
H6 C6 1_555 1_555
C7 C6 1_555 1_555
H7 C7 1_555 1_555
H8 C7 1_555 1_555
C8 C9 1_555 1_555
C9 H9 1_555 1_555
C10 C9 1_555 1_555
H10 C10 1_555 1_555
I1D Cu1 1_555 1_555
Cu1D I1 1_555 1_555
Cu1_2 N1F 1_555 1_555
Cu1_3 N1_2 1_555 1_555
N1F C1F 1_555 1_555
N1F_2 Cu1 1_555 1_555
N1_2 C1_2 1_555 1_555
N1D Cu1D 1_555 1_555
N1B Cu1D 1_555 1_555
C1F H1F 1_555 1_555
C1F_2 N1F_2 1_555 1_555
C1_2 H1_2 1_555 1_555
H1F_2 C1F_2 1_555 1_555
C2F C1F 1_555 1_555
C2F_2 C1F_2 1_555 1_555
C2_2 C1_2 1_555 1_555
H2F C2F 1_555 1_555
H2F_2 C2F_2 1_555 1_555
H2_2 C2_2 1_555 1_555
C3F C2F 1_555 1_555
C3F_2 C2F_2 1_555 1_555
C3_2 C2_2 1_555 1_555
C4F C3F 1_555 1_555
C4F_2 C3F_2 1_555 1_555
C4_2 C3_2 1_555 1_555
H3F C4F 1_555 1_555
H3F_2 C4F_2 1_555 1_555
H3_2 C4_2 1_555 1_555
C5F N1F 1_555 1_555
C5F_2 N1F_2 1_555 1_555
C5_2 N1_2 1_555 1_555
H4F C5F 1_555 1_555
H4F_2 C5F_2 1_555 1_555
H4_2 C5_2 1_555 1_555
C6F C7 1_555 1_555
C6F_2 C3F_2 1_555 1_555
C6_2 C3_2 1_555 1_555
H5F C6F 1_555 1_555
H5F_2 C6F_2 1_555 1_555
H5_2 C6_2 1_555 1_555
H6F C6F 1_555 1_555
H6F_2 C6F_2 1_555 1_555
H6_2 C6_2 1_555 1_555
C7_2 C6F_2 1_555 1_555
H7_2 C7_2 1_555 1_555
H8_2 C7_2 1_555 1_555
C8D C8 1_555 1_555
C9D C8D 1_555 1_555
C9F C8 1_555 1_555
C9B C8D 1_555 1_555
H9D C9D 1_555 1_555
H9B C9B 1_555 1_555
H9F C9F 1_555 1_555
C10D C9D 1_555 1_555
C10F C9F 1_555 1_555
C10B C10 1_555 1_555
H10B C10B 1_555 1_555
H10F C10F 1_555 1_555
H10D C10D 1_555 1_555
C4 C5 1_555 1_555
I1D Cu1D 1_555 1_555
C3F C6F 1_555 1_555
C4F C5F 1_555 1_555
C4F_2 C5F_2 1_555 1_555
C4_2 C5_2 1_555 1_555
C6_2 C7_2 1_555 1_555
C9B C10B 1_555 1_555
C10D C10F 1_555 1_555

#END
