
#######################################################################
#
#                 Cambridge Crystallographic Data Centre
#                                CCDC 
#
#######################################################################
#
# If this CIF has been generated from an entry in the Cambridge 
# Structural Database, then it will include bibliographic, chemical, 
# crystal, experimental, refinement or atomic coordinate data resulting 
# from the CCDC's data processing and validation procedures.
#
#######################################################################

data_KESSOS
_symmetry_cell_setting           monoclinic
_symmetry_space_group_name_H-M   'P 21/c'
_symmetry_Int_Tables_number      14
_space_group_name_Hall           '-P 2ybc'
loop_
_symmetry_equiv_pos_site_id
_symmetry_equiv_pos_as_xyz
1 x,y,z
2 -x,1/2+y,1/2-z
3 -x,-y,-z
4 x,1/2-y,1/2+z
_cell_length_a                   7.347(3)
_cell_length_b                   14.788(6)
_cell_length_c                   7.209(3)
_cell_angle_alpha                90
_cell_angle_beta                 94.676(7)
_cell_angle_gamma                90
_cell_volume                     780.632
loop_
_atom_site_label
_atom_site_type_symbol
_atom_site_fract_x
_atom_site_fract_y
_atom_site_fract_z
Cu1 Cu 0.5000 0.0000 0.0000
O1 O 0.63597(19) 0.11062(9) -0.0326(2)
O2 O 0.3164(2) 0.48334(10) 0.1662(2)
O3 O 0.0659(2) 0.40609(11) 0.1633(2)
N1 N 0.3167(2) 0.08149(12) 0.0902(2)
N2 N 0.2322(3) 0.41068(12) 0.1468(2)
C1 C 0.1577(3) 0.06069(15) 0.1510(3)
H1 H 0.1236 -0.0010 0.1601
C2 C 0.0380(3) 0.12835(15) 0.2025(3)
H2 H -0.0758 0.1121 0.2468
C3 C 0.0842(3) 0.21744(15) 0.1892(3)
H3 H 0.0023 0.2630 0.2239
C4 C 0.2549(3) 0.24215(14) 0.1235(3)
C5 C 0.3313(3) 0.33047(14) 0.1055(3)
C6 C 0.5044(3) 0.34189(15) 0.0464(3)
H4 H 0.5511 0.4015 0.0385
C7 C 0.6125(3) 0.27042(14) -0.0018(3)
H5 H 0.7300 0.2814 -0.0430
C8 C 0.5473(3) 0.18148(14) 0.0107(3)
C9 C 0.3675(3) 0.17005(13) 0.0765(3)
Cu1A Cu 0.5000 0.5000 0.5000
Cu1A_2 Cu 0.5000 -0.5000 -0.5000
O1B O 0.36403(19) -0.11062(9) 0.0326(2)
O2B O 0.6836(2) -0.48334(10) -0.1662(2)
O2A O 0.6836(2) -0.01666(10) 0.3338(2)
O2C O 0.3164(2) 0.01666(10) -0.3338(2)
O3B O 0.9341(2) -0.40609(11) -0.1633(2)
N1B N 0.6833(2) -0.08149(12) -0.0902(2)
N2B N 0.7678(3) -0.41068(12) -0.1468(2)
C1B C 0.8423(3) -0.06069(15) -0.1510(3)
H1B H 0.8764 0.0010 -0.1601
C2B C 0.9620(3) -0.12835(15) -0.2025(3)
H2B H 1.0758 -0.1121 -0.2468
C3B C 0.9158(3) -0.21744(15) -0.1892(3)
H3B H 0.9977 -0.2630 -0.2239
C4B C 0.7451(3) -0.24215(14) -0.1235(3)
C5B C 0.6687(3) -0.33047(14) -0.1055(3)
C6B C 0.4956(3) -0.34189(15) -0.0464(3)
H4B H 0.4489 -0.4015 -0.0385
C7B C 0.3875(3) -0.27042(14) 0.0018(3)
H5B H 0.2700 -0.2814 0.0430
C8B C 0.4527(3) -0.18148(14) -0.0107(3)
C9B C 0.6325(3) -0.17005(13) -0.0765(3)
loop_
_geom_bond_atom_site_label_1
_geom_bond_atom_site_label_2
_geom_bond_site_symmetry_1
_geom_bond_site_symmetry_2
Cu1 O1 1_555 1_555
O1 C8 1_555 1_555
O2 N2 1_555 1_555
O3 N2 1_555 1_555
N1 Cu1 1_555 1_555
N2 C5 1_555 1_555
C1 N1 1_555 1_555
H1 C1 1_555 1_555
C2 C1 1_555 1_555
H2 C2 1_555 1_555
C3 C2 1_555 1_555
H3 C3 1_555 1_555
C4 C3 1_555 1_555
C5 C4 1_555 1_555
C6 C5 1_555 1_555
H4 C6 1_555 1_555
C7 C6 1_555 1_555
H5 C7 1_555 1_555
C8 C7 1_555 1_555
C9 N1 1_555 1_555
Cu1A O2 1_555 1_555
Cu1A_2 O2B 1_555 1_555
O1B Cu1 1_555 1_555
O2B N2B 1_555 1_555
O2A Cu1 1_555 1_555
O2C Cu1 1_555 1_555
O3B N2B 1_555 1_555
N1B Cu1 1_555 1_555
N2B C5B 1_555 1_555
C1B N1B 1_555 1_555
H1B C1B 1_555 1_555
C2B C1B 1_555 1_555
H2B C2B 1_555 1_555
C3B C2B 1_555 1_555
H3B C3B 1_555 1_555
C4B C3B 1_555 1_555
C5B C4B 1_555 1_555
C6B C5B 1_555 1_555
H4B C6B 1_555 1_555
C7B C6B 1_555 1_555
H5B C7B 1_555 1_555
C8B O1B 1_555 1_555
C9B N1B 1_555 1_555
C4 C9 1_555 1_555
C8 C9 1_555 1_555
C4B C9B 1_555 1_555
C7B C8B 1_555 1_555
C8B C9B 1_555 1_555

#END
