
#######################################################################
#
#                 Cambridge Crystallographic Data Centre
#                                CCDC 
#
#######################################################################
#
# If this CIF has been generated from an entry in the Cambridge 
# Structural Database, then it will include bibliographic, chemical, 
# crystal, experimental, refinement or atomic coordinate data resulting 
# from the CCDC's data processing and validation procedures.
#
#######################################################################

data_KESSEI
_symmetry_cell_setting           triclinic
_symmetry_space_group_name_H-M   'P -1'
_symmetry_Int_Tables_number      2
_space_group_name_Hall           '-P 1'
loop_
_symmetry_equiv_pos_site_id
_symmetry_equiv_pos_as_xyz
1 x,y,z
2 -x,-y,-z
_cell_length_a                   10.7210(6)
_cell_length_b                   10.7916(6)
_cell_length_c                   17.0321(9)
_cell_angle_alpha                81.0540(10)
_cell_angle_beta                 81.6280(10)
_cell_angle_gamma                76.7190(10)
_cell_volume                     1882.11
loop_
_atom_site_label
_atom_site_type_symbol
_atom_site_fract_x
_atom_site_fract_y
_atom_site_fract_z
Zn1 Zn 0.12635(2) 0.01209(2) 0.525205(13)
Zn2 Zn 0.31460(3) -0.11847(2) -0.072240(15)
O1 O 0.18654(16) 0.07664(15) 0.40634(9)
O2 O 0.00427(16) 0.03853(16) 0.37569(9)
O3 O 0.21416(17) 0.06002(16) -0.08116(10)
O4 O 0.33591(16) 0.05584(15) 0.01372(10)
O5 O 0.02293(15) 0.19437(14) 0.52932(10)
O6 O -0.16811(15) 0.17078(13) 0.50306(9)
O7 O -0.49002(19) 0.3050(2) 0.18383(13)
O8 O -0.29005(16) 0.18912(17) 0.16596(10)
O9 O 0.50222(19) -0.1258(2) -0.09310(13)
H1 H 0.528(4) -0.175(4) -0.119(3)
H2 H 0.550(4) -0.104(4) -0.063(2)
N1 N 0.27983(17) -0.00281(17) 0.58322(11)
N2 N 0.41427(19) 0.0171(2) 0.66325(11)
N3 N 0.7533(2) 0.3168(2) 0.84923(12)
N4 N 0.7520(2) 0.2136(2) 0.97024(12)
C1 C 0.1077(2) 0.0775(2) 0.35811(12)
C2 C 0.1360(2) 0.1337(2) 0.27243(12)
C3 C 0.0792(2) 0.1020(2) 0.21189(13)
H3 H 0.0285 0.0407 0.2240
C4 C 0.0970(2) 0.1603(2) 0.13404(13)
H4 H 0.0600 0.1362 0.0943
C5 C 0.1702(2) 0.25517(19) 0.11427(12)
C6 C 0.2262(2) 0.2865(2) 0.17521(13)
H5 H 0.2740 0.3502 0.1638
C7 C 0.2121(2) 0.2247(2) 0.25254(13)
H6 H 0.2541 0.2444 0.2916
C8 C 0.1843(2) 0.3228(2) 0.03176(13)
C9 C 0.1638(3) 0.4568(2) 0.01997(16)
H7 H 0.1469 0.5014 0.0642
C10 C 0.1680(3) 0.5245(3) -0.05604(19)
H8 H 0.1560 0.6134 -0.0624
C11 C 0.1898(3) 0.4608(3) -0.12182(17)
H9 H 0.1908 0.5065 -0.1729
C12 C 0.2102(3) 0.3288(3) -0.11217(14)
H10 H 0.2236 0.2861 -0.1571
C13 C 0.2113(2) 0.2581(2) -0.03634(12)
C14 C 0.2564(2) 0.1154(2) -0.03240(12)
C15 C -0.0926(2) 0.23657(19) 0.51646(11)
C16 C -0.1442(2) 0.37797(19) 0.51930(11)
C17 C -0.1002(2) 0.4347(2) 0.57542(13)
H11 H -0.0380 0.3856 0.6068
C18 C -0.1474(2) 0.5623(2) 0.58503(14)
H12 H -0.1180 0.5984 0.6230
C19 C -0.2387(3) 0.6362(2) 0.53791(16)
H13 H -0.2713 0.7221 0.5443
C20 C -0.2815(2) 0.5820(2) 0.48132(15)
H14 H -0.3433 0.6324 0.4501
C21 C -0.2343(2) 0.4536(2) 0.46981(12)
C22 C -0.2733(2) 0.40494(19) 0.40181(12)
C23 C -0.4016(2) 0.4282(2) 0.38769(13)
H15 H -0.4653 0.4736 0.4219
C24 C -0.4358(2) 0.3844(2) 0.32290(14)
H16 H -0.5220 0.4012 0.3140
C25 C -0.3426(2) 0.31610(19) 0.27170(12)
C26 C -0.2144(2) 0.2933(2) 0.28529(12)
H17 H -0.1509 0.2472 0.2513
C27 C -0.1801(2) 0.3383(2) 0.34866(12)
H18 H -0.0935 0.3241 0.3561
C28 C -0.3792(2) 0.2671(2) 0.20232(13)
C29 C 0.3983(2) -0.0801(2) 0.56407(14)
H19 H 0.4176 -0.1329 0.5237
C30 C 0.4817(2) -0.0677(3) 0.61263(16)
H20 H 0.5681 -0.1087 0.6119
C31 C 0.2921(2) 0.0545(2) 0.64451(13)
C32 C 0.4699(3) 0.0628(3) 0.72413(15)
H21 H 0.5248 -0.0095 0.7524
H22 H 0.4010 0.0997 0.7627
C33 C 0.5482(3) 0.1623(3) 0.68795(15)
H23 H 0.4970 0.2287 0.6535
H24 H 0.6241 0.1221 0.6553
C34 C 0.5900(3) 0.2233(3) 0.75170(15)
H25 H 0.5146 0.2751 0.7786
H26 H 0.6284 0.1560 0.7912
C35 C 0.6853(3) 0.3060(3) 0.71793(15)
H27 H 0.6536 0.3613 0.6713
H28 H 0.7661 0.2507 0.7000
C36 C 0.7124(3) 0.3887(3) 0.77429(15)
H29 H 0.7792 0.4331 0.7479
H30 H 0.6351 0.4531 0.7861
C37 C 0.8766(3) 0.2414(3) 0.85634(18)
H31 H 0.9469 0.2362 0.8170
C38 C 0.8747(3) 0.1789(3) 0.92922(18)
H32 H 0.9441 0.1209 0.9500
C39 C 0.6838(3) 0.2954(2) 0.91901(14)
C40 C 0.1869(3) 0.1416(3) 0.68839(18)
H33 H 0.1087 0.1532 0.6643
H34 H 0.2097 0.2231 0.6860
H35 H 0.1740 0.1047 0.7432
C41 C 0.5465(3) 0.3609(3) 0.9382(2)
H36 H 0.5161 0.3304 0.9920
H37 H 0.4948 0.3425 0.9017
H38 H 0.5403 0.4519 0.9333
Zn1A Zn -0.12635(2) -0.01209(2) 0.474795(13)
Zn2A Zn -0.31460(3) 0.11847(2) 0.072240(15)
Zn2A_2 Zn 0.68540(3) 0.11847(2) 1.072240(15)
O2A O -0.00427(16) -0.03853(16) 0.62431(9)
O6A O 0.16811(15) -0.17078(13) 0.49694(9)
O8A O 0.29005(16) -0.18912(17) -0.16596(10)
N4A N 0.2480(2) -0.2136(2) 0.02976(12)
loop_
_geom_bond_atom_site_label_1
_geom_bond_atom_site_label_2
_geom_bond_site_symmetry_1
_geom_bond_site_symmetry_2
Zn1 O1 1_555 1_555
Zn2 O3 1_555 1_555
O1 C1 1_555 1_555
O2 C1 1_555 1_555
O3 C14 1_555 1_555
O4 C14 1_555 1_555
O5 Zn1 1_555 1_555
O6 C15 1_555 1_555
O7 C28 1_555 1_555
O8 C28 1_555 1_555
O9 Zn2 1_555 1_555
H1 O9 1_555 1_555
H2 O9 1_555 1_555
N1 Zn1 1_555 1_555
N2 C30 1_555 1_555
N3 C36 1_555 1_555
N4 C38 1_555 1_555
C1 C2 1_555 1_555
C2 C3 1_555 1_555
C3 H3 1_555 1_555
C4 C3 1_555 1_555
H4 C4 1_555 1_555
C5 C4 1_555 1_555
C6 C5 1_555 1_555
H5 C6 1_555 1_555
C7 C2 1_555 1_555
H6 C7 1_555 1_555
C8 C5 1_555 1_555
C9 C8 1_555 1_555
H7 C9 1_555 1_555
C10 C9 1_555 1_555
H8 C10 1_555 1_555
C11 C10 1_555 1_555
H9 C11 1_555 1_555
C12 C11 1_555 1_555
H10 C12 1_555 1_555
C13 C8 1_555 1_555
C14 C13 1_555 1_555
C15 O5 1_555 1_555
C16 C15 1_555 1_555
C17 C16 1_555 1_555
H11 C17 1_555 1_555
C18 C17 1_555 1_555
H12 C18 1_555 1_555
C19 C18 1_555 1_555
H13 C19 1_555 1_555
C20 C19 1_555 1_555
H14 C20 1_555 1_555
C21 C16 1_555 1_555
C22 C21 1_555 1_555
C23 C22 1_555 1_555
H15 C23 1_555 1_555
C24 C23 1_555 1_555
H16 C24 1_555 1_555
C25 C24 1_555 1_555
C26 C25 1_555 1_555
H17 C26 1_555 1_555
C27 C22 1_555 1_555
H18 C27 1_555 1_555
C28 C25 1_555 1_555
C29 N1 1_555 1_555
H19 C29 1_555 1_555
C30 C29 1_555 1_555
H20 C30 1_555 1_555
C31 N1 1_555 1_555
C32 N2 1_555 1_555
H21 C32 1_555 1_555
H22 C32 1_555 1_555
C33 C32 1_555 1_555
H23 C33 1_555 1_555
H24 C33 1_555 1_555
C34 C33 1_555 1_555
H25 C34 1_555 1_555
H26 C34 1_555 1_555
C35 C34 1_555 1_555
H27 C35 1_555 1_555
H28 C35 1_555 1_555
C36 C35 1_555 1_555
H29 C36 1_555 1_555
H30 C36 1_555 1_555
C37 N3 1_555 1_555
H31 C37 1_555 1_555
C38 C37 1_555 1_555
H32 C38 1_555 1_555
C39 N3 1_555 1_555
C40 C31 1_555 1_555
H33 C40 1_555 1_555
H34 C40 1_555 1_555
H35 C40 1_555 1_555
C41 C39 1_555 1_555
H36 C41 1_555 1_555
H37 C41 1_555 1_555
H38 C41 1_555 1_555
Zn1A O2 1_555 1_555
Zn2A O8 1_555 1_555
Zn2A_2 N4 1_555 1_555
O2A Zn1 1_555 1_555
O6A Zn1 1_555 1_555
O8A Zn2 1_555 1_555
N4A Zn2 1_555 1_555
O6 Zn1A 1_555 1_555
N2 C31 1_555 1_555
N4 C39 1_555 1_555
C6 C7 1_555 1_555
C12 C13 1_555 1_555
C20 C21 1_555 1_555
C26 C27 1_555 1_555

#END
