
#######################################################################
#
#                 Cambridge Crystallographic Data Centre
#                                CCDC 
#
#######################################################################
#
# If this CIF has been generated from an entry in the Cambridge 
# Structural Database, then it will include bibliographic, chemical, 
# crystal, experimental, refinement or atomic coordinate data resulting 
# from the CCDC's data processing and validation procedures.
#
#######################################################################

data_KESSIM
_symmetry_cell_setting           orthorhombic
_symmetry_space_group_name_H-M   'P c a 21'
_symmetry_Int_Tables_number      29
_space_group_name_Hall           'P 2c -2ac'
loop_
_symmetry_equiv_pos_site_id
_symmetry_equiv_pos_as_xyz
1 x,y,z
2 -x,-y,1/2+z
3 1/2-x,y,1/2+z
4 1/2+x,-y,z
_cell_length_a                   13.3469(5)
_cell_length_b                   12.8284(7)
_cell_length_c                   11.4068(5)
_cell_angle_alpha                90
_cell_angle_beta                 90
_cell_angle_gamma                90
_cell_volume                     1953.07
loop_
_atom_site_label
_atom_site_type_symbol
_atom_site_fract_x
_atom_site_fract_y
_atom_site_fract_z
Mn1 Mn 0.29431(3) 0.50012(5) 0.55742(6)
Cl1 Cl 0.50769(10) 0.99336(8) 0.37550(13)
Cl2 Cl 0.21672(11) -0.04435(9) 0.68749(14)
O1 O 0.40524(17) 0.55995(19) 0.4840(2)
O2 O 0.36226(17) 0.3752(2) 0.5819(2)
N1 N 0.2142(2) 0.6293(2) 0.5341(2)
N2 N 0.1718(2) 0.4455(2) 0.6382(2)
N3 N 0.3382(2) 0.5603(3) 0.7438(3)
N4 N 0.3065(2) 0.5038(3) 0.8163(2)
N5 N 0.2734(2) 0.4450(3) 0.8869(3)
C1 C 0.4215(3) 0.6596(3) 0.4606(3)
C2 C 0.5208(3) 0.6868(3) 0.4311(3)
H1 H 0.5709 0.6342 0.4293
C3 C 0.5466(3) 0.7883(3) 0.4047(3)
H2 H 0.6139 0.8055 0.3857
C4 C 0.4740(3) 0.8642(3) 0.4063(4)
C5 C 0.3753(3) 0.8401(3) 0.4312(4)
H3 H 0.3262 0.8937 0.4305
C6 C 0.3467(3) 0.7374(3) 0.4576(3)
C7 C 0.2404(3) 0.7142(3) 0.4807(3)
C8 C 0.1076(2) 0.6099(3) 0.5632(4)
H4 H 0.0721 0.5823 0.4936
H5 H 0.0750 0.6760 0.5867
C9 C 0.1017(2) 0.5322(3) 0.6623(3)
H6 H 0.1198 0.5664 0.7371
H7 H 0.0325 0.5051 0.6692
C10 C 0.1629(3) 0.7907(3) 0.4384(4)
H8 H 0.1048 0.7527 0.4078
H9 H 0.1916 0.8341 0.3762
H10 H 0.1418 0.8351 0.5038
C11 C 0.1590(2) 0.3548(3) 0.6844(3)
C12 C 0.2270(3) 0.2679(3) 0.6568(3)
C13 C 0.1965(3) 0.1646(3) 0.6816(4)
H11 H 0.1328 0.1528 0.7163
C14 C 0.2565(3) 0.0820(3) 0.6567(4)
C15 C 0.3512(3) 0.0953(3) 0.6067(4)
H12 H 0.3930 0.0370 0.5907
C16 C 0.3822(3) 0.1949(3) 0.5813(3)
H13 H 0.4459 0.2045 0.5459
C17 C 0.3231(3) 0.2834(3) 0.6057(3)
C18 C 0.0725(3) 0.3356(4) 0.7662(4)
H14 H 0.0605 0.3981 0.8135
H15 H 0.0884 0.2768 0.8179
H16 H 0.0123 0.3194 0.7205
Mn1B Mn 0.20569(3) 0.50012(5) 1.05742(6)
N5B N 0.2266(2) 0.4450(3) 0.3869(3)
loop_
_geom_bond_atom_site_label_1
_geom_bond_atom_site_label_2
_geom_bond_site_symmetry_1
_geom_bond_site_symmetry_2
Mn1 O1 1_555 1_555
Cl1 C4 1_555 1_555
Cl2 C14 1_555 1_555
O1 C1 1_555 1_555
O2 Mn1 1_555 1_555
N1 Mn1 1_555 1_555
N2 Mn1 1_555 1_555
N3 Mn1 1_555 1_555
N4 N3 1_555 1_555
N5 N4 1_555 1_555
C1 C2 1_555 1_555
C2 H1 1_555 1_555
C3 C2 1_555 1_555
H2 C3 1_555 1_555
C4 C3 1_555 1_555
C5 C4 1_555 1_555
H3 C5 1_555 1_555
C6 C1 1_555 1_555
C7 N1 1_555 1_555
C8 N1 1_555 1_555
H4 C8 1_555 1_555
H5 C8 1_555 1_555
C9 N2 1_555 1_555
H6 C9 1_555 1_555
H7 C9 1_555 1_555
C10 C7 1_555 1_555
H8 C10 1_555 1_555
H9 C10 1_555 1_555
H10 C10 1_555 1_555
C11 N2 1_555 1_555
C12 C11 1_555 1_555
C13 C12 1_555 1_555
H11 C13 1_555 1_555
C14 C13 1_555 1_555
C15 C14 1_555 1_555
H12 C15 1_555 1_555
C16 C15 1_555 1_555
H13 C16 1_555 1_555
C17 O2 1_555 1_555
C18 C11 1_555 1_555
H14 C18 1_555 1_555
H15 C18 1_555 1_555
H16 C18 1_555 1_555
Mn1B N5 1_555 1_555
N5B Mn1 1_555 1_555
C5 C6 1_555 1_555
C6 C7 1_555 1_555
C8 C9 1_555 1_555
C12 C17 1_555 1_555
C16 C17 1_555 1_555

#END
