
#######################################################################
#
#                 Cambridge Crystallographic Data Centre
#                                CCDC 
#
#######################################################################
#
# If this CIF has been generated from an entry in the Cambridge 
# Structural Database, then it will include bibliographic, chemical, 
# crystal, experimental, refinement or atomic coordinate data resulting 
# from the CCDC's data processing and validation procedures.
#
#######################################################################

data_KESSAD
_symmetry_cell_setting           tetragonal
_symmetry_space_group_name_H-M   'P 43 21 2'
_symmetry_Int_Tables_number      96
_space_group_name_Hall           'P 4nw 2abw'
loop_
_symmetry_equiv_pos_site_id
_symmetry_equiv_pos_as_xyz
1 x,y,z
2 -x,-y,1/2+z
3 1/2-y,1/2+x,3/4+z
4 1/2+y,1/2-x,1/4+z
5 1/2-x,1/2+y,3/4-z
6 1/2+x,1/2-y,1/4-z
7 y,x,-z
8 -y,-x,1/2-z
_cell_length_a                   12.2098(10)
_cell_length_b                   12.2098(10)
_cell_length_c                   35.803(4)
_cell_angle_alpha                90
_cell_angle_beta                 90
_cell_angle_gamma                90
_cell_volume                     5337.48
loop_
_atom_site_label
_atom_site_type_symbol
_atom_site_fract_x
_atom_site_fract_y
_atom_site_fract_z
Cu1 Cu 0.41612(12) 0.90360(12) 0.97433(3)
Cu2 Cu 0.48193(11) 0.92674(10) 0.90359(3)
Br1 Br 0.28285(8) 0.93308(9) 0.92098(2)
Br2 Br 0.60917(9) 0.92891(12) 0.95899(3)
N1 N 0.3680(7) 1.0167(7) 1.01325(19)
N2 N 0.3800(9) 1.7550(9) 0.9955(2)
N3 N 0.5149(7) 0.7779(6) 0.88053(19)
N4 N 0.5137(7) 0.0539(6) 0.86953(19)
C1 C 0.4396(9) 1.0802(11) 1.0311(3)
H1 H 0.5155 1.0650 1.0285
C2 C 0.4089(9) 1.1649(9) 1.0528(2)
H2 H 0.4639 1.2066 1.0650
C3 C 0.3012(8) 1.1934(9) 1.0579(2)
C4 C 0.2282(9) 1.1230(8) 1.0405(2)
H3 H 0.1518 1.1329 1.0443
C5 C 0.2632(9) 1.0406(9) 1.0184(2)
H4 H 0.2099 0.9975 1.0058
C6 C 0.2708(10) 1.2921(10) 1.0794(3)
H5 H 0.3141 1.2965 1.1028
H6 H 0.1920 1.2904 1.0860
C7 C 0.2804(19) 1.4927(19) 1.0676(5)
H7 H 0.3291 1.5045 1.0893
H8 H 0.2035 1.5005 1.0760
C8 C 0.2967(17) 1.3941(14) 1.0532(5)
H9 H 0.3742 1.3892 1.0453
H10 H 0.2511 1.3875 1.0304
C9 C 0.307(2) 1.578(2) 1.0358(6)
C10 C 0.421(2) 1.611(2) 1.0342(6)
H11 H 0.4741 1.5721 1.0485
C11 C 0.4526(16) 1.6966(16) 1.0120(5)
H12 H 0.5281 1.7128 1.0088
C12 C 0.2752(13) 1.7286(11) 0.9999(4)
H13 H 0.2230 1.7742 0.9879
C13 C 0.2358(14) 1.6440(13) 1.0197(3)
H14 H 0.1592 1.6319 1.0219
C14 C 0.6003(8) 0.7631(8) 0.8595(3)
H15 H 0.6442 0.8250 0.8535
C15 C 0.6313(8) 0.6617(9) 0.8451(3)
H16 H 0.6923 0.6563 0.8287
C16 C 0.5733(8) 0.5693(8) 0.8546(2)
C17 C 0.4808(9) 0.5847(8) 0.8765(2)
H17 H 0.4359 0.5242 0.8830
C18 C 0.4542(9) 0.6897(8) 0.8889(2)
H18 H 0.3906 0.6991 0.9038
C19 C 0.6036(9) 0.4590(8) 0.8406(2)
H19 H 0.5881 0.4041 0.8602
H20 H 0.6833 0.4573 0.8355
C20 C 0.5423(8) 0.4277(8) 0.8053(2)
H21 H 0.5562 0.4834 0.7858
H22 H 0.4627 0.4270 0.8106
C21 C 0.5777(10) 0.3137(8) 0.7907(2)
H23 H 0.5386 0.2982 0.7670
H24 H 0.6572 0.3148 0.7852
C22 C 0.5537(8) 0.2224(8) 0.8186(2)
C23 C 0.6379(9) 0.1628(10) 0.8335(3)
H25 H 0.7117 0.1790 0.8272
C24 C 0.6143(9) 0.0808(9) 0.8574(3)
H26 H 0.6739 0.0383 0.8664
C25 C 0.4323(8) 0.1138(8) 0.8550(2)
H27 H 0.3591 0.0978 0.8622
C26 C 0.4507(8) 0.1979(9) 0.8301(2)
H28 H 0.3905 0.2391 0.8208
Cu1_2 Cu 0.41612(12) 1.90360(12) 0.97433(3)
Cu2_2 Cu 0.48193(11) -0.07326(10) 0.90359(3)
N2_2 N 0.3800(9) 0.7550(9) 0.9955(2)
N4_2 N 0.5137(7) 1.0539(6) 0.86953(19)
loop_
_geom_bond_atom_site_label_1
_geom_bond_atom_site_label_2
_geom_bond_site_symmetry_1
_geom_bond_site_symmetry_2
Cu1 Br1 1_555 1_555
Cu2 Br1 1_555 1_555
Br2 Cu1 1_555 1_555
N1 Cu1 1_555 1_555
N2 C11 1_555 1_555
N3 Cu2 1_555 1_555
N4 C24 1_555 1_555
C1 N1 1_555 1_555
H1 C1 1_555 1_555
C2 C1 1_555 1_555
H2 C2 1_555 1_555
C3 C2 1_555 1_555
C4 C3 1_555 1_555
H3 C4 1_555 1_555
C5 N1 1_555 1_555
H4 C5 1_555 1_555
C6 C3 1_555 1_555
H5 C6 1_555 1_555
H6 C6 1_555 1_555
C7 H7 1_555 1_555
H8 C7 1_555 1_555
C8 C6 1_555 1_555
H9 C8 1_555 1_555
H10 C8 1_555 1_555
C9 C7 1_555 1_555
C10 C9 1_555 1_555
H11 C10 1_555 1_555
C11 C10 1_555 1_555
H12 C11 1_555 1_555
C12 N2 1_555 1_555
H13 C12 1_555 1_555
C13 C9 1_555 1_555
H14 C13 1_555 1_555
C14 N3 1_555 1_555
H15 C14 1_555 1_555
C15 C14 1_555 1_555
H16 C15 1_555 1_555
C16 C15 1_555 1_555
C17 C16 1_555 1_555
H17 C17 1_555 1_555
C18 N3 1_555 1_555
H18 C18 1_555 1_555
C19 C16 1_555 1_555
H19 C19 1_555 1_555
H20 C19 1_555 1_555
C20 C19 1_555 1_555
H21 C20 1_555 1_555
H22 C20 1_555 1_555
C21 C20 1_555 1_555
H23 C21 1_555 1_555
H24 C21 1_555 1_555
C22 C21 1_555 1_555
C23 C22 1_555 1_555
H25 C23 1_555 1_555
C24 C23 1_555 1_555
H26 C24 1_555 1_555
C25 N4 1_555 1_555
H27 C25 1_555 1_555
C26 C22 1_555 1_555
H28 C26 1_555 1_555
Cu1_2 N2 1_555 1_555
Cu2_2 N4 1_555 1_555
N2_2 Cu1 1_555 1_555
N4_2 Cu2 1_555 1_555
Cu2 Br2 1_555 1_555
C4 C5 1_555 1_555
C7 C8 1_555 1_555
C12 C13 1_555 1_555
C17 C18 1_555 1_555
C25 C26 1_555 1_555

#END
