
#######################################################################
#
#                 Cambridge Crystallographic Data Centre
#                                CCDC 
#
#######################################################################
#
# If this CIF has been generated from an entry in the Cambridge 
# Structural Database, then it will include bibliographic, chemical, 
# crystal, experimental, refinement or atomic coordinate data resulting 
# from the CCDC's data processing and validation procedures.
#
#######################################################################

data_KESTIN
_symmetry_cell_setting           monoclinic
_symmetry_space_group_name_H-M   'P 21/n'
_symmetry_Int_Tables_number      14
_space_group_name_Hall           '-P 2yn'
loop_
_symmetry_equiv_pos_site_id
_symmetry_equiv_pos_as_xyz
1 x,y,z
2 1/2-x,1/2+y,1/2-z
3 -x,-y,-z
4 1/2+x,1/2-y,1/2+z
_cell_length_a                   10.0679(8)
_cell_length_b                   18.8408(15)
_cell_length_c                   18.8349(15)
_cell_angle_alpha                90
_cell_angle_beta                 100.538(2)
_cell_angle_gamma                90
_cell_volume                     3512.48
loop_
_atom_site_label
_atom_site_type_symbol
_atom_site_fract_x
_atom_site_fract_y
_atom_site_fract_z
C1 C 0.5513(5) -0.1246(3) 0.7737(3)
C2 C 0.5573(7) -0.0852(3) 0.7133(3)
H1 H 0.5798 -0.1074 0.6730
C3 C 0.5304(8) -0.0128(3) 0.7109(3)
H2 H 0.5382 0.0130 0.6697
C4 C 0.4927(5) 0.0205(3) 0.7681(3)
C5 C 0.4809(6) -0.0192(3) 0.8273(3)
H3 H 0.4525 0.0024 0.8663
C6 C 0.5101(6) -0.0903(3) 0.8304(3)
H4 H 0.5018 -0.1159 0.8716
C7 C 0.5910(5) -0.2019(3) 0.7779(3)
C8 C 0.4666(5) 0.0996(3) 0.7660(3)
H5 H 0.4774 0.1181 0.7193
H6 H 0.3741 0.1083 0.7716
C9 C 0.5369(5) 0.1560(2) 0.8903(3)
C10 C 0.4256(5) 0.1507(3) 0.9236(3)
H7 H 0.3456 0.1297 0.9005
C11 C 0.4387(6) 0.1776(3) 0.9920(3)
H8 H 0.3656 0.1752 1.0158
C12 C 0.5589(6) 0.2086(3) 1.0269(3)
H9 H 0.5642 0.2261 1.0735
C13 C 0.6690(6) 0.2137(3) 0.9942(3)
H10 H 0.7489 0.2344 1.0179
C14 C 0.6582(5) 0.1872(2) 0.9246(3)
C15 C 0.6850(5) 0.1568(3) 0.8187(3)
H11 H 0.7232 0.1498 0.7779
C16 C 1.1880(5) 0.5855(3) 0.9956(3)
C17 C 1.2272(6) 0.5609(3) 0.9342(3)
H12 H 1.2043 0.5865 0.8915
C18 C 1.2998(6) 0.4989(3) 0.9343(3)
H13 H 1.3247 0.4831 0.8918
C19 C 1.3360(5) 0.4602(3) 0.9968(3)
C20 C 1.2988(6) 0.4852(3) 1.0585(3)
H14 H 1.3215 0.4596 1.1013
C21 C 1.2279(6) 0.5478(3) 1.0580(3)
H15 H 1.2069 0.5649 1.1009
C22 C 1.1026(6) 0.6523(3) 0.9947(4)
C23 C 1.4102(6) 0.3904(3) 0.9968(3)
H16 H 1.4997 0.3989 0.9864
H17 H 1.4202 0.3687 1.0442
C24 C 1.3651(5) 0.3252(3) 0.8762(3)
C25 C 1.4777(7) 0.3363(3) 0.8456(4)
H18 H 1.5528 0.3605 0.8701
C26 C 1.4741(7) 0.3102(4) 0.7774(4)
H19 H 1.5487 0.3164 0.7554
C27 C 1.3618(7) 0.2747(3) 0.7405(4)
H20 H 1.3617 0.2589 0.6937
C28 C 1.2506(6) 0.2622(3) 0.7715(3)
H21 H 1.1761 0.2377 0.7467
C29 C 1.2529(5) 0.2873(3) 0.8408(3)
C30 C 1.2133(5) 0.3157(3) 0.9450(3)
H22 H 1.1713 0.3209 0.9847
C31 C 1.0617(6) 0.1700(3) 1.0475(3)
H23 H 1.0302 0.2133 1.0613
C32 C 1.1216(6) 0.1233(4) 1.1013(3)
H24 H 1.1300 0.1355 1.1498
C33 C 1.1677(6) 0.0597(3) 1.0821(4)
H25 H 1.2066 0.0277 1.1174
C34 C 1.1564(5) 0.0427(3) 1.0094(3)
C35 C 1.2038(6) -0.0224(3) 0.9849(4)
H26 H 1.2445 -0.0555 1.0186
C36 C 1.1913(6) -0.0371(3) 0.9147(4)
H27 H 1.2236 -0.0800 0.9003
C37 C 1.1292(6) 0.0120(3) 0.8615(4)
C38 C 1.1146(7) 0.0003(4) 0.7875(4)
H28 H 1.1464 -0.0417 0.7706
C39 C 1.0547(7) 0.0494(4) 0.7401(4)
H29 H 1.0434 0.0412 0.6907
C40 C 1.0099(6) 0.1128(3) 0.7661(3)
H30 H 0.9699 0.1466 0.7330
C41 C 1.0805(5) 0.0775(3) 0.8831(3)
C42 C 1.0942(5) 0.0928(3) 0.9586(3)
Mn1 Mn 0.95409(7) 0.23319(4) 0.88385(4)
N1 N 0.7499(4) 0.1865(2) 0.8780(2)
N2 N 0.5581(4) 0.1373(2) 0.8227(2)
N3 N 1.1580(4) 0.2816(2) 0.8864(2)
N4 N 1.3357(4) 0.3424(2) 0.9425(2)
N5 N 1.0474(4) 0.1561(2) 0.9782(2)
N6 N 1.0220(4) 0.1267(2) 0.8353(2)
O1 O 0.6004(5) -0.2314(2) 0.8373(2)
O2 O 0.6139(4) -0.2311(2) 0.7222(2)
O3 O 1.0953(4) 0.6796(2) 1.0544(2)
O4 O 1.0481(5) 0.6746(3) 0.9338(3)
Mn1A Mn 0.54591(7) -0.26681(4) 0.61615(4)
Mn1B Mn 1.04591(7) 0.76681(4) 1.11615(4)
O2A O 0.8861(4) 0.2689(2) 0.7778(2)
O3B O 0.9047(4) 0.3204(2) 0.9456(2)
O5 O 0.7835(5) 0.6557(2) 0.8535(3)
H31 H 0.7393 0.6943 0.8489
H32 H 0.8614 0.6636 0.8782
loop_
_geom_bond_atom_site_label_1
_geom_bond_atom_site_label_2
_geom_bond_site_symmetry_1
_geom_bond_site_symmetry_2
C1 C2 1_555 1_555
C2 H1 1_555 1_555
C3 C2 1_555 1_555
H2 C3 1_555 1_555
C4 C3 1_555 1_555
C5 C4 1_555 1_555
H3 C5 1_555 1_555
C6 C1 1_555 1_555
H4 C6 1_555 1_555
C7 C1 1_555 1_555
C8 C4 1_555 1_555
H5 C8 1_555 1_555
H6 C8 1_555 1_555
C9 C10 1_555 1_555
C10 H7 1_555 1_555
C11 C10 1_555 1_555
H8 C11 1_555 1_555
C12 C11 1_555 1_555
H9 C12 1_555 1_555
C13 C12 1_555 1_555
H10 C13 1_555 1_555
C14 C9 1_555 1_555
C15 H11 1_555 1_555
C16 C17 1_555 1_555
C17 H12 1_555 1_555
C18 C17 1_555 1_555
H13 C18 1_555 1_555
C19 C18 1_555 1_555
C20 C19 1_555 1_555
H14 C20 1_555 1_555
C21 C16 1_555 1_555
H15 C21 1_555 1_555
C22 C16 1_555 1_555
C23 C19 1_555 1_555
H16 C23 1_555 1_555
H17 C23 1_555 1_555
C24 C25 1_555 1_555
C25 H18 1_555 1_555
C26 C25 1_555 1_555
H19 C26 1_555 1_555
C27 C26 1_555 1_555
H20 C27 1_555 1_555
C28 C27 1_555 1_555
H21 C28 1_555 1_555
C29 C24 1_555 1_555
C30 H22 1_555 1_555
C31 H23 1_555 1_555
C32 C31 1_555 1_555
H24 C32 1_555 1_555
C33 C32 1_555 1_555
H25 C33 1_555 1_555
C34 C33 1_555 1_555
C35 C34 1_555 1_555
H26 C35 1_555 1_555
C36 C35 1_555 1_555
H27 C36 1_555 1_555
C37 C36 1_555 1_555
C38 C37 1_555 1_555
H28 C38 1_555 1_555
C39 C38 1_555 1_555
H29 C39 1_555 1_555
C40 C39 1_555 1_555
H30 C40 1_555 1_555
C41 C37 1_555 1_555
C42 C34 1_555 1_555
Mn1 N1 1_555 1_555
N1 C14 1_555 1_555
N2 C8 1_555 1_555
N3 C29 1_555 1_555
N4 C23 1_555 1_555
N5 C31 1_555 1_555
N6 C40 1_555 1_555
O1 C7 1_555 1_555
O2 C7 1_555 1_555
O3 C22 1_555 1_555
O4 C22 1_555 1_555
O5 H31 1_555 1_555
H32 O5 1_555 1_555
Mn1A O2 1_555 1_555
Mn1B O3 1_555 1_555
O2A Mn1 1_555 1_555
O3B Mn1 1_555 1_555
C5 C6 1_555 1_555
C9 N2 1_555 1_555
C13 C14 1_555 1_555
C15 N1 1_555 1_555
C15 N2 1_555 1_555
C20 C21 1_555 1_555
C24 N4 1_555 1_555
C28 C29 1_555 1_555
C30 N3 1_555 1_555
C30 N4 1_555 1_555
C41 C42 1_555 1_555
C41 N6 1_555 1_555
C42 N5 1_555 1_555
Mn1 N3 1_555 1_555
Mn1 N5 1_555 1_555
Mn1 N6 1_555 1_555

#END
