
#######################################################################
#
#                 Cambridge Crystallographic Data Centre
#                                CCDC 
#
#######################################################################
#
# If this CIF has been generated from an entry in the Cambridge 
# Structural Database, then it will include bibliographic, chemical, 
# crystal, experimental, refinement or atomic coordinate data resulting 
# from the CCDC's data processing and validation procedures.
#
#######################################################################

data_KESTEI
_symmetry_cell_setting           monoclinic
_symmetry_space_group_name_H-M   'C 2/m'
_symmetry_Int_Tables_number      12
_space_group_name_Hall           '-C 2y'
loop_
_symmetry_equiv_pos_site_id
_symmetry_equiv_pos_as_xyz
1 x,y,z
2 1/2+x,1/2+y,z
3 -x,y,-z
4 1/2-x,1/2+y,-z
5 -x,-y,-z
6 1/2-x,1/2-y,-z
7 x,-y,z
8 1/2+x,1/2-y,z
_cell_length_a                   31.290(6)
_cell_length_b                   19.372(4)
_cell_length_c                   17.489(3)
_cell_angle_alpha                90.00
_cell_angle_beta                 117.475(3)
_cell_angle_gamma                90.00
_cell_volume                     9405.3
loop_
_atom_site_label
_atom_site_type_symbol
_atom_site_fract_x
_atom_site_fract_y
_atom_site_fract_z
Cl3 Cl 0.05920(6) 0.5000 0.14970(13)
Cl4 Cl 0.36188(4) 0.24933(7) -0.16152(9)
O15 O 0.4371(3) 0.3672(5) -0.1291(7)
O17 O 0.03356(17) 0.1670(3) 0.6456(4)
O18 O 0.0000 0.3922(3) 0.0000
O19 O 0.0621(2) 0.3439(4) 0.2092(6)
O20 O 0.44474(14) 0.2122(2) 0.0191(3)
O21 O 0.0660(8) 0.2358(18) 0.2143(14)
O22 O 0.4401(3) 0.5000 -0.0345(7)
O23 O 0.4829(3) 0.3230(4) 0.1139(5)
O24 O 0.4983(3) 0.2153(4) 0.5747(7)
O25 O 0.5000 0.0000 0.5000
O26 O 0.0618(4) 0.3384(5) 0.3674(7)
K1 K 0.37198(6) 0.0000 0.36668(11)
K2 K 0.26751(5) 0.0000 -0.03041(9)
K3 K 0.12748(5) 0.0000 0.66039(8)
K4 K 0.22818(4) 0.0000 0.43691(8)
Cl1 Cl 0.31813(7) 0.0000 0.16653(11)
Cl2 Cl 0.17942(6) 0.0000 0.55040(11)
O1 O 0.28257(13) 0.0000 0.3491(2)
O2 O 0.23924(10) 0.13471(14) -0.03975(17)
O3 O 0.34053(10) 0.13464(15) 0.35326(17)
O4 O 0.43736(11) 0.07983(16) 0.35086(18)
O5 O 0.17976(14) 0.0000 -0.0397(2)
O6 O 0.33560(10) 0.08153(15) -0.03925(17)
O7 O 0.16020(10) 0.08202(15) -0.68169(17)
O8 O 0.21506(14) 0.0000 -0.2078(2)
O9 O 0.06026(10) 0.08399(14) -0.45503(17)
O10 O 0.15667(10) 0.13606(15) -0.29888(17)
O11 O 0.25671(10) 0.13407(14) -0.52602(17)
O12 O 0.31868(14) 0.0000 -0.4280(2)
O13 O 0.0763(2) 0.1537(4) 0.8222(5)
N1 N 0.22478(12) 0.05665(17) 0.2322(2)
N2 N 0.45162(12) 0.06204(18) 0.2351(2)
N3 N 0.40963(13) 0.15369(17) 0.2358(2)
N4 N 0.36754(12) 0.15315(18) 0.0790(2)
N5 N 0.29397(12) 0.19584(17) 0.0762(2)
N6 N 0.17987(12) 0.05708(17) 0.0756(2)
N7 N 0.26778(12) 0.16275(17) 0.2377(2)
N8 N 0.40970(12) 0.06264(17) 0.0771(2)
N9 N 0.33531(12) 0.19056(17) 0.2340(2)
N10 N 0.22859(12) 0.15572(16) 0.0799(2)
N11 N 0.26816(12) 0.15653(16) -0.3884(2)
N12 N 0.04797(11) 0.06195(17) -0.5927(2)
N13 N 0.12859(12) 0.15406(17) -0.6165(2)
N14 N 0.27231(11) 0.05700(17) -0.2315(2)
N15 N 0.08677(11) 0.15695(17) -0.5281(2)
N16 N 0.22923(12) 0.16322(17) -0.2952(2)
N17 N 0.08656(12) 0.06273(18) -0.6860(2)
N18 N 0.16188(11) 0.19433(17) -0.4088(2)
N19 N 0.31689(11) 0.05669(17) -0.3144(2)
N20 N 0.20262(12) 0.19693(17) -0.4993(2)
N21 N 0.1288(4) 0.0631(7) 0.8076(6)
C1 C 0.4792(2) 0.0000 0.2646(4)
H1 H 0.5044 0.0000 0.2453
H2 H 0.4957 0.0000 0.3284
C2 C 0.38644(15) 0.2024(2) 0.2673(3)
H3 H 0.3915 0.2496 0.2513
H4 H 0.4020 0.1999 0.3310
C3 C 0.41234(14) 0.1614(2) 0.1559(2)
H5 H 0.4288 0.2054 0.1548
C4 C 0.29855(14) 0.22249(19) 0.1567(2)
H6 H 0.3015 0.2739 0.1593
C5 C 0.44176(14) 0.0978(2) 0.1552(2)
H7 H 0.4723 0.1117 0.1541
C6 C 0.43285(14) 0.0963(2) 0.2803(3)
C7 C 0.23707(14) 0.1257(2) 0.2661(2)
H8 H 0.2537 0.1233 0.3298
H9 H 0.2070 0.1523 0.2485
C8 C 0.33004(15) 0.2041(2) 0.0468(3)
H10 H 0.3139 0.2024 -0.0169
H11 H 0.3449 0.2503 0.0644
C9 C 0.36760(14) 0.0971(2) 0.0321(2)
C10 C 0.42127(19) 0.0000 0.0460(3)
H12 H 0.4037 0.0000 -0.0178
H13 H 0.4562 0.0000 0.0631
C11 C 0.25111(14) 0.19827(19) 0.1567(2)
H14 H 0.2302 0.2385 0.1532
C12 C 0.18092(14) 0.1259(2) 0.0465(3)
H15 H 0.1610 0.1559 0.0633
H16 H 0.1660 0.1257 -0.0172
C13 C 0.18082(13) 0.0402(2) 0.1566(2)
H17 H 0.1521 0.0592 0.1602
C14 C 0.25287(14) 0.15868(19) 0.0316(2)
C15 C 0.24824(19) 0.0000 0.2778(3)
C16 C 0.18029(19) 0.0000 0.0308(3)
C17 C 0.31691(14) 0.15912(19) 0.2813(2)
C18 C 0.11117(14) 0.2068(2) -0.4596(3)
H18 H 0.1066 0.2534 -0.4854
H19 H 0.0959 0.2064 -0.4211
C19 C 0.05475(13) 0.0964(2) -0.6595(2)
H20 H 0.0232 0.1081 -0.7100
C20 C 0.19912(14) 0.22409(19) -0.4258(2)
H21 H 0.1972 0.2756 -0.4277
C21 C 0.08351(14) 0.1627(2) -0.6133(2)
H22 H 0.0663 0.2057 -0.6434
C22 C 0.06511(13) 0.0995(2) -0.5186(2)
C23 C 0.02030(19) 0.0000 -0.6054(3)
H23 H -0.0067 0.0000 -0.6647
H24 H 0.0063 0.0000 -0.5650
C24 C 0.31581(13) 0.1267(2) -0.3441(2)
H25 H 0.3306 0.1272 -0.3835
H26 H 0.3358 0.1561 -0.2939
C25 C 0.16606(14) 0.2052(2) -0.5878(2)
H27 H 0.1512 0.2514 -0.5943
H28 H 0.1818 0.2036 -0.6256
C26 C 0.12843(14) 0.0969(2) -0.6632(2)
C27 C 0.07500(19) 0.0000 -0.7371(3)
H29 H 0.0928 0.0000 -0.7714
H30 H 0.0402 0.0000 -0.7780
C28 C 0.24614(14) 0.19863(19) -0.3481(2)
H31 H 0.2674 0.2383 -0.3164
C29 C 0.31726(18) 0.0000 -0.3584(3)
C30 C 0.24345(14) 0.15925(19) -0.4765(2)
C31 C 0.25992(14) 0.1261(2) -0.2171(2)
H32 H 0.2900 0.1528 -0.1849
H33 H 0.2435 0.1232 -0.1806
C32 C 0.24908(19) 0.0000 -0.2236(3)
C33 C 0.31621(13) 0.04012(19) -0.2345(2)
H34 H 0.3450 0.0592 -0.1836
C34 C 0.18038(14) 0.16111(19) -0.3314(2)
C35 C 0.1161(3) 0.1377(6) 0.8232(6)
O14 O 0.36731(15) 0.0875(3) 0.5126(3)
K1_2 K 0.37198(6) 0.0000 1.36668(11)
K2_2 K 0.26751(5) 0.0000 0.96959(9)
K3_2 K 0.12748(5) 0.0000 -0.33961(8)
K4_2 K 0.22818(4) 0.0000 -0.56309(8)
K4_3 K 0.22818(4) 0.0000 1.43691(8)
Cl1_2 Cl 0.31813(7) 0.0000 1.16653(11)
Cl2_2 Cl 0.17942(6) 0.0000 -0.44960(11)
O1_2 O 0.28257(13) 0.0000 1.3491(2)
O1_3 O 0.28257(13) 0.0000 -0.6509(2)
O2F O 0.23924(10) -0.13471(14) -0.03975(17)
O2_2 O 0.23924(10) 0.13471(14) 0.96025(17)
O2F_2 O 0.23924(10) -0.13471(14) 0.96025(17)
O3F O 0.34053(10) -0.13464(15) 0.35326(17)
O3_2 O 0.34053(10) 0.13464(15) 1.35326(17)
O3F_2 O 0.34053(10) -0.13464(15) 1.35326(17)
O4F O 0.43736(11) -0.07983(16) 0.35086(18)
O4_2 O 0.43736(11) 0.07983(16) 1.35086(18)
O4F_2 O 0.43736(11) -0.07983(16) 1.35086(18)
O5_2 O 0.17976(14) 0.0000 0.9603(2)
O6F O 0.33560(10) -0.08153(15) -0.03925(17)
O6_2 O 0.33560(10) 0.08153(15) 0.96075(17)
O6F_2 O 0.33560(10) -0.08153(15) 0.96075(17)
O7F O 0.16020(10) -0.08202(15) -0.68169(17)
O7_2 O 0.16020(10) 0.08202(15) 0.31831(17)
O7F_2 O 0.16020(10) -0.08202(15) 0.31831(17)
O8_2 O 0.21506(14) 0.0000 0.7922(2)
O9F O 0.06026(10) -0.08399(14) -0.45503(17)
O9_2 O 0.06026(10) 0.08399(14) 0.54497(17)
O9F_2 O 0.06026(10) -0.08399(14) 0.54497(17)
O10F O 0.15667(10) -0.13606(15) -0.29888(17)
O10_2 O 0.15667(10) 0.13606(15) 0.70112(17)
O10F_2 O 0.15667(10) -0.13606(15) 0.70112(17)
O11F O 0.25671(10) -0.13407(14) -0.52602(17)
O11_2 O 0.25671(10) 0.13407(14) 0.47398(17)
O11F_2 O 0.25671(10) -0.13407(14) 0.47398(17)
O12_2 O 0.31868(14) 0.0000 0.5720(2)
O13F O 0.0763(2) -0.1537(4) 0.8222(5)
O13_2 O 0.0763(2) 0.1537(4) -0.1778(5)
O13F_2 O 0.0763(2) -0.1537(4) -0.1778(5)
N1F N 0.22478(12) -0.05665(17) 0.2322(2)
N1_2 N 0.22478(12) 0.05665(17) 1.2322(2)
N1F_2 N 0.22478(12) -0.05665(17) 1.2322(2)
N2F N 0.45162(12) -0.06204(18) 0.2351(2)
N2_2 N 0.45162(12) 0.06204(18) 1.2351(2)
N2F_2 N 0.45162(12) -0.06204(18) 1.2351(2)
N3F N 0.40963(13) -0.15369(17) 0.2358(2)
N3_2 N 0.40963(13) 0.15369(17) 1.2358(2)
N3F_2 N 0.40963(13) -0.15369(17) 1.2358(2)
N4F N 0.36754(12) -0.15315(18) 0.0790(2)
N4_2 N 0.36754(12) 0.15315(18) 1.0790(2)
N4F_2 N 0.36754(12) -0.15315(18) 1.0790(2)
N5F N 0.29397(12) -0.19584(17) 0.0762(2)
N5_2 N 0.29397(12) 0.19584(17) 1.0762(2)
N5F_2 N 0.29397(12) -0.19584(17) 1.0762(2)
N6F N 0.17987(12) -0.05708(17) 0.0756(2)
N6_2 N 0.17987(12) 0.05708(17) 1.0756(2)
N6F_2 N 0.17987(12) -0.05708(17) 1.0756(2)
N7F N 0.26778(12) -0.16275(17) 0.2377(2)
N7_2 N 0.26778(12) 0.16275(17) 1.2377(2)
N7F_2 N 0.26778(12) -0.16275(17) 1.2377(2)
N8F N 0.40970(12) -0.06264(17) 0.0771(2)
N8_2 N 0.40970(12) 0.06264(17) 1.0771(2)
N8F_2 N 0.40970(12) -0.06264(17) 1.0771(2)
N9F N 0.33531(12) -0.19056(17) 0.2340(2)
N9_2 N 0.33531(12) 0.19056(17) 1.2340(2)
N9F_2 N 0.33531(12) -0.19056(17) 1.2340(2)
N10F N 0.22859(12) -0.15572(16) 0.0799(2)
N10_2 N 0.22859(12) 0.15572(16) 1.0799(2)
N10F_2 N 0.22859(12) -0.15572(16) 1.0799(2)
N11F N 0.26816(12) -0.15653(16) -0.3884(2)
N11_2 N 0.26816(12) 0.15653(16) 0.6116(2)
N11F_2 N 0.26816(12) -0.15653(16) 0.6116(2)
N12F N 0.04797(11) -0.06195(17) -0.5927(2)
N12_2 N 0.04797(11) 0.06195(17) 0.4073(2)
N12F_2 N 0.04797(11) -0.06195(17) 0.4073(2)
N13F N 0.12859(12) -0.15406(17) -0.6165(2)
N13_2 N 0.12859(12) 0.15406(17) 0.3835(2)
N13F_2 N 0.12859(12) -0.15406(17) 0.3835(2)
N14F N 0.27231(11) -0.05700(17) -0.2315(2)
N14_2 N 0.27231(11) 0.05700(17) 0.7685(2)
N14F_2 N 0.27231(11) -0.05700(17) 0.7685(2)
N15F N 0.08677(11) -0.15695(17) -0.5281(2)
N15_2 N 0.08677(11) 0.15695(17) 0.4719(2)
N15F_2 N 0.08677(11) -0.15695(17) 0.4719(2)
N16F N 0.22923(12) -0.16322(17) -0.2952(2)
N16_2 N 0.22923(12) 0.16322(17) 0.7048(2)
N16F_2 N 0.22923(12) -0.16322(17) 0.7048(2)
N17F N 0.08656(12) -0.06273(18) -0.6860(2)
N17_2 N 0.08656(12) 0.06273(18) 0.3140(2)
N17F_2 N 0.08656(12) -0.06273(18) 0.3140(2)
N18F N 0.16188(11) -0.19433(17) -0.4088(2)
N18_2 N 0.16188(11) 0.19433(17) 0.5912(2)
N18F_2 N 0.16188(11) -0.19433(17) 0.5912(2)
N19F N 0.31689(11) -0.05669(17) -0.3144(2)
N19_2 N 0.31689(11) 0.05669(17) 0.6856(2)
N19F_2 N 0.31689(11) -0.05669(17) 0.6856(2)
N20F N 0.20262(12) -0.19693(17) -0.4993(2)
N20_2 N 0.20262(12) 0.19693(17) 0.5007(2)
N20F_2 N 0.20262(12) -0.19693(17) 0.5007(2)
N21F N 0.1288(4) -0.0631(7) 0.8076(6)
N21_2 N 0.1288(4) 0.0631(7) -0.1924(6)
N21F_2 N 0.1288(4) -0.0631(7) -0.1924(6)
C1_2 C 0.4792(2) 0.0000 1.2646(4)
H1_2 H 0.5044 0.0000 1.2453
H2_2 H 0.4957 0.0000 1.3284
C2F C 0.38644(15) -0.2024(2) 0.2673(3)
C2_2 C 0.38644(15) 0.2024(2) 1.2673(3)
C2F_2 C 0.38644(15) -0.2024(2) 1.2673(3)
H3F H 0.3915 -0.2496 0.2513
H3_2 H 0.3915 0.2496 1.2513
H3F_2 H 0.3915 -0.2496 1.2513
H4F H 0.4020 -0.1999 0.3310
H4_2 H 0.4020 0.1999 1.3310
H4F_2 H 0.4020 -0.1999 1.3310
C3F C 0.41234(14) -0.1614(2) 0.1559(2)
C3_2 C 0.41234(14) 0.1614(2) 1.1559(2)
C3F_2 C 0.41234(14) -0.1614(2) 1.1559(2)
H5F H 0.4288 -0.2054 0.1548
H5_2 H 0.4288 0.2054 1.1548
H5F_2 H 0.4288 -0.2054 1.1548
C4F C 0.29855(14) -0.22249(19) 0.1567(2)
C4_2 C 0.29855(14) 0.22249(19) 1.1567(2)
C4F_2 C 0.29855(14) -0.22249(19) 1.1567(2)
H6F H 0.3015 -0.2739 0.1593
H6_2 H 0.3015 0.2739 1.1593
H6F_2 H 0.3015 -0.2739 1.1593
C5F C 0.44176(14) -0.0978(2) 0.1552(2)
C5_2 C 0.44176(14) 0.0978(2) 1.1552(2)
C5F_2 C 0.44176(14) -0.0978(2) 1.1552(2)
H7F H 0.4723 -0.1117 0.1541
H7_2 H 0.4723 0.1117 1.1541
H7F_2 H 0.4723 -0.1117 1.1541
C6F C 0.43285(14) -0.0963(2) 0.2803(3)
C6_2 C 0.43285(14) 0.0963(2) 1.2803(3)
C6F_2 C 0.43285(14) -0.0963(2) 1.2803(3)
C7F C 0.23707(14) -0.1257(2) 0.2661(2)
C7_2 C 0.23707(14) 0.1257(2) 1.2661(2)
C7F_2 C 0.23707(14) -0.1257(2) 1.2661(2)
H8F H 0.2537 -0.1233 0.3298
H8_2 H 0.2537 0.1233 1.3298
H8F_2 H 0.2537 -0.1233 1.3298
H9F H 0.2070 -0.1523 0.2485
H9_2 H 0.2070 0.1523 1.2485
H9F_2 H 0.2070 -0.1523 1.2485
C8F C 0.33004(15) -0.2041(2) 0.0468(3)
C8_2 C 0.33004(15) 0.2041(2) 1.0468(3)
C8F_2 C 0.33004(15) -0.2041(2) 1.0468(3)
H10F H 0.3139 -0.2024 -0.0169
H10_2 H 0.3139 0.2024 0.9831
H10F_2 H 0.3139 -0.2024 0.9831
H11F H 0.3449 -0.2503 0.0644
H11_2 H 0.3449 0.2503 1.0644
H11F_2 H 0.3449 -0.2503 1.0644
C9F C 0.36760(14) -0.0971(2) 0.0321(2)
C9_2 C 0.36760(14) 0.0971(2) 1.0321(2)
C9F_2 C 0.36760(14) -0.0971(2) 1.0321(2)
C10_2 C 0.42127(19) 0.0000 1.0460(3)
H12_2 H 0.4037 0.0000 0.9822
H13_2 H 0.4562 0.0000 1.0631
C11F C 0.25111(14) -0.19827(19) 0.1567(2)
C11_2 C 0.25111(14) 0.19827(19) 1.1567(2)
C11F_2 C 0.25111(14) -0.19827(19) 1.1567(2)
H14F H 0.2302 -0.2385 0.1532
H14_2 H 0.2302 0.2385 1.1532
H14F_2 H 0.2302 -0.2385 1.1532
C12F C 0.18092(14) -0.1259(2) 0.0465(3)
C12_2 C 0.18092(14) 0.1259(2) 1.0465(3)
C12F_2 C 0.18092(14) -0.1259(2) 1.0465(3)
H15F H 0.1610 -0.1559 0.0633
H15_2 H 0.1610 0.1559 1.0633
H15F_2 H 0.1610 -0.1559 1.0633
H16F H 0.1660 -0.1257 -0.0172
H16_2 H 0.1660 0.1257 0.9828
H16F_2 H 0.1660 -0.1257 0.9828
C13F C 0.18082(13) -0.0402(2) 0.1566(2)
C13_2 C 0.18082(13) 0.0402(2) 1.1566(2)
C13F_2 C 0.18082(13) -0.0402(2) 1.1566(2)
H17F H 0.1521 -0.0592 0.1602
H17_2 H 0.1521 0.0592 1.1602
H17F_2 H 0.1521 -0.0592 1.1602
C14F C 0.25287(14) -0.15868(19) 0.0316(2)
C14_2 C 0.25287(14) 0.15868(19) 1.0316(2)
C14F_2 C 0.25287(14) -0.15868(19) 1.0316(2)
C15_2 C 0.24824(19) 0.0000 1.2778(3)
C16_2 C 0.18029(19) 0.0000 1.0308(3)
C17F C 0.31691(14) -0.15912(19) 0.2813(2)
C17_2 C 0.31691(14) 0.15912(19) 1.2813(2)
C17F_2 C 0.31691(14) -0.15912(19) 1.2813(2)
C18F C 0.11117(14) -0.2068(2) -0.4596(3)
C18_2 C 0.11117(14) 0.2068(2) 0.5404(3)
C18F_2 C 0.11117(14) -0.2068(2) 0.5404(3)
H18F H 0.1066 -0.2534 -0.4854
H18_2 H 0.1066 0.2534 0.5146
H18F_2 H 0.1066 -0.2534 0.5146
H19F H 0.0959 -0.2064 -0.4211
H19_2 H 0.0959 0.2064 0.5789
H19F_2 H 0.0959 -0.2064 0.5789
C19F C 0.05475(13) -0.0964(2) -0.6595(2)
C19_2 C 0.05475(13) 0.0964(2) 0.3405(2)
C19F_2 C 0.05475(13) -0.0964(2) 0.3405(2)
H20F H 0.0232 -0.1081 -0.7100
H20_2 H 0.0232 0.1081 0.2900
H20F_2 H 0.0232 -0.1081 0.2900
C20F C 0.19912(14) -0.22409(19) -0.4258(2)
C20_2 C 0.19912(14) 0.22409(19) 0.5742(2)
C20F_2 C 0.19912(14) -0.22409(19) 0.5742(2)
H21F H 0.1972 -0.2756 -0.4277
H21_2 H 0.1972 0.2756 0.5723
H21F_2 H 0.1972 -0.2756 0.5723
C21F C 0.08351(14) -0.1627(2) -0.6133(2)
C21_2 C 0.08351(14) 0.1627(2) 0.3867(2)
C21F_2 C 0.08351(14) -0.1627(2) 0.3867(2)
H22F H 0.0663 -0.2057 -0.6434
H22_2 H 0.0663 0.2057 0.3566
H22F_2 H 0.0663 -0.2057 0.3566
C22F C 0.06511(13) -0.0995(2) -0.5186(2)
C22_2 C 0.06511(13) 0.0995(2) 0.4814(2)
C22F_2 C 0.06511(13) -0.0995(2) 0.4814(2)
C23_2 C 0.02030(19) 0.0000 0.3946(3)
H23_2 H -0.0067 0.0000 0.3353
H24_2 H 0.0063 0.0000 0.4350
C24F C 0.31581(13) -0.1267(2) -0.3441(2)
C24_2 C 0.31581(13) 0.1267(2) 0.6559(2)
C24F_2 C 0.31581(13) -0.1267(2) 0.6559(2)
H25F H 0.3306 -0.1272 -0.3835
H25_2 H 0.3306 0.1272 0.6165
H25F_2 H 0.3306 -0.1272 0.6165
H26F H 0.3358 -0.1561 -0.2939
H26_2 H 0.3358 0.1561 0.7061
H26F_2 H 0.3358 -0.1561 0.7061
C25F C 0.16606(14) -0.2052(2) -0.5878(2)
C25_2 C 0.16606(14) 0.2052(2) 0.4122(2)
C25F_2 C 0.16606(14) -0.2052(2) 0.4122(2)
H27F H 0.1512 -0.2514 -0.5943
H27_2 H 0.1512 0.2514 0.4057
H27F_2 H 0.1512 -0.2514 0.4057
H28F H 0.1818 -0.2036 -0.6256
H28_2 H 0.1818 0.2036 0.3744
H28F_2 H 0.1818 -0.2036 0.3744
C26F C 0.12843(14) -0.0969(2) -0.6632(2)
C26_2 C 0.12843(14) 0.0969(2) 0.3368(2)
C26F_2 C 0.12843(14) -0.0969(2) 0.3368(2)
C27_2 C 0.07500(19) 0.0000 0.2629(3)
H29_2 H 0.0928 0.0000 0.2286
H30_2 H 0.0402 0.0000 0.2220
C28F C 0.24614(14) -0.19863(19) -0.3481(2)
C28_2 C 0.24614(14) 0.19863(19) 0.6519(2)
C28F_2 C 0.24614(14) -0.19863(19) 0.6519(2)
H31F H 0.2674 -0.2383 -0.3164
H31_2 H 0.2674 0.2383 0.6836
H31F_2 H 0.2674 -0.2383 0.6836
C29_2 C 0.31726(18) 0.0000 0.6416(3)
C30F C 0.24345(14) -0.15925(19) -0.4765(2)
C30_2 C 0.24345(14) 0.15925(19) 0.5235(2)
C30F_2 C 0.24345(14) -0.15925(19) 0.5235(2)
C31F C 0.25992(14) -0.1261(2) -0.2171(2)
C31_2 C 0.25992(14) 0.1261(2) 0.7829(2)
C31F_2 C 0.25992(14) -0.1261(2) 0.7829(2)
H32F H 0.2900 -0.1528 -0.1849
H32_2 H 0.2900 0.1528 0.8151
H32F_2 H 0.2900 -0.1528 0.8151
H33F H 0.2435 -0.1232 -0.1806
H33_2 H 0.2435 0.1232 0.8194
H33F_2 H 0.2435 -0.1232 0.8194
C32_2 C 0.24908(19) 0.0000 0.7764(3)
C33F C 0.31621(13) -0.04012(19) -0.2345(2)
C33_2 C 0.31621(13) 0.04012(19) 0.7655(2)
C33F_2 C 0.31621(13) -0.04012(19) 0.7655(2)
H34F H 0.3450 -0.0592 -0.1836
H34_2 H 0.3450 0.0592 0.8164
H34F_2 H 0.3450 -0.0592 0.8164
C34F C 0.18038(14) -0.16111(19) -0.3314(2)
C34_2 C 0.18038(14) 0.16111(19) 0.6686(2)
C34F_2 C 0.18038(14) -0.16111(19) 0.6686(2)
C35F C 0.1161(3) -0.1377(6) 0.8232(6)
C35_2 C 0.1161(3) 0.1377(6) -0.1768(6)
C35F_2 C 0.1161(3) -0.1377(6) -0.1768(6)
O14F O 0.36731(15) -0.0875(3) 0.5126(3)
O14_2 O 0.36731(15) 0.0875(3) 1.5126(3)
O14F_2 O 0.36731(15) -0.0875(3) 1.5126(3)
O16? O 0.44541(16) 0.4559(4) 0.1266(3)
loop_
_geom_bond_atom_site_label_1
_geom_bond_atom_site_label_2
_geom_bond_site_symmetry_1
_geom_bond_site_symmetry_2
K1 Cl1 1_555 1_555
K2 Cl1 1_555 1_555
K3 Cl2 1_555 1_555
K4 Cl2 1_555 1_555
O1 K1 1_555 1_555
O2 K2 1_555 1_555
O3 K1 1_555 1_555
O4 K1 1_555 1_555
O5 K2 1_555 1_555
O6 K2 1_555 1_555
O7 C26 1_555 1_555
O8 K2 1_555 1_555
O9 C22 1_555 1_555
O10 C34 1_555 1_555
O11 C30 1_555 1_555
O12 C29 1_555 1_555
O13 C35 1_555 1_555
N1 C7 1_555 1_555
N2 C1 1_555 1_555
N3 C2 1_555 1_555
N4 C3 1_555 1_555
N5 C4 1_555 1_555
N6 C12 1_555 1_555
N7 C7 1_555 1_555
N8 C5 1_555 1_555
N9 C2 1_555 1_555
N10 C11 1_555 1_555
N11 C24 1_555 1_555
N12 C19 1_555 1_555
N13 C21 1_555 1_555
N14 C31 1_555 1_555
N15 C18 1_555 1_555
N16 C28 1_555 1_555
N17 C19 1_555 1_555
N18 C18 1_555 1_555
N19 C24 1_555 1_555
N20 C20 1_555 1_555
N21 K3 1_555 1_555
C1 H1 1_555 1_555
H2 C1 1_555 1_555
C2 H3 1_555 1_555
H4 C2 1_555 1_555
C3 N3 1_555 1_555
H5 C3 1_555 1_555
C4 N9 1_555 1_555
H6 C4 1_555 1_555
C5 N2 1_555 1_555
H7 C5 1_555 1_555
C6 O4 1_555 1_555
C7 H8 1_555 1_555
H9 C7 1_555 1_555
C8 N4 1_555 1_555
H10 C8 1_555 1_555
H11 C8 1_555 1_555
C9 O6 1_555 1_555
C10 N8 1_555 1_555
H12 C10 1_555 1_555
H13 C10 1_555 1_555
C11 N7 1_555 1_555
H14 C11 1_555 1_555
C12 N10 1_555 1_555
H15 C12 1_555 1_555
H16 C12 1_555 1_555
C13 N1 1_555 1_555
H17 C13 1_555 1_555
C14 O2 1_555 1_555
C15 O1 1_555 1_555
C16 O5 1_555 1_555
C17 O3 1_555 1_555
C18 H18 1_555 1_555
H19 C18 1_555 1_555
C19 H20 1_555 1_555
C20 N18 1_555 1_555
H21 C20 1_555 1_555
C21 N15 1_555 1_555
H22 C21 1_555 1_555
C22 N12 1_555 1_555
C23 N12 1_555 1_555
H23 C23 1_555 1_555
H24 C23 1_555 1_555
C24 H25 1_555 1_555
H26 C24 1_555 1_555
C25 N13 1_555 1_555
H27 C25 1_555 1_555
H28 C25 1_555 1_555
C26 N13 1_555 1_555
C27 N17 1_555 1_555
H29 C27 1_555 1_555
H30 C27 1_555 1_555
C28 N11 1_555 1_555
H31 C28 1_555 1_555
C29 N19 1_555 1_555
C30 N11 1_555 1_555
C31 N16 1_555 1_555
H32 C31 1_555 1_555
H33 C31 1_555 1_555
C32 O8 1_555 1_555
C33 N14 1_555 1_555
H34 C33 1_555 1_555
C34 N16 1_555 1_555
C35 N21 1_555 1_555
O14 K1 1_555 1_555
K1_2 Cl1_2 1_555 1_555
K2_2 Cl1_2 1_555 1_555
K3_2 O8 1_555 1_555
K4_2 O7 1_555 1_555
K4_3 O1_2 1_555 1_555
Cl2_2 K3_2 1_555 1_555
O1_2 K1_2 1_555 1_555
O1_3 K4_2 1_555 1_555
O2F K2 1_555 1_555
O2_2 K2_2 1_555 1_555
O2F_2 K2_2 1_555 1_555
O3F K1 1_555 1_555
O3_2 K1_2 1_555 1_555
O3F_2 K1_2 1_555 1_555
O4F K1 1_555 1_555
O4_2 K1_2 1_555 1_555
O4F_2 K1_2 1_555 1_555
O5_2 K2_2 1_555 1_555
O6F K2 1_555 1_555
O6_2 K2_2 1_555 1_555
O6F_2 K2_2 1_555 1_555
O7F K4_2 1_555 1_555
O7_2 K4 1_555 1_555
O7F_2 K4 1_555 1_555
O8_2 K3 1_555 1_555
O9F K3_2 1_555 1_555
O9_2 K3 1_555 1_555
O9F_2 K3 1_555 1_555
O10F K3_2 1_555 1_555
O10_2 K3 1_555 1_555
O10F_2 K3 1_555 1_555
O11F K4_2 1_555 1_555
O11_2 K4 1_555 1_555
O11F_2 K4 1_555 1_555
O12_2 K4 1_555 1_555
O13F C35F 1_555 1_555
O13_2 C35_2 1_555 1_555
O13F_2 C35F_2 1_555 1_555
N1F C15 1_555 1_555
N1_2 C7_2 1_555 1_555
N1F_2 C7F_2 1_555 1_555
N2F C1 1_555 1_555
N2_2 C1_2 1_555 1_555
N2F_2 C1_2 1_555 1_555
N3F C2F 1_555 1_555
N3_2 C2_2 1_555 1_555
N3F_2 C2F_2 1_555 1_555
N4F C3F 1_555 1_555
N4_2 C3_2 1_555 1_555
N4F_2 C3F_2 1_555 1_555
N5F C4F 1_555 1_555
N5_2 C4_2 1_555 1_555
N5F_2 C4F_2 1_555 1_555
N6F C16 1_555 1_555
N6_2 C12_2 1_555 1_555
N6F_2 C12F_2 1_555 1_555
N7F C7F 1_555 1_555
N7_2 C7_2 1_555 1_555
N7F_2 C7F_2 1_555 1_555
N8F C10 1_555 1_555
N8_2 C5_2 1_555 1_555
N8F_2 C5F_2 1_555 1_555
N9F C2F 1_555 1_555
N9_2 C2_2 1_555 1_555
N9F_2 C2F_2 1_555 1_555
N10F C11F 1_555 1_555
N10_2 C11_2 1_555 1_555
N10F_2 C11F_2 1_555 1_555
N11F C24F 1_555 1_555
N11_2 C24_2 1_555 1_555
N11F_2 C24F_2 1_555 1_555
N12F C23 1_555 1_555
N12_2 C19_2 1_555 1_555
N12F_2 C19F_2 1_555 1_555
N13F C21F 1_555 1_555
N13_2 C21_2 1_555 1_555
N13F_2 C21F_2 1_555 1_555
N14F C32 1_555 1_555
N14_2 C31_2 1_555 1_555
N14F_2 C31F_2 1_555 1_555
N15F C18F 1_555 1_555
N15_2 C18_2 1_555 1_555
N15F_2 C18F_2 1_555 1_555
N16F C28F 1_555 1_555
N16_2 C28_2 1_555 1_555
N16F_2 C28F_2 1_555 1_555
N17F C27 1_555 1_555
N17_2 C19_2 1_555 1_555
N17F_2 C19F_2 1_555 1_555
N18F C18F 1_555 1_555
N18_2 C18_2 1_555 1_555
N18F_2 C18F_2 1_555 1_555
N19F C29 1_555 1_555
N19_2 C24_2 1_555 1_555
N19F_2 C24F_2 1_555 1_555
N20F C20F 1_555 1_555
N20_2 C20_2 1_555 1_555
N20F_2 C20F_2 1_555 1_555
N21F K3 1_555 1_555
N21_2 K3_2 1_555 1_555
N21F_2 K3_2 1_555 1_555
C1_2 H1_2 1_555 1_555
H2_2 C1_2 1_555 1_555
C2F H3F 1_555 1_555
C2_2 H3_2 1_555 1_555
C2F_2 H3F_2 1_555 1_555
H4F C2F 1_555 1_555
H4_2 C2_2 1_555 1_555
H4F_2 C2F_2 1_555 1_555
C3F N3F 1_555 1_555
C3_2 N3_2 1_555 1_555
C3F_2 N3F_2 1_555 1_555
H5F C3F 1_555 1_555
H5_2 C3_2 1_555 1_555
H5F_2 C3F_2 1_555 1_555
C4F N9F 1_555 1_555
C4_2 N9_2 1_555 1_555
C4F_2 N9F_2 1_555 1_555
H6F C4F 1_555 1_555
H6_2 C4_2 1_555 1_555
H6F_2 C4F_2 1_555 1_555
C5F N2F 1_555 1_555
C5_2 N2_2 1_555 1_555
C5F_2 N2F_2 1_555 1_555
H7F C5F 1_555 1_555
H7_2 C5_2 1_555 1_555
H7F_2 C5F_2 1_555 1_555
C6F O4F 1_555 1_555
C6_2 O4_2 1_555 1_555
C6F_2 O4F_2 1_555 1_555
C7F N1F 1_555 1_555
C7_2 H8_2 1_555 1_555
C7F_2 H8F_2 1_555 1_555
H8F C7F 1_555 1_555
H9F C7F 1_555 1_555
H9_2 C7_2 1_555 1_555
H9F_2 C7F_2 1_555 1_555
C8F N4F 1_555 1_555
C8_2 N4_2 1_555 1_555
C8F_2 N4F_2 1_555 1_555
H10F C8F 1_555 1_555
H10_2 C8_2 1_555 1_555
H10F_2 C8F_2 1_555 1_555
H11F C8F 1_555 1_555
H11_2 C8_2 1_555 1_555
H11F_2 C8F_2 1_555 1_555
C9F O6F 1_555 1_555
C9_2 O6_2 1_555 1_555
C9F_2 O6F_2 1_555 1_555
C10_2 N8_2 1_555 1_555
H12_2 C10_2 1_555 1_555
H13_2 C10_2 1_555 1_555
C11F N7F 1_555 1_555
C11_2 N7_2 1_555 1_555
C11F_2 N7F_2 1_555 1_555
H14F C11F 1_555 1_555
H14_2 C11_2 1_555 1_555
H14F_2 C11F_2 1_555 1_555
C12F N6F 1_555 1_555
C12_2 N10_2 1_555 1_555
C12F_2 N10F_2 1_555 1_555
H15F C12F 1_555 1_555
H15_2 C12_2 1_555 1_555
H15F_2 C12F_2 1_555 1_555
H16F C12F 1_555 1_555
H16_2 C12_2 1_555 1_555
H16F_2 C12F_2 1_555 1_555
C13F C13 1_555 1_555
C13_2 N1_2 1_555 1_555
C13F_2 N1F_2 1_555 1_555
H17F C13F 1_555 1_555
H17_2 C13_2 1_555 1_555
H17F_2 C13F_2 1_555 1_555
C14F O2F 1_555 1_555
C14_2 O2_2 1_555 1_555
C14F_2 O2F_2 1_555 1_555
C15_2 O1_2 1_555 1_555
C16_2 O5_2 1_555 1_555
C17F O3F 1_555 1_555
C17_2 O3_2 1_555 1_555
C17F_2 O3F_2 1_555 1_555
C18F H18F 1_555 1_555
C18_2 H18_2 1_555 1_555
C18F_2 H18F_2 1_555 1_555
H19F C18F 1_555 1_555
H19_2 C18_2 1_555 1_555
H19F_2 C18F_2 1_555 1_555
C19F N12F 1_555 1_555
C19_2 H20_2 1_555 1_555
C19F_2 H20F_2 1_555 1_555
H20F C19F 1_555 1_555
C20F N18F 1_555 1_555
C20_2 N18_2 1_555 1_555
C20F_2 N18F_2 1_555 1_555
H21F C20F 1_555 1_555
H21_2 C20_2 1_555 1_555
H21F_2 C20F_2 1_555 1_555
C21F N15F 1_555 1_555
C21_2 N15_2 1_555 1_555
C21F_2 N15F_2 1_555 1_555
H22F C21F 1_555 1_555
H22_2 C21_2 1_555 1_555
H22F_2 C21F_2 1_555 1_555
C22F O9F 1_555 1_555
C22_2 O9_2 1_555 1_555
C22F_2 O9F_2 1_555 1_555
C23_2 N12_2 1_555 1_555
H23_2 C23_2 1_555 1_555
H24_2 C23_2 1_555 1_555
C24F N19F 1_555 1_555
C24_2 H25_2 1_555 1_555
C24F_2 H25F_2 1_555 1_555
H25F C24F 1_555 1_555
H26F C24F 1_555 1_555
H26_2 C24_2 1_555 1_555
H26F_2 C24F_2 1_555 1_555
C25F N13F 1_555 1_555
C25_2 N13_2 1_555 1_555
C25F_2 N13F_2 1_555 1_555
H27F C25F 1_555 1_555
H27_2 C25_2 1_555 1_555
H27F_2 C25F_2 1_555 1_555
H28F C25F 1_555 1_555
H28_2 C25_2 1_555 1_555
H28F_2 C25F_2 1_555 1_555
C26F O7F 1_555 1_555
C26_2 O7_2 1_555 1_555
C26F_2 O7F_2 1_555 1_555
C27_2 N17_2 1_555 1_555
H29_2 C27_2 1_555 1_555
H30_2 C27_2 1_555 1_555
C28F N11F 1_555 1_555
C28_2 N11_2 1_555 1_555
C28F_2 N11F_2 1_555 1_555
H31F C28F 1_555 1_555
H31_2 C28_2 1_555 1_555
H31F_2 C28F_2 1_555 1_555
C29_2 O12_2 1_555 1_555
C30F O11F 1_555 1_555
C30_2 O11_2 1_555 1_555
C30F_2 O11F_2 1_555 1_555
C31F N14F 1_555 1_555
C31_2 N16_2 1_555 1_555
C31F_2 N16F_2 1_555 1_555
H32F C31F 1_555 1_555
H32_2 C31_2 1_555 1_555
H32F_2 C31F_2 1_555 1_555
H33F C31F 1_555 1_555
H33_2 C31_2 1_555 1_555
H33F_2 C31F_2 1_555 1_555
C32_2 O8_2 1_555 1_555
C33F C33 1_555 1_555
C33_2 N14_2 1_555 1_555
C33F_2 N14F_2 1_555 1_555
H34F C33F 1_555 1_555
H34_2 C33_2 1_555 1_555
H34F_2 C33F_2 1_555 1_555
C34F O10F 1_555 1_555
C34_2 O10_2 1_555 1_555
C34F_2 O10F_2 1_555 1_555
C35F N21F 1_555 1_555
C35_2 N21_2 1_555 1_555
C35F_2 N21F_2 1_555 1_555
O14F K1 1_555 1_555
O14_2 K1_2 1_555 1_555
O14F_2 K1_2 1_555 1_555
K4 O1 1_555 1_555
O9 K3_2 1_555 1_555
O10 K3_2 1_555 1_555
O11 K4_2 1_555 1_555
O12 K4_2 1_555 1_555
N1 C15 1_555 1_555
N2 C6 1_555 1_555
N3 C6 1_555 1_555
N4 C9 1_555 1_555
N5 C8 1_555 1_555
N5 C14 1_555 1_555
N6 C13 1_555 1_555
N6 C16 1_555 1_555
N7 C17 1_555 1_555
N8 C9 1_555 1_555
N9 C17 1_555 1_555
N10 C14 1_555 1_555
N14 C32 1_555 1_555
N15 C22 1_555 1_555
N17 C26 1_555 1_555
N18 C34 1_555 1_555
N19 C33 1_555 1_555
N20 C25 1_555 1_555
N20 C30 1_555 1_555
C3 C5 1_555 1_555
C4 C11 1_555 1_555
C19 C21 1_555 1_555
C20 C28 1_555 1_555
K2_2 O8_2 1_555 1_555
K4_2 Cl2_2 1_555 1_555
N1F C13F 1_555 1_555
N1_2 C15_2 1_555 1_555
N1F_2 C15_2 1_555 1_555
N2F C6F 1_555 1_555
N2_2 C6_2 1_555 1_555
N2F_2 C6F_2 1_555 1_555
N3F C6F 1_555 1_555
N3_2 C6_2 1_555 1_555
N3F_2 C6F_2 1_555 1_555
N4F C9F 1_555 1_555
N4_2 C9_2 1_555 1_555
N4F_2 C9F_2 1_555 1_555
N5F C8F 1_555 1_555
N5F C14F 1_555 1_555
N5_2 C8_2 1_555 1_555
N5_2 C14_2 1_555 1_555
N5F_2 C8F_2 1_555 1_555
N5F_2 C14F_2 1_555 1_555
N6F C13F 1_555 1_555
N6_2 C13_2 1_555 1_555
N6_2 C16_2 1_555 1_555
N6F_2 C13F_2 1_555 1_555
N6F_2 C16_2 1_555 1_555
N7F C17F 1_555 1_555
N7_2 C17_2 1_555 1_555
N7F_2 C17F_2 1_555 1_555
N8F C5F 1_555 1_555
N8F C9F 1_555 1_555
N8_2 C9_2 1_555 1_555
N8F_2 C9F_2 1_555 1_555
N8F_2 C10_2 1_555 1_555
N9F C17F 1_555 1_555
N9_2 C17_2 1_555 1_555
N9F_2 C17F_2 1_555 1_555
N10F C12F 1_555 1_555
N10F C14F 1_555 1_555
N10_2 C14_2 1_555 1_555
N10F_2 C14F_2 1_555 1_555
N11F C30F 1_555 1_555
N11_2 C30_2 1_555 1_555
N11F_2 C30F_2 1_555 1_555
N12F C22F 1_555 1_555
N12_2 C22_2 1_555 1_555
N12F_2 C22F_2 1_555 1_555
N12F_2 C23_2 1_555 1_555
N13F C26F 1_555 1_555
N13_2 C26_2 1_555 1_555
N13F_2 C26F_2 1_555 1_555
N14F C33F 1_555 1_555
N14_2 C32_2 1_555 1_555
N14F_2 C32_2 1_555 1_555
N15F C22F 1_555 1_555
N15_2 C22_2 1_555 1_555
N15F_2 C22F_2 1_555 1_555
N16F C31F 1_555 1_555
N16F C34F 1_555 1_555
N16_2 C34_2 1_555 1_555
N16F_2 C34F_2 1_555 1_555
N17F C19F 1_555 1_555
N17F C26F 1_555 1_555
N17_2 C26_2 1_555 1_555
N17F_2 C26F_2 1_555 1_555
N17F_2 C27_2 1_555 1_555
N18F C34F 1_555 1_555
N18_2 C34_2 1_555 1_555
N18F_2 C34F_2 1_555 1_555
N19F C33F 1_555 1_555
N19_2 C29_2 1_555 1_555
N19_2 C33_2 1_555 1_555
N19F_2 C29_2 1_555 1_555
N19F_2 C33F_2 1_555 1_555
N20F C25F 1_555 1_555
N20F C30F 1_555 1_555
N20_2 C25_2 1_555 1_555
N20_2 C30_2 1_555 1_555
N20F_2 C25F_2 1_555 1_555
N20F_2 C30F_2 1_555 1_555
C3F C5F 1_555 1_555
C3_2 C5_2 1_555 1_555
C3F_2 C5F_2 1_555 1_555
C4F C11F 1_555 1_555
C4_2 C11_2 1_555 1_555
C4F_2 C11F_2 1_555 1_555
C13_2 C13F_2 1_555 1_555
C19F C21F 1_555 1_555
C19_2 C21_2 1_555 1_555
C19F_2 C21F_2 1_555 1_555
C20F C28F 1_555 1_555
C20_2 C28_2 1_555 1_555
C20F_2 C28F_2 1_555 1_555
C33_2 C33F_2 1_555 1_555

#END
