
#######################################################################
#
#                 Cambridge Crystallographic Data Centre
#                                CCDC 
#
#######################################################################
#
# If this CIF has been generated from an entry in the Cambridge 
# Structural Database, then it will include bibliographic, chemical, 
# crystal, experimental, refinement or atomic coordinate data resulting 
# from the CCDC's data processing and validation procedures.
#
#######################################################################

data_KESTUZ
_symmetry_cell_setting           monoclinic
_symmetry_space_group_name_H-M   'C 2/c'
_symmetry_Int_Tables_number      15
_space_group_name_Hall           '-C 2yn'
loop_
_symmetry_equiv_pos_site_id
_symmetry_equiv_pos_as_xyz
1 x,y,z
2 -x,y,1/2-z
3 1/2+x,1/2+y,z
4 1/2-x,1/2+y,1/2-z
5 -x,-y,-z
6 x,-y,1/2+z
7 1/2-x,1/2-y,-z
8 1/2+x,1/2-y,1/2+z
_cell_length_a                   25.293(11)
_cell_length_b                   11.661(5)
_cell_length_c                   21.605(10)
_cell_angle_alpha                90
_cell_angle_beta                 124.240(5)
_cell_angle_gamma                90
_cell_volume                     5267.83
loop_
_atom_site_label
_atom_site_type_symbol
_atom_site_fract_x
_atom_site_fract_y
_atom_site_fract_z
C1 C 0.77036(13) 0.1376(2) 0.42389(15)
C2 C 0.80995(14) 0.2226(3) 0.47519(17)
H1 H 0.8193 0.2881 0.4586
C3 C 0.83506(14) 0.2092(3) 0.55052(17)
H2 H 0.8614 0.2659 0.5842
C4 C 0.82159(14) 0.1124(2) 0.57665(15)
C5 C 0.78304(16) 0.0275(3) 0.52615(17)
H3 H 0.7740 -0.0381 0.5430
C6 C 0.75773(15) 0.0402(3) 0.44994(17)
H4 H 0.7322 -0.0173 0.4165
C7 C 0.74190(13) 0.1530(2) 0.34213(16)
C8 C 0.84937(15) 0.1065(3) 0.65986(16)
H5 H 0.8956 0.1038 0.6875
H6 H 0.8379 0.1759 0.6745
C9 C 0.84953(14) -0.1040(2) 0.68888(15)
C10 C 0.90057(15) -0.1479(3) 0.68811(18)
H7 H 0.9279 -0.1006 0.6837
C11 C 0.90794(15) -0.2655(3) 0.69425(18)
H8 H 0.9413 -0.2988 0.6941
C12 C 0.86657(16) -0.3359(3) 0.70076(17)
H9 H 0.8728 -0.4149 0.7038
C13 C 0.81647(15) -0.2921(3) 0.70291(16)
H10 H 0.7895 -0.3396 0.7078
C14 C 0.80872(13) -0.1735(2) 0.69729(15)
C15 C 0.77578(13) 0.0022(2) 0.68433(15)
H11 H 0.7521 0.0663 0.6802
C16 C 0.58535(13) 0.5518(2) 0.62671(16)
C17 C 0.52552(16) 0.5239(3) 0.6116(2)
H12 H 0.5014 0.5795 0.6159
N1 N 0.55309(12) 0.1183(2) 0.56947(17)
C18 C 0.50181(17) 0.4129(3) 0.5900(2)
H13 H 0.4617 0.3953 0.5796
C19 C 0.53719(14) 0.3275(3) 0.58394(19)
C20 C 0.59666(16) 0.3552(3) 0.6003(2)
H14 H 0.6216 0.2988 0.5982
C21 C 0.62005(15) 0.4673(3) 0.6202(2)
H15 H 0.6596 0.4851 0.6291
C22 C 0.61301(14) 0.6701(2) 0.65250(16)
C23 C 0.50834(16) 0.2082(3) 0.5595(3)
H16 H 0.4733 0.2111 0.5070
H17 H 0.4905 0.1870 0.5876
C24 C 0.56574(15) 0.0835(3) 0.51802(18)
C25 C 0.54133(18) 0.1163(4) 0.4437(2)
H18 H 0.5112 0.1746 0.4198
C26 C 0.5644(2) 0.0576(5) 0.4086(2)
H19 H 0.5487 0.0758 0.3592
C27 C 0.6099(2) -0.0269(4) 0.4435(2)
H20 H 0.6251 -0.0620 0.4178
C28 C 0.63359(17) -0.0611(3) 0.51585(18)
H21 H 0.6640 -0.1190 0.5389
C29 C 0.61029(14) -0.0054(3) 0.55293(16)
C30 C 0.58841(14) 0.0499(2) 0.63113(18)
H22 H 0.5875 0.0555 0.6735
Co1 Co 0.686280(18) -0.14718(3) 0.70059(2)
N2 N 0.76256(11) -0.1035(2) 0.69474(13)
N3 N 0.82708(11) 0.0070(2) 0.68040(13)
N4 N 0.62375(11) -0.0248(2) 0.62422(13)
O1 O 0.75684(10) 0.23678(17) 0.31849(11)
O2 O 0.70097(10) 0.07881(18) 0.29585(11)
O3 O 0.66132(10) 0.69708(18) 0.65160(12)
O4 O 0.58969(12) 0.73876(19) 0.67540(13)
C1E C 0.77036(13) -0.1376(2) 0.92389(15)
C2E C 0.80995(14) -0.2226(3) 0.97519(17)
H1E H 0.8193 -0.2881 0.9586
C3E C 0.83506(14) -0.2092(3) 1.05052(17)
H2E H 0.8614 -0.2659 1.0842
C4E C 0.82159(14) -0.1124(2) 1.07665(15)
C5E C 0.78304(16) -0.0275(3) 1.02615(17)
H3E H 0.7740 0.0381 1.0430
C6E C 0.75773(15) -0.0402(3) 0.94994(17)
H4E H 0.7322 0.0173 0.9165
C7E C 0.74190(13) -0.1530(2) 0.84213(16)
C8E C 0.84937(15) -0.1065(3) 1.15986(16)
H5E H 0.8956 -0.1038 1.1875
H6E H 0.8379 -0.1759 1.1745
C9E C 0.84953(14) 0.1040(2) 1.18888(15)
C10E C 0.90057(15) 0.1479(3) 1.18811(18)
H7E H 0.9279 0.1006 1.1837
C11E C 0.90794(15) 0.2655(3) 1.19425(18)
H8E H 0.9413 0.2988 1.1941
C12E C 0.86657(16) 0.3359(3) 1.20076(17)
H9E H 0.8728 0.4149 1.2038
C13E C 0.81647(15) 0.2921(3) 1.20291(16)
H10E H 0.7895 0.3396 1.2078
C14E C 0.80872(13) 0.1735(2) 1.19729(15)
C15E C 0.77578(13) -0.0022(2) 1.18433(15)
H11E H 0.7521 -0.0663 1.1802
C16_2 C 0.58535(13) -0.4482(2) 0.62671(16)
C17_2 C 0.52552(16) -0.4761(3) 0.6116(2)
H12_2 H 0.5014 -0.4205 0.6159
N1_2 N 0.55309(12) -0.8817(2) 0.56947(17)
C18_2 C 0.50181(17) -0.5871(3) 0.5900(2)
H13_2 H 0.4617 -0.6047 0.5796
C19_2 C 0.53719(14) -0.6725(3) 0.58394(19)
C20_2 C 0.59666(16) -0.6448(3) 0.6003(2)
H14_2 H 0.6216 -0.7012 0.5982
C21_2 C 0.62005(15) -0.5327(3) 0.6202(2)
H15_2 H 0.6596 -0.5149 0.6291
C22_2 C 0.61301(14) -0.3299(2) 0.65250(16)
C23_2 C 0.50834(16) -0.7918(3) 0.5595(3)
H16_2 H 0.4733 -0.7889 0.5070
H17_2 H 0.4905 -0.8130 0.5876
C24_2 C 0.56574(15) -0.9165(3) 0.51802(18)
C25_2 C 0.54133(18) -0.8837(4) 0.4437(2)
H18_2 H 0.5112 -0.8254 0.4198
C26_2 C 0.5644(2) -0.9424(5) 0.4086(2)
H19_2 H 0.5487 -0.9242 0.3592
C27_2 C 0.6099(2) -1.0269(4) 0.4435(2)
H20_2 H 0.6251 -1.0620 0.4178
C28_2 C 0.63359(17) -1.0611(3) 0.51585(18)
H21_2 H 0.6640 -1.1190 0.5389
C29_2 C 0.61029(14) -1.0054(3) 0.55293(16)
C30_2 C 0.58841(14) -0.9501(2) 0.63113(18)
H22_2 H 0.5875 -0.9445 0.6735
Co1E Co 0.686280(18) 0.14718(3) 1.20059(2)
Co1E_2 Co 0.686280(18) 0.14718(3) 0.20059(2)
Co1_2 Co 0.686280(18) 0.85282(3) 0.70059(2)
Co1_3 Co 0.686280(18) -1.14718(3) 0.70059(2)
N2E N 0.76256(11) 0.1035(2) 1.19474(13)
N3E N 0.82708(11) -0.0070(2) 1.18040(13)
N4_2 N 0.62375(11) -1.0248(2) 0.62422(13)
N4E N 0.62375(11) 0.0248(2) 1.12422(13)
O1E O 0.75684(10) -0.23678(17) 0.81849(11)
O1_2 O 0.75684(10) 0.23678(17) 1.31849(11)
O2E O 0.70097(10) -0.07881(18) 0.79585(11)
O2_2 O 0.70097(10) 0.07881(18) 1.29585(11)
O3_2 O 0.66132(10) -0.30292(18) 0.65160(12)
O3E O 0.66132(10) 0.30292(18) 1.15160(12)
O4_2 O 0.58969(12) -0.26124(19) 0.67540(13)
O5 O 0.5733(2) 0.1270(4) 0.2650(3)
O6 O 0.6514(7) 0.3284(14) 0.0156(9)
O7 O 0.7500 0.7500 0.5000
O8? O 0.9954(3) 0.1997(6) 0.7727(4)
loop_
_geom_bond_atom_site_label_1
_geom_bond_atom_site_label_2
_geom_bond_site_symmetry_1
_geom_bond_site_symmetry_2
C1 C2 1_555 1_555
C2 H1 1_555 1_555
C3 C2 1_555 1_555
H2 C3 1_555 1_555
C4 C3 1_555 1_555
C5 C4 1_555 1_555
H3 C5 1_555 1_555
C6 C1 1_555 1_555
H4 C6 1_555 1_555
C7 C1 1_555 1_555
C8 C4 1_555 1_555
H5 C8 1_555 1_555
H6 C8 1_555 1_555
C9 C10 1_555 1_555
C10 H7 1_555 1_555
C11 C10 1_555 1_555
H8 C11 1_555 1_555
C12 C11 1_555 1_555
H9 C12 1_555 1_555
C13 C12 1_555 1_555
H10 C13 1_555 1_555
C14 C9 1_555 1_555
C15 H11 1_555 1_555
C16 C17 1_555 1_555
C17 H12 1_555 1_555
N1 C23 1_555 1_555
C18 C17 1_555 1_555
H13 C18 1_555 1_555
C19 C18 1_555 1_555
C20 C19 1_555 1_555
H14 C20 1_555 1_555
C21 C16 1_555 1_555
H15 C21 1_555 1_555
C22 C16 1_555 1_555
C23 C19 1_555 1_555
H16 C23 1_555 1_555
H17 C23 1_555 1_555
C24 N1 1_555 1_555
C25 C24 1_555 1_555
H18 C25 1_555 1_555
C26 C25 1_555 1_555
H19 C26 1_555 1_555
C27 C26 1_555 1_555
H20 C27 1_555 1_555
C28 C27 1_555 1_555
H21 C28 1_555 1_555
C29 C24 1_555 1_555
C30 N1 1_555 1_555
H22 C30 1_555 1_555
Co1 N2 1_555 1_555
N2 C14 1_555 1_555
N3 C8 1_555 1_555
N4 C29 1_555 1_555
O1 C7 1_555 1_555
O2 C7 1_555 1_555
O3 C22 1_555 1_555
O4 C22 1_555 1_555
C1E C2E 1_555 1_555
C2E H1E 1_555 1_555
C3E C2E 1_555 1_555
H2E C3E 1_555 1_555
C4E C3E 1_555 1_555
C5E C4E 1_555 1_555
H3E C5E 1_555 1_555
C6E C1E 1_555 1_555
H4E C6E 1_555 1_555
C7E C1E 1_555 1_555
C8E C4E 1_555 1_555
H5E C8E 1_555 1_555
H6E C8E 1_555 1_555
C9E C10E 1_555 1_555
C10E H7E 1_555 1_555
C11E C10E 1_555 1_555
H8E C11E 1_555 1_555
C12E C11E 1_555 1_555
H9E C12E 1_555 1_555
C13E C12E 1_555 1_555
H10E C13E 1_555 1_555
C14E C9E 1_555 1_555
C15E H11E 1_555 1_555
C16_2 C17_2 1_555 1_555
C17_2 H12_2 1_555 1_555
N1_2 C23_2 1_555 1_555
C18_2 C17_2 1_555 1_555
H13_2 C18_2 1_555 1_555
C19_2 C18_2 1_555 1_555
C20_2 C19_2 1_555 1_555
H14_2 C20_2 1_555 1_555
C21_2 C16_2 1_555 1_555
H15_2 C21_2 1_555 1_555
C22_2 C16_2 1_555 1_555
C23_2 C19_2 1_555 1_555
H16_2 C23_2 1_555 1_555
H17_2 C23_2 1_555 1_555
C24_2 N1_2 1_555 1_555
C25_2 C24_2 1_555 1_555
H18_2 C25_2 1_555 1_555
C26_2 C25_2 1_555 1_555
H19_2 C26_2 1_555 1_555
C27_2 C26_2 1_555 1_555
H20_2 C27_2 1_555 1_555
C28_2 C27_2 1_555 1_555
H21_2 C28_2 1_555 1_555
C29_2 C24_2 1_555 1_555
C30_2 N1_2 1_555 1_555
H22_2 C30_2 1_555 1_555
Co1E N2E 1_555 1_555
Co1E_2 O1 1_555 1_555
Co1_2 O3 1_555 1_555
Co1_3 N4_2 1_555 1_555
N2E C14E 1_555 1_555
N3E C8E 1_555 1_555
N4_2 C29_2 1_555 1_555
N4E Co1E 1_555 1_555
O1E Co1 1_555 1_555
O1_2 Co1E 1_555 1_555
O2E Co1 1_555 1_555
O2_2 Co1E 1_555 1_555
O3_2 Co1 1_555 1_555
O3E Co1E 1_555 1_555
O4_2 C22_2 1_555 1_555
C5 C6 1_555 1_555
C9 N3 1_555 1_555
C13 C14 1_555 1_555
C15 N2 1_555 1_555
C15 N3 1_555 1_555
C20 C21 1_555 1_555
C28 C29 1_555 1_555
C30 N4 1_555 1_555
Co1 N4 1_555 1_555
O2 Co1E_2 1_555 1_555
C5E C6E 1_555 1_555
C7E O1E 1_555 1_555
C7E O2E 1_555 1_555
C9E N3E 1_555 1_555
C13E C14E 1_555 1_555
C15E N2E 1_555 1_555
C15E N3E 1_555 1_555
C20_2 C21_2 1_555 1_555
C22_2 O3_2 1_555 1_555
C28_2 C29_2 1_555 1_555
C30_2 N4_2 1_555 1_555

#END
