
#######################################################################
#
#                 Cambridge Crystallographic Data Centre
#                                CCDC 
#
#######################################################################
#
# If this CIF has been generated from an entry in the Cambridge 
# Structural Database, then it will include bibliographic, chemical, 
# crystal, experimental, refinement or atomic coordinate data resulting 
# from the CCDC's data processing and validation procedures.
#
#######################################################################

data_KESVAH
_symmetry_cell_setting           monoclinic
_symmetry_space_group_name_H-M   'P 21/n'
_symmetry_Int_Tables_number      14
_space_group_name_Hall           '-P 2yn'
loop_
_symmetry_equiv_pos_site_id
_symmetry_equiv_pos_as_xyz
1 x,y,z
2 1/2-x,1/2+y,1/2-z
3 -x,-y,-z
4 1/2+x,1/2-y,1/2+z
_cell_length_a                   11.465(5)
_cell_length_b                   16.149(5)
_cell_length_c                   14.953(5)
_cell_angle_alpha                90
_cell_angle_beta                 105.257(5)
_cell_angle_gamma                90
_cell_volume                     2670.95
loop_
_atom_site_label
_atom_site_type_symbol
_atom_site_fract_x
_atom_site_fract_y
_atom_site_fract_z
C1 C -0.4555(2) 0.21049(16) -0.39168(17)
C2 C -0.3778(2) 0.19658(17) -0.44690(19)
H1 H -0.3498 0.1433 -0.4524
C3 C -0.3414(3) 0.26103(18) -0.4939(2)
H2 H -0.2900 0.2504 -0.5314
C4 C -0.3800(2) 0.34046(17) -0.48620(18)
C5 C -0.4584(3) 0.35407(18) -0.4309(2)
H3 H -0.4857 0.4075 -0.4250
C6 C -0.4962(3) 0.29026(19) -0.3849(2)
H4 H -0.5496 0.3007 -0.3490
C7 C -0.4966(2) 0.13995(19) -0.34228(18)
C8 C -0.3353(3) 0.41088(19) -0.5332(2)
H5 H -0.3110 0.3902 -0.5864
H6 H -0.4004 0.4503 -0.5553
C9 C -0.1754(2) 0.43259(16) -0.38141(17)
H7 H -0.1992 0.3887 -0.3500
C10 C -0.0785(2) 0.53799(15) -0.41310(17)
C11 C -0.0001(2) 0.60391(17) -0.41339(19)
H8 H 0.0630 0.6161 -0.3617
C12 C -0.0195(3) 0.64992(17) -0.4926(2)
H9 H 0.0312 0.6945 -0.4942
C13 C -0.1130(3) 0.63217(18) -0.5713(2)
H10 H -0.1230 0.6651 -0.6238
C14 C -0.1899(3) 0.56754(17) -0.57249(19)
H11 H -0.2518 0.5551 -0.6249
C15 C -0.1712(2) 0.52107(15) -0.49168(17)
C16 C 0.1389(2) -0.08861(17) -0.40699(17)
C17 C 0.0771(3) -0.1073(3) -0.3418(2)
H12 H 0.1167 -0.1036 -0.2790
C18 C -0.0432(3) -0.1314(3) -0.3687(2)
H13 H -0.0841 -0.1427 -0.3239
C19 C -0.1019(2) -0.13875(16) -0.46026(17)
C20 C -0.0400(2) -0.12130(18) -0.52501(18)
H14 H -0.0789 -0.1264 -0.5877
C21 C 0.0795(2) -0.09619(18) -0.49818(18)
H15 H 0.1197 -0.0843 -0.5431
C22 C 0.2673(2) -0.05814(17) -0.38007(19)
C23 C -0.2327(2) -0.16480(19) -0.49542(18)
H16 H -0.2720 -0.1286 -0.5462
H17 H -0.2353 -0.2206 -0.5200
C24 C -0.3601(2) -0.09689(17) -0.40479(18)
H18 H -0.3588 -0.0450 -0.4314
C25 C -0.3986(2) -0.19727(16) -0.32124(17)
C26 C -0.4413(3) -0.24828(19) -0.26262(19)
H19 H -0.4924 -0.2283 -0.2285
C27 C -0.4048(3) -0.3305(2) -0.2568(2)
H20 H -0.4331 -0.3666 -0.2189
C28 C -0.3271(3) -0.3596(2) -0.3065(2)
H21 H -0.3028 -0.4147 -0.2996
C29 C -0.2844(3) -0.3098(2) -0.3657(2)
H22 H -0.2323 -0.3297 -0.3990
C30 C -0.3236(2) -0.22852(17) -0.37288(17)
N1 N -0.08342(19) 0.48099(13) -0.34435(14)
N2 N -0.23212(19) 0.45299(13) -0.46976(15)
N3 N -0.41974(18) -0.11296(13) -0.34260(14)
N4 N -0.30123(17) -0.16309(14) -0.42592(14)
O1 O -0.45027(19) 0.06972(13) -0.34971(14)
O2 O -0.5729(2) 0.15187(15) -0.29924(15)
O3 O 0.31353(18) -0.03148(13) -0.43982(15)
O4 O 0.32415(17) -0.06274(16) -0.29543(13)
Zn1 Zn -0.51121(2) -0.023840(18) -0.292780(19)
N1A N -0.41658(19) -0.01901(13) -0.15565(14)
O3_2 O -0.68647(18) -0.03148(13) -0.43982(15)
O4_2 O -0.67585(17) -0.06274(16) -0.29543(13)
Zn1A Zn 0.01121(2) 0.476160(18) -0.207220(19)
Zn1_2 Zn 0.48879(2) -0.023840(18) -0.292780(19)
O5 O -0.7621(4) 0.2188(3) -0.2402(3)
O6? O -0.7941(13) 0.1055(9) -0.2435(10)
loop_
_geom_bond_atom_site_label_1
_geom_bond_atom_site_label_2
_geom_bond_site_symmetry_1
_geom_bond_site_symmetry_2
C1 C2 1_555 1_555
C2 H1 1_555 1_555
C3 C2 1_555 1_555
H2 C3 1_555 1_555
C4 C3 1_555 1_555
C5 C4 1_555 1_555
H3 C5 1_555 1_555
C6 C1 1_555 1_555
H4 C6 1_555 1_555
C7 C1 1_555 1_555
C8 C4 1_555 1_555
H5 C8 1_555 1_555
H6 C8 1_555 1_555
C9 H7 1_555 1_555
C10 C11 1_555 1_555
C11 H8 1_555 1_555
C12 C11 1_555 1_555
H9 C12 1_555 1_555
C13 C12 1_555 1_555
H10 C13 1_555 1_555
C14 C13 1_555 1_555
H11 C14 1_555 1_555
C15 C10 1_555 1_555
C16 C17 1_555 1_555
C17 H12 1_555 1_555
C18 C17 1_555 1_555
H13 C18 1_555 1_555
C19 C18 1_555 1_555
C20 C19 1_555 1_555
H14 C20 1_555 1_555
C21 C16 1_555 1_555
H15 C21 1_555 1_555
C22 C16 1_555 1_555
C23 C19 1_555 1_555
H16 C23 1_555 1_555
H17 C23 1_555 1_555
C24 H18 1_555 1_555
C25 C26 1_555 1_555
C26 H19 1_555 1_555
C27 C26 1_555 1_555
H20 C27 1_555 1_555
C28 C27 1_555 1_555
H21 C28 1_555 1_555
C29 C28 1_555 1_555
H22 C29 1_555 1_555
C30 C25 1_555 1_555
N1 C9 1_555 1_555
N2 C8 1_555 1_555
N3 C24 1_555 1_555
N4 C23 1_555 1_555
O1 C7 1_555 1_555
O2 C7 1_555 1_555
O3 C22 1_555 1_555
O4 C22 1_555 1_555
Zn1 N3 1_555 1_555
N1A Zn1 1_555 1_555
O3_2 Zn1 1_555 1_555
O4_2 Zn1 1_555 1_555
Zn1A N1 1_555 1_555
Zn1_2 O3 1_555 1_555
C5 C6 1_555 1_555
C9 N2 1_555 1_555
C10 N1 1_555 1_555
C14 C15 1_555 1_555
C15 N2 1_555 1_555
C20 C21 1_555 1_555
C24 N4 1_555 1_555
C25 N3 1_555 1_555
C29 C30 1_555 1_555
C30 N4 1_555 1_555
O1 Zn1 1_555 1_555
O4 Zn1_2 1_555 1_555

#END
