
#######################################################################
#
#                 Cambridge Crystallographic Data Centre
#                                CCDC 
#
#######################################################################
#
# If this CIF has been generated from an entry in the Cambridge 
# Structural Database, then it will include bibliographic, chemical, 
# crystal, experimental, refinement or atomic coordinate data resulting 
# from the CCDC's data processing and validation procedures.
#
#######################################################################

data_KESWUC
_symmetry_cell_setting           monoclinic
_symmetry_space_group_name_H-M   'P 21/c'
_symmetry_Int_Tables_number      14
_space_group_name_Hall           '-P 2ybc'
loop_
_symmetry_equiv_pos_site_id
_symmetry_equiv_pos_as_xyz
1 x,y,z
2 -x,1/2+y,1/2-z
3 -x,-y,-z
4 x,1/2-y,1/2+z
_cell_length_a                   15.0176(10)
_cell_length_b                   9.7204(6)
_cell_length_c                   21.4398(10)
_cell_angle_alpha                90
_cell_angle_beta                 124.856(3)
_cell_angle_gamma                90
_cell_volume                     2568.22
loop_
_atom_site_label
_atom_site_type_symbol
_atom_site_fract_x
_atom_site_fract_y
_atom_site_fract_z
N1 N 0.0791(4) 0.4490(5) 0.1220(3)
Zn1 Zn 0.82359(5) 0.16912(8) 0.63490(4)
O1 O 0.8467(5) 0.0590(8) 0.7201(3)
O2 O 0.8480(5) -0.1330(7) 0.6746(3)
N2 N 0.6755(4) 0.1439(5) 0.5352(3)
N3 N 0.5049(4) 0.1956(5) 0.4446(3)
N4 N -0.0669(4) 0.3688(5) 0.1112(3)
C1 C 0.5998(5) 0.2384(6) 0.5060(3)
H1 H 0.6108 0.3267 0.5259
C2 C 0.5202(4) 0.0591(6) 0.4327(3)
C3 C 0.6271(4) 0.0279(6) 0.4900(3)
C4 C 0.6671(5) -0.1040(6) 0.4939(3)
H2 H 0.7388 -0.1263 0.5315
C5 C 0.5983(5) -0.1995(6) 0.4413(4)
C6 C 0.4874(5) -0.1668(7) 0.3839(4)
C7 C 0.4112(7) -0.2735(8) 0.3282(5)
H3 H 0.3396 -0.2354 0.2964
H4 H 0.4101 -0.3514 0.3552
H5 H 0.4352 -0.3020 0.2972
C8 C 0.4503(5) -0.0367(6) 0.3803(3)
H6 H 0.3787 -0.0134 0.3429
C9 C 0.4069(5) 0.2772(7) 0.3962(3)
H7 H 0.4084 0.3551 0.4251
H8 H 0.3442 0.2215 0.3816
C10 C 0.3942(4) 0.3298(6) 0.3248(3)
C11 C 0.4795(5) 0.3366(7) 0.3169(4)
H9 H 0.5468 0.3001 0.3545
C12 C 0.4652(6) 0.3969(8) 0.2540(4)
H10 H 0.5225 0.3992 0.2487
C13 C 0.3662(5) 0.4545(7) 0.1982(4)
H11 H 0.3574 0.4955 0.1557
C14 C 0.2815(4) 0.4511(6) 0.2056(3)
C15 C 0.2957(4) 0.3863(6) 0.2690(3)
H12 H 0.2378 0.3812 0.2735
C16 C 0.1777(4) 0.5289(6) 0.1507(3)
H13 H 0.1756 0.6103 0.1760
H14 H 0.1787 0.5592 0.1080
C17 C 0.0161(5) 0.4547(6) 0.1476(3)
H15 H 0.0292 0.5125 0.1866
C18 C 0.0349(4) 0.3526(6) 0.0641(3)
C19 C -0.0576(5) 0.3034(6) 0.0577(3)
C20 C -0.1222(5) 0.2052(6) 0.0026(3)
H16 H -0.1828 0.1699 -0.0015
C21 C -0.0954(5) 0.1603(6) -0.0462(4)
C22 C -0.1652(6) 0.0566(7) -0.1067(4)
H17 H -0.2280 0.0373 -0.1068
H18 H -0.1877 0.0926 -0.1554
H19 H -0.1247 -0.0266 -0.0968
C23 C -0.0015(5) 0.2127(6) -0.0390(3)
C24 C 0.0267(6) 0.1642(8) -0.0929(4)
H20 H 0.0462 0.0686 -0.0839
H21 H -0.0349 0.1763 -0.1444
H22 H 0.0867 0.2169 -0.0846
C25 C 0.0627(5) 0.3081(6) 0.0159(4)
H23 H 0.1241 0.3427 0.0207
C26 C 0.6402(7) -0.3427(8) 0.4436(5)
H24 H 0.7168 -0.3464 0.4822
H25 H 0.6266 -0.3638 0.3951
H26 H 0.6036 -0.4085 0.4549
C27 C 0.8558(7) -0.0521(13) 0.7190(6)
H27 H 0.8741 -0.0939 0.7639
Cl1 Cl 0.8256(2) 0.4025(4) 0.65623(19)
Zn1C Zn -0.17641(5) 0.33088(8) 0.13490(4)
N4C N 0.9331(4) 0.1312(5) 0.6112(3)
loop_
_geom_bond_atom_site_label_1
_geom_bond_atom_site_label_2
_geom_bond_site_symmetry_1
_geom_bond_site_symmetry_2
N1 C16 1_555 1_555
Zn1 O1 1_555 1_555
O1 C27 1_555 1_555
O2 C27 1_555 1_555
N2 Zn1 1_555 1_555
N3 C1 1_555 1_555
N4 C17 1_555 1_555
C1 N2 1_555 1_555
H1 C1 1_555 1_555
C2 N3 1_555 1_555
C3 N2 1_555 1_555
C4 C3 1_555 1_555
H2 C4 1_555 1_555
C5 C4 1_555 1_555
C6 C5 1_555 1_555
C7 C6 1_555 1_555
H3 C7 1_555 1_555
H4 C7 1_555 1_555
H5 C7 1_555 1_555
C8 C2 1_555 1_555
H6 C8 1_555 1_555
C9 N3 1_555 1_555
H7 C9 1_555 1_555
H8 C9 1_555 1_555
C10 C9 1_555 1_555
C11 C10 1_555 1_555
H9 C11 1_555 1_555
C12 C11 1_555 1_555
H10 C12 1_555 1_555
C13 C12 1_555 1_555
H11 C13 1_555 1_555
C14 C13 1_555 1_555
C15 C10 1_555 1_555
H12 C15 1_555 1_555
C16 C14 1_555 1_555
H13 C16 1_555 1_555
H14 C16 1_555 1_555
C17 N1 1_555 1_555
H15 C17 1_555 1_555
C18 N1 1_555 1_555
C19 N4 1_555 1_555
C20 C19 1_555 1_555
H16 C20 1_555 1_555
C21 C20 1_555 1_555
C22 C21 1_555 1_555
H17 C22 1_555 1_555
H18 C22 1_555 1_555
H19 C22 1_555 1_555
C23 C21 1_555 1_555
C24 C23 1_555 1_555
H20 C24 1_555 1_555
H21 C24 1_555 1_555
H22 C24 1_555 1_555
C25 C18 1_555 1_555
H23 C25 1_555 1_555
C26 C5 1_555 1_555
H24 C26 1_555 1_555
H25 C26 1_555 1_555
H26 C26 1_555 1_555
C27 H27 1_555 1_555
Cl1 Zn1 1_555 1_555
Zn1C N4 1_555 1_555
N4C Zn1 1_555 1_555
C2 C3 1_555 1_555
C6 C8 1_555 1_555
C14 C15 1_555 1_555
C18 C19 1_555 1_555
C23 C25 1_555 1_555

#END
