
#######################################################################
#
#                 Cambridge Crystallographic Data Centre
#                                CCDC 
#
#######################################################################
#
# If this CIF has been generated from an entry in the Cambridge 
# Structural Database, then it will include bibliographic, chemical, 
# crystal, experimental, refinement or atomic coordinate data resulting 
# from the CCDC's data processing and validation procedures.
#
#######################################################################

data_KESXAJ
_symmetry_cell_setting           triclinic
_symmetry_space_group_name_H-M   'P -1'
_symmetry_Int_Tables_number      2
_space_group_name_Hall           '-P 1'
loop_
_symmetry_equiv_pos_site_id
_symmetry_equiv_pos_as_xyz
1 x,y,z
2 -x,-y,-z
_cell_length_a                   12.5742(8)
_cell_length_b                   13.5236(8)
_cell_length_c                   17.3990(11)
_cell_angle_alpha                98.2070(9)
_cell_angle_beta                 108.9340(8)
_cell_angle_gamma                105.7550(10)
_cell_volume                     2605.41
loop_
_atom_site_label
_atom_site_type_symbol
_atom_site_fract_x
_atom_site_fract_y
_atom_site_fract_z
Zn1 Zn 0.09578(5) 0.81513(5) 0.20718(4)
Zn2 Zn -0.05418(6) 0.74079(5) 0.33946(4)
Cl1 Cl 0.08426(15) 0.85926(14) 0.46433(9)
O1 O 0.0002(4) 0.7171(4) 0.2494(3)
C1 C -0.1504(5) 0.4620(4) 0.4214(3)
N1 N -0.1163(4) 0.5950(3) 0.3579(3)
N2 N -0.1884(4) -0.1996(3) 0.3032(3)
N3 N -0.3042(4) -0.1017(3) 0.3039(3)
N4 N 0.0676(4) 0.2034(3) 0.0474(2)
N5 N 0.2348(4) 0.7636(3) 0.2154(2)
N6 N 0.3502(4) 0.6725(3) 0.1947(2)
N7 N -0.1383(4) 0.4249(3) 0.3477(3)
C2 C -0.1753(5) 0.4748(5) 0.5524(4)
C3 C -0.1649(5) 0.5831(5) 0.5572(3)
C4 C -0.1445(5) 0.6298(4) 0.4945(3)
H1 H -0.1361 0.7009 0.4980
C5 C -0.1372(5) 0.5683(4) 0.4273(3)
C6 C -0.1683(5) 0.4144(4) 0.4843(3)
H2 H -0.1755 0.3434 0.4805
C7 C -0.1176(5) 0.5071(4) 0.3136(3)
H3 H -0.1053 0.5026 0.2635
C8 C -0.2149(5) -0.1307(4) 0.3493(3)
H4 H -0.1756 -0.1052 0.4072
C9 C -0.3402(4) -0.1558(4) 0.2203(3)
C10 C -0.2677(4) -0.2176(4) 0.2204(3)
C11 C -0.2812(5) -0.2826(4) 0.1467(3)
H5 H -0.2340 -0.3250 0.1471
C12 C -0.3654(5) -0.2836(4) 0.0727(3)
C13 C -0.3798(7) -0.3542(6) -0.0086(4)
H6 H -0.3269 -0.3945 0.0035
H7 H -0.3608 -0.3110 -0.0448
H8 H -0.4609 -0.4018 -0.0359
C14 C -0.4376(5) -0.2194(5) 0.0721(3)
C15 C -0.5270(7) -0.2191(7) -0.0102(4)
H9 H -0.5698 -0.1731 0.0001
H10 H -0.5823 -0.2899 -0.0379
H11 H -0.4859 -0.1941 -0.0452
C16 C -0.4250(5) -0.1556(4) 0.1464(3)
H12 H -0.4726 -0.1137 0.1466
C17 C -0.3607(5) -0.0360(4) 0.3388(3)
H13 H -0.3188 -0.0123 0.3993
H14 H -0.4425 -0.0788 0.3271
C18 C -0.3612(4) 0.0600(4) 0.3037(3)
C19 C -0.4690(5) 0.0705(4) 0.2564(4)
H15 H -0.5412 0.0179 0.2456
C20 C -0.4676(5) 0.1600(5) 0.2257(4)
H16 H -0.5392 0.1659 0.1925
C21 C -0.3634(5) 0.2387(5) 0.2436(4)
H17 H -0.3641 0.2977 0.2220
C22 C -0.2555(4) 0.1427(4) 0.3227(3)
H18 H -0.1834 0.1373 0.3555
C23 C -0.2551(5) 0.2327(4) 0.2939(3)
C24 C -0.1387(5) 0.3187(4) 0.3143(4)
H19 H -0.0756 0.3038 0.3553
H20 H -0.1214 0.3182 0.2639
C25 C 0.3236(4) 0.7753(4) 0.2927(3)
C26 C 0.2553(5) 0.7024(4) 0.1599(3)
H21 H 0.2091 0.6820 0.1027
C27 C 0.3956(4) 0.7184(4) 0.2803(3)
C28 C 0.4898(5) 0.7131(4) 0.3465(3)
H22 H 0.5382 0.6755 0.3371
C29 C 0.5098(5) 0.7649(5) 0.4265(3)
C30 C 0.4352(5) 0.8223(4) 0.4398(3)
C31 C 0.4521(7) 0.8739(6) 0.5287(4)
H23 H 0.3963 0.9109 0.5262
H24 H 0.5321 0.9232 0.5575
H25 H 0.4384 0.8201 0.5584
C32 C 0.3431(5) 0.8285(4) 0.3730(3)
H26 H 0.2953 0.8673 0.3815
C33 C 0.3908(5) 0.5982(4) 0.1529(3)
H27 H 0.4758 0.6299 0.1662
H28 H 0.3496 0.5832 0.0925
C34 C 0.3674(5) 0.4957(4) 0.1799(3)
C35 C 0.4596(5) 0.4704(4) 0.2320(4)
H29 H 0.5381 0.5155 0.2494
C36 C 0.4351(5) 0.3779(5) 0.2584(4)
H30 H 0.4967 0.3630 0.2962
C37 C 0.3198(5) 0.3078(4) 0.2286(3)
H31 H 0.3043 0.2449 0.2453
C38 C 0.2272(4) 0.3300(4) 0.1743(3)
C39 C 0.2518(4) 0.4255(4) 0.1509(3)
H32 H 0.1897 0.4420 0.1153
C40 C 0.1007(5) 0.2523(4) 0.1368(3)
H33 H 0.0940 0.1973 0.1670
H34 H 0.0462 0.2889 0.1426
C41 C 0.1089(4) 0.1282(4) 0.0153(3)
C42 C 0.1768(4) 0.0702(4) 0.0537(3)
H35 H 0.2042 0.0786 0.1116
C43 C 0.2020(4) -0.0004(4) 0.0025(3)
C44 C 0.2786(6) -0.0624(5) 0.0432(4)
H36 H 0.3552 -0.0376 0.0390
H37 H 0.2400 -0.1365 0.0150
H38 H 0.2891 -0.0525 0.1013
C45 C 0.1923(6) -0.0876(5) -0.1401(4)
H39 H 0.1511 -0.0912 -0.1980
H40 H 0.1688 -0.1571 -0.1306
H41 H 0.2770 -0.0623 -0.1263
C46 C 0.1607(5) -0.0128(4) -0.0855(3)
C47 C -0.1750(6) 0.6474(6) 0.6307(4)
H42 H -0.1571 0.7202 0.6281
H43 H -0.1196 0.6428 0.6820
H44 H -0.2549 0.6201 0.6290
C48 C -0.1937(7) 0.4264(6) 0.6226(4)
H45 H -0.1873 0.3569 0.6144
H46 H -0.2715 0.4213 0.6223
H47 H -0.1338 0.4706 0.6756
C49 C 0.6102(7) 0.7588(7) 0.5004(4)
H48 H 0.6509 0.7167 0.4805
H49 H 0.5780 0.7268 0.5374
H50 H 0.6655 0.8291 0.5301
C50 C 0.0911(5) 0.0438(4) -0.1220(3)
H51 H 0.0620 0.0346 -0.1799
C51 C 0.0650(4) 0.1149(4) -0.0711(3)
N8 N -0.0015(4) 0.1820(3) -0.0905(2)
C52 C 0.0046(5) 0.2327(4) -0.0175(3)
H52 H -0.0313 0.2835 -0.0121
H53 H -0.034(5) 0.663(4) 0.220(3)
O2 O 0.2525(4) 1.0302(4) 0.2451(3)
O3 O 0.1281(5) 0.9462(4) 0.2886(3)
C53 C 0.1982(7) 1.0174(7) 0.2847(5)
H54 H 0.2135 1.0794 0.3237
Zn1A Zn -0.09578(5) 0.18487(5) -0.20718(4)
Zn2_2 Zn -0.05418(6) -0.25921(5) 0.33946(4)
N2_2 N -0.1884(4) 0.8004(3) 0.3032(3)
N8A N 0.0015(4) 0.8180(3) 0.0905(2)
I1 I 0.89329(5) 0.45352(4) 0.09145(3)
loop_
_geom_bond_atom_site_label_1
_geom_bond_atom_site_label_2
_geom_bond_site_symmetry_1
_geom_bond_site_symmetry_2
Zn1 O1 1_555 1_555
Zn2 Cl1 1_555 1_555
O1 Zn2 1_555 1_555
C1 N7 1_555 1_555
N1 Zn2 1_555 1_555
N2 C8 1_555 1_555
N3 C8 1_555 1_555
N4 C40 1_555 1_555
N5 Zn1 1_555 1_555
N6 C26 1_555 1_555
N7 C7 1_555 1_555
C2 C3 1_555 1_555
C3 C4 1_555 1_555
C4 H1 1_555 1_555
C5 C1 1_555 1_555
C6 C1 1_555 1_555
H2 C6 1_555 1_555
C7 N1 1_555 1_555
H3 C7 1_555 1_555
C8 H4 1_555 1_555
C9 N3 1_555 1_555
C10 N2 1_555 1_555
C11 C10 1_555 1_555
H5 C11 1_555 1_555
C12 C11 1_555 1_555
C13 C12 1_555 1_555
H6 C13 1_555 1_555
H7 C13 1_555 1_555
H8 C13 1_555 1_555
C14 C12 1_555 1_555
C15 C14 1_555 1_555
H9 C15 1_555 1_555
H10 C15 1_555 1_555
H11 C15 1_555 1_555
C16 C9 1_555 1_555
H12 C16 1_555 1_555
C17 N3 1_555 1_555
H13 C17 1_555 1_555
H14 C17 1_555 1_555
C18 C17 1_555 1_555
C19 C18 1_555 1_555
H15 C19 1_555 1_555
C20 C19 1_555 1_555
H16 C20 1_555 1_555
C21 C20 1_555 1_555
H17 C21 1_555 1_555
C22 C18 1_555 1_555
H18 C22 1_555 1_555
C23 C21 1_555 1_555
C24 N7 1_555 1_555
H19 C24 1_555 1_555
H20 C24 1_555 1_555
C25 N5 1_555 1_555
C26 N5 1_555 1_555
H21 C26 1_555 1_555
C27 N6 1_555 1_555
C28 C27 1_555 1_555
H22 C28 1_555 1_555
C29 C28 1_555 1_555
C30 C29 1_555 1_555
C31 C30 1_555 1_555
H23 C31 1_555 1_555
H24 C31 1_555 1_555
H25 C31 1_555 1_555
C32 C25 1_555 1_555
H26 C32 1_555 1_555
C33 N6 1_555 1_555
H27 C33 1_555 1_555
H28 C33 1_555 1_555
C34 C33 1_555 1_555
C35 C34 1_555 1_555
H29 C35 1_555 1_555
C36 C35 1_555 1_555
H30 C36 1_555 1_555
C37 C36 1_555 1_555
H31 C37 1_555 1_555
C38 C37 1_555 1_555
C39 C34 1_555 1_555
H32 C39 1_555 1_555
C40 C38 1_555 1_555
H33 C40 1_555 1_555
H34 C40 1_555 1_555
C41 N4 1_555 1_555
C42 C41 1_555 1_555
H35 C42 1_555 1_555
C43 C42 1_555 1_555
C44 C43 1_555 1_555
H36 C44 1_555 1_555
H37 C44 1_555 1_555
H38 C44 1_555 1_555
C45 H39 1_555 1_555
H40 C45 1_555 1_555
H41 C45 1_555 1_555
C46 C43 1_555 1_555
C47 C3 1_555 1_555
H42 C47 1_555 1_555
H43 C47 1_555 1_555
H44 C47 1_555 1_555
C48 C2 1_555 1_555
H45 C48 1_555 1_555
H46 C48 1_555 1_555
H47 C48 1_555 1_555
C49 C29 1_555 1_555
H48 C49 1_555 1_555
H49 C49 1_555 1_555
H50 C49 1_555 1_555
C50 C46 1_555 1_555
H51 C50 1_555 1_555
C51 C41 1_555 1_555
N8 C51 1_555 1_555
C52 N4 1_555 1_555
H52 C52 1_555 1_555
H53 O1 1_555 1_555
O2 C53 1_555 1_555
O3 Zn1 1_555 1_555
C53 O3 1_555 1_555
H54 C53 1_555 1_555
Zn1A N8 1_555 1_555
Zn2_2 N2 1_555 1_555
N2_2 Zn2 1_555 1_555
N8A Zn1 1_555 1_555
N1 C5 1_555 1_555
C2 C6 1_555 1_555
C4 C5 1_555 1_555
C9 C10 1_555 1_555
C14 C16 1_555 1_555
C22 C23 1_555 1_555
C23 C24 1_555 1_555
C25 C27 1_555 1_555
C30 C32 1_555 1_555
C38 C39 1_555 1_555
C45 C46 1_555 1_555
C50 C51 1_555 1_555
N8 C52 1_555 1_555

#END
