
#######################################################################
#
#                 Cambridge Crystallographic Data Centre
#                                CCDC 
#
#######################################################################
#
# If this CIF has been generated from an entry in the Cambridge 
# Structural Database, then it will include bibliographic, chemical, 
# crystal, experimental, refinement or atomic coordinate data resulting 
# from the CCDC's data processing and validation procedures.
#
#######################################################################

data_KESYEO
_symmetry_cell_setting           monoclinic
_symmetry_space_group_name_H-M   'P 21/c'
_symmetry_Int_Tables_number      14
_space_group_name_Hall           '-P 2ybc'
loop_
_symmetry_equiv_pos_site_id
_symmetry_equiv_pos_as_xyz
1 x,y,z
2 -x,1/2+y,1/2-z
3 -x,-y,-z
4 x,1/2-y,1/2+z
_cell_length_a                   10.669(2)
_cell_length_b                   16.227(3)
_cell_length_c                   17.510(6)
_cell_angle_alpha                90
_cell_angle_beta                 110.65(3)
_cell_angle_gamma                90
_cell_volume                     2836.67
loop_
_atom_site_label
_atom_site_type_symbol
_atom_site_fract_x
_atom_site_fract_y
_atom_site_fract_z
Zn1 Zn 0.16596(6) -0.24878(3) -0.16023(4)
O1 O 0.2285(4) -0.3547(2) -0.1032(2)
O2 O 0.4104(4) -0.3140(3) -0.1246(3)
O3 O 0.2855(4) -0.1812(3) -0.0114(2)
O4 O 0.2693(4) -0.1463(2) -0.1359(2)
N1 N 0.1425(4) -0.2691(3) -0.2786(3)
N2 N 0.1979(4) -0.3000(3) -0.3856(3)
H1 H 0.2423 -0.3005 -0.4181
N3 N 0.4612(5) -0.2320(3) -0.3055(3)
N4 N 0.5444(6) -0.2928(4) -0.2687(4)
N5 N 0.6327(6) -0.3011(5) -0.3046(5)
N6 N 0.6026(7) -0.2464(5) -0.3650(5)
N7 N -0.0144(4) -0.2262(3) -0.1497(3)
N8 N -0.1849(5) -0.2200(3) -0.1060(3)
H2 H -0.2375 -0.2330 -0.0803
N9 N -0.0841(9) -0.4108(5) -0.0965(6)
N10 N -0.2087(9) -0.4277(4) -0.1342(6)
N11 N -0.2266(9) -0.5029(4) -0.1644(6)
N12 N -0.1117(9) -0.5358(4) -0.1350(6)
C1 C 0.3512(6) -0.3628(4) -0.0948(4)
C2 C 0.3751(7) -0.4815(4) 0.0010(5)
H3 H 0.2904 -0.4699 0.0020
C3 C 0.4260(6) -0.4348(3) -0.0457(3)
C4 C 0.5518(7) -0.4540(4) -0.0470(5)
H4 H 0.5875 -0.4231 -0.0792
C5 C 0.3154(5) -0.1354(3) -0.0591(3)
C6 C 0.4578(5) -0.0453(3) 0.0537(3)
H5 H 0.4295 -0.0749 0.0901
C7 C 0.4100(5) -0.0660(3) -0.0282(3)
C8 C 0.4518(5) -0.0195(3) -0.0823(3)
H6 H 0.4190 -0.0320 -0.1377
C9 C 0.0452(5) -0.3218(3) -0.3298(3)
C10 C -0.0710(6) -0.3524(4) -0.3224(4)
H7 H -0.0964 -0.3383 -0.2784
C11 C -0.1477(6) -0.4049(4) -0.3831(4)
H8 H -0.2269 -0.4261 -0.3803
C12 C -0.1090(6) -0.4266(4) -0.4481(4)
H9 H -0.1615 -0.4636 -0.4867
C13 C 0.0041(6) -0.3954(4) -0.4573(4)
H10 H 0.0284 -0.4090 -0.5018
C14 C 0.0803(5) -0.3425(3) -0.3965(3)
C15 C 0.2303(5) -0.2579(3) -0.3159(3)
C16 C 0.3503(5) -0.2026(3) -0.2835(4)
H11 H 0.3262 -0.1475 -0.3051
H12 H 0.3779 -0.1997 -0.2245
C17 C 0.5001(7) -0.2061(5) -0.3647(4)
H13 H 0.4587 -0.1644 -0.4013
C18 C -0.0935(5) -0.1568(3) -0.1848(3)
C19 C -0.0769(7) -0.0969(4) -0.2369(4)
H14 H -0.0068 -0.0986 -0.2567
C20 C -0.1710(9) -0.0345(5) -0.2576(5)
H15 H -0.1626 0.0072 -0.2919
C21 C -0.2763(9) -0.0312(5) -0.2299(5)
H16 H -0.3373 0.0120 -0.2465
C22 C -0.2934(7) -0.0898(5) -0.1787(5)
H17 H -0.3639 -0.0873 -0.1592
C23 C -0.1998(6) -0.1538(4) -0.1570(4)
C24 C -0.0737(6) -0.2612(3) -0.1029(3)
C25 C -0.0272(7) -0.3359(4) -0.0535(4)
H18 H 0.0696 -0.3389 -0.0365
H19 H -0.0502 -0.3319 -0.0048
C26 C -0.0287(11) -0.4799(5) -0.0961(8)
H20 H 0.0625 -0.4892 -0.0703
Zn1B Zn 0.83404(6) -0.75122(3) 0.16023(4)
Zn1B_2 Zn 0.83404(6) 0.24878(3) 0.16023(4)
O1B O 0.7715(4) -0.6453(2) 0.1032(2)
O2B O 0.5896(4) -0.6860(3) 0.1246(3)
O3B O 0.7145(4) 0.1812(3) 0.0114(2)
O4B O 0.7307(4) 0.1463(2) 0.1359(2)
O4B_2 O 0.7307(4) -0.8537(2) 0.1359(2)
N1B N 0.8575(4) -0.7309(3) 0.2786(3)
N2B N 0.8021(4) -0.7000(3) 0.3856(3)
H1B H 0.7577 -0.6995 0.4181
N3B N 0.5388(5) -0.7680(3) 0.3055(3)
N4B N 0.4556(6) -0.7072(4) 0.2687(4)
N5B N 0.3673(6) -0.6989(5) 0.3046(5)
N6B N 0.3974(7) -0.7536(5) 0.3650(5)
N7B N 1.0144(4) -0.7738(3) 0.1497(3)
N8B N 1.1849(5) -0.7800(3) 0.1060(3)
H2B H 1.2375 -0.7670 0.0803
N9B N 1.0841(9) -0.5892(5) 0.0965(6)
N10B N 1.2087(9) -0.5723(4) 0.1342(6)
N11B N 1.2266(9) -0.4971(4) 0.1644(6)
N12B N 1.1117(9) -0.4642(4) 0.1350(6)
C1B C 0.6488(6) -0.6372(4) 0.0948(4)
C2B C 0.6249(7) -0.5185(4) -0.0010(5)
H3B H 0.7096 -0.5301 -0.0020
C3B C 0.5740(6) -0.5652(3) 0.0457(3)
C4B C 0.4482(7) -0.5460(4) 0.0470(5)
H4B H 0.4125 -0.5769 0.0792
C5B C 0.6846(5) 0.1354(3) 0.0591(3)
C6B C 0.5422(5) 0.0453(3) -0.0537(3)
H5B H 0.5705 0.0749 -0.0901
C7B C 0.5900(5) 0.0660(3) 0.0282(3)
C8B C 0.5482(5) 0.0195(3) 0.0823(3)
H6B H 0.5810 0.0320 0.1377
C9B C 0.9548(5) -0.6782(3) 0.3298(3)
C10B C 1.0710(6) -0.6476(4) 0.3224(4)
H7B H 1.0964 -0.6617 0.2784
C11B C 1.1477(6) -0.5951(4) 0.3831(4)
H8B H 1.2269 -0.5739 0.3803
C12B C 1.1090(6) -0.5734(4) 0.4481(4)
H9B H 1.1615 -0.5364 0.4867
C13B C 0.9959(6) -0.6046(4) 0.4573(4)
H10B H 0.9716 -0.5910 0.5018
C14B C 0.9197(5) -0.6575(3) 0.3965(3)
C15B C 0.7697(5) -0.7421(3) 0.3159(3)
C16B C 0.6497(5) -0.7974(3) 0.2835(4)
H11B H 0.6738 -0.8525 0.3051
H12B H 0.6221 -0.8003 0.2245
C17B C 0.4999(7) -0.7939(5) 0.3647(4)
H13B H 0.5413 -0.8356 0.4013
C18B C 1.0935(5) -0.8432(3) 0.1848(3)
C19B C 1.0769(7) -0.9031(4) 0.2369(4)
H14B H 1.0068 -0.9014 0.2567
C20B C 1.1710(9) -0.9655(5) 0.2576(5)
H15B H 1.1626 -1.0072 0.2919
C21B C 1.2763(9) -0.9688(5) 0.2299(5)
H16B H 1.3373 -1.0120 0.2465
C22B C 1.2934(7) -0.9102(5) 0.1787(5)
H17B H 1.3639 -0.9127 0.1592
C23B C 1.1998(6) -0.8462(4) 0.1570(4)
C24B C 1.0737(6) -0.7388(3) 0.1029(3)
C25B C 1.0272(7) -0.6641(4) 0.0535(4)
H18B H 0.9304 -0.6611 0.0365
H19B H 1.0502 -0.6681 0.0048
C26B C 1.0287(11) -0.5201(5) 0.0961(8)
H20B H 0.9375 -0.5108 0.0703
O5 O 0.6518(7) -0.2478(4) -0.0236(4)
H21 H 0.6504 -0.2471 0.0246
H22 H 0.5717 -0.2589 -0.0535
loop_
_geom_bond_atom_site_label_1
_geom_bond_atom_site_label_2
_geom_bond_site_symmetry_1
_geom_bond_site_symmetry_2
Zn1 O1 1_555 1_555
O1 C1 1_555 1_555
O2 C1 1_555 1_555
O3 C5 1_555 1_555
O4 Zn1 1_555 1_555
N1 Zn1 1_555 1_555
N2 H1 1_555 1_555
N3 N4 1_555 1_555
N4 N5 1_555 1_555
N5 N6 1_555 1_555
N6 C17 1_555 1_555
N7 Zn1 1_555 1_555
N8 H2 1_555 1_555
N9 N10 1_555 1_555
N10 N11 1_555 1_555
N11 N12 1_555 1_555
N12 C26 1_555 1_555
C1 C3 1_555 1_555
C2 H3 1_555 1_555
C3 C2 1_555 1_555
C4 C3 1_555 1_555
H4 C4 1_555 1_555
C5 O4 1_555 1_555
C6 H5 1_555 1_555
C7 C5 1_555 1_555
C8 C7 1_555 1_555
H6 C8 1_555 1_555
C9 N1 1_555 1_555
C10 C9 1_555 1_555
H7 C10 1_555 1_555
C11 C10 1_555 1_555
H8 C11 1_555 1_555
C12 C11 1_555 1_555
H9 C12 1_555 1_555
C13 C12 1_555 1_555
H10 C13 1_555 1_555
C14 N2 1_555 1_555
C15 N1 1_555 1_555
C16 N3 1_555 1_555
H11 C16 1_555 1_555
H12 C16 1_555 1_555
C17 N3 1_555 1_555
H13 C17 1_555 1_555
C18 N7 1_555 1_555
C19 C18 1_555 1_555
H14 C19 1_555 1_555
C20 C19 1_555 1_555
H15 C20 1_555 1_555
C21 C20 1_555 1_555
H16 C21 1_555 1_555
C22 C21 1_555 1_555
H17 C22 1_555 1_555
C23 N8 1_555 1_555
C24 N7 1_555 1_555
C25 N9 1_555 1_555
H18 C25 1_555 1_555
H19 C25 1_555 1_555
C26 N9 1_555 1_555
H20 C26 1_555 1_555
O5 H21 1_555 1_555
H22 O5 1_555 1_555
Zn1B O1B 1_555 1_555
Zn1B_2 O4B 1_555 1_555
O1B C1B 1_555 1_555
O2B C1B 1_555 1_555
O3B C5B 1_555 1_555
O4B C5B 1_555 1_555
O4B_2 Zn1B 1_555 1_555
N1B Zn1B 1_555 1_555
N2B H1B 1_555 1_555
N3B N4B 1_555 1_555
N4B N5B 1_555 1_555
N5B N6B 1_555 1_555
N6B C17B 1_555 1_555
N7B Zn1B 1_555 1_555
N8B H2B 1_555 1_555
N9B N10B 1_555 1_555
N10B N11B 1_555 1_555
N11B N12B 1_555 1_555
N12B C26B 1_555 1_555
C1B C3B 1_555 1_555
C2B C4 1_555 1_555
H3B C2B 1_555 1_555
C3B C2B 1_555 1_555
C4B C2 1_555 1_555
H4B C4B 1_555 1_555
C5B C7B 1_555 1_555
C6B C8 1_555 1_555
H5B C6B 1_555 1_555
C7B C6B 1_555 1_555
C8B C6 1_555 1_555
H6B C8B 1_555 1_555
C9B N1B 1_555 1_555
C10B C9B 1_555 1_555
H7B C10B 1_555 1_555
C11B C10B 1_555 1_555
H8B C11B 1_555 1_555
C12B C11B 1_555 1_555
H9B C12B 1_555 1_555
C13B C12B 1_555 1_555
H10B C13B 1_555 1_555
C14B N2B 1_555 1_555
C15B N1B 1_555 1_555
C16B N3B 1_555 1_555
H11B C16B 1_555 1_555
H12B C16B 1_555 1_555
C17B N3B 1_555 1_555
H13B C17B 1_555 1_555
C18B N7B 1_555 1_555
C19B C18B 1_555 1_555
H14B C19B 1_555 1_555
C20B C19B 1_555 1_555
H15B C20B 1_555 1_555
C21B C20B 1_555 1_555
H16B C21B 1_555 1_555
C22B C21B 1_555 1_555
H17B C22B 1_555 1_555
C23B N8B 1_555 1_555
C24B N7B 1_555 1_555
C25B N9B 1_555 1_555
H18B C25B 1_555 1_555
H19B C25B 1_555 1_555
C26B N9B 1_555 1_555
H20B C26B 1_555 1_555
N2 C15 1_555 1_555
N8 C24 1_555 1_555
C6 C7 1_555 1_555
C9 C14 1_555 1_555
C13 C14 1_555 1_555
C15 C16 1_555 1_555
C18 C23 1_555 1_555
C22 C23 1_555 1_555
C24 C25 1_555 1_555
N2B C15B 1_555 1_555
N8B C24B 1_555 1_555
C3B C4B 1_555 1_555
C7B C8B 1_555 1_555
C9B C14B 1_555 1_555
C13B C14B 1_555 1_555
C15B C16B 1_555 1_555
C18B C23B 1_555 1_555
C22B C23B 1_555 1_555
C24B C25B 1_555 1_555

#END
