
#######################################################################
#
#                 Cambridge Crystallographic Data Centre
#                                CCDC 
#
#######################################################################
#
# If this CIF has been generated from an entry in the Cambridge 
# Structural Database, then it will include bibliographic, chemical, 
# crystal, experimental, refinement or atomic coordinate data resulting 
# from the CCDC's data processing and validation procedures.
#
#######################################################################

data_KETCOD
_symmetry_cell_setting           monoclinic
_symmetry_space_group_name_H-M   'C 2/c'
_symmetry_Int_Tables_number      15
_space_group_name_Hall           '-C 2yn'
loop_
_symmetry_equiv_pos_site_id
_symmetry_equiv_pos_as_xyz
1 x,y,z
2 -x,y,1/2-z
3 1/2+x,1/2+y,z
4 1/2-x,1/2+y,1/2-z
5 -x,-y,-z
6 x,-y,1/2+z
7 1/2-x,1/2-y,-z
8 1/2+x,1/2-y,1/2+z
_cell_length_a                   18.9697(19)
_cell_length_b                   17.5113(17)
_cell_length_c                   15.6937(16)
_cell_angle_alpha                90
_cell_angle_beta                 113.228(2)
_cell_angle_gamma                90
_cell_volume                     4790.63
loop_
_atom_site_label
_atom_site_type_symbol
_atom_site_fract_x
_atom_site_fract_y
_atom_site_fract_z
Mn1 Mn 0.05954(3) 0.17536(3) 0.67473(4)
Cl1 Cl 0.06826(8) 0.94498(6) 0.68046(10)
Cl2 Cl -0.08150(7) 0.69467(7) 0.51803(9)
N1 N 0.1164(2) 0.56230(18) 0.7240(3)
H1 H 0.1609 0.5803 0.7576
N2 N -0.01504(19) 0.27846(19) 0.6219(2)
N3 N 0.13436(19) 0.27990(18) 0.7358(2)
N4 N -0.0092(2) 0.55909(19) 0.6302(3)
C1 C -0.0218(2) 0.4160(2) 0.6185(3)
C2 C 0.1393(2) 0.4178(2) 0.7411(3)
C3 C 0.0197(2) 0.4859(2) 0.6513(3)
C4 C 0.0513(2) 0.6873(2) 0.6764(3)
C5 C 0.2171(2) 0.4139(3) 0.8011(3)
H2 H 0.2453 0.4584 0.8229
C6 C 0.0185(2) 0.3478(2) 0.6491(3)
C7 C 0.0987(2) 0.3487(2) 0.7100(3)
C8 C 0.0958(2) 0.4864(2) 0.7079(3)
C9 C -0.0879(3) 0.2771(3) 0.5639(3)
H3 H -0.1112 0.2298 0.5451
C10 C 0.2077(2) 0.2785(3) 0.7918(3)
H4 H 0.2317 0.2313 0.8085
C11 C -0.0988(3) 0.4121(3) 0.5574(4)
H5 H -0.1273 0.4565 0.5361
C12 C -0.0028(2) 0.7322(2) 0.6090(3)
C13 C 0.0511(2) 0.6033(2) 0.6751(3)
C14 C 0.1089(3) 0.7257(2) 0.7478(3)
H6 H 0.1455 0.6973 0.7945
C15 C 0.0024(3) 0.8116(2) 0.6104(3)
H7 H -0.0334 0.8407 0.5638
C16 C 0.2507(3) 0.3439(3) 0.8272(3)
H8 H 0.3018 0.3402 0.8681
C17 C -0.1317(3) 0.3423(3) 0.5293(4)
H9 H -0.1826 0.3384 0.4877
C18 C 0.0612(2) 0.8458(2) 0.6815(3)
C19 C 0.1139(3) 0.8048(2) 0.7520(3)
H10 H 0.1520 0.8292 0.8015
O1 O 0.11027(15) 0.12512(16) 0.5975(2)
O2 O 0.23586(17) 0.12164(19) 0.6855(2)
C20 C 0.1894(2) 0.0678(2) 0.5337(3)
C21 C 0.1369(2) 0.0124(2) 0.4833(3)
H11 H 0.0942 0.0024 0.4967
C22 C 0.2513(2) 0.0844(3) 0.5111(3)
H12 H 0.2871 0.1209 0.5447
C23 C 0.1785(3) 0.1087(2) 0.6116(3)
C24 C 0.0922(2) -0.0901(2) 0.3627(3)
C25 C 0.2095(2) -0.0099(2) 0.3910(3)
H13 H 0.2167 -0.0363 0.3436
C26 C 0.1476(2) -0.0278(2) 0.4136(3)
C27 C 0.2600(2) 0.0464(3) 0.4382(3)
H14 H 0.3002 0.0593 0.4213
O3 O 0.03734(18) -0.10347(16) 0.3849(2)
O4 O 0.10665(18) -0.12554(18) 0.3021(2)
Mn1D Mn -0.05954(3) -0.17536(3) 0.32527(4)
Mn1E Mn 0.05954(3) -0.17536(3) 0.17473(4)
O3D O -0.03734(18) 0.10347(16) 0.6151(2)
O4E O 0.10665(18) 0.12554(18) 0.8021(2)
loop_
_geom_bond_atom_site_label_1
_geom_bond_atom_site_label_2
_geom_bond_site_symmetry_1
_geom_bond_site_symmetry_2
Mn1 N2 1_555 1_555
Cl1 C18 1_555 1_555
Cl2 C12 1_555 1_555
N1 H1 1_555 1_555
N2 C6 1_555 1_555
N3 Mn1 1_555 1_555
N4 C3 1_555 1_555
C1 C3 1_555 1_555
C2 C5 1_555 1_555
C3 C8 1_555 1_555
C4 C12 1_555 1_555
C5 H2 1_555 1_555
C6 C1 1_555 1_555
C7 N3 1_555 1_555
C8 N1 1_555 1_555
C9 N2 1_555 1_555
H3 C9 1_555 1_555
C10 N3 1_555 1_555
H4 C10 1_555 1_555
C11 C1 1_555 1_555
H5 C11 1_555 1_555
C12 C15 1_555 1_555
C13 N1 1_555 1_555
C14 C4 1_555 1_555
H6 C14 1_555 1_555
C15 H7 1_555 1_555
C16 C5 1_555 1_555
H8 C16 1_555 1_555
C17 C9 1_555 1_555
H9 C17 1_555 1_555
C18 C15 1_555 1_555
C19 C14 1_555 1_555
H10 C19 1_555 1_555
O1 Mn1 1_555 1_555
O2 C23 1_555 1_555
C20 C21 1_555 1_555
C21 H11 1_555 1_555
C22 C20 1_555 1_555
H12 C22 1_555 1_555
C23 O1 1_555 1_555
C24 C26 1_555 1_555
C25 H13 1_555 1_555
C26 C21 1_555 1_555
C27 C22 1_555 1_555
H14 C27 1_555 1_555
O3 C24 1_555 1_555
O4 C24 1_555 1_555
Mn1D O3 1_555 1_555
Mn1E O4 1_555 1_555
O3D Mn1 1_555 1_555
O4E Mn1 1_555 1_555
N4 C13 1_555 1_555
C2 C7 1_555 1_555
C2 C8 1_555 1_555
C4 C13 1_555 1_555
C6 C7 1_555 1_555
C10 C16 1_555 1_555
C11 C17 1_555 1_555
C18 C19 1_555 1_555
C20 C23 1_555 1_555
C25 C26 1_555 1_555
C25 C27 1_555 1_555

#END
