
#######################################################################
#
#                 Cambridge Crystallographic Data Centre
#                                CCDC 
#
#######################################################################
#
# If this CIF has been generated from an entry in the Cambridge 
# Structural Database, then it will include bibliographic, chemical, 
# crystal, experimental, refinement or atomic coordinate data resulting 
# from the CCDC's data processing and validation procedures.
#
#######################################################################

data_KETCUJ
_symmetry_cell_setting           monoclinic
_symmetry_space_group_name_H-M   'C 2/c'
_symmetry_Int_Tables_number      15
_space_group_name_Hall           '-C 2yn'
loop_
_symmetry_equiv_pos_site_id
_symmetry_equiv_pos_as_xyz
1 x,y,z
2 -x,y,1/2-z
3 1/2+x,1/2+y,z
4 1/2-x,1/2+y,1/2-z
5 -x,-y,-z
6 x,-y,1/2+z
7 1/2-x,1/2-y,-z
8 1/2+x,1/2-y,1/2+z
_cell_length_a                   15.531(2)
_cell_length_b                   19.833(3)
_cell_length_c                   17.188(2)
_cell_angle_alpha                90
_cell_angle_beta                 99.098(2)
_cell_angle_gamma                90
_cell_volume                     5227.75
loop_
_atom_site_label
_atom_site_type_symbol
_atom_site_fract_x
_atom_site_fract_y
_atom_site_fract_z
Pb1 Pb 0.821571(9) 0.136927(8) 0.197392(8)
C1 C 0.6603(2) 0.09928(19) 0.2989(2)
O1 O 0.66639(18) 0.13839(13) 0.10190(16)
N1 N 0.5169(2) -0.06261(17) 0.3638(2)
N2 N 0.4690(2) 0.04044(17) 0.38825(19)
H1 H 0.4375 0.0716 0.4043
N3 N 0.7575(2) 0.02765(16) 0.24214(18)
O2 O 0.73378(17) 0.23445(14) 0.13553(16)
C2 C 0.6751(2) 0.2012(2) 0.0942(2)
N4 N 0.7096(2) 0.15209(16) 0.28267(19)
C3 C 0.5406(2) 0.0493(2) 0.3518(2)
C4 C 0.5853(3) 0.1091(2) 0.3350(2)
O3 O 0.2080(2) -0.01742(18) 0.5368(2)
C5 C 0.7852(3) -0.0331(2) 0.2257(2)
H2 H 0.8340 -0.0364 0.2006
C6 C 0.5684(2) -0.0142(2) 0.3367(2)
C7 C 0.3786(3) -0.1280(2) 0.4282(3)
H3 H 0.4169 -0.1540 0.4043
C8 C 0.6130(2) 0.23634(19) 0.0307(2)
C9 C 0.2658(3) -0.0513(2) 0.4995(2)
C10 C 0.3139(3) -0.1593(3) 0.4612(3)
H4 H 0.3078 -0.2059 0.4589
C11 C 0.3311(3) -0.0200(2) 0.4658(2)
H5 H 0.3369 0.0267 0.4674
C12 C 0.6870(2) 0.0329(2) 0.2786(2)
C13 C 0.6423(2) -0.0247(2) 0.2984(2)
C14 C 0.2020(3) 0.0537(3) 0.5275(3)
H6 H 0.1590 0.0710 0.5567
H7 H 0.1854 0.0644 0.4727
H8 H 0.2576 0.0738 0.5467
C15 C 0.3873(3) -0.0589(2) 0.4300(2)
C16 C 0.4575(3) -0.0279(2) 0.3941(2)
C17 C 0.7451(3) -0.0919(2) 0.2439(3)
H9 H 0.7669 -0.1335 0.2316
C18 C 0.2585(3) -0.1207(2) 0.4977(3)
H10 H 0.2157 -0.1416 0.5215
C19 C 0.5119(2) 0.3276(2) -0.0173(2)
C20 C 0.5431(3) 0.2386(2) -0.1041(2)
H11 H 0.5353 0.2187 -0.1536
C21 C 0.5687(2) 0.29632(19) 0.0457(2)
C22 C 0.6000(3) 0.2088(2) -0.0427(2)
H12 H 0.6295 0.1695 -0.0521
C23 C 0.5762(3) 0.3244(2) 0.1222(2)
H13 H 0.6123 0.3039 0.1638
C24 C 0.6735(3) -0.0884(2) 0.2800(2)
H14 H 0.6455 -0.1275 0.2923
C25 C 0.6891(3) 0.2133(2) 0.3034(2)
H15 H 0.7252 0.2489 0.2942
C26 C 0.5643(3) 0.1742(2) 0.3539(2)
H16 H 0.5151 0.1822 0.3771
C27 C 0.6162(3) 0.2270(2) 0.3383(3)
H17 H 0.6028 0.2710 0.3508
C28 C 0.4350(3) 0.3224(2) -0.1614(2)
C29 C 0.4986(2) 0.2962(2) -0.0932(2)
C30 C 0.4681(3) 0.3874(2) -0.0002(3)
H18 H 0.4323 0.4097 -0.0406
C31 C 0.4777(3) 0.4126(2) 0.0739(3)
H19 H 0.4478 0.4516 0.0835
C32 C 0.5312(3) 0.3813(2) 0.1359(3)
H20 H 0.5364 0.3990 0.1866
O4 O 0.39285(18) 0.28024(15) -0.20640(17)
O5 O 0.4262(2) 0.38416(15) -0.17243(18)
Pb1G Pb 1.321571(9) 0.363073(8) 0.697392(8)
Pb1G_2 Pb 0.321571(9) 0.363073(8) -0.302608(8)
C1G C 1.1603(2) 0.40072(19) 0.7989(2)
O1G O 1.16639(18) 0.36161(13) 0.60190(16)
N1G N 1.0169(2) 0.56261(17) 0.8638(2)
N2G N 0.9690(2) 0.45956(17) 0.88825(19)
H1G H 0.9375 0.4284 0.9043
N3G N 1.2575(2) 0.47235(16) 0.74214(18)
O2G O 1.23378(17) 0.26555(14) 0.63553(16)
C2G C 1.1751(2) 0.2988(2) 0.5942(2)
N4G N 1.2096(2) 0.34791(16) 0.78267(19)
C3G C 1.0406(2) 0.4507(2) 0.8518(2)
C4G C 1.0853(3) 0.3909(2) 0.8350(2)
O3G O 0.7080(2) 0.51742(18) 1.0368(2)
C5G C 1.2852(3) 0.5331(2) 0.7257(2)
H2G H 1.3340 0.5364 0.7006
C6G C 1.0684(2) 0.5142(2) 0.8367(2)
C7G C 0.8786(3) 0.6280(2) 0.9282(3)
H3G H 0.9169 0.6540 0.9043
C8G C 1.1130(2) 0.26366(19) 0.5307(2)
C9G C 0.7658(3) 0.5513(2) 0.9995(2)
C10G C 0.8139(3) 0.6593(3) 0.9612(3)
H4G H 0.8078 0.7059 0.9589
C11G C 0.8311(3) 0.5200(2) 0.9658(2)
H5G H 0.8369 0.4733 0.9674
C12G C 1.1870(2) 0.4671(2) 0.7786(2)
C13G C 1.1423(2) 0.5247(2) 0.7984(2)
C14G C 0.7020(3) 0.4463(3) 1.0275(3)
H6G H 0.6590 0.4290 1.0567
H7G H 0.6854 0.4356 0.9727
H8G H 0.7576 0.4262 1.0467
C15G C 0.8873(3) 0.5589(2) 0.9300(2)
C16G C 0.9575(3) 0.5279(2) 0.8941(2)
C17G C 1.2451(3) 0.5919(2) 0.7439(3)
H9G H 1.2669 0.6335 0.7316
C18G C 0.7585(3) 0.6207(2) 0.9977(3)
H10G H 0.7157 0.6416 1.0215
C19G C 1.0119(2) 0.1724(2) 0.4827(2)
C20G C 1.0431(3) 0.2614(2) 0.3959(2)
H11G H 1.0353 0.2813 0.3464
C21G C 1.0687(2) 0.20368(19) 0.5457(2)
C22G C 1.1000(3) 0.2912(2) 0.4573(2)
H12G H 1.1295 0.3305 0.4479
C23G C 1.0762(3) 0.1756(2) 0.6222(2)
H13G H 1.1123 0.1961 0.6638
C24G C 1.1735(3) 0.5884(2) 0.7800(2)
H14G H 1.1455 0.6275 0.7923
C25G C 1.1891(3) 0.2867(2) 0.8034(2)
H15G H 1.2252 0.2511 0.7942
C26G C 1.0643(3) 0.3258(2) 0.8539(2)
H16G H 1.0151 0.3178 0.8771
C27G C 1.1162(3) 0.2730(2) 0.8383(3)
H17G H 1.1028 0.2290 0.8508
C28G C 0.9350(3) 0.1776(2) 0.3386(2)
C29G C 0.9986(2) 0.2038(2) 0.4068(2)
C30G C 0.9681(3) 0.1126(2) 0.4998(3)
H18G H 0.9323 0.0903 0.4594
C31G C 0.9777(3) 0.0874(2) 0.5739(3)
H19G H 0.9478 0.0484 0.5835
C32G C 1.0312(3) 0.1187(2) 0.6359(3)
H20G H 1.0364 0.1010 0.6866
O4G O 0.89285(18) 0.21976(15) 0.29360(17)
O4_2 O 1.39285(18) 0.28024(15) 0.79360(17)
O5G O 0.9262(2) 0.11584(15) 0.32757(18)
O5_2 O 1.4262(2) 0.38416(15) 0.82757(18)
O6 O 0.5000 0.4849(3) -0.2500
H21 H 0.5480 0.5152 -0.2508
H21A H 0.4520 0.5152 -0.2492
loop_
_geom_bond_atom_site_label_1
_geom_bond_atom_site_label_2
_geom_bond_site_symmetry_1
_geom_bond_site_symmetry_2
Pb1 O1 1_555 1_555
C1 N4 1_555 1_555
O1 C2 1_555 1_555
N1 C6 1_555 1_555
N2 H1 1_555 1_555
N3 Pb1 1_555 1_555
O2 Pb1 1_555 1_555
C2 O2 1_555 1_555
N4 Pb1 1_555 1_555
C3 N2 1_555 1_555
C4 C1 1_555 1_555
O3 C9 1_555 1_555
C5 N3 1_555 1_555
H2 C5 1_555 1_555
C6 C3 1_555 1_555
C7 H3 1_555 1_555
C8 C2 1_555 1_555
C9 C11 1_555 1_555
C10 C7 1_555 1_555
H4 C10 1_555 1_555
C11 H5 1_555 1_555
C12 C1 1_555 1_555
C13 C6 1_555 1_555
C14 O3 1_555 1_555
H6 C14 1_555 1_555
H7 C14 1_555 1_555
H8 C14 1_555 1_555
C15 C7 1_555 1_555
C16 N1 1_555 1_555
C17 C5 1_555 1_555
H9 C17 1_555 1_555
C18 C9 1_555 1_555
H10 C18 1_555 1_555
C19 C21 1_555 1_555
C20 H11 1_555 1_555
C21 C8 1_555 1_555
C22 C8 1_555 1_555
H12 C22 1_555 1_555
C23 C21 1_555 1_555
H13 C23 1_555 1_555
C24 C13 1_555 1_555
H14 C24 1_555 1_555
C25 N4 1_555 1_555
H15 C25 1_555 1_555
C26 C4 1_555 1_555
H16 C26 1_555 1_555
C27 C25 1_555 1_555
H17 C27 1_555 1_555
C28 C29 1_555 1_555
C29 C19 1_555 1_555
C30 C19 1_555 1_555
H18 C30 1_555 1_555
C31 C30 1_555 1_555
H19 C31 1_555 1_555
C32 C23 1_555 1_555
H20 C32 1_555 1_555
O4 C28 1_555 1_555
O5 C28 1_555 1_555
O6 H21 1_555 1_555
Pb1G O1G 1_555 1_555
Pb1G_2 O4 1_555 1_555
C1G N4G 1_555 1_555
O1G C2G 1_555 1_555
N1G C6G 1_555 1_555
N2G H1G 1_555 1_555
N3G Pb1G 1_555 1_555
O2G Pb1G 1_555 1_555
C2G O2G 1_555 1_555
N4G Pb1G 1_555 1_555
C3G N2G 1_555 1_555
C4G C1G 1_555 1_555
O3G C9G 1_555 1_555
C5G N3G 1_555 1_555
H2G C5G 1_555 1_555
C6G C3G 1_555 1_555
C7G H3G 1_555 1_555
C8G C2G 1_555 1_555
C9G C11G 1_555 1_555
C10G C7G 1_555 1_555
H4G C10G 1_555 1_555
C11G H5G 1_555 1_555
C12G C1G 1_555 1_555
C13G C6G 1_555 1_555
C14G O3G 1_555 1_555
H6G C14G 1_555 1_555
H7G C14G 1_555 1_555
H8G C14G 1_555 1_555
C15G C7G 1_555 1_555
C16G N1G 1_555 1_555
C17G C5G 1_555 1_555
H9G C17G 1_555 1_555
C18G C9G 1_555 1_555
H10G C18G 1_555 1_555
C19G C21G 1_555 1_555
C20G H11G 1_555 1_555
C21G C8G 1_555 1_555
C22G C8G 1_555 1_555
H12G C22G 1_555 1_555
C23G C21G 1_555 1_555
H13G C23G 1_555 1_555
C24G C13G 1_555 1_555
H14G C24G 1_555 1_555
C25G N4G 1_555 1_555
H15G C25G 1_555 1_555
C26G C4G 1_555 1_555
H16G C26G 1_555 1_555
C27G C25G 1_555 1_555
H17G C27G 1_555 1_555
C28G C29G 1_555 1_555
C29G C19G 1_555 1_555
C30G C19G 1_555 1_555
H18G C30G 1_555 1_555
C31G C30G 1_555 1_555
H19G C31G 1_555 1_555
C32G C23G 1_555 1_555
H20G C32G 1_555 1_555
O4G Pb1 1_555 1_555
O4_2 Pb1G 1_555 1_555
O5G Pb1 1_555 1_555
O5_2 Pb1G 1_555 1_555
H21A O6 1_555 1_555
N2 C16 1_555 1_555
N3 C12 1_555 1_555
C3 C4 1_555 1_555
C10 C18 1_555 1_555
C11 C15 1_555 1_555
C12 C13 1_555 1_555
C15 C16 1_555 1_555
C17 C24 1_555 1_555
C20 C22 1_555 1_555
C20 C29 1_555 1_555
C26 C27 1_555 1_555
C31 C32 1_555 1_555
O5 Pb1G_2 1_555 1_555
N2G C16G 1_555 1_555
N3G C12G 1_555 1_555
C3G C4G 1_555 1_555
C10G C18G 1_555 1_555
C11G C15G 1_555 1_555
C12G C13G 1_555 1_555
C15G C16G 1_555 1_555
C17G C24G 1_555 1_555
C20G C22G 1_555 1_555
C20G C29G 1_555 1_555
C26G C27G 1_555 1_555
C28G O4G 1_555 1_555
C28G O5G 1_555 1_555
C31G C32G 1_555 1_555

#END
