
#######################################################################
#
#                 Cambridge Crystallographic Data Centre
#                                CCDC 
#
#######################################################################
#
# If this CIF has been generated from an entry in the Cambridge 
# Structural Database, then it will include bibliographic, chemical, 
# crystal, experimental, refinement or atomic coordinate data resulting 
# from the CCDC's data processing and validation procedures.
#
#######################################################################

data_KETDUK
_symmetry_cell_setting           monoclinic
_symmetry_space_group_name_H-M   'P 21/c'
_symmetry_Int_Tables_number      14
_space_group_name_Hall           '-P 2ybc'
loop_
_symmetry_equiv_pos_site_id
_symmetry_equiv_pos_as_xyz
1 x,y,z
2 -x,1/2+y,1/2-z
3 -x,-y,-z
4 x,1/2-y,1/2+z
_cell_length_a                   22.163(16)
_cell_length_b                   14.194(10)
_cell_length_c                   22.615(16)
_cell_angle_alpha                90
_cell_angle_beta                 117.618(7)
_cell_angle_gamma                90
_cell_volume                     6303.65
loop_
_atom_site_label
_atom_site_type_symbol
_atom_site_fract_x
_atom_site_fract_y
_atom_site_fract_z
Ni1 Ni 0.75741(4) 0.20012(6) 0.68567(4)
Ni2 Ni 0.28877(4) 0.22243(6) 0.72119(4)
C1 C 0.9010(4) 0.2255(5) 0.6831(4)
C2 C 0.9607(4) 0.2110(5) 0.6776(4)
H1 H 0.9591 0.2152 0.6359
C3 C 1.0215(4) 0.1906(6) 0.7322(5)
H2 H 1.0601 0.1803 0.7270
C4 C 1.0256(4) 0.1855(7) 0.7944(4)
H3 H 1.0671 0.1724 0.8312
C5 C 0.9684(4) 0.1996(6) 0.8027(4)
H4 H 0.9721 0.1984 0.8454
C6 C 0.9055(4) 0.2157(5) 0.7482(3)
C7 C 0.8394(4) 0.2558(5) 0.6254(4)
C8 C 0.8515(4) 0.2911(6) 0.5673(4)
C9 C 0.7184(3) 0.2938(5) 0.5683(3)
C10 C 0.7172(4) 0.3647(5) 0.5254(4)
H5 H 0.7572 0.3838 0.5252
C11 C 0.6554(4) 0.4068(5) 0.4826(4)
H6 H 0.6544 0.4531 0.4531
C12 C 0.5956(4) 0.3809(5) 0.4834(4)
H7 H 0.5548 0.4106 0.4555
C13 C 0.5978(4) 0.3093(5) 0.5267(4)
H8 H 0.5578 0.2910 0.5272
C14 C 0.6580(3) 0.2654(5) 0.5688(3)
C15 C 0.8434(4) 0.2299(5) 0.8110(4)
C16 C 0.7799(4) 0.1879(5) 0.8122(4)
C17 C 0.6801(4) 0.0951(5) 0.7396(4)
C18 C 0.6760(4) 0.0470(5) 0.7916(4)
H9 H 0.7097 0.0559 0.8352
C19 C 0.6227(4) -0.0133(5) 0.7792(4)
H10 H 0.6205 -0.0443 0.8144
C20 C 0.5722(4) -0.0277(5) 0.7141(4)
H11 H 0.5369 -0.0697 0.7059
C21 C 0.5740(4) 0.0193(5) 0.6622(4)
H12 H 0.5396 0.0095 0.6190
C22 C 0.6275(3) 0.0828(5) 0.6737(3)
C23 C 0.6184(3) 0.1410(5) 0.6163(3)
C24 C 0.5496(4) 0.1325(5) 0.5527(3)
C25 C 0.3804(4) 0.2540(5) 0.8470(3)
C26 C 0.3142(3) 0.2242(5) 0.8481(3)
C27 C 0.4353(4) 0.2370(5) 0.7760(3)
C28 C 0.5003(4) 0.2252(6) 0.8299(4)
H13 H 0.5064 0.2255 0.8735
C29 C 0.5555(4) 0.2131(6) 0.8174(4)
H14 H 0.5986 0.2038 0.8530
C30 C 0.5479(4) 0.2146(6) 0.7537(4)
H15 H 0.5855 0.2061 0.7464
C31 C 0.4853(4) 0.2285(5) 0.7015(4)
H16 H 0.4806 0.2287 0.6585
C32 C 0.4269(3) 0.2426(5) 0.7104(3)
C33 C 0.3633(3) 0.2661(5) 0.6516(3)
C34 C 0.3730(4) 0.2921(5) 0.5905(3)
C35 C 0.2424(4) 0.3002(5) 0.5971(3)
C36 C 0.2352(4) 0.3676(5) 0.5487(4)
H17 H 0.2733 0.3915 0.5467
C37 C 0.1699(5) 0.3981(6) 0.5037(4)
H18 H 0.1647 0.4429 0.4717
C38 C 0.1135(4) 0.3629(7) 0.5060(4)
H19 H 0.0704 0.3831 0.4750
C39 C 0.1202(4) 0.2975(6) 0.5540(4)
H20 H 0.0817 0.2752 0.5558
C40 C 0.1839(3) 0.2651(5) 0.5994(3)
C41 C 0.0932(4) 0.1140(6) 0.5952(4)
C42 C 0.1579(4) 0.1393(5) 0.6569(4)
C43 C 0.1708(4) 0.0915(5) 0.7186(4)
C44 C 0.1277(4) 0.0144(5) 0.7131(4)
H21 H 0.0980 -0.0081 0.6708
C45 C 0.1281(4) -0.0280(6) 0.7673(4)
H22 H 0.1009 -0.0802 0.7625
C46 C 0.1699(4) 0.0083(6) 0.8293(4)
H23 H 0.1678 -0.0167 0.8664
C47 C 0.2153(4) 0.0815(5) 0.8384(4)
H24 H 0.2434 0.1042 0.8811
C48 C 0.2185(3) 0.1204(5) 0.7836(3)
C55 C 0.7311(4) 0.3731(6) 0.9096(4)
H39 H 0.7193 0.3138 0.9184
C56 C 0.7109(6) 0.5379(7) 0.8972(6)
H40 H 0.7513 0.5351 0.8916
H41 H 0.7198 0.5749 0.9359
H42 H 0.6747 0.5662 0.8585
C57 C 0.6311(5) 0.4315(9) 0.9153(6)
H43 H 0.6245 0.3657 0.9204
H44 H 0.5920 0.4559 0.8772
H45 H 0.6372 0.4649 0.9546
N1 N 0.1996(3) 0.2048(4) 0.6562(3)
N2 N 0.3048(3) 0.2673(4) 0.6510(3)
N3 N 0.2699(3) 0.1840(4) 0.7902(3)
N4 N 0.3777(3) 0.2410(4) 0.7870(3)
N5 N 0.6670(3) 0.1964(4) 0.6185(3)
N6 N 0.7784(3) 0.2535(4) 0.6214(3)
N7 N 0.7354(3) 0.1541(4) 0.7513(3)
N8 N 0.8451(3) 0.2144(4) 0.7538(3)
N9 N 0.6915(4) 0.4435(5) 0.9058(4)
O1 O 0.3919(3) 0.3746(3) 0.5892(3)
O2 O 0.3646(2) 0.2268(3) 0.5502(2)
O3 O 0.1011(3) 0.0650(4) 0.5536(3)
O4 O 0.0396(3) 0.1437(5) 0.5935(3)
O8 O 0.4427(3) 0.3520(3) 0.5046(2)
H53 H 0.4244 0.3745 0.5273
H54 H 0.4312 0.3851 0.4696
O9 O 0.3693(3) 0.0788(4) 0.4579(3)
H55 H 0.3281 0.0569 0.4427
H56 H 0.3958 0.0330 0.4736
O10 O 0.3120(2) 0.2315(4) 0.9020(2)
O11 O 0.4279(2) 0.2828(4) 0.8997(2)
O12 O 0.5013(2) 0.1739(4) 0.5560(2)
O13 O 0.5497(3) 0.0838(4) 0.5072(2)
O14 O 0.7841(3) 0.3793(4) 0.9024(3)
O15 O 0.9265(3) 0.3823(4) 0.9841(3)
H57 H 0.9639 0.3613 1.0103
O16 O 0.7773(3) 0.1858(4) 0.8658(2)
O17 O 0.8864(3) 0.2680(4) 0.8638(2)
O18 O 0.9278(3) 0.1635(5) 0.9859(3)
H58 H 0.9216 0.1409 1.0160
O19 O 0.8795(3) 0.3699(4) 0.5743(3)
O20 O 0.8339(3) 0.2347(4) 0.5195(2)
Zn1 Zn 0.40620(4) 0.21329(6) 0.48320(4)
Zn2 Zn 0.86124(5) 0.27571(7) 0.94282(4)
H59 H 0.923(5) 0.122(7) 0.961(5)
O10C O 0.3120(2) 0.2685(4) 0.4020(2)
O11C O 0.4279(2) 0.2172(4) 0.3997(2)
O20C O 0.8339(3) 0.2653(4) 1.0195(2)
Zn1C Zn 0.40620(4) 0.28671(6) 0.98320(4)
Zn2C Zn 0.86124(5) 0.22429(7) 0.44282(4)
C49 C 0.1887(7) -0.0035(9) 0.4160(7)
H25 H 0.1684 -0.0621 0.4121
C50 C 0.1818(7) 0.1622(8) 0.4207(7)
H26 H 0.2283 0.1552 0.4296
H27 H 0.1802 0.1940 0.4574
H28 H 0.1574 0.1984 0.3807
C51 C 0.0812(6) 0.0603(10) 0.3987(6)
H29 H 0.0695 -0.0053 0.3942
H30 H 0.0522 0.0926 0.3581
H31 H 0.0754 0.0868 0.4348
N10 N 0.1510(5) 0.0707(6) 0.4123(4)
O6 O 0.2470(5) -0.0041(6) 0.4238(6)
C52 C 0.0542(8) 0.0553(11) 0.2027(9)
H32 H 0.0156 0.0286 0.1653
H33 H 0.0454 0.1204 0.2074
H34 H 0.0622 0.0218 0.2426
C53 C 0.1757(8) 0.0835(11) 0.2420(7)
H35 H 0.2102 0.0739 0.2282
H36 H 0.1881 0.0509 0.2833
H37 H 0.1714 0.1496 0.2482
C54 C 0.1090(8) -0.0006(9) 0.1398(7)
H38 H 0.1488 -0.0050 0.1358
N11 N 0.1126(6) 0.0482(6) 0.1923(6)
O5 O 0.0601(6) -0.0387(7) 0.0980(5)
C58 C 0.3831(5) 0.5001(7) 0.3625(5)
H46 H 0.3481 0.5097 0.3736
C59 C 0.3206(6) 0.6021(9) 0.2688(6)
H47 H 0.2901 0.6036 0.2882
H48 H 0.2973 0.5769 0.2244
H49 H 0.3359 0.6648 0.2672
C60 C 0.4317(6) 0.5304(8) 0.2900(6)
H50 H 0.4658 0.4892 0.3215
H51 H 0.4520 0.5902 0.2899
H52 H 0.4131 0.5031 0.2462
N12 N 0.3780(4) 0.5438(5) 0.3087(4)
O7 O 0.4288(4) 0.4493(5) 0.3982(3)
loop_
_geom_bond_atom_site_label_1
_geom_bond_atom_site_label_2
_geom_bond_site_symmetry_1
_geom_bond_site_symmetry_2
Ni1 N5 1_555 1_555
Ni2 N1 1_555 1_555
C1 C2 1_555 1_555
C2 H1 1_555 1_555
C3 C2 1_555 1_555
H2 C3 1_555 1_555
C4 C3 1_555 1_555
H3 C4 1_555 1_555
C5 C4 1_555 1_555
H4 C5 1_555 1_555
C6 C1 1_555 1_555
C7 C1 1_555 1_555
C8 C7 1_555 1_555
C9 C10 1_555 1_555
C10 H5 1_555 1_555
C11 C10 1_555 1_555
H6 C11 1_555 1_555
C12 C11 1_555 1_555
H7 C12 1_555 1_555
C13 C12 1_555 1_555
H8 C13 1_555 1_555
C14 C9 1_555 1_555
C15 C16 1_555 1_555
C16 N7 1_555 1_555
C17 C18 1_555 1_555
C18 H9 1_555 1_555
C19 C18 1_555 1_555
H10 C19 1_555 1_555
C20 C19 1_555 1_555
H11 C20 1_555 1_555
C21 C20 1_555 1_555
H12 C21 1_555 1_555
C22 C17 1_555 1_555
C23 C22 1_555 1_555
C24 C23 1_555 1_555
C25 C26 1_555 1_555
C26 N3 1_555 1_555
C27 C28 1_555 1_555
C28 H13 1_555 1_555
C29 C28 1_555 1_555
H14 C29 1_555 1_555
C30 C29 1_555 1_555
H15 C30 1_555 1_555
C31 C30 1_555 1_555
H16 C31 1_555 1_555
C32 C27 1_555 1_555
C33 C32 1_555 1_555
C34 C33 1_555 1_555
C35 C36 1_555 1_555
C36 H17 1_555 1_555
C37 C36 1_555 1_555
H18 C37 1_555 1_555
C38 C37 1_555 1_555
H19 C38 1_555 1_555
C39 C38 1_555 1_555
H20 C39 1_555 1_555
C40 C35 1_555 1_555
C41 C42 1_555 1_555
C42 C43 1_555 1_555
C43 C44 1_555 1_555
C44 H21 1_555 1_555
C45 C44 1_555 1_555
H22 C45 1_555 1_555
C46 C45 1_555 1_555
H23 C46 1_555 1_555
C47 C46 1_555 1_555
H24 C47 1_555 1_555
C48 C43 1_555 1_555
C49 H25 1_555 1_555
C50 H26 1_555 1_555
H27 C50 1_555 1_555
H28 C50 1_555 1_555
C51 H29 1_555 1_555
H30 C51 1_555 1_555
H31 C51 1_555 1_555
C52 H32 1_555 1_555
H33 C52 1_555 1_555
H34 C52 1_555 1_555
C53 H35 1_555 1_555
H36 C53 1_555 1_555
H37 C53 1_555 1_555
C54 H38 1_555 1_555
C55 H39 1_555 1_555
C56 H40 1_555 1_555
H41 C56 1_555 1_555
H42 C56 1_555 1_555
C57 H43 1_555 1_555
H44 C57 1_555 1_555
H45 C57 1_555 1_555
C58 H46 1_555 1_555
C59 H47 1_555 1_555
H48 C59 1_555 1_555
H49 C59 1_555 1_555
C60 H50 1_555 1_555
H51 C60 1_555 1_555
H52 C60 1_555 1_555
N1 C40 1_555 1_555
N2 Ni2 1_555 1_555
N3 Ni2 1_555 1_555
N4 Ni2 1_555 1_555
N5 C14 1_555 1_555
N6 Ni1 1_555 1_555
N7 Ni1 1_555 1_555
N8 Ni1 1_555 1_555
N9 C55 1_555 1_555
N10 C49 1_555 1_555
N11 C52 1_555 1_555
N12 C58 1_555 1_555
O1 C34 1_555 1_555
O2 C34 1_555 1_555
O3 C41 1_555 1_555
O4 C41 1_555 1_555
O5 C54 1_555 1_555
O6 C49 1_555 1_555
O7 C58 1_555 1_555
O8 H53 1_555 1_555
H54 O8 1_555 1_555
O9 H55 1_555 1_555
H56 O9 1_555 1_555
O10 C26 1_555 1_555
O11 C25 1_555 1_555
O12 C24 1_555 1_555
O13 C24 1_555 1_555
O14 C55 1_555 1_555
O15 H57 1_555 1_555
O16 C16 1_555 1_555
O17 C15 1_555 1_555
O18 H58 1_555 1_555
O19 C8 1_555 1_555
O20 C8 1_555 1_555
Zn1 O2 1_555 1_555
Zn2 O14 1_555 1_555
H59 O18 1_555 1_555
O10C Zn1 1_555 1_555
O11C Zn1 1_555 1_555
O20C Zn2 1_555 1_555
Zn1C O10 1_555 1_555
Zn2C O20 1_555 1_555
C5 C6 1_555 1_555
C6 N8 1_555 1_555
C7 N6 1_555 1_555
C9 N6 1_555 1_555
C13 C14 1_555 1_555
C15 N8 1_555 1_555
C17 N7 1_555 1_555
C21 C22 1_555 1_555
C23 N5 1_555 1_555
C25 N4 1_555 1_555
C27 N4 1_555 1_555
C31 C32 1_555 1_555
C33 N2 1_555 1_555
C35 N2 1_555 1_555
C39 C40 1_555 1_555
C42 N1 1_555 1_555
C47 C48 1_555 1_555
C48 N3 1_555 1_555
C50 N10 1_555 1_555
C51 N10 1_555 1_555
C53 N11 1_555 1_555
C54 N11 1_555 1_555
C56 N9 1_555 1_555
C57 N9 1_555 1_555
C59 N12 1_555 1_555
C60 N12 1_555 1_555
O8 Zn1 1_555 1_555
O9 Zn1 1_555 1_555
O11 Zn1C 1_555 1_555
O12 Zn1 1_555 1_555
O15 Zn2 1_555 1_555
O16 Zn2 1_555 1_555
O17 Zn2 1_555 1_555
O18 Zn2 1_555 1_555

#END
