
#######################################################################
#
#                 Cambridge Crystallographic Data Centre
#                                CCDC 
#
#######################################################################
#
# If this CIF has been generated from an entry in the Cambridge 
# Structural Database, then it will include bibliographic, chemical, 
# crystal, experimental, refinement or atomic coordinate data resulting 
# from the CCDC's data processing and validation procedures.
#
#######################################################################

data_KETDOE
_symmetry_cell_setting           monoclinic
_symmetry_space_group_name_H-M   'P 21/n'
_symmetry_Int_Tables_number      14
_space_group_name_Hall           '-P 2yn'
loop_
_symmetry_equiv_pos_site_id
_symmetry_equiv_pos_as_xyz
1 x,y,z
2 1/2-x,1/2+y,1/2-z
3 -x,-y,-z
4 1/2+x,1/2-y,1/2+z
_cell_length_a                   11.242(3)
_cell_length_b                   14.248(4)
_cell_length_c                   21.185(5)
_cell_angle_alpha                90
_cell_angle_beta                 97.709(4)
_cell_angle_gamma                90
_cell_volume                     3362.66
loop_
_atom_site_label
_atom_site_type_symbol
_atom_site_fract_x
_atom_site_fract_y
_atom_site_fract_z
Zn1 Zn 0.26012(3) 0.72099(2) 0.949986(16)
Ni1 Ni 0.19541(3) 0.77322(2) 0.701632(17)
O1 O 0.34094(17) 0.79872(14) 0.87758(9)
O2 O 0.12445(17) 0.71523(13) 0.86881(9)
O3 O -0.17353(18) 0.62233(14) 0.57464(10)
O4 O -0.11923(17) 0.75846(13) 0.53198(9)
O5 O 0.37526(19) 0.92621(15) 0.53928(10)
O6 O 0.53604(18) 0.84009(15) 0.57888(10)
O7 O 0.16218(19) 0.83898(14) 0.97357(11)
O8 O 0.1638(2) 0.62091(16) 0.98822(11)
O9 O 0.36918(17) 0.61465(14) 0.92497(11)
N1 N 0.30761(19) 0.82063(16) 0.76712(11)
N2 N 0.0935(2) 0.76108(16) 0.76255(11)
N3 N 0.0852(2) 0.71965(15) 0.63788(11)
N4 N 0.2946(2) 0.78714(15) 0.63833(11)
N5 N 0.5202(3) 0.5221(2) 0.90991(16)
C1 C 0.2819(2) 0.7921(2) 0.82366(14)
C2 C 0.1562(2) 0.7496(2) 0.82022(14)
C3 C -0.0322(2) 0.76595(18) 0.75128(14)
C4 C -0.0985(3) 0.7912(2) 0.80048(15)
H1 H -0.0595 0.7960 0.8430
C5 C -0.2191(3) 0.8089(2) 0.78723(16)
H2 H -0.2631 0.8263 0.8207
C6 C -0.2777(3) 0.8017(2) 0.72527(16)
H3 H -0.3607 0.8165 0.7163
C7 C -0.2161(2) 0.77318(19) 0.67728(15)
H4 H -0.2579 0.7659 0.6355
C8 C -0.0919(2) 0.75446(19) 0.68842(14)
C9 C -0.0317(2) 0.72207(18) 0.63574(14)
C10 C -0.1160(3) 0.6962(2) 0.57464(14)
C11 C 0.1451(3) 0.68517(19) 0.58747(13)
C12 C 0.1038(3) 0.6146(2) 0.54443(15)
H5 H 0.0288 0.5851 0.5467
C13 C 0.1731(3) 0.5882(2) 0.49860(15)
H6 H 0.1449 0.5409 0.4687
C14 C 0.2828(3) 0.6297(2) 0.49573(16)
H7 H 0.3283 0.6118 0.4630
C15 C 0.3281(3) 0.6969(2) 0.53972(15)
H8 H 0.4052 0.7235 0.5382
C16 C 0.2588(3) 0.72496(19) 0.58619(14)
C17 C 0.3763(2) 0.85206(19) 0.63900(13)
C18 C 0.4346(3) 0.8753(2) 0.57975(14)
C19 C 0.4225(2) 0.90550(19) 0.69570(14)
C20 C 0.5027(3) 0.9793(2) 0.68728(15)
H9 H 0.5141 0.9975 0.6454
C21 C 0.5646(3) 1.0254(2) 0.73859(15)
H10 H 0.6174 1.0755 0.7321
C22 C 0.5495(3) 0.9983(2) 0.79947(15)
H11 H 0.5953 1.0280 0.8348
C23 C 0.4690(2) 0.9288(2) 0.80996(14)
H12 H 0.4594 0.9118 0.8523
C24 C 0.4009(2) 0.88278(19) 0.75845(14)
C25 C 0.5707(3) 0.6840(2) 0.92908(17)
H13 H 0.5988 0.6967 0.8881
H14 H 0.6390 0.6662 0.9605
H15 H 0.5328 0.7405 0.9437
C26 C 0.4794(3) 0.6038(3) 0.92128(16)
C27 C 0.4343(3) 0.4413(2) 0.9063(2)
H16 H 0.3609 0.4607 0.9230
H17 H 0.4714 0.3889 0.9317
H18 H 0.4143 0.4214 0.8619
C28 C 0.6441(3) 0.5006(3) 0.8996(2)
H19 H 0.6917 0.5584 0.9027
H20 H 0.6439 0.4731 0.8572
H21 H 0.6794 0.4559 0.9320
H33 H 0.211(3) 0.861(3) 1.0065(15)
H34 H 0.150(3) 0.876(3) 0.9428(15)
H35 H 0.113(3) 0.639(2) 1.0125(16)
H36 H 0.164(4) 0.567(2) 0.976(2)
Zn1C Zn -0.23988(3) 0.77901(2) 0.449986(16)
O4C O 0.38077(17) 0.74154(13) 1.03198(9)
O10 O 0.1305(2) -0.04827(17) 0.86891(12)
N6 N 0.0659(2) 0.06007(18) 0.79641(14)
C29 C -0.0485(4) 0.0331(3) 0.8845(2)
H22 H -0.1233 0.0144 0.8584
H23 H -0.0506 0.1005 0.8934
H24 H -0.0396 -0.0019 0.9247
C30 C 0.0556(3) 0.0119(2) 0.84941(17)
C31 C -0.0206(4) 0.1283(3) 0.7676(2)
H25 H -0.0886 0.1313 0.7921
H26 H -0.0494 0.1095 0.7237
H27 H 0.0176 0.1901 0.7676
C32 C 0.1682(3) 0.0413(3) 0.76217(19)
H28 H 0.2431 0.0519 0.7907
H29 H 0.1649 0.0834 0.7254
H30 H 0.1650 -0.0240 0.7475
O11 O 0.8917(2) 0.63636(18) 0.91094(12)
H31 H 0.8935 0.6163 0.9556
H32 H 0.9722 0.6568 0.9137
loop_
_geom_bond_atom_site_label_1
_geom_bond_atom_site_label_2
_geom_bond_site_symmetry_1
_geom_bond_site_symmetry_2
Zn1 O1 1_555 1_555
Ni1 N1 1_555 1_555
O1 C1 1_555 1_555
O2 Zn1 1_555 1_555
O3 C10 1_555 1_555
O4 C10 1_555 1_555
O5 C18 1_555 1_555
O6 C18 1_555 1_555
O7 Zn1 1_555 1_555
O8 Zn1 1_555 1_555
O9 Zn1 1_555 1_555
O10 C30 1_555 1_555
N1 C1 1_555 1_555
N2 Ni1 1_555 1_555
N3 Ni1 1_555 1_555
N4 Ni1 1_555 1_555
N5 C26 1_555 1_555
N6 C30 1_555 1_555
C1 C2 1_555 1_555
C2 O2 1_555 1_555
C3 N2 1_555 1_555
C4 C3 1_555 1_555
H1 C4 1_555 1_555
C5 C4 1_555 1_555
H2 C5 1_555 1_555
C6 C5 1_555 1_555
H3 C6 1_555 1_555
C7 C6 1_555 1_555
H4 C7 1_555 1_555
C8 C3 1_555 1_555
C9 N3 1_555 1_555
C10 C9 1_555 1_555
C11 N3 1_555 1_555
C12 C11 1_555 1_555
H5 C12 1_555 1_555
C13 C12 1_555 1_555
H6 C13 1_555 1_555
C14 C13 1_555 1_555
H7 C14 1_555 1_555
C15 C14 1_555 1_555
H8 C15 1_555 1_555
C16 N4 1_555 1_555
C17 N4 1_555 1_555
C18 C17 1_555 1_555
C19 C17 1_555 1_555
C20 C19 1_555 1_555
H9 C20 1_555 1_555
C21 C20 1_555 1_555
H10 C21 1_555 1_555
C22 C21 1_555 1_555
H11 C22 1_555 1_555
C23 C22 1_555 1_555
H12 C23 1_555 1_555
C24 N1 1_555 1_555
C25 H13 1_555 1_555
H14 C25 1_555 1_555
H15 C25 1_555 1_555
C26 O9 1_555 1_555
C27 N5 1_555 1_555
H16 C27 1_555 1_555
H17 C27 1_555 1_555
H18 C27 1_555 1_555
C28 N5 1_555 1_555
H19 C28 1_555 1_555
H20 C28 1_555 1_555
H21 C28 1_555 1_555
C29 H22 1_555 1_555
H23 C29 1_555 1_555
H24 C29 1_555 1_555
C30 C29 1_555 1_555
C31 N6 1_555 1_555
H25 C31 1_555 1_555
H26 C31 1_555 1_555
H27 C31 1_555 1_555
C32 N6 1_555 1_555
H28 C32 1_555 1_555
H29 C32 1_555 1_555
H30 C32 1_555 1_555
O11 H31 1_555 1_555
H32 O11 1_555 1_555
H33 O7 1_555 1_555
H34 O7 1_555 1_555
H35 O8 1_555 1_555
H36 O8 1_555 1_555
Zn1C O4 1_555 1_555
O4C Zn1 1_555 1_555
N2 C2 1_555 1_555
C7 C8 1_555 1_555
C8 C9 1_555 1_555
C11 C16 1_555 1_555
C15 C16 1_555 1_555
C19 C24 1_555 1_555
C23 C24 1_555 1_555
C25 C26 1_555 1_555

#END
