
#######################################################################
#
#                 Cambridge Crystallographic Data Centre
#                                CCDC 
#
#######################################################################
#
# If this CIF has been generated from an entry in the Cambridge 
# Structural Database, then it will include bibliographic, chemical, 
# crystal, experimental, refinement or atomic coordinate data resulting 
# from the CCDC's data processing and validation procedures.
#
#######################################################################

data_KETGAT
_symmetry_cell_setting           monoclinic
_symmetry_space_group_name_H-M   'P 21'
_symmetry_Int_Tables_number      4
_space_group_name_Hall           'P 2yb'
loop_
_symmetry_equiv_pos_site_id
_symmetry_equiv_pos_as_xyz
1 x,y,z
2 -x,1/2+y,-z
_cell_length_a                   13.709(3)
_cell_length_b                   13.644(3)
_cell_length_c                   14.811(3)
_cell_angle_alpha                90
_cell_angle_beta                 109.85(3)
_cell_angle_gamma                90
_cell_volume                     2605.73
loop_
_atom_site_label
_atom_site_type_symbol
_atom_site_fract_x
_atom_site_fract_y
_atom_site_fract_z
Zn1 Zn 0.28976(3) 0.94594(4) 0.54957(3)
Zn2 Zn 1.26935(3) 0.94321(4) 1.03190(3)
O1 O 0.2589(2) 1.0501(2) 0.6258(2)
O2 O 0.3041(3) 1.1757(3) 0.5518(3)
O3 O 0.2910(2) 0.8414(2) 0.6403(2)
O4 O 0.2859(3) 0.7241(3) 0.5336(3)
O5 O 1.2603(3) 1.1676(4) 1.0142(4)
O6 O 1.2005(2) 1.0460(2) 1.0809(2)
O7 O 1.2723(2) 0.8405(2) 1.1251(2)
O8 O 1.2771(4) 0.7157(3) 1.0297(3)
N1 N 0.42697(19) 0.9493(3) 0.52814(19)
N2 N 0.17058(19) 0.9399(3) 0.42359(19)
N3 N 0.4824(3) 0.6635(3) 0.7140(3)
N4 N 0.0712(3) 1.2063(3) 0.5869(3)
N5 N 1.1612(2) 0.9296(3) 0.8993(2)
N6 N -0.5846(2) 0.9518(4) 0.0272(2)
N7 N 1.4451(4) 0.5966(5) 1.2029(4)
N8 N 1.1786(3) 1.1912(3) 1.2317(3)
C1 C 0.1868(3) 0.9257(3) 0.3406(3)
H1 H 0.2544 0.9160 0.3421
C2 C 0.1085(3) 0.9248(3) 0.2534(3)
H2 H 0.1241 0.9164 0.1974
C3 C 0.0059(2) 0.9363(3) 0.2483(2)
C4 C -0.0107(2) 0.9497(4) 0.3343(2)
H3 H -0.0778 0.9573 0.3352
C5 C 0.0724(3) 0.9516(4) 0.4189(3)
H4 H 0.0593 0.9617 0.4758
C6 C -0.0787(3) 0.9365(4) 0.1517(2)
H5 H -0.0753 0.8748 0.1203
H6 H -0.0634 0.9881 0.1135
C7 C -0.1887(2) 0.9504(4) 0.1493(2)
H7 H -0.1937 1.0110 0.1816
H8 H -0.2075 0.8969 0.1833
C8 C -0.2642(3) 0.9536(5) 0.0459(3)
H9 H -0.2503 1.0120 0.0148
H10 H -0.2518 0.8972 0.0115
C9 C -0.3755(3) 0.9541(4) 0.0389(2)
C10 C -0.4303(4) 0.8659(4) 0.0321(4)
H11 H -0.3976 0.8064 0.0313
C11 C -0.5329(4) 0.8677(4) 0.0266(4)
H12 H -0.5678 0.8086 0.0224
C12 C -0.5329(4) 1.0348(3) 0.0321(3)
H13 H -0.5681 1.0933 0.0309
C13 C -0.4305(4) 1.0399(4) 0.0387(4)
H14 H -0.3981 1.1005 0.0431
C14 C 1.1836(3) 0.9183(3) 0.8189(3)
H15 H 1.2525 0.9092 0.8239
C15 C 1.1098(3) 0.9197(3) 0.7296(3)
H16 H 1.1288 0.9112 0.6756
C16 C 1.0057(2) 0.9338(3) 0.7195(3)
C17 C 0.9832(2) 0.9456(4) 0.8031(2)
H17 H 0.9151 0.9558 0.8004
C18 C 1.0617(2) 0.9422(4) 0.8900(2)
H18 H 1.0448 0.9490 0.9454
C19 C 0.9251(3) 0.9373(4) 0.6210(2)
H19 H 0.9318 0.8788 0.5863
H20 H 0.9394 0.9932 0.5870
C20 C 0.8139(2) 0.9445(4) 0.6188(2)
H21 H 0.7988 0.8888 0.6526
H22 H 0.8061 1.0035 0.6523
C21 C 0.7365(2) 0.9469(5) 0.5175(2)
H23 H 0.7487 1.0047 0.4847
H24 H 0.7464 0.8897 0.4827
C22 C 0.6274(2) 0.9484(4) 0.5176(2)
C23 C 0.5709(4) 0.8626(4) 0.5098(4)
H25 H 0.5993 0.8031 0.5006
C24 C 0.4737(4) 0.8651(3) 0.5157(4)
H26 H 0.4378 0.8064 0.5109
C25 C 0.4800(4) 1.0317(3) 0.5332(3)
H27 H 0.4488 1.0905 0.5399
C26 C 0.5785(4) 1.0348(3) 0.5291(4)
H28 H 0.6127 1.0945 0.5340
C27 C 0.2925(3) 0.7537(3) 0.6145(4)
C28 C 0.3032(3) 0.6743(3) 0.6909(3)
C29 C 0.3989(3) 0.6114(3) 0.7076(3)
C30 C 0.3974(4) 0.5112(3) 0.7152(3)
H29 H 0.3363 0.4785 0.7101
C31 C 0.4875(5) 0.4606(5) 0.7304(3)
H30 H 0.4891 0.3927 0.7364
C32 C 0.5745(5) 0.5113(5) 0.7366(4)
H31 H 0.6360 0.4781 0.7440
C33 C 0.5716(4) 0.6129(5) 0.7318(4)
H32 H 0.6329 0.6471 0.7410
C34 C 0.2741(4) 1.1399(3) 0.6127(4)
C35 C 0.2465(4) 1.2048(3) 0.6853(3)
C36 C 0.1353(3) 1.2004(3) 0.6772(3)
C37 C 0.1041(4) 1.1901(3) 0.7565(3)
H33 H 0.1519 1.1843 0.8182
C38 C -0.0019(5) 1.1890(4) 0.7392(5)
H34 H -0.0264 1.1833 0.7903
C39 C -0.0697(4) 1.1961(3) 0.6488(4)
H35 H -0.1408 1.1957 0.6366
C40 C -0.0297(4) 1.2039(4) 0.5745(4)
H36 H -0.0763 1.2076 0.5121
C41 C 1.2763(3) 0.7502(3) 1.1051(3)
C42 C 1.2820(5) 0.6812(4) 1.1878(5)
C43 C 1.3429(4) 0.5874(3) 1.1965(3)
C44 C 1.2940(4) 0.5071(3) 1.2015(3)
H37 H 1.2251 0.5084 1.1983
C45 C 1.3458(7) 0.4229(5) 1.2115(4)
H38 H 1.3113 0.3645 1.2126
C46 C 1.4470(7) 0.4200(5) 1.2199(4)
H39 H 1.4813 0.3601 1.2288
C47 C 1.4991(5) 0.5033(6) 1.2157(4)
H40 H 1.5686 0.5007 1.2208
C48 C 1.2013(4) 1.1330(3) 1.0515(3)
C49 C 1.1153(4) 1.1980(3) 1.0645(3)
C50 C 1.0938(3) 1.1909(3) 1.1550(3)
C51 C 0.9942(4) 1.1890(3) 1.1578(5)
H41 H 0.9370 1.1898 1.1016
C52 C 0.9818(7) 1.1861(5) 1.2472(8)
H42 H 0.9161 1.1831 1.2522
C53 C 1.0698(9) 1.1876(4) 1.3286(7)
H43 H 1.0639 1.1882 1.3893
C54 C 1.1652(6) 1.1881(4) 1.3187(4)
H44 H 1.2237 1.1863 1.3738
F1 F 0.3043(3) 0.7141(2) 0.7736(2)
F2 F 0.2154(2) 0.6170(2) 0.6608(2)
F3 F 0.3093(2) 1.1802(3) 0.7770(2)
F4 F 0.2727(3) 1.30106(19) 0.6743(3)
F5 F 1.3164(7) 0.7261(4) 1.2710(3)
F6 F 1.1846(5) 0.6595(5) 1.1779(7)
F7 F 1.1356(3) 1.2938(2) 1.0508(3)
F8 F 1.0286(3) 1.1760(4) 0.9886(2)
Zn2_2 Zn -0.73065(3) 0.94321(4) 0.03190(3)
N6_2 N 1.4154(2) 0.9518(4) 1.0272(2)
loop_
_geom_bond_atom_site_label_1
_geom_bond_atom_site_label_2
_geom_bond_site_symmetry_1
_geom_bond_site_symmetry_2
Zn1 O1 1_555 1_555
Zn2 O6 1_555 1_555
O1 C34 1_555 1_555
O2 C34 1_555 1_555
O3 Zn1 1_555 1_555
O4 C27 1_555 1_555
O5 C48 1_555 1_555
O6 C48 1_555 1_555
O7 Zn2 1_555 1_555
O8 C41 1_555 1_555
N1 Zn1 1_555 1_555
N2 Zn1 1_555 1_555
N3 C29 1_555 1_555
N4 C36 1_555 1_555
N5 Zn2 1_555 1_555
N6 C11 1_555 1_555
N7 C43 1_555 1_555
N8 C50 1_555 1_555
C1 N2 1_555 1_555
H1 C1 1_555 1_555
C2 C1 1_555 1_555
H2 C2 1_555 1_555
C3 C2 1_555 1_555
C4 C3 1_555 1_555
H3 C4 1_555 1_555
C5 N2 1_555 1_555
H4 C5 1_555 1_555
C6 C3 1_555 1_555
H5 C6 1_555 1_555
H6 C6 1_555 1_555
C7 C6 1_555 1_555
H7 C7 1_555 1_555
H8 C7 1_555 1_555
C8 C7 1_555 1_555
H9 C8 1_555 1_555
H10 C8 1_555 1_555
C9 C8 1_555 1_555
C10 C9 1_555 1_555
H11 C10 1_555 1_555
C11 C10 1_555 1_555
H12 C11 1_555 1_555
C12 N6 1_555 1_555
H13 C12 1_555 1_555
C13 C9 1_555 1_555
H14 C13 1_555 1_555
C14 N5 1_555 1_555
H15 C14 1_555 1_555
C15 C14 1_555 1_555
H16 C15 1_555 1_555
C16 C15 1_555 1_555
C17 C16 1_555 1_555
H17 C17 1_555 1_555
C18 N5 1_555 1_555
H18 C18 1_555 1_555
C19 C16 1_555 1_555
H19 C19 1_555 1_555
H20 C19 1_555 1_555
C20 C19 1_555 1_555
H21 C20 1_555 1_555
H22 C20 1_555 1_555
C21 C20 1_555 1_555
H23 C21 1_555 1_555
H24 C21 1_555 1_555
C22 C21 1_555 1_555
C23 C22 1_555 1_555
H25 C23 1_555 1_555
C24 N1 1_555 1_555
H26 C24 1_555 1_555
C25 N1 1_555 1_555
H27 C25 1_555 1_555
C26 C22 1_555 1_555
H28 C26 1_555 1_555
C27 O3 1_555 1_555
C28 C27 1_555 1_555
C29 C28 1_555 1_555
C30 C29 1_555 1_555
H29 C30 1_555 1_555
C31 C30 1_555 1_555
H30 C31 1_555 1_555
C32 C31 1_555 1_555
H31 C32 1_555 1_555
C33 N3 1_555 1_555
H32 C33 1_555 1_555
C34 C35 1_555 1_555
C35 C36 1_555 1_555
C36 C37 1_555 1_555
C37 H33 1_555 1_555
C38 C37 1_555 1_555
H34 C38 1_555 1_555
C39 C38 1_555 1_555
H35 C39 1_555 1_555
C40 N4 1_555 1_555
H36 C40 1_555 1_555
C41 O7 1_555 1_555
C42 C41 1_555 1_555
C43 C42 1_555 1_555
C44 C43 1_555 1_555
H37 C44 1_555 1_555
C45 C44 1_555 1_555
H38 C45 1_555 1_555
C46 C45 1_555 1_555
H39 C46 1_555 1_555
C47 N7 1_555 1_555
H40 C47 1_555 1_555
C48 C49 1_555 1_555
C49 C50 1_555 1_555
C50 C51 1_555 1_555
C51 H41 1_555 1_555
C52 C51 1_555 1_555
H42 C52 1_555 1_555
C53 C52 1_555 1_555
H43 C53 1_555 1_555
C54 N8 1_555 1_555
H44 C54 1_555 1_555
F1 C28 1_555 1_555
F2 C28 1_555 1_555
F3 C35 1_555 1_555
F4 C35 1_555 1_555
F5 C42 1_555 1_555
F6 C42 1_555 1_555
F7 C49 1_555 1_555
F8 C49 1_555 1_555
Zn2_2 N6 1_555 1_555
N6_2 Zn2 1_555 1_555
C4 C5 1_555 1_555
C12 C13 1_555 1_555
C17 C18 1_555 1_555
C23 C24 1_555 1_555
C25 C26 1_555 1_555
C32 C33 1_555 1_555
C39 C40 1_555 1_555
C46 C47 1_555 1_555
C53 C54 1_555 1_555

#END
