
#######################################################################
#
#                 Cambridge Crystallographic Data Centre
#                                CCDC 
#
#######################################################################
#
# If this CIF has been generated from an entry in the Cambridge 
# Structural Database, then it will include bibliographic, chemical, 
# crystal, experimental, refinement or atomic coordinate data resulting 
# from the CCDC's data processing and validation procedures.
#
#######################################################################

data_KETGIB
_symmetry_cell_setting           monoclinic
_symmetry_space_group_name_H-M   'P 21/c'
_symmetry_Int_Tables_number      14
_space_group_name_Hall           '-P 2ybc'
loop_
_symmetry_equiv_pos_site_id
_symmetry_equiv_pos_as_xyz
1 x,y,z
2 -x,1/2+y,1/2-z
3 -x,-y,-z
4 x,1/2-y,1/2+z
_cell_length_a                   13.338(3)
_cell_length_b                   9.704(2)
_cell_length_c                   18.866(3)
_cell_angle_alpha                90
_cell_angle_beta                 121.223(12)
_cell_angle_gamma                90
_cell_volume                     2088.17
loop_
_atom_site_label
_atom_site_type_symbol
_atom_site_fract_x
_atom_site_fract_y
_atom_site_fract_z
Fe1 Fe 0.5000 0.5000 0.5000
P1 P 0.36534(15) 0.83927(16) 0.45752(11)
O1 O 0.4430(5) 0.7192(5) 0.4917(4)
O2 O 0.3787(6) 0.0651(8) 0.0418(3)
O3 O 0.3696(4) 0.4340(5) 0.3640(3)
O4 O 0.2265(5) 0.2866(6) 0.3352(3)
O5 O 0.2225(5) 0.1868(6) -0.0372(3)
C1 C 0.2433(6) 0.8072(7) 0.3545(4)
C2 C 0.2017(7) 0.8975(8) 0.2896(5)
H1 H 0.2387 0.9820 0.2970
C3 C 0.1067(8) 0.8654(9) 0.2140(5)
H2 H 0.0817 0.9267 0.1701
C4 C 0.0490(7) 0.7460(10) 0.2025(5)
H3 H -0.0159 0.7249 0.1509
C5 C 0.0870(7) 0.6549(8) 0.2680(6)
H4 H 0.0454 0.5742 0.2612
C6 C 0.1847(7) 0.6833(7) 0.3419(5)
H5 H 0.2127 0.6190 0.3846
C7 C 0.3002(6) 0.8833(7) 0.5165(4)
C8 C 0.3381(9) 0.8185(10) 0.5928(6)
H6 H 0.3996 0.7555 0.6155
C9 C 0.2784(17) 0.8537(17) 0.6328(7)
H7 H 0.2998 0.8142 0.6837
C10 C 0.1867(12) 0.9481(16) 0.5966(12)
H8 H 0.1474 0.9680 0.6242
C11 C 0.1534(10) 1.0084(11) 0.5286(8)
H9 H 0.0927 1.0724 0.5076
C12 C 0.2082(7) 0.9776(8) 0.4873(6)
H10 H 0.1834 1.0213 0.4370
C13 C 0.4451(6) 0.9899(7) 0.4575(5)
H11 H 0.4670 0.9790 0.4162
H12 H 0.3954 1.0706 0.4431
C14 C 0.2997(6) 0.3459(6) 0.3198(3)
C15 C 0.2975(5) 0.2934(6) 0.2453(3)
C16 C 0.2031(5) 0.2162(5) 0.1850(3)
H13 H 0.1401 0.1992 0.1919
C17 C 0.1996(5) 0.1641(6) 0.1155(3)
C18 C 0.2965(5) 0.1882(6) 0.1066(4)
C19 C 0.3910(6) 0.2654(7) 0.1663(4)
H14 H 0.4552 0.2800 0.1604
C20 C 0.3914(6) 0.3217(7) 0.2355(4)
H15 H 0.4532 0.3765 0.2736
C21 C 0.0974(5) 0.0824(6) 0.0543(3)
C22 C -0.0161(5) 0.1238(6) 0.0286(4)
H16 H -0.0279 0.2072 0.0475
C23 C 0.1116(5) -0.0441(6) 0.0241(3)
H17 H 0.1866 -0.0744 0.0400
C24 C 0.3010(6) 0.1448(6) 0.0314(4)
Fe1_2 Fe -0.5000 -0.5000 -0.5000
Fe1_3 Fe 0.5000 1.5000 0.5000
Fe1A Fe -0.5000 0.0000 0.0000
Fe1A_2 Fe 0.5000 0.0000 0.0000
P1B P 0.63466(15) 1.16073(16) 0.54248(11)
O1B O 0.5570(5) 1.2808(5) 0.5083(4)
O1B_2 O 0.5570(5) 0.2808(5) 0.5083(4)
O2B O -0.3787(6) -0.0651(8) -0.0418(3)
O2A O 0.6213(6) 0.5651(8) 0.4582(3)
O2C O 0.3787(6) 0.4349(8) 0.5418(3)
O3B O -0.3696(4) -0.4340(5) -0.3640(3)
O3B_2 O 0.6304(4) 0.5660(5) 0.6360(3)
O4B O -0.2265(5) -0.2866(6) -0.3352(3)
O5B O -0.2225(5) -0.1868(6) 0.0372(3)
C1B C 0.7567(6) 1.1928(7) 0.6455(4)
C2B C 0.7983(7) 1.1025(8) 0.7104(5)
H1B H 0.7613 1.0180 0.7030
C3B C 0.8933(8) 1.1346(9) 0.7860(5)
H2B H 0.9183 1.0733 0.8299
C4B C 0.9510(7) 1.2540(10) 0.7975(5)
H3B H 1.0159 1.2751 0.8491
C5B C 0.9130(7) 1.3451(8) 0.7320(6)
H4B H 0.9546 1.4258 0.7388
C6B C 0.8153(7) 1.3167(7) 0.6581(5)
H5B H 0.7873 1.3810 0.6154
C7B C 0.6998(6) 1.1167(7) 0.4835(4)
C8B C 0.6619(9) 1.1815(10) 0.4072(6)
H6B H 0.6004 1.2445 0.3845
C9B C 0.7216(17) 1.1463(17) 0.3672(7)
H7B H 0.7002 1.1858 0.3163
C10B C 0.8133(12) 1.0519(16) 0.4034(12)
H8B H 0.8526 1.0320 0.3758
C11B C 0.8466(10) 0.9916(11) 0.4714(8)
H9B H 0.9073 0.9276 0.4924
C12B C 0.7918(7) 1.0224(8) 0.5127(6)
H10B H 0.8166 0.9787 0.5630
C13B C 0.5549(6) 1.0101(7) 0.5425(5)
H11B H 0.5330 1.0210 0.5838
H12B H 0.6046 0.9294 0.5569
C14B C -0.2997(6) -0.3459(6) -0.3198(3)
C15B C -0.2975(5) -0.2934(6) -0.2453(3)
C16B C -0.2031(5) -0.2162(5) -0.1850(3)
H13B H -0.1401 -0.1992 -0.1919
C17B C -0.1996(5) -0.1641(6) -0.1155(3)
C18B C -0.2965(5) -0.1882(6) -0.1066(4)
C19B C -0.3910(6) -0.2654(7) -0.1663(4)
H14B H -0.4552 -0.2800 -0.1604
C20B C -0.3914(6) -0.3217(7) -0.2355(4)
H15B H -0.4532 -0.3765 -0.2736
C21B C -0.0974(5) -0.0824(6) -0.0543(3)
C22B C 0.0161(5) -0.1238(6) -0.0286(4)
H16B H 0.0279 -0.2072 -0.0475
C23B C -0.1116(5) 0.0441(6) -0.0241(3)
H17B H -0.1866 0.0744 -0.0400
C24B C -0.3010(6) -0.1448(6) -0.0314(4)
loop_
_geom_bond_atom_site_label_1
_geom_bond_atom_site_label_2
_geom_bond_site_symmetry_1
_geom_bond_site_symmetry_2
Fe1 O1 1_555 1_555
P1 O1 1_555 1_555
O2 C24 1_555 1_555
O3 Fe1 1_555 1_555
O4 C14 1_555 1_555
O5 C24 1_555 1_555
C1 P1 1_555 1_555
C2 C1 1_555 1_555
H1 C2 1_555 1_555
C3 C2 1_555 1_555
H2 C3 1_555 1_555
C4 C3 1_555 1_555
H3 C4 1_555 1_555
C5 C4 1_555 1_555
H4 C5 1_555 1_555
C6 C1 1_555 1_555
H5 C6 1_555 1_555
C7 P1 1_555 1_555
C8 C7 1_555 1_555
H6 C8 1_555 1_555
C9 C8 1_555 1_555
H7 C9 1_555 1_555
C10 C9 1_555 1_555
H8 C10 1_555 1_555
C11 C10 1_555 1_555
H9 C11 1_555 1_555
C12 C7 1_555 1_555
H10 C12 1_555 1_555
C13 P1 1_555 1_555
H11 C13 1_555 1_555
H12 C13 1_555 1_555
C14 O3 1_555 1_555
C15 C14 1_555 1_555
C16 C15 1_555 1_555
H13 C16 1_555 1_555
C17 C16 1_555 1_555
C18 C17 1_555 1_555
C19 C18 1_555 1_555
H14 C19 1_555 1_555
C20 C15 1_555 1_555
H15 C20 1_555 1_555
C21 C17 1_555 1_555
C22 C21 1_555 1_555
H16 C22 1_555 1_555
C23 C21 1_555 1_555
H17 C23 1_555 1_555
C24 C18 1_555 1_555
Fe1_2 O3B 1_555 1_555
Fe1_3 O1B 1_555 1_555
Fe1A O2B 1_555 1_555
Fe1A_2 O2 1_555 1_555
P1B O1B 1_555 1_555
O1B_2 Fe1 1_555 1_555
O2B C24B 1_555 1_555
O2A Fe1 1_555 1_555
O2C Fe1 1_555 1_555
O3B C14B 1_555 1_555
O3B_2 Fe1 1_555 1_555
O4B C14B 1_555 1_555
O5B C24B 1_555 1_555
C1B P1B 1_555 1_555
C2B C1B 1_555 1_555
H1B C2B 1_555 1_555
C3B C2B 1_555 1_555
H2B C3B 1_555 1_555
C4B C3B 1_555 1_555
H3B C4B 1_555 1_555
C5B C4B 1_555 1_555
H4B C5B 1_555 1_555
C6B C1B 1_555 1_555
H5B C6B 1_555 1_555
C7B P1B 1_555 1_555
C8B C7B 1_555 1_555
H6B C8B 1_555 1_555
C9B C8B 1_555 1_555
H7B C9B 1_555 1_555
C10B C9B 1_555 1_555
H8B C10B 1_555 1_555
C11B C10B 1_555 1_555
H9B C11B 1_555 1_555
C12B C7B 1_555 1_555
H10B C12B 1_555 1_555
C13B C13 1_555 1_555
H11B C13B 1_555 1_555
H12B C13B 1_555 1_555
C14B C15B 1_555 1_555
C15B C16B 1_555 1_555
C16B H13B 1_555 1_555
C17B C16B 1_555 1_555
C18B C17B 1_555 1_555
C19B C18B 1_555 1_555
H14B C19B 1_555 1_555
C20B C15B 1_555 1_555
H15B C20B 1_555 1_555
C21B C17B 1_555 1_555
C22B C23 1_555 1_555
H16B C22B 1_555 1_555
C23B C22 1_555 1_555
H17B C23B 1_555 1_555
C24B C18B 1_555 1_555
C5 C6 1_555 1_555
C11 C12 1_555 1_555
C19 C20 1_555 1_555
P1B C13B 1_555 1_555
C5B C6B 1_555 1_555
C11B C12B 1_555 1_555
C19B C20B 1_555 1_555
C21B C22B 1_555 1_555
C21B C23B 1_555 1_555

#END
