
#######################################################################
#
#                 Cambridge Crystallographic Data Centre
#                                CCDC 
#
#######################################################################
#
# If this CIF has been generated from an entry in the Cambridge 
# Structural Database, then it will include bibliographic, chemical, 
# crystal, experimental, refinement or atomic coordinate data resulting 
# from the CCDC's data processing and validation procedures.
#
#######################################################################

data_KETGOH
_symmetry_cell_setting           monoclinic
_symmetry_space_group_name_H-M   'P 21/n'
_symmetry_Int_Tables_number      14
_space_group_name_Hall           '-P 2yn'
loop_
_symmetry_equiv_pos_site_id
_symmetry_equiv_pos_as_xyz
1 x,y,z
2 1/2-x,1/2+y,1/2-z
3 -x,-y,-z
4 1/2+x,1/2-y,1/2+z
_cell_length_a                   13.233(3)
_cell_length_b                   9.506(2)
_cell_length_c                   16.443(4)
_cell_angle_alpha                90
_cell_angle_beta                 102.171(2)
_cell_angle_gamma                90
_cell_volume                     2021.92
loop_
_atom_site_label
_atom_site_type_symbol
_atom_site_fract_x
_atom_site_fract_y
_atom_site_fract_z
C1 C 0.4870(2) 1.1505(3) 0.17852(16)
C2 C 0.5593(2) 1.2033(3) 0.25490(15)
C3 C 0.6650(2) 1.1767(3) 0.26630(17)
H1 H 0.6900 1.1204 0.2287
C4 C 0.7320(2) 1.2339(3) 0.33339(17)
H2 H 0.8027 1.2202 0.3390
C5 C 0.6961(2) 1.3121(3) 0.39335(15)
C6 C 0.5894(2) 1.3357(3) 0.38435(15)
C7 C 0.5234(2) 1.2824(3) 0.31390(15)
H3 H 0.4529 1.3003 0.3061
C8 C 0.5455(2) 1.4182(3) 0.44543(15)
C9 C 0.4546(2) 1.3755(3) 0.46888(16)
H4 H 0.4234 1.2916 0.4482
C10 C 0.4104(2) 1.4554(3) 0.52203(15)
H5 H 0.3499 1.4243 0.5365
C11 C 0.7753(2) 1.3589(3) 0.46844(16)
C12 C 0.4893(3) 0.5131(3) 0.0437(2)
H6 H 0.5543 0.5255 0.0833
H7 H 0.4545 0.4320 0.0608
C13 C 0.2853(3) 0.6222(3) -0.01551(19)
C14 C 0.2492(4) 0.6860(4) -0.0913(2)
H8 H 0.2907 0.7496 -0.1120
C15 C 0.1515(5) 0.6557(6) -0.1363(3)
H9 H 0.1271 0.6985 -0.1875
C16 C 0.0903(4) 0.5613(6) -0.1049(4)
H10 H 0.0241 0.5412 -0.1351
C17 C 0.1258(3) 0.4967(5) -0.0297(3)
H11 H 0.0842 0.4328 -0.0091
C18 C 0.2223(3) 0.5268(4) 0.0145(2)
H12 H 0.2466 0.4830 0.0655
C19 C 0.3904(2) 0.6989(3) 0.14698(18)
C20 C 0.4175(3) 0.6074(4) 0.2131(2)
H13 H 0.4519 0.5242 0.2066
C21 C 0.3939(3) 0.6385(4) 0.2885(2)
H14 H 0.4124 0.5759 0.3325
C22 C 0.3440(3) 0.7594(4) 0.2994(2)
H15 H 0.3278 0.7790 0.3506
C23 C 0.3176(3) 0.8526(4) 0.2349(2)
H16 H 0.2843 0.9362 0.2425
C24 C 0.3403(3) 0.8227(4) 0.1586(2)
H17 H 0.3219 0.8859 0.1148
Mn1 Mn 0.5000 1.0000 0.0000
O1 O 0.4574(2) 0.7882(2) 0.01009(15)
O2 O 0.84313(17) 1.4405(3) 0.45694(14)
O3 O 0.51295(15) 1.0591(2) 0.13489(11)
O4 O 0.39777(17) 1.2121(2) 0.16359(12)
O5 O 0.76585(16) 1.3141(3) 0.53721(12)
P1 P 0.41043(7) 0.66646(8) 0.04426(5)
C1B C 0.5130(2) 1.8495(3) 0.82148(16)
C2B C 0.4407(2) 1.7967(3) 0.74510(15)
C3B C 0.3350(2) 1.8233(3) 0.73370(17)
H1B H 0.3100 1.8796 0.7713
C4B C 0.2680(2) 1.7661(3) 0.66661(17)
H2B H 0.1973 1.7798 0.6610
C5B C 0.3039(2) 1.6879(3) 0.60665(15)
C6B C 0.4106(2) 1.6643(3) 0.61565(15)
C7B C 0.4766(2) 1.7176(3) 0.68610(15)
H3B H 0.5471 1.6997 0.6939
C8B C 0.4545(2) 1.5818(3) 0.55457(15)
C9B C 0.5454(2) 1.6245(3) 0.53112(16)
H4B H 0.5766 1.7084 0.5518
C10B C 0.5896(2) 1.5446(3) 0.47797(15)
H5B H 0.6501 1.5757 0.4635
C11B C 0.2247(2) 1.6411(3) 0.53156(16)
C12B C 0.5107(3) 0.4869(3) -0.0437(2)
H6B H 0.4457 0.4745 -0.0833
H7B H 0.5455 0.5680 -0.0608
C13B C 0.7147(3) 0.3778(3) 0.01551(19)
C14B C 0.7508(4) 0.3140(4) 0.0913(2)
H8B H 0.7093 0.2504 0.1120
C15B C 0.8485(5) 0.3443(6) 0.1363(3)
H9B H 0.8729 0.3015 0.1875
C16B C 0.9097(4) 0.4387(6) 0.1049(4)
H10B H 0.9759 0.4588 0.1351
C17B C 0.8742(3) 0.5033(5) 0.0297(3)
H11B H 0.9158 0.5672 0.0091
C18B C 0.7777(3) 0.4732(4) -0.0145(2)
H12B H 0.7534 0.5170 -0.0655
C19B C 0.6096(2) 0.3011(3) -0.14698(18)
C20B C 0.5825(3) 0.3926(4) -0.2131(2)
H13B H 0.5481 0.4758 -0.2066
C21B C 0.6061(3) 0.3615(4) -0.2885(2)
H14B H 0.5876 0.4241 -0.3325
C22B C 0.6560(3) 0.2406(4) -0.2994(2)
H15B H 0.6722 0.2210 -0.3506
C23B C 0.6824(3) 0.1474(4) -0.2349(2)
H16B H 0.7157 0.0638 -0.2425
C24B C 0.6597(3) 0.1773(4) -0.1586(2)
H17B H 0.6781 0.1141 -0.1148
Mn1_2 Mn 0.5000 0.0000 0.0000
Mn1_3 Mn 0.5000 2.0000 1.0000
Mn1A Mn 0.0000 1.5000 0.5000
Mn1A_2 Mn 1.0000 1.5000 0.5000
O1B O 0.5426(2) 0.2118(2) -0.01009(15)
O1B_2 O 0.5426(2) 1.2118(2) -0.01009(15)
O2B O 0.15687(17) 1.5595(3) 0.54306(14)
O2A O 0.65687(17) 0.9405(3) 0.04306(14)
O2C O 0.34313(17) 1.0595(3) -0.04306(14)
O3B O 0.48705(15) 1.9409(2) 0.86511(11)
O3B_2 O 0.48705(15) 0.9409(2) -0.13489(11)
O4B O 0.60223(17) 1.7879(2) 0.83641(12)
O5B O 0.23415(16) 1.6859(3) 0.46279(12)
P1B P 0.58957(7) 0.33354(8) -0.04426(5)
loop_
_geom_bond_atom_site_label_1
_geom_bond_atom_site_label_2
_geom_bond_site_symmetry_1
_geom_bond_site_symmetry_2
C1 C2 1_555 1_555
C2 C3 1_555 1_555
C3 H1 1_555 1_555
C4 C3 1_555 1_555
H2 C4 1_555 1_555
C5 C4 1_555 1_555
C6 C5 1_555 1_555
C7 C2 1_555 1_555
H3 C7 1_555 1_555
C8 C6 1_555 1_555
C9 C8 1_555 1_555
H4 C9 1_555 1_555
C10 C9 1_555 1_555
H5 C10 1_555 1_555
C11 C5 1_555 1_555
C12 H6 1_555 1_555
H7 C12 1_555 1_555
C13 C14 1_555 1_555
C14 H8 1_555 1_555
C15 C14 1_555 1_555
H9 C15 1_555 1_555
C16 C15 1_555 1_555
H10 C16 1_555 1_555
C17 C16 1_555 1_555
H11 C17 1_555 1_555
C18 C13 1_555 1_555
H12 C18 1_555 1_555
C19 C20 1_555 1_555
C20 H13 1_555 1_555
C21 C20 1_555 1_555
H14 C21 1_555 1_555
C22 C21 1_555 1_555
H15 C22 1_555 1_555
C23 C22 1_555 1_555
H16 C23 1_555 1_555
C24 C19 1_555 1_555
H17 C24 1_555 1_555
Mn1 O1 1_555 1_555
O1 P1 1_555 1_555
O2 C11 1_555 1_555
O3 C1 1_555 1_555
O4 C1 1_555 1_555
O5 C11 1_555 1_555
P1 C12 1_555 1_555
C1B C2B 1_555 1_555
C2B C3B 1_555 1_555
C3B H1B 1_555 1_555
C4B C3B 1_555 1_555
H2B C4B 1_555 1_555
C5B C4B 1_555 1_555
C6B C5B 1_555 1_555
C7B C2B 1_555 1_555
H3B C7B 1_555 1_555
C8B C10 1_555 1_555
C9B C8B 1_555 1_555
H4B C9B 1_555 1_555
C10B C8 1_555 1_555
H5B C10B 1_555 1_555
C11B C5B 1_555 1_555
C12B C12 1_555 1_555
H6B C12B 1_555 1_555
H7B C12B 1_555 1_555
C13B C14B 1_555 1_555
C14B H8B 1_555 1_555
C15B C14B 1_555 1_555
H9B C15B 1_555 1_555
C16B C15B 1_555 1_555
H10B C16B 1_555 1_555
C17B C16B 1_555 1_555
H11B C17B 1_555 1_555
C18B C13B 1_555 1_555
H12B C18B 1_555 1_555
C19B C20B 1_555 1_555
C20B H13B 1_555 1_555
C21B C20B 1_555 1_555
H14B C21B 1_555 1_555
C22B C21B 1_555 1_555
H15B C22B 1_555 1_555
C23B C22B 1_555 1_555
H16B C23B 1_555 1_555
C24B C19B 1_555 1_555
H17B C24B 1_555 1_555
Mn1_2 O1B 1_555 1_555
Mn1_3 O3B 1_555 1_555
Mn1A O2B 1_555 1_555
Mn1A_2 O2 1_555 1_555
O1B P1B 1_555 1_555
O1B_2 Mn1 1_555 1_555
O2B C11B 1_555 1_555
O2A Mn1 1_555 1_555
O2C Mn1 1_555 1_555
O3B C1B 1_555 1_555
O3B_2 Mn1 1_555 1_555
O4B C1B 1_555 1_555
O5B C11B 1_555 1_555
P1B C12B 1_555 1_555
C6 C7 1_555 1_555
C13 P1 1_555 1_555
C17 C18 1_555 1_555
C19 P1 1_555 1_555
C23 C24 1_555 1_555
Mn1 O3 1_555 1_555
C6B C7B 1_555 1_555
C6B C8B 1_555 1_555
C9B C10B 1_555 1_555
C13B P1B 1_555 1_555
C17B C18B 1_555 1_555
C19B P1B 1_555 1_555
C23B C24B 1_555 1_555

#END
