
#######################################################################
#
#                 Cambridge Crystallographic Data Centre
#                                CCDC 
#
#######################################################################
#
# If this CIF has been generated from an entry in the Cambridge 
# Structural Database, then it will include bibliographic, chemical, 
# crystal, experimental, refinement or atomic coordinate data resulting 
# from the CCDC's data processing and validation procedures.
#
#######################################################################

data_KETJEA
_symmetry_cell_setting           triclinic
_symmetry_space_group_name_H-M   'P -1'
_symmetry_Int_Tables_number      2
_space_group_name_Hall           '-P 1'
loop_
_symmetry_equiv_pos_site_id
_symmetry_equiv_pos_as_xyz
1 x,y,z
2 -x,-y,-z
_cell_length_a                   11.069(2)
_cell_length_b                   12.360(3)
_cell_length_c                   12.373(3)
_cell_angle_alpha                83.32(3)
_cell_angle_beta                 74.95(3)
_cell_angle_gamma                76.81(3)
_cell_volume                     1588.66
loop_
_atom_site_label
_atom_site_type_symbol
_atom_site_fract_x
_atom_site_fract_y
_atom_site_fract_z
La1 La 0.965558(9) 0.153774(8) 0.255157(9)
S1 S 1.21120(7) 0.47187(5) 0.26471(7)
O1 O 0.79413(14) 0.31794(11) 0.27638(13)
H1 H 0.7477 0.2695 0.2943
O2 O 0.18030(13) 0.04029(11) 0.22391(13)
H2 H 0.1067 0.0608 0.2104
O3 O 0.93954(15) -0.01995(13) 0.40112(14)
O4 O 0.76175(16) 0.08225(14) 0.37781(15)
O5 O 0.7588(2) -0.05373(19) 0.5042(2)
O6 O 0.93095(15) -0.00700(13) 0.14828(15)
O7 O 0.79046(15) 0.14493(13) 0.14388(14)
O8 O 0.77837(17) 0.00119(16) 0.06605(16)
N1 N 1.11366(19) 0.29188(17) 0.23813(18)
N2 N 0.81719(19) 0.00173(15) 0.43006(17)
N3 N 0.83202(17) 0.04514(15) 0.11880(15)
C1 C 1.1553(2) 0.36613(17) 0.24881(19)
C2 C 0.38629(18) -0.06989(15) 0.15696(16)
N4 N 0.39142(16) 0.11581(14) 0.19675(15)
C3 C 0.5255(2) 0.39166(17) 0.33645(17)
H3 H 0.4385 0.4218 0.3595
C4 C 0.6496(2) 0.64967(16) 0.34012(18)
C5 C 0.74520(19) 0.42110(16) 0.29341(17)
C6 C 0.5622(2) 0.57900(16) 0.35454(16)
C7 C 0.44786(19) 0.01675(16) 0.16138(17)
H4 H 0.5365 0.0024 0.1370
C8 C 0.61156(19) 0.46293(15) 0.32843(16)
C9 C 0.4011(2) -0.26644(16) 0.12436(18)
N5 N 0.55880(17) 0.28746(14) 0.31402(17)
C10 C 0.46285(18) -0.17659(15) 0.11826(16)
C11 C 0.1945(2) -0.14892(17) 0.2002(2)
H5 H 0.1065 -0.1411 0.2271
C12 C 0.5961(2) -0.19766(18) 0.07457(19)
H6 H 0.6397 -0.1403 0.0683
C13 C 0.2663(2) -0.24844(17) 0.1671(2)
H7 H 0.2260 -0.3078 0.1724
C14 C 0.7814(2) 0.60577(18) 0.2982(2)
H8 H 0.8384 0.6534 0.2855
C15 C 0.4730(2) -0.37183(18) 0.0900(2)
H9 H 0.4314 -0.4303 0.0947
C16 C 0.8280(2) 0.49794(18) 0.2760(2)
H10 H 0.9156 0.4732 0.2488
C17 C 0.25170(18) -0.05510(15) 0.19454(17)
C18 C 0.6635(2) -0.3011(2) 0.0409(2)
H11 H 0.7514 -0.3121 0.0116
C19 C 0.4321(2) 0.62638(19) 0.3945(2)
H12 H 0.3715 0.5826 0.4046
C20 C 0.6056(3) 0.76275(18) 0.3656(2)
H13 H 0.6642 0.8086 0.3552
C21 C 0.6022(2) -0.38930(19) 0.0500(2)
H14 H 0.6489 -0.4595 0.0291
C22 C 0.3930(3) 0.7371(2) 0.4190(2)
H15 H 0.3064 0.7665 0.4457
C23 C 0.4798(3) 0.80509(19) 0.4048(2)
H16 H 0.4519 0.8793 0.4220
C24 C 0.4644(2) 0.20040(16) 0.19903(19)
H17 H 0.4249 0.2708 0.1671
H18 H 0.5506 0.1786 0.1534
C25 C 0.4699(2) 0.21494(18) 0.3173(2)
H19 H 0.3854 0.2476 0.3604
H20 H 0.4981 0.1430 0.3534
O9 O 0.95705(17) 0.19303(13) 0.45503(13)
H21 H 0.9875 0.1432 0.4998
O10 O 1.05441(16) 0.18526(14) 0.04322(13)
H22 H 1.1014 0.1290 0.0089
C26 C 0.9379(3) 0.2974(2) 0.5050(2)
H23 H 0.8635 0.3035 0.5678
H24 H 0.9204 0.3580 0.4503
C27 C 1.0091(3) 0.2560(2) -0.0442(2)
H25 H 0.9526 0.2216 -0.0708
H26 H 1.0811 0.2645 -0.1066
C28 C 1.0480(4) 0.3093(3) 0.5443(3)
H27 H 1.0577 0.2569 0.6067
H28 H 1.0345 0.3836 0.5673
H29 H 1.1239 0.2952 0.4847
C29 C 0.9412(4) 0.3647(3) -0.0057(3)
H30 H 0.8671 0.3568 0.0531
H31 H 0.9152 0.4110 -0.0669
H32 H 0.9963 0.3982 0.0223
La1_2 La -0.034442(9) 0.153774(8) 0.255157(9)
O2_2 O 1.18030(13) 0.04029(11) 0.22391(13)
H2_2 H 1.1067 0.0608 0.2104
loop_
_geom_bond_atom_site_label_1
_geom_bond_atom_site_label_2
_geom_bond_site_symmetry_1
_geom_bond_site_symmetry_2
La1 O1 1_555 1_555
S1 C1 1_555 1_555
O1 H1 1_555 1_555
O2 H2 1_555 1_555
O3 La1 1_555 1_555
O4 La1 1_555 1_555
O5 N2 1_555 1_555
O6 La1 1_555 1_555
O7 La1 1_555 1_555
O8 N3 1_555 1_555
N1 La1 1_555 1_555
N2 O3 1_555 1_555
N3 O6 1_555 1_555
C1 N1 1_555 1_555
C2 C7 1_555 1_555
N4 C7 1_555 1_555
C3 H3 1_555 1_555
C4 C6 1_555 1_555
C5 O1 1_555 1_555
C6 C8 1_555 1_555
C7 H4 1_555 1_555
C8 C3 1_555 1_555
C9 C10 1_555 1_555
N5 C3 1_555 1_555
C10 C2 1_555 1_555
C11 H5 1_555 1_555
C12 C10 1_555 1_555
H6 C12 1_555 1_555
C13 C9 1_555 1_555
H7 C13 1_555 1_555
C14 C4 1_555 1_555
H8 C14 1_555 1_555
C15 C9 1_555 1_555
H9 C15 1_555 1_555
C16 C5 1_555 1_555
H10 C16 1_555 1_555
C17 O2 1_555 1_555
C18 C12 1_555 1_555
H11 C18 1_555 1_555
C19 C6 1_555 1_555
H12 C19 1_555 1_555
C20 C4 1_555 1_555
H13 C20 1_555 1_555
C21 C15 1_555 1_555
H14 C21 1_555 1_555
C22 C19 1_555 1_555
H15 C22 1_555 1_555
C23 C20 1_555 1_555
H16 C23 1_555 1_555
C24 N4 1_555 1_555
H17 C24 1_555 1_555
H18 C24 1_555 1_555
C25 N5 1_555 1_555
H19 C25 1_555 1_555
H20 C25 1_555 1_555
O9 La1 1_555 1_555
H21 O9 1_555 1_555
O10 La1 1_555 1_555
H22 O10 1_555 1_555
C26 O9 1_555 1_555
H23 C26 1_555 1_555
H24 C26 1_555 1_555
C27 O10 1_555 1_555
H25 C27 1_555 1_555
H26 C27 1_555 1_555
C28 C26 1_555 1_555
H27 C28 1_555 1_555
H28 C28 1_555 1_555
H29 C28 1_555 1_555
C29 C27 1_555 1_555
H30 C29 1_555 1_555
H31 C29 1_555 1_555
H32 C29 1_555 1_555
La1_2 O2 1_555 1_555
O2_2 La1 1_555 1_555
H2_2 O2_2 1_555 1_555
O4 N2 1_555 1_555
O7 N3 1_555 1_555
C2 C17 1_555 1_555
C5 C8 1_555 1_555
C11 C13 1_555 1_555
C11 C17 1_555 1_555
C14 C16 1_555 1_555
C18 C21 1_555 1_555
C22 C23 1_555 1_555
C24 C25 1_555 1_555

#END
