
#######################################################################
#
#                 Cambridge Crystallographic Data Centre
#                                CCDC 
#
#######################################################################
#
# If this CIF has been generated from an entry in the Cambridge 
# Structural Database, then it will include bibliographic, chemical, 
# crystal, experimental, refinement or atomic coordinate data resulting 
# from the CCDC's data processing and validation procedures.
#
#######################################################################

data_KETJIE
_symmetry_cell_setting           monoclinic
_symmetry_space_group_name_H-M   'C 2/c'
_symmetry_Int_Tables_number      15
_space_group_name_Hall           '-C 2yn'
loop_
_symmetry_equiv_pos_site_id
_symmetry_equiv_pos_as_xyz
1 x,y,z
2 -x,y,1/2-z
3 1/2+x,1/2+y,z
4 1/2-x,1/2+y,1/2-z
5 -x,-y,-z
6 x,-y,1/2+z
7 1/2-x,1/2-y,-z
8 1/2+x,1/2-y,1/2+z
_cell_length_a                   27.649(6)
_cell_length_b                   17.204(3)
_cell_length_c                   17.841(4)
_cell_angle_alpha                90
_cell_angle_beta                 111.85(3)
_cell_angle_gamma                90
_cell_volume                     7876.83
loop_
_atom_site_label
_atom_site_type_symbol
_atom_site_fract_x
_atom_site_fract_y
_atom_site_fract_z
La1 La 0.189123(11) 0.419096(14) 0.324754(16)
O1 O 0.18527(15) 0.55345(18) 0.3565(2)
H1 H 0.1755 0.5844 0.3165
O2 O 0.11856(16) 0.41359(18) 0.3735(3)
H2 H 0.1079 0.3758 0.3408
N1 N 0.19085(18) 0.6613(2) 0.2601(2)
O3 O 0.24895(17) 0.3600(2) 0.2534(3)
O4 O 0.34477(15) 0.79349(18) 0.2283(2)
H3 H 0.3241 0.7679 0.1886
C1 C 0.1829(2) 0.6073(3) 0.4064(3)
C2 C 0.1775(2) 0.5864(3) 0.4792(3)
H4 H 0.1751 0.5343 0.4910
C3 C 0.1852(2) 0.6875(3) 0.3887(3)
O5 O 0.17034(19) 0.4921(2) 0.1882(2)
C4 C 0.1831(2) 0.7464(3) 0.4455(3)
N2 N 0.0379(2) 0.5060(2) 0.3348(3)
N3 N 0.2826(3) 0.4110(3) 0.2747(5)
C5 C 0.1781(2) 0.7218(3) 0.5177(3)
C6 C 0.3827(2) 0.7452(3) 0.2577(3)
C7 C 0.0983(2) 0.3712(3) 0.4144(3)
O6 O 0.2433(2) 0.4243(2) 0.4773(2)
C8 C 0.0509(2) 0.3951(3) 0.4224(3)
C9 C 0.1867(2) 0.6840(3) 0.1783(3)
H5 H 0.1902 0.7400 0.1760
H6 H 0.1526 0.6696 0.1397
C10 C 0.3729(2) 0.6656(3) 0.2647(4)
O7 O 0.10122(17) 0.4655(3) 0.2121(3)
N4 N 0.1218(3) 0.4977(3) 0.1673(3)
O8 O 0.27626(19) 0.4677(2) 0.3151(3)
O9 O 0.2601(2) 0.3254(2) 0.4206(3)
N5 N 0.2714(2) 0.3663(3) 0.4823(3)
C11 C 0.0243(2) 0.4619(3) 0.3820(3)
H7 H -0.0060 0.4754 0.3901
C12 C 0.1210(2) 0.3010(3) 0.4487(3)
H8 H 0.1507 0.2838 0.4407
C13 C 0.1776(3) 0.8548(4) 0.5593(4)
H9 H 0.1750 0.8908 0.5964
O10 O 0.3196(3) 0.4055(5) 0.2567(7)
C14 C 0.1757(2) 0.6410(3) 0.5314(3)
H10 H 0.1727 0.6250 0.5793
C15 C 0.1849(3) 0.8790(3) 0.4912(4)
H11 H 0.1882 0.9319 0.4831
C16 C 0.1013(3) 0.2577(3) 0.4928(4)
H12 H 0.1183 0.2120 0.5161
C17 C 0.0294(2) 0.3489(3) 0.4696(3)
O11 O 0.0961(2) 0.5329(3) 0.1066(3)
C18 C 0.4187(4) 0.6170(4) 0.3092(5)
C19 C -0.0164(3) 0.3670(4) 0.4826(4)
H13 H -0.0335 0.4135 0.4627
C20 C 0.0074(3) 0.5735(3) 0.2960(4)
H14 H 0.0272 0.6201 0.3185
H15 H -0.0242 0.5748 0.3077
C21 C 0.4351(2) 0.7715(3) 0.2837(4)
H16 H 0.4417 0.8236 0.2771
C22 C 0.0552(3) 0.2791(4) 0.5050(3)
C23 C 0.1744(3) 0.7783(4) 0.5721(4)
H17 H 0.1695 0.7623 0.6186
C24 C 0.4746(3) 0.7240(4) 0.3168(4)
H18 H 0.5081 0.7437 0.3307
C25 C 0.1874(3) 0.8266(3) 0.4345(4)
H19 H 0.1919 0.8445 0.3883
C26 C 0.18862(19) 0.7109(3) 0.3145(3)
H20 H 0.1893 0.7638 0.3041
O12 O 0.3075(2) 0.3510(4) 0.5444(3)
C27 C -0.0368(3) 0.3161(6) 0.5255(5)
H21 H -0.0681 0.3282 0.5310
C28 C 0.0339(4) 0.2322(5) 0.5500(5)
H22 H 0.0520 0.1876 0.5744
C29 C -0.0108(4) 0.2480(6) 0.5595(6)
H23 H -0.0240 0.2146 0.5881
C30 C 0.4690(3) 0.6456(4) 0.3322(4)
C31 C 0.5131(4) 0.5985(5) 0.3706(7)
H24 H 0.5464 0.6191 0.3846
C32 C 0.4114(4) 0.5372(5) 0.3271(9)
H25 H 0.3785 0.5151 0.3131
C33 C 0.5070(6) 0.5248(7) 0.3866(10)
H26 H 0.5358 0.4930 0.4107
C34 C 0.4570(6) 0.4956(6) 0.3669(12)
H27 H 0.4536 0.4445 0.3813
C35 C 0.3230(3) 0.6361(3) 0.2322(4)
H28 H 0.3192 0.5825 0.2345
N6 N 0.28049(19) 0.6769(2) 0.1984(3)
C36 C 0.2286(2) 0.6449(3) 0.1551(3)
H29 H 0.2289 0.5897 0.1664
H30 H 0.2199 0.6510 0.0975
La1C La 0.310877(11) -0.080904(14) 0.175246(16)
La1C_2 La 0.310877(11) 0.919096(14) 0.175246(16)
La1A La -0.189123(11) 0.419096(14) 0.175246(16)
O1C O 0.31473(15) 0.05345(18) 0.1435(2)
H1C H 0.3245 0.0844 0.1835
O2A O -0.11856(16) 0.41359(18) 0.1265(3)
O2C O 0.38144(16) -0.08641(18) 0.1265(3)
H2A H -0.1079 0.3758 0.1592
H2C H 0.3921 -0.1242 0.1592
N1C N 0.30915(18) 0.1613(2) 0.2399(2)
O3C O 0.25105(17) -0.1400(2) 0.2466(3)
O4C O 0.15523(15) 0.29349(18) 0.2717(2)
O4_2 O 0.34477(15) -0.20651(18) 0.2283(2)
H3C H 0.1759 0.2679 0.3114
H3_2 H 0.3241 -0.2321 0.1886
C1C C 0.3171(2) 0.1073(3) 0.0936(3)
C2C C 0.3225(2) 0.0864(3) 0.0208(3)
H4C H 0.3249 0.0343 0.0090
C3C C 0.3148(2) 0.1875(3) 0.1113(3)
O5C O 0.32966(19) -0.0079(2) 0.3118(2)
C4C C 0.3169(2) 0.2464(3) 0.0545(3)
N2A N -0.0379(2) 0.5060(2) 0.1652(3)
N3C N 0.2174(3) -0.0890(3) 0.2253(5)
C5C C 0.3219(2) 0.2218(3) -0.0177(3)
C6C C 0.1173(2) 0.2452(3) 0.2423(3)
C7A C -0.0983(2) 0.3712(3) 0.0856(3)
O6C O 0.2567(2) -0.0757(2) 0.0227(2)
C8A C -0.0509(2) 0.3951(3) 0.0776(3)
C9C C 0.3133(2) 0.1840(3) 0.3217(3)
H5C H 0.3098 0.2400 0.3240
H6C H 0.3474 0.1696 0.3603
C10C C 0.1271(2) 0.1656(3) 0.2353(4)
O7C O 0.39878(17) -0.0345(3) 0.2879(3)
N4C N 0.3782(3) -0.0023(3) 0.3327(3)
O8C O 0.22374(19) -0.0323(2) 0.1849(3)
O9C O 0.2399(2) -0.1746(2) 0.0794(3)
N5C N 0.2286(2) -0.1337(3) 0.0177(3)
C11A C -0.0243(2) 0.4619(3) 0.1180(3)
H7A H 0.0060 0.4754 0.1099
C12A C -0.1210(2) 0.3010(3) 0.0513(3)
H8A H -0.1507 0.2838 0.0593
C13C C 0.3224(3) 0.3548(4) -0.0593(4)
H9C H 0.3250 0.3908 -0.0964
O10C O 0.1804(3) -0.0945(5) 0.2433(7)
C14C C 0.3243(2) 0.1410(3) -0.0314(3)
H10C H 0.3273 0.1250 -0.0793
C15C C 0.3151(3) 0.3790(3) 0.0088(4)
H11C H 0.3118 0.4319 0.0169
C16A C -0.1013(3) 0.2577(3) 0.0072(4)
H12A H -0.1183 0.2120 -0.0161
C17A C -0.0294(2) 0.3489(3) 0.0304(3)
O11C O 0.4039(2) 0.0329(3) 0.3934(3)
C18C C 0.0813(4) 0.1170(4) 0.1908(5)
C19A C 0.0164(3) 0.3670(4) 0.0174(4)
H13A H 0.0335 0.4135 0.0373
C20A C -0.0074(3) 0.5735(3) 0.2040(4)
H14A H -0.0272 0.6201 0.1815
H15A H 0.0242 0.5748 0.1923
C21C C 0.0649(2) 0.2715(3) 0.2163(4)
H16C H 0.0583 0.3236 0.2229
C22A C -0.0552(3) 0.2791(4) -0.0050(3)
C23C C 0.3256(3) 0.2783(4) -0.0721(4)
H17C H 0.3305 0.2623 -0.1186
C24C C 0.0254(3) 0.2240(4) 0.1832(4)
H18C H -0.0081 0.2437 0.1693
C25C C 0.3126(3) 0.3266(3) 0.0655(4)
H19C H 0.3081 0.3445 0.1117
C26C C 0.31138(19) 0.2109(3) 0.1855(3)
H20C H 0.3107 0.2638 0.1959
O12C O 0.1925(2) -0.1490(4) -0.0444(3)
C27A C 0.0368(3) 0.3161(6) -0.0255(5)
H21A H 0.0681 0.3282 -0.0310
C28A C -0.0339(4) 0.2322(5) -0.0500(5)
H22A H -0.0520 0.1876 -0.0744
C29A C 0.0108(4) 0.2480(6) -0.0595(6)
H23A H 0.0240 0.2146 -0.0881
C30C C 0.0310(3) 0.1456(4) 0.1678(4)
C31C C -0.0131(4) 0.0985(5) 0.1294(7)
H24C H -0.0464 0.1191 0.1154
C32C C 0.0886(4) 0.0372(5) 0.1729(9)
H25C H 0.1215 0.0151 0.1869
C33C C -0.0070(6) 0.0248(7) 0.1134(10)
H26C H -0.0358 -0.0070 0.0893
C34C C 0.0430(6) -0.0044(6) 0.1331(12)
H27C H 0.0464 -0.0555 0.1187
C35C C 0.1770(3) 0.1361(3) 0.2678(4)
H28C H 0.1808 0.0825 0.2655
N6C N 0.21951(19) 0.1769(2) 0.3016(3)
C36C C 0.2714(2) 0.1449(3) 0.3449(3)
H29C H 0.2711 0.0897 0.3336
H30C H 0.2801 0.1510 0.4025
loop_
_geom_bond_atom_site_label_1
_geom_bond_atom_site_label_2
_geom_bond_site_symmetry_1
_geom_bond_site_symmetry_2
La1 O1 1_555 1_555
O1 H1 1_555 1_555
O2 La1 1_555 1_555
H2 O2 1_555 1_555
N1 C9 1_555 1_555
O3 La1 1_555 1_555
O4 H3 1_555 1_555
C1 O1 1_555 1_555
C2 C1 1_555 1_555
H4 C2 1_555 1_555
C3 C1 1_555 1_555
O5 La1 1_555 1_555
C4 C3 1_555 1_555
N2 C11 1_555 1_555
N3 O3 1_555 1_555
C5 C4 1_555 1_555
C6 O4 1_555 1_555
C7 O2 1_555 1_555
O6 La1 1_555 1_555
C8 C7 1_555 1_555
C9 H5 1_555 1_555
H6 C9 1_555 1_555
C10 C6 1_555 1_555
O7 La1 1_555 1_555
N4 O5 1_555 1_555
O8 La1 1_555 1_555
O9 La1 1_555 1_555
N5 O6 1_555 1_555
C11 C8 1_555 1_555
H7 C11 1_555 1_555
C12 C7 1_555 1_555
H8 C12 1_555 1_555
C13 H9 1_555 1_555
O10 N3 1_555 1_555
C14 C2 1_555 1_555
H10 C14 1_555 1_555
C15 C13 1_555 1_555
H11 C15 1_555 1_555
C16 C12 1_555 1_555
H12 C16 1_555 1_555
C17 C8 1_555 1_555
O11 N4 1_555 1_555
C18 C10 1_555 1_555
C19 C17 1_555 1_555
H13 C19 1_555 1_555
C20 N2 1_555 1_555
H14 C20 1_555 1_555
H15 C20 1_555 1_555
C21 C6 1_555 1_555
H16 C21 1_555 1_555
C22 C16 1_555 1_555
C23 C5 1_555 1_555
H17 C23 1_555 1_555
C24 C21 1_555 1_555
H18 C24 1_555 1_555
C25 C4 1_555 1_555
H19 C25 1_555 1_555
C26 N1 1_555 1_555
H20 C26 1_555 1_555
O12 N5 1_555 1_555
C27 C19 1_555 1_555
H21 C27 1_555 1_555
C28 C22 1_555 1_555
H22 C28 1_555 1_555
C29 C27 1_555 1_555
H23 C29 1_555 1_555
C30 C18 1_555 1_555
C31 C30 1_555 1_555
H24 C31 1_555 1_555
C32 C18 1_555 1_555
H25 C32 1_555 1_555
C33 C31 1_555 1_555
H26 C33 1_555 1_555
C34 C32 1_555 1_555
H27 C34 1_555 1_555
C35 C10 1_555 1_555
H28 C35 1_555 1_555
N6 C35 1_555 1_555
C36 C9 1_555 1_555
H29 C36 1_555 1_555
H30 C36 1_555 1_555
La1C O1C 1_555 1_555
La1C_2 O4 1_555 1_555
La1A O2A 1_555 1_555
O1C H1C 1_555 1_555
O2A H2A 1_555 1_555
O2C La1C 1_555 1_555
H2C O2C 1_555 1_555
N1C C9C 1_555 1_555
O3C La1C 1_555 1_555
O4C La1 1_555 1_555
O4_2 La1C 1_555 1_555
H3C O4C 1_555 1_555
H3_2 O4_2 1_555 1_555
C1C O1C 1_555 1_555
C2C C1C 1_555 1_555
H4C C2C 1_555 1_555
C3C C1C 1_555 1_555
O5C La1C 1_555 1_555
C4C C3C 1_555 1_555
N2A C11A 1_555 1_555
N3C O3C 1_555 1_555
C5C C4C 1_555 1_555
C6C O4C 1_555 1_555
C7A O2A 1_555 1_555
O6C La1C 1_555 1_555
C8A C7A 1_555 1_555
C9C H5C 1_555 1_555
H6C C9C 1_555 1_555
C10C C6C 1_555 1_555
O7C La1C 1_555 1_555
N4C O5C 1_555 1_555
O8C La1C 1_555 1_555
O9C La1C 1_555 1_555
N5C O6C 1_555 1_555
C11A C8A 1_555 1_555
H7A C11A 1_555 1_555
C12A C7A 1_555 1_555
H8A C12A 1_555 1_555
C13C H9C 1_555 1_555
O10C N3C 1_555 1_555
C14C C2C 1_555 1_555
H10C C14C 1_555 1_555
C15C C13C 1_555 1_555
H11C C15C 1_555 1_555
C16A C12A 1_555 1_555
H12A C16A 1_555 1_555
C17A C8A 1_555 1_555
O11C N4C 1_555 1_555
C18C C10C 1_555 1_555
C19A C17A 1_555 1_555
H13A C19A 1_555 1_555
C20A C20 1_555 1_555
H14A C20A 1_555 1_555
H15A C20A 1_555 1_555
C21C C6C 1_555 1_555
H16C C21C 1_555 1_555
C22A C16A 1_555 1_555
C23C C5C 1_555 1_555
H17C C23C 1_555 1_555
C24C C21C 1_555 1_555
H18C C24C 1_555 1_555
C25C C4C 1_555 1_555
H19C C25C 1_555 1_555
C26C N1C 1_555 1_555
H20C C26C 1_555 1_555
O12C N5C 1_555 1_555
C27A C19A 1_555 1_555
H21A C27A 1_555 1_555
C28A C22A 1_555 1_555
H22A C28A 1_555 1_555
C29A C27A 1_555 1_555
H23A C29A 1_555 1_555
C30C C18C 1_555 1_555
C31C C30C 1_555 1_555
H24C C31C 1_555 1_555
C32C C18C 1_555 1_555
H25C C32C 1_555 1_555
C33C C31C 1_555 1_555
H26C C33C 1_555 1_555
C34C C32C 1_555 1_555
H27C C34C 1_555 1_555
C35C C10C 1_555 1_555
H28C C35C 1_555 1_555
N6C C35C 1_555 1_555
C36C C9C 1_555 1_555
H29C C36C 1_555 1_555
H30C C36C 1_555 1_555
C3 C26 1_555 1_555
N3 O8 1_555 1_555
C5 C14 1_555 1_555
O7 N4 1_555 1_555
O9 N5 1_555 1_555
C13 C23 1_555 1_555
C15 C25 1_555 1_555
C17 C22 1_555 1_555
C24 C30 1_555 1_555
C28 C29 1_555 1_555
C33 C34 1_555 1_555
N6 C36 1_555 1_555
C3C C26C 1_555 1_555
N2A C20A 1_555 1_555
N3C O8C 1_555 1_555
C5C C14C 1_555 1_555
O7C N4C 1_555 1_555
O9C N5C 1_555 1_555
C13C C23C 1_555 1_555
C15C C25C 1_555 1_555
C17A C22A 1_555 1_555
C24C C30C 1_555 1_555
C28A C29A 1_555 1_555
C33C C34C 1_555 1_555
N6C C36C 1_555 1_555

#END
