
#######################################################################
#
#                 Cambridge Crystallographic Data Centre
#                                CCDC 
#
#######################################################################
#
# If this CIF has been generated from an entry in the Cambridge 
# Structural Database, then it will include bibliographic, chemical, 
# crystal, experimental, refinement or atomic coordinate data resulting 
# from the CCDC's data processing and validation procedures.
#
#######################################################################

data_KETJUQ
_symmetry_cell_setting           monoclinic
_symmetry_space_group_name_H-M   'C 2/c'
_symmetry_Int_Tables_number      15
_space_group_name_Hall           '-C 2yn'
loop_
_symmetry_equiv_pos_site_id
_symmetry_equiv_pos_as_xyz
1 x,y,z
2 -x,y,1/2-z
3 1/2+x,1/2+y,z
4 1/2-x,1/2+y,1/2-z
5 -x,-y,-z
6 x,-y,1/2+z
7 1/2-x,1/2-y,-z
8 1/2+x,1/2-y,1/2+z
_cell_length_a                   27.671(6)
_cell_length_b                   16.791(8)
_cell_length_c                   17.753(4)
_cell_angle_alpha                90
_cell_angle_beta                 111.93(3)
_cell_angle_gamma                90
_cell_volume                     7651.61
loop_
_atom_site_label
_atom_site_type_symbol
_atom_site_fract_x
_atom_site_fract_y
_atom_site_fract_z
Eu1 Eu 0.18492(3) 0.41709(4) 0.32131(5)
C1 C 0.3116(6) 0.2104(9) 0.1873(9)
H1 H 0.3116 0.2646 0.1984
O1 O 0.1202(5) 0.4082(5) 0.3740(8)
H2 H 0.1304 0.4513 0.4004
O2 O 0.3189(5) 0.0508(5) 0.1469(6)
H3 H 0.3362 0.0398 0.1965
O3 O 0.2412(4) 0.3593(6) 0.2496(6)
N1 N 0.3073(5) 0.1596(6) 0.2407(7)
O4 O 0.1538(4) 0.2939(6) 0.2711(7)
H4 H 0.1954 0.2338 0.2885
C2 C 0.3210(6) 0.1058(8) 0.0993(9)
N2 N 0.2164(6) 0.1735(7) 0.2993(9)
O5 O 0.1665(5) 0.4886(6) 0.1859(7)
C3 C 0.1143(6) 0.2438(8) 0.2396(9)
N3 N 0.2740(7) 0.4140(8) 0.2709(13)
C4 C 0.3185(6) 0.2473(8) 0.0581(9)
O6 O 0.2706(5) 0.4683(6) 0.3185(8)
C5 C 0.3287(6) 0.0851(7) 0.0275(9)
H5 H 0.3344 0.0319 0.0188
C6 C 0.3248(7) 0.2232(9) -0.0131(11)
O7 O 0.2374(6) 0.4307(7) 0.4678(8)
O8 O 0.0983(5) 0.4619(7) 0.2115(8)
C7 C 0.1008(6) 0.3663(8) 0.4156(8)
C8 C 0.3160(6) 0.1872(8) 0.1140(9)
C9 C 0.3103(6) 0.1813(9) 0.3233(10)
H6 H 0.3066 0.2385 0.3262
H7 H 0.3443 0.1665 0.3625
N4 N 0.1175(7) 0.4939(8) 0.1658(9)
N5 N 0.0398(6) 0.5040(7) 0.3356(8)
O9 O 0.2540(5) 0.3256(7) 0.4150(8)
C10 C 0.1063(8) 0.2497(11) 0.4985(11)
H8 H 0.1249 0.2051 0.5249
C11 C 0.0547(6) 0.3906(9) 0.4267(9)
C12 C 0.0260(7) 0.4582(9) 0.3839(10)
H9 H -0.0049 0.4706 0.3909
C13 C 0.1240(7) 0.1612(8) 0.2349(11)
N6 N 0.2658(6) 0.3714(9) 0.4765(10)
C14 C 0.2687(6) 0.1407(9) 0.3454(9)
H10 H 0.2688 0.0841 0.3345
H11 H 0.2766 0.1474 0.4031
C15 C 0.0788(9) 0.1094(10) 0.1991(15)
O10 O 0.3134(8) 0.4097(10) 0.2550(16)
C16 C 0.0332(7) 0.3419(10) 0.4730(9)
C17 C -0.0142(10) 0.0899(12) 0.1420(17)
H12 H -0.0477 0.1105 0.1268
C18 C 0.3152(9) 0.3824(10) 0.0114(14)
H13 H 0.3121 0.4364 0.0202
C19 C 0.0091(8) 0.5727(9) 0.2975(13)
H14 H 0.0294 0.6204 0.3187
H15 H -0.0214 0.5747 0.3120
C20 C 0.3283(7) 0.1393(9) -0.0290(11)
H16 H 0.3301 0.1227 -0.0778
C21 C 0.1758(7) 0.1311(9) 0.2706(10)
H17 H 0.1801 0.0761 0.2729
C22 C 0.0606(9) 0.2709(11) 0.5097(12)
C23 C 0.3213(9) 0.3591(10) -0.0594(13)
H18 H 0.3221 0.3970 -0.0971
C24 C 0.3260(7) 0.2801(10) -0.0738(11)
H19 H 0.3299 0.2632 -0.1211
O11 O 0.0916(6) 0.5285(9) 0.1047(10)
C25 C 0.1241(7) 0.2942(9) 0.4487(10)
H20 H 0.1522 0.2757 0.4370
C26 C 0.0213(7) 0.2217(9) 0.1772(11)
H21 H -0.0121 0.2432 0.1580
C27 C -0.0116(7) 0.3595(12) 0.4882(12)
H22 H -0.0294 0.4067 0.4682
C28 C 0.0631(7) 0.2707(9) 0.2123(11)
H23 H 0.0570 0.3244 0.2181
C29 C 0.0277(8) 0.1402(10) 0.1696(12)
O12 O 0.3027(6) 0.3574(9) 0.5386(9)
C30 C 0.3136(7) 0.3295(8) 0.0687(9)
H24 H 0.3092 0.3479 0.1151
C31 C 0.0410(10) 0.2238(14) 0.5578(13)
H25 H 0.0605 0.1805 0.5857
C32 C -0.0305(9) 0.3085(16) 0.5325(12)
H26 H -0.0609 0.3209 0.5408
C33 C -0.0035(12) 0.2388(17) 0.5645(17)
H27 H -0.0172 0.2027 0.5909
C34 C -0.0075(12) 0.0101(16) 0.136(2)
H28 H -0.0361 -0.0238 0.1199
C35 C 0.0410(12) -0.0196(17) 0.155(3)
H29 H 0.0449 -0.0734 0.1457
C36 C 0.0838(11) 0.0266(13) 0.186(2)
H30 H 0.1167 0.0043 0.1989
Eu1A Eu -0.18492(3) 0.41709(4) 0.17869(5)
Eu1B Eu -0.31508(3) -0.08291(4) 0.32131(5)
Eu1C Eu 0.31508(3) -0.08291(4) 0.17869(5)
C1A C -0.3116(6) 0.2104(9) 0.3127(9)
H1A H -0.3116 0.2646 0.3016
O1A O -0.1202(5) 0.4082(5) 0.1260(8)
H2A H -0.1304 0.4513 0.0996
O2A O -0.3189(5) 0.0508(5) 0.3531(6)
O2B O -0.1811(5) 0.5508(5) 0.1469(6)
O2C O 0.1811(5) 0.5508(5) 0.3531(6)
H3A H -0.3362 0.0398 0.3035
H3B H -0.1638 0.5398 0.1965
H3C H 0.1638 0.5398 0.3035
O3A O -0.2412(4) 0.3593(6) 0.2504(6)
N1A N -0.3073(5) 0.1596(6) 0.2593(7)
O4A O -0.1538(4) 0.2939(6) 0.2289(7)
H4A H -0.1954 0.2338 0.2115
C2A C -0.3210(6) 0.1058(8) 0.4007(9)
N2A N -0.2164(6) 0.1735(7) 0.2007(9)
O5A O -0.1665(5) 0.4886(6) 0.3141(7)
C3A C -0.1143(6) 0.2438(8) 0.2604(9)
N3A N -0.2740(7) 0.4140(8) 0.2291(13)
C4A C -0.3185(6) 0.2473(8) 0.4419(9)
O6A O -0.2706(5) 0.4683(6) 0.1815(8)
C5A C -0.3287(6) 0.0851(7) 0.4725(9)
H5A H -0.3344 0.0319 0.4812
C6A C -0.3248(7) 0.2232(9) 0.5131(11)
O7A O -0.2374(6) 0.4307(7) 0.0322(8)
O8A O -0.0983(5) 0.4619(7) 0.2885(8)
C7A C -0.1008(6) 0.3663(8) 0.0844(8)
C8A C -0.3160(6) 0.1872(8) 0.3860(9)
C9A C -0.3103(6) 0.1813(9) 0.1767(10)
H6A H -0.3066 0.2385 0.1738
H7A H -0.3443 0.1665 0.1375
N4A N -0.1175(7) 0.4939(8) 0.3342(9)
N5A N -0.0398(6) 0.5040(7) 0.1644(8)
O9A O -0.2540(5) 0.3256(7) 0.0850(8)
C10A C -0.1063(8) 0.2497(11) 0.0015(11)
H8A H -0.1249 0.2051 -0.0249
C11A C -0.0547(6) 0.3906(9) 0.0733(9)
C12A C -0.0260(7) 0.4582(9) 0.1161(10)
H9A H 0.0049 0.4706 0.1091
C13A C -0.1240(7) 0.1612(8) 0.2651(11)
N6A N -0.2658(6) 0.3714(9) 0.0235(10)
C14A C -0.2687(6) 0.1407(9) 0.1546(9)
H10A H -0.2688 0.0841 0.1655
H11A H -0.2766 0.1474 0.0969
C15A C -0.0788(9) 0.1094(10) 0.3009(15)
O10A O -0.3134(8) 0.4097(10) 0.2450(16)
C16A C -0.0332(7) 0.3419(10) 0.0270(9)
C17A C 0.0142(10) 0.0899(12) 0.3580(17)
H12A H 0.0477 0.1105 0.3732
C18A C -0.3152(9) 0.3824(10) 0.4886(14)
H13A H -0.3121 0.4364 0.4798
C19A C -0.0091(8) 0.5727(9) 0.2025(13)
H14A H -0.0294 0.6204 0.1813
H15A H 0.0214 0.5747 0.1880
C20A C -0.3283(7) 0.1393(9) 0.5290(11)
H16A H -0.3301 0.1227 0.5778
C21A C -0.1758(7) 0.1311(9) 0.2294(10)
H17A H -0.1801 0.0761 0.2271
C22A C -0.0606(9) 0.2709(11) -0.0097(12)
C23A C -0.3213(9) 0.3591(10) 0.5594(13)
H18A H -0.3221 0.3970 0.5971
C24A C -0.3260(7) 0.2801(10) 0.5738(11)
H19A H -0.3299 0.2632 0.6211
O11A O -0.0916(6) 0.5285(9) 0.3953(10)
C25A C -0.1241(7) 0.2942(9) 0.0513(10)
H20A H -0.1522 0.2757 0.0630
C26A C -0.0213(7) 0.2217(9) 0.3228(11)
H21A H 0.0121 0.2432 0.3420
C27A C 0.0116(7) 0.3595(12) 0.0118(12)
H22A H 0.0294 0.4067 0.0318
C28A C -0.0631(7) 0.2707(9) 0.2877(11)
H23A H -0.0570 0.3244 0.2819
C29A C -0.0277(8) 0.1402(10) 0.3304(12)
O12A O -0.3027(6) 0.3574(9) -0.0386(9)
C30A C -0.3136(7) 0.3295(8) 0.4313(9)
H24A H -0.3092 0.3479 0.3849
C31A C -0.0410(10) 0.2238(14) -0.0578(13)
H25A H -0.0605 0.1805 -0.0857
C32A C 0.0305(9) 0.3085(16) -0.0325(12)
H26A H 0.0609 0.3209 -0.0408
C33A C 0.0035(12) 0.2388(17) -0.0645(17)
H27A H 0.0172 0.2027 -0.0909
C34A C 0.0075(12) 0.0101(16) 0.364(2)
H28A H 0.0361 -0.0238 0.3801
C35A C -0.0410(12) -0.0196(17) 0.345(3)
H29A H -0.0449 -0.0734 0.3543
C36A C -0.0838(11) 0.0266(13) 0.314(2)
H30A H -0.1167 0.0043 0.3011
loop_
_geom_bond_atom_site_label_1
_geom_bond_atom_site_label_2
_geom_bond_site_symmetry_1
_geom_bond_site_symmetry_2
Eu1 O1 1_555 1_555
C1 H1 1_555 1_555
O1 H2 1_555 1_555
O2 H3 1_555 1_555
O3 Eu1 1_555 1_555
N1 C1 1_555 1_555
O4 Eu1 1_555 1_555
H4 N2 1_555 1_555
C2 O2 1_555 1_555
N2 C14 1_555 1_555
O5 Eu1 1_555 1_555
C3 O4 1_555 1_555
N3 O3 1_555 1_555
C4 C6 1_555 1_555
O6 Eu1 1_555 1_555
C5 C2 1_555 1_555
H5 C5 1_555 1_555
C6 C20 1_555 1_555
O7 Eu1 1_555 1_555
O8 Eu1 1_555 1_555
C7 O1 1_555 1_555
C8 C1 1_555 1_555
C9 N1 1_555 1_555
H6 C9 1_555 1_555
H7 C9 1_555 1_555
N4 O5 1_555 1_555
N5 C12 1_555 1_555
O9 Eu1 1_555 1_555
C10 H8 1_555 1_555
C11 C7 1_555 1_555
C12 C11 1_555 1_555
H9 C12 1_555 1_555
C13 C3 1_555 1_555
N6 O7 1_555 1_555
C14 C9 1_555 1_555
H10 C14 1_555 1_555
H11 C14 1_555 1_555
C15 C13 1_555 1_555
O10 N3 1_555 1_555
C16 C11 1_555 1_555
C17 H12 1_555 1_555
C18 H13 1_555 1_555
C19 N5 1_555 1_555
H14 C19 1_555 1_555
H15 C19 1_555 1_555
C20 C5 1_555 1_555
H16 C20 1_555 1_555
C21 N2 1_555 1_555
H17 C21 1_555 1_555
C22 C10 1_555 1_555
C23 C18 1_555 1_555
H18 C23 1_555 1_555
C24 C6 1_555 1_555
H19 C24 1_555 1_555
O11 N4 1_555 1_555
C25 C7 1_555 1_555
H20 C25 1_555 1_555
C26 H21 1_555 1_555
C27 C16 1_555 1_555
H22 C27 1_555 1_555
C28 C3 1_555 1_555
H23 C28 1_555 1_555
C29 C15 1_555 1_555
O12 N6 1_555 1_555
C30 C4 1_555 1_555
H24 C30 1_555 1_555
C31 C22 1_555 1_555
H25 C31 1_555 1_555
C32 C27 1_555 1_555
H26 C32 1_555 1_555
C33 C31 1_555 1_555
H27 C33 1_555 1_555
C34 C17 1_555 1_555
H28 C34 1_555 1_555
C35 C34 1_555 1_555
H29 C35 1_555 1_555
C36 C15 1_555 1_555
H30 C36 1_555 1_555
Eu1A O1A 1_555 1_555
Eu1B O2A 1_555 1_555
Eu1C O2 1_555 1_555
C1A H1A 1_555 1_555
O1A H2A 1_555 1_555
O2A H3A 1_555 1_555
O2B Eu1A 1_555 1_555
O2C Eu1 1_555 1_555
H3B O2B 1_555 1_555
H3C O2C 1_555 1_555
O3A Eu1A 1_555 1_555
N1A C1A 1_555 1_555
O4A Eu1A 1_555 1_555
H4A N2A 1_555 1_555
C2A O2A 1_555 1_555
N2A C14A 1_555 1_555
O5A Eu1A 1_555 1_555
C3A O4A 1_555 1_555
N3A O3A 1_555 1_555
C4A C6A 1_555 1_555
O6A Eu1A 1_555 1_555
C5A C2A 1_555 1_555
H5A C5A 1_555 1_555
C6A C20A 1_555 1_555
O7A Eu1A 1_555 1_555
O8A Eu1A 1_555 1_555
C7A O1A 1_555 1_555
C8A C1A 1_555 1_555
C9A N1A 1_555 1_555
H6A C9A 1_555 1_555
H7A C9A 1_555 1_555
N4A O5A 1_555 1_555
N5A C12A 1_555 1_555
O9A Eu1A 1_555 1_555
C10A H8A 1_555 1_555
C11A C7A 1_555 1_555
C12A C11A 1_555 1_555
H9A C12A 1_555 1_555
C13A C3A 1_555 1_555
N6A O7A 1_555 1_555
C14A C9A 1_555 1_555
H10A C14A 1_555 1_555
H11A C14A 1_555 1_555
C15A C13A 1_555 1_555
O10A N3A 1_555 1_555
C16A C11A 1_555 1_555
C17A H12A 1_555 1_555
C18A H13A 1_555 1_555
C19A C19 1_555 1_555
H14A C19A 1_555 1_555
H15A C19A 1_555 1_555
C20A C5A 1_555 1_555
H16A C20A 1_555 1_555
C21A N2A 1_555 1_555
H17A C21A 1_555 1_555
C22A C10A 1_555 1_555
C23A C18A 1_555 1_555
H18A C23A 1_555 1_555
C24A C6A 1_555 1_555
H19A C24A 1_555 1_555
O11A N4A 1_555 1_555
C25A C7A 1_555 1_555
H20A C25A 1_555 1_555
C26A H21A 1_555 1_555
C27A C16A 1_555 1_555
H22A C27A 1_555 1_555
C28A C3A 1_555 1_555
H23A C28A 1_555 1_555
C29A C15A 1_555 1_555
O12A N6A 1_555 1_555
C30A C4A 1_555 1_555
H24A C30A 1_555 1_555
C31A C22A 1_555 1_555
H25A C31A 1_555 1_555
C32A C27A 1_555 1_555
H26A C32A 1_555 1_555
C33A C31A 1_555 1_555
H27A C33A 1_555 1_555
C34A C17A 1_555 1_555
H28A C34A 1_555 1_555
C35A C34A 1_555 1_555
H29A C35A 1_555 1_555
C36A C15A 1_555 1_555
H30A C36A 1_555 1_555
C2 C8 1_555 1_555
N3 O6 1_555 1_555
C4 C8 1_555 1_555
O8 N4 1_555 1_555
O9 N6 1_555 1_555
C10 C25 1_555 1_555
C13 C21 1_555 1_555
C16 C22 1_555 1_555
C17 C29 1_555 1_555
C18 C30 1_555 1_555
C23 C24 1_555 1_555
C26 C28 1_555 1_555
C26 C29 1_555 1_555
C32 C33 1_555 1_555
C35 C36 1_555 1_555
C2A C8A 1_555 1_555
N3A O6A 1_555 1_555
C4A C8A 1_555 1_555
O8A N4A 1_555 1_555
N5A C19A 1_555 1_555
O9A N6A 1_555 1_555
C10A C25A 1_555 1_555
C13A C21A 1_555 1_555
C16A C22A 1_555 1_555
C17A C29A 1_555 1_555
C18A C30A 1_555 1_555
C23A C24A 1_555 1_555
C26A C28A 1_555 1_555
C26A C29A 1_555 1_555
C32A C33A 1_555 1_555
C35A C36A 1_555 1_555

#END
