
#######################################################################
#
#                 Cambridge Crystallographic Data Centre
#                                CCDC 
#
#######################################################################
#
# If this CIF has been generated from an entry in the Cambridge 
# Structural Database, then it will include bibliographic, chemical, 
# crystal, experimental, refinement or atomic coordinate data resulting 
# from the CCDC's data processing and validation procedures.
#
#######################################################################

data_KETJOK
_symmetry_cell_setting           monoclinic
_symmetry_space_group_name_H-M   'C 2/c'
_symmetry_Int_Tables_number      15
_space_group_name_Hall           '-C 2yn'
loop_
_symmetry_equiv_pos_site_id
_symmetry_equiv_pos_as_xyz
1 x,y,z
2 -x,y,1/2-z
3 1/2+x,1/2+y,z
4 1/2-x,1/2+y,1/2-z
5 -x,-y,-z
6 x,-y,1/2+z
7 1/2-x,1/2-y,-z
8 1/2+x,1/2-y,1/2+z
_cell_length_a                   27.652(6)
_cell_length_b                   16.626(3)
_cell_length_c                   17.754(4)
_cell_angle_alpha                90
_cell_angle_beta                 112.57(3)
_cell_angle_gamma                90
_cell_volume                     7537.13
loop_
_atom_site_label
_atom_site_type_symbol
_atom_site_fract_x
_atom_site_fract_y
_atom_site_fract_z
Er1 Er 0.182882(11) 0.416716(18) 0.319137(18)
O1 O 0.17719(18) 0.5481(3) 0.3456(3)
H1 H 0.1448 0.5583 0.3205
N1 N 0.0405(2) 0.5022(3) 0.3349(4)
C1 C 0.3860(3) 0.7435(4) 0.2600(4)
O2 O 0.34660(17) 0.7938(2) 0.2317(3)
H2 H 0.3609 0.8119 0.2005
N2 N 0.1912(2) 0.6580(3) 0.2560(3)
C2 C 0.3765(3) 0.6615(4) 0.2648(5)
O3 O 0.11965(17) 0.4074(3) 0.3687(3)
H3 H 0.1327 0.3935 0.4185
N3 N 0.2831(2) 0.6738(3) 0.1992(3)
C3 C 0.4211(3) 0.6090(5) 0.3011(7)
O4 O 0.09786(18) 0.4591(3) 0.2122(3)
N4 N 0.1175(3) 0.4911(4) 0.1662(4)
C4 C 0.4148(4) 0.5261(6) 0.3071(12)
H4 H 0.3815 0.5037 0.2906
O5 O 0.1658(2) 0.4854(3) 0.1882(3)
N5 N 0.2618(3) 0.3722(4) 0.4723(4)
C5 C 0.4594(6) 0.4772(8) 0.3384(18)
H5 H 0.4555 0.4218 0.3398
N6 N 0.2724(2) 0.4130(4) 0.2755(4)
O6 O 0.0905(2) 0.5264(4) 0.1043(4)
C6 C 0.5091(5) 0.5098(8) 0.3671(13)
H6 H 0.5382 0.4773 0.3923
O7 O 0.2490(2) 0.3253(3) 0.4109(3)
C7 C 0.5148(4) 0.5892(6) 0.3584(8)
H7 H 0.5482 0.6111 0.3737
O8 O 0.2345(2) 0.4336(3) 0.4629(3)
C8 C 0.4717(3) 0.6380(5) 0.3271(6)
C9 C 0.4789(3) 0.7198(5) 0.3204(5)
H8 H 0.5128 0.7400 0.3379
O9 O 0.2992(2) 0.3594(4) 0.5350(3)
O10 O 0.2654(2) 0.4688(3) 0.3177(3)
C10 C 0.4381(3) 0.7713(4) 0.2891(4)
H9 H 0.4446 0.8260 0.2867
O11 O 0.23929(19) 0.3583(3) 0.2520(3)
C11 C 0.1015(3) 0.3629(5) 0.4132(4)
O12 O 0.3118(3) 0.4114(4) 0.2595(5)
C12 C 0.1270(3) 0.2907(5) 0.4498(4)
H10 H 0.1570 0.2744 0.4423
C13 C 0.1084(3) 0.2460(5) 0.4950(4)
H11 H 0.1252 0.1983 0.5177
C14 C 0.0619(3) 0.2712(6) 0.5094(5)
C15 C 0.0433(4) 0.2198(7) 0.5560(6)
H12 H 0.0621 0.1741 0.5804
C16 C -0.0017(4) 0.2372(8) 0.5649(7)
H13 H -0.0151 0.2025 0.5932
C17 C -0.0274(4) 0.3062(7) 0.5321(5)
H14 H -0.0579 0.3187 0.5400
C18 C -0.0103(3) 0.3583(5) 0.4878(4)
H15 H -0.0288 0.4053 0.4670
C19 C 0.0353(3) 0.3404(5) 0.4740(4)
C20 C 0.0553(3) 0.3896(4) 0.4244(4)
C21 C 0.0282(3) 0.4565(4) 0.3850(4)
H16 H -0.0014 0.4706 0.3947
C22 C 0.0086(3) 0.5718(4) 0.2952(5)
H17 H 0.0285 0.6204 0.3168
H18 H -0.0222 0.5731 0.3089
C23 C 0.1764(3) 0.6041(4) 0.3977(4)
C24 C 0.1688(3) 0.5828(4) 0.4697(4)
H19 H 0.1640 0.5290 0.4797
C25 C 0.1684(3) 0.6388(4) 0.5234(4)
H20 H 0.1641 0.6224 0.5705
C26 C 0.1741(3) 0.7224(4) 0.5119(4)
C27 C 0.1728(3) 0.7797(5) 0.5685(4)
H21 H 0.1679 0.7629 0.6150
C28 C 0.1784(3) 0.8593(5) 0.5574(5)
H22 H 0.1775 0.8967 0.5958
C29 C 0.1856(4) 0.8836(5) 0.4879(5)
H23 H 0.1893 0.9381 0.4796
C30 C 0.1873(3) 0.8292(4) 0.4312(5)
H24 H 0.1927 0.8474 0.3855
C31 C 0.1811(3) 0.7467(4) 0.4404(4)
C32 C 0.1824(2) 0.6859(4) 0.3820(4)
C33 C 0.1881(2) 0.7092(4) 0.3101(4)
H25 H 0.1896 0.7639 0.3001
C34 C 0.1898(3) 0.6815(4) 0.1761(4)
H26 H 0.1944 0.7393 0.1753
H27 H 0.1556 0.6687 0.1351
C35 C 0.2315(3) 0.6404(5) 0.1539(4)
H28 H 0.2317 0.5833 0.1655
H29 H 0.2230 0.6465 0.0959
C36 C 0.3252(3) 0.6312(4) 0.2306(5)
H30 H 0.3212 0.5757 0.2307
Er1C Er 0.317118(11) -0.083284(18) 0.180863(18)
Er1C_2 Er 0.317118(11) 0.916716(18) 0.180863(18)
Er1A Er -0.182882(11) 0.416716(18) 0.180863(18)
O1C O 0.32281(18) 0.0481(3) 0.1544(3)
H1C H 0.3552 0.0583 0.1795
N1A N -0.0405(2) 0.5022(3) 0.1651(4)
C1C C 0.1140(3) 0.2435(4) 0.2400(4)
O2C O 0.15340(17) 0.2938(2) 0.2683(3)
O2_2 O 0.34660(17) -0.2062(2) 0.2317(3)
H2C H 0.1391 0.3119 0.2995
H2_2 H 0.3609 -0.1881 0.2005
N2C N 0.3088(2) 0.1580(3) 0.2440(3)
C2C C 0.1235(3) 0.1615(4) 0.2352(5)
O3A O -0.11965(17) 0.4074(3) 0.1313(3)
O3C O 0.38035(17) -0.0926(3) 0.1313(3)
H3A H -0.1327 0.3935 0.0815
H3C H 0.3673 -0.1065 0.0815
N3C N 0.2169(2) 0.1738(3) 0.3008(3)
C3C C 0.0789(3) 0.1090(5) 0.1989(7)
O4C O 0.40214(18) -0.0409(3) 0.2878(3)
N4C N 0.3825(3) -0.0089(4) 0.3338(4)
C4C C 0.0852(4) 0.0261(6) 0.1929(12)
H4C H 0.1185 0.0037 0.2094
O5C O 0.3342(2) -0.0146(3) 0.3118(3)
N5C N 0.2382(3) -0.1278(4) 0.0277(4)
C5C C 0.0406(6) -0.0228(8) 0.1616(18)
H5C H 0.0445 -0.0782 0.1602
N6C N 0.2276(2) -0.0870(4) 0.2245(4)
O6C O 0.4095(2) 0.0264(4) 0.3957(4)
C6C C -0.0091(5) 0.0098(8) 0.1329(13)
H6C H -0.0382 -0.0227 0.1077
O7C O 0.2510(2) -0.1747(3) 0.0891(3)
C7C C -0.0148(4) 0.0892(6) 0.1416(8)
H7C H -0.0482 0.1111 0.1263
O8C O 0.2655(2) -0.0664(3) 0.0371(3)
C8C C 0.0283(3) 0.1380(5) 0.1729(6)
C9C C 0.0211(3) 0.2198(5) 0.1796(5)
H8C H -0.0128 0.2400 0.1621
O9C O 0.2008(2) -0.1406(4) -0.0350(3)
O10C O 0.2346(2) -0.0312(3) 0.1823(3)
C10C C 0.0619(3) 0.2713(4) 0.2109(4)
H9C H 0.0554 0.3260 0.2133
O11C O 0.26071(19) -0.1417(3) 0.2480(3)
C11A C -0.1015(3) 0.3629(5) 0.0868(4)
O12C O 0.1882(3) -0.0886(4) 0.2405(5)
C12A C -0.1270(3) 0.2907(5) 0.0502(4)
H10A H -0.1570 0.2744 0.0577
C13A C -0.1084(3) 0.2460(5) 0.0050(4)
H11A H -0.1252 0.1983 -0.0177
C14A C -0.0619(3) 0.2712(6) -0.0094(5)
C15A C -0.0433(4) 0.2198(7) -0.0560(6)
H12A H -0.0621 0.1741 -0.0804
C16A C 0.0017(4) 0.2372(8) -0.0649(7)
H13A H 0.0151 0.2025 -0.0932
C17A C 0.0274(4) 0.3062(7) -0.0321(5)
H14A H 0.0579 0.3187 -0.0400
C18A C 0.0103(3) 0.3583(5) 0.0122(4)
H15A H 0.0288 0.4053 0.0330
C19A C -0.0353(3) 0.3404(5) 0.0260(4)
C20A C -0.0553(3) 0.3896(4) 0.0756(4)
C21A C -0.0282(3) 0.4565(4) 0.1150(4)
H16A H 0.0014 0.4706 0.1053
C22A C -0.0086(3) 0.5718(4) 0.2048(5)
H17A H -0.0285 0.6204 0.1832
H18A H 0.0222 0.5731 0.1911
C23C C 0.3236(3) 0.1041(4) 0.1023(4)
C24C C 0.3312(3) 0.0828(4) 0.0303(4)
H19C H 0.3360 0.0290 0.0203
C25C C 0.3316(3) 0.1388(4) -0.0234(4)
H20C H 0.3359 0.1224 -0.0705
C26C C 0.3259(3) 0.2224(4) -0.0119(4)
C27C C 0.3272(3) 0.2797(5) -0.0685(4)
H21C H 0.3321 0.2629 -0.1150
C28C C 0.3216(3) 0.3593(5) -0.0574(5)
H22C H 0.3225 0.3967 -0.0958
C29C C 0.3144(4) 0.3836(5) 0.0121(5)
H23C H 0.3107 0.4381 0.0204
C30C C 0.3127(3) 0.3292(4) 0.0688(5)
H24C H 0.3073 0.3474 0.1145
C31C C 0.3189(3) 0.2467(4) 0.0596(4)
C32C C 0.3176(2) 0.1859(4) 0.1180(4)
C33C C 0.3119(2) 0.2092(4) 0.1899(4)
H25C H 0.3104 0.2639 0.1999
C34C C 0.3102(3) 0.1815(4) 0.3239(4)
H26C H 0.3056 0.2393 0.3247
H27C H 0.3444 0.1687 0.3649
C35C C 0.2685(3) 0.1404(5) 0.3461(4)
H28C H 0.2683 0.0833 0.3345
H29C H 0.2770 0.1465 0.4041
C36C C 0.1748(3) 0.1312(4) 0.2694(5)
H30C H 0.1788 0.0757 0.2693
loop_
_geom_bond_atom_site_label_1
_geom_bond_atom_site_label_2
_geom_bond_site_symmetry_1
_geom_bond_site_symmetry_2
Er1 O1 1_555 1_555
O1 H1 1_555 1_555
N1 C21 1_555 1_555
C1 O2 1_555 1_555
O2 H2 1_555 1_555
N2 C33 1_555 1_555
C2 C1 1_555 1_555
O3 Er1 1_555 1_555
H3 O3 1_555 1_555
N3 C35 1_555 1_555
C3 C2 1_555 1_555
O4 Er1 1_555 1_555
N4 O4 1_555 1_555
C4 C3 1_555 1_555
H4 C4 1_555 1_555
O5 Er1 1_555 1_555
N5 O7 1_555 1_555
C5 C4 1_555 1_555
H5 C5 1_555 1_555
N6 O10 1_555 1_555
O6 N4 1_555 1_555
C6 C5 1_555 1_555
H6 C6 1_555 1_555
O7 Er1 1_555 1_555
C7 C6 1_555 1_555
H7 C7 1_555 1_555
O8 Er1 1_555 1_555
C8 C3 1_555 1_555
C9 C8 1_555 1_555
H8 C9 1_555 1_555
O9 N5 1_555 1_555
O10 Er1 1_555 1_555
C10 C1 1_555 1_555
H9 C10 1_555 1_555
O11 Er1 1_555 1_555
C11 O3 1_555 1_555
O12 N6 1_555 1_555
C12 C11 1_555 1_555
H10 C12 1_555 1_555
C13 C12 1_555 1_555
H11 C13 1_555 1_555
C14 C13 1_555 1_555
C15 C14 1_555 1_555
H12 C15 1_555 1_555
C16 C15 1_555 1_555
H13 C16 1_555 1_555
C17 C16 1_555 1_555
H14 C17 1_555 1_555
C18 C17 1_555 1_555
H15 C18 1_555 1_555
C19 C14 1_555 1_555
C20 C11 1_555 1_555
C21 C20 1_555 1_555
H16 C21 1_555 1_555
C22 N1 1_555 1_555
H17 C22 1_555 1_555
H18 C22 1_555 1_555
C23 O1 1_555 1_555
C24 C23 1_555 1_555
H19 C24 1_555 1_555
C25 C24 1_555 1_555
H20 C25 1_555 1_555
C26 C25 1_555 1_555
C27 C26 1_555 1_555
H21 C27 1_555 1_555
C28 C27 1_555 1_555
H22 C28 1_555 1_555
C29 C28 1_555 1_555
H23 C29 1_555 1_555
C30 C29 1_555 1_555
H24 C30 1_555 1_555
C31 C26 1_555 1_555
C32 C23 1_555 1_555
C33 C32 1_555 1_555
H25 C33 1_555 1_555
C34 N2 1_555 1_555
H26 C34 1_555 1_555
H27 C34 1_555 1_555
C35 C34 1_555 1_555
H28 C35 1_555 1_555
H29 C35 1_555 1_555
C36 C2 1_555 1_555
H30 C36 1_555 1_555
Er1C O1C 1_555 1_555
Er1C_2 O2 1_555 1_555
Er1A O3A 1_555 1_555
O1C H1C 1_555 1_555
N1A C21A 1_555 1_555
C1C O2C 1_555 1_555
O2C Er1 1_555 1_555
O2_2 Er1C 1_555 1_555
H2C O2C 1_555 1_555
H2_2 O2_2 1_555 1_555
N2C C33C 1_555 1_555
C2C C1C 1_555 1_555
O3A H3A 1_555 1_555
O3C Er1C 1_555 1_555
H3C O3C 1_555 1_555
N3C C35C 1_555 1_555
C3C C2C 1_555 1_555
O4C Er1C 1_555 1_555
N4C O4C 1_555 1_555
C4C C3C 1_555 1_555
H4C C4C 1_555 1_555
O5C Er1C 1_555 1_555
N5C O7C 1_555 1_555
C5C C4C 1_555 1_555
H5C C5C 1_555 1_555
N6C O10C 1_555 1_555
O6C N4C 1_555 1_555
C6C C5C 1_555 1_555
H6C C6C 1_555 1_555
O7C Er1C 1_555 1_555
C7C C6C 1_555 1_555
H7C C7C 1_555 1_555
O8C Er1C 1_555 1_555
C8C C3C 1_555 1_555
C9C C8C 1_555 1_555
H8C C9C 1_555 1_555
O9C N5C 1_555 1_555
O10C Er1C 1_555 1_555
C10C C1C 1_555 1_555
H9C C10C 1_555 1_555
O11C Er1C 1_555 1_555
C11A O3A 1_555 1_555
O12C N6C 1_555 1_555
C12A C11A 1_555 1_555
H10A C12A 1_555 1_555
C13A C12A 1_555 1_555
H11A C13A 1_555 1_555
C14A C13A 1_555 1_555
C15A C14A 1_555 1_555
H12A C15A 1_555 1_555
C16A C15A 1_555 1_555
H13A C16A 1_555 1_555
C17A C16A 1_555 1_555
H14A C17A 1_555 1_555
C18A C17A 1_555 1_555
H15A C18A 1_555 1_555
C19A C14A 1_555 1_555
C20A C11A 1_555 1_555
C21A C20A 1_555 1_555
H16A C21A 1_555 1_555
C22A C22 1_555 1_555
H17A C22A 1_555 1_555
H18A C22A 1_555 1_555
C23C O1C 1_555 1_555
C24C C23C 1_555 1_555
H19C C24C 1_555 1_555
C25C C24C 1_555 1_555
H20C C25C 1_555 1_555
C26C C25C 1_555 1_555
C27C C26C 1_555 1_555
H21C C27C 1_555 1_555
C28C C27C 1_555 1_555
H22C C28C 1_555 1_555
C29C C28C 1_555 1_555
H23C C29C 1_555 1_555
C30C C29C 1_555 1_555
H24C C30C 1_555 1_555
C31C C26C 1_555 1_555
C32C C23C 1_555 1_555
C33C C32C 1_555 1_555
H25C C33C 1_555 1_555
C34C N2C 1_555 1_555
H26C C34C 1_555 1_555
H27C C34C 1_555 1_555
C35C C34C 1_555 1_555
H28C C35C 1_555 1_555
H29C C35C 1_555 1_555
C36C C2C 1_555 1_555
H30C C36C 1_555 1_555
N3 C36 1_555 1_555
N4 O5 1_555 1_555
N5 O8 1_555 1_555
N6 O11 1_555 1_555
C7 C8 1_555 1_555
C9 C10 1_555 1_555
C18 C19 1_555 1_555
C19 C20 1_555 1_555
C30 C31 1_555 1_555
C31 C32 1_555 1_555
N1A C22A 1_555 1_555
N3C C36C 1_555 1_555
N4C O5C 1_555 1_555
N5C O8C 1_555 1_555
N6C O11C 1_555 1_555
C7C C8C 1_555 1_555
C9C C10C 1_555 1_555
C18A C19A 1_555 1_555
C19A C20A 1_555 1_555
C30C C31C 1_555 1_555
C31C C32C 1_555 1_555

#END
