
#######################################################################
#
#                 Cambridge Crystallographic Data Centre
#                                CCDC 
#
#######################################################################
#
# If this CIF has been generated from an entry in the Cambridge 
# Structural Database, then it will include bibliographic, chemical, 
# crystal, experimental, refinement or atomic coordinate data resulting 
# from the CCDC's data processing and validation procedures.
#
#######################################################################

data_KETKAX
_symmetry_cell_setting           monoclinic
_symmetry_space_group_name_H-M   'C 2/c'
_symmetry_Int_Tables_number      15
_space_group_name_Hall           '-C 2yn'
loop_
_symmetry_equiv_pos_site_id
_symmetry_equiv_pos_as_xyz
1 x,y,z
2 -x,y,1/2-z
3 1/2+x,1/2+y,z
4 1/2-x,1/2+y,1/2-z
5 -x,-y,-z
6 x,-y,1/2+z
7 1/2-x,1/2-y,-z
8 1/2+x,1/2-y,1/2+z
_cell_length_a                   27.685(5)
_cell_length_b                   16.613(3)
_cell_length_c                   17.688(3)
_cell_angle_alpha                90
_cell_angle_beta                 112.51(3)
_cell_angle_gamma                90
_cell_volume                     7515.45
loop_
_atom_site_label
_atom_site_type_symbol
_atom_site_fract_x
_atom_site_fract_y
_atom_site_fract_z
Dy1 Dy 0.183079(16) -0.08391(3) 0.31967(3)
O1 O 0.1196(2) -0.0941(4) 0.3728(4)
H1 H 0.1363 -0.0825 0.3427
C1 C 0.1009(3) -0.1369(6) 0.4119(7)
N1 N 0.2734(3) -0.0877(6) 0.2748(6)
O2 O 0.1527(2) -0.2073(3) 0.2686(4)
H2 H 0.1731 -0.1669 0.2794
N2 N 0.2631(3) -0.1284(6) 0.4754(7)
C2 C 0.1264(4) -0.2084(6) 0.4499(7)
H3 H 0.1570 -0.2241 0.4440
O3 O 0.3227(2) -0.4523(4) 0.1516(4)
H4 H 0.3278 -0.4380 0.2003
N3 N 0.1169(4) -0.0078(5) 0.1659(6)
C3 C 0.1074(4) -0.2535(8) 0.4937(6)
H5 H 0.1237 -0.3021 0.5145
O4 O 0.1654(2) -0.0147(4) 0.1865(4)
N4 N 0.3080(3) -0.3427(5) 0.2435(5)
C4 C 0.0621(4) -0.2298(8) 0.5104(6)
O5 O 0.0975(2) -0.0409(4) 0.2109(4)
N5 N 0.2170(3) -0.3262(4) 0.3000(4)
C5 C 0.0437(5) -0.2799(9) 0.5565(9)
H6 H 0.0625 -0.3260 0.5802
N6 N 0.0393(3) 0.0010(5) 0.3341(5)
O6 O 0.0905(3) 0.0272(5) 0.1042(5)
C6 C -0.0019(6) -0.2626(11) 0.5675(11)
H7 H -0.0141 -0.2963 0.5982
O7 O 0.2354(3) -0.0673(4) 0.4674(4)
C7 C -0.0281(5) -0.1954(10) 0.5326(8)
H8 H -0.0597 -0.1843 0.5375
O8 O 0.3009(3) -0.1407(5) 0.5374(5)
C8 C -0.0099(4) -0.1434(7) 0.4905(6)
H9 H -0.0275 -0.0953 0.4711
C9 C 0.0354(4) -0.1614(7) 0.4759(6)
O9 O 0.2505(3) -0.1749(4) 0.4125(4)
O10 O 0.2399(2) -0.1420(4) 0.2517(4)
C10 C 0.0556(3) -0.1123(6) 0.4271(5)
O11 O 0.2660(2) -0.0316(4) 0.3178(4)
C11 C 0.0276(3) -0.0441(6) 0.3857(6)
H10 H -0.0017 -0.0296 0.3959
O12 O 0.3119(3) -0.0903(5) 0.2582(6)
C12 C 0.0071(4) 0.0708(5) 0.2956(6)
H11 H 0.0261 0.1197 0.3188
H12 H -0.0245 0.0700 0.3068
C13 C 0.1152(3) -0.2574(6) 0.2394(6)
C14 C 0.0624(3) -0.2291(5) 0.2117(6)
H13 H 0.0559 -0.1747 0.2155
C15 C 0.0226(4) -0.2804(6) 0.1805(7)
H14 H -0.0112 -0.2596 0.1623
C16 C 0.0284(4) -0.3631(6) 0.1734(9)
C17 C -0.0146(5) -0.4141(8) 0.1420(11)
H15 H -0.0482 -0.3926 0.1240
C18 C -0.0083(7) -0.4939(10) 0.1374(16)
H16 H -0.0371 -0.5278 0.1157
C19 C 0.0412(7) -0.5238(9) 0.1651(19)
H17 H 0.0456 -0.5792 0.1628
C20 C 0.0847(5) -0.4767(7) 0.1960(13)
H18 H 0.1178 -0.4997 0.2132
C21 C 0.0794(4) -0.3939(6) 0.2018(9)
C22 C 0.1230(4) -0.3404(6) 0.2345(7)
C23 C 0.1749(4) -0.3701(6) 0.2688(6)
H19 H 0.1794 -0.4256 0.2692
C24 C 0.2689(3) -0.3600(6) 0.3448(5)
H20 H 0.2687 -0.4168 0.3319
H21 H 0.2772 -0.3552 0.4031
C25 C 0.3101(3) -0.3190(6) 0.3246(5)
H22 H 0.3055 -0.2612 0.3258
H23 H 0.3442 -0.3324 0.3655
C26 C 0.3113(3) -0.2917(6) 0.1908(6)
H24 H 0.3098 -0.2372 0.2018
C27 C 0.3169(3) -0.3129(5) 0.1183(6)
C28 C 0.3234(3) -0.3949(6) 0.1017(6)
C29 C 0.3311(3) -0.4160(6) 0.0302(7)
H25 H 0.3362 -0.4697 0.0206
C30 C 0.3313(3) -0.3601(6) -0.0242(6)
H26 H 0.3351 -0.3775 -0.0716
C31 C 0.3260(3) -0.2775(6) -0.0149(5)
C32 C 0.3272(4) -0.2196(7) -0.0689(7)
H27 H 0.3312 -0.2351 -0.1167
C33 C 0.3229(4) -0.1401(8) -0.0551(8)
H28 H 0.3261 -0.1023 -0.0916
C34 C 0.3138(5) -0.1149(6) 0.0124(9)
H29 H 0.3086 -0.0609 0.0206
C35 C 0.3126(4) -0.1711(6) 0.0656(7)
H30 H 0.3072 -0.1536 0.1117
C36 C 0.3188(3) -0.2527(6) 0.0583(5)
Dy1A Dy -0.183079(16) -0.08391(3) 0.18033(3)
Dy1C Dy 0.316921(16) -0.58391(3) 0.18033(3)
Dy1C_2 Dy 0.316921(16) 0.41609(3) 0.18033(3)
O1A O -0.1196(2) -0.0941(4) 0.1272(4)
H1A H -0.1363 -0.0825 0.1573
C1A C -0.1009(3) -0.1369(6) 0.0881(7)
N1A N -0.2734(3) -0.0877(6) 0.2252(6)
O2C O 0.3473(2) 0.2927(3) 0.2314(4)
O2A O -0.1527(2) -0.2073(3) 0.2314(4)
H2C H 0.3269 0.3331 0.2206
H2A H -0.1731 -0.1669 0.2206
N2A N -0.2631(3) -0.1284(6) 0.0246(7)
C2A C -0.1264(4) -0.2084(6) 0.0501(7)
H3A H -0.1570 -0.2241 0.0560
O3C O 0.1773(2) 0.0477(4) 0.3484(4)
O3B O -0.1773(2) 0.0477(4) 0.1516(4)
H4C H 0.1722 0.0620 0.2997
H4B H -0.1722 0.0620 0.2003
N3A N -0.1169(4) -0.0078(5) 0.3341(6)
C3A C -0.1074(4) -0.2535(8) 0.0063(6)
H5A H -0.1237 -0.3021 -0.0145
O4A O -0.1654(2) -0.0147(4) 0.3135(4)
N4C N 0.1920(3) 0.1573(5) 0.2565(5)
C4A C -0.0621(4) -0.2298(8) -0.0104(6)
O5A O -0.0975(2) -0.0409(4) 0.2891(4)
N5C N 0.2830(3) 0.1738(4) 0.2000(4)
C5A C -0.0437(5) -0.2799(9) -0.0565(9)
H6A H -0.0625 -0.3260 -0.0802
N6A N -0.0393(3) 0.0010(5) 0.1659(5)
O6A O -0.0905(3) 0.0272(5) 0.3958(5)
C6A C 0.0019(6) -0.2626(11) -0.0675(11)
H7A H 0.0141 -0.2963 -0.0982
O7A O -0.2354(3) -0.0673(4) 0.0326(4)
C7A C 0.0281(5) -0.1954(10) -0.0326(8)
H8A H 0.0597 -0.1843 -0.0375
O8A O -0.3009(3) -0.1407(5) -0.0374(5)
C8A C 0.0099(4) -0.1434(7) 0.0095(6)
H9A H 0.0275 -0.0953 0.0289
C9A C -0.0354(4) -0.1614(7) 0.0241(6)
O9A O -0.2505(3) -0.1749(4) 0.0875(4)
O10A O -0.2399(2) -0.1420(4) 0.2483(4)
C10A C -0.0556(3) -0.1123(6) 0.0729(5)
O11A O -0.2660(2) -0.0316(4) 0.1822(4)
C11A C -0.0276(3) -0.0441(6) 0.1143(6)
H10A H 0.0017 -0.0296 0.1041
O12A O -0.3119(3) -0.0903(5) 0.2418(6)
C12A C -0.0071(4) 0.0708(5) 0.2044(6)
H11A H -0.0261 0.1197 0.1812
H12A H 0.0245 0.0700 0.1932
C13C C 0.3848(3) 0.2426(6) 0.2606(6)
C14C C 0.4376(3) 0.2709(5) 0.2883(6)
H13C H 0.4441 0.3253 0.2845
C15C C 0.4774(4) 0.2196(6) 0.3195(7)
H14C H 0.5112 0.2404 0.3377
C16C C 0.4716(4) 0.1369(6) 0.3266(9)
C17C C 0.5146(5) 0.0859(8) 0.3580(11)
H15C H 0.5482 0.1074 0.3760
C18C C 0.5083(7) 0.0061(10) 0.3626(16)
H16C H 0.5371 -0.0278 0.3843
C19C C 0.4588(7) -0.0238(9) 0.3349(19)
H17C H 0.4544 -0.0792 0.3372
C20C C 0.4153(5) 0.0233(7) 0.3040(13)
H18C H 0.3822 0.0003 0.2868
C21C C 0.4206(4) 0.1061(6) 0.2982(9)
C22C C 0.3770(4) 0.1596(6) 0.2655(7)
C23C C 0.3251(4) 0.1299(6) 0.2312(6)
H19C H 0.3206 0.0744 0.2308
C24C C 0.2311(3) 0.1400(6) 0.1552(5)
H20C H 0.2313 0.0832 0.1681
H21C H 0.2228 0.1448 0.0969
C25C C 0.1899(3) 0.1810(6) 0.1754(5)
H22C H 0.1945 0.2388 0.1742
H23C H 0.1558 0.1676 0.1345
C26C C 0.1887(3) 0.2083(6) 0.3092(6)
H24C H 0.1902 0.2628 0.2982
C27C C 0.1831(3) 0.1871(5) 0.3817(6)
C28C C 0.1766(3) 0.1051(6) 0.3983(6)
C29C C 0.1689(3) 0.0840(6) 0.4698(7)
H25C H 0.1638 0.0303 0.4794
C30C C 0.1687(3) 0.1399(6) 0.5242(6)
H26C H 0.1649 0.1225 0.5716
C31C C 0.1740(3) 0.2225(6) 0.5149(5)
C32C C 0.1728(4) 0.2804(7) 0.5689(7)
H27C H 0.1688 0.2649 0.6167
C33C C 0.1771(4) 0.3599(8) 0.5551(8)
H28C H 0.1739 0.3977 0.5916
C34C C 0.1862(5) 0.3851(6) 0.4876(9)
H29C H 0.1914 0.4391 0.4794
C35C C 0.1874(4) 0.3289(6) 0.4344(7)
H30C H 0.1928 0.3464 0.3883
C36C C 0.1812(3) 0.2473(6) 0.4417(5)
loop_
_geom_bond_atom_site_label_1
_geom_bond_atom_site_label_2
_geom_bond_site_symmetry_1
_geom_bond_site_symmetry_2
Dy1 O1 1_555 1_555
O1 H1 1_555 1_555
C1 O1 1_555 1_555
N1 O10 1_555 1_555
O2 Dy1 1_555 1_555
H2 O2 1_555 1_555
N2 O7 1_555 1_555
C2 C1 1_555 1_555
H3 C2 1_555 1_555
O3 H4 1_555 1_555
N3 O4 1_555 1_555
C3 C2 1_555 1_555
H5 C3 1_555 1_555
O4 Dy1 1_555 1_555
N4 C25 1_555 1_555
C4 C3 1_555 1_555
O5 Dy1 1_555 1_555
N5 C23 1_555 1_555
C5 C4 1_555 1_555
H6 C5 1_555 1_555
N6 C11 1_555 1_555
O6 N3 1_555 1_555
C6 C5 1_555 1_555
H7 C6 1_555 1_555
O7 Dy1 1_555 1_555
C7 C6 1_555 1_555
H8 C7 1_555 1_555
O8 N2 1_555 1_555
C8 C7 1_555 1_555
H9 C8 1_555 1_555
C9 C4 1_555 1_555
O9 Dy1 1_555 1_555
O10 Dy1 1_555 1_555
C10 C1 1_555 1_555
O11 Dy1 1_555 1_555
C11 C10 1_555 1_555
H10 C11 1_555 1_555
O12 N1 1_555 1_555
C12 N6 1_555 1_555
H11 C12 1_555 1_555
H12 C12 1_555 1_555
C13 O2 1_555 1_555
C14 C13 1_555 1_555
H13 C14 1_555 1_555
C15 C14 1_555 1_555
H14 C15 1_555 1_555
C16 C15 1_555 1_555
C17 C16 1_555 1_555
H15 C17 1_555 1_555
C18 C17 1_555 1_555
H16 C18 1_555 1_555
C19 C18 1_555 1_555
H17 C19 1_555 1_555
C20 C19 1_555 1_555
H18 C20 1_555 1_555
C21 C16 1_555 1_555
C22 C13 1_555 1_555
C23 C22 1_555 1_555
H19 C23 1_555 1_555
C24 N5 1_555 1_555
H20 C24 1_555 1_555
H21 C24 1_555 1_555
C25 C24 1_555 1_555
H22 C25 1_555 1_555
H23 C25 1_555 1_555
C26 N4 1_555 1_555
H24 C26 1_555 1_555
C27 C26 1_555 1_555
C28 O3 1_555 1_555
C29 C28 1_555 1_555
H25 C29 1_555 1_555
C30 C29 1_555 1_555
H26 C30 1_555 1_555
C31 C30 1_555 1_555
C32 C31 1_555 1_555
H27 C32 1_555 1_555
C33 C32 1_555 1_555
H28 C33 1_555 1_555
C34 C33 1_555 1_555
H29 C34 1_555 1_555
C35 C34 1_555 1_555
H30 C35 1_555 1_555
C36 C27 1_555 1_555
Dy1A O1A 1_555 1_555
Dy1C O3 1_555 1_555
Dy1C_2 O2C 1_555 1_555
O1A H1A 1_555 1_555
C1A O1A 1_555 1_555
N1A O10A 1_555 1_555
O2C H2C 1_555 1_555
O2A Dy1A 1_555 1_555
H2A O2A 1_555 1_555
N2A O7A 1_555 1_555
C2A C1A 1_555 1_555
H3A C2A 1_555 1_555
O3C Dy1 1_555 1_555
O3B Dy1A 1_555 1_555
H4C O3C 1_555 1_555
H4B O3B 1_555 1_555
N3A O4A 1_555 1_555
C3A C2A 1_555 1_555
H5A C3A 1_555 1_555
O4A Dy1A 1_555 1_555
N4C C25C 1_555 1_555
C4A C3A 1_555 1_555
O5A Dy1A 1_555 1_555
N5C C23C 1_555 1_555
C5A C4A 1_555 1_555
H6A C5A 1_555 1_555
N6A C11A 1_555 1_555
O6A N3A 1_555 1_555
C6A C5A 1_555 1_555
H7A C6A 1_555 1_555
O7A Dy1A 1_555 1_555
C7A C6A 1_555 1_555
H8A C7A 1_555 1_555
O8A N2A 1_555 1_555
C8A C7A 1_555 1_555
H9A C8A 1_555 1_555
C9A C4A 1_555 1_555
O9A Dy1A 1_555 1_555
O10A Dy1A 1_555 1_555
C10A C1A 1_555 1_555
O11A Dy1A 1_555 1_555
C11A C10A 1_555 1_555
H10A C11A 1_555 1_555
O12A N1A 1_555 1_555
C12A C12 1_555 1_555
H11A C12A 1_555 1_555
H12A C12A 1_555 1_555
C13C O2C 1_555 1_555
C14C C13C 1_555 1_555
H13C C14C 1_555 1_555
C15C C14C 1_555 1_555
H14C C15C 1_555 1_555
C16C C15C 1_555 1_555
C17C C16C 1_555 1_555
H15C C17C 1_555 1_555
C18C C17C 1_555 1_555
H16C C18C 1_555 1_555
C19C C18C 1_555 1_555
H17C C19C 1_555 1_555
C20C C19C 1_555 1_555
H18C C20C 1_555 1_555
C21C C16C 1_555 1_555
C22C C13C 1_555 1_555
C23C C22C 1_555 1_555
H19C C23C 1_555 1_555
C24C N5C 1_555 1_555
H20C C24C 1_555 1_555
H21C C24C 1_555 1_555
C25C C24C 1_555 1_555
H22C C25C 1_555 1_555
H23C C25C 1_555 1_555
C26C N4C 1_555 1_555
H24C C26C 1_555 1_555
C27C C26C 1_555 1_555
C28C O3C 1_555 1_555
C29C C28C 1_555 1_555
H25C C29C 1_555 1_555
C30C C29C 1_555 1_555
H26C C30C 1_555 1_555
C31C C30C 1_555 1_555
C32C C31C 1_555 1_555
H27C C32C 1_555 1_555
C33C C32C 1_555 1_555
H28C C33C 1_555 1_555
C34C C33C 1_555 1_555
H29C C34C 1_555 1_555
C35C C34C 1_555 1_555
H30C C35C 1_555 1_555
C36C C27C 1_555 1_555
N1 O11 1_555 1_555
N2 O9 1_555 1_555
N3 O5 1_555 1_555
C8 C9 1_555 1_555
C9 C10 1_555 1_555
C20 C21 1_555 1_555
C21 C22 1_555 1_555
C27 C28 1_555 1_555
C31 C36 1_555 1_555
C35 C36 1_555 1_555
N1A O11A 1_555 1_555
N2A O9A 1_555 1_555
N3A O5A 1_555 1_555
N6A C12A 1_555 1_555
C8A C9A 1_555 1_555
C9A C10A 1_555 1_555
C20C C21C 1_555 1_555
C21C C22C 1_555 1_555
C27C C28C 1_555 1_555
C31C C36C 1_555 1_555
C35C C36C 1_555 1_555

#END
