
#######################################################################
#
#                 Cambridge Crystallographic Data Centre
#                                CCDC 
#
#######################################################################
#
# If this CIF has been generated from an entry in the Cambridge 
# Structural Database, then it will include bibliographic, chemical, 
# crystal, experimental, refinement or atomic coordinate data resulting 
# from the CCDC's data processing and validation procedures.
#
#######################################################################

data_KETKOJ
_symmetry_cell_setting           monoclinic
_symmetry_space_group_name_H-M   'P 21/a'
_symmetry_Int_Tables_number      14
_space_group_name_Hall           '-P 2yab'
loop_
_symmetry_equiv_pos_site_id
_symmetry_equiv_pos_as_xyz
1 x,y,z
2 1/2-x,1/2+y,-z
3 -x,-y,-z
4 1/2+x,1/2-y,z
_cell_length_a                   8.603(3)
_cell_length_b                   9.243(3)
_cell_length_c                   18.276(4)
_cell_angle_alpha                90
_cell_angle_beta                 96.92(2)
_cell_angle_gamma                90
_cell_volume                     1442.68
loop_
_atom_site_label
_atom_site_type_symbol
_atom_site_fract_x
_atom_site_fract_y
_atom_site_fract_z
U1 U 0.00280(3) 0.2515(1) 0.23639(2)
O1 O -0.020(1) 0.067(1) 0.2183(6)
O2 O 0.024(1) 0.438(1) 0.2548(5)
O3 O 0.2782(8) 0.235(1) 0.3060(4)
O4 O 0.083(1) 0.178(1) 0.3647(5)
O5 O 0.209(1) 0.162(1) 0.5308(5)
C1 C 0.229(1) 0.183(1) 0.3655(6)
C2 C 0.343(1) 0.129(2) 0.4258(7)
C3 C 0.270(2) 0.055(2) 0.4886(8)
C4 C 0.162(2) 0.104(2) 0.5962(9)
C5 C 0.086(3) 0.219(3) 0.636(1)
O6 O -0.075(1) 0.325(1) 0.1080(5)
C6 C -0.220(1) 0.320(2) 0.1093(7)
O7 O -0.2719(8) 0.269(1) 0.1666(4)
O8 O -0.209(1) 0.301(1) -0.0560(6)
C7 C -0.328(1) 0.379(2) 0.0455(7)
C8 C -0.248(2) 0.425(2) -0.0193(8)
C9 C -0.161(4) 0.236(3) -0.174(1)
C10 C -0.143(3) 0.336(3) -0.122(1)
H1 H 0.4080 0.2057 0.4462
H2 H 0.4111 0.0584 0.4057
H3 H 0.1903 -0.0089 0.4680
H4 H 0.3485 0.0000 0.5184
H5 H 0.2525 0.0619 0.6267
H6 H 0.0891 0.0253 0.5853
H7 H 0.0634 0.1771 0.6796
H8 H 0.0078 0.2521 0.6051
H9 H 0.1711 0.2882 0.6468
H10 H -0.4027 0.3004 0.0294
H11 H -0.3892 0.4554 0.0621
H12 H -0.1584 0.4810 -0.0035
H13 H -0.3181 0.4848 -0.0529
H14 H -0.2862 0.2298 -0.1905
H15 H -0.1292 0.2661 -0.2201
H16 H -0.1353 0.1456 -0.1615
H17 H -0.1824 0.4333 -0.1375
H18 H -0.0317 0.3490 -0.1084
O3C O -0.2218(8) 0.265(1) 0.3060(4)
O7C O 0.2281(8) 0.231(1) 0.1666(4)
U1C U -0.49720(3) 0.2485(1) 0.23639(2)
U1C_2 U 0.50280(3) 0.2485(1) 0.23639(2)
loop_
_geom_bond_atom_site_label_1
_geom_bond_atom_site_label_2
_geom_bond_site_symmetry_1
_geom_bond_site_symmetry_2
U1 O1 1_555 1_555
O2 U1 1_555 1_555
O3 U1 1_555 1_555
O4 U1 1_555 1_555
O5 C3 1_555 1_555
C1 O3 1_555 1_555
C2 C1 1_555 1_555
C3 C2 1_555 1_555
C4 O5 1_555 1_555
C5 C4 1_555 1_555
O6 U1 1_555 1_555
C6 O6 1_555 1_555
O7 U1 1_555 1_555
O8 C8 1_555 1_555
C7 C6 1_555 1_555
C8 C7 1_555 1_555
C9 C10 1_555 1_555
C10 O8 1_555 1_555
H1 C2 1_555 1_555
H2 C2 1_555 1_555
H3 C3 1_555 1_555
H4 C3 1_555 1_555
H5 C4 1_555 1_555
H6 C4 1_555 1_555
H7 C5 1_555 1_555
H8 C5 1_555 1_555
H9 C5 1_555 1_555
H10 C7 1_555 1_555
H11 C7 1_555 1_555
H12 C8 1_555 1_555
H13 C8 1_555 1_555
H14 C9 1_555 1_555
H15 C9 1_555 1_555
H16 C9 1_555 1_555
H17 C10 1_555 1_555
H18 C10 1_555 1_555
O3C U1 1_555 1_555
O7C U1 1_555 1_555
U1C O7 1_555 1_555
U1C_2 O3 1_555 1_555
O4 C1 1_555 1_555
C6 O7 1_555 1_555
O3C U1C 1_555 1_555
O7C U1C_2 1_555 1_555

#END
