
#######################################################################
#
#                 Cambridge Crystallographic Data Centre
#                                CCDC 
#
#######################################################################
#
# If this CIF has been generated from an entry in the Cambridge 
# Structural Database, then it will include bibliographic, chemical, 
# crystal, experimental, refinement or atomic coordinate data resulting 
# from the CCDC's data processing and validation procedures.
#
#######################################################################

data_KETNUT01
_symmetry_cell_setting           triclinic
_symmetry_space_group_name_H-M   'P -1'
_symmetry_Int_Tables_number      2
_space_group_name_Hall           '-P 1'
loop_
_symmetry_equiv_pos_site_id
_symmetry_equiv_pos_as_xyz
1 x,y,z
2 -x,-y,-z
_cell_length_a                   8.4995(5)
_cell_length_b                   9.9202(7)
_cell_length_c                   15.0741(10)
_cell_angle_alpha                82.710(6)
_cell_angle_beta                 79.731(6)
_cell_angle_gamma                88.621(5)
_cell_volume                     1240.53
loop_
_atom_site_label
_atom_site_type_symbol
_atom_site_fract_x
_atom_site_fract_y
_atom_site_fract_z
C1 C 0.8407(9) 0.4993(8) 0.4115(5)
H1 H 0.8371 0.4082 0.4030
C2 C 0.9307(12) 0.7036(10) 0.4081(7)
H2 H 0.9965 0.7795 0.3977
C3 C 0.7754(11) 0.6963(9) 0.4498(6)
H3 H 0.7163 0.7676 0.4736
C4 C 1.1223(10) 0.5386(11) 0.3340(7)
H4 H 1.1292 0.4412 0.3400
H5 H 1.2084 0.5743 0.3574
H6 H 1.1297 0.5736 0.2710
C5 C 0.5152(9) 0.6635(8) 0.6664(5)
C6 C 1.0070(9) 0.7576(8) 0.8001(6)
C7 C 0.7697(12) 1.0594(9) 0.8698(7)
C8 C 0.6617(11) 0.1749(10) 0.5506(6)
N1 N 0.7193(8) 0.5677(7) 0.4513(4)
N2 N 0.9708(8) 0.5790(7) 0.3846(4)
N3 N 0.4999(8) 0.5957(7) 0.6105(5)
N4 N 0.9956(9) 0.7049(8) 0.8738(5)
N5 N 0.8255(11) 1.0253(10) 0.9336(7)
N6 N 0.6046(10) 0.2766(8) 0.5653(6)
S1 S 0.5311(4) 0.7530(3) 0.74810(16)
S2 S 1.0327(3) 0.8263(2) 0.69183(14)
S3 S 0.6884(3) 1.1160(3) 0.78064(17)
S4 S 0.7512(4) 0.0306(3) 0.52404(15)
Cu1 Cu 0.5000 0.5000 0.5000
Hg1 Hg 0.76089(4) 0.92794(3) 0.68372(2)
C1A C 0.1593(9) 0.5007(8) 0.5885(5)
H1A H 0.1629 0.5918 0.5970
C2A C 0.0693(12) 0.2964(10) 0.5919(7)
H2A H 0.0035 0.2205 0.6023
C3A C 0.2246(11) 0.3037(9) 0.5502(6)
H3A H 0.2837 0.2324 0.5264
C4A C -0.1223(10) 0.4614(11) 0.6660(7)
H4A H -0.1292 0.5588 0.6600
H5A H -0.2084 0.4257 0.6426
H6A H -0.1297 0.4264 0.7290
C5A C 0.4848(9) 0.3365(8) 0.3336(5)
C6A C -0.0070(9) 0.2424(8) 0.1999(6)
C7A C 0.2303(12) -0.0594(9) 0.1302(7)
C8A C 0.3383(11) 0.8251(10) 0.4494(6)
N1A N 0.2807(8) 0.4323(7) 0.5487(4)
N2A N 0.0292(8) 0.4210(7) 0.6154(4)
N3A N 0.5001(8) 0.4043(7) 0.3895(5)
N4A N 0.0044(9) 0.2951(8) 0.1262(5)
N5A N 0.1745(11) -0.0253(10) 0.0664(7)
N6A N 0.3954(10) 0.7234(8) 0.4347(6)
S1A S 0.4689(4) 0.2470(3) 0.25190(16)
S2A S -0.0327(3) 0.1737(2) 0.30817(14)
S3A S 0.3116(3) -0.1160(3) 0.21936(17)
S4A S 0.2488(4) 0.9694(3) 0.47596(15)
S4_2 S 0.7512(4) 1.0306(3) 0.52404(15)
S4A_2 S 0.2488(4) -0.0306(3) 0.47596(15)
Hg1A Hg 0.23911(4) 0.07206(3) 0.31628(2)
Hg1_2 Hg 0.76089(4) -0.07206(3) 0.68372(2)
Hg1A_2 Hg 0.23911(4) 1.07206(3) 0.31628(2)
C9 C 1.2912(9) 0.6760(8) 0.9775(5)
H7 H 1.2649 0.7309 0.9275
C10 C 1.2890(10) 0.5203(9) 1.0889(5)
H8 H 1.2591 0.4454 1.1318
C11 C 1.4176(10) 0.5945(9) 1.0850(5)
H9 H 1.4927 0.5807 1.1231
C12 C 1.5365(11) 0.8010(10) 0.9835(6)
H10 H 1.6372 0.7614 0.9602
H11 H 1.5481 0.8488 1.0335
H12 H 1.5026 0.8633 0.9364
C13 C 0.8887(10) 0.7427(8) 1.0906(5)
H13 H 0.9480 0.7993 1.0431
C14 C 0.7836(10) 0.5657(9) 1.1755(5)
H14 H 0.7570 0.4757 1.1972
C15 C 0.7317(11) 0.6743(9) 1.2179(6)
H15 H 0.6633 0.6729 1.2735
C16 C 0.7776(13) 0.9283(9) 1.1827(7)
H16 H 0.6719 0.9588 1.1758
H17 H 0.8551 0.9842 1.1407
H18 H 0.7926 0.9347 1.2437
N7 N 1.2044(7) 0.5683(6) 1.0210(4)
N8 N 1.4191(7) 0.6956(7) 1.0139(4)
N9 N 0.8825(7) 0.6097(6) 1.0948(4)
N10 N 0.7979(9) 0.7861(7) 1.1643(5)
Cu2 Cu 1.0000 0.5000 1.0000
C9A C 0.7088(9) 0.3240(8) 1.0225(5)
H7A H 0.7351 0.2691 1.0725
C10A C 0.7110(10) 0.4797(9) 0.9111(5)
H8A H 0.7409 0.5546 0.8682
C11A C 0.5824(10) 0.4055(9) 0.9150(5)
H9A H 0.5073 0.4193 0.8769
C12A C 0.4635(11) 0.1990(10) 1.0165(6)
H10A H 0.3628 0.2386 1.0398
H11A H 0.4519 0.1512 0.9665
H12A H 0.4974 0.1367 1.0636
C13A C 1.1113(10) 0.2573(8) 0.9094(5)
H13A H 1.0520 0.2007 0.9569
C14A C 1.2164(10) 0.4343(9) 0.8245(5)
H14A H 1.2430 0.5243 0.8028
C15A C 1.2683(11) 0.3257(9) 0.7821(6)
H15A H 1.3367 0.3271 0.7265
C16A C 1.2224(13) 0.0717(9) 0.8173(7)
H16A H 1.3281 0.0412 0.8242
H17A H 1.1449 0.0158 0.8593
H18A H 1.2074 0.0653 0.7563
N7A N 0.7956(7) 0.4317(6) 0.9790(4)
N8A N 0.5809(7) 0.3044(7) 0.9861(4)
N9A N 1.1175(7) 0.3903(6) 0.9052(4)
N10A N 1.2021(9) 0.2139(7) 0.8357(5)
loop_
_geom_bond_atom_site_label_1
_geom_bond_atom_site_label_2
_geom_bond_site_symmetry_1
_geom_bond_site_symmetry_2
C1 H1 1_555 1_555
C2 H2 1_555 1_555
C3 C2 1_555 1_555
H3 C3 1_555 1_555
C4 H4 1_555 1_555
H5 C4 1_555 1_555
H6 C4 1_555 1_555
C5 N3 1_555 1_555
C6 N4 1_555 1_555
C7 N5 1_555 1_555
C8 N6 1_555 1_555
N1 C1 1_555 1_555
N2 C1 1_555 1_555
N3 Cu1 1_555 1_555
N6 Cu1 1_555 1_555
S1 C5 1_555 1_555
S2 C6 1_555 1_555
S3 C7 1_555 1_555
S4 C8 1_555 1_555
Cu1 N1 1_555 1_555
Hg1 S1 1_555 1_555
C9 H7 1_555 1_555
C10 H8 1_555 1_555
C11 C10 1_555 1_555
H9 C11 1_555 1_555
C12 H10 1_555 1_555
H11 C12 1_555 1_555
H12 C12 1_555 1_555
C13 H13 1_555 1_555
C14 H14 1_555 1_555
C15 C14 1_555 1_555
H15 C15 1_555 1_555
C16 H16 1_555 1_555
H17 C16 1_555 1_555
H18 C16 1_555 1_555
N7 C9 1_555 1_555
N8 C9 1_555 1_555
N9 C13 1_555 1_555
N10 C13 1_555 1_555
Cu2 N7 1_555 1_555
C1A H1A 1_555 1_555
C2A H2A 1_555 1_555
C3A C2A 1_555 1_555
H3A C3A 1_555 1_555
C4A H4A 1_555 1_555
H5A C4A 1_555 1_555
H6A C4A 1_555 1_555
C5A N3A 1_555 1_555
C6A N4A 1_555 1_555
C7A N5A 1_555 1_555
C8A N6A 1_555 1_555
N1A Cu1 1_555 1_555
N2A C1A 1_555 1_555
N3A Cu1 1_555 1_555
N6A Cu1 1_555 1_555
S1A C5A 1_555 1_555
S2A C6A 1_555 1_555
S3A C7A 1_555 1_555
S4A C8A 1_555 1_555
S4_2 Hg1 1_555 1_555
S4A_2 Hg1A 1_555 1_555
Hg1A S1A 1_555 1_555
Hg1_2 S4 1_555 1_555
Hg1A_2 S4A 1_555 1_555
C9A H7A 1_555 1_555
C10A H8A 1_555 1_555
C11A C10A 1_555 1_555
H9A C11A 1_555 1_555
C12A H10A 1_555 1_555
H11A C12A 1_555 1_555
H12A C12A 1_555 1_555
C13A H13A 1_555 1_555
C14A H14A 1_555 1_555
C15A C14A 1_555 1_555
H15A C15A 1_555 1_555
C16A H16A 1_555 1_555
H17A C16A 1_555 1_555
H18A C16A 1_555 1_555
N7A Cu2 1_555 1_555
N8A C9A 1_555 1_555
N9A Cu2 1_555 1_555
N10A C13A 1_555 1_555
C2 N2 1_555 1_555
C3 N1 1_555 1_555
C4 N2 1_555 1_555
S2 Hg1 1_555 1_555
S3 Hg1 1_555 1_555
C10 N7 1_555 1_555
C11 N8 1_555 1_555
C12 N8 1_555 1_555
C14 N9 1_555 1_555
C15 N10 1_555 1_555
C16 N10 1_555 1_555
N9 Cu2 1_555 1_555
C1A N1A 1_555 1_555
C2A N2A 1_555 1_555
C3A N1A 1_555 1_555
C4A N2A 1_555 1_555
S2A Hg1A 1_555 1_555
S3A Hg1A 1_555 1_555
C9A N7A 1_555 1_555
C10A N7A 1_555 1_555
C11A N8A 1_555 1_555
C12A N8A 1_555 1_555
C13A N9A 1_555 1_555
C14A N9A 1_555 1_555
C15A N10A 1_555 1_555
C16A N10A 1_555 1_555

#END
