
#######################################################################
#
#                 Cambridge Crystallographic Data Centre
#                                CCDC 
#
#######################################################################
#
# If this CIF has been generated from an entry in the Cambridge 
# Structural Database, then it will include bibliographic, chemical, 
# crystal, experimental, refinement or atomic coordinate data resulting 
# from the CCDC's data processing and validation procedures.
#
#######################################################################

data_KETNON
_symmetry_cell_setting           triclinic
_symmetry_space_group_name_H-M   'P -1'
_symmetry_Int_Tables_number      2
_space_group_name_Hall           '-P 1'
loop_
_symmetry_equiv_pos_site_id
_symmetry_equiv_pos_as_xyz
1 x,y,z
2 -x,-y,-z
_cell_length_a                   10.9412(14)
_cell_length_b                   11.8999(15)
_cell_length_c                   12.5057(16)
_cell_angle_alpha                64.312(2)
_cell_angle_beta                 74.123(2)
_cell_angle_gamma                89.302(2)
_cell_volume                     1400.66
loop_
_atom_site_label
_atom_site_type_symbol
_atom_site_fract_x
_atom_site_fract_y
_atom_site_fract_z
Cu1 Cu 0.5000 0.5000 0.5000
Cu2 Cu 0.5000 1.0000 0.0000
S1 S 0.23338(8) 0.45180(7) 0.11182(8)
S2 S 0.99846(7) 0.70747(8) -0.01314(7)
S3 S 0.40076(6) 0.82839(6) 0.35435(6)
O1 O 0.44024(19) 0.70953(18) 0.43216(18)
O2 O 0.46322(18) 0.86345(18) 0.22200(16)
O3 O 0.26106(18) 0.8137(2) 0.37785(19)
O4 O 0.4366(2) 0.9278(2) 0.3838(2)
N1 N 0.4033(2) 0.4634(2) 0.4006(2)
N2 N 0.40961(19) 0.1376(2) 0.0318(2)
N3 N 1.3333(2) 0.9177(2) 0.0019(2)
N4 N 0.6664(2) 0.5637(2) 0.3463(2)
C1 C 0.3076(3) 0.5291(3) 0.3685(3)
H1 H 0.2780 0.5826 0.4037
C2 C 0.2518(3) 0.5208(3) 0.2863(3)
H2 H 0.1841 0.5660 0.2686
C3 C 0.2967(2) 0.4442(2) 0.2295(2)
C4 C 0.3923(3) 0.3716(2) 0.2663(3)
H3 H 0.4228 0.3164 0.2335
C5 C 0.4408(2) 0.3835(2) 0.3524(2)
H4 H 0.5028 0.3333 0.3783
C6 C 0.3016(3) 0.3292(3) 0.0803(3)
C7 C 0.2623(3) 0.2044(3) 0.1662(3)
H5 H 0.1984 0.1833 0.2407
C8 C 0.3194(2) 0.1125(2) 0.1392(3)
H6 H 0.2945 0.0291 0.1981
C9 C 0.4452(3) 0.2585(3) -0.0516(3)
H7 H 0.5069 0.2772 -0.1268
C10 C 0.3940(3) 0.3565(3) -0.0308(3)
H8 H 0.4213 0.4393 -0.0905
C11 C 1.2340(2) 0.8583(2) 0.1039(2)
H9 H 1.2376 0.8587 0.1772
C12 C 1.1263(2) 0.7962(3) 0.1067(2)
H10 H 1.0583 0.7587 0.1793
C13 C 1.1215(2) 0.7909(2) -0.0006(2)
C14 C 1.2250(3) 0.8510(3) -0.1073(3)
H11 H 1.2252 0.8490 -0.1808
C15 C 1.3272(3) 0.9135(3) -0.1027(3)
H12 H 1.3950 0.9547 -0.1749
C16 C 0.8764(2) 0.6545(3) 0.1318(2)
C17 C 0.8057(3) 0.7360(3) 0.1682(3)
H13 H 0.8274 0.8224 0.1212
C18 C 0.7030(3) 0.6881(3) 0.2745(3)
H14 H 0.6568 0.7440 0.2980
C19 C 0.7375(3) 0.4861(3) 0.3111(3)
H15 H 0.7157 0.3999 0.3603
C20 C 0.8418(3) 0.5277(3) 0.2053(3)
H16 H 0.8880 0.4704 0.1841
Cu2_2 Cu 0.5000 0.0000 0.0000
Cu2_3 Cu 1.5000 1.0000 0.0000
Cu2_4 Cu 0.5000 0.0000 1.0000
Cu2_5 Cu 0.5000 1.0000 1.0000
Cu2_6 Cu -0.5000 0.0000 1.0000
S1A S 0.76662(8) 0.54820(7) 0.88818(8)
S2A S 0.00154(7) 0.29253(8) 1.01314(7)
S3A S 0.59924(6) 0.17161(6) 0.64565(6)
O1A O 0.55976(19) 0.29047(18) 0.56784(18)
O2A O 0.53678(18) 0.13655(18) 0.77800(16)
O2A_2 O 0.53678(18) 1.13655(18) -0.22200(16)
O3A O 0.73894(18) 0.1863(2) 0.62215(19)
O4A O 0.5634(2) 0.0722(2) 0.6162(2)
N1A N 0.5967(2) 0.5366(2) 0.5994(2)
N2A N 0.59039(19) 0.8624(2) 0.9682(2)
N2_2 N 0.40961(19) 1.1376(2) 0.0318(2)
N2A_2 N 0.59039(19) 0.8624(2) -0.0318(2)
N3A N -0.3333(2) 0.0823(2) 0.9981(2)
N3_2 N 0.3333(2) 0.9177(2) 0.0019(2)
N3A_2 N 0.6667(2) 1.0823(2) -0.0019(2)
N4A N 0.3336(2) 0.4363(2) 0.6537(2)
C1A C 0.6924(3) 0.4709(3) 0.6315(3)
H1A H 0.7220 0.4174 0.5963
C2A C 0.7482(3) 0.4792(3) 0.7137(3)
H2A H 0.8159 0.4340 0.7314
C3A C 0.7033(2) 0.5558(2) 0.7705(2)
C4A C 0.6077(3) 0.6284(2) 0.7337(3)
H3A H 0.5772 0.6836 0.7665
C5A C 0.5592(2) 0.6165(2) 0.6476(2)
H4A H 0.4972 0.6667 0.6217
C6A C 0.6984(3) 0.6708(3) 0.9197(3)
C7A C 0.7377(3) 0.7956(3) 0.8338(3)
H5A H 0.8016 0.8167 0.7593
C8A C 0.6806(2) 0.8875(2) 0.8608(3)
H6A H 0.7055 0.9709 0.8019
C9A C 0.5548(3) 0.7415(3) 1.0516(3)
H7A H 0.4931 0.7228 1.1268
C10A C 0.6060(3) 0.6435(3) 1.0308(3)
H8A H 0.5787 0.5607 1.0905
C11A C -0.2340(2) 0.1417(2) 0.8961(2)
H9A H -0.2376 0.1413 0.8228
C12A C -0.1263(2) 0.2038(3) 0.8933(2)
H10A H -0.0583 0.2413 0.8207
C13A C -0.1215(2) 0.2091(2) 1.0006(2)
C14A C -0.2250(3) 0.1490(3) 1.1073(3)
H11A H -0.2252 0.1510 1.1808
C15A C -0.3272(3) 0.0865(3) 1.1027(3)
H12A H -0.3950 0.0453 1.1749
C16A C 0.1236(2) 0.3455(3) 0.8682(2)
C17A C 0.1943(3) 0.2640(3) 0.8318(3)
H13A H 0.1726 0.1776 0.8788
C18A C 0.2970(3) 0.3119(3) 0.7255(3)
H14A H 0.3432 0.2560 0.7020
C19A C 0.2625(3) 0.5139(3) 0.6889(3)
H15A H 0.2843 0.6001 0.6397
C20A C 0.1582(3) 0.4723(3) 0.7947(3)
H16A H 0.1120 0.5296 0.8159
O5 O 0.0167(3) -0.1677(3) 0.6506(3)
N5 N 0.1203(3) 0.0162(3) 0.6079(3)
C21 C 0.1081(3) -0.0840(4) 0.5909(3)
H17 H 0.1728 -0.0925 0.5298
C22 C 0.2287(4) 0.1132(4) 0.5296(4)
H18 H 0.2836 0.0895 0.4704
H19 H 0.2756 0.1227 0.5803
H20 H 0.1983 0.1913 0.4863
C23 C 0.0218(4) 0.0391(4) 0.6984(4)
H21 H -0.0363 0.0900 0.6586
H22 H 0.0609 0.0819 0.7327
H23 H -0.0243 -0.0396 0.7638
O6 O 0.4177(3) 0.8595(2) 0.6393(2)
H24 H 0.452(4) 0.917(3) 0.649(3)
H25 H 0.425(4) 0.877(3) 0.5642(15)
O7 O 0.0491(3) 0.6584(2) 0.5508(3)
H26 H -0.003(4) 0.705(4) 0.570(5)
H27 H 0.121(2) 0.699(3) 0.498(3)
O8 O 0.9492(3) 0.6133(3) 0.3858(2)
H28 H 0.9634 0.6184 0.4482
H29 H 0.9816 0.5480 0.3758
loop_
_geom_bond_atom_site_label_1
_geom_bond_atom_site_label_2
_geom_bond_site_symmetry_1
_geom_bond_site_symmetry_2
Cu1 O1 1_555 1_555
Cu2 O2 1_555 1_555
S1 C3 1_555 1_555
S2 C13 1_555 1_555
S3 O1 1_555 1_555
O2 S3 1_555 1_555
O3 S3 1_555 1_555
O4 S3 1_555 1_555
O5 C21 1_555 1_555
O6 H24 1_555 1_555
O7 H26 1_555 1_555
O8 H28 1_555 1_555
N1 Cu1 1_555 1_555
N2 C8 1_555 1_555
N3 C11 1_555 1_555
N4 Cu1 1_555 1_555
N5 C21 1_555 1_555
C1 N1 1_555 1_555
H1 C1 1_555 1_555
C2 C1 1_555 1_555
H2 C2 1_555 1_555
C3 C2 1_555 1_555
C4 C3 1_555 1_555
H3 C4 1_555 1_555
C5 N1 1_555 1_555
H4 C5 1_555 1_555
C6 S1 1_555 1_555
C7 C6 1_555 1_555
H5 C7 1_555 1_555
C8 C7 1_555 1_555
H6 C8 1_555 1_555
C9 N2 1_555 1_555
H7 C9 1_555 1_555
C10 C6 1_555 1_555
H8 C10 1_555 1_555
C11 H9 1_555 1_555
C12 C11 1_555 1_555
H10 C12 1_555 1_555
C13 C12 1_555 1_555
C14 C13 1_555 1_555
H11 C14 1_555 1_555
C15 N3 1_555 1_555
H12 C15 1_555 1_555
C16 S2 1_555 1_555
C17 C16 1_555 1_555
H13 C17 1_555 1_555
C18 N4 1_555 1_555
H14 C18 1_555 1_555
C19 N4 1_555 1_555
H15 C19 1_555 1_555
C20 C16 1_555 1_555
H16 C20 1_555 1_555
C21 H17 1_555 1_555
C22 N5 1_555 1_555
H18 C22 1_555 1_555
H19 C22 1_555 1_555
H20 C22 1_555 1_555
C23 N5 1_555 1_555
H21 C23 1_555 1_555
H22 C23 1_555 1_555
H23 C23 1_555 1_555
H25 O6 1_555 1_555
H27 O7 1_555 1_555
H29 O8 1_555 1_555
Cu2_2 N2 1_555 1_555
Cu2_3 N3 1_555 1_555
Cu2_4 O2A 1_555 1_555
Cu2_5 N2A 1_555 1_555
Cu2_6 N3A 1_555 1_555
S1A C3A 1_555 1_555
S2A C13A 1_555 1_555
S3A O1A 1_555 1_555
O1A Cu1 1_555 1_555
O2A S3A 1_555 1_555
O2A_2 Cu2 1_555 1_555
O3A S3A 1_555 1_555
O4A S3A 1_555 1_555
N1A Cu1 1_555 1_555
N2A C8A 1_555 1_555
N2_2 Cu2 1_555 1_555
N2A_2 Cu2 1_555 1_555
N3A C11A 1_555 1_555
N3_2 Cu2 1_555 1_555
N3A_2 Cu2 1_555 1_555
N4A Cu1 1_555 1_555
C1A N1A 1_555 1_555
H1A C1A 1_555 1_555
C2A C1A 1_555 1_555
H2A C2A 1_555 1_555
C3A C2A 1_555 1_555
C4A C3A 1_555 1_555
H3A C4A 1_555 1_555
C5A N1A 1_555 1_555
H4A C5A 1_555 1_555
C6A S1A 1_555 1_555
C7A C6A 1_555 1_555
H5A C7A 1_555 1_555
C8A C7A 1_555 1_555
H6A C8A 1_555 1_555
C9A N2A 1_555 1_555
H7A C9A 1_555 1_555
C10A C6A 1_555 1_555
H8A C10A 1_555 1_555
C11A H9A 1_555 1_555
C12A C11A 1_555 1_555
H10A C12A 1_555 1_555
C13A C12A 1_555 1_555
C14A C13A 1_555 1_555
H11A C14A 1_555 1_555
C15A N3A 1_555 1_555
H12A C15A 1_555 1_555
C16A S2A 1_555 1_555
C17A C16A 1_555 1_555
H13A C17A 1_555 1_555
C18A N4A 1_555 1_555
H14A C18A 1_555 1_555
C19A N4A 1_555 1_555
H15A C19A 1_555 1_555
C20A C16A 1_555 1_555
H16A C20A 1_555 1_555
C4 C5 1_555 1_555
C9 C10 1_555 1_555
C14 C15 1_555 1_555
C17 C18 1_555 1_555
C19 C20 1_555 1_555
C4A C5A 1_555 1_555
C9A C10A 1_555 1_555
C14A C15A 1_555 1_555
C17A C18A 1_555 1_555
C19A C20A 1_555 1_555

#END
