
#######################################################################
#
#                 Cambridge Crystallographic Data Centre
#                                CCDC 
#
#######################################################################
#
# If this CIF has been generated from an entry in the Cambridge 
# Structural Database, then it will include bibliographic, chemical, 
# crystal, experimental, refinement or atomic coordinate data resulting 
# from the CCDC's data processing and validation procedures.
#
#######################################################################

data_KETPEF
_symmetry_cell_setting           monoclinic
_symmetry_space_group_name_H-M   'P c'
_symmetry_Int_Tables_number      7
_space_group_name_Hall           'P -2yc'
loop_
_symmetry_equiv_pos_site_id
_symmetry_equiv_pos_as_xyz
1 x,y,z
2 x,-y,1/2+z
_cell_length_a                   8.8380(18)
_cell_length_b                   7.9580(16)
_cell_length_c                   16.075(5)
_cell_angle_alpha                90.00
_cell_angle_beta                 121.58(2)
_cell_angle_gamma                90.00
_cell_volume                     963.169
loop_
_atom_site_label
_atom_site_type_symbol
_atom_site_fract_x
_atom_site_fract_y
_atom_site_fract_z
Hg1 Hg -0.61077(4) 0.33888(8) -0.23472(4)
Mn1 Mn -1.0317(4) 0.8050(3) -0.1582(2)
S1 S -0.4616(7) 0.5378(9) -0.0909(5)
S2 S -0.9358(7) 0.4092(10) -0.3381(4)
S3 S -0.4829(8) 0.3688(7) -0.3478(4)
S4 S -0.6004(9) 0.0266(8) -0.2008(7)
N1 N -1.098(2) 0.895(2) -0.3024(12)
C1 C -1.232(5) 1.037(5) -0.443(2)
H1 H -1.3060 1.1106 -0.4922
N2 N -0.883(3) 1.0380(18) -0.0812(13)
C2 C -0.703(7) 1.218(4) 0.027(3)
H2 H -0.6063 1.2627 0.0838
N3 N -0.781(3) 0.6735(18) -0.1282(16)
N4 N -0.979(3) 0.298(2) -0.5159(13)
N5 N -0.184(3) 0.568(2) -0.2263(14)
N6 N -0.282(3) -0.074(3) -0.1809(14)
C3 C -1.228(5) 1.010(6) -0.3614(18)
H3 H -1.3039 1.0622 -0.3451
C4 C -1.015(4) 0.861(3) -0.3554(19)
H4 H -0.9134 0.7964 -0.3350
N7 N -1.111(4) 0.940(4) -0.4405(15)
H5 H -1.0951 0.9288 -0.4886
C5 C -0.938(5) 1.192(3) -0.114(3)
H6 H -1.0374 1.2210 -0.1734
C6 C -0.737(5) 1.054(3) 0.009(2)
H7 H -0.6719 0.9661 0.0511
N8 N -0.820(6) 1.304(3) -0.043(3)
H8 H -0.8256 1.4114 -0.0464
C7 C -0.649(3) 0.625(2) -0.1130(14)
C8 C -0.956(3) 0.343(2) -0.4423(14)
C9 C -0.312(2) 0.487(2) -0.2767(14)
C10 C -0.414(3) -0.023(2) -0.1909(13)
Mn1A Mn -1.0317(4) 0.1950(3) -0.6582(2)
Mn1_2 Mn -0.0317(4) 0.8050(3) -0.1582(2)
Mn1_3 Mn -0.0317(4) -0.1950(3) -0.1582(2)
N4A N -0.979(3) 0.702(2) -0.0159(13)
N5_2 N -1.184(3) 0.568(2) -0.2263(14)
N6_2 N -1.282(3) 0.926(3) -0.1809(14)
loop_
_geom_bond_atom_site_label_1
_geom_bond_atom_site_label_2
_geom_bond_site_symmetry_1
_geom_bond_site_symmetry_2
Hg1 S1 1_555 1_555
Mn1 N1 1_555 1_555
S1 C7 1_555 1_555
S2 Hg1 1_555 1_555
S3 Hg1 1_555 1_555
S4 Hg1 1_555 1_555
N1 C3 1_555 1_555
C1 H1 1_555 1_555
N2 Mn1 1_555 1_555
C2 H2 1_555 1_555
N3 Mn1 1_555 1_555
N4 C8 1_555 1_555
N5 C9 1_555 1_555
N6 C10 1_555 1_555
C3 C1 1_555 1_555
H3 C3 1_555 1_555
C4 N1 1_555 1_555
H4 C4 1_555 1_555
N7 C1 1_555 1_555
H5 N7 1_555 1_555
C5 N2 1_555 1_555
H6 C5 1_555 1_555
C6 N2 1_555 1_555
H7 C6 1_555 1_555
N8 C2 1_555 1_555
H8 N8 1_555 1_555
C7 N3 1_555 1_555
C8 S2 1_555 1_555
C9 S3 1_555 1_555
C10 S4 1_555 1_555
Mn1A N4 1_555 1_555
Mn1_2 N5 1_555 1_555
Mn1_3 N6 1_555 1_555
N4A Mn1 1_555 1_555
N5_2 Mn1 1_555 1_555
N6_2 Mn1 1_555 1_555
C2 C6 1_555 1_555
C4 N7 1_555 1_555
C5 N8 1_555 1_555

#END
