
#######################################################################
#
#                 Cambridge Crystallographic Data Centre
#                                CCDC 
#
#######################################################################
#
# If this CIF has been generated from an entry in the Cambridge 
# Structural Database, then it will include bibliographic, chemical, 
# crystal, experimental, refinement or atomic coordinate data resulting 
# from the CCDC's data processing and validation procedures.
#
#######################################################################

data_KETPIJ
_symmetry_cell_setting           triclinic
_symmetry_space_group_name_H-M   'P -1'
_symmetry_Int_Tables_number      2
_space_group_name_Hall           '-P 1'
loop_
_symmetry_equiv_pos_site_id
_symmetry_equiv_pos_as_xyz
1 x,y,z
2 -x,-y,-z
_cell_length_a                   12.6584(4)
_cell_length_b                   16.3807(5)
_cell_length_c                   21.9760(7)
_cell_angle_alpha                83.183(2)
_cell_angle_beta                 80.714(2)
_cell_angle_gamma                88.849(2)
_cell_volume                     4465.29
loop_
_atom_site_label
_atom_site_type_symbol
_atom_site_fract_x
_atom_site_fract_y
_atom_site_fract_z
Ag1 Ag 0.45060(4) -0.11692(5) -0.05532(2)
Ag2 Ag 0.53649(3) 0.02622(2) 0.295330(16)
Ag3 Ag 0.45872(3) -0.63008(2) 0.460370(16)
Ag4 Ag 0.48280(4) -0.73335(3) 0.24416(2)
Ag5 Ag 0.54646(3) -0.10860(2) 0.480840(18)
S1 S 0.54672(10) -0.10071(7) 0.03591(5)
S2 S 0.36977(11) -0.24734(9) 0.01285(5)
S3 S 0.61226(12) -0.08312(13) -0.18882(8)
S4 S 0.27904(10) -0.03328(9) -0.15551(6)
S5 S 0.33639(9) -0.63287(6) 0.22185(5)
S6 S 0.42491(8) -0.64174(6) 0.35083(4)
S7 S 0.58859(11) 0.16539(7) 0.38047(6)
S8 S 0.66746(9) -0.54262(7) 0.48719(6)
S9 S 0.61609(7) -0.25626(6) 0.45289(4)
S10 S 0.63086(8) -0.08705(5) 0.35479(4)
S11 S 0.33391(9) -0.01648(7) 0.42793(5)
F1 F 0.7934(4) -0.0582(5) -0.2608(3)
F2 F 0.8016(6) -0.0567(6) -0.1712(5)
F3 F 0.7865(4) -0.1673(4) -0.1982(5)
F4 F 0.0911(3) -0.0164(3) -0.0921(3)
F5 F 0.1249(4) -0.1362(3) -0.1177(3)
F6 F 0.0894(4) -0.0411(4) -0.1851(3)
F7 F 0.7564(8) 0.2148(5) 0.4184(6)
F8 F 0.7052(5) 0.2945(3) 0.3446(3)
F9 F 0.7841(5) 0.1805(4) 0.3265(5)
F10 F 0.8386(5) -0.6089(6) 0.5179(4)
F11 F 0.8240(4) -0.6250(5) 0.4333(4)
F12 F 0.8684(3) -0.5112(3) 0.4525(4)
F13 F 0.1308(3) 0.0237(3) 0.4425(3)
F14 F 0.1666(3) -0.0744(3) 0.5060(2)
F15 F 0.1630(3) -0.0926(3) 0.4134(3)
O1 O 0.5787(6) -0.1385(5) -0.1379(4)
O2 O 0.5853(5) -0.0039(4) -0.2030(5)
O3 O 0.5775(5) -0.1238(4) -0.2423(3)
O4 O 0.3148(4) -0.0580(3) -0.0982(2)
O5 O 0.2821(4) 0.0547(3) -0.1733(2)
O6 O 0.3188(4) -0.0804(3) -0.2045(2)
O7 O 0.5600(4) 0.1696(3) 0.31935(18)
O8 O 0.6086(3) 0.0835(2) 0.4068(2)
O9 O 0.5189(5) 0.2121(3) 0.42116(19)
O10 O 0.6326(5) -0.7510(4) 0.1717(3)
O11 O 0.6128(4) -0.6174(3) 0.5064(3)
O12 O 0.6665(4) -0.4840(4) 0.5290(3)
O13 O 0.6453(5) -0.5047(4) 0.4273(3)
O14 O 0.3439(4) 0.0390(3) 0.4722(3)
O15 O 0.3847(3) -0.0944(3) 0.4385(2)
O16 O 0.3464(4) 0.0188(4) 0.3658(2)
C1 C 0.4986(3) -0.1857(3) 0.09176(18)
C2 C 0.4334(3) -0.2485(3) 0.08005(18)
C3 C 0.4139(3) -0.3171(3) 0.12344(18)
H1 H 0.3738 -0.3601 0.1149
C4 C 0.4531(3) -0.3235(2) 0.18004(17)
C5 C 0.4399(3) -0.3991(2) 0.22378(17)
C6 C 0.3959(3) -0.4691(2) 0.20742(18)
H2 H 0.3717 -0.4661 0.1694
C7 C 0.3869(3) -0.5426(2) 0.24528(18)
C8 C 0.4214(3) -0.5465(2) 0.30369(17)
C9 C 0.4652(3) -0.4774(2) 0.32088(17)
H3 H 0.4875 -0.4804 0.3594
C10 C 0.4765(3) -0.4028(2) 0.28136(16)
C11 C 0.5228(3) -0.3292(2) 0.29878(16)
C12 C 0.5508(3) -0.3272(2) 0.35838(16)
H4 H 0.5435 -0.3746 0.3865
C13 C 0.5886(3) -0.2561(2) 0.37567(16)
C14 C 0.5980(3) -0.1836(2) 0.33361(17)
C15 C 0.5730(3) -0.1860(2) 0.27460(18)
H5 H 0.5805 -0.1385 0.2465
C16 C 0.5371(3) -0.2574(2) 0.25640(16)
C17 C 0.5075(3) -0.2565(2) 0.19450(17)
C18 C 0.5315(3) -0.1886(2) 0.14903(18)
H6 H 0.5702 -0.1449 0.1576
C19 C 0.6777(4) -0.1383(3) 0.00828(19)
C20 C 0.7635(5) -0.0872(4) 0.0058(3)
H7 H 0.7533 -0.0354 0.0191
C21 C 0.8644(5) -0.1136(5) -0.0166(3)
H8 H 0.9224 -0.0788 -0.0189
C22 C 0.8811(5) -0.1897(4) -0.0355(3)
H9 H 0.9501 -0.2073 -0.0494
C23 C 0.7941(6) -0.2406(4) -0.0338(4)
H10 H 0.8048 -0.2922 -0.0475
C24 C 0.6920(5) -0.2151(4) -0.0120(3)
H11 H 0.6336 -0.2491 -0.0109
C25 C 0.2379(4) -0.2173(3) 0.0455(2)
C26 C 0.1557(5) -0.2726(4) 0.0509(3)
H12 H 0.1683 -0.3243 0.0378
C27 C 0.0530(5) -0.2496(6) 0.0765(4)
H13 H -0.0033 -0.2863 0.0799
C28 C 0.0335(5) -0.1742(6) 0.0966(4)
H14 H -0.0354 -0.1600 0.1140
C29 C 0.1157(5) -0.1199(5) 0.0911(4)
H15 H 0.1023 -0.0682 0.1042
C30 C 0.2195(5) -0.1409(4) 0.0660(3)
H16 H 0.2755 -0.1040 0.0630
C31 C 0.7535(5) -0.0956(4) -0.2066(3)
C32 C 0.1382(5) -0.0553(4) -0.1383(3)
C33 C 0.3413(4) -0.6044(3) 0.1410(2)
C34 C 0.2516(5) -0.5638(4) 0.1223(3)
H17 H 0.1919 -0.5550 0.1514
C35 C 0.2522(7) -0.5370(4) 0.0608(3)
H18 H 0.1924 -0.5106 0.0481
C36 C 0.3396(8) -0.5489(4) 0.0184(3)
H19 H 0.3400 -0.5293 -0.0231
C37 C 0.4293(7) -0.5904(4) 0.0363(3)
H20 H 0.4881 -0.5994 0.0066
C38 C 0.4305(5) -0.6182(3) 0.0986(2)
H21 H 0.4899 -0.6453 0.1111
C39 C 0.2868(3) -0.6721(3) 0.36733(18)
C40 C 0.2628(4) -0.7535(3) 0.3640(2)
H22 H 0.3167 -0.7912 0.3536
C41 C 0.1558(5) -0.7774(4) 0.3765(3)
H23 H 0.1379 -0.8315 0.3739
C42 C 0.0769(5) -0.7225(4) 0.3925(3)
H24 H 0.0059 -0.7394 0.4011
C43 C 0.1023(4) -0.6408(4) 0.3960(3)
H25 H 0.0481 -0.6035 0.4066
C44 C 0.2077(4) -0.6154(3) 0.3838(2)
H26 H 0.2253 -0.5612 0.3865
C45 C 0.7165(8) 0.2169(5) 0.3680(7)
C46 C 0.8068(4) -0.5714(3) 0.4704(3)
C47 C 0.7591(3) -0.2568(3) 0.44303(18)
C48 C 0.8158(4) -0.3214(3) 0.4178(2)
H27 H 0.7800 -0.3644 0.4057
C49 C 0.9266(4) -0.3210(3) 0.4109(3)
H28 H 0.9658 -0.3635 0.3936
C50 C 0.9791(4) -0.2574(4) 0.4297(3)
H29 H 1.0535 -0.2570 0.4245
C51 C 0.9215(4) -0.1948(3) 0.4560(3)
H30 H 0.9571 -0.1529 0.4694
C52 C 0.8110(4) -0.1939(3) 0.4627(2)
H31 H 0.7721 -0.1514 0.4803
C53 C 0.7730(3) -0.0813(2) 0.3344(2)
C54 C 0.8316(4) -0.1358(3) 0.2985(2)
H32 H 0.7971 -0.1766 0.2831
C55 C 0.9426(4) -0.1287(4) 0.2858(3)
H33 H 0.9828 -0.1654 0.2622
C56 C 0.9929(4) -0.0673(4) 0.3081(3)
H34 H 1.0670 -0.0626 0.2995
C57 C 0.9340(5) -0.0134(3) 0.3429(4)
H35 H 0.9686 0.0285 0.3570
C58 C 0.8238(4) -0.0200(3) 0.3574(3)
H36 H 0.7845 0.0158 0.3821
C59 C 0.1919(4) -0.0422(3) 0.4481(3)
H52 H 0.6854 -0.7163 0.1765
H53 H 0.6575 -0.8033 0.1782
Ag2A Ag 0.46351(3) -0.02622(2) -0.295330(16)
Ag3A Ag 0.54128(3) -0.36992(2) 0.539630(16)
Ag4_2 Ag 0.48280(4) 0.26665(3) 0.24416(2)
Ag4A Ag 0.51720(4) -0.26665(3) -0.24416(2)
Ag5A Ag 0.45354(3) 0.10860(2) 0.519160(18)
S9A S 0.38391(7) -0.74374(6) 0.54711(4)
O3A O 0.4225(5) 0.1238(4) 0.2423(3)
O3A_2 O 0.4225(5) -0.8762(4) 0.2423(3)
O6A O 0.6812(4) 0.0804(3) 0.2045(2)
O7_2 O 0.5600(4) -0.8304(3) 0.31935(18)
O9A O 0.4811(5) -0.2121(3) 0.57884(19)
O12A O 0.3335(4) -0.5160(4) 0.4710(3)
O14A O 0.6561(4) -0.0390(3) 0.5278(3)
C60 C 0.0178(5) 0.6780(3) -0.24127(18)
H37 H 0.0022 0.7078 -0.2775
C61 C 0.0008(4) 0.5930(3) -0.23087(17)
H38 H -0.0262 0.5664 -0.2602
C62 C 0.0243(3) 0.5481(3) -0.17641(16)
H39 H 0.0130 0.4916 -0.1695
C63 C 0.0649(2) 0.5881(2) -0.13235(13)
C64 C 0.0819(4) 0.6730(2) -0.1427(2)
H40 H 0.1089 0.6997 -0.1135
C65 C 0.0584(6) 0.7179(3) -0.1972(2)
H41 H 0.0697 0.7744 -0.2041
N1 N 0.0892(3) 0.5415(3) -0.07594(15)
O17 O 0.0745(5) 0.4678(3) -0.0668(2)
O18 O 0.1244(5) 0.5761(3) -0.03760(18)
C66 C 0.7109(3) 0.1695(2) -0.2940(2)
H42 H 0.6788 0.1218 -0.3014
C67 C 0.7236(3) 0.2373(2) -0.33961(18)
H43 H 0.7000 0.2347 -0.3773
C68 C 0.7719(3) 0.3091(2) -0.32860(13)
H44 H 0.7803 0.3542 -0.3589
C69 C 0.80749(18) 0.31308(14) -0.27202(12)
C70 C 0.7948(3) 0.24525(16) -0.22645(14)
H45 H 0.8184 0.2478 -0.1888
C71 C 0.7465(3) 0.17345(16) -0.23747(19)
H46 H 0.7381 0.1284 -0.2071
N2 N 0.8575(3) 0.38745(15) -0.26062(16)
O19 O 0.8686(4) 0.44644(16) -0.3001(2)
O20 O 0.8885(3) 0.3910(2) -0.21150(18)
C72 C 0.1753(4) 0.3120(4) -0.2158(5)
H47 H 0.1415 0.2641 -0.2211
C73 C 0.1844(4) 0.3787(5) -0.2624(4)
H48 H 0.1566 0.3751 -0.2987
C74 C 0.2353(4) 0.4509(4) -0.2544(2)
H49 H 0.2413 0.4952 -0.2854
C75 C 0.2770(2) 0.4564(3) -0.1999(2)
C76 C 0.2679(4) 0.3898(3) -0.1534(3)
H50 H 0.2956 0.3934 -0.1171
C77 C 0.2170(4) 0.3176(3) -0.1613(4)
H51 H 0.2110 0.2733 -0.1303
N3 N 0.3297(3) 0.5312(3) -0.1917(2)
O21 O 0.3377(4) 0.5892(3) -0.2320(3)
O22 O 0.3660(4) 0.5362(4) -0.1444(2)
loop_
_geom_bond_atom_site_label_1
_geom_bond_atom_site_label_2
_geom_bond_site_symmetry_1
_geom_bond_site_symmetry_2
Ag1 S1 1_555 1_555
Ag2 S10 1_555 1_555
Ag3 S6 1_555 1_555
Ag4 S5 1_555 1_555
Ag5 S9 1_555 1_555
S1 C1 1_555 1_555
S2 Ag1 1_555 1_555
S3 O1 1_555 1_555
S4 O4 1_555 1_555
S5 C7 1_555 1_555
S6 Ag4 1_555 1_555
S7 O7 1_555 1_555
S8 O11 1_555 1_555
S9 C13 1_555 1_555
S10 Ag5 1_555 1_555
S11 O14 1_555 1_555
F1 C31 1_555 1_555
F2 C31 1_555 1_555
F3 C31 1_555 1_555
F4 C32 1_555 1_555
F5 C32 1_555 1_555
F6 C32 1_555 1_555
F7 C45 1_555 1_555
F8 C45 1_555 1_555
F9 C45 1_555 1_555
F10 C46 1_555 1_555
F11 C46 1_555 1_555
F12 C46 1_555 1_555
F13 C59 1_555 1_555
F14 C59 1_555 1_555
F15 C59 1_555 1_555
O1 Ag1 1_555 1_555
O2 S3 1_555 1_555
O3 S3 1_555 1_555
O4 Ag1 1_555 1_555
O5 S4 1_555 1_555
O6 S4 1_555 1_555
O7 Ag2 1_555 1_555
O8 S7 1_555 1_555
O9 S7 1_555 1_555
O10 Ag4 1_555 1_555
O11 Ag3 1_555 1_555
O12 S8 1_555 1_555
O13 S8 1_555 1_555
O14 Ag5A 1_555 1_555
O15 Ag5 1_555 1_555
O16 Ag2 1_555 1_555
C1 C2 1_555 1_555
C2 S2 1_555 1_555
C3 C2 1_555 1_555
H1 C3 1_555 1_555
C4 C3 1_555 1_555
C5 C4 1_555 1_555
C6 C5 1_555 1_555
H2 C6 1_555 1_555
C7 C6 1_555 1_555
C8 S6 1_555 1_555
C9 C8 1_555 1_555
H3 C9 1_555 1_555
C10 C5 1_555 1_555
C11 C10 1_555 1_555
C12 C11 1_555 1_555
H4 C12 1_555 1_555
C13 C12 1_555 1_555
C14 S10 1_555 1_555
C15 C14 1_555 1_555
H5 C15 1_555 1_555
C16 C11 1_555 1_555
C17 C4 1_555 1_555
C18 C1 1_555 1_555
H6 C18 1_555 1_555
C19 S1 1_555 1_555
C20 C19 1_555 1_555
H7 C20 1_555 1_555
C21 C20 1_555 1_555
H8 C21 1_555 1_555
C22 C21 1_555 1_555
H9 C22 1_555 1_555
C23 C22 1_555 1_555
H10 C23 1_555 1_555
C24 C19 1_555 1_555
H11 C24 1_555 1_555
C25 S2 1_555 1_555
C26 C25 1_555 1_555
H12 C26 1_555 1_555
C27 C26 1_555 1_555
H13 C27 1_555 1_555
C28 C27 1_555 1_555
H14 C28 1_555 1_555
C29 C28 1_555 1_555
H15 C29 1_555 1_555
C30 C25 1_555 1_555
H16 C30 1_555 1_555
C31 S3 1_555 1_555
C32 S4 1_555 1_555
C33 S5 1_555 1_555
C34 C33 1_555 1_555
H17 C34 1_555 1_555
C35 C34 1_555 1_555
H18 C35 1_555 1_555
C36 C35 1_555 1_555
H19 C36 1_555 1_555
C37 C36 1_555 1_555
H20 C37 1_555 1_555
C38 C33 1_555 1_555
H21 C38 1_555 1_555
C39 S6 1_555 1_555
C40 C39 1_555 1_555
H22 C40 1_555 1_555
C41 C40 1_555 1_555
H23 C41 1_555 1_555
C42 C41 1_555 1_555
H24 C42 1_555 1_555
C43 C42 1_555 1_555
H25 C43 1_555 1_555
C44 C39 1_555 1_555
H26 C44 1_555 1_555
C45 S7 1_555 1_555
C46 S8 1_555 1_555
C47 S9 1_555 1_555
C48 C47 1_555 1_555
H27 C48 1_555 1_555
C49 C48 1_555 1_555
H28 C49 1_555 1_555
C50 C49 1_555 1_555
H29 C50 1_555 1_555
C51 C50 1_555 1_555
H30 C51 1_555 1_555
C52 C47 1_555 1_555
H31 C52 1_555 1_555
C53 S10 1_555 1_555
C54 C53 1_555 1_555
H32 C54 1_555 1_555
C55 C54 1_555 1_555
H33 C55 1_555 1_555
C56 C55 1_555 1_555
H34 C56 1_555 1_555
C57 C56 1_555 1_555
H35 C57 1_555 1_555
C58 C53 1_555 1_555
H36 C58 1_555 1_555
C59 S11 1_555 1_555
C60 H37 1_555 1_555
C61 C60 1_555 1_555
H38 C61 1_555 1_555
C62 C61 1_555 1_555
H39 C62 1_555 1_555
C63 C62 1_555 1_555
C64 C63 1_555 1_555
H40 C64 1_555 1_555
C65 C60 1_555 1_555
H41 C65 1_555 1_555
N1 C63 1_555 1_555
O17 N1 1_555 1_555
O18 N1 1_555 1_555
C66 H42 1_555 1_555
C67 C66 1_555 1_555
H43 C67 1_555 1_555
C68 C67 1_555 1_555
H44 C68 1_555 1_555
C69 C68 1_555 1_555
C70 C69 1_555 1_555
H45 C70 1_555 1_555
C71 C66 1_555 1_555
H46 C71 1_555 1_555
N2 C69 1_555 1_555
O19 N2 1_555 1_555
O20 N2 1_555 1_555
C72 H47 1_555 1_555
C73 C72 1_555 1_555
H48 C73 1_555 1_555
C74 C73 1_555 1_555
H49 C74 1_555 1_555
C75 C74 1_555 1_555
C76 C75 1_555 1_555
H50 C76 1_555 1_555
C77 C72 1_555 1_555
H51 C77 1_555 1_555
N3 C75 1_555 1_555
O21 N3 1_555 1_555
O22 N3 1_555 1_555
H52 O10 1_555 1_555
H53 O10 1_555 1_555
Ag2A O3 1_555 1_555
Ag3A S9 1_555 1_555
Ag4_2 O7 1_555 1_555
Ag4A O3 1_555 1_555
Ag5A O9 1_555 1_555
S9A Ag3 1_555 1_555
O3A Ag2 1_555 1_555
O3A_2 Ag4 1_555 1_555
O6A Ag2 1_555 1_555
O7_2 Ag4 1_555 1_555
O9A Ag5 1_555 1_555
O12A Ag3 1_555 1_555
O14A Ag5 1_555 1_555
S11 O15 1_555 1_555
S11 O16 1_555 1_555
O6 Ag2A 1_555 1_555
O12 Ag3A 1_555 1_555
C7 C8 1_555 1_555
C9 C10 1_555 1_555
C13 C14 1_555 1_555
C15 C16 1_555 1_555
C16 C17 1_555 1_555
C17 C18 1_555 1_555
C23 C24 1_555 1_555
C29 C30 1_555 1_555
C37 C38 1_555 1_555
C43 C44 1_555 1_555
C51 C52 1_555 1_555
C57 C58 1_555 1_555
C64 C65 1_555 1_555
C70 C71 1_555 1_555
C76 C77 1_555 1_555
Ag4_2 O3A 1_555 1_555

#END
