
#######################################################################
#
#                 Cambridge Crystallographic Data Centre
#                                CCDC 
#
#######################################################################
#
# If this CIF has been generated from an entry in the Cambridge 
# Structural Database, then it will include bibliographic, chemical, 
# crystal, experimental, refinement or atomic coordinate data resulting 
# from the CCDC's data processing and validation procedures.
#
#######################################################################

data_KETPEG
_symmetry_cell_setting           orthorhombic
_symmetry_space_group_name_H-M   'F d d 2'
_symmetry_Int_Tables_number      43
_space_group_name_Hall           'F 2 -2d'
loop_
_symmetry_equiv_pos_site_id
_symmetry_equiv_pos_as_xyz
1 x,y,z
2 -x,-y,z
3 1/4+x,1/4-y,1/4+z
4 1/4-x,1/4+y,1/4+z
5 x,1/2+y,1/2+z
6 -x,1/2-y,1/2+z
7 1/4+x,3/4-y,3/4+z
8 1/4-x,3/4+y,3/4+z
9 1/2+x,y,1/2+z
10 1/2-x,-y,1/2+z
11 3/4+x,1/4-y,3/4+z
12 3/4-x,1/4+y,3/4+z
13 1/2+x,1/2+y,z
14 1/2-x,1/2-y,z
15 3/4+x,3/4-y,1/4+z
16 3/4-x,3/4+y,1/4+z
_cell_length_a                   28.9027(11)
_cell_length_b                   12.3726(4)
_cell_length_c                   23.4498(8)
_cell_angle_alpha                90
_cell_angle_beta                 90
_cell_angle_gamma                90
_cell_volume                     8385.68
loop_
_atom_site_label
_atom_site_type_symbol
_atom_site_fract_x
_atom_site_fract_y
_atom_site_fract_z
Fe1 Fe 0.0000 0.5000 0.15686(4)
Fe2 Fe 0.0000 0.5000 0.47404(3)
N1 N 0.04208(17) 0.6444(4) 0.1556(3)
C1 C 0.05740(19) 0.7159(5) 0.1299(3)
N2 N 0.07967(18) 0.7917(5) 0.1026(3)
N3 N 0.04047(17) 0.9216(4) 0.5923(2)
C2 C 0.05615(17) 0.8575(4) 0.5633(2)
N4 N 0.04301(18) 0.4325(4) 0.2229(2)
C3 C 0.05525(18) 0.4032(4) 0.2667(2)
N5 N 0.07025(17) 0.3662(4) 0.3152(2)
C4 C 0.05347(17) 0.4054(4) 0.3630(2)
N6 N 0.04126(17) 0.4322(4) 0.4073(2)
N7 N 0.04196(16) 0.9214(4) 0.0382(2)
C5 C 0.05763(18) 0.8578(4) 0.0695(3)
N8 N 0.04311(18) 0.6374(4) 0.4823(2)
C6 C 0.05818(19) 0.7084(4) 0.5073(2)
N9 N 0.07957(17) 0.7872(4) 0.5336(2)
N1A N -0.04208(17) 0.3556(4) 0.1556(3)
C1A C -0.05740(19) 0.2841(5) 0.1299(3)
N2A N -0.07967(18) 0.2083(5) 0.1026(3)
N3A N -0.04047(17) 0.0784(4) 0.5923(2)
C2A C -0.05615(17) 0.1425(4) 0.5633(2)
N4A N -0.04301(18) 0.5675(4) 0.2229(2)
C3A C -0.05525(18) 0.5968(4) 0.2667(2)
N5A N -0.07025(17) 0.6338(4) 0.3152(2)
C4A C -0.05347(17) 0.5946(4) 0.3630(2)
N6A N -0.04126(17) 0.5678(4) 0.4073(2)
N7A N -0.04196(16) 0.0786(4) 0.0382(2)
C5A C -0.05763(18) 0.1422(4) 0.0695(3)
N8A N -0.04311(18) 0.3626(4) 0.4823(2)
C6A C -0.05818(19) 0.2916(4) 0.5073(2)
N9A N -0.07957(17) 0.2128(4) 0.5336(2)
Fe1D Fe 0.0000 0.0000 0.65686(4)
Fe1D_2 Fe 0.0000 1.0000 0.65686(4)
Fe2D Fe 0.0000 0.0000 -0.02596(3)
Fe2D_2 Fe 0.0000 1.0000 -0.02596(3)
N3D N 0.04047(17) 0.4216(4) 0.0923(2)
N3E N -0.04047(17) 0.5784(4) 0.0923(2)
N7D N 0.04196(16) 0.4214(4) 0.5382(2)
N7E N -0.04196(16) 0.5786(4) 0.5382(2)
Zn1 Zn 0.0000 0.0000 0.32409(4)
N10 N 0.04176(13) 0.0504(3) 0.38506(18)
C7 C 0.04073(17) 0.1471(4) 0.4109(2)
H1 H 0.0205 0.2010 0.3965
C8 C 0.06790(19) 0.1718(4) 0.4578(2)
H2 H 0.0666 0.2413 0.4749
C9 C 0.09685(19) 0.0927(4) 0.4790(2)
H3 H 0.1152 0.1066 0.5119
C10 C 0.09908(17) -0.0065(4) 0.4524(2)
H4 H 0.1193 -0.0611 0.4662
C11 C 0.07101(15) -0.0258(4) 0.4048(2)
C12 C 0.07013(17) -0.1274(4) 0.3725(2)
C13 C 0.09776(16) -0.2180(4) 0.3856(2)
H5 H 0.1193 -0.2153 0.4162
C14 C 0.09309(18) -0.3102(4) 0.3537(2)
H6 H 0.1107 -0.3729 0.3625
C15 C 0.06205(17) -0.3106(4) 0.3078(2)
H7 H 0.0590 -0.3730 0.2845
C16 C 0.03581(18) -0.2195(4) 0.2966(2)
H8 H 0.0147 -0.2204 0.2655
N11 N 0.03951(13) -0.1287(3) 0.32903(16)
N12 N 0.03743(13) 0.0565(3) 0.26097(18)
C17 C 0.02135(16) 0.0327(4) 0.2075(2)
C18 C 0.04249(18) 0.0715(4) 0.1588(2)
H9 H 0.0300 0.0555 0.1223
C19 C 0.08238(18) 0.1344(4) 0.1638(2)
H10 H 0.0977 0.1613 0.1309
C20 C 0.09902(17) 0.1565(4) 0.2180(2)
H11 H 0.1262 0.1987 0.2226
C21 C 0.07587(17) 0.1169(4) 0.2653(2)
H12 H 0.0876 0.1331 0.3022
N12A N -0.03743(13) -0.0565(3) 0.26097(18)
C17A C -0.02135(16) -0.0327(4) 0.2075(2)
C18A C -0.04249(18) -0.0715(4) 0.1588(2)
H9A H -0.0300 -0.0555 0.1223
C19A C -0.08238(18) -0.1344(4) 0.1638(2)
H10A H -0.0977 -0.1613 0.1309
C20A C -0.09902(17) -0.1565(4) 0.2180(2)
H11A H -0.1262 -0.1987 0.2226
C21A C -0.07587(17) -0.1169(4) 0.2653(2)
H12A H -0.0876 -0.1331 0.3022
N10A N -0.04176(13) -0.0504(3) 0.38506(18)
C7A C -0.04073(17) -0.1471(4) 0.4109(2)
H1A H -0.0205 -0.2010 0.3965
C8A C -0.06790(19) -0.1718(4) 0.4578(2)
H2A H -0.0666 -0.2413 0.4749
C9A C -0.09685(19) -0.0927(4) 0.4790(2)
H3A H -0.1152 -0.1066 0.5119
C10A C -0.09908(17) 0.0065(4) 0.4524(2)
H4A H -0.1193 0.0611 0.4662
C11A C -0.07101(15) 0.0258(4) 0.4048(2)
C12A C -0.07013(17) 0.1274(4) 0.3725(2)
C13A C -0.09776(16) 0.2180(4) 0.3856(2)
H5A H -0.1193 0.2153 0.4162
C14A C -0.09309(18) 0.3102(4) 0.3537(2)
H6A H -0.1107 0.3729 0.3625
C15A C -0.06205(17) 0.3106(4) 0.3078(2)
H7A H -0.0590 0.3730 0.2845
C16A C -0.03581(18) 0.2195(4) 0.2966(2)
H8A H -0.0147 0.2204 0.2655
N11A N -0.03951(13) 0.1287(3) 0.32903(16)
loop_
_geom_bond_atom_site_label_1
_geom_bond_atom_site_label_2
_geom_bond_site_symmetry_1
_geom_bond_site_symmetry_2
Fe1 N1 1_555 1_555
Fe2 N6 1_555 1_555
N1 C1 1_555 1_555
C1 N2 1_555 1_555
N2 C5 1_555 1_555
N3 C2 1_555 1_555
C2 N9 1_555 1_555
N4 Fe1 1_555 1_555
C3 N4 1_555 1_555
N5 C3 1_555 1_555
C4 N5 1_555 1_555
N6 C4 1_555 1_555
N7 C5 1_555 1_555
N8 Fe2 1_555 1_555
C6 N8 1_555 1_555
N9 C6 1_555 1_555
Zn1 N10 1_555 1_555
N10 C7 1_555 1_555
C7 H1 1_555 1_555
C8 C7 1_555 1_555
H2 C8 1_555 1_555
C9 C8 1_555 1_555
H3 C9 1_555 1_555
C10 C9 1_555 1_555
H4 C10 1_555 1_555
C11 N10 1_555 1_555
C12 C11 1_555 1_555
C13 C12 1_555 1_555
H5 C13 1_555 1_555
C14 C13 1_555 1_555
H6 C14 1_555 1_555
C15 C14 1_555 1_555
H7 C15 1_555 1_555
C16 C15 1_555 1_555
H8 C16 1_555 1_555
N11 Zn1 1_555 1_555
N12 Zn1 1_555 1_555
C17 N12 1_555 1_555
C18 C17 1_555 1_555
H9 C18 1_555 1_555
C19 C18 1_555 1_555
H10 C19 1_555 1_555
C20 C19 1_555 1_555
H11 C20 1_555 1_555
C21 N12 1_555 1_555
H12 C21 1_555 1_555
N1A Fe1 1_555 1_555
C1A N1A 1_555 1_555
N2A C1A 1_555 1_555
N3A C2A 1_555 1_555
C2A N9A 1_555 1_555
N4A Fe1 1_555 1_555
C3A N4A 1_555 1_555
N5A C3A 1_555 1_555
C4A N5A 1_555 1_555
N6A Fe2 1_555 1_555
N7A C5A 1_555 1_555
C5A N2A 1_555 1_555
N8A Fe2 1_555 1_555
C6A N8A 1_555 1_555
N9A C6A 1_555 1_555
Fe1D N3A 1_555 1_555
Fe1D_2 N3 1_555 1_555
Fe2D N7A 1_555 1_555
Fe2D_2 N7 1_555 1_555
N3D Fe1 1_555 1_555
N3E Fe1 1_555 1_555
N7D Fe2 1_555 1_555
N7E Fe2 1_555 1_555
N12A Zn1 1_555 1_555
C17A C17 1_555 1_555
C18A C17A 1_555 1_555
H9A C18A 1_555 1_555
C19A C18A 1_555 1_555
H10A C19A 1_555 1_555
C20A C19A 1_555 1_555
H11A C20A 1_555 1_555
C21A N12A 1_555 1_555
H12A C21A 1_555 1_555
N10A Zn1 1_555 1_555
C7A N10A 1_555 1_555
H1A C7A 1_555 1_555
C8A C7A 1_555 1_555
H2A C8A 1_555 1_555
C9A C8A 1_555 1_555
H3A C9A 1_555 1_555
C10A C9A 1_555 1_555
H4A C10A 1_555 1_555
C11A N10A 1_555 1_555
C12A C11A 1_555 1_555
C13A C12A 1_555 1_555
H5A C13A 1_555 1_555
C14A C13A 1_555 1_555
H6A C14A 1_555 1_555
C15A C14A 1_555 1_555
H7A C15A 1_555 1_555
C16A C15A 1_555 1_555
H8A C16A 1_555 1_555
N11A Zn1 1_555 1_555
C10 C11 1_555 1_555
C12 N11 1_555 1_555
C16 N11 1_555 1_555
C20 C21 1_555 1_555
C4A N6A 1_555 1_555
N12A C17A 1_555 1_555
C20A C21A 1_555 1_555
C10A C11A 1_555 1_555
C12A N11A 1_555 1_555
C16A N11A 1_555 1_555

#END
