
#######################################################################
#
#                 Cambridge Crystallographic Data Centre
#                                CCDC 
#
#######################################################################
#
# If this CIF has been generated from an entry in the Cambridge 
# Structural Database, then it will include bibliographic, chemical, 
# crystal, experimental, refinement or atomic coordinate data resulting 
# from the CCDC's data processing and validation procedures.
#
#######################################################################

data_KETPAB
_symmetry_cell_setting           monoclinic
_symmetry_space_group_name_H-M   'P 21/c'
_symmetry_Int_Tables_number      14
_space_group_name_Hall           '-P 2ybc'
loop_
_symmetry_equiv_pos_site_id
_symmetry_equiv_pos_as_xyz
1 x,y,z
2 -x,1/2+y,1/2-z
3 -x,-y,-z
4 x,1/2-y,1/2+z
_cell_length_a                   8.0410(16)
_cell_length_b                   13.352(3)
_cell_length_c                   21.034(6)
_cell_angle_alpha                90
_cell_angle_beta                 101.14(3)
_cell_angle_gamma                90
_cell_volume                     2215.73
loop_
_atom_site_label
_atom_site_type_symbol
_atom_site_fract_x
_atom_site_fract_y
_atom_site_fract_z
Hg1 Hg -0.80551(8) 0.17278(4) 0.53260(2)
Ni1 Ni -0.34007(18) -0.11560(10) 0.71490(6)
S1 S -0.4997(5) 0.1287(3) 0.54431(17)
S2 S -1.0302(5) 0.1030(3) 0.44130(15)
S3 S -0.9375(5) 0.1363(2) 0.63090(14)
S4 S -0.8273(6) 0.3638(2) 0.51474(18)
N1 N -0.4328(12) -0.2388(7) 0.6577(4)
N2 N -0.5650(15) -0.3272(8) 0.5761(5)
H1 H -0.6343 -0.3416 0.5408
N3 N -0.5432(12) -0.1163(7) 0.7607(4)
N4 N -0.7098(15) -0.1397(9) 0.8320(6)
H2 H -0.7446 -0.1584 0.8663
N5 N -0.2324(11) 0.0100(6) 0.7675(4)
N6 N -0.1043(17) 0.1054(10) 0.8469(6)
H3 H -0.0570 0.1253 0.8850
N7 N -0.4631(12) -0.0174(7) 0.6418(5)
N8 N -0.8589(12) 0.1170(7) 0.3378(5)
N9 N -0.7956(12) 0.2895(7) 0.7145(4)
N10 N -1.157(2) 0.3737(10) 0.5378(7)
C1 C -0.5470(18) -0.2388(9) 0.6055(6)
H4 H -0.6104 -0.1826 0.5900
C2 C -0.455(2) -0.3897(10) 0.6119(9)
H5 H -0.4364 -0.4568 0.6036
C3 C -0.377(2) -0.3351(11) 0.6621(9)
H6 H -0.2954 -0.3599 0.6958
C4 C -0.5568(18) -0.1541(9) 0.8189(6)
H7 H -0.4692 -0.1865 0.8466
C5 C -0.6986(16) -0.0743(9) 0.7390(6)
H8 H -0.7283 -0.0394 0.7002
C6 C -0.8018(16) -0.0893(9) 0.7801(7)
H9 H -0.9146 -0.0695 0.7748
C7 C -0.1637(18) 0.0140(11) 0.8312(6)
H10 H -0.1587 -0.0393 0.8599
C8 C -0.2065(17) 0.1023(8) 0.7469(6)
H11 H -0.2393 0.1220 0.7039
C9 C -0.131(2) 0.1619(9) 0.7922(7)
H12 H -0.1024 0.2287 0.7881
C10 C -0.4827(14) 0.0410(8) 0.6018(5)
C11 C -0.9267(14) 0.1123(7) 0.3800(5)
C12 C -0.8559(13) 0.2288(7) 0.6801(5)
C13 C -1.024(2) 0.3691(10) 0.5271(7)
Ni1B Ni -0.65993(18) 0.11560(10) 0.28510(6)
Ni1A Ni -0.65993(18) 0.38440(10) 0.78510(6)
N8B N -0.1411(12) -0.1170(7) 0.6622(5)
N9A N -0.2044(12) -0.2105(7) 0.7855(4)
loop_
_geom_bond_atom_site_label_1
_geom_bond_atom_site_label_2
_geom_bond_site_symmetry_1
_geom_bond_site_symmetry_2
Hg1 S1 1_555 1_555
Ni1 N1 1_555 1_555
S1 C10 1_555 1_555
S2 Hg1 1_555 1_555
S3 Hg1 1_555 1_555
S4 Hg1 1_555 1_555
N1 C1 1_555 1_555
N2 H1 1_555 1_555
N3 Ni1 1_555 1_555
N4 H2 1_555 1_555
N5 Ni1 1_555 1_555
N6 H3 1_555 1_555
N7 Ni1 1_555 1_555
N8 C11 1_555 1_555
N9 C12 1_555 1_555
N10 C13 1_555 1_555
C1 N2 1_555 1_555
H4 C1 1_555 1_555
C2 N2 1_555 1_555
H5 C2 1_555 1_555
C3 N1 1_555 1_555
H6 C3 1_555 1_555
C4 N3 1_555 1_555
H7 C4 1_555 1_555
C5 N3 1_555 1_555
H8 C5 1_555 1_555
C6 N4 1_555 1_555
H9 C6 1_555 1_555
C7 N5 1_555 1_555
H10 C7 1_555 1_555
C8 N5 1_555 1_555
H11 C8 1_555 1_555
C9 N6 1_555 1_555
H12 C9 1_555 1_555
C10 N7 1_555 1_555
C11 S2 1_555 1_555
C12 S3 1_555 1_555
C13 S4 1_555 1_555
Ni1B N8 1_555 1_555
Ni1A N9 1_555 1_555
N8B Ni1 1_555 1_555
N9A Ni1 1_555 1_555
N4 C4 1_555 1_555
N6 C7 1_555 1_555
C2 C3 1_555 1_555
C5 C6 1_555 1_555
C8 C9 1_555 1_555

#END
