
#######################################################################
#
#                 Cambridge Crystallographic Data Centre
#                                CCDC 
#
#######################################################################
#
# If this CIF has been generated from an entry in the Cambridge 
# Structural Database, then it will include bibliographic, chemical, 
# crystal, experimental, refinement or atomic coordinate data resulting 
# from the CCDC's data processing and validation procedures.
#
#######################################################################

data_KETSIN
_symmetry_cell_setting           orthorhombic
_symmetry_space_group_name_H-M   'P 21 21 21'
_symmetry_Int_Tables_number      19
_space_group_name_Hall           'P 2ac 2ab'
loop_
_symmetry_equiv_pos_site_id
_symmetry_equiv_pos_as_xyz
1 x,y,z
2 1/2-x,-y,1/2+z
3 1/2+x,1/2-y,-z
4 -x,1/2+y,1/2-z
_cell_length_a                   11.741(3)
_cell_length_b                   14.190(4)
_cell_length_c                   18.963(5)
_cell_angle_alpha                90
_cell_angle_beta                 90
_cell_angle_gamma                90
_cell_volume                     3159.33
loop_
_atom_site_label
_atom_site_type_symbol
_atom_site_fract_x
_atom_site_fract_y
_atom_site_fract_z
Cd1 Cd 0.63238(2) -0.00189(2) 0.058135(16)
Cd2 Cd 0.62925(3) 0.00694(2) 0.256007(18)
O1 O 0.7321(3) -0.0583(2) 0.16081(19)
O2 O 0.5342(3) 0.0562(2) 0.15926(19)
O3 O 0.2384(3) 0.4011(3) 0.0385(2)
O4 O 1.0137(4) -0.4064(3) 0.0270(2)
O5 O 0.8297(4) -0.1798(3) 0.2044(2)
O6 O 0.4526(4) 0.1843(3) 0.2049(2)
O7 O 0.5230(4) -0.1381(3) 0.2305(2)
H1 H 0.4631 -0.1476 0.2547
H2 H 0.5625 -0.1876 0.2241
O8 O 1.0169(4) -0.3599(3) -0.0840(2)
O9 O 0.2511(4) 0.3704(3) -0.0754(2)
C1 C 0.8884(5) -0.2419(4) 0.0658(3)
H3 H 0.9211 -0.2757 0.1026
N1 N 0.2486(4) 0.3654(3) 0.7363(3)
N2 N 0.7701(4) -0.1138(3) 0.0268(3)
N3 N 0.5021(4) 0.0247(3) 0.3446(3)
N4 N 0.4051(4) -0.0198(3) 0.4382(2)
C2 C 0.4491(4) 0.1650(3) 0.0807(3)
C3 C 0.8172(5) -0.1644(4) 0.0802(3)
O10 O 0.7593(4) -0.0828(3) 0.3182(2)
H4 H 0.7420 -0.1384 0.3311
H5 H 0.8170 -0.0568 0.3371
C4 C 0.3753(5) 0.2408(3) 0.0692(3)
H6 H 0.3428 0.2719 0.1074
C5 C 0.7916(4) -0.1334(4) 0.1546(3)
N5 N 0.4956(4) 0.1169(3) 0.0270(3)
C6 C 0.4727(5) 0.1447(4) -0.0391(3)
H7 H 0.5064 0.1125 -0.0764
C7 C 0.2728(5) 0.3532(4) -0.0126(3)
C8 C 0.3507(4) 0.2696(3) 0.0018(3)
N6 N 0.3202(5) 0.2246(4) 0.7518(3)
C9 C 0.9871(5) -0.3505(4) -0.0200(4)
C10 C 0.2539(5) 0.0133(5) 0.5875(3)
H8 H 0.1902 0.0065 0.5589
C11 C 0.4801(4) 0.1331(3) 0.1551(3)
C12 C 0.9097(5) -0.2676(4) -0.0032(3)
C13 C 0.4397(6) 0.0308(5) 0.6736(4)
H9 H 0.5031 0.0363 0.7027
C14 C 0.3599(6) 0.3672(4) 0.7208(3)
H10 H 0.3998 0.4203 0.7061
C15 C 0.3580(5) -0.0241(4) 0.5663(3)
C16 C 0.4918(6) -0.0347(5) 0.3967(3)
H11 H 0.5426 -0.0841 0.4037
C17 C 0.7919(6) -0.1385(4) -0.0402(3)
H12 H 0.7597 -0.1034 -0.0765
C18 C 0.8600(6) -0.2138(4) -0.0567(3)
H13 H 0.8732 -0.2291 -0.1037
C19 C 0.2263(6) 0.2788(4) 0.7548(3)
H14 H 0.1548 0.2573 0.7684
C20 C 0.3646(7) -0.0779(4) 0.4966(3)
H15 H 0.4155 -0.1311 0.5024
H16 H 0.2897 -0.1023 0.4850
C21 C 0.2452(6) 0.0603(5) 0.6505(4)
H17 H 0.1759 0.0865 0.6638
C22 C 0.4485(5) -0.0165(5) 0.6090(4)
H18 H 0.5177 -0.0430 0.5957
C23 C 0.3377(6) 0.0690(4) 0.6937(3)
C24 C 0.3241(7) 0.1213(5) 0.7632(4)
H19 H 0.2555 0.1004 0.7870
H20 H 0.3885 0.1066 0.7933
C25 C 0.4005(5) 0.2198(4) -0.0541(3)
H21 H 0.3855 0.2367 -0.1006
C26 C 0.4053(6) 0.2812(5) 0.7297(4)
H22 H 0.4808 0.2640 0.7220
C27 C 0.4122(8) 0.0827(6) 0.3527(5)
H23 H 0.3926 0.1318 0.3227
C28 C 0.3547(9) 0.0573(7) 0.4123(5)
H24 H 0.2920 0.0881 0.4314
Cd1B Cd 0.13238(2) 0.50189(2) -0.058135(16)
Cd1B_2 Cd 1.13238(2) -0.49811(2) -0.058135(16)
Cd2B Cd 0.12925(3) 0.49306(2) 0.743993(18)
O3B O 0.7384(3) 0.0989(3) -0.0385(2)
O4B O 0.5137(4) -0.0936(3) -0.0270(2)
O8B O 0.5169(4) -0.1401(3) 0.0840(2)
O9B O 0.7511(4) 0.1296(3) 0.0754(2)
N1B N 0.7486(4) 0.1346(3) 0.2637(3)
O11 O 0.890(4) -0.4696(13) 0.1357(13)
H25 H 0.9549 -0.4729 0.1162
H26 H 0.8980 -0.4679 0.1803
loop_
_geom_bond_atom_site_label_1
_geom_bond_atom_site_label_2
_geom_bond_site_symmetry_1
_geom_bond_site_symmetry_2
Cd1 O1 1_555 1_555
Cd2 O1 1_555 1_555
O1 C5 1_555 1_555
O2 Cd1 1_555 1_555
O3 C7 1_555 1_555
O4 C9 1_555 1_555
O5 C5 1_555 1_555
O6 C11 1_555 1_555
O7 Cd2 1_555 1_555
H1 O7 1_555 1_555
H2 O7 1_555 1_555
O8 C9 1_555 1_555
O9 C7 1_555 1_555
C1 H3 1_555 1_555
N1 C14 1_555 1_555
N2 Cd1 1_555 1_555
N3 Cd2 1_555 1_555
N4 C16 1_555 1_555
C2 C4 1_555 1_555
C3 C1 1_555 1_555
O10 Cd2 1_555 1_555
H4 O10 1_555 1_555
H5 O10 1_555 1_555
C4 H6 1_555 1_555
C5 C3 1_555 1_555
N5 Cd1 1_555 1_555
C6 N5 1_555 1_555
H7 C6 1_555 1_555
C7 C8 1_555 1_555
C8 C4 1_555 1_555
N6 C19 1_555 1_555
C9 C12 1_555 1_555
C10 H8 1_555 1_555
C11 O2 1_555 1_555
C12 C1 1_555 1_555
C13 H9 1_555 1_555
C14 H10 1_555 1_555
C15 C10 1_555 1_555
C16 N3 1_555 1_555
H11 C16 1_555 1_555
C17 N2 1_555 1_555
H12 C17 1_555 1_555
C18 C12 1_555 1_555
H13 C18 1_555 1_555
C19 N1 1_555 1_555
H14 C19 1_555 1_555
C20 N4 1_555 1_555
H15 C20 1_555 1_555
H16 C20 1_555 1_555
C21 C10 1_555 1_555
H17 C21 1_555 1_555
C22 C13 1_555 1_555
H18 C22 1_555 1_555
C23 C13 1_555 1_555
C24 N6 1_555 1_555
H19 C24 1_555 1_555
H20 C24 1_555 1_555
C25 C6 1_555 1_555
H21 C25 1_555 1_555
C26 N6 1_555 1_555
H22 C26 1_555 1_555
C27 N3 1_555 1_555
H23 C27 1_555 1_555
C28 N4 1_555 1_555
H24 C28 1_555 1_555
O11 H25 1_555 1_555
H26 O11 1_555 1_555
Cd1B O3 1_555 1_555
Cd1B_2 O4 1_555 1_555
Cd2B N1 1_555 1_555
O3B Cd1 1_555 1_555
O4B Cd1 1_555 1_555
O8B Cd1 1_555 1_555
O9B Cd1 1_555 1_555
N1B Cd2 1_555 1_555
Cd2 O2 1_555 1_555
O8 Cd1B_2 1_555 1_555
O9 Cd1B 1_555 1_555
N2 C3 1_555 1_555
C2 N5 1_555 1_555
C2 C11 1_555 1_555
C8 C25 1_555 1_555
C14 C26 1_555 1_555
C15 C20 1_555 1_555
C15 C22 1_555 1_555
C17 C18 1_555 1_555
C21 C23 1_555 1_555
C23 C24 1_555 1_555
C27 C28 1_555 1_555

#END
