
#######################################################################
#
#                 Cambridge Crystallographic Data Centre
#                                CCDC 
#
#######################################################################
#
# If this CIF has been generated from an entry in the Cambridge 
# Structural Database, then it will include bibliographic, chemical, 
# crystal, experimental, refinement or atomic coordinate data resulting 
# from the CCDC's data processing and validation procedures.
#
#######################################################################

data_KETYOZ
_symmetry_cell_setting           monoclinic
_symmetry_space_group_name_H-M   'C 2/c'
_symmetry_Int_Tables_number      15
_space_group_name_Hall           '-C 2yn'
loop_
_symmetry_equiv_pos_site_id
_symmetry_equiv_pos_as_xyz
1 x,y,z
2 -x,y,1/2-z
3 1/2+x,1/2+y,z
4 1/2-x,1/2+y,1/2-z
5 -x,-y,-z
6 x,-y,1/2+z
7 1/2-x,1/2-y,-z
8 1/2+x,1/2-y,1/2+z
_cell_length_a                   19.1466(19)
_cell_length_b                   16.2759(16)
_cell_length_c                   13.1959(13)
_cell_angle_alpha                90
_cell_angle_beta                 95.9050(10)
_cell_angle_gamma                90
_cell_volume                     4090.39
loop_
_atom_site_label
_atom_site_type_symbol
_atom_site_fract_x
_atom_site_fract_y
_atom_site_fract_z
Cd1 Cd 0.360365(8) 0.558750(10) 0.459072(11)
S1 S 0.42179(5) 0.16666(4) 0.33461(6)
O1 O 0.41141(9) 0.43172(10) 0.45048(12)
O2 O 0.32853(9) 0.43852(10) 0.32179(13)
O3 O 0.47383(8) 0.60286(10) 0.41632(12)
H1 H 0.5085 0.5931 0.4603
H2 H 0.4842 0.5790 0.3626
O4 O 0.40007(8) 0.42058(10) 0.13276(12)
O5 O 0.35502(10) 0.31181(11) 0.05236(12)
N1 N 0.24336(10) 0.53314(13) 0.49206(15)
N2 N 0.32311(10) 0.63385(12) 0.31619(14)
C1 C 0.37938(12) 0.40324(14) 0.36810(16)
C2 C 0.40128(11) 0.32156(14) 0.33071(16)
C3 C 0.39534(12) 0.29507(14) 0.22580(16)
C4 C 0.40519(15) 0.21266(16) 0.2187(2)
H3 H 0.4031 0.1844 0.1572
C5 C 0.41642(14) 0.25805(16) 0.39598(19)
H4 H 0.4231 0.2638 0.4664
C6 C 0.38268(12) 0.34584(15) 0.13181(17)
C7 C 0.19659(12) 0.50693(18) 0.4168(2)
H5 H 0.2128 0.4928 0.3551
C8 C 0.12582(12) 0.49963(18) 0.42556(19)
H6 H 0.0956 0.4808 0.3708
C9 C 0.09974(12) 0.52057(15) 0.51675(19)
C10 C 0.14848(13) 0.54738(17) 0.5950(2)
H7 H 0.1338 0.5621 0.6576
C11 C 0.21871(13) 0.55226(17) 0.5799(2)
H8 H 0.2504 0.5698 0.6338
C12 C 0.02538(12) 0.51425(16) 0.53262(19)
H9 H 0.0128 0.5322 0.5951
C13 C 0.29265(13) 0.70712(16) 0.31982(17)
H10 H 0.2847 0.7283 0.3831
C14 C 0.27227(13) 0.75312(15) 0.23391(17)
H11 H 0.2523 0.8048 0.2400
C15 C 0.28169(12) 0.72192(15) 0.13844(17)
C16 C 0.31510(14) 0.64634(16) 0.13535(18)
H12 H 0.3241 0.6239 0.0732
C17 C 0.33464(14) 0.60512(16) 0.22409(18)
H13 H 0.3570 0.5547 0.2204
C18 C 0.25554(13) 0.76665(15) 0.04564(16)
H14 H 0.2461 0.8224 0.0517
N1D N -0.24336(10) 0.46686(13) 0.50794(15)
C7D C -0.19659(12) 0.49307(18) 0.5832(2)
H5D H -0.2128 0.5072 0.6449
C8D C -0.12582(12) 0.50037(18) 0.57444(19)
H6D H -0.0956 0.5192 0.6292
C9D C -0.09974(12) 0.47943(15) 0.48325(19)
C10D C -0.14848(13) 0.45262(17) 0.4050(2)
H7D H -0.1338 0.4379 0.3424
C11D C -0.21871(13) 0.44774(17) 0.4201(2)
H8D H -0.2504 0.4302 0.3662
C12D C -0.02538(12) 0.48575(16) 0.46738(19)
H9D H -0.0128 0.4678 0.4049
N2F N 0.17689(10) 0.86615(12) -0.31619(14)
C13F C 0.20735(13) 0.79288(16) -0.31982(17)
H10F H 0.2153 0.7717 -0.3831
C14F C 0.22773(13) 0.74688(15) -0.23391(17)
H11F H 0.2477 0.6952 -0.2400
C15F C 0.21831(12) 0.77808(15) -0.13844(17)
C16F C 0.18490(14) 0.85366(16) -0.13535(18)
H12F H 0.1759 0.8761 -0.0732
C17F C 0.16536(14) 0.89488(16) -0.22409(18)
H13F H 0.1430 0.9453 -0.2204
C18F C 0.24446(13) 0.73335(15) -0.04564(16)
H14F H 0.2539 0.6776 -0.0517
Cd1D Cd -0.360365(8) 0.441250(10) 0.540928(11)
S1D S -0.42179(5) 0.83334(4) 0.66539(6)
O1D O -0.41141(9) 0.56828(10) 0.54952(12)
O2D O -0.32853(9) 0.56148(10) 0.67821(13)
O3D O -0.47383(8) 0.39714(10) 0.58368(12)
H1D H -0.5085 0.4069 0.5397
H2D H -0.4842 0.4210 0.6374
O4D O -0.40007(8) 0.57942(10) 0.86724(12)
O5D O -0.35502(10) 0.68819(11) 0.94764(12)
C1D C -0.37938(12) 0.59676(14) 0.63190(16)
C2D C -0.40128(11) 0.67844(14) 0.66929(16)
C3D C -0.39534(12) 0.70493(14) 0.77420(16)
C4D C -0.40519(15) 0.78734(16) 0.7813(2)
H3D H -0.4031 0.8156 0.8428
C5D C -0.41642(14) 0.74195(16) 0.60402(19)
H4D H -0.4231 0.7362 0.5336
C6D C -0.38268(12) 0.65416(15) 0.86819(17)
Cd1A Cd -0.360365(8) 0.558750(10) 1.040928(11)
Cd1E Cd 0.360365(8) 0.441250(10) -0.040928(11)
Cd1F Cd 0.139635(8) 0.941250(10) -0.459072(11)
O4A O -0.40007(8) 0.42058(10) 0.36724(12)
O4E O 0.40007(8) 0.57942(10) 0.63276(12)
O5A O -0.35502(10) 0.31181(11) 0.44764(12)
O5E O 0.35502(10) 0.68819(11) 0.55236(12)
N2D N -0.32311(10) 0.36615(12) 0.68381(14)
O6 O 1.0000 0.6240(2) 0.7500
H15 H 0.9858 0.6542 0.7963
H15A H 1.0142 0.6542 0.7037
O7 O 0.45627(13) 0.22386(14) 0.90894(19)
H16 H 0.4618 0.2753 0.9023
H17 H 0.4157 0.2180 0.9286
O8 O 0.5000 0.50624(15) 0.2500
H18 H 0.4682 0.4748 0.2222
H18A H 0.5318 0.4748 0.2778
loop_
_geom_bond_atom_site_label_1
_geom_bond_atom_site_label_2
_geom_bond_site_symmetry_1
_geom_bond_site_symmetry_2
Cd1 O1 1_555 1_555
S1 C4 1_555 1_555
O1 C1 1_555 1_555
O2 Cd1 1_555 1_555
O3 Cd1 1_555 1_555
H1 O3 1_555 1_555
H2 O3 1_555 1_555
O4 C6 1_555 1_555
O5 C6 1_555 1_555
N1 Cd1 1_555 1_555
N2 Cd1 1_555 1_555
C1 O2 1_555 1_555
C2 C1 1_555 1_555
C3 C2 1_555 1_555
C4 C3 1_555 1_555
H3 C4 1_555 1_555
C5 S1 1_555 1_555
H4 C5 1_555 1_555
C6 C3 1_555 1_555
C7 N1 1_555 1_555
H5 C7 1_555 1_555
C8 C7 1_555 1_555
H6 C8 1_555 1_555
C9 C8 1_555 1_555
C10 C9 1_555 1_555
H7 C10 1_555 1_555
C11 N1 1_555 1_555
H8 C11 1_555 1_555
C12 C9 1_555 1_555
H9 C12 1_555 1_555
C13 N2 1_555 1_555
H10 C13 1_555 1_555
C14 C13 1_555 1_555
H11 C14 1_555 1_555
C15 C14 1_555 1_555
C16 C15 1_555 1_555
H12 C16 1_555 1_555
C17 N2 1_555 1_555
H13 C17 1_555 1_555
C18 C15 1_555 1_555
H14 C18 1_555 1_555
O6 H15 1_555 1_555
O7 H16 1_555 1_555
H17 O7 1_555 1_555
O8 H18 1_555 1_555
N1D C7D 1_555 1_555
C7D H5D 1_555 1_555
C8D C7D 1_555 1_555
H6D C8D 1_555 1_555
C9D C8D 1_555 1_555
C10D C9D 1_555 1_555
H7D C10D 1_555 1_555
C11D N1D 1_555 1_555
H8D C11D 1_555 1_555
C12D C12 1_555 1_555
H9D C12D 1_555 1_555
N2F C13F 1_555 1_555
C13F H10F 1_555 1_555
C14F C13F 1_555 1_555
H11F C14F 1_555 1_555
C15F C14F 1_555 1_555
C16F C15F 1_555 1_555
H12F C16F 1_555 1_555
C17F N2F 1_555 1_555
H13F C17F 1_555 1_555
C18F C18 1_555 1_555
H14F C18F 1_555 1_555
Cd1D N1D 1_555 1_555
S1D C4D 1_555 1_555
O1D Cd1D 1_555 1_555
O2D Cd1D 1_555 1_555
O3D Cd1D 1_555 1_555
H1D O3D 1_555 1_555
H2D O3D 1_555 1_555
O4D C6D 1_555 1_555
O5D C6D 1_555 1_555
C1D O1D 1_555 1_555
C2D C1D 1_555 1_555
C3D C2D 1_555 1_555
C4D C3D 1_555 1_555
H3D C4D 1_555 1_555
C5D S1D 1_555 1_555
H4D C5D 1_555 1_555
C6D C3D 1_555 1_555
Cd1A O4D 1_555 1_555
Cd1E O4 1_555 1_555
Cd1F N2F 1_555 1_555
O4A Cd1D 1_555 1_555
O4E Cd1 1_555 1_555
O5A Cd1D 1_555 1_555
O5E Cd1 1_555 1_555
N2D Cd1D 1_555 1_555
H15A O6 1_555 1_555
H18A O8 1_555 1_555
O5 Cd1E 1_555 1_555
C2 C5 1_555 1_555
C10 C11 1_555 1_555
C16 C17 1_555 1_555
C9D C12D 1_555 1_555
C10D C11D 1_555 1_555
C15F C18F 1_555 1_555
C16F C17F 1_555 1_555
O2D C1D 1_555 1_555
O5D Cd1A 1_555 1_555
C2D C5D 1_555 1_555

#END
