
#######################################################################
#
#                 Cambridge Crystallographic Data Centre
#                                CCDC 
#
#######################################################################
#
# If this CIF has been generated from an entry in the Cambridge 
# Structural Database, then it will include bibliographic, chemical, 
# crystal, experimental, refinement or atomic coordinate data resulting 
# from the CCDC's data processing and validation procedures.
#
#######################################################################

data_KEVCOF
_symmetry_cell_setting           tetragonal
_symmetry_space_group_name_H-M   'I 41/a'
_symmetry_Int_Tables_number      88
_space_group_name_Hall           '-I 4ad'
loop_
_symmetry_equiv_pos_site_id
_symmetry_equiv_pos_as_xyz
1 x,y,z
2 1/2-x,-y,1/2+z
3 3/4-y,1/4+x,1/4+z
4 3/4+y,3/4-x,3/4+z
5 1/2+x,1/2+y,1/2+z
6 -x,1/2-y,z
7 1/4-y,3/4+x,3/4+z
8 1/4+y,1/4-x,1/4+z
9 -x,-y,-z
10 1/2+x,y,1/2-z
11 1/4+y,3/4-x,3/4-z
12 1/4-y,1/4+x,1/4-z
13 1/2-x,1/2-y,1/2-z
14 x,1/2+y,-z
15 3/4+y,1/4-x,1/4-z
16 3/4-y,3/4+x,3/4-z
_cell_length_a                   30.300(16)
_cell_length_b                   30.300(16)
_cell_length_c                   15.197(10)
_cell_angle_alpha                90
_cell_angle_beta                 90
_cell_angle_gamma                90
_cell_volume                     13952.2
loop_
_atom_site_label
_atom_site_type_symbol
_atom_site_fract_x
_atom_site_fract_y
_atom_site_fract_z
Co1 Co 0.26036(3) 0.66316(3) 0.50107(5)
Co2 Co 0.28030(3) 0.57787(3) 0.59176(5)
N1 N 0.32134(15) 0.67597(15) 0.4961(3)
N2 N 0.19966(16) 0.64961(16) 0.5119(3)
O1 O 0.24978(13) 0.67785(13) 0.3832(2)
O2 O 0.27273(12) 0.64397(12) 0.6182(2)
O3 O 0.34820(12) 0.58964(12) 0.5661(2)
H1 H 0.3488 0.5822 0.6180
O4 O 0.25303(14) 0.72259(13) 0.5356(2)
O5 O 0.21224(13) 0.56768(13) 0.6088(2)
H2 H 0.2036 0.5617 0.6586
O6 O 0.26641(12) 0.60236(12) 0.4702(2)
O7 O 0.23125(15) 0.54096(14) 0.7759(2)
O8 O 0.29565(13) 0.56287(13) 0.7213(2)
C1 C 0.34095(19) 0.69185(18) 0.4271(4)
H3 H 0.3707 0.6985 0.4344
C2 C 0.3237(2) 0.70032(19) 0.3434(3)
C3 C 0.2786(2) 0.69138(19) 0.3268(4)
C4 C 0.2631(2) 0.6967(2) 0.2395(4)
H4 H 0.2337 0.6903 0.2271
C5 C 0.2899(2) 0.7108(2) 0.1731(4)
H5 H 0.2785 0.7139 0.1166
C6 C 0.3344(2) 0.7208(2) 0.1892(4)
C7 C 0.3621(3) 0.7356(2) 0.1206(4)
H6 H 0.3510 0.7366 0.0636
C8 C 0.4039(3) 0.7483(2) 0.1351(5)
H7 H 0.4214 0.7580 0.0887
C9 C 0.4210(2) 0.7469(2) 0.2209(5)
H8 H 0.4497 0.7563 0.2323
C10 C 0.3947(2) 0.7315(2) 0.2873(4)
H9 H 0.4065 0.7301 0.3437
C11 C 0.3510(2) 0.7178(2) 0.2749(4)
C12 C 0.3456(2) 0.6711(2) 0.5809(4)
C13 C 0.3105(2) 0.6676(2) 0.6513(4)
H10 H 0.3224 0.6523 0.7021
H11 H 0.3017 0.6969 0.6698
C14 C 0.3739(2) 0.6293(2) 0.5766(4)
H12 H 0.3943 0.6318 0.5277
H13 H 0.3911 0.6270 0.6302
C15 C 0.3778(2) 0.7084(2) 0.6004(4)
H14 H 0.3896 0.7041 0.6591
H15 H 0.4023 0.7062 0.5595
C16 C 0.3598(3) 0.7533(2) 0.5952(5)
H16 H 0.3467 0.7578 0.5383
H17 H 0.3830 0.7744 0.6040
H18 H 0.3377 0.7572 0.6399
C17 C 0.1702(2) 0.6741(2) 0.5452(3)
H19 H 0.1418 0.6626 0.5490
C18 C 0.1768(2) 0.7182(2) 0.5778(3)
C19 C 0.2166(2) 0.7396(2) 0.5666(3)
C20 C 0.2195(2) 0.7856(2) 0.5865(4)
H20 H 0.2464 0.8000 0.5797
C21 C 0.1839(3) 0.8086(2) 0.6150(4)
H21 H 0.1866 0.8387 0.6255
C22 C 0.1431(2) 0.7877(2) 0.6288(4)
C23 C 0.1064(3) 0.8122(3) 0.6593(4)
H22 H 0.1088 0.8425 0.6679
C24 C 0.0674(3) 0.7914(3) 0.6760(5)
H23 H 0.0434 0.8075 0.6968
C25 C 0.0634(3) 0.7459(3) 0.6620(5)
H24 H 0.0368 0.7316 0.6736
C26 C 0.0984(2) 0.7229(3) 0.6313(4)
H25 H 0.0954 0.6927 0.6225
C27 C 0.1389(2) 0.7428(2) 0.6122(4)
C28 C 0.18660(19) 0.60454(19) 0.4768(3)
C29 C 0.1754(2) 0.57412(19) 0.5527(3)
H26 H 0.1513 0.5867 0.5862
H27 H 0.1658 0.5458 0.5297
C30 C 0.22780(18) 0.58853(19) 0.4273(3)
H28 H 0.2274 0.5566 0.4237
H29 H 0.2275 0.6001 0.3678
C31 C 0.14647(19) 0.6060(2) 0.4145(4)
H30 H 0.1421 0.5765 0.3913
H31 H 0.1207 0.6131 0.4495
C32 C 0.1479(3) 0.6367(3) 0.3396(4)
H32 H 0.1538 0.6660 0.3606
H33 H 0.1201 0.6363 0.3095
H34 H 0.1709 0.6279 0.2998
C33 C 0.2702(2) 0.5516(2) 0.7855(4)
C34 C 0.2904(2) 0.5520(3) 0.8747(4)
H35 H 0.2824 0.5255 0.9054
H36 H 0.2799 0.5771 0.9068
H37 H 0.3219 0.5535 0.8693
Co2B Co 0.17213(3) 0.53030(3) 0.84176(5)
O7C O 0.29096(14) 0.51875(15) 0.5259(2)
O9 O 0.3852(3) 0.5767(4) 0.7578(6)
H38 H 0.3599 0.5671 0.7568
C35 C 0.4088(5) 0.5553(5) 0.8222(9)
H39 H 0.4083 0.5241 0.8114
H40 H 0.3959 0.5614 0.8786
H41 H 0.4388 0.5656 0.8217
O10 O 0.40720(15) 0.53412(16) 0.5023(3)
H42 H 0.3993 0.5179 0.4594
H43 H 0.3856 0.5506 0.5168
loop_
_geom_bond_atom_site_label_1
_geom_bond_atom_site_label_2
_geom_bond_site_symmetry_1
_geom_bond_site_symmetry_2
Co1 N1 1_555 1_555
Co2 O2 1_555 1_555
N1 C1 1_555 1_555
N2 Co1 1_555 1_555
O1 Co1 1_555 1_555
O2 Co1 1_555 1_555
O3 Co2 1_555 1_555
H1 O3 1_555 1_555
O4 Co1 1_555 1_555
O5 Co2 1_555 1_555
H2 O5 1_555 1_555
O6 Co1 1_555 1_555
O7 C33 1_555 1_555
O8 Co2 1_555 1_555
C1 H3 1_555 1_555
C2 C1 1_555 1_555
C3 O1 1_555 1_555
C4 C3 1_555 1_555
H4 C4 1_555 1_555
C5 C4 1_555 1_555
H5 C5 1_555 1_555
C6 C5 1_555 1_555
C7 C6 1_555 1_555
H6 C7 1_555 1_555
C8 C7 1_555 1_555
H7 C8 1_555 1_555
C9 C8 1_555 1_555
H8 C9 1_555 1_555
C10 C9 1_555 1_555
H9 C10 1_555 1_555
C11 C2 1_555 1_555
C12 N1 1_555 1_555
C13 O2 1_555 1_555
H10 C13 1_555 1_555
H11 C13 1_555 1_555
C14 O3 1_555 1_555
H12 C14 1_555 1_555
H13 C14 1_555 1_555
C15 C12 1_555 1_555
H14 C15 1_555 1_555
H15 C15 1_555 1_555
C16 C15 1_555 1_555
H16 C16 1_555 1_555
H17 C16 1_555 1_555
H18 C16 1_555 1_555
C17 N2 1_555 1_555
H19 C17 1_555 1_555
C18 C17 1_555 1_555
C19 O4 1_555 1_555
C20 C19 1_555 1_555
H20 C20 1_555 1_555
C21 C20 1_555 1_555
H21 C21 1_555 1_555
C22 C21 1_555 1_555
C23 C22 1_555 1_555
H22 C23 1_555 1_555
C24 C23 1_555 1_555
H23 C24 1_555 1_555
C25 C24 1_555 1_555
H24 C25 1_555 1_555
C26 C25 1_555 1_555
H25 C26 1_555 1_555
C27 C18 1_555 1_555
C28 N2 1_555 1_555
C29 O5 1_555 1_555
H26 C29 1_555 1_555
H27 C29 1_555 1_555
C30 O6 1_555 1_555
H28 C30 1_555 1_555
H29 C30 1_555 1_555
C31 C28 1_555 1_555
H30 C31 1_555 1_555
H31 C31 1_555 1_555
C32 C31 1_555 1_555
H32 C32 1_555 1_555
H33 C32 1_555 1_555
H34 C32 1_555 1_555
C33 O8 1_555 1_555
C34 C33 1_555 1_555
H35 C34 1_555 1_555
H36 C34 1_555 1_555
H37 C34 1_555 1_555
O9 H38 1_555 1_555
C35 O9 1_555 1_555
H39 C35 1_555 1_555
H40 C35 1_555 1_555
H41 C35 1_555 1_555
O10 H42 1_555 1_555
H43 O10 1_555 1_555
Co2B O7 1_555 1_555
O7C Co2 1_555 1_555
Co2 O6 1_555 1_555
C2 C3 1_555 1_555
C6 C11 1_555 1_555
C10 C11 1_555 1_555
C12 C13 1_555 1_555
C12 C14 1_555 1_555
C18 C19 1_555 1_555
C22 C27 1_555 1_555
C26 C27 1_555 1_555
C28 C29 1_555 1_555
C28 C30 1_555 1_555

#END
