
#######################################################################
#
#                 Cambridge Crystallographic Data Centre
#                                CCDC 
#
#######################################################################
#
# If this CIF has been generated from an entry in the Cambridge 
# Structural Database, then it will include bibliographic, chemical, 
# crystal, experimental, refinement or atomic coordinate data resulting 
# from the CCDC's data processing and validation procedures.
#
#######################################################################

data_KEVGAV
_symmetry_cell_setting           monoclinic
_symmetry_space_group_name_H-M   'P 21/c'
_symmetry_Int_Tables_number      14
_space_group_name_Hall           '-P 2ybc'
loop_
_symmetry_equiv_pos_site_id
_symmetry_equiv_pos_as_xyz
1 x,y,z
2 -x,1/2+y,1/2-z
3 -x,-y,-z
4 x,1/2-y,1/2+z
_cell_length_a                   10.7147(10)
_cell_length_b                   7.4518(7)
_cell_length_c                   22.053(2)
_cell_angle_alpha                90
_cell_angle_beta                 95.477(2)
_cell_angle_gamma                90
_cell_volume                     1752.76
loop_
_atom_site_label
_atom_site_type_symbol
_atom_site_fract_x
_atom_site_fract_y
_atom_site_fract_z
Cd1 Cd 0.95379(3) 0.29474(5) 0.762834(16)
C1 C 0.8019(5) -0.1705(7) 0.2473(2)
C2 C 0.6696(4) -0.1393(7) 0.2616(2)
C3 C 0.5677(5) -0.1164(8) 0.2189(3)
C4 C 0.4482(5) -0.0933(10) 0.2353(3)
H1 H 0.3813 -0.0771 0.2057
C5 C 0.4293(5) -0.0947(11) 0.2955(3)
H2 H 0.3487 -0.0796 0.3071
C6 C 0.5289(5) -0.1183(9) 0.3396(2)
C7 C 0.6492(5) -0.1394(8) 0.3228(2)
H3 H 0.7162 -0.1536 0.3524
C8 C 0.9283(5) 0.0620(7) 0.6381(2)
C9 C 0.8721(5) 0.0854(7) 0.5733(2)
C10 C 0.8033(5) -0.0540(7) 0.5467(2)
H4 H 0.8062 -0.1656 0.5656
C11 C 0.7295(5) -0.0313(8) 0.4919(2)
C12 C 0.7269(6) 0.1334(9) 0.4629(3)
H5 H 0.6772 0.1498 0.4264
C13 C 0.7975(6) 0.2715(9) 0.4879(3)
H6 H 0.7969 0.3820 0.4682
C14 C 0.8700(6) 0.2470(7) 0.5425(3)
N1 N 0.5825(5) -0.1300(8) 0.1540(2)
N2 N 0.9497(5) 0.3930(7) 0.5662(2)
O1 O 0.8659(4) -0.0508(6) 0.22638(17)
O2 O 0.8462(4) -0.3224(5) 0.2602(2)
O3 O 0.6781(5) -0.1962(9) 0.1393(2)
O4 O 0.4975(5) -0.0803(10) 0.1179(2)
O5 O 0.8869(4) 0.1660(6) 0.67602(17)
O6 O 1.0044(4) -0.0623(6) 0.64868(16)
O7 O 1.0471(5) 0.3537(7) 0.5972(2)
O8 O 0.9208(6) 0.5472(6) 0.5530(3)
O9 O 0.8425(3) 0.1322(6) 0.8237(2)
H7 H 0.8806 0.1256 0.8606
H8 H 0.8322 0.0229 0.8097
S1 S 0.49060(14) -0.1203(3) 0.41585(7)
S2 S 0.64251(16) -0.2223(2) 0.46543(7)
Cd1A Cd 1.04621(3) -0.20526(5) 0.737166(16)
Cd1B Cd 1.04621(3) -0.29474(5) 0.237166(16)
Cd1C Cd 0.95379(3) 0.20526(5) 0.262834(16)
O1B O 1.1341(4) 0.0508(6) 0.77362(17)
O1C O 0.8659(4) 0.5508(6) 0.72638(17)
O2B O 1.1538(4) 0.3224(5) 0.7398(2)
O6A O 0.9956(4) 0.4377(6) 0.85132(16)
loop_
_geom_bond_atom_site_label_1
_geom_bond_atom_site_label_2
_geom_bond_site_symmetry_1
_geom_bond_site_symmetry_2
Cd1 O5 1_555 1_555
C1 C2 1_555 1_555
C2 C3 1_555 1_555
C3 C4 1_555 1_555
C4 H1 1_555 1_555
C5 C4 1_555 1_555
H2 C5 1_555 1_555
C6 C5 1_555 1_555
C7 C2 1_555 1_555
H3 C7 1_555 1_555
C8 C9 1_555 1_555
C9 C10 1_555 1_555
C10 H4 1_555 1_555
C11 C10 1_555 1_555
C12 C11 1_555 1_555
H5 C12 1_555 1_555
C13 C12 1_555 1_555
H6 C13 1_555 1_555
C14 C9 1_555 1_555
N1 C3 1_555 1_555
N2 C14 1_555 1_555
O1 C1 1_555 1_555
O2 C1 1_555 1_555
O3 N1 1_555 1_555
O4 N1 1_555 1_555
O5 C8 1_555 1_555
O6 C8 1_555 1_555
O7 N2 1_555 1_555
O8 N2 1_555 1_555
O9 Cd1 1_555 1_555
H7 O9 1_555 1_555
H8 O9 1_555 1_555
S1 C6 1_555 1_555
S2 C11 1_555 1_555
Cd1A O6 1_555 1_555
Cd1B O1 1_555 1_555
Cd1C O1 1_555 1_555
O1B Cd1 1_555 1_555
O1C Cd1 1_555 1_555
O2B Cd1 1_555 1_555
O6A Cd1 1_555 1_555
C6 C7 1_555 1_555
C13 C14 1_555 1_555
O2 Cd1B 1_555 1_555
S1 S2 1_555 1_555
Cd1A O1B 1_555 1_555

#END
