
#######################################################################
#
#                 Cambridge Crystallographic Data Centre
#                                CCDC 
#
#######################################################################
#
# If this CIF has been generated from an entry in the Cambridge 
# Structural Database, then it will include bibliographic, chemical, 
# crystal, experimental, refinement or atomic coordinate data resulting 
# from the CCDC's data processing and validation procedures.
#
#######################################################################

data_KEVLEE
_symmetry_cell_setting           orthorhombic
_symmetry_space_group_name_H-M   'F d d 2'
_symmetry_Int_Tables_number      43
_space_group_name_Hall           'F 2 -2d'
loop_
_symmetry_equiv_pos_site_id
_symmetry_equiv_pos_as_xyz
1 x,y,z
2 -x,-y,z
3 1/4-x,1/4+y,1/4+z
4 3/4+x,3/4-y,1/4+z
5 x,1/2+y,1/2+z
6 -x,1/2-y,1/2+z
7 1/4-x,3/4+y,3/4+z
8 3/4+x,1/4-y,3/4+z
9 1/2+x,y,1/2+z
10 1/2-x,-y,1/2+z
11 3/4-x,1/4+y,3/4+z
12 1/4+x,3/4-y,3/4+z
13 1/2+x,1/2+y,z
14 1/2-x,1/2-y,z
15 3/4-x,3/4+y,1/4+z
16 1/4+x,1/4-y,1/4+z
_cell_length_a                   18.50490(10)
_cell_length_b                   23.8735(2)
_cell_length_c                   9.31560(10)
_cell_angle_alpha                90
_cell_angle_beta                 90
_cell_angle_gamma                90
_cell_volume                     4115.42
loop_
_atom_site_label
_atom_site_type_symbol
_atom_site_fract_x
_atom_site_fract_y
_atom_site_fract_z
Zn1 Zn 0.045857(17) 0.314894(14) 0.70762(5)
N1 N -0.00210(14) 0.30293(11) 0.5186(3)
C1 C -0.01159(15) 0.25280(13) 0.4593(4)
H1 H -0.0021 0.2194 0.5071
N2 N -0.03582(14) 0.25496(11) 0.3262(3)
C2 C -0.04229(19) 0.31068(14) 0.2970(4)
H2 H -0.0584 0.3259 0.2108
C3 C -0.02146(18) 0.34013(13) 0.4139(4)
H3 H -0.0205 0.3790 0.4218
N3 N -0.00723(13) 0.37203(10) 0.8223(3)
C4 C -0.07818(15) 0.38148(12) 0.8168(3)
H4 H -0.1081 0.3669 0.7459
N4 N -0.10185(12) 0.41396(10) 0.9232(3)
C5 C -0.04194(16) 0.42651(13) 1.0033(4)
H5 H -0.0407 0.4489 1.0849
C6 C 0.01550(15) 0.40023(13) 0.9417(4)
H6 H 0.0628 0.4013 0.9756
Zn1C Zn -0.204143(17) 0.435106(14) 0.95762(5)
Zn1E Zn -0.045857(17) 0.185106(14) 0.20762(5)
N2E N 0.03582(14) 0.24504(11) 0.8262(3)
N4K N 0.14815(12) 0.33604(10) 0.6732(3)
N5 N 0.0000 0.5000 1.3371(6)
C7 C -0.0593(3) 0.5011(2) 1.4095(8)
H7 H -0.1027 0.5022 1.3592
C8 C -0.0620(4) 0.5009(2) 1.5533(9)
H8 H -0.1061 0.5013 1.6010
C9 C 0.0000 0.5000 1.6267(7)
H9 H 0.0000 0.5000 1.7266
C7A C 0.0593(3) 0.4989(2) 1.4095(8)
H7A H 0.1027 0.4978 1.3592
C8A C 0.0620(4) 0.4991(2) 1.5533(9)
H8A H 0.1061 0.4987 1.6010
loop_
_geom_bond_atom_site_label_1
_geom_bond_atom_site_label_2
_geom_bond_site_symmetry_1
_geom_bond_site_symmetry_2
Zn1 N1 1_555 1_555
N1 C1 1_555 1_555
C1 H1 1_555 1_555
N2 C1 1_555 1_555
C2 N2 1_555 1_555
H2 C2 1_555 1_555
C3 N1 1_555 1_555
H3 C3 1_555 1_555
N3 Zn1 1_555 1_555
C4 N3 1_555 1_555
H4 C4 1_555 1_555
N4 C4 1_555 1_555
C5 N4 1_555 1_555
H5 C5 1_555 1_555
C6 N3 1_555 1_555
H6 C6 1_555 1_555
N5 C7 1_555 1_555
C7 H7 1_555 1_555
C8 C7 1_555 1_555
H8 C8 1_555 1_555
C9 C8 1_555 1_555
H9 C9 1_555 1_555
Zn1C N4 1_555 1_555
Zn1E N2 1_555 1_555
N2E Zn1 1_555 1_555
N4K Zn1 1_555 1_555
C7A N5 1_555 1_555
H7A C7A 1_555 1_555
C8A C9 1_555 1_555
H8A C8A 1_555 1_555
C2 C3 1_555 1_555
C5 C6 1_555 1_555
C7A C8A 1_555 1_555

#END
