
#######################################################################
#
#                 Cambridge Crystallographic Data Centre
#                                CCDC 
#
#######################################################################
#
# If this CIF has been generated from an entry in the Cambridge 
# Structural Database, then it will include bibliographic, chemical, 
# crystal, experimental, refinement or atomic coordinate data resulting 
# from the CCDC's data processing and validation procedures.
#
#######################################################################

data_KEVPOR
_symmetry_cell_setting           monoclinic
_symmetry_space_group_name_H-M   'P 21/n'
_symmetry_Int_Tables_number      14
_space_group_name_Hall           '-P 2yn'
loop_
_symmetry_equiv_pos_site_id
_symmetry_equiv_pos_as_xyz
1 x,y,z
2 1/2-x,1/2+y,1/2-z
3 -x,-y,-z
4 1/2+x,1/2-y,1/2+z
_cell_length_a                   9.7401(10)
_cell_length_b                   26.058(3)
_cell_length_c                   14.5777(14)
_cell_angle_alpha                90
_cell_angle_beta                 96.108(2)
_cell_angle_gamma                90
_cell_volume                     3678.93
loop_
_atom_site_label
_atom_site_type_symbol
_atom_site_fract_x
_atom_site_fract_y
_atom_site_fract_z
Tb1 Tb 0.75134(13) 0.50816(5) 0.49004(8)
O1 O 0.597(2) 0.5509(8) 0.3860(15)
O2 O 0.386(2) 0.5347(8) 0.4150(15)
O3 O 0.639(2) 0.4322(7) 0.4055(14)
O4 O 0.837(2) 0.4190(7) 0.4888(14)
O5 O 0.856(2) 0.5022(9) 0.3535(15)
O6 O 1.080(2) 0.4946(8) 0.3907(14)
O7 O 0.650(2) 0.5728(9) 0.5849(15)
H1 H 0.70(3) 0.582(13) 0.633(14)
H2 H 0.565(12) 0.566(13) 0.59(2)
O8 O 0.879(2) 0.5875(8) 0.4793(18)
H3 H 0.85(3) 0.619(12) 0.47(2)
H4 H 0.966(10) 0.585(13) 0.49(2)
C1 C 0.471(3) 0.5592(10) 0.3757(18)
C2 C 0.422(3) 0.6013(10) 0.3108(18)
C3 C 0.286(3) 0.6184(13) 0.306(2)
H5 H 0.2250 0.6033 0.3421
C4 C 0.242(4) 0.6580(15) 0.246(3)
H6 H 0.1511 0.6692 0.2437
C5 C 0.329(4) 0.6810(14) 0.191(2)
C6 C 0.464(4) 0.6644(13) 0.197(2)
H7 H 0.5254 0.6800 0.1609
C7 C 0.511(3) 0.6250(12) 0.256(2)
H8 H 0.6026 0.6144 0.2590
C8 C 0.283(6) 0.7233(17) 0.125(3)
H9 H 0.2095 0.7422 0.1483
H10 H 0.2502 0.7088 0.0659
H11 H 0.3588 0.7459 0.1179
C9 C 0.732(3) 0.4023(11) 0.439(2)
C10 C 0.718(3) 0.3459(11) 0.423(2)
C11 C 0.813(3) 0.3118(12) 0.467(2)
H12 H 0.8871 0.3240 0.5068
C12 C 0.797(4) 0.2595(13) 0.452(3)
H13 H 0.8614 0.2370 0.4820
C13 C 0.690(4) 0.2400(13) 0.394(3)
C14 C 0.597(4) 0.2742(13) 0.349(3)
H14 H 0.5241 0.2618 0.3091
C15 C 0.610(3) 0.3264(12) 0.363(2)
H15 H 0.5463 0.3487 0.3326
C16 C 0.671(5) 0.1831(14) 0.380(4)
H16 H 0.7444 0.1650 0.4152
H17 H 0.6729 0.1752 0.3154
H18 H 0.5841 0.1728 0.3989
C17 C 0.978(3) 0.5043(10) 0.3347(18)
C18 C 1.000(3) 0.5202(11) 0.2385(19)
C19 C 0.892(4) 0.5400(13) 0.180(2)
H19 H 0.8040 0.5415 0.1985
C20 C 0.916(5) 0.5575(13) 0.093(2)
H20 H 0.8428 0.5710 0.0539
C21 C 1.045(5) 0.5554(14) 0.063(2)
C22 C 1.151(4) 0.5341(16) 0.122(3)
H21 H 1.2385 0.5316 0.1025
C23 C 1.128(4) 0.5165(14) 0.207(2)
H22 H 1.2003 0.5018 0.2451
C24 C 1.071(6) 0.5777(17) -0.031(3)
H23 H 1.1106 0.6113 -0.0223
H24 H 0.9852 0.5800 -0.0698
H25 H 1.1335 0.5558 -0.0593
Tb1B Tb 0.24866(13) 0.49184(5) 0.50996(8)
Tb1B_2 Tb 1.24866(13) 0.49184(5) 0.50996(8)
O1B O 0.403(2) 0.4491(8) 0.6140(15)
O2B O 0.614(2) 0.4653(8) 0.5850(15)
O3B O 0.361(2) 0.5678(7) 0.5945(14)
O4B O 0.163(2) 0.5810(7) 0.5112(14)
O5B O 1.144(2) 0.4978(9) 0.6465(15)
O5B_2 O 0.144(2) 0.4978(9) 0.6465(15)
O6B O 0.920(2) 0.5054(8) 0.6093(14)
O6_2 O 0.080(2) 0.4946(8) 0.3907(14)
O7B O 0.350(2) 0.4272(9) 0.4151(15)
H1B H 0.30(3) 0.418(13) 0.367(14)
H2B H 0.435(12) 0.434(13) 0.41(2)
O8B O 0.121(2) 0.4125(8) 0.5207(18)
H3B H 0.15(3) 0.381(12) 0.53(2)
H4B H 0.034(10) 0.415(13) 0.51(2)
C1B C 0.529(3) 0.4408(10) 0.6243(18)
C2B C 0.578(3) 0.3987(10) 0.6892(18)
C3B C 0.714(3) 0.3816(13) 0.694(2)
H5B H 0.7750 0.3967 0.6579
C4B C 0.758(4) 0.3420(15) 0.754(3)
H6B H 0.8489 0.3308 0.7563
C5B C 0.671(4) 0.3190(14) 0.809(2)
C6B C 0.536(4) 0.3356(13) 0.803(2)
H7B H 0.4746 0.3200 0.8391
C7B C 0.489(3) 0.3750(12) 0.744(2)
H8B H 0.3974 0.3856 0.7410
C8B C 0.717(6) 0.2767(17) 0.875(3)
H9B H 0.7905 0.2578 0.8517
H10B H 0.7498 0.2912 0.9341
H11B H 0.6412 0.2541 0.8821
C9B C 0.268(3) 0.5977(11) 0.561(2)
C10B C 0.282(3) 0.6541(11) 0.577(2)
C11B C 0.187(3) 0.6882(12) 0.533(2)
H12B H 0.1129 0.6760 0.4932
C12B C 0.203(4) 0.7405(13) 0.548(3)
H13B H 0.1386 0.7630 0.5180
C13B C 0.310(4) 0.7600(13) 0.606(3)
C14B C 0.403(4) 0.7258(13) 0.651(3)
H14B H 0.4759 0.7382 0.6909
C15B C 0.390(3) 0.6736(12) 0.637(2)
H15B H 0.4537 0.6513 0.6674
C16B C 0.329(5) 0.8169(14) 0.620(4)
H16B H 0.2556 0.8350 0.5848
H17B H 0.3271 0.8248 0.6846
H18B H 0.4159 0.8272 0.6011
C17B C 1.022(3) 0.4957(10) 0.6653(18)
C18B C 1.000(3) 0.4798(11) 0.7615(19)
C19B C 1.108(4) 0.4600(13) 0.820(2)
H19B H 1.1960 0.4585 0.8015
C20B C 1.084(5) 0.4425(13) 0.907(2)
H20B H 1.1572 0.4290 0.9461
C21B C 0.955(5) 0.4446(14) 0.937(2)
C22B C 0.849(4) 0.4659(16) 0.878(3)
H21B H 0.7615 0.4684 0.8975
C23B C 0.872(4) 0.4835(14) 0.793(2)
H22B H 0.7997 0.4982 0.7549
C24B C 0.929(6) 0.4223(17) 1.031(3)
H23B H 0.8894 0.3887 1.0223
H24B H 1.0148 0.4200 1.0698
H25B H 0.8665 0.4442 1.0593
C25 C 0.430(3) 0.5615(13) 0.8197(13)
H26 H 0.4103 0.5579 0.7561
C26 C 0.457(3) 0.5184(10) 0.8747(17)
H27 H 0.4556 0.4860 0.8481
C27 C 0.486(3) 0.5238(9) 0.9697(16)
C28 C 0.488(3) 0.5723(11) 1.0095(14)
H28 H 0.5077 0.5759 1.0731
C29 C 0.461(3) 0.6154(8) 0.954(2)
H29 H 0.4624 0.6478 0.9811
N1 N 0.432(3) 0.6100(11) 0.860(2)
C25B C 0.570(3) 0.4385(13) 1.1803(13)
H26B H 0.5897 0.4421 1.2439
C26B C 0.543(3) 0.4816(10) 1.1253(17)
H27B H 0.5444 0.5140 1.1519
C27B C 0.514(3) 0.4762(9) 1.0303(16)
C28B C 0.512(3) 0.4277(11) 0.9905(14)
H28B H 0.4923 0.4241 0.9269
C29B C 0.539(3) 0.3846(8) 1.046(2)
H29B H 0.5376 0.3522 1.0189
N1B N 0.568(3) 0.3900(11) 1.140(2)
N2 N 0.307(4) 0.8722(12) 0.228(2)
N3 N 0.767(3) 0.6856(11) 0.439(2)
C30 C 0.269(4) 0.8409(17) 0.292(3)
H30 H 0.1781 0.8422 0.3058
C31 C 0.357(4) 0.8060(15) 0.340(3)
H31 H 0.3251 0.7854 0.3848
C32 C 0.491(3) 0.8019(12) 0.320(2)
C33 C 0.531(4) 0.8360(14) 0.255(3)
H32 H 0.6214 0.8361 0.2411
C34 C 0.436(5) 0.8696(16) 0.212(3)
H33 H 0.4663 0.8919 0.1685
C35 C 0.588(3) 0.7630(11) 0.365(2)
C36 C 0.727(4) 0.7635(14) 0.354(3)
H34 H 0.7642 0.7902 0.3222
C37 C 0.811(4) 0.7245(16) 0.391(3)
H35 H 0.9037 0.7252 0.3810
C38 C 0.636(4) 0.6863(13) 0.453(2)
H36 H 0.6036 0.6601 0.4879
C39 C 0.545(4) 0.7235(12) 0.418(2)
H37 H 0.4529 0.7220 0.4304
loop_
_geom_bond_atom_site_label_1
_geom_bond_atom_site_label_2
_geom_bond_site_symmetry_1
_geom_bond_site_symmetry_2
Tb1 O1 1_555 1_555
O1 C1 1_555 1_555
O2 C1 1_555 1_555
O3 Tb1 1_555 1_555
O4 Tb1 1_555 1_555
O5 Tb1 1_555 1_555
O6 C17 1_555 1_555
O7 Tb1 1_555 1_555
H1 O7 1_555 1_555
H2 O7 1_555 1_555
O8 Tb1 1_555 1_555
H3 O8 1_555 1_555
H4 O8 1_555 1_555
C1 C2 1_555 1_555
C2 C3 1_555 1_555
C3 H5 1_555 1_555
C4 C3 1_555 1_555
H6 C4 1_555 1_555
C5 C4 1_555 1_555
C6 C5 1_555 1_555
H7 C6 1_555 1_555
C7 C2 1_555 1_555
H8 C7 1_555 1_555
C8 C5 1_555 1_555
H9 C8 1_555 1_555
H10 C8 1_555 1_555
H11 C8 1_555 1_555
C9 O3 1_555 1_555
C10 C9 1_555 1_555
C11 C10 1_555 1_555
H12 C11 1_555 1_555
C12 C11 1_555 1_555
H13 C12 1_555 1_555
C13 C12 1_555 1_555
C14 C13 1_555 1_555
H14 C14 1_555 1_555
C15 C10 1_555 1_555
H15 C15 1_555 1_555
C16 C13 1_555 1_555
H16 C16 1_555 1_555
H17 C16 1_555 1_555
H18 C16 1_555 1_555
C17 O5 1_555 1_555
C18 C17 1_555 1_555
C19 C18 1_555 1_555
H19 C19 1_555 1_555
C20 C19 1_555 1_555
H20 C20 1_555 1_555
C21 C20 1_555 1_555
C22 C21 1_555 1_555
H21 C22 1_555 1_555
C23 C18 1_555 1_555
H22 C23 1_555 1_555
C24 C21 1_555 1_555
H23 C24 1_555 1_555
H24 C24 1_555 1_555
H25 C24 1_555 1_555
C25 H26 1_555 1_555
C26 C25 1_555 1_555
H27 C26 1_555 1_555
C27 C26 1_555 1_555
C28 C27 1_555 1_555
H28 C28 1_555 1_555
C29 C28 1_555 1_555
H29 C29 1_555 1_555
N1 C25 1_555 1_555
N2 C30 1_555 1_555
N3 C37 1_555 1_555
C30 H30 1_555 1_555
C31 C30 1_555 1_555
H31 C31 1_555 1_555
C32 C31 1_555 1_555
C33 C32 1_555 1_555
H32 C33 1_555 1_555
C34 N2 1_555 1_555
H33 C34 1_555 1_555
C35 C32 1_555 1_555
C36 C35 1_555 1_555
H34 C36 1_555 1_555
C37 C36 1_555 1_555
H35 C37 1_555 1_555
C38 N3 1_555 1_555
H36 C38 1_555 1_555
C39 C35 1_555 1_555
H37 C39 1_555 1_555
Tb1B O2 1_555 1_555
Tb1B_2 O6 1_555 1_555
O1B Tb1B 1_555 1_555
O2B Tb1 1_555 1_555
O3B Tb1B 1_555 1_555
O4B Tb1B 1_555 1_555
O5B Tb1B_2 1_555 1_555
O5B_2 Tb1B 1_555 1_555
O6B Tb1 1_555 1_555
O6_2 Tb1B 1_555 1_555
O7B Tb1B 1_555 1_555
H1B O7B 1_555 1_555
H2B O7B 1_555 1_555
O8B Tb1B 1_555 1_555
H3B O8B 1_555 1_555
H4B O8B 1_555 1_555
C1B O1B 1_555 1_555
C2B C1B 1_555 1_555
C3B C2B 1_555 1_555
H5B C3B 1_555 1_555
C4B C3B 1_555 1_555
H6B C4B 1_555 1_555
C5B C4B 1_555 1_555
C6B C5B 1_555 1_555
H7B C6B 1_555 1_555
C7B C2B 1_555 1_555
H8B C7B 1_555 1_555
C8B C5B 1_555 1_555
H9B C8B 1_555 1_555
H10B C8B 1_555 1_555
H11B C8B 1_555 1_555
C9B O3B 1_555 1_555
C10B C9B 1_555 1_555
C11B C10B 1_555 1_555
H12B C11B 1_555 1_555
C12B C11B 1_555 1_555
H13B C12B 1_555 1_555
C13B C12B 1_555 1_555
C14B C13B 1_555 1_555
H14B C14B 1_555 1_555
C15B C10B 1_555 1_555
H15B C15B 1_555 1_555
C16B C13B 1_555 1_555
H16B C16B 1_555 1_555
H17B C16B 1_555 1_555
H18B C16B 1_555 1_555
C17B O5B 1_555 1_555
C18B C17B 1_555 1_555
C19B C18B 1_555 1_555
H19B C19B 1_555 1_555
C20B C19B 1_555 1_555
H20B C20B 1_555 1_555
C21B C20B 1_555 1_555
C22B C21B 1_555 1_555
H21B C22B 1_555 1_555
C23B C18B 1_555 1_555
H22B C23B 1_555 1_555
C24B C21B 1_555 1_555
H23B C24B 1_555 1_555
H24B C24B 1_555 1_555
H25B C24B 1_555 1_555
C25B H26B 1_555 1_555
C26B C25B 1_555 1_555
H27B C26B 1_555 1_555
C27B C27 1_555 1_555
C28B C27B 1_555 1_555
H28B C28B 1_555 1_555
C29B C28B 1_555 1_555
H29B C29B 1_555 1_555
N1B C25B 1_555 1_555
O4 C9 1_555 1_555
C6 C7 1_555 1_555
C14 C15 1_555 1_555
C22 C23 1_555 1_555
C29 N1 1_555 1_555
C33 C34 1_555 1_555
C38 C39 1_555 1_555
O2B C1B 1_555 1_555
O4B C9B 1_555 1_555
O6B C17B 1_555 1_555
C6B C7B 1_555 1_555
C14B C15B 1_555 1_555
C22B C23B 1_555 1_555
C26B C27B 1_555 1_555
C29B N1B 1_555 1_555

#END
