
#######################################################################
#
#                 Cambridge Crystallographic Data Centre
#                                CCDC 
#
#######################################################################
#
# If this CIF has been generated from an entry in the Cambridge 
# Structural Database, then it will include bibliographic, chemical, 
# crystal, experimental, refinement or atomic coordinate data resulting 
# from the CCDC's data processing and validation procedures.
#
#######################################################################

data_KEVPEH
_symmetry_cell_setting           orthorhombic
_symmetry_space_group_name_H-M   'C 2 2 21'
_symmetry_Int_Tables_number      20
_space_group_name_Hall           'C 2n 2'
loop_
_symmetry_equiv_pos_site_id
_symmetry_equiv_pos_as_xyz
1 x,y,z
2 x,-y,-z
3 -x,-y,1/2+z
4 -x,y,1/2-z
5 1/2+x,1/2+y,z
6 1/2+x,1/2-y,-z
7 1/2-x,1/2-y,1/2+z
8 1/2-x,1/2+y,1/2-z
_cell_length_a                   10.8984(8)
_cell_length_b                   11.4260(6)
_cell_length_c                   15.059(1)
_cell_angle_alpha                90
_cell_angle_beta                 90
_cell_angle_gamma                90
_cell_volume                     1875.22
loop_
_atom_site_label
_atom_site_type_symbol
_atom_site_fract_x
_atom_site_fract_y
_atom_site_fract_z
Ca1 Ca 0.20585(7) 0.0000 0.5000
O1 O 0.5000 0.1382(2) 0.2500
O2 O 0.3328(2) 0.2513(2) 0.2077(1)
O3 O 0.3754(2) 0.0837(2) 0.4132(1)
O4 O 0.1703(2) -0.0189(2) 0.3394(1)
O5 O 0.1694(2) -0.0177(2) 0.1398(1)
O6 O -0.0066(3) 0.0000 0.5000
O7 O 0.3170(2) 0.2950(2) 0.0241(1)
C1 C 0.3166(2) 0.1303(2) 0.3357(2)
C2 C 0.2889(3) 0.1618(2) 0.1475(2)
C3 C 0.2011(2) 0.0788(2) 0.1959(2)
C4 C 0.2596(2) 0.0335(2) 0.2814(2)
C5 C 0.2291(3) 0.2253(3) 0.0708(2)
C6 C 0.4005(2) 0.2063(2) 0.2803(2)
H1 H 0.2519 0.1790 0.3561
H2 H 0.3566 0.1180 0.1256
H3 H 0.1278 0.1208 0.2106
H4 H 0.3210 -0.0228 0.2667
H5 H 0.4304 0.2695 0.3155
H6 H 0.1651 0.2747 0.0931
H7 H 0.1936 0.1697 0.0312
Ca1F Ca 0.29415(7) 0.5000 0.0000
Ca1B Ca 0.79415(7) 0.0000 0.0000
Ca1D Ca 0.70585(7) 0.5000 0.5000
O2C O 0.6672(2) 0.2513(2) 0.2923(1)
O3C O 0.6246(2) 0.0837(2) 0.0868(1)
O3A O 0.3754(2) -0.0837(2) 0.5868(1)
O4C O 0.8297(2) -0.0189(2) 0.1606(1)
O4A O 0.1703(2) 0.0189(2) 0.6606(1)
O5C O 0.8306(2) -0.0177(2) 0.3602(1)
O7C O 0.6830(2) 0.2950(2) 0.4759(1)
O7F O 0.1830(2) 0.2050(2) 0.5241(1)
O7G O 0.1830(2) -0.2050(2) 0.4759(1)
C1C C 0.6834(2) 0.1303(2) 0.1643(2)
C2C C 0.7111(3) 0.1618(2) 0.3525(2)
C3C C 0.7989(2) 0.0788(2) 0.3041(2)
C4C C 0.7404(2) 0.0335(2) 0.2186(2)
C5C C 0.7709(3) 0.2253(3) 0.4292(2)
C6C C 0.5995(2) 0.2063(2) 0.2197(2)
H1C H 0.7481 0.1790 0.1439
H2C H 0.6434 0.1180 0.3744
H3C H 0.8722 0.1208 0.2894
H4C H 0.6790 -0.0228 0.2333
H5C H 0.5696 0.2695 0.1845
H6C H 0.8349 0.2747 0.4069
H7C H 0.8064 0.1697 0.4688
Cl1 Cl 0.07135(8) 0.37525(8) 0.39213(7)
loop_
_geom_bond_atom_site_label_1
_geom_bond_atom_site_label_2
_geom_bond_site_symmetry_1
_geom_bond_site_symmetry_2
Ca1 O3 1_555 1_555
O1 C6 1_555 1_555
O2 C2 1_555 1_555
O3 C1 1_555 1_555
O4 Ca1 1_555 1_555
O5 C3 1_555 1_555
O6 Ca1 1_555 1_555
O7 C5 1_555 1_555
C1 C4 1_555 1_555
C2 C3 1_555 1_555
C3 C4 1_555 1_555
C4 O4 1_555 1_555
C5 C2 1_555 1_555
C6 O2 1_555 1_555
H1 C1 1_555 1_555
H2 C2 1_555 1_555
H3 C3 1_555 1_555
H4 C4 1_555 1_555
H5 C6 1_555 1_555
H6 C5 1_555 1_555
H7 C5 1_555 1_555
Ca1F O7 1_555 1_555
Ca1B O3C 1_555 1_555
Ca1D O7C 1_555 1_555
O2C C2C 1_555 1_555
O3C C1C 1_555 1_555
O3A Ca1 1_555 1_555
O4C Ca1B 1_555 1_555
O4A Ca1 1_555 1_555
O5C C3C 1_555 1_555
O7C C5C 1_555 1_555
O7F Ca1 1_555 1_555
O7G Ca1 1_555 1_555
C1C C4C 1_555 1_555
C2C C3C 1_555 1_555
C3C C4C 1_555 1_555
C4C O4C 1_555 1_555
C5C C2C 1_555 1_555
C6C O1 1_555 1_555
H1C C1C 1_555 1_555
H2C C2C 1_555 1_555
H3C C3C 1_555 1_555
H4C C4C 1_555 1_555
H5C C6C 1_555 1_555
H6C C5C 1_555 1_555
H7C C5C 1_555 1_555
C1 C6 1_555 1_555
O2C C6C 1_555 1_555
C1C C6C 1_555 1_555

#END
