
#######################################################################
#
#                 Cambridge Crystallographic Data Centre
#                                CCDC 
#
#######################################################################
#
# If this CIF has been generated from an entry in the Cambridge 
# Structural Database, then it will include bibliographic, chemical, 
# crystal, experimental, refinement or atomic coordinate data resulting 
# from the CCDC's data processing and validation procedures.
#
#######################################################################

data_KEVRAF
_symmetry_cell_setting           monoclinic
_symmetry_space_group_name_H-M   'P 21/c'
_symmetry_Int_Tables_number      14
_space_group_name_Hall           '-P 2ybc'
loop_
_symmetry_equiv_pos_site_id
_symmetry_equiv_pos_as_xyz
1 x,y,z
2 -x,1/2+y,1/2-z
3 -x,-y,-z
4 x,1/2-y,1/2+z
_cell_length_a                   8.1449(9)
_cell_length_b                   10.6519(11)
_cell_length_c                   14.6161(15)
_cell_angle_alpha                90
_cell_angle_beta                 90.107(2)
_cell_angle_gamma                90
_cell_volume                     1268.07
loop_
_atom_site_label
_atom_site_type_symbol
_atom_site_fract_x
_atom_site_fract_y
_atom_site_fract_z
I1 I 0.21695(7) 0.44909(6) 0.08452(4)
Cu1 Cu 0.03398(13) 0.63316(11) 0.00957(7)
S1 S 0.1946(3) 0.7612(2) -0.08228(14)
S2 S 1.0121(3) 0.7513(2) -0.35442(15)
O1 O 0.4538(8) 0.5441(6) -0.3078(4)
N1 N 0.6331(8) 0.7022(6) -0.3385(5)
C1 C 0.3634(10) 0.8005(9) -0.0091(6)
H1 H 0.4131 0.7234 0.0148
H2 H 0.3240 0.8520 0.0419
H3 H 0.4455 0.8477 -0.0439
C2 C 0.2992(10) 0.6614(8) -0.1644(6)
H4 H 0.3586 0.5942 -0.1313
H5 H 0.2168 0.6211 -0.2048
C3 C 0.4202(10) 0.7350(8) -0.2227(5)
H6 H 0.3615 0.8034 -0.2549
H7 H 0.5045 0.7735 -0.1827
C4 C 0.5031(10) 0.6507(8) -0.2923(6)
C5 C 0.7264(10) 0.6257(8) -0.4027(6)
H8 H 0.7282 0.6675 -0.4632
H9 H 0.6721 0.5432 -0.4100
C6 C 0.9000(11) 0.6064(8) -0.3696(6)
H10 H 0.9591 0.5532 -0.4143
H11 H 0.8973 0.5608 -0.3106
C7 C 0.8620(11) 0.8306(9) -0.2833(6)
H12 H 0.8570 0.7885 -0.2229
H13 H 0.8974 0.9184 -0.2732
C8 C 0.6924(10) 0.8302(8) -0.3262(6)
H14 H 0.6154 0.8771 -0.2865
H15 H 0.6965 0.8730 -0.3863
I1B I -0.21695(7) 0.55091(6) -0.08452(4)
Cu1B Cu -0.03398(13) 0.36684(11) -0.00957(7)
Cu1C Cu 1.03398(13) 0.86684(11) -0.49043(7)
S2C S 0.0121(3) 0.7487(2) 0.14558(15)
loop_
_geom_bond_atom_site_label_1
_geom_bond_atom_site_label_2
_geom_bond_site_symmetry_1
_geom_bond_site_symmetry_2
I1 Cu1 1_555 1_555
Cu1 S1 1_555 1_555
S1 C1 1_555 1_555
S2 C6 1_555 1_555
O1 C4 1_555 1_555
N1 C4 1_555 1_555
C1 H1 1_555 1_555
H2 C1 1_555 1_555
H3 C1 1_555 1_555
C2 S1 1_555 1_555
H4 C2 1_555 1_555
H5 C2 1_555 1_555
C3 C2 1_555 1_555
H6 C3 1_555 1_555
H7 C3 1_555 1_555
C4 C3 1_555 1_555
C5 N1 1_555 1_555
H8 C5 1_555 1_555
H9 C5 1_555 1_555
C6 C5 1_555 1_555
H10 C6 1_555 1_555
H11 C6 1_555 1_555
C7 S2 1_555 1_555
H12 C7 1_555 1_555
H13 C7 1_555 1_555
C8 N1 1_555 1_555
H14 C8 1_555 1_555
H15 C8 1_555 1_555
I1B Cu1 1_555 1_555
Cu1B I1 1_555 1_555
Cu1C S2 1_555 1_555
S2C Cu1 1_555 1_555
C7 C8 1_555 1_555
I1B Cu1B 1_555 1_555

#END
