
#######################################################################
#
#                 Cambridge Crystallographic Data Centre
#                                CCDC 
#
#######################################################################
#
# If this CIF has been generated from an entry in the Cambridge 
# Structural Database, then it will include bibliographic, chemical, 
# crystal, experimental, refinement or atomic coordinate data resulting 
# from the CCDC's data processing and validation procedures.
#
#######################################################################

data_KEVVIS
_symmetry_cell_setting           monoclinic
_symmetry_space_group_name_H-M   'P 21'
_symmetry_Int_Tables_number      4
_space_group_name_Hall           'P 2yb'
loop_
_symmetry_equiv_pos_site_id
_symmetry_equiv_pos_as_xyz
1 x,y,z
2 -x,1/2+y,-z
_cell_length_a                   14.275(4)
_cell_length_b                   12.484(3)
_cell_length_c                   22.272(4)
_cell_angle_alpha                90
_cell_angle_beta                 92.713(17)
_cell_angle_gamma                90
_cell_volume                     3964.62
loop_
_atom_site_label
_atom_site_type_symbol
_atom_site_fract_x
_atom_site_fract_y
_atom_site_fract_z
Co1 Co -0.18964(13) 0.27208(16) 0.77165(8)
Co2 Co -0.00026(15) 0.4496(3) 0.75125(10)
Co3 Co -0.19152(13) 1.12217(16) 0.27368(9)
C1 C -0.1716(9) 0.9939(14) 1.1619(6)
C2 C -0.2258(9) 0.9471(14) 1.1084(5)
C3 C -0.2983(9) 0.9994(14) 1.0803(5)
H1 H -0.3125 1.0674 1.0944
C4 C -0.3535(9) 0.9600(16) 1.0321(6)
H2 H -0.4015 1.0011 1.0142
C5 C -0.3350(9) 0.8579(15) 1.0116(6)
C6 C -0.2618(8) 0.8022(14) 1.0393(6)
H3 H -0.2474 0.7342 1.0254
C7 C -0.2084(10) 0.8457(14) 1.0878(6)
H4 H -0.1605 0.8053 1.1063
C8 C -0.3938(10) 0.7995(17) 0.9614(7)
C9 C -0.3368(9) 0.7230(12) 0.9256(6)
C10 C -0.2484(10) 0.7480(16) 0.9023(6)
H5 H -0.2257 0.8165 0.9108
C11 C -0.1954(10) 0.6883(12) 0.8710(6)
H6 H -0.1378 0.7132 0.8589
C12 C -0.2265(11) 0.5853(18) 0.8557(7)
C13 C -0.3098(10) 0.5550(15) 0.8760(6)
H7 H -0.3312 0.4872 0.8649
C14 C -0.3647(9) 0.6129(17) 0.9105(7)
H8 H -0.4195 0.5839 0.9247
C15 C -0.1714(9) 0.5112(14) 0.8185(6)
C16 C -0.4755(12) 0.754(2) 0.9930(10)
C17 C -0.4323(12) 0.8834(17) 0.9140(8)
C18 C -0.1661(10) 0.4081(13) 0.6628(5)
C19 C -0.2254(9) 0.4522(14) 0.6081(6)
C20 C -0.2992(10) 0.3944(14) 0.5825(6)
H9 H -0.3145 0.3273 0.5974
C21 C -0.3505(10) 0.4390(16) 0.5337(6)
H10 H -0.4019 0.4020 0.5169
C22 C -0.3264(10) 0.5378(15) 0.5095(6)
C23 C -0.2513(10) 0.5980(16) 0.5378(6)
H11 H -0.2382 0.6671 0.5250
C24 C -0.1987(9) 0.5516(15) 0.5845(5)
H12 H -0.1454 0.5861 0.6004
C25 C -0.3892(9) 0.5860(16) 0.4566(6)
C26 C -0.3298(10) 0.6698(18) 0.4197(6)
C27 C -0.2434(10) 0.6329(16) 0.4026(6)
H13 H -0.2207 0.5655 0.4137
C28 C -0.1908(11) 0.7056(19) 0.3665(7)
H14 H -0.1321 0.6848 0.3542
C29 C -0.2254(9) 0.8050(14) 0.3496(6)
C30 C -0.3158(10) 0.8356(18) 0.3668(7)
H15 H -0.3408 0.9017 0.3553
C31 C -0.3672(12) 0.7650(17) 0.4013(8)
H16 H -0.4275 0.7834 0.4117
C32 C -0.1661(11) 0.8822(14) 0.3117(6)
C33 C -0.4263(16) 0.499(2) 0.4103(9)
C34 C -0.4707(14) 0.648(2) 0.4885(10)
C35 C -0.045(2) 0.939(3) 0.5807(8)
C36 C -0.111(2) 1.038(2) 0.5554(8)
H17 H -0.1724 1.0394 0.5736
C37 C -0.1198(13) 1.0400(15) 0.4876(6)
C38 C -0.1237(12) 1.1587(16) 0.4686(6)
C39 C -0.0323(15) 1.195(2) 0.5059(10)
H18 H 0.0238 1.1653 0.4893
H19 H -0.0271 1.2721 0.5079
C40 C -0.0506(19) 1.145(2) 0.5692(8)
H20 H -0.0853 1.1949 0.5931
H21 H 0.0081 1.1280 0.5906
C41 C -0.2270(14) 0.997(3) 0.4778(10)
H22 H -0.2431 0.9918 0.4356
H23 H -0.2689 1.0462 0.4960
H24 H -0.2323 0.9277 0.4960
C42 C -0.0596(18) 0.973(2) 0.4538(8)
H25 H 0.0040 0.9971 0.4591
H26 H -0.0789 0.9756 0.4119
H27 H -0.0638 0.9001 0.4678
C43 C -0.1059(11) 1.1718(15) 0.4000(7)
C44 C -0.2086(14) 1.217(3) 0.4828(8)
H28 H -0.2605 1.1925 0.4576
H29 H -0.1993 1.2926 0.4759
H30 H -0.2217 1.2060 0.5242
C45 C -0.1091(10) 0.2274(15) 0.8989(6)
C46 C -0.1324(10) 0.2421(16) 0.9630(6)
C47 C -0.2347(8) 0.2840(16) 0.9696(5)
H31 H -0.2535 0.3293 0.9357
H32 H -0.2781 0.2245 0.9710
C48 C -0.2345(10) 0.3480(19) 1.0281(7)
H33 H -0.2678 0.3097 1.0585
H34 H -0.2637 0.4175 1.0216
C49 C -0.1253(12) 0.3608(17) 1.0482(7)
H35 H -0.1087 0.3129 1.0819
C50 C -0.0697(10) 0.3328(15) 0.9947(5)
C51 C -0.1219(14) 0.1395(15) 0.9974(7)
H36 H -0.1618 0.0858 0.9789
H37 H -0.1393 0.1508 1.0381
H38 H -0.0578 0.1161 0.9975
C52 C -0.0609(12) 0.4264(18) 0.9496(6)
H39 H -0.0213 0.4811 0.9674
H40 H -0.1219 0.4557 0.9399
H41 H -0.0341 0.4004 0.9137
C53 C 0.0254(9) 0.300(2) 1.0174(6)
H42 H 0.0581 0.3603 1.0345
H43 H 0.0595 0.2715 0.9848
H44 H 0.0200 0.2453 1.0476
C54 C -0.1076(14) 0.495(2) 1.0697(7)
C55 C -0.2391(13) 0.0719(17) 0.6965(8)
H45 H -0.2701 0.1230 0.6725
C56 C -0.2519(11) -0.0326(12) 0.6837(6)
H46 H -0.2937 -0.0510 0.6521
C57 C -0.2076(13) -0.1112(18) 0.7142(9)
C58 C -0.1476(11) -0.0806(13) 0.7574(8)
H47 H -0.1130 -0.1323 0.7788
C59 C -0.1336(11) 0.0310(15) 0.7726(8)
H48 H -0.0902 0.0502 0.8032
C60 C -0.2166(11) -0.2233(15) 0.7039(8)
H49 H -0.1723 -0.2635 0.7295
H50 H -0.2071 -0.2410 0.6622
C61 C -0.3344(11) -0.2491(17) 0.7230(7)
H51 H -0.3395 -0.2543 0.7661
H52 H -0.3766 -0.1938 0.7074
C62 C -0.3544(18) -0.356(3) 0.6924(12)
H53 H -0.3167 -0.4132 0.7103
H54 H -0.3452 -0.3528 0.6496
C63 C -0.4673(9) -0.3681(12) 0.7071(7)
C64 C -0.5257(11) -0.3209(15) 0.6667(7)
H55 H -0.5033 -0.2905 0.6321
C65 C -0.6220(13) -0.318(2) 0.6776(7)
H56 H -0.6611 -0.2812 0.6501
C66 C -0.5993(12) -0.412(2) 0.7589(7)
H57 H -0.6230 -0.4555 0.7886
C67 C -0.5033(10) -0.405(3) 0.7566(7)
H58 H -0.4645 -0.4259 0.7892
C68 C -0.3983(9) 0.3114(16) 0.7418(8)
H59 H -0.3747 0.3557 0.7126
C69 C -0.4931(11) 0.308(2) 0.7465(8)
H60 H -0.5323 0.3524 0.7231
C70 C -0.5289(19) 0.238(3) 0.7859(12)
C71 C -0.4678(13) 0.1752(18) 0.8202(8)
H61 H -0.4900 0.1250 0.8469
C72 C -0.3737(10) 0.188(2) 0.8139(9)
H62 H -0.3325 0.1472 0.8379
C73 C -0.6344(9) 0.2499(14) 0.7989(6)
H63 H -0.6407 0.2741 0.8399
H64 H -0.6634 0.3027 0.7720
C74 C -0.6822(9) 0.1443(18) 0.7899(9)
H65 H -0.6718 0.1241 0.7487
H66 H -0.6461 0.0942 0.8150
C75 C -0.7696(10) 0.1215(16) 0.7980(9)
H67 H -0.8090 0.1697 0.7738
H68 H -0.7824 0.1341 0.8398
C76 C -0.7970(10) 0.0020(15) 0.7813(7)
C77 C -0.8550(12) -0.033(2) 0.7316(8)
H69 H -0.8898 0.0144 0.7076
C78 C -0.8571(14) -0.1387(15) 0.7209(7)
H70 H -0.8926 -0.1608 0.6870
C79 C -0.7627(13) -0.1854(16) 0.8001(8)
H71 H -0.7306 -0.2378 0.8224
C80 C -0.7519(14) -0.081(2) 0.8193(9)
H72 H -0.7177 -0.0639 0.8546
N1 N -0.1819(8) 0.1047(13) 0.7435(6)
N2 N -0.6603(8) -0.3624(12) 0.7227(5)
N3 N -0.3380(9) 0.2562(15) 0.7760(5)
N4 N -0.8134(10) -0.2171(14) 0.7538(5)
O1 O -0.0988(5) 0.9468(10) 1.1785(4)
O2 O -0.2008(7) 1.0771(10) 1.1839(4)
O3 O -0.2114(8) 0.4290(12) 0.7997(5)
O4 O -0.0901(6) 0.5347(11) 0.8079(4)
O5 O -0.0989(6) 0.4643(11) 0.6819(4)
O6 O -0.2001(7) 0.3219(11) 0.6828(5)
O7 O -0.2123(6) 0.9651(10) 0.2965(4)
O8 O -0.0850(7) 0.8567(10) 0.3024(4)
O9 O -0.1750(7) 1.1562(12) 0.3644(4)
O10 O -0.0243(7) 1.1898(10) 0.3819(4)
O11 O -0.0882(13) 0.8580(18) 0.5808(8)
H73 H -0.0536 0.8088 0.5920
O12 O 0.0367(12) 0.9588(17) 0.5965(9)
O13 O -0.1770(7) 0.2299(11) 0.8601(4)
O14 O -0.0256(7) 0.2059(12) 0.8851(4)
O15 O -0.1714(9) 0.5489(14) 1.0564(6)
H74 H -0.1605 0.6107 1.0671
O16 O -0.0378(9) 0.483(2) 1.0965(7)
O17 O -0.0370(6) 0.2854(9) 0.7763(4)
O18 O -0.0402(6) 1.1105(11) 0.2757(4)
F1 F -0.5416(7) 0.7051(11) 0.9544(6)
F2 F -0.5177(7) 0.8127(12) 1.0289(6)
F3 F -0.4428(7) 0.6626(12) 1.0268(5)
F4 F -0.3711(9) 0.9490(13) 0.8977(5)
F5 F -0.4708(8) 0.8378(12) 0.8661(4)
F6 F -0.5054(7) 0.9439(11) 0.9343(5)
F7 F -0.4927(9) 0.4415(14) 0.4315(5)
F8 F -0.4623(8) 0.5497(14) 0.3605(5)
F9 F -0.3570(10) 0.4347(12) 0.3962(5)
F10 F -0.5369(7) 0.6701(14) 0.4446(6)
F11 F -0.4465(9) 0.7268(13) 0.5173(6)
F12 F -0.5160(8) 0.5725(15) 0.5220(6)
Co2A Co 0.00026(15) 0.9496(3) 0.24875(10)
Co2A_2 Co 0.00026(15) 0.9496(3) 1.24875(10)
Co3_2 Co -0.19152(13) 1.12217(16) 1.27368(9)
Co3A Co -0.80848(13) -0.37783(16) 0.72632(9)
N2A N -0.3397(8) 1.1376(12) 0.2773(5)
N4A N -0.1866(10) 1.2829(14) 0.2462(5)
O1A O 0.0988(5) 0.4468(10) 0.8215(4)
O2_2 O -0.2008(7) 1.0771(10) 0.1839(4)
O8A O 0.0850(7) 0.3567(10) 0.6976(4)
O18A O 0.0402(6) 0.6105(11) 0.7243(4)
O19 O 0.0110(15) 0.714(2) 0.8295(10)
H75 H 0.0500 0.6825 0.8081
H76 H 0.0246 0.7752 0.8448
O20? O -0.283(11) 0.03(2) 0.617(8)
H77? H -0.2309 -0.0056 0.6172
H78? H -0.3030 0.0526 0.6493
loop_
_geom_bond_atom_site_label_1
_geom_bond_atom_site_label_2
_geom_bond_site_symmetry_1
_geom_bond_site_symmetry_2
Co1 N1 1_555 1_555
Co2 O4 1_555 1_555
Co3 O7 1_555 1_555
C1 C2 1_555 1_555
C2 C3 1_555 1_555
C3 H1 1_555 1_555
C4 C3 1_555 1_555
H2 C4 1_555 1_555
C5 C4 1_555 1_555
C6 C5 1_555 1_555
H3 C6 1_555 1_555
C7 C2 1_555 1_555
H4 C7 1_555 1_555
C8 C5 1_555 1_555
C9 C8 1_555 1_555
C10 C9 1_555 1_555
H5 C10 1_555 1_555
C11 C10 1_555 1_555
H6 C11 1_555 1_555
C12 C11 1_555 1_555
C13 C12 1_555 1_555
H7 C13 1_555 1_555
C14 C9 1_555 1_555
H8 C14 1_555 1_555
C15 C12 1_555 1_555
C16 C8 1_555 1_555
C17 C8 1_555 1_555
C18 C19 1_555 1_555
C19 C20 1_555 1_555
C20 H9 1_555 1_555
C21 C20 1_555 1_555
H10 C21 1_555 1_555
C22 C21 1_555 1_555
C23 C22 1_555 1_555
H11 C23 1_555 1_555
C24 C19 1_555 1_555
H12 C24 1_555 1_555
C25 C22 1_555 1_555
C26 C25 1_555 1_555
C27 C26 1_555 1_555
H13 C27 1_555 1_555
C28 C27 1_555 1_555
H14 C28 1_555 1_555
C29 C28 1_555 1_555
C30 C29 1_555 1_555
H15 C30 1_555 1_555
C31 C26 1_555 1_555
H16 C31 1_555 1_555
C32 C29 1_555 1_555
C33 C25 1_555 1_555
C34 C25 1_555 1_555
C35 C36 1_555 1_555
C36 H17 1_555 1_555
C37 C36 1_555 1_555
C38 C37 1_555 1_555
C39 C38 1_555 1_555
H18 C39 1_555 1_555
H19 C39 1_555 1_555
C40 C36 1_555 1_555
H20 C40 1_555 1_555
H21 C40 1_555 1_555
C41 C37 1_555 1_555
H22 C41 1_555 1_555
H23 C41 1_555 1_555
H24 C41 1_555 1_555
C42 C37 1_555 1_555
H25 C42 1_555 1_555
H26 C42 1_555 1_555
H27 C42 1_555 1_555
C43 C38 1_555 1_555
C44 C38 1_555 1_555
H28 C44 1_555 1_555
H29 C44 1_555 1_555
H30 C44 1_555 1_555
C45 C46 1_555 1_555
C46 C47 1_555 1_555
C47 H31 1_555 1_555
H32 C47 1_555 1_555
C48 C47 1_555 1_555
H33 C48 1_555 1_555
H34 C48 1_555 1_555
C49 C48 1_555 1_555
H35 C49 1_555 1_555
C50 C46 1_555 1_555
C51 C46 1_555 1_555
H36 C51 1_555 1_555
H37 C51 1_555 1_555
H38 C51 1_555 1_555
C52 C50 1_555 1_555
H39 C52 1_555 1_555
H40 C52 1_555 1_555
H41 C52 1_555 1_555
C53 C50 1_555 1_555
H42 C53 1_555 1_555
H43 C53 1_555 1_555
H44 C53 1_555 1_555
C54 C49 1_555 1_555
C55 H45 1_555 1_555
C56 C55 1_555 1_555
H46 C56 1_555 1_555
C57 C56 1_555 1_555
C58 C57 1_555 1_555
H47 C58 1_555 1_555
C59 C58 1_555 1_555
H48 C59 1_555 1_555
C60 C57 1_555 1_555
H49 C60 1_555 1_555
H50 C60 1_555 1_555
C61 C60 1_555 1_555
H51 C61 1_555 1_555
H52 C61 1_555 1_555
C62 C61 1_555 1_555
H53 C62 1_555 1_555
H54 C62 1_555 1_555
C63 C62 1_555 1_555
C64 C63 1_555 1_555
H55 C64 1_555 1_555
C65 C64 1_555 1_555
H56 C65 1_555 1_555
C66 H57 1_555 1_555
C67 C63 1_555 1_555
H58 C67 1_555 1_555
C68 H59 1_555 1_555
C69 C68 1_555 1_555
H60 C69 1_555 1_555
C70 C69 1_555 1_555
C71 C70 1_555 1_555
H61 C71 1_555 1_555
C72 C71 1_555 1_555
H62 C72 1_555 1_555
C73 C70 1_555 1_555
H63 C73 1_555 1_555
H64 C73 1_555 1_555
C74 C73 1_555 1_555
H65 C74 1_555 1_555
H66 C74 1_555 1_555
C75 C74 1_555 1_555
H67 C75 1_555 1_555
H68 C75 1_555 1_555
C76 C75 1_555 1_555
C77 C76 1_555 1_555
H69 C77 1_555 1_555
C78 C77 1_555 1_555
H70 C78 1_555 1_555
C79 H71 1_555 1_555
C80 C76 1_555 1_555
H72 C80 1_555 1_555
N1 C55 1_555 1_555
N2 C65 1_555 1_555
N3 Co1 1_555 1_555
N4 C78 1_555 1_555
O1 C1 1_555 1_555
O2 C1 1_555 1_555
O3 Co1 1_555 1_555
O4 C15 1_555 1_555
O5 Co2 1_555 1_555
O6 Co1 1_555 1_555
O7 C32 1_555 1_555
O8 C32 1_555 1_555
O9 Co3 1_555 1_555
O10 C43 1_555 1_555
O11 C35 1_555 1_555
H73 O11 1_555 1_555
O12 C35 1_555 1_555
O13 Co1 1_555 1_555
O14 C45 1_555 1_555
O15 C54 1_555 1_555
H74 O15 1_555 1_555
O16 C54 1_555 1_555
O17 Co1 1_555 1_555
O18 Co3 1_555 1_555
F1 C16 1_555 1_555
F2 C16 1_555 1_555
F3 C16 1_555 1_555
F4 C17 1_555 1_555
F5 C17 1_555 1_555
F6 C17 1_555 1_555
F7 C33 1_555 1_555
F8 C33 1_555 1_555
F9 C33 1_555 1_555
F10 C34 1_555 1_555
F11 C34 1_555 1_555
F12 C34 1_555 1_555
O19 H75 1_555 1_555
H76 O19 1_555 1_555
Co2A O8 1_555 1_555
Co2A_2 O1 1_555 1_555
Co3_2 O2 1_555 1_555
Co3A N2 1_555 1_555
N2A Co3 1_555 1_555
N4A Co3 1_555 1_555
O1A Co2 1_555 1_555
O2_2 Co3 1_555 1_555
O8A Co2 1_555 1_555
O18A Co2 1_555 1_555
Co2 O17 1_555 1_555
C6 C7 1_555 1_555
C13 C14 1_555 1_555
C15 O3 1_555 1_555
C18 O5 1_555 1_555
C18 O6 1_555 1_555
C23 C24 1_555 1_555
C30 C31 1_555 1_555
C39 C40 1_555 1_555
C43 O9 1_555 1_555
C45 O13 1_555 1_555
C49 C50 1_555 1_555
C59 N1 1_555 1_555
C66 C67 1_555 1_555
C66 N2 1_555 1_555
C68 N3 1_555 1_555
C72 N3 1_555 1_555
C79 C80 1_555 1_555
C79 N4 1_555 1_555
N4 Co3A 1_555 1_555
O18 Co2A 1_555 1_555

#END
