
#######################################################################
#
#                 Cambridge Crystallographic Data Centre
#                                CCDC 
#
#######################################################################
#
# If this CIF has been generated from an entry in the Cambridge 
# Structural Database, then it will include bibliographic, chemical, 
# crystal, experimental, refinement or atomic coordinate data resulting 
# from the CCDC's data processing and validation procedures.
#
#######################################################################

data_KEVVUD
_symmetry_cell_setting           monoclinic
_symmetry_space_group_name_H-M   'P 2/c'
_symmetry_Int_Tables_number      13
_space_group_name_Hall           '-P 2yc'
loop_
_symmetry_equiv_pos_site_id
_symmetry_equiv_pos_as_xyz
1 x,y,z
2 -x,y,1/2-z
3 -x,-y,-z
4 x,-y,1/2+z
_cell_length_a                   10.533(8)
_cell_length_b                   10.138(8)
_cell_length_c                   23.817(18)
_cell_angle_alpha                90
_cell_angle_beta                 100.324(13)
_cell_angle_gamma                90
_cell_volume                     2502.09
loop_
_atom_site_label
_atom_site_type_symbol
_atom_site_fract_x
_atom_site_fract_y
_atom_site_fract_z
Cd1 Cd 0.90056(3) 0.71523(3) 0.312207(11)
N1 N 0.4339(3) 0.8238(4) 0.55926(16)
N2 N 0.8402(3) 0.5240(4) 0.25719(14)
N3 N 0.9870(3) 0.5264(4) 0.36422(14)
O1 O 0.6875(3) 0.6886(4) 0.34020(14)
O2 O 0.8351(3) 0.8148(4) 0.38974(13)
O3 O 0.8207(3) 1.1548(3) 0.74077(13)
O4 O 0.9063(3) 1.1852(3) 0.66198(13)
C1 C 0.4909(4) 0.7961(4) 0.51224(19)
C2 C 0.4467(4) 0.7184(5) 0.4636(2)
H1 H 0.3681 0.6744 0.4592
C3 C 0.5232(4) 0.7100(4) 0.4227(2)
H2 H 0.4946 0.6598 0.3902
C4 C 0.6440(4) 0.7748(5) 0.42818(18)
C5 C 0.6858(4) 0.8525(4) 0.47611(16)
H3 H 0.7635 0.8980 0.4797
C6 C 0.6115(4) 0.8623(4) 0.51867(16)
C7 C 0.6281(3) 0.9302(4) 0.57298(16)
C8 C 0.7258(4) 1.0085(4) 0.60224(16)
H4 H 0.7983 1.0271 0.5864
C9 C 0.7150(4) 1.0590(4) 0.65539(16)
C10 C 0.6029(4) 1.0318(5) 0.67806(17)
H5 H 0.5961 1.0666 0.7135
C11 C 0.5029(4) 0.9556(4) 0.64978(18)
H6 H 0.4295 0.9396 0.6654
C12 C 0.5164(4) 0.9033(4) 0.59666(17)
C13 C 0.7242(4) 0.7590(5) 0.38279(19)
C14 C 0.8226(4) 1.1381(4) 0.68808(18)
C15 C 0.3135(4) 0.7654(5) 0.5700(3)
H7 H 0.2518 0.7621 0.5346
H8 H 0.2778 0.8209 0.5965
C16 C 0.3334(6) 0.6271(6) 0.5946(3)
H9 H 0.2523 0.5923 0.6008
H10 H 0.3930 0.6301 0.6301
H11 H 0.3675 0.5714 0.5682
C17 C 0.7652(4) 0.5231(5) 0.20590(18)
H12 H 0.7421 0.6033 0.1880
C18 C 0.7197(5) 0.4071(6) 0.1778(2)
H13 H 0.6674 0.4104 0.1419
C19 C 0.7527(5) 0.2893(6) 0.2033(2)
H14 H 0.7241 0.2114 0.1847
C20 C 0.8304(4) 0.2844(5) 0.2582(2)
C21 C 0.8717(4) 0.4077(4) 0.28346(19)
C22 C 0.9508(4) 0.4084(5) 0.34025(19)
C23 C 0.9848(5) 0.2868(5) 0.3675(2)
C24 C 1.0597(6) 0.2923(6) 0.4219(3)
H15 H 1.0842 0.2146 0.4416
C25 C 1.0977(6) 0.4112(8) 0.4467(2)
H16 H 1.1487 0.4144 0.4829
C26 C 1.0590(5) 0.5278(6) 0.4170(2)
H17 H 1.0836 0.6084 0.4342
C27 C 0.8667(5) 0.1653(5) 0.2877(3)
H18 H 0.8383 0.0856 0.2705
C28 C 0.9409(5) 0.1644(5) 0.3397(3)
H19 H 0.9641 0.0846 0.3580
Cd1C Cd 0.90056(3) 1.28477(3) -0.187793(11)
Cd1C_2 Cd 0.90056(3) 1.28477(3) 0.812207(11)
Cd1B Cd 1.09944(3) 1.28477(3) 0.687793(11)
Cd1A Cd 1.09944(3) 0.71523(3) 0.187793(11)
N1C N 0.4339(3) 1.1762(4) 0.05926(16)
N2C N 0.8402(3) 1.4760(4) -0.24281(14)
N3C N 0.9870(3) 1.4736(4) -0.13578(14)
O1C O 0.6875(3) 1.3114(4) -0.15980(14)
O2C O 0.8351(3) 1.1852(4) -0.11026(13)
O3C O 0.8207(3) 0.8452(3) 0.24077(13)
O3_2 O 0.8207(3) 1.1548(3) -0.25923(13)
O4C O 0.9063(3) 0.8148(3) 0.16198(13)
O4B O 1.0937(3) 0.8148(3) 0.33802(13)
O4A O 1.0937(3) 1.1852(3) -0.16198(13)
C1C C 0.4909(4) 1.2039(4) 0.01224(19)
C2C C 0.4467(4) 1.2816(5) -0.0364(2)
H1C H 0.3681 1.3256 -0.0408
C3C C 0.5232(4) 1.2900(4) -0.0773(2)
H2C H 0.4946 1.3402 -0.1098
C4C C 0.6440(4) 1.2252(5) -0.07182(18)
C5C C 0.6858(4) 1.1475(4) -0.02389(16)
H3C H 0.7635 1.1020 -0.0203
C6C C 0.6115(4) 1.1377(4) 0.01867(16)
C7C C 0.6281(3) 1.0698(4) 0.07298(16)
C8C C 0.7258(4) 0.9915(4) 0.10224(16)
H4C H 0.7983 0.9729 0.0864
C9C C 0.7150(4) 0.9410(4) 0.15539(16)
C10C C 0.6029(4) 0.9682(5) 0.17806(17)
H5C H 0.5961 0.9334 0.2135
C11C C 0.5029(4) 1.0444(4) 0.14978(18)
H6C H 0.4295 1.0604 0.1654
C12C C 0.5164(4) 1.0967(4) 0.09666(17)
C13C C 0.7242(4) 1.2410(5) -0.11721(19)
C14C C 0.8226(4) 0.8619(4) 0.18808(18)
C15C C 0.3135(4) 1.2346(5) 0.0700(3)
H7C H 0.2518 1.2379 0.0346
H8C H 0.2778 1.1791 0.0965
C16C C 0.3334(6) 1.3729(6) 0.0946(3)
H9C H 0.2523 1.4077 0.1008
H10C H 0.3930 1.3699 0.1301
H11C H 0.3675 1.4286 0.0682
C17C C 0.7652(4) 1.4769(5) -0.29410(18)
H12C H 0.7421 1.3967 -0.3120
C18C C 0.7197(5) 1.5929(6) -0.3222(2)
H13C H 0.6674 1.5896 -0.3581
C19C C 0.7527(5) 1.7107(6) -0.2967(2)
H14C H 0.7241 1.7886 -0.3153
C20C C 0.8304(4) 1.7156(5) -0.2418(2)
C21C C 0.8717(4) 1.5923(4) -0.21654(19)
C22C C 0.9508(4) 1.5916(5) -0.15975(19)
C23C C 0.9848(5) 1.7132(5) -0.1325(2)
C24C C 1.0597(6) 1.7077(6) -0.0781(3)
H15C H 1.0842 1.7854 -0.0584
C25C C 1.0977(6) 1.5888(8) -0.0533(2)
H16C H 1.1487 1.5856 -0.0171
C26C C 1.0590(5) 1.4722(6) -0.0830(2)
H17C H 1.0836 1.3916 -0.0658
C27C C 0.8667(5) 1.8347(5) -0.2123(3)
H18C H 0.8383 1.9144 -0.2295
C28C C 0.9409(5) 1.8356(5) -0.1603(3)
H19C H 0.9641 1.9154 -0.1420
O5 O 0.5000 0.5716(9) 0.2500
H20 H 0.5652 0.6250 0.2557
H20A H 0.4348 0.6250 0.2443
O6 O 0.0374(5) 0.8884(8) 0.4696(2)
H21 H -0.0031 0.9608 0.4605
H22 H 0.0099 0.8338 0.4445
loop_
_geom_bond_atom_site_label_1
_geom_bond_atom_site_label_2
_geom_bond_site_symmetry_1
_geom_bond_site_symmetry_2
Cd1 N2 1_555 1_555
N1 C1 1_555 1_555
N2 C17 1_555 1_555
N3 Cd1 1_555 1_555
O1 Cd1 1_555 1_555
O2 Cd1 1_555 1_555
O3 C14 1_555 1_555
O4 C14 1_555 1_555
C1 C2 1_555 1_555
C2 H1 1_555 1_555
C3 C2 1_555 1_555
H2 C3 1_555 1_555
C4 C3 1_555 1_555
C5 C4 1_555 1_555
H3 C5 1_555 1_555
C6 C1 1_555 1_555
C7 C6 1_555 1_555
C8 C7 1_555 1_555
H4 C8 1_555 1_555
C9 C8 1_555 1_555
C10 C9 1_555 1_555
H5 C10 1_555 1_555
C11 C10 1_555 1_555
H6 C11 1_555 1_555
C12 N1 1_555 1_555
C13 O1 1_555 1_555
C14 C9 1_555 1_555
C15 N1 1_555 1_555
H7 C15 1_555 1_555
H8 C15 1_555 1_555
C16 C15 1_555 1_555
H9 C16 1_555 1_555
H10 C16 1_555 1_555
H11 C16 1_555 1_555
C17 H12 1_555 1_555
C18 C17 1_555 1_555
H13 C18 1_555 1_555
C19 C18 1_555 1_555
H14 C19 1_555 1_555
C20 C19 1_555 1_555
C21 N2 1_555 1_555
C22 N3 1_555 1_555
C23 C22 1_555 1_555
C24 C23 1_555 1_555
H15 C24 1_555 1_555
C25 C24 1_555 1_555
H16 C25 1_555 1_555
C26 N3 1_555 1_555
H17 C26 1_555 1_555
C27 C20 1_555 1_555
H18 C27 1_555 1_555
C28 C23 1_555 1_555
H19 C28 1_555 1_555
O5 H20 1_555 1_555
O6 H21 1_555 1_555
H22 O6 1_555 1_555
Cd1C N2C 1_555 1_555
Cd1C_2 O3 1_555 1_555
Cd1B O4 1_555 1_555
Cd1A O4C 1_555 1_555
N1C C1C 1_555 1_555
N2C C17C 1_555 1_555
N3C Cd1C 1_555 1_555
O1C Cd1C 1_555 1_555
O2C Cd1C 1_555 1_555
O3C Cd1 1_555 1_555
O3_2 Cd1C 1_555 1_555
O4C C14C 1_555 1_555
O4B Cd1 1_555 1_555
O4A Cd1C 1_555 1_555
C1C C2C 1_555 1_555
C2C H1C 1_555 1_555
C3C C2C 1_555 1_555
H2C C3C 1_555 1_555
C4C C3C 1_555 1_555
C5C C4C 1_555 1_555
H3C C5C 1_555 1_555
C6C C1C 1_555 1_555
C7C C6C 1_555 1_555
C8C C7C 1_555 1_555
H4C C8C 1_555 1_555
C9C C8C 1_555 1_555
C10C C9C 1_555 1_555
H5C C10C 1_555 1_555
C11C C10C 1_555 1_555
H6C C11C 1_555 1_555
C12C N1C 1_555 1_555
C13C O1C 1_555 1_555
C14C O3C 1_555 1_555
C15C N1C 1_555 1_555
H7C C15C 1_555 1_555
H8C C15C 1_555 1_555
C16C C15C 1_555 1_555
H9C C16C 1_555 1_555
H10C C16C 1_555 1_555
H11C C16C 1_555 1_555
C17C H12C 1_555 1_555
C18C C17C 1_555 1_555
H13C C18C 1_555 1_555
C19C C18C 1_555 1_555
H14C C19C 1_555 1_555
C20C C19C 1_555 1_555
C21C N2C 1_555 1_555
C22C N3C 1_555 1_555
C23C C22C 1_555 1_555
C24C C23C 1_555 1_555
H15C C24C 1_555 1_555
C25C C24C 1_555 1_555
H16C C25C 1_555 1_555
C26C N3C 1_555 1_555
H17C C26C 1_555 1_555
C27C C20C 1_555 1_555
H18C C27C 1_555 1_555
C28C C23C 1_555 1_555
H19C C28C 1_555 1_555
H20A O5 1_555 1_555
O2 C13 1_555 1_555
C4 C13 1_555 1_555
C5 C6 1_555 1_555
C7 C12 1_555 1_555
C11 C12 1_555 1_555
C20 C21 1_555 1_555
C21 C22 1_555 1_555
C25 C26 1_555 1_555
C27 C28 1_555 1_555
O2C C13C 1_555 1_555
C4C C13C 1_555 1_555
C5C C6C 1_555 1_555
C7C C12C 1_555 1_555
C9C C14C 1_555 1_555
C11C C12C 1_555 1_555
C20C C21C 1_555 1_555
C21C C22C 1_555 1_555
C25C C26C 1_555 1_555
C27C C28C 1_555 1_555

#END
