
#######################################################################
#
#                 Cambridge Crystallographic Data Centre
#                                CCDC 
#
#######################################################################
#
# If this CIF has been generated from an entry in the Cambridge 
# Structural Database, then it will include bibliographic, chemical, 
# crystal, experimental, refinement or atomic coordinate data resulting 
# from the CCDC's data processing and validation procedures.
#
#######################################################################

data_KEVWUF
_symmetry_cell_setting           monoclinic
_symmetry_space_group_name_H-M   'C 2/c'
_symmetry_Int_Tables_number      15
_space_group_name_Hall           '-C 2yn'
loop_
_symmetry_equiv_pos_site_id
_symmetry_equiv_pos_as_xyz
1 x,y,z
2 -x,y,1/2-z
3 1/2+x,1/2+y,z
4 1/2-x,1/2+y,1/2-z
5 -x,-y,-z
6 x,-y,1/2+z
7 1/2-x,1/2-y,-z
8 1/2+x,1/2-y,1/2+z
_cell_length_a                   30.807(5)
_cell_length_b                   15.646(2)
_cell_length_c                   22.110(3)
_cell_angle_alpha                90
_cell_angle_beta                 133.331(2)
_cell_angle_gamma                90
_cell_volume                     7752.03
loop_
_atom_site_label
_atom_site_type_symbol
_atom_site_fract_x
_atom_site_fract_y
_atom_site_fract_z
Mo1 Mo 1.0000 0.36331(7) 0.7500
Mo2 Mo 0.86776(4) 0.24914(5) 0.58923(5)
Mo3 Mo 0.94506(4) 0.13633(5) 0.54728(5)
Mo4 Mo 1.07632(4) 0.24932(6) 0.70805(5)
Mo5 Mo 1.07622(4) 0.02313(6) 0.70897(5)
Mo6 Mo 1.0000 -0.09213(7) 0.7500
Mo7 Mo 0.86993(4) 0.02254(7) 0.58872(5)
O17 O 0.8067(5) 0.3019(8) 0.5123(6)
O18 O 0.9223(7) 0.3386(7) 0.6408(6)
O19 O 0.8676(5) 0.2548(6) 0.6740(5)
O20 O 0.8403(5) 0.1350(5) 0.5685(7)
O21 O 0.8952(3) 0.2194(5) 0.5369(6)
O22 O 0.8966(5) 0.0524(5) 0.5391(8)
O23 O 0.8092(3) -0.0323(4) 0.5125(4)
O24 O 0.9265(4) -0.0686(10) 0.6454(5)
O25 O 0.9208(5) 0.1363(4) 0.4542(5)
O26 O 1.0055(3) 0.0532(5) 0.6026(5)
O27 O 1.0045(3) 0.2210(4) 0.6011(6)
O28 O 1.1149(3) -0.0289(5) 0.6937(5)
O29 O 1.0338(4) -0.0638(8) 0.7064(5)
O30 O 1.0000 0.4685(6) 0.7500
O31 O 1.1309(4) 0.0169(9) 0.8267(5)
O32 O 1.0386(4) 0.0543(6) 0.7721(6)
O33 O 1.1038(3) 0.1371(5) 0.7209(6)
O34 O 0.9427(5) 0.1388(5) 0.6565(6)
O35 O 0.9585(4) 0.2149(7) 0.7259(6)
O36 O 0.9833(5) 0.1368(6) 0.8003(6)
O37 O 1.0365(7) 0.3408(9) 0.7086(6)
O38 O 1.1103(4) 0.2990(7) 0.6861(6)
P1 P 1.0000 0.13628(15) 0.7500
O39 O 1.0000 -0.1958(7) 0.7500
O32A O 0.9614(4) 0.0543(6) 0.7279(6)
O34A O 1.0573(5) 0.1388(5) 0.8435(6)
O35A O 1.0415(4) 0.2149(7) 0.7741(6)
O36A O 1.0167(5) 0.1368(6) 0.6997(6)
Mo2A Mo 1.13224(4) 0.24914(5) 0.91077(5)
Mo3A Mo 1.05494(4) 0.13633(5) 0.95272(5)
Mo4A Mo 0.92368(4) 0.24932(6) 0.79195(5)
Mo5A Mo 0.92378(4) 0.02313(6) 0.79103(5)
Mo7A Mo 1.13007(4) 0.02254(7) 0.91128(5)
O17A O 1.1933(5) 0.3019(8) 0.9877(6)
O18A O 1.0777(7) 0.3386(7) 0.8592(6)
O19A O 1.1324(5) 0.2548(6) 0.8260(5)
O20A O 1.1597(5) 0.1350(5) 0.9315(7)
O21A O 1.1048(3) 0.2194(5) 0.9631(6)
O22A O 1.1034(5) 0.0524(5) 0.9609(8)
O23A O 1.1908(3) -0.0323(4) 0.9875(4)
O24A O 1.0735(4) -0.0686(10) 0.8546(5)
O25A O 1.0792(5) 0.1363(4) 1.0458(5)
O26A O 0.9945(3) 0.0532(5) 0.8974(5)
O27A O 0.9955(3) 0.2210(4) 0.8989(6)
O28A O 0.8851(3) -0.0289(5) 0.8063(5)
O29A O 0.9662(4) -0.0638(8) 0.7936(5)
O31A O 0.8691(4) 0.0169(9) 0.6733(5)
O33A O 0.8962(3) 0.1371(5) 0.7791(6)
O37A O 0.9635(7) 0.3408(9) 0.7914(6)
O38A O 0.8897(4) 0.2990(7) 0.8139(6)
O40 O 0.7362(4) 0.6438(6) 0.8375(7)
C1 C 0.8497(4) 0.5535(6) 0.6544(5)
C2 C 0.8250(3) 0.4864(5) 0.6716(5)
C3 C 0.7874(4) 0.4226(5) 0.6162(5)
H1 H 0.7799 0.4148 0.5680
C4 C 0.7607(5) 0.3702(5) 0.6336(6)
H2 H 0.7338 0.3280 0.5962
C5 C 0.7745(4) 0.3813(6) 0.7066(5)
H3 H 0.7571 0.3470 0.7194
C6 C 0.8143(3) 0.4439(5) 0.7604(4)
C7 C 0.8366(4) 0.4563(5) 0.8451(5)
C8 C 0.7642(3) 0.1962(5) 0.8547(5)
C9 C 0.8281(3) 0.1730(5) 0.9061(5)
C10 C 0.8456(4) 0.0977(6) 0.8952(5)
H4 H 0.8174 0.0581 0.8553
C11 C 0.9062(4) 0.0827(5) 0.9452(5)
H5 H 0.9191 0.0323 0.9396
C12 C 0.9477(4) 0.1440(5) 1.0041(6)
H6 H 0.9884 0.1360 1.0372
C13 C 0.9258(3) 0.2173(5) 1.0115(5)
C14 C 0.9653(3) 0.2887(5) 1.0690(5)
La1 La 0.889346(19) 0.63779(3) 0.82868(3)
La2 La 0.831169(19) 0.37075(3) 0.98662(3)
N1 N 0.8382(3) 0.4969(4) 0.7432(4)
N2 N 0.8670(3) 0.2311(4) 0.9642(4)
O1 O 0.8763(3) 0.6156(4) 0.7047(4)
O2 O 0.8411(3) 0.5451(4) 0.5906(4)
O3 O 0.8665(3) 0.5239(4) 0.8832(4)
O4 O 0.8250(3) 0.4019(4) 0.8721(4)
O5 O 0.7535(3) 0.2638(4) 0.8742(4)
O6 O 0.7251(3) 0.1505(4) 0.7941(4)
O7 O 1.0204(2) 0.2808(4) 1.1117(4)
O8 O 0.9414(3) 0.3534(4) 1.0697(4)
O9 O 0.7442(4) 0.4732(6) 0.8860(5)
O10 O 0.8783(4) 0.5189(4) 1.0152(5)
O11 O 0.7460(3) 0.3392(4) 0.9794(5)
O12 O 0.8675(3) 0.2641(4) 1.1056(4)
O13 O 0.9695(4) 0.6286(5) 0.9921(5)
O14 O 0.8389(3) 0.7053(5) 0.8741(5)
O15 O 0.8631(3) 0.7848(5) 0.7639(5)
O16 O 0.9731(3) 0.5232(4) 0.8773(5)
La1C La 0.610654(19) 0.13779(3) 0.67132(3)
La1D La 1.110654(19) 0.36221(3) 1.17132(3)
La2E La 0.831169(19) 0.62925(3) 0.48662(3)
O2E O 0.8411(3) 0.4549(4) 1.0906(4)
O6C O 0.7749(3) 0.6505(4) 0.7059(4)
O7D O 0.9796(2) 0.7192(4) 0.8883(4)
loop_
_geom_bond_atom_site_label_1
_geom_bond_atom_site_label_2
_geom_bond_site_symmetry_1
_geom_bond_site_symmetry_2
C1 C2 1_555 1_555
C2 C3 1_555 1_555
C3 H1 1_555 1_555
C4 C3 1_555 1_555
H2 C4 1_555 1_555
C5 C4 1_555 1_555
H3 C5 1_555 1_555
C6 C5 1_555 1_555
C7 C6 1_555 1_555
C8 C9 1_555 1_555
C9 C10 1_555 1_555
C10 H4 1_555 1_555
C11 C10 1_555 1_555
H5 C11 1_555 1_555
C12 C11 1_555 1_555
H6 C12 1_555 1_555
C13 C12 1_555 1_555
C14 C13 1_555 1_555
La1 N1 1_555 1_555
La2 N2 1_555 1_555
N1 C2 1_555 1_555
N2 C9 1_555 1_555
O1 C1 1_555 1_555
O2 C1 1_555 1_555
O3 C7 1_555 1_555
O4 C7 1_555 1_555
O5 C8 1_555 1_555
O6 C8 1_555 1_555
O7 C14 1_555 1_555
O8 C14 1_555 1_555
O9 La2 1_555 1_555
O10 La2 1_555 1_555
O11 La2 1_555 1_555
O12 La2 1_555 1_555
O13 La1 1_555 1_555
O14 La1 1_555 1_555
O15 La1 1_555 1_555
O16 La1 1_555 1_555
Mo1 O18 1_555 1_555
Mo2 O17 1_555 1_555
Mo3 O21 1_555 1_555
Mo4 O27 1_555 1_555
Mo5 O26 1_555 1_555
Mo6 O24 1_555 1_555
Mo7 O20 1_555 1_555
O18 Mo2 1_555 1_555
O19 Mo2 1_555 1_555
O20 Mo2 1_555 1_555
O21 Mo2 1_555 1_555
O22 Mo3 1_555 1_555
O23 Mo7 1_555 1_555
O24 Mo7 1_555 1_555
O25 Mo3 1_555 1_555
O26 Mo3 1_555 1_555
O27 Mo3 1_555 1_555
O28 Mo5 1_555 1_555
O29 Mo5 1_555 1_555
O30 Mo1 1_555 1_555
O31 Mo5 1_555 1_555
O32 Mo5 1_555 1_555
O33 Mo4 1_555 1_555
O34 Mo2 1_555 1_555
O35 Mo1 1_555 1_555
O36 O35 1_555 1_555
O37 Mo1 1_555 1_555
O38 Mo4 1_555 1_555
P1 O32 1_555 1_555
O39 Mo6 1_555 1_555
La1C O6 1_555 1_555
La1D O7 1_555 1_555
La2E O2 1_555 1_555
O2E La2 1_555 1_555
O6C La1 1_555 1_555
O7D La1 1_555 1_555
O32A Mo6 1_555 1_555
O34A O36 1_555 1_555
O35A Mo1 1_555 1_555
O36A Mo3 1_555 1_555
Mo2A O34A 1_555 1_555
Mo3A O36 1_555 1_555
Mo4A O19 1_555 1_555
Mo5A O36 1_555 1_555
Mo7A O31 1_555 1_555
O17A Mo2A 1_555 1_555
O18A Mo1 1_555 1_555
O19A Mo4 1_555 1_555
O20A Mo2A 1_555 1_555
O21A Mo2A 1_555 1_555
O22A Mo3A 1_555 1_555
O23A Mo7A 1_555 1_555
O24A Mo6 1_555 1_555
O25A Mo3A 1_555 1_555
O26A Mo3A 1_555 1_555
O27A Mo3A 1_555 1_555
O28A Mo5A 1_555 1_555
O29A Mo6 1_555 1_555
O31A Mo7 1_555 1_555
O33A Mo4A 1_555 1_555
O37A Mo1 1_555 1_555
O38A Mo4A 1_555 1_555
C6 N1 1_555 1_555
C13 N2 1_555 1_555
La1 O1 1_555 1_555
La1 O3 1_555 1_555
La2 O4 1_555 1_555
La2 O5 1_555 1_555
La2 O8 1_555 1_555
Mo2 O35 1_555 1_555
Mo3 O34 1_555 1_555
Mo4 O37 1_555 1_555
Mo4 O35A 1_555 1_555
Mo4 O36A 1_555 1_555
Mo5 O33 1_555 1_555
Mo5 O36A 1_555 1_555
Mo6 O29 1_555 1_555
Mo6 O32 1_555 1_555
Mo7 O22 1_555 1_555
Mo7 O34 1_555 1_555
Mo7 O32A 1_555 1_555
O32 O36A 1_555 1_555
O32 Mo7A 1_555 1_555
O34 O35 1_555 1_555
O34 P1 1_555 1_555
O34 O36A 1_555 1_555
O35 P1 1_555 1_555
O35 Mo4A 1_555 1_555
O36 P1 1_555 1_555
O36 O32A 1_555 1_555
O36 Mo4A 1_555 1_555
P1 O32A 1_555 1_555
P1 O34A 1_555 1_555
P1 O35A 1_555 1_555
P1 O36A 1_555 1_555
O32A Mo5A 1_555 1_555
O34A O35A 1_555 1_555
O34A Mo3A 1_555 1_555
O34A Mo7A 1_555 1_555
O35A O36A 1_555 1_555
O35A Mo2A 1_555 1_555
Mo2A O18A 1_555 1_555
Mo2A O19A 1_555 1_555
Mo3A O21A 1_555 1_555
Mo4A O27A 1_555 1_555
Mo4A O37A 1_555 1_555
Mo5A O26A 1_555 1_555
Mo5A O29A 1_555 1_555
Mo5A O31A 1_555 1_555
Mo5A O33A 1_555 1_555
Mo7A O20A 1_555 1_555
Mo7A O22A 1_555 1_555
Mo7A O24A 1_555 1_555

#END
