
#######################################################################
#
#                 Cambridge Crystallographic Data Centre
#                                CCDC 
#
#######################################################################
#
# If this CIF has been generated from an entry in the Cambridge 
# Structural Database, then it will include bibliographic, chemical, 
# crystal, experimental, refinement or atomic coordinate data resulting 
# from the CCDC's data processing and validation procedures.
#
#######################################################################

data_KEVZOB
_symmetry_cell_setting           triclinic
_symmetry_space_group_name_H-M   'P -1'
_symmetry_Int_Tables_number      2
_space_group_name_Hall           '-P 1'
loop_
_symmetry_equiv_pos_site_id
_symmetry_equiv_pos_as_xyz
1 x,y,z
2 -x,-y,-z
_cell_length_a                   15.910(6)
_cell_length_b                   19.772(8)
_cell_length_c                   20.594(8)
_cell_angle_alpha                78.283(6)
_cell_angle_beta                 73.745(6)
_cell_angle_gamma                71.742(7)
_cell_volume                     5858.74
loop_
_atom_site_label
_atom_site_type_symbol
_atom_site_fract_x
_atom_site_fract_y
_atom_site_fract_z
Pt1 Pt 0.25037(3) 0.504472(17) 0.748647(16)
Pt2 Pt 0.25096(3) 0.355450(17) 0.760550(16)
Pt3 Pt 0.25291(3) 0.206810(18) 0.774570(17)
Pt4 Pt 0.25597(3) 0.062760(18) 0.764980(17)
Pt5 Pt 0.24653(3) -0.068770(17) 0.746020(16)
Pt6 Pt 0.23999(3) -0.204480(18) 0.734090(17)
Pt7 Pt 0.24743(3) 0.651405(17) 0.738076(16)
Cu1 Cu 0.20915(9) 0.04429(6) 1.05707(6)
O1 O 0.2077(5) 0.4993(3) 0.8498(3)
O2 O 0.1170(5) 0.5359(3) 0.7534(3)
O3 O 0.3844(5) 0.4715(3) 0.7443(3)
O4 O 0.2926(5) 0.5097(3) 0.6471(3)
O5 O 0.0803(5) 0.5151(3) 0.9311(3)
O6 O -0.0138(5) 0.5533(3) 0.8299(3)
O7 O 0.5158(5) 0.4461(3) 0.6675(3)
O8 O 0.4191(5) 0.4898(3) 0.5658(3)
O9 O 0.3845(5) 0.3269(3) 0.7158(3)
O10 O 0.2981(5) 0.3374(3) 0.8440(3)
O11 O 0.2027(5) 0.3720(3) 0.6766(3)
O12 O 0.1188(5) 0.3824(3) 0.8061(3)
O13 O 0.5178(5) 0.2883(3) 0.7427(3)
O14 O 0.4269(5) 0.3082(3) 0.8773(3)
O15 O 0.0726(5) 0.3961(3) 0.6466(3)
O16 O -0.0156(5) 0.4140(3) 0.7795(3)
O17 O 0.1953(5) 0.1964(3) 0.8748(3)
O18 O 0.1238(5) 0.2425(3) 0.7689(3)
O19 O 0.3832(5) 0.1684(3) 0.7804(3)
O20 O 0.3069(5) 0.2202(3) 0.6746(3)
O21 O 0.0617(5) 0.2015(4) 0.9437(3)
O22 O -0.0148(5) 0.2523(3) 0.8332(3)
O23 O 0.5144(5) 0.1195(4) 0.7102(3)
O24 O 0.4409(5) 0.2055(3) 0.6026(3)
O25 O 0.3542(5) 0.0206(3) 0.8165(3)
O26 O 0.1757(4) 0.0559(3) 0.8596(3)
O27 O 0.3379(5) 0.0682(3) 0.6713(3)
O28 O 0.1579(5) 0.1091(3) 0.7134(3)
O29 O 0.3734(5) 0.0106(4) 0.9215(3)
O30 O 0.1822(5) 0.0371(3) 0.9680(3)
O31 O 0.3317(5) 0.1181(3) 0.5650(3)
O32 O 0.1414(5) 0.1666(3) 0.6119(3)
O33 O 0.3822(4) -0.0956(3) 0.7170(3)
O34 O 0.2691(5) -0.1083(3) 0.8383(3)
O35 O 0.2197(5) -0.0320(3) 0.6537(3)
O36 O 0.1123(5) -0.0376(3) 0.7773(3)
O37 O 0.5022(5) -0.1413(3) 0.7628(3)
O38 O 0.3836(5) -0.1711(3) 0.8854(3)
O39 O 0.1033(5) 0.0084(4) 0.6050(4)
O40 O -0.0070(6) 0.0263(4) 0.7371(4)
O41 O 0.1777(5) -0.2157(3) 0.8324(3)
O42 O 0.1131(5) -0.1662(3) 0.7215(3)
O43 O 0.0402(5) -0.2060(4) 0.8975(3)
O44 O -0.0287(5) -0.1354(4) 0.7844(3)
O45 O 0.3671(4) -0.2416(3) 0.7471(3)
O46 O 0.3040(5) -0.1941(3) 0.6352(3)
O47 O 0.5087(5) -0.2565(3) 0.6859(3)
O48 O 0.4419(5) -0.2040(3) 0.5709(3)
O49 O 0.3800(4) 0.6256(3) 0.6925(3)
O50 O 0.2954(5) 0.6320(3) 0.8221(3)
O51 O 0.2011(5) 0.6709(3) 0.6540(3)
O52 O 0.1146(5) 0.6773(3) 0.7820(3)
O53 O 0.5145(5) 0.5827(3) 0.7187(3)
O54 O 0.4265(5) 0.6039(3) 0.8526(3)
O55 O 0.0742(5) 0.6942(3) 0.6196(3)
O56 O -0.0192(5) 0.7096(3) 0.7547(3)
O57 O 0.1363(5) 0.1438(3) 1.0494(3)
H1 H 0.0929 0.1470 1.0338
O58 O 0.0910(6) 0.0074(5) 1.1176(4)
H2 H 0.0763 0.0199 1.1557
N1 N 0.2629(6) 0.0595(4) 1.1280(4)
N2 N 0.2941(6) -0.0515(4) 1.0676(4)
C1 C 0.1221(7) 0.5154(4) 0.8709(5)
C2 C 0.0669(7) 0.5379(5) 0.8149(4)
C3 C 0.4349(7) 0.4670(5) 0.6818(4)
C4 C 0.3798(7) 0.4902(4) 0.6252(4)
C5 C 0.4361(7) 0.3093(4) 0.7584(4)
C6 C 0.3859(8) 0.3188(5) 0.8337(5)
C7 C 0.1160(7) 0.3870(5) 0.6898(4)
C8 C 0.0663(7) 0.3973(5) 0.7649(4)
C9 C 0.1108(8) 0.2093(5) 0.8874(5)
C10 C 0.0655(8) 0.2373(5) 0.8258(5)
C11 C 0.4373(8) 0.1554(5) 0.7202(5)
C12 C 0.3933(8) 0.1969(5) 0.6597(5)
C13 C 0.3253(7) 0.0234(5) 0.8811(5)
C14 C 0.2207(8) 0.0413(5) 0.9059(5)
C15 C 0.2946(8) 0.1050(5) 0.6262(5)
C16 C 0.1897(8) 0.1303(5) 0.6505(5)
C17 C 0.4212(8) -0.1243(5) 0.7661(5)
C18 C 0.3543(8) -0.1361(5) 0.8372(5)
C19 C 0.1331(8) -0.0086(5) 0.6559(6)
C20 C 0.0723(8) -0.0047(5) 0.7300(6)
C21 C 0.0904(8) -0.1975(5) 0.8426(5)
C22 C 0.0518(7) -0.1622(5) 0.7782(5)
C23 C 0.4295(7) -0.2390(5) 0.6899(5)
C24 C 0.3882(7) -0.2100(5) 0.6255(4)
C25 C 0.4322(7) 0.6050(5) 0.7347(4)
C26 C 0.3829(7) 0.6134(4) 0.8093(4)
C27 C 0.1143(7) 0.6861(4) 0.6639(5)
C28 C 0.0635(7) 0.6924(4) 0.7391(4)
C29 C 0.2406(8) 0.1184(5) 1.1591(5)
H20 H 0.1932 0.1573 1.1487
C30 C 0.2845(9) 0.1229(6) 1.2047(5)
H21 H 0.2654 0.1639 1.2265
C31 C 0.3580(8) 0.0672(6) 1.2196(6)
H22 H 0.3904 0.0703 1.2495
C32 C 0.3802(8) 0.0069(6) 1.1875(5)
H23 H 0.4290 -0.0317 1.1959
C33 C 0.3321(8) 0.0029(6) 1.1438(5)
C34 C 0.3466(7) -0.0609(5) 1.1105(5)
C35 C 0.4029(8) -0.1277(6) 1.1274(5)
H24 H 0.4382 -0.1336 1.1583
C36 C 0.4062(8) -0.1851(5) 1.0979(5)
H25 H 0.4437 -0.2304 1.1086
C37 C 0.3533(8) -0.1747(5) 1.0524(5)
H26 H 0.3548 -0.2128 1.0316
C38 C 0.2980(8) -0.1074(5) 1.0379(5)
H27 H 0.2624 -0.1003 1.0069
Pt6_2 Pt 0.23999(3) 0.795520(18) 0.734090(17)
Pt7_2 Pt 0.24743(3) -0.348595(17) 0.738076(16)
Cu2 Cu 0.22995(9) 0.65112(6) 0.02631(5)
O59 O 0.1517(5) 0.7435(3) 0.0539(3)
H3 H 0.1607 0.7756 0.0228
O60 O 0.1779(5) 0.6656(3) -0.0540(3)
H4 H 0.1373 0.7033 -0.0539
O61 O 0.3542(5) 0.6963(3) -0.0471(3)
H5 H 0.3984 0.6625 -0.0584
O62 O 0.1137(5) 0.5915(4) 0.0895(4)
H6 H 0.0671 0.6102 0.0755
N3 N 0.2960(6) 0.6314(4) 0.0988(3)
N4 N 0.3058(6) 0.5522(4) 0.0103(3)
C39 C 0.2894(8) 0.6773(5) 0.1417(5)
H28 H 0.2447 0.7209 0.1418
C40 C 0.3467(9) 0.6615(6) 0.1851(5)
H29 H 0.3433 0.6956 0.2117
C41 C 0.4083(8) 0.5961(6) 0.1891(5)
H30 H 0.4455 0.5841 0.2198
C42 C 0.4147(7) 0.5474(5) 0.1464(5)
H31 H 0.4555 0.5020 0.1487
C43 C 0.3601(6) 0.5673(5) 0.1012(4)
C44 C 0.3638(7) 0.5220(5) 0.0506(4)
C45 C 0.4241(7) 0.4547(5) 0.0434(5)
H32 H 0.4652 0.4346 0.0711
C46 C 0.4212(8) 0.4182(5) -0.0061(5)
H33 H 0.4617 0.3732 -0.0128
C47 C 0.3599(8) 0.4474(5) -0.0449(5)
H34 H 0.3575 0.4223 -0.0776
C48 C 0.3012(7) 0.5142(5) -0.0360(5)
H35 H 0.2578 0.5336 -0.0619
Cu3 Cu 0.20898(9) 0.34538(6) 0.04631(5)
O63 O 0.1299(5) 0.4468(3) 0.0488(3)
H7 H 0.0787 0.4467 0.0717
O64 O 0.1758(5) 0.3439(4) -0.0372(3)
H8 H 0.2174 0.3496 -0.0700
O65 O 0.1022(5) 0.2955(4) 0.1082(3)
H9 H 0.0602 0.3061 0.0890
N5 N 0.2671(6) 0.3508(4) 0.1174(4)
N6 N 0.3083(6) 0.2551(4) 0.0345(4)
C49 C 0.2429(8) 0.4026(5) 0.1575(5)
H36 H 0.1886 0.4382 0.1565
C50 C 0.2937(8) 0.4060(5) 0.2000(5)
H37 H 0.2754 0.4436 0.2261
C51 C 0.3733(8) 0.3517(5) 0.2031(5)
H38 H 0.4099 0.3527 0.2309
C52 C 0.3976(8) 0.2964(5) 0.1643(5)
H39 H 0.4493 0.2586 0.1675
C53 C 0.3458(7) 0.2968(5) 0.1213(4)
C54 C 0.3650(8) 0.2414(5) 0.0765(5)
C55 C 0.4340(8) 0.1787(5) 0.0783(5)
H40 H 0.4723 0.1694 0.1078
C56 C 0.4449(8) 0.1293(5) 0.0347(5)
H41 H 0.4917 0.0869 0.0337
C57 C 0.3850(8) 0.1448(5) -0.0067(5)
H42 H 0.3907 0.1119 -0.0353
C58 C 0.3181(7) 0.2068(5) -0.0064(5)
H43 H 0.2785 0.2163 -0.0349
Cu4 Cu 0.26160(9) 0.33911(6) 0.47658(5)
O66 O 0.3147(5) 0.3261(3) 0.5552(3)
H10 H 0.3627 0.2942 0.5504
O67 O 0.3182(6) 0.2346(3) 0.4660(3)
H11 H 0.3104 0.2106 0.5035
O68 O 0.1295(5) 0.3062(3) 0.5480(3)
H12 H 0.0854 0.3416 0.5502
O69 O 0.4023(5) 0.3545(3) 0.4085(3)
H13 H 0.4426 0.3173 0.4132
N7 N 0.1997(5) 0.4424(4) 0.4879(4)
N8 N 0.1965(6) 0.3624(4) 0.4031(4)
C59 C 0.2083(7) 0.4795(5) 0.5324(4)
H44 H 0.2533 0.4594 0.5568
C60 C 0.1514(8) 0.5469(5) 0.5423(5)
H45 H 0.1569 0.5712 0.5744
C61 C 0.0863(7) 0.5785(5) 0.5054(4)
H46 H 0.0471 0.6239 0.5123
C62 C 0.0807(7) 0.5413(5) 0.4579(5)
H47 H 0.0384 0.5618 0.4312
C63 C 0.1381(7) 0.4735(5) 0.4500(4)
C64 C 0.1378(7) 0.4287(5) 0.4004(4)
C65 C 0.0823(8) 0.4511(5) 0.3557(5)
H48 H 0.0451 0.4980 0.3532
C66 C 0.0809(8) 0.4047(5) 0.3139(5)
H49 H 0.0419 0.4187 0.2845
C67 C 0.1407(8) 0.3360(5) 0.3183(5)
H50 H 0.1422 0.3028 0.2915
C68 C 0.1966(7) 0.3181(5) 0.3618(5)
H51 H 0.2371 0.2725 0.3631
Cu5 Cu 0.28692(9) 0.66715(6) 0.45377(5)
O70 O 0.3230(5) 0.6687(4) 0.5357(3)
H14 H 0.3783 0.6518 0.5301
O71 O 0.3604(5) 0.5655(3) 0.4489(3)
H15 H 0.3769 0.5490 0.4846
O72 O 0.4040(5) 0.7062(3) 0.3935(3)
H16 H 0.4474 0.6875 0.4112
N9 N 0.1911(6) 0.7612(4) 0.4673(4)
N10 N 0.2216(6) 0.6672(5) 0.3857(4)
C69 C 0.1860(8) 0.8065(5) 0.5083(5)
H52 H 0.2264 0.7938 0.5366
C70 C 0.1222(8) 0.8721(6) 0.5099(5)
H53 H 0.1189 0.9033 0.5394
C71 C 0.0638(9) 0.8910(6) 0.4676(6)
H54 H 0.0203 0.9352 0.4681
C72 C 0.0695(8) 0.8440(6) 0.4242(5)
H55 H 0.0309 0.8563 0.3946
C73 C 0.1332(8) 0.7794(6) 0.4259(5)
C74 C 0.1474(8) 0.7246(6) 0.3822(5)
C75 C 0.0894(9) 0.7272(7) 0.3431(5)
H56 H 0.0385 0.7662 0.3417
C76 C 0.1072(9) 0.6706(7) 0.3052(6)
H57 H 0.0681 0.6715 0.2788
C77 C 0.1843(10) 0.6133(7) 0.3078(6)
H58 H 0.1980 0.5756 0.2826
C78 C 0.2405(8) 0.6134(6) 0.3488(5)
H59 H 0.2924 0.5754 0.3506
Cu6 Cu 0.31094(9) 0.95132(6) 0.44400(5)
O73 O 0.3302(5) 0.9724(3) 0.5277(3)
H17 H 0.3837 0.9547 0.5292
O74 O 0.3870(5) 0.8525(3) 0.4567(3)
H18 H 0.4283 0.8518 0.4736
O75 O 0.4333(6) 0.9974(4) 0.3797(4)
H19 H 0.4653 0.9710 0.3510
N11 N 0.2182(6) 1.0447(4) 0.4313(4)
N12 N 0.2700(6) 0.9314(4) 0.3694(3)
C79 C 0.1969(7) 1.0997(5) 0.4665(5)
H60 H 0.2247 1.0948 0.5021
C80 C 0.1350(7) 1.1635(5) 0.4517(5)
H61 H 0.1211 1.2012 0.4770
C81 C 0.0941(7) 1.1709(5) 0.3993(5)
H62 H 0.0523 1.2138 0.3884
C82 C 0.1161(7) 1.1135(5) 0.3627(5)
H63 H 0.0894 1.1174 0.3269
C83 C 0.1781(7) 1.0505(5) 0.3804(4)
C84 C 0.2090(7) 0.9850(5) 0.3441(4)
C85 C 0.1737(7) 0.9791(5) 0.2926(5)
H64 H 0.1295 1.0173 0.2769
C86 C 0.2042(8) 0.9160(5) 0.2644(5)
H65 H 0.1821 0.9104 0.2291
C87 C 0.2682(7) 0.8622(5) 0.2903(4)
H66 H 0.2908 0.8190 0.2719
C88 C 0.2998(8) 0.8696(5) 0.3419(5)
H67 H 0.3429 0.8314 0.3588
O76 O 0.4999(5) 0.6352(3) 0.5012(3)
O77 O 0.9939(12) 0.0464(12) 0.9416(12)
O78 O 0.3640(5) 0.1599(4) 0.3579(3)
O79 O 0.4922(5) 0.0743(4) 0.4610(4)
O80 O 0.8532(6) 0.1381(4) 0.0363(3)
O81 O 0.8924(11) 0.1620(7) 0.8077(7)
O82 O 0.0096(6) 0.3498(5) 0.9947(4)
loop_
_geom_bond_atom_site_label_1
_geom_bond_atom_site_label_2
_geom_bond_site_symmetry_1
_geom_bond_site_symmetry_2
Pt1 Pt2 1_555 1_555
Pt2 Pt3 1_555 1_555
Pt3 Pt4 1_555 1_555
Pt4 Pt5 1_555 1_555
Pt5 Pt6 1_555 1_555
Pt6 O41 1_555 1_555
Pt7 Pt1 1_555 1_555
Cu1 O30 1_555 1_555
Cu2 O59 1_555 1_555
Cu3 O63 1_555 1_555
Cu4 O66 1_555 1_555
Cu5 O70 1_555 1_555
Cu6 O73 1_555 1_555
O1 Pt1 1_555 1_555
O2 Pt1 1_555 1_555
O3 Pt1 1_555 1_555
O4 Pt1 1_555 1_555
O5 C1 1_555 1_555
O6 C2 1_555 1_555
O7 C3 1_555 1_555
O8 C4 1_555 1_555
O9 Pt2 1_555 1_555
O10 Pt2 1_555 1_555
O11 Pt2 1_555 1_555
O12 Pt2 1_555 1_555
O13 C5 1_555 1_555
O14 C6 1_555 1_555
O15 C7 1_555 1_555
O16 C8 1_555 1_555
O17 Pt3 1_555 1_555
O18 Pt3 1_555 1_555
O19 Pt3 1_555 1_555
O20 Pt3 1_555 1_555
O21 C9 1_555 1_555
O22 C10 1_555 1_555
O23 C11 1_555 1_555
O24 C12 1_555 1_555
O25 Pt4 1_555 1_555
O26 Pt4 1_555 1_555
O27 Pt4 1_555 1_555
O28 Pt4 1_555 1_555
O29 C13 1_555 1_555
O30 C14 1_555 1_555
O31 C15 1_555 1_555
O32 C16 1_555 1_555
O33 Pt5 1_555 1_555
O34 Pt5 1_555 1_555
O35 Pt5 1_555 1_555
O36 Pt5 1_555 1_555
O37 C17 1_555 1_555
O38 C18 1_555 1_555
O39 C19 1_555 1_555
O40 C20 1_555 1_555
O41 C21 1_555 1_555
O42 Pt6 1_555 1_555
O43 C21 1_555 1_555
O44 C22 1_555 1_555
O45 Pt6 1_555 1_555
O46 Pt6 1_555 1_555
O47 C23 1_555 1_555
O48 C24 1_555 1_555
O49 Pt7 1_555 1_555
O50 Pt7 1_555 1_555
O51 Pt7 1_555 1_555
O52 Pt7 1_555 1_555
O53 C25 1_555 1_555
O54 C26 1_555 1_555
O55 C27 1_555 1_555
O56 C28 1_555 1_555
O57 Cu1 1_555 1_555
H1 O57 1_555 1_555
O58 Cu1 1_555 1_555
H2 O58 1_555 1_555
O59 H3 1_555 1_555
O60 Cu2 1_555 1_555
H4 O60 1_555 1_555
O61 Cu2 1_555 1_555
H5 O61 1_555 1_555
O62 Cu2 1_555 1_555
H6 O62 1_555 1_555
O63 H7 1_555 1_555
O64 Cu3 1_555 1_555
H8 O64 1_555 1_555
O65 Cu3 1_555 1_555
H9 O65 1_555 1_555
O66 H10 1_555 1_555
O67 Cu4 1_555 1_555
H11 O67 1_555 1_555
O68 Cu4 1_555 1_555
H12 O68 1_555 1_555
O69 Cu4 1_555 1_555
H13 O69 1_555 1_555
O70 H14 1_555 1_555
O71 Cu5 1_555 1_555
H15 O71 1_555 1_555
O72 Cu5 1_555 1_555
H16 O72 1_555 1_555
O73 H17 1_555 1_555
O74 Cu6 1_555 1_555
H18 O74 1_555 1_555
O75 Cu6 1_555 1_555
H19 O75 1_555 1_555
N1 Cu1 1_555 1_555
N2 Cu1 1_555 1_555
N3 Cu2 1_555 1_555
N4 Cu2 1_555 1_555
N5 Cu3 1_555 1_555
N6 Cu3 1_555 1_555
N7 Cu4 1_555 1_555
N8 Cu4 1_555 1_555
N9 Cu5 1_555 1_555
N10 Cu5 1_555 1_555
N11 Cu6 1_555 1_555
N12 Cu6 1_555 1_555
C1 O1 1_555 1_555
C2 O2 1_555 1_555
C3 O3 1_555 1_555
C4 O4 1_555 1_555
C5 O9 1_555 1_555
C6 O10 1_555 1_555
C7 O11 1_555 1_555
C8 O12 1_555 1_555
C9 O17 1_555 1_555
C10 O18 1_555 1_555
C11 O19 1_555 1_555
C12 O20 1_555 1_555
C13 O25 1_555 1_555
C14 O26 1_555 1_555
C15 O27 1_555 1_555
C16 O28 1_555 1_555
C17 O33 1_555 1_555
C18 O34 1_555 1_555
C19 O35 1_555 1_555
C20 O36 1_555 1_555
C21 C22 1_555 1_555
C22 O42 1_555 1_555
C23 O45 1_555 1_555
C24 O46 1_555 1_555
C25 O49 1_555 1_555
C26 O50 1_555 1_555
C27 O51 1_555 1_555
C28 O52 1_555 1_555
C29 N1 1_555 1_555
H20 C29 1_555 1_555
C30 C29 1_555 1_555
H21 C30 1_555 1_555
C31 C30 1_555 1_555
H22 C31 1_555 1_555
C32 C31 1_555 1_555
H23 C32 1_555 1_555
C33 N1 1_555 1_555
C34 N2 1_555 1_555
C35 C34 1_555 1_555
H24 C35 1_555 1_555
C36 C35 1_555 1_555
H25 C36 1_555 1_555
C37 C36 1_555 1_555
H26 C37 1_555 1_555
C38 N2 1_555 1_555
H27 C38 1_555 1_555
C39 N3 1_555 1_555
H28 C39 1_555 1_555
C40 C39 1_555 1_555
H29 C40 1_555 1_555
C41 C40 1_555 1_555
H30 C41 1_555 1_555
C42 C41 1_555 1_555
H31 C42 1_555 1_555
C43 N3 1_555 1_555
C44 N4 1_555 1_555
C45 C44 1_555 1_555
H32 C45 1_555 1_555
C46 C45 1_555 1_555
H33 C46 1_555 1_555
C47 C46 1_555 1_555
H34 C47 1_555 1_555
C48 N4 1_555 1_555
H35 C48 1_555 1_555
C49 N5 1_555 1_555
H36 C49 1_555 1_555
C50 C49 1_555 1_555
H37 C50 1_555 1_555
C51 C50 1_555 1_555
H38 C51 1_555 1_555
C52 C51 1_555 1_555
H39 C52 1_555 1_555
C53 N5 1_555 1_555
C54 N6 1_555 1_555
C55 C54 1_555 1_555
H40 C55 1_555 1_555
C56 C55 1_555 1_555
H41 C56 1_555 1_555
C57 C56 1_555 1_555
H42 C57 1_555 1_555
C58 N6 1_555 1_555
H43 C58 1_555 1_555
C59 N7 1_555 1_555
H44 C59 1_555 1_555
C60 C59 1_555 1_555
H45 C60 1_555 1_555
C61 C60 1_555 1_555
H46 C61 1_555 1_555
C62 C61 1_555 1_555
H47 C62 1_555 1_555
C63 N7 1_555 1_555
C64 N8 1_555 1_555
C65 C64 1_555 1_555
H48 C65 1_555 1_555
C66 C65 1_555 1_555
H49 C66 1_555 1_555
C67 C66 1_555 1_555
H50 C67 1_555 1_555
C68 N8 1_555 1_555
H51 C68 1_555 1_555
C69 N9 1_555 1_555
H52 C69 1_555 1_555
C70 C69 1_555 1_555
H53 C70 1_555 1_555
C71 C70 1_555 1_555
H54 C71 1_555 1_555
C72 C71 1_555 1_555
H55 C72 1_555 1_555
C73 N9 1_555 1_555
C74 N10 1_555 1_555
C75 C74 1_555 1_555
H56 C75 1_555 1_555
C76 C75 1_555 1_555
H57 C76 1_555 1_555
C77 C76 1_555 1_555
H58 C77 1_555 1_555
C78 N10 1_555 1_555
H59 C78 1_555 1_555
C79 N11 1_555 1_555
H60 C79 1_555 1_555
C80 C79 1_555 1_555
H61 C80 1_555 1_555
C81 C80 1_555 1_555
H62 C81 1_555 1_555
C82 C81 1_555 1_555
H63 C82 1_555 1_555
C83 N11 1_555 1_555
C84 N12 1_555 1_555
C85 C84 1_555 1_555
H64 C85 1_555 1_555
C86 C85 1_555 1_555
H65 C86 1_555 1_555
C87 C86 1_555 1_555
H66 C87 1_555 1_555
C88 N12 1_555 1_555
H67 C88 1_555 1_555
Pt6_2 Pt7 1_555 1_555
Pt7_2 Pt6 1_555 1_555
C1 C2 1_555 1_555
C3 C4 1_555 1_555
C5 C6 1_555 1_555
C7 C8 1_555 1_555
C9 C10 1_555 1_555
C11 C12 1_555 1_555
C13 C14 1_555 1_555
C15 C16 1_555 1_555
C17 C18 1_555 1_555
C19 C20 1_555 1_555
C23 C24 1_555 1_555
C25 C26 1_555 1_555
C27 C28 1_555 1_555
C32 C33 1_555 1_555
C33 C34 1_555 1_555
C37 C38 1_555 1_555
C42 C43 1_555 1_555
C43 C44 1_555 1_555
C47 C48 1_555 1_555
C52 C53 1_555 1_555
C53 C54 1_555 1_555
C57 C58 1_555 1_555
C62 C63 1_555 1_555
C63 C64 1_555 1_555
C67 C68 1_555 1_555
C72 C73 1_555 1_555
C73 C74 1_555 1_555
C77 C78 1_555 1_555
C82 C83 1_555 1_555
C83 C84 1_555 1_555
C87 C88 1_555 1_555

#END
