
#######################################################################
#
#                 Cambridge Crystallographic Data Centre
#                                CCDC 
#
#######################################################################
#
# If this CIF has been generated from an entry in the Cambridge 
# Structural Database, then it will include bibliographic, chemical, 
# crystal, experimental, refinement or atomic coordinate data resulting 
# from the CCDC's data processing and validation procedures.
#
#######################################################################

data_KEWBUL
_symmetry_cell_setting           monoclinic
_symmetry_space_group_name_H-M   'P 21/c'
_symmetry_Int_Tables_number      14
_space_group_name_Hall           '-P 2ybc'
loop_
_symmetry_equiv_pos_site_id
_symmetry_equiv_pos_as_xyz
1 x,y,z
2 -x,1/2+y,1/2-z
3 -x,-y,-z
4 x,1/2-y,1/2+z
_cell_length_a                   13.0943(8)
_cell_length_b                   26.7035(16)
_cell_length_c                   13.1320(9)
_cell_angle_alpha                90
_cell_angle_beta                 115.8720(10)
_cell_angle_gamma                90
_cell_volume                     4131.55
loop_
_atom_site_label
_atom_site_type_symbol
_atom_site_fract_x
_atom_site_fract_y
_atom_site_fract_z
Eu1 Eu 0.17896(3) 0.504556(11) 0.58141(3)
Eu2 Eu 0.54888(8) 0.50655(3) 0.99621(7)
C1 C 0.0226(8) 0.5776(3) 0.3881(7)
C2 C -0.0120(7) 0.6276(3) 0.3349(7)
C3 C -0.1156(7) 0.6483(3) 0.3202(8)
H1 H -0.1652 0.6294 0.3381
C4 C -0.1453(7) 0.6963(3) 0.2795(8)
H2 H -0.2147 0.7096 0.2695
C5 C 0.0608(6) 0.6560(3) 0.3062(7)
H3 H 0.1303 0.6427 0.3166
C6 C 0.0305(6) 0.7037(3) 0.2623(7)
C7 C -0.0717(6) 0.7245(2) 0.2537(7)
C8 C -0.0767(6) 0.7765(2) 0.2153(6)
C9 C 0.0943(6) 0.7401(2) 0.2226(7)
C10 C 0.0979(9) 0.7219(3) 0.1144(9)
H4 H 0.1285 0.7470 0.0838
H5 H 0.0190 0.7149 0.0618
H6 H 0.1432 0.6920 0.1279
C11 C 0.2134(7) 0.7505(3) 0.3143(9)
H7 H 0.2475 0.7765 0.2895
H8 H 0.2576 0.7204 0.3256
H9 H 0.2133 0.7601 0.3838
C12 C 0.0187(6) 0.7864(2) 0.1985(6)
C13 C 0.0363(6) 0.8339(2) 0.1667(6)
H10 H 0.1011 0.8407 0.1568
C14 C -0.1568(7) 0.8135(3) 0.1986(7)
H11 H -0.2205 0.8072 0.2106
C15 C -0.1392(7) 0.8603(3) 0.1634(7)
H12 H -0.1939 0.8850 0.1486
C16 C -0.0430(6) 0.8713(2) 0.1495(6)
C17 C -0.0243(7) 0.9231(3) 0.1165(6)
C18 C 0.3780(6) 0.5814(2) 0.7944(7)
C19 C 0.3977(6) 0.6334(2) 0.7623(6)
C20 C 0.4795(6) 0.6636(2) 0.8419(6)
H13 H 0.5227 0.6517 0.9147
C21 C 0.3336(6) 0.6505(2) 0.6530(6)
H14 H 0.2796 0.6298 0.5995
C22 C 0.3503(7) 0.6986(3) 0.6237(6)
H15 H 0.3077 0.7105 0.5506
C23 C 0.4313(6) 0.7290(2) 0.7048(6)
C24 C 0.4968(6) 0.7112(2) 0.8133(6)
C25 C 0.5830(6) 0.7504(2) 0.8861(6)
C26 C 0.7027(7) 0.7321(3) 0.9266(7)
H16 H 0.7142 0.7209 0.8638
H17 H 0.7174 0.7052 0.9787
H18 H 0.7550 0.7591 0.9637
C27 C 0.5598(8) 0.7662(3) 0.9862(7)
H19 H 0.6068 0.7946 1.0231
H20 H 0.5798 0.7390 1.0383
H21 H 0.4795 0.7745 0.9602
C28 C 0.4668(6) 0.7809(2) 0.6968(6)
C29 C 0.5544(6) 0.7936(2) 0.8010(6)
C30 C 0.6044(6) 0.8408(2) 0.8168(7)
H22 H 0.6634 0.8497 0.8859
C31 C 0.4250(7) 0.8142(3) 0.6098(7)
H23 H 0.3639 0.8057 0.5419
C32 C 0.4754(8) 0.8615(3) 0.6244(7)
H24 H 0.4492 0.8844 0.5651
C33 C 0.5640(6) 0.8741(2) 0.7267(7)
C34 C 0.6181(8) 0.9254(3) 0.7395(7)
C35 C 0.4142(10) 0.5317(6) 0.5553(15)
H25 H 0.4633 0.5237 0.6296
C36 C 0.3695(16) 0.5669(8) 0.3780(14)
H26 H 0.3468 0.6006 0.3532
H27 H 0.3046 0.5480 0.3717
H28 H 0.4009 0.5518 0.3315
C37 C 0.5617(14) 0.5904(9) 0.5555(18)
H29 H 0.6136 0.5763 0.5295
H30 H 0.5894 0.5844 0.6352
H31 H 0.5552 0.6258 0.5413
C38 C 0.829(2) 0.4845(10) 1.096(2)
H32 H 0.8453 0.5138 1.1379
C39 C 1.034(3) 0.4815(14) 1.149(3)
H33 H 1.0347 0.5065 1.2015
H34 H 1.0527 0.4968 1.0927
H35 H 1.0884 0.4560 1.1879
C40 C 0.885(3) 0.4070(11) 1.035(3)
H36 H 0.8828 0.3829 1.0880
H37 H 0.9415 0.3974 1.0106
H38 H 0.8119 0.4082 0.9702
N1 N 0.4519(12) 0.5672(6) 0.4954(13)
N2 N 0.684(2) 0.5624(9) 0.896(3)
N3 N 0.9173(15) 0.4537(11) 1.0926(16)
O1 O -0.0528(6) 0.54769(18) 0.3871(5)
O2 O 0.1260(6) 0.5683(2) 0.4379(5)
O3 O -0.1103(5) 0.95153(19) 0.0747(5)
O4 O 0.0740(5) 0.93482(18) 0.1311(5)
O5 O 0.3123(5) 0.55324(18) 0.7174(5)
O6 O 0.4312(6) 0.56854(19) 0.8952(5)
O7 O 0.5760(8) 0.9534(2) 0.6546(6)
O8 O 0.6951(5) 0.93683(18) 0.8305(5)
O9 O 0.3225(6) 0.5121(3) 0.5134(6)
O10 O 0.6878(15) 0.5741(6) 0.9892(18)
O11 O 0.6142(15) 0.5306(8) 0.8509(16)
O12 O 0.7315(18) 0.5880(9) 0.857(2)
O13 O 0.7329(14) 0.4702(6) 1.0403(15)
Eu1A Eu -0.17896(3) 1.004556(11) -0.08141(3)
Eu1A_2 Eu 0.82104(3) 1.004556(11) 0.91859(3)
Eu1B Eu -0.17896(3) 0.495444(11) 0.41859(3)
Eu1C Eu 0.17896(3) 0.995444(11) 0.08141(3)
Eu2A Eu 0.45112(8) 1.00655(3) 0.50379(7)
Eu2B Eu 0.45112(8) 0.49345(3) 1.00379(7)
Eu2C Eu 0.54888(8) 0.99345(3) 0.49621(7)
O1B O 0.0528(6) 0.45231(18) 0.6129(5)
O3A O 0.1103(5) 0.45153(19) 0.4253(5)
O4C O 0.0740(5) 0.56518(18) 0.6311(5)
O6B O 0.5688(6) 0.43146(19) 1.1048(5)
O7A O 0.4240(8) 0.4534(2) 0.8454(6)
O7C O 0.5760(8) 0.5466(2) 1.1546(6)
O8A O 0.3049(5) 0.43683(18) 0.6695(5)
loop_
_geom_bond_atom_site_label_1
_geom_bond_atom_site_label_2
_geom_bond_site_symmetry_1
_geom_bond_site_symmetry_2
Eu1 O2 1_555 1_555
Eu2 O6 1_555 1_555
C1 C2 1_555 1_555
C2 C3 1_555 1_555
C3 H1 1_555 1_555
C4 C3 1_555 1_555
H2 C4 1_555 1_555
C5 C2 1_555 1_555
H3 C5 1_555 1_555
C6 C5 1_555 1_555
C7 C4 1_555 1_555
C8 C7 1_555 1_555
C9 C6 1_555 1_555
C10 C9 1_555 1_555
H4 C10 1_555 1_555
H5 C10 1_555 1_555
H6 C10 1_555 1_555
C11 C9 1_555 1_555
H7 C11 1_555 1_555
H8 C11 1_555 1_555
H9 C11 1_555 1_555
C12 C8 1_555 1_555
C13 C12 1_555 1_555
H10 C13 1_555 1_555
C14 C8 1_555 1_555
H11 C14 1_555 1_555
C15 C14 1_555 1_555
H12 C15 1_555 1_555
C16 C13 1_555 1_555
C17 C16 1_555 1_555
C18 C19 1_555 1_555
C19 C20 1_555 1_555
C20 H13 1_555 1_555
C21 C19 1_555 1_555
H14 C21 1_555 1_555
C22 C21 1_555 1_555
H15 C22 1_555 1_555
C23 C22 1_555 1_555
C24 C20 1_555 1_555
C25 C24 1_555 1_555
C26 C25 1_555 1_555
H16 C26 1_555 1_555
H17 C26 1_555 1_555
H18 C26 1_555 1_555
C27 C25 1_555 1_555
H19 C27 1_555 1_555
H20 C27 1_555 1_555
H21 C27 1_555 1_555
C28 C23 1_555 1_555
C29 C25 1_555 1_555
C30 C29 1_555 1_555
H22 C30 1_555 1_555
C31 C28 1_555 1_555
H23 C31 1_555 1_555
C32 C31 1_555 1_555
H24 C32 1_555 1_555
C33 C30 1_555 1_555
C34 C33 1_555 1_555
C35 H25 1_555 1_555
C36 H26 1_555 1_555
H27 C36 1_555 1_555
H28 C36 1_555 1_555
C37 H29 1_555 1_555
H30 C37 1_555 1_555
H31 C37 1_555 1_555
C38 H32 1_555 1_555
C39 H33 1_555 1_555
H34 C39 1_555 1_555
H35 C39 1_555 1_555
C40 H36 1_555 1_555
H37 C40 1_555 1_555
H38 C40 1_555 1_555
N1 C35 1_555 1_555
N2 O10 1_555 1_555
N3 C38 1_555 1_555
O1 C1 1_555 1_555
O2 C1 1_555 1_555
O3 C17 1_555 1_555
O4 C17 1_555 1_555
O5 Eu1 1_555 1_555
O6 C18 1_555 1_555
O7 C34 1_555 1_555
O8 C34 1_555 1_555
O9 Eu1 1_555 1_555
O10 Eu2 1_555 1_555
O11 Eu2 1_555 1_555
O12 N2 1_555 1_555
O13 Eu2 1_555 1_555
Eu1A O3 1_555 1_555
Eu1A_2 O8 1_555 1_555
Eu1B O1 1_555 1_555
Eu1C O4 1_555 1_555
Eu2A O7 1_555 1_555
Eu2B Eu2 1_555 1_555
Eu2C O7 1_555 1_555
O1B Eu1 1_555 1_555
O3A Eu1 1_555 1_555
O4C Eu1 1_555 1_555
O6B Eu2 1_555 1_555
O7A Eu2 1_555 1_555
O7C Eu2 1_555 1_555
O8A Eu1 1_555 1_555
C6 C7 1_555 1_555
C9 C12 1_555 1_555
C15 C16 1_555 1_555
C18 O5 1_555 1_555
C23 C24 1_555 1_555
C28 C29 1_555 1_555
C32 C33 1_555 1_555
C35 O9 1_555 1_555
C36 N1 1_555 1_555
C37 N1 1_555 1_555
C38 O13 1_555 1_555
C39 N3 1_555 1_555
C40 N3 1_555 1_555
N2 O11 1_555 1_555
O6 Eu2B 1_555 1_555
Eu2A Eu2C 1_555 1_555
Eu2B O6B 1_555 1_555
Eu2B O7A 1_555 1_555
Eu2B O7C 1_555 1_555

#END
