
#######################################################################
#
#                 Cambridge Crystallographic Data Centre
#                                CCDC 
#
#######################################################################
#
# If this CIF has been generated from an entry in the Cambridge 
# Structural Database, then it will include bibliographic, chemical, 
# crystal, experimental, refinement or atomic coordinate data resulting 
# from the CCDC's data processing and validation procedures.
#
#######################################################################

data_KEWMEG
_symmetry_cell_setting           monoclinic
_symmetry_space_group_name_H-M   'P 21/c'
_symmetry_Int_Tables_number      14
_space_group_name_Hall           '-P 2ybc'
loop_
_symmetry_equiv_pos_site_id
_symmetry_equiv_pos_as_xyz
1 x,y,z
2 -x,1/2+y,1/2-z
3 -x,-y,-z
4 x,1/2-y,1/2+z
_cell_length_a                   9.4093(8)
_cell_length_b                   16.6535(14)
_cell_length_c                   14.8361(12)
_cell_angle_alpha                90
_cell_angle_beta                 101.136(2)
_cell_angle_gamma                90
_cell_volume                     2281.01
loop_
_atom_site_label
_atom_site_type_symbol
_atom_site_fract_x
_atom_site_fract_y
_atom_site_fract_z
Zn1 Zn 0.32064(5) 0.69485(3) 0.76679(3)
O1 O 0.5057(4) 0.68546(19) 0.7278(2)
O2 O 0.7635(6) 0.6830(4) 0.7570(6)
O3 O 0.6185(5) 0.7125(3) 0.8699(3)
O4 O 0.1540(4) 0.67093(19) 0.6692(2)
O5 O 0.2155(5) 0.7704(2) 0.5864(3)
O6 O -0.0130(7) 0.7053(4) 0.5331(4)
N1 N 0.3146(3) 0.60366(18) 0.8578(2)
N2 N 0.2665(3) 0.53460(19) 0.9774(2)
N3 N 0.2808(4) 0.79319(19) 0.8378(2)
N4 N 0.3182(4) 0.8790(2) 0.9546(2)
N5 N 0.6198(5) 0.6947(3) 0.7894(4)
N6 N 0.1300(5) 0.7172(3) 0.5994(3)
C1 C 0.2580(4) 0.6056(2) 0.9327(3)
H1 H 0.2165 0.6513 0.9527
C2 C 0.3655(4) 0.5253(2) 0.8536(2)
C3 C 0.4355(5) 0.4887(3) 0.7901(3)
H2 H 0.4557 0.5169 0.7400
C4 C 0.4738(5) 0.4093(3) 0.8040(3)
H3 H 0.5206 0.3835 0.7623
C5 C 0.4441(5) 0.3665(3) 0.8791(3)
H4 H 0.4729 0.3131 0.8865
C6 C 0.3739(4) 0.4006(2) 0.9426(3)
H5 H 0.3529 0.3716 0.9920
C7 C 0.3357(4) 0.4816(2) 0.9284(2)
C8 C 0.2030(4) 0.5164(3) 1.0580(3)
H6 H 0.1904 0.5658 1.0901
H7 H 0.2686 0.4821 1.0996
C9 C 0.0566(4) 0.4743(3) 1.0299(3)
H8 H 0.0699 0.4254 0.9970
H9 H 0.0216 0.4593 1.0849
C10 C 0.3634(5) 0.8133(2) 0.9176(3)
H10 H 0.4449 0.7843 0.9449
C11 C 0.1718(4) 0.8509(2) 0.8226(3)
C12 C 0.0513(5) 0.8591(3) 0.7525(3)
H11 H 0.0317 0.8222 0.7047
C13 C -0.0370(6) 0.9232(4) 0.7564(4)
H12 H -0.1179 0.9297 0.7098
C14 C -0.0117(7) 0.9796(4) 0.8269(4)
H13 H -0.0740 1.0231 0.8259
C15 C 0.1052(6) 0.9715(3) 0.8983(4)
H14 H 0.1230 1.0079 0.9466
C16 C 0.1954(5) 0.9056(2) 0.8941(3)
C17 C 0.3861(6) 0.9157(3) 1.0425(3)
H15 H 0.4155 0.8738 1.0877
H16 H 0.3160 0.9496 1.0643
C18 C 0.5162(6) 0.9652(3) 1.0326(4)
H17 H 0.5609 0.9855 1.0926
H18 H 0.5860 0.9305 1.0116
N1B N -0.3146(3) 0.39634(18) 1.1422(2)
N2B N -0.2665(3) 0.46540(19) 1.0226(2)
C1B C -0.2580(4) 0.3944(2) 1.0673(3)
H1B H -0.2165 0.3487 1.0473
C2B C -0.3655(4) 0.4747(2) 1.1464(2)
C3B C -0.4355(5) 0.5113(3) 1.2099(3)
H2B H -0.4557 0.4831 1.2600
C4B C -0.4738(5) 0.5907(3) 1.1960(3)
H3B H -0.5206 0.6165 1.2377
C5B C -0.4441(5) 0.6335(3) 1.1209(3)
H4B H -0.4729 0.6869 1.1135
C6B C -0.3739(4) 0.5994(2) 1.0574(3)
H5B H -0.3529 0.6284 1.0080
C7B C -0.3357(4) 0.5184(2) 1.0716(2)
C8B C -0.2030(4) 0.4836(3) 0.9420(3)
H6B H -0.1904 0.4342 0.9099
H7B H -0.2686 0.5179 0.9004
C9B C -0.0566(4) 0.5257(3) 0.9701(3)
H8B H -0.0699 0.5746 1.0030
H9B H -0.0216 0.5407 0.9151
N3B N 0.7192(4) 1.20681(19) 1.1622(2)
N4B N 0.6818(4) 1.1210(2) 1.0454(2)
C10B C 0.6366(5) 1.1867(2) 1.0824(3)
H10B H 0.5551 1.2157 1.0551
C11B C 0.8282(4) 1.1491(2) 1.1774(3)
C12B C 0.9487(5) 1.1409(3) 1.2475(3)
H11B H 0.9683 1.1778 1.2953
C13B C 1.0370(6) 1.0768(4) 1.2436(4)
H12B H 1.1179 1.0703 1.2902
C14B C 1.0117(7) 1.0204(4) 1.1731(4)
H13B H 1.0740 0.9769 1.1741
C15B C 0.8948(6) 1.0285(3) 1.1017(4)
H14B H 0.8770 0.9921 1.0534
C16B C 0.8046(5) 1.0944(2) 1.1059(3)
C17B C 0.6139(6) 1.0843(3) 0.9575(3)
H15B H 0.5845 1.1262 0.9123
H16B H 0.6840 1.0504 0.9357
C18B C 0.4838(6) 1.0348(3) 0.9674(4)
H17B H 0.4391 1.0145 0.9074
H18B H 0.4140 1.0695 0.9884
Zn1B Zn -0.32064(5) 0.30515(3) 1.23321(3)
O1B O -0.5057(4) 0.31454(19) 1.2722(2)
O2B O -0.7635(6) 0.3170(4) 1.2430(6)
O3B O -0.6185(5) 0.2875(3) 1.1301(3)
O4B O -0.1540(4) 0.32907(19) 1.3308(2)
O5B O -0.2155(5) 0.2296(2) 1.4136(3)
O6B O 0.0130(7) 0.2947(4) 1.4669(4)
N5B N -0.6198(5) 0.3053(3) 1.2106(4)
N6B N -0.1300(5) 0.2828(3) 1.4006(3)
Zn1B_2 Zn 0.67936(5) 1.30515(3) 1.23321(3)
N3B_2 N -0.2808(4) 0.20681(19) 1.1622(2)
loop_
_geom_bond_atom_site_label_1
_geom_bond_atom_site_label_2
_geom_bond_site_symmetry_1
_geom_bond_site_symmetry_2
Zn1 O1 1_555 1_555
O1 N5 1_555 1_555
O2 N5 1_555 1_555
O3 N5 1_555 1_555
O4 Zn1 1_555 1_555
O5 N6 1_555 1_555
O6 N6 1_555 1_555
N1 Zn1 1_555 1_555
N2 C1 1_555 1_555
N3 Zn1 1_555 1_555
N4 C10 1_555 1_555
N6 O4 1_555 1_555
C1 N1 1_555 1_555
H1 C1 1_555 1_555
C2 N1 1_555 1_555
C3 C2 1_555 1_555
H2 C3 1_555 1_555
C4 C3 1_555 1_555
H3 C4 1_555 1_555
C5 C4 1_555 1_555
H4 C5 1_555 1_555
C6 C5 1_555 1_555
H5 C6 1_555 1_555
C7 N2 1_555 1_555
C8 N2 1_555 1_555
H6 C8 1_555 1_555
H7 C8 1_555 1_555
C9 C8 1_555 1_555
H8 C9 1_555 1_555
H9 C9 1_555 1_555
C10 N3 1_555 1_555
H10 C10 1_555 1_555
C11 N3 1_555 1_555
C12 C11 1_555 1_555
H11 C12 1_555 1_555
C13 C12 1_555 1_555
H12 C13 1_555 1_555
C14 C13 1_555 1_555
H13 C14 1_555 1_555
C15 C14 1_555 1_555
H14 C15 1_555 1_555
C16 N4 1_555 1_555
C17 N4 1_555 1_555
H15 C17 1_555 1_555
H16 C17 1_555 1_555
C18 C17 1_555 1_555
H17 C18 1_555 1_555
H18 C18 1_555 1_555
N1B C1B 1_555 1_555
N2B C1B 1_555 1_555
C1B H1B 1_555 1_555
C2B N1B 1_555 1_555
C3B C2B 1_555 1_555
H2B C3B 1_555 1_555
C4B C3B 1_555 1_555
H3B C4B 1_555 1_555
C5B C4B 1_555 1_555
H4B C5B 1_555 1_555
C6B C5B 1_555 1_555
H5B C6B 1_555 1_555
C7B N2B 1_555 1_555
C8B N2B 1_555 1_555
H6B C8B 1_555 1_555
H7B C8B 1_555 1_555
C9B C9 1_555 1_555
H8B C9B 1_555 1_555
H9B C9B 1_555 1_555
N3B C10B 1_555 1_555
N4B C10B 1_555 1_555
C10B H10B 1_555 1_555
C11B N3B 1_555 1_555
C12B C11B 1_555 1_555
H11B C12B 1_555 1_555
C13B C12B 1_555 1_555
H12B C13B 1_555 1_555
C14B C13B 1_555 1_555
H13B C14B 1_555 1_555
C15B C14B 1_555 1_555
H14B C15B 1_555 1_555
C16B N4B 1_555 1_555
C17B N4B 1_555 1_555
H15B C17B 1_555 1_555
H16B C17B 1_555 1_555
C18B C18 1_555 1_555
H17B C18B 1_555 1_555
H18B C18B 1_555 1_555
Zn1B N1B 1_555 1_555
O1B Zn1B 1_555 1_555
O2B N5B 1_555 1_555
O3B N5B 1_555 1_555
O4B Zn1B 1_555 1_555
O5B N6B 1_555 1_555
O6B N6B 1_555 1_555
N5B O1B 1_555 1_555
N6B O4B 1_555 1_555
Zn1B_2 N3B 1_555 1_555
N3B_2 Zn1B 1_555 1_555
C2 C7 1_555 1_555
C6 C7 1_555 1_555
C11 C16 1_555 1_555
C15 C16 1_555 1_555
C2B C7B 1_555 1_555
C6B C7B 1_555 1_555
C8B C9B 1_555 1_555
C11B C16B 1_555 1_555
C15B C16B 1_555 1_555
C17B C18B 1_555 1_555

#END
