
#######################################################################
#
#                 Cambridge Crystallographic Data Centre
#                                CCDC 
#
#######################################################################
#
# If this CIF has been generated from an entry in the Cambridge 
# Structural Database, then it will include bibliographic, chemical, 
# crystal, experimental, refinement or atomic coordinate data resulting 
# from the CCDC's data processing and validation procedures.
#
#######################################################################

data_KEWMAC
_symmetry_cell_setting           triclinic
_symmetry_space_group_name_H-M   'P -1'
_symmetry_Int_Tables_number      2
_space_group_name_Hall           '-P 1'
loop_
_symmetry_equiv_pos_site_id
_symmetry_equiv_pos_as_xyz
1 x,y,z
2 -x,-y,-z
_cell_length_a                   8.9518(12)
_cell_length_b                   10.8374(15)
_cell_length_c                   14.0505(19)
_cell_angle_alpha                76.645(2)
_cell_angle_beta                 76.305(2)
_cell_angle_gamma                79.093(2)
_cell_volume                     1275.42
loop_
_atom_site_label
_atom_site_type_symbol
_atom_site_fract_x
_atom_site_fract_y
_atom_site_fract_z
Zn1 Zn 0.10336(3) 0.58980(2) 0.189937(17)
O1 O 0.2864(2) 0.48997(17) 0.12097(14)
O2 O 0.2597(3) 0.3124(2) 0.2271(2)
O3 O -0.08350(19) 0.53363(15) 0.18062(15)
O4 O -0.2238(2) 0.71452(18) 0.21343(15)
N1 N 0.1313(2) 0.58674(18) 0.32799(13)
N2 N 0.2168(2) 0.5121(2) 0.46894(14)
N3 N 0.13558(19) 0.76027(16) 0.09876(13)
N4 N 0.21096(18) 0.94994(16) 0.02797(13)
C1 C 0.2168(3) 0.4936(2) 0.37841(18)
H1 H 0.2717 0.4222 0.3533
C2 C 0.0702(2) 0.6737(2) 0.39180(16)
C3 C -0.0309(3) 0.7885(2) 0.3791(2)
H2 H -0.0683 0.8207 0.3205
C4 C -0.0725(4) 0.8519(3) 0.4585(2)
H3 H -0.1387 0.9293 0.4527
C5 C -0.0188(4) 0.8038(4) 0.5463(2)
H4 H -0.0507 0.8498 0.5976
C6 C 0.0791(4) 0.6913(3) 0.5605(2)
H5 H 0.1140 0.6594 0.6199
C7 C 0.1240(3) 0.6266(3) 0.48078(17)
C8 C 0.3063(3) 0.4287(3) 0.5402(2)
H6 H 0.3442 0.3471 0.5194
H7 H 0.2388 0.4126 0.6055
C9 C 0.4433(3) 0.4878(3) 0.5478(2)
H8 H 0.4045 0.5681 0.5705
H9 H 0.4962 0.4309 0.5976
C10 C 0.1881(2) 0.8595(2) 0.11159(16)
H10 H 0.2075 0.8665 0.1722
C11 C 0.1231(2) 0.78725(19) -0.00116(15)
C12 C 0.0748(3) 0.7160(2) -0.05646(18)
H11 H 0.0439 0.6362 -0.0275
C13 C 0.0749(3) 0.7684(2) -0.15527(19)
H12 H 0.0426 0.7236 -0.1940
C14 C 0.1227(3) 0.8885(3) -0.19895(19)
H13 H 0.1213 0.9210 -0.2661
C15 C 0.1716(3) 0.9596(2) -0.14596(17)
H14 H 0.2034 1.0390 -0.1753
C16 C 0.1707(2) 0.90624(19) -0.04605(15)
C17 C 0.2794(2) 1.06684(19) 0.01439(18)
H15 H 0.2667 1.0904 0.0787
H16 H 0.2255 1.1363 -0.0276
C18 C 0.4512(2) 1.04797(19) -0.03330(16)
H17 H 0.4895 1.1298 -0.0493
H18 H 0.4636 1.0188 -0.0954
C19 C 0.3316(3) 0.3746(2) 0.1523(2)
C20 C 0.4798(3) 0.3138(3) 0.0963(2)
H19 H 0.5580 0.2959 0.1359
H20 H 0.5131 0.3710 0.0348
H21 H 0.4635 0.2353 0.0822
C21 C -0.2095(3) 0.6117(2) 0.18833(17)
C22 C -0.3439(4) 0.5675(3) 0.1646(3)
H22 H -0.4363 0.6271 0.1788
H23 H -0.3590 0.4844 0.2046
H24 H -0.3219 0.5627 0.0951
N1A N 0.8687(2) 0.41326(18) 0.67201(13)
N2A N 0.7832(2) 0.4879(2) 0.53106(14)
C1A C 0.7832(3) 0.5064(2) 0.62159(18)
H1A H 0.7283 0.5778 0.6467
C2A C 0.9298(2) 0.3263(2) 0.60820(16)
C3A C 1.0309(3) 0.2115(2) 0.6209(2)
H2A H 1.0683 0.1793 0.6795
C4A C 1.0725(4) 0.1481(3) 0.5415(2)
H3A H 1.1387 0.0707 0.5473
C5A C 1.0188(4) 0.1962(4) 0.4537(2)
H4A H 1.0507 0.1502 0.4024
C6A C 0.9209(4) 0.3087(3) 0.4395(2)
H5A H 0.8860 0.3406 0.3801
C7A C 0.8760(3) 0.3734(3) 0.51922(17)
C8A C 0.6937(3) 0.5713(3) 0.4598(2)
H6A H 0.6558 0.6529 0.4806
H7A H 0.7612 0.5874 0.3945
C9A C 0.5567(3) 0.5122(3) 0.4522(2)
H8A H 0.5955 0.4319 0.4295
H9A H 0.5038 0.5691 0.4024
N3A N 0.86442(19) 1.23973(16) -0.09876(13)
N4A N 0.78904(18) 1.05006(16) -0.02797(13)
C10A C 0.8119(2) 1.1405(2) -0.11159(16)
H10A H 0.7925 1.1335 -0.1722
C11A C 0.8769(2) 1.21275(19) 0.00116(15)
C12A C 0.9252(3) 1.2840(2) 0.05646(18)
H11A H 0.9561 1.3638 0.0275
C13A C 0.9251(3) 1.2316(2) 0.15527(19)
H12A H 0.9574 1.2764 0.1940
C14A C 0.8773(3) 1.1115(3) 0.19895(19)
H13A H 0.8787 1.0790 0.2661
C15A C 0.8284(3) 1.0404(2) 0.14596(17)
H14A H 0.7966 0.9610 0.1753
C16A C 0.8293(2) 1.09376(19) 0.04605(15)
C17A C 0.7206(2) 0.93316(19) -0.01439(18)
H15A H 0.7333 0.9096 -0.0787
H16A H 0.7745 0.8637 0.0276
C18A C 0.5488(2) 0.95203(19) 0.03330(16)
H17A H 0.5105 0.8702 0.0493
H18A H 0.5364 0.9812 0.0954
Zn1A Zn 0.89664(3) 0.41020(2) 0.810063(17)
O1A O 0.7136(2) 0.51003(17) 0.87903(14)
O2A O 0.7403(3) 0.6876(2) 0.7729(2)
O3A O 1.08350(19) 0.46637(15) 0.81938(15)
O4A O 1.2238(2) 0.28548(18) 0.78657(15)
C19A C 0.6684(3) 0.6254(2) 0.8477(2)
C20A C 0.5202(3) 0.6862(3) 0.9037(2)
H19A H 0.4420 0.7041 0.8641
H20A H 0.4869 0.6290 0.9652
H21A H 0.5365 0.7647 0.9178
C21A C 1.2095(3) 0.3883(2) 0.81167(17)
C22A C 1.3439(4) 0.4325(3) 0.8354(3)
H22A H 1.4363 0.3729 0.8212
H23A H 1.3590 0.5156 0.7954
H24A H 1.3219 0.4373 0.9049
Zn1A_2 Zn 0.89664(3) 1.41020(2) -0.189937(17)
N3A_2 N 0.86442(19) 0.23973(16) 0.90124(13)
loop_
_geom_bond_atom_site_label_1
_geom_bond_atom_site_label_2
_geom_bond_site_symmetry_1
_geom_bond_site_symmetry_2
Zn1 O1 1_555 1_555
O1 C19 1_555 1_555
O2 C19 1_555 1_555
O3 Zn1 1_555 1_555
O4 C21 1_555 1_555
N1 Zn1 1_555 1_555
N2 C1 1_555 1_555
N3 Zn1 1_555 1_555
N4 C10 1_555 1_555
C1 N1 1_555 1_555
H1 C1 1_555 1_555
C2 N1 1_555 1_555
C3 C2 1_555 1_555
H2 C3 1_555 1_555
C4 C3 1_555 1_555
H3 C4 1_555 1_555
C5 C4 1_555 1_555
H4 C5 1_555 1_555
C6 C5 1_555 1_555
H5 C6 1_555 1_555
C7 N2 1_555 1_555
C8 N2 1_555 1_555
H6 C8 1_555 1_555
H7 C8 1_555 1_555
C9 C8 1_555 1_555
H8 C9 1_555 1_555
H9 C9 1_555 1_555
C10 N3 1_555 1_555
H10 C10 1_555 1_555
C11 N3 1_555 1_555
C12 C11 1_555 1_555
H11 C12 1_555 1_555
C13 C12 1_555 1_555
H12 C13 1_555 1_555
C14 C13 1_555 1_555
H13 C14 1_555 1_555
C15 C14 1_555 1_555
H14 C15 1_555 1_555
C16 N4 1_555 1_555
C17 N4 1_555 1_555
H15 C17 1_555 1_555
H16 C17 1_555 1_555
C18 C17 1_555 1_555
H17 C18 1_555 1_555
H18 C18 1_555 1_555
C19 C20 1_555 1_555
C20 H19 1_555 1_555
H20 C20 1_555 1_555
H21 C20 1_555 1_555
C21 O3 1_555 1_555
C22 C21 1_555 1_555
H22 C22 1_555 1_555
H23 C22 1_555 1_555
H24 C22 1_555 1_555
N1A C1A 1_555 1_555
N2A C1A 1_555 1_555
C1A H1A 1_555 1_555
C2A N1A 1_555 1_555
C3A C2A 1_555 1_555
H2A C3A 1_555 1_555
C4A C3A 1_555 1_555
H3A C4A 1_555 1_555
C5A C4A 1_555 1_555
H4A C5A 1_555 1_555
C6A C5A 1_555 1_555
H5A C6A 1_555 1_555
C7A N2A 1_555 1_555
C8A N2A 1_555 1_555
H6A C8A 1_555 1_555
H7A C8A 1_555 1_555
C9A C9 1_555 1_555
H8A C9A 1_555 1_555
H9A C9A 1_555 1_555
N3A C10A 1_555 1_555
N4A C10A 1_555 1_555
C10A H10A 1_555 1_555
C11A N3A 1_555 1_555
C12A C11A 1_555 1_555
H11A C12A 1_555 1_555
C13A C12A 1_555 1_555
H12A C13A 1_555 1_555
C14A C13A 1_555 1_555
H13A C14A 1_555 1_555
C15A C14A 1_555 1_555
H14A C15A 1_555 1_555
C16A N4A 1_555 1_555
C17A N4A 1_555 1_555
H15A C17A 1_555 1_555
H16A C17A 1_555 1_555
C18A C18 1_555 1_555
H17A C18A 1_555 1_555
H18A C18A 1_555 1_555
Zn1A N1A 1_555 1_555
O1A Zn1A 1_555 1_555
O2A C19A 1_555 1_555
O3A Zn1A 1_555 1_555
O4A C21A 1_555 1_555
C19A O1A 1_555 1_555
C20A C19A 1_555 1_555
H19A C20A 1_555 1_555
H20A C20A 1_555 1_555
H21A C20A 1_555 1_555
C21A O3A 1_555 1_555
C22A C21A 1_555 1_555
H22A C22A 1_555 1_555
H23A C22A 1_555 1_555
H24A C22A 1_555 1_555
Zn1A_2 N3A 1_555 1_555
N3A_2 Zn1A 1_555 1_555
C2 C7 1_555 1_555
C6 C7 1_555 1_555
C11 C16 1_555 1_555
C15 C16 1_555 1_555
C2A C7A 1_555 1_555
C6A C7A 1_555 1_555
C8A C9A 1_555 1_555
C11A C16A 1_555 1_555
C15A C16A 1_555 1_555
C17A C18A 1_555 1_555

#END
