
#######################################################################
#
#                 Cambridge Crystallographic Data Centre
#                                CCDC 
#
#######################################################################
#
# If this CIF has been generated from an entry in the Cambridge 
# Structural Database, then it will include bibliographic, chemical, 
# crystal, experimental, refinement or atomic coordinate data resulting 
# from the CCDC's data processing and validation procedures.
#
#######################################################################

data_KEWNUX
_symmetry_cell_setting           rhombohedral
_symmetry_space_group_name_H-M   'R 3'
_symmetry_Int_Tables_number      146
_space_group_name_Hall           'R 3'
loop_
_symmetry_equiv_pos_site_id
_symmetry_equiv_pos_as_xyz
1 x,y,z
2 -y,x-y,z
3 -x+y,-x,z
4 2/3+x,1/3+y,1/3+z
5 2/3-y,1/3+x-y,1/3+z
6 2/3-x+y,1/3-x,1/3+z
7 1/3+x,2/3+y,2/3+z
8 1/3-y,2/3+x-y,2/3+z
9 1/3-x+y,2/3-x,2/3+z
_cell_length_a                   20.9112(3)
_cell_length_b                   20.9112(3)
_cell_length_c                   38.3502(10)
_cell_angle_alpha                90
_cell_angle_beta                 90
_cell_angle_gamma                120
_cell_volume                     14523
loop_
_atom_site_label
_atom_site_type_symbol
_atom_site_fract_x
_atom_site_fract_y
_atom_site_fract_z
W1 W 0.08393(5) 0.98344(5) 0.68496(2)
W2 W 0.07574(5) 0.88417(5) 0.60304(2)
W3 W 0.07335(4) 0.88119(4) 0.505129(19)
W4 W 0.09111(4) 0.99546(4) 0.42818(2)
W5 W 0.19294(4) 1.08330(4) 0.509882(19)
W6 W 0.19322(4) 1.08564(4) 0.60782(2)
W7 W 0.35480(5) 0.76922(5) 0.57871(2)
W8 W 0.27235(5) 0.79606(5) 0.65922(2)
W9 W 0.27588(5) 0.79804(5) 0.75646(2)
W10 W 0.36144(5) 0.77056(5) 0.83478(2)
W11 W 0.47248(5) 0.85258(5) 0.75461(2)
W12 W 0.46903(5) 0.85356(4) 0.65693(2)
Cu1 Cu 0.06442(15) 0.71792(15) 0.62962(7)
Cu2 Cu 0.30506(16) 1.00942(16) 0.48790(7)
Cu3 Cu 0.0758(2) 0.6303(2) 0.46406(9)
Cu4 Cu 0.3192(3) 1.0447(2) 0.31823(11)
P1 P 0.0000 1.0000 0.6082(2)
P2 P 0.0000 1.0000 0.5045(2)
P3 P 0.3333 0.6667 0.6550(3)
P4 P 0.3333 0.6667 0.7590(2)
O1 O 0.0749(8) 0.9170(8) 0.6522(4)
O2 O 0.0000 1.0000 0.6502(6)
O3 O 0.1558(7) 1.0565(8) 0.6525(4)
O4 O -0.0110(8) 0.9196(8) 0.7040(4)
O5 O 0.1375(8) 0.9758(8) 0.7154(4)
O6 O -0.0073(8) 0.9265(8) 0.5970(4)
O7 O 0.0622(8) 0.8680(8) 0.5553(4)
O8 O 0.1477(8) 0.9823(8) 0.5971(4)
O9 O 0.1282(8) 0.8432(8) 0.6121(4)
O10 O -0.0193(8) 0.8033(8) 0.6126(4)
O11 O 0.0754(8) 0.9169(8) 0.4605(4)
O12 O -0.0089(8) 0.9252(8) 0.5163(4)
O13 O 0.1481(8) 0.9796(8) 0.5163(4)
O14 O 0.1245(8) 0.8385(8) 0.4988(4)
O15 O -0.0218(8) 0.8015(8) 0.4999(4)
O16 O 0.0000 1.0000 0.4636(6)
O17 O 0.1586(8) 1.0578(8) 0.4612(4)
O18 O 0.1465(9) 0.9893(9) 0.3974(4)
O19 O -0.0054(8) 0.9250(8) 0.4097(4)
O20 O 0.2011(8) 1.0983(8) 0.5569(4)
O21 O 0.2818(8) 1.1020(8) 0.5009(4)
O22 O 0.2833(8) 1.1084(8) 0.6140(4)
O23 O 0.2968(8) 0.7814(8) 0.6111(4)
O24 O 0.3333 0.6667 0.6133(6)
O25 O 0.4332(8) 0.8211(8) 0.6107(4)
O26 O 0.2712(8) 0.6849(8) 0.5597(4)
O27 O 0.3683(9) 0.8321(9) 0.5483(4)
O28 O 0.2568(8) 0.7878(8) 0.7080(4)
O29 O 0.3788(8) 0.8434(8) 0.6668(4)
O30 O 0.1744(8) 0.7182(8) 0.6503(4)
O31 O 0.2636(8) 0.8711(8) 0.6519(4)
O32 O 0.2980(8) 0.7841(8) 0.8026(4)
O33 O 0.3770(8) 0.8416(8) 0.7467(4)
O34 O 0.2753(8) 0.6871(8) 0.7469(4)
O35 O 0.2658(8) 0.8743(8) 0.7629(4)
O36 O 0.3333 0.6667 0.8001(6)
O37 O 0.4372(8) 0.8249(8) 0.8020(4)
O38 O 0.2733(8) 0.6872(8) 0.8527(4)
O39 O 0.3773(8) 0.8348(8) 0.8650(4)
O40 O 0.4836(8) 0.8564(8) 0.7061(4)
O41 O 0.5221(8) 0.9422(8) 0.7634(4)
O42 O 0.5434(8) 0.8247(8) 0.7628(4)
O43 O 0.5213(8) 0.9457(8) 0.6474(4)
O44 O 0.3131(8) 0.5892(8) 0.6665(4)
O45 O 0.0619(12) 0.5123(12) 0.4666(6)
N1 N 0.0478(10) 0.7300(10) 0.6774(5)
N2 N 0.0380(10) 0.7567(10) 0.7489(5)
N3 N 0.3289(11) 0.9930(11) 0.5336(5)
N4 N 0.3710(11) 0.9963(11) 0.6027(5)
N5 N 0.2962(12) 1.0148(12) 0.4390(5)
N6 N 0.3080(13) 1.0336(12) 0.3676(6)
N7 N 0.0737(11) 0.6611(11) 0.5116(5)
N8 N 0.0656(10) 0.6950(10) 0.5811(5)
C1 C -0.0067(12) 0.6758(12) 0.6985(6)
C2 C -0.0544(12) 0.6098(12) 0.6835(6)
H1 H -0.0535 0.6014 0.6592
C3 C -0.1039(13) 0.5558(13) 0.7057(6)
H2 H -0.1375 0.5092 0.6958
C4 C -0.1086(12) 0.5641(13) 0.7411(6)
H3 H -0.1429 0.5248 0.7555
C5 C -0.0582(12) 0.6364(12) 0.7549(6)
H4 H -0.0610 0.6454 0.7790
C6 C -0.0101(12) 0.6888(12) 0.7363(6)
C7 C 0.0874(12) 0.8061(12) 0.7283(6)
H5 H 0.1205 0.8533 0.7378
C8 C 0.0951(12) 0.7941(12) 0.6928(6)
H6 H 0.1341 0.8319 0.6795
C9 C 0.0057(13) 0.6688(13) 0.5606(6)
C10 C -0.0610(12) 0.6572(12) 0.5744(6)
H7 H -0.0646 0.6653 0.5985
C11 C -0.1211(13) 0.6343(12) 0.5533(6)
H8 H -0.1653 0.6297 0.5626
C12 C -0.1185(13) 0.6170(13) 0.5173(6)
H9 H -0.1608 0.5986 0.5027
C13 C -0.0545(13) 0.6277(13) 0.5054(6)
H10 H -0.0530 0.6177 0.4813
C14 C 0.0105(13) 0.6517(13) 0.5237(6)
C15 C 0.1347(13) 0.6897(13) 0.5323(6)
H11 H 0.1812 0.6997 0.5233
C16 C 0.1269(13) 0.7032(12) 0.5659(6)
H12 H 0.1693 0.7204 0.5803
C17 C 0.3986(13) 1.0145(13) 0.5428(6)
C18 C 0.4565(13) 1.0430(13) 0.5170(6)
H13 H 0.4439 1.0424 0.4932
C19 C 0.5273(13) 1.0700(13) 0.5255(6)
H14 H 0.5647 1.0911 0.5082
C20 C 0.5455(13) 1.0667(13) 0.5606(6)
H15 H 0.5948 1.0802 0.5666
C21 C 0.4925(13) 1.0442(13) 0.5866(6)
H16 H 0.5054 1.0469 0.6105
C22 C 0.4225(13) 1.0184(13) 0.5768(6)
C23 C 0.3022(13) 0.9715(12) 0.5938(6)
H17 H 0.2658 0.9552 0.6116
C24 C 0.2792(13) 0.9680(12) 0.5574(6)
H18 H 0.2286 0.9475 0.5516
C25 C 0.2690(15) 0.9535(15) 0.4181(7)
C26 C 0.2389(14) 0.8829(14) 0.4316(7)
H19 H 0.2395 0.8772 0.4562
C27 C 0.2102(15) 0.8245(15) 0.4125(7)
H20 H 0.1873 0.7775 0.4235
C28 C 0.2118(15) 0.8285(15) 0.3746(7)
H21 H 0.1920 0.7854 0.3605
C29 C 0.2482(15) 0.9084(15) 0.3584(7)
H22 H 0.2509 0.9160 0.3339
C30 C 0.2755(16) 0.9654(15) 0.3811(7)
C31 C 0.3246(15) 1.0872(16) 0.3885(7)
H23 H 0.3405 1.1351 0.3795
C32 C 0.3195(14) 1.0760(14) 0.4252(7)
H24 H 0.3348 1.1177 0.4400
O6A O 0.0735(8) 1.0662(11) 0.5970(4)
O6B O -0.0662(11) 1.0073(8) 0.5970(4)
O12A O 0.0748(8) 1.0659(11) 0.5163(4)
O12B O -0.0659(11) 1.0089(8) 0.5163(4)
O44A O 0.4108(8) 0.7239(11) 0.6665(4)
O44B O 0.2761(11) 0.6869(8) 0.6665(4)
O34A O 0.3129(8) 0.5882(11) 0.7469(4)
O34B O 0.4118(11) 0.7247(8) 0.7469(4)
W1A W 0.01656(5) 0.10049(7) 0.68496(2)
W2A W 0.11583(5) 0.19157(7) 0.60304(2)
W3A W 0.11881(4) 0.19216(6) 0.505129(19)
W4A W 0.00454(4) 0.09565(6) 0.42818(2)
W5A W -0.08330(4) 0.10964(6) 0.509882(19)
W6A W -0.08564(4) 0.10758(6) 0.60782(2)
W7A W 0.23078(5) 0.58558(7) 0.57871(2)
W8A W 0.20394(5) 0.47629(7) 0.65922(2)
W9A W 0.20196(5) 0.47784(7) 0.75646(2)
W10A W 0.22944(5) 0.59088(7) 0.83478(2)
W11A W 0.14742(5) 0.61990(7) 0.75461(2)
W12A W 0.14644(4) 0.61547(6) 0.65693(2)
Cu1A Cu 0.28208(15) 0.34650(21) 0.62962(7)
Cu2A Cu -0.00942(16) 0.29564(23) 0.48790(7)
Cu3A Cu 0.3697(2) 0.4455(3) 0.46406(9)
Cu4A Cu -0.0447(2) 0.2745(4) 0.31823(11)
O1A O 0.0830(8) 0.1579(11) 0.6522(4)
O3A O -0.0565(8) 0.0993(11) 0.6525(4)
O4A O 0.0804(8) 0.0694(11) 0.7040(4)
O5A O 0.0242(8) 0.1617(11) 0.7154(4)
O7A O 0.1320(8) 0.1942(11) 0.5553(4)
O8A O 0.0177(8) 0.1654(11) 0.5971(4)
O9A O 0.1568(8) 0.2850(11) 0.6121(4)
O10A O 0.1967(8) 0.1774(11) 0.6126(4)
O11A O 0.0831(8) 0.1585(11) 0.4605(4)
O13A O 0.0204(8) 0.1685(11) 0.5163(4)
O14A O 0.1615(8) 0.2860(11) 0.4988(4)
O15A O 0.1985(8) 0.1767(11) 0.4999(4)
O17A O -0.0578(8) 0.1008(11) 0.4612(4)
O18A O 0.0107(9) 0.1572(13) 0.3974(4)
O19A O 0.0750(8) 0.0696(11) 0.4097(4)
O20A O -0.0983(8) 0.1028(11) 0.5569(4)
O21A O -0.1020(8) 0.1798(11) 0.5009(4)
O22A O -0.1084(8) 0.1749(11) 0.6140(4)
O23A O 0.2186(8) 0.5154(11) 0.6111(4)
O25A O 0.1789(8) 0.6121(11) 0.6107(4)
O26A O 0.3151(8) 0.5863(11) 0.5597(4)
O27A O 0.1679(9) 0.5362(13) 0.5483(4)
O28A O 0.2122(8) 0.4690(11) 0.7080(4)
O29A O 0.1566(8) 0.5354(11) 0.6668(4)
O30A O 0.2818(8) 0.4562(11) 0.6503(4)
O31A O 0.1289(8) 0.3925(11) 0.6519(4)
O32A O 0.2159(8) 0.5139(11) 0.8026(4)
O33A O 0.1584(8) 0.5354(11) 0.7467(4)
O35A O 0.1257(8) 0.3915(11) 0.7629(4)
O37A O 0.1751(8) 0.6123(11) 0.8020(4)
O38A O 0.3128(8) 0.5861(11) 0.8527(4)
O39A O 0.1652(8) 0.5425(11) 0.8650(4)
O40A O 0.1436(8) 0.6272(11) 0.7061(4)
O41A O 0.0578(8) 0.5799(11) 0.7634(4)
O42A O 0.1753(8) 0.7187(11) 0.7628(4)
O43A O 0.0543(8) 0.5756(11) 0.6474(4)
O45A O 0.4877(12) 0.5496(17) 0.4666(6)
N1A N 0.2700(10) 0.3178(14) 0.6774(5)
N2A N 0.2433(10) 0.2813(14) 0.7489(5)
N3A N 0.0070(11) 0.3359(16) 0.5336(5)
N4A N 0.0037(11) 0.3747(16) 0.6027(5)
N5A N -0.0148(12) 0.2814(17) 0.4390(5)
N6A N -0.0336(12) 0.2744(18) 0.3676(6)
N7A N 0.3389(11) 0.4126(16) 0.5116(5)
N8A N 0.3050(10) 0.3706(14) 0.5811(5)
C1A C 0.3242(12) 0.3175(17) 0.6985(6)
C2A C 0.3902(12) 0.3358(17) 0.6835(6)
H1A H 0.3986 0.3451 0.6592
C3A C 0.4442(13) 0.3403(18) 0.7057(6)
H2A H 0.4908 0.3533 0.6958
C4A C 0.4359(13) 0.3273(18) 0.7411(6)
H3A H 0.4752 0.3323 0.7555
C5A C 0.3636(12) 0.3054(17) 0.7549(6)
H4A H 0.3546 0.2936 0.7790
C6A C 0.3112(12) 0.3011(17) 0.7363(6)
C7A C 0.1939(12) 0.2813(17) 0.7283(6)
H5A H 0.1467 0.2672 0.7378
C8A C 0.2059(12) 0.3010(17) 0.6928(6)
H6A H 0.1681 0.3022 0.6795
C9A C 0.3312(13) 0.3369(18) 0.5606(6)
C10A C 0.3428(12) 0.2818(17) 0.5744(6)
H7A H 0.3347 0.2701 0.5985
C11A C 0.3657(12) 0.2446(18) 0.5533(6)
H8A H 0.3703 0.2050 0.5626
C12A C 0.3830(13) 0.2645(18) 0.5173(6)
H9A H 0.4014 0.2406 0.5027
C13A C 0.3723(13) 0.3178(18) 0.5054(6)
H10A H 0.3823 0.3293 0.4813
C14A C 0.3483(13) 0.3588(18) 0.5237(6)
C15A C 0.3103(13) 0.4450(18) 0.5323(6)
H11A H 0.3003 0.4815 0.5233
C16A C 0.2968(12) 0.4237(18) 0.5659(6)
H12A H 0.2796 0.4489 0.5803
C17A C -0.0145(13) 0.3841(18) 0.5428(6)
C18A C -0.0430(13) 0.4135(18) 0.5170(6)
H13A H -0.0424 0.4015 0.4932
C19A C -0.0700(13) 0.4573(18) 0.5255(6)
H14A H -0.0911 0.4736 0.5082
C20A C -0.0667(13) 0.4788(18) 0.5606(6)
H15A H -0.0802 0.5146 0.5666
C21A C -0.0442(13) 0.4483(18) 0.5866(6)
H16A H -0.0469 0.4585 0.6105
C22A C -0.0184(13) 0.4041(18) 0.5768(6)
C23A C 0.0285(12) 0.3307(18) 0.5938(6)
H17A H 0.0448 0.3106 0.6116
C24A C 0.0320(12) 0.3112(18) 0.5574(6)
H18A H 0.0525 0.2811 0.5516
C25A C 0.0465(15) 0.3155(21) 0.4181(7)
C26A C 0.1171(14) 0.3560(20) 0.4316(7)
H19A H 0.1228 0.3623 0.4562
C27A C 0.1755(15) 0.3857(21) 0.4125(7)
H20A H 0.2225 0.4098 0.4235
C28A C 0.1715(15) 0.3833(21) 0.3746(7)
H21A H 0.2146 0.4066 0.3605
C29A C 0.0916(15) 0.3398(21) 0.3584(7)
H22A H 0.0840 0.3349 0.3339
C30A C 0.0346(15) 0.3101(22) 0.3811(7)
C31A C -0.0872(16) 0.2374(22) 0.3885(7)
H23A H -0.1351 0.2054 0.3795
C32A C -0.0760(14) 0.2435(20) 0.4252(7)
H24A H -0.1177 0.2171 0.4400
W1B W -0.10049(7) 0.91607(5) 0.68496(2)
W2B W -0.19157(7) 0.92426(5) 0.60304(2)
W3B W -0.19216(6) 0.92665(4) 0.505129(19)
W4B W -0.09565(6) 0.90889(4) 0.42818(2)
W5B W -0.10964(6) 0.80706(4) 0.509882(19)
W6B W -0.10758(6) 0.80678(4) 0.60782(2)
W7B W -0.58558(7) 0.64520(5) 0.57871(2)
W8B W -0.47629(7) 0.72765(5) 0.65922(2)
W9B W -0.47784(7) 0.72412(5) 0.75646(2)
W10B W -0.59088(7) 0.63856(5) 0.83478(2)
W11B W -0.61990(7) 0.52752(5) 0.75461(2)
W12B W -0.61547(6) 0.53097(5) 0.65693(2)
Cu1B Cu -0.34650(21) 0.93558(15) 0.62962(7)
Cu2B Cu -0.29564(23) 0.69494(16) 0.48790(7)
Cu3B Cu -0.4455(3) 0.9242(2) 0.46406(9)
Cu4B Cu -0.2745(4) 0.6808(3) 0.31823(11)
O1B O -0.1579(11) 0.9251(8) 0.6522(4)
O3B O -0.0993(11) 0.8442(7) 0.6525(4)
O4B O -0.0694(11) 1.0110(8) 0.7040(4)
O5B O -0.1617(11) 0.8625(8) 0.7154(4)
O7B O -0.1942(11) 0.9378(8) 0.5553(4)
O8B O -0.1654(11) 0.8523(8) 0.5971(4)
O9B O -0.2850(11) 0.8718(8) 0.6121(4)
O10B O -0.1774(11) 1.0193(8) 0.6126(4)
O11B O -0.1585(11) 0.9246(8) 0.4605(4)
O13B O -0.1685(11) 0.8519(8) 0.5163(4)
O14B O -0.2860(11) 0.8755(8) 0.4988(4)
O15B O -0.1767(11) 1.0218(8) 0.4999(4)
O17B O -0.1008(11) 0.8414(8) 0.4612(4)
O18B O -0.1572(13) 0.8535(9) 0.3974(4)
O19B O -0.0696(11) 1.0054(8) 0.4097(4)
O20B O -0.1028(11) 0.7989(8) 0.5569(4)
O21B O -0.1798(11) 0.7182(8) 0.5009(4)
O22B O -0.1749(11) 0.7167(8) 0.6140(4)
O23B O -0.5154(11) 0.7032(8) 0.6111(4)
O25B O -0.6121(11) 0.5668(8) 0.6107(4)
O26B O -0.5863(11) 0.7288(8) 0.5597(4)
O27B O -0.5362(13) 0.6317(9) 0.5483(4)
O28B O -0.4690(11) 0.7432(8) 0.7080(4)
O29B O -0.5354(11) 0.6212(8) 0.6668(4)
O30B O -0.4562(11) 0.8256(8) 0.6503(4)
O31B O -0.3925(11) 0.7364(8) 0.6519(4)
O32B O -0.5139(11) 0.7020(8) 0.8026(4)
O33B O -0.5354(11) 0.6230(8) 0.7467(4)
O35B O -0.3915(11) 0.7342(8) 0.7629(4)
O37B O -0.6123(11) 0.5628(8) 0.8020(4)
O38B O -0.5861(11) 0.7267(8) 0.8527(4)
O39B O -0.5425(11) 0.6227(8) 0.8650(4)
O40B O -0.6272(11) 0.5164(8) 0.7061(4)
O41B O -0.5799(11) 0.4779(8) 0.7634(4)
O42B O -0.7187(11) 0.4566(8) 0.7628(4)
O43B O -0.5756(11) 0.4787(8) 0.6474(4)
O45B O -0.5496(17) 0.9381(12) 0.4666(6)
N1B N -0.3178(14) 0.9522(10) 0.6774(5)
N2B N -0.2813(14) 0.9620(10) 0.7489(5)
N3B N -0.3359(16) 0.6711(11) 0.5336(5)
N4B N -0.3747(16) 0.6290(11) 0.6027(5)
N5B N -0.2814(17) 0.7038(12) 0.4390(5)
N6B N -0.2744(18) 0.6920(13) 0.3676(6)
N7B N -0.4126(16) 0.9263(11) 0.5116(5)
N8B N -0.3706(14) 0.9344(10) 0.5811(5)
C1B C -0.3175(17) 1.0067(12) 0.6985(6)
C2B C -0.3358(17) 1.0544(12) 0.6835(6)
H1B H -0.3451 1.0535 0.6592
C3B C -0.3403(18) 1.1039(13) 0.7057(6)
H2B H -0.3533 1.1375 0.6958
C4B C -0.3273(18) 1.1086(12) 0.7411(6)
H3B H -0.3323 1.1429 0.7555
C5B C -0.3054(17) 1.0582(12) 0.7549(6)
H4B H -0.2936 1.0610 0.7790
C6B C -0.3011(17) 1.0101(12) 0.7363(6)
C7B C -0.2813(17) 0.9126(12) 0.7283(6)
H5B H -0.2672 0.8795 0.7378
C8B C -0.3010(17) 0.9049(12) 0.6928(6)
H6B H -0.3022 0.8659 0.6795
C9B C -0.3369(18) 0.9943(13) 0.5606(6)
C10B C -0.2818(17) 1.0610(12) 0.5744(6)
H7B H -0.2701 1.0646 0.5985
C11B C -0.2446(18) 1.1211(13) 0.5533(6)
H8B H -0.2050 1.1653 0.5626
C12B C -0.2645(18) 1.1185(13) 0.5173(6)
H9B H -0.2406 1.1608 0.5027
C13B C -0.3178(18) 1.0545(13) 0.5054(6)
H10B H -0.3293 1.0530 0.4813
C14B C -0.3588(18) 0.9895(13) 0.5237(6)
C15B C -0.4450(18) 0.8653(13) 0.5323(6)
H11B H -0.4815 0.8188 0.5233
C16B C -0.4237(18) 0.8731(13) 0.5659(6)
H12B H -0.4489 0.8307 0.5803
C17B C -0.3841(18) 0.6014(13) 0.5428(6)
C18B C -0.4135(18) 0.5435(13) 0.5170(6)
H13B H -0.4015 0.5561 0.4932
C19B C -0.4573(18) 0.4727(13) 0.5255(6)
H14B H -0.4736 0.4353 0.5082
C20B C -0.4788(18) 0.4545(13) 0.5606(6)
H15B H -0.5146 0.4052 0.5666
C21B C -0.4483(18) 0.5075(13) 0.5866(6)
H16B H -0.4585 0.4946 0.6105
C22B C -0.4041(18) 0.5775(13) 0.5768(6)
C23B C -0.3307(18) 0.6978(13) 0.5938(6)
H17B H -0.3106 0.7342 0.6116
C24B C -0.3112(18) 0.7208(13) 0.5574(6)
H18B H -0.2811 0.7714 0.5516
C25B C -0.3155(21) 0.7310(15) 0.4181(7)
C26B C -0.3560(20) 0.7611(14) 0.4316(7)
H19B H -0.3623 0.7605 0.4562
C27B C -0.3857(21) 0.7898(15) 0.4125(7)
H20B H -0.4098 0.8127 0.4235
C28B C -0.3833(21) 0.7882(15) 0.3746(7)
H21B H -0.4066 0.8080 0.3605
C29B C -0.3398(21) 0.7518(15) 0.3584(7)
H22B H -0.3349 0.7491 0.3339
C30B C -0.3101(22) 0.7245(16) 0.3811(7)
C31B C -0.2374(22) 0.6754(15) 0.3885(7)
H23B H -0.2054 0.6595 0.3795
C32B C -0.2435(20) 0.6805(14) 0.4252(7)
H24B H -0.2171 0.6652 0.4400
W1_2 W 0.08393(5) -0.01656(5) 0.68496(2)
W1A_2 W 0.01656(5) 1.10049(7) 0.68496(2)
W2A_2 W 0.11583(5) 1.19157(7) 0.60304(2)
W3A_2 W 0.11881(4) 1.19216(6) 0.505129(19)
W4_2 W 0.09111(4) -0.00454(4) 0.42818(2)
W4A_2 W 0.00454(4) 1.09565(6) 0.42818(2)
W5_2 W 0.19294(4) 0.08330(4) 0.509882(19)
W5A_2 W -0.08330(4) 1.10964(6) 0.509882(19)
W6_2 W 0.19322(4) 0.08564(4) 0.60782(2)
W6A_2 W -0.08564(4) 1.10758(6) 0.60782(2)
W7_2 W -0.64520(5) 0.76922(5) 0.57871(2)
W7B_2 W 0.41442(7) 0.64520(5) 0.57871(2)
W8B_2 W 0.52371(7) 0.72765(5) 0.65922(2)
W9A_2 W -0.79804(5) 0.47784(7) 0.75646(2)
W9B_2 W 0.52216(7) 0.72412(5) 0.75646(2)
W10_2 W -0.63856(5) 0.77056(5) 0.83478(2)
W10B_2 W 0.40912(7) 0.63856(5) 0.83478(2)
W11B_2 W 0.38010(7) 0.52752(5) 0.75461(2)
W12_2 W -0.53097(5) 0.85356(4) 0.65693(2)
W12B_2 W 0.38453(6) 0.53097(5) 0.65693(2)
Cu3C Cu -0.2575(2) 0.9636(2) 0.79739(9)
Cu3D Cu 0.0364(2) 0.7788(3) 0.79739(9)
Cu3E Cu 0.2212(3) 0.2575(2) 0.79739(9)
Cu4C Cu -0.0141(3) 0.3780(2) 0.65156(11)
Cu4D Cu -0.3780(2) 0.6078(4) 0.65156(11)
Cu4E Cu 0.3922(4) 1.0141(3) 0.65156(11)
O2_2 O 0.0000 0.0000 0.6502(6)
O4A_2 O 0.0804(8) 1.0694(11) 0.7040(4)
O4B_2 O -0.0694(11) 0.0110(8) 0.7040(4)
O6A_2 O 0.0735(8) 0.0662(11) 0.5970(4)
O6B_2 O -0.0662(11) 0.0073(8) 0.5970(4)
O10A_2 O 0.1967(8) 1.1774(11) 0.6126(4)
O10B_2 O -0.1774(11) 0.0193(8) 0.6126(4)
O12A_2 O 0.0748(8) 0.0659(11) 0.5163(4)
O12B_2 O -0.0659(11) 0.0089(8) 0.5163(4)
O15A_2 O 0.1985(8) 1.1767(11) 0.4999(4)
O15B_2 O -0.1767(11) 0.0218(8) 0.4999(4)
O16_2 O 0.0000 0.0000 0.4636(6)
O19A_2 O 0.0750(8) 1.0696(11) 0.4097(4)
O19B_2 O -0.0696(11) 0.0054(8) 0.4097(4)
O24_2 O -0.6667 0.6667 0.6133(6)
O26A_2 O -0.6849(8) 0.5863(11) 0.5597(4)
O26B_2 O 0.4137(11) 0.7288(8) 0.5597(4)
O30A_2 O -0.7182(8) 0.4562(11) 0.6503(4)
O30B_2 O 0.5438(11) 0.8256(8) 0.6503(4)
O34A_2 O -0.6871(8) 0.5882(11) 0.7469(4)
O34B_2 O -0.5882(11) 0.7247(8) 0.7469(4)
O36_2 O -0.6667 0.6667 0.8001(6)
O38A_2 O -0.6872(8) 0.5861(11) 0.8527(4)
O38B_2 O 0.4139(11) 0.7267(8) 0.8527(4)
O42_2 O -0.4566(8) 0.8247(8) 0.7628(4)
O42B_2 O 0.2813(11) 0.4566(8) 0.7628(4)
O44_2 O -0.6869(8) 0.5892(8) 0.6665(4)
O44A_2 O -0.5892(8) 0.7239(11) 0.6665(4)
N2F N 0.3713(10) 0.4234(10) 0.4156(5)
N2G N -0.4234(10) 0.9480(14) 0.4156(5)
N2H N 0.0520(14) 0.6287(10) 0.4156(5)
N4F N -0.2957(11) 0.6630(11) 0.2694(5)
N4G N 0.3370(11) 1.0414(16) 0.2694(5)
N4H N -0.0414(16) 0.2957(11) 0.2694(5)
O46 O 0.181(2) 1.025(2) 0.3226(12)
O47 O 0.2221(12) 0.6722(11) 0.4461(6)
O48 O 0.2110(13) 0.5497(13) 0.4697(6)
loop_
_geom_bond_atom_site_label_1
_geom_bond_atom_site_label_2
_geom_bond_site_symmetry_1
_geom_bond_site_symmetry_2
W1 O1 1_555 1_555
W2 O1 1_555 1_555
W3 O7 1_555 1_555
W4 O11 1_555 1_555
W5 O13 1_555 1_555
W6 O3 1_555 1_555
W7 O23 1_555 1_555
W8 O23 1_555 1_555
W9 O28 1_555 1_555
W10 O32 1_555 1_555
W11 O33 1_555 1_555
W12 O25 1_555 1_555
Cu1 O9 1_555 1_555
Cu2 O21 1_555 1_555
Cu3 O45 1_555 1_555
Cu4 N6 1_555 1_555
P1 O2 1_555 1_555
P2 O12 1_555 1_555
P3 O24 1_555 1_555
P4 O34 1_555 1_555
O2 W1 1_555 1_555
O3 W1 1_555 1_555
O4 W1 1_555 1_555
O5 W1 1_555 1_555
O6 W2 1_555 1_555
O7 W2 1_555 1_555
O8 W2 1_555 1_555
O9 W2 1_555 1_555
O10 W2 1_555 1_555
O11 W3 1_555 1_555
O12 W3 1_555 1_555
O13 W3 1_555 1_555
O14 W3 1_555 1_555
O15 W3 1_555 1_555
O16 W4 1_555 1_555
O17 W4 1_555 1_555
O18 W4 1_555 1_555
O19 W4 1_555 1_555
O20 W5 1_555 1_555
O21 W5 1_555 1_555
O22 W6 1_555 1_555
O24 W7 1_555 1_555
O25 W7 1_555 1_555
O26 W7 1_555 1_555
O27 W7 1_555 1_555
O28 W8 1_555 1_555
O29 W8 1_555 1_555
O30 W8 1_555 1_555
O31 W8 1_555 1_555
O32 W9 1_555 1_555
O33 W9 1_555 1_555
O34 W9 1_555 1_555
O35 W9 1_555 1_555
O36 W10 1_555 1_555
O37 W10 1_555 1_555
O38 W10 1_555 1_555
O39 W10 1_555 1_555
O40 W11 1_555 1_555
O41 W11 1_555 1_555
O42 W11 1_555 1_555
O43 W12 1_555 1_555
O44 P3 1_555 1_555
N1 Cu1 1_555 1_555
N2 C6 1_555 1_555
N3 Cu2 1_555 1_555
N4 C22 1_555 1_555
N5 Cu2 1_555 1_555
N6 C30 1_555 1_555
N7 Cu3 1_555 1_555
N8 Cu1 1_555 1_555
C1 N1 1_555 1_555
C2 C1 1_555 1_555
H1 C2 1_555 1_555
C3 C2 1_555 1_555
H2 C3 1_555 1_555
C4 C3 1_555 1_555
H3 C4 1_555 1_555
C5 C4 1_555 1_555
H4 C5 1_555 1_555
C6 C1 1_555 1_555
C7 N2 1_555 1_555
H5 C7 1_555 1_555
C8 N1 1_555 1_555
H6 C8 1_555 1_555
C9 N8 1_555 1_555
C10 C9 1_555 1_555
H7 C10 1_555 1_555
C11 C10 1_555 1_555
H8 C11 1_555 1_555
C12 C11 1_555 1_555
H9 C12 1_555 1_555
C13 C12 1_555 1_555
H10 C13 1_555 1_555
C14 N7 1_555 1_555
C15 N7 1_555 1_555
H11 C15 1_555 1_555
C16 N8 1_555 1_555
H12 C16 1_555 1_555
C17 N3 1_555 1_555
C18 C17 1_555 1_555
H13 C18 1_555 1_555
C19 C18 1_555 1_555
H14 C19 1_555 1_555
C20 C19 1_555 1_555
H15 C20 1_555 1_555
C21 C20 1_555 1_555
H16 C21 1_555 1_555
C22 C17 1_555 1_555
C23 N4 1_555 1_555
H17 C23 1_555 1_555
C24 N3 1_555 1_555
H18 C24 1_555 1_555
C25 N5 1_555 1_555
C26 C25 1_555 1_555
H19 C26 1_555 1_555
C27 C26 1_555 1_555
H20 C27 1_555 1_555
C28 C27 1_555 1_555
H21 C28 1_555 1_555
C29 C28 1_555 1_555
H22 C29 1_555 1_555
C30 C25 1_555 1_555
C31 N6 1_555 1_555
H23 C31 1_555 1_555
C32 N5 1_555 1_555
H24 C32 1_555 1_555
O6A W6 1_555 1_555
O6B P1 1_555 1_555
O12A W5 1_555 1_555
O12B P2 1_555 1_555
O44A W12 1_555 1_555
O44B W8 1_555 1_555
O34A P4 1_555 1_555
O34B W11 1_555 1_555
W1A O1A 1_555 1_555
W2A O1A 1_555 1_555
W3A O7A 1_555 1_555
W4A O11A 1_555 1_555
W5A O13A 1_555 1_555
W6A O3A 1_555 1_555
W7A O24 1_555 1_555
W8A O44 1_555 1_555
W9A O34A 1_555 1_555
W10A O36 1_555 1_555
W11A O34 1_555 1_555
W12A O30 1_555 1_555
Cu1A O9A 1_555 1_555
Cu2A O21A 1_555 1_555
Cu3A O45A 1_555 1_555
Cu4A N6A 1_555 1_555
O3A W1A 1_555 1_555
O4A W1A 1_555 1_555
O5A W1A 1_555 1_555
O7A W2A 1_555 1_555
O8A W2A 1_555 1_555
O9A W2A 1_555 1_555
O10A W2A 1_555 1_555
O11A W3A 1_555 1_555
O13A W3A 1_555 1_555
O14A W3A 1_555 1_555
O15A W3A 1_555 1_555
O17A W4A 1_555 1_555
O18A W4A 1_555 1_555
O19A W4A 1_555 1_555
O20A W5A 1_555 1_555
O21A W5A 1_555 1_555
O22A W6A 1_555 1_555
O23A W7A 1_555 1_555
O25A W7A 1_555 1_555
O26A W7A 1_555 1_555
O27A W7A 1_555 1_555
O28A W8A 1_555 1_555
O29A W8A 1_555 1_555
O30A W8A 1_555 1_555
O31A W8A 1_555 1_555
O32A W9A 1_555 1_555
O33A W9A 1_555 1_555
O35A W9A 1_555 1_555
O37A W10A 1_555 1_555
O38A W10A 1_555 1_555
O39A W10A 1_555 1_555
O40A W11A 1_555 1_555
O41A W11A 1_555 1_555
O42A W9 1_555 1_555
O43A W12A 1_555 1_555
N1A Cu1A 1_555 1_555
N2A C6A 1_555 1_555
N3A Cu2A 1_555 1_555
N4A C22A 1_555 1_555
N5A Cu2A 1_555 1_555
N6A C30A 1_555 1_555
N7A Cu3A 1_555 1_555
N8A Cu1A 1_555 1_555
C1A N1A 1_555 1_555
C2A C1A 1_555 1_555
H1A C2A 1_555 1_555
C3A C2A 1_555 1_555
H2A C3A 1_555 1_555
C4A C3A 1_555 1_555
H3A C4A 1_555 1_555
C5A C4A 1_555 1_555
H4A C5A 1_555 1_555
C6A C1A 1_555 1_555
C7A N2A 1_555 1_555
H5A C7A 1_555 1_555
C8A N1A 1_555 1_555
H6A C8A 1_555 1_555
C9A N8A 1_555 1_555
C10A C9A 1_555 1_555
H7A C10A 1_555 1_555
C11A C10A 1_555 1_555
H8A C11A 1_555 1_555
C12A C11A 1_555 1_555
H9A C12A 1_555 1_555
C13A C12A 1_555 1_555
H10A C13A 1_555 1_555
C14A N7A 1_555 1_555
C15A N7A 1_555 1_555
H11A C15A 1_555 1_555
C16A N8A 1_555 1_555
H12A C16A 1_555 1_555
C17A N3A 1_555 1_555
C18A C17A 1_555 1_555
H13A C18A 1_555 1_555
C19A C18A 1_555 1_555
H14A C19A 1_555 1_555
C20A C19A 1_555 1_555
H15A C20A 1_555 1_555
C21A C20A 1_555 1_555
H16A C21A 1_555 1_555
C22A C17A 1_555 1_555
C23A N4A 1_555 1_555
H17A C23A 1_555 1_555
C24A N3A 1_555 1_555
H18A C24A 1_555 1_555
C25A N5A 1_555 1_555
C26A C25A 1_555 1_555
H19A C26A 1_555 1_555
C27A C26A 1_555 1_555
H20A C27A 1_555 1_555
C28A C27A 1_555 1_555
H21A C28A 1_555 1_555
C29A C28A 1_555 1_555
H22A C29A 1_555 1_555
C30A C25A 1_555 1_555
C31A N6A 1_555 1_555
H23A C31A 1_555 1_555
C32A N5A 1_555 1_555
H24A C32A 1_555 1_555
W1B O2 1_555 1_555
W2B O6B 1_555 1_555
W3B O12B 1_555 1_555
W4B O16 1_555 1_555
W5B O12 1_555 1_555
W6B O6 1_555 1_555
W7B O23B 1_555 1_555
W8B O23B 1_555 1_555
W9B O28B 1_555 1_555
W10B O32B 1_555 1_555
W11B O33B 1_555 1_555
W12B O25B 1_555 1_555
Cu1B O9B 1_555 1_555
Cu2B O21B 1_555 1_555
Cu3B O45B 1_555 1_555
Cu4B N6B 1_555 1_555
O1B W1B 1_555 1_555
O3B W1B 1_555 1_555
O4B W1B 1_555 1_555
O5B W1B 1_555 1_555
O7B W2B 1_555 1_555
O8B W2B 1_555 1_555
O9B W2B 1_555 1_555
O10B W2B 1_555 1_555
O11B W3B 1_555 1_555
O13B W3B 1_555 1_555
O14B W3B 1_555 1_555
O15B W3B 1_555 1_555
O17B W4B 1_555 1_555
O18B W4B 1_555 1_555
O19B W4B 1_555 1_555
O20B W5B 1_555 1_555
O21B W5B 1_555 1_555
O22B W6B 1_555 1_555
O25B W7B 1_555 1_555
O26B W7B 1_555 1_555
O27B W7B 1_555 1_555
O28B W8B 1_555 1_555
O29B W8B 1_555 1_555
O30B W8B 1_555 1_555
O31B W8B 1_555 1_555
O32B W9B 1_555 1_555
O33B W9B 1_555 1_555
O35B W9B 1_555 1_555
O37B W10B 1_555 1_555
O38B W10B 1_555 1_555
O39B W10B 1_555 1_555
O40B W11B 1_555 1_555
O41B W11B 1_555 1_555
O42B W11B 1_555 1_555
O43B W12B 1_555 1_555
N1B Cu1B 1_555 1_555
N2B C6B 1_555 1_555
N3B Cu2B 1_555 1_555
N4B C22B 1_555 1_555
N5B Cu2B 1_555 1_555
N6B C30B 1_555 1_555
N7B Cu3B 1_555 1_555
N8B Cu1B 1_555 1_555
C1B N1B 1_555 1_555
C2B C1B 1_555 1_555
H1B C2B 1_555 1_555
C3B C2B 1_555 1_555
H2B C3B 1_555 1_555
C4B C3B 1_555 1_555
H3B C4B 1_555 1_555
C5B C4B 1_555 1_555
H4B C5B 1_555 1_555
C6B C1B 1_555 1_555
C7B N2B 1_555 1_555
H5B C7B 1_555 1_555
C8B N1B 1_555 1_555
H6B C8B 1_555 1_555
C9B N8B 1_555 1_555
C10B C9B 1_555 1_555
H7B C10B 1_555 1_555
C11B C10B 1_555 1_555
H8B C11B 1_555 1_555
C12B C11B 1_555 1_555
H9B C12B 1_555 1_555
C13B C12B 1_555 1_555
H10B C13B 1_555 1_555
C14B N7B 1_555 1_555
C15B N7B 1_555 1_555
H11B C15B 1_555 1_555
C16B N8B 1_555 1_555
H12B C16B 1_555 1_555
C17B N3B 1_555 1_555
C18B C17B 1_555 1_555
H13B C18B 1_555 1_555
C19B C18B 1_555 1_555
H14B C19B 1_555 1_555
C20B C19B 1_555 1_555
H15B C20B 1_555 1_555
C21B C20B 1_555 1_555
H16B C21B 1_555 1_555
C22B C17B 1_555 1_555
C23B N4B 1_555 1_555
H17B C23B 1_555 1_555
C24B N3B 1_555 1_555
H18B C24B 1_555 1_555
C25B N5B 1_555 1_555
C26B C25B 1_555 1_555
H19B C26B 1_555 1_555
C27B C26B 1_555 1_555
H20B C27B 1_555 1_555
C28B C27B 1_555 1_555
H21B C28B 1_555 1_555
C29B C28B 1_555 1_555
H22B C29B 1_555 1_555
C30B C25B 1_555 1_555
C31B N6B 1_555 1_555
H23B C31B 1_555 1_555
C32B N5B 1_555 1_555
H24B C32B 1_555 1_555
W1_2 O4A 1_555 1_555
W1A_2 O2 1_555 1_555
W2A_2 O6A 1_555 1_555
W3A_2 O12A 1_555 1_555
W4_2 O19A 1_555 1_555
W4A_2 O16 1_555 1_555
W5_2 O15A 1_555 1_555
W5A_2 O12B 1_555 1_555
W6_2 O10A 1_555 1_555
W6A_2 O6B 1_555 1_555
W7_2 O26B 1_555 1_555
W7B_2 O24 1_555 1_555
W8B_2 O44A 1_555 1_555
W9A_2 O42B 1_555 1_555
W9B_2 O42 1_555 1_555
W10_2 O38B 1_555 1_555
W10B_2 O36 1_555 1_555
W11B_2 O34A 1_555 1_555
W12_2 O30B 1_555 1_555
W12B_2 O44 1_555 1_555
Cu3C N2B 1_555 1_555
Cu3D N2 1_555 1_555
Cu3E N2A 1_555 1_555
Cu4C N4A 1_555 1_555
Cu4D N4B 1_555 1_555
Cu4E N4 1_555 1_555
O2_2 W1A 1_555 1_555
O4A_2 W1 1_555 1_555
O4B_2 W1A 1_555 1_555
O6A_2 W2A 1_555 1_555
O6B_2 W6A 1_555 1_555
O10A_2 W6 1_555 1_555
O10B_2 W6A 1_555 1_555
O12A_2 W3A 1_555 1_555
O12B_2 W5A 1_555 1_555
O15A_2 W5 1_555 1_555
O15B_2 W5A 1_555 1_555
O16_2 W4A 1_555 1_555
O19A_2 W4 1_555 1_555
O19B_2 W4A 1_555 1_555
O24_2 W7B 1_555 1_555
O26A_2 W7B 1_555 1_555
O26B_2 W7 1_555 1_555
O30A_2 W12B 1_555 1_555
O30B_2 W12 1_555 1_555
O34A_2 W11B 1_555 1_555
O34B_2 W9B 1_555 1_555
O36_2 W10B 1_555 1_555
O38A_2 W10B 1_555 1_555
O38B_2 W10 1_555 1_555
O42_2 W9B 1_555 1_555
O42B_2 W9A 1_555 1_555
O44_2 W12B 1_555 1_555
O44A_2 W8B 1_555 1_555
N2F Cu3A 1_555 1_555
N2G Cu3B 1_555 1_555
N2H Cu3 1_555 1_555
N4F Cu4B 1_555 1_555
N4G Cu4 1_555 1_555
N4H Cu4A 1_555 1_555
W5 O17 1_555 1_555
W6 O8 1_555 1_555
W6 O20 1_555 1_555
W11 O37 1_555 1_555
W12 O29 1_555 1_555
W12 O40 1_555 1_555
Cu1 O30 1_555 1_555
P1 O6 1_555 1_555
P1 O6A 1_555 1_555
P2 O16 1_555 1_555
P2 O12A 1_555 1_555
P3 O44A 1_555 1_555
P3 O44B 1_555 1_555
P4 O36 1_555 1_555
P4 O34B 1_555 1_555
O4 W1B 1_555 1_555
O10 W6B 1_555 1_555
O15 W5B 1_555 1_555
O19 W4B 1_555 1_555
O26 W7A 1_555 1_555
O38 W10A 1_555 1_555
C5 C6 1_555 1_555
C7 C8 1_555 1_555
C9 C14 1_555 1_555
C13 C14 1_555 1_555
C15 C16 1_555 1_555
C21 C22 1_555 1_555
C23 C24 1_555 1_555
C29 C30 1_555 1_555
C31 C32 1_555 1_555
O44B W12A 1_555 1_555
O34B W9B_2 1_555 1_555
W5A O17A 1_555 1_555
W6A O8A 1_555 1_555
W6A O20A 1_555 1_555
W8A O23A 1_555 1_555
W9A O28A 1_555 1_555
W10A O32A 1_555 1_555
W11A O33A 1_555 1_555
W11A O37A 1_555 1_555
W11A O42A 1_555 1_555
W12A O25A 1_555 1_555
W12A O29A 1_555 1_555
W12A O40A 1_555 1_555
Cu1A O30A 1_555 1_555
O26A W7B_2 1_555 1_555
O30A W12B_2 1_555 1_555
O38A W10B_2 1_555 1_555
C5A C6A 1_555 1_555
C7A C8A 1_555 1_555
C9A C14A 1_555 1_555
C13A C14A 1_555 1_555
C15A C16A 1_555 1_555
C21A C22A 1_555 1_555
C23A C24A 1_555 1_555
C29A C30A 1_555 1_555
C31A C32A 1_555 1_555
W2B O1B 1_555 1_555
W3B O7B 1_555 1_555
W4B O11B 1_555 1_555
W5B O13B 1_555 1_555
W5B O17B 1_555 1_555
W6B O3B 1_555 1_555
W6B O8B 1_555 1_555
W6B O20B 1_555 1_555
W11B O37B 1_555 1_555
W12B O29B 1_555 1_555
W12B O40B 1_555 1_555
Cu1B O30B 1_555 1_555
O4B W1A_2 1_555 1_555
O10B W6A_2 1_555 1_555
O15B W5A_2 1_555 1_555
O19B W4A_2 1_555 1_555
C5B C6B 1_555 1_555
C7B C8B 1_555 1_555
C9B C14B 1_555 1_555
C13B C14B 1_555 1_555
C15B C16B 1_555 1_555
C21B C22B 1_555 1_555
C23B C24B 1_555 1_555
C29B C30B 1_555 1_555
C31B C32B 1_555 1_555
W1_2 O2_2 1_555 1_555
W1A_2 O4A_2 1_555 1_555
W2A_2 O10A_2 1_555 1_555
W3A_2 O15A_2 1_555 1_555
W4_2 O16_2 1_555 1_555
W4A_2 O19A_2 1_555 1_555
W5_2 O12A_2 1_555 1_555
W6_2 O6A_2 1_555 1_555
W7_2 O24_2 1_555 1_555
W7B_2 O26B_2 1_555 1_555
W8B_2 O30B_2 1_555 1_555
W9A_2 O34A_2 1_555 1_555
W10_2 O36_2 1_555 1_555
W10B_2 O38B_2 1_555 1_555
W11B_2 O42B_2 1_555 1_555
W12_2 O44A_2 1_555 1_555

#END
