
#######################################################################
#
#                 Cambridge Crystallographic Data Centre
#                                CCDC 
#
#######################################################################
#
# If this CIF has been generated from an entry in the Cambridge 
# Structural Database, then it will include bibliographic, chemical, 
# crystal, experimental, refinement or atomic coordinate data resulting 
# from the CCDC's data processing and validation procedures.
#
#######################################################################

data_KEWNAD
_symmetry_cell_setting           orthorhombic
_symmetry_space_group_name_H-M   'P n a 21'
_symmetry_Int_Tables_number      33
_space_group_name_Hall           'P 2c -2n'
loop_
_symmetry_equiv_pos_site_id
_symmetry_equiv_pos_as_xyz
1 x,y,z
2 -x,-y,1/2+z
3 1/2-x,1/2+y,1/2+z
4 1/2+x,1/2-y,z
_cell_length_a                   14.0900(19)
_cell_length_b                   16.386(2)
_cell_length_c                   16.393(2)
_cell_angle_alpha                90
_cell_angle_beta                 90
_cell_angle_gamma                90
_cell_volume                     3784.8
loop_
_atom_site_label
_atom_site_type_symbol
_atom_site_fract_x
_atom_site_fract_y
_atom_site_fract_z
Cu1 Cu 0.67957(4) 0.11084(3) 0.6981(2)
O1 O 0.5200(3) 0.0974(3) 0.7379(4)
O2 O 0.4053(3) 0.1746(3) 0.7023(4)
O3 O 0.3930(3) 0.0467(3) 0.6898(5)
N1 N 0.7121(3) -0.0056(2) 0.7269(3)
N2 N 0.7972(3) -0.1057(2) 0.7817(4)
N3 N 0.7924(3) -0.1592(2) 1.1004(4)
N4 N 0.8280(3) -0.2715(2) 1.1681(4)
N5 N 0.7213(3) 0.1446(2) 0.8106(3)
N6 N 0.8088(3) 0.2062(3) 0.9033(4)
N7 N 0.8014(3) 0.5210(3) 0.9648(4)
N8 N 0.8389(3) 0.5786(2) 1.0814(3)
N9 N 0.4401(3) 0.1062(3) 0.7074(5)
C1 C 0.6657(3) -0.0790(3) 0.7106(4)
C2 C 0.7207(4) -0.1427(3) 0.7457(4)
C3 C 0.6942(4) -0.2238(4) 0.7394(5)
H1 H 0.7302 -0.2657 0.7619
C4 C 0.6105(4) -0.2385(3) 0.6972(5)
H2 H 0.5899 -0.2921 0.6912
C5 C 0.5568(4) -0.1766(3) 0.6640(4)
H3 H 0.5011 -0.1899 0.6365
C6 C 0.5826(4) -0.0955(3) 0.6700(4)
H4 H 0.5456 -0.0541 0.6477
C7 C 0.7887(4) -0.0250(3) 0.7682(4)
H5 H 0.8326 0.0132 0.7864
C8 C 0.8679(4) -0.1437(4) 0.8335(4)
H6 H 0.9212 -0.1069 0.8404
H7 H 0.8910 -0.1932 0.8077
C9 C 0.8263(4) -0.1645(4) 0.9167(5)
H8 H 0.7682 -0.1953 0.9092
H9 H 0.8707 -0.1987 0.9462
C10 C 0.8054(4) -0.0892(4) 0.9666(5)
H10 H 0.8649 -0.0646 0.9833
H11 H 0.7721 -0.0501 0.9326
C11 C 0.7467(4) -0.1062(3) 1.0410(5)
H12 H 0.7316 -0.0547 1.0671
H13 H 0.6875 -0.1310 1.0241
C12 C 0.8482(3) -0.1355(3) 1.1658(4)
C13 C 0.8701(3) -0.2062(3) 1.2074(4)
C14 C 0.9238(4) -0.2024(4) 1.2790(4)
H14 H 0.9402 -0.2495 1.3073
C15 C 0.9515(4) -0.1270(4) 1.3061(5)
H15 H 0.9865 -0.1229 1.3540
C16 C 0.9283(4) -0.0565(4) 1.2632(5)
H16 H 0.9489 -0.0063 1.2829
C17 C 0.8757(3) -0.0589(3) 1.1927(5)
H17 H 0.8595 -0.0117 1.1645
C18 C 0.7829(3) -0.2398(3) 1.1055(4)
H18 H 0.7478 -0.2705 1.0686
C19 C 0.6886(3) 0.1220(3) 0.8864(4)
C20 C 0.7431(3) 0.1595(3) 0.9457(4)
C21 C 0.7276(4) 0.1488(4) 1.0287(4)
H19 H 0.7642 0.1751 1.0679
C22 C 0.6541(4) 0.0964(4) 1.0496(5)
H20 H 0.6413 0.0866 1.1044
C23 C 0.5993(4) 0.0583(3) 0.9905(5)
H21 H 0.5504 0.0240 1.0070
C24 C 0.6146(3) 0.0694(3) 0.9095(4)
H22 H 0.5775 0.0430 0.8707
C25 C 0.7918(3) 0.1941(3) 0.8237(4)
H23 H 0.8267 0.2185 0.7822
C26 C 0.8778(4) 0.2624(3) 0.9387(4)
H24 H 0.9287 0.2716 0.9000
H25 H 0.9050 0.2381 0.9873
C27 C 0.8326(4) 0.3434(4) 0.9607(4)
H26 H 0.7756 0.3335 0.9922
H27 H 0.8762 0.3744 0.9945
C28 C 0.8078(4) 0.3929(4) 0.8866(5)
H28 H 0.8658 0.4088 0.8590
H29 H 0.7713 0.3592 0.8493
C29 C 0.7521(4) 0.4674(3) 0.9067(4)
H30 H 0.7396 0.4976 0.8569
H31 H 0.6914 0.4513 0.9296
C30 C 0.8756(3) 0.5720(3) 0.9473(4)
C31 C 0.8988(3) 0.6087(2) 1.0212(4)
C32 C 0.9733(3) 0.6640(3) 1.0259(4)
H32 H 0.9910 0.6880 1.0750
C33 C 1.0202(4) 0.6816(3) 0.9531(5)
H33 H 1.0693 0.7195 0.9537
C34 C 0.9960(4) 0.6444(4) 0.8797(5)
H34 H 1.0297 0.6577 0.8328
C35 C 0.9248(4) 0.5897(4) 0.8749(4)
H35 H 0.9090 0.5648 0.8258
C36 C 0.7824(3) 0.5275(3) 1.0439(4)
H36 H 0.7342 0.4988 1.0698
Cu1B Cu 0.82043(4) -0.38916(3) 1.1981(2)
Cu1B_2 Cu 0.82043(4) 0.61084(3) 1.1981(2)
N4B N 0.6720(3) 0.2285(2) 0.6681(4)
N8B N 0.6611(3) 0.0786(2) 0.5814(3)
N10 N 0.8986(5) 0.1150(4) 0.4375(5)
O4 O 0.9494(7) 0.0601(7) 0.4657(6)
O5 O 0.9015(8) 0.1267(7) 0.3634(4)
O6 O 0.8490(8) 0.1547(6) 0.4808(5)
O7 O 0.8765(4) 0.1228(4) 0.6536(5)
H37 H 0.8901 0.1697 0.6708
H38 H 0.8787 0.1247 0.6024
O8 O 0.985(2) 0.8999(12) 0.569(2)
O9? O 0.933(5) 0.931(3) 0.606(4)
loop_
_geom_bond_atom_site_label_1
_geom_bond_atom_site_label_2
_geom_bond_site_symmetry_1
_geom_bond_site_symmetry_2
Cu1 O1 1_555 1_555
O1 N9 1_555 1_555
O2 N9 1_555 1_555
O3 N9 1_555 1_555
N1 Cu1 1_555 1_555
N2 C2 1_555 1_555
N3 C11 1_555 1_555
N4 C13 1_555 1_555
N5 Cu1 1_555 1_555
N6 C20 1_555 1_555
N7 C29 1_555 1_555
N8 C31 1_555 1_555
C1 N1 1_555 1_555
C2 C1 1_555 1_555
C3 C2 1_555 1_555
H1 C3 1_555 1_555
C4 C3 1_555 1_555
H2 C4 1_555 1_555
C5 C4 1_555 1_555
H3 C5 1_555 1_555
C6 C1 1_555 1_555
H4 C6 1_555 1_555
C7 N1 1_555 1_555
H5 C7 1_555 1_555
C8 N2 1_555 1_555
H6 C8 1_555 1_555
H7 C8 1_555 1_555
C9 C8 1_555 1_555
H8 C9 1_555 1_555
H9 C9 1_555 1_555
C10 C9 1_555 1_555
H10 C10 1_555 1_555
H11 C10 1_555 1_555
C11 C10 1_555 1_555
H12 C11 1_555 1_555
H13 C11 1_555 1_555
C12 N3 1_555 1_555
C13 C12 1_555 1_555
C14 C13 1_555 1_555
H14 C14 1_555 1_555
C15 C14 1_555 1_555
H15 C15 1_555 1_555
C16 C15 1_555 1_555
H16 C16 1_555 1_555
C17 C12 1_555 1_555
H17 C17 1_555 1_555
C18 N3 1_555 1_555
H18 C18 1_555 1_555
C19 N5 1_555 1_555
C20 C19 1_555 1_555
C21 C20 1_555 1_555
H19 C21 1_555 1_555
C22 C21 1_555 1_555
H20 C22 1_555 1_555
C23 C22 1_555 1_555
H21 C23 1_555 1_555
C24 C19 1_555 1_555
H22 C24 1_555 1_555
C25 N5 1_555 1_555
H23 C25 1_555 1_555
C26 N6 1_555 1_555
H24 C26 1_555 1_555
H25 C26 1_555 1_555
C27 C26 1_555 1_555
H26 C27 1_555 1_555
H27 C27 1_555 1_555
C28 C27 1_555 1_555
H28 C28 1_555 1_555
H29 C28 1_555 1_555
C29 C28 1_555 1_555
H30 C29 1_555 1_555
H31 C29 1_555 1_555
C30 N7 1_555 1_555
C31 C30 1_555 1_555
C32 C31 1_555 1_555
H32 C32 1_555 1_555
C33 C32 1_555 1_555
H33 C33 1_555 1_555
C34 C33 1_555 1_555
H34 C34 1_555 1_555
C35 C30 1_555 1_555
H35 C35 1_555 1_555
C36 N7 1_555 1_555
H36 C36 1_555 1_555
N10 O4 1_555 1_555
O5 N10 1_555 1_555
O6 N10 1_555 1_555
O7 H37 1_555 1_555
H38 O7 1_555 1_555
Cu1B N4 1_555 1_555
Cu1B_2 N8 1_555 1_555
N4B Cu1 1_555 1_555
N8B Cu1 1_555 1_555
N2 C7 1_555 1_555
N4 C18 1_555 1_555
N6 C25 1_555 1_555
N8 C36 1_555 1_555
C5 C6 1_555 1_555
C16 C17 1_555 1_555
C23 C24 1_555 1_555
C34 C35 1_555 1_555

#END
