
#######################################################################
#
#                 Cambridge Crystallographic Data Centre
#                                CCDC 
#
#######################################################################
#
# If this CIF has been generated from an entry in the Cambridge 
# Structural Database, then it will include bibliographic, chemical, 
# crystal, experimental, refinement or atomic coordinate data resulting 
# from the CCDC's data processing and validation procedures.
#
#######################################################################

data_KEWNEH
_symmetry_cell_setting           monoclinic
_symmetry_space_group_name_H-M   'P 2/n'
_symmetry_Int_Tables_number      13
_space_group_name_Hall           '-P 2yac'
loop_
_symmetry_equiv_pos_site_id
_symmetry_equiv_pos_as_xyz
1 x,y,z
2 1/2-x,y,1/2-z
3 -x,-y,-z
4 1/2+x,-y,1/2+z
_cell_length_a                   15.226(3)
_cell_length_b                   9.6015(16)
_cell_length_c                   16.916(3)
_cell_angle_alpha                90
_cell_angle_beta                 97.863(3)
_cell_angle_gamma                90
_cell_volume                     2449.74
loop_
_atom_site_label
_atom_site_type_symbol
_atom_site_fract_x
_atom_site_fract_y
_atom_site_fract_z
Co1 Co 0.7500 0.66185(8) 0.7500
O1 O 0.7500 0.8900(5) 0.7500
H1 H 0.7898 0.9412 0.7344
O2 O 0.7500 0.4467(4) 0.7500
H2 H 0.7168 0.3957 0.7174
N1 N 0.6546(2) 0.6675(4) 0.6430(2)
N2 N 0.5376(2) 0.7444(4) 0.5613(2)
N3 N 0.8540(2) 0.6726(4) 0.6777(2)
N4 N 0.9186(3) 0.7416(4) 0.5737(2)
C1 C 0.5836(3) 0.7476(5) 0.6348(3)
H3 H 0.5669 0.8012 0.6760
C2 C 0.6551(3) 0.6065(4) 0.5691(2)
C3 C 0.7139(3) 0.5120(5) 0.5423(3)
C4 C 0.6959(4) 0.4708(5) 0.4633(3)
H4 H 0.7345 0.4092 0.4433
C5 C 0.6230(4) 0.5176(6) 0.4134(3)
H5 H 0.6137 0.4860 0.3609
C6 C 0.5631(4) 0.6096(6) 0.4385(3)
H6 H 0.5133 0.6398 0.4049
C7 C 0.5815(3) 0.6544(4) 0.5165(3)
C8 C 0.4557(3) 0.8225(5) 0.5319(3)
H7 H 0.4295 0.8572 0.5772
H8 H 0.4134 0.7597 0.5023
C9 C 0.4733(4) 0.9448(6) 0.4784(4)
H9 H 0.5038 0.9108 0.4355
H10 H 0.4170 0.9837 0.4546
C10 C 0.8518(3) 0.7607(5) 0.6172(3)
H11 H 0.8084 0.8288 0.6059
C11 C 0.9282(3) 0.5893(5) 0.6731(3)
C12 C 0.9631(3) 0.4788(5) 0.7200(3)
H12 H 0.9365 0.4478 0.7630
C13 C 1.0390(4) 0.4164(6) 0.7003(4)
H13 H 1.0629 0.3403 0.7297
C14 C 1.0806(4) 0.4655(7) 0.6368(4)
H14 H 1.1329 0.4234 0.6267
C15 C 1.0472(4) 0.5718(6) 0.5898(3)
H15 H 1.0748 0.6025 0.5472
C16 C 0.9695(3) 0.6336(5) 0.6080(3)
C17 C 0.9374(4) 0.8298(5) 0.5075(3)
H16 H 0.8818 0.8609 0.4778
H17 H 0.9681 0.7750 0.4717
C18 C 0.9921(4) 0.9533(5) 0.5344(3)
H18 H 1.0487 0.9224 0.5621
H19 H 0.9625 1.0064 0.5718
H1A H 0.7102 0.9412 0.7656
H2A H 0.7832 0.3957 0.7826
N1B N 0.3454(2) 1.3325(4) 0.3570(2)
N2B N 0.4624(2) 1.2556(4) 0.4387(2)
C1B C 0.4164(3) 1.2524(5) 0.3652(3)
H3B H 0.4331 1.1988 0.3240
C2B C 0.3449(3) 1.3935(4) 0.4309(2)
C3B C 0.2861(3) 1.4880(5) 0.4577(3)
C4B C 0.3041(4) 1.5292(5) 0.5367(3)
H4B H 0.2655 1.5908 0.5567
C5B C 0.3770(4) 1.4824(6) 0.5866(3)
H5B H 0.3863 1.5140 0.6391
C6B C 0.4369(4) 1.3904(6) 0.5615(3)
H6B H 0.4867 1.3602 0.5951
C7B C 0.4185(3) 1.3456(4) 0.4835(3)
C8B C 0.5443(3) 1.1775(5) 0.4681(3)
H7B H 0.5705 1.1428 0.4228
H8B H 0.5866 1.2403 0.4977
C9B C 0.5267(4) 1.0552(6) 0.5216(4)
H9B H 0.4962 1.0892 0.5645
H10B H 0.5830 1.0163 0.5454
N3B N 1.1460(2) 1.3274(4) 0.3223(2)
N4B N 1.0814(3) 1.2584(4) 0.4263(2)
C10B C 1.1482(3) 1.2393(5) 0.3828(3)
H11B H 1.1916 1.1712 0.3941
C11B C 1.0718(3) 1.4107(5) 0.3269(3)
C12B C 1.0369(3) 1.5212(5) 0.2800(3)
H12B H 1.0635 1.5522 0.2370
C13B C 0.9610(4) 1.5836(6) 0.2997(4)
H13B H 0.9371 1.6597 0.2703
C14B C 0.9194(4) 1.5345(7) 0.3632(4)
H14B H 0.8671 1.5766 0.3733
C15B C 0.9528(4) 1.4282(6) 0.4102(3)
H15B H 0.9252 1.3975 0.4528
C16B C 1.0305(3) 1.3664(5) 0.3920(3)
C17B C 1.0626(4) 1.1702(5) 0.4925(3)
H16B H 1.1182 1.1391 0.5222
H17B H 1.0319 1.2250 0.5283
C18B C 1.0079(4) 1.0467(5) 0.4656(3)
H18B H 0.9513 1.0776 0.4379
H19B H 1.0375 0.9936 0.4282
Co1B Co 0.2500 1.33815(8) 0.2500
Co1B_2 Co 1.2500 1.33815(8) 0.2500
N1A N 0.8454(2) 0.6675(4) 0.8570(2)
N3A N 0.6460(2) 0.6726(4) 0.8223(2)
O3 O 0.6554(5) 0.2160(7) 0.9359(4)
O4 O 0.7117(4) 0.1414(7) 1.0503(4)
O5 O 0.7499(4) 0.0576(8) 0.9444(5)
N5 N 0.7059(4) 0.1381(7) 0.9779(4)
O6 O 0.1124(3) 0.9304(4) 0.2779(3)
H20 H 0.0616 0.9685 0.2706
H21 H 0.1208 0.9084 0.3270
O7 O 0.3433(3) 0.7510(4) 0.3405(2)
H22 H 0.3031 0.7920 0.3619
H23 H 0.3642 0.8129 0.3124
O8 O 0.9429(5) 0.0252(10) 0.2367(5)
C19 C 0.8933(11) 0.1436(15) 0.2572(10)
O9 O 0.3127(8) 0.1027(15) 0.6215(7)
loop_
_geom_bond_atom_site_label_1
_geom_bond_atom_site_label_2
_geom_bond_site_symmetry_1
_geom_bond_site_symmetry_2
Co1 O1 1_555 1_555
O1 H1 1_555 1_555
O2 Co1 1_555 1_555
H2 O2 1_555 1_555
N1 Co1 1_555 1_555
N2 C1 1_555 1_555
N3 Co1 1_555 1_555
N4 C10 1_555 1_555
C1 N1 1_555 1_555
H3 C1 1_555 1_555
C2 N1 1_555 1_555
C3 C2 1_555 1_555
C4 C3 1_555 1_555
H4 C4 1_555 1_555
C5 C4 1_555 1_555
H5 C5 1_555 1_555
C6 C5 1_555 1_555
H6 C6 1_555 1_555
C7 N2 1_555 1_555
C8 N2 1_555 1_555
H7 C8 1_555 1_555
H8 C8 1_555 1_555
C9 C8 1_555 1_555
H9 C9 1_555 1_555
H10 C9 1_555 1_555
C10 N3 1_555 1_555
H11 C10 1_555 1_555
C11 N3 1_555 1_555
C12 C11 1_555 1_555
H12 C12 1_555 1_555
C13 C12 1_555 1_555
H13 C13 1_555 1_555
C14 C13 1_555 1_555
H14 C14 1_555 1_555
C15 C14 1_555 1_555
H15 C15 1_555 1_555
C16 N4 1_555 1_555
C17 N4 1_555 1_555
H16 C17 1_555 1_555
H17 C17 1_555 1_555
C18 C17 1_555 1_555
H18 C18 1_555 1_555
H19 C18 1_555 1_555
O3 N5 1_555 1_555
O4 N5 1_555 1_555
O5 N5 1_555 1_555
O6 H20 1_555 1_555
H21 O6 1_555 1_555
O7 H22 1_555 1_555
H23 O7 1_555 1_555
O8 C19 1_555 1_555
H1A O1 1_555 1_555
H2A O2 1_555 1_555
N1B C1B 1_555 1_555
N2B C1B 1_555 1_555
C1B H3B 1_555 1_555
C2B N1B 1_555 1_555
C3B C2B 1_555 1_555
C4B C3B 1_555 1_555
H4B C4B 1_555 1_555
C5B C4B 1_555 1_555
H5B C5B 1_555 1_555
C6B C5B 1_555 1_555
H6B C6B 1_555 1_555
C7B N2B 1_555 1_555
C8B N2B 1_555 1_555
H7B C8B 1_555 1_555
H8B C8B 1_555 1_555
C9B C9 1_555 1_555
H9B C9B 1_555 1_555
H10B C9B 1_555 1_555
N3B C10B 1_555 1_555
N4B C10B 1_555 1_555
C10B H11B 1_555 1_555
C11B N3B 1_555 1_555
C12B C11B 1_555 1_555
H12B C12B 1_555 1_555
C13B C12B 1_555 1_555
H13B C13B 1_555 1_555
C14B C13B 1_555 1_555
H14B C14B 1_555 1_555
C15B C14B 1_555 1_555
H15B C15B 1_555 1_555
C16B N4B 1_555 1_555
C17B N4B 1_555 1_555
H16B C17B 1_555 1_555
H17B C17B 1_555 1_555
C18B C18 1_555 1_555
H18B C18B 1_555 1_555
H19B C18B 1_555 1_555
Co1B N1B 1_555 1_555
Co1B_2 N3B 1_555 1_555
N1A Co1 1_555 1_555
N3A Co1 1_555 1_555
C2 C7 1_555 1_555
C6 C7 1_555 1_555
C11 C16 1_555 1_555
C15 C16 1_555 1_555
C2B C7B 1_555 1_555
C6B C7B 1_555 1_555
C8B C9B 1_555 1_555
C11B C16B 1_555 1_555
C15B C16B 1_555 1_555
C17B C18B 1_555 1_555

#END
