
#######################################################################
#
#                 Cambridge Crystallographic Data Centre
#                                CCDC 
#
#######################################################################
#
# If this CIF has been generated from an entry in the Cambridge 
# Structural Database, then it will include bibliographic, chemical, 
# crystal, experimental, refinement or atomic coordinate data resulting 
# from the CCDC's data processing and validation procedures.
#
#######################################################################

data_KEWPUZ
_symmetry_cell_setting           monoclinic
_symmetry_space_group_name_H-M   'C 2/c'
_symmetry_Int_Tables_number      15
_space_group_name_Hall           '-C 2yn'
loop_
_symmetry_equiv_pos_site_id
_symmetry_equiv_pos_as_xyz
1 x,y,z
2 -x,y,1/2-z
3 1/2+x,1/2+y,z
4 1/2-x,1/2+y,1/2-z
5 -x,-y,-z
6 x,-y,1/2+z
7 1/2-x,1/2-y,-z
8 1/2+x,1/2-y,1/2+z
_cell_length_a                   25.6863(7)
_cell_length_b                   7.5837(2)
_cell_length_c                   10.9065(3)
_cell_angle_alpha                90
_cell_angle_beta                 103.296(2)
_cell_angle_gamma                90
_cell_volume                     2067.61
loop_
_atom_site_label
_atom_site_type_symbol
_atom_site_fract_x
_atom_site_fract_y
_atom_site_fract_z
Ag1 Ag 0.03333(9) 1.07099(4) -0.08054(2)
C1 C 0.37599(11) 0.7532(4) 0.2416(3)
C2 C 0.43045(11) 0.7935(4) 0.2818(3)
H1 H 0.4541 0.7792 0.2271
C3 C 0.44866(11) 0.8543(5) 0.4026(3)
H2 H 0.4856 0.8802 0.4324
C4 C 0.41350(12) 0.8791(5) 0.4830(3)
H3 H 0.427 0.9225 0.566
C5 C 0.35931(12) 0.8407(4) 0.4427(3)
H4 H 0.3358 0.8581 0.4974
C6 C 0.33990(11) 0.7762(4) 0.3207(3)
C7 C 0.28814(11) 0.7233(4) 0.2493(3)
C8 C 0.29530(11) 0.6728(4) 0.1340(3)
H5 H 0.2676 0.6309 0.0668
C9 C 0.23660(10) 0.7211(4) 0.2934(3)
H6 H 0.2396 0.8057 0.3638
H7 H 0.2315 0.6021 0.3262
C10 C 0.18750(10) 0.7679(4) 0.1904(3)
H8 H 0.1924 0.8866 0.157
H9 H 0.184 0.6825 0.1203
C11 C 0.13654(10) 0.7660(4) 0.2383(3)
H10 H 0.1287 0.6423 0.2567
H11 H 0.1434 0.8315 0.3189
C12 C 0.08719(11) 0.8428(4) 0.1522(3)
N1 N 0.34802(9) 0.6909(4) 0.1284(2)
H12 H 0.3614 0.6665 0.0629
O1 O 0.08866(8) 0.8838(3) 0.04077(19)
O2 O 0.04672(8) 0.8614(3) 0.19821(19)
Ag1D Ag -0.03333(9) 0.92901(4) 0.08054(2)
Ag1E Ag 0.03333(9) 0.92901(4) 0.41946(2)
O2D O -0.04672(8) 1.1386(3) -0.19821(19)
O2E O 0.04672(8) 1.1386(3) -0.30179(19)
loop_
_geom_bond_atom_site_label_1
_geom_bond_atom_site_label_2
_geom_bond_site_symmetry_1
_geom_bond_site_symmetry_2
Ag1 O1 1_555 1_555
C1 C2 1_555 1_555
C2 H1 1_555 1_555
C3 C2 1_555 1_555
H2 C3 1_555 1_555
C4 C3 1_555 1_555
H3 C4 1_555 1_555
C5 C4 1_555 1_555
H4 C5 1_555 1_555
C6 C1 1_555 1_555
C7 C6 1_555 1_555
C8 C7 1_555 1_555
H5 C8 1_555 1_555
C9 C7 1_555 1_555
H6 C9 1_555 1_555
H7 C9 1_555 1_555
C10 C9 1_555 1_555
H8 C10 1_555 1_555
H9 C10 1_555 1_555
C11 C10 1_555 1_555
H10 C11 1_555 1_555
H11 C11 1_555 1_555
C12 C11 1_555 1_555
N1 C1 1_555 1_555
H12 N1 1_555 1_555
O1 C12 1_555 1_555
O2 C12 1_555 1_555
Ag1D Ag1 1_555 1_555
Ag1E O2 1_555 1_555
O2D Ag1 1_555 1_555
O2E Ag1 1_555 1_555
C5 C6 1_555 1_555
C8 N1 1_555 1_555
O2 Ag1D 1_555 1_555

#END
