
#######################################################################
#
#                 Cambridge Crystallographic Data Centre
#                                CCDC 
#
#######################################################################
#
# If this CIF has been generated from an entry in the Cambridge 
# Structural Database, then it will include bibliographic, chemical, 
# crystal, experimental, refinement or atomic coordinate data resulting 
# from the CCDC's data processing and validation procedures.
#
#######################################################################

data_KEWPAF
_symmetry_cell_setting           orthorhombic
_symmetry_space_group_name_H-M   'P n a 21'
_symmetry_Int_Tables_number      33
_space_group_name_Hall           'P 2c -2n'
loop_
_symmetry_equiv_pos_site_id
_symmetry_equiv_pos_as_xyz
1 x,y,z
2 -x,-y,1/2+z
3 1/2+x,1/2-y,z
4 1/2-x,1/2+y,1/2+z
_cell_length_a                   21.8680(13)
_cell_length_b                   17.7441(10)
_cell_length_c                   16.8275(10)
_cell_angle_alpha                90
_cell_angle_beta                 90
_cell_angle_gamma                90
_cell_volume                     6529.54
loop_
_atom_site_label
_atom_site_type_symbol
_atom_site_fract_x
_atom_site_fract_y
_atom_site_fract_z
C1 C 0.4432(16) 0.593(2) 0.320(2)
H1 H 0.4511 0.6016 0.2665
C2 C 0.4425(15) 0.517(2) 0.351(2)
H2 H 0.4510 0.4792 0.3145
C3 C 0.4311(10) 0.5575(14) 0.4677(17)
C4 C 0.4320(13) 0.6316(16) 0.4448(19)
C5 C 0.4227(16) 0.694(2) 0.504(3)
H3 H 0.4168 0.7433 0.4869
C6 C 0.4231(17) 0.678(2) 0.576(3)
H4 H 0.4252 0.7177 0.6124
C7 C 0.4205(15) 0.604(2) 0.606(3)
H5 H 0.4137 0.5935 0.6598
C8 C 0.4290(12) 0.5447(16) 0.548(2)
H6 H 0.4333 0.4954 0.5662
C9 C 0.4403(14) 0.9101(18) 0.3218(19)
H7 H 0.4451 0.9039 0.3763
C10 C 0.4380(13) 0.9823(16) 0.294(2)
H8 H 0.4369 1.0218 0.3302
C11 C 0.4364(13) 0.9486(17) 0.0742(17)
H9 H 0.4396 0.9969 0.0533
C12 C 0.4313(17) 0.887(2) 0.027(3)
H10 H 0.4297 0.8936 -0.0275
C13 C 0.4282(15) 0.8127(19) 0.057(2)
H11 H 0.4233 0.7715 0.0232
C14 C 0.4333(11) 0.8042(15) 0.1418(16)
H12 H 0.4364 0.7558 0.1626
C15 C 0.3653(17) 0.2783(18) 0.3306(17)
H13 H 0.3266 0.2983 0.3398
C16 C 0.3711(12) 0.2137(15) 0.2823(14)
H14 H 0.3361 0.1919 0.2608
C17 C 0.4746(13) 0.2215(17) 0.2919(17)
C18 C 0.4690(13) 0.2850(17) 0.3380(16)
C19 C 0.5213(19) 0.323(3) 0.364(3)
H15 H 0.5183 0.3633 0.3989
C20 C 0.575(2) 0.300(3) 0.338(3)
H16 H 0.6087 0.3314 0.3415
C21 C 0.582(2) 0.226(2) 0.303(3)
H17 H 0.6206 0.2046 0.2969
C22 C 0.5292(18) 0.186(3) 0.280(3)
H18 H 0.5315 0.1378 0.2573
C23 C 0.4275(13) 0.2996(16) 0.5817(17)
H19 H 0.4613 0.2858 0.5514
C24 C 0.4204(16) 0.2712(19) 0.669(2)
H20 H 0.4523 0.2449 0.6928
C25 C 0.3276(14) 0.3264(17) 0.6734(18)
C26 C 0.3309(14) 0.3554(15) 0.5925(17)
C27 C 0.285(2) 0.3964(19) 0.562(2)
H21 H 0.2878 0.4173 0.5112
C28 C 0.2293(14) 0.4071(19) 0.6104(18)
H22 H 0.1962 0.4333 0.5895
C29 C 0.2260(17) 0.378(2) 0.688(2)
H23 H 0.1912 0.3853 0.7188
C30 C 0.2710(14) 0.3429(15) 0.7139(15)
H24 H 0.2677 0.3250 0.7657
C31 C 0.4336(13) 0.8610(17) 0.1911(18)
C32 C 0.4365(12) 0.9345(15) 0.1598(16)
C33 C 0.4410(13) 1.1961(14) 0.0291(15)
H25 H 0.4798 1.2042 0.0501
C34 C 0.4284(15) 1.2260(17) -0.041(2)
H26 H 0.4563 1.2591 -0.0634
C35 C 0.3316(12) 1.1699(15) -0.0370(16)
C36 C 0.3458(13) 1.1429(15) 0.0379(16)
C37 C 0.2994(15) 1.1030(18) 0.079(2)
H27 H 0.3082 1.0846 0.1294
C38 C 0.2445(15) 1.0905(17) 0.050(2)
H28 H 0.2145 1.0669 0.0801
C39 C 0.2331(13) 1.1141(15) -0.0281(18)
H29 H 0.1953 1.1019 -0.0499
C40 C 0.2761(11) 1.1567(16) -0.0786(17)
H30 H 0.2680 1.1726 -0.1302
Cu1 Cu 0.41637(17) 0.7480(3) 0.3186(4)
Cu2 Cu 0.4061(3) 0.3921(2) 0.4474(3)
Cu3 Cu 0.4278(2) 1.1044(2) 0.1760(2)
Cu4 Cu 0.36724(17) 0.2468(3) 0.8141(3)
N1 N 0.4323(11) 0.6525(14) 0.3685(17)
N2 N 0.4324(12) 0.4975(12) 0.4164(15)
N3 N 0.4363(12) 0.8486(14) 0.2790(17)
N4 N 0.4371(10) 0.9990(13) 0.2106(15)
N5 N 0.4140(11) 0.3113(13) 0.3636(15)
N6 N 0.4246(13) 0.1838(15) 0.2671(14)
N7 N 0.3839(11) 0.3442(13) 0.5510(13)
N8 N 0.3721(9) 0.2835(11) 0.7072(12)
N9 N 0.4005(12) 1.1537(14) 0.0730(14)
N10 N 0.3750(11) 1.2098(13) -0.0808(14)
O1 O 0.3240(8) 0.4786(9) 0.0498(9)
O2 O 0.2500(8) 0.5375(10) 0.1583(9)
O3 O 0.2269(8) 0.5634(10) 0.0045(10)
O4 O 0.2110(9) 0.4265(11) 0.0647(12)
O5 O 0.1939(10) 0.4446(11) -0.1054(11)
O6 O 0.1184(9) 0.3692(11) -0.0070(11)
O7 O 0.2161(8) 0.2832(10) 0.0380(10)
O8 O 0.2873(8) 0.3600(10) -0.0603(9)
O9 O 0.1474(11) 0.5814(11) -0.1025(13)
O10 O 0.1008(8) 0.5133(9) 0.0267(10)
O11 O 0.1386(8) 0.6217(10) 0.1165(10)
O12 O 0.1866(8) 0.6936(12) -0.0088(11)
O13 O 0.2780(8) 0.6881(9) 0.0955(11)
O14 O 0.2173(7) 0.6562(9) 0.2367(10)
O15 O 0.3139(9) 0.5695(10) 0.2787(13)
O16 O 0.3677(9) 0.6044(9) 0.1420(10)
O17 O 0.2012(9) 0.5167(11) 0.2940(12)
O18 O 0.3450(9) 0.4407(12) 0.2160(11)
O19 O 0.2367(9) 0.3881(11) 0.2306(11)
O20 O 0.3148(10) 0.3262(13) 0.1282(13)
O21 O 0.4344(10) 0.4785(10) 0.1061(11)
O22 O 0.3937(10) 0.3686(11) 0.0109(11)
O23 O 0.3508(8) 0.6312(14) -0.0086(14)
O24 O 0.4115(8) 0.5048(10) -0.0452(10)
O25 O 0.3025(8) 0.4967(11) -0.1231(11)
O26 O 0.2615(9) 0.6381(10) -0.1175(11)
O27 O 0.1204(10) 0.4848(11) 0.1805(11)
O28 O 0.1434(8) 0.3450(11) 0.1472(11)
O29 O 0.3974(9) 0.3840(10) -0.1473(11)
O30 O 0.4367(8) 0.3382(12) 0.1630(10)
O31 O 0.2267(9) 0.2338(12) 0.1980(12)
O32 O 0.0313(11) 0.4046(14) 0.1085(15)
O33 O 0.1026(8) 0.6109(11) 0.2726(14)
O34 O 0.0662(11) 0.6596(12) -0.0105(18)
O35 O 0.2951(10) 0.7692(10) -0.0439(12)
O36 O 0.3369(11) 0.7194(13) 0.2425(12)
O37 O 0.2991(10) 0.4394(11) 0.3625(13)
O38 O 0.1787(10) 0.2861(13) -0.1166(11)
O39 O 0.2129(9) 0.5415(11) -0.2333(10)
O40 O 0.4719(9) 0.6118(12) 0.0412(12)
Si1 Si 0.2545(3) 0.4974(4) 0.0695(4)
W1 W 0.30129(5) 0.64416(6) 0.19455(6)
W2 W 0.20126(5) 0.34998(6) -0.04917(6)
W3 W 0.27316(5) 0.68023(6) -0.01506(6)
W4 W 0.22768(5) 0.31542(6) 0.14709(6)
W5 W 0.10460(5) 0.42352(6) 0.08989(7)
W6 W 0.40359(5) 0.56531(6) 0.04639(7)
W7 W 0.27902(5) 0.46936(7) 0.27490(7)
W8 W 0.12898(6) 0.61060(7) 0.00459(7)
W9 W 0.22576(6) 0.53685(8) -0.13363(7)
W10 W 0.15666(6) 0.57594(7) 0.21618(7)
W11 W 0.35590(6) 0.42273(7) -0.07196(7)
W12 W 0.38195(5) 0.39010(7) 0.12495(7)
Cu1C Cu 0.08363(17) 0.2480(3) -0.1814(4)
Cu3_2 Cu 0.4278(2) 0.1044(2) 0.1760(2)
Cu4_2 Cu 0.36724(17) 1.2468(3) -0.1859(3)
N6_2 N 0.4246(13) 1.1838(15) 0.2671(14)
N10_2 N 0.3750(11) 0.2098(13) 0.9192(14)
O38C O 0.3213(10) 0.7861(13) 0.3834(11)
loop_
_geom_bond_atom_site_label_1
_geom_bond_atom_site_label_2
_geom_bond_site_symmetry_1
_geom_bond_site_symmetry_2
C1 H1 1_555 1_555
C2 C1 1_555 1_555
H2 C2 1_555 1_555
C3 C4 1_555 1_555
C4 C5 1_555 1_555
C5 H3 1_555 1_555
C6 C5 1_555 1_555
H4 C6 1_555 1_555
C7 C6 1_555 1_555
H5 C7 1_555 1_555
C8 C3 1_555 1_555
H6 C8 1_555 1_555
C9 H7 1_555 1_555
C10 C9 1_555 1_555
H8 C10 1_555 1_555
C11 H9 1_555 1_555
C12 C11 1_555 1_555
H10 C12 1_555 1_555
C13 C12 1_555 1_555
H11 C13 1_555 1_555
C14 C13 1_555 1_555
H12 C14 1_555 1_555
C15 H13 1_555 1_555
C16 C15 1_555 1_555
H14 C16 1_555 1_555
C17 C18 1_555 1_555
C18 C19 1_555 1_555
C19 H15 1_555 1_555
C20 C19 1_555 1_555
H16 C20 1_555 1_555
C21 C20 1_555 1_555
H17 C21 1_555 1_555
C22 C17 1_555 1_555
H18 C22 1_555 1_555
C23 H19 1_555 1_555
C24 C23 1_555 1_555
H20 C24 1_555 1_555
C25 C26 1_555 1_555
C26 C27 1_555 1_555
C27 H21 1_555 1_555
C28 C27 1_555 1_555
H22 C28 1_555 1_555
C29 C28 1_555 1_555
H23 C29 1_555 1_555
C30 C25 1_555 1_555
H24 C30 1_555 1_555
C31 C14 1_555 1_555
C32 C11 1_555 1_555
C33 H25 1_555 1_555
C34 C33 1_555 1_555
H26 C34 1_555 1_555
C35 C36 1_555 1_555
C36 C37 1_555 1_555
C37 H27 1_555 1_555
C38 C37 1_555 1_555
H28 C38 1_555 1_555
C39 C38 1_555 1_555
H29 C39 1_555 1_555
C40 C35 1_555 1_555
H30 C40 1_555 1_555
Cu1 N1 1_555 1_555
Cu2 N2 1_555 1_555
Cu3 N4 1_555 1_555
Cu4 N8 1_555 1_555
N1 C1 1_555 1_555
N2 C2 1_555 1_555
N3 C9 1_555 1_555
N4 C10 1_555 1_555
N5 C15 1_555 1_555
N6 C16 1_555 1_555
N7 C23 1_555 1_555
N8 C24 1_555 1_555
N9 C33 1_555 1_555
N10 C34 1_555 1_555
O1 Si1 1_555 1_555
O2 Si1 1_555 1_555
O3 Si1 1_555 1_555
O4 Si1 1_555 1_555
O5 W2 1_555 1_555
O6 W2 1_555 1_555
O7 W2 1_555 1_555
O8 W2 1_555 1_555
O9 W8 1_555 1_555
O10 W5 1_555 1_555
O11 W8 1_555 1_555
O12 W3 1_555 1_555
O13 W1 1_555 1_555
O14 W1 1_555 1_555
O15 W1 1_555 1_555
O16 W1 1_555 1_555
O17 W7 1_555 1_555
O18 W7 1_555 1_555
O19 W4 1_555 1_555
O20 W4 1_555 1_555
O21 W6 1_555 1_555
O22 W11 1_555 1_555
O23 W3 1_555 1_555
O24 W6 1_555 1_555
O25 W9 1_555 1_555
O26 W3 1_555 1_555
O27 W5 1_555 1_555
O28 W4 1_555 1_555
O29 W11 1_555 1_555
O30 W12 1_555 1_555
O31 W4 1_555 1_555
O32 W5 1_555 1_555
O33 W10 1_555 1_555
O34 W8 1_555 1_555
O35 W3 1_555 1_555
O36 Cu1 1_555 1_555
O37 W7 1_555 1_555
O38 W2 1_555 1_555
O39 W9 1_555 1_555
O40 W6 1_555 1_555
W1 O2 1_555 1_555
W2 O4 1_555 1_555
W3 O3 1_555 1_555
W4 O4 1_555 1_555
W5 O4 1_555 1_555
W6 O1 1_555 1_555
W7 O2 1_555 1_555
W8 O3 1_555 1_555
W9 O3 1_555 1_555
W10 O2 1_555 1_555
W11 O1 1_555 1_555
W12 O1 1_555 1_555
Cu1C O38 1_555 1_555
Cu3_2 N6 1_555 1_555
Cu4_2 N10 1_555 1_555
N6_2 Cu3 1_555 1_555
N10_2 Cu4 1_555 1_555
O38C Cu1 1_555 1_555
C3 N2 1_555 1_555
C4 N1 1_555 1_555
C7 C8 1_555 1_555
C17 N6 1_555 1_555
C18 N5 1_555 1_555
C21 C22 1_555 1_555
C25 N8 1_555 1_555
C26 N7 1_555 1_555
C29 C30 1_555 1_555
C31 C32 1_555 1_555
C31 N3 1_555 1_555
C32 N4 1_555 1_555
C35 N10 1_555 1_555
C36 N9 1_555 1_555
C39 C40 1_555 1_555
Cu1 N3 1_555 1_555
Cu2 N5 1_555 1_555
Cu2 N7 1_555 1_555
Cu3 N9 1_555 1_555
O5 W9 1_555 1_555
O6 W5 1_555 1_555
O7 W4 1_555 1_555
O8 W11 1_555 1_555
O9 W9 1_555 1_555
O10 W8 1_555 1_555
O11 W10 1_555 1_555
O12 W8 1_555 1_555
O13 W3 1_555 1_555
O14 W10 1_555 1_555
O15 W7 1_555 1_555
O16 W6 1_555 1_555
O17 W10 1_555 1_555
O18 W12 1_555 1_555
O19 W7 1_555 1_555
O20 W12 1_555 1_555
O21 W12 1_555 1_555
O22 W12 1_555 1_555
O23 W6 1_555 1_555
O24 W11 1_555 1_555
O25 W11 1_555 1_555
O26 W9 1_555 1_555
O27 W10 1_555 1_555
O28 W5 1_555 1_555
O36 W1 1_555 1_555

#END
