
#######################################################################
#
#                 Cambridge Crystallographic Data Centre
#                                CCDC 
#
#######################################################################
#
# If this CIF has been generated from an entry in the Cambridge 
# Structural Database, then it will include bibliographic, chemical, 
# crystal, experimental, refinement or atomic coordinate data resulting 
# from the CCDC's data processing and validation procedures.
#
#######################################################################

data_KEWWIU
_symmetry_cell_setting           monoclinic
_symmetry_space_group_name_H-M   'C 2/c'
_symmetry_Int_Tables_number      15
_space_group_name_Hall           '-C 2yn'
loop_
_symmetry_equiv_pos_site_id
_symmetry_equiv_pos_as_xyz
1 x,y,z
2 -x,y,1/2-z
3 1/2+x,1/2+y,z
4 1/2-x,1/2+y,1/2-z
5 -x,-y,-z
6 x,-y,1/2+z
7 1/2-x,1/2-y,-z
8 1/2+x,1/2-y,1/2+z
_cell_length_a                   20.2017(8)
_cell_length_b                   10.8542(5)
_cell_length_c                   18.4105(7)
_cell_angle_alpha                90
_cell_angle_beta                 111.112(2)
_cell_angle_gamma                90
_cell_volume                     3765.96
loop_
_atom_site_label
_atom_site_type_symbol
_atom_site_fract_x
_atom_site_fract_y
_atom_site_fract_z
Au1 Au 0.466636(13) 0.44906(3) 0.159433(14)
Hg1 Hg 0.50000 0.50000 0.00000
C1 C 0.5336(3) 0.5979(7) 0.1747(3)
C2 C 0.5088(4) 0.7161(7) 0.1627(4)
C3 C 0.6068(3) 0.5882(7) 0.2005(4)
C4 C 0.6515(4) 0.6896(10) 0.2129(4)
C5 C 0.6223(5) 0.8023(10) 0.1990(5)
C6 C 0.5500(5) 0.8191(8) 0.1734(4)
F1 F 0.4372(2) 0.7342(5) 0.1386(2)
Cl1 Cl 0.5152(2) 0.9565(3) 0.1532(2)
F2 F 0.6659(4) 0.9009(7) 0.2104(4)
Cl2 Cl 0.73956(12) 0.6654(4) 0.24299(15)
F3 F 0.6375(2) 0.4762(5) 0.2148(2)
P1 P 0.38576(10) 0.2945(2) 0.13669(12)
C7 C 0.2946(3) 0.3502(8) 0.1059(4)
H1 H 0.2628 0.2814 0.0965
H2 H 0.2838 0.3975 0.059
H3 H 0.2892 0.4011 0.1461
C8 C 0.3956(4) 0.1969(9) 0.2196(5)
H4 H 0.393 0.2464 0.2618
H5 H 0.4407 0.1559 0.2356
H6 H 0.3583 0.1368 0.2055
C9 C 0.3845(4) 0.1885(8) 0.0602(6)
H7 H 0.4297 0.1481 0.0744
H8 H 0.3752 0.2332 0.0125
H9 H 0.348 0.1281 0.0532
C10 C 0.5920(4) 0.3904(7) 0.0358(3)
C11 C 0.6578(4) 0.4393(8) 0.0552(4)
C12 C 0.7190(4) 0.3687(8) 0.0753(4)
C13 C 0.7127(5) 0.2432(8) 0.0743(4)
C14 C 0.6467(5) 0.1898(8) 0.0554(4)
C15 C 0.5879(4) 0.2665(7) 0.0363(4)
F4 F 0.6662(3) 0.5644(4) 0.0561(3)
F5 F 0.7882(2) 0.4219(4) 0.0958(3)
F6 F 0.7705(3) 0.1739(5) 0.0915(3)
F7 F 0.6384(3) 0.0591(5) 0.0542(3)
F8 F 0.5240(2) 0.2096(4) 0.0169(3)
Au1A Au 0.533364(13) 0.44906(3) 0.340567(14)
C1A C 0.4664(3) 0.5979(7) 0.3253(3)
C2A C 0.4912(4) 0.7161(7) 0.3373(4)
C3A C 0.3932(3) 0.5882(7) 0.2995(4)
C4A C 0.3485(4) 0.6896(10) 0.2871(4)
C5A C 0.3777(5) 0.8023(10) 0.3010(5)
C6A C 0.4500(5) 0.8191(8) 0.3266(4)
F1A F 0.5628(2) 0.7342(5) 0.3614(2)
Cl1A Cl 0.4848(2) 0.9565(3) 0.3468(2)
F2A F 0.3341(4) 0.9009(7) 0.2896(4)
Cl2A Cl 0.26044(12) 0.6654(4) 0.25701(15)
F3A F 0.3625(2) 0.4762(5) 0.2852(2)
P1A P 0.61424(10) 0.2945(2) 0.36331(12)
C7A C 0.7054(3) 0.3502(8) 0.3941(4)
H1A H 0.7372 0.2814 0.4035
H2A H 0.7162 0.3975 0.441
H3A H 0.7108 0.4011 0.3539
C8A C 0.6044(4) 0.1969(9) 0.2804(5)
H4A H 0.607 0.2464 0.2382
H5A H 0.5593 0.1559 0.2644
H6A H 0.6417 0.1368 0.2945
C9A C 0.6155(4) 0.1885(8) 0.4398(6)
H7A H 0.5703 0.1481 0.4256
H8A H 0.6248 0.2332 0.4875
H9A H 0.652 0.1281 0.4468
C10D C 0.4080(4) 0.6096(7) -0.0358(3)
C11D C 0.3422(4) 0.5607(8) -0.0552(4)
C12D C 0.2810(4) 0.6313(8) -0.0753(4)
C13D C 0.2873(5) 0.7568(8) -0.0743(4)
C14D C 0.3533(5) 0.8102(8) -0.0554(4)
C15D C 0.4121(4) 0.7335(7) -0.0363(4)
F4D F 0.3338(3) 0.4356(4) -0.0561(3)
F5D F 0.2118(2) 0.5781(4) -0.0958(3)
F6D F 0.2295(3) 0.8261(5) -0.0915(3)
F7D F 0.3616(3) 0.9409(5) -0.0542(3)
F8D F 0.4760(2) 0.7904(4) -0.0169(3)
Au1D Au 0.533364(13) 0.55094(3) -0.159433(14)
Hg1A Hg 0.50000 0.50000 0.50000
loop_
_geom_bond_atom_site_label_1
_geom_bond_atom_site_label_2
_geom_bond_site_symmetry_1
_geom_bond_site_symmetry_2
Au1 Hg1 1_555 1_555
Hg1 C10 1_555 1_555
C1 Au1 1_555 1_555
C2 C1 1_555 1_555
C3 C1 1_555 1_555
C4 C3 1_555 1_555
C5 C4 1_555 1_555
C6 C2 1_555 1_555
F1 C2 1_555 1_555
Cl1 C6 1_555 1_555
F2 C5 1_555 1_555
Cl2 C4 1_555 1_555
F3 C3 1_555 1_555
P1 Au1 1_555 1_555
C7 P1 1_555 1_555
H1 C7 1_555 1_555
H2 C7 1_555 1_555
H3 C7 1_555 1_555
C8 P1 1_555 1_555
H4 C8 1_555 1_555
H5 C8 1_555 1_555
H6 C8 1_555 1_555
C9 P1 1_555 1_555
H7 C9 1_555 1_555
H8 C9 1_555 1_555
H9 C9 1_555 1_555
C10 C11 1_555 1_555
C11 C12 1_555 1_555
C12 C13 1_555 1_555
C13 C14 1_555 1_555
C14 C15 1_555 1_555
C15 C10 1_555 1_555
F4 C11 1_555 1_555
F5 C12 1_555 1_555
F6 C13 1_555 1_555
F7 C14 1_555 1_555
F8 C15 1_555 1_555
Au1A Au1 1_555 1_555
C1A Au1A 1_555 1_555
C2A C1A 1_555 1_555
C3A C1A 1_555 1_555
C4A C3A 1_555 1_555
C5A C4A 1_555 1_555
C6A C2A 1_555 1_555
F1A C2A 1_555 1_555
Cl1A C6A 1_555 1_555
F2A C5A 1_555 1_555
Cl2A C4A 1_555 1_555
F3A C3A 1_555 1_555
P1A Au1A 1_555 1_555
C7A P1A 1_555 1_555
H1A C7A 1_555 1_555
H2A C7A 1_555 1_555
H3A C7A 1_555 1_555
C8A P1A 1_555 1_555
H4A C8A 1_555 1_555
H5A C8A 1_555 1_555
H6A C8A 1_555 1_555
C9A P1A 1_555 1_555
H7A C9A 1_555 1_555
H8A C9A 1_555 1_555
H9A C9A 1_555 1_555
C10D Hg1 1_555 1_555
C11D C10D 1_555 1_555
C12D C11D 1_555 1_555
C13D C12D 1_555 1_555
C14D C13D 1_555 1_555
C15D C10D 1_555 1_555
F4D C11D 1_555 1_555
F5D C12D 1_555 1_555
F6D C13D 1_555 1_555
F7D C14D 1_555 1_555
F8D C15D 1_555 1_555
Au1D Hg1 1_555 1_555
Hg1A Au1A 1_555 1_555
C5 C6 1_555 1_555
C5A C6A 1_555 1_555
C14D C15D 1_555 1_555

#END
