
#######################################################################
#
#                 Cambridge Crystallographic Data Centre
#                                CCDC 
#
#######################################################################
#
# If this CIF has been generated from an entry in the Cambridge 
# Structural Database, then it will include bibliographic, chemical, 
# crystal, experimental, refinement or atomic coordinate data resulting 
# from the CCDC's data processing and validation procedures.
#
#######################################################################

data_KEWWOA
_symmetry_cell_setting           monoclinic
_symmetry_space_group_name_H-M   'C 2/c'
_symmetry_Int_Tables_number      15
_space_group_name_Hall           '-C 2yn'
loop_
_symmetry_equiv_pos_site_id
_symmetry_equiv_pos_as_xyz
1 x,y,z
2 -x,y,1/2-z
3 1/2+x,1/2+y,z
4 1/2-x,1/2+y,1/2-z
5 -x,-y,-z
6 x,-y,1/2+z
7 1/2-x,1/2-y,-z
8 1/2+x,1/2-y,1/2+z
_cell_length_a                   20.0131(15)
_cell_length_b                   10.9726(8)
_cell_length_c                   18.4215(13)
_cell_angle_alpha                90
_cell_angle_beta                 111.155(3)
_cell_angle_gamma                90
_cell_volume                     3772.66
loop_
_atom_site_label
_atom_site_type_symbol
_atom_site_fract_x
_atom_site_fract_y
_atom_site_fract_z
Au1 Au 0.46794(2) 0.03615(5) 0.16131(2)
Hg1 Hg 0.50000 0.00000 0.00000
C1 C 0.5342(6) -0.1131(11) 0.1745(6)
C2 C 0.5085(6) -0.2286(12) 0.1645(6)
C3 C 0.5488(7) -0.3356(15) 0.1759(7)
C4 C 0.6232(9) -0.3209(17) 0.2015(8)
C5 C 0.6540(6) -0.2043(15) 0.2130(7)
C6 C 0.6105(6) -0.1053(14) 0.2006(6)
F1 F 0.4363(4) -0.2468(8) 0.1400(4)
F2 F 0.5125(4) -0.4586(5) 0.1611(4)
F3 F 0.6648(6) -0.4210(10) 0.2150(6)
F4 F 0.7366(2) -0.1858(7) 0.2410(3)
F5 F 0.6414(4) 0.0062(8) 0.2125(4)
P1 P 0.38673(16) 0.1897(3) 0.1428(2)
C7 C 0.3956(7) 0.2788(15) 0.2282(9)
H1 H 0.3584 0.3392 0.2152
H2 H 0.4414 0.3183 0.2467
H3 H 0.3916 0.2263 0.2681
C8 C 0.3881(8) 0.2998(14) 0.0711(10)
H4 H 0.3768 0.2603 0.0217
H5 H 0.4349 0.3358 0.0864
H6 H 0.3533 0.3622 0.0671
C9 C 0.2946(6) 0.1389(14) 0.1111(8)
H7 H 0.264 0.2072 0.1092
H8 H 0.2897 0.0795 0.1471
H9 H 0.2812 0.1031 0.0603
C10 C 0.4091(7) -0.1079(11) -0.0351(6)
C11 C 0.3424(6) -0.0656(11) -0.0562(6)
C12 C 0.2814(7) -0.1405(13) -0.0759(7)
C13 C 0.2909(8) -0.2590(14) -0.0751(7)
C14 C 0.3570(9) -0.3114(13) -0.0550(8)
C15 C 0.4163(7) -0.2343(13) -0.0348(6)
F6 F 0.3318(4) 0.0550(7) -0.0581(4)
Cl1 Cl 0.2016(2) -0.0844(5) -0.1009(3)
F7 F 0.2335(5) -0.3373(8) -0.0937(5)
Cl2 Cl 0.3728(4) -0.4647(5) -0.0516(3)
F8 F 0.4819(4) -0.2856(8) -0.0139(5)
Au1A Au 0.53206(2) 0.03615(5) 0.33869(2)
C1A C 0.4658(6) -0.1131(11) 0.3255(6)
C2A C 0.4915(6) -0.2286(12) 0.3355(6)
C3A C 0.4512(7) -0.3356(15) 0.3241(7)
C4A C 0.3768(9) -0.3209(17) 0.2985(8)
C5A C 0.3460(6) -0.2043(15) 0.2870(7)
C6A C 0.3895(6) -0.1053(14) 0.2994(6)
F1A F 0.5637(4) -0.2468(8) 0.3600(4)
F2A F 0.4875(4) -0.4586(5) 0.3389(4)
F3A F 0.3352(6) -0.4210(10) 0.2850(6)
F4A F 0.2634(2) -0.1858(7) 0.2590(3)
F5A F 0.3586(4) 0.0062(8) 0.2875(4)
P1A P 0.61327(16) 0.1897(3) 0.3572(2)
C7A C 0.6044(7) 0.2788(15) 0.2718(9)
H1A H 0.6416 0.3392 0.2848
H2A H 0.5586 0.3183 0.2533
H3A H 0.6084 0.2263 0.2319
C8A C 0.6119(8) 0.2998(14) 0.4289(10)
H4A H 0.6232 0.2603 0.4783
H5A H 0.5651 0.3358 0.4136
H6A H 0.6467 0.3622 0.4329
C9A C 0.7054(6) 0.1389(14) 0.3889(8)
H7A H 0.736 0.2072 0.3908
H8A H 0.7103 0.0795 0.3529
H9A H 0.7188 0.1031 0.4397
C10D C 0.5909(7) 0.1079(11) 0.0351(6)
C11D C 0.6576(6) 0.0656(11) 0.0562(6)
C12D C 0.7186(7) 0.1405(13) 0.0759(7)
C13D C 0.7091(8) 0.2590(14) 0.0751(7)
C14D C 0.6430(9) 0.3114(13) 0.0550(8)
C15D C 0.5837(7) 0.2343(13) 0.0348(6)
F6D F 0.6682(4) -0.0550(7) 0.0581(4)
Cl1D Cl 0.7984(2) 0.0844(5) 0.1009(3)
F7D F 0.7665(5) 0.3373(8) 0.0937(5)
Cl2D Cl 0.6272(4) 0.4647(5) 0.0516(3)
F8D F 0.5181(4) 0.2856(8) 0.0139(5)
Au1D Au 0.53206(2) -0.03615(5) -0.16131(2)
Hg1A Hg 0.50000 0.00000 0.50000
loop_
_geom_bond_atom_site_label_1
_geom_bond_atom_site_label_2
_geom_bond_site_symmetry_1
_geom_bond_site_symmetry_2
Au1 Hg1 1_555 1_555
Hg1 C10 1_555 1_555
C1 Au1 1_555 1_555
C2 C1 1_555 1_555
C3 C2 1_555 1_555
C4 C3 1_555 1_555
C5 C4 1_555 1_555
C6 C1 1_555 1_555
F1 C2 1_555 1_555
F2 C3 1_555 1_555
F3 C4 1_555 1_555
F4 C5 1_555 1_555
F5 C6 1_555 1_555
P1 Au1 1_555 1_555
C7 P1 1_555 1_555
H1 C7 1_555 1_555
H2 C7 1_555 1_555
H3 C7 1_555 1_555
C8 P1 1_555 1_555
H4 C8 1_555 1_555
H5 C8 1_555 1_555
H6 C8 1_555 1_555
C9 P1 1_555 1_555
H7 C9 1_555 1_555
H8 C9 1_555 1_555
H9 C9 1_555 1_555
C10 C11 1_555 1_555
C11 C12 1_555 1_555
C12 C13 1_555 1_555
C13 C14 1_555 1_555
C14 C15 1_555 1_555
C15 C10 1_555 1_555
F6 C11 1_555 1_555
Cl1 C12 1_555 1_555
F7 C13 1_555 1_555
Cl2 C14 1_555 1_555
F8 C15 1_555 1_555
Au1A Au1 1_555 1_555
C1A Au1A 1_555 1_555
C2A C1A 1_555 1_555
C3A C2A 1_555 1_555
C4A C3A 1_555 1_555
C5A C4A 1_555 1_555
C6A C1A 1_555 1_555
F1A C2A 1_555 1_555
F2A C3A 1_555 1_555
F3A C4A 1_555 1_555
F4A C5A 1_555 1_555
F5A C6A 1_555 1_555
P1A Au1A 1_555 1_555
C7A P1A 1_555 1_555
H1A C7A 1_555 1_555
H2A C7A 1_555 1_555
H3A C7A 1_555 1_555
C8A P1A 1_555 1_555
H4A C8A 1_555 1_555
H5A C8A 1_555 1_555
H6A C8A 1_555 1_555
C9A P1A 1_555 1_555
H7A C9A 1_555 1_555
H8A C9A 1_555 1_555
H9A C9A 1_555 1_555
C10D Hg1 1_555 1_555
C11D C10D 1_555 1_555
C12D C11D 1_555 1_555
C13D C12D 1_555 1_555
C14D C13D 1_555 1_555
C15D C10D 1_555 1_555
F6D C11D 1_555 1_555
Cl1D C12D 1_555 1_555
F7D C13D 1_555 1_555
Cl2D C14D 1_555 1_555
F8D C15D 1_555 1_555
Au1D Hg1 1_555 1_555
Hg1A Au1A 1_555 1_555
C5 C6 1_555 1_555
C5A C6A 1_555 1_555
C14D C15D 1_555 1_555

#END
