
#######################################################################
#
#                 Cambridge Crystallographic Data Centre
#                                CCDC 
#
#######################################################################
#
# If this CIF has been generated from an entry in the Cambridge 
# Structural Database, then it will include bibliographic, chemical, 
# crystal, experimental, refinement or atomic coordinate data resulting 
# from the CCDC's data processing and validation procedures.
#
#######################################################################

data_KEWXIV
_symmetry_cell_setting           orthorhombic
_symmetry_space_group_name_H-M   'P n a 21'
_symmetry_Int_Tables_number      33
_space_group_name_Hall           'P 2c -2n'
loop_
_symmetry_equiv_pos_site_id
_symmetry_equiv_pos_as_xyz
1 x,y,z
2 -x,-y,1/2+z
3 1/2-x,1/2+y,1/2+z
4 1/2+x,1/2-y,z
_cell_length_a                   8.438
_cell_length_b                   9.605
_cell_length_c                   17.696
_cell_angle_alpha                90
_cell_angle_beta                 90
_cell_angle_gamma                90
_cell_volume                     1434.21
loop_
_atom_site_label
_atom_site_type_symbol
_atom_site_fract_x
_atom_site_fract_y
_atom_site_fract_z
Zn1 Zn 0.03859(13) -1.48724(8) -0.02606(8)
O1 O -0.2729(10) -1.5580(7) -0.0407(5)
Cl1 Cl 0.0544(4) -1.6064(3) -0.13597(17)
N1 N -0.1397(10) -1.1054(10) 0.0374(5)
N2 N -0.0381(12) -1.2154(10) 0.0449(5)
N3 N -0.0923(10) -1.3140(8) -0.0077(4)
N4 N -0.2506(9) -1.1330(7) -0.0197(6)
N5 N -0.5313(10) -1.1060(10) -0.4315(5)
N6 N -0.4241(11) -1.5464(8) -0.1517(5)
H1 H -0.4467 -1.6329 -0.1453
C1 C -0.4819(12) -1.4853(9) -0.2151(5)
C2 C -0.4522(12) -1.3448(9) -0.2271(5)
C3 C -0.5511(14) -1.0497(10) -0.3615(6)
H2 H -0.5809 -0.9567 -0.3577
C4 C -0.4728(12) -1.3232(10) -0.3712(6)
H3 H -0.4462 -1.4167 -0.3766
C5 C -0.5284(12) -1.1258(11) -0.2957(6)
H4 H -0.5373 -1.0812 -0.2492
C6 C -0.3305(11) -1.4831(9) -0.0950(5)
C7 C -0.4926(13) -1.2408(11) -0.4349(6)
H5 H -0.4782 -1.2811 -0.4821
C8 C -0.3065(13) -1.3365(9) -0.1056(5)
C9 C -0.3580(12) -1.2735(9) -0.1697(5)
H6 H -0.3321 -1.1804 -0.1774
C10 C -0.2208(11) -1.2594(8) -0.0445(4)
C11 C -0.4929(10) -1.2659(9) -0.2974(5)
C12 C -0.5722(15) -1.5808(11) -0.2675(6)
H7 H -0.5762 -1.6726 -0.2461
H8 H -0.5197 -1.5844 -0.3156
H9 H -0.6780 -1.5462 -0.2741
Zn1B Zn -0.53859(13) -0.98724(8) -0.52606(8)
Zn1C Zn -0.46141(13) -1.01276(8) -0.02606(8)
N4C N 0.2494(9) -1.3670(7) -0.0197(6)
N5B N 0.0313(10) -1.6060(10) 0.0685(5)
loop_
_geom_bond_atom_site_label_1
_geom_bond_atom_site_label_2
_geom_bond_site_symmetry_1
_geom_bond_site_symmetry_2
Zn1 Cl1 1_555 1_555
O1 C6 1_555 1_555
N1 N2 1_555 1_555
N2 N3 1_555 1_555
N3 Zn1 1_555 1_555
N4 N1 1_555 1_555
N5 C3 1_555 1_555
N6 H1 1_555 1_555
C1 N6 1_555 1_555
C2 C1 1_555 1_555
C3 H2 1_555 1_555
C4 H3 1_555 1_555
C5 C3 1_555 1_555
H4 C5 1_555 1_555
C6 N6 1_555 1_555
C7 N5 1_555 1_555
H5 C7 1_555 1_555
C8 C6 1_555 1_555
C9 C2 1_555 1_555
H6 C9 1_555 1_555
C10 N3 1_555 1_555
C11 C2 1_555 1_555
C12 C1 1_555 1_555
H7 C12 1_555 1_555
H8 C12 1_555 1_555
H9 C12 1_555 1_555
Zn1B N5 1_555 1_555
Zn1C N4 1_555 1_555
N4C Zn1 1_555 1_555
N5B Zn1 1_555 1_555
N4 C10 1_555 1_555
C4 C7 1_555 1_555
C4 C11 1_555 1_555
C5 C11 1_555 1_555
C8 C9 1_555 1_555
C8 C10 1_555 1_555

#END
