
#######################################################################
#
#                 Cambridge Crystallographic Data Centre
#                                CCDC 
#
#######################################################################
#
# If this CIF has been generated from an entry in the Cambridge 
# Structural Database, then it will include bibliographic, chemical, 
# crystal, experimental, refinement or atomic coordinate data resulting 
# from the CCDC's data processing and validation procedures.
#
#######################################################################

data_KEXCAR
_symmetry_cell_setting           monoclinic
_symmetry_space_group_name_H-M   'P 21/c'
_symmetry_Int_Tables_number      14
_space_group_name_Hall           '-P 2ybc'
loop_
_symmetry_equiv_pos_site_id
_symmetry_equiv_pos_as_xyz
1 x,y,z
2 -x,1/2+y,1/2-z
3 -x,-y,-z
4 x,1/2-y,1/2+z
_cell_length_a                   10.234(1)
_cell_length_b                   9.854(1)
_cell_length_c                   19.153(4)
_cell_angle_alpha                90
_cell_angle_beta                 97.73(1)
_cell_angle_gamma                90
_cell_volume                     1913.95
loop_
_atom_site_label
_atom_site_type_symbol
_atom_site_fract_x
_atom_site_fract_y
_atom_site_fract_z
S1 S -0.3859(1) -0.3301(1) 0.30653(6)
O1 O -0.4984(3) -0.2442(3) 0.3058(2)
O2 O -0.4159(3) -0.4649(3) 0.2814(2)
O3 O -0.2746(3) -0.2674(4) 0.2824(2)
C1 C -0.3312(5) -0.3574(6) 0.4000(3)
F1 F -0.2278(3) -0.4391(4) 0.4085(2)
F2 F -0.4243(4) -0.4134(4) 0.4309(2)
F3 F -0.2979(4) -0.2420(4) 0.4321(2)
S2 S -0.1063(1) -0.5665(1) 0.1795(1)
O4 O -0.0297(3) -0.6824(3) 0.2041(2)
O5 O -0.2453(3) -0.5898(3) 0.1691(2)
O6 O -0.0652(3) -0.4417(3) 0.2140(2)
C2 C -0.0679(5) -0.5426(5) 0.0902(3)
F4 F -0.0962(4) -0.6514(3) 0.0519(2)
F5 F -0.1365(4) -0.4403(3) 0.0591(2)
F6 F 0.0561(3) -0.5146(5) 0.0903(2)
O7 O -0.1648(3) -0.1444(3) 0.1592(2)
C3 C -0.0769(6) -0.1134(5) 0.1081(3)
C4 C -0.1026(5) 0.0318(5) 0.0869(3)
C5 C -0.2435(5) 0.0545(5) 0.1022(3)
C6 C -0.2468(5) -0.0271(6) 0.1665(3)
O8 O -0.5133(3) -0.4541(4) 0.1237(2)
C7 C -0.6477(5) -0.4197(8) 0.1263(4)
C8 C -0.6677(7) -0.2825(7) 0.1010(4)
C9 C -0.5668(7) -0.2674(8) 0.0539(5)
C10 C -0.4587(6) -0.3600(6) 0.0807(3)
Li1 Li -0.4179(7) -0.5691(8) 0.1940(4)
Li2 Li -0.1179(7) -0.2634(7) 0.2385(4)
H1 H 0.0245 -0.1262 0.1314
H2 H -0.0975 -0.1790 0.0628
H3 H -0.0346 0.0990 0.1181
H4 H -0.0951 0.0465 0.0317
H5 H -0.3145 0.0179 0.0595
H6 H -0.2619 0.1604 0.1115
H7 H -0.3466 -0.0581 0.1709
H8 H -0.2080 0.0309 0.2125
H9 H -0.7112 -0.4879 0.0931
H10 H -0.6695 -0.4269 0.1798
H11 H -0.7657 -0.2693 0.0729
H12 H -0.6520 -0.2108 0.1440
H13 H -0.6070 -0.2950 0.0008
H14 H -0.5316 -0.1640 0.0547
H15 H -0.3795 -0.3044 0.1110
H16 H -0.4217 -0.4116 0.0377
O1A O -0.5016(3) -0.7442(3) 0.1942(2)
Li1A Li -0.5821(7) -0.0691(8) 0.3060(4)
Li2A Li 0.1179(7) -0.7634(7) 0.2615(4)
O4A O 0.0297(3) -0.1824(3) 0.2959(2)
loop_
_geom_bond_atom_site_label_1
_geom_bond_atom_site_label_2
_geom_bond_site_symmetry_1
_geom_bond_site_symmetry_2
S1 O1 1_555 1_555
O1 Li1A 1_555 1_555
O2 S1 1_555 1_555
O3 S1 1_555 1_555
C1 S1 1_555 1_555
F1 C1 1_555 1_555
F2 C1 1_555 1_555
F3 C1 1_555 1_555
S2 O4 1_555 1_555
O4 Li2A 1_555 1_555
O5 S2 1_555 1_555
O6 S2 1_555 1_555
C2 S2 1_555 1_555
F4 C2 1_555 1_555
F5 C2 1_555 1_555
F6 C2 1_555 1_555
O7 C3 1_555 1_555
C3 C4 1_555 1_555
C4 C5 1_555 1_555
C5 C6 1_555 1_555
C6 O7 1_555 1_555
O8 C7 1_555 1_555
C7 C8 1_555 1_555
C8 C9 1_555 1_555
C9 C10 1_555 1_555
C10 O8 1_555 1_555
Li1 O2 1_555 1_555
Li2 O3 1_555 1_555
H1 C3 1_555 1_555
H2 C3 1_555 1_555
H3 C4 1_555 1_555
H4 C4 1_555 1_555
H5 C5 1_555 1_555
H6 C5 1_555 1_555
H7 C6 1_555 1_555
H8 C6 1_555 1_555
H9 C7 1_555 1_555
H10 C7 1_555 1_555
H11 C8 1_555 1_555
H12 C8 1_555 1_555
H13 C9 1_555 1_555
H14 C9 1_555 1_555
H15 C10 1_555 1_555
H16 C10 1_555 1_555
O1A Li1 1_555 1_555
O4A Li2 1_555 1_555
O5 Li1 1_555 1_555
O6 Li2 1_555 1_555
O7 Li2 1_555 1_555
O8 Li1 1_555 1_555

#END
