
#######################################################################
#
#                 Cambridge Crystallographic Data Centre
#                                CCDC 
#
#######################################################################
#
# If this CIF has been generated from an entry in the Cambridge 
# Structural Database, then it will include bibliographic, chemical, 
# crystal, experimental, refinement or atomic coordinate data resulting 
# from the CCDC's data processing and validation procedures.
#
#######################################################################

data_KEXDAS
_symmetry_cell_setting           orthorhombic
_symmetry_space_group_name_H-M   'P 21 21 21'
_symmetry_Int_Tables_number      19
_space_group_name_Hall           'P 2ac 2ab'
loop_
_symmetry_equiv_pos_site_id
_symmetry_equiv_pos_as_xyz
1 x,y,z
2 1/2+x,1/2-y,-z
3 -x,1/2+y,1/2-z
4 1/2-x,-y,1/2+z
_cell_length_a                   13.132(2)
_cell_length_b                   25.757(5)
_cell_length_c                   8.596(1)
_cell_angle_alpha                90
_cell_angle_beta                 90
_cell_angle_gamma                90
_cell_volume                     2907.52
loop_
_atom_site_label
_atom_site_type_symbol
_atom_site_fract_x
_atom_site_fract_y
_atom_site_fract_z
Cl1 Cl 0.4490(1) 0.3051(1) -0.2940(3)
Cl2 Cl 0.8822(2) 0.0797(1) 0.8771(3)
Cl3 Cl 0.1700(2) 0.1580(1) 0.6698(3)
O17 O 0.6631(14) 0.0224(4) 0.3698(22)
Sr1 Sr 0.3052(1) 0.2374(1) 0.2140(1)
O1 O 0.4598(3) 0.1600(2) 0.2000(6)
O2 O 0.2109(4) 0.1548(2) 0.3101(6)
O3 O 0.3077(4) 0.1426(2) 0.0345(6)
O4 O 0.4591(4) 0.2495(2) 0.0275(6)
O5 O 0.3518(5) 0.2159(2) 0.5030(7)
O6 O 0.4123(6) 0.3121(2) 0.3315(8)
O7 O 0.1447(4) 0.2638(2) 0.3622(7)
O8 O 0.6809(4) 0.2679(2) 0.0276(6)
O9 O 0.7514(4) 0.1789(2) -0.0713(7)
C1 C 0.4131(5) 0.1119(3) 0.2431(10)
C2 C 0.4907(5) 0.1581(3) 0.0385(9)
C3 C 0.2195(5) 0.1039(2) 0.2429(9)
H1 H 0.1937 0.1516 0.4258
C4 C 0.3151(5) 0.1023(2) 0.1476(9)
C5 C 0.3971(6) 0.1445(3) -0.0626(10)
C6 C 0.5357(5) 0.2108(3) -0.0014(9)
H2 H 0.4500 0.2616 -0.0519
C7 C 0.1296(10) 0.3042(5) 0.4664(15)
H3 H 0.3992 0.1139 0.3365
H4 H 0.4555 0.0883 0.2345
O10 O 0.5656(4) 0.1188(2) 0.0134(7)
C8 C 0.1245(5) 0.0911(3) 0.1471(9)
H5 H 0.2321 0.0800 0.3306
O11 O 0.3237(4) 0.0528(2) 0.0774(7)
H6 H 0.3904 0.1716 -0.1471
H7 H 0.4114 0.1104 -0.1120
C9 C 0.6329(5) 0.2223(3) 0.0893(9)
H8 H 0.5537 0.2101 -0.1095
C10 C 0.1040(16) 0.3551(5) 0.4100(17)
H9 H 0.1911 0.3072 0.5311
H10 H 0.0819 0.2947 0.5441
C11 C 0.6558(6) 0.1256(3) 0.1051(11)
O12 O 0.0395(3) 0.0851(2) 0.2494(6)
C12 C 0.1407(5) 0.0407(3) 0.0557(10)
H11 H 0.1116 0.1246 0.0744
C13 C 0.2405(6) 0.0413(3) -0.0262(11)
C14 C 0.7075(5) 0.1766(3) 0.0809(10)
H12 H 0.6168 0.2317 0.1902
H13 H 0.0991 0.3800 0.4858
H14 H 0.0432 0.3531 0.3486
H15 H 0.1580 0.3663 0.3348
H16 H 0.6976 0.1021 0.1000
H17 H 0.6350 0.1242 0.2197
Sr2 Sr 0.0000 0.0000 0.3955(1)
H18 H 0.0022 0.1176 0.2735
O13 O 0.1328(4) -0.0018(2) 0.1659(6)
H19 H 0.0923 0.0376 -0.0245
H20 H 0.2537 0.0122 -0.0682
H21 H 0.2447 0.0627 -0.1241
H22 H 0.6503 0.2861 0.1062
H23 H 0.7648 0.1863 0.1648
O14 O 0.0645(9) 0.0515(4) 0.6295(11)
O15 O -0.1479(10) 0.0588(6) 0.4958(14)
O16 O 0.0000 0.0000 0.0456(42)
C15 C -0.0790(65) 0.0067(33) 0.1538(99)
H24 H 0.1260 -0.0289 0.1037
H25 H 0.7807 0.1530 -0.0983
Sr1A Sr 0.8052(1) 0.2626(1) -0.2140(1)
O8A O 0.1809(4) 0.2321(2) -0.0276(6)
O9A O 0.2514(4) 0.3211(2) 0.0713(7)
C16? C 0.5000 0.0000 0.7644(56)
loop_
_geom_bond_atom_site_label_1
_geom_bond_atom_site_label_2
_geom_bond_site_symmetry_1
_geom_bond_site_symmetry_2
Sr1 O1 1_555 1_555
O1 C1 1_555 1_555
O2 Sr1 1_555 1_555
O3 Sr1 1_555 1_555
O4 Sr1 1_555 1_555
O5 Sr1 1_555 1_555
O6 Sr1 1_555 1_555
O7 Sr1 1_555 1_555
O8 C9 1_555 1_555
O9 C14 1_555 1_555
C1 C4 1_555 1_555
C2 O1 1_555 1_555
C3 O2 1_555 1_555
H1 O2 1_555 1_555
C4 O3 1_555 1_555
C5 O3 1_555 1_555
C6 O4 1_555 1_555
H2 O4 1_555 1_555
C7 O7 1_555 1_555
H3 C1 1_555 1_555
H4 C1 1_555 1_555
O10 C2 1_555 1_555
C8 C3 1_555 1_555
H5 C3 1_555 1_555
O11 C4 1_555 1_555
H6 C5 1_555 1_555
H7 C5 1_555 1_555
C9 C6 1_555 1_555
H8 C6 1_555 1_555
C10 C7 1_555 1_555
H9 C7 1_555 1_555
H10 C7 1_555 1_555
C11 O10 1_555 1_555
O12 C8 1_555 1_555
C12 C8 1_555 1_555
H11 C8 1_555 1_555
C13 O11 1_555 1_555
C14 C9 1_555 1_555
H12 C9 1_555 1_555
H13 C10 1_555 1_555
H14 C10 1_555 1_555
H15 C10 1_555 1_555
H16 C11 1_555 1_555
H17 C11 1_555 1_555
Sr2 O12 1_555 1_555
H18 O12 1_555 1_555
O13 C12 1_555 1_555
H19 C12 1_555 1_555
H20 C13 1_555 1_555
H21 C13 1_555 1_555
H22 O8 1_555 1_555
H23 C14 1_555 1_555
O14 Sr2 1_555 1_555
O15 Sr2 1_555 1_555
O16 Sr2 1_555 1_555
C15 O16 1_555 1_555
H24 O13 1_555 1_555
H25 O9 1_555 1_555
Sr1A O8 1_555 1_555
O8A Sr1 1_555 1_555
O9A Sr1 1_555 1_555
O9 Sr1A 1_555 1_555
C2 C5 1_555 1_555
C2 C6 1_555 1_555
C3 C4 1_555 1_555
C11 C14 1_555 1_555
C12 C13 1_555 1_555
Sr2 O13 1_555 1_555

#END
