
#######################################################################
#
#                 Cambridge Crystallographic Data Centre
#                                CCDC 
#
#######################################################################
#
# If this CIF has been generated from an entry in the Cambridge 
# Structural Database, then it will include bibliographic, chemical, 
# crystal, experimental, refinement or atomic coordinate data resulting 
# from the CCDC's data processing and validation procedures.
#
#######################################################################

data_KEXDOH
_symmetry_cell_setting           monoclinic
_symmetry_space_group_name_H-M   'P 21/c'
_symmetry_Int_Tables_number      14
_space_group_name_Hall           '-P 2ybc'
loop_
_symmetry_equiv_pos_site_id
_symmetry_equiv_pos_as_xyz
1 x,y,z
2 -x,1/2+y,1/2-z
3 -x,-y,-z
4 x,1/2-y,1/2+z
_cell_length_a                   10.492(2)
_cell_length_b                   20.017(4)
_cell_length_c                   19.537(4)
_cell_angle_alpha                90
_cell_angle_beta                 90.97(3)
_cell_angle_gamma                90
_cell_volume                     4102.54
loop_
_atom_site_label
_atom_site_type_symbol
_atom_site_fract_x
_atom_site_fract_y
_atom_site_fract_z
Mo1 Mo 0.09457(8) 0.66057(4) 0.05547(4)
I1 I 0.46654(8) 0.64957(5) -0.11073(4)
Cu1 Cu 0.24420(12) 0.74155(6) 0.13018(7)
Cu2 Cu 0.22597(12) 0.55939(6) 0.11365(7)
Cu3 Cu 0.28181(13) 0.65710(7) -0.03516(7)
S1 S 0.2051(3) 0.74930(14) 0.01478(15)
S2 S 0.1432(2) 0.64924(12) 0.16843(12)
S3 S 0.1684(3) 0.56883(13) 0.00061(14)
S4 S 0.0971(3) 1.04056(14) 0.25037(15)
S5 S 0.1425(3) 1.04251(14) 0.35167(15)
S6 S 0.8655(3) 0.73904(17) 0.19028(18)
S7 S 0.8964(3) 0.75051(15) 0.29217(18)
O1 O -0.0657(7) 0.6705(4) 0.0416(4)
N1 N 0.1764(9) 0.8297(5) 0.1730(5)
N2 N 0.5760(9) 1.0576(4) 0.3739(5)
N3 N 0.4353(9) 0.7391(4) 0.1520(5)
N4 N 0.8254(8) 0.9669(4) 0.3517(5)
C1 C 0.1282(12) 0.8784(6) 0.1337(6)
H1 H 0.1117 0.8689 0.0867
C2 C 0.1013(12) 0.9405(6) 0.1569(6)
H2 H 0.0648 0.9728 0.1268
C3 C 0.1273(10) 0.9569(5) 0.2252(6)
C4 C 0.1735(11) 0.9075(5) 0.2675(6)
H3 H 0.1902 0.9160 0.3146
C5 C 0.1952(11) 0.8451(5) 0.2397(6)
H4 H 0.2252 0.8108 0.2694
C6 C 0.3113(9) 1.0500(4) 0.3569(5)
C7 C 0.3676(10) 1.0512(5) 0.4208(6)
H5 H 0.3168 1.0489 0.4605
C8 C 0.4973(10) 1.0556(5) 0.4269(5)
H6 H 0.5338 1.0574 0.4717
C9 C 0.5211(11) 1.0577(6) 0.3117(6)
H7 H 0.5745 1.0611 0.2730
C10 C 0.3893(10) 1.0532(6) 0.3003(6)
H8 H 0.3543 1.0523 0.2551
C11 C 0.4834(11) 0.7508(6) 0.2152(6)
H9 H 0.4254 0.7591 0.2511
C12 C 0.6115(11) 0.7515(6) 0.2307(6)
H10 H 0.6408 0.7616 0.2758
C13 C 0.6974(10) 0.7373(5) 0.1798(6)
C14 C 0.6502(11) 0.7220(6) 0.1160(6)
H11 H 0.7064 0.7100 0.0804
C15 C 0.5220(11) 0.7241(6) 0.1037(6)
H12 H 0.4916 0.7145 0.0587
C16 C 0.8701(10) 0.8366(5) 0.3097(6)
C17 C 0.8269(10) 0.8838(5) 0.2636(6)
H13 H 0.8123 0.8725 0.2168
C18 C 0.8056(10) 0.9470(6) 0.2865(6)
H14 H 0.7748 0.9791 0.2545
C19 C 0.8675(10) 0.9199(5) 0.3967(6)
H15 H 0.8812 0.9323 0.4432
C20 C 0.8911(11) 0.8554(6) 0.3777(6)
H16 H 0.9214 0.8238 0.4104
Cu2A Cu 0.77403(12) 1.05939(6) 0.38635(7)
N2A N 0.4240(9) 0.5576(4) 0.1261(5)
N4A N 0.1746(8) 0.4669(4) 0.1483(5)
O2 O 1.351(2) 0.0765(12) 0.1227(11)
N5 N 1.244(2) 0.1463(10) 0.0491(11)
C21 C 1.148(4) 0.1565(16) 0.0047(18)
H17 H 1.1748 0.1440 -0.0414
H18 H 1.1241 0.2038 0.0052
H19 H 1.0750 0.1292 0.0177
C22 C 1.325(4) 0.2016(15) 0.0583(18)
H20 H 1.3256 0.2151 0.1065
H21 H 1.2946 0.2387 0.0298
H22 H 1.4119 0.1895 0.0450
C23 C 1.266(3) 0.0906(18) 0.0863(18)
H23 H 1.2011 0.0575 0.0822
N6 N 0.493(4) 0.4277(19) 0.334(2)
C24 C 0.559(5) 0.408(2) 0.462(2)
H24 H 0.5985 0.3631 0.4612
H25 H 0.4982 0.4096 0.4997
H26 H 0.6255 0.4414 0.4697
C25 C 0.493(4) 0.420(2) 0.397(2)
N7 N 0.345(4) 0.6428(19) 0.367(2)
C26 C 0.101(4) 0.623(2) 0.3468(10)
H27 H 0.0654 0.6681 0.3501
H28 H 0.0473 0.5918 0.3724
H29 H 0.1023 0.6092 0.2986
C27 C 0.232(4) 0.622(2) 0.376(2)
loop_
_geom_bond_atom_site_label_1
_geom_bond_atom_site_label_2
_geom_bond_site_symmetry_1
_geom_bond_site_symmetry_2
Mo1 S1 1_555 1_555
I1 Cu3 1_555 1_555
Cu1 S1 1_555 1_555
Cu2 S2 1_555 1_555
Cu3 S1 1_555 1_555
S2 Mo1 1_555 1_555
S3 Mo1 1_555 1_555
S4 S5 1_555 1_555
S5 C6 1_555 1_555
S6 S7 1_555 1_555
S7 C16 1_555 1_555
O1 Mo1 1_555 1_555
O2 C23 1_555 1_555
N1 Cu1 1_555 1_555
N2 C8 1_555 1_555
N3 Cu1 1_555 1_555
N4 C18 1_555 1_555
N5 C21 1_555 1_555
N6 C25 1_555 1_555
N7 C27 1_555 1_555
C1 N1 1_555 1_555
H1 C1 1_555 1_555
C2 C1 1_555 1_555
H2 C2 1_555 1_555
C3 S4 1_555 1_555
C4 C3 1_555 1_555
H3 C4 1_555 1_555
C5 N1 1_555 1_555
H4 C5 1_555 1_555
C6 C7 1_555 1_555
C7 H5 1_555 1_555
C8 C7 1_555 1_555
H6 C8 1_555 1_555
C9 N2 1_555 1_555
H7 C9 1_555 1_555
C10 C6 1_555 1_555
H8 C10 1_555 1_555
C11 N3 1_555 1_555
H9 C11 1_555 1_555
C12 C11 1_555 1_555
H10 C12 1_555 1_555
C13 S6 1_555 1_555
C14 C13 1_555 1_555
H11 C14 1_555 1_555
C15 N3 1_555 1_555
H12 C15 1_555 1_555
C16 C17 1_555 1_555
C17 H13 1_555 1_555
C18 C17 1_555 1_555
H14 C18 1_555 1_555
C19 N4 1_555 1_555
H15 C19 1_555 1_555
C20 C16 1_555 1_555
H16 C20 1_555 1_555
C21 H17 1_555 1_555
H18 C21 1_555 1_555
H19 C21 1_555 1_555
C22 N5 1_555 1_555
H20 C22 1_555 1_555
H21 C22 1_555 1_555
H22 C22 1_555 1_555
C23 N5 1_555 1_555
H23 C23 1_555 1_555
C24 H24 1_555 1_555
H25 C24 1_555 1_555
H26 C24 1_555 1_555
C25 C24 1_555 1_555
C26 H27 1_555 1_555
H28 C26 1_555 1_555
H29 C26 1_555 1_555
C27 C26 1_555 1_555
Cu2A N2 1_555 1_555
N2A Cu2 1_555 1_555
N4A Cu2 1_555 1_555
Cu1 S2 1_555 1_555
Cu2 S3 1_555 1_555
Cu3 S3 1_555 1_555
N4 Cu2A 1_555 1_555
C2 C3 1_555 1_555
C4 C5 1_555 1_555
C9 C10 1_555 1_555
C12 C13 1_555 1_555
C14 C15 1_555 1_555
C19 C20 1_555 1_555

#END
