
#######################################################################
#
#                 Cambridge Crystallographic Data Centre
#                                CCDC 
#
#######################################################################
#
# If this CIF has been generated from an entry in the Cambridge 
# Structural Database, then it will include bibliographic, chemical, 
# crystal, experimental, refinement or atomic coordinate data resulting 
# from the CCDC's data processing and validation procedures.
#
#######################################################################

data_KEXDUN
_symmetry_cell_setting           triclinic
_symmetry_space_group_name_H-M   'P -1'
_symmetry_Int_Tables_number      2
_space_group_name_Hall           '-P 1'
loop_
_symmetry_equiv_pos_site_id
_symmetry_equiv_pos_as_xyz
1 x,y,z
2 -x,-y,-z
_cell_length_a                   9.2794(19)
_cell_length_b                   11.063(2)
_cell_length_c                   15.852(3)
_cell_angle_alpha                95.68(3)
_cell_angle_beta                 94.28(3)
_cell_angle_gamma                114.64(3)
_cell_volume                     1459.76
loop_
_atom_site_label
_atom_site_type_symbol
_atom_site_fract_x
_atom_site_fract_y
_atom_site_fract_z
Mo1 Mo 0.51500(6) 0.87424(5) 0.59005(3)
Cu1 Cu 0.38152(9) 0.82482(8) 0.73575(5)
Cu2 Cu 0.75665(10) 0.83624(8) 0.66384(5)
Cu3 Cu 0.65930(10) 1.12944(8) 0.65539(6)
S1 S 0.40081(19) 0.99344(16) 0.65995(11)
S2 S 0.4927(2) 0.70343(16) 0.66287(11)
S3 S 0.77871(18) 1.01071(16) 0.59311(11)
O1 O 0.4250(5) 0.8153(5) 0.4860(3)
N1 N 0.5209(7) 0.9044(6) 0.8556(4)
N2 N 0.1702(7) 0.7053(6) 0.7640(4)
N3 N 1.0912(7) 1.1068(6) 1.2262(4)
N4 N 0.8440(6) 0.7154(5) 0.5974(4)
N5 N -0.2294(7) 0.3049(6) 0.7169(4)
N6 N -0.0873(8) 0.5354(6) 0.7898(5)
C1 C 0.5110(10) 0.8258(9) 0.9146(5)
H1 H 0.4262 0.7379 0.9056
C2 C 0.6163(10) 0.8642(9) 0.9883(5)
H2 H 0.6023 0.8034 1.0286
C3 C 0.7406(9) 0.9888(8) 1.0040(4)
C4 C 0.7517(11) 1.0731(8) 0.9434(5)
H3 H 0.8345 1.1619 0.9518
C5 C 0.6425(11) 1.0276(8) 0.8711(5)
H4 H 0.6534 1.0865 0.8298
C6 C 0.8618(8) 1.0318(7) 1.0810(4)
C7 C 0.8305(11) 0.9646(10) 1.1508(6)
H5 H 0.7298 0.8907 1.1505
C8 C 0.0512(8) 0.6207(7) 0.7736(4)
C9 C 1.1177(9) 1.1743(8) 1.1606(5)
H6 H 1.2174 1.2502 1.1632
C10 C 1.0086(9) 1.1407(8) 1.0881(5)
H7 H 1.0351 1.1931 1.0428
C11 C 0.9451(11) 1.0043(10) 1.2216(6)
H8 H 0.9195 0.9570 1.2693
C12 C 0.7673(10) 0.5807(7) 0.5910(5)
H9 H 0.6688 0.5433 0.6138
C13 C 0.8224(9) 0.4944(7) 0.5535(5)
H10 H 0.7622 0.4001 0.5503
C14 C 0.9683(8) 0.5457(6) 0.5199(4)
C15 C 1.0447(8) 0.6838(7) 0.5243(5)
H11 H 1.1419 0.7238 0.5005
C16 C 0.9807(8) 0.7637(7) 0.5629(5)
H12 H 1.0367 0.8583 0.5652
C17 C -0.1571(8) 0.4125(7) 0.7498(5)
Mo1A Mo 1.48500(6) 1.12576(5) 1.40995(3)
Cu1A Cu 1.61848(9) 1.17518(8) 1.26425(5)
Cu1_2 Cu 1.38152(9) 1.82482(8) 0.73575(5)
Cu2A Cu 1.24335(10) 1.16376(8) 1.33616(5)
Cu2A_2 Cu 1.24335(10) 0.16376(8) 0.33616(5)
Cu3_2 Cu -0.34070(10) 0.12944(8) 0.65539(6)
Cu3A Cu 1.34070(10) 0.87056(8) 1.34461(6)
S1A S 1.59919(19) 1.00656(16) 1.34005(11)
S1_2 S -0.59919(19) -0.00656(16) 0.65995(11)
S2A S 1.5073(2) 1.29657(16) 1.33713(11)
S3A S 1.22129(18) 0.98929(16) 1.40689(11)
S3_2 S -0.22129(18) 0.01071(16) 0.59311(11)
O1A O 1.5750(5) 1.1847(5) 1.5140(3)
N1A N 1.4791(7) 1.0956(6) 1.1444(4)
N2_2 N 1.1702(7) 1.7053(6) 0.7640(4)
N2A N 1.8298(7) 1.2947(6) 1.2360(4)
N3A N 0.9088(7) 0.8932(6) 0.7738(4)
N4A N 1.1560(6) 0.2846(5) 0.4026(4)
N4A_2 N 1.1560(6) 1.2846(5) 1.4026(4)
N5_2 N 0.7706(7) 1.3049(6) 0.7169(4)
N6_2 N 0.9127(8) 1.5354(6) 0.7898(5)
C1A C 1.4890(10) 1.1742(9) 1.0854(5)
H1A H 1.5738 1.2621 1.0944
C2A C 1.3837(10) 1.1358(9) 1.0117(5)
H2A H 1.3977 1.1966 0.9714
C3A C 1.2594(9) 1.0112(8) 0.9960(4)
C4A C 1.2483(11) 0.9269(8) 1.0566(5)
H3A H 1.1655 0.8381 1.0482
C5A C 1.3575(11) 0.9724(8) 1.1289(5)
H4A H 1.3466 0.9135 1.1702
C6A C 1.1382(8) 0.9682(7) 0.9190(4)
C7A C 1.1695(11) 1.0354(10) 0.8492(6)
H5A H 1.2702 1.1093 0.8495
C8_2 C 1.0512(8) 1.6207(7) 0.7736(4)
C9A C 0.8823(9) 0.8257(8) 0.8394(5)
H6A H 0.7826 0.7498 0.8368
C10A C 0.9914(9) 0.8593(8) 0.9119(5)
H7A H 0.9649 0.8069 0.9572
C11A C 1.0549(11) 0.9957(10) 0.7784(6)
H8A H 1.0805 1.0430 0.7307
C12A C 1.2327(10) 0.4193(7) 0.4090(5)
H9A H 1.3312 0.4567 0.3862
C13A C 1.1776(9) 0.5056(7) 0.4465(5)
H10A H 1.2378 0.5999 0.4497
C14A C 1.0317(8) 0.4543(6) 0.4801(4)
C15A C 0.9553(8) 0.3162(7) 0.4757(5)
H11A H 0.8581 0.2762 0.4995
C16A C 1.0193(8) 0.2363(7) 0.4371(5)
H12A H 0.9633 0.1417 0.4348
C17_2 C 0.8429(8) 1.4125(7) 0.7498(5)
O2 O 0.4097(14) 0.3789(14) -0.1571(7)
N7 N 0.3106(9) 0.3379(8) -0.2947(6)
C18 C 0.1757(14) 0.3623(13) -0.2815(10)
H13 H 0.1732 0.3812 -0.2201
H14 H 0.0783 0.2830 -0.3065
H15 H 0.1820 0.4398 -0.3089
C19 C 0.3270(15) 0.3002(11) -0.3819(7)
H16 H 0.3476 0.3764 -0.4135
H17 H 0.2282 0.2238 -0.4087
H18 H 0.4163 0.2749 -0.3828
C20 C 0.4201(15) 0.3521(15) -0.2326(9)
H19 H 0.5120 0.3411 -0.2468
N8 N 0.857(3) 0.650(3) 0.0569(16)
C21 C 0.723(4) 0.436(4) -0.032(3)
H20 H 0.7673 0.3774 -0.0585
H21 H 0.6695 0.4641 -0.0761
H22 H 0.6449 0.3859 0.0052
C22 C 0.850(4) 0.552(4) 0.019(4)
loop_
_geom_bond_atom_site_label_1
_geom_bond_atom_site_label_2
_geom_bond_site_symmetry_1
_geom_bond_site_symmetry_2
Mo1 S1 1_555 1_555
Cu1 S1 1_555 1_555
Cu2 S2 1_555 1_555
Cu3 S1 1_555 1_555
S2 Mo1 1_555 1_555
S3 Mo1 1_555 1_555
O1 Mo1 1_555 1_555
O2 C20 1_555 1_555
N1 Cu1 1_555 1_555
N2 Cu1 1_555 1_555
N3 C9 1_555 1_555
N4 Cu2 1_555 1_555
N5 C17 1_555 1_555
N6 C8 1_555 1_555
N7 C18 1_555 1_555
N8 C22 1_555 1_555
C1 N1 1_555 1_555
H1 C1 1_555 1_555
C2 C1 1_555 1_555
H2 C2 1_555 1_555
C3 C2 1_555 1_555
C4 C3 1_555 1_555
H3 C4 1_555 1_555
C5 N1 1_555 1_555
H4 C5 1_555 1_555
C6 C3 1_555 1_555
C7 C6 1_555 1_555
H5 C7 1_555 1_555
C8 N2 1_555 1_555
C9 H6 1_555 1_555
C10 C6 1_555 1_555
H7 C10 1_555 1_555
C11 N3 1_555 1_555
H8 C11 1_555 1_555
C12 N4 1_555 1_555
H9 C12 1_555 1_555
C13 C12 1_555 1_555
H10 C13 1_555 1_555
C14 C13 1_555 1_555
C15 C14 1_555 1_555
H11 C15 1_555 1_555
C16 N4 1_555 1_555
H12 C16 1_555 1_555
C17 N6 1_555 1_555
C18 H13 1_555 1_555
H14 C18 1_555 1_555
H15 C18 1_555 1_555
C19 N7 1_555 1_555
H16 C19 1_555 1_555
H17 C19 1_555 1_555
H18 C19 1_555 1_555
C20 N7 1_555 1_555
H19 C20 1_555 1_555
C21 H20 1_555 1_555
H21 C21 1_555 1_555
H22 C21 1_555 1_555
C22 C21 1_555 1_555
Mo1A S1A 1_555 1_555
Cu1A S1A 1_555 1_555
Cu1_2 N2_2 1_555 1_555
Cu2A N3 1_555 1_555
Cu2A_2 N4A 1_555 1_555
Cu3_2 N5 1_555 1_555
Cu3A S1A 1_555 1_555
S1_2 Cu3_2 1_555 1_555
S2A Mo1A 1_555 1_555
S3A Mo1A 1_555 1_555
S3_2 Cu3_2 1_555 1_555
O1A Mo1A 1_555 1_555
N1A Cu1A 1_555 1_555
N2_2 C8_2 1_555 1_555
N2A Cu1A 1_555 1_555
N3A Cu2 1_555 1_555
N4A C12A 1_555 1_555
N4A_2 Cu2A 1_555 1_555
N5_2 Cu3 1_555 1_555
N6_2 C8_2 1_555 1_555
C1A N1A 1_555 1_555
H1A C1A 1_555 1_555
C2A C1A 1_555 1_555
H2A C2A 1_555 1_555
C3A C2A 1_555 1_555
C4A C3A 1_555 1_555
H3A C4A 1_555 1_555
C5A N1A 1_555 1_555
H4A C5A 1_555 1_555
C6A C3A 1_555 1_555
C7A C6A 1_555 1_555
H5A C7A 1_555 1_555
C9A N3A 1_555 1_555
H6A C9A 1_555 1_555
C10A C6A 1_555 1_555
H7A C10A 1_555 1_555
C11A N3A 1_555 1_555
H8A C11A 1_555 1_555
C12A H9A 1_555 1_555
C13A C12A 1_555 1_555
H10A C13A 1_555 1_555
C14A C14 1_555 1_555
C15A C14A 1_555 1_555
H11A C15A 1_555 1_555
C16A N4A 1_555 1_555
H12A C16A 1_555 1_555
C17_2 N5_2 1_555 1_555
Cu1 S2 1_555 1_555
Cu2 S3 1_555 1_555
Cu3 S3 1_555 1_555
C4 C5 1_555 1_555
C7 C11 1_555 1_555
C9 C10 1_555 1_555
C15 C16 1_555 1_555
Cu1A S2A 1_555 1_555
Cu2A S2A 1_555 1_555
Cu2A S3A 1_555 1_555
Cu3A S3A 1_555 1_555
N6_2 C17_2 1_555 1_555
C4A C5A 1_555 1_555
C7A C11A 1_555 1_555
C9A C10A 1_555 1_555
C13A C14A 1_555 1_555
C15A C16A 1_555 1_555

#END
