
#######################################################################
#
#                 Cambridge Crystallographic Data Centre
#                                CCDC 
#
#######################################################################
#
# If this CIF has been generated from an entry in the Cambridge 
# Structural Database, then it will include bibliographic, chemical, 
# crystal, experimental, refinement or atomic coordinate data resulting 
# from the CCDC's data processing and validation procedures.
#
#######################################################################

data_KEXDIB
_symmetry_cell_setting           orthorhombic
_symmetry_space_group_name_H-M   'C 2 2 21'
_symmetry_Int_Tables_number      20
_space_group_name_Hall           'C 2n 2'
loop_
_symmetry_equiv_pos_site_id
_symmetry_equiv_pos_as_xyz
1 x,y,z
2 x,-y,-z
3 -x,y,1/2-z
4 -x,-y,1/2+z
5 1/2+x,1/2+y,z
6 1/2+x,1/2-y,-z
7 1/2-x,1/2+y,1/2-z
8 1/2-x,1/2-y,1/2+z
_cell_length_a                   16.396(2)
_cell_length_b                   17.135(2)
_cell_length_c                   18.341(3)
_cell_angle_alpha                90
_cell_angle_beta                 90
_cell_angle_gamma                90
_cell_volume                     5152.82
loop_
_atom_site_label
_atom_site_type_symbol
_atom_site_fract_x
_atom_site_fract_y
_atom_site_fract_z
W1 W 0.77413(4) 1.0000 0.5000
Cu1 Cu 0.77507(12) 0.93828(9) 0.63376(7)
Cu2 Cu 0.77883(12) 1.14678(9) 0.55361(8)
S1 S 0.8521(2) 1.0404(2) 0.59307(17)
S2 S 0.6961(2) 0.90129(18) 0.53658(17)
S3 S 0.5051(2) 0.9995(3) 0.89572(18)
S4 S 0.4653(2) 1.1117(2) 0.8870(2)
N1 N 0.6946(8) 0.9622(7) 0.7192(5)
N2 N 0.6374(7) 1.2738(6) 1.0091(6)
N3 N 0.7806(8) 0.7114(7) 0.8749(6)
N4 N 0.8700(9) 0.7579(11) 0.7793(10)
N5 N 0.8356(9) 0.8531(9) 0.6844(7)
C1 C 0.6717(9) 1.0342(8) 0.7369(8)
H1 H 0.6958 1.0763 0.7111
C2 C 0.6153(8) 1.0518(8) 0.7902(7)
C3 C 0.5797(7) 0.9906(8) 0.8257(6)
C4 C 0.5996(10) 0.9131(8) 0.8068(9)
H2 H 0.5757 0.8696 0.8307
C5 C 0.6569(10) 0.9042(9) 0.7503(8)
H3 H 0.6689 0.8528 0.7340
C6 C 0.5363(9) 1.1705(8) 0.9378(7)
C7 C 0.5231(9) 1.2483(8) 0.9310(9)
H4 H 0.4786 1.2681 0.9035
C8 C 0.5772(9) 1.2974(9) 0.9659(9)
H5 H 0.5709 1.3519 0.9585
C9 C 0.6477(9) 1.1984(7) 1.0140(7)
H6 H 0.6912 1.1800 1.0437
C10 C 0.5999(9) 1.1433(9) 0.9791(8)
H7 H 0.6107 1.0890 0.9836
C11 C 0.8182(9) 0.7358(8) 0.8288(7)
C12 C 0.8482(12) 0.8093(10) 0.7287(10)
Cu1A Cu 0.77507(12) 1.06172(9) 0.36624(7)
Cu1G Cu 0.72493(12) 1.56172(9) 0.13376(7)
Cu1F Cu 0.72493(12) 1.43828(9) 0.86624(7)
Cu2A Cu 0.77883(12) 0.85322(9) 0.44639(8)
Cu2G Cu 0.72117(12) 1.35322(9) 1.05361(8)
Cu2F Cu 0.72117(12) 0.64678(9) 0.94639(8)
S1A S 0.8521(2) 0.9596(2) 0.40693(17)
S2A S 0.6961(2) 1.09871(18) 0.46342(17)
S3G S 0.9949(2) 1.5005(3) 0.39572(18)
S4G S 1.0347(2) 1.3883(2) 0.3870(2)
N1G N 0.8054(8) 1.5378(7) 0.2192(5)
N1A N 0.6946(8) 1.0378(7) 0.2808(5)
N2G N 0.8626(7) 1.2262(6) 0.5091(6)
N2F N 0.8626(7) 0.7738(6) 0.4909(6)
N3F N 0.7194(8) 1.2114(7) 0.6251(6)
N3G N 0.7194(8) 0.7886(7) 0.3749(6)
N4F N 0.6300(9) 1.2579(11) 0.7207(10)
N5F N 0.6644(9) 1.3531(9) 0.8156(7)
N5A N 0.8356(9) 1.1469(9) 0.3156(7)
C1G C 0.8283(9) 1.4658(8) 0.2369(8)
H1G H 0.8042 1.4237 0.2111
C2G C 0.8847(8) 1.4482(8) 0.2902(7)
C3G C 0.9203(7) 1.5094(8) 0.3257(6)
C4G C 0.9004(10) 1.5869(8) 0.3068(9)
H2G H 0.9243 1.6304 0.3307
C5G C 0.8431(10) 1.5958(9) 0.2503(8)
H3G H 0.8311 1.6472 0.2340
C6G C 0.9637(9) 1.3295(8) 0.4378(7)
C7G C 0.9769(9) 1.2517(8) 0.4310(9)
H4G H 1.0214 1.2319 0.4035
C8G C 0.9228(9) 1.2026(9) 0.4659(9)
H5G H 0.9291 1.1481 0.4585
C9G C 0.8523(9) 1.3016(7) 0.5140(7)
H6G H 0.8088 1.3200 0.5437
C10G C 0.9001(9) 1.3567(9) 0.4791(8)
H7G H 0.8893 1.4110 0.4836
C11F C 0.6818(9) 1.2358(8) 0.6712(7)
C12F C 0.6518(12) 1.3093(10) 0.7713(10)
O1 O 0.5000 1.509(4) 0.7500
C13 C 0.591(3) 1.468(3) 0.621(2)
H8 H 0.6149 1.4170 0.6088
H9 H 0.6350 1.5071 0.6231
H10 H 0.5516 1.4828 0.5838
C14 C 0.549(2) 1.463(2) 0.697(2)
H11 H 0.5131 1.4168 0.6896
H12 H 0.5937 1.4440 0.7277
C13B C 0.409(3) 1.468(3) 0.879(2)
H8B H 0.3851 1.4170 0.8912
H9B H 0.3650 1.5071 0.8769
H10B H 0.4484 1.4828 0.9162
C14B C 0.451(2) 1.463(2) 0.803(2)
H11B H 0.4869 1.4168 0.8104
H12B H 0.4063 1.4440 0.7723
N6 N 0.710(4) 0.689(4) 0.623(3)
C15 C 0.547(3) 0.748(3) 0.640(3)
H13 H 0.5063 0.7242 0.6730
H14 H 0.5266 0.7461 0.5901
H15 H 0.5556 0.8024 0.6547
C16 C 0.627(3) 0.703(2) 0.646(2)
loop_
_geom_bond_atom_site_label_1
_geom_bond_atom_site_label_2
_geom_bond_site_symmetry_1
_geom_bond_site_symmetry_2
W1 S1 1_555 1_555
Cu1 S1 1_555 1_555
Cu2 S1 1_555 1_555
S2 W1 1_555 1_555
S3 S4 1_555 1_555
S4 C6 1_555 1_555
N1 Cu1 1_555 1_555
N2 C8 1_555 1_555
N3 C11 1_555 1_555
N4 C11 1_555 1_555
N5 Cu1 1_555 1_555
O1 C14 1_555 1_555
N6 C16 1_555 1_555
C1 N1 1_555 1_555
H1 C1 1_555 1_555
C2 C1 1_555 1_555
C3 S3 1_555 1_555
C4 C3 1_555 1_555
H2 C4 1_555 1_555
C5 N1 1_555 1_555
H3 C5 1_555 1_555
C6 C7 1_555 1_555
C7 H4 1_555 1_555
C8 C7 1_555 1_555
H5 C8 1_555 1_555
C9 N2 1_555 1_555
H6 C9 1_555 1_555
C10 C6 1_555 1_555
H7 C10 1_555 1_555
C12 N4 1_555 1_555
C13 H8 1_555 1_555
H9 C13 1_555 1_555
H10 C13 1_555 1_555
C14 C13 1_555 1_555
H11 C14 1_555 1_555
H12 C14 1_555 1_555
C15 H13 1_555 1_555
H14 C15 1_555 1_555
H15 C15 1_555 1_555
C16 C15 1_555 1_555
Cu1A S1A 1_555 1_555
Cu1G N1G 1_555 1_555
Cu1F N5F 1_555 1_555
Cu2A S2 1_555 1_555
Cu2G N2 1_555 1_555
Cu2F N3 1_555 1_555
S1A W1 1_555 1_555
S2A W1 1_555 1_555
S3G S4G 1_555 1_555
S4G C6G 1_555 1_555
N1G C1G 1_555 1_555
N1A Cu1A 1_555 1_555
N2G Cu2 1_555 1_555
N2F Cu2A 1_555 1_555
N3F Cu2 1_555 1_555
N3G Cu2A 1_555 1_555
N4F C11F 1_555 1_555
N5F C12F 1_555 1_555
N5A Cu1A 1_555 1_555
C1G H1G 1_555 1_555
C2G C1G 1_555 1_555
C3G S3G 1_555 1_555
C4G C3G 1_555 1_555
H2G C4G 1_555 1_555
C5G N1G 1_555 1_555
H3G C5G 1_555 1_555
C6G C7G 1_555 1_555
C7G H4G 1_555 1_555
C8G N2G 1_555 1_555
H5G C8G 1_555 1_555
C9G N2G 1_555 1_555
H6G C9G 1_555 1_555
C10G C6G 1_555 1_555
H7G C10G 1_555 1_555
C11F N3F 1_555 1_555
C12F N4F 1_555 1_555
C13B H8B 1_555 1_555
H9B C13B 1_555 1_555
H10B C13B 1_555 1_555
C14B O1 1_555 1_555
H11B C14B 1_555 1_555
H12B C14B 1_555 1_555
Cu1 S2 1_555 1_555
Cu2 S2A 1_555 1_555
N5 C12 1_555 1_555
C2 C3 1_555 1_555
C4 C5 1_555 1_555
C9 C10 1_555 1_555
Cu1A S2A 1_555 1_555
Cu2A S1A 1_555 1_555
C2G C3G 1_555 1_555
C4G C5G 1_555 1_555
C7G C8G 1_555 1_555
C9G C10G 1_555 1_555
C13B C14B 1_555 1_555

#END
