
#######################################################################
#
#                 Cambridge Crystallographic Data Centre
#                                CCDC 
#
#######################################################################
#
# If this CIF has been generated from an entry in the Cambridge 
# Structural Database, then it will include bibliographic, chemical, 
# crystal, experimental, refinement or atomic coordinate data resulting 
# from the CCDC's data processing and validation procedures.
#
#######################################################################

data_KEXFID
_symmetry_cell_setting           monoclinic
_symmetry_space_group_name_H-M   'C 2/c'
_symmetry_Int_Tables_number      15
_space_group_name_Hall           '-C 2yn'
loop_
_symmetry_equiv_pos_site_id
_symmetry_equiv_pos_as_xyz
1 x,y,z
2 1/2+x,1/2+y,z
3 -x,y,1/2-z
4 1/2-x,1/2+y,1/2-z
5 -x,-y,-z
6 1/2-x,1/2-y,-z
7 x,-y,1/2+z
8 1/2+x,1/2-y,1/2+z
_cell_length_a                   11.2715(19)
_cell_length_b                   19.707(3)
_cell_length_c                   14.105(2)
_cell_angle_alpha                90
_cell_angle_beta                 109.619(2)
_cell_angle_gamma                90
_cell_volume                     2951.22
loop_
_atom_site_label
_atom_site_type_symbol
_atom_site_fract_x
_atom_site_fract_y
_atom_site_fract_z
Ag1 Ag 0.42004(3) 0.356069(15) 0.13729(3)
N1 N 0.5178(3) 0.45205(14) 0.1215(2)
N2 N 0.7055(3) 0.51339(14) 0.1309(2)
N3 N 0.6985(3) 0.39729(15) 0.1199(3)
H1 H 0.7755 0.3979 0.1219
H2 H 0.6595 0.3593 0.1154
N4 N 0.2807(3) 0.44790(15) 0.1321(2)
N5 N 0.8495(3) 0.75606(15) 0.1539(3)
C1 C 0.6392(3) 0.45541(18) 0.1239(3)
C2 C 0.6463(3) 0.57065(18) 0.1366(3)
C3 C 0.5214(3) 0.57228(18) 0.1309(3)
H3 H 0.4807 0.6132 0.1321
C4 C 0.4591(3) 0.51106(18) 0.1233(3)
C5 C 0.3243(3) 0.50873(18) 0.1194(3)
C6 C 0.2522(4) 0.5666(2) 0.1062(3)
H4 H 0.2843 0.6082 0.0953
C7 C 0.1316(4) 0.5618(2) 0.1094(3)
H5 H 0.0813 0.6003 0.1009
C8 C 0.0866(4) 0.4997(2) 0.1252(3)
H6 H 0.0063 0.4954 0.1293
C9 C 0.1625(4) 0.4444(2) 0.1347(3)
H7 H 0.1310 0.4022 0.1434
C10 C 0.8744(4) 0.7011(2) 0.1084(4)
H8 H 0.9361 0.7042 0.0783
C11 C 0.8130(4) 0.64007(18) 0.1037(3)
H9 H 0.8348 0.6028 0.0727
C12 C 0.7188(3) 0.63476(17) 0.1455(3)
C13 C 0.6943(4) 0.69125(19) 0.1937(3)
H10 H 0.6325 0.6896 0.2238
C14 C 0.7614(4) 0.7499(2) 0.1970(3)
H11 H 0.7445 0.7871 0.2309
Ag1A Ag -0.07996(3) -0.143931(15) 0.13729(3)
Ag1A_2 Ag 0.92004(3) 0.856069(15) 0.13729(3)
N1A N 0.0178(3) -0.04795(14) 0.1215(2)
N2A N 0.2055(3) 0.01339(14) 0.1309(2)
N3A N 0.1985(3) -0.10271(15) 0.1199(3)
H1A H 0.2755 -0.1021 0.1219
H2A H 0.1595 -0.1407 0.1154
N4A N -0.2193(3) -0.05210(15) 0.1321(2)
N5A N 0.3495(3) 0.25606(15) 0.1539(3)
N5_2 N -0.1505(3) -0.24394(15) 0.1539(3)
C1A C 0.1392(3) -0.04459(18) 0.1239(3)
C2A C 0.1463(3) 0.07065(18) 0.1366(3)
C3A C 0.0214(3) 0.07228(18) 0.1309(3)
H3A H -0.0193 0.1132 0.1321
C4A C -0.0409(3) 0.01106(18) 0.1233(3)
C5A C -0.1757(3) 0.00873(18) 0.1194(3)
C6A C -0.2478(4) 0.0666(2) 0.1062(3)
H4A H -0.2157 0.1082 0.0953
C7A C -0.3684(4) 0.0618(2) 0.1094(3)
H5A H -0.4187 0.1003 0.1009
C8A C -0.4134(4) -0.0003(2) 0.1252(3)
H6A H -0.4937 -0.0046 0.1293
C9A C -0.3375(4) -0.0556(2) 0.1347(3)
H7A H -0.3690 -0.0978 0.1434
C10A C 0.3744(4) 0.2011(2) 0.1084(4)
H8A H 0.4361 0.2042 0.0783
C11A C 0.3130(4) 0.14007(18) 0.1037(3)
H9A H 0.3348 0.1028 0.0727
C12A C 0.2188(3) 0.13476(17) 0.1455(3)
C13A C 0.1943(4) 0.19125(19) 0.1937(3)
H10A H 0.1325 0.1896 0.2238
C14A C 0.2614(4) 0.2499(2) 0.1970(3)
H11A H 0.2445 0.2871 0.2309
N6 N 0.5819(4) 0.2454(2) 0.9604(3)
O1 O 0.6195(4) 0.27317(18) 0.8979(3)
O2 O 0.5514(4) 0.18491(18) 0.9499(3)
O3 O 0.5698(4) 0.2773(2) 1.0312(3)
O4 O 1.0000 0.3598(3) 0.2500
H12 H 0.970(5) 0.3339(16) 0.1997(10)
H12B H 1.030(5) 0.3339(16) 0.3003(10)
loop_
_geom_bond_atom_site_label_1
_geom_bond_atom_site_label_2
_geom_bond_site_symmetry_1
_geom_bond_site_symmetry_2
Ag1 N1 1_555 1_555
N1 C1 1_555 1_555
N2 C1 1_555 1_555
N3 H1 1_555 1_555
H2 N3 1_555 1_555
N4 Ag1 1_555 1_555
N5 C10 1_555 1_555
N6 O1 1_555 1_555
O2 N6 1_555 1_555
O3 N6 1_555 1_555
O4 H12 1_555 1_555
C1 N3 1_555 1_555
C2 N2 1_555 1_555
C3 C2 1_555 1_555
H3 C3 1_555 1_555
C4 N1 1_555 1_555
C5 N4 1_555 1_555
C6 C5 1_555 1_555
H4 C6 1_555 1_555
C7 C6 1_555 1_555
H5 C7 1_555 1_555
C8 C7 1_555 1_555
H6 C8 1_555 1_555
C9 N4 1_555 1_555
H7 C9 1_555 1_555
C10 H8 1_555 1_555
C11 C10 1_555 1_555
H9 C11 1_555 1_555
C12 C2 1_555 1_555
C13 C12 1_555 1_555
H10 C13 1_555 1_555
C14 N5 1_555 1_555
H11 C14 1_555 1_555
Ag1A N1A 1_555 1_555
Ag1A_2 N5 1_555 1_555
N1A C1A 1_555 1_555
N2A C1A 1_555 1_555
N3A H1A 1_555 1_555
H2A N3A 1_555 1_555
N4A Ag1A 1_555 1_555
N5A Ag1 1_555 1_555
N5_2 Ag1A 1_555 1_555
C1A N3A 1_555 1_555
C2A N2A 1_555 1_555
C3A C2A 1_555 1_555
H3A C3A 1_555 1_555
C4A N1A 1_555 1_555
C5A N4A 1_555 1_555
C6A C5A 1_555 1_555
H4A C6A 1_555 1_555
C7A C6A 1_555 1_555
H5A C7A 1_555 1_555
C8A C7A 1_555 1_555
H6A C8A 1_555 1_555
C9A N4A 1_555 1_555
H7A C9A 1_555 1_555
C10A N5A 1_555 1_555
H8A C10A 1_555 1_555
C11A C10A 1_555 1_555
H9A C11A 1_555 1_555
C12A C2A 1_555 1_555
C13A C12A 1_555 1_555
H10A C13A 1_555 1_555
C14A N5A 1_555 1_555
H11A C14A 1_555 1_555
H12B O4 1_555 1_555
C3 C4 1_555 1_555
C4 C5 1_555 1_555
C8 C9 1_555 1_555
C11 C12 1_555 1_555
C13 C14 1_555 1_555
C3A C4A 1_555 1_555
C4A C5A 1_555 1_555
C8A C9A 1_555 1_555
C11A C12A 1_555 1_555
C13A C14A 1_555 1_555

#END
