
#######################################################################
#
#                 Cambridge Crystallographic Data Centre
#                                CCDC 
#
#######################################################################
#
# If this CIF has been generated from an entry in the Cambridge 
# Structural Database, then it will include bibliographic, chemical, 
# crystal, experimental, refinement or atomic coordinate data resulting 
# from the CCDC's data processing and validation procedures.
#
#######################################################################

data_KEXFEZ
_symmetry_cell_setting           orthorhombic
_symmetry_space_group_name_H-M   'P b c a'
_symmetry_Int_Tables_number      61
_space_group_name_Hall           '-P 2ac 2ab'
loop_
_symmetry_equiv_pos_site_id
_symmetry_equiv_pos_as_xyz
1 x,y,z
2 1/2-x,-y,1/2+z
3 -x,1/2+y,1/2-z
4 1/2+x,1/2-y,-z
5 -x,-y,-z
6 1/2+x,y,1/2-z
7 x,1/2-y,1/2+z
8 1/2-x,1/2+y,z
_cell_length_a                   15.531(2)
_cell_length_b                   13.370(2)
_cell_length_c                   17.639(3)
_cell_angle_alpha                90
_cell_angle_beta                 90
_cell_angle_gamma                90
_cell_volume                     3662.73
loop_
_atom_site_label
_atom_site_type_symbol
_atom_site_fract_x
_atom_site_fract_y
_atom_site_fract_z
Ag1 Ag 0.25455(3) 0.34366(3) 0.46470(3)
N1 N 0.1765(3) 0.1873(3) 0.4643(2)
N2 N 0.1723(3) 0.0081(3) 0.4698(2)
N3 N 0.2785(3) 0.0979(4) 0.5308(3)
H1 H 0.3031 0.1535 0.5422
H2 H 0.2996 0.0423 0.5468
N4 N 0.1251(3) 0.3620(4) 0.4000(3)
N5 N 0.1022(3) -0.1713(3) 0.4323(3)
C1 C 0.2066(3) 0.0979(4) 0.4876(3)
C2 C 0.0979(3) 0.0099(4) 0.4313(3)
C3 C 0.0606(3) 0.0985(4) 0.4084(3)
H3 H 0.0080 0.0988 0.3833
C4 C 0.1033(3) 0.1865(4) 0.4238(3)
C5 C 0.0714(3) 0.2847(4) 0.3948(3)
C6 C -0.0081(4) 0.2938(5) 0.3608(4)
H4 H -0.0453 0.2394 0.3588
C7 C -0.0319(5) 0.3842(5) 0.3298(5)
H5 H -0.0855 0.3916 0.3069
C8 C 0.0240(5) 0.4626(5) 0.3332(5)
H6 H 0.0100 0.5239 0.3114
C9 C 0.1007(5) 0.4495(5) 0.3690(5)
H7 H 0.1382 0.5036 0.3723
C10 C 0.0568(3) -0.0895(4) 0.4161(3)
C11 C -0.0268(3) -0.0957(4) 0.3888(3)
H8 H -0.0571 -0.0378 0.3768
C12 C -0.0642(4) -0.1876(5) 0.3795(4)
H9 H -0.1199 -0.1928 0.3606
C13 C -0.0192(4) -0.2713(5) 0.3983(4)
H10 H -0.0439 -0.3343 0.3937
C14 C 0.0637(4) -0.2603(5) 0.4242(4)
H11 H 0.0946 -0.3175 0.4368
Ag1G Ag 0.24545(3) -0.15634(3) 0.46470(3)
N2G N 0.3277(3) 0.5081(3) 0.4698(2)
N5G N 0.3978(3) 0.3287(3) 0.4323(3)
F3 F 0.1485(6) 0.1724(9) 0.2557(7)
F4 F 0.2075(6) 0.0371(8) 0.2679(5)
F5 F 0.2792(7) 0.1581(8) 0.3077(5)
O2 O 0.2849(10) 0.2321(8) 0.1290(6)
O3 O 0.2056(4) 0.0905(5) 0.1173(4)
O4 O 0.3525(3) 0.0819(4) 0.1684(3)
S1 S 0.27407(10) 0.13438(12) 0.15993(9)
C15 C 0.2320(6) 0.1395(8) 0.2518(6)
F1? F 0.2477(12) 0.0885(16) 0.3110(12)
F2? F 0.2877(11) 0.2297(12) 0.2734(8)
O1? O 0.280(2) 0.2418(14) 0.1626(13)
F6? F 0.1764(12) 0.2171(14) 0.2502(14)
loop_
_geom_bond_atom_site_label_1
_geom_bond_atom_site_label_2
_geom_bond_site_symmetry_1
_geom_bond_site_symmetry_2
Ag1 N1 1_555 1_555
N1 C1 1_555 1_555
N2 C1 1_555 1_555
N3 H1 1_555 1_555
H2 N3 1_555 1_555
N4 Ag1 1_555 1_555
N5 C10 1_555 1_555
F3 C15 1_555 1_555
F4 C15 1_555 1_555
F5 C15 1_555 1_555
O2 S1 1_555 1_555
O3 S1 1_555 1_555
O4 S1 1_555 1_555
S1 C15 1_555 1_555
C1 N3 1_555 1_555
C2 N2 1_555 1_555
C3 C2 1_555 1_555
H3 C3 1_555 1_555
C4 N1 1_555 1_555
C5 N4 1_555 1_555
C6 C5 1_555 1_555
H4 C6 1_555 1_555
C7 C6 1_555 1_555
H5 C7 1_555 1_555
C8 C7 1_555 1_555
H6 C8 1_555 1_555
C9 N4 1_555 1_555
H7 C9 1_555 1_555
C10 C2 1_555 1_555
C11 C10 1_555 1_555
H8 C11 1_555 1_555
C12 C11 1_555 1_555
H9 C12 1_555 1_555
C13 C12 1_555 1_555
H10 C13 1_555 1_555
C14 N5 1_555 1_555
H11 C14 1_555 1_555
Ag1G N2 1_555 1_555
N2G Ag1 1_555 1_555
N5G Ag1 1_555 1_555
N5 Ag1G 1_555 1_555
C3 C4 1_555 1_555
C4 C5 1_555 1_555
C8 C9 1_555 1_555
C13 C14 1_555 1_555

#END
