
#######################################################################
#
#                 Cambridge Crystallographic Data Centre
#                                CCDC 
#
#######################################################################
#
# If this CIF has been generated from an entry in the Cambridge 
# Structural Database, then it will include bibliographic, chemical, 
# crystal, experimental, refinement or atomic coordinate data resulting 
# from the CCDC's data processing and validation procedures.
#
#######################################################################

data_KEXFOJ
_symmetry_cell_setting           monoclinic
_symmetry_space_group_name_H-M   'P 2/c'
_symmetry_Int_Tables_number      13
_space_group_name_Hall           '-P 2yc'
loop_
_symmetry_equiv_pos_site_id
_symmetry_equiv_pos_as_xyz
1 x,y,z
2 -x,y,1/2-z
3 -x,-y,-z
4 x,-y,1/2+z
_cell_length_a                   4.006(5)
_cell_length_b                   11.815(15)
_cell_length_c                   21.03(3)
_cell_angle_alpha                90
_cell_angle_beta                 93.53(2)
_cell_angle_gamma                90
_cell_volume                     993.48
loop_
_atom_site_label
_atom_site_type_symbol
_atom_site_fract_x
_atom_site_fract_y
_atom_site_fract_z
Ag1 Ag 0.1747(3) 0.47020(9) 0.09995(5)
N1 N 0.337(2) 0.3834(7) 0.2009(4)
N2 N 0.5000 0.5505(10) 0.2500
H1 H 0.3612 0.5926 0.2262
N3 N 0.075(2) 0.2788(8) 0.0955(4)
N4 N -0.355(5) 0.7772(12) 0.1364(9)
S1 S -0.3340(9) 0.5827(4) 0.06244(17)
C1 C 0.5000 0.4415(11) 0.2500
C2 C 0.5000 0.2097(13) 0.2500
H3 H 0.5000 0.1310 0.2500
C3 C 0.341(3) 0.2715(8) 0.1996(5)
C4 C 0.156(3) 0.2127(9) 0.1460(5)
C5 C 0.083(3) 0.0971(10) 0.1479(6)
H4 H 0.1485 0.0534 0.1833
C6 C -0.088(4) 0.0499(9) 0.0956(7)
H5 H -0.1401 -0.0268 0.0955
C7 C -0.185(3) 0.1160(12) 0.0432(6)
H6 H -0.3044 0.0860 0.0078
C8 C -0.092(3) 0.2306(12) 0.0461(6)
H7 H -0.1515 0.2759 0.0111
C9 C -0.342(4) 0.6970(11) 0.1075(8)
Ag1A Ag 0.8253(3) 0.47020(9) 0.40005(5)
Ag1_2 Ag -0.8253(3) 0.47020(9) 0.09995(5)
Ag1_3 Ag 1.1747(3) 0.47020(9) 0.09995(5)
N1A N 0.663(2) 0.3834(7) 0.2991(4)
H1A H 0.6388 0.5926 0.2738
N3A N 0.925(2) 0.2788(8) 0.4045(4)
N4_2 N 0.645(5) 0.7772(12) 0.1364(9)
S1_2 S 0.6660(9) 0.5827(4) 0.06244(17)
S1A S 0.3340(9) 0.5827(4) 0.43756(17)
S1A_2 S 1.3340(9) 0.5827(4) 0.43756(17)
C3A C 0.659(3) 0.2715(8) 0.3004(5)
C4A C 0.844(3) 0.2127(9) 0.3540(5)
C5A C 0.917(3) 0.0971(10) 0.3521(6)
H4A H 0.8515 0.0534 0.3167
C6A C 1.088(4) 0.0499(9) 0.4044(7)
H5A H 1.1401 -0.0268 0.4045
C7A C 1.185(3) 0.1160(12) 0.4568(6)
H6A H 1.3044 0.0860 0.4922
C8A C 1.092(3) 0.2306(12) 0.4539(6)
H7A H 1.1515 0.2759 0.4889
C9_2 C 0.658(4) 0.6970(11) 0.1075(8)
O1 O 0.5000 0.9253(12) 0.2500
H2 H 0.5385 0.8816 0.2192
H2A H 0.4615 0.8816 0.2808
loop_
_geom_bond_atom_site_label_1
_geom_bond_atom_site_label_2
_geom_bond_site_symmetry_1
_geom_bond_site_symmetry_2
Ag1 N1 1_555 1_555
N1 C1 1_555 1_555
N2 H1 1_555 1_555
N3 Ag1 1_555 1_555
N4 C9 1_555 1_555
O1 H2 1_555 1_555
S1 Ag1 1_555 1_555
C1 N2 1_555 1_555
C2 H3 1_555 1_555
C3 N1 1_555 1_555
C4 N3 1_555 1_555
C5 C4 1_555 1_555
H4 C5 1_555 1_555
C6 C5 1_555 1_555
H5 C6 1_555 1_555
C7 C6 1_555 1_555
H6 C7 1_555 1_555
C8 N3 1_555 1_555
H7 C8 1_555 1_555
C9 S1 1_555 1_555
Ag1A N1A 1_555 1_555
Ag1_2 S1 1_555 1_555
Ag1_3 S1_2 1_555 1_555
N1A C1 1_555 1_555
H1A N2 1_555 1_555
N3A Ag1A 1_555 1_555
N4_2 C9_2 1_555 1_555
H2A O1 1_555 1_555
S1_2 Ag1 1_555 1_555
S1A Ag1A 1_555 1_555
S1A_2 Ag1A 1_555 1_555
C3A C2 1_555 1_555
C4A N3A 1_555 1_555
C5A C4A 1_555 1_555
H4A C5A 1_555 1_555
C6A C5A 1_555 1_555
H5A C6A 1_555 1_555
C7A C6A 1_555 1_555
H6A C7A 1_555 1_555
C8A N3A 1_555 1_555
H7A C8A 1_555 1_555
C9_2 S1_2 1_555 1_555
C2 C3 1_555 1_555
C3 C4 1_555 1_555
C7 C8 1_555 1_555
N1A C3A 1_555 1_555
C3A C4A 1_555 1_555
C7A C8A 1_555 1_555

#END
