
#######################################################################
#
#                 Cambridge Crystallographic Data Centre
#                                CCDC 
#
#######################################################################
#
# If this CIF has been generated from an entry in the Cambridge 
# Structural Database, then it will include bibliographic, chemical, 
# crystal, experimental, refinement or atomic coordinate data resulting 
# from the CCDC's data processing and validation procedures.
#
#######################################################################

data_KEXFAV
_symmetry_cell_setting           orthorhombic
_symmetry_space_group_name_H-M   'C c c 2'
_symmetry_Int_Tables_number      37
_space_group_name_Hall           'C 2 -2c'
loop_
_symmetry_equiv_pos_site_id
_symmetry_equiv_pos_as_xyz
1 x,y,z
2 -x,y,1/2+z
3 x,-y,1/2+z
4 -x,-y,z
5 1/2+x,1/2+y,z
6 1/2-x,1/2+y,1/2+z
7 1/2+x,1/2-y,1/2+z
8 1/2-x,1/2-y,z
_cell_length_a                   14.4181(13)
_cell_length_b                   26.731(3)
_cell_length_c                   12.6362(12)
_cell_angle_alpha                90
_cell_angle_beta                 90
_cell_angle_gamma                90
_cell_volume                     4870.12
loop_
_atom_site_label
_atom_site_type_symbol
_atom_site_fract_x
_atom_site_fract_y
_atom_site_fract_z
W1 W 0.5000 0.5000 0.82498(7)
I1 I 0.37802(7) 0.66459(4) 0.92618(12)
Cu1 Cu 0.38537(9) 0.58046(5) 0.82872(16)
Cu2 Cu 0.35614(9) 0.43689(5) 0.82587(17)
S1 S 0.3747(2) 0.50785(11) 0.9276(3)
S2 S 0.4870(2) 0.43172(12) 0.7236(3)
S3 S 0.0143(3) 0.5796(2) 0.5186(3)
S4 S 0.2500 0.2500 1.1467(5)
N1 N 0.2659(7) 0.5820(4) 0.7314(9)
N2 N -0.2414(7) 0.5630(4) 0.7271(9)
N3 N 0.3234(6) 0.3773(3) 0.9215(9)
C1 C 0.1941(9) 0.6104(6) 0.7514(12)
H1 H 0.1974 0.6315 0.8117
C2 C 0.1147(10) 0.6119(5) 0.6924(12)
H2 H 0.0649 0.6338 0.7096
C3 C 0.1107(9) 0.5802(6) 0.6067(11)
C4 C 0.1844(10) 0.5514(6) 0.5839(11)
H3 H 0.1822 0.5298 0.5242
C5 C 0.2641(10) 0.5527(5) 0.6465(13)
H4 H 0.3164 0.5328 0.6287
C6 C -0.1562(9) 0.5497(4) 0.7642(12)
H5 H -0.1518 0.5363 0.8336
C7 C -0.0777(9) 0.5546(5) 0.7068(11)
H6 H -0.0199 0.5455 0.7373
C8 C -0.0805(9) 0.5731(6) 0.6025(13)
C9 C -0.1665(9) 0.5880(6) 0.5646(12)
H7 H -0.1724 0.6029 0.4966
C10 C -0.2462(10) 0.5805(6) 0.6305(13)
H8 H -0.3055 0.5887 0.6027
C11 C 0.3725(10) 0.3665(5) 1.0079(12)
H9 H 0.4256 0.3865 1.0217
C12 C 0.3536(11) 0.3300(5) 1.0769(13)
H10 H 0.3905 0.3255 1.1384
C13 C 0.2796(10) 0.2992(5) 1.0569(11)
C14 C 0.2263(9) 0.3097(5) 0.9687(12)
H11 H 0.1729 0.2902 0.9532
C15 C 0.2516(10) 0.3486(5) 0.9035(11)
H12 H 0.2150 0.3550 0.8424
I1C I 0.62198(7) 0.33541(4) 0.92618(12)
Cu1C Cu 0.61463(9) 0.41954(5) 0.82872(16)
Cu1C_2 Cu -0.38537(9) 0.41954(5) 0.82872(16)
Cu2C Cu 0.64386(9) 0.56311(5) 0.82587(17)
Cu2C_2 Cu -0.35614(9) 0.56311(5) 0.82587(17)
Cu2G Cu 0.14386(9) 0.06311(5) 0.82587(17)
S1C S 0.6253(2) 0.49215(11) 0.9276(3)
S2C S 0.5130(2) 0.56828(12) 0.7236(3)
S3C S -0.0143(3) 0.4204(2) 0.5186(3)
N1C N -0.2659(7) 0.4180(4) 0.7314(9)
N1C_2 N 0.7341(7) 0.4180(4) 0.7314(9)
N2C N 0.2414(7) 0.4370(4) 0.7271(9)
N2_2 N 0.7586(7) 0.5630(4) 0.7271(9)
N3G N 0.1766(6) 0.1227(3) 0.9215(9)
N3C N 0.6766(6) 0.6227(3) 0.9215(9)
C1C C -0.1941(9) 0.3896(6) 0.7514(12)
H1C H -0.1974 0.3685 0.8117
C2C C -0.1147(10) 0.3881(5) 0.6924(12)
H2C H -0.0649 0.3662 0.7096
C3C C -0.1107(9) 0.4198(6) 0.6067(11)
C4C C -0.1844(10) 0.4486(6) 0.5839(11)
H3C H -0.1822 0.4702 0.5242
C5C C -0.2641(10) 0.4473(5) 0.6465(13)
H4C H -0.3164 0.4672 0.6287
C6C C 0.1562(9) 0.4503(4) 0.7642(12)
H5C H 0.1518 0.4637 0.8336
C7C C 0.0777(9) 0.4454(5) 0.7068(11)
H6C H 0.0199 0.4545 0.7373
C8C C 0.0805(9) 0.4269(6) 0.6025(13)
C9C C 0.1665(9) 0.4120(6) 0.5646(12)
H7C H 0.1724 0.3971 0.4966
C10C C 0.2462(10) 0.4195(6) 0.6305(13)
H8C H 0.3055 0.4113 0.6027
C11G C 0.1275(10) 0.1335(5) 1.0079(12)
H9G H 0.0744 0.1135 1.0217
C12G C 0.1464(11) 0.1700(5) 1.0769(13)
H10G H 0.1095 0.1745 1.1384
C13G C 0.2204(10) 0.2008(5) 1.0569(11)
C14G C 0.2737(9) 0.1903(5) 0.9687(12)
H11G H 0.3271 0.2098 0.9532
C15G C 0.2484(10) 0.1514(5) 0.9035(11)
H12G H 0.2850 0.1450 0.8424
N4 N 0.0756(12) 0.3153(7) 0.7550(13)
C16 C 0.094(2) 0.2208(10) 0.733(3)
H13 H 0.1066 0.1957 0.6781
H14 H 0.0324 0.2142 0.7637
H15 H 0.1409 0.2188 0.7882
C17 C 0.0946(9) 0.2777(4) 0.6790(8)
loop_
_geom_bond_atom_site_label_1
_geom_bond_atom_site_label_2
_geom_bond_site_symmetry_1
_geom_bond_site_symmetry_2
W1 S1 1_555 1_555
I1 Cu1 1_555 1_555
Cu1 S1 1_555 1_555
Cu2 S1 1_555 1_555
S2 W1 1_555 1_555
S3 C3 1_555 1_555
S4 C13 1_555 1_555
N1 Cu1 1_555 1_555
N2 C6 1_555 1_555
N3 Cu2 1_555 1_555
N4 C17 1_555 1_555
C1 N1 1_555 1_555
H1 C1 1_555 1_555
C2 C1 1_555 1_555
H2 C2 1_555 1_555
C3 C2 1_555 1_555
C4 C3 1_555 1_555
H3 C4 1_555 1_555
C5 N1 1_555 1_555
H4 C5 1_555 1_555
C6 H5 1_555 1_555
C7 C6 1_555 1_555
H6 C7 1_555 1_555
C8 S3 1_555 1_555
C9 C8 1_555 1_555
H7 C9 1_555 1_555
C10 N2 1_555 1_555
H8 C10 1_555 1_555
C11 N3 1_555 1_555
H9 C11 1_555 1_555
C12 C11 1_555 1_555
H10 C12 1_555 1_555
C13 C12 1_555 1_555
C14 C13 1_555 1_555
H11 C14 1_555 1_555
C15 N3 1_555 1_555
H12 C15 1_555 1_555
C16 H13 1_555 1_555
H14 C16 1_555 1_555
H15 C16 1_555 1_555
C17 C16 1_555 1_555
I1C Cu1C 1_555 1_555
Cu1C S2 1_555 1_555
Cu1C_2 N1C 1_555 1_555
Cu2C S1C 1_555 1_555
Cu2C_2 N2 1_555 1_555
Cu2G N3G 1_555 1_555
S1C W1 1_555 1_555
S2C W1 1_555 1_555
S3C C3C 1_555 1_555
N1C C1C 1_555 1_555
N1C_2 Cu1C 1_555 1_555
N2C Cu2 1_555 1_555
N2_2 Cu2C 1_555 1_555
N3G C11G 1_555 1_555
N3C Cu2C 1_555 1_555
C1C H1C 1_555 1_555
C2C C1C 1_555 1_555
H2C C2C 1_555 1_555
C3C C2C 1_555 1_555
C4C C3C 1_555 1_555
H3C C4C 1_555 1_555
C5C N1C 1_555 1_555
H4C C5C 1_555 1_555
C6C N2C 1_555 1_555
H5C C6C 1_555 1_555
C7C C6C 1_555 1_555
H6C C7C 1_555 1_555
C8C S3C 1_555 1_555
C9C C8C 1_555 1_555
H7C C9C 1_555 1_555
C10C N2C 1_555 1_555
H8C C10C 1_555 1_555
C11G H9G 1_555 1_555
C12G C11G 1_555 1_555
H10G C12G 1_555 1_555
C13G S4 1_555 1_555
C14G C13G 1_555 1_555
H11G C14G 1_555 1_555
C15G N3G 1_555 1_555
H12G C15G 1_555 1_555
Cu1 S2C 1_555 1_555
Cu2 S2 1_555 1_555
C4 C5 1_555 1_555
C7 C8 1_555 1_555
C9 C10 1_555 1_555
C14 C15 1_555 1_555
Cu1C S1C 1_555 1_555
Cu2C S2C 1_555 1_555
C4C C5C 1_555 1_555
C7C C8C 1_555 1_555
C9C C10C 1_555 1_555
C12G C13G 1_555 1_555
C14G C15G 1_555 1_555

#END
