
#######################################################################
#
#                 Cambridge Crystallographic Data Centre
#                                CCDC 
#
#######################################################################
#
# If this CIF has been generated from an entry in the Cambridge 
# Structural Database, then it will include bibliographic, chemical, 
# crystal, experimental, refinement or atomic coordinate data resulting 
# from the CCDC's data processing and validation procedures.
#
#######################################################################

data_KEXFUP
_symmetry_cell_setting           triclinic
_symmetry_space_group_name_H-M   'P -1'
_symmetry_Int_Tables_number      2
_space_group_name_Hall           '-P 1'
loop_
_symmetry_equiv_pos_site_id
_symmetry_equiv_pos_as_xyz
1 x,y,z
2 -x,-y,-z
_cell_length_a                   8.091(9)
_cell_length_b                   8.980(10)
_cell_length_c                   10.786(12)
_cell_angle_alpha                96.802(14)
_cell_angle_beta                 90.398(17)
_cell_angle_gamma                109.199(14)
_cell_volume                     734.004
loop_
_atom_site_label
_atom_site_type_symbol
_atom_site_fract_x
_atom_site_fract_y
_atom_site_fract_z
Ag1 Ag 0.48047(11) 0.68927(9) 0.25349(7)
N1 N 0.5534(10) 0.4254(10) 0.1703(7)
N2 N 0.5309(9) 0.2817(9) -0.0343(7)
N3 N 0.7610(10) 0.5087(10) 0.0249(8)
H1 H 0.8146 0.5913 0.0770
H2 H 0.8019 0.4954 -0.0474
N4 N 0.3548(11) 0.4909(10) 0.3639(8)
N5 N 0.3434(11) 0.0634(11) -0.2225(8)
C1 C 0.6128(11) 0.4001(11) 0.0567(9)
C2 C 0.3895(12) 0.1677(11) -0.0030(9)
C3 C 0.3270(12) 0.1745(12) 0.1174(9)
H3 H 0.2328 0.0924 0.1409
C4 C 0.4122(12) 0.3094(12) 0.2000(9)
C5 C 0.3404(12) 0.3406(12) 0.3247(9)
C6 C 0.2637(14) 0.2148(12) 0.3961(10)
H4 H 0.2578 0.1111 0.3680
C7 C 0.1980(14) 0.2520(13) 0.5092(10)
H5 H 0.1448 0.1718 0.5577
C8 C 0.2105(14) 0.4050(12) 0.5506(9)
H6 H 0.1674 0.4303 0.6270
C9 C 0.2888(14) 0.5217(14) 0.4761(10)
H7 H 0.2966 0.6259 0.5040
C10 C 0.3016(12) 0.0345(11) -0.1034(9)
C11 C 0.1854(14) -0.1083(12) -0.0780(10)
H8 H 0.1572 -0.1244 0.0039
C12 C 0.1106(14) -0.2279(13) -0.1756(11)
H9 H 0.0316 -0.3247 -0.1597
C13 C 0.1541(14) -0.2023(12) -0.2952(10)
H10 H 0.1073 -0.2810 -0.3622
C14 C 0.2705(15) -0.0549(12) -0.3132(10)
H11 H 0.2998 -0.0375 -0.3947
Ag1A Ag 0.51953(11) 0.31073(9) -0.25349(7)
N2A N 0.4691(9) 0.7183(9) 0.0343(7)
N5A N 0.6566(11) 0.9366(11) 0.2225(8)
N6 N 0.1079(11) 0.7609(11) 0.2559(8)
O1 O 0.2166(12) 0.8268(11) 0.3426(10)
O2 O 0.0938(12) 0.6240(11) 0.2089(9)
O3 O 0.0120(13) 0.8296(13) 0.2166(10)
loop_
_geom_bond_atom_site_label_1
_geom_bond_atom_site_label_2
_geom_bond_site_symmetry_1
_geom_bond_site_symmetry_2
Ag1 N1 1_555 1_555
N1 C1 1_555 1_555
N2 C1 1_555 1_555
N3 H1 1_555 1_555
H2 N3 1_555 1_555
N4 Ag1 1_555 1_555
N5 C10 1_555 1_555
N6 O1 1_555 1_555
O2 N6 1_555 1_555
O3 N6 1_555 1_555
C1 N3 1_555 1_555
C2 N2 1_555 1_555
C3 C2 1_555 1_555
H3 C3 1_555 1_555
C4 N1 1_555 1_555
C5 N4 1_555 1_555
C6 C5 1_555 1_555
H4 C6 1_555 1_555
C7 C6 1_555 1_555
H5 C7 1_555 1_555
C8 C7 1_555 1_555
H6 C8 1_555 1_555
C9 N4 1_555 1_555
H7 C9 1_555 1_555
C10 C2 1_555 1_555
C11 C10 1_555 1_555
H8 C11 1_555 1_555
C12 C11 1_555 1_555
H9 C12 1_555 1_555
C13 C12 1_555 1_555
H10 C13 1_555 1_555
C14 N5 1_555 1_555
H11 C14 1_555 1_555
Ag1A N2 1_555 1_555
N2A Ag1 1_555 1_555
N5A Ag1 1_555 1_555
N5 Ag1A 1_555 1_555
C3 C4 1_555 1_555
C4 C5 1_555 1_555
C8 C9 1_555 1_555
C13 C14 1_555 1_555

#END
