
#######################################################################
#
#                 Cambridge Crystallographic Data Centre
#                                CCDC 
#
#######################################################################
#
# If this CIF has been generated from an entry in the Cambridge 
# Structural Database, then it will include bibliographic, chemical, 
# crystal, experimental, refinement or atomic coordinate data resulting 
# from the CCDC's data processing and validation procedures.
#
#######################################################################

data_KEXJON
_symmetry_cell_setting           orthorhombic
_symmetry_space_group_name_H-M   'P b c a'
_symmetry_Int_Tables_number      61
_space_group_name_Hall           '-P 2ac 2ab'
loop_
_symmetry_equiv_pos_site_id
_symmetry_equiv_pos_as_xyz
1 x,y,z
2 1/2-x,-y,1/2+z
3 1/2+x,1/2-y,-z
4 -x,1/2+y,1/2-z
5 -x,-y,-z
6 1/2+x,y,1/2-z
7 1/2-x,1/2+y,z
8 x,1/2-y,1/2+z
_cell_length_a                   15.7293(3)
_cell_length_b                   6.9881(1)
_cell_length_c                   17.1409(4)
_cell_angle_alpha                90
_cell_angle_beta                 90
_cell_angle_gamma                90
_cell_volume                     1884.09
loop_
_atom_site_label
_atom_site_type_symbol
_atom_site_fract_x
_atom_site_fract_y
_atom_site_fract_z
Cu1 Cu 0.650540(10) 0.45996(3) 0.272340(10)
O1 O 0.66950(7) 0.61345(17) 0.17724(8)
O2 O 0.75226(9) 0.7931(2) 0.25018(7)
O3 O 0.60579(15) 0.4188(3) 0.57630(10)
O4 O 0.56369(9) 0.6329(2) 0.31181(8)
O5 O 0.44132(9) 0.7807(2) 0.29653(8)
N1 N 0.63944(10) 0.3155(2) 0.37362(9)
C1 C 0.51095(12) 0.7234(3) 0.27189(12)
C2 C 0.72008(11) 0.7512(2) 0.18611(12)
C3 C 0.62655(14) 0.4053(3) 0.44168(12)
C4 C 0.61536(14) 0.3103(3) 0.51138(12)
C5 C 0.61593(17) 0.1143(4) 0.51155(14)
C6 C 0.6289(2) 0.0222(4) 0.44144(15)
C7 C 0.64055(18) 0.1235(3) 0.37404(13)
H1 H 0.5243(15) 0.747(3) 0.2194(18)
H2 H 0.7313(11) 0.826(3) 0.1414(13)
H3 H 0.6257(13) 0.539(4) 0.4439(12)
H4 H 0.583(3) 0.348(6) 0.626(3)
H5 H 0.609(2) 0.029(6) 0.559(2)
H6 H 0.623(3) -0.102(8) 0.440(2)
H7 H 0.652(2) 0.058(4) 0.327(2)
Cu1F Cu 0.849460(10) 0.95996(3) 0.272340(10)
Cu1C Cu 0.349460(10) 0.95996(3) 0.227660(10)
O2F O 0.74774(9) 0.2931(2) 0.25018(7)
O5C O 0.55868(9) 0.2807(2) 0.20347(8)
loop_
_geom_bond_atom_site_label_1
_geom_bond_atom_site_label_2
_geom_bond_site_symmetry_1
_geom_bond_site_symmetry_2
Cu1 O1 1_555 1_555
O1 C2 1_555 1_555
O2 C2 1_555 1_555
O3 C4 1_555 1_555
O4 Cu1 1_555 1_555
O5 C1 1_555 1_555
N1 Cu1 1_555 1_555
C1 O4 1_555 1_555
C2 H2 1_555 1_555
C3 N1 1_555 1_555
C4 C3 1_555 1_555
C5 C4 1_555 1_555
C6 C5 1_555 1_555
C7 N1 1_555 1_555
H1 C1 1_555 1_555
H3 C3 1_555 1_555
H4 O3 1_555 1_555
H5 C5 1_555 1_555
H6 C6 1_555 1_555
H7 C7 1_555 1_555
Cu1F O2 1_555 1_555
Cu1C O5 1_555 1_555
O2F Cu1 1_555 1_555
O5C Cu1 1_555 1_555
C6 C7 1_555 1_555

#END
