
#######################################################################
#
#                 Cambridge Crystallographic Data Centre
#                                CCDC 
#
#######################################################################
#
# If this CIF has been generated from an entry in the Cambridge 
# Structural Database, then it will include bibliographic, chemical, 
# crystal, experimental, refinement or atomic coordinate data resulting 
# from the CCDC's data processing and validation procedures.
#
#######################################################################

data_KEXJUU
_symmetry_cell_setting           triclinic
_symmetry_space_group_name_H-M   'P -1'
_symmetry_Int_Tables_number      2
_space_group_name_Hall           '-P 1'
loop_
_symmetry_equiv_pos_site_id
_symmetry_equiv_pos_as_xyz
1 x,y,z
2 -x,-y,-z
_cell_length_a                   8.1754(16)
_cell_length_b                   9.3313(19)
_cell_length_c                   13.893(3)
_cell_angle_alpha                78.35(3)
_cell_angle_beta                 83.15(3)
_cell_angle_gamma                76.44(3)
_cell_volume                     1006.2
loop_
_atom_site_label
_atom_site_type_symbol
_atom_site_fract_x
_atom_site_fract_y
_atom_site_fract_z
C1 C 0.2984(8) 0.1997(7) 1.2979(5)
H1 H 0.3569 0.1008 1.3009
C2 C 0.2734(8) 0.2880(7) 1.2062(5)
H2 H 0.3152 0.2481 1.1498
C3 C 0.1866(8) 0.4352(7) 1.1978(5)
C4 C 0.1267(10) 0.4860(8) 1.2861(5)
H3 H 0.0647 0.5835 1.2852
C5 C 0.1599(10) 0.3911(8) 1.3741(5)
H4 H 0.1219 0.4285 1.4319
C6 C 0.1529(7) 0.5367(7) 1.1010(4)
C7 C 0.2432(7) 0.5039(7) 1.0142(4)
H5 H 0.3296 0.4188 1.0151
C8 C 0.2029(8) 0.5998(6) 0.9258(5)
C9 C 0.0763(7) 0.7252(6) 0.9266(4)
H6 H 0.0477 0.7898 0.8678
C10 C -0.0080(7) 0.7558(6) 1.0138(4)
C11 C 0.2900(8) 0.5720(7) 0.8292(4)
C12 C 0.3649(8) 0.4289(8) 0.8106(5)
H7 H 0.3685 0.3461 0.8611
C13 C 0.4338(8) 0.4107(7) 0.7168(5)
H8 H 0.4820 0.3144 0.7054
C14 C 0.3701(8) 0.6629(7) 0.6608(5)
H9 H 0.3763 0.7446 0.6105
C15 C 0.2956(9) 0.6893(7) 0.7511(5)
H10 H 0.2484 0.7870 0.7599
C16 C -0.1471(8) 0.8921(7) 1.0142(4)
C17 C -0.1944(8) 0.9911(7) 0.9283(5)
H11 H -0.1382 0.9744 0.8680
C18 C -0.3243(9) 1.1135(8) 0.9326(6)
H12 H -0.3539 1.1766 0.8735
C19 C -0.3619(9) 1.0537(8) 1.0976(6)
H13 H -0.4189 1.0752 1.1567
C20 C -0.2340(8) 0.9273(8) 1.1020(5)
H14 H -0.2062 0.8666 1.1622
Cu1 Cu 0.5000 0.5000 0.5000
Mo1 Mo 0.16328(6) 0.82154(6) 0.42548(4)
Mo2 Mo 0.29771(6) 1.11536(6) 0.54949(4)
N1 N 0.2439(6) 0.2480(6) 1.3820(4)
N2 N 0.4338(6) 0.5262(6) 0.6418(4)
N3 N -0.4106(7) 1.1484(7) 1.0145(5)
N4 N 0.0276(7) 0.6620(6) 1.1004(4)
O1 O 0.3645(5) 1.2758(5) 0.5508(3)
O2 O 0.5000 1.0000 0.5000
O3 O 0.2976(6) 1.0292(5) 0.6682(3)
O4 O 0.1960(5) 0.9516(4) 0.4940(3)
O5 O 0.2140(7) 0.8817(6) 0.3043(4)
O6 O -0.0501(5) 0.7936(5) 0.4408(3)
O7 O 0.2948(5) 0.6455(5) 0.4625(3)
Mo1A Mo -0.16328(6) 1.17846(6) 0.57452(4)
Mo2A Mo -0.29771(6) 0.88464(6) 0.45051(4)
O1A O -0.3645(5) 0.7242(5) 0.4492(3)
O3A O -0.2976(6) 0.9708(5) 0.3318(3)
O4A O -0.1960(5) 1.0484(4) 0.5060(3)
O5A O -0.2140(7) 1.1183(6) 0.6957(4)
O6A O 0.0501(5) 1.2064(5) 0.5592(3)
O7A O -0.2948(5) 1.3545(5) 0.5375(3)
C1A C 0.7016(8) 0.8003(7) -0.2979(5)
H1A H 0.6431 0.8992 -0.3009
C2A C 0.7266(8) 0.7120(7) -0.2062(5)
H2A H 0.6848 0.7519 -0.1498
C3A C 0.8134(8) 0.5648(7) -0.1978(5)
C4A C 0.8733(10) 0.5140(8) -0.2861(5)
H3A H 0.9353 0.4165 -0.2852
C5A C 0.8401(10) 0.6089(8) -0.3741(5)
H4A H 0.8781 0.5715 -0.4319
C6A C 0.8471(7) 0.4633(7) -0.1010(4)
C7A C 0.7568(7) 0.4961(7) -0.0142(4)
H5A H 0.6704 0.5812 -0.0151
C8A C 0.7971(8) 0.4002(6) 0.0742(5)
C9A C 0.9237(7) 0.2748(6) 0.0734(4)
H6A H 0.9523 0.2102 0.1322
C10A C 1.0080(7) 0.2442(6) -0.0138(4)
C11A C 0.7100(8) 0.4280(7) 0.1708(4)
C12A C 0.6351(8) 0.5711(8) 0.1894(5)
H7A H 0.6315 0.6539 0.1389
C13A C 0.5662(8) 0.5893(7) 0.2832(5)
H8A H 0.5180 0.6856 0.2946
C14A C 0.6299(8) 0.3371(7) 0.3392(5)
H9A H 0.6237 0.2554 0.3895
C15A C 0.7044(9) 0.3107(7) 0.2489(5)
H10A H 0.7516 0.2130 0.2401
C16A C 1.1471(8) 0.1079(7) -0.0142(4)
C17A C 1.1944(8) 0.0089(7) 0.0717(5)
H11A H 1.1382 0.0256 0.1320
C18A C 1.3243(9) -0.1135(8) 0.0674(6)
H12A H 1.3539 -0.1766 0.1265
C19A C 1.3619(9) -0.0537(8) -0.0976(6)
H13A H 1.4189 -0.0752 -0.1567
C20A C 1.2340(8) 0.0727(8) -0.1020(5)
H14A H 1.2062 0.1334 -0.1622
N1A N 0.7561(6) 0.7520(6) -0.3820(4)
N2A N 0.5662(6) 0.4738(6) 0.3582(4)
N3A N 1.4106(7) -0.1484(7) -0.0145(5)
N4A N 0.9724(7) 0.3380(6) -0.1004(4)
Cu1_2 Cu -0.5000 0.5000 0.5000
Cu1_3 Cu -0.5000 1.5000 0.5000
Cu1_4 Cu 0.5000 1.5000 0.5000
Mo2_2 Mo 0.29771(6) 0.11536(6) 1.54949(4)
Mo2A_2 Mo 0.70229(6) 0.88464(6) -0.54949(4)
Mo2A_3 Mo 0.70229(6) 0.88464(6) 0.45051(4)
N1_2 N 0.2439(6) 1.2480(6) 0.3820(4)
N1A_2 N -0.2439(6) 0.7520(6) 0.6180(4)
O1_2 O 0.3645(5) 0.2758(5) 0.5508(3)
O1A_2 O 0.6355(5) 0.7242(5) 0.4492(3)
O2_2 O -0.5000 1.0000 0.5000
O7A_2 O 0.7052(5) 0.3545(5) 0.5375(3)
loop_
_geom_bond_atom_site_label_1
_geom_bond_atom_site_label_2
_geom_bond_site_symmetry_1
_geom_bond_site_symmetry_2
C1 H1 1_555 1_555
C2 C1 1_555 1_555
H2 C2 1_555 1_555
C3 C2 1_555 1_555
C4 C3 1_555 1_555
H3 C4 1_555 1_555
C5 C4 1_555 1_555
H4 C5 1_555 1_555
C6 C3 1_555 1_555
C7 C6 1_555 1_555
H5 C7 1_555 1_555
C8 C7 1_555 1_555
C9 C8 1_555 1_555
H6 C9 1_555 1_555
C10 C9 1_555 1_555
C11 C8 1_555 1_555
C12 C11 1_555 1_555
H7 C12 1_555 1_555
C13 C12 1_555 1_555
H8 C13 1_555 1_555
C14 H9 1_555 1_555
C15 C11 1_555 1_555
H10 C15 1_555 1_555
C16 C10 1_555 1_555
C17 C16 1_555 1_555
H11 C17 1_555 1_555
C18 C17 1_555 1_555
H12 C18 1_555 1_555
C19 H13 1_555 1_555
C20 C16 1_555 1_555
H14 C20 1_555 1_555
Cu1 N2 1_555 1_555
Mo1 O4 1_555 1_555
Mo2 O1 1_555 1_555
N1 C1 1_555 1_555
N2 C13 1_555 1_555
N3 C18 1_555 1_555
N4 C6 1_555 1_555
O1 Cu1_4 1_555 1_555
O2 Mo2 1_555 1_555
O3 Mo2 1_555 1_555
O4 Mo2 1_555 1_555
O5 Mo1 1_555 1_555
O6 Mo1 1_555 1_555
O7 Cu1 1_555 1_555
Mo1A O4A 1_555 1_555
Mo2A O6 1_555 1_555
O1A Mo2A 1_555 1_555
O3A Mo2A 1_555 1_555
O4A Mo2A 1_555 1_555
O5A Mo1A 1_555 1_555
O6A Mo2 1_555 1_555
O7A Mo1A 1_555 1_555
C1A H1A 1_555 1_555
C2A C1A 1_555 1_555
H2A C2A 1_555 1_555
C3A C2A 1_555 1_555
C4A C3A 1_555 1_555
H3A C4A 1_555 1_555
C5A C4A 1_555 1_555
H4A C5A 1_555 1_555
C6A C3A 1_555 1_555
C7A C6A 1_555 1_555
H5A C7A 1_555 1_555
C8A C7A 1_555 1_555
C9A C8A 1_555 1_555
H6A C9A 1_555 1_555
C10A C9A 1_555 1_555
C11A C8A 1_555 1_555
C12A C11A 1_555 1_555
H7A C12A 1_555 1_555
C13A C12A 1_555 1_555
H8A C13A 1_555 1_555
C14A H9A 1_555 1_555
C15A C11A 1_555 1_555
H10A C15A 1_555 1_555
C16A C10A 1_555 1_555
C17A C16A 1_555 1_555
H11A C17A 1_555 1_555
C18A C17A 1_555 1_555
H12A C18A 1_555 1_555
C19A H13A 1_555 1_555
C20A C16A 1_555 1_555
H14A C20A 1_555 1_555
N1A C1A 1_555 1_555
N2A Cu1 1_555 1_555
N3A C18A 1_555 1_555
N4A C6A 1_555 1_555
Cu1_2 O1A 1_555 1_555
Cu1_3 O7A 1_555 1_555
Mo2_2 N1 1_555 1_555
Mo2A_2 N1A 1_555 1_555
Mo2A_3 O2 1_555 1_555
N1_2 Mo2 1_555 1_555
N1A_2 Mo2A 1_555 1_555
O1_2 Cu1 1_555 1_555
O1A_2 Cu1 1_555 1_555
O2_2 Mo2A 1_555 1_555
O7A_2 Cu1 1_555 1_555
C5 N1 1_555 1_555
C10 N4 1_555 1_555
C14 C15 1_555 1_555
C14 N2 1_555 1_555
C19 C20 1_555 1_555
C19 N3 1_555 1_555
Mo1 O7 1_555 1_555
Mo1A O6A 1_555 1_555
C5A N1A 1_555 1_555
C10A N4A 1_555 1_555
C13A N2A 1_555 1_555
C14A C15A 1_555 1_555
C14A N2A 1_555 1_555
C19A C20A 1_555 1_555
C19A N3A 1_555 1_555
Mo2A_3 O1A_2 1_555 1_555

#END
