
#######################################################################
#
#                 Cambridge Crystallographic Data Centre
#                                CCDC 
#
#######################################################################
#
# If this CIF has been generated from an entry in the Cambridge 
# Structural Database, then it will include bibliographic, chemical, 
# crystal, experimental, refinement or atomic coordinate data resulting 
# from the CCDC's data processing and validation procedures.
#
#######################################################################

data_KEXRIQ
_symmetry_cell_setting           monoclinic
_symmetry_space_group_name_H-M   'C 2/c'
_symmetry_Int_Tables_number      15
_space_group_name_Hall           '-C 2yn'
loop_
_symmetry_equiv_pos_site_id
_symmetry_equiv_pos_as_xyz
1 x,y,z
2 -x,y,1/2-z
3 1/2+x,1/2+y,z
4 1/2-x,1/2+y,1/2-z
5 -x,-y,-z
6 x,-y,1/2+z
7 1/2-x,1/2-y,-z
8 1/2+x,1/2-y,1/2+z
_cell_length_a                   11.549(3)
_cell_length_b                   15.700(3)
_cell_length_c                   9.260(2)
_cell_angle_alpha                90
_cell_angle_beta                 102.984(3)
_cell_angle_gamma                90
_cell_volume                     1636.09
loop_
_atom_site_label
_atom_site_type_symbol
_atom_site_fract_x
_atom_site_fract_y
_atom_site_fract_z
Co1 Co 1.0000 0.09174(3) 0.7500
O1 O 0.9101(2) 0.08450(13) 0.5281(2)
O2 O 0.9042(2) 0.00738(14) 0.3261(2)
N1 N 1.1165(2) 0.18760(17) 0.7069(3)
N2 N 1.1787(3) 0.30315(19) 0.6169(5)
C1 C 0.9462(2) 0.02648(17) 0.4577(3)
C2 C 1.0875(4) 0.4394(2) 0.5100(6)
C3 C 1.2059(4) 0.2229(3) 0.8088(5)
H1 H 1.2366 0.2006 0.9027
C4 C 1.1022(3) 0.2373(2) 0.5916(4)
H2 H 1.0466 0.2284 0.5033
C5 C 1.2444(5) 0.2945(3) 0.7560(6)
H3 H 1.3041 0.3307 0.8052
C6 C 1.1834(5) 0.3731(3) 0.5129(8)
H4 H 1.2394 0.3764 0.4549
C7 C 1.1069(7) 0.5141(4) 0.4837(15)
H5 H 1.1801 0.5286 0.4645
C8 C 1.0233(8) 0.5774(4) 0.4817(17)
H6 H 1.0456 0.6338 0.4742
O1D O 1.0899(2) -0.08450(13) 0.4719(2)
O2D O 1.0958(2) -0.00738(14) 0.6739(2)
C1D C 1.0538(2) -0.02648(17) 0.5423(3)
N1D N 0.8835(2) 0.81240(17) 0.2931(3)
N2D N 0.8213(3) 0.69685(19) 0.3831(5)
C2D C 0.9125(4) 0.5606(2) 0.4900(6)
C3D C 0.7941(4) 0.7771(3) 0.1912(5)
H1D H 0.7634 0.7994 0.0973
C4D C 0.8978(3) 0.7627(2) 0.4084(4)
H2D H 0.9534 0.7716 0.4967
C5D C 0.7556(5) 0.7055(3) 0.2440(6)
H3D H 0.6959 0.6693 0.1948
C6D C 0.8166(5) 0.6269(3) 0.4871(8)
H4D H 0.7606 0.6236 0.5451
C7D C 0.8931(7) 0.4859(4) 0.5163(15)
H5D H 0.8199 0.4714 0.5355
C8D C 0.9767(8) 0.4226(4) 0.5183(17)
H6D H 0.9544 0.3662 0.5258
Co1D Co 1.0000 -0.09174(3) 0.2500
Co1D_2 Co 1.0000 0.90826(3) 0.2500
O1A O 1.0899(2) 0.08450(13) 0.9719(2)
O2E O 0.9042(2) -0.00738(14) 0.8261(2)
N1A N 0.8835(2) 0.18760(17) 0.7931(3)
loop_
_geom_bond_atom_site_label_1
_geom_bond_atom_site_label_2
_geom_bond_site_symmetry_1
_geom_bond_site_symmetry_2
Co1 O1 1_555 1_555
O1 C1 1_555 1_555
O2 C1 1_555 1_555
N1 Co1 1_555 1_555
N2 C4 1_555 1_555
C1 C1D 1_555 1_555
C2 C6 1_555 1_555
C3 N1 1_555 1_555
H1 C3 1_555 1_555
C4 N1 1_555 1_555
H2 C4 1_555 1_555
C5 N2 1_555 1_555
H3 C5 1_555 1_555
C6 N2 1_555 1_555
H4 C6 1_555 1_555
C7 C2 1_555 1_555
H5 C7 1_555 1_555
C8 C7 1_555 1_555
H6 C8 1_555 1_555
O1D C1D 1_555 1_555
O2D Co1 1_555 1_555
C1D O2D 1_555 1_555
N1D C3D 1_555 1_555
N2D C4D 1_555 1_555
C2D C8 1_555 1_555
C3D H1D 1_555 1_555
C4D N1D 1_555 1_555
H2D C4D 1_555 1_555
C5D N2D 1_555 1_555
H3D C5D 1_555 1_555
C6D N2D 1_555 1_555
H4D C6D 1_555 1_555
C7D C2D 1_555 1_555
H5D C7D 1_555 1_555
C8D C2 1_555 1_555
H6D C8D 1_555 1_555
Co1D O2 1_555 1_555
Co1D_2 N1D 1_555 1_555
O1A Co1 1_555 1_555
O2E Co1 1_555 1_555
N1A Co1 1_555 1_555
C3 C5 1_555 1_555
O1D Co1D 1_555 1_555
C2D C6D 1_555 1_555
C3D C5D 1_555 1_555
C7D C8D 1_555 1_555

#END
