
#######################################################################
#
#                 Cambridge Crystallographic Data Centre
#                                CCDC 
#
#######################################################################
#
# If this CIF has been generated from an entry in the Cambridge 
# Structural Database, then it will include bibliographic, chemical, 
# crystal, experimental, refinement or atomic coordinate data resulting 
# from the CCDC's data processing and validation procedures.
#
#######################################################################

data_KEXSOX
_symmetry_cell_setting           monoclinic
_symmetry_space_group_name_H-M   'C 2/c'
_symmetry_Int_Tables_number      15
_space_group_name_Hall           '-C 2yn'
loop_
_symmetry_equiv_pos_site_id
_symmetry_equiv_pos_as_xyz
1 x,y,z
2 -x,y,1/2-z
3 1/2+x,1/2+y,z
4 1/2-x,1/2+y,1/2-z
5 -x,-y,-z
6 x,-y,1/2+z
7 1/2-x,1/2-y,-z
8 1/2+x,1/2-y,1/2+z
_cell_length_a                   17.998(4)
_cell_length_b                   9.5458(19)
_cell_length_c                   12.009(2)
_cell_angle_alpha                90
_cell_angle_beta                 121.43(3)
_cell_angle_gamma                90
_cell_volume                     1760.49
loop_
_atom_site_label
_atom_site_type_symbol
_atom_site_fract_x
_atom_site_fract_y
_atom_site_fract_z
Gd1 Gd 0.0000 0.657377(14) 0.2500
N1 N -0.16618(15) 0.6445(2) 0.0071(2)
N2 N 0.0000 0.9236(3) 0.2500
N3 N 0.08590(12) 0.76803(19) 0.16582(19)
O1 O 0.01461(12) 1.43323(16) 0.17040(17)
O2 O -0.15132(12) 0.5734(2) 0.10574(18)
O3 O -0.10392(12) 0.7211(2) 0.02168(18)
O4 O -0.23583(16) 0.6381(2) -0.0956(2)
C1 C 0.12924(18) 0.6856(2) 0.1286(3)
H1 H 0.1245 0.5890 0.1328
C2 C 0.18071(19) 0.7382(3) 0.0843(3)
H2 H 0.2105 0.6785 0.0597
C3 C 0.1867(2) 0.8822(3) 0.0773(3)
H3 H 0.2208 0.9206 0.0478
C4 C 0.14184(16) 0.9683(2) 0.1143(2)
H4 H 0.1451 1.0652 0.1095
C5 C 0.09161(14) 0.9083(2) 0.1591(2)
C6 C 0.04325(14) 0.9938(2) 0.2046(2)
C7 C 0.04305(16) 1.1399(2) 0.1999(2)
H5 H 0.0710 1.1874 0.1643
C8 C 0.0000 1.2120(3) 0.2500
C9 C 0.0000 1.3699(3) 0.2500
N3A N -0.08590(12) 0.76803(19) 0.33418(19)
O1A O -0.01461(12) 1.43323(16) 0.32960(17)
C1A C -0.12924(18) 0.6856(2) 0.3714(3)
H1A H -0.1245 0.5890 0.3672
C2A C -0.18071(19) 0.7382(3) 0.4157(3)
H2A H -0.2105 0.6785 0.4403
C3A C -0.1867(2) 0.8822(3) 0.4227(3)
H3A H -0.2208 0.9206 0.4522
C4A C -0.14184(16) 0.9683(2) 0.3857(2)
H4A H -0.1451 1.0652 0.3905
C5A C -0.09161(14) 0.9083(2) 0.3409(2)
C6A C -0.04325(14) 0.9938(2) 0.2954(2)
C7A C -0.04305(16) 1.1399(2) 0.3001(2)
H5A H -0.0710 1.1874 0.3357
N1A N 0.16618(15) 0.6445(2) 0.4929(2)
O2A O 0.15132(12) 0.5734(2) 0.39426(18)
O3A O 0.10392(12) 0.7211(2) 0.47832(18)
O4A O 0.23583(16) 0.6381(2) 0.5956(2)
Gd1_2 Gd 0.0000 1.657377(14) 0.2500
O1_2 O 0.01461(12) 0.43323(16) 0.17040(17)
O1A_2 O -0.01461(12) 0.43323(16) 0.32960(17)
loop_
_geom_bond_atom_site_label_1
_geom_bond_atom_site_label_2
_geom_bond_site_symmetry_1
_geom_bond_site_symmetry_2
Gd1 N2 1_555 1_555
N1 O2 1_555 1_555
N2 C6 1_555 1_555
N3 Gd1 1_555 1_555
O1 C9 1_555 1_555
O2 Gd1 1_555 1_555
O3 Gd1 1_555 1_555
O4 N1 1_555 1_555
C1 N3 1_555 1_555
H1 C1 1_555 1_555
C2 C1 1_555 1_555
H2 C2 1_555 1_555
C3 C2 1_555 1_555
H3 C3 1_555 1_555
C4 C3 1_555 1_555
H4 C4 1_555 1_555
C5 N3 1_555 1_555
C6 C5 1_555 1_555
C7 C6 1_555 1_555
H5 C7 1_555 1_555
C8 C7 1_555 1_555
C9 C8 1_555 1_555
N3A Gd1 1_555 1_555
O1A C9 1_555 1_555
C1A N3A 1_555 1_555
H1A C1A 1_555 1_555
C2A C1A 1_555 1_555
H2A C2A 1_555 1_555
C3A C2A 1_555 1_555
H3A C3A 1_555 1_555
C4A C3A 1_555 1_555
H4A C4A 1_555 1_555
C5A N3A 1_555 1_555
C6A N2 1_555 1_555
C7A C8 1_555 1_555
H5A C7A 1_555 1_555
N1A O2A 1_555 1_555
O2A Gd1 1_555 1_555
O3A Gd1 1_555 1_555
O4A N1A 1_555 1_555
Gd1_2 O1 1_555 1_555
O1_2 Gd1 1_555 1_555
O1A_2 Gd1 1_555 1_555
N1 O3 1_555 1_555
C4 C5 1_555 1_555
O1A Gd1_2 1_555 1_555
C4A C5A 1_555 1_555
C5A C6A 1_555 1_555
C6A C7A 1_555 1_555
N1A O3A 1_555 1_555

#END
