
#######################################################################
#
#                 Cambridge Crystallographic Data Centre
#                                CCDC 
#
#######################################################################
#
# If this CIF has been generated from an entry in the Cambridge 
# Structural Database, then it will include bibliographic, chemical, 
# crystal, experimental, refinement or atomic coordinate data resulting 
# from the CCDC's data processing and validation procedures.
#
#######################################################################

data_KEXVUF
_symmetry_cell_setting           monoclinic
_symmetry_space_group_name_H-M   'P 21'
_symmetry_Int_Tables_number      4
_space_group_name_Hall           'P 2yb'
loop_
_symmetry_equiv_pos_site_id
_symmetry_equiv_pos_as_xyz
1 x,y,z
2 -x,1/2+y,-z
_cell_length_a                   24.396(5)
_cell_length_b                   5.9554(11)
_cell_length_c                   8.5825(16)
_cell_angle_alpha                90
_cell_angle_beta                 91.018(4)
_cell_angle_gamma                90
_cell_volume                     1246.74
loop_
_atom_site_label
_atom_site_type_symbol
_atom_site_fract_x
_atom_site_fract_y
_atom_site_fract_z
Zn1 Zn -0.53773(4) -0.45131(11) -0.03595(11)
Zn2 Zn -0.53908(3) -0.55925(8) -0.53227(10)
O1 O -0.6077(2) -0.5935(10) 0.0319(6)
O2 O -0.6117(2) -0.4333(12) -0.4615(6)
O3 O -0.5587(2) -0.6250(11) 0.2443(6)
O4 O -0.5136(2) -0.8227(8) -0.4256(6)
O5 O -0.5178(2) -0.1744(12) 0.0713(7)
C1 C -0.6014(3) -0.6657(14) 0.1694(10)
C2 C -0.7858(3) -0.8711(13) 0.0356(10)
C3 C -0.7877(3) -0.1777(14) -0.4616(8)
C4 C -0.8094(3) -0.6618(16) 0.0822(10)
C5 C -0.8149(3) -0.3744(13) -0.4233(9)
C6 C -0.6045(3) -0.3652(14) -0.3242(8)
C7 C -0.7331(3) -0.9167(14) 0.0864(10)
H1 H -0.7175 -1.0539 0.0606
C8 C -0.7326(3) -0.1318(14) -0.4014(8)
H2 H -0.7155 0.0014 -0.4294
C9 C -0.8686(4) -0.9656(16) -0.1127(11)
H3 H -0.8882 -1.0653 -0.1757
O6 O -0.9448(2) -0.3017(15) -0.6382(10)
C10 C -0.8673(3) -0.0780(17) -0.6168(10)
H4 H -0.8851 0.0197 -0.6854
C11 C -0.8919(3) -0.7552(17) -0.0672(11)
C12 C -0.7057(3) -0.2761(14) -0.3066(8)
C13 C -0.6497(2) -0.2367(11) -0.2406(7)
H5 H -0.6496 -0.2897 -0.1325
C14 C -0.8670(3) -0.4212(16) -0.4786(10)
H6 H -0.8841 -0.5543 -0.4500
C15 C -0.7336(3) -0.4807(14) -0.2685(9)
H7 H -0.7156 -0.5847 -0.2050
C16 C -0.7270(4) -0.570(2) 0.2217(11)
H8 H -0.7073 -0.4732 0.2870
O7 O -0.9435(3) -0.7235(13) -0.1308(9)
C17 C -0.8937(4) -0.2746(18) -0.5749(12)
C18 C -0.7030(4) -0.768(2) 0.1728(13)
C19 C -0.8179(3) -1.0146(13) -0.0620(9)
H9 H -0.8026 -1.1505 -0.0925
C20 C -0.7849(3) -0.5288(15) -0.3211(9)
H10 H -0.8013 -0.6627 -0.2915
C21 C -0.6429(4) -0.815(2) 0.2363(17)
H11 H -0.6463 -0.7369 0.3361
C22 C -0.8646(3) -0.6109(14) 0.0287(9)
H12 H -0.8814 -0.4787 0.0602
C23 C -0.8152(3) -0.0208(15) -0.5602(10)
H13 H -0.7991 0.1153 -0.5862
C24 C -0.7795(3) -0.5131(13) 0.1751(10)
H14 H -0.7947 -0.3771 0.2054
C25 C -0.9733(4) -0.498(2) -0.6036(15)
H15 H -1.0077 -0.4992 -0.6594
H16 H -0.9797 -0.5048 -0.4937
H17 H -0.9520 -0.6261 -0.6339
C26 C -0.6311(4) -1.013(2) 0.2930(17)
H18 H -0.5942 -1.0129 0.3333
H19 H -0.6348 -1.1235 0.2122
H20 H -0.6559 -1.0475 0.3754
C27 C -0.6315(3) 0.0123(14) -0.2371(9)
H21 H -0.6587 0.1007 -0.1861
H22 H -0.6272 0.0654 -0.3417
H23 H -0.5972 0.0251 -0.1811
C28 C -0.9707(4) -0.514(2) -0.0870(15)
H24 H -1.0066 -0.5083 -0.1350
H25 H -0.9495 -0.3884 -0.1214
H26 H -0.9741 -0.5080 0.0242
O8 O -0.5577(2) -0.3896(12) -0.2597(6)
Zn1A Zn -0.46227(4) 0.04869(11) 0.03595(11)
Zn2_2 Zn -0.53908(3) -0.55925(8) 0.46773(10)
Zn2A Zn -0.46092(3) -1.05925(8) -0.46773(10)
O3_2 O -0.5587(2) -0.6250(11) -0.7557(6)
O4A O -0.4864(2) -0.3227(8) -0.5744(6)
O5A O -0.4822(2) -0.6744(12) -0.0713(7)
loop_
_geom_bond_atom_site_label_1
_geom_bond_atom_site_label_2
_geom_bond_site_symmetry_1
_geom_bond_site_symmetry_2
Zn1 O1 1_555 1_555
Zn2 O2 1_555 1_555
O1 C1 1_555 1_555
O2 C6 1_555 1_555
O3 C1 1_555 1_555
O4 Zn2 1_555 1_555
O5 Zn1 1_555 1_555
C1 C21 1_555 1_555
C2 C4 1_555 1_555
C3 C5 1_555 1_555
C4 C22 1_555 1_555
C5 C14 1_555 1_555
C6 C13 1_555 1_555
C7 C2 1_555 1_555
H1 C7 1_555 1_555
C8 C3 1_555 1_555
H2 C8 1_555 1_555
C9 H3 1_555 1_555
O6 C17 1_555 1_555
C10 H4 1_555 1_555
C11 C9 1_555 1_555
C12 C8 1_555 1_555
C13 C12 1_555 1_555
H5 C13 1_555 1_555
C14 H6 1_555 1_555
C15 C12 1_555 1_555
H7 C15 1_555 1_555
C16 H8 1_555 1_555
O7 C11 1_555 1_555
C17 C10 1_555 1_555
C18 C7 1_555 1_555
C19 C2 1_555 1_555
H9 C19 1_555 1_555
C20 C5 1_555 1_555
H10 C20 1_555 1_555
C21 C18 1_555 1_555
H11 C21 1_555 1_555
C22 C11 1_555 1_555
H12 C22 1_555 1_555
C23 C3 1_555 1_555
H13 C23 1_555 1_555
C24 C4 1_555 1_555
H14 C24 1_555 1_555
C25 O6 1_555 1_555
H15 C25 1_555 1_555
H16 C25 1_555 1_555
H17 C25 1_555 1_555
C26 C21 1_555 1_555
H18 C26 1_555 1_555
H19 C26 1_555 1_555
H20 C26 1_555 1_555
C27 C13 1_555 1_555
H21 C27 1_555 1_555
H22 C27 1_555 1_555
H23 C27 1_555 1_555
C28 O7 1_555 1_555
H24 C28 1_555 1_555
H25 C28 1_555 1_555
H26 C28 1_555 1_555
O8 Zn1 1_555 1_555
Zn1A O5 1_555 1_555
Zn2_2 O3 1_555 1_555
Zn2A O4 1_555 1_555
O3_2 Zn2 1_555 1_555
O4A Zn2 1_555 1_555
O5A Zn1 1_555 1_555
C6 O8 1_555 1_555
C9 C19 1_555 1_555
C10 C23 1_555 1_555
C14 C17 1_555 1_555
C15 C20 1_555 1_555
C16 C18 1_555 1_555
C16 C24 1_555 1_555

#END
