
#######################################################################
#
#                 Cambridge Crystallographic Data Centre
#                                CCDC 
#
#######################################################################
#
# If this CIF has been generated from an entry in the Cambridge 
# Structural Database, then it will include bibliographic, chemical, 
# crystal, experimental, refinement or atomic coordinate data resulting 
# from the CCDC's data processing and validation procedures.
#
#######################################################################

data_KEXVUE
_symmetry_cell_setting           triclinic
_symmetry_space_group_name_H-M   'P -1'
_symmetry_Int_Tables_number      2
_space_group_name_Hall           '-P 1'
loop_
_symmetry_equiv_pos_site_id
_symmetry_equiv_pos_as_xyz
1 x,y,z
2 -x,-y,-z
_cell_length_a                   9.022(2)
_cell_length_b                   9.400
_cell_length_c                   8.409(2)
_cell_angle_alpha                103.51(2)
_cell_angle_beta                 103.42(23)
_cell_angle_gamma                103.37(2)
_cell_volume                     643.019
loop_
_atom_site_label
_atom_site_type_symbol
_atom_site_fract_x
_atom_site_fract_y
_atom_site_fract_z
Cu1 Cu 0.46546(6) 0.07112(6) 0.15198(7)
O1 O 0.60537(36) 0.12600(34) 0.01970(39)
N1 N 0.34533(42) 0.00953(41) 0.31231(45)
C1 C 0.23177(56) -0.12321(53) 0.27936(60)
C2 C 0.14879(62) -0.15209(59) 0.39222(68)
C3 C 0.18477(66) -0.03985(66) 0.54523(70)
C4 C 0.30031(63) 0.09692(61) 0.58037(64)
C5 C 0.37947(52) 0.11910(51) 0.46273(55)
C6 C 0.50965(50) 0.25996(51) 0.48737(55)
C7 C 0.57419(61) 0.38095(58) 0.63750(60)
C8 C 0.69789(63) 0.50380(59) 0.64895(65)
C9 C 0.75372(61) 0.50413(58) 0.50981(69)
C10 C 0.68339(58) 0.38137(55) 0.36294(63)
N2 N 0.56440(43) 0.26031(41) 0.35262(46)
O2 O 0.24860(35) 0.15494(35) 0.03253(43)
C11 C 0.11141(50) 0.07121(47) 0.01469(54)
C12 C 0.02465(50) -0.09245(48) -0.07193(55)
O3 O 0.05733(38) -0.20160(36) -0.15978(43)
H5 H 0.218(9) -0.194(9) 0.182(10)
H6 H 0.055(9) -0.244(9) 0.352(9)
H7 H 0.117(9) -0.064(9) 0.601(10)
H8 H 0.320(10) 0.161(9) 0.659(10)
H9 H 0.537(9) 0.375(9) 0.719(10)
H10 H 0.778(9) 0.565(9) 0.753(10)
H11 H 0.843(9) 0.574(9) 0.517(10)
H12 H 0.710(9) 0.390(8) 0.257(10)
H13 H 0.716(10) 0.128(9) 0.079(10)
C11A C -0.11141(50) -0.07121(47) -0.01469(54)
O2A O -0.24860(35) -0.15494(35) -0.03253(43)
C12A C -0.02465(50) 0.09245(48) 0.07193(55)
O3A O -0.05733(38) 0.20160(36) 0.15978(43)
O1A O 0.39463(36) -0.12600(34) -0.01970(39)
H13A H 0.284(10) -0.128(9) -0.079(10)
Cu1A Cu 0.53454(6) -0.07112(6) -0.15198(7)
N1A N 0.65467(42) -0.00953(41) -0.31231(45)
C1A C 0.76823(56) 0.12321(53) -0.27936(60)
C2A C 0.85121(62) 0.15209(59) -0.39222(68)
C3A C 0.81523(66) 0.03985(66) -0.54523(70)
C4A C 0.69969(63) -0.09692(61) -0.58037(64)
C5A C 0.62053(52) -0.11910(51) -0.46273(55)
C6A C 0.49035(50) -0.25996(51) -0.48737(55)
C7A C 0.42581(61) -0.38095(58) -0.63750(60)
C8A C 0.30211(63) -0.50380(59) -0.64895(65)
C9A C 0.24628(61) -0.50413(58) -0.50981(69)
C10A C 0.31661(58) -0.38137(55) -0.36294(63)
N2A N 0.43560(43) -0.26031(41) -0.35262(46)
H5A H 0.782(9) 0.194(9) -0.182(10)
H6A H 0.945(9) 0.244(9) -0.352(9)
H7A H 0.883(9) 0.064(9) -0.601(10)
H8A H 0.680(10) -0.161(9) -0.659(10)
H9A H 0.463(9) -0.375(9) -0.719(10)
H10A H 0.222(9) -0.565(9) -0.753(10)
H11A H 0.157(9) -0.574(9) -0.517(10)
H12A H 0.290(9) -0.390(8) -0.257(10)
Cu1A_2 Cu -0.46546(6) -0.07112(6) -0.15198(7)
O2A_2 O 0.75140(35) -0.15494(35) -0.03253(43)
O4 O 0.34040(52) 0.41307(43) -0.07255(52)
H3 H 0.304(9) 0.338(8) -0.028(10)
H4 H 0.260(8) 0.465(7) -0.075(8)
O5 O 0.07010(57) -0.48813(49) -0.12607(65)
H1 H 0.043(10) -0.395(9) -0.153(10)
H2 H 0.006(12) -0.541(12) -0.090(12)
loop_
_geom_bond_atom_site_label_1
_geom_bond_atom_site_label_2
_geom_bond_site_symmetry_1
_geom_bond_site_symmetry_2
Cu1 O1 1_555 1_555
O1 H13 1_555 1_555
N1 Cu1 1_555 1_555
C1 N1 1_555 1_555
C2 C1 1_555 1_555
C3 C2 1_555 1_555
C4 C3 1_555 1_555
C5 N1 1_555 1_555
C6 C5 1_555 1_555
C7 C6 1_555 1_555
C8 C7 1_555 1_555
C9 C8 1_555 1_555
C10 C9 1_555 1_555
N2 Cu1 1_555 1_555
O2 Cu1 1_555 1_555
C11 O2 1_555 1_555
C12 C11 1_555 1_555
O3 C12 1_555 1_555
O4 H3 1_555 1_555
O5 H1 1_555 1_555
H2 O5 1_555 1_555
H4 O4 1_555 1_555
H5 C1 1_555 1_555
H6 C2 1_555 1_555
H7 C3 1_555 1_555
H8 C4 1_555 1_555
H9 C7 1_555 1_555
H10 C8 1_555 1_555
H11 C9 1_555 1_555
H12 C10 1_555 1_555
C11A C12 1_555 1_555
O2A C11A 1_555 1_555
C12A C11 1_555 1_555
O3A C12A 1_555 1_555
O1A Cu1 1_555 1_555
H13A O1A 1_555 1_555
Cu1A O1 1_555 1_555
N1A Cu1A 1_555 1_555
C1A N1A 1_555 1_555
C2A C1A 1_555 1_555
C3A C2A 1_555 1_555
C4A C3A 1_555 1_555
C5A N1A 1_555 1_555
C6A C5A 1_555 1_555
C7A C6A 1_555 1_555
C8A C7A 1_555 1_555
C9A C8A 1_555 1_555
C10A C9A 1_555 1_555
N2A Cu1A 1_555 1_555
H5A C1A 1_555 1_555
H6A C2A 1_555 1_555
H7A C3A 1_555 1_555
H8A C4A 1_555 1_555
H9A C7A 1_555 1_555
H10A C8A 1_555 1_555
H11A C9A 1_555 1_555
H12A C10A 1_555 1_555
Cu1A_2 O2A 1_555 1_555
O2A_2 Cu1A 1_555 1_555
C4 C5 1_555 1_555
C6 N2 1_555 1_555
C10 N2 1_555 1_555
C11A C12A 1_555 1_555
O1A Cu1A 1_555 1_555
C4A C5A 1_555 1_555
C6A N2A 1_555 1_555
C10A N2A 1_555 1_555

#END
