
#######################################################################
#
#                 Cambridge Crystallographic Data Centre
#                                CCDC 
#
#######################################################################
#
# If this CIF has been generated from an entry in the Cambridge 
# Structural Database, then it will include bibliographic, chemical, 
# crystal, experimental, refinement or atomic coordinate data resulting 
# from the CCDC's data processing and validation procedures.
#
#######################################################################

data_KEXWOA
_symmetry_cell_setting           triclinic
_symmetry_space_group_name_H-M   'P -1'
_symmetry_Int_Tables_number      2
_space_group_name_Hall           '-P 1'
loop_
_symmetry_equiv_pos_site_id
_symmetry_equiv_pos_as_xyz
1 x,y,z
2 -x,-y,-z
_cell_length_a                   8.265(4)
_cell_length_b                   10.424(5)
_cell_length_c                   12.381(6)
_cell_angle_alpha                76.987(9)
_cell_angle_beta                 70.987(9)
_cell_angle_gamma                78.281(8)
_cell_volume                     972.789
loop_
_atom_site_label
_atom_site_type_symbol
_atom_site_fract_x
_atom_site_fract_y
_atom_site_fract_z
C1 C 0.9644(6) 0.7829(5) 0.4194(4)
H1 H 1.0134 0.6953 0.4134
C2 C 1.0380(7) 0.8842(6) 0.3348(4)
H2 H 1.1345 0.8637 0.2737
C3 C 0.9695(8) 1.0126(6) 0.3413(4)
H3 H 1.0196 1.0807 0.2854
C4 C 0.8216(7) 1.0425(5) 0.4334(4)
C5 C 0.7360(8) 1.1751(5) 0.4475(5)
H4 H 0.7771 1.2469 0.3922
C6 C 0.5993(8) 1.1969(5) 0.5381(5)
H5 H 0.5461 1.2836 0.5446
C7 C 0.5332(6) 1.0901(4) 0.6251(4)
C8 C 0.3921(7) 1.1065(5) 0.7245(5)
H6 H 0.3355 1.1912 0.7361
C9 C 0.3387(7) 0.9988(5) 0.8032(5)
H7 H 0.2452 1.0091 0.8688
C10 C 0.4246(6) 0.8733(5) 0.7851(4)
H8 H 0.3872 0.8001 0.8401
C11 C 0.6123(5) 0.9591(4) 0.6133(4)
C12 C 0.7570(5) 0.9343(4) 0.5155(4)
C13 C 0.4894(5) 0.4626(4) 0.8248(4)
C14 C 0.3477(6) 0.4355(5) 0.9381(4)
H9 H 0.4017 0.3883 0.9974
H10 H 0.2888 0.5202 0.9605
C15 C 0.2137(5) 0.3566(4) 0.9379(3)
C16 C 0.1822(6) 0.2418(4) 1.0174(4)
H11 H 0.2492 0.2111 1.0680
C17 C 0.0537(6) 0.1705(4) 1.0240(4)
H12 H 0.0359 0.0928 1.0779
C18 C -0.0465(6) 0.2151(4) 0.9511(4)
H13 H -0.1334 0.1682 0.9554
C19 C -0.0184(6) 0.3306(4) 0.8707(4)
H14 H -0.0876 0.3611 0.8216
C20 C 0.1117(5) 0.4017(4) 0.8622(3)
C21 C 0.1436(6) 0.5280(4) 0.7731(4)
H15 H 0.1380 0.5999 0.8128
H16 H 0.2593 0.5145 0.7203
C22 C 0.0156(5) 0.5684(4) 0.7040(4)
N1 N 0.8275(5) 0.8065(4) 0.5081(3)
N2 N 0.5576(4) 0.8528(3) 0.6929(3)
O1 O 0.5286(4) 0.5796(3) 0.7979(3)
O2 O 0.5578(4) 0.3735(3) 0.7664(3)
O3 O -0.1192(4) 0.6434(3) 0.7440(3)
O4 O 0.0454(4) 0.5258(3) 0.6130(3)
O5 O 0.6797(4) 0.5423(3) 0.5646(3)
H17 H 0.768(4) 0.519(4) 0.510(3)
Zn1 Zn 0.70744(6) 0.66782(4) 0.65996(4)
H18 H 0.664(5) 0.479(3) 0.621(2)
O3_2 O 0.8808(4) 0.6434(3) 0.7440(3)
Zn1_2 Zn -0.29256(6) 0.66782(4) 0.65996(4)
O6 O 0.6081(8) 0.1117(6) 0.9097(6)
H19 H 0.565(4) 0.1883(19) 0.877(3)
H20 H 0.677(5) 0.124(3) 0.945(4)
loop_
_geom_bond_atom_site_label_1
_geom_bond_atom_site_label_2
_geom_bond_site_symmetry_1
_geom_bond_site_symmetry_2
C1 H1 1_555 1_555
C2 C1 1_555 1_555
H2 C2 1_555 1_555
C3 C2 1_555 1_555
H3 C3 1_555 1_555
C4 C3 1_555 1_555
C5 C4 1_555 1_555
H4 C5 1_555 1_555
C6 C5 1_555 1_555
H5 C6 1_555 1_555
C7 C6 1_555 1_555
C8 C7 1_555 1_555
H6 C8 1_555 1_555
C9 C8 1_555 1_555
H7 C9 1_555 1_555
C10 C9 1_555 1_555
H8 C10 1_555 1_555
C11 C7 1_555 1_555
C12 C4 1_555 1_555
C13 C14 1_555 1_555
C14 H9 1_555 1_555
H10 C14 1_555 1_555
C15 C14 1_555 1_555
C16 C15 1_555 1_555
H11 C16 1_555 1_555
C17 C16 1_555 1_555
H12 C17 1_555 1_555
C18 C17 1_555 1_555
H13 C18 1_555 1_555
C19 C18 1_555 1_555
H14 C19 1_555 1_555
C20 C15 1_555 1_555
C21 C20 1_555 1_555
H15 C21 1_555 1_555
H16 C21 1_555 1_555
C22 C21 1_555 1_555
N1 C1 1_555 1_555
N2 C10 1_555 1_555
O1 C13 1_555 1_555
O2 C13 1_555 1_555
O3 C22 1_555 1_555
O4 C22 1_555 1_555
O5 H17 1_555 1_555
O6 H19 1_555 1_555
Zn1 N1 1_555 1_555
H18 O5 1_555 1_555
H20 O6 1_555 1_555
O3_2 Zn1 1_555 1_555
Zn1_2 O3 1_555 1_555
C11 C12 1_555 1_555
C11 N2 1_555 1_555
C12 N1 1_555 1_555
C19 C20 1_555 1_555
N2 Zn1 1_555 1_555
O1 Zn1 1_555 1_555
O5 Zn1 1_555 1_555

#END
