
#######################################################################
#
#                 Cambridge Crystallographic Data Centre
#                                CCDC 
#
#######################################################################
#
# If this CIF has been generated from an entry in the Cambridge 
# Structural Database, then it will include bibliographic, chemical, 
# crystal, experimental, refinement or atomic coordinate data resulting 
# from the CCDC's data processing and validation procedures.
#
#######################################################################

data_KEXWAM
_symmetry_cell_setting           monoclinic
_symmetry_space_group_name_H-M   'C 2/c'
_symmetry_Int_Tables_number      15
_space_group_name_Hall           '-C 2yn'
loop_
_symmetry_equiv_pos_site_id
_symmetry_equiv_pos_as_xyz
1 x,y,z
2 1/2+x,1/2+y,z
3 -x,y,1/2-z
4 1/2-x,1/2+y,1/2-z
5 -x,-y,-z
6 1/2-x,1/2-y,-z
7 x,-y,1/2+z
8 1/2+x,1/2-y,1/2+z
_cell_length_a                   19.6792(6)
_cell_length_b                   11.9127(6)
_cell_length_c                   21.5103(8)
_cell_angle_alpha                90.00
_cell_angle_beta                 103.8180(10)
_cell_angle_gamma                90.00
_cell_volume                     4896.77
loop_
_atom_site_label
_atom_site_type_symbol
_atom_site_fract_x
_atom_site_fract_y
_atom_site_fract_z
Cd1 Cd 0.037274(7) 0.392426(11) 0.380201(6)
N1 N 0.10864(10) 0.37410(16) 0.48182(9)
N2 N -0.27200(9) 0.22684(16) 0.47808(8)
O1 O -0.06615(9) 0.33824(15) 0.38846(9)
O2 O -0.08322(9) 0.25659(15) 0.29307(8)
O3 O 0.08360(9) 0.42130(15) 0.29488(8)
H1 H 0.0796 0.3641 0.2731
O4 O -0.19624(10) 0.14323(19) 0.25020(8)
H2 H -0.1583 0.1715 0.2500
O5 O 0.02952(10) 0.57438(14) 0.39994(9)
C1 C -0.25004(10) 0.21111(18) 0.42048(10)
C2 C -0.01068(13) 0.62526(19) 0.35509(13)
C3 C -0.02727(12) 0.74549(18) 0.36470(10)
N3 N 0.00641(11) 0.94901(15) 0.49705(9)
C4 C 0.12855(11) 0.18747(18) 0.44717(10)
C5 C -0.18732(11) 0.25141(18) 0.41094(10)
H3 H -0.1576 0.2922 0.4432
N4 N 0.08551(9) 0.21092(15) 0.38923(8)
C6 C -0.02123(13) 0.90575(17) 0.43515(11)
C7 C -0.16823(11) 0.23155(18) 0.35376(10)
C8 C 0.11834(13) 0.4521(2) 0.52727(11)
H4 H 0.0957 0.5208 0.5178
O6 O -0.09082(14) 0.7681(2) 0.25530(10)
C9 C -0.10100(12) 0.27891(19) 0.34464(11)
C10 C 0.14068(11) 0.27347(19) 0.49582(10)
C11 C -0.21294(12) 0.1672(2) 0.30634(10)
C12 C -0.00410(11) 0.79536(18) 0.42450(11)
H5 H 0.0233 0.7541 0.4579
C13 C 0.07272(14) 0.1305(2) 0.34553(12)
H6 H 0.0427 0.1464 0.3061
C14 C 0.16041(14) 0.0821(2) 0.46108(13)
C15 C 0.14597(16) 0.0004(2) 0.41278(15)
H7 H 0.1668 -0.0700 0.4202
C16 C -0.06359(14) 0.9659(2) 0.38494(12)
H8 H -0.0762 1.0393 0.3917
C17 C -0.29424(11) 0.1499(2) 0.37221(12)
H9 H -0.3371 0.1246 0.3779
O7 O -0.03832(11) 0.57986(17) 0.30254(9)
C18 C -0.06839(14) 0.8084(2) 0.31475(11)
C19 C 0.10186(15) 0.0231(2) 0.35546(14)
H10 H 0.0913 -0.0313 0.3236
C20 C 0.18468(13) 0.2508(2) 0.55666(11)
C21 C -0.27520(13) 0.1265(2) 0.31636(13)
H11 H -0.3043 0.0830 0.2851
C22 C -0.08669(16) 0.9183(2) 0.32634(14)
H12 H -0.1151 0.9595 0.2934
C23 C 0.21766(16) 0.1436(3) 0.56755(15)
H13 H 0.2476 0.1285 0.6071
C24 C 0.20659(16) 0.0647(3) 0.52255(15)
H14 H 0.2296 -0.0038 0.5313
C25 C 0.16056(15) 0.4360(3) 0.58804(12)
H15 H 0.1661 0.4929 0.6185
C26 C 0.19381(14) 0.3359(3) 0.60256(12)
H16 H 0.2226 0.3241 0.6431
H17 H 0.0628(11) 0.468(2) 0.2744(11)
H18 H -0.0862(18) 0.696(3) 0.2608(17)
Cd1E Cd -0.537274(7) 0.107574(11) 0.619799(6)
Cd1D Cd -0.037274(7) 1.607574(11) 0.619799(6)
N1E N -0.60864(10) 0.12590(16) 0.51818(9)
N2E N -0.22800(9) 0.27316(16) 0.52192(8)
O1E O -0.43385(9) 0.16176(15) 0.61154(9)
O2E O -0.41678(9) 0.24341(15) 0.70693(8)
O3E O -0.58360(9) 0.07870(15) 0.70512(8)
H1E H -0.5796 0.1359 0.7269
O4E O -0.30376(10) 0.35677(19) 0.74980(8)
H2E H -0.3417 0.3285 0.7500
O5D O -0.02952(10) 1.42562(14) 0.60006(9)
O5E O -0.52952(10) -0.07438(14) 0.60006(9)
C1E C -0.24996(10) 0.28889(18) 0.57952(10)
C2D C 0.01068(13) 1.37474(19) 0.64491(13)
C3D C 0.02727(12) 1.25451(18) 0.63530(10)
N3D N -0.00641(11) 1.05099(15) 0.50295(9)
C4E C -0.62855(11) 0.31253(18) 0.55283(10)
C5E C -0.31268(11) 0.24859(18) 0.58906(10)
H3E H -0.3424 0.2078 0.5568
N4E N -0.58551(9) 0.28908(15) 0.61077(8)
C6D C 0.02123(13) 1.09425(17) 0.56485(11)
C7E C -0.33177(11) 0.26845(18) 0.64624(10)
C8E C -0.61834(13) 0.0479(2) 0.47273(11)
H4E H -0.5957 -0.0208 0.4822
O6D O 0.09082(14) 1.2319(2) 0.74470(10)
C9E C -0.39900(12) 0.22109(19) 0.65536(11)
C10E C -0.64068(11) 0.22653(19) 0.50418(10)
C11E C -0.28706(12) 0.3328(2) 0.69366(10)
C12D C 0.00410(11) 1.20464(18) 0.57550(11)
H5D H -0.0233 1.2459 0.5421
C13E C -0.57272(14) 0.3695(2) 0.65447(12)
H6E H -0.5427 0.3536 0.6939
C14E C -0.66041(14) 0.4179(2) 0.53892(13)
C15E C -0.64597(16) 0.4996(2) 0.58722(15)
H7E H -0.6668 0.5700 0.5798
C16D C 0.06359(14) 1.0341(2) 0.61506(12)
H8D H 0.0762 0.9607 0.6083
C17E C -0.20576(11) 0.3501(2) 0.62779(12)
H9E H -0.1629 0.3754 0.6221
O7D O 0.03832(11) 1.42014(17) 0.69746(9)
C18D C 0.06839(14) 1.1916(2) 0.68525(11)
C19E C -0.60186(15) 0.4769(2) 0.64454(14)
H10E H -0.5913 0.5313 0.6764
C20E C -0.68468(13) 0.2492(2) 0.44334(11)
C21E C -0.22480(13) 0.3735(2) 0.68364(13)
H11E H -0.1957 0.4170 0.7149
C22D C 0.08669(16) 1.0817(2) 0.67366(14)
H12D H 0.1151 1.0405 0.7066
C23E C -0.71766(16) 0.3564(3) 0.43245(15)
H13E H -0.7476 0.3715 0.3929
C24E C -0.70659(16) 0.4353(3) 0.47745(15)
H14E H -0.7296 0.5038 0.4687
C25E C -0.66056(15) 0.0640(3) 0.41196(12)
H15E H -0.6661 0.0071 0.3815
C26E C -0.69381(14) 0.1641(3) 0.39744(12)
H16E H -0.7226 0.1759 0.3569
H17E H -0.5628(11) 0.032(2) 0.7256(11)
H18D H 0.0862(18) 1.304(3) 0.7392(17)
loop_
_geom_bond_atom_site_label_1
_geom_bond_atom_site_label_2
_geom_bond_site_symmetry_1
_geom_bond_site_symmetry_2
Cd1 N1 1_555 1_555
N1 C8 1_555 1_555
N2 C1 1_555 1_555
O1 Cd1 1_555 1_555
O2 C9 1_555 1_555
O3 Cd1 1_555 1_555
H1 O3 1_555 1_555
O4 H2 1_555 1_555
O5 Cd1 1_555 1_555
C1 C5 1_555 1_555
C2 O5 1_555 1_555
C3 C2 1_555 1_555
N3 C6 1_555 1_555
C4 N4 1_555 1_555
C5 H3 1_555 1_555
N4 Cd1 1_555 1_555
C6 C12 1_555 1_555
C7 C5 1_555 1_555
C8 H4 1_555 1_555
O6 C18 1_555 1_555
C9 O1 1_555 1_555
C10 N1 1_555 1_555
C11 O4 1_555 1_555
C12 C3 1_555 1_555
H5 C12 1_555 1_555
C13 N4 1_555 1_555
H6 C13 1_555 1_555
C14 C4 1_555 1_555
C15 C14 1_555 1_555
H7 C15 1_555 1_555
C16 C6 1_555 1_555
H8 C16 1_555 1_555
C17 C1 1_555 1_555
H9 C17 1_555 1_555
O7 C2 1_555 1_555
C18 C3 1_555 1_555
C19 C13 1_555 1_555
H10 C19 1_555 1_555
C20 C10 1_555 1_555
C21 C11 1_555 1_555
H11 C21 1_555 1_555
C22 C16 1_555 1_555
H12 C22 1_555 1_555
C23 C20 1_555 1_555
H13 C23 1_555 1_555
C24 C14 1_555 1_555
H14 C24 1_555 1_555
C25 C8 1_555 1_555
H15 C25 1_555 1_555
C26 C20 1_555 1_555
H16 C26 1_555 1_555
H17 O3 1_555 1_555
H18 O6 1_555 1_555
Cd1E N1E 1_555 1_555
Cd1D O5D 1_555 1_555
N1E C8E 1_555 1_555
N2E N2 1_555 1_555
O1E Cd1E 1_555 1_555
O2E C9E 1_555 1_555
O3E Cd1E 1_555 1_555
H1E O3E 1_555 1_555
O4E H2E 1_555 1_555
O5D C2D 1_555 1_555
O5E Cd1E 1_555 1_555
C1E N2E 1_555 1_555
C2D C3D 1_555 1_555
C3D C12D 1_555 1_555
N3D N3 1_555 1_555
C4E N4E 1_555 1_555
C5E C1E 1_555 1_555
H3E C5E 1_555 1_555
N4E Cd1E 1_555 1_555
C6D N3D 1_555 1_555
C7E C5E 1_555 1_555
C8E H4E 1_555 1_555
O6D C18D 1_555 1_555
C9E O1E 1_555 1_555
C10E N1E 1_555 1_555
C11E O4E 1_555 1_555
C12D C6D 1_555 1_555
H5D C12D 1_555 1_555
C13E N4E 1_555 1_555
H6E C13E 1_555 1_555
C14E C4E 1_555 1_555
C15E C14E 1_555 1_555
H7E C15E 1_555 1_555
C16D C6D 1_555 1_555
H8D C16D 1_555 1_555
C17E C1E 1_555 1_555
H9E C17E 1_555 1_555
O7D C2D 1_555 1_555
C18D C3D 1_555 1_555
C19E C13E 1_555 1_555
H10E C19E 1_555 1_555
C20E C10E 1_555 1_555
C21E C11E 1_555 1_555
H11E C21E 1_555 1_555
C22D C16D 1_555 1_555
H12D C22D 1_555 1_555
C23E C20E 1_555 1_555
H13E C23E 1_555 1_555
C24E C14E 1_555 1_555
H14E C24E 1_555 1_555
C25E C8E 1_555 1_555
H15E C25E 1_555 1_555
C26E C20E 1_555 1_555
H16E C26E 1_555 1_555
H17E O3E 1_555 1_555
H18D O6D 1_555 1_555
C4 C10 1_555 1_555
C7 C9 1_555 1_555
C7 C11 1_555 1_555
C15 C19 1_555 1_555
C17 C21 1_555 1_555
C18 C22 1_555 1_555
C23 C24 1_555 1_555
C25 C26 1_555 1_555
C4E C10E 1_555 1_555
C7E C9E 1_555 1_555
C7E C11E 1_555 1_555
C15E C19E 1_555 1_555
C17E C21E 1_555 1_555
C18D C22D 1_555 1_555
C23E C24E 1_555 1_555
C25E C26E 1_555 1_555

#END
