
#######################################################################
#
#                 Cambridge Crystallographic Data Centre
#                                CCDC 
#
#######################################################################
#
# If this CIF has been generated from an entry in the Cambridge 
# Structural Database, then it will include bibliographic, chemical, 
# crystal, experimental, refinement or atomic coordinate data resulting 
# from the CCDC's data processing and validation procedures.
#
#######################################################################

data_KEXWIU
_symmetry_cell_setting           monoclinic
_symmetry_space_group_name_H-M   'P 21/c'
_symmetry_Int_Tables_number      14
_space_group_name_Hall           '-P 2ybc'
loop_
_symmetry_equiv_pos_site_id
_symmetry_equiv_pos_as_xyz
1 x,y,z
2 -x,1/2+y,1/2-z
3 -x,-y,-z
4 x,1/2-y,1/2+z
_cell_length_a                   10.8931(18)
_cell_length_b                   19.146(3)
_cell_length_c                   9.7273(16)
_cell_angle_alpha                90.00
_cell_angle_beta                 104.667(3)
_cell_angle_gamma                90.00
_cell_volume                     1962.61
loop_
_atom_site_label
_atom_site_type_symbol
_atom_site_fract_x
_atom_site_fract_y
_atom_site_fract_z
C1 C 0.7511(4) 0.2347(2) 0.5898(4)
C2 C 0.8705(4) 0.2158(3) 0.5551(5)
C3 C 0.9014(5) 0.1463(3) 0.5449(6)
H1 H 0.8441 0.1116 0.5539
C4 C 1.0168(6) 0.1282(3) 0.5213(6)
H2 H 1.0375 0.0815 0.5140
C5 C 1.1010(5) 0.1798(3) 0.5087(6)
H3 H 1.1792 0.1679 0.4931
C6 C 1.0703(5) 0.2492(3) 0.5191(6)
H4 H 1.1296 0.2832 0.5129
C7 C 0.9527(4) 0.2700(3) 0.5386(5)
C8 C 0.9200(4) 0.3437(2) 0.5431(5)
C9 C 0.9843(5) 0.3874(3) 0.6493(6)
H5 H 1.0535 0.3700 0.7174
C10 C 0.9495(5) 0.4557(3) 0.6580(5)
H6 H 0.9951 0.4837 0.7313
C11 C 0.8464(5) 0.4834(2) 0.5578(5)
C12 C 0.7855(5) 0.4403(3) 0.4462(5)
H7 H 0.7198 0.4580 0.3740
C13 C 0.8217(5) 0.3717(3) 0.4419(6)
H8 H 0.7780 0.3434 0.3679
C14 C 0.8063(5) 0.5580(2) 0.5670(6)
H9 H 0.8720 0.5821 0.6369
H10 H 0.7997 0.5804 0.4759
C15 C 0.6772(5) 0.5376(2) 0.7471(5)
H11 H 0.7617 0.5365 0.8130
C16 C 0.5896(5) 0.5885(3) 0.7999(5)
H12 H 0.5163 0.5641 0.8155
H13 H 0.6346 0.6103 0.8882
C17 C 0.5496(6) 0.6421(3) 0.6855(6)
H14 H 0.4683 0.6297 0.6225
H15 H 0.5419 0.6876 0.7264
C18 C 0.6490(5) 0.6433(2) 0.6069(6)
H16 H 0.7212 0.6712 0.6557
H17 H 0.6165 0.6611 0.5112
C19 C 0.6173(5) 0.4651(2) 0.7314(5)
Cl1 Cl 0.34694(11) 0.34514(7) 0.78882(12)
N1 N 0.7432(4) 0.2766(2) 0.6960(4)
N2 N 0.6207(4) 0.2800(2) 0.6890(4)
N3 N 0.5509(4) 0.2425(2) 0.5846(4)
N4 N 0.6334(3) 0.21304(18) 0.5196(4)
N5 N 0.6835(4) 0.56659(19) 0.6059(4)
H18 H 0.6223 0.5451 0.5378
O1 O 0.5515(3) 0.44600(17) 0.6162(3)
O2 O 0.6403(3) 0.42971(17) 0.8438(3)
Zn1 Zn 0.55938(5) 0.33787(3) 0.83199(5)
N4C N 0.6334(3) 0.28696(18) 1.0196(4)
Zn1C Zn 0.55938(5) 0.16213(3) 0.33199(5)
O3 O 0.7435(4) 0.5067(2) 0.1084(4)
H19 H 0.6776 0.5315 0.1017
H20 H 0.7427 0.4896 0.0275
loop_
_geom_bond_atom_site_label_1
_geom_bond_atom_site_label_2
_geom_bond_site_symmetry_1
_geom_bond_site_symmetry_2
C1 C2 1_555 1_555
C2 C3 1_555 1_555
C3 H1 1_555 1_555
C4 C3 1_555 1_555
H2 C4 1_555 1_555
C5 C4 1_555 1_555
H3 C5 1_555 1_555
C6 C5 1_555 1_555
H4 C6 1_555 1_555
C7 C2 1_555 1_555
C8 C7 1_555 1_555
C9 C8 1_555 1_555
H5 C9 1_555 1_555
C10 C9 1_555 1_555
H6 C10 1_555 1_555
C11 C10 1_555 1_555
C12 C11 1_555 1_555
H7 C12 1_555 1_555
C13 C8 1_555 1_555
H8 C13 1_555 1_555
C14 C11 1_555 1_555
H9 C14 1_555 1_555
H10 C14 1_555 1_555
C15 H11 1_555 1_555
C16 C15 1_555 1_555
H12 C16 1_555 1_555
H13 C16 1_555 1_555
C17 C16 1_555 1_555
H14 C17 1_555 1_555
H15 C17 1_555 1_555
C18 C17 1_555 1_555
H16 C18 1_555 1_555
H17 C18 1_555 1_555
C19 C15 1_555 1_555
Cl1 Zn1 1_555 1_555
N1 C1 1_555 1_555
N2 N1 1_555 1_555
N3 N2 1_555 1_555
N4 C1 1_555 1_555
N5 C14 1_555 1_555
H18 N5 1_555 1_555
O1 C19 1_555 1_555
O2 C19 1_555 1_555
O3 H19 1_555 1_555
H20 O3 1_555 1_555
Zn1 N2 1_555 1_555
N4C Zn1 1_555 1_555
Zn1C N4 1_555 1_555
C6 C7 1_555 1_555
C12 C13 1_555 1_555
C15 N5 1_555 1_555
C18 N5 1_555 1_555
N3 N4 1_555 1_555
O2 Zn1 1_555 1_555

#END
