
#######################################################################
#
#                 Cambridge Crystallographic Data Centre
#                                CCDC 
#
#######################################################################
#
# If this CIF has been generated from an entry in the Cambridge 
# Structural Database, then it will include bibliographic, chemical, 
# crystal, experimental, refinement or atomic coordinate data resulting 
# from the CCDC's data processing and validation procedures.
#
#######################################################################

data_KEXXER
_symmetry_cell_setting           triclinic
_symmetry_space_group_name_H-M   'P -1'
_symmetry_Int_Tables_number      2
_space_group_name_Hall           '-P 1'
loop_
_symmetry_equiv_pos_site_id
_symmetry_equiv_pos_as_xyz
1 x,y,z
2 -x,-y,-z
_cell_length_a                   9.0653(18)
_cell_length_b                   11.559(2)
_cell_length_c                   12.080(2)
_cell_angle_alpha                93.25(3)
_cell_angle_beta                 111.05(3)
_cell_angle_gamma                105.62(3)
_cell_volume                     1121.02
loop_
_atom_site_label
_atom_site_type_symbol
_atom_site_fract_x
_atom_site_fract_y
_atom_site_fract_z
Cu1 Cu 0.92508(5) 0.94902(3) 0.36369(4)
Cu2 Cu 0.5000 0.5000 0.5000
O1 O 0.6533(3) 0.9460(3) 0.3568(3)
H1 H 0.5760 0.8826 0.3228
H2 H 0.6284 1.0048 0.3315
O2 O 1.2605(5) 1.0092(3) 0.3909(3)
H3 H 1.3008 1.0167 0.4647
H4 H 1.2393 0.9398 0.3570
O5 O 0.5048(4) 0.3652(3) 0.3351(3)
O6 O 0.4238(3) 0.5285(2) 0.3299(2)
O7 O 0.4613(4) 0.3576(3) 0.0940(3)
O8 O 1.0838(5) 0.7873(3) 0.2526(5)
O9 O 0.8558(3) 0.7816(2) 0.2833(2)
O10 O 0.9801(3) 0.8973(2) 0.5221(2)
O11 O 0.5526(7) 0.9260(5) -0.0753(5)
H9 H 0.5207 0.9089 -0.1495
N1 N 0.8784(5) 1.0077(3) 0.2055(3)
N2 N 0.7359(3) 0.5971(2) 0.5331(3)
C1 C 0.4416(4) 0.4371(3) 0.2783(3)
C2 C 0.3768(5) 0.4188(4) 0.1422(4)
H10 H 0.2596 0.3723 0.1095
H11 H 0.3871 0.4977 0.1169
C3 C 0.6244(5) 0.4231(3) 0.1145(3)
C4 C 0.7092(6) 0.3606(4) 0.0722(4)
H12 H 0.6586 0.2793 0.0355
C5 C 0.8689(6) 0.4202(4) 0.0849(4)
H13 H 0.9263 0.3786 0.0563
C6 C 0.9461(5) 0.5414(4) 0.1399(4)
H14 H 1.0541 0.5812 0.1477
C7 C 0.8604(5) 0.6026(3) 0.1831(3)
C8 C 0.6995(5) 0.5439(3) 0.1707(3)
H15 H 0.6421 0.5851 0.1997
C9 C 0.9408(5) 0.7340(3) 0.2444(3)
C10 C 0.7312(6) 0.9496(5) 0.1178(4)
H16 H 0.6530 0.8912 0.1348
C11 C 0.6924(7) 0.9746(6) 0.0020(4)
C12 C 0.8027(10) 1.0569(6) -0.0266(5)
H17 H 0.7773 1.0719 -0.1050
C13 C 0.9523(10) 1.1176(5) 0.0621(6)
H18 H 1.0304 1.1765 0.0452
C14 C 0.9892(7) 1.0916(4) 0.1791(4)
H19 H 1.0922 1.1333 0.2395
C15 C 0.9426(4) 0.7817(3) 0.5418(3)
C16 C 1.0650(4) 0.7278(3) 0.5911(4)
H20 H 1.1762 0.7712 0.6111
C17 C 1.0206(5) 0.6088(3) 0.6103(4)
H21 H 1.1015 0.5713 0.6430
C18 C 0.8554(5) 0.5467(3) 0.5804(4)
H22 H 0.8262 0.4668 0.5936
C19 C 0.7785(4) 0.7124(3) 0.5136(3)
H23 H 0.6949 0.7474 0.4799
Cu1A Cu 0.07492(5) 0.05098(3) 0.63631(4)
Cu1A_2 Cu 1.07492(5) 1.05098(3) 0.63631(4)
Cu1_2 Cu -0.07492(5) -0.05098(3) 0.36369(4)
O1A O 0.3467(3) 0.0540(3) 0.6432(3)
H1A H 0.4240 0.1174 0.6772
H2A H 0.3716 -0.0048 0.6685
O2A O -0.2605(5) -0.0092(3) 0.6091(3)
H3A H -0.3008 -0.0167 0.5353
H4A H -0.2393 0.0602 0.6430
O5A O 0.4952(4) 0.6348(3) 0.6649(3)
O6A O 0.5762(3) 0.4715(2) 0.6701(2)
O7A O 0.5387(4) 0.6424(3) 0.9060(3)
O8A O -0.0838(5) 0.2127(3) 0.7474(5)
O9A O 0.1442(3) 0.2184(2) 0.7167(2)
O10A O 0.0199(3) 0.1027(2) 0.4779(2)
O10A_2 O 1.0199(3) 1.1027(2) 0.4779(2)
O10_2 O -0.0199(3) -0.1027(2) 0.5221(2)
O11A O 0.4474(7) 0.0740(5) 1.0753(5)
H9A H 0.4793 0.0911 1.1495
N1A N 0.1216(5) -0.0077(3) 0.7945(3)
N2A N 0.2641(3) 0.4029(2) 0.4669(3)
C1A C 0.5584(4) 0.5629(3) 0.7217(3)
C2A C 0.6232(5) 0.5812(4) 0.8578(4)
H10A H 0.7404 0.6277 0.8905
H11A H 0.6129 0.5023 0.8831
C3A C 0.3756(5) 0.5769(3) 0.8855(3)
C4A C 0.2908(6) 0.6394(4) 0.9278(4)
H12A H 0.3414 0.7207 0.9645
C5A C 0.1311(6) 0.5798(4) 0.9151(4)
H13A H 0.0737 0.6214 0.9437
C6A C 0.0539(5) 0.4586(4) 0.8601(4)
H14A H -0.0541 0.4188 0.8523
C7A C 0.1396(5) 0.3974(3) 0.8169(3)
C8A C 0.3005(5) 0.4561(3) 0.8293(3)
H15A H 0.3579 0.4149 0.8003
C9A C 0.0592(5) 0.2660(3) 0.7556(3)
C10A C 0.2688(6) 0.0504(5) 0.8822(4)
H16A H 0.3470 0.1088 0.8652
C11A C 0.3076(7) 0.0254(6) 0.9980(4)
C12A C 0.1973(10) -0.0569(6) 1.0266(5)
H17A H 0.2227 -0.0719 1.1050
C13A C 0.0477(10) -0.1176(5) 0.9379(6)
H18A H -0.0304 -0.1765 0.9548
C14A C 0.0108(7) -0.0916(4) 0.8209(4)
H19A H -0.0922 -0.1333 0.7605
C15A C 0.0574(4) 0.2183(3) 0.4582(3)
C16A C -0.0650(4) 0.2722(3) 0.4089(4)
H20A H -0.1762 0.2288 0.3889
C17A C -0.0206(5) 0.3912(3) 0.3897(4)
H21A H -0.1015 0.4287 0.3570
C18A C 0.1446(5) 0.4533(3) 0.4196(4)
H22A H 0.1738 0.5332 0.4064
C19A C 0.2215(4) 0.2876(3) 0.4864(3)
H23A H 0.3051 0.2526 0.5201
O3 O 0.3795(4) 0.7475(3) 0.2548(4)
H5 H 0.3854 0.6836 0.2800
H6 H 0.2851 0.7534 0.2333
O4 O 0.4912(4) 0.1251(3) 0.3048(3)
H7 H 0.5170 0.1998 0.3185
H8 H 0.4721 0.0970 0.3611
loop_
_geom_bond_atom_site_label_1
_geom_bond_atom_site_label_2
_geom_bond_site_symmetry_1
_geom_bond_site_symmetry_2
Cu1 O1 1_555 1_555
Cu2 O5 1_555 1_555
O1 H1 1_555 1_555
H2 O1 1_555 1_555
O2 Cu1 1_555 1_555
H3 O2 1_555 1_555
H4 O2 1_555 1_555
O3 H5 1_555 1_555
H6 O3 1_555 1_555
O4 H7 1_555 1_555
H8 O4 1_555 1_555
O5 C1 1_555 1_555
O6 Cu2 1_555 1_555
O7 C2 1_555 1_555
O8 C9 1_555 1_555
O9 Cu1 1_555 1_555
O10 Cu1 1_555 1_555
O11 H9 1_555 1_555
N1 Cu1 1_555 1_555
N2 Cu2 1_555 1_555
C1 O6 1_555 1_555
C2 C1 1_555 1_555
H10 C2 1_555 1_555
H11 C2 1_555 1_555
C3 O7 1_555 1_555
C4 C3 1_555 1_555
H12 C4 1_555 1_555
C5 C4 1_555 1_555
H13 C5 1_555 1_555
C6 C5 1_555 1_555
H14 C6 1_555 1_555
C7 C6 1_555 1_555
C8 C3 1_555 1_555
H15 C8 1_555 1_555
C9 O9 1_555 1_555
C10 N1 1_555 1_555
H16 C10 1_555 1_555
C11 O11 1_555 1_555
C12 C11 1_555 1_555
H17 C12 1_555 1_555
C13 C12 1_555 1_555
H18 C13 1_555 1_555
C14 N1 1_555 1_555
H19 C14 1_555 1_555
C15 O10 1_555 1_555
C16 C15 1_555 1_555
H20 C16 1_555 1_555
C17 C16 1_555 1_555
H21 C17 1_555 1_555
C18 N2 1_555 1_555
H22 C18 1_555 1_555
C19 N2 1_555 1_555
H23 C19 1_555 1_555
Cu1A O1A 1_555 1_555
Cu1A_2 O10 1_555 1_555
Cu1_2 O10A 1_555 1_555
O1A H1A 1_555 1_555
H2A O1A 1_555 1_555
O2A Cu1A 1_555 1_555
H3A O2A 1_555 1_555
H4A O2A 1_555 1_555
O5A Cu2 1_555 1_555
O6A Cu2 1_555 1_555
O7A C2A 1_555 1_555
O8A C9A 1_555 1_555
O9A Cu1A 1_555 1_555
O10A Cu1A 1_555 1_555
O10A_2 Cu1 1_555 1_555
O10_2 Cu1A 1_555 1_555
O11A H9A 1_555 1_555
N1A Cu1A 1_555 1_555
N2A Cu2 1_555 1_555
C1A O5A 1_555 1_555
C2A C1A 1_555 1_555
H10A C2A 1_555 1_555
H11A C2A 1_555 1_555
C3A O7A 1_555 1_555
C4A C3A 1_555 1_555
H12A C4A 1_555 1_555
C5A C4A 1_555 1_555
H13A C5A 1_555 1_555
C6A C5A 1_555 1_555
H14A C6A 1_555 1_555
C7A C6A 1_555 1_555
C8A C3A 1_555 1_555
H15A C8A 1_555 1_555
C9A O9A 1_555 1_555
C10A N1A 1_555 1_555
H16A C10A 1_555 1_555
C11A O11A 1_555 1_555
C12A C11A 1_555 1_555
H17A C12A 1_555 1_555
C13A C12A 1_555 1_555
H18A C13A 1_555 1_555
C14A N1A 1_555 1_555
H19A C14A 1_555 1_555
C15A O10A 1_555 1_555
C16A C15A 1_555 1_555
H20A C16A 1_555 1_555
C17A C16A 1_555 1_555
H21A C17A 1_555 1_555
C18A N2A 1_555 1_555
H22A C18A 1_555 1_555
C19A N2A 1_555 1_555
H23A C19A 1_555 1_555
C7 C8 1_555 1_555
C7 C9 1_555 1_555
C10 C11 1_555 1_555
C13 C14 1_555 1_555
C15 C19 1_555 1_555
C17 C18 1_555 1_555
Cu1A_2 O10A_2 1_555 1_555
Cu1_2 O10_2 1_555 1_555
O6A C1A 1_555 1_555
C7A C8A 1_555 1_555
C7A C9A 1_555 1_555
C10A C11A 1_555 1_555
C13A C14A 1_555 1_555
C15A C19A 1_555 1_555
C17A C18A 1_555 1_555

#END
