
#######################################################################
#
#                 Cambridge Crystallographic Data Centre
#                                CCDC 
#
#######################################################################
#
# If this CIF has been generated from an entry in the Cambridge 
# Structural Database, then it will include bibliographic, chemical, 
# crystal, experimental, refinement or atomic coordinate data resulting 
# from the CCDC's data processing and validation procedures.
#
#######################################################################

data_KEXZUI
_symmetry_cell_setting           monoclinic
_symmetry_space_group_name_H-M   'C 2/c'
_symmetry_Int_Tables_number      15
_space_group_name_Hall           '-C 2yn'
loop_
_symmetry_equiv_pos_site_id
_symmetry_equiv_pos_as_xyz
1 x,y,z
2 1/2+x,1/2+y,z
3 -x,y,1/2-z
4 1/2-x,1/2+y,1/2-z
5 -x,-y,-z
6 1/2-x,1/2-y,-z
7 x,-y,1/2+z
8 1/2+x,1/2-y,1/2+z
_cell_length_a                   27.97(1)
_cell_length_b                   4.798(1)
_cell_length_c                   13.389(6)
_cell_angle_alpha                90
_cell_angle_beta                 94.23(3)
_cell_angle_gamma                90
_cell_volume                     1791.91
loop_
_atom_site_label
_atom_site_type_symbol
_atom_site_fract_x
_atom_site_fract_y
_atom_site_fract_z
Tl1 Tl 0.0000 -0.7194(1) 0.2500
C1 C 0.1396(4) 0.3120(20) 0.1364(7)
C2 C 0.1506(4) 0.4728(23) 0.2227(7)
Cl1 Cl 0.1144(1) 0.4452(9) 0.3223(2)
C3 C 0.1894(5) 0.6500(28) 0.2302(10)
C4 C 0.2189(6) 0.6682(32) 0.1509(11)
C5 C 0.2090(5) 0.5022(28) 0.0690(10)
C6 C 0.1695(4) 0.3312(23) 0.0584(8)
O1 O 0.0995(3) 0.1503(16) 0.1355(5)
C7 C 0.0880(4) -0.0087(19) 0.0472(6)
C8 C 0.0456(4) -0.1985(18) 0.0648(7)
O2 O 0.0258(3) -0.1970(16) 0.1427(6)
O3 O 0.0354(3) -0.3488(18) -0.0123(5)
H1 H 0.198 0.749 0.282
H2 H 0.239 0.782 0.148
H3 H 0.228 0.496 0.017
H4 H 0.169 0.167 -0.004
H5 H 0.077 0.152 -0.002
H6 H 0.121 -0.109 0.034
Tl1_2 Tl 0.0000 0.2806(1) 0.2500
O2_2 O 0.0258(3) -1.1970(16) 0.1427(6)
O2B O -0.0258(3) -1.1970(16) 0.3573(6)
Tl1_3 Tl 0.0000 -1.7194(1) 0.2500
C8B C -0.0456(4) -1.1985(18) 0.4352(7)
C7B C -0.0880(4) -1.0087(19) 0.4528(6)
O1B O -0.0995(3) -0.8497(16) 0.3645(5)
C1B C -0.1396(4) -0.6880(20) 0.3636(7)
C2B C -0.1506(4) -0.5272(23) 0.2773(7)
Cl1B Cl -0.1144(1) -0.5548(9) 0.1777(2)
C3B C -0.1894(5) -0.3500(28) 0.2698(10)
C4B C -0.2189(6) -0.3318(32) 0.3491(11)
C5B C -0.2090(5) -0.4978(28) 0.4310(10)
C6B C -0.1695(4) -0.6688(23) 0.4416(8)
H4B H -0.169 -0.833 0.504
H3B H -0.228 -0.504 0.483
H2B H -0.239 -0.218 0.352
H1B H -0.198 -0.251 0.218
H5B H -0.077 -0.848 0.502
H6B H -0.121 -1.109 0.466
O3B O -0.0354(3) -1.3488(18) 0.5123(5)
O2B_2 O -0.0258(3) -0.1970(16) 0.3573(6)
loop_
_geom_bond_atom_site_label_1
_geom_bond_atom_site_label_2
_geom_bond_site_symmetry_1
_geom_bond_site_symmetry_2
Tl1 O2 1_555 1_555
C1 C2 1_555 1_555
C2 Cl1 1_555 1_555
C3 C2 1_555 1_555
C4 C3 1_555 1_555
C5 C4 1_555 1_555
C6 C1 1_555 1_555
O1 C1 1_555 1_555
C7 O1 1_555 1_555
C8 C7 1_555 1_555
O2 C8 1_555 1_555
O3 C8 1_555 1_555
H1 C3 1_555 1_555
H2 C4 1_555 1_555
H3 C5 1_555 1_555
H4 C6 1_555 1_555
H5 C7 1_555 1_555
H6 C7 1_555 1_555
Tl1_2 O2 1_555 1_555
O2_2 Tl1 1_555 1_555
O2B Tl1 1_555 1_555
Tl1_3 O2_2 1_555 1_555
C8B O2B 1_555 1_555
C7B C8B 1_555 1_555
O1B C7B 1_555 1_555
C1B O1B 1_555 1_555
C2B C1B 1_555 1_555
Cl1B C2B 1_555 1_555
C3B C2B 1_555 1_555
C4B C3B 1_555 1_555
C5B C4B 1_555 1_555
C6B C1B 1_555 1_555
H4B C6B 1_555 1_555
H3B C5B 1_555 1_555
H2B C4B 1_555 1_555
H1B C3B 1_555 1_555
H5B C7B 1_555 1_555
H6B C7B 1_555 1_555
O3B C8B 1_555 1_555
O2B_2 Tl1 1_555 1_555
C5 C6 1_555 1_555
Tl1_2 O2B_2 1_555 1_555
O2B Tl1_3 1_555 1_555
C5B C6B 1_555 1_555

#END
