
#######################################################################
#
#                 Cambridge Crystallographic Data Centre
#                                CCDC 
#
#######################################################################
#
# If this CIF has been generated from an entry in the Cambridge 
# Structural Database, then it will include bibliographic, chemical, 
# crystal, experimental, refinement or atomic coordinate data resulting 
# from the CCDC's data processing and validation procedures.
#
#######################################################################

data_KEYDUP
_symmetry_cell_setting           monoclinic
_symmetry_space_group_name_H-M   'P 21/c'
_symmetry_Int_Tables_number      14
_space_group_name_Hall           '-P 2ybc'
loop_
_symmetry_equiv_pos_site_id
_symmetry_equiv_pos_as_xyz
1 x,y,z
2 -x,1/2+y,1/2-z
3 -x,-y,-z
4 x,1/2-y,1/2+z
_cell_length_a                   10.4764(19)
_cell_length_b                   10.0803(19)
_cell_length_c                   17.083(3)
_cell_angle_alpha                90
_cell_angle_beta                 94.466(2)
_cell_angle_gamma                90
_cell_volume                     1798.58
loop_
_atom_site_label
_atom_site_type_symbol
_atom_site_fract_x
_atom_site_fract_y
_atom_site_fract_z
Co1 Co 0.47450(7) 0.60021(7) 0.07820(4)
O1 O 0.4170(4) 0.4222(3) 0.0324(2)
O2 O 0.4555(4) 0.3260(4) 0.1497(2)
O3 O 0.4902(4) -0.1765(4) 0.1012(3)
O4 O 0.3601(4) -0.2645(4) 0.0095(2)
N1 N 0.3322(4) 0.5991(5) 0.1642(3)
N2 N -0.3593(4) 0.5747(5) 0.1517(3)
C1 C 0.2123(5) 0.2065(5) 0.0165(3)
C2 C 0.3350(5) 0.2040(5) 0.0530(3)
C3 C 0.3936(5) 0.0818(5) 0.0651(3)
H1 H 0.4742 0.0774 0.0919
C4 C 0.3338(5) -0.0346(5) 0.0377(3)
C5 C 0.2139(6) -0.0291(6) -0.0001(3)
H2 H 0.1750 -0.1064 -0.0199
C6 C 0.1494(6) 0.0922(6) -0.0093(4)
H3 H 0.0660 0.0958 -0.0322
C7 C 0.4085(5) 0.3258(5) 0.0821(3)
C8 C 0.3992(6) -0.1652(6) 0.0501(4)
C9 C 0.2120(6) 0.6333(6) 0.1393(4)
H4 H 0.1975 0.6704 0.0895
C10 C 0.1103(6) 0.6163(7) 0.1833(4)
H5 H 0.0288 0.6424 0.1637
C11 C 0.1282(6) 0.5600(8) 0.2574(4)
C12 C 0.2505(6) 0.5272(8) 0.2837(4)
H6 H 0.2671 0.4897 0.3332
C13 C 0.3498(6) 0.5500(7) 0.2363(4)
H7 H 0.4329 0.5299 0.2560
C14 C -0.2804(6) 0.4699(6) 0.1447(4)
H8 H -0.3010 0.4074 0.1057
C15 C -0.1693(6) 0.4527(8) 0.1939(4)
H9 H -0.1171 0.3793 0.1879
C16 C -0.1370(6) 0.5456(9) 0.2517(4)
C17 C -0.2188(7) 0.6516(8) 0.2584(4)
H10 H -0.2002 0.7160 0.2966
C18 C -0.3278(6) 0.6616(7) 0.2086(4)
H11 H -0.3824 0.7329 0.2149
S1 S 0.00146(18) 0.5294(3) 0.31735(11)
Br1 Br 0.11432(7) 0.36618(7) 0.00860(5)
Co1_2 Co -0.52550(7) 0.60021(7) 0.07820(4)
Co1_3 Co 0.47450(7) -0.39979(7) 0.07820(4)
Co1B Co 0.52550(7) 0.39979(7) -0.07820(4)
O1B O 0.5830(4) 0.5778(3) -0.0324(2)
O3_2 O 0.4902(4) 0.8235(4) 0.1012(3)
O4_2 O 0.3601(4) 0.7355(4) 0.0095(2)
N2_2 N 0.6407(4) 0.5747(5) 0.1517(3)
loop_
_geom_bond_atom_site_label_1
_geom_bond_atom_site_label_2
_geom_bond_site_symmetry_1
_geom_bond_site_symmetry_2
Co1 O1 1_555 1_555
O1 C7 1_555 1_555
O2 C7 1_555 1_555
O3 C8 1_555 1_555
O4 C8 1_555 1_555
N1 Co1 1_555 1_555
N2 C14 1_555 1_555
C1 C2 1_555 1_555
C2 C3 1_555 1_555
C3 H1 1_555 1_555
C4 C3 1_555 1_555
C5 C4 1_555 1_555
H2 C5 1_555 1_555
C6 C1 1_555 1_555
H3 C6 1_555 1_555
C7 C2 1_555 1_555
C8 C4 1_555 1_555
C9 N1 1_555 1_555
H4 C9 1_555 1_555
C10 C9 1_555 1_555
H5 C10 1_555 1_555
C11 C10 1_555 1_555
C12 C11 1_555 1_555
H6 C12 1_555 1_555
C13 N1 1_555 1_555
H7 C13 1_555 1_555
C14 H8 1_555 1_555
C15 C14 1_555 1_555
H9 C15 1_555 1_555
C16 C15 1_555 1_555
C17 C16 1_555 1_555
H10 C17 1_555 1_555
C18 N2 1_555 1_555
H11 C18 1_555 1_555
S1 C11 1_555 1_555
Br1 C1 1_555 1_555
Co1_2 N2 1_555 1_555
Co1_3 O3 1_555 1_555
Co1B O1 1_555 1_555
O1B Co1 1_555 1_555
O3_2 Co1 1_555 1_555
O4_2 Co1 1_555 1_555
N2_2 Co1 1_555 1_555
O4 Co1_3 1_555 1_555
C5 C6 1_555 1_555
C12 C13 1_555 1_555
C16 S1 1_555 1_555
C17 C18 1_555 1_555
Co1B O1B 1_555 1_555

#END
