
#######################################################################
#
#                 Cambridge Crystallographic Data Centre
#                                CCDC 
#
#######################################################################
#
# If this CIF has been generated from an entry in the Cambridge 
# Structural Database, then it will include bibliographic, chemical, 
# crystal, experimental, refinement or atomic coordinate data resulting 
# from the CCDC's data processing and validation procedures.
#
#######################################################################

data_KEYJII
_symmetry_cell_setting           monoclinic
_symmetry_space_group_name_H-M   'P 21/c'
_symmetry_Int_Tables_number      14
_space_group_name_Hall           '-P 2ybc'
loop_
_symmetry_equiv_pos_site_id
_symmetry_equiv_pos_as_xyz
1 x,y,z
2 -x,1/2+y,1/2-z
3 -x,-y,-z
4 x,1/2-y,1/2+z
_cell_length_a                   10.3309(8)
_cell_length_b                   15.5639(11)
_cell_length_c                   17.5369(11)
_cell_angle_alpha                90
_cell_angle_beta                 95.430(4)
_cell_angle_gamma                90
_cell_volume                     2807.09
loop_
_atom_site_label
_atom_site_type_symbol
_atom_site_fract_x
_atom_site_fract_y
_atom_site_fract_z
U1 U 0.041313(15) 0.230248(10) 0.066618(9)
U2 U -0.427050(15) 0.267700(11) -0.201240(9)
F1 F 0.0866(3) 0.09461(17) 0.06500(16)
F2 F 0.1148(3) 0.35850(17) 0.08028(16)
F3 F 0.1285(3) 0.24554(18) -0.04240(16)
F4 F -0.4789(3) 0.40286(18) -0.20117(16)
F5 F -0.5035(3) 0.2559(2) -0.08823(17)
F6 F -0.5039(3) 0.13963(18) -0.22266(16)
O1 O -0.1099(3) 0.3278(2) -0.0140(2)
O2 O -0.1170(3) 0.1585(2) -0.0290(2)
O3 O -0.1086(3) 0.3156(2) 0.14523(19)
O4 O -0.1095(3) 0.1476(2) 0.14807(18)
O5 O 0.2913(3) 0.2186(2) 0.08478(19)
O6 O 0.1450(3) 0.2227(2) 0.20015(19)
O7 O -0.2678(3) 0.3407(2) -0.10922(19)
O8 O -0.2758(3) 0.1697(2) -0.12350(19)
O9 O -0.2809(3) 0.3188(2) 0.21373(19)
O10 O -0.2734(3) 0.1480(2) 0.22263(19)
O11 O 0.4710(3) 0.2177(2) 0.16531(19)
O12 O 0.3231(3) 0.2218(2) 0.28290(19)
C1 C -0.1906(4) 0.2987(3) -0.0649(3)
C2 C -0.1946(4) 0.2005(3) -0.0730(3)
C3 C -0.1961(4) 0.2815(3) 0.1807(3)
C4 C -0.1935(4) 0.1837(3) 0.1839(2)
C5 C 0.3493(4) 0.2188(3) 0.1492(3)
C6 C 0.2660(4) 0.2216(3) 0.2174(3)
U2C U -0.427050(15) 0.232300(11) 0.298760(9)
U2C_2 U 0.572950(15) 0.232300(11) 0.298760(9)
O9C O -0.2809(3) 0.1812(2) -0.28627(19)
O10C O -0.2734(3) 0.3520(2) -0.27737(19)
O11C O -0.5290(3) 0.2823(2) -0.33469(19)
O12C O -0.6769(3) 0.2782(2) -0.21710(19)
N1 N -0.2891(5) 0.0014(3) -0.0229(3)
H1 H -0.3097 0.0588 -0.0078
H2 H -0.3309 -0.0019 -0.0708
H3 H -0.2053 -0.0105 -0.0253
N2 N -0.0785(4) -0.0183(3) 0.1951(2)
H4 H -0.0891 0.0418 0.1853
N3 N 0.0596(4) -0.0118(3) 0.3460(3)
H5 H 0.0686 -0.0726 0.3559
N4 N 0.3460(4) 0.1400(3) 0.4891(3)
H6 H 0.2715 0.1591 0.4871
H7 H 0.3833 0.1290 0.5366
H8 H 0.4103 0.1801 0.4639
C7 C -0.3367(6) -0.0614(4) 0.0315(3)
H9 H -0.3117 -0.1188 0.0173
H10 H -0.4310 -0.0592 0.0280
C8 C -0.2837(6) -0.0438(4) 0.1121(3)
H11 H -0.3306 -0.0783 0.1465
H12 H -0.2977 0.0162 0.1239
C9 C -0.1399(6) -0.0639(4) 0.1256(3)
H13 H -0.1281 -0.1254 0.1322
H14 H -0.0971 -0.0465 0.0812
C10 C -0.1443(5) -0.0366(3) 0.2656(3)
H15 H -0.1399 -0.0976 0.2768
H16 H -0.2351 -0.0203 0.2574
C11 C 0.0633(5) -0.0378(4) 0.2084(3)
H17 H 0.1056 -0.0209 0.1636
H18 H 0.0751 -0.0992 0.2154
C12 C -0.0794(5) 0.0127(3) 0.3317(3)
H19 H -0.0860 0.0738 0.3209
H20 H -0.1233 0.0013 0.3772
C13 C 0.1259(5) 0.0086(3) 0.2776(3)
H21 H 0.2166 -0.0080 0.2862
H22 H 0.1223 0.0701 0.2685
C14 C 0.1183(6) 0.0283(4) 0.4197(4)
H23 H 0.1161 0.0902 0.4138
H24 H 0.0639 0.0138 0.4601
C15 C 0.2542(7) 0.0021(4) 0.4449(4)
H25 H 0.2588 -0.0141 0.4985
H26 H 0.2750 -0.0485 0.4162
C16 C 0.3522(7) 0.0669(4) 0.4359(4)
H27 H 0.3417 0.0882 0.3837
H28 H 0.4375 0.0406 0.4442
O13 O -0.0091(4) 0.2691(3) -0.1806(2)
H29 H 0.0533 0.2671 -0.2138
H30 H 0.0411 0.2632 -0.1309
O14 O 0.6098(4) 0.3329(3) 0.5375(2)
H31 H 0.5704 0.3329 0.4708
H32 H 0.5216 0.3142 0.5543
O15 O 0.6057(5) 0.5121(3) 0.3268(2)
H33 H 0.5520 0.5487 0.3005
H34 H 0.5861 0.4570 0.3072
O16 O 0.5717(6) -0.0645(3) 0.3657(3)
H35 H 0.5619 -0.0028 0.3497
H36 H 0.5649 -0.0792 0.3167
loop_
_geom_bond_atom_site_label_1
_geom_bond_atom_site_label_2
_geom_bond_site_symmetry_1
_geom_bond_site_symmetry_2
U1 F1 1_555 1_555
U2 F4 1_555 1_555
F2 U1 1_555 1_555
F3 U1 1_555 1_555
F5 U2 1_555 1_555
F6 U2 1_555 1_555
O1 U1 1_555 1_555
O2 U1 1_555 1_555
O3 U1 1_555 1_555
O4 U1 1_555 1_555
O5 U1 1_555 1_555
O6 U1 1_555 1_555
O7 U2 1_555 1_555
O8 U2 1_555 1_555
O9 C3 1_555 1_555
O10 C4 1_555 1_555
O11 C5 1_555 1_555
O12 C6 1_555 1_555
N1 H1 1_555 1_555
H2 N1 1_555 1_555
H3 N1 1_555 1_555
N2 H4 1_555 1_555
N3 H5 1_555 1_555
N4 H6 1_555 1_555
H7 N4 1_555 1_555
H8 N4 1_555 1_555
C1 O1 1_555 1_555
C2 O2 1_555 1_555
C3 O3 1_555 1_555
C4 O4 1_555 1_555
C5 O5 1_555 1_555
C6 O6 1_555 1_555
C7 N1 1_555 1_555
H9 C7 1_555 1_555
H10 C7 1_555 1_555
C8 C7 1_555 1_555
H11 C8 1_555 1_555
H12 C8 1_555 1_555
C9 N2 1_555 1_555
H13 C9 1_555 1_555
H14 C9 1_555 1_555
C10 N2 1_555 1_555
H15 C10 1_555 1_555
H16 C10 1_555 1_555
C11 N2 1_555 1_555
H17 C11 1_555 1_555
H18 C11 1_555 1_555
C12 N3 1_555 1_555
H19 C12 1_555 1_555
H20 C12 1_555 1_555
C13 N3 1_555 1_555
H21 C13 1_555 1_555
H22 C13 1_555 1_555
C14 N3 1_555 1_555
H23 C14 1_555 1_555
H24 C14 1_555 1_555
C15 C14 1_555 1_555
H25 C15 1_555 1_555
H26 C15 1_555 1_555
C16 N4 1_555 1_555
H27 C16 1_555 1_555
H28 C16 1_555 1_555
O13 H29 1_555 1_555
H30 O13 1_555 1_555
O14 H31 1_555 1_555
H32 O14 1_555 1_555
O15 H33 1_555 1_555
H34 O15 1_555 1_555
O16 H35 1_555 1_555
H36 O16 1_555 1_555
U2C O9 1_555 1_555
U2C_2 O11 1_555 1_555
O9C U2 1_555 1_555
O10C U2 1_555 1_555
O11C U2 1_555 1_555
O12C U2 1_555 1_555
O7 C1 1_555 1_555
O8 C2 1_555 1_555
O10 U2C 1_555 1_555
O12 U2C_2 1_555 1_555
C1 C2 1_555 1_555
C3 C4 1_555 1_555
C5 C6 1_555 1_555
C8 C9 1_555 1_555
C10 C12 1_555 1_555
C11 C13 1_555 1_555
C15 C16 1_555 1_555

#END
