
#######################################################################
#
#                 Cambridge Crystallographic Data Centre
#                                CCDC 
#
#######################################################################
#
# If this CIF has been generated from an entry in the Cambridge 
# Structural Database, then it will include bibliographic, chemical, 
# crystal, experimental, refinement or atomic coordinate data resulting 
# from the CCDC's data processing and validation procedures.
#
#######################################################################

data_KEYMAE
_symmetry_cell_setting           monoclinic
_symmetry_space_group_name_H-M   'P 21/n'
_symmetry_Int_Tables_number      14
_space_group_name_Hall           '-P 2yn'
loop_
_symmetry_equiv_pos_site_id
_symmetry_equiv_pos_as_xyz
1 x,y,z
2 1/2-x,1/2+y,1/2-z
3 -x,-y,-z
4 1/2+x,1/2-y,1/2+z
_cell_length_a                   7.6441(7)
_cell_length_b                   18.1243(17)
_cell_length_c                   16.7284(16)
_cell_angle_alpha                90
_cell_angle_beta                 93.5890(10)
_cell_angle_gamma                90
_cell_volume                     2313.07
loop_
_atom_site_label
_atom_site_type_symbol
_atom_site_fract_x
_atom_site_fract_y
_atom_site_fract_z
C1 C -0.2952(9) 0.8286(4) 0.6520(6)
H1 H -0.2407 0.8044 0.6989
H2 H -0.2331 0.8147 0.6055
C2 C -0.2945(8) 0.9098(4) 0.6625(6)
H3 H -0.3483 0.9236 0.7113
H4 H -0.3572 0.9338 0.6174
C3 C -0.0918(11) 0.9319(5) 0.6671(5)
H5 H -0.0192 0.8903 0.6536
H6 H -0.0703 0.9727 0.6316
C4 C -0.0587(9) 0.9535(4) 0.7527(5)
H7 H -0.0546 0.9104 0.7871
H8 H -0.1496 0.9864 0.7692
Co1 Co 0.40988(8) 1.18271(4) 0.78851(3)
O1 O 0.7558(5) 1.1068(3) 0.8215(2)
O2 O 0.5775(4) 1.18060(19) 0.88282(19)
O3 O 1.0155(5) 1.2579(2) 1.20381(18)
O4 O 0.7530(6) 1.2793(3) 1.1540(2)
N1 N -0.7277(5) 0.7466(2) 0.6630(2)
N2 N -0.4895(7) 0.8081(3) 0.6405(4)
N3 N 0.3172(5) 1.0799(2) 0.7725(2)
N4 N 0.1235(7) 0.9936(3) 0.7564(4)
C5 C 0.8454(5) 1.1485(3) 0.9513(2)
C6 C 1.0045(6) 1.1108(3) 0.9537(3)
H9 H 1.0278 1.0800 0.9111
C7 C 1.1288(6) 1.1174(3) 1.0167(3)
C8 C 1.0926(6) 1.1635(3) 1.0789(3)
H10 H 1.1759 1.1697 1.1213
C9 C 0.9348(6) 1.2011(3) 1.0796(2)
C10 C 0.8112(6) 1.1930(2) 1.0156(2)
H11 H 0.7047 1.2177 1.0161
C11 C 0.7187(6) 1.1436(3) 0.8798(3)
C12 C 0.8978(7) 1.2505(3) 1.1491(3)
C13 C 1.3010(7) 1.0766(4) 1.0175(4)
H12 H 1.3917 1.1099 1.0034
H13 H 1.2918 1.0369 0.9794
H14 H 1.3290 1.0570 1.0700
C14 C -0.7503(7) 0.7824(3) 0.5906(3)
H15 H -0.8503 0.7803 0.5560
C15 C -0.6051(9) 0.8207(3) 0.5779(4)
H16 H -0.5873 0.8506 0.5340
C16 C -0.5699(8) 0.7643(3) 0.6893(4)
H17 H -0.5185 0.7476 0.7378
C17 C 0.3903(7) 1.0151(3) 0.7985(4)
H18 H 0.5043 1.0094 0.8205
C18 C 0.2735(9) 0.9612(4) 0.7877(6)
H19 H 0.2906 0.9115 0.7991
C19 C 0.1543(7) 1.0642(3) 0.7483(4)
H20 H 0.0724 1.0985 0.7283
Co1A Co -0.90988(8) 0.68271(4) 0.71149(3)
Co1C Co 0.90988(8) 1.31729(4) 1.28851(3)
O3C O 0.5155(5) 1.2421(2) 0.70381(18)
N1A N 0.2277(5) 1.2466(2) 0.8370(2)
O5 O 0.5392(12) 0.3708(5) 0.0522(4)
H21 H 0.6057 0.3440 0.0826
H22 H 0.4530 0.3718 0.0818
O6 O 0.7485(11) 0.1296(6) 0.6515(5)
H23 H 0.6759 0.1612 0.6670
H24 H 0.8330 0.1270 0.6851
loop_
_geom_bond_atom_site_label_1
_geom_bond_atom_site_label_2
_geom_bond_site_symmetry_1
_geom_bond_site_symmetry_2
C1 H1 1_555 1_555
H2 C1 1_555 1_555
C2 C1 1_555 1_555
H3 C2 1_555 1_555
H4 C2 1_555 1_555
C3 C2 1_555 1_555
H5 C3 1_555 1_555
H6 C3 1_555 1_555
C4 C3 1_555 1_555
H7 C4 1_555 1_555
H8 C4 1_555 1_555
Co1 O2 1_555 1_555
O1 C11 1_555 1_555
O2 C11 1_555 1_555
O3 C12 1_555 1_555
O4 C12 1_555 1_555
N1 C14 1_555 1_555
N2 C1 1_555 1_555
N3 Co1 1_555 1_555
N4 C4 1_555 1_555
C5 C6 1_555 1_555
C6 H9 1_555 1_555
C7 C6 1_555 1_555
C8 C7 1_555 1_555
H10 C8 1_555 1_555
C9 C8 1_555 1_555
C10 C5 1_555 1_555
H11 C10 1_555 1_555
C11 C5 1_555 1_555
C12 C9 1_555 1_555
C13 C7 1_555 1_555
H12 C13 1_555 1_555
H13 C13 1_555 1_555
H14 C13 1_555 1_555
C14 H15 1_555 1_555
C15 N2 1_555 1_555
H16 C15 1_555 1_555
C16 N1 1_555 1_555
H17 C16 1_555 1_555
C17 N3 1_555 1_555
H18 C17 1_555 1_555
C18 N4 1_555 1_555
H19 C18 1_555 1_555
C19 N3 1_555 1_555
H20 C19 1_555 1_555
O5 H21 1_555 1_555
H22 O5 1_555 1_555
O6 H23 1_555 1_555
H24 O6 1_555 1_555
Co1A N1 1_555 1_555
Co1C O3 1_555 1_555
O3C Co1 1_555 1_555
N1A Co1 1_555 1_555
N2 C16 1_555 1_555
N4 C19 1_555 1_555
C9 C10 1_555 1_555
C14 C15 1_555 1_555
C17 C18 1_555 1_555

#END
