
#######################################################################
#
#                 Cambridge Crystallographic Data Centre
#                                CCDC 
#
#######################################################################
#
# If this CIF has been generated from an entry in the Cambridge 
# Structural Database, then it will include bibliographic, chemical, 
# crystal, experimental, refinement or atomic coordinate data resulting 
# from the CCDC's data processing and validation procedures.
#
#######################################################################

data_KEYMIM
_symmetry_cell_setting           triclinic
_symmetry_space_group_name_H-M   'P -1'
_symmetry_Int_Tables_number      2
_space_group_name_Hall           '-P 1'
loop_
_symmetry_equiv_pos_site_id
_symmetry_equiv_pos_as_xyz
1 x,y,z
2 -x,-y,-z
_cell_length_a                   6.9550(7)
_cell_length_b                   6.9973(7)
_cell_length_c                   12.8905(12)
_cell_angle_alpha                81.541(8)
_cell_angle_beta                 81.012(8)
_cell_angle_gamma                78.708(8)
_cell_volume                     603.222
loop_
_atom_site_label
_atom_site_type_symbol
_atom_site_fract_x
_atom_site_fract_y
_atom_site_fract_z
Bi1 Bi 0.02422(3) 0.88349(3) 0.858598(16)
O1 O -0.2661(6) 0.7581(5) 0.8604(3)
O2 O 0.2290(7) 1.1753(6) 0.5396(4)
O3 O 0.1166(6) 1.1137(6) 0.7118(3)
O4 O -0.5929(6) 0.8045(6) 0.8670(4)
O5 O -0.8868(6) 1.1477(6) 0.9426(3)
O6 O -0.8753(6) 1.4655(6) 0.8932(4)
O7 O 0.3862(9) 0.6554(8) 0.3608(4)
O8 O 0.3489(8) 0.9717(7) 0.3793(4)
H1 H 0.3053 1.0412 0.4266
N1 N -0.2522(7) 1.1313(6) 0.8573(4)
N2 N 0.0910(9) 0.7436(8) 0.6926(4)
N3 N 0.1893(9) 0.5671(8) 0.5623(4)
N4 N -0.4732(6) 1.3975(6) 0.8750(4)
C1 C -0.4345(8) 1.0786(8) 0.8705(4)
C2 C -0.5779(8) 1.2470(8) 0.8812(4)
C3 C -0.2794(9) 1.3244(8) 0.8605(5)
H2 H -0.1788 1.3974 0.8537
C4 C -0.4374(8) 0.8686(7) 0.8650(4)
C5 C -0.7935(9) 1.2927(8) 0.9064(4)
C6 C 0.1707(9) 0.8571(8) 0.6080(5)
C7 C 0.2374(10) 0.7487(9) 0.5244(5)
C8 C 0.1079(12) 0.5701(9) 0.6606(6)
H3 H 0.0668 0.4623 0.7030
C9 C 0.1725(9) 1.0640(9) 0.6190(5)
C10 C 0.3286(11) 0.7878(10) 0.4144(5)
H4 H 0.218(9) 0.453(9) 0.533(5)
Bi1_2 Bi -0.97578(3) 0.88349(3) 0.858598(16)
Bi1_3 Bi -0.97578(3) 1.88349(3) 0.858598(16)
Bi1A Bi -1.02422(3) 1.11651(3) 1.141402(16)
O4_2 O 0.4071(6) 0.8045(6) 0.8670(4)
O5_2 O 0.1132(6) 1.1477(6) 0.9426(3)
O5A O -0.1132(6) 0.8523(6) 1.0574(3)
O6_2 O 0.1247(6) 0.4655(6) 0.8932(4)
loop_
_geom_bond_atom_site_label_1
_geom_bond_atom_site_label_2
_geom_bond_site_symmetry_1
_geom_bond_site_symmetry_2
Bi1 O1 1_555 1_555
O1 C4 1_555 1_555
O2 C9 1_555 1_555
O3 Bi1 1_555 1_555
O4 C4 1_555 1_555
O5 C5 1_555 1_555
O6 C5 1_555 1_555
O7 C10 1_555 1_555
O8 H1 1_555 1_555
N1 Bi1 1_555 1_555
N2 Bi1 1_555 1_555
N3 C7 1_555 1_555
N4 C2 1_555 1_555
C1 N1 1_555 1_555
C2 C1 1_555 1_555
C3 N1 1_555 1_555
H2 C3 1_555 1_555
C4 C1 1_555 1_555
C5 C2 1_555 1_555
C6 N2 1_555 1_555
C7 C6 1_555 1_555
C8 N2 1_555 1_555
H3 C8 1_555 1_555
C9 O3 1_555 1_555
C10 O8 1_555 1_555
H4 N3 1_555 1_555
Bi1_2 O4 1_555 1_555
Bi1_3 O6 1_555 1_555
Bi1A O5 1_555 1_555
O4_2 Bi1 1_555 1_555
O5_2 Bi1 1_555 1_555
O5A Bi1 1_555 1_555
O6_2 Bi1 1_555 1_555
O5 Bi1_2 1_555 1_555
N3 C8 1_555 1_555
N4 C3 1_555 1_555
C6 C9 1_555 1_555
C7 C10 1_555 1_555

#END
