
#######################################################################
#
#                 Cambridge Crystallographic Data Centre
#                                CCDC 
#
#######################################################################
#
# If this CIF has been generated from an entry in the Cambridge 
# Structural Database, then it will include bibliographic, chemical, 
# crystal, experimental, refinement or atomic coordinate data resulting 
# from the CCDC's data processing and validation procedures.
#
#######################################################################

data_KEYMEI
_symmetry_cell_setting           triclinic
_symmetry_space_group_name_H-M   'P -1'
_symmetry_Int_Tables_number      2
_space_group_name_Hall           '-P 1'
loop_
_symmetry_equiv_pos_site_id
_symmetry_equiv_pos_as_xyz
1 x,y,z
2 -x,-y,-z
_cell_length_a                   7.2623(13)
_cell_length_b                   7.5389(12)
_cell_length_c                   8.1125(14)
_cell_angle_alpha                97.699(6)
_cell_angle_beta                 101.048(6)
_cell_angle_gamma                113.210(5)
_cell_volume                     389.69
loop_
_atom_site_label
_atom_site_type_symbol
_atom_site_fract_x
_atom_site_fract_y
_atom_site_fract_z
Bi1 Bi 0.35821(6) 0.24047(5) 0.02436(5)
O1 O 0.4055(11) 0.5472(10) 0.1005(9)
O2 O -0.3227(11) 0.3266(10) -0.7873(9)
O3 O 0.3097(13) 0.2584(12) -0.6930(11)
O4 O -0.4527(12) -0.0001(11) -0.8028(10)
O5 O 0.0018(13) 0.1858(12) -0.8685(10)
N1 N 0.1093(15) 0.2496(14) -0.2570(12)
C1 C -0.1635(17) 0.2109(14) -0.5718(13)
C2 C -0.2216(18) 0.2141(16) -0.4168(14)
H1 H -0.3523 0.2064 -0.4157
C3 C -0.0873(17) 0.2283(16) -0.2675(14)
H2 H -0.1328 0.2232 -0.1678
C4 C 0.1666(18) 0.2497(15) -0.4043(14)
H3 H 0.3004 0.2631 -0.4000
C5 C 0.0373(17) 0.2308(14) -0.5652(13)
C6 C -0.3239(17) 0.1719(16) -0.7349(13)
C7 C 0.1147(18) 0.2239(15) -0.7211(15)
Bi1_2 Bi -0.64179(6) 0.24047(5) -0.97564(5)
Bi1_3 Bi 0.35821(6) 0.24047(5) -0.97564(5)
Bi1A Bi -0.35821(6) -0.24047(5) -1.02436(5)
Bi1A_2 Bi 0.64179(6) 0.75953(5) -0.02436(5)
O1A O 0.5945(11) 0.4528(10) -0.1005(9)
O2_2 O 0.6773(11) 0.3266(10) 0.2127(9)
O3_2 O 0.3097(13) 0.2584(12) 0.3070(11)
O4A O 0.4527(12) 0.0001(11) -0.1972(10)
O5_2 O 0.0018(13) 0.1858(12) 0.1315(10)
loop_
_geom_bond_atom_site_label_1
_geom_bond_atom_site_label_2
_geom_bond_site_symmetry_1
_geom_bond_site_symmetry_2
Bi1 O1 1_555 1_555
O1 Bi1A_2 1_555 1_555
O2 C6 1_555 1_555
O3 C7 1_555 1_555
O4 C6 1_555 1_555
O5 C7 1_555 1_555
N1 Bi1 1_555 1_555
C1 C2 1_555 1_555
C2 H1 1_555 1_555
C3 N1 1_555 1_555
H2 C3 1_555 1_555
C4 N1 1_555 1_555
H3 C4 1_555 1_555
C5 C1 1_555 1_555
C6 C1 1_555 1_555
C7 C5 1_555 1_555
Bi1_2 O2 1_555 1_555
Bi1_3 O3 1_555 1_555
Bi1A O4 1_555 1_555
Bi1A_2 O1A 1_555 1_555
O1A Bi1 1_555 1_555
O2_2 Bi1 1_555 1_555
O3_2 Bi1 1_555 1_555
O4A Bi1 1_555 1_555
O5_2 Bi1 1_555 1_555
O5 Bi1_3 1_555 1_555
C2 C3 1_555 1_555
C4 C5 1_555 1_555

#END
