
#######################################################################
#
#                 Cambridge Crystallographic Data Centre
#                                CCDC 
#
#######################################################################
#
# If this CIF has been generated from an entry in the Cambridge 
# Structural Database, then it will include bibliographic, chemical, 
# crystal, experimental, refinement or atomic coordinate data resulting 
# from the CCDC's data processing and validation procedures.
#
#######################################################################

data_KEYNIN
_symmetry_cell_setting           monoclinic
_symmetry_space_group_name_H-M   'P 21/n'
_symmetry_Int_Tables_number      14
_space_group_name_Hall           '-P 2yn'
loop_
_symmetry_equiv_pos_site_id
_symmetry_equiv_pos_as_xyz
1 x,y,z
2 1/2-x,1/2+y,1/2-z
3 -x,-y,-z
4 1/2+x,1/2-y,1/2+z
_cell_length_a                   8.9500(9)
_cell_length_b                   20.627(2)
_cell_length_c                   11.0490(11)
_cell_angle_alpha                90
_cell_angle_beta                 103.6800(11)
_cell_angle_gamma                90
_cell_volume                     1981.91
loop_
_atom_site_label
_atom_site_type_symbol
_atom_site_fract_x
_atom_site_fract_y
_atom_site_fract_z
Co1 Co 0.63015(2) 0.387269(10) 0.87533(2)
O1 O 0.71767(18) 0.35849(7) 1.50923(12)
H1 H 0.7034 0.3437 1.5744
O2 O 0.21325(15) 0.17962(6) 1.24562(12)
N1 N 0.91473(16) 0.55138(7) 0.85629(12)
O3 O 0.49667(19) 0.30807(8) 0.96960(12)
O4 O 0.32966(19) 0.17557(7) 1.44257(13)
O5 O 0.60217(15) 0.39899(6) 1.05110(12)
C1 C 0.52886(18) 0.32278(8) 1.18774(15)
N2 N 0.76185(16) 0.47142(7) 0.88105(13)
C2 C 0.5256(2) 0.27777(8) 1.42383(15)
H2 H 0.5267 0.2616 1.5026
N3 N 0.76132(17) 0.58256(8) 0.41550(14)
C3 C 0.3179(2) 0.19911(8) 1.33636(16)
C4 C 0.6722(2) 0.61965(8) 0.32589(16)
C5 C 0.54017(19) 0.34446(9) 1.06054(16)
C6 C 0.62152(19) 0.32868(8) 1.41068(16)
N4 N 0.55896(16) 0.58435(7) 0.25790(14)
C7 C 0.87238(18) 0.48946(8) 0.82635(14)
C8 C 1.0302(2) 0.58973(9) 0.81243(16)
H3 H 1.0789 0.5625 0.7612
H4 H 1.1091 0.6040 0.8836
C9 C 0.43015(18) 0.27268(8) 1.20047(15)
H5 H 0.3664 0.2540 1.1304
C10 C 0.62237(19) 0.35137(8) 1.29227(16)
H6 H 0.6858 0.3858 1.2832
C11 C 0.7002(3) 0.68954(10) 0.30749(19)
H7 H 0.6124 0.7078 0.2505
H8 H 0.7167 0.7117 0.3860
H9 H 0.7894 0.6943 0.2741
C12 C 0.42752(18) 0.25073(7) 1.31912(15)
C13 C 0.8897(2) 0.60451(10) 0.51629(17)
H10 H 0.9490 0.6369 0.4843
H11 H 0.9570 0.5682 0.5465
C14 C 0.8276(2) 0.57350(9) 0.93476(17)
H12 H 0.8319 0.6144 0.9707
C15 C 0.7351(2) 0.52437(9) 0.94939(18)
H13 H 0.6636 0.5258 0.9983
C16 C 0.9434(3) 0.44747(10) 0.74588(19)
H14 H 0.9187 0.4030 0.7573
H15 H 1.0530 0.4530 0.7682
H16 H 0.9045 0.4594 0.6602
C17 C 0.9597(2) 0.64858(9) 0.73732(17)
H17 H 1.0404 0.6719 0.7106
H18 H 0.9189 0.6772 0.7913
C18 C 0.7010(3) 0.52123(10) 0.4046(2)
H19 H 0.7382 0.4856 0.4543
C19 C 0.8318(2) 0.63311(10) 0.62295(17)
H20 H 0.7608 0.6028 0.6465
H21 H 0.7753 0.6726 0.5946
C20 C 0.5771(2) 0.52268(9) 0.3076(2)
H22 H 0.5136 0.4875 0.2786
Co1B Co 0.36985(2) 0.612731(10) 0.12467(2)
Co1C Co 0.13015(2) 0.112731(10) 1.37533(2)
O2C O 0.71325(15) 0.32038(6) 0.74562(12)
O4C O 0.82966(19) 0.32443(7) 0.94257(13)
N4B N 0.44104(16) 0.41565(7) 0.74210(14)
loop_
_geom_bond_atom_site_label_1
_geom_bond_atom_site_label_2
_geom_bond_site_symmetry_1
_geom_bond_site_symmetry_2
Co1 O3 1_555 1_555
O1 H1 1_555 1_555
O2 C3 1_555 1_555
N1 C7 1_555 1_555
O3 C5 1_555 1_555
O4 C3 1_555 1_555
O5 Co1 1_555 1_555
C1 C5 1_555 1_555
N2 Co1 1_555 1_555
C2 H2 1_555 1_555
N3 C4 1_555 1_555
C3 C12 1_555 1_555
C4 N4 1_555 1_555
C5 O5 1_555 1_555
C6 O1 1_555 1_555
N4 C20 1_555 1_555
C7 N2 1_555 1_555
C8 N1 1_555 1_555
H3 C8 1_555 1_555
H4 C8 1_555 1_555
C9 C1 1_555 1_555
H5 C9 1_555 1_555
C10 C1 1_555 1_555
H6 C10 1_555 1_555
C11 C4 1_555 1_555
H7 C11 1_555 1_555
H8 C11 1_555 1_555
H9 C11 1_555 1_555
C12 C2 1_555 1_555
C13 N3 1_555 1_555
H10 C13 1_555 1_555
H11 C13 1_555 1_555
C14 N1 1_555 1_555
H12 C14 1_555 1_555
C15 N2 1_555 1_555
H13 C15 1_555 1_555
C16 C7 1_555 1_555
H14 C16 1_555 1_555
H15 C16 1_555 1_555
H16 C16 1_555 1_555
C17 C8 1_555 1_555
H17 C17 1_555 1_555
H18 C17 1_555 1_555
C18 N3 1_555 1_555
H19 C18 1_555 1_555
C19 C13 1_555 1_555
H20 C19 1_555 1_555
H21 C19 1_555 1_555
C20 C18 1_555 1_555
H22 C20 1_555 1_555
Co1B N4 1_555 1_555
Co1C O2 1_555 1_555
O2C Co1 1_555 1_555
O4C Co1 1_555 1_555
N4B Co1 1_555 1_555
O4 Co1C 1_555 1_555
C2 C6 1_555 1_555
C6 C10 1_555 1_555
C9 C12 1_555 1_555
C14 C15 1_555 1_555
C17 C19 1_555 1_555

#END
