
#######################################################################
#
#                 Cambridge Crystallographic Data Centre
#                                CCDC 
#
#######################################################################
#
# If this CIF has been generated from an entry in the Cambridge 
# Structural Database, then it will include bibliographic, chemical, 
# crystal, experimental, refinement or atomic coordinate data resulting 
# from the CCDC's data processing and validation procedures.
#
#######################################################################

data_KEYNAF
_symmetry_cell_setting           orthorhombic
_symmetry_space_group_name_H-M   'F d d 2'
_symmetry_Int_Tables_number      43
_space_group_name_Hall           'F 2 -2d'
loop_
_symmetry_equiv_pos_site_id
_symmetry_equiv_pos_as_xyz
1 x,y,z
2 -x,-y,z
3 1/4+x,1/4-y,1/4+z
4 1/4-x,1/4+y,1/4+z
5 x,1/2+y,1/2+z
6 -x,1/2-y,1/2+z
7 1/4+x,3/4-y,3/4+z
8 1/4-x,3/4+y,3/4+z
9 1/2+x,y,1/2+z
10 1/2-x,-y,1/2+z
11 3/4+x,1/4-y,3/4+z
12 3/4-x,1/4+y,3/4+z
13 1/2+x,1/2+y,z
14 1/2-x,1/2-y,z
15 3/4+x,3/4-y,1/4+z
16 3/4-x,3/4+y,1/4+z
_cell_length_a                   13.3441(10)
_cell_length_b                   43.503(5)
_cell_length_c                   13.1326(10)
_cell_angle_alpha                90
_cell_angle_beta                 90
_cell_angle_gamma                90
_cell_volume                     7623.58
loop_
_atom_site_label
_atom_site_type_symbol
_atom_site_fract_x
_atom_site_fract_y
_atom_site_fract_z
Na1 Na -0.17693(19) 0.33122(7) 0.54200(19)
Na2 Na -0.2500 0.2500 0.4098(3)
O9 O 0.2436(12) 0.1746(4) 0.3349(14)
N3 N 0.2500 0.2500 0.501(2)
C15 C 0.340(2) 0.2334(7) 0.522(2)
H7 H 0.3494 0.2318 0.5947
H8 H 0.3961 0.2441 0.4929
H9 H 0.3356 0.2132 0.4935
C16 C 0.2500 0.2500 0.380(3)
C15M C 0.160(2) 0.2666(7) 0.522(2)
H7M H 0.1506 0.2682 0.5947
H8M H 0.1039 0.2559 0.4929
H9M H 0.1644 0.2868 0.4935
Cd1 Cd 0.07387(3) 0.147112(10) 0.81813(4)
O1 O 0.5128(4) 0.16182(14) 0.4895(4)
O2 O 0.4258(5) 0.12837(15) 0.4023(4)
O3 O 0.2044(3) 0.18165(11) 0.8637(3)
O4 O 0.3206(4) 0.21154(13) 0.7934(5)
O5 O -0.1546(4) 0.27284(13) 0.5348(4)
O6 O -0.1251(5) 0.29783(13) 0.6785(5)
O7 O -0.1533(3) 0.15647(11) 0.5748(5)
O8 O -0.0447(4) 0.13595(11) 0.6822(4)
N1 N 0.2001(4) 0.14560(13) 0.6970(4)
N2 N -0.0001(4) 0.19266(14) 0.7587(4)
C1 C 0.2010(6) 0.1260(2) 0.6201(6)
H1 H 0.1476 0.1125 0.6129
C2 C 0.2791(6) 0.1249(2) 0.5487(6)
H2 H 0.2782 0.1107 0.4958
C3 C 0.3561(5) 0.14517(16) 0.5591(6)
C4 C 0.3555(5) 0.16584(17) 0.6377(5)
H3 H 0.4075 0.1799 0.6448
C5 C 0.2761(5) 0.16564(15) 0.7074(5)
C6 C 0.4378(5) 0.14530(17) 0.4789(6)
C7 C 0.2679(5) 0.18802(16) 0.7952(5)
C8 C 0.0222(5) 0.22040(16) 0.7954(5)
H4 H 0.0650 0.2217 0.8511
C9 C -0.0156(6) 0.24727(19) 0.7542(6)
H5 H 0.0013 0.2662 0.7823
C10 C -0.0793(5) 0.24575(16) 0.6699(5)
C11 C -0.1023(5) 0.21646(16) 0.6320(5)
H6 H -0.1444 0.2143 0.5760
C12 C -0.0621(5) 0.19113(15) 0.6783(5)
C13 C -0.1237(5) 0.27458(19) 0.6232(6)
C14 C -0.0883(5) 0.15896(17) 0.6426(5)
Cd1H Cd 0.57387(3) 0.147112(10) 0.31813(4)
Cd1J Cd -0.17613(3) 0.102888(10) 0.56813(4)
O1H O 0.0128(4) 0.16182(14) 0.9895(4)
O2H O -0.0742(5) 0.12837(15) 0.9023(4)
O7B O 0.0967(3) 0.09353(11) 0.8248(5)
O8B O 0.2053(4) 0.11405(11) 0.9322(4)
H10? H 0.2559 0.2293 0.3556
H11? H 0.3056 0.2619 0.3556
H12? H 0.1885 0.2588 0.3556
loop_
_geom_bond_atom_site_label_1
_geom_bond_atom_site_label_2
_geom_bond_site_symmetry_1
_geom_bond_site_symmetry_2
Cd1 O3 1_555 1_555
O1 C6 1_555 1_555
O2 C6 1_555 1_555
O3 C7 1_555 1_555
O4 C7 1_555 1_555
O5 C13 1_555 1_555
O6 C13 1_555 1_555
O7 C14 1_555 1_555
O8 Cd1 1_555 1_555
N1 Cd1 1_555 1_555
N2 Cd1 1_555 1_555
C1 N1 1_555 1_555
H1 C1 1_555 1_555
C2 C1 1_555 1_555
H2 C2 1_555 1_555
C3 C2 1_555 1_555
C4 C3 1_555 1_555
H3 C4 1_555 1_555
C5 N1 1_555 1_555
C6 C3 1_555 1_555
C7 C5 1_555 1_555
C8 N2 1_555 1_555
H4 C8 1_555 1_555
C9 C8 1_555 1_555
H5 C9 1_555 1_555
C10 C9 1_555 1_555
C11 C10 1_555 1_555
H6 C11 1_555 1_555
C12 N2 1_555 1_555
C13 C10 1_555 1_555
C14 O8 1_555 1_555
N3 C15 1_555 1_555
C15 H7 1_555 1_555
H8 C15 1_555 1_555
H9 C15 1_555 1_555
C16 N3 1_555 1_555
Cd1H O1 1_555 1_555
Cd1J O7 1_555 1_555
O1H Cd1 1_555 1_555
O2H Cd1 1_555 1_555
O7B Cd1 1_555 1_555
O8B Cd1 1_555 1_555
C15M N3 1_555 1_555
H7M C15M 1_555 1_555
H8M C15M 1_555 1_555
H9M C15M 1_555 1_555
O2 Cd1H 1_555 1_555
O8 Cd1J 1_555 1_555
C4 C5 1_555 1_555
C11 C12 1_555 1_555
C12 C14 1_555 1_555

#END
