
#######################################################################
#
#                 Cambridge Crystallographic Data Centre
#                                CCDC 
#
#######################################################################
#
# If this CIF has been generated from an entry in the Cambridge 
# Structural Database, then it will include bibliographic, chemical, 
# crystal, experimental, refinement or atomic coordinate data resulting 
# from the CCDC's data processing and validation procedures.
#
#######################################################################

data_KEYNEJ
_symmetry_cell_setting           orthorhombic
_symmetry_space_group_name_H-M   'P n n a'
_symmetry_Int_Tables_number      52
_space_group_name_Hall           '-P 2a 2bc'
loop_
_symmetry_equiv_pos_site_id
_symmetry_equiv_pos_as_xyz
1 x,y,z
2 1/2-x,-y,z
3 x,1/2-y,1/2-z
4 1/2-x,1/2+y,1/2-z
5 -x,-y,-z
6 1/2+x,y,-z
7 -x,1/2+y,1/2+z
8 1/2+x,1/2-y,1/2+z
_cell_length_a                   8.6200(8)
_cell_length_b                   17.5110(16)
_cell_length_c                   14.8800(13)
_cell_angle_alpha                90
_cell_angle_beta                 90
_cell_angle_gamma                90
_cell_volume                     2246.06
loop_
_atom_site_label
_atom_site_type_symbol
_atom_site_fract_x
_atom_site_fract_y
_atom_site_fract_z
Co1 Co 0.09792(3) 0.2500 0.7500
O1 O -0.01729(16) 0.16869(7) 0.80876(9)
N1 N 0.41284(16) 0.33573(8) 0.93646(10)
N2 N 0.24105(16) 0.27637(8) 0.85317(9)
C1 C -0.1736(2) 0.05819(10) 0.81172(11)
C2 C -0.2500 0.0000 0.76597(15)
H1 H -0.2500 0.0000 0.7035
C3 C 0.3449(2) 0.33226(10) 0.85473(11)
C4 C 0.3490(2) 0.27948(11) 0.98880(12)
H2 H 0.3733 0.2686 1.0483
C5 C 0.2442(2) 0.24298(9) 0.93696(12)
H3 H 0.1837 0.2018 0.9550
N3 N -0.2500 0.0000 1.04836(16)
C6 C -0.1731(2) 0.05800(10) 0.90528(11)
H4 H -0.1222 0.0961 0.9374
C7 C 0.5241(2) 0.39422(10) 0.96581(13)
H5 H 0.6024 0.4012 0.9197
H6 H 0.5758 0.3771 1.0201
C8 C -0.2500 0.0000 0.94891(16)
C9 C -0.0919(2) 0.12075(12) 0.76064(12)
C10 C 0.4436(2) 0.46976(10) 0.98380(13)
H7 H 0.3938 0.4873 0.9291
H8 H 0.3636 0.4623 1.0288
O2 O -0.1005(2) 0.12302(11) 0.67873(10)
C11 C 0.3820(3) 0.38270(15) 0.77742(16)
H9 H 0.3090 0.3738 0.7298
H10 H 0.4849 0.3718 0.7564
H11 H 0.3760 0.4351 0.7960
O3 O -0.1675(3) 0.04573(13) 1.08619(11)
O1A O -0.48271(16) -0.16869(7) 0.80876(9)
C1A C -0.3264(2) -0.05819(10) 0.81172(11)
C6A C -0.3269(2) -0.05800(10) 0.90528(11)
H4A H -0.3778 -0.0961 0.9374
C9A C -0.4081(2) -0.12075(12) 0.76064(12)
O2A O -0.3995(2) -0.12302(11) 0.67873(10)
O3A O -0.3325(3) -0.04573(13) 1.08619(11)
N1D N 0.58716(16) 0.66427(8) 1.06354(10)
N2D N 0.75895(16) 0.72363(8) 1.14683(9)
C3D C 0.6551(2) 0.66774(10) 1.14527(11)
C4D C 0.6510(2) 0.72052(11) 1.01120(12)
H2D H 0.6267 0.7314 0.9517
C5D C 0.7558(2) 0.75702(9) 1.06304(12)
H3D H 0.8163 0.7982 1.0450
C7D C 0.4759(2) 0.60578(10) 1.03419(13)
H5D H 0.3976 0.5988 1.0803
H6D H 0.4242 0.6229 0.9799
C10D C 0.5564(2) 0.53024(10) 1.01620(13)
H7D H 0.6062 0.5127 1.0709
H8D H 0.6364 0.5377 0.9712
C11D C 0.6180(3) 0.61730(15) 1.22258(16)
H9D H 0.6910 0.6262 1.2702
H10D H 0.5151 0.6282 1.2436
H11D H 0.6240 0.5649 1.2040
Co1A Co -0.59792(3) -0.2500 0.7500
Co1D Co 0.90208(3) 0.7500 1.2500
O1B O -0.01729(16) 0.33131(7) 0.69124(9)
N2B N 0.24105(16) 0.22363(8) 0.64683(9)
loop_
_geom_bond_atom_site_label_1
_geom_bond_atom_site_label_2
_geom_bond_site_symmetry_1
_geom_bond_site_symmetry_2
Co1 O1 1_555 1_555
O1 C9 1_555 1_555
N1 C3 1_555 1_555
N2 Co1 1_555 1_555
C1 C2 1_555 1_555
C2 H1 1_555 1_555
C3 N2 1_555 1_555
C4 N1 1_555 1_555
H2 C4 1_555 1_555
C5 N2 1_555 1_555
H3 C5 1_555 1_555
N3 C8 1_555 1_555
C6 C1 1_555 1_555
H4 C6 1_555 1_555
C7 N1 1_555 1_555
H5 C7 1_555 1_555
H6 C7 1_555 1_555
C8 C6 1_555 1_555
C9 C1 1_555 1_555
C10 C7 1_555 1_555
H7 C10 1_555 1_555
H8 C10 1_555 1_555
O2 C9 1_555 1_555
C11 C3 1_555 1_555
H9 C11 1_555 1_555
H10 C11 1_555 1_555
H11 C11 1_555 1_555
O3 N3 1_555 1_555
O1A C9A 1_555 1_555
C1A C2 1_555 1_555
C6A C8 1_555 1_555
H4A C6A 1_555 1_555
C9A C1A 1_555 1_555
O2A C9A 1_555 1_555
O3A N3 1_555 1_555
N1D C3D 1_555 1_555
N2D C3D 1_555 1_555
C3D C11D 1_555 1_555
C4D N1D 1_555 1_555
H2D C4D 1_555 1_555
C5D N2D 1_555 1_555
H3D C5D 1_555 1_555
C7D N1D 1_555 1_555
H5D C7D 1_555 1_555
H6D C7D 1_555 1_555
C10D C10 1_555 1_555
H7D C10D 1_555 1_555
H8D C10D 1_555 1_555
C11D H9D 1_555 1_555
H10D C11D 1_555 1_555
H11D C11D 1_555 1_555
Co1A O1A 1_555 1_555
Co1D N2D 1_555 1_555
O1B Co1 1_555 1_555
N2B Co1 1_555 1_555
C4 C5 1_555 1_555
C1A C6A 1_555 1_555
C4D C5D 1_555 1_555
C7D C10D 1_555 1_555

#END
