
#######################################################################
#
#                 Cambridge Crystallographic Data Centre
#                                CCDC 
#
#######################################################################
#
# If this CIF has been generated from an entry in the Cambridge 
# Structural Database, then it will include bibliographic, chemical, 
# crystal, experimental, refinement or atomic coordinate data resulting 
# from the CCDC's data processing and validation procedures.
#
#######################################################################

data_KEYPEK
_symmetry_cell_setting           monoclinic
_symmetry_space_group_name_H-M   'P c'
_symmetry_Int_Tables_number      7
_space_group_name_Hall           'P -2yc'
loop_
_symmetry_equiv_pos_site_id
_symmetry_equiv_pos_as_xyz
1 x,y,z
2 x,-y,1/2+z
_cell_length_a                   21.380(2)
_cell_length_b                   5.9076(7)
_cell_length_c                   8.1215(9)
_cell_angle_alpha                90
_cell_angle_beta                 95.985(9)
_cell_angle_gamma                90
_cell_volume                     1020.19
loop_
_atom_site_label
_atom_site_type_symbol
_atom_site_fract_x
_atom_site_fract_y
_atom_site_fract_z
Zn1 Zn 0.76165(3) 1.03785(9) 0.17707(5)
O1 O 0.74241(16) 0.8942(6) 0.4358(5)
C1 C 0.5363(2) 0.7412(8) 0.3495(6)
O2 O 0.81063(18) 0.6871(7) 0.1062(5)
C2 C 0.4490(3) 0.5320(10) 0.1575(8)
H1 H 0.4734 0.4088 0.1328
N1 N 0.4730(2) 1.0313(8) 0.4021(6)
H2 H 0.4608 1.1561 0.4427
O3 O 0.85572(18) 0.9972(8) 0.2053(6)
N2 N 1.1152(2) 0.4454(9) 0.1972(7)
H3 H 1.1329 0.3262 0.1630
C3 C 0.8608(3) 0.7974(14) 0.1535(8)
C4 C 0.5326(3) 0.9410(10) 0.4309(7)
H4 H 0.5657 1.0076 0.4970
O4 O 0.7609(2) 1.3496(7) 0.2804(5)
C5 C 0.6515(2) 0.6607(9) 0.4489(6)
H5 H 0.6413 0.7381 0.5480
H6 H 0.6761 0.5280 0.4842
C6 C 0.5896(2) 0.5804(8) 0.3525(7)
H7 H 0.5975 0.5490 0.2393
H8 H 0.5772 0.4392 0.4007
C7 C 0.4749(2) 0.7054(8) 0.2623(6)
C8 C 0.6920(2) 0.8141(8) 0.3589(6)
C9 C 1.1449(3) 0.6121(11) 0.2914(8)
C10 C 1.0399(3) 0.7010(9) 0.2397(7)
C11 C 0.3490(3) 0.7330(11) 0.1294(7)
H9 H 0.3071 0.7394 0.0853
C12 C 0.9785(3) 0.8221(11) 0.2380(8)
H10 H 0.9818 0.9678 0.1845
H11 H 0.9699 0.8498 0.3513
C13 C 1.0531(3) 0.4967(13) 0.1656(9)
H12 H 1.0236 0.4077 0.1033
C14 C 0.4364(3) 0.8900(9) 0.2979(7)
C15 C 0.3877(3) 0.5468(11) 0.0924(9)
H13 H 0.3708 0.4329 0.0223
C16 C 1.0982(2) 0.7757(9) 0.3209(6)
O5 O 0.68019(18) 0.8601(7) 0.2075(5)
C17 C 1.1796(3) 0.9802(11) 0.4817(8)
H14 H 1.1924 1.1044 0.5471
C18 C 0.3746(3) 0.9036(10) 0.2315(8)
H15 H 0.3501 1.0272 0.2553
C19 C 1.2069(3) 0.6281(11) 0.3559(7)
H16 H 1.2359 0.5168 0.3357
C20 C 1.2243(3) 0.8136(11) 0.4509(9)
H17 H 1.2659 0.8300 0.4955
C21 C 1.1176(3) 0.9631(10) 0.4174(7)
H18 H 1.0890 1.0754 0.4380
C22 C 0.9229(3) 0.6899(12) 0.1477(8)
H19 H 0.9304 0.6712 0.0327
H20 H 0.9217 0.5401 0.1963
H21 H 0.780(3) 1.373(13) 0.372(4)
H22 H 0.781(3) 1.433(10) 0.224(8)
Zn1A Zn 0.76165(3) 0.96215(9) 0.67707(5)
O1A O 0.74241(16) 1.1058(6) -0.0642(5)
loop_
_geom_bond_atom_site_label_1
_geom_bond_atom_site_label_2
_geom_bond_site_symmetry_1
_geom_bond_site_symmetry_2
Zn1 O1 1_555 1_555
O1 C8 1_555 1_555
C1 C4 1_555 1_555
O2 Zn1 1_555 1_555
C2 H1 1_555 1_555
N1 H2 1_555 1_555
O3 Zn1 1_555 1_555
N2 H3 1_555 1_555
C3 O2 1_555 1_555
C4 N1 1_555 1_555
H4 C4 1_555 1_555
O4 Zn1 1_555 1_555
C5 H5 1_555 1_555
H6 C5 1_555 1_555
C6 C1 1_555 1_555
H7 C6 1_555 1_555
H8 C6 1_555 1_555
C7 C1 1_555 1_555
C8 C5 1_555 1_555
C9 N2 1_555 1_555
C10 C12 1_555 1_555
C11 H9 1_555 1_555
C12 H10 1_555 1_555
H11 C12 1_555 1_555
C13 N2 1_555 1_555
H12 C13 1_555 1_555
C14 N1 1_555 1_555
C15 C2 1_555 1_555
H13 C15 1_555 1_555
C16 C9 1_555 1_555
O5 Zn1 1_555 1_555
C17 H14 1_555 1_555
C18 C11 1_555 1_555
H15 C18 1_555 1_555
C19 C9 1_555 1_555
H16 C19 1_555 1_555
C20 C17 1_555 1_555
H17 C20 1_555 1_555
C21 C16 1_555 1_555
H18 C21 1_555 1_555
C22 C3 1_555 1_555
H19 C22 1_555 1_555
H20 C22 1_555 1_555
H21 O4 1_555 1_555
H22 O4 1_555 1_555
Zn1A O1 1_555 1_555
O1A Zn1 1_555 1_555
C2 C7 1_555 1_555
O3 C3 1_555 1_555
C5 C6 1_555 1_555
C7 C14 1_555 1_555
C8 O5 1_555 1_555
C10 C13 1_555 1_555
C10 C16 1_555 1_555
C11 C15 1_555 1_555
C12 C22 1_555 1_555
C14 C18 1_555 1_555
C17 C21 1_555 1_555
C19 C20 1_555 1_555

#END
