
#######################################################################
#
#                 Cambridge Crystallographic Data Centre
#                                CCDC 
#
#######################################################################
#
# If this CIF has been generated from an entry in the Cambridge 
# Structural Database, then it will include bibliographic, chemical, 
# crystal, experimental, refinement or atomic coordinate data resulting 
# from the CCDC's data processing and validation procedures.
#
#######################################################################

data_KEYPOT01
_symmetry_cell_setting           orthorhombic
_symmetry_space_group_name_H-M   'P n a 21'
_symmetry_Int_Tables_number      33
_space_group_name_Hall           'P 2c -2n'
loop_
_symmetry_equiv_pos_site_id
_symmetry_equiv_pos_as_xyz
1 x,y,z
2 -x,-y,1/2+z
3 1/2+x,1/2-y,z
4 1/2-x,1/2+y,1/2+z
_cell_length_a                   9.6742(19)
_cell_length_b                   9.2887(19)
_cell_length_c                   13.921(3)
_cell_angle_alpha                90
_cell_angle_beta                 90
_cell_angle_gamma                90
_cell_volume                     1250.95
loop_
_atom_site_label
_atom_site_type_symbol
_atom_site_fract_x
_atom_site_fract_y
_atom_site_fract_z
O1 O 0.79515(19) 0.1381(2) 0.85096(13)
O2 O 0.73108(18) 0.2521(2) 0.67945(16)
O3 O 0.93197(18) 0.3717(2) 0.67792(14)
O4 O 0.99169(18) 0.2633(2) 0.85308(14)
N1 N 0.7003(2) -0.0945(2) 0.67985(17)
N2 N 0.5483(2) -0.1079(2) 0.84028(17)
Mn1 Mn 0.61595(3) 0.09404(3) 0.76385(4)
C1 C 0.7812(3) -0.0817(4) 0.6020(2)
H1 H 0.8031 0.0101 0.5802
C2 C 0.8328(4) -0.1985(5) 0.5533(2)
H2 H 0.8900 -0.1858 0.5003
C3 C 0.7987(4) -0.3343(4) 0.5842(3)
H3 H 0.8301 -0.4151 0.5514
C4 C 0.7176(4) -0.3488(4) 0.6644(3)
H4 H 0.6948 -0.4398 0.6872
C5 C 0.6697(3) -0.2271(3) 0.7113(2)
C6 C 0.5822(3) -0.2350(3) 0.7997(2)
C7 C 0.5365(4) -0.3633(4) 0.8383(3)
H5 H 0.5588 -0.4501 0.8088
C8 C 0.4572(4) -0.3623(4) 0.9213(3)
H6 H 0.4268 -0.4485 0.9481
C9 C 0.4240(4) -0.2343(4) 0.9635(3)
H7 H 0.3714 -0.2311 1.0194
C10 C 0.4715(4) -0.1086(4) 0.9201(2)
H8 H 0.4487 -0.0208 0.9481
C11 C 0.8447(3) 0.2884(3) 0.71479(19)
C12 C 0.8799(2) 0.2244(3) 0.8150(2)
O3B O 0.43197(18) 0.1283(2) 0.67792(14)
O4B O 0.49169(18) 0.2367(2) 0.85308(14)
Mn1B Mn 1.11595(3) 0.40596(3) 0.76385(4)
loop_
_geom_bond_atom_site_label_1
_geom_bond_atom_site_label_2
_geom_bond_site_symmetry_1
_geom_bond_site_symmetry_2
O1 Mn1 1_555 1_555
O2 Mn1 1_555 1_555
O3 C11 1_555 1_555
O4 C12 1_555 1_555
N1 Mn1 1_555 1_555
N2 Mn1 1_555 1_555
Mn1 O3B 1_555 1_555
C1 N1 1_555 1_555
H1 C1 1_555 1_555
C2 C1 1_555 1_555
H2 C2 1_555 1_555
C3 C2 1_555 1_555
H3 C3 1_555 1_555
C4 C3 1_555 1_555
H4 C4 1_555 1_555
C5 N1 1_555 1_555
C6 N2 1_555 1_555
C7 C6 1_555 1_555
H5 C7 1_555 1_555
C8 C7 1_555 1_555
H6 C8 1_555 1_555
C9 C8 1_555 1_555
H7 C9 1_555 1_555
C10 N2 1_555 1_555
H8 C10 1_555 1_555
C11 O2 1_555 1_555
C12 O1 1_555 1_555
O4B Mn1 1_555 1_555
Mn1B O3 1_555 1_555
O4 Mn1B 1_555 1_555
C4 C5 1_555 1_555
C5 C6 1_555 1_555
C9 C10 1_555 1_555
C11 C12 1_555 1_555

#END
