
#######################################################################
#
#                 Cambridge Crystallographic Data Centre
#                                CCDC 
#
#######################################################################
#
# If this CIF has been generated from an entry in the Cambridge 
# Structural Database, then it will include bibliographic, chemical, 
# crystal, experimental, refinement or atomic coordinate data resulting 
# from the CCDC's data processing and validation procedures.
#
#######################################################################

data_KEYSEO
_symmetry_cell_setting           tetragonal
_symmetry_space_group_name_H-M   'P 43 21 2'
_symmetry_Int_Tables_number      96
_space_group_name_Hall           'P 4nw 2abw'
loop_
_symmetry_equiv_pos_site_id
_symmetry_equiv_pos_as_xyz
1 x,y,z
2 -x,-y,1/2+z
3 1/2-y,1/2+x,3/4+z
4 1/2+y,1/2-x,1/4+z
5 1/2-x,1/2+y,3/4-z
6 1/2+x,1/2-y,1/4-z
7 y,x,-z
8 -y,-x,1/2-z
_cell_length_a                   9.4085(10)
_cell_length_b                   9.4085(10)
_cell_length_c                   13.0286(14)
_cell_angle_alpha                90
_cell_angle_beta                 90
_cell_angle_gamma                90
_cell_volume                     1153.29
loop_
_atom_site_label
_atom_site_type_symbol
_atom_site_fract_x
_atom_site_fract_y
_atom_site_fract_z
Zn1 Zn 0.33589(4) 0.66411(4) 0.2500
N1 N 0.2695(3) 0.7802(3) 0.3695(2)
N2 N 0.2017(4) 0.7274(3) 0.4537(3)
N3 N 0.2002(3) 0.9628(3) 0.4618(2)
C1 C 0.1619(4) 0.8390(3) 0.5063(2)
C2 C 0.2665(4) 0.9196(4) 0.3766(3)
H1 H 0.3057 0.9808 0.3282
C3 C 0.0800(8) 0.8322(6) 0.6055(4)
H2 H 0.1347 0.8798 0.6584
H3 H -0.0082 0.8841 0.5971
C4 C 0.0466(8) 0.6873(6) 0.6408(4)
H4 H -0.0090 0.6922 0.7025
H5 H 0.1333 0.6369 0.6543
H6 H -0.0062 0.6384 0.5886
N1G N 0.2198(3) 0.7305(3) 0.1305(2)
N2G N 0.2726(3) 0.7983(4) 0.0463(3)
N3G N 0.0372(3) 0.7998(3) 0.0382(2)
C1G C 0.1610(3) 0.8381(4) -0.0063(2)
C2G C 0.0804(4) 0.7335(4) 0.1234(3)
H1G H 0.0192 0.6943 0.1718
C3G C 0.1678(6) 0.9200(8) -0.1055(4)
H2G H 0.1202 0.8653 -0.1584
H3G H 0.1159 1.0082 -0.0971
C4G C 0.3127(6) 0.9534(8) -0.1408(4)
H4G H 0.3078 1.0090 -0.2025
H5G H 0.3631 0.8667 -0.1543
H6G H 0.3616 1.0062 -0.0886
Zn1B Zn -0.16411(4) 0.83589(4) 0.0000
Zn1C Zn 0.16411(4) 1.16411(4) 0.5000
N3B N 0.5372(3) 0.7002(3) 0.2118(2)
N3D N 0.2998(3) 0.4628(3) 0.2882(2)
loop_
_geom_bond_atom_site_label_1
_geom_bond_atom_site_label_2
_geom_bond_site_symmetry_1
_geom_bond_site_symmetry_2
Zn1 N1 1_555 1_555
N1 N2 1_555 1_555
N2 C1 1_555 1_555
N3 C1 1_555 1_555
C1 C3 1_555 1_555
C2 N1 1_555 1_555
H1 C2 1_555 1_555
C3 H2 1_555 1_555
H3 C3 1_555 1_555
C4 C3 1_555 1_555
H4 C4 1_555 1_555
H5 C4 1_555 1_555
H6 C4 1_555 1_555
N1G Zn1 1_555 1_555
N2G N1G 1_555 1_555
N3G C1G 1_555 1_555
C1G N2G 1_555 1_555
C2G N1G 1_555 1_555
H1G C2G 1_555 1_555
C3G C1G 1_555 1_555
H2G C3G 1_555 1_555
H3G C3G 1_555 1_555
C4G C3G 1_555 1_555
H4G C4G 1_555 1_555
H5G C4G 1_555 1_555
H6G C4G 1_555 1_555
Zn1B N3G 1_555 1_555
Zn1C N3 1_555 1_555
N3B Zn1 1_555 1_555
N3D Zn1 1_555 1_555
N3 C2 1_555 1_555
N3G C2G 1_555 1_555

#END
