
#######################################################################
#
#                 Cambridge Crystallographic Data Centre
#                                CCDC 
#
#######################################################################
#
# If this CIF has been generated from an entry in the Cambridge 
# Structural Database, then it will include bibliographic, chemical, 
# crystal, experimental, refinement or atomic coordinate data resulting 
# from the CCDC's data processing and validation procedures.
#
#######################################################################

data_KEYTEP
_symmetry_cell_setting           orthorhombic
_symmetry_space_group_name_H-M   'P n n a'
_symmetry_Int_Tables_number      52
_space_group_name_Hall           '-P 2a 2bc'
loop_
_symmetry_equiv_pos_site_id
_symmetry_equiv_pos_as_xyz
1 x,y,z
2 1/2-x,-y,z
3 1/2-x,1/2+y,1/2-z
4 x,1/2-y,1/2-z
5 -x,-y,-z
6 1/2+x,y,-z
7 1/2+x,1/2-y,1/2+z
8 -x,1/2+y,1/2+z
_cell_length_a                   16.167(3)
_cell_length_b                   17.513(4)
_cell_length_c                   10.450(2)
_cell_angle_alpha                90
_cell_angle_beta                 90
_cell_angle_gamma                90
_cell_volume                     2958.74
loop_
_atom_site_label
_atom_site_type_symbol
_atom_site_fract_x
_atom_site_fract_y
_atom_site_fract_z
Mn1 Mn 0.5000 0.5000 0.5000
N1 N 0.59348(12) 0.45271(13) 0.3579(2)
C1 C 0.57494(18) 0.4469(2) 0.2356(3)
H1 H 0.5251 0.4677 0.2083
C2 C 0.6242(2) 0.4123(2) 0.1458(3)
H2 H 0.6073 0.4102 0.0609
C3 C 0.6974(2) 0.38134(17) 0.1806(3)
C4 C 0.7547(2) 0.3450(2) 0.0836(4)
H3 H 0.7696 0.2943 0.1131
H4 H 0.7255 0.3395 0.0031
C5 C 0.8303(2) 0.38890(18) 0.0618(4)
H5 H 0.8609 0.3907 0.1416
H6 H 0.8146 0.4409 0.0409
C6 C 0.8882(2) 0.36047(18) -0.0417(4)
H7 H 0.8619 0.3670 -0.1244
H8 H 0.9381 0.3912 -0.0410
C7 C 0.91133(18) 0.27744(16) -0.0245(3)
C8 C 0.86573(18) 0.22014(17) -0.0797(3)
H9 H 0.8199 0.2322 -0.1295
C9 C 0.88749(16) 0.14477(16) -0.0617(3)
H10 H 0.8559 0.1072 -0.1015
C10 C 0.99345(19) 0.17893(17) 0.0659(4)
H11 H 1.0375 0.1656 0.1185
C11 C 0.9760(2) 0.25543(18) 0.0515(4)
H12 H 1.0080 0.2919 0.0932
N2 N 0.95166(13) 0.12308(12) 0.0099(2)
O1 O 0.58660(10) 0.47885(10) 0.65218(17)
O2 O 0.61579(13) 0.39953(14) 0.8114(2)
C12 C 0.63261(13) 0.45144(13) 0.7365(2)
C13 C 0.71630(13) 0.48578(13) 0.7432(2)
C14 C 0.7179(3) 0.3872(3) 0.3047(4)
H13 H 0.7674 0.3663 0.3336
C15 C 0.6654(2) 0.4243(3) 0.3904(4)
H14 H 0.6823 0.4292 0.4751
O1A O 0.91340(10) 0.52115(10) 0.65218(17)
O2A O 0.88421(13) 0.60047(14) 0.8114(2)
C12A C 0.86739(13) 0.54856(13) 0.7365(2)
C13A C 0.78370(13) 0.51422(13) 0.7432(2)
N1D N 0.40652(12) 0.54729(13) 0.6421(2)
C1D C 0.42506(18) 0.5531(2) 0.7644(3)
H1D H 0.4749 0.5323 0.7917
C2D C 0.3758(2) 0.5877(2) 0.8542(3)
H2D H 0.3927 0.5898 0.9391
C3D C 0.3026(2) 0.61866(17) 0.8194(3)
C4D C 0.2453(2) 0.6550(2) 0.9164(4)
H3D H 0.2304 0.7057 0.8869
H4D H 0.2745 0.6605 0.9969
C5D C 0.1697(2) 0.61110(18) 0.9382(4)
H5D H 0.1391 0.6093 0.8584
H6D H 0.1854 0.5591 0.9591
C6D C 0.1118(2) 0.63953(18) 1.0417(4)
H7D H 0.1381 0.6330 1.1244
H8D H 0.0619 0.6088 1.0410
C7D C 0.08867(18) 0.72256(16) 1.0245(3)
C8D C 0.13427(18) 0.77986(17) 1.0797(3)
H9D H 0.1801 0.7678 1.1295
C9D C 0.11251(16) 0.85523(16) 1.0617(3)
H10D H 0.1441 0.8928 1.1015
C10D C 0.00655(19) 0.82107(17) 0.9341(4)
H11D H -0.0375 0.8344 0.8815
C11D C 0.0240(2) 0.74457(18) 0.9485(4)
H12D H -0.0080 0.7081 0.9068
N2D N 0.04834(13) 0.87692(12) 0.9901(2)
C14D C 0.2821(3) 0.6128(3) 0.6953(4)
H13D H 0.2326 0.6337 0.6664
C15D C 0.3346(2) 0.5757(3) 0.6096(4)
H14D H 0.3177 0.5708 0.5249
Mn1A Mn 1.0000 0.5000 0.5000
Mn1B Mn 0.0000 1.0000 1.0000
Mn1B_2 Mn 1.0000 0.0000 0.0000
N2B N 0.54834(13) 0.62308(12) 0.4901(2)
N2F N 0.45166(13) 0.37692(12) 0.5099(2)
O1D O 0.41340(10) 0.52115(10) 0.34782(17)
O3 O 0.6877(3) 0.2500 0.7500
H15 H 0.6569 0.2857 0.7731
H15C H 0.6569 0.2143 0.7269
loop_
_geom_bond_atom_site_label_1
_geom_bond_atom_site_label_2
_geom_bond_site_symmetry_1
_geom_bond_site_symmetry_2
Mn1 N1 1_555 1_555
N1 C1 1_555 1_555
C1 H1 1_555 1_555
C2 C1 1_555 1_555
H2 C2 1_555 1_555
C3 C2 1_555 1_555
C4 C3 1_555 1_555
H3 C4 1_555 1_555
H4 C4 1_555 1_555
C5 C4 1_555 1_555
H5 C5 1_555 1_555
H6 C5 1_555 1_555
C6 C5 1_555 1_555
H7 C6 1_555 1_555
H8 C6 1_555 1_555
C7 C6 1_555 1_555
C8 C7 1_555 1_555
H9 C8 1_555 1_555
C9 C8 1_555 1_555
H10 C9 1_555 1_555
C10 H11 1_555 1_555
C11 C7 1_555 1_555
H12 C11 1_555 1_555
N2 C9 1_555 1_555
O1 Mn1 1_555 1_555
O2 C12 1_555 1_555
C12 O1 1_555 1_555
C13 C12 1_555 1_555
C14 C3 1_555 1_555
H13 C14 1_555 1_555
C15 N1 1_555 1_555
H14 C15 1_555 1_555
O3 H15 1_555 1_555
O1A C12A 1_555 1_555
O2A C12A 1_555 1_555
C12A C13A 1_555 1_555
C13A C13 1_555 1_555
N1D Mn1 1_555 1_555
C1D N1D 1_555 1_555
H1D C1D 1_555 1_555
C2D C1D 1_555 1_555
H2D C2D 1_555 1_555
C3D C2D 1_555 1_555
C4D C3D 1_555 1_555
H3D C4D 1_555 1_555
H4D C4D 1_555 1_555
C5D C4D 1_555 1_555
H5D C5D 1_555 1_555
H6D C5D 1_555 1_555
C6D C5D 1_555 1_555
H7D C6D 1_555 1_555
H8D C6D 1_555 1_555
C7D C6D 1_555 1_555
C8D C7D 1_555 1_555
H9D C8D 1_555 1_555
C9D C8D 1_555 1_555
H10D C9D 1_555 1_555
C10D H11D 1_555 1_555
C11D C7D 1_555 1_555
H12D C11D 1_555 1_555
N2D C9D 1_555 1_555
C14D C3D 1_555 1_555
H13D C14D 1_555 1_555
C15D N1D 1_555 1_555
H14D C15D 1_555 1_555
Mn1A O1A 1_555 1_555
Mn1B N2D 1_555 1_555
Mn1B_2 N2 1_555 1_555
N2B Mn1 1_555 1_555
N2F Mn1 1_555 1_555
O1D Mn1 1_555 1_555
H15C O3 1_555 1_555
C10 C11 1_555 1_555
C10 N2 1_555 1_555
C14 C15 1_555 1_555
C10D C11D 1_555 1_555
C10D N2D 1_555 1_555
C14D C15D 1_555 1_555

#END
