
#######################################################################
#
#                 Cambridge Crystallographic Data Centre
#                                CCDC 
#
#######################################################################
#
# If this CIF has been generated from an entry in the Cambridge 
# Structural Database, then it will include bibliographic, chemical, 
# crystal, experimental, refinement or atomic coordinate data resulting 
# from the CCDC's data processing and validation procedures.
#
#######################################################################

data_KEYYAP
_symmetry_cell_setting           rhombohedral
_symmetry_space_group_name_H-M   'R -3 c'
_symmetry_Int_Tables_number      167
_space_group_name_Hall           '-R 3 2"c'
loop_
_symmetry_equiv_pos_site_id
_symmetry_equiv_pos_as_xyz
1 x,y,z
2 -y,x-y,z
3 -x+y,-x,z
4 y,x,1/2-z
5 2/3+x,1/3+y,1/3+z
6 2/3-y,1/3+x-y,1/3+z
7 2/3-x+y,1/3-x,1/3+z
8 2/3+y,1/3+x,5/6-z
9 1/3+x,2/3+y,2/3+z
10 1/3+y,2/3+x,1/6-z
11 x-y,-y,1/2-z
12 -x,-x+y,1/2-z
13 1/3-y,2/3+x-y,2/3+z
14 1/3-x+y,2/3-x,2/3+z
15 1/3+x-y,2/3-y,1/6-z
16 1/3-x,2/3-x+y,1/6-z
17 2/3+x-y,1/3-y,5/6-z
18 2/3-x,1/3-x+y,5/6-z
19 -x,-y,-z
20 y,-x+y,-z
21 x-y,x,-z
22 -y,-x,1/2+z
23 1/3-x,2/3-y,2/3-z
24 1/3+y,2/3-x+y,2/3-z
25 1/3+x-y,2/3+x,2/3-z
26 1/3-y,2/3-x,1/6+z
27 2/3-x,1/3-y,1/3-z
28 2/3-y,1/3-x,5/6+z
29 -x+y,y,1/2+z
30 x,x-y,1/2+z
31 2/3+y,1/3-x+y,1/3-z
32 2/3+x-y,1/3+x,1/3-z
33 2/3-x+y,1/3+y,5/6+z
34 2/3+x,1/3+x-y,5/6+z
35 1/3-x+y,2/3+y,1/6+z
36 1/3+x,2/3+x-y,1/6+z
_cell_length_a                   16.729(5)
_cell_length_b                   16.729(5)
_cell_length_c                   44.58(3)
_cell_angle_alpha                90
_cell_angle_beta                 90
_cell_angle_gamma                120.00
_cell_volume                     10804.6
loop_
_atom_site_label
_atom_site_type_symbol
_atom_site_fract_x
_atom_site_fract_y
_atom_site_fract_z
Mn1 Mn -0.37598(17) -0.04265(17) -0.0833
Re1 Re -0.37129(3) 0.22942(3) -0.142450(10)
Se1 Se -0.3333 0.3333 -0.09698(4)
Se2 Se -0.20639(8) 0.26169(8) -0.14379(3)
C1 C -0.4157(8) 0.1096(8) -0.1158(3)
N1 N -0.2729(8) 0.0279(7) -0.1107(2)
C2 C -0.6177(16) 0.3824(15) 0.0208(4)
H1 H -0.6095 0.3381 0.0306
N2 N -0.4359(7) 0.0446(8) -0.1022(2)
C3 C -0.1899(9) 0.1045(10) -0.0953(3)
H2 H -0.7654 0.1534 -0.0860
H3 H -0.6963 0.1515 -0.1096
O1 O -0.6411(8) 0.4637(7) -0.0532(3)
C4 C -0.6371(12) 0.4497(12) -0.0226(4)
C5 C -0.6334(19) 0.5149(18) 0.0250(6)
H4 H -0.6350 0.5585 0.0376
C6 C -0.6226(12) 0.3152(12) -0.0277(4)
H5 H -0.6112 0.2733 -0.0176
C7 C -0.6258(12) 0.3828(12) -0.0106(4)
C8 C -0.6429(16) 0.5246(16) -0.0039(5)
H6 H -0.6519 0.5707 -0.0120
C9 C -0.6228(19) 0.4563(18) 0.0371(6)
H7 H -0.6177 0.4578 0.0579
Mn1V Mn -0.29069(17) 0.70932(17) -0.2500
Mn1B Mn -0.66667(24) 0.37598(17) -0.0833
Mn1FA Mn -0.00000(24) 0.29068(17) -0.2500
Mn1GA Mn -0.70931(17) 0.00000(24) -0.2500
Mn1A Mn 0.04265(17) 0.66667(24) -0.0833
Re1A Re -0.22942(3) 0.39929(4) -0.142450(10)
Re1B Re -0.39929(4) 0.37129(3) -0.142450(10)
Re1V Re -0.29538(3) 0.43725(3) -0.190883(10)
Re1W Re -0.43725(3) 0.26738(4) -0.190883(10)
Re1X Re -0.26738(4) 0.29538(3) -0.190883(10)
Se1V Se -0.3334 0.3334 -0.23635(4)
Se2B Se -0.53192(11) 0.20639(8) -0.14379(3)
Se2A Se -0.26169(8) 0.53192(11) -0.14379(3)
Se2X Se -0.13475(11) 0.46028(8) -0.18954(3)
Se2V Se -0.46028(8) 0.40498(8) -0.18954(3)
Se2W Se -0.40498(8) 0.13475(11) -0.18954(3)
C1V C -0.2510(8) 0.5571(8) -0.2175(3)
C1B C -0.4747(11) 0.4157(8) -0.1158(3)
C1X C -0.1920(11) 0.2510(8) -0.2175(3)
C1W C -0.5571(8) 0.1920(11) -0.2175(3)
C1A C -0.1096(8) 0.4747(11) -0.1158(3)
N1G N -0.3054(7) 0.0604(8) -0.0560(2)
N1P N -0.6341(11) 0.3054(7) -0.0560(2)
N1B N -0.6992(11) 0.2729(8) -0.1107(2)
N1GA N -0.6062(8) 0.0325(11) -0.2774(2)
N1W N -0.6388(7) -0.0325(11) -0.2226(2)
C2Q C -0.7156(16) 0.3334(22) -0.1875(4)
C2X C -0.6668(22) 0.0490(16) -0.3541(4)
C2AA C -0.7157(15) -0.0490(16) -0.1459(4)
C2P C -0.3334(22) -0.0491(15) -0.1875(4)
C2A C -0.3824(15) -0.0001(22) 0.0208(4)
H1Q H -0.7238 0.2809 -0.1973
H1X H -0.6143 0.0572 -0.3639
H1AA H -0.6714 -0.0572 -0.1361
H1P H -0.2809 -0.0048 -0.1973
H1A H -0.3381 0.0524 0.0306
N2G N -0.2887(8) -0.1026(7) -0.0645(2)
N2V N -0.2308(7) 0.6221(8) -0.2311(2)
N2B N -0.5195(11) 0.4359(7) -0.1022(2)
N2P N -0.8138(11) 0.2887(8) -0.0645(2)
N2X N -0.1472(11) 0.2308(7) -0.2311(2)
N2W N -0.6221(8) 0.1472(11) -0.2311(2)
N2GA N -0.7692(7) -0.1472(11) -0.2689(2)
N2A N -0.0446(8) 0.5195(11) -0.1022(2)
C3G C -0.2288(10) 0.1434(9) -0.0714(3)
C3P C -0.6277(13) 0.2288(10) -0.0714(3)
C3B C -0.7056(13) 0.1899(9) -0.0953(3)
C3GA C -0.5232(9) 0.0389(13) -0.2620(3)
C3W C -0.5622(10) -0.0389(13) -0.2380(3)
H2Q H -0.5679 0.2521 -0.0807
H2AA H -0.4867 0.0987 -0.2527
H2X H -0.5855 -0.0987 -0.2473
H2P H -0.2521 0.1799 -0.0807
H2A H -0.1534 0.0812 -0.0860
H3Q H -0.6370 0.1811 -0.0571
H3AA H -0.4848 0.0296 -0.2763
H3X H -0.5145 -0.0296 -0.2237
H3P H -0.1811 0.1818 -0.0571
H3A H -0.1515 0.1522 -0.1096
O1Q O -0.6922(8) 0.4381(11) -0.1135(3)
O1X O -0.7715(11) 0.0256(8) -0.2801(3)
O1AA O -0.7970(7) -0.0256(8) -0.2199(3)
O1P O -0.4381(11) -0.1304(7) -0.1135(3)
O1A O -0.4637(7) -0.1048(11) -0.0532(3)
C4Q C -0.6962(12) 0.4201(17) -0.1441(4)
C4X C -0.7535(17) 0.0296(12) -0.3107(4)
C4AA C -0.7830(12) -0.0296(12) -0.1893(4)
C4P C -0.4201(17) -0.1164(12) -0.1441(4)
C4A C -0.4497(12) -0.0868(17) -0.0226(4)
C5Q C -0.6999(19) 0.4816(26) -0.1917(6)
C5X C -0.8150(26) 0.0333(19) -0.3583(6)
C5AA C -0.8482(18) -0.0333(19) -0.1417(6)
C5P C -0.4816(26) -0.1816(18) -0.1917(6)
C5A C -0.5149(18) -0.1483(26) 0.0250(6)
H4Q H -0.6983 0.5268 -0.2043
H4X H -0.8602 0.0317 -0.3709
H4AA H -0.8918 -0.0317 -0.1291
H4P H -0.5268 -0.2252 -0.2043
H4A H -0.5585 -0.1935 0.0376
C6Q C -0.7107(12) 0.2711(17) -0.1390(4)
C6X C -0.6045(17) 0.0441(12) -0.3056(4)
C6AA C -0.6485(12) -0.0441(12) -0.1944(4)
C6P C -0.2711(17) 0.0181(12) -0.1390(4)
C6A C -0.3152(12) 0.0622(17) -0.0277(4)
H5Q H -0.7221 0.2178 -0.1491
H5X H -0.5512 0.0555 -0.3157
H5AA H -0.6066 -0.0555 -0.1843
H5P H -0.2178 0.0600 -0.1491
H5A H -0.2733 0.1155 -0.0176
C7Q C -0.7075(12) 0.3419(17) -0.1561(4)
C7X C -0.6753(17) 0.0409(12) -0.3227(4)
C7AA C -0.7161(12) -0.0409(12) -0.1773(4)
C7P C -0.3419(17) -0.0495(12) -0.1561(4)
C7A C -0.3828(12) -0.0086(17) -0.0106(4)
C8Q C -0.6904(16) 0.5008(23) -0.1628(5)
C8X C -0.8342(23) 0.0238(16) -0.3294(5)
C8AA C -0.8579(16) -0.0238(16) -0.1706(5)
C8P C -0.5008(23) -0.1913(16) -0.1628(5)
C8A C -0.5246(16) -0.1675(23) -0.0039(5)
H6Q H -0.6814 0.5559 -0.1547
H6AA H -0.9040 -0.0148 -0.1787
H6X H -0.8893 0.0148 -0.3213
H6P H -0.5559 -0.2374 -0.1547
H6A H -0.5707 -0.2226 -0.0120
C9Q C -0.7105(19) 0.4124(26) -0.2038(6)
C9X C -0.7458(26) 0.0439(19) -0.3704(6)
C9AA C -0.7896(18) -0.0439(19) -0.1296(6)
C9P C -0.4124(26) -0.1230(18) -0.2038(6)
C9A C -0.4563(18) -0.0791(26) 0.0371(6)
H7Q H -0.7156 0.4088 -0.2246
H7AA H -0.7911 -0.0490 -0.1088
H7X H -0.7422 0.0490 -0.3912
H7P H -0.4088 -0.1245 -0.2246
H7A H -0.4578 -0.0755 0.0579
loop_
_geom_bond_atom_site_label_1
_geom_bond_atom_site_label_2
_geom_bond_site_symmetry_1
_geom_bond_site_symmetry_2
Mn1 N1 1_555 1_555
Re1 Se1 1_555 1_555
Se1 Re1A 1_555 1_555
Se2 Re1 1_555 1_555
C1 Re1 1_555 1_555
N1 C3 1_555 1_555
C2 H1 1_555 1_555
N2 Mn1 1_555 1_555
C3 C3G 1_555 1_555
H2 C3B 1_555 1_555
H3 C3B 1_555 1_555
O1 C4 1_555 1_555
C4 C7 1_555 1_555
C5 H4 1_555 1_555
C6 H5 1_555 1_555
C7 C2 1_555 1_555
C8 C4 1_555 1_555
H6 C8 1_555 1_555
C9 C2 1_555 1_555
H7 C9 1_555 1_555
Mn1V N2V 1_555 1_555
Mn1B O1 1_555 1_555
Mn1FA N2X 1_555 1_555
Mn1GA N1GA 1_555 1_555
Mn1A N2A 1_555 1_555
Re1A Se2 1_555 1_555
Re1B Se1 1_555 1_555
Re1V Se1V 1_555 1_555
Re1W Se1V 1_555 1_555
Re1X Se2 1_555 1_555
Se1V Re1X 1_555 1_555
Se2B Re1 1_555 1_555
Se2A Re1A 1_555 1_555
Se2X Re1A 1_555 1_555
Se2V Re1B 1_555 1_555
Se2W Re1 1_555 1_555
C1V Re1V 1_555 1_555
C1B Re1B 1_555 1_555
C1X Re1X 1_555 1_555
C1W Re1W 1_555 1_555
C1A Re1A 1_555 1_555
N1G Mn1 1_555 1_555
N1P C6 1_555 1_555
N1B Mn1B 1_555 1_555
N1GA C3GA 1_555 1_555
N1W Mn1GA 1_555 1_555
C2Q H1Q 1_555 1_555
C2X H1X 1_555 1_555
C2AA H1AA 1_555 1_555
C2P H1P 1_555 1_555
C2A H1A 1_555 1_555
N2G Mn1 1_555 1_555
N2V C1V 1_555 1_555
N2B Mn1B 1_555 1_555
N2P Mn1B 1_555 1_555
N2X C1X 1_555 1_555
N2W Mn1GA 1_555 1_555
N2GA Mn1GA 1_555 1_555
N2A C1A 1_555 1_555
C3G N1G 1_555 1_555
C3P N1P 1_555 1_555
C3B N1B 1_555 1_555
C3GA C3W 1_555 1_555
C3W N1W 1_555 1_555
H2Q C3P 1_555 1_555
H2AA C3GA 1_555 1_555
H2X C3W 1_555 1_555
H2P C3G 1_555 1_555
H2A C3 1_555 1_555
H3Q C3P 1_555 1_555
H3AA C3GA 1_555 1_555
H3X C3W 1_555 1_555
H3P C3G 1_555 1_555
H3A C3 1_555 1_555
O1Q Mn1B 1_555 1_555
O1X Mn1GA 1_555 1_555
O1AA Mn1GA 1_555 1_555
O1P Mn1 1_555 1_555
O1A Mn1 1_555 1_555
C4Q O1Q 1_555 1_555
C4X O1X 1_555 1_555
C4AA O1AA 1_555 1_555
C4P O1P 1_555 1_555
C4A O1A 1_555 1_555
C5Q H4Q 1_555 1_555
C5X H4X 1_555 1_555
C5AA H4AA 1_555 1_555
C5P H4P 1_555 1_555
C5A H4A 1_555 1_555
C6Q N1B 1_555 1_555
C6X N1GA 1_555 1_555
C6AA N1W 1_555 1_555
C6P N1 1_555 1_555
C6A N1G 1_555 1_555
H5Q C6Q 1_555 1_555
H5X C6X 1_555 1_555
H5AA C6AA 1_555 1_555
H5P C6P 1_555 1_555
H5A C6A 1_555 1_555
C7Q C2Q 1_555 1_555
C7X C2X 1_555 1_555
C7AA C2AA 1_555 1_555
C7P C2P 1_555 1_555
C7A C2A 1_555 1_555
C8Q C4Q 1_555 1_555
C8X C4X 1_555 1_555
C8AA C4AA 1_555 1_555
C8P C4P 1_555 1_555
C8A C4A 1_555 1_555
H6Q C8Q 1_555 1_555
H6AA C8AA 1_555 1_555
H6X C8X 1_555 1_555
H6P C8P 1_555 1_555
H6A C8A 1_555 1_555
C9Q C2Q 1_555 1_555
C9X C2X 1_555 1_555
C9AA C2AA 1_555 1_555
C9P C2P 1_555 1_555
C9A C2A 1_555 1_555
H7Q C9Q 1_555 1_555
H7AA C9AA 1_555 1_555
H7X C9X 1_555 1_555
H7P C9P 1_555 1_555
H7A C9A 1_555 1_555
C1 N2 1_555 1_555
C5 C8 1_555 1_555
C5 C9 1_555 1_555
C6 C7 1_555 1_555
Mn1B N1P 1_555 1_555
Re1B Se2B 1_555 1_555
Re1B Se2A 1_555 1_555
Re1V Se2A 1_555 1_555
Re1V Se2X 1_555 1_555
Re1V Se2V 1_555 1_555
Re1W Se2B 1_555 1_555
Re1W Se2V 1_555 1_555
Re1W Se2W 1_555 1_555
Re1X Se2X 1_555 1_555
Re1X Se2W 1_555 1_555
C1B N2B 1_555 1_555
C1W N2W 1_555 1_555
C3P C3B 1_555 1_555
C4Q C7Q 1_555 1_555
C4X C7X 1_555 1_555
C4AA C7AA 1_555 1_555
C4P C7P 1_555 1_555
C4A C7A 1_555 1_555
C5Q C8Q 1_555 1_555
C5Q C9Q 1_555 1_555
C5X C8X 1_555 1_555
C5X C9X 1_555 1_555
C5AA C8AA 1_555 1_555
C5AA C9AA 1_555 1_555
C5P C8P 1_555 1_555
C5P C9P 1_555 1_555
C5A C8A 1_555 1_555
C5A C9A 1_555 1_555
C6Q C7Q 1_555 1_555
C6X C7X 1_555 1_555
C6AA C7AA 1_555 1_555
C6P C7P 1_555 1_555
C6A C7A 1_555 1_555

#END
