
#######################################################################
#
#                 Cambridge Crystallographic Data Centre
#                                CCDC 
#
#######################################################################
#
# If this CIF has been generated from an entry in the Cambridge 
# Structural Database, then it will include bibliographic, chemical, 
# crystal, experimental, refinement or atomic coordinate data resulting 
# from the CCDC's data processing and validation procedures.
#
#######################################################################

data_KEYZEV
_symmetry_cell_setting           monoclinic
_symmetry_space_group_name_H-M   'P 2/m'
_symmetry_Int_Tables_number      10
_space_group_name_Hall           '-P 2y'
loop_
_symmetry_equiv_pos_site_id
_symmetry_equiv_pos_as_xyz
1 x,y,z
2 -x,y,-z
3 -x,-y,-z
4 x,-y,z
_cell_length_a                   6.6452(13)
_cell_length_b                   5.9594(11)
_cell_length_c                   12.601(2)
_cell_angle_alpha                90
_cell_angle_beta                 90.327(4)
_cell_angle_gamma                90
_cell_volume                     499.009
loop_
_atom_site_label
_atom_site_type_symbol
_atom_site_fract_x
_atom_site_fract_y
_atom_site_fract_z
Cu1 Cu 0.5000 0.2838(3) 0.5000
Cu2 Cu 1.0000 0.2837(3) 0.0000
Cu3 Cu 0.4493(3) 0.5000 0.13251(18)
Cu4 Cu 0.9463(3) 0.5000 0.36713(17)
Br1 Br 0.8426(2) 0.5000 0.14825(12)
Br2 Br 0.3406(2) 0.5000 0.35172(12)
N1 N 0.7205(11) 0.1106(12) 0.4309(7)
N2 N 0.8885(11) 0.1828(12) 0.3845(6)
N3 N 1.2223(11) 0.1093(11) 0.0690(7)
N4 N 1.3894(11) 0.1826(13) 0.1146(7)
C1 C 0.987(2) 0.0000 0.3571(12)
H1 H 1.1106 0.0000 0.3228
C2 C 1.491(2) 0.0000 0.1424(13)
H2 H 1.6149 0.0000 0.1767
N1C N 0.7205(11) -0.1106(12) 0.4309(7)
N2C N 0.8885(11) -0.1828(12) 0.3845(6)
N3C N 1.2223(11) -0.1093(11) 0.0690(7)
N4C N 1.3894(11) -0.1826(13) 0.1146(7)
Cu1B Cu 0.5000 -0.2838(3) 0.5000
Cu1B_2 Cu 0.5000 0.7162(3) 0.5000
Cu2B Cu 1.0000 -0.2837(3) 0.0000
Cu2B_2 Cu 1.0000 0.7163(3) 0.0000
Cu3_2 Cu 1.4493(3) -0.5000 0.13251(18)
Cu3_3 Cu 1.4493(3) 0.5000 0.13251(18)
Cu4_2 Cu -0.0537(3) 0.5000 0.36713(17)
Cu4_3 Cu 0.9463(3) -0.5000 0.36713(17)
Br1A Br 1.1574(2) 0.5000 -0.14825(12)
Br2_2 Br 1.3406(2) 0.5000 0.35172(12)
Br2A Br 0.6594(2) 0.5000 0.64828(12)
N1A N 0.2795(11) 0.1106(12) 0.5691(7)
N2C_2 N 0.8885(11) 0.8172(12) 0.3845(6)
N3A N 0.7777(11) 0.1093(11) -0.0690(7)
N4_2 N 0.3894(11) 0.1826(13) 0.1146(7)
N4C_2 N 0.3894(11) 0.8174(13) 0.1146(7)
loop_
_geom_bond_atom_site_label_1
_geom_bond_atom_site_label_2
_geom_bond_site_symmetry_1
_geom_bond_site_symmetry_2
Cu1 Br2 1_555 1_555
Cu2 Br1 1_555 1_555
Cu3 Br1 1_555 1_555
Cu4 Br1 1_555 1_555
Br1 Cu2B_2 1_555 1_555
Br2 Cu3 1_555 1_555
N1 Cu1 1_555 1_555
N2 Cu4 1_555 1_555
N3 Cu2 1_555 1_555
N4 N3 1_555 1_555
C1 N2 1_555 1_555
H1 C1 1_555 1_555
C2 N4 1_555 1_555
H2 C2 1_555 1_555
N1C N1 1_555 1_555
N2C C1 1_555 1_555
N3C N3 1_555 1_555
N4C C2 1_555 1_555
Cu1B N1C 1_555 1_555
Cu1B_2 Br2 1_555 1_555
Cu2B N3C 1_555 1_555
Cu2B_2 Br1A 1_555 1_555
Cu3_2 N4C 1_555 1_555
Cu3_3 N4 1_555 1_555
Cu4_2 Br2 1_555 1_555
Cu4_3 N2C 1_555 1_555
Br1A Cu2 1_555 1_555
Br2_2 Cu4 1_555 1_555
Br2A Cu1 1_555 1_555
N1A Cu1 1_555 1_555
N2C_2 Cu4 1_555 1_555
N3A Cu2 1_555 1_555
N4_2 Cu3 1_555 1_555
N4C_2 Cu3 1_555 1_555
N1 N2 1_555 1_555
N1C N2C 1_555 1_555
N3C N4C 1_555 1_555
Cu1B_2 Br2A 1_555 1_555
Cu3_3 Br2_2 1_555 1_555

#END
