
#######################################################################
#
#                 Cambridge Crystallographic Data Centre
#                                CCDC 
#
#######################################################################
#
# If this CIF has been generated from an entry in the Cambridge 
# Structural Database, then it will include bibliographic, chemical, 
# crystal, experimental, refinement or atomic coordinate data resulting 
# from the CCDC's data processing and validation procedures.
#
#######################################################################

data_KEYZOF
_symmetry_cell_setting           orthorhombic
_symmetry_space_group_name_H-M   'P b a m'
_symmetry_Int_Tables_number      55
_space_group_name_Hall           '-P 2 2ab'
loop_
_symmetry_equiv_pos_site_id
_symmetry_equiv_pos_as_xyz
1 x,y,z
2 -x,-y,z
3 1/2-x,1/2+y,-z
4 1/2+x,1/2-y,-z
5 -x,-y,-z
6 x,y,-z
7 1/2+x,1/2-y,z
8 1/2-x,1/2+y,z
_cell_length_a                   6.8792(18)
_cell_length_b                   13.285(3)
_cell_length_c                   5.9634(15)
_cell_angle_alpha                90
_cell_angle_beta                 90
_cell_angle_gamma                90
_cell_volume                     544.996
loop_
_atom_site_label
_atom_site_type_symbol
_atom_site_fract_x
_atom_site_fract_y
_atom_site_fract_z
I1 I -0.16333(12) 0.15287(6) 0.5000
Cu1 Cu 0.0000 0.0000 0.2879(3)
Cu2 Cu -0.5611(3) 0.12439(16) 0.5000
N1 N 0.2172(10) 0.0626(6) 0.1092(12)
N2 N 0.3781(9) 0.1076(6) 0.1832(12)
C1 C 0.4723(19) 0.1328(11) 0.0000
H1 H 0.5925 0.1649 0.0000
N1E N 0.2172(10) 0.0626(6) -0.1092(12)
N2E N 0.3781(9) 0.1076(6) -0.1832(12)
I1A I 0.16333(12) -0.15287(6) 0.5000
I1C I -0.66333(12) 0.34713(6) 0.5000
Cu1D Cu 0.0000 0.0000 -0.2879(3)
Cu1D_2 Cu 0.0000 0.0000 0.7121(3)
Cu2_2 Cu 0.4389(3) 0.12439(16) -0.5000
Cu2_3 Cu 0.4389(3) 0.12439(16) 0.5000
Cu2C Cu -0.0611(3) 0.37561(16) 0.5000
N1A N -0.2172(10) -0.0626(6) 0.1092(12)
N2_2 N -0.6219(9) 0.1076(6) 0.1832(12)
N2E_2 N -0.6219(9) 0.1076(6) 0.8168(12)
loop_
_geom_bond_atom_site_label_1
_geom_bond_atom_site_label_2
_geom_bond_site_symmetry_1
_geom_bond_site_symmetry_2
I1 Cu1 1_555 1_555
Cu1 N1 1_555 1_555
Cu2 I1 1_555 1_555
N1 N2 1_555 1_555
N2 C1 1_555 1_555
C1 H1 1_555 1_555
N1E N1 1_555 1_555
N2E C1 1_555 1_555
I1A Cu1 1_555 1_555
I1C Cu2 1_555 1_555
Cu1D N1E 1_555 1_555
Cu1D_2 I1 1_555 1_555
Cu2_2 N2E 1_555 1_555
Cu2_3 N2 1_555 1_555
Cu2C I1 1_555 1_555
N1A Cu1 1_555 1_555
N2_2 Cu2 1_555 1_555
N2E_2 Cu2 1_555 1_555
N1E N2E 1_555 1_555
I1A Cu1D_2 1_555 1_555

#END
