
#######################################################################
#
#                 Cambridge Crystallographic Data Centre
#                                CCDC 
#
#######################################################################
#
# If this CIF has been generated from an entry in the Cambridge 
# Structural Database, then it will include bibliographic, chemical, 
# crystal, experimental, refinement or atomic coordinate data resulting 
# from the CCDC's data processing and validation procedures.
#
#######################################################################

data_KEZBAU
_symmetry_cell_setting           orthorhombic
_symmetry_space_group_name_H-M   'P b c a'
_symmetry_Int_Tables_number      61
_space_group_name_Hall           '-P 2ac 2ab'
loop_
_symmetry_equiv_pos_site_id
_symmetry_equiv_pos_as_xyz
1 x,y,z
2 1/2-x,-y,1/2+z
3 -x,1/2+y,1/2-z
4 1/2+x,1/2-y,-z
5 -x,-y,-z
6 1/2+x,y,1/2-z
7 x,1/2-y,1/2+z
8 1/2-x,1/2+y,z
_cell_length_a                   12.3322(17)
_cell_length_b                   11.6853(16)
_cell_length_c                   13.0714(18)
_cell_angle_alpha                90
_cell_angle_beta                 90
_cell_angle_gamma                90
_cell_volume                     1883.66
loop_
_atom_site_label
_atom_site_type_symbol
_atom_site_fract_x
_atom_site_fract_y
_atom_site_fract_z
Cu1 Cu 0.12409(9) 0.77955(8) 0.31750(8)
Cu2 Cu 0.10268(9) 1.28075(8) 0.38259(8)
Cu3 Cu 0.32995(11) 0.84796(9) 0.11696(8)
Cu4 Cu 0.18542(10) 0.64755(8) 0.08055(8)
Cl1 Cl 0.11920(17) 1.33255(15) 0.57608(15)
Cl2 Cl 0.12027(17) 0.82808(16) 0.12048(15)
C1 C 0.1043(6) 1.0326(6) 0.3254(6)
H1 H 0.0905 1.0423 0.2560
C2 C 0.1175(6) 0.5330(6) 0.3743(6)
H2 H 0.1025 0.5441 0.4433
N1 N 0.1123(5) 1.1177(5) 0.3905(5)
N2 N 0.1353(5) 1.0669(5) 0.4821(5)
N3 N 0.1375(5) 0.9560(5) 0.4684(5)
N4 N 0.1180(5) 0.9313(5) 0.3690(5)
N5 N 0.1343(5) 0.6172(5) 0.3070(5)
N6 N 0.1527(5) 0.5657(5) 0.2168(4)
N7 N 0.1479(5) 0.4548(5) 0.2312(5)
N8 N 0.1250(5) 0.4325(5) 0.3297(5)
Cu2_2 Cu 0.10268(9) 0.28075(8) 0.38259(8)
Cu2B Cu -0.10268(9) 0.78075(8) 0.11741(8)
Cu3A Cu 0.17005(11) 1.15204(9) 0.61696(8)
Cu3G Cu 0.17005(11) 0.34796(9) 0.11696(8)
Cu4A Cu 0.31458(10) 1.35245(8) 0.58055(8)
Cu4F Cu 0.18542(10) 0.85245(8) 0.58055(8)
Cl1A Cl 0.38080(17) 0.66745(15) 0.07608(15)
Cl2B Cl -0.12027(17) 1.32808(16) 0.37952(15)
N2A N 0.3647(5) 0.9331(5) -0.0179(5)
N3F N 0.1375(5) 0.5440(5) -0.0316(5)
N7G N 0.3521(5) 0.9548(5) 0.2312(5)
N8_2 N 0.1250(5) 1.4325(5) 0.3297(5)
loop_
_geom_bond_atom_site_label_1
_geom_bond_atom_site_label_2
_geom_bond_site_symmetry_1
_geom_bond_site_symmetry_2
Cu1 Cl2 1_555 1_555
Cu2 Cl1 1_555 1_555
Cu3 Cl2 1_555 1_555
Cu4 Cl2 1_555 1_555
Cl1 Cu3A 1_555 1_555
Cl2 Cu2B 1_555 1_555
C1 H1 1_555 1_555
C2 H2 1_555 1_555
N1 Cu2 1_555 1_555
N2 N1 1_555 1_555
N3 N2 1_555 1_555
N4 Cu1 1_555 1_555
N5 Cu1 1_555 1_555
N6 Cu4 1_555 1_555
N7 N6 1_555 1_555
N8 C2 1_555 1_555
Cu2_2 N8 1_555 1_555
Cu3A N2 1_555 1_555
Cu3G N7 1_555 1_555
Cu4A Cl1 1_555 1_555
Cu4F N3 1_555 1_555
Cl1A Cu3 1_555 1_555
Cl2B Cu2 1_555 1_555
N2A Cu3 1_555 1_555
N3F Cu4 1_555 1_555
N7G Cu3 1_555 1_555
N8_2 Cu2 1_555 1_555
Cu4 Cl1A 1_555 1_555
C1 N1 1_555 1_555
C1 N4 1_555 1_555
C2 N5 1_555 1_555
N3 N4 1_555 1_555
N5 N6 1_555 1_555
N7 N8 1_555 1_555

#END
