
#######################################################################
#
#                 Cambridge Crystallographic Data Centre
#                                CCDC 
#
#######################################################################
#
# If this CIF has been generated from an entry in the Cambridge 
# Structural Database, then it will include bibliographic, chemical, 
# crystal, experimental, refinement or atomic coordinate data resulting 
# from the CCDC's data processing and validation procedures.
#
#######################################################################

data_KEZHOM
_symmetry_cell_setting           tetragonal
_symmetry_space_group_name_H-M   'P 42/n'
_symmetry_Int_Tables_number      86
_space_group_name_Hall           '-P 4bc'
loop_
_symmetry_equiv_pos_site_id
_symmetry_equiv_pos_as_xyz
1 x,y,z
2 -y,1/2+x,1/2+z
3 1/2-x,1/2-y,z
4 1/2+y,-x,1/2+z
5 -x,-y,-z
6 y,1/2-x,1/2-z
7 1/2+x,1/2+y,-z
8 1/2-y,x,1/2-z
_cell_length_a                   8.6146(4)
_cell_length_b                   8.6146(4)
_cell_length_c                   12.8808(6)
_cell_angle_alpha                90
_cell_angle_beta                 90
_cell_angle_gamma                90
_cell_volume                     955.901
loop_
_atom_site_label
_atom_site_type_symbol
_atom_site_fract_x
_atom_site_fract_y
_atom_site_fract_z
Yb1 Yb 0.750 0.250 0.28745(7)
O2 O 0.750 0.250 0.479(1)
O3 O 0.619(1) 0.036(1) 0.356(1)
O4 O 0.834(1) 0.037(1) 0.180(1)
O5 O 0.985(1) 0.143(1) 0.3453(9)
O6 O 0.553(1) 0.157(1) 0.1698(9)
C1 C 0.531(2) -0.034(2) 0.299(1)
C2 C 1.050(2) 0.016(2) 0.305(1)
H4 H 0.789 0.170 0.525
O3B O 0.881(1) 0.464(1) 0.356(1)
O4B O 0.666(1) 0.463(1) 0.180(1)
O5B O 0.515(1) 0.357(1) 0.3453(9)
O6B O 0.947(1) 0.343(1) 0.1698(9)
H4B H 0.711 0.330 0.525
C1E C 0.966(2) -0.031(2) 0.201(1)
C2G C 0.484(2) 0.050(2) 0.195(1)
O4G O 0.463(1) -0.166(1) 0.320(1)
O6E O 1.157(1) -0.053(1) 0.3302(9)
O3E O 1.036(1) -0.119(1) 0.144(1)
O5G O 0.357(1) -0.015(1) 0.1547(9)
Yb1E Yb 0.250 -0.250 0.21255(7)
Yb1E_2 Yb 1.250 -0.250 0.21255(7)
O1 O 0.382(2) 0.306(2) 0.526(1)
H1 H 0.250 0.250 0.522
H2 H 0.451 0.249 0.576
H3 H 0.438 0.314 0.457
O1B O 0.118(2) 0.194(2) 0.526(1)
H2B H 0.049 0.251 0.576
H3B H 0.062 0.186 0.457
loop_
_geom_bond_atom_site_label_1
_geom_bond_atom_site_label_2
_geom_bond_site_symmetry_1
_geom_bond_site_symmetry_2
Yb1 O2 1_555 1_555
O1 H1 1_555 1_555
O2 H4 1_555 1_555
O3 Yb1 1_555 1_555
O4 Yb1 1_555 1_555
O5 Yb1 1_555 1_555
O6 Yb1 1_555 1_555
C1 O3 1_555 1_555
C2 O5 1_555 1_555
H1 O1B 1_555 1_555
H2 O1 1_555 1_555
H3 O1 1_555 1_555
O3B Yb1 1_555 1_555
O4B Yb1 1_555 1_555
O5B Yb1 1_555 1_555
O6B Yb1 1_555 1_555
H4B O2 1_555 1_555
C1E O4 1_555 1_555
C2G O6 1_555 1_555
O4G C1 1_555 1_555
O6E C2 1_555 1_555
O3E C1E 1_555 1_555
O5G C2G 1_555 1_555
Yb1E O4G 1_555 1_555
Yb1E_2 O6E 1_555 1_555
O1B H2B 1_555 1_555
H3B O1B 1_555 1_555
C1 C2G 1_555 1_555
C2 C1E 1_555 1_555
O3E Yb1E_2 1_555 1_555
O5G Yb1E 1_555 1_555

#END
