
#######################################################################
#
#                 Cambridge Crystallographic Data Centre
#                                CCDC 
#
#######################################################################
#
# If this CIF has been generated from an entry in the Cambridge 
# Structural Database, then it will include bibliographic, chemical, 
# crystal, experimental, refinement or atomic coordinate data resulting 
# from the CCDC's data processing and validation procedures.
#
#######################################################################

data_KEZHON
_symmetry_cell_setting           cubic
_symmetry_space_group_name_H-M   'I -4 3 d'
_symmetry_Int_Tables_number      220
_space_group_name_Hall           'I -4bd 2c 3'
loop_
_symmetry_equiv_pos_site_id
_symmetry_equiv_pos_as_xyz
1 x,y,z
2 1/2-x,-y,1/2+z
3 -x,1/2+y,1/2-z
4 1/2+x,1/2-y,-z
5 z,x,y
6 1/2+z,1/2-x,-y
7 1/2-z,-x,1/2+y
8 -z,1/2+x,1/2-y
9 y,z,x
10 -y,1/2+z,1/2-x
11 1/2+y,1/2-z,-x
12 1/2-y,-z,1/2+x
13 1/4+y,1/4+x,1/4+z
14 1/4-y,3/4-x,3/4+z
15 3/4+y,1/4-x,3/4-z
16 3/4-y,3/4+x,1/4-z
17 1/4+x,1/4+z,1/4+y
18 3/4-x,3/4+z,1/4-y
19 1/4-x,3/4-z,3/4+y
20 3/4+x,1/4-z,3/4-y
21 1/4+z,1/4+y,1/4+x
22 3/4+z,1/4-y,3/4-x
23 3/4-z,3/4+y,1/4-x
24 1/4-z,3/4-y,3/4+x
25 1/2+x,1/2+y,1/2+z
26 -x,1/2-y,z
27 1/2-x,y,-z
28 x,-y,1/2-z
29 1/2+z,1/2+x,1/2+y
30 z,-x,1/2-y
31 -z,1/2-x,y
32 1/2-z,x,-y
33 1/2+y,1/2+z,1/2+x
34 1/2-y,z,-x
35 y,-z,1/2-x
36 -y,1/2-z,x
37 3/4+y,3/4+x,3/4+z
38 3/4-y,1/4-x,1/4+z
39 1/4+y,3/4-x,1/4-z
40 1/4-y,1/4+x,3/4-z
41 3/4+x,3/4+z,3/4+y
42 1/4-x,1/4+z,3/4-y
43 3/4-x,1/4-z,1/4+y
44 1/4+x,3/4-z,1/4-y
45 3/4+z,3/4+y,3/4+x
46 1/4+z,3/4-y,1/4-x
47 1/4-z,1/4+y,3/4-x
48 3/4-z,1/4-y,1/4+x
_cell_length_a                   19.8773(4)
_cell_length_b                   19.8773(4)
_cell_length_c                   19.8773(4)
_cell_angle_alpha                90
_cell_angle_beta                 90
_cell_angle_gamma                90
_cell_volume                     7853.66
loop_
_atom_site_label
_atom_site_type_symbol
_atom_site_fract_x
_atom_site_fract_y
_atom_site_fract_z
B1 B 1.0231(3) 0.4769(3) 0.5231(3)
F1 F 0.98535(18) 0.44591(19) 0.57305(19)
F2 F 0.98367(18) 0.51633(18) 0.48367(18)
F1E F 1.07305(19) 0.51465(18) 0.55409(19)
F1K F 1.05409(19) 0.42695(19) 0.48535(18)
Ag1 Ag 1.03013(7) 0.21885(9) 0.61665(9)
N1 N 1.0779(2) 0.3250(2) 0.6238(2)
C1 C 1.0778(2) 0.3733(3) 0.6705(2)
C2 C 1.0228(2) 0.3723(2) 0.7213(2)
C3 C 0.9694(2) 0.3327(2) 0.7109(2)
N3 N 1.0274(2) 0.4115(2) 0.7765(3)
C5 C 0.9218(3) 0.3707(3) 0.8123(3)
H3 H 0.8869 0.3705 0.8434
C6 C 0.9763(3) 0.4101(3) 0.8219(3)
H4 H 0.9789 0.4367 0.8603
C7 C 0.9186(3) 0.3313(3) 0.7564(3)
H5 H 0.8816 0.3034 0.7494
Ag1E Ag 1.11665(9) 0.46987(7) 0.78115(9)
Ag1K Ag 1.28115(9) 0.38335(9) 0.53013(7)
Ag1Y Ag 0.96987(7) 0.28115(9) 0.61665(9)
Ag1BA Ag 1.11665(9) 0.53013(7) 0.71885(9)
Ag1HA Ag 1.21885(9) 0.38335(9) 0.46987(7)
N1E N 1.1238(2) 0.4221(2) 0.6750(2)
N1K N 1.1750(2) 0.3762(2) 0.5779(2)
N1Y N 0.9221(2) 0.1750(2) 0.6238(2)
N1BA N 1.1238(2) 0.5779(2) 0.8250(2)
N1HA N 1.3250(2) 0.3762(2) 0.4221(2)
C1E C 1.1705(2) 0.4222(2) 0.6267(3)
C1K C 1.1267(3) 0.3295(2) 0.5778(2)
C2K C 1.1277(2) 0.2787(2) 0.5228(2)
C2E C 1.2213(2) 0.4772(2) 0.6277(2)
C3K C 1.1673(2) 0.2891(2) 0.4694(2)
C3E C 1.2109(2) 0.5306(2) 0.6673(2)
C3Y C 1.0306(2) 0.1673(2) 0.7109(2)
C3BA C 1.2109(2) 0.4694(2) 0.8327(2)
C3HA C 1.3327(2) 0.2891(2) 0.5306(2)
N3K N 1.0885(2) 0.2235(3) 0.5274(2)
N3E N 1.2765(3) 0.4726(2) 0.5885(2)
C5K C 1.1293(3) 0.1877(3) 0.4218(3)
C5E C 1.3123(3) 0.5782(3) 0.6293(3)
H3K H 1.1295 0.1566 0.3869
H3E H 1.3434 0.6131 0.6295
C6K C 1.0899(3) 0.1781(3) 0.4763(3)
C6E C 1.3219(3) 0.5237(3) 0.5899(3)
H4K H 1.0633 0.1397 0.4789
H4E H 1.3603 0.5211 0.5633
C7K C 1.1687(3) 0.2436(3) 0.4186(3)
C7E C 1.2564(3) 0.5814(3) 0.6687(3)
H5K H 1.1966 0.2506 0.3816
H5E H 1.2494 0.6184 0.6966
H1? H 0.9672 0.3061 0.6725
N2? N 0.9694(2) 0.3327(2) 0.7109(2)
C4? C 1.0274(2) 0.4115(2) 0.7765(3)
H2? H 1.0647 0.4389 0.7833
loop_
_geom_bond_atom_site_label_1
_geom_bond_atom_site_label_2
_geom_bond_site_symmetry_1
_geom_bond_site_symmetry_2
Ag1 N1 1_555 1_555
N1 C1 1_555 1_555
C1 C2 1_555 1_555
C2 C3 1_555 1_555
C3 C7 1_555 1_555
N3 C2 1_555 1_555
C5 H3 1_555 1_555
C6 N3 1_555 1_555
H4 C6 1_555 1_555
B1 F1 1_555 1_555
F2 B1 1_555 1_555
C7 C5 1_555 1_555
H5 C7 1_555 1_555
Ag1E N3 1_555 1_555
Ag1K Ag1HA 1_555 1_555
Ag1Y Ag1 1_555 1_555
Ag1BA Ag1E 1_555 1_555
Ag1HA N1K 1_555 1_555
N1E C1 1_555 1_555
N1K Ag1K 1_555 1_555
N1Y Ag1 1_555 1_555
N1BA Ag1E 1_555 1_555
N1HA Ag1K 1_555 1_555
C1E N1E 1_555 1_555
C1K N1 1_555 1_555
C2K C1K 1_555 1_555
C2E C1E 1_555 1_555
C3K Ag1HA 1_555 1_555
C3E Ag1BA 1_555 1_555
C3Y Ag1 1_555 1_555
C3BA Ag1E 1_555 1_555
C3HA Ag1K 1_555 1_555
N3K Ag1 1_555 1_555
N3E Ag1K 1_555 1_555
C5K H3K 1_555 1_555
C5E H3E 1_555 1_555
C6K N3K 1_555 1_555
C6E N3E 1_555 1_555
H4K C6K 1_555 1_555
H4E C6E 1_555 1_555
F1E B1 1_555 1_555
F1K B1 1_555 1_555
C7K C3K 1_555 1_555
C7E C3E 1_555 1_555
H5K C7K 1_555 1_555
H5E C7E 1_555 1_555
N1 Ag1Y 1_555 1_555
C3 Ag1Y 1_555 1_555
C5 C6 1_555 1_555
Ag1E N1E 1_555 1_555
Ag1Y N1Y 1_555 1_555
Ag1BA N1E 1_555 1_555
Ag1BA N1BA 1_555 1_555
Ag1HA N1HA 1_555 1_555
N1K C1E 1_555 1_555
N1K C1K 1_555 1_555
C2K C3K 1_555 1_555
C2K N3K 1_555 1_555
C2E C3E 1_555 1_555
C2E N3E 1_555 1_555
C5K C6K 1_555 1_555
C5K C7K 1_555 1_555
C5E C6E 1_555 1_555
C5E C7E 1_555 1_555

#END
