
#######################################################################
#
#                 Cambridge Crystallographic Data Centre
#                                CCDC 
#
#######################################################################
#
# If this CIF has been generated from an entry in the Cambridge 
# Structural Database, then it will include bibliographic, chemical, 
# crystal, experimental, refinement or atomic coordinate data resulting 
# from the CCDC's data processing and validation procedures.
#
#######################################################################

data_KEZHIG
_symmetry_cell_setting           tetragonal
_symmetry_space_group_name_H-M   'P 42/n'
_symmetry_Int_Tables_number      86
_space_group_name_Hall           '-P 4bc'
loop_
_symmetry_equiv_pos_site_id
_symmetry_equiv_pos_as_xyz
1 x,y,z
2 -y,1/2+x,1/2+z
3 1/2-x,1/2-y,z
4 1/2+y,-x,1/2+z
5 -x,-y,-z
6 y,1/2-x,1/2-z
7 1/2+x,1/2+y,-z
8 1/2-y,x,1/2-z
_cell_length_a                   8.7649(3)
_cell_length_b                   8.7649(3)
_cell_length_c                   12.7907(4)
_cell_angle_alpha                90
_cell_angle_beta                 90
_cell_angle_gamma                90
_cell_volume                     982.626
loop_
_atom_site_label
_atom_site_type_symbol
_atom_site_fract_x
_atom_site_fract_y
_atom_site_fract_z
Tb1 Tb 0.7500 0.2500 0.28933(4)
O2 O 0.7500 0.2500 0.4822(6)
O3 O 0.6249(8) 0.0277(8) 0.3557(6)
O4 O 0.8411(7) 0.0486(7) 0.1780(5)
O5 O 0.9809(7) 0.1319(7) 0.3509(5)
O6 O 0.5425(8) 0.1588(8) 0.1702(6)
C1 C 0.5221(8) -0.0332(9) 0.2987(7)
C2 C 1.047(1) 0.023(2) 0.3054(8)
H3 H 0.77(2) 0.14(1) 0.506(9)
O3B O 0.8751(8) 0.4723(8) 0.3557(6)
O4B O 0.6589(7) 0.4514(7) 0.1780(5)
O5B O 0.5191(7) 0.3681(7) 0.3509(5)
O6B O 0.9575(8) 0.3412(8) 0.1702(6)
H3B H 0.73(2) 0.36(1) 0.506(9)
C1E C 0.9668(9) -0.0221(8) 0.2013(7)
C2G C 0.477(2) 0.047(1) 0.1946(8)
O4G O 0.4514(7) -0.1589(7) 0.3220(5)
O6E O 1.1588(8) -0.0425(8) 0.3298(6)
O3E O 1.0277(8) -0.1249(8) 0.1443(6)
O5G O 0.3681(7) -0.0191(7) 0.1491(5)
Tb1E Tb 0.2500 -0.2500 0.21067(4)
Tb1E_2 Tb 1.2500 -0.2500 0.21067(4)
O1 O 0.3797(9) 0.3002(9) 0.5294(6)
H1 H 0.41(1) 0.21(1) 0.56(1)
H2 H 0.42(1) 0.30(1) 0.46(1)
H4 H 0.250 0.250 0.526
O1B O 0.1203(9) 0.1998(9) 0.5294(6)
H1B H 0.09(1) 0.29(1) 0.56(1)
H2B H 0.08(1) 0.20(1) 0.46(1)
loop_
_geom_bond_atom_site_label_1
_geom_bond_atom_site_label_2
_geom_bond_site_symmetry_1
_geom_bond_site_symmetry_2
Tb1 O2 1_555 1_555
O1 H1 1_555 1_555
O2 H3 1_555 1_555
O3 Tb1 1_555 1_555
O4 Tb1 1_555 1_555
O5 Tb1 1_555 1_555
O6 Tb1 1_555 1_555
C1 O3 1_555 1_555
C2 O5 1_555 1_555
H2 O1 1_555 1_555
H4 O1 1_555 1_555
O3B Tb1 1_555 1_555
O4B Tb1 1_555 1_555
O5B Tb1 1_555 1_555
O6B Tb1 1_555 1_555
H3B O2 1_555 1_555
C1E O4 1_555 1_555
C2G O6 1_555 1_555
O4G C1 1_555 1_555
O6E C2 1_555 1_555
O3E C1E 1_555 1_555
O5G C2G 1_555 1_555
Tb1E O4G 1_555 1_555
Tb1E_2 O6E 1_555 1_555
O1B H4 1_555 1_555
H1B O1B 1_555 1_555
H2B O1B 1_555 1_555
C1 C2G 1_555 1_555
C2 C1E 1_555 1_555
O3E Tb1E_2 1_555 1_555
O5G Tb1E 1_555 1_555

#END
