
#######################################################################
#
#                 Cambridge Crystallographic Data Centre
#                                CCDC 
#
#######################################################################
#
# If this CIF has been generated from an entry in the Cambridge 
# Structural Database, then it will include bibliographic, chemical, 
# crystal, experimental, refinement or atomic coordinate data resulting 
# from the CCDC's data processing and validation procedures.
#
#######################################################################

data_KEZNOT
_symmetry_cell_setting           triclinic
_symmetry_space_group_name_H-M   'P -1'
_symmetry_Int_Tables_number      2
_space_group_name_Hall           '-P 1'
loop_
_symmetry_equiv_pos_site_id
_symmetry_equiv_pos_as_xyz
1 x,y,z
2 -x,-y,-z
_cell_length_a                   12.4710(4)
_cell_length_b                   13.9230(6)
_cell_length_c                   15.7040(6)
_cell_angle_alpha                67.2900(17)
_cell_angle_beta                 68.226(2)
_cell_angle_gamma                85.4110(19)
_cell_volume                     2329.52
loop_
_atom_site_label
_atom_site_type_symbol
_atom_site_fract_x
_atom_site_fract_y
_atom_site_fract_z
Cl1 Cl 0.88814(7) 0.32313(8) 0.37963(7)
O3 O 0.8412(3) 0.3646(3) 0.3050(3)
O4 O 0.8319(3) 0.2212(2) 0.4468(2)
O5 O 1.0093(2) 0.3179(3) 0.3365(3)
O6 O 0.8690(3) 0.3920(2) 0.4314(2)
N21 N 0.7605(4) 0.6582(4) 0.5647(4)
C29 C 0.7368(4) 0.6737(4) 0.6333(4)
C30 C 0.7070(5) 0.6940(5) 0.7243(4)
H29 H 0.7692 0.6732 0.7503
H30 H 0.6346 0.6537 0.7741
H31 H 0.6973 0.7686 0.7091
N22 N 0.6384(4) 0.0345(4) 0.3780(4)
C31 C 0.6883(4) 0.0073(3) 0.4293(3)
C32 C 0.7546(4) -0.0272(4) 0.4918(3)
H32 H 0.7826 -0.0955 0.4937
H33 H 0.7058 -0.0328 0.5591
H34 H 0.8208 0.0233 0.4653
Fe1 Fe 0.5000 0.5000 0.5000
Fe2 Fe 1.5000 1.0000 0.0000
Mn1 Mn 0.98417(4) 0.77403(4) 0.21422(3)
O1 O 0.94074(17) 0.90277(18) 0.22479(16)
O2 O 0.94722(17) 0.80254(18) 0.10091(16)
N1 N 1.0281(2) 0.6321(2) 0.2201(2)
N2 N 1.0300(2) 0.7296(2) 0.3311(2)
N3 N 0.4174(2) 0.7037(2) 0.41239(19)
N4 N 0.4105(2) 0.6002(2) 0.42624(19)
N5 N 0.3080(2) 0.6904(2) 0.3335(2)
N6 N 0.6332(2) 0.6070(2) 0.41816(18)
N7 N 0.61700(19) 0.7088(2) 0.40764(18)
N8 N 0.8004(2) 0.7026(2) 0.32294(19)
N9 N 0.4522(2) 0.5689(2) 0.59917(19)
N10 N 0.4526(2) 0.6764(2) 0.56506(19)
N11 N 0.4039(2) 0.6190(2) 0.7272(2)
N12 N 1.3429(2) 0.9377(2) 0.03925(18)
N13 N 1.2894(2) 0.9699(2) -0.02900(18)
N14 N 1.1672(2) 0.8548(2) 0.10798(19)
N15 N 1.5456(2) 0.9760(2) -0.12414(19)
N16 N 1.4709(2) 0.9972(2) -0.17458(19)
N17 N 1.6226(2) 0.9333(3) -0.2580(2)
N18 N 1.4529(2) 1.1372(2) -0.06874(18)
N19 N 1.3909(2) 1.1462(2) -0.12856(19)
N20 N 1.4273(2) 1.3062(2) -0.1429(2)
C1 C 1.0404(3) 0.6164(3) 0.3735(3)
H1 H 0.9634 0.5795 0.4183
H2 H 1.0914 0.6009 0.4120
C2 C 1.0916(3) 0.5813(3) 0.2874(3)
H3 H 1.1753 0.6031 0.2525
H4 H 1.0815 0.5044 0.3113
C3 C 0.9982(3) 0.5826(3) 0.1772(3)
H5 H 1.0171 0.5121 0.1911
C4 C 0.9379(3) 0.6262(3) 0.1095(2)
C5 C 0.9010(3) 0.5583(3) 0.0765(3)
H6 H 0.9119 0.4859 0.1029
C6 C 0.8500(4) 0.5941(4) 0.0077(3)
H7 H 0.8242 0.5470 -0.0124
C7 C 0.8365(3) 0.7002(3) -0.0326(3)
H8 H 0.8038 0.7258 -0.0824
C8 C 0.8699(3) 0.7690(3) -0.0014(2)
H9 H 0.8594 0.8412 -0.0297
C9 C 0.9196(3) 0.7332(3) 0.0722(2)
C10 C 0.9825(2) 0.9522(3) 0.2648(2)
C11 C 0.9722(3) 1.0592(3) 0.2380(3)
H10 H 0.9382 1.0949 0.1903
C12 C 1.0101(3) 1.1147(3) 0.2790(3)
H11 H 1.0015 1.1876 0.2593
C13 C 1.0611(3) 1.0651(3) 0.3490(3)
H12 H 1.0871 1.1037 0.3769
C14 C 1.0729(3) 0.9592(3) 0.3770(3)
H13 H 1.1066 0.9248 0.4252
C15 C 1.0355(3) 0.9011(3) 0.3351(2)
C16 C 1.0481(2) 0.7905(3) 0.3698(2)
H14 H 1.0713 0.7601 0.4252
C17 C 0.7446(2) 0.6070(3) 0.3661(2)
H15 H 0.7812 0.5463 0.3599
C18 C 0.7184(2) 0.7636(3) 0.3511(2)
H16 H 0.7308 0.8364 0.3332
C19 C 0.4226(3) 0.5389(3) 0.6963(2)
H17 H 0.4152 0.4678 0.7401
C20 C 0.4235(3) 0.7018(3) 0.6435(3)
H18 H 0.4173 0.7716 0.6400
C21 C 0.3555(3) 0.7540(3) 0.3564(2)
H19 H 0.3468 0.8270 0.3355
C22 C 0.3438(2) 0.5964(3) 0.3787(2)
H20 H 0.3228 0.5336 0.3764
C23 C 1.2665(2) 0.8679(3) 0.1204(2)
H21 H 1.2798 0.8314 0.1802
C24 C 1.1850(3) 0.9194(3) 0.0149(2)
H22 H 1.1304 0.9283 -0.0161
C25 C 1.6343(3) 0.9394(3) -0.1776(2)
H23 H 1.7009 0.9189 -0.1611
C26 C 1.5186(3) 0.9695(3) -0.2520(2)
H24 H 1.4831 0.9749 -0.2975
C27 C 1.4721(3) 1.2342(3) -0.0808(2)
H25 H 1.5139 1.2521 -0.0486
C28 C 1.3784(3) 1.2470(3) -0.1698(2)
H26 H 1.3384 1.2744 -0.2142
B1 B 0.4926(3) 0.7408(3) 0.4541(3)
B2 B 1.3573(3) 1.0464(3) -0.1357(3)
H27 H 0.491(3) 0.823(3) 0.438(2)
H28 H 1.304(3) 1.057(3) -0.181(2)
Mn1A Mn 0.01583(4) 0.22597(4) 0.78578(3)
Mn1A_2 Mn 2.01583(4) 1.22597(4) -0.21422(3)
O1A O 0.05926(17) 0.09723(18) 0.77521(16)
O2A O 0.05278(17) 0.19746(18) 0.89909(16)
N1A N -0.0281(2) 0.3679(2) 0.7799(2)
N2A N -0.0300(2) 0.2704(2) 0.6689(2)
N3A N 0.5826(2) 0.2963(2) 0.58761(19)
N4A N 0.5895(2) 0.3998(2) 0.57376(19)
N5A N 0.6920(2) 0.3096(2) 0.6665(2)
N6A N 0.3668(2) 0.3930(2) 0.58184(18)
N7A N 0.38300(19) 0.2912(2) 0.59236(18)
N8A N 0.1996(2) 0.2974(2) 0.67706(19)
N9A N 0.5478(2) 0.4311(2) 0.40083(19)
N10A N 0.5474(2) 0.3236(2) 0.43494(19)
N11A N 0.5961(2) 0.3810(2) 0.2728(2)
N12A N 1.6571(2) 1.0623(2) -0.03925(18)
N13A N 1.7106(2) 1.0301(2) 0.02900(18)
N14A N -0.1672(2) 0.1452(2) 0.89202(19)
N14A_2 N 1.8328(2) 1.1452(2) -0.10798(19)
N15A N 1.4544(2) 1.0240(2) 0.12414(19)
N16A N 1.5291(2) 1.0028(2) 0.17458(19)
N17A N 1.3774(2) 1.0667(3) 0.2580(2)
N18A N 1.5471(2) 0.8628(2) 0.06874(18)
N19A N 1.6091(2) 0.8538(2) 0.12856(19)
N20A N 1.5727(2) 0.6938(2) 0.1429(2)
C1A C -0.0404(3) 0.3836(3) 0.6265(3)
H1A H 0.0366 0.4205 0.5817
H2A H -0.0914 0.3991 0.5880
C2A C -0.0916(3) 0.4187(3) 0.7126(3)
H3A H -0.1753 0.3969 0.7475
H4A H -0.0815 0.4956 0.6887
C3A C 0.0018(3) 0.4174(3) 0.8228(3)
H5A H -0.0171 0.4879 0.8089
C4A C 0.0621(3) 0.3738(3) 0.8905(2)
C5A C 0.0990(3) 0.4417(3) 0.9235(3)
H6A H 0.0881 0.5141 0.8971
C6A C 0.1500(4) 0.4059(4) 0.9923(3)
H7A H 0.1758 0.4530 1.0124
C7A C 0.1635(3) 0.2998(3) 1.0326(3)
H8A H 0.1962 0.2742 1.0824
C8A C 0.1301(3) 0.2310(3) 1.0014(2)
H9A H 0.1406 0.1588 1.0297
C9A C 0.0804(3) 0.2668(3) 0.9278(2)
C10A C 0.0175(2) 0.0478(3) 0.7352(2)
C11A C 0.0278(3) -0.0592(3) 0.7620(3)
H10A H 0.0618 -0.0949 0.8097
C12A C -0.0101(3) -0.1147(3) 0.7210(3)
H11A H -0.0015 -0.1876 0.7407
C13A C -0.0611(3) -0.0651(3) 0.6510(3)
H12A H -0.0871 -0.1037 0.6231
C14A C -0.0729(3) 0.0408(3) 0.6230(3)
H13A H -0.1066 0.0752 0.5748
C15A C -0.0355(3) 0.0989(3) 0.6649(2)
C16A C -0.0481(2) 0.2095(3) 0.6302(2)
H14A H -0.0713 0.2399 0.5748
C17A C 0.2554(2) 0.3930(3) 0.6339(2)
H15A H 0.2188 0.4537 0.6401
C18A C 0.2816(2) 0.2364(3) 0.6489(2)
H16A H 0.2692 0.1636 0.6668
C19A C 0.5774(3) 0.4611(3) 0.3037(2)
H17A H 0.5848 0.5322 0.2599
C20A C 0.5765(3) 0.2982(3) 0.3565(3)
H18A H 0.5827 0.2284 0.3600
C21A C 0.6445(3) 0.2460(3) 0.6436(2)
H19A H 0.6532 0.1730 0.6645
C22A C 0.6562(2) 0.4036(3) 0.6213(2)
H20A H 0.6772 0.4664 0.6236
C23A C 1.7335(2) 1.1321(3) -0.1204(2)
H21A H 1.7202 1.1686 -0.1802
C24A C 1.8150(3) 1.0806(3) -0.0149(2)
H22A H 1.8696 1.0717 0.0161
C25A C 1.3657(3) 1.0606(3) 0.1776(2)
H23A H 1.2991 1.0811 0.1611
C26A C 1.4814(3) 1.0305(3) 0.2520(2)
H24A H 1.5169 1.0251 0.2975
C27A C 1.5279(3) 0.7658(3) 0.0808(2)
H25A H 1.4861 0.7479 0.0486
C28A C 1.6216(3) 0.7530(3) 0.1698(2)
H26A H 1.6616 0.7256 0.2142
B1A B 0.5074(3) 0.2592(3) 0.5459(3)
B2A B 1.6427(3) 0.9536(3) 0.1357(3)
H27A H 0.509(3) 0.177(3) 0.562(2)
H28A H 1.696(3) 0.943(3) 0.181(2)
loop_
_geom_bond_atom_site_label_1
_geom_bond_atom_site_label_2
_geom_bond_site_symmetry_1
_geom_bond_site_symmetry_2
Fe1 N4 1_555 1_555
Fe2 N12 1_555 1_555
Mn1 O1 1_555 1_555
O1 C10 1_555 1_555
O2 Mn1 1_555 1_555
N1 Mn1 1_555 1_555
N2 Mn1 1_555 1_555
N3 N4 1_555 1_555
N4 C22 1_555 1_555
N5 C21 1_555 1_555
N6 Fe1 1_555 1_555
N7 N6 1_555 1_555
N8 Mn1 1_555 1_555
N9 Fe1 1_555 1_555
N10 N9 1_555 1_555
N11 C19 1_555 1_555
N12 N13 1_555 1_555
N13 C24 1_555 1_555
N14 Mn1 1_555 1_555
N15 Fe2 1_555 1_555
N16 N15 1_555 1_555
N17 C25 1_555 1_555
N18 Fe2 1_555 1_555
N19 N18 1_555 1_555
N20 C27 1_555 1_555
C1 N2 1_555 1_555
H1 C1 1_555 1_555
H2 C1 1_555 1_555
C2 N1 1_555 1_555
H3 C2 1_555 1_555
H4 C2 1_555 1_555
C3 N1 1_555 1_555
H5 C3 1_555 1_555
C4 C3 1_555 1_555
C5 C4 1_555 1_555
H6 C5 1_555 1_555
C6 C5 1_555 1_555
H7 C6 1_555 1_555
C7 C6 1_555 1_555
H8 C7 1_555 1_555
C8 C7 1_555 1_555
H9 C8 1_555 1_555
C9 O2 1_555 1_555
C10 C11 1_555 1_555
C11 H10 1_555 1_555
C12 C11 1_555 1_555
H11 C12 1_555 1_555
C13 C12 1_555 1_555
H12 C13 1_555 1_555
C14 C13 1_555 1_555
H13 C14 1_555 1_555
C15 C10 1_555 1_555
C16 N2 1_555 1_555
H14 C16 1_555 1_555
C17 N6 1_555 1_555
H15 C17 1_555 1_555
C18 N7 1_555 1_555
H16 C18 1_555 1_555
C19 N9 1_555 1_555
H17 C19 1_555 1_555
C20 N10 1_555 1_555
H18 C20 1_555 1_555
C21 N3 1_555 1_555
H19 C21 1_555 1_555
C22 N5 1_555 1_555
H20 C22 1_555 1_555
C23 N12 1_555 1_555
H21 C23 1_555 1_555
C24 N14 1_555 1_555
H22 C24 1_555 1_555
C25 N15 1_555 1_555
H23 C25 1_555 1_555
C26 N16 1_555 1_555
H24 C26 1_555 1_555
C27 N18 1_555 1_555
H25 C27 1_555 1_555
C28 N19 1_555 1_555
H26 C28 1_555 1_555
B1 N3 1_555 1_555
B2 N13 1_555 1_555
H27 B1 1_555 1_555
H28 B2 1_555 1_555
Cl1 O3 1_555 1_555
O4 Cl1 1_555 1_555
O5 Cl1 1_555 1_555
O6 Cl1 1_555 1_555
N21 C29 1_555 1_555
C29 C30 1_555 1_555
C30 H29 1_555 1_555
H30 C30 1_555 1_555
H31 C30 1_555 1_555
N22 C31 1_555 1_555
C31 C32 1_555 1_555
C32 H32 1_555 1_555
H33 C32 1_555 1_555
H34 C32 1_555 1_555
Mn1A O1A 1_555 1_555
Mn1A_2 N14A_2 1_555 1_555
O1A C10A 1_555 1_555
O2A Mn1A 1_555 1_555
N1A Mn1A 1_555 1_555
N2A Mn1A 1_555 1_555
N3A N4A 1_555 1_555
N4A Fe1 1_555 1_555
N5A C21A 1_555 1_555
N6A Fe1 1_555 1_555
N7A N6A 1_555 1_555
N8A Mn1A 1_555 1_555
N9A Fe1 1_555 1_555
N10A N9A 1_555 1_555
N11A C19A 1_555 1_555
N12A Fe2 1_555 1_555
N13A N12A 1_555 1_555
N14A Mn1A 1_555 1_555
N14A_2 C23A 1_555 1_555
N15A Fe2 1_555 1_555
N16A N15A 1_555 1_555
N17A C25A 1_555 1_555
N18A Fe2 1_555 1_555
N19A N18A 1_555 1_555
N20A C27A 1_555 1_555
C1A N2A 1_555 1_555
H1A C1A 1_555 1_555
H2A C1A 1_555 1_555
C2A N1A 1_555 1_555
H3A C2A 1_555 1_555
H4A C2A 1_555 1_555
C3A N1A 1_555 1_555
H5A C3A 1_555 1_555
C4A C3A 1_555 1_555
C5A C4A 1_555 1_555
H6A C5A 1_555 1_555
C6A C5A 1_555 1_555
H7A C6A 1_555 1_555
C7A C6A 1_555 1_555
H8A C7A 1_555 1_555
C8A C7A 1_555 1_555
H9A C8A 1_555 1_555
C9A O2A 1_555 1_555
C10A C11A 1_555 1_555
C11A H10A 1_555 1_555
C12A C11A 1_555 1_555
H11A C12A 1_555 1_555
C13A C12A 1_555 1_555
H12A C13A 1_555 1_555
C14A C13A 1_555 1_555
H13A C14A 1_555 1_555
C15A C10A 1_555 1_555
C16A N2A 1_555 1_555
H14A C16A 1_555 1_555
C17A N6A 1_555 1_555
H15A C17A 1_555 1_555
C18A N7A 1_555 1_555
H16A C18A 1_555 1_555
C19A N9A 1_555 1_555
H17A C19A 1_555 1_555
C20A N10A 1_555 1_555
H18A C20A 1_555 1_555
C21A N3A 1_555 1_555
H19A C21A 1_555 1_555
C22A N4A 1_555 1_555
H20A C22A 1_555 1_555
C23A N12A 1_555 1_555
H21A C23A 1_555 1_555
C24A N13A 1_555 1_555
H22A C24A 1_555 1_555
C25A N15A 1_555 1_555
H23A C25A 1_555 1_555
C26A N16A 1_555 1_555
H24A C26A 1_555 1_555
C27A N18A 1_555 1_555
H25A C27A 1_555 1_555
C28A N19A 1_555 1_555
H26A C28A 1_555 1_555
B1A N3A 1_555 1_555
B2A N13A 1_555 1_555
H27A B1A 1_555 1_555
H28A B2A 1_555 1_555
N7 B1 1_555 1_555
N8 C17 1_555 1_555
N8 C18 1_555 1_555
N10 B1 1_555 1_555
N11 C20 1_555 1_555
N14 C23 1_555 1_555
N16 B2 1_555 1_555
N17 C26 1_555 1_555
N19 B2 1_555 1_555
N20 C28 1_555 1_555
C1 C2 1_555 1_555
C4 C9 1_555 1_555
C8 C9 1_555 1_555
C14 C15 1_555 1_555
C15 C16 1_555 1_555
N5A C22A 1_555 1_555
N7A B1A 1_555 1_555
N8A C17A 1_555 1_555
N8A C18A 1_555 1_555
N10A B1A 1_555 1_555
N11A C20A 1_555 1_555
N14A_2 C24A 1_555 1_555
N16A B2A 1_555 1_555
N17A C26A 1_555 1_555
N19A B2A 1_555 1_555
N20A C28A 1_555 1_555
C1A C2A 1_555 1_555
C4A C9A 1_555 1_555
C8A C9A 1_555 1_555
C14A C15A 1_555 1_555
C15A C16A 1_555 1_555

#END
