
#######################################################################
#
#                 Cambridge Crystallographic Data Centre
#                                CCDC 
#
#######################################################################
#
# If this CIF has been generated from an entry in the Cambridge 
# Structural Database, then it will include bibliographic, chemical, 
# crystal, experimental, refinement or atomic coordinate data resulting 
# from the CCDC's data processing and validation procedures.
#
#######################################################################

data_KEZPIP
_symmetry_cell_setting           orthorhombic
_symmetry_space_group_name_H-M   'C m c m'
_symmetry_Int_Tables_number      63
_space_group_name_Hall           '-C 2n 2'
loop_
_symmetry_equiv_pos_site_id
_symmetry_equiv_pos_as_xyz
1 x,y,z
2 1/2+x,1/2+y,z
3 -x,-y,1/2+z
4 -x,y,1/2-z
5 x,-y,-z
6 1/2-x,1/2-y,1/2+z
7 1/2-x,1/2+y,1/2-z
8 1/2+x,1/2-y,-z
9 -x,-y,-z
10 1/2-x,1/2-y,-z
11 x,y,1/2-z
12 x,-y,1/2+z
13 -x,y,z
14 1/2+x,1/2+y,1/2-z
15 1/2+x,1/2-y,1/2+z
16 1/2-x,1/2+y,z
_cell_length_a                   12.694(4)
_cell_length_b                   13.983(4)
_cell_length_c                   21.823(7)
_cell_angle_alpha                90
_cell_angle_beta                 90
_cell_angle_gamma                90
_cell_volume                     3873.59
loop_
_atom_site_label
_atom_site_type_symbol
_atom_site_fract_x
_atom_site_fract_y
_atom_site_fract_z
Cu1 Cu 1.0000 0.79604(12) 0.2500
Cu2 Cu 1.0000 0.60698(11) 0.2500
S1 S 0.5000 0.6968(2) 0.51412(10)
O1 O 0.8894(4) 0.7807(3) 0.3137(2)
O2 O 0.8916(4) 0.6207(3) 0.3137(2)
O3 O 0.5000 0.6061(6) 0.5459(3)
O4 O 0.5000 0.7843(5) 0.5484(3)
N1 N 1.0000 1.4552(8) 0.2500
N2 N 1.0000 0.9459(8) 0.2500
C1 C 0.8582(5) 0.7006(5) 0.3324(3)
C2 C 0.7727(5) 0.7006(6) 0.3798(3)
C3 C 0.7322(7) 0.6143(5) 0.4010(4)
H1 H 0.7603 0.5569 0.3869
C4 C 0.6504(7) 0.6134(5) 0.4430(4)
H2 H 0.6235 0.5555 0.4570
C5 C 0.6089(5) 0.6981(5) 0.4638(3)
C6 C 0.6486(6) 0.7844(5) 0.4436(3)
H3 H 0.6210 0.8416 0.4581
C7 C 0.7305(6) 0.7849(5) 0.4012(3)
H4 H 0.7570 0.8429 0.3871
C8 C 1.0886(10) 1.4052(7) 0.2500
H5 H 1.1521 1.4384 0.2500
C9 C 1.0917(9) 1.3056(8) 0.2500
H6 H 1.1562 1.2739 0.2500
C10 C 1.0000 1.2547(9) 0.2500
C11 C 1.0000 1.1488(9) 0.2500
C12 C 1.0000 1.0972(11) 0.3002(8)
H7 H 1.0000 1.1276 0.3381
C13 C 1.0000 0.9979(9) 0.2976(6)
H8 H 1.0000 0.9660 0.3350
Cu1_2 Cu 0.0000 0.79604(12) 0.2500
Cu2_2 Cu 1.0000 1.60698(11) 0.2500
Cu2_3 Cu 0.0000 0.60698(11) 0.2500
S1J S 0.5000 0.6968(2) -0.01412(10)
O1L O 0.1106(4) 0.7807(3) 0.3137(2)
O1J O 0.8894(4) 0.7807(3) 0.1863(2)
O1C O 0.1106(4) 0.7807(3) 0.1863(2)
O1L_2 O 1.1106(4) 0.7807(3) 0.3137(2)
O1C_2 O 1.1106(4) 0.7807(3) 0.1863(2)
O2L O 0.1084(4) 0.6207(3) 0.3137(2)
O2J O 0.8916(4) 0.6207(3) 0.1863(2)
O2C O 0.1084(4) 0.6207(3) 0.1863(2)
O2L_2 O 1.1084(4) 0.6207(3) 0.3137(2)
O2C_2 O 1.1084(4) 0.6207(3) 0.1863(2)
O3J O 0.5000 0.6061(6) -0.0459(3)
O4J O 0.5000 0.7843(5) -0.0484(3)
N1_2 N 1.0000 0.4552(8) 0.2500
C1L C 0.1418(5) 0.7006(5) 0.3324(3)
C1J C 0.8582(5) 0.7006(5) 0.1676(3)
C1C C 0.1418(5) 0.7006(5) 0.1676(3)
C2L C 0.2273(5) 0.7006(6) 0.3798(3)
C2J C 0.7727(5) 0.7006(6) 0.1202(3)
C2C C 0.2273(5) 0.7006(6) 0.1202(3)
C3L C 0.2678(7) 0.6143(5) 0.4010(4)
C3J C 0.7322(7) 0.6143(5) 0.0990(4)
C3C C 0.2678(7) 0.6143(5) 0.0990(4)
H1L H 0.2397 0.5569 0.3869
H1J H 0.7603 0.5569 0.1131
H1C H 0.2397 0.5569 0.1131
C4L C 0.3496(7) 0.6134(5) 0.4430(4)
C4J C 0.6504(7) 0.6134(5) 0.0570(4)
C4C C 0.3496(7) 0.6134(5) 0.0570(4)
H2L H 0.3765 0.5555 0.4570
H2J H 0.6235 0.5555 0.0430
H2C H 0.3765 0.5555 0.0430
C5L C 0.3911(5) 0.6981(5) 0.4638(3)
C5J C 0.6089(5) 0.6981(5) 0.0362(3)
C5C C 0.3911(5) 0.6981(5) 0.0362(3)
C6L C 0.3514(6) 0.7844(5) 0.4436(3)
C6J C 0.6486(6) 0.7844(5) 0.0564(3)
C6C C 0.3514(6) 0.7844(5) 0.0564(3)
H3L H 0.3790 0.8416 0.4581
H3J H 0.6210 0.8416 0.0419
H3C H 0.3790 0.8416 0.0419
C7L C 0.2695(6) 0.7849(5) 0.4012(3)
C7J C 0.7305(6) 0.7849(5) 0.0988(3)
C7C C 0.2695(6) 0.7849(5) 0.0988(3)
H4L H 0.2430 0.8429 0.3871
H4J H 0.7570 0.8429 0.1129
H4C H 0.2430 0.8429 0.1129
C8L C 0.9114(10) 1.4052(7) 0.2500
H5L H 0.8479 1.4384 0.2500
C9L C 0.9083(9) 1.3056(8) 0.2500
H6L H 0.8438 1.2739 0.2500
C12J C 1.0000 1.0972(11) 0.1998(8)
H7J H 1.0000 1.1276 0.1619
C13J C 1.0000 0.9979(9) 0.2024(6)
H8J H 1.0000 0.9660 0.1650
O5 O 0.5000 0.0007(8) 0.5715(6)
H10 H 0.4449 0.0454 0.5609
H10L H 0.5551 0.0454 0.5609
H9? H 0.5000 -0.0153 0.6093
loop_
_geom_bond_atom_site_label_1
_geom_bond_atom_site_label_2
_geom_bond_site_symmetry_1
_geom_bond_site_symmetry_2
Cu1 O1 1_555 1_555
Cu2 O2 1_555 1_555
S1 O3 1_555 1_555
O1 C1 1_555 1_555
O2 C1 1_555 1_555
O4 S1 1_555 1_555
N1 C8 1_555 1_555
N2 Cu1 1_555 1_555
C1 C2 1_555 1_555
C2 C3 1_555 1_555
C3 H1 1_555 1_555
C4 C3 1_555 1_555
H2 C4 1_555 1_555
C5 S1 1_555 1_555
C6 C5 1_555 1_555
H3 C6 1_555 1_555
C7 C2 1_555 1_555
H4 C7 1_555 1_555
C8 H5 1_555 1_555
C9 C8 1_555 1_555
H6 C9 1_555 1_555
C10 C9 1_555 1_555
C11 C10 1_555 1_555
C12 C11 1_555 1_555
H7 C12 1_555 1_555
C13 N2 1_555 1_555
H8 C13 1_555 1_555
O5 H10 1_555 1_555
Cu1_2 O1L 1_555 1_555
Cu2_2 N1 1_555 1_555
Cu2_3 O2L 1_555 1_555
S1J O3J 1_555 1_555
O1L C1L 1_555 1_555
O1J Cu1 1_555 1_555
O1C Cu1_2 1_555 1_555
O1L_2 Cu1 1_555 1_555
O1C_2 Cu1 1_555 1_555
O2L C1L 1_555 1_555
O2J Cu2 1_555 1_555
O2C Cu2_3 1_555 1_555
O2L_2 Cu2 1_555 1_555
O2C_2 Cu2 1_555 1_555
O4J S1J 1_555 1_555
N1_2 Cu2 1_555 1_555
C1L C2L 1_555 1_555
C1J O1J 1_555 1_555
C1C O1C 1_555 1_555
C2L C3L 1_555 1_555
C2J C1J 1_555 1_555
C2C C1C 1_555 1_555
C3L H1L 1_555 1_555
C3J C2J 1_555 1_555
C3C C2C 1_555 1_555
H1J C3J 1_555 1_555
H1C C3C 1_555 1_555
C4L C3L 1_555 1_555
C4J C3J 1_555 1_555
C4C C3C 1_555 1_555
H2L C4L 1_555 1_555
H2J C4J 1_555 1_555
H2C C4C 1_555 1_555
C5L S1 1_555 1_555
C5J S1J 1_555 1_555
C5C S1J 1_555 1_555
C6L C5L 1_555 1_555
C6J C5J 1_555 1_555
C6C C5C 1_555 1_555
H3L C6L 1_555 1_555
H3J C6J 1_555 1_555
H3C C6C 1_555 1_555
C7L C2L 1_555 1_555
C7J C2J 1_555 1_555
C7C C2C 1_555 1_555
H4L C7L 1_555 1_555
H4J C7J 1_555 1_555
H4C C7C 1_555 1_555
C8L N1 1_555 1_555
H5L C8L 1_555 1_555
C9L C10 1_555 1_555
H6L C9L 1_555 1_555
C12J C11 1_555 1_555
H7J C12J 1_555 1_555
C13J N2 1_555 1_555
H8J C13J 1_555 1_555
H10L O5 1_555 1_555
C4 C5 1_555 1_555
C6 C7 1_555 1_555
C12 C13 1_555 1_555
O2J C1J 1_555 1_555
O2C C1C 1_555 1_555
C4L C5L 1_555 1_555
C4J C5J 1_555 1_555
C4C C5C 1_555 1_555
C6L C7L 1_555 1_555
C6J C7J 1_555 1_555
C6C C7C 1_555 1_555
C8L C9L 1_555 1_555
C12J C13J 1_555 1_555

#END
