
#######################################################################
#
#                 Cambridge Crystallographic Data Centre
#                                CCDC 
#
#######################################################################
#
# If this CIF has been generated from an entry in the Cambridge 
# Structural Database, then it will include bibliographic, chemical, 
# crystal, experimental, refinement or atomic coordinate data resulting 
# from the CCDC's data processing and validation procedures.
#
#######################################################################

data_KEZQUC
_symmetry_cell_setting           monoclinic
_symmetry_space_group_name_H-M   'P 2/n'
_symmetry_Int_Tables_number      13
_space_group_name_Hall           '-P 2yac'
loop_
_symmetry_equiv_pos_site_id
_symmetry_equiv_pos_as_xyz
1 x,y,z
2 1/2-x,y,1/2-z
3 -x,-y,-z
4 1/2+x,-y,1/2+z
_cell_length_a                   9.7423(3)
_cell_length_b                   7.9262(3)
_cell_length_c                   13.5410(6)
_cell_angle_alpha                90
_cell_angle_beta                 91.571(3)
_cell_angle_gamma                90
_cell_volume                     1045.24
loop_
_atom_site_label
_atom_site_type_symbol
_atom_site_fract_x
_atom_site_fract_y
_atom_site_fract_z
Cu1 Cu 0.0000 0.0000 0.00000
O1 O -0.1270(2) -0.4041(3) 0.12782(15)
O2 O 0.0182(2) -0.2326(2) -0.06201(15)
O3 O 0.0208(2) -0.0301(3) 0.28340(15)
O4 O 0.2029(2) -0.0424(3) 0.08384(14)
O5 O -0.1143(2) -0.0711(3) 0.11124(15)
C1 C -0.0570(3) -0.4565(4) 0.0583(2)
C2 C 0.0076(2) -0.3790(3) -0.02662(19)
C3 C 0.1457(3) -0.0334(3) 0.2644(2)
C4 C 0.2271(3) -0.0364(3) 0.1756(2)
H10 H -0.129(4) -0.175(6) 0.111(3)
H11 H -0.087(4) -0.037(5) 0.160(3)
Cu1_2 Cu 0.0000 -1.0000 0.00000
Cu1C Cu 0.5000 0.0000 0.50000
O1B O 0.1270(2) -0.5959(3) -0.12782(15)
O2B O -0.0182(2) -0.7674(2) 0.06201(15)
O2B_2 O -0.0182(2) 0.2326(2) 0.06201(15)
O3A O 0.4792(2) -0.0301(3) 0.21660(15)
O4A O 0.2971(2) -0.0424(3) 0.41616(14)
O4B O -0.2029(2) 0.0424(3) -0.08384(14)
O5B O 0.1143(2) 0.0711(3) -0.11124(15)
C1B C 0.0570(3) -0.5435(4) -0.0583(2)
C2B C -0.0076(2) -0.6210(3) 0.02662(19)
C3A C 0.3543(3) -0.0334(3) 0.2356(2)
C4A C 0.2729(3) -0.0364(3) 0.3244(2)
H10B H 0.129(4) 0.175(6) -0.111(3)
H11B H 0.087(4) 0.037(5) -0.160(3)
N1 N -0.1128(3) -0.8014(3) 0.4697(2)
C5 C -0.1580(3) -0.7297(4) 0.3861(2)
H1 H -0.247 -0.7501 0.3626
C6 C -0.0734(3) -0.6260(4) 0.3350(2)
H2 H -0.1054 -0.5746 0.2771
C7 C 0.0602(3) -0.5971(3) 0.36925(19)
C8 C 0.1022(3) -0.6788(4) 0.4563(2)
H3 H 0.1916 -0.6647 0.4807
C9 C 0.0137(3) -0.7791(4) 0.5058(2)
H4 H 0.0418 -0.8314 0.5644
C10 C 0.1567(3) -0.4888(3) 0.3138(2)
H5 H 0.2123 -0.423 0.3601
H6 H 0.1046 -0.411 0.2721
C11 C 0.2500 -0.5949(5) 0.25000
H7 H 0.3063 -0.667 0.2925
H8 H 0.1937 -0.667 0.2075
H9 H -0.170(5) -0.851(6) 0.501(3)
N1A N 0.6128(3) -0.8014(3) 0.0303(2)
C5A C 0.6580(3) -0.7297(4) 0.1139(2)
H1A H 0.747 -0.7501 0.1374
C6A C 0.5734(3) -0.6260(4) 0.1650(2)
H2A H 0.6054 -0.5746 0.2229
C7A C 0.4398(3) -0.5971(3) 0.13075(19)
C8A C 0.3978(3) -0.6788(4) 0.0437(2)
H3A H 0.3084 -0.6647 0.0193
C9A C 0.4863(3) -0.7791(4) -0.0058(2)
H4A H 0.4582 -0.8314 -0.0644
C10A C 0.3433(3) -0.4888(3) 0.1862(2)
H5A H 0.2877 -0.423 0.1399
H6A H 0.3954 -0.411 0.2279
H9A H 0.670(5) -0.851(6) -0.001(3)
loop_
_geom_bond_atom_site_label_1
_geom_bond_atom_site_label_2
_geom_bond_site_symmetry_1
_geom_bond_site_symmetry_2
Cu1 O2 1_555 1_555
O1 C1 1_555 1_555
O2 C2 1_555 1_555
O3 C3 1_555 1_555
O4 Cu1 1_555 1_555
O5 Cu1 1_555 1_555
N1 C5 1_555 1_555
C1 C2 1_555 1_555
C2 C1B 1_555 1_555
C3 C4 1_555 1_555
C4 O4 1_555 1_555
C5 H1 1_555 1_555
C6 C5 1_555 1_555
H2 C6 1_555 1_555
C7 C6 1_555 1_555
C8 C7 1_555 1_555
H3 C8 1_555 1_555
C9 N1 1_555 1_555
H4 C9 1_555 1_555
C10 C7 1_555 1_555
H5 C10 1_555 1_555
H6 C10 1_555 1_555
C11 C10 1_555 1_555
H7 C11 1_555 1_555
H8 C11 1_555 1_555
H9 N1 1_555 1_555
H10 O5 1_555 1_555
H11 O5 1_555 1_555
Cu1_2 O2B 1_555 1_555
Cu1C O4A 1_555 1_555
O1B C1B 1_555 1_555
O2B C2B 1_555 1_555
O2B_2 Cu1 1_555 1_555
O3A C3A 1_555 1_555
O4A C4A 1_555 1_555
O4B Cu1 1_555 1_555
O5B Cu1 1_555 1_555
N1A C5A 1_555 1_555
C1B C2B 1_555 1_555
C2B C1 1_555 1_555
C3A C4 1_555 1_555
C4A C3 1_555 1_555
C5A H1A 1_555 1_555
C6A C5A 1_555 1_555
H2A C6A 1_555 1_555
C7A C6A 1_555 1_555
C8A C7A 1_555 1_555
H3A C8A 1_555 1_555
C9A N1A 1_555 1_555
H4A C9A 1_555 1_555
C10A C11 1_555 1_555
H5A C10A 1_555 1_555
H6A C10A 1_555 1_555
H9A N1A 1_555 1_555
H10B O5B 1_555 1_555
H11B O5B 1_555 1_555
C8 C9 1_555 1_555
C3A C4A 1_555 1_555
C7A C10A 1_555 1_555
C8A C9A 1_555 1_555

#END
