
#######################################################################
#
#                 Cambridge Crystallographic Data Centre
#                                CCDC 
#
#######################################################################
#
# If this CIF has been generated from an entry in the Cambridge 
# Structural Database, then it will include bibliographic, chemical, 
# crystal, experimental, refinement or atomic coordinate data resulting 
# from the CCDC's data processing and validation procedures.
#
#######################################################################

data_KEZQEM
_symmetry_cell_setting           monoclinic
_symmetry_space_group_name_H-M   'P 2/n'
_symmetry_Int_Tables_number      13
_space_group_name_Hall           '-P 2yac'
loop_
_symmetry_equiv_pos_site_id
_symmetry_equiv_pos_as_xyz
1 x,y,z
2 1/2-x,y,1/2-z
3 -x,-y,-z
4 1/2+x,-y,1/2+z
_cell_length_a                   9.6729(3)
_cell_length_b                   8.1471(3)
_cell_length_c                   13.4765(6)
_cell_angle_alpha                90
_cell_angle_beta                 91.773(2)
_cell_angle_gamma                90
_cell_volume                     1061.52
loop_
_atom_site_label
_atom_site_type_symbol
_atom_site_fract_x
_atom_site_fract_y
_atom_site_fract_z
Mn1 Mn 0.00000 0.00000 0.00000
O1 O -0.12950(19) -0.4056(2) 0.12746(13)
O2 O 0.01493(18) -0.24110(19) -0.06419(13)
O3 O 0.02223(18) -0.0308(2) 0.29083(13)
O4 O 0.19446(17) -0.0443(2) 0.08388(12)
O5 O -0.13108(18) -0.0754(2) 0.12193(13)
C1 C -0.0579(2) -0.4568(3) 0.05794(18)
C2 C 0.0061(2) -0.3831(3) -0.02785(17)
C3 C 0.1455(2) -0.0340(3) 0.26747(17)
C4 C 0.2230(2) -0.0374(3) 0.17590(17)
H10 H -0.148(4) -0.190(6) 0.124(3)
H11 H -0.096(4) -0.060(6) 0.178(3)
Mn1_2 Mn 0.00000 -1.00000 0.00000
Mn1C Mn 0.50000 0.00000 0.50000
O1B O 0.12950(19) -0.5944(2) -0.12746(13)
O2B O -0.01493(18) -0.75890(19) 0.06419(13)
O2B_2 O -0.01493(18) 0.24110(19) 0.06419(13)
O3A O 0.47777(18) -0.0308(2) 0.20917(13)
O4A O 0.30554(17) -0.0443(2) 0.41612(12)
O4B O -0.19446(17) 0.0443(2) -0.08388(12)
O5B O 0.13108(18) 0.0754(2) -0.12193(13)
C1B C 0.0579(2) -0.5432(3) -0.05794(18)
C2B C -0.0061(2) -0.6169(3) 0.02785(17)
C3A C 0.3545(2) -0.0340(3) 0.23253(17)
C4A C 0.2770(2) -0.0374(3) 0.32410(17)
H10B H 0.148(4) 0.190(6) -0.124(3)
H11B H 0.096(4) 0.060(6) -0.178(3)
N1 N -0.1141(3) -0.8004(3) 0.46824(19)
C5 C -0.1601(3) -0.7285(4) 0.3857(2)
H1 H -0.2499 -0.748 0.362
C6 C -0.0756(3) -0.6255(3) 0.3351(2)
H2 H -0.1086 -0.5734 0.2777
C7 C 0.0590(2) -0.5988(3) 0.36927(18)
C8 C 0.1031(3) -0.6808(3) 0.4558(2)
H3 H 0.1934 -0.6675 0.4801
C9 C 0.0147(3) -0.7798(4) 0.5045(2)
H4 H 0.0438 -0.8327 0.5626
C10 C 0.1554(3) -0.4915(3) 0.3139(2)
H5 H 0.2111 -0.4271 0.3606
H6 H 0.1024 -0.4163 0.2718
C11 C 0.25000 -0.5956(4) 0.25000
H7 H 0.3065 -0.6657 0.293
H8 H 0.1935 -0.6657 0.207
H9 H -0.168(4) -0.854(5) 0.499(3)
N1A N 0.6141(3) -0.8004(3) 0.03176(19)
C5A C 0.6601(3) -0.7285(4) 0.1143(2)
H1A H 0.7499 -0.748 0.138
C6A C 0.5756(3) -0.6255(3) 0.1649(2)
H2A H 0.6086 -0.5734 0.2223
C7A C 0.4410(2) -0.5988(3) 0.13073(18)
C8A C 0.3969(3) -0.6808(3) 0.0442(2)
H3A H 0.3066 -0.6675 0.0199
C9A C 0.4853(3) -0.7798(4) -0.0045(2)
H4A H 0.4562 -0.8327 -0.0626
C10A C 0.3446(3) -0.4915(3) 0.1861(2)
H5A H 0.2889 -0.4271 0.1394
H6A H 0.3976 -0.4163 0.2282
H9A H 0.668(4) -0.854(5) 0.001(3)
loop_
_geom_bond_atom_site_label_1
_geom_bond_atom_site_label_2
_geom_bond_site_symmetry_1
_geom_bond_site_symmetry_2
Mn1 O2 1_555 1_555
O1 C1 1_555 1_555
O2 C2 1_555 1_555
O3 C3 1_555 1_555
O4 Mn1 1_555 1_555
O5 Mn1 1_555 1_555
N1 C5 1_555 1_555
C1 C2 1_555 1_555
C2 C1B 1_555 1_555
C3 C4 1_555 1_555
C4 O4 1_555 1_555
C5 H1 1_555 1_555
C6 C5 1_555 1_555
H2 C6 1_555 1_555
C7 C6 1_555 1_555
C8 C7 1_555 1_555
H3 C8 1_555 1_555
C9 N1 1_555 1_555
H4 C9 1_555 1_555
C10 C7 1_555 1_555
H5 C10 1_555 1_555
H6 C10 1_555 1_555
C11 C10 1_555 1_555
H7 C11 1_555 1_555
H8 C11 1_555 1_555
H9 N1 1_555 1_555
H10 O5 1_555 1_555
H11 O5 1_555 1_555
Mn1_2 O2B 1_555 1_555
Mn1C O4A 1_555 1_555
O1B C1B 1_555 1_555
O2B C2B 1_555 1_555
O2B_2 Mn1 1_555 1_555
O3A C3A 1_555 1_555
O4A C4A 1_555 1_555
O4B Mn1 1_555 1_555
O5B Mn1 1_555 1_555
N1A C5A 1_555 1_555
C1B C2B 1_555 1_555
C2B C1 1_555 1_555
C3A C4 1_555 1_555
C4A C3 1_555 1_555
C5A H1A 1_555 1_555
C6A C5A 1_555 1_555
H2A C6A 1_555 1_555
C7A C6A 1_555 1_555
C8A C7A 1_555 1_555
H3A C8A 1_555 1_555
C9A N1A 1_555 1_555
H4A C9A 1_555 1_555
C10A C11 1_555 1_555
H5A C10A 1_555 1_555
H6A C10A 1_555 1_555
H9A N1A 1_555 1_555
H10B O5B 1_555 1_555
H11B O5B 1_555 1_555
C8 C9 1_555 1_555
C3A C4A 1_555 1_555
C7A C10A 1_555 1_555
C8A C9A 1_555 1_555

#END
