
#######################################################################
#
#                 Cambridge Crystallographic Data Centre
#                                CCDC 
#
#######################################################################
#
# If this CIF has been generated from an entry in the Cambridge 
# Structural Database, then it will include bibliographic, chemical, 
# crystal, experimental, refinement or atomic coordinate data resulting 
# from the CCDC's data processing and validation procedures.
#
#######################################################################

data_KEZQOW
_symmetry_cell_setting           monoclinic
_symmetry_space_group_name_H-M   'P 2/n'
_symmetry_Int_Tables_number      13
_space_group_name_Hall           '-P 2yac'
loop_
_symmetry_equiv_pos_site_id
_symmetry_equiv_pos_as_xyz
1 x,y,z
2 1/2-x,y,1/2-z
3 -x,-y,-z
4 1/2+x,-y,1/2+z
_cell_length_a                   9.5262(3)
_cell_length_b                   7.9816(3)
_cell_length_c                   13.4439(4)
_cell_angle_alpha                90
_cell_angle_beta                 93.331(2)
_cell_angle_gamma                90
_cell_volume                     1020.47
loop_
_atom_site_label
_atom_site_type_symbol
_atom_site_fract_x
_atom_site_fract_y
_atom_site_fract_z
Ni1 Ni 0.0000 0.0000 0.00000
O1 O -0.1207(3) -0.4043(3) 0.13083(16)
O2 O 0.0167(3) -0.2344(3) -0.06211(16)
O3 O 0.0198(3) -0.0259(3) 0.28889(17)
O4 O 0.1905(2) -0.0407(3) 0.08249(16)
O5 O -0.1251(2) -0.0711(3) 0.11343(17)
C1 C -0.0539(3) -0.4565(4) 0.0596(2)
C2 C 0.0071(3) -0.3787(4) -0.0265(2)
C3 C 0.1449(4) -0.0301(4) 0.2672(2)
C4 C 0.2207(3) -0.0341(4) 0.1756(2)
H10 H -0.141(8) -0.183(11) 0.115(6)
H11 H -0.087(8) -0.065(10) 0.192(6)
Ni1_2 Ni 0.0000 -1.0000 0.00000
Ni1C Ni 0.5000 0.0000 0.50000
O1B O 0.1207(3) -0.5957(3) -0.13083(16)
O2B O -0.0167(3) -0.7656(3) 0.06211(16)
O2B_2 O -0.0167(3) 0.2344(3) 0.06211(16)
O3A O 0.4802(3) -0.0259(3) 0.21111(17)
O4A O 0.3095(2) -0.0407(3) 0.41751(16)
O4B O -0.1905(2) 0.0407(3) -0.08249(16)
O5B O 0.1251(2) 0.0711(3) -0.11343(17)
C1B C 0.0539(3) -0.5435(4) -0.0596(2)
C2B C -0.0071(3) -0.6213(4) 0.0265(2)
C3A C 0.3551(4) -0.0301(4) 0.2328(2)
C4A C 0.2793(3) -0.0341(4) 0.3244(2)
H10B H 0.141(8) 0.183(11) -0.115(6)
H11B H 0.087(8) 0.065(10) -0.192(6)
N1 N -0.1151(4) -0.8013(4) 0.4682(2)
C5 C -0.1630(4) -0.7268(5) 0.3847(3)
H1 H -0.2549 -0.7451 0.3601
C6 C -0.0765(4) -0.6229(5) 0.3350(2)
H2 H -0.1104 -0.5691 0.2772
C7 C 0.0603(3) -0.5979(4) 0.3703(2)
C8 C 0.1056(4) -0.6816(5) 0.4576(3)
H3 H 0.1978 -0.6688 0.483
C9 C 0.0154(4) -0.7821(5) 0.5059(3)
H4 H 0.0454 -0.8364 0.5645
C10 C 0.1587(4) -0.4889(4) 0.3155(3)
H5 H 0.2184 -0.4262 0.3631
H6 H 0.1047 -0.4094 0.2743
C11 C 0.2500 -0.5954(6) 0.25000
H7 H 0.3103 -0.667 0.2923
H8 H 0.1897 -0.667 0.2077
H9 H -0.154(5) -0.846(6) 0.499(3)
N1A N 0.6151(4) -0.8013(4) 0.0318(2)
C5A C 0.6630(4) -0.7268(5) 0.1153(3)
H1A H 0.7549 -0.7451 0.1399
C6A C 0.5765(4) -0.6229(5) 0.1650(2)
H2A H 0.6104 -0.5691 0.2228
C7A C 0.4397(3) -0.5979(4) 0.1297(2)
C8A C 0.3944(4) -0.6816(5) 0.0424(3)
H3A H 0.3022 -0.6688 0.017
C9A C 0.4846(4) -0.7821(5) -0.0059(3)
H4A H 0.4546 -0.8364 -0.0645
C10A C 0.3413(4) -0.4889(4) 0.1845(3)
H5A H 0.2816 -0.4262 0.1369
H6A H 0.3953 -0.4094 0.2257
H9A H 0.654(5) -0.846(6) 0.001(3)
loop_
_geom_bond_atom_site_label_1
_geom_bond_atom_site_label_2
_geom_bond_site_symmetry_1
_geom_bond_site_symmetry_2
Ni1 O2 1_555 1_555
O1 C1 1_555 1_555
O2 C2 1_555 1_555
O3 C3 1_555 1_555
O4 Ni1 1_555 1_555
O5 Ni1 1_555 1_555
N1 C5 1_555 1_555
C1 C2 1_555 1_555
C2 C1B 1_555 1_555
C3 C4 1_555 1_555
C4 O4 1_555 1_555
C5 H1 1_555 1_555
C6 C5 1_555 1_555
H2 C6 1_555 1_555
C7 C6 1_555 1_555
C8 C7 1_555 1_555
H3 C8 1_555 1_555
C9 N1 1_555 1_555
H4 C9 1_555 1_555
C10 C7 1_555 1_555
H5 C10 1_555 1_555
H6 C10 1_555 1_555
C11 C10 1_555 1_555
H7 C11 1_555 1_555
H8 C11 1_555 1_555
H9 N1 1_555 1_555
H10 O5 1_555 1_555
H11 O5 1_555 1_555
Ni1_2 O2B 1_555 1_555
Ni1C O4A 1_555 1_555
O1B C1B 1_555 1_555
O2B C2B 1_555 1_555
O2B_2 Ni1 1_555 1_555
O3A C3A 1_555 1_555
O4A C4A 1_555 1_555
O4B Ni1 1_555 1_555
O5B Ni1 1_555 1_555
N1A C5A 1_555 1_555
C1B C2B 1_555 1_555
C2B C1 1_555 1_555
C3A C4 1_555 1_555
C4A C3 1_555 1_555
C5A H1A 1_555 1_555
C6A C5A 1_555 1_555
H2A C6A 1_555 1_555
C7A C6A 1_555 1_555
C8A C7A 1_555 1_555
H3A C8A 1_555 1_555
C9A N1A 1_555 1_555
H4A C9A 1_555 1_555
C10A C11 1_555 1_555
H5A C10A 1_555 1_555
H6A C10A 1_555 1_555
H9A N1A 1_555 1_555
H10B O5B 1_555 1_555
H11B O5B 1_555 1_555
C8 C9 1_555 1_555
C3A C4A 1_555 1_555
C7A C10A 1_555 1_555
C8A C9A 1_555 1_555

#END
