
#######################################################################
#
#                 Cambridge Crystallographic Data Centre
#                                CCDC 
#
#######################################################################
#
# If this CIF has been generated from an entry in the Cambridge 
# Structural Database, then it will include bibliographic, chemical, 
# crystal, experimental, refinement or atomic coordinate data resulting 
# from the CCDC's data processing and validation procedures.
#
#######################################################################

data_KEZQIQ
_symmetry_cell_setting           monoclinic
_symmetry_space_group_name_H-M   'P 2/n'
_symmetry_Int_Tables_number      13
_space_group_name_Hall           '-P 2yac'
loop_
_symmetry_equiv_pos_site_id
_symmetry_equiv_pos_as_xyz
1 x,y,z
2 1/2-x,y,1/2-z
3 -x,-y,-z
4 1/2+x,-y,1/2+z
_cell_length_a                   9.5725(4)
_cell_length_b                   8.0321(3)
_cell_length_c                   13.4487(3)
_cell_angle_alpha                90
_cell_angle_beta                 92.775(2)
_cell_angle_gamma                90
_cell_volume                     1032.82
loop_
_atom_site_label
_atom_site_type_symbol
_atom_site_fract_x
_atom_site_fract_y
_atom_site_fract_z
Co1 Co 0.00000 0.00000 0.00000
O1 O -0.1243(2) -0.4041(2) 0.12942(12)
O2 O 0.01588(19) -0.23656(19) -0.06338(12)
O3 O 0.02042(19) -0.0265(2) 0.28963(13)
O4 O 0.19156(18) -0.0408(2) 0.08314(11)
O5 O -0.12555(17) -0.0722(2) 0.11602(11)
C1 C -0.0556(2) -0.4563(3) 0.05889(16)
C2 C 0.0067(2) -0.3803(3) -0.02745(16)
C3 C 0.1447(3) -0.0309(3) 0.26733(16)
C4 C 0.2214(3) -0.0343(3) 0.17525(16)
H10 H -0.140(4) -0.187(6) 0.120(3)
H11 H -0.087(4) -0.055(6) 0.187(3)
Co1_2 Co 0.00000 -1.00000 0.00000
Co1C Co 0.50000 0.00000 0.50000
O1B O 0.1243(2) -0.5959(2) -0.12942(12)
O2B O -0.01588(19) -0.76344(19) 0.06338(12)
O2B_2 O -0.01588(19) 0.23656(19) 0.06338(12)
O3A O 0.47958(19) -0.0265(2) 0.21037(13)
O4A O 0.30844(18) -0.0408(2) 0.41686(11)
O4B O -0.19156(18) 0.0408(2) -0.08314(11)
O5B O 0.12555(17) 0.0722(2) -0.11602(11)
C1B C 0.0556(2) -0.5437(3) -0.05889(16)
C2B C -0.0067(2) -0.6197(3) 0.02745(16)
C3A C 0.3553(3) -0.0309(3) 0.23267(16)
C4A C 0.2786(3) -0.0343(3) 0.32475(16)
H10B H 0.140(4) 0.187(6) -0.120(3)
H11B H 0.087(4) 0.055(6) -0.187(3)
N1 N -0.1155(3) -0.8017(3) 0.46799(18)
C5 C -0.1626(3) -0.7269(4) 0.3848(2)
H1 H -0.2539 -0.7451 0.3605
C6 C -0.0765(3) -0.6230(3) 0.33468(18)
H2 H -0.1098 -0.5697 0.2769
C7 C 0.0594(2) -0.5977(3) 0.36996(16)
C8 C 0.1046(3) -0.6807(4) 0.45671(19)
H3 H 0.1963 -0.6679 0.4816
C9 C 0.0148(3) -0.7806(4) 0.50531(18)
H4 H 0.0444 -0.8337 0.5641
C10 C 0.1574(3) -0.4889(3) 0.3150(2)
H5 H 0.2158 -0.4257 0.3624
H6 H 0.1039 -0.4108 0.2734
C11 C 0.25000 -0.5952(4) 0.25000
H7 H 0.309 -0.6663 0.2925
H8 H 0.191 -0.6663 0.2075
H9 H -0.163(4) -0.851(6) 0.498(3)
N1A N 0.6155(3) -0.8017(3) 0.03201(18)
C5A C 0.6626(3) -0.7269(4) 0.1152(2)
H1A H 0.7539 -0.7451 0.1395
C6A C 0.5765(3) -0.6230(3) 0.16532(18)
H2A H 0.6098 -0.5697 0.2231
C7A C 0.4406(2) -0.5977(3) 0.13004(16)
C8A C 0.3954(3) -0.6807(4) 0.04329(19)
H3A H 0.3037 -0.6679 0.0184
C9A C 0.4852(3) -0.7806(4) -0.00531(18)
H4A H 0.4556 -0.8337 -0.0641
C10A C 0.3426(3) -0.4889(3) 0.1850(2)
H5A H 0.2842 -0.4257 0.1376
H6A H 0.3961 -0.4108 0.2266
H9A H 0.663(4) -0.851(6) 0.002(3)
loop_
_geom_bond_atom_site_label_1
_geom_bond_atom_site_label_2
_geom_bond_site_symmetry_1
_geom_bond_site_symmetry_2
Co1 O2 1_555 1_555
O1 C1 1_555 1_555
O2 C2 1_555 1_555
O3 C3 1_555 1_555
O4 Co1 1_555 1_555
O5 Co1 1_555 1_555
N1 C5 1_555 1_555
C1 C2 1_555 1_555
C2 C1B 1_555 1_555
C3 C4 1_555 1_555
C4 O4 1_555 1_555
C5 H1 1_555 1_555
C6 C5 1_555 1_555
H2 C6 1_555 1_555
C7 C6 1_555 1_555
C8 C7 1_555 1_555
H3 C8 1_555 1_555
C9 N1 1_555 1_555
H4 C9 1_555 1_555
C10 C7 1_555 1_555
H5 C10 1_555 1_555
H6 C10 1_555 1_555
C11 C10 1_555 1_555
H7 C11 1_555 1_555
H8 C11 1_555 1_555
H9 N1 1_555 1_555
H10 O5 1_555 1_555
H11 O5 1_555 1_555
Co1_2 O2B 1_555 1_555
Co1C O4A 1_555 1_555
O1B C1B 1_555 1_555
O2B C2B 1_555 1_555
O2B_2 Co1 1_555 1_555
O3A C3A 1_555 1_555
O4A C4A 1_555 1_555
O4B Co1 1_555 1_555
O5B Co1 1_555 1_555
N1A C5A 1_555 1_555
C1B C2B 1_555 1_555
C2B C1 1_555 1_555
C3A C4 1_555 1_555
C4A C3 1_555 1_555
C5A H1A 1_555 1_555
C6A C5A 1_555 1_555
H2A C6A 1_555 1_555
C7A C6A 1_555 1_555
C8A C7A 1_555 1_555
H3A C8A 1_555 1_555
C9A N1A 1_555 1_555
H4A C9A 1_555 1_555
C10A C11 1_555 1_555
H5A C10A 1_555 1_555
H6A C10A 1_555 1_555
H9A N1A 1_555 1_555
H10B O5B 1_555 1_555
H11B O5B 1_555 1_555
C8 C9 1_555 1_555
C3A C4A 1_555 1_555
C7A C10A 1_555 1_555
C8A C9A 1_555 1_555

#END
