
#######################################################################
#
#                 Cambridge Crystallographic Data Centre
#                                CCDC 
#
#######################################################################
#
# If this CIF has been generated from an entry in the Cambridge 
# Structural Database, then it will include bibliographic, chemical, 
# crystal, experimental, refinement or atomic coordinate data resulting 
# from the CCDC's data processing and validation procedures.
#
#######################################################################

data_KEZQAI
_symmetry_cell_setting           monoclinic
_symmetry_space_group_name_H-M   'P 21/n'
_symmetry_Int_Tables_number      14
_space_group_name_Hall           '-P 2yn'
loop_
_symmetry_equiv_pos_site_id
_symmetry_equiv_pos_as_xyz
1 x,y,z
2 1/2-x,1/2+y,1/2-z
3 -x,-y,-z
4 1/2+x,1/2-y,1/2+z
_cell_length_a                   6.8069(9)
_cell_length_b                   16.574(2)
_cell_length_c                   23.762(3)
_cell_angle_alpha                90
_cell_angle_beta                 92.146(2)
_cell_angle_gamma                90
_cell_volume                     2678.89
loop_
_atom_site_label
_atom_site_type_symbol
_atom_site_fract_x
_atom_site_fract_y
_atom_site_fract_z
Cu1 Cu 0.73222(4) 0.624136(19) 0.102988(12)
S1 S 0.28348(9) 1.10765(4) 0.07036(3)
N1 N 0.7407(3) 0.50298(13) 0.09952(9)
N2 N 0.7598(3) 0.60924(13) 0.01946(9)
O1 O 0.6796(3) 0.73895(11) 0.09547(8)
O2 O 0.3676(3) 0.70246(12) 0.07791(8)
O3 O 0.4601(3) 1.15459(11) 0.07840(8)
O4 O 0.1558(3) 1.12308(12) 0.02182(7)
O5 O -0.1328(3) 1.12077(12) 0.32092(8)
O6 O -0.3821(3) 1.17083(18) 0.26818(9)
C1 C 0.7358(4) 0.45220(18) 0.14336(13)
H1 H 0.7370 0.4737 0.1795
C2 C 0.7292(5) 0.3697(2) 0.13727(16)
H2 H 0.7279 0.3362 0.1686
C3 C 0.7245(5) 0.33787(19) 0.08376(16)
H3 H 0.7160 0.2824 0.0784
C4 C 0.7326(4) 0.38905(18) 0.03806(14)
H4 H 0.7318 0.3684 0.0016
C5 C 0.7419(3) 0.47143(16) 0.04718(11)
C6 C 0.7523(3) 0.53183(16) 0.00180(10)
C7 C 0.7540(4) 0.51245(19) -0.05509(11)
H5 H 0.7495 0.4589 -0.0667
C8 C 0.7624(4) 0.5740(2) -0.09392(12)
H6 H 0.7623 0.5623 -0.1322
C9 C 0.7710(5) 0.6528(2) -0.07593(13)
H7 H 0.7773 0.6947 -0.1018
C10 C 0.7700(4) 0.66873(18) -0.01876(12)
H8 H 0.7767 0.7220 -0.0065
C11 C 0.4982(4) 0.75423(16) 0.08424(10)
C12 C 0.4468(4) 0.84228(16) 0.07844(10)
C13 C 0.5869(4) 0.90125(16) 0.09053(12)
H9 H 0.7150 0.8861 0.1006
C14 C 0.5386(4) 0.98238(17) 0.08776(12)
H10 H 0.6325 1.0215 0.0968
C15 C 0.3493(4) 1.00438(15) 0.07141(10)
C16 C 0.2084(4) 0.94665(17) 0.05725(12)
H11 H 0.0823 0.9621 0.0453
C17 C 0.2579(4) 0.86587(18) 0.06106(12)
H12 H 0.1639 0.8268 0.0519
C18 C -0.2132(4) 1.14446(17) 0.27488(11)
C19 C -0.0849(4) 1.13758(15) 0.22424(10)
C20 C 0.1129(4) 1.11892(18) 0.23069(11)
H13 H 0.1693 1.1119 0.2666
C21 C 0.2274(4) 1.11058(18) 0.18425(11)
H14 H 0.3608 1.0991 0.1887
C22 C 0.1402(4) 1.11962(15) 0.13077(10)
C23 C -0.0569(4) 1.13795(16) 0.12362(10)
H15 H -0.1140 1.1435 0.0877
C24 C -0.1687(4) 1.14804(17) 0.17061(11)
H16 H -0.3007 1.1619 0.1662
O8 O 1.0520(3) 0.63548(13) 0.13299(9)
H25 H 1.0291 0.6525 0.1656
H26 H 1.1333 0.6686 0.1201
Cu1A Cu -0.23222(4) 1.124136(19) 0.397012(12)
O5A O 0.6328(3) 0.62077(12) 0.17908(8)
O7 O 0.1205(6) 0.8003(2) 0.28152(12)
H17 H 0.0275 0.7702 0.2743
C25 C 0.3622(8) 0.8822(5) 0.2383(3)
H18 H 0.3469 0.9262 0.2641
H19 H 0.4014 0.9029 0.2027
H20 H 0.4610 0.8459 0.2531
C26 C 0.1778(9) 0.8398(4) 0.2308(2)
H21 H 0.2046 0.7959 0.2046
C27 C 0.0081(8) 0.8847(4) 0.2040(2)
H22 H -0.1018 0.8488 0.1987
H23 H 0.0448 0.9054 0.1682
H24 H -0.0275 0.9286 0.2279
loop_
_geom_bond_atom_site_label_1
_geom_bond_atom_site_label_2
_geom_bond_site_symmetry_1
_geom_bond_site_symmetry_2
Cu1 N1 1_555 1_555
S1 O3 1_555 1_555
N1 C1 1_555 1_555
N2 Cu1 1_555 1_555
O1 Cu1 1_555 1_555
O2 C11 1_555 1_555
O4 S1 1_555 1_555
O5 C18 1_555 1_555
O6 C18 1_555 1_555
C1 H1 1_555 1_555
C2 C1 1_555 1_555
H2 C2 1_555 1_555
C3 C2 1_555 1_555
H3 C3 1_555 1_555
C4 C3 1_555 1_555
H4 C4 1_555 1_555
C5 N1 1_555 1_555
C6 N2 1_555 1_555
C7 C6 1_555 1_555
H5 C7 1_555 1_555
C8 C7 1_555 1_555
H6 C8 1_555 1_555
C9 C8 1_555 1_555
H7 C9 1_555 1_555
C10 N2 1_555 1_555
H8 C10 1_555 1_555
C11 O1 1_555 1_555
C12 C11 1_555 1_555
C13 C12 1_555 1_555
H9 C13 1_555 1_555
C14 C13 1_555 1_555
H10 C14 1_555 1_555
C15 S1 1_555 1_555
C16 C15 1_555 1_555
H11 C16 1_555 1_555
C17 C12 1_555 1_555
H12 C17 1_555 1_555
C18 C19 1_555 1_555
C19 C20 1_555 1_555
C20 H13 1_555 1_555
C21 C20 1_555 1_555
H14 C21 1_555 1_555
C22 S1 1_555 1_555
C23 C22 1_555 1_555
H15 C23 1_555 1_555
C24 C19 1_555 1_555
H16 C24 1_555 1_555
O7 H17 1_555 1_555
C25 H18 1_555 1_555
H19 C25 1_555 1_555
H20 C25 1_555 1_555
C26 O7 1_555 1_555
H21 C26 1_555 1_555
C27 C26 1_555 1_555
H22 C27 1_555 1_555
H23 C27 1_555 1_555
H24 C27 1_555 1_555
O8 Cu1 1_555 1_555
H25 O8 1_555 1_555
H26 O8 1_555 1_555
Cu1A O5 1_555 1_555
O5A Cu1 1_555 1_555
C4 C5 1_555 1_555
C5 C6 1_555 1_555
C9 C10 1_555 1_555
C14 C15 1_555 1_555
C16 C17 1_555 1_555
C21 C22 1_555 1_555
C23 C24 1_555 1_555
C25 C26 1_555 1_555

#END
