
#######################################################################
#
#                 Cambridge Crystallographic Data Centre
#                                CCDC 
#
#######################################################################
#
# If this CIF has been generated from an entry in the Cambridge 
# Structural Database, then it will include bibliographic, chemical, 
# crystal, experimental, refinement or atomic coordinate data resulting 
# from the CCDC's data processing and validation procedures.
#
#######################################################################

data_KEZRAJ
_symmetry_cell_setting           monoclinic
_symmetry_space_group_name_H-M   'P 2/n'
_symmetry_Int_Tables_number      13
_space_group_name_Hall           '-P 2yac'
loop_
_symmetry_equiv_pos_site_id
_symmetry_equiv_pos_as_xyz
1 x,y,z
2 1/2-x,y,1/2-z
3 -x,-y,-z
4 1/2+x,-y,1/2+z
_cell_length_a                   9.6005(3)
_cell_length_b                   8.0323(3)
_cell_length_c                   13.4436(6)
_cell_angle_alpha                90
_cell_angle_beta                 92.645(2)
_cell_angle_gamma                90
_cell_volume                     1035.59
loop_
_atom_site_label
_atom_site_type_symbol
_atom_site_fract_x
_atom_site_fract_y
_atom_site_fract_z
Zn1 Zn 0.0000 0.0000 0.00000
O1 O -0.1249(2) -0.4036(2) 0.12892(15)
O2 O 0.0161(2) -0.2367(2) -0.06329(15)
O3 O 0.0203(2) -0.0279(3) 0.28899(16)
O4 O 0.1928(2) -0.0420(3) 0.08288(14)
O5 O -0.1248(2) -0.0718(3) 0.11526(15)
C1 C -0.0561(3) -0.4559(3) 0.0587(2)
C2 C 0.0064(2) -0.3808(3) -0.0276(2)
C3 C 0.1454(3) -0.0319(3) 0.2664(2)
C4 C 0.2225(3) -0.0346(3) 0.1753(2)
H10 H -0.134(4) -0.178(6) 0.118(3)
H11 H -0.094(4) -0.038(5) 0.169(3)
Zn1_2 Zn 0.0000 -1.0000 0.00000
Zn1C Zn 0.5000 0.0000 0.50000
O1B O 0.1249(2) -0.5964(2) -0.12892(15)
O2B O -0.0161(2) -0.7633(2) 0.06329(15)
O2B_2 O -0.0161(2) 0.2367(2) 0.06329(15)
O3A O 0.4797(2) -0.0279(3) 0.21101(16)
O4A O 0.3072(2) -0.0420(3) 0.41712(14)
O4B O -0.1928(2) 0.0420(3) -0.08288(14)
O5B O 0.1248(2) 0.0718(3) -0.11526(15)
C1B C 0.0561(3) -0.5441(3) -0.0587(2)
C2B C -0.0064(2) -0.6192(3) 0.0276(2)
C3A C 0.3546(3) -0.0319(3) 0.2336(2)
C4A C 0.2775(3) -0.0346(3) 0.3247(2)
H10B H 0.134(4) 0.178(6) -0.118(3)
H11B H 0.094(4) 0.038(5) -0.169(3)
N1 N -0.1151(3) -0.8012(3) 0.4681(2)
C5 C -0.1618(3) -0.7276(4) 0.3847(3)
H1 H -0.2528 -0.7461 0.3606
C6 C -0.0766(3) -0.6246(4) 0.3341(2)
H2 H -0.1097 -0.5722 0.2761
C7 C 0.0598(3) -0.5985(3) 0.3699(2)
C8 C 0.1038(3) -0.6807(4) 0.4566(2)
H3 H 0.1951 -0.6676 0.4816
C9 C 0.0145(3) -0.7804(4) 0.5055(2)
H4 H 0.0439 -0.8333 0.5643
C10 C 0.1575(3) -0.4895(3) 0.3149(2)
H5 H 0.2154 -0.4262 0.3623
H6 H 0.1041 -0.4114 0.2734
C11 C 0.2500 -0.5950(5) 0.25000
H7 H 0.3086 -0.6662 0.2925
H8 H 0.1914 -0.6662 0.2075
H9 H -0.165(5) -0.850(6) 0.495(4)
N1A N 0.6151(3) -0.8012(3) 0.0319(2)
C5A C 0.6618(3) -0.7276(4) 0.1153(3)
H1A H 0.7528 -0.7461 0.1394
C6A C 0.5766(3) -0.6246(4) 0.1659(2)
H2A H 0.6097 -0.5722 0.2239
C7A C 0.4402(3) -0.5985(3) 0.1301(2)
C8A C 0.3962(3) -0.6807(4) 0.0434(2)
H3A H 0.3049 -0.6676 0.0184
C9A C 0.4855(3) -0.7804(4) -0.0055(2)
H4A H 0.4561 -0.8333 -0.0643
C10A C 0.3425(3) -0.4895(3) 0.1851(2)
H5A H 0.2846 -0.4262 0.1377
H6A H 0.3959 -0.4114 0.2266
H9A H 0.665(5) -0.850(6) 0.005(4)
loop_
_geom_bond_atom_site_label_1
_geom_bond_atom_site_label_2
_geom_bond_site_symmetry_1
_geom_bond_site_symmetry_2
Zn1 O2 1_555 1_555
O1 C1 1_555 1_555
O2 C2 1_555 1_555
O3 C3 1_555 1_555
O4 Zn1 1_555 1_555
O5 Zn1 1_555 1_555
N1 C5 1_555 1_555
C1 C2 1_555 1_555
C2 C1B 1_555 1_555
C3 C4 1_555 1_555
C4 O4 1_555 1_555
C5 H1 1_555 1_555
C6 C5 1_555 1_555
H2 C6 1_555 1_555
C7 C6 1_555 1_555
C8 C7 1_555 1_555
H3 C8 1_555 1_555
C9 N1 1_555 1_555
H4 C9 1_555 1_555
C10 C7 1_555 1_555
H5 C10 1_555 1_555
H6 C10 1_555 1_555
C11 C10 1_555 1_555
H7 C11 1_555 1_555
H8 C11 1_555 1_555
H9 N1 1_555 1_555
H10 O5 1_555 1_555
H11 O5 1_555 1_555
Zn1_2 O2B 1_555 1_555
Zn1C O4A 1_555 1_555
O1B C1B 1_555 1_555
O2B C2B 1_555 1_555
O2B_2 Zn1 1_555 1_555
O3A C3A 1_555 1_555
O4A C4A 1_555 1_555
O4B Zn1 1_555 1_555
O5B Zn1 1_555 1_555
N1A C5A 1_555 1_555
C1B C2B 1_555 1_555
C2B C1 1_555 1_555
C3A C4 1_555 1_555
C4A C3 1_555 1_555
C5A H1A 1_555 1_555
C6A C5A 1_555 1_555
H2A C6A 1_555 1_555
C7A C6A 1_555 1_555
C8A C7A 1_555 1_555
H3A C8A 1_555 1_555
C9A N1A 1_555 1_555
H4A C9A 1_555 1_555
C10A C11 1_555 1_555
H5A C10A 1_555 1_555
H6A C10A 1_555 1_555
H9A N1A 1_555 1_555
H10B O5B 1_555 1_555
H11B O5B 1_555 1_555
C8 C9 1_555 1_555
C3A C4A 1_555 1_555
C7A C10A 1_555 1_555
C8A C9A 1_555 1_555

#END
