
#######################################################################
#
#                 Cambridge Crystallographic Data Centre
#                                CCDC 
#
#######################################################################
#
# If this CIF has been generated from an entry in the Cambridge 
# Structural Database, then it will include bibliographic, chemical, 
# crystal, experimental, refinement or atomic coordinate data resulting 
# from the CCDC's data processing and validation procedures.
#
#######################################################################

data_KEZVER
_symmetry_cell_setting           triclinic
_symmetry_space_group_name_H-M   'P -1'
_symmetry_Int_Tables_number      2
_space_group_name_Hall           '-P 1'
loop_
_symmetry_equiv_pos_site_id
_symmetry_equiv_pos_as_xyz
1 x,y,z
2 -x,-y,-z
_cell_length_a                   10.652(8)
_cell_length_b                   16.075(13)
_cell_length_c                   17.943(14)
_cell_angle_alpha                69.31(7)
_cell_angle_beta                 73.24(7)
_cell_angle_gamma                70.86(7)
_cell_volume                     2663.12
loop_
_atom_site_label
_atom_site_type_symbol
_atom_site_fract_x
_atom_site_fract_y
_atom_site_fract_z
Eu1 Eu 0.29823(3) 0.22149(2) 0.37105(2)
Eu2 Eu -0.12678(3) 0.28276(2) 0.136160(19)
O1 O 0.0731(5) 0.2297(4) 0.4325(3)
O2 O -0.1118(6) 0.2663(5) 0.5227(4)
O3 O 0.2168(6) 0.5195(4) 0.2515(3)
O4 O 0.3197(5) 0.3704(4) 0.2914(3)
O5 O 0.3113(6) 0.1211(4) 0.5032(3)
O6 O 0.4436(5) 0.0254(4) 0.5912(3)
O7 O 0.5223(5) 0.2006(4) 0.2986(3)
O8 O 0.6944(6) 0.2675(4) 0.2454(3)
C1 C 0.0068(8) 0.2678(5) 0.4889(4)
C2 C 0.0818(8) 0.3165(5) 0.5135(4)
H1 H 0.0177 0.3684 0.5305
H2 H 0.1221 0.2747 0.5595
C3 C 0.1264(7) 0.4290(5) 0.3833(4)
H3 H 0.0982 0.4843 0.4004
H4 H 0.0469 0.4178 0.3765
C4 C 0.2296(7) 0.4418(5) 0.3017(4)
C5 C 0.2903(7) 0.3768(5) 0.4713(4)
H5 H 0.3333 0.4171 0.4224
C6 C 0.4034(7) 0.2940(5) 0.5014(4)
H6 H 0.3610 0.2536 0.5505
C7 C 0.5060(8) 0.3240(5) 0.5271(4)
H7 H 0.5738 0.2700 0.5488
H8 H 0.5518 0.3630 0.4795
C8 C 0.4362(9) 0.3759(5) 0.5906(5)
H9 H 0.3941 0.3364 0.6395
H10 H 0.5024 0.3944 0.6045
C9 C 0.3293(8) 0.4603(6) 0.5564(5)
H11 H 0.3724 0.5008 0.5089
H12 H 0.2843 0.4935 0.5967
C10 C 0.2251(7) 0.4325(5) 0.5334(5)
H13 H 0.1592 0.4873 0.5107
H14 H 0.1773 0.3960 0.5820
C11 C 0.5725(7) 0.2780(5) 0.3751(4)
H15 H 0.6563 0.2588 0.3948
H16 H 0.5442 0.3446 0.3599
C12 C 0.5978(7) 0.2455(5) 0.3006(4)
C13 C 0.5299(7) 0.1442(5) 0.4847(4)
H17 H 0.5793 0.1447 0.5222
H18 H 0.5936 0.1133 0.4460
C14 C 0.4209(7) 0.0924(5) 0.5312(4)
N1 N 0.4672(6) 0.2405(4) 0.4409(3)
N2 N 0.1905(6) 0.3499(4) 0.4458(3)
O9 O 0.3217(5) 0.0655(4) 0.3659(3)
O10 O -0.2875(5) 0.2833(4) 0.0685(3)
O11 O -0.3310(5) 0.2776(4) -0.0428(3)
O12 O -0.0991(6) -0.0053(4) 0.2618(3)
O13 O -0.0521(5) 0.1318(3) 0.2185(3)
O14 O 0.1987(6) 0.2468(4) 0.2620(3)
O15 O 0.0092(6) 0.3021(4) 0.2122(3)
O16 O -0.0693(5) 0.3777(3) 0.0029(3)
O17 O 0.0613(6) 0.4684(4) -0.0837(3)
C15 C -0.2552(7) 0.2561(5) 0.0050(4)
C16 C -0.1132(8) 0.1937(5) -0.0103(4)
H19 H -0.1181 0.1432 -0.0261
H20 H -0.0565 0.2283 -0.0550
C17 C -0.1112(7) 0.0830(5) 0.1243(4)
H21 H -0.0732 0.0264 0.1089
H22 H -0.2081 0.1005 0.1265
C18 C -0.0843(7) 0.0673(5) 0.2076(4)
C19 C 0.0997(7) 0.1189(5) 0.0458(4)
H23 H 0.1250 0.0778 0.0974
C20 C 0.1761(7) 0.1938(5) 0.0167(4)
H24 H 0.1529 0.2333 -0.0358
C21 C 0.3278(7) 0.1527(5) 0.0008(4)
H25 H 0.3554 0.1146 0.0519
H26 H 0.3737 0.2019 -0.0212
C22 C 0.3720(8) 0.0945(5) -0.0585(4)
H27 H 0.3520 0.1333 -0.1112
H28 H 0.4690 0.0676 -0.0651
C23 C 0.2987(8) 0.0190(5) -0.0271(5)
H29 H 0.3233 -0.0222 0.0239
H30 H 0.3252 -0.0162 -0.0657
C24 C 0.1459(7) 0.0605(5) -0.0143(5)
H31 H 0.0997 0.0116 0.0066
H32 H 0.1212 0.0988 -0.0660
C25 C 0.1504(8) 0.3466(5) 0.0253(4)
H33 H 0.2379 0.3407 -0.0112
H34 H 0.1497 0.3789 0.0620
C26 C 0.0400(8) 0.4017(5) -0.0236(4)
C27 C 0.2044(7) 0.2156(5) 0.1412(4)
H35 H 0.2948 0.2253 0.1217
H36 H 0.2131 0.1498 0.1619
C28 C 0.1315(8) 0.2594(5) 0.2099(4)
N3 N 0.1307(6) 0.2546(4) 0.0724(3)
N4 N -0.0501(6) 0.1562(4) 0.0624(3)
O18 O -0.2531(5) 0.4412(4) 0.1358(3)
Eu2_2 Eu 0.87322(3) 0.28276(2) 0.136160(19)
O8_2 O -0.3056(6) 0.2675(4) 0.2454(3)
Cl1 Cl 0.6883(2) 0.08322(13) 0.74502(11)
O19 O 0.6390(6) 0.0006(4) 0.7717(3)
O20 O 0.7310(7) 0.0898(5) 0.8113(4)
O21 O 0.7994(8) 0.0775(7) 0.6790(4)
O22 O 0.5805(10) 0.1612(5) 0.7219(6)
C29 C 0.8844(7) 0.0716(5) 0.4386(4)
N5 N 0.8504(7) 0.0099(5) 0.4213(4)
H37 H 0.8696 0.0075 0.3720
H38 H 0.8089 -0.0280 0.4592
N6 N 0.9487(7) 0.1304(5) 0.3800(4)
H39 H 0.9680 0.1281 0.3307
H40 H 0.9709 0.1706 0.3915
N7 N 0.8550(7) 0.0783(5) 0.5147(4)
H41 H 0.8128 0.0417 0.5537
H42 H 0.8785 0.1193 0.5244
C30 C 0.3827(7) 0.4322(5) 0.0687(4)
N8 N 0.2730(7) 0.4945(4) 0.0879(4)
H43 H 0.2296 0.5335 0.0509
H44 H 0.2448 0.4963 0.1375
N9 N 0.4488(7) 0.3710(5) 0.1267(4)
H45 H 0.4195 0.3725 0.1763
H46 H 0.5205 0.3302 0.1143
N10 N 0.4282(6) 0.4283(4) -0.0076(4)
H47 H 0.3858 0.4668 -0.0452
H48 H 0.5000 0.3872 -0.0193
C31 C 0.9279(8) -0.2415(6) 0.2548(5)
N11 N 0.9852(9) -0.3290(5) 0.2582(4)
H49 H 1.0653 -0.3540 0.2688
H50 H 0.9424 -0.3609 0.2499
N12 N 0.9929(8) -0.1924(5) 0.2674(5)
H51 H 1.0730 -0.2171 0.2780
H52 H 0.9553 -0.1356 0.2651
N13 N 0.8028(8) -0.2058(5) 0.2412(5)
H53 H 0.7627 -0.1497 0.2406
H54 H 0.7616 -0.2388 0.2330
O23 O 0.6439(7) -0.0204(5) 0.2320(4)
O24 O 0.5095(6) 0.5193(5) 0.2253(4)
O25 O 0.8915(9) 0.5231(8) 0.2456(5)
O26 O 0.8372(8) 0.3673(5) 0.3448(5)
O27 O 0.5745(7) 0.2821(5) -0.1749(4)
O28 O 0.7830(8) 0.3311(5) 0.6589(4)
O29 O 0.2956(7) 0.3167(5) -0.1824(4)
loop_
_geom_bond_atom_site_label_1
_geom_bond_atom_site_label_2
_geom_bond_site_symmetry_1
_geom_bond_site_symmetry_2
Eu1 O1 1_555 1_555
Eu2 O10 1_555 1_555
O1 C1 1_555 1_555
O2 C1 1_555 1_555
O3 C4 1_555 1_555
O4 Eu1 1_555 1_555
O5 Eu1 1_555 1_555
O6 C14 1_555 1_555
O7 Eu1 1_555 1_555
O8 C12 1_555 1_555
C1 C2 1_555 1_555
C2 H1 1_555 1_555
H2 C2 1_555 1_555
C3 H3 1_555 1_555
H4 C3 1_555 1_555
C4 O4 1_555 1_555
C5 H5 1_555 1_555
C6 C5 1_555 1_555
H6 C6 1_555 1_555
C7 C6 1_555 1_555
H7 C7 1_555 1_555
H8 C7 1_555 1_555
C8 C7 1_555 1_555
H9 C8 1_555 1_555
H10 C8 1_555 1_555
C9 C8 1_555 1_555
H11 C9 1_555 1_555
H12 C9 1_555 1_555
C10 C5 1_555 1_555
H13 C10 1_555 1_555
H14 C10 1_555 1_555
C11 H15 1_555 1_555
H16 C11 1_555 1_555
C12 O7 1_555 1_555
C13 H17 1_555 1_555
H18 C13 1_555 1_555
C14 O5 1_555 1_555
N1 Eu1 1_555 1_555
N2 Eu1 1_555 1_555
O9 Eu1 1_555 1_555
O10 C15 1_555 1_555
O11 C15 1_555 1_555
O12 C18 1_555 1_555
O13 Eu2 1_555 1_555
O14 Eu1 1_555 1_555
O15 Eu2 1_555 1_555
O16 Eu2 1_555 1_555
O17 C26 1_555 1_555
C15 C16 1_555 1_555
C16 H19 1_555 1_555
H20 C16 1_555 1_555
C17 H21 1_555 1_555
H22 C17 1_555 1_555
C18 O13 1_555 1_555
C19 H23 1_555 1_555
C20 C19 1_555 1_555
H24 C20 1_555 1_555
C21 C20 1_555 1_555
H25 C21 1_555 1_555
H26 C21 1_555 1_555
C22 C21 1_555 1_555
H27 C22 1_555 1_555
H28 C22 1_555 1_555
C23 C22 1_555 1_555
H29 C23 1_555 1_555
H30 C23 1_555 1_555
C24 C19 1_555 1_555
H31 C24 1_555 1_555
H32 C24 1_555 1_555
C25 H33 1_555 1_555
H34 C25 1_555 1_555
C26 O16 1_555 1_555
C27 H35 1_555 1_555
H36 C27 1_555 1_555
C28 O14 1_555 1_555
N3 Eu2 1_555 1_555
N4 Eu2 1_555 1_555
O18 Eu2 1_555 1_555
Cl1 O19 1_555 1_555
O20 Cl1 1_555 1_555
O21 Cl1 1_555 1_555
O22 Cl1 1_555 1_555
C29 N5 1_555 1_555
N5 H37 1_555 1_555
H38 N5 1_555 1_555
N6 C29 1_555 1_555
H39 N6 1_555 1_555
H40 N6 1_555 1_555
N7 C29 1_555 1_555
H41 N7 1_555 1_555
H42 N7 1_555 1_555
C30 N8 1_555 1_555
N8 H43 1_555 1_555
H44 N8 1_555 1_555
N9 C30 1_555 1_555
H45 N9 1_555 1_555
H46 N9 1_555 1_555
N10 C30 1_555 1_555
H47 N10 1_555 1_555
H48 N10 1_555 1_555
C31 N11 1_555 1_555
N11 H49 1_555 1_555
H50 N11 1_555 1_555
N12 C31 1_555 1_555
H51 N12 1_555 1_555
H52 N12 1_555 1_555
N13 C31 1_555 1_555
H53 N13 1_555 1_555
H54 N13 1_555 1_555
Eu2_2 O8 1_555 1_555
O8_2 Eu2 1_555 1_555
C2 N2 1_555 1_555
C3 C4 1_555 1_555
C3 N2 1_555 1_555
C5 N2 1_555 1_555
C6 N1 1_555 1_555
C9 C10 1_555 1_555
C11 C12 1_555 1_555
C11 N1 1_555 1_555
C13 C14 1_555 1_555
C13 N1 1_555 1_555
O15 C28 1_555 1_555
C16 N4 1_555 1_555
C17 C18 1_555 1_555
C17 N4 1_555 1_555
C19 N4 1_555 1_555
C20 N3 1_555 1_555
C23 C24 1_555 1_555
C25 C26 1_555 1_555
C25 N3 1_555 1_555
C27 C28 1_555 1_555
C27 N3 1_555 1_555

#END
