
#######################################################################
#
#                 Cambridge Crystallographic Data Centre
#                                CCDC 
#
#######################################################################
#
# If this CIF has been generated from an entry in the Cambridge 
# Structural Database, then it will include bibliographic, chemical, 
# crystal, experimental, refinement or atomic coordinate data resulting 
# from the CCDC's data processing and validation procedures.
#
#######################################################################

data_KEZXEU
_symmetry_cell_setting           triclinic
_symmetry_space_group_name_H-M   'P -1'
_symmetry_Int_Tables_number      2
_space_group_name_Hall           '-P 1'
loop_
_symmetry_equiv_pos_site_id
_symmetry_equiv_pos_as_xyz
1 x,y,z
2 -x,-y,-z
_cell_length_a                   10.0886(7)
_cell_length_b                   11.8539(8)
_cell_length_c                   12.2973(9)
_cell_angle_alpha                114.7430(10)
_cell_angle_beta                 99.7920(10)
_cell_angle_gamma                90.1570(10)
_cell_volume                     1311.66
loop_
_atom_site_label
_atom_site_type_symbol
_atom_site_fract_x
_atom_site_fract_y
_atom_site_fract_z
Cu1 Cu 0.38237(3) 0.12661(2) 0.73865(2)
N1 N 0.26036(17) -0.01696(18) 0.71468(17)
N2 N 0.18176(18) -0.10290(18) 0.61008(17)
N3 N 0.57569(18) 0.14581(17) 0.82064(17)
N4 N 0.66281(18) 0.05399(17) 0.79931(16)
N5 N 0.68358(18) -0.27006(17) 0.29193(16)
N6 N 0.61861(18) -0.33736(16) 0.33713(17)
C1 C 0.2503(2) -0.0556(2) 0.8011(2)
C2 C 0.1657(2) -0.1652(2) 0.7519(2)
H1 H 0.1424 -0.2103 0.7932
C3 C 0.1237(2) -0.1934(2) 0.6308(2)
C4 C 0.1659(2) -0.0871(3) 0.4974(2)
H2 H 0.1309 -0.1660 0.4295
H3 H 0.2540 -0.0652 0.4867
C5 C 0.0720(2) 0.0126(3) 0.4940(2)
H4 H 0.1094 0.0923 0.5596
H5 H 0.0692 0.0193 0.4177
C6 C 0.0321(4) -0.3003(3) 0.5326(3)
H6 H -0.0447 -0.2689 0.5000
H7 H 0.0024 -0.3537 0.5663
H8 H 0.0801 -0.3468 0.4688
C7 C 0.3212(3) 0.0173(4) 0.9297(3)
H9 H 0.4017 0.0613 0.9306
H10 H 0.3446 -0.0384 0.9671
H11 H 0.2628 0.0759 0.9741
C8 C 0.6514(3) 0.2523(2) 0.8949(2)
C9 C 0.7856(3) 0.2279(3) 0.9205(3)
H12 H 0.8577 0.2857 0.9697
C10 C 0.7899(2) 0.1009(3) 0.8582(2)
C11 C 0.6105(2) -0.0756(2) 0.7279(2)
H13 H 0.5239 -0.0873 0.7476
H14 H 0.6715 -0.1281 0.7514
C12 C 0.5930(2) -0.1178(2) 0.5911(2)
H15 H 0.6810 -0.1214 0.5684
H16 H 0.5445 -0.0580 0.5684
C13 C 0.5156(2) -0.2455(2) 0.5232(2)
H17 H 0.5633 -0.3034 0.5493
H18 H 0.4276 -0.2401 0.5461
C14 C 0.4958(2) -0.2977(2) 0.3850(2)
H19 H 0.4609 -0.2345 0.3597
H20 H 0.4286 -0.3683 0.3495
C15 C 0.6775(3) -0.4441(2) 0.3218(2)
C16 C 0.7841(3) -0.4454(2) 0.2654(2)
H21 H 0.8442 -0.5069 0.2434
C17 C 0.7851(2) -0.3377(2) 0.2476(2)
C18 C 0.8772(3) -0.2957(4) 0.1863(3)
H22 H 0.8886 -0.2063 0.2228
H23 H 0.9634 -0.3283 0.1956
H24 H 0.8390 -0.3255 0.1012
C19 C 0.6272(4) -0.5366(3) 0.3624(4)
H25 H 0.5311 -0.5526 0.3361
H26 H 0.6692 -0.6130 0.3274
H27 H 0.6491 -0.5036 0.4497
C20 C 0.5902(4) 0.3740(3) 0.9430(3)
H28 H 0.6149 0.4235 0.9035
H29 H 0.6225 0.4173 1.0293
H30 H 0.4937 0.3594 0.9270
C21 C 0.9058(3) 0.0228(4) 0.8523(3)
H31 H 0.8915 -0.0330 0.8884
H32 H 0.9874 0.0754 0.8959
H33 H 0.9133 -0.0246 0.7687
N1A N -0.26036(17) 0.01696(18) 0.28532(17)
N2A N -0.18176(18) 0.10290(18) 0.38992(17)
C1A C -0.2503(2) 0.0556(2) 0.1989(2)
C2A C -0.1657(2) 0.1652(2) 0.2481(2)
H1A H -0.1424 0.2103 0.2068
C3A C -0.1237(2) 0.1934(2) 0.3692(2)
C4A C -0.1659(2) 0.0871(3) 0.5026(2)
H2A H -0.1309 0.1660 0.5705
H3A H -0.2540 0.0652 0.5133
C5A C -0.0720(2) -0.0126(3) 0.5060(2)
H4A H -0.1094 -0.0923 0.4404
H5A H -0.0692 -0.0193 0.5823
C6A C -0.0321(4) 0.3003(3) 0.4674(3)
H6A H 0.0447 0.2689 0.5000
H7A H -0.0024 0.3537 0.4337
H8A H -0.0801 0.3468 0.5312
C7A C -0.3212(3) -0.0173(4) 0.0703(3)
H9A H -0.4017 -0.0613 0.0694
H10A H -0.3446 0.0384 0.0329
H11A H -0.2628 -0.0759 0.0259
Cu1A Cu -0.38237(3) -0.12661(2) 0.26135(2)
N3A N -0.57569(18) -0.14581(17) 0.17936(17)
N4A N -0.66281(18) -0.05399(17) 0.20069(16)
N5A N -0.68358(18) 0.27006(17) 0.70807(16)
N6A N -0.61861(18) 0.33736(16) 0.66287(17)
C8A C -0.6514(3) -0.2523(2) 0.1051(2)
C9A C -0.7856(3) -0.2279(3) 0.0795(3)
H12A H -0.8577 -0.2857 0.0303
C10A C -0.7899(2) -0.1009(3) 0.1418(2)
C11A C -0.6105(2) 0.0756(2) 0.2721(2)
H13A H -0.5239 0.0873 0.2524
H14A H -0.6715 0.1281 0.2486
C12A C -0.5930(2) 0.1178(2) 0.4089(2)
H15A H -0.6810 0.1214 0.4316
H16A H -0.5445 0.0580 0.4316
C13A C -0.5156(2) 0.2455(2) 0.4768(2)
H17A H -0.5633 0.3034 0.4507
H18A H -0.4276 0.2401 0.4539
C14A C -0.4958(2) 0.2977(2) 0.6150(2)
H19A H -0.4609 0.2345 0.6403
H20A H -0.4286 0.3683 0.6505
C15A C -0.6775(3) 0.4441(2) 0.6782(2)
C16A C -0.7841(3) 0.4454(2) 0.7346(2)
H21A H -0.8442 0.5069 0.7566
C17A C -0.7851(2) 0.3377(2) 0.7524(2)
C18A C -0.8772(3) 0.2957(4) 0.8137(3)
H22A H -0.8886 0.2063 0.7772
H23A H -0.9634 0.3283 0.8044
H24A H -0.8390 0.3255 0.8988
C19A C -0.6272(4) 0.5366(3) 0.6376(4)
H25A H -0.5311 0.5526 0.6639
H26A H -0.6692 0.6130 0.6726
H27A H -0.6491 0.5036 0.5503
C20A C -0.5902(4) -0.3740(3) 0.0570(3)
H28A H -0.6149 -0.4235 0.0965
H29A H -0.6225 -0.4173 -0.0293
H30A H -0.4937 -0.3594 0.0730
C21A C -0.9058(3) -0.0228(4) 0.1477(3)
H31A H -0.8915 0.0330 0.1116
H32A H -0.9874 -0.0754 0.1041
H33A H -0.9133 0.0246 0.2313
Cu1_2 Cu -0.61763(3) 0.12661(2) 0.73865(2)
Cu1A_2 Cu 0.61763(3) -0.12661(2) 0.26135(2)
N5_2 N -0.31642(18) -0.27006(17) 0.29193(16)
N5A_2 N 0.31642(18) 0.27006(17) 0.70807(16)
P1 P 0.17847(7) 0.38979(8) 0.20795(8)
F1 F 0.2449(7) 0.3362(7) 0.2904(5)
F2 F 0.2149(5) 0.5202(4) 0.3077(5)
F3 F 0.0999(7) 0.4371(6) 0.1200(5)
F4 F 0.0447(3) 0.3922(4) 0.2566(5)
F5 F 0.1422(5) 0.2574(3) 0.1062(5)
F6 F 0.3052(4) 0.3964(5) 0.1573(5)
loop_
_geom_bond_atom_site_label_1
_geom_bond_atom_site_label_2
_geom_bond_site_symmetry_1
_geom_bond_site_symmetry_2
Cu1 N1 1_555 1_555
N1 N2 1_555 1_555
N2 C3 1_555 1_555
N3 Cu1 1_555 1_555
N4 N3 1_555 1_555
N5 N6 1_555 1_555
N6 C14 1_555 1_555
C1 N1 1_555 1_555
C2 C1 1_555 1_555
H1 C2 1_555 1_555
C3 C2 1_555 1_555
C4 N2 1_555 1_555
H2 C4 1_555 1_555
H3 C4 1_555 1_555
C5 C4 1_555 1_555
H4 C5 1_555 1_555
H5 C5 1_555 1_555
C6 C3 1_555 1_555
H6 C6 1_555 1_555
H7 C6 1_555 1_555
H8 C6 1_555 1_555
C7 C1 1_555 1_555
H9 C7 1_555 1_555
H10 C7 1_555 1_555
H11 C7 1_555 1_555
C8 N3 1_555 1_555
C9 C8 1_555 1_555
H12 C9 1_555 1_555
C10 N4 1_555 1_555
C11 N4 1_555 1_555
H13 C11 1_555 1_555
H14 C11 1_555 1_555
C12 C11 1_555 1_555
H15 C12 1_555 1_555
H16 C12 1_555 1_555
C13 C12 1_555 1_555
H17 C13 1_555 1_555
H18 C13 1_555 1_555
C14 C13 1_555 1_555
H19 C14 1_555 1_555
H20 C14 1_555 1_555
C15 N6 1_555 1_555
C16 C15 1_555 1_555
H21 C16 1_555 1_555
C17 N5 1_555 1_555
C18 C17 1_555 1_555
H22 C18 1_555 1_555
H23 C18 1_555 1_555
H24 C18 1_555 1_555
C19 C15 1_555 1_555
H25 C19 1_555 1_555
H26 C19 1_555 1_555
H27 C19 1_555 1_555
C20 C8 1_555 1_555
H28 C20 1_555 1_555
H29 C20 1_555 1_555
H30 C20 1_555 1_555
C21 C10 1_555 1_555
H31 C21 1_555 1_555
H32 C21 1_555 1_555
H33 C21 1_555 1_555
P1 F1 1_555 1_555
F2 P1 1_555 1_555
F3 P1 1_555 1_555
F4 P1 1_555 1_555
F5 P1 1_555 1_555
F6 P1 1_555 1_555
N1A N2A 1_555 1_555
N2A C3A 1_555 1_555
C1A N1A 1_555 1_555
C2A C1A 1_555 1_555
H1A C2A 1_555 1_555
C3A C2A 1_555 1_555
C4A N2A 1_555 1_555
H2A C4A 1_555 1_555
H3A C4A 1_555 1_555
C5A C5 1_555 1_555
H4A C5A 1_555 1_555
H5A C5A 1_555 1_555
C6A C3A 1_555 1_555
H6A C6A 1_555 1_555
H7A C6A 1_555 1_555
H8A C6A 1_555 1_555
C7A C1A 1_555 1_555
H9A C7A 1_555 1_555
H10A C7A 1_555 1_555
H11A C7A 1_555 1_555
Cu1A N1A 1_555 1_555
N3A Cu1A 1_555 1_555
N4A N3A 1_555 1_555
N5A N6A 1_555 1_555
N6A C14A 1_555 1_555
C8A N3A 1_555 1_555
C9A C8A 1_555 1_555
H12A C9A 1_555 1_555
C10A N4A 1_555 1_555
C11A N4A 1_555 1_555
H13A C11A 1_555 1_555
H14A C11A 1_555 1_555
C12A C11A 1_555 1_555
H15A C12A 1_555 1_555
H16A C12A 1_555 1_555
C13A C12A 1_555 1_555
H17A C13A 1_555 1_555
H18A C13A 1_555 1_555
C14A C13A 1_555 1_555
H19A C14A 1_555 1_555
H20A C14A 1_555 1_555
C15A N6A 1_555 1_555
C16A C15A 1_555 1_555
H21A C16A 1_555 1_555
C17A N5A 1_555 1_555
C18A C17A 1_555 1_555
H22A C18A 1_555 1_555
H23A C18A 1_555 1_555
H24A C18A 1_555 1_555
C19A C15A 1_555 1_555
H25A C19A 1_555 1_555
H26A C19A 1_555 1_555
H27A C19A 1_555 1_555
C20A C8A 1_555 1_555
H28A C20A 1_555 1_555
H29A C20A 1_555 1_555
H30A C20A 1_555 1_555
C21A C10A 1_555 1_555
H31A C21A 1_555 1_555
H32A C21A 1_555 1_555
H33A C21A 1_555 1_555
Cu1_2 N5A 1_555 1_555
Cu1A_2 N5 1_555 1_555
N5_2 Cu1A 1_555 1_555
N5A_2 Cu1 1_555 1_555
C9 C10 1_555 1_555
C16 C17 1_555 1_555
C4A C5A 1_555 1_555
C9A C10A 1_555 1_555
C16A C17A 1_555 1_555

#END
