
#######################################################################
#
#                 Cambridge Crystallographic Data Centre
#                                CCDC 
#
#######################################################################
#
# If this CIF has been generated from an entry in the Cambridge 
# Structural Database, then it will include bibliographic, chemical, 
# crystal, experimental, refinement or atomic coordinate data resulting 
# from the CCDC's data processing and validation procedures.
#
#######################################################################

data_KEZZUM
_symmetry_cell_setting           monoclinic
_symmetry_space_group_name_H-M   'P 21/n'
_symmetry_Int_Tables_number      14
_space_group_name_Hall           '-P 2yn'
loop_
_symmetry_equiv_pos_site_id
_symmetry_equiv_pos_as_xyz
1 x,y,z
2 1/2-x,1/2+y,1/2-z
3 -x,-y,-z
4 1/2+x,1/2-y,1/2+z
_cell_length_a                   17.6585(15)
_cell_length_b                   10.7181(9)
_cell_length_c                   17.9598(15)
_cell_angle_alpha                90
_cell_angle_beta                 116.5610(10)
_cell_angle_gamma                90
_cell_volume                     3040.42
loop_
_atom_site_label
_atom_site_type_symbol
_atom_site_fract_x
_atom_site_fract_y
_atom_site_fract_z
C1 C 0.2776(2) 0.4692(3) 1.02203(19)
C2 C 0.3222(2) 0.4713(3) 0.96733(19)
C3 C 0.3569(2) 0.3645(3) 0.9525(2)
H1 H 0.3568 0.2905 0.9795
C4 C 0.3920(2) 0.3677(3) 0.8973(2)
C5 C 0.3909(2) 0.4754(4) 0.8545(2)
H2 H 0.4122 0.4761 0.8156
C6 C 0.3228(2) 0.5805(3) 0.9268(2)
H3 H 0.3000 0.6530 0.9369
C7 C 0.3573(2) 0.5817(3) 0.8713(2)
C8 C 0.3975(3) 0.7263(4) 0.7911(2)
C9 C 0.4832(2) 0.7056(4) 0.8239(2)
H4 H 0.5109 0.6606 0.8730
C10 C 0.5283(2) 0.7523(3) 0.7832(2)
H5 H 0.5865 0.7398 0.8058
C11 C 0.4869(2) 0.8173(3) 0.7092(2)
C12 C 0.3553(2) 0.7931(4) 0.7179(2)
H6 H 0.2975 0.8086 0.6966
C13 C 0.4002(2) 0.8362(3) 0.6771(2)
H7 H 0.3719 0.8790 0.6271
C14 C 0.5329(2) 0.8661(3) 0.66242(19)
C15 C 0.4527(3) 0.2487(4) 0.8239(2)
C16 C 0.3992(3) 0.1981(4) 0.7471(3)
H8 H 0.3440 0.1756 0.7348
C17 C 0.4300(2) 0.1820(4) 0.6893(2)
H9 H 0.3948 0.1498 0.6370
C18 C 0.5127(2) 0.2130(3) 0.7081(2)
C19 C 0.5333(3) 0.2833(4) 0.8432(2)
H10 H 0.5677 0.3184 0.8948
C20 C 0.5636(2) 0.2657(4) 0.7849(2)
H11 H 0.6187 0.2894 0.7975
C21 C 0.5479(2) 0.1868(3) 0.64663(19)
C22 C 0.3005(2) 0.3666(4) 1.2950(2)
H12 H 0.2598 0.3133 1.2969
C23 C 0.4302(3) 0.4777(4) 1.3670(3)
H13 H 0.4840 0.4380 1.3984
H14 H 0.4289 0.5558 1.3926
H15 H 0.4220 0.4922 1.3111
C24 C 0.3704(4) 0.3505(5) 1.4440(3)
H16 H 0.3224 0.2985 1.4335
H17 H 0.3717 0.4191 1.4789
H18 H 0.4214 0.3026 1.4714
Co1 Co 0.20159(3) 0.32142(4) 1.11549(2)
Co2 Co 0.0000 0.5000 1.0000
H19 H 0.2471 0.0838 1.1094
H20 H 0.1573 0.1637 0.9988
N1 N 0.3638(2) 0.3982(3) 1.36531(17)
O1 O 0.27423(15) 0.3669(2) 1.05486(14)
O2 O 0.24473(18) 0.5698(2) 1.02885(17)
O3 O 0.3473(2) 0.6929(3) 0.8291(2)
O4 O 0.48785(14) 0.8798(2) 0.58421(13)
O5 O 0.60932(14) 0.8923(2) 0.69903(13)
O6 O 0.4230(2) 0.2554(3) 0.88475(18)
O7 O 0.62486(14) 0.2114(2) 0.67070(14)
O8 O 0.49786(14) 0.1425(2) 0.57755(13)
O9 O 0.29068(15) 0.4030(2) 1.22536(14)
O10 O 0.13563(13) 0.50083(19) 1.07624(12)
O11 O 0.26088(15) 0.1450(2) 1.15313(15)
H21 H 0.3046 0.1529 1.1965
O12 O 0.12214(15) 0.2152(2) 1.01117(14)
H22 H 0.0908 0.2619 0.9739
C1B C -0.2776(2) 0.5308(3) 0.97797(19)
C2B C -0.3222(2) 0.5287(3) 1.03267(19)
C3B C -0.3569(2) 0.6355(3) 1.0475(2)
H1B H -0.3568 0.7095 1.0205
C4B C -0.3920(2) 0.6323(3) 1.1027(2)
C5B C -0.3909(2) 0.5246(4) 1.1455(2)
H2B H -0.4122 0.5239 1.1844
C6B C -0.3228(2) 0.4195(3) 1.0732(2)
H3B H -0.3000 0.3470 1.0631
C7B C -0.3573(2) 0.4183(3) 1.1287(2)
C8B C -0.3975(3) 0.2737(4) 1.2089(2)
C9B C -0.4832(2) 0.2944(4) 1.1761(2)
H4B H -0.5109 0.3394 1.1270
C10B C -0.5283(2) 0.2477(3) 1.2168(2)
H5B H -0.5865 0.2602 1.1942
C11B C -0.4869(2) 0.1827(3) 1.2908(2)
C12B C -0.3553(2) 0.2069(4) 1.2821(2)
H6B H -0.2975 0.1914 1.3034
C13B C -0.4002(2) 0.1638(3) 1.3229(2)
H7B H -0.3719 0.1210 1.3729
C14B C -0.5329(2) 0.1339(3) 1.33758(19)
C15B C -0.4527(3) 0.7513(4) 1.1761(2)
C16B C -0.3992(3) 0.8019(4) 1.2529(3)
H8B H -0.3440 0.8244 1.2652
C17B C -0.4300(2) 0.8180(4) 1.3107(2)
H9B H -0.3948 0.8502 1.3630
C18B C -0.5127(2) 0.7870(3) 1.2919(2)
C19B C -0.5333(3) 0.7167(4) 1.1568(2)
H10B H -0.5677 0.6816 1.1052
C20B C -0.5636(2) 0.7343(4) 1.2151(2)
H11B H -0.6187 0.7106 1.2025
C21B C -0.5479(2) 0.8132(3) 1.35337(19)
C22B C -0.3005(2) 0.6334(4) 0.7050(2)
H12B H -0.2598 0.6867 0.7031
C23B C -0.4302(3) 0.5223(4) 0.6330(3)
H13B H -0.4840 0.5620 0.6016
H14B H -0.4289 0.4442 0.6074
H15B H -0.4220 0.5078 0.6889
C24B C -0.3704(4) 0.6495(5) 0.5560(3)
H16B H -0.3224 0.7015 0.5665
H17B H -0.3717 0.5809 0.5211
H18B H -0.4214 0.6974 0.5286
Co1B Co -0.20159(3) 0.67858(4) 0.88451(2)
H19B H -0.2471 0.9162 0.8906
H20B H -0.1573 0.8363 1.0012
N1B N -0.3638(2) 0.6018(3) 0.63469(17)
O1B O -0.27423(15) 0.6331(2) 0.94514(14)
O2B O -0.24473(18) 0.4302(2) 0.97115(17)
O3B O -0.3473(2) 0.3071(3) 1.1709(2)
O4B O -0.48785(14) 0.1202(2) 1.41579(13)
O5B O -0.60932(14) 0.1077(2) 1.30097(13)
O6B O -0.4230(2) 0.7446(3) 1.11525(18)
O7B O -0.62486(14) 0.7886(2) 1.32930(14)
O8B O -0.49786(14) 0.8575(2) 1.42245(13)
O9B O -0.29068(15) 0.5970(2) 0.77464(14)
O10B O -0.13563(13) 0.49917(19) 0.92376(12)
O11B O -0.26088(15) 0.8550(2) 0.84687(15)
H21B H -0.3046 0.8471 0.8035
O12B O -0.12214(15) 0.7848(2) 0.98883(14)
H22B H -0.0908 0.7381 1.0261
Co1A Co -0.70159(3) 0.82142(4) 1.38451(2)
Co1C Co 0.70159(3) 0.17858(4) 0.61549(2)
Co2A Co -0.5000 0.0000 1.5000
Co2A_2 Co -0.5000 1.0000 1.5000
Co2A_3 Co 0.5000 0.0000 0.5000
Co2A_4 Co 0.5000 1.0000 0.5000
O4A O 0.01215(14) 0.3798(2) 0.91579(13)
O4C O -0.01215(14) 0.6202(2) 1.08421(13)
O7A O -0.12486(14) 0.7114(2) 0.82930(14)
O7C O 0.12486(14) 0.2886(2) 1.17070(14)
O8A O 0.00214(14) 0.6425(2) 0.92245(13)
O8C O -0.00214(14) 0.3575(2) 1.07755(13)
loop_
_geom_bond_atom_site_label_1
_geom_bond_atom_site_label_2
_geom_bond_site_symmetry_1
_geom_bond_site_symmetry_2
C1 C2 1_555 1_555
C2 C3 1_555 1_555
C3 H1 1_555 1_555
C4 C3 1_555 1_555
C5 C4 1_555 1_555
H2 C5 1_555 1_555
C6 C2 1_555 1_555
H3 C6 1_555 1_555
C7 C5 1_555 1_555
C8 C9 1_555 1_555
C9 H4 1_555 1_555
C10 C9 1_555 1_555
H5 C10 1_555 1_555
C11 C10 1_555 1_555
C12 C8 1_555 1_555
H6 C12 1_555 1_555
C13 C11 1_555 1_555
H7 C13 1_555 1_555
C14 C11 1_555 1_555
C15 C16 1_555 1_555
C16 H8 1_555 1_555
C17 C16 1_555 1_555
H9 C17 1_555 1_555
C18 C17 1_555 1_555
C19 C15 1_555 1_555
H10 C19 1_555 1_555
C20 C18 1_555 1_555
H11 C20 1_555 1_555
C21 C18 1_555 1_555
C22 H12 1_555 1_555
C23 H13 1_555 1_555
H14 C23 1_555 1_555
H15 C23 1_555 1_555
C24 H16 1_555 1_555
H17 C24 1_555 1_555
H18 C24 1_555 1_555
Co1 O1 1_555 1_555
Co2 O10 1_555 1_555
H19 O11 1_555 1_555
H20 O12 1_555 1_555
N1 C22 1_555 1_555
O1 C1 1_555 1_555
O2 C1 1_555 1_555
O3 C7 1_555 1_555
O4 C14 1_555 1_555
O5 C14 1_555 1_555
O6 C4 1_555 1_555
O7 C21 1_555 1_555
O8 C21 1_555 1_555
O9 C22 1_555 1_555
O10 Co1 1_555 1_555
O11 Co1 1_555 1_555
H21 O11 1_555 1_555
O12 Co1 1_555 1_555
H22 O12 1_555 1_555
C1B C2B 1_555 1_555
C2B C3B 1_555 1_555
C3B H1B 1_555 1_555
C4B C3B 1_555 1_555
C5B C4B 1_555 1_555
H2B C5B 1_555 1_555
C6B C2B 1_555 1_555
H3B C6B 1_555 1_555
C7B C5B 1_555 1_555
C8B C9B 1_555 1_555
C9B H4B 1_555 1_555
C10B C9B 1_555 1_555
H5B C10B 1_555 1_555
C11B C10B 1_555 1_555
C12B C8B 1_555 1_555
H6B C12B 1_555 1_555
C13B C11B 1_555 1_555
H7B C13B 1_555 1_555
C14B C11B 1_555 1_555
C15B C16B 1_555 1_555
C16B H8B 1_555 1_555
C17B C16B 1_555 1_555
H9B C17B 1_555 1_555
C18B C17B 1_555 1_555
C19B C15B 1_555 1_555
H10B C19B 1_555 1_555
C20B C18B 1_555 1_555
H11B C20B 1_555 1_555
C21B C18B 1_555 1_555
C22B H12B 1_555 1_555
C23B H13B 1_555 1_555
H14B C23B 1_555 1_555
H15B C23B 1_555 1_555
C24B H16B 1_555 1_555
H17B C24B 1_555 1_555
H18B C24B 1_555 1_555
Co1B O1B 1_555 1_555
H19B O11B 1_555 1_555
H20B O12B 1_555 1_555
N1B C22B 1_555 1_555
O1B C1B 1_555 1_555
O2B C1B 1_555 1_555
O3B C7B 1_555 1_555
O4B C14B 1_555 1_555
O5B C14B 1_555 1_555
O6B C4B 1_555 1_555
O7B C21B 1_555 1_555
O8B C21B 1_555 1_555
O9B C22B 1_555 1_555
O10B Co2 1_555 1_555
O11B Co1B 1_555 1_555
H21B O11B 1_555 1_555
O12B Co1B 1_555 1_555
H22B O12B 1_555 1_555
Co1A O7B 1_555 1_555
Co1C O7 1_555 1_555
Co2A O4B 1_555 1_555
Co2A_2 O8B 1_555 1_555
Co2A_3 O8 1_555 1_555
Co2A_4 O4 1_555 1_555
O4A Co2 1_555 1_555
O4C Co2 1_555 1_555
O7A Co1B 1_555 1_555
O7C Co1 1_555 1_555
O8A Co2 1_555 1_555
O8C Co2 1_555 1_555
C6 C7 1_555 1_555
C8 O3 1_555 1_555
C12 C13 1_555 1_555
C15 O6 1_555 1_555
C19 C20 1_555 1_555
C23 N1 1_555 1_555
C24 N1 1_555 1_555
Co1 O9 1_555 1_555
C6B C7B 1_555 1_555
C8B O3B 1_555 1_555
C12B C13B 1_555 1_555
C15B O6B 1_555 1_555
C19B C20B 1_555 1_555
C23B N1B 1_555 1_555
C24B N1B 1_555 1_555
Co1B O9B 1_555 1_555
Co1B O10B 1_555 1_555

#END
