
#######################################################################
#
#                 Cambridge Crystallographic Data Centre
#                                CCDC 
#
#######################################################################
#
# If this CIF has been generated from an entry in the Cambridge 
# Structural Database, then it will include bibliographic, chemical, 
# crystal, experimental, refinement or atomic coordinate data resulting 
# from the CCDC's data processing and validation procedures.
#
#######################################################################

data_KHCBZO11
_symmetry_cell_setting           monoclinic
_symmetry_space_group_name_H-M   'C 2/c'
_symmetry_Int_Tables_number      15
_space_group_name_Hall           '-C 2yn'
loop_
_symmetry_equiv_pos_site_id
_symmetry_equiv_pos_as_xyz
1 x,y,z
2 1/2+x,1/2+y,z
3 -x,y,1/2-z
4 1/2-x,1/2+y,1/2-z
5 -x,-y,-z
6 1/2-x,1/2-y,-z
7 x,-y,1/2+z
8 1/2+x,1/2-y,1/2+z
_cell_length_a                   32.448(2)
_cell_length_b                   3.7577(3)
_cell_length_c                   11.4010(8)
_cell_angle_alpha                90
_cell_angle_beta                 94.631(4)
_cell_angle_gamma                90
_cell_volume                     1385.58
loop_
_atom_site_label
_atom_site_type_symbol
_atom_site_fract_x
_atom_site_fract_y
_atom_site_fract_z
K1 K 0.0000 -1.8091(2) -0.2500
Cl1 Cl -0.212910(19) -2.03570(19) -0.66310(5)
O1 O 0.05097(6) -1.2771(6) -0.34966(17)
O2 O -0.03378(7) -1.5579(7) -0.46436(18)
C1 C -0.17398(9) -1.8643(7) -0.5641(2)
C2 C -0.13371(9) -1.8443(8) -0.5962(2)
H1 H -0.1270 -1.9243 -0.6694
C3 C -0.10348(9) -1.7000(8) -0.5151(2)
C4 C -0.11433(9) -1.5819(8) -0.4055(2)
H2 H -0.0942 -1.4864 -0.3519
C5 C -0.15471(10) -1.6057(8) -0.3763(2)
H3 H -0.1616 -1.5243 -0.3034
C6 C -0.18514(9) -1.7503(8) -0.4550(2)
H4 H -0.2123 -1.7704 -0.4352
C7 C -0.06009(9) -1.6623(8) -0.5487(2)
H5 H 0.0000 -1.5000 -0.5000
K1F K 0.0000 -1.1909(2) -0.7500
K1F_2 K 0.0000 -2.1909(2) -0.7500
K1_2 K 0.0000 -0.8091(2) -0.2500
Cl1D Cl 0.212910(19) -0.96430(19) -0.33690(5)
O1B O -0.05097(6) -2.2771(6) -0.15034(17)
O1_2 O 0.05097(6) -2.2771(6) -0.34966(17)
O1B_2 O -0.05097(6) -1.2771(6) -0.15034(17)
O1D O -0.05097(6) -1.7229(6) -0.65034(17)
O2B O 0.03378(7) -1.5579(7) -0.03564(18)
O2D O 0.03378(7) -1.4421(7) -0.53564(18)
C1D C 0.17398(9) -1.1357(7) -0.4359(2)
C2D C 0.13371(9) -1.1557(8) -0.4038(2)
H1D H 0.1270 -1.0757 -0.3306
C3D C 0.10348(9) -1.3000(8) -0.4849(2)
C4D C 0.11433(9) -1.4181(8) -0.5945(2)
H2D H 0.0942 -1.5136 -0.6481
C5D C 0.15471(10) -1.3943(8) -0.6237(2)
H3D H 0.1616 -1.4757 -0.6966
C6D C 0.18514(9) -1.2497(8) -0.5450(2)
H4D H 0.2123 -1.2296 -0.5648
C7D C 0.06009(9) -1.3377(8) -0.4513(2)
loop_
_geom_bond_atom_site_label_1
_geom_bond_atom_site_label_2
_geom_bond_site_symmetry_1
_geom_bond_site_symmetry_2
K1 O1 1_555 1_555
Cl1 C1 1_555 1_555
O1 K1_2 1_555 1_555
O2 K1 1_555 1_555
C1 C2 1_555 1_555
C2 H1 1_555 1_555
C3 C2 1_555 1_555
C4 C3 1_555 1_555
H2 C4 1_555 1_555
C5 C4 1_555 1_555
H3 C5 1_555 1_555
C6 C1 1_555 1_555
H4 C6 1_555 1_555
C7 O2 1_555 1_555
H5 O2 1_555 1_555
K1F O1D 1_555 1_555
K1F_2 O1D 1_555 1_555
K1_2 O1B_2 1_555 1_555
Cl1D C1D 1_555 1_555
O1B K1 1_555 1_555
O1_2 K1 1_555 1_555
O1B_2 K1 1_555 1_555
O1D C7 1_555 1_555
O2B K1 1_555 1_555
O2D H5 1_555 1_555
C1D C2D 1_555 1_555
C2D H1D 1_555 1_555
C3D C2D 1_555 1_555
C4D C3D 1_555 1_555
H2D C4D 1_555 1_555
C5D C4D 1_555 1_555
H3D C5D 1_555 1_555
C6D C1D 1_555 1_555
H4D C6D 1_555 1_555
C7D O1 1_555 1_555
C3 C7 1_555 1_555
C5 C6 1_555 1_555
K1F O2D 1_555 1_555
O2D C7D 1_555 1_555
C3D C7D 1_555 1_555
C5D C6D 1_555 1_555

#END
