
#######################################################################
#
#                 Cambridge Crystallographic Data Centre
#                                CCDC 
#
#######################################################################
#
# If this CIF has been generated from an entry in the Cambridge 
# Structural Database, then it will include bibliographic, chemical, 
# crystal, experimental, refinement or atomic coordinate data resulting 
# from the CCDC's data processing and validation procedures.
#
#######################################################################

data_KHMALA03
_symmetry_cell_setting           orthorhombic
_symmetry_space_group_name_H-M   'P b c 21'
_symmetry_Int_Tables_number      29
_space_group_name_Hall           'P 2c -2b'
loop_
_symmetry_equiv_pos_site_id
_symmetry_equiv_pos_as_xyz
1 x,y,z
2 -x,-y,1/2+z
3 -x,1/2+y,z
4 x,1/2-y,1/2+z
_cell_length_a                   4.574(1)
_cell_length_b                   7.803(2)
_cell_length_c                   15.959(2)
_cell_angle_alpha                90
_cell_angle_beta                 90
_cell_angle_gamma                90
_cell_volume                     569.591
loop_
_atom_site_label
_atom_site_type_symbol
_atom_site_fract_x
_atom_site_fract_y
_atom_site_fract_z
K1 K -0.23763(5) 0.24977(10) 1.00018(15)
O1 O 0.2631(6) 0.4179(3) 0.9286(2)
O2 O 0.0170(7) 0.2959(5) 0.8268(2)
C1 C 0.2226(6) 0.3985(4) 0.85251(19)
C2 C 0.4073(9) 0.4894(5) 0.7918(3)
H1 H 0.572(8) 0.563(4) 0.824(2)
C3 C 0.4097(8) 0.4870(5) 0.7082(2)
H2 H 0.540(7) 0.545(4) 0.685(2)
C4 C 0.2134(7) 0.3953(4) 0.64745(18)
O3 O 0.0137(7) 0.2964(5) 0.6744(2)
O4 O 0.2628(6) 0.4209(3) 0.5720(2)
H3 H 0.011(4) 0.295(2) 0.7268(15)
K1_2 K 0.76237(5) 0.24977(10) 1.00018(15)
K1B K 0.23763(5) 0.74977(10) 1.00018(15)
K1C K -0.23763(5) 0.25023(10) 0.50018(15)
K1A K 0.23763(5) 0.75023(10) 0.50018(15)
K1C_2 K 0.76237(5) 0.25023(10) 0.50018(15)
O1_2 O -0.7369(6) 0.4179(3) 0.9286(2)
O1B O -0.2631(6) -0.0821(3) 0.9286(2)
O3C O 0.0137(7) 0.2036(5) 1.1744(2)
O4A O -0.2628(6) 0.5791(3) 1.0720(2)
O4C O -0.7372(6) 0.0791(3) 1.0720(2)
O4C_2 O 0.2628(6) 0.0791(3) 1.0720(2)
H3C H 0.011(4) 0.205(2) 1.2268(15)
loop_
_geom_bond_atom_site_label_1
_geom_bond_atom_site_label_2
_geom_bond_site_symmetry_1
_geom_bond_site_symmetry_2
K1 O1 1_555 1_555
O1 C1 1_555 1_555
O2 K1 1_555 1_555
C1 O2 1_555 1_555
C2 C1 1_555 1_555
H1 C2 1_555 1_555
C3 C2 1_555 1_555
H2 C3 1_555 1_555
C4 C3 1_555 1_555
O3 C4 1_555 1_555
O4 C4 1_555 1_555
H3 O3 1_555 1_555
K1_2 O1 1_555 1_555
K1B O1 1_555 1_555
K1C O3 1_555 1_555
K1A O4 1_555 1_555
K1C_2 O4 1_555 1_555
O1_2 K1 1_555 1_555
O1B K1 1_555 1_555
O3C K1 1_555 1_555
O4A K1 1_555 1_555
O4C K1 1_555 1_555
O4C_2 K1 1_555 1_555
H3C O3C 1_555 1_555
O4 K1C 1_555 1_555
K1_2 O4C_2 1_555 1_555
K1B O4A 1_555 1_555

#END
