
#######################################################################
#
#                 Cambridge Crystallographic Data Centre
#                                CCDC 
#
#######################################################################
#
# If this CIF has been generated from an entry in the Cambridge 
# Structural Database, then it will include bibliographic, chemical, 
# crystal, experimental, refinement or atomic coordinate data resulting 
# from the CCDC's data processing and validation procedures.
#
#######################################################################

data_KHOXAL03
_symmetry_cell_setting           monoclinic
_symmetry_space_group_name_H-M   'P 21/c'
_symmetry_Int_Tables_number      14
_space_group_name_Hall           '-P 2ybc'
loop_
_symmetry_equiv_pos_site_id
_symmetry_equiv_pos_as_xyz
1 x,y,z
2 -x,1/2+y,1/2-z
3 -x,-y,-z
4 x,1/2-y,1/2+z
_cell_length_a                   4.3064(5)
_cell_length_b                   12.850(2)
_cell_length_c                   7.634(1)
_cell_angle_alpha                90
_cell_angle_beta                 101.96(1)
_cell_angle_gamma                90
_cell_volume                     413.274
loop_
_atom_site_label
_atom_site_type_symbol
_atom_site_fract_x
_atom_site_fract_y
_atom_site_fract_z
K1 K 0.8129(2) 0.06924(5) 0.2276(1)
O1 O 0.3396(5) 0.2294(2) 0.0875(3)
O2 O 0.8594(5) 0.2701(2) 0.3337(3)
O3 O 0.2492(7) 0.4000(2) 0.0489(4)
O4 O 0.7063(5) 0.4357(2) 0.3506(3)
C1 C 0.3991(7) 0.3273(2) 0.1262(4)
C2 C 0.6810(7) 0.3467(2) 0.2859(4)
H1 H 0.15(1) 0.224(4) -0.013(7)
O3A O 0.7508(7) -0.1000(2) 0.4511(4)
O3C O 1.2492(7) 0.1000(2) 0.5489(4)
O4A O 0.2937(5) -0.0643(2) 0.1494(3)
O4A_2 O 1.2937(5) -0.0643(2) 0.1494(3)
O4C O 0.7063(5) 0.0643(2) -0.1494(3)
K1A K 0.1871(2) 0.56924(5) 0.2724(1)
K1C K -0.1871(2) 0.43076(5) -0.2724(1)
K1A_2 K 1.1871(2) 0.56924(5) 0.2724(1)
K1C_2 K 0.8129(2) 0.43076(5) 0.7276(1)
loop_
_geom_bond_atom_site_label_1
_geom_bond_atom_site_label_2
_geom_bond_site_symmetry_1
_geom_bond_site_symmetry_2
K1 O1 1_555 1_555
O1 C1 1_555 1_555
O2 K1 1_555 1_555
O3 C1 1_555 1_555
O4 C2 1_555 1_555
C1 C2 1_555 1_555
C2 O2 1_555 1_555
H1 O1 1_555 1_555
O3A K1 1_555 1_555
O3C K1 1_555 1_555
O4A K1 1_555 1_555
O4A_2 K1 1_555 1_555
O4C K1 1_555 1_555
K1A O3 1_555 1_555
K1C O3 1_555 1_555
K1A_2 O4 1_555 1_555
K1C_2 O4 1_555 1_555
O4 K1A 1_555 1_555

#END
