
#######################################################################
#
#                 Cambridge Crystallographic Data Centre
#                                CCDC 
#
#######################################################################
#
# If this CIF has been generated from an entry in the Cambridge 
# Structural Database, then it will include bibliographic, chemical, 
# crystal, experimental, refinement or atomic coordinate data resulting 
# from the CCDC's data processing and validation procedures.
#
#######################################################################

data_KHPHAL07
_symmetry_cell_setting           orthorhombic
_symmetry_space_group_name_H-M   'P c a 21'
_symmetry_Int_Tables_number      29
_space_group_name_Hall           'P 2c -2ac'
loop_
_symmetry_equiv_pos_site_id
_symmetry_equiv_pos_as_xyz
1 x,y,z
2 -x,-y,1/2+z
3 1/2-x,y,1/2+z
4 1/2+x,-y,z
_cell_length_a                   9.6172(6)
_cell_length_b                   13.3264(10)
_cell_length_c                   6.4876(4)
_cell_angle_alpha                90
_cell_angle_beta                 90
_cell_angle_gamma                90
_cell_volume                     831.468
loop_
_atom_site_label
_atom_site_type_symbol
_atom_site_fract_x
_atom_site_fract_y
_atom_site_fract_z
C1 C 0.44024(17) 0.21098(13) 0.2983(2)
C2 C 0.4362(2) 0.11621(15) 0.2121(3)
C3 C 0.5464(3) 0.05077(16) 0.2377(4)
C4 C 0.6613(2) 0.08091(16) 0.3479(3)
C5 C 0.66764(19) 0.17501(15) 0.4313(3)
C6 C 0.55746(16) 0.24181(13) 0.4088(3)
C7 C 0.56806(14) 0.34279(12) 0.5114(3)
C8 C 0.32203(19) 0.28266(14) 0.2676(3)
O1 O 0.49956(12) 0.35644(10) 0.6757(2)
O2 O 0.64435(12) 0.40650(10) 0.4317(2)
O3 O 0.20172(14) 0.23771(11) 0.2545(2)
O4 O 0.33869(14) 0.37251(10) 0.2554(2)
K1 K 0.59943(4) 0.46071(3) 0.02360(8)
H1 H 0.356(2) 0.0982(15) 0.138(4)
H2 H 0.542(3) -0.010(2) 0.186(4)
H3 H 0.133(3) 0.280(2) 0.240(5)
H4 H 0.733(2) 0.0330(14) 0.362(4)
H5 H 0.746(2) 0.1938(12) 0.505(4)
O1_2 O 0.49956(12) 0.35644(10) -0.3243(2)
O1A O 0.50044(12) 0.64356(10) 0.1757(2)
O2A O 0.35565(12) 0.59350(10) -0.0683(2)
O2B O 0.85565(12) 0.40650(10) -0.0683(2)
O4A O 0.66131(14) 0.62749(10) -0.2446(2)
K1_2 K 0.59943(4) 0.46071(3) 1.02360(8)
K1A K 0.40057(4) 0.53929(3) 0.52360(8)
K1B K 0.90057(4) 0.46071(3) 0.52360(8)
loop_
_geom_bond_atom_site_label_1
_geom_bond_atom_site_label_2
_geom_bond_site_symmetry_1
_geom_bond_site_symmetry_2
C1 C2 1_555 1_555
C2 C3 1_555 1_555
C3 C4 1_555 1_555
C4 C5 1_555 1_555
C5 C6 1_555 1_555
C6 C1 1_555 1_555
C7 C6 1_555 1_555
C8 C1 1_555 1_555
O1 C7 1_555 1_555
O2 C7 1_555 1_555
O3 C8 1_555 1_555
O4 C8 1_555 1_555
K1 O2 1_555 1_555
H1 C2 1_555 1_555
H2 C3 1_555 1_555
H3 O3 1_555 1_555
H4 C4 1_555 1_555
H5 C5 1_555 1_555
O1_2 K1 1_555 1_555
O1A K1 1_555 1_555
O2A K1 1_555 1_555
O2B K1 1_555 1_555
O4A K1 1_555 1_555
K1_2 O1 1_555 1_555
K1A O1 1_555 1_555
K1B O2 1_555 1_555
O2 K1A 1_555 1_555
O4 K1 1_555 1_555
O4 K1A 1_555 1_555
O1A K1A 1_555 1_555

#END
