
#######################################################################
#
#                 Cambridge Crystallographic Data Centre
#                                CCDC 
#
#######################################################################
#
# If this CIF has been generated from an entry in the Cambridge 
# Structural Database, then it will include bibliographic, chemical, 
# crystal, experimental, refinement or atomic coordinate data resulting 
# from the CCDC's data processing and validation procedures.
#
#######################################################################

data_KHPHAL04
_symmetry_cell_setting           orthorhombic
_symmetry_space_group_name_H-M   'P c a 21'
_symmetry_Int_Tables_number      29
_space_group_name_Hall           'P 2c -2ac'
loop_
_symmetry_equiv_pos_site_id
_symmetry_equiv_pos_as_xyz
1 x,y,z
2 -x,-y,1/2+z
3 1/2+x,-y,z
4 1/2-x,y,1/2+z
_cell_length_a                   9.546(2)
_cell_length_b                   13.201(3)
_cell_length_c                   6.405(2)
_cell_angle_alpha                90
_cell_angle_beta                 90
_cell_angle_gamma                90
_cell_volume                     807.137
loop_
_atom_site_label
_atom_site_type_symbol
_atom_site_fract_x
_atom_site_fract_y
_atom_site_fract_z
K1 K -0.0951(10) -0.5374(7) 0.3211(15)
C1 C -0.0570(6) -0.2099(4) 0.0905(8)
C2 C 0.0608(6) -0.2393(5) 0.2041(8)
C3 C 0.1740(6) -0.1736(5) 0.2261(8)
H1 H 0.2674(15) -0.1971(12) 0.310(2)
C4 C 0.1686(6) -0.0758(5) 0.1416(8)
H2 H 0.2543(15) -0.0236(11) 0.164(2)
C5 C 0.0496(5) -0.0464(4) 0.0258(8)
H3 H 0.0446(16) 0.0314(9) -0.048(2)
C6 C -0.0610(6) -0.1128(5) 0.0012(7)
H4 H -0.1534(17) -0.0918(12) -0.093(2)
C7 C -0.1767(6) -0.2809(4) 0.0616(8)
O1 O -0.2985(6) -0.2359(5) 0.0467(10)
H5 H -0.3807(15) -0.2900(11) 0.0193(19)
O2 O -0.1574(7) -0.3737(5) 0.0495(11)
C8 C 0.0709(5) -0.3421(4) 0.3076(8)
O3 O 0.1466(6) -0.4071(5) 0.2260(10)
O4 O 0.0000(6) -0.3553(5) 0.4751(9)
K1A K 0.0951(10) -0.4626(7) -0.1789(15)
K1A_2 K 0.0951(10) -0.4626(7) 0.8211(15)
K1B K 0.4049(10) -0.4626(7) 0.3211(15)
O3A O -0.1466(6) -0.5929(5) 0.7260(10)
O3B O -0.3534(6) -0.5929(5) 0.2260(10)
O4A O 0.0000(6) -0.6447(5) -0.0249(9)
loop_
_geom_bond_atom_site_label_1
_geom_bond_atom_site_label_2
_geom_bond_site_symmetry_1
_geom_bond_site_symmetry_2
K1 O2 1_555 1_555
C1 C2 1_555 1_555
C2 C3 1_555 1_555
C3 H1 1_555 1_555
C4 C3 1_555 1_555
H2 C4 1_555 1_555
C5 C4 1_555 1_555
H3 C5 1_555 1_555
C6 C1 1_555 1_555
H4 C6 1_555 1_555
C7 C1 1_555 1_555
O1 C7 1_555 1_555
H5 O1 1_555 1_555
O2 C7 1_555 1_555
C8 C2 1_555 1_555
O3 K1 1_555 1_555
O4 K1 1_555 1_555
K1A O3 1_555 1_555
K1A_2 O4 1_555 1_555
K1B O3 1_555 1_555
O3A K1 1_555 1_555
O3B K1 1_555 1_555
O4A K1 1_555 1_555
C5 C6 1_555 1_555
C8 O3 1_555 1_555
C8 O4 1_555 1_555
K1A O4A 1_555 1_555
K1A_2 O3A 1_555 1_555

#END
