
#######################################################################
#
#                 Cambridge Crystallographic Data Centre
#                                CCDC 
#
#######################################################################
#
# If this CIF has been generated from an entry in the Cambridge 
# Structural Database, then it will include bibliographic, chemical, 
# crystal, experimental, refinement or atomic coordinate data resulting 
# from the CCDC's data processing and validation procedures.
#
#######################################################################

data_KHPHAL10
_symmetry_cell_setting           orthorhombic
_symmetry_space_group_name_H-M   'P c a 21'
_symmetry_Int_Tables_number      29
_space_group_name_Hall           'P 2c -2ac'
loop_
_symmetry_equiv_pos_site_id
_symmetry_equiv_pos_as_xyz
1 x,y,z
2 -x,-y,1/2+z
3 1/2-x,y,1/2+z
4 1/2+x,-y,z
_cell_length_a                   9.598(2)
_cell_length_b                   13.320(3)
_cell_length_c                   6.4599(15)
_cell_angle_alpha                90
_cell_angle_beta                 90
_cell_angle_gamma                90
_cell_volume                     825.868
loop_
_atom_site_label
_atom_site_type_symbol
_atom_site_fract_x
_atom_site_fract_y
_atom_site_fract_z
C1 C 0.4415(2) 0.21080(15) 0.2981(3)
C2 C 0.4368(3) 0.11497(17) 0.2118(4)
C3 C 0.5477(3) 0.04917(17) 0.2368(4)
C4 C 0.6633(3) 0.07975(18) 0.3480(4)
C5 C 0.6698(2) 0.17480(16) 0.4318(4)
C6 C 0.55834(19) 0.24156(14) 0.4095(3)
C7 C 0.56862(17) 0.34279(14) 0.5116(4)
C8 C 0.3222(2) 0.28215(16) 0.2678(3)
O1 O 0.50017(16) 0.35628(11) 0.6765(3)
O2 O 0.64466(16) 0.40710(12) 0.4308(3)
O3 O 0.20227(18) 0.23671(12) 0.2547(3)
O4 O 0.33884(18) 0.37236(12) 0.2555(3)
K1 K 0.59905(5) 0.46125(3) 0.02363(9)
H1 H 0.353(3) 0.0957(19) 0.139(6)
H2 H 0.546(3) -0.016(3) 0.182(6)
D1 D 0.135(4) 0.270(2) 0.249(5)
H3 H 0.734(3) 0.0328(16) 0.358(5)
H4 H 0.751(3) 0.1985(18) 0.505(6)
O1_2 O 0.50017(16) 0.35628(11) -0.3235(3)
O1A O 0.49983(16) 0.64372(11) 0.1765(3)
O2A O 0.35534(16) 0.59290(12) -0.0692(3)
O2B O 0.85534(16) 0.40710(12) -0.0692(3)
O4A O 0.66116(18) 0.62764(12) -0.2445(3)
K1_2 K 0.59905(5) 0.46125(3) 1.02363(9)
K1A K 0.40095(5) 0.53875(3) 0.52363(9)
K1B K 0.90095(5) 0.46125(3) 0.52363(9)
loop_
_geom_bond_atom_site_label_1
_geom_bond_atom_site_label_2
_geom_bond_site_symmetry_1
_geom_bond_site_symmetry_2
C1 C2 1_555 1_555
C2 C3 1_555 1_555
C3 C4 1_555 1_555
C4 C5 1_555 1_555
C5 C6 1_555 1_555
C6 C1 1_555 1_555
C7 C6 1_555 1_555
C8 C1 1_555 1_555
O1 C7 1_555 1_555
O2 C7 1_555 1_555
O3 C8 1_555 1_555
O4 C8 1_555 1_555
K1 O2 1_555 1_555
H1 C2 1_555 1_555
H2 C3 1_555 1_555
D1 O3 1_555 1_555
H3 C4 1_555 1_555
H4 C5 1_555 1_555
O1_2 K1 1_555 1_555
O1A K1 1_555 1_555
O2A K1 1_555 1_555
O2B K1 1_555 1_555
O4A K1 1_555 1_555
K1_2 O1 1_555 1_555
K1A O1 1_555 1_555
K1B O2 1_555 1_555
O2 K1A 1_555 1_555
O4 K1 1_555 1_555
O4 K1A 1_555 1_555
O1A K1A 1_555 1_555

#END
