
#######################################################################
#
#                 Cambridge Crystallographic Data Centre
#                                CCDC 
#
#######################################################################
#
# If this CIF has been generated from an entry in the Cambridge 
# Structural Database, then it will include bibliographic, chemical, 
# crystal, experimental, refinement or atomic coordinate data resulting 
# from the CCDC's data processing and validation procedures.
#
#######################################################################

data_KHPHAL03
_symmetry_cell_setting           orthorhombic
_symmetry_space_group_name_H-M   'P c a 21'
_symmetry_Int_Tables_number      29
_space_group_name_Hall           'P 2c -2ac'
loop_
_symmetry_equiv_pos_site_id
_symmetry_equiv_pos_as_xyz
1 x,y,z
2 -x,-y,1/2+z
3 1/2+x,-y,z
4 1/2-x,y,1/2+z
_cell_length_a                   9.610(3)
_cell_length_b                   13.325(3)
_cell_length_c                   6.4838(15)
_cell_angle_alpha                90
_cell_angle_beta                 90
_cell_angle_gamma                90
_cell_volume                     830.272
loop_
_atom_site_label
_atom_site_type_symbol
_atom_site_fract_x
_atom_site_fract_y
_atom_site_fract_z
K1 K 0.90107(4) 0.46117(3) 0.31952(7)
C1 C 0.94084(16) 0.78932(11) 0.0929(2)
C2 C 1.05802(16) 0.75860(11) 0.2042(3)
C3 C 1.16897(18) 0.82515(13) 0.2262(3)
H1 H 1.247(2) 0.8040(12) 0.310(4)
C4 C 1.1627(2) 0.92045(14) 0.1423(3)
H2 H 1.234(2) 0.9675(13) 0.156(4)
C5 C 1.0473(2) 0.95049(13) 0.0311(3)
H3 H 1.041(3) 1.015(2) -0.029(5)
C6 C 0.9365(2) 0.88473(13) 0.0059(3)
H4 H 0.857(2) 0.9027(15) -0.072(4)
C7 C 0.82216(17) 0.71776(12) 0.0624(3)
O1 O 0.70177(14) 0.76292(10) 0.0492(2)
H5 H 0.638(3) 0.7280(19) 0.041(4)
O2 O 0.83894(14) 0.62721(9) 0.0510(2)
C8 C 1.06839(13) 0.65721(11) 0.3072(3)
O3 O 1.14478(12) 0.59318(9) 0.2268(2)
O4 O 0.99990(12) 0.64391(8) 0.4721(2)
K1A K 1.09893(4) 0.53883(3) -0.18048(7)
K1A_2 K 1.09893(4) 0.53883(3) 0.81952(7)
K1B K 1.40107(4) 0.53883(3) 0.31952(7)
O3A O 0.85522(12) 0.40682(9) 0.7268(2)
O3B O 0.64478(12) 0.40682(9) 0.2268(2)
O4A O 1.00010(12) 0.35609(8) -0.0279(2)
loop_
_geom_bond_atom_site_label_1
_geom_bond_atom_site_label_2
_geom_bond_site_symmetry_1
_geom_bond_site_symmetry_2
K1 O2 1_555 1_555
C1 C2 1_555 1_555
C2 C3 1_555 1_555
C3 H1 1_555 1_555
C4 C3 1_555 1_555
H2 C4 1_555 1_555
C5 C4 1_555 1_555
H3 C5 1_555 1_555
C6 C1 1_555 1_555
H4 C6 1_555 1_555
C7 C1 1_555 1_555
O1 C7 1_555 1_555
H5 O1 1_555 1_555
O2 C7 1_555 1_555
C8 C2 1_555 1_555
O3 K1 1_555 1_555
O4 K1 1_555 1_555
K1A O3 1_555 1_555
K1A_2 O4 1_555 1_555
K1B O3 1_555 1_555
O3A K1 1_555 1_555
O3B K1 1_555 1_555
O4A K1 1_555 1_555
C5 C6 1_555 1_555
C8 O3 1_555 1_555
C8 O4 1_555 1_555
K1A O4A 1_555 1_555
K1A_2 O3A 1_555 1_555

#END
