
#######################################################################
#
#                 Cambridge Crystallographic Data Centre
#                                CCDC 
#
#######################################################################
#
# If this CIF has been generated from an entry in the Cambridge 
# Structural Database, then it will include bibliographic, chemical, 
# crystal, experimental, refinement or atomic coordinate data resulting 
# from the CCDC's data processing and validation procedures.
#
#######################################################################

data_KHPHAL06
_symmetry_cell_setting           orthorhombic
_symmetry_space_group_name_H-M   'P c a 21'
_symmetry_Int_Tables_number      29
_space_group_name_Hall           'P 2c -2ac'
loop_
_symmetry_equiv_pos_site_id
_symmetry_equiv_pos_as_xyz
1 x,y,z
2 -x,-y,1/2+z
3 1/2+x,-y,z
4 1/2-x,y,1/2+z
_cell_length_a                   9.5627(2)
_cell_length_b                   13.2202(6)
_cell_length_c                   6.4126(6)
_cell_angle_alpha                90
_cell_angle_beta                 90
_cell_angle_gamma                90
_cell_volume                     810.686
loop_
_atom_site_label
_atom_site_type_symbol
_atom_site_fract_x
_atom_site_fract_y
_atom_site_fract_z
K1 K 0.403033(6) 0.462130(4) 0.618003(13)
O1 O 0.64646(2) 0.592295(18) 0.71175(4)
O2 O 0.50054(2) 0.644460(17) 0.46347(4)
O3 O 0.34010(3) 0.626815(17) 0.88739(5)
O4 O 0.20115(2) 0.763922(17) 0.89103(4)
C1 C 0.56045(2) 0.759685(18) 0.73475(4)
C2 C 0.44233(3) 0.790097(19) 0.84792(4)
C3 C 0.43794(3) 0.88657(2) 0.93709(5)
C4 C 0.54934(4) 0.95338(2) 0.91136(5)
C5 C 0.66631(3) 0.92308(2) 0.79758(5)
C6 C 0.67257(3) 0.82640(2) 0.71204(5)
C7 C 0.56999(2) 0.657621(17) 0.63069(4)
C8 C 0.32286(3) 0.718634(19) 0.87748(4)
H1 H 0.122(2) 0.7131(15) 0.906(4)
H2 H 0.3543(11) 0.9023(8) 1.0128(19)
H3 H 0.5390(13) 1.0196(10) 0.974(2)
H4 H 0.7375(14) 0.9689(7) 0.780(2)
H5 H 0.7494(12) 0.8064(7) 0.623(2)
K1A K 0.596967(6) 0.537870(4) 0.118003(13)
K1A_2 K 0.596967(6) 0.537870(4) 1.118003(13)
K1C K 0.096967(6) 0.462130(4) 0.118003(13)
K1C_2 K 0.096967(6) 0.462130(4) 1.118003(13)
K1B K 0.903033(6) 0.537870(4) 0.618003(13)
O1A O 0.35354(2) 0.407705(18) 0.21175(4)
O1B O 0.14646(2) 0.407705(18) 0.71175(4)
O2A O 0.49946(2) 0.355540(17) 0.96347(4)
O3A O 0.65990(3) 0.373185(17) 0.38739(5)
O3C O 0.15990(3) 0.626815(17) 0.38739(5)
loop_
_geom_bond_atom_site_label_1
_geom_bond_atom_site_label_2
_geom_bond_site_symmetry_1
_geom_bond_site_symmetry_2
K1 O1 1_555 1_555
O1 C7 1_555 1_555
O2 K1 1_555 1_555
O3 K1 1_555 1_555
O4 C8 1_555 1_555
C1 C2 1_555 1_555
C2 C3 1_555 1_555
C3 C4 1_555 1_555
C4 C5 1_555 1_555
C5 C6 1_555 1_555
C6 C1 1_555 1_555
C7 O2 1_555 1_555
C8 O3 1_555 1_555
H1 O4 1_555 1_555
H2 C3 1_555 1_555
H3 C4 1_555 1_555
H4 C5 1_555 1_555
H5 C6 1_555 1_555
K1A O2 1_555 1_555
K1A_2 O1 1_555 1_555
K1C O1A 1_555 1_555
K1C_2 O3 1_555 1_555
K1B O1 1_555 1_555
O1A K1 1_555 1_555
O1B K1 1_555 1_555
O2A K1 1_555 1_555
O3A K1 1_555 1_555
O3C K1 1_555 1_555
O3 K1A_2 1_555 1_555
C1 C7 1_555 1_555
C2 C8 1_555 1_555
K1A O1A 1_555 1_555
K1A O3A 1_555 1_555
K1A_2 O2A 1_555 1_555
K1C O3C 1_555 1_555
K1C_2 O1B 1_555 1_555
K1B O3A 1_555 1_555

#END
