
#######################################################################
#
#                 Cambridge Crystallographic Data Centre
#                                CCDC 
#
#######################################################################
#
# If this CIF has been generated from an entry in the Cambridge 
# Structural Database, then it will include bibliographic, chemical, 
# crystal, experimental, refinement or atomic coordinate data resulting 
# from the CCDC's data processing and validation procedures.
#
#######################################################################

data_KHPHAL08
_symmetry_cell_setting           orthorhombic
_symmetry_space_group_name_H-M   'P c a 21'
_symmetry_Int_Tables_number      29
_space_group_name_Hall           'P 2c -2ac'
loop_
_symmetry_equiv_pos_site_id
_symmetry_equiv_pos_as_xyz
1 x,y,z
2 -x,-y,1/2+z
3 1/2-x,y,1/2+z
4 1/2+x,-y,z
_cell_length_a                   9.5955(2)
_cell_length_b                   13.2964(3)
_cell_length_c                   6.46630(10)
_cell_angle_alpha                90
_cell_angle_beta                 90
_cell_angle_gamma                90
_cell_volume                     825.007
loop_
_atom_site_label
_atom_site_type_symbol
_atom_site_fract_x
_atom_site_fract_y
_atom_site_fract_z
C1 C 0.44103(15) 0.21087(11) 0.2976(2)
C2 C 0.43649(18) 0.11539(13) 0.2103(3)
C3 C 0.5470(2) 0.04927(13) 0.2354(3)
C4 C 0.66260(19) 0.07963(13) 0.3470(3)
C5 C 0.66899(15) 0.17470(12) 0.4311(3)
C6 C 0.55803(14) 0.24138(11) 0.4086(2)
C7 C 0.56860(12) 0.34265(10) 0.5117(3)
C8 C 0.32193(16) 0.28235(12) 0.2670(2)
O1 O 0.49977(11) 0.35610(8) 0.67661(18)
O2 O 0.64480(11) 0.40689(8) 0.4313(2)
O3 O 0.20174(13) 0.23718(9) 0.2539(2)
O4 O 0.33886(12) 0.37271(8) 0.2551(2)
K1 K 0.59889(3) 0.46117(2) 0.02401(6)
H1 H 0.359(2) 0.0973(14) 0.134(4)
H2 H 0.540(2) -0.0134(19) 0.178(4)
H3 H 0.139(3) 0.2715(19) 0.245(4)
H4 H 0.737(2) 0.0316(12) 0.359(3)
H5 H 0.748(2) 0.1966(11) 0.504(3)
O1_2 O 0.49977(11) 0.35610(8) -0.32339(18)
O1A O 0.50023(11) 0.64390(8) 0.17661(18)
O2A O 0.35520(11) 0.59311(8) -0.0687(2)
O2B O 0.85520(11) 0.40689(8) -0.0687(2)
O4A O 0.66114(12) 0.62729(8) -0.2449(2)
K1_2 K 0.59889(3) 0.46117(2) 1.02401(6)
K1A K 0.40111(3) 0.53883(2) 0.52401(6)
K1B K 0.90111(3) 0.46117(2) 0.52401(6)
loop_
_geom_bond_atom_site_label_1
_geom_bond_atom_site_label_2
_geom_bond_site_symmetry_1
_geom_bond_site_symmetry_2
C1 C2 1_555 1_555
C2 C3 1_555 1_555
C3 C4 1_555 1_555
C4 C5 1_555 1_555
C5 C6 1_555 1_555
C6 C1 1_555 1_555
C7 C6 1_555 1_555
C8 C1 1_555 1_555
O1 C7 1_555 1_555
O2 C7 1_555 1_555
O3 C8 1_555 1_555
O4 C8 1_555 1_555
K1 O2 1_555 1_555
H1 C2 1_555 1_555
H2 C3 1_555 1_555
H3 O3 1_555 1_555
H4 C4 1_555 1_555
H5 C5 1_555 1_555
O1_2 K1 1_555 1_555
O1A K1 1_555 1_555
O2A K1 1_555 1_555
O2B K1 1_555 1_555
O4A K1 1_555 1_555
K1_2 O1 1_555 1_555
K1A O1 1_555 1_555
K1B O2 1_555 1_555
O2 K1A 1_555 1_555
O4 K1 1_555 1_555
O4 K1A 1_555 1_555
O1A K1A 1_555 1_555

#END
