
#######################################################################
#
#                 Cambridge Crystallographic Data Centre
#                                CCDC 
#
#######################################################################
#
# If this CIF has been generated from an entry in the Cambridge 
# Structural Database, then it will include bibliographic, chemical, 
# crystal, experimental, refinement or atomic coordinate data resulting 
# from the CCDC's data processing and validation procedures.
#
#######################################################################

data_KHPHAL05
_symmetry_cell_setting           orthorhombic
_symmetry_space_group_name_H-M   'P c a 21'
_symmetry_Int_Tables_number      29
_space_group_name_Hall           'P 2c -2ac'
loop_
_symmetry_equiv_pos_site_id
_symmetry_equiv_pos_as_xyz
1 x,y,z
2 -x,-y,1/2+z
3 1/2+x,-y,z
4 1/2-x,y,1/2+z
_cell_length_a                   9.566(3)
_cell_length_b                   13.246(3)
_cell_length_c                   6.417(2)
_cell_angle_alpha                90
_cell_angle_beta                 90
_cell_angle_gamma                90
_cell_volume                     813.106
loop_
_atom_site_label
_atom_site_type_symbol
_atom_site_fract_x
_atom_site_fract_y
_atom_site_fract_z
K1 K -0.0979(9) -0.5379(6) 0.3222(13)
C1 C -0.0583(5) -0.2093(4) 0.0909(6)
C2 C 0.0601(5) -0.2403(3) 0.2033(6)
C3 C 0.1731(4) -0.1743(4) 0.2260(6)
H1 H 0.2673(12) -0.1960(9) 0.308(2)
C4 C 0.1676(5) -0.0768(4) 0.1415(7)
H2 H 0.2534(15) -0.0267(9) 0.160(2)
C5 C 0.0501(5) -0.0475(3) 0.0270(6)
H3 H 0.0436(17) 0.0262(10) -0.041(2)
C6 C -0.0629(5) -0.1138(4) 0.0031(6)
H4 H -0.1511(15) -0.0919(11) -0.089(2)
C7 C -0.1765(5) -0.2810(3) 0.0607(7)
O1 O -0.2980(6) -0.2350(4) 0.0469(9)
H5 H -0.3799(13) -0.2871(9) 0.0208(15)
O2 O -0.1574(7) -0.3733(5) 0.0497(10)
C8 C 0.0704(4) -0.3422(3) 0.3058(6)
O3 O 0.1470(5) -0.4077(4) 0.2278(9)
O4 O -0.0013(6) -0.3562(5) 0.4731(8)
K1A K 0.0979(9) -0.4621(6) -0.1778(13)
K1A_2 K 0.0979(9) -0.4621(6) 0.8222(13)
K1B K 0.4021(9) -0.4621(6) 0.3222(13)
O3A O -0.1470(5) -0.5923(4) 0.7278(9)
O3B O -0.3530(5) -0.5923(4) 0.2278(9)
O4A O 0.0013(6) -0.6438(5) -0.0269(8)
loop_
_geom_bond_atom_site_label_1
_geom_bond_atom_site_label_2
_geom_bond_site_symmetry_1
_geom_bond_site_symmetry_2
K1 O2 1_555 1_555
C1 C2 1_555 1_555
C2 C3 1_555 1_555
C3 H1 1_555 1_555
C4 C3 1_555 1_555
H2 C4 1_555 1_555
C5 C4 1_555 1_555
H3 C5 1_555 1_555
C6 C1 1_555 1_555
H4 C6 1_555 1_555
C7 C1 1_555 1_555
O1 C7 1_555 1_555
H5 O1 1_555 1_555
O2 C7 1_555 1_555
C8 C2 1_555 1_555
O3 K1 1_555 1_555
O4 K1 1_555 1_555
K1A O3 1_555 1_555
K1A_2 O4 1_555 1_555
K1B O3 1_555 1_555
O3A K1 1_555 1_555
O3B K1 1_555 1_555
O4A K1 1_555 1_555
C5 C6 1_555 1_555
C8 O3 1_555 1_555
C8 O4 1_555 1_555
K1A O4A 1_555 1_555
K1A_2 O3A 1_555 1_555

#END
