
#######################################################################
#
#                 Cambridge Crystallographic Data Centre
#                                CCDC 
#
#######################################################################
#
# If this CIF has been generated from an entry in the Cambridge 
# Structural Database, then it will include bibliographic, chemical, 
# crystal, experimental, refinement or atomic coordinate data resulting 
# from the CCDC's data processing and validation procedures.
#
#######################################################################

data_KIBBUT
_symmetry_cell_setting           monoclinic
_symmetry_space_group_name_H-M   'P 21'
_symmetry_Int_Tables_number      4
_space_group_name_Hall           'P 2yb'
loop_
_symmetry_equiv_pos_site_id
_symmetry_equiv_pos_as_xyz
1 x,y,z
2 -x,1/2+y,-z
_cell_length_a                   8.2533(18)
_cell_length_b                   6.8406(18)
_cell_length_c                   18.256(6)
_cell_angle_alpha                90
_cell_angle_beta                 101.371(15)
_cell_angle_gamma                90
_cell_volume                     1010.46
loop_
_atom_site_label
_atom_site_type_symbol
_atom_site_fract_x
_atom_site_fract_y
_atom_site_fract_z
Re1 Re -0.761430(19) -0.29784(7) -0.253760(8)
Cu1 Cu -0.39834(8) -0.52677(9) -0.23109(4)
Cu2 Cu -0.14727(8) -0.50461(10) -0.29097(4)
Cu3 Cu -0.77675(9) -0.42245(13) -0.75906(3)
O1 O -0.5154(5) -0.5629(6) -0.3319(2)
O2 O -0.2991(5) -0.4910(6) -0.3846(2)
O3 O -0.6465(5) -0.4761(7) -0.2008(2)
O4 O -0.9171(5) -0.3975(6) -0.3213(2)
O5 O -0.0312(5) -0.5320(6) -0.1895(2)
O6 O -0.2533(5) -0.4860(6) -0.1380(2)
O7 O -0.6300(6) -0.1609(7) -0.2963(3)
O8 O -0.8449(6) -0.1456(7) -0.1955(3)
N1 N -0.8665(6) -0.4179(7) -0.6713(3)
N2 N 0.3137(6) -0.4370(7) 0.1533(3)
C1 C -0.8343(7) -0.4407(8) -0.5364(3)
C2 C -0.7279(7) -0.4715(8) -0.4659(3)
H1 H -0.7701 -0.4684 -0.4223
C3 C -0.4977(7) -0.5179(8) -0.5273(3)
H2 H -0.3854 -0.5404 -0.5239
C4 C -0.6005(7) -0.4963(8) -0.5968(3)
H3 H -0.5581 -0.5105 -0.6401
C5 C -0.4495(7) -0.5234(7) -0.3864(3)
C6 C 0.5497(8) -0.3980(9) 0.0953(3)
H4 H 0.6626 -0.3747 0.1017
C7 C 0.2143(7) -0.4585(7) 0.0832(3)
C8 C 0.2837(7) -0.4533(7) 0.0176(3)
C9 C 0.0426(7) -0.4827(8) 0.0763(3)
H5 H -0.0033 -0.4898 0.1188
C10 C -1.0979(7) -0.3568(9) -0.6121(3)
H6 H -1.2092 -0.3250 -0.6175
C11 C 0.4748(8) -0.4081(9) 0.1576(3)
H7 H 0.5413 -0.3937 0.2048
C12 C 0.1784(7) -0.4736(8) -0.0531(3)
H8 H 0.2228 -0.4760 -0.0961
C13 C 0.0100(7) -0.4899(8) -0.0583(3)
C14 C -0.0571(7) -0.4958(8) 0.0067(3)
H9 H -0.1707 -0.5087 0.0026
C15 C -1.0253(7) -0.3682(9) -0.6745(3)
H10 H -1.0901 -0.3399 -0.7210
C16 C -1.0044(8) -0.3926(8) -0.5422(3)
H11 H -1.0511 -0.3856 -0.4999
C17 C -0.5633(7) -0.5057(7) -0.4624(3)
C18 C 0.4573(8) -0.4221(9) 0.0254(3)
H12 H 0.5061 -0.4183 -0.0164
C19 C -0.1001(7) -0.5046(8) -0.1342(3)
C20 C -0.7690(7) -0.4528(8) -0.6017(3)
Cu2_2 Cu -1.14727(8) -0.50461(10) -0.29097(4)
Cu3_2 Cu 0.22325(9) -0.42245(13) 0.24094(3)
O4_2 O 0.0829(5) -0.3975(6) -0.3213(2)
N2_2 N -0.6863(6) -0.4370(7) -0.8467(3)
loop_
_geom_bond_atom_site_label_1
_geom_bond_atom_site_label_2
_geom_bond_site_symmetry_1
_geom_bond_site_symmetry_2
Re1 O3 1_555 1_555
Cu1 O1 1_555 1_555
Cu2 O2 1_555 1_555
Cu3 N1 1_555 1_555
O1 C5 1_555 1_555
O2 C5 1_555 1_555
O3 Cu1 1_555 1_555
O4 Re1 1_555 1_555
O5 Cu2 1_555 1_555
O6 Cu1 1_555 1_555
O7 Re1 1_555 1_555
O8 Re1 1_555 1_555
N1 C15 1_555 1_555
N2 C7 1_555 1_555
C1 C2 1_555 1_555
C2 H1 1_555 1_555
C3 H2 1_555 1_555
C4 C3 1_555 1_555
H3 C4 1_555 1_555
C5 C17 1_555 1_555
C6 H4 1_555 1_555
C7 C8 1_555 1_555
C8 C12 1_555 1_555
C9 C7 1_555 1_555
H5 C9 1_555 1_555
C10 H6 1_555 1_555
C11 N2 1_555 1_555
H7 C11 1_555 1_555
C12 H8 1_555 1_555
C13 C12 1_555 1_555
C14 C9 1_555 1_555
H9 C14 1_555 1_555
C15 C10 1_555 1_555
H10 C15 1_555 1_555
C16 C1 1_555 1_555
H11 C16 1_555 1_555
C17 C2 1_555 1_555
C18 C6 1_555 1_555
H12 C18 1_555 1_555
C19 O5 1_555 1_555
C20 N1 1_555 1_555
Cu2_2 O4 1_555 1_555
Cu3_2 N2 1_555 1_555
O4_2 Cu2 1_555 1_555
N2_2 Cu3 1_555 1_555
O6 C19 1_555 1_555
C1 C20 1_555 1_555
C3 C17 1_555 1_555
C4 C20 1_555 1_555
C6 C11 1_555 1_555
C8 C18 1_555 1_555
C10 C16 1_555 1_555
C13 C14 1_555 1_555
C13 C19 1_555 1_555

#END
