
#######################################################################
#
#                 Cambridge Crystallographic Data Centre
#                                CCDC 
#
#######################################################################
#
# If this CIF has been generated from an entry in the Cambridge 
# Structural Database, then it will include bibliographic, chemical, 
# crystal, experimental, refinement or atomic coordinate data resulting 
# from the CCDC's data processing and validation procedures.
#
#######################################################################

data_KIBCOO
_symmetry_cell_setting           monoclinic
_symmetry_space_group_name_H-M   'C 2/c'
_symmetry_Int_Tables_number      15
_space_group_name_Hall           '-C 2yn'
loop_
_symmetry_equiv_pos_site_id
_symmetry_equiv_pos_as_xyz
1 x,y,z
2 1/2+x,1/2+y,z
3 -x,y,1/2-z
4 1/2-x,1/2+y,1/2-z
5 -x,-y,-z
6 1/2-x,1/2-y,-z
7 x,-y,1/2+z
8 1/2+x,1/2-y,1/2+z
_cell_length_a                   39.131(9)
_cell_length_b                   13.082(3)
_cell_length_c                   28.121(7)
_cell_angle_alpha                90
_cell_angle_beta                 114.530(4)
_cell_angle_gamma                90
_cell_volume                     13096.2
loop_
_atom_site_label
_atom_site_type_symbol
_atom_site_fract_x
_atom_site_fract_y
_atom_site_fract_z
Cu1 Cu -0.29642(2) -0.29402(7) -0.38923(3)
Cu2 Cu -0.52447(3) -0.45485(8) -0.42224(4)
Mn1 Mn -0.37611(3) -0.44923(10) -0.28538(4)
N1 N -0.30184(17) -0.2659(5) -0.3245(2)
N2 N -0.32122(15) -0.4233(4) -0.3892(2)
N3 N -0.30215(17) -0.3124(5) -0.4615(2)
N4 N -0.29321(17) -0.1472(5) -0.4020(3)
N5 N -0.48611(17) -0.3527(5) -0.3921(2)
N6 N -0.48956(17) -0.5448(5) -0.3688(2)
N7 N -0.55315(19) -0.5723(7) -0.4635(3)
N8 N -0.54293(19) -0.3828(7) -0.4905(3)
O1 O -0.33556(14) -0.3339(4) -0.2813(2)
O2 O -0.36127(14) -0.4798(4) -0.35331(19)
O3 O -0.42253(15) -0.3491(4) -0.3368(2)
O4 O -0.42567(14) -0.5451(4) -0.3161(2)
O5 O -0.28945(19) -0.4021(5) -0.5543(3)
O6 O -0.35001(19) -0.3631(5) -0.5790(2)
O7 O -0.3133(2) 0.0822(6) -0.4038(4)
O8 O -0.2522(2) 0.0600(5) -0.3817(3)
O9 O -0.6110(2) -0.7525(7) -0.4900(3)
O10 O -0.56272(19) -0.7904(7) -0.5114(3)
C1 C -0.3241(2) -0.3331(6) -0.3164(3)
C2 C -0.3371(2) -0.4215(6) -0.3561(3)
C3 C -0.32650(19) -0.5038(6) -0.4246(3)
C4 C -0.3336(2) -0.6029(6) -0.4120(3)
H1 H -0.3344 -0.6157 -0.3800
C5 C -0.3395(3) -0.6822(6) -0.4476(4)
H2 H -0.3444 -0.7476 -0.4390
C6 C -0.3383(3) -0.6657(7) -0.4954(4)
H3 H -0.3429 -0.7187 -0.5193
C7 C -0.3303(2) -0.5697(6) -0.5065(3)
H4 H -0.3291 -0.5586 -0.5384
C8 C -0.32385(19) -0.4881(6) -0.4728(3)
C9 C -0.31474(19) -0.3908(6) -0.4908(3)
C10 C -0.2906(3) -0.2187(6) -0.4801(4)
H5 H -0.3026 -0.2157 -0.5180
H6 H -0.2636 -0.2186 -0.4692
C11 C -0.3022(3) -0.1263(6) -0.4568(3)
H7 H -0.2890 -0.0658 -0.4598
H8 H -0.3290 -0.1142 -0.4757
C12 C -0.2854(2) -0.0763(6) -0.3681(4)
C13 C -0.2783(2) -0.0894(6) -0.3130(4)
C14 C -0.2632(3) -0.0086(8) -0.2772(4)
H9 H -0.2588 0.0534 -0.2899
C15 C -0.2547(3) -0.0157(9) -0.2255(5)
H10 H -0.2446 0.0398 -0.2034
C16 C -0.2614(3) -0.1055(9) -0.2065(4)
H11 H -0.2553 -0.1118 -0.1710
C17 C -0.2768(3) -0.1856(8) -0.2386(3)
H12 H -0.2816 -0.2455 -0.2245
C18 C -0.2858(2) -0.1817(7) -0.2914(3)
C19 C -0.3162(3) -0.3868(6) -0.5451(3)
C20 C -0.3537(3) -0.3522(10) -0.6330(3)
H13 H -0.3486 -0.4170 -0.6455
H14 H -0.3358 -0.3022 -0.6343
C21 C -0.3932(4) -0.3180(16) -0.6667(5)
H15 H -0.4106 -0.3693 -0.6664
H16 H -0.3958 -0.3078 -0.7019
H17 H -0.3983 -0.2550 -0.6533
C22 C -0.2855(3) 0.0320(7) -0.3863(4)
C23 C -0.2511(4) 0.1635(7) -0.4014(6)
H18 H -0.2612 0.2132 -0.3851
H19 H -0.2653 0.1666 -0.4390
C24 C -0.2103(4) 0.1828(13) -0.3870(11)
H20 H -0.1957 0.1284 -0.3651
H21 H -0.2031 0.2465 -0.3685
H22 H -0.2059 0.1860 -0.4181
C25 C -0.4541(2) -0.3912(6) -0.3588(3)
C26 C -0.4563(2) -0.5043(6) -0.3466(3)
C27 C -0.4978(2) -0.6438(7) -0.3577(3)
C28 C -0.4768(3) -0.6919(7) -0.3106(4)
H23 H -0.4565 -0.6577 -0.2856
C29 C -0.4852(3) -0.7887(8) -0.2999(4)
H24 H -0.4703 -0.8186 -0.2680
C30 C -0.5151(4) -0.8421(10) -0.3351(6)
H25 H -0.5208 -0.9071 -0.3270
C31 C -0.5364(3) -0.7987(8) -0.3822(5)
H26 H -0.5564 -0.8354 -0.4064
C32 C -0.5288(2) -0.6997(7) -0.3951(4)
C33 C -0.5524(2) -0.6673(9) -0.4463(4)
C34 C -0.5800(3) -0.5364(10) -0.5169(4)
H27 H -0.5873 -0.5934 -0.5412
H28 H -0.6025 -0.5087 -0.5153
C35 C -0.5611(3) -0.4555(10) -0.5354(4)
H29 H -0.5794 -0.4200 -0.5655
H30 H -0.5424 -0.4860 -0.5452
C36 C -0.5382(2) -0.2892(9) -0.4978(3)
C37 C -0.5171(3) -0.2180(8) -0.4556(4)
C38 C -0.5219(4) -0.1138(10) -0.4671(5)
H31 H -0.5378 -0.0931 -0.5007
C39 C -0.5035(4) -0.0400(10) -0.4295(7)
H32 H -0.5076 0.0290 -0.4380
C40 C -0.4787(4) -0.0692(8) -0.3790(6)
H33 H -0.4663 -0.0205 -0.3535
C41 C -0.4731(3) -0.1727(7) -0.3682(4)
H34 H -0.4563 -0.1924 -0.3349
C42 C -0.4913(2) -0.2480(7) -0.4042(4)
C43 C -0.5792(3) -0.7396(9) -0.4855(4)
C44 C -0.5830(3) -0.8800(8) -0.5432(4)
H35 H -0.5973 -0.9161 -0.5273
H36 H -0.5661 -0.9272 -0.5491
C45 C -0.6080(3) -0.8258(11) -0.5922(5)
H37 H -0.6216 -0.7729 -0.5839
H38 H -0.6254 -0.8737 -0.6159
H39 H -0.5930 -0.7961 -0.6083
C46 C -0.5509(2) -0.2468(6) -0.5523(3)
O11 O -0.5293(3) -0.2123(12) -0.5690(5)
O12 O -0.5876(2) -0.2506(12) -0.5804(4)
C47 C -0.6053(5) -0.2272(12) -0.6370(5)
H40 H -0.6281 -0.2670 -0.6542
H41 H -0.5882 -0.2431 -0.6530
C48 C -0.6144(10) -0.1134(15) -0.6420(10)
H42 H -0.6208 -0.0925 -0.6140
H43 H -0.6353 -0.1004 -0.6749
H44 H -0.5929 -0.0754 -0.6403
C51 C -0.3272(3) -0.6584(10) -0.2352(4)
C52 C -0.2899(3) -0.7785(7) -0.1836(4)
C53 C -0.3854(3) -0.3807(8) -0.1788(4)
C54 C -0.4121(3) -0.3858(8) -0.1216(3)
N9 N -0.3410(2) -0.5791(7) -0.2480(3)
N10 N -0.3149(3) -0.7500(8) -0.2265(4)
N11 N -0.2674(2) -0.8137(6) -0.1472(3)
N12 N -0.3814(2) -0.3955(6) -0.2154(3)
N13 N -0.3850(3) -0.3603(9) -0.1336(4)
N14 N -0.4338(2) -0.4024(7) -0.1044(3)
Cu1C Cu -0.20358(2) -0.79402(7) -0.11077(3)
Cu2B Cu -0.47553(3) -0.45485(8) -0.07776(4)
N11C N -0.2326(2) -0.3137(6) -0.3528(3)
N14B N -0.5662(2) -0.4024(7) -0.3956(3)
O15 O -0.2930(8) -0.954(2) -0.0787(12)
O17 O -0.5000 -0.434(4) -0.2500
O19 O -0.3734(12) -0.089(3) -0.2437(17)
O20 O -0.4111(13) -0.092(4) -0.106(2)
O13? O -0.5339(5) -0.2598(17) -0.5783(7)
O14? O -0.5821(4) -0.1961(17) -0.5647(8)
C49? C -0.5969(8) -0.149(3) -0.6160(9)
H45? H -0.5783 -0.1601 -0.6300
H46? H -0.5978 -0.0764 -0.6106
C50? C -0.6348(9) -0.179(3) -0.6593(11)
H47? H -0.6505 -0.2075 -0.6441
H48? H -0.6311 -0.2280 -0.6820
H49? H -0.6467 -0.1189 -0.6790
O16? O -0.5000 -0.338(6) -0.2500
O18? O -0.5057(16) -0.283(4) -0.280(2)
O21? O -0.3875(16) -0.060(4) -0.061(2)
loop_
_geom_bond_atom_site_label_1
_geom_bond_atom_site_label_2
_geom_bond_site_symmetry_1
_geom_bond_site_symmetry_2
Cu1 N1 1_555 1_555
Cu2 N5 1_555 1_555
Mn1 O1 1_555 1_555
N1 C1 1_555 1_555
N2 Cu1 1_555 1_555
N3 Cu1 1_555 1_555
N4 Cu1 1_555 1_555
N5 C25 1_555 1_555
N6 Cu2 1_555 1_555
N7 Cu2 1_555 1_555
N8 Cu2 1_555 1_555
O1 C1 1_555 1_555
O2 Mn1 1_555 1_555
O3 Mn1 1_555 1_555
O4 Mn1 1_555 1_555
O5 C19 1_555 1_555
O6 C19 1_555 1_555
O7 C22 1_555 1_555
O8 C22 1_555 1_555
O9 C43 1_555 1_555
O10 C43 1_555 1_555
C1 C2 1_555 1_555
C2 N2 1_555 1_555
C3 N2 1_555 1_555
C4 C3 1_555 1_555
H1 C4 1_555 1_555
C5 C4 1_555 1_555
H2 C5 1_555 1_555
C6 C5 1_555 1_555
H3 C6 1_555 1_555
C7 C6 1_555 1_555
H4 C7 1_555 1_555
C8 C3 1_555 1_555
C9 N3 1_555 1_555
C10 N3 1_555 1_555
H5 C10 1_555 1_555
H6 C10 1_555 1_555
C11 N4 1_555 1_555
H7 C11 1_555 1_555
H8 C11 1_555 1_555
C12 N4 1_555 1_555
C13 C12 1_555 1_555
C14 C13 1_555 1_555
H9 C14 1_555 1_555
C15 C14 1_555 1_555
H10 C15 1_555 1_555
C16 C15 1_555 1_555
H11 C16 1_555 1_555
C17 C16 1_555 1_555
H12 C17 1_555 1_555
C18 N1 1_555 1_555
C19 C9 1_555 1_555
C20 O6 1_555 1_555
H13 C20 1_555 1_555
H14 C20 1_555 1_555
C21 C20 1_555 1_555
H15 C21 1_555 1_555
H16 C21 1_555 1_555
H17 C21 1_555 1_555
C22 C12 1_555 1_555
C23 O8 1_555 1_555
H18 C23 1_555 1_555
H19 C23 1_555 1_555
C24 C23 1_555 1_555
H20 C24 1_555 1_555
H21 C24 1_555 1_555
H22 C24 1_555 1_555
C25 O3 1_555 1_555
C26 N6 1_555 1_555
C27 N6 1_555 1_555
C28 C27 1_555 1_555
H23 C28 1_555 1_555
C29 C28 1_555 1_555
H24 C29 1_555 1_555
C30 C29 1_555 1_555
H25 C30 1_555 1_555
C31 C30 1_555 1_555
H26 C31 1_555 1_555
C32 C27 1_555 1_555
C33 N7 1_555 1_555
C34 N7 1_555 1_555
H27 C34 1_555 1_555
H28 C34 1_555 1_555
C35 N8 1_555 1_555
H29 C35 1_555 1_555
H30 C35 1_555 1_555
C36 N8 1_555 1_555
C37 C36 1_555 1_555
C38 C37 1_555 1_555
H31 C38 1_555 1_555
C39 C38 1_555 1_555
H32 C39 1_555 1_555
C40 C39 1_555 1_555
H33 C40 1_555 1_555
C41 C40 1_555 1_555
H34 C41 1_555 1_555
C42 N5 1_555 1_555
C43 C33 1_555 1_555
C44 O10 1_555 1_555
H35 C44 1_555 1_555
H36 C44 1_555 1_555
C45 C44 1_555 1_555
H37 C45 1_555 1_555
H38 C45 1_555 1_555
H39 C45 1_555 1_555
C46 C36 1_555 1_555
O11 C46 1_555 1_555
O12 C46 1_555 1_555
C47 O12 1_555 1_555
H40 C47 1_555 1_555
H41 C47 1_555 1_555
C48 C47 1_555 1_555
H42 C48 1_555 1_555
H43 C48 1_555 1_555
H44 C48 1_555 1_555
C51 N9 1_555 1_555
C52 N10 1_555 1_555
C53 N12 1_555 1_555
C54 N13 1_555 1_555
N9 Mn1 1_555 1_555
N10 C51 1_555 1_555
N11 C52 1_555 1_555
N12 Mn1 1_555 1_555
N13 C53 1_555 1_555
N14 C54 1_555 1_555
Cu1C N11 1_555 1_555
Cu2B N14 1_555 1_555
N11C Cu1 1_555 1_555
N14B Cu2 1_555 1_555
O2 C2 1_555 1_555
O4 C26 1_555 1_555
C7 C8 1_555 1_555
C8 C9 1_555 1_555
C10 C11 1_555 1_555
C13 C18 1_555 1_555
C17 C18 1_555 1_555
C25 C26 1_555 1_555
C31 C32 1_555 1_555
C32 C33 1_555 1_555
C34 C35 1_555 1_555
C37 C42 1_555 1_555
C41 C42 1_555 1_555

#END
