
#######################################################################
#
#                 Cambridge Crystallographic Data Centre
#                                CCDC 
#
#######################################################################
#
# If this CIF has been generated from an entry in the Cambridge 
# Structural Database, then it will include bibliographic, chemical, 
# crystal, experimental, refinement or atomic coordinate data resulting 
# from the CCDC's data processing and validation procedures.
#
#######################################################################

data_KIBCAA
_symmetry_cell_setting           monoclinic
_symmetry_space_group_name_H-M   'P 21/n'
_symmetry_Int_Tables_number      14
_space_group_name_Hall           '-P 2yn'
loop_
_symmetry_equiv_pos_site_id
_symmetry_equiv_pos_as_xyz
1 x,y,z
2 1/2-x,1/2+y,1/2-z
3 -x,-y,-z
4 1/2+x,1/2-y,1/2+z
_cell_length_a                   7.9717(11)
_cell_length_b                   11.9277(17)
_cell_length_c                   8.4298(12)
_cell_angle_alpha                90
_cell_angle_beta                 102.161(2)
_cell_angle_gamma                90
_cell_volume                     783.553
loop_
_atom_site_label
_atom_site_type_symbol
_atom_site_fract_x
_atom_site_fract_y
_atom_site_fract_z
Re1 Re 0.62820(4) -0.253340(18) 0.04188(3)
O1 O 0.2178(10) 0.2465(3) -0.2207(10)
O2 O 0.4880(7) 0.1274(5) -0.0146(7)
O3 O 0.5031(9) 0.3649(6) -0.0493(8)
O4 O 0.2700(11) 0.2721(6) 0.1182(9)
Cu1 Cu 0.33309(9) -0.04084(7) -0.17447(8)
N1 N 0.4357(7) -0.0169(5) -0.3595(6)
C1 C 0.3896(8) 0.0716(6) -0.4567(7)
H1 H 0.3138 0.1235 -0.4286
C2 C 0.5502(8) -0.0894(5) -0.4026(7)
H2 H 0.5882 -0.1511 -0.3374
N2 N 0.1360(7) -0.0233(4) -0.0753(6)
C3 C 0.1419(8) -0.0515(5) 0.0797(8)
H3 H 0.2395 -0.0868 0.1384
C4 C -0.0075(9) 0.0297(6) -0.1547(8)
H4 H -0.0155 0.0518 -0.2618
Re1B Re 0.37180(4) 0.253340(18) -0.04188(3)
O1C O 0.7178(10) 0.2535(3) 0.2793(10)
O1A O 0.2822(10) -0.2535(3) -0.2793(10)
O1B O 0.7822(10) -0.2465(3) 0.2207(10)
O2B O 0.5120(7) -0.1274(5) 0.0146(7)
O3B O 0.4969(9) -0.3649(6) 0.0493(8)
O4B O 0.7300(11) -0.2721(6) -0.1182(9)
Cu1B Cu 0.66691(9) 0.04084(7) 0.17447(8)
Cu1B_2 Cu -0.33309(9) 0.04084(7) 0.17447(8)
Cu1B_3 Cu 0.66691(9) 0.04084(7) -0.82553(8)
Cu1A Cu 0.16691(9) 0.45916(7) -0.32553(8)
Cu1C Cu 0.83309(9) -0.45916(7) 0.32553(8)
N1B N 0.5643(7) 0.0169(5) 0.3595(6)
N1B_2 N 0.5643(7) 0.0169(5) -0.6405(6)
C1B C 0.6104(8) -0.0716(6) -0.5433(7)
H1B H 0.6862 -0.1235 -0.5714
C2B C 0.4498(8) 0.0894(5) -0.5974(7)
H2B H 0.4118 0.1511 -0.6626
N2B N 0.8640(7) 0.0233(4) 0.0753(6)
N2B_2 N -0.1360(7) 0.0233(4) 0.0753(6)
C3B C -0.1419(8) 0.0515(5) -0.0797(8)
H3B H -0.2395 0.0868 -0.1384
C4B C 0.0075(9) -0.0297(6) 0.1547(8)
H4B H 0.0155 -0.0518 0.2618
loop_
_geom_bond_atom_site_label_1
_geom_bond_atom_site_label_2
_geom_bond_site_symmetry_1
_geom_bond_site_symmetry_2
Re1 O1B 1_555 1_555
O1 Re1B 1_555 1_555
O2 Cu1 1_555 1_555
O3 Re1B 1_555 1_555
O4 Re1B 1_555 1_555
Cu1 N1 1_555 1_555
N1 C1 1_555 1_555
C1 H1 1_555 1_555
C2 N1 1_555 1_555
H2 C2 1_555 1_555
N2 Cu1 1_555 1_555
C3 N2 1_555 1_555
H3 C3 1_555 1_555
C4 N2 1_555 1_555
H4 C4 1_555 1_555
Re1B O2 1_555 1_555
O1C Cu1B 1_555 1_555
O1A Cu1 1_555 1_555
O1B Cu1C 1_555 1_555
O2B Re1 1_555 1_555
O3B Re1 1_555 1_555
O4B Re1 1_555 1_555
Cu1B O2 1_555 1_555
Cu1B_2 N2B_2 1_555 1_555
Cu1B_3 N1B_2 1_555 1_555
Cu1A O1 1_555 1_555
N1B Cu1B 1_555 1_555
N1B_2 C1B 1_555 1_555
C1B C2 1_555 1_555
H1B C1B 1_555 1_555
C2B C1 1_555 1_555
H2B C2B 1_555 1_555
N2B Cu1B 1_555 1_555
N2B_2 C3B 1_555 1_555
C3B C4 1_555 1_555
H3B C3B 1_555 1_555
C4B C3 1_555 1_555
H4B C4B 1_555 1_555
Cu1 O2B 1_555 1_555
O2B Cu1B 1_555 1_555
N1B_2 C2B 1_555 1_555
N2B_2 C4B 1_555 1_555

#END
