
#######################################################################
#
#                 Cambridge Crystallographic Data Centre
#                                CCDC 
#
#######################################################################
#
# If this CIF has been generated from an entry in the Cambridge 
# Structural Database, then it will include bibliographic, chemical, 
# crystal, experimental, refinement or atomic coordinate data resulting 
# from the CCDC's data processing and validation procedures.
#
#######################################################################

data_KIBDEG
_symmetry_cell_setting           orthorhombic
_symmetry_space_group_name_H-M   'P n m a'
_symmetry_Int_Tables_number      62
_space_group_name_Hall           '-P 2ac 2n'
loop_
_symmetry_equiv_pos_site_id
_symmetry_equiv_pos_as_xyz
1 x,y,z
2 1/2-x,-y,1/2+z
3 1/2+x,1/2-y,1/2-z
4 -x,1/2+y,-z
5 -x,-y,-z
6 1/2+x,y,1/2-z
7 1/2-x,1/2+y,1/2+z
8 x,1/2-y,z
_cell_length_a                   19.018(5)
_cell_length_b                   29.527(5)
_cell_length_c                   23.963(5)
_cell_angle_alpha                90
_cell_angle_beta                 90
_cell_angle_gamma                90
_cell_volume                     13456.3
loop_
_atom_site_label
_atom_site_type_symbol
_atom_site_fract_x
_atom_site_fract_y
_atom_site_fract_z
C1 C 1.1392(6) 1.1816(3) 0.5132(5)
C2 C 1.1056(5) 1.1471(3) 0.5503(4)
C3 C 1.0513(6) 1.1207(3) 0.5321(4)
H1 H 1.0343 1.1240 0.4951
C4 C 1.0201(5) 1.0884(3) 0.5682(3)
H2 H 0.9828 1.0697 0.5555
C5 C 1.0450(4) 1.0845(2) 0.6225(3)
C6 C 1.0983(4) 1.1113(3) 0.6400(4)
H3 H 1.1150 1.1086 0.6772
C7 C 1.1290(4) 1.1429(3) 0.6042(4)
H4 H 1.1662 1.1615 0.6172
C8 C 0.9472(4) 1.0561(3) 0.6735(3)
C9 C 0.9228(3) 1.0171(3) 0.7086(3)
C10 C 0.8561(4) 1.0094(3) 0.7293(3)
H5 H 0.8194 1.0304 0.7222
C11 C 0.8428(4) 0.9710(2) 0.7602(3)
H6 H 0.7967 0.9651 0.7737
C12 C 0.8976(4) 0.9406(2) 0.7717(3)
H7 H 0.8900 0.9145 0.7941
C13 C 0.9624(3) 0.9497(2) 0.7496(3)
C14 C 1.0264(4) 0.9212(2) 0.7533(3)
C15 C 1.1428(3) 0.9114(2) 0.7244(3)
C16 C 1.1817(4) 0.9078(2) 0.7732(3)
H8 H 1.1691 0.9253 0.8049
C17 C 1.2388(3) 0.8787(2) 0.7759(3)
H9 H 1.2647 0.8757 0.8097
C18 C 1.2582(3) 0.8538(2) 0.7290(3)
C19 C 1.2223(4) 0.8598(3) 0.6800(3)
H10 H 1.2374 0.8445 0.6472
C20 C 1.1640(4) 0.8880(3) 0.6778(3)
H11 H 1.1385 0.8912 0.6438
C21 C 1.3172(4) 0.8196(3) 0.7344(4)
C22 C 0.7538(4) 0.9192(2) 0.5690(3)
C23 C 0.8294(4) 0.9289(2) 0.5798(3)
C24 C 0.8727(4) 0.8995(2) 0.6103(3)
H12 H 0.8539 0.8719 0.6243
C25 C 0.9423(3) 0.9100(2) 0.6204(3)
H13 H 0.9709 0.8898 0.6413
C26 C 0.9708(4) 0.9500(2) 0.6000(3)
C27 C 0.9313(4) 0.9768(3) 0.5661(4)
H14 H 0.9520 1.0024 0.5485
C28 C 0.8607(4) 0.9670(3) 0.5568(4)
H15 H 0.8334 0.9867 0.5343
C29 C 1.0927(3) 0.9624(2) 0.5785(3)
C30 C 1.1565(3) 0.9869(2) 0.6000(3)
C31 C 1.2199(4) 0.9938(3) 0.5722(3)
H16 H 1.2288 0.9801 0.5371
C32 C 1.2697(4) 1.0213(3) 0.5975(3)
H17 H 1.3121 1.0281 0.5783
C33 C 1.2585(3) 1.0392(3) 0.6506(3)
H18 H 1.2928 1.0577 0.6681
C34 C 1.1954(3) 1.0290(2) 0.6769(3)
C35 C 1.1716(3) 1.0447(2) 0.7329(3)
C36 C 1.0738(3) 1.0429(2) 0.7949(3)
C37 C 1.0382(7) 1.0833(4) 0.7983(4)
H19 H 1.0381 1.1032 0.7671
C38 C 1.0022(8) 1.0955(4) 0.8465(4)
H20 H 0.9792 1.1240 0.8484
C39 C 0.9998(4) 1.0670(3) 0.8910(3)
C40 C 1.0345(5) 1.0257(3) 0.8880(3)
H21 H 1.0332 1.0055 0.9189
C41 C 1.0710(4) 1.0137(3) 0.8399(3)
H22 H 1.0943 0.9853 0.8380
C42 C 0.9601(4) 1.0800(3) 0.9426(4)
N1 N 1.0145(3) 1.05090(19) 0.6589(2)
N2 N 0.9734(3) 0.98704(17) 0.7189(2)
N3 N 1.0795(3) 0.93733(18) 0.7239(2)
N4 N 1.0404(3) 0.96435(19) 0.6155(2)
N5 N 1.1470(3) 1.00408(18) 0.6507(2)
N6 N 1.1075(3) 1.02918(18) 0.7448(2)
O1 O 0.9078(3) 1.0880(2) 0.6630(3)
O2 O 1.0250(3) 0.8847(2) 0.7815(3)
O3 O 1.2369(3) 1.20098(16) 0.3824(2)
O4 O 1.0924(3) 0.94426(19) 0.53165(19)
O5 O 1.3218(4) 1.2500 0.4804(3)
O6 O 1.2091(2) 1.06948(18) 0.7632(2)
O7 O 1.4822(5) 0.7500 0.6784(4)
O8 O 1.1028(5) 1.1966(3) 0.4726(3)
O9 O 1.4952(4) 0.8050(3) 0.7901(3)
O10 O 1.1996(5) 1.1949(2) 0.5223(4)
O11 O 1.4087(5) 0.7500 0.8681(4)
O12 O 1.3321(3) 0.8039(2) 0.7808(3)
O13 O 0.5366(3) 0.9138(2) 0.5898(3)
O14 O 1.3497(5) 0.8078(4) 0.6922(3)
O15 O 0.5986(3) 0.82074(16) 0.5605(2)
O16 O 0.7155(3) 0.94875(19) 0.5456(3)
O17 O 0.6951(4) 0.8649(3) 0.4573(3)
O18 O 0.7283(3) 0.88105(17) 0.5820(2)
O19 O 0.9264(3) 1.0509(2) 0.9689(2)
O20 O 0.9604(4) 1.1217(2) 0.9573(3)
Co1 Co 1.06068(4) 0.99539(3) 0.68547(3)
Cd1 Cd 1.20238(4) 1.2500 0.44957(4)
Cd2 Cd 1.41510(4) 0.7500 0.76043(5)
Cd3 Cd 0.62558(3) 0.893252(16) 0.52823(2)
C1G C 1.1392(6) 0.3184(3) 0.5132(5)
C2G C 1.1056(5) 0.3529(3) 0.5503(4)
C3G C 1.0513(6) 0.3793(3) 0.5321(4)
H1G H 1.0343 0.3760 0.4951
C4G C 1.0201(5) 0.4116(3) 0.5682(3)
H2G H 0.9828 0.4303 0.5555
C5G C 1.0450(4) 0.4155(2) 0.6225(3)
C6G C 1.0983(4) 0.3887(3) 0.6400(4)
H3G H 1.1150 0.3914 0.6772
C7G C 1.1290(4) 0.3571(3) 0.6042(4)
H4G H 1.1662 0.3385 0.6172
C8G C 0.9472(4) 0.4439(3) 0.6735(3)
C9G C 0.9228(3) 0.4829(3) 0.7086(3)
C10G C 0.8561(4) 0.4906(3) 0.7293(3)
H5G H 0.8194 0.4696 0.7222
C11G C 0.8428(4) 0.5290(2) 0.7602(3)
H6G H 0.7967 0.5349 0.7737
C12G C 0.8976(4) 0.5594(2) 0.7717(3)
H7G H 0.8900 0.5855 0.7941
C13G C 0.9624(3) 0.5503(2) 0.7496(3)
C14G C 1.0264(4) 0.5788(2) 0.7533(3)
C15G C 1.1428(3) 0.5886(2) 0.7244(3)
C16G C 1.1817(4) 0.5922(2) 0.7732(3)
H8G H 1.1691 0.5747 0.8049
C17G C 1.2388(3) 0.6213(2) 0.7759(3)
H9G H 1.2647 0.6243 0.8097
C18G C 1.2582(3) 0.6462(2) 0.7290(3)
C19G C 1.2223(4) 0.6402(3) 0.6800(3)
H10G H 1.2374 0.6555 0.6472
C20G C 1.1640(4) 0.6120(3) 0.6778(3)
H11G H 1.1385 0.6088 0.6438
C21G C 1.3172(4) 0.6804(3) 0.7344(4)
C22G C 0.7538(4) 0.5808(2) 0.5690(3)
C23G C 0.8294(4) 0.5711(2) 0.5798(3)
C24G C 0.8727(4) 0.6005(2) 0.6103(3)
H12G H 0.8539 0.6281 0.6243
C25G C 0.9423(3) 0.5900(2) 0.6204(3)
H13G H 0.9709 0.6102 0.6413
C26G C 0.9708(4) 0.5500(2) 0.6000(3)
C27G C 0.9313(4) 0.5232(3) 0.5661(4)
H14G H 0.9520 0.4976 0.5485
C28G C 0.8607(4) 0.5330(3) 0.5568(4)
H15G H 0.8334 0.5133 0.5343
C29G C 1.0927(3) 0.5376(2) 0.5785(3)
C30G C 1.1565(3) 0.5131(2) 0.6000(3)
C31G C 1.2199(4) 0.5062(3) 0.5722(3)
H16G H 1.2288 0.5199 0.5371
C32G C 1.2697(4) 0.4787(3) 0.5975(3)
H17G H 1.3121 0.4719 0.5783
C33G C 1.2585(3) 0.4608(3) 0.6506(3)
H18G H 1.2928 0.4423 0.6681
C34G C 1.1954(3) 0.4710(2) 0.6769(3)
C35G C 1.1716(3) 0.4553(2) 0.7329(3)
C36G C 1.0738(3) 0.4571(2) 0.7949(3)
C37G C 1.0382(7) 0.4167(4) 0.7983(4)
H19G H 1.0381 0.3968 0.7671
C38G C 1.0022(8) 0.4045(4) 0.8465(4)
H20G H 0.9792 0.3760 0.8484
C39G C 0.9998(4) 0.4330(3) 0.8910(3)
C40G C 1.0345(5) 0.4743(3) 0.8880(3)
H21G H 1.0332 0.4945 0.9189
C41G C 1.0710(4) 0.4863(3) 0.8399(3)
H22G H 1.0943 0.5147 0.8380
C42G C 0.9601(4) 0.4200(3) 0.9426(4)
N1G N 1.0145(3) 0.44910(19) 0.6589(2)
N2G N 0.9734(3) 0.51296(17) 0.7189(2)
N3G N 1.0795(3) 0.56267(18) 0.7239(2)
N4G N 1.0404(3) 0.53565(19) 0.6155(2)
N5G N 1.1470(3) 0.49592(18) 0.6507(2)
N6G N 1.1075(3) 0.47082(18) 0.7448(2)
O1G O 0.9078(3) 0.4120(2) 0.6630(3)
O2G O 1.0250(3) 0.6153(2) 0.7815(3)
O4G O 1.0924(3) 0.55574(19) 0.53165(19)
O6G O 1.2091(2) 0.43052(18) 0.7632(2)
O8G O 1.1028(5) 0.3034(3) 0.4726(3)
O9G O 1.4952(4) 0.6950(3) 0.7901(3)
O10G O 1.1996(5) 0.3051(2) 0.5223(4)
O12G O 1.3321(3) 0.6961(2) 0.7808(3)
O13G O 0.5366(3) 0.5862(2) 0.5898(3)
O14G O 1.3497(5) 0.6922(4) 0.6922(3)
O15G O 0.5986(3) 0.67926(16) 0.5605(2)
O16G O 0.7155(3) 0.55125(19) 0.5456(3)
O17G O 0.6951(4) 0.6351(3) 0.4573(3)
O18G O 0.7283(3) 0.61895(17) 0.5820(2)
O19G O 0.9264(3) 0.4491(2) 0.9689(2)
O20G O 0.9604(4) 0.3783(2) 0.9573(3)
Co1G Co 1.06068(4) 0.50461(3) 0.68547(3)
Cd3G Cd 0.62558(3) 0.606748(16) 0.52823(2)
O3G O 1.2369(3) 1.29902(16) 0.3824(2)
O8G_2 O 1.1028(5) 1.3034(3) 0.4726(3)
O10G_2 O 1.1996(5) 1.3051(2) 0.5223(4)
O19A O 0.5736(3) 0.9491(2) 0.4689(2)
O19F O 0.5736(3) 0.5509(2) 0.4689(2)
O20A O 0.5396(4) 0.8783(2) 0.4573(3)
O20F O 0.5396(4) 0.6217(2) 0.4573(3)
Cd1_2 Cd 1.20238(4) 0.2500 0.44957(4)
Cd3A Cd 0.87442(3) 1.106748(16) 1.02823(2)
Cd3F Cd 0.87442(3) 0.393252(16) 1.02823(2)
O21 O 1.3914(11) 0.7500 0.6263(9)
O22 O 1.1813(5) 0.7500 0.7719(5)
O23 O 1.0945(3) 0.81270(19) 0.8258(2)
O24 O 1.2002(4) 0.82808(19) 0.4835(2)
O25 O 1.1169(11) 0.8528(5) 0.5301(7)
O26 O 0.6896(4) 1.0421(2) 0.5399(3)
O27 O 0.6573(8) 0.8277(4) 0.3541(4)
O28 O 0.4644(5) 0.7931(5) 0.5379(7)
O29 O 0.4186(4) 0.9569(3) 0.5415(5)
O30 O 0.3421(10) 0.8139(5) 0.3724(9)
O31 O 0.1836(7) 0.8676(4) 0.2504(6)
O32 O 0.4251(9) 0.8268(7) 0.4319(8)
O33 O 0.7855(15) 0.5978(6) 0.1295(5)
O34 O 0.2812(16) 0.7500 0.3731(12)
O35 O 1.1200(15) 0.7500 0.6735(12)
O36 O 0.431(3) 0.7500 0.483(3)
O37 O 0.723(4) 0.7500 0.389(2)
loop_
_geom_bond_atom_site_label_1
_geom_bond_atom_site_label_2
_geom_bond_site_symmetry_1
_geom_bond_site_symmetry_2
C1 C2 1_555 1_555
C2 C3 1_555 1_555
C3 H1 1_555 1_555
C4 C3 1_555 1_555
H2 C4 1_555 1_555
C5 C4 1_555 1_555
C6 C5 1_555 1_555
H3 C6 1_555 1_555
C7 C2 1_555 1_555
H4 C7 1_555 1_555
C8 C9 1_555 1_555
C9 C10 1_555 1_555
C10 H5 1_555 1_555
C11 C10 1_555 1_555
H6 C11 1_555 1_555
C12 C11 1_555 1_555
H7 C12 1_555 1_555
C13 C12 1_555 1_555
C14 C13 1_555 1_555
C15 C16 1_555 1_555
C16 H8 1_555 1_555
C17 C16 1_555 1_555
H9 C17 1_555 1_555
C18 C17 1_555 1_555
C19 C18 1_555 1_555
H10 C19 1_555 1_555
C20 C15 1_555 1_555
H11 C20 1_555 1_555
C21 C18 1_555 1_555
C22 C23 1_555 1_555
C23 C24 1_555 1_555
C24 H12 1_555 1_555
C25 C24 1_555 1_555
H13 C25 1_555 1_555
C26 C25 1_555 1_555
C27 C26 1_555 1_555
H14 C27 1_555 1_555
C28 C23 1_555 1_555
H15 C28 1_555 1_555
C29 C30 1_555 1_555
C30 C31 1_555 1_555
C31 H16 1_555 1_555
C32 C31 1_555 1_555
H17 C32 1_555 1_555
C33 C32 1_555 1_555
H18 C33 1_555 1_555
C34 C33 1_555 1_555
C35 C34 1_555 1_555
C36 C37 1_555 1_555
C37 H19 1_555 1_555
C38 C37 1_555 1_555
H20 C38 1_555 1_555
C39 C38 1_555 1_555
C40 C39 1_555 1_555
H21 C40 1_555 1_555
C41 C36 1_555 1_555
H22 C41 1_555 1_555
C42 C39 1_555 1_555
N1 C5 1_555 1_555
N2 C9 1_555 1_555
N3 C14 1_555 1_555
N4 C26 1_555 1_555
N5 C30 1_555 1_555
N6 C35 1_555 1_555
O1 C8 1_555 1_555
O2 C14 1_555 1_555
O3 Cd1 1_555 1_555
O4 C29 1_555 1_555
O5 Cd1 1_555 1_555
O6 C35 1_555 1_555
O7 Cd2 1_555 1_555
O8 C1 1_555 1_555
O9 Cd2 1_555 1_555
O10 C1 1_555 1_555
O11 Cd2 1_555 1_555
O12 C21 1_555 1_555
O13 Cd3 1_555 1_555
O14 C21 1_555 1_555
O15 Cd3 1_555 1_555
O16 C22 1_555 1_555
O17 Cd3 1_555 1_555
O18 C22 1_555 1_555
O19 C42 1_555 1_555
O20 C42 1_555 1_555
Co1 N1 1_555 1_555
Cd1 O8 1_555 1_555
Cd2 O12 1_555 1_555
Cd3 O16 1_555 1_555
C1G C2G 1_555 1_555
C2G C3G 1_555 1_555
C3G H1G 1_555 1_555
C4G C3G 1_555 1_555
H2G C4G 1_555 1_555
C5G C4G 1_555 1_555
C6G C5G 1_555 1_555
H3G C6G 1_555 1_555
C7G C2G 1_555 1_555
H4G C7G 1_555 1_555
C8G C9G 1_555 1_555
C9G C10G 1_555 1_555
C10G H5G 1_555 1_555
C11G C10G 1_555 1_555
H6G C11G 1_555 1_555
C12G C11G 1_555 1_555
H7G C12G 1_555 1_555
C13G C12G 1_555 1_555
C14G C13G 1_555 1_555
C15G C16G 1_555 1_555
C16G H8G 1_555 1_555
C17G C16G 1_555 1_555
H9G C17G 1_555 1_555
C18G C17G 1_555 1_555
C19G C18G 1_555 1_555
H10G C19G 1_555 1_555
C20G C15G 1_555 1_555
H11G C20G 1_555 1_555
C21G C18G 1_555 1_555
C22G C23G 1_555 1_555
C23G C24G 1_555 1_555
C24G H12G 1_555 1_555
C25G C24G 1_555 1_555
H13G C25G 1_555 1_555
C26G C25G 1_555 1_555
C27G C26G 1_555 1_555
H14G C27G 1_555 1_555
C28G C23G 1_555 1_555
H15G C28G 1_555 1_555
C29G C30G 1_555 1_555
C30G C31G 1_555 1_555
C31G H16G 1_555 1_555
C32G C31G 1_555 1_555
H17G C32G 1_555 1_555
C33G C32G 1_555 1_555
H18G C33G 1_555 1_555
C34G C33G 1_555 1_555
C35G C34G 1_555 1_555
C36G C37G 1_555 1_555
C37G H19G 1_555 1_555
C38G C37G 1_555 1_555
H20G C38G 1_555 1_555
C39G C38G 1_555 1_555
C40G C39G 1_555 1_555
H21G C40G 1_555 1_555
C41G C36G 1_555 1_555
H22G C41G 1_555 1_555
C42G C39G 1_555 1_555
N1G C5G 1_555 1_555
N2G C9G 1_555 1_555
N3G C14G 1_555 1_555
N4G C26G 1_555 1_555
N5G C30G 1_555 1_555
N6G C35G 1_555 1_555
O1G C8G 1_555 1_555
O2G C14G 1_555 1_555
O4G C29G 1_555 1_555
O6G C35G 1_555 1_555
O8G C1G 1_555 1_555
O9G Cd2 1_555 1_555
O10G C1G 1_555 1_555
O12G Cd2 1_555 1_555
O13G Cd3G 1_555 1_555
O14G Cd2 1_555 1_555
O15G Cd3G 1_555 1_555
O16G C22G 1_555 1_555
O17G Cd3G 1_555 1_555
O18G C22G 1_555 1_555
O19G C42G 1_555 1_555
O20G C42G 1_555 1_555
Co1G N1G 1_555 1_555
Cd3G O16G 1_555 1_555
O3G Cd1 1_555 1_555
O8G_2 Cd1 1_555 1_555
O10G_2 Cd1 1_555 1_555
O19A Cd3 1_555 1_555
O19F Cd3G 1_555 1_555
O20A Cd3 1_555 1_555
O20F Cd3G 1_555 1_555
Cd1_2 O8G 1_555 1_555
Cd3A O19 1_555 1_555
Cd3F O19G 1_555 1_555
C6 C7 1_555 1_555
C8 N1 1_555 1_555
C13 N2 1_555 1_555
C15 N3 1_555 1_555
C19 C20 1_555 1_555
C27 C28 1_555 1_555
C29 N4 1_555 1_555
C34 N5 1_555 1_555
C36 N6 1_555 1_555
C40 C41 1_555 1_555
N2 Co1 1_555 1_555
N3 Co1 1_555 1_555
N4 Co1 1_555 1_555
N5 Co1 1_555 1_555
N6 Co1 1_555 1_555
O10 Cd1 1_555 1_555
O14 Cd2 1_555 1_555
O18 Cd3 1_555 1_555
O20 Cd3A 1_555 1_555
C6G C7G 1_555 1_555
C8G N1G 1_555 1_555
C13G N2G 1_555 1_555
C15G N3G 1_555 1_555
C19G C20G 1_555 1_555
C21G O12G 1_555 1_555
C21G O14G 1_555 1_555
C27G C28G 1_555 1_555
C29G N4G 1_555 1_555
C34G N5G 1_555 1_555
C36G N6G 1_555 1_555
C40G C41G 1_555 1_555
N2G Co1G 1_555 1_555
N3G Co1G 1_555 1_555
N4G Co1G 1_555 1_555
N5G Co1G 1_555 1_555
N6G Co1G 1_555 1_555
O10G Cd1_2 1_555 1_555
O18G Cd3G 1_555 1_555
O20G Cd3F 1_555 1_555

#END
