
#######################################################################
#
#                 Cambridge Crystallographic Data Centre
#                                CCDC 
#
#######################################################################
#
# If this CIF has been generated from an entry in the Cambridge 
# Structural Database, then it will include bibliographic, chemical, 
# crystal, experimental, refinement or atomic coordinate data resulting 
# from the CCDC's data processing and validation procedures.
#
#######################################################################

data_KIBDAC
_symmetry_cell_setting           monoclinic
_symmetry_space_group_name_H-M   'P 21/c'
_symmetry_Int_Tables_number      14
_space_group_name_Hall           '-P 2ybc'
loop_
_symmetry_equiv_pos_site_id
_symmetry_equiv_pos_as_xyz
1 x,y,z
2 -x,1/2+y,1/2-z
3 -x,-y,-z
4 x,1/2-y,1/2+z
_cell_length_a                   13.154(5)
_cell_length_b                   39.417(5)
_cell_length_c                   19.290(5)
_cell_angle_alpha                90
_cell_angle_beta                 91.837(5)
_cell_angle_gamma                90
_cell_volume                     9996.56
loop_
_atom_site_label
_atom_site_type_symbol
_atom_site_fract_x
_atom_site_fract_y
_atom_site_fract_z
C1 C 0.8396(5) 0.25532(18) 0.9220(3)
C2 C 0.7460(4) 0.26951(15) 0.8875(3)
C3 C 0.7132(5) 0.30174(16) 0.9045(4)
H1 H 0.7479 0.3142 0.9388
C4 C 0.6300(6) 0.31516(16) 0.8708(4)
H2 H 0.6077 0.3368 0.8823
C5 C 0.5783(5) 0.29678(16) 0.8196(4)
H3 H 0.5213 0.3061 0.7971
C6 C 0.6111(4) 0.26472(14) 0.8020(3)
C7 C 0.6936(4) 0.25102(14) 0.8368(3)
H4 H 0.7147 0.2292 0.8262
C8 C 0.5827(5) 0.25177(15) 0.6825(3)
C9 C 0.5245(4) 0.22903(15) 0.6341(3)
C10 C 0.5348(6) 0.22580(17) 0.5631(3)
H5 H 0.5834 0.2382 0.5400
C11 C 0.4694(7) 0.2031(2) 0.5271(4)
H6 H 0.4717 0.2014 0.4790
C12 C 0.4020(6) 0.18346(18) 0.5626(3)
H7 H 0.3603 0.1679 0.5393
C13 C 0.3976(5) 0.18732(15) 0.6329(3)
C14 C 0.3325(5) 0.16740(15) 0.6818(3)
C15 C 0.3094(4) 0.15565(15) 0.8009(3)
C16 C 0.3426(5) 0.12342(16) 0.8167(4)
H8 H 0.3959 0.1141 0.7925
C17 C 0.2985(5) 0.10463(17) 0.8678(4)
H9 H 0.3201 0.0825 0.8768
C18 C 0.2221(5) 0.11885(16) 0.9054(4)
H10 H 0.1943 0.1068 0.9416
C19 C 0.1865(4) 0.15101(15) 0.8896(3)
C20 C 0.2302(4) 0.16914(15) 0.8365(3)
H11 H 0.2057 0.1906 0.8251
C21 C 0.1023(5) 0.16688(18) 0.9289(3)
C22 C 0.8252(5) 0.17224(18) 0.5957(3)
C23 C 0.6243(6) 0.10947(17) 0.6473(4)
H12 H 0.6010 0.0880 0.6345
C24 C 0.7028(5) 0.12438(17) 0.6130(4)
H13 H 0.7328 0.1128 0.5769
C25 C 0.7370(4) 0.15586(15) 0.6313(3)
C26 C 0.6928(5) 0.17343(15) 0.6848(3)
H14 H 0.7154 0.1951 0.6967
C27 C 0.6150(4) 0.15859(15) 0.7202(3)
C28 C 0.5810(5) 0.12656(15) 0.7007(4)
H15 H 0.5281 0.1166 0.7242
C29 C 0.5969(5) 0.16961(15) 0.8403(3)
C30 C 0.5298(5) 0.18684(15) 0.8908(3)
C31 C 0.5270(6) 0.18148(19) 0.9609(4)
H16 H 0.5721 0.1667 0.9834
C32 C 0.4542(7) 0.1991(2) 0.9967(4)
H17 H 0.4494 0.1955 1.0442
C33 C 0.3882(6) 0.2219(2) 0.9638(3)
H18 H 0.3393 0.2335 0.9882
C34 C 0.3979(5) 0.22656(18) 0.8937(3)
C35 C 0.3373(5) 0.24942(18) 0.8457(4)
C36 C 0.3056(4) 0.26341(15) 0.7272(3)
C37 C 0.3332(6) 0.29640(18) 0.7125(4)
H19 H 0.3843 0.3066 0.7396
C38 C 0.2878(6) 0.31446(18) 0.6596(5)
H20 H 0.3081 0.3366 0.6505
C39 C 0.2111(6) 0.29926(17) 0.6196(4)
H21 H 0.1793 0.3112 0.5834
C40 C 0.1816(5) 0.26611(16) 0.6339(3)
C41 C 0.2303(4) 0.24864(15) 0.6876(3)
H22 H 0.2113 0.2264 0.6968
C42 C 0.1015(5) 0.24931(18) 0.5895(3)
N1 N 0.5598(3) 0.24576(12) 0.7479(2)
N2 N 0.4566(4) 0.20959(11) 0.6673(2)
N3 N 0.3569(4) 0.17443(12) 0.7480(2)
N4 N 0.5672(4) 0.17580(12) 0.7748(2)
N5 N 0.4657(4) 0.20830(11) 0.8588(2)
N6 N 0.3575(4) 0.24427(13) 0.7802(3)
O1 O 0.6449(3) 0.27298(11) 0.6608(2)
O2 O 0.2690(3) 0.14666(11) 0.6586(2)
O3 O 0.1082(4) 0.14849(13) 0.5567(3)
O4 O 0.6698(3) 0.15138(12) 0.8613(2)
O5 O 0.1240(6) 0.2143(3) 0.4475(4)
O6 O 0.2779(4) 0.27122(16) 0.8695(3)
O7 O -0.0136(5) 0.15700(18) 0.4155(3)
O8 O 0.8635(3) 0.22421(12) 0.9082(2)
O9 O -0.0472(4) 0.32823(16) 0.6126(3)
O10 O 0.8877(4) 0.27297(16) 0.9632(3)
O11 O -0.1854(4) 0.27275(14) 0.5640(3)
O12 O 0.0548(4) 0.19154(12) 0.9035(2)
O13 O -0.1660(4) 0.34516(12) 0.4706(2)
O14 O 0.0799(4) 0.15505(11) 0.9867(2)
O15 O 0.8732(4) 0.15386(11) 0.5537(3)
O16 O 0.8476(4) 0.20232(12) 0.6060(2)
O17 O 0.0787(4) 0.21892(13) 0.6024(2)
O18 O 0.0638(4) 0.26543(14) 0.5402(3)
Co1 Co 0.46046(6) 0.210020(19) 0.76285(4)
Cd1 Cd -0.00352(4) 0.190344(12) 0.51666(2)
Cd2 Cd -0.05472(4) 0.303176(13) 0.50396(3)
H23 H 0.152(4) 0.1455(14) 0.589(3)
H24 H 0.095(5) 0.1299(9) 0.536(3)
H25 H 0.002(4) 0.1362(7) 0.423(4)
H26 H -0.075(2) 0.1588(14) 0.404(4)
H27 H 0.001(3) 0.3409(15) 0.627(3)
H28 H -0.092(4) 0.3260(16) 0.642(3)
H29 H -0.175(4) 0.2513(6) 0.571(4)
H30 H -0.2503(18) 0.2760(13) 0.564(4)
O19 O 0.8603(5) 0.16037(13) 0.8070(3)
O20 O 1.0445(4) 0.18461(14) 0.7245(3)
O21 O 1.0547(7) 0.2539(2) 0.8196(5)
O22 O 0.8689(5) 0.23587(13) 0.7290(3)
Cd3 Cd 0.95495(4) 0.207432(13) 0.81206(2)
H31 H 0.880(5) 0.1401(8) 0.810(3)
H32 H 0.834(5) 0.1671(14) 0.843(2)
H33 H 0.999(4) 0.1987(11) 0.707(3)
H34 H 1.034(5) 0.1654(7) 0.706(3)
H35 H 1.051(5) 0.2422(16) 0.783(2)
H36 H 0.996(3) 0.2623(19) 0.827(4)
H37 H 0.878(5) 0.2573(6) 0.733(3)
H38 H 0.847(5) 0.2317(13) 0.6872(17)
O8C O -0.1365(3) 0.27579(12) 0.4082(2)
O10C O -0.1123(4) 0.22703(16) 0.4632(3)
O12_2 O 1.0548(4) 0.19154(12) 0.9035(2)
O12C O 0.0548(4) 0.30846(12) 0.4035(2)
O14C O 0.0799(4) 0.34495(11) 0.4867(2)
O15_2 O -0.1268(4) 0.15386(11) 0.5537(3)
O16_2 O -0.1524(4) 0.20232(12) 0.6060(2)
Cd1_2 Cd 0.99648(4) 0.190344(12) 0.51666(2)
Cd1C Cd 0.99648(4) 0.309656(12) 1.01666(2)
Cd2C Cd -0.05472(4) 0.196824(13) 1.00396(3)
Cd2C_2 Cd 0.94528(4) 0.196824(13) 1.00396(3)
Cd3_2 Cd -0.04505(4) 0.207432(13) 0.81206(2)
C43 C 0.8599(6) 0.5005(2) 0.9127(4)
C44 C 0.7757(5) 0.51617(17) 0.8711(3)
C45 C 0.7530(6) 0.55044(18) 0.8805(4)
H39 H 0.7905 0.5633 0.9126
C46 C 0.6760(6) 0.56484(18) 0.8426(4)
H40 H 0.6592 0.5875 0.8497
C47 C 0.6214(5) 0.54544(16) 0.7924(4)
H41 H 0.5701 0.5557 0.7655
C48 C 0.6429(4) 0.51184(15) 0.7829(3)
C49 C 0.7197(5) 0.49761(16) 0.8230(3)
H42 H 0.7343 0.4747 0.8175
C50 C 0.6032(5) 0.49684(15) 0.6662(3)
C51 C 0.5408(5) 0.47383(15) 0.6204(3)
C52 C 0.5454(6) 0.46987(18) 0.5512(3)
H43 H 0.5935 0.4815 0.5261
C53 C 0.4754(6) 0.4476(2) 0.5178(4)
H44 H 0.4759 0.4449 0.4699
C54 C 0.4061(6) 0.42975(18) 0.5559(3)
H45 H 0.3594 0.4151 0.5345
C55 C 0.4086(5) 0.43438(14) 0.6261(3)
C56 C 0.3446(5) 0.41717(15) 0.6774(3)
C57 C 0.3259(5) 0.40842(15) 0.7986(3)
C58 C 0.3627(5) 0.37726(16) 0.8214(4)
H46 H 0.4153 0.3671 0.7980
C59 C 0.3240(6) 0.36108(19) 0.8774(4)
H47 H 0.3509 0.3405 0.8927
C60 C 0.2424(5) 0.37621(17) 0.9114(4)
H48 H 0.2136 0.3653 0.9487
C61 C 0.2055(5) 0.40695(16) 0.8898(3)
C62 C 0.2461(5) 0.42332(15) 0.8326(3)
H49 H 0.2197 0.4440 0.8175
C63 C 0.1182(5) 0.42381(19) 0.9254(4)
C64 C 0.8420(5) 0.41531(16) 0.5963(3)
C65 C 0.7530(5) 0.40025(15) 0.6311(3)
C66 C 0.7094(5) 0.36979(16) 0.6087(3)
H50 H 0.7358 0.3584 0.5711
C67 C 0.6279(5) 0.35656(16) 0.6419(4)
H51 H 0.6001 0.3359 0.6279
C68 C 0.5867(5) 0.37443(16) 0.6969(3)
H52 H 0.5301 0.3658 0.7186
C69 C 0.6289(4) 0.40463(14) 0.7193(3)
C70 C 0.7121(4) 0.41761(14) 0.6867(3)
H53 H 0.7410 0.4380 0.7017
C71 C 0.6048(5) 0.41708(14) 0.8381(3)
C72 C 0.5408(5) 0.43851(15) 0.8852(3)
C73 C 0.5323(6) 0.43523(19) 0.9556(3)
H54 H 0.5714 0.4196 0.9807
C74 C 0.4637(6) 0.45597(19) 0.9880(4)
H55 H 0.4571 0.4544 1.0357
C75 C 0.4047(5) 0.47906(17) 0.9506(3)
H56 H 0.3577 0.4928 0.9724
C76 C 0.4179(4) 0.48110(15) 0.8798(3)
C77 C 0.3634(5) 0.50413(15) 0.8282(3)
C78 C 0.3393(4) 0.51484(14) 0.7080(3)
C79 C 0.3718(5) 0.54765(17) 0.6933(4)
H57 H 0.4209 0.5580 0.7220
C80 C 0.3316(6) 0.56492(18) 0.6366(4)
H58 H 0.3538 0.5868 0.6277
C81 C 0.2597(5) 0.55034(17) 0.5933(4)
H59 H 0.2350 0.5618 0.5540
C82 C 0.2243(5) 0.51786(15) 0.6092(3)
C83 C 0.2637(4) 0.50043(15) 0.6667(3)
H60 H 0.2390 0.4790 0.6773
C84 C 0.1425(5) 0.50156(16) 0.5647(4)
N7 N 0.5873(4) 0.49188(12) 0.7334(2)
N8 N 0.4751(3) 0.45583(11) 0.6572(2)
N9 N 0.3724(4) 0.42506(11) 0.7427(2)
N10 N 0.5802(4) 0.42333(12) 0.7723(2)
N11 N 0.4836(4) 0.46079(11) 0.8485(2)
N12 N 0.3840(4) 0.49610(12) 0.7639(2)
O23 O -0.1478(6) 0.48068(16) 1.0655(4)
O24 O 0.6615(4) 0.51813(12) 0.6403(2)
O25 O -0.0413(4) 0.41283(13) 1.1045(2)
O26 O 0.2735(4) 0.39737(12) 0.6583(2)
O27 O -0.1654(5) 0.40599(14) 0.9720(3)
O28 O 0.6693(4) 0.39720(12) 0.8630(2)
O29 O -0.0300(5) 0.56008(15) 0.5806(3)
O30 O 0.3070(3) 0.52773(11) 0.8483(2)
O31 O -0.1082(5) 0.59532(13) 0.4432(3)
O32 O 0.9211(4) 0.51775(17) 0.9457(3)
O33 O 0.8638(5) 0.46831(16) 0.9125(4)
O34 O 0.0799(4) 0.40839(12) 0.9750(3)
O35 O 0.0881(5) 0.45153(16) 0.9050(3)
O36 O 0.8919(3) 0.43856(12) 0.6262(2)
O37 O 0.8640(3) 0.40545(11) 0.5360(2)
O38 O 0.1226(4) 0.51272(13) 0.5047(2)
O39 O 0.0978(4) 0.47670(13) 0.5923(3)
Co2 Co 0.48083(6) 0.459101(18) 0.75318(4)
Cd4 Cd -0.04083(4) 0.449109(12) 1.00077(2)
Cd5 Cd 0.00643(4) 0.553129(12) 0.47134(2)
H61 H -0.113(4) 0.4945(16) 1.090(3)
H62 H -0.200(3) 0.4745(16) 1.086(3)
H63 H -0.066(5) 0.4220(12) 1.140(2)
H64 H -0.028(5) 0.3920(7) 1.113(3)
H65 H -0.131(4) 0.3887(11) 0.989(3)
H66 H -0.2274(19) 0.3990(14) 0.966(4)
H67 H -0.056(5) 0.5451(13) 0.604(3)
H68 H 0.009(4) 0.5731(13) 0.602(3)
H69 H -0.081(4) 0.6145(9) 0.453(3)
H70 H -0.154(4) 0.5972(14) 0.412(3)
O32B O 0.0789(4) 0.48225(17) 1.0543(3)
O33_2 O -0.1362(5) 0.46831(16) 0.9125(4)
O36B O 0.1081(3) 0.56144(12) 0.3738(2)
O37B O 0.1360(3) 0.59455(11) 0.4640(2)
O39B O -0.0978(4) 0.52330(13) 0.4077(3)
Cd4_2 Cd 0.95917(4) 0.449109(12) 1.00077(2)
Cd4B Cd 1.04083(4) 0.550891(12) 0.99923(2)
Cd5B Cd -0.00643(4) 0.446871(12) 0.52866(2)
Cd5B_2 Cd 0.99357(4) 0.446871(12) 0.52866(2)
O40 O 0.1042(7) 0.18253(15) 0.3011(4)
O41 O -0.1595(4) 0.13631(13) 0.3124(3)
H71 H -0.138(5) 0.1172(9) 0.299(3)
H72 H -0.192(5) 0.1463(13) 0.280(2)
O42 O -0.1770(4) 0.19396(12) 0.2207(2)
O43 O -0.0442(4) 0.40066(12) 0.3114(2)
O44 O -0.0189(7) 0.5021(2) 0.2476(6)
O45 O 0.0394(5) 0.57977(17) 0.2335(3)
O46 O 0.0915(4) 0.36976(15) 0.7082(3)
O47 O -0.1294(5) 0.44376(17) 1.2173(3)
H73 H -0.106(4) 0.4602(11) 1.240(3)
H74 H -0.188(2) 0.4464(15) 1.202(3)
O48 O 0.0961(4) 0.11664(15) 0.7122(3)
H75 H 0.157(2) 0.1203(15) 0.698(3)
H76 H 0.097(4) 0.1002(12) 0.740(3)
O49 O 0.8671(5) 0.51183(16) 0.6541(4)
loop_
_geom_bond_atom_site_label_1
_geom_bond_atom_site_label_2
_geom_bond_site_symmetry_1
_geom_bond_site_symmetry_2
C1 C2 1_555 1_555
C2 C3 1_555 1_555
C3 H1 1_555 1_555
C4 C3 1_555 1_555
H2 C4 1_555 1_555
C5 C4 1_555 1_555
H3 C5 1_555 1_555
C6 C5 1_555 1_555
C7 C2 1_555 1_555
H4 C7 1_555 1_555
C8 C9 1_555 1_555
C9 C10 1_555 1_555
C10 H5 1_555 1_555
C11 C10 1_555 1_555
H6 C11 1_555 1_555
C12 C11 1_555 1_555
H7 C12 1_555 1_555
C13 C12 1_555 1_555
C14 C13 1_555 1_555
C15 C16 1_555 1_555
C16 H8 1_555 1_555
C17 C16 1_555 1_555
H9 C17 1_555 1_555
C18 C17 1_555 1_555
H10 C18 1_555 1_555
C19 C18 1_555 1_555
C20 C15 1_555 1_555
H11 C20 1_555 1_555
C21 C19 1_555 1_555
C22 C25 1_555 1_555
C23 H12 1_555 1_555
C24 C23 1_555 1_555
H13 C24 1_555 1_555
C25 C24 1_555 1_555
C26 C25 1_555 1_555
H14 C26 1_555 1_555
C27 C26 1_555 1_555
C28 C23 1_555 1_555
H15 C28 1_555 1_555
C29 C30 1_555 1_555
C30 C31 1_555 1_555
C31 H16 1_555 1_555
C32 C31 1_555 1_555
H17 C32 1_555 1_555
C33 C32 1_555 1_555
H18 C33 1_555 1_555
C34 C33 1_555 1_555
C35 C34 1_555 1_555
C36 C37 1_555 1_555
C37 H19 1_555 1_555
C38 C37 1_555 1_555
H20 C38 1_555 1_555
C39 C38 1_555 1_555
H21 C39 1_555 1_555
C40 C39 1_555 1_555
C41 C36 1_555 1_555
H22 C41 1_555 1_555
C42 C40 1_555 1_555
N1 C6 1_555 1_555
N2 C9 1_555 1_555
N3 C14 1_555 1_555
N4 C27 1_555 1_555
N5 C30 1_555 1_555
N6 C35 1_555 1_555
O1 C8 1_555 1_555
O2 C14 1_555 1_555
O3 Cd1 1_555 1_555
O4 C29 1_555 1_555
O5 Cd1 1_555 1_555
O6 C35 1_555 1_555
O7 Cd1 1_555 1_555
O8 C1 1_555 1_555
O9 Cd2 1_555 1_555
O10 C1 1_555 1_555
O11 Cd2 1_555 1_555
O12 C21 1_555 1_555
O13 Cd2 1_555 1_555
O14 C21 1_555 1_555
O15 C22 1_555 1_555
O16 C22 1_555 1_555
O17 C42 1_555 1_555
O18 C42 1_555 1_555
Co1 N1 1_555 1_555
Cd1 O17 1_555 1_555
Cd2 O18 1_555 1_555
H23 O3 1_555 1_555
H24 O3 1_555 1_555
H25 O7 1_555 1_555
H26 O7 1_555 1_555
H27 O9 1_555 1_555
H28 O9 1_555 1_555
H29 O11 1_555 1_555
H30 O11 1_555 1_555
O19 Cd3 1_555 1_555
O20 Cd3 1_555 1_555
O21 Cd3 1_555 1_555
O22 Cd3 1_555 1_555
Cd3 O8 1_555 1_555
H31 O19 1_555 1_555
H32 O19 1_555 1_555
H33 O20 1_555 1_555
H34 O20 1_555 1_555
H35 O21 1_555 1_555
H36 O21 1_555 1_555
H37 O22 1_555 1_555
H38 O22 1_555 1_555
C43 C44 1_555 1_555
C44 C45 1_555 1_555
C45 H39 1_555 1_555
C46 C45 1_555 1_555
H40 C46 1_555 1_555
C47 C46 1_555 1_555
H41 C47 1_555 1_555
C48 C47 1_555 1_555
C49 C44 1_555 1_555
H42 C49 1_555 1_555
C50 C51 1_555 1_555
C51 C52 1_555 1_555
C52 H43 1_555 1_555
C53 C52 1_555 1_555
H44 C53 1_555 1_555
C54 C53 1_555 1_555
H45 C54 1_555 1_555
C55 C54 1_555 1_555
C56 C55 1_555 1_555
C57 C58 1_555 1_555
C58 H46 1_555 1_555
C59 C58 1_555 1_555
H47 C59 1_555 1_555
C60 C59 1_555 1_555
H48 C60 1_555 1_555
C61 C60 1_555 1_555
C62 C57 1_555 1_555
H49 C62 1_555 1_555
C63 C61 1_555 1_555
C64 C65 1_555 1_555
C65 C66 1_555 1_555
C66 H50 1_555 1_555
C67 C66 1_555 1_555
H51 C67 1_555 1_555
C68 C67 1_555 1_555
H52 C68 1_555 1_555
C69 C68 1_555 1_555
C70 C65 1_555 1_555
H53 C70 1_555 1_555
C71 C72 1_555 1_555
C72 C73 1_555 1_555
C73 H54 1_555 1_555
C74 C73 1_555 1_555
H55 C74 1_555 1_555
C75 C74 1_555 1_555
H56 C75 1_555 1_555
C76 C75 1_555 1_555
C77 C76 1_555 1_555
C78 C79 1_555 1_555
C79 H57 1_555 1_555
C80 C79 1_555 1_555
H58 C80 1_555 1_555
C81 C80 1_555 1_555
H59 C81 1_555 1_555
C82 C81 1_555 1_555
C83 C78 1_555 1_555
H60 C83 1_555 1_555
C84 C82 1_555 1_555
N7 C48 1_555 1_555
N8 C51 1_555 1_555
N9 C56 1_555 1_555
N10 C69 1_555 1_555
N11 C72 1_555 1_555
N12 C77 1_555 1_555
O23 Cd4 1_555 1_555
O24 C50 1_555 1_555
O25 Cd4 1_555 1_555
O26 C56 1_555 1_555
O27 Cd4 1_555 1_555
O28 C71 1_555 1_555
O29 Cd5 1_555 1_555
O30 C77 1_555 1_555
O31 Cd5 1_555 1_555
O32 C43 1_555 1_555
O33 C43 1_555 1_555
O34 C63 1_555 1_555
O35 C63 1_555 1_555
O36 C64 1_555 1_555
O37 C64 1_555 1_555
O38 C84 1_555 1_555
O39 C84 1_555 1_555
Co2 N7 1_555 1_555
Cd4 O34 1_555 1_555
Cd5 O38 1_555 1_555
H61 O23 1_555 1_555
H62 O23 1_555 1_555
H63 O25 1_555 1_555
H64 O25 1_555 1_555
H65 O27 1_555 1_555
H66 O27 1_555 1_555
H67 O29 1_555 1_555
H68 O29 1_555 1_555
H69 O31 1_555 1_555
H70 O31 1_555 1_555
O41 H71 1_555 1_555
H72 O41 1_555 1_555
O47 H73 1_555 1_555
H74 O47 1_555 1_555
O48 H75 1_555 1_555
H76 O48 1_555 1_555
O8C Cd2 1_555 1_555
O10C Cd1 1_555 1_555
O12_2 Cd3 1_555 1_555
O12C Cd2 1_555 1_555
O14C Cd2 1_555 1_555
O15_2 Cd1 1_555 1_555
O16_2 Cd1 1_555 1_555
Cd1_2 O15 1_555 1_555
Cd1C O10 1_555 1_555
Cd2C O12 1_555 1_555
Cd2C_2 O8 1_555 1_555
Cd3_2 O12 1_555 1_555
O32B Cd4 1_555 1_555
O33_2 Cd4 1_555 1_555
O36B Cd5 1_555 1_555
O37B Cd5 1_555 1_555
O39B Cd5 1_555 1_555
Cd4_2 O33 1_555 1_555
Cd4B O32 1_555 1_555
Cd5B O39 1_555 1_555
Cd5B_2 O36 1_555 1_555
C6 C7 1_555 1_555
C8 N1 1_555 1_555
C13 N2 1_555 1_555
C15 N3 1_555 1_555
C19 C20 1_555 1_555
C27 C28 1_555 1_555
C29 N4 1_555 1_555
C34 N5 1_555 1_555
C36 N6 1_555 1_555
C40 C41 1_555 1_555
N2 Co1 1_555 1_555
N3 Co1 1_555 1_555
N4 Co1 1_555 1_555
N5 Co1 1_555 1_555
N6 Co1 1_555 1_555
O14 Cd2C 1_555 1_555
O16 Cd1_2 1_555 1_555
C48 C49 1_555 1_555
C50 N7 1_555 1_555
C55 N8 1_555 1_555
C57 N9 1_555 1_555
C61 C62 1_555 1_555
C69 C70 1_555 1_555
C71 N10 1_555 1_555
C76 N11 1_555 1_555
C78 N12 1_555 1_555
C82 C83 1_555 1_555
N8 Co2 1_555 1_555
N9 Co2 1_555 1_555
N10 Co2 1_555 1_555
N11 Co2 1_555 1_555
N12 Co2 1_555 1_555
O35 Cd4 1_555 1_555
O37 Cd5B_2 1_555 1_555
O12_2 Cd2C_2 1_555 1_555

#END
