
#######################################################################
#
#                 Cambridge Crystallographic Data Centre
#                                CCDC 
#
#######################################################################
#
# If this CIF has been generated from an entry in the Cambridge 
# Structural Database, then it will include bibliographic, chemical, 
# crystal, experimental, refinement or atomic coordinate data resulting 
# from the CCDC's data processing and validation procedures.
#
#######################################################################

data_KIBDEF
_symmetry_cell_setting           orthorhombic
_symmetry_space_group_name_H-M   'F d d d'
_symmetry_Int_Tables_number      70
_space_group_name_Hall           '-F 2uv 2vw'
loop_
_symmetry_equiv_pos_site_id
_symmetry_equiv_pos_as_xyz
1 x,y,z
2 x,1/2+y,1/2+z
3 x,1/4-y,1/4-z
4 1/2+x,y,1/2+z
5 1/4-x,y,1/4-z
6 1/2+x,1/2+y,z
7 1/4-x,1/4-y,z
8 3/4-x,3/4-y,z
9 3/4-x,y,3/4-z
10 x,3/4-y,3/4-z
11 3/4-x,1/4-y,1/2+z
12 3/4-x,1/2+y,1/4-z
13 1/4-x,3/4-y,1/2+z
14 1/2+x,3/4-y,1/4-z
15 1/4-x,1/2+y,3/4-z
16 1/2+x,1/4-y,3/4-z
17 -x,-y,-z
18 -x,1/2-y,1/2-z
19 -x,3/4+y,3/4+z
20 1/2-x,-y,1/2-z
21 3/4+x,-y,3/4+z
22 1/2-x,1/2-y,-z
23 3/4+x,3/4+y,-z
24 1/4+x,1/4+y,-z
25 1/4+x,-y,1/4+z
26 -x,1/4+y,1/4+z
27 1/4+x,3/4+y,1/2-z
28 1/4+x,1/2-y,3/4+z
29 3/4+x,1/4+y,1/2-z
30 1/2-x,1/4+y,3/4+z
31 3/4+x,1/2-y,1/4+z
32 1/2-x,3/4+y,1/4+z
_cell_length_a                   9.6976(2)
_cell_length_b                   15.4428(4)
_cell_length_c                   27.4205(6)
_cell_angle_alpha                90
_cell_angle_beta                 90
_cell_angle_gamma                90
_cell_volume                     4106.44
loop_
_atom_site_label
_atom_site_type_symbol
_atom_site_fract_x
_atom_site_fract_y
_atom_site_fract_z
Eu1 Eu 0.6250 0.1250 0.509490(9)
O1 O 0.6209(3) 0.2714(2) 0.48355(10)
O2 O 0.6368(3) 0.4070(2) 0.46213(12)
O3 O 0.6146(3) 0.0388(2) 0.58460(9)
O4 O 0.4749(4) 0.1268(2) 0.43634(11)
C1 C 0.5656(5) 0.3408(3) 0.47077(16)
C2 C 0.4129(5) 0.3412(3) 0.4683(2)
H1 H 0.3687 0.2878 0.4667
C3 C 0.6250 0.0754(4) 0.6250
H2 H 0.502(6) 0.157(3) 0.4086(13)
H3 H 0.449(6) 0.0707(17) 0.4260(17)
Eu1E Eu 0.1250 0.6250 0.509490(9)
Eu1W Eu 0.8750 0.3750 0.490510(9)
Eu1W_2 Eu -0.1250 0.3750 0.490510(9)
Eu1B Eu 0.6250 0.1250 0.740510(9)
Eu1P Eu 0.3750 -0.1250 0.490510(9)
Eu1E_2 Eu 1.1250 -0.3750 0.509490(9)
Eu1P_2 Eu 1.3750 -0.1250 0.490510(9)
O1G O 0.1291(3) 0.4786(2) 0.48355(10)
O1F O 0.6291(3) -0.0214(2) 0.48355(10)
O1E O 1.1209(3) -0.2286(2) 0.48355(10)
O1E_2 O 0.1209(3) 0.7714(2) 0.48355(10)
O2G O 0.1132(3) 0.3430(2) 0.46213(12)
O2F O 0.6132(3) -0.1570(2) 0.46213(12)
O2E O 1.1368(3) -0.0930(2) 0.46213(12)
O2U O 0.8632(3) 0.0930(2) 0.53787(12)
O2V O 0.3868(3) 0.1570(2) 0.53787(12)
O2W O -0.1132(3) 0.6570(2) 0.53787(12)
O2P O 0.3632(3) 0.5930(2) 0.53787(12)
O3D O 0.6354(3) 0.0388(2) 0.66540(9)
O3B O 0.6146(3) 0.2112(2) 0.66540(9)
O3F O 0.6354(3) 0.2112(2) 0.58460(9)
O3E O 0.1146(3) 0.5388(2) 0.58460(9)
O3G O 0.1354(3) 0.7112(2) 0.58460(9)
O4F O 0.7751(4) 0.1232(2) 0.43634(11)
O4G O 0.2751(4) 0.6232(2) 0.43634(11)
O4E O -0.0251(4) 0.6268(2) 0.43634(11)
C1G C 0.1844(5) 0.4092(3) 0.47077(16)
C1F C 0.6844(5) -0.0908(3) 0.47077(16)
C1E C 1.0656(5) -0.1592(3) 0.47077(16)
C2G C 0.3371(5) 0.4088(3) 0.4683(2)
C2F C 0.8371(5) -0.0912(3) 0.4683(2)
C2E C 0.9129(5) -0.1588(3) 0.4683(2)
H1G H 0.3813 0.4622 0.4667
H1F H 0.8813 -0.0378 0.4667
H1E H 0.8687 -0.2122 0.4667
C3B C 0.6250 0.1746(4) 0.6250
H2F H 0.748(6) 0.093(3) 0.4086(13)
H2G H 0.248(6) 0.593(3) 0.4086(13)
H2E H 0.002(6) 0.657(3) 0.4086(13)
H3F H 0.801(6) 0.1793(17) 0.4260(17)
H3G H 0.301(6) 0.6793(17) 0.4260(17)
H3E H -0.051(6) 0.5707(17) 0.4260(17)
O5 O 0.5546(6) 0.2023(4) 0.3483(2)
loop_
_geom_bond_atom_site_label_1
_geom_bond_atom_site_label_2
_geom_bond_site_symmetry_1
_geom_bond_site_symmetry_2
Eu1 O1 1_555 1_555
O1 C1 1_555 1_555
O2 C1 1_555 1_555
O3 Eu1 1_555 1_555
O4 Eu1 1_555 1_555
C1 C2 1_555 1_555
C2 H1 1_555 1_555
C3 O3 1_555 1_555
H2 O4 1_555 1_555
H3 O4 1_555 1_555
Eu1E O1G 1_555 1_555
Eu1W O2 1_555 1_555
Eu1W_2 O2G 1_555 1_555
Eu1B O3D 1_555 1_555
Eu1P O2F 1_555 1_555
Eu1E_2 O1E 1_555 1_555
Eu1P_2 O2E 1_555 1_555
O1G C1G 1_555 1_555
O1F Eu1 1_555 1_555
O1E C1E 1_555 1_555
O1E_2 Eu1E 1_555 1_555
O2G C1G 1_555 1_555
O2F C1F 1_555 1_555
O2E C1E 1_555 1_555
O2U Eu1 1_555 1_555
O2V Eu1 1_555 1_555
O2W Eu1E 1_555 1_555
O2P Eu1E 1_555 1_555
O3D C3 1_555 1_555
O3B Eu1B 1_555 1_555
O3F Eu1 1_555 1_555
O3E Eu1E 1_555 1_555
O3G Eu1E 1_555 1_555
O4F Eu1 1_555 1_555
O4G Eu1E 1_555 1_555
O4E Eu1E 1_555 1_555
C1G C2G 1_555 1_555
C1F O1F 1_555 1_555
C1E C2E 1_555 1_555
C2G C2 1_555 1_555
C2F C1F 1_555 1_555
C2E C2F 1_555 1_555
H1G C2G 1_555 1_555
H1F C2F 1_555 1_555
H1E C2E 1_555 1_555
C3B C3 1_555 1_555
H2F O4F 1_555 1_555
H2G O4G 1_555 1_555
H2E O4E 1_555 1_555
H3F O4F 1_555 1_555
H3G O4G 1_555 1_555
H3E O4E 1_555 1_555
O3B C3B 1_555 1_555
O3F C3B 1_555 1_555

#END
