
#######################################################################
#
#                 Cambridge Crystallographic Data Centre
#                                CCDC 
#
#######################################################################
#
# If this CIF has been generated from an entry in the Cambridge 
# Structural Database, then it will include bibliographic, chemical, 
# crystal, experimental, refinement or atomic coordinate data resulting 
# from the CCDC's data processing and validation procedures.
#
#######################################################################

data_KIBFEI
_symmetry_cell_setting           monoclinic
_symmetry_space_group_name_H-M   'P 21/n'
_symmetry_Int_Tables_number      14
_space_group_name_Hall           '-P 2yn'
loop_
_symmetry_equiv_pos_site_id
_symmetry_equiv_pos_as_xyz
1 x,y,z
2 1/2-x,1/2+y,1/2-z
3 -x,-y,-z
4 1/2+x,1/2-y,1/2+z
_cell_length_a                   9.940(3)
_cell_length_b                   21.520(6)
_cell_length_c                   13.463(4)
_cell_angle_alpha                90
_cell_angle_beta                 92.517(6)
_cell_angle_gamma                90
_cell_volume                     2877.08
loop_
_atom_site_label
_atom_site_type_symbol
_atom_site_fract_x
_atom_site_fract_y
_atom_site_fract_z
C1 C 0.4474(5) 0.11393(19) 0.3252(3)
H1 H 0.5296 0.1278 0.3582
H2 H 0.4562 0.0711 0.3066
H3 H 0.3746 0.1183 0.3691
C2 C 0.4193(3) 0.15250(13) 0.2337(2)
C3 C 0.3408(3) 0.22200(14) 0.1328(2)
H4 H 0.2899 0.2549 0.1069
C4 C 0.4350(3) 0.19200(15) 0.0850(2)
H5 H 0.4623 0.1999 0.0210
C5 C 0.5929(4) 0.10297(16) 0.1269(3)
H6 H 0.6318 0.0864 0.1887
H7 H 0.6632 0.1251 0.0938
C6 C 0.5434(3) 0.04994(15) 0.0618(3)
C7 C 0.5445(4) 0.05390(17) -0.0411(3)
H8 H 0.5754 0.0900 -0.0703
C8 C 0.4996(4) -0.00512(16) 0.1010(3)
H9 H 0.4995 -0.0097 0.1697
C9 C 0.4538(4) 0.33831(18) 0.3295(3)
H10 H 0.5293 0.3151 0.3073
H11 H 0.4790 0.3811 0.3381
H12 H 0.3804 0.3353 0.2810
C10 C 0.4119(3) 0.31282(12) 0.4254(2)
C11 C 0.4037(3) 0.29390(14) 0.5857(2)
H13 H 0.4204 0.2948 0.6542
C12 C 0.3108(3) 0.25968(13) 0.5352(2)
H14 H 0.2523 0.2319 0.5639
C13 C 0.5798(3) 0.37131(13) 0.5355(3)
H15 H 0.6534 0.3612 0.4935
H16 H 0.6122 0.3670 0.6042
C14 C 0.5371(3) 0.43809(12) 0.5167(2)
C15 C 0.6165(3) 0.47736(15) 0.4664(3)
H17 H 0.6977 0.4631 0.4433
C16 C 0.4222(4) 0.46135(15) 0.5508(4)
H18 H 0.3671 0.4357 0.5869
C17 C 0.0143(3) 0.31223(14) 0.2731(2)
C18 C -0.0632(3) 0.36275(12) 0.2190(2)
C19 C -0.0143(3) 0.39036(14) 0.1373(2)
H19 H 0.0679 0.3775 0.1139
C20 C -0.0864(3) 0.43795(14) 0.0881(3)
H20 H -0.0512 0.4564 0.0324
C21 C -0.2087(3) 0.45799(13) 0.1206(2)
C22 C -0.2583(3) 0.42868(15) 0.2031(3)
H21 H -0.3412 0.4407 0.2261
C23 C -0.1867(3) 0.38196(15) 0.2515(3)
H22 H -0.2219 0.3631 0.3069
C24 C -0.2863(3) 0.50890(13) 0.0689(2)
C25 C -0.3693(3) 0.54839(12) 0.1212(2)
H23 H -0.3738 0.5439 0.1897
C26 C -0.2785(3) 0.51796(16) -0.0331(2)
H24 H -0.2236 0.4923 -0.0693
C27 C -0.3513(4) 0.56469(18) -0.0811(3)
H25 H -0.3437 0.5707 -0.1491
C28 C -0.4353(3) 0.60246(14) -0.0285(2)
H26 H -0.4854 0.6334 -0.0612
C29 C -0.4447(3) 0.59409(12) 0.0730(2)
C30 C -0.5364(3) 0.63489(13) 0.1325(3)
Co1 Co 0.19927(4) 0.228627(15) 0.32820(3)
N1 N 0.3295(2) 0.19713(10) 0.22645(18)
N2 N 0.4844(3) 0.14678(12) 0.1492(2)
N3 N 0.3145(2) 0.27148(9) 0.43523(17)
N4 N 0.4687(2) 0.32728(10) 0.51558(18)
O1 O -0.6205(2) 0.66753(9) 0.08228(17)
O2 O -0.5264(3) 0.63567(12) 0.22244(19)
O3 O -0.0289(3) 0.28956(13) 0.3499(2)
O4 O 0.1214(2) 0.29409(10) 0.23882(17)
C1B C 0.5526(5) -0.11393(19) -0.3252(3)
H1B H 0.4704 -0.1278 -0.3582
H2B H 0.5438 -0.0711 -0.3066
H3B H 0.6254 -0.1183 -0.3691
C2B C 0.5807(3) -0.15250(13) -0.2337(2)
C3B C 0.6592(3) -0.22200(14) -0.1328(2)
H4B H 0.7101 -0.2549 -0.1069
C4B C 0.5650(3) -0.19200(15) -0.0850(2)
H5B H 0.5377 -0.1999 -0.0210
C5B C 0.4071(4) -0.10297(16) -0.1269(3)
H6B H 0.3682 -0.0864 -0.1887
H7B H 0.3368 -0.1251 -0.0938
C6B C 0.4566(3) -0.04994(15) -0.0618(3)
C7B C 0.4555(4) -0.05390(17) 0.0411(3)
H8B H 0.4246 -0.0900 0.0703
C8B C 0.5004(4) 0.00512(16) -0.1010(3)
H9B H 0.5005 0.0097 -0.1697
N1B N 0.6705(2) -0.19713(10) -0.22645(18)
N2B N 0.5156(3) -0.14678(12) -0.1492(2)
C9B C 0.5462(4) 0.66169(18) 0.6705(3)
H10B H 0.4707 0.6849 0.6927
H11B H 0.5210 0.6189 0.6619
H12B H 0.6196 0.6647 0.7190
C10B C 0.5881(3) 0.68718(12) 0.5746(2)
C11B C 0.5963(3) 0.70610(14) 0.4143(2)
H13B H 0.5796 0.7052 0.3458
C12B C 0.6892(3) 0.74032(13) 0.4648(2)
H14B H 0.7477 0.7681 0.4361
C13B C 0.4202(3) 0.62869(13) 0.4645(3)
H15B H 0.3466 0.6388 0.5065
H16B H 0.3878 0.6330 0.3958
C14B C 0.4629(3) 0.56191(12) 0.4833(2)
C15B C 0.3835(3) 0.52264(15) 0.5336(3)
H17B H 0.3023 0.5369 0.5567
C16B C 0.5778(4) 0.53865(15) 0.4492(4)
H18B H 0.6329 0.5643 0.4131
N3B N 0.6855(2) 0.72852(9) 0.56477(17)
N4B N 0.5313(2) 0.67272(10) 0.48442(18)
C17B C 0.9857(3) -0.31223(14) -0.2731(2)
C18B C 1.0632(3) -0.36275(12) -0.2190(2)
C19B C 1.0143(3) -0.39036(14) -0.1373(2)
H19B H 0.9321 -0.3775 -0.1139
C20B C 1.0864(3) -0.43795(14) -0.0881(3)
H20B H 1.0512 -0.4564 -0.0324
C21B C 1.2087(3) -0.45799(13) -0.1206(2)
C22B C 1.2583(3) -0.42868(15) -0.2031(3)
H21B H 1.3412 -0.4407 -0.2261
C23B C 1.1867(3) -0.38196(15) -0.2515(3)
H22B H 1.2219 -0.3631 -0.3069
C24B C 1.2863(3) -0.50890(13) -0.0689(2)
C25B C 1.3693(3) -0.54839(12) -0.1212(2)
H23B H 1.3738 -0.5439 -0.1897
C26B C 1.2785(3) -0.51796(16) 0.0331(2)
H24B H 1.2236 -0.4923 0.0693
C27B C 1.3513(4) -0.56469(18) 0.0811(3)
H25B H 1.3437 -0.5707 0.1491
C28B C 1.4353(3) -0.60246(14) 0.0285(2)
H26B H 1.4854 -0.6334 0.0612
C29B C 1.4447(3) -0.59409(12) -0.0730(2)
C30B C 1.5364(3) -0.63489(13) -0.1325(3)
Co1B Co 0.80073(4) -0.228627(15) -0.32820(3)
O1B O 1.6205(2) -0.66753(9) -0.08228(17)
O2B O 1.5264(3) -0.63567(12) -0.22244(19)
O3B O 1.0289(3) -0.28956(13) -0.3499(2)
O4B O 0.8786(2) -0.29409(10) -0.23882(17)
Co1A Co -0.69927(4) 0.728627(15) 0.17180(3)
Co1B_2 Co 0.80073(4) 0.771373(15) 0.67180(3)
Co1C Co 1.69927(4) -0.728627(15) -0.17180(3)
N3B_2 N 0.6855(2) -0.27148(9) -0.43523(17)
O1A O 0.1205(2) 0.16753(9) 0.41772(17)
O1C O 0.8795(2) -0.16753(9) -0.41772(17)
O5 O 0.2248(7) 0.2781(5) 0.8574(10)
H27 H 0.213(7) 0.291(6) 0.801(4)
H28 H 0.284(7) 0.252(3) 0.865(7)
loop_
_geom_bond_atom_site_label_1
_geom_bond_atom_site_label_2
_geom_bond_site_symmetry_1
_geom_bond_site_symmetry_2
C1 H1 1_555 1_555
H2 C1 1_555 1_555
H3 C1 1_555 1_555
C2 C1 1_555 1_555
C3 H4 1_555 1_555
C4 C3 1_555 1_555
H5 C4 1_555 1_555
C5 H6 1_555 1_555
H7 C5 1_555 1_555
C6 C5 1_555 1_555
C7 C6 1_555 1_555
H8 C7 1_555 1_555
C8 C6 1_555 1_555
H9 C8 1_555 1_555
C9 H10 1_555 1_555
H11 C9 1_555 1_555
H12 C9 1_555 1_555
C10 C9 1_555 1_555
C11 H13 1_555 1_555
C12 C11 1_555 1_555
H14 C12 1_555 1_555
C13 H15 1_555 1_555
H16 C13 1_555 1_555
C14 C13 1_555 1_555
C15 C14 1_555 1_555
H17 C15 1_555 1_555
C16 C14 1_555 1_555
H18 C16 1_555 1_555
C17 C18 1_555 1_555
C18 C19 1_555 1_555
C19 H19 1_555 1_555
C20 C19 1_555 1_555
H20 C20 1_555 1_555
C21 C20 1_555 1_555
C22 C21 1_555 1_555
H21 C22 1_555 1_555
C23 C18 1_555 1_555
H22 C23 1_555 1_555
C24 C21 1_555 1_555
C25 C24 1_555 1_555
H23 C25 1_555 1_555
C26 C24 1_555 1_555
H24 C26 1_555 1_555
C27 C26 1_555 1_555
H25 C27 1_555 1_555
C28 C27 1_555 1_555
H26 C28 1_555 1_555
C29 C25 1_555 1_555
C30 C29 1_555 1_555
Co1 N1 1_555 1_555
N1 C2 1_555 1_555
N2 C2 1_555 1_555
N3 C10 1_555 1_555
N4 C10 1_555 1_555
O1 C30 1_555 1_555
O2 C30 1_555 1_555
O3 C17 1_555 1_555
O4 C17 1_555 1_555
O5 H27 1_555 1_555
H28 O5 1_555 1_555
C1B H1B 1_555 1_555
H2B C1B 1_555 1_555
H3B C1B 1_555 1_555
C2B C1B 1_555 1_555
C3B H4B 1_555 1_555
C4B C3B 1_555 1_555
H5B C4B 1_555 1_555
C5B H6B 1_555 1_555
H7B C5B 1_555 1_555
C6B C5B 1_555 1_555
C7B C8 1_555 1_555
H8B C7B 1_555 1_555
C8B C7 1_555 1_555
H9B C8B 1_555 1_555
N1B C2B 1_555 1_555
N2B C2B 1_555 1_555
C9B H10B 1_555 1_555
H11B C9B 1_555 1_555
H12B C9B 1_555 1_555
C10B C9B 1_555 1_555
C11B H13B 1_555 1_555
C12B C11B 1_555 1_555
H14B C12B 1_555 1_555
C13B H15B 1_555 1_555
H16B C13B 1_555 1_555
C14B C13B 1_555 1_555
C15B C16 1_555 1_555
H17B C15B 1_555 1_555
C16B C15 1_555 1_555
H18B C16B 1_555 1_555
N3B C10B 1_555 1_555
N4B C10B 1_555 1_555
C17B C18B 1_555 1_555
C18B C19B 1_555 1_555
C19B H19B 1_555 1_555
C20B C19B 1_555 1_555
H20B C20B 1_555 1_555
C21B C20B 1_555 1_555
C22B C21B 1_555 1_555
H21B C22B 1_555 1_555
C23B C18B 1_555 1_555
H22B C23B 1_555 1_555
C24B C21B 1_555 1_555
C25B C24B 1_555 1_555
H23B C25B 1_555 1_555
C26B C24B 1_555 1_555
H24B C26B 1_555 1_555
C27B C26B 1_555 1_555
H25B C27B 1_555 1_555
C28B C27B 1_555 1_555
H26B C28B 1_555 1_555
C29B C25B 1_555 1_555
C30B C29B 1_555 1_555
Co1B N1B 1_555 1_555
O1B C30B 1_555 1_555
O2B C30B 1_555 1_555
O3B C17B 1_555 1_555
O4B C17B 1_555 1_555
Co1A O1 1_555 1_555
Co1B_2 N3B 1_555 1_555
Co1C O1B 1_555 1_555
N3B_2 Co1B 1_555 1_555
O1A Co1 1_555 1_555
O1C Co1B 1_555 1_555
C3 N1 1_555 1_555
C4 N2 1_555 1_555
C5 N2 1_555 1_555
C11 N4 1_555 1_555
C12 N3 1_555 1_555
C13 N4 1_555 1_555
C22 C23 1_555 1_555
C28 C29 1_555 1_555
Co1 N3 1_555 1_555
Co1 O4 1_555 1_555
C3B N1B 1_555 1_555
C4B N2B 1_555 1_555
C5B N2B 1_555 1_555
C6B C7B 1_555 1_555
C6B C8B 1_555 1_555
C11B N4B 1_555 1_555
C12B N3B 1_555 1_555
C13B N4B 1_555 1_555
C14B C15B 1_555 1_555
C14B C16B 1_555 1_555
C22B C23B 1_555 1_555
C28B C29B 1_555 1_555
Co1B O4B 1_555 1_555

#END
