
#######################################################################
#
#                 Cambridge Crystallographic Data Centre
#                                CCDC 
#
#######################################################################
#
# If this CIF has been generated from an entry in the Cambridge 
# Structural Database, then it will include bibliographic, chemical, 
# crystal, experimental, refinement or atomic coordinate data resulting 
# from the CCDC's data processing and validation procedures.
#
#######################################################################

data_KIBFIL
_symmetry_cell_setting           monoclinic
_symmetry_space_group_name_H-M   'C 2/c'
_symmetry_Int_Tables_number      15
_space_group_name_Hall           '-C 2yn'
loop_
_symmetry_equiv_pos_site_id
_symmetry_equiv_pos_as_xyz
1 x,y,z
2 1/2+x,1/2+y,z
3 -x,y,1/2-z
4 1/2-x,1/2+y,1/2-z
5 -x,-y,-z
6 1/2-x,1/2-y,-z
7 x,-y,1/2+z
8 1/2+x,1/2-y,1/2+z
_cell_length_a                   26.1634(4)
_cell_length_b                   22.3454(4)
_cell_length_c                   16.7789(3)
_cell_angle_alpha                90
_cell_angle_beta                 120.396(5)
_cell_angle_gamma                90
_cell_volume                     8461.15
loop_
_atom_site_label
_atom_site_type_symbol
_atom_site_fract_x
_atom_site_fract_y
_atom_site_fract_z
Ag1 Ag 0.0000 0.24933(6) 0.7500
C1 C -0.0901(4) 0.4595(5) 0.3934(7)
C2 C -0.0764(4) 0.4283(6) 0.4728(7)
C3 C -0.0663(4) 0.3671(5) 0.4754(7)
C4 C -0.0724(4) 0.3340(5) 0.4006(7)
C5 C -0.0859(4) 0.3659(5) 0.3203(7)
C6 C -0.0934(4) 0.4284(5) 0.3175(7)
C7 C -0.0678(6) 0.4605(7) 0.5593(8)
C8 C -0.0515(5) 0.3348(6) 0.5585(7)
N1 N -0.0392(4) 0.3086(6) 0.6252(7)
C9 C -0.0616(5) 0.2674(6) 0.4100(8)
C10 C -0.1030(5) 0.4625(6) 0.2334(7)
C11 C -0.1016(5) 0.5263(5) 0.3874(7)
C12 C -0.1586(4) 0.5520(5) 0.3071(7)
C13 C -0.2148(4) 0.5277(5) 0.2815(7)
C14 C -0.2668(4) 0.5515(5) 0.2078(7)
C15 C -0.2635(5) 0.6039(6) 0.1656(9)
C16 C -0.2074(6) 0.6283(6) 0.1942(9)
C17 C -0.1573(5) 0.6028(5) 0.2593(8)
C18 C -0.2192(5) 0.4781(6) 0.3399(8)
C19 C -0.3174(7) 0.6359(7) 0.094(1)
C20 C -0.0970(5) 0.6332(6) 0.2864(9)
C21 C -0.3268(5) 0.5248(5) 0.1784(8)
C22 C -0.3362(4) 0.4578(5) 0.1610(7)
C23 C -0.3230(4) 0.4292(5) 0.0978(7)
C24 C -0.3324(4) 0.3671(6) 0.0810(7)
C25 C -0.3624(4) 0.3350(5) 0.1172(8)
C26 C -0.3781(4) 0.3656(5) 0.1741(7)
C27 C -0.3643(4) 0.4256(6) 0.1997(7)
C28 C -0.2999(5) 0.4651(6) 0.0464(8)
C29 C -0.3795(5) 0.2699(6) 0.0927(9)
C30 C -0.4101(5) 0.3332(6) 0.2093(9)
N2 N -0.4365(4) 0.3062(6) 0.2360(8)
C31 C -0.3826(5) 0.4552(7) 0.2634(8)
C32 C -0.3149(5) 0.3356(6) 0.0183(7)
C33 C -0.2520(4) 0.3418(5) 0.0366(7)
C34 C -0.2437(5) 0.3525(6) -0.0378(7)
C35 C -0.1858(5) 0.3567(6) -0.0205(7)
C36 C -0.1363(4) 0.3518(5) 0.0673(7)
C37 C -0.1454(4) 0.3402(5) 0.1405(6)
C38 C -0.2030(4) 0.3334(5) 0.1260(7)
C39 C -0.2116(5) 0.3121(6) 0.2040(7)
C40 C -0.2940(6) 0.3563(7) -0.1353(8)
C41 C -0.0767(5) 0.3558(6) 0.0753(7)
C42 C -0.0907(4) 0.3321(5) 0.2378(7)
H1 H -0.0358 0.4887 0.5799
H2 H -0.0586 0.4318 0.6072
H3 H -0.1035 0.4813 0.5450
H4 H -0.0510 0.2550 0.4712
H5 H -0.0299 0.2579 0.3989
H6 H -0.0970 0.2469 0.3657
H7 H -0.0828 0.4425 0.2066
H8 H -0.0876 0.5023 0.2512
H9 H -0.1446 0.4643 0.1891
H10 H -0.0696 0.5451 0.3857
H11 H -0.1010 0.5375 0.4425
H12 H -0.2050 0.6643 0.1662
H13 H -0.2585 0.4772 0.3306
H14 H -0.1912 0.4855 0.4039
H15 H -0.2105 0.4404 0.3220
H16 H -0.3350 0.6134 0.0373
H17 H -0.3064 0.6748 0.0835
H18 H -0.3453 0.6399 0.1146
H19 H -0.0764 0.6095 0.2637
H20 H -0.0733 0.6362 0.3524
H21 H -0.1041 0.6725 0.2597
H22 H -0.3545 0.5442 0.1227
H23 H -0.3356 0.5341 0.2255
H24 H -0.3053 0.4427 -0.0062
H25 H -0.3213 0.5022 0.0259
H26 H -0.2585 0.4732 0.0866
H27 H -0.4049 0.2577 0.1155
H28 H -0.4000 0.2653 0.0268
H29 H -0.3444 0.2456 0.1202
H30 H -0.3492 0.4566 0.3252
H31 H -0.3962 0.4951 0.2423
H32 H -0.4139 0.4324 0.2629
H33 H -0.3405 0.3501 -0.0425
H34 H -0.3218 0.2941 0.0209
H35 H -0.1799 0.3631 -0.0713
H36 H -0.1804 0.2847 0.2423
H37 H -0.2492 0.2923 0.1789
H38 H -0.2105 0.3458 0.2403
H39 H -0.3174 0.3205 -0.1505
H40 H -0.2786 0.3605 -0.1763
H41 H -0.3182 0.3903 -0.1418
H42 H -0.0817 0.3603 0.0149
H43 H -0.0547 0.3200 0.1036
H44 H -0.0557 0.3898 0.1126
H45 H -0.0885 0.2907 0.2521
H46 H -0.0571 0.3432 0.2334
Ag1G Ag -0.5000 0.25067(6) 0.2500
Ag1G_2 Ag 0.5000 0.25067(6) 1.2500
C1B C 0.0901(4) 0.4595(5) 1.1066(7)
C2B C 0.0764(4) 0.4283(6) 1.0272(7)
C3B C 0.0663(4) 0.3671(5) 1.0246(7)
C4B C 0.0724(4) 0.3340(5) 1.0994(7)
C5B C 0.0859(4) 0.3659(5) 1.1797(7)
C6B C 0.0934(4) 0.4284(5) 1.1825(7)
C7B C 0.0678(6) 0.4605(7) 0.9407(8)
C8B C 0.0515(5) 0.3348(6) 0.9415(7)
N1B N 0.0392(4) 0.3086(6) 0.8748(7)
C9B C 0.0616(5) 0.2674(6) 1.0900(8)
C10B C 0.1030(5) 0.4625(6) 1.2666(7)
C11B C 0.1016(5) 0.5263(5) 1.1126(7)
C12B C 0.1586(4) 0.5520(5) 1.1929(7)
C13B C 0.2148(4) 0.5277(5) 1.2185(7)
C14B C 0.2668(4) 0.5515(5) 1.2922(7)
C15B C 0.2635(5) 0.6039(6) 1.3344(9)
C16B C 0.2074(6) 0.6283(6) 1.3058(9)
C17B C 0.1573(5) 0.6028(5) 1.2407(8)
C18B C 0.2192(5) 0.4781(6) 1.1601(8)
C19B C 0.3174(7) 0.6359(7) 1.406(1)
C20B C 0.0970(5) 0.6332(6) 1.2136(9)
C21B C 0.3268(5) 0.5248(5) 1.3216(8)
C22B C 0.3362(4) 0.4578(5) 1.3390(7)
C23B C 0.3230(4) 0.4292(5) 1.4022(7)
C24B C 0.3324(4) 0.3671(6) 1.4190(7)
C25B C 0.3624(4) 0.3350(5) 1.3828(8)
C26B C 0.3781(4) 0.3656(5) 1.3259(7)
C27B C 0.3643(4) 0.4256(6) 1.3003(7)
C28B C 0.2999(5) 0.4651(6) 1.4536(8)
C29B C 0.3795(5) 0.2699(6) 1.4073(9)
C30B C 0.4101(5) 0.3332(6) 1.2907(9)
N2B N 0.4365(4) 0.3062(6) 1.2640(8)
N2G N 0.0635(4) 0.1938(6) 0.7360(8)
N2E N -0.0635(4) 0.1938(6) 0.7640(8)
C31B C 0.3826(5) 0.4552(7) 1.2366(8)
C32B C 0.3149(5) 0.3356(6) 1.4817(7)
C33B C 0.2520(4) 0.3418(5) 1.4634(7)
C34B C 0.2437(5) 0.3525(6) 1.5378(7)
C35B C 0.1858(5) 0.3567(6) 1.5205(7)
C36B C 0.1363(4) 0.3518(5) 1.4327(7)
C37B C 0.1454(4) 0.3402(5) 1.3595(6)
C38B C 0.2030(4) 0.3334(5) 1.3740(7)
C39B C 0.2116(5) 0.3121(6) 1.2960(7)
C40B C 0.2940(6) 0.3563(7) 1.6353(8)
C41B C 0.0767(5) 0.3558(6) 1.4247(7)
C42B C 0.0907(4) 0.3321(5) 1.2622(7)
H1B H 0.0358 0.4887 0.9201
H2B H 0.0586 0.4318 0.8928
H3B H 0.1035 0.4813 0.9550
H4B H 0.0510 0.2550 1.0288
H5B H 0.0299 0.2579 1.1011
H6B H 0.0970 0.2469 1.1343
H7B H 0.0828 0.4425 1.2934
H8B H 0.0876 0.5023 1.2488
H9B H 0.1446 0.4643 1.3109
H10B H 0.0696 0.5451 1.1143
H11B H 0.1010 0.5375 1.0575
H12B H 0.2050 0.6643 1.3338
H13B H 0.2585 0.4772 1.1694
H14B H 0.1912 0.4855 1.0961
H15B H 0.2105 0.4404 1.1780
H16B H 0.3350 0.6134 1.4627
H17B H 0.3064 0.6748 1.4165
H18B H 0.3453 0.6399 1.3854
H19B H 0.0764 0.6095 1.2363
H20B H 0.0733 0.6362 1.1476
H21B H 0.1041 0.6725 1.2403
H22B H 0.3545 0.5442 1.3773
H23B H 0.3356 0.5341 1.2745
H24B H 0.3053 0.4427 1.5062
H25B H 0.3213 0.5022 1.4741
H26B H 0.2585 0.4732 1.4134
H27B H 0.4049 0.2577 1.3845
H28B H 0.4000 0.2653 1.4732
H29B H 0.3444 0.2456 1.3798
H30B H 0.3492 0.4566 1.1748
H31B H 0.3962 0.4951 1.2577
H32B H 0.4139 0.4324 1.2371
H33B H 0.3405 0.3501 1.5425
H34B H 0.3218 0.2941 1.4791
H35B H 0.1799 0.3631 1.5713
H36B H 0.1804 0.2847 1.2577
H37B H 0.2492 0.2923 1.3211
H38B H 0.2105 0.3458 1.2597
H39B H 0.3174 0.3205 1.6505
H40B H 0.2786 0.3605 1.6763
H41B H 0.3182 0.3903 1.6418
H42B H 0.0817 0.3603 1.4851
H43B H 0.0547 0.3200 1.3964
H44B H 0.0557 0.3898 1.3874
H45B H 0.0885 0.2907 1.2479
H46B H 0.0571 0.3432 1.2666
Sb1 Sb 0.0000 0.15335(6) 0.2500
F1 F 0.0446(6) 0.2135(6) 0.323(1)
F2 F -0.0450(4) 0.1533(6) 0.3043(7)
F3 F 0.0490(5) 0.0945(6) 0.3218(9)
F1B F -0.0446(6) 0.2135(6) 0.177(1)
F2B F 0.0450(4) 0.1533(6) 0.1957(7)
F3B F -0.0490(5) 0.0945(6) 0.1782(9)
O1 O 0.4700(4) 0.4363(8) 0.0548(7)
C43 C 0.2998(9) 0.258(1) 0.056(1)
C44 C 0.265(2) 0.212(2) -0.030(3)
O2 O 0.3007(6) 0.1719(8) -0.047(1)
loop_
_geom_bond_atom_site_label_1
_geom_bond_atom_site_label_2
_geom_bond_site_symmetry_1
_geom_bond_site_symmetry_2
Ag1 N1 1_555 1_555
C1 C2 1_555 1_555
C2 C3 1_555 1_555
C3 C4 1_555 1_555
C4 C5 1_555 1_555
C5 C6 1_555 1_555
C6 C1 1_555 1_555
C7 C2 1_555 1_555
C8 C3 1_555 1_555
N1 C8 1_555 1_555
C9 C4 1_555 1_555
C10 C6 1_555 1_555
C11 C1 1_555 1_555
C12 C11 1_555 1_555
C13 C12 1_555 1_555
C14 C13 1_555 1_555
C15 C14 1_555 1_555
C16 C15 1_555 1_555
C17 C12 1_555 1_555
C18 C13 1_555 1_555
C19 C15 1_555 1_555
C20 C17 1_555 1_555
C21 C14 1_555 1_555
C22 C21 1_555 1_555
C23 C22 1_555 1_555
C24 C23 1_555 1_555
C25 C24 1_555 1_555
C26 C25 1_555 1_555
C27 C22 1_555 1_555
C28 C23 1_555 1_555
C29 C25 1_555 1_555
C30 C26 1_555 1_555
N2 C30 1_555 1_555
C31 C27 1_555 1_555
C32 C24 1_555 1_555
C33 C32 1_555 1_555
C34 C33 1_555 1_555
C35 C34 1_555 1_555
C36 C35 1_555 1_555
C37 C36 1_555 1_555
C38 C33 1_555 1_555
C39 C38 1_555 1_555
C40 C34 1_555 1_555
C41 C36 1_555 1_555
C42 C5 1_555 1_555
H1 C7 1_555 1_555
H2 C7 1_555 1_555
H3 C7 1_555 1_555
H4 C9 1_555 1_555
H5 C9 1_555 1_555
H6 C9 1_555 1_555
H7 C10 1_555 1_555
H8 C10 1_555 1_555
H9 C10 1_555 1_555
H10 C11 1_555 1_555
H11 C11 1_555 1_555
H12 C16 1_555 1_555
H13 C18 1_555 1_555
H14 C18 1_555 1_555
H15 C18 1_555 1_555
H16 C19 1_555 1_555
H17 C19 1_555 1_555
H18 C19 1_555 1_555
H19 C20 1_555 1_555
H20 C20 1_555 1_555
H21 C20 1_555 1_555
H22 C21 1_555 1_555
H23 C21 1_555 1_555
H24 C28 1_555 1_555
H25 C28 1_555 1_555
H26 C28 1_555 1_555
H27 C29 1_555 1_555
H28 C29 1_555 1_555
H29 C29 1_555 1_555
H30 C31 1_555 1_555
H31 C31 1_555 1_555
H32 C31 1_555 1_555
H33 C32 1_555 1_555
H34 C32 1_555 1_555
H35 C35 1_555 1_555
H36 C39 1_555 1_555
H37 C39 1_555 1_555
H38 C39 1_555 1_555
H39 C40 1_555 1_555
H40 C40 1_555 1_555
H41 C40 1_555 1_555
H42 C41 1_555 1_555
H43 C41 1_555 1_555
H44 C41 1_555 1_555
H45 C42 1_555 1_555
H46 C42 1_555 1_555
Sb1 F1 1_555 1_555
F2 Sb1 1_555 1_555
F3 Sb1 1_555 1_555
C43 C44 1_555 1_555
C44 O2 1_555 1_555
Ag1G N2 1_555 1_555
Ag1G_2 N2B 1_555 1_555
C1B C2B 1_555 1_555
C2B C3B 1_555 1_555
C3B C4B 1_555 1_555
C4B C5B 1_555 1_555
C5B C6B 1_555 1_555
C6B C1B 1_555 1_555
C7B C2B 1_555 1_555
C8B C3B 1_555 1_555
N1B Ag1 1_555 1_555
C9B C4B 1_555 1_555
C10B C6B 1_555 1_555
C11B C1B 1_555 1_555
C12B C11B 1_555 1_555
C13B C12B 1_555 1_555
C14B C13B 1_555 1_555
C15B C14B 1_555 1_555
C16B C15B 1_555 1_555
C17B C12B 1_555 1_555
C18B C13B 1_555 1_555
C19B C15B 1_555 1_555
C20B C17B 1_555 1_555
C21B C14B 1_555 1_555
C22B C21B 1_555 1_555
C23B C22B 1_555 1_555
C24B C23B 1_555 1_555
C25B C24B 1_555 1_555
C26B C25B 1_555 1_555
C27B C22B 1_555 1_555
C28B C23B 1_555 1_555
C29B C25B 1_555 1_555
C30B C26B 1_555 1_555
N2B C30B 1_555 1_555
N2G Ag1 1_555 1_555
N2E Ag1 1_555 1_555
C31B C27B 1_555 1_555
C32B C24B 1_555 1_555
C33B C32B 1_555 1_555
C34B C33B 1_555 1_555
C35B C34B 1_555 1_555
C36B C35B 1_555 1_555
C37B C36B 1_555 1_555
C38B C33B 1_555 1_555
C39B C38B 1_555 1_555
C40B C34B 1_555 1_555
C41B C36B 1_555 1_555
C42B C5B 1_555 1_555
H1B C7B 1_555 1_555
H2B C7B 1_555 1_555
H3B C7B 1_555 1_555
H4B C9B 1_555 1_555
H5B C9B 1_555 1_555
H6B C9B 1_555 1_555
H7B C10B 1_555 1_555
H8B C10B 1_555 1_555
H9B C10B 1_555 1_555
H10B C11B 1_555 1_555
H11B C11B 1_555 1_555
H12B C16B 1_555 1_555
H13B C18B 1_555 1_555
H14B C18B 1_555 1_555
H15B C18B 1_555 1_555
H16B C19B 1_555 1_555
H17B C19B 1_555 1_555
H18B C19B 1_555 1_555
H19B C20B 1_555 1_555
H20B C20B 1_555 1_555
H21B C20B 1_555 1_555
H22B C21B 1_555 1_555
H23B C21B 1_555 1_555
H24B C28B 1_555 1_555
H25B C28B 1_555 1_555
H26B C28B 1_555 1_555
H27B C29B 1_555 1_555
H28B C29B 1_555 1_555
H29B C29B 1_555 1_555
H30B C31B 1_555 1_555
H31B C31B 1_555 1_555
H32B C31B 1_555 1_555
H33B C32B 1_555 1_555
H34B C32B 1_555 1_555
H35B C35B 1_555 1_555
H36B C39B 1_555 1_555
H37B C39B 1_555 1_555
H38B C39B 1_555 1_555
H39B C40B 1_555 1_555
H40B C40B 1_555 1_555
H41B C40B 1_555 1_555
H42B C41B 1_555 1_555
H43B C41B 1_555 1_555
H44B C41B 1_555 1_555
H45B C42B 1_555 1_555
H46B C42B 1_555 1_555
F1B Sb1 1_555 1_555
F2B Sb1 1_555 1_555
F3B Sb1 1_555 1_555
C16 C17 1_555 1_555
C26 C27 1_555 1_555
C37 C38 1_555 1_555
C37 C42 1_555 1_555
C8B N1B 1_555 1_555
C16B C17B 1_555 1_555
C26B C27B 1_555 1_555
C37B C38B 1_555 1_555
C37B C42B 1_555 1_555

#END
