
#######################################################################
#
#                 Cambridge Crystallographic Data Centre
#                                CCDC 
#
#######################################################################
#
# If this CIF has been generated from an entry in the Cambridge 
# Structural Database, then it will include bibliographic, chemical, 
# crystal, experimental, refinement or atomic coordinate data resulting 
# from the CCDC's data processing and validation procedures.
#
#######################################################################

data_KIBFOR
_symmetry_cell_setting           monoclinic
_symmetry_space_group_name_H-M   'C 2/c'
_symmetry_Int_Tables_number      15
_space_group_name_Hall           '-C 2yn'
loop_
_symmetry_equiv_pos_site_id
_symmetry_equiv_pos_as_xyz
1 x,y,z
2 1/2+x,1/2+y,z
3 -x,y,1/2-z
4 1/2-x,1/2+y,1/2-z
5 -x,-y,-z
6 1/2-x,1/2-y,-z
7 x,-y,1/2+z
8 1/2+x,1/2-y,1/2+z
_cell_length_a                   18.0016(4)
_cell_length_b                   20.6568(5)
_cell_length_c                   13.0728(4)
_cell_angle_alpha                90
_cell_angle_beta                 109.488(5)
_cell_angle_gamma                90
_cell_volume                     4582.7
loop_
_atom_site_label
_atom_site_type_symbol
_atom_site_fract_x
_atom_site_fract_y
_atom_site_fract_z
Hg1 Hg 0.2500 0.2500 0.5000
Cl1 Cl 0.1508(1) 0.23520(7) 0.3338(1)
N1 N 0.2105(3) 0.3716(2) 0.4969(3)
C1 C 0.1487(3) 0.3974(3) 0.4172(5)
C2 C 0.1315(3) 0.4614(3) 0.4070(4)
C3 C 0.1775(3) 0.5052(3) 0.4808(4)
C4 C 0.2399(3) 0.4801(3) 0.5638(4)
C5 C 0.2545(3) 0.4139(3) 0.5688(4)
C6 C 0.1608(3) 0.5760(2) 0.4667(4)
C7 C 0.1956(3) 0.6114(3) 0.4019(4)
C8 C 0.1760(3) 0.6763(2) 0.3803(4)
C9 C 0.1243(3) 0.7074(2) 0.4277(4)
C10 C 0.0901(3) 0.6713(2) 0.4908(4)
C11 C 0.1091(3) 0.6053(2) 0.5108(4)
C12 C 0.2540(3) 0.5765(3) 0.3591(4)
C13 C 0.1115(3) 0.7781(3) 0.4125(4)
C14 C 0.0786(3) 0.5653(3) 0.5874(4)
C15 C 0.2086(3) 0.7155(3) 0.3053(4)
C16 C 0.1512(3) 0.7465(2) 0.2053(4)
C17 C 0.0885(3) 0.7123(2) 0.1316(4)
C18 C 0.0365(3) 0.7416(2) 0.0388(4)
C19 C 0.0492(3) 0.8067(3) 0.0128(4)
C20 C 0.1139(3) 0.8395(3) 0.0859(4)
C21 C 0.1640(3) 0.8126(3) 0.1819(4)
C22 C 0.0781(3) 0.6422(3) 0.1489(4)
C23 C 0.0025(3) 0.8392(3) -0.0880(4)
C24 C 0.2279(3) 0.8531(3) 0.2544(4)
C25 C 0.0337(3) 0.7043(3) 0.5392(4)
H1 H 0.1153 0.3688 0.3651
H2 H 0.0874 0.4763 0.3487
H3 H 0.2730 0.5080 0.6176
H4 H 0.2982 0.3980 0.6266
H5 H 0.2276 0.5627 0.2858
H6 H 0.2750 0.5395 0.4037
H7 H 0.2961 0.6055 0.3608
H8 H 0.0705 0.7862 0.3447
H9 H 0.1593 0.7985 0.4121
H10 H 0.0963 0.7954 0.4708
H11 H 0.0977 0.5217 0.5906
H12 H 0.0220 0.5652 0.5608
H13 H 0.0970 0.5841 0.6586
H14 H 0.2410 0.6872 0.2813
H15 H 0.2399 0.7492 0.3476
H16 H 0.0521 0.6370 0.2016
H17 H 0.1288 0.6215 0.1747
H18 H 0.0468 0.6227 0.0817
H19 H 0.0219 0.8825 -0.0887
H20 H 0.0068 0.8157 -0.1491
H21 H -0.0517 0.8409 -0.0922
H22 H 0.2249 0.8959 0.2245
H23 H 0.2780 0.8342 0.2609
H24 H 0.2221 0.8555 0.3247
H25 H 0.0636 0.7341 0.5924
H26 H 0.0129 0.6717 0.5732
H27 H 0.1240 0.8826 0.0686
Hg1G Hg -0.2500 0.2500 0.0000
Cl1E Cl 0.3492(1) 0.26480(7) 0.6662(1)
N1B N -0.2105(3) 0.3716(2) 0.0031(3)
N1E N 0.2895(3) 0.1284(2) 0.5031(3)
C1B C -0.1487(3) 0.3974(3) 0.0828(5)
C2B C -0.1315(3) 0.4614(3) 0.0930(4)
C3B C -0.1775(3) 0.5052(3) 0.0192(4)
C4B C -0.2399(3) 0.4801(3) -0.0638(4)
C5B C -0.2545(3) 0.4139(3) -0.0688(4)
C6B C -0.1608(3) 0.5760(2) 0.0333(4)
C7B C -0.1956(3) 0.6114(3) 0.0981(4)
C8B C -0.1760(3) 0.6763(2) 0.1197(4)
C9B C -0.1243(3) 0.7074(2) 0.0723(4)
C10B C -0.0901(3) 0.6713(2) 0.0092(4)
C11B C -0.1091(3) 0.6053(2) -0.0108(4)
C12B C -0.2540(3) 0.5765(3) 0.1409(4)
C13B C -0.1115(3) 0.7781(3) 0.0875(4)
C14B C -0.0786(3) 0.5653(3) -0.0874(4)
C15B C -0.2086(3) 0.7155(3) 0.1947(4)
C16B C -0.1512(3) 0.7465(2) 0.2947(4)
C17B C -0.0885(3) 0.7123(2) 0.3684(4)
C18B C -0.0365(3) 0.7416(2) 0.4612(4)
C19B C -0.0492(3) 0.8067(3) 0.4872(4)
C20B C -0.1139(3) 0.8395(3) 0.4141(4)
C21B C -0.1640(3) 0.8126(3) 0.3181(4)
C22B C -0.0781(3) 0.6422(3) 0.3511(4)
C23B C -0.0025(3) 0.8392(3) 0.5880(4)
C24B C -0.2279(3) 0.8531(3) 0.2456(4)
C25B C -0.0337(3) 0.7043(3) -0.0392(4)
H1B H -0.1153 0.3688 0.1349
H2B H -0.0874 0.4763 0.1513
H3B H -0.2730 0.5080 -0.1176
H4B H -0.2982 0.3980 -0.1266
H5B H -0.2276 0.5627 0.2142
H6B H -0.2750 0.5395 0.0963
H7B H -0.2961 0.6055 0.1392
H8B H -0.0705 0.7862 0.1553
H9B H -0.1593 0.7985 0.0879
H10B H -0.0963 0.7954 0.0292
H11B H -0.0977 0.5217 -0.0906
H12B H -0.0220 0.5652 -0.0608
H13B H -0.0970 0.5841 -0.1586
H14B H -0.2410 0.6872 0.2187
H15B H -0.2399 0.7492 0.1524
H16B H -0.0521 0.6370 0.2984
H17B H -0.1288 0.6215 0.3253
H18B H -0.0468 0.6227 0.4183
H19B H -0.0219 0.8825 0.5887
H20B H -0.0068 0.8157 0.6491
H21B H 0.0517 0.8409 0.5922
H22B H -0.2249 0.8959 0.2755
H23B H -0.2780 0.8342 0.2391
H24B H -0.2221 0.8555 0.1753
H25B H -0.0636 0.7341 -0.0924
H26B H -0.0129 0.6717 -0.0732
H27B H -0.1240 0.8826 0.4314
C26 C 0.0195(4) 0.9443(4) 0.2141(7)
Cl2 Cl -0.0691(1) 0.94464(9) 0.0823(1)
Cl3 Cl 0.0785(1) 1.0114(1) 0.2082(2)
C26B C -0.0195(4) 0.9443(4) 0.2859(7)
Cl2B Cl 0.0691(1) 0.94464(9) 0.4177(1)
Cl3B Cl -0.0785(1) 1.0114(1) 0.2918(2)
loop_
_geom_bond_atom_site_label_1
_geom_bond_atom_site_label_2
_geom_bond_site_symmetry_1
_geom_bond_site_symmetry_2
Hg1 Cl1 1_555 1_555
N1 Hg1 1_555 1_555
C1 N1 1_555 1_555
C2 C1 1_555 1_555
C3 C2 1_555 1_555
C4 C3 1_555 1_555
C5 N1 1_555 1_555
C6 C3 1_555 1_555
C7 C6 1_555 1_555
C8 C7 1_555 1_555
C9 C8 1_555 1_555
C10 C9 1_555 1_555
C11 C6 1_555 1_555
C12 C7 1_555 1_555
C13 C9 1_555 1_555
C14 C11 1_555 1_555
C15 C8 1_555 1_555
C16 C15 1_555 1_555
C17 C16 1_555 1_555
C18 C17 1_555 1_555
C19 C18 1_555 1_555
C20 C19 1_555 1_555
C21 C16 1_555 1_555
C22 C17 1_555 1_555
C23 C19 1_555 1_555
C24 C21 1_555 1_555
C25 C10 1_555 1_555
H1 C1 1_555 1_555
H2 C2 1_555 1_555
H3 C4 1_555 1_555
H4 C5 1_555 1_555
H5 C12 1_555 1_555
H6 C12 1_555 1_555
H7 C12 1_555 1_555
H8 C13 1_555 1_555
H9 C13 1_555 1_555
H10 C13 1_555 1_555
H11 C14 1_555 1_555
H12 C14 1_555 1_555
H13 C14 1_555 1_555
H14 C15 1_555 1_555
H15 C15 1_555 1_555
H16 C22 1_555 1_555
H17 C22 1_555 1_555
H18 C22 1_555 1_555
H19 C23 1_555 1_555
H20 C23 1_555 1_555
H21 C23 1_555 1_555
H22 C24 1_555 1_555
H23 C24 1_555 1_555
H24 C24 1_555 1_555
H25 C25 1_555 1_555
H26 C25 1_555 1_555
H27 C20 1_555 1_555
C26 Cl2 1_555 1_555
Cl3 C26 1_555 1_555
Hg1G N1B 1_555 1_555
Cl1E Hg1 1_555 1_555
N1B C1B 1_555 1_555
N1E Hg1 1_555 1_555
C1B C2B 1_555 1_555
C2B C3B 1_555 1_555
C3B C4B 1_555 1_555
C4B C5B 1_555 1_555
C5B N1B 1_555 1_555
C6B C3B 1_555 1_555
C7B C6B 1_555 1_555
C8B C7B 1_555 1_555
C9B C8B 1_555 1_555
C10B C9B 1_555 1_555
C11B C6B 1_555 1_555
C12B C7B 1_555 1_555
C13B C9B 1_555 1_555
C14B C11B 1_555 1_555
C15B C8B 1_555 1_555
C16B C15B 1_555 1_555
C17B C16B 1_555 1_555
C18B C25 1_555 1_555
C19B C18B 1_555 1_555
C20B C19B 1_555 1_555
C21B C16B 1_555 1_555
C22B C17B 1_555 1_555
C23B C19B 1_555 1_555
C24B C21B 1_555 1_555
C25B C18 1_555 1_555
H1B C1B 1_555 1_555
H2B C2B 1_555 1_555
H3B C4B 1_555 1_555
H4B C5B 1_555 1_555
H5B C12B 1_555 1_555
H6B C12B 1_555 1_555
H7B C12B 1_555 1_555
H8B C13B 1_555 1_555
H9B C13B 1_555 1_555
H10B C13B 1_555 1_555
H11B C14B 1_555 1_555
H12B C14B 1_555 1_555
H13B C14B 1_555 1_555
H14B C15B 1_555 1_555
H15B C15B 1_555 1_555
H16B C22B 1_555 1_555
H17B C22B 1_555 1_555
H18B C22B 1_555 1_555
H19B C23B 1_555 1_555
H20B C23B 1_555 1_555
H21B C23B 1_555 1_555
H22B C24B 1_555 1_555
H23B C24B 1_555 1_555
H24B C24B 1_555 1_555
H25B C25B 1_555 1_555
H26B C25B 1_555 1_555
H27B C20B 1_555 1_555
C26B C26 1_555 1_555
Cl2B C26B 1_555 1_555
Cl3B C26B 1_555 1_555
C4 C5 1_555 1_555
C10 C11 1_555 1_555
C20 C21 1_555 1_555
C10B C11B 1_555 1_555
C10B C25B 1_555 1_555
C17B C18B 1_555 1_555
C20B C21B 1_555 1_555

#END
