
#######################################################################
#
#                 Cambridge Crystallographic Data Centre
#                                CCDC 
#
#######################################################################
#
# If this CIF has been generated from an entry in the Cambridge 
# Structural Database, then it will include bibliographic, chemical, 
# crystal, experimental, refinement or atomic coordinate data resulting 
# from the CCDC's data processing and validation procedures.
#
#######################################################################

data_KIBFUY
_symmetry_cell_setting           monoclinic
_symmetry_space_group_name_H-M   'P 21/c'
_symmetry_Int_Tables_number      14
_space_group_name_Hall           '-P 2ybc'
loop_
_symmetry_equiv_pos_site_id
_symmetry_equiv_pos_as_xyz
1 x,y,z
2 -x,1/2+y,1/2-z
3 -x,-y,-z
4 x,1/2-y,1/2+z
_cell_length_a                   9.3878(19)
_cell_length_b                   10.051(2)
_cell_length_c                   21.113(4)
_cell_angle_alpha                90
_cell_angle_beta                 102.85(3)
_cell_angle_gamma                90
_cell_volume                     1942.26
loop_
_atom_site_label
_atom_site_type_symbol
_atom_site_fract_x
_atom_site_fract_y
_atom_site_fract_z
Cd1 Cd 0.79862(4) 0.44563(3) 0.503622(17)
C1 C 0.6938(6) 0.2971(5) 0.5904(2)
C2 C 0.6295(6) 0.2137(5) 0.6354(2)
C3 C 0.6945(8) 0.0952(6) 0.6581(3)
H1 H 0.7784 0.0677 0.6453
C4 C 0.6357(9) 0.0160(7) 0.7001(4)
H2 H 0.6812 -0.0633 0.7157
C5 C 0.5105(8) 0.0551(6) 0.7184(3)
H3 H 0.4701 0.0015 0.7457
C6 C 0.4452(6) 0.1737(5) 0.6962(2)
C7 C 0.5050(6) 0.2549(5) 0.6551(2)
H4 H 0.4617 0.3360 0.6409
C8 C 0.1375(6) 0.2013(5) 0.7671(2)
C9 C 0.0426(7) 0.2956(5) 0.7325(3)
H5 H 0.0626 0.3338 0.6953
C10 C -0.0802(8) 0.3322(6) 0.7530(3)
H6 H -0.1436 0.3951 0.7298
C11 C -0.1100(7) 0.2751(5) 0.8086(3)
H7 H -0.1933 0.3001 0.8226
C12 C -0.0153(6) 0.1804(5) 0.8436(2)
C13 C 0.1071(6) 0.1417(5) 0.8225(2)
H8 H 0.1689 0.0767 0.8449
C14 C -0.0488(6) 0.1182(5) 0.9029(2)
C15 C 0.5240(10) 0.3018(7) 0.4030(4)
H9 H 0.6029 0.2404 0.4043
H10 H 0.4671 0.3087 0.3594
H11 H 0.4631 0.2705 0.4309
C16 C 0.8251(7) 0.7447(5) 0.4608(3)
H12 H 0.8927 0.7090 0.4394
C17 C 0.8799(11) 0.9580(7) 0.4190(4)
H13 H 0.8517 1.0491 0.4222
H14 H 0.8544 0.9302 0.3744
H15 H 0.9835 0.9495 0.4351
C18 C 0.6985(10) 0.9357(7) 0.4889(4)
H16 H 0.6980 1.0302 0.4822
H17 H 0.7242 0.9170 0.5347
H18 H 0.6032 0.9004 0.4708
N1 N 0.3148(6) 0.2246(4) 0.7119(2)
N2 N 0.2687(6) 0.1531(5) 0.7512(2)
N3 N 0.8041(7) 0.8747(4) 0.4576(2)
O1 O 0.7882(5) 0.2483(4) 0.5645(2)
O2 O 0.6532(5) 0.4171(4) 0.57973(19)
O3 O -0.0039(5) 0.0026(4) 0.91933(18)
O4 O -0.1264(5) 0.1846(4) 0.93292(19)
O5 O 0.5810(6) 0.4278(4) 0.4244(2)
H19 H 0.5641 0.4911 0.4484
O6 O 0.7607(5) 0.6675(4) 0.49036(19)
Cd1A Cd 0.20138(4) -0.05437(3) 0.996378(17)
Cd1C Cd -0.20138(4) 0.05437(3) 1.003622(17)
O3A O 1.0039(5) 0.5026(4) 0.58067(18)
O4C O 0.8736(5) 0.3154(4) 0.43292(19)
loop_
_geom_bond_atom_site_label_1
_geom_bond_atom_site_label_2
_geom_bond_site_symmetry_1
_geom_bond_site_symmetry_2
Cd1 O1 1_555 1_555
C1 C2 1_555 1_555
C2 C3 1_555 1_555
C3 H1 1_555 1_555
C4 C3 1_555 1_555
H2 C4 1_555 1_555
C5 C4 1_555 1_555
H3 C5 1_555 1_555
C6 C5 1_555 1_555
C7 C2 1_555 1_555
H4 C7 1_555 1_555
C8 C9 1_555 1_555
C9 H5 1_555 1_555
C10 C9 1_555 1_555
H6 C10 1_555 1_555
C11 C10 1_555 1_555
H7 C11 1_555 1_555
C12 C11 1_555 1_555
C13 C8 1_555 1_555
H8 C13 1_555 1_555
C14 C12 1_555 1_555
C15 H9 1_555 1_555
H10 C15 1_555 1_555
H11 C15 1_555 1_555
C16 H12 1_555 1_555
C17 H13 1_555 1_555
H14 C17 1_555 1_555
H15 C17 1_555 1_555
C18 H16 1_555 1_555
H17 C18 1_555 1_555
H18 C18 1_555 1_555
N1 C6 1_555 1_555
N2 C8 1_555 1_555
N3 C16 1_555 1_555
O1 C1 1_555 1_555
O2 Cd1 1_555 1_555
O3 C14 1_555 1_555
O4 C14 1_555 1_555
O5 Cd1 1_555 1_555
H19 O5 1_555 1_555
O6 Cd1 1_555 1_555
Cd1A O3 1_555 1_555
Cd1C O4 1_555 1_555
O3A Cd1 1_555 1_555
O4C Cd1 1_555 1_555
C1 O2 1_555 1_555
C6 C7 1_555 1_555
C12 C13 1_555 1_555
C15 O5 1_555 1_555
C16 O6 1_555 1_555
C17 N3 1_555 1_555
C18 N3 1_555 1_555
N1 N2 1_555 1_555

#END
