
#######################################################################
#
#                 Cambridge Crystallographic Data Centre
#                                CCDC 
#
#######################################################################
#
# If this CIF has been generated from an entry in the Cambridge 
# Structural Database, then it will include bibliographic, chemical, 
# crystal, experimental, refinement or atomic coordinate data resulting 
# from the CCDC's data processing and validation procedures.
#
#######################################################################

data_KIBHOU
_symmetry_cell_setting           orthorhombic
_symmetry_space_group_name_H-M   'P b c m'
_symmetry_Int_Tables_number      57
_space_group_name_Hall           '-P 2c 2b'
loop_
_symmetry_equiv_pos_site_id
_symmetry_equiv_pos_as_xyz
1 x,y,z
2 -x,-y,1/2+z
3 -x,1/2+y,1/2-z
4 x,1/2-y,-z
5 -x,-y,-z
6 x,y,1/2-z
7 x,1/2-y,1/2+z
8 -x,1/2+y,z
_cell_length_a                   7.8624(14)
_cell_length_b                   11.962(2)
_cell_length_c                   15.797(3)
_cell_angle_alpha                90
_cell_angle_beta                 90
_cell_angle_gamma                90
_cell_volume                     1485.71
loop_
_atom_site_label
_atom_site_type_symbol
_atom_site_fract_x
_atom_site_fract_y
_atom_site_fract_z
C1 C 0.3460(5) -0.0319(3) 0.4096(2)
C2 C 0.4881(5) 0.0130(3) 0.4603(2)
H1 H 0.5657 0.0629 0.4340
C3 C 0.1256(5) -0.1655(4) 0.3960(3)
H2 H 0.1097 -0.2437 0.4150
H3 H 0.1582 -0.1668 0.3355
C4 C -0.0381(6) -0.1018(5) 0.4065(4)
H4 H -0.0707 -0.1013 0.4664
H5 H -0.1278 -0.1379 0.3732
H6 H -0.0225 -0.0248 0.3868
Cl1 Cl 0.08637(17) 0.16104(13) 0.2500
Cl2 Cl 0.64548(18) 0.04832(14) 0.2500
Cl3 Cl 0.43614(14) 0.25399(10) 0.14474(8)
Mo1 Mo 0.37914(6) 0.13181(4) 0.2500
O1 O 0.3103(3) 0.0024(2) 0.33843(16)
O2 O 0.2615(3) -0.1126(2) 0.44586(17)
C1D C 0.6540(5) 0.0319(3) 0.5904(2)
C2D C 0.5119(5) -0.0130(3) 0.5397(2)
H1D H 0.4343 -0.0629 0.5660
C3D C 0.8744(5) 0.1655(4) 0.6040(3)
H2D H 0.8903 0.2437 0.5850
H3D H 0.8418 0.1668 0.6645
C4D C 1.0381(6) 0.1018(5) 0.5935(4)
H4D H 1.0707 0.1013 0.5336
H5D H 1.1278 0.1379 0.6268
H6D H 1.0225 0.0248 0.6132
O1D O 0.6897(3) -0.0024(2) 0.66157(16)
O2D O 0.7385(3) 0.1126(2) 0.55414(17)
Cl3E Cl 0.43614(14) 0.25399(10) 0.35526(8)
Mo1A Mo 0.62086(6) -0.13181(4) 0.7500
O1E O 0.3103(3) 0.0024(2) 0.16157(16)
loop_
_geom_bond_atom_site_label_1
_geom_bond_atom_site_label_2
_geom_bond_site_symmetry_1
_geom_bond_site_symmetry_2
C1 C2 1_555 1_555
C2 H1 1_555 1_555
C3 H2 1_555 1_555
H3 C3 1_555 1_555
C4 C3 1_555 1_555
H4 C4 1_555 1_555
H5 C4 1_555 1_555
H6 C4 1_555 1_555
Cl1 Mo1 1_555 1_555
Cl2 Mo1 1_555 1_555
Cl3 Mo1 1_555 1_555
Mo1 O1 1_555 1_555
O1 C1 1_555 1_555
O2 C1 1_555 1_555
C1D C2D 1_555 1_555
C2D C2 1_555 1_555
H1D C2D 1_555 1_555
C3D H2D 1_555 1_555
H3D C3D 1_555 1_555
C4D C3D 1_555 1_555
H4D C4D 1_555 1_555
H5D C4D 1_555 1_555
H6D C4D 1_555 1_555
O1D C1D 1_555 1_555
O2D C1D 1_555 1_555
Cl3E Mo1 1_555 1_555
Mo1A O1D 1_555 1_555
O1E Mo1 1_555 1_555
C3 O2 1_555 1_555
C3D O2D 1_555 1_555

#END
