
#######################################################################
#
#                 Cambridge Crystallographic Data Centre
#                                CCDC 
#
#######################################################################
#
# If this CIF has been generated from an entry in the Cambridge 
# Structural Database, then it will include bibliographic, chemical, 
# crystal, experimental, refinement or atomic coordinate data resulting 
# from the CCDC's data processing and validation procedures.
#
#######################################################################

data_KIBKUD
_symmetry_cell_setting           monoclinic
_symmetry_space_group_name_H-M   'C 2/c'
_symmetry_Int_Tables_number      15
_space_group_name_Hall           '-C 2yn'
loop_
_symmetry_equiv_pos_site_id
_symmetry_equiv_pos_as_xyz
1 x,y,z
2 -x,y,1/2-z
3 1/2+x,1/2+y,z
4 1/2-x,1/2+y,1/2-z
5 -x,-y,-z
6 x,-y,1/2+z
7 1/2-x,1/2-y,-z
8 1/2+x,1/2-y,1/2+z
_cell_length_a                   20.184(4)
_cell_length_b                   8.9209(18)
_cell_length_c                   19.095(3)
_cell_angle_alpha                90
_cell_angle_beta                 115.154(14)
_cell_angle_gamma                90
_cell_volume                     3112.18
loop_
_atom_site_label
_atom_site_type_symbol
_atom_site_fract_x
_atom_site_fract_y
_atom_site_fract_z
U1 U 0.2500 0.7500 0.5000
P1 P 0.35584(6) -0.02210(12) 0.42542(7)
P2 P 0.20164(6) 0.61694(12) 0.30865(7)
Cu1 Cu 0.31218(3) 0.32385(6) 0.36794(3)
N1 N 0.2178(3) 0.2404(4) 0.3617(3)
N2 N -0.09188(19) -0.0853(4) 0.3824(2)
O1 O 0.43306(19) -0.0836(4) 0.4850(2)
H1 H 0.4535 -0.0620 0.5277
O2 O 0.33740(19) -0.1023(4) 0.3490(2)
O3 O 0.30088(19) -0.0616(4) 0.4574(2)
O4 O 0.36413(17) 0.1453(3) 0.4186(2)
O5 O 0.26782(17) 0.5179(3) 0.3332(2)
O6 O 0.13200(17) 0.5400(4) 0.24723(19)
H2 H 0.0884 0.6001 0.2224
O7 O 0.18321(18) 0.6731(4) 0.37347(19)
O8 O 0.2156(2) 0.7582(3) 0.2665(3)
O9 O 0.32134(18) 0.6277(4) 0.5063(2)
C1 C 0.1831(3) 0.1251(5) 0.3164(3)
H3 H 0.1987 0.0901 0.2806
C2 C 0.1224(3) 0.0597(5) 0.3192(3)
H4 H 0.0978 -0.0156 0.2829
C3 C 0.1929(3) 0.2934(6) 0.4111(3)
H5 H 0.2177 0.3722 0.4459
C4 C 0.1324(3) 0.2331(5) 0.4177(4)
H6 H 0.1150 0.2775 0.4475
C5 C 0.0964(2) 0.1129(5) 0.3712(3)
C6 C 0.0320(2) 0.0435(5) 0.3774(3)
C7 C 0.0172(2) -0.1095(5) 0.3634(3)
H7 H 0.0469 -0.1742 0.3536
C8 C -0.0443(2) -0.1679(5) 0.3668(3)
H8 H -0.0497 -0.2556 0.3583
C9 C -0.0149(3) 0.1272(5) 0.3974(3)
H9 H -0.0076 0.2203 0.4054
C10 C -0.0764(3) 0.0601(5) 0.3989(3)
H10 H -0.0985 0.1161 0.4151
P1F P 0.14416(6) 0.52210(12) 0.57458(7)
P2F P 0.29836(6) -0.11694(12) 0.69135(7)
Cu1F Cu 0.18782(3) 0.17615(6) 0.63206(3)
N1F N 0.2822(3) 0.2596(4) 0.6383(3)
N2F N 0.59188(19) 0.5853(4) 0.6176(2)
O1F O 0.06694(19) 0.5836(4) 0.5150(2)
H1F H 0.0465 0.5620 0.4723
O2F O 0.16260(19) 0.6023(4) 0.6510(2)
O3F O 0.19912(19) 0.5616(4) 0.5426(2)
O4F O 0.13587(17) 0.3547(3) 0.5814(2)
O5F O 0.23218(17) -0.0179(3) 0.6668(2)
O6F O 0.36800(17) -0.0400(4) 0.75277(19)
H2F H 0.4116 -0.1001 0.7776
O7F O 0.31679(18) -0.1731(4) 0.62653(19)
O8F O 0.2844(2) -0.2582(3) 0.7335(3)
C1F C 0.3169(3) 0.3749(5) 0.6836(3)
H3F H 0.3013 0.4099 0.7194
C2F C 0.3776(3) 0.4403(5) 0.6808(3)
H4F H 0.4022 0.5156 0.7171
C3F C 0.3071(3) 0.2066(6) 0.5889(3)
H5F H 0.2823 0.1278 0.5541
C4F C 0.3676(3) 0.2669(5) 0.5823(4)
H6F H 0.3850 0.2225 0.5525
C5F C 0.4036(2) 0.3871(5) 0.6288(3)
C6F C 0.4680(2) 0.4565(5) 0.6226(3)
C7F C 0.4828(2) 0.6095(5) 0.6366(3)
H7F H 0.4531 0.6742 0.6464
C8F C 0.5443(2) 0.6679(5) 0.6332(3)
H8F H 0.5497 0.7556 0.6417
C9F C 0.5149(3) 0.3728(5) 0.6026(3)
H9F H 0.5076 0.2797 0.5946
C10F C 0.5764(3) 0.4399(5) 0.6011(3)
H10F H 0.5985 0.3839 0.5849
O9F O 0.17866(18) 0.8723(4) 0.4937(2)
U1_2 U 0.2500 -0.2500 0.5000
Cu1B Cu -0.18782(3) -0.17615(6) 0.36794(3)
Cu1C Cu 0.18782(3) 0.82385(6) 0.13206(3)
Cu1D Cu 0.68782(3) 0.67615(6) 0.63206(3)
Cu1E Cu 0.31218(3) -0.32385(6) 0.86794(3)
N2B N 0.40812(19) 0.4147(4) 0.3824(2)
N2D N 0.09188(19) 0.0853(4) 0.6176(2)
O3_2 O 0.30088(19) 0.9384(4) 0.4574(2)
O7F_2 O 0.31679(18) 0.8269(4) 0.62653(19)
O8C O 0.2844(2) 0.2582(3) 0.2335(3)
O8E O 0.2156(2) 0.2418(3) 0.7665(3)
O10 O 0.0346(6) -0.4753(12) 0.3515(8)
loop_
_geom_bond_atom_site_label_1
_geom_bond_atom_site_label_2
_geom_bond_site_symmetry_1
_geom_bond_site_symmetry_2
U1 O7 1_555 1_555
P1 O1 1_555 1_555
P2 O5 1_555 1_555
Cu1 N1 1_555 1_555
N1 C1 1_555 1_555
N2 C8 1_555 1_555
O1 H1 1_555 1_555
O2 P1 1_555 1_555
O3 P1 1_555 1_555
O4 P1 1_555 1_555
O5 Cu1 1_555 1_555
O6 P2 1_555 1_555
H2 O6 1_555 1_555
O7 P2 1_555 1_555
O8 P2 1_555 1_555
O9 U1 1_555 1_555
C1 H3 1_555 1_555
C2 C1 1_555 1_555
H4 C2 1_555 1_555
C3 N1 1_555 1_555
H5 C3 1_555 1_555
C4 C3 1_555 1_555
H6 C4 1_555 1_555
C5 C2 1_555 1_555
C6 C5 1_555 1_555
C7 C6 1_555 1_555
H7 C7 1_555 1_555
C8 C7 1_555 1_555
H8 C8 1_555 1_555
C9 C6 1_555 1_555
H9 C9 1_555 1_555
C10 N2 1_555 1_555
H10 C10 1_555 1_555
P1F O1F 1_555 1_555
P2F O5F 1_555 1_555
Cu1F N1F 1_555 1_555
N1F C1F 1_555 1_555
N2F C8F 1_555 1_555
O1F H1F 1_555 1_555
O2F P1F 1_555 1_555
O3F U1 1_555 1_555
O4F P1F 1_555 1_555
O5F Cu1F 1_555 1_555
O6F P2F 1_555 1_555
H2F O6F 1_555 1_555
O7F P2F 1_555 1_555
O8F P2F 1_555 1_555
C1F H3F 1_555 1_555
C2F C1F 1_555 1_555
H4F C2F 1_555 1_555
C3F N1F 1_555 1_555
H5F C3F 1_555 1_555
C4F C3F 1_555 1_555
H6F C4F 1_555 1_555
C5F C2F 1_555 1_555
C6F C5F 1_555 1_555
C7F C6F 1_555 1_555
H7F C7F 1_555 1_555
C8F C7F 1_555 1_555
H8F C8F 1_555 1_555
C9F C6F 1_555 1_555
H9F C9F 1_555 1_555
C10F N2F 1_555 1_555
H10F C10F 1_555 1_555
O9F U1 1_555 1_555
U1_2 O3 1_555 1_555
Cu1B N2 1_555 1_555
Cu1C O8 1_555 1_555
Cu1D N2F 1_555 1_555
Cu1E O8F 1_555 1_555
N2B Cu1 1_555 1_555
N2D Cu1F 1_555 1_555
O3_2 U1 1_555 1_555
O7F_2 U1 1_555 1_555
O8C Cu1 1_555 1_555
O8E Cu1F 1_555 1_555
Cu1 O4 1_555 1_555
C4 C5 1_555 1_555
C9 C10 1_555 1_555
P1F O3F 1_555 1_555
Cu1F O4F 1_555 1_555
O7F U1_2 1_555 1_555
C4F C5F 1_555 1_555
C9F C10F 1_555 1_555

#END
