
#######################################################################
#
#                 Cambridge Crystallographic Data Centre
#                                CCDC 
#
#######################################################################
#
# If this CIF has been generated from an entry in the Cambridge 
# Structural Database, then it will include bibliographic, chemical, 
# crystal, experimental, refinement or atomic coordinate data resulting 
# from the CCDC's data processing and validation procedures.
#
#######################################################################

data_KIBLEN
_symmetry_cell_setting           monoclinic
_symmetry_space_group_name_H-M   'P 21/c'
_symmetry_Int_Tables_number      14
_space_group_name_Hall           '-P 2ybc'
loop_
_symmetry_equiv_pos_site_id
_symmetry_equiv_pos_as_xyz
1 x,y,z
2 -x,1/2+y,1/2-z
3 -x,-y,-z
4 x,1/2-y,1/2+z
_cell_length_a                   10.472(3)
_cell_length_b                   17.792(4)
_cell_length_c                   7.4515(18)
_cell_angle_alpha                90
_cell_angle_beta                 92.421(4)
_cell_angle_gamma                90
_cell_volume                     1387.11
loop_
_atom_site_label
_atom_site_type_symbol
_atom_site_fract_x
_atom_site_fract_y
_atom_site_fract_z
Cu1 Cu 0.25361(5) 0.13924(3) 0.62581(8)
Cu2 Cu 0.25429(5) -0.00979(3) 0.44065(9)
S1 S 0.35256(9) 0.10514(6) 0.34818(14)
S2 S 0.17238(9) 0.02272(6) 0.76804(14)
N1 N -0.0922(3) 0.0178(2) 0.6888(5)
N2 N 0.6047(3) 0.0713(2) 0.4696(5)
N3 N 0.4129(3) 0.15986(18) 0.7818(4)
C1 C 0.8837(4) 0.2774(2) 0.9788(5)
H1 H 0.8054 0.2997 0.9483
C2 C 0.5769(4) 0.1052(2) 0.9747(6)
H2 H 0.6002 0.0683 1.0582
N4 N 0.7912(3) 0.14990(18) 0.9927(5)
H3 H 0.8074 0.1067 1.0403
C3 C 0.6669(4) 0.1579(2) 0.9219(5)
C4 C 0.4993(4) 0.2117(2) 0.7351(6)
H4 H 0.4729 0.2486 0.6534
C5 C 0.8938(4) 0.1994(2) 1.0000(5)
C6 C 0.5012(4) 0.0857(2) 0.4199(5)
C7 C 0.6247(4) 0.2133(2) 0.8009(5)
H5 H 0.6800 0.2508 0.7652
C8 C 0.4544(4) 0.1079(2) 0.9033(6)
H6 H 0.3964 0.0721 0.9403
C9 C 0.0153(4) 0.0197(2) 0.7248(5)
C10 C 0.9925(4) 0.3204(2) 1.0041(5)
H7 H 0.9852 0.3719 0.9851
C11 C 1.0149(4) 0.1702(2) 1.0453(6)
H8 H 1.0262 0.1185 1.0578
N5 N 1.1080(3) 0.29342(18) 1.0541(5)
C12 C 1.1170(4) 0.2179(2) 1.0711(6)
H9 H 1.1965 0.1972 1.1020
Cu1C Cu 1.25361(5) 0.36076(3) 1.12581(8)
Cu2B Cu -0.25429(5) 0.00979(3) 0.55935(9)
Cu2B_2 Cu 0.74571(5) 0.00979(3) 0.55935(9)
N1B N 0.0922(3) -0.0178(2) 0.3112(5)
N2B N 0.3953(3) -0.0713(2) 0.5304(5)
N5C N 0.1080(3) 0.20658(18) 0.5541(5)
loop_
_geom_bond_atom_site_label_1
_geom_bond_atom_site_label_2
_geom_bond_site_symmetry_1
_geom_bond_site_symmetry_2
Cu1 S1 1_555 1_555
Cu2 S1 1_555 1_555
S1 C6 1_555 1_555
S2 Cu1 1_555 1_555
N1 C9 1_555 1_555
N2 C6 1_555 1_555
N3 Cu1 1_555 1_555
C1 H1 1_555 1_555
C2 H2 1_555 1_555
N4 H3 1_555 1_555
C3 C2 1_555 1_555
C4 N3 1_555 1_555
H4 C4 1_555 1_555
C5 C1 1_555 1_555
C7 C3 1_555 1_555
H5 C7 1_555 1_555
C8 N3 1_555 1_555
H6 C8 1_555 1_555
C9 S2 1_555 1_555
C10 C1 1_555 1_555
H7 C10 1_555 1_555
C11 C5 1_555 1_555
H8 C11 1_555 1_555
N5 C10 1_555 1_555
C12 C11 1_555 1_555
H9 C12 1_555 1_555
Cu1C N5 1_555 1_555
Cu2B N1 1_555 1_555
Cu2B_2 N2 1_555 1_555
N1B Cu2 1_555 1_555
N2B Cu2 1_555 1_555
N5C Cu1 1_555 1_555
Cu2 S2 1_555 1_555
C2 C8 1_555 1_555
N4 C3 1_555 1_555
N4 C5 1_555 1_555
C4 C7 1_555 1_555
N5 C12 1_555 1_555

#END
