
#######################################################################
#
#                 Cambridge Crystallographic Data Centre
#                                CCDC 
#
#######################################################################
#
# If this CIF has been generated from an entry in the Cambridge 
# Structural Database, then it will include bibliographic, chemical, 
# crystal, experimental, refinement or atomic coordinate data resulting 
# from the CCDC's data processing and validation procedures.
#
#######################################################################

data_KIBNIU
_symmetry_cell_setting           triclinic
_symmetry_space_group_name_H-M   'P -1'
_symmetry_Int_Tables_number      2
_space_group_name_Hall           '-P 1'
loop_
_symmetry_equiv_pos_site_id
_symmetry_equiv_pos_as_xyz
1 x,y,z
2 -x,-y,-z
_cell_length_a                   8.4660(9)
_cell_length_b                   12.8420(14)
_cell_length_c                   13.4340(14)
_cell_angle_alpha                107.5420(10)
_cell_angle_beta                 104.4380(10)
_cell_angle_gamma                92.7310(10)
_cell_volume                     1336.67
loop_
_atom_site_label
_atom_site_type_symbol
_atom_site_fract_x
_atom_site_fract_y
_atom_site_fract_z
Nd1 Nd 0.753537(13) 0.010832(10) 0.510231(9)
Zn1 Zn 0.67626(3) 0.27979(2) 0.33953(2)
O1 O 0.8467(2) 0.31598(15) 0.47992(14)
O2 O 0.69943(19) 0.20036(14) 0.52662(14)
O3 O 1.02570(18) 0.11003(13) 0.55516(13)
O4 O 1.28484(19) 0.18551(14) 0.61577(14)
O5 O 0.7333(2) 0.43797(15) 0.71076(16)
O6 O 0.5948(2) 0.12419(14) 0.25044(14)
O7 O 0.77910(19) 0.04310(14) 0.34258(12)
O8 O 0.46870(19) -0.01841(14) 0.38979(12)
O9 O 0.2305(2) -0.11896(15) 0.29301(13)
O10 O 0.7400(2) -0.04680(16) 0.08193(15)
O11 O 0.8787(2) -0.08855(15) 0.63444(14)
H1 H 0.8583 -0.0966 0.6907
H2 H 0.9820 -0.0890 0.6457
N1 N 0.5272(3) 0.64995(18) 0.63112(18)
N2 N 0.8600(3) -0.1061(2) -0.16857(18)
Cl1 Cl 0.77067(9) 0.37122(6) 0.24532(6)
C1 C 0.8909(3) 0.4067(2) 0.7374(2)
C2 C 0.9338(3) 0.32036(19) 0.66141(19)
C3 C 1.0888(3) 0.28655(19) 0.69181(19)
C4 C 1.1941(3) 0.3383(2) 0.7948(2)
H3 H 1.2982 0.3174 0.8134
C5 C 1.1456(4) 0.4209(2) 0.8702(2)
H4 H 1.2150 0.4531 0.9401
C6 C 0.9929(4) 0.4554(2) 0.8409(2)
H5 H 0.9597 0.5110 0.8909
C7 C 0.8173(3) 0.27360(19) 0.54764(19)
C8 C 1.1379(3) 0.18995(19) 0.61683(18)
C9 C 0.5699(3) 0.5698(2) 0.6739(2)
H6 H 0.5027 0.5460 0.7101
C10 C 0.7112(3) 0.5215(2) 0.6655(2)
C11 C 0.8125(3) 0.5560(2) 0.6126(2)
H7 H 0.9086 0.5254 0.6071
C12 C 0.7665(3) 0.6375(2) 0.5680(3)
H8 H 0.8319 0.6623 0.5312
C13 C 0.6229(3) 0.6825(2) 0.5778(2)
H9 H 0.5927 0.7367 0.5465
C14 C 0.6172(3) -0.1133(2) 0.09332(19)
C15 C 0.5683(3) -0.07009(19) 0.18825(18)
C16 C 0.4419(3) -0.13095(19) 0.20474(18)
C17 C 0.3689(3) -0.2338(2) 0.1286(2)
H10 H 0.2862 -0.2748 0.1404
C18 C 0.4201(3) -0.2739(2) 0.0361(2)
H11 H 0.3718 -0.3424 -0.0140
C19 C 0.5425(3) -0.2137(2) 0.0170(2)
H12 H 0.5742 -0.2404 -0.0465
C20 C 0.6537(3) 0.04127(19) 0.26687(18)
C21 C 0.3755(3) -0.08840(19) 0.30059(18)
C22 C 0.7872(3) -0.0662(2) -0.0901(2)
H13 H 0.7125 -0.0165 -0.0984
C23 C 0.8188(3) -0.0957(2) 0.0024(2)
C24 C 0.9302(4) -0.1675(3) 0.0185(2)
H14 H 0.9555 -0.1862 0.0818
C25 C 1.0028(4) -0.2106(3) -0.0635(3)
H15 H 1.0758 -0.2618 -0.0577
C26 C 0.9666(4) -0.1775(3) -0.1541(2)
H16 H 1.0187 -0.2061 -0.2078
Nd1A Nd 0.246463(13) -0.010832(10) 0.489769(9)
Nd1A_2 Nd 1.246463(13) -0.010832(10) 0.489769(9)
Zn1A Zn 0.32374(3) 0.72021(2) 0.66047(2)
O3A O 0.97430(18) -0.11003(13) 0.44484(13)
O4A O 0.71516(19) -0.18551(14) 0.38423(14)
O8A O 0.53130(19) 0.01841(14) 0.61021(12)
O9A O 0.7695(2) 0.11896(15) 0.70699(13)
N1A N 0.4728(3) 0.35005(18) 0.36888(18)
loop_
_geom_bond_atom_site_label_1
_geom_bond_atom_site_label_2
_geom_bond_site_symmetry_1
_geom_bond_site_symmetry_2
Nd1 O2 1_555 1_555
Zn1 O1 1_555 1_555
O1 C7 1_555 1_555
O2 C7 1_555 1_555
O3 Nd1 1_555 1_555
O4 C8 1_555 1_555
O5 C1 1_555 1_555
O6 Zn1 1_555 1_555
O7 Nd1 1_555 1_555
O8 Nd1 1_555 1_555
O9 C21 1_555 1_555
O10 C14 1_555 1_555
O11 Nd1 1_555 1_555
H1 O11 1_555 1_555
H2 O11 1_555 1_555
N1 C9 1_555 1_555
N2 C22 1_555 1_555
Cl1 Zn1 1_555 1_555
C1 C2 1_555 1_555
C2 C3 1_555 1_555
C3 C4 1_555 1_555
C4 H3 1_555 1_555
C5 C4 1_555 1_555
H4 C5 1_555 1_555
C6 C1 1_555 1_555
H5 C6 1_555 1_555
C7 C2 1_555 1_555
C8 O3 1_555 1_555
C9 H6 1_555 1_555
C10 O5 1_555 1_555
C11 C10 1_555 1_555
H7 C11 1_555 1_555
C12 C11 1_555 1_555
H8 C12 1_555 1_555
C13 N1 1_555 1_555
H9 C13 1_555 1_555
C14 C15 1_555 1_555
C15 C16 1_555 1_555
C16 C17 1_555 1_555
C17 H10 1_555 1_555
C18 C17 1_555 1_555
H11 C18 1_555 1_555
C19 C14 1_555 1_555
H12 C19 1_555 1_555
C20 O6 1_555 1_555
C21 O8 1_555 1_555
C22 H13 1_555 1_555
C23 O10 1_555 1_555
C24 C23 1_555 1_555
H14 C24 1_555 1_555
C25 C24 1_555 1_555
H15 C25 1_555 1_555
C26 N2 1_555 1_555
H16 C26 1_555 1_555
Nd1A O8 1_555 1_555
Nd1A_2 O3 1_555 1_555
Zn1A N1 1_555 1_555
O3A Nd1 1_555 1_555
O4A Nd1 1_555 1_555
O8A Nd1 1_555 1_555
O9A Nd1 1_555 1_555
N1A Zn1 1_555 1_555
O4 Nd1A_2 1_555 1_555
O7 C20 1_555 1_555
O9 Nd1A 1_555 1_555
C3 C8 1_555 1_555
C5 C6 1_555 1_555
C9 C10 1_555 1_555
C12 C13 1_555 1_555
C15 C20 1_555 1_555
C16 C21 1_555 1_555
C18 C19 1_555 1_555
C22 C23 1_555 1_555
C25 C26 1_555 1_555
Nd1A O8A 1_555 1_555
Nd1A_2 O3A 1_555 1_555

#END
