
#######################################################################
#
#                 Cambridge Crystallographic Data Centre
#                                CCDC 
#
#######################################################################
#
# If this CIF has been generated from an entry in the Cambridge 
# Structural Database, then it will include bibliographic, chemical, 
# crystal, experimental, refinement or atomic coordinate data resulting 
# from the CCDC's data processing and validation procedures.
#
#######################################################################

data_KIBNEQ
_symmetry_cell_setting           triclinic
_symmetry_space_group_name_H-M   'P -1'
_symmetry_Int_Tables_number      2
_space_group_name_Hall           '-P 1'
loop_
_symmetry_equiv_pos_site_id
_symmetry_equiv_pos_as_xyz
1 x,y,z
2 -x,-y,-z
_cell_length_a                   8.5153(8)
_cell_length_b                   12.8224(12)
_cell_length_c                   13.4358(13)
_cell_angle_alpha                107.6690(10)
_cell_angle_beta                 104.5520(10)
_cell_angle_gamma                92.6520(10)
_cell_volume                     1340.97
loop_
_atom_site_label
_atom_site_type_symbol
_atom_site_fract_x
_atom_site_fract_y
_atom_site_fract_z
Pr1 Pr 0.246196(15) 0.489435(10) -0.010746(10)
Zn1 Zn 0.32330(4) 0.21975(2) 0.15973(2)
Cl1 Cl 0.22931(9) 0.12800(6) 0.25352(6)
O1 O 0.2658(2) 0.06118(15) -0.21223(17)
O2 O 0.1525(2) 0.18347(15) 0.01920(14)
O3 O 0.3000(2) 0.29852(14) -0.02777(14)
O4 O -0.02596(19) 0.38879(13) -0.05563(13)
O5 O -0.2836(2) 0.31269(14) -0.11648(15)
O6 O 0.2600(2) 0.54698(16) 0.41837(15)
O7 O 0.4056(2) 0.37559(14) 0.24945(14)
O8 O 0.2217(2) 0.45706(14) 0.15830(13)
O9 O 0.53043(19) 0.51863(14) 0.11071(13)
O10 O 0.7677(2) 0.61907(15) 0.20848(14)
O11 O 0.1185(2) 0.58885(16) -0.13561(14)
H1 H 0.1278 0.5785 -0.1993
H2 H 0.0149 0.5853 -0.1547
N1 N 0.4735(3) -0.14970(18) -0.13134(19)
N2 N 0.1385(3) 0.6075(2) 0.66796(18)
C1 C 0.1092(3) 0.0923(2) -0.2389(2)
C2 C 0.0662(3) 0.17827(19) -0.16244(19)
C3 C -0.0881(3) 0.21174(19) -0.1928(2)
C4 C -0.1927(3) 0.1607(2) -0.2960(2)
H3 H -0.2960 0.1820 -0.3148
C5 C -0.1440(4) 0.0778(2) -0.3713(2)
H4 H -0.2133 0.0452 -0.4412
C6 C 0.0076(4) 0.0436(2) -0.3426(2)
H5 H 0.0407 -0.0119 -0.3929
C7 C 0.1826(3) 0.2258(2) -0.0488(2)
C8 C -0.1378(3) 0.30840(19) -0.11730(19)
C9 C 0.4299(3) -0.0697(2) -0.1742(2)
H6 H 0.4968 -0.0455 -0.2101
C10 C 0.2890(3) -0.0221(2) -0.1669(2)
C11 C 0.1884(3) -0.0569(2) -0.1138(2)
H7 H 0.0920 -0.0270 -0.1090
C12 C 0.2357(4) -0.1373(2) -0.0682(3)
H8 H 0.1716 -0.1615 -0.0306
C13 C 0.3775(4) -0.1822(2) -0.0779(3)
H9 H 0.4075 -0.2364 -0.0465
C14 C 0.3822(3) 0.6135(2) 0.4071(2)
C15 C 0.4312(3) 0.57042(19) 0.31226(19)
C16 C 0.5577(3) 0.6315(2) 0.29639(19)
C17 C 0.6300(3) 0.7342(2) 0.3725(2)
H10 H 0.7128 0.7751 0.3610
C18 C 0.5779(3) 0.7751(2) 0.4651(2)
H11 H 0.6250 0.8440 0.5152
C19 C 0.4566(3) 0.7142(2) 0.4835(2)
H12 H 0.4250 0.7409 0.5471
C20 C 0.3468(3) 0.4587(2) 0.23352(19)
C21 C 0.6236(3) 0.58825(19) 0.20051(19)
C22 C 0.2113(3) 0.5672(2) 0.5898(2)
H13 H 0.2857 0.5175 0.5986
C23 C 0.1812(3) 0.5960(2) 0.4972(2)
C24 C 0.0700(4) 0.6676(3) 0.4808(2)
H14 H 0.0454 0.6862 0.4174
C25 C -0.0039(4) 0.7107(3) 0.5621(3)
H15 H -0.0776 0.7612 0.5555
C26 C 0.0326(4) 0.6784(3) 0.6525(2)
H16 H -0.0193 0.7074 0.7061
Pr1A Pr -0.246196(15) 0.510565(10) 0.010746(10)
Pr1A_2 Pr 0.753804(15) 0.510565(10) 0.010746(10)
Zn1A Zn 0.67670(4) -0.21975(2) -0.15973(2)
O4A O 0.02596(19) 0.61121(13) 0.05563(13)
O5A O 0.2836(2) 0.68731(14) 0.11648(15)
O9A O 0.46957(19) 0.48137(14) -0.11071(13)
O10A O 0.2323(2) 0.38093(15) -0.20848(14)
N1A N 0.5265(3) 0.14970(18) 0.13134(19)
loop_
_geom_bond_atom_site_label_1
_geom_bond_atom_site_label_2
_geom_bond_site_symmetry_1
_geom_bond_site_symmetry_2
Pr1 O3 1_555 1_555
Zn1 Cl1 1_555 1_555
O1 C1 1_555 1_555
O2 Zn1 1_555 1_555
O3 C7 1_555 1_555
O4 Pr1 1_555 1_555
O5 C8 1_555 1_555
O6 C14 1_555 1_555
O7 Zn1 1_555 1_555
O8 Pr1 1_555 1_555
O9 Pr1 1_555 1_555
O10 C21 1_555 1_555
O11 Pr1 1_555 1_555
H1 O11 1_555 1_555
H2 O11 1_555 1_555
N1 C9 1_555 1_555
N2 C22 1_555 1_555
C1 C2 1_555 1_555
C2 C3 1_555 1_555
C3 C4 1_555 1_555
C4 H3 1_555 1_555
C5 C4 1_555 1_555
H4 C5 1_555 1_555
C6 C1 1_555 1_555
H5 C6 1_555 1_555
C7 O2 1_555 1_555
C8 O4 1_555 1_555
C9 H6 1_555 1_555
C10 O1 1_555 1_555
C11 C10 1_555 1_555
H7 C11 1_555 1_555
C12 C11 1_555 1_555
H8 C12 1_555 1_555
C13 N1 1_555 1_555
H9 C13 1_555 1_555
C14 C15 1_555 1_555
C15 C16 1_555 1_555
C16 C17 1_555 1_555
C17 H10 1_555 1_555
C18 C17 1_555 1_555
H11 C18 1_555 1_555
C19 C14 1_555 1_555
H12 C19 1_555 1_555
C20 O7 1_555 1_555
C21 O9 1_555 1_555
C22 H13 1_555 1_555
C23 O6 1_555 1_555
C24 C23 1_555 1_555
H14 C24 1_555 1_555
C25 C24 1_555 1_555
H15 C25 1_555 1_555
C26 N2 1_555 1_555
H16 C26 1_555 1_555
Pr1A O4 1_555 1_555
Pr1A_2 O9 1_555 1_555
Zn1A N1 1_555 1_555
O4A Pr1 1_555 1_555
O5A Pr1 1_555 1_555
O9A Pr1 1_555 1_555
O10A Pr1 1_555 1_555
N1A Zn1 1_555 1_555
O5 Pr1A 1_555 1_555
O8 C20 1_555 1_555
O10 Pr1A_2 1_555 1_555
C2 C7 1_555 1_555
C3 C8 1_555 1_555
C5 C6 1_555 1_555
C9 C10 1_555 1_555
C12 C13 1_555 1_555
C15 C20 1_555 1_555
C16 C21 1_555 1_555
C18 C19 1_555 1_555
C22 C23 1_555 1_555
C25 C26 1_555 1_555
Pr1A O4A 1_555 1_555
Pr1A_2 O9A 1_555 1_555

#END
