
#######################################################################
#
#                 Cambridge Crystallographic Data Centre
#                                CCDC 
#
#######################################################################
#
# If this CIF has been generated from an entry in the Cambridge 
# Structural Database, then it will include bibliographic, chemical, 
# crystal, experimental, refinement or atomic coordinate data resulting 
# from the CCDC's data processing and validation procedures.
#
#######################################################################

data_KIBNAM
_symmetry_cell_setting           monoclinic
_symmetry_space_group_name_H-M   'P 21/c'
_symmetry_Int_Tables_number      14
_space_group_name_Hall           '-P 2ybc'
loop_
_symmetry_equiv_pos_site_id
_symmetry_equiv_pos_as_xyz
1 x,y,z
2 -x,1/2+y,1/2-z
3 -x,-y,-z
4 x,1/2-y,1/2+z
_cell_length_a                   10.9569(14)
_cell_length_b                   18.022(2)
_cell_length_c                   11.7421(15)
_cell_angle_alpha                90
_cell_angle_beta                 100.189(2)
_cell_angle_gamma                90
_cell_volume                     2282.09
loop_
_atom_site_label
_atom_site_type_symbol
_atom_site_fract_x
_atom_site_fract_y
_atom_site_fract_z
Zn1 Zn 0.34469(3) 0.159840(17) 0.18364(3)
O1 O 0.45655(18) 0.11061(11) 0.30867(15)
O2 O 0.3683(2) 0.19231(12) 0.40937(17)
O3 O 0.43824(17) 0.25316(10) 0.65382(17)
O4 O 0.2993(2) 0.16362(12) 0.6549(2)
O5 O 0.56304(17) 0.12576(11) 0.82878(15)
O6 O 0.17156(17) 0.17433(11) 0.19046(16)
O7 O 0.10129(19) 0.05807(11) 0.1923(2)
O8 O 0.04982(19) 0.08076(12) 0.44015(18)
O9 O -0.1208(2) 0.01386(12) 0.38052(19)
H1 H -0.0918 -0.0111 0.4372
O10 O -0.02871(19) 0.25136(11) 0.05940(18)
N1 N 0.3614(2) 0.10344(12) 1.03439(18)
N2 N 0.1558(2) 0.20585(16) -0.1493(2)
H2 H 0.2196 0.2240 -0.1727
C1 C 0.4417(3) 0.14105(15) 0.4040(2)
C2 C 0.5207(2) 0.11059(14) 0.5116(2)
C3 C 0.6148(2) 0.06047(15) 0.5030(2)
H3 H 0.6266 0.0452 0.4301
C4 C 0.6911(3) 0.03262(16) 0.5994(2)
H4 H 0.7546 -0.0002 0.5917
C5 C 0.6719(2) 0.05413(15) 0.7077(2)
H5 H 0.7228 0.0361 0.7738
C6 C 0.5771(2) 0.10224(15) 0.7171(2)
C7 C 0.5006(2) 0.13206(14) 0.6217(2)
C8 C 0.4013(3) 0.18669(16) 0.6430(2)
C9 C 0.4726(2) 0.09273(15) 0.8785(2)
C10 C 0.4104(3) 0.02849(16) 0.8410(2)
H6 H 0.4278 0.0029 0.7770
C11 C 0.3218(3) 0.00335(17) 0.9014(3)
H7 H 0.2776 -0.0397 0.8778
C12 C 0.2984(3) 0.04194(16) 0.9968(2)
H8 H 0.2373 0.0247 1.0360
C13 C 0.4471(3) 0.12862(16) 0.9751(2)
H9 H 0.4906 0.1716 1.0001
C14 C 0.0886(2) 0.12547(16) 0.1966(2)
C15 C -0.0360(2) 0.15751(15) 0.2078(2)
C16 C -0.0902(3) 0.21505(16) 0.1383(2)
C17 C -0.2053(3) 0.24332(18) 0.1476(3)
H10 H -0.2393 0.2817 0.0993
C18 C -0.2695(3) 0.21489(19) 0.2281(3)
H11 H -0.3462 0.2345 0.2356
C19 C -0.2189(3) 0.15688(17) 0.2977(3)
H12 H -0.2626 0.1367 0.3514
C20 C -0.1039(2) 0.12853(16) 0.2884(2)
C21 C -0.0525(3) 0.07019(16) 0.3750(2)
C22 C 0.0125(3) 0.21147(17) -0.0252(2)
C23 C -0.0449(3) 0.14895(18) -0.0764(3)
H13 H -0.1151 0.1300 -0.0524
C24 C 0.0031(3) 0.1146(2) -0.1642(3)
H14 H -0.0323 0.0711 -0.1975
C25 C 0.1038(3) 0.1454(2) -0.2016(3)
H15 H 0.1351 0.1243 -0.2627
C26 C 0.1151(3) 0.24001(18) -0.0626(3)
H16 H 0.1549 0.2821 -0.0283
Zn1_2 Zn 0.34469(3) 0.159840(17) 1.18364(3)
Zn1C Zn 0.34469(3) 0.340160(17) 0.68364(3)
O3C O 0.43824(17) 0.24684(10) 0.15382(17)
N1_2 N 0.3614(2) 0.10344(12) 0.03439(18)
loop_
_geom_bond_atom_site_label_1
_geom_bond_atom_site_label_2
_geom_bond_site_symmetry_1
_geom_bond_site_symmetry_2
Zn1 O1 1_555 1_555
O1 C1 1_555 1_555
O2 C1 1_555 1_555
O3 C8 1_555 1_555
O4 C8 1_555 1_555
O5 C6 1_555 1_555
O6 Zn1 1_555 1_555
O7 C14 1_555 1_555
O8 C21 1_555 1_555
O9 H1 1_555 1_555
O10 C16 1_555 1_555
N1 C12 1_555 1_555
N2 H2 1_555 1_555
C1 C2 1_555 1_555
C2 C3 1_555 1_555
C3 H3 1_555 1_555
C4 C3 1_555 1_555
H4 C4 1_555 1_555
C5 C4 1_555 1_555
H5 C5 1_555 1_555
C6 C5 1_555 1_555
C7 C2 1_555 1_555
C8 C7 1_555 1_555
C9 O5 1_555 1_555
C10 C9 1_555 1_555
H6 C10 1_555 1_555
C11 C10 1_555 1_555
H7 C11 1_555 1_555
C12 C11 1_555 1_555
H8 C12 1_555 1_555
C13 N1 1_555 1_555
H9 C13 1_555 1_555
C14 O6 1_555 1_555
C15 C14 1_555 1_555
C16 C15 1_555 1_555
C17 C16 1_555 1_555
H10 C17 1_555 1_555
C18 C17 1_555 1_555
H11 C18 1_555 1_555
C19 C18 1_555 1_555
H12 C19 1_555 1_555
C20 C15 1_555 1_555
C21 O9 1_555 1_555
C22 O10 1_555 1_555
C23 C22 1_555 1_555
H13 C23 1_555 1_555
C24 C23 1_555 1_555
H14 C24 1_555 1_555
C25 N2 1_555 1_555
H15 C25 1_555 1_555
C26 N2 1_555 1_555
H16 C26 1_555 1_555
Zn1_2 N1 1_555 1_555
Zn1C O3 1_555 1_555
O3C Zn1 1_555 1_555
N1_2 Zn1 1_555 1_555
C6 C7 1_555 1_555
C9 C13 1_555 1_555
C19 C20 1_555 1_555
C20 C21 1_555 1_555
C22 C26 1_555 1_555
C24 C25 1_555 1_555

#END
