
#######################################################################
#
#                 Cambridge Crystallographic Data Centre
#                                CCDC 
#
#######################################################################
#
# If this CIF has been generated from an entry in the Cambridge 
# Structural Database, then it will include bibliographic, chemical, 
# crystal, experimental, refinement or atomic coordinate data resulting 
# from the CCDC's data processing and validation procedures.
#
#######################################################################

data_KIBNOA
_symmetry_cell_setting           triclinic
_symmetry_space_group_name_H-M   'P -1'
_symmetry_Int_Tables_number      2
_space_group_name_Hall           '-P 1'
loop_
_symmetry_equiv_pos_site_id
_symmetry_equiv_pos_as_xyz
1 x,y,z
2 -x,-y,-z
_cell_length_a                   9.6054(15)
_cell_length_b                   12.444(2)
_cell_length_c                   12.793(2)
_cell_angle_alpha                73.592(2)
_cell_angle_beta                 83.880(2)
_cell_angle_gamma                71.873(2)
_cell_volume                     1393.77
loop_
_atom_site_label
_atom_site_type_symbol
_atom_site_fract_x
_atom_site_fract_y
_atom_site_fract_z
Ho1 Ho 0.70852(2) 1.026401(16) -0.030930(16)
Zn1 Zn 0.83703(6) 0.84889(5) -0.30723(4)
Cl1 Cl 0.76547(17) 0.75064(13) -0.39862(12)
O1 O 0.3132(4) 0.7285(3) 0.4643(3)
O2 O 0.3105(4) 0.9979(3) 0.3326(3)
O3 O 0.2540(3) 0.9162(3) 0.2158(3)
O4 O 0.5233(3) 0.9427(2) 0.1061(2)
O5 O 0.7467(3) 0.9160(3) 0.1543(2)
O6 O 0.7763(4) 0.5647(3) 0.0291(3)
O7 O 0.8974(3) 0.7510(3) -0.1591(2)
O8 O 0.7152(3) 0.8508(2) -0.0695(2)
O9 O 0.9524(3) 0.9185(2) -0.0379(2)
O10 O 1.1724(3) 0.8403(2) 0.0359(3)
O11 O 0.5529(3) 1.1778(3) 0.0316(3)
H1 H 0.5763 1.2207 0.0637
H2 H 0.4606 1.1899 0.0352
N1 N 0.0406(4) 0.8629(4) 0.6394(3)
N2 N 0.5754(4) 0.3532(3) 0.1118(4)
C1 C 0.4513(5) 0.7268(4) 0.4184(4)
C2 C 0.4642(5) 0.8143(4) 0.3267(3)
C3 C 0.6045(5) 0.8077(4) 0.2781(3)
C4 C 0.7247(5) 0.7154(4) 0.3230(4)
H3 H 0.8175 0.7137 0.2925
C5 C 0.7093(6) 0.6263(4) 0.4118(4)
H4 H 0.7900 0.5633 0.4395
C6 C 0.5713(6) 0.6324(4) 0.4593(4)
H5 H 0.5591 0.5726 0.5191
C7 C 0.3320(5) 0.9172(4) 0.2871(4)
C8 C 0.6257(5) 0.8947(4) 0.1746(3)
C9 C 0.1119(5) 0.8034(4) 0.5670(4)
H6 H 0.0624 0.7669 0.5360
C10 C 0.2557(5) 0.7954(4) 0.5377(4)
C11 C 0.3319(6) 0.8501(5) 0.5811(4)
H7 H 0.4290 0.8460 0.5615
C12 C 0.2564(6) 0.9108(5) 0.6548(5)
H8 H 0.3035 0.9483 0.6865
C13 C 0.1130(6) 0.9166(5) 0.6818(5)
H9 H 0.0643 0.9590 0.7310
C14 C 0.8750(5) 0.5905(4) 0.0830(4)
C15 C 0.9076(4) 0.6952(3) 0.0315(3)
C16 C 1.0113(4) 0.7241(4) 0.0768(4)
C17 C 1.0824(5) 0.6488(4) 0.1710(4)
H10 H 1.1522 0.6683 0.2010
C18 C 1.0494(5) 0.5447(4) 0.2203(4)
H11 H 1.0970 0.4947 0.2834
C19 C 0.9468(5) 0.5156(4) 0.1759(4)
H12 H 0.9255 0.4454 0.2085
C20 C 0.8353(5) 0.7712(4) -0.0734(4)
C21 C 1.0475(5) 0.8378(4) 0.0211(4)
C22 C 0.6708(5) 0.4108(4) 0.0634(4)
H13 H 0.7328 0.3851 0.0088
C23 C 0.6806(5) 0.5066(4) 0.0913(4)
C24 C 0.5894(6) 0.5463(4) 0.1715(4)
H14 H 0.5953 0.6107 0.1921
C25 C 0.4894(6) 0.4880(5) 0.2204(4)
H15 H 0.4249 0.5130 0.2742
C26 C 0.4863(5) 0.3918(5) 0.1881(4)
H16 H 0.4186 0.3525 0.2215
Ho1A Ho 0.29148(2) 0.973599(16) 0.030930(16)
Ho1A_2 Ho 1.29148(2) 0.973599(16) 0.030930(16)
Zn1_2 Zn -0.16297(6) 0.84889(5) 0.69277(4)
Zn1A Zn 0.16297(6) 1.15111(5) 0.30723(4)
O2A O 0.6895(4) 1.0021(3) -0.3326(3)
O3A O 0.7460(3) 1.0838(3) -0.2158(3)
O4A O 0.4767(3) 1.0573(2) -0.1061(2)
O10A O 0.8276(3) 1.1597(2) -0.0359(3)
N1_2 N 1.0406(4) 0.8629(4) -0.3606(3)
loop_
_geom_bond_atom_site_label_1
_geom_bond_atom_site_label_2
_geom_bond_site_symmetry_1
_geom_bond_site_symmetry_2
Ho1 O4 1_555 1_555
Zn1 Cl1 1_555 1_555
O1 C1 1_555 1_555
O2 C7 1_555 1_555
O3 C7 1_555 1_555
O4 C8 1_555 1_555
O5 Ho1 1_555 1_555
O6 C14 1_555 1_555
O7 Zn1 1_555 1_555
O8 Ho1 1_555 1_555
O9 Ho1 1_555 1_555
O10 C21 1_555 1_555
O11 Ho1 1_555 1_555
H1 O11 1_555 1_555
H2 O11 1_555 1_555
N1 C9 1_555 1_555
N2 C22 1_555 1_555
C1 C2 1_555 1_555
C2 C3 1_555 1_555
C3 C4 1_555 1_555
C4 H3 1_555 1_555
C5 C4 1_555 1_555
H4 C5 1_555 1_555
C6 C1 1_555 1_555
H5 C6 1_555 1_555
C7 C2 1_555 1_555
C8 O5 1_555 1_555
C9 H6 1_555 1_555
C10 O1 1_555 1_555
C11 C10 1_555 1_555
H7 C11 1_555 1_555
C12 C11 1_555 1_555
H8 C12 1_555 1_555
C13 N1 1_555 1_555
H9 C13 1_555 1_555
C14 C15 1_555 1_555
C15 C16 1_555 1_555
C16 C17 1_555 1_555
C17 H10 1_555 1_555
C18 C17 1_555 1_555
H11 C18 1_555 1_555
C19 C14 1_555 1_555
H12 C19 1_555 1_555
C20 O7 1_555 1_555
C21 O9 1_555 1_555
C22 H13 1_555 1_555
C23 O6 1_555 1_555
C24 C23 1_555 1_555
H14 C24 1_555 1_555
C25 C24 1_555 1_555
H15 C25 1_555 1_555
C26 N2 1_555 1_555
H16 C26 1_555 1_555
Ho1A O3 1_555 1_555
Ho1A_2 O10 1_555 1_555
Zn1_2 N1 1_555 1_555
Zn1A O2 1_555 1_555
O2A Zn1 1_555 1_555
O3A Ho1 1_555 1_555
O4A Ho1 1_555 1_555
O10A Ho1 1_555 1_555
N1_2 Zn1 1_555 1_555
O4 Ho1A 1_555 1_555
O8 C20 1_555 1_555
C3 C8 1_555 1_555
C5 C6 1_555 1_555
C9 C10 1_555 1_555
C12 C13 1_555 1_555
C15 C20 1_555 1_555
C16 C21 1_555 1_555
C18 C19 1_555 1_555
C22 C23 1_555 1_555
C25 C26 1_555 1_555
Ho1A O4A 1_555 1_555

#END
