
#######################################################################
#
#                 Cambridge Crystallographic Data Centre
#                                CCDC 
#
#######################################################################
#
# If this CIF has been generated from an entry in the Cambridge 
# Structural Database, then it will include bibliographic, chemical, 
# crystal, experimental, refinement or atomic coordinate data resulting 
# from the CCDC's data processing and validation procedures.
#
#######################################################################

data_KIBPIW
_symmetry_cell_setting           triclinic
_symmetry_space_group_name_H-M   'P -1'
_symmetry_Int_Tables_number      2
_space_group_name_Hall           '-P 1'
loop_
_symmetry_equiv_pos_site_id
_symmetry_equiv_pos_as_xyz
1 x,y,z
2 -x,-y,-z
_cell_length_a                   8.5005(9)
_cell_length_b                   12.8099(13)
_cell_length_c                   13.4136(14)
_cell_angle_alpha                107.6960(10)
_cell_angle_beta                 104.5210(10)
_cell_angle_gamma                92.6240(10)
_cell_volume                     1335.21
loop_
_atom_site_label
_atom_site_type_symbol
_atom_site_fract_x
_atom_site_fract_y
_atom_site_fract_z
Dy1 Dy 0.24622(3) 0.48949(2) 0.48931(2)
Zn1 Zn 0.32333(8) 0.21982(6) 0.65972(6)
Cl1 Cl 0.2289(2) 0.12805(15) 0.75345(14)
O1 O 0.7404(6) 0.4531(4) 0.0822(4)
O2 O 0.7783(5) 0.5427(3) 0.3416(3)
O3 O 0.5940(5) 0.6240(4) 0.2503(4)
O4 O 0.4688(5) 0.4814(3) 0.3894(3)
O5 O 0.2320(5) 0.3810(4) 0.2912(3)
O6 O 0.2659(6) 0.0605(4) 0.2880(4)
O7 O 0.1529(5) 0.1835(4) 0.5191(3)
O8 O 0.2998(5) 0.2985(3) 0.4720(3)
O9 O -0.0259(5) 0.3889(3) 0.4441(3)
O10 O -0.2832(5) 0.3123(4) 0.3833(4)
O11 O 0.1179(6) 0.5885(4) 0.3639(4)
H1 H 0.0164 0.5903 0.3585
H2 H 0.1521 0.5924 0.3106
N1 N 0.8611(8) 0.3925(5) -0.1684(5)
N2 N 0.4738(6) -0.1495(4) 0.3687(5)
C1 C 0.6173(8) 0.3863(6) 0.0925(5)
C2 C 0.5695(7) 0.4305(5) 0.1883(4)
C3 C 0.4420(7) 0.3683(5) 0.2034(5)
C4 C 0.3699(8) 0.2662(5) 0.1277(5)
H3 H 0.2872 0.2254 0.1395
C5 C 0.4211(8) 0.2249(6) 0.0345(5)
H4 H 0.3733 0.1563 -0.0160
C6 C 0.5442(9) 0.2864(6) 0.0165(5)
H5 H 0.5766 0.2598 -0.0469
C7 C 0.6531(7) 0.5409(5) 0.2662(5)
C8 C 0.3762(7) 0.4113(5) 0.2995(5)
C9 C 0.7883(8) 0.4334(6) -0.0890(6)
H6 H 0.7142 0.4834 -0.0971
C10 C 0.8192(8) 0.4041(6) 0.0026(5)
C11 C 0.9290(10) 0.3332(7) 0.0190(6)
H7 H 0.9532 0.3151 0.0827
C12 C 1.0038(10) 0.2887(7) -0.0618(7)
H8 H 1.0761 0.2372 -0.0552
C13 C 0.9686(9) 0.3226(7) -0.1526(6)
H9 H 1.0228 0.2951 -0.2055
C14 C 0.1095(8) 0.0922(5) 0.2614(5)
C15 C 0.0661(7) 0.1784(5) 0.3377(5)
C16 C -0.0869(7) 0.2122(5) 0.3075(5)
C17 C -0.1935(8) 0.1610(5) 0.2040(5)
H10 H -0.2966 0.1829 0.1855
C18 C -0.1457(9) 0.0770(6) 0.1283(6)
H11 H -0.2154 0.0439 0.0585
C19 C 0.0045(9) 0.0435(5) 0.1572(6)
H12 H 0.0369 -0.0124 0.1066
C20 C 0.1827(7) 0.2253(5) 0.4516(5)
C21 C -0.1375(7) 0.3092(5) 0.3831(5)
C22 C 0.2892(8) -0.0216(5) 0.3335(5)
C23 C 0.4300(8) -0.0693(5) 0.3257(6)
H13 H 0.4969 -0.0452 0.2897
C24 C 0.3759(9) -0.1822(6) 0.4223(6)
H14 H 0.4055 -0.2363 0.4540
C25 C 0.2352(9) -0.1380(6) 0.4310(7)
H15 H 0.1703 -0.1627 0.4679
C26 C 0.1878(8) -0.0573(6) 0.3861(6)
H16 H 0.0910 -0.0277 0.3909
Dy1A Dy -0.24622(3) 0.51051(2) 0.51069(2)
Dy1A_2 Dy 0.75378(3) 0.51051(2) 0.51069(2)
Zn1A Zn 0.67667(8) -0.21982(6) 0.34028(6)
Zn1A_2 Zn 0.67667(8) 0.78018(6) 0.34028(6)
O2A O 0.2217(5) 0.4573(3) 0.6584(3)
O3A O 0.4060(5) 0.3760(4) 0.7497(4)
O4A O 0.5312(5) 0.5186(3) 0.6106(3)
O9A O 0.0259(5) 0.6111(3) 0.5559(3)
O10A O 0.2832(5) 0.6877(4) 0.6167(4)
N2A N 0.5262(6) 0.1495(4) 0.6313(5)
loop_
_geom_bond_atom_site_label_1
_geom_bond_atom_site_label_2
_geom_bond_site_symmetry_1
_geom_bond_site_symmetry_2
Dy1 O4 1_555 1_555
Zn1 Cl1 1_555 1_555
O1 C1 1_555 1_555
O2 C7 1_555 1_555
O3 C7 1_555 1_555
O4 C8 1_555 1_555
O5 Dy1 1_555 1_555
O6 C14 1_555 1_555
O7 Zn1 1_555 1_555
O8 Dy1 1_555 1_555
O9 Dy1 1_555 1_555
O10 C21 1_555 1_555
O11 Dy1 1_555 1_555
H1 O11 1_555 1_555
H2 O11 1_555 1_555
N1 C9 1_555 1_555
N2 C23 1_555 1_555
C1 C2 1_555 1_555
C2 C3 1_555 1_555
C3 C4 1_555 1_555
C4 H3 1_555 1_555
C5 C4 1_555 1_555
H4 C5 1_555 1_555
C6 C1 1_555 1_555
H5 C6 1_555 1_555
C7 C2 1_555 1_555
C8 O5 1_555 1_555
C9 H6 1_555 1_555
C10 O1 1_555 1_555
C11 C10 1_555 1_555
H7 C11 1_555 1_555
C12 C11 1_555 1_555
H8 C12 1_555 1_555
C13 N1 1_555 1_555
H9 C13 1_555 1_555
C14 C15 1_555 1_555
C15 C16 1_555 1_555
C16 C17 1_555 1_555
C17 H10 1_555 1_555
C18 C17 1_555 1_555
H11 C18 1_555 1_555
C19 C14 1_555 1_555
H12 C19 1_555 1_555
C20 O7 1_555 1_555
C21 O9 1_555 1_555
C22 O6 1_555 1_555
C23 C22 1_555 1_555
H13 C23 1_555 1_555
C24 N2 1_555 1_555
H14 C24 1_555 1_555
C25 C24 1_555 1_555
H15 C25 1_555 1_555
C26 C22 1_555 1_555
H16 C26 1_555 1_555
Dy1A O9 1_555 1_555
Dy1A_2 O2 1_555 1_555
Zn1A N2 1_555 1_555
Zn1A_2 O3 1_555 1_555
O2A Dy1 1_555 1_555
O3A Zn1 1_555 1_555
O4A Dy1 1_555 1_555
O9A Dy1 1_555 1_555
O10A Dy1 1_555 1_555
N2A Zn1 1_555 1_555
O4 Dy1A_2 1_555 1_555
O8 C20 1_555 1_555
O10 Dy1A 1_555 1_555
C3 C8 1_555 1_555
C5 C6 1_555 1_555
C9 C10 1_555 1_555
C12 C13 1_555 1_555
C15 C20 1_555 1_555
C16 C21 1_555 1_555
C18 C19 1_555 1_555
C25 C26 1_555 1_555
Dy1A O9A 1_555 1_555
Dy1A_2 O4A 1_555 1_555

#END
