
#######################################################################
#
#                 Cambridge Crystallographic Data Centre
#                                CCDC 
#
#######################################################################
#
# If this CIF has been generated from an entry in the Cambridge 
# Structural Database, then it will include bibliographic, chemical, 
# crystal, experimental, refinement or atomic coordinate data resulting 
# from the CCDC's data processing and validation procedures.
#
#######################################################################

data_KIBPAO
_symmetry_cell_setting           triclinic
_symmetry_space_group_name_H-M   'P -1'
_symmetry_Int_Tables_number      2
_space_group_name_Hall           '-P 1'
loop_
_symmetry_equiv_pos_site_id
_symmetry_equiv_pos_as_xyz
1 x,y,z
2 -x,-y,-z
_cell_length_a                   8.3739(14)
_cell_length_b                   12.876(2)
_cell_length_c                   13.413(2)
_cell_angle_alpha                107.155(2)
_cell_angle_beta                 104.306(2)
_cell_angle_gamma                92.829(2)
_cell_volume                     1327.31
loop_
_atom_site_label
_atom_site_type_symbol
_atom_site_fract_x
_atom_site_fract_y
_atom_site_fract_z
Eu1 Eu 0.247014(17) 0.488500(12) 0.490733(11)
Zn1 Zn 0.32510(5) 0.22161(3) 0.66278(3)
Cl1 Cl 0.22989(12) 0.13020(8) 0.75746(8)
O1 O -0.2870(3) 0.31952(18) 0.38636(18)
O2 O -0.0251(2) 0.39283(16) 0.44545(17)
O3 O 0.3017(3) 0.30369(18) 0.47665(18)
O4 O 0.1550(3) 0.18568(19) 0.52224(18)
O5 O 0.2687(3) 0.0658(2) 0.2941(2)
O6 O 0.7725(3) 0.61816(19) 0.70244(18)
O7 O 0.5318(2) 0.51709(18) 0.60767(16)
O8 O 0.2209(2) 0.45751(17) 0.65621(16)
O9 O 0.4039(3) 0.37671(18) 0.75064(18)
O10 O 0.2607(3) 0.5466(2) 0.9180(2)
O11 O 0.1250(3) 0.5877(2) 0.36863(18)
H1 H 0.0221 0.5925 0.3606
H2 H 0.1556 0.5835 0.3118
N1 N 0.4710(4) -0.1514(2) 0.3668(2)
N2 N 0.1428(4) 0.6035(3) 1.1696(2)
C1 C -0.0901(4) 0.2168(3) 0.3109(3)
C2 C 0.0665(4) 0.1832(2) 0.3415(2)
C3 C 0.1096(4) 0.0972(3) 0.2667(3)
C4 C 0.0068(5) 0.0485(3) 0.1639(3)
H3 H 0.0404 -0.0072 0.1144
C5 C -0.1471(5) 0.0827(3) 0.1341(3)
H4 H -0.2171 0.0503 0.0645
C6 C -0.1959(4) 0.1656(3) 0.2089(3)
H5 H -0.3008 0.1868 0.1900
C7 C -0.1383(4) 0.3138(2) 0.3851(2)
C8 C 0.1836(4) 0.2299(3) 0.4548(3)
C9 C 0.4295(4) -0.0690(3) 0.3266(3)
H6 H 0.4979 -0.0444 0.2908
C10 C 0.2889(4) -0.0199(3) 0.3369(3)
C11 C 0.1859(4) -0.0545(3) 0.3903(3)
H7 H 0.0897 -0.0232 0.3969
C12 C 0.2307(5) -0.1373(3) 0.4334(3)
H8 H 0.1650 -0.1622 0.4705
C13 C 0.3744(5) -0.1831(3) 0.4213(3)
H9 H 0.4045 -0.2377 0.4521
C14 C 0.5598(4) 0.6299(3) 0.7923(2)
C15 C 0.4324(4) 0.5695(3) 0.8101(2)
C16 C 0.3849(4) 0.6120(3) 0.9051(3)
C17 C 0.4606(4) 0.7117(3) 0.9816(3)
H10 H 0.4295 0.7381 1.0455
C18 C 0.5841(4) 0.7714(3) 0.9606(3)
H11 H 0.6331 0.8395 1.0102
C19 C 0.6355(4) 0.7320(3) 0.8681(3)
H12 H 0.7196 0.7725 0.8559
C20 C 0.6259(4) 0.5876(3) 0.6968(2)
C21 C 0.3455(4) 0.4591(3) 0.7317(2)
C22 C 0.2143(4) 0.5640(3) 1.0903(3)
H13 H 0.2883 0.5134 1.0972
C23 C 0.1828(4) 0.5955(3) 0.9983(3)
C24 C 0.0736(5) 0.6683(3) 0.9840(3)
H14 H 0.0491 0.6883 0.9212
C25 C 0.0002(5) 0.7114(4) 1.0671(3)
H15 H -0.0722 0.7633 1.0623
C26 C 0.0364(5) 0.6762(3) 1.1563(3)
H16 H -0.0154 0.7043 1.2105
Eu1A Eu -0.247014(17) 0.511500(12) 0.509267(11)
Eu1A_2 Eu 0.752986(17) 0.511500(12) 0.509267(11)
Zn1A Zn 0.67490(5) -0.22161(3) 0.33722(3)
O1A O 0.2870(3) 0.68048(18) 0.61364(18)
O2A O 0.0251(2) 0.60717(16) 0.55455(17)
O6A O 0.2275(3) 0.38184(19) 0.29756(18)
O7A O 0.4682(2) 0.48291(18) 0.39233(16)
N1A N 0.5290(4) 0.1514(2) 0.6332(2)
loop_
_geom_bond_atom_site_label_1
_geom_bond_atom_site_label_2
_geom_bond_site_symmetry_1
_geom_bond_site_symmetry_2
Eu1 O2 1_555 1_555
Zn1 Cl1 1_555 1_555
O1 C7 1_555 1_555
O2 C7 1_555 1_555
O3 Eu1 1_555 1_555
O4 Zn1 1_555 1_555
O5 C3 1_555 1_555
O6 C20 1_555 1_555
O7 Eu1 1_555 1_555
O8 Eu1 1_555 1_555
O9 Zn1 1_555 1_555
O10 C16 1_555 1_555
O11 Eu1 1_555 1_555
H1 O11 1_555 1_555
H2 O11 1_555 1_555
N1 C9 1_555 1_555
N2 C22 1_555 1_555
C1 C2 1_555 1_555
C2 C3 1_555 1_555
C3 C4 1_555 1_555
C4 H3 1_555 1_555
C5 C4 1_555 1_555
H4 C5 1_555 1_555
C6 C1 1_555 1_555
H5 C6 1_555 1_555
C7 C1 1_555 1_555
C8 O3 1_555 1_555
C9 H6 1_555 1_555
C10 O5 1_555 1_555
C11 C10 1_555 1_555
H7 C11 1_555 1_555
C12 C11 1_555 1_555
H8 C12 1_555 1_555
C13 N1 1_555 1_555
H9 C13 1_555 1_555
C14 C15 1_555 1_555
C15 C16 1_555 1_555
C16 C17 1_555 1_555
C17 H10 1_555 1_555
C18 C17 1_555 1_555
H11 C18 1_555 1_555
C19 C14 1_555 1_555
H12 C19 1_555 1_555
C20 O7 1_555 1_555
C21 O8 1_555 1_555
C22 H13 1_555 1_555
C23 O10 1_555 1_555
C24 C23 1_555 1_555
H14 C24 1_555 1_555
C25 C24 1_555 1_555
H15 C25 1_555 1_555
C26 N2 1_555 1_555
H16 C26 1_555 1_555
Eu1A O1 1_555 1_555
Eu1A_2 O6 1_555 1_555
Zn1A N1 1_555 1_555
O1A Eu1 1_555 1_555
O2A Eu1 1_555 1_555
O6A Eu1 1_555 1_555
O7A Eu1 1_555 1_555
N1A Zn1 1_555 1_555
O2 Eu1A 1_555 1_555
O4 C8 1_555 1_555
O7 Eu1A_2 1_555 1_555
O9 C21 1_555 1_555
C2 C8 1_555 1_555
C5 C6 1_555 1_555
C9 C10 1_555 1_555
C12 C13 1_555 1_555
C14 C20 1_555 1_555
C15 C21 1_555 1_555
C18 C19 1_555 1_555
C22 C23 1_555 1_555
C25 C26 1_555 1_555
Eu1A O2A 1_555 1_555
Eu1A_2 O7A 1_555 1_555

#END
