
#######################################################################
#
#                 Cambridge Crystallographic Data Centre
#                                CCDC 
#
#######################################################################
#
# If this CIF has been generated from an entry in the Cambridge 
# Structural Database, then it will include bibliographic, chemical, 
# crystal, experimental, refinement or atomic coordinate data resulting 
# from the CCDC's data processing and validation procedures.
#
#######################################################################

data_KIBQUI
_symmetry_cell_setting           monoclinic
_symmetry_space_group_name_H-M   'C 2/c'
_symmetry_Int_Tables_number      15
_space_group_name_Hall           '-C 2yn'
loop_
_symmetry_equiv_pos_site_id
_symmetry_equiv_pos_as_xyz
1 x,y,z
2 1/2+x,1/2+y,z
3 -x,y,1/2-z
4 1/2-x,1/2+y,1/2-z
5 -x,-y,-z
6 1/2-x,1/2-y,-z
7 x,-y,1/2+z
8 1/2+x,1/2-y,1/2+z
_cell_length_a                   22.877(10)
_cell_length_b                   8.045(3)
_cell_length_c                   10.222(4)
_cell_angle_alpha                90.00
_cell_angle_beta                 90.00
_cell_angle_gamma                90.00
_cell_volume                     1881.31
loop_
_atom_site_label
_atom_site_type_symbol
_atom_site_fract_x
_atom_site_fract_y
_atom_site_fract_z
I1 I 0.0000 -0.01692(14) 0.7500
Cu1 Cu 0.0000 0.2968(2) 0.7500
N1 N 0.0479(6) 0.4060(13) 0.6210(11)
N2 N 0.0954(5) 0.5959(15) 0.5146(11)
N3 N 0.1009(6) 0.4558(16) 0.4410(14)
C1 C 0.0630(7) 0.5677(15) 0.6197(13)
H1 H 0.0525 0.6463 0.6821
C2 C 0.0721(8) 0.345(2) 0.5107(12)
H2 H 0.0687 0.2341 0.4859
C3 C 0.1228(7) 0.754(2) 0.4709(17)
H3 H 0.1068 0.8455 0.5213
H4 H 0.1134 0.7731 0.3796
C4 C 0.1884(7) 0.751(2) 0.4873(15)
C5 C 0.1995(6) 0.6697(16) 0.2518(13)
H5 H 0.1590 0.6660 0.2444
C6 C 0.2328(8) 0.647(3) 0.1436(16)
H6 H 0.2157 0.6304 0.0621
C7 C 0.2937(10) 0.648(3) 0.158(2)
H7 H 0.3170 0.6336 0.0840
C8 C 0.3187(7) 0.6689(19) 0.272(2)
H8 H 0.3592 0.6616 0.2776
C9 C 0.2245(7) 0.699(2) 0.3726(15)
C10 C 0.2131(6) 0.798(2) 0.6112(16)
Cu1G Cu 0.5000 1.2032(2) 0.2500
N1E N 0.4521(6) 1.0940(13) 0.3790(11)
N1B N -0.0479(6) 0.4060(13) 0.8790(11)
N2E N 0.4046(5) 0.9041(15) 0.4854(11)
N3E N 0.3991(6) 1.0442(16) 0.5590(14)
C1E C 0.4370(7) 0.9323(15) 0.3803(13)
H1E H 0.4475 0.8537 0.3179
C2E C 0.4279(8) 1.155(2) 0.4893(12)
H2E H 0.4313 1.2659 0.5141
C3E C 0.3772(7) 0.746(2) 0.5291(17)
H3E H 0.3932 0.6545 0.4787
H4E H 0.3866 0.7269 0.6204
C4E C 0.3116(7) 0.749(2) 0.5127(15)
C5E C 0.3005(6) 0.8303(16) 0.7482(13)
H5E H 0.3410 0.8340 0.7556
C6E C 0.2672(8) 0.853(3) 0.8564(16)
H6E H 0.2843 0.8696 0.9379
C7E C 0.2063(10) 0.852(3) 0.842(2)
H7E H 0.1830 0.8664 0.9160
C8E C 0.1813(7) 0.8311(19) 0.728(2)
H8E H 0.1408 0.8384 0.7224
C9E C 0.2755(7) 0.801(2) 0.6274(15)
C10E C 0.2869(6) 0.702(2) 0.3888(16)
loop_
_geom_bond_atom_site_label_1
_geom_bond_atom_site_label_2
_geom_bond_site_symmetry_1
_geom_bond_site_symmetry_2
I1 Cu1 1_555 1_555
Cu1 N1 1_555 1_555
N1 C1 1_555 1_555
N2 N3 1_555 1_555
N3 C2 1_555 1_555
C1 N2 1_555 1_555
H1 C1 1_555 1_555
C2 N1 1_555 1_555
H2 C2 1_555 1_555
C3 N2 1_555 1_555
H3 C3 1_555 1_555
H4 C3 1_555 1_555
C4 C3 1_555 1_555
C5 H5 1_555 1_555
C6 C5 1_555 1_555
H6 C6 1_555 1_555
C7 C6 1_555 1_555
H7 C7 1_555 1_555
C8 C7 1_555 1_555
H8 C8 1_555 1_555
C9 C4 1_555 1_555
C10 C4 1_555 1_555
Cu1G N1E 1_555 1_555
N1E C1E 1_555 1_555
N1B Cu1 1_555 1_555
N2E N3E 1_555 1_555
N3E C2E 1_555 1_555
C1E N2E 1_555 1_555
H1E C1E 1_555 1_555
C2E N1E 1_555 1_555
H2E C2E 1_555 1_555
C3E N2E 1_555 1_555
H3E C3E 1_555 1_555
H4E C3E 1_555 1_555
C4E C3E 1_555 1_555
C5E H5E 1_555 1_555
C6E C5E 1_555 1_555
H6E C6E 1_555 1_555
C7E C6E 1_555 1_555
H7E C7E 1_555 1_555
C8E C10 1_555 1_555
H8E C8E 1_555 1_555
C9E C10 1_555 1_555
C10E C8 1_555 1_555
C5 C9 1_555 1_555
C9 C10E 1_555 1_555
C4E C9E 1_555 1_555
C4E C10E 1_555 1_555
C5E C9E 1_555 1_555
C7E C8E 1_555 1_555

#END
