
#######################################################################
#
#                 Cambridge Crystallographic Data Centre
#                                CCDC 
#
#######################################################################
#
# If this CIF has been generated from an entry in the Cambridge 
# Structural Database, then it will include bibliographic, chemical, 
# crystal, experimental, refinement or atomic coordinate data resulting 
# from the CCDC's data processing and validation procedures.
#
#######################################################################

data_KIBQIW
_symmetry_cell_setting           triclinic
_symmetry_space_group_name_H-M   'P 1'
_symmetry_Int_Tables_number      1
_space_group_name_Hall           'P 1'
loop_
_symmetry_equiv_pos_site_id
_symmetry_equiv_pos_as_xyz
1 x,y,z
_cell_length_a                   11.2283(3)
_cell_length_b                   12.8350(3)
_cell_length_c                   13.7238(4)
_cell_angle_alpha                66.370(1)
_cell_angle_beta                 88.669(1)
_cell_angle_gamma                65.326(1)
_cell_volume                     1621.68
loop_
_atom_site_label
_atom_site_type_symbol
_atom_site_fract_x
_atom_site_fract_y
_atom_site_fract_z
La1 La 0.727400(8) 0.969193(8) 0.956764(7)
La2 La 0.274339(8) 1.028787(8) 1.043867(7)
O1 O 0.8980(2) 1.0607(2) 0.85415(19)
O2 O 0.6836(2) 1.1890(2) 0.81368(19)
O3 O 0.82887(16) 1.40174(16) 0.35223(13)
O4 O 0.82414(19) 1.57215(16) 0.15167(14)
O5 O 0.8952(3) 1.4022(3) 0.0382(2)
O6 O 0.7735(2) 0.9306(2) 0.79201(19)
O7 O 0.6833(2) 0.8127(2) 0.77375(19)
O8 O 0.72434(18) 1.10999(19) 0.28643(15)
O9 O 0.60675(19) 1.1357(2) 0.03093(18)
O10 O 0.8632(2) 0.9954(2) 0.08600(18)
O11 O 0.4995(2) 1.0701(2) 0.86645(18)
O12 O 0.2800(2) 1.1576(2) 0.85463(19)
O13 O 0.29692(18) 1.4112(2) 0.35897(16)
O14 O 0.22240(19) 1.46423(19) 0.15126(15)
O15 O 0.55256(19) 1.4495(2) 0.12049(18)
H1 H 0.5419 1.5100 0.1353
O16 O 0.3227(2) 0.8072(2) 1.20030(19)
O17 O 0.1108(2) 0.9385(2) 1.14283(18)
O18 O 0.08437(18) 0.61307(18) 1.62643(14)
O19 O 0.29886(17) 0.44605(16) 1.88903(14)
O20 O 0.1038(3) 0.6377(2) 1.9294(2)
O21 O 0.2200(2) 1.0822(2) 1.1995(2)
O22 O 0.2922(2) 1.2103(2) 1.22056(19)
O23 O 0.2236(2) 0.9088(2) 1.69968(17)
O24 O 0.1596(2) 0.9721(2) 1.91719(19)
O25 O 0.4149(2) 0.8558(2) 1.98777(19)
O26 O 0.5057(2) 0.9352(2) 1.12980(19)
O27 O 0.7244(2) 0.8272(2) 1.14778(18)
O28 O 0.66348(19) 0.6041(2) 1.63921(17)
O29 O 0.7034(2) 0.5763(2) 1.85060(16)
O30 O 0.52666(17) 0.41426(16) 1.81196(16)
H2 H 0.5579 0.3430 1.8106
O31 O 0.6677(2) 0.7861(2) 0.9689(2)
O32 O 0.9520(2) 0.7827(3) 1.0226(2)
O33 O 0.3428(2) 1.2079(2) 1.0321(2)
O34 O 0.0522(2) 1.2251(2) 0.9658(2)
C1 C 0.8005(3) 1.1567(3) 0.7885(3)
C2 C 0.8142(3) 1.2328(3) 0.6765(3)
C3 C 0.9363(3) 1.2009(3) 0.6434(3)
H3 H 1.0146 1.1389 0.6952
C4 C 0.9466(3) 1.2580(3) 0.5354(2)
H4 H 1.0312 1.2359 0.5135
C5 C 0.8320(3) 1.3473(3) 0.4607(2)
C6 C 0.7090(3) 1.3836(3) 0.4935(2)
H5 H 0.6311 1.4476 0.4420
C7 C 0.6994(3) 1.3273(3) 0.6003(3)
H6 H 0.6151 1.3525 0.6224
C8 C 0.9516(2) 1.3829(2) 0.3142(2)
H7 H 1.0116 1.2909 0.3418
H8 H 0.9958 1.4220 0.3400
C9 C 0.9229(2) 1.4439(2) 0.19215(19)
H9 H 1.0066 1.4434 0.1653
C10 C 0.8782(3) 1.3726(3) 0.1482(2)
H10 H 0.9304 1.2801 0.1926
H11 H 0.7833 1.3951 0.1531
C11 C 0.7325(3) 0.8911(3) 0.7355(3)
C12 C 0.7366(3) 0.9428(3) 0.6176(2)
C13 C 0.6693(3) 0.9214(3) 0.5501(3)
H12 H 0.6264 0.8686 0.5807
C14 C 0.6627(3) 0.9746(3) 0.4392(3)
H13 H 0.6156 0.9590 0.3943
C15 C 0.7261(3) 1.0512(3) 0.3947(2)
C16 C 0.7966(3) 1.0724(3) 0.4617(2)
H14 H 0.8411 1.1237 0.4314
C17 C 0.8012(3) 1.0186(3) 0.5715(3)
H15 H 0.8490 1.0333 0.6166
C18 C 0.6618(2) 1.0808(2) 0.21811(19)
H16 H 0.5672 1.1052 0.2256
H17 H 0.7071 0.9887 0.2372
C19 C 0.6733 1.1569 0.1036
H18 H 0.6294 1.2493 0.0868
C20 C 0.8142(2) 1.1199(2) 0.08107(19)
H19 H 0.8150 1.1807 0.0087
H20 H 0.8703 1.1199 0.1356
C21 C 0.3829(3) 1.1419(3) 0.8132(3)
C22 C 0.3638(3) 1.2126(3) 0.6923(2)
C23 C 0.4722(3) 1.1976(3) 0.6375(3)
H21 H 0.5598 1.1434 0.6777
C24 C 0.4549(3) 1.2594(3) 0.5270(3)
H22 H 0.5292 1.2460 0.4908
C25 C 0.3262(3) 1.3422(3) 0.4691(3)
C26 C 0.2175(3) 1.3587(3) 0.5222(3)
H23 H 0.1301 1.4153 0.4821
C27 C 0.2362(3) 1.2938(3) 0.6321(3)
H24 H 0.1613 1.3042 0.6676
C28 C 0.4013(3) 1.3856(3) 0.2969(2)
H25 H 0.4393 1.2962 0.3075
H26 H 0.4734 1.4015 0.3185
C29 C 0.3365(3) 1.4756(2) 0.18031(19)
H27 H 0.3068 1.5645 0.1713
C30 C 0.4299(3) 1.4536(2) 0.1002(2)
H28 H 0.4452 1.3724 0.0989
H29 H 0.3842 1.5221 0.0273
C31 C 0.2052(3) 0.8405(3) 1.2162(3)
C32 C 0.1755(3) 0.7745(3) 1.3232(3)
C33 C 0.2771(3) 0.6731(3) 1.4058(3)
H30 H 0.3653 0.6417 1.3917
C34 C 0.2527(3) 0.6160(3) 1.5097(2)
H31 H 0.3239 0.5476 1.5658
C35 C 0.1235(3) 0.6602(3) 1.5301(2)
C36 C 0.0206(3) 0.7592(3) 1.4483(3)
H32 H -0.0681 0.7880 1.4619
C37 C 0.0461(3) 0.8167(3) 1.3466(3)
H33 H -0.0254 0.8862 1.2914
C38 C 0.1773(3) 0.5092(2) 1.7198(2)
H34 H 0.2632 0.4688 1.6983
H35 H 0.1437 0.4450 1.7527
C39 C 0.1988(2) 0.5537(2) 1.80258(19)
H36 H 0.2300 0.6207 1.7689
C40 C 0.0763(3) 0.6035(3) 1.8482(2)
H37 H 0.0053 0.6789 1.7897
H38 H 0.0444 0.5378 1.8800
C41 C 0.2518(3) 1.1262(3) 1.2565(3)
C42 C 0.2432(3) 1.0725(3) 1.3733(3)
C43 C 0.1713(3) 1.0015(3) 1.4129(3)
H39 H 0.1253 0.9897 1.3640
C44 C 0.1666(3) 0.9486(3) 1.5214(3)
H40 H 0.1163 0.9021 1.5469
C45 C 0.2356(3) 0.9636(3) 1.5933(2)
C46 C 0.3089(3) 1.0320(3) 1.5565(3)
H41 H 0.3572 1.0413 1.6059
C47 C 0.3105(3) 1.0867(3) 1.4464(3)
H42 H 0.3590 1.1350 1.4209
C48 C 0.2818(3) 0.9321(3) 1.7750(2)
H43 H 0.2502 1.0246 1.7503
H44 H 0.3800 0.8915 1.7824
C49 C 0.2385(3) 0.8744(2) 1.8851(2)
H45 H 0.1865 0.8298 1.8785
C50 C 0.3585(3) 0.7829(2) 1.9709(2)
H46 H 0.3333 0.7364 2.0384
H47 H 0.4231 0.7206 1.9475
C51 C 0.6184(3) 0.8517(3) 1.1871(3)
C52 C 0.6275(3) 0.7845(3) 1.3054(3)
C53 C 0.5154(3) 0.8135(3) 1.3532(2)
H48 H 0.4313 0.8746 1.3089
C54 C 0.5232(3) 0.7552(3) 1.4645(3)
H49 H 0.4454 0.7764 1.4960
C55 C 0.6456(3) 0.6663(3) 1.5286(2)
C56 C 0.7600(3) 0.6346(3) 1.4833(3)
H50 H 0.8437 0.5728 1.5279
C57 C 0.7508(3) 0.6943(3) 1.3719(3)
H51 H 0.8289 0.6737 1.3407
C58 C 0.5508(3) 0.6471(3) 1.6887(2)
H52 H 0.4779 0.6350 1.6632
H53 H 0.5185 0.7387 1.6692
C59 C 0.5922(3) 0.5714(2) 1.80985(19)
H54 H 0.5157 0.6071 1.8445
C60 C 0.6318(2) 0.4317(2) 1.8484(2)
H55 H 0.7127 0.3928 1.8205
H56 H 0.6526 0.3890 1.9283
H57 H 0.853(4) 1.612(3) 0.173(3)
H58 H 0.818(4) 1.455(4) 0.001(4)
H59 H 0.530(2) 1.147(3) 0.045(3)
H60 H 0.938(4) 0.965(4) 0.098(3)
H61 H 0.247(3) 1.394(3) 0.173(2)
H62 H 0.377(2) 0.433(3) 1.864(3)
H63 H 0.139(4) 0.565(4) 1.991(4)
H64 H 0.088(4) 1.000(4) 1.906(3)
H65 H 0.501(3) 0.823(3) 1.989(2)
H66 H 0.696(3) 0.651(4) 1.824(3)
H67 H 0.718(3) 0.722(3) 1.012(3)
H68 H 0.687(6) 0.782(6) 0.907(3)
H69 H 0.980(3) 0.739(3) 1.085(3)
H70 H 0.978(5) 0.744(5) 0.981(4)
H71 H 0.323(3) 1.214(3) 1.093(3)
H72 H 0.309(4) 1.288(4) 0.983(3)
H73 H 0.034(5) 1.276(5) 0.886(4)
H74 H 0.009(3) 1.267(3) 0.994(3)
La1_2 La 0.727400(8) 0.969193(8) -0.043236(7)
La2_2 La 0.274339(8) 1.028787(8) 2.043867(7)
O9_2 O 0.60675(19) 1.1357(2) 1.03093(18)
O10_2 O 0.8632(2) 0.9954(2) 1.08600(18)
O24_2 O 0.1596(2) 0.9721(2) 0.91719(19)
O25_2 O 0.4149(2) 0.8558(2) 0.98777(19)
H59_2 H 0.530(2) 1.147(3) 1.045(3)
H60_2 H 0.938(4) 0.965(4) 1.098(3)
H64_2 H 0.088(4) 1.000(4) 0.906(3)
H65_2 H 0.501(3) 0.823(3) 0.989(2)
O35 O -0.0618(3) 1.3994(3) 0.7503(2)
H78 H -0.120(5) 1.469(4) 0.755(5)
H79 H -0.101(6) 1.382(7) 0.705(5)
O36 O 1.0350(2) 0.6259(2) 1.2410(2)
H77 H 1.058(3) 0.661(3) 1.282(3)
H80 H 1.095(4) 0.565(4) 1.224(5)
O37 O 0.54763(19) 1.58752(18) 0.22885(17)
H75 H 0.493(4) 1.670(2) 0.206(4)
H76 H 0.626(4) 1.594(4) 0.227(3)
loop_
_geom_bond_atom_site_label_1
_geom_bond_atom_site_label_2
_geom_bond_site_symmetry_1
_geom_bond_site_symmetry_2
La1 O1 1_555 1_555
La2 O12 1_555 1_555
O1 C1 1_555 1_555
O2 La1 1_555 1_555
O3 C5 1_555 1_555
O4 C9 1_555 1_555
O5 C10 1_555 1_555
O6 La1 1_555 1_555
O7 C11 1_555 1_555
O8 C15 1_555 1_555
O9 C19 1_555 1_555
O10 C20 1_555 1_555
O11 La1 1_555 1_555
O12 C21 1_555 1_555
O13 C25 1_555 1_555
O14 C29 1_555 1_555
O15 H1 1_555 1_555
O16 La2 1_555 1_555
O17 La2 1_555 1_555
O18 C35 1_555 1_555
O19 C39 1_555 1_555
O20 C40 1_555 1_555
O21 La2 1_555 1_555
O22 C41 1_555 1_555
O23 C45 1_555 1_555
O24 C49 1_555 1_555
O25 C50 1_555 1_555
O26 La2 1_555 1_555
O27 La1 1_555 1_555
O28 C55 1_555 1_555
O29 C59 1_555 1_555
O30 H2 1_555 1_555
O31 La1 1_555 1_555
O32 La1 1_555 1_555
O33 La2 1_555 1_555
O34 La2 1_555 1_555
O35 H78 1_555 1_555
O36 H77 1_555 1_555
O37 H75 1_555 1_555
C1 O2 1_555 1_555
C2 C1 1_555 1_555
C3 C2 1_555 1_555
H3 C3 1_555 1_555
C4 C3 1_555 1_555
H4 C4 1_555 1_555
C5 C4 1_555 1_555
C6 C5 1_555 1_555
H5 C6 1_555 1_555
C7 C2 1_555 1_555
H6 C7 1_555 1_555
C8 O3 1_555 1_555
H7 C8 1_555 1_555
H8 C8 1_555 1_555
C9 C8 1_555 1_555
H9 C9 1_555 1_555
C10 C9 1_555 1_555
H10 C10 1_555 1_555
H11 C10 1_555 1_555
C11 O6 1_555 1_555
C12 C11 1_555 1_555
C13 C12 1_555 1_555
H12 C13 1_555 1_555
C14 C13 1_555 1_555
H13 C14 1_555 1_555
C15 C14 1_555 1_555
C16 C15 1_555 1_555
H14 C16 1_555 1_555
C17 C12 1_555 1_555
H15 C17 1_555 1_555
C18 O8 1_555 1_555
H16 C18 1_555 1_555
H17 C18 1_555 1_555
C19 C18 1_555 1_555
H18 C19 1_555 1_555
C20 C19 1_555 1_555
H19 C20 1_555 1_555
H20 C20 1_555 1_555
C21 O11 1_555 1_555
C22 C21 1_555 1_555
C23 C22 1_555 1_555
H21 C23 1_555 1_555
C24 C23 1_555 1_555
H22 C24 1_555 1_555
C25 C24 1_555 1_555
C26 C25 1_555 1_555
H23 C26 1_555 1_555
C27 C22 1_555 1_555
H24 C27 1_555 1_555
C28 O13 1_555 1_555
H25 C28 1_555 1_555
H26 C28 1_555 1_555
C29 C28 1_555 1_555
H27 C29 1_555 1_555
C30 O15 1_555 1_555
H28 C30 1_555 1_555
H29 C30 1_555 1_555
C31 O16 1_555 1_555
C32 C31 1_555 1_555
C33 C32 1_555 1_555
H30 C33 1_555 1_555
C34 C33 1_555 1_555
H31 C34 1_555 1_555
C35 C34 1_555 1_555
C36 C35 1_555 1_555
H32 C36 1_555 1_555
C37 C32 1_555 1_555
H33 C37 1_555 1_555
C38 O18 1_555 1_555
H34 C38 1_555 1_555
H35 C38 1_555 1_555
C39 C38 1_555 1_555
H36 C39 1_555 1_555
C40 C39 1_555 1_555
H37 C40 1_555 1_555
H38 C40 1_555 1_555
C41 O21 1_555 1_555
C42 C41 1_555 1_555
C43 C42 1_555 1_555
H39 C43 1_555 1_555
C44 C43 1_555 1_555
H40 C44 1_555 1_555
C45 C44 1_555 1_555
C46 C45 1_555 1_555
H41 C46 1_555 1_555
C47 C42 1_555 1_555
H42 C47 1_555 1_555
C48 O23 1_555 1_555
H43 C48 1_555 1_555
H44 C48 1_555 1_555
C49 C48 1_555 1_555
H45 C49 1_555 1_555
C50 C49 1_555 1_555
H46 C50 1_555 1_555
H47 C50 1_555 1_555
C51 O26 1_555 1_555
C52 C51 1_555 1_555
C53 C52 1_555 1_555
H48 C53 1_555 1_555
C54 C53 1_555 1_555
H49 C54 1_555 1_555
C55 C54 1_555 1_555
C56 C55 1_555 1_555
H50 C56 1_555 1_555
C57 C52 1_555 1_555
H51 C57 1_555 1_555
C58 O28 1_555 1_555
H52 C58 1_555 1_555
H53 C58 1_555 1_555
C59 C58 1_555 1_555
H54 C59 1_555 1_555
C60 O30 1_555 1_555
H55 C60 1_555 1_555
H56 C60 1_555 1_555
H57 O4 1_555 1_555
H58 O5 1_555 1_555
H59 O9 1_555 1_555
H60 O10 1_555 1_555
H61 O14 1_555 1_555
H62 O19 1_555 1_555
H63 O20 1_555 1_555
H64 O24 1_555 1_555
H65 O25 1_555 1_555
H66 O29 1_555 1_555
H67 O31 1_555 1_555
H68 O31 1_555 1_555
H69 O32 1_555 1_555
H70 O32 1_555 1_555
H71 O33 1_555 1_555
H72 O33 1_555 1_555
H73 O34 1_555 1_555
H74 O34 1_555 1_555
H76 O37 1_555 1_555
H79 O35 1_555 1_555
H80 O36 1_555 1_555
La1_2 O9 1_555 1_555
La2_2 O24 1_555 1_555
O9_2 La1 1_555 1_555
O10_2 La1 1_555 1_555
O24_2 La2 1_555 1_555
O25_2 La2 1_555 1_555
H59_2 O9_2 1_555 1_555
H60_2 O10_2 1_555 1_555
H64_2 O24_2 1_555 1_555
H65_2 O25_2 1_555 1_555
O10 La1_2 1_555 1_555
O17 C31 1_555 1_555
O25 La2_2 1_555 1_555
O27 C51 1_555 1_555
C6 C7 1_555 1_555
C16 C17 1_555 1_555
C26 C27 1_555 1_555
C29 C30 1_555 1_555
C36 C37 1_555 1_555
C46 C47 1_555 1_555
C56 C57 1_555 1_555
C59 C60 1_555 1_555

#END
