
#######################################################################
#
#                 Cambridge Crystallographic Data Centre
#                                CCDC 
#
#######################################################################
#
# If this CIF has been generated from an entry in the Cambridge 
# Structural Database, then it will include bibliographic, chemical, 
# crystal, experimental, refinement or atomic coordinate data resulting 
# from the CCDC's data processing and validation procedures.
#
#######################################################################

data_KIBRIX
_symmetry_cell_setting           monoclinic
_symmetry_space_group_name_H-M   'P 21/c'
_symmetry_Int_Tables_number      14
_space_group_name_Hall           '-P 2ybc'
loop_
_symmetry_equiv_pos_site_id
_symmetry_equiv_pos_as_xyz
1 x,y,z
2 -x,1/2+y,1/2-z
3 -x,-y,-z
4 x,1/2-y,1/2+z
_cell_length_a                   13.678(2)
_cell_length_b                   34.456(5)
_cell_length_c                   10.2430(15)
_cell_angle_alpha                90
_cell_angle_beta                 110.382(2)
_cell_angle_gamma                90
_cell_volume                     4525.18
loop_
_atom_site_label
_atom_site_type_symbol
_atom_site_fract_x
_atom_site_fract_y
_atom_site_fract_z
Zn1 Zn -0.03236(4) 0.126983(18) 0.04142(6)
N1 N 0.0477(3) 0.16466(13) -0.0517(4)
N2 N 0.1216(3) 0.21646(13) -0.1141(5)
N3 N 0.1463(3) 0.18250(13) -0.1657(4)
N4 N 0.7194(3) 0.20283(13) 0.0240(4)
N5 N 0.7123(3) 0.20771(13) -0.1102(4)
N6 N 0.8462(3) 0.16793(12) 0.0024(4)
N7 N 0.0965(3) 0.08774(12) 0.1127(4)
N8 N 0.2114(3) 0.04078(13) 0.1178(4)
N9 N 0.2289(3) 0.05491(12) 0.2476(4)
N10 N 0.8046(3) 0.08028(12) 0.6408(4)
N11 N 0.8028(3) 0.04758(13) 0.7125(5)
N12 N 0.8994(3) 0.09416(12) 0.8555(4)
C1 C 0.1015(4) 0.15292(15) -0.1290(5)
H1 H 0.1068 0.1273 -0.1541
C2 C 0.0619(4) 0.20322(17) -0.0476(6)
H2 H 0.0314 0.2196 -0.0006
C3 C 0.2123(4) 0.18286(16) -0.2519(5)
H3 H 0.1849 0.2016 -0.3263
H4 H 0.2099 0.1575 -0.2941
C4 C 0.3243(3) 0.19291(15) -0.1690(5)
C5 C 0.3628(4) 0.23017(15) -0.1797(5)
C6 C 0.3001(4) 0.25973(18) -0.2661(6)
H5 H 0.2306 0.2544 -0.3173
C7 C 0.3387(5) 0.2952(2) -0.2757(7)
H6 H 0.2953 0.3140 -0.3321
C8 C 0.4435(5) 0.3041(2) -0.2016(7)
H7 H 0.4690 0.3287 -0.2089
C9 C 0.5071(4) 0.27746(18) -0.1207(6)
H8 H 0.5769 0.2837 -0.0753
C10 C 0.4712(4) 0.23980(15) -0.1018(5)
C11 C 0.5333(4) 0.21180(17) -0.0099(5)
C12 C 0.4939(4) 0.17477(16) 0.0013(5)
C13 C 0.5561(5) 0.1459(2) 0.0933(6)
H9 H 0.6243 0.1518 0.1485
C14 C 0.5178(5) 0.1100(2) 0.1021(6)
H10 H 0.5594 0.0918 0.1639
C15 C 0.4160(5) 0.10024(18) 0.0183(7)
H11 H 0.3907 0.0755 0.0235
C16 C 0.3538(4) 0.12663(17) -0.0704(6)
H12 H 0.2866 0.1194 -0.1256
C17 C 0.3885(4) 0.16499(16) -0.0815(5)
C18 C 0.6454(4) 0.22139(18) 0.0791(5)
H13 H 0.6552 0.2493 0.0813
H14 H 0.6588 0.2126 0.1737
C19 C 0.7900(4) 0.18674(16) -0.1167(5)
H15 H 0.8059 0.1848 -0.1976
C20 C 0.7984(4) 0.17948(17) 0.0891(5)
H16 H 0.8178 0.1722 0.1820
C21 C 0.1310(4) 0.06155(16) 0.0425(5)
H17 H 0.1001 0.0583 -0.0533
C22 C 0.1617(4) 0.08257(15) 0.2436(5)
H18 H 0.1599 0.0965 0.3204
C23 C 0.3101(3) 0.03763(15) 0.3698(5)
H19 H 0.3068 0.0096 0.3599
H20 H 0.2943 0.0440 0.4526
C24 C 0.4206(3) 0.05071(14) 0.3915(4)
C25 C 0.4599(3) 0.08455(14) 0.4718(4)
C26 C 0.3974(4) 0.10808(17) 0.5246(5)
H21 H 0.3284 0.1011 0.5070
C27 C 0.4352(4) 0.14055(18) 0.6001(6)
H22 H 0.3926 0.1554 0.6342
C28 C 0.5390(5) 0.15162(18) 0.6262(6)
H23 H 0.5649 0.1739 0.6777
C29 C 0.6024(4) 0.13001(16) 0.5770(5)
H24 H 0.6704 0.1382 0.5937
C30 C 0.5664(4) 0.09536(14) 0.5008(4)
C31 C 0.6322(3) 0.07110(14) 0.4554(4)
C32 C 0.5929(3) 0.03799(14) 0.3759(4)
C33 C 0.6557(4) 0.01266(15) 0.3271(5)
H25 H 0.7268 0.0177 0.3527
C34 C 0.6153(5) -0.01811(19) 0.2454(6)
H26 H 0.6577 -0.0334 0.2125
C35 C 0.5092(5) -0.02721(18) 0.2097(6)
H27 H 0.4820 -0.0488 0.1547
C36 C 0.4460(4) -0.00480(16) 0.2546(5)
H28 H 0.3757 -0.0112 0.2284
C37 C 0.4838(3) 0.02816(14) 0.3405(4)
C38 C 0.7454(4) 0.08288(17) 0.4911(5)
H29 H 0.7776 0.0662 0.4413
H30 H 0.7483 0.1093 0.4603
C39 C 0.8625(3) 0.10693(15) 0.7260(5)
H31 H 0.8755 0.1315 0.6982
C40 C 0.8610(4) 0.05766(16) 0.8412(5)
H32 H 0.8744 0.0408 0.9162
C41 C 0.0849(9) 0.1858(3) 0.3170(11)
H33 H 0.0972 0.1872 0.4150
H34 H 0.0457 0.2081 0.2713
H35 H 0.1504 0.1852 0.3021
C42 C -0.2250(6) 0.0807(3) 0.1044(10)
H36 H -0.2355 0.0616 0.1666
H37 H -0.2546 0.0715 0.0103
H38 H -0.2584 0.1045 0.1137
O6 O 0.0249(3) 0.14992(12) 0.2588(4)
H39 H 0.0086 0.1346 0.3233
O7 O -0.1163(3) 0.08722(13) 0.1378(4)
H40 H -0.0734 0.0725 0.2118
Zn1_2 Zn 0.96764(4) 0.126983(18) 0.04142(6)
Zn1_3 Zn 0.96764(4) 0.126983(18) 1.04142(6)
N6_2 N -0.1538(3) 0.16793(12) 0.0024(4)
N12_2 N -0.1006(3) 0.09416(12) -0.1445(4)
Cl1 Cl 0.87066(12) 0.19561(5) 0.49563(15)
O9 O 0.8825(6) 0.22517(17) 0.4140(7)
O10 O 0.9546(7) 0.1718(4) 0.5592(19)
O11 O 0.939(3) 0.2190(8) 0.603(2)
O12 O 0.7793(10) 0.1787(4) 0.4022(11)
Cl2 Cl 0.08778(11) 0.06911(5) 0.57510(15)
O1 O -0.0135(4) 0.0784(2) 0.4912(8)
O2 O 0.1161(4) 0.03488(14) 0.5234(5)
O3 O 0.1534(5) 0.09936(19) 0.5638(6)
O4 O 0.1268(14) 0.0639(7) 0.7240(8)
O8 O -0.0317(6) 0.01703(17) 0.2381(6)
H41 H -0.053(8) -0.0064(10) 0.234(10)
H42 H -0.058(8) 0.026(2) 0.296(9)
O5? O 0.0647(14) 0.0684(8) 0.6969(17)
O13? O 0.887(2) 0.1591(3) 0.435(2)
O14? O 0.845(2) 0.2047(5) 0.6115(17)
O15? O 0.7821(13) 0.1926(4) 0.536(3)
loop_
_geom_bond_atom_site_label_1
_geom_bond_atom_site_label_2
_geom_bond_site_symmetry_1
_geom_bond_site_symmetry_2
Zn1 N1 1_555 1_555
N1 C1 1_555 1_555
N2 N3 1_555 1_555
N3 C1 1_555 1_555
N4 N5 1_555 1_555
N5 C19 1_555 1_555
N6 C19 1_555 1_555
N7 Zn1 1_555 1_555
N8 N9 1_555 1_555
N9 C22 1_555 1_555
N10 N11 1_555 1_555
N11 C40 1_555 1_555
N12 C39 1_555 1_555
C1 H1 1_555 1_555
C2 N1 1_555 1_555
H2 C2 1_555 1_555
C3 N3 1_555 1_555
H3 C3 1_555 1_555
H4 C3 1_555 1_555
C4 C3 1_555 1_555
C5 C4 1_555 1_555
C6 C5 1_555 1_555
H5 C6 1_555 1_555
C7 C6 1_555 1_555
H6 C7 1_555 1_555
C8 C7 1_555 1_555
H7 C8 1_555 1_555
C9 C8 1_555 1_555
H8 C9 1_555 1_555
C10 C5 1_555 1_555
C11 C10 1_555 1_555
C12 C11 1_555 1_555
C13 C12 1_555 1_555
H9 C13 1_555 1_555
C14 C13 1_555 1_555
H10 C14 1_555 1_555
C15 C14 1_555 1_555
H11 C15 1_555 1_555
C16 C15 1_555 1_555
H12 C16 1_555 1_555
C17 C4 1_555 1_555
C18 N4 1_555 1_555
H13 C18 1_555 1_555
H14 C18 1_555 1_555
C19 H15 1_555 1_555
C20 N4 1_555 1_555
H16 C20 1_555 1_555
C21 N7 1_555 1_555
H17 C21 1_555 1_555
C22 N7 1_555 1_555
H18 C22 1_555 1_555
C23 N9 1_555 1_555
H19 C23 1_555 1_555
H20 C23 1_555 1_555
C24 C23 1_555 1_555
C25 C24 1_555 1_555
C26 C25 1_555 1_555
H21 C26 1_555 1_555
C27 C26 1_555 1_555
H22 C27 1_555 1_555
C28 C27 1_555 1_555
H23 C28 1_555 1_555
C29 C28 1_555 1_555
H24 C29 1_555 1_555
C30 C25 1_555 1_555
C31 C30 1_555 1_555
C32 C31 1_555 1_555
C33 C32 1_555 1_555
H25 C33 1_555 1_555
C34 C33 1_555 1_555
H26 C34 1_555 1_555
C35 C34 1_555 1_555
H27 C35 1_555 1_555
C36 C35 1_555 1_555
H28 C36 1_555 1_555
C37 C24 1_555 1_555
C38 N10 1_555 1_555
H29 C38 1_555 1_555
H30 C38 1_555 1_555
C39 N10 1_555 1_555
H31 C39 1_555 1_555
C40 N12 1_555 1_555
H32 C40 1_555 1_555
C41 H33 1_555 1_555
H34 C41 1_555 1_555
H35 C41 1_555 1_555
C42 H36 1_555 1_555
H37 C42 1_555 1_555
H38 C42 1_555 1_555
Cl1 O9 1_555 1_555
Cl2 O1 1_555 1_555
O2 Cl2 1_555 1_555
O3 Cl2 1_555 1_555
O4 Cl2 1_555 1_555
O6 Zn1 1_555 1_555
H39 O6 1_555 1_555
O7 Zn1 1_555 1_555
H40 O7 1_555 1_555
O8 H41 1_555 1_555
H42 O8 1_555 1_555
O10 Cl1 1_555 1_555
O11 Cl1 1_555 1_555
O12 Cl1 1_555 1_555
Zn1_2 N6 1_555 1_555
Zn1_3 N12 1_555 1_555
N6_2 Zn1 1_555 1_555
N12_2 Zn1 1_555 1_555
N2 C2 1_555 1_555
N6 C20 1_555 1_555
N8 C21 1_555 1_555
C9 C10 1_555 1_555
C11 C18 1_555 1_555
C12 C17 1_555 1_555
C16 C17 1_555 1_555
C29 C30 1_555 1_555
C31 C38 1_555 1_555
C32 C37 1_555 1_555
C36 C37 1_555 1_555
C41 O6 1_555 1_555
C42 O7 1_555 1_555

#END
