
#######################################################################
#
#                 Cambridge Crystallographic Data Centre
#                                CCDC 
#
#######################################################################
#
# If this CIF has been generated from an entry in the Cambridge 
# Structural Database, then it will include bibliographic, chemical, 
# crystal, experimental, refinement or atomic coordinate data resulting 
# from the CCDC's data processing and validation procedures.
#
#######################################################################

data_KIBRAP
_symmetry_cell_setting           orthorhombic
_symmetry_space_group_name_H-M   'P c c n'
_symmetry_Int_Tables_number      56
_space_group_name_Hall           '-P 2ab 2ac'
loop_
_symmetry_equiv_pos_site_id
_symmetry_equiv_pos_as_xyz
1 x,y,z
2 1/2-x,1/2-y,z
3 -x,1/2+y,1/2-z
4 1/2+x,-y,1/2-z
5 -x,-y,-z
6 1/2+x,1/2+y,-z
7 x,1/2-y,1/2+z
8 1/2-x,y,1/2+z
_cell_length_a                   23.858(5)
_cell_length_b                   5.2642(10)
_cell_length_c                   15.317(3)
_cell_angle_alpha                90
_cell_angle_beta                 90
_cell_angle_gamma                90
_cell_volume                     1923.71
loop_
_atom_site_label
_atom_site_type_symbol
_atom_site_fract_x
_atom_site_fract_y
_atom_site_fract_z
Ag1 Ag 0.7500 0.2500 1.15515(3)
N1 N 0.69570(15) -0.0730(7) 1.1382(2)
N2 N 0.63882(17) -0.4005(8) 1.1661(2)
N3 N 0.64793(15) -0.3761(7) 1.0787(2)
C1 C 0.68172(19) -0.1827(8) 1.0636(3)
H1 H 0.6939 -0.1312 1.0087
C2 C 0.6688(2) -0.2135(9) 1.1989(3)
H2 H 0.6713 -0.1812 1.2584
C3 C 0.62140(18) -0.5515(8) 1.0164(3)
H3 H 0.6300 -0.7245 1.0337
H4 H 0.6376 -0.5241 0.9591
C4 C 0.55888(17) -0.5231(7) 1.0098(3)
C5 C 0.53684(18) -0.3411(8) 0.9516(3)
C6 C 0.5715(2) -0.1744(8) 0.9020(3)
H5 H 0.6102 -0.1861 0.9075
C7 C 0.5494(2) 0.0008(8) 0.8468(3)
H6 H 0.5732 0.1099 0.8165
C8 C 0.4912(2) 0.0195(9) 0.8350(3)
H7 H 0.4764 0.1376 0.7961
C9 C 0.4565(2) -0.1363(9) 0.8807(3)
H8 H 0.4180 -0.1223 0.8724
C10 C 0.52295(18) -0.6797(7) 1.0591(3)
Ag1E Ag 0.2500 -1.2500 0.84485(3)
N1D N 0.30430(15) -0.9270(7) 0.8618(2)
N1A N 0.80430(15) 0.5730(7) 1.1382(2)
N2D N 0.36118(17) -0.5995(8) 0.8339(2)
N3D N 0.35207(15) -0.6239(7) 0.9213(2)
C1D C 0.31828(19) -0.8173(8) 0.9364(3)
H1D H 0.3061 -0.8688 0.9913
C2D C 0.3312(2) -0.7865(9) 0.8011(3)
H2D H 0.3287 -0.8188 0.7416
C3D C 0.37860(18) -0.4485(8) 0.9836(3)
H3D H 0.3700 -0.2755 0.9663
H4D H 0.3624 -0.4759 1.0409
C4D C 0.44112(17) -0.4769(7) 0.9902(3)
C5D C 0.46316(18) -0.6589(8) 1.0484(3)
C6D C 0.4285(2) -0.8256(8) 1.0980(3)
H5D H 0.3898 -0.8139 1.0925
C7D C 0.4506(2) -1.0008(8) 1.1532(3)
H6D H 0.4268 -1.1099 1.1835
C8D C 0.5088(2) -1.0195(9) 1.1650(3)
H7D H 0.5236 -1.1376 1.2039
C9D C 0.5435(2) -0.8637(9) 1.1193(3)
H8D H 0.5820 -0.8777 1.1276
C10D C 0.47705(18) -0.3203(7) 0.9409(3)
B1 B 0.7500 0.2500 0.8805(6)
F2 F 0.7569(5) -0.038(2) 0.8818(8)
F3 F 0.7038(2) 0.2360(12) 0.8375(3)
F2A F 0.7431(5) 0.538(2) 0.8818(8)
F3A F 0.7962(2) 0.2640(12) 0.8375(3)
F1? F 0.7500 0.2500 0.9651(3)
loop_
_geom_bond_atom_site_label_1
_geom_bond_atom_site_label_2
_geom_bond_site_symmetry_1
_geom_bond_site_symmetry_2
Ag1 N1 1_555 1_555
N1 C1 1_555 1_555
N2 N3 1_555 1_555
N3 C1 1_555 1_555
C1 H1 1_555 1_555
C2 N1 1_555 1_555
H2 C2 1_555 1_555
C3 N3 1_555 1_555
H3 C3 1_555 1_555
H4 C3 1_555 1_555
C4 C3 1_555 1_555
C5 C4 1_555 1_555
C6 C5 1_555 1_555
H5 C6 1_555 1_555
C7 C6 1_555 1_555
H6 C7 1_555 1_555
C8 C7 1_555 1_555
H7 C8 1_555 1_555
C9 C8 1_555 1_555
H8 C9 1_555 1_555
C10 C4 1_555 1_555
B1 F2 1_555 1_555
F3 B1 1_555 1_555
Ag1E N1D 1_555 1_555
N1D C1D 1_555 1_555
N1A Ag1 1_555 1_555
N2D N3D 1_555 1_555
N3D C1D 1_555 1_555
C1D H1D 1_555 1_555
C2D N1D 1_555 1_555
H2D C2D 1_555 1_555
C3D N3D 1_555 1_555
H3D C3D 1_555 1_555
H4D C3D 1_555 1_555
C4D C3D 1_555 1_555
C5D C10 1_555 1_555
C6D C5D 1_555 1_555
H5D C6D 1_555 1_555
C7D C6D 1_555 1_555
H6D C7D 1_555 1_555
C8D C7D 1_555 1_555
H7D C8D 1_555 1_555
C9D C10 1_555 1_555
H8D C9D 1_555 1_555
C10D C5 1_555 1_555
F2A B1 1_555 1_555
F3A B1 1_555 1_555
N2 C2 1_555 1_555
C9 C10D 1_555 1_555
N2D C2D 1_555 1_555
C4D C5D 1_555 1_555
C4D C10D 1_555 1_555
C8D C9D 1_555 1_555

#END
