
#######################################################################
#
#                 Cambridge Crystallographic Data Centre
#                                CCDC 
#
#######################################################################
#
# If this CIF has been generated from an entry in the Cambridge 
# Structural Database, then it will include bibliographic, chemical, 
# crystal, experimental, refinement or atomic coordinate data resulting 
# from the CCDC's data processing and validation procedures.
#
#######################################################################

data_KIBRET
_symmetry_cell_setting           monoclinic
_symmetry_space_group_name_H-M   'C 2/c'
_symmetry_Int_Tables_number      15
_space_group_name_Hall           '-C 2yn'
loop_
_symmetry_equiv_pos_site_id
_symmetry_equiv_pos_as_xyz
1 x,y,z
2 1/2+x,1/2+y,z
3 -x,y,1/2-z
4 1/2-x,1/2+y,1/2-z
5 -x,-y,-z
6 1/2-x,1/2-y,-z
7 x,-y,1/2+z
8 1/2+x,1/2-y,1/2+z
_cell_length_a                   25.142(5)
_cell_length_b                   5.1544(10)
_cell_length_c                   15.608(3)
_cell_angle_alpha                90
_cell_angle_beta                 97.98(3)
_cell_angle_gamma                90
_cell_volume                     2003.08
loop_
_atom_site_label
_atom_site_type_symbol
_atom_site_fract_x
_atom_site_fract_y
_atom_site_fract_z
Zn1 Zn 0.0000 0.32262(6) 0.7500
N1 N -0.06144(6) 0.1046(3) 0.69797(10)
N2 N -0.11038(6) -0.1706(3) 0.61664(9)
N3 N -0.12902(6) -0.1809(3) 0.69472(10)
N4 N -0.03633(6) 0.5158(3) 0.89563(10)
C1 C -0.09831(7) -0.0131(4) 0.74130(12)
H1 H -0.1014 0.0225 0.7988
C2 C -0.07024(7) -0.0021(3) 0.61920(11)
H2 H -0.0513 0.0356 0.5736
C3 C -0.13450(7) -0.3366(3) 0.54497(11)
H3 H -0.1283 -0.5172 0.5608
H4 H -0.1172 -0.3025 0.4943
C4 C -0.19422(7) -0.2902(3) 0.52284(11)
C5 C -0.23085(7) -0.4448(3) 0.56115(11)
C6 C -0.21397(8) -0.6420(4) 0.62386(11)
H5 H -0.1774 -0.6666 0.6414
C7 C -0.24964(8) -0.7941(4) 0.65854(12)
H6 H -0.2374 -0.9214 0.6987
C8 C -0.30545(8) -0.7586(4) 0.63336(12)
H7 H -0.3298 -0.8641 0.6566
C9 C -0.32361(7) -0.5707(4) 0.57519(11)
H8 H -0.3604 -0.5492 0.5598
C10 C -0.21256(7) -0.0952(3) 0.46297(11)
O1 O -0.01375(6) 0.6052(3) 0.83220(9)
O2 O -0.04415(6) 0.2779(3) 0.89887(9)
O3 O -0.04912(6) 0.6691(3) 0.94970(10)
Zn1G Zn -0.5000 -0.82262(6) 0.2500
N1E N -0.43856(6) -0.6046(3) 0.30203(10)
N1B N 0.06144(6) 0.1046(3) 0.80203(10)
N2E N -0.38962(6) -0.3294(3) 0.38336(9)
N3E N -0.37098(6) -0.3191(3) 0.30528(10)
N4B N 0.03633(6) 0.5158(3) 0.60437(10)
C1E C -0.40169(7) -0.4869(4) 0.25870(12)
H1E H -0.3986 -0.5225 0.2012
C2E C -0.42976(7) -0.4979(3) 0.38080(11)
H2E H -0.4487 -0.5356 0.4264
C3E C -0.36550(7) -0.1634(3) 0.45503(11)
H3E H -0.3717 0.0172 0.4392
H4E H -0.3828 -0.1975 0.5057
C4E C -0.30578(7) -0.2098(3) 0.47716(11)
C5E C -0.26915(7) -0.0552(3) 0.43885(11)
C6E C -0.28603(8) 0.1420(4) 0.37614(11)
H5E H -0.3226 0.1666 0.3586
C7E C -0.25036(8) 0.2941(4) 0.34146(12)
H6E H -0.2626 0.4214 0.3013
C8E C -0.19455(8) 0.2586(4) 0.36664(12)
H7E H -0.1702 0.3641 0.3434
C9E C -0.17639(7) 0.0707(4) 0.42481(11)
H8E H -0.1396 0.0492 0.4402
C10E C -0.28744(7) -0.4048(3) 0.53703(11)
O1B O 0.01375(6) 0.6052(3) 0.66780(9)
O2B O 0.04415(6) 0.2779(3) 0.60113(9)
O3B O 0.04912(6) 0.6691(3) 0.55030(10)
loop_
_geom_bond_atom_site_label_1
_geom_bond_atom_site_label_2
_geom_bond_site_symmetry_1
_geom_bond_site_symmetry_2
Zn1 N1 1_555 1_555
N1 C1 1_555 1_555
N2 N3 1_555 1_555
N3 C1 1_555 1_555
N4 O1 1_555 1_555
C1 H1 1_555 1_555
C2 N1 1_555 1_555
H2 C2 1_555 1_555
C3 N2 1_555 1_555
H3 C3 1_555 1_555
H4 C3 1_555 1_555
C4 C3 1_555 1_555
C5 C4 1_555 1_555
C6 C5 1_555 1_555
H5 C6 1_555 1_555
C7 C6 1_555 1_555
H6 C7 1_555 1_555
C8 C7 1_555 1_555
H7 C8 1_555 1_555
C9 C8 1_555 1_555
H8 C9 1_555 1_555
C10 C4 1_555 1_555
O1 Zn1 1_555 1_555
O2 N4 1_555 1_555
O3 N4 1_555 1_555
Zn1G N1E 1_555 1_555
N1E C1E 1_555 1_555
N1B Zn1 1_555 1_555
N2E N3E 1_555 1_555
N3E C1E 1_555 1_555
N4B O1B 1_555 1_555
C1E H1E 1_555 1_555
C2E N1E 1_555 1_555
H2E C2E 1_555 1_555
C3E N2E 1_555 1_555
H3E C3E 1_555 1_555
H4E C3E 1_555 1_555
C4E C3E 1_555 1_555
C5E C10 1_555 1_555
C6E C5E 1_555 1_555
H5E C6E 1_555 1_555
C7E C6E 1_555 1_555
H6E C7E 1_555 1_555
C8E C7E 1_555 1_555
H7E C8E 1_555 1_555
C9E C10 1_555 1_555
H8E C9E 1_555 1_555
C10E C5 1_555 1_555
O1B Zn1 1_555 1_555
O2B N4B 1_555 1_555
O3B N4B 1_555 1_555
N2 C2 1_555 1_555
C9 C10E 1_555 1_555
N2E C2E 1_555 1_555
C4E C5E 1_555 1_555
C4E C10E 1_555 1_555
C8E C9E 1_555 1_555

#END
