
#######################################################################
#
#                 Cambridge Crystallographic Data Centre
#                                CCDC 
#
#######################################################################
#
# If this CIF has been generated from an entry in the Cambridge 
# Structural Database, then it will include bibliographic, chemical, 
# crystal, experimental, refinement or atomic coordinate data resulting 
# from the CCDC's data processing and validation procedures.
#
#######################################################################

data_KIBROD
_symmetry_cell_setting           monoclinic
_symmetry_space_group_name_H-M   'P 21/c'
_symmetry_Int_Tables_number      14
_space_group_name_Hall           '-P 2ybc'
loop_
_symmetry_equiv_pos_site_id
_symmetry_equiv_pos_as_xyz
1 x,y,z
2 -x,1/2+y,1/2-z
3 -x,-y,-z
4 x,1/2-y,1/2+z
_cell_length_a                   13.675(3)
_cell_length_b                   33.935(7)
_cell_length_c                   10.178(2)
_cell_angle_alpha                90
_cell_angle_beta                 110.05(3)
_cell_angle_gamma                90
_cell_volume                     4436.96
loop_
_atom_site_label
_atom_site_type_symbol
_atom_site_fract_x
_atom_site_fract_y
_atom_site_fract_z
Cd1 Cd 0.03199(3) 0.127301(14) 0.45607(5)
N1 N -0.0964(3) 0.08780(11) 0.3826(4)
N2 N -0.2125(3) 0.04025(12) 0.3813(4)
N3 N -0.2310(3) 0.05475(10) 0.2498(3)
N4 N -0.8062(3) 0.08034(10) -0.1411(4)
N5 N -0.8040(3) 0.04718(12) -0.2133(4)
N6 N -0.9020(3) 0.09417(11) -0.3565(4)
N7 N -0.0486(3) 0.16553(11) 0.5486(4)
N8 N -0.1214(3) 0.21785(11) 0.6147(4)
N9 N -0.1481(3) 0.18373(11) 0.6647(4)
N10 N -0.7205(3) 0.20536(12) 0.4765(4)
N11 N -0.7145(3) 0.21001(11) 0.6114(4)
N12 N -0.8471(3) 0.16952(12) 0.4977(4)
C1 C -0.1308(3) 0.06140(14) 0.4579(4)
H1 H -0.1000 0.0584 0.5542
C2 C -0.1623(3) 0.08280(12) 0.2520(4)
H2 H -0.1605 0.0968 0.1743
C3 C -0.3117(3) 0.03745(12) 0.1279(4)
H3 H -0.3082 0.0090 0.1372
H4 H -0.2961 0.0442 0.0446
C4 C -0.4218(3) 0.05045(11) 0.1072(4)
C5 C -0.4859(3) 0.02736(12) 0.1603(4)
C6 C -0.4468(3) -0.00592(13) 0.2464(5)
H5 H -0.3766 -0.0123 0.2713
C7 C -0.5103(4) -0.02900(14) 0.2940(5)
H6 H -0.4828 -0.0506 0.3508
C8 C -0.6160(4) -0.02001(15) 0.2569(5)
H7 H -0.6587 -0.0361 0.2880
C9 C -0.6578(3) 0.01205(13) 0.1756(5)
H8 H -0.7284 0.0174 0.1525
C10 C -0.5948(3) 0.03766(12) 0.1252(4)
C11 C -0.6346(3) 0.07151(12) 0.0438(4)
C12 C -0.5691(3) 0.09555(12) -0.0036(4)
C13 C -0.6060(3) 0.13027(13) -0.0827(5)
H9 H -0.6745 0.1381 -0.1004
C14 C -0.5432(4) 0.15267(15) -0.1342(5)
H10 H -0.5697 0.1750 -0.1877
C15 C -0.4380(4) 0.14149(15) -0.1053(5)
H11 H -0.3950 0.1567 -0.1388
C16 C -0.3995(3) 0.10837(14) -0.0280(5)
H12 H -0.3305 0.1014 -0.0105
C17 C -0.4615(3) 0.08456(12) 0.0258(4)
C18 C -0.7473(3) 0.08331(14) 0.0095(4)
H13 H -0.7792 0.0664 0.0602
H14 H -0.7505 0.1102 0.0400
C19 C -0.8630(4) 0.05665(14) -0.3424(5)
H15 H -0.8767 0.0393 -0.4173
C20 C -0.8658(3) 0.10737(12) -0.2258(4)
H16 H -0.8801 0.1321 -0.1975
C21 C -0.0610(3) 0.20585(13) 0.5480(5)
H17 H -0.0290 0.2230 0.5039
C22 C -0.1037(3) 0.15303(13) 0.6255(5)
H18 H -0.1104 0.1269 0.6484
C23 C -0.2153(3) 0.18332(15) 0.7504(5)
H19 H -0.1876 0.2015 0.8277
H20 H -0.2143 0.1571 0.7892
C24 C -0.3257(3) 0.19447(13) 0.6689(4)
C25 C -0.3628(3) 0.23253(13) 0.6782(4)
C26 C -0.2983(4) 0.26252(14) 0.7635(5)
H21 H -0.2287 0.2569 0.8122
C27 C -0.3357(4) 0.29925(15) 0.7758(5)
H22 H -0.2918 0.3182 0.8319
C28 C -0.4416(4) 0.30828(15) 0.7028(5)
H23 H -0.4667 0.3333 0.7103
C29 C -0.5072(4) 0.28046(15) 0.6212(5)
H24 H -0.5772 0.2865 0.5779
C30 C -0.4703(3) 0.24219(13) 0.6012(4)
C31 C -0.5353(3) 0.21434(14) 0.5097(5)
C32 C -0.4970(3) 0.17637(14) 0.4987(5)
C33 C -0.5600(4) 0.14706(16) 0.4061(5)
H25 H -0.6281 0.1531 0.3513
C34 C -0.5214(5) 0.11033(17) 0.3973(6)
H26 H -0.5639 0.0920 0.3362
C35 C -0.4200(5) 0.09975(15) 0.4776(6)
H27 H -0.3955 0.0746 0.4699
C36 C -0.3559(4) 0.12682(13) 0.5688(5)
H28 H -0.2887 0.1196 0.6235
C37 C -0.3921(3) 0.16588(13) 0.5799(4)
C38 C -0.6461(4) 0.22460(17) 0.4221(5)
H29 H -0.6554 0.2529 0.4223
H30 H -0.6596 0.2163 0.3263
C39 C -0.7990(4) 0.18127(16) 0.4094(5)
H31 H -0.8175 0.1738 0.3161
C40 C -0.7924(3) 0.18830(14) 0.6191(5)
H32 H -0.8086 0.1860 0.7004
C41 C 0.2261(5) 0.0822(2) 0.3966(10)
H33 H 0.2387 0.0625 0.3366
H34 H 0.2561 0.0739 0.4922
H35 H 0.2572 0.1066 0.3841
C42 C -0.0789(6) 0.1852(2) 0.1866(7)
H36 H -0.0920 0.1874 0.0880
H37 H -0.0387 0.2074 0.2342
H38 H -0.1439 0.1845 0.2032
O1 O -0.0224(2) 0.14954(10) 0.2381(3)
H39 H -0.0067 0.1340 0.1727
O3 O 0.1165(3) 0.08753(11) 0.3621(4)
H42 H 0.0749 0.0719 0.2894
Cd1_2 Cd -0.96801(3) 0.127301(14) -0.54393(5)
Cd1_3 Cd -0.96801(3) 0.127301(14) 0.45607(5)
N6_2 N 0.0980(3) 0.09417(11) 0.6435(4)
N12_2 N 0.1529(3) 0.16952(12) 0.4977(4)
Cl1 Cl -0.09162(9) 0.06938(4) 0.92458(13)
O4 O -0.1084(7) 0.0625(2) 0.7801(5)
O5 O 0.0154(4) 0.0780(2) 0.9978(9)
O6 O -0.1186(3) 0.03444(12) 0.9827(4)
O7 O -0.1569(4) 0.10110(15) 0.9368(5)
Cl2 Cl 0.12943(9) 0.19406(3) 1.00951(12)
O8 O 0.1151(5) 0.22612(13) 1.0893(6)
O9 O 0.0356(7) 0.1855(6) 0.8981(13)
O11 O 0.1245(13) 0.1578(2) 1.0862(13)
O13 O 0.2165(7) 0.1934(3) 0.9656(14)
O2 O 0.0303(4) 0.01657(12) 0.2611(5)
H40 H -0.022(4) 0.028(2) 0.200(7)
H41 H -0.003(5) 0.000(2) 0.293(8)
O10? O 0.0525(11) 0.1641(4) 0.985(2)
O12? O 0.2272(9) 0.1785(5) 1.0967(13)
O14? O 0.141(2) 0.2059(5) 0.8805(16)
loop_
_geom_bond_atom_site_label_1
_geom_bond_atom_site_label_2
_geom_bond_site_symmetry_1
_geom_bond_site_symmetry_2
Cd1 N1 1_555 1_555
N1 C1 1_555 1_555
N2 N3 1_555 1_555
N3 C2 1_555 1_555
N4 N5 1_555 1_555
N5 C19 1_555 1_555
N6 C19 1_555 1_555
N7 Cd1 1_555 1_555
N8 N9 1_555 1_555
N9 C22 1_555 1_555
N10 N11 1_555 1_555
N11 C40 1_555 1_555
N12 C39 1_555 1_555
C1 N2 1_555 1_555
H1 C1 1_555 1_555
C2 N1 1_555 1_555
H2 C2 1_555 1_555
C3 N3 1_555 1_555
H3 C3 1_555 1_555
H4 C3 1_555 1_555
C4 C3 1_555 1_555
C5 C4 1_555 1_555
C6 C5 1_555 1_555
H5 C6 1_555 1_555
C7 C6 1_555 1_555
H6 C7 1_555 1_555
C8 C7 1_555 1_555
H7 C8 1_555 1_555
C9 C8 1_555 1_555
H8 C9 1_555 1_555
C10 C5 1_555 1_555
C11 C10 1_555 1_555
C12 C11 1_555 1_555
C13 C12 1_555 1_555
H9 C13 1_555 1_555
C14 C13 1_555 1_555
H10 C14 1_555 1_555
C15 C14 1_555 1_555
H11 C15 1_555 1_555
C16 C15 1_555 1_555
H12 C16 1_555 1_555
C17 C4 1_555 1_555
C18 N4 1_555 1_555
H13 C18 1_555 1_555
H14 C18 1_555 1_555
C19 H15 1_555 1_555
C20 N4 1_555 1_555
H16 C20 1_555 1_555
C21 N7 1_555 1_555
H17 C21 1_555 1_555
C22 N7 1_555 1_555
H18 C22 1_555 1_555
C23 N9 1_555 1_555
H19 C23 1_555 1_555
H20 C23 1_555 1_555
C24 C23 1_555 1_555
C25 C24 1_555 1_555
C26 C25 1_555 1_555
H21 C26 1_555 1_555
C27 C26 1_555 1_555
H22 C27 1_555 1_555
C28 C27 1_555 1_555
H23 C28 1_555 1_555
C29 C28 1_555 1_555
H24 C29 1_555 1_555
C30 C25 1_555 1_555
C31 C30 1_555 1_555
C32 C31 1_555 1_555
C33 C32 1_555 1_555
H25 C33 1_555 1_555
C34 C33 1_555 1_555
H26 C34 1_555 1_555
C35 C34 1_555 1_555
H27 C35 1_555 1_555
C36 C35 1_555 1_555
H28 C36 1_555 1_555
C37 C24 1_555 1_555
C38 N10 1_555 1_555
H29 C38 1_555 1_555
H30 C38 1_555 1_555
C39 N10 1_555 1_555
H31 C39 1_555 1_555
C40 N12 1_555 1_555
H32 C40 1_555 1_555
C41 H33 1_555 1_555
H34 C41 1_555 1_555
H35 C41 1_555 1_555
C42 H36 1_555 1_555
H37 C42 1_555 1_555
H38 C42 1_555 1_555
Cl1 O4 1_555 1_555
Cl2 O8 1_555 1_555
O1 Cd1 1_555 1_555
H39 O1 1_555 1_555
O2 H40 1_555 1_555
H41 O2 1_555 1_555
O3 Cd1 1_555 1_555
H42 O3 1_555 1_555
O5 Cl1 1_555 1_555
O6 Cl1 1_555 1_555
O7 Cl1 1_555 1_555
O9 Cl2 1_555 1_555
O11 Cl2 1_555 1_555
O13 Cl2 1_555 1_555
Cd1_2 N6 1_555 1_555
Cd1_3 N12 1_555 1_555
N6_2 Cd1 1_555 1_555
N12_2 Cd1 1_555 1_555
N6 C20 1_555 1_555
N8 C21 1_555 1_555
C9 C10 1_555 1_555
C11 C18 1_555 1_555
C12 C17 1_555 1_555
C16 C17 1_555 1_555
C29 C30 1_555 1_555
C31 C38 1_555 1_555
C32 C37 1_555 1_555
C36 C37 1_555 1_555
C41 O3 1_555 1_555
C42 O1 1_555 1_555

#END
