
#######################################################################
#
#                 Cambridge Crystallographic Data Centre
#                                CCDC 
#
#######################################################################
#
# If this CIF has been generated from an entry in the Cambridge 
# Structural Database, then it will include bibliographic, chemical, 
# crystal, experimental, refinement or atomic coordinate data resulting 
# from the CCDC's data processing and validation procedures.
#
#######################################################################

data_KIBXID
_symmetry_cell_setting           orthorhombic
_symmetry_space_group_name_H-M   'P b c a'
_symmetry_Int_Tables_number      61
_space_group_name_Hall           '-P 2ac 2ab'
loop_
_symmetry_equiv_pos_site_id
_symmetry_equiv_pos_as_xyz
1 x,y,z
2 1/2-x,-y,1/2+z
3 1/2+x,1/2-y,-z
4 -x,1/2+y,1/2-z
5 -x,-y,-z
6 1/2+x,y,1/2-z
7 1/2-x,1/2+y,z
8 x,1/2-y,1/2+z
_cell_length_a                   12.708(5)
_cell_length_b                   13.699(5)
_cell_length_c                   22.252(5)
_cell_angle_alpha                90
_cell_angle_beta                 90
_cell_angle_gamma                90
_cell_volume                     3873.78
loop_
_atom_site_label
_atom_site_type_symbol
_atom_site_fract_x
_atom_site_fract_y
_atom_site_fract_z
C1 C 0.9401(4) 0.0033(4) 0.44680(19)
C2 C 0.9324(4) 0.0783(4) 0.4891(2)
C3 C 1.0072(4) -0.0727(4) 0.4591(2)
H1 H 1.0124 -0.1231 0.4313
C4 C 0.8636(5) 0.1672(4) 0.4806(2)
H2 H 0.8344 0.1871 0.5190
H3 H 0.8059 0.1518 0.4538
C5 C 0.8379(5) 0.3528(4) 0.4341(2)
H4 H 0.8643 0.4035 0.4077
H5 H 0.7801 0.3202 0.4139
C6 C 0.7990(4) 0.3981(4) 0.4919(2)
C7 C 0.8432(4) 0.4825(4) 0.5137(2)
H6 H 0.8955 0.5146 0.4922
C8 C 0.8088(5) 0.5186(4) 0.5678(2)
H7 H 0.8377 0.5757 0.5832
C9 C 0.7317(5) 0.4703(4) 0.5992(2)
H8 H 0.7100 0.4961 0.6358
C10 C 0.7196(4) 0.3549(4) 0.5259(2)
H9 H 0.6871 0.2994 0.5106
C11 C 0.8778(4) 0.0010(4) 0.3883(2)
H10 H 0.8194 0.0464 0.3905
H11 H 0.8498 -0.0640 0.3816
C12 C 0.8680(4) 0.0460(4) 0.2660(2)
H12 H 0.8101 0.0863 0.2799
H13 H 0.9003 0.0789 0.2321
C13 C 0.8257(4) -0.0505(4) 0.2457(2)
C14 C 0.7219(5) -0.0783(4) 0.2566(2)
H14 H 0.6776 -0.0379 0.2787
C15 C 0.6851(5) -0.1661(4) 0.2345(2)
H15 H 0.6167 -0.1869 0.2422
C16 C 0.7532(5) -0.2219(4) 0.2007(2)
H16 H 0.7278 -0.2796 0.1841
C17 C 0.8880(4) -0.1136(4) 0.2119(2)
H17 H 0.9573 -0.0958 0.2042
N1 N 0.6867(4) 0.3888(3) 0.58000(19)
N2 N 0.8534(4) -0.1981(3) 0.19019(17)
S1 S 0.94198(13) 0.26532(10) 0.44937(6)
S2 S 0.96496(12) 0.03487(10) 0.32638(5)
Ag1 Ag 0.54597(4) 0.30679(3) 0.637952(18)
C1D C 1.0599(4) -0.0033(4) 0.55320(19)
C2D C 1.0676(4) -0.0783(4) 0.5109(2)
C3D C 0.9928(4) 0.0727(4) 0.5409(2)
H1D H 0.9876 0.1231 0.5687
C4D C 1.1364(5) -0.1672(4) 0.5194(2)
H2D H 1.1656 -0.1871 0.4810
H3D H 1.1941 -0.1518 0.5462
C5D C 1.1621(5) -0.3528(4) 0.5659(2)
H4D H 1.1357 -0.4035 0.5923
H5D H 1.2199 -0.3202 0.5861
C6D C 1.2010(4) -0.3981(4) 0.5081(2)
C7D C 1.1568(4) -0.4825(4) 0.4863(2)
H6D H 1.1045 -0.5146 0.5078
C8D C 1.1912(5) -0.5186(4) 0.4322(2)
H7D H 1.1623 -0.5757 0.4168
C9D C 1.2683(5) -0.4703(4) 0.4008(2)
H8D H 1.2900 -0.4961 0.3642
C10D C 1.2804(4) -0.3549(4) 0.4741(2)
H9D H 1.3129 -0.2994 0.4894
C11D C 1.1222(4) -0.0010(4) 0.6117(2)
H10D H 1.1806 -0.0464 0.6095
H11D H 1.1502 0.0640 0.6184
C12D C 1.1320(4) -0.0460(4) 0.7340(2)
H12D H 1.1899 -0.0863 0.7201
H13D H 1.0997 -0.0789 0.7679
C13D C 1.1743(4) 0.0505(4) 0.7543(2)
C14D C 1.2781(5) 0.0783(4) 0.7434(2)
H14D H 1.3224 0.0379 0.7213
C15D C 1.3149(5) 0.1661(4) 0.7655(2)
H15D H 1.3833 0.1869 0.7578
C16D C 1.2468(5) 0.2219(4) 0.7993(2)
H16D H 1.2722 0.2796 0.8159
C17D C 1.1120(4) 0.1136(4) 0.7881(2)
H17D H 1.0427 0.0958 0.7958
N1D N 1.3133(4) -0.3888(3) 0.42000(19)
N2D N 1.1466(4) 0.1981(3) 0.80981(17)
N2A N 0.6466(4) 0.1981(3) 0.69019(17)
N2E N 1.3534(4) -0.1981(3) 0.30981(17)
S1D S 1.05802(13) -0.26532(10) 0.55063(6)
S1B S 0.44198(13) 0.23468(10) 0.55063(6)
S1F S 1.55802(13) -0.23468(10) 0.44937(6)
S2D S 1.03504(12) -0.03487(10) 0.67362(5)
S2B S 0.46496(12) 0.46513(10) 0.67362(5)
S2F S 1.53504(12) -0.46513(10) 0.32638(5)
Ag1D Ag 1.45403(4) -0.30679(3) 0.362048(18)
Ag1A Ag 0.95403(4) -0.30679(3) 0.137952(18)
Ag1B Ag 1.04597(4) 0.19321(3) 0.362048(18)
Ag1F Ag 0.95403(4) -0.19321(3) 0.637952(18)
Ag1E Ag 1.04597(4) 0.30679(3) 0.862048(18)
F1 F -0.0388(3) 0.3380(3) 0.63717(16)
F2 F 0.2079(3) 0.3187(3) 0.65098(16)
F3 F 0.0940(4) 0.4413(3) 0.63021(17)
F4 F 0.0933(3) 0.3056(3) 0.57542(14)
F5 F 0.0726(4) 0.2200(3) 0.65997(17)
F6 F 0.0782(3) 0.3557(3) 0.71328(14)
P1 P 0.08227(13) 0.33083(11) 0.64380(7)
loop_
_geom_bond_atom_site_label_1
_geom_bond_atom_site_label_2
_geom_bond_site_symmetry_1
_geom_bond_site_symmetry_2
C1 C2 1_555 1_555
C2 C4 1_555 1_555
C3 C1 1_555 1_555
H1 C3 1_555 1_555
C4 H2 1_555 1_555
H3 C4 1_555 1_555
C5 H4 1_555 1_555
H5 C5 1_555 1_555
C6 C5 1_555 1_555
C7 C6 1_555 1_555
H6 C7 1_555 1_555
C8 C7 1_555 1_555
H7 C8 1_555 1_555
C9 C8 1_555 1_555
H8 C9 1_555 1_555
C10 C6 1_555 1_555
H9 C10 1_555 1_555
C11 C1 1_555 1_555
H10 C11 1_555 1_555
H11 C11 1_555 1_555
C12 H12 1_555 1_555
H13 C12 1_555 1_555
C13 C12 1_555 1_555
C14 C13 1_555 1_555
H14 C14 1_555 1_555
C15 C14 1_555 1_555
H15 C15 1_555 1_555
C16 C15 1_555 1_555
H16 C16 1_555 1_555
C17 C13 1_555 1_555
H17 C17 1_555 1_555
N1 C9 1_555 1_555
N2 C16 1_555 1_555
F1 P1 1_555 1_555
F2 P1 1_555 1_555
F3 P1 1_555 1_555
F4 P1 1_555 1_555
F5 P1 1_555 1_555
F6 P1 1_555 1_555
S1 C4 1_555 1_555
S2 C11 1_555 1_555
Ag1 N1 1_555 1_555
C1D C2D 1_555 1_555
C2D C3 1_555 1_555
C3D C2 1_555 1_555
H1D C3D 1_555 1_555
C4D C2D 1_555 1_555
H2D C4D 1_555 1_555
H3D C4D 1_555 1_555
C5D H4D 1_555 1_555
H5D C5D 1_555 1_555
C6D C5D 1_555 1_555
C7D C6D 1_555 1_555
H6D C7D 1_555 1_555
C8D C7D 1_555 1_555
H7D C8D 1_555 1_555
C9D C8D 1_555 1_555
H8D C9D 1_555 1_555
C10D C6D 1_555 1_555
H9D C10D 1_555 1_555
C11D C1D 1_555 1_555
H10D C11D 1_555 1_555
H11D C11D 1_555 1_555
C12D H12D 1_555 1_555
H13D C12D 1_555 1_555
C13D C12D 1_555 1_555
C14D C13D 1_555 1_555
H14D C14D 1_555 1_555
C15D C14D 1_555 1_555
H15D C15D 1_555 1_555
C16D C15D 1_555 1_555
H16D C16D 1_555 1_555
C17D C13D 1_555 1_555
H17D C17D 1_555 1_555
N1D C9D 1_555 1_555
N2D C16D 1_555 1_555
N2A Ag1 1_555 1_555
N2E Ag1D 1_555 1_555
S1D C4D 1_555 1_555
S1B Ag1 1_555 1_555
S1F Ag1D 1_555 1_555
S2D C11D 1_555 1_555
S2B Ag1 1_555 1_555
S2F Ag1D 1_555 1_555
Ag1D N1D 1_555 1_555
Ag1A N2 1_555 1_555
Ag1B S1 1_555 1_555
Ag1F S1D 1_555 1_555
Ag1E N2D 1_555 1_555
C5 S1 1_555 1_555
C10 N1 1_555 1_555
C12 S2 1_555 1_555
C17 N2 1_555 1_555
S2 Ag1B 1_555 1_555
C1D C3D 1_555 1_555
C5D S1D 1_555 1_555
C10D N1D 1_555 1_555
C12D S2D 1_555 1_555
C17D N2D 1_555 1_555
S2D Ag1F 1_555 1_555

#END
