
#######################################################################
#
#                 Cambridge Crystallographic Data Centre
#                                CCDC 
#
#######################################################################
#
# If this CIF has been generated from an entry in the Cambridge 
# Structural Database, then it will include bibliographic, chemical, 
# crystal, experimental, refinement or atomic coordinate data resulting 
# from the CCDC's data processing and validation procedures.
#
#######################################################################

data_KIBXEZ
_symmetry_cell_setting           orthorhombic
_symmetry_space_group_name_H-M   'P b c a'
_symmetry_Int_Tables_number      61
_space_group_name_Hall           '-P 2ac 2ab'
loop_
_symmetry_equiv_pos_site_id
_symmetry_equiv_pos_as_xyz
1 x,y,z
2 1/2-x,-y,1/2+z
3 1/2+x,1/2-y,-z
4 -x,1/2+y,1/2-z
5 -x,-y,-z
6 1/2+x,y,1/2-z
7 1/2-x,1/2+y,z
8 x,1/2-y,1/2+z
_cell_length_a                   12.550(5)
_cell_length_b                   13.508(5)
_cell_length_c                   22.083(5)
_cell_angle_alpha                90
_cell_angle_beta                 90
_cell_angle_gamma                90
_cell_volume                     3743.63
loop_
_atom_site_label
_atom_site_type_symbol
_atom_site_fract_x
_atom_site_fract_y
_atom_site_fract_z
C1 C 0.2336(6) 0.4753(6) 0.5974(3)
H1 H 0.2114 0.4990 0.6348
C2 C 0.3114(6) 0.5297(6) 0.5660(3)
H2 H 0.3384 0.5885 0.5816
C3 C 0.3466(5) 0.4932(5) 0.5111(3)
H3 H 0.3986 0.5267 0.4892
C4 C 0.3034(5) 0.4063(5) 0.4892(3)
C5 C 0.2242(5) 0.3610(5) 0.5232(3)
H4 H 0.1925 0.3045 0.5072
C6 C 0.3450(5) 0.3611(5) 0.4320(3)
H5 H 0.3730 0.4126 0.4058
H6 H 0.2874 0.3280 0.4108
C7 C 0.3694(6) 0.1735(5) 0.4818(3)
H7 H 0.3421 0.1941 0.5210
H8 H 0.3092 0.1599 0.4556
C8 C 0.2447(6) -0.2176(6) 0.2006(3)
H9 H 0.2169 -0.2756 0.1844
C9 C 0.1794(6) -0.1588(6) 0.2352(4)
H10 H 0.1096 -0.1778 0.2432
C10 C 0.2199(6) -0.0693(6) 0.2583(3)
H11 H 0.1773 -0.0279 0.2816
C11 C 0.3242(5) -0.0443(5) 0.2456(2)
C12 C 0.3840(5) -0.1095(5) 0.2113(3)
H12 H 0.4545 -0.0931 0.2031
C13 C 0.3703(6) 0.0522(5) 0.2656(3)
H13 H 0.3132 0.0952 0.2792
H14 H 0.4048 0.0839 0.2314
C14 C 0.3782(5) 0.0052(6) 0.3883(3)
H15 H 0.3201 0.0525 0.3903
H16 H 0.3480 -0.0600 0.3814
C15 C 0.4966(5) 0.0758(4) 0.5418(3)
H17 H 0.4942 0.1271 0.5699
C16 C 0.4351(5) 0.0821(5) 0.4890(3)
C17 C 0.4388(5) 0.0056(5) 0.4468(3)
N1 N 0.1902(4) 0.3929(5) 0.5773(2)
N2 N 0.3464(5) -0.1951(4) 0.1892(2)
S1 S 0.44989(13) 0.27219(13) 0.44950(7)
S2 S 0.46650(13) 0.03724(13) 0.32646(6)
Ag1 Ag 0.05510(4) 0.30602(4) 0.63684(2)
C1D C 0.7664(6) -0.4753(6) 0.4026(3)
H1D H 0.7886 -0.4990 0.3652
C2D C 0.6886(6) -0.5297(6) 0.4340(3)
H2D H 0.6616 -0.5885 0.4184
C3D C 0.6534(5) -0.4932(5) 0.4889(3)
H3D H 0.6014 -0.5267 0.5108
C4D C 0.6966(5) -0.4063(5) 0.5108(3)
C5D C 0.7758(5) -0.3610(5) 0.4768(3)
H4D H 0.8075 -0.3045 0.4928
C6D C 0.6550(5) -0.3611(5) 0.5680(3)
H5D H 0.6270 -0.4126 0.5942
H6D H 0.7126 -0.3280 0.5892
C7D C 0.6306(6) -0.1735(5) 0.5182(3)
H7D H 0.6579 -0.1941 0.4790
H8D H 0.6908 -0.1599 0.5444
C8D C 0.7553(6) 0.2176(6) 0.7994(3)
H9D H 0.7831 0.2756 0.8156
C9D C 0.8206(6) 0.1588(6) 0.7648(4)
H10D H 0.8904 0.1778 0.7568
C10D C 0.7801(6) 0.0693(6) 0.7417(3)
H11D H 0.8227 0.0279 0.7184
C11D C 0.6758(5) 0.0443(5) 0.7544(2)
C12D C 0.6160(5) 0.1095(5) 0.7887(3)
H12D H 0.5455 0.0931 0.7969
C13D C 0.6297(6) -0.0522(5) 0.7344(3)
H13D H 0.6868 -0.0952 0.7208
H14D H 0.5952 -0.0839 0.7686
C14D C 0.6218(5) -0.0052(6) 0.6117(3)
H15D H 0.6799 -0.0525 0.6097
H16D H 0.6520 0.0600 0.6186
C15D C 0.5034(5) -0.0758(4) 0.4582(3)
H17D H 0.5058 -0.1271 0.4301
C16D C 0.5649(5) -0.0821(5) 0.5110(3)
C17D C 0.5612(5) -0.0056(5) 0.5532(3)
N1D N 0.8098(4) -0.3929(5) 0.4227(2)
N2D N 0.6536(5) 0.1951(4) 0.8108(2)
N2A N 0.1536(5) 0.1951(4) 0.6892(2)
N2E N 0.8464(5) -0.1951(4) 0.3108(2)
S1D S 0.55011(13) -0.27219(13) 0.55050(7)
S1B S -0.05011(13) 0.22781(13) 0.55050(7)
S1F S 1.05011(13) -0.22781(13) 0.44950(7)
S2D S 0.53350(13) -0.03724(13) 0.67354(6)
S2B S -0.03350(13) 0.46276(13) 0.67354(6)
S2F S 1.03350(13) -0.46276(13) 0.32646(6)
Ag1D Ag 0.94490(4) -0.30602(4) 0.36316(2)
Ag1A Ag 0.44490(4) -0.30602(4) 0.13684(2)
Ag1B Ag 0.55510(4) 0.19398(4) 0.36316(2)
Ag1F Ag 0.44490(4) -0.19398(4) 0.63684(2)
Ag1E Ag 0.55510(4) 0.30602(4) 0.86316(2)
O5 O 0.573(3) 0.4402(14) 0.6309(12)
Cl2 Cl 0.5688(13) 0.3374(12) 0.6434(6)
O6 O 0.584(2) 0.330(2) 0.7051(6)
O7 O 0.6485(15) 0.295(2) 0.6098(13)
O8 O 0.4699(13) 0.3041(18) 0.6259(10)
O1? O 0.558(2) 0.4311(14) 0.6459(15)
Cl1? Cl 0.5842(16) 0.3307(11) 0.6405(7)
O2? O 0.672(4) 0.316(2) 0.677(2)
O3? O 0.609(3) 0.313(2) 0.5814(10)
O4? O 0.499(3) 0.275(2) 0.6592(16)
loop_
_geom_bond_atom_site_label_1
_geom_bond_atom_site_label_2
_geom_bond_site_symmetry_1
_geom_bond_site_symmetry_2
C1 H1 1_555 1_555
C2 C1 1_555 1_555
H2 C2 1_555 1_555
C3 C2 1_555 1_555
H3 C3 1_555 1_555
C4 C3 1_555 1_555
C5 C4 1_555 1_555
H4 C5 1_555 1_555
C6 C4 1_555 1_555
H5 C6 1_555 1_555
H6 C6 1_555 1_555
C7 H7 1_555 1_555
H8 C7 1_555 1_555
C8 H9 1_555 1_555
C9 C8 1_555 1_555
H10 C9 1_555 1_555
C10 C9 1_555 1_555
H11 C10 1_555 1_555
C11 C10 1_555 1_555
C12 C11 1_555 1_555
H12 C12 1_555 1_555
C13 C11 1_555 1_555
H13 C13 1_555 1_555
H14 C13 1_555 1_555
C14 H15 1_555 1_555
H16 C14 1_555 1_555
C15 H17 1_555 1_555
C16 C7 1_555 1_555
C17 C14 1_555 1_555
N1 C1 1_555 1_555
N2 C8 1_555 1_555
O5 Cl2 1_555 1_555
Cl2 O6 1_555 1_555
O7 Cl2 1_555 1_555
O8 Cl2 1_555 1_555
S1 C6 1_555 1_555
S2 C13 1_555 1_555
Ag1 N1 1_555 1_555
C1D H1D 1_555 1_555
C2D C1D 1_555 1_555
H2D C2D 1_555 1_555
C3D C2D 1_555 1_555
H3D C3D 1_555 1_555
C4D C3D 1_555 1_555
C5D C4D 1_555 1_555
H4D C5D 1_555 1_555
C6D C4D 1_555 1_555
H5D C6D 1_555 1_555
H6D C6D 1_555 1_555
C7D H7D 1_555 1_555
H8D C7D 1_555 1_555
C8D H9D 1_555 1_555
C9D C8D 1_555 1_555
H10D C9D 1_555 1_555
C10D C9D 1_555 1_555
H11D C10D 1_555 1_555
C11D C10D 1_555 1_555
C12D C11D 1_555 1_555
H12D C12D 1_555 1_555
C13D C11D 1_555 1_555
H13D C13D 1_555 1_555
H14D C13D 1_555 1_555
C14D H15D 1_555 1_555
H16D C14D 1_555 1_555
C15D C17 1_555 1_555
H17D C15D 1_555 1_555
C16D C7D 1_555 1_555
C17D C15 1_555 1_555
N1D C1D 1_555 1_555
N2D C8D 1_555 1_555
N2A Ag1 1_555 1_555
N2E Ag1D 1_555 1_555
S1D C6D 1_555 1_555
S1B Ag1 1_555 1_555
S1F Ag1D 1_555 1_555
S2D C13D 1_555 1_555
S2B Ag1 1_555 1_555
S2F Ag1D 1_555 1_555
Ag1D N1D 1_555 1_555
Ag1A N2 1_555 1_555
Ag1B S1 1_555 1_555
Ag1F S1D 1_555 1_555
Ag1E N2D 1_555 1_555
C5 N1 1_555 1_555
C7 S1 1_555 1_555
C12 N2 1_555 1_555
C14 S2 1_555 1_555
C15 C16 1_555 1_555
C16 C17 1_555 1_555
S2 Ag1B 1_555 1_555
C5D N1D 1_555 1_555
C7D S1D 1_555 1_555
C12D N2D 1_555 1_555
C14D C17D 1_555 1_555
C14D S2D 1_555 1_555
C15D C16D 1_555 1_555
C16D C17D 1_555 1_555
S2D Ag1F 1_555 1_555

#END
