
#######################################################################
#
#                 Cambridge Crystallographic Data Centre
#                                CCDC 
#
#######################################################################
#
# If this CIF has been generated from an entry in the Cambridge 
# Structural Database, then it will include bibliographic, chemical, 
# crystal, experimental, refinement or atomic coordinate data resulting 
# from the CCDC's data processing and validation procedures.
#
#######################################################################

data_KIBXUP
_symmetry_cell_setting           monoclinic
_symmetry_space_group_name_H-M   'P 21/c'
_symmetry_Int_Tables_number      14
_space_group_name_Hall           '-P 2ybc'
loop_
_symmetry_equiv_pos_site_id
_symmetry_equiv_pos_as_xyz
1 x,y,z
2 -x,1/2+y,1/2-z
3 -x,-y,-z
4 x,1/2-y,1/2+z
_cell_length_a                   14.085(2)
_cell_length_b                   16.293(2)
_cell_length_c                   12.489(1)
_cell_angle_alpha                90
_cell_angle_beta                 112.425(1)
_cell_angle_gamma                90
_cell_volume                     2649.33
loop_
_atom_site_label
_atom_site_type_symbol
_atom_site_fract_x
_atom_site_fract_y
_atom_site_fract_z
C1 C 0.0923(3) -0.0432(2) 0.0197(3)
C2 C 0.0226(3) -0.0732(2) 0.0662(3)
C3 C 0.0679(3) 0.0293(2) -0.0453(3)
H1 H 0.1141 0.0491 -0.0760
C4 C 0.1954(3) -0.0825(2) 0.0407(3)
H2 H 0.1943 -0.1402 0.0593
H3 H 0.2118 -0.0778 -0.0278
C5 C 0.4063(3) -0.0867(3) 0.1845(3)
H4 H 0.4265 -0.0797 0.1190
H5 H 0.3940 -0.1445 0.1920
C6 C 0.4902(3) -0.0554(2) 0.2942(3)
C7 C 0.5257(3) -0.1023(3) 0.3939(4)
H6 H 0.4986 -0.1543 0.3946
C8 C 0.6021(3) -0.0716(3) 0.4928(4)
H7 H 0.6253 -0.1042 0.5589
C9 C 0.5323(3) 0.0220(3) 0.2990(4)
H8 H 0.5103 0.0557 0.2340
C10 C 0.6081(3) 0.0491(3) 0.4024(4)
H9 H 0.6347 0.1016 0.4049
C11 C 0.0408(3) -0.1504(2) 0.1392(3)
H10 H -0.0191 -0.1857 0.1105
H11 H 0.0992 -0.1804 0.1361
C12 C 0.0986(3) -0.2166(2) 0.3679(3)
H12 H 0.1082 -0.2072 0.4480
H13 H 0.1630 -0.2367 0.3666
C13 C 0.0170(3) -0.2805(2) 0.3171(3)
C14 C 0.0278(3) -0.3401(2) 0.2429(4)
H14 H 0.0854 -0.3403 0.2238
C15 C -0.0481(4) -0.3992(3) 0.1973(4)
H15 H -0.0398 -0.4382 0.1471
C16 C -0.0709(3) -0.2834(2) 0.3423(4)
H16 H -0.0816 -0.2445 0.3910
C17 C -0.1431(3) -0.3457(2) 0.2936(4)
H17 H -0.2012 -0.3473 0.3120
N1 N 0.6444(2) 0.0030(2) 0.4981(3)
N2 N -0.1328(3) -0.4028(2) 0.2221(3)
S1 S 0.29017(7) -0.02746(6) 0.16235(8)
S2 S 0.06589(7) -0.11888(5) 0.28851(7)
Ag1 Ag 0.77053(2) 0.03692(2) 0.66816(2)
C1B C -0.0923(3) 0.0432(2) -0.0197(3)
C2B C -0.0226(3) 0.0732(2) -0.0662(3)
C3B C -0.0679(3) -0.0293(2) 0.0453(3)
H1B H -0.1141 -0.0491 0.0760
C4B C -0.1954(3) 0.0825(2) -0.0407(3)
H2B H -0.1943 0.1402 -0.0593
H3B H -0.2118 0.0778 0.0278
C5B C -0.4063(3) 0.0867(3) -0.1845(3)
H4B H -0.4265 0.0797 -0.1190
H5B H -0.3940 0.1445 -0.1920
C6B C -0.4902(3) 0.0554(2) -0.2942(3)
C7B C -0.5257(3) 0.1023(3) -0.3939(4)
H6B H -0.4986 0.1543 -0.3946
C8B C -0.6021(3) 0.0716(3) -0.4928(4)
H7B H -0.6253 0.1042 -0.5589
C9B C -0.5323(3) -0.0220(3) -0.2990(4)
H8B H -0.5103 -0.0557 -0.2340
C10B C -0.6081(3) -0.0491(3) -0.4024(4)
H9B H -0.6347 -0.1016 -0.4049
C11B C -0.0408(3) 0.1504(2) -0.1392(3)
H10B H 0.0191 0.1857 -0.1105
H11B H -0.0992 0.1804 -0.1361
C12B C -0.0986(3) 0.2166(2) -0.3679(3)
H12B H -0.1082 0.2072 -0.4480
H13B H -0.1630 0.2367 -0.3666
C13B C -0.0170(3) 0.2805(2) -0.3171(3)
C14B C -0.0278(3) 0.3401(2) -0.2429(4)
H14B H -0.0854 0.3403 -0.2238
C15B C 0.0481(4) 0.3992(3) -0.1973(4)
H15B H 0.0398 0.4382 -0.1471
C16B C 0.0709(3) 0.2834(2) -0.3423(4)
H16B H 0.0816 0.2445 -0.3910
C17B C 0.1431(3) 0.3457(2) -0.2936(4)
H17B H 0.2012 0.3473 -0.3120
N1B N -0.6444(2) -0.0030(2) -0.4981(3)
N2B N 0.1328(3) 0.4028(2) -0.2221(3)
N2C N 0.8672(3) -0.0972(2) 0.7221(3)
N2A N -0.8672(3) 0.0972(2) -0.7221(3)
S1B S -0.29017(7) 0.02746(6) -0.16235(8)
S1B_2 S 0.70983(7) 0.02746(6) 0.83765(8)
S1_2 S -0.70983(7) -0.02746(6) -0.83765(8)
S2B S -0.06589(7) 0.11888(5) -0.28851(7)
S2B_2 S 0.93411(7) 0.11888(5) 0.71149(7)
S2_2 S -0.93411(7) -0.11888(5) -0.71149(7)
Ag1B Ag -0.77053(2) -0.03692(2) -0.66816(2)
Ag1C Ag -0.22947(2) -0.53692(2) 0.16816(2)
Ag1B_2 Ag 0.22947(2) -0.03692(2) 0.33184(2)
Ag1_2 Ag -0.22947(2) 0.03692(2) -0.33184(2)
Ag1A Ag 0.22947(2) 0.53692(2) -0.16816(2)
C18 C 0.8573(5) 0.0081(5) 0.4082(6)
C19 C 0.8080(7) -0.0636(7) 0.3526(10)
H18 H 0.8582 -0.1019 0.3484
H19 H 0.7608 -0.0505 0.2757
H20 H 0.7711 -0.0875 0.3955
N3 N 0.8978(5) 0.0647(4) 0.4563(5)
C20 C 0.6189(5) -0.3230(4) 0.5436(5)
H21 H 0.5607 -0.3079 0.4728
Cl2 Cl 0.73370(15) -0.28876(11) 0.53099(19)
Cl3 Cl 0.60326(18) -0.27487(11) 0.6622(2)
Cl4 Cl 0.61969(17) -0.43049(10) 0.55928(18)
O1 O 0.7392(4) 0.2303(4) 1.2820(6)
O2 O 0.6866(4) 0.1188(3) 1.1650(5)
O3 O 0.5652(3) 0.2006(2) 1.2034(3)
O4 O 0.6514(5) 0.2493(6) 1.0890(8)
Cl1 Cl 0.66105(9) 0.19973(8) 1.18564(12)
loop_
_geom_bond_atom_site_label_1
_geom_bond_atom_site_label_2
_geom_bond_site_symmetry_1
_geom_bond_site_symmetry_2
C1 C2 1_555 1_555
C2 C11 1_555 1_555
C3 C1 1_555 1_555
H1 C3 1_555 1_555
C4 C1 1_555 1_555
H2 C4 1_555 1_555
H3 C4 1_555 1_555
C5 H4 1_555 1_555
H5 C5 1_555 1_555
C6 C5 1_555 1_555
C7 C6 1_555 1_555
H6 C7 1_555 1_555
C8 C7 1_555 1_555
H7 C8 1_555 1_555
C9 C6 1_555 1_555
H8 C9 1_555 1_555
C10 C9 1_555 1_555
H9 C10 1_555 1_555
C11 H10 1_555 1_555
H11 C11 1_555 1_555
C12 H12 1_555 1_555
H13 C12 1_555 1_555
C13 C12 1_555 1_555
C14 C13 1_555 1_555
H14 C14 1_555 1_555
C15 C14 1_555 1_555
H15 C15 1_555 1_555
C16 C13 1_555 1_555
H16 C16 1_555 1_555
C17 C16 1_555 1_555
H17 C17 1_555 1_555
C18 C19 1_555 1_555
C19 H18 1_555 1_555
H19 C19 1_555 1_555
H20 C19 1_555 1_555
C20 H21 1_555 1_555
N1 C8 1_555 1_555
N2 C15 1_555 1_555
N3 C18 1_555 1_555
O1 Cl1 1_555 1_555
O2 Cl1 1_555 1_555
O3 Cl1 1_555 1_555
O4 Cl1 1_555 1_555
S1 C4 1_555 1_555
S2 C11 1_555 1_555
Cl2 C20 1_555 1_555
Cl3 C20 1_555 1_555
Cl4 C20 1_555 1_555
Ag1 N1 1_555 1_555
C1B C2B 1_555 1_555
C2B C3 1_555 1_555
C3B C2 1_555 1_555
H1B C3B 1_555 1_555
C4B C1B 1_555 1_555
H2B C4B 1_555 1_555
H3B C4B 1_555 1_555
C5B H4B 1_555 1_555
H5B C5B 1_555 1_555
C6B C5B 1_555 1_555
C7B C6B 1_555 1_555
H6B C7B 1_555 1_555
C8B C7B 1_555 1_555
H7B C8B 1_555 1_555
C9B C6B 1_555 1_555
H8B C9B 1_555 1_555
C10B C9B 1_555 1_555
H9B C10B 1_555 1_555
C11B C2B 1_555 1_555
H10B C11B 1_555 1_555
H11B C11B 1_555 1_555
C12B H12B 1_555 1_555
H13B C12B 1_555 1_555
C13B C12B 1_555 1_555
C14B C13B 1_555 1_555
H14B C14B 1_555 1_555
C15B C14B 1_555 1_555
H15B C15B 1_555 1_555
C16B C13B 1_555 1_555
H16B C16B 1_555 1_555
C17B C16B 1_555 1_555
H17B C17B 1_555 1_555
N1B C8B 1_555 1_555
N2B C15B 1_555 1_555
N2C Ag1 1_555 1_555
N2A Ag1B 1_555 1_555
S1B C4B 1_555 1_555
S1B_2 Ag1 1_555 1_555
S1_2 Ag1B 1_555 1_555
S2B C11B 1_555 1_555
S2B_2 Ag1 1_555 1_555
S2_2 Ag1B 1_555 1_555
Ag1B N1B 1_555 1_555
Ag1C N2 1_555 1_555
Ag1B_2 S1 1_555 1_555
Ag1_2 S1B 1_555 1_555
Ag1A N2B 1_555 1_555
C5 S1 1_555 1_555
C10 N1 1_555 1_555
C12 S2 1_555 1_555
C17 N2 1_555 1_555
S2 Ag1B_2 1_555 1_555
C1B C3B 1_555 1_555
C5B S1B 1_555 1_555
C10B N1B 1_555 1_555
C12B S2B 1_555 1_555
C17B N2B 1_555 1_555
S2B Ag1_2 1_555 1_555

#END
