
#######################################################################
#
#                 Cambridge Crystallographic Data Centre
#                                CCDC 
#
#######################################################################
#
# If this CIF has been generated from an entry in the Cambridge 
# Structural Database, then it will include bibliographic, chemical, 
# crystal, experimental, refinement or atomic coordinate data resulting 
# from the CCDC's data processing and validation procedures.
#
#######################################################################

data_KIBYEA
_symmetry_cell_setting           monoclinic
_symmetry_space_group_name_H-M   'C 2/c'
_symmetry_Int_Tables_number      15
_space_group_name_Hall           '-C 2yn'
loop_
_symmetry_equiv_pos_site_id
_symmetry_equiv_pos_as_xyz
1 x,y,z
2 1/2+x,1/2+y,z
3 -x,y,1/2-z
4 1/2-x,1/2+y,1/2-z
5 -x,-y,-z
6 1/2-x,1/2-y,-z
7 x,-y,1/2+z
8 1/2+x,1/2-y,1/2+z
_cell_length_a                   20.100(11)
_cell_length_b                   22.556(13)
_cell_length_c                   14.617(9)
_cell_angle_alpha                90
_cell_angle_beta                 123.276(10)
_cell_angle_gamma                90
_cell_volume                     5540.41
loop_
_atom_site_label
_atom_site_type_symbol
_atom_site_fract_x
_atom_site_fract_y
_atom_site_fract_z
C1 C 0.2276(5) 0.0553(3) 0.1173(9)
H1 H 0.1890 0.0547 0.1338
C2 C 0.2152(4) 0.0221(3) 0.0264(8)
H2 H 0.1677 0.0018 -0.0186
C3 C 0.2750(5) 0.0204(3) 0.0058(7)
C4 C 0.3419(4) 0.0520(3) 0.0757(8)
H3 H 0.3840 0.0517 0.0661
C5 C 0.3484(5) 0.0836(4) 0.1583(8)
H4 H 0.3953 0.1044 0.2043
C6 C -0.0229(6) -0.3125(4) -0.5839(8)
H5 H -0.0192 -0.3492 -0.6097
C7 C 0.0451(5) -0.2778(6) -0.5276(8)
H6 H 0.0928 -0.2903 -0.5173
C8 C 0.0394(6) -0.2238(5) -0.4874(8)
C9 C -0.0311(5) -0.2079(4) -0.5047(8)
H7 H -0.0368 -0.1728 -0.4764
C10 C -0.0955(5) -0.2463(4) -0.5671(8)
H8 H -0.1453 -0.2342 -0.5841
C11 C 0.2893(4) -0.2105(3) 0.0838(6)
H9 H 0.3159 -0.1827 0.1395
C12 C 0.2333(4) -0.1908(3) -0.0199(8)
C13 C 0.1918(4) -0.2290(3) -0.1093(7)
C14 C 0.2194(3) -0.1239(2) -0.0374(6)
H10 H 0.1699 -0.1160 -0.1065
H11 H 0.2163 -0.1066 0.0209
C15 C 0.1334(4) -0.2129(3) -0.2260(6)
H12 H 0.0891 -0.2404 -0.2596
H13 H 0.1131 -0.1732 -0.2314
C16 C 0.2651(4) -0.0167(3) -0.0884(7)
H14 H 0.2094 -0.0184 -0.1476
H15 H 0.2945 0.0013 -0.1162
C17 C 0.1149(4) -0.1843(4) -0.4195(7)
H16 H 0.0993 -0.1459 -0.4071
H17 H 0.1388 -0.1780 -0.4611
N1 N 0.2911(4) 0.0864(3) 0.1773(6)
N2 N -0.0902(4) -0.2971(3) -0.6022(5)
S1 S 0.30306(10) -0.09184(7) -0.03753(18)
S2 S 0.18663(11) -0.21689(8) -0.29100(18)
Ag1 Ag 0.29991(3) 0.14189(2) 0.30878(6)
C1E C 0.2724(5) -0.5553(3) -0.1173(9)
H1E H 0.3110 -0.5547 -0.1338
C2E C 0.2848(4) -0.5221(3) -0.0264(8)
H2E H 0.3323 -0.5018 0.0186
C3E C 0.2250(5) -0.5204(3) -0.0058(7)
C4E C 0.1581(4) -0.5520(3) -0.0757(8)
H3E H 0.1160 -0.5517 -0.0661
C5E C 0.1516(5) -0.5836(4) -0.1583(8)
H4E H 0.1047 -0.6044 -0.2043
C6E C 0.5229(6) -0.1875(4) 0.5839(8)
H5E H 0.5192 -0.1508 0.6097
C7E C 0.4549(5) -0.2222(6) 0.5276(8)
H6E H 0.4072 -0.2097 0.5173
C8E C 0.4606(6) -0.2762(5) 0.4874(8)
C9E C 0.5311(5) -0.2921(4) 0.5047(8)
H7E H 0.5368 -0.3272 0.4764
C10E C 0.5955(5) -0.2537(4) 0.5671(8)
H8E H 0.6453 -0.2658 0.5841
C11E C 0.2107(4) -0.2895(3) -0.0838(6)
H9E H 0.1841 -0.3173 -0.1395
C12E C 0.2667(4) -0.3092(3) 0.0199(8)
C13E C 0.3082(4) -0.2710(3) 0.1093(7)
C14E C 0.2806(3) -0.3761(2) 0.0374(6)
H10E H 0.3301 -0.3840 0.1065
H11E H 0.2837 -0.3934 -0.0209
C15E C 0.3666(4) -0.2871(3) 0.2260(6)
H12E H 0.4109 -0.2596 0.2596
H13E H 0.3869 -0.3268 0.2314
C16E C 0.2349(4) -0.4833(3) 0.0884(7)
H14E H 0.2906 -0.4816 0.1476
H15E H 0.2055 -0.5013 0.1162
C17E C 0.3851(4) -0.3157(4) 0.4195(7)
H16E H 0.4007 -0.3541 0.4071
H17E H 0.3612 -0.3220 0.4611
N1E N 0.2089(4) -0.5864(3) -0.1773(6)
N2E N 0.5902(4) -0.2029(3) 0.6022(5)
N2A N 0.4098(4) 0.2029(3) 0.3978(5)
N2D N 0.0902(4) -0.7029(3) -0.3978(5)
S1E S 0.19694(10) -0.40816(7) 0.03753(18)
S1F S 0.30306(10) 0.09184(7) 0.46247(18)
S1C S 0.19694(10) -0.59184(7) -0.46247(18)
S2E S 0.31337(11) -0.28311(8) 0.29100(18)
S2F S 0.18663(11) 0.21689(8) 0.20900(18)
S2C S 0.31337(11) -0.71689(8) -0.20900(18)
Ag1E Ag 0.20009(3) -0.64189(2) -0.30878(6)
Ag1A Ag -0.20009(3) -0.35811(2) -0.69122(6)
Ag1F Ag 0.29991(3) -0.14189(2) -0.19122(6)
Ag1C Ag 0.20009(3) -0.35811(2) 0.19122(6)
Ag1D Ag 0.70009(3) -0.14189(2) 0.69122(6)
loop_
_geom_bond_atom_site_label_1
_geom_bond_atom_site_label_2
_geom_bond_site_symmetry_1
_geom_bond_site_symmetry_2
C1 H1 1_555 1_555
C2 C1 1_555 1_555
H2 C2 1_555 1_555
C3 C2 1_555 1_555
C4 C3 1_555 1_555
H3 C4 1_555 1_555
C5 C4 1_555 1_555
H4 C5 1_555 1_555
C6 H5 1_555 1_555
C7 C6 1_555 1_555
H6 C7 1_555 1_555
C8 C7 1_555 1_555
C9 C8 1_555 1_555
H7 C9 1_555 1_555
C10 C9 1_555 1_555
H8 C10 1_555 1_555
C11 H9 1_555 1_555
C12 C11 1_555 1_555
C13 C12 1_555 1_555
C14 C12 1_555 1_555
H10 C14 1_555 1_555
H11 C14 1_555 1_555
C15 C13 1_555 1_555
H12 C15 1_555 1_555
H13 C15 1_555 1_555
C16 C3 1_555 1_555
H14 C16 1_555 1_555
H15 C16 1_555 1_555
C17 C8 1_555 1_555
H16 C17 1_555 1_555
H17 C17 1_555 1_555
N1 C1 1_555 1_555
N2 C6 1_555 1_555
S1 C14 1_555 1_555
S2 C15 1_555 1_555
Ag1 N1 1_555 1_555
C1E H1E 1_555 1_555
C2E C1E 1_555 1_555
H2E C2E 1_555 1_555
C3E C2E 1_555 1_555
C4E C3E 1_555 1_555
H3E C4E 1_555 1_555
C5E C4E 1_555 1_555
H4E C5E 1_555 1_555
C6E H5E 1_555 1_555
C7E C6E 1_555 1_555
H6E C7E 1_555 1_555
C8E C7E 1_555 1_555
C9E C8E 1_555 1_555
H7E C9E 1_555 1_555
C10E C9E 1_555 1_555
H8E C10E 1_555 1_555
C11E C13 1_555 1_555
H9E C11E 1_555 1_555
C12E C11E 1_555 1_555
C13E C11 1_555 1_555
C14E C12E 1_555 1_555
H10E C14E 1_555 1_555
H11E C14E 1_555 1_555
C15E C13E 1_555 1_555
H12E C15E 1_555 1_555
H13E C15E 1_555 1_555
C16E C3E 1_555 1_555
H14E C16E 1_555 1_555
H15E C16E 1_555 1_555
C17E C8E 1_555 1_555
H16E C17E 1_555 1_555
H17E C17E 1_555 1_555
N1E C1E 1_555 1_555
N2E C6E 1_555 1_555
N2A Ag1 1_555 1_555
N2D Ag1E 1_555 1_555
S1E C14E 1_555 1_555
S1F Ag1 1_555 1_555
S1C Ag1E 1_555 1_555
S2E C15E 1_555 1_555
S2F Ag1 1_555 1_555
S2C Ag1E 1_555 1_555
Ag1E N1E 1_555 1_555
Ag1A N2 1_555 1_555
Ag1F S1 1_555 1_555
Ag1C S1E 1_555 1_555
Ag1D N2E 1_555 1_555
C5 N1 1_555 1_555
C10 N2 1_555 1_555
C16 S1 1_555 1_555
C17 S2 1_555 1_555
S2 Ag1F 1_555 1_555
C5E N1E 1_555 1_555
C10E N2E 1_555 1_555
C12E C13E 1_555 1_555
C16E S1E 1_555 1_555
C17E S2E 1_555 1_555
S2E Ag1C 1_555 1_555

#END
