
#######################################################################
#
#                 Cambridge Crystallographic Data Centre
#                                CCDC 
#
#######################################################################
#
# If this CIF has been generated from an entry in the Cambridge 
# Structural Database, then it will include bibliographic, chemical, 
# crystal, experimental, refinement or atomic coordinate data resulting 
# from the CCDC's data processing and validation procedures.
#
#######################################################################

data_KICCUW
_symmetry_cell_setting           monoclinic
_symmetry_space_group_name_H-M   'C 2/c'
_symmetry_Int_Tables_number      15
_space_group_name_Hall           '-C 2yn'
loop_
_symmetry_equiv_pos_site_id
_symmetry_equiv_pos_as_xyz
1 x,y,z
2 -x,y,1/2-z
3 1/2+x,1/2+y,z
4 1/2-x,1/2+y,1/2-z
5 -x,-y,-z
6 x,-y,1/2+z
7 1/2-x,1/2-y,-z
8 1/2+x,1/2-y,1/2+z
_cell_length_a                   24.1485(19)
_cell_length_b                   10.0999(8)
_cell_length_c                   19.5065(15)
_cell_angle_alpha                90
_cell_angle_beta                 116.7440(10)
_cell_angle_gamma                90
_cell_volume                     4248.65
loop_
_atom_site_label
_atom_site_type_symbol
_atom_site_fract_x
_atom_site_fract_y
_atom_site_fract_z
O1 O 0.44048(19) 1.1733(3) 0.1402(3)
O2 O 0.51712(14) 1.0798(3) 0.12870(19)
C1 C 0.4695(2) 1.0716(4) 0.1393(3)
C2 C 0.4479(2) 0.9397(4) 0.1520(2)
C3 C 0.4703(2) 0.8237(4) 0.1354(3)
H1 H 0.4995 0.8279 0.1165
C4 C 0.4051(2) 0.9320(4) 0.1814(2)
H2 H 0.3890 1.0096 0.1911
Cd1 Cd 0.514095(15) 0.31504(3) 0.11974(2)
O3 O 0.57950(19) 0.3405(4) 0.2514(2)
O4 O 0.45383(18) 0.4670(3) 0.1417(2)
N1 N 0.67463(17) 0.3338(4) 0.0671(2)
O5 O 0.51454(17) 0.5792(3) 0.1073(2)
O6 O 0.4478(2) 0.2965(4) -0.0105(2)
O7 O 0.1986(2) 0.6800(4) 0.3443(3)
C5 C 0.2639(2) 0.6963(4) 0.2551(3)
H3 H 0.2342 0.6299 0.2423
C6 C 0.4072(2) 0.6951(4) 0.1769(3)
H4 H 0.3930 0.6131 0.1840
C7 C 0.7125(2) 0.2908(4) 0.0322(3)
N2 N 0.60007(18) 0.3399(4) 0.1026(2)
C8 C 0.3001(2) 0.7040(4) 0.2168(3)
H5 H 0.2946 0.6427 0.1787
C9 C 0.4494(2) 0.7012(4) 0.1469(3)
C10 C 0.6220(2) 0.2763(5) 0.0611(3)
H6 H 0.6038 0.2018 0.0315
O8 O 0.2371(2) 0.8736(4) 0.3984(3)
H7 H 0.2269 0.8489 0.4312
C11 C 0.4746(2) 0.5757(4) 0.1305(3)
C12 C 0.3858(2) 0.8103(4) 0.1966(3)
C13 C 0.3447(2) 0.8027(4) 0.2350(3)
C14 C 0.7106(2) 0.1605(5) 0.0094(3)
H8 H 0.6840 0.1006 0.0158
C15 C 0.6864(2) 0.4401(4) 0.1156(3)
H9 H 0.7197 0.4985 0.1308
C16 C 0.7520(2) 0.3804(5) 0.0228(3)
H10 H 0.7532 0.4679 0.0382
C17 C 0.2713(2) 0.7865(5) 0.3122(3)
C18 C 0.2323(2) 0.7743(5) 0.3524(3)
C19 C 0.3161(2) 0.8851(5) 0.3309(3)
H11 H 0.3219 0.9454 0.3696
C20 C 0.3517(2) 0.8938(5) 0.2924(3)
H12 H 0.3808 0.9612 0.3047
C21 C 0.6402(2) 0.4434(5) 0.1369(3)
H13 H 0.6362 0.5058 0.1694
H14 H 0.4569 0.3177 -0.0447
H15 H 0.5909 0.2690 0.2819
H16 H 0.4266 0.2269 -0.0157
H17 H 0.5628 0.3853 0.2751
N1F N 0.82537(17) 0.1662(4) -0.0671(2)
C7F C 0.7875(2) 0.2092(4) -0.0322(3)
N2F N 0.89993(18) 0.1601(4) -0.1026(2)
C10F C 0.8780(2) 0.2237(5) -0.0611(3)
H6F H 0.8962 0.2982 -0.0315
C14F C 0.7894(2) 0.3395(5) -0.0094(3)
H8F H 0.8160 0.3994 -0.0158
C15F C 0.8136(2) 0.0599(4) -0.1156(3)
H9F H 0.7803 0.0015 -0.1308
C16F C 0.7480(2) 0.1196(5) -0.0228(3)
H10F H 0.7468 0.0321 -0.0382
C21F C 0.8598(2) 0.0566(5) -0.1369(3)
H13F H 0.8638 -0.0058 -0.1694
O1F O 1.05952(19) -0.6733(3) -0.1402(3)
O2F O 0.98288(14) -0.5798(3) -0.12870(19)
C1F C 1.0305(2) -0.5716(4) -0.1393(3)
C2F C 1.0521(2) -0.4397(4) -0.1520(2)
C3F C 1.0297(2) -0.3237(4) -0.1354(3)
H1F H 1.0005 -0.3279 -0.1165
C4F C 1.0949(2) -0.4320(4) -0.1814(2)
H2F H 1.1110 -0.5096 -0.1911
Cd1F Cd 0.985905(15) 0.18496(3) -0.11974(2)
O3F O 0.92050(19) 0.1595(4) -0.2514(2)
O4F O 1.04617(18) 0.0330(3) -0.1417(2)
O5F O 0.98546(17) -0.0792(3) -0.1073(2)
O6F O 1.0522(2) 0.2035(4) 0.0105(2)
O7F O 1.3014(2) -0.1800(4) -0.3443(3)
C5F C 1.2361(2) -0.1963(4) -0.2551(3)
H3F H 1.2658 -0.1299 -0.2423
C6F C 1.0928(2) -0.1951(4) -0.1769(3)
H4F H 1.1070 -0.1131 -0.1840
C8F C 1.1999(2) -0.2040(4) -0.2168(3)
H5F H 1.2054 -0.1427 -0.1787
C9F C 1.0506(2) -0.2012(4) -0.1469(3)
O8F O 1.2629(2) -0.3736(4) -0.3984(3)
H7F H 1.2731 -0.3489 -0.4312
C11F C 1.0254(2) -0.0757(4) -0.1305(3)
C12F C 1.1142(2) -0.3103(4) -0.1966(3)
C13F C 1.1553(2) -0.3027(4) -0.2350(3)
C17F C 1.2287(2) -0.2865(5) -0.3122(3)
C18F C 1.2677(2) -0.2743(5) -0.3524(3)
C19F C 1.1839(2) -0.3851(5) -0.3309(3)
H11F H 1.1781 -0.4454 -0.3696
C20F C 1.1483(2) -0.3938(5) -0.2924(3)
H12F H 1.1192 -0.4612 -0.3047
H14F H 1.0431 0.1823 0.0447
H15F H 0.9091 0.2310 -0.2819
H16F H 1.0734 0.2731 0.0157
H17F H 0.9372 0.1147 -0.2751
O1_2 O 0.44048(19) 0.1733(3) 0.1402(3)
O1F_2 O 1.05952(19) 0.3267(3) -0.1402(3)
O2_2 O 0.51712(14) 0.0798(3) 0.12870(19)
O2F_2 O 0.98288(14) 0.4202(3) -0.12870(19)
Cd1_2 Cd 0.514095(15) 1.31504(3) 0.11974(2)
Cd1F_2 Cd 0.985905(15) -0.81504(3) -0.11974(2)
O9 O 0.3372(2) 0.3346(5) 0.0371(2)
H18 H 0.3312 0.2503 0.0389
H19 H 0.3656 0.3210 0.0193
O10 O 0.9476(4) 0.5208(8) 0.9744(5)
loop_
_geom_bond_atom_site_label_1
_geom_bond_atom_site_label_2
_geom_bond_site_symmetry_1
_geom_bond_site_symmetry_2
O1 C1 1_555 1_555
O2 C1 1_555 1_555
C1 C2 1_555 1_555
C2 C3 1_555 1_555
C3 H1 1_555 1_555
C4 C2 1_555 1_555
H2 C4 1_555 1_555
Cd1 O3 1_555 1_555
O3 H15 1_555 1_555
O4 Cd1 1_555 1_555
N1 C7 1_555 1_555
O5 Cd1 1_555 1_555
O6 Cd1 1_555 1_555
O7 C18 1_555 1_555
C5 H3 1_555 1_555
C6 H4 1_555 1_555
C7 C14 1_555 1_555
N2 Cd1 1_555 1_555
C8 C5 1_555 1_555
H5 C8 1_555 1_555
C9 C3 1_555 1_555
C10 N1 1_555 1_555
H6 C10 1_555 1_555
O8 H7 1_555 1_555
C11 O4 1_555 1_555
C12 C4 1_555 1_555
C13 C8 1_555 1_555
C14 H8 1_555 1_555
C15 N1 1_555 1_555
H9 C15 1_555 1_555
C16 C7 1_555 1_555
H10 C16 1_555 1_555
C17 C5 1_555 1_555
C18 O8 1_555 1_555
C19 C17 1_555 1_555
H11 C19 1_555 1_555
C20 C13 1_555 1_555
H12 C20 1_555 1_555
C21 N2 1_555 1_555
H13 C21 1_555 1_555
H14 O6 1_555 1_555
H16 O6 1_555 1_555
H17 O3 1_555 1_555
O9 H18 1_555 1_555
H19 O9 1_555 1_555
N1F C7F 1_555 1_555
C7F C14F 1_555 1_555
N2F C10F 1_555 1_555
C10F N1F 1_555 1_555
H6F C10F 1_555 1_555
C14F C16 1_555 1_555
H8F C14F 1_555 1_555
C15F N1F 1_555 1_555
H9F C15F 1_555 1_555
C16F C14 1_555 1_555
H10F C16F 1_555 1_555
C21F N2F 1_555 1_555
H13F C21F 1_555 1_555
O1F C1F 1_555 1_555
O2F C1F 1_555 1_555
C1F C2F 1_555 1_555
C2F C3F 1_555 1_555
C3F H1F 1_555 1_555
C4F C2F 1_555 1_555
H2F C4F 1_555 1_555
Cd1F N2F 1_555 1_555
O3F Cd1F 1_555 1_555
O4F Cd1F 1_555 1_555
O5F Cd1F 1_555 1_555
O6F Cd1F 1_555 1_555
O7F C18F 1_555 1_555
C5F H3F 1_555 1_555
C6F H4F 1_555 1_555
C8F C5F 1_555 1_555
H5F C8F 1_555 1_555
C9F C3F 1_555 1_555
O8F H7F 1_555 1_555
C11F O4F 1_555 1_555
C12F C4F 1_555 1_555
C13F C8F 1_555 1_555
C17F C5F 1_555 1_555
C18F O8F 1_555 1_555
C19F C17F 1_555 1_555
H11F C19F 1_555 1_555
C20F C13F 1_555 1_555
H12F C20F 1_555 1_555
H14F O6F 1_555 1_555
H15F O3F 1_555 1_555
H16F O6F 1_555 1_555
H17F O3F 1_555 1_555
O1_2 Cd1 1_555 1_555
O1F_2 Cd1F 1_555 1_555
O2_2 Cd1 1_555 1_555
O2F_2 Cd1F 1_555 1_555
Cd1_2 O1 1_555 1_555
Cd1F_2 O1F 1_555 1_555
O2 Cd1_2 1_555 1_555
O5 C11 1_555 1_555
C6 C9 1_555 1_555
C6 C12 1_555 1_555
N2 C10 1_555 1_555
C9 C11 1_555 1_555
C12 C13 1_555 1_555
C15 C21 1_555 1_555
C17 C18 1_555 1_555
C19 C20 1_555 1_555
C7F C16F 1_555 1_555
C15F C21F 1_555 1_555
O2F Cd1F_2 1_555 1_555
O5F C11F 1_555 1_555
C6F C9F 1_555 1_555
C6F C12F 1_555 1_555
C9F C11F 1_555 1_555
C12F C13F 1_555 1_555
C17F C18F 1_555 1_555
C19F C20F 1_555 1_555

#END
