
#######################################################################
#
#                 Cambridge Crystallographic Data Centre
#                                CCDC 
#
#######################################################################
#
# If this CIF has been generated from an entry in the Cambridge 
# Structural Database, then it will include bibliographic, chemical, 
# crystal, experimental, refinement or atomic coordinate data resulting 
# from the CCDC's data processing and validation procedures.
#
#######################################################################

data_KICDAD
_symmetry_cell_setting           monoclinic
_symmetry_space_group_name_H-M   'P 21/c'
_symmetry_Int_Tables_number      14
_space_group_name_Hall           '-P 2ybc'
loop_
_symmetry_equiv_pos_site_id
_symmetry_equiv_pos_as_xyz
1 x,y,z
2 -x,1/2+y,1/2-z
3 -x,-y,-z
4 x,1/2-y,1/2+z
_cell_length_a                   12.7251(12)
_cell_length_b                   11.7807(11)
_cell_length_c                   26.982(3)
_cell_angle_alpha                90
_cell_angle_beta                 100.119(2)
_cell_angle_gamma                90
_cell_volume                     3981.97
loop_
_atom_site_label
_atom_site_type_symbol
_atom_site_fract_x
_atom_site_fract_y
_atom_site_fract_z
Mn1 Mn 0.12069(3) 0.30480(4) 0.140520(16)
Mn2 Mn 0.03970(3) 0.09207(3) 0.414054(15)
Mn3 Mn 0.22914(3) 0.19165(4) 0.350582(16)
C1 C 0.4333(2) 0.1799(2) 0.38605(11)
C2 C -0.0543(2) 0.3575(2) 0.24511(10)
H1 H 0.0185 0.3618 0.2446
C3 C -0.2369(2) 0.3927(2) 0.20546(11)
H2 H -0.2850 0.4251 0.1794
C4 C -0.0886(2) 0.4597(2) 0.16300(10)
C5 C 0.5506(2) 0.1880(2) 0.40622(11)
C6 C -0.1994(2) 0.2963(2) 0.28485(11)
H3 H -0.2229 0.2622 0.3120
C7 C 0.7293(2) 0.1140(2) 0.41820(10)
C8 C 0.6201(2) 0.1013(2) 0.40037(11)
H4 H 0.5942 0.0343 0.3845
C9 C -0.0908(2) 0.3070(2) 0.28548(10)
C10 C -0.0115(2) 0.2591(2) 0.32799(10)
C11 C -0.5765(2) 0.3681(3) 0.21474(11)
H5 H -0.6266 0.4163 0.1963
C12 C 0.9081(2) 0.1659(3) 0.13556(12)
H6 H 0.8844 0.1954 0.1036
C13 C 0.3336(2) 0.1887(3) 0.12024(12)
H7 H 0.3563 0.2559 0.1074
C14 C -0.4262(2) 0.2242(3) 0.26803(12)
H8 H -0.3765 0.1741 0.2854
C15 C 0.6764(2) 0.4706(3) 0.50431(13)
H9 H 0.6106 0.4422 0.5089
C16 C 0.7309(2) 0.1015(3) 0.15172(12)
C17 C 0.8074(2) 0.0223(2) 0.41169(10)
C18 C -0.2748(2) 0.3358(2) 0.24409(10)
C19 C -0.4690(2) 0.3859(2) 0.21503(11)
H10 H -0.4479 0.4459 0.1966
C20 C 0.5891(2) 0.2884(2) 0.43020(12)
H11 H 0.5416 0.3469 0.4334
C21 C -0.6103(2) 0.2788(2) 0.24167(10)
C22 C -0.5336(2) 0.2071(3) 0.26786(12)
H12 H -0.5550 0.1463 0.2857
C23 C 0.7364(2) 0.4098(2) 0.47517(12)
C24 C 0.5112(2) 0.0947(2) 0.13697(12)
C25 C 0.6971(2) 0.3027(2) 0.44946(11)
C26 C 0.6722(2) 0.1799(3) 0.12082(13)
H13 H 0.7067 0.2356 0.1053
C27 C 0.8088(2) 0.6169(2) 0.51928(11)
C28 C 0.8476(2) 0.7296(2) 0.54148(10)
C29 C -0.3914(2) 0.3158(2) 0.24237(10)
C30 C 0.8698(2) 0.5575(3) 0.49049(12)
H14 H 0.9346 0.5873 0.4853
C31 C 0.6800(2) 0.0177(3) 0.17376(14)
H15 H 0.7198 -0.0374 0.1934
C32 C 0.3355(2) 0.0181(3) 0.15091(13)
H16 H 0.3569 -0.0537 0.1631
C33 C 0.5691(2) 0.0149(3) 0.16687(14)
H17 H 0.5346 -0.0408 0.1825
C34 C 1.0076(2) 0.1185(3) 0.20479(12)
H18 H 1.0675 0.1094 0.2298
C35 C 0.7122(2) 0.5722(3) 0.52667(12)
H19 H 0.6714 0.6105 0.5467
C36 C -0.1276(2) 0.4014(2) 0.20548(10)
C37 C 0.8351(2) 0.4538(3) 0.46925(12)
H20 H 0.8780 0.4134 0.4509
C38 C 0.9091(2) 0.0810(3) 0.20770(13)
H21 H 0.8887 0.0423 0.2345
C39 C 0.7665(2) 0.2150(2) 0.44261(11)
H22 H 0.8392 0.2237 0.4545
C40 C -0.7264(2) 0.2614(2) 0.24404(10)
C41 C 0.5617(3) 0.1759(3) 0.11283(14)
H23 H 0.5219 0.2278 0.0913
C42 C 0.2368(2) 0.0636(3) 0.14685(13)
H24 H 0.1780 0.0273 0.1559
H25 H 0.0458(15) 0.2736(13) 0.0363(8)
H26 H 0.127(2) -0.038(3) 0.5006(12)
N1 N 0.23615(19) 0.1708(2) 0.12759(10)
N2 N 0.39756(18) 0.0984(2) 0.13349(9)
N3 N 1.00708(19) 0.1721(2) 0.15961(10)
N4 N 0.84457(19) 0.1110(2) 0.16337(10)
O1 O -0.00020(15) 0.43651(16) 0.15115(7)
O2 O -0.14700(15) 0.53573(16) 0.13863(7)
O3 O 0.90001(14) 0.03133(16) 0.43863(7)
O4 O 0.77907(15) -0.05767(17) 0.38234(8)
O5 O -0.79498(15) 0.31913(18) 0.21606(8)
O6 O 0.93323(17) 0.76919(18) 0.53118(8)
O7 O 0.79520(18) 0.78152(18) 0.56969(8)
O8 O 0.39008(15) 0.08338(17) 0.37779(8)
O9 O 0.38120(16) 0.27047(19) 0.37741(9)
O10 O -0.74782(16) 0.18827(18) 0.27547(8)
O11 O -0.04698(16) 0.19807(18) 0.35943(8)
O12 O 0.08561(16) 0.28112(19) 0.32872(8)
O13 O 0.12922(16) -0.03599(18) 0.46387(8)
H27 H 0.1927 -0.0322 0.4619
O14 O 0.02196(18) 0.28779(18) 0.06409(8)
H28 H -0.0083 0.3481 0.0559
Mn1_2 Mn -0.87931(3) 0.30480(4) 0.140520(16)
Mn1_3 Mn 1.12069(3) 0.30480(4) 0.140520(16)
Mn1A Mn 0.87931(3) -0.19520(4) 0.359480(16)
Mn2_2 Mn 1.03970(3) 0.09207(3) 0.414054(15)
Mn2A Mn -0.03970(3) 0.59207(3) 0.085946(15)
Mn2B Mn 0.96030(3) 0.90793(3) 0.585946(15)
Mn3_2 Mn -0.77086(3) 0.19165(4) 0.350582(16)
Mn3A Mn -0.22914(3) 0.69165(4) 0.149418(16)
Mn3B Mn 0.77086(3) 0.80835(4) 0.649418(16)
N3_2 N 0.00708(19) 0.1721(2) 0.15961(10)
O2A O 0.14700(15) 0.03573(16) 0.36137(7)
O3_2 O -0.09999(14) 0.03133(16) 0.43863(7)
O4A O 0.22093(15) 0.44233(17) 0.11766(8)
O5_2 O 0.20502(15) 0.31913(18) 0.21606(8)
O6B O 0.06677(17) 0.23081(18) 0.46882(8)
O7B O 0.20480(18) 0.21848(18) 0.43031(8)
O10_2 O 0.25218(16) 0.18827(18) 0.27547(8)
H29 H 0.5970 0.4454 0.0209
H30 H 0.6370 0.4650 0.0695
O15 O 0.6567(2) 0.4398(3) 0.04608(13)
H31 H 0.6552 0.6782 0.9936
H32 H 0.6000 0.5823 0.9939
O16 O 0.5776(4) 0.6467(4) 0.98268(18)
loop_
_geom_bond_atom_site_label_1
_geom_bond_atom_site_label_2
_geom_bond_site_symmetry_1
_geom_bond_site_symmetry_2
Mn1 N1 1_555 1_555
Mn2 O11 1_555 1_555
Mn3 O8 1_555 1_555
C1 C5 1_555 1_555
C2 H1 1_555 1_555
C3 H2 1_555 1_555
C4 C36 1_555 1_555
C5 C8 1_555 1_555
C6 H3 1_555 1_555
C7 C8 1_555 1_555
C8 H4 1_555 1_555
C9 C2 1_555 1_555
C10 C9 1_555 1_555
C11 H5 1_555 1_555
C12 H6 1_555 1_555
C13 H7 1_555 1_555
C14 H8 1_555 1_555
C15 H9 1_555 1_555
C16 C26 1_555 1_555
C17 C7 1_555 1_555
C18 C3 1_555 1_555
C19 C11 1_555 1_555
H10 C19 1_555 1_555
C20 C5 1_555 1_555
H11 C20 1_555 1_555
C21 C11 1_555 1_555
C22 C14 1_555 1_555
H12 C22 1_555 1_555
C23 C15 1_555 1_555
C24 C33 1_555 1_555
C25 C20 1_555 1_555
C26 H13 1_555 1_555
C27 C28 1_555 1_555
C28 O6 1_555 1_555
C29 C14 1_555 1_555
C30 C27 1_555 1_555
H14 C30 1_555 1_555
C31 C16 1_555 1_555
H15 C31 1_555 1_555
C32 H16 1_555 1_555
C33 C31 1_555 1_555
H17 C33 1_555 1_555
C34 H18 1_555 1_555
C35 C15 1_555 1_555
H19 C35 1_555 1_555
C36 C2 1_555 1_555
C37 C23 1_555 1_555
H20 C37 1_555 1_555
C38 C34 1_555 1_555
H21 C38 1_555 1_555
C39 C7 1_555 1_555
H22 C39 1_555 1_555
C40 C21 1_555 1_555
C41 C24 1_555 1_555
H23 C41 1_555 1_555
C42 C32 1_555 1_555
H24 C42 1_555 1_555
H25 O14 1_555 1_555
H26 O13 1_555 1_555
N1 C13 1_555 1_555
N2 C13 1_555 1_555
N3 C12 1_555 1_555
N4 C12 1_555 1_555
O1 Mn1 1_555 1_555
O2 C4 1_555 1_555
O3 C17 1_555 1_555
O4 C17 1_555 1_555
O5 C40 1_555 1_555
O6 Mn2B 1_555 1_555
O7 C28 1_555 1_555
O8 C1 1_555 1_555
O9 Mn3 1_555 1_555
O10 C40 1_555 1_555
O11 C10 1_555 1_555
O12 Mn3 1_555 1_555
O13 Mn2 1_555 1_555
H27 O13 1_555 1_555
O14 Mn1 1_555 1_555
H28 O14 1_555 1_555
H29 O15 1_555 1_555
H30 O15 1_555 1_555
H31 O16 1_555 1_555
H32 O16 1_555 1_555
Mn1_2 O5 1_555 1_555
Mn1_3 N3 1_555 1_555
Mn1A O4 1_555 1_555
Mn2_2 O3 1_555 1_555
Mn2A O2 1_555 1_555
Mn3_2 O10 1_555 1_555
Mn3A O2 1_555 1_555
Mn3B O7 1_555 1_555
N3_2 Mn1 1_555 1_555
O2A Mn2 1_555 1_555
O3_2 Mn2 1_555 1_555
O4A Mn1 1_555 1_555
O5_2 Mn1 1_555 1_555
O6B Mn2 1_555 1_555
O7B Mn3 1_555 1_555
O10_2 Mn3 1_555 1_555
Mn3 O2A 1_555 1_555
C1 O9 1_555 1_555
C3 C36 1_555 1_555
C4 O1 1_555 1_555
C6 C9 1_555 1_555
C6 C18 1_555 1_555
C10 O12 1_555 1_555
C16 N4 1_555 1_555
C18 C29 1_555 1_555
C19 C29 1_555 1_555
C21 C22 1_555 1_555
C23 C25 1_555 1_555
C24 N2 1_555 1_555
C25 C39 1_555 1_555
C26 C41 1_555 1_555
C27 C35 1_555 1_555
C30 C37 1_555 1_555
C32 N2 1_555 1_555
C34 N3 1_555 1_555
C38 N4 1_555 1_555
C42 N1 1_555 1_555

#END
