
#######################################################################
#
#                 Cambridge Crystallographic Data Centre
#                                CCDC 
#
#######################################################################
#
# If this CIF has been generated from an entry in the Cambridge 
# Structural Database, then it will include bibliographic, chemical, 
# crystal, experimental, refinement or atomic coordinate data resulting 
# from the CCDC's data processing and validation procedures.
#
#######################################################################

data_KICGIN
_symmetry_cell_setting           monoclinic
_symmetry_space_group_name_H-M   'P 21'
_symmetry_Int_Tables_number      4
_space_group_name_Hall           'P 2yb'
loop_
_symmetry_equiv_pos_site_id
_symmetry_equiv_pos_as_xyz
1 x,y,z
2 -x,1/2+y,-z
_cell_length_a                   8.0988(11)
_cell_length_b                   15.595(2)
_cell_length_c                   20.110(3)
_cell_angle_alpha                90
_cell_angle_beta                 96.452(2)
_cell_angle_gamma                90
_cell_volume                     2523.82
loop_
_atom_site_label
_atom_site_type_symbol
_atom_site_fract_x
_atom_site_fract_y
_atom_site_fract_z
Eu1 Eu -0.21341(5) 0.23986(3) 0.24757(2)
Eu2 Eu -0.73803(5) 0.19521(3) 0.26015(2)
O1 O -0.3791(8) 0.3614(5) 0.2456(4)
O2 O -0.6425(10) 0.3233(5) 0.2280(4)
O3 O -0.1255(9) 0.3227(5) 0.1557(3)
O4 O 0.0382(7) 0.2140(5) 0.1739(3)
O5 O 0.0408(7) 0.2948(5) 0.2995(3)
O6 O 0.2572(8) 0.2568(5) 0.3696(3)
O7 O -0.6167(9) 0.1288(6) 0.1768(3)
O8 O -0.3621(8) 0.1670(5) 0.1612(3)
O9 O -0.0842(15) 0.1112(6) 0.2783(4)
O10 O 0.1707(12) 0.0594(6) 0.2881(5)
O11 O -0.4574(7) 0.1732(4) 0.3098(3)
O12 O -0.2453(7) 0.2391(6) 0.3641(3)
C1 C -0.5320(12) 0.3777(8) 0.2307(5)
C2 C -0.5801(11) 0.4705(7) 0.2153(5)
C3 C -0.4778(14) 0.5331(8) 0.1979(5)
C4 C -0.5485(17) 0.6139(8) 0.1816(7)
H1 H -0.4809 0.6559 0.1661
C5 C -0.7090(18) 0.6340(10) 0.1869(7)
C6 C -0.8116(18) 0.5690(13) 0.2048(8)
H2 H -0.9232 0.5805 0.2078
C7 C -0.7524(14) 0.4890(9) 0.2179(6)
H3 H -0.8240 0.4458 0.2286
C8 C -0.2987(17) 0.5199(10) 0.1909(9)
H4 H -0.2384 0.5103 0.2342
H5 H -0.2556 0.5698 0.1709
H6 H -0.2866 0.4709 0.1629
C9 C -0.776(2) 0.7266(11) 0.1676(8)
H7 H -0.6849 0.7627 0.1586
H8 H -0.8283 0.7503 0.2040
H9 H -0.8552 0.7233 0.1285
C10 C -0.0180(11) 0.2756(7) 0.1356(5)
C11 C 0.0440(11) 0.2869(9) 0.0687(5)
C12 C 0.0256(14) 0.3591(11) 0.0335(7)
C13 C 0.0788(16) 0.3602(12) -0.0325(6)
H10 H 0.0670 0.4095 -0.0586
C14 C 0.1470(17) 0.2875(14) -0.0560(6)
C15 C 0.1642(18) 0.2140(11) -0.0177(7)
H11 H 0.2106 0.1656 -0.0353
C16 C 0.1173(13) 0.2098(11) 0.0428(6)
H12 H 0.1303 0.1598 0.0681
C17 C -0.0351(17) 0.4397(10) 0.0572(6)
H13 H -0.1464 0.4323 0.0683
H14 H -0.0344 0.4823 0.0227
H15 H 0.0353 0.4580 0.0962
C18 C 0.207(2) 0.2929(12) -0.1238(8)
H16 H 0.3222 0.2764 -0.1205
H17 H 0.1955 0.3506 -0.1402
H18 H 0.1428 0.2550 -0.1541
C19 C 0.1296(11) 0.3034(7) 0.3567(5)
C20 C 0.0868(11) 0.3704(7) 0.4032(5)
C21 C -0.0261(14) 0.4336(8) 0.3796(6)
H19 H -0.0729 0.4315 0.3352
C22 C -0.0701(14) 0.4981(8) 0.4192(7)
H20 H -0.1464 0.5392 0.4019
C23 C -0.0017(14) 0.5032(8) 0.4859(6)
C24 C 0.1086(14) 0.4413(8) 0.5099(6)
H21 H 0.1543 0.4438 0.5543
C25 C 0.1538(12) 0.3758(7) 0.4708(5)
C26 C -0.0462(15) 0.5752(9) 0.5303(7)
H22 H -0.1102 0.6174 0.5038
H23 H 0.0536 0.6012 0.5515
H24 H -0.1104 0.5531 0.5638
C27 C 0.2788(16) 0.3092(8) 0.5036(6)
H25 H 0.3125 0.3253 0.5491
H26 H 0.3744 0.3072 0.4794
H27 H 0.2271 0.2537 0.5025
C28 C -0.4912(12) 0.1207(7) 0.1481(4)
C29 C -0.4952(12) 0.0537(8) 0.0947(5)
C30 C -0.4006(13) 0.0603(8) 0.0414(6)
C31 C -0.4121(16) -0.0031(11) -0.0083(6)
H28 H -0.3577 0.0049 -0.0461
C32 C -0.500(2) -0.0757(11) -0.0024(8)
C33 C -0.5964(16) -0.0775(9) 0.0491(7)
H29 H -0.6680 -0.1238 0.0514
C34 C -0.5946(15) -0.0159(8) 0.0976(6)
H30 H -0.6608 -0.0217 0.1322
C35 C -0.296(2) 0.1342(15) 0.0283(10)
H31 H -0.3189 0.1510 -0.0178
H32 H -0.1811 0.1188 0.0376
H33 H -0.3200 0.1812 0.0565
C36 C -0.5017(19) -0.1437(11) -0.0554(7)
H34 H -0.5307 -0.1978 -0.0372
H35 H -0.3935 -0.1476 -0.0704
H36 H -0.5819 -0.1290 -0.0925
C37 C 0.0207(19) 0.0491(8) 0.2865(5)
C38 C -0.0542(14) -0.0365(7) 0.2961(5)
C39 C -0.2337(19) -0.0424(11) 0.2846(8)
H37 H -0.2928 0.0072 0.2721
C40 C -0.315(3) -0.1107(16) 0.2903(10)
H38 H -0.4305 -0.1112 0.2831
C41 C -0.226(2) -0.1848(11) 0.3078(7)
C42 C -0.0581(18) -0.1894(9) 0.3176(6)
H39 H -0.0036 -0.2409 0.3283
C43 C 0.0335(16) -0.1098(8) 0.3107(6)
C44 C -0.315(3) -0.2734(14) 0.3159(10)
H40 H -0.3964 -0.2827 0.2782
H41 H -0.3679 -0.2729 0.3562
H42 H -0.2339 -0.3187 0.3182
C45 C 0.2119(18) -0.1185(11) 0.3159(9)
H43 H 0.2520 -0.0952 0.2765
H44 H 0.2412 -0.1781 0.3199
H45 H 0.2612 -0.0881 0.3546
C46 C -0.3692(10) 0.1912(8) 0.3649(5)
C47 C -0.4027(10) 0.1500(7) 0.4285(5)
C48 C -0.4899(13) 0.0751(8) 0.4259(6)
H46 H -0.5354 0.0549 0.3844
C49 C -0.5138(14) 0.0278(9) 0.4823(7)
H47 H -0.5702 -0.0243 0.4788
C50 C -0.4500(14) 0.0608(10) 0.5449(5)
C51 C -0.3694(13) 0.1380(8) 0.5478(5)
H48 H -0.3297 0.1600 0.5895
C52 C -0.3442(11) 0.1848(8) 0.4914(5)
C53 C -0.2521(15) 0.2667(9) 0.5017(6)
H49 H -0.2573 0.2864 0.5467
H50 H -0.3012 0.3088 0.4707
H51 H -0.1382 0.2579 0.4944
C54 C -0.4686(16) 0.0061(10) 0.6084(6)
H52 H -0.4003 -0.0442 0.6081
H53 H -0.5827 -0.0107 0.6085
H54 H -0.4344 0.0393 0.6477
Eu2_2 Eu 0.26197(5) 0.19521(3) 0.26015(2)
O4_2 O -0.9618(7) 0.2140(5) 0.1739(3)
O5_2 O -0.9592(7) 0.2948(5) 0.2995(3)
O6_2 O -0.7428(8) 0.2568(5) 0.3696(3)
O10_2 O -0.8293(12) 0.0594(6) 0.2881(5)
loop_
_geom_bond_atom_site_label_1
_geom_bond_atom_site_label_2
_geom_bond_site_symmetry_1
_geom_bond_site_symmetry_2
Eu1 O1 1_555 1_555
Eu2 O2 1_555 1_555
O1 C1 1_555 1_555
O2 C1 1_555 1_555
O3 Eu1 1_555 1_555
O4 Eu1 1_555 1_555
O5 Eu1 1_555 1_555
O6 C19 1_555 1_555
O7 Eu2 1_555 1_555
O8 Eu1 1_555 1_555
O9 Eu1 1_555 1_555
O10 C37 1_555 1_555
O11 Eu1 1_555 1_555
O12 Eu1 1_555 1_555
C1 C2 1_555 1_555
C2 C3 1_555 1_555
C3 C4 1_555 1_555
C4 H1 1_555 1_555
C5 C4 1_555 1_555
C6 C5 1_555 1_555
H2 C6 1_555 1_555
C7 C2 1_555 1_555
H3 C7 1_555 1_555
C8 C3 1_555 1_555
H4 C8 1_555 1_555
H5 C8 1_555 1_555
H6 C8 1_555 1_555
C9 C5 1_555 1_555
H7 C9 1_555 1_555
H8 C9 1_555 1_555
H9 C9 1_555 1_555
C10 O3 1_555 1_555
C11 C10 1_555 1_555
C12 C11 1_555 1_555
C13 C12 1_555 1_555
H10 C13 1_555 1_555
C14 C13 1_555 1_555
C15 C14 1_555 1_555
H11 C15 1_555 1_555
C16 C11 1_555 1_555
H12 C16 1_555 1_555
C17 C12 1_555 1_555
H13 C17 1_555 1_555
H14 C17 1_555 1_555
H15 C17 1_555 1_555
C18 C14 1_555 1_555
H16 C18 1_555 1_555
H17 C18 1_555 1_555
H18 C18 1_555 1_555
C19 O5 1_555 1_555
C20 C19 1_555 1_555
C21 C20 1_555 1_555
H19 C21 1_555 1_555
C22 C21 1_555 1_555
H20 C22 1_555 1_555
C23 C22 1_555 1_555
C24 C23 1_555 1_555
H21 C24 1_555 1_555
C25 C20 1_555 1_555
C26 C23 1_555 1_555
H22 C26 1_555 1_555
H23 C26 1_555 1_555
H24 C26 1_555 1_555
C27 C25 1_555 1_555
H25 C27 1_555 1_555
H26 C27 1_555 1_555
H27 C27 1_555 1_555
C28 O7 1_555 1_555
C29 C28 1_555 1_555
C30 C29 1_555 1_555
C31 C30 1_555 1_555
H28 C31 1_555 1_555
C32 C31 1_555 1_555
C33 C32 1_555 1_555
H29 C33 1_555 1_555
C34 C29 1_555 1_555
H30 C34 1_555 1_555
C35 C30 1_555 1_555
H31 C35 1_555 1_555
H32 C35 1_555 1_555
H33 C35 1_555 1_555
C36 C32 1_555 1_555
H34 C36 1_555 1_555
H35 C36 1_555 1_555
H36 C36 1_555 1_555
C37 O9 1_555 1_555
C38 C37 1_555 1_555
C39 C38 1_555 1_555
H37 C39 1_555 1_555
C40 C39 1_555 1_555
H38 C40 1_555 1_555
C41 C40 1_555 1_555
C42 C41 1_555 1_555
H39 C42 1_555 1_555
C43 C38 1_555 1_555
C44 C41 1_555 1_555
H40 C44 1_555 1_555
H41 C44 1_555 1_555
H42 C44 1_555 1_555
C45 C43 1_555 1_555
H43 C45 1_555 1_555
H44 C45 1_555 1_555
H45 C45 1_555 1_555
C46 O11 1_555 1_555
C47 C46 1_555 1_555
C48 C47 1_555 1_555
H46 C48 1_555 1_555
C49 C48 1_555 1_555
H47 C49 1_555 1_555
C50 C49 1_555 1_555
C51 C50 1_555 1_555
H48 C51 1_555 1_555
C52 C47 1_555 1_555
C53 C52 1_555 1_555
H49 C53 1_555 1_555
H50 C53 1_555 1_555
H51 C53 1_555 1_555
C54 C50 1_555 1_555
H52 C54 1_555 1_555
H53 C54 1_555 1_555
H54 C54 1_555 1_555
Eu2_2 O4 1_555 1_555
O4_2 Eu2 1_555 1_555
O5_2 Eu2 1_555 1_555
O6_2 Eu2 1_555 1_555
O10_2 Eu2 1_555 1_555
Eu2 O11 1_555 1_555
O4 C10 1_555 1_555
O5 Eu2_2 1_555 1_555
O6 Eu2_2 1_555 1_555
O8 C28 1_555 1_555
O10 Eu2_2 1_555 1_555
O12 C46 1_555 1_555
C6 C7 1_555 1_555
C15 C16 1_555 1_555
C24 C25 1_555 1_555
C33 C34 1_555 1_555
C42 C43 1_555 1_555
C51 C52 1_555 1_555

#END
