
#######################################################################
#
#                 Cambridge Crystallographic Data Centre
#                                CCDC 
#
#######################################################################
#
# If this CIF has been generated from an entry in the Cambridge 
# Structural Database, then it will include bibliographic, chemical, 
# crystal, experimental, refinement or atomic coordinate data resulting 
# from the CCDC's data processing and validation procedures.
#
#######################################################################

data_KICLIT
_symmetry_cell_setting           monoclinic
_symmetry_space_group_name_H-M   'P 21/c'
_symmetry_Int_Tables_number      14
_space_group_name_Hall           '-P 2ybc'
loop_
_symmetry_equiv_pos_site_id
_symmetry_equiv_pos_as_xyz
1 x,y,z
2 -x,1/2+y,1/2-z
3 -x,-y,-z
4 x,1/2-y,1/2+z
_cell_length_a                   16.7262(10)
_cell_length_b                   8.7327(5)
_cell_length_c                   10.9737(7)
_cell_angle_alpha                90
_cell_angle_beta                 91.995(6)
_cell_angle_gamma                90
_cell_volume                     1601.9
loop_
_atom_site_label
_atom_site_type_symbol
_atom_site_fract_x
_atom_site_fract_y
_atom_site_fract_z
Nd1 Nd 0.46228(3) 1.06812(6) 0.65922(5)
O1 O 0.4365(5) 0.5461(8) 0.6766(7)
O2 O 0.4606(4) 0.7913(8) 0.7074(6)
O3 O 0.4305(4) 0.9358(8) 0.4761(7)
O4 O 0.4226(5) 1.2932(9) 0.5462(7)
O5 O 0.3691(4) 1.1685(9) 0.8159(7)
O6 O 0.3148(4) 1.0389(9) 0.6654(7)
O7 O 0.1661(5) 0.9708(10) 0.6499(8)
H1 H 0.2103 0.9852 0.6177
C1 C 0.4226(6) 0.6853(12) 0.6480(9)
C2 C 0.3604(6) 0.7198(12) 0.5534(10)
C3 C 0.3652(6) 0.8453(12) 0.4744(9)
C4 C 0.2998(6) 0.8796(13) 0.3956(9)
H2 H 0.3038 0.9620 0.3397
C5 C 0.2297(6) 0.7964(13) 0.3975(10)
C6 C 0.2263(6) 0.6682(14) 0.4733(10)
H3 H 0.1791 0.6078 0.4732
C7 C 0.2911(6) 0.6286(12) 0.5482(9)
H4 H 0.2888 0.5388 0.5967
C8 C 0.1581(6) 0.8449(15) 0.3203(11)
H5 H 0.1277 0.9222 0.3641
H6 H 0.1239 0.7558 0.3031
H7 H 0.1759 0.8882 0.2435
C9 C 0.3076(6) 1.1147(12) 0.7620(10)
C10 C 0.2255(6) 1.1380(13) 0.8051(10)
C11 C 0.1594(6) 1.0654(12) 0.7446(11)
C12 C 0.0831(7) 1.0862(13) 0.7906(11)
H8 H 0.0383 1.0392 0.7503
C13 C 0.0718(7) 1.1731(14) 0.8925(10)
C14 C 0.1377(7) 1.2449(14) 0.9514(10)
H9 H 0.1298 1.3059 1.0217
C15 C 0.2131(7) 1.2279(13) 0.9088(10)
H10 H 0.2571 1.2770 0.9494
C16 C -0.0101(7) 1.1928(17) 0.9430(12)
H11 H -0.0474 1.1208 0.9027
H12 H -0.0287 1.2979 0.9283
H13 H -0.0076 1.1725 1.0309
Nd1B Nd 0.53772(3) 0.93188(6) 0.34078(5)
Nd1A Nd 0.53772(3) 0.56812(6) 0.84078(5)
O1A O 0.5635(5) 1.0461(8) 0.8234(7)
O2A O 0.5394(4) 1.2913(8) 0.7926(6)
O3B O 0.5695(4) 1.0642(8) 0.5239(7)
loop_
_geom_bond_atom_site_label_1
_geom_bond_atom_site_label_2
_geom_bond_site_symmetry_1
_geom_bond_site_symmetry_2
Nd1 O2 1_555 1_555
O1 C1 1_555 1_555
O2 C1 1_555 1_555
O3 Nd1 1_555 1_555
O4 Nd1 1_555 1_555
O5 Nd1 1_555 1_555
O6 Nd1 1_555 1_555
O7 H1 1_555 1_555
C1 C2 1_555 1_555
C2 C3 1_555 1_555
C3 O3 1_555 1_555
C4 C3 1_555 1_555
H2 C4 1_555 1_555
C5 C4 1_555 1_555
C6 C5 1_555 1_555
H3 C6 1_555 1_555
C7 C2 1_555 1_555
H4 C7 1_555 1_555
C8 C5 1_555 1_555
H5 C8 1_555 1_555
H6 C8 1_555 1_555
H7 C8 1_555 1_555
C9 O5 1_555 1_555
C10 C9 1_555 1_555
C11 O7 1_555 1_555
C12 C11 1_555 1_555
H8 C12 1_555 1_555
C13 C12 1_555 1_555
C14 C13 1_555 1_555
H9 C14 1_555 1_555
C15 C10 1_555 1_555
H10 C15 1_555 1_555
C16 C13 1_555 1_555
H11 C16 1_555 1_555
H12 C16 1_555 1_555
H13 C16 1_555 1_555
Nd1B O3 1_555 1_555
Nd1A O1 1_555 1_555
O1A Nd1 1_555 1_555
O2A Nd1 1_555 1_555
O3B Nd1 1_555 1_555
O2 Nd1A 1_555 1_555
O6 C9 1_555 1_555
C6 C7 1_555 1_555
C10 C11 1_555 1_555
C14 C15 1_555 1_555
Nd1B O3B 1_555 1_555

#END
