
#######################################################################
#
#                 Cambridge Crystallographic Data Centre
#                                CCDC 
#
#######################################################################
#
# If this CIF has been generated from an entry in the Cambridge 
# Structural Database, then it will include bibliographic, chemical, 
# crystal, experimental, refinement or atomic coordinate data resulting 
# from the CCDC's data processing and validation procedures.
#
#######################################################################

data_KICLOZ
_symmetry_cell_setting           monoclinic
_symmetry_space_group_name_H-M   'P 21/c'
_symmetry_Int_Tables_number      14
_space_group_name_Hall           '-P 2ybc'
loop_
_symmetry_equiv_pos_site_id
_symmetry_equiv_pos_as_xyz
1 x,y,z
2 -x,1/2+y,1/2-z
3 -x,-y,-z
4 x,1/2-y,1/2+z
_cell_length_a                   16.7495(10)
_cell_length_b                   8.6700(5)
_cell_length_c                   10.8419(6)
_cell_angle_alpha                90
_cell_angle_beta                 91.787(5)
_cell_angle_gamma                90
_cell_volume                     1573.68
loop_
_atom_site_label
_atom_site_type_symbol
_atom_site_fract_x
_atom_site_fract_y
_atom_site_fract_z
Tb1 Tb 0.962626(17) 1.06590(3) 0.65687(3)
O1 O 0.8202(2) 1.0334(5) 0.6634(4)
O2 O 0.8740(2) 1.1621(5) 0.8183(4)
O3 O 0.6700(2) 0.9691(5) 0.6488(4)
H1 H 0.7166 0.9662 0.6278
O4 O 0.9623(2) 0.7975(5) 0.7064(4)
O5 O 0.9404(3) 0.5489(4) 0.6807(4)
O6 O 0.9313(2) 0.9387(4) 0.4739(4)
O7 O 0.9250(2) 1.2886(5) 0.5519(4)
H2 H 0.9158 1.3635 0.6001
H3 H 0.9157 1.3200 0.4787
C1 C 0.8119(3) 1.1106(7) 0.7626(5)
C2 C 0.7308(3) 1.1362(7) 0.8059(5)
C3 C 0.6639(4) 1.0645(7) 0.7471(6)
C4 C 0.5879(4) 1.0871(8) 0.7925(6)
H4 H 0.5443 1.0402 0.7529
C5 C 0.5761(4) 1.1768(8) 0.8940(6)
C6 C 0.6415(4) 1.2470(8) 0.9527(6)
H5 H 0.6339 1.3082 1.0218
C7 C 0.7171(4) 1.2270(8) 0.9097(6)
H6 H 0.7600 1.2748 0.9505
C8 C 0.4933(4) 1.2000(10) 0.9439(7)
H7 H 0.4748 1.3019 0.9236
H8 H 0.4955 1.1875 1.0319
H9 H 0.4574 1.1253 0.9077
C9 C 0.9249(3) 0.6896(7) 0.6490(5)
C10 C 0.8628(3) 0.7187(7) 0.5538(5)
C11 C 0.8663(3) 0.8451(7) 0.4720(5)
C12 C 0.8017(3) 0.8786(7) 0.3944(5)
H10 H 0.8056 0.9590 0.3382
C13 C 0.7309(3) 0.7951(7) 0.3982(5)
C14 C 0.7279(3) 0.6678(7) 0.4758(5)
H11 H 0.6814 0.6094 0.4777
C15 C 0.7932(3) 0.6263(7) 0.5504(5)
H12 H 0.7912 0.5375 0.5983
C16 C 0.6580(3) 0.8433(8) 0.3226(6)
H13 H 0.6382 0.9394 0.3533
H14 H 0.6174 0.7657 0.3283
H15 H 0.6719 0.8555 0.2379
Tb1A Tb 1.037374(17) 0.56590(3) 0.84313(3)
Tb1B Tb 1.037374(17) 0.93410(3) 0.34313(3)
O4A O 1.0377(2) 1.2975(5) 0.7936(4)
O5A O 1.0596(3) 1.0489(4) 0.8193(4)
O6B O 1.0687(2) 1.0613(4) 0.5261(4)
loop_
_geom_bond_atom_site_label_1
_geom_bond_atom_site_label_2
_geom_bond_site_symmetry_1
_geom_bond_site_symmetry_2
Tb1 O1 1_555 1_555
O1 C1 1_555 1_555
O2 Tb1 1_555 1_555
O3 H1 1_555 1_555
O4 Tb1 1_555 1_555
O5 C9 1_555 1_555
O6 Tb1 1_555 1_555
O7 Tb1 1_555 1_555
H2 O7 1_555 1_555
H3 O7 1_555 1_555
C1 O2 1_555 1_555
C2 C1 1_555 1_555
C3 O3 1_555 1_555
C4 C3 1_555 1_555
H4 C4 1_555 1_555
C5 C4 1_555 1_555
C6 C5 1_555 1_555
H5 C6 1_555 1_555
C7 C2 1_555 1_555
H6 C7 1_555 1_555
C8 C5 1_555 1_555
H7 C8 1_555 1_555
H8 C8 1_555 1_555
H9 C8 1_555 1_555
C9 O4 1_555 1_555
C10 C9 1_555 1_555
C11 O6 1_555 1_555
C12 C11 1_555 1_555
H10 C12 1_555 1_555
C13 C12 1_555 1_555
C14 C13 1_555 1_555
H11 C14 1_555 1_555
C15 C10 1_555 1_555
H12 C15 1_555 1_555
C16 C13 1_555 1_555
H13 C16 1_555 1_555
H14 C16 1_555 1_555
H15 C16 1_555 1_555
Tb1A O4 1_555 1_555
Tb1B O6 1_555 1_555
O4A Tb1 1_555 1_555
O5A Tb1 1_555 1_555
O6B Tb1 1_555 1_555
O5 Tb1A 1_555 1_555
C2 C3 1_555 1_555
C6 C7 1_555 1_555
C10 C11 1_555 1_555
C14 C15 1_555 1_555
Tb1B O6B 1_555 1_555

#END
