
#######################################################################
#
#                 Cambridge Crystallographic Data Centre
#                                CCDC 
#
#######################################################################
#
# If this CIF has been generated from an entry in the Cambridge 
# Structural Database, then it will include bibliographic, chemical, 
# crystal, experimental, refinement or atomic coordinate data resulting 
# from the CCDC's data processing and validation procedures.
#
#######################################################################

data_KICLEP
_symmetry_cell_setting           monoclinic
_symmetry_space_group_name_H-M   'P 21/c'
_symmetry_Int_Tables_number      14
_space_group_name_Hall           '-P 2ybc'
loop_
_symmetry_equiv_pos_site_id
_symmetry_equiv_pos_as_xyz
1 x,y,z
2 -x,1/2+y,1/2-z
3 -x,-y,-z
4 x,1/2-y,1/2+z
_cell_length_a                   16.6908(7)
_cell_length_b                   8.6945(3)
_cell_length_c                   10.8897(4)
_cell_angle_alpha                90
_cell_angle_beta                 91.970(4)
_cell_angle_gamma                90
_cell_volume                     1579.36
loop_
_atom_site_label
_atom_site_type_symbol
_atom_site_fract_x
_atom_site_fract_y
_atom_site_fract_z
Eu1 Eu 0.462538(13) 0.56661(2) 0.157886(19)
O1 O 0.5614(2) 0.5475(4) 0.3213(3)
O2 O 0.53823(19) 0.7942(4) 0.2942(3)
O3 O 0.5686(2) 0.9374(3) 0.5256(3)
O4 O 0.3721(2) 0.6653(4) 0.3173(3)
O5 O 0.3190(2) 0.5340(4) 0.1638(3)
O6 O 0.1683(2) 0.4706(4) 0.1481(3)
H1 H 0.2164 0.4661 0.1278
O7 O 0.4233(2) 0.7893(4) 0.0495(3)
H2 H 0.4167 0.8738 0.0867
H3 H 0.4070 0.8023 -0.0245
C1 C 0.5761(3) 0.6869(5) 0.3507(4)
C2 C 0.6389(3) 0.7190(5) 0.4470(4)
C3 C 0.6340(3) 0.8458(5) 0.5270(4)
C4 C 0.6998(3) 0.8802(5) 0.6057(4)
H4 H 0.6962 0.9630 0.6622
C5 C 0.7701(3) 0.7950(6) 0.6025(4)
C6 C 0.7732(3) 0.6680(5) 0.5256(4)
H5 H 0.8206 0.6077 0.5243
C7 C 0.7080(3) 0.6285(5) 0.4511(4)
H6 H 0.7100 0.5384 0.4019
C8 C 0.8424(3) 0.8449(6) 0.6796(5)
H7 H 0.8728 0.9216 0.6345
H8 H 0.8766 0.7556 0.6979
H9 H 0.8248 0.8900 0.7566
C9 C 0.3098(3) 0.6113(5) 0.2615(4)
C10 C 0.2285(3) 0.6373(5) 0.3051(4)
C11 C 0.1622(3) 0.5646(5) 0.2454(5)
C12 C 0.0855(3) 0.5852(6) 0.2913(5)
H10 H 0.0409 0.5363 0.2513
C13 C 0.0734(3) 0.6754(6) 0.3940(5)
C14 C 0.1393(3) 0.7459(6) 0.4521(5)
H11 H 0.1318 0.8073 0.5230
C15 C 0.2153(3) 0.7278(6) 0.4080(5)
H12 H 0.2593 0.7779 0.4486
C16 C -0.0091(3) 0.6960(7) 0.4431(5)
H13 H -0.0315 0.7942 0.4141
H14 H -0.0057 0.6956 0.5331
H15 H -0.0437 0.6117 0.4140
Eu1A Eu 0.537462(13) 1.06661(2) 0.342114(19)
Eu1C Eu 0.462538(13) 0.93339(2) 0.657886(19)
O2A O 0.46177(19) 0.2942(4) 0.2058(3)
O3A O 0.4314(2) 0.4374(3) -0.0256(3)
O3C O 0.5686(2) 0.5626(3) 0.0256(3)
loop_
_geom_bond_atom_site_label_1
_geom_bond_atom_site_label_2
_geom_bond_site_symmetry_1
_geom_bond_site_symmetry_2
Eu1 O1 1_555 1_555
O1 C1 1_555 1_555
O2 Eu1 1_555 1_555
O3 C3 1_555 1_555
O4 Eu1 1_555 1_555
O5 Eu1 1_555 1_555
O6 H1 1_555 1_555
O7 Eu1 1_555 1_555
H2 O7 1_555 1_555
H3 O7 1_555 1_555
C1 O2 1_555 1_555
C2 C1 1_555 1_555
C3 C2 1_555 1_555
C4 C3 1_555 1_555
H4 C4 1_555 1_555
C5 C4 1_555 1_555
C6 C5 1_555 1_555
H5 C6 1_555 1_555
C7 C2 1_555 1_555
H6 C7 1_555 1_555
C8 C5 1_555 1_555
H7 C8 1_555 1_555
H8 C8 1_555 1_555
H9 C8 1_555 1_555
C9 O4 1_555 1_555
C10 C9 1_555 1_555
C11 O6 1_555 1_555
C12 C11 1_555 1_555
H10 C12 1_555 1_555
C13 C12 1_555 1_555
C14 C13 1_555 1_555
H11 C14 1_555 1_555
C15 C10 1_555 1_555
H12 C15 1_555 1_555
C16 C13 1_555 1_555
H13 C16 1_555 1_555
H14 C16 1_555 1_555
H15 C16 1_555 1_555
Eu1A O2 1_555 1_555
Eu1C O3 1_555 1_555
O2A Eu1 1_555 1_555
O3A Eu1 1_555 1_555
O3C Eu1 1_555 1_555
O3 Eu1A 1_555 1_555
O5 C9 1_555 1_555
C6 C7 1_555 1_555
C10 C11 1_555 1_555
C14 C15 1_555 1_555

#END
