
#######################################################################
#
#                 Cambridge Crystallographic Data Centre
#                                CCDC 
#
#######################################################################
#
# If this CIF has been generated from an entry in the Cambridge 
# Structural Database, then it will include bibliographic, chemical, 
# crystal, experimental, refinement or atomic coordinate data resulting 
# from the CCDC's data processing and validation procedures.
#
#######################################################################

data_KICMAM
_symmetry_cell_setting           monoclinic
_symmetry_space_group_name_H-M   'P 21/c'
_symmetry_Int_Tables_number      14
_space_group_name_Hall           '-P 2ybc'
loop_
_symmetry_equiv_pos_site_id
_symmetry_equiv_pos_as_xyz
1 x,y,z
2 -x,1/2+y,1/2-z
3 -x,-y,-z
4 x,1/2-y,1/2+z
_cell_length_a                   10.2240(6)
_cell_length_b                   23.1770(17)
_cell_length_c                   17.449(2)
_cell_angle_alpha                90
_cell_angle_beta                 108.559(5)
_cell_angle_gamma                90
_cell_volume                     3919.72
loop_
_atom_site_label
_atom_site_type_symbol
_atom_site_fract_x
_atom_site_fract_y
_atom_site_fract_z
Ni1 Ni 0.5000 0.5000 0.5000
Ni2 Ni 0.5000 0.0000 0.5000
Ni3 Ni 0.02956(4) 0.253513(16) 0.34781(2)
N1 N 0.3715(3) 0.44775(11) 0.40243(16)
N2 N 0.6357(3) 0.49279(11) 0.42978(17)
H1 H 0.6246 0.5237 0.3953
H2 H 0.7260 0.4919 0.4629
N3 N 0.3854(3) 0.56881(11) 0.42639(16)
H3 H 0.3348 0.5879 0.4536
H4 H 0.4451 0.5947 0.4153
N4 N 0.1888(3) 0.30639(11) 0.41812(16)
H5 H 0.1665 0.3181 0.4628
H6 H 0.2678 0.2845 0.4362
N5 N -0.1447(3) 0.20820(11) 0.27620(16)
N6 N 0.0730(3) 0.26054(11) 0.23628(16)
H7 H 0.0886 0.2985 0.2264
H8 H 0.1506 0.2396 0.2388
N7 N -0.0473(3) 0.22478(11) 0.44251(17)
H9 H 0.0231 0.2084 0.4835
H10 H -0.0811 0.2557 0.4634
N8 N -0.1131(3) 0.32332(11) 0.32190(17)
H11 H -0.0925 0.3485 0.3649
H12 H -0.1087 0.3431 0.2771
N9 N 0.3686(3) 0.06602(11) 0.52308(16)
N10 N 0.1764(3) 0.18142(11) 0.37316(16)
H13 H 0.1423 0.1548 0.3326
H14 H 0.2570 0.1954 0.3675
N11 N 0.3782(3) -0.05559(11) 0.54804(17)
H15 H 0.3263 -0.0799 0.5083
H16 H 0.4346 -0.0777 0.5891
N12 N 0.6255(3) 0.02424(11) 0.61787(16)
H17 H 0.6082 0.0007 0.6560
H18 H 0.7173 0.0211 0.6223
C1 C 0.4474(4) 0.43517(16) 0.3435(2)
H19 H 0.4223 0.3961 0.3205
H20 H 0.4193 0.4633 0.2986
C2 C 0.6000(4) 0.43840(16) 0.3832(2)
H21 H 0.6315 0.4050 0.4199
H22 H 0.6470 0.4370 0.3417
C3 C 0.2488(3) 0.48393(14) 0.3639(2)
H23 H 0.1895 0.4853 0.3990
H24 H 0.1945 0.4666 0.3116
C4 C 0.2918(4) 0.54468(15) 0.3499(2)
H25 H 0.3393 0.5440 0.3085
H26 H 0.2090 0.5694 0.3296
C5 C 0.3334(3) 0.39398(13) 0.43613(19)
H27 H 0.3037 0.4043 0.4831
H28 H 0.4170 0.3697 0.4564
C6 C 0.2201(3) 0.35808(13) 0.3782(2)
H29 H 0.1357 0.3818 0.3572
H30 H 0.2495 0.3462 0.3316
C7 C -0.1129(4) 0.18917(14) 0.2031(2)
H31 H -0.1989 0.1769 0.1611
H32 H -0.0493 0.1558 0.2165
C8 C -0.0470(3) 0.23810(15) 0.1709(2)
H33 H -0.0168 0.2240 0.1256
H34 H -0.1151 0.2694 0.1502
C9 C -0.1595(3) 0.15957(14) 0.3275(2)
H35 H -0.0824 0.1321 0.3346
H36 H -0.2469 0.1389 0.3008
C10 C -0.1591(4) 0.18162(15) 0.4094(2)
H37 H -0.2495 0.1996 0.4041
H38 H -0.1460 0.1488 0.4474
C11 C -0.2690(3) 0.24643(15) 0.2532(2)
H39 H -0.3497 0.2240 0.2561
H40 H -0.2881 0.2592 0.1965
C12 C -0.2520(3) 0.29902(15) 0.3069(2)
H41 H -0.3225 0.3283 0.2803
H42 H -0.2651 0.2881 0.3588
C13 C 0.3319(3) 0.10726(13) 0.4555(2)
H43 H 0.3071 0.0850 0.4044
H44 H 0.4153 0.1301 0.4585
C14 C 0.2147(3) 0.14933(13) 0.45026(19)
H45 H 0.1336 0.1278 0.4544
H46 H 0.2439 0.1768 0.4960
C15 C 0.2451(4) 0.03434(15) 0.5274(2)
H47 H 0.1871 0.0234 0.4723
H48 H 0.1898 0.0598 0.5508
C16 C 0.2867(4) -0.01962(15) 0.5791(2)
H49 H 0.3353 -0.0086 0.6359
H50 H 0.2033 -0.0419 0.5778
C17 C 0.4401(4) 0.09491(16) 0.6020(2)
H51 H 0.4227 0.1370 0.5962
H52 H 0.4005 0.0805 0.6433
C18 C 0.5910(4) 0.08460(17) 0.6303(3)
H53 H 0.6353 0.1105 0.6008
H54 H 0.6286 0.0941 0.6886
Ni3B Ni 0.97044(4) -0.253513(16) 0.65219(2)
N1B N 0.6285(3) -0.44775(11) 0.59757(16)
N2B N 0.3643(3) -0.49279(11) 0.57022(17)
H1B H 0.3754 -0.5237 0.6047
H2B H 0.2740 -0.4919 0.5371
N3B N 0.6146(3) -0.56881(11) 0.57361(16)
H3B H 0.6652 -0.5879 0.5464
H4B H 0.5549 -0.5947 0.5847
N4B N 0.8112(3) -0.30639(11) 0.58188(16)
H5B H 0.8335 -0.3181 0.5372
H6B H 0.7322 -0.2845 0.5638
N5B N 1.1447(3) -0.20820(11) 0.72380(16)
N6B N 0.9270(3) -0.26054(11) 0.76372(16)
H7B H 0.9114 -0.2985 0.7736
H8B H 0.8494 -0.2396 0.7612
N7B N 1.0473(3) -0.22478(11) 0.55749(17)
H9B H 0.9769 -0.2084 0.5165
H10B H 1.0811 -0.2557 0.5366
N8B N 1.1131(3) -0.32332(11) 0.67810(17)
H11B H 1.0925 -0.3485 0.6351
H12B H 1.1087 -0.3431 0.7229
N9B N 0.6314(3) -0.06602(11) 0.47692(16)
N10B N 0.8236(3) -0.18142(11) 0.62684(16)
H13B H 0.8577 -0.1548 0.6674
H14B H 0.7430 -0.1954 0.6325
N11B N 0.6218(3) 0.05559(11) 0.45196(17)
H15B H 0.6737 0.0799 0.4917
H16B H 0.5654 0.0777 0.4109
N12B N 0.3745(3) -0.02424(11) 0.38213(16)
H17B H 0.3918 -0.0007 0.3440
H18B H 0.2827 -0.0211 0.3777
C1B C 0.5526(4) -0.43517(16) 0.6565(2)
H19B H 0.5777 -0.3961 0.6795
H20B H 0.5807 -0.4633 0.7014
C2B C 0.4000(4) -0.43840(16) 0.6168(2)
H21B H 0.3685 -0.4050 0.5801
H22B H 0.3530 -0.4370 0.6583
C3B C 0.7512(3) -0.48393(14) 0.6361(2)
H23B H 0.8105 -0.4853 0.6010
H24B H 0.8055 -0.4666 0.6884
C4B C 0.7082(4) -0.54468(15) 0.6501(2)
H25B H 0.6607 -0.5440 0.6915
H26B H 0.7910 -0.5694 0.6704
C5B C 0.6666(3) -0.39398(13) 0.56387(19)
H27B H 0.6963 -0.4043 0.5169
H28B H 0.5830 -0.3697 0.5436
C6B C 0.7799(3) -0.35808(13) 0.6218(2)
H29B H 0.8643 -0.3818 0.6428
H30B H 0.7505 -0.3462 0.6684
C7B C 1.1129(4) -0.18917(14) 0.7969(2)
H31B H 1.1989 -0.1769 0.8389
H32B H 1.0493 -0.1558 0.7835
C8B C 1.0470(3) -0.23810(15) 0.8291(2)
H33B H 1.0168 -0.2240 0.8744
H34B H 1.1151 -0.2694 0.8498
C9B C 1.1595(3) -0.15957(14) 0.6725(2)
H35B H 1.0824 -0.1321 0.6654
H36B H 1.2469 -0.1389 0.6992
C10B C 1.1591(4) -0.18162(15) 0.5906(2)
H37B H 1.2495 -0.1996 0.5959
H38B H 1.1460 -0.1488 0.5526
C11B C 1.2690(3) -0.24643(15) 0.7468(2)
H39B H 1.3497 -0.2240 0.7439
H40B H 1.2881 -0.2592 0.8035
C12B C 1.2520(3) -0.29902(15) 0.6931(2)
H41B H 1.3225 -0.3283 0.7197
H42B H 1.2651 -0.2881 0.6412
C13B C 0.6681(3) -0.10726(13) 0.5445(2)
H43B H 0.6929 -0.0850 0.5956
H44B H 0.5847 -0.1301 0.5415
C14B C 0.7853(3) -0.14933(13) 0.54974(19)
H45B H 0.8664 -0.1278 0.5456
H46B H 0.7561 -0.1768 0.5040
C15B C 0.7549(4) -0.03434(15) 0.4726(2)
H47B H 0.8129 -0.0234 0.5277
H48B H 0.8102 -0.0598 0.4492
C16B C 0.7133(4) 0.01962(15) 0.4209(2)
H49B H 0.6647 0.0086 0.3641
H50B H 0.7967 0.0419 0.4222
C17B C 0.5599(4) -0.09491(16) 0.3980(2)
H51B H 0.5773 -0.1370 0.4038
H52B H 0.5995 -0.0805 0.3567
C18B C 0.4090(4) -0.08460(17) 0.3697(3)
H53B H 0.3647 -0.1105 0.3992
H54B H 0.3714 -0.0941 0.3114
Ni1_2 Ni 0.5000 -0.5000 0.5000
N1B_2 N 0.6285(3) 0.55225(11) 0.59757(16)
N2B_2 N 0.3643(3) 0.50721(11) 0.57022(17)
N3B_2 N 0.6146(3) 0.43119(11) 0.57361(16)
Cl1 Cl 0.58091(8) 0.24371(3) 0.00247(5)
O1 O 0.5274(3) 0.21495(14) 0.05949(17)
O2 O 0.4710(3) 0.25271(13) -0.07187(16)
O3 O 0.6416(3) 0.29750(11) 0.03404(18)
O4 O 0.6830(3) 0.20704(12) -0.01161(18)
Cl2 Cl 0.00295(8) 0.09342(3) 0.02775(5)
O5 O 0.0357(3) 0.15405(11) 0.03371(19)
O6 O -0.1026(5) 0.0808(2) 0.0605(3)
O7 O 0.1231(4) 0.0627(2) 0.0654(4)
O8 O -0.0467(7) 0.0772(2) -0.0572(3)
Cl3 Cl 1.00287(9) 0.08509(4) 0.64242(6)
O12 O 0.9209(9) 0.0881(4) 0.6980(6)
O13 O 1.0436(6) 0.0225(2) 0.6506(4)
O14 O 1.1189(5) 0.1175(2) 0.6720(4)
O15 O 0.9151(11) 0.0903(5) 0.5646(5)
Cl4 Cl 0.40261(8) 0.11814(4) 0.23663(5)
O20 O 0.3968(4) 0.05682(12) 0.24613(19)
O21 O 0.2702(3) 0.14331(13) 0.22453(17)
O22 O 0.4468(3) 0.13016(13) 0.16841(18)
O23 O 0.4972(3) 0.14234(14) 0.30825(17)
O24 O 0.2813(3) 0.24152(12) 0.10375(16)
H55 H 0.3583 0.2326 0.0994
H56 H 0.2405 0.2116 0.1112
O25 O 0.3944(3) 0.29466(16) 0.2600(2)
H57 H 0.3642 0.2772 0.2156
H58 H 0.4322 0.2702 0.2957
O26 O 0.0872(4) 0.05857(15) 0.2864(3)
H59 H 0.0414 0.0406 0.3111
H60 H 0.1072 0.0355 0.2548
O27 O 0.1390(10) -0.0107(4) 0.1927(6)
H61 H 0.0733 -0.0215 0.1525
H62 H 0.1949 -0.0383 0.2071
O9? O 0.0516(10) 0.0646(4) 0.1043(6)
O10? O -0.1415(7) 0.0890(4) -0.0044(7)
O11? O 0.0629(14) 0.0660(5) -0.0264(7)
O16? O 0.9560(13) 0.1085(5) 0.7027(8)
O17? O 1.1023(8) 0.0422(3) 0.6650(6)
O18? O 1.0783(7) 0.1362(3) 0.6152(5)
O19? O 0.8962(15) 0.0727(7) 0.5701(7)
loop_
_geom_bond_atom_site_label_1
_geom_bond_atom_site_label_2
_geom_bond_site_symmetry_1
_geom_bond_site_symmetry_2
Ni1 N1 1_555 1_555
Ni2 N9 1_555 1_555
Ni3 N4 1_555 1_555
N1 C1 1_555 1_555
N2 Ni1 1_555 1_555
H1 N2 1_555 1_555
H2 N2 1_555 1_555
N3 Ni1 1_555 1_555
H3 N3 1_555 1_555
H4 N3 1_555 1_555
N4 H5 1_555 1_555
H6 N4 1_555 1_555
N5 Ni3 1_555 1_555
N6 Ni3 1_555 1_555
H7 N6 1_555 1_555
H8 N6 1_555 1_555
N7 Ni3 1_555 1_555
H9 N7 1_555 1_555
H10 N7 1_555 1_555
N8 Ni3 1_555 1_555
H11 N8 1_555 1_555
H12 N8 1_555 1_555
N9 C13 1_555 1_555
N10 Ni3 1_555 1_555
H13 N10 1_555 1_555
H14 N10 1_555 1_555
N11 Ni2 1_555 1_555
H15 N11 1_555 1_555
H16 N11 1_555 1_555
N12 Ni2 1_555 1_555
H17 N12 1_555 1_555
H18 N12 1_555 1_555
C1 H19 1_555 1_555
H20 C1 1_555 1_555
C2 N2 1_555 1_555
H21 C2 1_555 1_555
H22 C2 1_555 1_555
C3 N1 1_555 1_555
H23 C3 1_555 1_555
H24 C3 1_555 1_555
C4 N3 1_555 1_555
H25 C4 1_555 1_555
H26 C4 1_555 1_555
C5 N1 1_555 1_555
H27 C5 1_555 1_555
H28 C5 1_555 1_555
C6 N4 1_555 1_555
H29 C6 1_555 1_555
H30 C6 1_555 1_555
C7 N5 1_555 1_555
H31 C7 1_555 1_555
H32 C7 1_555 1_555
C8 N6 1_555 1_555
H33 C8 1_555 1_555
H34 C8 1_555 1_555
C9 N5 1_555 1_555
H35 C9 1_555 1_555
H36 C9 1_555 1_555
C10 N7 1_555 1_555
H37 C10 1_555 1_555
H38 C10 1_555 1_555
C11 N5 1_555 1_555
H39 C11 1_555 1_555
H40 C11 1_555 1_555
C12 N8 1_555 1_555
H41 C12 1_555 1_555
H42 C12 1_555 1_555
C13 H43 1_555 1_555
H44 C13 1_555 1_555
C14 N10 1_555 1_555
H45 C14 1_555 1_555
H46 C14 1_555 1_555
C15 N9 1_555 1_555
H47 C15 1_555 1_555
H48 C15 1_555 1_555
C16 N11 1_555 1_555
H49 C16 1_555 1_555
H50 C16 1_555 1_555
C17 N9 1_555 1_555
H51 C17 1_555 1_555
H52 C17 1_555 1_555
C18 N12 1_555 1_555
H53 C18 1_555 1_555
H54 C18 1_555 1_555
Cl1 O1 1_555 1_555
O2 Cl1 1_555 1_555
O3 Cl1 1_555 1_555
O4 Cl1 1_555 1_555
Cl2 O5 1_555 1_555
O6 Cl2 1_555 1_555
O7 Cl2 1_555 1_555
O8 Cl2 1_555 1_555
Cl3 O12 1_555 1_555
O13 Cl3 1_555 1_555
O14 Cl3 1_555 1_555
O15 Cl3 1_555 1_555
Cl4 O20 1_555 1_555
O21 Cl4 1_555 1_555
O22 Cl4 1_555 1_555
O23 Cl4 1_555 1_555
O24 H55 1_555 1_555
H56 O24 1_555 1_555
O25 H57 1_555 1_555
H58 O25 1_555 1_555
O26 H59 1_555 1_555
H60 O26 1_555 1_555
O27 H61 1_555 1_555
H62 O27 1_555 1_555
Ni3B N4B 1_555 1_555
N1B C1B 1_555 1_555
N2B H1B 1_555 1_555
H2B N2B 1_555 1_555
N3B H3B 1_555 1_555
H4B N3B 1_555 1_555
N4B H5B 1_555 1_555
H6B N4B 1_555 1_555
N5B Ni3B 1_555 1_555
N6B Ni3B 1_555 1_555
H7B N6B 1_555 1_555
H8B N6B 1_555 1_555
N7B Ni3B 1_555 1_555
H9B N7B 1_555 1_555
H10B N7B 1_555 1_555
N8B Ni3B 1_555 1_555
H11B N8B 1_555 1_555
H12B N8B 1_555 1_555
N9B Ni2 1_555 1_555
N10B Ni3B 1_555 1_555
H13B N10B 1_555 1_555
H14B N10B 1_555 1_555
N11B Ni2 1_555 1_555
H15B N11B 1_555 1_555
H16B N11B 1_555 1_555
N12B Ni2 1_555 1_555
H17B N12B 1_555 1_555
H18B N12B 1_555 1_555
C1B H19B 1_555 1_555
H20B C1B 1_555 1_555
C2B N2B 1_555 1_555
H21B C2B 1_555 1_555
H22B C2B 1_555 1_555
C3B N1B 1_555 1_555
H23B C3B 1_555 1_555
H24B C3B 1_555 1_555
C4B N3B 1_555 1_555
H25B C4B 1_555 1_555
H26B C4B 1_555 1_555
C5B N1B 1_555 1_555
H27B C5B 1_555 1_555
H28B C5B 1_555 1_555
C6B N4B 1_555 1_555
H29B C6B 1_555 1_555
H30B C6B 1_555 1_555
C7B N5B 1_555 1_555
H31B C7B 1_555 1_555
H32B C7B 1_555 1_555
C8B N6B 1_555 1_555
H33B C8B 1_555 1_555
H34B C8B 1_555 1_555
C9B N5B 1_555 1_555
H35B C9B 1_555 1_555
H36B C9B 1_555 1_555
C10B N7B 1_555 1_555
H37B C10B 1_555 1_555
H38B C10B 1_555 1_555
C11B N5B 1_555 1_555
H39B C11B 1_555 1_555
H40B C11B 1_555 1_555
C12B N8B 1_555 1_555
H41B C12B 1_555 1_555
H42B C12B 1_555 1_555
C13B N9B 1_555 1_555
H43B C13B 1_555 1_555
H44B C13B 1_555 1_555
C14B N10B 1_555 1_555
H45B C14B 1_555 1_555
H46B C14B 1_555 1_555
C15B N9B 1_555 1_555
H47B C15B 1_555 1_555
H48B C15B 1_555 1_555
C16B N11B 1_555 1_555
H49B C16B 1_555 1_555
H50B C16B 1_555 1_555
C17B N9B 1_555 1_555
H51B C17B 1_555 1_555
H52B C17B 1_555 1_555
C18B N12B 1_555 1_555
H53B C18B 1_555 1_555
H54B C18B 1_555 1_555
Ni1_2 N1B 1_555 1_555
N1B_2 Ni1 1_555 1_555
N2B_2 Ni1 1_555 1_555
N3B_2 Ni1 1_555 1_555
C1 C2 1_555 1_555
C3 C4 1_555 1_555
C5 C6 1_555 1_555
C7 C8 1_555 1_555
C9 C10 1_555 1_555
C11 C12 1_555 1_555
C13 C14 1_555 1_555
C15 C16 1_555 1_555
C17 C18 1_555 1_555
N2B Ni1_2 1_555 1_555
N3B Ni1_2 1_555 1_555
C1B C2B 1_555 1_555
C3B C4B 1_555 1_555
C5B C6B 1_555 1_555
C7B C8B 1_555 1_555
C9B C10B 1_555 1_555
C11B C12B 1_555 1_555
C13B C14B 1_555 1_555
C15B C16B 1_555 1_555
C17B C18B 1_555 1_555

#END
