
#######################################################################
#
#                 Cambridge Crystallographic Data Centre
#                                CCDC 
#
#######################################################################
#
# If this CIF has been generated from an entry in the Cambridge 
# Structural Database, then it will include bibliographic, chemical, 
# crystal, experimental, refinement or atomic coordinate data resulting 
# from the CCDC's data processing and validation procedures.
#
#######################################################################

data_KICMUF
_symmetry_cell_setting           triclinic
_symmetry_space_group_name_H-M   'P -1'
_symmetry_Int_Tables_number      2
_space_group_name_Hall           '-P 1'
loop_
_symmetry_equiv_pos_site_id
_symmetry_equiv_pos_as_xyz
1 x,y,z
2 -x,-y,-z
_cell_length_a                   11.0716(11)
_cell_length_b                   11.3368(9)
_cell_length_c                   11.7081(10)
_cell_angle_alpha                114.607(8)
_cell_angle_beta                 102.658(8)
_cell_angle_gamma                96.234(7)
_cell_volume                     1270.12
loop_
_atom_site_label
_atom_site_type_symbol
_atom_site_fract_x
_atom_site_fract_y
_atom_site_fract_z
Zn1 Zn 0.24257(5) 0.21441(5) 0.38237(5)
O1 O 0.4346(4) 0.3037(4) 0.5328(3)
O2 O 0.2692(4) 0.3090(3) 0.6017(3)
O3 O 0.4567(4) 0.3965(5) 0.7426(4)
O4 O 0.0484(3) 0.1953(4) 0.3811(4)
O5 O 0.0279(5) 0.1447(5) 0.1770(5)
O6 O -0.1270(4) 0.1948(4) 0.2572(4)
N1 N 0.3892(4) 0.3386(4) 0.6281(4)
N2 N -0.0177(4) 0.1771(4) 0.2704(5)
N3 N 0.3349(4) 0.1520(4) 0.2319(4)
N4 N 0.2419(4) 0.0290(4) 0.3914(4)
N5 N 0.2327(4) -0.5992(4) 0.3829(4)
C1 C 0.4615(5) 0.1917(5) 0.2596(5)
H1 H 0.5059 0.2605 0.3422
C2 C 0.5284(5) 0.1365(5) 0.1730(5)
H2 H 0.6159 0.1676 0.1974
C3 C 0.4652(4) 0.0333(4) 0.0478(4)
C4 C 0.3348(5) -0.0026(5) 0.0181(5)
H3 H 0.2877 -0.0677 -0.0655
C5 C 0.2731(5) 0.0569(5) 0.1107(5)
H4 H 0.1853 0.0296 0.0878
C6 C 0.1521(5) -0.0255(5) 0.4248(5)
H5 H 0.0886 0.0196 0.4458
C7 C 0.1474(5) -0.1451(5) 0.4301(5)
H6 H 0.0835 -0.1774 0.4566
C8 C 0.2373(5) -0.2160(4) 0.3963(5)
C9 C 0.3330(5) -0.1587(5) 0.3636(6)
H7 H 0.3975 -0.2020 0.3420
C10 C 0.3322(5) -0.0378(5) 0.3633(6)
H8 H 0.3980 -0.0005 0.3425
C11 C 0.2016(5) -0.5036(5) 0.4776(5)
H9 H 0.1803 -0.5213 0.5423
C12 C 0.1994(5) -0.3795(5) 0.4844(5)
H10 H 0.1751 -0.3164 0.5513
C13 C 0.2336(5) -0.3492(4) 0.3913(5)
C14 C 0.2633(5) -0.4498(5) 0.2907(5)
H11 H 0.2843 -0.4350 0.2244
C15 C 0.2612(5) -0.5711(5) 0.2902(5)
H12 H 0.2807 -0.6376 0.2217
Zn1A Zn 0.75743(5) -0.21441(5) -0.38237(5)
Zn1_2 Zn 0.24257(5) -0.78559(5) 0.38237(5)
Zn1_3 Zn 0.24257(5) 1.21441(5) 0.38237(5)
O1A O 0.5654(4) -0.3037(4) -0.5328(3)
O2A O 0.7308(4) -0.3090(3) -0.6017(3)
O3A O 0.5433(4) -0.3965(5) -0.7426(4)
O4A O 0.9516(3) -0.1953(4) -0.3811(4)
O5A O 0.9721(5) -0.1447(5) -0.1770(5)
O6A O 1.1270(4) -0.1948(4) -0.2572(4)
N1A N 0.6108(4) -0.3386(4) -0.6281(4)
N2A N 1.0177(4) -0.1771(4) -0.2704(5)
N3A N 0.6651(4) -0.1520(4) -0.2319(4)
N4_2 N 0.2419(4) 1.0290(4) 0.3914(4)
N4A N 0.7581(4) -0.0290(4) -0.3914(4)
N5_2 N 0.2327(4) 0.4008(4) 0.3829(4)
N5A N 0.7673(4) -0.4008(4) -0.3829(4)
C1A C 0.5385(5) -0.1917(5) -0.2596(5)
H1A H 0.4941 -0.2605 -0.3422
C2A C 0.4716(5) -0.1365(5) -0.1730(5)
H2A H 0.3841 -0.1676 -0.1974
C3A C 0.5348(4) -0.0333(4) -0.0478(4)
C4A C 0.6652(5) 0.0026(5) -0.0181(5)
H3A H 0.7123 0.0677 0.0655
C5A C 0.7269(5) -0.0569(5) -0.1107(5)
H4A H 0.8147 -0.0296 -0.0878
C6_2 C 0.1521(5) 0.9745(5) 0.4248(5)
H5_2 H 0.0886 1.0196 0.4458
C7_2 C 0.1474(5) 0.8549(5) 0.4301(5)
H6_2 H 0.0835 0.8226 0.4566
C8_2 C 0.2373(5) 0.7840(4) 0.3963(5)
C9_2 C 0.3330(5) 0.8413(5) 0.3636(6)
H7_2 H 0.3975 0.7980 0.3420
C10_2 C 0.3322(5) 0.9622(5) 0.3633(6)
H8_2 H 0.3980 0.9995 0.3425
C11_2 C 0.2016(5) 0.4964(5) 0.4776(5)
H9_2 H 0.1803 0.4787 0.5423
C12_2 C 0.1994(5) 0.6205(5) 0.4844(5)
H10_2 H 0.1751 0.6836 0.5513
C13_2 C 0.2336(5) 0.6508(4) 0.3913(5)
C14_2 C 0.2633(5) 0.5502(5) 0.2907(5)
H11_2 H 0.2843 0.5650 0.2244
C15_2 C 0.2612(5) 0.4289(5) 0.2902(5)
H12_2 H 0.2807 0.3624 0.2217
C16 C 0.1512(7) -0.3538(8) -0.0818(7)
H13 H 0.1414 -0.2884 -0.1156
Cl1 Cl 0.0726(3) -0.3220(4) 0.0365(3)
Cl2 Cl 0.0873(3) -0.5119(3) -0.2128(3)
Cl3 Cl 0.3122(2) -0.3352(3) -0.0143(3)
C17 C 0.7119(6) -0.2370(6) 0.1591(6)
H14 H 0.7261 -0.2902 0.2066
Cl4 Cl 0.62922(18) -0.11532(17) 0.23730(16)
Cl5 Cl 0.62195(16) -0.34179(16) -0.00181(14)
Cl6 Cl 0.85884(18) -0.1565(2) 0.1663(3)
loop_
_geom_bond_atom_site_label_1
_geom_bond_atom_site_label_2
_geom_bond_site_symmetry_1
_geom_bond_site_symmetry_2
Zn1 O1 1_555 1_555
O1 N1 1_555 1_555
O2 Zn1 1_555 1_555
O3 N1 1_555 1_555
O4 Zn1 1_555 1_555
O5 N2 1_555 1_555
O6 N2 1_555 1_555
N1 O2 1_555 1_555
N2 O4 1_555 1_555
N3 Zn1 1_555 1_555
N4 Zn1 1_555 1_555
N5 C11 1_555 1_555
C1 N3 1_555 1_555
H1 C1 1_555 1_555
C2 C1 1_555 1_555
H2 C2 1_555 1_555
C3 C2 1_555 1_555
C4 C3 1_555 1_555
H3 C4 1_555 1_555
C5 N3 1_555 1_555
H4 C5 1_555 1_555
C6 N4 1_555 1_555
H5 C6 1_555 1_555
C7 C6 1_555 1_555
H6 C7 1_555 1_555
C8 C7 1_555 1_555
C9 C8 1_555 1_555
H7 C9 1_555 1_555
C10 N4 1_555 1_555
H8 C10 1_555 1_555
C11 H9 1_555 1_555
C12 C11 1_555 1_555
H10 C12 1_555 1_555
C13 C8 1_555 1_555
C14 C13 1_555 1_555
H11 C14 1_555 1_555
C15 N5 1_555 1_555
H12 C15 1_555 1_555
C16 H13 1_555 1_555
C17 H14 1_555 1_555
Cl1 C16 1_555 1_555
Cl2 C16 1_555 1_555
Cl3 C16 1_555 1_555
Cl4 C17 1_555 1_555
Cl5 C17 1_555 1_555
Cl6 C17 1_555 1_555
Zn1A O1A 1_555 1_555
Zn1_2 N5 1_555 1_555
Zn1_3 N4_2 1_555 1_555
O1A N1A 1_555 1_555
O2A Zn1A 1_555 1_555
O3A N1A 1_555 1_555
O4A Zn1A 1_555 1_555
O5A N2A 1_555 1_555
O6A N2A 1_555 1_555
N1A O2A 1_555 1_555
N2A O4A 1_555 1_555
N3A Zn1A 1_555 1_555
N4_2 C6_2 1_555 1_555
N4A Zn1A 1_555 1_555
N5_2 Zn1 1_555 1_555
N5A Zn1A 1_555 1_555
C1A N3A 1_555 1_555
H1A C1A 1_555 1_555
C2A C1A 1_555 1_555
H2A C2A 1_555 1_555
C3A C3 1_555 1_555
C4A C3A 1_555 1_555
H3A C4A 1_555 1_555
C5A N3A 1_555 1_555
H4A C5A 1_555 1_555
C6_2 H5_2 1_555 1_555
C7_2 C6_2 1_555 1_555
H6_2 C7_2 1_555 1_555
C8_2 C7_2 1_555 1_555
C9_2 C8_2 1_555 1_555
H7_2 C9_2 1_555 1_555
C10_2 N4_2 1_555 1_555
H8_2 C10_2 1_555 1_555
C11_2 N5_2 1_555 1_555
H9_2 C11_2 1_555 1_555
C12_2 C11_2 1_555 1_555
H10_2 C12_2 1_555 1_555
C13_2 C8_2 1_555 1_555
C14_2 C13_2 1_555 1_555
H11_2 C14_2 1_555 1_555
C15_2 N5_2 1_555 1_555
H12_2 C15_2 1_555 1_555
C4 C5 1_555 1_555
C9 C10 1_555 1_555
C12 C13 1_555 1_555
C14 C15 1_555 1_555
C2A C3A 1_555 1_555
C4A C5A 1_555 1_555
C9_2 C10_2 1_555 1_555
C12_2 C13_2 1_555 1_555
C14_2 C15_2 1_555 1_555

#END
