
#######################################################################
#
#                 Cambridge Crystallographic Data Centre
#                                CCDC 
#
#######################################################################
#
# If this CIF has been generated from an entry in the Cambridge 
# Structural Database, then it will include bibliographic, chemical, 
# crystal, experimental, refinement or atomic coordinate data resulting 
# from the CCDC's data processing and validation procedures.
#
#######################################################################

data_KICQUK
_symmetry_cell_setting           monoclinic
_symmetry_space_group_name_H-M   'C 2/c'
_symmetry_Int_Tables_number      15
_space_group_name_Hall           '-C 2yn'
loop_
_symmetry_equiv_pos_site_id
_symmetry_equiv_pos_as_xyz
1 x,y,z
2 -x,y,1/2-z
3 1/2+x,1/2+y,z
4 1/2-x,1/2+y,1/2-z
5 -x,-y,-z
6 x,-y,1/2+z
7 1/2-x,1/2-y,-z
8 1/2+x,1/2-y,1/2+z
_cell_length_a                   46.393(9)
_cell_length_b                   20.528(3)
_cell_length_c                   31.865(6)
_cell_angle_alpha                90
_cell_angle_beta                 133.512(3)
_cell_angle_gamma                90
_cell_volume                     22008.4
loop_
_atom_site_label
_atom_site_type_symbol
_atom_site_fract_x
_atom_site_fract_y
_atom_site_fract_z
Fe1 Fe 0.43913(7) -0.34405(11) 0.32578(9)
N1 N 0.3902(4) -0.3539(6) 0.3106(6)
N2 N 0.4263(3) -0.2510(6) 0.3192(4)
N3 N 0.4736(4) -0.3366(6) 0.4101(5)
N4 N 0.4891(4) -0.3263(8) 0.3478(6)
N5 N 0.4086(4) -0.3559(7) 0.2425(5)
C1 C 0.3725(5) -0.4085(8) 0.3054(8)
H1 H 0.3842 -0.4487 0.3102
C2 C 0.3376(5) -0.4083(10) 0.2931(8)
H2 H 0.3263 -0.4483 0.2898
C3 C 0.3190(5) -0.3527(9) 0.2857(7)
H3 H 0.2954 -0.3531 0.2780
C4 C 0.3366(5) -0.2942(8) 0.2902(6)
H4 H 0.3248 -0.2539 0.2848
C5 C 0.3718(4) -0.2967(7) 0.3028(6)
C6 C 0.4461(5) -0.2007(8) 0.3227(6)
H5 H 0.4674 -0.2086 0.3257
C7 C 0.4359(6) -0.1369(10) 0.3221(8)
H6 H 0.4503 -0.1021 0.3249
C8 C 0.4044(6) -0.1250(10) 0.3172(8)
H7 H 0.3971 -0.0822 0.3170
C9 C 0.3838(5) -0.1775(8) 0.3126(7)
H8 H 0.3626 -0.1706 0.3100
C10 C 0.3941(4) -0.2391(7) 0.3119(6)
C11 C 0.4629(5) -0.3442(9) 0.4405(7)
H9 H 0.4360 -0.3519 0.4196
C12 C 0.4890(6) -0.3412(10) 0.4993(8)
H10 H 0.4803 -0.3461 0.5185
C13 C 0.5285(7) -0.3307(10) 0.5297(8)
H11 H 0.5471 -0.3308 0.5703
C14 C 0.5418(5) -0.3200(10) 0.5022(7)
H12 H 0.5686 -0.3110 0.5230
C15 C 0.5125(5) -0.3235(8) 0.4408(6)
C16 C 0.4978(6) -0.3170(13) 0.3161(9)
H13 H 0.4762 -0.3202 0.2759
C17 C 0.5324(6) -0.304(2) 0.3330(9)
H14 H 0.5360 -0.3074 0.3075
C18 C 0.5633(6) -0.2850(17) 0.3904(10)
H15 H 0.5870 -0.2673 0.4036
C19 C 0.5574(7) -0.2933(11) 0.4264(10)
H16 H 0.5786 -0.2863 0.4664
C20 C 0.5209(6) -0.3119(9) 0.4048(8)
N6 N 0.4458(5) -0.4362(7) 0.3251(7)
C21 C 0.4659(6) -0.4768(9) 0.3728(10)
H17 H 0.4788 -0.4590 0.4092
C22 C 0.4673(8) -0.5462(11) 0.3669(12)
H18 H 0.4808 -0.5738 0.3992
C23 C 0.4492(10) -0.5706(12) 0.3150(14)
H19 H 0.4488 -0.6159 0.3103
C24 C 0.4308(9) -0.5298(12) 0.2679(14)
H20 H 0.4203 -0.5467 0.2323
C25 C 0.4283(5) -0.4648(8) 0.2739(8)
C26 C 0.3893(5) -0.3104(9) 0.2016(7)
H21 H 0.3895 -0.2676 0.2122
C27 C 0.3694(6) -0.3219(10) 0.1456(7)
H22 H 0.3563 -0.2880 0.1183
C28 C 0.3688(6) -0.3840(11) 0.1293(8)
H23 H 0.3543 -0.3931 0.0903
C29 C 0.3884(6) -0.4315(10) 0.1682(9)
H24 H 0.3896 -0.4736 0.1579
C30 C 0.4075(5) -0.4162(9) 0.2257(7)
Fe2 Fe 0.43916(7) -0.15591(11) 0.55237(9)
N7 N 0.4264(4) -0.2494(6) 0.5338(5)
N8 N 0.3904(4) -0.1469(6) 0.4696(5)
N9 N 0.4088(4) -0.1450(7) 0.5751(5)
N10 N 0.4462(4) -0.0636(7) 0.5666(6)
N11 N 0.4893(4) -0.1749(8) 0.6310(5)
N12 N 0.4736(4) -0.1627(6) 0.5370(5)
C31 C 0.4463(5) -0.2995(8) 0.5698(7)
H25 H 0.4678 -0.2917 0.6095
C32 C 0.4358(7) -0.3634(10) 0.5494(10)
H26 H 0.4500 -0.3985 0.5753
C33 C 0.4046(6) -0.3749(9) 0.4916(9)
H27 H 0.3977 -0.4178 0.4776
C34 C 0.3831(5) -0.3230(7) 0.4537(8)
H28 H 0.3617 -0.3301 0.4139
C35 C 0.3940(4) -0.2614(7) 0.4761(6)
C36 C 0.3731(5) -0.0909(8) 0.4408(7)
H29 H 0.3852 -0.0513 0.4602
C37 C 0.3371(6) -0.0900(10) 0.3820(7)
H30 H 0.3252 -0.0502 0.3626
C38 C 0.3199(5) -0.1477(10) 0.3537(7)
H31 H 0.2965 -0.1476 0.3141
C39 C 0.3363(5) -0.2056(8) 0.3822(6)
H32 H 0.3239 -0.2454 0.3633
C40 C 0.3727(4) -0.2037(7) 0.4411(6)
C41 C 0.3900(5) -0.1897(8) 0.5780(7)
H33 H 0.3907 -0.2327 0.5685
C42 C 0.3698(5) -0.1784(11) 0.5937(8)
H34 H 0.3560 -0.2121 0.5934
C43 C 0.3701(7) -0.1144(11) 0.6105(10)
H35 H 0.3574 -0.1049 0.6233
C44 C 0.3890(6) -0.0680(11) 0.6079(9)
H36 H 0.3887 -0.0249 0.6175
C45 C 0.4092(5) -0.0833(9) 0.5908(7)
C46 C 0.4654(6) -0.0234(9) 0.5585(7)
H37 H 0.4774 -0.0414 0.5466
C47 C 0.4678(7) 0.0457(11) 0.5677(9)
H38 H 0.4818 0.0729 0.5631
C48 C 0.4491(9) 0.0703(12) 0.5832(10)
H39 H 0.4489 0.1156 0.5873
C49 C 0.4305(9) 0.0305(10) 0.5931(11)
H40 H 0.4188 0.0474 0.6058
C50 C 0.4297(6) -0.0358(9) 0.5835(8)
C51 C 0.4966(6) -0.1824(14) 0.6799(8)
H41 H 0.4757 -0.1744 0.6778
C52 C 0.5315(7) -0.2005(15) 0.7305(8)
H42 H 0.5350 -0.2034 0.7632
C53 C 0.5628(7) -0.2151(14) 0.7353(9)
H43 H 0.5872 -0.2300 0.7705
C54 C 0.5575(6) -0.2075(12) 0.6886(9)
H44 H 0.5784 -0.2159 0.6908
C55 C 0.5207(5) -0.1870(8) 0.6370(7)
C56 C 0.4626(5) -0.1557(9) 0.4846(7)
H45 H 0.4358 -0.1479 0.4513
C57 C 0.4896(6) -0.1598(10) 0.4797(8)
H46 H 0.4811 -0.1554 0.4431
C58 C 0.5288(8) -0.1701(10) 0.5272(10)
H47 H 0.5475 -0.1696 0.5240
C59 C 0.5410(5) -0.1812(9) 0.5799(7)
H48 H 0.5676 -0.1913 0.6127
C60 C 0.5124(4) -0.1769(8) 0.5835(6)
In1 In 0.19384(3) -0.16587(5) 0.15962(4)
In2 In 0.27351(3) -0.13500(5) 0.15220(4)
In3 In 0.25004(3) 0.00000(5) 0.21963(4)
In4 In 0.16815(3) -0.03893(5) 0.04502(4)
In5 In 0.34965(4) -0.09284(5) 0.14315(5)
In6 In 0.33188(3) 0.03890(5) 0.20868(5)
In7 In 0.25017(4) 0.00004(5) 0.03673(5)
In8 In 0.30625(3) 0.16587(5) 0.27197(4)
In9 In 0.22650(3) 0.13499(5) 0.10526(4)
In10 In 0.15044(4) 0.09271(5) -0.05607(4)
S1 S 0.15393(12) -0.2498(2) 0.15403(19)
S2 S 0.24720(13) -0.21715(18) 0.17272(18)
S3 S 0.21839(11) -0.08107(18) 0.23201(16)
S4 S 0.13973(12) -0.1220(2) 0.06037(18)
S5 S 0.32289(12) -0.18329(18) 0.15637(18)
S6 S 0.30330(10) -0.04813(16) 0.22694(15)
S7 S 0.22096(12) -0.08787(17) 0.05235(15)
S8 S 0.28133(12) 0.08091(18) 0.29494(15)
S9 S 0.19657(10) 0.04785(16) 0.12027(14)
S10 S 0.11696(12) 0.00529(19) -0.05130(15)
S11 S 0.40260(18) -0.1433(3) 0.1521(3)
S12 S 0.38303(12) -0.00519(19) 0.21457(19)
S13 S 0.30276(16) -0.0433(2) 0.0462(2)
S14 S 0.36013(12) 0.1221(2) 0.2808(2)
S15 S 0.27900(12) 0.08812(18) 0.11035(17)
S16 S 0.19743(16) 0.0433(2) -0.05918(19)
S17 S 0.25247(12) 0.21713(17) 0.17820(16)
S18 S 0.17707(12) 0.18343(17) 0.01067(15)
S19 S 0.09738(18) 0.1431(3) -0.15300(19)
In8C In 0.19375(3) -0.33413(5) 0.22803(4)
S1C S 0.34607(12) 0.2502(2) 0.34597(19)
N13 N 0.2209(10) -0.3528(18) 0.0635(14)
C61 C 0.1902(12) -0.370(2) 0.0643(17)
C62 C 0.1776(16) -0.430(2) 0.048(2)
C63 C 0.2564(13) -0.399(2) 0.0970(18)
C64 C 0.2934(11) -0.367(2) 0.1468(17)
C65 C 0.2166(11) -0.2931(13) 0.0327(13)
C66 C 0.1790(11) -0.2554(16) 0.0068(17)
N14 N 0.2749(11) 0.3562(18) 0.1103(17)
C67 C 0.2435(14) 0.398(2) 0.105(2)
C68 C 0.2076(14) 0.371(2) 0.049(2)
C69 C 0.2819(13) 0.2894(14) 0.094(2)
C70 C 0.3201(13) 0.256(2) 0.145(2)
C71 C 0.3085(13) 0.367(2) 0.183(2)
C72 C 0.3241(13) 0.428(2) 0.1939(15)
O1 O 0.1048(6) -0.3256(10) 0.0331(8)
O2 O 0.1050(6) -0.1743(10) 0.1766(8)
O3 O 0.0598(7) -0.0417(10) -0.0324(9)
O4 O 0.5600(6) -0.0403(10) 0.6518(7)
O5 O 0.3868(7) 0.0554(9) 0.4142(9)
O6 O 0.3847(7) -0.5555(9) 0.3571(10)
O7 O 0.4578(11) -0.0017(12) 0.4467(12)
O8 O 0.4593(11) -0.4969(13) 0.4706(13)
loop_
_geom_bond_atom_site_label_1
_geom_bond_atom_site_label_2
_geom_bond_site_symmetry_1
_geom_bond_site_symmetry_2
Fe1 N1 1_555 1_555
N1 C1 1_555 1_555
N2 Fe1 1_555 1_555
N3 Fe1 1_555 1_555
N4 Fe1 1_555 1_555
N5 Fe1 1_555 1_555
C1 H1 1_555 1_555
C2 C1 1_555 1_555
H2 C2 1_555 1_555
C3 C2 1_555 1_555
H3 C3 1_555 1_555
C4 C3 1_555 1_555
H4 C4 1_555 1_555
C5 N1 1_555 1_555
C6 N2 1_555 1_555
H5 C6 1_555 1_555
C7 C6 1_555 1_555
H6 C7 1_555 1_555
C8 C7 1_555 1_555
H7 C8 1_555 1_555
C9 C8 1_555 1_555
H8 C9 1_555 1_555
C10 N2 1_555 1_555
C11 N3 1_555 1_555
H9 C11 1_555 1_555
C12 C11 1_555 1_555
H10 C12 1_555 1_555
C13 C12 1_555 1_555
H11 C13 1_555 1_555
C14 C13 1_555 1_555
H12 C14 1_555 1_555
C15 N3 1_555 1_555
C16 N4 1_555 1_555
H13 C16 1_555 1_555
C17 C16 1_555 1_555
H14 C17 1_555 1_555
C18 C17 1_555 1_555
H15 C18 1_555 1_555
C19 C18 1_555 1_555
H16 C19 1_555 1_555
C20 N4 1_555 1_555
N6 Fe1 1_555 1_555
C21 N6 1_555 1_555
H17 C21 1_555 1_555
C22 C21 1_555 1_555
H18 C22 1_555 1_555
C23 C22 1_555 1_555
H19 C23 1_555 1_555
C24 C23 1_555 1_555
H20 C24 1_555 1_555
C25 N6 1_555 1_555
C26 N5 1_555 1_555
H21 C26 1_555 1_555
C27 C26 1_555 1_555
H22 C27 1_555 1_555
C28 C27 1_555 1_555
H23 C28 1_555 1_555
C29 C28 1_555 1_555
H24 C29 1_555 1_555
C30 N5 1_555 1_555
Fe2 N7 1_555 1_555
N7 C31 1_555 1_555
N8 Fe2 1_555 1_555
N9 Fe2 1_555 1_555
N10 Fe2 1_555 1_555
N11 Fe2 1_555 1_555
N12 Fe2 1_555 1_555
C31 H25 1_555 1_555
C32 C31 1_555 1_555
H26 C32 1_555 1_555
C33 C32 1_555 1_555
H27 C33 1_555 1_555
C34 C33 1_555 1_555
H28 C34 1_555 1_555
C35 N7 1_555 1_555
C36 N8 1_555 1_555
H29 C36 1_555 1_555
C37 C36 1_555 1_555
H30 C37 1_555 1_555
C38 C37 1_555 1_555
H31 C38 1_555 1_555
C39 C38 1_555 1_555
H32 C39 1_555 1_555
C40 N8 1_555 1_555
C41 N9 1_555 1_555
H33 C41 1_555 1_555
C42 C41 1_555 1_555
H34 C42 1_555 1_555
C43 C42 1_555 1_555
H35 C43 1_555 1_555
C44 C43 1_555 1_555
H36 C44 1_555 1_555
C45 N9 1_555 1_555
C46 N10 1_555 1_555
H37 C46 1_555 1_555
C47 C46 1_555 1_555
H38 C47 1_555 1_555
C48 C47 1_555 1_555
H39 C48 1_555 1_555
C49 C48 1_555 1_555
H40 C49 1_555 1_555
C50 N10 1_555 1_555
C51 N11 1_555 1_555
H41 C51 1_555 1_555
C52 C51 1_555 1_555
H42 C52 1_555 1_555
C53 C52 1_555 1_555
H43 C53 1_555 1_555
C54 C53 1_555 1_555
H44 C54 1_555 1_555
C55 N11 1_555 1_555
C56 N12 1_555 1_555
H45 C56 1_555 1_555
C57 C56 1_555 1_555
H46 C57 1_555 1_555
C58 C57 1_555 1_555
H47 C58 1_555 1_555
C59 C58 1_555 1_555
H48 C59 1_555 1_555
C60 N12 1_555 1_555
In1 S1 1_555 1_555
In2 S2 1_555 1_555
In3 S3 1_555 1_555
In4 S4 1_555 1_555
In5 S5 1_555 1_555
In6 S6 1_555 1_555
In7 S7 1_555 1_555
In8 S8 1_555 1_555
In9 S9 1_555 1_555
In10 S10 1_555 1_555
S1 In8C 1_555 1_555
S2 In1 1_555 1_555
S3 In1 1_555 1_555
S4 In1 1_555 1_555
S5 In2 1_555 1_555
S6 In2 1_555 1_555
S7 In2 1_555 1_555
S8 In3 1_555 1_555
S9 In3 1_555 1_555
S10 In4 1_555 1_555
S11 In5 1_555 1_555
S12 In5 1_555 1_555
S13 In5 1_555 1_555
S14 In6 1_555 1_555
S15 In6 1_555 1_555
S16 In7 1_555 1_555
S17 In8 1_555 1_555
S18 In9 1_555 1_555
S19 In10 1_555 1_555
N13 C61 1_555 1_555
C61 C62 1_555 1_555
C63 N13 1_555 1_555
C64 C63 1_555 1_555
C65 N13 1_555 1_555
C66 C65 1_555 1_555
N14 C67 1_555 1_555
C67 C68 1_555 1_555
C69 N14 1_555 1_555
C70 C69 1_555 1_555
C71 N14 1_555 1_555
C72 C71 1_555 1_555
S1C In8 1_555 1_555
C4 C5 1_555 1_555
C5 C10 1_555 1_555
C9 C10 1_555 1_555
C14 C15 1_555 1_555
C15 C20 1_555 1_555
C19 C20 1_555 1_555
C24 C25 1_555 1_555
C25 C30 1_555 1_555
C29 C30 1_555 1_555
C34 C35 1_555 1_555
C35 C40 1_555 1_555
C39 C40 1_555 1_555
C44 C45 1_555 1_555
C45 C50 1_555 1_555
C49 C50 1_555 1_555
C54 C55 1_555 1_555
C55 C60 1_555 1_555
C59 C60 1_555 1_555
In3 S6 1_555 1_555
In4 S7 1_555 1_555
In4 S9 1_555 1_555
In6 S12 1_555 1_555
In7 S13 1_555 1_555
In7 S15 1_555 1_555
In8 S14 1_555 1_555
In9 S15 1_555 1_555
In9 S17 1_555 1_555
In10 S16 1_555 1_555
In10 S18 1_555 1_555

#END
