
#######################################################################
#
#                 Cambridge Crystallographic Data Centre
#                                CCDC 
#
#######################################################################
#
# If this CIF has been generated from an entry in the Cambridge 
# Structural Database, then it will include bibliographic, chemical, 
# crystal, experimental, refinement or atomic coordinate data resulting 
# from the CCDC's data processing and validation procedures.
#
#######################################################################

data_KICVIC
_symmetry_cell_setting           monoclinic
_symmetry_space_group_name_H-M   'P 21/n'
_symmetry_Int_Tables_number      14
_space_group_name_Hall           '-P 2yn'
loop_
_symmetry_equiv_pos_site_id
_symmetry_equiv_pos_as_xyz
1 x,y,z
2 1/2-x,1/2+y,1/2-z
3 -x,-y,-z
4 1/2+x,1/2-y,1/2+z
_cell_length_a                   4.8700(8)
_cell_length_b                   18.833(3)
_cell_length_c                   13.780(2)
_cell_angle_alpha                90
_cell_angle_beta                 93.757(2)
_cell_angle_gamma                90
_cell_volume                     1261.14
loop_
_atom_site_label
_atom_site_type_symbol
_atom_site_fract_x
_atom_site_fract_y
_atom_site_fract_z
Ag1 Ag 1.06193(8) 0.600328(17) 1.01697(3)
N1 N 0.6612(7) 0.67271(17) 1.0806(2)
N2 N 0.4196(7) 0.68231(17) 1.0225(3)
N3 N 0.5257(7) 0.78279(16) 1.0933(2)
N4 N 0.7132(7) 0.87338(16) 1.1886(2)
N5 N 0.9310(7) 0.95666(16) 1.2897(2)
N6 N 1.2122(7) 1.01380(16) 1.3915(3)
N7 N 1.2764(7) 0.94194(17) 1.3969(2)
C1 C 0.7170(8) 0.7333(2) 1.1221(3)
H1 H 0.8675 0.7417 1.1657
C2 C 0.3465(8) 0.7481(2) 1.0307(3)
H2 H 0.1928 0.7685 0.9982
C3 C 0.5238(8) 0.85589(19) 1.1201(3)
C4 C 0.3385(9) 0.9029(2) 1.0753(3)
H3 H 0.2081 0.8881 1.0272
C5 C 0.3557(9) 0.9727(2) 1.1051(3)
H4 H 0.2342 1.0062 1.0771
C6 C 0.5528(9) 0.9933(2) 1.1763(3)
H5 H 0.5692 1.0402 1.1968
C7 C 0.7224(8) 0.94131(19) 1.2153(3)
C8 C 1.0047(9) 1.0210(2) 1.3274(3)
H6 H 0.9199 1.0639 1.3102
C9 C 1.1071(9) 0.9091(2) 1.3354(3)
H7 H 1.1061 0.8604 1.3241
Ag1_2 Ag 0.06193(8) 0.600328(17) 1.01697(3)
Ag1A Ag 1.43807(8) 1.100328(17) 1.48303(3)
Ag1C Ag 1.56193(8) 0.899672(17) 1.51697(3)
N2_2 N 1.4196(7) 0.68231(17) 1.0225(3)
N6A N 1.2878(7) 0.51380(16) 1.1085(3)
N7C N 0.7764(7) 0.55806(17) 0.8969(2)
Cl1 Cl 0.3402(2) 0.68081(6) 0.33246(8)
O1 O 0.6151(9) 0.6553(3) 0.3290(4)
O2 O 0.2425(11) 0.6517(3) 0.4167(3)
O3 O 0.3382(16) 0.7530(3) 0.3387(5)
O4 O 0.1932(8) 0.6563(2) 0.2477(3)
loop_
_geom_bond_atom_site_label_1
_geom_bond_atom_site_label_2
_geom_bond_site_symmetry_1
_geom_bond_site_symmetry_2
Ag1 N1 1_555 1_555
N1 N2 1_555 1_555
N2 C2 1_555 1_555
N3 C1 1_555 1_555
N4 C3 1_555 1_555
N5 C7 1_555 1_555
N6 N7 1_555 1_555
N7 C9 1_555 1_555
C1 N1 1_555 1_555
H1 C1 1_555 1_555
C2 N3 1_555 1_555
H2 C2 1_555 1_555
C3 N3 1_555 1_555
C4 C3 1_555 1_555
H3 C4 1_555 1_555
C5 C4 1_555 1_555
H4 C5 1_555 1_555
C6 C5 1_555 1_555
H5 C6 1_555 1_555
C7 N4 1_555 1_555
C8 N5 1_555 1_555
H6 C8 1_555 1_555
C9 N5 1_555 1_555
H7 C9 1_555 1_555
Cl1 O1 1_555 1_555
O2 Cl1 1_555 1_555
O3 Cl1 1_555 1_555
O4 Cl1 1_555 1_555
Ag1_2 N2 1_555 1_555
Ag1A N6 1_555 1_555
Ag1C N7 1_555 1_555
N2_2 Ag1 1_555 1_555
N6A Ag1 1_555 1_555
N7C Ag1 1_555 1_555
N6 C8 1_555 1_555
C6 C7 1_555 1_555

#END
