
#######################################################################
#
#                 Cambridge Crystallographic Data Centre
#                                CCDC 
#
#######################################################################
#
# If this CIF has been generated from an entry in the Cambridge 
# Structural Database, then it will include bibliographic, chemical, 
# crystal, experimental, refinement or atomic coordinate data resulting 
# from the CCDC's data processing and validation procedures.
#
#######################################################################

data_KICVOI
_symmetry_cell_setting           monoclinic
_symmetry_space_group_name_H-M   'P 21/n'
_symmetry_Int_Tables_number      14
_space_group_name_Hall           '-P 2yn'
loop_
_symmetry_equiv_pos_site_id
_symmetry_equiv_pos_as_xyz
1 x,y,z
2 1/2-x,1/2+y,1/2-z
3 -x,-y,-z
4 1/2+x,1/2-y,1/2+z
_cell_length_a                   9.341(2)
_cell_length_b                   7.9006(18)
_cell_length_c                   14.698(3)
_cell_angle_alpha                90
_cell_angle_beta                 97.987(3)
_cell_angle_gamma                90
_cell_volume                     1074.18
loop_
_atom_site_label
_atom_site_type_symbol
_atom_site_fract_x
_atom_site_fract_y
_atom_site_fract_z
Ag1 Ag 0.69341(4) 0.08769(6) 0.00380(2)
C1 C 0.6373(6) 0.1875(7) 0.5073(3)
H1 H 0.7173 0.1695 0.5515
N1 N 0.5159(4) 0.1266(5) 0.2604(2)
N2 N 0.5798(4) 0.0863(5) 0.1250(3)
N3 N 0.4331(4) 0.0561(5) 0.1190(3)
C2 C 0.4029(5) 0.2512(6) 0.3822(3)
H2 H 0.3233 0.2746 0.3386
N4 N 0.3988(4) 0.2961(5) 0.4693(2)
C3 C 0.5155(5) 0.2640(7) 0.5310(3)
H3 H 0.5139 0.2945 0.5920
C4 C 0.6403(5) 0.1377(7) 0.4179(3)
H4 H 0.7206 0.0829 0.4009
C5 C 0.5210(5) 0.1713(6) 0.3543(3)
C6 C 0.3993(5) 0.0805(6) 0.2006(3)
H5 H 0.3066 0.0679 0.2161
C7 C 0.6259(5) 0.1282(7) 0.2088(3)
H6 H 0.7212 0.1558 0.2308
Ag1B Ag 0.30659(4) -0.08769(6) -0.00380(2)
Ag1C Ag 0.19341(4) 0.41231(6) 0.50380(2)
N3B N 0.5669(4) -0.0561(5) -0.1190(3)
N4C N 0.8988(4) 0.2039(5) -0.0307(2)
B1 B 0.4679(6) 0.5775(7) 0.1877(5)
F1 F 0.3556(7) 0.4652(10) 0.1961(4)
F2 F 0.4584(12) 0.7079(10) 0.2453(5)
F3 F 0.5942(5) 0.4885(8) 0.1944(7)
F4 F 0.4440(9) 0.6410(10) 0.0958(4)
F5? F 0.364(2) 0.465(3) 0.1687(15)
F6? F 0.412(3) 0.718(3) 0.2257(16)
F7? F 0.5618(15) 0.515(2) 0.2630(12)
F8? F 0.540(2) 0.625(3) 0.1243(12)
loop_
_geom_bond_atom_site_label_1
_geom_bond_atom_site_label_2
_geom_bond_site_symmetry_1
_geom_bond_site_symmetry_2
Ag1 N2 1_555 1_555
C1 H1 1_555 1_555
N1 C5 1_555 1_555
N2 N3 1_555 1_555
N3 C6 1_555 1_555
C2 H2 1_555 1_555
N4 C2 1_555 1_555
C3 C1 1_555 1_555
H3 C3 1_555 1_555
C4 C1 1_555 1_555
H4 C4 1_555 1_555
C5 C2 1_555 1_555
C6 N1 1_555 1_555
H5 C6 1_555 1_555
C7 N1 1_555 1_555
H6 C7 1_555 1_555
B1 F1 1_555 1_555
F2 B1 1_555 1_555
F3 B1 1_555 1_555
F4 B1 1_555 1_555
Ag1B N3 1_555 1_555
Ag1C N4 1_555 1_555
N3B Ag1 1_555 1_555
N4C Ag1 1_555 1_555
N2 C7 1_555 1_555
N4 C3 1_555 1_555
C4 C5 1_555 1_555

#END
