
#######################################################################
#
#                 Cambridge Crystallographic Data Centre
#                                CCDC 
#
#######################################################################
#
# If this CIF has been generated from an entry in the Cambridge 
# Structural Database, then it will include bibliographic, chemical, 
# crystal, experimental, refinement or atomic coordinate data resulting 
# from the CCDC's data processing and validation procedures.
#
#######################################################################

data_KICWAV
_symmetry_cell_setting           monoclinic
_symmetry_space_group_name_H-M   'P 21/n'
_symmetry_Int_Tables_number      14
_space_group_name_Hall           '-P 2yn'
loop_
_symmetry_equiv_pos_site_id
_symmetry_equiv_pos_as_xyz
1 x,y,z
2 1/2-x,1/2+y,1/2-z
3 -x,-y,-z
4 1/2+x,1/2-y,1/2+z
_cell_length_a                   15.777(2)
_cell_length_b                   8.2118(11)
_cell_length_c                   18.983(2)
_cell_angle_alpha                90
_cell_angle_beta                 98.442(2)
_cell_angle_gamma                90
_cell_volume                     2432.74
loop_
_atom_site_label
_atom_site_type_symbol
_atom_site_fract_x
_atom_site_fract_y
_atom_site_fract_z
Ag1 Ag -0.002450(16) 0.58359(4) 0.229700(14)
Ag2 Ag -0.007240(19) 0.73045(4) 0.039700(16)
N1 N 0.43268(18) 0.2867(3) 0.19088(16)
N2 N 0.22365(17) 0.4707(3) 0.13287(14)
N3 N 0.09328(19) 0.5518(4) 0.09297(16)
N4 N 0.09733(18) 0.5068(4) 0.16386(15)
N5 N -0.11734(18) 0.7159(4) 0.16704(15)
N6 N -0.11738(19) 0.7722(4) 0.09810(16)
N7 N -0.24516(17) 0.8081(3) 0.12635(14)
N8 N -0.44894(19) 0.9362(3) 0.17907(16)
N9 N 0.0137(3) 0.8046(5) -0.0665(2)
C1 C 0.3507(2) 0.3268(4) 0.18617(18)
H1 H 0.3179 0.2795 0.2176
C2 C 0.4791(2) 0.3553(5) 0.1458(2)
H2 H 0.5366 0.3272 0.1486
C3 C 0.4453(3) 0.4655(5) 0.0955(2)
H3 H 0.4795 0.5102 0.0645
C4 C 0.3604(2) 0.5105(4) 0.0907(2)
H4 H 0.3366 0.5881 0.0579
C5 C 0.3125(2) 0.4363(4) 0.13630(18)
C6 C 0.1689(2) 0.5297(4) 0.07640(18)
H5 H 0.1841 0.5512 0.0318
C7 C 0.1748(2) 0.4601(4) 0.18569(18)
H6 H 0.1945 0.4240 0.2316
C8 C -0.1941(2) 0.8259(5) 0.07535(19)
H7 H -0.2115 0.8701 0.0305
C9 C -0.3342(2) 0.8438(4) 0.12133(16)
C10 C -0.3888(2) 0.8169(4) 0.05916(19)
H8 H -0.3685 0.7768 0.0190
C11 C -0.4742(2) 0.8510(5) 0.0579(2)
H9 H -0.5128 0.8347 0.0166
C12 C -0.5020(2) 0.9092(4) 0.1182(2)
H10 H -0.5600 0.9311 0.1168
C13 C -0.3660(2) 0.9031(4) 0.18032(18)
H11 H -0.3285 0.9204 0.2222
C14 C -0.1944(2) 0.7397(4) 0.18219(18)
H12 H -0.2120 0.7134 0.2254
C15 C 0.0162(3) 0.8405(5) -0.1230(2)
C16 C 0.0184(4) 0.8844(6) -0.1957(3)
H13 H -0.0092 0.8013 -0.2264
H14 H 0.0769 0.8954 -0.2035
H15 H -0.0109 0.9860 -0.2059
Ag1A Ag 0.502450(16) 0.08359(4) 0.270300(14)
Ag1A_2 Ag -0.497550(16) 1.08359(4) 0.270300(14)
N1A N 0.06732(18) 0.7867(3) 0.30912(16)
N8A N -0.05106(19) 0.4362(3) 0.32093(16)
Cl1 Cl -0.27764(6) -0.66946(12) 0.11406(5)
O1 O -0.2254(3) -0.5734(5) 0.0776(2)
O2 O -0.3098(3) -0.5689(5) 0.1666(2)
O3 O -0.3470(3) -0.7375(6) 0.0678(2)
O4 O -0.2318(3) -0.7943(5) 0.1545(3)
Cl2 Cl -0.78175(7) -0.02780(12) 0.11769(5)
O5 O -0.7227(3) 0.0669(5) 0.0832(2)
O6 O -0.8088(3) 0.0728(5) 0.1727(2)
O7 O -0.8491(3) -0.0763(5) 0.0652(3)
O8 O -0.7366(3) -0.1625(5) 0.1509(2)
loop_
_geom_bond_atom_site_label_1
_geom_bond_atom_site_label_2
_geom_bond_site_symmetry_1
_geom_bond_site_symmetry_2
Ag1 N4 1_555 1_555
Ag2 N3 1_555 1_555
N1 C1 1_555 1_555
N2 C5 1_555 1_555
N3 N4 1_555 1_555
N4 C7 1_555 1_555
N5 Ag1 1_555 1_555
N6 Ag2 1_555 1_555
N7 C8 1_555 1_555
N8 C12 1_555 1_555
N9 Ag2 1_555 1_555
C1 H1 1_555 1_555
C2 N1 1_555 1_555
H2 C2 1_555 1_555
C3 C2 1_555 1_555
H3 C3 1_555 1_555
C4 C3 1_555 1_555
H4 C4 1_555 1_555
C5 C1 1_555 1_555
C6 N2 1_555 1_555
H5 C6 1_555 1_555
C7 N2 1_555 1_555
H6 C7 1_555 1_555
C8 N6 1_555 1_555
H7 C8 1_555 1_555
C9 N7 1_555 1_555
C10 C9 1_555 1_555
H8 C10 1_555 1_555
C11 C10 1_555 1_555
H9 C11 1_555 1_555
C12 C11 1_555 1_555
H10 C12 1_555 1_555
C13 N8 1_555 1_555
H11 C13 1_555 1_555
C14 N5 1_555 1_555
H12 C14 1_555 1_555
C15 N9 1_555 1_555
C16 C15 1_555 1_555
H13 C16 1_555 1_555
H14 C16 1_555 1_555
H15 C16 1_555 1_555
Cl1 O1 1_555 1_555
O2 Cl1 1_555 1_555
O3 Cl1 1_555 1_555
O4 Cl1 1_555 1_555
Cl2 O5 1_555 1_555
O6 Cl2 1_555 1_555
O7 Cl2 1_555 1_555
O8 Cl2 1_555 1_555
Ag1A N1 1_555 1_555
Ag1A_2 N8 1_555 1_555
N1A Ag1 1_555 1_555
N8A Ag1 1_555 1_555
N3 C6 1_555 1_555
N5 N6 1_555 1_555
N7 C14 1_555 1_555
C4 C5 1_555 1_555
C9 C13 1_555 1_555

#END
