
#######################################################################
#
#                 Cambridge Crystallographic Data Centre
#                                CCDC 
#
#######################################################################
#
# If this CIF has been generated from an entry in the Cambridge 
# Structural Database, then it will include bibliographic, chemical, 
# crystal, experimental, refinement or atomic coordinate data resulting 
# from the CCDC's data processing and validation procedures.
#
#######################################################################

data_KICYEB
_symmetry_cell_setting           monoclinic
_symmetry_space_group_name_H-M   'P 21/n'
_symmetry_Int_Tables_number      14
_space_group_name_Hall           '-P 2yn'
loop_
_symmetry_equiv_pos_site_id
_symmetry_equiv_pos_as_xyz
1 x,y,z
2 1/2-x,1/2+y,1/2-z
3 -x,-y,-z
4 1/2+x,1/2-y,1/2+z
_cell_length_a                   15.770(4)
_cell_length_b                   13.486(3)
_cell_length_c                   31.048(8)
_cell_angle_alpha                90
_cell_angle_beta                 97.77(2)
_cell_angle_gamma                90
_cell_volume                     6542.48
loop_
_atom_site_label
_atom_site_type_symbol
_atom_site_fract_x
_atom_site_fract_y
_atom_site_fract_z
Mn1 Mn 0.76083(13) 0.96896(13) 0.21635(6)
Br1 Br 1.11191(11) 1.11872(12) 0.38612(4)
Mn2 Mn 0.16992(12) 0.71230(12) 0.25898(5)
Cr1 Cr 0.48370(13) 0.86995(13) 0.26787(6)
Br2 Br 0.51421(14) 0.74489(13) 0.02042(5)
Br5 Br 0.13631(13) 0.47000(14) 0.46869(5)
Br6 Br 0.07953(14) 0.98204(15) 0.04980(5)
O1 O 0.1415(5) 0.7404(5) 0.3150(2)
O2 O 0.7377(6) 0.8464(5) 0.1877(3)
O3 O 0.1018(5) 0.8137(5) 0.2302(2)
O4 O 0.8646(6) 0.9241(6) 0.2472(3)
C2 C 1.0460(8) 0.9606(10) 0.3276(4)
H1 H 1.0925 0.9237 0.3404
C3 C 0.0982(8) 0.8466(8) 0.1902(4)
N2 N 0.6587(6) 1.0301(6) 0.1832(3)
N3 N 0.4745(8) 0.8418(7) 0.2145(3)
C4 C 0.9175(9) 0.9714(10) 0.2769(4)
C5 C 0.8390(8) 1.1355(8) 0.2679(3)
H2 H 0.8396 1.2021 0.2757
C6 C 0.6125(9) 0.9077(8) 0.2712(3)
O6 O 0.8342(6) 1.0209(6) 0.1600(3)
C8 C 0.1392(9) 0.8005(8) 0.1573(4)
C9 C 0.0876(10) 0.6365(11) 0.4150(5)
N5 N 0.7784(7) 1.1057(6) 0.2382(3)
C12 C 0.6885(9) 0.8317(9) 0.1499(4)
C13 C 0.3552(9) 0.8319(9) 0.2697(4)
N6 N 0.6821(7) 0.9302(8) 0.2684(4)
N7 N 0.2009(7) 0.6637(7) 0.2020(3)
C14 C 0.2359(8) 0.5520(8) 0.3177(4)
H6 H 0.2677 0.4944 0.3237
N8 N 0.2880(8) 0.8078(8) 0.2689(4)
C15 C 0.9052(9) 1.0728(9) 0.2897(4)
C16 C 0.0488(8) 0.9745(9) 0.1374(4)
H7 H 0.0191 1.0332 0.1304
C17 C 0.5837(9) 0.7824(10) 0.0728(4)
C18 C 0.5206(9) 0.7337(9) 0.2943(4)
C19 C 0.9672(9) 1.1140(10) 0.3220(4)
H8 H 0.9616 1.1797 0.3303
C20 C 0.6435(10) 0.7154(10) 0.0920(5)
H9 H 0.6486 0.6542 0.0789
C21 C 0.6267(9) 0.8976(9) 0.1308(4)
N9 N 0.2422(7) 0.5971(7) 0.2814(3)
C22 C 0.0533(9) 0.9358(9) 0.1784(4)
H10 H 0.0263 0.9688 0.1991
C23 C 0.4865(9) 0.9209(9) 0.3315(4)
C24 C 0.0902(9) 0.6987(9) 0.3796(4)
H11 H 0.0587 0.7572 0.3779
O9 O 0.4578(9) 0.8356(8) 0.1764(3)
C25 C 0.2968(9) 0.5601(9) 0.2505(4)
H12 H 0.3140 0.4923 0.2573
H13 H 0.3477 0.6007 0.2513
C26 C 0.6968(10) 0.7371(9) 0.1306(4)
H14 H 0.7365 0.6911 0.1433
C29 C 0.6104(9) 0.9928(10) 0.1492(4)
H18 H 0.5636 1.0294 0.1365
C32 C 0.9888(9) 0.9208(10) 0.2963(4)
H20 H 0.9976 0.8562 0.2873
C35 C 0.1391(9) 0.6758(9) 0.3462(4)
C36 C 0.1332(10) 0.8406(10) 0.1157(4)
H22 H 0.1598 0.8087 0.0946
C37 C 0.1866(9) 0.7077(9) 0.1658(4)
H23 H 0.2082 0.6784 0.1424
N10 N 0.4871(9) 0.9561(9) 0.3651(4)
N11 N 0.5414(8) 0.6607(9) 0.3119(3)
C38 C 0.5737(9) 0.8717(10) 0.0913(4)
H24 H 0.5327 0.9159 0.0785
C39 C 0.0892(10) 0.9252(11) 0.1056(4)
C41 C 1.0338(9) 1.0610(10) 0.3408(4)
C42 C 0.2425(9) 0.5656(8) 0.2050(4)
H26 H 0.2788 0.5582 0.1824
H27 H 0.1999 0.5134 0.2018
C46 C 0.1337(11) 0.5502(12) 0.4182(5)
C47 C 0.7213(9) 1.1811(9) 0.2151(4)
H29 H 0.7459 1.2069 0.1903
H30 H 0.7125 1.2356 0.2343
C48 C 0.1833(8) 0.5845(9) 0.3494(4)
C49 C 0.1818(9) 0.5248(10) 0.3862(4)
H31 H 0.2141 0.4669 0.3891
C51 C 0.6365(8) 1.1278(8) 0.2000(4)
H32 H 0.6039 1.1197 0.2240
H33 H 0.6025 1.1656 0.1773
C52 C 0.4549(9) 1.0153(9) 0.2550(4)
N12 N 0.4373(7) 1.0975(8) 0.2480(3)
H39 H 0.061(6) 0.666(7) 0.439(3)
C55 C 0.828(4) 0.958(4) 0.1117(19)
H40 H 0.8631 0.9903 0.0930
H41 H 0.7695 0.9576 0.0979
H42 H 0.8471 0.8912 0.1170
Mn2A Mn 0.33008(12) 1.21230(12) 0.24102(5)
N12A N 0.0627(7) 0.5975(8) 0.2520(3)
Mn3 Mn 1.40237(14) 0.86650(15) 0.47732(6)
Br3 Br 1.81564(12) 0.66915(13) 0.42671(5)
Br4 Br 1.04721(12) 1.08906(14) 0.57679(5)
C1 C 1.5664(9) 0.7600(9) 0.4418(4)
N1 N 1.2831(8) 0.8863(8) 0.4468(3)
O5 O 1.5155(6) 0.8411(6) 0.5024(2)
C7 C 1.6624(10) 0.8037(9) 0.5082(4)
H3 H 1.6698 0.8302 0.5361
C10 C 1.1521(10) 1.0022(9) 0.5181(4)
H4 H 1.1015 0.9979 0.4990
N4 N 1.4155(8) 0.7854(7) 0.4251(3)
C11 C 1.3013(11) 1.0110(9) 0.5751(4)
H5 H 1.3519 1.0163 0.5942
O7 O 1.4330(7) 1.0024(6) 0.4408(3)
O8 O 1.3802(6) 0.9416(7) 0.5256(3)
C27 C 1.2761(10) 0.8557(10) 0.4000(4)
H15 H 1.2930 0.9102 0.3826
H16 H 1.2174 0.8383 0.3892
C28 C 1.2223(9) 0.9265(10) 0.4625(4)
H17 H 1.1700 0.9308 0.4446
C30 C 1.2265(9) 0.9667(9) 0.5061(4)
C31 C 1.4877(11) 0.7527(9) 0.4156(4)
H19 H 1.4871 0.7214 0.3889
C33 C 1.5796(9) 0.8039(9) 0.4832(4)
C34 C 1.6415(11) 0.7201(9) 0.4261(4)
H21 H 1.6361 0.6928 0.3983
C40 C 1.7320(9) 0.7643(9) 0.4912(5)
H25 H 1.7864 0.7668 0.5071
C43 C 1.7193(10) 0.7211(11) 0.4503(5)
C44 C 1.2260(11) 1.0450(9) 0.5880(4)
H28 H 1.2248 1.0682 0.6161
C45 C 1.3032(9) 0.9697(10) 0.5348(4)
C50 C 1.1517(11) 1.0437(10) 0.5579(5)
C53 C 1.3351(10) 0.7658(11) 0.3964(5)
H34 H 1.3084 0.7058 0.4053
H35 H 1.3462 0.7576 0.3666
O11 O 1.3621(8) 0.7257(8) 0.5118(3)
C54 C 1.3020(14) 0.6634(17) 0.5172(7)
H36 H 1.3243 0.6134 0.5377
H37 H 1.2811 0.6328 0.4899
H38 H 1.2560 0.6978 0.5281
O10 O 0.9209(11) 0.7347(15) 0.1150(8)
O12 O 0.9143(13) 0.6960(16) 0.1769(9)
loop_
_geom_bond_atom_site_label_1
_geom_bond_atom_site_label_2
_geom_bond_site_symmetry_1
_geom_bond_site_symmetry_2
Mn1 O2 1_555 1_555
Br1 C41 1_555 1_555
Mn2 O1 1_555 1_555
Cr1 N3 1_555 1_555
Mn3 N1 1_555 1_555
Br2 C17 1_555 1_555
Br3 C43 1_555 1_555
Br4 C50 1_555 1_555
Br5 C46 1_555 1_555
Br6 C39 1_555 1_555
O1 C35 1_555 1_555
O2 C12 1_555 1_555
C1 C31 1_555 1_555
O3 Mn2 1_555 1_555
O4 Mn1 1_555 1_555
C2 H1 1_555 1_555
N1 C27 1_555 1_555
O5 Mn3 1_555 1_555
C3 O3 1_555 1_555
N2 Mn1 1_555 1_555
N3 O9 1_555 1_555
C4 O4 1_555 1_555
C5 H2 1_555 1_555
C6 Cr1 1_555 1_555
O6 Mn1 1_555 1_555
C7 H3 1_555 1_555
C8 C3 1_555 1_555
C9 C24 1_555 1_555
C10 H4 1_555 1_555
N4 Mn3 1_555 1_555
C11 H5 1_555 1_555
N5 Mn1 1_555 1_555
C12 C21 1_555 1_555
C13 Cr1 1_555 1_555
O7 Mn3 1_555 1_555
N6 Mn1 1_555 1_555
N7 Mn2 1_555 1_555
C14 H6 1_555 1_555
N8 Mn2 1_555 1_555
C15 C4 1_555 1_555
O8 Mn3 1_555 1_555
C16 H7 1_555 1_555
C17 C20 1_555 1_555
C18 Cr1 1_555 1_555
C19 C15 1_555 1_555
H8 C19 1_555 1_555
C20 H9 1_555 1_555
C21 C29 1_555 1_555
N9 Mn2 1_555 1_555
C22 C3 1_555 1_555
H10 C22 1_555 1_555
C23 Cr1 1_555 1_555
C24 H11 1_555 1_555
C25 N9 1_555 1_555
H12 C25 1_555 1_555
H13 C25 1_555 1_555
C26 C12 1_555 1_555
H14 C26 1_555 1_555
C27 H15 1_555 1_555
H16 C27 1_555 1_555
C28 N1 1_555 1_555
H17 C28 1_555 1_555
C29 N2 1_555 1_555
H18 C29 1_555 1_555
C30 C10 1_555 1_555
C31 N4 1_555 1_555
H19 C31 1_555 1_555
C32 C2 1_555 1_555
H20 C32 1_555 1_555
C33 C1 1_555 1_555
C34 C1 1_555 1_555
H21 C34 1_555 1_555
C35 C24 1_555 1_555
C36 C8 1_555 1_555
H22 C36 1_555 1_555
C37 C8 1_555 1_555
H23 C37 1_555 1_555
N10 C23 1_555 1_555
N11 C18 1_555 1_555
C38 C17 1_555 1_555
H24 C38 1_555 1_555
C39 C16 1_555 1_555
C40 C7 1_555 1_555
H25 C40 1_555 1_555
C41 C2 1_555 1_555
C42 N7 1_555 1_555
H26 C42 1_555 1_555
H27 C42 1_555 1_555
C43 C34 1_555 1_555
C44 C11 1_555 1_555
H28 C44 1_555 1_555
C45 C11 1_555 1_555
C46 C9 1_555 1_555
C47 N5 1_555 1_555
H29 C47 1_555 1_555
H30 C47 1_555 1_555
C48 C14 1_555 1_555
C49 C46 1_555 1_555
H31 C49 1_555 1_555
C50 C10 1_555 1_555
C51 N2 1_555 1_555
H32 C51 1_555 1_555
H33 C51 1_555 1_555
C52 Cr1 1_555 1_555
N12 C52 1_555 1_555
C53 N4 1_555 1_555
H34 C53 1_555 1_555
H35 C53 1_555 1_555
O11 Mn3 1_555 1_555
C54 O11 1_555 1_555
H36 C54 1_555 1_555
H37 C54 1_555 1_555
H38 C54 1_555 1_555
H39 C9 1_555 1_555
C55 O6 1_555 1_555
H40 C55 1_555 1_555
H41 C55 1_555 1_555
H42 C55 1_555 1_555
Mn2A N12 1_555 1_555
N12A Mn2 1_555 1_555
O5 C33 1_555 1_555
C4 C32 1_555 1_555
C5 N5 1_555 1_555
C5 C15 1_555 1_555
C6 N6 1_555 1_555
C7 C33 1_555 1_555
C13 N8 1_555 1_555
N7 C37 1_555 1_555
C14 N9 1_555 1_555
O8 C45 1_555 1_555
C16 C22 1_555 1_555
C19 C41 1_555 1_555
C20 C26 1_555 1_555
C21 C38 1_555 1_555
C25 C42 1_555 1_555
C27 C53 1_555 1_555
C28 C30 1_555 1_555
C30 C45 1_555 1_555
C35 C48 1_555 1_555
C36 C39 1_555 1_555
C40 C43 1_555 1_555
C44 C50 1_555 1_555
C47 C51 1_555 1_555
C48 C49 1_555 1_555

#END
