
#######################################################################
#
#                 Cambridge Crystallographic Data Centre
#                                CCDC 
#
#######################################################################
#
# If this CIF has been generated from an entry in the Cambridge 
# Structural Database, then it will include bibliographic, chemical, 
# crystal, experimental, refinement or atomic coordinate data resulting 
# from the CCDC's data processing and validation procedures.
#
#######################################################################

data_KICZOM
_symmetry_cell_setting           monoclinic
_symmetry_space_group_name_H-M   'P 21/n'
_symmetry_Int_Tables_number      14
_space_group_name_Hall           '-P 2yn'
loop_
_symmetry_equiv_pos_site_id
_symmetry_equiv_pos_as_xyz
1 x,y,z
2 1/2-x,1/2+y,1/2-z
3 -x,-y,-z
4 1/2+x,1/2-y,1/2+z
_cell_length_a                   4.0537(2)
_cell_length_b                   17.9362(14)
_cell_length_c                   12.9105(9)
_cell_angle_alpha                90
_cell_angle_beta                 92.846(8)
_cell_angle_gamma                90
_cell_volume                     937.539
loop_
_atom_site_label
_atom_site_type_symbol
_atom_site_fract_x
_atom_site_fract_y
_atom_site_fract_z
Cu1 Cu 0.12382(18) -0.55538(3) -0.29397(5)
Cu2 Cu -0.47606(17) -0.67611(3) -0.23380(5)
Br1 Br 0.03945(11) -0.63491(3) -0.13295(3)
Br2 Br 0.59322(11) -0.59746(3) -0.39499(3)
N1 N 0.1022(10) -0.44300(19) -0.2774(3)
C1 C 0.2406(11) -0.4046(2) -0.1969(3)
C2 C 0.2015(11) -0.3265(2) -0.1904(3)
N2 N 0.0245(10) -0.28913(19) -0.2641(3)
C3 C -0.1083(13) -0.3284(3) -0.3448(3)
H1 H -0.2283 -0.3034 -0.3973
C4 C -0.0713(12) -0.4042(3) -0.3517(3)
H2 H -0.1672 -0.4295 -0.4085
C5 C 0.4276(13) -0.4477(3) -0.1140(4)
H3 H 0.2835 -0.4595 -0.0595
H4 H 0.6093 -0.4183 -0.0864
H5 H 0.5099 -0.4930 -0.1428
C6 C 0.3513(13) -0.2827(3) -0.1013(3)
H6 H 0.3613 -0.2310 -0.1201
H7 H 0.5703 -0.3008 -0.0844
H8 H 0.2183 -0.2883 -0.0423
Cu1_2 Cu 1.12382(18) -0.55538(3) -0.29397(5)
Cu2_2 Cu 0.52394(17) -0.67611(3) -0.23380(5)
Cu2A Cu -0.02394(17) -0.17611(3) -0.26620(5)
Br1_2 Br -0.96055(11) -0.63491(3) -0.13295(3)
Br2_2 Br -0.40678(11) -0.59746(3) -0.39499(3)
N2A N -0.5245(10) -0.78913(19) -0.2359(3)
loop_
_geom_bond_atom_site_label_1
_geom_bond_atom_site_label_2
_geom_bond_site_symmetry_1
_geom_bond_site_symmetry_2
Cu1 Br1 1_555 1_555
Cu2 Br1 1_555 1_555
Br1 Cu2_2 1_555 1_555
Br2 Cu1 1_555 1_555
N1 Cu1 1_555 1_555
C1 N1 1_555 1_555
C2 C1 1_555 1_555
N2 C2 1_555 1_555
C3 N2 1_555 1_555
H1 C3 1_555 1_555
C4 N1 1_555 1_555
H2 C4 1_555 1_555
C5 C1 1_555 1_555
H3 C5 1_555 1_555
H4 C5 1_555 1_555
H5 C5 1_555 1_555
C6 C2 1_555 1_555
H6 C6 1_555 1_555
H7 C6 1_555 1_555
H8 C6 1_555 1_555
Cu1_2 Br2 1_555 1_555
Cu2_2 Br2 1_555 1_555
Cu2A N2 1_555 1_555
Br1_2 Cu2 1_555 1_555
Br2_2 Cu1 1_555 1_555
N2A Cu2 1_555 1_555
Cu2 Br2_2 1_555 1_555
C3 C4 1_555 1_555

#END
