
#######################################################################
#
#                 Cambridge Crystallographic Data Centre
#                                CCDC 
#
#######################################################################
#
# If this CIF has been generated from an entry in the Cambridge 
# Structural Database, then it will include bibliographic, chemical, 
# crystal, experimental, refinement or atomic coordinate data resulting 
# from the CCDC's data processing and validation procedures.
#
#######################################################################

data_KICZAY
_symmetry_cell_setting           triclinic
_symmetry_space_group_name_H-M   'P -1'
_symmetry_Int_Tables_number      2
_space_group_name_Hall           '-P 1'
loop_
_symmetry_equiv_pos_site_id
_symmetry_equiv_pos_as_xyz
1 x,y,z
2 -x,-y,-z
_cell_length_a                   5.5547(6)
_cell_length_b                   11.3084(11)
_cell_length_c                   11.9750(12)
_cell_angle_alpha                94.6030(10)
_cell_angle_beta                 97.7790(10)
_cell_angle_gamma                97.5210(10)
_cell_volume                     735.189
loop_
_atom_site_label
_atom_site_type_symbol
_atom_site_fract_x
_atom_site_fract_y
_atom_site_fract_z
Ca1 Ca 0.0000 1.0000 0.5000
P1 P 0.48309(8) 0.88621(4) 0.66036(4)
P2 P 0.18469(8) 1.26824(4) 0.71033(4)
P3 P 0.37878(8) 0.63637(4) 0.75306(4)
P4 P 0.19716(8) 1.14701(4) 0.93503(4)
O1 O 0.2179(2) 0.87334(12) 0.60956(11)
O2 O 0.6791(3) 0.95080(13) 0.60447(13)
O3 O 0.5246(3) 0.94508(13) 0.78725(12)
O4 O 0.1679(3) 1.14892(12) 0.64610(11)
O5 O 0.0103(3) 1.34650(14) 0.64593(12)
O6 O 0.4417(2) 1.33679(12) 0.74343(11)
O7 O 0.3025(3) 0.71508(14) 0.84989(13)
O8 O 0.1498(2) 0.57609(12) 0.67885(12)
O9 O 0.5558(3) 0.55271(13) 0.80102(13)
O10 O 0.4657(2) 1.19578(13) 0.96169(12)
O11 O 0.0651(3) 1.15484(13) 1.04051(11)
O12 O 0.1427(3) 1.01926(12) 0.87577(11)
N1 N 0.8298(3) 0.74811(15) 0.72502(15)
N2 N -0.2115(3) 1.18729(16) 0.80149(15)
C1 C 0.5644(3) 0.73380(16) 0.67041(15)
C2 C 0.5499(4) 0.6715(2) 0.55066(18)
C3 C 0.0493(3) 1.24640(16) 0.84120(15)
C4 C 0.0435(4) 1.36751(18) 0.90841(18)
H1 H 0.883(5) 0.678(3) 0.718(2)
H2 H 0.859(5) 0.779(2) 0.802(2)
H3 H 0.919(5) 0.800(2) 0.690(2)
H4 H -0.298(5) 1.239(2) 0.758(2)
H5 H 0.202(5) 1.402(2) 0.937(2)
H6 H -0.034(5) 1.423(2) 0.860(2)
H7 H -0.047(5) 1.356(2) 0.969(2)
H8 H 0.391(5) 0.656(2) 0.508(2)
H9 H 0.417(5) 0.961(3) 0.812(2)
H10 H -0.213(5) 1.117(3) 0.759(2)
H11 H 0.597(5) 0.592(2) 0.557(2)
H12 H 0.663(5) 0.721(2) 0.508(2)
H13 H -0.298(5) 1.176(3) 0.863(3)
H14 H 0.405(6) 0.741(3) 0.913(3)
H15 H 0.056(5) 1.416(3) 0.658(2)
H16 H 0.510(6) 0.469(3) 0.774(3)
H17 H 0.000(8) 1.089(4) 1.065(4)
Ca1_2 Ca 1.0000 1.0000 0.5000
Ca1_3 Ca -1.0000 1.0000 0.5000
P1A P -0.48309(8) 1.11379(4) 0.33964(4)
P2A P -0.18469(8) 0.73176(4) 0.28967(4)
P3A P -0.37878(8) 1.36363(4) 0.24694(4)
P4A P -0.19716(8) 0.85299(4) 0.06497(4)
O1A O -0.2179(2) 1.12666(12) 0.39044(11)
O2A O -0.6791(3) 1.04920(13) 0.39553(13)
O2_2 O -0.3209(3) 0.95080(13) 0.60447(13)
O2A_2 O 0.3209(3) 1.04920(13) 0.39553(13)
O3A O -0.5246(3) 1.05492(13) 0.21275(12)
O4A O -0.1679(3) 0.85108(12) 0.35390(11)
O5A O -0.0103(3) 0.65350(14) 0.35407(12)
O6A O -0.4417(2) 0.66321(12) 0.25657(11)
O7A O -0.3025(3) 1.28492(14) 0.15011(13)
O8A O -0.1498(2) 1.42391(12) 0.32115(12)
O9A O -0.5558(3) 1.44729(13) 0.19898(13)
O10A O -0.4657(2) 0.80422(13) 0.03831(12)
O11A O -0.0651(3) 0.84516(13) -0.04051(11)
O12A O -0.1427(3) 0.98074(12) 0.12423(11)
N1A N -0.8298(3) 1.25189(15) 0.27498(15)
N2A N 0.2115(3) 0.81271(16) 0.19851(15)
C1A C -0.5644(3) 1.26620(16) 0.32959(15)
C2A C -0.5499(4) 1.3285(2) 0.44934(18)
C3A C -0.0493(3) 0.75360(16) 0.15880(15)
C4A C -0.0435(4) 0.63249(18) 0.09159(18)
H1A H -0.883(5) 1.322(3) 0.282(2)
H2A H -0.859(5) 1.221(2) 0.198(2)
H3A H -0.919(5) 1.200(2) 0.310(2)
H4A H 0.298(5) 0.761(2) 0.242(2)
H5A H -0.202(5) 0.598(2) 0.063(2)
H6A H 0.034(5) 0.577(2) 0.140(2)
H7A H 0.047(5) 0.644(2) 0.031(2)
H8A H -0.391(5) 1.344(2) 0.492(2)
H9A H -0.417(5) 1.039(3) 0.188(2)
H10A H 0.213(5) 0.883(3) 0.241(2)
H11A H -0.597(5) 1.408(2) 0.443(2)
H12A H -0.663(5) 1.279(2) 0.492(2)
H13A H 0.298(5) 0.824(3) 0.137(3)
H14A H -0.405(6) 1.259(3) 0.087(3)
H15A H -0.056(5) 0.584(3) 0.342(2)
H16A H -0.510(6) 1.531(3) 0.226(3)
H17A H 0.000(8) 0.911(4) -0.065(4)
loop_
_geom_bond_atom_site_label_1
_geom_bond_atom_site_label_2
_geom_bond_site_symmetry_1
_geom_bond_site_symmetry_2
Ca1 O1 1_555 1_555
P1 O1 1_555 1_555
P2 O4 1_555 1_555
P3 O7 1_555 1_555
P4 O10 1_555 1_555
O2 P1 1_555 1_555
O3 P1 1_555 1_555
O4 Ca1 1_555 1_555
O5 P2 1_555 1_555
O6 P2 1_555 1_555
O7 H14 1_555 1_555
O8 P3 1_555 1_555
O9 P3 1_555 1_555
O11 P4 1_555 1_555
O12 P4 1_555 1_555
N1 C1 1_555 1_555
N2 C3 1_555 1_555
C1 P1 1_555 1_555
C2 C1 1_555 1_555
C3 P2 1_555 1_555
C4 C3 1_555 1_555
H1 N1 1_555 1_555
H2 N1 1_555 1_555
H3 N1 1_555 1_555
H4 N2 1_555 1_555
H5 C4 1_555 1_555
H6 C4 1_555 1_555
H7 C4 1_555 1_555
H8 C2 1_555 1_555
H9 O3 1_555 1_555
H10 N2 1_555 1_555
H11 C2 1_555 1_555
H12 C2 1_555 1_555
H13 N2 1_555 1_555
H15 O5 1_555 1_555
H16 O9 1_555 1_555
H17 O11 1_555 1_555
Ca1_2 O2 1_555 1_555
Ca1_3 O2A 1_555 1_555
P1A O1A 1_555 1_555
P2A O4A 1_555 1_555
P3A O7A 1_555 1_555
P4A O10A 1_555 1_555
O1A Ca1 1_555 1_555
O2A P1A 1_555 1_555
O2_2 Ca1 1_555 1_555
O2A_2 Ca1 1_555 1_555
O3A P1A 1_555 1_555
O4A Ca1 1_555 1_555
O5A P2A 1_555 1_555
O6A P2A 1_555 1_555
O7A H14A 1_555 1_555
O8A P3A 1_555 1_555
O9A P3A 1_555 1_555
O11A P4A 1_555 1_555
O12A P4A 1_555 1_555
N1A C1A 1_555 1_555
N2A C3A 1_555 1_555
C1A P1A 1_555 1_555
C2A C1A 1_555 1_555
C3A P2A 1_555 1_555
C4A C3A 1_555 1_555
H1A N1A 1_555 1_555
H2A N1A 1_555 1_555
H3A N1A 1_555 1_555
H4A N2A 1_555 1_555
H5A C4A 1_555 1_555
H6A C4A 1_555 1_555
H7A C4A 1_555 1_555
H8A C2A 1_555 1_555
H9A O3A 1_555 1_555
H10A N2A 1_555 1_555
H11A C2A 1_555 1_555
H12A C2A 1_555 1_555
H13A N2A 1_555 1_555
H15A O5A 1_555 1_555
H16A O9A 1_555 1_555
H17A O11A 1_555 1_555
P3 C1 1_555 1_555
P4 C3 1_555 1_555
P3A C1A 1_555 1_555
P4A C3A 1_555 1_555

#END
