
#######################################################################
#
#                 Cambridge Crystallographic Data Centre
#                                CCDC 
#
#######################################################################
#
# If this CIF has been generated from an entry in the Cambridge 
# Structural Database, then it will include bibliographic, chemical, 
# crystal, experimental, refinement or atomic coordinate data resulting 
# from the CCDC's data processing and validation procedures.
#
#######################################################################

data_KIDFUA
_symmetry_cell_setting           monoclinic
_symmetry_space_group_name_H-M   'C 2/c'
_symmetry_Int_Tables_number      15
_space_group_name_Hall           '-C 2yn'
loop_
_symmetry_equiv_pos_site_id
_symmetry_equiv_pos_as_xyz
1 x,y,z
2 -x,y,1/2-z
3 1/2+x,1/2+y,z
4 1/2-x,1/2+y,1/2-z
5 -x,-y,-z
6 x,-y,1/2+z
7 1/2-x,1/2-y,-z
8 1/2+x,1/2-y,1/2+z
_cell_length_a                   15.9808(14)
_cell_length_b                   12.6100(11)
_cell_length_c                   13.1345(12)
_cell_angle_alpha                90
_cell_angle_beta                 104.0460(10)
_cell_angle_gamma                90
_cell_volume                     2567.7
loop_
_atom_site_label
_atom_site_type_symbol
_atom_site_fract_x
_atom_site_fract_y
_atom_site_fract_z
Mn1 Mn 0.12767(3) 1.00090(4) 0.04918(4)
O1 O 0.09812(14) 0.84171(17) 0.09220(18)
O2 O -0.03734(16) 0.88012(18) 0.0177(2)
O3 O 0.17863(15) 0.46905(19) 0.1627(2)
H1 H 0.2116 0.4194 0.1829
O4 O 0.07882(17) 0.34803(19) 0.1706(2)
O5 O -0.22984(14) 0.45302(19) 0.08786(19)
O6 O -0.26375(15) 0.62178(18) 0.0693(2)
N1 N 0.1305(2) 0.8526(2) -0.2516(3)
H2 H 0.1349 0.7982 -0.2895
N2 N 0.11265(19) 0.9533(2) -0.2894(2)
N3 N 0.12323(17) 0.9473(2) -0.1153(2)
N4 N 0.1615(3) 0.7646(3) -0.0896(3)
H3 H 0.1704 0.7056 -0.1181
H4 H 0.1666 0.7679 -0.0230
C1 C 0.1088(2) 1.0047(3) -0.2039(3)
H5 H 0.0968 1.0769 -0.2046
C2 C 0.1399(3) 0.8503(3) -0.1482(3)
C3 C 0.0193(2) 0.8170(2) 0.0634(2)
C4 C -0.00592(19) 0.7066(2) 0.0847(2)
C5 C 0.0570(2) 0.6285(2) 0.1134(2)
H6 H 0.1148 0.6460 0.1221
C6 C 0.0341(2) 0.5248(2) 0.1289(2)
C7 C 0.0986(2) 0.4384(3) 0.1564(2)
C8 C -0.0524(2) 0.4996(3) 0.1187(2)
H7 H -0.0678 0.4303 0.1298
C9 C -0.1157(2) 0.5766(2) 0.0921(2)
C10 C -0.2083(2) 0.5478(3) 0.0825(2)
C11 C -0.0921(2) 0.6800(2) 0.0735(2)
H8 H -0.1344 0.7316 0.0533
Mn1B Mn -0.37233(3) 0.50090(4) 0.04918(4)
Mn1D Mn -0.12767(3) 0.99910(4) -0.04918(4)
Mn1E Mn 0.12767(3) 0.99910(4) -0.45082(4)
O2D O 0.03734(16) 1.11988(18) -0.0177(2)
O5B O 0.27016(14) 0.95302(19) 0.08786(19)
O6B O 0.23625(15) 1.12178(18) 0.0693(2)
N2E N 0.11265(19) 1.0467(2) 0.2106(2)
O7 O 0.27523(18) 0.2979(2) 0.2138(3)
H9 H 0.2540 0.2357 0.2081
H10 H 0.3223 0.3073 0.2600
loop_
_geom_bond_atom_site_label_1
_geom_bond_atom_site_label_2
_geom_bond_site_symmetry_1
_geom_bond_site_symmetry_2
Mn1 O1 1_555 1_555
O1 C3 1_555 1_555
O2 C3 1_555 1_555
O3 H1 1_555 1_555
O4 C7 1_555 1_555
O5 C10 1_555 1_555
O6 C10 1_555 1_555
N1 H2 1_555 1_555
N2 N1 1_555 1_555
N3 Mn1 1_555 1_555
N4 H3 1_555 1_555
H4 N4 1_555 1_555
C1 N2 1_555 1_555
H5 C1 1_555 1_555
C2 N1 1_555 1_555
C3 C4 1_555 1_555
C4 C5 1_555 1_555
C5 H6 1_555 1_555
C6 C5 1_555 1_555
C7 O3 1_555 1_555
C8 C6 1_555 1_555
H7 C8 1_555 1_555
C9 C8 1_555 1_555
C10 C9 1_555 1_555
C11 C4 1_555 1_555
H8 C11 1_555 1_555
O7 H9 1_555 1_555
H10 O7 1_555 1_555
Mn1B O5 1_555 1_555
Mn1D O2 1_555 1_555
Mn1E N2 1_555 1_555
O2D Mn1 1_555 1_555
O5B Mn1 1_555 1_555
O6B Mn1 1_555 1_555
N2E Mn1 1_555 1_555
O6 Mn1B 1_555 1_555
N3 C1 1_555 1_555
N3 C2 1_555 1_555
N4 C2 1_555 1_555
C6 C7 1_555 1_555
C9 C11 1_555 1_555

#END
