
#######################################################################
#
#                 Cambridge Crystallographic Data Centre
#                                CCDC 
#
#######################################################################
#
# If this CIF has been generated from an entry in the Cambridge 
# Structural Database, then it will include bibliographic, chemical, 
# crystal, experimental, refinement or atomic coordinate data resulting 
# from the CCDC's data processing and validation procedures.
#
#######################################################################

data_KIDGEJ
_symmetry_cell_setting           monoclinic
_symmetry_space_group_name_H-M   'P 21/c'
_symmetry_Int_Tables_number      14
_space_group_name_Hall           '-P 2ybc'
loop_
_symmetry_equiv_pos_site_id
_symmetry_equiv_pos_as_xyz
1 x,y,z
2 -x,1/2+y,1/2-z
3 -x,-y,-z
4 x,1/2-y,1/2+z
_cell_length_a                   13.962(1)
_cell_length_b                   5.624(9)
_cell_length_c                   19.827(2)
_cell_angle_alpha                90
_cell_angle_beta                 91.41(1)
_cell_angle_gamma                90
_cell_volume                     1556.39
loop_
_atom_site_label
_atom_site_type_symbol
_atom_site_fract_x
_atom_site_fract_y
_atom_site_fract_z
Ag1 Ag 0.4614(1) 0.5382(2) 0.0712(1)
Ag2 Ag 0.3788(1) 0.1216(2) 0.0113(1)
C1 C 0.6774(9) -0.1028(4) 0.2802(6)
C2 C 0.7061(13) -0.0075(37) 0.3405(8)
C3 C 0.7671(10) -0.1221(47) 0.3853(7)
C4 C 0.8008(12) -0.3409(38) 0.3685(9)
C5 C 0.7735(15) -0.4417(40) 0.3092(11)
C6 C 0.7069(12) -0.3289(31) 0.2651(8)
O1 O 0.6173(7) 0.0253(16) 0.2399(4)
C7 C 0.5644(11) -0.0961(25) 0.1887(6)
C8 C 0.5168(8) 0.0727(24) 0.1391(5)
O2 O 0.4688(7) -0.0372(15) 0.0936(4)
O3 O 0.5279(6) 0.2874(19) 0.1444(4)
C9 C 0.1310(9) 1.0363(25) -0.0916(6)
C10 C 0.0784(19) 1.1861(51) -0.0538(10)
C11 C 0.0082(15) 1.3274(40) -0.0803(9)
C12 C -0.0071(11) 1.3326(33) -0.1482(8)
C13 C 0.0464(15) 1.1967(40) -0.1868(9)
C14 C 0.1153(13) 1.0393(31) -0.1600(8)
O4 O 0.1977(7) 0.9005(18) -0.0590(4)
C15 C 0.2410(10) 0.7157(28) -0.0955(7)
C16 C 0.3125(8) 0.5902(23) -0.0490(5)
O5 O 0.3518(6) 0.7019(15) -0.0025(4)
O6 O 0.3235(7) 0.3736(19) -0.0631(4)
H1 H 0.687(8) 0.101(20) 0.340(5)
H2 H 0.089(20) 1.137(46) -0.026(11)
H3 H 0.774(11) -0.087(26) 0.448(8)
H4 H 0.849(50) -0.519(51) 0.372(14)
H5 H -0.052(13) 1.453(33) -0.168(9)
H6 H 0.052(12) 1.175(32) -0.232(8)
H7 H 0.678(21) -0.489(49) 0.233(13)
H8 H 0.146(9) 0.972(22) -0.192(6)
H9 H 0.603(10) -0.203(14) 0.164(6)
H10 H 0.273(10) 0.768(24) -0.140(7)
H11 H 0.183(12) 0.610(27) -0.105(7)
O2_2 O 0.4688(7) 0.9628(15) 0.0936(4)
Ag1_2 Ag 0.4614(1) -0.4618(2) 0.0712(1)
O5_2 O 0.3518(6) -0.2981(15) -0.0025(4)
Ag2_2 Ag 0.3788(1) 1.1216(2) 0.0113(1)
loop_
_geom_bond_atom_site_label_1
_geom_bond_atom_site_label_2
_geom_bond_site_symmetry_1
_geom_bond_site_symmetry_2
Ag1 Ag2 1_555 1_555
Ag2 O2 1_555 1_555
C1 C2 1_555 1_555
C2 C3 1_555 1_555
C3 C4 1_555 1_555
C4 C5 1_555 1_555
C5 C6 1_555 1_555
C6 C1 1_555 1_555
O1 C1 1_555 1_555
C7 O1 1_555 1_555
C8 C7 1_555 1_555
O2 C8 1_555 1_555
O3 Ag1 1_555 1_555
C9 C10 1_555 1_555
C10 C11 1_555 1_555
C11 C12 1_555 1_555
C12 C13 1_555 1_555
C13 C14 1_555 1_555
C14 C9 1_555 1_555
O4 C9 1_555 1_555
C15 O4 1_555 1_555
C16 C15 1_555 1_555
O5 Ag1 1_555 1_555
O6 Ag2 1_555 1_555
H1 C2 1_555 1_555
H2 C10 1_555 1_555
H3 C3 1_555 1_555
H4 C4 1_555 1_555
H5 C12 1_555 1_555
H6 C13 1_555 1_555
H7 C6 1_555 1_555
H8 C14 1_555 1_555
H9 C7 1_555 1_555
H10 C15 1_555 1_555
H11 C15 1_555 1_555
O2_2 Ag1 1_555 1_555
Ag1_2 O2 1_555 1_555
O5_2 Ag2 1_555 1_555
Ag2_2 O5 1_555 1_555
C8 O3 1_555 1_555
C16 O5 1_555 1_555
C16 O6 1_555 1_555
O2_2 Ag2_2 1_555 1_555
Ag1_2 O5_2 1_555 1_555

#END
