
#######################################################################
#
#                 Cambridge Crystallographic Data Centre
#                                CCDC 
#
#######################################################################
#
# If this CIF has been generated from an entry in the Cambridge 
# Structural Database, then it will include bibliographic, chemical, 
# crystal, experimental, refinement or atomic coordinate data resulting 
# from the CCDC's data processing and validation procedures.
#
#######################################################################

data_KIDGOT
_symmetry_cell_setting           orthorhombic
_symmetry_space_group_name_H-M   'P 21 21 2'
_symmetry_Int_Tables_number      18
_space_group_name_Hall           'P 2 2ab'
loop_
_symmetry_equiv_pos_site_id
_symmetry_equiv_pos_as_xyz
1 x,y,z
2 1/2+x,1/2-y,-z
3 1/2-x,1/2+y,-z
4 -x,-y,z
_cell_length_a                   14.812(3)
_cell_length_b                   12.993(2)
_cell_length_c                   12.028(2)
_cell_angle_alpha                90
_cell_angle_beta                 90
_cell_angle_gamma                90
_cell_volume                     2314.82
loop_
_atom_site_label
_atom_site_type_symbol
_atom_site_fract_x
_atom_site_fract_y
_atom_site_fract_z
Cd1 Cd 0.0000 0.0000 -0.11041(5)
S1 S -0.1799(1) -0.0399(1) -0.1076(1)
S2 S -0.0343(1) -0.1973(1) -0.1175(1)
C1 C -0.1433(4) -0.1618(4) -0.1247(4)
O1 O -0.1991(3) -0.2398(3) -0.1468(4)
C2 C -0.2942(5) -0.2253(6) -0.1668(7)
C3 C -0.3210(6) -0.2955(8) -0.2259(7)
C4 C -0.3437(5) -0.2434(8) -0.0603(7)
N1 N 0.0000 0.0000 0.0939(5)
N2 N 0.0000 0.0000 0.6836(5)
C5 C -0.0503(4) -0.0663(5) 0.1515(4)
C6 C -0.0520(4) -0.0696(5) 0.2656(4)
C7 C 0.0000 0.0000 0.3260(5)
C8 C -0.0703(4) -0.0354(5) 0.6250(4)
C9 C -0.0737(4) -0.0365(5) 0.5099(4)
C10 C 0.0000 0.0000 0.4508(6)
H1 H -0.3103(5) -0.1481(6) -0.1933(7)
H2 H -0.3922(6) -0.2863(8) -0.2727(7)
H3 H -0.3078(6) -0.3738(8) -0.2308(7)
H4 H -0.4152(5) -0.2329(8) -0.0737(7)
H5 H -0.3205(5) -0.1895(8) 0.0017(7)
H6 H -0.3312(5) -0.3210(8) -0.0320(7)
H7 H -0.0919(4) -0.1202(5) 0.1062(4)
H8 H -0.0933(4) -0.1257(5) 0.3081(4)
H9 H 0.1278(4) 0.0648(5) 0.6702(4)
H10 H 0.1326(4) 0.0652(5) 0.4671(4)
S1C S 0.1799(1) 0.0399(1) -0.1076(1)
C1C C 0.1433(4) 0.1618(4) -0.1247(4)
S2C S 0.0343(1) 0.1973(1) -0.1175(1)
C6C C 0.0520(4) 0.0696(5) 0.2656(4)
C5C C 0.0503(4) 0.0663(5) 0.1515(4)
H7C H 0.0919(4) 0.1202(5) 0.1062(4)
H8C H 0.0933(4) 0.1257(5) 0.3081(4)
N2_2 N 0.0000 0.0000 -0.3164(5)
Cd1_2 Cd 0.0000 0.0000 0.88959(5)
C8C C 0.0703(4) 0.0354(5) 0.6250(4)
C9C C 0.0737(4) 0.0365(5) 0.5099(4)
H9C H -0.1278(4) -0.0648(5) 0.6702(4)
H10C H -0.1326(4) -0.0652(5) 0.4671(4)
O1C O 0.1991(3) 0.2398(3) -0.1468(4)
C2C C 0.2942(5) 0.2253(6) -0.1668(7)
C3C C 0.3210(6) 0.2955(8) -0.2259(7)
H2C H 0.3922(6) 0.2863(8) -0.2727(7)
H3C H 0.3078(6) 0.3738(8) -0.2308(7)
C4C C 0.3437(5) 0.2434(8) -0.0603(7)
H4C H 0.4152(5) 0.2329(8) -0.0737(7)
H5C H 0.3205(5) 0.1895(8) 0.0017(7)
H6C H 0.3312(5) 0.3210(8) -0.0320(7)
H1C H 0.3103(5) 0.1481(6) -0.1933(7)
Cd2 Cd 0.0000 -0.5 0.41665(4)
S3 S -0.0971(11) -0.3224(1) 0.4126(1)
S4 S -0.1749(1) -0.5340(1) 0.4153(1)
C11 C -0.1859(4) -0.4033(4) 0.4056(5)
O2 O -0.2700(2) -0.3731(3) 0.3919(4)
C12 C -0.2934(5) -0.2647(5) 0.3746(6)
C13 C -0.3898(4) -0.2550(5) 0.4169(6)
C14 C -0.2830(5) -0.2396(6) 0.2528(6)
N3 N 0.0000 -0.5 0.2092(5)
N4 N 0.0000 -0.5 -0.3804(5)
C15 C -0.0690(5) -0.4633(6) 0.1511(5)
C16 C -0.0704(4) -0.4615(6) 0.0353(4)
C17 C 0.0000 -0.5 -0.0245(6)
C18 C -0.0673(4) -0.4592(5) -0.3219(5)
C19 C -0.0710(4) -0.4577(5) -0.2080(5)
C20 C 0.0000 -0.5 -0.1477(5)
H11 H -0.2506(5) -0.2108(5) 0.4181(6)
H12 H -0.4125(4) -0.1765(5) 0.4070(6)
H13 H -0.3922(4) -0.2759(5) 0.5037(6)
H14 H -0.4332(4) -0.3057(5) 0.3699(6)
H15 H -0.3001(5) -0.1598(6) 0.2389(6)
H16 H -0.3275(5) -0.2880(6) 0.2046(6)
H17 H -0.2140(5) -0.2530(6) 0.2277(6)
H18 H -0.1267(5) -0.4336(5) 0.1955(5)
H19 H -0.1279(4) -0.4292(6) -0.0074(4)
H20 H 0.1227(4) -0.5749(5) -0.3671(5)
H21 H 0.1284(4) -0.5759(5) -0.1657(5)
S3C S 0.0971(11) -0.6776(1) 0.4126(1)
C11C C 0.1859(4) -0.5967(4) 0.4056(5)
S4C S 0.1749(1) -0.4660(1) 0.4153(1)
C16C C 0.0704(4) -0.5385(6) 0.0353(4)
C15C C 0.0690(5) -0.5367(6) 0.1511(5)
H18C H 0.1267(5) -0.5664(5) 0.1955(5)
H19C H 0.1279(4) -0.5708(6) -0.0074(4)
N4_2 N 0.0000 -0.5 0.6196(5)
Cd2_2 Cd 0.0000 -0.5 -0.58335(4)
C18C C 0.0673(4) -0.5408(5) -0.3219(5)
C19C C 0.0710(4) -0.5423(5) -0.2080(5)
H20C H -0.1227(4) -0.4251(5) -0.3671(5)
H21C H -0.1284(4) -0.4241(5) -0.1657(5)
O2C O 0.2700(2) -0.6269(3) 0.3919(4)
C12C C 0.2934(5) -0.7353(5) 0.3746(6)
C13C C 0.3898(4) -0.7450(5) 0.4169(6)
H12C H 0.4125(4) -0.8235(5) 0.4070(6)
H13C H 0.3922(4) -0.7241(5) 0.5037(6)
H14C H 0.4332(4) -0.6943(5) 0.3699(6)
C14C C 0.2830(5) -0.7604(6) 0.2528(6)
H15C H 0.3001(5) -0.8402(6) 0.2389(6)
H16C H 0.3275(5) -0.7120(6) 0.2046(6)
H17C H 0.2140(5) -0.7470(6) 0.2277(6)
H11C H 0.2506(5) -0.7892(5) 0.4181(6)
loop_
_geom_bond_atom_site_label_1
_geom_bond_atom_site_label_2
_geom_bond_site_symmetry_1
_geom_bond_site_symmetry_2
Cd1 S1 1_555 1_555
S1 C1 1_555 1_555
S2 Cd1 1_555 1_555
C1 S2 1_555 1_555
O1 C1 1_555 1_555
C2 O1 1_555 1_555
C3 C2 1_555 1_555
C4 C2 1_555 1_555
N1 Cd1 1_555 1_555
N2 C8 1_555 1_555
C5 N1 1_555 1_555
C6 C5 1_555 1_555
C7 C6 1_555 1_555
C8 C9 1_555 1_555
C9 C10 1_555 1_555
C10 C7 1_555 1_555
H1 C2 1_555 1_555
H2 C3 1_555 1_555
H3 C3 1_555 1_555
H4 C4 1_555 1_555
H5 C4 1_555 1_555
H6 C4 1_555 1_555
H7 C5 1_555 1_555
H8 C6 1_555 1_555
H9 C8C 1_555 1_555
H10 C9C 1_555 1_555
Cd2 S3 1_555 1_555
S3 C11 1_555 1_555
S4 Cd2 1_555 1_555
C11 S4 1_555 1_555
O2 C11 1_555 1_555
C12 O2 1_555 1_555
C13 C12 1_555 1_555
C14 C12 1_555 1_555
N3 Cd2 1_555 1_555
N4 C18 1_555 1_555
C15 N3 1_555 1_555
C16 C15 1_555 1_555
C17 C16 1_555 1_555
C18 C19 1_555 1_555
C19 C20 1_555 1_555
C20 C17 1_555 1_555
H11 C12 1_555 1_555
H12 C13 1_555 1_555
H13 C13 1_555 1_555
H14 C13 1_555 1_555
H15 C14 1_555 1_555
H16 C14 1_555 1_555
H17 C14 1_555 1_555
H18 C15 1_555 1_555
H19 C16 1_555 1_555
H20 C18C 1_555 1_555
H21 C19C 1_555 1_555
S1C Cd1 1_555 1_555
C1C S1C 1_555 1_555
S2C Cd1 1_555 1_555
C6C C7 1_555 1_555
C5C N1 1_555 1_555
H7C C5C 1_555 1_555
H8C C6C 1_555 1_555
N2_2 Cd1 1_555 1_555
Cd1_2 N2 1_555 1_555
C8C N2 1_555 1_555
C9C C10 1_555 1_555
H9C C8 1_555 1_555
H10C C9 1_555 1_555
O1C C1C 1_555 1_555
C2C O1C 1_555 1_555
C3C C2C 1_555 1_555
H2C C3C 1_555 1_555
H3C C3C 1_555 1_555
C4C C2C 1_555 1_555
H4C C4C 1_555 1_555
H5C C4C 1_555 1_555
H6C C4C 1_555 1_555
H1C C2C 1_555 1_555
S3C Cd2 1_555 1_555
C11C S3C 1_555 1_555
S4C Cd2 1_555 1_555
C16C C17 1_555 1_555
C15C N3 1_555 1_555
H18C C15C 1_555 1_555
H19C C16C 1_555 1_555
N4_2 Cd2 1_555 1_555
Cd2_2 N4 1_555 1_555
C18C N4 1_555 1_555
C19C C20 1_555 1_555
H20C C18 1_555 1_555
H21C C19 1_555 1_555
O2C C11C 1_555 1_555
C12C O2C 1_555 1_555
C13C C12C 1_555 1_555
H12C C13C 1_555 1_555
H13C C13C 1_555 1_555
H14C C13C 1_555 1_555
C14C C12C 1_555 1_555
H15C C14C 1_555 1_555
H16C C14C 1_555 1_555
H17C C14C 1_555 1_555
H11C C12C 1_555 1_555
C1C S2C 1_555 1_555
C6C C5C 1_555 1_555
C8C C9C 1_555 1_555
C11C S4C 1_555 1_555
C16C C15C 1_555 1_555
C18C C19C 1_555 1_555

#END
