
#######################################################################
#
#                 Cambridge Crystallographic Data Centre
#                                CCDC 
#
#######################################################################
#
# If this CIF has been generated from an entry in the Cambridge 
# Structural Database, then it will include bibliographic, chemical, 
# crystal, experimental, refinement or atomic coordinate data resulting 
# from the CCDC's data processing and validation procedures.
#
#######################################################################

data_KIDLEP
_symmetry_cell_setting           triclinic
_symmetry_space_group_name_H-M   'P -1'
_symmetry_Int_Tables_number      2
_space_group_name_Hall           '-P 1'
loop_
_symmetry_equiv_pos_site_id
_symmetry_equiv_pos_as_xyz
1 x,y,z
2 -x,-y,-z
_cell_length_a                   7.728(2)
_cell_length_b                   8.641(2)
_cell_length_c                   11.481(3)
_cell_angle_alpha                104.401(5)
_cell_angle_beta                 104.241(5)
_cell_angle_gamma                107.558(5)
_cell_volume                     663.831
loop_
_atom_site_label
_atom_site_type_symbol
_atom_site_fract_x
_atom_site_fract_y
_atom_site_fract_z
C1 C 0.8614(6) 0.6427(6) 0.1135(4)
C2 C 0.9878(6) 0.7179(5) -0.0308(4)
C3 C 0.7254(6) 0.4676(6) -0.1033(4)
C4 C 0.9795(6) 0.8204(6) 0.3403(4)
H1 H 0.9043 0.8846 0.3675
H2 H 1.0760 0.8945 0.3165
C5 C 1.0834(6) 0.7799(6) 0.4542(4)
C6 C 1.2546(6) 0.9955(6) 0.0446(4)
H3 H 1.3454 0.9708 0.1048
H4 H 1.1856 1.0484 0.0908
C7 C 1.3661(6) 1.1226(6) -0.0072(4)
C8 C 0.5902(6) 0.2691(7) -0.3223(4)
H5 H 0.5314 0.1436 -0.3584
H6 H 0.7228 0.3042 -0.3204
C9 C 0.4838(6) 0.3399(6) -0.4097(4)
N1 N 0.9955(5) 0.7573(5) 0.0932(3)
N2 N 0.8558(5) 0.5791(5) -0.1326(3)
N3 N 0.7285(5) 0.4965(5) 0.0182(3)
N4 N 0.8541(6) 0.6711(5) 0.2299(3)
H7 H 0.7659 0.5927 0.2404
N5 N 1.1195(5) 0.8367(4) -0.0546(3)
H8 H 1.1225 0.8167 -0.1312
N6 N 0.5930(5) 0.3228(5) -0.1922(3)
H9 H 0.5052 0.2581 -0.1720
Ni1 Ni 0.77603(8) 0.47137(8) 0.46627(5)
O1 O 1.0331(4) 0.6201(4) 0.4440(3)
O2 O 1.2085(5) 0.9039(4) 0.5465(3)
O3 O 1.4838(4) 1.2633(4) 0.0753(3)
H10 H 1.5396 1.3244 0.0407
O4 O 1.3398(4) 1.0764(4) -0.1236(3)
O5 O 0.5095(4) 0.3182(4) -0.5183(3)
O6 O 0.3745(4) 0.4085(4) -0.3768(3)
O7 O 0.7178(4) 0.2854(4) 0.3000(3)
H11 H 0.7081 0.3273 0.2402
H12 H 0.8098 0.2498 0.3068
O8 O 0.8291(5) 0.6525(5) 0.6390(3)
H13 H 0.7382 0.6181 0.6674
H14 H 0.8349 0.7473 0.6279
Ni1A Ni 1.22397(8) 0.52863(8) 0.53373(5)
Ni1_2 Ni 0.77603(8) 0.47137(8) -0.53373(5)
Ni1A_2 Ni 0.22397(8) 0.52863(8) -0.46627(5)
O1A O 0.9669(4) 0.3799(4) 0.5560(3)
O5_2 O 0.5095(4) 0.3182(4) 0.4817(3)
O6A O 0.6255(4) 0.5915(4) 0.3768(3)
loop_
_geom_bond_atom_site_label_1
_geom_bond_atom_site_label_2
_geom_bond_site_symmetry_1
_geom_bond_site_symmetry_2
C1 N1 1_555 1_555
C2 N1 1_555 1_555
C3 N2 1_555 1_555
C4 H1 1_555 1_555
H2 C4 1_555 1_555
C5 C4 1_555 1_555
C6 H3 1_555 1_555
H4 C6 1_555 1_555
C7 C6 1_555 1_555
C8 H5 1_555 1_555
H6 C8 1_555 1_555
C9 C8 1_555 1_555
N2 C2 1_555 1_555
N3 C1 1_555 1_555
N4 C1 1_555 1_555
H7 N4 1_555 1_555
N5 C2 1_555 1_555
H8 N5 1_555 1_555
N6 C3 1_555 1_555
H9 N6 1_555 1_555
Ni1 O1 1_555 1_555
O1 C5 1_555 1_555
O2 C5 1_555 1_555
O3 C7 1_555 1_555
H10 O3 1_555 1_555
O4 C7 1_555 1_555
O5 C9 1_555 1_555
O6 C9 1_555 1_555
O7 Ni1 1_555 1_555
H11 O7 1_555 1_555
H12 O7 1_555 1_555
O8 Ni1 1_555 1_555
H13 O8 1_555 1_555
H14 O8 1_555 1_555
Ni1A O1 1_555 1_555
Ni1_2 O5 1_555 1_555
Ni1A_2 O6 1_555 1_555
O1A Ni1 1_555 1_555
O5_2 Ni1 1_555 1_555
O6A Ni1 1_555 1_555
C3 N3 1_555 1_555
C4 N4 1_555 1_555
C6 N5 1_555 1_555
C8 N6 1_555 1_555
Ni1A O1A 1_555 1_555

#END
