
#######################################################################
#
#                 Cambridge Crystallographic Data Centre
#                                CCDC 
#
#######################################################################
#
# If this CIF has been generated from an entry in the Cambridge 
# Structural Database, then it will include bibliographic, chemical, 
# crystal, experimental, refinement or atomic coordinate data resulting 
# from the CCDC's data processing and validation procedures.
#
#######################################################################

data_KIDLOZ
_symmetry_cell_setting           monoclinic
_symmetry_space_group_name_H-M   'P c'
_symmetry_Int_Tables_number      7
_space_group_name_Hall           'P -2yc'
loop_
_symmetry_equiv_pos_site_id
_symmetry_equiv_pos_as_xyz
1 x,y,z
2 x,-y,1/2+z
_cell_length_a                   8.367(2)
_cell_length_b                   9.642(2)
_cell_length_c                   7.3962(17)
_cell_angle_alpha                90
_cell_angle_beta                 94.901(4)
_cell_angle_gamma                90
_cell_volume                     594.504
loop_
_atom_site_label
_atom_site_type_symbol
_atom_site_fract_x
_atom_site_fract_y
_atom_site_fract_z
Cd1 Cd 1.14923(9) 0.02264(6) 0.26514(9)
C1 C 0.6919(16) 0.3856(11) 0.068(2)
C2 C 0.6922(15) 0.6202(11) 0.0467(14)
C3 C 0.9006(13) 0.4899(10) -0.0633(13)
C4 C 0.6800(15) 0.1332(11) 0.0850(15)
H1 H 0.6917 0.1255 -0.0439
H2 H 0.5967 0.0686 0.1129
C5 C 0.8309(15) 0.0871(15) 0.1857(18)
C6 C 1.1181(14) 0.3488(12) -0.1654(13)
H3 H 1.2109 0.3637 -0.2331
H4 H 1.0430 0.2912 -0.2390
C7 C 1.1719(12) 0.2737(14) 0.0024(16)
C8 C 0.4873(12) 0.7698(10) 0.1358(14)
H5 H 0.5009 0.8191 0.2504
H6 H 0.4398 0.6804 0.1587
C9 C 0.3706(13) 0.8495(10) 0.0082(14)
N1 N 0.6231(12) 0.5061(8) 0.0968(13)
N2 N 0.8399(12) 0.6137(9) -0.0373(12)
H7 H 0.8872 0.6877 -0.0696
N3 N 0.8359(13) 0.3721(10) -0.0208(14)
N4 N 0.6219(10) 0.2757(8) 0.1115(13)
H8 H 0.6117 0.2832 0.2312
N5 N 0.6436(11) 0.7413(10) 0.0618(11)
H9 H 0.7009 0.8120 0.0383
N6 N 1.0429(13) 0.4821(10) -0.1394(15)
H10 H 1.0882 0.5574 -0.1707
O1 O 0.8801(9) -0.0334(8) 0.1408(10)
O2 O 0.9222(9) 0.1620(8) 0.2810(10)
O3 O 0.2308(10) 0.8592(8) 0.0547(11)
O4 O 0.4160(10) 0.8950(11) -0.1286(12)
O5 O 1.2098(8) 0.3354(7) 0.1503(10)
O6 O 1.1752(9) 0.1389(8) -0.0043(10)
Cd1_2 Cd 0.14923(9) 1.02264(6) 0.26514(9)
Cd1A Cd 0.14923(9) 0.97736(6) -0.23486(9)
Cd1A_2 Cd 1.14923(9) -0.02264(6) -0.23486(9)
O3_2 O 1.2308(10) -0.1408(8) 0.0547(11)
O3A O 1.2308(10) 0.1408(8) 0.5547(11)
O4A O 1.4160(10) 0.1050(11) 0.3714(12)
O6A O 1.1752(9) -0.1389(8) 0.4957(10)
loop_
_geom_bond_atom_site_label_1
_geom_bond_atom_site_label_2
_geom_bond_site_symmetry_1
_geom_bond_site_symmetry_2
Cd1 O1 1_555 1_555
C1 N1 1_555 1_555
C2 N1 1_555 1_555
C3 N2 1_555 1_555
C4 H1 1_555 1_555
H2 C4 1_555 1_555
C5 C4 1_555 1_555
C6 H3 1_555 1_555
H4 C6 1_555 1_555
C7 C6 1_555 1_555
C8 H5 1_555 1_555
H6 C8 1_555 1_555
C9 C8 1_555 1_555
N2 C2 1_555 1_555
H7 N2 1_555 1_555
N3 C1 1_555 1_555
N4 C1 1_555 1_555
H8 N4 1_555 1_555
N5 C2 1_555 1_555
H9 N5 1_555 1_555
N6 C3 1_555 1_555
H10 N6 1_555 1_555
O1 C5 1_555 1_555
O2 Cd1 1_555 1_555
O3 C9 1_555 1_555
O4 C9 1_555 1_555
O5 C7 1_555 1_555
O6 Cd1 1_555 1_555
Cd1_2 O3 1_555 1_555
Cd1A O3 1_555 1_555
Cd1A_2 O6 1_555 1_555
O3_2 Cd1 1_555 1_555
O3A Cd1 1_555 1_555
O4A Cd1 1_555 1_555
O6A Cd1 1_555 1_555
C3 N3 1_555 1_555
C4 N4 1_555 1_555
C5 O2 1_555 1_555
C6 N6 1_555 1_555
C7 O6 1_555 1_555
C8 N5 1_555 1_555
O4 Cd1A 1_555 1_555
Cd1A_2 O3_2 1_555 1_555

#END
