
#######################################################################
#
#                 Cambridge Crystallographic Data Centre
#                                CCDC 
#
#######################################################################
#
# If this CIF has been generated from an entry in the Cambridge 
# Structural Database, then it will include bibliographic, chemical, 
# crystal, experimental, refinement or atomic coordinate data resulting 
# from the CCDC's data processing and validation procedures.
#
#######################################################################

data_KIDLAL
_symmetry_cell_setting           triclinic
_symmetry_space_group_name_H-M   'P -1'
_symmetry_Int_Tables_number      2
_space_group_name_Hall           '-P 1'
loop_
_symmetry_equiv_pos_site_id
_symmetry_equiv_pos_as_xyz
1 x,y,z
2 -x,-y,-z
_cell_length_a                   6.7169(7)
_cell_length_b                   9.0656(8)
_cell_length_c                   9.1565(10)
_cell_angle_alpha                74.930(7)
_cell_angle_beta                 74.262(8)
_cell_angle_gamma                70.520(7)
_cell_volume                     497.033
loop_
_atom_site_label
_atom_site_type_symbol
_atom_site_fract_x
_atom_site_fract_y
_atom_site_fract_z
Mn1 Mn 0.40512(10) 0.10764(7) 0.67567(7)
Mn2 Mn 0.29634(10) 0.13686(7) 0.06532(7)
O1 O 0.4441(5) 0.1330(3) 0.4022(3)
O2 O 0.2627(5) 0.2892(4) 0.2171(4)
O3 O -0.0719(5) 0.9131(4) 0.3061(4)
O4 O 0.2522(5) 0.9318(4) 0.2965(4)
O5 O 0.3312(6) 0.2860(4) 0.8459(4)
O6 O 0.2745(7) 0.5331(4) 0.8753(4)
O7 O 0.3789(5) -0.0261(4) 0.9107(3)
O8 O -0.0472(6) 0.1779(4) 0.0901(4)
N1 N 0.3066(5) 0.3693(4) 0.5574(4)
C1 C 0.2828(6) 0.4047(5) 0.4102(5)
C2 C 0.2149(6) 0.5615(4) 0.3339(4)
C3 C 0.1802(6) 0.6838(4) 0.4114(4)
C4 C 0.2062(6) 0.6479(5) 0.5644(5)
C5 C 0.2664(6) 0.4875(4) 0.6327(4)
C6 C 0.3343(6) 0.2640(5) 0.3344(4)
C7 C 0.1142(6) 0.8545(5) 0.3315(4)
C8 C 0.2904(7) 0.4348(5) 0.7985(5)
H1 H -0.079(9) 0.098(7) 0.158(7)
H2 H 0.175(10) 0.729(8) 0.641(7)
H3 H 0.211(8) 0.574(6) 0.238(6)
H4 H -0.121(11) 0.258(9) 0.107(7)
H5 H 0.308(12) -0.070(10) 0.919(9)
Mn1A Mn 0.59488(10) -0.10764(7) 0.32433(7)
Mn1A_2 Mn -0.40512(10) 0.89236(7) 0.32433(7)
Mn1A_3 Mn 0.59488(10) 0.89236(7) 0.32433(7)
Mn2_2 Mn 0.29634(10) 1.13686(7) 0.06532(7)
Mn2_3 Mn 0.29634(10) 0.13686(7) 1.06532(7)
Mn2A Mn 0.70366(10) -0.13686(7) 0.93468(7)
O1A O 0.5559(5) -0.1330(3) 0.5978(3)
O3A O 0.0719(5) 0.0869(4) 0.6939(4)
O4A O 0.7478(5) 0.0682(4) 0.7035(4)
O4_2 O 0.2522(5) -0.0682(4) 0.2965(4)
O5_2 O 0.3312(6) 0.2860(4) -0.1541(4)
O7_2 O 0.3789(5) -0.0261(4) -0.0893(3)
O7A O 0.6211(5) 0.0261(4) 0.0893(3)
H5_2 H 0.308(12) -0.070(10) -0.081(9)
H5A H 0.692(12) 0.070(10) 0.081(9)
loop_
_geom_bond_atom_site_label_1
_geom_bond_atom_site_label_2
_geom_bond_site_symmetry_1
_geom_bond_site_symmetry_2
Mn1 O1 1_555 1_555
Mn2 O2 1_555 1_555
O1 C6 1_555 1_555
O2 C6 1_555 1_555
O3 C7 1_555 1_555
O4 C7 1_555 1_555
O5 Mn1 1_555 1_555
O6 C8 1_555 1_555
O7 Mn1 1_555 1_555
O8 Mn2 1_555 1_555
N1 Mn1 1_555 1_555
C1 N1 1_555 1_555
C2 C1 1_555 1_555
C3 C2 1_555 1_555
C4 C3 1_555 1_555
C5 N1 1_555 1_555
C6 C1 1_555 1_555
C7 C3 1_555 1_555
C8 O5 1_555 1_555
H1 O8 1_555 1_555
H2 C4 1_555 1_555
H3 C2 1_555 1_555
H4 O8 1_555 1_555
H5 O7 1_555 1_555
Mn1A O1 1_555 1_555
Mn1A_2 O3 1_555 1_555
Mn1A_3 O4 1_555 1_555
Mn2_2 O4 1_555 1_555
Mn2_3 O5 1_555 1_555
Mn2A O7 1_555 1_555
O1A Mn1 1_555 1_555
O3A Mn1 1_555 1_555
O4A Mn1 1_555 1_555
O4_2 Mn2 1_555 1_555
O5_2 Mn2 1_555 1_555
O7_2 Mn2 1_555 1_555
O7A Mn2 1_555 1_555
H5_2 O7_2 1_555 1_555
H5A O7A 1_555 1_555
O7 Mn2_3 1_555 1_555
C4 C5 1_555 1_555
C5 C8 1_555 1_555
Mn1A O1A 1_555 1_555
Mn1A O4_2 1_555 1_555
Mn1A O7A 1_555 1_555
Mn2A O4A 1_555 1_555

#END
