
#######################################################################
#
#                 Cambridge Crystallographic Data Centre
#                                CCDC 
#
#######################################################################
#
# If this CIF has been generated from an entry in the Cambridge 
# Structural Database, then it will include bibliographic, chemical, 
# crystal, experimental, refinement or atomic coordinate data resulting 
# from the CCDC's data processing and validation procedures.
#
#######################################################################

data_KIDMUH
_symmetry_cell_setting           orthorhombic
_symmetry_space_group_name_H-M   'I b a m'
_symmetry_Int_Tables_number      72
_space_group_name_Hall           '-I 2 2c'
loop_
_symmetry_equiv_pos_site_id
_symmetry_equiv_pos_as_xyz
1 x,y,z
2 -x,-y,z
3 1/2-x,1/2+y,-z
4 1/2+x,1/2-y,-z
5 1/2+x,1/2+y,1/2+z
6 1/2-x,1/2-y,1/2+z
7 -x,y,1/2-z
8 x,-y,1/2-z
9 -x,-y,-z
10 x,y,-z
11 1/2+x,1/2-y,z
12 1/2-x,1/2+y,z
13 1/2-x,1/2-y,1/2-z
14 1/2+x,1/2+y,1/2-z
15 x,-y,1/2+z
16 -x,y,1/2+z
_cell_length_a                   9.2905(8)
_cell_length_b                   17.7901(17)
_cell_length_c                   19.1055(17)
_cell_angle_alpha                90
_cell_angle_beta                 90
_cell_angle_gamma                90
_cell_volume                     3157.74
loop_
_atom_site_label
_atom_site_type_symbol
_atom_site_fract_x
_atom_site_fract_y
_atom_site_fract_z
Ag1 Ag 0.0000 0.31545(3) 0.2500
S1 S 0.49886(18) 0.26220(14) 0.0000
O1 O 0.5326(8) 0.1796(4) 0.0000
N1 N 0.1706(4) 0.2950(2) 0.17491(19)
C1 C 0.2082(5) 0.2267(3) 0.1537(2)
H1 H 0.1654 0.1854 0.1751
C2 C 0.3073(5) 0.2141(3) 0.1015(2)
H2 H 0.3319 0.1655 0.0880
C3 C 0.3688(4) 0.2757(3) 0.0699(2)
C4 C 0.3352(6) 0.3465(3) 0.0929(3)
H3 H 0.3792 0.3887 0.0736
C5 C 0.2371(6) 0.3535(3) 0.1443(3)
H4 H 0.2138 0.4017 0.1596
S2 S 0.0000 0.5000 0.2500
O2 O 0.0877(7) 0.4508(3) 0.2925(3)
N1I N 0.1706(4) 0.2950(2) -0.17491(19)
C1I C 0.2082(5) 0.2267(3) -0.1537(2)
H1I H 0.1654 0.1854 -0.1751
C2I C 0.3073(5) 0.2141(3) -0.1015(2)
H2I H 0.3319 0.1655 -0.0880
C3I C 0.3688(4) 0.2757(3) -0.0699(2)
C4I C 0.3352(6) 0.3465(3) -0.0929(3)
H3I H 0.3792 0.3887 -0.0736
C5I C 0.2371(6) 0.3535(3) -0.1443(3)
H4I H 0.2138 0.4017 -0.1596
O2A O -0.0877(7) 0.5492(3) 0.2925(3)
O2F O -0.0877(7) 0.4508(3) 0.2075(3)
O2G O 0.0877(7) 0.5492(3) 0.2075(3)
Ag1A Ag 0.0000 0.68455(3) 0.2500
S1A S -0.49886(18) 0.73780(14) 0.0000
O1A O -0.5326(8) 0.8204(4) 0.0000
N1A N -0.1706(4) 0.7050(2) 0.17491(19)
C1A C -0.2082(5) 0.7733(3) 0.1537(2)
H1A H -0.1654 0.8146 0.1751
C2A C -0.3073(5) 0.7859(3) 0.1015(2)
H2A H -0.3319 0.8345 0.0880
C3A C -0.3688(4) 0.7243(3) 0.0699(2)
C4A C -0.3352(6) 0.6535(3) 0.0929(3)
H3A H -0.3792 0.6113 0.0736
C5A C -0.2371(6) 0.6465(3) 0.1443(3)
H4A H -0.2138 0.5983 0.1596
N1H N -0.1706(4) 0.7050(2) -0.17491(19)
C1H C -0.2082(5) 0.7733(3) -0.1537(2)
H1H H -0.1654 0.8146 -0.1751
C2H C -0.3073(5) 0.7859(3) -0.1015(2)
H2H H -0.3319 0.8345 -0.0880
C3H C -0.3688(4) 0.7243(3) -0.0699(2)
C4H C -0.3352(6) 0.6535(3) -0.0929(3)
H3H H -0.3792 0.6113 -0.0736
C5H C -0.2371(6) 0.6465(3) -0.1443(3)
H4H H -0.2138 0.5983 -0.1596
Ag1H Ag 0.0000 0.68455(3) -0.2500
Ag1I Ag 0.0000 0.31545(3) -0.2500
N1F N -0.1706(4) 0.2950(2) 0.32509(19)
N1G N 0.1706(4) 0.7050(2) 0.32509(19)
O3 O 0.3660(10) 0.4555(4) 0.3426(7)
O4 O 0.627(2) 0.4606(7) 0.0000
O5? O 0.909(7) 0.498(2) 0.0569(11)
loop_
_geom_bond_atom_site_label_1
_geom_bond_atom_site_label_2
_geom_bond_site_symmetry_1
_geom_bond_site_symmetry_2
Ag1 N1 1_555 1_555
S1 O1 1_555 1_555
N1 C1 1_555 1_555
C1 H1 1_555 1_555
C2 C1 1_555 1_555
H2 C2 1_555 1_555
C3 S1 1_555 1_555
C4 C3 1_555 1_555
H3 C4 1_555 1_555
C5 N1 1_555 1_555
H4 C5 1_555 1_555
S2 O2 1_555 1_555
O2 Ag1 1_555 1_555
N1I C1I 1_555 1_555
C1I H1I 1_555 1_555
C2I C1I 1_555 1_555
H2I C2I 1_555 1_555
C3I S1 1_555 1_555
C4I C3I 1_555 1_555
H3I C4I 1_555 1_555
C5I N1I 1_555 1_555
H4I C5I 1_555 1_555
O2A S2 1_555 1_555
O2F Ag1 1_555 1_555
O2G S2 1_555 1_555
Ag1A O2A 1_555 1_555
S1A O1A 1_555 1_555
N1A Ag1A 1_555 1_555
C1A N1A 1_555 1_555
H1A C1A 1_555 1_555
C2A C1A 1_555 1_555
H2A C2A 1_555 1_555
C3A S1A 1_555 1_555
C4A C3A 1_555 1_555
H3A C4A 1_555 1_555
C5A N1A 1_555 1_555
H4A C5A 1_555 1_555
N1H C1H 1_555 1_555
C1H H1H 1_555 1_555
C2H C1H 1_555 1_555
H2H C2H 1_555 1_555
C3H S1A 1_555 1_555
C4H C3H 1_555 1_555
H3H C4H 1_555 1_555
C5H N1H 1_555 1_555
H4H C5H 1_555 1_555
Ag1H N1H 1_555 1_555
Ag1I N1I 1_555 1_555
N1F Ag1 1_555 1_555
N1G Ag1A 1_555 1_555
C2 C3 1_555 1_555
C4 C5 1_555 1_555
S2 O2F 1_555 1_555
C2I C3I 1_555 1_555
C4I C5I 1_555 1_555
O2G Ag1A 1_555 1_555
C2A C3A 1_555 1_555
C4A C5A 1_555 1_555
C2H C3H 1_555 1_555
C4H C5H 1_555 1_555

#END
