
#######################################################################
#
#                 Cambridge Crystallographic Data Centre
#                                CCDC 
#
#######################################################################
#
# If this CIF has been generated from an entry in the Cambridge 
# Structural Database, then it will include bibliographic, chemical, 
# crystal, experimental, refinement or atomic coordinate data resulting 
# from the CCDC's data processing and validation procedures.
#
#######################################################################

data_KIDNIW
_symmetry_cell_setting           monoclinic
_symmetry_space_group_name_H-M   'C 2/m'
_symmetry_Int_Tables_number      12
_space_group_name_Hall           '-C 2y'
loop_
_symmetry_equiv_pos_site_id
_symmetry_equiv_pos_as_xyz
1 x,y,z
2 -x,y,-z
3 1/2+x,1/2+y,z
4 1/2-x,1/2+y,-z
5 -x,-y,-z
6 x,-y,z
7 1/2-x,1/2-y,-z
8 1/2+x,1/2-y,z
_cell_length_a                   14.2913(4)
_cell_length_b                   18.9405(4)
_cell_length_c                   4.88540(10)
_cell_angle_alpha                90
_cell_angle_beta                 98.345(2)
_cell_angle_gamma                90
_cell_volume                     1308.4
loop_
_atom_site_label
_atom_site_type_symbol
_atom_site_fract_x
_atom_site_fract_y
_atom_site_fract_z
Ag1 Ag 0.2500 0.2500 0.0000
S1 S 0.32102(10) 0.0000 0.9869(2)
O1 O 0.4265(5) 0.0000 1.0888(15)
N1 N 0.2733(2) 0.17353(14) 0.3361(6)
C1 C 0.2017(3) 0.1470(2) 0.4486(9)
H1 H 0.1411 0.1640 0.3888
C2 C 0.2133(3) 0.0955(2) 0.6501(8)
H2 H 0.1619 0.0787 0.7277
C3 C 0.3017(2) 0.06996(15) 0.7321(6)
C4 C 0.3771(2) 0.0977(2) 0.6272(8)
H3 H 0.4383 0.0822 0.6882
C5 C 0.3597(3) 0.1496(2) 0.4274(9)
H4 H 0.4106 0.1687 0.3536
N1E N 0.2733(2) -0.17353(14) 0.3361(6)
C1E C 0.2017(3) -0.1470(2) 0.4486(9)
H1E H 0.1411 -0.1640 0.3888
C2E C 0.2133(3) -0.0955(2) 0.6501(8)
H2E H 0.1619 -0.0787 0.7277
C3E C 0.3017(2) -0.06996(15) 0.7321(6)
C4E C 0.3771(2) -0.0977(2) 0.6272(8)
H3E H 0.4383 -0.0822 0.6882
C5E C 0.3597(3) -0.1496(2) 0.4274(9)
H4E H 0.4106 -0.1687 0.3536
Ag1C Ag 0.2500 -0.2500 0.0000
N1F N 0.2267(2) 0.32647(14) -0.3361(6)
O2 O 0.0054(15) 0.0000 0.264(12)
O3 O 0.0565(4) 0.1964(3) 0.8862(14)
O4 O 0.0000 0.2835(6) 1.0000
N2 N 0.0000 0.2256(3) 1.0000
O3A O -0.0565(4) 0.1964(3) 1.1138(14)
O5? O 0.2283(8) 0.0000 1.1090(18)
O6? O 0.0000 0.0000 0.0000
loop_
_geom_bond_atom_site_label_1
_geom_bond_atom_site_label_2
_geom_bond_site_symmetry_1
_geom_bond_site_symmetry_2
Ag1 N1 1_555 1_555
S1 O1 1_555 1_555
N1 C1 1_555 1_555
C1 H1 1_555 1_555
C2 C1 1_555 1_555
H2 C2 1_555 1_555
C3 S1 1_555 1_555
C4 C3 1_555 1_555
H3 C4 1_555 1_555
C5 N1 1_555 1_555
H4 C5 1_555 1_555
O3 N2 1_555 1_555
O4 N2 1_555 1_555
N2 O3A 1_555 1_555
N1E C1E 1_555 1_555
C1E H1E 1_555 1_555
C2E C1E 1_555 1_555
H2E C2E 1_555 1_555
C3E S1 1_555 1_555
C4E C3E 1_555 1_555
H3E C4E 1_555 1_555
C5E N1E 1_555 1_555
H4E C5E 1_555 1_555
Ag1C N1E 1_555 1_555
N1F Ag1 1_555 1_555
C2 C3 1_555 1_555
C4 C5 1_555 1_555
C2E C3E 1_555 1_555
C4E C5E 1_555 1_555

#END
