
#######################################################################
#
#                 Cambridge Crystallographic Data Centre
#                                CCDC 
#
#######################################################################
#
# If this CIF has been generated from an entry in the Cambridge 
# Structural Database, then it will include bibliographic, chemical, 
# crystal, experimental, refinement or atomic coordinate data resulting 
# from the CCDC's data processing and validation procedures.
#
#######################################################################

data_KIDNES
_symmetry_cell_setting           monoclinic
_symmetry_space_group_name_H-M   'P 21/n'
_symmetry_Int_Tables_number      14
_space_group_name_Hall           '-P 2yn'
loop_
_symmetry_equiv_pos_site_id
_symmetry_equiv_pos_as_xyz
1 x,y,z
2 1/2-x,1/2+y,1/2-z
3 -x,-y,-z
4 1/2+x,1/2-y,1/2+z
_cell_length_a                   10.5393(15)
_cell_length_b                   10.0506(14)
_cell_length_c                   16.813(2)
_cell_angle_alpha                90
_cell_angle_beta                 96.838(3)
_cell_angle_gamma                90
_cell_volume                     1768.27
loop_
_atom_site_label
_atom_site_type_symbol
_atom_site_fract_x
_atom_site_fract_y
_atom_site_fract_z
Ag1 Ag 0.48396(10) 0.75390(7) 0.50532(5)
S1 S 0.7295(3) 0.2706(2) 0.75411(15)
O1 O 0.8378(9) 0.2157(7) 0.7186(5)
N1 N 0.5575(8) 0.5909(7) 0.5814(5)
N2 N 0.9009(9) 0.5839(7) 0.9299(5)
C1 C 0.5412(10) 0.4470(10) 0.6931(6)
H1 H 0.4936 0.4165 0.7325
C2 C 0.6591(9) 0.3965(8) 0.6850(5)
C3 C 0.7208(10) 0.4352(11) 0.6243(6)
H2 H 0.7981 0.3956 0.6166
C4 C 0.6703(10) 0.5346(11) 0.5725(6)
H3 H 0.7153 0.5625 0.5312
C5 C 0.4960(10) 0.5452(11) 0.6401(7)
H4 H 0.4167 0.5821 0.6458
C6 C 0.9204(10) 0.4339(11) 0.8217(6)
H5 H 0.9709 0.3995 0.7848
C7 C 0.7981(9) 0.3933(8) 0.8239(5)
C8 C 0.7270(10) 0.4437(10) 0.8819(6)
H6 H 0.6447 0.4134 0.8860
C9 C 0.7830(10) 0.5404(10) 0.9332(6)
H7 H 0.7361 0.5763 0.9715
C10 C 0.9668(11) 0.5307(12) 0.8780(7)
H8 H 1.0509 0.5585 0.8781
Ag1C Ag 0.98396(10) 0.74610(7) 1.00532(5)
N2C N 0.4009(9) 0.9161(7) 0.4299(5)
S2 S 0.1655(4) 0.7720(4) 0.6229(3)
O2 O 0.0750(11) 0.8645(11) 0.6032(9)
F1 F -0.0172(12) 0.6056(15) 0.6176(11)
F2 F 0.1716(16) 0.5306(14) 0.6537(12)
C11 C 0.1013(19) 0.627(3) 0.6172(12)
O3 O 0.2854(19) 0.797(2) 0.653(4)
F3 F 0.114(2) 0.599(3) 0.5355(12)
O4 O 0.262(2) 0.749(2) 0.5783(14)
N3 N 0.7085(13) 0.7620(12) 0.4372(8)
C12 C 0.7938(16) 0.7809(14) 0.4090(9)
C13 C 0.9076(16) 0.8044(16) 0.3674(11)
H9 H 0.8907 0.8690 0.3302
H10 H 0.9431 0.8478 0.4113
H11 H 0.9405 0.7229 0.3631
O5? O 0.192(3) 0.757(4) 0.7093(11)
F4? F 0.073(3) 0.6256(19) 0.7012(12)
loop_
_geom_bond_atom_site_label_1
_geom_bond_atom_site_label_2
_geom_bond_site_symmetry_1
_geom_bond_site_symmetry_2
Ag1 N1 1_555 1_555
S1 O1 1_555 1_555
N1 C4 1_555 1_555
N2 C9 1_555 1_555
C1 H1 1_555 1_555
C2 S1 1_555 1_555
C3 C2 1_555 1_555
H2 C3 1_555 1_555
C4 C3 1_555 1_555
H3 C4 1_555 1_555
C5 N1 1_555 1_555
H4 C5 1_555 1_555
C6 H5 1_555 1_555
C7 S1 1_555 1_555
C8 C7 1_555 1_555
H6 C8 1_555 1_555
C9 C8 1_555 1_555
H7 C9 1_555 1_555
C10 N2 1_555 1_555
H8 C10 1_555 1_555
S2 O2 1_555 1_555
F1 C11 1_555 1_555
F2 C11 1_555 1_555
C11 S2 1_555 1_555
O3 S2 1_555 1_555
F3 C11 1_555 1_555
O4 S2 1_555 1_555
N3 C12 1_555 1_555
C12 C13 1_555 1_555
C13 H9 1_555 1_555
H10 C13 1_555 1_555
H11 C13 1_555 1_555
Ag1C N2 1_555 1_555
N2C Ag1 1_555 1_555
C1 C2 1_555 1_555
C1 C5 1_555 1_555
C6 C7 1_555 1_555
C6 C10 1_555 1_555

#END
