
#######################################################################
#
#                 Cambridge Crystallographic Data Centre
#                                CCDC 
#
#######################################################################
#
# If this CIF has been generated from an entry in the Cambridge 
# Structural Database, then it will include bibliographic, chemical, 
# crystal, experimental, refinement or atomic coordinate data resulting 
# from the CCDC's data processing and validation procedures.
#
#######################################################################

data_KIDPOD
_symmetry_cell_setting           monoclinic
_symmetry_space_group_name_H-M   'P 21/n'
_symmetry_Int_Tables_number      14
_space_group_name_Hall           '-P 2yn'
loop_
_symmetry_equiv_pos_site_id
_symmetry_equiv_pos_as_xyz
1 x,y,z
2 1/2-x,1/2+y,1/2-z
3 -x,-y,-z
4 1/2+x,1/2-y,1/2+z
_cell_length_a                   10.1666(2)
_cell_length_b                   11.3757(2)
_cell_length_c                   20.3238(6)
_cell_angle_alpha                90
_cell_angle_beta                 91.6694(9)
_cell_angle_gamma                90
_cell_volume                     2349.49
loop_
_atom_site_label
_atom_site_type_symbol
_atom_site_fract_x
_atom_site_fract_y
_atom_site_fract_z
Ag1 Ag 0.35512(4) 0.65296(3) 0.684202(17)
N1 N 0.3582(4) 0.8403(4) 0.68606(17)
N2 N 0.3609(4) 1.4646(4) 0.68415(16)
C8 C 0.4394(5) 0.9012(4) 0.7263(2)
H6 H 0.4976 0.8592 0.7552
C9 C 0.2802(6) 0.9020(4) 0.6443(2)
H7 H 0.2231 0.8603 0.6147
C10 C 0.2793(5) 1.0243(4) 0.6425(2)
H8 H 0.2224 1.0646 0.6122
C11 C 0.4421(5) 1.0238(4) 0.7276(2)
H9 H 0.4993 1.0639 0.7578
C12 C 0.3611(4) 1.0865(5) 0.68465(17)
C13 C 0.3625(4) 1.2172(5) 0.68427(18)
C14 C 0.4373(6) 1.2820(4) 0.7286(3)
H10 H 0.4914 1.2429 0.7606
C15 C 0.2853(7) 1.2807(5) 0.6395(3)
H11 H 0.2306 1.2405 0.6081
C16 C 0.2879(7) 1.4029(5) 0.6403(3)
H12 H 0.2358 1.4444 0.6085
C17 C 0.4347(6) 1.4041(4) 0.7270(3)
H13 H 0.4883 1.4461 0.7580
Ag1_2 Ag 0.35512(4) 1.65296(3) 0.684202(17)
N2_2 N 0.3609(4) 0.4646(4) 0.68415(16)
N3 N 1.1051(6) -0.3509(3) 0.6153(3)
C18 C 0.9072(6) -0.3811(5) 0.5337(3)
H14 H 0.9392 -0.3866 0.4888
H15 H 0.8459 -0.3149 0.5366
H16 H 0.8620 -0.4541 0.5450
C19 C 1.0190(6) -0.3624(4) 0.5799(3)
C1 C 0.7533(5) -0.0017(4) 0.60459(19)
C2 C 0.6904(5) -0.1177(4) 0.5991(2)
C3 C 0.7123(5) -0.2049(4) 0.6473(2)
H1 H 0.7661 -0.1873 0.6851
C4 C 0.6569(6) -0.3162(5) 0.6409(2)
H2 H 0.6733 -0.3737 0.6740
C5 C 0.5786(6) -0.3432(4) 0.5868(3)
H3 H 0.5418 -0.4196 0.5823
C6 C 0.5532(6) -0.2582(5) 0.5386(3)
H4 H 0.4984 -0.2766 0.5014
C7 C 0.6078(6) -0.1471(4) 0.5448(3)
H5 H 0.5891 -0.0898 0.5119
B1 B 0.9156(6) 0.2758(5) 0.6165(2)
H17 H 0.9662 0.3631 0.6203
B2 B 0.7958(6) 0.2286(5) 0.5631(2)
H18 H 0.7584 0.2916 0.5246
B3 B 0.7762(6) 0.2265(5) 0.6535(3)
H19 H 0.7232 0.2871 0.6872
B4 B 0.9364(7) 0.1524(4) 0.6627(3)
H20 H 1.0118 0.1541 0.7039
B5 B 0.9549(6) 0.1539(4) 0.5724(3)
H21 H 1.0446 0.1564 0.5417
B6 B 0.6838(6) 0.1263(5) 0.6010(3)
H22 H 0.5746 0.1362 0.5940
B7 B 0.7852(6) 0.0708(5) 0.6716(2)
H23 H 0.7570 0.0362 0.7208
B8 B 0.9102(5) 0.0198(4) 0.6145(2)
H24 H 0.9811 -0.0554 0.6183
B9 B 0.8096(6) 0.0746(5) 0.5440(2)
H25 H 0.8000 0.0430 0.4919
loop_
_geom_bond_atom_site_label_1
_geom_bond_atom_site_label_2
_geom_bond_site_symmetry_1
_geom_bond_site_symmetry_2
Ag1 N1 1_555 1_555
N1 C8 1_555 1_555
N2 C16 1_555 1_555
N3 C19 1_555 1_555
C1 C2 1_555 1_555
C2 C3 1_555 1_555
C3 H1 1_555 1_555
C4 C3 1_555 1_555
H2 C4 1_555 1_555
C5 C4 1_555 1_555
H3 C5 1_555 1_555
C6 C5 1_555 1_555
H4 C6 1_555 1_555
C7 C2 1_555 1_555
H5 C7 1_555 1_555
C8 H6 1_555 1_555
C9 N1 1_555 1_555
H7 C9 1_555 1_555
C10 C9 1_555 1_555
H8 C10 1_555 1_555
C11 C8 1_555 1_555
H9 C11 1_555 1_555
C12 C10 1_555 1_555
C13 C12 1_555 1_555
C14 C13 1_555 1_555
H10 C14 1_555 1_555
C15 C13 1_555 1_555
H11 C15 1_555 1_555
C16 C15 1_555 1_555
H12 C16 1_555 1_555
C17 N2 1_555 1_555
H13 C17 1_555 1_555
C18 H14 1_555 1_555
H15 C18 1_555 1_555
H16 C18 1_555 1_555
C19 C18 1_555 1_555
B1 H17 1_555 1_555
B2 B1 1_555 1_555
H18 B2 1_555 1_555
B3 B1 1_555 1_555
H19 B3 1_555 1_555
B4 B1 1_555 1_555
H20 B4 1_555 1_555
B5 B1 1_555 1_555
H21 B5 1_555 1_555
B6 C1 1_555 1_555
H22 B6 1_555 1_555
B7 C1 1_555 1_555
H23 B7 1_555 1_555
B8 C1 1_555 1_555
H24 B8 1_555 1_555
B9 C1 1_555 1_555
H25 B9 1_555 1_555
Ag1_2 N2 1_555 1_555
N2_2 Ag1 1_555 1_555
C6 C7 1_555 1_555
C11 C12 1_555 1_555
C14 C17 1_555 1_555
B2 B3 1_555 1_555
B2 B5 1_555 1_555
B2 B6 1_555 1_555
B2 B9 1_555 1_555
B3 B4 1_555 1_555
B3 B6 1_555 1_555
B3 B7 1_555 1_555
B4 B5 1_555 1_555
B4 B7 1_555 1_555
B4 B8 1_555 1_555
B5 B8 1_555 1_555
B5 B9 1_555 1_555
B6 B7 1_555 1_555
B6 B9 1_555 1_555
B7 B8 1_555 1_555
B8 B9 1_555 1_555

#END
