
#######################################################################
#
#                 Cambridge Crystallographic Data Centre
#                                CCDC 
#
#######################################################################
#
# If this CIF has been generated from an entry in the Cambridge 
# Structural Database, then it will include bibliographic, chemical, 
# crystal, experimental, refinement or atomic coordinate data resulting 
# from the CCDC's data processing and validation procedures.
#
#######################################################################

data_KIDQIY
_symmetry_cell_setting           triclinic
_symmetry_space_group_name_H-M   'P -1'
_symmetry_Int_Tables_number      2
_space_group_name_Hall           '-P 1'
loop_
_symmetry_equiv_pos_site_id
_symmetry_equiv_pos_as_xyz
1 x,y,z
2 -x,-y,-z
_cell_length_a                   12.2071(1)
_cell_length_b                   12.8065(1)
_cell_length_c                   23.8761(3)
_cell_angle_alpha                98.978(1)
_cell_angle_beta                 92.003(1)
_cell_angle_gamma                106.649(1)
_cell_volume                     3519.73
loop_
_atom_site_label
_atom_site_type_symbol
_atom_site_fract_x
_atom_site_fract_y
_atom_site_fract_z
Ag1 Ag 0.36909(2) 0.48571(2) 0.408466(11)
N1 N 0.4239(3) 0.3562(3) 0.03461(13)
C1 C 0.4576(4) 0.2838(3) 0.06020(19)
H1 H 0.4862 0.3057 0.0991
Ag2 Ag 0.38485(2) 0.51337(2) 0.088211(12)
N2 N 0.3120(3) 0.4834(3) -0.00888(13)
C2 C 0.4533(4) 0.1793(4) 0.0336(2)
H3 H 0.4790 0.1306 0.0534
N3 N 0.2888(3) 0.4837(3) -0.12511(14)
C3 C 0.4109(4) 0.1473(4) -0.0224(2)
H5 H 0.4082 0.0763 -0.0424
C4 C 0.2975(3) 0.2747(3) -0.19455(16)
H7 H 0.2202 0.2763 -0.1972
C5 C 0.3721(4) 0.2196(3) -0.04940(18)
H8 H 0.3387 0.1972 -0.0875
N4 N 0.2143(3) 0.4325(2) 0.12828(13)
C6 C 0.3823(3) 0.3251(3) -0.02024(15)
N5 N 0.4145(3) 0.4316(3) 0.19138(14)
C7 C 0.3437(3) 0.4093(3) -0.04620(15)
N6 N 0.4451(3) 0.5425(3) 0.30376(13)
C8 C 0.2679(4) 0.5549(4) -0.03001(17)
H12 H 0.2461 0.6089 -0.0046
N7 N 0.2406(2) 0.5460(2) 0.35498(13)
C9 C 0.2536(3) 0.5523(3) -0.08685(17)
H14 H 0.2170 0.6013 -0.1000
N8 N 0.3954(2) 0.3269(2) 0.36103(13)
C10 C 0.3347(3) 0.4127(3) -0.10444(15)
N9 N 0.6864(3) 0.4408(2) 0.37893(13)
C11 C 0.3733(3) 0.3392(3) -0.14940(15)
N10 N 0.6735(2) 0.4628(2) 0.49613(13)
N11 N 0.4851(3) 0.3426(3) -0.14430(13)
N12 N 0.4780(2) 0.3677(2) 0.54210(13)
C12 C 0.5208(4) 0.2767(3) -0.18443(18)
H19 H 0.5986 0.2768 -0.1812
C13 C 0.4492(4) 0.2088(4) -0.23038(19)
H21 H 0.4775 0.1633 -0.2579
C14 C 0.3355(4) 0.2082(3) -0.23554(18)
H23 H 0.2848 0.1628 -0.2667
C15 C 0.1154(3) 0.3903(3) 0.09513(17)
H25 H 0.1146 0.4009 0.0566
C16 C 0.0141(3) 0.3317(3) 0.11475(18)
H27 H -0.0547 0.3031 0.0903
C17 C 0.0160(3) 0.3160(3) 0.17059(19)
H29 H -0.0516 0.2749 0.1849
C18 C 0.1162(3) 0.3603(3) 0.20561(18)
H31 H 0.1182 0.3524 0.2445
C19 C 0.2147(3) 0.4170(3) 0.18239(15)
C20 C 0.3282(3) 0.4589(3) 0.21736(16)
C21 C 0.5139(3) 0.4589(4) 0.22234(18)
H35 H 0.5772 0.4416 0.2053
C22 C 0.5292(3) 0.5114(4) 0.27815(17)
H37 H 0.6012 0.5258 0.2990
C23 C 0.3444(3) 0.5178(3) 0.27262(15)
C24 C 0.2553(3) 0.5609(3) 0.30125(16)
C25 C 0.1954(3) 0.6174(3) 0.27336(17)
H39 H 0.2092 0.6282 0.2354
C26 C 0.1155(3) 0.6578(3) 0.30170(19)
H40 H 0.0739 0.6975 0.2837
C27 C 0.0969(3) 0.6399(3) 0.35637(18)
H41 H 0.0410 0.6653 0.3764
C28 C 0.1610(3) 0.5842(3) 0.38144(17)
H42 H 0.1483 0.5723 0.4193
C29 C 0.3125(4) 0.2666(3) 0.32071(17)
H43 H 0.2377 0.2747 0.3232
C30 C 0.3310(4) 0.1938(4) 0.27606(19)
H44 H 0.2699 0.1520 0.2485
C31 C 0.4399(4) 0.1821(3) 0.27180(18)
H45 H 0.4555 0.1338 0.2408
C32 C 0.5249(4) 0.2419(3) 0.31339(16)
H46 H 0.5999 0.2340 0.3120
C33 C 0.5004(3) 0.3136(3) 0.35732(15)
C34 C 0.5922(3) 0.3831(3) 0.40106(15)
C35 C 0.7722(3) 0.5073(3) 0.41564(16)
H47 H 0.8406 0.5470 0.4013
C36 C 0.7650(3) 0.5203(3) 0.47327(16)
H48 H 0.8267 0.5714 0.4976
C37 C 0.5868(3) 0.3906(3) 0.46041(15)
C38 C 0.3959(3) 0.3106(3) 0.57055(17)
H49 H 0.3861 0.3433 0.6079
C39 C 0.3244(4) 0.2062(3) 0.54827(18)
H50 H 0.2661 0.1682 0.5695
C40 C 0.3400(4) 0.1589(3) 0.4947(2)
H51 H 0.2928 0.0869 0.4784
C41 C 0.4247(3) 0.2166(3) 0.46458(17)
H52 H 0.4368 0.1842 0.4276
C42 C 0.4918(3) 0.3223(3) 0.48888(15)
Ag1A Ag 0.63091(2) 0.51429(2) 0.591534(11)
Ag2A Ag 0.61515(2) 0.48663(2) -0.088211(12)
N10A N 0.3265(2) 0.5372(2) 0.50387(13)
N11A N 0.5149(3) 0.6574(3) 0.14430(13)
N12A N 0.5220(2) 0.6323(2) 0.45790(13)
Br1 Br 0.38104(6) 0.93648(5) 0.33122(2)
B1 B -0.0121(3) 0.8061(3) 0.54604(19)
H2 H -0.0699 0.7962 0.5069
B2 B 0.0793(4) 0.9384(3) 0.5803(2)
H4 H 0.0814 1.0157 0.5634
B3 B 0.2058(4) 0.9188(4) 0.61068(19)
H6 H 0.2911 0.9833 0.6141
B4 B 0.1917(4) 0.7744(4) 0.59508(19)
H9 H 0.2681 0.7437 0.5880
B5 B 0.0578(4) 0.7057(3) 0.5555(2)
H10 H 0.0461 0.6301 0.5225
B6 B 0.0948(4) 0.9362(4) 0.6541(2)
H11 H 0.1067 1.0124 0.6868
B7 B 0.1660(4) 0.8343(4) 0.6632(2)
H13 H 0.2251 0.8429 0.7017
B8 B 0.0741(4) 0.7029(4) 0.62931(19)
H15 H 0.0721 0.6251 0.6456
B9 B -0.0517(4) 0.7232(3) 0.59920(19)
H16 H -0.1369 0.6585 0.5956
B10 B -0.0393(4) 0.8676(3) 0.6147(2)
H17 H -0.1159 0.8983 0.6212
B11 B 0.0144(4) 0.8040(4) 0.66593(19)
H18 H -0.0270 0.7929 0.7066
C43 C 0.1357(3) 0.8383(3) 0.54770(16)
C44 C 0.1929(3) 0.8577(3) 0.49374(16)
C45 C 0.1390(4) 0.8844(3) 0.44848(17)
H53 H 0.0626 0.8878 0.4507
C46 C 0.1944(4) 0.9066(3) 0.39946(18)
H54 H 0.1563 0.9248 0.3687
C47 C 0.3037(4) 0.9015(3) 0.39661(19)
C48 C 0.3612(4) 0.8752(4) 0.4401(2)
H55 H 0.4378 0.8724 0.4372
C49 C 0.3050(4) 0.8527(4) 0.4888(2)
H56 H 0.3437 0.8337 0.5191
Br2 Br -0.31180(4) 1.14724(4) 0.14374(2)
B12 B 0.1671(4) 0.9268(4) 0.1535(2)
H20 H 0.1939 1.0058 0.1851
B13 B 0.1597(4) 0.9266(4) 0.0785(2)
H22 H 0.1818 1.0053 0.0607
B14 B 0.0466(4) 0.8088(4) 0.04654(18)
H24 H -0.0064 0.8098 0.0074
B15 B -0.0157(4) 0.7370(3) 0.1012(2)
H26 H -0.1094 0.6912 0.0982
B16 B 0.0598(4) 0.8087(4) 0.16686(19)
H28 H 0.0161 0.8096 0.2073
B17 B 0.2665(4) 0.8792(4) 0.1100(2)
H30 H 0.3598 0.9262 0.1129
B18 B 0.1895(4) 0.8062(4) 0.0442(2)
H32 H 0.2323 0.8049 0.0034
B19 B 0.0813(4) 0.6891(4) 0.05811(19)
H33 H 0.0524 0.6101 0.0265
B20 B 0.0895(4) 0.6890(4) 0.1326(2)
H34 H 0.0662 0.6101 0.1502
B21 B 0.2040(4) 0.8067(4) 0.1651(2)
H36 H 0.2567 0.8064 0.2044
B22 B 0.2178(4) 0.7316(4) 0.09766(18)
H38 H 0.2792 0.6811 0.0925
C50 C 0.0386(3) 0.8798(3) 0.11340(15)
C51 C -0.0452(3) 0.9473(3) 0.12098(15)
C52 C -0.0866(3) 0.9839(3) 0.07519(16)
H57 H -0.0609 0.9671 0.0387
C53 C -0.1641(3) 1.0441(3) 0.08131(17)
H58 H -0.1907 1.0694 0.0496
C54 C -0.2026(3) 1.0671(3) 0.13441(17)
C55 C -0.1610(4) 1.0338(3) 0.18056(17)
H59 H -0.1868 1.0511 0.2170
C56 C -0.0818(4) 0.9752(3) 0.17423(16)
H60 H -0.0522 0.9539 0.2065
N13 N 0.8265(4) 0.6570(6) 0.3065(3)
C57 C 0.8331(5) 0.5775(8) 0.2813(3)
C58 C 0.8404(6) 0.4729(7) 0.2492(3)
H61 H 0.7832 0.4111 0.2610
H62 H 0.9173 0.4662 0.2565
H63 H 0.8255 0.4716 0.2084
loop_
_geom_bond_atom_site_label_1
_geom_bond_atom_site_label_2
_geom_bond_site_symmetry_1
_geom_bond_site_symmetry_2
Ag1 N7 1_555 1_555
Br1 C47 1_555 1_555
N1 C1 1_555 1_555
C1 H1 1_555 1_555
B1 H2 1_555 1_555
Ag2 N1 1_555 1_555
Br2 C54 1_555 1_555
N2 Ag2 1_555 1_555
C2 C1 1_555 1_555
H3 C2 1_555 1_555
B2 B1 1_555 1_555
H4 B2 1_555 1_555
N3 C9 1_555 1_555
C3 C2 1_555 1_555
H5 C3 1_555 1_555
B3 B2 1_555 1_555
H6 B3 1_555 1_555
C4 H7 1_555 1_555
C5 C3 1_555 1_555
H8 C5 1_555 1_555
B4 B3 1_555 1_555
H9 B4 1_555 1_555
N4 Ag2 1_555 1_555
C6 N1 1_555 1_555
B5 B1 1_555 1_555
H10 B5 1_555 1_555
N5 C20 1_555 1_555
C7 N2 1_555 1_555
B6 B2 1_555 1_555
H11 B6 1_555 1_555
N6 C22 1_555 1_555
C8 N2 1_555 1_555
H12 C8 1_555 1_555
B7 B3 1_555 1_555
H13 B7 1_555 1_555
N7 C24 1_555 1_555
C9 C8 1_555 1_555
H14 C9 1_555 1_555
B8 B4 1_555 1_555
H15 B8 1_555 1_555
N8 Ag1 1_555 1_555
C10 N3 1_555 1_555
B9 B1 1_555 1_555
H16 B9 1_555 1_555
N9 C34 1_555 1_555
C11 C4 1_555 1_555
B10 B1 1_555 1_555
H17 B10 1_555 1_555
N10 C36 1_555 1_555
N11 C11 1_555 1_555
B11 B6 1_555 1_555
H18 B11 1_555 1_555
N12 C38 1_555 1_555
C12 N11 1_555 1_555
H19 C12 1_555 1_555
B12 H20 1_555 1_555
N13 C57 1_555 1_555
C13 C12 1_555 1_555
H21 C13 1_555 1_555
B13 B12 1_555 1_555
H22 B13 1_555 1_555
C14 C4 1_555 1_555
H23 C14 1_555 1_555
B14 B13 1_555 1_555
H24 B14 1_555 1_555
C15 N4 1_555 1_555
H25 C15 1_555 1_555
B15 B14 1_555 1_555
H26 B15 1_555 1_555
C16 C15 1_555 1_555
H27 C16 1_555 1_555
B16 B12 1_555 1_555
H28 B16 1_555 1_555
C17 C16 1_555 1_555
H29 C17 1_555 1_555
B17 B12 1_555 1_555
H30 B17 1_555 1_555
C18 C17 1_555 1_555
H31 C18 1_555 1_555
B18 B13 1_555 1_555
H32 B18 1_555 1_555
C19 N4 1_555 1_555
B19 B14 1_555 1_555
H33 B19 1_555 1_555
C20 C19 1_555 1_555
B20 B15 1_555 1_555
H34 B20 1_555 1_555
C21 N5 1_555 1_555
H35 C21 1_555 1_555
B21 B12 1_555 1_555
H36 B21 1_555 1_555
C22 C21 1_555 1_555
H37 C22 1_555 1_555
B22 B17 1_555 1_555
H38 B22 1_555 1_555
C23 N6 1_555 1_555
C24 C23 1_555 1_555
C25 C24 1_555 1_555
H39 C25 1_555 1_555
C26 C25 1_555 1_555
H40 C26 1_555 1_555
C27 C26 1_555 1_555
H41 C27 1_555 1_555
C28 N7 1_555 1_555
H42 C28 1_555 1_555
C29 N8 1_555 1_555
H43 C29 1_555 1_555
C30 C29 1_555 1_555
H44 C30 1_555 1_555
C31 C30 1_555 1_555
H45 C31 1_555 1_555
C32 C31 1_555 1_555
H46 C32 1_555 1_555
C33 N8 1_555 1_555
C34 C33 1_555 1_555
C35 N9 1_555 1_555
H47 C35 1_555 1_555
C36 C35 1_555 1_555
H48 C36 1_555 1_555
C37 N10 1_555 1_555
C38 H49 1_555 1_555
C39 C38 1_555 1_555
H50 C39 1_555 1_555
C40 C39 1_555 1_555
H51 C40 1_555 1_555
C41 C40 1_555 1_555
H52 C41 1_555 1_555
C42 N12 1_555 1_555
C43 B1 1_555 1_555
C44 C43 1_555 1_555
C45 C44 1_555 1_555
H53 C45 1_555 1_555
C46 C45 1_555 1_555
H54 C46 1_555 1_555
C47 C46 1_555 1_555
C48 C47 1_555 1_555
H55 C48 1_555 1_555
C49 C44 1_555 1_555
H56 C49 1_555 1_555
C50 B12 1_555 1_555
C51 C50 1_555 1_555
C52 C51 1_555 1_555
H57 C52 1_555 1_555
C53 C52 1_555 1_555
H58 C53 1_555 1_555
C54 C53 1_555 1_555
C55 C54 1_555 1_555
H59 C55 1_555 1_555
C56 C51 1_555 1_555
H60 C56 1_555 1_555
C57 C58 1_555 1_555
C58 H61 1_555 1_555
H62 C58 1_555 1_555
H63 C58 1_555 1_555
Ag1A N10 1_555 1_555
Ag2A N11 1_555 1_555
N10A Ag1 1_555 1_555
N11A Ag2 1_555 1_555
N12A Ag1 1_555 1_555
B2 B10 1_555 1_555
B2 C43 1_555 1_555
B3 B6 1_555 1_555
B3 C43 1_555 1_555
C5 C6 1_555 1_555
B4 B5 1_555 1_555
B4 B7 1_555 1_555
B4 C43 1_555 1_555
C6 C7 1_555 1_555
B5 B8 1_555 1_555
B5 B9 1_555 1_555
B5 C43 1_555 1_555
C7 C10 1_555 1_555
B6 B7 1_555 1_555
B6 B10 1_555 1_555
B7 B8 1_555 1_555
B7 B11 1_555 1_555
B8 B9 1_555 1_555
B8 B11 1_555 1_555
C10 C11 1_555 1_555
B9 B10 1_555 1_555
B9 B11 1_555 1_555
B10 B11 1_555 1_555
N12 Ag1A 1_555 1_555
C13 C14 1_555 1_555
B13 B17 1_555 1_555
B13 C50 1_555 1_555
B14 B18 1_555 1_555
B14 C50 1_555 1_555
B15 B16 1_555 1_555
B15 B19 1_555 1_555
B15 C50 1_555 1_555
B16 B20 1_555 1_555
B16 B21 1_555 1_555
B16 C50 1_555 1_555
B17 B18 1_555 1_555
B17 B21 1_555 1_555
C18 C19 1_555 1_555
B18 B19 1_555 1_555
B18 B22 1_555 1_555
B19 B20 1_555 1_555
B19 B22 1_555 1_555
C20 C23 1_555 1_555
B20 B21 1_555 1_555
B20 B22 1_555 1_555
B21 B22 1_555 1_555
C27 C28 1_555 1_555
C32 C33 1_555 1_555
C34 C37 1_555 1_555
C37 C42 1_555 1_555
C41 C42 1_555 1_555
C48 C49 1_555 1_555
C55 C56 1_555 1_555

#END
