
#######################################################################
#
#                 Cambridge Crystallographic Data Centre
#                                CCDC 
#
#######################################################################
#
# If this CIF has been generated from an entry in the Cambridge 
# Structural Database, then it will include bibliographic, chemical, 
# crystal, experimental, refinement or atomic coordinate data resulting 
# from the CCDC's data processing and validation procedures.
#
#######################################################################

data_KIDVID
_symmetry_cell_setting           monoclinic
_symmetry_space_group_name_H-M   'P 21/c'
_symmetry_Int_Tables_number      14
_space_group_name_Hall           '-P 2ybc'
loop_
_symmetry_equiv_pos_site_id
_symmetry_equiv_pos_as_xyz
1 x,y,z
2 -x,1/2+y,1/2-z
3 -x,-y,-z
4 x,1/2-y,1/2+z
_cell_length_a                   12.790(2)
_cell_length_b                   30.255(3)
_cell_length_c                   8.6440(10)
_cell_angle_alpha                90
_cell_angle_beta                 92.168(10)
_cell_angle_gamma                90
_cell_volume                     3342.5
loop_
_atom_site_label
_atom_site_type_symbol
_atom_site_fract_x
_atom_site_fract_y
_atom_site_fract_z
Cu1 Cu 0.09538(4) 0.196250(17) 0.88028(6)
N1 N 0.1837(2) 0.24574(11) 0.8081(4)
C1 C 0.2729(3) 0.25572(15) 0.8941(5)
H1 H 0.2980 0.2349 0.9688
C2 C 0.3273(3) 0.29383(14) 0.8778(5)
H2 H 0.3903 0.2996 0.9362
C3 C 0.2857(3) 0.32408(15) 0.7706(6)
H3 H 0.3194 0.3519 0.7617
N2 N 0.2019(3) 0.31609(11) 0.6805(4)
C4 C 0.1545(3) 0.27551(14) 0.6954(5)
N3 N 0.0250(2) 0.19491(11) 0.6578(4)
C5 C -0.0298(3) 0.15850(15) 0.6105(5)
H4 H -0.0254 0.1327 0.6729
C6 C -0.0916(3) 0.15736(15) 0.4756(5)
H5 H -0.1283 0.1315 0.4428
C7 C -0.0967(3) 0.19616(17) 0.3919(6)
H6 H -0.1415 0.1972 0.3018
N4 N -0.0419(3) 0.23229(12) 0.4306(4)
C8 C 0.0210(3) 0.23034(14) 0.5616(5)
N5 N 0.0786(3) 0.26819(11) 0.5839(4)
N6 N 0.2103(3) 0.14476(11) 0.8374(4)
C9 C 0.2915(3) 0.15310(15) 0.7449(5)
H7 H 0.2936 0.1808 0.6933
C10 C 0.3702(4) 0.12358(17) 0.7225(6)
H8 H 0.4228 0.1322 0.6523
C11 C 0.3643(4) 0.08402(16) 0.7994(6)
H9 H 0.4183 0.0629 0.7869
N7 N 0.2858(3) 0.07383(12) 0.8914(5)
C12 C 0.2115(3) 0.10496(15) 0.9034(5)
N8 N 0.0048(2) 0.14857(11) 0.9642(4)
C13 C -0.0954(3) 0.16074(15) 0.9854(5)
H10 H -0.1188 0.1884 0.9452
C14 C -0.1645(3) 0.13500(15) 1.0622(5)
H11 H -0.2352 0.1436 1.0742
C15 C -0.1244(3) 0.09542(15) 1.1216(5)
H12 H -0.1688 0.0773 1.1804
N9 N -0.0278(3) 0.08169(11) 1.1006(4)
C16 C 0.0339(3) 0.10842(14) 1.0170(5)
N10 N 0.1304(3) 0.09089(11) 0.9953(4)
H13 H 0.1439 0.0666 1.0481
Cu1C Cu 0.09538(4) 0.303750(17) 0.38028(6)
N5C N 0.0786(3) 0.23181(11) 1.0839(4)
N11 N 0.0654(3) 0.06313(13) 0.6059(5)
C17 C 0.1430(4) 0.07143(18) 0.5085(6)
H14 H 0.1431 0.0991 0.4564
C18 C 0.2207(4) 0.04237(17) 0.4812(6)
H15 H 0.2742 0.0491 0.4116
C19 C 0.2185(4) 0.00254(17) 0.5592(6)
H16 H 0.2729 -0.0182 0.5442
N12 N 0.1428(3) -0.00795(12) 0.6550(5)
C20 C 0.0686(3) 0.02355(16) 0.6692(6)
N13 N -0.1365(3) 0.06612(12) 0.7234(5)
C21 C -0.2360(4) 0.07822(16) 0.7465(6)
H17 H -0.2612 0.1045 0.6982
C22 C -0.3031(4) 0.05486(16) 0.8354(6)
H18 H -0.3725 0.0646 0.8509
C23 C -0.2646(4) 0.01652(15) 0.9009(6)
H19 H -0.3089 -0.0002 0.9643
N14 N -0.1671(3) 0.00157(12) 0.8796(5)
C24 C -0.1087(3) 0.02721(15) 0.7895(6)
N15 N -0.0099(3) 0.01001(12) 0.7670(5)
H20 H 0.0061 -0.0133 0.8238
C25 C 0.6127(5) 0.2011(2) 1.6894(8)
H21 H 0.6162 0.1920 1.5798
H22 H 0.6206 0.1743 1.7541
C26 C 0.7000(4) 0.2313(2) 1.7271(8)
H23 H 0.7663 0.2164 1.7073
H24 H 0.6987 0.2396 1.8365
H25 H 0.6933 0.2578 1.6626
O1 O 0.5116(3) 0.22035(13) 1.7134(5)
H26 H 0.5287 0.2216 1.8121
O2 O 0.4773(3) 0.20727(13) 2.0234(4)
H27 H 0.5063 0.1889 2.0709
H28 H 0.4856 0.2242 2.0951
C27 C 0.5167(4) 0.0594(2) 1.2665(8)
F1 F 0.4188(3) 0.06454(12) 1.2075(5)
F2 F 0.5679(3) 0.03321(12) 1.1744(5)
F3 F 0.5085(3) 0.03748(12) 1.3987(5)
S1 S 0.57879(9) 0.11265(4) 1.29652(17)
O3 O 0.5098(3) 0.13485(13) 1.3980(5)
O4 O 0.5783(3) 0.13017(13) 1.1406(4)
O5 O 0.6809(2) 0.10217(13) 1.3610(4)
loop_
_geom_bond_atom_site_label_1
_geom_bond_atom_site_label_2
_geom_bond_site_symmetry_1
_geom_bond_site_symmetry_2
Cu1 N1 1_555 1_555
N1 C1 1_555 1_555
C1 H1 1_555 1_555
C2 C1 1_555 1_555
H2 C2 1_555 1_555
C3 C2 1_555 1_555
H3 C3 1_555 1_555
N2 C3 1_555 1_555
C4 N1 1_555 1_555
N3 Cu1 1_555 1_555
C5 N3 1_555 1_555
H4 C5 1_555 1_555
C6 C5 1_555 1_555
H5 C6 1_555 1_555
C7 C6 1_555 1_555
H6 C7 1_555 1_555
N4 C7 1_555 1_555
C8 N3 1_555 1_555
N5 C4 1_555 1_555
N6 Cu1 1_555 1_555
C9 N6 1_555 1_555
H7 C9 1_555 1_555
C10 C9 1_555 1_555
H8 C10 1_555 1_555
C11 C10 1_555 1_555
H9 C11 1_555 1_555
N7 C11 1_555 1_555
C12 N6 1_555 1_555
N8 Cu1 1_555 1_555
C13 N8 1_555 1_555
H10 C13 1_555 1_555
C14 C13 1_555 1_555
H11 C14 1_555 1_555
C15 C14 1_555 1_555
H12 C15 1_555 1_555
N9 C15 1_555 1_555
C16 N8 1_555 1_555
N10 C12 1_555 1_555
H13 N10 1_555 1_555
N11 C17 1_555 1_555
C17 H14 1_555 1_555
C18 C17 1_555 1_555
H15 C18 1_555 1_555
C19 C18 1_555 1_555
H16 C19 1_555 1_555
N12 C19 1_555 1_555
C20 N11 1_555 1_555
N13 C21 1_555 1_555
C21 H17 1_555 1_555
C22 C21 1_555 1_555
H18 C22 1_555 1_555
C23 C22 1_555 1_555
H19 C23 1_555 1_555
N14 C23 1_555 1_555
C24 N13 1_555 1_555
N15 C20 1_555 1_555
H20 N15 1_555 1_555
C25 H21 1_555 1_555
H22 C25 1_555 1_555
C26 C25 1_555 1_555
H23 C26 1_555 1_555
H24 C26 1_555 1_555
H25 C26 1_555 1_555
O1 C25 1_555 1_555
H26 O1 1_555 1_555
O2 H27 1_555 1_555
C27 F1 1_555 1_555
F2 C27 1_555 1_555
F3 C27 1_555 1_555
S1 C27 1_555 1_555
O3 S1 1_555 1_555
O4 S1 1_555 1_555
O5 S1 1_555 1_555
H28 O2 1_555 1_555
Cu1C N5 1_555 1_555
N5C Cu1 1_555 1_555
N2 C4 1_555 1_555
N4 C8 1_555 1_555
C8 N5 1_555 1_555
N7 C12 1_555 1_555
N9 C16 1_555 1_555
C16 N10 1_555 1_555
N12 C20 1_555 1_555
N14 C24 1_555 1_555
C24 N15 1_555 1_555

#END
