
#######################################################################
#
#                 Cambridge Crystallographic Data Centre
#                                CCDC 
#
#######################################################################
#
# If this CIF has been generated from an entry in the Cambridge 
# Structural Database, then it will include bibliographic, chemical, 
# crystal, experimental, refinement or atomic coordinate data resulting 
# from the CCDC's data processing and validation procedures.
#
#######################################################################

data_KIDXOL
_symmetry_cell_setting           monoclinic
_symmetry_space_group_name_H-M   'P 21/n'
_symmetry_Int_Tables_number      14
_space_group_name_Hall           '-P 2yn'
loop_
_symmetry_equiv_pos_site_id
_symmetry_equiv_pos_as_xyz
1 x,y,z
2 1/2-x,1/2+y,1/2-z
3 -x,-y,-z
4 1/2+x,1/2-y,1/2+z
_cell_length_a                   14.050(3)
_cell_length_b                   12.517(3)
_cell_length_c                   15.377(3)
_cell_angle_alpha                90
_cell_angle_beta                 97.95(3)
_cell_angle_gamma                90
_cell_volume                     2678.27
loop_
_atom_site_label
_atom_site_type_symbol
_atom_site_fract_x
_atom_site_fract_y
_atom_site_fract_z
Zn1 Zn -0.06008(4) 0.19899(4) 0.15288(4)
Zn2 Zn 0.0000 0.0000 0.0000
Zn3 Zn -0.30885(4) -0.18886(4) 0.18955(3)
Zn4 Zn 0.35993(4) 0.10807(4) 0.27939(4)
S1 S 0.24149(9) -0.06536(9) 0.42382(9)
O1 O -0.1011(3) 0.2606(3) 0.4117(2)
O2 O -0.0680(3) 0.1624(3) 0.3009(2)
O3 O 0.2530(2) 0.2082(3) 0.6861(2)
O4 O 0.1036(3) 0.2543(4) 0.6979(3)
O5 O 0.2959(3) -0.0054(3) 0.3727(3)
O6 O 0.1838(4) -0.1361(5) 0.3722(8)
O7 O 0.3012(6) -0.1090(6) 0.4944(4)
N1 N -0.0810(3) 0.3992(3) 0.2589(2)
N2 N -0.0440(3) 0.3504(3) 0.1917(3)
N3 N 0.0398(3) 0.4965(3) 0.2255(3)
N4 N 0.0775(3) 0.1475(3) 0.1656(3)
N5 N 0.1033(3) 0.0679(3) 0.1126(3)
N6 N 0.2299(3) 0.1101(3) 0.2076(3)
N7 N -0.1349(3) 0.0640(3) 0.1376(2)
N8 N -0.1117(3) -0.0097(3) 0.0786(3)
N9 N -0.2265(3) -0.0763(3) 0.1464(3)
N10 N 0.1057(3) -0.2942(3) 0.1180(3)
N11 N 0.0720(3) -0.2318(3) -0.0164(3)
N12 N 0.0493(3) -0.1551(3) 0.0406(3)
C1 C 0.0266(3) 0.4107(3) 0.1735(3)
H1 H 0.0634 0.3957 0.1292
C2 C -0.0299(3) 0.4847(4) 0.2766(3)
H2 H -0.0404 0.5331 0.3202
C3 C 0.1544(3) 0.1693(4) 0.2211(3)
H3 H 0.1561 0.2205 0.2651
C4 C 0.1931(3) 0.0490(4) 0.1394(3)
H4 H 0.2287 -0.0021 0.1140
C5 C -0.2024(3) 0.0219(4) 0.1772(3)
H5 H -0.2302 0.0557 0.2212
C6 C -0.1677(3) -0.0911(4) 0.0859(3)
H6 H -0.1669 -0.1530 0.0527
C7 C 0.1045(4) -0.3126(4) 0.0322(3)
H7 H 0.1247 -0.3763 0.0097
C8 C 0.0701(4) -0.1947(3) 0.1187(3)
H8 H 0.0614 -0.1583 0.1697
C9 C -0.0524(3) 0.1902(4) 0.3794(3)
C10 C 0.0280(3) 0.1424(4) 0.4392(3)
C11 C 0.0526(4) 0.1860(4) 0.5211(3)
H9 H 0.0137 0.2384 0.5407
C12 C 0.1339(3) 0.1533(4) 0.5748(3)
C13 C 0.1906(4) 0.0739(4) 0.5459(3)
H10 H 0.2461 0.0517 0.5814
C14 C 0.1650(3) 0.0277(4) 0.4651(3)
C15 C 0.0841(3) 0.0620(4) 0.4112(3)
H11 H 0.0674 0.0312 0.3562
C16 C 0.1642(4) 0.2091(4) 0.6595(3)
O8 O -0.2177(3) -0.3240(3) 0.1605(3)
O9 O 0.4170(3) 0.2037(3) 0.1871(3)
H12 H 0.378(5) 0.251(5) 0.166(4)
H13 H 0.464(4) 0.216(4) 0.184(4)
H14 H -0.207(5) -0.346(5) 0.113(5)
H15 H -0.168(5) -0.317(5) 0.189(4)
Zn1B Zn 0.06008(4) -0.19899(4) -0.15288(4)
Zn1A Zn -0.43992(4) -0.30101(4) 0.34712(4)
Zn3B Zn 0.30885(4) 0.18886(4) -0.18955(3)
Zn3A Zn -0.19115(4) 0.31114(4) 0.31045(3)
Zn3B_2 Zn 0.30885(4) 0.18886(4) 0.81045(3)
Zn3C Zn -0.80885(4) -0.31114(4) -0.31045(3)
Zn4B Zn -0.35993(4) -0.10807(4) -0.27939(4)
Zn4A Zn 0.14007(4) 0.60807(4) 0.22061(4)
Zn4A_2 Zn 0.14007(4) -0.39193(4) 0.22061(4)
Zn4C Zn -0.14007(4) 0.39193(4) -0.22061(4)
Zn4A_3 Zn -0.85993(4) -0.39193(4) 0.22061(4)
Zn4_2 Zn -0.64007(4) 0.10807(4) 0.27939(4)
S1A S -0.74149(9) -0.56536(9) 0.07618(9)
O1A O -0.3989(3) -0.2394(3) 0.0883(2)
O1C O 0.3989(3) 0.2394(3) -0.0883(2)
O2A O -0.4320(3) -0.3376(3) 0.1991(2)
O2B O 0.0680(3) -0.1624(3) -0.3009(2)
O3A O -0.7530(2) -0.2918(3) -0.1861(2)
O3B O -0.2530(2) -0.2082(3) 0.3139(2)
O3_2 O 0.2530(2) 0.2082(3) -0.3139(2)
O4A O -0.6036(3) -0.2457(4) -0.1979(3)
O5A O -0.7959(3) -0.5054(3) 0.1273(3)
O5B O -0.2959(3) 0.0054(3) -0.3727(3)
O6A O -0.6838(4) -0.6361(5) 0.1278(8)
O7A O -0.8012(6) -0.6090(6) 0.0056(4)
N1A N -0.4190(3) -0.1008(3) 0.2411(2)
N1C N 0.4190(3) 0.1008(3) -0.2411(2)
N2A N -0.4560(3) -0.1496(3) 0.3083(3)
N2B N 0.0440(3) -0.3504(3) -0.1917(3)
N3A N -0.5398(3) -0.0035(3) 0.2745(3)
N3A_2 N 0.4602(3) -0.0035(3) 0.2745(3)
N3C N -0.4602(3) 0.0035(3) -0.2745(3)
N4B N -0.0775(3) -0.1475(3) -0.1656(3)
N5B N -0.1033(3) -0.0679(3) -0.1126(3)
N6B N -0.2299(3) -0.1101(3) -0.2076(3)
N7B N 0.1349(3) -0.0640(3) -0.1376(2)
N8B N 0.1117(3) 0.0097(3) -0.0786(3)
N9B N 0.2265(3) 0.0763(3) -0.1464(3)
N10B N -0.1057(3) 0.2942(3) -0.1180(3)
N10A N 0.3943(3) 0.2058(3) 0.3820(3)
N10C N -0.3943(3) -0.2058(3) -0.3820(3)
N11B N -0.0720(3) 0.2318(3) 0.0164(3)
N12B N -0.0493(3) 0.1551(3) -0.0406(3)
C1A C -0.5266(3) -0.0893(3) 0.3265(3)
H1A H -0.5634 -0.1043 0.3708
C2A C -0.4701(3) -0.0153(4) 0.2234(3)
H2A H -0.4596 0.0331 0.1798
C3B C -0.1544(3) -0.1693(4) -0.2211(3)
H3B H -0.1561 -0.2205 -0.2651
C4B C -0.1931(3) -0.0490(4) -0.1394(3)
H4B H -0.2287 0.0021 -0.1140
C5B C 0.2024(3) -0.0219(4) -0.1772(3)
H5B H 0.2302 -0.0557 -0.2212
C6B C 0.1677(3) 0.0911(4) -0.0859(3)
H6B H 0.1669 0.1530 -0.0527
C7B C -0.1045(4) 0.3126(4) -0.0322(3)
H7B H -0.1247 0.3763 -0.0097
C8B C -0.0701(4) 0.1947(3) -0.1187(3)
H8B H -0.0614 0.1583 -0.1697
C9A C -0.4476(3) -0.3098(4) 0.1206(3)
C10A C -0.5280(3) -0.3576(4) 0.0608(3)
C11A C -0.5526(4) -0.3140(4) -0.0211(3)
H9A H -0.5137 -0.2616 -0.0407
C12A C -0.6339(3) -0.3467(4) -0.0748(3)
C13A C -0.6906(4) -0.4261(4) -0.0459(3)
H10A H -0.7461 -0.4483 -0.0814
C14A C -0.6650(3) -0.4723(4) 0.0349(3)
C15A C -0.5841(3) -0.4380(4) 0.0888(3)
H11A H -0.5674 -0.4688 0.1438
C16A C -0.6642(4) -0.2909(4) -0.1595(3)
O8B O 0.2177(3) 0.3240(3) -0.1605(3)
O9B O -0.4170(3) -0.2037(3) -0.1871(3)
H12B H -0.378(5) -0.251(5) -0.166(4)
H13B H -0.464(4) -0.216(4) -0.184(4)
H14B H 0.207(5) 0.346(5) -0.113(5)
H15B H 0.168(5) 0.317(5) -0.189(4)
O10 O 0.9134(8) 0.4497(10) 0.5237(7)
O11 O 0.8274(10) 0.6375(11) 0.5776(11)
loop_
_geom_bond_atom_site_label_1
_geom_bond_atom_site_label_2
_geom_bond_site_symmetry_1
_geom_bond_site_symmetry_2
Zn1 O2 1_555 1_555
Zn2 N5 1_555 1_555
Zn3 N9 1_555 1_555
Zn4 O5 1_555 1_555
S1 O5 1_555 1_555
O1 C9 1_555 1_555
O2 C9 1_555 1_555
O3 C16 1_555 1_555
O4 C16 1_555 1_555
O6 S1 1_555 1_555
O7 S1 1_555 1_555
N1 N2 1_555 1_555
N2 Zn1 1_555 1_555
N3 C1 1_555 1_555
N4 Zn1 1_555 1_555
N5 N4 1_555 1_555
N6 Zn4 1_555 1_555
N7 Zn1 1_555 1_555
N8 Zn2 1_555 1_555
N9 C5 1_555 1_555
N10 C7 1_555 1_555
N11 N12 1_555 1_555
N12 Zn2 1_555 1_555
C1 N2 1_555 1_555
H1 C1 1_555 1_555
C2 N1 1_555 1_555
H2 C2 1_555 1_555
C3 N4 1_555 1_555
H3 C3 1_555 1_555
C4 N5 1_555 1_555
H4 C4 1_555 1_555
C5 N7 1_555 1_555
H5 C5 1_555 1_555
C6 N8 1_555 1_555
H6 C6 1_555 1_555
C7 N11 1_555 1_555
H7 C7 1_555 1_555
C8 N10 1_555 1_555
H8 C8 1_555 1_555
C9 C10 1_555 1_555
C10 C11 1_555 1_555
C11 H9 1_555 1_555
C12 C11 1_555 1_555
C13 C12 1_555 1_555
H10 C13 1_555 1_555
C14 S1 1_555 1_555
C15 C10 1_555 1_555
H11 C15 1_555 1_555
C16 C12 1_555 1_555
O8 Zn3 1_555 1_555
O9 Zn4 1_555 1_555
H12 O9 1_555 1_555
H13 O9 1_555 1_555
H14 O8 1_555 1_555
H15 O8 1_555 1_555
Zn1B N11 1_555 1_555
Zn1A O2A 1_555 1_555
Zn3B O1C 1_555 1_555
Zn3A O1 1_555 1_555
Zn3B_2 O3 1_555 1_555
Zn3C O3A 1_555 1_555
Zn4B O5B 1_555 1_555
Zn4A N3 1_555 1_555
Zn4A_2 N10 1_555 1_555
Zn4C N10B 1_555 1_555
Zn4A_3 O5A 1_555 1_555
Zn4_2 N3A 1_555 1_555
S1A O5A 1_555 1_555
O1A Zn3 1_555 1_555
O2A C9A 1_555 1_555
O2B Zn1B 1_555 1_555
O3A C16A 1_555 1_555
O3B Zn3 1_555 1_555
O3_2 Zn3B 1_555 1_555
O4A C16A 1_555 1_555
O6A S1A 1_555 1_555
O7A S1A 1_555 1_555
N1A Zn3 1_555 1_555
N1C Zn3B 1_555 1_555
N2A Zn1A 1_555 1_555
N2B Zn1B 1_555 1_555
N3A C1A 1_555 1_555
N3A_2 Zn4 1_555 1_555
N3C Zn4B 1_555 1_555
N4B Zn1B 1_555 1_555
N5B Zn2 1_555 1_555
N6B Zn4B 1_555 1_555
N7B Zn1B 1_555 1_555
N8B Zn2 1_555 1_555
N9B Zn3B 1_555 1_555
N10B C7B 1_555 1_555
N10A Zn4 1_555 1_555
N10C Zn4B 1_555 1_555
N11B Zn1 1_555 1_555
N12B Zn2 1_555 1_555
C1A N2A 1_555 1_555
H1A C1A 1_555 1_555
C2A N1A 1_555 1_555
H2A C2A 1_555 1_555
C3B N4B 1_555 1_555
H3B C3B 1_555 1_555
C4B N5B 1_555 1_555
H4B C4B 1_555 1_555
C5B N7B 1_555 1_555
H5B C5B 1_555 1_555
C6B N8B 1_555 1_555
H6B C6B 1_555 1_555
C7B N11B 1_555 1_555
H7B C7B 1_555 1_555
C8B N10B 1_555 1_555
H8B C8B 1_555 1_555
C9A O1A 1_555 1_555
C10A C9A 1_555 1_555
C11A C10A 1_555 1_555
H9A C11A 1_555 1_555
C12A C11A 1_555 1_555
C13A C12A 1_555 1_555
H10A C13A 1_555 1_555
C14A S1A 1_555 1_555
C15A C10A 1_555 1_555
H11A C15A 1_555 1_555
C16A C12A 1_555 1_555
O8B Zn3B 1_555 1_555
O9B Zn4B 1_555 1_555
H12B O9B 1_555 1_555
H13B O9B 1_555 1_555
H14B O8B 1_555 1_555
H15B O8B 1_555 1_555
N1 Zn3A 1_555 1_555
N3 C2 1_555 1_555
N6 C3 1_555 1_555
N6 C4 1_555 1_555
N7 N8 1_555 1_555
N9 C6 1_555 1_555
N12 C8 1_555 1_555
C13 C14 1_555 1_555
C14 C15 1_555 1_555
N1A N2A 1_555 1_555
N3A C2A 1_555 1_555
N4B N5B 1_555 1_555
N6B C3B 1_555 1_555
N6B C4B 1_555 1_555
N7B N8B 1_555 1_555
N9B C5B 1_555 1_555
N9B C6B 1_555 1_555
N11B N12B 1_555 1_555
N12B C8B 1_555 1_555
C13A C14A 1_555 1_555
C14A C15A 1_555 1_555

#END
