
#######################################################################
#
#                 Cambridge Crystallographic Data Centre
#                                CCDC 
#
#######################################################################
#
# If this CIF has been generated from an entry in the Cambridge 
# Structural Database, then it will include bibliographic, chemical, 
# crystal, experimental, refinement or atomic coordinate data resulting 
# from the CCDC's data processing and validation procedures.
#
#######################################################################

data_KIDXAX
_symmetry_cell_setting           triclinic
_symmetry_space_group_name_H-M   'P -1'
_symmetry_Int_Tables_number      2
_space_group_name_Hall           '-P 1'
loop_
_symmetry_equiv_pos_site_id
_symmetry_equiv_pos_as_xyz
1 x,y,z
2 -x,-y,-z
_cell_length_a                   9.9743(12)
_cell_length_b                   11.0238(7)
_cell_length_c                   11.2144(9)
_cell_angle_alpha                66.090(8)
_cell_angle_beta                 77.431(9)
_cell_angle_gamma                83.062(9)
_cell_volume                     1099.51
loop_
_atom_site_label
_atom_site_type_symbol
_atom_site_fract_x
_atom_site_fract_y
_atom_site_fract_z
Cd1 Cd 0.899052(14) 0.315661(13) 0.279645(13)
O1 O 0.80932(14) 0.45918(13) 0.07521(13)
O2 O 0.72325(14) 0.47415(13) 0.26714(13)
O3 O 0.25658(15) 0.80501(14) -0.04654(15)
H1 H 0.2573 0.8118 -0.1240
O4 O 0.74236(15) 0.17288(13) 0.29258(14)
O5 O 0.84660(15) 0.04415(14) 0.45814(14)
O6 O 0.41169(16) -0.35126(15) 0.48575(15)
H2 H 0.3728 -0.3848 0.5657
O7 O 1.06127(18) 0.49577(17) 0.18321(19)
N1 N 0.97520(17) 0.23779(16) 0.67370(16)
N2 N 0.91127(18) 0.35928(17) 0.65399(17)
N3 N 0.92199(17) 0.30644(16) 0.47905(16)
N4 N 1.17583(17) 0.14493(15) 1.02585(15)
N5 N 1.21739(19) 0.05782(17) 1.14034(17)
N6 N 1.06367(17) 0.21061(16) 1.17933(16)
C1 C 0.8810(2) 0.3958(2) 0.5357(2)
H3 H 0.8344 0.4777 0.4935
C2 C 0.9804(2) 0.2081(2) 0.5696(2)
H4 H 1.0200 0.1285 0.5611
C3 C 1.1467(2) 0.1016(2) 1.2295(2)
H5 H 1.1529 0.0609 1.3208
C4 C 1.0859(2) 0.23432(19) 1.0516(2)
H6 H 1.0436 0.3051 0.9873
C5 C 1.0331(2) 0.1621(2) 0.7939(2)
H7 H 1.0495 0.0683 0.8042
H8 H 0.9664 0.1644 0.8725
C6 C 1.1677(2) 0.21938(19) 0.78638(19)
H9 H 1.2291 0.2284 0.7013
H10 H 1.1485 0.3093 0.7872
C7 C 1.2410(2) 0.1347(2) 0.89973(19)
H11 H 1.2428 0.0407 0.9108
H12 H 1.3373 0.1621 0.8767
C8 C 0.6040(2) 0.59393(18) 0.08944(19)
C9 C 0.5913(2) 0.62696(19) -0.0414(2)
H13 H 0.6620 0.6000 -0.0986
C10 C 0.4773(2) 0.69840(19) -0.0892(2)
H14 H 0.4694 0.7197 -0.1785
C11 C 0.3737(2) 0.73916(18) -0.0061(2)
C12 C 0.3879(2) 0.7120(2) 0.1228(2)
H15 H 0.3198 0.7436 0.1781
C13 C 0.5014(2) 0.6386(2) 0.1705(2)
H16 H 0.5097 0.6184 0.2594
C14 C 0.7193(2) 0.50486(18) 0.14538(19)
C15 C 0.6634(2) -0.04685(19) 0.41892(19)
C16 C 0.5684(2) -0.0312(2) 0.3381(2)
H17 H 0.5614 0.0510 0.2653
C17 C 0.4845(2) -0.1330(2) 0.3621(2)
H18 H 0.4209 -0.1205 0.3058
C18 C 0.4934(2) -0.2532(2) 0.4685(2)
C19 C 0.5864(2) -0.2703(2) 0.5511(2)
H19 H 0.5926 -0.3524 0.6243
C20 C 0.6697(2) -0.1678(2) 0.5266(2)
H20 H 0.7321 -0.1801 0.5839
C21 C 0.7567(2) 0.0626(2) 0.38994(19)
H21 H 1.087(3) 0.529(3) 0.217(3)
H22 H 1.108(3) 0.509(3) 0.115(3)
Cd1_2 Cd 0.899052(14) 0.315661(13) 1.279645(13)
N6_2 N 1.06367(17) 0.21061(16) 0.17933(16)
loop_
_geom_bond_atom_site_label_1
_geom_bond_atom_site_label_2
_geom_bond_site_symmetry_1
_geom_bond_site_symmetry_2
Cd1 O1 1_555 1_555
O1 C14 1_555 1_555
O2 Cd1 1_555 1_555
O3 H1 1_555 1_555
O4 Cd1 1_555 1_555
O5 C21 1_555 1_555
O6 H2 1_555 1_555
O7 Cd1 1_555 1_555
N1 N2 1_555 1_555
N2 C1 1_555 1_555
N3 Cd1 1_555 1_555
N4 N5 1_555 1_555
N5 C3 1_555 1_555
N6 C3 1_555 1_555
C1 N3 1_555 1_555
H3 C1 1_555 1_555
C2 N1 1_555 1_555
H4 C2 1_555 1_555
C3 H5 1_555 1_555
C4 N4 1_555 1_555
H6 C4 1_555 1_555
C5 N1 1_555 1_555
H7 C5 1_555 1_555
H8 C5 1_555 1_555
C6 C5 1_555 1_555
H9 C6 1_555 1_555
H10 C6 1_555 1_555
C7 N4 1_555 1_555
H11 C7 1_555 1_555
H12 C7 1_555 1_555
C8 C9 1_555 1_555
C9 H13 1_555 1_555
C10 C9 1_555 1_555
H14 C10 1_555 1_555
C11 O3 1_555 1_555
C12 C11 1_555 1_555
H15 C12 1_555 1_555
C13 C8 1_555 1_555
H16 C13 1_555 1_555
C14 O2 1_555 1_555
C15 C16 1_555 1_555
C16 H17 1_555 1_555
C17 C16 1_555 1_555
H18 C17 1_555 1_555
C18 O6 1_555 1_555
C19 C18 1_555 1_555
H19 C19 1_555 1_555
C20 C15 1_555 1_555
H20 C20 1_555 1_555
C21 O4 1_555 1_555
H21 O7 1_555 1_555
H22 O7 1_555 1_555
Cd1_2 N6 1_555 1_555
N6_2 Cd1 1_555 1_555
N3 C2 1_555 1_555
N6 C4 1_555 1_555
C6 C7 1_555 1_555
C8 C14 1_555 1_555
C10 C11 1_555 1_555
C12 C13 1_555 1_555
C15 C21 1_555 1_555
C17 C18 1_555 1_555
C19 C20 1_555 1_555

#END
