
#######################################################################
#
#                 Cambridge Crystallographic Data Centre
#                                CCDC 
#
#######################################################################
#
# If this CIF has been generated from an entry in the Cambridge 
# Structural Database, then it will include bibliographic, chemical, 
# crystal, experimental, refinement or atomic coordinate data resulting 
# from the CCDC's data processing and validation procedures.
#
#######################################################################

data_KIDYOM01
_symmetry_cell_setting           triclinic
_symmetry_space_group_name_H-M   'P -1'
_symmetry_Int_Tables_number      2
_space_group_name_Hall           '-P 1'
loop_
_symmetry_equiv_pos_site_id
_symmetry_equiv_pos_as_xyz
1 x,y,z
2 -x,-y,-z
_cell_length_a                   9.8733(19)
_cell_length_b                   10.3078(18)
_cell_length_c                   11.5645(14)
_cell_angle_alpha                111.169(10)
_cell_angle_beta                 93.351(13)
_cell_angle_gamma                93.971(13)
_cell_volume                     1090.47
loop_
_atom_site_label
_atom_site_type_symbol
_atom_site_fract_x
_atom_site_fract_y
_atom_site_fract_z
Ag1 Ag 0.24397 0.50514 0.50420
O1 O 0.6290 0.3667 0.2280
N1 N 0.3794 0.3484 0.4852
N2 N 0.4180 0.3468 0.2897
H1 H 0.3338 0.3572 0.2756
C1 C 0.4012 0.3004 0.5792
H2 H 0.3496 0.3306 0.6470
C2 C 0.4965 0.2098 0.5777
H3 H 0.5102 0.1802 0.6438
C3 C 0.5707 0.1629 0.4780
H4 H 0.6360 0.1020 0.4754
C4 C 0.5464 0.2067 0.3800
H5 H 0.5948 0.1742 0.3102
C5 C 0.4508 0.2992 0.3862
C6 C 0.5070 0.3776 0.2166
C7 C 0.4409 0.4338 0.1260
H6 H 0.3992 0.5170 0.1723
H7 H 0.3691 0.3652 0.0744
C8 C 0.5364 0.4687 0.0425
H8 H 0.6106 0.5348 0.0933
H9 H 0.5748 0.3850 -0.0079
O2 O -0.1354 0.6133 0.7593
N3 N 0.1091 0.6624 0.5234
N4 N 0.0774 0.6678 0.7210
H10 H 0.1626 0.6651 0.7393
C9 C 0.0818 0.7106 0.4292
H11 H 0.1304 0.6786 0.3596
C10 C -0.0110 0.8004 0.4315
H12 H -0.0269 0.8286 0.3649
C11 C -0.0808 0.8491 0.5334
H13 H -0.1456 0.9108 0.5370
C12 C -0.0540 0.8070 0.6325
H14 H -0.1000 0.8410 0.7036
C13 C 0.0415 0.7136 0.6238
C14 C -0.0126 0.6282 0.7877
C15 C 0.0522 0.5998 0.8974
H15 H 0.1350 0.5579 0.8744
H16 H 0.0760 0.6875 0.9644
C16 C -0.0324 0.5100 0.9442
H17 H -0.0530 0.4201 0.8784
H18 H -0.1172 0.5497 0.9646
Ag1A Ag 0.75603 0.49486 -0.50420
Ag1A_2 Ag -0.24397 0.49486 1.49580
O1A O 0.3710 0.6333 -0.2280
N1A N 0.6206 0.6516 -0.4852
N2A N 0.5820 0.6532 -0.2897
H1A H 0.6662 0.6428 -0.2756
C1A C 0.5988 0.6996 -0.5792
H2A H 0.6504 0.6694 -0.6470
C2A C 0.5035 0.7902 -0.5777
H3A H 0.4898 0.8198 -0.6438
C3A C 0.4293 0.8371 -0.4780
H4A H 0.3640 0.8980 -0.4754
C4A C 0.4536 0.7933 -0.3800
H5A H 0.4052 0.8258 -0.3102
C5A C 0.5492 0.7008 -0.3862
C6A C 0.4930 0.6224 -0.2166
C7A C 0.5591 0.5662 -0.1260
H6A H 0.6008 0.4830 -0.1723
H7A H 0.6309 0.6348 -0.0744
C8A C 0.4636 0.5313 -0.0425
H8A H 0.3894 0.4652 -0.0933
H9A H 0.4252 0.6150 0.0079
O2A O 0.1354 0.3867 1.2407
N3A N -0.1091 0.3376 1.4766
N3A_2 N 0.8909 0.3376 -0.5234
N4A N -0.0774 0.3322 1.2790
H10A H -0.1626 0.3349 1.2607
C9A C -0.0818 0.2894 1.5708
H11A H -0.1304 0.3214 1.6404
C10A C 0.0110 0.1996 1.5685
H12A H 0.0269 0.1714 1.6351
C11A C 0.0808 0.1509 1.4666
H13A H 0.1456 0.0892 1.4630
C12A C 0.0540 0.1930 1.3675
H14A H 0.1000 0.1590 1.2964
C13A C -0.0415 0.2864 1.3762
C14A C 0.0126 0.3718 1.2123
C15A C -0.0522 0.4002 1.1026
H15A H -0.1350 0.4421 1.1256
H16A H -0.0760 0.3125 1.0356
C16A C 0.0324 0.4900 1.0558
H17A H 0.0530 0.5799 1.1216
H18A H 0.1172 0.4503 1.0354
N5 N 0.2578 -0.1224 0.2523
C17 C 0.2768 -0.0949 0.1806
C18 C 0.3274 -0.0516 0.0799
H19 H 0.3154 -0.1298 0.0026
H20 H 0.4222 -0.0182 0.0996
H21 H 0.2768 0.0212 0.0730
Cl1 Cl 0.7568 -0.1060 0.1830
O3 O 0.8518 -0.1496 0.1231
O4 O 0.7804 0.0120 0.2228
O5 O 0.6271 -0.1382 0.1328
O6 O 0.7641 -0.1444 0.2520
loop_
_geom_bond_atom_site_label_1
_geom_bond_atom_site_label_2
_geom_bond_site_symmetry_1
_geom_bond_site_symmetry_2
Ag1 N1 1_555 1_555
O1 C6 1_555 1_555
N1 C1 1_555 1_555
N2 H1 1_555 1_555
C1 H2 1_555 1_555
C2 C1 1_555 1_555
H3 C2 1_555 1_555
C3 C2 1_555 1_555
H4 C3 1_555 1_555
C4 C3 1_555 1_555
H5 C4 1_555 1_555
C5 N1 1_555 1_555
C6 N2 1_555 1_555
C7 C6 1_555 1_555
H6 C7 1_555 1_555
H7 C7 1_555 1_555
C8 C7 1_555 1_555
H8 C8 1_555 1_555
H9 C8 1_555 1_555
O2 C14 1_555 1_555
N3 Ag1 1_555 1_555
N4 H10 1_555 1_555
C9 N3 1_555 1_555
H11 C9 1_555 1_555
C10 C9 1_555 1_555
H12 C10 1_555 1_555
C11 C10 1_555 1_555
H13 C11 1_555 1_555
C12 C11 1_555 1_555
H14 C12 1_555 1_555
C13 N3 1_555 1_555
C14 N4 1_555 1_555
C15 C14 1_555 1_555
H15 C15 1_555 1_555
H16 C15 1_555 1_555
C16 C15 1_555 1_555
H17 C16 1_555 1_555
H18 C16 1_555 1_555
N5 C17 1_555 1_555
C17 C18 1_555 1_555
C18 H19 1_555 1_555
H20 C18 1_555 1_555
H21 C18 1_555 1_555
Cl1 O3 1_555 1_555
O4 Cl1 1_555 1_555
O5 Cl1 1_555 1_555
O6 Cl1 1_555 1_555
Ag1A N1A 1_555 1_555
Ag1A_2 N3A 1_555 1_555
O1A C6A 1_555 1_555
N1A C1A 1_555 1_555
N2A H1A 1_555 1_555
C1A H2A 1_555 1_555
C2A C1A 1_555 1_555
H3A C2A 1_555 1_555
C3A C2A 1_555 1_555
H4A C3A 1_555 1_555
C4A C3A 1_555 1_555
H5A C4A 1_555 1_555
C5A N1A 1_555 1_555
C6A N2A 1_555 1_555
C7A C6A 1_555 1_555
H6A C7A 1_555 1_555
H7A C7A 1_555 1_555
C8A C8 1_555 1_555
H8A C8A 1_555 1_555
H9A C8A 1_555 1_555
O2A C14A 1_555 1_555
N3A C9A 1_555 1_555
N3A_2 Ag1A 1_555 1_555
N4A H10A 1_555 1_555
C9A H11A 1_555 1_555
C10A C9A 1_555 1_555
H12A C10A 1_555 1_555
C11A C10A 1_555 1_555
H13A C11A 1_555 1_555
C12A C11A 1_555 1_555
H14A C12A 1_555 1_555
C13A N3A 1_555 1_555
C14A N4A 1_555 1_555
C15A C14A 1_555 1_555
H15A C15A 1_555 1_555
H16A C15A 1_555 1_555
C16A C16 1_555 1_555
H17A C16A 1_555 1_555
H18A C16A 1_555 1_555
N2 C5 1_555 1_555
C4 C5 1_555 1_555
N4 C13 1_555 1_555
C12 C13 1_555 1_555
N2A C5A 1_555 1_555
C4A C5A 1_555 1_555
C7A C8A 1_555 1_555
N4A C13A 1_555 1_555
C12A C13A 1_555 1_555
C15A C16A 1_555 1_555

#END
