
#######################################################################
#
#                 Cambridge Crystallographic Data Centre
#                                CCDC 
#
#######################################################################
#
# If this CIF has been generated from an entry in the Cambridge 
# Structural Database, then it will include bibliographic, chemical, 
# crystal, experimental, refinement or atomic coordinate data resulting 
# from the CCDC's data processing and validation procedures.
#
#######################################################################

data_KIDYIG
_symmetry_cell_setting           triclinic
_symmetry_space_group_name_H-M   'P -1'
_symmetry_Int_Tables_number      2
_space_group_name_Hall           '-P 1'
loop_
_symmetry_equiv_pos_site_id
_symmetry_equiv_pos_as_xyz
1 x,y,z
2 -x,-y,-z
_cell_length_a                   8.3486(12)
_cell_length_b                   9.9271(10)
_cell_length_c                   11.5278(11)
_cell_angle_alpha                99.612(7)
_cell_angle_beta                 104.505(9)
_cell_angle_gamma                103.956(10)
_cell_volume                     870.955
loop_
_atom_site_label
_atom_site_type_symbol
_atom_site_fract_x
_atom_site_fract_y
_atom_site_fract_z
Ag1 Ag 0.33843(3) 0.49950(3) 0.09292(2)
O1 O -0.2385(3) 0.3673(2) -0.3011(2)
O2 O -0.1512(4) -0.3360(3) -0.4767(3)
N1 N 0.1912(3) 0.6196(3) -0.0157(2)
N2 N 0.0449(3) 0.4300(3) -0.1857(2)
H1 H 0.132(5) 0.398(4) -0.165(3)
N3 N -0.4152(4) -0.4247(3) -0.6197(2)
H2 H -0.503(5) -0.404(4) -0.647(3)
N4 N -0.5249(3) -0.6185(3) -0.7873(2)
C1 C 0.2241(5) 0.7578(3) 0.0429(3)
H3 H 0.313(4) 0.793(4) 0.121(3)
C2 C 0.1385(5) 0.8465(4) -0.0022(4)
H4 H 0.164(5) 0.938(4) 0.044(4)
C3 C 0.0123(5) 0.7953(4) -0.1152(4)
H5 H -0.051(5) 0.856(4) -0.149(3)
C4 C -0.0238(4) 0.6561(3) -0.1785(3)
H6 H -0.101(4) 0.623(3) -0.254(3)
C5 C 0.0683(4) 0.5710(3) -0.1255(3)
C6 C -0.1024(4) 0.3386(3) -0.2726(3)
C7 C -0.0791(5) 0.2001(4) -0.3298(5)
H7 H -0.020(7) 0.216(5) -0.392(5)
H8 H 0.000(7) 0.165(5) -0.268(5)
C8 C -0.2373(5) 0.0738(4) -0.3818(4)
H9 H -0.295(5) 0.055(4) -0.326(4)
H10 H -0.324(6) 0.098(4) -0.449(4)
C9 C -0.1954(5) -0.0592(4) -0.4339(4)
H11 H -0.096(6) -0.073(5) -0.375(4)
H12 H -0.164(7) -0.041(6) -0.516(5)
C10 C -0.3437(5) -0.1929(4) -0.4806(4)
H13 H -0.441(6) -0.181(4) -0.538(4)
H14 H -0.395(6) -0.208(5) -0.412(5)
C11 C -0.2927(4) -0.3227(3) -0.5240(3)
C12 C -0.4057(4) -0.5567(3) -0.6768(3)
C13 C -0.2857(5) -0.6222(4) -0.6231(3)
H15 H -0.199(5) -0.576(4) -0.550(3)
C14 C -0.2938(5) -0.7559(4) -0.6848(4)
H16 H -0.217(5) -0.805(4) -0.655(3)
C15 C -0.4207(5) -0.8227(4) -0.7955(4)
H17 H -0.427(5) -0.911(4) -0.844(4)
C16 C -0.5311(5) -0.7513(3) -0.8437(3)
H18 H -0.616(5) -0.792(4) -0.920(3)
Ag1_2 Ag -0.66157(3) -0.50050(3) -0.90708(2)
N4_2 N 0.4751(3) 0.3815(3) 0.2127(2)
O3 O 0.6533(3) 0.6722(3) 0.1231(2)
O4 O 0.6011(5) 0.8368(4) 0.2373(3)
O5 O 0.7749(5) 0.8936(4) 0.1372(4)
N5 N 0.6787(4) 0.8027(3) 0.1642(3)
loop_
_geom_bond_atom_site_label_1
_geom_bond_atom_site_label_2
_geom_bond_site_symmetry_1
_geom_bond_site_symmetry_2
Ag1 N1 1_555 1_555
O1 C6 1_555 1_555
O2 C11 1_555 1_555
O3 N5 1_555 1_555
O4 N5 1_555 1_555
O5 N5 1_555 1_555
N1 C1 1_555 1_555
N2 H1 1_555 1_555
N3 H2 1_555 1_555
N4 C12 1_555 1_555
C1 H3 1_555 1_555
C2 C1 1_555 1_555
H4 C2 1_555 1_555
C3 C2 1_555 1_555
H5 C3 1_555 1_555
C4 C3 1_555 1_555
H6 C4 1_555 1_555
C5 N1 1_555 1_555
C6 N2 1_555 1_555
C7 C6 1_555 1_555
H7 C7 1_555 1_555
H8 C7 1_555 1_555
C8 C7 1_555 1_555
H9 C8 1_555 1_555
H10 C8 1_555 1_555
C9 C8 1_555 1_555
H11 C9 1_555 1_555
H12 C9 1_555 1_555
C10 C9 1_555 1_555
H13 C10 1_555 1_555
H14 C10 1_555 1_555
C11 N3 1_555 1_555
C12 N3 1_555 1_555
C13 C12 1_555 1_555
H15 C13 1_555 1_555
C14 C13 1_555 1_555
H16 C14 1_555 1_555
C15 C14 1_555 1_555
H17 C15 1_555 1_555
C16 N4 1_555 1_555
H18 C16 1_555 1_555
Ag1_2 N4 1_555 1_555
N4_2 Ag1 1_555 1_555
N2 C5 1_555 1_555
C4 C5 1_555 1_555
C10 C11 1_555 1_555
C15 C16 1_555 1_555

#END
