
#######################################################################
#
#                 Cambridge Crystallographic Data Centre
#                                CCDC 
#
#######################################################################
#
# If this CIF has been generated from an entry in the Cambridge 
# Structural Database, then it will include bibliographic, chemical, 
# crystal, experimental, refinement or atomic coordinate data resulting 
# from the CCDC's data processing and validation procedures.
#
#######################################################################

data_KIDZAZ
_symmetry_cell_setting           monoclinic
_symmetry_space_group_name_H-M   'C 2/c'
_symmetry_Int_Tables_number      15
_space_group_name_Hall           '-C 2yn'
loop_
_symmetry_equiv_pos_site_id
_symmetry_equiv_pos_as_xyz
1 x,y,z
2 1/2+x,1/2+y,z
3 -x,y,1/2-z
4 1/2-x,1/2+y,1/2-z
5 -x,-y,-z
6 1/2-x,1/2-y,-z
7 x,-y,1/2+z
8 1/2+x,1/2-y,1/2+z
_cell_length_a                   31.390(5)
_cell_length_b                   14.581(3)
_cell_length_c                   22.107(5)
_cell_angle_alpha                90
_cell_angle_beta                 119.167(13)
_cell_angle_gamma                90
_cell_volume                     8835.35
loop_
_atom_site_label
_atom_site_type_symbol
_atom_site_fract_x
_atom_site_fract_y
_atom_site_fract_z
Ag1 Ag 0.011829(11) 0.01282(2) 0.335515(19)
Ag2 Ag 0.192402(11) 0.21252(2) 0.292144(19)
S1 S 0.10456(3) 0.07528(6) 0.28520(5)
O1 O 0.13982(12) -0.2859(2) 0.41498(18)
O2 O 0.25016(11) -0.1328(2) 0.26081(19)
O3 O 0.05589(14) 0.4571(2) 0.1621(3)
O4 O -0.19720(17) -0.2516(3) 0.45829(19)
O5 O -0.03927(16) 0.1008(3) 0.51882(19)
O6 O 0.08521(10) 0.02222(18) 0.32252(17)
O7 O 0.15838(8) 0.07876(16) 0.32861(13)
O8 O 0.09220(11) 0.0296(2) 0.22026(15)
O9 O 0.08494(10) 0.16824(16) 0.27387(15)
N1 N 0.00724(11) -0.1407(2) 0.32960(15)
N2 N 0.08905(11) -0.1634(2) 0.36690(16)
H1 H 0.0887 -0.1068 0.3557
N3 N 0.22943(11) -0.00574(19) 0.29961(17)
H2 H 0.2068 0.0184 0.3056
N4 N 0.26301(10) 0.13819(19) 0.31649(15)
N5 N 0.14569(13) 0.2445(3) 0.17441(19)
N6 N 0.08653(12) 0.3133(2) 0.19092(19)
H3 H 0.0879 0.2667 0.2156
N7 N -0.18821(12) -0.3313(2) 0.64318(18)
N8 N -0.18126(12) -0.2324(2) 0.56792(18)
H4 H -0.1756 -0.1915 0.5990
N9 N -0.04004(11) 0.0960(2) 0.41676(17)
H5 H -0.0540 0.0702 0.3767
N10 N 0.01680(11) 0.1469(2) 0.38780(17)
C1 C -0.03718(15) -0.1722(3) 0.3131(2)
H6 H -0.0628 -0.1304 0.2978
C2 C -0.04688(18) -0.2626(3) 0.3178(3)
H7 H -0.0782 -0.2818 0.3061
C3 C -0.00887(19) -0.3244(3) 0.3402(3)
H8 H -0.0143 -0.3863 0.3441
C4 C 0.03685(17) -0.2942(3) 0.3567(2)
H9 H 0.0627 -0.3352 0.3712
C5 C 0.04392(14) -0.2014(2) 0.35139(19)
C6 C 0.13376(15) -0.2054(3) 0.3977(2)
C7 C 0.17628(15) -0.1443(3) 0.4112(2)
H10 H 0.1931 -0.1261 0.4595
H11 H 0.1643 -0.0892 0.3833
C8 C 0.21223(15) -0.1932(3) 0.3938(2)
H12 H 0.2400 -0.1533 0.4060
H13 H 0.2241 -0.2481 0.4220
C9 C 0.19036(15) -0.2199(3) 0.3183(2)
H14 H 0.1612 -0.2559 0.3054
H15 H 0.2134 -0.2587 0.3130
C10 C 0.17705(14) -0.1392(3) 0.2683(2)
H16 H 0.1573 -0.1609 0.2212
H17 H 0.1579 -0.0952 0.2778
C11 C 0.22205(14) -0.0929(3) 0.2752(2)
C12 C 0.27022(13) 0.0485(2) 0.31593(19)
C13 C 0.31554(14) 0.0121(3) 0.3320(2)
H18 H 0.3197 -0.0509 0.3309
C14 C 0.35370(15) 0.0707(3) 0.3493(3)
H19 H 0.3841 0.0478 0.3594
C15 C 0.34707(15) 0.1632(3) 0.3517(2)
H20 H 0.3729 0.2039 0.3644
C16 C 0.30155(14) 0.1941(3) 0.3351(2)
H21 H 0.2970 0.2569 0.3366
C17 C 0.1674(2) 0.2273(4) 0.1357(3)
H22 H 0.1935 0.1865 0.1527
C18 C 0.1528(3) 0.2664(6) 0.0740(4)
H23 H 0.1686 0.2526 0.0487
C19 C 0.1145(3) 0.3273(6) 0.0481(3)
H24 H 0.1043 0.3552 0.0054
C20 C 0.0914(2) 0.3464(4) 0.0859(3)
H25 H 0.0655 0.3874 0.0695
C21 C 0.10813(16) 0.3024(3) 0.1495(2)
C22 C 0.06335(15) 0.3891(3) 0.1973(3)
C23 C 0.0510(2) 0.3794(3) 0.2549(4)
H26 H 0.0813 0.3710 0.2979
H27 H 0.0320 0.3239 0.2467
C24 C 0.0230(2) 0.4583(3) 0.2648(5)
H28 H 0.0347 0.4635 0.3142
H29 H 0.0328 0.5141 0.2508
C25 C -0.18979(18) -0.4166(3) 0.6656(3)
H30 H -0.1922 -0.4230 0.7057
C26 C -0.1880(2) -0.4939(4) 0.6322(4)
H31 H -0.1888 -0.5517 0.6494
C27 C -0.1850(2) -0.4846(4) 0.5732(4)
H32 H -0.1837 -0.5364 0.5497
C28 C -0.18400(19) -0.3991(4) 0.5482(3)
H33 H -0.1828 -0.3919 0.5073
C29 C -0.18484(15) -0.3226(3) 0.5861(2)
C30 C -0.18567(16) -0.2013(4) 0.5072(2)
C31 C -0.17534(19) -0.1017(4) 0.5062(3)
H34 H -0.2051 -0.0668 0.4912
H35 H -0.1519 -0.0816 0.5525
C32 C -0.1548(2) -0.0835(4) 0.4567(3)
H36 H -0.1819 -0.0723 0.4107
H37 H -0.1382 -0.1383 0.4543
C33 C -0.12190(19) -0.0085(4) 0.4754(3)
H38 H -0.1395 0.0473 0.4731
H39 H -0.0966 -0.0165 0.5231
C34 C -0.09763(18) 0.0041(3) 0.4310(2)
H40 H -0.1219 0.0245 0.3852
H41 H -0.0852 -0.0546 0.4259
C35 C -0.05671(17) 0.0718(3) 0.4607(3)
C36 C -0.00277(13) 0.1578(3) 0.4291(2)
C37 C 0.01163(16) 0.2293(3) 0.4772(2)
H42 H -0.0009 0.2344 0.5075
C38 C 0.04486(17) 0.2917(3) 0.4785(3)
H43 H 0.0549 0.3403 0.5097
C39 C 0.06323(17) 0.2830(3) 0.4343(3)
H44 H 0.0849 0.3261 0.4339
C40 C 0.04922(15) 0.2097(3) 0.3906(2)
H45 H 0.0626 0.2027 0.3614
Ag1B Ag -0.011829(11) 0.01282(2) 0.164485(19)
Ag1D Ag -0.011829(11) -0.01282(2) 0.664485(19)
Ag2D Ag -0.192402(11) -0.21252(2) 0.707856(19)
Ag2B Ag -0.192402(11) 0.21252(2) 0.207856(19)
S1B S -0.10456(3) 0.07528(6) 0.21480(5)
O1B O -0.13982(12) -0.2859(2) 0.08502(18)
O2B O -0.25016(11) -0.1328(2) 0.23919(19)
O3B O -0.05589(14) 0.4571(2) 0.3379(3)
O4D O 0.19720(17) 0.2516(3) 0.54171(19)
O5D O 0.03927(16) -0.1008(3) 0.48118(19)
O6B O -0.08521(10) 0.02222(18) 0.17748(17)
O7B O -0.15838(8) 0.07876(16) 0.17139(13)
O7D O -0.15838(8) -0.07876(16) 0.67139(13)
O8B O -0.09220(11) 0.0296(2) 0.27974(15)
O9B O -0.08494(10) 0.16824(16) 0.22613(15)
N1B N -0.00724(11) -0.1407(2) 0.17040(15)
N2B N -0.08905(11) -0.1634(2) 0.13310(16)
H1B H -0.0887 -0.1068 0.1443
N3B N -0.22943(11) -0.00574(19) 0.20039(17)
H2B H -0.2068 0.0184 0.1944
N4B N -0.26301(10) 0.13819(19) 0.18351(15)
N4D N -0.26301(10) -0.13819(19) 0.68351(15)
N5B N -0.14569(13) 0.2445(3) 0.32559(19)
N5D N -0.14569(13) -0.2445(3) 0.82559(19)
N6B N -0.08653(12) 0.3133(2) 0.30908(19)
H3B H -0.0879 0.2667 0.2844
N7D N 0.18821(12) 0.3313(2) 0.35682(18)
N8D N 0.18126(12) 0.2324(2) 0.43208(18)
H4D H 0.1756 0.1915 0.4010
N9D N 0.04004(11) -0.0960(2) 0.58324(17)
H5D H 0.0540 -0.0702 0.6233
N10D N -0.01680(11) -0.1469(2) 0.61220(17)
N10B N -0.01680(11) 0.1469(2) 0.11220(17)
C1B C 0.03718(15) -0.1722(3) 0.1869(2)
H6B H 0.0628 -0.1304 0.2022
C2B C 0.04688(18) -0.2626(3) 0.1822(3)
H7B H 0.0782 -0.2818 0.1939
C3B C 0.00887(19) -0.3244(3) 0.1598(3)
H8B H 0.0143 -0.3863 0.1559
C4B C -0.03685(17) -0.2942(3) 0.1433(2)
H9B H -0.0627 -0.3352 0.1288
C5B C -0.04392(14) -0.2014(2) 0.14861(19)
C6B C -0.13376(15) -0.2054(3) 0.1023(2)
C7B C -0.17628(15) -0.1443(3) 0.0888(2)
H10B H -0.1931 -0.1261 0.0405
H11B H -0.1643 -0.0892 0.1167
C8B C -0.21223(15) -0.1932(3) 0.1062(2)
H12B H -0.2400 -0.1533 0.0940
H13B H -0.2241 -0.2481 0.0780
C9B C -0.19036(15) -0.2199(3) 0.1817(2)
H14B H -0.1612 -0.2559 0.1946
H15B H -0.2134 -0.2587 0.1870
C10B C -0.17705(14) -0.1392(3) 0.2317(2)
H16B H -0.1573 -0.1609 0.2788
H17B H -0.1579 -0.0952 0.2222
C11B C -0.22205(14) -0.0929(3) 0.2248(2)
C12B C -0.27022(13) 0.0485(2) 0.18407(19)
C13B C -0.31554(14) 0.0121(3) 0.1680(2)
H18B H -0.3197 -0.0509 0.1691
C14B C -0.35370(15) 0.0707(3) 0.1507(3)
H19B H -0.3841 0.0478 0.1406
C15B C -0.34707(15) 0.1632(3) 0.1483(2)
H20B H -0.3729 0.2039 0.1356
C16B C -0.30155(14) 0.1941(3) 0.1649(2)
H21B H -0.2970 0.2569 0.1634
C17B C -0.1674(2) 0.2273(4) 0.3643(3)
H22B H -0.1935 0.1865 0.3473
C18B C -0.1528(3) 0.2664(6) 0.4260(4)
H23B H -0.1686 0.2526 0.4513
C19B C -0.1145(3) 0.3273(6) 0.4519(3)
H24B H -0.1043 0.3552 0.4946
C20B C -0.0914(2) 0.3464(4) 0.4141(3)
H25B H -0.0655 0.3874 0.4305
C21B C -0.10813(16) 0.3024(3) 0.3505(2)
C22B C -0.06335(15) 0.3891(3) 0.3027(3)
C23B C -0.0510(2) 0.3794(3) 0.2451(4)
H26B H -0.0813 0.3710 0.2021
H27B H -0.0320 0.3239 0.2533
C24B C -0.0230(2) 0.4583(3) 0.2352(5)
H28B H -0.0347 0.4635 0.1858
H29B H -0.0328 0.5141 0.2492
C25D C 0.18979(18) 0.4166(3) 0.3344(3)
H30D H 0.1922 0.4230 0.2943
C26D C 0.1880(2) 0.4939(4) 0.3678(4)
H31D H 0.1888 0.5517 0.3506
C27D C 0.1850(2) 0.4846(4) 0.4268(4)
H32D H 0.1837 0.5364 0.4503
C28D C 0.18400(19) 0.3991(4) 0.4518(3)
H33D H 0.1828 0.3919 0.4927
C29D C 0.18484(15) 0.3226(3) 0.4139(2)
C30D C 0.18567(16) 0.2013(4) 0.4928(2)
C31D C 0.17534(19) 0.1017(4) 0.4938(3)
H34D H 0.2051 0.0668 0.5088
H35D H 0.1519 0.0816 0.4475
C32D C 0.1548(2) 0.0835(4) 0.5433(3)
H36D H 0.1819 0.0723 0.5893
H37D H 0.1382 0.1383 0.5457
C33D C 0.12190(19) 0.0085(4) 0.5246(3)
H38D H 0.1395 -0.0473 0.5269
H39D H 0.0966 0.0165 0.4769
C34D C 0.09763(18) -0.0041(3) 0.5690(2)
H40D H 0.1219 -0.0245 0.6148
H41D H 0.0852 0.0546 0.5741
C35D C 0.05671(17) -0.0718(3) 0.5393(3)
C36D C 0.00277(13) -0.1578(3) 0.5709(2)
C37D C -0.01163(16) -0.2293(3) 0.5228(2)
H42D H 0.0009 -0.2344 0.4925
C38D C -0.04486(17) -0.2917(3) 0.5215(3)
H43D H -0.0549 -0.3403 0.4903
C39D C -0.06323(17) -0.2830(3) 0.5657(3)
H44D H -0.0849 -0.3261 0.5661
C40D C -0.04922(15) -0.2097(3) 0.6094(2)
H45D H -0.0626 -0.2027 0.6386
loop_
_geom_bond_atom_site_label_1
_geom_bond_atom_site_label_2
_geom_bond_site_symmetry_1
_geom_bond_site_symmetry_2
Ag1 O6 1_555 1_555
Ag2 O7 1_555 1_555
S1 O6 1_555 1_555
O1 C6 1_555 1_555
O2 C11 1_555 1_555
O3 C22 1_555 1_555
O4 C30 1_555 1_555
O5 C35 1_555 1_555
O7 S1 1_555 1_555
O8 S1 1_555 1_555
O9 S1 1_555 1_555
N1 Ag1 1_555 1_555
N2 H1 1_555 1_555
N3 H2 1_555 1_555
N4 Ag2 1_555 1_555
N5 Ag2 1_555 1_555
N6 H3 1_555 1_555
N7 C25 1_555 1_555
N8 H4 1_555 1_555
N9 H5 1_555 1_555
N10 Ag1 1_555 1_555
C1 N1 1_555 1_555
H6 C1 1_555 1_555
C2 C1 1_555 1_555
H7 C2 1_555 1_555
C3 C2 1_555 1_555
H8 C3 1_555 1_555
C4 C3 1_555 1_555
H9 C4 1_555 1_555
C5 N1 1_555 1_555
C6 N2 1_555 1_555
C7 C6 1_555 1_555
H10 C7 1_555 1_555
H11 C7 1_555 1_555
C8 C7 1_555 1_555
H12 C8 1_555 1_555
H13 C8 1_555 1_555
C9 C8 1_555 1_555
H14 C9 1_555 1_555
H15 C9 1_555 1_555
C10 C9 1_555 1_555
H16 C10 1_555 1_555
H17 C10 1_555 1_555
C11 N3 1_555 1_555
C12 N3 1_555 1_555
C13 C12 1_555 1_555
H18 C13 1_555 1_555
C14 C13 1_555 1_555
H19 C14 1_555 1_555
C15 C14 1_555 1_555
H20 C15 1_555 1_555
C16 N4 1_555 1_555
H21 C16 1_555 1_555
C17 N5 1_555 1_555
H22 C17 1_555 1_555
C18 C17 1_555 1_555
H23 C18 1_555 1_555
C19 C18 1_555 1_555
H24 C19 1_555 1_555
C20 C19 1_555 1_555
H25 C20 1_555 1_555
C21 N5 1_555 1_555
C22 N6 1_555 1_555
C23 C22 1_555 1_555
H26 C23 1_555 1_555
H27 C23 1_555 1_555
C24 C23 1_555 1_555
H28 C24 1_555 1_555
H29 C24 1_555 1_555
C25 H30 1_555 1_555
C26 C25 1_555 1_555
H31 C26 1_555 1_555
C27 C26 1_555 1_555
H32 C27 1_555 1_555
C28 C27 1_555 1_555
H33 C28 1_555 1_555
C29 N7 1_555 1_555
C30 N8 1_555 1_555
C31 C30 1_555 1_555
H34 C31 1_555 1_555
H35 C31 1_555 1_555
C32 C31 1_555 1_555
H36 C32 1_555 1_555
H37 C32 1_555 1_555
C33 C32 1_555 1_555
H38 C33 1_555 1_555
H39 C33 1_555 1_555
C34 C33 1_555 1_555
H40 C34 1_555 1_555
H41 C34 1_555 1_555
C35 N9 1_555 1_555
C36 N9 1_555 1_555
C37 C36 1_555 1_555
H42 C37 1_555 1_555
C38 C37 1_555 1_555
H43 C38 1_555 1_555
C39 C38 1_555 1_555
H44 C39 1_555 1_555
C40 N10 1_555 1_555
H45 C40 1_555 1_555
Ag1B Ag1 1_555 1_555
Ag1D N10D 1_555 1_555
Ag2D N7 1_555 1_555
Ag2B O7B 1_555 1_555
S1B O6B 1_555 1_555
O1B C6B 1_555 1_555
O2B C11B 1_555 1_555
O3B C22B 1_555 1_555
O4D C30D 1_555 1_555
O5D C35D 1_555 1_555
O6B Ag1B 1_555 1_555
O7B S1B 1_555 1_555
O7D Ag2D 1_555 1_555
O8B S1B 1_555 1_555
O9B S1B 1_555 1_555
N1B Ag1B 1_555 1_555
N2B H1B 1_555 1_555
N3B H2B 1_555 1_555
N4B Ag2B 1_555 1_555
N4D Ag2D 1_555 1_555
N5B Ag2B 1_555 1_555
N5D Ag2D 1_555 1_555
N6B H3B 1_555 1_555
N7D Ag2 1_555 1_555
N8D H4D 1_555 1_555
N9D H5D 1_555 1_555
N10D C36D 1_555 1_555
N10B Ag1B 1_555 1_555
C1B N1B 1_555 1_555
H6B C1B 1_555 1_555
C2B C1B 1_555 1_555
H7B C2B 1_555 1_555
C3B C2B 1_555 1_555
H8B C3B 1_555 1_555
C4B C3B 1_555 1_555
H9B C4B 1_555 1_555
C5B N1B 1_555 1_555
C6B N2B 1_555 1_555
C7B C6B 1_555 1_555
H10B C7B 1_555 1_555
H11B C7B 1_555 1_555
C8B C7B 1_555 1_555
H12B C8B 1_555 1_555
H13B C8B 1_555 1_555
C9B C8B 1_555 1_555
H14B C9B 1_555 1_555
H15B C9B 1_555 1_555
C10B C9B 1_555 1_555
H16B C10B 1_555 1_555
H17B C10B 1_555 1_555
C11B N3B 1_555 1_555
C12B N3B 1_555 1_555
C13B C12B 1_555 1_555
H18B C13B 1_555 1_555
C14B C13B 1_555 1_555
H19B C14B 1_555 1_555
C15B C14B 1_555 1_555
H20B C15B 1_555 1_555
C16B N4B 1_555 1_555
H21B C16B 1_555 1_555
C17B N5B 1_555 1_555
H22B C17B 1_555 1_555
C18B C17B 1_555 1_555
H23B C18B 1_555 1_555
C19B C18B 1_555 1_555
H24B C19B 1_555 1_555
C20B C19B 1_555 1_555
H25B C20B 1_555 1_555
C21B N5B 1_555 1_555
C22B N6B 1_555 1_555
C23B C22B 1_555 1_555
H26B C23B 1_555 1_555
H27B C23B 1_555 1_555
C24B C24 1_555 1_555
H28B C24B 1_555 1_555
H29B C24B 1_555 1_555
C25D N7D 1_555 1_555
H30D C25D 1_555 1_555
C26D C25D 1_555 1_555
H31D C26D 1_555 1_555
C27D C26D 1_555 1_555
H32D C27D 1_555 1_555
C28D C27D 1_555 1_555
H33D C28D 1_555 1_555
C29D N7D 1_555 1_555
C30D N8D 1_555 1_555
C31D C30D 1_555 1_555
H34D C31D 1_555 1_555
H35D C31D 1_555 1_555
C32D C31D 1_555 1_555
H36D C32D 1_555 1_555
H37D C32D 1_555 1_555
C33D C32D 1_555 1_555
H38D C33D 1_555 1_555
H39D C33D 1_555 1_555
C34D C33D 1_555 1_555
H40D C34D 1_555 1_555
H41D C34D 1_555 1_555
C35D N9D 1_555 1_555
C36D N9D 1_555 1_555
C37D C36D 1_555 1_555
H42D C37D 1_555 1_555
C38D C37D 1_555 1_555
H43D C38D 1_555 1_555
C39D C38D 1_555 1_555
H44D C39D 1_555 1_555
C40D N10D 1_555 1_555
H45D C40D 1_555 1_555
N2 C5 1_555 1_555
N4 C12 1_555 1_555
N6 C21 1_555 1_555
N8 C29 1_555 1_555
N10 C36 1_555 1_555
C4 C5 1_555 1_555
C10 C11 1_555 1_555
C15 C16 1_555 1_555
C20 C21 1_555 1_555
C28 C29 1_555 1_555
C34 C35 1_555 1_555
C39 C40 1_555 1_555
N2B C5B 1_555 1_555
N4B C12B 1_555 1_555
N6B C21B 1_555 1_555
N8D C29D 1_555 1_555
C4B C5B 1_555 1_555
C10B C11B 1_555 1_555
C15B C16B 1_555 1_555
C20B C21B 1_555 1_555
C23B C24B 1_555 1_555
C28D C29D 1_555 1_555
C34D C35D 1_555 1_555
C39D C40D 1_555 1_555

#END
