
#######################################################################
#
#                 Cambridge Crystallographic Data Centre
#                                CCDC 
#
#######################################################################
#
# If this CIF has been generated from an entry in the Cambridge 
# Structural Database, then it will include bibliographic, chemical, 
# crystal, experimental, refinement or atomic coordinate data resulting 
# from the CCDC's data processing and validation procedures.
#
#######################################################################

data_KIDZIH01
_symmetry_cell_setting           triclinic
_symmetry_space_group_name_H-M   'P -1'
_symmetry_Int_Tables_number      2
_space_group_name_Hall           '-P 1'
loop_
_symmetry_equiv_pos_site_id
_symmetry_equiv_pos_as_xyz
1 x,y,z
2 -x,-y,-z
_cell_length_a                   9.8724(18)
_cell_length_b                   10.2111(11)
_cell_length_c                   11.5477(12)
_cell_angle_alpha                111.007(8)
_cell_angle_beta                 93.701(12)
_cell_angle_gamma                93.778(10)
_cell_volume                     1079.5
loop_
_atom_site_label
_atom_site_type_symbol
_atom_site_fract_x
_atom_site_fract_y
_atom_site_fract_z
Ag1 Ag 0.24390 0.50484 0.50382
O1 O 0.6294 0.3632 0.2272
N1 N 0.3804 0.3488 0.4861
N2 N 0.4184 0.3438 0.2902
H1 H 0.3256 0.3481 0.2698
C1 C 0.4035 0.3005 0.5814
H2 H 0.3516 0.3315 0.6484
C2 C 0.4975 0.2110 0.5838
H3 H 0.5110 0.1824 0.6512
C3 C 0.5730 0.1630 0.4818
H4 H 0.6406 0.1044 0.4821
C4 C 0.5498 0.2023 0.3817
H5 H 0.5970 0.1672 0.3117
C5 C 0.4542 0.2954 0.3884
C6 C 0.5070 0.3752 0.2161
C7 C 0.4400 0.4250 0.1216
H6 H 0.3890 0.5032 0.1646
H7 H 0.3753 0.3496 0.0664
C8 C 0.5369 0.4708 0.0434
H8 H 0.6054 0.5428 0.0981
H9 H 0.5832 0.3912 -0.0050
O2 O -0.1360 0.6168 0.7600
N3 N 0.1072 0.6632 0.5216
N4 N 0.0765 0.6720 0.7210
H10 H 0.1666 0.6681 0.7429
C9 C 0.0815 0.7074 0.4266
H11 H 0.1300 0.6744 0.3572
C10 C -0.0130 0.7995 0.4282
H12 H -0.0300 0.8268 0.3606
C11 C -0.0813 0.8502 0.5306
H13 H -0.1468 0.9123 0.5332
C12 C -0.0548 0.8086 0.6314
H14 H -0.1012 0.8426 0.7024
C13 C 0.0420 0.7154 0.6220
C14 C -0.0164 0.6288 0.7876
C15 C 0.0504 0.6010 0.8965
H15 H 0.1326 0.5592 0.8724
H16 H 0.0742 0.6884 0.9634
C16 C -0.0336 0.5105 0.9436
H17 H -0.0546 0.4198 0.8775
H18 H -0.1186 0.5504 0.9646
Ag1A Ag -0.24390 0.49516 1.49618
Ag1A_2 Ag 0.75610 0.49516 -0.50382
O1A O 0.3706 0.6368 -0.2272
N1A N 0.6196 0.6512 -0.4861
N1A_2 N -0.3804 0.6512 1.5139
N2A N 0.5816 0.6562 -0.2902
H1A H 0.6744 0.6519 -0.2698
C1A C 0.5965 0.6995 -0.5814
H2A H 0.6484 0.6685 -0.6484
C2A C 0.5025 0.7890 -0.5838
H3A H 0.4890 0.8176 -0.6512
C3A C 0.4270 0.8370 -0.4818
H4A H 0.3594 0.8956 -0.4821
C4A C 0.4502 0.7977 -0.3817
H5A H 0.4030 0.8328 -0.3117
C5A C 0.5458 0.7046 -0.3884
C6A C 0.4930 0.6248 -0.2161
C7A C 0.5600 0.5750 -0.1216
H6A H 0.6110 0.4968 -0.1646
H7A H 0.6247 0.6504 -0.0664
C8A C 0.4631 0.5292 -0.0434
H8A H 0.3946 0.4572 -0.0981
H9A H 0.4168 0.6088 0.0050
O2A O 0.1360 0.3832 1.2400
N3A N -0.1072 0.3368 1.4784
N4A N -0.0765 0.3280 1.2790
H10A H -0.1666 0.3319 1.2571
C9A C -0.0815 0.2926 1.5734
H11A H -0.1300 0.3256 1.6428
C10A C 0.0130 0.2005 1.5718
H12A H 0.0300 0.1732 1.6394
C11A C 0.0813 0.1498 1.4694
H13A H 0.1468 0.0877 1.4668
C12A C 0.0548 0.1914 1.3686
H14A H 0.1012 0.1574 1.2976
C13A C -0.0420 0.2846 1.3780
C14A C 0.0164 0.3712 1.2124
C15A C -0.0504 0.3990 1.1035
H15A H -0.1326 0.4408 1.1276
H16A H -0.0742 0.3116 1.0366
C16A C 0.0336 0.4895 1.0564
H17A H 0.0546 0.5802 1.1225
H18A H 0.1186 0.4496 1.0354
N5 N 0.2520 -0.1266 0.2486
C17 C 0.2855 -0.0980 0.1742
C18 C 0.3330 -0.0510 0.0837
H19 H 0.3173 -0.1201 0.0102
H20 H 0.4254 -0.0218 0.0968
H21 H 0.2884 0.0218 0.0830
B1 B 0.7520 -0.1033 0.1883
F1 F 0.8478 -0.1420 0.1221
F2 F 0.7718 0.0098 0.2309
F3 F 0.6248 -0.1324 0.1411
F4 F 0.7638 -0.1486 0.2592
O3 O 1.00000 0.00000 0.00000
loop_
_geom_bond_atom_site_label_1
_geom_bond_atom_site_label_2
_geom_bond_site_symmetry_1
_geom_bond_site_symmetry_2
Ag1 N1 1_555 1_555
O1 C6 1_555 1_555
N1 C1 1_555 1_555
N2 H1 1_555 1_555
C1 H2 1_555 1_555
C2 C1 1_555 1_555
H3 C2 1_555 1_555
C3 C2 1_555 1_555
H4 C3 1_555 1_555
C4 C3 1_555 1_555
H5 C4 1_555 1_555
C5 N1 1_555 1_555
C6 N2 1_555 1_555
C7 C6 1_555 1_555
H6 C7 1_555 1_555
H7 C7 1_555 1_555
C8 C7 1_555 1_555
H8 C8 1_555 1_555
H9 C8 1_555 1_555
O2 C14 1_555 1_555
N3 Ag1 1_555 1_555
N4 H10 1_555 1_555
C9 N3 1_555 1_555
H11 C9 1_555 1_555
C10 C9 1_555 1_555
H12 C10 1_555 1_555
C11 C10 1_555 1_555
H13 C11 1_555 1_555
C12 C11 1_555 1_555
H14 C12 1_555 1_555
C13 N3 1_555 1_555
C14 N4 1_555 1_555
C15 C14 1_555 1_555
H15 C15 1_555 1_555
H16 C15 1_555 1_555
C16 C15 1_555 1_555
H17 C16 1_555 1_555
H18 C16 1_555 1_555
N5 C17 1_555 1_555
C17 C18 1_555 1_555
C18 H19 1_555 1_555
H20 C18 1_555 1_555
H21 C18 1_555 1_555
B1 F1 1_555 1_555
F2 B1 1_555 1_555
F3 B1 1_555 1_555
F4 B1 1_555 1_555
Ag1A N1A_2 1_555 1_555
Ag1A_2 N1A 1_555 1_555
O1A C6A 1_555 1_555
N1A C1A 1_555 1_555
N2A H1A 1_555 1_555
C1A H2A 1_555 1_555
C2A C1A 1_555 1_555
H3A C2A 1_555 1_555
C3A C2A 1_555 1_555
H4A C3A 1_555 1_555
C4A C3A 1_555 1_555
H5A C4A 1_555 1_555
C5A N1A 1_555 1_555
C6A N2A 1_555 1_555
C7A C6A 1_555 1_555
H6A C7A 1_555 1_555
H7A C7A 1_555 1_555
C8A C8 1_555 1_555
H8A C8A 1_555 1_555
H9A C8A 1_555 1_555
O2A C14A 1_555 1_555
N3A Ag1A 1_555 1_555
N4A H10A 1_555 1_555
C9A N3A 1_555 1_555
H11A C9A 1_555 1_555
C10A C9A 1_555 1_555
H12A C10A 1_555 1_555
C11A C10A 1_555 1_555
H13A C11A 1_555 1_555
C12A C11A 1_555 1_555
H14A C12A 1_555 1_555
C13A N3A 1_555 1_555
C14A N4A 1_555 1_555
C15A C14A 1_555 1_555
H15A C15A 1_555 1_555
H16A C15A 1_555 1_555
C16A C16 1_555 1_555
H17A C16A 1_555 1_555
H18A C16A 1_555 1_555
N2 C5 1_555 1_555
C4 C5 1_555 1_555
N4 C13 1_555 1_555
C12 C13 1_555 1_555
N2A C5A 1_555 1_555
C4A C5A 1_555 1_555
C7A C8A 1_555 1_555
N4A C13A 1_555 1_555
C12A C13A 1_555 1_555
C15A C16A 1_555 1_555

#END
