
#######################################################################
#
#                 Cambridge Crystallographic Data Centre
#                                CCDC 
#
#######################################################################
#
# If this CIF has been generated from an entry in the Cambridge 
# Structural Database, then it will include bibliographic, chemical, 
# crystal, experimental, refinement or atomic coordinate data resulting 
# from the CCDC's data processing and validation procedures.
#
#######################################################################

data_KIDZED
_symmetry_cell_setting           triclinic
_symmetry_space_group_name_H-M   'P -1'
_symmetry_Int_Tables_number      2
_space_group_name_Hall           '-P 1'
loop_
_symmetry_equiv_pos_site_id
_symmetry_equiv_pos_as_xyz
1 x,y,z
2 -x,-y,-z
_cell_length_a                   4.9284(8)
_cell_length_b                   10.5139(19)
_cell_length_c                   11.6977(17)
_cell_angle_alpha                110.359(10)
_cell_angle_beta                 92.989(11)
_cell_angle_gamma                93.981(13)
_cell_volume                     565.011
loop_
_atom_site_label
_atom_site_type_symbol
_atom_site_fract_x
_atom_site_fract_y
_atom_site_fract_z
Ag1 Ag 0.0000 0.5000 0.5000
O1 O 0.7657(8) 0.3860(5) 0.2377(4)
N1 N 0.2665(9) 0.3439(5) 0.4787(5)
N2 N 0.3397(10) 0.3467(6) 0.2859(5)
H1 H 0.166(14) 0.361(6) 0.271(6)
C1 C 0.3086(14) 0.2946(7) 0.5694(6)
H2 H 0.2068 0.3245 0.6369
C2 C 0.4907(15) 0.2040(8) 0.5673(7)
H3 H 0.5149 0.1727 0.6319
C3 C 0.6397(14) 0.1593(7) 0.4672(8)
H4 H 0.7693 0.0981 0.4640
C4 C 0.5961(13) 0.2056(7) 0.3710(7)
H5 H 0.6931 0.1750 0.3019
C5 C 0.4066(11) 0.2977(6) 0.3799(5)
C6 C 0.5230(11) 0.3859(7) 0.2185(5)
C7 C 0.3935(13) 0.4343(10) 0.1242(7)
H6 H 0.2622 0.3616 0.0721
H7 H 0.2919 0.5103 0.1664
C8 C 0.5672(12) 0.4762(8) 0.0467(6)
H8 H 0.6690 0.4003 0.0043
H9 H 0.6983 0.5493 0.0985
Ag1_2 Ag 1.0000 0.5000 -0.5000
O1A O 0.2343(8) 0.6140(5) -0.2377(4)
N1A N 0.7335(9) 0.6561(5) -0.4787(5)
N1A_2 N -0.2665(9) 0.6561(5) 0.5213(5)
N2A N 0.6603(10) 0.6533(6) -0.2859(5)
H1A H 0.834(14) 0.639(6) -0.271(6)
C1A C 0.6914(14) 0.7054(7) -0.5694(6)
H2A H 0.7932 0.6755 -0.6369
C2A C 0.5093(15) 0.7960(8) -0.5673(7)
H3A H 0.4851 0.8273 -0.6319
C3A C 0.3603(14) 0.8407(7) -0.4672(8)
H4A H 0.2307 0.9019 -0.4640
C4A C 0.4039(13) 0.7944(7) -0.3710(7)
H5A H 0.3069 0.8250 -0.3019
C5A C 0.5934(11) 0.7023(6) -0.3799(5)
C6A C 0.4770(11) 0.6141(7) -0.2185(5)
C7A C 0.6065(13) 0.5657(10) -0.1242(7)
H6A H 0.7378 0.6384 -0.0721
H7A H 0.7081 0.4897 -0.1664
C8A C 0.4328(12) 0.5238(8) -0.0467(6)
H8A H 0.3310 0.5997 -0.0043
H9A H 0.3017 0.4507 -0.0985
P1 P 0.0424(7) 0.8919(4) 0.1730(4)
F1 F 0.0581(17) 0.9417(10) 0.3081(8)
F2 F 0.038(2) 0.7584(13) 0.1878(13)
F3 F 0.044(3) 1.0293(12) 0.1618(11)
F4 F 0.026(3) 0.8445(14) 0.0350(10)
F5 F 0.341(3) 0.9041(14) 0.1729(13)
F6 F -0.262(3) 0.8775(16) 0.1742(15)
loop_
_geom_bond_atom_site_label_1
_geom_bond_atom_site_label_2
_geom_bond_site_symmetry_1
_geom_bond_site_symmetry_2
Ag1 N1 1_555 1_555
O1 C6 1_555 1_555
N1 C1 1_555 1_555
N2 H1 1_555 1_555
C1 H2 1_555 1_555
C2 C1 1_555 1_555
H3 C2 1_555 1_555
C3 C2 1_555 1_555
H4 C3 1_555 1_555
C4 C3 1_555 1_555
H5 C4 1_555 1_555
C5 N1 1_555 1_555
C6 N2 1_555 1_555
C7 C6 1_555 1_555
H6 C7 1_555 1_555
H7 C7 1_555 1_555
C8 C7 1_555 1_555
H8 C8 1_555 1_555
H9 C8 1_555 1_555
P1 F1 1_555 1_555
F2 P1 1_555 1_555
F3 P1 1_555 1_555
F4 P1 1_555 1_555
F5 P1 1_555 1_555
F6 P1 1_555 1_555
Ag1_2 N1A 1_555 1_555
O1A C6A 1_555 1_555
N1A C1A 1_555 1_555
N1A_2 Ag1 1_555 1_555
N2A H1A 1_555 1_555
C1A H2A 1_555 1_555
C2A C1A 1_555 1_555
H3A C2A 1_555 1_555
C3A C2A 1_555 1_555
H4A C3A 1_555 1_555
C4A C3A 1_555 1_555
H5A C4A 1_555 1_555
C5A N1A 1_555 1_555
C6A N2A 1_555 1_555
C7A C6A 1_555 1_555
H6A C7A 1_555 1_555
H7A C7A 1_555 1_555
C8A C8 1_555 1_555
H8A C8A 1_555 1_555
H9A C8A 1_555 1_555
N2 C5 1_555 1_555
C4 C5 1_555 1_555
N2A C5A 1_555 1_555
C4A C5A 1_555 1_555
C7A C8A 1_555 1_555

#END
