
#######################################################################
#
#                 Cambridge Crystallographic Data Centre
#                                CCDC 
#
#######################################################################
#
# If this CIF has been generated from an entry in the Cambridge 
# Structural Database, then it will include bibliographic, chemical, 
# crystal, experimental, refinement or atomic coordinate data resulting 
# from the CCDC's data processing and validation procedures.
#
#######################################################################

data_KIDZIH
_symmetry_cell_setting           triclinic
_symmetry_space_group_name_H-M   'P 1'
_symmetry_Int_Tables_number      1
_space_group_name_Hall           'P 1'
loop_
_symmetry_equiv_pos_site_id
_symmetry_equiv_pos_as_xyz
1 x,y,z
_cell_length_a                   9.8724(18)
_cell_length_b                   10.2111(11)
_cell_length_c                   11.5477(12)
_cell_angle_alpha                111.007(8)
_cell_angle_beta                 93.701(12)
_cell_angle_gamma                93.778(10)
_cell_volume                     1079.5
loop_
_atom_site_label
_atom_site_type_symbol
_atom_site_fract_x
_atom_site_fract_y
_atom_site_fract_z
Ag1 Ag -0.49675(8) -0.23742(8) 1.03391(7)
Ag2 Ag 0.01545(8) -0.24709(8) 0.02628(7)
O1 O -0.1150(14) -0.3798(17) 0.7557(14)
O2 O -0.3739(13) -0.1062(15) 0.3012(14)
O3 O 0.3919(13) -0.3629(17) -0.2307(14)
O4 O 0.1198(14) -0.1294(17) -0.7107(14)
N1 N -0.3560(14) -0.3954(15) 1.0152(15)
N2 N -0.3237(15) -0.4035(16) 0.8219(14)
H1 H -0.4199 -0.3973 0.8038
N3 N -0.1605(15) -0.0912(17) 0.2416(13)
H2 H -0.0711 -0.0935 0.2641
N4 N -0.1169(14) -0.0929(16) 0.0430(15)
N5 N 0.1522(17) -0.4031(17) 0.0081(14)
N6 N 0.1804(12) -0.4204(16) -0.1881(14)
H3 H 0.0834 -0.4064 -0.1950
N7 N 0.3334(15) -0.0763(17) -0.7460(14)
H4 H 0.4165 -0.0702 -0.7092
N8 N 0.3667(16) -0.0768(16) -0.9488(15)
C1 C -0.3420(17) -0.4390(17) 1.1110(14)
H5 H -0.3980 -0.4081 1.1753
C2 C -0.245(2) -0.530(2) 1.116(2)
H6 H -0.2296 -0.5588 1.1826
C3 C -0.171(2) -0.574(2) 1.007(2)
H7 H -0.1005 -0.6291 1.0083
C4 C -0.1922(19) -0.545(2) 0.907(2)
H8 H -0.1493 -0.5858 0.8348
C5 C -0.2807(19) -0.452(2) 0.9186(16)
C6 C -0.2390(15) -0.3716(17) 0.7462(15)
C7 C -0.3062(18) -0.3120(19) 0.6532(15)
H9 H -0.3523 -0.2308 0.6992
H10 H -0.3746 -0.3828 0.5973
C8 C -0.2013(19) -0.267(2) 0.5731(16)
H11 H -0.1325 -0.1953 0.6281
H12 H -0.1559 -0.3473 0.5252
C9 C -0.2751(16) -0.2087(19) 0.4863(16)
H13 H -0.3434 -0.2809 0.4319
H14 H -0.3222 -0.1298 0.5352
C10 C -0.1861(17) -0.162(2) 0.4099(17)
H15 H -0.1252 -0.0821 0.4645
H16 H -0.1302 -0.2372 0.3701
C11 C -0.2531(19) -0.122(2) 0.3140(15)
C12 C -0.1892(16) -0.0428(15) 0.1419(16)
C13 C -0.2919(19) 0.0504(17) 0.1436(17)
H17 H -0.3434 0.0797 0.2114
C14 C -0.317(2) 0.100(2) 0.0434(18)
H18 H -0.3817 0.1622 0.0441
C15 C -0.240(2) 0.048(2) -0.0517(16)
H19 H -0.2516 0.0763 -0.1197
C16 C -0.149(2) -0.040(2) -0.0517(19)
H20 H -0.1011 -0.0711 -0.1216
C17 C 0.175(2) -0.447(2) 0.1048(17)
H21 H 0.1272 -0.4140 0.1745
C18 C 0.275(2) -0.547(2) 0.099(2)
H22 H 0.2943 -0.5786 0.1635
C19 C 0.338(2) -0.5904(19) -0.0081(19)
H23 H 0.4055 -0.6510 -0.0108
C20 C 0.3167(15) -0.5573(17) -0.1100(18)
H24 H 0.3614 -0.5932 -0.1817
C21 C 0.2194(16) -0.4629(18) -0.0941(17)
C22 C 0.2657(13) -0.3776(17) -0.2580(14)
C23 C 0.1967(17) -0.333(2) -0.3606(16)
H25 H 0.1244 -0.2745 -0.3263
H26 H 0.1552 -0.4162 -0.4282
C24 C 0.2996(18) -0.2470(18) -0.4155(14)
H27 H 0.3299 -0.1559 -0.3517
H28 H 0.3791 -0.2981 -0.4387
C25 C 0.2323(15) -0.226(2) -0.5282(16)
H29 H 0.2207 -0.3163 -0.5967
H30 H 0.1420 -0.1973 -0.5096
C26 C 0.2974(17) -0.131(2) -0.5676(17)
H31 H 0.3897 -0.1561 -0.5815
H32 H 0.3035 -0.0393 -0.5014
C27 C 0.233(2) -0.120(2) -0.6827(19)
C28 C 0.3034(18) -0.0320(18) -0.8500(17)
C29 C 0.207(2) 0.060(2) -0.8471(18)
H33 H 0.1591 0.0921 -0.7769
C30 C 0.1754(19) 0.110(2) -0.947(2)
H34 H 0.1119 0.1736 -0.9445
C31 C 0.249(2) 0.052(2) -1.0445(14)
H35 H 0.2342 0.0749 -1.1152
C32 C 0.338(2) -0.0321(18) -1.0419(18)
H36 H 0.3871 -0.0651 -1.1111
Ag1_2 Ag 0.50325(8) -0.23742(8) -0.96609(7)
N8_2 N -0.6333(16) -0.0768(16) 1.0512(15)
N9 N -0.495(2) -0.8601(19) 0.7923(18)
C33 C -0.417(3) -0.782(2) 0.623(2)
H37 H -0.4575 -0.8312 0.5397
H38 H -0.3194 -0.7776 0.6242
H39 H -0.4443 -0.6877 0.6532
C34 C -0.462(3) -0.856(2) 0.7043(17)
N10 N 0.001(2) 0.393(3) 0.295(2)
C35 C -0.083(2) 0.320(2) 0.4556(15)
H40 H -0.1703 0.2661 0.4306
H41 H -0.0917 0.4090 0.5193
H42 H -0.0211 0.2688 0.4873
C36 C -0.033(2) 0.340(2) 0.356(2)
B1 B 0.0048(8) -0.8287(7) 0.7286(7)
F1 F 0.0987(13) -0.9178(13) 0.6721(10)
F2 F 0.0187(13) -0.7097(9) 0.7002(8)
F3 F -0.1239(10) -0.8948(12) 0.6873(12)
F4 F 0.0256(12) -0.7926(11) 0.8551(7)
B2 B -0.4993(10) 0.3779(8) 0.3520(8)
F5 F -0.5969(17) 0.3663(15) 0.4279(14)
F6 F -0.3735(13) 0.3700(15) 0.4051(15)
F7 F -0.5250(13) 0.2706(10) 0.2384(11)
F8 F -0.5019(13) 0.5047(9) 0.3368(10)
O5 O -0.741(6) 0.251(7) 0.512(5)
loop_
_geom_bond_atom_site_label_1
_geom_bond_atom_site_label_2
_geom_bond_site_symmetry_1
_geom_bond_site_symmetry_2
Ag1 N1 1_555 1_555
Ag2 N4 1_555 1_555
O1 C6 1_555 1_555
O2 C11 1_555 1_555
O3 C22 1_555 1_555
O4 C27 1_555 1_555
N1 C1 1_555 1_555
N2 H1 1_555 1_555
N3 H2 1_555 1_555
N4 C12 1_555 1_555
N5 Ag2 1_555 1_555
N6 H3 1_555 1_555
N7 H4 1_555 1_555
N8 C28 1_555 1_555
C1 H5 1_555 1_555
C2 C1 1_555 1_555
H6 C2 1_555 1_555
C3 C2 1_555 1_555
H7 C3 1_555 1_555
C4 C3 1_555 1_555
H8 C4 1_555 1_555
C5 N1 1_555 1_555
C6 N2 1_555 1_555
C7 C6 1_555 1_555
H9 C7 1_555 1_555
H10 C7 1_555 1_555
C8 C7 1_555 1_555
H11 C8 1_555 1_555
H12 C8 1_555 1_555
C9 C8 1_555 1_555
H13 C9 1_555 1_555
H14 C9 1_555 1_555
C10 C9 1_555 1_555
H15 C10 1_555 1_555
H16 C10 1_555 1_555
C11 N3 1_555 1_555
C12 N3 1_555 1_555
C13 C12 1_555 1_555
H17 C13 1_555 1_555
C14 C13 1_555 1_555
H18 C14 1_555 1_555
C15 C14 1_555 1_555
H19 C15 1_555 1_555
C16 N4 1_555 1_555
H20 C16 1_555 1_555
C17 N5 1_555 1_555
H21 C17 1_555 1_555
C18 C17 1_555 1_555
H22 C18 1_555 1_555
C19 C18 1_555 1_555
H23 C19 1_555 1_555
C20 C19 1_555 1_555
H24 C20 1_555 1_555
C21 N5 1_555 1_555
C22 N6 1_555 1_555
C23 C22 1_555 1_555
H25 C23 1_555 1_555
H26 C23 1_555 1_555
C24 C23 1_555 1_555
H27 C24 1_555 1_555
H28 C24 1_555 1_555
C25 C24 1_555 1_555
H29 C25 1_555 1_555
H30 C25 1_555 1_555
C26 C25 1_555 1_555
H31 C26 1_555 1_555
H32 C26 1_555 1_555
C27 N7 1_555 1_555
C28 N7 1_555 1_555
C29 C28 1_555 1_555
H33 C29 1_555 1_555
C30 C29 1_555 1_555
H34 C30 1_555 1_555
C31 C30 1_555 1_555
H35 C31 1_555 1_555
C32 N8 1_555 1_555
H36 C32 1_555 1_555
N9 C34 1_555 1_555
C33 H37 1_555 1_555
H38 C33 1_555 1_555
H39 C33 1_555 1_555
C34 C33 1_555 1_555
N10 C36 1_555 1_555
C35 H40 1_555 1_555
H41 C35 1_555 1_555
H42 C35 1_555 1_555
C36 C35 1_555 1_555
B1 F1 1_555 1_555
F2 B1 1_555 1_555
F3 B1 1_555 1_555
F4 B1 1_555 1_555
B2 F5 1_555 1_555
F6 B2 1_555 1_555
F7 B2 1_555 1_555
F8 B2 1_555 1_555
Ag1_2 N8 1_555 1_555
N8_2 Ag1 1_555 1_555
N2 C5 1_555 1_555
N6 C21 1_555 1_555
C4 C5 1_555 1_555
C10 C11 1_555 1_555
C15 C16 1_555 1_555
C20 C21 1_555 1_555
C26 C27 1_555 1_555
C31 C32 1_555 1_555

#END
