
#######################################################################
#
#                 Cambridge Crystallographic Data Centre
#                                CCDC 
#
#######################################################################
#
# If this CIF has been generated from an entry in the Cambridge 
# Structural Database, then it will include bibliographic, chemical, 
# crystal, experimental, refinement or atomic coordinate data resulting 
# from the CCDC's data processing and validation procedures.
#
#######################################################################

data_KIFCOR
_symmetry_cell_setting           triclinic
_symmetry_space_group_name_H-M   'P -1'
_symmetry_Int_Tables_number      2
_space_group_name_Hall           '-P 1'
loop_
_symmetry_equiv_pos_site_id
_symmetry_equiv_pos_as_xyz
1 x,y,z
2 -x,-y,-z
_cell_length_a                   7.313(2)
_cell_length_b                   9.386(2)
_cell_length_c                   17.371(5)
_cell_angle_alpha                77.53(2)
_cell_angle_beta                 79.28(2)
_cell_angle_gamma                84.95(2)
_cell_volume                     1142.47
loop_
_atom_site_label
_atom_site_type_symbol
_atom_site_fract_x
_atom_site_fract_y
_atom_site_fract_z
K1 K -0.3654(1) -0.3115(1) -0.0357(1)
C1 C -0.6027(4) -0.0082(4) -0.2555(4)
C2 C -0.6068(5) 0.0089(5) -0.3365(4)
C3 C -0.5856(7) -0.1136(6) -0.3800(4)
C4 C -0.6234(5) 0.1536(5) -0.3814(3)
C5 C -0.6366(5) 0.2694(4) -0.3408(3)
Cl1 Cl -0.6530(4) 0.4444(1) -0.4011(1)
C6 C -0.6375(4) 0.2542(4) -0.2610(3)
C7 C -0.6554(3) 0.3800(5) -0.2166(4)
C8 C -0.6174(4) 0.1099(4) -0.2180(3)
S1 S -0.5718(1) -0.1855(1) -0.1956(1)
C9 C -0.8076(4) -0.2299(4) -0.1534(3)
C10 C -0.8198(4) -0.3592(3) -0.0862(2)
O1 O -0.6815(3) -0.4209(2) -0.0611(2)
O2 O -0.9886(3) -0.3951(2) -0.0562(2)
C11 C -0.1550(4) 0.3051(3) -0.2396(3)
C12 C -0.1532(5) 0.4219(4) -0.3063(4)
C13 C -0.1622(6) 0.5798(4) -0.2960(3)
C14 C -0.1375(6) 0.3919(5) -0.3814(4)
C15 C -0.1223(5) 0.2484(4) -0.3919(4)
Cl2 Cl -0.0983(2) 0.2181(2) -0.4883(1)
C16 C -0.1241(4) 0.1317(4) -0.3275(4)
C17 C -0.1079(5) -0.0262(4) -0.3379(3)
C18 C -0.1410(4) 0.1612(4) -0.2522(4)
S2 S -0.1771(1) 0.3478(1) -0.1441(1)
C19 C -0.0949(5) 0.1816(4) -0.0851(3)
C20 C -0.2331(5) 0.0616(4) -0.0534(3)
O3 O -0.1854(3) -0.0642(2) -0.0572(2)
O4 O -0.3973(4) 0.1031(3) -0.0249(2)
H1 H -0.646(5) -0.092(4) -0.419(2)
H2 H -0.472(7) -0.169(6) -0.379(3)
H3 H -0.628(6) -0.196(5) -0.349(3)
H4 H -0.608(5) 0.170(5) -0.450(2)
H5 H -0.782(9) 0.426(8) -0.216(4)
H6 H -0.595(7) 0.372(6) -0.184(3)
H7 H -0.659(6) 0.433(5) -0.268(3)
H8 H -0.661(6) 0.101(5) -0.171(3)
H9 H -0.873(5) -0.154(4) -0.141(3)
H10 H -0.856(4) -0.241(4) -0.197(2)
H11 H -0.293(6) 0.605(5) -0.267(3)
H12 H -0.063(5) 0.588(4) -0.272(2)
H13 H -0.173(7) 0.645(6) -0.340(3)
H14 H -0.134(7) 0.450(6) -0.440(3)
H15 H -0.228(6) -0.027(6) -0.366(3)
H16 H -0.159(6) -0.087(5) -0.289(3)
H17 H -0.006(5) -0.050(4) -0.355(3)
H18 H -0.138(5) 0.090(4) -0.202(2)
H19 H 0.021(4) 0.141(3) -0.116(2)
H20 H -0.050(4) 0.208(4) -0.037(2)
H21 H -1.000 -0.500 0.000
H22 H -0.500 0.000 0.000
O1A O -0.3185(3) -0.5791(2) 0.0611(2)
O2_2 O 0.0114(3) -0.3951(2) -0.0562(2)
K1A K -0.6346(1) -0.6885(1) 0.0357(1)
O4A O -0.6027(4) -0.1031(3) 0.0249(2)
K1_2 K -1.3654(1) -0.3115(1) -0.0357(1)
O2A O -1.0114(3) -0.6049(2) 0.0562(2)
K1A_2 K -0.6346(1) 0.3115(1) 0.0357(1)
loop_
_geom_bond_atom_site_label_1
_geom_bond_atom_site_label_2
_geom_bond_site_symmetry_1
_geom_bond_site_symmetry_2
K1 S1 1_555 1_555
C1 C2 1_555 1_555
C2 C3 1_555 1_555
C3 H1 1_555 1_555
C4 C2 1_555 1_555
C5 C4 1_555 1_555
Cl1 C5 1_555 1_555
C6 C5 1_555 1_555
C7 C6 1_555 1_555
C8 C1 1_555 1_555
S1 C1 1_555 1_555
C9 S1 1_555 1_555
C10 C9 1_555 1_555
O1 K1 1_555 1_555
O2 C10 1_555 1_555
C11 C12 1_555 1_555
C12 C13 1_555 1_555
C13 H11 1_555 1_555
C14 C12 1_555 1_555
C15 C14 1_555 1_555
Cl2 C15 1_555 1_555
C16 C15 1_555 1_555
C17 C16 1_555 1_555
C18 C11 1_555 1_555
S2 C11 1_555 1_555
C19 S2 1_555 1_555
C20 C19 1_555 1_555
O3 K1 1_555 1_555
O4 C20 1_555 1_555
H2 C3 1_555 1_555
H3 C3 1_555 1_555
H4 C4 1_555 1_555
H5 C7 1_555 1_555
H6 C7 1_555 1_555
H7 C7 1_555 1_555
H8 C8 1_555 1_555
H9 C9 1_555 1_555
H10 C9 1_555 1_555
H12 C13 1_555 1_555
H13 C13 1_555 1_555
H14 C14 1_555 1_555
H15 C17 1_555 1_555
H16 C17 1_555 1_555
H17 C17 1_555 1_555
H18 C18 1_555 1_555
H19 C19 1_555 1_555
H20 C19 1_555 1_555
H21 O2 1_555 1_555
H22 O4 1_555 1_555
O1A K1 1_555 1_555
O2_2 K1 1_555 1_555
K1A O1 1_555 1_555
O4A K1 1_555 1_555
K1_2 O2 1_555 1_555
O2A H21 1_555 1_555
K1A_2 O4 1_555 1_555
C6 C8 1_555 1_555
C10 O1 1_555 1_555
C16 C18 1_555 1_555
C20 O3 1_555 1_555
H22 O4A 1_555 1_555
O1A K1A 1_555 1_555
K1A O2A 1_555 1_555

#END
