
#######################################################################
#
#                 Cambridge Crystallographic Data Centre
#                                CCDC 
#
#######################################################################
#
# If this CIF has been generated from an entry in the Cambridge 
# Structural Database, then it will include bibliographic, chemical, 
# crystal, experimental, refinement or atomic coordinate data resulting 
# from the CCDC's data processing and validation procedures.
#
#######################################################################

data_KIFCIL
_symmetry_cell_setting           orthorhombic
_symmetry_space_group_name_H-M   'P 21 21 21'
_symmetry_Int_Tables_number      19
_space_group_name_Hall           'P 2ac 2ab'
loop_
_symmetry_equiv_pos_site_id
_symmetry_equiv_pos_as_xyz
1 x,y,z
2 1/2+x,1/2-y,-z
3 -x,1/2+y,1/2-z
4 1/2-x,-y,1/2+z
_cell_length_a                   5.077(1)
_cell_length_b                   13.229(1)
_cell_length_c                   37.602(2)
_cell_angle_alpha                90
_cell_angle_beta                 90
_cell_angle_gamma                90
_cell_volume                     2525.49
loop_
_atom_site_label
_atom_site_type_symbol
_atom_site_fract_x
_atom_site_fract_y
_atom_site_fract_z
Cu1 Cu -0.2283(5) 0.2778(1) 0.6093(1)
O1 O 0.102(2) 0.2669(8) 0.6405(3)
O2 O 0.460(2) 0.3576(8) 0.6545(3)
O3 O -0.493(2) 0.2848(9) 0.5742(3)
S1 S -0.107(1) 0.7041(4) 0.6683(2)
N1 N -0.069(3) 0.4034(9) 0.5959(4)
Cu2 Cu 0.2659(6) 0.1334(1) 0.6566(1)
O4 O -0.410(3) 0.1550(7) 0.6282(3)
O5 O -0.055(3) 0.0771(9) 0.6045(3)
O6 O -1.007(3) 0.1063(9) 0.6896(3)
N2 N -0.596(3) -0.005(1) 0.6574(4)
S2 S -0.791(2) -0.22456(4) 0.5632(1)
O7 O 0.536(4) 0.210(1) 0.7033(4)
C1 C 0.245(5) 0.347(1) 0.6385(5)
C2 C 0.138(4) 0.439(1) 0.6200(5)
C3 C 0.025(4) 0.509(1) 0.6497(5)
C4 C -0.099(5) 0.604(1) 0.6349(5)
C5 C -0.307(5) 0.652(2) 0.7028(6)
C6 C -0.124(4) 0.452(1) 0.5660(5)
C7 C -0.311(4) 0.425(1) 0.5406(5)
C8 C -0.336(4) 0.486(1) 0.5100(5)
C9 C -0.518(5) 0.468(2) 0.4849(5)
C10 C -0.700(4) 0.386(2) 0.4896(5)
C11 C -0.681(4) 0.328(1) 0.5198(4)
C12 C -0.493(4) 0.343(1) 0.5467(4)
C13 C -0.272(5) 0.075(1) 0.6198(4)
C14 C -0.399(4) -0.024(1) 0.6309(4)
C15 C -0.513(4) -0.071(1) 0.5957(4)
C16 C -0.657(4) -0.169(1) 0.6030(5)
C17 C -0.502(5) -0.254(2) 0.5376(6)
C18 C -0.635(4) -0.069(1) 0.6831(5)
C19 C -0.840(3) -0.055(1) 0.7088(5)
C20 C -0.860(4) -0.133(1) 0.7352(4)
C21 C -1.042(5) -0.137(2) 0.7604(6)
C22 C -1.225(5) -0.056(2) 0.7622(5)
C23 C -1.206(4) 0.025(2) 0.7387(5)
C24 C -1.019(4) 0.027(1) 0.7125(5)
H1 H 0.282(4) 0.481(1) 0.6047(5)
H2 H 0.185(4) 0.531(1) 0.6672(5)
H3 H -0.121(4) 0.468(1) 0.6647(5)
H4 H 0.014(5) 0.630(1) 0.6122(5)
H5 H -0.298(5) 0.587(1) 0.6265(5)
H6 H -0.371(5) 0.707(2) 0.7221(6)
H7 H -0.223(5) 0.587(2) 0.7165(6)
H8 H -0.473(5) 0.627(2) 0.6871(6)
H9 H -0.011(4) 0.520(1) 0.5606(5)
H10 H -0.204(4) 0.549(1) 0.5066(5)
H11 H -0.527(5) 0.515(2) 0.4614(5)
H12 H -0.849(4) 0.370(2) 0.4698(5)
H13 H -0.821(4) 0.268(1) 0.5232(4)
H14 H -0.263(4) -0.076(1) 0.6431(4)
H15 H -0.353(4) -0.086(1) 0.5775(4)
H16 H -0.649(4) -0.018(1) 0.5838(4)
H17 H -0.521(4) -0.221(1) 0.6150(5)
H18 H -0.817(4) -0.154(1) 0.6212(5)
H19 H -0.537(5) -0.296(2) 0.5134(6)
H20 H -0.385(5) -0.300(2) 0.5555(6)
H21 H -0.398(5) -0.185(2) 0.5316(6)
H22 H -0.509(4) -0.135(1) 0.6851(5)
H23 H -0.714(4) -0.192(1) 0.7345(4)
H24 H -1.050(5) -0.200(2) 0.7789(6)
H25 H -1.381(5) -0.057(2) 0.7818(5)
H26 H -1.342(4) 0.087(2) 0.7412(5)
O2_2 O -0.540(2) 0.3576(8) 0.6545(3)
Cu1_2 Cu 0.7717(5) 0.2778(1) 0.6093(1)
O4_2 O 0.590(3) 0.1550(7) 0.6282(3)
O6_2 O -0.007(3) 0.1063(9) 0.6896(3)
N2_2 N 0.404(3) -0.005(1) 0.6574(4)
Cu2_2 Cu -0.7341(6) 0.1334(1) 0.6566(1)
loop_
_geom_bond_atom_site_label_1
_geom_bond_atom_site_label_2
_geom_bond_site_symmetry_1
_geom_bond_site_symmetry_2
Cu1 O1 1_555 1_555
O1 Cu2 1_555 1_555
O2 C1 1_555 1_555
O3 Cu1 1_555 1_555
S1 C4 1_555 1_555
N1 Cu1 1_555 1_555
Cu2 O5 1_555 1_555
O4 Cu1 1_555 1_555
O5 C13 1_555 1_555
O6 C24 1_555 1_555
N2 C14 1_555 1_555
S2 C16 1_555 1_555
O7 Cu2 1_555 1_555
C1 O1 1_555 1_555
C2 N1 1_555 1_555
C3 C2 1_555 1_555
C4 C3 1_555 1_555
C5 S1 1_555 1_555
C6 N1 1_555 1_555
C7 C6 1_555 1_555
C8 C7 1_555 1_555
C9 C8 1_555 1_555
C10 C9 1_555 1_555
C11 C10 1_555 1_555
C12 O3 1_555 1_555
C13 O4 1_555 1_555
C14 C13 1_555 1_555
C15 C14 1_555 1_555
C16 C15 1_555 1_555
C17 S2 1_555 1_555
C18 N2 1_555 1_555
C19 C18 1_555 1_555
C20 C19 1_555 1_555
C21 C20 1_555 1_555
C22 C21 1_555 1_555
C23 C22 1_555 1_555
C24 C19 1_555 1_555
H1 C2 1_555 1_555
H2 C3 1_555 1_555
H3 C3 1_555 1_555
H4 C4 1_555 1_555
H5 C4 1_555 1_555
H6 C5 1_555 1_555
H7 C5 1_555 1_555
H8 C5 1_555 1_555
H9 C6 1_555 1_555
H10 C8 1_555 1_555
H11 C9 1_555 1_555
H12 C10 1_555 1_555
H13 C11 1_555 1_555
H14 C14 1_555 1_555
H15 C15 1_555 1_555
H16 C15 1_555 1_555
H17 C16 1_555 1_555
H18 C16 1_555 1_555
H19 C17 1_555 1_555
H20 C17 1_555 1_555
H21 C17 1_555 1_555
H22 C18 1_555 1_555
H23 C20 1_555 1_555
H24 C21 1_555 1_555
H25 C22 1_555 1_555
H26 C23 1_555 1_555
O2_2 Cu1 1_555 1_555
Cu1_2 O2 1_555 1_555
O4_2 Cu2 1_555 1_555
O6_2 Cu2 1_555 1_555
N2_2 Cu2 1_555 1_555
Cu2_2 O4 1_555 1_555
O6 Cu2_2 1_555 1_555
N2 Cu2_2 1_555 1_555
C1 C2 1_555 1_555
C7 C12 1_555 1_555
C11 C12 1_555 1_555
C23 C24 1_555 1_555
Cu1_2 O4_2 1_555 1_555

#END
