
#######################################################################
#
#                 Cambridge Crystallographic Data Centre
#                                CCDC 
#
#######################################################################
#
# If this CIF has been generated from an entry in the Cambridge 
# Structural Database, then it will include bibliographic, chemical, 
# crystal, experimental, refinement or atomic coordinate data resulting 
# from the CCDC's data processing and validation procedures.
#
#######################################################################

data_KIFGEN
_symmetry_cell_setting           monoclinic
_symmetry_space_group_name_H-M   'P 21/c'
_symmetry_Int_Tables_number      14
_space_group_name_Hall           '-P 2ybc'
loop_
_symmetry_equiv_pos_site_id
_symmetry_equiv_pos_as_xyz
1 x,y,z
2 -x,1/2+y,1/2-z
3 -x,-y,-z
4 x,1/2-y,1/2+z
_cell_length_a                   7.7920(11)
_cell_length_b                   14.6100(15)
_cell_length_c                   23.429(3)
_cell_angle_alpha                90
_cell_angle_beta                 91.482(10)
_cell_angle_gamma                90
_cell_volume                     2666.29
loop_
_atom_site_label
_atom_site_type_symbol
_atom_site_fract_x
_atom_site_fract_y
_atom_site_fract_z
Pb1 Pb -0.05047(9) 0.43477(5) 0.07326(3)
Pb2 Pb 0.45356(9) 0.53490(5) 0.08093(3)
O1 O -0.3508(14) 0.3742(8) 0.0551(5)
O2 O -0.5308(16) 0.2588(9) 0.0411(5)
O3 O 0.2371(13) 0.4112(8) 0.1169(4)
O4 O 0.3966(15) 0.3467(10) 0.1880(6)
O5 O 0.7371(14) 0.5415(8) 0.1292(5)
O6 O 0.8933(16) 0.5708(10) 0.2093(6)
O7 O 0.1540(14) 0.5967(8) 0.0718(5)
O8 O -0.0211(16) 0.7186(10) 0.0715(5)
O9 O -0.4247(15) 0.0951(9) 0.0478(5)
H1 H -0.4946 0.1368 0.0442
O10 O 0.2562(16) 0.2826(11) 0.2754(5)
H2 H 0.3363 0.2966 0.2551
O11 O 0.7423(17) 0.5929(13) 0.3041(5)
H3 H 0.8225 0.5883 0.2823
O12 O 0.0872(17) 0.8780(8) 0.0855(5)
H4 H 0.0158 0.8385 0.0775
N1 N -0.0782(17) 0.2614(10) 0.0631(6)
N2 N -0.0567(16) 0.3635(10) 0.1694(5)
N3 N 0.4442(17) 0.5608(9) 0.1870(5)
N4 N 0.4297(18) 0.7075(10) 0.0946(5)
C1 C -0.387(2) 0.2894(13) 0.0505(6)
C2 C -0.236(2) 0.2249(14) 0.0563(7)
C3 C -0.267(2) 0.1304(14) 0.0547(7)
C4 C -0.124(3) 0.0747(16) 0.0613(8)
H5 H -0.1376 0.0115 0.0604
C5 C 0.039(3) 0.1126(15) 0.0692(9)
H6 H 0.1345 0.0748 0.0745
C6 C 0.058(2) 0.2042(15) 0.0692(7)
H7 H 0.1674 0.2290 0.0735
C7 C 0.254(2) 0.3683(14) 0.1650(7)
C8 C 0.092(2) 0.3458(12) 0.1951(6)
C9 C 0.107(2) 0.3043(13) 0.2486(8)
C10 C -0.051(2) 0.2887(14) 0.2761(7)
H8 H -0.0504 0.2651 0.3130
C11 C -0.201(2) 0.3077(14) 0.2494(7)
H9 H -0.3042 0.2944 0.2668
C12 C -0.202(2) 0.3475(14) 0.1951(7)
H10 H -0.3055 0.3628 0.1770
C13 C 0.754(2) 0.5599(12) 0.1838(8)
C14 C 0.587(2) 0.5693(14) 0.2150(7)
C15 C 0.594(2) 0.5847(13) 0.2746(8)
C16 C 0.446(2) 0.5909(17) 0.3019(7)
H11 H 0.4485 0.5995 0.3413
C17 C 0.291(3) 0.5848(16) 0.2730(7)
H12 H 0.1875 0.5907 0.2916
C18 C 0.296(2) 0.5690(12) 0.2137(7)
H13 H 0.1936 0.5641 0.1927
C19 C 0.125(2) 0.6828(13) 0.0764(7)
C20 C 0.274(3) 0.7440(13) 0.0877(7)
C21 C 0.241(3) 0.8392(13) 0.0933(8)
C22 C 0.383(3) 0.8942(13) 0.1048(7)
H14 H 0.3703 0.9572 0.1086
C23 C 0.545(2) 0.8545(14) 0.1108(7)
H15 H 0.6399 0.8910 0.1191
C24 C 0.564(2) 0.7651(15) 0.1046(8)
H16 H 0.6739 0.7407 0.1072
Pb1_2 Pb 0.94953(9) 0.43477(5) 0.07326(3)
Pb2_2 Pb -0.54644(9) 0.53490(5) 0.08093(3)
O1_2 O 0.6492(14) 0.3742(8) 0.0551(5)
O5_2 O -0.2629(14) 0.5415(8) 0.1292(5)
O13 O 0.2514(19) 0.3930(11) -0.0081(5)
H17 H 0.27(3) 0.358(12) -0.036(6)
H18 H 0.24(3) 0.369(14) 0.025(4)
loop_
_geom_bond_atom_site_label_1
_geom_bond_atom_site_label_2
_geom_bond_site_symmetry_1
_geom_bond_site_symmetry_2
Pb1 O1 1_555 1_555
Pb2 O3 1_555 1_555
O1 C1 1_555 1_555
O2 C1 1_555 1_555
O3 Pb1 1_555 1_555
O4 C7 1_555 1_555
O5 Pb2 1_555 1_555
O6 C13 1_555 1_555
O7 Pb1 1_555 1_555
O8 C19 1_555 1_555
O9 H1 1_555 1_555
O10 H2 1_555 1_555
O11 H3 1_555 1_555
O12 H4 1_555 1_555
N1 Pb1 1_555 1_555
N2 Pb1 1_555 1_555
N3 Pb2 1_555 1_555
N4 Pb2 1_555 1_555
C1 C2 1_555 1_555
C2 N1 1_555 1_555
C3 O9 1_555 1_555
C4 C3 1_555 1_555
H5 C4 1_555 1_555
C5 C4 1_555 1_555
H6 C5 1_555 1_555
C6 N1 1_555 1_555
H7 C6 1_555 1_555
C7 O3 1_555 1_555
C8 N2 1_555 1_555
C9 O10 1_555 1_555
C10 C9 1_555 1_555
H8 C10 1_555 1_555
C11 C10 1_555 1_555
H9 C11 1_555 1_555
C12 N2 1_555 1_555
H10 C12 1_555 1_555
C13 O5 1_555 1_555
C14 N3 1_555 1_555
C15 O11 1_555 1_555
C16 C15 1_555 1_555
H11 C16 1_555 1_555
C17 C16 1_555 1_555
H12 C17 1_555 1_555
C18 N3 1_555 1_555
H13 C18 1_555 1_555
C19 O7 1_555 1_555
C20 N4 1_555 1_555
C21 O12 1_555 1_555
C22 C21 1_555 1_555
H14 C22 1_555 1_555
C23 C22 1_555 1_555
H15 C23 1_555 1_555
C24 N4 1_555 1_555
H16 C24 1_555 1_555
O13 H17 1_555 1_555
H18 O13 1_555 1_555
Pb1_2 O5 1_555 1_555
Pb2_2 O1 1_555 1_555
O1_2 Pb2 1_555 1_555
O5_2 Pb1 1_555 1_555
Pb2 O7 1_555 1_555
C2 C3 1_555 1_555
C5 C6 1_555 1_555
C7 C8 1_555 1_555
C8 C9 1_555 1_555
C11 C12 1_555 1_555
C13 C14 1_555 1_555
C14 C15 1_555 1_555
C17 C18 1_555 1_555
C19 C20 1_555 1_555
C20 C21 1_555 1_555
C23 C24 1_555 1_555
Pb1_2 O1_2 1_555 1_555
Pb2_2 O5_2 1_555 1_555

#END
