
#######################################################################
#
#                 Cambridge Crystallographic Data Centre
#                                CCDC 
#
#######################################################################
#
# If this CIF has been generated from an entry in the Cambridge 
# Structural Database, then it will include bibliographic, chemical, 
# crystal, experimental, refinement or atomic coordinate data resulting 
# from the CCDC's data processing and validation procedures.
#
#######################################################################

data_KIFHOX
_symmetry_cell_setting           triclinic
_symmetry_space_group_name_H-M   'P -1'
_symmetry_Int_Tables_number      2
_space_group_name_Hall           '-P 1'
loop_
_symmetry_equiv_pos_site_id
_symmetry_equiv_pos_as_xyz
1 x,y,z
2 -x,-y,-z
_cell_length_a                   7.7735(2)
_cell_length_b                   8.4210(2)
_cell_length_c                   13.4553(4)
_cell_angle_alpha                91.187(1)
_cell_angle_beta                 97.692(1)
_cell_angle_gamma                117.238(1)
_cell_volume                     772.711
loop_
_atom_site_label
_atom_site_type_symbol
_atom_site_fract_x
_atom_site_fract_y
_atom_site_fract_z
Ag1 Ag 0.430933(17) 0.404463(15) 0.184302(8)
Cu1 Cu 0.39777(2) -0.06009(2) -0.331560(11)
O1 O 0.20550(14) 0.00568(13) -0.29581(7)
O2 O 0.59622(14) 0.10335(14) -0.22460(7)
O3 O 0.21669(14) 0.81621(13) 0.54560(7)
O4 O 0.60204(14) 0.89828(13) 0.62343(7)
O5 O 0.67110(18) 0.29547(18) 0.24275(10)
O6 O 0.93869(18) 0.34088(18) 0.18698(10)
O7 O 0.80572(18) 0.51470(15) 0.15274(9)
N1 N 0.35024(19) 0.2675(2) 0.03695(10)
N2 N 0.42595(19) 0.54261(18) 0.31640(9)
N3 N 0.80926(18) 0.38395(16) 0.19294(9)
C1 C 0.0166(2) 0.0479(2) -0.18445(11)
H1 H -0.0830 0.0012 -0.2452
H2 H -0.0265 -0.0343 -0.1320
H3 H 0.0354 0.1662 -0.1604
C2 C 0.20618(18) 0.06383(17) -0.20857(9)
C3 C 0.37725(19) 0.14365(17) -0.13327(9)
C4 C 0.56602(19) 0.16689(17) -0.14714(9)
C5 C 0.7398(2) 0.2692(2) -0.06654(11)
H4 H 0.8595 0.3213 -0.0969
H5 H 0.7251 0.3654 -0.0327
H6 H 0.7485 0.1879 -0.0174
C6 C 0.3609(2) 0.21161(19) -0.04005(10)
C7 C 0.0765(2) 0.6473(2) 0.38725(10)
H7 H -0.0298 0.6747 0.3975
H8 H 0.1229 0.6923 0.3243
H9 H 0.0283 0.5172 0.3835
C8 C 0.24236(18) 0.73575(17) 0.47365(9)
C9 C 0.41909(19) 0.72487(17) 0.47010(9)
C10 C 0.59134(18) 0.80859(17) 0.54468(9)
C11 C 0.7714(2) 0.79562(19) 0.52795(10)
H10 H 0.8653 0.8344 0.5908
H11 H 0.7357 0.6711 0.5063
H12 H 0.8311 0.8728 0.4758
C12 C 0.4244(2) 0.62549(18) 0.38505(10)
Cu1_2 Cu 0.39777(2) 0.93991(2) 0.668440(11)
Cu1A Cu 0.60223(2) 0.06009(2) 0.331560(11)
O3_2 O 0.21669(14) -0.18379(13) -0.45440(7)
O4_2 O 0.60204(14) -0.10172(13) -0.37657(7)
O5A O 0.32890(18) -0.29547(18) -0.24275(10)
loop_
_geom_bond_atom_site_label_1
_geom_bond_atom_site_label_2
_geom_bond_site_symmetry_1
_geom_bond_site_symmetry_2
Ag1 O5 1_555 1_555
Cu1 O1 1_555 1_555
O1 C2 1_555 1_555
O2 Cu1 1_555 1_555
O3 C8 1_555 1_555
O4 C10 1_555 1_555
O5 N3 1_555 1_555
O6 N3 1_555 1_555
O7 N3 1_555 1_555
N1 Ag1 1_555 1_555
N2 Ag1 1_555 1_555
C1 H1 1_555 1_555
H2 C1 1_555 1_555
H3 C1 1_555 1_555
C2 C1 1_555 1_555
C3 C2 1_555 1_555
C4 O2 1_555 1_555
C5 C4 1_555 1_555
H4 C5 1_555 1_555
H5 C5 1_555 1_555
H6 C5 1_555 1_555
C6 N1 1_555 1_555
C7 H7 1_555 1_555
H8 C7 1_555 1_555
H9 C7 1_555 1_555
C8 C7 1_555 1_555
C9 C8 1_555 1_555
C10 C9 1_555 1_555
C11 C10 1_555 1_555
H10 C11 1_555 1_555
H11 C11 1_555 1_555
H12 C11 1_555 1_555
C12 N2 1_555 1_555
Cu1_2 O3 1_555 1_555
Cu1A O5 1_555 1_555
O3_2 Cu1 1_555 1_555
O4_2 Cu1 1_555 1_555
O5A Cu1 1_555 1_555
O4 Cu1_2 1_555 1_555
C3 C4 1_555 1_555
C3 C6 1_555 1_555
C9 C12 1_555 1_555

#END
