
#######################################################################
#
#                 Cambridge Crystallographic Data Centre
#                                CCDC 
#
#######################################################################
#
# If this CIF has been generated from an entry in the Cambridge 
# Structural Database, then it will include bibliographic, chemical, 
# crystal, experimental, refinement or atomic coordinate data resulting 
# from the CCDC's data processing and validation procedures.
#
#######################################################################

data_KIFHAJ
_symmetry_cell_setting           orthorhombic
_symmetry_space_group_name_H-M   'P 21 21 21'
_symmetry_Int_Tables_number      19
_space_group_name_Hall           'P 2ac 2ab'
loop_
_symmetry_equiv_pos_site_id
_symmetry_equiv_pos_as_xyz
1 x,y,z
2 1/2-x,-y,1/2+z
3 -x,1/2+y,1/2-z
4 1/2+x,1/2-y,-z
_cell_length_a                   7.7083(7)
_cell_length_b                   12.2654(6)
_cell_length_c                   15.8917(13)
_cell_angle_alpha                90
_cell_angle_beta                 90
_cell_angle_gamma                90
_cell_volume                     1502.49
loop_
_atom_site_label
_atom_site_type_symbol
_atom_site_fract_x
_atom_site_fract_y
_atom_site_fract_z
N1 N 0.3969(4) 0.3296(2) 0.86395(19)
H1 H 0.3425 0.2653 0.8710
H2 H 0.4531 0.3445 0.9123
N2 N 0.7521(3) 0.3013(2) 0.67075(17)
C1 C 0.5485(5) 0.4317(2) 0.6175(2)
C2 C 0.2865(5) 0.4578(3) 0.6948(3)
H3 H 0.2206 0.4526 0.6429
H4 H 0.3027 0.5346 0.7072
C3 C 0.7150(5) 0.3711(2) 0.6074(2)
C4 C 0.1833(5) 0.4063(3) 0.7649(3)
H5 H 0.0695 0.4400 0.7663
H6 H 0.1671 0.3298 0.7519
C5 C 0.8911(5) 0.2370(3) 0.6643(2)
H7 H 0.9157 0.1886 0.7078
C6 C 0.9650(5) 0.3133(3) 0.5316(2)
H8 H 1.0374 0.3176 0.4849
C7 C 0.2623(5) 0.4149(3) 0.8512(3)
H9 H 0.3142 0.4864 0.8581
H10 H 0.1723 0.4068 0.8934
C8 C 1.0000(5) 0.2400(3) 0.5951(2)
H11 H 1.0949 0.1934 0.5915
C9 C 0.8212(5) 0.3803(3) 0.5378(2)
H12 H 0.7964 0.4307 0.4958
N3 N 0.4569(4) 0.4071(2) 0.68216(19)
Ni1 Ni 0.57927(5) 0.31051(3) 0.77092(3)
S1 S 0.73292(12) 0.48834(6) 0.82761(6)
S2 S 1.04743(14) 0.15243(9) 0.92791(7)
C10 C 0.8746(5) 0.2034(3) 0.8837(2)
N4 N 0.5438(4) 0.6689(2) 0.7691(2)
C11 C 0.6226(4) 0.5950(2) 0.7927(2)
N5 N 0.7519(4) 0.2371(2) 0.85042(19)
C12 C 0.4955(5) 0.5140(3) 0.5524(3)
H13 H 0.4273 0.5701 0.5785
H14 H 0.4281 0.4787 0.5095
H15 H 0.5972 0.5457 0.5277
Ni1B Ni 0.42073(5) 0.81051(3) 0.72908(3)
N4B N 0.4562(4) 0.1689(2) 0.7309(2)
loop_
_geom_bond_atom_site_label_1
_geom_bond_atom_site_label_2
_geom_bond_site_symmetry_1
_geom_bond_site_symmetry_2
N1 H1 1_555 1_555
H2 N1 1_555 1_555
N2 C3 1_555 1_555
C1 C3 1_555 1_555
C2 H3 1_555 1_555
H4 C2 1_555 1_555
C3 C9 1_555 1_555
C4 C2 1_555 1_555
H5 C4 1_555 1_555
H6 C4 1_555 1_555
C5 N2 1_555 1_555
H7 C5 1_555 1_555
C6 H8 1_555 1_555
C7 N1 1_555 1_555
H9 C7 1_555 1_555
H10 C7 1_555 1_555
C8 C5 1_555 1_555
H11 C8 1_555 1_555
C9 C6 1_555 1_555
H12 C9 1_555 1_555
N3 C1 1_555 1_555
Ni1 N1 1_555 1_555
S1 Ni1 1_555 1_555
S2 C10 1_555 1_555
C10 N5 1_555 1_555
N4 C11 1_555 1_555
C11 S1 1_555 1_555
N5 Ni1 1_555 1_555
C12 C1 1_555 1_555
H13 C12 1_555 1_555
H14 C12 1_555 1_555
H15 C12 1_555 1_555
Ni1B N4 1_555 1_555
N4B Ni1 1_555 1_555
N2 Ni1 1_555 1_555
C2 N3 1_555 1_555
C4 C7 1_555 1_555
C6 C8 1_555 1_555
N3 Ni1 1_555 1_555

#END
