
#######################################################################
#
#                 Cambridge Crystallographic Data Centre
#                                CCDC 
#
#######################################################################
#
# If this CIF has been generated from an entry in the Cambridge 
# Structural Database, then it will include bibliographic, chemical, 
# crystal, experimental, refinement or atomic coordinate data resulting 
# from the CCDC's data processing and validation procedures.
#
#######################################################################

data_KIFJEP
_symmetry_cell_setting           triclinic
_symmetry_space_group_name_H-M   'P -1'
_symmetry_Int_Tables_number      2
_space_group_name_Hall           '-P 1'
loop_
_symmetry_equiv_pos_site_id
_symmetry_equiv_pos_as_xyz
1 x,y,z
2 -x,-y,-z
_cell_length_a                   11.1107(5)
_cell_length_b                   11.3532(5)
_cell_length_c                   13.0922(6)
_cell_angle_alpha                99.941(1)
_cell_angle_beta                 93.406(1)
_cell_angle_gamma                96.678(1)
_cell_volume                     1610.3
loop_
_atom_site_label
_atom_site_type_symbol
_atom_site_fract_x
_atom_site_fract_y
_atom_site_fract_z
Ag1 Ag 0.95868(3) 0.80047(3) 0.29235(2)
Fe1 Fe 1.28510(4) 0.67054(4) -0.20873(4)
O1 O 1.2563(2) 0.5493(2) -0.11508(18)
N1 N 1.0770(3) 0.6673(3) 0.2001(3)
C1 C 1.1795(4) 0.4379(3) 0.0078(3)
H1 H 1.2526 0.4243 0.0475
H2 H 1.1122 0.4423 0.0529
H3 H 1.1579 0.3713 -0.0512
Fe2 Fe 1.45821(4) 1.38175(4) 0.25984(4)
O2 O 1.2325(2) 0.7871(2) -0.0941(2)
N2 N 0.9356(3) 0.7652(3) 0.4592(2)
C2 C 1.2036(3) 0.5540(3) -0.0316(3)
O3 O 1.1147(2) 0.6026(2) 0.7288(2)
N3 N 1.3983(4) 1.9002(3) 0.2819(3)
C3 C 1.1722(3) 0.6629(3) 0.0253(3)
O4 O 1.2665(2) 0.8003(2) 0.70573(19)
N4 N 1.0924(3) 0.9829(3) 0.3330(3)
C4 C 1.1929(3) 0.7768(3) -0.0078(3)
O5 O 1.4602(2) 1.4971(2) 0.16018(19)
N5 N 0.7879(3) 0.8688(3) 0.1415(3)
C5 C 1.1690(4) 0.8898(3) 0.0617(3)
H4 H 1.1881 0.9589 0.0272
H5 H 1.0832 0.8829 0.0762
H6 H 1.2201 0.9014 0.1272
O6 O 1.3904(2) 1.5096(2) 0.3570(2)
C6 C 1.1194(3) 0.6620(3) 0.1219(3)
O7 O 1.2921(2) 1.3054(2) 0.19774(19)
C7 C 0.9285(3) 0.5485(3) 0.6266(3)
H7 H 0.9231 0.4827 0.6664
H8 H 0.8606 0.5953 0.6404
H9 H 0.9249 0.5150 0.5522
O8 O 1.4304(2) 1.2792(2) 0.36986(19)
C8 C 1.0466(3) 0.6292(3) 0.6588(3)
O9 O 1.3675(2) 0.5627(2) -0.30797(18)
C9 C 1.0762(3) 0.7323(3) 0.6116(3)
O10 O 1.4569(2) 0.7342(2) -0.17152(18)
C10 C 1.1837(3) 0.8164(3) 0.6417(3)
O11 O 0.7625(3) 0.8098(3) 0.2128(2)
C11 C 1.2018(4) 0.9294(3) 0.5973(3)
H10 H 1.2852 0.9691 0.6163
H11 H 1.1874 0.9095 0.5213
H12 H 1.1445 0.9839 0.6251
O12 O 0.8961(3) 0.9038(4) 0.1348(3)
C12 C 0.9966(3) 0.7508(3) 0.5284(3)
O13 O 0.7103(3) 0.8890(3) 0.0792(3)
C13 C 1.4913(3) 1.6740(3) 0.0885(3)
H13 H 1.5770 1.7083 0.1023
H14 H 1.4411 1.7389 0.0849
H15 H 1.4801 1.6172 0.0222
C14 C 1.4542(3) 1.6094(3) 0.1741(3)
C15 C 1.4145(3) 1.6733(3) 0.2668(3)
C16 C 1.3793(3) 1.6184(3) 0.3508(3)
C17 C 1.3246(4) 1.6888(4) 0.4406(3)
H16 H 1.2431 1.7040 0.4178
H17 H 1.3761 1.7658 0.4655
H18 H 1.3189 1.6424 0.4971
C18 C 1.4052(4) 1.7985(4) 0.2737(3)
C19 C 1.1043(3) 1.1843(3) 0.1473(3)
H19 H 1.0579 1.2531 0.1515
H20 H 1.0554 1.1168 0.1690
H21 H 1.1245 1.1600 0.0755
C20 C 1.2192(3) 1.2196(3) 0.2176(3)
C21 C 1.2418(3) 1.1621(3) 0.3041(3)
C22 C 1.3462(3) 1.1978(3) 0.3775(3)
C23 C 1.3554(4) 1.1371(3) 0.4701(3)
H22 H 1.3665 1.0525 0.4471
H23 H 1.2807 1.1412 0.5060
H24 H 1.4250 1.1778 0.5176
C24 C 1.1581(3) 1.0630(3) 0.3195(3)
C25 C 1.3169(4) 0.4445(3) -0.3602(3)
H25 H 1.2297 0.4433 -0.3780
H26 H 1.3576 0.4229 -0.4239
H27 H 1.3287 0.3863 -0.3144
C26 C 1.5014(4) 0.8588(3) -0.1287(3)
H28 H 1.5306 0.8997 -0.1843
H29 H 1.4354 0.8987 -0.0972
H30 H 1.5682 0.8624 -0.0755
Fe1_2 Fe 1.28510(4) 0.67054(4) 0.79127(4)
Fe2A Fe 1.54179(4) 0.61825(4) -0.25984(4)
O3_2 O 1.1147(2) 0.6026(2) -0.2712(2)
O4_2 O 1.2665(2) 0.8003(2) -0.29427(19)
O9A O 1.6325(2) 1.4373(2) 0.30797(18)
O10A O 1.5431(2) 1.2658(2) 0.17152(18)
loop_
_geom_bond_atom_site_label_1
_geom_bond_atom_site_label_2
_geom_bond_site_symmetry_1
_geom_bond_site_symmetry_2
Ag1 N1 1_555 1_555
Fe1 O1 1_555 1_555
O1 C2 1_555 1_555
N1 C6 1_555 1_555
C1 H1 1_555 1_555
H2 C1 1_555 1_555
H3 C1 1_555 1_555
Fe2 O5 1_555 1_555
O2 Fe1 1_555 1_555
N2 Ag1 1_555 1_555
C2 C1 1_555 1_555
O3 C8 1_555 1_555
N3 C18 1_555 1_555
C3 C2 1_555 1_555
O4 C10 1_555 1_555
N4 Ag1 1_555 1_555
C4 O2 1_555 1_555
O5 C14 1_555 1_555
N5 O11 1_555 1_555
C5 C4 1_555 1_555
H4 C5 1_555 1_555
H5 C5 1_555 1_555
H6 C5 1_555 1_555
O6 Fe2 1_555 1_555
C6 C3 1_555 1_555
O7 Fe2 1_555 1_555
C7 H7 1_555 1_555
H8 C7 1_555 1_555
H9 C7 1_555 1_555
O8 Fe2 1_555 1_555
C8 C7 1_555 1_555
O9 Fe1 1_555 1_555
C9 C8 1_555 1_555
O10 Fe1 1_555 1_555
C10 C9 1_555 1_555
O11 Ag1 1_555 1_555
C11 C10 1_555 1_555
H10 C11 1_555 1_555
H11 C11 1_555 1_555
H12 C11 1_555 1_555
O12 Ag1 1_555 1_555
C12 N2 1_555 1_555
O13 N5 1_555 1_555
C13 H13 1_555 1_555
H14 C13 1_555 1_555
H15 C13 1_555 1_555
C14 C13 1_555 1_555
C15 C14 1_555 1_555
C16 O6 1_555 1_555
C17 C16 1_555 1_555
H16 C17 1_555 1_555
H17 C17 1_555 1_555
H18 C17 1_555 1_555
C18 C15 1_555 1_555
C19 H19 1_555 1_555
H20 C19 1_555 1_555
H21 C19 1_555 1_555
C20 O7 1_555 1_555
C21 C20 1_555 1_555
C22 O8 1_555 1_555
C23 C22 1_555 1_555
H22 C23 1_555 1_555
H23 C23 1_555 1_555
H24 C23 1_555 1_555
C24 N4 1_555 1_555
C25 O9 1_555 1_555
H25 C25 1_555 1_555
H26 C25 1_555 1_555
H27 C25 1_555 1_555
C26 O10 1_555 1_555
H28 C26 1_555 1_555
H29 C26 1_555 1_555
H30 C26 1_555 1_555
Fe1_2 O3 1_555 1_555
Fe2A O9 1_555 1_555
O3_2 Fe1 1_555 1_555
O4_2 Fe1 1_555 1_555
O9A Fe2 1_555 1_555
O10A Fe2 1_555 1_555
C3 C4 1_555 1_555
O4 Fe1_2 1_555 1_555
N5 O12 1_555 1_555
C9 C12 1_555 1_555
O10 Fe2A 1_555 1_555
C15 C16 1_555 1_555
C19 C20 1_555 1_555
C21 C22 1_555 1_555
C21 C24 1_555 1_555

#END
