
#######################################################################
#
#                 Cambridge Crystallographic Data Centre
#                                CCDC 
#
#######################################################################
#
# If this CIF has been generated from an entry in the Cambridge 
# Structural Database, then it will include bibliographic, chemical, 
# crystal, experimental, refinement or atomic coordinate data resulting 
# from the CCDC's data processing and validation procedures.
#
#######################################################################

data_KIFJOZ
_symmetry_cell_setting           monoclinic
_symmetry_space_group_name_H-M   'P 21/c'
_symmetry_Int_Tables_number      14
_space_group_name_Hall           '-P 2ybc'
loop_
_symmetry_equiv_pos_site_id
_symmetry_equiv_pos_as_xyz
1 x,y,z
2 -x,1/2+y,1/2-z
3 -x,-y,-z
4 x,1/2-y,1/2+z
_cell_length_a                   3.7884(2)
_cell_length_b                   13.4634(6)
_cell_length_c                   12.8252(6)
_cell_angle_alpha                90
_cell_angle_beta                 93.679(1)
_cell_angle_gamma                90
_cell_volume                     652.798
loop_
_atom_site_label
_atom_site_type_symbol
_atom_site_fract_x
_atom_site_fract_y
_atom_site_fract_z
Ag1 Ag 0.10971(5) 0.625515(13) 0.927849(14)
O1 O -0.4414(4) 0.68898(12) 0.80817(13)
O2 O 0.0105(5) 0.73937(12) 0.52061(13)
N1 N -0.1822(6) 0.97265(15) 0.61613(16)
C1 C -0.4006(5) 0.77397(15) 0.77203(16)
C2 C -0.2495(6) 0.79142(15) 0.67376(16)
C3 C -0.1264(6) 0.71738(16) 0.60410(17)
C4 C -0.5032(6) 0.86369(16) 0.83435(18)
H1 H -0.6459 0.8424 0.8914
H2 H -0.2892 0.8971 0.8634
H3 H -0.6411 0.9097 0.7886
C5 C -0.1636(6) 0.60923(16) 0.62817(19)
H4 H -0.0707 0.5697 0.5719
H5 H -0.0305 0.5939 0.6943
H6 H -0.4139 0.5933 0.6341
C6 C -0.2137(6) 0.89133(17) 0.64176(17)
Ag1_2 Ag -0.89029(5) 0.625515(13) 0.927849(14)
Ag1C Ag 0.10971(5) 0.874485(13) 0.427849(14)
Ag1A Ag -0.10971(5) 1.125515(13) 0.572151(14)
O1_2 O 0.5586(4) 0.68898(12) 0.80817(13)
O2C O 0.0105(5) 0.76063(12) 1.02061(13)
N1A N 0.1822(6) 0.47265(15) 0.88387(16)
loop_
_geom_bond_atom_site_label_1
_geom_bond_atom_site_label_2
_geom_bond_site_symmetry_1
_geom_bond_site_symmetry_2
Ag1 O1 1_555 1_555
O1 C1 1_555 1_555
O2 C3 1_555 1_555
N1 C6 1_555 1_555
C1 C2 1_555 1_555
C2 C3 1_555 1_555
C3 C5 1_555 1_555
C4 C1 1_555 1_555
H1 C4 1_555 1_555
H2 C4 1_555 1_555
H3 C4 1_555 1_555
C5 H4 1_555 1_555
H5 C5 1_555 1_555
H6 C5 1_555 1_555
C6 C2 1_555 1_555
Ag1_2 O1 1_555 1_555
Ag1C O2 1_555 1_555
Ag1A N1 1_555 1_555
O1_2 Ag1 1_555 1_555
O2C Ag1 1_555 1_555
N1A Ag1 1_555 1_555

#END
