
#######################################################################
#
#                 Cambridge Crystallographic Data Centre
#                                CCDC 
#
#######################################################################
#
# If this CIF has been generated from an entry in the Cambridge 
# Structural Database, then it will include bibliographic, chemical, 
# crystal, experimental, refinement or atomic coordinate data resulting 
# from the CCDC's data processing and validation procedures.
#
#######################################################################

data_KIFJAL
_symmetry_cell_setting           monoclinic
_symmetry_space_group_name_H-M   'P 21/n'
_symmetry_Int_Tables_number      14
_space_group_name_Hall           '-P 2yn'
loop_
_symmetry_equiv_pos_site_id
_symmetry_equiv_pos_as_xyz
1 x,y,z
2 1/2-x,1/2+y,1/2-z
3 -x,-y,-z
4 1/2+x,1/2-y,1/2+z
_cell_length_a                   17.2710(2)
_cell_length_b                   12.5520(2)
_cell_length_c                   18.9510(3)
_cell_angle_alpha                90
_cell_angle_beta                 111.217(1)
_cell_angle_gamma                90
_cell_volume                     3829.83
loop_
_atom_site_label
_atom_site_type_symbol
_atom_site_fract_x
_atom_site_fract_y
_atom_site_fract_z
Ag1 Ag 0.28241(3) 0.31856(4) -0.07906(3)
Ag2 Ag 0.27939(2) 0.66604(3) -0.26718(2)
Fe1 Fe 0.15893(4) 0.27201(5) 0.27486(4)
Fe2 Fe 0.67044(4) 0.71408(5) -0.40384(3)
O1 O 0.1070(2) 0.3516(3) 0.17712(19)
O2 O 0.1994(2) 0.1715(3) 0.21392(19)
O3 O 0.5616(2) 0.3221(3) -0.23882(19)
O4 O 0.60124(19) 0.1218(3) -0.18111(18)
O5 O 0.6063(2) 0.8074(3) -0.35755(19)
O6 O 0.57662(19) 0.6105(3) -0.42173(17)
O7 O 0.20959(19) 0.8868(3) 0.03299(16)
O8 O 0.1206(2) 0.7019(3) -0.00044(18)
O9 O 0.26286(19) 0.3558(2) 0.30751(17)
O10 O 0.2274(2) 0.2029(3) 0.36933(17)
O11 O 0.1771(2) 0.3917(3) -0.2030(2)
O12 O 0.1874(2) 0.5144(3) -0.2784(2)
O13 O 0.2871(2) 0.4881(3) -0.1707(2)
O14 O 0.3555(3) 0.4074(4) 0.0417(3)
O15 O 0.4099(4) 0.3552(6) 0.1578(3)
O16 O 0.3701(4) 0.2410(5) 0.0661(4)
N1 N 0.1835(4) 0.2686(6) -0.0297(3)
N2 N 0.3738(3) 0.2356(4) -0.1200(2)
N3 N 0.3871(3) 0.6585(3) -0.2994(3)
N4 N 0.2287(3) 0.7544(4) -0.1916(2)
N5 N 0.2172(2) 0.4645(3) -0.2179(3)
N6 N 0.3774(4) 0.3363(5) 0.0885(4)
C1 C 0.0783(4) 0.4275(5) 0.0565(3)
H1 H 0.0241 0.4016 0.0226
H2 H 0.1134 0.4429 0.0271
H3 H 0.0708 0.4927 0.0818
C2 C 0.1188(3) 0.3447(4) 0.1143(3)
C3 C 0.1659(3) 0.2631(4) 0.0989(3)
C4 C 0.2062(3) 0.1807(4) 0.1505(3)
C5 C 0.2576(5) 0.0999(5) 0.1289(4)
H4 H 0.2817 0.0497 0.1708
H5 H 0.3023 0.1361 0.1179
H6 H 0.2225 0.0610 0.0838
C6 C 0.1755(4) 0.2653(5) 0.0274(3)
C7 C 0.4576(3) 0.4183(4) -0.2131(3)
H7 H 0.4209 0.4300 -0.2657
H8 H 0.4241 0.4107 -0.1812
H9 H 0.4952 0.4792 -0.1956
C8 C 0.5073(3) 0.3191(4) -0.2082(3)
C9 C 0.4930(3) 0.2272(4) -0.1712(2)
C10 C 0.5404(3) 0.1321(4) -0.1602(2)
C11 C 0.5184(3) 0.0381(4) -0.1224(3)
H10 H 0.5602 -0.0179 -0.1149
H11 H 0.5168 0.0598 -0.0733
H12 H 0.4637 0.0108 -0.1544
C12 C 0.4270(3) 0.2311(4) -0.1425(3)
C13 C 0.5251(4) 0.8675(4) -0.2882(3)
H13 H 0.5520 0.9354 -0.2908
H14 H 0.4647 0.8771 -0.3079
H15 H 0.5435 0.8436 -0.2355
C14 C 0.5479(3) 0.7863(4) -0.3344(3)
C15 C 0.5051(3) 0.6872(4) -0.3497(3)
C16 C 0.5208(3) 0.6049(4) -0.3928(2)
C17 C 0.4727(4) 0.5014(5) -0.4061(3)
H16 H 0.5050 0.4479 -0.3696
H17 H 0.4196 0.5131 -0.3997
H18 H 0.4625 0.4762 -0.4576
C18 C 0.4396(3) 0.6711(4) -0.3215(3)
C19 C 0.2626(3) 0.9593(4) -0.0550(3)
H19 H 0.2412 1.0288 -0.0471
H20 H 0.2525 0.9498 -0.1090
H21 H 0.3224 0.9558 -0.0260
C20 C 0.2194(3) 0.8732(4) -0.0292(2)
C21 C 0.1900(3) 0.7803(4) -0.0740(2)
C22 C 0.1411(3) 0.6997(4) -0.0587(3)
C23 C 0.1112(4) 0.6086(5) -0.1112(3)
H22 H 0.0544 0.5905 -0.1157
H23 H 0.1475 0.5471 -0.0916
H24 H 0.1118 0.6281 -0.1611
C24 C 0.2118(3) 0.7667(4) -0.1395(3)
C28 C 0.2914(3) 0.4140(5) 0.2565(3)
H31 H 0.3363 0.4624 0.2854
H32 H 0.2454 0.4554 0.2215
H33 H 0.3122 0.3641 0.2277
C29 C 0.2087(5) 0.1060(6) 0.4005(4)
H34 H 0.2591 0.0625 0.4209
H35 H 0.1659 0.0662 0.3607
H36 H 0.1883 0.1233 0.4412
Fe1C Fe 0.65893(4) 0.22799(5) -0.22514(4)
Fe2C Fe 0.17044(4) 0.78592(5) 0.09616(3)
Fe2B Fe 0.32956(4) 0.28592(5) 0.40384(3)
O3C O 0.0616(2) 0.1779(3) 0.26118(19)
O4C O 0.10124(19) 0.3782(3) 0.31889(18)
O7C O 0.70959(19) 0.6132(3) -0.46701(16)
O8C O 0.6206(2) 0.7981(3) -0.50044(18)
O9B O 0.73714(19) 0.6442(2) -0.30751(17)
O10B O 0.7726(2) 0.7971(3) -0.36933(17)
O17 O 0.1129(4) 0.2673(5) 0.5019(3)
C25 C 0.0571(5) 0.1162(7) 0.5304(5)
H25 H 0.0825 0.0839 0.4969
H26 H -0.0034 0.1086 0.5079
H27 H 0.0778 0.0802 0.5797
C26 C 0.0782(4) 0.2262(7) 0.5404(4)
C27 C 0.0594(6) 0.2885(9) 0.5974(7)
H28 H 0.0778 0.2494 0.6454
H29 H -0.0006 0.3009 0.5804
H30 H 0.0884 0.3571 0.6046
loop_
_geom_bond_atom_site_label_1
_geom_bond_atom_site_label_2
_geom_bond_site_symmetry_1
_geom_bond_site_symmetry_2
Ag1 O11 1_555 1_555
Ag2 O12 1_555 1_555
Fe1 O1 1_555 1_555
Fe2 O5 1_555 1_555
O1 C2 1_555 1_555
O2 Fe1 1_555 1_555
O3 C8 1_555 1_555
O4 C10 1_555 1_555
O5 C14 1_555 1_555
O6 Fe2 1_555 1_555
O7 C20 1_555 1_555
O8 C22 1_555 1_555
O9 Fe1 1_555 1_555
O10 Fe1 1_555 1_555
O11 N5 1_555 1_555
O12 N5 1_555 1_555
O13 N5 1_555 1_555
O14 Ag1 1_555 1_555
O15 N6 1_555 1_555
O16 N6 1_555 1_555
O17 C26 1_555 1_555
N1 Ag1 1_555 1_555
N2 Ag1 1_555 1_555
N3 Ag2 1_555 1_555
N4 Ag2 1_555 1_555
N6 O14 1_555 1_555
C1 H1 1_555 1_555
H2 C1 1_555 1_555
H3 C1 1_555 1_555
C2 C1 1_555 1_555
C3 C2 1_555 1_555
C4 O2 1_555 1_555
C5 C4 1_555 1_555
H4 C5 1_555 1_555
H5 C5 1_555 1_555
H6 C5 1_555 1_555
C6 N1 1_555 1_555
C7 H7 1_555 1_555
H8 C7 1_555 1_555
H9 C7 1_555 1_555
C8 C7 1_555 1_555
C9 C8 1_555 1_555
C10 C9 1_555 1_555
C11 C10 1_555 1_555
H10 C11 1_555 1_555
H11 C11 1_555 1_555
H12 C11 1_555 1_555
C12 N2 1_555 1_555
C13 H13 1_555 1_555
H14 C13 1_555 1_555
H15 C13 1_555 1_555
C14 C13 1_555 1_555
C15 C14 1_555 1_555
C16 O6 1_555 1_555
C17 C16 1_555 1_555
H16 C17 1_555 1_555
H17 C17 1_555 1_555
H18 C17 1_555 1_555
C18 N3 1_555 1_555
C19 H19 1_555 1_555
H20 C19 1_555 1_555
H21 C19 1_555 1_555
C20 C19 1_555 1_555
C21 C20 1_555 1_555
C22 C21 1_555 1_555
C23 C22 1_555 1_555
H22 C23 1_555 1_555
H23 C23 1_555 1_555
H24 C23 1_555 1_555
C24 N4 1_555 1_555
C25 H25 1_555 1_555
H26 C25 1_555 1_555
H27 C25 1_555 1_555
C26 C25 1_555 1_555
C27 C26 1_555 1_555
H28 C27 1_555 1_555
H29 C27 1_555 1_555
H30 C27 1_555 1_555
C28 O9 1_555 1_555
H31 C28 1_555 1_555
H32 C28 1_555 1_555
H33 C28 1_555 1_555
C29 O10 1_555 1_555
H34 C29 1_555 1_555
H35 C29 1_555 1_555
H36 C29 1_555 1_555
Fe1C O3 1_555 1_555
Fe2C O7 1_555 1_555
Fe2B O9 1_555 1_555
O3C Fe1 1_555 1_555
O4C Fe1 1_555 1_555
O7C Fe2 1_555 1_555
O8C Fe2 1_555 1_555
O9B Fe2 1_555 1_555
O10B Fe2 1_555 1_555
O4 Fe1C 1_555 1_555
O8 Fe2C 1_555 1_555
O10 Fe2B 1_555 1_555
C3 C4 1_555 1_555
C3 C6 1_555 1_555
C9 C12 1_555 1_555
C15 C16 1_555 1_555
C15 C18 1_555 1_555
C21 C24 1_555 1_555

#END
