
#######################################################################
#
#                 Cambridge Crystallographic Data Centre
#                                CCDC 
#
#######################################################################
#
# If this CIF has been generated from an entry in the Cambridge 
# Structural Database, then it will include bibliographic, chemical, 
# crystal, experimental, refinement or atomic coordinate data resulting 
# from the CCDC's data processing and validation procedures.
#
#######################################################################

data_KIFKEQ
_symmetry_cell_setting           monoclinic
_symmetry_space_group_name_H-M   'P 21/c'
_symmetry_Int_Tables_number      14
_space_group_name_Hall           '-P 2ybc'
loop_
_symmetry_equiv_pos_site_id
_symmetry_equiv_pos_as_xyz
1 x,y,z
2 -x,1/2+y,1/2-z
3 -x,-y,-z
4 x,1/2-y,1/2+z
_cell_length_a                   13.7835(12)
_cell_length_b                   18.384(2)
_cell_length_c                   12.1948(15)
_cell_angle_alpha                90
_cell_angle_beta                 113.960(10)
_cell_angle_gamma                90
_cell_volume                     2823.83
loop_
_atom_site_label
_atom_site_type_symbol
_atom_site_fract_x
_atom_site_fract_y
_atom_site_fract_z
Mg1 Mg 0.08417(3) 0.47928(2) 0.31993(3)
Mg2 Mg 0.0000 0.5000 0.0000
C1 C 0.18146(8) 0.39851(6) 0.17301(10)
O1 O 0.12306(6) 0.42316(4) 0.07155(7)
O2 O 0.17378(7) 0.41155(6) 0.27040(8)
C2 C 0.27246(8) 0.34881(6) 0.18299(10)
C3 C 0.31847(9) 0.30319(6) 0.28203(11)
H1 H 0.2902 0.3015 0.3412
C4 C 0.40563(9) 0.25995(6) 0.29503(10)
H2 H 0.4348 0.2281 0.3619
C5 C 0.45070(8) 0.26286(6) 0.21105(10)
C6 C 0.40288(9) 0.30759(6) 0.11070(10)
H3 H 0.4312 0.3095 0.0515
C7 C 0.31396(8) 0.34948(6) 0.09634(10)
H4 H 0.2815 0.3787 0.0267
C8 C 0.55003(8) 0.22229(6) 0.23149(10)
C9 C 0.63186(9) 0.21829(6) 0.34708(10)
H5 H 0.6239 0.2422 0.4120
C10 C 0.72466(9) 0.17965(6) 0.36765(10)
H6 H 0.7795 0.1780 0.4462
C11 C 0.73787(8) 0.14352(6) 0.27437(10)
C12 C 0.65820(9) 0.14899(7) 0.15888(10)
H7 H 0.6670 0.1257 0.0940
C13 C 0.56574(9) 0.18823(7) 0.13758(10)
H8 H 0.5127 0.1919 0.0581
C14 C 0.83335(8) 0.09505(6) 0.29804(10)
O3 O 0.89379(6) 0.08269(4) 0.40582(7)
O4 O 0.84249(7) 0.07000(5) 0.20689(8)
C15 C -0.09949(8) 0.51341(5) 0.19665(10)
O5 O -0.05575(6) 0.53586(4) 0.30246(7)
O6 O -0.04500(6) 0.48553(4) 0.14371(7)
C16 C -0.21764(8) 0.51334(6) 0.13513(10)
C17 C -0.26779(9) 0.47128(7) 0.03332(12)
H9 H -0.2267 0.4458 -0.0006
C18 C -0.37797(9) 0.46616(7) -0.01951(12)
H10 H -0.4111 0.4368 -0.0889
C19 C -0.44105(8) 0.50348(6) 0.02752(10)
C20 C -0.38910(8) 0.54783(7) 0.12751(11)
H11 H -0.4300 0.5758 0.1588
C21 C -0.27893(8) 0.55198(6) 0.18212(10)
H12 H -0.2454 0.5812 0.2516
O7 O 0.01168(7) 0.38751(5) 0.35080(8)
C22 C 0.04756(11) 0.32462(7) 0.37958(13)
C23 C 0.12562(16) 0.30910(10) 0.50642(15)
H13 H 0.1964 0.3015 0.5076
H14 H 0.1035 0.2653 0.5360
H15 H 0.1276 0.3505 0.5580
N1 N 0.01780(11) 0.27060(6) 0.30099(12)
C24 C -0.05680(17) 0.28678(10) 0.17838(16)
H16 H -0.1002 0.3289 0.1788
H17 H -0.1029 0.2446 0.1449
H18 H -0.0174 0.2977 0.1292
C25 C 0.06259(15) 0.19702(8) 0.32697(18)
H19 H 0.1342 0.1972 0.3284
H20 H 0.0175 0.1635 0.2646
H21 H 0.0660 0.1812 0.4052
O8 O 0.18527(7) 0.48449(5) 0.49386(8)
C26 C 0.24530(11) 0.53297(7) 0.55658(12)
C27 C 0.20041(17) 0.60027(9) 0.5888(2)
H22 H 0.1230 0.5958 0.5586
H23 H 0.2184 0.6429 0.5526
H24 H 0.2305 0.6059 0.6762
N2 N 0.34968(10) 0.52526(7) 0.59631(12)
C28 C 0.38919(15) 0.45983(11) 0.5604(2)
H25 H 0.3726 0.4172 0.5979
H26 H 0.4663 0.4636 0.5863
H27 H 0.3553 0.4548 0.4729
C29 C 0.42666(15) 0.57675(11) 0.67589(17)
H28 H 0.4623 0.6020 0.6318
H29 H 0.4794 0.5505 0.7440
H30 H 0.3900 0.6124 0.7053
Mg1B Mg -0.08417(3) 0.52072(2) -0.31993(3)
Mg1A Mg 0.91583(3) -0.02072(2) 0.18007(3)
Mg1B_2 Mg -1.08417(3) 0.52072(2) -0.31993(3)
Mg1C Mg -0.91583(3) 1.02072(2) -0.18007(3)
Mg2C Mg 1.0000 0.0000 0.5000
Mg2_2 Mg -1.0000 0.5000 0.0000
Mg2C_2 Mg -1.0000 1.0000 -0.5000
C1B C -0.18146(8) 0.60149(6) -0.17301(10)
O1B O -0.12306(6) 0.57684(4) -0.07155(7)
O2B O -0.17378(7) 0.58845(6) -0.27040(8)
C2B C -0.27246(8) 0.65119(6) -0.18299(10)
C3B C -0.31847(9) 0.69681(6) -0.28203(11)
H1B H -0.2902 0.6985 -0.3412
C4B C -0.40563(9) 0.74005(6) -0.29503(10)
H2B H -0.4348 0.7719 -0.3619
C5B C -0.45070(8) 0.73714(6) -0.21105(10)
C6B C -0.40288(9) 0.69241(6) -0.11070(10)
H3B H -0.4312 0.6905 -0.0515
C7B C -0.31396(8) 0.65052(6) -0.09634(10)
H4B H -0.2815 0.6213 -0.0267
C8B C -0.55003(8) 0.77771(6) -0.23149(10)
C9B C -0.63186(9) 0.78171(6) -0.34708(10)
H5B H -0.6239 0.7578 -0.4120
C10B C -0.72466(9) 0.82035(6) -0.36765(10)
H6B H -0.7795 0.8220 -0.4462
C11B C -0.73787(8) 0.85648(6) -0.27437(10)
C12B C -0.65820(9) 0.85101(7) -0.15888(10)
H7B H -0.6670 0.8743 -0.0940
C13B C -0.56574(9) 0.81177(7) -0.13758(10)
H8B H -0.5127 0.8081 -0.0581
C14B C -0.83335(8) 0.90495(6) -0.29804(10)
O3B O -0.89379(6) 0.91731(4) -0.40582(7)
O3C O -0.10621(6) 0.41731(4) -0.09418(7)
O3A O 0.10621(6) 0.58269(4) 0.09418(7)
O4B O -0.84249(7) 0.93000(5) -0.20689(8)
O4A O 0.15751(7) 0.57000(5) 0.29311(8)
O4C O -0.15751(7) 0.43000(5) -0.29311(8)
C15B C -0.90051(8) 0.48659(5) -0.19665(10)
O5B O -0.94425(6) 0.46414(4) -0.30246(7)
O5B_2 O 0.05575(6) 0.46414(4) -0.30246(7)
O6B O -0.95500(6) 0.51447(4) -0.14371(7)
O6B_2 O 0.04500(6) 0.51447(4) -0.14371(7)
C16B C -0.78236(8) 0.48666(6) -0.13513(10)
C17B C -0.73221(9) 0.52872(7) -0.03332(12)
H9B H -0.7733 0.5542 0.0006
C18B C -0.62203(9) 0.53384(7) 0.01951(12)
H10B H -0.5889 0.5632 0.0889
C19B C -0.55895(8) 0.49652(6) -0.02752(10)
C20B C -0.61090(8) 0.45217(7) -0.12751(11)
H11B H -0.5700 0.4242 -0.1588
C21B C -0.72107(8) 0.44802(6) -0.18212(10)
H12B H -0.7546 0.4188 -0.2516
O7B O -0.01168(7) 0.61249(5) -0.35080(8)
C22B C -0.04756(11) 0.67538(7) -0.37958(13)
C23B C -0.12562(16) 0.69090(10) -0.50642(15)
H13B H -0.1964 0.6985 -0.5076
H14B H -0.1035 0.7347 -0.5360
H15B H -0.1276 0.6495 -0.5580
N1B N -0.01780(11) 0.72940(6) -0.30099(12)
C24B C 0.05680(17) 0.71322(10) -0.17838(16)
H16B H 0.1002 0.6711 -0.1788
H17B H 0.1029 0.7554 -0.1449
H18B H 0.0174 0.7023 -0.1292
C25B C -0.06259(15) 0.80298(8) -0.32697(18)
H19B H -0.1342 0.8028 -0.3284
H20B H -0.0175 0.8365 -0.2646
H21B H -0.0660 0.8188 -0.4052
O8B O -0.18527(7) 0.51551(5) -0.49386(8)
C26B C -0.24530(11) 0.46703(7) -0.55658(12)
C27B C -0.20041(17) 0.39973(9) -0.5888(2)
H22B H -0.1230 0.4042 -0.5586
H23B H -0.2184 0.3571 -0.5526
H24B H -0.2305 0.3941 -0.6762
N2B N -0.34968(10) 0.47474(7) -0.59631(12)
C28B C -0.38919(15) 0.54017(11) -0.5604(2)
H25B H -0.3726 0.5828 -0.5979
H26B H -0.4663 0.5364 -0.5863
H27B H -0.3553 0.5452 -0.4729
C29B C -0.42666(15) 0.42325(11) -0.67589(17)
H28B H -0.4623 0.3980 -0.6318
H29B H -0.4794 0.4495 -0.7440
H30B H -0.3900 0.3876 -0.7053
loop_
_geom_bond_atom_site_label_1
_geom_bond_atom_site_label_2
_geom_bond_site_symmetry_1
_geom_bond_site_symmetry_2
Mg1 O2 1_555 1_555
Mg2 O1 1_555 1_555
C1 O1 1_555 1_555
O2 C1 1_555 1_555
C2 C1 1_555 1_555
C3 C2 1_555 1_555
H1 C3 1_555 1_555
C4 C3 1_555 1_555
H2 C4 1_555 1_555
C5 C4 1_555 1_555
C6 C5 1_555 1_555
H3 C6 1_555 1_555
C7 C2 1_555 1_555
H4 C7 1_555 1_555
C8 C5 1_555 1_555
C9 C8 1_555 1_555
H5 C9 1_555 1_555
C10 C9 1_555 1_555
H6 C10 1_555 1_555
C11 C10 1_555 1_555
C12 C11 1_555 1_555
H7 C12 1_555 1_555
C13 C8 1_555 1_555
H8 C13 1_555 1_555
C14 C11 1_555 1_555
O3 C14 1_555 1_555
O4 C14 1_555 1_555
C15 O5 1_555 1_555
O5 Mg1 1_555 1_555
O6 Mg1 1_555 1_555
C16 C15 1_555 1_555
C17 C16 1_555 1_555
H9 C17 1_555 1_555
C18 C17 1_555 1_555
H10 C18 1_555 1_555
C19 C18 1_555 1_555
C20 C19 1_555 1_555
H11 C20 1_555 1_555
C21 C16 1_555 1_555
H12 C21 1_555 1_555
O7 Mg1 1_555 1_555
C22 O7 1_555 1_555
C23 C22 1_555 1_555
H13 C23 1_555 1_555
H14 C23 1_555 1_555
H15 C23 1_555 1_555
N1 C22 1_555 1_555
C24 N1 1_555 1_555
H16 C24 1_555 1_555
H17 C24 1_555 1_555
H18 C24 1_555 1_555
C25 N1 1_555 1_555
H19 C25 1_555 1_555
H20 C25 1_555 1_555
H21 C25 1_555 1_555
O8 Mg1 1_555 1_555
C26 O8 1_555 1_555
C27 C26 1_555 1_555
H22 C27 1_555 1_555
H23 C27 1_555 1_555
H24 C27 1_555 1_555
N2 C26 1_555 1_555
C28 N2 1_555 1_555
H25 C28 1_555 1_555
H26 C28 1_555 1_555
H27 C28 1_555 1_555
C29 N2 1_555 1_555
H28 C29 1_555 1_555
H29 C29 1_555 1_555
H30 C29 1_555 1_555
Mg1B O2B 1_555 1_555
Mg1A O4 1_555 1_555
Mg1B_2 O5B 1_555 1_555
Mg1C O4B 1_555 1_555
Mg2C O3 1_555 1_555
Mg2_2 O6B 1_555 1_555
Mg2C_2 O3B 1_555 1_555
C1B O1B 1_555 1_555
O1B Mg2 1_555 1_555
O2B C1B 1_555 1_555
C2B C1B 1_555 1_555
C3B C2B 1_555 1_555
H1B C3B 1_555 1_555
C4B C3B 1_555 1_555
H2B C4B 1_555 1_555
C5B C4B 1_555 1_555
C6B C5B 1_555 1_555
H3B C6B 1_555 1_555
C7B C2B 1_555 1_555
H4B C7B 1_555 1_555
C8B C5B 1_555 1_555
C9B C8B 1_555 1_555
H5B C9B 1_555 1_555
C10B C9B 1_555 1_555
H6B C10B 1_555 1_555
C11B C10B 1_555 1_555
C12B C11B 1_555 1_555
H7B C12B 1_555 1_555
C13B C8B 1_555 1_555
H8B C13B 1_555 1_555
C14B C11B 1_555 1_555
O3B C14B 1_555 1_555
O3C Mg2 1_555 1_555
O3A Mg2 1_555 1_555
O4B C14B 1_555 1_555
O4A Mg1 1_555 1_555
O4C Mg1B 1_555 1_555
C15B O5B 1_555 1_555
O5B_2 Mg1B 1_555 1_555
O6B Mg1B_2 1_555 1_555
O6B_2 Mg2 1_555 1_555
C16B C15B 1_555 1_555
C17B C16B 1_555 1_555
H9B C17B 1_555 1_555
C18B C17B 1_555 1_555
H10B C18B 1_555 1_555
C19B C19 1_555 1_555
C20B C19B 1_555 1_555
H11B C20B 1_555 1_555
C21B C16B 1_555 1_555
H12B C21B 1_555 1_555
O7B Mg1B 1_555 1_555
C22B O7B 1_555 1_555
C23B C22B 1_555 1_555
H13B C23B 1_555 1_555
H14B C23B 1_555 1_555
H15B C23B 1_555 1_555
N1B C22B 1_555 1_555
C24B N1B 1_555 1_555
H16B C24B 1_555 1_555
H17B C24B 1_555 1_555
H18B C24B 1_555 1_555
C25B N1B 1_555 1_555
H19B C25B 1_555 1_555
H20B C25B 1_555 1_555
H21B C25B 1_555 1_555
O8B Mg1B 1_555 1_555
C26B O8B 1_555 1_555
C27B C26B 1_555 1_555
H22B C27B 1_555 1_555
H23B C27B 1_555 1_555
H24B C27B 1_555 1_555
N2B C26B 1_555 1_555
C28B N2B 1_555 1_555
H25B C28B 1_555 1_555
H26B C28B 1_555 1_555
H27B C28B 1_555 1_555
C29B N2B 1_555 1_555
H28B C29B 1_555 1_555
H29B C29B 1_555 1_555
H30B C29B 1_555 1_555
Mg2 O6 1_555 1_555
C6 C7 1_555 1_555
C12 C13 1_555 1_555
C15 O6 1_555 1_555
C20 C21 1_555 1_555
Mg1B O6B_2 1_555 1_555
C6B C7B 1_555 1_555
C12B C13B 1_555 1_555
C15B O6B 1_555 1_555
C18B C19B 1_555 1_555
C20B C21B 1_555 1_555

#END
