
#######################################################################
#
#                 Cambridge Crystallographic Data Centre
#                                CCDC 
#
#######################################################################
#
# If this CIF has been generated from an entry in the Cambridge 
# Structural Database, then it will include bibliographic, chemical, 
# crystal, experimental, refinement or atomic coordinate data resulting 
# from the CCDC's data processing and validation procedures.
#
#######################################################################

data_KIFNOD
_symmetry_cell_setting           monoclinic
_symmetry_space_group_name_H-M   'C 2/c'
_symmetry_Int_Tables_number      15
_space_group_name_Hall           '-C 2yn'
loop_
_symmetry_equiv_pos_site_id
_symmetry_equiv_pos_as_xyz
1 x,y,z
2 1/2+x,1/2+y,z
3 -x,y,1/2-z
4 1/2-x,1/2+y,1/2-z
5 -x,-y,-z
6 1/2-x,1/2-y,-z
7 x,-y,1/2+z
8 1/2+x,1/2-y,1/2+z
_cell_length_a                   9.745(2)
_cell_length_b                   19.270(3)
_cell_length_c                   9.064(2)
_cell_angle_alpha                90
_cell_angle_beta                 115.06(2)
_cell_angle_gamma                90
_cell_volume                     1541.87
loop_
_atom_site_label
_atom_site_type_symbol
_atom_site_fract_x
_atom_site_fract_y
_atom_site_fract_z
Ni1 Ni 0.0000 0.70734(4) 0.7500
O1 O 0.1884(3) 0.66582(15) 0.5270(3)
O2 O 0.2212(2) 0.70738(15) 0.7698(2)
C1 C 0.2665(4) 0.68449(17) 0.6669(4)
C2 C 0.4330(4) 0.68190(17) 0.7272(4)
O3 O 0.0874(2) 0.70371(16) 1.0000(2)
H1 H 0.151(3) 0.7364(13) 1.073(3)
H2 H 0.002(4) 0.690(2) 1.019(5)
N1 N 0.0000 0.8160(2) 0.7500
C3 C 0.0663(4) 0.8525(2) 0.6723(5)
H3 H 0.1141 0.8285 0.6182
C4 C 0.0669(5) 0.9231(3) 0.6686(6)
H4 H 0.1124 0.9464 0.6112
C5 C 0.0000 0.9593(4) 0.7500
H5 H 0.0000 1.0076 0.7500
N2 N 0.0000 0.5991(2) 0.7500
C6 C 0.1009(5) 0.5624(2) 0.8740(5)
H6 H 0.1738 0.5863 0.9611
C7 C 0.1016(6) 0.4912(2) 0.8783(6)
H7 H 0.1714 0.4679 0.9688
C8 C 0.0000 0.4550(4) 0.7500
H8 H 0.0000 0.4067 0.7500
Ni1_2 Ni 1.0000 0.70734(4) 0.7500
O1B O 0.8116(3) 0.66582(15) 0.9730(3)
O2B O 0.7788(2) 0.70738(15) 0.7302(2)
O2B_2 O -0.2212(2) 0.70738(15) 0.7302(2)
C1B C 0.7335(4) 0.68449(17) 0.8331(4)
C2B C 0.5670(4) 0.68190(17) 0.7728(4)
O3B O -0.0874(2) 0.70371(16) 0.5000(2)
H1B H -0.151(3) 0.7364(13) 0.427(3)
H2B H -0.002(4) 0.690(2) 0.481(5)
C3B C -0.0663(4) 0.8525(2) 0.8277(5)
H3B H -0.1141 0.8285 0.8818
C4B C -0.0669(5) 0.9231(3) 0.8314(6)
H4B H -0.1124 0.9464 0.8888
C6B C -0.1009(5) 0.5624(2) 0.6260(5)
H6B H -0.1738 0.5863 0.5389
C7B C -0.1016(6) 0.4912(2) 0.6217(6)
H7B H -0.1714 0.4679 0.5312
loop_
_geom_bond_atom_site_label_1
_geom_bond_atom_site_label_2
_geom_bond_site_symmetry_1
_geom_bond_site_symmetry_2
Ni1 O2 1_555 1_555
O1 C1 1_555 1_555
O2 C1 1_555 1_555
C1 C2 1_555 1_555
C2 C2B 1_555 1_555
O3 Ni1 1_555 1_555
H1 O3 1_555 1_555
H2 O3 1_555 1_555
N1 Ni1 1_555 1_555
C3 N1 1_555 1_555
H3 C3 1_555 1_555
C4 C3 1_555 1_555
H4 C4 1_555 1_555
C5 C4 1_555 1_555
H5 C5 1_555 1_555
N2 Ni1 1_555 1_555
C6 N2 1_555 1_555
H6 C6 1_555 1_555
C7 C6 1_555 1_555
H7 C7 1_555 1_555
C8 C7 1_555 1_555
H8 C8 1_555 1_555
Ni1_2 O2B 1_555 1_555
O1B C1B 1_555 1_555
O2B C1B 1_555 1_555
O2B_2 Ni1 1_555 1_555
C1B C2B 1_555 1_555
O3B Ni1 1_555 1_555
H1B O3B 1_555 1_555
H2B O3B 1_555 1_555
C3B N1 1_555 1_555
H3B C3B 1_555 1_555
C4B C5 1_555 1_555
H4B C4B 1_555 1_555
C6B N2 1_555 1_555
H6B C6B 1_555 1_555
C7B C8 1_555 1_555
H7B C7B 1_555 1_555
C3B C4B 1_555 1_555
C6B C7B 1_555 1_555

#END
