
#######################################################################
#
#                 Cambridge Crystallographic Data Centre
#                                CCDC 
#
#######################################################################
#
# If this CIF has been generated from an entry in the Cambridge 
# Structural Database, then it will include bibliographic, chemical, 
# crystal, experimental, refinement or atomic coordinate data resulting 
# from the CCDC's data processing and validation procedures.
#
#######################################################################

data_KIFNUJ
_symmetry_cell_setting           monoclinic
_symmetry_space_group_name_H-M   'C 2/c'
_symmetry_Int_Tables_number      15
_space_group_name_Hall           '-C 2yn'
loop_
_symmetry_equiv_pos_site_id
_symmetry_equiv_pos_as_xyz
1 x,y,z
2 1/2+x,1/2+y,z
3 -x,y,1/2-z
4 1/2-x,1/2+y,1/2-z
5 -x,-y,-z
6 1/2-x,1/2-y,-z
7 x,-y,1/2+z
8 1/2+x,1/2-y,1/2+z
_cell_length_a                   9.798(1)
_cell_length_b                   19.370(3)
_cell_length_c                   9.112(1)
_cell_angle_alpha                90
_cell_angle_beta                 115.13(2)
_cell_angle_gamma                90
_cell_volume                     1565.65
loop_
_atom_site_label
_atom_site_type_symbol
_atom_site_fract_x
_atom_site_fract_y
_atom_site_fract_z
Co1 Co 0.0000 0.70831(2) 0.7500
O1 O 0.19012(17) 0.66593(8) 0.52662(19)
O2 O 0.22181(13) 0.70844(7) 0.76737(15)
C1 C 0.2681(2) 0.68533(10) 0.6661(2)
C2 C 0.4332(2) 0.68267(10) 0.7256(2)
O3 O 0.08681(15) 0.70412(8) 1.00286(16)
H1 H 0.144(3) 0.7350(13) 1.081(3)
H2 H 0.010(3) 0.6930(14) 1.029(3)
N1 N 0.0000 0.81942(12) 0.7500
C3 C 0.0654(3) 0.85583(12) 0.6726(3)
H3 H 0.1126 0.8319 0.6184
C4 C 0.0667(3) 0.92642(14) 0.6690(4)
H4 H 0.1123 0.9496 0.6121
C5 C 0.0000 0.96259(19) 0.7500
H5 H 0.0000 1.0106 0.7500
N2 N 0.0000 0.59721(12) 0.7500
C6 C 0.0994(3) 0.56118(12) 0.8749(3)
H6 H 0.1706 0.5852 0.9623
C7 C 0.1009(3) 0.49006(13) 0.8797(3)
H7 H 0.1699 0.4668 0.9702
C8 C 0.0000 0.45407(18) 0.7500
H8 H 0.0000 0.4061 0.7500
Co1_2 Co 1.0000 0.70831(2) 0.7500
O1B O 0.80988(17) 0.66593(8) 0.97338(19)
O2B O 0.77819(13) 0.70844(7) 0.73263(15)
O2B_2 O -0.22181(13) 0.70844(7) 0.73263(15)
C1B C 0.7319(2) 0.68533(10) 0.8339(2)
C2B C 0.5668(2) 0.68267(10) 0.7744(2)
O3B O -0.08681(15) 0.70412(8) 0.49714(16)
H1B H -0.144(3) 0.7350(13) 0.419(3)
H2B H -0.010(3) 0.6930(14) 0.471(3)
C3B C -0.0654(3) 0.85583(12) 0.8274(3)
H3B H -0.1126 0.8319 0.8816
C4B C -0.0667(3) 0.92642(14) 0.8310(4)
H4B H -0.1123 0.9496 0.8879
C6B C -0.0994(3) 0.56118(12) 0.6251(3)
H6B H -0.1706 0.5852 0.5377
C7B C -0.1009(3) 0.49006(13) 0.6203(3)
H7B H -0.1699 0.4668 0.5298
loop_
_geom_bond_atom_site_label_1
_geom_bond_atom_site_label_2
_geom_bond_site_symmetry_1
_geom_bond_site_symmetry_2
Co1 O2 1_555 1_555
O1 C1 1_555 1_555
O2 C1 1_555 1_555
C1 C2 1_555 1_555
C2 C2B 1_555 1_555
O3 Co1 1_555 1_555
H1 O3 1_555 1_555
H2 O3 1_555 1_555
N1 Co1 1_555 1_555
C3 N1 1_555 1_555
H3 C3 1_555 1_555
C4 C3 1_555 1_555
H4 C4 1_555 1_555
C5 C4 1_555 1_555
H5 C5 1_555 1_555
N2 Co1 1_555 1_555
C6 N2 1_555 1_555
H6 C6 1_555 1_555
C7 C6 1_555 1_555
H7 C7 1_555 1_555
C8 C7 1_555 1_555
H8 C8 1_555 1_555
Co1_2 O2B 1_555 1_555
O1B C1B 1_555 1_555
O2B C1B 1_555 1_555
O2B_2 Co1 1_555 1_555
C1B C2B 1_555 1_555
O3B Co1 1_555 1_555
H1B O3B 1_555 1_555
H2B O3B 1_555 1_555
C3B N1 1_555 1_555
H3B C3B 1_555 1_555
C4B C5 1_555 1_555
H4B C4B 1_555 1_555
C6B N2 1_555 1_555
H6B C6B 1_555 1_555
C7B C8 1_555 1_555
H7B C7B 1_555 1_555
C3B C4B 1_555 1_555
C6B C7B 1_555 1_555

#END
