
#######################################################################
#
#                 Cambridge Crystallographic Data Centre
#                                CCDC 
#
#######################################################################
#
# If this CIF has been generated from an entry in the Cambridge 
# Structural Database, then it will include bibliographic, chemical, 
# crystal, experimental, refinement or atomic coordinate data resulting 
# from the CCDC's data processing and validation procedures.
#
#######################################################################

data_KIFPAR
_symmetry_cell_setting           monoclinic
_symmetry_space_group_name_H-M   'C 2/c'
_symmetry_Int_Tables_number      15
_space_group_name_Hall           '-C 2yn'
loop_
_symmetry_equiv_pos_site_id
_symmetry_equiv_pos_as_xyz
1 x,y,z
2 1/2+x,1/2+y,z
3 -x,y,1/2-z
4 1/2-x,1/2+y,1/2-z
5 -x,-y,-z
6 1/2-x,1/2-y,-z
7 x,-y,1/2+z
8 1/2+x,1/2-y,1/2+z
_cell_length_a                   9.864(1)
_cell_length_b                   19.437(2)
_cell_length_c                   9.155(1)
_cell_angle_alpha                90
_cell_angle_beta                 115.31(1)
_cell_angle_gamma                90
_cell_volume                     1586.77
loop_
_atom_site_label
_atom_site_type_symbol
_atom_site_fract_x
_atom_site_fract_y
_atom_site_fract_z
Fe1 Fe 0.0000 0.709328(12) 0.7500
O1 O 0.19107(10) 0.66641(6) 0.52658(12)
O2 O 0.22356(9) 0.70985(5) 0.76626(11)
C1 C 0.26899(12) 0.68602(7) 0.66567(14)
C2 C 0.43338(13) 0.68307(7) 0.72520(15)
O3 O 0.08515(10) 0.70458(5) 1.00356(11)
H1 H 0.142(2) 0.7349(9) 1.075(2)
H2 H 0.014(2) 0.6937(10) 1.029(2)
N1 N 0.0000 0.82299(8) 0.7500
C3 C 0.06652(18) 0.85889(8) 0.67431(19)
H3 H 0.1138 0.8349 0.6212
C4 C 0.0682(2) 0.92982(10) 0.6714(3)
H4 H 0.1152 0.9528 0.6166
C5 C 0.0000 0.96616(14) 0.7500
H5 H 0.0000 1.0140 0.7500
N2 N 0.0000 0.59584(8) 0.7500
C6 C 0.09828(18) 0.56000(8) 0.87514(18)
H6 H 0.1686 0.5839 0.9627
C7 C 0.0999(2) 0.48889(9) 0.8800(2)
H7 H 0.1681 0.4658 0.9706
C8 C 0.0000 0.45278(12) 0.7500
H8 H 0.0000 0.4049 0.7500
Fe1_2 Fe 1.0000 0.709328(12) 0.7500
O1B O 0.80893(10) 0.66641(6) 0.97342(12)
O2B O 0.77644(9) 0.70985(5) 0.73374(11)
O2B_2 O -0.22356(9) 0.70985(5) 0.73374(11)
C1B C 0.73101(12) 0.68602(7) 0.83433(14)
C2B C 0.56662(13) 0.68307(7) 0.77480(15)
O3B O -0.08515(10) 0.70458(5) 0.49644(11)
H1B H -0.142(2) 0.7349(9) 0.425(2)
H2B H -0.014(2) 0.6937(10) 0.471(2)
C3B C -0.06652(18) 0.85889(8) 0.82569(19)
H3B H -0.1138 0.8349 0.8788
C4B C -0.0682(2) 0.92982(10) 0.8286(3)
H4B H -0.1152 0.9528 0.8834
C6B C -0.09828(18) 0.56000(8) 0.62486(18)
H6B H -0.1686 0.5839 0.5373
C7B C -0.0999(2) 0.48889(9) 0.6200(2)
H7B H -0.1681 0.4658 0.5294
loop_
_geom_bond_atom_site_label_1
_geom_bond_atom_site_label_2
_geom_bond_site_symmetry_1
_geom_bond_site_symmetry_2
Fe1 O2 1_555 1_555
O1 C1 1_555 1_555
O2 C1 1_555 1_555
C1 C2 1_555 1_555
C2 C2B 1_555 1_555
O3 Fe1 1_555 1_555
H1 O3 1_555 1_555
H2 O3 1_555 1_555
N1 Fe1 1_555 1_555
C3 N1 1_555 1_555
H3 C3 1_555 1_555
C4 C3 1_555 1_555
H4 C4 1_555 1_555
C5 C4 1_555 1_555
H5 C5 1_555 1_555
N2 Fe1 1_555 1_555
C6 N2 1_555 1_555
H6 C6 1_555 1_555
C7 C6 1_555 1_555
H7 C7 1_555 1_555
C8 C7 1_555 1_555
H8 C8 1_555 1_555
Fe1_2 O2B 1_555 1_555
O1B C1B 1_555 1_555
O2B C1B 1_555 1_555
O2B_2 Fe1 1_555 1_555
C1B C2B 1_555 1_555
O3B Fe1 1_555 1_555
H1B O3B 1_555 1_555
H2B O3B 1_555 1_555
C3B N1 1_555 1_555
H3B C3B 1_555 1_555
C4B C5 1_555 1_555
H4B C4B 1_555 1_555
C6B N2 1_555 1_555
H6B C6B 1_555 1_555
C7B C8 1_555 1_555
H7B C7B 1_555 1_555
C3B C4B 1_555 1_555
C6B C7B 1_555 1_555

#END
