
#######################################################################
#
#                 Cambridge Crystallographic Data Centre
#                                CCDC 
#
#######################################################################
#
# If this CIF has been generated from an entry in the Cambridge 
# Structural Database, then it will include bibliographic, chemical, 
# crystal, experimental, refinement or atomic coordinate data resulting 
# from the CCDC's data processing and validation procedures.
#
#######################################################################

data_KIFRUO
_symmetry_cell_setting           monoclinic
_symmetry_space_group_name_H-M   'P 21/c'
_symmetry_Int_Tables_number      14
_space_group_name_Hall           '-P 2ybc'
loop_
_symmetry_equiv_pos_site_id
_symmetry_equiv_pos_as_xyz
1 x,y,z
2 -x,1/2+y,1/2-z
3 -x,-y,-z
4 x,1/2-y,1/2+z
_cell_length_a                   13.5920(15)
_cell_length_b                   13.1870(15)
_cell_length_c                   8.5850(10)
_cell_angle_alpha                90
_cell_angle_beta                 107.9400(10)
_cell_angle_gamma                90
_cell_volume                     1463.94
loop_
_atom_site_label
_atom_site_type_symbol
_atom_site_fract_x
_atom_site_fract_y
_atom_site_fract_z
Cu1 Cu 0.41533(3) 0.04599(3) 0.91175(4)
N1 N 0.2843(2) 0.1288(2) 0.7565(3)
N2 N 0.0066(3) 0.3939(2) 0.4927(4)
C1 C 0.5824(3) 0.4822(2) 1.2729(4)
O1 O 0.4935(2) 0.16818(17) 1.0125(3)
O2 O 0.63806(18) 0.09150(17) 1.1605(3)
O3 O 0.49132(19) 0.45298(18) 1.2511(3)
O4 O 0.6368(2) 0.52787(19) 1.3997(3)
O5 O -0.0369(2) 0.2488(2) 0.3467(4)
C2 C 0.1019(3) 0.1457(3) 0.6289(5)
H1 H 0.0363 0.1175 0.6061
C3 C 0.1881(3) 0.0936(3) 0.7213(5)
H2 H 0.1785 0.0302 0.7615
C4 C 0.2965(3) 0.2196(3) 0.6969(5)
H3 H 0.3631 0.2449 0.7174
C5 C 0.2133(3) 0.2782(3) 0.6049(5)
H4 H 0.2248 0.3419 0.5675
C6 C 0.1154(3) 0.2414(3) 0.5705(5)
C7 C 0.0213(3) 0.2950(3) 0.4621(5)
C8 C 0.0518(4) 0.4470(3) 0.6484(5)
H5 H 0.1118 0.4101 0.7149
H6 H 0.0017 0.4504 0.7079
C9 C 0.0832(3) 0.5528(3) 0.6164(6)
H7 H 0.1091 0.5894 0.7190
H8 H 0.1380 0.5495 0.5661
C10 C 0.5837(3) 0.1693(2) 1.1092(4)
C11 C 0.6311(3) 0.2705(3) 1.1734(4)
H9 H 0.6150 0.2856 1.2734
H10 H 0.7057 0.2648 1.2012
C12 C 0.5959(3) 0.3579(3) 1.0569(4)
H11 H 0.5210 0.3565 1.0125
H12 H 0.6239 0.3500 0.9665
C13 C 0.6296(3) 0.4609(2) 1.1389(4)
H13 H 0.7043 0.4621 1.1845
H14 H 0.6095 0.5140 1.0569
N1B N -0.2843(2) 0.8712(2) 0.2435(3)
N2B N -0.0066(3) 0.6061(2) 0.5073(4)
O5B O 0.0369(2) 0.7512(2) 0.6533(4)
C2B C -0.1019(3) 0.8543(3) 0.3711(5)
H1B H -0.0363 0.8825 0.3939
C3B C -0.1881(3) 0.9064(3) 0.2787(5)
H2B H -0.1785 0.9698 0.2385
C4B C -0.2965(3) 0.7804(3) 0.3031(5)
H3B H -0.3631 0.7551 0.2826
C5B C -0.2133(3) 0.7218(3) 0.3951(5)
H4B H -0.2248 0.6581 0.4325
C6B C -0.1154(3) 0.7586(3) 0.4295(5)
C7B C -0.0213(3) 0.7050(3) 0.5379(5)
C8B C -0.0518(4) 0.5530(3) 0.3516(5)
H5B H -0.1118 0.5899 0.2851
H6B H -0.0017 0.5496 0.2921
C9B C -0.0832(3) 0.4472(3) 0.3836(6)
H7B H -0.1091 0.4106 0.2810
H8B H -0.1380 0.4505 0.4339
Cu1B Cu -0.41533(3) 0.95401(3) 0.08825(4)
C1B C -0.5824(3) 0.5178(2) -0.2729(4)
O1B O -0.4935(2) 0.83182(17) -0.0125(3)
O2B O -0.63806(18) 0.90850(17) -0.1605(3)
O3B O -0.49132(19) 0.54702(18) -0.2511(3)
O4B O -0.6368(2) 0.47213(19) -0.3997(3)
C10B C -0.5837(3) 0.8307(2) -0.1092(4)
C11B C -0.6311(3) 0.7295(3) -0.1734(4)
H9B H -0.6150 0.7144 -0.2734
H10B H -0.7057 0.7352 -0.2012
C12B C -0.5959(3) 0.6421(3) -0.0569(4)
H11B H -0.5210 0.6435 -0.0125
H12B H -0.6239 0.6500 0.0335
C13B C -0.6296(3) 0.5391(2) -0.1389(4)
H13B H -0.7043 0.5379 -0.1845
H14B H -0.6095 0.4860 -0.0569
Cu1_2 Cu -0.58467(3) 1.04599(3) -0.08825(4)
Cu1A Cu -0.41533(3) 0.54599(3) -0.41175(4)
Cu1A_2 Cu 0.58467(3) 0.54599(3) 1.58825(4)
Cu1B_2 Cu 0.58467(3) -0.04599(3) 1.08825(4)
Cu1C Cu -0.58467(3) 0.45401(3) -0.58825(4)
Cu1C_2 Cu 0.41533(3) 0.45401(3) 1.41175(4)
O2_2 O -0.36194(18) 1.09150(17) 0.1605(3)
O2B_2 O 0.36194(18) -0.09150(17) 0.8395(3)
O3A O -0.49132(19) 0.95298(18) 0.2489(3)
O3C O 0.49132(19) 0.04702(18) 0.7511(3)
O4A O 0.3632(2) 0.02787(19) 1.1003(3)
O4C O -0.3632(2) 0.97213(19) -0.1003(3)
O6 O 0.1734(5) 0.6168(5) 1.0353(8)
loop_
_geom_bond_atom_site_label_1
_geom_bond_atom_site_label_2
_geom_bond_site_symmetry_1
_geom_bond_site_symmetry_2
Cu1 N1 1_555 1_555
N1 C3 1_555 1_555
N2 C7 1_555 1_555
C1 O3 1_555 1_555
O1 Cu1 1_555 1_555
O2 C10 1_555 1_555
O3 Cu1C_2 1_555 1_555
O4 C1 1_555 1_555
O5 C7 1_555 1_555
C2 H1 1_555 1_555
C3 C2 1_555 1_555
H2 C3 1_555 1_555
C4 N1 1_555 1_555
H3 C4 1_555 1_555
C5 C4 1_555 1_555
H4 C5 1_555 1_555
C6 C2 1_555 1_555
C7 C6 1_555 1_555
C8 N2 1_555 1_555
H5 C8 1_555 1_555
H6 C8 1_555 1_555
C9 C8 1_555 1_555
H7 C9 1_555 1_555
H8 C9 1_555 1_555
C10 O1 1_555 1_555
C11 C10 1_555 1_555
H9 C11 1_555 1_555
H10 C11 1_555 1_555
C12 C11 1_555 1_555
H11 C12 1_555 1_555
H12 C12 1_555 1_555
C13 C1 1_555 1_555
H13 C13 1_555 1_555
H14 C13 1_555 1_555
N1B C3B 1_555 1_555
N2B C9 1_555 1_555
O5B C7B 1_555 1_555
C2B H1B 1_555 1_555
C3B C2B 1_555 1_555
H2B C3B 1_555 1_555
C4B N1B 1_555 1_555
H3B C4B 1_555 1_555
C5B C4B 1_555 1_555
H4B C5B 1_555 1_555
C6B C2B 1_555 1_555
C7B N2B 1_555 1_555
C8B N2B 1_555 1_555
H5B C8B 1_555 1_555
H6B C8B 1_555 1_555
C9B N2 1_555 1_555
H7B C9B 1_555 1_555
H8B C9B 1_555 1_555
Cu1B N1B 1_555 1_555
C1B O3B 1_555 1_555
O1B Cu1B 1_555 1_555
O2B C10B 1_555 1_555
O3B Cu1A 1_555 1_555
O4B C1B 1_555 1_555
C10B O1B 1_555 1_555
C11B C10B 1_555 1_555
H9B C11B 1_555 1_555
H10B C11B 1_555 1_555
C12B C11B 1_555 1_555
H11B C12B 1_555 1_555
H12B C12B 1_555 1_555
C13B C1B 1_555 1_555
H13B C13B 1_555 1_555
H14B C13B 1_555 1_555
Cu1_2 Cu1B 1_555 1_555
Cu1A Cu1C 1_555 1_555
Cu1A_2 O4 1_555 1_555
Cu1B_2 Cu1 1_555 1_555
Cu1C O4B 1_555 1_555
Cu1C_2 Cu1A_2 1_555 1_555
O2_2 Cu1B 1_555 1_555
O2B_2 Cu1 1_555 1_555
O3A Cu1B 1_555 1_555
O3C Cu1 1_555 1_555
O4A Cu1 1_555 1_555
O4C Cu1B 1_555 1_555
O2 Cu1B_2 1_555 1_555
C5 C6 1_555 1_555
C12 C13 1_555 1_555
C5B C6B 1_555 1_555
C6B C7B 1_555 1_555
C8B C9B 1_555 1_555
O2B Cu1_2 1_555 1_555
C12B C13B 1_555 1_555

#END
