
#######################################################################
#
#                 Cambridge Crystallographic Data Centre
#                                CCDC 
#
#######################################################################
#
# If this CIF has been generated from an entry in the Cambridge 
# Structural Database, then it will include bibliographic, chemical, 
# crystal, experimental, refinement or atomic coordinate data resulting 
# from the CCDC's data processing and validation procedures.
#
#######################################################################

data_KIFRUM
_symmetry_cell_setting           monoclinic
_symmetry_space_group_name_H-M   'P 21/c'
_symmetry_Int_Tables_number      14
_space_group_name_Hall           '-P 2ybc'
loop_
_symmetry_equiv_pos_site_id
_symmetry_equiv_pos_as_xyz
1 x,y,z
2 -x,1/2+y,1/2-z
3 -x,-y,-z
4 x,1/2-y,1/2+z
_cell_length_a                   12.451(7)
_cell_length_b                   8.952(5)
_cell_length_c                   8.061(5)
_cell_angle_alpha                90
_cell_angle_beta                 106.53(2)
_cell_angle_gamma                90
_cell_volume                     861.356
loop_
_atom_site_label
_atom_site_type_symbol
_atom_site_fract_x
_atom_site_fract_y
_atom_site_fract_z
Cu1 Cu 0.0000 0.0000 0.0000
S1 S 0.3742(1) 0.1160(2) 0.1210(3)
N1 N 0.1510(3) 0.0681(5) 0.0994(6)
N2 N -0.0406(3) 0.0651(5) 0.3007(5)
N3 N -0.0452(3) 0.2873(4) 0.4300(5)
N4 N -0.2181(3) 0.2502(4) 0.4992(5)
N5 N -0.1355(3) 0.0775(4) 0.3526(5)
C1 C 0.2451(4) 0.0869(5) 0.1109(6)
C2 C 0.0103(4) 0.1936(5) 0.3518(6)
C3 C -0.1368(3) 0.2104(5) 0.4325(6)
C4 C -0.3026(4) 0.1532(5) 0.4801(6)
C5 C -0.3041(4) 0.0143(6) 0.3973(7)
C6 C -0.2184(4) -0.0237(5) 0.3314(7)
C7 C -0.3973(4) 0.1981(6) 0.5477(7)
H1 H 0.0744 0.2190 0.3284
H2 H -0.3634 -0.0540 0.3864
H3 H -0.2161 -0.1222 0.2779
H4 H -0.3961 0.2917 0.5797
H5 H -0.3948 0.1558 0.6531
H6 H -0.4702 0.1815 0.4553
S1B S -0.3742(1) -0.1160(2) -0.1210(3)
N1B N -0.1510(3) -0.0681(5) -0.0994(6)
C1B C -0.2451(4) -0.0869(5) -0.1109(6)
N2B N 0.0406(3) -0.0651(5) -0.3007(5)
N3B N 0.0452(3) -0.2873(4) -0.4300(5)
N4B N 0.2181(3) -0.2502(4) -0.4992(5)
N5B N 0.1355(3) -0.0775(4) -0.3526(5)
C2B C -0.0103(4) -0.1936(5) -0.3518(6)
C3B C 0.1368(3) -0.2104(5) -0.4325(6)
C4B C 0.3026(4) -0.1532(5) -0.4801(6)
C5B C 0.3041(4) -0.0143(6) -0.3973(7)
C6B C 0.2184(4) 0.0237(5) -0.3314(7)
C7B C 0.3973(4) -0.1981(6) -0.5477(7)
H1B H -0.0744 -0.2190 -0.3284
H2B H 0.3634 0.0540 -0.3864
H3B H 0.2161 0.1222 -0.2779
H4B H 0.3961 -0.2917 -0.5797
H5B H 0.3948 -0.1558 -0.6531
H6B H 0.4702 -0.1815 -0.4553
N3A N 0.0452(3) -0.2127(4) 0.0700(5)
N3C N -0.0452(3) 0.2127(4) -0.0700(5)
Cu1A Cu 0.0000 0.5000 0.5000
Cu1A_2 Cu 0.0000 -0.5000 -0.5000
loop_
_geom_bond_atom_site_label_1
_geom_bond_atom_site_label_2
_geom_bond_site_symmetry_1
_geom_bond_site_symmetry_2
Cu1 N1 1_555 1_555
S1 C1 1_555 1_555
N1 C1 1_555 1_555
N2 Cu1 1_555 1_555
N3 C2 1_555 1_555
N4 C3 1_555 1_555
N5 N2 1_555 1_555
C2 N2 1_555 1_555
C3 N3 1_555 1_555
C4 N4 1_555 1_555
C5 C4 1_555 1_555
C6 N5 1_555 1_555
C7 C4 1_555 1_555
H1 C2 1_555 1_555
H2 C5 1_555 1_555
H3 C6 1_555 1_555
H4 C7 1_555 1_555
H5 C7 1_555 1_555
H6 C7 1_555 1_555
S1B C1B 1_555 1_555
N1B Cu1 1_555 1_555
C1B N1B 1_555 1_555
N2B Cu1 1_555 1_555
N3B C2B 1_555 1_555
N4B C3B 1_555 1_555
N5B N2B 1_555 1_555
C2B N2B 1_555 1_555
C3B N3B 1_555 1_555
C4B N4B 1_555 1_555
C5B C4B 1_555 1_555
C6B N5B 1_555 1_555
C7B C4B 1_555 1_555
H1B C2B 1_555 1_555
H2B C5B 1_555 1_555
H3B C6B 1_555 1_555
H4B C7B 1_555 1_555
H5B C7B 1_555 1_555
H6B C7B 1_555 1_555
N3A Cu1 1_555 1_555
N3C Cu1 1_555 1_555
Cu1A N3 1_555 1_555
Cu1A_2 N3B 1_555 1_555
N5 C3 1_555 1_555
C5 C6 1_555 1_555
N5B C3B 1_555 1_555
C5B C6B 1_555 1_555

#END
