
#######################################################################
#
#                 Cambridge Crystallographic Data Centre
#                                CCDC 
#
#######################################################################
#
# If this CIF has been generated from an entry in the Cambridge 
# Structural Database, then it will include bibliographic, chemical, 
# crystal, experimental, refinement or atomic coordinate data resulting 
# from the CCDC's data processing and validation procedures.
#
#######################################################################

data_KIFSOI
_symmetry_cell_setting           triclinic
_symmetry_space_group_name_H-M   'P -1'
_symmetry_Int_Tables_number      2
_space_group_name_Hall           '-P 1'
loop_
_symmetry_equiv_pos_site_id
_symmetry_equiv_pos_as_xyz
1 x,y,z
2 -x,-y,-z
_cell_length_a                   12.1650(2)
_cell_length_b                   12.5716(2)
_cell_length_c                   16.4500(4)
_cell_angle_alpha                80.715(1)
_cell_angle_beta                 80.171(1)
_cell_angle_gamma                68.973(1)
_cell_volume                     2300.02
loop_
_atom_site_label
_atom_site_type_symbol
_atom_site_fract_x
_atom_site_fract_y
_atom_site_fract_z
C1 C 0.4225(6) 1.4585(7) 0.1075(4)
H1 H 0.4436 1.5025 0.1417
H2 H 0.4774 1.3803 0.1133
C2 C 0.4359(6) 1.5090(7) 0.0163(4)
H3 H 0.4037 1.4730 -0.0170
H4 H 0.3909 1.5905 0.0117
C3 C 0.5629(6) 1.0162(5) 0.3834(3)
H5 H 0.6132 1.0594 0.3881
H6 H 0.4899 1.0701 0.3643
C4 C 0.5339(6) 0.9576(5) 0.4691(3)
H7 H 0.4871 0.9112 0.4641
H8 H 0.6072 0.9069 0.4896
C5 C 0.2754(5) 1.3969(5) 0.2506(4)
C6 C 0.1678(6) 1.3868(6) 0.2924(4)
H9 H 0.1015 1.4099 0.2642
C7 C 0.1602(7) 1.3437(7) 0.3735(5)
H10 H 0.0895 1.3354 0.4003
C8 C 0.2576(8) 1.3123(6) 0.4162(5)
H11 H 0.2512 1.2864 0.4725
C9 C 0.3620(8) 1.3191(7) 0.3762(5)
H12 H 0.4277 1.2953 0.4049
C10 C 0.3729(6) 1.3613(6) 0.2923(4)
H13 H 0.4452 1.3652 0.2653
C11 C 0.1783(5) 1.6062(5) 0.1444(4)
C12 C 0.0840(8) 1.6465(8) 0.1002(6)
H14 H 0.0720 1.5987 0.0676
C13 C 0.0069(9) 1.7563(9) 0.1032(7)
H15 H -0.0597 1.7810 0.0752
C14 C 0.0263(8) 1.8309(7) 0.1473(6)
H16 H -0.0249 1.9064 0.1478
C15 C 0.1215(10) 1.7919(8) 0.1899(7)
H17 H 0.1352 1.8409 0.2206
C16 C 0.1999(8) 1.6785(7) 0.1884(6)
H18 H 0.2659 1.6528 0.2170
C17 C 0.0797(9) 1.2365(9) 0.1248(8)
H19 H 0.0307 1.2983 0.0893
H20 H 0.0728 1.2642 0.1778
C18 C 0.0372(11) 1.1410(12) 0.1373(9)
H21 H 0.0511 1.1086 0.0860
H22 H -0.0464 1.1671 0.1561
H23 H 0.0784 1.0839 0.1783
C19 C 0.244(2) 1.3943(18) -0.1031(9)
H24 H 0.2504 1.4537 -0.0753
H25 H 0.3218 1.3575 -0.1315
C20 C 0.180(4) 1.446(3) -0.159(2)
H26 H 0.2259 1.4746 -0.2045
H27 H 0.1145 1.5084 -0.1375
H28 H 0.1503 1.3938 -0.1776
C21 C 0.4505(16) 0.6666(11) 0.3879(10)
H29 H 0.4438 0.6994 0.4387
H30 H 0.5342 0.6291 0.3703
C22 C 0.392(2) 0.5824(15) 0.4043(10)
H31 H 0.3122 0.6166 0.4293
H32 H 0.4342 0.5193 0.4414
H33 H 0.3915 0.5553 0.3532
C23 C 0.2227(10) 0.995(2) 0.3383(13)
H34 H 0.1942 1.0615 0.2989
H35 H 0.1979 0.9349 0.3250
C24 C 0.1724(12) 1.0213(15) 0.4159(11)
H36 H 0.2027 0.9564 0.4555
H37 H 0.0879 1.0416 0.4193
H38 H 0.1909 1.0849 0.4276
C25 C 0.7750(5) 0.8228(5) 0.3431(3)
C26 C 0.8520(7) 0.8665(7) 0.3680(4)
H39 H 0.8334 0.9454 0.3658
C27 C 0.9555(7) 0.7933(9) 0.3959(5)
H40 H 1.0061 0.8234 0.4133
C28 C 0.9860(8) 0.6784(9) 0.3987(6)
H41 H 1.0580 0.6302 0.4161
C29 C 0.9105(8) 0.6335(8) 0.3758(6)
H42 H 0.9304 0.5544 0.3789
C30 C 0.8037(7) 0.7056(6) 0.3477(5)
H43 H 0.7523 0.6748 0.3322
C31 C 0.6729(5) 0.9969(5) 0.2114(3)
C32 C 0.6959(5) 0.9452(6) 0.1395(4)
H44 H 0.6894 0.8733 0.1414
C33 C 0.7288(6) 1.0008(7) 0.0637(4)
H45 H 0.7445 0.9658 0.0153
C34 C 0.7380(6) 1.1059(7) 0.0607(4)
H46 H 0.7595 1.1426 0.0100
C35 C 0.7152(7) 1.1600(7) 0.1335(4)
H47 H 0.7211 1.2322 0.1315
C36 C 0.6839(6) 1.1034(6) 0.2079(4)
H48 H 0.6699 1.1374 0.2566
Ag1 Ag 0.44054(7) 1.01613(9) 0.10152(5)
N1 N 0.2233(5) 1.4022(5) 0.0884(4)
N2 N 0.5669(5) 0.8386(4) 0.2940(3)
O1 O 0.1955(5) 1.2066(5) 0.0894(5)
O2 O 0.2229(7) 1.3105(7) -0.0385(4)
O3 O 0.4055(8) 0.7490(10) 0.3306(9)
O4 O 0.3526(5) 0.9553(8) 0.3292(5)
P1 P 0.27494(12) 1.45885(14) 0.14406(9)
P2 P 0.26513(14) 1.28798(16) 0.04720(10)
P3 P 0.63693(12) 0.91656(12) 0.30742(8)
P4 P 0.43688(15) 0.85174(15) 0.28438(10)
S1 S 0.43765(18) 1.1976(2) 0.04178(17)
S2 S 0.4009(3) 0.8507(3) 0.17178(18)
C1A C 0.5775(6) 1.5415(7) -0.1075(4)
H1A H 0.5564 1.4975 -0.1417
H2A H 0.5226 1.6197 -0.1133
C2A C 0.5641(6) 1.4910(7) -0.0163(4)
H3A H 0.5963 1.5270 0.0170
H4A H 0.6091 1.4095 -0.0117
C3A C 0.4371(6) 0.9838(5) 0.6166(3)
H5A H 0.3868 0.9406 0.6119
H6A H 0.5101 0.9299 0.6357
C4A C 0.4661(6) 1.0424(5) 0.5309(3)
H7A H 0.5129 1.0888 0.5359
H8A H 0.3928 1.0931 0.5104
C5A C 0.7246(5) 1.6031(5) -0.2506(4)
C6A C 0.8322(6) 1.6132(6) -0.2924(4)
H9A H 0.8985 1.5901 -0.2642
C7A C 0.8398(7) 1.6563(7) -0.3735(5)
H10A H 0.9105 1.6646 -0.4003
C8A C 0.7424(8) 1.6877(6) -0.4162(5)
H11A H 0.7488 1.7136 -0.4725
C9A C 0.6380(8) 1.6809(7) -0.3762(5)
H12A H 0.5723 1.7047 -0.4049
C10A C 0.6271(6) 1.6387(6) -0.2923(4)
H13A H 0.5548 1.6348 -0.2653
C11A C 0.8217(5) 1.3938(5) -0.1444(4)
C12A C 0.9160(8) 1.3535(8) -0.1002(6)
H14A H 0.9280 1.4013 -0.0676
C13A C 0.9931(9) 1.2437(9) -0.1032(7)
H15A H 1.0597 1.2190 -0.0752
C14A C 0.9737(8) 1.1691(7) -0.1473(6)
H16A H 1.0249 1.0936 -0.1478
C15A C 0.8785(10) 1.2081(8) -0.1899(7)
H17A H 0.8648 1.1591 -0.2206
C16A C 0.8001(8) 1.3215(7) -0.1884(6)
H18A H 0.7341 1.3472 -0.2170
C17A C 0.9203(9) 1.7635(9) -0.1248(8)
H19A H 0.9693 1.7017 -0.0893
H20A H 0.9272 1.7358 -0.1778
C18A C 0.9628(11) 1.8590(12) -0.1373(9)
H21A H 0.9489 1.8914 -0.0860
H22A H 1.0464 1.8329 -0.1561
H23A H 0.9216 1.9161 -0.1783
C19A C 0.756(2) 1.6057(18) 0.1031(9)
H24A H 0.7496 1.5463 0.0753
H25A H 0.6782 1.6425 0.1315
C20A C 0.820(4) 1.554(3) 0.159(2)
H26A H 0.7741 1.5254 0.2045
H27A H 0.8855 1.4916 0.1375
H28A H 0.8497 1.6062 0.1776
C21A C 0.5495(16) 1.3334(11) 0.6121(10)
H29A H 0.5562 1.3006 0.5613
H30A H 0.4658 1.3709 0.6297
C22A C 0.608(2) 1.4176(15) 0.5957(10)
H31A H 0.6878 1.3834 0.5707
H32A H 0.5658 1.4807 0.5586
H33A H 0.6085 1.4447 0.6468
C23A C 0.7773(10) 1.005(2) 0.6617(13)
H34A H 0.8058 0.9385 0.7011
H35A H 0.8021 1.0651 0.6750
C24A C 0.8276(12) 0.9787(15) 0.5841(11)
H36A H 0.7973 1.0436 0.5445
H37A H 0.9121 0.9584 0.5807
H38A H 0.8091 0.9151 0.5724
C25A C 0.2250(5) 1.1772(5) 0.6569(3)
C26A C 0.1480(7) 1.1335(7) 0.6320(4)
H39A H 0.1666 1.0546 0.6342
C27A C 0.0445(7) 1.2067(9) 0.6041(5)
H40A H -0.0061 1.1766 0.5867
C28A C 0.0140(8) 1.3216(9) 0.6013(6)
H41A H -0.0580 1.3698 0.5839
C29A C 0.0895(8) 1.3665(8) 0.6242(6)
H42A H 0.0696 1.4456 0.6211
C30A C 0.1963(7) 1.2944(6) 0.6523(5)
H43A H 0.2477 1.3252 0.6678
C31A C 0.3271(5) 1.0031(5) 0.7886(3)
C32A C 0.3041(5) 1.0548(6) 0.8605(4)
H44A H 0.3106 1.1267 0.8586
C33A C 0.2712(6) 0.9992(7) 0.9363(4)
H45A H 0.2555 1.0342 0.9847
C34A C 0.2620(6) 0.8941(7) 0.9393(4)
H46A H 0.2405 0.8574 0.9900
C35A C 0.2848(7) 0.8400(7) 0.8665(4)
H47A H 0.2789 0.7678 0.8685
C36A C 0.3161(6) 0.8966(6) 0.7921(4)
H48A H 0.3301 0.8626 0.7434
Ag1A Ag 0.55946(7) 1.98387(9) -0.10152(5)
Ag1A_2 Ag 0.55946(7) 0.98387(9) 0.89848(5)
N1A N 0.7767(5) 1.5978(5) -0.0884(4)
N2A N 0.4331(5) 1.1614(4) 0.7060(3)
O1A O 0.8045(5) 1.7934(5) -0.0894(5)
O2A O 0.7771(7) 1.6895(7) 0.0385(4)
O3A O 0.5945(8) 1.2510(10) 0.6694(9)
O4A O 0.6474(5) 1.0447(8) 0.6708(5)
P1A P 0.72506(12) 1.54115(14) -0.14406(9)
P2A P 0.73487(14) 1.71202(16) -0.04720(10)
P3A P 0.36307(12) 1.08344(12) 0.69258(8)
P4A P 0.56312(15) 1.14826(15) 0.71562(10)
S1A S 0.56235(18) 1.8024(2) -0.04178(17)
S2A S 0.5991(3) 1.1493(3) 0.82822(18)
S2A_2 S 0.5991(3) 2.1493(3) -0.17178(18)
F1 F 0.8565(9) 0.2530(8) 0.4595(5)
F2 F 0.7294(10) 0.3260(7) 0.2614(5)
F3 F 0.9262(9) 0.3257(11) 0.3070(6)
F4 F 0.6664(8) 0.2494(11) 0.4084(6)
F5 F 0.8698(11) 0.1376(7) 0.3352(7)
F6 F 0.7169(10) 0.4422(7) 0.3807(7)
Sb1 Sb 0.79489(5) 0.29080(4) 0.36045(3)
loop_
_geom_bond_atom_site_label_1
_geom_bond_atom_site_label_2
_geom_bond_site_symmetry_1
_geom_bond_site_symmetry_2
C1 H1 1_555 1_555
H2 C1 1_555 1_555
C2 C1 1_555 1_555
H3 C2 1_555 1_555
H4 C2 1_555 1_555
C3 H5 1_555 1_555
H6 C3 1_555 1_555
C4 C3 1_555 1_555
H7 C4 1_555 1_555
H8 C4 1_555 1_555
C5 C6 1_555 1_555
C6 H9 1_555 1_555
C7 C6 1_555 1_555
H10 C7 1_555 1_555
C8 C7 1_555 1_555
H11 C8 1_555 1_555
C9 C8 1_555 1_555
H12 C9 1_555 1_555
C10 C5 1_555 1_555
H13 C10 1_555 1_555
C11 C12 1_555 1_555
C12 H14 1_555 1_555
C13 C12 1_555 1_555
H15 C13 1_555 1_555
C14 C13 1_555 1_555
H16 C14 1_555 1_555
C15 C14 1_555 1_555
H17 C15 1_555 1_555
C16 C11 1_555 1_555
H18 C16 1_555 1_555
C17 H19 1_555 1_555
H20 C17 1_555 1_555
C18 C17 1_555 1_555
H21 C18 1_555 1_555
H22 C18 1_555 1_555
H23 C18 1_555 1_555
C19 H24 1_555 1_555
H25 C19 1_555 1_555
C20 C19 1_555 1_555
H26 C20 1_555 1_555
H27 C20 1_555 1_555
H28 C20 1_555 1_555
C21 H29 1_555 1_555
H30 C21 1_555 1_555
C22 C21 1_555 1_555
H31 C22 1_555 1_555
H32 C22 1_555 1_555
H33 C22 1_555 1_555
C23 H34 1_555 1_555
H35 C23 1_555 1_555
C24 C23 1_555 1_555
H36 C24 1_555 1_555
H37 C24 1_555 1_555
H38 C24 1_555 1_555
C25 C26 1_555 1_555
C26 H39 1_555 1_555
C27 C26 1_555 1_555
H40 C27 1_555 1_555
C28 C27 1_555 1_555
H41 C28 1_555 1_555
C29 C28 1_555 1_555
H42 C29 1_555 1_555
C30 C25 1_555 1_555
H43 C30 1_555 1_555
C31 C32 1_555 1_555
C32 H44 1_555 1_555
C33 C32 1_555 1_555
H45 C33 1_555 1_555
C34 C33 1_555 1_555
H46 C34 1_555 1_555
C35 C34 1_555 1_555
H47 C35 1_555 1_555
C36 C31 1_555 1_555
H48 C36 1_555 1_555
Ag1 S1 1_555 1_555
F1 Sb1 1_555 1_555
F2 Sb1 1_555 1_555
F3 Sb1 1_555 1_555
F4 Sb1 1_555 1_555
F5 Sb1 1_555 1_555
F6 Sb1 1_555 1_555
N1 P1 1_555 1_555
N2 P3 1_555 1_555
O1 C17 1_555 1_555
O2 C19 1_555 1_555
O3 C21 1_555 1_555
O4 C23 1_555 1_555
P1 C1 1_555 1_555
P2 N1 1_555 1_555
P3 C3 1_555 1_555
P4 N2 1_555 1_555
S1 P2 1_555 1_555
S2 Ag1 1_555 1_555
C1A H1A 1_555 1_555
H2A C1A 1_555 1_555
C2A C2 1_555 1_555
H3A C2A 1_555 1_555
H4A C2A 1_555 1_555
C3A H5A 1_555 1_555
H6A C3A 1_555 1_555
C4A C4 1_555 1_555
H7A C4A 1_555 1_555
H8A C4A 1_555 1_555
C5A C6A 1_555 1_555
C6A H9A 1_555 1_555
C7A C6A 1_555 1_555
H10A C7A 1_555 1_555
C8A C7A 1_555 1_555
H11A C8A 1_555 1_555
C9A C8A 1_555 1_555
H12A C9A 1_555 1_555
C10A C5A 1_555 1_555
H13A C10A 1_555 1_555
C11A C12A 1_555 1_555
C12A H14A 1_555 1_555
C13A C12A 1_555 1_555
H15A C13A 1_555 1_555
C14A C13A 1_555 1_555
H16A C14A 1_555 1_555
C15A C14A 1_555 1_555
H17A C15A 1_555 1_555
C16A C11A 1_555 1_555
H18A C16A 1_555 1_555
C17A H19A 1_555 1_555
H20A C17A 1_555 1_555
C18A C17A 1_555 1_555
H21A C18A 1_555 1_555
H22A C18A 1_555 1_555
H23A C18A 1_555 1_555
C19A H24A 1_555 1_555
H25A C19A 1_555 1_555
C20A C19A 1_555 1_555
H26A C20A 1_555 1_555
H27A C20A 1_555 1_555
H28A C20A 1_555 1_555
C21A H29A 1_555 1_555
H30A C21A 1_555 1_555
C22A C21A 1_555 1_555
H31A C22A 1_555 1_555
H32A C22A 1_555 1_555
H33A C22A 1_555 1_555
C23A H34A 1_555 1_555
H35A C23A 1_555 1_555
C24A C23A 1_555 1_555
H36A C24A 1_555 1_555
H37A C24A 1_555 1_555
H38A C24A 1_555 1_555
C25A C26A 1_555 1_555
C26A H39A 1_555 1_555
C27A C26A 1_555 1_555
H40A C27A 1_555 1_555
C28A C27A 1_555 1_555
H41A C28A 1_555 1_555
C29A C28A 1_555 1_555
H42A C29A 1_555 1_555
C30A C25A 1_555 1_555
H43A C30A 1_555 1_555
C31A C32A 1_555 1_555
C32A H44A 1_555 1_555
C33A C32A 1_555 1_555
H45A C33A 1_555 1_555
C34A C33A 1_555 1_555
H46A C34A 1_555 1_555
C35A C34A 1_555 1_555
H47A C35A 1_555 1_555
C36A C31A 1_555 1_555
H48A C36A 1_555 1_555
Ag1A S1A 1_555 1_555
Ag1A_2 S2A 1_555 1_555
N1A P1A 1_555 1_555
N2A P3A 1_555 1_555
O1A C17A 1_555 1_555
O2A C19A 1_555 1_555
O3A C21A 1_555 1_555
O4A C23A 1_555 1_555
P1A C1A 1_555 1_555
P2A N1A 1_555 1_555
P3A C3A 1_555 1_555
P4A N2A 1_555 1_555
S1A P2A 1_555 1_555
S2A P4A 1_555 1_555
S2A_2 Ag1A 1_555 1_555
C5 P1 1_555 1_555
C9 C10 1_555 1_555
C11 P1 1_555 1_555
C15 C16 1_555 1_555
C25 P3 1_555 1_555
C29 C30 1_555 1_555
C31 P3 1_555 1_555
C35 C36 1_555 1_555
O1 P2 1_555 1_555
O2 P2 1_555 1_555
O3 P4 1_555 1_555
O4 P4 1_555 1_555
P4 S2 1_555 1_555
C1A C2A 1_555 1_555
C3A C4A 1_555 1_555
C5A P1A 1_555 1_555
C9A C10A 1_555 1_555
C11A P1A 1_555 1_555
C15A C16A 1_555 1_555
C25A P3A 1_555 1_555
C29A C30A 1_555 1_555
C31A P3A 1_555 1_555
C35A C36A 1_555 1_555
O1A P2A 1_555 1_555
O2A P2A 1_555 1_555
O3A P4A 1_555 1_555
O4A P4A 1_555 1_555

#END
