
#######################################################################
#
#                 Cambridge Crystallographic Data Centre
#                                CCDC 
#
#######################################################################
#
# If this CIF has been generated from an entry in the Cambridge 
# Structural Database, then it will include bibliographic, chemical, 
# crystal, experimental, refinement or atomic coordinate data resulting 
# from the CCDC's data processing and validation procedures.
#
#######################################################################

data_KIFTIE
_symmetry_cell_setting           monoclinic
_symmetry_space_group_name_H-M   'P 21/c'
_symmetry_Int_Tables_number      14
_space_group_name_Hall           '-P 2ybc'
loop_
_symmetry_equiv_pos_site_id
_symmetry_equiv_pos_as_xyz
1 x,y,z
2 -x,1/2+y,1/2-z
3 -x,-y,-z
4 x,1/2-y,1/2+z
_cell_length_a                   11.5656(5)
_cell_length_b                   21.4632(6)
_cell_length_c                   11.8959(5)
_cell_angle_alpha                90
_cell_angle_beta                 108.644(4)
_cell_angle_gamma                90
_cell_volume                     2798.01
loop_
_atom_site_label
_atom_site_type_symbol
_atom_site_fract_x
_atom_site_fract_y
_atom_site_fract_z
Co1 Co 0.60877(8) 0.25910(4) 0.34574(8)
C1 C 1.3676(7) 0.2157(5) 0.6448(8)
H1 H 1.4174 0.1907 0.6158
C2 C 1.2495(8) 0.2181(5) 0.5828(9)
H2 H 1.2182 0.1941 0.5146
C3 C 1.1750(6) 0.2561(3) 0.6205(6)
C4 C 1.2305(8) 0.2910(4) 0.7196(8)
H3 H 1.1846 0.3193 0.7469
C5 C 1.3501(7) 0.2850(4) 0.7779(8)
H4 H 1.3845 0.3096 0.8446
C6 C 0.8697(6) 0.2290(4) 0.3948(6)
H5 H 0.8359 0.2066 0.3251
C7 C 0.9909(7) 0.2267(4) 0.4511(7)
H6 H 1.0391 0.2022 0.4192
C8 C 1.0467(6) 0.2597(3) 0.5555(6)
C9 C 0.9709(7) 0.2956(3) 0.6007(7)
H7 H 1.0027 0.3185 0.6701
C10 C 0.8525(7) 0.2960(3) 0.5420(7)
H8 H 0.8022 0.3199 0.5722
C11 C 0.5554(7) 0.3593(3) 0.5119(7)
H9 H 0.5612 0.3243 0.5596
C12 C 0.5245(7) 0.4157(3) 0.5525(7)
H10 H 0.5083 0.4184 0.6240
C13 C 0.5188(6) 0.4695(3) 0.4790(6)
C14 C 0.5432(7) 0.4624(3) 0.3726(7)
H11 H 0.5389 0.4965 0.3231
C15 C 0.5743(7) 0.4036(3) 0.3405(7)
H12 H 0.5934 0.3997 0.2706
C16 C 0.6488(6) 0.1931(3) 0.5950(6)
C17 C 0.7401(7) 0.1458(3) 0.5806(6)
C18 C 0.8401(8) 0.1355(4) 0.6815(7)
H13 H 0.8466 0.1557 0.7524
C19 C 0.9267(9) 0.0957(5) 0.6740(8)
H14 H 0.9963 0.0899 0.7391
C20 C 0.9129(9) 0.0623(4) 0.5666(9)
H15 H 0.9722 0.0337 0.5637
C21 C 0.8130(8) 0.0718(3) 0.4673(7)
C22 C 0.7261(6) 0.1140(3) 0.4721(6)
C23 C 0.6166(6) 0.1216(3) 0.3594(6)
C24 C 0.8397(10) 0.0532(5) 0.2651(10)
C25 C 0.8157(8) -0.0014(5) 0.1800(8)
C26 C 0.8335(9) -0.0100(5) 0.0708(9)
C27 C 0.8048(9) -0.0679(5) 0.0148(8)
H16 H 0.8162 -0.0745 -0.0582
C28 C 0.7595(9) -0.1154(6) 0.0676(11)
H17 H 0.7407 -0.1536 0.0292
C29 C 0.7416(9) -0.1073(5) 0.1760(11)
H18 H 0.7111 -0.1395 0.2107
C30 C 0.7707(8) -0.0495(5) 0.2322(10)
C31 C 0.7595(10) -0.0266(5) 0.3463(11)
N1 N 1.4200(5) 0.2466(2) 0.7461(5)
N2 N 0.7989(5) 0.2630(2) 0.4385(5)
N3 N 0.5777(5) 0.3519(2) 0.4071(5)
N4 N 0.8008(7) 0.0367(3) 0.3612(6)
N5 N 0.8711(12) 0.0369(6) 0.0236(12)
H19 H 0.8843 0.0724 0.0588
H20 H 0.8829 0.0323 -0.0438
O1 O 0.5827(4) 0.22024(19) 0.5024(4)
O2 O 0.6470(4) 0.2010(2) 0.6998(4)
O3 O 0.6179(5) 0.16650(19) 0.2910(4)
O4 O 0.5407(5) 0.0819(2) 0.3422(5)
O5 O 0.8842(9) 0.1038(4) 0.2581(8)
O6 O 0.7269(10) -0.0542(4) 0.4146(11)
C11B C 0.4446(7) 0.6407(3) 0.4881(7)
H9B H 0.4388 0.6757 0.4404
C12B C 0.4755(7) 0.5843(3) 0.4475(7)
H10B H 0.4917 0.5816 0.3760
C13B C 0.4812(6) 0.5305(3) 0.5210(6)
C14B C 0.4568(7) 0.5376(3) 0.6274(7)
H11B H 0.4611 0.5035 0.6769
C15B C 0.4257(7) 0.5964(3) 0.6595(7)
H12B H 0.4066 0.6003 0.7294
N3B N 0.4223(5) 0.6481(2) 0.5929(5)
Co1B Co 0.39123(8) 0.74090(4) 0.65426(8)
C1B C -0.3676(7) 0.7843(5) 0.3552(8)
H1B H -0.4174 0.8093 0.3842
C2B C -0.2495(8) 0.7819(5) 0.4172(9)
H2B H -0.2182 0.8059 0.4854
C3B C -0.1750(6) 0.7439(3) 0.3795(6)
C4B C -0.2305(8) 0.7090(4) 0.2804(8)
H3B H -0.1846 0.6807 0.2531
C5B C -0.3501(7) 0.7150(4) 0.2221(8)
H4B H -0.3845 0.6904 0.1554
C6B C 0.1303(6) 0.7710(4) 0.6052(6)
H5B H 0.1641 0.7934 0.6749
C7B C 0.0091(7) 0.7733(4) 0.5489(7)
H6B H -0.0391 0.7978 0.5808
C8B C -0.0467(6) 0.7403(3) 0.4445(6)
C9B C 0.0291(7) 0.7044(3) 0.3993(7)
H7B H -0.0027 0.6815 0.3299
C10B C 0.1475(7) 0.7040(3) 0.4580(7)
H8B H 0.1978 0.6801 0.4278
C16B C 0.3512(6) 0.8069(3) 0.4050(6)
C17B C 0.2599(7) 0.8542(3) 0.4194(6)
C18B C 0.1599(8) 0.8645(4) 0.3185(7)
H13B H 0.1534 0.8443 0.2476
C19B C 0.0733(9) 0.9043(5) 0.3260(8)
H14B H 0.0037 0.9101 0.2609
C20B C 0.0871(9) 0.9377(4) 0.4334(9)
H15B H 0.0278 0.9663 0.4363
C21B C 0.1870(8) 0.9282(3) 0.5327(7)
C22B C 0.2739(6) 0.8860(3) 0.5279(6)
C23B C 0.3834(6) 0.8784(3) 0.6406(6)
C24B C 0.1603(10) 0.9468(5) 0.7349(10)
C25B C 0.1843(8) 1.0014(5) 0.8200(8)
C26B C 0.1665(9) 1.0100(5) 0.9292(9)
C27B C 0.1952(9) 1.0679(5) 0.9852(8)
H16B H 0.1838 1.0745 1.0582
C28B C 0.2405(9) 1.1154(6) 0.9324(11)
H17B H 0.2593 1.1536 0.9708
C29B C 0.2584(9) 1.1073(5) 0.8240(11)
H18B H 0.2889 1.1395 0.7893
C30B C 0.2293(8) 1.0495(5) 0.7678(10)
C31B C 0.2405(10) 1.0266(5) 0.6537(11)
N1B N -0.4200(5) 0.7534(2) 0.2539(5)
N2B N 0.2011(5) 0.7370(2) 0.5615(5)
N4B N 0.1992(7) 0.9633(3) 0.6388(6)
N5B N 0.1289(12) 0.9631(6) 0.9764(12)
H19B H 0.1157 0.9276 0.9412
H20B H 0.1171 0.9677 1.0438
O1B O 0.4173(4) 0.77976(19) 0.4976(4)
O2B O 0.3530(4) 0.7990(2) 0.3002(4)
O3B O 0.3821(5) 0.83350(19) 0.7090(4)
O4B O 0.4593(5) 0.9181(2) 0.6578(5)
O5B O 0.1158(9) 0.8962(4) 0.7419(8)
O6B O 0.2731(10) 1.0542(4) 0.5854(11)
Co1A Co -0.60877(8) 0.75910(4) 0.15426(8)
Co1A_2 Co 0.39123(8) 0.75910(4) 0.15426(8)
Co1C Co 0.60877(8) 0.24090(4) 0.84574(8)
Co1C_2 Co 1.60877(8) 0.24090(4) 0.84574(8)
N1A N 0.5800(5) 0.7466(2) 0.7539(5)
N1C N 0.4200(5) 0.2534(2) 0.2461(5)
O2A O 0.3530(4) 0.7010(2) 0.8002(4)
O2C O 0.6470(4) 0.2990(2) 0.1998(4)
loop_
_geom_bond_atom_site_label_1
_geom_bond_atom_site_label_2
_geom_bond_site_symmetry_1
_geom_bond_site_symmetry_2
Co1 N2 1_555 1_555
C1 H1 1_555 1_555
C2 C1 1_555 1_555
H2 C2 1_555 1_555
C3 C2 1_555 1_555
C4 C3 1_555 1_555
H3 C4 1_555 1_555
C5 C4 1_555 1_555
H4 C5 1_555 1_555
C6 H5 1_555 1_555
C7 C6 1_555 1_555
H6 C7 1_555 1_555
C8 C3 1_555 1_555
C9 C8 1_555 1_555
H7 C9 1_555 1_555
C10 C9 1_555 1_555
H8 C10 1_555 1_555
C11 H9 1_555 1_555
C12 C11 1_555 1_555
H10 C12 1_555 1_555
C13 C12 1_555 1_555
C14 C13 1_555 1_555
H11 C14 1_555 1_555
C15 C14 1_555 1_555
H12 C15 1_555 1_555
C16 C17 1_555 1_555
C17 C18 1_555 1_555
C18 H13 1_555 1_555
C19 C18 1_555 1_555
H14 C19 1_555 1_555
C20 C19 1_555 1_555
H15 C20 1_555 1_555
C21 C20 1_555 1_555
C22 C17 1_555 1_555
C23 C22 1_555 1_555
C24 C25 1_555 1_555
C25 C26 1_555 1_555
C26 C27 1_555 1_555
C27 H16 1_555 1_555
C28 C27 1_555 1_555
H17 C28 1_555 1_555
C29 C28 1_555 1_555
H18 C29 1_555 1_555
C30 C25 1_555 1_555
C31 C30 1_555 1_555
N1 C1 1_555 1_555
N2 C6 1_555 1_555
N3 Co1 1_555 1_555
N4 C21 1_555 1_555
N5 C26 1_555 1_555
H19 N5 1_555 1_555
H20 N5 1_555 1_555
O1 Co1 1_555 1_555
O2 C16 1_555 1_555
O3 Co1 1_555 1_555
O4 C23 1_555 1_555
O5 C24 1_555 1_555
O6 C31 1_555 1_555
C11B H9B 1_555 1_555
C12B C11B 1_555 1_555
H10B C12B 1_555 1_555
C13B C13 1_555 1_555
C14B C13B 1_555 1_555
H11B C14B 1_555 1_555
C15B C14B 1_555 1_555
H12B C15B 1_555 1_555
N3B C11B 1_555 1_555
Co1B N3B 1_555 1_555
C1B H1B 1_555 1_555
C2B C1B 1_555 1_555
H2B C2B 1_555 1_555
C3B C2B 1_555 1_555
C4B C3B 1_555 1_555
H3B C4B 1_555 1_555
C5B C4B 1_555 1_555
H4B C5B 1_555 1_555
C6B H5B 1_555 1_555
C7B C6B 1_555 1_555
H6B C7B 1_555 1_555
C8B C3B 1_555 1_555
C9B C8B 1_555 1_555
H7B C9B 1_555 1_555
C10B C9B 1_555 1_555
H8B C10B 1_555 1_555
C16B C17B 1_555 1_555
C17B C18B 1_555 1_555
C18B H13B 1_555 1_555
C19B C18B 1_555 1_555
H14B C19B 1_555 1_555
C20B C19B 1_555 1_555
H15B C20B 1_555 1_555
C21B C20B 1_555 1_555
C22B C17B 1_555 1_555
C23B C22B 1_555 1_555
C24B C25B 1_555 1_555
C25B C26B 1_555 1_555
C26B C27B 1_555 1_555
C27B H16B 1_555 1_555
C28B C27B 1_555 1_555
H17B C28B 1_555 1_555
C29B C28B 1_555 1_555
H18B C29B 1_555 1_555
C30B C25B 1_555 1_555
C31B C30B 1_555 1_555
N1B C1B 1_555 1_555
N2B Co1B 1_555 1_555
N4B C21B 1_555 1_555
N5B C26B 1_555 1_555
H19B N5B 1_555 1_555
H20B N5B 1_555 1_555
O1B Co1B 1_555 1_555
O2B C16B 1_555 1_555
O3B Co1B 1_555 1_555
O4B C23B 1_555 1_555
O5B C24B 1_555 1_555
O6B C31B 1_555 1_555
Co1A N1B 1_555 1_555
Co1A_2 O2B 1_555 1_555
Co1C O2 1_555 1_555
Co1C_2 N1 1_555 1_555
N1A Co1B 1_555 1_555
N1C Co1 1_555 1_555
O2A Co1B 1_555 1_555
O2C Co1 1_555 1_555
C5 N1 1_555 1_555
C7 C8 1_555 1_555
C10 N2 1_555 1_555
C11 N3 1_555 1_555
C15 N3 1_555 1_555
C16 O1 1_555 1_555
C21 C22 1_555 1_555
C23 O3 1_555 1_555
C24 N4 1_555 1_555
C29 C30 1_555 1_555
C31 N4 1_555 1_555
C12B C13B 1_555 1_555
C15B N3B 1_555 1_555
C5B N1B 1_555 1_555
C6B N2B 1_555 1_555
C7B C8B 1_555 1_555
C10B N2B 1_555 1_555
C16B O1B 1_555 1_555
C21B C22B 1_555 1_555
C23B O3B 1_555 1_555
C24B N4B 1_555 1_555
C29B C30B 1_555 1_555
C31B N4B 1_555 1_555

#END
