
#######################################################################
#
#                 Cambridge Crystallographic Data Centre
#                                CCDC 
#
#######################################################################
#
# If this CIF has been generated from an entry in the Cambridge 
# Structural Database, then it will include bibliographic, chemical, 
# crystal, experimental, refinement or atomic coordinate data resulting 
# from the CCDC's data processing and validation procedures.
#
#######################################################################

data_KIFTOK
_symmetry_cell_setting           monoclinic
_symmetry_space_group_name_H-M   'P 21/c'
_symmetry_Int_Tables_number      14
_space_group_name_Hall           '-P 2ybc'
loop_
_symmetry_equiv_pos_site_id
_symmetry_equiv_pos_as_xyz
1 x,y,z
2 -x,1/2+y,1/2-z
3 -x,-y,-z
4 x,1/2-y,1/2+z
_cell_length_a                   7.1044(8)
_cell_length_b                   23.403(2)
_cell_length_c                   10.8747(15)
_cell_angle_alpha                90
_cell_angle_beta                 113.173(10)
_cell_angle_gamma                90
_cell_volume                     1662.2
loop_
_atom_site_label
_atom_site_type_symbol
_atom_site_fract_x
_atom_site_fract_y
_atom_site_fract_z
Co1 Co 0.80071(11) 0.05967(3) 0.55824(6)
C1 C 0.4956(9) -0.0185(2) 0.3381(5)
C2 C 0.4860(8) 0.0170(2) 0.2192(4)
C3 C 0.2926(9) 0.0241(2) 0.1164(5)
H1 H 0.1775 0.0055 0.1221
C4 C 0.2669(9) 0.0578(3) 0.0067(5)
H2 H 0.1354 0.0615 -0.0636
C5 C 0.4309(10) 0.0855(3) -0.0002(5)
H3 H 0.4138 0.1096 -0.0742
C6 C 0.6227(8) 0.0786(2) 0.1012(5)
C7 C 0.6558(9) 0.0437(2) 0.2132(5)
C8 C 0.8715(8) 0.0336(2) 0.3222(4)
C9 C 0.3897(9) 0.1276(2) 0.4160(5)
H4 H 0.3281 0.0939 0.4315
C10 C 0.2663(8) 0.1749(2) 0.3661(5)
H5 H 0.1245 0.1735 0.3490
C11 C 0.3535(9) 0.2248(2) 0.3413(5)
C12 C 0.5617(9) 0.2238(2) 0.3661(5)
H6 H 0.6275 0.2565 0.3495
C13 C 0.6687(9) 0.1744(2) 0.4151(5)
H7 H 0.8098 0.1740 0.4299
C14 C 0.2297(8) 0.2766(2) 0.2872(5)
C15 C 0.0578(9) 0.2898(2) 0.3129(5)
H8 H 0.0181 0.2661 0.3694
C16 C -0.0540(9) 0.3378(2) 0.2555(5)
H9 H -0.1707 0.3463 0.2743
C17 C 0.1595(8) 0.3613(2) 0.1542(5)
H10 H 0.1985 0.3870 0.1008
C18 C 0.2800(9) 0.3141(2) 0.2057(5)
H11 H 0.3967 0.3072 0.1858
N1 N 0.5895(7) 0.12655(19) 0.4437(4)
N2 N -0.0080(7) 0.37292(18) 0.1750(4)
N3 N 0.7897(8) 0.1092(2) 0.0862(4)
O1 O 0.6467(6) -0.01098(15) 0.4471(3)
O2 O 0.3553(6) -0.05345(16) 0.3188(3)
O3 O 0.9301(6) 0.06879(15) 0.4184(3)
O4 O 0.9600(6) -0.00973(16) 0.3094(3)
O5 O 0.9652(6) 0.09668(18) 0.1586(4)
O6 O 0.7505(8) 0.1461(2) 0.0004(5)
Co1B Co 0.19929(11) -0.05967(3) 0.44176(6)
Co1B_2 Co 1.19929(11) -0.05967(3) 0.44176(6)
Co1C Co -0.19929(11) 0.44033(3) 0.05824(6)
N2C N 0.9920(7) 0.12708(18) 0.6750(4)
O2B O 0.6447(6) 0.05345(16) 0.6812(3)
O4B O 1.0400(6) 0.00973(16) 0.6906(3)
loop_
_geom_bond_atom_site_label_1
_geom_bond_atom_site_label_2
_geom_bond_site_symmetry_1
_geom_bond_site_symmetry_2
Co1 N1 1_555 1_555
C1 C2 1_555 1_555
C2 C3 1_555 1_555
C3 H1 1_555 1_555
C4 C3 1_555 1_555
H2 C4 1_555 1_555
C5 C4 1_555 1_555
H3 C5 1_555 1_555
C6 C5 1_555 1_555
C7 C2 1_555 1_555
C8 C7 1_555 1_555
C9 H4 1_555 1_555
C10 C9 1_555 1_555
H5 C10 1_555 1_555
C11 C10 1_555 1_555
C12 C11 1_555 1_555
H6 C12 1_555 1_555
C13 C12 1_555 1_555
H7 C13 1_555 1_555
C14 C11 1_555 1_555
C15 C14 1_555 1_555
H8 C15 1_555 1_555
C16 C15 1_555 1_555
H9 C16 1_555 1_555
C17 H10 1_555 1_555
C18 C14 1_555 1_555
H11 C18 1_555 1_555
N1 C9 1_555 1_555
N2 C16 1_555 1_555
N3 C6 1_555 1_555
O1 Co1 1_555 1_555
O2 C1 1_555 1_555
O3 Co1 1_555 1_555
O4 C8 1_555 1_555
O5 N3 1_555 1_555
O6 N3 1_555 1_555
Co1B O2 1_555 1_555
Co1B_2 O4 1_555 1_555
Co1C N2 1_555 1_555
N2C Co1 1_555 1_555
O2B Co1 1_555 1_555
O4B Co1 1_555 1_555
C1 O1 1_555 1_555
C6 C7 1_555 1_555
C8 O3 1_555 1_555
C13 N1 1_555 1_555
C17 C18 1_555 1_555
C17 N2 1_555 1_555

#END
