
#######################################################################
#
#                 Cambridge Crystallographic Data Centre
#                                CCDC 
#
#######################################################################
#
# If this CIF has been generated from an entry in the Cambridge 
# Structural Database, then it will include bibliographic, chemical, 
# crystal, experimental, refinement or atomic coordinate data resulting 
# from the CCDC's data processing and validation procedures.
#
#######################################################################

data_KIFXEE
_symmetry_cell_setting           monoclinic
_symmetry_space_group_name_H-M   'P 21/c'
_symmetry_Int_Tables_number      14
_space_group_name_Hall           '-P 2ybc'
loop_
_symmetry_equiv_pos_site_id
_symmetry_equiv_pos_as_xyz
1 x,y,z
2 -x,1/2+y,1/2-z
3 -x,-y,-z
4 x,1/2-y,1/2+z
_cell_length_a                   10.682(7)
_cell_length_b                   15.358(10)
_cell_length_c                   20.449(14)
_cell_angle_alpha                90
_cell_angle_beta                 93.388(8)
_cell_angle_gamma                90
_cell_volume                     3348.88
loop_
_atom_site_label
_atom_site_type_symbol
_atom_site_fract_x
_atom_site_fract_y
_atom_site_fract_z
Co1 Co 0.25402(10) -0.03945(8) 0.41144(6)
Co2 Co 0.5000 0.0000 0.5000
N1 N 0.1774(7) -0.1528(5) 0.3611(4)
N2 N -0.1432(7) -0.4555(5) 0.1513(3)
O1 O 0.3320(5) 0.0692(4) 0.4679(3)
O2 O 0.1706(6) 0.1026(4) 0.5277(3)
O3 O 0.3913(5) -0.0360(4) 0.3465(2)
O4 O 0.5630(5) -0.0133(4) 0.4113(3)
O5 O 0.8272(8) -0.0707(5) 0.1489(4)
O6 O 0.8092(10) 0.1760(5) -0.1077(4)
H1 H 0.7952 0.2007 -0.0734
O7 O 0.8091(12) 0.0427(6) -0.1468(4)
O8 O 0.6274(5) 0.1086(4) 0.5154(3)
O9 O 0.7714(6) 0.1913(4) 0.4719(3)
O10 O 0.1090(5) -0.0480(4) 0.4751(3)
H2 H 0.1278 -0.0895 0.5013
H3 H 0.1064 -0.0033 0.4969
C1 C 0.0615(10) -0.1821(7) 0.3711(5)
H4 H 0.0196 -0.1587 0.4056
C2 C 0.0023(9) -0.2445(7) 0.3332(5)
H5 H -0.0761 -0.2645 0.3440
C3 C 0.0554(8) -0.2781(6) 0.2802(4)
C4 C 0.1742(9) -0.2487(7) 0.2704(5)
H6 H 0.2166 -0.2707 0.2355
C5 C 0.2316(9) -0.1879(7) 0.3107(5)
H7 H 0.3125 -0.1703 0.3025
C6 C -0.0642(10) -0.3974(7) 0.1292(4)
H8 H -0.0537 -0.3954 0.0844
C7 C 0.0036(10) -0.3395(6) 0.1695(5)
H9 H 0.0585 -0.3002 0.1519
C8 C -0.0112(8) -0.3407(6) 0.2359(4)
C9 C -0.0908(9) -0.4015(7) 0.2597(5)
H10 H -0.1028 -0.4049 0.3043
C10 C -0.1525(9) -0.4574(7) 0.2163(5)
H11 H -0.2043 -0.4994 0.2332
C11 C 0.5682(8) 0.1881(6) 0.4172(4)
C12 C 0.5987(9) 0.1751(6) 0.3529(4)
H12 H 0.6774 0.1532 0.3446
C13 C 0.5149(10) 0.1938(7) 0.3012(5)
H13 H 0.5361 0.1848 0.2583
C14 C 0.3995(10) 0.2259(7) 0.3144(5)
H14 H 0.3410 0.2378 0.2800
C15 C 0.3690(9) 0.2408(6) 0.3777(5)
H15 H 0.2911 0.2640 0.3859
C16 C 0.4533(9) 0.2215(6) 0.4291(5)
C17 C 0.4241(9) 0.2451(6) 0.4979(5)
C18 C 0.4789(10) 0.3194(7) 0.5265(5)
H16 H 0.5362 0.3505 0.5032
C19 C 0.4530(10) 0.3478(8) 0.5856(6)
H17 H 0.4897 0.3986 0.6025
C20 C 0.3702(11) 0.3006(7) 0.6221(5)
H18 H 0.3519 0.3191 0.6638
C21 C 0.3162(9) 0.2269(7) 0.5960(5)
H19 H 0.2617 0.1952 0.6206
C22 C 0.3405(9) 0.1979(6) 0.5334(5)
C23 C 0.2764(9) 0.1177(6) 0.5081(4)
C24 C 0.6622(9) 0.1613(6) 0.4716(5)
C25 C 0.5088(8) -0.0270(5) 0.3565(4)
C26 C 0.5913(8) -0.0341(6) 0.2993(4)
C27 C 0.7204(8) -0.0349(6) 0.3106(4)
H20 H 0.7558 -0.0284 0.3530
C28 C 0.7953(9) -0.0452(7) 0.2599(5)
H21 H 0.8816 -0.0492 0.2683
C29 C 0.7461(10) -0.0500(7) 0.1969(5)
C30 C 0.6201(9) -0.0467(7) 0.1849(4)
H22 H 0.5867 -0.0494 0.1420
C31 C 0.5402(9) -0.0394(6) 0.2355(4)
H23 H 0.4537 -0.0381 0.2269
C32 C 0.8171(11) -0.0284(8) 0.0883(6)
C33 C 0.8002(11) 0.0588(8) 0.0836(5)
H24 H 0.7885 0.0907 0.1214
C34 C 0.7998(11) 0.1009(7) 0.0247(6)
H25 H 0.7910 0.1611 0.0223
C35 C 0.8129(11) 0.0519(8) -0.0311(5)
C36 C 0.8331(13) -0.0384(8) -0.0248(6)
H26 H 0.8421 -0.0725 -0.0619
C37 C 0.8395(10) -0.0765(8) 0.0369(6)
H27 H 0.8593 -0.1352 0.0419
C38 C 0.8104(12) 0.0897(9) -0.0983(6)
Co1B Co 0.74598(10) 0.03945(8) 0.58856(6)
N1B N 0.8226(7) 0.1528(5) 0.6389(4)
N2B N 1.1432(7) 0.4555(5) 0.8487(3)
O1B O 0.6680(5) -0.0692(4) 0.5321(3)
O2B O 0.8294(6) -0.1026(4) 0.4723(3)
O3B O 0.6087(5) 0.0360(4) 0.6535(2)
O4B O 0.4370(5) 0.0133(4) 0.5887(3)
O5B O 0.1728(8) 0.0707(5) 0.8511(4)
O6B O 0.1908(10) -0.1760(5) 1.1077(4)
H1B H 0.2048 -0.2007 1.0734
O7B O 0.1909(12) -0.0427(6) 1.1468(4)
O8B O 0.3726(5) -0.1086(4) 0.4846(3)
O9B O 0.2286(6) -0.1913(4) 0.5281(3)
O10B O 0.8910(5) 0.0480(4) 0.5249(3)
H2B H 0.8722 0.0895 0.4987
H3B H 0.8936 0.0033 0.5031
C1B C 0.9385(10) 0.1821(7) 0.6289(5)
H4B H 0.9804 0.1587 0.5944
C2B C 0.9977(9) 0.2445(7) 0.6668(5)
H5B H 1.0761 0.2645 0.6560
C3B C 0.9446(8) 0.2781(6) 0.7198(4)
C4B C 0.8258(9) 0.2487(7) 0.7296(5)
H6B H 0.7834 0.2707 0.7645
C5B C 0.7684(9) 0.1879(7) 0.6893(5)
H7B H 0.6875 0.1703 0.6975
C6B C 1.0642(10) 0.3974(7) 0.8708(4)
H8B H 1.0537 0.3954 0.9156
C7B C 0.9964(10) 0.3395(6) 0.8305(5)
H9B H 0.9415 0.3002 0.8481
C8B C 1.0112(8) 0.3407(6) 0.7641(4)
C9B C 1.0908(9) 0.4015(7) 0.7403(5)
H10B H 1.1028 0.4049 0.6957
C10B C 1.1525(9) 0.4574(7) 0.7837(5)
H11B H 1.2043 0.4994 0.7668
C11B C 0.4318(8) -0.1881(6) 0.5828(4)
C12B C 0.4013(9) -0.1751(6) 0.6471(4)
H12B H 0.3226 -0.1532 0.6554
C13B C 0.4851(10) -0.1938(7) 0.6988(5)
H13B H 0.4639 -0.1848 0.7417
C14B C 0.6005(10) -0.2259(7) 0.6856(5)
H14B H 0.6590 -0.2378 0.7200
C15B C 0.6310(9) -0.2408(6) 0.6223(5)
H15B H 0.7089 -0.2640 0.6141
C16B C 0.5467(9) -0.2215(6) 0.5709(5)
C17B C 0.5759(9) -0.2451(6) 0.5021(5)
C18B C 0.5211(10) -0.3194(7) 0.4735(5)
H16B H 0.4638 -0.3505 0.4968
C19B C 0.5470(10) -0.3478(8) 0.4144(6)
H17B H 0.5103 -0.3986 0.3975
C20B C 0.6298(11) -0.3006(7) 0.3779(5)
H18B H 0.6481 -0.3191 0.3362
C21B C 0.6838(9) -0.2269(7) 0.4040(5)
H19B H 0.7383 -0.1952 0.3794
C22B C 0.6595(9) -0.1979(6) 0.4666(5)
C23B C 0.7236(9) -0.1177(6) 0.4919(4)
C24B C 0.3378(9) -0.1613(6) 0.5284(5)
C25B C 0.4912(8) 0.0270(5) 0.6435(4)
C26B C 0.4087(8) 0.0341(6) 0.7007(4)
C27B C 0.2796(8) 0.0349(6) 0.6894(4)
H20B H 0.2442 0.0284 0.6470
C28B C 0.2047(9) 0.0452(7) 0.7401(5)
H21B H 0.1184 0.0492 0.7317
C29B C 0.2539(10) 0.0500(7) 0.8031(5)
C30B C 0.3799(9) 0.0467(7) 0.8151(4)
H22B H 0.4133 0.0494 0.8580
C31B C 0.4598(9) 0.0394(6) 0.7645(4)
H23B H 0.5463 0.0381 0.7731
C32B C 0.1829(11) 0.0284(8) 0.9117(6)
C33B C 0.1998(11) -0.0588(8) 0.9164(5)
H24B H 0.2115 -0.0907 0.8786
C34B C 0.2002(11) -0.1009(7) 0.9753(6)
H25B H 0.2090 -0.1611 0.9777
C35B C 0.1871(11) -0.0519(8) 1.0311(5)
C36B C 0.1669(13) 0.0384(8) 1.0248(6)
H26B H 0.1579 0.0725 1.0619
C37B C 0.1605(10) 0.0765(8) 0.9631(6)
H27B H 0.1407 0.1352 0.9581
C38B C 0.1896(12) -0.0897(9) 1.0983(6)
Co1A Co -0.25402(10) -0.53945(8) 0.08856(6)
Co1C Co 1.25402(10) 0.53945(8) 0.91144(6)
N2A N 0.1432(7) 0.0445(5) 0.3487(3)
N2C N 0.8568(7) -0.0445(5) 0.6513(3)
loop_
_geom_bond_atom_site_label_1
_geom_bond_atom_site_label_2
_geom_bond_site_symmetry_1
_geom_bond_site_symmetry_2
Co1 N1 1_555 1_555
Co2 O1 1_555 1_555
N1 C1 1_555 1_555
N2 C6 1_555 1_555
O1 Co1 1_555 1_555
O2 C23 1_555 1_555
O3 Co1 1_555 1_555
O4 Co2 1_555 1_555
O5 C29 1_555 1_555
O6 H1 1_555 1_555
O7 C38 1_555 1_555
O8 Co2 1_555 1_555
O9 C24 1_555 1_555
O10 Co1 1_555 1_555
H2 O10 1_555 1_555
H3 O10 1_555 1_555
C1 H4 1_555 1_555
C2 C1 1_555 1_555
H5 C2 1_555 1_555
C3 C2 1_555 1_555
C4 C3 1_555 1_555
H6 C4 1_555 1_555
C5 N1 1_555 1_555
H7 C5 1_555 1_555
C6 H8 1_555 1_555
C7 C6 1_555 1_555
H9 C7 1_555 1_555
C8 C3 1_555 1_555
C9 C8 1_555 1_555
H10 C9 1_555 1_555
C10 N2 1_555 1_555
H11 C10 1_555 1_555
C11 C12 1_555 1_555
C12 H12 1_555 1_555
C13 C12 1_555 1_555
H13 C13 1_555 1_555
C14 C13 1_555 1_555
H14 C14 1_555 1_555
C15 C14 1_555 1_555
H15 C15 1_555 1_555
C16 C11 1_555 1_555
C17 C16 1_555 1_555
C18 C17 1_555 1_555
H16 C18 1_555 1_555
C19 C18 1_555 1_555
H17 C19 1_555 1_555
C20 C19 1_555 1_555
H18 C20 1_555 1_555
C21 C20 1_555 1_555
H19 C21 1_555 1_555
C22 C17 1_555 1_555
C23 O1 1_555 1_555
C24 O8 1_555 1_555
C25 O3 1_555 1_555
C26 C25 1_555 1_555
C27 C26 1_555 1_555
H20 C27 1_555 1_555
C28 C27 1_555 1_555
H21 C28 1_555 1_555
C29 C28 1_555 1_555
C30 C29 1_555 1_555
H22 C30 1_555 1_555
C31 C26 1_555 1_555
H23 C31 1_555 1_555
C32 O5 1_555 1_555
C33 C32 1_555 1_555
H24 C33 1_555 1_555
C34 C33 1_555 1_555
H25 C34 1_555 1_555
C35 C34 1_555 1_555
C36 C35 1_555 1_555
H26 C36 1_555 1_555
C37 C32 1_555 1_555
H27 C37 1_555 1_555
C38 O6 1_555 1_555
Co1B O8 1_555 1_555
N1B Co1B 1_555 1_555
N2B C6B 1_555 1_555
O1B Co2 1_555 1_555
O2B C23B 1_555 1_555
O3B Co1B 1_555 1_555
O4B Co2 1_555 1_555
O5B C29B 1_555 1_555
O6B H1B 1_555 1_555
O7B C38B 1_555 1_555
O8B Co1 1_555 1_555
O9B C24B 1_555 1_555
O10B Co1B 1_555 1_555
H2B O10B 1_555 1_555
H3B O10B 1_555 1_555
C1B N1B 1_555 1_555
H4B C1B 1_555 1_555
C2B C1B 1_555 1_555
H5B C2B 1_555 1_555
C3B C2B 1_555 1_555
C4B C3B 1_555 1_555
H6B C4B 1_555 1_555
C5B N1B 1_555 1_555
H7B C5B 1_555 1_555
C6B H8B 1_555 1_555
C7B C6B 1_555 1_555
H9B C7B 1_555 1_555
C8B C3B 1_555 1_555
C9B C8B 1_555 1_555
H10B C9B 1_555 1_555
C10B N2B 1_555 1_555
H11B C10B 1_555 1_555
C11B C12B 1_555 1_555
C12B H12B 1_555 1_555
C13B C12B 1_555 1_555
H13B C13B 1_555 1_555
C14B C13B 1_555 1_555
H14B C14B 1_555 1_555
C15B C14B 1_555 1_555
H15B C15B 1_555 1_555
C16B C11B 1_555 1_555
C17B C16B 1_555 1_555
C18B C17B 1_555 1_555
H16B C18B 1_555 1_555
C19B C18B 1_555 1_555
H17B C19B 1_555 1_555
C20B C19B 1_555 1_555
H18B C20B 1_555 1_555
C21B C20B 1_555 1_555
H19B C21B 1_555 1_555
C22B C17B 1_555 1_555
C23B O1B 1_555 1_555
C24B O8B 1_555 1_555
C25B O3B 1_555 1_555
C26B C25B 1_555 1_555
C27B C26B 1_555 1_555
H20B C27B 1_555 1_555
C28B C27B 1_555 1_555
H21B C28B 1_555 1_555
C29B C28B 1_555 1_555
C30B C29B 1_555 1_555
H22B C30B 1_555 1_555
C31B C26B 1_555 1_555
H23B C31B 1_555 1_555
C32B O5B 1_555 1_555
C33B C32B 1_555 1_555
H24B C33B 1_555 1_555
C34B C33B 1_555 1_555
H25B C34B 1_555 1_555
C35B C34B 1_555 1_555
C36B C35B 1_555 1_555
H26B C36B 1_555 1_555
C37B C32B 1_555 1_555
H27B C37B 1_555 1_555
C38B O6B 1_555 1_555
Co1A N2 1_555 1_555
Co1C N2B 1_555 1_555
N2A Co1 1_555 1_555
N2C Co1B 1_555 1_555
Co2 O8B 1_555 1_555
O4 C25 1_555 1_555
C4 C5 1_555 1_555
C7 C8 1_555 1_555
C9 C10 1_555 1_555
C11 C24 1_555 1_555
C15 C16 1_555 1_555
C21 C22 1_555 1_555
C22 C23 1_555 1_555
C30 C31 1_555 1_555
C35 C38 1_555 1_555
C36 C37 1_555 1_555
Co1B O1B 1_555 1_555
O4B C25B 1_555 1_555
C4B C5B 1_555 1_555
C7B C8B 1_555 1_555
C9B C10B 1_555 1_555
C11B C24B 1_555 1_555
C15B C16B 1_555 1_555
C21B C22B 1_555 1_555
C22B C23B 1_555 1_555
C30B C31B 1_555 1_555
C35B C38B 1_555 1_555
C36B C37B 1_555 1_555

#END
