
#######################################################################
#
#                 Cambridge Crystallographic Data Centre
#                                CCDC 
#
#######################################################################
#
# If this CIF has been generated from an entry in the Cambridge 
# Structural Database, then it will include bibliographic, chemical, 
# crystal, experimental, refinement or atomic coordinate data resulting 
# from the CCDC's data processing and validation procedures.
#
#######################################################################

data_KIFXII
_symmetry_cell_setting           triclinic
_symmetry_space_group_name_H-M   'P -1'
_symmetry_Int_Tables_number      2
_space_group_name_Hall           '-P 1'
loop_
_symmetry_equiv_pos_site_id
_symmetry_equiv_pos_as_xyz
1 x,y,z
2 -x,-y,-z
_cell_length_a                   14.858(18)
_cell_length_b                   15.017(18)
_cell_length_c                   15.900(18)
_cell_angle_alpha                64.059(15)
_cell_angle_beta                 71.167(15)
_cell_angle_gamma                76.371(15)
_cell_volume                     3000.77
loop_
_atom_site_label
_atom_site_type_symbol
_atom_site_fract_x
_atom_site_fract_y
_atom_site_fract_z
O15 O 0.6547(4) 0.1389(4) 0.3959(4)
H41 H 0.6206 0.0911 0.4213
H42 H 0.7150 0.1294 0.3750
O16 O 0.3326(4) -0.0003(4) 0.4150(3)
H43 H 0.3882 0.0154 0.4029
H44 H 0.2764 0.0168 0.4432
O17 O 0.3380(7) 0.8859(7) 0.3064(7)
H45 H 0.3388 0.9313 0.3244
H46 H 0.3464 0.9065 0.2457
O18 O 0.0450(11) 0.0709(9) 0.0085(9)
H47 H 0.0305 0.0850 -0.0438
H48 H -0.0123 0.0694 0.0430
O19 O 0.3711(9) 0.6952(10) 0.5418(9)
H49 H 0.3966 0.7351 0.4854
H50 H 0.3145 0.6931 0.5779
Cu1 Cu 0.60243(6) 1.14895(5) -0.06917(5)
Cu2 Cu 0.67990(4) 0.68132(5) 0.67635(5)
Cu3 Cu 0.99024(12) -0.01223(13) 0.53444(11)
N1 N 0.5622(3) 1.2788(3) -0.0439(3)
N2 N 0.6150(4) 1.0761(3) 0.0709(3)
N3 N 0.6586(3) 0.7780(3) 0.5445(3)
N4 N 0.7271(3) 0.5619(3) 0.6289(3)
O1 O 0.7427(2) 0.5963(3) 0.7920(3)
O2 O 0.8261(2) 0.6936(3) 0.6554(3)
O3 O 1.1465(2) 0.4730(3) 0.8904(3)
O4 O 1.5497(2) 0.6322(3) 0.7369(3)
O5 O 1.4561(3) 0.7685(3) 0.7498(4)
C1 C 0.8212(3) 0.6295(4) 0.7394(4)
C2 C 0.9081(3) 0.5902(4) 0.7781(4)
C3 C 0.9029(4) 0.5167(4) 0.8692(4)
H1 H 0.8450 0.4916 0.9072
C4 C 0.9841(4) 0.4800(5) 0.9043(4)
H2 H 0.9803 0.4303 0.9659
C5 C 1.0688(4) 0.5156(4) 0.8498(4)
C6 C 1.0752(4) 0.5883(5) 0.7589(5)
H3 H 1.1333 0.6128 0.7210
C7 C 0.9947(4) 0.6245(5) 0.7241(4)
H4 H 0.9992 0.6737 0.6621
C8 C 1.2230(4) 0.5259(5) 0.8581(4)
C9 C 1.3130(4) 0.4808(5) 0.8303(5)
H5 H 1.3202 0.4171 0.8315
C10 C 1.3916(4) 0.5291(5) 0.8010(5)
H6 H 1.4520 0.4972 0.7833
C11 C 1.3835(3) 0.6235(4) 0.7970(4)
C12 C 1.2935(4) 0.6680(5) 0.8273(4)
H7 H 1.2865 0.7310 0.8277
C13 C 1.2139(4) 0.6188(5) 0.8569(5)
H8 H 1.1535 0.6496 0.8762
C14 C 0.7184(4) 0.8446(4) 0.4844(4)
H9 H 0.7700 0.8467 0.5043
C15 C 0.7093(4) 0.9102(4) 0.3953(4)
H10 H 0.7536 0.9559 0.3563
C16 C 0.6348(4) 0.9092(4) 0.3626(4)
C17 C 0.5717(4) 0.8403(5) 0.4253(4)
H11 H 0.5196 0.8368 0.4069
C18 C 0.5852(4) 0.7776(5) 0.5136(4)
H12 H 0.5413 0.7321 0.5547
C19 C 0.6263(4) 0.9747(4) 0.2620(4)
C20 C 0.7011(5) 1.0190(5) 0.1913(4)
H13 H 0.7577 1.0166 0.2058
C21 C 0.6929(5) 1.0674(5) 0.0978(5)
H14 H 0.7457 1.0961 0.0502
C22 C 0.5422(5) 0.9851(5) 0.2362(4)
H15 H 0.4882 0.9581 0.2830
C23 C 0.5396(5) 1.0358(5) 0.1406(5)
H16 H 0.4831 1.0421 0.1240
C24 C 0.6228(4) 1.3456(5) -0.0762(5)
H17 H 0.6840 1.3331 -0.1120
C25 C 0.6018(4) 1.4300(4) -0.0609(5)
H18 H 0.6482 1.4734 -0.0862
C26 C 0.5123(3) 1.4536(4) -0.0079(4)
C27 C 0.4499(4) 1.3828(5) 0.0289(5)
H19 H 0.3891 1.3921 0.0672
C28 C 0.4773(4) 1.2989(5) 0.0090(5)
H20 H 0.4333 1.2530 0.0345
C29 C 0.8061(4) 0.5624(5) 0.5583(4)
H21 H 0.8347 0.6212 0.5227
C30 C 0.8476(5) 0.4818(5) 0.5350(5)
H22 H 0.9035 0.4866 0.4858
C31 C 0.8065(4) 0.3931(4) 0.5843(5)
C32 C 0.7226(4) 0.3948(5) 0.6531(6)
H23 H 0.6895 0.3388 0.6868
N5 N 0.9446(8) 0.1430(9) 0.4970(9)
C33 C 0.8078(8) 0.2601(9) 0.5225(10)
H24 H 0.7439 0.2823 0.5222
C34 C 0.858(4) 0.308(5) 0.548(3)
C35 C 0.8528(8) 0.1792(9) 0.4971(10)
H25 H 0.8178 0.1492 0.4795
C36 C 0.9475(4) 0.2778(4) 0.5428(4)
H26 H 0.9858 0.3133 0.5502
C37 C 0.9855(4) 0.1931(5) 0.5260(5)
H27 H 1.0464 0.1668 0.5355
C38 C 0.6869(4) 0.4794(5) 0.6726(5)
H28 H 0.6301 0.4774 0.7202
C39 C 1.4698(4) 0.6796(4) 0.7588(4)
O6 O 0.8763(8) 0.0065(9) 0.4771(9)
O7 O 0.8345(10) 0.0864(11) 0.3348(11)
C40 C 0.893(5) 0.056(3) 0.388(5)
C41 C 1.1366(13) 0.0944(13) 0.3481(14)
N6 N 1.0517(9) 0.0725(9) 0.3862(12)
C42 C 0.9880(16) 0.0927(15) 0.3363(15)
C43 C 1.018(7) 0.138(5) 0.237(4)
C44 C 1.1099(13) 0.1674(14) 0.1898(15)
C45 C 1.170(4) 0.146(4) 0.248(3)
O8 O 0.4554(3) 1.1377(3) -0.0514(3)
O9 O 0.5457(3) 1.2188(3) -0.1936(3)
O10 O 0.1486(3) 1.3321(4) -0.3059(3)
O11 O -0.1756(4) 1.0442(4) -0.1357(5)
O12 O -0.2621(3) 1.1841(3) -0.1326(3)
C46 C -0.1845(5) 1.1343(5) -0.1517(4)
C47 C -0.0955(5) 1.1861(5) -0.1938(4)
C48 C -0.0066(5) 1.1378(5) -0.2226(5)
H29 H -0.0021 1.0730 -0.2178
C49 C 0.0741(5) 1.1843(6) -0.2580(5)
H30 H 0.1333 1.1510 -0.2764
C50 C 0.0679(5) 1.2797(6) -0.2663(5)
C51 C -0.0183(5) 1.3317(6) -0.2419(5)
H31 H -0.0223 1.3975 -0.2497
C52 C -0.0983(5) 1.2833(5) -0.2054(5)
H32 H -0.1573 1.3174 -0.1877
C53 C 0.2231(5) 1.2931(5) -0.2600(5)
C54 C 0.2126(5) 1.2326(5) -0.1651(5)
H33 H 0.1528 1.2132 -0.1262
C55 C 0.2906(5) 1.2003(5) -0.1267(5)
H34 H 0.2828 1.1592 -0.0616
C56 C 0.3792(5) 1.2270(4) -0.1818(4)
C57 C 0.3899(5) 1.2895(5) -0.2790(5)
H35 H 0.4498 1.3083 -0.3180
C58 C 0.3109(5) 1.3236(5) -0.3174(5)
H36 H 0.3172 1.3670 -0.3818
C59 C 0.4654(5) 1.1920(4) -0.1412(5)
O13 O 0.6423(3) 1.0162(3) -0.0913(3)
H37 H 0.7008 1.0050 -0.1049
H38 H 0.6311 0.9580 -0.0412
O14 O 0.6328(3) 0.8017(3) 0.7236(3)
H39 H 0.5601 0.8097 0.7184
H40 H 0.6389 0.8548 0.6766
N1A N 0.4378(3) 1.7212(3) 0.0439(3)
C24A C 0.3772(4) 1.6544(5) 0.0762(5)
H17A H 0.3160 1.6669 0.1120
C25A C 0.3982(4) 1.5700(4) 0.0609(5)
H18A H 0.3518 1.5266 0.0862
C26A C 0.4877(3) 1.5464(4) 0.0079(4)
C27A C 0.5501(4) 1.6172(5) -0.0289(5)
H19A H 0.6109 1.6079 -0.0672
C28A C 0.5227(4) 1.7011(5) -0.0090(5)
H20A H 0.5667 1.7470 -0.0345
Cu1A Cu 0.39757(6) 1.85105(5) 0.06917(5)
Cu2A Cu 0.32010(4) 2.31868(5) -0.67635(5)
Cu3A Cu 0.00976(12) 3.01223(13) -0.53444(11)
N2A N 0.3850(4) 1.9239(3) -0.0709(3)
N3A N 0.3414(3) 2.2220(3) -0.5445(3)
N4A N 0.2729(3) 2.4381(3) -0.6289(3)
O1A O 0.2573(2) 2.4037(3) -0.7920(3)
O2A O 0.1739(2) 2.3064(3) -0.6554(3)
O3A O -0.1465(2) 2.5270(3) -0.8904(3)
O4A O -0.5497(2) 2.3678(3) -0.7369(3)
O5A O -0.4561(3) 2.2315(3) -0.7498(4)
C1A C 0.1788(3) 2.3705(4) -0.7394(4)
C2A C 0.0919(3) 2.4098(4) -0.7781(4)
C3A C 0.0971(4) 2.4833(4) -0.8692(4)
H1A H 0.1550 2.5084 -0.9072
C4A C 0.0159(4) 2.5200(5) -0.9043(4)
H2A H 0.0197 2.5697 -0.9659
C5A C -0.0688(4) 2.4844(4) -0.8498(4)
C6A C -0.0752(4) 2.4117(5) -0.7589(5)
H3A H -0.1333 2.3872 -0.7210
C7A C 0.0053(4) 2.3755(5) -0.7241(4)
H4A H 0.0008 2.3263 -0.6621
C8A C -0.2230(4) 2.4741(5) -0.8581(4)
C9A C -0.3130(4) 2.5192(5) -0.8303(5)
H5A H -0.3202 2.5829 -0.8315
C10A C -0.3916(4) 2.4709(5) -0.8010(5)
H6A H -0.4520 2.5028 -0.7833
C11A C -0.3835(3) 2.3765(4) -0.7970(4)
C12A C -0.2935(4) 2.3320(5) -0.8273(4)
H7A H -0.2865 2.2690 -0.8277
C13A C -0.2139(4) 2.3812(5) -0.8569(5)
H8A H -0.1535 2.3504 -0.8762
C14A C 0.2816(4) 2.1554(4) -0.4844(4)
H9A H 0.2300 2.1533 -0.5043
C15A C 0.2907(4) 2.0898(4) -0.3953(4)
H10A H 0.2464 2.0441 -0.3563
C16A C 0.3652(4) 2.0908(4) -0.3626(4)
C17A C 0.4283(4) 2.1597(5) -0.4253(4)
H11A H 0.4804 2.1632 -0.4069
C18A C 0.4148(4) 2.2224(5) -0.5136(4)
H12A H 0.4587 2.2679 -0.5547
C19A C 0.3737(4) 2.0253(4) -0.2620(4)
C20A C 0.2989(5) 1.9810(5) -0.1913(4)
H13A H 0.2423 1.9834 -0.2058
C21A C 0.3071(5) 1.9326(5) -0.0978(5)
H14A H 0.2543 1.9039 -0.0502
C22A C 0.4578(5) 2.0149(5) -0.2362(4)
H15A H 0.5118 2.0419 -0.2830
C23A C 0.4604(5) 1.9642(5) -0.1406(5)
H16A H 0.5169 1.9579 -0.1240
C29A C 0.1939(4) 2.4376(5) -0.5583(4)
H21A H 0.1653 2.3788 -0.5227
C30A C 0.1524(5) 2.5182(5) -0.5350(5)
H22A H 0.0965 2.5134 -0.4858
C31A C 0.1935(4) 2.6069(4) -0.5843(5)
C32A C 0.2774(4) 2.6052(5) -0.6531(6)
H23A H 0.3105 2.6612 -0.6868
N5A N 0.0554(8) 2.8570(9) -0.4970(9)
C33A C 0.1922(8) 2.7399(9) -0.5225(10)
H24A H 0.2561 2.7177 -0.5222
C34A C 0.142(4) 2.692(5) -0.548(3)
C35A C 0.1472(8) 2.8208(9) -0.4971(10)
H25A H 0.1822 2.8508 -0.4795
C36A C 0.0525(4) 2.7222(4) -0.5428(4)
H26A H 0.0142 2.6867 -0.5502
C37A C 0.0145(4) 2.8069(5) -0.5260(5)
H27A H -0.0464 2.8332 -0.5355
C38A C 0.3131(4) 2.5206(5) -0.6726(5)
H28A H 0.3699 2.5226 -0.7202
C39A C -0.4698(4) 2.3204(4) -0.7588(4)
O6A O 0.1237(8) 2.9935(9) -0.4771(9)
O7A O 0.1655(10) 2.9136(11) -0.3348(11)
C40A C 0.107(5) 2.944(3) -0.388(5)
C41A C -0.1366(13) 2.9056(13) -0.3481(14)
N6A N -0.0517(9) 2.9275(9) -0.3862(12)
C42A C 0.0120(16) 2.9073(15) -0.3363(15)
C43A C -0.018(7) 2.862(5) -0.237(4)
C44A C -0.1099(13) 2.8326(14) -0.1898(15)
C45A C -0.170(4) 2.854(4) -0.248(3)
O8A O 0.5446(3) 1.8623(3) 0.0514(3)
O9A O 0.4543(3) 1.7812(3) 0.1936(3)
O10A O 0.8514(3) 1.6679(4) 0.3059(3)
O11A O 1.1756(4) 1.9558(4) 0.1357(5)
O12A O 1.2621(3) 1.8159(3) 0.1326(3)
C46A C 1.1845(5) 1.8657(5) 0.1517(4)
C47A C 1.0955(5) 1.8139(5) 0.1938(4)
C48A C 1.0066(5) 1.8622(5) 0.2226(5)
H29A H 1.0021 1.9270 0.2178
C49A C 0.9259(5) 1.8157(6) 0.2580(5)
H30A H 0.8667 1.8490 0.2764
C50A C 0.9321(5) 1.7203(6) 0.2663(5)
C51A C 1.0183(5) 1.6683(6) 0.2419(5)
H31A H 1.0223 1.6025 0.2497
C52A C 1.0983(5) 1.7167(5) 0.2054(5)
H32A H 1.1573 1.6826 0.1877
C53A C 0.7769(5) 1.7069(5) 0.2600(5)
C54A C 0.7874(5) 1.7674(5) 0.1651(5)
H33A H 0.8472 1.7868 0.1262
C55A C 0.7094(5) 1.7997(5) 0.1267(5)
H34A H 0.7172 1.8408 0.0616
C56A C 0.6208(5) 1.7730(4) 0.1818(4)
C57A C 0.6101(5) 1.7105(5) 0.2790(5)
H35A H 0.5502 1.6917 0.3180
C58A C 0.6891(5) 1.6764(5) 0.3174(5)
H36A H 0.6828 1.6330 0.3818
C59A C 0.5346(5) 1.8080(4) 0.1412(5)
O13A O 0.3577(3) 1.9838(3) 0.0913(3)
H37A H 0.2992 1.9950 0.1049
H38A H 0.3689 2.0420 0.0412
O14A O 0.3672(3) 2.1983(3) -0.7236(3)
H39A H 0.4399 2.1903 -0.7184
H40A H 0.3611 2.1452 -0.6766
Cu1_2 Cu -0.39757(6) 1.14895(5) -0.06917(5)
Cu1A_2 Cu 1.39757(6) 1.85105(5) 0.06917(5)
Cu2_2 Cu 1.67990(4) 0.68132(5) 0.67635(5)
Cu2A_2 Cu -0.67990(4) 2.31868(5) -0.67635(5)
Cu3_2 Cu -0.00976(12) 2.98777(13) -0.46556(11)
Cu3A_2 Cu 1.00976(12) 0.01223(13) 0.46556(11)
O4_2 O 0.5497(2) 0.6322(3) 0.7369(3)
O4A_2 O 0.4503(2) 2.3678(3) -0.7369(3)
N5_2 N -0.0554(8) 3.1430(9) -0.5030(9)
N5A_2 N 1.0554(8) -0.1430(9) 0.5030(9)
O6_2 O -0.1237(8) 3.0065(9) -0.5229(9)
O6A_2 O 1.1237(8) -0.0065(9) 0.5229(9)
N6_2 N 0.0517(9) 3.0725(9) -0.6138(12)
N6A_2 N 0.9483(9) -0.0725(9) 0.6138(12)
C42_2 C -0.0120(16) 3.0927(15) -0.6637(15)
C42A_2 C 1.0120(16) -0.0927(15) 0.6637(15)
O12_2 O 0.7379(3) 1.1841(3) -0.1326(3)
O12A_2 O 0.2621(3) 1.8159(3) 0.1326(3)
N7? N 0.9297(9) 0.1207(9) 0.5594(10)
C60? C 0.8342(9) 0.1352(10) 0.6056(11)
H51? H 0.7967 0.0834 0.6304
C61? C 0.7933(9) 0.2214(10) 0.6161(11)
H52? H 0.7289 0.2267 0.6481
C62? C 0.843(4) 0.301(5) 0.581(3)
O20? O 0.8531(10) 0.1013(10) 0.2709(10)
O21? O 0.901(3) 0.0226(17) 0.413(3)
C63? C 0.9113(13) 0.0768(12) 0.3232(15)
C64? C 1.006(7) 0.118(5) 0.273(4)
C65? C 1.0309(15) 0.1795(14) 0.1709(14)
C66? C 1.1191(13) 0.2189(13) 0.1259(13)
C67? C 1.1796(13) 0.1962(13) 0.1841(15)
C68? C 1.150(4) 0.136(4) 0.285(3)
H53? H 1.1044 0.1910 0.2825
N8? N 1.0671(10) 0.0999(9) 0.3222(11)
H54? H 1.2138 0.0909 0.2458
H55? H 1.0824 0.1210 0.2383
loop_
_geom_bond_atom_site_label_1
_geom_bond_atom_site_label_2
_geom_bond_site_symmetry_1
_geom_bond_site_symmetry_2
Cu1 N1 1_555 1_555
Cu2 N3 1_555 1_555
Cu3 N5 1_555 1_555
N1 C24 1_555 1_555
N2 Cu1 1_555 1_555
N3 C14 1_555 1_555
N4 Cu2 1_555 1_555
O1 Cu2 1_555 1_555
O2 Cu2 1_555 1_555
O3 C5 1_555 1_555
O4 C39 1_555 1_555
O5 C39 1_555 1_555
C1 O1 1_555 1_555
C2 C1 1_555 1_555
C3 C2 1_555 1_555
H1 C3 1_555 1_555
C4 C3 1_555 1_555
H2 C4 1_555 1_555
C5 C4 1_555 1_555
C6 C5 1_555 1_555
H3 C6 1_555 1_555
C7 C2 1_555 1_555
H4 C7 1_555 1_555
C8 O3 1_555 1_555
C9 C8 1_555 1_555
H5 C9 1_555 1_555
C10 C9 1_555 1_555
H6 C10 1_555 1_555
C11 C10 1_555 1_555
C12 C11 1_555 1_555
H7 C12 1_555 1_555
C13 C8 1_555 1_555
H8 C13 1_555 1_555
C14 H9 1_555 1_555
C15 C14 1_555 1_555
H10 C15 1_555 1_555
C16 C15 1_555 1_555
C17 C16 1_555 1_555
H11 C17 1_555 1_555
C18 N3 1_555 1_555
H12 C18 1_555 1_555
C19 C16 1_555 1_555
C20 C19 1_555 1_555
H13 C20 1_555 1_555
C21 N2 1_555 1_555
H14 C21 1_555 1_555
C22 C19 1_555 1_555
H15 C22 1_555 1_555
C23 N2 1_555 1_555
H16 C23 1_555 1_555
C24 H17 1_555 1_555
C25 C24 1_555 1_555
H18 C25 1_555 1_555
C26 C25 1_555 1_555
C27 C26 1_555 1_555
H19 C27 1_555 1_555
C28 N1 1_555 1_555
H20 C28 1_555 1_555
C29 N4 1_555 1_555
H21 C29 1_555 1_555
C30 C29 1_555 1_555
H22 C30 1_555 1_555
C31 C30 1_555 1_555
C32 C31 1_555 1_555
H23 C32 1_555 1_555
N5 C35 1_555 1_555
C33 H24 1_555 1_555
C34 C31 1_555 1_555
C35 C33 1_555 1_555
H25 C35 1_555 1_555
C36 C34 1_555 1_555
H26 C36 1_555 1_555
C37 N5 1_555 1_555
H27 C37 1_555 1_555
C38 N4 1_555 1_555
H28 C38 1_555 1_555
C39 C11 1_555 1_555
O6 Cu3 1_555 1_555
O7 C40 1_555 1_555
C40 O6 1_555 1_555
C41 N6 1_555 1_555
N6 Cu3 1_555 1_555
C42 C40 1_555 1_555
C43 C42 1_555 1_555
C44 C43 1_555 1_555
C45 C41 1_555 1_555
O8 Cu1 1_555 1_555
O9 Cu1 1_555 1_555
O10 C50 1_555 1_555
O11 C46 1_555 1_555
O12 C46 1_555 1_555
C46 C47 1_555 1_555
C47 C48 1_555 1_555
C48 H29 1_555 1_555
C49 C48 1_555 1_555
H30 C49 1_555 1_555
C50 C49 1_555 1_555
C51 C50 1_555 1_555
H31 C51 1_555 1_555
C52 C47 1_555 1_555
H32 C52 1_555 1_555
C53 O10 1_555 1_555
C54 C53 1_555 1_555
H33 C54 1_555 1_555
C55 C54 1_555 1_555
H34 C55 1_555 1_555
C56 C55 1_555 1_555
C57 C56 1_555 1_555
H35 C57 1_555 1_555
C58 C53 1_555 1_555
H36 C58 1_555 1_555
C59 O8 1_555 1_555
O13 Cu1 1_555 1_555
H37 O13 1_555 1_555
H38 O13 1_555 1_555
O14 Cu2 1_555 1_555
H39 O14 1_555 1_555
H40 O14 1_555 1_555
O15 H41 1_555 1_555
H42 O15 1_555 1_555
O16 H43 1_555 1_555
H44 O16 1_555 1_555
O17 H45 1_555 1_555
H46 O17 1_555 1_555
O18 H47 1_555 1_555
H48 O18 1_555 1_555
O19 H49 1_555 1_555
H50 O19 1_555 1_555
N1A C24A 1_555 1_555
C24A H17A 1_555 1_555
C25A C24A 1_555 1_555
H18A C25A 1_555 1_555
C26A C26 1_555 1_555
C27A C26A 1_555 1_555
H19A C27A 1_555 1_555
C28A N1A 1_555 1_555
H20A C28A 1_555 1_555
Cu1A N1A 1_555 1_555
Cu2A N3A 1_555 1_555
Cu3A N5A 1_555 1_555
N2A Cu1A 1_555 1_555
N3A C14A 1_555 1_555
N4A Cu2A 1_555 1_555
O1A Cu2A 1_555 1_555
O2A Cu2A 1_555 1_555
O3A C5A 1_555 1_555
O4A C39A 1_555 1_555
O5A C39A 1_555 1_555
C1A O1A 1_555 1_555
C2A C1A 1_555 1_555
C3A C2A 1_555 1_555
H1A C3A 1_555 1_555
C4A C3A 1_555 1_555
H2A C4A 1_555 1_555
C5A C4A 1_555 1_555
C6A C5A 1_555 1_555
H3A C6A 1_555 1_555
C7A C2A 1_555 1_555
H4A C7A 1_555 1_555
C8A O3A 1_555 1_555
C9A C8A 1_555 1_555
H5A C9A 1_555 1_555
C10A C9A 1_555 1_555
H6A C10A 1_555 1_555
C11A C10A 1_555 1_555
C12A C11A 1_555 1_555
H7A C12A 1_555 1_555
C13A C8A 1_555 1_555
H8A C13A 1_555 1_555
C14A H9A 1_555 1_555
C15A C14A 1_555 1_555
H10A C15A 1_555 1_555
C16A C15A 1_555 1_555
C17A C16A 1_555 1_555
H11A C17A 1_555 1_555
C18A N3A 1_555 1_555
H12A C18A 1_555 1_555
C19A C16A 1_555 1_555
C20A C19A 1_555 1_555
H13A C20A 1_555 1_555
C21A N2A 1_555 1_555
H14A C21A 1_555 1_555
C22A C19A 1_555 1_555
H15A C22A 1_555 1_555
C23A N2A 1_555 1_555
H16A C23A 1_555 1_555
C29A N4A 1_555 1_555
H21A C29A 1_555 1_555
C30A C29A 1_555 1_555
H22A C30A 1_555 1_555
C31A C30A 1_555 1_555
C32A C31A 1_555 1_555
H23A C32A 1_555 1_555
N5A C35A 1_555 1_555
C33A H24A 1_555 1_555
C34A C31A 1_555 1_555
C35A C33A 1_555 1_555
H25A C35A 1_555 1_555
C36A C34A 1_555 1_555
H26A C36A 1_555 1_555
C37A N5A 1_555 1_555
H27A C37A 1_555 1_555
C38A N4A 1_555 1_555
H28A C38A 1_555 1_555
C39A C11A 1_555 1_555
O6A Cu3A 1_555 1_555
O7A C40A 1_555 1_555
C40A O6A 1_555 1_555
C41A N6A 1_555 1_555
N6A Cu3A 1_555 1_555
C42A C40A 1_555 1_555
C43A C42A 1_555 1_555
C44A C43A 1_555 1_555
C45A C41A 1_555 1_555
O8A Cu1A 1_555 1_555
O9A Cu1A 1_555 1_555
O10A C50A 1_555 1_555
O11A C46A 1_555 1_555
O12A C46A 1_555 1_555
C46A C47A 1_555 1_555
C47A C48A 1_555 1_555
C48A H29A 1_555 1_555
C49A C48A 1_555 1_555
H30A C49A 1_555 1_555
C50A C49A 1_555 1_555
C51A C50A 1_555 1_555
H31A C51A 1_555 1_555
C52A C47A 1_555 1_555
H32A C52A 1_555 1_555
C53A O10A 1_555 1_555
C54A C53A 1_555 1_555
H33A C54A 1_555 1_555
C55A C54A 1_555 1_555
H34A C55A 1_555 1_555
C56A C55A 1_555 1_555
C57A C56A 1_555 1_555
H35A C57A 1_555 1_555
C58A C53A 1_555 1_555
H36A C58A 1_555 1_555
C59A O8A 1_555 1_555
O13A Cu1A 1_555 1_555
H37A O13A 1_555 1_555
H38A O13A 1_555 1_555
O14A Cu2A 1_555 1_555
H39A O14A 1_555 1_555
H40A O14A 1_555 1_555
Cu1_2 O12 1_555 1_555
Cu1A_2 O12A 1_555 1_555
Cu2_2 O4 1_555 1_555
Cu2A_2 O4A 1_555 1_555
Cu3_2 Cu3A 1_555 1_555
Cu3A_2 Cu3 1_555 1_555
O4_2 Cu2 1_555 1_555
O4A_2 Cu2A 1_555 1_555
N5_2 Cu3A 1_555 1_555
N5A_2 Cu3 1_555 1_555
O6_2 Cu3A 1_555 1_555
O6A_2 Cu3 1_555 1_555
N6_2 Cu3A 1_555 1_555
N6A_2 Cu3 1_555 1_555
C42_2 Cu3A 1_555 1_555
C42A_2 Cu3 1_555 1_555
O12_2 Cu1 1_555 1_555
O12A_2 Cu1A 1_555 1_555
O2 C1 1_555 1_555
C6 C7 1_555 1_555
C12 C13 1_555 1_555
C17 C18 1_555 1_555
C20 C21 1_555 1_555
C22 C23 1_555 1_555
C27 C28 1_555 1_555
C32 C38 1_555 1_555
N5 Cu3A_2 1_555 1_555
C33 C34 1_555 1_555
C36 C37 1_555 1_555
O6 Cu3A_2 1_555 1_555
N6 C42 1_555 1_555
N6 Cu3A_2 1_555 1_555
C42 Cu3A_2 1_555 1_555
C44 C45 1_555 1_555
O9 C59 1_555 1_555
C51 C52 1_555 1_555
C56 C59 1_555 1_555
C57 C58 1_555 1_555
C25A C26A 1_555 1_555
C27A C28A 1_555 1_555
O2A C1A 1_555 1_555
C6A C7A 1_555 1_555
C12A C13A 1_555 1_555
C17A C18A 1_555 1_555
C20A C21A 1_555 1_555
C22A C23A 1_555 1_555
C32A C38A 1_555 1_555
N5A Cu3_2 1_555 1_555
C33A C34A 1_555 1_555
C36A C37A 1_555 1_555
O6A Cu3_2 1_555 1_555
N6A C42A 1_555 1_555
N6A Cu3_2 1_555 1_555
C42A Cu3_2 1_555 1_555
C44A C45A 1_555 1_555
O9A C59A 1_555 1_555
C51A C52A 1_555 1_555
C56A C59A 1_555 1_555
C57A C58A 1_555 1_555
Cu3_2 N5_2 1_555 1_555
Cu3_2 O6_2 1_555 1_555
Cu3_2 N6_2 1_555 1_555
Cu3A_2 N5A_2 1_555 1_555
Cu3A_2 O6A_2 1_555 1_555
Cu3A_2 N6A_2 1_555 1_555
N6_2 C42_2 1_555 1_555
N6A_2 C42A_2 1_555 1_555

#END
