
#######################################################################
#
#                 Cambridge Crystallographic Data Centre
#                                CCDC 
#
#######################################################################
#
# If this CIF has been generated from an entry in the Cambridge 
# Structural Database, then it will include bibliographic, chemical, 
# crystal, experimental, refinement or atomic coordinate data resulting 
# from the CCDC's data processing and validation procedures.
#
#######################################################################

data_KIFXUU
_symmetry_cell_setting           triclinic
_symmetry_space_group_name_H-M   'P -1'
_symmetry_Int_Tables_number      2
_space_group_name_Hall           '-P 1'
loop_
_symmetry_equiv_pos_site_id
_symmetry_equiv_pos_as_xyz
1 x,y,z
2 -x,-y,-z
_cell_length_a                   12.215(3)
_cell_length_b                   14.940(4)
_cell_length_c                   15.929(4)
_cell_angle_alpha                88.100(3)
_cell_angle_beta                 73.721(3)
_cell_angle_gamma                70.836(3)
_cell_volume                     2630.18
loop_
_atom_site_label
_atom_site_type_symbol
_atom_site_fract_x
_atom_site_fract_y
_atom_site_fract_z
Ni1 Ni 0.68470(6) 0.55839(4) 0.47676(4)
Ni2 Ni 0.34239(6) 0.80077(4) -0.10748(4)
O1 O 0.2545(4) 0.6454(3) -0.2020(3)
O2 O 0.2911(3) 0.6862(2) -0.0820(2)
O3 O 0.1012(4) 0.3517(3) 0.0656(3)
O4 O 0.6686(3) 0.4217(2) 0.4704(2)
O5 O 0.7484(3) 0.4556(2) 0.5671(2)
O6 O 0.8605(5) 0.0168(3) 0.6200(4)
O7 O 0.7236(4) -0.3287(3) 0.5118(2)
O8 O 0.5407(5) -0.2296(3) 0.5819(4)
O9 O 0.1858(3) -0.0801(2) -0.0368(3)
O10 O 0.3590(4) -0.0661(2) -0.1103(3)
O11 O 0.2819(5) 0.8150(3) -0.2176(3)
H1 H 0.2869 0.7618 -0.2388
H2 H 0.3205 0.8423 -0.2567
O12 O 0.5193(3) 0.6064(2) 0.5680(2)
H3 H 0.4669 0.5932 0.5500
H4 H 0.4969 0.6663 0.5773
N1 N 0.6144(4) 0.6164(3) 0.3758(3)
N2 N 0.3980(4) 0.7732(3) 0.0099(3)
N3 N 0.5199(4) 0.7346(3) -0.1774(3)
N4 N 1.1411(4) 0.4976(3) -0.3927(3)
C1 C 0.5647(5) 0.5688(4) 0.3376(3)
H5 H 0.5620 0.5104 0.3585
C2 C 0.5171(5) 0.6000(4) 0.2695(3)
H6 H 0.4822 0.5641 0.2459
C3 C 0.5217(4) 0.6854(3) 0.2364(3)
C4 C 0.5725(6) 0.7358(4) 0.2751(4)
H7 H 0.5767 0.7941 0.2551
C5 C 0.6169(6) 0.6992(4) 0.3436(4)
H8 H 0.6509 0.7345 0.3690
C6 C 0.4775(4) 0.7171(3) 0.1585(3)
C7 C 0.4942(5) 0.6520(4) 0.0926(3)
H9 H 0.5326 0.5877 0.0968
C8 C 0.4540(5) 0.6823(4) 0.0209(3)
H10 H 0.4664 0.6370 -0.0225
C9 C 0.3833(5) 0.8356(4) 0.0731(3)
H11 H 0.3459 0.8996 0.0668
C10 C 0.4203(5) 0.8111(4) 0.1473(3)
H12 H 0.4067 0.8579 0.1897
C11 C 0.2575(5) 0.6354(3) -0.1249(4)
C12 C 0.2193(4) 0.5578(3) -0.0756(3)
C13 C 0.1877(5) 0.4936(3) -0.1176(4)
H13 H 0.1911 0.4983 -0.1765
C14 C 0.1511(5) 0.4228(4) -0.0721(4)
H14 H 0.1313 0.3795 -0.1005
C15 C 0.1446(5) 0.4171(4) 0.0146(4)
C16 C 0.1754(6) 0.4799(4) 0.0567(4)
H15 H 0.1703 0.4756 0.1160
C17 C 0.2141(5) 0.5493(4) 0.0109(4)
H16 H 0.2368 0.5907 0.0393
C18 C 0.1398(5) 0.2592(4) 0.0306(4)
C19 C 0.2569(5) 0.2139(4) -0.0169(4)
H17 H 0.3124 0.2462 -0.0295
C20 C 0.2925(5) 0.1205(4) -0.0461(4)
H18 H 0.3724 0.0895 -0.0779
C21 C 0.2096(5) 0.0719(3) -0.0283(4)
C22 C 0.0936(5) 0.1182(4) 0.0205(4)
H19 H 0.0380 0.0859 0.0331
C23 C 0.0570(5) 0.2116(4) 0.0514(4)
H20 H -0.0218 0.2419 0.0855
C24 C 0.2520(6) -0.0300(4) -0.0603(4)
C25 C 0.5595(6) 0.6533(4) -0.2267(4)
H21 H 0.5023 0.6273 -0.2327
C26 C 0.6782(5) 0.6057(4) -0.2689(4)
H22 H 0.7000 0.5495 -0.3024
C27 C 0.7663(5) 0.6426(4) -0.2611(3)
C28 C 0.7258(6) 0.7273(4) -0.2111(4)
H23 H 0.7809 0.7552 -0.2044
C29 C 0.6048(6) 0.7701(4) -0.1713(4)
H24 H 0.5804 0.8269 -0.1382
C30 C 0.8964(5) 0.5926(4) -0.3050(3)
C31 C 0.9338(6) 0.5168(5) -0.3651(5)
H25 H 0.8764 0.4956 -0.3779
C32 C 1.0541(6) 0.4718(4) -0.4064(5)
H26 H 1.0751 0.4204 -0.4460
C33 C 1.1073(6) 0.5693(5) -0.3336(4)
H27 H 1.1669 0.5884 -0.3218
C34 C 0.9891(6) 0.6166(5) -0.2890(4)
H28 H 0.9710 0.6655 -0.2474
C35 C 0.7219(4) 0.3957(3) 0.5304(3)
C36 C 0.7366(5) 0.2264(4) 0.5080(4)
H29 H 0.7022 0.2430 0.4621
C37 C 0.7547(4) 0.2955(3) 0.5530(3)
C38 C 0.7691(6) 0.1330(4) 0.5303(5)
H30 H 0.7559 0.0872 0.5001
C39 C 0.8204(6) 0.1088(4) 0.5970(5)
C40 C 0.8401(6) 0.1754(4) 0.6423(4)
H31 H 0.8747 0.1580 0.6881
C41 C 0.8084(5) 0.2677(4) 0.6199(4)
H32 H 0.8232 0.3126 0.6501
C42 C 0.8074(8) -0.0480(4) 0.6016(6)
C43 C 0.6871(9) -0.0294(5) 0.6333(7)
H33 H 0.6384 0.0274 0.6656
C44 C 0.6358(8) -0.0963(5) 0.6172(6)
H34 H 0.5528 -0.0839 0.6386
C45 C 0.7090(7) -0.1801(4) 0.5697(5)
C46 C 0.8312(7) -0.1985(4) 0.5425(5)
H35 H 0.8814 -0.2565 0.5128
C47 C 0.8818(7) -0.1321(5) 0.5586(5)
H36 H 0.9651 -0.1453 0.5401
C48 C 0.6525(7) -0.2511(4) 0.5537(5)
Ni1_2 Ni 0.68470(6) -0.44161(4) 0.47676(4)
Ni1A Ni 1.31530(6) 0.44161(4) -0.47676(4)
Ni2_2 Ni 0.34239(6) -0.19923(4) -0.10748(4)
O7_2 O 0.7236(4) 0.6713(3) 0.5118(2)
O9_2 O 0.1858(3) 0.9199(2) -0.0368(3)
O10_2 O 0.3590(4) 0.9339(2) -0.1103(3)
N4A N 0.8589(4) 0.5024(3) 0.3927(3)
O13 O 0.4071(14) 0.0478(7) 0.7439(8)
H37 H 0.3447 0.0580 0.7265
H38 H 0.3944 0.0138 0.7869
O14 O 0.3352(8) 0.9036(6) 0.6444(5)
H39 H 0.2816 0.9532 0.6356
H40 H 0.3918 0.8741 0.5998
O15 O 0.8411(17) 0.7827(14) 0.2628(15)
N5 N 0.9655(15) 0.8736(12) 0.2093(13)
C49 C 0.861(2) 0.8575(15) 0.2645(19)
H41 H 0.8052 0.9066 0.3043
C50 C 1.052(3) 0.7973(18) 0.149(3)
H42 H 1.0352 0.7395 0.1645
H43 H 1.1318 0.7905 0.1515
H44 H 1.0464 0.8108 0.0907
C51 C 0.9690(15) 0.9651(11) 0.2006(11)
H45 H 0.9431 0.9972 0.2576
H46 H 0.9162 0.9987 0.1668
H47 H 1.0501 0.9630 0.1714
O16? O 0.7971(16) 0.9206(13) 0.3107(12)
N6? N 0.9567(19) 0.8115(15) 0.2073(14)
C52? C 0.897(2) 0.9024(14) 0.250(2)
H48? H 0.9315 0.9500 0.2344
C53? C 1.080(3) 0.787(2) 0.151(3)
H49? H 1.0985 0.8446 0.1356
H50? H 1.0879 0.7530 0.0983
H51? H 1.1349 0.7489 0.1809
C54? C 0.934(2) 0.7314(15) 0.2516(18)
H52? H 1.0093 0.6802 0.2433
H53? H 0.8810 0.7116 0.2281
H54? H 0.8974 0.7488 0.3131
loop_
_geom_bond_atom_site_label_1
_geom_bond_atom_site_label_2
_geom_bond_site_symmetry_1
_geom_bond_site_symmetry_2
Ni1 O4 1_555 1_555
Ni2 O2 1_555 1_555
O1 C11 1_555 1_555
O2 C11 1_555 1_555
O3 C15 1_555 1_555
O4 C35 1_555 1_555
O5 Ni1 1_555 1_555
O6 C39 1_555 1_555
O7 C48 1_555 1_555
O8 C48 1_555 1_555
O9 C24 1_555 1_555
O10 C24 1_555 1_555
O11 Ni2 1_555 1_555
H1 O11 1_555 1_555
H2 O11 1_555 1_555
O12 Ni1 1_555 1_555
H3 O12 1_555 1_555
H4 O12 1_555 1_555
N1 Ni1 1_555 1_555
N2 Ni2 1_555 1_555
N3 Ni2 1_555 1_555
N4 C32 1_555 1_555
C1 N1 1_555 1_555
H5 C1 1_555 1_555
C2 C1 1_555 1_555
H6 C2 1_555 1_555
C3 C2 1_555 1_555
C4 C3 1_555 1_555
H7 C4 1_555 1_555
C5 N1 1_555 1_555
H8 C5 1_555 1_555
C6 C3 1_555 1_555
C7 C6 1_555 1_555
H9 C7 1_555 1_555
C8 N2 1_555 1_555
H10 C8 1_555 1_555
C9 N2 1_555 1_555
H11 C9 1_555 1_555
C10 C6 1_555 1_555
H12 C10 1_555 1_555
C11 C12 1_555 1_555
C12 C13 1_555 1_555
C13 H13 1_555 1_555
C14 C13 1_555 1_555
H14 C14 1_555 1_555
C15 C14 1_555 1_555
C16 C15 1_555 1_555
H15 C16 1_555 1_555
C17 C12 1_555 1_555
H16 C17 1_555 1_555
C18 O3 1_555 1_555
C19 C18 1_555 1_555
H17 C19 1_555 1_555
C20 C19 1_555 1_555
H18 C20 1_555 1_555
C21 C20 1_555 1_555
C22 C21 1_555 1_555
H19 C22 1_555 1_555
C23 C18 1_555 1_555
H20 C23 1_555 1_555
C24 C21 1_555 1_555
C25 N3 1_555 1_555
H21 C25 1_555 1_555
C26 C25 1_555 1_555
H22 C26 1_555 1_555
C27 C26 1_555 1_555
C28 C27 1_555 1_555
H23 C28 1_555 1_555
C29 N3 1_555 1_555
H24 C29 1_555 1_555
C30 C27 1_555 1_555
C31 C30 1_555 1_555
H25 C31 1_555 1_555
C32 C31 1_555 1_555
H26 C32 1_555 1_555
C33 N4 1_555 1_555
H27 C33 1_555 1_555
C34 C30 1_555 1_555
H28 C34 1_555 1_555
C35 O5 1_555 1_555
C36 H29 1_555 1_555
C37 C35 1_555 1_555
C38 C36 1_555 1_555
H30 C38 1_555 1_555
C39 C38 1_555 1_555
C40 C39 1_555 1_555
H31 C40 1_555 1_555
C41 C37 1_555 1_555
H32 C41 1_555 1_555
C42 O6 1_555 1_555
C43 C42 1_555 1_555
H33 C43 1_555 1_555
C44 C43 1_555 1_555
H34 C44 1_555 1_555
C45 C44 1_555 1_555
C46 C45 1_555 1_555
H35 C46 1_555 1_555
C47 C42 1_555 1_555
H36 C47 1_555 1_555
C48 C45 1_555 1_555
O13 H37 1_555 1_555
H38 O13 1_555 1_555
O14 H39 1_555 1_555
H40 O14 1_555 1_555
O15 C49 1_555 1_555
N5 C49 1_555 1_555
C49 H41 1_555 1_555
C50 N5 1_555 1_555
H42 C50 1_555 1_555
H43 C50 1_555 1_555
H44 C50 1_555 1_555
C51 N5 1_555 1_555
H45 C51 1_555 1_555
H46 C51 1_555 1_555
H47 C51 1_555 1_555
Ni1_2 O7 1_555 1_555
Ni1A N4 1_555 1_555
Ni2_2 O9 1_555 1_555
O7_2 Ni1 1_555 1_555
O9_2 Ni2 1_555 1_555
O10_2 Ni2 1_555 1_555
N4A Ni1 1_555 1_555
O10 Ni2_2 1_555 1_555
C4 C5 1_555 1_555
C7 C8 1_555 1_555
C9 C10 1_555 1_555
C16 C17 1_555 1_555
C22 C23 1_555 1_555
C28 C29 1_555 1_555
C33 C34 1_555 1_555
C36 C37 1_555 1_555
C40 C41 1_555 1_555
C46 C47 1_555 1_555

#END
