
#######################################################################
#
#                 Cambridge Crystallographic Data Centre
#                                CCDC 
#
#######################################################################
#
# If this CIF has been generated from an entry in the Cambridge 
# Structural Database, then it will include bibliographic, chemical, 
# crystal, experimental, refinement or atomic coordinate data resulting 
# from the CCDC's data processing and validation procedures.
#
#######################################################################

data_KIFYAB
_symmetry_cell_setting           triclinic
_symmetry_space_group_name_H-M   'P -1'
_symmetry_Int_Tables_number      2
_space_group_name_Hall           '-P 1'
loop_
_symmetry_equiv_pos_site_id
_symmetry_equiv_pos_as_xyz
1 x,y,z
2 -x,-y,-z
_cell_length_a                   12.089(11)
_cell_length_b                   14.791(13)
_cell_length_c                   15.760(14)
_cell_angle_alpha                87.779(13)
_cell_angle_beta                 74.046(12)
_cell_angle_gamma                70.035(12)
_cell_volume                     2541.9
loop_
_atom_site_label
_atom_site_type_symbol
_atom_site_fract_x
_atom_site_fract_y
_atom_site_fract_z
Ni1 Ni -0.31572(10) 0.55793(7) 0.97723(7)
Ni2 Ni 0.66272(11) 0.19528(8) 0.60834(7)
N1 N 0.4850(7) 0.2623(5) 0.6801(4)
N2 N -0.1394(6) 0.5004(5) 0.8936(4)
N3 N -0.3869(6) 0.6159(5) 0.8765(4)
N4 N -0.6041(6) 0.7757(5) 0.5079(4)
O1 O -0.2508(5) 0.4533(4) 1.0680(3)
O2 O -0.3322(5) 0.4220(4) 0.9709(3)
O3 O -0.1386(7) 0.0122(4) 1.1205(6)
O4 O -0.2769(5) -0.3296(4) 1.0111(4)
O5 O -0.4609(7) -0.2269(5) 1.0766(6)
O6 O 0.8208(5) 1.0750(4) 0.5347(4)
O7 O 0.6491(7) 1.0621(4) 0.6129(4)
O8 O 0.7463(6) 0.3527(4) 0.7031(4)
O9 O 0.7121(5) 0.3098(4) 0.5819(4)
O10 O 0.8937(6) 0.6456(4) 0.4322(4)
O11 O 0.7296(7) 0.1792(5) 0.7162(5)
H1 H 0.6855 0.1656 0.7634
H2 H 0.7562 0.2225 0.7204
O12 O -0.4827(4) 0.6076(4) 1.0683(3)
H3 H -0.5395 0.6028 1.0488
H4 H -0.4962 0.6627 1.0862
C1 C -0.2777(7) 0.3944(5) 1.0313(5)
C2 C -0.2446(7) 0.2935(6) 1.0541(5)
C3 C -0.1941(8) 0.2651(6) 1.1217(6)
H5 H -0.1813 0.3107 1.1533
C4 C -0.1612(8) 0.1719(6) 1.1452(6)
H6 H -0.1277 0.1541 1.1924
C5 C -0.1789(9) 0.1053(6) 1.0976(8)
C6 C -0.2260(10) 0.1309(6) 1.0263(8)
H7 H -0.2354 0.0850 0.9929
C7 C -0.2581(8) 0.2238(6) 1.0063(7)
H8 H -0.2904 0.2416 0.9585
C8 C -0.1910(11) -0.0503(7) 1.1006(8)
C9 C -0.1169(10) -0.1359(7) 1.0599(7)
H9 H -0.0324 -0.1509 1.0432
C10 C -0.1672(10) -0.2015(7) 1.0429(7)
H10 H -0.1163 -0.2610 1.0145
C11 C -0.2909(10) -0.1799(6) 1.0675(7)
C12 C -0.3651(10) -0.0945(7) 1.1112(9)
H11 H -0.4496 -0.0800 1.1301
C13 C -0.3129(12) -0.0285(8) 1.1273(9)
H12 H -0.3627 0.0308 1.1567
C14 C -0.3475(12) -0.2505(8) 1.0499(7)
C15 C 0.7544(10) 1.0257(7) 0.5596(6)
C16 C 0.7918(8) 0.9251(6) 0.5281(6)
C17 C 0.9074(9) 0.8773(7) 0.4776(7)
H13 H 0.9642 0.9088 0.4635
C18 C 0.9421(9) 0.7829(7) 0.4468(7)
H14 H 1.0220 0.7504 0.4132
C19 C 0.8569(9) 0.7380(6) 0.4665(6)
C20 C 0.7391(8) 0.7875(6) 0.5153(6)
H15 H 0.6806 0.7576 0.5272
C21 C 0.7084(8) 0.8774(6) 0.5453(6)
H16 H 0.6284 0.9095 0.5789
C22 C 0.4446(9) 0.3453(7) 0.7285(6)
H17 H 0.5013 0.3725 0.7343
C23 C 0.3243(9) 0.3914(7) 0.7694(6)
H18 H 0.3002 0.4485 0.8033
C24 C 0.2385(8) 0.3548(6) 0.7612(5)
C25 C 0.2771(10) 0.2687(7) 0.7140(6)
H19 H 0.2219 0.2399 0.7085
C26 C 0.4000(10) 0.2267(7) 0.6751(6)
H20 H 0.4261 0.1685 0.6424
C27 C 0.1068(9) 0.4041(7) 0.8050(6)
C28 C 0.0670(10) 0.4834(7) 0.8658(7)
H21 H 0.1243 0.5058 0.8782
C29 C -0.0531(9) 0.5274(7) 0.9064(7)
H22 H -0.0756 0.5801 0.9458
C30 C -0.1037(10) 0.4290(7) 0.8344(6)
H23 H -0.1635 0.4099 0.8219
C31 C 0.0157(9) 0.3810(7) 0.7898(6)
H24 H 0.0341 0.3313 0.7482
C32 C -0.3886(9) 0.7001(7) 0.8458(6)
H25 H -0.3569 0.7367 0.8725
C33 C -0.4345(9) 0.7367(7) 0.7769(6)
H26 H -0.4349 0.7974 0.7588
C34 C -0.4794(7) 0.6855(6) 0.7347(5)
C35 C -0.4803(7) 0.5985(6) 0.7671(5)
H27 H -0.5125 0.5612 0.7419
C36 C -0.4338(8) 0.5669(6) 0.8365(5)
H28 H -0.4350 0.5074 0.8571
C37 C -0.5239(8) 0.7183(6) 0.6578(5)
C38 C -0.5838(8) 0.8126(6) 0.6454(6)
H29 H -0.5996 0.8599 0.6886
C39 C -0.6207(8) 0.8386(6) 0.5710(6)
H30 H -0.6592 0.9036 0.5646
C40 C -0.5450(8) 0.6858(7) 0.5182(6)
H31 H -0.5301 0.6404 0.4735
C41 C -0.5037(8) 0.6539(6) 0.5892(5)
H32 H -0.4619 0.5886 0.5919
C42 C 0.8464(9) 0.5762(6) 0.5709(7)
H33 H 0.8653 0.6208 0.5991
C43 C 0.7452(7) 0.3615(6) 0.6243(7)
C44 C 0.7826(8) 0.4390(6) 0.5744(6)
C45 C 0.8123(8) 0.5045(6) 0.6158(6)
H34 H 0.8091 0.4998 0.6754
C46 C 0.7892(8) 0.4462(6) 0.4871(6)
H35 H 0.7695 0.4027 0.4582
C47 C 0.8516(8) 0.5800(6) 0.4829(7)
C48 C 0.8243(9) 0.5160(7) 0.4417(7)
H36 H 0.8295 0.5197 0.3818
Ni1_2 Ni -0.31572(10) -0.44207(7) 0.97723(7)
Ni2_2 Ni 0.66272(11) 1.19528(8) 0.60834(7)
Ni2A Ni -0.66272(11) 0.80472(8) 0.39166(7)
N4A N 0.6041(6) 0.2243(5) 0.4921(4)
O4_2 O -0.2769(5) 0.6704(4) 1.0111(4)
O6_2 O 0.8208(5) 0.0750(4) 0.5347(4)
O7_2 O 0.6491(7) 0.0621(4) 0.6129(4)
O13 O 0.6390(17) 0.9400(10) 0.7629(9)
H37 H 0.6402 0.9670 0.7142
H38 H 0.6472 0.9770 0.7988
O14 O 0.906(3) 0.773(2) 0.7354(19)
H39 H 0.8324 0.8109 0.7469
H40 H 0.9524 0.8040 0.7099
O15 O 0.6685(10) 0.0883(8) 0.8548(7)
H41 H 0.5993 0.1287 0.8821
H42 H 0.7176 0.0783 0.8865
O16 O 0.029(3) 0.899(4) 0.6503(17)
H43 H 0.0671 0.8941 0.5957
H44 H -0.0265 0.9547 0.6641
loop_
_geom_bond_atom_site_label_1
_geom_bond_atom_site_label_2
_geom_bond_site_symmetry_1
_geom_bond_site_symmetry_2
Ni1 N2 1_555 1_555
Ni2 N1 1_555 1_555
N1 C22 1_555 1_555
N2 C29 1_555 1_555
N3 Ni1 1_555 1_555
N4 C39 1_555 1_555
O1 Ni1 1_555 1_555
O2 Ni1 1_555 1_555
O3 C5 1_555 1_555
O4 C14 1_555 1_555
O5 C14 1_555 1_555
O6 C15 1_555 1_555
O7 C15 1_555 1_555
O8 C43 1_555 1_555
O9 Ni2 1_555 1_555
O10 C19 1_555 1_555
O11 Ni2 1_555 1_555
H1 O11 1_555 1_555
H2 O11 1_555 1_555
O12 Ni1 1_555 1_555
H3 O12 1_555 1_555
H4 O12 1_555 1_555
C1 O1 1_555 1_555
C2 C1 1_555 1_555
C3 C2 1_555 1_555
H5 C3 1_555 1_555
C4 C3 1_555 1_555
H6 C4 1_555 1_555
C5 C4 1_555 1_555
C6 C5 1_555 1_555
H7 C6 1_555 1_555
C7 C2 1_555 1_555
H8 C7 1_555 1_555
C8 O3 1_555 1_555
C9 C8 1_555 1_555
H9 C9 1_555 1_555
C10 C9 1_555 1_555
H10 C10 1_555 1_555
C11 C10 1_555 1_555
C12 C11 1_555 1_555
H11 C12 1_555 1_555
C13 C8 1_555 1_555
H12 C13 1_555 1_555
C14 C11 1_555 1_555
C15 C16 1_555 1_555
C16 C17 1_555 1_555
C17 H13 1_555 1_555
C18 C17 1_555 1_555
H14 C18 1_555 1_555
C19 C18 1_555 1_555
C20 C19 1_555 1_555
H15 C20 1_555 1_555
C21 C16 1_555 1_555
H16 C21 1_555 1_555
C22 H17 1_555 1_555
C23 C22 1_555 1_555
H18 C23 1_555 1_555
C24 C23 1_555 1_555
C25 C24 1_555 1_555
H19 C25 1_555 1_555
C26 N1 1_555 1_555
H20 C26 1_555 1_555
C27 C24 1_555 1_555
C28 C27 1_555 1_555
H21 C28 1_555 1_555
C29 C28 1_555 1_555
H22 C29 1_555 1_555
C30 N2 1_555 1_555
H23 C30 1_555 1_555
C31 C27 1_555 1_555
H24 C31 1_555 1_555
C32 N3 1_555 1_555
H25 C32 1_555 1_555
C33 C32 1_555 1_555
H26 C33 1_555 1_555
C34 C33 1_555 1_555
C35 C34 1_555 1_555
H27 C35 1_555 1_555
C36 N3 1_555 1_555
H28 C36 1_555 1_555
C37 C34 1_555 1_555
C38 C37 1_555 1_555
H29 C38 1_555 1_555
C39 C38 1_555 1_555
H30 C39 1_555 1_555
C40 N4 1_555 1_555
H31 C40 1_555 1_555
C41 C37 1_555 1_555
H32 C41 1_555 1_555
C42 H33 1_555 1_555
C43 O9 1_555 1_555
C44 C43 1_555 1_555
C45 C42 1_555 1_555
H34 C45 1_555 1_555
C46 C44 1_555 1_555
H35 C46 1_555 1_555
C47 O10 1_555 1_555
C48 C46 1_555 1_555
H36 C48 1_555 1_555
O13 H37 1_555 1_555
H38 O13 1_555 1_555
O14 H39 1_555 1_555
H40 O14 1_555 1_555
O15 H41 1_555 1_555
H42 O15 1_555 1_555
O16 H43 1_555 1_555
H44 O16 1_555 1_555
Ni1_2 O4 1_555 1_555
Ni2_2 O6 1_555 1_555
Ni2A N4 1_555 1_555
N4A Ni2 1_555 1_555
O4_2 Ni1 1_555 1_555
O6_2 Ni2 1_555 1_555
O7_2 Ni2 1_555 1_555
O2 C1 1_555 1_555
O7 Ni2_2 1_555 1_555
C6 C7 1_555 1_555
C12 C13 1_555 1_555
C20 C21 1_555 1_555
C25 C26 1_555 1_555
C30 C31 1_555 1_555
C35 C36 1_555 1_555
C40 C41 1_555 1_555
C42 C47 1_555 1_555
C44 C45 1_555 1_555
C47 C48 1_555 1_555

#END
