
#######################################################################
#
#                 Cambridge Crystallographic Data Centre
#                                CCDC 
#
#######################################################################
#
# If this CIF has been generated from an entry in the Cambridge 
# Structural Database, then it will include bibliographic, chemical, 
# crystal, experimental, refinement or atomic coordinate data resulting 
# from the CCDC's data processing and validation procedures.
#
#######################################################################

data_KIGFAH
_symmetry_cell_setting           monoclinic
_symmetry_space_group_name_H-M   'P 21/c'
_symmetry_Int_Tables_number      14
_space_group_name_Hall           '-P 2ybc'
loop_
_symmetry_equiv_pos_site_id
_symmetry_equiv_pos_as_xyz
1 x,y,z
2 x,1/2-y,1/2+z
3 -x,-y,-z
4 -x,1/2+y,1/2-z
_cell_length_a                   9.267(3)
_cell_length_b                   6.981(2)
_cell_length_c                   18.340(5)
_cell_angle_alpha                90
_cell_angle_beta                 93.94(2)
_cell_angle_gamma                90
_cell_volume                     1183.66
loop_
_atom_site_label
_atom_site_type_symbol
_atom_site_fract_x
_atom_site_fract_y
_atom_site_fract_z
Bi1 Bi -0.07318(9) 0.2489(2) 0.43818(4)
Br1 Br -0.0872(3) 0.4002(4) 0.3086(1)
Br2 Br 0.1952(2) 0.3969(4) 0.4794(1)
Br3 Br -0.0454(3) 1.0806(4) 0.6052(1)
S1 S -0.3713(6) 0.060(1) 0.4051(3)
C1 C -0.431(2) 0.060(3) 0.499(1)
C2 C -0.490(2) 0.227(4) 0.363(1)
C3 C -0.473(3) 0.431(4) 0.376(1)
C4 C -0.568(3) 0.560(4) 0.341(1)
C5 C -0.681(3) 0.492(4) 0.293(1)
C6 C -0.697(3) 0.297(3) 0.281(1)
C7 C -0.606(2) 0.167(3) 0.315(1)
H1 H -0.4521 0.1887 0.5147
H2 H -0.3582 0.0088 0.5330
H3 H -0.3973 0.4758 0.4093
H4 H -0.5548 0.6935 0.3489
H5 H -0.7475 0.5799 0.2694
H6 H -0.7729 0.2529 0.2473
H7 H -0.6216 0.0346 0.3060
Bi1B Bi 0.07318(9) 0.7511(2) 0.56182(4)
Br1B Br 0.0872(3) 0.5998(4) 0.6914(1)
Br2B Br -0.1952(2) 0.6031(4) 0.5206(1)
Br3_2 Br -0.0454(3) 0.0806(4) 0.6052(1)
C1B C -0.569(2) -0.060(3) 0.501(1)
S1B S -0.6287(6) -0.060(1) 0.5949(3)
Bi1B_2 Bi -0.92682(9) -0.2489(2) 0.56182(4)
C2B C -0.510(2) -0.227(4) 0.637(1)
C3B C -0.527(3) -0.431(4) 0.624(1)
C4B C -0.432(3) -0.560(4) 0.659(1)
C5B C -0.319(3) -0.492(4) 0.707(1)
C6B C -0.303(3) -0.297(3) 0.719(1)
C7B C -0.394(2) -0.167(3) 0.685(1)
H7B H -0.3784 -0.0346 0.6940
H6B H -0.2271 -0.2529 0.7527
H5B H -0.2525 -0.5799 0.7306
H4B H -0.4452 -0.6935 0.6511
H3B H -0.6027 -0.4758 0.5907
H1B H -0.5479 -0.1887 0.4853
H2B H -0.6418 -0.0088 0.4670
Br3B Br 0.0454(3) -0.0806(4) 0.3948(1)
Br3B_2 Br 0.0454(3) 0.9194(4) 0.3948(1)
S1B_2 S 0.3713(6) 0.940(1) 0.5949(3)
Bi1_2 Bi -0.07318(9) 1.2489(2) 0.43818(4)
loop_
_geom_bond_atom_site_label_1
_geom_bond_atom_site_label_2
_geom_bond_site_symmetry_1
_geom_bond_site_symmetry_2
Bi1 Br1 1_555 1_555
Br2 Bi1 1_555 1_555
Br3 Bi1B 1_555 1_555
S1 Bi1 1_555 1_555
C1 S1 1_555 1_555
C2 S1 1_555 1_555
C3 C2 1_555 1_555
C4 C3 1_555 1_555
C5 C4 1_555 1_555
C6 C5 1_555 1_555
C7 C2 1_555 1_555
H1 C1 1_555 1_555
H2 C1 1_555 1_555
H3 C3 1_555 1_555
H4 C4 1_555 1_555
H5 C5 1_555 1_555
H6 C6 1_555 1_555
H7 C7 1_555 1_555
Bi1B Br2 1_555 1_555
Br1B Bi1B 1_555 1_555
Br2B Bi1 1_555 1_555
Br3_2 Bi1 1_555 1_555
C1B C1 1_555 1_555
S1B C1B 1_555 1_555
Bi1B_2 S1B 1_555 1_555
C2B S1B 1_555 1_555
C3B C2B 1_555 1_555
C4B C3B 1_555 1_555
C5B C4B 1_555 1_555
C6B C5B 1_555 1_555
C7B C2B 1_555 1_555
H7B C7B 1_555 1_555
H6B C6B 1_555 1_555
H5B C5B 1_555 1_555
H4B C4B 1_555 1_555
H3B C3B 1_555 1_555
H1B C1B 1_555 1_555
H2B C1B 1_555 1_555
Br3B Bi1 1_555 1_555
Br3B_2 Bi1B 1_555 1_555
S1B_2 Bi1B 1_555 1_555
Bi1_2 Br3 1_555 1_555
C6 C7 1_555 1_555
Bi1B Br2B 1_555 1_555
C6B C7B 1_555 1_555
Br3B_2 Bi1_2 1_555 1_555

#END
