
#######################################################################
#
#                 Cambridge Crystallographic Data Centre
#                                CCDC 
#
#######################################################################
#
# If this CIF has been generated from an entry in the Cambridge 
# Structural Database, then it will include bibliographic, chemical, 
# crystal, experimental, refinement or atomic coordinate data resulting 
# from the CCDC's data processing and validation procedures.
#
#######################################################################

data_KIGGEN
_symmetry_cell_setting           monoclinic
_symmetry_space_group_name_H-M   'C 2/c'
_symmetry_Int_Tables_number      15
_space_group_name_Hall           '-C 2yn'
loop_
_symmetry_equiv_pos_site_id
_symmetry_equiv_pos_as_xyz
1 x,y,z
2 1/2+x,1/2+y,z
3 -x,y,1/2-z
4 1/2-x,1/2+y,1/2-z
5 -x,-y,-z
6 1/2-x,1/2-y,-z
7 x,-y,1/2+z
8 1/2+x,1/2-y,1/2+z
_cell_length_a                   13.784(2)
_cell_length_b                   13.156(2)
_cell_length_c                   13.101(2)
_cell_angle_alpha                90
_cell_angle_beta                 94.300(4)
_cell_angle_gamma                90
_cell_volume                     2369.08
loop_
_atom_site_label
_atom_site_type_symbol
_atom_site_fract_x
_atom_site_fract_y
_atom_site_fract_z
Cu1 Cu 0.7500 0.2500 0.5000
Cl1 Cl 1.11199(11) 0.26936(13) 0.66069(13)
Cl2 Cl 1.14475(9) 0.16661(10) 0.47348(11)
Cl3 Cl 1.03077(8) 0.07245(10) 0.61717(11)
N1 N 0.72932(16) 0.16548(16) 0.62392(17)
N2 N 0.6133(2) -0.0015(2) 0.9418(2)
H1 H 0.6010 -0.0411 0.9915
H2 H 0.5849 0.0565 0.9352
O1 O 0.88923(14) 0.20359(16) 0.51751(16)
O2 O 0.98674(16) 0.32700(17) 0.46709(18)
O3 O 0.71897(18) -0.11194(16) 0.88119(17)
C1 C 0.9691(2) 0.2470(2) 0.5098(2)
C2 C 1.0592(2) 0.1907(3) 0.5636(3)
C3 C 0.7702(2) 0.0732(2) 0.6347(2)
H3 H 0.8109 0.0512 0.5856
C4 C 0.7544(2) 0.0097(2) 0.7158(2)
H4 H 0.7840 -0.0538 0.7210
C5 C 0.6938(2) 0.0416(2) 0.7893(2)
C6 C 0.6522(2) 0.1373(2) 0.7786(2)
H5 H 0.6113 0.1613 0.8265
C7 C 0.6723(2) 0.1967(2) 0.6955(2)
H6 H 0.6449 0.2611 0.6893
C8 C 0.6761(2) -0.0300(2) 0.8758(2)
Cu1F Cu 0.7500 -0.2500 1.0000
Cu1F_2 Cu 0.7500 0.7500 0.0000
Cl1E Cl 0.38801(11) 0.23064(13) 0.33931(13)
Cl2E Cl 0.35525(9) 0.33339(10) 0.52652(11)
Cl3E Cl 0.46923(8) 0.42755(10) 0.38283(11)
N1E N 0.77068(16) 0.33452(16) 0.37608(17)
N2E N 0.8867(2) 0.5015(2) 0.0582(2)
H1E H 0.8990 0.5411 0.0085
H2E H 0.9151 0.4435 0.0648
O1E O 0.61077(14) 0.29641(16) 0.48249(16)
O2E O 0.51326(16) 0.17300(17) 0.53291(18)
O3E O 0.78103(18) 0.61194(16) 0.11881(17)
O3F O 0.71897(18) 0.11194(16) 0.38119(17)
O3C O 0.78103(18) 0.38806(16) 0.61881(17)
C1E C 0.5309(2) 0.2530(2) 0.4902(2)
C2E C 0.4408(2) 0.3093(3) 0.4364(3)
C3E C 0.7298(2) 0.4268(2) 0.3653(2)
H3E H 0.6891 0.4488 0.4144
C4E C 0.7456(2) 0.4903(2) 0.2842(2)
H4E H 0.7160 0.5538 0.2790
C5E C 0.8062(2) 0.4584(2) 0.2107(2)
C6E C 0.8478(2) 0.3627(2) 0.2214(2)
H5E H 0.8887 0.3387 0.1735
C7E C 0.8277(2) 0.3033(2) 0.3045(2)
H6E H 0.8551 0.2389 0.3107
C8E C 0.8239(2) 0.5300(2) 0.1242(2)
loop_
_geom_bond_atom_site_label_1
_geom_bond_atom_site_label_2
_geom_bond_site_symmetry_1
_geom_bond_site_symmetry_2
Cu1 N1 1_555 1_555
Cl1 C2 1_555 1_555
Cl2 C2 1_555 1_555
Cl3 C2 1_555 1_555
N1 C3 1_555 1_555
N2 H1 1_555 1_555
H2 N2 1_555 1_555
O1 Cu1 1_555 1_555
O2 C1 1_555 1_555
O3 C8 1_555 1_555
C1 O1 1_555 1_555
C2 C1 1_555 1_555
C3 H3 1_555 1_555
C4 C3 1_555 1_555
H4 C4 1_555 1_555
C5 C4 1_555 1_555
C6 C5 1_555 1_555
H5 C6 1_555 1_555
C7 N1 1_555 1_555
H6 C7 1_555 1_555
C8 N2 1_555 1_555
Cu1F O3 1_555 1_555
Cu1F_2 O3E 1_555 1_555
Cl1E C2E 1_555 1_555
Cl2E C2E 1_555 1_555
Cl3E C2E 1_555 1_555
N1E Cu1 1_555 1_555
N2E H1E 1_555 1_555
H2E N2E 1_555 1_555
O1E Cu1 1_555 1_555
O2E C1E 1_555 1_555
O3E C8E 1_555 1_555
O3F Cu1 1_555 1_555
O3C Cu1 1_555 1_555
C1E O1E 1_555 1_555
C2E C1E 1_555 1_555
C3E N1E 1_555 1_555
H3E C3E 1_555 1_555
C4E C3E 1_555 1_555
H4E C4E 1_555 1_555
C5E C4E 1_555 1_555
C6E C5E 1_555 1_555
H5E C6E 1_555 1_555
C7E N1E 1_555 1_555
H6E C7E 1_555 1_555
C8E N2E 1_555 1_555
C5 C8 1_555 1_555
C6 C7 1_555 1_555
C5E C8E 1_555 1_555
C6E C7E 1_555 1_555

#END
