
#######################################################################
#
#                 Cambridge Crystallographic Data Centre
#                                CCDC 
#
#######################################################################
#
# If this CIF has been generated from an entry in the Cambridge 
# Structural Database, then it will include bibliographic, chemical, 
# crystal, experimental, refinement or atomic coordinate data resulting 
# from the CCDC's data processing and validation procedures.
#
#######################################################################

data_KIGKUI
_symmetry_cell_setting           monoclinic
_symmetry_space_group_name_H-M   'P 21'
_symmetry_Int_Tables_number      4
_space_group_name_Hall           'P 2yb'
loop_
_symmetry_equiv_pos_site_id
_symmetry_equiv_pos_as_xyz
1 x,y,z
2 -x,1/2+y,-z
_cell_length_a                   10.1225(7)
_cell_length_b                   8.0527(6)
_cell_length_c                   12.0450(8)
_cell_angle_alpha                90
_cell_angle_beta                 105.257(4)
_cell_angle_gamma                90
_cell_volume                     947.225
loop_
_atom_site_label
_atom_site_type_symbol
_atom_site_fract_x
_atom_site_fract_y
_atom_site_fract_z
Ag1 Ag 0.52236(2) 0.83073(3) 1.37308(2)
Ag2 Ag 0.45964(3) 0.67463(3) 0.84915(2)
S1 S 0.63230(7) 0.50783(9) 0.77732(6)
N1 N 0.6772(3) 0.7132(4) 1.2909(3)
N2 N 0.7035(3) 0.2773(4) 0.3009(3)
C1 C 0.7419(3) 0.6616(4) 1.2351(3)
C2 C 0.8220(3) 0.5922(4) 1.1634(3)
C3 C 0.9638(3) 0.5885(4) 1.1994(3)
H1 H 1.0112 0.6340 1.2717
C4 C 1.0345(3) 0.5183(4) 1.1287(3)
H2 H 1.1317 0.5155 1.1519
C5 C 0.9647(3) 0.4510(4) 1.0232(3)
H3 H 1.0149 0.4038 0.9746
C6 C 0.8230(3) 0.4519(4) 0.9883(3)
C7 C 0.7518(3) 0.5238(4) 1.0583(3)
H4 H 0.6546 0.5268 1.0350
C8 C 0.7463(3) 0.3699(4) 0.8774(3)
H5 H 0.6920 0.2765 0.8958
H6 H 0.8135 0.3229 0.8394
C9 C 0.7502(3) 0.6446(4) 0.7315(3)
H7 H 0.6976 0.7361 0.6854
H8 H 0.8134 0.6943 0.8005
C10 C 0.8325(3) 0.5600(4) 0.6621(3)
C11 C 0.9748(3) 0.5537(4) 0.6975(3)
H9 H 1.0215 0.6020 0.7689
C12 C 1.0491(3) 0.4784(4) 0.6305(3)
H10 H 1.1463 0.4769 0.6558
C13 C 0.9835(3) 0.4049(4) 0.5266(3)
H11 H 1.0345 0.3525 0.4806
C14 C 0.8417(3) 0.4096(4) 0.4914(3)
C15 C 0.7674(3) 0.4874(4) 0.5560(3)
H12 H 0.6705 0.4924 0.5286
C16 C 0.7667(3) 0.3356(5) 0.3842(3)
N3 N 0.6560(3) 1.0616(3) 1.5696(2)
O1 O 0.7022(3) 0.9351(3) 1.5329(2)
O2 O 0.7161(3) 1.1277(4) 1.6601(2)
O3 O 0.5442(2) 1.1227(3) 1.5111(2)
N4 N 0.6385(3) 0.9386(4) 0.9893(3)
O4 O 0.5412(2) 0.8624(3) 1.0123(2)
O5 O 0.6957(3) 1.0544(4) 1.0524(3)
O6 O 0.6757(4) 0.8965(5) 0.9046(4)
Ag1A Ag 0.47764(2) 0.33073(3) 0.62692(2)
Ag1A_2 Ag 0.47764(2) 1.33073(3) 1.62692(2)
Ag2A Ag 0.54036(3) 0.17463(3) 0.15085(2)
Ag2A_2 Ag 0.54036(3) 1.17463(3) 1.15085(2)
S1A S 0.36770(7) 1.00783(9) 1.22268(6)
N2A N 0.2965(3) 0.7773(4) 0.6991(3)
O3A O 0.4558(2) 0.6227(3) 1.4889(2)
O5A O 0.3043(3) 0.5544(4) 0.9476(3)
loop_
_geom_bond_atom_site_label_1
_geom_bond_atom_site_label_2
_geom_bond_site_symmetry_1
_geom_bond_site_symmetry_2
Ag1 N1 1_555 1_555
Ag2 S1 1_555 1_555
S1 C8 1_555 1_555
N1 C1 1_555 1_555
N2 C16 1_555 1_555
C1 C2 1_555 1_555
C2 C3 1_555 1_555
C3 H1 1_555 1_555
C4 C3 1_555 1_555
H2 C4 1_555 1_555
C5 C4 1_555 1_555
H3 C5 1_555 1_555
C6 C5 1_555 1_555
C7 C2 1_555 1_555
H4 C7 1_555 1_555
C8 C6 1_555 1_555
H5 C8 1_555 1_555
H6 C8 1_555 1_555
C9 S1 1_555 1_555
H7 C9 1_555 1_555
H8 C9 1_555 1_555
C10 C9 1_555 1_555
C11 C10 1_555 1_555
H9 C11 1_555 1_555
C12 C11 1_555 1_555
H10 C12 1_555 1_555
C13 C12 1_555 1_555
H11 C13 1_555 1_555
C14 C13 1_555 1_555
C15 C10 1_555 1_555
H12 C15 1_555 1_555
C16 C14 1_555 1_555
N3 O1 1_555 1_555
O1 Ag1 1_555 1_555
O2 N3 1_555 1_555
O3 N3 1_555 1_555
N4 O4 1_555 1_555
O4 Ag2 1_555 1_555
O5 N4 1_555 1_555
O6 N4 1_555 1_555
Ag1A S1 1_555 1_555
Ag1A_2 O3 1_555 1_555
Ag2A N2 1_555 1_555
Ag2A_2 O5 1_555 1_555
S1A Ag1 1_555 1_555
N2A Ag2 1_555 1_555
O3A Ag1 1_555 1_555
O5A Ag2 1_555 1_555
C6 C7 1_555 1_555
C14 C15 1_555 1_555
Ag2A_2 S1A 1_555 1_555

#END
