
#######################################################################
#
#                 Cambridge Crystallographic Data Centre
#                                CCDC 
#
#######################################################################
#
# If this CIF has been generated from an entry in the Cambridge 
# Structural Database, then it will include bibliographic, chemical, 
# crystal, experimental, refinement or atomic coordinate data resulting 
# from the CCDC's data processing and validation procedures.
#
#######################################################################

data_KIGKUI01
_symmetry_cell_setting           monoclinic
_symmetry_space_group_name_H-M   'C 2/c'
_symmetry_Int_Tables_number      15
_space_group_name_Hall           '-C 2yn'
loop_
_symmetry_equiv_pos_site_id
_symmetry_equiv_pos_as_xyz
1 x,y,z
2 -x,y,1/2-z
3 1/2+x,1/2+y,z
4 1/2-x,1/2+y,1/2-z
5 -x,-y,-z
6 x,-y,1/2+z
7 1/2-x,1/2-y,-z
8 1/2+x,1/2-y,1/2+z
_cell_length_a                   12.3446(3)
_cell_length_b                   8.3324(2)
_cell_length_c                   18.2906(4)
_cell_angle_alpha                90
_cell_angle_beta                 94.1200(10)
_cell_angle_gamma                90
_cell_volume                     1876.51
loop_
_atom_site_label
_atom_site_type_symbol
_atom_site_fract_x
_atom_site_fract_y
_atom_site_fract_z
Ag1 Ag 0.658297(14) 1.01603(2) 0.689311(10)
S1 S 0.5000 0.13107(9) 0.7500
N1 N 0.67229(18) 0.8347(2) 0.59015(11)
C1 C 0.64770(18) 0.7026(3) 0.58508(12)
C2 C 0.61232(18) 0.5386(3) 0.58102(12)
C3 C 0.64136(18) 0.4394(3) 0.52455(12)
H1 H 0.6883 0.4771 0.4894
C4 C 0.60087(19) 0.2855(3) 0.52048(12)
H2 H 0.6198 0.2163 0.4821
C5 C 0.53249(19) 0.2310(3) 0.57215(12)
H3 H 0.5047 0.1248 0.5686
C6 C 0.50413(17) 0.3299(3) 0.62911(12)
C7 C 0.54457(19) 0.4841(2) 0.63372(13)
H4 H 0.5265 0.5527 0.6725
C8 C 0.43089(17) 0.2684(3) 0.68439(12)
H5 H 0.3686 0.2123 0.6586
H6 H 0.4020 0.3604 0.7112
N2 N 0.82489(15) 1.2761(2) 0.67599(11)
O1 O 0.80674(15) 1.1482(2) 0.64207(10)
O2 O 0.88580(18) 1.3787(3) 0.65346(11)
O3 O 0.77924(16) 1.2961(3) 0.73392(11)
N1A N 0.32771(18) 0.8347(2) 0.90985(11)
C1A C 0.35230(18) 0.7026(3) 0.91492(12)
C2A C 0.38768(18) 0.5386(3) 0.91898(12)
C3A C 0.35864(18) 0.4394(3) 0.97545(12)
H1A H 0.3117 0.4771 1.0106
C4A C 0.39913(19) 0.2855(3) 0.97952(12)
H2A H 0.3802 0.2163 1.0179
C5A C 0.46751(19) 0.2310(3) 0.92785(12)
H3A H 0.4953 0.1248 0.9314
C6A C 0.49587(17) 0.3299(3) 0.87089(12)
C7A C 0.45543(19) 0.4841(2) 0.86628(13)
H4A H 0.4735 0.5527 0.8275
C8A C 0.56911(17) 0.2684(3) 0.81561(12)
H5A H 0.6314 0.2123 0.8414
H6A H 0.5980 0.3604 0.7888
Ag1A Ag 0.341703(14) 1.01603(2) 0.810689(10)
N2A N 0.17511(15) 1.2761(2) 0.82401(11)
O1A O 0.19326(15) 1.1482(2) 0.85793(10)
O2A O 0.11420(18) 1.3787(3) 0.84654(11)
O3A O 0.22076(16) 1.2961(3) 0.76608(11)
Ag1_2 Ag 0.658297(14) 0.01603(2) 0.689311(10)
Ag1A_2 Ag 0.341703(14) 0.01603(2) 0.810689(10)
Ag1B Ag 0.158297(14) 1.51603(2) 0.689311(10)
Ag1C Ag 0.841703(14) 1.51603(2) 0.810689(10)
S1_2 S 0.5000 1.13107(9) 0.7500
O3B O 0.27924(16) 0.7961(3) 0.73392(11)
O3C O 0.72076(16) 0.7961(3) 0.76608(11)
loop_
_geom_bond_atom_site_label_1
_geom_bond_atom_site_label_2
_geom_bond_site_symmetry_1
_geom_bond_site_symmetry_2
Ag1 N1 1_555 1_555
S1 C8 1_555 1_555
N1 C1 1_555 1_555
C1 C2 1_555 1_555
C2 C3 1_555 1_555
C3 H1 1_555 1_555
C4 C3 1_555 1_555
H2 C4 1_555 1_555
C5 C4 1_555 1_555
H3 C5 1_555 1_555
C6 C5 1_555 1_555
C7 C2 1_555 1_555
H4 C7 1_555 1_555
C8 C6 1_555 1_555
H5 C8 1_555 1_555
H6 C8 1_555 1_555
N2 O1 1_555 1_555
O1 Ag1 1_555 1_555
O2 N2 1_555 1_555
O3 N2 1_555 1_555
N1A C1A 1_555 1_555
C1A C2A 1_555 1_555
C2A C3A 1_555 1_555
C3A H1A 1_555 1_555
C4A C3A 1_555 1_555
H2A C4A 1_555 1_555
C5A C4A 1_555 1_555
H3A C5A 1_555 1_555
C6A C5A 1_555 1_555
C7A C2A 1_555 1_555
H4A C7A 1_555 1_555
C8A S1 1_555 1_555
H5A C8A 1_555 1_555
H6A C8A 1_555 1_555
Ag1A N1A 1_555 1_555
N2A O1A 1_555 1_555
O1A Ag1A 1_555 1_555
O2A N2A 1_555 1_555
O3A N2A 1_555 1_555
Ag1_2 S1 1_555 1_555
Ag1A_2 S1 1_555 1_555
Ag1B O3A 1_555 1_555
Ag1C O3 1_555 1_555
S1_2 Ag1 1_555 1_555
O3B Ag1A 1_555 1_555
O3C Ag1 1_555 1_555
C6 C7 1_555 1_555
C6A C7A 1_555 1_555
C6A C8A 1_555 1_555
Ag1A S1_2 1_555 1_555

#END
