
#######################################################################
#
#                 Cambridge Crystallographic Data Centre
#                                CCDC 
#
#######################################################################
#
# If this CIF has been generated from an entry in the Cambridge 
# Structural Database, then it will include bibliographic, chemical, 
# crystal, experimental, refinement or atomic coordinate data resulting 
# from the CCDC's data processing and validation procedures.
#
#######################################################################

data_KIGLIX
_symmetry_cell_setting           monoclinic
_symmetry_space_group_name_H-M   'C 2/c'
_symmetry_Int_Tables_number      15
_space_group_name_Hall           '-C 2yn'
loop_
_symmetry_equiv_pos_site_id
_symmetry_equiv_pos_as_xyz
1 x,y,z
2 -x,y,1/2-z
3 1/2+x,1/2+y,z
4 1/2-x,1/2+y,1/2-z
5 -x,-y,-z
6 x,-y,1/2+z
7 1/2-x,1/2-y,-z
8 1/2+x,1/2-y,1/2+z
_cell_length_a                   21.3652(6)
_cell_length_b                   7.3728(2)
_cell_length_c                   14.1086(5)
_cell_angle_alpha                90
_cell_angle_beta                 122.947(3)
_cell_angle_gamma                90
_cell_volume                     1864.99
loop_
_atom_site_label
_atom_site_type_symbol
_atom_site_fract_x
_atom_site_fract_y
_atom_site_fract_z
Ag1 Ag 0.469007(9) 0.10587(2) 0.354305(13)
N1 N 0.37190(10) 0.2877(2) 0.25336(15)
S1 S 0.0000 0.60672(8) -0.2500
C1 C 0.32277(12) 0.3698(3) 0.18569(18)
C2 C 0.26056(10) 0.4712(3) 0.09800(16)
C3 C 0.25116(11) 0.4846(2) -0.00717(17)
H1 H 0.2856 0.4285 -0.0208
C4 C 0.19094(11) 0.5807(3) -0.09180(16)
H2 H 0.1839 0.5913 -0.1641
C5 C 0.14062(10) 0.6618(3) -0.07135(15)
C6 C 0.15119(11) 0.6484(3) 0.03439(17)
H3 H 0.1168 0.7047 0.0480
C7 C 0.21113(11) 0.5541(3) 0.11991(17)
H4 H 0.2186 0.5458 0.1926
C8 C 0.07526(10) 0.7651(3) -0.16372(16)
H5 H 0.0897 0.8287 -0.2108
H6 H 0.0586 0.8568 -0.1307
N2 N 0.59254(10) 0.2778(2) 0.55434(14)
O1 O 0.54020(9) 0.1856(2) 0.54721(13)
O2 O 0.58780(10) 0.3167(3) 0.46508(15)
O3 O 0.64635(10) 0.3227(3) 0.64709(15)
N1A N -0.37190(10) 0.2877(2) -0.75336(15)
C1A C -0.32277(12) 0.3698(3) -0.68569(18)
C2A C -0.26056(10) 0.4712(3) -0.59800(16)
C3A C -0.25116(11) 0.4846(2) -0.49283(17)
H1A H -0.2856 0.4285 -0.4792
C4A C -0.19094(11) 0.5807(3) -0.40820(16)
H2A H -0.1839 0.5913 -0.3359
C5A C -0.14062(10) 0.6618(3) -0.42865(15)
C6A C -0.15119(11) 0.6484(3) -0.53439(17)
H3A H -0.1168 0.7047 -0.5480
C7A C -0.21113(11) 0.5541(3) -0.61991(17)
H4A H -0.2186 0.5458 -0.6926
C8A C -0.07526(10) 0.7651(3) -0.33628(16)
H5A H -0.0897 0.8287 -0.2892
H6A H -0.0586 0.8568 -0.3693
Ag1A Ag -0.469007(9) 0.10587(2) -0.854305(13)
N2A N -0.59254(10) 0.2778(2) -1.05434(14)
O1A O -0.54020(9) 0.1856(2) -1.04721(13)
O2A O -0.58780(10) 0.3167(3) -0.96508(15)
O3A O -0.64635(10) 0.3227(3) -1.14709(15)
Ag1D Ag 0.530993(9) -0.10587(2) 0.645695(13)
Ag1E Ag -0.530993(9) -0.10587(2) -1.145695(13)
Ag1F Ag 0.030993(9) 0.39413(2) -0.354305(13)
Ag1G Ag -0.030993(9) 0.39413(2) -0.145695(13)
S1F S -0.5000 -0.10672(8) -0.7500
S1F_2 S 0.5000 -0.10672(8) 0.2500
O1D O 0.45980(9) -0.1856(2) 0.45279(13)
O1E O -0.45980(9) -0.1856(2) -0.95279(13)
loop_
_geom_bond_atom_site_label_1
_geom_bond_atom_site_label_2
_geom_bond_site_symmetry_1
_geom_bond_site_symmetry_2
Ag1 N1 1_555 1_555
N1 C1 1_555 1_555
S1 C8 1_555 1_555
C1 C2 1_555 1_555
C2 C3 1_555 1_555
C3 H1 1_555 1_555
C4 C3 1_555 1_555
H2 C4 1_555 1_555
C5 C4 1_555 1_555
C6 C5 1_555 1_555
H3 C6 1_555 1_555
C7 C2 1_555 1_555
H4 C7 1_555 1_555
C8 C5 1_555 1_555
H5 C8 1_555 1_555
H6 C8 1_555 1_555
N2 O1 1_555 1_555
O1 Ag1 1_555 1_555
O2 Ag1 1_555 1_555
O3 N2 1_555 1_555
N1A C1A 1_555 1_555
C1A C2A 1_555 1_555
C2A C3A 1_555 1_555
C3A H1A 1_555 1_555
C4A C3A 1_555 1_555
H2A C4A 1_555 1_555
C5A C4A 1_555 1_555
C6A C5A 1_555 1_555
H3A C6A 1_555 1_555
C7A C2A 1_555 1_555
H4A C7A 1_555 1_555
C8A S1 1_555 1_555
H5A C8A 1_555 1_555
H6A C8A 1_555 1_555
Ag1A N1A 1_555 1_555
N2A O1A 1_555 1_555
O1A Ag1A 1_555 1_555
O2A Ag1A 1_555 1_555
O3A N2A 1_555 1_555
Ag1D O1 1_555 1_555
Ag1E O1A 1_555 1_555
Ag1F S1 1_555 1_555
Ag1G S1 1_555 1_555
S1F Ag1A 1_555 1_555
S1F_2 Ag1 1_555 1_555
O1D Ag1 1_555 1_555
O1E Ag1A 1_555 1_555
C6 C7 1_555 1_555
N2 O2 1_555 1_555
C5A C8A 1_555 1_555
C6A C7A 1_555 1_555
N2A O2A 1_555 1_555
Ag1D O1D 1_555 1_555
Ag1E O1E 1_555 1_555

#END
