
#######################################################################
#
#                 Cambridge Crystallographic Data Centre
#                                CCDC 
#
#######################################################################
#
# If this CIF has been generated from an entry in the Cambridge 
# Structural Database, then it will include bibliographic, chemical, 
# crystal, experimental, refinement or atomic coordinate data resulting 
# from the CCDC's data processing and validation procedures.
#
#######################################################################

data_KIGLET
_symmetry_cell_setting           monoclinic
_symmetry_space_group_name_H-M   'P 21/c'
_symmetry_Int_Tables_number      14
_space_group_name_Hall           '-P 2ybc'
loop_
_symmetry_equiv_pos_site_id
_symmetry_equiv_pos_as_xyz
1 x,y,z
2 -x,1/2+y,1/2-z
3 -x,-y,-z
4 x,1/2-y,1/2+z
_cell_length_a                   10.1365(2)
_cell_length_b                   14.6311(3)
_cell_length_c                   14.6683(3)
_cell_angle_alpha                90
_cell_angle_beta                 131.5770(10)
_cell_angle_gamma                90
_cell_volume                     1627.36
loop_
_atom_site_label
_atom_site_type_symbol
_atom_site_fract_x
_atom_site_fract_y
_atom_site_fract_z
Ag1 Ag 0.31875(2) 0.749220(10) 0.373368(14)
S1 S 0.24234(6) 0.77373(3) 0.67634(4)
N1 N 0.2359(3) 0.86248(14) 0.43948(17)
N2 N 0.2730(3) 0.62377(13) 0.44635(17)
C1 C 0.2492(3) 0.91529(15) 0.50244(18)
C2 C 0.2660(2) 0.98151(13) 0.58180(17)
C3 C 0.3467(3) 1.06422(14) 0.6011(2)
H1 H 0.3917 1.0769 0.5626
C4 C 0.3619(3) 1.12799(15) 0.6762(2)
H2 H 0.4144 1.1856 0.6880
C5 C 0.3012(3) 1.10858(16) 0.7340(2)
H3 H 0.3147 1.1524 0.7874
C6 C 0.2204(3) 1.02569(16) 0.71560(19)
H4 H 0.1794 1.0133 0.7567
C7 C 0.1990(2) 0.96114(13) 0.63837(16)
C8 C 0.0987(2) 0.87403(13) 0.60881(19)
H5 H 0.0092 0.8664 0.5192
H6 H 0.0360 0.8785 0.6391
C9 C 0.0763(2) 0.68911(13) 0.56803(17)
H7 H -0.0310 0.6978 0.5562
H8 H 0.0437 0.6975 0.4883
C10 C 0.1465(2) 0.59463(13) 0.61416(16)
C11 C 0.1262(3) 0.55173(14) 0.68852(18)
H9 H 0.0657 0.5823 0.7086
C12 C 0.1928(3) 0.46518(15) 0.73357(19)
H10 H 0.1785 0.4370 0.7849
C13 C 0.2801(3) 0.41903(15) 0.70493(19)
H11 H 0.3256 0.3595 0.7365
C14 C 0.3010(3) 0.45933(14) 0.63080(17)
H12 H 0.3601 0.4277 0.6103
C15 C 0.2348(3) 0.54711(13) 0.58570(17)
C16 C 0.2567(3) 0.58918(14) 0.50785(18)
N3 N 0.7228(3) 0.75293(11) 0.58031(18)
O1 O 0.6011(2) 0.79703(12) 0.56122(14)
O2 O 0.6837(3) 0.69555(17) 0.5063(2)
O3 O 0.8782(2) 0.76822(13) 0.67158(19)
Ag1C Ag 0.31875(2) 0.750780(10) 0.873368(14)
S1C S 0.24234(6) 0.72627(3) 0.17634(4)
loop_
_geom_bond_atom_site_label_1
_geom_bond_atom_site_label_2
_geom_bond_site_symmetry_1
_geom_bond_site_symmetry_2
Ag1 N1 1_555 1_555
S1 C8 1_555 1_555
N1 C1 1_555 1_555
N2 Ag1 1_555 1_555
C1 C2 1_555 1_555
C2 C3 1_555 1_555
C3 H1 1_555 1_555
C4 C3 1_555 1_555
H2 C4 1_555 1_555
C5 C4 1_555 1_555
H3 C5 1_555 1_555
C6 C5 1_555 1_555
H4 C6 1_555 1_555
C7 C2 1_555 1_555
C8 C7 1_555 1_555
H5 C8 1_555 1_555
H6 C8 1_555 1_555
C9 S1 1_555 1_555
H7 C9 1_555 1_555
H8 C9 1_555 1_555
C10 C9 1_555 1_555
C11 C10 1_555 1_555
H9 C11 1_555 1_555
C12 C11 1_555 1_555
H10 C12 1_555 1_555
C13 C12 1_555 1_555
H11 C13 1_555 1_555
C14 C13 1_555 1_555
H12 C14 1_555 1_555
C15 C10 1_555 1_555
C16 N2 1_555 1_555
N3 O1 1_555 1_555
O1 Ag1 1_555 1_555
O2 N3 1_555 1_555
O3 N3 1_555 1_555
Ag1C S1 1_555 1_555
S1C Ag1 1_555 1_555
C6 C7 1_555 1_555
C14 C15 1_555 1_555
C15 C16 1_555 1_555

#END
