
#######################################################################
#
#                 Cambridge Crystallographic Data Centre
#                                CCDC 
#
#######################################################################
#
# If this CIF has been generated from an entry in the Cambridge 
# Structural Database, then it will include bibliographic, chemical, 
# crystal, experimental, refinement or atomic coordinate data resulting 
# from the CCDC's data processing and validation procedures.
#
#######################################################################

data_KIGMIY
_symmetry_cell_setting           orthorhombic
_symmetry_space_group_name_H-M   'C 2 2 21'
_symmetry_Int_Tables_number      20
_space_group_name_Hall           'C 2n 2'
loop_
_symmetry_equiv_pos_site_id
_symmetry_equiv_pos_as_xyz
1 x,y,z
2 -x,-y,1/2+z
3 -x,y,1/2-z
4 x,-y,-z
5 1/2+x,1/2+y,z
6 1/2-x,1/2-y,1/2+z
7 1/2-x,1/2+y,1/2-z
8 1/2+x,1/2-y,-z
_cell_length_a                   10.924(2)
_cell_length_b                   22.372(5)
_cell_length_c                   20.725(4)
_cell_angle_alpha                90
_cell_angle_beta                 90
_cell_angle_gamma                90
_cell_volume                     5065.02
loop_
_atom_site_label
_atom_site_type_symbol
_atom_site_fract_x
_atom_site_fract_y
_atom_site_fract_z
O1 O 0.5559(2) 0.35027(11) 0.87100(13)
N1 N 0.5000 -0.06717(16) 0.7500
N2 N 0.5000 0.74849(15) 0.7500
Cu1 Cu 0.0000 0.33982(2) 0.7500
Cu2 Cu 0.5000 0.33991(2) 0.7500
P1 P 0.25609(8) 0.32632(3) 0.82818(4)
C1 C 0.2547(4) 0.23063(14) 0.90054(15)
H1 H 0.2240 0.2612 0.9294
H2 H 0.3335 0.2174 0.9168
C2 C 0.1678(4) 0.17891(16) 0.90006(18)
H3 H 0.0886 0.1908 0.8820
C3 C 0.5556(3) 0.21917(16) 0.79673(19)
H4 H 0.5942 0.2402 0.8296
C4 C 0.5587(3) 0.15679(15) 0.79854(18)
H5 H 0.5994 0.1370 0.8317
C5 C 0.4358(3) 0.46294(15) 0.79391(17)
H6 H 0.3905 0.4420 0.8245
C6 C 0.5000 0.55734(19) 0.7500
C7 C 0.5000 0.62372(19) 0.7500
C8 C 0.4031(3) 0.65601(15) 0.7747(2)
H7 H 0.3361 0.6361 0.7923
C9 C 0.1512(3) 0.15267(16) 0.96899(18)
H8 H 0.2303 0.1522 0.9913
C10 C 0.2905(3) -0.02137(15) 0.89540(17)
C11 C 0.4031(3) 0.06704(16) 0.92362(18)
H9 H 0.4044 0.1080 0.9315
C12 C 0.5067(4) 0.03542(15) 0.92942(17)
H10 H 0.5795 0.0531 0.9425
C13 C 0.4997(4) -0.02717(14) 0.91442(16)
C14 C 0.6048(3) -0.03610(13) 0.75579(19)
H11 H 0.6779 -0.0570 0.7599
C15 C 0.6084(3) 0.02566(13) 0.75581(18)
H12 H 0.6830 0.0454 0.7597
C16 C 0.4341(3) 0.52460(14) 0.79573(18)
H13 H 0.3892 0.5443 0.8273
C17 C 0.1117(4) 0.09032(18) 0.9556(2)
H14 H 0.1322 0.0634 0.9913
C18 C 0.1838(3) 0.07486(15) 0.89456(18)
H15 H 0.1307 0.0524 0.8651
C19 C 0.5000 0.12451(19) 0.7500
C20 C 0.4051(3) 0.71775(15) 0.7735(2)
H16 H 0.3381 0.7386 0.7895
C21 C 0.5000 0.05850(19) 0.7500
N3 N 0.5000 0.43174(16) 0.7500
N4 N 0.5000 0.25004(16) 0.7500
N5 N 0.3950(3) -0.05360(13) 0.89882(15)
N6 N 0.2953(3) 0.04021(12) 0.90634(15)
N7 N 0.6017(3) -0.06014(15) 0.91510(17)
H17 H 0.5985 -0.0975 0.9056
H18 H 0.6706 -0.0440 0.9251
O2 O 0.2702(2) 0.25554(9) 0.83733(11)
O3 O 0.3124(2) 0.35731(11) 0.88570(12)
O4 O 0.1211(2) 0.34112(10) 0.82123(12)
O5 O 0.32431(19) 0.33928(10) 0.76520(11)
O6 O -0.1542(2) 0.34070(10) 0.83184(12)
H19 H -0.1837 0.3708 0.8514
H20 H -0.1986 0.3340 0.7989
O7 O 0.0668(3) 0.18711(12) 1.00467(15)
H21 H 0.0796 0.1826 1.0434
O8 O -0.0163(3) 0.08598(13) 0.93806(17)
H22 H -0.0465 0.1195 0.9371
O9 O 0.2179(2) 0.12932(10) 0.86474(12)
O10 O 0.1903(3) -0.04404(12) 0.88265(15)
H23 H 0.4796 0.3553 0.8761
H24 H 0.5917 0.3837 0.8750
C3B C 0.4444(3) 0.21917(16) 0.70327(19)
H4B H 0.4058 0.2402 0.6704
C4B C 0.4413(3) 0.15679(15) 0.70146(18)
H5B H 0.4006 0.1370 0.6683
C14B C 0.3952(3) -0.03610(13) 0.74421(19)
H11B H 0.3221 -0.0570 0.7401
C15B C 0.3916(3) 0.02566(13) 0.74419(18)
H12B H 0.3170 0.0454 0.7403
C5B C 0.5642(3) 0.46294(15) 0.70609(17)
H6B H 0.6095 0.4420 0.6755
C8B C 0.5969(3) 0.65601(15) 0.7253(2)
H7B H 0.6639 0.6361 0.7077
C16B C 0.5659(3) 0.52460(14) 0.70427(18)
H13B H 0.6108 0.5443 0.6727
C20B C 0.5949(3) 0.71775(15) 0.7265(2)
H16B H 0.6619 0.7386 0.7105
P1B P -0.25609(8) 0.32632(3) 0.67182(4)
C1B C -0.2547(4) 0.23063(14) 0.59946(15)
H1B H -0.2240 0.2612 0.5706
H2B H -0.3335 0.2174 0.5832
C2B C -0.1678(4) 0.17891(16) 0.59994(18)
H3B H -0.0886 0.1908 0.6180
C9B C -0.1512(3) 0.15267(16) 0.53101(18)
H8B H -0.2303 0.1522 0.5087
C10B C -0.2905(3) -0.02137(15) 0.60460(17)
C11B C -0.4031(3) 0.06704(16) 0.57638(18)
H9B H -0.4044 0.1080 0.5685
C12B C -0.5067(4) 0.03542(15) 0.57058(17)
H10B H -0.5795 0.0531 0.5575
C13B C -0.4997(4) -0.02717(14) 0.58558(16)
C17B C -0.1117(4) 0.09032(18) 0.5444(2)
H14B H -0.1322 0.0634 0.5087
C18B C -0.1838(3) 0.07486(15) 0.60544(18)
H15B H -0.1307 0.0524 0.6349
N5B N -0.3950(3) -0.05360(13) 0.60118(15)
N6B N -0.2953(3) 0.04021(12) 0.59366(15)
N7B N -0.6017(3) -0.06014(15) 0.58490(17)
H17B H -0.5985 -0.0975 0.5944
H18B H -0.6706 -0.0440 0.5749
O2B O -0.2702(2) 0.25554(9) 0.66267(11)
O3B O -0.3124(2) 0.35731(11) 0.61430(12)
O4B O -0.1211(2) 0.34112(10) 0.67877(12)
O5B O -0.32431(19) 0.33928(10) 0.73480(11)
O6B O 0.1542(2) 0.34070(10) 0.66816(12)
H19B H 0.1837 0.3708 0.6486
H20B H 0.1986 0.3340 0.7011
O7B O -0.0668(3) 0.18711(12) 0.49533(15)
H21B H -0.0796 0.1826 0.4566
O8B O 0.0163(3) 0.08598(13) 0.56194(17)
H22B H 0.0465 0.1195 0.5629
O9B O -0.2179(2) 0.12932(10) 0.63526(12)
O10B O -0.1903(3) -0.04404(12) 0.61735(15)
O1B O 0.4441(2) 0.35027(11) 0.62900(13)
H23B H 0.5204 0.3553 0.6239
H24B H 0.4083 0.3837 0.6250
N1D N 0.0000 0.43283(16) 0.7500
N2D N 0.0000 0.24849(15) 0.7500
Cu1D Cu 0.5000 -0.16018(2) 0.7500
Cu1D_2 Cu 0.5000 0.83982(2) 0.7500
Cu2_2 Cu -0.5000 0.33991(2) 0.7500
O5B_2 O 0.67569(19) 0.33928(10) 0.73480(11)
O11 O 0.5433(3) 0.81119(15) 0.02804(19)
H25 H 0.5455 0.7737 0.0213
H26 H 0.6160 0.8246 0.0257
O12 O 0.3113(5) 0.5000 1.0000
H27 H 0.3569 0.5256 0.9815
H27C H 0.3569 0.4744 1.0185
O13 O 0.3494(4) 0.76651(17) 0.93972(19)
H28 H 0.3478 0.7891 0.9068
H29 H 0.4048 0.7791 0.9651
O14 O 0.2893(3) 0.65163(17) 0.98104(15)
H30 H 0.3082 0.6868 0.9692
H31 H 0.2968 0.6495 1.0218
loop_
_geom_bond_atom_site_label_1
_geom_bond_atom_site_label_2
_geom_bond_site_symmetry_1
_geom_bond_site_symmetry_2
O1 Cu2 1_555 1_555
N1 C14 1_555 1_555
N2 C20 1_555 1_555
Cu1 O4 1_555 1_555
Cu2 N3 1_555 1_555
P1 O2 1_555 1_555
C1 H1 1_555 1_555
H2 C1 1_555 1_555
C2 C1 1_555 1_555
H3 C2 1_555 1_555
C3 H4 1_555 1_555
C4 C3 1_555 1_555
H5 C4 1_555 1_555
C5 H6 1_555 1_555
C6 C7 1_555 1_555
C7 C8 1_555 1_555
C8 H7 1_555 1_555
C9 C2 1_555 1_555
H8 C9 1_555 1_555
C10 N5 1_555 1_555
C11 H9 1_555 1_555
C12 C11 1_555 1_555
H10 C12 1_555 1_555
C13 C12 1_555 1_555
C14 H11 1_555 1_555
C15 C14 1_555 1_555
H12 C15 1_555 1_555
C16 C5 1_555 1_555
H13 C16 1_555 1_555
C17 C9 1_555 1_555
H14 C17 1_555 1_555
C18 C17 1_555 1_555
H15 C18 1_555 1_555
C19 C4 1_555 1_555
C20 C8 1_555 1_555
H16 C20 1_555 1_555
C21 C15 1_555 1_555
N3 C5 1_555 1_555
N4 Cu2 1_555 1_555
N5 C13 1_555 1_555
N6 C10 1_555 1_555
N7 C13 1_555 1_555
H17 N7 1_555 1_555
H18 N7 1_555 1_555
O2 C1 1_555 1_555
O3 P1 1_555 1_555
O4 P1 1_555 1_555
O5 Cu2 1_555 1_555
O6 Cu1 1_555 1_555
H19 O6 1_555 1_555
H20 O6 1_555 1_555
O7 C9 1_555 1_555
H21 O7 1_555 1_555
O8 C17 1_555 1_555
H22 O8 1_555 1_555
O9 C2 1_555 1_555
O10 C10 1_555 1_555
H23 O1 1_555 1_555
H24 O1 1_555 1_555
O11 H25 1_555 1_555
H26 O11 1_555 1_555
O12 H27 1_555 1_555
O13 H28 1_555 1_555
H29 O13 1_555 1_555
O14 H30 1_555 1_555
H31 O14 1_555 1_555
C3B N4 1_555 1_555
H4B C3B 1_555 1_555
C4B C19 1_555 1_555
H5B C4B 1_555 1_555
C14B N1 1_555 1_555
H11B C14B 1_555 1_555
C15B C21 1_555 1_555
H12B C15B 1_555 1_555
C5B N3 1_555 1_555
H6B C5B 1_555 1_555
C8B C7 1_555 1_555
H7B C8B 1_555 1_555
C16B C6 1_555 1_555
H13B C16B 1_555 1_555
C20B N2 1_555 1_555
H16B C20B 1_555 1_555
P1B O2B 1_555 1_555
C1B H1B 1_555 1_555
H2B C1B 1_555 1_555
C2B C1B 1_555 1_555
H3B C2B 1_555 1_555
C9B C2B 1_555 1_555
H8B C9B 1_555 1_555
C10B N5B 1_555 1_555
C11B H9B 1_555 1_555
C12B C11B 1_555 1_555
H10B C12B 1_555 1_555
C13B C12B 1_555 1_555
C17B C9B 1_555 1_555
H14B C17B 1_555 1_555
C18B C17B 1_555 1_555
H15B C18B 1_555 1_555
N5B C13B 1_555 1_555
N6B C10B 1_555 1_555
N7B C13B 1_555 1_555
H17B N7B 1_555 1_555
H18B N7B 1_555 1_555
O2B C1B 1_555 1_555
O3B P1B 1_555 1_555
O4B Cu1 1_555 1_555
O5B P1B 1_555 1_555
O6B Cu1 1_555 1_555
H19B O6B 1_555 1_555
H20B O6B 1_555 1_555
O7B C9B 1_555 1_555
H21B O7B 1_555 1_555
O8B C17B 1_555 1_555
H22B O8B 1_555 1_555
O9B C2B 1_555 1_555
O10B C10B 1_555 1_555
O1B Cu2 1_555 1_555
H23B O1B 1_555 1_555
H24B O1B 1_555 1_555
N1D Cu1 1_555 1_555
N2D Cu1 1_555 1_555
Cu1D N1 1_555 1_555
Cu1D_2 N2 1_555 1_555
Cu2_2 O5B 1_555 1_555
O5B_2 Cu2 1_555 1_555
H27C O12 1_555 1_555
P1 O5 1_555 1_555
C3 N4 1_555 1_555
C6 C16 1_555 1_555
C11 N6 1_555 1_555
C18 N6 1_555 1_555
C18 O9 1_555 1_555
C19 C21 1_555 1_555
C3B C4B 1_555 1_555
C14B C15B 1_555 1_555
C5B C16B 1_555 1_555
C8B C20B 1_555 1_555
P1B O4B 1_555 1_555
C11B N6B 1_555 1_555
C18B N6B 1_555 1_555
C18B O9B 1_555 1_555

#END
