
#######################################################################
#
#                 Cambridge Crystallographic Data Centre
#                                CCDC 
#
#######################################################################
#
# If this CIF has been generated from an entry in the Cambridge 
# Structural Database, then it will include bibliographic, chemical, 
# crystal, experimental, refinement or atomic coordinate data resulting 
# from the CCDC's data processing and validation procedures.
#
#######################################################################

data_KIGMAQ
_symmetry_cell_setting           monoclinic
_symmetry_space_group_name_H-M   'P 21'
_symmetry_Int_Tables_number      4
_space_group_name_Hall           'P 2yb'
loop_
_symmetry_equiv_pos_site_id
_symmetry_equiv_pos_as_xyz
1 x,y,z
2 -x,1/2+y,-z
_cell_length_a                   12.387(3)
_cell_length_b                   18.193(4)
_cell_length_c                   14.163(3)
_cell_angle_alpha                90
_cell_angle_beta                 115.87(3)
_cell_angle_gamma                90
_cell_volume                     2871.87
loop_
_atom_site_label
_atom_site_type_symbol
_atom_site_fract_x
_atom_site_fract_y
_atom_site_fract_z
Ni1 Ni -0.00964(7) 0.45938(4) 0.43928(6)
Ni2 Ni 0.98724(7) 0.39629(4) 0.94407(6)
P1 P -0.08231(15) 0.36137(10) 0.59882(13)
P2 P 0.92898(15) 0.50478(9) 1.09946(13)
C1 C 1.6383(5) 0.3803(4) 1.2238(5)
H1 H 1.6115 0.3360 1.1883
C2 C 1.5550(6) 0.4344(4) 1.2186(5)
C3 C 1.6038(6) 0.5003(4) 1.2722(5)
H2 H 1.5535 0.5387 1.2704
C4 C 1.3734(6) 0.3546(4) 1.1353(5)
H3 H 1.4221 0.3132 1.1559
C5 C 1.4239(6) 0.4230(4) 1.1610(5)
C6 C 1.3439(6) 0.4824(4) 1.1291(5)
H4 H 1.3730 0.5302 1.1455
C7 C 1.2230(6) 0.4706(4) 1.0739(5)
H5 H 1.1724 0.5113 1.0547
C8 C 1.2499(6) 0.3465(4) 1.0786(5)
H6 H 1.2183 0.2993 1.0623
C9 C 0.7288(6) 0.3417(4) 0.8256(6)
H7 H 0.7605 0.2956 0.8511
C10 C 0.6051(6) 0.3489(4) 0.7698(5)
H8 H 0.5565 0.3078 0.7596
C11 C 0.5533(5) 0.4154(4) 0.7296(5)
C12 C 0.6304(6) 0.4742(4) 0.7470(5)
H9 H 0.5998 0.5203 0.7204
C13 C 0.7543(5) 0.4646(4) 0.8045(5)
H10 H 0.8045 0.5050 0.8162
C14 C 0.4199(6) 0.4257(4) 0.6676(5)
C15 C 0.3412(5) 0.3670(4) 0.6418(5)
H11 H 0.3692 0.3196 0.6634
C16 C 0.2184(6) 0.3805(4) 0.5824(5)
H12 H 0.1659 0.3409 0.5671
C17 C 0.2477(6) 0.5025(4) 0.5722(5)
H13 H 0.2172 0.5491 0.5483
C18 C 0.3706(6) 0.4957(4) 0.6331(5)
H14 H 0.4196 0.5370 0.6508
C19 C 1.7592(6) 0.3924(4) 1.2809(5)
H15 H 1.8118 0.3553 1.2828
C20 C 1.7272(6) 0.5077(4) 1.3279(5)
H16 H 1.7573 0.5518 1.3627
C21 C -0.6644(6) 0.4523(4) 0.3775(5)
C22 C -0.5369(6) 0.4457(4) 0.4356(5)
H17 H -0.4876 0.4867 0.4502
C23 C -0.4904(5) 0.3783(3) 0.4688(5)
H18 H -0.4078 0.3721 0.5049
C24 C -0.6909(6) 0.3266(4) 0.3973(5)
C25 C 0.7953(5) 0.6230(4) 1.0243(5)
H19 H 0.8086 0.6262 0.9618
H20 H 0.8579 0.6508 1.0795
C26 C 0.6760(5) 0.6556(4) 1.0023(5)
H21 H 0.6778 0.7084 0.9894
C27 C 0.4726(5) 0.6241(3) 0.9165(5)
H22 H 0.4158 0.6541 0.8586
C28 C 0.4959(5) 0.4876(4) 0.9339(5)
H23 H 0.5786 0.4941 0.9622
C29 C 0.4517(6) 0.4193(4) 0.9200(5)
H24 H 0.5017 0.3784 0.9406
C30 C 0.3242(6) 0.4122(4) 0.8722(5)
C31 C 0.2999(5) 0.5392(4) 0.8710(5)
C32 C -0.2014(5) 0.2376(4) 0.5634(5)
H25 H -0.1641 0.2238 0.6369
H26 H -0.1532 0.2180 0.5306
C33 C -0.3281(6) 0.2063(4) 0.5100(5)
H27 H -0.3241 0.1535 0.5250
C34 C -0.5234(5) 0.2417(3) 0.4774(5)
H28 H -0.5736 0.2165 0.5050
C35 C 0.4955(5) 0.6612(3) 1.0214(5)
H29 H 0.4469 0.6398 1.0535
C36 C 0.6299(5) 0.6438(3) 1.0837(5)
H30 H 0.6407 0.5923 1.1066
C37 C -0.5280(5) 0.2001(3) 0.3819(5)
H31 H -0.5916 0.2178 0.3156
C38 C -0.4011(5) 0.2171(3) 0.3931(5)
H32 H -0.3964 0.2685 0.3746
N1 N 1.1738(5) 0.4044(3) 1.0463(4)
N2 N 0.8040(4) 0.3983(3) 0.8439(4)
N3 N 0.1718(4) 0.4473(3) 0.5463(4)
N4 N 1.8059(4) 0.4545(3) 1.3342(4)
N5 N -0.7370(5) 0.3949(3) 0.3613(4)
N6 N -0.5663(4) 0.3184(3) 0.4488(4)
N7 N -0.7148(5) 0.5166(3) 0.3380(4)
H33 H -0.7915 0.5199 0.3036
H34 H -0.6707 0.5549 0.3469
N8 N 0.2518(5) 0.4721(3) 0.8514(4)
N9 N 0.2697(5) 0.3466(3) 0.8456(5)
H35 H 0.1927 0.3439 0.8169
H36 H 0.3119 0.3071 0.8572
N10 N 0.4230(4) 0.5483(3) 0.9077(4)
O1 O -0.7559(4) 0.2718(3) 0.3807(4)
O2 O -0.2080(4) 0.3161(3) 0.5537(3)
O3 O -0.1139(4) 0.4352(2) 0.6325(3)
O4 O 0.0096(4) 0.3160(3) 0.6888(3)
O5 O -0.0483(4) 0.3682(3) 0.5080(3)
O6 O -0.0430(4) 0.5334(2) 0.5352(3)
H37 H 0.0099 0.5651 0.5702
H38 H -0.0651 0.5111 0.5740
O7 O 0.0261(4) 0.5548(3) 0.3744(3)
H39 H -0.0064 0.5948 0.3797
H40 H 0.0072 0.5482 0.3119
O8 O 0.0261(4) 0.3965(3) 0.3339(3)
H41 H 0.0939 0.3966 0.3322
H42 H -0.0293 0.4005 0.2750
O9 O 1.0189(4) 0.4592(3) 0.8376(3)
H43 H 1.0904 0.4638 0.8449
H44 H 0.9761 0.4449 0.7779
O10 O 1.0142(4) 0.2990(3) 0.8782(3)
H45 H 0.9793 0.2605 0.8849
H46 H 0.9949 0.3052 0.8155
O11 O 0.9499(4) 0.3270(3) 1.0450(3)
H47 H 0.9390 0.3613 1.0807
H48 H 1.0099 0.3030 1.0811
O12 O 0.9603(4) 0.4939(2) 1.0075(3)
O13 O 1.0234(4) 0.5527(3) 1.1853(3)
O14 O 0.9033(4) 0.4333(2) 1.1397(3)
O15 O 0.8022(4) 0.5480(3) 1.0555(4)
O16 O 0.2368(4) 0.5962(3) 0.8599(4)
O17 O -0.4025(4) 0.2411(2) 0.5539(3)
O18 O 0.5834(4) 0.6210(3) 0.9093(4)
O19 O 0.4823(4) 0.7382(2) 1.0104(4)
H49 H 0.4128 0.7495 0.9961
O20 O 0.6880(4) 0.6911(3) 1.1719(3)
H50 H 0.6384 0.7075 1.1901
O21 O -0.3680(4) 0.1698(3) 0.3298(3)
H51 H -0.2948 0.1696 0.3522
O22 O -0.5343(4) 0.1238(2) 0.3963(4)
H52 H -0.5983 0.1139 0.3975
Ni1_2 Ni 1.99036(7) 0.45938(4) 1.43928(6)
N4_2 N -0.1941(4) 0.4545(3) 0.3342(4)
O23 O 0.8830(4) 0.1667(3) 0.8749(3)
H53 H 0.9088 0.1335 0.8478
H54 H 0.9034 0.1553 0.9386
O24 O 0.8644(4) 0.1401(3) 0.3525(4)
H55 H 0.9087 0.1780 0.3655
H56 H 0.8373 0.1303 0.2874
O25 O 0.1225(4) 0.2311(3) 0.1682(4)
H57 H 0.1537 0.2374 0.2342
H58 H 0.0775 0.1934 0.1528
O26 O 0.0040(5) 0.2569(3) 0.4105(4)
H59 H 0.0662 0.2616 0.4000
H60 H 0.0252 0.2389 0.4714
O27 O 0.0976(4) 0.1867(3) 0.6469(3)
H61 H 0.0634 0.2257 0.6530
H62 H 0.1653 0.1835 0.6999
O28 O 0.0328(4) 0.6122(3) 0.9160(4)
H63 H 0.0918 0.6027 0.9026
H64 H 0.0173 0.5742 0.9429
O29 O 0.2284(5) 0.1757(3) 0.5257(4)
H65 H 0.1804 0.1901 0.5502
H66 H 0.2259 0.2016 0.4748
O30 O 0.6453(4) 0.1548(3) 0.7310(3)
H67 H 0.7187 0.1591 0.7745
H68 H 0.6326 0.1815 0.6779
O31 O 0.7215(4) 0.5597(3) 0.5795(4)
H69 H 0.7717 0.5248 0.5932
H70 H 0.7406 0.5935 0.5481
O32 O 0.5751(5) 0.6884(3) 0.2870(4)
H71 H 0.6316 0.6831 0.3483
H72 H 0.5093 0.6768 0.2884
O33 O 0.2416(5) 0.7444(4) 0.9376(7)
H73 H 0.1783 0.7618 0.9382
H74 H 0.2273 0.7009 0.9133
loop_
_geom_bond_atom_site_label_1
_geom_bond_atom_site_label_2
_geom_bond_site_symmetry_1
_geom_bond_site_symmetry_2
Ni1 N3 1_555 1_555
Ni2 N1 1_555 1_555
P1 O2 1_555 1_555
P2 O12 1_555 1_555
C1 H1 1_555 1_555
C2 C1 1_555 1_555
C3 C2 1_555 1_555
H2 C3 1_555 1_555
C4 H3 1_555 1_555
C5 C2 1_555 1_555
C6 C5 1_555 1_555
H4 C6 1_555 1_555
C7 C6 1_555 1_555
H5 C7 1_555 1_555
C8 C4 1_555 1_555
H6 C8 1_555 1_555
C9 H7 1_555 1_555
C10 C9 1_555 1_555
H8 C10 1_555 1_555
C11 C10 1_555 1_555
C12 C11 1_555 1_555
H9 C12 1_555 1_555
C13 C12 1_555 1_555
H10 C13 1_555 1_555
C14 C11 1_555 1_555
C15 C14 1_555 1_555
H11 C15 1_555 1_555
C16 C15 1_555 1_555
H12 C16 1_555 1_555
C17 H13 1_555 1_555
C18 C14 1_555 1_555
H14 C18 1_555 1_555
C19 C1 1_555 1_555
H15 C19 1_555 1_555
C20 C3 1_555 1_555
H16 C20 1_555 1_555
C21 C22 1_555 1_555
C22 H17 1_555 1_555
C23 C22 1_555 1_555
H18 C23 1_555 1_555
C24 N5 1_555 1_555
C25 H19 1_555 1_555
H20 C25 1_555 1_555
C26 C25 1_555 1_555
H21 C26 1_555 1_555
C27 H22 1_555 1_555
C28 H23 1_555 1_555
C29 C28 1_555 1_555
H24 C29 1_555 1_555
C30 C29 1_555 1_555
C31 N8 1_555 1_555
C32 H25 1_555 1_555
H26 C32 1_555 1_555
C33 C32 1_555 1_555
H27 C33 1_555 1_555
C34 H28 1_555 1_555
C35 C27 1_555 1_555
H29 C35 1_555 1_555
C36 C26 1_555 1_555
H30 C36 1_555 1_555
C37 C34 1_555 1_555
H31 C37 1_555 1_555
C38 C33 1_555 1_555
H32 C38 1_555 1_555
N1 C7 1_555 1_555
N2 Ni2 1_555 1_555
N3 C16 1_555 1_555
N4 C19 1_555 1_555
N5 C21 1_555 1_555
N6 C23 1_555 1_555
N7 C21 1_555 1_555
H33 N7 1_555 1_555
H34 N7 1_555 1_555
N8 C30 1_555 1_555
N9 C30 1_555 1_555
H35 N9 1_555 1_555
H36 N9 1_555 1_555
N10 C27 1_555 1_555
O1 C24 1_555 1_555
O2 C32 1_555 1_555
O3 P1 1_555 1_555
O4 P1 1_555 1_555
O5 Ni1 1_555 1_555
O6 Ni1 1_555 1_555
H37 O6 1_555 1_555
H38 O6 1_555 1_555
O7 Ni1 1_555 1_555
H39 O7 1_555 1_555
H40 O7 1_555 1_555
O8 Ni1 1_555 1_555
H41 O8 1_555 1_555
H42 O8 1_555 1_555
O9 Ni2 1_555 1_555
H43 O9 1_555 1_555
H44 O9 1_555 1_555
O10 Ni2 1_555 1_555
H45 O10 1_555 1_555
H46 O10 1_555 1_555
O11 Ni2 1_555 1_555
H47 O11 1_555 1_555
H48 O11 1_555 1_555
O12 Ni2 1_555 1_555
O13 P2 1_555 1_555
O14 P2 1_555 1_555
O15 P2 1_555 1_555
O16 C31 1_555 1_555
O17 C33 1_555 1_555
O18 C26 1_555 1_555
O19 C35 1_555 1_555
H49 O19 1_555 1_555
O20 C36 1_555 1_555
H50 O20 1_555 1_555
O21 C38 1_555 1_555
H51 O21 1_555 1_555
O22 C37 1_555 1_555
H52 O22 1_555 1_555
O23 H53 1_555 1_555
H54 O23 1_555 1_555
O24 H55 1_555 1_555
H56 O24 1_555 1_555
O25 H57 1_555 1_555
H58 O25 1_555 1_555
O26 H59 1_555 1_555
H60 O26 1_555 1_555
O27 H61 1_555 1_555
H62 O27 1_555 1_555
O28 H63 1_555 1_555
H64 O28 1_555 1_555
O29 H65 1_555 1_555
H66 O29 1_555 1_555
O30 H67 1_555 1_555
H68 O30 1_555 1_555
O31 H69 1_555 1_555
H70 O31 1_555 1_555
O32 H71 1_555 1_555
H72 O32 1_555 1_555
O33 H73 1_555 1_555
H74 O33 1_555 1_555
Ni1_2 N4 1_555 1_555
N4_2 Ni1 1_555 1_555
P1 O5 1_555 1_555
C4 C5 1_555 1_555
C8 N1 1_555 1_555
C9 N2 1_555 1_555
C13 N2 1_555 1_555
C17 C18 1_555 1_555
C17 N3 1_555 1_555
C20 N4 1_555 1_555
C24 N6 1_555 1_555
C25 O15 1_555 1_555
C27 O18 1_555 1_555
C28 N10 1_555 1_555
C31 N10 1_555 1_555
C34 N6 1_555 1_555
C34 O17 1_555 1_555
C35 C36 1_555 1_555
C37 C38 1_555 1_555

#END
