
#######################################################################
#
#                 Cambridge Crystallographic Data Centre
#                                CCDC 
#
#######################################################################
#
# If this CIF has been generated from an entry in the Cambridge 
# Structural Database, then it will include bibliographic, chemical, 
# crystal, experimental, refinement or atomic coordinate data resulting 
# from the CCDC's data processing and validation procedures.
#
#######################################################################

data_KIGMOE
_symmetry_cell_setting           orthorhombic
_symmetry_space_group_name_H-M   'P 21 21 21'
_symmetry_Int_Tables_number      19
_space_group_name_Hall           'P 2ac 2ab'
loop_
_symmetry_equiv_pos_site_id
_symmetry_equiv_pos_as_xyz
1 x,y,z
2 1/2-x,-y,1/2+z
3 -x,1/2+y,1/2-z
4 1/2+x,1/2-y,-z
_cell_length_a                   11.272(2)
_cell_length_b                   14.383(3)
_cell_length_c                   14.720(3)
_cell_angle_alpha                90
_cell_angle_beta                 90
_cell_angle_gamma                90
_cell_volume                     2386.48
loop_
_atom_site_label
_atom_site_type_symbol
_atom_site_fract_x
_atom_site_fract_y
_atom_site_fract_z
Ni1 Ni 0.91760(3) 0.84304(3) 0.82089(3)
P1 P 0.92026(8) 1.06009(5) 0.74416(5)
C1 C 0.3339(3) 1.1178(2) 0.8468(2)
C2 C 0.3299(3) 1.0916(2) 0.6829(2)
C3 C 0.4568(3) 1.0957(2) 0.6831(2)
H1 H 0.4990 1.0860 0.6296
C4 C 0.5148(3) 1.1137(2) 0.7614(2)
H2 H 0.5972 1.1176 0.7608
C5 C 0.5161(2) 1.1539(2) 0.9258(2)
H3 H 0.4683 1.2012 0.9567
C6 C 0.5383(3) 1.0728(2) 0.9911(2)
H4 H 0.4822 1.0216 0.9819
C7 C 0.6652(3) 1.0459(2) 0.9658(2)
H5 H 0.6642 1.0106 0.9089
C8 C 0.7205(2) 1.1407(2) 0.9489(2)
H6 H 0.7374 1.1703 1.0075
C9 C 0.8319(3) 1.1420(2) 0.8915(2)
H7 H 0.8545 1.2057 0.8788
H8 H 0.8963 1.1125 0.9243
C10 C 0.6727(3) 0.8626(2) 0.7470(2)
H9 H 0.7155 0.8775 0.6950
C11 C 0.5504(3) 0.8647(2) 0.7433(2)
H10 H 0.5122 0.8807 0.6895
C12 C 0.5467(3) 0.8194(2) 0.8989(2)
H11 H 0.5065 0.8044 0.9522
C13 C 0.6697(3) 0.8189(2) 0.8968(2)
H12 H 0.7100 0.8030 0.9497
C14 C 0.2866(3) 0.8583(2) 0.7407(2)
H13 H 0.3255 0.8668 0.6856
C15 C 0.2869(3) 0.8324(3) 0.8989(2)
H14 H 0.3260 0.8237 0.9539
C16 C 0.1653(3) 0.8595(3) 0.7437(2)
H15 H 0.1240 0.8703 0.6900
C17 C 0.1651(3) 0.8331(3) 0.8966(2)
H16 H 0.1241 0.8242 0.9507
C18 C 0.4838(2) 0.8426(2) 0.8207(2)
C19 C 0.3520(3) 0.8444(2) 0.8198(2)
N1 N 0.4560(2) 1.12632(19) 0.84099(17)
N2 N 0.2778(2) 1.09881(19) 0.76656(18)
H17 H 0.2023 1.0905 0.7689
N3 N 0.1025(2) 0.84588(18) 0.82040(18)
N4 N 0.7329(2) 0.83969(18) 0.82365(18)
O1 O 0.28145(19) 1.12777(18) 0.91874(16)
O2 O 0.2670(2) 1.08307(18) 0.61362(16)
O3 O 0.62768(18) 1.19217(15) 0.90350(15)
O4 O 0.5295(2) 1.11174(16) 1.07854(15)
H18 H 0.5577 1.0757 1.1159
O5 O 0.73015(18) 0.99548(16) 1.03219(15)
H19 H 0.6842 0.9648 1.0633
O6 O 1.03380(18) 1.09153(16) 0.78934(15)
O7 O 0.81135(18) 1.09371(17) 0.80812(16)
O8 O 0.89963(18) 1.10216(14) 0.65067(14)
O9 O 0.9094(2) 0.95483(13) 0.73687(14)
O10 O 0.9216(2) 0.91442(15) 0.94483(14)
H20 H 0.8624 0.9388 0.9716
H21 H 0.9774 0.9510 0.9451
O11 O 0.92588(19) 0.71553(14) 0.89301(14)
H22 H 0.9888 0.6852 0.8815
H23 H 0.8692 0.6828 0.8789
O12 O 0.9069(2) 0.76423(14) 0.70407(13)
H24 H 0.9305 0.7082 0.7008
H25 H 0.9307 0.7948 0.6607
Ni1_2 Ni -0.08240(3) 0.84304(3) 0.82089(3)
N3_2 N 1.1025(2) 0.84588(18) 0.82040(18)
O13 O 0.0912(2) 0.03667(17) 0.00379(17)
H26 H 0.0917 0.0386 -0.0539
H27 H 0.1405 -0.0043 0.0214
loop_
_geom_bond_atom_site_label_1
_geom_bond_atom_site_label_2
_geom_bond_site_symmetry_1
_geom_bond_site_symmetry_2
Ni1 N4 1_555 1_555
P1 O6 1_555 1_555
C1 N1 1_555 1_555
C2 C3 1_555 1_555
C3 H1 1_555 1_555
C4 C3 1_555 1_555
H2 C4 1_555 1_555
C5 H3 1_555 1_555
C6 C5 1_555 1_555
H4 C6 1_555 1_555
C7 C6 1_555 1_555
H5 C7 1_555 1_555
C8 C7 1_555 1_555
H6 C8 1_555 1_555
C9 C8 1_555 1_555
H7 C9 1_555 1_555
H8 C9 1_555 1_555
C10 H9 1_555 1_555
C11 C10 1_555 1_555
H10 C11 1_555 1_555
C12 H11 1_555 1_555
C13 C12 1_555 1_555
H12 C13 1_555 1_555
C14 H13 1_555 1_555
C15 H14 1_555 1_555
C16 C14 1_555 1_555
H15 C16 1_555 1_555
C17 C15 1_555 1_555
H16 C17 1_555 1_555
C18 C11 1_555 1_555
C19 C14 1_555 1_555
N1 C4 1_555 1_555
N2 C1 1_555 1_555
H17 N2 1_555 1_555
N3 C16 1_555 1_555
N4 C10 1_555 1_555
O1 C1 1_555 1_555
O2 C2 1_555 1_555
O3 C5 1_555 1_555
O4 C6 1_555 1_555
H18 O4 1_555 1_555
O5 C7 1_555 1_555
H19 O5 1_555 1_555
O7 P1 1_555 1_555
O8 P1 1_555 1_555
O9 Ni1 1_555 1_555
O10 Ni1 1_555 1_555
H20 O10 1_555 1_555
H21 O10 1_555 1_555
O11 Ni1 1_555 1_555
H22 O11 1_555 1_555
H23 O11 1_555 1_555
O12 Ni1 1_555 1_555
H24 O12 1_555 1_555
H25 O12 1_555 1_555
O13 H26 1_555 1_555
H27 O13 1_555 1_555
Ni1_2 N3 1_555 1_555
N3_2 Ni1 1_555 1_555
P1 O9 1_555 1_555
C2 N2 1_555 1_555
C5 N1 1_555 1_555
C8 O3 1_555 1_555
C9 O7 1_555 1_555
C12 C18 1_555 1_555
C13 N4 1_555 1_555
C15 C19 1_555 1_555
C17 N3 1_555 1_555
C18 C19 1_555 1_555

#END
