
#######################################################################
#
#                 Cambridge Crystallographic Data Centre
#                                CCDC 
#
#######################################################################
#
# If this CIF has been generated from an entry in the Cambridge 
# Structural Database, then it will include bibliographic, chemical, 
# crystal, experimental, refinement or atomic coordinate data resulting 
# from the CCDC's data processing and validation procedures.
#
#######################################################################

data_KIGQUN01
_symmetry_cell_setting           orthorhombic
_symmetry_space_group_name_H-M   'P b c a'
_symmetry_Int_Tables_number      61
_space_group_name_Hall           '-P 2ac 2ab'
loop_
_symmetry_equiv_pos_site_id
_symmetry_equiv_pos_as_xyz
1 x,y,z
2 1/2-x,-y,1/2+z
3 1/2+x,1/2-y,-z
4 -x,1/2+y,1/2-z
5 -x,-y,-z
6 1/2+x,y,1/2-z
7 1/2-x,1/2+y,z
8 x,1/2-y,1/2+z
_cell_length_a                   9.819(6)
_cell_length_b                   16.520(9)
_cell_length_c                   19.674(11)
_cell_angle_alpha                90
_cell_angle_beta                 90
_cell_angle_gamma                90
_cell_volume                     3191.32
loop_
_atom_site_label
_atom_site_type_symbol
_atom_site_fract_x
_atom_site_fract_y
_atom_site_fract_z
In1 In 0.58623(8) 0.19451(5) 0.09406(4)
O1 O 0.7360(8) 0.0904(5) 0.1064(4)
O2 O 0.7311(9) 0.1559(5) 0.0103(4)
O3 O 1.0286(9) 0.2155(5) -0.0187(4)
O4 O 0.9625(9) 0.1733(5) -0.1200(4)
Cl1 Cl 0.3974(3) 0.10325(18) 0.08261(16)
N1 N 0.7551(11) 0.2815(6) 0.1261(5)
N2 N 0.5900(11) 0.1953(6) 0.2083(5)
C1 C 0.8958(12) 0.0507(7) 0.0230(6)
C2 C 0.9166(13) -0.0250(7) 0.0519(6)
H1 H 0.8591 -0.0421 0.0880
C3 C 0.9803(13) 0.0767(7) -0.0293(6)
C4 C 0.7818(11) 0.1019(6) 0.0468(6)
C5 C 0.9842(11) 0.1604(7) -0.0587(6)
C6 C 0.8319(14) 0.3215(8) 0.0830(7)
H2 H 0.8237 0.3096 0.0359
C7 C 0.9247(13) 0.3804(7) 0.1030(6)
H3 H 0.9798 0.4079 0.0708
C8 C 0.9335(15) 0.3974(8) 0.1712(7)
H4 H 0.9922 0.4392 0.1867
C9 C 0.8570(16) 0.3535(10) 0.2175(7)
H5 H 0.8661 0.3635 0.2648
C10 C 0.7682(12) 0.2955(8) 0.1948(6)
C11 C 0.6796(13) 0.2460(7) 0.2388(6)
C12 C 0.6898(12) 0.2465(9) 0.3096(6)
H6 H 0.7532 0.2814 0.3313
C13 C 0.6096(14) 0.1974(10) 0.3472(6)
H7 H 0.6176 0.1976 0.3954
C14 C 0.5157(15) 0.1467(10) 0.3163(7)
H8 H 0.4579 0.1128 0.3425
C15 C 0.5089(15) 0.1472(8) 0.2461(8)
H9 H 0.4455 0.1128 0.2239
In1D In 1.41377(8) -0.19451(5) -0.09406(4)
In1B In 1.08623(8) 0.30549(5) -0.09406(4)
In1F In 0.91377(8) -0.30549(5) 0.09406(4)
O1D O 1.2640(8) -0.0904(5) -0.1064(4)
O2D O 1.2689(9) -0.1559(5) -0.0103(4)
O3D O 0.9714(9) -0.2155(5) 0.0187(4)
O3B O 0.5286(9) 0.2845(5) 0.0187(4)
O3F O 1.4714(9) -0.2845(5) -0.0187(4)
O4D O 1.0375(9) -0.1733(5) 0.1200(4)
O4B O 0.4625(9) 0.3267(5) 0.1200(4)
O4F O 1.5375(9) -0.3267(5) -0.1200(4)
Cl1D Cl 1.6026(3) -0.10325(18) -0.08261(16)
N1D N 1.2449(11) -0.2815(6) -0.1261(5)
N2D N 1.4100(11) -0.1953(6) -0.2083(5)
C1D C 1.1042(12) -0.0507(7) -0.0230(6)
C2D C 1.0834(13) 0.0250(7) -0.0519(6)
H1D H 1.1409 0.0421 -0.0880
C3D C 1.0197(13) -0.0767(7) 0.0293(6)
C4D C 1.2182(11) -0.1019(6) -0.0468(6)
C5D C 1.0158(11) -0.1604(7) 0.0587(6)
C6D C 1.1681(14) -0.3215(8) -0.0830(7)
H2D H 1.1763 -0.3096 -0.0359
C7D C 1.0753(13) -0.3804(7) -0.1030(6)
H3D H 1.0202 -0.4079 -0.0708
C8D C 1.0665(15) -0.3974(8) -0.1712(7)
H4D H 1.0078 -0.4392 -0.1867
C9D C 1.1430(16) -0.3535(10) -0.2175(7)
H5D H 1.1339 -0.3635 -0.2648
C10D C 1.2318(12) -0.2955(8) -0.1948(6)
C11D C 1.3204(13) -0.2460(7) -0.2388(6)
C12D C 1.3102(12) -0.2465(9) -0.3096(6)
H6D H 1.2468 -0.2814 -0.3313
C13D C 1.3904(14) -0.1974(10) -0.3472(6)
H7D H 1.3824 -0.1976 -0.3954
C14D C 1.4843(15) -0.1467(10) -0.3163(7)
H8D H 1.5421 -0.1128 -0.3425
C15D C 1.4911(15) -0.1472(8) -0.2461(8)
H9D H 1.5545 -0.1128 -0.2239
loop_
_geom_bond_atom_site_label_1
_geom_bond_atom_site_label_2
_geom_bond_site_symmetry_1
_geom_bond_site_symmetry_2
In1 O1 1_555 1_555
O1 C4 1_555 1_555
O2 In1 1_555 1_555
O3 C5 1_555 1_555
O4 C5 1_555 1_555
Cl1 In1 1_555 1_555
N1 In1 1_555 1_555
N2 In1 1_555 1_555
C1 C2 1_555 1_555
C2 H1 1_555 1_555
C3 C1 1_555 1_555
C4 O2 1_555 1_555
C5 C3 1_555 1_555
C6 N1 1_555 1_555
H2 C6 1_555 1_555
C7 C6 1_555 1_555
H3 C7 1_555 1_555
C8 C7 1_555 1_555
H4 C8 1_555 1_555
C9 C8 1_555 1_555
H5 C9 1_555 1_555
C10 N1 1_555 1_555
C11 N2 1_555 1_555
C12 C11 1_555 1_555
H6 C12 1_555 1_555
C13 C12 1_555 1_555
H7 C13 1_555 1_555
C14 C13 1_555 1_555
H8 C14 1_555 1_555
C15 N2 1_555 1_555
H9 C15 1_555 1_555
In1D O1D 1_555 1_555
In1B O3 1_555 1_555
In1F O3D 1_555 1_555
O1D C4D 1_555 1_555
O2D In1D 1_555 1_555
O3D C5D 1_555 1_555
O3B In1 1_555 1_555
O3F In1D 1_555 1_555
O4D In1F 1_555 1_555
O4B In1 1_555 1_555
O4F In1D 1_555 1_555
Cl1D In1D 1_555 1_555
N1D In1D 1_555 1_555
N2D In1D 1_555 1_555
C1D C2D 1_555 1_555
C2D C3 1_555 1_555
H1D C2D 1_555 1_555
C3D C2 1_555 1_555
C4D O2D 1_555 1_555
C5D O4D 1_555 1_555
C6D N1D 1_555 1_555
H2D C6D 1_555 1_555
C7D C6D 1_555 1_555
H3D C7D 1_555 1_555
C8D C7D 1_555 1_555
H4D C8D 1_555 1_555
C9D C8D 1_555 1_555
H5D C9D 1_555 1_555
C10D N1D 1_555 1_555
C11D N2D 1_555 1_555
C12D C11D 1_555 1_555
H6D C12D 1_555 1_555
C13D C12D 1_555 1_555
H7D C13D 1_555 1_555
C14D C13D 1_555 1_555
H8D C14D 1_555 1_555
C15D N2D 1_555 1_555
H9D C15D 1_555 1_555
O4 In1B 1_555 1_555
C1 C4 1_555 1_555
C9 C10 1_555 1_555
C10 C11 1_555 1_555
C14 C15 1_555 1_555
C1D C3D 1_555 1_555
C1D C4D 1_555 1_555
C3D C5D 1_555 1_555
C9D C10D 1_555 1_555
C10D C11D 1_555 1_555
C14D C15D 1_555 1_555

#END
