
#######################################################################
#
#                 Cambridge Crystallographic Data Centre
#                                CCDC 
#
#######################################################################
#
# If this CIF has been generated from an entry in the Cambridge 
# Structural Database, then it will include bibliographic, chemical, 
# crystal, experimental, refinement or atomic coordinate data resulting 
# from the CCDC's data processing and validation procedures.
#
#######################################################################

data_KIGREY
_symmetry_cell_setting           triclinic
_symmetry_space_group_name_H-M   'P -1'
_symmetry_Int_Tables_number      2
_space_group_name_Hall           '-P 1'
loop_
_symmetry_equiv_pos_site_id
_symmetry_equiv_pos_as_xyz
1 x,y,z
2 -x,-y,-z
_cell_length_a                   6.971(2)
_cell_length_b                   11.883(3)
_cell_length_c                   12.213(4)
_cell_angle_alpha                76.935(4)
_cell_angle_beta                 77.318(4)
_cell_angle_gamma                82.205(3)
_cell_volume                     957.505
loop_
_atom_site_label
_atom_site_type_symbol
_atom_site_fract_x
_atom_site_fract_y
_atom_site_fract_z
Tb1 Tb -0.19404(3) 0.115980(16) -0.002330(17)
N1 N -0.9830(6) 0.1627(3) 0.4730(3)
N2 N -0.1045(5) 0.2972(3) -0.1616(3)
N3 N -0.2787(5) 0.3136(3) 0.0572(3)
O1 O -0.4720(4) 0.0804(3) 0.1450(3)
O2 O -0.4330(5) -0.0843(3) 0.2714(3)
O3 O -0.8392(4) -0.0468(2) 0.1746(2)
O4 O -1.0757(4) 0.1010(3) 0.1691(3)
O5 O -0.1441(4) -0.0841(2) 0.0514(3)
O6 O -0.4935(4) 0.1770(3) -0.0815(3)
C1 C -0.5163(6) 0.0128(4) 0.2400(4)
C2 C -0.6843(6) 0.0602(3) 0.3231(3)
C3 C -0.8790(6) 0.0750(3) 0.3072(3)
C4 C -1.0215(6) 0.1267(4) 0.3848(4)
H1 H -1.1514 0.1367 0.3744
C5 C -0.7969(7) 0.1485(4) 0.4864(4)
H2 H -0.7670 0.1733 0.5472
C6 C -0.6462(7) 0.0985(4) 0.4143(4)
H3 H -0.5178 0.0904 0.4269
C7 C -0.9361(6) 0.0402(3) 0.2091(4)
C8 C -0.0176(8) 0.2908(4) -0.2678(4)
H4 H 0.0042 0.2183 -0.2877
C9 C 0.0429(9) 0.3863(5) -0.3516(5)
H5 H 0.1030 0.3772 -0.4253
C10 C 0.0139(8) 0.4926(5) -0.3252(5)
H6 H 0.0555 0.5569 -0.3805
C11 C -0.0789(7) 0.5054(4) -0.2146(5)
C12 C -0.1357(6) 0.4038(4) -0.1340(4)
C13 C -0.2277(6) 0.4131(3) -0.0189(4)
C14 C -0.2605(6) 0.5221(4) 0.0129(5)
C15 C -0.3504(7) 0.5262(4) 0.1253(5)
H7 H -0.3756 0.5969 0.1487
C16 C -0.4017(7) 0.4273(4) 0.2014(5)
H8 H -0.4615 0.4291 0.2770
C17 C -0.3621(7) 0.3230(4) 0.1629(4)
H9 H -0.3971 0.2555 0.2154
C18 C -0.1140(8) 0.6128(4) -0.1788(5)
H10 H -0.0752 0.6795 -0.2315
C19 C -0.2002(7) 0.6214(4) -0.0730(5)
H11 H -0.2224 0.6940 -0.0537
H13 H -0.461(9) 0.173(5) -0.1540(16)
H14 H -0.173(7) -0.095(4) 0.1267(10)
H17 H -0.607(5) 0.147(5) -0.061(5)
Tb1A Tb -0.80596(3) -0.115980(16) 0.002330(17)
Tb1_2 Tb -1.19404(3) 0.115980(16) -0.002330(17)
Tb1A_2 Tb 0.19404(3) -0.115980(16) 0.002330(17)
O3A O -0.1608(4) 0.0468(2) -0.1746(2)
O4_2 O -0.0757(4) 0.1010(3) 0.1691(3)
O5A O 0.1441(4) 0.0841(2) -0.0514(3)
H14A H 0.173(7) 0.095(4) -0.1267(10)
O8 O -0.3874(10) 0.2649(6) 0.5562(7)
H12 H -0.263(4) 0.236(6) 0.549(7)
H16 H -0.403(12) 0.284(7) 0.624(3)
O7? O -0.430(3) 0.5134(12) 0.5438(13)
H15? H -0.443(14) 0.503(9) 0.477(4)
loop_
_geom_bond_atom_site_label_1
_geom_bond_atom_site_label_2
_geom_bond_site_symmetry_1
_geom_bond_site_symmetry_2
Tb1 N2 1_555 1_555
N1 C4 1_555 1_555
N2 C8 1_555 1_555
N3 Tb1 1_555 1_555
O1 Tb1 1_555 1_555
O2 C1 1_555 1_555
O3 C7 1_555 1_555
O4 C7 1_555 1_555
O5 Tb1 1_555 1_555
O6 Tb1 1_555 1_555
O8 H12 1_555 1_555
C1 O1 1_555 1_555
C2 C1 1_555 1_555
C3 C2 1_555 1_555
C4 C3 1_555 1_555
H1 C4 1_555 1_555
C5 N1 1_555 1_555
H2 C5 1_555 1_555
C6 C2 1_555 1_555
H3 C6 1_555 1_555
C7 C3 1_555 1_555
C8 H4 1_555 1_555
C9 C8 1_555 1_555
H5 C9 1_555 1_555
C10 C9 1_555 1_555
H6 C10 1_555 1_555
C11 C10 1_555 1_555
C12 N2 1_555 1_555
C13 N3 1_555 1_555
C14 C13 1_555 1_555
C15 C14 1_555 1_555
H7 C15 1_555 1_555
C16 C15 1_555 1_555
H8 C16 1_555 1_555
C17 N3 1_555 1_555
H9 C17 1_555 1_555
C18 C11 1_555 1_555
H10 C18 1_555 1_555
C19 C14 1_555 1_555
H11 C19 1_555 1_555
H13 O6 1_555 1_555
H14 O5 1_555 1_555
H16 O8 1_555 1_555
H17 O6 1_555 1_555
Tb1A O3 1_555 1_555
Tb1_2 O4 1_555 1_555
Tb1A_2 O5 1_555 1_555
O3A Tb1 1_555 1_555
O4_2 Tb1 1_555 1_555
O5A Tb1 1_555 1_555
H14A O5A 1_555 1_555
C5 C6 1_555 1_555
C11 C12 1_555 1_555
C12 C13 1_555 1_555
C16 C17 1_555 1_555
C18 C19 1_555 1_555
Tb1A_2 O5A 1_555 1_555

#END
