
#######################################################################
#
#                 Cambridge Crystallographic Data Centre
#                                CCDC 
#
#######################################################################
#
# If this CIF has been generated from an entry in the Cambridge 
# Structural Database, then it will include bibliographic, chemical, 
# crystal, experimental, refinement or atomic coordinate data resulting 
# from the CCDC's data processing and validation procedures.
#
#######################################################################

data_KIGSUP
_symmetry_cell_setting           triclinic
_symmetry_space_group_name_H-M   'P -1'
_symmetry_Int_Tables_number      2
_space_group_name_Hall           '-P 1'
loop_
_symmetry_equiv_pos_site_id
_symmetry_equiv_pos_as_xyz
1 x,y,z
2 -x,-y,-z
_cell_length_a                   5.355(3)
_cell_length_b                   9.086(6)
_cell_length_c                   11.377(8)
_cell_angle_alpha                94.54(6)
_cell_angle_beta                 102.80(6)
_cell_angle_gamma                103.52(6)
_cell_volume                     519.809
loop_
_atom_site_label
_atom_site_type_symbol
_atom_site_fract_x
_atom_site_fract_y
_atom_site_fract_z
Pb1 Pb 0.33958(4) 0.57629(3) 0.68609(2)
N1 N 0.1812(9) 0.2753(6) 0.4900(4)
O1 O 0.0193(8) 0.3509(5) 0.5080(4)
O2 O 0.1050(8) 0.1470(5) 0.4293(5)
O3 O 0.4275(8) 0.3337(5) 0.5368(4)
N2 N -0.0672(9) 0.6105(6) 0.8331(5)
O4 O -0.1386(7) 0.5619(5) 0.7184(4)
O5 O 0.1740(7) 0.6527(5) 0.8846(4)
O6 O -0.2417(8) 0.6161(5) 0.8878(4)
C1 C -0.0371(10) 0.2347(7) 0.7395(5)
H1 H -0.1626 0.2671 0.6813
C2 C -0.1130(10) 0.0917(7) 0.7767(5)
C3 C 0.0711(11) 0.0465(7) 0.8632(5)
H2 H 0.0277 -0.0515 0.8884
C4 C 0.3182(12) 0.1459(7) 0.9122(6)
H3 H 0.4440 0.1186 0.9738
C5 C 0.3798(11) 0.2857(7) 0.8703(6)
H4 H 0.5497 0.3535 0.9047
N3 N 0.2107(9) 0.3294(6) 0.7838(5)
C6 C -0.3834(11) -0.0137(7) 0.7247(5)
O7 O -0.4474(9) -0.1342(5) 0.7693(4)
N4 N -0.5487(9) 0.0244(6) 0.6349(5)
H5 H -0.7091 -0.0357 0.6047
H6 H -0.4984 0.1099 0.6052
Pb1A Pb -0.33958(4) 0.42371(3) 0.31391(2)
Pb1_2 Pb -0.66042(4) 0.57629(3) 0.68609(2)
Pb1_3 Pb -0.66042(4) -0.42371(3) 0.68609(2)
O1A O -0.0193(8) 0.6491(5) 0.4920(4)
O4_2 O 0.8614(7) 0.5619(5) 0.7184(4)
O6_2 O 0.7583(8) 0.6161(5) 0.8878(4)
O7_2 O 0.5526(9) 0.8658(5) 0.7693(4)
loop_
_geom_bond_atom_site_label_1
_geom_bond_atom_site_label_2
_geom_bond_site_symmetry_1
_geom_bond_site_symmetry_2
Pb1 O1 1_555 1_555
N1 O1 1_555 1_555
O1 Pb1A 1_555 1_555
O2 N1 1_555 1_555
O3 Pb1 1_555 1_555
N2 O4 1_555 1_555
O4 Pb1 1_555 1_555
O5 Pb1 1_555 1_555
O6 N2 1_555 1_555
C1 H1 1_555 1_555
C2 C1 1_555 1_555
C3 C2 1_555 1_555
H2 C3 1_555 1_555
C4 C3 1_555 1_555
H3 C4 1_555 1_555
C5 C4 1_555 1_555
H4 C5 1_555 1_555
N3 Pb1 1_555 1_555
C6 C2 1_555 1_555
O7 C6 1_555 1_555
N4 C6 1_555 1_555
H5 N4 1_555 1_555
H6 N4 1_555 1_555
Pb1A O1A 1_555 1_555
Pb1_2 O4 1_555 1_555
Pb1_3 O7 1_555 1_555
O1A Pb1 1_555 1_555
O4_2 Pb1 1_555 1_555
O6_2 Pb1 1_555 1_555
O7_2 Pb1 1_555 1_555
N1 O3 1_555 1_555
N2 O5 1_555 1_555
O6 Pb1_2 1_555 1_555
C1 N3 1_555 1_555
C5 N3 1_555 1_555

#END
