
#######################################################################
#
#                 Cambridge Crystallographic Data Centre
#                                CCDC 
#
#######################################################################
#
# If this CIF has been generated from an entry in the Cambridge 
# Structural Database, then it will include bibliographic, chemical, 
# crystal, experimental, refinement or atomic coordinate data resulting 
# from the CCDC's data processing and validation procedures.
#
#######################################################################

data_KIGTEA
_symmetry_cell_setting           monoclinic
_symmetry_space_group_name_H-M   'C c'
_symmetry_Int_Tables_number      9
_space_group_name_Hall           'C -2yc'
loop_
_symmetry_equiv_pos_site_id
_symmetry_equiv_pos_as_xyz
1 x,y,z
2 x,-y,1/2+z
3 1/2+x,1/2+y,z
4 1/2+x,1/2-y,1/2+z
_cell_length_a                   15.640(2)
_cell_length_b                   12.1559(17)
_cell_length_c                   15.962(2)
_cell_angle_alpha                90
_cell_angle_beta                 107.549(2)
_cell_angle_gamma                90
_cell_volume                     2893.43
loop_
_atom_site_label
_atom_site_type_symbol
_atom_site_fract_x
_atom_site_fract_y
_atom_site_fract_z
Ag1 Ag 0.06002(5) 0.83930(7) 0.41075(5)
Ag2 Ag 0.19260(5) 0.57162(5) 0.74202(5)
P1 P 0.12525(15) 0.76757(17) 0.55361(14)
P2 P 0.11370(15) 0.73993(16) 0.73521(14)
O1 O 0.1349(7) 0.7476(7) 0.3087(6)
O2 O -0.0189(5) 0.9307(5) 0.2925(5)
O3 O -0.1249(6) 0.8704(10) 0.3407(6)
O4 O -0.1575(5) 0.9687(6) 0.2217(6)
O5 O 0.1701(14) 0.6142(9) 0.2400(12)
O6 O 0.134(3) 0.5890(12) 0.3421(13)
N1 N -0.1017(6) 0.9253(6) 0.2860(5)
N2 N 0.0918(5) 0.8129(6) 0.6398(5)
N3 N 0.1470(6) 0.6483(7) 0.2977(6)
C1 C 0.2466(6) 0.7741(6) 0.5873(5)
C2 C 0.2971(6) 0.8131(7) 0.6668(6)
H1 H 0.2688 0.8383 0.7067
C3 C 0.3923(7) 0.8162(8) 0.6899(7)
H2 H 0.4269 0.8407 0.7448
C4 C 0.4314(7) 0.7812(8) 0.6272(7)
H3 H 0.4936 0.7823 0.6405
C5 C 0.3815(7) 0.7457(9) 0.5474(7)
H4 H 0.4093 0.7240 0.5061
C6 C 0.2904(6) 0.7413(7) 0.5271(6)
H5 H 0.2567 0.7161 0.4721
C7 C 0.1015(6) 0.6185(7) 0.5395(5)
C8 C 0.1676(7) 0.5422(8) 0.5596(7)
H6 H 0.2268 0.5626 0.5869
C9 C 0.1448(10) 0.4312(9) 0.5384(9)
H7 H 0.1895 0.3780 0.5525
C10 C 0.0600(9) 0.4011(9) 0.4983(9)
H8 H 0.0465 0.3274 0.4849
C11 C -0.0074(10) 0.4781(11) 0.4766(11)
H9 H -0.0664 0.4570 0.4493
C12 C 0.0143(8) 0.5892(9) 0.4964(8)
H10 H -0.0302 0.6428 0.4804
C13 C 0.0285(6) 0.9118(7) 0.6256(6)
H11 H 0.0234 0.9319 0.6833
C14 C -0.0652(9) 0.8822(11) 0.5683(8)
H12 H -0.0866 0.8199 0.5929
H13 H -0.0635 0.8645 0.5102
H14 H -0.1046 0.9436 0.5655
C15 C 0.0669(10) 1.0097(9) 0.5925(8)
H15 H 0.1257 1.0250 0.6315
H16 H 0.0288 1.0723 0.5900
H17 H 0.0709 0.9944 0.5348
C16 C 0.0059(6) 0.7187(7) 0.7526(5)
C17 C -0.0455(7) 0.6266(8) 0.7147(6)
H18 H -0.0209 0.5746 0.6859
C18 C -0.1285(8) 0.6118(9) 0.7189(8)
H19 H -0.1609 0.5501 0.6927
C19 C -0.1671(9) 0.6870(10) 0.7617(9)
H20 H -0.2248 0.6755 0.7651
C20 C -0.1200(8) 0.7780(9) 0.7987(8)
H21 H -0.1464 0.8302 0.8257
C21 C -0.0343(7) 0.7930(8) 0.7964(7)
H22 H -0.0019 0.8538 0.8244
C22 C 0.1707(5) 0.8337(7) 0.8263(6)
C23 C 0.1812(7) 0.9454(7) 0.8214(6)
H23 H 0.1580 0.9809 0.7677
C24 C 0.2254(7) 1.0060(8) 0.8947(7)
H24 H 0.2348 1.0810 0.8898
C25 C 0.2558(7) 0.9544(8) 0.9755(7)
H25 H 0.2816 0.9951 1.0262
C26 C 0.2476(9) 0.8430(9) 0.9799(7)
H26 H 0.2707 0.8075 1.0336
C27 C 0.2052(8) 0.7814(8) 0.9052(7)
H27 H 0.2004 0.7054 0.9090
Ag2C Ag -0.30740(5) 0.92838(5) 0.24202(5)
Ag2A Ag 0.19260(5) 0.42838(5) 0.24202(5)
O4C O 0.3425(5) 0.5313(6) 0.7217(6)
O5A O 0.1701(14) 0.3858(9) 0.7400(12)
loop_
_geom_bond_atom_site_label_1
_geom_bond_atom_site_label_2
_geom_bond_site_symmetry_1
_geom_bond_site_symmetry_2
Ag1 P1 1_555 1_555
Ag2 P2 1_555 1_555
P1 N2 1_555 1_555
P2 N2 1_555 1_555
O1 Ag1 1_555 1_555
O2 Ag1 1_555 1_555
O3 N1 1_555 1_555
O4 N1 1_555 1_555
O5 N3 1_555 1_555
O6 N3 1_555 1_555
N1 O2 1_555 1_555
N2 C13 1_555 1_555
N3 O1 1_555 1_555
C1 P1 1_555 1_555
C2 C1 1_555 1_555
H1 C2 1_555 1_555
C3 C2 1_555 1_555
H2 C3 1_555 1_555
C4 C3 1_555 1_555
H3 C4 1_555 1_555
C5 C4 1_555 1_555
H4 C5 1_555 1_555
C6 C1 1_555 1_555
H5 C6 1_555 1_555
C7 P1 1_555 1_555
C8 C7 1_555 1_555
H6 C8 1_555 1_555
C9 C8 1_555 1_555
H7 C9 1_555 1_555
C10 C9 1_555 1_555
H8 C10 1_555 1_555
C11 C10 1_555 1_555
H9 C11 1_555 1_555
C12 C7 1_555 1_555
H10 C12 1_555 1_555
C13 H11 1_555 1_555
C14 C13 1_555 1_555
H12 C14 1_555 1_555
H13 C14 1_555 1_555
H14 C14 1_555 1_555
C15 C13 1_555 1_555
H15 C15 1_555 1_555
H16 C15 1_555 1_555
H17 C15 1_555 1_555
C16 P2 1_555 1_555
C17 C16 1_555 1_555
H18 C17 1_555 1_555
C18 C17 1_555 1_555
H19 C18 1_555 1_555
C19 C18 1_555 1_555
H20 C19 1_555 1_555
C20 C19 1_555 1_555
H21 C20 1_555 1_555
C21 C16 1_555 1_555
H22 C21 1_555 1_555
C22 P2 1_555 1_555
C23 C22 1_555 1_555
H23 C23 1_555 1_555
C24 C23 1_555 1_555
H24 C24 1_555 1_555
C25 C24 1_555 1_555
H25 C25 1_555 1_555
C26 C25 1_555 1_555
H26 C26 1_555 1_555
C27 C22 1_555 1_555
H27 C27 1_555 1_555
Ag2C O4 1_555 1_555
Ag2A O5 1_555 1_555
O4C Ag2 1_555 1_555
O5A Ag2 1_555 1_555
C5 C6 1_555 1_555
C11 C12 1_555 1_555
C20 C21 1_555 1_555
C26 C27 1_555 1_555

#END
