
#######################################################################
#
#                 Cambridge Crystallographic Data Centre
#                                CCDC 
#
#######################################################################
#
# If this CIF has been generated from an entry in the Cambridge 
# Structural Database, then it will include bibliographic, chemical, 
# crystal, experimental, refinement or atomic coordinate data resulting 
# from the CCDC's data processing and validation procedures.
#
#######################################################################

data_KIHGUE
_symmetry_cell_setting           triclinic
_symmetry_space_group_name_H-M   'P -1'
_symmetry_Int_Tables_number      2
_space_group_name_Hall           '-P 1'
loop_
_symmetry_equiv_pos_site_id
_symmetry_equiv_pos_as_xyz
1 x,y,z
2 -x,-y,-z
_cell_length_a                   13.1923(16)
_cell_length_b                   14.2188(17)
_cell_length_c                   16.3598(19)
_cell_angle_alpha                97.737(2)
_cell_angle_beta                 100.990(2)
_cell_angle_gamma                102.532(2)
_cell_volume                     2890.68
loop_
_atom_site_label
_atom_site_type_symbol
_atom_site_fract_x
_atom_site_fract_y
_atom_site_fract_z
Nb1 Nb 0.40702(2) 0.50506(2) 0.088445(19)
Nb2 Nb 0.39482(2) 0.37013(2) -0.066940(19)
Nb3 Nb 0.58797(2) 0.42096(2) 0.06955(2)
Cl1 Cl 0.26931(7) 0.35103(7) 0.02742(6)
Cl2 Cl 0.49351(7) 0.41301(7) 0.18539(6)
Cl3 Cl 0.27187(7) 0.43997(7) -0.16026(6)
Cl4 Cl 0.51573(7) 0.65635(7) 0.18310(6)
Cl5 Cl 0.28658(7) 0.59888(7) 0.02203(6)
Cl6 Cl 0.48038(7) 0.25400(6) 0.00229(6)
Mn1 Mn 0.15225(4) 0.60855(4) 0.30658(4)
Mn2 Mn 0.23541(5) -0.00632(4) -0.24697(4)
O1 O 0.2409(2) 0.61144(19) 0.41029(17)
O2 O 0.2287(2) 0.7297(2) 0.2916(2)
O3 O 0.0891(2) -0.0462(2) -0.28738(18)
O4 O 0.2556(2) 0.0369(2) -0.34556(17)
O5 O 0.2537(3) -0.1569(2) -0.3019(2)
H1 H 0.303(3) -0.159(4) -0.328(3)
H2 H 0.259(4) -0.197(3) -0.269(3)
N1 N 0.0526(2) 0.4849(2) 0.31503(18)
N2 N 0.0522(3) 0.5955(3) 0.1952(2)
N3 N 0.3919(3) 0.0325(2) -0.1975(2)
N4 N 0.2223(3) -0.0583(3) -0.1415(2)
N5 N 0.0584(2) 0.7049(2) 0.37661(19)
N6 N 0.2492(3) 0.5284(2) 0.2299(2)
N7 N 0.2375(3) 0.1483(2) -0.1781(2)
N8 N 0.7233(3) 0.2843(3) 0.1840(3)
C1 C 0.2235(3) 0.5574(3) 0.4682(2)
C2 C 0.2987(3) 0.5858(4) 0.5460(3)
H3 H 0.3560 0.6423 0.5544
C3 C 0.2910(4) 0.5339(5) 0.6096(3)
H4 H 0.3420 0.5555 0.6621
C4 C 0.2098(5) 0.4499(5) 0.5990(3)
H5 H 0.2071 0.4120 0.6424
C5 C 0.1332(4) 0.4224(4) 0.5247(3)
H6 H 0.0762 0.3661 0.5183
C6 C 0.1364(3) 0.4751(3) 0.4574(2)
C7 C 0.0497(3) 0.4437(3) 0.3811(2)
C8 C -0.0458(3) 0.3622(3) 0.3806(3)
H7 H -0.0967 0.3491 0.3258
H8 H -0.0801 0.3818 0.4259
H9 H -0.0224 0.3028 0.3896
C9 C -0.0373(3) 0.4511(3) 0.2392(2)
H10 H -0.0994 0.4748 0.2505
H11 H -0.0586 0.3786 0.2261
C10 C -0.0030(3) 0.4904(3) 0.1652(2)
H12 H 0.0458 0.4541 0.1440
H13 H -0.0658 0.4829 0.1185
C11 C 0.0468(3) 0.6603(4) 0.1479(3)
C12 C -0.0110(4) 0.6323(5) 0.0564(3)
H14 H -0.0386 0.5609 0.0415
H15 H 0.0382 0.6540 0.0209
H16 H -0.0704 0.6636 0.0471
C13 C 0.0956(4) 0.7642(4) 0.1850(3)
C14 C 0.0528(5) 0.8368(5) 0.1514(4)
H17 H -0.0030 0.8184 0.1017
C15 C 0.0900(7) 0.9336(5) 0.1891(5)
H18 H 0.0590 0.9816 0.1664
C16 C 0.1716(6) 0.9607(4) 0.2592(5)
H19 H 0.1975 1.0280 0.2848
C17 C 0.2179(5) 0.8916(4) 0.2944(4)
H20 H 0.2747 0.9117 0.3434
C18 C 0.1800(4) 0.7929(3) 0.2568(3)
C19 C 0.0221(3) -0.1195(3) -0.2684(3)
C20 C -0.0734(3) -0.1614(3) -0.3294(4)
H21 H -0.0862 -0.1375 -0.3809
C21 C -0.1486(4) -0.2371(4) -0.3147(5)
H22 H -0.2130 -0.2651 -0.3563
C22 C -0.1317(5) -0.2725(4) -0.2408(5)
H23 H -0.1838 -0.3251 -0.2316
C23 C -0.0402(5) -0.2322(4) -0.1805(4)
H24 H -0.0302 -0.2565 -0.1290
C24 C 0.0417(4) -0.1541(3) -0.1925(3)
C25 C 0.1402(5) -0.1152(3) -0.1266(3)
C26 C 0.1443(6) -0.1436(5) -0.0401(4)
H25 H 0.2142 -0.1115 -0.0027
H26 H 0.0885 -0.1229 -0.0158
H27 H 0.1327 -0.2149 -0.0459
C27 C 0.3215(4) -0.0184(4) -0.0776(3)
H28 H 0.3215 0.0468 -0.0474
H29 H 0.3280 -0.0622 -0.0357
C28 C 0.4140(4) -0.0093(4) -0.1200(3)
H30 H 0.4271 -0.0748 -0.1349
H31 H 0.4790 0.0333 -0.0804
C29 C 0.4661(3) 0.0840(3) -0.2264(3)
C30 C 0.5808(4) 0.1076(4) -0.1770(3)
H32 H 0.5842 0.0776 -0.1263
H33 H 0.6240 0.0816 -0.2125
H34 H 0.6083 0.1788 -0.1601
C31 C 0.4431(3) 0.1208(3) -0.3037(3)
C32 C 0.5245(4) 0.1845(4) -0.3280(4)
H35 H 0.5938 0.2019 -0.2919
C33 C 0.5109(6) 0.2225(6) -0.3988(5)
H36 H 0.5694 0.2635 -0.4132
C34 C 0.4069(7) 0.2001(7) -0.4518(5)
H37 H 0.3949 0.2286 -0.5009
C35 C 0.3236(5) 0.1374(5) -0.4324(4)
H38 H 0.2547 0.1212 -0.4691
C36 C 0.3398(4) 0.0972(4) -0.3585(3)
C37 C 0.1155(3) 0.7653(3) 0.4488(2)
H39 H 0.1762 0.7486 0.4789
C38 C 0.0915(3) 0.8495(3) 0.4817(2)
H40 H 0.1335 0.8886 0.5338
C39 C -0.0269(3) 0.7304(3) 0.3358(2)
H41 H -0.0695 0.6880 0.2853
C40 C -0.0563(3) 0.8146(3) 0.3628(2)
H42 H -0.1169 0.8299 0.3311
C41 C 0.0041(3) 0.8771(3) 0.4376(2)
C42 C -0.0245(3) 0.9677(3) 0.4647(2)
H43 H -0.0829 0.9818 0.4290
C43 C 0.3027(3) 0.5163(3) 0.1850(2)
C44 C 0.2833(3) 0.2252(3) -0.1411(2)
C45 C 0.6814(3) 0.3313(3) 0.1457(3)
Nb1A Nb 0.59298(2) 0.49494(2) -0.088445(19)
Nb2A Nb 0.60518(2) 0.62987(2) 0.066940(19)
Nb3A Nb 0.41203(2) 0.57904(2) -0.06955(2)
Cl1A Cl 0.73069(7) 0.64897(7) -0.02742(6)
Cl2A Cl 0.50649(7) 0.58699(7) -0.18539(6)
Cl3A Cl 0.72813(7) 0.56003(7) 0.16026(6)
Cl4A Cl 0.48427(7) 0.34365(7) -0.18310(6)
Cl5A Cl 0.71342(7) 0.40112(7) -0.02203(6)
Cl6A Cl 0.51962(7) 0.74600(6) -0.00229(6)
Mn1A Mn -0.15225(4) 1.39145(4) 0.69342(4)
Mn1A_2 Mn 0.84775(4) 0.39145(4) -0.30658(4)
Mn2A Mn 0.76459(5) 1.00632(4) 0.24697(4)
O1A O -0.2409(2) 1.38856(19) 0.58971(17)
O2A O -0.2287(2) 1.2703(2) 0.7084(2)
O3A O 0.9109(2) 1.0462(2) 0.28738(18)
O4A O 0.7444(2) 0.9631(2) 0.34556(17)
O5A O 0.7463(3) 1.1569(2) 0.3019(2)
H1A H 0.697(3) 1.159(4) 0.328(3)
H2A H 0.741(4) 1.197(3) 0.269(3)
N1A N -0.0526(2) 1.5151(2) 0.68497(18)
N2A N -0.0522(3) 1.4045(3) 0.8048(2)
N3A N 0.6081(3) 0.9675(2) 0.1975(2)
N4A N 0.7777(3) 1.0583(3) 0.1415(2)
N5A N -0.0584(2) 1.2951(2) 0.62339(19)
N6A N 0.7508(3) 0.4716(2) -0.2299(2)
N6A_2 N -0.2492(3) 1.4716(2) 0.7701(2)
N7A N 0.7625(3) 0.8517(2) 0.1781(2)
N8A N 0.2767(3) 0.7157(3) -0.1840(3)
C1A C -0.2235(3) 1.4426(3) 0.5318(2)
C2A C -0.2987(3) 1.4142(4) 0.4540(3)
H3A H -0.3560 1.3577 0.4456
C3A C -0.2910(4) 1.4661(5) 0.3904(3)
H4A H -0.3420 1.4445 0.3379
C4A C -0.2098(5) 1.5501(5) 0.4010(3)
H5A H -0.2071 1.5880 0.3576
C5A C -0.1332(4) 1.5776(4) 0.4753(3)
H6A H -0.0762 1.6339 0.4817
C6A C -0.1364(3) 1.5249(3) 0.5426(2)
C7A C -0.0497(3) 1.5563(3) 0.6189(2)
C8A C 0.0458(3) 1.6378(3) 0.6194(3)
H7A H 0.0967 1.6509 0.6742
H8A H 0.0801 1.6182 0.5741
H9A H 0.0224 1.6972 0.6104
C9A C 0.0373(3) 1.5489(3) 0.7608(2)
H10A H 0.0994 1.5252 0.7495
H11A H 0.0586 1.6214 0.7739
C10A C 0.0030(3) 1.5096(3) 0.8348(2)
H12A H -0.0458 1.5459 0.8560
H13A H 0.0658 1.5171 0.8815
C11A C -0.0468(3) 1.3397(4) 0.8521(3)
C12A C 0.0110(4) 1.3677(5) 0.9436(3)
H14A H 0.0386 1.4391 0.9585
H15A H -0.0382 1.3460 0.9791
H16A H 0.0704 1.3364 0.9529
C13A C -0.0956(4) 1.2358(4) 0.8150(3)
C14A C -0.0528(5) 1.1632(5) 0.8486(4)
H17A H 0.0030 1.1816 0.8983
C15A C -0.0900(7) 1.0664(5) 0.8109(5)
H18A H -0.0590 1.0184 0.8336
C16A C -0.1716(6) 1.0393(4) 0.7408(5)
H19A H -0.1975 0.9720 0.7152
C17A C -0.2179(5) 1.1084(4) 0.7056(4)
H20A H -0.2747 1.0883 0.6566
C18A C -0.1800(4) 1.2071(3) 0.7432(3)
C19A C 0.9779(3) 1.1195(3) 0.2684(3)
C20A C 1.0734(3) 1.1614(3) 0.3294(4)
H21A H 1.0862 1.1375 0.3809
C21A C 1.1486(4) 1.2371(4) 0.3147(5)
H22A H 1.2130 1.2651 0.3563
C22A C 1.1317(5) 1.2725(4) 0.2408(5)
H23A H 1.1838 1.3251 0.2316
C23A C 1.0402(5) 1.2322(4) 0.1805(4)
H24A H 1.0302 1.2565 0.1290
C24A C 0.9583(4) 1.1541(3) 0.1925(3)
C25A C 0.8598(5) 1.1152(3) 0.1266(3)
C26A C 0.8557(6) 1.1436(5) 0.0401(4)
H25A H 0.7858 1.1115 0.0027
H26A H 0.9115 1.1229 0.0158
H27A H 0.8673 1.2149 0.0459
C27A C 0.6785(4) 1.0184(4) 0.0776(3)
H28A H 0.6785 0.9532 0.0474
H29A H 0.6720 1.0622 0.0357
C28A C 0.5860(4) 1.0093(4) 0.1200(3)
H30A H 0.5729 1.0748 0.1349
H31A H 0.5210 0.9667 0.0804
C29A C 0.5339(3) 0.9160(3) 0.2264(3)
C30A C 0.4192(4) 0.8924(4) 0.1770(3)
H32A H 0.4158 0.9224 0.1263
H33A H 0.3760 0.9184 0.2125
H34A H 0.3917 0.8212 0.1601
C31A C 0.5569(3) 0.8792(3) 0.3037(3)
C32A C 0.4755(4) 0.8155(4) 0.3280(4)
H35A H 0.4062 0.7981 0.2919
C33A C 0.4891(6) 0.7775(6) 0.3988(5)
H36A H 0.4306 0.7365 0.4132
C34A C 0.5931(7) 0.7999(7) 0.4518(5)
H37A H 0.6051 0.7714 0.5009
C35A C 0.6764(5) 0.8626(5) 0.4324(4)
H38A H 0.7453 0.8788 0.4691
C36A C 0.6602(4) 0.9028(4) 0.3585(3)
C37A C -0.1155(3) 1.2347(3) 0.5512(2)
H39A H -0.1762 1.2514 0.5211
C38A C -0.0915(3) 1.1505(3) 0.5183(2)
H40A H -0.1335 1.1114 0.4662
C39A C 0.0269(3) 1.2696(3) 0.6642(2)
H41A H 0.0695 1.3120 0.7147
C40A C 0.0563(3) 1.1854(3) 0.6372(2)
H42A H 0.1169 1.1701 0.6689
C41A C -0.0041(3) 1.1229(3) 0.5624(2)
C42A C 0.0245(3) 1.0323(3) 0.5353(2)
H43A H 0.0829 1.0182 0.5710
C43A C 0.6973(3) 0.4837(3) -0.1850(2)
C44A C 0.7167(3) 0.7748(3) 0.1411(2)
C45A C 0.3186(3) 0.6687(3) -0.1457(3)
C46 C 0.5652(5) 0.5638(9) 0.6146(4)
N9 N 0.5840(6) 0.6447(8) 0.6189(5)
C47 C 0.5348(6) 0.4656(8) 0.6110(4)
H44 H 0.5894 0.4352 0.5943
H45 H 0.4670 0.4383 0.5694
H46 H 0.5259 0.4524 0.6669
O6 O 0.5000 1.0000 0.5000
O7 O 0.8813(11) 0.9086(10) 0.9976(8)
O8 O 0.3868(11) 0.8620(10) 0.5824(9)
O9 O 0.7004(13) 0.8778(11) 0.8739(10)
O12 O 0.5548(13) 0.8268(12) 0.7412(11)
O10? O 0.6439(15) 0.8477(13) 0.8172(12)
O11? O 0.4777(11) 0.8592(10) 0.6754(9)
O13? O 0.4333(15) 0.9230(15) 0.5444(12)
O14? O 0.8004(18) 0.8879(15) 0.9276(14)
loop_
_geom_bond_atom_site_label_1
_geom_bond_atom_site_label_2
_geom_bond_site_symmetry_1
_geom_bond_site_symmetry_2
Nb1 Nb2 1_555 1_555
Nb2 Nb3 1_555 1_555
Nb3 Nb1 1_555 1_555
Cl1 Nb1 1_555 1_555
Cl2 Nb1 1_555 1_555
Cl3 Nb2 1_555 1_555
Cl4 Nb1 1_555 1_555
Cl5 Nb1 1_555 1_555
Cl6 Nb2 1_555 1_555
Mn1 O1 1_555 1_555
Mn2 O3 1_555 1_555
O1 C1 1_555 1_555
O2 Mn1 1_555 1_555
O3 C19 1_555 1_555
O4 Mn2 1_555 1_555
O5 Mn2 1_555 1_555
H1 O5 1_555 1_555
H2 O5 1_555 1_555
N1 Mn1 1_555 1_555
N2 Mn1 1_555 1_555
N3 Mn2 1_555 1_555
N4 Mn2 1_555 1_555
N5 Mn1 1_555 1_555
N6 Mn1 1_555 1_555
N7 Mn2 1_555 1_555
N8 C45 1_555 1_555
C1 C2 1_555 1_555
C2 H3 1_555 1_555
C3 C2 1_555 1_555
H4 C3 1_555 1_555
C4 C3 1_555 1_555
H5 C4 1_555 1_555
C5 C4 1_555 1_555
H6 C5 1_555 1_555
C6 C1 1_555 1_555
C7 N1 1_555 1_555
C8 C7 1_555 1_555
H7 C8 1_555 1_555
H8 C8 1_555 1_555
H9 C8 1_555 1_555
C9 N1 1_555 1_555
H10 C9 1_555 1_555
H11 C9 1_555 1_555
C10 N2 1_555 1_555
H12 C10 1_555 1_555
H13 C10 1_555 1_555
C11 N2 1_555 1_555
C12 C11 1_555 1_555
H14 C12 1_555 1_555
H15 C12 1_555 1_555
H16 C12 1_555 1_555
C13 C11 1_555 1_555
C14 C13 1_555 1_555
H17 C14 1_555 1_555
C15 C14 1_555 1_555
H18 C15 1_555 1_555
C16 C15 1_555 1_555
H19 C16 1_555 1_555
C17 C16 1_555 1_555
H20 C17 1_555 1_555
C18 O2 1_555 1_555
C19 C20 1_555 1_555
C20 H21 1_555 1_555
C21 C20 1_555 1_555
H22 C21 1_555 1_555
C22 C21 1_555 1_555
H23 C22 1_555 1_555
C23 C22 1_555 1_555
H24 C23 1_555 1_555
C24 C19 1_555 1_555
C25 N4 1_555 1_555
C26 C25 1_555 1_555
H25 C26 1_555 1_555
H26 C26 1_555 1_555
H27 C26 1_555 1_555
C27 N4 1_555 1_555
H28 C27 1_555 1_555
H29 C27 1_555 1_555
C28 N3 1_555 1_555
H30 C28 1_555 1_555
H31 C28 1_555 1_555
C29 N3 1_555 1_555
C30 C29 1_555 1_555
H32 C30 1_555 1_555
H33 C30 1_555 1_555
H34 C30 1_555 1_555
C31 C29 1_555 1_555
C32 C31 1_555 1_555
H35 C32 1_555 1_555
C33 C32 1_555 1_555
H36 C33 1_555 1_555
C34 C33 1_555 1_555
H37 C34 1_555 1_555
C35 C34 1_555 1_555
H38 C35 1_555 1_555
C36 O4 1_555 1_555
C37 N5 1_555 1_555
H39 C37 1_555 1_555
C38 C37 1_555 1_555
H40 C38 1_555 1_555
C39 N5 1_555 1_555
H41 C39 1_555 1_555
C40 C39 1_555 1_555
H42 C40 1_555 1_555
C41 C38 1_555 1_555
C42 C41 1_555 1_555
H43 C42 1_555 1_555
C43 Nb1 1_555 1_555
C44 Nb2 1_555 1_555
C45 Nb3 1_555 1_555
C46 N9 1_555 1_555
C47 C46 1_555 1_555
H44 C47 1_555 1_555
H45 C47 1_555 1_555
H46 C47 1_555 1_555
Nb1A Nb2 1_555 1_555
Nb2A Nb1 1_555 1_555
Nb3A Nb1 1_555 1_555
Cl1A Nb1A 1_555 1_555
Cl2A Nb1A 1_555 1_555
Cl3A Nb3 1_555 1_555
Cl4A Nb2 1_555 1_555
Cl5A Nb3 1_555 1_555
Cl6A Nb2A 1_555 1_555
Mn1A O1A 1_555 1_555
Mn1A_2 N6A 1_555 1_555
Mn2A O3A 1_555 1_555
O1A C1A 1_555 1_555
O2A Mn1A 1_555 1_555
O3A C19A 1_555 1_555
O4A Mn2A 1_555 1_555
O5A Mn2A 1_555 1_555
H1A O5A 1_555 1_555
H2A O5A 1_555 1_555
N1A Mn1A 1_555 1_555
N2A Mn1A 1_555 1_555
N3A Mn2A 1_555 1_555
N4A Mn2A 1_555 1_555
N5A Mn1A 1_555 1_555
N6A C43A 1_555 1_555
N6A_2 Mn1A 1_555 1_555
N7A Mn2A 1_555 1_555
N8A C45A 1_555 1_555
C1A C2A 1_555 1_555
C2A H3A 1_555 1_555
C3A C2A 1_555 1_555
H4A C3A 1_555 1_555
C4A C3A 1_555 1_555
H5A C4A 1_555 1_555
C5A C4A 1_555 1_555
H6A C5A 1_555 1_555
C6A C1A 1_555 1_555
C7A N1A 1_555 1_555
C8A C7A 1_555 1_555
H7A C8A 1_555 1_555
H8A C8A 1_555 1_555
H9A C8A 1_555 1_555
C9A N1A 1_555 1_555
H10A C9A 1_555 1_555
H11A C9A 1_555 1_555
C10A N2A 1_555 1_555
H12A C10A 1_555 1_555
H13A C10A 1_555 1_555
C11A N2A 1_555 1_555
C12A C11A 1_555 1_555
H14A C12A 1_555 1_555
H15A C12A 1_555 1_555
H16A C12A 1_555 1_555
C13A C11A 1_555 1_555
C14A C13A 1_555 1_555
H17A C14A 1_555 1_555
C15A C14A 1_555 1_555
H18A C15A 1_555 1_555
C16A C15A 1_555 1_555
H19A C16A 1_555 1_555
C17A C16A 1_555 1_555
H20A C17A 1_555 1_555
C18A O2A 1_555 1_555
C19A C20A 1_555 1_555
C20A H21A 1_555 1_555
C21A C20A 1_555 1_555
H22A C21A 1_555 1_555
C22A C21A 1_555 1_555
H23A C22A 1_555 1_555
C23A C22A 1_555 1_555
H24A C23A 1_555 1_555
C24A C19A 1_555 1_555
C25A N4A 1_555 1_555
C26A C25A 1_555 1_555
H25A C26A 1_555 1_555
H26A C26A 1_555 1_555
H27A C26A 1_555 1_555
C27A N4A 1_555 1_555
H28A C27A 1_555 1_555
H29A C27A 1_555 1_555
C28A N3A 1_555 1_555
H30A C28A 1_555 1_555
H31A C28A 1_555 1_555
C29A N3A 1_555 1_555
C30A C29A 1_555 1_555
H32A C30A 1_555 1_555
H33A C30A 1_555 1_555
H34A C30A 1_555 1_555
C31A C29A 1_555 1_555
C32A C31A 1_555 1_555
H35A C32A 1_555 1_555
C33A C32A 1_555 1_555
H36A C33A 1_555 1_555
C34A C33A 1_555 1_555
H37A C34A 1_555 1_555
C35A C34A 1_555 1_555
H38A C35A 1_555 1_555
C36A O4A 1_555 1_555
C37A N5A 1_555 1_555
H39A C37A 1_555 1_555
C38A C37A 1_555 1_555
H40A C38A 1_555 1_555
C39A N5A 1_555 1_555
H41A C39A 1_555 1_555
C40A C39A 1_555 1_555
H42A C40A 1_555 1_555
C41A C38A 1_555 1_555
C42A C42 1_555 1_555
H43A C42A 1_555 1_555
C43A Nb1A 1_555 1_555
C44A Nb2A 1_555 1_555
C45A Nb3A 1_555 1_555
Nb2 Cl1 1_555 1_555
Nb2 Nb3A 1_555 1_555
Nb3 Cl2 1_555 1_555
Nb3 Cl6 1_555 1_555
Nb3 Nb1A 1_555 1_555
Nb3 Nb2A 1_555 1_555
Cl3 Nb3A 1_555 1_555
Cl4 Nb2A 1_555 1_555
Cl5 Nb3A 1_555 1_555
N6 C43 1_555 1_555
N7 C44 1_555 1_555
C5 C6 1_555 1_555
C6 C7 1_555 1_555
C9 C10 1_555 1_555
C13 C18 1_555 1_555
C17 C18 1_555 1_555
C23 C24 1_555 1_555
C24 C25 1_555 1_555
C27 C28 1_555 1_555
C31 C36 1_555 1_555
C35 C36 1_555 1_555
C40 C41 1_555 1_555
Nb1A Nb2A 1_555 1_555
Nb1A Nb3A 1_555 1_555
Nb1A Cl4A 1_555 1_555
Nb1A Cl5A 1_555 1_555
Nb2A Nb3A 1_555 1_555
Nb2A Cl1A 1_555 1_555
Nb2A Cl3A 1_555 1_555
Nb3A Cl2A 1_555 1_555
Nb3A Cl6A 1_555 1_555
N7A C44A 1_555 1_555
C5A C6A 1_555 1_555
C6A C7A 1_555 1_555
C9A C10A 1_555 1_555
C13A C18A 1_555 1_555
C17A C18A 1_555 1_555
C23A C24A 1_555 1_555
C24A C25A 1_555 1_555
C27A C28A 1_555 1_555
C31A C36A 1_555 1_555
C35A C36A 1_555 1_555
C40A C41A 1_555 1_555
C41A C42A 1_555 1_555

#END
