
#######################################################################
#
#                 Cambridge Crystallographic Data Centre
#                                CCDC 
#
#######################################################################
#
# If this CIF has been generated from an entry in the Cambridge 
# Structural Database, then it will include bibliographic, chemical, 
# crystal, experimental, refinement or atomic coordinate data resulting 
# from the CCDC's data processing and validation procedures.
#
#######################################################################

data_KIHGOY
_symmetry_cell_setting           triclinic
_symmetry_space_group_name_H-M   'P -1'
_symmetry_Int_Tables_number      2
_space_group_name_Hall           '-P 1'
loop_
_symmetry_equiv_pos_site_id
_symmetry_equiv_pos_as_xyz
1 x,y,z
2 -x,-y,-z
_cell_length_a                   12.904(2)
_cell_length_b                   14.024(2)
_cell_length_c                   14.101(2)
_cell_angle_alpha                100.340(2)
_cell_angle_beta                 91.070(2)
_cell_angle_gamma                94.313(2)
_cell_volume                     2501.9
loop_
_atom_site_label
_atom_site_type_symbol
_atom_site_fract_x
_atom_site_fract_y
_atom_site_fract_z
Nb1 Nb 0.09334(4) 0.45227(4) 0.10024(4)
Nb2 Nb 0.10916(4) 0.61454(4) -0.00454(4)
Nb3 Nb -0.07285(4) 0.58452(4) 0.11056(4)
Cl1 Cl -0.01879(12) 0.30943(11) 0.12301(12)
Cl2 Cl 0.21644(11) 0.53462(12) -0.13386(11)
Cl3 Cl 0.19376(11) 0.34238(11) -0.01194(12)
Cl4 Cl 0.04153(12) 0.73513(11) 0.12323(12)
Cl5 Cl 0.02371(12) 0.54304(12) 0.24876(10)
Cl6 Cl 0.23960(11) 0.57873(12) 0.11232(11)
Mn1 Mn 0.25115(8) 0.29356(8) 0.39913(8)
Mn2 Mn 0.44343(8) 0.89043(7) 0.00761(8)
O1 O 0.2676(4) 0.1786(4) 0.3138(4)
O2 O 0.3935(4) 0.3249(4) 0.4260(4)
O3 O 0.3997(3) 1.0090(3) -0.0207(3)
O4 O 0.4254(4) 0.9271(4) 0.1377(4)
O5 O 0.2411(5) 0.2059(4) 0.5190(4)
N1 N 0.0960(5) 0.2726(5) 0.3839(5)
N2 N 0.2200(5) 0.4098(5) 0.4957(5)
N3 N 0.4694(4) 0.8468(4) -0.1302(4)
N4 N 0.5106(4) 0.7720(5) 0.0284(5)
N5 N 0.2382(5) 0.3746(5) 0.2725(5)
N6 N 0.2917(5) 0.8022(4) -0.0144(5)
N7 N -0.1887(6) 0.7139(5) 0.3010(5)
C1 C 0.1967(6) 0.1257(5) 0.2511(5)
C2 C 0.2333(7) 0.0539(6) 0.1816(6)
H1 H 0.3059 0.0467 0.1785
C3 C 0.1667(7) -0.0061(7) 0.1182(7)
H2 H 0.1938 -0.0562 0.0732
C4 C 0.0650(8) 0.0028(7) 0.1167(7)
H3 H 0.0204 -0.0400 0.0709
C5 C 0.0253(7) 0.0730(6) 0.1808(6)
H4 H -0.0474 0.0797 0.1784
C6 C 0.0885(6) 0.1370(6) 0.2514(5)
C7 C 0.0402(6) 0.2081(6) 0.3233(6)
C8 C -0.0787(7) 0.2007(8) 0.3243(8)
H5 H -0.1016 0.2515 0.3750
H6 H -0.1040 0.1367 0.3370
H7 H -0.1068 0.2093 0.2616
C9 C 0.0494(7) 0.3432(7) 0.4597(7)
H8 H -0.0202 0.3562 0.4367
H9 H 0.0405 0.3144 0.5185
C10 C 0.1095(7) 0.4276(7) 0.4817(7)
H10 H 0.0851 0.4669 0.5414
H11 H 0.1030 0.4651 0.4290
C11 C 0.2491(7) 0.5596(6) 0.6191(7)
H12 H 0.1768 0.5679 0.6020
H13 H 0.2941 0.6148 0.6058
H14 H 0.2551 0.5565 0.6878
C12 C 0.2823(7) 0.4657(6) 0.5595(6)
C13 C 0.3862(6) 0.4426(6) 0.5764(6)
C14 C 0.4427(7) 0.4891(7) 0.6611(6)
H15 H 0.4083 0.5314 0.7083
C15 C 0.5456(8) 0.4757(8) 0.6779(7)
H16 H 0.5814 0.5091 0.7351
C16 C 0.5973(8) 0.4114(8) 0.6086(7)
H17 H 0.6686 0.4019 0.6183
C17 C 0.5424(6) 0.3625(7) 0.5262(6)
H18 H 0.5768 0.3187 0.4803
C18 C 0.4378(6) 0.3759(6) 0.5090(6)
C19 C 0.3384(5) 1.0105(5) -0.0992(5)
C20 C 0.2670(5) 1.0809(5) -0.0897(6)
H19 H 0.2608 1.1217 -0.0288
C21 C 0.2061(7) 1.0924(6) -0.1653(7)
H20 H 0.1566 1.1398 -0.1570
C22 C 0.2159(8) 1.0358(7) -0.2537(7)
H21 H 0.1742 1.0448 -0.3072
C23 C 0.2862(7) 0.9656(7) -0.2655(6)
H22 H 0.2927 0.9271 -0.3275
C24 C 0.3489(6) 0.9498(5) -0.1872(5)
C25 C 0.4266(6) 0.8753(5) -0.2020(5)
C26 C 0.4488(7) 0.8327(7) -0.3083(6)
H23 H 0.5009 0.7850 -0.3099
H24 H 0.4752 0.8852 -0.3410
H25 H 0.3845 0.8008 -0.3413
C27 C 0.5468(6) 0.7727(6) -0.1374(6)
H26 H 0.6177 0.8055 -0.1262
H27 H 0.5425 0.7327 -0.2030
C28 C 0.5270(6) 0.7105(6) -0.0666(7)
H28 H 0.4646 0.6655 -0.0868
H29 H 0.5869 0.6714 -0.0616
C29 C 0.5227(6) 0.7424(7) 0.1111(8)
C30 C 0.5517(9) 0.6397(8) 0.1135(9)
H30 H 0.5620 0.6060 0.0476
H31 H 0.4956 0.6043 0.1421
H32 H 0.6160 0.6425 0.1522
C31 C 0.5044(7) 0.8052(7) 0.2029(7)
C32 C 0.5422(9) 0.7775(9) 0.2920(9)
H33 H 0.5813 0.7224 0.2896
C33 C 0.5205(10) 0.8320(10) 0.3785(9)
H34 H 0.5453 0.8133 0.4358
C34 C 0.4657(11) 0.9111(11) 0.3869(9)
H35 H 0.4493 0.9454 0.4485
C35 C 0.4341(8) 0.9407(9) 0.3039(7)
H36 H 0.3970 0.9973 0.3086
C36 C 0.4555(7) 0.8895(7) 0.2124(7)
C37 C 0.1929(5) 0.4003(5) 0.2118(5)
C38 C 0.2295(5) 0.7399(5) -0.0109(5)
C39 C -0.1517(5) 0.6741(5) 0.2352(5)
C40 C 0.2363(11) 0.0998(10) 0.5050(9)
C42 C 0.1257(16) 0.0589(14) 0.4997(13)
Nb1A Nb -0.09334(4) 0.54773(4) -0.10024(4)
Nb2A Nb -0.10916(4) 0.38546(4) 0.00454(4)
Nb3A Nb 0.07285(4) 0.41548(4) -0.11056(4)
Cl1A Cl 0.01879(12) 0.69057(11) -0.12301(12)
Cl2A Cl -0.21644(11) 0.46538(12) 0.13386(11)
Cl3A Cl -0.19376(11) 0.65762(11) 0.01194(12)
Cl4A Cl -0.04153(12) 0.26487(11) -0.12323(12)
Cl5A Cl -0.02371(12) 0.45696(12) -0.24876(10)
Cl6A Cl -0.23960(11) 0.42127(12) -0.11232(11)
Mn1A Mn -0.25115(8) 0.70644(8) -0.39913(8)
Mn2A Mn 0.55657(8) 1.10957(7) -0.00761(8)
Mn2A_2 Mn -0.44343(8) 0.10957(7) -0.00761(8)
Mn2_2 Mn -0.55657(8) -0.10957(7) 0.00761(8)
O1A O -0.2676(4) 0.8214(4) -0.3138(4)
O2A O -0.3935(4) 0.6751(4) -0.4260(4)
O3A O 0.6003(3) 0.9910(3) 0.0207(3)
O3_2 O -0.6003(3) 0.0090(3) -0.0207(3)
O3A_2 O -0.3997(3) -0.0090(3) 0.0207(3)
O4A O -0.4254(4) 0.0729(4) -0.1377(4)
O5A O -0.2411(5) 0.7941(4) -0.5190(4)
N1A N -0.0960(5) 0.7274(5) -0.3839(5)
N2A N -0.2200(5) 0.5902(5) -0.4957(5)
N3A N -0.4694(4) 0.1532(4) 0.1302(4)
N4A N -0.5106(4) 0.2280(5) -0.0284(5)
N5A N -0.2382(5) 0.6254(5) -0.2725(5)
N6A N -0.2917(5) 0.1978(4) 0.0144(5)
N7A N 0.1887(6) 0.2861(5) -0.3010(5)
C1A C -0.1967(6) 0.8743(5) -0.2511(5)
C2A C -0.2333(7) 0.9461(6) -0.1816(6)
H1A H -0.3059 0.9533 -0.1785
C3A C -0.1667(7) 1.0061(7) -0.1182(7)
H2A H -0.1938 1.0562 -0.0732
C4A C -0.0650(8) 0.9972(7) -0.1167(7)
H3A H -0.0204 1.0400 -0.0709
C5A C -0.0253(7) 0.9270(6) -0.1808(6)
H4A H 0.0474 0.9203 -0.1784
C6A C -0.0885(6) 0.8630(6) -0.2514(5)
C7A C -0.0402(6) 0.7919(6) -0.3233(6)
C8A C 0.0787(7) 0.7993(8) -0.3243(8)
H5A H 0.1016 0.7485 -0.3750
H6A H 0.1040 0.8633 -0.3370
H7A H 0.1068 0.7907 -0.2616
C9A C -0.0494(7) 0.6568(7) -0.4597(7)
H8A H 0.0202 0.6438 -0.4367
H9A H -0.0405 0.6856 -0.5185
C10A C -0.1095(7) 0.5724(7) -0.4817(7)
H10A H -0.0851 0.5331 -0.5414
H11A H -0.1030 0.5349 -0.4290
C11A C -0.2491(7) 0.4404(6) -0.6191(7)
H12A H -0.1768 0.4321 -0.6020
H13A H -0.2941 0.3852 -0.6058
H14A H -0.2551 0.4435 -0.6878
C12A C -0.2823(7) 0.5343(6) -0.5595(6)
C13A C -0.3862(6) 0.5574(6) -0.5764(6)
C14A C -0.4427(7) 0.5109(7) -0.6611(6)
H15A H -0.4083 0.4686 -0.7083
C15A C -0.5456(8) 0.5243(8) -0.6779(7)
H16A H -0.5814 0.4909 -0.7351
C16A C -0.5973(8) 0.5886(8) -0.6086(7)
H17A H -0.6686 0.5981 -0.6183
C17A C -0.5424(6) 0.6375(7) -0.5262(6)
H18A H -0.5768 0.6813 -0.4803
C18A C -0.4378(6) 0.6241(6) -0.5090(6)
C19A C -0.3384(5) -0.0105(5) 0.0992(5)
C20A C -0.2670(5) -0.0809(5) 0.0897(6)
H19A H -0.2608 -0.1217 0.0288
C21A C -0.2061(7) -0.0924(6) 0.1653(7)
H20A H -0.1566 -0.1398 0.1570
C22A C -0.2159(8) -0.0358(7) 0.2537(7)
H21A H -0.1742 -0.0448 0.3072
C23A C -0.2862(7) 0.0344(7) 0.2655(6)
H22A H -0.2927 0.0729 0.3275
C24A C -0.3489(6) 0.0502(5) 0.1872(5)
C25A C -0.4266(6) 0.1247(5) 0.2020(5)
C26A C -0.4488(7) 0.1673(7) 0.3083(6)
H23A H -0.5009 0.2150 0.3099
H24A H -0.4752 0.1148 0.3410
H25A H -0.3845 0.1992 0.3413
C27A C -0.5468(6) 0.2273(6) 0.1374(6)
H26A H -0.6177 0.1945 0.1262
H27A H -0.5425 0.2673 0.2030
C28A C -0.5270(6) 0.2895(6) 0.0666(7)
H28A H -0.4646 0.3345 0.0868
H29A H -0.5869 0.3286 0.0616
C29A C -0.5227(6) 0.2576(7) -0.1111(8)
C30A C -0.5517(9) 0.3603(8) -0.1135(9)
H30A H -0.5620 0.3940 -0.0476
H31A H -0.4956 0.3957 -0.1421
H32A H -0.6160 0.3575 -0.1522
C31A C -0.5044(7) 0.1948(7) -0.2029(7)
C32A C -0.5422(9) 0.2225(9) -0.2920(9)
H33A H -0.5813 0.2776 -0.2896
C33A C -0.5205(10) 0.1680(10) -0.3785(9)
H34A H -0.5453 0.1867 -0.4358
C34A C -0.4657(11) 0.0889(11) -0.3869(9)
H35A H -0.4493 0.0546 -0.4485
C35A C -0.4341(8) 0.0593(9) -0.3039(7)
H36A H -0.3970 0.0027 -0.3086
C36A C -0.4555(7) 0.1105(7) -0.2124(7)
C37A C -0.1929(5) 0.5997(5) -0.2118(5)
C38A C -0.2295(5) 0.2601(5) 0.0109(5)
C39A C 0.1517(5) 0.3259(5) -0.2352(5)
C40A C -0.2363(11) 0.9002(10) -0.5050(9)
C42A C -0.1257(16) 0.9411(14) -0.4997(13)
N8 N 0.7533(12) 0.2155(12) 0.4969(11)
C41 C 0.7728(12) 0.2141(12) 0.5803(11)
C43 C 0.7949(14) 0.2072(13) 0.6789(11)
loop_
_geom_bond_atom_site_label_1
_geom_bond_atom_site_label_2
_geom_bond_site_symmetry_1
_geom_bond_site_symmetry_2
Nb1 Nb2 1_555 1_555
Nb2 Nb3 1_555 1_555
Nb3 Nb1 1_555 1_555
Cl1 Nb1 1_555 1_555
Cl2 Nb2 1_555 1_555
Cl3 Nb1 1_555 1_555
Cl4 Nb2 1_555 1_555
Cl5 Nb1 1_555 1_555
Cl6 Nb1 1_555 1_555
Mn1 O1 1_555 1_555
Mn2 O3 1_555 1_555
O1 C1 1_555 1_555
O2 Mn1 1_555 1_555
O3 C19 1_555 1_555
O4 Mn2 1_555 1_555
O5 Mn1 1_555 1_555
N1 Mn1 1_555 1_555
N2 Mn1 1_555 1_555
N3 Mn2 1_555 1_555
N4 Mn2 1_555 1_555
N5 Mn1 1_555 1_555
N6 Mn2 1_555 1_555
N7 C39 1_555 1_555
C1 C2 1_555 1_555
C2 H1 1_555 1_555
C3 C2 1_555 1_555
H2 C3 1_555 1_555
C4 C3 1_555 1_555
H3 C4 1_555 1_555
C5 C4 1_555 1_555
H4 C5 1_555 1_555
C6 C1 1_555 1_555
C7 N1 1_555 1_555
C8 C7 1_555 1_555
H5 C8 1_555 1_555
H6 C8 1_555 1_555
H7 C8 1_555 1_555
C9 N1 1_555 1_555
H8 C9 1_555 1_555
H9 C9 1_555 1_555
C10 N2 1_555 1_555
H10 C10 1_555 1_555
H11 C10 1_555 1_555
C11 H12 1_555 1_555
H13 C11 1_555 1_555
H14 C11 1_555 1_555
C12 N2 1_555 1_555
C13 C12 1_555 1_555
C14 C13 1_555 1_555
H15 C14 1_555 1_555
C15 C14 1_555 1_555
H16 C15 1_555 1_555
C16 C15 1_555 1_555
H17 C16 1_555 1_555
C17 C16 1_555 1_555
H18 C17 1_555 1_555
C18 O2 1_555 1_555
C19 C20 1_555 1_555
C20 H19 1_555 1_555
C21 C20 1_555 1_555
H20 C21 1_555 1_555
C22 C21 1_555 1_555
H21 C22 1_555 1_555
C23 C22 1_555 1_555
H22 C23 1_555 1_555
C24 C19 1_555 1_555
C25 N3 1_555 1_555
C26 C25 1_555 1_555
H23 C26 1_555 1_555
H24 C26 1_555 1_555
H25 C26 1_555 1_555
C27 N3 1_555 1_555
H26 C27 1_555 1_555
H27 C27 1_555 1_555
C28 N4 1_555 1_555
H28 C28 1_555 1_555
H29 C28 1_555 1_555
C29 N4 1_555 1_555
C30 C29 1_555 1_555
H30 C30 1_555 1_555
H31 C30 1_555 1_555
H32 C30 1_555 1_555
C31 C29 1_555 1_555
C32 C31 1_555 1_555
H33 C32 1_555 1_555
C33 C32 1_555 1_555
H34 C33 1_555 1_555
C34 C33 1_555 1_555
H35 C34 1_555 1_555
C35 C34 1_555 1_555
H36 C35 1_555 1_555
C36 O4 1_555 1_555
C37 Nb1 1_555 1_555
C38 Nb2 1_555 1_555
C39 Nb3 1_555 1_555
C40 O5 1_555 1_555
N8 C41 1_555 1_555
C41 C43 1_555 1_555
C42 C40 1_555 1_555
Nb1A Nb2 1_555 1_555
Nb2A Nb1 1_555 1_555
Nb3A Nb1 1_555 1_555
Cl1A Nb2 1_555 1_555
Cl2A Nb3 1_555 1_555
Cl3A Nb3 1_555 1_555
Cl4A Nb2A 1_555 1_555
Cl5A Nb1A 1_555 1_555
Cl6A Nb1A 1_555 1_555
Mn1A O1A 1_555 1_555
Mn2A O3 1_555 1_555
Mn2A_2 O3_2 1_555 1_555
Mn2_2 O3_2 1_555 1_555
O1A C1A 1_555 1_555
O2A Mn1A 1_555 1_555
O3A Mn2 1_555 1_555
O3A_2 Mn2A_2 1_555 1_555
O4A Mn2A_2 1_555 1_555
O5A Mn1A 1_555 1_555
N1A Mn1A 1_555 1_555
N2A Mn1A 1_555 1_555
N3A Mn2A_2 1_555 1_555
N4A Mn2A_2 1_555 1_555
N5A Mn1A 1_555 1_555
N6A Mn2A_2 1_555 1_555
N7A C39A 1_555 1_555
C1A C2A 1_555 1_555
C2A H1A 1_555 1_555
C3A C2A 1_555 1_555
H2A C3A 1_555 1_555
C4A C3A 1_555 1_555
H3A C4A 1_555 1_555
C5A C4A 1_555 1_555
H4A C5A 1_555 1_555
C6A C1A 1_555 1_555
C7A N1A 1_555 1_555
C8A C7A 1_555 1_555
H5A C8A 1_555 1_555
H6A C8A 1_555 1_555
H7A C8A 1_555 1_555
C9A N1A 1_555 1_555
H8A C9A 1_555 1_555
H9A C9A 1_555 1_555
C10A N2A 1_555 1_555
H10A C10A 1_555 1_555
H11A C10A 1_555 1_555
C11A H12A 1_555 1_555
H13A C11A 1_555 1_555
H14A C11A 1_555 1_555
C12A N2A 1_555 1_555
C13A C12A 1_555 1_555
C14A C13A 1_555 1_555
H15A C14A 1_555 1_555
C15A C14A 1_555 1_555
H16A C15A 1_555 1_555
C16A C15A 1_555 1_555
H17A C16A 1_555 1_555
C17A C16A 1_555 1_555
H18A C17A 1_555 1_555
C18A O2A 1_555 1_555
C19A O3A_2 1_555 1_555
C20A C19A 1_555 1_555
H19A C20A 1_555 1_555
C21A C20A 1_555 1_555
H20A C21A 1_555 1_555
C22A C21A 1_555 1_555
H21A C22A 1_555 1_555
C23A C22A 1_555 1_555
H22A C23A 1_555 1_555
C24A C19A 1_555 1_555
C25A N3A 1_555 1_555
C26A C25A 1_555 1_555
H23A C26A 1_555 1_555
H24A C26A 1_555 1_555
H25A C26A 1_555 1_555
C27A N3A 1_555 1_555
H26A C27A 1_555 1_555
H27A C27A 1_555 1_555
C28A N4A 1_555 1_555
H28A C28A 1_555 1_555
H29A C28A 1_555 1_555
C29A N4A 1_555 1_555
C30A C29A 1_555 1_555
H30A C30A 1_555 1_555
H31A C30A 1_555 1_555
H32A C30A 1_555 1_555
C31A C29A 1_555 1_555
C32A C31A 1_555 1_555
H33A C32A 1_555 1_555
C33A C32A 1_555 1_555
H34A C33A 1_555 1_555
C34A C33A 1_555 1_555
H35A C34A 1_555 1_555
C35A C34A 1_555 1_555
H36A C35A 1_555 1_555
C36A O4A 1_555 1_555
C37A Nb1A 1_555 1_555
C38A Nb2A 1_555 1_555
C39A Nb3A 1_555 1_555
C40A O5A 1_555 1_555
C42A C40A 1_555 1_555
Nb2 Cl6 1_555 1_555
Nb2 Nb3A 1_555 1_555
Nb3 Cl4 1_555 1_555
Nb3 Cl5 1_555 1_555
Nb3 Nb1A 1_555 1_555
Nb3 Nb2A 1_555 1_555
Cl1 Nb2A 1_555 1_555
Cl2 Nb3A 1_555 1_555
Cl3 Nb3A 1_555 1_555
N5 C37 1_555 1_555
N6 C38 1_555 1_555
C5 C6 1_555 1_555
C6 C7 1_555 1_555
C9 C10 1_555 1_555
C11 C12 1_555 1_555
C13 C18 1_555 1_555
C17 C18 1_555 1_555
C23 C24 1_555 1_555
C24 C25 1_555 1_555
C27 C28 1_555 1_555
C31 C36 1_555 1_555
C35 C36 1_555 1_555
Nb1A Nb2A 1_555 1_555
Nb1A Nb3A 1_555 1_555
Nb1A Cl1A 1_555 1_555
Nb1A Cl3A 1_555 1_555
Nb2A Nb3A 1_555 1_555
Nb2A Cl2A 1_555 1_555
Nb2A Cl6A 1_555 1_555
Nb3A Cl4A 1_555 1_555
Nb3A Cl5A 1_555 1_555
Mn2A O3A 1_555 1_555
Mn2_2 O3A_2 1_555 1_555
N5A C37A 1_555 1_555
N6A C38A 1_555 1_555
C5A C6A 1_555 1_555
C6A C7A 1_555 1_555
C9A C10A 1_555 1_555
C11A C12A 1_555 1_555
C13A C18A 1_555 1_555
C17A C18A 1_555 1_555
C23A C24A 1_555 1_555
C24A C25A 1_555 1_555
C27A C28A 1_555 1_555
C31A C36A 1_555 1_555
C35A C36A 1_555 1_555

#END
