
#######################################################################
#
#                 Cambridge Crystallographic Data Centre
#                                CCDC 
#
#######################################################################
#
# If this CIF has been generated from an entry in the Cambridge 
# Structural Database, then it will include bibliographic, chemical, 
# crystal, experimental, refinement or atomic coordinate data resulting 
# from the CCDC's data processing and validation procedures.
#
#######################################################################

data_KIHNIY
_symmetry_cell_setting           monoclinic
_symmetry_space_group_name_H-M   'C 2/c'
_symmetry_Int_Tables_number      15
_space_group_name_Hall           '-C 2yn'
loop_
_symmetry_equiv_pos_site_id
_symmetry_equiv_pos_as_xyz
1 x,y,z
2 1/2+x,1/2+y,z
3 -x,y,1/2-z
4 1/2-x,1/2+y,1/2-z
5 -x,-y,-z
6 1/2-x,1/2-y,-z
7 x,-y,1/2+z
8 1/2+x,1/2-y,1/2+z
_cell_length_a                   19.452(3)
_cell_length_b                   7.203(1)
_cell_length_c                   23.962(3)
_cell_angle_alpha                90
_cell_angle_beta                 110.60(2)
_cell_angle_gamma                90
_cell_volume                     3142.71
loop_
_atom_site_label
_atom_site_type_symbol
_atom_site_fract_x
_atom_site_fract_y
_atom_site_fract_z
Cd1 Cd 0.23605(1) 0.48946(3) 0.96572(1)
S1 S 0.28522(5) 0.19868(14) 0.92696(5)
S2 S 0.45093(5) 0.26563(14) 0.97962(5)
S3 S 0.35404(6) 0.65977(14) 1.02472(5)
S4 S 0.40120 0.52766 1.15236
N1 N 0.1256 0.3708 0.9619
N2 N 0.1888 0.7027 0.8887
C1 C 0.3686(2) 0.1919(4) 0.9855(2)
C2 C 0.4962(2) 0.2124(5) 1.0544(2)
C3 C 0.5695(2) 0.2366(6) 1.0905(2)
C4 C 0.5913(3) 0.1842(7) 1.1484(2)
C5 C 0.5417(2) 0.1060(6) 1.1722(2)
C6 C 0.4691(2) 0.0839(6) 1.1379(2)
C7 C 0.0543(2) 0.3611(5) 0.9220(2)
C8 C 0.3500(2) 0.6752(5) 1.0954(2)
C9 C 0.3680(2) 0.6415(6) 1.2014(2)
C10 C 0.3829(3) 0.6102(7) 1.2621(2)
C11 C 0.3479(3) 0.7173(8) 1.2909(2)
C12 C 0.2978(3) 0.8524(7) 1.2609(2)
C13 C 0.2839(2) 0.8888(6) 1.2013(2)
C14 C 0.1805(2) 0.7194(5) 0.8291(2)
H1 H 0.6041(2) 0.2886(2) 1.0745(2)
H2 H 0.6414(3) 0.2026(7) 1.1737(2)
H3 H 0.5590(2) 0.0661(6) 1.2131(2)
H4 H 0.4451(2) 0.0315(6) 1.1544(2)
H5 H 0.4172(3) 0.5158(7) 1.2829(2)
H6 H 0.3583(3) 0.6982(8) 1.3327(2)
H7 H 0.2723(3) 0.9215(7) 1.2818(2)
H8 H 0.2507(2) 0.9860(6) 1.1811(2)
S1E S 0.21478(5) 0.30132(14) 1.07304(5)
S3E S 0.14596(6) 0.84023(14) 0.97528(5)
Cd1E Cd 0.26395(1) 0.01054(3) 1.03428(1)
Cd1E_2 Cd 0.26395(1) 1.01054(3) 1.03428(1)
C1E C 0.1314(2) 0.3081(4) 1.0145(2)
C8E C 0.1500(2) 0.8248(5) 0.9046(2)
N1E N 0.3744 0.1292 1.0381
C7E C 0.4457(2) 0.1389(5) 1.0780(2)
C2E C 0.0038(2) 0.2876(5) 0.9456(2)
C6E C 0.0309(2) 0.4161(6) 0.8621(2)
N2E N 0.3112 0.7973 1.1113
C14E C 0.3195(2) 0.7806(5) 1.1709(2)
C9E C 0.1320(2) 0.8585(6) 0.7986(2)
C13E C 0.2161(2) 0.6112(6) 0.7987(2)
S3_2 S 0.35404(6) -0.34023(14) 1.02472(5)
S3E_2 S 0.14596(6) -0.15977(14) 0.97528(5)
N2E_2 N 0.3112 -0.2027 1.1113
S2E S 0.04907(5) 0.23437(14) 1.02038(5)
S4E S 0.09880 0.97234 0.84764
C3E C -0.0695(2) 0.2634(6) 0.9095(2)
C5E C -0.0417(2) 0.3940(6) 0.8278(2)
H4E H 0.0549(2) 0.4685(6) 0.8456(2)
C10E C 0.1171(3) 0.8898(7) 0.7379(2)
C12E C 0.2022(3) 0.6476(7) 0.7391(2)
H8E H 0.2493(2) 0.5140(6) 0.8189(2)
C4E C -0.0913(3) 0.3158(7) 0.8516(2)
H1E H -0.1041(2) 0.2114(2) 0.9255(2)
H3E H -0.0590(2) 0.4339(6) 0.7869(2)
C11E C 0.1521(3) 0.7827(8) 0.7091(2)
H5E H 0.0828(3) 0.9842(7) 0.7171(2)
H7E H 0.2277(3) 0.5785(7) 0.7182(2)
H2E H -0.1414(3) 0.2974(7) 0.8263(2)
H6E H 0.1417(3) 0.8018(8) 0.6673(2)
loop_
_geom_bond_atom_site_label_1
_geom_bond_atom_site_label_2
_geom_bond_site_symmetry_1
_geom_bond_site_symmetry_2
Cd1 S1 1_555 1_555
S1 C1 1_555 1_555
S2 C1 1_555 1_555
S3 Cd1 1_555 1_555
S4 C8 1_555 1_555
N1 Cd1 1_555 1_555
N2 Cd1 1_555 1_555
C1 N1E 1_555 1_555
C2 S2 1_555 1_555
C3 C2 1_555 1_555
C4 C3 1_555 1_555
C5 C4 1_555 1_555
C6 C5 1_555 1_555
C7 N1 1_555 1_555
C8 S3 1_555 1_555
C9 S4 1_555 1_555
C10 C9 1_555 1_555
C11 C10 1_555 1_555
C12 C11 1_555 1_555
C13 C12 1_555 1_555
C14 N2 1_555 1_555
H1 C3 1_555 1_555
H2 C4 1_555 1_555
H3 C5 1_555 1_555
H4 C6 1_555 1_555
H5 C10 1_555 1_555
H6 C11 1_555 1_555
H7 C12 1_555 1_555
H8 C13 1_555 1_555
S1E Cd1 1_555 1_555
S3E Cd1 1_555 1_555
Cd1E S1 1_555 1_555
Cd1E_2 S3 1_555 1_555
C1E N1 1_555 1_555
C8E N2 1_555 1_555
N1E Cd1E 1_555 1_555
C7E C2 1_555 1_555
C2E C7 1_555 1_555
C6E C7 1_555 1_555
N2E C8 1_555 1_555
C14E C9 1_555 1_555
C9E C14 1_555 1_555
C13E C14 1_555 1_555
S3_2 Cd1E 1_555 1_555
S3E_2 Cd1E 1_555 1_555
N2E_2 Cd1E 1_555 1_555
S2E C1E 1_555 1_555
S4E C8E 1_555 1_555
C3E C2E 1_555 1_555
C5E C6E 1_555 1_555
H4E C6E 1_555 1_555
C10E C9E 1_555 1_555
C12E C13E 1_555 1_555
H8E C13E 1_555 1_555
C4E C3E 1_555 1_555
H1E C3E 1_555 1_555
H3E C5E 1_555 1_555
C11E C10E 1_555 1_555
H5E C10E 1_555 1_555
H7E C12E 1_555 1_555
H2E C4E 1_555 1_555
H6E C11E 1_555 1_555
C6 C7E 1_555 1_555
C13 C14E 1_555 1_555
S1E Cd1E 1_555 1_555
S1E C1E 1_555 1_555
S3E Cd1E_2 1_555 1_555
S3E C8E 1_555 1_555
Cd1E_2 N2E 1_555 1_555
N1E C7E 1_555 1_555
C2E S2E 1_555 1_555
N2E C14E 1_555 1_555
C9E S4E 1_555 1_555
C5E C4E 1_555 1_555
C12E C11E 1_555 1_555

#END
