
#######################################################################
#
#                 Cambridge Crystallographic Data Centre
#                                CCDC 
#
#######################################################################
#
# If this CIF has been generated from an entry in the Cambridge 
# Structural Database, then it will include bibliographic, chemical, 
# crystal, experimental, refinement or atomic coordinate data resulting 
# from the CCDC's data processing and validation procedures.
#
#######################################################################

data_KIHTOL
_symmetry_cell_setting           monoclinic
_symmetry_space_group_name_H-M   'P 21/c'
_symmetry_Int_Tables_number      14
_space_group_name_Hall           '-P 2ybc'
loop_
_symmetry_equiv_pos_site_id
_symmetry_equiv_pos_as_xyz
1 x,y,z
2 -x,1/2+y,1/2-z
3 -x,-y,-z
4 x,1/2-y,1/2+z
_cell_length_a                   12.2203(4)
_cell_length_b                   16.7338(5)
_cell_length_c                   8.9529(2)
_cell_angle_alpha                90
_cell_angle_beta                 110.009(2)
_cell_angle_gamma                90
_cell_volume                     1720.29
loop_
_atom_site_label
_atom_site_type_symbol
_atom_site_fract_x
_atom_site_fract_y
_atom_site_fract_z
C1 C 0.8910(6) 0.2025(4) 0.0619(7)
C2 C 0.7964(7) 0.2000(4) -0.0979(8)
H1 H 0.7259 0.1778 -0.0881
H2 H 0.8201 0.1665 -0.1699
C3 C 0.6648(6) 0.2945(4) -0.2754(7)
C4 C 0.6168(6) 0.2425(4) -0.3981(8)
H3 H 0.6544 0.1950 -0.4048
C5 C 0.5100(6) 0.2622(4) -0.5135(8)
H4 H 0.4752 0.2271 -0.5967
C6 C 0.4559(6) 0.3334(4) -0.5046(8)
C7 C 0.5058(6) 0.3845(4) -0.3752(7)
H5 H 0.4690 0.4320 -0.3664
C8 C 0.6098(6) 0.3637(4) -0.2612(8)
H6 H 0.6430 0.3969 -0.1741
C9 C 0.3081(7) 0.4281(4) -0.6231(8)
H7 H 0.2903 0.4346 -0.5262
H8 H 0.3671 0.4671 -0.6218
C10 C 0.1981(6) 0.4441(4) -0.7664(7)
C11 C 1.1413(7) -0.0245(4) 0.3445(8)
C12 C 1.1930(8) 0.0181(5) 0.2354(9)
H9 H 1.1372 0.0166 0.1280
H10 H 1.2056 0.0737 0.2673
C13 C 1.3978(7) -0.0062(4) 0.3704(9)
C14 C 1.4038(8) 0.0442(5) 0.4968(10)
H11 H 1.3392 0.0740 0.4953
C15 C 1.4936(8) -0.0494(4) 0.3757(9)
H12 H 1.4898 -0.0831 0.2915
Nd1 Nd 0.95227(3) 0.116972(19) 0.43633(4)
O1 O 0.9018(4) 0.1430(2) 0.1506(5)
O2 O 0.9548(5) 0.2636(3) 0.0973(5)
O3 O 0.7751(4) 0.2801(2) -0.1592(5)
O4 O 0.3527(4) 0.3506(3) -0.6263(5)
O5 O 0.1341(4) 0.3867(3) -0.8342(5)
O6 O 0.1840(4) 0.5162(3) -0.7989(5)
O7 O 1.0581(4) 0.0088(3) 0.3721(5)
O8 O 1.1775(5) -0.0915(3) 0.4000(5)
O9 O 1.2982(5) -0.0145(3) 0.2349(6)
O10 O 1.0956(5) 0.2106(3) 0.3874(6)
H13 H 1.1428 0.2416 0.4506
H14 H 1.0673 0.2404 0.3173
C1C C 0.8910(6) 0.2975(4) 0.5619(7)
C2C C 0.7964(7) 0.3000(4) 0.4021(8)
H1C H 0.7259 0.3222 0.4119
H2C H 0.8201 0.3335 0.3301
C3C C 0.6648(6) 0.2055(4) 0.2246(7)
C4C C 0.6168(6) 0.2575(4) 0.1019(8)
H3C H 0.6544 0.3050 0.0952
C5C C 0.5100(6) 0.2378(4) -0.0135(8)
H4C H 0.4752 0.2729 -0.0967
C6C C 0.4559(6) 0.1666(4) -0.0046(8)
C7C C 0.5058(6) 0.1155(4) 0.1248(7)
H5C H 0.4690 0.0680 0.1336
C8C C 0.6098(6) 0.1363(4) 0.2388(8)
H6C H 0.6430 0.1031 0.3259
C9C C 0.3081(7) 0.0719(4) -0.1231(8)
H7C H 0.2903 0.0654 -0.0262
H8C H 0.3671 0.0329 -0.1218
C10C C 0.1981(6) 0.0559(4) -0.2664(7)
C11B C 1.8587(7) 0.0245(4) 0.6555(8)
C12B C 1.8070(8) -0.0181(5) 0.7646(9)
H9B H 1.8628 -0.0166 0.8720
H10B H 1.7944 -0.0737 0.7327
C13B C 1.6022(7) 0.0062(4) 0.6296(9)
C14B C 1.5962(8) -0.0442(5) 0.5032(10)
H11B H 1.6608 -0.0740 0.5047
C15B C 1.5064(8) 0.0494(4) 0.6243(9)
H12B H 1.5102 0.0831 0.7085
Nd1C Nd 0.95227(3) 0.383028(19) 0.93633(4)
Nd1C_2 Nd 0.95227(3) 0.383028(19) -0.06367(4)
Nd1C_3 Nd -0.04773(3) 0.383028(19) -1.06367(4)
Nd1A Nd 0.04773(3) 0.616972(19) -0.93633(4)
Nd1B Nd 1.04773(3) -0.116972(19) 0.56367(4)
Nd1_2 Nd 1.95227(3) 0.116972(19) 0.43633(4)
Nd1B_2 Nd 2.04773(3) -0.116972(19) 0.56367(4)
Nd1_3 Nd -0.04773(3) 0.116972(19) -0.56367(4)
Nd1B_3 Nd 0.04773(3) -0.116972(19) -0.43633(4)
O1C O 0.9018(4) 0.3570(2) 0.6506(5)
O2C O 0.9548(5) 0.2364(3) 0.5973(5)
O2_2 O 0.9548(5) 0.2636(3) 1.0973(5)
O3C O 0.7751(4) 0.2199(2) 0.3408(5)
O3_2 O 0.7751(4) 0.2801(2) 0.8408(5)
O4C O 0.3527(4) 0.1494(3) -0.1263(5)
O5C O 0.1341(4) 0.1133(3) -0.3342(5)
O5C_2 O 1.1341(4) 0.1133(3) 0.6658(5)
O5_2 O 1.1341(4) 0.3867(3) 1.1658(5)
O6C O 0.1840(4) -0.0162(3) -0.2989(5)
O6A O 0.8160(4) 0.0162(3) 0.2989(5)
O6B O 0.8160(4) 0.4838(3) 0.7989(5)
O7B O 1.9419(4) -0.0088(3) 0.6279(5)
O7B_2 O 0.9419(4) -0.0088(3) 0.6279(5)
O7C O 1.0581(4) 0.4912(3) 0.8721(5)
O7A O 0.9419(4) 0.5088(3) 1.1279(5)
O8B O 1.8225(5) 0.0915(3) 0.6000(5)
O8B_2 O 0.8225(5) 0.0915(3) 0.6000(5)
O8A O 0.8225(5) 0.4085(3) 1.1000(5)
O9B O 1.7018(5) 0.0145(3) 0.7651(6)
O10C O 1.0956(5) 0.2894(3) 0.8874(6)
H13C H 1.1428 0.2584 0.9506
H14C H 1.0673 0.2596 0.8173
O11 O 0.2481(9) 0.2765(5) 0.6431(12)
H15 H 0.1964 0.2676 0.5492
H16 H 0.2450 0.3281 0.6608
loop_
_geom_bond_atom_site_label_1
_geom_bond_atom_site_label_2
_geom_bond_site_symmetry_1
_geom_bond_site_symmetry_2
C1 C2 1_555 1_555
C2 H1 1_555 1_555
H2 C2 1_555 1_555
C3 C4 1_555 1_555
C4 H3 1_555 1_555
C5 C4 1_555 1_555
H4 C5 1_555 1_555
C6 C5 1_555 1_555
C7 C6 1_555 1_555
H5 C7 1_555 1_555
C8 C3 1_555 1_555
H6 C8 1_555 1_555
C9 H7 1_555 1_555
H8 C9 1_555 1_555
C10 C9 1_555 1_555
C11 C12 1_555 1_555
C12 H9 1_555 1_555
H10 C12 1_555 1_555
C13 C14 1_555 1_555
C14 H11 1_555 1_555
C15 C13 1_555 1_555
H12 C15 1_555 1_555
Nd1 O1 1_555 1_555
O1 C1 1_555 1_555
O2 C1 1_555 1_555
O3 C2 1_555 1_555
O4 C6 1_555 1_555
O5 C10 1_555 1_555
O6 C10 1_555 1_555
O7 C11 1_555 1_555
O8 C11 1_555 1_555
O9 C12 1_555 1_555
O10 Nd1 1_555 1_555
H13 O10 1_555 1_555
H14 O10 1_555 1_555
O11 H15 1_555 1_555
H16 O11 1_555 1_555
C1C C2C 1_555 1_555
C2C H1C 1_555 1_555
H2C C2C 1_555 1_555
C3C C4C 1_555 1_555
C4C H3C 1_555 1_555
C5C C4C 1_555 1_555
H4C C5C 1_555 1_555
C6C C5C 1_555 1_555
C7C C6C 1_555 1_555
H5C C7C 1_555 1_555
C8C C3C 1_555 1_555
H6C C8C 1_555 1_555
C9C H7C 1_555 1_555
H8C C9C 1_555 1_555
C10C C9C 1_555 1_555
C11B C12B 1_555 1_555
C12B H9B 1_555 1_555
H10B C12B 1_555 1_555
C13B C14B 1_555 1_555
C14B C15 1_555 1_555
H11B C14B 1_555 1_555
C15B C14 1_555 1_555
H12B C15B 1_555 1_555
Nd1C O1C 1_555 1_555
Nd1C_2 O2 1_555 1_555
Nd1C_3 O5 1_555 1_555
Nd1A O6 1_555 1_555
Nd1B O7 1_555 1_555
Nd1_2 O7B 1_555 1_555
Nd1B_2 O7B 1_555 1_555
Nd1_3 O5C 1_555 1_555
Nd1B_3 O6C 1_555 1_555
O1C C1C 1_555 1_555
O2C Nd1 1_555 1_555
O2_2 Nd1C 1_555 1_555
O3C Nd1 1_555 1_555
O3_2 Nd1C 1_555 1_555
O4C C6C 1_555 1_555
O5C C10C 1_555 1_555
O5C_2 Nd1 1_555 1_555
O5_2 Nd1C 1_555 1_555
O6C C10C 1_555 1_555
O6A Nd1 1_555 1_555
O6B Nd1C 1_555 1_555
O7B C11B 1_555 1_555
O7B_2 Nd1 1_555 1_555
O7C Nd1C 1_555 1_555
O7A Nd1C 1_555 1_555
O8B C11B 1_555 1_555
O8B_2 Nd1 1_555 1_555
O8A Nd1C 1_555 1_555
O9B C12B 1_555 1_555
O10C Nd1C 1_555 1_555
H13C O10C 1_555 1_555
H14C O10C 1_555 1_555
C3 O3 1_555 1_555
C7 C8 1_555 1_555
C9 O4 1_555 1_555
C13 O9 1_555 1_555
Nd1 O7 1_555 1_555
O3 Nd1C_2 1_555 1_555
O8 Nd1B 1_555 1_555
C1C O2C 1_555 1_555
C2C O3C 1_555 1_555
C3C O3C 1_555 1_555
C7C C8C 1_555 1_555
C9C O4C 1_555 1_555
C13B C15B 1_555 1_555
C13B O9B 1_555 1_555
Nd1B O7B_2 1_555 1_555
Nd1_2 O8B 1_555 1_555

#END
