
#######################################################################
#
#                 Cambridge Crystallographic Data Centre
#                                CCDC 
#
#######################################################################
#
# If this CIF has been generated from an entry in the Cambridge 
# Structural Database, then it will include bibliographic, chemical, 
# crystal, experimental, refinement or atomic coordinate data resulting 
# from the CCDC's data processing and validation procedures.
#
#######################################################################

data_KIHTOL01
_symmetry_cell_setting           monoclinic
_symmetry_space_group_name_H-M   'P 21/c'
_symmetry_Int_Tables_number      14
_space_group_name_Hall           '-P 2ybc'
loop_
_symmetry_equiv_pos_site_id
_symmetry_equiv_pos_as_xyz
1 x,y,z
2 -x,1/2+y,1/2-z
3 -x,-y,-z
4 x,1/2-y,1/2+z
_cell_length_a                   12.1306(4)
_cell_length_b                   16.6998(6)
_cell_length_c                   8.9406(3)
_cell_angle_alpha                90
_cell_angle_beta                 109.2810(10)
_cell_angle_gamma                90
_cell_volume                     1709.59
loop_
_atom_site_label
_atom_site_type_symbol
_atom_site_fract_x
_atom_site_fract_y
_atom_site_fract_z
Nd1 Nd 0.951958(10) 0.883147(7) 0.933031(14)
O1 O 0.95463(16) 0.76300(11) 1.0935(2)
O2 O 0.77358(14) 0.78024(10) 0.8408(2)
O3 O 0.94240(15) 1.00776(11) 1.1299(2)
O4 O 0.81936(17) 0.90815(11) 1.0976(2)
O5 O 1.09622(19) 0.79066(14) 0.8796(2)
O6 O 0.81697(14) 0.98544(10) 0.8002(2)
O7 O 0.90028(16) 0.85781(11) 0.6469(2)
O8 O 1.13559(16) 0.88470(10) 1.1605(2)
C1 C 0.8903(2) 0.70218(15) 1.0601(3)
C2 C 0.7947(2) 0.69991(15) 0.9011(3)
C3 C 0.6646(2) 0.79398(15) 0.7252(3)
H1 H 1.0636 0.7552 0.8112
H2 H 1.1473 0.7652 0.9525
C4 C 1.1431(2) 1.02600(16) 0.8439(3)
H3 H 0.8182 0.6664 0.8283
H4 H 0.7240 0.6777 0.9125
C5 C 0.6152(2) 0.74058(16) 0.6037(3)
C6 C 0.6096(2) 0.86448(15) 0.7362(3)
C7 C 1.1944(3) 0.9847(2) 0.7313(4)
C8 C 0.5091(2) 0.76010(16) 0.4892(3)
H5 H 0.6521 0.6924 0.5983
H6 H 0.6429 0.8990 0.8206
C9 C 0.5042(2) 0.88429(15) 0.6213(3)
H7 H 1.2048 0.9283 0.7585
H8 H 1.1394 0.9887 0.6245
O9 O 1.30312(17) 1.01701(14) 0.7338(2)
H9 H 0.4746 0.7245 0.4071
C10 C 0.4546(2) 0.83212(15) 0.4968(3)
H10 H 0.4671 0.9323 0.6281
C11 C 1.3981(3) 1.00691(18) 0.8700(4)
O10 O 0.35105(15) 0.84774(11) 0.3752(2)
C12 C 1.4969(3) 1.05079(18) 0.8777(4)
C13 C 1.4017(3) 0.95601(18) 0.9946(4)
C14 C 0.3040(2) 0.92560(16) 0.3761(3)
H11 H 1.4948 1.0854 0.7954
H12 H 1.3360 0.9266 0.9918
H13 H 0.3637 0.9650 0.3805
H14 H 0.2824 0.9317 0.4706
C15 C 0.1980(2) 0.94172(15) 0.2316(3)
O3B O 1.05760(15) 0.99224(11) 0.8701(2)
Nd1B Nd 1.048042(10) 1.116853(7) 1.066969(14)
C1C C 0.8903(2) 0.79782(15) 0.5601(3)
O7C O 0.90028(16) 0.64219(11) 1.1469(2)
O4B O 1.18064(17) 1.09185(11) 0.9024(2)
O1C O 0.95463(16) 0.73700(11) 0.5935(2)
C2C C 0.7947(2) 0.80009(15) 0.4011(3)
Nd1C Nd 0.951958(10) 0.616853(7) 1.433031(14)
Nd1C_2 Nd 0.951958(10) 0.616853(7) 0.433031(14)
O2C O 0.77358(14) 0.71976(10) 0.3408(2)
H3C H 0.8182 0.8336 0.3283
H4C H 0.7240 0.8223 0.4125
O2C_2 O 0.77358(14) 0.71976(10) 1.3408(2)
O3C O 0.94240(15) 0.49224(11) 1.6299(2)
O4C O 0.81936(17) 0.59185(11) 1.5976(2)
O5C O 1.09622(19) 0.70934(14) 1.3796(2)
O6C O 0.81697(14) 0.51456(10) 1.3002(2)
O8C O 1.13559(16) 0.61530(10) 1.6605(2)
O3A O 1.05760(15) 0.50776(11) 1.3701(2)
O1C_2 O 0.95463(16) 0.73700(11) 1.5935(2)
C3C C 0.6646(2) 0.70602(15) 0.2252(3)
H2C H 1.1473 0.7348 1.4525
H1C H 1.0636 0.7448 1.3112
C5C C 0.6152(2) 0.75942(16) 0.1037(3)
C6C C 0.6096(2) 0.63552(15) 0.2362(3)
C8C C 0.5091(2) 0.73990(16) -0.0108(3)
H5C H 0.6521 0.8076 0.0983
C9C C 0.5042(2) 0.61571(15) 0.1213(3)
H6C H 0.6429 0.6010 0.3206
C13B C 1.5983(3) 1.04399(18) 1.0054(4)
C12B C 1.5031(3) 0.94921(18) 1.1223(4)
C10C C 0.4546(2) 0.66788(15) -0.0032(3)
H9C H 0.4746 0.7755 -0.0929
H10C H 0.4671 0.5677 0.1281
C11B C 1.6019(3) 0.99309(18) 1.1300(4)
H12B H 1.6640 1.0734 1.0082
H11B H 1.5052 0.9146 1.2046
O8_2 O 0.13559(16) 0.88470(10) 0.1605(2)
O6B O 0.18303(14) 1.01456(10) 0.1998(2)
O10C O 0.35105(15) 0.65226(11) -0.1248(2)
O9B O 1.69688(17) 0.98299(14) 1.2662(2)
Nd1_2 Nd -0.048042(10) 0.883147(7) -0.066969(14)
Nd1B_2 Nd 0.048042(10) 1.116853(7) 0.066969(14)
C14C C 0.3040(2) 0.57440(16) -0.1239(3)
C7B C 1.8056(3) 1.0153(2) 1.2687(4)
C15C C 0.1980(2) 0.55828(15) -0.2684(3)
H14C H 0.2824 0.5683 -0.0294
H13C H 0.3637 0.5350 -0.1195
C4B C 1.8569(2) 0.97400(16) 1.1561(3)
H8B H 1.8606 1.0113 1.3755
H7B H 1.7952 1.0717 1.2415
O8C_2 O 0.13559(16) 0.61530(10) -0.3395(2)
O6A O 0.18303(14) 0.48544(10) -0.3002(2)
O3_2 O 1.94240(15) 1.00776(11) 1.1299(2)
O4_2 O 1.81936(17) 0.90815(11) 1.0976(2)
Nd1C_3 Nd -0.048042(10) 0.616853(7) -0.566969(14)
Nd1A Nd 0.048042(10) 0.383147(7) -0.433031(14)
Nd1_3 Nd 1.951958(10) 0.883147(7) 0.933031(14)
Nd1B_3 Nd 2.048042(10) 1.116853(7) 1.066969(14)
O11 O 0.7532(2) 0.28192(16) 0.8569(3)
H15 H 0.6817 0.2727 0.8439
H16 H 0.7611 0.2692 0.7689
loop_
_geom_bond_atom_site_label_1
_geom_bond_atom_site_label_2
_geom_bond_site_symmetry_1
_geom_bond_site_symmetry_2
Nd1 O1 1_555 1_555
O1 C1 1_555 1_555
O2 Nd1 1_555 1_555
O3 Nd1 1_555 1_555
O4 Nd1 1_555 1_555
O5 Nd1 1_555 1_555
O6 Nd1 1_555 1_555
O7 Nd1 1_555 1_555
O8 Nd1 1_555 1_555
C1 C2 1_555 1_555
C2 O2 1_555 1_555
C3 O2 1_555 1_555
H1 O5 1_555 1_555
H2 O5 1_555 1_555
C4 C7 1_555 1_555
H3 C2 1_555 1_555
H4 C2 1_555 1_555
C5 C3 1_555 1_555
C6 C3 1_555 1_555
C7 H7 1_555 1_555
C8 C5 1_555 1_555
H5 C5 1_555 1_555
H6 C6 1_555 1_555
C9 C6 1_555 1_555
H8 C7 1_555 1_555
O9 C7 1_555 1_555
H9 C8 1_555 1_555
C10 C8 1_555 1_555
H10 C9 1_555 1_555
C11 O9 1_555 1_555
O10 C10 1_555 1_555
C12 C11 1_555 1_555
C13 C11 1_555 1_555
C14 O10 1_555 1_555
H11 C12 1_555 1_555
H12 C13 1_555 1_555
H13 C14 1_555 1_555
H14 C14 1_555 1_555
C15 C14 1_555 1_555
O11 H15 1_555 1_555
H16 O11 1_555 1_555
O3B Nd1 1_555 1_555
Nd1B O3 1_555 1_555
C1C O7 1_555 1_555
O7C C1 1_555 1_555
O4B C4 1_555 1_555
O1C C1C 1_555 1_555
C2C C1C 1_555 1_555
Nd1C O7C 1_555 1_555
Nd1C_2 O1C 1_555 1_555
O2C C2C 1_555 1_555
H3C C2C 1_555 1_555
H4C C2C 1_555 1_555
O2C_2 Nd1C 1_555 1_555
O3C Nd1C 1_555 1_555
O4C Nd1C 1_555 1_555
O5C Nd1C 1_555 1_555
O6C Nd1C 1_555 1_555
O8C Nd1C 1_555 1_555
O3A Nd1C 1_555 1_555
O1C_2 Nd1C 1_555 1_555
C3C O2C 1_555 1_555
H2C O5C 1_555 1_555
H1C O5C 1_555 1_555
C5C C3C 1_555 1_555
C6C C3C 1_555 1_555
C8C C5C 1_555 1_555
H5C C5C 1_555 1_555
C9C C6C 1_555 1_555
H6C C6C 1_555 1_555
C13B C12 1_555 1_555
C12B C13 1_555 1_555
C10C C8C 1_555 1_555
H9C C8C 1_555 1_555
H10C C9C 1_555 1_555
C11B C13B 1_555 1_555
H12B C13B 1_555 1_555
H11B C12B 1_555 1_555
O8_2 C15 1_555 1_555
O6B C15 1_555 1_555
O10C C10C 1_555 1_555
O9B C11B 1_555 1_555
Nd1_2 O8_2 1_555 1_555
Nd1B_2 O6B 1_555 1_555
C14C O10C 1_555 1_555
C7B O9B 1_555 1_555
C15C C14C 1_555 1_555
H14C C14C 1_555 1_555
H13C C14C 1_555 1_555
C4B C7B 1_555 1_555
H8B C7B 1_555 1_555
H7B C7B 1_555 1_555
O8C_2 C15C 1_555 1_555
O6A C15C 1_555 1_555
O3_2 C4B 1_555 1_555
O4_2 C4B 1_555 1_555
Nd1C_3 O8C_2 1_555 1_555
Nd1A O6A 1_555 1_555
Nd1_3 O3_2 1_555 1_555
Nd1B_3 O3_2 1_555 1_555
C4 O3B 1_555 1_555
C9 C10 1_555 1_555
O3B Nd1B 1_555 1_555
Nd1B O4B 1_555 1_555
Nd1C_2 O2C 1_555 1_555
C9C C10C 1_555 1_555
C12B C11B 1_555 1_555
O4_2 Nd1_3 1_555 1_555

#END
