
#######################################################################
#
#                 Cambridge Crystallographic Data Centre
#                                CCDC 
#
#######################################################################
#
# If this CIF has been generated from an entry in the Cambridge 
# Structural Database, then it will include bibliographic, chemical, 
# crystal, experimental, refinement or atomic coordinate data resulting 
# from the CCDC's data processing and validation procedures.
#
#######################################################################

data_KIHTUR
_symmetry_cell_setting           triclinic
_symmetry_space_group_name_H-M   'P -1'
_symmetry_Int_Tables_number      2
_space_group_name_Hall           '-P 1'
loop_
_symmetry_equiv_pos_site_id
_symmetry_equiv_pos_as_xyz
1 x,y,z
2 -x,-y,-z
_cell_length_a                   6.04930(10)
_cell_length_b                   10.6263(2)
_cell_length_c                   13.4836(2)
_cell_angle_alpha                111.9010(10)
_cell_angle_beta                 96.7510(10)
_cell_angle_gamma                97.7110(10)
_cell_volume                     783.571
loop_
_atom_site_label
_atom_site_type_symbol
_atom_site_fract_x
_atom_site_fract_y
_atom_site_fract_z
C1 C 0.5765(11) 1.0954(7) 0.2892(5)
C2 C 0.4720(10) 1.0610(8) 0.3743(5)
H1 H 0.5156 0.9782 0.3782
H2 H 0.5236 1.1363 0.4451
C3 C 0.1261(11) 1.1282(7) 0.5206(5)
H3 H 0.2097 1.2147 0.5337
C4 C 0.1145(10) 1.0190(6) 0.4246(5)
C5 C -0.0114(11) 0.8917(7) 0.4016(5)
H4 H -0.0201 0.8195 0.3349
C6 C 0.8699(10) 0.8205(7) 0.0185(6)
C7 C 0.8191(13) 0.6652(7) -0.0165(6)
H5 H 0.6614 0.6308 -0.0521
H6 H 0.9115 0.6250 -0.0698
C8 C 0.6984(12) 0.6246(7) 0.1334(6)
C9 C 0.7272(12) 0.5551(7) 0.2027(6)
H7 H 0.8452 0.5069 0.2001
C10 C 0.5825(12) 0.5574(7) 0.2746(6)
H8 H 0.6036 0.5117 0.3208
C11 C 0.4050(12) 0.6283(7) 0.2779(6)
C12 C 0.3727(12) 0.6946(7) 0.2086(6)
H9 H 0.2531 0.7415 0.2106
C13 C 0.5173(12) 0.6916(7) 0.1359(6)
H10 H 0.4924 0.7351 0.0883
C14 C 0.2593(13) 0.5591(8) 0.4113(6)
H11 H 0.1583 0.5861 0.4631
H12 H 0.4113 0.5777 0.4523
C15 C 0.1889(12) 0.4040(8) 0.3434(6)
O1 O 0.7877(7) 1.1128(5) 0.3001(4)
O2 O 0.4484(7) 1.1069(6) 0.2152(4)
O3 O 0.2283(7) 1.0395(4) 0.3438(3)
O4 O 0.9657(8) 0.8983(5) 0.1141(4)
O5 O 0.8061(7) 0.8630(5) -0.0548(3)
O6 O 0.8578(8) 0.6186(5) 0.0683(4)
O7 O 0.2561(8) 0.6415(5) 0.3503(4)
O8 O 0.0724(9) 0.3635(5) 0.2519(4)
O9 O 0.2502(10) 0.3225(5) 0.3818(4)
O10 O 0.7546(7) 1.1275(5) 0.0875(4)
Yb1 Yb 1.07594(5) 1.13060(3) 0.20939(2)
H13 H 0.642(7) 1.127(6) 0.114(4)
H14 H 0.734(9) 1.056(4) 0.035(4)
C1A C -0.5765(11) 0.9046(7) 0.7108(5)
C2A C -0.4720(10) 0.9390(8) 0.6257(5)
H1A H -0.5156 1.0218 0.6218
H2A H -0.5236 0.8637 0.5549
C3A C -0.1261(11) 0.8718(7) 0.4794(5)
H3A H -0.2097 0.7853 0.4663
C4A C -0.1145(10) 0.9810(6) 0.5754(5)
C5A C 0.0114(11) 1.1083(7) 0.5984(5)
H4A H 0.0201 1.1805 0.6651
C6A C 1.1301(10) 1.1795(7) -0.0185(6)
C7A C 1.1809(13) 1.3348(7) 0.0165(6)
H5A H 1.3386 1.3692 0.0521
H6A H 1.0885 1.3750 0.0698
C8A C 1.3016(12) 1.3754(7) -0.1334(6)
C9A C 1.2728(12) 1.4449(7) -0.2027(6)
H7A H 1.1548 1.4931 -0.2001
C10A C 1.4175(12) 1.4426(7) -0.2746(6)
H8A H 1.3964 1.4883 -0.3208
C11A C 1.5950(12) 1.3717(7) -0.2779(6)
C12A C 1.6273(12) 1.3054(7) -0.2086(6)
H9A H 1.7469 1.2585 -0.2106
C13A C 1.4827(12) 1.3084(7) -0.1359(6)
H10A H 1.5076 1.2649 -0.0883
C14A C 1.7407(13) 1.4409(8) -0.4113(6)
H11A H 1.8417 1.4139 -0.4631
H12A H 1.5887 1.4223 -0.4523
C15A C 1.8111(12) 1.5960(8) -0.3434(6)
O1A O -0.7877(7) 0.8872(5) 0.6999(4)
O2A O -0.4484(7) 0.8931(6) 0.7848(4)
O2_2 O 1.4484(7) 1.1069(6) 0.2152(4)
O2A_2 O -1.4484(7) 0.8931(6) 0.7848(4)
O3A O -0.2283(7) 0.9605(4) 0.6562(3)
O3_2 O 1.2283(7) 1.0395(4) 0.3438(3)
O3A_2 O -1.2283(7) 0.9605(4) 0.6562(3)
O4A O 1.0343(8) 1.1017(5) -0.1141(4)
O4A_2 O -0.9657(8) 1.1017(5) 0.8859(4)
O5A O 1.1939(7) 1.1370(5) 0.0548(3)
O5_2 O -1.1939(7) 0.8630(5) 0.9452(3)
O6A O 1.1422(8) 1.3814(5) -0.0683(4)
O7A O 1.7439(8) 1.3585(5) -0.3503(4)
O8A O 1.9276(9) 1.6365(5) -0.2519(4)
O8_2 O 1.0724(9) 1.3635(5) 0.2519(4)
O8A_2 O -1.0724(9) 0.6365(5) 0.7481(4)
O9A O 1.7498(10) 1.6775(5) -0.3818(4)
O9_2 O 1.2502(10) 1.3225(5) 0.3818(4)
O9A_2 O -1.2502(10) 0.6775(5) 0.6182(4)
O10A O -0.7546(7) 0.8725(5) 0.9125(4)
Yb1A Yb -1.07594(5) 0.86940(3) 0.79061(2)
Yb1_2 Yb 0.07594(5) 1.13060(3) 0.20939(2)
Yb1A_2 Yb 0.92406(5) 0.86940(3) -0.20939(2)
Yb1_3 Yb 0.07594(5) 0.13060(3) 0.20939(2)
Yb1A_3 Yb -0.07594(5) 0.86940(3) 0.79061(2)
Yb1A_4 Yb 1.92406(5) 1.86940(3) -0.20939(2)
H13A H -0.642(7) 0.873(6) 0.886(4)
H14A H -0.734(9) 0.944(4) 0.965(4)
loop_
_geom_bond_atom_site_label_1
_geom_bond_atom_site_label_2
_geom_bond_site_symmetry_1
_geom_bond_site_symmetry_2
C1 C2 1_555 1_555
C2 H1 1_555 1_555
H2 C2 1_555 1_555
C3 H3 1_555 1_555
C4 C3 1_555 1_555
C5 C4 1_555 1_555
H4 C5 1_555 1_555
C6 C7 1_555 1_555
C7 H5 1_555 1_555
H6 C7 1_555 1_555
C8 C9 1_555 1_555
C9 H7 1_555 1_555
C10 C9 1_555 1_555
H8 C10 1_555 1_555
C11 C10 1_555 1_555
C12 C11 1_555 1_555
H9 C12 1_555 1_555
C13 C8 1_555 1_555
H10 C13 1_555 1_555
C14 H11 1_555 1_555
H12 C14 1_555 1_555
C15 C14 1_555 1_555
O1 C1 1_555 1_555
O2 C1 1_555 1_555
O3 C2 1_555 1_555
O4 C6 1_555 1_555
O5 C6 1_555 1_555
O6 C7 1_555 1_555
O7 C11 1_555 1_555
O8 C15 1_555 1_555
O9 C15 1_555 1_555
O10 Yb1 1_555 1_555
Yb1 O1 1_555 1_555
H13 O10 1_555 1_555
H14 O10 1_555 1_555
C1A C2A 1_555 1_555
C2A H1A 1_555 1_555
H2A C2A 1_555 1_555
C3A C5 1_555 1_555
H3A C3A 1_555 1_555
C4A C3A 1_555 1_555
C5A C3 1_555 1_555
H4A C5A 1_555 1_555
C6A C7A 1_555 1_555
C7A H5A 1_555 1_555
H6A C7A 1_555 1_555
C8A C9A 1_555 1_555
C9A H7A 1_555 1_555
C10A C9A 1_555 1_555
H8A C10A 1_555 1_555
C11A C10A 1_555 1_555
C12A C11A 1_555 1_555
H9A C12A 1_555 1_555
C13A C8A 1_555 1_555
H10A C13A 1_555 1_555
C14A H11A 1_555 1_555
H12A C14A 1_555 1_555
C15A C14A 1_555 1_555
O1A C1A 1_555 1_555
O2A C1A 1_555 1_555
O2_2 Yb1 1_555 1_555
O2A_2 Yb1A 1_555 1_555
O3A C2A 1_555 1_555
O3_2 Yb1 1_555 1_555
O3A_2 Yb1A 1_555 1_555
O4A C6A 1_555 1_555
O4A_2 Yb1A 1_555 1_555
O5A Yb1 1_555 1_555
O5_2 Yb1A 1_555 1_555
O6A C7A 1_555 1_555
O7A C11A 1_555 1_555
O8A C15A 1_555 1_555
O8_2 Yb1 1_555 1_555
O8A_2 Yb1A 1_555 1_555
O9A C15A 1_555 1_555
O9_2 Yb1 1_555 1_555
O9A_2 Yb1A 1_555 1_555
O10A Yb1A 1_555 1_555
Yb1A O1A 1_555 1_555
Yb1_2 O2 1_555 1_555
Yb1A_2 O5 1_555 1_555
Yb1_3 O8 1_555 1_555
Yb1A_3 O2A 1_555 1_555
Yb1A_4 O8A 1_555 1_555
H13A O10A 1_555 1_555
H14A O10A 1_555 1_555
C4 O3 1_555 1_555
C8 O6 1_555 1_555
C12 C13 1_555 1_555
C14 O7 1_555 1_555
O3 Yb1_2 1_555 1_555
O4 Yb1 1_555 1_555
O9 Yb1_3 1_555 1_555
C4A C5A 1_555 1_555
C4A O3A 1_555 1_555
C6A O5A 1_555 1_555
C8A O6A 1_555 1_555
C12A C13A 1_555 1_555
C14A O7A 1_555 1_555
O3A Yb1A_3 1_555 1_555
O4A Yb1A_2 1_555 1_555
O9A Yb1A_4 1_555 1_555

#END
