
#######################################################################
#
#                 Cambridge Crystallographic Data Centre
#                                CCDC 
#
#######################################################################
#
# If this CIF has been generated from an entry in the Cambridge 
# Structural Database, then it will include bibliographic, chemical, 
# crystal, experimental, refinement or atomic coordinate data resulting 
# from the CCDC's data processing and validation procedures.
#
#######################################################################

data_KIJHUI
_symmetry_cell_setting           monoclinic
_symmetry_space_group_name_H-M   'C 2/c'
_symmetry_Int_Tables_number      15
_space_group_name_Hall           '-C 2yn'
loop_
_symmetry_equiv_pos_site_id
_symmetry_equiv_pos_as_xyz
1 x,y,z
2 -x,y,1/2-z
3 1/2+x,1/2+y,z
4 1/2-x,1/2+y,1/2-z
5 -x,-y,-z
6 x,-y,1/2+z
7 1/2-x,1/2-y,-z
8 1/2+x,1/2-y,1/2+z
_cell_length_a                   13.9500(9)
_cell_length_b                   12.2415(6)
_cell_length_c                   11.0824(6)
_cell_angle_alpha                90
_cell_angle_beta                 111.477(7)
_cell_angle_gamma                90
_cell_volume                     1761.12
loop_
_atom_site_label
_atom_site_type_symbol
_atom_site_fract_x
_atom_site_fract_y
_atom_site_fract_z
Cd1 Cd 0.0000 0.05000(3) 0.2500
C1 C 0.1619(3) -0.1424(3) 0.3843(4)
C2 C 0.2144(3) -0.2150(3) 0.4967(4)
H1 H 0.1944 -0.2097 0.5679
C3 C -0.1460(3) 0.2650(3) 0.1582(4)
H2 H -0.1678 0.2557 0.2275
C4 C -0.1647(3) 0.3531(3) 0.0810(4)
H3 H -0.2012 0.4152 0.0868
C5 C -0.0757(3) 0.2359(3) 0.0184(4)
H4 H -0.0397 0.2035 -0.0281
C6 C -0.1143(4) 0.4088(4) -0.1076(5)
H5 H -0.1833 0.4323 -0.1609
H6 H -0.0849 0.3715 -0.1631
C7 C -0.0489(5) 0.5083(5) -0.0468(6)
H7 H -0.0409 0.5509 -0.1163
H8 H -0.0876 0.5527 -0.0081
O1 O 0.0970(2) -0.0761(2) 0.3983(3)
O2 O 0.1203(2) 0.0332(2) 0.1510(3)
H9 H 0.1557 -0.0244 0.1779
H10 H 0.1098 0.0423 0.0711
O3 O 0.1825(3) -0.1505(3) 0.2859(3)
N1 N -0.0896(2) 0.1905(2) 0.1191(3)
N2 N -0.1197(2) 0.3337(2) -0.0081(3)
C1F C 0.3381(3) -0.3576(3) 0.6157(4)
C2F C 0.2856(3) -0.2850(3) 0.5033(4)
H1F H 0.3056 -0.2903 0.4321
O1F O 0.4030(2) -0.4239(2) 0.6017(3)
O3F O 0.3175(3) -0.3495(3) 0.7141(3)
C3D C 0.1460(3) 0.7350(3) -0.1582(4)
H2D H 0.1678 0.7443 -0.2275
C4D C 0.1647(3) 0.6469(3) -0.0810(4)
H3D H 0.2012 0.5848 -0.0868
C5D C 0.0757(3) 0.7641(3) -0.0184(4)
H4D H 0.0397 0.7965 0.0281
C6D C 0.1143(4) 0.5912(4) 0.1076(5)
H5D H 0.1833 0.5677 0.1609
H6D H 0.0849 0.6285 0.1631
C7D C 0.0489(5) 0.4917(5) 0.0468(6)
H7D H 0.0409 0.4491 0.1163
H8D H 0.0876 0.4473 0.0081
N1D N 0.0896(2) 0.8095(2) -0.1191(3)
N2D N 0.1197(2) 0.6663(2) 0.0081(3)
O2A O -0.1203(2) 0.0332(2) 0.3490(3)
H9A H -0.1557 -0.0244 0.3221
H10A H -0.1098 0.0423 0.4289
Cd1D Cd 0.0000 0.95000(3) -0.2500
Cd1F Cd 0.5000 -0.55000(3) 0.7500
O1A O -0.0970(2) -0.0761(2) 0.1017(3)
N1A N 0.0896(2) 0.1905(2) 0.3809(3)
loop_
_geom_bond_atom_site_label_1
_geom_bond_atom_site_label_2
_geom_bond_site_symmetry_1
_geom_bond_site_symmetry_2
Cd1 O1 1_555 1_555
C1 C2 1_555 1_555
C2 H1 1_555 1_555
C3 H2 1_555 1_555
C4 C3 1_555 1_555
H3 C4 1_555 1_555
C5 H4 1_555 1_555
C6 H5 1_555 1_555
H6 C6 1_555 1_555
C7 C6 1_555 1_555
H7 C7 1_555 1_555
H8 C7 1_555 1_555
O1 C1 1_555 1_555
O2 Cd1 1_555 1_555
H9 O2 1_555 1_555
H10 O2 1_555 1_555
O3 C1 1_555 1_555
N1 Cd1 1_555 1_555
N2 C4 1_555 1_555
C1F C2F 1_555 1_555
C2F C2 1_555 1_555
H1F C2F 1_555 1_555
O1F C1F 1_555 1_555
O3F C1F 1_555 1_555
C3D H2D 1_555 1_555
C4D C3D 1_555 1_555
H3D C4D 1_555 1_555
C5D H4D 1_555 1_555
C6D H5D 1_555 1_555
H6D C6D 1_555 1_555
C7D C7 1_555 1_555
H7D C7D 1_555 1_555
H8D C7D 1_555 1_555
N1D C3D 1_555 1_555
N2D C4D 1_555 1_555
O2A Cd1 1_555 1_555
H9A O2A 1_555 1_555
H10A O2A 1_555 1_555
Cd1D N1D 1_555 1_555
Cd1F O1F 1_555 1_555
O1A Cd1 1_555 1_555
N1A Cd1 1_555 1_555
C3 N1 1_555 1_555
C5 N1 1_555 1_555
C5 N2 1_555 1_555
C6 N2 1_555 1_555
C5D N1D 1_555 1_555
C5D N2D 1_555 1_555
C6D C7D 1_555 1_555
C6D N2D 1_555 1_555

#END
