
#######################################################################
#
#                 Cambridge Crystallographic Data Centre
#                                CCDC 
#
#######################################################################
#
# If this CIF has been generated from an entry in the Cambridge 
# Structural Database, then it will include bibliographic, chemical, 
# crystal, experimental, refinement or atomic coordinate data resulting 
# from the CCDC's data processing and validation procedures.
#
#######################################################################

data_KIJKOE
_symmetry_cell_setting           monoclinic
_symmetry_space_group_name_H-M   'P 21/n'
_symmetry_Int_Tables_number      14
_space_group_name_Hall           '-P 2yn'
loop_
_symmetry_equiv_pos_site_id
_symmetry_equiv_pos_as_xyz
1 x,y,z
2 1/2-x,1/2+y,1/2-z
3 -x,-y,-z
4 1/2+x,1/2-y,1/2+z
_cell_length_a                   8.497(5)
_cell_length_b                   9.391(5)
_cell_length_c                   12.378(6)
_cell_angle_alpha                90
_cell_angle_beta                 90.860(11)
_cell_angle_gamma                90
_cell_volume                     987.595
loop_
_atom_site_label
_atom_site_type_symbol
_atom_site_fract_x
_atom_site_fract_y
_atom_site_fract_z
Zn1 Zn 0.13584(8) 0.29604(6) 0.52997(6)
Cl1 Cl 0.3324(2) 0.30784(14) 0.41543(14)
P1 P -0.13440(18) 0.40175(14) 0.35600(13)
Cl2 Cl 0.09503(19) 0.08606(14) 0.61358(12)
O1 O -0.0704(5) 0.3347(4) 0.4583(4)
O2 O -0.1503(5) 0.5613(4) 0.3555(3)
O3 O -0.2926(5) 0.3216(4) 0.3361(4)
H1 H -0.3322 0.3479 0.2787
C1 C 0.0190(8) 0.2160(6) 0.2162(6)
H2 H -0.0330 0.1434 0.2523
N1 N 0.1931(7) 0.2911(5) 0.0845(5)
H3 H 0.2594 0.2702 0.0351
C2 C -0.0066(7) 0.3575(6) 0.2439(5)
C3 C 0.1203(9) 0.1845(7) 0.1360(6)
H4 H 0.1392 0.0904 0.1169
C4 C 0.0654(7) 0.4638(6) 0.1860(5)
H5 H 0.0449 0.5589 0.2011
C5 C 0.1670(8) 0.4278(7) 0.1063(5)
H6 H 0.2178 0.4984 0.0674
Zn1B Zn -0.13584(8) 0.70396(6) 0.47003(6)
O2B O 0.1503(5) 0.4387(4) 0.6445(3)
loop_
_geom_bond_atom_site_label_1
_geom_bond_atom_site_label_2
_geom_bond_site_symmetry_1
_geom_bond_site_symmetry_2
Zn1 Cl1 1_555 1_555
P1 O1 1_555 1_555
Cl2 Zn1 1_555 1_555
O1 Zn1 1_555 1_555
O2 P1 1_555 1_555
O3 P1 1_555 1_555
H1 O3 1_555 1_555
C1 H2 1_555 1_555
N1 H3 1_555 1_555
C2 P1 1_555 1_555
C3 C1 1_555 1_555
H4 C3 1_555 1_555
C4 C2 1_555 1_555
H5 C4 1_555 1_555
C5 N1 1_555 1_555
H6 C5 1_555 1_555
Zn1B O2 1_555 1_555
O2B Zn1 1_555 1_555
C1 C2 1_555 1_555
N1 C3 1_555 1_555
C4 C5 1_555 1_555

#END
