
#######################################################################
#
#                 Cambridge Crystallographic Data Centre
#                                CCDC 
#
#######################################################################
#
# If this CIF has been generated from an entry in the Cambridge 
# Structural Database, then it will include bibliographic, chemical, 
# crystal, experimental, refinement or atomic coordinate data resulting 
# from the CCDC's data processing and validation procedures.
#
#######################################################################

data_KIJKIY
_symmetry_cell_setting           triclinic
_symmetry_space_group_name_H-M   'P -1'
_symmetry_Int_Tables_number      2
_space_group_name_Hall           '-P 1'
loop_
_symmetry_equiv_pos_site_id
_symmetry_equiv_pos_as_xyz
1 x,y,z
2 -x,-y,-z
_cell_length_a                   7.6871(14)
_cell_length_b                   10.576(2)
_cell_length_c                   14.470(3)
_cell_angle_alpha                81.340(4)
_cell_angle_beta                 81.561(3)
_cell_angle_gamma                68.757(3)
_cell_volume                     1078.52
loop_
_atom_site_label
_atom_site_type_symbol
_atom_site_fract_x
_atom_site_fract_y
_atom_site_fract_z
O3 O 0.385(2) 0.4952(18) 0.1636(12)
O4 O 0.069(3) 0.529(2) 0.1594(14)
Cl1 Cl 0.2427(5) 0.4931(4) 0.1012(2)
O14 O 0.2561(15) 0.5942(11) 0.0251(7)
O15 O 0.339(4) 0.3639(17) 0.0821(12)
H1 H 0.33(2) 0.123(15) 0.249(10)
Mn1 Mn 0.5000 0.0000 0.5000
Mn2 Mn 0.2130(3) 0.5137(2) 0.45615(14)
P1 P 0.1005(5) 0.2392(3) 0.4236(2)
P2 P 0.4798(5) -0.2758(3) 0.4080(2)
O5 O 0.4388(12) -0.1295(9) 0.4239(6)
O6 O -0.0072(12) 0.1537(9) 0.4868(6)
O7 O 0.3085(12) 0.1695(9) 0.4233(6)
O8 O 0.0262(12) 0.3850(9) 0.4454(6)
O9 O 0.6727(12) -0.3746(9) 0.4296(7)
O10 O 0.0202(13) 0.6490(10) 0.3495(7)
H2 H -0.0890 0.6606 0.3702
O11 O 0.3238(13) -0.3300(9) 0.4551(6)
O12 O 0.4142(13) 0.3965(10) 0.3490(7)
H3 H 0.4263 0.3157 0.3610
N1 N 0.4686(16) -0.2595(13) 0.0919(8)
O13 O 0.7283(13) 0.0284(11) 0.3896(6)
H4 H 0.8259 0.0084 0.4140
N2 N -0.0246(17) 0.2285(14) 0.1277(8)
C1 C 0.4761(18) -0.2745(13) 0.2824(9)
C2 C 0.3088(18) -0.2014(13) 0.2406(9)
H5 H 0.1994 -0.1570 0.2771
C3 C 0.046(2) 0.2369(13) 0.3049(9)
C4 C 0.148(2) 0.1610(13) 0.1516(9)
H6 H 0.2410 0.1121 0.1087
C5 C 0.1865(18) 0.1645(13) 0.2418(10)
C6 C 0.3094(19) -0.1966(15) 0.1442(11)
H7 H 0.1995 -0.1499 0.1159
C7 C 0.629(2) -0.3314(16) 0.1306(11)
H8 H 0.7365 -0.3761 0.0928
C8 C -0.130(2) 0.3027(16) 0.2767(10)
H9 H -0.2260 0.3520 0.3183
C9 C 0.635(2) -0.3390(15) 0.2253(10)
H10 H 0.7472 -0.3879 0.2515
C10 C -0.166(2) 0.2968(18) 0.1876(11)
H11 H -0.2863 0.3394 0.1691
H1A H 0.67(2) -0.123(15) 0.751(10)
Mn2A Mn 0.7870(3) -0.5137(2) 0.54385(14)
Mn2A_2 Mn -0.2130(3) 0.4863(2) 0.54385(14)
Mn2_2 Mn 0.2130(3) -0.4863(2) 0.45615(14)
Mn2A_3 Mn 0.7870(3) 0.4863(2) 0.54385(14)
Mn2_3 Mn 1.2130(3) -0.4863(2) 0.45615(14)
P1A P 0.8995(5) -0.2392(3) 0.5764(2)
P2A P 0.5202(5) 0.2758(3) 0.5920(2)
O5A O 0.5612(12) 0.1295(9) 0.5761(6)
O6A O 1.0072(12) -0.1537(9) 0.5132(6)
O7A O 0.6915(12) -0.1695(9) 0.5767(6)
O8A O 0.9738(12) -0.3850(9) 0.5546(6)
O8A_2 O -0.0262(12) 0.6150(9) 0.5546(6)
O8_2 O 1.0262(12) -0.6150(9) 0.4454(6)
O9A O 0.3273(12) 0.3746(9) 0.5704(7)
O10A O 0.9798(13) -0.6490(10) 0.6505(7)
H2A H 1.0890 -0.6606 0.6298
O11A O 0.6762(13) 0.3300(9) 0.5449(6)
O11_2 O 0.3238(13) 0.6700(9) 0.4551(6)
O11A_2 O 0.6762(13) -0.6700(9) 0.5449(6)
O12A O 0.5858(13) -0.3965(10) 0.6510(7)
H3A H 0.5737 -0.3157 0.6390
N1A N 0.5314(16) 0.2595(13) 0.9081(8)
O13A O 0.2717(13) -0.0284(11) 0.6104(6)
H4A H 0.1741 -0.0084 0.5860
N2A N 1.0246(17) -0.2285(14) 0.8723(8)
C1A C 0.5239(18) 0.2745(13) 0.7176(9)
C2A C 0.6912(18) 0.2014(13) 0.7594(9)
H5A H 0.8006 0.1570 0.7229
C3A C 0.954(2) -0.2369(13) 0.6951(9)
C4A C 0.852(2) -0.1610(13) 0.8484(9)
H6A H 0.7590 -0.1121 0.8913
C5A C 0.8135(18) -0.1645(13) 0.7582(10)
C6A C 0.6906(19) 0.1966(15) 0.8558(11)
H7A H 0.8005 0.1499 0.8841
C7A C 0.371(2) 0.3314(16) 0.8694(11)
H8A H 0.2635 0.3761 0.9072
C8A C 1.130(2) -0.3027(16) 0.7233(10)
H9A H 1.2260 -0.3520 0.6817
C9A C 0.365(2) 0.3390(15) 0.7747(10)
H10A H 0.2528 0.3879 0.7485
C10A C 1.166(2) -0.2968(18) 0.8124(11)
H11A H 1.2863 -0.3394 0.8309
Cl2 Cl 0.7552(5) -0.0186(4) 0.1145(2)
O16 O 0.5712(14) -0.0209(12) 0.1435(8)
O17 O 0.8578(15) -0.0353(12) 0.1944(7)
O18 O 0.7421(19) 0.1120(14) 0.0626(8)
O19 O 0.8565(16) -0.1280(15) 0.0584(9)
O1? O 0.228(4) 0.537(3) 0.1843(15)
O2? O 0.068(3) 0.464(2) 0.0821(15)
loop_
_geom_bond_atom_site_label_1
_geom_bond_atom_site_label_2
_geom_bond_site_symmetry_1
_geom_bond_site_symmetry_2
O3 Cl1 1_555 1_555
O4 Cl1 1_555 1_555
H1 C5 1_555 1_555
Mn1 O5 1_555 1_555
Mn2 O8 1_555 1_555
P1 O6 1_555 1_555
P2 O5 1_555 1_555
O7 Mn1 1_555 1_555
O8 P1 1_555 1_555
O9 P2 1_555 1_555
O10 Mn2 1_555 1_555
H2 O10 1_555 1_555
O11 P2 1_555 1_555
O12 Mn2 1_555 1_555
H3 O12 1_555 1_555
N1 C6 1_555 1_555
O13 Mn1 1_555 1_555
H4 O13 1_555 1_555
N2 C4 1_555 1_555
C1 P2 1_555 1_555
C2 C1 1_555 1_555
H5 C2 1_555 1_555
C3 P1 1_555 1_555
C4 H6 1_555 1_555
C5 C3 1_555 1_555
C6 C2 1_555 1_555
H7 C6 1_555 1_555
C7 N1 1_555 1_555
H8 C7 1_555 1_555
C8 C3 1_555 1_555
H9 C8 1_555 1_555
C9 C1 1_555 1_555
H10 C9 1_555 1_555
C10 N2 1_555 1_555
H11 C10 1_555 1_555
Cl1 O14 1_555 1_555
O15 Cl1 1_555 1_555
Cl2 O16 1_555 1_555
O17 Cl2 1_555 1_555
O18 Cl2 1_555 1_555
O19 Cl2 1_555 1_555
H1A C5A 1_555 1_555
Mn2A O9 1_555 1_555
Mn2A_2 O8 1_555 1_555
Mn2_2 O11 1_555 1_555
Mn2A_3 O11A 1_555 1_555
Mn2_3 O8A 1_555 1_555
P1A O6A 1_555 1_555
P2A O5A 1_555 1_555
O5A Mn1 1_555 1_555
O7A Mn1 1_555 1_555
O8A Mn2A 1_555 1_555
O8A_2 Mn2 1_555 1_555
O8_2 Mn2A 1_555 1_555
O9A Mn2 1_555 1_555
O10A Mn2A 1_555 1_555
H2A O10A 1_555 1_555
O11A P2A 1_555 1_555
O11_2 Mn2 1_555 1_555
O11A_2 Mn2A 1_555 1_555
O12A Mn2A 1_555 1_555
H3A O12A 1_555 1_555
N1A C6A 1_555 1_555
O13A Mn1 1_555 1_555
H4A O13A 1_555 1_555
N2A C4A 1_555 1_555
C1A P2A 1_555 1_555
C2A C1A 1_555 1_555
H5A C2A 1_555 1_555
C3A P1A 1_555 1_555
C4A H6A 1_555 1_555
C5A C3A 1_555 1_555
C6A C2A 1_555 1_555
H7A C6A 1_555 1_555
C7A N1A 1_555 1_555
H8A C7A 1_555 1_555
C8A C3A 1_555 1_555
H9A C8A 1_555 1_555
C9A C1A 1_555 1_555
H10A C9A 1_555 1_555
C10A N2A 1_555 1_555
H11A C10A 1_555 1_555
P1 O7 1_555 1_555
C4 C5 1_555 1_555
C7 C9 1_555 1_555
C8 C10 1_555 1_555
Mn2A_2 O8A_2 1_555 1_555
Mn2_3 O8_2 1_555 1_555
P1A O7A 1_555 1_555
P1A O8A 1_555 1_555
P2A O9A 1_555 1_555
C4A C5A 1_555 1_555
C7A C9A 1_555 1_555
C8A C10A 1_555 1_555

#END
