
#######################################################################
#
#                 Cambridge Crystallographic Data Centre
#                                CCDC 
#
#######################################################################
#
# If this CIF has been generated from an entry in the Cambridge 
# Structural Database, then it will include bibliographic, chemical, 
# crystal, experimental, refinement or atomic coordinate data resulting 
# from the CCDC's data processing and validation procedures.
#
#######################################################################

data_KIJNIC
_symmetry_cell_setting           monoclinic
_symmetry_space_group_name_H-M   'P 21/c'
_symmetry_Int_Tables_number      14
_space_group_name_Hall           '-P 2ybc'
loop_
_symmetry_equiv_pos_site_id
_symmetry_equiv_pos_as_xyz
1 x,y,z
2 -x,1/2+y,1/2-z
3 -x,-y,-z
4 x,1/2-y,1/2+z
_cell_length_a                   12.774(5)
_cell_length_b                   10.380(5)
_cell_length_c                   16.042(5)
_cell_angle_alpha                90
_cell_angle_beta                 95.090(5)
_cell_angle_gamma                90
_cell_volume                     2118.69
loop_
_atom_site_label
_atom_site_type_symbol
_atom_site_fract_x
_atom_site_fract_y
_atom_site_fract_z
Ag1 Ag 0.85626(2) 1.07760(3) 0.933521(16)
N1 N 0.8789(2) 1.0913(2) 0.79835(16)
C1 C 0.6871(2) 0.4341(3) 0.72682(19)
C2 C 0.8509(2) 0.9993(3) 0.74073(18)
C3 C 0.6825(2) 0.3330(3) 0.67264(18)
C4 C 0.7995(2) 0.8843(3) 0.77078(19)
H1 H 0.7768 0.8873 0.8243
C5 C 0.7828(2) 0.7762(3) 0.72767(19)
H2 H 0.8021 0.7762 0.6731
C6 C 0.7319(2) 0.5552(3) 0.70476(19)
H3 H 0.7580 0.5631 0.6527
C7 C 0.6347(3) 0.2129(3) 0.6910(2)
C8 C 0.7246(2) 0.3425(3) 0.5934(2)
C9 C 0.6969(2) 0.5120(3) 0.87687(19)
C10 C 0.6979(3) 0.6495(3) 0.84185(19)
H4 H 0.6272 0.6840 0.8390
H5 H 0.7419 0.7029 0.8802
C11 C 0.6420(3) 0.4242(3) 0.8099(2)
H6 H 0.6476 0.3357 0.8291
H7 H 0.5680 0.4463 0.8026
C12 C 0.7375(2) 0.6576(3) 0.75670(18)
C13 C 0.9500(3) 1.2162(3) 0.6919(2)
H8 H 0.9835 1.2912 0.6768
N2 N 0.7609(2) 0.3534(3) 0.53163(18)
O1 O 0.9638(3) 0.8772(3) 0.9691(2)
C14 C 0.9218(3) 1.1232(3) 0.6333(2)
H9 H 0.9364 1.1339 0.5779
C15 C 0.8718(3) 1.0144(3) 0.6577(2)
H10 H 0.8518 0.9508 0.6187
N3 N 0.5963(3) 0.1180(3) 0.7063(2)
O2 O 0.9566(3) 0.7157(3) 1.04603(19)
C16 C 0.9282(3) 1.1968(3) 0.7727(2)
H11 H 0.9485 1.2598 0.8121
C17 C 0.6357(3) 0.5093(4) 0.9547(2)
H12 H 0.6343 0.4229 0.9759
H13 H 0.5651 0.5385 0.9402
H14 H 0.6694 0.5649 0.9967
N4 N 0.9112(3) 0.8050(3) 1.01066(18)
O3 O 0.8177(2) 0.8247(4) 1.0121(2)
C18 C 0.8095(3) 0.4663(4) 0.9003(2)
H15 H 0.8427 0.5218 0.9426
H16 H 0.8482 0.4686 0.8517
H17 H 0.8084 0.3797 0.9213
Ag1B Ag 1.14374(2) 0.92240(3) 1.066479(16)
Ag1C Ag 0.85626(2) 0.42240(3) 0.433521(16)
N2C N 0.7609(2) 1.1466(3) 1.03163(18)
O1B O 1.0362(3) 1.1228(3) 1.0309(2)
C19 C 0.5541(6) 0.8902(9) -0.0040(8)
H18 H 0.5905 0.8130 -0.0068
C20 C 0.4467(5) 1.0315(11) 0.0662(7)
H19 H 0.4090 1.0525 0.1113
C21 C 0.5027(7) 0.9157(9) 0.0678(5)
H20 H 0.5057 0.8598 0.1132
C19B C 0.4459(6) 1.1098(9) 0.0040(8)
H18B H 0.4095 1.1870 0.0068
C20B C 0.5533(5) 0.9685(11) -0.0662(7)
H19B H 0.5910 0.9475 -0.1113
C21B C 0.4973(7) 1.0843(9) -0.0678(5)
H20B H 0.4943 1.1402 -0.1132
loop_
_geom_bond_atom_site_label_1
_geom_bond_atom_site_label_2
_geom_bond_site_symmetry_1
_geom_bond_site_symmetry_2
Ag1 N1 1_555 1_555
N1 C2 1_555 1_555
C1 C3 1_555 1_555
C2 C4 1_555 1_555
C3 C7 1_555 1_555
C4 H1 1_555 1_555
C5 C4 1_555 1_555
H2 C5 1_555 1_555
C6 C1 1_555 1_555
H3 C6 1_555 1_555
C7 N3 1_555 1_555
C8 C3 1_555 1_555
C9 C10 1_555 1_555
C10 H4 1_555 1_555
H5 C10 1_555 1_555
C11 C1 1_555 1_555
H6 C11 1_555 1_555
H7 C11 1_555 1_555
C12 C5 1_555 1_555
C13 H8 1_555 1_555
N2 C8 1_555 1_555
O1 Ag1 1_555 1_555
C14 C13 1_555 1_555
H9 C14 1_555 1_555
C15 C2 1_555 1_555
H10 C15 1_555 1_555
O2 N4 1_555 1_555
C16 N1 1_555 1_555
H11 C16 1_555 1_555
C17 C9 1_555 1_555
H12 C17 1_555 1_555
H13 C17 1_555 1_555
H14 C17 1_555 1_555
N4 O1 1_555 1_555
O3 N4 1_555 1_555
C18 C9 1_555 1_555
H15 C18 1_555 1_555
H16 C18 1_555 1_555
H17 C18 1_555 1_555
C19 H18 1_555 1_555
C20 H19 1_555 1_555
C21 C19 1_555 1_555
H20 C21 1_555 1_555
Ag1B O1 1_555 1_555
Ag1C N2 1_555 1_555
N2C Ag1 1_555 1_555
O1B Ag1 1_555 1_555
C19B C20 1_555 1_555
H18B C19B 1_555 1_555
C20B C19 1_555 1_555
H19B C20B 1_555 1_555
C21B C19B 1_555 1_555
H20B C21B 1_555 1_555
C6 C12 1_555 1_555
C9 C11 1_555 1_555
C10 C12 1_555 1_555
C13 C16 1_555 1_555
C14 C15 1_555 1_555
C20 C21 1_555 1_555
Ag1B O1B 1_555 1_555
C20B C21B 1_555 1_555

#END
