
#######################################################################
#
#                 Cambridge Crystallographic Data Centre
#                                CCDC 
#
#######################################################################
#
# If this CIF has been generated from an entry in the Cambridge 
# Structural Database, then it will include bibliographic, chemical, 
# crystal, experimental, refinement or atomic coordinate data resulting 
# from the CCDC's data processing and validation procedures.
#
#######################################################################

data_KIJPAW
_symmetry_cell_setting           monoclinic
_symmetry_space_group_name_H-M   'P 2/c'
_symmetry_Int_Tables_number      13
_space_group_name_Hall           '-P 2yc'
loop_
_symmetry_equiv_pos_site_id
_symmetry_equiv_pos_as_xyz
1 x,y,z
2 -x,y,1/2-z
3 -x,-y,-z
4 x,-y,1/2+z
_cell_length_a                   8.9228(19)
_cell_length_b                   10.996(2)
_cell_length_c                   12.0653(18)
_cell_angle_alpha                90
_cell_angle_beta                 121.556(11)
_cell_angle_gamma                90
_cell_volume                     1008.74
loop_
_atom_site_label
_atom_site_type_symbol
_atom_site_fract_x
_atom_site_fract_y
_atom_site_fract_z
Hg1 Hg 0.5000 0.05958(4) 0.7500
O1 O 0.2142(9) 0.5422(5) 0.5835(5)
O2 O 0.7576(8) 0.0063(6) 0.7499(6)
O3 O 0.7174(8) -0.0885(6) 0.8902(6)
N1 N 0.4356(8) 0.2114(5) 0.5928(5)
N2 N 0.0000 0.5135(7) 0.2500
C1 C 0.4826(10) 0.1931(7) 0.5042(7)
H1 H 0.5486 0.1245 0.5121
C2 C 0.4372(11) 0.2711(7) 0.4040(7)
H2 H 0.4727 0.2563 0.3452
C3 C 0.3374(10) 0.3730(7) 0.3904(7)
H3 H 0.3027 0.4264 0.3213
C4 C 0.2907(9) 0.3939(7) 0.4806(6)
C5 C 0.3444(9) 0.3098(7) 0.5803(6)
H4 H 0.3141 0.3240 0.6421
C6 C 0.1981(10) 0.5072(7) 0.4826(7)
C7 C 0.0923(9) 0.5781(6) 0.3603(7)
C8 C 0.0934(10) 0.7030(7) 0.3649(7)
H5 H 0.1560 0.7435 0.4441
C9 C 0.0000 0.7673(10) 0.2500
H6 H 0.0000 0.8519 0.2500
C10 C 0.8039(11) -0.0682(7) 0.8401(8)
C11 C 0.9768(12) -0.1344(10) 0.8923(9)
H7 H 1.0361 -0.1396 0.9853
H8 H 1.0490 -0.0908 0.8685
H9 H 0.9548 -0.2149 0.8561
O1A O -0.2142(9) 0.5422(5) -0.0835(5)
N1A N -0.4356(8) 0.2114(5) -0.0928(5)
C1A C -0.4826(10) 0.1931(7) -0.0042(7)
H1A H -0.5486 0.1245 -0.0121
C2A C -0.4372(11) 0.2711(7) 0.0960(7)
H2A H -0.4727 0.2563 0.1548
C3A C -0.3374(10) 0.3730(7) 0.1096(7)
H3A H -0.3027 0.4264 0.1787
C4A C -0.2907(9) 0.3939(7) 0.0194(6)
C5A C -0.3444(9) 0.3098(7) -0.0803(6)
H4A H -0.3141 0.3240 -0.1421
C6A C -0.1981(10) 0.5072(7) 0.0174(7)
C7A C -0.0923(9) 0.5781(6) 0.1397(7)
C8A C -0.0934(10) 0.7030(7) 0.1351(7)
H5A H -0.1560 0.7435 0.0559
O2A O 0.2424(8) 0.0063(6) 0.7501(6)
O3A O 0.2826(8) -0.0885(6) 0.6098(6)
C10A C 0.1961(11) -0.0682(7) 0.6599(8)
C11A C 0.0232(12) -0.1344(10) 0.6077(9)
H7A H -0.0361 -0.1396 0.5147
H8A H -0.0490 -0.0908 0.6315
H9A H 0.0452 -0.2149 0.6439
Hg1_2 Hg -0.5000 0.05958(4) -0.2500
N1A_2 N 0.5644(8) 0.2114(5) 0.9072(5)
loop_
_geom_bond_atom_site_label_1
_geom_bond_atom_site_label_2
_geom_bond_site_symmetry_1
_geom_bond_site_symmetry_2
Hg1 O2 1_555 1_555
O1 C6 1_555 1_555
O2 C10 1_555 1_555
O3 Hg1 1_555 1_555
N1 Hg1 1_555 1_555
N2 C7 1_555 1_555
C1 N1 1_555 1_555
H1 C1 1_555 1_555
C2 C1 1_555 1_555
H2 C2 1_555 1_555
C3 C2 1_555 1_555
H3 C3 1_555 1_555
C4 C3 1_555 1_555
C5 N1 1_555 1_555
H4 C5 1_555 1_555
C6 C4 1_555 1_555
C7 C6 1_555 1_555
C8 C7 1_555 1_555
H5 C8 1_555 1_555
C9 C8 1_555 1_555
H6 C9 1_555 1_555
C10 O3 1_555 1_555
C11 C10 1_555 1_555
H7 C11 1_555 1_555
H8 C11 1_555 1_555
H9 C11 1_555 1_555
O1A C6A 1_555 1_555
N1A C1A 1_555 1_555
C1A H1A 1_555 1_555
C2A C1A 1_555 1_555
H2A C2A 1_555 1_555
C3A C2A 1_555 1_555
H3A C3A 1_555 1_555
C4A C3A 1_555 1_555
C5A N1A 1_555 1_555
H4A C5A 1_555 1_555
C6A C4A 1_555 1_555
C7A N2 1_555 1_555
C8A C9 1_555 1_555
H5A C8A 1_555 1_555
O2A Hg1 1_555 1_555
O3A Hg1 1_555 1_555
C10A O2A 1_555 1_555
C11A C10A 1_555 1_555
H7A C11A 1_555 1_555
H8A C11A 1_555 1_555
H9A C11A 1_555 1_555
Hg1_2 N1A 1_555 1_555
N1A_2 Hg1 1_555 1_555
C4 C5 1_555 1_555
C4A C5A 1_555 1_555
C6A C7A 1_555 1_555
C7A C8A 1_555 1_555
O3A C10A 1_555 1_555

#END
