
#######################################################################
#
#                 Cambridge Crystallographic Data Centre
#                                CCDC 
#
#######################################################################
#
# If this CIF has been generated from an entry in the Cambridge 
# Structural Database, then it will include bibliographic, chemical, 
# crystal, experimental, refinement or atomic coordinate data resulting 
# from the CCDC's data processing and validation procedures.
#
#######################################################################

data_KIJPUQ
_symmetry_cell_setting           orthorhombic
_symmetry_space_group_name_H-M   'P 21 21 21'
_symmetry_Int_Tables_number      19
_space_group_name_Hall           'P 2ac 2ab'
loop_
_symmetry_equiv_pos_site_id
_symmetry_equiv_pos_as_xyz
1 x,y,z
2 1/2-x,-y,1/2+z
3 -x,1/2+y,1/2-z
4 1/2+x,1/2-y,-z
_cell_length_a                   9.7355(10)
_cell_length_b                   10.0002(10)
_cell_length_c                   26.295(3)
_cell_angle_alpha                90
_cell_angle_beta                 90
_cell_angle_gamma                90
_cell_volume                     2560
loop_
_atom_site_label
_atom_site_type_symbol
_atom_site_fract_x
_atom_site_fract_y
_atom_site_fract_z
Cd1 Cd 0.46862(7) 0.31342(6) -0.13384(2)
N1 N 0.3506(8) 0.1529(7) -0.0879(2)
C1 C 0.3059(9) 0.1847(10) -0.0402(3)
H1 H 0.3258 0.2692 -0.0274
C2 C 0.2328(10) 0.0975(9) -0.0103(3)
C3 C 0.2515(15) -0.0636(10) -0.0761(4)
H2 H 0.2385 -0.1500 -0.0882
C4 C 0.3232(12) 0.0292(10) -0.1044(3)
H3 H 0.3541 0.0046 -0.1365
C5 C 0.2000(14) -0.0264(9) -0.0301(4)
H4 H 0.1429 -0.0841 -0.0122
C6 C 0.1759(11) 0.1390(9) 0.0401(3)
O1 O 0.0452(7) 0.3678(7) 0.1920(2)
C7 C 0.2616(9) 0.2188(9) 0.0765(3)
C8 C 0.4036(10) 0.2272(10) 0.0732(4)
H5 H 0.4516 0.1841 0.0474
C9 C 0.4724(11) 0.3027(11) 0.1102(3)
H6 H 0.5679 0.3060 0.1107
C10 C 0.3971(10) 0.3720(10) 0.1459(3)
H7 H 0.4395 0.4288 0.1691
C11 C 0.2529(9) 0.3539(8) 0.1461(3)
N2 N 0.1887(7) 0.2763(7) 0.1131(2)
C12 C 0.1605(10) 0.4177(10) 0.1848(3)
O2 O 0.0593(7) 0.1065(6) 0.0514(2)
C13 C 0.2384(12) 0.7574(10) 0.2725(4)
H8 H 0.2527 0.8336 0.2921
C14 C 0.3006(12) 0.7488(10) 0.2261(4)
H9 H 0.3565 0.8184 0.2150
C15 C 0.2817(11) 0.6374(10) 0.1952(4)
H10 H 0.3217 0.6317 0.1631
C16 C 0.2004(9) 0.5349(9) 0.2144(3)
C17 C 0.1421(10) 0.5521(10) 0.2619(3)
H11 H 0.0880 0.4832 0.2747
N3 N 0.1584(8) 0.6614(8) 0.2907(3)
O3 O 0.6034(9) 0.4893(8) -0.1619(3)
O4 O 0.3098(10) 0.4680(9) -0.1036(3)
H12 H 0.6556 0.5627 -0.1605
H13 H 0.3645 0.5078 -0.0827
H14 H 0.2416 0.5305 -0.1090
H15 H 0.5814 0.4492 -0.1940
Cd1A Cd 0.03138(7) 0.68658(6) 0.36616(2)
Cd1C Cd -0.03138(7) 0.18658(6) 0.13384(2)
O1C O 0.5452(7) 0.1322(7) -0.1920(2)
N2C N 0.6887(7) 0.2237(7) -0.1131(2)
O2C O 0.5593(7) 0.3935(6) -0.0514(2)
N3A N 0.3416(8) 0.3386(8) -0.2093(3)
Cl1 Cl 0.3154(4) 0.1486(3) 0.26884(14)
O5 O 0.1736(11) 0.1160(15) 0.2711(6)
O6 O 0.3829(13) 0.0870(13) 0.3093(4)
O7 O 0.3464(14) 0.2841(9) 0.2634(4)
O8 O 0.361(2) 0.0977(17) 0.2211(5)
Cl2 Cl 0.6648(4) -0.0646(4) -0.01942(14)
O9 O 0.659(2) -0.0875(16) -0.0709(4)
O10 O 0.576(2) -0.1591(18) 0.0000(8)
O11 O 0.6172(13) 0.0613(9) -0.0088(4)
O12 O 0.7856(18) -0.090(2) 0.0049(8)
O13 O 0.5713(13) -0.0332(16) 0.1527(6)
O14 O 0.303(4) -0.123(2) 0.0903(8)
loop_
_geom_bond_atom_site_label_1
_geom_bond_atom_site_label_2
_geom_bond_site_symmetry_1
_geom_bond_site_symmetry_2
Cd1 N1 1_555 1_555
N1 C1 1_555 1_555
C1 H1 1_555 1_555
C2 C1 1_555 1_555
C3 H2 1_555 1_555
C4 N1 1_555 1_555
H3 C4 1_555 1_555
C5 C2 1_555 1_555
H4 C5 1_555 1_555
C6 C2 1_555 1_555
O1 C12 1_555 1_555
C7 C6 1_555 1_555
C8 C7 1_555 1_555
H5 C8 1_555 1_555
C9 C8 1_555 1_555
H6 C9 1_555 1_555
C10 C9 1_555 1_555
H7 C10 1_555 1_555
C11 C10 1_555 1_555
N2 C7 1_555 1_555
C12 C11 1_555 1_555
O2 C6 1_555 1_555
C13 H8 1_555 1_555
C14 C13 1_555 1_555
H9 C14 1_555 1_555
C15 C14 1_555 1_555
H10 C15 1_555 1_555
C16 C12 1_555 1_555
C17 C16 1_555 1_555
H11 C17 1_555 1_555
N3 C13 1_555 1_555
O3 Cd1 1_555 1_555
O4 Cd1 1_555 1_555
H12 O3 1_555 1_555
H13 O4 1_555 1_555
H14 O4 1_555 1_555
H15 O3 1_555 1_555
Cl1 O5 1_555 1_555
O6 Cl1 1_555 1_555
O7 Cl1 1_555 1_555
O8 Cl1 1_555 1_555
Cl2 O9 1_555 1_555
O10 Cl2 1_555 1_555
O11 Cl2 1_555 1_555
O12 Cl2 1_555 1_555
Cd1A N3 1_555 1_555
Cd1C O1 1_555 1_555
O1C Cd1 1_555 1_555
N2C Cd1 1_555 1_555
O2C Cd1 1_555 1_555
N3A Cd1 1_555 1_555
C3 C4 1_555 1_555
C3 C5 1_555 1_555
C11 N2 1_555 1_555
N2 Cd1C 1_555 1_555
O2 Cd1C 1_555 1_555
C15 C16 1_555 1_555
C17 N3 1_555 1_555

#END
