
#######################################################################
#
#                 Cambridge Crystallographic Data Centre
#                                CCDC 
#
#######################################################################
#
# If this CIF has been generated from an entry in the Cambridge 
# Structural Database, then it will include bibliographic, chemical, 
# crystal, experimental, refinement or atomic coordinate data resulting 
# from the CCDC's data processing and validation procedures.
#
#######################################################################

data_KIJPEA
_symmetry_cell_setting           monoclinic
_symmetry_space_group_name_H-M   'P 2/c'
_symmetry_Int_Tables_number      13
_space_group_name_Hall           '-P 2yc'
loop_
_symmetry_equiv_pos_site_id
_symmetry_equiv_pos_as_xyz
1 x,y,z
2 -x,y,1/2-z
3 -x,-y,-z
4 x,-y,1/2+z
_cell_length_a                   8.7188(3)
_cell_length_b                   10.9954(3)
_cell_length_c                   12.0144(3)
_cell_angle_alpha                90
_cell_angle_beta                 121.556(2)
_cell_angle_gamma                90
_cell_volume                     981.466
loop_
_atom_site_label
_atom_site_type_symbol
_atom_site_fract_x
_atom_site_fract_y
_atom_site_fract_z
Zn1 Zn 0.5000 0.08082(3) 0.7500
O1 O 0.2154(3) 0.54932(16) 0.58580(15)
O2 O 0.7271(2) 0.02791(15) 0.75652(16)
O3 O 0.6921(2) -0.07556(15) 0.89537(18)
N1 N 0.4225(2) 0.20829(15) 0.59798(15)
N2 N 0.0000 0.51740(19) 0.2500
C1 C 0.4691(3) 0.18513(18) 0.50996(19)
H1 H 0.5327 0.1143 0.5186
C2 C 0.4266(3) 0.2619(2) 0.40763(19)
H2 H 0.4607 0.2429 0.3482
C3 C 0.3331(3) 0.36747(19) 0.39367(18)
H3 H 0.3022 0.4201 0.3244
C4 C 0.2855(2) 0.39395(17) 0.48509(17)
C5 C 0.3330(3) 0.31102(18) 0.58486(17)
H4 H 0.3008 0.3278 0.6458
C6 C 0.1978(3) 0.51031(18) 0.48551(18)
C7 C 0.0937(3) 0.58113(16) 0.36098(19)
C8 C 0.0953(3) 0.70739(18) 0.3656(2)
H5 H 0.1593 0.7481 0.4451
C9 C 0.0000 0.7713(3) 0.2500
H6 H 0.0000 0.8559 0.2500
C10 C 0.7782(3) -0.05245(19) 0.8432(2)
C11 C 0.9490(4) -0.1209(3) 0.8829(3)
H7 H 1.0070 -0.1431 0.9733
H8 H 1.0281 -0.0702 0.8699
H9 H 0.9208 -0.1930 0.8306
O1A O -0.2154(3) 0.54932(16) -0.08580(15)
N1A N -0.4225(2) 0.20829(15) -0.09798(15)
C1A C -0.4691(3) 0.18513(18) -0.00996(19)
H1A H -0.5327 0.1143 -0.0186
C2A C -0.4266(3) 0.2619(2) 0.09237(19)
H2A H -0.4607 0.2429 0.1518
C3A C -0.3331(3) 0.36747(19) 0.10633(18)
H3A H -0.3022 0.4201 0.1756
C4A C -0.2855(2) 0.39395(17) 0.01491(17)
C5A C -0.3330(3) 0.31102(18) -0.08486(17)
H4A H -0.3008 0.3278 -0.1458
C6A C -0.1978(3) 0.51031(18) 0.01449(18)
C7A C -0.0937(3) 0.58113(16) 0.13902(19)
C8A C -0.0953(3) 0.70739(18) 0.1344(2)
H5A H -0.1593 0.7481 0.0549
O2A O 0.2729(2) 0.02791(15) 0.74348(16)
O3A O 0.3079(2) -0.07556(15) 0.60463(18)
C10A C 0.2218(3) -0.05245(19) 0.6568(2)
C11A C 0.0510(4) -0.1209(3) 0.6171(3)
H7A H -0.0070 -0.1431 0.5267
H8A H -0.0281 -0.0702 0.6301
H9A H 0.0792 -0.1930 0.6694
Zn1_2 Zn -0.5000 0.08082(3) -0.2500
N1A_2 N 0.5775(2) 0.20829(15) 0.90202(15)
loop_
_geom_bond_atom_site_label_1
_geom_bond_atom_site_label_2
_geom_bond_site_symmetry_1
_geom_bond_site_symmetry_2
Zn1 O2 1_555 1_555
O1 C6 1_555 1_555
O2 C10 1_555 1_555
O3 Zn1 1_555 1_555
N1 Zn1 1_555 1_555
N2 C7 1_555 1_555
C1 N1 1_555 1_555
H1 C1 1_555 1_555
C2 C1 1_555 1_555
H2 C2 1_555 1_555
C3 C2 1_555 1_555
H3 C3 1_555 1_555
C4 C3 1_555 1_555
C5 N1 1_555 1_555
H4 C5 1_555 1_555
C6 C4 1_555 1_555
C7 C6 1_555 1_555
C8 C7 1_555 1_555
H5 C8 1_555 1_555
C9 C8 1_555 1_555
H6 C9 1_555 1_555
C10 O3 1_555 1_555
C11 C10 1_555 1_555
H7 C11 1_555 1_555
H8 C11 1_555 1_555
H9 C11 1_555 1_555
O1A C6A 1_555 1_555
N1A C1A 1_555 1_555
C1A H1A 1_555 1_555
C2A C1A 1_555 1_555
H2A C2A 1_555 1_555
C3A C2A 1_555 1_555
H3A C3A 1_555 1_555
C4A C3A 1_555 1_555
C5A N1A 1_555 1_555
H4A C5A 1_555 1_555
C6A C4A 1_555 1_555
C7A N2 1_555 1_555
C8A C9 1_555 1_555
H5A C8A 1_555 1_555
O2A Zn1 1_555 1_555
O3A Zn1 1_555 1_555
C10A O2A 1_555 1_555
C11A C10A 1_555 1_555
H7A C11A 1_555 1_555
H8A C11A 1_555 1_555
H9A C11A 1_555 1_555
Zn1_2 N1A 1_555 1_555
N1A_2 Zn1 1_555 1_555
C4 C5 1_555 1_555
C4A C5A 1_555 1_555
C6A C7A 1_555 1_555
C7A C8A 1_555 1_555
O3A C10A 1_555 1_555

#END
