
#######################################################################
#
#                 Cambridge Crystallographic Data Centre
#                                CCDC 
#
#######################################################################
#
# If this CIF has been generated from an entry in the Cambridge 
# Structural Database, then it will include bibliographic, chemical, 
# crystal, experimental, refinement or atomic coordinate data resulting 
# from the CCDC's data processing and validation procedures.
#
#######################################################################

data_KIJPOK
_symmetry_cell_setting           monoclinic
_symmetry_space_group_name_H-M   'P 21/c'
_symmetry_Int_Tables_number      14
_space_group_name_Hall           '-P 2ybc'
loop_
_symmetry_equiv_pos_site_id
_symmetry_equiv_pos_as_xyz
1 x,y,z
2 -x,1/2+y,1/2-z
3 -x,-y,-z
4 x,1/2-y,1/2+z
_cell_length_a                   16.674(3)
_cell_length_b                   9.1071(16)
_cell_length_c                   24.873(4)
_cell_angle_alpha                90
_cell_angle_beta                 108.219(4)
_cell_angle_gamma                90
_cell_volume                     3587.66
loop_
_atom_site_label
_atom_site_type_symbol
_atom_site_fract_x
_atom_site_fract_y
_atom_site_fract_z
Cd1 Cd 0.49952(3) 0.33919(6) 0.32116(2)
N1 N 0.3609(4) 0.2384(7) 0.2785(3)
N2 N 0.2120(4) 0.5029(7) 0.3387(3)
N3 N 0.4581(4) 0.3785(7) 0.4030(3)
N4 N 0.6267(4) 0.4721(8) 0.3656(3)
N5 N 0.8680(4) 0.5849(8) 0.5387(3)
O1 O 0.0732(4) 0.3683(7) 0.2118(3)
O2 O 0.2800(4) 0.6655(7) 0.4727(3)
O3 O 0.8567(4) 0.2741(9) 0.4530(3)
O4 O 0.9107(4) 0.8021(8) 0.6622(3)
C1 C 0.2951(5) 0.3310(9) 0.2716(3)
H1 H 0.3060 0.4306 0.2784
C2 C 0.2114(4) 0.2830(9) 0.2549(3)
C3 C 0.1964(6) 0.1341(9) 0.2438(3)
H2 H 0.1413 0.0987 0.2325
C4 C 0.2627(6) 0.0391(10) 0.2497(4)
H3 H 0.2532 -0.0604 0.2418
C5 C 0.3441(6) 0.0954(10) 0.2679(3)
H4 H 0.3891 0.0310 0.2729
C6 C 0.1411(5) 0.3874(10) 0.2493(4)
C7 C 0.1524(4) 0.5163(9) 0.2881(4)
C8 C 0.1016(5) 0.6379(10) 0.2732(4)
H5 H 0.0600 0.6426 0.2381
C9 C 0.1128(6) 0.7535(11) 0.3110(5)
H6 H 0.0805 0.8385 0.3017
C10 C 0.1728(5) 0.7384(10) 0.3624(4)
H7 H 0.1811 0.8136 0.3889
C11 C 0.2213(5) 0.6136(9) 0.3758(4)
C12 C 0.2848(5) 0.5938(9) 0.4328(4)
C13 C 0.4872(5) 0.3026(9) 0.4514(3)
H8 H 0.5320 0.2383 0.4554
C14 C 0.4540(6) 0.3147(9) 0.4959(4)
H9 H 0.4770 0.2618 0.5291
C15 C 0.3867(5) 0.4061(9) 0.4898(3)
H10 H 0.3624 0.4143 0.5186
C16 C 0.3545(4) 0.4871(8) 0.4401(3)
C17 C 0.3935(4) 0.4697(8) 0.3982(3)
H11 H 0.3733 0.5246 0.3652
N6 N 0.6732(3) 0.9629(6) 0.5674(3)
C18 C 0.6668(4) 1.0094(7) 0.5130(3)
H12 H 0.6199 1.0629 0.4920
C19 C 0.7305(5) 0.9760(8) 0.4898(2)
H13 H 0.7262 1.0071 0.4534
C20 C 0.8005(4) 0.8960(7) 0.5211(3)
H14 H 0.8431 0.8736 0.5057
C21 C 0.8069(3) 0.8494(6) 0.5755(2)
C22 C 0.7432(4) 0.8829(6) 0.5987(2)
H15 H 0.7475 0.8518 0.6351
C23 C 0.8805(5) 0.7662(11) 0.6132(4)
C24 C 0.9135(5) 0.6369(10) 0.5891(4)
C25 C 0.9865(6) 0.5708(14) 0.6222(4)
H16 H 1.0168 0.6108 0.6570
C26 C 1.0140(6) 0.4449(14) 0.6030(4)
H17 H 1.0627 0.3975 0.6247
C27 C 0.9677(5) 0.3903(12) 0.5507(4)
H18 H 0.9849 0.3060 0.5363
C28 C 0.8948(5) 0.4643(11) 0.5202(3)
C29 C 0.8419(5) 0.3970(11) 0.4659(4)
C30 C 0.6955(5) 0.4073(10) 0.3999(3)
H19 H 0.6936 0.3069 0.4062
C31 C 0.7694(5) 0.4819(10) 0.4266(3)
C32 C 0.7725(5) 0.6293(11) 0.4162(4)
H20 H 0.8209 0.6831 0.4341
C33 C 0.7035(5) 0.6975(10) 0.3788(3)
H21 H 0.7055 0.7962 0.3698
C34 C 0.6313(5) 0.6158(10) 0.3553(3)
H22 H 0.5840 0.6623 0.3313
S1 S 0.60053(12) 0.1783(2) 0.23997(9)
O5 O 0.6569(5) 0.1378(11) 0.2951(3)
O6 O 0.6490(5) 0.2226(9) 0.2053(4)
O7 O 0.5518(4) 0.0516(6) 0.2178(3)
O8 O 0.5439(4) 0.2947(6) 0.2466(2)
O9 O 0.5553(4) 0.1142(7) 0.3628(3)
H23 H 0.5871 0.1225 0.3408
H24 H 0.5422 0.0271 0.3763
Cd1A Cd 0.50048(3) -0.16081(6) 0.17884(2)
O7A O 0.4482(4) 0.5516(6) 0.2822(3)
O10 O 0.9121(9) -0.0977(16) 0.4146(7)
O12 O 0.4505(5) -0.0865(8) 0.3883(3)
O13 O 0.8167(8) 0.118(2) 0.3494(6)
O11? O 0.9812(15) -0.015(3) 0.4278(18)
loop_
_geom_bond_atom_site_label_1
_geom_bond_atom_site_label_2
_geom_bond_site_symmetry_1
_geom_bond_site_symmetry_2
Cd1 N1 1_555 1_555
N1 C1 1_555 1_555
N2 C7 1_555 1_555
N3 Cd1 1_555 1_555
N4 Cd1 1_555 1_555
N5 C24 1_555 1_555
O1 C6 1_555 1_555
O2 C12 1_555 1_555
O3 C29 1_555 1_555
O4 C23 1_555 1_555
C1 H1 1_555 1_555
C2 C1 1_555 1_555
C3 C2 1_555 1_555
H2 C3 1_555 1_555
C4 C3 1_555 1_555
H3 C4 1_555 1_555
C5 N1 1_555 1_555
H4 C5 1_555 1_555
C6 C2 1_555 1_555
C7 C6 1_555 1_555
C8 C7 1_555 1_555
H5 C8 1_555 1_555
C9 C8 1_555 1_555
H6 C9 1_555 1_555
C10 C9 1_555 1_555
H7 C10 1_555 1_555
C11 N2 1_555 1_555
C12 C11 1_555 1_555
C13 N3 1_555 1_555
H8 C13 1_555 1_555
C14 C13 1_555 1_555
H9 C14 1_555 1_555
C15 C14 1_555 1_555
H10 C15 1_555 1_555
C16 C12 1_555 1_555
C17 N3 1_555 1_555
H11 C17 1_555 1_555
N6 C18 1_555 1_555
C18 H12 1_555 1_555
C19 C18 1_555 1_555
H13 C19 1_555 1_555
C20 C19 1_555 1_555
H14 C20 1_555 1_555
C21 C20 1_555 1_555
C22 N6 1_555 1_555
H15 C22 1_555 1_555
C23 C21 1_555 1_555
C24 C23 1_555 1_555
C25 C24 1_555 1_555
H16 C25 1_555 1_555
C26 C25 1_555 1_555
H17 C26 1_555 1_555
C27 C26 1_555 1_555
H18 C27 1_555 1_555
C28 N5 1_555 1_555
C29 C28 1_555 1_555
C30 N4 1_555 1_555
H19 C30 1_555 1_555
C31 C29 1_555 1_555
C32 C31 1_555 1_555
H20 C32 1_555 1_555
C33 C32 1_555 1_555
H21 C33 1_555 1_555
C34 N4 1_555 1_555
H22 C34 1_555 1_555
S1 O5 1_555 1_555
O6 S1 1_555 1_555
O7 S1 1_555 1_555
O8 Cd1 1_555 1_555
O9 Cd1 1_555 1_555
H23 O9 1_555 1_555
H24 O9 1_555 1_555
Cd1A O7 1_555 1_555
O7A Cd1 1_555 1_555
C4 C5 1_555 1_555
C10 C11 1_555 1_555
C15 C16 1_555 1_555
C16 C17 1_555 1_555
C21 C22 1_555 1_555
C27 C28 1_555 1_555
C30 C31 1_555 1_555
C33 C34 1_555 1_555
S1 O8 1_555 1_555

#END
