
#######################################################################
#
#                 Cambridge Crystallographic Data Centre
#                                CCDC 
#
#######################################################################
#
# If this CIF has been generated from an entry in the Cambridge 
# Structural Database, then it will include bibliographic, chemical, 
# crystal, experimental, refinement or atomic coordinate data resulting 
# from the CCDC's data processing and validation procedures.
#
#######################################################################

data_KIJPIE
_symmetry_cell_setting           monoclinic
_symmetry_space_group_name_H-M   'P 2/c'
_symmetry_Int_Tables_number      13
_space_group_name_Hall           '-P 2yc'
loop_
_symmetry_equiv_pos_site_id
_symmetry_equiv_pos_as_xyz
1 x,y,z
2 -x,y,1/2-z
3 -x,-y,-z
4 x,-y,1/2+z
_cell_length_a                   8.8794(17)
_cell_length_b                   10.993(2)
_cell_length_c                   12.0665(17)
_cell_angle_alpha                90
_cell_angle_beta                 121.531(10)
_cell_angle_gamma                90
_cell_volume                     1003.93
loop_
_atom_site_label
_atom_site_type_symbol
_atom_site_fract_x
_atom_site_fract_y
_atom_site_fract_z
Cd1 Cd 0.5000 0.43943(2) 0.7500
O1 O 0.2139(3) -0.0455(2) 0.5847(2)
O2 O 0.7076(3) 0.5843(2) 0.8887(2)
O3 O 0.7516(3) 0.4902(2) 0.7490(2)
N1 N 0.4311(3) 0.2900(2) 0.5930(2)
N2 N 0.0000 -0.0155(3) 0.2500
C1 C 0.4795(4) 0.3089(3) 0.5059(3)
H1 H 0.5453 0.3778 0.5142
C2 C 0.4354(4) 0.2299(3) 0.4049(3)
H2 H 0.4707 0.2458 0.3461
C3 C 0.3384(4) 0.1271(3) 0.3917(2)
H3 H 0.3056 0.0735 0.3230
C4 C 0.2903(3) 0.1048(2) 0.4830(2)
C5 C 0.3393(3) 0.1893(2) 0.5811(2)
H4 H 0.3067 0.1754 0.6418
C6 C 0.1985(3) -0.0089(2) 0.4840(2)
C7 C 0.0926(3) -0.0799(2) 0.3603(2)
C8 C 0.0942(4) -0.2064(2) 0.3651(3)
H5 H 0.1574 -0.2471 0.4441
C9 C 0.0000 -0.2700(4) 0.2500
H6 H 0.0000 -0.3546 0.2500
C10 C 0.7992(4) 0.5648(2) 0.8402(3)
C11 C 0.9698(4) 0.6336(4) 0.8906(3)
H7 H 0.9454 0.7118 0.8492
H8 H 1.0464 0.5886 0.8717
H9 H 1.0263 0.6442 0.9829
O1A O -0.2139(3) -0.0455(2) -0.0847(2)
N1A N -0.4311(3) 0.2900(2) -0.0930(2)
C1A C -0.4795(4) 0.3089(3) -0.0059(3)
H1A H -0.5453 0.3778 -0.0142
C2A C -0.4354(4) 0.2299(3) 0.0951(3)
H2A H -0.4707 0.2458 0.1539
C3A C -0.3384(4) 0.1271(3) 0.1083(2)
H3A H -0.3056 0.0735 0.1770
C4A C -0.2903(3) 0.1048(2) 0.0170(2)
C5A C -0.3393(3) 0.1893(2) -0.0811(2)
H4A H -0.3067 0.1754 -0.1418
C6A C -0.1985(3) -0.0089(2) 0.0160(2)
C7A C -0.0926(3) -0.0799(2) 0.1397(2)
C8A C -0.0942(4) -0.2064(2) 0.1349(3)
H5A H -0.1574 -0.2471 0.0559
O2A O 0.2924(3) 0.5843(2) 0.6113(2)
O3A O 0.2484(3) 0.4902(2) 0.7510(2)
C10A C 0.2008(4) 0.5648(2) 0.6598(3)
C11A C 0.0302(4) 0.6336(4) 0.6094(3)
H7A H 0.0546 0.7118 0.6508
H8A H -0.0464 0.5886 0.6283
H9A H -0.0263 0.6442 0.5171
Cd1_2 Cd -0.5000 0.43943(2) -0.2500
N1A_2 N 0.5689(3) 0.2900(2) 0.9070(2)
loop_
_geom_bond_atom_site_label_1
_geom_bond_atom_site_label_2
_geom_bond_site_symmetry_1
_geom_bond_site_symmetry_2
Cd1 O2 1_555 1_555
O1 C6 1_555 1_555
O2 C10 1_555 1_555
O3 Cd1 1_555 1_555
N1 Cd1 1_555 1_555
N2 C7 1_555 1_555
C1 N1 1_555 1_555
H1 C1 1_555 1_555
C2 C1 1_555 1_555
H2 C2 1_555 1_555
C3 C2 1_555 1_555
H3 C3 1_555 1_555
C4 C3 1_555 1_555
C5 N1 1_555 1_555
H4 C5 1_555 1_555
C6 C4 1_555 1_555
C7 C6 1_555 1_555
C8 C7 1_555 1_555
H5 C8 1_555 1_555
C9 C8 1_555 1_555
H6 C9 1_555 1_555
C10 O3 1_555 1_555
C11 C10 1_555 1_555
H7 C11 1_555 1_555
H8 C11 1_555 1_555
H9 C11 1_555 1_555
O1A C6A 1_555 1_555
N1A C1A 1_555 1_555
C1A H1A 1_555 1_555
C2A C1A 1_555 1_555
H2A C2A 1_555 1_555
C3A C2A 1_555 1_555
H3A C3A 1_555 1_555
C4A C3A 1_555 1_555
C5A N1A 1_555 1_555
H4A C5A 1_555 1_555
C6A C4A 1_555 1_555
C7A N2 1_555 1_555
C8A C9 1_555 1_555
H5A C8A 1_555 1_555
O2A Cd1 1_555 1_555
O3A Cd1 1_555 1_555
C10A O2A 1_555 1_555
C11A C10A 1_555 1_555
H7A C11A 1_555 1_555
H8A C11A 1_555 1_555
H9A C11A 1_555 1_555
Cd1_2 N1A 1_555 1_555
N1A_2 Cd1 1_555 1_555
C4 C5 1_555 1_555
C4A C5A 1_555 1_555
C6A C7A 1_555 1_555
C7A C8A 1_555 1_555
O3A C10A 1_555 1_555

#END
