
#######################################################################
#
#                 Cambridge Crystallographic Data Centre
#                                CCDC 
#
#######################################################################
#
# If this CIF has been generated from an entry in the Cambridge 
# Structural Database, then it will include bibliographic, chemical, 
# crystal, experimental, refinement or atomic coordinate data resulting 
# from the CCDC's data processing and validation procedures.
#
#######################################################################

data_KIJWUX01
_symmetry_cell_setting           monoclinic
_symmetry_space_group_name_H-M   'C 2/c'
_symmetry_Int_Tables_number      15
_space_group_name_Hall           '-C 2yn'
loop_
_symmetry_equiv_pos_site_id
_symmetry_equiv_pos_as_xyz
1 x,y,z
2 -x,y,1/2-z
3 1/2+x,1/2+y,z
4 1/2-x,1/2+y,1/2-z
5 -x,-y,-z
6 x,-y,1/2+z
7 1/2-x,1/2-y,-z
8 1/2+x,1/2-y,1/2+z
_cell_length_a                   25.444(4)
_cell_length_b                   11.3655(17)
_cell_length_c                   13.702(2)
_cell_angle_alpha                90
_cell_angle_beta                 121.250(1)
_cell_angle_gamma                90
_cell_volume                     3387.5
loop_
_atom_site_label
_atom_site_type_symbol
_atom_site_fract_x
_atom_site_fract_y
_atom_site_fract_z
Cd1 Cd 0.221141(14) 0.80621(3) 0.35252(2)
O1 O 0.29446(12) 0.6858(3) 0.4937(2)
O2 O 0.31064(16) 0.6870(3) 0.3516(2)
O3 O 0.36768(13) 0.4272(3) 0.2574(2)
O4 O 0.30797(13) 0.3936(2) 0.3260(2)
O5 O 0.46780(15) 0.8362(3) 0.5959(4)
N1 N 0.28974(15) 0.9627(3) 0.4397(3)
N2 N 0.45554(16) 1.0327(3) 0.5968(3)
H1 H 0.477(2) 1.095(4) 0.624(4)
N3 N 0.65762(15) 0.8613(3) 0.7731(3)
C1 C 0.35084(18) 0.9483(4) 0.4981(3)
H2 H 0.3672 0.8708 0.5127
C2 C 0.39099(17) 1.0432(4) 0.5379(3)
C3 C 0.36633(19) 1.1555(4) 0.5175(4)
H3 H 0.3926 1.2223 0.5436
C4 C 0.30368(19) 1.1697(4) 0.4594(4)
H4 H 0.2861 1.2460 0.4459
C5 C 0.26689(18) 1.0716(4) 0.4210(3)
H5 H 0.2235 1.0816 0.3796
C6 C 0.6827(2) 0.9660(4) 0.7790(3)
H6 H 0.7261 0.9708 0.8142
C7 C 0.5962(2) 0.8564(4) 0.7221(3)
H7 H 0.5778 0.7821 0.7170
C8 C 0.55795(19) 0.9538(4) 0.6763(3)
C9 C 0.5856(2) 1.0610(4) 0.6845(4)
H8 H 0.5613 1.1299 0.6544
C10 C 0.6488(2) 1.0675(4) 0.7367(4)
H9 H 0.6685 1.1406 0.7432
C11 C 0.4900(2) 0.9347(4) 0.6203(4)
C12 C 0.32308(19) 0.6487(4) 0.4461(3)
C13 C 0.3710(2) 0.5559(4) 0.5071(3)
H10 H 0.3525 0.4900 0.5262
H11 H 0.4045 0.5891 0.5798
C14 C 0.3983(2) 0.5081(6) 0.4402(4)
H12 H 0.4147 0.5748 0.4176
H13 H 0.4334 0.4566 0.4911
C15 C 0.3545(2) 0.4394(4) 0.3344(4)
Cd1C Cd 0.278859(14) 0.30621(3) 0.14748(2)
Cd1F Cd 0.278859(14) 0.69379(3) 0.64748(2)
Cd1G Cd 0.721141(14) 0.69379(3) 0.85252(2)
O1F O 0.20554(12) 0.8142(3) 0.5063(2)
O3C O 0.13232(13) 0.9272(3) 0.2426(2)
O4C O 0.19203(13) 0.8936(2) 0.1740(2)
N3G N 0.15762(15) 0.6387(3) 0.2731(3)
O6 O 0.3849(3) 0.6587(5) 0.2378(5)
O7 O 0.5018(3) 0.7474(5) 0.2060(6)
O8 O 0.5127(3) 0.7251(5) 0.4539(6)
O9 O 0.4686(3) 0.5530(5) 0.2856(5)
O10? O 0.4850(3) 0.3921(5) 0.2999(5)
loop_
_geom_bond_atom_site_label_1
_geom_bond_atom_site_label_2
_geom_bond_site_symmetry_1
_geom_bond_site_symmetry_2
Cd1 O1 1_555 1_555
O1 C12 1_555 1_555
O2 Cd1 1_555 1_555
O3 C15 1_555 1_555
O4 C15 1_555 1_555
O5 C11 1_555 1_555
N1 Cd1 1_555 1_555
N2 H1 1_555 1_555
N3 C6 1_555 1_555
C1 N1 1_555 1_555
H2 C1 1_555 1_555
C2 N2 1_555 1_555
C3 C2 1_555 1_555
H3 C3 1_555 1_555
C4 C3 1_555 1_555
H4 C4 1_555 1_555
C5 N1 1_555 1_555
H5 C5 1_555 1_555
C6 H6 1_555 1_555
C7 N3 1_555 1_555
H7 C7 1_555 1_555
C8 C7 1_555 1_555
C9 C8 1_555 1_555
H8 C9 1_555 1_555
C10 C6 1_555 1_555
H9 C10 1_555 1_555
C11 N2 1_555 1_555
C12 O2 1_555 1_555
C13 C12 1_555 1_555
H10 C13 1_555 1_555
H11 C13 1_555 1_555
C14 C13 1_555 1_555
H12 C14 1_555 1_555
H13 C14 1_555 1_555
C15 C14 1_555 1_555
Cd1C O3 1_555 1_555
Cd1F O1 1_555 1_555
Cd1G N3 1_555 1_555
O1F Cd1 1_555 1_555
O3C Cd1 1_555 1_555
O4C Cd1 1_555 1_555
N3G Cd1 1_555 1_555
O4 Cd1C 1_555 1_555
C1 C2 1_555 1_555
C4 C5 1_555 1_555
C8 C11 1_555 1_555
C9 C10 1_555 1_555
Cd1F O1F 1_555 1_555

#END
