
#######################################################################
#
#                 Cambridge Crystallographic Data Centre
#                                CCDC 
#
#######################################################################
#
# If this CIF has been generated from an entry in the Cambridge 
# Structural Database, then it will include bibliographic, chemical, 
# crystal, experimental, refinement or atomic coordinate data resulting 
# from the CCDC's data processing and validation procedures.
#
#######################################################################

data_KIJWIL
_symmetry_cell_setting           monoclinic
_symmetry_space_group_name_H-M   'P c'
_symmetry_Int_Tables_number      7
_space_group_name_Hall           'P -2yc'
loop_
_symmetry_equiv_pos_site_id
_symmetry_equiv_pos_as_xyz
1 x,y,z
2 x,-y,1/2+z
_cell_length_a                   10.368(2)
_cell_length_b                   9.283(2)
_cell_length_c                   16.084(4)
_cell_angle_alpha                90
_cell_angle_beta                 101.790(3)
_cell_angle_gamma                90
_cell_volume                     1515.36
loop_
_atom_site_label
_atom_site_type_symbol
_atom_site_fract_x
_atom_site_fract_y
_atom_site_fract_z
Cd1 Cd 0.70020(11) 0.13988(17) 0.15512(8)
Cd2 Cd 0.97169(11) -0.11675(17) 0.25426(8)
O1 O 0.839(2) 0.059(2) 0.3037(13)
O2 O 0.695(2) 0.213(2) 0.2932(12)
O3 O 1.0090(19) 0.171(2) 0.6203(13)
O4 O 0.8361(17) 0.0314(17) 0.6171(12)
O5 O 1.057(2) -0.159(2) 0.3996(11)
O6 O 1.1712(19) -0.268(2) 0.3144(11)
O7 O 1.495(2) -0.279(2) 0.5942(11)
O8 O 1.6092(18) -0.1755(19) 0.5143(11)
O9 O 1.479(3) 0.422(3) 0.3887(14)
O10 O 1.186(2) 0.598(3) 0.0174(13)
N1 N 0.863(2) 0.308(2) 0.1459(14)
N2 N 1.2470(15) 0.650(2) 0.1556(10)
H1 H 1.2354 0.6275 0.2066
N3 N 1.546(2) 0.952(3) 0.1513(12)
N4 N 1.118(2) 0.071(2) 0.2600(14)
N5 N 1.4958(15) 0.426(2) 0.2524(13)
H2 H 1.4662 0.3842 0.2030
N6 N 1.803(2) 0.718(2) 0.2580(15)
C1 C 0.768(4) 0.134(4) 0.331(2)
C2 C 0.766(2) 0.133(3) 0.4311(14)
H3 H 0.7467 0.2323 0.4471
H4 H 0.6898 0.0727 0.4384
C3 C 0.866(2) 0.089(3) 0.4853(14)
H5 H 0.9422 0.1257 0.4633
H6 H 0.8661 -0.0165 0.4770
C4 C 0.905(4) 0.108(4) 0.577(2)
C5 C 1.162(3) -0.224(4) 0.3871(18)
C6 C 1.276(3) -0.223(3) 0.4672(15)
H7 H 1.2850 -0.1240 0.4908
H8 H 1.2520 -0.2868 0.5107
C7 C 1.399(3) -0.266(3) 0.4528(15)
H9 H 1.4162 -0.2145 0.4023
H10 H 1.3949 -0.3704 0.4393
C8 C 1.511(3) -0.241(3) 0.5239(16)
C9 C 0.892(3) 0.329(4) 0.070(2)
H11 H 0.8353 0.2860 0.0225
C10 C 0.996(3) 0.407(4) 0.053(2)
H12 H 1.0200 0.4046 -0.0005
C11 C 1.060(3) 0.485(3) 0.1153(18)
C12 C 1.043(3) 0.477(3) 0.1915(18)
H13 H 1.0940 0.5352 0.2348
C13 C 0.948(3) 0.380(3) 0.210(2)
H14 H 0.9426 0.3632 0.2678
C14 C 1.498(3) 0.873(3) 0.078(2)
H15 H 1.5363 0.8856 0.0297
C15 C 1.399(3) 0.781(3) 0.075(2)
H16 H 1.3595 0.7376 0.0221
C16 C 1.351(3) 0.747(3) 0.1491(19)
C17 C 1.398(4) 0.831(3) 0.2208(17)
H17 H 1.3618 0.8243 0.2703
C18 C 1.497(4) 0.921(3) 0.216(2)
H18 H 1.5366 0.9678 0.2679
C19 C 1.166(2) 0.591(3) 0.0884(17)
C20 C 1.159(3) 0.151(3) 0.328(2)
H19 H 1.1123 0.1349 0.3721
C21 C 1.251(2) 0.248(3) 0.3455(18)
H20 H 1.2658 0.2989 0.3978
C22 C 1.328(2) 0.275(3) 0.2831(16)
C23 C 1.290(2) 0.207(3) 0.2108(16)
H21 H 1.3330 0.2289 0.1657
C24 C 1.182(3) 0.098(3) 0.1949(19)
H22 H 1.1591 0.0492 0.1420
C25 C 1.750(3) 0.653(2) 0.1897(18)
H23 H 1.7829 0.6699 0.1398
C26 C 1.639(2) 0.554(3) 0.1860(16)
H24 H 1.5970 0.5103 0.1340
C27 C 1.600(3) 0.527(3) 0.257(2)
C28 C 1.667(5) 0.586(4) 0.334(2)
H25 H 1.6465 0.5556 0.3862
C29 C 1.767(3) 0.692(3) 0.3329(18)
H26 H 1.8075 0.7414 0.3832
C30 C 1.441(2) 0.391(3) 0.3144(16)
Cd1_2 Cd 1.70020(11) 1.13988(17) 0.15512(8)
Cd1A Cd 0.70020(11) -0.13988(17) 0.65512(8)
Cd1A_2 Cd 1.70020(11) -0.13988(17) 0.65512(8)
Cd2_2 Cd 1.97169(11) 0.88325(17) 0.25426(8)
Cd2A Cd 0.97169(11) 0.11675(17) 0.75426(8)
O3A O 1.0090(19) -0.171(2) 0.1203(13)
O4A O 0.8361(17) -0.0314(17) 0.1171(12)
O7A O 0.495(2) 0.279(2) 0.0942(11)
O8A O 0.6092(18) 0.1755(19) 0.0143(11)
N3_2 N 0.546(2) -0.048(3) 0.1513(12)
N6_2 N 0.803(2) -0.282(2) 0.2580(15)
loop_
_geom_bond_atom_site_label_1
_geom_bond_atom_site_label_2
_geom_bond_site_symmetry_1
_geom_bond_site_symmetry_2
Cd1 O1 1_555 1_555
Cd2 O1 1_555 1_555
O1 C1 1_555 1_555
O2 Cd1 1_555 1_555
O3 C4 1_555 1_555
O4 C4 1_555 1_555
O5 Cd2 1_555 1_555
O6 Cd2 1_555 1_555
O7 C8 1_555 1_555
O8 C8 1_555 1_555
O9 C30 1_555 1_555
O10 C19 1_555 1_555
N1 Cd1 1_555 1_555
N2 H1 1_555 1_555
N3 C14 1_555 1_555
N4 Cd2 1_555 1_555
N5 H2 1_555 1_555
N6 C25 1_555 1_555
C1 O2 1_555 1_555
C2 C1 1_555 1_555
H3 C2 1_555 1_555
H4 C2 1_555 1_555
C3 C2 1_555 1_555
H5 C3 1_555 1_555
H6 C3 1_555 1_555
C4 C3 1_555 1_555
C5 O5 1_555 1_555
C6 C5 1_555 1_555
H7 C6 1_555 1_555
H8 C6 1_555 1_555
C7 C6 1_555 1_555
H9 C7 1_555 1_555
H10 C7 1_555 1_555
C8 C7 1_555 1_555
C9 N1 1_555 1_555
H11 C9 1_555 1_555
C10 C9 1_555 1_555
H12 C10 1_555 1_555
C11 C10 1_555 1_555
C12 C11 1_555 1_555
H13 C12 1_555 1_555
C13 N1 1_555 1_555
H14 C13 1_555 1_555
C14 H15 1_555 1_555
C15 C14 1_555 1_555
H16 C15 1_555 1_555
C16 N2 1_555 1_555
C17 C16 1_555 1_555
H17 C17 1_555 1_555
C18 N3 1_555 1_555
H18 C18 1_555 1_555
C19 N2 1_555 1_555
C20 N4 1_555 1_555
H19 C20 1_555 1_555
C21 C20 1_555 1_555
H20 C21 1_555 1_555
C22 C21 1_555 1_555
C23 C22 1_555 1_555
H21 C23 1_555 1_555
C24 N4 1_555 1_555
H22 C24 1_555 1_555
C25 H23 1_555 1_555
C26 C25 1_555 1_555
H24 C26 1_555 1_555
C27 N5 1_555 1_555
C28 C27 1_555 1_555
H25 C28 1_555 1_555
C29 N6 1_555 1_555
H26 C29 1_555 1_555
C30 N5 1_555 1_555
Cd1_2 N3 1_555 1_555
Cd1A O4 1_555 1_555
Cd1A_2 O7 1_555 1_555
Cd2_2 N6 1_555 1_555
Cd2A O3 1_555 1_555
O3A Cd2 1_555 1_555
O4A Cd1 1_555 1_555
O7A Cd1 1_555 1_555
O8A Cd1 1_555 1_555
N3_2 Cd1 1_555 1_555
N6_2 Cd2 1_555 1_555
Cd2 O4A 1_555 1_555
O4 Cd2A 1_555 1_555
O6 C5 1_555 1_555
O8 Cd1A_2 1_555 1_555
C11 C19 1_555 1_555
C12 C13 1_555 1_555
C15 C16 1_555 1_555
C17 C18 1_555 1_555
C22 C30 1_555 1_555
C23 C24 1_555 1_555
C26 C27 1_555 1_555
C28 C29 1_555 1_555

#END
