
#######################################################################
#
#                 Cambridge Crystallographic Data Centre
#                                CCDC 
#
#######################################################################
#
# If this CIF has been generated from an entry in the Cambridge 
# Structural Database, then it will include bibliographic, chemical, 
# crystal, experimental, refinement or atomic coordinate data resulting 
# from the CCDC's data processing and validation procedures.
#
#######################################################################

data_KIJWUW
_symmetry_cell_setting           triclinic
_symmetry_space_group_name_H-M   'P -1'
_symmetry_Int_Tables_number      2
_space_group_name_Hall           '-P 1'
loop_
_symmetry_equiv_pos_site_id
_symmetry_equiv_pos_as_xyz
1 x,y,z
2 -x,-y,-z
_cell_length_a                   7.2853(2)
_cell_length_b                   11.1525(3)
_cell_length_c                   14.0096(3)
_cell_angle_alpha                70.1230(10)
_cell_angle_beta                 78.5820(10)
_cell_angle_gamma                75.9870(10)
_cell_volume                     1030.23
loop_
_atom_site_label
_atom_site_type_symbol
_atom_site_fract_x
_atom_site_fract_y
_atom_site_fract_z
Cd1 Cd 1.28299(4) 0.23883(2) 0.62583(2)
Na1 Na 0.2853(3) 0.8385(2) 0.86490(10)
O1 O 1.1165(4) 0.2998(2) 0.75921(18)
O2 O 0.9974(4) 0.4538(2) 0.62858(16)
O3 O 0.5501(4) 1.0908(2) 0.58968(18)
O4 O 0.3957(4) 1.0247(2) 0.74276(19)
O5 O 0.6126(4) 0.4270(2) 1.31888(17)
O6 O 0.7003(5) 0.2613(2) 1.25572(19)
O7 O 0.6542(4) 0.8090(2) 0.79807(17)
O8 O 0.7473(4) 0.4093(2) 1.06632(16)
O9 O 1.0518(4) 0.1510(3) 0.6042(2)
O10 O 1.3042(4) 0.3643(3) 0.46121(18)
O11 O 1.5094(4) 0.3321(2) 0.6562(2)
O12 O 0.3611(7) 0.8572(5) 1.0106(3)
O13 O -0.0312(9) 0.8991(6) 0.8870(6)
C1 C 0.9022(4) 0.4805(3) 0.7950(2)
C2 C 0.8351(5) 0.6139(3) 0.7571(2)
C3 C 0.7358(5) 0.6791(3) 0.8258(2)
C4 C 0.7065(5) 0.6153(3) 0.9298(2)
C5 C 0.7738(5) 0.4826(3) 0.9658(2)
C6 C 0.8721(5) 0.4156(3) 0.8980(2)
C7 C 1.0108(5) 0.4069(3) 0.7223(2)
C8 C 0.6719(5) 0.8809(3) 0.6921(3)
C9 C 0.5281(5) 1.0077(3) 0.6758(2)
C10 C 0.6691(5) 0.4765(3) 1.1399(2)
C11 C 0.6619(5) 0.3788(3) 1.2460(2)
H1 H 1.101(5) 0.085(3) 0.586(3)
H2 H 0.985(5) 0.207(2) 0.561(3)
H3 H 1.4081(18) 0.379(4) 0.4243(19)
H4 H 1.212(2) 0.421(3) 0.4350(19)
H5 H 1.604(4) 0.340(3) 0.609(2)
H6 H 1.463(4) 0.405(2) 0.666(3)
H7 H 0.291(5) 0.838(8) 1.0682(15)
H8 H 0.477(2) 0.844(8) 1.022(3)
H9 H -0.045(12) 0.966(6) 0.834(4)
H10 H -0.043(12) 0.926(9) 0.939(4)
H19 H 0.8565 0.6580 0.6876
H20 H 0.6423 0.6610 0.9750
H21 H 0.9175 0.3267 0.9222
H22 H 0.6486 0.8309 0.6525
H23 H 0.8001 0.8986 0.6695
H24 H 0.5416 0.5242 1.1268
H25 H 0.7474 0.5379 1.1348
Cd1_2 Cd 0.28299(4) 1.23883(2) 0.62583(2)
Na1A Na 0.7147(3) 0.1615(2) 1.13510(10)
O3_2 O 1.5501(4) 0.0908(2) 0.58968(18)
O4_2 O 1.3957(4) 0.0247(2) 0.74276(19)
O6A O 0.2997(5) 0.7387(2) 0.74428(19)
O8A O 0.2527(4) 0.5907(2) 0.93368(16)
O14 O 1.1643(4) -0.0793(3) 0.5740(2)
H11 H 1.238(5) -0.070(5) 0.5176(17)
H12 H 1.226(5) -0.132(4) 0.622(2)
O15 O 0.7948(4) 0.3467(3) 0.49288(19)
H13 H 0.841(6) 0.415(3) 0.475(3)
H14 H 0.743(6) 0.345(4) 0.444(2)
O16 O 0.7747(7) 0.1473(6) 0.7873(3)
H15 H 0.680(7) 0.195(8) 0.757(5)
H16 H 0.877(6) 0.151(9) 0.746(5)
O17 O -0.2894(7) 0.8524(4) 1.0663(3)
H17 H -0.410(2) 0.862(8) 1.070(5)
H18 H -0.256(10) 0.807(7) 1.125(3)
loop_
_geom_bond_atom_site_label_1
_geom_bond_atom_site_label_2
_geom_bond_site_symmetry_1
_geom_bond_site_symmetry_2
Cd1 O1 1_555 1_555
Na1 O4 1_555 1_555
O1 C7 1_555 1_555
O2 C7 1_555 1_555
O3 C9 1_555 1_555
O4 C9 1_555 1_555
O5 C11 1_555 1_555
O6 C11 1_555 1_555
O7 Na1 1_555 1_555
O8 C5 1_555 1_555
O9 Cd1 1_555 1_555
O10 Cd1 1_555 1_555
O11 Cd1 1_555 1_555
O12 Na1 1_555 1_555
O13 Na1 1_555 1_555
O14 H11 1_555 1_555
O15 H13 1_555 1_555
O16 H15 1_555 1_555
O17 H17 1_555 1_555
C1 C2 1_555 1_555
C2 C3 1_555 1_555
C3 O7 1_555 1_555
C4 C3 1_555 1_555
C5 C4 1_555 1_555
C6 C1 1_555 1_555
C7 C1 1_555 1_555
C8 O7 1_555 1_555
C9 C8 1_555 1_555
C10 O8 1_555 1_555
C11 C10 1_555 1_555
H1 O9 1_555 1_555
H2 O9 1_555 1_555
H3 O10 1_555 1_555
H4 O10 1_555 1_555
H5 O11 1_555 1_555
H6 O11 1_555 1_555
H7 O12 1_555 1_555
H8 O12 1_555 1_555
H9 O13 1_555 1_555
H10 O13 1_555 1_555
H12 O14 1_555 1_555
H14 O15 1_555 1_555
H16 O16 1_555 1_555
H18 O17 1_555 1_555
H19 C2 1_555 1_555
H20 C4 1_555 1_555
H21 C6 1_555 1_555
H22 C8 1_555 1_555
H23 C8 1_555 1_555
H24 C10 1_555 1_555
H25 C10 1_555 1_555
Cd1_2 O3 1_555 1_555
Na1A O6 1_555 1_555
O3_2 Cd1 1_555 1_555
O4_2 Cd1 1_555 1_555
O6A Na1 1_555 1_555
O8A Na1 1_555 1_555
O4 Cd1_2 1_555 1_555
O8 Na1A 1_555 1_555
C5 C6 1_555 1_555

#END
