
#######################################################################
#
#                 Cambridge Crystallographic Data Centre
#                                CCDC 
#
#######################################################################
#
# If this CIF has been generated from an entry in the Cambridge 
# Structural Database, then it will include bibliographic, chemical, 
# crystal, experimental, refinement or atomic coordinate data resulting 
# from the CCDC's data processing and validation procedures.
#
#######################################################################

data_KIJWUX
_symmetry_cell_setting           monoclinic
_symmetry_space_group_name_H-M   'P 21/c'
_symmetry_Int_Tables_number      14
_space_group_name_Hall           '-P 2ybc'
loop_
_symmetry_equiv_pos_site_id
_symmetry_equiv_pos_as_xyz
1 x,y,z
2 -x,1/2+y,1/2-z
3 -x,-y,-z
4 x,1/2-y,1/2+z
_cell_length_a                   13.7070(14)
_cell_length_b                   22.724(2)
_cell_length_c                   21.771(2)
_cell_angle_alpha                90
_cell_angle_beta                 91.3220(10)
_cell_angle_gamma                90
_cell_volume                     6779.38
loop_
_atom_site_label
_atom_site_type_symbol
_atom_site_fract_x
_atom_site_fract_y
_atom_site_fract_z
Cd1 Cd 0.386814(19) 0.719017(11) 0.034310(11)
Cd2 Cd 0.625450(18) 0.774508(11) -0.022605(11)
Cd3 Cd 0.878770(19) 0.975913(12) 0.529370(11)
Cd4 Cd 0.885190(19) 1.032485(11) 0.029120(11)
O1 O 0.70029(17) 1.22334(10) 0.04919(10)
O2 O 0.54111(17) 1.22053(10) 0.03956(10)
O3 O 0.86217(18) 1.09514(11) 0.11330(11)
O4 O 0.73224(17) 1.07561(10) 0.05527(11)
O5 O 0.76387(17) 1.17444(10) 0.43623(10)
O6 O 0.63147(18) 1.15536(11) 0.38056(11)
O7 O 0.95425(18) 1.03544(11) 0.45489(11)
O8 O 0.79508(18) 1.03052(10) 0.44648(11)
O9 O 0.8973(2) 1.04811(11) 0.78046(11)
O10 O 0.3671(2) 0.79136(11) 0.28962(10)
O11 O 0.85842(18) 0.58168(11) 0.12311(11)
O12 O 0.73186(17) 0.56798(10) 0.06127(10)
O13 O 0.71735(17) 0.71418(10) 0.07182(11)
O14 O 0.56004(17) 0.71440(10) 0.04955(10)
O15 O 0.78625(18) 0.96730(10) -0.06804(11)
O16 O 0.94323(17) 0.97074(10) -0.04407(10)
O17 O 0.77431(17) 0.81749(10) -0.05154(10)
O18 O 0.64897(18) 0.83217(11) -0.11474(11)
O19 O 0.86092(19) 0.96070(11) 0.28433(11)
O20 O 0.6082(2) 0.79523(11) 0.22566(11)
N1 N 0.8895(2) 1.14622(14) 0.79449(14)
H1 H 0.878(4) 1.1748(16) 0.7668(18)
N2 N 0.8648(2) 1.06071(13) 0.59215(13)
N3 N 0.9025(2) 1.11059(13) 0.96058(13)
N4 N 0.3942(2) 0.88993(13) 0.29854(13)
H2 H 0.412(3) 0.9202(16) 0.2738(18)
N5 N 0.3710(2) 0.80154(13) 0.09872(13)
N6 N 0.4031(2) 0.85867(13) 0.46527(12)
N7 N 0.8971(2) 0.89696(13) 0.46081(13)
N8 N 0.8925(2) 0.86286(13) 0.29436(13)
H3 H 0.904(3) 0.8295(11) 0.2748(15)
N9 N 0.8667(2) 0.94978(13) 0.09387(13)
N10 N 0.6039(2) 0.85321(13) 0.04475(12)
N11 N 0.6134(2) 0.89319(14) 0.20982(13)
H4 H 0.617(4) 0.9259(15) 0.232(2)
N12 N 0.6407(2) 0.81065(13) 0.41387(12)
C1 C 0.6207(3) 1.20362(15) 0.06586(15)
C2 C 0.6140(3) 1.15899(16) 0.11659(16)
H5 H 0.5787 1.1239 0.1008
H6 H 0.5756 1.1759 0.1503
C3 C 0.7129(3) 1.14002(16) 0.14214(15)
H7 H 0.7516 1.1757 0.1520
H8 H 0.7031 1.1185 0.1811
C4 C 0.7715(3) 1.10143(15) 0.10006(15)
C5 C 0.7231(3) 1.14885(15) 0.39201(15)
C6 C 0.7790(3) 1.10909(15) 0.35006(15)
H9 H 0.7867 1.1293 0.3102
H10 H 0.7399 1.0731 0.3422
C7 C 0.8786(3) 1.09109(16) 0.37421(16)
H11 H 0.9144 1.0718 0.3408
H12 H 0.9155 1.1268 0.3865
C8 C 0.8751(3) 1.04990(16) 0.42816(16)
C9 C 0.8449(3) 1.11295(16) 0.56620(16)
H13 H 0.8347 1.1150 0.5229
C10 C 0.8388(3) 1.16426(17) 0.60069(17)
H14 H 0.8250 1.2009 0.5814
C11 C 0.8532(3) 1.16089(17) 0.66406(17)
H15 H 0.8502 1.1955 0.6884
C12 C 0.8719(3) 1.10734(17) 0.69147(16)
C13 C 0.8773(3) 1.05874(17) 0.65335(16)
H16 H 0.8908 1.0216 0.6718
C14 C 0.8869(3) 1.09734(17) 0.75991(17)
C15 C 0.8969(3) 1.15038(17) 0.85896(15)
C16 C 0.8981(3) 1.20679(16) 0.88349(16)
H17 H 0.8965 1.2401 0.8571
C17 C 0.9017(3) 1.21405(16) 0.94587(16)
H18 H 0.9033 1.2524 0.9633
C18 C 0.9030(3) 1.16510(16) 0.98283(16)
H19 H 0.9043 1.1704 1.0261
C19 C 0.9005(2) 1.10288(16) 0.89958(15)
H20 H 0.9016 1.0640 0.8835
C20 C 0.4051(3) 0.91405(16) 0.48672(16)
H21 H 0.4067 0.9201 0.5299
C21 C 0.4048(3) 0.96254(16) 0.44861(16)
H22 H 0.4080 1.0012 0.4652
C22 C 0.3999(3) 0.95377(17) 0.38605(16)
H23 H 0.3975 0.9865 0.3589
C23 C 0.3983(3) 0.89685(16) 0.36294(15)
C24 C 0.4008(3) 0.84998(17) 0.40410(15)
H24 H 0.4009 0.8109 0.3886
C25 C 0.3766(3) 0.84002(16) 0.26611(16)
C26 C 0.3667(3) 0.84783(16) 0.19771(16)
C27 C 0.3414(3) 0.90101(16) 0.16980(16)
H25 H 0.3306 0.9351 0.1939
C28 C 0.3802(3) 0.79918(16) 0.16002(15)
H26 H 0.3968 0.7626 0.1786
C29 C 0.3322(3) 0.90346(16) 0.10644(16)
H27 H 0.3155 0.9393 0.0864
C30 C 0.3476(3) 0.85318(16) 0.07307(16)
H28 H 0.3414 0.8552 0.0296
C31 C 0.7676(3) 0.58795(15) 0.10978(15)
C32 C 0.7032(3) 0.61850(15) 0.15544(15)
H29 H 0.7418 0.6492 0.1772
H30 H 0.6822 0.5895 0.1864
C33 C 0.6132(3) 0.64674(16) 0.12589(16)
H31 H 0.5744 0.6157 0.1048
H32 H 0.5727 0.6632 0.1588
C34 C 0.6336(3) 0.69497(15) 0.08025(15)
C35 C 0.8703(3) 0.94869(16) -0.07426(15)
C36 C 0.8935(3) 0.89749(16) -0.11556(16)
H33 H 0.9303 0.8678 -0.0911
H34 H 0.9367 0.9116 -0.1483
C37 C 0.8056(3) 0.86771(15) -0.14556(15)
H35 H 0.7673 0.8975 -0.1689
H36 H 0.8287 0.8381 -0.1752
C38 C 0.7400(3) 0.83791(15) -0.10049(15)
C39 C 0.8484(3) 0.89730(16) 0.06805(16)
H37 H 0.8429 0.8949 0.0245
C40 C 0.8373(3) 0.84654(16) 0.10208(17)
H38 H 0.8239 0.8101 0.0823
C41 C 0.8460(3) 0.84957(16) 0.16549(16)
H39 H 0.8386 0.8152 0.1898
C42 C 0.8655(3) 0.90313(16) 0.19300(16)
C43 C 0.8750(2) 0.95269(16) 0.15550(16)
H40 H 0.8879 0.9897 0.1742
C44 C 0.8736(3) 0.91200(16) 0.26122(16)
C45 C 0.8961(3) 0.85734(16) 0.35891(15)
C46 C 0.9027(3) 0.80112(17) 0.38372(16)
H41 H 0.9036 0.7678 0.3574
C47 C 0.8932(3) 0.90437(16) 0.39987(15)
H42 H 0.8883 0.9432 0.3839
C48 C 0.9080(3) 0.79396(17) 0.44604(16)
H43 H 0.9135 0.7557 0.4634
C49 C 0.9052(3) 0.84268(16) 0.48338(16)
H44 H 0.9091 0.8375 0.5267
C50 C 0.5969(3) 0.90700(17) 0.02084(16)
H45 H 0.5947 0.9110 -0.0226
C51 C 0.5926(3) 0.95717(17) 0.05619(17)
H46 H 0.5869 0.9949 0.0376
C52 C 0.5968(3) 0.95143(17) 0.11903(16)
H47 H 0.5945 0.9853 0.1446
C53 C 0.6044(3) 0.89576(16) 0.14489(15)
C54 C 0.6071(3) 0.84697(16) 0.10623(15)
H48 H 0.6112 0.8087 0.1236
C55 C 0.6161(3) 0.84514(17) 0.24580(16)
C56 C 0.6304(3) 0.85644(16) 0.31410(16)
C57 C 0.6291(3) 0.80748(16) 0.35237(16)
H49 H 0.6197 0.7698 0.3342
C58 C 0.6441(3) 0.91057(17) 0.34110(17)
H50 H 0.6441 0.9451 0.3165
C59 C 0.6554(3) 0.86358(16) 0.43867(16)
H51 H 0.6647 0.8663 0.4820
C60 C 0.6578(3) 0.91465(17) 0.40444(16)
H52 H 0.6686 0.9517 0.4237
Cd1A Cd 0.613186(19) 1.219017(11) 0.465690(11)
Cd1B Cd 0.613186(19) 1.280983(11) -0.034310(11)
Cd1C Cd 0.386814(19) 0.780983(11) 0.534310(11)
Cd2B Cd 0.374550(18) 1.225492(11) 0.022605(11)
Cd2C Cd 0.625450(18) 0.725492(11) 0.477395(11)
Cd3B Cd 1.121230(19) 1.024087(12) 0.470630(11)
Cd3C Cd 0.878770(19) 0.524087(12) 0.029370(11)
Cd4_2 Cd 0.885190(19) 1.032485(11) 1.029120(11)
Cd4B Cd 1.114810(19) 0.967515(11) -0.029120(11)
O1B O 0.29971(17) 0.77666(10) -0.04919(10)
O2B O 0.45889(17) 0.77947(10) -0.03956(10)
O5A O 0.23613(17) 0.67444(10) 0.06377(10)
O6A O 0.36853(18) 0.65536(11) 0.11944(11)
O7B O 1.04575(18) 0.96456(11) 0.54511(11)
O11C O 0.85842(18) 0.91832(11) 0.62311(11)
O12C O 0.73186(17) 0.93202(10) 0.56127(10)
O16B O 1.05677(17) 1.02926(10) 0.04407(10)
N3_2 N 0.9025(2) 1.11059(13) -0.03942(13)
N6C N 0.4031(2) 0.64133(13) -0.03473(12)
N12C N 0.6407(2) 0.68935(13) -0.08613(12)
O21 O 0.9003(2) 0.79517(11) 0.63619(12)
H53 H 0.8452(19) 0.7889(15) 0.6163(16)
H54 H 0.907(3) 0.8327(8) 0.6379(17)
O22 O 0.56540(19) 1.09877(11) 0.27798(12)
H55 H 0.584(3) 1.1135(15) 0.3129(11)
H56 H 0.528(2) 1.1235(14) 0.2589(14)
O23 O 0.9304(2) 1.15276(12) 0.21573(12)
H57 H 0.968(2) 1.1285(15) 0.2353(15)
H58 H 0.914(3) 1.1371(16) 0.1823(11)
O24 O 0.6875(2) 1.01140(12) 0.23605(13)
H59 H 0.658(2) 1.0443(12) 0.2495(17)
H60 H 0.7462(17) 1.0110(17) 0.2538(17)
O25 O 0.9377(2) 0.92900(12) -0.26008(12)
H61 H 0.905(3) 0.9222(16) -0.2933(13)
H62 H 0.933(3) 0.9649(10) -0.2496(17)
O26 O 0.9563(3) 0.75033(13) 0.24855(13)
H63 H 0.941(3) 0.7368(18) 0.2132(12)
H64 H 0.997(3) 0.7271(17) 0.2660(18)
O27 O 0.5668(2) 0.67819(12) 0.26944(12)
H65 H 0.598(3) 0.6760(17) 0.3036(12)
H66 H 0.576(3) 0.7119(11) 0.2536(16)
O28 O 0.8045(2) 1.26334(13) 0.76299(13)
H67 H 0.832(3) 1.2958(13) 0.7460(18)
H68 H 0.7456(18) 1.2578(17) 0.7441(18)
O29 O 0.6045(2) 0.95478(12) -0.13353(13)
H69 H 0.604(3) 0.9163(8) -0.1370(18)
H70 H 0.6590(19) 0.9598(16) -0.1130(17)
O30 O 0.4481(3) 1.00204(13) 0.24830(13)
H71 H 0.489(3) 1.0250(17) 0.2657(18)
H72 H 0.433(3) 1.0177(17) 0.2142(12)
loop_
_geom_bond_atom_site_label_1
_geom_bond_atom_site_label_2
_geom_bond_site_symmetry_1
_geom_bond_site_symmetry_2
Cd1 O14 1_555 1_555
Cd2 O13 1_555 1_555
Cd3 O7 1_555 1_555
Cd4 O3 1_555 1_555
O1 C1 1_555 1_555
O2 C1 1_555 1_555
O3 C4 1_555 1_555
O4 Cd4 1_555 1_555
O5 C5 1_555 1_555
O6 C5 1_555 1_555
O7 C8 1_555 1_555
O8 Cd3 1_555 1_555
O9 C14 1_555 1_555
O10 C25 1_555 1_555
O11 C31 1_555 1_555
O12 C31 1_555 1_555
O13 C34 1_555 1_555
O14 Cd2 1_555 1_555
O15 C35 1_555 1_555
O16 Cd4 1_555 1_555
O17 Cd2 1_555 1_555
O18 Cd2 1_555 1_555
O19 C44 1_555 1_555
O20 C55 1_555 1_555
N1 H1 1_555 1_555
N2 Cd3 1_555 1_555
N3 C18 1_555 1_555
N4 H2 1_555 1_555
N5 Cd1 1_555 1_555
N6 C20 1_555 1_555
N7 Cd3 1_555 1_555
N8 H3 1_555 1_555
N9 Cd4 1_555 1_555
N10 Cd2 1_555 1_555
N11 H4 1_555 1_555
N12 C57 1_555 1_555
C1 C2 1_555 1_555
C2 H5 1_555 1_555
H6 C2 1_555 1_555
C3 C2 1_555 1_555
H7 C3 1_555 1_555
H8 C3 1_555 1_555
C4 O4 1_555 1_555
C5 C6 1_555 1_555
C6 H9 1_555 1_555
H10 C6 1_555 1_555
C7 C6 1_555 1_555
H11 C7 1_555 1_555
H12 C7 1_555 1_555
C8 O8 1_555 1_555
C9 N2 1_555 1_555
H13 C9 1_555 1_555
C10 C9 1_555 1_555
H14 C10 1_555 1_555
C11 C10 1_555 1_555
H15 C11 1_555 1_555
C12 C11 1_555 1_555
C13 N2 1_555 1_555
H16 C13 1_555 1_555
C14 N1 1_555 1_555
C15 N1 1_555 1_555
C16 C15 1_555 1_555
H17 C16 1_555 1_555
C17 C16 1_555 1_555
H18 C17 1_555 1_555
C18 C17 1_555 1_555
H19 C18 1_555 1_555
C19 N3 1_555 1_555
H20 C19 1_555 1_555
C20 H21 1_555 1_555
C21 C20 1_555 1_555
H22 C21 1_555 1_555
C22 C21 1_555 1_555
H23 C22 1_555 1_555
C23 N4 1_555 1_555
C24 N6 1_555 1_555
H24 C24 1_555 1_555
C25 N4 1_555 1_555
C26 C25 1_555 1_555
C27 C26 1_555 1_555
H25 C27 1_555 1_555
C28 N5 1_555 1_555
H26 C28 1_555 1_555
C29 C27 1_555 1_555
H27 C29 1_555 1_555
C30 N5 1_555 1_555
H28 C30 1_555 1_555
C31 C32 1_555 1_555
C32 H29 1_555 1_555
H30 C32 1_555 1_555
C33 C32 1_555 1_555
H31 C33 1_555 1_555
H32 C33 1_555 1_555
C34 O14 1_555 1_555
C35 O16 1_555 1_555
C36 C35 1_555 1_555
H33 C36 1_555 1_555
H34 C36 1_555 1_555
C37 C36 1_555 1_555
H35 C37 1_555 1_555
H36 C37 1_555 1_555
C38 O17 1_555 1_555
C39 N9 1_555 1_555
H37 C39 1_555 1_555
C40 C39 1_555 1_555
H38 C40 1_555 1_555
C41 C40 1_555 1_555
H39 C41 1_555 1_555
C42 C41 1_555 1_555
C43 N9 1_555 1_555
H40 C43 1_555 1_555
C44 N8 1_555 1_555
C45 N8 1_555 1_555
C46 C45 1_555 1_555
H41 C46 1_555 1_555
C47 N7 1_555 1_555
H42 C47 1_555 1_555
C48 C46 1_555 1_555
H43 C48 1_555 1_555
C49 N7 1_555 1_555
H44 C49 1_555 1_555
C50 N10 1_555 1_555
H45 C50 1_555 1_555
C51 C50 1_555 1_555
H46 C51 1_555 1_555
C52 C51 1_555 1_555
H47 C52 1_555 1_555
C53 N11 1_555 1_555
C54 N10 1_555 1_555
H48 C54 1_555 1_555
C55 N11 1_555 1_555
C56 C55 1_555 1_555
C57 C56 1_555 1_555
H49 C57 1_555 1_555
C58 C56 1_555 1_555
H50 C58 1_555 1_555
C59 N12 1_555 1_555
H51 C59 1_555 1_555
C60 C58 1_555 1_555
H52 C60 1_555 1_555
O21 H53 1_555 1_555
H54 O21 1_555 1_555
O22 H55 1_555 1_555
H56 O22 1_555 1_555
O23 H57 1_555 1_555
H58 O23 1_555 1_555
O24 H59 1_555 1_555
H60 O24 1_555 1_555
O25 H61 1_555 1_555
H62 O25 1_555 1_555
O26 H63 1_555 1_555
H64 O26 1_555 1_555
O27 H65 1_555 1_555
H66 O27 1_555 1_555
O28 H67 1_555 1_555
H68 O28 1_555 1_555
O29 H69 1_555 1_555
H70 O29 1_555 1_555
O30 H71 1_555 1_555
H72 O30 1_555 1_555
Cd1A O5 1_555 1_555
Cd1B O1 1_555 1_555
Cd1C N6 1_555 1_555
Cd2B O2 1_555 1_555
Cd2C N12 1_555 1_555
Cd3B O7 1_555 1_555
Cd3C O11 1_555 1_555
Cd4_2 N3 1_555 1_555
Cd4B O16 1_555 1_555
O1B Cd1 1_555 1_555
O2B Cd1 1_555 1_555
O5A Cd1 1_555 1_555
O6A Cd1 1_555 1_555
O7B Cd3 1_555 1_555
O11C Cd3 1_555 1_555
O12C Cd3 1_555 1_555
O16B Cd4 1_555 1_555
N3_2 Cd4 1_555 1_555
N6C Cd1 1_555 1_555
N12C Cd2 1_555 1_555
Cd2 O2B 1_555 1_555
O2 Cd1B 1_555 1_555
O6 Cd1A 1_555 1_555
O12 Cd3C 1_555 1_555
O18 C38 1_555 1_555
C3 C4 1_555 1_555
C7 C8 1_555 1_555
C12 C13 1_555 1_555
C12 C14 1_555 1_555
C15 C19 1_555 1_555
C22 C23 1_555 1_555
C23 C24 1_555 1_555
C26 C28 1_555 1_555
C29 C30 1_555 1_555
C33 C34 1_555 1_555
C37 C38 1_555 1_555
C42 C43 1_555 1_555
C42 C44 1_555 1_555
C45 C47 1_555 1_555
C48 C49 1_555 1_555
C52 C53 1_555 1_555
C53 C54 1_555 1_555
C59 C60 1_555 1_555
Cd3B O7B 1_555 1_555
Cd4B O16B 1_555 1_555

#END
