
#######################################################################
#
#                 Cambridge Crystallographic Data Centre
#                                CCDC 
#
#######################################################################
#
# If this CIF has been generated from an entry in the Cambridge 
# Structural Database, then it will include bibliographic, chemical, 
# crystal, experimental, refinement or atomic coordinate data resulting 
# from the CCDC's data processing and validation procedures.
#
#######################################################################

data_KIJWOR
_symmetry_cell_setting           monoclinic
_symmetry_space_group_name_H-M   'P 21/n'
_symmetry_Int_Tables_number      14
_space_group_name_Hall           '-P 2yn'
loop_
_symmetry_equiv_pos_site_id
_symmetry_equiv_pos_as_xyz
1 x,y,z
2 1/2-x,1/2+y,1/2-z
3 -x,-y,-z
4 1/2+x,1/2-y,1/2+z
_cell_length_a                   6.7858(11)
_cell_length_b                   22.862(4)
_cell_length_c                   12.269(2)
_cell_angle_alpha                90
_cell_angle_beta                 91.970(2)
_cell_angle_gamma                90
_cell_volume                     1902.25
loop_
_atom_site_label
_atom_site_type_symbol
_atom_site_fract_x
_atom_site_fract_y
_atom_site_fract_z
Cd1 Cd 0.61163(5) 0.234331(12) 0.36010(2)
O1 O 0.6920(6) 0.44043(14) -0.0902(3)
O2 O 0.5646(4) 0.15515(13) 0.2197(2)
O3 O 0.3073(4) 0.19944(13) 0.2847(2)
O4 O -0.0727(4) 0.20807(13) -0.0166(2)
O5 O 0.9515(5) 0.24336(15) 0.3235(3)
H1 H 1.054(5) 0.2244(19) 0.307(4)
H2 H 0.985(7) 0.2769(12) 0.349(4)
O6 O 0.2486(4) 0.20130(13) 0.0064(2)
N1 N 0.6144(5) 0.31081(15) 0.2349(3)
N2 N 0.8381(5) 0.65908(15) 0.0153(3)
N3 N 0.7546(5) 0.50351(15) 0.0495(3)
H3 H 0.772(7) 0.506(2) 0.1207(17)
C1 C 0.6267(7) 0.36627(19) 0.2688(4)
H4 H 0.6150 0.3739 0.3444
C2 C 0.6552(7) 0.41267(19) 0.2008(4)
H5 H 0.6621 0.4513 0.2290
C3 C 0.6740(6) 0.40258(18) 0.0895(3)
C4 C 0.6285(6) 0.30134(18) 0.1275(4)
H6 H 0.6187 0.2623 0.1014
C5 C 0.6566(6) 0.34548(18) 0.0535(3)
H7 H 0.6639 0.3368 -0.0220
C6 C 0.7065(6) 0.45039(18) 0.0076(3)
C7 C 0.7879(6) 0.55559(18) -0.0080(3)
C8 C 0.8085(6) 0.56071(19) -0.1195(3)
H8 H 0.8010 0.5274 -0.1657
C9 C 0.8407(6) 0.61632(19) -0.1614(3)
H9 H 0.8526 0.6214 -0.2377
C10 C 0.8032(6) 0.60605(18) 0.0551(3)
H10 H 0.7878 0.6024 0.1314
C11 C 0.8555(6) 0.66406(19) -0.0934(3)
H11 H 0.8787 0.7015 -0.1239
C12 C 0.3797(6) 0.16030(17) 0.2263(3)
C13 C 0.2457(6) 0.11691(17) 0.1676(3)
H12 H 0.2150 0.0851 0.2191
H13 H 0.3184 0.0993 0.1072
C14 C 0.0521(6) 0.14173(18) 0.1211(3)
H14 H -0.0297 0.1092 0.0915
H15 H -0.0202 0.1601 0.1809
C15 C 0.0788(6) 0.18639(17) 0.0323(3)
Cd1A Cd 0.88837(5) 0.734331(12) 0.13990(2)
Cd1C Cd 0.11163(5) 0.265669(12) -0.13990(2)
O4C O 0.4273(4) 0.29193(13) 0.4834(2)
O6C O 0.7486(4) 0.29870(13) 0.5064(2)
N2A N 0.6619(5) 0.15908(15) 0.4847(3)
O7 O 0.5873(5) 0.14923(14) -0.0630(3)
H16 H 0.498(5) 0.160(2) -0.023(3)
H17 H 0.694(4) 0.166(2) -0.041(4)
O8 O 0.6756(6) 0.03579(15) 0.2089(3)
H18 H 0.592(6) 0.0156(18) 0.173(4)
H19 H 0.653(8) 0.0720(9) 0.202(4)
O9 O 0.6079(6) 0.02809(16) -0.0832(3)
H20 H 0.594(8) 0.0643(11) -0.070(5)
H21 H 0.728(4) 0.020(2) -0.090(5)
O10 O 0.9687(14) -0.0104(3) 0.0629(10)
loop_
_geom_bond_atom_site_label_1
_geom_bond_atom_site_label_2
_geom_bond_site_symmetry_1
_geom_bond_site_symmetry_2
Cd1 O2 1_555 1_555
O1 C6 1_555 1_555
O2 C12 1_555 1_555
O3 Cd1 1_555 1_555
O4 C15 1_555 1_555
O5 Cd1 1_555 1_555
H1 O5 1_555 1_555
H2 O5 1_555 1_555
O6 C15 1_555 1_555
N1 Cd1 1_555 1_555
N2 C10 1_555 1_555
N3 H3 1_555 1_555
C1 N1 1_555 1_555
H4 C1 1_555 1_555
C2 C1 1_555 1_555
H5 C2 1_555 1_555
C3 C2 1_555 1_555
C4 N1 1_555 1_555
H6 C4 1_555 1_555
C5 C3 1_555 1_555
H7 C5 1_555 1_555
C6 N3 1_555 1_555
C7 N3 1_555 1_555
C8 C7 1_555 1_555
H8 C8 1_555 1_555
C9 C8 1_555 1_555
H9 C9 1_555 1_555
C10 C7 1_555 1_555
H10 C10 1_555 1_555
C11 N2 1_555 1_555
H11 C11 1_555 1_555
C12 O3 1_555 1_555
C13 C12 1_555 1_555
H12 C13 1_555 1_555
H13 C13 1_555 1_555
C14 C13 1_555 1_555
H14 C14 1_555 1_555
H15 C14 1_555 1_555
C15 C14 1_555 1_555
O7 H16 1_555 1_555
H17 O7 1_555 1_555
O8 H18 1_555 1_555
H19 O8 1_555 1_555
O9 H20 1_555 1_555
H21 O9 1_555 1_555
Cd1A N2 1_555 1_555
Cd1C O4 1_555 1_555
O4C Cd1 1_555 1_555
O6C Cd1 1_555 1_555
N2A Cd1 1_555 1_555
O6 Cd1C 1_555 1_555
C3 C6 1_555 1_555
C4 C5 1_555 1_555
C9 C11 1_555 1_555

#END
