
#######################################################################
#
#                 Cambridge Crystallographic Data Centre
#                                CCDC 
#
#######################################################################
#
# If this CIF has been generated from an entry in the Cambridge 
# Structural Database, then it will include bibliographic, chemical, 
# crystal, experimental, refinement or atomic coordinate data resulting 
# from the CCDC's data processing and validation procedures.
#
#######################################################################

data_KIJYIM01
_symmetry_cell_setting           monoclinic
_symmetry_space_group_name_H-M   'P 21/c'
_symmetry_Int_Tables_number      14
_space_group_name_Hall           '-P 2ybc'
loop_
_symmetry_equiv_pos_site_id
_symmetry_equiv_pos_as_xyz
1 x,y,z
2 -x,1/2+y,1/2-z
3 -x,-y,-z
4 x,1/2-y,1/2+z
_cell_length_a                   8.8545(7)
_cell_length_b                   6.0762(5)
_cell_length_c                   15.7520(13)
_cell_angle_alpha                90
_cell_angle_beta                 92.8780(10)
_cell_angle_gamma                90
_cell_volume                     846.416
loop_
_atom_site_label
_atom_site_type_symbol
_atom_site_fract_x
_atom_site_fract_y
_atom_site_fract_z
Ag1 Ag 0.63874(8) 0.19512(9) 0.19090(4)
N1 N 0.7009(8) 0.4173(10) 0.0788(4)
O1 O 0.4987(7) 0.5657(9) 0.1984(4)
O2 O 0.8047(7) -0.1317(11) 0.2210(5)
C1 C 0.6332(8) 0.6162(12) 0.0702(5)
C2 C 0.7944(9) 0.3599(16) 0.0188(5)
C3 C 0.5201(9) 0.6917(12) 0.1354(5)
Ag2 Ag 0.74632(7) -0.43635(11) 0.32035(4)
N2 N 0.9421(8) -0.1077(10) 0.2009(5)
C4 C 0.6601(10) 0.7538(13) 0.0029(5)
C5 C 0.8208(11) 0.4977(15) -0.0507(5)
H1 H 0.8436 0.2248 0.0230
O3 O 0.4576(7) 0.8731(10) 0.1204(3)
N3 N 0.7541(8) -0.1923(11) 0.4408(4)
O4 O 0.9555(8) -0.6181(12) 0.2427(5)
O5 O 0.9734(10) -0.0775(12) 0.1256(5)
H2 H 0.6134 0.8909 -0.0003
H3 H 0.8863 0.4514 -0.0914
O1A O 0.5013(7) 0.0657(9) 0.3016(4)
Ag1A Ag 0.36126(8) 0.69512(9) 0.30910(4)
O3A O 0.5424(7) -0.6269(10) 0.3796(3)
O4A O 1.0445(8) -0.1181(12) 0.2573(5)
N3C N 0.7541(8) 0.6923(11) -0.0592(4)
Ag2A Ag 0.25368(7) 1.06365(11) 0.17965(4)
Ag2A_2 Ag 1.25368(7) 0.06365(11) 0.17965(4)
Ag2C Ag 0.74632(7) 0.93635(11) -0.17965(4)
loop_
_geom_bond_atom_site_label_1
_geom_bond_atom_site_label_2
_geom_bond_site_symmetry_1
_geom_bond_site_symmetry_2
Ag1 N1 1_555 1_555
N1 C1 1_555 1_555
O1 Ag1 1_555 1_555
O2 Ag1 1_555 1_555
C1 C3 1_555 1_555
C2 N1 1_555 1_555
C3 O1 1_555 1_555
Ag2 O2 1_555 1_555
N2 O2 1_555 1_555
C4 C1 1_555 1_555
C5 C2 1_555 1_555
H1 C2 1_555 1_555
O3 C3 1_555 1_555
N3 Ag2 1_555 1_555
O4 Ag2 1_555 1_555
O5 N2 1_555 1_555
H2 C4 1_555 1_555
H3 C5 1_555 1_555
O1A Ag1 1_555 1_555
Ag1A O1 1_555 1_555
O3A Ag2 1_555 1_555
O4A N2 1_555 1_555
N3C C4 1_555 1_555
Ag2A O3 1_555 1_555
Ag2A_2 O4A 1_555 1_555
Ag2C N3C 1_555 1_555
C5 N3C 1_555 1_555

#END
