
#######################################################################
#
#                 Cambridge Crystallographic Data Centre
#                                CCDC 
#
#######################################################################
#
# If this CIF has been generated from an entry in the Cambridge 
# Structural Database, then it will include bibliographic, chemical, 
# crystal, experimental, refinement or atomic coordinate data resulting 
# from the CCDC's data processing and validation procedures.
#
#######################################################################

data_KIJYIM
_symmetry_cell_setting           monoclinic
_symmetry_space_group_name_H-M   'P 21/c'
_symmetry_Int_Tables_number      14
_space_group_name_Hall           '-P 2ybc'
loop_
_symmetry_equiv_pos_site_id
_symmetry_equiv_pos_as_xyz
1 x,y,z
2 -x,1/2+y,1/2-z
3 -x,-y,-z
4 x,1/2-y,1/2+z
_cell_length_a                   8.8263(6)
_cell_length_b                   5.9804(4)
_cell_length_c                   15.3032(11)
_cell_angle_alpha                90
_cell_angle_beta                 93.480(2)
_cell_angle_gamma                90
_cell_volume                     806.287
loop_
_atom_site_label
_atom_site_type_symbol
_atom_site_fract_x
_atom_site_fract_y
_atom_site_fract_z
Ag1 Ag 0.36377(5) 0.31527(7) 0.81236(3)
Ag2 Ag 0.25055(5) -0.45752(8) 1.18028(3)
C1 C 0.3658(6) -0.1134(9) 0.9301(4)
C2 C 0.3359(6) -0.2578(10) 0.9977(4)
H1 H 0.3833 -0.4005 0.9997
C3 C 0.1764(6) -0.0017(10) 1.0530(4)
H2 H 0.1110 0.0454 1.0965
C4 C 0.2007(7) 0.1392(10) 0.9841(4)
H3 H 0.1472 0.2770 0.9797
C5 C 0.4786(6) -0.1851(10) 0.8646(4)
N1 N 0.2985(6) 0.0872(8) 0.9224(3)
N2 N 0.2423(5) -0.2037(8) 1.0606(3)
N3 N 0.0623(6) 0.6116(8) 0.7983(3)
O1 O 0.5008(5) -0.0552(7) 0.8019(3)
O2 O 0.5427(4) -0.3689(7) 0.8800(2)
O3 O -0.0463(5) 0.6172(7) 0.7408(3)
O4 O 0.0353(5) 0.5837(8) 0.8769(3)
O5 O 0.1959(4) 0.6354(7) 0.7759(3)
Ag1A Ag 0.63623(5) -0.18473(7) 0.68764(3)
Ag1_2 Ag 0.36377(5) -0.68473(7) 0.81236(3)
Ag2C Ag 0.25055(5) -0.04248(8) 0.68028(3)
Ag2B Ag 0.74945(5) -0.54248(8) 0.81972(3)
Ag2B_2 Ag -0.25055(5) 0.45752(8) 0.81972(3)
Ag2C_2 Ag 0.25055(5) 0.95752(8) 0.68028(3)
O1A O 0.4992(5) 0.4448(7) 0.6981(3)
O1C O 0.5008(5) -0.4448(7) 1.3019(3)
O2_2 O 0.5427(4) 0.6311(7) 0.8800(2)
O2B O 0.4573(4) -0.6311(7) 1.1200(2)
O3B O 0.0463(5) -0.6172(7) 1.2592(3)
O4B O -0.0353(5) -0.5837(8) 1.1231(3)
O5C O 0.1959(4) -0.1354(7) 1.2759(3)
loop_
_geom_bond_atom_site_label_1
_geom_bond_atom_site_label_2
_geom_bond_site_symmetry_1
_geom_bond_site_symmetry_2
Ag1 N1 1_555 1_555
Ag2 N2 1_555 1_555
C1 C2 1_555 1_555
C2 H1 1_555 1_555
C3 H2 1_555 1_555
C4 C3 1_555 1_555
H3 C4 1_555 1_555
C5 C1 1_555 1_555
N1 C1 1_555 1_555
N2 C2 1_555 1_555
N3 O3 1_555 1_555
O1 Ag1 1_555 1_555
O2 C5 1_555 1_555
O3 Ag2B_2 1_555 1_555
O4 N3 1_555 1_555
O5 Ag1 1_555 1_555
Ag1A O1 1_555 1_555
Ag1_2 O2 1_555 1_555
Ag2C O1 1_555 1_555
Ag2B O2 1_555 1_555
Ag2B_2 O4 1_555 1_555
Ag2C_2 O5 1_555 1_555
O1A Ag1 1_555 1_555
O1C Ag2 1_555 1_555
O2_2 Ag1 1_555 1_555
O2B Ag2 1_555 1_555
O3B Ag2 1_555 1_555
O4B Ag2 1_555 1_555
O5C Ag2 1_555 1_555
C3 N2 1_555 1_555
C4 N1 1_555 1_555
C5 O1 1_555 1_555
N3 O5 1_555 1_555

#END
