
#######################################################################
#
#                 Cambridge Crystallographic Data Centre
#                                CCDC 
#
#######################################################################
#
# If this CIF has been generated from an entry in the Cambridge 
# Structural Database, then it will include bibliographic, chemical, 
# crystal, experimental, refinement or atomic coordinate data resulting 
# from the CCDC's data processing and validation procedures.
#
#######################################################################

data_KIJZEJ
_symmetry_cell_setting           monoclinic
_symmetry_space_group_name_H-M   'P 21/n'
_symmetry_Int_Tables_number      14
_space_group_name_Hall           '-P 2yn'
loop_
_symmetry_equiv_pos_site_id
_symmetry_equiv_pos_as_xyz
1 x,y,z
2 1/2-x,1/2+y,1/2-z
3 -x,-y,-z
4 1/2+x,1/2-y,1/2+z
_cell_length_a                   9.7720(10)
_cell_length_b                   22.761(3)
_cell_length_c                   9.8320(10)
_cell_angle_alpha                90
_cell_angle_beta                 100.020(10)
_cell_angle_gamma                90
_cell_volume                     2153.48
loop_
_atom_site_label
_atom_site_type_symbol
_atom_site_fract_x
_atom_site_fract_y
_atom_site_fract_z
Ho1 Ho 0.481566(14) 0.501123(7) 0.758702(13)
O1 O 0.3005(2) 0.52755(10) 0.5758(2)
O2 O 0.3446(2) 0.48881(9) 0.3815(2)
O3 O 0.3698(3) 0.54166(10) 0.9282(2)
O4 O 0.3944(3) 0.58076(11) 1.1353(2)
O5 O 0.5125(2) 0.60754(10) 0.7181(2)
O6 O 0.6608(2) 0.56728(9) 0.8857(2)
N1 N -0.2838(3) 0.57271(13) 0.1850(3)
N2 N 0.1092(4) 0.79410(17) 0.7699(5)
N3 N 0.8320(4) 0.83857(14) 0.9754(3)
C1 C 0.0375(3) 0.56663(14) 0.4452(3)
H1 H 0.0687 0.5791 0.5354
C2 C -0.0937(3) 0.58147(13) 0.3808(3)
H2 H -0.1493 0.6049 0.4263
C3 C -0.1444(3) 0.56162(14) 0.2473(3)
C4 C -0.0586(3) 0.52806(16) 0.1795(3)
H3 H -0.0911 0.5148 0.0903
C5 C 0.0748(4) 0.51421(14) 0.2436(3)
H4 H 0.1318 0.4920 0.1971
C6 C 0.1244(3) 0.53352(14) 0.3786(3)
C7 C 0.2652(3) 0.51582(12) 0.4497(3)
C8 C 0.2766(4) 0.68773(15) 1.0271(4)
H5 H 0.3135 0.6867 1.1209
C9 C 0.2192(4) 0.73920(16) 0.9689(4)
H6 H 0.2185 0.7725 1.0237
C10 C 0.1626(4) 0.74188(15) 0.8301(4)
C11 C 0.1606(4) 0.69082(16) 0.7522(4)
H7 H 0.1184 0.6912 0.6599
C12 C 0.2196(4) 0.64017(15) 0.8089(3)
H8 H 0.2193 0.6069 0.7538
C13 C 0.2802(3) 0.63734(14) 0.9478(3)
C14 C 0.3513(3) 0.58321(14) 1.0068(3)
C15 C 0.8018(4) 0.67744(15) 0.9384(3)
H9 H 0.8548 0.6442 0.9657
C16 C 0.8547(4) 0.73237(15) 0.9764(4)
H10 H 0.9433 0.7358 1.0286
C17 C 0.7770(4) 0.78271(14) 0.9375(3)
C18 C 0.6457(4) 0.77666(15) 0.8593(4)
H11 H 0.5922 0.8098 0.8326
C19 C 0.5935(4) 0.72156(15) 0.8207(4)
H12 H 0.5053 0.7182 0.7676
C20 C 0.6701(4) 0.67137(14) 0.8595(3)
C21 C 0.6117(3) 0.61238(14) 0.8182(3)
O7 O 0.4542(3) 0.41368(11) 0.5947(2)
H13 H -0.292(4) 0.5723(15) 0.0963(11)
H14 H -0.311(3) 0.6058(8) 0.210(3)
H15 H 0.067(3) 0.8143(14) 0.822(3)
H16 H 0.062(4) 0.792(2) 0.689(2)
H17 H 0.888(3) 0.8377(15) 1.0532(19)
H18 H 0.768(3) 0.8636(14) 0.981(3)
H19 H 0.520(3) 0.3920(16) 0.590(5)
H20 H 0.427(4) 0.4282(16) 0.519(2)
Ho1B Ho 0.518434(14) 0.498877(7) 0.241298(13)
Ho1B_2 Ho 0.518434(14) 0.498877(7) 1.241298(13)
Ho1B_3 Ho -0.481566(14) 0.498877(7) 0.241298(13)
O2B O 0.6554(2) 0.51119(9) 0.6185(2)
O4B O 0.6056(3) 0.41924(11) 0.8647(2)
N1B N 0.2838(3) 0.42729(13) 0.8150(3)
H13B H 0.292(4) 0.4277(15) 0.9037(11)
H14B H 0.311(3) 0.3942(8) 0.790(3)
loop_
_geom_bond_atom_site_label_1
_geom_bond_atom_site_label_2
_geom_bond_site_symmetry_1
_geom_bond_site_symmetry_2
Ho1 O1 1_555 1_555
O1 C7 1_555 1_555
O2 C7 1_555 1_555
O3 Ho1 1_555 1_555
O4 C14 1_555 1_555
O5 Ho1 1_555 1_555
O6 Ho1 1_555 1_555
N1 C3 1_555 1_555
N2 C10 1_555 1_555
N3 C17 1_555 1_555
C1 H1 1_555 1_555
C2 C1 1_555 1_555
H2 C2 1_555 1_555
C3 C2 1_555 1_555
C4 C3 1_555 1_555
H3 C4 1_555 1_555
C5 C4 1_555 1_555
H4 C5 1_555 1_555
C6 C1 1_555 1_555
C7 C6 1_555 1_555
C8 H5 1_555 1_555
C9 C8 1_555 1_555
H6 C9 1_555 1_555
C10 C9 1_555 1_555
C11 C10 1_555 1_555
H7 C11 1_555 1_555
C12 C11 1_555 1_555
H8 C12 1_555 1_555
C13 C8 1_555 1_555
C14 O3 1_555 1_555
C15 H9 1_555 1_555
C16 C15 1_555 1_555
H10 C16 1_555 1_555
C17 C16 1_555 1_555
C18 C17 1_555 1_555
H11 C18 1_555 1_555
C19 C18 1_555 1_555
H12 C19 1_555 1_555
C20 C15 1_555 1_555
C21 O5 1_555 1_555
O7 Ho1 1_555 1_555
H13 N1 1_555 1_555
H14 N1 1_555 1_555
H15 N2 1_555 1_555
H16 N2 1_555 1_555
H17 N3 1_555 1_555
H18 N3 1_555 1_555
H19 O7 1_555 1_555
H20 O7 1_555 1_555
Ho1B O2 1_555 1_555
Ho1B_2 O4 1_555 1_555
Ho1B_3 N1 1_555 1_555
O2B Ho1 1_555 1_555
O4B Ho1 1_555 1_555
N1B Ho1 1_555 1_555
H13B N1B 1_555 1_555
H14B N1B 1_555 1_555
O6 C21 1_555 1_555
C5 C6 1_555 1_555
C12 C13 1_555 1_555
C13 C14 1_555 1_555
C19 C20 1_555 1_555
C20 C21 1_555 1_555

#END
