
#######################################################################
#
#                 Cambridge Crystallographic Data Centre
#                                CCDC 
#
#######################################################################
#
# If this CIF has been generated from an entry in the Cambridge 
# Structural Database, then it will include bibliographic, chemical, 
# crystal, experimental, refinement or atomic coordinate data resulting 
# from the CCDC's data processing and validation procedures.
#
#######################################################################

data_KIJZIN
_symmetry_cell_setting           triclinic
_symmetry_space_group_name_H-M   'P -1'
_symmetry_Int_Tables_number      2
_space_group_name_Hall           '-P 1'
loop_
_symmetry_equiv_pos_site_id
_symmetry_equiv_pos_as_xyz
1 x,y,z
2 -x,-y,-z
_cell_length_a                   9.4165(3)
_cell_length_b                   9.8777(3)
_cell_length_c                   15.2418(5)
_cell_angle_alpha                80.7050(10)
_cell_angle_beta                 72.9900(10)
_cell_angle_gamma                75.5190(10)
_cell_volume                     1306.61
loop_
_atom_site_label
_atom_site_type_symbol
_atom_site_fract_x
_atom_site_fract_y
_atom_site_fract_z
Zn1 Zn 0.24424(4) 0.91047(3) 0.30445(2)
Zn2 Zn 0.30801(3) 1.12768(3) 0.10530(2)
O1 O 0.5236(2) 1.0389(2) 0.10058(15)
O2 O 0.4608(2) 0.8956(2) 0.22778(14)
O3 O 0.1155(2) 1.10300(19) 0.32168(15)
O4 O 0.2380(2) 1.2418(2) 0.21163(15)
O5 O 0.2433(3) 1.7031(2) 0.29929(16)
O6 O 0.0313(3) 1.8241(2) 0.3759(2)
O7 O 1.2099(2) 0.9677(2) 0.12935(19)
O8 O 1.0359(3) 1.1476(2) 0.09523(18)
N1 N 0.3400(2) 0.2901(2) 1.00864(16)
N2 N 0.3140(3) 0.8916(2) 0.42573(18)
C1 C 0.5553(3) 0.9446(3) 0.1619(2)
C2 C 0.3959(3) 0.5303(3) 0.8922(2)
C3 C 0.1435(3) 1.2198(3) 0.2870(2)
C4 C 0.0580(3) 1.3460(3) 0.3379(2)
C5 C 0.7206(3) 0.8859(3) 0.15572(19)
C6 C 0.8239(3) 0.9735(3) 0.1293(2)
H1 H 0.7918 1.0679 0.1107
C7 C 0.9741(3) 0.9211(3) 0.1305(2)
C8 C 1.0772(3) 1.0214(3) 0.1158(2)
C9 C 0.2393(3) 0.9684(3) 0.4961(2)
H2 H 0.1567 1.0402 0.4894
C10 C 0.1208(3) 1.4650(3) 0.3214(2)
H3 H 0.2167 1.4635 0.2811
C11 C 0.0412(3) 1.5849(3) 0.3647(2)
C12 C 0.4767(3) 0.2924(3) 0.9503(2)
H4 H 0.5540 0.2125 0.9499
C13 C 0.4312(4) 0.6593(3) 0.8317(2)
H5 H 0.5396 0.6541 0.8178
H6 H 0.3797 0.7403 0.8659
C14 C 0.3868(4) 0.6832(3) 0.7417(2)
H7 H 0.2770 0.7006 0.7545
H8 H 0.4296 0.5994 0.7093
C15 C 0.2786(4) 0.9464(3) 0.5782(2)
H9 H 0.2233 1.0031 0.6253
C16 C 0.7711(3) 0.7437(3) 0.1791(2)
H10 H 0.7021 0.6852 0.1996
C17 C 0.2297(3) 0.4065(3) 1.0089(2)
H11 H 0.1340 0.4056 1.0489
C18 C 1.0247(3) 0.7780(3) 0.1493(2)
H12 H 1.1268 0.7414 0.1467
C19 C 0.3998(3) 0.8405(3) 0.5909(2)
C20 C 0.5074(3) 0.4081(3) 0.8911(2)
H13 H 0.6032 0.4045 0.8502
C21 C 0.9238(4) 0.6891(3) 0.1719(3)
H14 H 0.9589 0.5927 0.1823
C22 C 0.2527(3) 0.5271(3) 0.9525(2)
H15 H 0.1736 0.6057 0.9546
C23 C -0.1021(4) 1.5875(3) 0.4233(3)
H16 H -0.1569 1.6685 0.4514
C24 C 0.4332(4) 0.7888(3) 0.4376(2)
H17 H 0.4881 0.7343 0.3893
C25 C 0.4438(4) 0.8087(3) 0.6804(2)
H18 H 0.4035 0.8912 0.7142
H19 H 0.5538 0.7896 0.6671
C26 C 0.4765(4) 0.7614(3) 0.5178(2)
H20 H 0.5588 0.6886 0.5233
C27 C -0.0833(4) 1.3491(3) 0.3989(3)
H21 H -0.1243 1.2693 0.4124
C28 C -0.1645(4) 1.4701(3) 0.4403(3)
H22 H -0.2612 1.4724 0.4797
C29 C 0.1086(4) 1.7124(3) 0.3468(2)
Zn1_2 Zn 0.24424(4) 1.91047(3) 0.30445(2)
Zn2_2 Zn 1.30801(3) 1.12768(3) 0.10530(2)
Zn2_3 Zn 0.30801(3) 0.12768(3) 1.10530(2)
O5_2 O 0.2433(3) 0.7031(2) 0.29929(16)
O6_2 O 0.0313(3) 0.8241(2) 0.3759(2)
O7_2 O 0.2099(2) 0.9677(2) 0.12935(19)
N1_2 N 0.3400(2) 1.2901(2) 0.00864(16)
loop_
_geom_bond_atom_site_label_1
_geom_bond_atom_site_label_2
_geom_bond_site_symmetry_1
_geom_bond_site_symmetry_2
Zn1 O2 1_555 1_555
Zn2 O1 1_555 1_555
O1 C1 1_555 1_555
O2 C1 1_555 1_555
O3 Zn1 1_555 1_555
O4 Zn2 1_555 1_555
O5 C29 1_555 1_555
O6 C29 1_555 1_555
O7 C8 1_555 1_555
O8 C8 1_555 1_555
N1 C12 1_555 1_555
N2 Zn1 1_555 1_555
C1 C5 1_555 1_555
C2 C13 1_555 1_555
C3 O3 1_555 1_555
C4 C3 1_555 1_555
C5 C6 1_555 1_555
C6 H1 1_555 1_555
C7 C6 1_555 1_555
C8 C7 1_555 1_555
C9 N2 1_555 1_555
H2 C9 1_555 1_555
C10 C4 1_555 1_555
H3 C10 1_555 1_555
C11 C10 1_555 1_555
C12 H4 1_555 1_555
C13 H5 1_555 1_555
H6 C13 1_555 1_555
C14 C13 1_555 1_555
H7 C14 1_555 1_555
H8 C14 1_555 1_555
C15 C9 1_555 1_555
H9 C15 1_555 1_555
C16 C5 1_555 1_555
H10 C16 1_555 1_555
C17 N1 1_555 1_555
H11 C17 1_555 1_555
C18 C7 1_555 1_555
H12 C18 1_555 1_555
C19 C15 1_555 1_555
C20 C2 1_555 1_555
H13 C20 1_555 1_555
C21 C16 1_555 1_555
H14 C21 1_555 1_555
C22 C2 1_555 1_555
H15 C22 1_555 1_555
C23 C11 1_555 1_555
H16 C23 1_555 1_555
C24 N2 1_555 1_555
H17 C24 1_555 1_555
C25 C14 1_555 1_555
H18 C25 1_555 1_555
H19 C25 1_555 1_555
C26 C19 1_555 1_555
H20 C26 1_555 1_555
C27 C4 1_555 1_555
H21 C27 1_555 1_555
C28 C23 1_555 1_555
H22 C28 1_555 1_555
C29 C11 1_555 1_555
Zn1_2 O5 1_555 1_555
Zn2_2 O7 1_555 1_555
Zn2_3 N1 1_555 1_555
O5_2 Zn1 1_555 1_555
O6_2 Zn1 1_555 1_555
O7_2 Zn2 1_555 1_555
N1_2 Zn2 1_555 1_555
O4 C3 1_555 1_555
O6 Zn1_2 1_555 1_555
C12 C20 1_555 1_555
C17 C22 1_555 1_555
C18 C21 1_555 1_555
C19 C25 1_555 1_555
C24 C26 1_555 1_555
C27 C28 1_555 1_555

#END
