
#######################################################################
#
#                 Cambridge Crystallographic Data Centre
#                                CCDC 
#
#######################################################################
#
# If this CIF has been generated from an entry in the Cambridge 
# Structural Database, then it will include bibliographic, chemical, 
# crystal, experimental, refinement or atomic coordinate data resulting 
# from the CCDC's data processing and validation procedures.
#
#######################################################################

data_KIJZOT
_symmetry_cell_setting           triclinic
_symmetry_space_group_name_H-M   'P -1'
_symmetry_Int_Tables_number      2
_space_group_name_Hall           '-P 1'
loop_
_symmetry_equiv_pos_site_id
_symmetry_equiv_pos_as_xyz
1 x,y,z
2 -x,-y,-z
_cell_length_a                   9.3705(6)
_cell_length_b                   9.9598(7)
_cell_length_c                   15.0310(10)
_cell_angle_alpha                81.334(2)
_cell_angle_beta                 72.739(2)
_cell_angle_gamma                76.0150(10)
_cell_volume                     1295.2
loop_
_atom_site_label
_atom_site_type_symbol
_atom_site_fract_x
_atom_site_fract_y
_atom_site_fract_z
Co1 Co 0.75864(4) 0.08878(3) 0.20151(2)
Co2 Co 0.68764(4) -0.12244(3) 0.39787(3)
O1 O 0.88439(18) -0.10487(16) 0.17578(12)
O2 O 0.7618(2) -0.23941(17) 0.29052(13)
O3 O 0.74129(19) -0.69493(17) 0.20116(13)
O4 O 0.95949(19) -0.82411(17) 0.13263(14)
O5 O 0.46794(18) -0.03594(17) 0.40657(13)
O6 O 0.53562(18) 0.09259(18) 0.27191(12)
O7 O -0.0666(2) -0.1274(2) 0.40799(15)
O8 O -0.21808(18) 0.04965(18) 0.35554(14)
N1 N 0.6565(2) 0.7103(2) -0.50763(14)
N2 N 0.6932(2) 0.1098(2) 0.07549(15)
C1 C 0.8557(3) -0.2205(2) 0.21317(19)
C2 C 0.9401(3) -0.3475(2) 0.16182(18)
C3 C 1.0840(3) -0.3529(3) 0.1012(2)
H1 H 1.1272 -0.2749 0.0877
C4 C 1.1645(3) -0.4750(3) 0.0602(2)
H2 H 1.2622 -0.4790 0.0202
C5 C 1.0996(3) -0.5902(3) 0.0787(2)
H3 H 1.1546 -0.6723 0.0522
C6 C 0.9530(3) -0.5839(2) 0.13643(19)
C7 C 0.8744(3) -0.4627(2) 0.17912(18)
H4 H 0.7770 -0.4590 0.2196
C8 C 0.8807(3) -0.7078(3) 0.15697(19)
C9 C 0.4390(3) 0.0523(2) 0.34116(18)
C10 C 0.2745(2) 0.1136(2) 0.34641(17)
C11 C 0.1654(3) 0.0318(2) 0.37069(17)
H5 H 0.1922 -0.0618 0.3899
C12 C 0.0172(3) 0.0886(3) 0.36648(18)
C13 C -0.0260(3) 0.2304(3) 0.3471(2)
H6 H -0.1269 0.2700 0.3477
C14 C 0.0800(3) 0.3136(3) 0.3270(2)
H7 H 0.0497 0.4094 0.3168
C15 C 0.2300(3) 0.2547(3) 0.32221(18)
H8 H 0.3029 0.3097 0.3026
C16 C -0.0932(3) -0.0037(3) 0.37848(19)
C17 C 0.7692(3) 0.5961(3) -0.51108(19)
H9 H 0.8648 0.6000 -0.5521
C18 C 0.7500(3) 0.4749(3) -0.45727(19)
H10 H 0.8312 0.3987 -0.4624
C19 C 0.6089(3) 0.4654(2) -0.39479(18)
C20 C 0.4945(3) 0.5843(3) -0.39036(18)
H11 H 0.3989 0.5842 -0.3484
C21 C 0.5211(3) 0.7016(2) -0.44721(18)
H12 H 0.4414 0.7788 -0.4437
C22 C 0.5777(3) 0.3352(3) -0.33527(19)
H13 H 0.6350 0.2563 -0.3707
H14 H 0.4700 0.3351 -0.3228
C23 C 0.6170(3) 0.3150(3) -0.24304(19)
H15 H 0.5701 0.3980 -0.2101
H16 H 0.7268 0.3011 -0.2546
C24 C 0.5616(3) 0.1900(3) -0.18189(19)
H17 H 0.4511 0.2072 -0.1678
H18 H 0.6028 0.1089 -0.2172
C25 C 0.6061(3) 0.1586(3) -0.09174(19)
C26 C 0.7264(3) 0.0545(3) -0.07919(19)
H19 H 0.7812 -0.0021 -0.1272
C27 C 0.7672(3) 0.0328(3) 0.00318(19)
H20 H 0.8497 -0.0384 0.0090
C28 C 0.5746(3) 0.2116(3) 0.06415(19)
H21 H 0.5206 0.2664 0.1132
C29 C 0.5304(3) 0.2376(3) -0.0166(2)
H22 H 0.4480 0.3096 -0.0213
Co1_2 Co 0.75864(4) -0.91122(3) 0.20151(2)
Co1_3 Co -0.24136(4) 0.08878(3) 0.20151(2)
Co2_2 Co -0.31236(4) -0.12244(3) 0.39787(3)
Co2_3 Co 0.68764(4) 0.87756(3) -0.60213(3)
O3_2 O 0.74129(19) 0.30507(17) 0.20116(13)
O4_2 O 0.95949(19) 0.17589(17) 0.13263(14)
O7_2 O 0.9334(2) -0.1274(2) 0.40799(15)
O8_2 O 0.78192(18) 0.04965(18) 0.35554(14)
N1_2 N 0.6565(2) -0.2897(2) 0.49237(14)
loop_
_geom_bond_atom_site_label_1
_geom_bond_atom_site_label_2
_geom_bond_site_symmetry_1
_geom_bond_site_symmetry_2
Co1 O1 1_555 1_555
Co2 O2 1_555 1_555
O1 C1 1_555 1_555
O2 C1 1_555 1_555
O3 C8 1_555 1_555
O4 C8 1_555 1_555
O5 Co2 1_555 1_555
O6 Co1 1_555 1_555
O7 C16 1_555 1_555
O8 C16 1_555 1_555
N1 C17 1_555 1_555
N2 Co1 1_555 1_555
C1 C2 1_555 1_555
C2 C3 1_555 1_555
C3 H1 1_555 1_555
C4 C3 1_555 1_555
H2 C4 1_555 1_555
C5 C4 1_555 1_555
H3 C5 1_555 1_555
C6 C5 1_555 1_555
C7 C2 1_555 1_555
H4 C7 1_555 1_555
C8 C6 1_555 1_555
C9 O5 1_555 1_555
C10 C9 1_555 1_555
C11 C10 1_555 1_555
H5 C11 1_555 1_555
C12 C11 1_555 1_555
C13 C12 1_555 1_555
H6 C13 1_555 1_555
C14 C13 1_555 1_555
H7 C14 1_555 1_555
C15 C10 1_555 1_555
H8 C15 1_555 1_555
C16 C12 1_555 1_555
C17 H9 1_555 1_555
C18 C17 1_555 1_555
H10 C18 1_555 1_555
C19 C18 1_555 1_555
C20 C19 1_555 1_555
H11 C20 1_555 1_555
C21 N1 1_555 1_555
H12 C21 1_555 1_555
C22 C19 1_555 1_555
H13 C22 1_555 1_555
H14 C22 1_555 1_555
C23 C22 1_555 1_555
H15 C23 1_555 1_555
H16 C23 1_555 1_555
C24 C23 1_555 1_555
H17 C24 1_555 1_555
H18 C24 1_555 1_555
C25 C24 1_555 1_555
C26 C25 1_555 1_555
H19 C26 1_555 1_555
C27 N2 1_555 1_555
H20 C27 1_555 1_555
C28 N2 1_555 1_555
H21 C28 1_555 1_555
C29 C25 1_555 1_555
H22 C29 1_555 1_555
Co1_2 O3 1_555 1_555
Co1_3 O8 1_555 1_555
Co2_2 O7 1_555 1_555
Co2_3 N1 1_555 1_555
O3_2 Co1 1_555 1_555
O4_2 Co1 1_555 1_555
O7_2 Co2 1_555 1_555
O8_2 Co1 1_555 1_555
N1_2 Co2 1_555 1_555
Co2 O8_2 1_555 1_555
O4 Co1_2 1_555 1_555
O6 C9 1_555 1_555
O8 Co2_2 1_555 1_555
C6 C7 1_555 1_555
C14 C15 1_555 1_555
C20 C21 1_555 1_555
C26 C27 1_555 1_555
C28 C29 1_555 1_555

#END
