
#######################################################################
#
#                 Cambridge Crystallographic Data Centre
#                                CCDC 
#
#######################################################################
#
# If this CIF has been generated from an entry in the Cambridge 
# Structural Database, then it will include bibliographic, chemical, 
# crystal, experimental, refinement or atomic coordinate data resulting 
# from the CCDC's data processing and validation procedures.
#
#######################################################################

data_KIKBIR
_symmetry_cell_setting           orthorhombic
_symmetry_space_group_name_H-M   'P 21 21 21'
_symmetry_Int_Tables_number      19
_space_group_name_Hall           'P 2ac 2ab'
loop_
_symmetry_equiv_pos_site_id
_symmetry_equiv_pos_as_xyz
1 x,y,z
2 1/2-x,-y,1/2+z
3 1/2+x,1/2-y,-z
4 -x,1/2+y,1/2-z
_cell_length_a                   10.877(2)
_cell_length_b                   10.898(2)
_cell_length_c                   14.101(3)
_cell_angle_alpha                90
_cell_angle_beta                 90
_cell_angle_gamma                90
_cell_volume                     1671.5
loop_
_atom_site_label
_atom_site_type_symbol
_atom_site_fract_x
_atom_site_fract_y
_atom_site_fract_z
Cd1 Cd -0.435019(14) -0.268712(16) -0.130493(12)
N1 N -0.29918(19) -0.2391(2) -0.01592(15)
O1 O -0.24749(18) -0.2101(2) -0.21214(14)
N2 N -0.32059(19) -0.2800(2) 0.07378(16)
N3 N -0.21920(19) -0.2743(2) 0.12270(16)
N4 N -0.1155(2) -0.1610(3) -0.09287(18)
S1 S -0.12267(9) -0.07188(10) -0.36555(7)
N5 N -0.4758(2) -0.0739(2) -0.18195(18)
N6 N -0.6293(2) -0.0907(2) -0.30091(18)
N7 N -0.4044(2) 0.0186(2) -0.14754(18)
S2 S -0.77446(9) -0.13442(9) -0.55640(6)
N8 N -0.4283(2) 0.1181(2) -0.19463(17)
N9 N -0.12784(19) -0.2302(3) 0.06569(16)
O2 O -0.6050(2) 0.0138(2) -0.43872(15)
N10 N -0.5182(2) 0.0942(2) -0.25932(17)
C1 C -0.1802(2) -0.2101(2) -0.0176(2)
C2 C -0.1542(2) -0.1567(2) -0.1849(2)
C3 C -0.0772(3) -0.0857(3) -0.2498(2)
C4 C 0.0315(3) -0.0195(3) -0.2323(2)
H1 H 0.0710 -0.0146 -0.1739
C5 C 0.0715(3) 0.0381(3) -0.3158(3)
H2 H 0.1427 0.0852 -0.3187
C6 C -0.0017(4) 0.0195(4) -0.3911(3)
H3 H 0.0126 0.0532 -0.4507
C7 C -0.5435(2) -0.0242(2) -0.24909(19)
C8 C -0.6531(2) -0.0707(2) -0.3948(2)
C9 C -0.7398(3) -0.1556(3) -0.4385(2)
C10 C -0.8051(3) -0.2505(3) -0.4009(2)
H4 H -0.7997 -0.2753 -0.3379
C11 C -0.8821(3) -0.3070(3) -0.4692(3)
H5 H -0.9324 -0.3739 -0.4562
C12 C -0.8745(3) -0.2529(3) -0.5553(3)
H6 H -0.9192 -0.2781 -0.6080
H7 H -0.0380 -0.1456 -0.0840
H8 H -0.6493 -0.1592 -0.2710
Cd1B Cd 0.064981(14) -0.231288(16) 0.130493(12)
Cd1C Cd -0.564981(14) 0.231288(16) -0.369507(12)
N9B N -0.62784(19) -0.2698(3) -0.06569(16)
O2C O -0.3950(2) -0.4862(2) -0.06128(15)
N10C N -0.4818(2) -0.4058(2) -0.24068(17)
loop_
_geom_bond_atom_site_label_1
_geom_bond_atom_site_label_2
_geom_bond_site_symmetry_1
_geom_bond_site_symmetry_2
Cd1 N1 1_555 1_555
N1 N2 1_555 1_555
O1 Cd1 1_555 1_555
N2 N3 1_555 1_555
N3 N9 1_555 1_555
N4 C1 1_555 1_555
S1 C3 1_555 1_555
N5 Cd1 1_555 1_555
N6 C7 1_555 1_555
N7 N5 1_555 1_555
S2 C9 1_555 1_555
N8 N7 1_555 1_555
N9 C1 1_555 1_555
O2 C8 1_555 1_555
N10 N8 1_555 1_555
C1 N1 1_555 1_555
C2 O1 1_555 1_555
C3 C2 1_555 1_555
C4 C3 1_555 1_555
H1 C4 1_555 1_555
C5 C4 1_555 1_555
H2 C5 1_555 1_555
C6 S1 1_555 1_555
H3 C6 1_555 1_555
C7 N5 1_555 1_555
C8 N6 1_555 1_555
C9 C8 1_555 1_555
C10 C9 1_555 1_555
H4 C10 1_555 1_555
C11 C10 1_555 1_555
H5 C11 1_555 1_555
C12 S2 1_555 1_555
H6 C12 1_555 1_555
H7 N4 1_555 1_555
H8 N6 1_555 1_555
Cd1B N9 1_555 1_555
Cd1C O2 1_555 1_555
N9B Cd1 1_555 1_555
O2C Cd1 1_555 1_555
N10C Cd1 1_555 1_555
N4 C2 1_555 1_555
N10 C7 1_555 1_555
N10 Cd1C 1_555 1_555
C5 C6 1_555 1_555
C11 C12 1_555 1_555

#END
