
#######################################################################
#
#                 Cambridge Crystallographic Data Centre
#                                CCDC 
#
#######################################################################
#
# If this CIF has been generated from an entry in the Cambridge 
# Structural Database, then it will include bibliographic, chemical, 
# crystal, experimental, refinement or atomic coordinate data resulting 
# from the CCDC's data processing and validation procedures.
#
#######################################################################

data_KIKGAO
_symmetry_cell_setting           triclinic
_symmetry_space_group_name_H-M   'P -1'
_symmetry_Int_Tables_number      2
_space_group_name_Hall           '-P 1'
loop_
_symmetry_equiv_pos_site_id
_symmetry_equiv_pos_as_xyz
1 x,y,z
2 -x,-y,-z
_cell_length_a                   15.5320(5)
_cell_length_b                   18.0531(6)
_cell_length_c                   18.7587(6)
_cell_angle_alpha                96.715(2)
_cell_angle_beta                 94.667(2)
_cell_angle_gamma                108.814(2)
_cell_volume                     4904.93
loop_
_atom_site_label
_atom_site_type_symbol
_atom_site_fract_x
_atom_site_fract_y
_atom_site_fract_z
K1 K 0.78035(8) 0.82593(7) 0.35367(6)
N1 N 0.7106(3) 0.6024(2) 0.6123(2)
C1 C 0.7236(4) 0.8275(4) 0.5522(3)
C2 C 0.6939(5) 0.6845(4) 0.5192(3)
H1 H 0.7162 0.7005 0.4746
H2 H 0.6296 0.6523 0.5079
C3 C 0.7463(4) 0.6364(4) 0.5488(3)
H3 H 0.7442 0.5938 0.5113
H4 H 0.8100 0.6695 0.5621
C4 C 0.7473(4) 0.9652(4) 0.6104(3)
C5 C 0.7253(5) 0.9943(4) 0.5477(4)
H5 H 0.6988 0.9607 0.5045
C6 C 0.8026(7) 1.0966(5) 0.6773(5)
H6 H 0.8290 1.1311 0.7201
C7 C 0.7820(7) 1.1238(5) 0.6160(6)
C8 C 0.7446(6) 1.0753(5) 0.5532(5)
H7 H 0.7315 1.0966 0.5126
C9 C 0.7831(5) 1.0162(4) 0.6740(4)
H8 H 0.7944 0.9959 0.7158
N2 N 0.7026(4) 0.7548(3) 0.5702(2)
H9 H 0.6938 0.7491 0.6142
N3 N 0.7319(3) 0.8837(3) 0.6103(2)
H10 H 0.7272 0.8676 0.6516
N4 N 0.8082(8) 1.2101(6) 0.6158(8)
O1 O 0.7371(3) 0.8428(3) 0.49112(19)
O2 O 0.8440(9) 1.2533(5) 0.6720(7)
O3 O 0.7961(7) 1.2332(5) 0.5579(7)
C10 C 0.8232(3) 0.7601(3) 0.9480(2)
C11 C 0.8474(3) 0.7021(3) 0.8287(2)
C12 C 0.9143(3) 0.7953(3) 0.9785(3)
H11 H 0.9609 0.8014 0.9491
C13 C 0.9359(4) 0.8211(3) 1.0516(3)
H12 H 0.9968 0.8432 1.0721
C14 C 0.8669(4) 0.8138(3) 1.0939(3)
C15 C 0.7800(4) 0.5804(4) 0.6533(3)
H13 H 0.8117 0.5570 0.6197
H14 H 0.7498 0.5405 0.6819
C16 C 0.7552(4) 0.7555(3) 0.9915(3)
H15 H 0.6942 0.7338 0.9709
C17 C 0.8495(4) 0.6492(4) 0.7028(3)
H16 H 0.8975 0.6320 0.7242
H17 H 0.8775 0.6907 0.6750
C18 C 0.7751(5) 0.7823(4) 1.0650(3)
H18 H 0.7288 0.7794 1.0941
N5 N 0.7974(3) 0.7314(2) 0.8743(2)
H19 H 0.7453 0.7322 0.8557
N6 N 0.8070(3) 0.6802(3) 0.7597(2)
H20 H 0.7542 0.6847 0.7491
N7 N 0.8910(6) 0.8397(4) 1.1729(3)
O4 O 0.9204(2) 0.6947(2) 0.84897(19)
O5 O 0.8288(5) 0.8394(4) 1.2090(3)
O6 O 0.9713(6) 0.8640(5) 1.1977(3)
C19 C 0.3211(4) 0.6335(3) 0.6331(3)
C20 C 0.4345(4) 0.5626(3) 0.6333(3)
C21 C 0.6271(4) 0.5336(3) 0.5886(3)
H21 H 0.6443 0.4877 0.5732
H22 H 0.5931 0.5436 0.5473
C22 C 0.2465(5) 0.5747(4) 0.5929(4)
H23 H 0.2519 0.5260 0.5760
C23 C 0.3097(4) 0.7052(4) 0.6573(3)
H24 H 0.3584 0.7452 0.6854
C24 C 0.5653(4) 0.5152(3) 0.6476(3)
H25 H 0.5191 0.4634 0.6329
H26 H 0.6016 0.5132 0.6915
C25 C 0.2296(5) 0.7187(4) 0.6413(4)
H27 H 0.2235 0.7671 0.6580
C26 C 0.1569(5) 0.6582(5) 0.5994(4)
C27 C 0.1642(6) 0.5870(5) 0.5773(5)
H28 H 0.1141 0.5463 0.5517
N8 N 0.4051(3) 0.6249(3) 0.6540(2)
H29 H 0.4435 0.6636 0.6837
N9 N 0.5199(3) 0.5736(3) 0.6630(3)
H30 H 0.5491 0.6165 0.6922
N10 N 0.0686(6) 0.6725(7) 0.5825(6)
O7 O 0.3883(3) 0.5036(3) 0.5919(2)
O8 O 0.0620(5) 0.7357(6) 0.6069(5)
O9 O 0.0076(6) 0.6197(6) 0.5452(6)
O10 O 0.9270(3) 0.9643(3) 0.4058(2)
O11 O 0.6168(3) 0.8319(3) 0.2854(2)
O12 O 0.7681(3) 0.9709(3) 0.3220(2)
O13 O 0.9538(3) 0.8133(3) 0.3988(3)
O14 O 0.8038(4) 0.6759(3) 0.3566(3)
O15 O 0.6536(4) 0.6875(3) 0.2670(2)
C28 C 0.6776(6) 0.9709(5) 0.3206(5)
H31 H 0.6744 1.0212 0.3096
H32 H 0.6569 0.9633 0.3674
C29 C 0.8345(6) 1.0355(4) 0.3668(4)
H33 H 0.8189 1.0382 0.4158
H34 H 0.8363 1.0845 0.3494
C30 C 0.5649(6) 0.6937(6) 0.2616(5)
H35 H 0.5440 0.6950 0.3089
H36 H 0.5222 0.6483 0.2297
C31 C 1.0122(5) 0.9507(5) 0.4094(5)
H37 H 1.0603 0.9968 0.4360
H38 H 1.0280 0.9411 0.3610
C32 C 0.6189(6) 0.9058(6) 0.2644(5)
H39 H 0.5572 0.9082 0.2586
H40 H 0.6430 0.9110 0.2184
C33 C 0.9231(5) 1.0253(5) 0.3659(4)
H41 H 0.9330 1.0119 0.3164
H42 H 0.9710 1.0744 0.3869
C34 C 0.6515(7) 0.6182(6) 0.2919(5)
H43 H 0.6111 0.5731 0.2583
H44 H 0.6288 0.6167 0.3385
C35 C 0.9455(7) 0.7420(8) 0.4265(6)
H45 H 0.9139 0.7401 0.4691
H46 H 1.0058 0.7392 0.4402
C36 C 0.5687(6) 0.7671(6) 0.2326(4)
H47 H 0.5993 0.7700 0.1895
H48 H 0.5071 0.7674 0.2198
C37 C 1.0036(5) 0.8802(6) 0.4467(4)
H49 H 1.0640 0.8782 0.4618
H50 H 0.9728 0.8837 0.4892
C38 C 0.7452(9) 0.6151(5) 0.2987(5)
H51 H 0.7438 0.5633 0.3090
H52 H 0.7702 0.6229 0.2534
C39 C 0.8927(8) 0.6738(6) 0.3695(7)
H53 H 0.9214 0.6779 0.3254
H54 H 0.8912 0.6244 0.3856
K1_2 K 0.78035(8) 0.82593(7) 1.35367(6)
O5_2 O 0.8288(5) 0.8394(4) 0.2090(3)
K2 K 0.22545(8) 0.62157(7) 0.98316(7)
N11 N 0.5297(3) 0.9168(3) 0.8811(2)
C40 C 0.4876(3) 0.5619(3) 0.8734(2)
C41 C 0.4216(3) 0.6698(3) 0.8670(3)
C42 C 0.4160(3) 0.5059(3) 0.8992(3)
H55 H 0.3601 0.5140 0.9021
C43 C 0.5805(4) 0.4787(4) 0.8888(3)
H56 H 0.6353 0.4690 0.8847
C44 C 0.5093(4) 0.4257(3) 0.9154(3)
C45 C 0.4506(4) 0.8665(4) 0.9110(3)
H57 H 0.4129 0.8977 0.9258
H58 H 0.4727 0.8492 0.9538
C46 C 0.5694(3) 0.5463(3) 0.8686(3)
H59 H 0.6176 0.5824 0.8512
C47 C 0.4284(4) 0.4391(3) 0.9202(3)
H60 H 0.3809 0.4026 0.9379
C48 C 0.3926(4) 0.7951(3) 0.8587(3)
H61 H 0.3373 0.7689 0.8792
H62 H 0.3745 0.8119 0.8143
N12 N 0.4831(3) 0.6307(2) 0.8518(2)
H63 H 0.5238 0.6526 0.8253
N13 N 0.4406(3) 0.7387(3) 0.8419(3)
H64 H 0.4832 0.7507 0.8145
N14 N 0.5199(4) 0.3540(3) 0.9369(3)
O16 O 0.3567(3) 0.6427(2) 0.9003(2)
O17 O 0.4571(3) 0.3079(3) 0.9614(3)
O18 O 0.5930(4) 0.3427(3) 0.9290(3)
C49 C 0.9523(4) 0.8754(3) 0.7803(3)
H65 H 0.9048 0.8442 0.7451
C50 C 0.9335(3) 0.9222(3) 0.8384(2)
C51 C 0.8063(4) 0.9427(4) 0.9001(3)
C52 C 1.1104(3) 0.9250(3) 0.8255(3)
C53 C 1.0396(4) 0.8754(3) 0.7751(3)
H66 H 1.0511 0.8424 0.7380
C54 C 1.0074(4) 0.9714(3) 0.8886(3)
H67 H 0.9968 1.0037 0.9268
C55 C 1.0936(4) 0.9726(3) 0.8823(3)
H68 H 1.1419 1.0054 0.9161
C56 C 0.6654(5) 0.9164(5) 0.9581(3)
H69 H 0.7083 0.9464 1.0001
H70 H 0.6291 0.8664 0.9713
C57 C 0.6035(4) 0.9611(4) 0.9387(4)
H71 H 0.5771 0.9747 0.9813
H72 H 0.6394 1.0101 0.9235
N15 N 0.8426(3) 0.9145(2) 0.8419(2)
H73 H 0.8046 0.8898 0.8041
N16 N 0.7162(3) 0.9010(3) 0.9006(2)
H74 H 0.6884 0.8640 0.8651
N17 N 1.2042(3) 0.9258(4) 0.8204(3)
O19 O 1.2161(3) 0.8776(3) 0.7730(3)
O20 O 0.8503(3) 0.9990(3) 0.9459(2)
O21 O 1.2661(3) 0.9717(4) 0.8642(3)
C58 C 0.4862(4) 0.8300(4) 0.5438(4)
C59 C 0.4689(5) 0.7507(4) 0.5162(4)
H75 H 0.4808 0.7170 0.5465
C60 C 0.5029(5) 0.9701(4) 0.8367(4)
H76 H 0.5029 1.0169 0.8679
H77 H 0.4413 0.9434 0.8121
C61 C 0.5245(4) 0.9238(4) 0.6585(4)
C62 C 0.4415(5) 0.8525(5) 0.4257(5)
H78 H 0.4337 0.8868 0.3943
C63 C 0.4729(5) 0.8804(5) 0.4957(4)
H79 H 0.4860 0.9339 0.5125
C64 C 0.5678(6) 0.9943(4) 0.7818(4)
H80 H 0.5552 1.0360 0.7593
H81 H 0.6302 1.0152 0.8060
C65 C 0.4207(5) 0.7726(6) 0.3998(4)
C66 C 0.4342(5) 0.7214(5) 0.4444(5)
H82 H 0.4204 0.6680 0.4268
N18 N 0.5172(3) 0.8538(3) 0.6160(3)
H83 H 0.5344 0.8206 0.6378
N19 N 0.5596(4) 0.9294(3) 0.7274(3)
H84 H 0.5780 0.8920 0.7393
N20 N 0.3828(6) 0.7411(8) 0.3255(5)
O22 O 0.5013(4) 0.9768(3) 0.6367(3)
O23 O 0.3651(6) 0.6704(7) 0.3036(4)
O24 O 0.3719(6) 0.7893(6) 0.2852(5)
C67 C 0.1211(6) 0.6877(6) 0.8259(5)
H85 H 0.1377 0.7296 0.7964
H86 H 0.0553 0.6710 0.8269
C68 C 0.1342(8) 0.7731(6) 0.9255(6)
H87 H 0.0716 0.7497 0.9355
H88 H 0.1357 0.8108 0.8925
C69 C 0.1979(12) 0.8129(10) 0.9951(9)
H89 H 0.2542 0.8452 0.9797
H90 H 0.1711 0.8497 1.0181
C70 C 0.1813(12) 0.5990(11) 1.1703(6)
H91 H 0.1564 0.6066 1.2153
H92 H 0.2468 0.6092 1.1798
C71 C 0.2021(19) 0.7217(10) 1.1487(12)
H93 H 0.2645 0.7287 1.1682
H94 H 0.1711 0.7330 1.1893
O25 O 0.1598(8) 0.6414(9) 1.1205(6)
O26 O 0.2222(11) 0.7826(8) 1.0438(9)
C72 C 0.1095(11) 0.4352(9) 1.0211(11)
H95 H 0.0594 0.4521 1.0038
H96 H 0.0849 0.3919 1.0480
O27 O 0.1753(10) 0.4983(9) 1.0674(9)
C73 C 0.1296(14) 0.4942(8) 0.8121(9)
H97 H 0.1925 0.5068 0.8019
H98 H 0.0901 0.4723 0.7667
C74 C 0.1491(17) 0.4063(11) 0.9575(11)
H99 H 0.2042 0.3958 0.9741
H100 H 0.1052 0.3574 0.9313
C75 C 0.1110(11) 0.4324(10) 0.8611(7)
H101 H 0.0502 0.4208 0.8757
H102 H 0.1177 0.3838 0.8383
O28 O 0.1672(5) 0.7163(5) 0.8973(4)
C76 C 0.1311(11) 0.5196(11) 1.1258(9)
H103 H 0.1221 0.4796 1.1574
H104 H 0.0710 0.5191 1.1066
O29 O 0.1699(8) 0.4643(6) 0.9119(9)
C77 C 0.207(2) 0.7840(17) 1.1011(16)
H105 H 0.1480 0.7921 1.1005
H106 H 0.2517 0.8322 1.1275
C78 C 0.1475(8) 0.6183(7) 0.7936(6)
H107 H 0.1175 0.5983 0.7444
H108 H 0.2133 0.6332 0.7936
O30 O 0.1163(4) 0.5623(6) 0.8396(4)
K2A K 0.77455(8) 0.37843(7) 1.01684(7)
N11A N 0.4703(3) 0.0832(3) 1.1189(2)
C40A C 0.5124(3) 0.4381(3) 1.1266(2)
C41A C 0.5784(3) 0.3302(3) 1.1330(3)
C42A C 0.5840(3) 0.4941(3) 1.1008(3)
H55A H 0.6399 0.4860 1.0979
C43A C 0.4195(4) 0.5213(4) 1.1112(3)
H56A H 0.3647 0.5310 1.1153
C44A C 0.4907(4) 0.5743(3) 1.0846(3)
C45A C 0.5494(4) 0.1335(4) 1.0890(3)
H57A H 0.5871 0.1023 1.0742
H58A H 0.5273 0.1508 1.0462
C46A C 0.4306(3) 0.4537(3) 1.1314(3)
H59A H 0.3824 0.4176 1.1488
C47A C 0.5716(4) 0.5609(3) 1.0798(3)
H60A H 0.6191 0.5974 1.0621
C48A C 0.6074(4) 0.2049(3) 1.1413(3)
H61A H 0.6627 0.2311 1.1208
H62A H 0.6255 0.1881 1.1857
N12A N 0.5169(3) 0.3693(2) 1.1482(2)
H63A H 0.4762 0.3474 1.1747
N13A N 0.5594(3) 0.2613(3) 1.1581(3)
H64A H 0.5168 0.2493 1.1855
N14A N 0.4801(4) 0.6460(3) 1.0631(3)
O16A O 0.6433(3) 0.3573(2) 1.0997(2)
O17A O 0.5429(3) 0.6921(3) 1.0386(3)
O18A O 0.4070(4) 0.6573(3) 1.0710(3)
C49A C 0.0477(4) 0.1246(3) 1.2197(3)
H65A H 0.0952 0.1558 1.2549
C50A C 0.0665(3) 0.0778(3) 1.1616(2)
C51A C 0.1937(4) 0.0573(4) 1.0999(3)
C52A C -0.1104(3) 0.0750(3) 1.1745(3)
C53A C -0.0396(4) 0.1246(3) 1.2249(3)
H66A H -0.0511 0.1576 1.2620
C54A C -0.0074(4) 0.0286(3) 1.1114(3)
H67A H 0.0032 -0.0037 1.0732
C55A C -0.0936(4) 0.0274(3) 1.1177(3)
H68A H -0.1419 -0.0054 1.0839
C56A C 0.3346(5) 0.0836(5) 1.0419(3)
H69A H 0.2917 0.0536 0.9999
H70A H 0.3709 0.1336 1.0287
C57A C 0.3965(4) 0.0389(4) 1.0613(4)
H71A H 0.4229 0.0253 1.0187
H72A H 0.3606 -0.0101 1.0765
N15A N 0.1574(3) 0.0855(2) 1.1581(2)
H73A H 0.1954 0.1102 1.1959
N16A N 0.2838(3) 0.0990(3) 1.0994(2)
H74A H 0.3116 0.1360 1.1349
N17A N -0.2042(3) 0.0742(4) 1.1796(3)
O19A O -0.2161(3) 0.1224(3) 1.2270(3)
O20A O 0.1497(3) 0.0010(3) 1.0541(2)
O21A O -0.2661(3) 0.0283(4) 1.1358(3)
C58A C 0.5138(4) 0.1700(4) 1.4562(4)
C59A C 0.5311(5) 0.2493(4) 1.4838(4)
H75A H 0.5192 0.2830 1.4535
C60A C 0.4971(5) 0.0299(4) 1.1633(4)
H76A H 0.4971 -0.0169 1.1321
H77A H 0.5587 0.0566 1.1879
C61A C 0.4755(4) 0.0762(4) 1.3415(4)
C62A C 0.5585(5) 0.1475(5) 1.5743(5)
H78A H 0.5663 0.1132 1.6057
C63A C 0.5271(5) 0.1196(5) 1.5043(4)
H79A H 0.5140 0.0661 1.4875
C64A C 0.4322(6) 0.0057(4) 1.2182(4)
H80A H 0.4448 -0.0360 1.2407
H81A H 0.3698 -0.0152 1.1940
C65A C 0.5793(5) 0.2274(6) 1.6002(4)
C66A C 0.5658(5) 0.2786(5) 1.5556(5)
H82A H 0.5796 0.3320 1.5732
N18A N 0.4828(3) 0.1462(3) 1.3840(3)
H83A H 0.4656 0.1794 1.3622
N19A N 0.4404(4) 0.0706(3) 1.2726(3)
H84A H 0.4220 0.1080 1.2607
N20A N 0.6172(6) 0.2589(8) 1.6745(5)
O22A O 0.4987(4) 0.0232(3) 1.3633(3)
O23A O 0.6349(6) 0.3296(7) 1.6964(4)
O24A O 0.6281(6) 0.2107(6) 1.7148(5)
C67A C 0.8789(6) 0.3123(6) 1.1741(5)
H85A H 0.8623 0.2704 1.2036
H86A H 0.9447 0.3290 1.1731
C68A C 0.8658(8) 0.2269(6) 1.0745(6)
H87A H 0.9284 0.2503 1.0645
H88A H 0.8643 0.1892 1.1075
C69A C 0.8021(12) 0.1871(10) 1.0049(9)
H89A H 0.7458 0.1548 1.0203
H90A H 0.8289 0.1503 0.9819
C70A C 0.8187(12) 0.4010(11) 0.8297(6)
H91A H 0.8436 0.3934 0.7847
H92A H 0.7532 0.3908 0.8202
C71A C 0.7979(19) 0.2783(10) 0.8513(12)
H93A H 0.7355 0.2713 0.8318
H94A H 0.8289 0.2670 0.8107
O25A O 0.8402(8) 0.3586(9) 0.8795(6)
O26A O 0.7778(11) 0.2174(8) 0.9562(9)
C72A C 0.8905(11) 0.5648(9) 0.9789(11)
H95A H 0.9406 0.5479 0.9962
H96A H 0.9151 0.6081 0.9520
O27A O 0.8247(10) 0.5017(9) 0.9326(9)
C73A C 0.8704(14) 0.5058(8) 1.1879(9)
H97A H 0.8075 0.4932 1.1981
H98A H 0.9099 0.5277 1.2333
C74A C 0.8509(17) 0.5937(11) 1.0425(11)
H99A H 0.7958 0.6042 1.0259
H100A H 0.8948 0.6426 1.0687
C75A C 0.8890(11) 0.5676(10) 1.1389(7)
H101A H 0.9498 0.5792 1.1243
H102A H 0.8823 0.6162 1.1617
O28A O 0.8328(5) 0.2837(5) 1.1027(4)
C76A C 0.8689(11) 0.4804(11) 0.8742(9)
H103A H 0.8779 0.5204 0.8426
H104A H 0.9290 0.4809 0.8934
O29A O 0.8301(8) 0.5357(6) 1.0881(9)
C77A C 0.793(2) 0.2160(17) 0.8989(16)
H105A H 0.8520 0.2079 0.8995
H106A H 0.7483 0.1678 0.8725
C78A C 0.8525(8) 0.3817(7) 1.2064(6)
H107A H 0.8825 0.4017 1.2556
H108A H 0.7867 0.3668 1.2064
O30A O 0.8837(4) 0.4377(6) 1.1604(4)
C79 C 0.3673(3) 0.2358(3) 0.2514(2)
O31 O 0.4428(2) 0.2417(2) 0.2851(2)
O32 O 0.2917(2) 0.1916(2) 0.26643(18)
O33 O 0.3664(2) 0.2772(3) 0.2018(2)
loop_
_geom_bond_atom_site_label_1
_geom_bond_atom_site_label_2
_geom_bond_site_symmetry_1
_geom_bond_site_symmetry_2
K1 O1 1_555 1_555
N1 C3 1_555 1_555
C1 N2 1_555 1_555
C2 H1 1_555 1_555
H2 C2 1_555 1_555
C3 C2 1_555 1_555
H3 C3 1_555 1_555
H4 C3 1_555 1_555
C4 C5 1_555 1_555
C5 H5 1_555 1_555
C6 H6 1_555 1_555
C7 C6 1_555 1_555
C8 C5 1_555 1_555
H7 C8 1_555 1_555
C9 C4 1_555 1_555
H8 C9 1_555 1_555
N2 C2 1_555 1_555
H9 N2 1_555 1_555
N3 C1 1_555 1_555
H10 N3 1_555 1_555
N4 C7 1_555 1_555
O1 C1 1_555 1_555
O2 N4 1_555 1_555
O3 N4 1_555 1_555
C10 C12 1_555 1_555
C11 N5 1_555 1_555
C12 H11 1_555 1_555
C13 C12 1_555 1_555
H12 C13 1_555 1_555
C14 C13 1_555 1_555
C15 N1 1_555 1_555
H13 C15 1_555 1_555
H14 C15 1_555 1_555
C16 C10 1_555 1_555
H15 C16 1_555 1_555
C17 C15 1_555 1_555
H16 C17 1_555 1_555
H17 C17 1_555 1_555
C18 C14 1_555 1_555
H18 C18 1_555 1_555
N5 C10 1_555 1_555
H19 N5 1_555 1_555
N6 C11 1_555 1_555
H20 N6 1_555 1_555
N7 C14 1_555 1_555
O4 C11 1_555 1_555
O5 N7 1_555 1_555
O6 N7 1_555 1_555
C19 C22 1_555 1_555
C20 N8 1_555 1_555
C21 N1 1_555 1_555
H21 C21 1_555 1_555
H22 C21 1_555 1_555
C22 H23 1_555 1_555
C23 C19 1_555 1_555
H24 C23 1_555 1_555
C24 C21 1_555 1_555
H25 C24 1_555 1_555
H26 C24 1_555 1_555
C25 C23 1_555 1_555
H27 C25 1_555 1_555
C26 C25 1_555 1_555
C27 C22 1_555 1_555
H28 C27 1_555 1_555
N8 C19 1_555 1_555
H29 N8 1_555 1_555
N9 C20 1_555 1_555
H30 N9 1_555 1_555
N10 C26 1_555 1_555
O7 C20 1_555 1_555
O8 N10 1_555 1_555
O9 N10 1_555 1_555
O10 K1 1_555 1_555
O11 K1 1_555 1_555
O12 K1 1_555 1_555
O13 K1 1_555 1_555
O14 K1 1_555 1_555
O15 K1 1_555 1_555
C28 O12 1_555 1_555
H31 C28 1_555 1_555
H32 C28 1_555 1_555
C29 O12 1_555 1_555
H33 C29 1_555 1_555
H34 C29 1_555 1_555
C30 O15 1_555 1_555
H35 C30 1_555 1_555
H36 C30 1_555 1_555
C31 O10 1_555 1_555
H37 C31 1_555 1_555
H38 C31 1_555 1_555
C32 O11 1_555 1_555
H39 C32 1_555 1_555
H40 C32 1_555 1_555
C33 O10 1_555 1_555
H41 C33 1_555 1_555
H42 C33 1_555 1_555
C34 O15 1_555 1_555
H43 C34 1_555 1_555
H44 C34 1_555 1_555
C35 O13 1_555 1_555
H45 C35 1_555 1_555
H46 C35 1_555 1_555
C36 O11 1_555 1_555
H47 C36 1_555 1_555
H48 C36 1_555 1_555
C37 O13 1_555 1_555
H49 C37 1_555 1_555
H50 C37 1_555 1_555
C38 O14 1_555 1_555
H51 C38 1_555 1_555
H52 C38 1_555 1_555
C39 O14 1_555 1_555
H53 C39 1_555 1_555
H54 C39 1_555 1_555
K2 O16 1_555 1_555
N11 C45 1_555 1_555
C40 C42 1_555 1_555
C41 N12 1_555 1_555
C42 H55 1_555 1_555
C43 H56 1_555 1_555
C44 C43 1_555 1_555
C45 H57 1_555 1_555
H58 C45 1_555 1_555
C46 C40 1_555 1_555
H59 C46 1_555 1_555
C47 C42 1_555 1_555
H60 C47 1_555 1_555
C48 C45 1_555 1_555
H61 C48 1_555 1_555
H62 C48 1_555 1_555
N12 C40 1_555 1_555
H63 N12 1_555 1_555
N13 C41 1_555 1_555
H64 N13 1_555 1_555
N14 C44 1_555 1_555
O16 C41 1_555 1_555
O17 N14 1_555 1_555
O18 N14 1_555 1_555
C49 H65 1_555 1_555
C50 C49 1_555 1_555
C51 N15 1_555 1_555
C52 C53 1_555 1_555
C53 C49 1_555 1_555
H66 C53 1_555 1_555
C54 C50 1_555 1_555
H67 C54 1_555 1_555
C55 C52 1_555 1_555
H68 C55 1_555 1_555
C56 H69 1_555 1_555
H70 C56 1_555 1_555
C57 N11 1_555 1_555
H71 C57 1_555 1_555
H72 C57 1_555 1_555
N15 C50 1_555 1_555
H73 N15 1_555 1_555
N16 C51 1_555 1_555
H74 N16 1_555 1_555
N17 C52 1_555 1_555
O19 N17 1_555 1_555
O20 C51 1_555 1_555
O21 N17 1_555 1_555
C58 C59 1_555 1_555
C59 H75 1_555 1_555
C60 N11 1_555 1_555
H76 C60 1_555 1_555
H77 C60 1_555 1_555
C61 N18 1_555 1_555
C62 H78 1_555 1_555
C63 C58 1_555 1_555
H79 C63 1_555 1_555
C64 C60 1_555 1_555
H80 C64 1_555 1_555
H81 C64 1_555 1_555
C65 C62 1_555 1_555
C66 C59 1_555 1_555
H82 C66 1_555 1_555
N18 C58 1_555 1_555
H83 N18 1_555 1_555
N19 C61 1_555 1_555
H84 N19 1_555 1_555
N20 C65 1_555 1_555
O22 C61 1_555 1_555
O23 N20 1_555 1_555
O24 N20 1_555 1_555
C67 H85 1_555 1_555
H86 C67 1_555 1_555
C68 H87 1_555 1_555
H88 C68 1_555 1_555
C69 C68 1_555 1_555
H89 C69 1_555 1_555
H90 C69 1_555 1_555
C70 H91 1_555 1_555
H92 C70 1_555 1_555
C71 H93 1_555 1_555
H94 C71 1_555 1_555
O25 K2 1_555 1_555
O26 K2 1_555 1_555
C72 H95 1_555 1_555
H96 C72 1_555 1_555
O27 K2 1_555 1_555
C73 H97 1_555 1_555
H98 C73 1_555 1_555
C74 C72 1_555 1_555
H99 C74 1_555 1_555
H100 C74 1_555 1_555
C75 C73 1_555 1_555
H101 C75 1_555 1_555
H102 C75 1_555 1_555
O28 K2 1_555 1_555
C76 C70 1_555 1_555
H103 C76 1_555 1_555
H104 C76 1_555 1_555
O29 K2 1_555 1_555
C77 C71 1_555 1_555
H105 C77 1_555 1_555
H106 C77 1_555 1_555
C78 C67 1_555 1_555
H107 C78 1_555 1_555
H108 C78 1_555 1_555
O30 K2 1_555 1_555
C79 O31 1_555 1_555
O32 C79 1_555 1_555
O33 C79 1_555 1_555
K1_2 O5 1_555 1_555
O5_2 K1 1_555 1_555
K2A O18 1_555 1_555
N11A C45A 1_555 1_555
C40A C42A 1_555 1_555
C41A N12A 1_555 1_555
C42A H55A 1_555 1_555
C43A H56A 1_555 1_555
C44A C43A 1_555 1_555
C45A H57A 1_555 1_555
H58A C45A 1_555 1_555
C46A C40A 1_555 1_555
H59A C46A 1_555 1_555
C47A C42A 1_555 1_555
H60A C47A 1_555 1_555
C48A C45A 1_555 1_555
H61A C48A 1_555 1_555
H62A C48A 1_555 1_555
N12A C40A 1_555 1_555
H63A N12A 1_555 1_555
N13A C41A 1_555 1_555
H64A N13A 1_555 1_555
N14A C44A 1_555 1_555
O16A K2A 1_555 1_555
O17A N14A 1_555 1_555
O18A K2 1_555 1_555
C49A H65A 1_555 1_555
C50A C49A 1_555 1_555
C51A N15A 1_555 1_555
C52A C53A 1_555 1_555
C53A C49A 1_555 1_555
H66A C53A 1_555 1_555
C54A C50A 1_555 1_555
H67A C54A 1_555 1_555
C55A C52A 1_555 1_555
H68A C55A 1_555 1_555
C56A H69A 1_555 1_555
H70A C56A 1_555 1_555
C57A N11A 1_555 1_555
H71A C57A 1_555 1_555
H72A C57A 1_555 1_555
N15A C50A 1_555 1_555
H73A N15A 1_555 1_555
N16A C51A 1_555 1_555
H74A N16A 1_555 1_555
N17A C52A 1_555 1_555
O19A N17A 1_555 1_555
O20A C51A 1_555 1_555
O21A N17A 1_555 1_555
C58A C59A 1_555 1_555
C59A H75A 1_555 1_555
C60A N11A 1_555 1_555
H76A C60A 1_555 1_555
H77A C60A 1_555 1_555
C61A N18A 1_555 1_555
C62A H78A 1_555 1_555
C63A C58A 1_555 1_555
H79A C63A 1_555 1_555
C64A C60A 1_555 1_555
H80A C64A 1_555 1_555
H81A C64A 1_555 1_555
C65A C62A 1_555 1_555
C66A C59A 1_555 1_555
H82A C66A 1_555 1_555
N18A C58A 1_555 1_555
H83A N18A 1_555 1_555
N19A C61A 1_555 1_555
H84A N19A 1_555 1_555
N20A C65A 1_555 1_555
O22A C61A 1_555 1_555
O23A N20A 1_555 1_555
O24A N20A 1_555 1_555
C67A H85A 1_555 1_555
H86A C67A 1_555 1_555
C68A H87A 1_555 1_555
H88A C68A 1_555 1_555
C69A C68A 1_555 1_555
H89A C69A 1_555 1_555
H90A C69A 1_555 1_555
C70A H91A 1_555 1_555
H92A C70A 1_555 1_555
C71A H93A 1_555 1_555
H94A C71A 1_555 1_555
O25A K2A 1_555 1_555
O26A K2A 1_555 1_555
C72A H95A 1_555 1_555
H96A C72A 1_555 1_555
O27A K2A 1_555 1_555
C73A H97A 1_555 1_555
H98A C73A 1_555 1_555
C74A C72A 1_555 1_555
H99A C74A 1_555 1_555
H100A C74A 1_555 1_555
C75A C73A 1_555 1_555
H101A C75A 1_555 1_555
H102A C75A 1_555 1_555
O28A K2A 1_555 1_555
C76A C70A 1_555 1_555
H103A C76A 1_555 1_555
H104A C76A 1_555 1_555
O29A K2A 1_555 1_555
C77A C71A 1_555 1_555
H105A C77A 1_555 1_555
H106A C77A 1_555 1_555
C78A C67A 1_555 1_555
H107A C78A 1_555 1_555
H108A C78A 1_555 1_555
O30A K2A 1_555 1_555
C4 N3 1_555 1_555
C6 C9 1_555 1_555
C7 C8 1_555 1_555
C16 C18 1_555 1_555
C17 N6 1_555 1_555
C24 N9 1_555 1_555
C26 C27 1_555 1_555
C28 C32 1_555 1_555
C29 C33 1_555 1_555
C30 C36 1_555 1_555
C31 C37 1_555 1_555
C34 C38 1_555 1_555
C35 C39 1_555 1_555
C43 C46 1_555 1_555
C44 C47 1_555 1_555
C48 N13 1_555 1_555
C54 C55 1_555 1_555
C56 C57 1_555 1_555
C56 N16 1_555 1_555
C62 C63 1_555 1_555
C64 N19 1_555 1_555
C65 C66 1_555 1_555
C67 O28 1_555 1_555
C68 O28 1_555 1_555
C69 O26 1_555 1_555
C70 O25 1_555 1_555
C71 O25 1_555 1_555
O26 C77 1_555 1_555
C72 O27 1_555 1_555
O27 C76 1_555 1_555
C73 O30 1_555 1_555
C74 O29 1_555 1_555
C75 O29 1_555 1_555
C78 O30 1_555 1_555
C41A O16A 1_555 1_555
C43A C46A 1_555 1_555
C44A C47A 1_555 1_555
C48A N13A 1_555 1_555
N14A O18A 1_555 1_555
C54A C55A 1_555 1_555
C56A C57A 1_555 1_555
C56A N16A 1_555 1_555
C62A C63A 1_555 1_555
C64A N19A 1_555 1_555
C65A C66A 1_555 1_555
C67A O28A 1_555 1_555
C68A O28A 1_555 1_555
C69A O26A 1_555 1_555
C70A O25A 1_555 1_555
C71A O25A 1_555 1_555
O26A C77A 1_555 1_555
C72A O27A 1_555 1_555
O27A C76A 1_555 1_555
C73A O30A 1_555 1_555
C74A O29A 1_555 1_555
C75A O29A 1_555 1_555
C78A O30A 1_555 1_555

#END
