
#######################################################################
#
#                 Cambridge Crystallographic Data Centre
#                                CCDC 
#
#######################################################################
#
# If this CIF has been generated from an entry in the Cambridge 
# Structural Database, then it will include bibliographic, chemical, 
# crystal, experimental, refinement or atomic coordinate data resulting 
# from the CCDC's data processing and validation procedures.
#
#######################################################################

data_KIKHAP
_symmetry_cell_setting           tetragonal
_symmetry_space_group_name_H-M   'P 43 21 2'
_symmetry_Int_Tables_number      96
_space_group_name_Hall           'P 4nw 2abw'
loop_
_symmetry_equiv_pos_site_id
_symmetry_equiv_pos_as_xyz
1 x,y,z
2 1/2-y,1/2+x,3/4+z
3 -x,-y,1/2+z
4 1/2+y,1/2-x,1/4+z
5 1/2+x,1/2-y,1/4-z
6 1/2-x,1/2+y,3/4-z
7 y,x,-z
8 -y,-x,1/2-z
_cell_length_a                   10.6882(15)
_cell_length_b                   10.6882(15)
_cell_length_c                   16.036(3)
_cell_angle_alpha                90
_cell_angle_beta                 90
_cell_angle_gamma                90
_cell_volume                     1831.91
loop_
_atom_site_label
_atom_site_type_symbol
_atom_site_fract_x
_atom_site_fract_y
_atom_site_fract_z
Cd1 Cd 0.700607(16) 0.700607(16) 0.0000
C1 C 0.7987(3) 0.8707(3) 0.35895(17)
N1 N 0.85032(19) 0.7929(2) 0.22043(13)
H1 H 0.7707 0.7901 0.2130
C2 C 0.9262(2) 0.7580(2) 0.15439(16)
N2 N 0.8785(2) 0.7335(2) 0.07923(14)
C3 C 0.8929(3) 0.8313(3) 0.29649(18)
C4 C 0.6452(3) 0.9370(3) 0.4880(2)
C5 C 0.6842(3) 0.8136(3) 0.36813(18)
H2 H 0.6593 0.7525 0.3303
C6 C 0.7567(4) 0.9960(3) 0.4802(2)
H3 H 0.7805 1.0575 0.5180
C7 C 0.8339(3) 0.9632(3) 0.4154(2)
H4 H 0.9106 1.0033 0.4092
C8 C 0.6052(3) 0.8467(4) 0.4337(2)
H5 H 0.5276 0.8086 0.4403
N3 N 1.0499(2) 0.7481(2) 0.15467(14)
N4 N 1.0799(2) 0.7176(3) 0.07521(14)
O1 O 1.0044(2) 0.8367(3) 0.31340(13)
N5 N 0.9798(2) 0.7089(3) 0.03061(14)
F1 F 0.5713(2) 0.9675(3) 0.55315(14)
C1F C 0.8707(3) 0.7987(3) -0.35895(17)
N1F N 0.7929(2) 0.85032(19) -0.22043(13)
H1F H 0.7901 0.7707 -0.2130
C2F C 0.7580(2) 0.9262(2) -0.15439(16)
N2F N 0.7335(2) 0.8785(2) -0.07923(14)
C3F C 0.8313(3) 0.8929(3) -0.29649(18)
C4F C 0.9370(3) 0.6452(3) -0.4880(2)
C5F C 0.8136(3) 0.6842(3) -0.36813(18)
H2F H 0.7525 0.6593 -0.3303
C6F C 0.9960(3) 0.7567(4) -0.4802(2)
H3F H 1.0575 0.7805 -0.5180
C7F C 0.9632(3) 0.8339(3) -0.4154(2)
H4F H 1.0033 0.9106 -0.4092
C8F C 0.8467(4) 0.6052(3) -0.4337(2)
H5F H 0.8086 0.5276 -0.4403
N3F N 0.7481(2) 1.0499(2) -0.15467(14)
N4F N 0.7176(3) 1.0799(2) -0.07521(14)
O1F O 0.8367(3) 1.0044(2) -0.31340(13)
N5F N 0.7089(3) 0.9798(2) -0.03061(14)
F1F F 0.9675(3) 0.5713(2) -0.55315(14)
Cd1A Cd 0.799393(16) 1.200607(16) -0.2500
Cd1C Cd 1.200607(16) 0.799393(16) 0.2500
N3A N 0.7519(2) 0.5499(2) -0.09533(14)
N3D N 0.5499(2) 0.7519(2) 0.09533(14)
O1A O 0.6633(3) 0.5044(2) 0.06340(13)
O1D O 0.5044(2) 0.6633(3) -0.06340(13)
loop_
_geom_bond_atom_site_label_1
_geom_bond_atom_site_label_2
_geom_bond_site_symmetry_1
_geom_bond_site_symmetry_2
Cd1 N2 1_555 1_555
C1 C3 1_555 1_555
N1 H1 1_555 1_555
C2 N1 1_555 1_555
N2 C2 1_555 1_555
C3 N1 1_555 1_555
C4 C6 1_555 1_555
C5 C1 1_555 1_555
H2 C5 1_555 1_555
C6 H3 1_555 1_555
C7 C1 1_555 1_555
H4 C7 1_555 1_555
C8 C4 1_555 1_555
H5 C8 1_555 1_555
N3 C2 1_555 1_555
N4 N3 1_555 1_555
O1 C3 1_555 1_555
N5 N2 1_555 1_555
F1 C4 1_555 1_555
C1F C3F 1_555 1_555
N1F H1F 1_555 1_555
C2F N1F 1_555 1_555
N2F Cd1 1_555 1_555
C3F N1F 1_555 1_555
C4F C6F 1_555 1_555
C5F C1F 1_555 1_555
H2F C5F 1_555 1_555
C6F H3F 1_555 1_555
C7F C1F 1_555 1_555
H4F C7F 1_555 1_555
C8F C4F 1_555 1_555
H5F C8F 1_555 1_555
N3F C2F 1_555 1_555
N4F N3F 1_555 1_555
O1F C3F 1_555 1_555
N5F N2F 1_555 1_555
F1F C4F 1_555 1_555
Cd1A N3F 1_555 1_555
Cd1C N3 1_555 1_555
N3A Cd1 1_555 1_555
N3D Cd1 1_555 1_555
O1A Cd1 1_555 1_555
O1D Cd1 1_555 1_555
C5 C8 1_555 1_555
C6 C7 1_555 1_555
N4 N5 1_555 1_555
O1 Cd1C 1_555 1_555
C2F N2F 1_555 1_555
C5F C8F 1_555 1_555
C6F C7F 1_555 1_555
N4F N5F 1_555 1_555
O1F Cd1A 1_555 1_555

#END
