
#######################################################################
#
#                 Cambridge Crystallographic Data Centre
#                                CCDC 
#
#######################################################################
#
# If this CIF has been generated from an entry in the Cambridge 
# Structural Database, then it will include bibliographic, chemical, 
# crystal, experimental, refinement or atomic coordinate data resulting 
# from the CCDC's data processing and validation procedures.
#
#######################################################################

data_KIKHIX
_symmetry_cell_setting           monoclinic
_symmetry_space_group_name_H-M   'P 21/n'
_symmetry_Int_Tables_number      14
_space_group_name_Hall           '-P 2yn'
loop_
_symmetry_equiv_pos_site_id
_symmetry_equiv_pos_as_xyz
1 x,y,z
2 1/2-x,1/2+y,1/2-z
3 -x,-y,-z
4 1/2+x,1/2-y,1/2+z
_cell_length_a                   6.502(4)
_cell_length_b                   7.422(5)
_cell_length_c                   37.87(2)
_cell_angle_alpha                90
_cell_angle_beta                 91.915(8)
_cell_angle_gamma                90
_cell_volume                     1826.5
loop_
_atom_site_label
_atom_site_type_symbol
_atom_site_fract_x
_atom_site_fract_y
_atom_site_fract_z
Pb1 Pb -0.09116(11) 0.74463(8) 0.025801(19)
Cl1 Cl -0.3004(16) 0.6504(12) 0.2326(2)
Cl2 Cl 0.7951(16) 0.8906(13) -0.2143(2)
O1 O 0.105(2) 0.667(2) 0.0964(4)
O2 O 0.572(2) 0.609(3) 0.0567(5)
O3 O 0.292(3) 0.746(3) 0.0365(6)
O4 O 0.312(3) 0.845(2) -0.0841(5)
O5 O -0.001(2) 0.6013(19) -0.0315(4)
O6 O 0.068(3) 0.894(2) -0.0312(4)
C1 C -0.167(5) 0.646(4) 0.1941(8)
C2 C 0.016(5) 0.556(4) 0.1911(6)
H1 H 0.0746 0.4895 0.2096
C3 C 0.111(4) 0.571(3) 0.1584(6)
H2 H 0.2418 0.5222 0.1563
C4 C 0.019(3) 0.656(3) 0.1288(6)
C5 C -0.175(4) 0.731(2) 0.1322(7)
H3 H -0.2426 0.7780 0.1122
C6 C -0.270(5) 0.739(3) 0.1640(8)
H4 H -0.3934 0.7999 0.1665
C7 C 0.309(3) 0.597(3) 0.0928(7)
H5 H 0.3045 0.4659 0.0931
H6 H 0.3965 0.6363 0.1126
C8 C 0.396(4) 0.660(3) 0.0588(7)
C9 C 0.654(4) 0.872(3) -0.1754(7)
C10 C 0.735(3) 0.945(3) -0.1449(6)
H7 H 0.8632 1.0014 -0.1444
C11 C 0.620(3) 0.933(3) -0.1144(6)
H8 H 0.6733 0.9761 -0.0929
C12 C 0.423(3) 0.856(3) -0.1164(6)
C13 C 0.351(4) 0.780(3) -0.1479(8)
H9 H 0.2231 0.7246 -0.1484
C14 C 0.456(5) 0.784(3) -0.1780(8)
H10 H 0.4044 0.7329 -0.1989
C15 C 0.166(3) 0.722(2) -0.0822(5)
H11 H 0.2226 0.6018 -0.0849
H12 H 0.0601 0.7407 -0.1005
C16 C 0.076(3) 0.743(2) -0.0458(5)
O7 O -0.408(4) 0.825(4) -0.0153(5)
H13 H -0.4851 0.7860 0.0008
H14 H -0.3065 0.7535 -0.0170
Pb1_2 Pb 0.90884(11) 0.74463(8) 0.025801(19)
Pb1B Pb 0.09116(11) 0.25537(8) -0.025801(19)
Pb1B_2 Pb 0.09116(11) 1.25537(8) -0.025801(19)
O2_2 O -0.428(2) 0.609(3) 0.0567(5)
O5B O 0.001(2) 0.3987(19) 0.0315(4)
O6B O -0.068(3) 1.106(2) 0.0312(4)
loop_
_geom_bond_atom_site_label_1
_geom_bond_atom_site_label_2
_geom_bond_site_symmetry_1
_geom_bond_site_symmetry_2
Pb1 O3 1_555 1_555
Cl1 C1 1_555 1_555
Cl2 C9 1_555 1_555
O1 C4 1_555 1_555
O2 C8 1_555 1_555
O3 C8 1_555 1_555
O4 C12 1_555 1_555
O5 Pb1 1_555 1_555
O6 Pb1 1_555 1_555
C1 C2 1_555 1_555
C2 H1 1_555 1_555
C3 C2 1_555 1_555
H2 C3 1_555 1_555
C4 C3 1_555 1_555
C5 C4 1_555 1_555
H3 C5 1_555 1_555
C6 C1 1_555 1_555
H4 C6 1_555 1_555
C7 O1 1_555 1_555
H5 C7 1_555 1_555
H6 C7 1_555 1_555
C8 C7 1_555 1_555
C9 C10 1_555 1_555
C10 H7 1_555 1_555
C11 C10 1_555 1_555
H8 C11 1_555 1_555
C12 C11 1_555 1_555
C13 C12 1_555 1_555
H9 C13 1_555 1_555
C14 C9 1_555 1_555
H10 C14 1_555 1_555
C15 O4 1_555 1_555
H11 C15 1_555 1_555
H12 C15 1_555 1_555
C16 O5 1_555 1_555
O7 Pb1 1_555 1_555
H13 O7 1_555 1_555
H14 O7 1_555 1_555
Pb1_2 O2 1_555 1_555
Pb1B O5 1_555 1_555
Pb1B_2 O6 1_555 1_555
O2_2 Pb1 1_555 1_555
O5B Pb1 1_555 1_555
O6B Pb1 1_555 1_555
O6 C16 1_555 1_555
C5 C6 1_555 1_555
C13 C14 1_555 1_555
C15 C16 1_555 1_555
Pb1B O5B 1_555 1_555
Pb1B_2 O6B 1_555 1_555

#END
