
#######################################################################
#
#                 Cambridge Crystallographic Data Centre
#                                CCDC 
#
#######################################################################
#
# If this CIF has been generated from an entry in the Cambridge 
# Structural Database, then it will include bibliographic, chemical, 
# crystal, experimental, refinement or atomic coordinate data resulting 
# from the CCDC's data processing and validation procedures.
#
#######################################################################

data_KIKJAR
_symmetry_cell_setting           monoclinic
_symmetry_space_group_name_H-M   'C c'
_symmetry_Int_Tables_number      9
_space_group_name_Hall           'C -2yc'
loop_
_symmetry_equiv_pos_site_id
_symmetry_equiv_pos_as_xyz
1 x,y,z
2 x,-y,1/2+z
3 1/2+x,1/2+y,z
4 1/2+x,1/2-y,1/2+z
_cell_length_a                   9.765(11)
_cell_length_b                   24.09(3)
_cell_length_c                   27.27(3)
_cell_angle_alpha                90
_cell_angle_beta                 97.041(18)
_cell_angle_gamma                90
_cell_volume                     6366.59
loop_
_atom_site_label
_atom_site_type_symbol
_atom_site_fract_x
_atom_site_fract_y
_atom_site_fract_z
O1 O 0.4475(11) 0.1593(5) 0.2028(4)
Pb1 Pb 1.15175(4) 0.01717(2) 0.10750(2)
Pb2 Pb 1.18364(5) 0.18318(2) 0.17181(2)
Pb3 Pb 0.72803(5) 0.08003(2) 0.14486(2)
C1 C 0.793(2) 0.1873(9) 0.2484(8)
H1 H 0.8014 0.1542 0.2688
H2 H 0.7056 0.1854 0.2274
C2 C 1.3860(18) -0.0535(8) 0.1910(7)
H3 H 1.4245 -0.0181 0.1926
O2 O 0.9087(11) 0.0437(5) 0.0820(4)
N1 N 1.2791(13) 0.2782(6) 0.1899(5)
O3 O 0.5600(13) 0.0792(6) 0.2143(5)
C3 C 1.1044(16) -0.1251(6) 0.1187(6)
N2 N 0.4908(17) 0.0062(7) 0.0802(7)
N3 N 1.0440(13) -0.0798(5) 0.0949(5)
O4 O 0.6038(12) 0.1686(5) 0.1296(5)
H4 H 0.6456 0.1531 0.1077
H5 H 0.5208 0.1747 0.1175
O5 O 0.9987(12) 0.2227(5) 0.2271(5)
O6 O 1.0113(12) 0.0096(5) 0.1776(4)
C4 C 1.0999(16) 0.3142(6) 0.1275(6)
C5 C 1.2877(18) -0.1557(7) 0.1860(7)
H6 H 1.2507 -0.1913 0.1838
N4 N 1.2734(14) -0.0629(6) 0.1593(5)
C6 C 1.2247(16) 0.3224(6) 0.1670(6)
C7 C 1.2531(17) 0.1585(7) 0.0752(7)
O7 O 0.6150(15) -0.0099(6) 0.0863(6)
O8 O 1.1962(10) 0.0609(5) 0.1981(4)
O9 O 1.1537(11) 0.1334(5) 0.0823(5)
C8 C 0.8571(16) 0.0823(6) 0.0537(6)
C9 C 1.2212(17) -0.1128(6) 0.1541(6)
O10 O 0.8984(11) 0.1500(5) 0.1848(4)
C10 C 0.9290(17) -0.0843(7) 0.0622(7)
H7 H 0.8887 -0.0526 0.0472
C11 C 0.4801(16) 0.1169(7) 0.2280(6)
C12 C 1.3940(19) -0.1469(8) 0.2168(7)
H8 H 1.4353 -0.1757 0.2361
O11 O 0.7937(16) 0.2352(6) 0.2797(6)
C13 C 1.0462(19) -0.1765(7) 0.1070(7)
H9 H 1.0895 -0.2081 0.1211
C14 C 0.9466(17) 0.2473(7) 0.0916(7)
H10 H 0.9176 0.2105 0.0887
N5 N 1.0589(13) 0.2608(5) 0.1242(5)
O12 O 0.4676(13) 0.0491(6) 0.1038(6)
O13 O 0.7732(12) 0.1170(5) 0.0661(4)
C15 C 0.9013(16) 0.1879(7) 0.2183(6)
C16 C 0.9260(19) -0.1824(8) 0.0750(7)
H11 H 0.8830 -0.2167 0.0699
Cl1 Cl 1.2554(6) 0.0589(3) -0.1907(2)
Cl2 Cl 0.6531(7) 0.0294(3) 0.4464(2)
O14 O 0.9067(13) 0.0298(6) 0.2612(5)
O15 O 1.0049(11) 0.0496(5) -0.0046(4)
C17 C 0.633(3) 0.2338(12) 0.4144(10)
C18 C 1.1788(17) 0.0225(7) -0.0541(7)
H12 H 1.2189 0.0010 -0.0279
C19 C 0.119(2) 0.1859(9) 0.3799(8)
H13 H 0.0478 0.2105 0.3839
C20 C 1.0569(17) 0.0527(7) -0.0507(7)
C21 C 0.8534(17) 0.0307(7) 0.3057(7)
C22 C 1.2363(18) 0.0256(8) -0.0976(7)
H14 H 1.3192 0.0073 -0.0999
C23 C 0.8972(17) 0.0882(7) 0.0024(6)
H15 H 0.8176 0.0813 -0.0217
H16 H 0.9288 0.1258 -0.0024
C24 C 1.4467(18) 0.3402(8) 0.2350(7)
H17 H 1.5238 0.3442 0.2584
C25 C 1.3115(19) 0.1449(9) 0.0258(7)
H18 H 1.3197 0.1050 0.0226
H19 H 1.2472 0.1581 -0.0017
C26 C 1.618(2) 0.1934(8) -0.0240(8)
H20 H 1.6558 0.2148 0.0027
C27 C 0.9238(18) 0.0535(8) 0.3485(7)
H21 H 1.0116 0.0683 0.3481
C28 C 0.333(2) 0.1154(8) 0.3703(7)
H22 H 0.4047 0.0907 0.3672
C29 C 1.177(2) 0.0541(8) -0.1366(7)
C30 C 0.1706(19) 0.1524(9) 0.4179(7)
C31 C 0.278(2) 0.1195(9) 0.4140(7)
H23 H 0.3169 0.0991 0.4412
O16 O 0.3964(16) -0.0168(6) 0.0536(6)
C32 C 1.2734(19) 0.3762(7) 0.1754(6)
H24 H 1.2325 0.4058 0.1571
C33 C 0.739(2) 0.2319(9) 0.3235(8)
C34 C 1.3907(18) 0.2890(8) 0.2227(7)
H25 H 1.4345 0.2586 0.2387
C35 C 1.0392(17) 0.3560(7) 0.0981(6)
H26 H 1.0736 0.3921 0.0999
C36 C 0.8735(19) 0.2888(8) 0.0621(7)
H27 H 0.7941 0.2807 0.0409
C37 C 0.861(2) 0.0539(8) 0.3920(7)
H28 H 0.9048 0.0706 0.4204
C38 C 1.685(2) 0.1930(9) -0.0648(8)
H29 H 1.7661 0.2130 -0.0657
C39 C 0.736(2) 0.0292(9) 0.3919(8)
C40 C 1.0815(15) 0.0391(6) 0.2084(6)
C41 C 0.664(2) 0.0057(9) 0.3491(8)
H30 H 0.5777 -0.0107 0.3496
C42 C 1.632(2) 0.1634(10) -0.1035(8)
C43 C 1.0382(15) 0.0535(7) 0.2584(6)
H31 H 1.1046 0.0389 0.2846
H32 H 1.0338 0.0935 0.2621
C44 C 1.3829(19) 0.3849(8) 0.2111(7)
H33 H 1.4134 0.4207 0.2191
C45 C 1.503(2) 0.1651(9) -0.0194(9)
C46 C 0.9271(18) 0.3419(7) 0.0668(7)
H34 H 0.8830 0.3697 0.0470
O17 O 0.3332(12) 0.1487(5) 0.2853(4)
C47 C 0.172(2) 0.1833(8) 0.3354(8)
H35 H 0.1357 0.2048 0.3086
C48 C 1.058(2) 0.0821(9) -0.1330(7)
H36 H 1.0170 0.1031 -0.1595
C49 C 0.8719(19) -0.1348(8) 0.0509(7)
H37 H 0.7960 -0.1377 0.0269
C50 C 1.4468(19) -0.0940(8) 0.2212(7)
H38 H 1.5224 -0.0859 0.2442
O18 O 1.4455(13) 0.1703(6) 0.0233(5)
C51 C 0.4289(17) 0.1091(8) 0.2760(6)
H39 H 0.3873 0.0726 0.2769
H40 H 0.5063 0.1105 0.3020
C52 C 0.726(2) 0.0080(9) 0.3058(8)
H41 H 0.6801 -0.0062 0.2766
C53 C 0.2826(18) 0.1473(8) 0.3318(7)
C54 C 0.998(2) 0.0793(9) -0.0912(7)
H42 H 0.9133 0.0965 -0.0902
Cl3 Cl 0.0961(7) 0.1523(3) 0.4732(2)
Cl4 Cl 0.5815(10) 0.2354(4) 0.4715(3)
Cl5 Cl 1.7068(7) 0.1626(3) -0.1603(3)
C55 C 0.723(3) 0.1844(11) 0.3491(10)
H43 H 0.7438 0.1505 0.3354
C56 C 0.677(3) 0.1847(12) 0.3935(10)
H44 H 0.6741 0.1516 0.4109
C57 C 0.734(3) 0.2806(13) 0.3457(10)
H45 H 0.7712 0.3131 0.3344
C58 C 0.661(3) 0.2773(13) 0.3924(10)
H46 H 0.6342 0.3107 0.4055
O19 O 1.3201(12) 0.1952(5) 0.1008(4)
C59 C 1.460(3) 0.1273(12) -0.0553(9)
H47 H 1.3949 0.1003 -0.0502
C60 C 1.520(3) 0.1307(12) -0.1033(11)
H48 H 1.4817 0.1114 -0.1312
O1_2 O 1.4475(11) 0.1593(5) 0.2028(4)
Pb2_2 Pb 0.18364(5) 0.18318(2) 0.17181(2)
loop_
_geom_bond_atom_site_label_1
_geom_bond_atom_site_label_2
_geom_bond_site_symmetry_1
_geom_bond_site_symmetry_2
O1 C11 1_555 1_555
Pb1 O2 1_555 1_555
Pb2 N1 1_555 1_555
Pb3 O2 1_555 1_555
C1 H1 1_555 1_555
H2 C1 1_555 1_555
C2 H3 1_555 1_555
O2 C8 1_555 1_555
N1 C6 1_555 1_555
O3 Pb3 1_555 1_555
C3 N3 1_555 1_555
N2 O7 1_555 1_555
N3 Pb1 1_555 1_555
O4 Pb3 1_555 1_555
H4 O4 1_555 1_555
H5 O4 1_555 1_555
O5 Pb2 1_555 1_555
O6 Pb1 1_555 1_555
C4 C6 1_555 1_555
C5 H6 1_555 1_555
N4 Pb1 1_555 1_555
C6 C32 1_555 1_555
C7 O9 1_555 1_555
O7 Pb3 1_555 1_555
O8 Pb1 1_555 1_555
O9 Pb1 1_555 1_555
C8 O13 1_555 1_555
C9 C3 1_555 1_555
O10 Pb3 1_555 1_555
C10 N3 1_555 1_555
H7 C10 1_555 1_555
C11 O3 1_555 1_555
C12 C5 1_555 1_555
H8 C12 1_555 1_555
O11 C1 1_555 1_555
C13 C3 1_555 1_555
H9 C13 1_555 1_555
C14 H10 1_555 1_555
N5 Pb2 1_555 1_555
O12 Pb3 1_555 1_555
O13 Pb3 1_555 1_555
C15 C1 1_555 1_555
C16 C13 1_555 1_555
H11 C16 1_555 1_555
Cl1 C29 1_555 1_555
Cl2 C39 1_555 1_555
O14 C21 1_555 1_555
O15 C20 1_555 1_555
C17 Cl4 1_555 1_555
C18 H12 1_555 1_555
C19 H13 1_555 1_555
C20 C18 1_555 1_555
C21 C27 1_555 1_555
C22 C18 1_555 1_555
H14 C22 1_555 1_555
C23 C8 1_555 1_555
H15 C23 1_555 1_555
H16 C23 1_555 1_555
C24 H17 1_555 1_555
C25 C7 1_555 1_555
H18 C25 1_555 1_555
H19 C25 1_555 1_555
C26 H20 1_555 1_555
C27 H21 1_555 1_555
C28 H22 1_555 1_555
C29 C22 1_555 1_555
C30 C19 1_555 1_555
C31 C28 1_555 1_555
H23 C31 1_555 1_555
O16 N2 1_555 1_555
C32 H24 1_555 1_555
C33 O11 1_555 1_555
C34 N1 1_555 1_555
H25 C34 1_555 1_555
C35 C4 1_555 1_555
H26 C35 1_555 1_555
C36 C14 1_555 1_555
H27 C36 1_555 1_555
C37 C27 1_555 1_555
H28 C37 1_555 1_555
C38 C26 1_555 1_555
H29 C38 1_555 1_555
C39 C37 1_555 1_555
C40 O6 1_555 1_555
C41 C39 1_555 1_555
H30 C41 1_555 1_555
C42 C38 1_555 1_555
C43 O14 1_555 1_555
H31 C43 1_555 1_555
H32 C43 1_555 1_555
C44 C24 1_555 1_555
H33 C44 1_555 1_555
C45 C26 1_555 1_555
C46 C35 1_555 1_555
H34 C46 1_555 1_555
O17 C51 1_555 1_555
C47 C19 1_555 1_555
H35 C47 1_555 1_555
C48 C29 1_555 1_555
H36 C48 1_555 1_555
C49 C10 1_555 1_555
H37 C49 1_555 1_555
C50 C2 1_555 1_555
H38 C50 1_555 1_555
O18 C25 1_555 1_555
C51 C11 1_555 1_555
H39 C51 1_555 1_555
H40 C51 1_555 1_555
C52 C21 1_555 1_555
H41 C52 1_555 1_555
C53 C28 1_555 1_555
C54 C20 1_555 1_555
H42 C54 1_555 1_555
Cl3 C30 1_555 1_555
Cl5 C42 1_555 1_555
C55 C33 1_555 1_555
H43 C55 1_555 1_555
C56 C17 1_555 1_555
H44 C56 1_555 1_555
C57 C33 1_555 1_555
H45 C57 1_555 1_555
C58 C17 1_555 1_555
H46 C58 1_555 1_555
O19 Pb2 1_555 1_555
C59 C45 1_555 1_555
H47 C59 1_555 1_555
C60 C42 1_555 1_555
H48 C60 1_555 1_555
O1_2 Pb2 1_555 1_555
Pb2_2 O1 1_555 1_555
Pb2 O9 1_555 1_555
C2 N4 1_555 1_555
N2 O12 1_555 1_555
O5 C15 1_555 1_555
C4 N5 1_555 1_555
C5 C9 1_555 1_555
N4 C9 1_555 1_555
C7 O19 1_555 1_555
O8 C40 1_555 1_555
O10 C15 1_555 1_555
C12 C50 1_555 1_555
C14 N5 1_555 1_555
C16 C49 1_555 1_555
O15 C23 1_555 1_555
C24 C34 1_555 1_555
C30 C31 1_555 1_555
C32 C44 1_555 1_555
C36 C46 1_555 1_555
C40 C43 1_555 1_555
C41 C52 1_555 1_555
C45 O18 1_555 1_555
O17 C53 1_555 1_555
C47 C53 1_555 1_555
C48 C54 1_555 1_555
C55 C56 1_555 1_555
C57 C58 1_555 1_555
C59 C60 1_555 1_555

#END
