
#######################################################################
#
#                 Cambridge Crystallographic Data Centre
#                                CCDC 
#
#######################################################################
#
# If this CIF has been generated from an entry in the Cambridge 
# Structural Database, then it will include bibliographic, chemical, 
# crystal, experimental, refinement or atomic coordinate data resulting 
# from the CCDC's data processing and validation procedures.
#
#######################################################################

data_KIKPUR
_symmetry_cell_setting           monoclinic
_symmetry_space_group_name_H-M   'C 2/c'
_symmetry_Int_Tables_number      15
_space_group_name_Hall           '-C 2yn'
loop_
_symmetry_equiv_pos_site_id
_symmetry_equiv_pos_as_xyz
1 x,y,z
2 -x,y,1/2-z
3 1/2+x,1/2+y,z
4 1/2-x,1/2+y,1/2-z
5 -x,-y,-z
6 x,-y,1/2+z
7 1/2-x,1/2-y,-z
8 1/2+x,1/2-y,1/2+z
_cell_length_a                   33.404(2)
_cell_length_b                   19.1752(7)
_cell_length_c                   22.1972(11)
_cell_angle_alpha                90
_cell_angle_beta                 122.090(8)
_cell_angle_gamma                90
_cell_volume                     12045.6
loop_
_atom_site_label
_atom_site_type_symbol
_atom_site_fract_x
_atom_site_fract_y
_atom_site_fract_z
C36 C 0.4214(3) -0.0072(5) 0.4861(4)
H26 H 0.4526 0.0009 0.4968
N1 N 0.3911(3) 0.0411(5) 0.4785(4)
C37 C 0.3487(4) 0.0156(8) 0.4597(5)
H27 H 0.3205 0.0401 0.4464
N2 N 0.4002(3) -0.0715(5) 0.4760(4)
C38 C 0.3571(4) -0.0600(8) 0.4649(7)
H28 H 0.3357 -0.0949 0.4612
C39 C 0.4019(4) 0.1159(5) 0.4817(4)
H29 H 0.4341 0.1218 0.4923
H30 H 0.3991 0.1381 0.5191
H31 H 0.3796 0.1377 0.4358
C40 C 0.4212(4) -0.1368(5) 0.4750(4)
H32 H 0.4513 -0.1276 0.4777
H33 H 0.3998 -0.1612 0.4296
C41 C 0.4308(4) -0.1835(6) 0.5369(5)
H34 H 0.4013 -0.1889 0.537
H35 H 0.4404 -0.2304 0.5304
O23 O 0.4676(3) -0.1550(4) 0.6049(4)
H36 H 0.483 -0.1248 0.598
Gd2 Gd 0.49210(6) 0.47745(9) 0.72470(8)
O24 O 0.4261(4) 0.4425(6) 0.6828(6)
O25 O 0.500 0.3628(9) 0.750
O26 O 0.4804(8) 0.4483(9) 0.8307(8)
O27 O 0.5438(6) 0.5773(9) 0.7501(10)
Gd2A Gd 0.50790(6) 0.47745(9) 0.77530(8)
O24A O 0.5739(4) 0.4425(6) 0.8172(6)
O26A O 0.5196(8) 0.4483(9) 0.6693(8)
O27A O 0.4562(6) 0.5773(9) 0.7499(10)
O28 O 0.6392(3) 0.5320(4) 0.0136(5)
O29 O 0.6471(4) 0.4609(8) 0.7997(5)
Gd1 Gd 0.500 0.03236(3) 0.750
O1 O 0.5061(2) 0.1195(3) 0.8315(3)
O2 O 0.44930(19) -0.0602(3) 0.6770(3)
C1 C 0.2496(3) 0.0699(4) 0.4886(4)
O3 O 0.2065(2) 0.0397(3) 0.4381(3)
H1 H 0.2037 0.0401 0.3982
C2 C 0.2646(2) 0.1333(4) 0.4784(3)
C3 C 0.3094(2) 0.1566(4) 0.5326(3)
H2 H 0.321 0.2001 0.5277
C4 C 0.3371(2) 0.1165(4) 0.5935(3)
S1 S 0.39385(6) 0.14633(10) 0.66159(8)
O4 O 0.42196(16) 0.0830(3) 0.6923(2)
O5 O 0.38785(18) 0.1829(3) 0.7130(2)
O6 O 0.41188(17) 0.1907(3) 0.6273(2)
C5 C 0.3205(3) 0.0536(4) 0.6021(3)
H3 H 0.3395 0.0268 0.6439
C6 C 0.2763(2) 0.0294(4) 0.5501(3)
C7 C 0.2584(3) -0.0386(4) 0.5608(4)
H4 H 0.2239 -0.0416 0.5262
H5 H 0.2638 -0.0394 0.6091
C8 C 0.2640(2) 0.1618(4) 0.3295(3)
O7 O 0.23828(18) 0.1008(3) 0.3114(3)
H6 H 0.2302 0.089 0.27
C9 C 0.2888(2) 0.1833(3) 0.2990(3)
C10 C 0.3148(2) 0.2443(4) 0.3230(3)
H7 H 0.3329 0.2587 0.3037
C11 C 0.3148(3) 0.2852(4) 0.3751(3)
S2 S 0.34850(9) 0.36181(11) 0.40471(10)
O8 O 0.3266(3) 0.4097(4) 0.3452(4)
O9 O 0.3942(3) 0.3404(5) 0.4282(6)
O10 O 0.3424(4) 0.3880(4) 0.4617(4)
C12 C 0.2878(3) 0.2641(4) 0.4025(3)
H8 H 0.2869 0.2927 0.4366
C13 C 0.2628(2) 0.2036(4) 0.3819(3)
C14 C 0.2362(2) 0.1795(4) 0.4150(3)
H9 H 0.2076 0.1539 0.379
H10 H 0.2256 0.2208 0.4297
C15 C 0.2920(2) 0.0083(3) 0.2459(3)
O11 O 0.24424(17) 0.0117(3) 0.2143(2)
H11 H 0.2311 -0.0064 0.1737
C16 C 0.3660(2) -0.0508(3) 0.2952(3)
H12 H 0.3835 -0.0929 0.3059
C17 C 0.3894(2) 0.0112(4) 0.3162(3)
S3 S 0.45217(6) 0.01307(9) 0.36277(8)
O12 O 0.46807(17) -0.0534(3) 0.4009(2)
O13 O 0.46545(17) 0.0191(2) 0.3100(2)
O14 O 0.46693(18) 0.0737(3) 0.4084(2)
C18 C 0.3167(2) -0.0537(3) 0.2583(3)
C19 C 0.3649(2) 0.0737(3) 0.2998(3)
H13 H 0.3816 0.1167 0.3132
C20 C 0.3162(2) 0.0737(3) 0.2640(3)
C21 C 0.2880(3) 0.1412(3) 0.2402(3)
H14 H 0.3003 0.1709 0.2172
H15 H 0.2547 0.1299 0.2038
C22 C 0.2812(2) -0.1778(4) 0.3246(3)
O15 O 0.25096(19) -0.1213(3) 0.3109(3)
H16 H 0.2402 -0.1238 0.3375
C23 C 0.2884(3) -0.2307(4) 0.3715(3)
C24 C 0.3195(3) -0.2831(4) 0.3825(4)
H17 H 0.3248 -0.3195 0.415
C25 C 0.3431(3) -0.2837(4) 0.3471(4)
S4 S 0.38460(10) -0.34975(12) 0.36424(13)
O16 O 0.3652(4) -0.4135(4) 0.3700(7)
O17 O 0.4258(4) -0.3302(6) 0.4247(5)
O18 O 0.3895(3) -0.3541(4) 0.3055(4)
C26 C 0.3341(2) -0.2321(3) 0.2974(3)
H18 H 0.3493 -0.2337 0.2714
C27 C 0.3030(2) -0.1785(3) 0.2857(3)
C28 C 0.2915(2) -0.1241(3) 0.2294(3)
H19 H 0.2569 -0.1159 0.2021
H20 H 0.2999 -0.1428 0.196
C29 C 0.2636(3) -0.1344(4) 0.4838(4)
O19 O 0.2279(2) -0.1057(3) 0.4241(3)
H21 H 0.2112 -0.0814 0.434
C30 C 0.2819(3) -0.1013(4) 0.5517(4)
C31 C 0.3215(3) -0.1323(4) 0.6104(4)
H22 H 0.3354 -0.111 0.6558
C32 C 0.3401(3) -0.1924(4) 0.6032(4)
S5 S 0.38806(8) -0.23280(12) 0.68056(11)
O20 O 0.3682(2) -0.2640(4) 0.7174(3)
O21 O 0.4206(2) -0.1781(4) 0.7207(3)
O22 O 0.4068(3) -0.2838(5) 0.6548(4)
C33 C 0.3208(3) -0.2255(4) 0.5382(4)
H23 H 0.3341 -0.2681 0.5349
C34 C 0.2823(3) -0.1969(4) 0.4780(4)
C35 C 0.2597(3) -0.2342(4) 0.4076(4)
H24 H 0.2281 -0.2137 0.3752
H25 H 0.2551 -0.2838 0.415
O1A O 0.4939(2) 0.1195(3) 0.6685(3)
O2A O 0.55070(19) -0.0602(3) 0.8230(3)
C1A C 0.7504(3) 0.0699(4) 1.0114(4)
O3A O 0.7935(2) 0.0397(3) 1.0619(3)
H1A H 0.7963 0.0401 1.1018
C2A C 0.7354(2) 0.1333(4) 1.0216(3)
C3A C 0.6906(2) 0.1566(4) 0.9674(3)
H2A H 0.679 0.2001 0.9723
C4A C 0.6629(2) 0.1165(4) 0.9065(3)
S1A S 0.60615(6) 0.14633(10) 0.83841(8)
O4A O 0.57804(16) 0.0830(3) 0.8077(2)
O5A O 0.61215(18) 0.1829(3) 0.7870(2)
O6A O 0.58812(17) 0.1907(3) 0.8727(2)
C5A C 0.6795(3) 0.0536(4) 0.8979(3)
H3A H 0.6605 0.0268 0.8561
C6A C 0.7237(2) 0.0294(4) 0.9499(3)
C7A C 0.7416(3) -0.0386(4) 0.9392(4)
H4A H 0.7761 -0.0416 0.9738
H5A H 0.7362 -0.0394 0.8909
C8A C 0.7360(2) 0.1618(4) 1.1705(3)
O7A O 0.76172(18) 0.1008(3) 1.1886(3)
H6A H 0.7698 0.089 1.23
C9A C 0.7112(2) 0.1833(3) 1.2010(3)
C10A C 0.6852(2) 0.2443(4) 1.1770(3)
H7A H 0.6671 0.2587 1.1963
C11A C 0.6852(3) 0.2852(4) 1.1249(3)
S2A S 0.65150(9) 0.36181(11) 1.09529(10)
O8A O 0.6734(3) 0.4097(4) 1.1548(4)
O9A O 0.6058(3) 0.3404(5) 1.0718(6)
O10A O 0.6576(4) 0.3880(4) 1.0383(4)
C12A C 0.7122(3) 0.2641(4) 1.0975(3)
H8A H 0.7131 0.2927 1.0634
C13A C 0.7372(2) 0.2036(4) 1.1181(3)
C14A C 0.7638(2) 0.1795(4) 1.0850(3)
H9A H 0.7924 0.1539 1.121
H10A H 0.7744 0.2208 1.0703
C15A C 0.7080(2) 0.0083(3) 1.2541(3)
O11A O 0.75576(17) 0.0117(3) 1.2857(2)
H11A H 0.7689 -0.0064 1.3263
C16A C 0.6340(2) -0.0508(3) 1.2048(3)
H12A H 0.6165 -0.0929 1.1941
C17A C 0.6106(2) 0.0112(4) 1.1838(3)
S3A S 0.54783(6) 0.01307(9) 1.13723(8)
O12A O 0.53193(17) -0.0534(3) 1.0991(2)
O13A O 0.53455(17) 0.0191(2) 1.1900(2)
O14A O 0.53307(18) 0.0737(3) 1.0916(2)
C18A C 0.6833(2) -0.0537(3) 1.2417(3)
C19A C 0.6351(2) 0.0737(3) 1.2002(3)
H13A H 0.6184 0.1167 1.1868
C20A C 0.6838(2) 0.0737(3) 1.2360(3)
C21A C 0.7120(3) 0.1412(3) 1.2598(3)
H14A H 0.6997 0.1709 1.2828
H15A H 0.7453 0.1299 1.2962
C22A C 0.7188(2) -0.1778(4) 1.1754(3)
O15A O 0.74904(19) -0.1213(3) 1.1891(3)
H16A H 0.7598 -0.1238 1.1625
C23A C 0.7116(3) -0.2307(4) 1.1285(3)
C24A C 0.6805(3) -0.2831(4) 1.1175(4)
H17A H 0.6752 -0.3195 1.085
C25A C 0.6569(3) -0.2837(4) 1.1529(4)
S4A S 0.61540(10) -0.34975(12) 1.13576(13)
O16A O 0.6348(4) -0.4135(4) 1.1300(7)
O17A O 0.5742(4) -0.3302(6) 1.0753(5)
O18A O 0.6105(3) -0.3541(4) 1.1945(4)
C26A C 0.6659(2) -0.2321(3) 1.2026(3)
H18A H 0.6507 -0.2337 1.2286
C27A C 0.6970(2) -0.1785(3) 1.2143(3)
C28A C 0.7085(2) -0.1241(3) 1.2706(3)
H19A H 0.7431 -0.1159 1.2979
H20A H 0.7001 -0.1428 1.304
C29A C 0.7364(3) -0.1344(4) 1.0162(4)
O19A O 0.7721(2) -0.1057(3) 1.0759(3)
H21A H 0.7888 -0.0814 1.066
C30A C 0.7181(3) -0.1013(4) 0.9483(4)
C31A C 0.6785(3) -0.1323(4) 0.8896(4)
H22A H 0.6646 -0.111 0.8442
C32A C 0.6599(3) -0.1924(4) 0.8968(4)
S5A S 0.61194(8) -0.23280(12) 0.81944(11)
O20A O 0.6318(2) -0.2640(4) 0.7826(3)
O21A O 0.5794(2) -0.1781(4) 0.7793(3)
O22A O 0.5932(3) -0.2838(5) 0.8452(4)
C33A C 0.6792(3) -0.2255(4) 0.9618(4)
H23A H 0.6659 -0.2681 0.9651
C34A C 0.7177(3) -0.1969(4) 1.0220(4)
C35A C 0.7403(3) -0.2342(4) 1.0924(4)
H24A H 0.7719 -0.2137 1.1248
H25A H 0.7449 -0.2838 1.085
Gd1D Gd 0.500 -0.03236(3) 0.250
Gd1D_2 Gd 0.500 -0.03236(3) 1.250
O13D O 0.53455(17) -0.0191(2) 0.6900(2)
O13E O 0.46545(17) -0.0191(2) 0.8100(2)
O30? O 0.3730(9) 0.3716(13) 0.3661(12)
O31? O 0.3187(8) 0.4202(10) 0.3886(13)
O32? O 0.3864(9) 0.3537(16) 0.4788(10)
O33? O 0.6164(7) 0.3314(7) 0.9030(6)
O34? O 0.6435(5) 0.5931(6) 0.7549(7)
O35? O 0.4557(5) 0.2791(8) 0.7959(8)
O36? O 0.500 0.500 0.000
O37? O 0.4432(5) 0.7405(8) 0.8712(8)
O38? O 0.6314(8) -0.4142(10) 0.8935(10)
O39? O 0.5231(12) 0.2519(15) 0.948(2)
loop_
_geom_bond_atom_site_label_1
_geom_bond_atom_site_label_2
_geom_bond_site_symmetry_1
_geom_bond_site_symmetry_2
Gd1 O1 1_555 1_555
O2 Gd1 1_555 1_555
C1 O3 1_555 1_555
O3 H1 1_555 1_555
C2 C1 1_555 1_555
C3 C2 1_555 1_555
H2 C3 1_555 1_555
C4 C3 1_555 1_555
S1 C4 1_555 1_555
O4 Gd1 1_555 1_555
O5 S1 1_555 1_555
O6 S1 1_555 1_555
C5 C4 1_555 1_555
H3 C5 1_555 1_555
C6 C1 1_555 1_555
C7 C6 1_555 1_555
H4 C7 1_555 1_555
H5 C7 1_555 1_555
C8 O7 1_555 1_555
O7 H6 1_555 1_555
C9 C8 1_555 1_555
C10 C9 1_555 1_555
H7 C10 1_555 1_555
C11 C10 1_555 1_555
S2 C11 1_555 1_555
O8 S2 1_555 1_555
O9 S2 1_555 1_555
O10 S2 1_555 1_555
C12 C11 1_555 1_555
H8 C12 1_555 1_555
C13 C8 1_555 1_555
C14 C2 1_555 1_555
H9 C14 1_555 1_555
H10 C14 1_555 1_555
C15 O11 1_555 1_555
O11 H11 1_555 1_555
C16 H12 1_555 1_555
C17 C16 1_555 1_555
S3 C17 1_555 1_555
O12 S3 1_555 1_555
O13 S3 1_555 1_555
O14 S3 1_555 1_555
C18 C15 1_555 1_555
C19 C17 1_555 1_555
H13 C19 1_555 1_555
C20 C15 1_555 1_555
C21 C9 1_555 1_555
H14 C21 1_555 1_555
H15 C21 1_555 1_555
C22 O15 1_555 1_555
O15 H16 1_555 1_555
C23 C22 1_555 1_555
C24 C23 1_555 1_555
H17 C24 1_555 1_555
C25 C24 1_555 1_555
S4 C25 1_555 1_555
O16 S4 1_555 1_555
O17 S4 1_555 1_555
O18 S4 1_555 1_555
C26 C25 1_555 1_555
H18 C26 1_555 1_555
C27 C22 1_555 1_555
C28 C18 1_555 1_555
H19 C28 1_555 1_555
H20 C28 1_555 1_555
C29 O19 1_555 1_555
O19 H21 1_555 1_555
C30 C7 1_555 1_555
C31 C30 1_555 1_555
H22 C31 1_555 1_555
C32 C31 1_555 1_555
S5 C32 1_555 1_555
O20 S5 1_555 1_555
O21 S5 1_555 1_555
O22 S5 1_555 1_555
C33 C32 1_555 1_555
H23 C33 1_555 1_555
C34 C29 1_555 1_555
C35 C23 1_555 1_555
H24 C35 1_555 1_555
H25 C35 1_555 1_555
C36 H26 1_555 1_555
N1 C36 1_555 1_555
C37 N1 1_555 1_555
H27 C37 1_555 1_555
N2 C36 1_555 1_555
C38 C37 1_555 1_555
H28 C38 1_555 1_555
C39 N1 1_555 1_555
H29 C39 1_555 1_555
H30 C39 1_555 1_555
H31 C39 1_555 1_555
C40 N2 1_555 1_555
H32 C40 1_555 1_555
H33 C40 1_555 1_555
C41 C40 1_555 1_555
H34 C41 1_555 1_555
H35 C41 1_555 1_555
O23 C41 1_555 1_555
H36 O23 1_555 1_555
Gd2 O24 1_555 1_555
O24 Gd2A 1_555 1_555
O25 Gd2 1_555 1_555
O26 Gd2 1_555 1_555
O27 Gd2 1_555 1_555
O1A Gd1 1_555 1_555
O2A Gd1 1_555 1_555
C1A O3A 1_555 1_555
O3A H1A 1_555 1_555
C2A C1A 1_555 1_555
C3A C2A 1_555 1_555
H2A C3A 1_555 1_555
C4A C3A 1_555 1_555
S1A C4A 1_555 1_555
O4A Gd1 1_555 1_555
O5A S1A 1_555 1_555
O6A S1A 1_555 1_555
C5A C4A 1_555 1_555
H3A C5A 1_555 1_555
C6A C1A 1_555 1_555
C7A C6A 1_555 1_555
H4A C7A 1_555 1_555
H5A C7A 1_555 1_555
C8A O7A 1_555 1_555
O7A H6A 1_555 1_555
C9A C8A 1_555 1_555
C10A C9A 1_555 1_555
H7A C10A 1_555 1_555
C11A C10A 1_555 1_555
S2A C11A 1_555 1_555
O8A S2A 1_555 1_555
O9A S2A 1_555 1_555
O10A S2A 1_555 1_555
C12A C11A 1_555 1_555
H8A C12A 1_555 1_555
C13A C8A 1_555 1_555
C14A C2A 1_555 1_555
H9A C14A 1_555 1_555
H10A C14A 1_555 1_555
C15A O11A 1_555 1_555
O11A H11A 1_555 1_555
C16A H12A 1_555 1_555
C17A C16A 1_555 1_555
S3A C17A 1_555 1_555
O12A S3A 1_555 1_555
O13A S3A 1_555 1_555
O14A S3A 1_555 1_555
C18A C15A 1_555 1_555
C19A C17A 1_555 1_555
H13A C19A 1_555 1_555
C20A C15A 1_555 1_555
C21A C9A 1_555 1_555
H14A C21A 1_555 1_555
H15A C21A 1_555 1_555
C22A O15A 1_555 1_555
O15A H16A 1_555 1_555
C23A C22A 1_555 1_555
C24A C23A 1_555 1_555
H17A C24A 1_555 1_555
C25A C24A 1_555 1_555
S4A C25A 1_555 1_555
O16A S4A 1_555 1_555
O17A S4A 1_555 1_555
O18A S4A 1_555 1_555
C26A C25A 1_555 1_555
H18A C26A 1_555 1_555
C27A C22A 1_555 1_555
C28A C18A 1_555 1_555
H19A C28A 1_555 1_555
H20A C28A 1_555 1_555
C29A O19A 1_555 1_555
O19A H21A 1_555 1_555
C30A C7A 1_555 1_555
C31A C30A 1_555 1_555
H22A C31A 1_555 1_555
C32A C31A 1_555 1_555
S5A C32A 1_555 1_555
O20A S5A 1_555 1_555
O21A S5A 1_555 1_555
O22A S5A 1_555 1_555
C33A C32A 1_555 1_555
H23A C33A 1_555 1_555
C34A C29A 1_555 1_555
C35A C23A 1_555 1_555
H24A C35A 1_555 1_555
H25A C35A 1_555 1_555
Gd1D O13 1_555 1_555
Gd1D_2 O13A 1_555 1_555
O13D Gd1 1_555 1_555
O13E Gd1 1_555 1_555
Gd2A Gd2 1_555 1_555
O24A Gd2 1_555 1_555
O26A Gd2 1_555 1_555
O27A Gd2 1_555 1_555
S1 O4 1_555 1_555
C5 C6 1_555 1_555
C12 C13 1_555 1_555
C13 C14 1_555 1_555
C16 C18 1_555 1_555
C19 C20 1_555 1_555
C20 C21 1_555 1_555
C26 C27 1_555 1_555
C27 C28 1_555 1_555
C29 C30 1_555 1_555
C33 C34 1_555 1_555
C34 C35 1_555 1_555
N2 C38 1_555 1_555
O25 Gd2A 1_555 1_555
O26 Gd2A 1_555 1_555
O27 Gd2A 1_555 1_555
S1A O4A 1_555 1_555
C5A C6A 1_555 1_555
C12A C13A 1_555 1_555
C13A C14A 1_555 1_555
C16A C18A 1_555 1_555
C19A C20A 1_555 1_555
C20A C21A 1_555 1_555
C26A C27A 1_555 1_555
C27A C28A 1_555 1_555
C29A C30A 1_555 1_555
C33A C34A 1_555 1_555
C34A C35A 1_555 1_555
Gd2A O24A 1_555 1_555
Gd2A O26A 1_555 1_555
Gd2A O27A 1_555 1_555

#END
