
#######################################################################
#
#                 Cambridge Crystallographic Data Centre
#                                CCDC 
#
#######################################################################
#
# If this CIF has been generated from an entry in the Cambridge 
# Structural Database, then it will include bibliographic, chemical, 
# crystal, experimental, refinement or atomic coordinate data resulting 
# from the CCDC's data processing and validation procedures.
#
#######################################################################

data_KILBEO
_symmetry_cell_setting           monoclinic
_symmetry_space_group_name_H-M   'P 21/n'
_symmetry_Int_Tables_number      14
_space_group_name_Hall           '-P 2yn'
loop_
_symmetry_equiv_pos_site_id
_symmetry_equiv_pos_as_xyz
1 x,y,z
2 1/2-x,1/2+y,1/2-z
3 -x,-y,-z
4 1/2+x,1/2-y,1/2+z
_cell_length_a                   7.6820(2)
_cell_length_b                   11.6774(4)
_cell_length_c                   21.0451(7)
_cell_angle_alpha                90
_cell_angle_beta                 91.9060(10)
_cell_angle_gamma                90
_cell_volume                     1886.82
loop_
_atom_site_label
_atom_site_type_symbol
_atom_site_fract_x
_atom_site_fract_y
_atom_site_fract_z
Na1 Na -0.27011(7) 0.02347(5) 0.00166(3)
O1 O -0.50218(12) 0.00394(8) 0.06970(4)
O2 O -0.26958(13) 0.20039(8) 0.05510(5)
N1 N -0.48773(14) -0.03948(9) 0.17781(5)
N2 N -0.43035(15) 0.01033(10) 0.23503(5)
C1 C -0.45385(17) 0.02845(11) 0.12568(6)
C2 C -0.36570(17) 0.12675(11) 0.15162(6)
C3 C -0.29385(17) 0.21568(11) 0.11266(7)
C4 C -0.57424(17) -0.14610(11) 0.17889(7)
C5 C -0.57565(18) -0.21764(12) 0.12572(7)
H1 H -0.5189 -0.1949 0.0883
C6 C -0.66119(19) -0.32262(12) 0.12809(7)
H2 H -0.6631 -0.3712 0.0919
C7 C -0.74367(19) -0.35729(13) 0.18250(7)
H3 H -0.8021 -0.4289 0.1835
C8 C -0.73981(18) -0.28624(12) 0.23534(7)
H4 H -0.7946 -0.3100 0.2729
C9 C -0.65648(18) -0.18055(12) 0.23382(7)
H5 H -0.6556 -0.1320 0.2701
C10 C -0.35945(17) 0.10846(12) 0.21895(7)
C11 C -0.2807(2) 0.18041(13) 0.27130(7)
H6 H -0.3045 0.1454 0.3124
H7 H -0.3314 0.2574 0.2693
H8 H -0.1545 0.1855 0.2664
C12 C -0.25218(19) 0.33265(12) 0.14179(7)
H9 H -0.1881 0.3201 0.1833
C13 C -0.4232(2) 0.39503(14) 0.15501(9)
H10 H -0.3974 0.4671 0.1772
H11 H -0.4954 0.3466 0.1815
H12 H -0.4859 0.4112 0.1147
C14 C -0.1374(2) 0.40380(14) 0.09983(9)
H13 H -0.0294 0.3620 0.0922
H14 H -0.1096 0.4766 0.1210
H15 H -0.1990 0.4188 0.0591
O3 O -0.21868(13) -0.17744(9) 0.01929(5)
O4 O 0.02639(13) -0.02580(8) 0.07676(5)
C15 C -0.3020(2) -0.26642(13) -0.01627(8)
H16 H -0.3431 -0.3253 0.0128
H17 H -0.2192 -0.3004 -0.0452
H18 H -0.4014 -0.2349 -0.0409
C16 C -0.07367(19) -0.21699(12) 0.05712(7)
H19 H 0.0277 -0.2294 0.0301
H20 H -0.1026 -0.2906 0.0776
C17 C -0.03049(19) -0.12837(12) 0.10687(7)
H21 H -0.1346 -0.1121 0.1318
H22 H 0.0626 -0.1574 0.1363
C18 C 0.07885(19) 0.05744(13) 0.12351(7)
H23 H 0.1813 0.0293 0.1478
H24 H -0.0166 0.0706 0.1524
H25 H 0.1078 0.1294 0.1024
Na1B Na -0.72989(7) -0.02347(5) -0.00166(3)
Na1B_2 Na 0.27011(7) -0.02347(5) -0.00166(3)
O1B O -0.49782(12) -0.00394(8) -0.06970(4)
O4B O -0.02639(13) 0.02580(8) -0.07676(5)
loop_
_geom_bond_atom_site_label_1
_geom_bond_atom_site_label_2
_geom_bond_site_symmetry_1
_geom_bond_site_symmetry_2
Na1 O1 1_555 1_555
O1 C1 1_555 1_555
O2 Na1 1_555 1_555
N1 N2 1_555 1_555
N2 C10 1_555 1_555
C1 N1 1_555 1_555
C2 C1 1_555 1_555
C3 O2 1_555 1_555
C4 N1 1_555 1_555
C5 C4 1_555 1_555
H1 C5 1_555 1_555
C6 C5 1_555 1_555
H2 C6 1_555 1_555
C7 C6 1_555 1_555
H3 C7 1_555 1_555
C8 C7 1_555 1_555
H4 C8 1_555 1_555
C9 C4 1_555 1_555
H5 C9 1_555 1_555
C10 C2 1_555 1_555
C11 C10 1_555 1_555
H6 C11 1_555 1_555
H7 C11 1_555 1_555
H8 C11 1_555 1_555
C12 C3 1_555 1_555
H9 C12 1_555 1_555
C13 C12 1_555 1_555
H10 C13 1_555 1_555
H11 C13 1_555 1_555
H12 C13 1_555 1_555
C14 C12 1_555 1_555
H13 C14 1_555 1_555
H14 C14 1_555 1_555
H15 C14 1_555 1_555
O3 Na1 1_555 1_555
O4 Na1 1_555 1_555
C15 O3 1_555 1_555
H16 C15 1_555 1_555
H17 C15 1_555 1_555
H18 C15 1_555 1_555
C16 O3 1_555 1_555
H19 C16 1_555 1_555
H20 C16 1_555 1_555
C17 O4 1_555 1_555
H21 C17 1_555 1_555
H22 C17 1_555 1_555
C18 O4 1_555 1_555
H23 C18 1_555 1_555
H24 C18 1_555 1_555
H25 C18 1_555 1_555
Na1B O1 1_555 1_555
Na1B_2 O4 1_555 1_555
O1B Na1 1_555 1_555
O4B Na1 1_555 1_555
C2 C3 1_555 1_555
C8 C9 1_555 1_555
C16 C17 1_555 1_555
Na1B O1B 1_555 1_555
Na1B_2 O4B 1_555 1_555

#END
