
#######################################################################
#
#                 Cambridge Crystallographic Data Centre
#                                CCDC 
#
#######################################################################
#
# If this CIF has been generated from an entry in the Cambridge 
# Structural Database, then it will include bibliographic, chemical, 
# crystal, experimental, refinement or atomic coordinate data resulting 
# from the CCDC's data processing and validation procedures.
#
#######################################################################

data_KILBOW
_symmetry_cell_setting           monoclinic
_symmetry_space_group_name_H-M   'P 21/c'
_symmetry_Int_Tables_number      14
_space_group_name_Hall           '-P 2ybc'
loop_
_symmetry_equiv_pos_site_id
_symmetry_equiv_pos_as_xyz
1 x,y,z
2 -x,1/2+y,1/2-z
3 -x,-y,-z
4 x,1/2-y,1/2+z
_cell_length_a                   9.295(2)
_cell_length_b                   17.981(4)
_cell_length_c                   15.021(2)
_cell_angle_alpha                90
_cell_angle_beta                 100.00(2)
_cell_angle_gamma                90
_cell_volume                     2472.37
loop_
_atom_site_label
_atom_site_type_symbol
_atom_site_fract_x
_atom_site_fract_y
_atom_site_fract_z
Cu1 Cu 0.1540(1) -0.10860(6) -0.19779(7)
Br1 Br 0.1440(1) -0.17689(6) 0.11308(7)
Br2 Br -0.3582(1) -0.00555(7) 0.10538(8)
Br3 Br 0.5643(1) -0.23470(8) -0.02995(8)
Br4 Br 0.8552(1) -0.21167(7) -0.32510(8)
Mn1 Mn 0.1381(2) -0.38106(7) -0.05825(9)
C1 C 0.105(1) -0.2223(5) -0.0920(6)
C2 C 0.236(1) -0.2452(5) -0.1360(6)
C3 C -0.020(1) -0.1160(5) -0.0506(6)
C4 C -0.122(1) -0.0649(5) -0.0945(6)
C5 C -0.124(1) -0.0386(5) -0.1906(6)
C6 C 0.424(1) -0.1921(5) -0.2072(6)
C7 C 0.431(1) -0.1658(5) -0.2947(6)
C8 C 0.305(1) -0.1288(5) -0.3525(6)
C9 C -0.016(1) -0.1272(5) 0.0421(6)
C10 C -0.115(1) -0.0961(5) 0.0879(7)
C11 C -0.222(1) -0.0489(5) 0.0402(7)
C12 C -0.225(1) -0.0319(5) -0.0480(7)
C13 C 0.556(1) -0.2163(5) -0.1545(6)
C14 C 0.682(1) -0.2210(6) -0.1893(8)
C15 C 0.683(1) -0.2005(5) -0.2764(7)
C16 C 0.559(1) -0.1709(5) -0.3287(7)
N1 N 0.0776(8) -0.1498(4) -0.0975(5)
N2 N 0.2935(8) -0.1890(4) -0.1735(5)
O1 O 0.0402(7) -0.2721(3) -0.0570(4)
O2 O 0.2741(7) -0.3121(3) -0.1322(4)
O3 O -0.0067(7) -0.0404(4) -0.2247(4)
O4 O 0.2057(7) -0.0961(4) -0.3178(4)
O5 O -0.2389(7) -0.0114(4) -0.2322(5)
O6 O 0.3019(7) -0.1286(4) -0.4361(4)
O7 O -0.0316(8) -0.4155(4) -0.1694(5)
O8 O 0.2406(8) -0.4843(4) -0.0892(5)
O9 O -0.0010(9) -0.4220(5) 0.0321(5)
H1 H -0.113(9) -0.105(5) 0.151(6)
H2 H -0.30(1) -0.004(5) -0.086(6)
H3 H 0.75(1) -0.239(5) -0.157(6)
H4 H 0.557(9) -0.161(5) -0.394(6)
H5 H -0.03(1) -0.455(4) -0.211(6)
H6 H 0.00(1) -0.382(5) -0.213(6)
H7 H 0.27(1) -0.497(6) -0.145(4)
H8 H 0.340(4) -0.488(7) -0.060(7)
H9 H 0.03(1) -0.407(6) 0.093(3)
H10 H -0.093(6) -0.410(6) -0.002(6)
Cu1B Cu -0.1540(1) 0.10860(6) 0.19779(7)
Br2B Br 0.3582(1) 0.00555(7) -0.10538(8)
Mn1C Mn 0.1381(2) -0.11894(7) -0.55825(9)
O6C O 0.3019(7) -0.3714(4) 0.0639(4)
O10 O 0.540(1) 0.1040(7) -0.2762(9)
O11 O -0.532(3) 0.044(2) -0.476(2)
O12 O -0.291(2) -0.421(2) -0.101(2)
O13? O -0.282(6) -0.424(2) -0.159(2)
loop_
_geom_bond_atom_site_label_1
_geom_bond_atom_site_label_2
_geom_bond_site_symmetry_1
_geom_bond_site_symmetry_2
Cu1 N1 1_555 1_555
Br1 C9 1_555 1_555
Br2 C11 1_555 1_555
Br3 C13 1_555 1_555
Br4 C15 1_555 1_555
Mn1 O1 1_555 1_555
C1 C2 1_555 1_555
C2 N2 1_555 1_555
C3 C4 1_555 1_555
C4 C5 1_555 1_555
C5 O3 1_555 1_555
C6 C7 1_555 1_555
C7 C8 1_555 1_555
C8 O4 1_555 1_555
C9 C3 1_555 1_555
C10 C9 1_555 1_555
C11 C10 1_555 1_555
C12 C4 1_555 1_555
C13 C6 1_555 1_555
C14 C13 1_555 1_555
C15 C14 1_555 1_555
C16 C7 1_555 1_555
N1 C1 1_555 1_555
N2 Cu1 1_555 1_555
O1 C1 1_555 1_555
O2 Mn1 1_555 1_555
O3 Cu1 1_555 1_555
O4 Cu1 1_555 1_555
O5 C5 1_555 1_555
O6 C8 1_555 1_555
O7 Mn1 1_555 1_555
O8 Mn1 1_555 1_555
O9 Mn1 1_555 1_555
H1 C10 1_555 1_555
H2 C12 1_555 1_555
H3 C14 1_555 1_555
H4 C16 1_555 1_555
H5 O7 1_555 1_555
H6 O7 1_555 1_555
H7 O8 1_555 1_555
H8 O8 1_555 1_555
H9 O9 1_555 1_555
H10 O9 1_555 1_555
Cu1B Br2 1_555 1_555
Br2B Cu1 1_555 1_555
Mn1C O6 1_555 1_555
O6C Mn1 1_555 1_555
C2 O2 1_555 1_555
C3 N1 1_555 1_555
C6 N2 1_555 1_555
C11 C12 1_555 1_555
C15 C16 1_555 1_555

#END
