
#######################################################################
#
#                 Cambridge Crystallographic Data Centre
#                                CCDC 
#
#######################################################################
#
# If this CIF has been generated from an entry in the Cambridge 
# Structural Database, then it will include bibliographic, chemical, 
# crystal, experimental, refinement or atomic coordinate data resulting 
# from the CCDC's data processing and validation procedures.
#
#######################################################################

data_KILFUI
_symmetry_cell_setting           monoclinic
_symmetry_space_group_name_H-M   'C c'
_symmetry_Int_Tables_number      9
_space_group_name_Hall           'C -2yc'
loop_
_symmetry_equiv_pos_site_id
_symmetry_equiv_pos_as_xyz
1 x,y,z
2 x,-y,1/2+z
3 1/2+x,1/2+y,z
4 1/2+x,1/2-y,1/2+z
_cell_length_a                   15.031(2)
_cell_length_b                   30.103(5)
_cell_length_c                   13.367(2)
_cell_angle_alpha                90
_cell_angle_beta                 119.837(3)
_cell_angle_gamma                90
_cell_volume                     5246.54
loop_
_atom_site_label
_atom_site_type_symbol
_atom_site_fract_x
_atom_site_fract_y
_atom_site_fract_z
W1 W -0.00347(13) 0.37765(5) -0.07659(13)
Ni1 Ni 0.0048(2) 0.53817(9) 0.0789(2)
Ni2 Ni 0.2155(3) 0.23227(12) 0.1102(3)
N1 N 0.0339(17) 0.4850(6) -0.0090(17)
N2 N 0.100(2) 0.2779(7) -0.001(2)
N3 N 0.340(2) 0.1923(8) 0.224(2)
N4 N -0.0219(18) 0.5853(7) 0.1793(17)
N5 N 0.153(2) 0.3812(8) 0.2038(19)
N6 N -0.219(2) 0.4308(10) -0.185(4)
N7 N 0.227(2) 0.3920(11) -0.047(2)
N8 N -0.132(3) 0.3399(14) 0.047(3)
N9 N 0.140(2) 0.5623(8) 0.127(2)
N10 N 0.096(3) 0.5023(7) 0.225(2)
N11 N -0.133(2) 0.5113(8) 0.021(2)
H1 H -0.1391 0.4899 -0.0298
N12 N -0.030(2) 0.5855(7) -0.044(2)
N13 N 0.193(2) 0.1972(9) -0.024(3)
N14 N 0.120(3) 0.1825(12) 0.107(4)
N15 N 0.250(5) 0.2728(11) 0.243(3)
H2 H 0.2044 0.2949 0.2049
N16 N 0.315(3) 0.2639(11) 0.065(4)
C1 C 0.028(2) 0.4479(9) -0.032(2)
C2 C 0.064(2) 0.3114(9) -0.029(2)
C3 C 0.396(2) 0.1691(8) 0.291(2)
C4 C -0.021(2) 0.5970(8) 0.262(2)
C5 C 0.102(2) 0.3816(8) 0.114(2)
C6 C -0.146(2) 0.4105(8) -0.151(2)
C7 C 0.150(3) 0.3843(9) -0.057(2)
C8 C -0.093(2) 0.3533(10) 0.003(2)
C9 C 0.223(3) 0.5447(10) 0.223(3)
C10 C 0.319(3) 0.5590(15) 0.248(4)
H3 H 0.3777 0.5482 0.3119
C11 C 0.323(4) 0.5911(19) 0.176(4)
H4 H 0.3887 0.6002 0.1959
C12 C 0.244(3) 0.6099(12) 0.077(4)
H5 H 0.2518 0.6315 0.0326
C13 C 0.152(3) 0.5926(11) 0.058(3)
C14 C 0.055(3) 0.6078(9) -0.037(3)
C15 C 0.043(3) 0.6463(10) -0.112(3)
H6 H -0.0281 0.6501 -0.1703
H7 H 0.0827 0.6414 -0.1491
H8 H 0.0666 0.6726 -0.0657
C16 C 0.187(3) 0.5096(10) 0.285(3)
C17 C 0.267(4) 0.4940(16) 0.396(3)
H9 H 0.2551 0.5057 0.4555
H10 H 0.3325 0.5035 0.4092
H11 H 0.2647 0.4621 0.3974
C18 C 0.029(4) 0.4688(10) 0.271(3)
H12 H 0.0689 0.4425 0.3097
H13 H 0.0156 0.4850 0.3245
C19 C -0.068(3) 0.4573(10) 0.172(3)
H14 H -0.0960 0.4334 0.1965
H15 H -0.0499 0.4444 0.1178
C20 C -0.146(3) 0.4879(11) 0.112(3)
H16 H -0.2107 0.4720 0.0754
H17 H -0.1478 0.5096 0.1641
C21 C -0.217(3) 0.5446(12) -0.048(3)
H18 H -0.2833 0.5308 -0.0769
H19 H -0.2120 0.5695 0.0004
C22 C -0.205(3) 0.5607(12) -0.148(3)
H20 H -0.2731 0.5692 -0.2092
H21 H -0.1830 0.5360 -0.1765
C23 C -0.132(3) 0.5990(11) -0.127(3)
H22 H -0.1356 0.6078 -0.1988
H23 H -0.1512 0.6242 -0.0969
C24 C 0.128(3) 0.1624(12) -0.053(4)
C25 C 0.100(3) 0.1418(14) -0.158(4)
H24 H 0.0559 0.1177 -0.1827
C26 C 0.138(4) 0.157(2) -0.227(5)
H25 H 0.1190 0.1430 -0.2967
C27 C 0.204(4) 0.1931(15) -0.194(4)
H26 H 0.2302 0.2031 -0.2401
C28 C 0.231(3) 0.2132(14) -0.089(4)
C29 C 0.087(3) 0.1561(13) 0.029(4)
C30 C 0.047(4) 0.1104(16) 0.008(5)
H27 H 0.0375 0.0994 -0.0641
H28 H -0.0183 0.1112 0.0052
H29 H 0.0927 0.0911 0.0693
C31 C 0.304(3) 0.2505(15) -0.021(5)
C32 C 0.359(5) 0.270(2) -0.076(5)
H30 H 0.3543 0.2487 -0.1319
H31 H 0.4301 0.2755 -0.0213
H32 H 0.3274 0.2974 -0.1147
C33 C 0.089(8) 0.186(4) 0.180(7)
H33 H 0.1096 0.1590 0.2252
H34 H 0.0153 0.1846 0.1318
C34 C 0.107(10) 0.223(2) 0.263(5)
H35 H 0.0470 0.2416 0.2288
H36 H 0.1111 0.2091 0.3302
C35 C 0.198(6) 0.252(2) 0.303(5)
H37 H 0.2518 0.2361 0.3685
H38 H 0.1806 0.2770 0.3344
C36 C 0.346(5) 0.2992(19) 0.291(4)
H39 H 0.3469 0.3212 0.3449
H40 H 0.4047 0.2798 0.3328
C37 C 0.350(4) 0.3203(14) 0.195(6)
H41 H 0.3969 0.3451 0.2297
H42 H 0.2829 0.3332 0.1465
C38 C 0.381(4) 0.2989(16) 0.117(5)
H43 H 0.3732 0.3198 0.0583
H44 H 0.4514 0.2890 0.1591
W1A W -0.00347(13) 0.62235(5) 0.42341(13)
W1C W 0.49653(13) 0.12235(5) 0.42341(13)
C3C C -0.104(2) 0.3309(8) -0.209(2)
C4A C -0.021(2) 0.4030(8) -0.238(2)
loop_
_geom_bond_atom_site_label_1
_geom_bond_atom_site_label_2
_geom_bond_site_symmetry_1
_geom_bond_site_symmetry_2
W1 C1 1_555 1_555
Ni1 N1 1_555 1_555
Ni2 N2 1_555 1_555
N1 C1 1_555 1_555
N2 C2 1_555 1_555
N3 Ni2 1_555 1_555
N4 Ni1 1_555 1_555
N5 C5 1_555 1_555
N6 C6 1_555 1_555
N7 C7 1_555 1_555
N8 C8 1_555 1_555
N9 Ni1 1_555 1_555
N10 Ni1 1_555 1_555
N11 Ni1 1_555 1_555
H1 N11 1_555 1_555
N12 Ni1 1_555 1_555
N13 Ni2 1_555 1_555
N14 Ni2 1_555 1_555
N15 Ni2 1_555 1_555
H2 N15 1_555 1_555
N16 Ni2 1_555 1_555
C2 W1 1_555 1_555
C3 N3 1_555 1_555
C4 N4 1_555 1_555
C5 W1 1_555 1_555
C6 W1 1_555 1_555
C7 W1 1_555 1_555
C8 W1 1_555 1_555
C9 N9 1_555 1_555
C10 C9 1_555 1_555
H3 C10 1_555 1_555
C11 C10 1_555 1_555
H4 C11 1_555 1_555
C12 C11 1_555 1_555
H5 C12 1_555 1_555
C13 N9 1_555 1_555
C14 N12 1_555 1_555
C15 C14 1_555 1_555
H6 C15 1_555 1_555
H7 C15 1_555 1_555
H8 C15 1_555 1_555
C16 N10 1_555 1_555
C17 C16 1_555 1_555
H9 C17 1_555 1_555
H10 C17 1_555 1_555
H11 C17 1_555 1_555
C18 N10 1_555 1_555
H12 C18 1_555 1_555
H13 C18 1_555 1_555
C19 C18 1_555 1_555
H14 C19 1_555 1_555
H15 C19 1_555 1_555
C20 N11 1_555 1_555
H16 C20 1_555 1_555
H17 C20 1_555 1_555
C21 N11 1_555 1_555
H18 C21 1_555 1_555
H19 C21 1_555 1_555
C22 C21 1_555 1_555
H20 C22 1_555 1_555
H21 C22 1_555 1_555
C23 N12 1_555 1_555
H22 C23 1_555 1_555
H23 C23 1_555 1_555
C24 N13 1_555 1_555
C25 C24 1_555 1_555
H24 C25 1_555 1_555
C26 C25 1_555 1_555
H25 C26 1_555 1_555
C27 C26 1_555 1_555
H26 C27 1_555 1_555
C28 N13 1_555 1_555
C29 N14 1_555 1_555
C30 C29 1_555 1_555
H27 C30 1_555 1_555
H28 C30 1_555 1_555
H29 C30 1_555 1_555
C31 N16 1_555 1_555
C32 C31 1_555 1_555
H30 C32 1_555 1_555
H31 C32 1_555 1_555
H32 C32 1_555 1_555
C33 N14 1_555 1_555
H33 C33 1_555 1_555
H34 C33 1_555 1_555
C34 C33 1_555 1_555
H35 C34 1_555 1_555
H36 C34 1_555 1_555
C35 N15 1_555 1_555
H37 C35 1_555 1_555
H38 C35 1_555 1_555
C36 N15 1_555 1_555
H39 C36 1_555 1_555
H40 C36 1_555 1_555
C37 C36 1_555 1_555
H41 C37 1_555 1_555
H42 C37 1_555 1_555
C38 N16 1_555 1_555
H43 C38 1_555 1_555
H44 C38 1_555 1_555
W1A C4 1_555 1_555
W1C C3 1_555 1_555
C3C W1 1_555 1_555
C4A W1 1_555 1_555
C9 C16 1_555 1_555
C12 C13 1_555 1_555
C13 C14 1_555 1_555
C19 C20 1_555 1_555
C22 C23 1_555 1_555
C24 C29 1_555 1_555
C27 C28 1_555 1_555
C28 C31 1_555 1_555
C34 C35 1_555 1_555
C37 C38 1_555 1_555

#END
