
#######################################################################
#
#                 Cambridge Crystallographic Data Centre
#                                CCDC 
#
#######################################################################
#
# If this CIF has been generated from an entry in the Cambridge 
# Structural Database, then it will include bibliographic, chemical, 
# crystal, experimental, refinement or atomic coordinate data resulting 
# from the CCDC's data processing and validation procedures.
#
#######################################################################

data_KILGUJ
_symmetry_cell_setting           monoclinic
_symmetry_space_group_name_H-M   'P 21/c'
_symmetry_Int_Tables_number      14
_space_group_name_Hall           '-P 2ybc'
loop_
_symmetry_equiv_pos_site_id
_symmetry_equiv_pos_as_xyz
1 x,y,z
2 -x,1/2+y,1/2-z
3 -x,-y,-z
4 x,1/2-y,1/2+z
_cell_length_a                   15.351(3)
_cell_length_b                   33.035(6)
_cell_length_c                   26.510(5)
_cell_angle_alpha                90
_cell_angle_beta                 102.652(3)
_cell_angle_gamma                90
_cell_volume                     13117.3
loop_
_atom_site_label
_atom_site_type_symbol
_atom_site_fract_x
_atom_site_fract_y
_atom_site_fract_z
Ag1 Ag 0.04604(8) 0.23377(4) 0.46479(5)
Ag2 Ag -0.03254(17) 0.11563(6) 0.42459(11)
S1 S -0.0972(2) 0.26524(10) 0.46867(14)
S2 S 0.1986(3) 0.23852(12) 0.51994(15)
S3 S 0.0388(2) 0.17785(12) 0.39885(15)
S4 S -0.1556(3) 0.15627(12) 0.45675(18)
O1 O 0.0936(11) 0.2749(5) 0.7416(5)
O2 O 0.2136(10) 0.2716(3) 0.7113(4)
O3 O 0.3750(8) 0.0812(4) 0.5439(4)
O4 O 0.5566(8) 0.0624(3) 0.6004(4)
O5 O 0.7113(9) 0.0307(4) 0.5912(6)
O6 O 0.7305(7) -0.0451(3) 0.5341(4)
O7 O -0.5092(12) 0.2153(6) 0.2461(6)
O8 O -0.4306(10) 0.1776(6) 0.2097(6)
N1 N 0.4960(8) 0.4575(3) 0.9539(4)
N2 N -0.9373(6) 0.0434(3) 0.0364(4)
C1 C -0.339(2) 0.3490(11) 0.2506(13)
H1 H -0.3839 0.3444 0.2711
H2 H -0.3690 0.3554 0.2149
H3 H -0.3006 0.3716 0.2653
C2 C -0.3452(18) 0.2833(9) 0.2256(10)
H4 H -0.3108 0.2586 0.2233
H5 H -0.3737 0.2925 0.1907
H6 H -0.3912 0.2777 0.2451
C3 C -0.230(3) 0.3297(19) 0.2163(13)
H7 H -0.1880 0.3085 0.2109
H8 H -0.1960 0.3533 0.2323
H9 H -0.2675 0.3375 0.1829
C4 C -0.2872(15) 0.3140(8) 0.2511(10)
C5 C -0.2350(12) 0.3032(5) 0.3052(7)
C6 C -0.1494(12) 0.3139(5) 0.3246(6)
H10 H -0.1174 0.3293 0.3044
C7 C -0.1078(10) 0.3019(5) 0.3753(6)
H11 H -0.0474 0.3094 0.3884
C8 C -0.1483(8) 0.2812(4) 0.4045(5)
C9 C -0.2343(14) 0.2688(8) 0.3864(9)
H12 H -0.2638 0.2519 0.4065
C10 C -0.2803(15) 0.2829(10) 0.3335(8)
H13 H -0.3417 0.2771 0.3205
C11 C -0.0685(12) 0.3137(4) 0.5018(5)
H14 H -0.0296 0.3298 0.4841
H15 H -0.1231 0.3295 0.5020
C12 C -0.0211(11) 0.3039(4) 0.5551(6)
C13 C 0.0699(12) 0.3079(4) 0.5674(6)
H16 H 0.1003 0.3163 0.5416
C14 C 0.1192(11) 0.2999(4) 0.6177(6)
H17 H 0.1822 0.3031 0.6259
C15 C 0.0770(11) 0.2878(5) 0.6531(6)
C16 C -0.0140(16) 0.2829(6) 0.6424(8)
H18 H -0.0437 0.2743 0.6685
C17 C -0.0629(13) 0.2910(6) 0.5912(7)
H19 H -0.1258 0.2872 0.5827
C18 C 0.1290(15) 0.2765(5) 0.7089(6)
C19 C 0.2657(15) 0.2596(5) 0.7625(6)
H20 H 0.3167 0.2425 0.7583
H21 H 0.2278 0.2433 0.7805
C20 C 0.3006(10) 0.2967(4) 0.7951(5)
C21 C 0.3012(13) 0.3348(5) 0.7756(6)
H22 H 0.2743 0.3395 0.7402
C22 C 0.3400(11) 0.3667(4) 0.8058(5)
H23 H 0.3411 0.3929 0.7911
C23 C 0.3767(8) 0.3607(3) 0.8569(4)
C24 C 0.3769(9) 0.3221(4) 0.8764(5)
H24 H 0.4041 0.3168 0.9116
C25 C 0.3375(10) 0.2910(4) 0.8449(5)
H25 H 0.3367 0.2647 0.8591
C26 C 0.4186(8) 0.3944(4) 0.8902(4)
C27 C 0.4027(11) 0.4344(4) 0.8758(5)
H26 H 0.3647 0.4408 0.8434
C28 C 0.4408(13) 0.4645(4) 0.9075(5)
H27 H 0.4283 0.4917 0.8968
C29 C 0.5124(8) 0.4195(4) 0.9681(5)
H28 H 0.5518 0.4143 1.0005
C30 C 0.4749(9) 0.3865(4) 0.9380(4)
H29 H 0.4875 0.3595 0.9498
C31 C 0.5340(10) 0.4910(4) 0.9873(5)
H30 H 0.5562 0.5119 0.9666
H31 H 0.5852 0.4812 1.0140
C32 C 0.3209(9) 0.1050(5) 0.5092(6)
C33 C 0.3198(10) 0.1469(5) 0.5130(6)
H32 H 0.3586 0.1595 0.5415
C34 C 0.2656(9) 0.1705(5) 0.4777(5)
C35 C 0.2084(9) 0.1507(5) 0.4337(5)
C36 C 0.2107(11) 0.1099(5) 0.4293(6)
H33 H 0.1756 0.0968 0.3998
C37 C 0.2651(9) 0.0869(5) 0.4685(6)
C38 C 0.2742(10) 0.2147(5) 0.4842(6)
H34 H 0.2641 0.2273 0.4494
H35 H 0.3363 0.2210 0.5022
C39 C 0.2079(10) 0.2083(5) 0.5766(6)
H36 H 0.1583 0.2151 0.5935
H37 H 0.2020 0.1794 0.5666
C40 C 0.2982(11) 0.2147(5) 0.6160(6)
H38 H 0.3473 0.2119 0.5974
H39 H 0.2999 0.2427 0.6294
C41 C 0.3143(11) 0.1869(5) 0.6594(6)
H40 H 0.3033 0.1590 0.6458
H41 H 0.2701 0.1925 0.6807
C42 C 0.4040(14) 0.1883(6) 0.6932(8)
H42 H 0.4077 0.1688 0.7215
H43 H 0.4157 0.2156 0.7076
H44 H 0.4485 0.1815 0.6732
C43 C 0.1506(9) 0.1738(5) 0.3897(5)
H45 H 0.1502 0.1597 0.3567
H46 H 0.1756 0.2013 0.3877
C44 C -0.0184(16) 0.1966(7) 0.3370(9)
H47 H -0.0407 0.2237 0.3436
H48 H 0.0284 0.2011 0.3172
C45 C -0.075(3) 0.1814(11) 0.3091(13)
H49 H -0.1174 0.1727 0.3305
H50 H -0.0498 0.1562 0.2982
C46 C -0.1348(18) 0.1988(10) 0.2595(9)
H51 H -0.1858 0.2128 0.2691
H52 H -0.0997 0.2196 0.2457
C47 C -0.170(2) 0.1706(12) 0.2176(10)
H53 H -0.2133 0.1847 0.1905
H54 H -0.2005 0.1482 0.2311
H55 H -0.1215 0.1599 0.2032
C48 C 0.4262(14) 0.1001(7) 0.5934(7)
H56 H 0.4602 0.1238 0.5852
H57 H 0.3841 0.1095 0.6142
C49 C 0.4859(15) 0.0714(6) 0.6221(7)
H58 H 0.5090 0.0821 0.6574
H59 H 0.4527 0.0461 0.6252
C50 C 0.6301(12) 0.0820(5) 0.6223(6)
H60 H 0.6449 0.0759 0.6598
H61 H 0.6190 0.1115 0.6183
C51 C 0.7094(16) 0.0710(6) 0.5992(9)
H62 H 0.7049 0.0855 0.5660
H63 H 0.7655 0.0796 0.6230
C52 C 0.7875(14) 0.0184(6) 0.5723(10)
H64 H 0.8422 0.0307 0.5935
H65 H 0.7813 0.0276 0.5361
C53 C 0.7943(14) -0.0256(5) 0.5748(9)
H66 H 0.8553 -0.0337 0.5724
H67 H 0.7846 -0.0349 0.6087
C54 C -0.014(3) 0.1028(11) 0.7098(12)
H68 H -0.0390 0.0772 0.6945
H69 H -0.0621 0.1210 0.7139
H70 H 0.0254 0.0975 0.7437
C55 C 0.066(3) 0.1653(11) 0.6984(10)
H71 H 0.0990 0.1789 0.6755
H72 H 0.1045 0.1629 0.7331
H73 H 0.0129 0.1811 0.7002
C56 C 0.110(2) 0.0938(16) 0.6717(11)
H74 H 0.0854 0.0679 0.6573
H75 H 0.1490 0.0893 0.7059
H76 H 0.1453 0.1059 0.6487
C57 C 0.037(2) 0.1214(10) 0.6764(9)
C58 C -0.0172(10) 0.1323(6) 0.6234(4)
C59 C -0.0408(14) 0.1000(5) 0.5895(6)
H77 H -0.0248 0.0732 0.6007
C60 C -0.0878(14) 0.1071(4) 0.5392(6)
H78 H -0.1039 0.0851 0.5160
C61 C -0.1112(10) 0.1464(4) 0.5228(4)
C62 C -0.0875(16) 0.1786(4) 0.5568(7)
H79 H -0.1035 0.2054 0.5456
C63 C -0.0405(16) 0.1715(5) 0.6071(6)
H80 H -0.0244 0.1936 0.6303
C64 C -0.2615(11) 0.1302(6) 0.4454(6)
H81 H -0.2523 0.1005 0.4467
H82 H -0.2952 0.1378 0.4718
C65 C -0.3119(11) 0.1431(5) 0.3919(7)
C66 C -0.2958(13) 0.1280(6) 0.3490(8)
H83 H -0.2524 0.1071 0.3518
C67 C -0.3414(18) 0.1417(9) 0.2964(8)
H84 H -0.3304 0.1304 0.2654
C68 C -0.4030(13) 0.1735(8) 0.2976(9)
C69 C -0.4192(17) 0.1883(9) 0.3422(9)
H85 H -0.4632 0.2086 0.3415
C70 C -0.3735(13) 0.1744(7) 0.3861(8)
H86 H -0.3832 0.1867 0.4167
C71 C -0.4578(14) 0.1923(6) 0.2460(9)
C72 C -0.4896(13) 0.1950(6) 0.1587(7)
H87 H -0.5059 0.2233 0.1646
H88 H -0.4548 0.1951 0.1314
C73 C -0.5738(11) 0.1704(5) 0.1405(6)
C74 C -0.5952(16) 0.1385(6) 0.1668(6)
H89 H -0.5583 0.1327 0.1997
C75 C -0.6677(13) 0.1137(5) 0.1489(7)
H90 H -0.6836 0.0929 0.1699
C76 C -0.7167(10) 0.1207(4) 0.0986(5)
C77 C -0.6959(9) 0.1518(4) 0.0701(5)
H91 H -0.7309 0.1569 0.0365
C78 C -0.6230(10) 0.1764(4) 0.0903(6)
H92 H -0.6066 0.1974 0.0697
C79 C -0.7961(8) 0.0933(4) 0.0774(4)
C80 C -0.8140(9) 0.0588(4) 0.1027(5)
H93 H -0.7754 0.0517 0.1347
C81 C -0.8839(10) 0.0353(4) 0.0836(6)
H94 H -0.8967 0.0127 0.1030
C82 C -0.9202(9) 0.0750(4) 0.0101(5)
H95 H -0.9580 0.0806 -0.0226
C83 C -0.8493(8) 0.1000(4) 0.0287(4)
H96 H -0.8366 0.1219 0.0082
C84 C -1.0149(8) 0.0175(4) 0.0142(5)
H97 H -1.0604 0.0335 -0.0098
H98 H -1.0423 0.0072 0.0422
S5 S 0.1642(3) 0.31605(12) 0.41454(16)
O9 O 0.1047(7) 0.3420(3) 0.4338(4)
O10 O 0.2557(7) 0.3196(4) 0.4406(5)
O11 O 0.1319(8) 0.2750(3) 0.4036(5)
C85 C 0.1614(9) 0.3340(4) 0.3519(5)
F1 F 0.0787(8) 0.3321(5) 0.3233(4)
F2 F 0.1922(11) 0.3710(3) 0.3516(5)
F3 F 0.2159(8) 0.3131(3) 0.3291(4)
S6 S -0.0427(6) 0.0449(3) 0.3527(4)
O12 O -0.0104(14) 0.0056(5) 0.3718(10)
O13 O 0.0262(14) 0.0698(6) 0.3385(9)
O14 O -0.1039(13) 0.0636(6) 0.3782(10)
C86 C -0.1126(14) 0.0316(6) 0.2928(8)
F4 F -0.146(2) 0.0659(7) 0.2698(10)
F5 F -0.0673(19) 0.0127(8) 0.2628(10)
F6 F -0.1796(19) 0.0068(9) 0.2968(12)
N3 N 0.055(2) 0.0733(12) 0.4922(11)
C87 C 0.096(3) 0.0512(14) 0.5209(12)
C88 C 0.156(3) 0.0255(14) 0.5626(14)
H99 H 0.1905 0.0063 0.5466
H100 H 0.1183 0.0106 0.5817
H101 H 0.1967 0.0432 0.5864
S1B S 1.0972(2) 0.73476(10) 1.53133(14)
O1B O 0.9064(11) 0.7251(5) 1.2584(5)
O2B O 0.7864(10) 0.7284(3) 1.2887(4)
N1B N 0.5040(8) 0.5425(3) 1.0461(4)
C1B C 1.339(2) 0.6510(11) 1.7494(13)
H1B H 1.3839 0.6556 1.7289
H2B H 1.3690 0.6446 1.7851
H3B H 1.3006 0.6284 1.7347
C2B C 1.3452(18) 0.7167(9) 1.7744(10)
H4B H 1.3108 0.7414 1.7767
H5B H 1.3737 0.7075 1.8093
H6B H 1.3912 0.7223 1.7549
C3B C 1.230(3) 0.6703(19) 1.7837(13)
H7B H 1.1880 0.6915 1.7891
H8B H 1.1960 0.6467 1.7677
H9B H 1.2675 0.6625 1.8171
C4B C 1.2872(15) 0.6860(8) 1.7489(10)
C5B C 1.2350(12) 0.6968(5) 1.6948(7)
C6B C 1.1494(12) 0.6861(5) 1.6754(6)
H10B H 1.1174 0.6707 1.6956
C7B C 1.1078(10) 0.6981(5) 1.6247(6)
H11B H 1.0474 0.6906 1.6116
C8B C 1.1483(8) 0.7188(4) 1.5955(5)
C9B C 1.2343(14) 0.7312(8) 1.6136(9)
H12B H 1.2638 0.7481 1.5935
C10B C 1.2803(15) 0.7171(10) 1.6665(8)
H13B H 1.3417 0.7229 1.6795
C11B C 1.0685(12) 0.6863(4) 1.4982(5)
H14B H 1.0296 0.6702 1.5159
H15B H 1.1231 0.6705 1.4980
C12B C 1.0211(11) 0.6961(4) 1.4449(6)
C13B C 0.9301(12) 0.6921(4) 1.4326(6)
H16B H 0.8997 0.6837 1.4584
C14B C 0.8808(11) 0.7001(4) 1.3823(6)
H17B H 0.8178 0.6969 1.3741
C15B C 0.9230(11) 0.7122(5) 1.3469(6)
C16B C 1.0140(16) 0.7171(6) 1.3576(8)
H18B H 1.0437 0.7257 1.3315
C17B C 1.0629(13) 0.7090(6) 1.4088(7)
H19B H 1.1258 0.7128 1.4173
C18B C 0.8710(15) 0.7235(5) 1.2911(6)
C19B C 0.7343(15) 0.7404(5) 1.2375(6)
H20B H 0.6833 0.7575 1.2417
H21B H 0.7722 0.7567 1.2195
C20B C 0.6994(10) 0.7033(4) 1.2049(5)
C21B C 0.6988(13) 0.6652(5) 1.2244(6)
H22B H 0.7257 0.6605 1.2598
C22B C 0.6600(11) 0.6333(4) 1.1942(5)
H23B H 0.6589 0.6071 1.2089
C23B C 0.6233(8) 0.6393(3) 1.1431(4)
C24B C 0.6231(9) 0.6779(4) 1.1236(5)
H24B H 0.5959 0.6832 1.0884
C25B C 0.6625(10) 0.7090(4) 1.1551(5)
H25B H 0.6633 0.7353 1.1409
C26B C 0.5814(8) 0.6056(4) 1.1098(4)
C27B C 0.5973(11) 0.5656(4) 1.1242(5)
H26B H 0.6353 0.5592 1.1566
C28B C 0.5592(13) 0.5355(4) 1.0925(5)
H27B H 0.5717 0.5083 1.1032
C29B C 0.4876(8) 0.5805(4) 1.0319(5)
H28B H 0.4482 0.5857 0.9995
C30B C 0.5251(9) 0.6135(4) 1.0620(4)
H29B H 0.5125 0.6405 1.0502
C31B C 0.4660(10) 0.5090(4) 1.0127(5)
H30B H 0.4438 0.4881 1.0334
H31B H 0.4148 0.5188 0.9860
S2B S 0.8014(3) -0.23852(12) 0.48006(15)
S3B S 0.9612(2) -0.17785(12) 0.60115(15)
O3B O 0.6250(8) -0.0812(4) 0.4561(4)
O4B O 0.4434(8) -0.0624(3) 0.3996(4)
O5B O 0.2887(9) -0.0307(4) 0.4088(6)
O6B O 0.2695(7) 0.0451(3) 0.4659(4)
C32B C 0.6791(9) -0.1050(5) 0.4908(6)
C33B C 0.6802(10) -0.1469(5) 0.4870(6)
H32B H 0.6414 -0.1595 0.4585
C34B C 0.7344(9) -0.1705(5) 0.5223(5)
C35B C 0.7916(9) -0.1507(5) 0.5663(5)
C36B C 0.7893(11) -0.1099(5) 0.5707(6)
H33B H 0.8244 -0.0968 0.6002
C37B C 0.7349(9) -0.0869(5) 0.5315(6)
C38B C 0.7258(10) -0.2147(5) 0.5158(6)
H34B H 0.7359 -0.2273 0.5506
H35B H 0.6637 -0.2210 0.4978
C39B C 0.7921(10) -0.2083(5) 0.4234(6)
H36B H 0.8417 -0.2151 0.4065
H37B H 0.7980 -0.1794 0.4334
C40B C 0.7018(11) -0.2147(5) 0.3840(6)
H38B H 0.6527 -0.2119 0.4026
H39B H 0.7001 -0.2427 0.3706
C41B C 0.6857(11) -0.1869(5) 0.3406(6)
H40B H 0.6967 -0.1590 0.3542
H41B H 0.7299 -0.1925 0.3193
C42B C 0.5960(14) -0.1883(6) 0.3068(8)
H42B H 0.5923 -0.1688 0.2785
H43B H 0.5843 -0.2156 0.2924
H44B H 0.5515 -0.1815 0.3268
C43B C 0.8494(9) -0.1738(5) 0.6103(5)
H45B H 0.8498 -0.1597 0.6433
H46B H 0.8244 -0.2013 0.6123
C44B C 1.0184(16) -0.1966(7) 0.6630(9)
H47B H 1.0407 -0.2237 0.6564
H48B H 0.9716 -0.2011 0.6828
C45B C 1.075(3) -0.1814(11) 0.6909(13)
H49B H 1.1174 -0.1727 0.6695
H50B H 1.0498 -0.1562 0.7018
C46B C 1.1348(18) -0.1988(10) 0.7405(9)
H51B H 1.1858 -0.2128 0.7309
H52B H 1.0997 -0.2196 0.7543
C47B C 1.170(2) -0.1706(12) 0.7824(10)
H53B H 1.2133 -0.1847 0.8095
H54B H 1.2005 -0.1482 0.7689
H55B H 1.1215 -0.1599 0.7968
C48B C 0.5738(14) -0.1001(7) 0.4066(7)
H56B H 0.5398 -0.1238 0.4148
H57B H 0.6159 -0.1095 0.3858
C49B C 0.5141(15) -0.0714(6) 0.3779(7)
H58B H 0.4910 -0.0821 0.3426
H59B H 0.5473 -0.0461 0.3748
C50B C 0.3699(12) -0.0820(5) 0.3777(6)
H60B H 0.3551 -0.0759 0.3402
H61B H 0.3810 -0.1115 0.3817
C51B C 0.2906(16) -0.0710(6) 0.4008(9)
H62B H 0.2951 -0.0855 0.4340
H63B H 0.2345 -0.0796 0.3770
C52B C 0.2125(14) -0.0184(6) 0.4277(10)
H64B H 0.1578 -0.0307 0.4065
H65B H 0.2187 -0.0276 0.4639
C53B C 0.2057(14) 0.0256(5) 0.4252(9)
H66B H 0.1447 0.0337 0.4276
H67B H 0.2154 0.0349 0.3913
S4B S -1.8444(3) -0.15627(12) -0.45675(18)
O7B O -1.4908(12) -0.2153(6) -0.2461(6)
O8B O -1.5694(10) -0.1776(6) -0.2097(6)
N2B N -1.0627(6) -0.0434(3) -0.0364(4)
C54B C -1.986(3) -0.1028(11) -0.7098(12)
H68B H -1.9610 -0.0772 -0.6945
H69B H -1.9379 -0.1210 -0.7139
H70B H -2.0254 -0.0975 -0.7437
C55B C -2.066(3) -0.1653(11) -0.6984(10)
H71B H -2.0990 -0.1789 -0.6755
H72B H -2.1045 -0.1629 -0.7331
H73B H -2.0129 -0.1811 -0.7002
C56B C -2.110(2) -0.0938(16) -0.6717(11)
H74B H -2.0854 -0.0679 -0.6573
H75B H -2.1490 -0.0893 -0.7059
H76B H -2.1453 -0.1059 -0.6487
C57B C -2.037(2) -0.1214(10) -0.6764(9)
C58B C -1.9828(10) -0.1323(6) -0.6234(4)
C59B C -1.9592(14) -0.1000(5) -0.5895(6)
H77B H -1.9752 -0.0732 -0.6007
C60B C -1.9122(14) -0.1071(4) -0.5392(6)
H78B H -1.8961 -0.0851 -0.5160
C61B C -1.8888(10) -0.1464(4) -0.5228(4)
C62B C -1.9125(16) -0.1786(4) -0.5568(7)
H79B H -1.8965 -0.2054 -0.5456
C63B C -1.9595(16) -0.1715(5) -0.6071(6)
H80B H -1.9756 -0.1936 -0.6303
C64B C -1.7385(11) -0.1302(6) -0.4454(6)
H81B H -1.7477 -0.1005 -0.4467
H82B H -1.7048 -0.1378 -0.4718
C65B C -1.6881(11) -0.1431(5) -0.3919(7)
C66B C -1.7042(13) -0.1280(6) -0.3490(8)
H83B H -1.7476 -0.1071 -0.3518
C67B C -1.6586(18) -0.1417(9) -0.2964(8)
H84B H -1.6696 -0.1304 -0.2654
C68B C -1.5970(13) -0.1735(8) -0.2976(9)
C69B C -1.5808(17) -0.1883(9) -0.3422(9)
H85B H -1.5368 -0.2086 -0.3415
C70B C -1.6265(13) -0.1744(7) -0.3861(8)
H86B H -1.6168 -0.1867 -0.4167
C71B C -1.5422(14) -0.1923(6) -0.2460(9)
C72B C -1.5104(13) -0.1950(6) -0.1587(7)
H87B H -1.4941 -0.2233 -0.1646
H88B H -1.5452 -0.1951 -0.1314
C73B C -1.4262(11) -0.1704(5) -0.1405(6)
C74B C -1.4048(16) -0.1385(6) -0.1668(6)
H89B H -1.4417 -0.1327 -0.1997
C75B C -1.3323(13) -0.1137(5) -0.1489(7)
H90B H -1.3164 -0.0929 -0.1699
C76B C -1.2833(10) -0.1207(4) -0.0986(5)
C77B C -1.3041(9) -0.1518(4) -0.0701(5)
H91B H -1.2691 -0.1569 -0.0365
C78B C -1.3770(10) -0.1764(4) -0.0903(6)
H92B H -1.3934 -0.1974 -0.0697
C79B C -1.2039(8) -0.0933(4) -0.0774(4)
C80B C -1.1860(9) -0.0588(4) -0.1027(5)
H93B H -1.2246 -0.0517 -0.1347
C81B C -1.1161(10) -0.0353(4) -0.0836(6)
H94B H -1.1033 -0.0127 -0.1030
C82B C -1.0798(9) -0.0750(4) -0.0101(5)
H95B H -1.0420 -0.0806 0.0226
C83B C -1.1507(8) -0.1000(4) -0.0287(4)
H96B H -1.1634 -0.1219 -0.0082
C84B C -0.9851(8) -0.0175(4) -0.0142(5)
H97B H -0.9396 -0.0335 0.0098
H98B H -0.9577 -0.0072 -0.0422
Ag2B Ag -1.96746(17) -0.11563(6) -0.42459(11)
S6B S -1.9573(6) -0.0449(3) -0.3527(4)
O12B O -1.9896(14) -0.0056(5) -0.3718(10)
O13B O -2.0262(14) -0.0698(6) -0.3385(9)
O14B O -1.8961(13) -0.0636(6) -0.3782(10)
C86B C -1.8874(14) -0.0316(6) -0.2928(8)
F4B F -1.854(2) -0.0659(7) -0.2698(10)
F5B F -1.9327(19) -0.0127(8) -0.2628(10)
F6B F -1.8204(19) -0.0068(9) -0.2968(12)
N3B N -2.055(2) -0.0733(12) -0.4922(11)
C87B C -2.096(3) -0.0512(14) -0.5209(12)
C88B C -2.156(3) -0.0255(14) -0.5626(14)
H99B H -2.1905 -0.0063 -0.5466
H100B H -2.1183 -0.0106 -0.5817
H101B H -2.1967 -0.0432 -0.5864
Ag1B Ag 0.95396(8) 0.76623(4) 1.53521(5)
S5B S 0.8358(3) 0.68395(12) 1.58546(16)
O9B O 0.8953(7) 0.6580(3) 1.5662(4)
O10B O 0.7443(7) 0.6804(4) 1.5594(5)
O11B O 0.8681(8) 0.7250(3) 1.5964(5)
C85B C 0.8386(9) 0.6660(4) 1.6481(5)
F1B F 0.9213(8) 0.6679(5) 1.6767(4)
F2B F 0.8078(11) 0.6290(3) 1.6484(5)
F3B F 0.7841(8) 0.6869(3) 1.6709(4)
Ag1B_2 Ag 0.95396(8) -0.23377(4) 0.53521(5)
Ag2B_2 Ag 1.03254(17) -0.11563(6) 0.57541(11)
S2B_2 S 0.8014(3) 0.76148(12) 1.48006(15)
S3B_2 S -2.0388(2) -0.17785(12) -0.39885(15)
S3B_3 S 0.9612(2) 0.82215(12) 1.60115(15)
Ag3 Ag 0.54387(14) -0.03409(6) 0.08121(12)
S7 S 0.5127(4) 0.09903(17) -0.0431(4)
S8 S 0.5789(3) 0.03635(18) 0.0694(3)
O15 O 0.2258(5) -0.0258(3) 0.0193(4)
O16 O 0.1213(6) -0.0823(3) 0.0697(4)
O17 O 0.0060(6) -0.0388(3) 0.1208(4)
O18 O -0.1762(6) -0.0207(3) 0.0624(4)
C89 C 0.2527(10) 0.0317(5) -0.0281(7)
C90 C 0.3038(11) 0.0658(5) -0.0319(9)
H102 H 0.2860 0.0833 -0.0606
C91 C 0.3808(12) 0.0749(6) 0.0054(10)
C92 C 0.4021(11) 0.0525(6) 0.0458(11)
C93 C 0.3524(9) 0.0176(5) 0.0525(7)
H103 H 0.3699 0.0010 0.0823
C94 C 0.2788(9) 0.0083(5) 0.0153(7)
C95 C 0.4307(12) 0.1121(5) -0.0086(11)
H104 H 0.4595 0.1265 0.0235
H105 H 0.3872 0.1309 -0.0299
C96 C 0.492(3) 0.1348(8) -0.0955(11)
H106 H 0.5218 0.1257 -0.1231
H107 H 0.4273 0.1369 -0.1102
C97 C 0.529(3) 0.1760(9) -0.0746(14)
H108 H 0.5271 0.1779 -0.0376
H109 H 0.5928 0.1777 -0.0768
C98 C 0.481(3) 0.2112(9) -0.1026(12)
H110 H 0.5166 0.2362 -0.0952
H111 H 0.4230 0.2154 -0.0923
C99 C 0.465(3) 0.2002(11) -0.1594(12)
H112 H 0.4392 0.2233 -0.1805
H113 H 0.4245 0.1771 -0.1666
H114 H 0.5224 0.1930 -0.1678
C100 C 0.4836(12) 0.0609(6) 0.0875(11)
H115 H 0.4753 0.0502 0.1210
H116 H 0.4939 0.0905 0.0911
C101 C 0.6715(15) 0.0478(8) 0.1201(11)
H117 H 0.6560 0.0425 0.1538
H118 H 0.7224 0.0302 0.1174
C102 C 0.697(2) 0.0906(9) 0.1172(13)
H119 H 0.6446 0.1075 0.1187
H120 H 0.7438 0.0968 0.1485
C103 C 0.731(3) 0.1037(11) 0.0719(13)
H121 H 0.6938 0.0912 0.0406
H122 H 0.7927 0.0934 0.0755
C104 C 0.731(3) 0.1483(11) 0.0645(17)
H123 H 0.7622 0.1548 0.0368
H124 H 0.7624 0.1613 0.0967
H125 H 0.6698 0.1582 0.0551
C105 C 0.2624(9) -0.0534(4) 0.0590(7)
H126 H 0.2664 -0.0406 0.0932
H127 H 0.3233 -0.0614 0.0561
C106 C 0.2025(9) -0.0905(4) 0.0539(7)
H128 H 0.1886 -0.0997 0.0175
H129 H 0.2345 -0.1127 0.0754
C107 C 0.1340(10) -0.0812(5) 0.1245(7)
H130 H 0.1726 -0.0580 0.1385
H131 H 0.1639 -0.1064 0.1395
C108 C 0.0445(10) -0.0772(5) 0.1393(6)
H132 H 0.0044 -0.0995 0.1236
H133 H 0.0524 -0.0787 0.1773
C109 C -0.0721(13) -0.0300(6) 0.1390(6)
H134 H -0.0768 -0.0003 0.1424
H135 H -0.0656 -0.0418 0.1740
C110 C -0.1538(10) -0.0448(6) 0.1067(7)
H136 H -0.1460 -0.0733 0.0968
H137 H -0.2024 -0.0439 0.1259
S9 S 0.6751(5) -0.0502(3) 0.2000(4)
O19 O 0.6208(15) -0.0186(6) 0.2125(9)
O20 O 0.7685(9) -0.0455(8) 0.2179(8)
O21 O 0.6418(13) -0.0657(7) 0.1486(6)
C111 C 0.6481(13) -0.0891(6) 0.2398(7)
F7 F 0.6709(17) -0.0779(8) 0.2897(7)
F8 F 0.6914(16) -0.1234(6) 0.2349(7)
F9 F 0.5614(12) -0.0973(10) 0.2265(10)
O22 O 0.4550(14) -0.0317(11) 0.1585(10)
H138 H 0.4035 -0.0234 0.1435
C112 C 0.447(3) -0.0391(14) 0.2100(11)
H139 H 0.4231 -0.0142 0.2219
H140 H 0.5060 -0.0448 0.2316
H141 H 0.4065 -0.0617 0.2124
S7B S -0.5127(4) -0.09903(17) 0.0431(4)
S8B S -0.5789(3) -0.03635(18) -0.0694(3)
O15B O -0.2258(5) 0.0258(3) -0.0193(4)
O16B O -0.1213(6) 0.0823(3) -0.0697(4)
O17B O -0.0060(6) 0.0388(3) -0.1208(4)
O18B O 0.1762(6) 0.0207(3) -0.0624(4)
C89B C -0.2527(10) -0.0317(5) 0.0281(7)
C90B C -0.3038(11) -0.0658(5) 0.0319(9)
H102B H -0.2860 -0.0833 0.0606
C91B C -0.3808(12) -0.0749(6) -0.0054(10)
C92B C -0.4021(11) -0.0525(6) -0.0458(11)
C93B C -0.3524(9) -0.0176(5) -0.0525(7)
H103B H -0.3699 -0.0010 -0.0823
C94B C -0.2788(9) -0.0083(5) -0.0153(7)
C95B C -0.4307(12) -0.1121(5) 0.0086(11)
H104B H -0.4595 -0.1265 -0.0235
H105B H -0.3872 -0.1309 0.0299
C96B C -0.492(3) -0.1348(8) 0.0955(11)
H106B H -0.5218 -0.1257 0.1231
H107B H -0.4273 -0.1369 0.1102
C97B C -0.529(3) -0.1760(9) 0.0746(14)
H108B H -0.5271 -0.1779 0.0376
H109B H -0.5928 -0.1777 0.0768
C98B C -0.481(3) -0.2112(9) 0.1026(12)
H110B H -0.5166 -0.2362 0.0952
H111B H -0.4230 -0.2154 0.0923
C99B C -0.465(3) -0.2002(11) 0.1594(12)
H112B H -0.4392 -0.2233 0.1805
H113B H -0.4245 -0.1771 0.1666
H114B H -0.5224 -0.1930 0.1678
C100B C -0.4836(12) -0.0609(6) -0.0875(11)
H115B H -0.4753 -0.0502 -0.1210
H116B H -0.4939 -0.0905 -0.0911
C101B C -0.6715(15) -0.0478(8) -0.1201(11)
H117B H -0.6560 -0.0425 -0.1538
H118B H -0.7224 -0.0302 -0.1174
C102B C -0.697(2) -0.0906(9) -0.1172(13)
H119B H -0.6446 -0.1075 -0.1187
H120B H -0.7438 -0.0968 -0.1485
C103B C -0.731(3) -0.1037(11) -0.0719(13)
H121B H -0.6938 -0.0912 -0.0406
H122B H -0.7927 -0.0934 -0.0755
C104B C -0.731(3) -0.1483(11) -0.0645(17)
H123B H -0.7622 -0.1548 -0.0368
H124B H -0.7624 -0.1613 -0.0967
H125B H -0.6698 -0.1582 -0.0551
C105B C -0.2624(9) 0.0534(4) -0.0590(7)
H126B H -0.2664 0.0406 -0.0932
H127B H -0.3233 0.0614 -0.0561
C106B C -0.2025(9) 0.0905(4) -0.0539(7)
H128B H -0.1886 0.0997 -0.0175
H129B H -0.2345 0.1127 -0.0754
C107B C -0.1340(10) 0.0812(5) -0.1245(7)
H130B H -0.1726 0.0580 -0.1385
H131B H -0.1639 0.1064 -0.1395
C108B C -0.0445(10) 0.0772(5) -0.1393(6)
H132B H -0.0044 0.0995 -0.1236
H133B H -0.0524 0.0787 -0.1773
C109B C 0.0721(13) 0.0300(6) -0.1390(6)
H134B H 0.0768 0.0003 -0.1424
H135B H 0.0656 0.0418 -0.1740
C110B C 0.1538(10) 0.0448(6) -0.1067(7)
H136B H 0.1460 0.0733 -0.0968
H137B H 0.2024 0.0439 -0.1259
Ag3B Ag -0.54387(14) 0.03409(6) -0.08121(12)
S9B S -0.6751(5) 0.0502(3) -0.2000(4)
O19B O -0.6208(15) 0.0186(6) -0.2125(9)
O20B O -0.7685(9) 0.0455(8) -0.2179(8)
O21B O -0.6418(13) 0.0657(7) -0.1486(6)
C111B C -0.6481(13) 0.0891(6) -0.2398(7)
F7B F -0.6709(17) 0.0779(8) -0.2897(7)
F8B F -0.6914(16) 0.1234(6) -0.2349(7)
F9B F -0.5614(12) 0.0973(10) -0.2265(10)
O22B O -0.4550(14) 0.0317(11) -0.1585(10)
H138B H -0.4035 0.0234 -0.1435
C112B C -0.447(3) 0.0391(14) -0.2100(11)
H139B H -0.4231 0.0142 -0.2219
H140B H -0.5060 0.0448 -0.2316
H141B H -0.4065 0.0617 -0.2124
Ag3_2 Ag -0.45613(14) -0.03409(6) 0.08121(12)
Ag3B_2 Ag 0.45613(14) 0.03409(6) -0.08121(12)
S7_2 S -0.4873(4) 0.09903(17) -0.0431(4)
S7B_2 S 0.4873(4) -0.09903(17) 0.0431(4)
S10 S 0.4425(3) 0.79953(19) 0.45891(18)
O23 O 0.3920(11) 0.8361(4) 0.4623(7)
O24 O 0.4828(11) 0.7978(6) 0.4164(5)
O25 O 0.4964(9) 0.7910(4) 0.5091(4)
C113 C 0.3608(10) 0.7620(5) 0.4482(5)
F10 F 0.3144(11) 0.7608(6) 0.4849(6)
F11 F 0.3025(10) 0.7655(6) 0.4035(6)
F12 F 0.3962(13) 0.7251(5) 0.4445(8)
S11 S 0.3014(4) 0.00549(16) 0.23917(19)
O26 O 0.2863(12) 0.0487(3) 0.2379(5)
O27 O 0.2989(9) -0.0099(5) 0.1889(4)
O28 O 0.3697(9) -0.0079(5) 0.2818(5)
C114 C 0.1997(9) -0.0104(4) 0.2526(5)
F13 F 0.1967(9) -0.0511(4) 0.2566(6)
F14 F 0.1872(9) 0.0042(5) 0.2971(4)
F15 F 0.1305(8) 0.0009(4) 0.2156(4)
N4 N -0.019(3) 0.0902(11) 0.129(2)
C115 C 0.020(4) 0.1012(15) 0.167(2)
C116 C 0.092(4) 0.0998(15) 0.216(2)
H142 H 0.0764 0.0819 0.2422
H143 H 0.0927 0.1279 0.2278
H144 H 0.1508 0.0925 0.2104
N5 N 0.655(2) 0.4685(9) -0.1002(12)
C117 C 0.619(3) 0.4653(11) -0.1419(13)
C118 C 0.571(3) 0.4633(11) -0.1977(12)
H145 H 0.5174 0.4802 -0.2031
H146 H 0.5543 0.4351 -0.2059
H147 H 0.6098 0.4728 -0.2203
loop_
_geom_bond_atom_site_label_1
_geom_bond_atom_site_label_2
_geom_bond_site_symmetry_1
_geom_bond_site_symmetry_2
Ag1 S1 1_555 1_555
Ag2 S3 1_555 1_555
S1 C8 1_555 1_555
S2 Ag1 1_555 1_555
S3 Ag1 1_555 1_555
S4 Ag2 1_555 1_555
O1 C18 1_555 1_555
O2 C18 1_555 1_555
O3 C32 1_555 1_555
O4 C49 1_555 1_555
O5 C51 1_555 1_555
O6 C53 1_555 1_555
O7 C71 1_555 1_555
O8 C71 1_555 1_555
N1 C28 1_555 1_555
N2 C81 1_555 1_555
C1 H1 1_555 1_555
H2 C1 1_555 1_555
H3 C1 1_555 1_555
C2 H4 1_555 1_555
H5 C2 1_555 1_555
H6 C2 1_555 1_555
C3 H7 1_555 1_555
H8 C3 1_555 1_555
H9 C3 1_555 1_555
C4 C1 1_555 1_555
C5 C4 1_555 1_555
C6 C5 1_555 1_555
H10 C6 1_555 1_555
C7 C6 1_555 1_555
H11 C7 1_555 1_555
C8 C7 1_555 1_555
C9 C8 1_555 1_555
H12 C9 1_555 1_555
C10 C5 1_555 1_555
H13 C10 1_555 1_555
C11 S1 1_555 1_555
H14 C11 1_555 1_555
H15 C11 1_555 1_555
C12 C11 1_555 1_555
C13 C12 1_555 1_555
H16 C13 1_555 1_555
C14 C13 1_555 1_555
H17 C14 1_555 1_555
C15 C14 1_555 1_555
C16 C15 1_555 1_555
H18 C16 1_555 1_555
C17 C12 1_555 1_555
H19 C17 1_555 1_555
C18 C15 1_555 1_555
C19 O2 1_555 1_555
H20 C19 1_555 1_555
H21 C19 1_555 1_555
C20 C19 1_555 1_555
C21 C20 1_555 1_555
H22 C21 1_555 1_555
C22 C21 1_555 1_555
H23 C22 1_555 1_555
C23 C22 1_555 1_555
C24 C23 1_555 1_555
H24 C24 1_555 1_555
C25 C20 1_555 1_555
H25 C25 1_555 1_555
C26 C23 1_555 1_555
C27 C26 1_555 1_555
H26 C27 1_555 1_555
C28 C27 1_555 1_555
H27 C28 1_555 1_555
C29 N1 1_555 1_555
H28 C29 1_555 1_555
C30 C26 1_555 1_555
H29 C30 1_555 1_555
C31 N1 1_555 1_555
H30 C31 1_555 1_555
H31 C31 1_555 1_555
C32 C33 1_555 1_555
C33 H32 1_555 1_555
C34 C33 1_555 1_555
C35 C34 1_555 1_555
C36 C35 1_555 1_555
H33 C36 1_555 1_555
C37 C32 1_555 1_555
C38 S2 1_555 1_555
H34 C38 1_555 1_555
H35 C38 1_555 1_555
C39 S2 1_555 1_555
H36 C39 1_555 1_555
H37 C39 1_555 1_555
C40 C39 1_555 1_555
H38 C40 1_555 1_555
H39 C40 1_555 1_555
C41 C40 1_555 1_555
H40 C41 1_555 1_555
H41 C41 1_555 1_555
C42 C41 1_555 1_555
H42 C42 1_555 1_555
H43 C42 1_555 1_555
H44 C42 1_555 1_555
C43 S3 1_555 1_555
H45 C43 1_555 1_555
H46 C43 1_555 1_555
C44 S3 1_555 1_555
H47 C44 1_555 1_555
H48 C44 1_555 1_555
C45 C44 1_555 1_555
H49 C45 1_555 1_555
H50 C45 1_555 1_555
C46 C45 1_555 1_555
H51 C46 1_555 1_555
H52 C46 1_555 1_555
C47 C46 1_555 1_555
H53 C47 1_555 1_555
H54 C47 1_555 1_555
H55 C47 1_555 1_555
C48 O3 1_555 1_555
H56 C48 1_555 1_555
H57 C48 1_555 1_555
C49 C48 1_555 1_555
H58 C49 1_555 1_555
H59 C49 1_555 1_555
C50 O4 1_555 1_555
H60 C50 1_555 1_555
H61 C50 1_555 1_555
C51 C50 1_555 1_555
H62 C51 1_555 1_555
H63 C51 1_555 1_555
C52 O5 1_555 1_555
H64 C52 1_555 1_555
H65 C52 1_555 1_555
C53 C52 1_555 1_555
H66 C53 1_555 1_555
H67 C53 1_555 1_555
C54 H68 1_555 1_555
H69 C54 1_555 1_555
H70 C54 1_555 1_555
C55 H71 1_555 1_555
H72 C55 1_555 1_555
H73 C55 1_555 1_555
C56 H74 1_555 1_555
H75 C56 1_555 1_555
H76 C56 1_555 1_555
C57 C54 1_555 1_555
C58 C57 1_555 1_555
C59 C58 1_555 1_555
H77 C59 1_555 1_555
C60 C59 1_555 1_555
H78 C60 1_555 1_555
C61 S4 1_555 1_555
C62 C61 1_555 1_555
H79 C62 1_555 1_555
C63 C58 1_555 1_555
H80 C63 1_555 1_555
C64 S4 1_555 1_555
H81 C64 1_555 1_555
H82 C64 1_555 1_555
C65 C64 1_555 1_555
C66 C65 1_555 1_555
H83 C66 1_555 1_555
C67 C66 1_555 1_555
H84 C67 1_555 1_555
C68 C67 1_555 1_555
C69 C68 1_555 1_555
H85 C69 1_555 1_555
C70 C65 1_555 1_555
H86 C70 1_555 1_555
C71 C68 1_555 1_555
C72 O8 1_555 1_555
H87 C72 1_555 1_555
H88 C72 1_555 1_555
C73 C72 1_555 1_555
C74 C73 1_555 1_555
H89 C74 1_555 1_555
C75 C74 1_555 1_555
H90 C75 1_555 1_555
C76 C75 1_555 1_555
C77 C76 1_555 1_555
H91 C77 1_555 1_555
C78 C73 1_555 1_555
H92 C78 1_555 1_555
C79 C76 1_555 1_555
C80 C79 1_555 1_555
H93 C80 1_555 1_555
C81 C80 1_555 1_555
H94 C81 1_555 1_555
C82 N2 1_555 1_555
H95 C82 1_555 1_555
C83 C79 1_555 1_555
H96 C83 1_555 1_555
C84 N2 1_555 1_555
H97 C84 1_555 1_555
H98 C84 1_555 1_555
S5 O9 1_555 1_555
O10 S5 1_555 1_555
O11 Ag1 1_555 1_555
C85 S5 1_555 1_555
F1 C85 1_555 1_555
F2 C85 1_555 1_555
F3 C85 1_555 1_555
S6 O12 1_555 1_555
O13 S6 1_555 1_555
O14 Ag2 1_555 1_555
C86 S6 1_555 1_555
F4 C86 1_555 1_555
F5 C86 1_555 1_555
F6 C86 1_555 1_555
N3 Ag2 1_555 1_555
C87 N3 1_555 1_555
C88 C87 1_555 1_555
H99 C88 1_555 1_555
H100 C88 1_555 1_555
H101 C88 1_555 1_555
Ag3 S8 1_555 1_555
S7 C95 1_555 1_555
S8 C100 1_555 1_555
O15 C94 1_555 1_555
O16 C106 1_555 1_555
O17 C108 1_555 1_555
O18 C110 1_555 1_555
C89 C90 1_555 1_555
C90 H102 1_555 1_555
C91 C90 1_555 1_555
C92 C91 1_555 1_555
C93 C92 1_555 1_555
H103 C93 1_555 1_555
C94 C89 1_555 1_555
C95 C91 1_555 1_555
H104 C95 1_555 1_555
H105 C95 1_555 1_555
C96 S7 1_555 1_555
H106 C96 1_555 1_555
H107 C96 1_555 1_555
C97 C96 1_555 1_555
H108 C97 1_555 1_555
H109 C97 1_555 1_555
C98 C97 1_555 1_555
H110 C98 1_555 1_555
H111 C98 1_555 1_555
C99 C98 1_555 1_555
H112 C99 1_555 1_555
H113 C99 1_555 1_555
H114 C99 1_555 1_555
C100 C92 1_555 1_555
H115 C100 1_555 1_555
H116 C100 1_555 1_555
C101 S8 1_555 1_555
H117 C101 1_555 1_555
H118 C101 1_555 1_555
C102 C101 1_555 1_555
H119 C102 1_555 1_555
H120 C102 1_555 1_555
C103 C102 1_555 1_555
H121 C103 1_555 1_555
H122 C103 1_555 1_555
C104 C103 1_555 1_555
H123 C104 1_555 1_555
H124 C104 1_555 1_555
H125 C104 1_555 1_555
C105 O15 1_555 1_555
H126 C105 1_555 1_555
H127 C105 1_555 1_555
C106 C105 1_555 1_555
H128 C106 1_555 1_555
H129 C106 1_555 1_555
C107 O16 1_555 1_555
H130 C107 1_555 1_555
H131 C107 1_555 1_555
C108 C107 1_555 1_555
H132 C108 1_555 1_555
H133 C108 1_555 1_555
C109 O17 1_555 1_555
H134 C109 1_555 1_555
H135 C109 1_555 1_555
C110 C109 1_555 1_555
H136 C110 1_555 1_555
H137 C110 1_555 1_555
S9 O19 1_555 1_555
O20 S9 1_555 1_555
O21 Ag3 1_555 1_555
C111 S9 1_555 1_555
F7 C111 1_555 1_555
F8 C111 1_555 1_555
F9 C111 1_555 1_555
O22 Ag3 1_555 1_555
H138 O22 1_555 1_555
C112 O22 1_555 1_555
H139 C112 1_555 1_555
H140 C112 1_555 1_555
H141 C112 1_555 1_555
S10 O23 1_555 1_555
O24 S10 1_555 1_555
O25 S10 1_555 1_555
C113 S10 1_555 1_555
F10 C113 1_555 1_555
F11 C113 1_555 1_555
F12 C113 1_555 1_555
S11 O26 1_555 1_555
O27 S11 1_555 1_555
O28 S11 1_555 1_555
C114 S11 1_555 1_555
F13 C114 1_555 1_555
F14 C114 1_555 1_555
F15 C114 1_555 1_555
N4 C115 1_555 1_555
C115 C116 1_555 1_555
C116 H142 1_555 1_555
H143 C116 1_555 1_555
H144 C116 1_555 1_555
N5 C117 1_555 1_555
C117 C118 1_555 1_555
C118 H145 1_555 1_555
H146 C118 1_555 1_555
H147 C118 1_555 1_555
S1B C8B 1_555 1_555
O1B C18B 1_555 1_555
O2B C18B 1_555 1_555
N1B C28B 1_555 1_555
C1B H1B 1_555 1_555
H2B C1B 1_555 1_555
H3B C1B 1_555 1_555
C2B H4B 1_555 1_555
H5B C2B 1_555 1_555
H6B C2B 1_555 1_555
C3B H7B 1_555 1_555
H8B C3B 1_555 1_555
H9B C3B 1_555 1_555
C4B C1B 1_555 1_555
C5B C4B 1_555 1_555
C6B C5B 1_555 1_555
H10B C6B 1_555 1_555
C7B C6B 1_555 1_555
H11B C7B 1_555 1_555
C8B C7B 1_555 1_555
C9B C8B 1_555 1_555
H12B C9B 1_555 1_555
C10B C5B 1_555 1_555
H13B C10B 1_555 1_555
C11B S1B 1_555 1_555
H14B C11B 1_555 1_555
H15B C11B 1_555 1_555
C12B C11B 1_555 1_555
C13B C12B 1_555 1_555
H16B C13B 1_555 1_555
C14B C13B 1_555 1_555
H17B C14B 1_555 1_555
C15B C14B 1_555 1_555
C16B C15B 1_555 1_555
H18B C16B 1_555 1_555
C17B C12B 1_555 1_555
H19B C17B 1_555 1_555
C18B C15B 1_555 1_555
C19B O2B 1_555 1_555
H20B C19B 1_555 1_555
H21B C19B 1_555 1_555
C20B C19B 1_555 1_555
C21B C20B 1_555 1_555
H22B C21B 1_555 1_555
C22B C21B 1_555 1_555
H23B C22B 1_555 1_555
C23B C22B 1_555 1_555
C24B C23B 1_555 1_555
H24B C24B 1_555 1_555
C25B C20B 1_555 1_555
H25B C25B 1_555 1_555
C26B C23B 1_555 1_555
C27B C26B 1_555 1_555
H26B C27B 1_555 1_555
C28B C27B 1_555 1_555
H27B C28B 1_555 1_555
C29B N1B 1_555 1_555
H28B C29B 1_555 1_555
C30B C26B 1_555 1_555
H29B C30B 1_555 1_555
C31B C31 1_555 1_555
H30B C31B 1_555 1_555
H31B C31B 1_555 1_555
S2B C38B 1_555 1_555
S3B C43B 1_555 1_555
O3B C32B 1_555 1_555
O4B C49B 1_555 1_555
O5B C51B 1_555 1_555
O6B C37 1_555 1_555
C32B C33B 1_555 1_555
C33B H32B 1_555 1_555
C34B C33B 1_555 1_555
C35B C34B 1_555 1_555
C36B C35B 1_555 1_555
H33B C36B 1_555 1_555
C37B O6 1_555 1_555
C38B C34B 1_555 1_555
H34B C38B 1_555 1_555
H35B C38B 1_555 1_555
C39B S2B 1_555 1_555
H36B C39B 1_555 1_555
H37B C39B 1_555 1_555
C40B C39B 1_555 1_555
H38B C40B 1_555 1_555
H39B C40B 1_555 1_555
C41B C40B 1_555 1_555
H40B C41B 1_555 1_555
H41B C41B 1_555 1_555
C42B C41B 1_555 1_555
H42B C42B 1_555 1_555
H43B C42B 1_555 1_555
H44B C42B 1_555 1_555
C43B C35B 1_555 1_555
H45B C43B 1_555 1_555
H46B C43B 1_555 1_555
C44B S3B 1_555 1_555
H47B C44B 1_555 1_555
H48B C44B 1_555 1_555
C45B C44B 1_555 1_555
H49B C45B 1_555 1_555
H50B C45B 1_555 1_555
C46B C45B 1_555 1_555
H51B C46B 1_555 1_555
H52B C46B 1_555 1_555
C47B C46B 1_555 1_555
H53B C47B 1_555 1_555
H54B C47B 1_555 1_555
H55B C47B 1_555 1_555
C48B O3B 1_555 1_555
H56B C48B 1_555 1_555
H57B C48B 1_555 1_555
C49B C48B 1_555 1_555
H58B C49B 1_555 1_555
H59B C49B 1_555 1_555
C50B O4B 1_555 1_555
H60B C50B 1_555 1_555
H61B C50B 1_555 1_555
C51B C50B 1_555 1_555
H62B C51B 1_555 1_555
H63B C51B 1_555 1_555
C52B O5B 1_555 1_555
H64B C52B 1_555 1_555
H65B C52B 1_555 1_555
C53B O6B 1_555 1_555
H66B C53B 1_555 1_555
H67B C53B 1_555 1_555
S4B C61B 1_555 1_555
O7B C71B 1_555 1_555
O8B C71B 1_555 1_555
N2B C81B 1_555 1_555
C54B H68B 1_555 1_555
H69B C54B 1_555 1_555
H70B C54B 1_555 1_555
C55B H71B 1_555 1_555
H72B C55B 1_555 1_555
H73B C55B 1_555 1_555
C56B H74B 1_555 1_555
H75B C56B 1_555 1_555
H76B C56B 1_555 1_555
C57B C54B 1_555 1_555
C58B C57B 1_555 1_555
C59B C58B 1_555 1_555
H77B C59B 1_555 1_555
C60B C59B 1_555 1_555
H78B C60B 1_555 1_555
C61B C60B 1_555 1_555
C62B C61B 1_555 1_555
H79B C62B 1_555 1_555
C63B C58B 1_555 1_555
H80B C63B 1_555 1_555
C64B S4B 1_555 1_555
H81B C64B 1_555 1_555
H82B C64B 1_555 1_555
C65B C64B 1_555 1_555
C66B C65B 1_555 1_555
H83B C66B 1_555 1_555
C67B C66B 1_555 1_555
H84B C67B 1_555 1_555
C68B C67B 1_555 1_555
C69B C68B 1_555 1_555
H85B C69B 1_555 1_555
C70B C65B 1_555 1_555
H86B C70B 1_555 1_555
C71B C68B 1_555 1_555
C72B O8B 1_555 1_555
H87B C72B 1_555 1_555
H88B C72B 1_555 1_555
C73B C72B 1_555 1_555
C74B C73B 1_555 1_555
H89B C74B 1_555 1_555
C75B C74B 1_555 1_555
H90B C75B 1_555 1_555
C76B C75B 1_555 1_555
C77B C76B 1_555 1_555
H91B C77B 1_555 1_555
C78B C73B 1_555 1_555
H92B C78B 1_555 1_555
C79B C76B 1_555 1_555
C80B C79B 1_555 1_555
H93B C80B 1_555 1_555
C81B C80B 1_555 1_555
H94B C81B 1_555 1_555
C82B N2B 1_555 1_555
H95B C82B 1_555 1_555
C83B C79B 1_555 1_555
H96B C83B 1_555 1_555
C84B C84 1_555 1_555
H97B C84B 1_555 1_555
H98B C84B 1_555 1_555
Ag2B S4B 1_555 1_555
S6B O12B 1_555 1_555
O13B S6B 1_555 1_555
O14B Ag2B 1_555 1_555
C86B S6B 1_555 1_555
F4B C86B 1_555 1_555
F5B C86B 1_555 1_555
F6B C86B 1_555 1_555
N3B Ag2B 1_555 1_555
C87B N3B 1_555 1_555
C88B C87B 1_555 1_555
H99B C88B 1_555 1_555
H100B C88B 1_555 1_555
H101B C88B 1_555 1_555
Ag1B S1B 1_555 1_555
S5B O9B 1_555 1_555
O10B S5B 1_555 1_555
O11B Ag1B 1_555 1_555
C85B S5B 1_555 1_555
F1B C85B 1_555 1_555
F2B C85B 1_555 1_555
F3B C85B 1_555 1_555
Ag1B_2 S2B 1_555 1_555
Ag2B_2 S3B 1_555 1_555
S2B_2 Ag1B 1_555 1_555
S3B_2 Ag2B 1_555 1_555
S3B_3 Ag1B 1_555 1_555
S7B C95B 1_555 1_555
S8B C100B 1_555 1_555
O15B C94B 1_555 1_555
O16B C106B 1_555 1_555
O17B C108B 1_555 1_555
O18B C89 1_555 1_555
C89B O18 1_555 1_555
C90B C89B 1_555 1_555
H102B C90B 1_555 1_555
C91B C90B 1_555 1_555
C92B C91B 1_555 1_555
C93B C92B 1_555 1_555
H103B C93B 1_555 1_555
C94B C89B 1_555 1_555
C95B C91B 1_555 1_555
H104B C95B 1_555 1_555
H105B C95B 1_555 1_555
C96B S7B 1_555 1_555
H106B C96B 1_555 1_555
H107B C96B 1_555 1_555
C97B C96B 1_555 1_555
H108B C97B 1_555 1_555
H109B C97B 1_555 1_555
C98B C97B 1_555 1_555
H110B C98B 1_555 1_555
H111B C98B 1_555 1_555
C99B C98B 1_555 1_555
H112B C99B 1_555 1_555
H113B C99B 1_555 1_555
H114B C99B 1_555 1_555
C100B C92B 1_555 1_555
H115B C100B 1_555 1_555
H116B C100B 1_555 1_555
C101B S8B 1_555 1_555
H117B C101B 1_555 1_555
H118B C101B 1_555 1_555
C102B C101B 1_555 1_555
H119B C102B 1_555 1_555
H120B C102B 1_555 1_555
C103B C102B 1_555 1_555
H121B C103B 1_555 1_555
H122B C103B 1_555 1_555
C104B C103B 1_555 1_555
H123B C104B 1_555 1_555
H124B C104B 1_555 1_555
H125B C104B 1_555 1_555
C105B O15B 1_555 1_555
H126B C105B 1_555 1_555
H127B C105B 1_555 1_555
C106B C105B 1_555 1_555
H128B C106B 1_555 1_555
H129B C106B 1_555 1_555
C107B O16B 1_555 1_555
H130B C107B 1_555 1_555
H131B C107B 1_555 1_555
C108B C107B 1_555 1_555
H132B C108B 1_555 1_555
H133B C108B 1_555 1_555
C109B O17B 1_555 1_555
H134B C109B 1_555 1_555
H135B C109B 1_555 1_555
C110B O18B 1_555 1_555
H136B C110B 1_555 1_555
H137B C110B 1_555 1_555
Ag3B S8B 1_555 1_555
S9B O19B 1_555 1_555
O20B S9B 1_555 1_555
O21B Ag3B 1_555 1_555
C111B S9B 1_555 1_555
F7B C111B 1_555 1_555
F8B C111B 1_555 1_555
F9B C111B 1_555 1_555
O22B Ag3B 1_555 1_555
H138B O22B 1_555 1_555
C112B O22B 1_555 1_555
H139B C112B 1_555 1_555
H140B C112B 1_555 1_555
H141B C112B 1_555 1_555
Ag3_2 S7B 1_555 1_555
Ag3B_2 S7 1_555 1_555
S7_2 Ag3B 1_555 1_555
S7B_2 Ag3 1_555 1_555
C2 C4 1_555 1_555
C3 C4 1_555 1_555
C9 C10 1_555 1_555
C16 C17 1_555 1_555
C24 C25 1_555 1_555
C29 C30 1_555 1_555
C34 C38 1_555 1_555
C35 C43 1_555 1_555
C36 C37 1_555 1_555
C55 C57 1_555 1_555
C56 C57 1_555 1_555
C60 C61 1_555 1_555
C62 C63 1_555 1_555
C69 C70 1_555 1_555
C77 C78 1_555 1_555
C82 C83 1_555 1_555
S5 O11 1_555 1_555
S6 O14 1_555 1_555
C93 C94 1_555 1_555
S9 O21 1_555 1_555
N1B C31B 1_555 1_555
C2B C4B 1_555 1_555
C3B C4B 1_555 1_555
C9B C10B 1_555 1_555
C16B C17B 1_555 1_555
C24B C25B 1_555 1_555
C29B C30B 1_555 1_555
S3B Ag1B_2 1_555 1_555
C32B C37B 1_555 1_555
C36B C37B 1_555 1_555
C52B C53B 1_555 1_555
N2B C84B 1_555 1_555
C55B C57B 1_555 1_555
C56B C57B 1_555 1_555
C62B C63B 1_555 1_555
C69B C70B 1_555 1_555
C77B C78B 1_555 1_555
C82B C83B 1_555 1_555
S6B O14B 1_555 1_555
S5B O11B 1_555 1_555
C93B C94B 1_555 1_555
C109B C110B 1_555 1_555
S9B O21B 1_555 1_555

#END
