
#######################################################################
#
#                 Cambridge Crystallographic Data Centre
#                                CCDC 
#
#######################################################################
#
# If this CIF has been generated from an entry in the Cambridge 
# Structural Database, then it will include bibliographic, chemical, 
# crystal, experimental, refinement or atomic coordinate data resulting 
# from the CCDC's data processing and validation procedures.
#
#######################################################################

data_KILGIX
_symmetry_cell_setting           monoclinic
_symmetry_space_group_name_H-M   'P 21/c'
_symmetry_Int_Tables_number      14
_space_group_name_Hall           '-P 2ybc'
loop_
_symmetry_equiv_pos_site_id
_symmetry_equiv_pos_as_xyz
1 x,y,z
2 -x,1/2+y,1/2-z
3 -x,-y,-z
4 x,1/2-y,1/2+z
_cell_length_a                   15.618(2)
_cell_length_b                   17.187(3)
_cell_length_c                   20.336(3)
_cell_angle_alpha                90
_cell_angle_beta                 103.436(2)
_cell_angle_gamma                90
_cell_volume                     5309.32
loop_
_atom_site_label
_atom_site_type_symbol
_atom_site_fract_x
_atom_site_fract_y
_atom_site_fract_z
Ag1 Ag 0.75124(5) 0.06199(4) 0.24196(3)
S1 S 0.67159(16) 0.16364(14) 0.15848(12)
S2 S 0.83445(15) -0.03173(14) 0.18030(12)
S3 S -0.21087(15) -0.65073(14) -0.15089(12)
S4 S -0.28999(15) -0.43692(15) -0.19730(12)
O1 O 0.5185(4) -0.1956(3) 0.0820(3)
O2 O 0.4527(5) -0.3407(4) 0.0137(4)
O3 O 0.3098(4) -0.4482(4) -0.0091(3)
O4 O 0.1366(4) -0.4661(3) -0.0918(3)
O5 O 0.0583(4) -0.3377(3) -0.1111(3)
O6 O 0.1498(4) -0.1978(4) -0.0530(3)
O7 O 0.2240(4) -0.0814(4) 0.0454(3)
O8 O 0.4148(3) -0.0792(3) 0.0825(3)
C1 C 0.4993(5) -0.0604(6) 0.0832(4)
C2 C 0.5321(6) 0.0135(5) 0.0807(4)
H1 H 0.4935 0.0553 0.0777
C3 C 0.6197(6) 0.0290(5) 0.0825(4)
C4 C 0.6778(5) -0.0339(5) 0.0863(4)
C5 C 0.6449(6) -0.1094(6) 0.0865(4)
H2 H 0.6829 -0.1515 0.0886
C6 C 0.5571(6) -0.1228(5) 0.0838(4)
C7 C 0.6482(6) 0.1121(5) 0.0776(4)
H3 H 0.6022 0.1397 0.0459
H4 H 0.7005 0.1127 0.0597
C8 C 0.5648(6) 0.1735(5) 0.1740(5)
C9 C 0.5056(7) 0.2243(6) 0.1317(5)
H5 H 0.5229 0.2526 0.0980
C10 C 0.4236(8) 0.2309(7) 0.1413(6)
H6 H 0.3839 0.2638 0.1132
C11 C 0.3964(8) 0.1903(8) 0.1917(7)
H7 H 0.3395 0.1966 0.1976
C12 C 0.4537(7) 0.1407(8) 0.2329(5)
H8 H 0.4362 0.1131 0.2668
C13 C 0.5385(7) 0.1322(6) 0.2232(5)
H9 H 0.5775 0.0982 0.2505
C14 C 0.7753(5) -0.0245(6) 0.0919(4)
H10 H 0.7867 0.0257 0.0739
H11 H 0.7958 -0.0646 0.0657
C15 C 0.9391(6) 0.0073(5) 0.1794(4)
C16 C 0.9788(6) -0.0064(5) 0.1265(5)
H12 H 0.9503 -0.0357 0.0894
C17 C 1.0617(6) 0.0241(6) 0.1296(5)
H13 H 1.0884 0.0159 0.0938
C18 C 1.1050(7) 0.0663(7) 0.1845(6)
H14 H 1.1609 0.0859 0.1858
C19 C 1.0666(6) 0.0798(6) 0.2375(5)
H15 H 1.0959 0.1092 0.2743
C20 C 0.9831(6) 0.0492(5) 0.2361(5)
H16 H 0.9573 0.0567 0.2724
C21 C 0.5712(6) -0.2612(6) 0.0770(6)
H17 H 0.6212 -0.2632 0.1155
H18 H 0.5930 -0.2579 0.0361
C22 C 0.5162(7) -0.3327(6) 0.0751(6)
H19 H 0.5543 -0.3780 0.0818
H20 H 0.4867 -0.3308 0.1121
C23 C 0.3640(6) -0.3213(6) 0.0151(6)
H21 H 0.3528 -0.2668 0.0037
H22 H 0.3546 -0.3300 0.0600
C24 C 0.3031(6) -0.3710(6) -0.0348(5)
H23 H 0.2431 -0.3523 -0.0412
H24 H 0.3192 -0.3696 -0.0781
C25 C 0.2835(6) -0.5085(6) -0.0582(5)
H25 H 0.3203 -0.5538 -0.0442
H26 H 0.2935 -0.4909 -0.1011
C26 C 0.1888(6) -0.5320(5) -0.0683(5)
H27 H 0.1752 -0.5739 -0.1010
H28 H 0.1773 -0.5500 -0.0259
C27 C 0.0479(5) -0.4705(5) -0.0951(4)
C28 C 0.0028(6) -0.5358(5) -0.0855(4)
H29 H 0.0335 -0.5821 -0.0740
C29 C -0.0886(6) -0.5350(5) -0.0925(4)
C30 C -0.1332(5) -0.4627(5) -0.1070(4)
C31 C -0.0862(5) -0.3978(5) -0.1160(4)
H30 H -0.1164 -0.3515 -0.1284
C32 C 0.0041(6) -0.3985(6) -0.1076(4)
C33 C -0.1351(6) -0.6081(6) -0.0787(4)
H31 H -0.1674 -0.5964 -0.0445
H32 H -0.0910 -0.6467 -0.0598
C34 C -0.1518(6) -0.7254(5) -0.1811(5)
C35 C -0.0615(6) -0.7336(6) -0.1654(5)
H33 H -0.0262 -0.6979 -0.1370
C36 C -0.0238(7) -0.7950(6) -0.1922(5)
H34 H 0.0370 -0.8010 -0.1808
C37 C -0.0748(8) -0.8477(6) -0.2354(6)
H35 H -0.0485 -0.8880 -0.2540
C38 C -0.1644(8) -0.8402(6) -0.2506(5)
H36 H -0.1993 -0.8754 -0.2797
C39 C -0.2027(7) -0.7802(5) -0.2227(5)
H37 H -0.2638 -0.7765 -0.2319
C40 C -0.2305(5) -0.4557(5) -0.1112(4)
H38 H -0.2409 -0.4136 -0.0822
H39 H -0.2519 -0.5035 -0.0953
C41 C -0.4007(6) -0.4296(5) -0.1908(5)
C42 C -0.4321(6) -0.4574(6) -0.1369(5)
H40 H -0.3943 -0.4827 -0.1013
C43 C -0.5208(7) -0.4473(7) -0.1361(7)
H41 H -0.5422 -0.4642 -0.0995
C44 C -0.5763(7) -0.4116(7) -0.1912(6)
H42 H -0.6357 -0.4059 -0.1920
C45 C -0.5448(7) -0.3847(8) -0.2442(5)
H43 H -0.5827 -0.3608 -0.2807
C46 C -0.4582(7) -0.3929(7) -0.2436(5)
H44 H -0.4371 -0.3734 -0.2795
C47 C 0.0193(6) -0.2625(5) -0.1237(5)
H45 H -0.0144 -0.2504 -0.0905
H46 H -0.0199 -0.2607 -0.1684
C48 C 0.0939(6) -0.2045(5) -0.1190(5)
H47 H 0.1292 -0.2201 -0.1502
H48 H 0.0690 -0.1538 -0.1331
C49 C 0.1064(6) -0.1664(7) -0.0044(5)
H49 H 0.0658 -0.2046 0.0062
H50 H 0.0729 -0.1207 -0.0229
C50 C 0.1711(6) -0.1454(6) 0.0571(5)
H51 H 0.1411 -0.1317 0.0922
H52 H 0.2087 -0.1898 0.0727
C51 C 0.2763(6) -0.0520(6) 0.1063(4)
H53 H 0.2912 -0.0937 0.1391
H54 H 0.2437 -0.0127 0.1246
C52 C 0.3592(6) -0.0170(6) 0.0933(5)
H55 H 0.3452 0.0164 0.0539
H56 H 0.3887 0.0139 0.1318
Ag1C Ag -0.24876(5) -0.56199(4) -0.25804(3)
S3C S 0.78913(15) 0.15073(14) 0.34911(12)
S4C S 0.71001(15) -0.06308(15) 0.30270(12)
S5 S 0.8230(2) -0.2595(2) 0.02165(19)
O9 O 0.7461(4) -0.3054(4) -0.0056(4)
O10 O 0.8210(5) -0.2215(4) 0.0825(3)
O11 O 0.9051(4) -0.2959(4) 0.0202(3)
C53 C 0.8170(7) -0.1923(9) -0.0305(8)
F1 F 0.8841(5) -0.1408(4) -0.0169(4)
F2 F 0.8152(4) -0.2158(4) -0.0964(3)
F3 F 0.7416(4) -0.1471(4) -0.0411(4)
O12 O 0.7846(14) -0.2528(16) 0.2210(12)
H57 H 0.8139 -0.2448 0.1913
H58 H 0.8051 -0.2207 0.2526
loop_
_geom_bond_atom_site_label_1
_geom_bond_atom_site_label_2
_geom_bond_site_symmetry_1
_geom_bond_site_symmetry_2
Ag1 S1 1_555 1_555
S1 C7 1_555 1_555
S2 Ag1 1_555 1_555
S3 C33 1_555 1_555
S4 C40 1_555 1_555
O1 C6 1_555 1_555
O2 C22 1_555 1_555
O3 C24 1_555 1_555
O4 C26 1_555 1_555
O5 C32 1_555 1_555
O6 C48 1_555 1_555
O7 C50 1_555 1_555
O8 C1 1_555 1_555
C1 C2 1_555 1_555
C2 H1 1_555 1_555
C3 C2 1_555 1_555
C4 C3 1_555 1_555
C5 C4 1_555 1_555
H2 C5 1_555 1_555
C6 C1 1_555 1_555
C7 C3 1_555 1_555
H3 C7 1_555 1_555
H4 C7 1_555 1_555
C8 S1 1_555 1_555
C9 C8 1_555 1_555
H5 C9 1_555 1_555
C10 C9 1_555 1_555
H6 C10 1_555 1_555
C11 C10 1_555 1_555
H7 C11 1_555 1_555
C12 C11 1_555 1_555
H8 C12 1_555 1_555
C13 C8 1_555 1_555
H9 C13 1_555 1_555
C14 S2 1_555 1_555
H10 C14 1_555 1_555
H11 C14 1_555 1_555
C15 S2 1_555 1_555
C16 C15 1_555 1_555
H12 C16 1_555 1_555
C17 C16 1_555 1_555
H13 C17 1_555 1_555
C18 C17 1_555 1_555
H14 C18 1_555 1_555
C19 C18 1_555 1_555
H15 C19 1_555 1_555
C20 C15 1_555 1_555
H16 C20 1_555 1_555
C21 O1 1_555 1_555
H17 C21 1_555 1_555
H18 C21 1_555 1_555
C22 C21 1_555 1_555
H19 C22 1_555 1_555
H20 C22 1_555 1_555
C23 O2 1_555 1_555
H21 C23 1_555 1_555
H22 C23 1_555 1_555
C24 C23 1_555 1_555
H23 C24 1_555 1_555
H24 C24 1_555 1_555
C25 O3 1_555 1_555
H25 C25 1_555 1_555
H26 C25 1_555 1_555
C26 C25 1_555 1_555
H27 C26 1_555 1_555
H28 C26 1_555 1_555
C27 O4 1_555 1_555
C28 C27 1_555 1_555
H29 C28 1_555 1_555
C29 C28 1_555 1_555
C30 C29 1_555 1_555
C31 C30 1_555 1_555
H30 C31 1_555 1_555
C32 C27 1_555 1_555
C33 C29 1_555 1_555
H31 C33 1_555 1_555
H32 C33 1_555 1_555
C34 S3 1_555 1_555
C35 C34 1_555 1_555
H33 C35 1_555 1_555
C36 C35 1_555 1_555
H34 C36 1_555 1_555
C37 C36 1_555 1_555
H35 C37 1_555 1_555
C38 C37 1_555 1_555
H36 C38 1_555 1_555
C39 C34 1_555 1_555
H37 C39 1_555 1_555
C40 C30 1_555 1_555
H38 C40 1_555 1_555
H39 C40 1_555 1_555
C41 S4 1_555 1_555
C42 C41 1_555 1_555
H40 C42 1_555 1_555
C43 C42 1_555 1_555
H41 C43 1_555 1_555
C44 C43 1_555 1_555
H42 C44 1_555 1_555
C45 C44 1_555 1_555
H43 C45 1_555 1_555
C46 C41 1_555 1_555
H44 C46 1_555 1_555
C47 O5 1_555 1_555
H45 C47 1_555 1_555
H46 C47 1_555 1_555
C48 C47 1_555 1_555
H47 C48 1_555 1_555
H48 C48 1_555 1_555
C49 O6 1_555 1_555
H49 C49 1_555 1_555
H50 C49 1_555 1_555
C50 C49 1_555 1_555
H51 C50 1_555 1_555
H52 C50 1_555 1_555
C51 O7 1_555 1_555
H53 C51 1_555 1_555
H54 C51 1_555 1_555
C52 O8 1_555 1_555
H55 C52 1_555 1_555
H56 C52 1_555 1_555
S5 O9 1_555 1_555
O10 S5 1_555 1_555
O11 S5 1_555 1_555
C53 S5 1_555 1_555
F1 C53 1_555 1_555
F2 C53 1_555 1_555
F3 C53 1_555 1_555
O12 H57 1_555 1_555
H58 O12 1_555 1_555
Ag1C S3 1_555 1_555
S3C Ag1 1_555 1_555
S4C Ag1 1_555 1_555
S4 Ag1C 1_555 1_555
C4 C14 1_555 1_555
C5 C6 1_555 1_555
C12 C13 1_555 1_555
C19 C20 1_555 1_555
C31 C32 1_555 1_555
C38 C39 1_555 1_555
C45 C46 1_555 1_555
C51 C52 1_555 1_555

#END
