
#######################################################################
#
#                 Cambridge Crystallographic Data Centre
#                                CCDC 
#
#######################################################################
#
# If this CIF has been generated from an entry in the Cambridge 
# Structural Database, then it will include bibliographic, chemical, 
# crystal, experimental, refinement or atomic coordinate data resulting 
# from the CCDC's data processing and validation procedures.
#
#######################################################################

data_KILMUP
_symmetry_cell_setting           monoclinic
_symmetry_space_group_name_H-M   'P 21/c'
_symmetry_Int_Tables_number      14
_space_group_name_Hall           '-P 2ybc'
loop_
_symmetry_equiv_pos_site_id
_symmetry_equiv_pos_as_xyz
1 x,y,z
2 -x,1/2+y,1/2-z
3 -x,-y,-z
4 x,1/2-y,1/2+z
_cell_length_a                   11.596(2)
_cell_length_b                   11.263(2)
_cell_length_c                   16.742(3)
_cell_angle_alpha                90
_cell_angle_beta                 96.53(3)
_cell_angle_gamma                90
_cell_volume                     2172.42
loop_
_atom_site_label
_atom_site_type_symbol
_atom_site_fract_x
_atom_site_fract_y
_atom_site_fract_z
C1 C 0.1057(2) 0.9302(3) 1.13059(17)
C2 C 0.0313(2) 0.8263(3) 1.02797(17)
C3 C 0.3963(2) 0.5714(2) 1.06479(17)
C4 C 0.4864(2) 0.6928(3) 1.15100(16)
C5 C 0.5461(2) 1.0707(2) 1.07896(16)
C6 C 0.4545(2) 1.1642(3) 1.05511(17)
H1 H 0.4931 1.2405 1.0539
H2 H 0.4203 1.1472 1.0007
C7 C 0.3572(2) 1.1762(2) 1.10752(16)
C8 C 0.1348(2) 0.7806(3) 0.79514(17)
C9 C 0.2551(2) 0.7658(3) 0.76971(16)
H3 H 0.2990 0.8376 0.7835
H4 H 0.2480 0.7575 0.7117
C10 C 0.3238(2) 0.6603(2) 0.80707(16)
Cu1 Cu 0.36157(3) 0.92275(3) 1.11894(2)
Cu2 Cu 0.23909(3) 0.72925(3) 0.956882(18)
N1 N 0.19313(19) 0.8875(2) 1.09537(13)
N2 N 0.14454(19) 0.8201(2) 1.02892(13)
N3 N 0.1128(2) 0.9940(3) 1.19914(17)
H5 H 0.1796 1.0105 1.2245
H6 H 0.0506 1.0181 1.2175
N4 N 0.0032(2) 0.8944(3) 1.09035(15)
N5 N -0.0498(2) 0.7757(3) 0.97522(19)
H7 H -0.0294 0.7334 0.9364
H8 H -0.1221 0.7855 0.9802
N6 N 0.35300(19) 0.67736(19) 1.04881(13)
N7 N 0.41160(19) 0.75634(19) 1.10461(13)
N8 N 0.5616(3) 0.7331(3) 1.2125(2)
H9 H 0.5633 0.8074 1.2244
H10 H 0.6078 0.6845 1.2398
N9 N 0.4795(2) 0.5768(2) 1.12905(15)
N10 N 0.3681(3) 0.4696(2) 1.02369(17)
H11 H 0.3168 0.4707 0.9824
H12 H 0.4016 0.4040 1.0390
O1 O 0.52144(16) 0.97756(18) 1.11623(13)
O2 O 0.64548(17) 1.08744(19) 1.05894(14)
O3 O 0.3173(2) 1.27608(19) 1.11808(16)
O4 O 0.3184(2) 1.08520(18) 1.13989(15)
O5 O 0.12035(18) 0.7671(2) 0.86839(12)
O6 O 0.05271(19) 0.8088(2) 0.74376(13)
O7 O 0.37700(19) 0.59511(19) 0.76337(12)
O8 O 0.32870(17) 0.64304(18) 0.88218(11)
O9 O 0.1335(2) 0.5459(2) 0.97087(15)
H13 H 0.1145 0.5407 1.0183
H14 H 0.0773 0.5193 0.9388
Cu1C Cu 0.36157(3) 0.57725(3) 0.61894(2)
Cu2B Cu 0.76091(3) 1.27075(3) 1.043118(18)
O2B O 0.35452(17) 0.91256(19) 0.94106(14)
O7C O 0.37700(19) 0.90489(19) 1.26337(12)
O10 O 0.0692(3) 0.9780(3) 0.62648(15)
H15 H 0.0688 0.9227 0.6610
H16 H 0.0976 1.0346 0.6560
O11 O 0.1518(2) 0.3249(3) 0.21982(18)
H17 H 0.1023 0.2735 0.2309
H18 H 0.1946 0.2943 0.1873
O12 O 0.7840(3) 0.9018(4) 1.1145(3)
H19 H 0.8115 0.9596 1.1433
H20 H 0.7760 0.8780 1.1617
loop_
_geom_bond_atom_site_label_1
_geom_bond_atom_site_label_2
_geom_bond_site_symmetry_1
_geom_bond_site_symmetry_2
C1 N1 1_555 1_555
C2 N2 1_555 1_555
C3 N6 1_555 1_555
C4 N7 1_555 1_555
C5 C6 1_555 1_555
C6 H1 1_555 1_555
H2 C6 1_555 1_555
C7 C6 1_555 1_555
C8 C9 1_555 1_555
C9 H3 1_555 1_555
H4 C9 1_555 1_555
C10 C9 1_555 1_555
Cu1 N1 1_555 1_555
Cu2 N2 1_555 1_555
N1 N2 1_555 1_555
N3 C1 1_555 1_555
H5 N3 1_555 1_555
H6 N3 1_555 1_555
N4 C1 1_555 1_555
N5 C2 1_555 1_555
H7 N5 1_555 1_555
H8 N5 1_555 1_555
N6 Cu2 1_555 1_555
N7 Cu1 1_555 1_555
N8 C4 1_555 1_555
H9 N8 1_555 1_555
H10 N8 1_555 1_555
N9 C3 1_555 1_555
N10 C3 1_555 1_555
H11 N10 1_555 1_555
H12 N10 1_555 1_555
O1 C5 1_555 1_555
O2 C5 1_555 1_555
O3 C7 1_555 1_555
O4 C7 1_555 1_555
O5 C8 1_555 1_555
O6 C8 1_555 1_555
O7 C10 1_555 1_555
O8 C10 1_555 1_555
O9 Cu2 1_555 1_555
H13 O9 1_555 1_555
H14 O9 1_555 1_555
O10 H15 1_555 1_555
H16 O10 1_555 1_555
O11 H17 1_555 1_555
H18 O11 1_555 1_555
O12 H19 1_555 1_555
H20 O12 1_555 1_555
Cu1C O7 1_555 1_555
Cu2B O2 1_555 1_555
O2B Cu2 1_555 1_555
O7C Cu1 1_555 1_555
C2 N4 1_555 1_555
C4 N9 1_555 1_555
Cu1 O1 1_555 1_555
Cu1 O4 1_555 1_555
Cu2 O5 1_555 1_555
Cu2 O8 1_555 1_555
N6 N7 1_555 1_555

#END
