
#######################################################################
#
#                 Cambridge Crystallographic Data Centre
#                                CCDC 
#
#######################################################################
#
# If this CIF has been generated from an entry in the Cambridge 
# Structural Database, then it will include bibliographic, chemical, 
# crystal, experimental, refinement or atomic coordinate data resulting 
# from the CCDC's data processing and validation procedures.
#
#######################################################################

data_KILPUQ
_symmetry_cell_setting           triclinic
_symmetry_space_group_name_H-M   'P -1'
_symmetry_Int_Tables_number      2
_space_group_name_Hall           '-P 1'
loop_
_symmetry_equiv_pos_site_id
_symmetry_equiv_pos_as_xyz
1 x,y,z
2 -x,-y,-z
_cell_length_a                   5.77300(10)
_cell_length_b                   8.9124(8)
_cell_length_c                   14.5524(4)
_cell_angle_alpha                73.660(4)
_cell_angle_beta                 87.457(2)
_cell_angle_gamma                75.432(3)
_cell_volume                     695.117
loop_
_atom_site_label
_atom_site_type_symbol
_atom_site_fract_x
_atom_site_fract_y
_atom_site_fract_z
Ag1 Ag 0.06380(4) 0.12586(2) 0.054679(14)
S1 S 0.54714(11) 0.15457(7) 0.17475(4)
O1 O 0.3192(4) 0.2509(2) 0.12839(14)
O2 O 0.6910(5) 0.2484(3) 0.1999(2)
O3 O 0.6799(4) 0.0474(3) 0.1201(2)
N1 N -0.0494(4) 0.2932(2) -0.09211(14)
N2 N 0.2180(5) 0.4424(3) -0.0809(2)
N3 N -0.3110(4) 0.1346(3) -0.0966(2)
C1 C 0.4800(4) 0.0247(3) 0.2829(2)
C2 C 0.6585(5) -0.1053(4) 0.3320(2)
C3 C 0.6098(6) -0.2057(4) 0.4178(2)
C4 C 0.3838(6) -0.1808(4) 0.4555(2)
C5 C 0.2062(6) -0.0530(4) 0.4039(2)
C6 C 0.2509(5) 0.0498(3) 0.3185(2)
C7 C 0.3284(9) -0.2907(5) 0.5493(3)
C8 C 0.0681(5) 0.4068(3) -0.1349(2)
C9 C 0.0401(6) 0.4829(3) -0.2341(2)
C10 C -0.1157(6) 0.4448(4) -0.2857(2)
C11 C -0.2441(6) 0.3317(4) -0.2421(2)
C12 C -0.2023(5) 0.2587(3) -0.1456(2)
H1 H 0.8110(5) -0.1250(4) 0.3072(2)
H2 H 0.7315(6) -0.2918(4) 0.4509(2)
H3 H 0.0523(6) -0.0359(4) 0.4275(2)
H4 H 0.1286(5) 0.1351(3) 0.2850(2)
H5 H 0.1632(9) -0.2542(5) 0.5635(3)
H6 H 0.4283(9) -0.2886(5) 0.5997(3)
H7 H 0.3584(9) -0.3990(5) 0.5442(3)
H8 H 0.1266(6) 0.5576(3) -0.2637(2)
H9 H -0.1371(6) 0.4951(4) -0.3511(2)
H10 H -0.3534(6) 0.3067(4) -0.2768(2)
H11 H -0.444(7) 0.133(4) -0.122(3)
H12 H -0.355(7) 0.148(5) -0.043(3)
H13 H 0.235(6) 0.402(4) -0.020(3)
H14 H 0.271(6) 0.520(4) -0.104(2)
O3_2 O -0.3201(4) 0.0474(3) 0.1201(2)
Ag1_2 Ag 1.06380(4) 0.12586(2) 0.054679(14)
Ag1A Ag -0.06380(4) -0.12586(2) -0.054679(14)
N3A N 0.3110(4) -0.1346(3) 0.0966(2)
H11A H 0.444(7) -0.133(4) 0.122(3)
H12A H 0.355(7) -0.148(5) 0.043(3)
loop_
_geom_bond_atom_site_label_1
_geom_bond_atom_site_label_2
_geom_bond_site_symmetry_1
_geom_bond_site_symmetry_2
Ag1 O1 1_555 1_555
S1 O1 1_555 1_555
O2 S1 1_555 1_555
O3 S1 1_555 1_555
N1 Ag1 1_555 1_555
N2 C8 1_555 1_555
N3 C12 1_555 1_555
C1 S1 1_555 1_555
C2 C1 1_555 1_555
C3 C2 1_555 1_555
C4 C3 1_555 1_555
C5 C4 1_555 1_555
C6 C1 1_555 1_555
C7 C4 1_555 1_555
C8 N1 1_555 1_555
C9 C8 1_555 1_555
C10 C9 1_555 1_555
C11 C10 1_555 1_555
C12 N1 1_555 1_555
H1 C2 1_555 1_555
H2 C3 1_555 1_555
H3 C5 1_555 1_555
H4 C6 1_555 1_555
H5 C7 1_555 1_555
H6 C7 1_555 1_555
H7 C7 1_555 1_555
H8 C9 1_555 1_555
H9 C10 1_555 1_555
H10 C11 1_555 1_555
H11 N3 1_555 1_555
H12 N3 1_555 1_555
H13 N2 1_555 1_555
H14 N2 1_555 1_555
O3_2 Ag1 1_555 1_555
Ag1_2 O3 1_555 1_555
Ag1A N3 1_555 1_555
N3A Ag1 1_555 1_555
H11A N3A 1_555 1_555
H12A N3A 1_555 1_555
C5 C6 1_555 1_555
C11 C12 1_555 1_555

#END
