
#######################################################################
#
#                 Cambridge Crystallographic Data Centre
#                                CCDC 
#
#######################################################################
#
# If this CIF has been generated from an entry in the Cambridge 
# Structural Database, then it will include bibliographic, chemical, 
# crystal, experimental, refinement or atomic coordinate data resulting 
# from the CCDC's data processing and validation procedures.
#
#######################################################################

data_KILQIF
_symmetry_cell_setting           triclinic
_symmetry_space_group_name_H-M   'P -1'
_symmetry_Int_Tables_number      2
_space_group_name_Hall           '-P 1'
loop_
_symmetry_equiv_pos_site_id
_symmetry_equiv_pos_as_xyz
1 x,y,z
2 -x,-y,-z
_cell_length_a                   5.7700(9)
_cell_length_b                   6.9973(9)
_cell_length_c                   8.1090(10)
_cell_angle_alpha                100.203(9)
_cell_angle_beta                 104.990(9)
_cell_angle_gamma                106.970(10)
_cell_volume                     290.957
loop_
_atom_site_label
_atom_site_type_symbol
_atom_site_fract_x
_atom_site_fract_y
_atom_site_fract_z
Ag1 Ag 0.0000 0.0000 0.0000
N1 N -0.0131(6) 0.1746(5) 0.2376(3)
C1 C -0.0691(6) 0.3675(5) 0.2331(4)
C2 C -0.3094(5) 0.3271(4) 0.0830(3)
C3 C -0.3825(6) 0.5178(4) 0.0778(4)
H1 H -0.1327 0.0912 0.2713
H2 H 0.1393 0.2085 0.3225
H3 H 0.0741 0.4699 0.2191
H4 H -0.0892 0.4236 0.3446
H5 H -0.4497 0.2189 0.0941
H6 H -0.2852 0.2766 -0.0284
H7 H -0.4142 0.5644 0.1871
H8 H -0.2387 0.6281 0.0727
C3A C -0.6175(6) 0.4822(4) -0.0778(4)
C2A C -0.6906(5) 0.6729(4) -0.0830(3)
C1A C -0.9309(6) 0.6325(5) -0.2331(4)
N1A N -0.9869(6) 0.8254(5) -0.2376(3)
Ag1_2 Ag -1.0000 1.0000 0.0000
H1A H -0.8673 0.9088 -0.2713
H2A H -1.1393 0.7915 -0.3225
H3A H -1.0741 0.5301 -0.2191
H4A H -0.9108 0.5764 -0.3446
H5A H -0.5503 0.7811 -0.0941
H6A H -0.7148 0.7234 0.0284
H7A H -0.5858 0.4356 -0.1871
H8A H -0.7613 0.3719 -0.0727
N1A_2 N 0.0131(6) -0.1746(5) -0.2376(3)
H1A_2 H 0.1327 -0.0912 -0.2713
H2A_2 H -0.1393 -0.2085 -0.3225
Cl1 Cl -0.5000 0.0000 0.5000
O1 O -0.5359(16) -0.0167(15) 0.3295(7)
O2 O -0.4742(14) 0.2119(12) 0.4708(14)
O1A O -0.4641(16) 0.0167(15) 0.6705(7)
O2A O -0.5258(14) -0.2119(12) 0.5292(14)
O3? O -0.352(2) -0.081(2) 0.4288(13)
O4? O -0.2216(13) 0.1131(11) 0.6011(12)
loop_
_geom_bond_atom_site_label_1
_geom_bond_atom_site_label_2
_geom_bond_site_symmetry_1
_geom_bond_site_symmetry_2
Ag1 N1 1_555 1_555
N1 C1 1_555 1_555
C1 C2 1_555 1_555
C2 C3 1_555 1_555
C3 H7 1_555 1_555
H1 N1 1_555 1_555
H2 N1 1_555 1_555
H3 C1 1_555 1_555
H4 C1 1_555 1_555
H5 C2 1_555 1_555
H6 C2 1_555 1_555
H8 C3 1_555 1_555
Cl1 O1 1_555 1_555
O2 Cl1 1_555 1_555
C3A C3 1_555 1_555
C2A C3A 1_555 1_555
C1A C2A 1_555 1_555
N1A C1A 1_555 1_555
Ag1_2 N1A 1_555 1_555
H1A N1A 1_555 1_555
H2A N1A 1_555 1_555
H3A C1A 1_555 1_555
H4A C1A 1_555 1_555
H5A C2A 1_555 1_555
H6A C2A 1_555 1_555
H7A C3A 1_555 1_555
H8A C3A 1_555 1_555
N1A_2 Ag1 1_555 1_555
H1A_2 N1A_2 1_555 1_555
H2A_2 N1A_2 1_555 1_555
O1A Cl1 1_555 1_555
O2A Cl1 1_555 1_555

#END
