
#######################################################################
#
#                 Cambridge Crystallographic Data Centre
#                                CCDC 
#
#######################################################################
#
# If this CIF has been generated from an entry in the Cambridge 
# Structural Database, then it will include bibliographic, chemical, 
# crystal, experimental, refinement or atomic coordinate data resulting 
# from the CCDC's data processing and validation procedures.
#
#######################################################################

data_KILQEB
_symmetry_cell_setting           monoclinic
_symmetry_space_group_name_H-M   'P 21/n'
_symmetry_Int_Tables_number      14
_space_group_name_Hall           '-P 2yn'
loop_
_symmetry_equiv_pos_site_id
_symmetry_equiv_pos_as_xyz
1 x,y,z
2 1/2-x,1/2+y,1/2-z
3 -x,-y,-z
4 1/2+x,1/2-y,1/2+z
_cell_length_a                   9.1427(4)
_cell_length_b                   19.975(2)
_cell_length_c                   11.0330(10)
_cell_angle_alpha                90
_cell_angle_beta                 103.60(4)
_cell_angle_gamma                90
_cell_volume                     1958.41
loop_
_atom_site_label
_atom_site_type_symbol
_atom_site_fract_x
_atom_site_fract_y
_atom_site_fract_z
Ag1 Ag -0.27946(4) -0.712400(14) -0.42953(3)
N1 N -0.0388(4) -1.20393(16) -0.1673(4)
N2 N -0.0845(4) -0.76747(16) -0.2624(3)
N3 N -0.1392(4) -0.71004(16) -0.5649(3)
C1 C 0.0461(5) -1.1404(2) -0.1517(5)
C2 C -0.0585(5) -1.0816(2) -0.1770(4)
C3 C 0.0193(5) -1.01396(19) -0.1685(4)
C4 C -0.0926(5) -0.95700(19) -0.2036(4)
C5 C -0.0235(4) -0.88811(19) -0.2016(4)
C6 C -0.1390(5) -0.8354(2) -0.2560(4)
C7 C -0.0203(5) -0.6588(2) -0.5378(4)
C8 C -0.0854(4) -0.5893(2) -0.5343(5)
C9 C 0.0328(5) -0.5345(2) -0.5010(5)
H1 H -0.4219 -0.7102 -0.2507
H2 H -0.5267 -0.7375 -0.3589
H3 H -0.4245 -0.2463 -0.3110
H4 H -0.5056 -0.2675 -0.2178
H5 H 0.1983 -0.2977 -0.3588
H6 H 0.0963 -0.2495 -0.4335
H7 H -0.6077 -0.6375 -0.4327
H8 H -0.6124 -0.6394 -0.2914
H9 H -0.3767 -0.5864 -0.2402
H10 H -0.3779 -0.5824 -0.3821
H11 H -0.5876 -0.5136 -0.2763
H12 H -0.5782 -0.5072 -0.4160
H13 H -0.3411 -0.4572 -0.3534
H14 H -0.3460 -0.4654 -0.2134
H15 H -0.5536 -0.3891 -0.2513
H16 H -0.5243 -0.3762 -0.3838
H17 H -0.0477 -0.3316 -0.5420
H18 H -0.0372 -0.3397 -0.3987
H19 H 0.1503 -0.4205 -0.3847
H20 H 0.1470 -0.4111 -0.5262
H21 H -0.0952 -0.4648 -0.4389
H22 H -0.0972 -0.4559 -0.5804
H23 H -0.2857 -0.3348 -0.2929
H24 H -0.3110 -0.3493 -0.1602
Ag1A Ag -0.22054(4) -1.212400(14) -0.07047(3)
N1A N -0.4612(4) -0.70393(16) -0.3327(4)
C1A C -0.5461(5) -0.6404(2) -0.3483(5)
C2A C -0.4415(5) -0.5816(2) -0.3230(4)
C3A C -0.5193(5) -0.51396(19) -0.3315(4)
C4A C -0.4074(5) -0.45700(19) -0.2964(4)
C5A C -0.4765(4) -0.38811(19) -0.2984(4)
C6A C -0.3610(5) -0.3354(2) -0.2440(4)
N2A N -0.4155(4) -0.26747(16) -0.2376(3)
Ag1A_2 Ag -0.22054(4) -0.212400(14) -0.07047(3)
C9B C -0.0328(5) -0.4655(2) -0.4990(5)
C8B C 0.0854(4) -0.4107(2) -0.4657(5)
C7B C 0.0203(5) -0.3412(2) -0.4622(4)
N3B N 0.1392(4) -0.28996(16) -0.4351(3)
Ag1B Ag 0.27946(4) -0.287600(14) -0.57047(3)
N1C N 0.4612(4) -0.29607(16) -0.6673(4)
N2B N 0.0845(4) -0.23253(16) -0.7376(3)
H21B H 0.0952 -0.5352 -0.5611
H22B H 0.0972 -0.5441 -0.4196
H19B H -0.1503 -0.5795 -0.6153
H20B H -0.1470 -0.5889 -0.4738
H17B H 0.0477 -0.6684 -0.4580
H18B H 0.0372 -0.6603 -0.6013
H5B H -0.1983 -0.7023 -0.6412
H6B H -0.0963 -0.7505 -0.5665
H3A H -0.0755 -0.7463 -0.1890
H4A H 0.0056 -0.7675 -0.2822
H23A H -0.2143 -0.8348 -0.2071
H24A H -0.1890 -0.8493 -0.3398
H15A H 0.0536 -0.8891 -0.2487
H16A H 0.0243 -0.8762 -0.1162
H13A H -0.1589 -0.9572 -0.1466
H14A H -0.1540 -0.9654 -0.2866
H11A H 0.0876 -1.0136 -0.2237
H12A H 0.0782 -1.0072 -0.0840
H9A H -0.1233 -1.0864 -0.2598
H10A H -0.1221 -1.0824 -0.1179
H7A H 0.1077 -1.1375 -0.0673
H8A H 0.1124 -1.1394 -0.2086
H1A H -0.0781 -1.2102 -0.2493
H2A H 0.0267 -1.2375 -0.1411
H1B H 0.4219 -0.2898 -0.7493
H2B H 0.5267 -0.2625 -0.6411
H3C H 0.0755 -0.2537 -0.8110
H4C H -0.0056 -0.2325 -0.7178
S1 S -0.78541(11) 0.17367(5) -0.46365(9)
O1 O -0.7646(4) 0.20713(15) -0.3453(3)
O2 O -0.6953(5) 0.20261(17) -0.5403(4)
O3 O -0.9423(4) 0.16733(16) -0.5267(4)
C10 C -0.7186(4) 0.09089(19) -0.4298(4)
C11 C -0.8148(5) 0.0374(2) -0.4603(5)
C12 C -0.7645(5) -0.0274(2) -0.4311(5)
C13 C -0.6176(5) -0.0402(2) -0.3726(4)
C14 C -0.5219(5) 0.0130(3) -0.3443(5)
C15 C -0.5708(5) 0.0781(2) -0.3726(5)
C16 C -0.5646(7) -0.1117(3) -0.3417(5)
H25 H -0.9148 0.0447 -0.5009
H26 H -0.8317 -0.0628 -0.4515
H27 H -0.4216 0.0054 -0.3052
H28 H -0.5030 0.1134 -0.3526
H29 H -0.6476 -0.1419 -0.3687
H30 H -0.5259 -0.1161 -0.2533
H31 H -0.4867 -0.1224 -0.3837
loop_
_geom_bond_atom_site_label_1
_geom_bond_atom_site_label_2
_geom_bond_site_symmetry_1
_geom_bond_site_symmetry_2
Ag1 N2 1_555 1_555
N1 C1 1_555 1_555
N2 C6 1_555 1_555
N3 Ag1 1_555 1_555
C1 C2 1_555 1_555
C2 C3 1_555 1_555
C3 C4 1_555 1_555
C4 C5 1_555 1_555
C5 C6 1_555 1_555
C6 H23A 1_555 1_555
C7 N3 1_555 1_555
C8 C7 1_555 1_555
C9 C8 1_555 1_555
H1 N1A 1_555 1_555
H2 N1A 1_555 1_555
H3 N2A 1_555 1_555
H4 N2A 1_555 1_555
H5 N3B 1_555 1_555
H6 N3B 1_555 1_555
H7 C1A 1_555 1_555
H8 C1A 1_555 1_555
H9 C2A 1_555 1_555
H10 C2A 1_555 1_555
H11 C3A 1_555 1_555
H12 C3A 1_555 1_555
H13 C4A 1_555 1_555
H14 C4A 1_555 1_555
H15 C5A 1_555 1_555
H16 C5A 1_555 1_555
H17 C7B 1_555 1_555
H18 C7B 1_555 1_555
H19 C8B 1_555 1_555
H20 C8B 1_555 1_555
H21 C9B 1_555 1_555
H22 C9B 1_555 1_555
H23 C6A 1_555 1_555
H24 C6A 1_555 1_555
S1 O1 1_555 1_555
O2 S1 1_555 1_555
O3 S1 1_555 1_555
C10 S1 1_555 1_555
C11 C10 1_555 1_555
C12 C11 1_555 1_555
C13 C12 1_555 1_555
C14 C13 1_555 1_555
C15 C10 1_555 1_555
C16 C13 1_555 1_555
H25 C11 1_555 1_555
H26 C12 1_555 1_555
H27 C14 1_555 1_555
H28 C15 1_555 1_555
H29 C16 1_555 1_555
H30 C16 1_555 1_555
H31 C16 1_555 1_555
Ag1A N1 1_555 1_555
N1A Ag1 1_555 1_555
C1A N1A 1_555 1_555
C2A C1A 1_555 1_555
C3A C2A 1_555 1_555
C4A C3A 1_555 1_555
C5A C4A 1_555 1_555
C6A C5A 1_555 1_555
N2A C6A 1_555 1_555
Ag1A_2 N2A 1_555 1_555
C9B C9 1_555 1_555
C8B C9B 1_555 1_555
C7B C8B 1_555 1_555
N3B C7B 1_555 1_555
Ag1B N3B 1_555 1_555
N1C Ag1B 1_555 1_555
N2B Ag1B 1_555 1_555
H21B C9 1_555 1_555
H22B C9 1_555 1_555
H19B C8 1_555 1_555
H20B C8 1_555 1_555
H17B C7 1_555 1_555
H18B C7 1_555 1_555
H5B N3 1_555 1_555
H6B N3 1_555 1_555
H3A N2 1_555 1_555
H4A N2 1_555 1_555
H24A C6 1_555 1_555
H15A C5 1_555 1_555
H16A C5 1_555 1_555
H13A C4 1_555 1_555
H14A C4 1_555 1_555
H11A C3 1_555 1_555
H12A C3 1_555 1_555
H9A C2 1_555 1_555
H10A C2 1_555 1_555
H7A C1 1_555 1_555
H8A C1 1_555 1_555
H1A N1 1_555 1_555
H2A N1 1_555 1_555
H1B N1C 1_555 1_555
H2B N1C 1_555 1_555
H3C N2B 1_555 1_555
H4C N2B 1_555 1_555
C14 C15 1_555 1_555

#END
