
#######################################################################
#
#                 Cambridge Crystallographic Data Centre
#                                CCDC 
#
#######################################################################
#
# If this CIF has been generated from an entry in the Cambridge 
# Structural Database, then it will include bibliographic, chemical, 
# crystal, experimental, refinement or atomic coordinate data resulting 
# from the CCDC's data processing and validation procedures.
#
#######################################################################

data_KIMXAH
_symmetry_cell_setting           monoclinic
_symmetry_space_group_name_H-M   'P 21/c'
_symmetry_Int_Tables_number      14
_space_group_name_Hall           '-P 2ybc'
loop_
_symmetry_equiv_pos_site_id
_symmetry_equiv_pos_as_xyz
1 x,y,z
2 -x,1/2+y,1/2-z
3 -x,-y,-z
4 x,1/2-y,1/2+z
_cell_length_a                   7.219(5)
_cell_length_b                   8.659(5)
_cell_length_c                   22.367(5)
_cell_angle_alpha                90
_cell_angle_beta                 90.680(5)
_cell_angle_gamma                90
_cell_volume                     1398.05
loop_
_atom_site_label
_atom_site_type_symbol
_atom_site_fract_x
_atom_site_fract_y
_atom_site_fract_z
I1 I 0.65660(3) 0.99302(2) 0.124401(11)
I2 I 1.15561(3) 0.71026(3) 0.192384(11)
Cd1 Cd 0.78491(3) 0.74888(2) 0.188890(11)
N1 N 0.2271(4) 0.2237(3) 0.11631(13)
N2 N 0.6537(4) 0.6029(3) 0.05654(12)
H1 H 0.6278 0.5914 0.0192
H2 H 0.7345 0.6703 0.0677
N3 N 0.4432(4) 0.4125(3) 0.07759(12)
N4 N 0.2927(4) 0.2442(3) 0.21417(13)
C1 C -0.1295(5) 0.2520(4) -0.01013(19)
H3 H -0.2197 0.3300 -0.0196
H4 H -0.1911 0.1559 -0.0026
H5 H -0.0468 0.2399 -0.0431
N5 N 0.6154(4) 0.5395(3) 0.15619(13)
C2 C 0.4073(4) 0.3432(3) 0.18198(14)
C3 C 0.1893(4) 0.1771(4) 0.17276(16)
H6 H 0.0986 0.1045 0.1814
C4 C 0.5680(5) 0.5158(3) 0.09742(16)
C5 C -0.0195(5) 0.3002(4) 0.04534(16)
H7 H -0.1033 0.3141 0.0785
H8 H 0.0411 0.3983 0.0379
C6 C 0.3665(4) 0.3310(3) 0.12118(15)
C7 C 0.5370(4) 0.4526(4) 0.19854(16)
H9 H 0.5697 0.4659 0.2386
C8 C 0.1260(4) 0.1790(4) 0.06195(15)
H10 H 0.0659 0.0802 0.0682
H11 H 0.2124 0.1675 0.0293
Cd1A Cd 0.21509(3) 0.24888(2) 0.311110(11)
N4A N 0.7073(4) 0.7442(3) 0.28583(13)
loop_
_geom_bond_atom_site_label_1
_geom_bond_atom_site_label_2
_geom_bond_site_symmetry_1
_geom_bond_site_symmetry_2
I1 Cd1 1_555 1_555
I2 Cd1 1_555 1_555
Cd1 N5 1_555 1_555
N1 C3 1_555 1_555
N2 H1 1_555 1_555
H2 N2 1_555 1_555
N3 C4 1_555 1_555
N4 C2 1_555 1_555
C1 H3 1_555 1_555
H4 C1 1_555 1_555
H5 C1 1_555 1_555
N5 C4 1_555 1_555
C2 C6 1_555 1_555
C3 N4 1_555 1_555
H6 C3 1_555 1_555
C4 N2 1_555 1_555
C5 C1 1_555 1_555
H7 C5 1_555 1_555
H8 C5 1_555 1_555
C6 N1 1_555 1_555
C7 N5 1_555 1_555
H9 C7 1_555 1_555
C8 N1 1_555 1_555
H10 C8 1_555 1_555
H11 C8 1_555 1_555
Cd1A N4 1_555 1_555
N4A Cd1 1_555 1_555
N3 C6 1_555 1_555
C2 C7 1_555 1_555
C5 C8 1_555 1_555

#END
