
#######################################################################
#
#                 Cambridge Crystallographic Data Centre
#                                CCDC 
#
#######################################################################
#
# If this CIF has been generated from an entry in the Cambridge 
# Structural Database, then it will include bibliographic, chemical, 
# crystal, experimental, refinement or atomic coordinate data resulting 
# from the CCDC's data processing and validation procedures.
#
#######################################################################

data_KIMYEM
_symmetry_cell_setting           triclinic
_symmetry_space_group_name_H-M   'P -1'
_symmetry_Int_Tables_number      2
_space_group_name_Hall           '-P 1'
loop_
_symmetry_equiv_pos_site_id
_symmetry_equiv_pos_as_xyz
1 x,y,z
2 -x,-y,-z
_cell_length_a                   9.9279(4)
_cell_length_b                   15.4623(5)
_cell_length_c                   20.6099(7)
_cell_angle_alpha                77.1560(10)
_cell_angle_beta                 83.1490(10)
_cell_angle_gamma                87.8380(10)
_cell_volume                     3062.4
loop_
_atom_site_label
_atom_site_type_symbol
_atom_site_fract_x
_atom_site_fract_y
_atom_site_fract_z
C1 C 1.5366(4) 0.3749(3) -0.1794(2)
C2 C 0.7978(6) 0.5553(3) -0.2412(3)
H1 H 0.8108 0.5123 -0.2666
C3 C 0.8026(6) 0.6435(3) -0.2745(3)
H2 H 0.8193 0.6587 -0.3209
C4 C 0.7822(5) 0.7091(3) -0.2378(2)
C5 C 0.7578(6) 0.6814(3) -0.1684(2)
H3 H 0.7439 0.7231 -0.1419
C6 C 0.7544(6) 0.5923(3) -0.1391(3)
H4 H 0.7369 0.5751 -0.0927
C7 C 0.7866(5) 0.8043(3) -0.2699(2)
C8 C 0.7657(5) 0.8342(3) -0.3371(2)
H5 H 0.7488 0.7940 -0.3626
C9 C 0.7704(5) 0.9240(3) -0.3653(2)
H6 H 0.7554 0.9430 -0.4100
C10 C 0.8171(5) 0.9563(3) -0.2675(2)
H7 H 0.8348 0.9979 -0.2433
C11 C 0.8145(6) 0.8679(3) -0.2357(2)
H8 H 0.8314 0.8510 -0.1911
C12 C 0.6519(7) 0.4131(6) 0.0158(3)
H9 H 0.5753 0.4250 -0.0068
C13 C 0.6359(7) 0.4093(6) 0.0841(3)
H10 H 0.5507 0.4189 0.1057
C14 C 0.7427(6) 0.3917(4) 0.1191(3)
C15 C 0.8659(8) 0.3770(6) 0.0836(3)
H11 H 0.9429 0.3626 0.1056
C16 C 0.8739(7) 0.3840(6) 0.0148(3)
H12 H 0.9577 0.3762 -0.0088
C17 C 0.7276(6) 0.3786(4) 0.1934(3)
C18 C 0.6073(7) 0.3510(5) 0.2319(3)
H13 H 0.5308 0.3443 0.2115
C19 C 0.6013(7) 0.3334(5) 0.3005(3)
H14 H 0.5189 0.3142 0.3250
C20 C 0.8173(8) 0.3703(5) 0.2964(3)
H15 H 0.8909 0.3782 0.3184
C21 C 0.8359(7) 0.3893(4) 0.2271(3)
H16 H 0.9192 0.4087 0.2038
C22 C 0.7956(5) 0.1661(3) -0.0944(2)
C23 C 0.8086(5) 0.0827(3) -0.0410(2)
C24 C 0.7784(5) 0.0858(3) 0.0264(2)
H17 H 0.7566 0.1398 0.0379
C25 C 0.7804(5) 0.0102(3) 0.0757(2)
H18 H 0.7586 0.0138 0.1202
C26 C 0.8146(5) -0.0720(3) 0.0607(2)
C27 C 0.8506(5) -0.0738(3) -0.0072(2)
C28 C 0.8467(5) 0.0025(3) -0.0571(2)
H19 H 0.8698 -0.0002 -0.1017
C29 C 0.7787(5) -0.1431(3) 0.1759(2)
C30 C 0.6438(5) -0.1495(3) 0.2019(2)
H20 H 0.5769 -0.1544 0.1750
C31 C 0.6100(4) -0.1486(3) 0.2692(2)
C32 C 0.7116(4) -0.1425(3) 0.3095(2)
H21 H 0.6887 -0.1406 0.3543
C33 C 0.8468(4) -0.1392(3) 0.2824(2)
C34 C 0.8813(4) -0.1387(3) 0.2140(2)
H22 H 0.9714 -0.1356 0.1952
C35 C 0.4634(5) -0.1541(3) 0.2980(2)
C36 C 1.0390(5) 0.3666(3) -0.1976(3)
C37 C 1.1833(4) 0.3697(3) -0.2296(2)
C38 C 1.2890(4) 0.3742(3) -0.1921(2)
H23 H 1.2699 0.3767 -0.1473
C39 C 1.4223(4) 0.3750(3) -0.2207(2)
C40 C 1.4510(5) 0.3735(3) -0.2883(2)
H24 H 1.5403 0.3751 -0.3082
C41 C 1.3461(5) 0.3696(3) -0.3250(2)
C42 C 1.2112(5) 0.3673(3) -0.2971(2)
H25 H 1.1414 0.3643 -0.3228
C43 C 1.3440(5) 0.4335(3) -0.4405(2)
C44 C 1.3364(5) 0.4234(3) -0.5062(2)
C45 C 1.2993(5) 0.4943(3) -0.5554(2)
H26 H 1.2946 0.4866 -0.5986
C46 C 1.2693(5) 0.5765(3) -0.5405(2)
C47 C 1.2823(6) 0.5872(3) -0.4762(2)
H27 H 1.2657 0.6426 -0.4660
C48 C 1.3192(6) 0.5170(3) -0.4275(2)
H28 H 1.3278 0.5259 -0.3850
C49 C 0.9592(5) -0.1383(3) 0.3246(2)
C50 C 1.2253(5) 0.6536(3) -0.5920(2)
Cd1 Cd 0.79154(3) 0.25778(2) -0.251198(15)
Cd2 Cd 0.78243(3) 0.37883(2) -0.124471(16)
N1 N 0.7756(4) 0.5285(3) -0.1749(2)
N2 N 0.7954(4) 0.9851(3) -0.33130(19)
N3 N 0.7653(4) 0.4014(3) -0.0185(2)
N4 N 0.7023(7) 0.3414(4) 0.3343(3)
N5 N 0.8911(5) -0.1556(3) -0.0284(2)
N6 N 1.3642(5) 0.3386(3) -0.5254(2)
O1 O 1.6552(3) 0.3581(2) -0.20496(16)
O2 O 1.5163(3) 0.3927(3) -0.12304(16)
O3 O 0.7671(5) 0.2360(2) -0.07482(18)
O4 O 0.8091(3) 0.1582(2) -0.15425(15)
O5 O 0.9293(5) -0.1526(3) -0.08698(18)
O6 O 0.8829(7) -0.2251(3) 0.0115(2)
O7 O 0.8156(3) -0.1480(2) 0.10845(15)
O8 O 0.3783(3) -0.1714(2) 0.26289(19)
O9 O 0.4340(3) -0.1381(3) 0.35519(17)
O10 O 1.0136(4) 0.3847(3) -0.14161(19)
O11 O 0.9484(3) 0.3486(2) -0.2301(2)
O12 O 1.3759(4) 0.3627(2) -0.39233(15)
O13 O 1.4107(5) 0.2778(3) -0.4868(2)
O14 O 1.3412(5) 0.3330(3) -0.5806(2)
O15 O 1.0788(3) -0.1573(2) 0.30051(15)
O16 O 0.9390(3) -0.1170(2) 0.37982(16)
O17 O 1.2285(4) 0.6448(2) -0.65109(16)
O18 O 1.1854(4) 0.7221(2) -0.57077(18)
C51 C 0.8785(5) 1.1001(4) -0.5299(3)
H29 H 0.9657 1.0929 -0.5172
C52 C 0.8619(5) 1.0970(4) -0.5947(3)
H30 H 0.9364 1.0881 -0.6245
C53 C 0.7325(5) 1.1072(3) -0.6149(2)
C54 C 0.6271(5) 1.1180(4) -0.5674(3)
H31 H 0.5385 1.1232 -0.5783
C55 C 0.6529(5) 1.1210(4) -0.5044(3)
H32 H 0.5800 1.1293 -0.4735
C56 C 0.7070(5) 1.1087(3) -0.6847(2)
C57 C 0.7985(6) 1.1464(4) -0.7389(3)
H33 H 0.8817 1.1667 -0.7322
C58 C 0.7645(7) 1.1534(4) -0.8031(3)
H34 H 0.8269 1.1788 -0.8390
C59 C 0.5641(7) 1.0847(4) -0.7637(3)
H35 H 0.4846 1.0611 -0.7719
C60 C 0.5879(6) 1.0749(4) -0.6982(3)
H36 H 0.5256 1.0462 -0.6635
Cd3 Cd 0.79418(3) 1.13542(2) -0.379699(16)
N7 N 0.7775(4) 1.1127(3) -0.4845(2)
N8 N 0.6467(6) 1.1256(4) -0.8165(2)
Cd1_2 Cd 1.79154(3) 0.25778(2) -0.251198(15)
Cd1A Cd 0.20846(3) -0.25778(2) 0.251198(15)
Cd1A_2 Cd 1.20846(3) -0.25778(2) 0.251198(15)
Cd1A_3 Cd 1.20846(3) 0.74222(2) -0.748802(15)
Cd2_2 Cd 1.78243(3) 0.37883(2) -0.124471(16)
O1_2 O 0.6552(3) 0.3581(2) -0.20496(16)
O2_2 O 0.5163(3) 0.3927(3) -0.12304(16)
O8A O 0.6217(3) 0.1714(2) -0.26289(19)
O9A O 0.5660(3) 1.1381(3) -0.35519(17)
O15A O 0.9212(3) 0.1573(2) -0.30051(15)
O15A_2 O 0.9212(3) 1.1573(2) -0.30051(15)
O16A O 1.0610(3) 1.1170(2) -0.37982(16)
O17A O 0.7715(4) 0.3552(2) -0.34891(16)
O18A O 0.8146(4) 1.2779(2) -0.42923(18)
Cd3A Cd 0.20582(3) -0.13542(2) 0.379699(16)
Cd3A_2 Cd 1.20582(3) -0.13542(2) 0.379699(16)
Cd3A_3 Cd 1.20582(3) 0.86458(2) -0.620301(16)
O19 O 0.7547(6) 0.8746(4) -0.5064(2)
O20 O 0.5677(6) 0.8408(4) -0.0912(3)
O21 O 0.5351(9) -0.1747(7) 0.0425(4)
O22 O 0.4210(10) -0.0257(6) 0.1264(5)
O23 O 0.9569(10) 0.7035(6) -0.4582(5)
O24 O 0.6707(11) 0.6441(7) 0.0048(4)
O25 O 0.5000 0.0000 0.0000
loop_
_geom_bond_atom_site_label_1
_geom_bond_atom_site_label_2
_geom_bond_site_symmetry_1
_geom_bond_site_symmetry_2
C1 C39 1_555 1_555
C2 H1 1_555 1_555
C3 C2 1_555 1_555
H2 C3 1_555 1_555
C4 C3 1_555 1_555
C5 C4 1_555 1_555
H3 C5 1_555 1_555
C6 C5 1_555 1_555
H4 C6 1_555 1_555
C7 C4 1_555 1_555
C8 C7 1_555 1_555
H5 C8 1_555 1_555
C9 C8 1_555 1_555
H6 C9 1_555 1_555
C10 H7 1_555 1_555
C11 C7 1_555 1_555
H8 C11 1_555 1_555
C12 H9 1_555 1_555
C13 C12 1_555 1_555
H10 C13 1_555 1_555
C14 C13 1_555 1_555
C15 C14 1_555 1_555
H11 C15 1_555 1_555
C16 C15 1_555 1_555
H12 C16 1_555 1_555
C17 C14 1_555 1_555
C18 C17 1_555 1_555
H13 C18 1_555 1_555
C19 C18 1_555 1_555
H14 C19 1_555 1_555
C20 H15 1_555 1_555
C21 C17 1_555 1_555
H16 C21 1_555 1_555
C22 C23 1_555 1_555
C23 C24 1_555 1_555
C24 H17 1_555 1_555
C25 C24 1_555 1_555
H18 C25 1_555 1_555
C26 C25 1_555 1_555
C27 C26 1_555 1_555
C28 C23 1_555 1_555
H19 C28 1_555 1_555
C29 C30 1_555 1_555
C30 H20 1_555 1_555
C31 C30 1_555 1_555
C32 C31 1_555 1_555
H21 C32 1_555 1_555
C33 C32 1_555 1_555
C34 C29 1_555 1_555
H22 C34 1_555 1_555
C35 C31 1_555 1_555
C36 C37 1_555 1_555
C37 C38 1_555 1_555
C38 H23 1_555 1_555
C39 C38 1_555 1_555
C40 C39 1_555 1_555
H24 C40 1_555 1_555
C41 C40 1_555 1_555
C42 C37 1_555 1_555
H25 C42 1_555 1_555
C43 C44 1_555 1_555
C44 C45 1_555 1_555
C45 H26 1_555 1_555
C46 C45 1_555 1_555
C47 C46 1_555 1_555
H27 C47 1_555 1_555
C48 C43 1_555 1_555
H28 C48 1_555 1_555
C49 C33 1_555 1_555
C50 C46 1_555 1_555
Cd1 O4 1_555 1_555
Cd2 N1 1_555 1_555
N1 C2 1_555 1_555
N2 C9 1_555 1_555
N3 C12 1_555 1_555
N4 C19 1_555 1_555
N5 C27 1_555 1_555
N6 C44 1_555 1_555
O1 C1 1_555 1_555
O2 C1 1_555 1_555
O3 C22 1_555 1_555
O4 C22 1_555 1_555
O5 N5 1_555 1_555
O6 N5 1_555 1_555
O7 C26 1_555 1_555
O8 C35 1_555 1_555
O9 C35 1_555 1_555
O10 C36 1_555 1_555
O11 C36 1_555 1_555
O12 C41 1_555 1_555
O13 N6 1_555 1_555
O14 N6 1_555 1_555
O15 C49 1_555 1_555
O16 C49 1_555 1_555
O17 C50 1_555 1_555
O18 C50 1_555 1_555
C51 H29 1_555 1_555
C52 C51 1_555 1_555
H30 C52 1_555 1_555
C53 C52 1_555 1_555
C54 C53 1_555 1_555
H31 C54 1_555 1_555
C55 C54 1_555 1_555
H32 C55 1_555 1_555
C56 C53 1_555 1_555
C57 C56 1_555 1_555
H33 C57 1_555 1_555
C58 C57 1_555 1_555
H34 C58 1_555 1_555
C59 H35 1_555 1_555
C60 C56 1_555 1_555
H36 C60 1_555 1_555
Cd3 N2 1_555 1_555
N7 C51 1_555 1_555
N8 C58 1_555 1_555
Cd1_2 O1 1_555 1_555
Cd1A O8 1_555 1_555
Cd1A_2 O15 1_555 1_555
Cd1A_3 O17 1_555 1_555
Cd2_2 O1 1_555 1_555
O1_2 Cd1 1_555 1_555
O2_2 Cd2 1_555 1_555
O8A Cd1 1_555 1_555
O9A Cd3 1_555 1_555
O15A Cd1 1_555 1_555
O15A_2 Cd3 1_555 1_555
O16A Cd3 1_555 1_555
O17A Cd1 1_555 1_555
O18A Cd3 1_555 1_555
Cd3A O9 1_555 1_555
Cd3A_2 O15 1_555 1_555
Cd3A_3 O18 1_555 1_555
C6 N1 1_555 1_555
C10 C11 1_555 1_555
C10 N2 1_555 1_555
C16 N3 1_555 1_555
C20 C21 1_555 1_555
C20 N4 1_555 1_555
C27 C28 1_555 1_555
C29 O7 1_555 1_555
C33 C34 1_555 1_555
C41 C42 1_555 1_555
C43 O12 1_555 1_555
C47 C48 1_555 1_555
Cd1 O11 1_555 1_555
Cd2 N3 1_555 1_555
Cd2 O3 1_555 1_555
Cd2 O10 1_555 1_555
Cd2 O11 1_555 1_555
Cd2 O1_2 1_555 1_555
O2 Cd2_2 1_555 1_555
O16 Cd3A_2 1_555 1_555
C55 N7 1_555 1_555
C59 C60 1_555 1_555
C59 N8 1_555 1_555
Cd3 N7 1_555 1_555

#END
